data_functionalizedCrystal
_audit_creation_method	'EQeq! by Chris Wilmer'
_symmetry_space_group_name_H-M	'P1'
_symmetry_Int_Tables_number	1
_symmetry_cell_setting	triclinic
loop_
_symmetry_equiv_pos_as_xyz
  x,y,z
_cell_length_a	18.7481
_cell_length_b	20.0714
_cell_length_c	32.865
_cell_angle_alpha	90
_cell_angle_beta	98.535
_cell_angle_gamma	90
loop_
_atom_site_label
_atom_site_type_symbol
_atom_site_fract_x
_atom_site_fract_y
_atom_site_fract_z
_atom_site_charge
Mof_Co	Co	0.79112	0.19191	0.99918	1.152
Mof_Co	Co	0.72417	0.34	0.03839	1.164
Mof_Co	Co	0.77332	0.35522	0.94643	1.168
Mof_Co	Co	0.82347	0.20818	0.90729	1.144
Mof_Co	Co	0.67761	0.1894	0.07593	1.151
Mof_N 	N 	0.8748	0.1529	0.86348	-0.214
Mof_N 	N 	0.2727	0.5507	0.95023	-0.195
Mof_N 	N 	0.7699	0.4639	0.94636	-0.203
Mof_N 	N 	0.6226	0.3625	0.61996	-0.209
Mof_O 	O 	0.7187	0.2437	0.62249	-0.436
Mof_O 	O 	0.7838	0.1659	0.59561	-0.435
Mof_O 	O 	0.1813	0.8804	0.95867	-0.468
Mof_O 	O 	0.2311	0.8682	0.90176	-0.442
Mof_O 	O 	0.8753	0.36247	0.92858	-0.442
Mof_O 	O 	0.9206	0.2596	0.92213	-0.451
Mof_O 	O 	0.6217	0.2614	0.94642	-0.271
Mof_O 	O 	0.67158	0.35658	0.9724	-0.48
Mof_O 	O 	0.1246	0.7494	0.97237	-0.455
Mof_O 	O 	0.17523	0.64882	0.98681	-0.519
Mof_O 	O 	0.4233	0.7603	0.9415	-0.416
Mof_O 	O 	0.3775	0.6568	0.9432	-0.432
Mof_O 	O 	0.7185	0.3562	0.8872	-0.416
Mof_O 	O 	0.7722	0.2685	0.86071	-0.434
Mof_O 	O 	0.2575	0.636	0.59935	-0.435
Mof_O 	O 	0.2825	0.6225	0.5349	-0.424
Mof_O 	O 	0.77056	0.25428	0.94941	-0.599
Mof_O 	O 	0.71301	0.23824	0.02719	-0.58
Mof_C 	C 	0.9277	0.1092	0.87493	0.038
Mof_H 	H 	0.9433	0.1035	0.9029	-0.008
Mof_C 	C 	0.9611	0.0715	0.8473	-0.049
Mof_C 	C 	0.9395	0.0833	0.8051	-0.02
Mof_H 	H 	0.9611	0.0601	0.7857	0.036
Mof_C 	C 	0.8857	0.1299	0.7923	-0.054
Mof_C 	C 	0.8546	0.162	0.82315	0.037
Mof_H 	H 	0.8171	0.1918	0.815	0.022
Mof_C 	C 	0.0177	0.0227	0.8638	0.098
Mof_C 	C 	0.0105	0.9894	0.8999	-0.153
Mof_H 	H 	0.9696	0.996	0.9123	0.078
Mof_C 	C 	0.0639	0.9464	0.9175	0.079
Mof_H 	H 	0.0585	0.9248	0.9419	0.007
Mof_C 	C 	0.1253	0.9348	0.89958	-0.151
Mof_C 	C 	0.1296	0.9646	0.8618	0.08
Mof_H 	H 	0.1685	0.9552	0.8482	0.015
Mof_C 	C 	0.0766	0.0079	0.8444	-0.157
Mof_H 	H 	0.0804	0.0276	0.8192	0.086
Mof_C 	C 	0.1842	0.8901	0.92118	0.407
Mof_C 	C 	0.8598	0.1465	0.7487	0.12
Mof_C 	C 	0.8613	0.1055	0.7171	-0.185
Mof_H 	H 	0.8833	0.0642	0.7221	0.096
Mof_C 	C 	0.8318	0.1211	0.6774	0.11
Mof_H 	H 	0.8341	0.09	0.6566	0.006
Mof_C 	C 	0.7999	0.1798	0.66773	-0.163
Mof_C 	C 	0.8096	0.2284	0.6985	0.094
Mof_H 	H 	0.7961	0.2722	0.6921	0.01
Mof_C 	C 	0.8386	0.2124	0.7379	-0.17
Mof_H 	H 	0.8444	0.2455	0.7579	0.095
Mof_C 	C 	0.7645	0.1983	0.62504	0.398
Mof_C 	C 	0.3332	0.517	0.94827	0.026
Mof_H 	H 	0.3763	0.5407	0.9513	0.025
Mof_C 	C 	0.3361	0.4485	0.942	-0.035
Mof_C 	C 	0.2706	0.414	0.9361	-0.032
Mof_H 	H 	0.2699	0.3683	0.9314	0.039
Mof_C 	C 	0.2062	0.4483	0.93726	-0.037
Mof_C 	C 	0.2107	0.5169	0.94463	0.028
Mof_H 	H 	0.1681	0.5403	0.9457	0.024
Mof_C 	C 	0.4077	0.4147	0.9429	0.088
Mof_C 	C 	0.4686	0.446	0.9629	-0.139
Mof_H 	H 	0.4644	0.4879	0.9744	0.079
Mof_C 	C 	0.5363	0.416	0.9661	0.061
Mof_H 	H 	0.5765	0.4385	0.9793	0.014
Mof_C 	C 	0.5447	0.3537	0.94993	-0.128
Mof_C 	C 	0.4844	0.322	0.9305	0.062
Mof_H 	H 	0.4886	0.2798	0.9194	0.023
Mof_C 	C 	0.4169	0.3519	0.9271	-0.14
Mof_H 	H 	0.3769	0.3291	0.9138	0.079
Mof_C 	C 	0.6173	0.3208	0.95602	0.343
Mof_C 	C 	0.1352	0.4139	0.9321	0.093
Mof_C 	C 	0.1283	0.3488	0.945	-0.146
Mof_H 	H 	0.1693	0.3251	0.956	0.08
Mof_C 	C 	0.0611	0.3183	0.9417	0.073
Mof_H 	H 	0.0576	0.2744	0.9502	0.014
Mof_C 	C 	0.9992	0.3527	0.92575	-0.142
Mof_C 	C 	0.0063	0.4171	0.9116	0.073
Mof_H 	H 	0.9655	0.4404	0.8999	0.016
Mof_C 	C 	0.0731	0.4472	0.9145	-0.151
Mof_H 	H 	0.0766	0.4903	0.9046	0.087
Mof_C 	C 	0.9258	0.3224	0.9257	0.384
Mof_C 	C 	0.7089	0.4989	0.94464	0.032
Mof_H 	H 	0.6659	0.4755	0.9434	0.02
Mof_C 	C 	0.7059	0.5673	0.9445	-0.039
Mof_C 	C 	0.772	0.602	0.9476	-0.028
Mof_H 	H 	0.7724	0.6484	0.9483	0.038
Mof_C 	C 	0.8365	0.567	0.94945	-0.039
Mof_C 	C 	0.8318	0.4977	0.94784	0.026
Mof_H 	H 	0.8741	0.4735	0.9478	0.023
Mof_C 	C 	0.9088	0.6001	0.9538	0.099
Mof_C 	C 	0.9704	0.562	0.9665	-0.159
Mof_H 	H 	0.9656	0.5165	0.9705	0.087
Mof_C 	C 	0.0379	0.59	0.9731	0.087
Mof_H 	H 	0.0778	0.5634	0.982	0.005
Mof_C 	C 	0.0473	0.6567	0.96673	-0.156
Mof_C 	C 	0.9872	0.6951	0.9533	0.083
Mof_H 	H 	0.9927	0.7403	0.9483	0.013
Mof_C 	C 	0.9195	0.6674	0.9472	-0.156
Mof_H 	H 	0.8798	0.6944	0.9385	0.084
Mof_C 	C 	0.1207	0.6875	0.97534	0.377
Mof_C 	C 	0.6358	0.6031	0.9422	0.09
Mof_C 	C 	0.5735	0.5748	0.9215	-0.144
Mof_H 	H 	0.576	0.5345	0.9079	0.084
Mof_C 	C 	0.5066	0.6063	0.9209	0.063
Mof_H 	H 	0.4653	0.5863	0.907	0.019
Mof_C 	C 	0.5009	0.6668	0.94044	-0.132
Mof_C 	C 	0.5641	0.6957	0.9607	0.066
Mof_H 	H 	0.562	0.7369	0.9735	0.018
Mof_C 	C 	0.63	0.6636	0.9621	-0.14
Mof_H 	H 	0.6712	0.683	0.9766	0.078
Mof_C 	C 	0.428	0.6974	0.94158	0.381
Mof_C 	C 	0.6453	0.355	0.6601	0.031
Mof_H 	H 	0.6863	0.3293	0.6683	0.028
Mof_C 	C 	0.6106	0.3838	0.6903	-0.041
Mof_C 	C 	0.5525	0.425	0.678	-0.03
Mof_H 	H 	0.5295	0.4463	0.6976	0.037
Mof_C 	C 	0.5279	0.4351	0.6357	-0.039
Mof_C 	C 	0.5648	0.4008	0.60863	0.032
Mof_H 	H 	0.5481	0.4047	0.5806	-0.001
Mof_C 	C 	0.6381	0.3694	0.7342	0.097
Mof_C 	C 	0.661	0.3031	0.7446	-0.143
Mof_H 	H 	0.6566	0.2704	0.7244	0.087
Mof_C 	C 	0.6898	0.2868	0.785	0.065
Mof_H 	H 	0.7048	0.2435	0.7917	0.02
Mof_C 	C 	0.696	0.3367	0.81575	-0.14
Mof_C 	C 	0.6616	0.3949	0.806	0.082
Mof_H 	H 	0.6572	0.4255	0.8267	0.016
Mof_C 	C 	0.6326	0.4102	0.7657	-0.159
Mof_H 	H 	0.6084	0.4504	0.7604	0.086
Mof_C 	C 	0.7318	0.3183	0.85816	0.389
Mof_C 	C 	0.4667	0.4789	0.62031	0.067
Mof_C 	C 	0.43	0.4726	0.5799	-0.076
Mof_H 	H 	0.4434	0.4388	0.5633	0.052
Mof_C 	C 	0.3745	0.5151	0.5643	0.018
Mof_H 	H 	0.3517	0.5103	0.5373	0.024
Mof_C 	C 	0.3849	0.568	0.6296	0.008
Mof_H 	H 	0.3685	0.5985	0.6474	0.036
Mof_C 	C 	0.4413	0.5254	0.6444	-0.041
Mof_H 	H 	0.4624	0.529	0.6717	0.042
Mof_C 	C 	0.353	0.5655	0.5893	-0.102
Mof_C 	C 	0.2925	0.6115	0.57314	0.368
Mof_C 	C 	0.4687	0.5126	0.5833	-0.052
Mof_H 	H 	0.5078	0.5069	0.5693	0.041
Mof_C 	C 	0.4109	0.5556	0.5669	-0.006
Mof_H 	H 	0.4114	0.5769	0.5418	0.035
Mof_C 	C 	0.3553	0.533	0.6281	-0
Mof_H 	H 	0.3184	0.5405	0.6437	0.035
Mof_C 	C 	0.4114	0.4904	0.6431	-0.079
Mof_H 	H 	0.4119	0.4696	0.6684	0.054
Mof_Co	Co	0.20888	0.69191	0.50082	1.151
Mof_Co	Co	0.27583	0.84	0.46161	1.163
Mof_Co	Co	0.22668	0.85522	0.55357	1.167
Mof_Co	Co	0.17653	0.70818	0.59271	1.143
Mof_Co	Co	0.32239	0.6894	0.42407	1.15
Mof_N 	N 	0.1252	0.6529	0.63652	-0.215
Mof_N 	N 	0.7273	0.0507	0.54977	-0.195
Mof_N 	N 	0.2301	0.9639	0.55364	-0.204
Mof_N 	N 	0.3774	0.8625	0.88004	-0.209
Mof_O 	O 	0.2813	0.7437	0.87751	-0.436
Mof_O 	O 	0.2162	0.6659	0.90439	-0.435
Mof_O 	O 	0.8187	0.3804	0.54133	-0.469
Mof_O 	O 	0.7689	0.3682	0.59824	-0.443
Mof_O 	O 	0.1247	0.86247	0.57142	-0.441
Mof_O 	O 	0.0794	0.7596	0.57787	-0.451
Mof_O 	O 	0.3783	0.7614	0.55358	-0.271
Mof_O 	O 	0.32842	0.85658	0.5276	-0.479
Mof_O 	O 	0.8754	0.2494	0.52763	-0.455
Mof_O 	O 	0.82477	0.14882	0.51319	-0.519
Mof_O 	O 	0.5767	0.2603	0.5585	-0.416
Mof_O 	O 	0.6225	0.1568	0.5568	-0.432
Mof_O 	O 	0.2815	0.8562	0.6128	-0.416
Mof_O 	O 	0.2278	0.7685	0.63929	-0.434
Mof_O 	O 	0.7425	0.136	0.90065	-0.435
Mof_O 	O 	0.7175	0.1225	0.9651	-0.424
Mof_O 	O 	0.22944	0.75428	0.55059	-0.599
Mof_O 	O 	0.28699	0.73824	0.47281	-0.58
Mof_C 	C 	0.0723	0.6092	0.62507	0.038
Mof_H 	H 	0.0567	0.6035	0.5971	-0.008
Mof_C 	C 	0.0389	0.5715	0.6527	-0.05
Mof_C 	C 	0.0605	0.5833	0.6949	-0.019
Mof_H 	H 	0.0389	0.5601	0.7143	0.036
Mof_C 	C 	0.1143	0.6299	0.7077	-0.055
Mof_C 	C 	0.1454	0.662	0.67685	0.037
Mof_H 	H 	0.1829	0.6918	0.685	0.022
Mof_C 	C 	0.9823	0.5227	0.6362	0.101
Mof_C 	C 	0.9895	0.4894	0.6001	-0.159
Mof_H 	H 	0.0304	0.496	0.5877	0.081
Mof_C 	C 	0.9361	0.4464	0.5825	0.082
Mof_H 	H 	0.9415	0.4248	0.5581	0.006
Mof_C 	C 	0.8747	0.4348	0.60042	-0.152
Mof_C 	C 	0.8704	0.4646	0.6382	0.081
Mof_H 	H 	0.8315	0.4552	0.6518	0.014
Mof_C 	C 	0.9234	0.5079	0.6556	-0.158
Mof_H 	H 	0.9196	0.5276	0.6808	0.087
Mof_C 	C 	0.8158	0.3901	0.57882	0.408
Mof_C 	C 	0.1402	0.6465	0.7513	0.121
Mof_C 	C 	0.1387	0.6055	0.7829	-0.186
Mof_H 	H 	0.1167	0.5642	0.7779	0.096
Mof_C 	C 	0.1682	0.6211	0.8226	0.11
Mof_H 	H 	0.1659	0.59	0.8434	0.005
Mof_C 	C 	0.2001	0.6798	0.83227	-0.163
Mof_C 	C 	0.1904	0.7284	0.8015	0.094
Mof_H 	H 	0.2039	0.7722	0.8079	0.01
Mof_C 	C 	0.1614	0.7124	0.7621	-0.17
Mof_H 	H 	0.1556	0.7455	0.7421	0.095
Mof_C 	C 	0.2355	0.6983	0.87496	0.398
Mof_C 	C 	0.6668	0.017	0.55173	0.026
Mof_H 	H 	0.6237	0.0407	0.5487	0.025
Mof_C 	C 	0.6639	0.9485	0.558	-0.035
Mof_C 	C 	0.7294	0.914	0.5639	-0.032
Mof_H 	H 	0.7301	0.8683	0.5686	0.039
Mof_C 	C 	0.7938	0.9483	0.56274	-0.036
Mof_C 	C 	0.7893	0.0169	0.55537	0.028
Mof_H 	H 	0.8319	0.0403	0.5543	0.024
Mof_C 	C 	0.5923	0.9147	0.5571	0.087
Mof_C 	C 	0.5314	0.946	0.5371	-0.139
Mof_H 	H 	0.5356	0.9879	0.5256	0.079
Mof_C 	C 	0.4637	0.916	0.5339	0.061
Mof_H 	H 	0.4235	0.9385	0.5207	0.015
Mof_C 	C 	0.4553	0.8537	0.55007	-0.128
Mof_C 	C 	0.5156	0.822	0.5695	0.062
Mof_H 	H 	0.5114	0.7798	0.5806	0.023
Mof_C 	C 	0.5831	0.8519	0.5729	-0.14
Mof_H 	H 	0.6231	0.8291	0.5862	0.079
Mof_C 	C 	0.3827	0.8208	0.54398	0.343
Mof_C 	C 	0.8648	0.9139	0.5679	0.09
Mof_C 	C 	0.8717	0.8488	0.555	-0.143
Mof_H 	H 	0.8307	0.8251	0.544	0.079
Mof_C 	C 	0.9389	0.8183	0.5583	0.068
Mof_H 	H 	0.9424	0.7744	0.5498	0.015
Mof_C 	C 	0.0008	0.8527	0.57425	-0.136
Mof_C 	C 	0.9937	0.9171	0.5884	0.066
Mof_H 	H 	0.0345	0.9404	0.6001	0.019
Mof_C 	C 	0.9269	0.9472	0.5855	-0.146
Mof_H 	H 	0.9234	0.9903	0.5954	0.085
Mof_C 	C 	0.0742	0.8224	0.5743	0.382
Mof_C 	C 	0.2911	0.9989	0.55536	0.032
Mof_H 	H 	0.3341	0.9755	0.5566	0.02
Mof_C 	C 	0.2941	0.0673	0.5555	-0.04
Mof_C 	C 	0.228	0.102	0.5524	-0.028
Mof_H 	H 	0.2276	0.1484	0.5517	0.037
Mof_C 	C 	0.1635	0.067	0.55055	-0.04
Mof_C 	C 	0.1682	0.9977	0.55216	0.027
Mof_H 	H 	0.1259	0.9735	0.5522	0.023
Mof_C 	C 	0.0912	0.1001	0.5462	0.099
Mof_C 	C 	0.0296	0.062	0.5335	-0.159
Mof_H 	H 	0.0344	0.0165	0.5295	0.087
Mof_C 	C 	0.9621	0.09	0.5269	0.087
Mof_H 	H 	0.9222	0.0634	0.518	0.005
Mof_C 	C 	0.9527	0.1567	0.53327	-0.157
Mof_C 	C 	0.0128	0.1951	0.5467	0.084
Mof_H 	H 	0.0073	0.2403	0.5517	0.013
Mof_C 	C 	0.0805	0.1674	0.5528	-0.157
Mof_H 	H 	0.1202	0.1944	0.5615	0.084
Mof_C 	C 	0.8793	0.1875	0.52466	0.377
Mof_C 	C 	0.3642	0.1031	0.5578	0.09
Mof_C 	C 	0.4265	0.0748	0.5785	-0.144
Mof_H 	H 	0.424	0.0345	0.5921	0.084
Mof_C 	C 	0.4934	0.1063	0.5791	0.063
Mof_H 	H 	0.5347	0.0863	0.593	0.019
Mof_C 	C 	0.4991	0.1668	0.55956	-0.133
Mof_C 	C 	0.4359	0.1957	0.5393	0.066
Mof_H 	H 	0.438	0.2369	0.5265	0.018
Mof_C 	C 	0.37	0.1636	0.5379	-0.141
Mof_H 	H 	0.3288	0.183	0.5234	0.078
Mof_C 	C 	0.572	0.1974	0.55842	0.381
Mof_C 	C 	0.3547	0.855	0.8399	0.031
Mof_H 	H 	0.3137	0.8293	0.8317	0.028
Mof_C 	C 	0.3894	0.8838	0.8097	-0.041
Mof_C 	C 	0.4475	0.925	0.822	-0.03
Mof_H 	H 	0.4705	0.9463	0.8024	0.037
Mof_C 	C 	0.4721	0.9351	0.8643	-0.039
Mof_C 	C 	0.4352	0.9008	0.89137	0.032
Mof_H 	H 	0.4519	0.9047	0.9194	-0.001
Mof_C 	C 	0.3619	0.8694	0.7658	0.097
Mof_C 	C 	0.339	0.8031	0.7554	-0.143
Mof_H 	H 	0.3434	0.7704	0.7756	0.087
Mof_C 	C 	0.3102	0.7868	0.715	0.065
Mof_H 	H 	0.2952	0.7435	0.7083	0.02
Mof_C 	C 	0.304	0.8367	0.68425	-0.14
Mof_C 	C 	0.3384	0.8949	0.694	0.082
Mof_H 	H 	0.3428	0.9255	0.6733	0.016
Mof_C 	C 	0.3674	0.9102	0.7343	-0.159
Mof_H 	H 	0.3916	0.9504	0.7396	0.086
Mof_C 	C 	0.2682	0.8183	0.64184	0.389
Mof_C 	C 	0.5333	0.9789	0.87969	0.067
Mof_C 	C 	0.57	0.9726	0.9201	-0.079
Mof_H 	H 	0.5566	0.9388	0.9367	0.054
Mof_C 	C 	0.6255	0.0151	0.9357	0.022
Mof_H 	H 	0.6483	0.0103	0.9627	0.023
Mof_C 	C 	0.6151	0.068	0.8704	0.007
Mof_H 	H 	0.6315	0.0985	0.8526	0.037
Mof_C 	C 	0.5587	0.0254	0.8556	-0.04
Mof_H 	H 	0.5376	0.029	0.8283	0.041
Mof_C 	C 	0.647	0.0655	0.9107	-0.102
Mof_C 	C 	0.7075	0.1115	0.92686	0.368
Mof_C 	C 	0.5313	0.0126	0.9167	-0.049
Mof_H 	H 	0.4922	0.0069	0.9307	0.04
Mof_C 	C 	0.5891	0.0556	0.9331	-0.009
Mof_H 	H 	0.5886	0.0769	0.9582	0.036
Mof_C 	C 	0.6447	0.033	0.8719	0.002
Mof_H 	H 	0.6816	0.0405	0.8563	0.034
Mof_C 	C 	0.5886	0.9904	0.8569	-0.08
Mof_H 	H 	0.5881	0.9696	0.8316	0.054
Mof_Co	Co	0.20888	0.80809	0.00082	1.151
Mof_Co	Co	0.27583	0.66	0.96161	1.163
Mof_Co	Co	0.22668	0.64478	0.05357	1.167
Mof_Co	Co	0.17653	0.79182	0.09271	1.143
Mof_Co	Co	0.32239	0.8106	0.92407	1.15
Mof_N 	N 	0.1252	0.8471	0.13652	-0.215
Mof_N 	N 	0.7273	0.4493	0.04977	-0.195
Mof_N 	N 	0.2301	0.5361	0.05364	-0.203
Mof_N 	N 	0.3774	0.6375	0.38004	-0.209
Mof_O 	O 	0.2813	0.7563	0.37751	-0.436
Mof_O 	O 	0.2162	0.8341	0.40439	-0.435
Mof_O 	O 	0.8187	0.1196	0.04133	-0.468
Mof_O 	O 	0.7689	0.1318	0.09824	-0.442
Mof_O 	O 	0.1247	0.63753	0.07142	-0.442
Mof_O 	O 	0.0794	0.7404	0.07787	-0.451
Mof_O 	O 	0.3783	0.7386	0.05358	-0.271
Mof_O 	O 	0.32842	0.64342	0.0276	-0.48
Mof_O 	O 	0.8754	0.2506	0.02763	-0.455
Mof_O 	O 	0.82477	0.35118	0.01319	-0.519
Mof_O 	O 	0.5767	0.2397	0.0585	-0.416
Mof_O 	O 	0.6225	0.3432	0.0568	-0.432
Mof_O 	O 	0.2815	0.6438	0.1128	-0.416
Mof_O 	O 	0.2278	0.7315	0.13929	-0.434
Mof_O 	O 	0.7425	0.364	0.40065	-0.435
Mof_O 	O 	0.7175	0.3775	0.4651	-0.424
Mof_O 	O 	0.22944	0.74572	0.05059	-0.599
Mof_O 	O 	0.28699	0.76176	0.97281	-0.58
Mof_C 	C 	0.0723	0.8908	0.12507	0.038
Mof_H 	H 	0.0567	0.8965	0.0971	-0.008
Mof_C 	C 	0.0389	0.9285	0.1527	-0.049
Mof_C 	C 	0.0605	0.9167	0.1949	-0.02
Mof_H 	H 	0.0389	0.9399	0.2143	0.036
Mof_C 	C 	0.1143	0.8701	0.2077	-0.054
Mof_C 	C 	0.1454	0.838	0.17685	0.037
Mof_H 	H 	0.1829	0.8082	0.185	0.022
Mof_C 	C 	0.9823	0.9773	0.1362	0.098
Mof_C 	C 	0.9895	0.0106	0.1001	-0.153
Mof_H 	H 	0.0304	0.004	0.0877	0.078
Mof_C 	C 	0.9361	0.0536	0.0825	0.079
Mof_H 	H 	0.9415	0.0752	0.0581	0.007
Mof_C 	C 	0.8747	0.0652	0.10042	-0.151
Mof_C 	C 	0.8704	0.0354	0.1382	0.08
Mof_H 	H 	0.8315	0.0448	0.1518	0.015
Mof_C 	C 	0.9234	0.9921	0.1556	-0.157
Mof_H 	H 	0.9196	0.9724	0.1808	0.086
Mof_C 	C 	0.8158	0.1099	0.07882	0.407
Mof_C 	C 	0.1402	0.8535	0.2513	0.12
Mof_C 	C 	0.1387	0.8945	0.2829	-0.185
Mof_H 	H 	0.1167	0.9358	0.2779	0.096
Mof_C 	C 	0.1682	0.8789	0.3226	0.11
Mof_H 	H 	0.1659	0.91	0.3434	0.006
Mof_C 	C 	0.2001	0.8202	0.33227	-0.163
Mof_C 	C 	0.1904	0.7716	0.3015	0.094
Mof_H 	H 	0.2039	0.7278	0.3079	0.01
Mof_C 	C 	0.1614	0.7876	0.2621	-0.17
Mof_H 	H 	0.1556	0.7545	0.2421	0.095
Mof_C 	C 	0.2355	0.8017	0.37496	0.398
Mof_C 	C 	0.6668	0.483	0.05173	0.026
Mof_H 	H 	0.6237	0.4593	0.0487	0.025
Mof_C 	C 	0.6639	0.5515	0.058	-0.035
Mof_C 	C 	0.7294	0.586	0.0639	-0.032
Mof_H 	H 	0.7301	0.6317	0.0686	0.039
Mof_C 	C 	0.7938	0.5517	0.06274	-0.037
Mof_C 	C 	0.7893	0.4831	0.05537	0.028
Mof_H 	H 	0.8319	0.4597	0.0543	0.024
Mof_C 	C 	0.5923	0.5853	0.0571	0.088
Mof_C 	C 	0.5314	0.554	0.0371	-0.139
Mof_H 	H 	0.5356	0.5121	0.0256	0.079
Mof_C 	C 	0.4637	0.584	0.0339	0.061
Mof_H 	H 	0.4235	0.5615	0.0207	0.014
Mof_C 	C 	0.4553	0.6463	0.05007	-0.128
Mof_C 	C 	0.5156	0.678	0.0695	0.062
Mof_H 	H 	0.5114	0.7202	0.0806	0.023
Mof_C 	C 	0.5831	0.6481	0.0729	-0.14
Mof_H 	H 	0.6231	0.6709	0.0862	0.079
Mof_C 	C 	0.3827	0.6792	0.04398	0.343
Mof_C 	C 	0.8648	0.5861	0.0679	0.093
Mof_C 	C 	0.8717	0.6512	0.055	-0.146
Mof_H 	H 	0.8307	0.6749	0.044	0.08
Mof_C 	C 	0.9389	0.6817	0.0583	0.073
Mof_H 	H 	0.9424	0.7256	0.0498	0.014
Mof_C 	C 	0.0008	0.6473	0.07425	-0.142
Mof_C 	C 	0.9937	0.5829	0.0884	0.073
Mof_H 	H 	0.0345	0.5596	0.1001	0.016
Mof_C 	C 	0.9269	0.5528	0.0855	-0.151
Mof_H 	H 	0.9234	0.5097	0.0954	0.087
Mof_C 	C 	0.0742	0.6776	0.0743	0.384
Mof_C 	C 	0.2911	0.5011	0.05536	0.032
Mof_H 	H 	0.3341	0.5245	0.0566	0.02
Mof_C 	C 	0.2941	0.4327	0.0555	-0.039
Mof_C 	C 	0.228	0.398	0.0524	-0.028
Mof_H 	H 	0.2276	0.3516	0.0517	0.038
Mof_C 	C 	0.1635	0.433	0.05055	-0.039
Mof_C 	C 	0.1682	0.5023	0.05216	0.026
Mof_H 	H 	0.1259	0.5265	0.0522	0.023
Mof_C 	C 	0.0912	0.3999	0.0462	0.099
Mof_C 	C 	0.0296	0.438	0.0335	-0.159
Mof_H 	H 	0.0344	0.4835	0.0295	0.087
Mof_C 	C 	0.9621	0.41	0.0269	0.087
Mof_H 	H 	0.9222	0.4366	0.018	0.005
Mof_C 	C 	0.9527	0.3433	0.03327	-0.156
Mof_C 	C 	0.0128	0.3049	0.0467	0.083
Mof_H 	H 	0.0073	0.2597	0.0517	0.013
Mof_C 	C 	0.0805	0.3326	0.0528	-0.156
Mof_H 	H 	0.1202	0.3056	0.0615	0.084
Mof_C 	C 	0.8793	0.3125	0.02466	0.377
Mof_C 	C 	0.3642	0.3969	0.0578	0.09
Mof_C 	C 	0.4265	0.4252	0.0785	-0.144
Mof_H 	H 	0.424	0.4655	0.0921	0.084
Mof_C 	C 	0.4934	0.3937	0.0791	0.063
Mof_H 	H 	0.5347	0.4137	0.093	0.019
Mof_C 	C 	0.4991	0.3332	0.05956	-0.132
Mof_C 	C 	0.4359	0.3043	0.0393	0.066
Mof_H 	H 	0.438	0.2631	0.0265	0.018
Mof_C 	C 	0.37	0.3364	0.0379	-0.14
Mof_H 	H 	0.3288	0.317	0.0234	0.078
Mof_C 	C 	0.572	0.3026	0.05842	0.381
Mof_C 	C 	0.3547	0.645	0.3399	0.031
Mof_H 	H 	0.3137	0.6707	0.3317	0.028
Mof_C 	C 	0.3894	0.6162	0.3097	-0.041
Mof_C 	C 	0.4475	0.575	0.322	-0.03
Mof_H 	H 	0.4705	0.5537	0.3024	0.037
Mof_C 	C 	0.4721	0.5649	0.3643	-0.039
Mof_C 	C 	0.4352	0.5992	0.39137	0.032
Mof_H 	H 	0.4519	0.5953	0.4194	-0.001
Mof_C 	C 	0.3619	0.6306	0.2658	0.097
Mof_C 	C 	0.339	0.6969	0.2554	-0.143
Mof_H 	H 	0.3434	0.7296	0.2756	0.087
Mof_C 	C 	0.3102	0.7132	0.215	0.065
Mof_H 	H 	0.2952	0.7565	0.2083	0.02
Mof_C 	C 	0.304	0.6633	0.18425	-0.14
Mof_C 	C 	0.3384	0.6051	0.194	0.082
Mof_H 	H 	0.3428	0.5745	0.1733	0.016
Mof_C 	C 	0.3674	0.5898	0.2343	-0.159
Mof_H 	H 	0.3916	0.5496	0.2396	0.086
Mof_C 	C 	0.2682	0.6817	0.14184	0.389
Mof_C 	C 	0.5333	0.5211	0.37969	0.067
Mof_C 	C 	0.57	0.5274	0.4201	-0.076
Mof_H 	H 	0.5566	0.5612	0.4367	0.052
Mof_C 	C 	0.6255	0.4849	0.4357	0.018
Mof_H 	H 	0.6483	0.4897	0.4627	0.024
Mof_C 	C 	0.6151	0.432	0.3704	0.008
Mof_H 	H 	0.6315	0.4015	0.3526	0.036
Mof_C 	C 	0.5587	0.4746	0.3556	-0.041
Mof_H 	H 	0.5376	0.471	0.3283	0.042
Mof_C 	C 	0.647	0.4345	0.4107	-0.102
Mof_C 	C 	0.7075	0.3885	0.42686	0.368
Mof_C 	C 	0.5313	0.4874	0.4167	-0.052
Mof_H 	H 	0.4922	0.4931	0.4307	0.041
Mof_C 	C 	0.5891	0.4444	0.4331	-0.006
Mof_H 	H 	0.5886	0.4231	0.4582	0.035
Mof_C 	C 	0.6447	0.467	0.3719	-0
Mof_H 	H 	0.6816	0.4595	0.3563	0.035
Mof_C 	C 	0.5886	0.5096	0.3569	-0.079
Mof_H 	H 	0.5881	0.5304	0.3316	0.054
Mof_Co	Co	0.79112	0.30809	0.49918	1.151
Mof_Co	Co	0.72417	0.16	0.53839	1.163
Mof_Co	Co	0.77332	0.14478	0.44643	1.167
Mof_Co	Co	0.82347	0.29182	0.40729	1.143
Mof_Co	Co	0.67761	0.3106	0.57593	1.15
Mof_N 	N 	0.8748	0.3471	0.36348	-0.215
Mof_N 	N 	0.2727	0.9493	0.45023	-0.195
Mof_N 	N 	0.7699	0.0361	0.44636	-0.204
Mof_N 	N 	0.6226	0.1375	0.11996	-0.209
Mof_O 	O 	0.7187	0.2563	0.12249	-0.436
Mof_O 	O 	0.7838	0.3341	0.09561	-0.435
Mof_O 	O 	0.1813	0.6196	0.45867	-0.469
Mof_O 	O 	0.2311	0.6318	0.40176	-0.443
Mof_O 	O 	0.8753	0.13753	0.42858	-0.441
Mof_O 	O 	0.9206	0.2404	0.42213	-0.451
Mof_O 	O 	0.6217	0.2386	0.44642	-0.271
Mof_O 	O 	0.67158	0.14342	0.4724	-0.479
Mof_O 	O 	0.1246	0.7506	0.47237	-0.455
Mof_O 	O 	0.17523	0.85118	0.48681	-0.519
Mof_O 	O 	0.4233	0.7397	0.4415	-0.416
Mof_O 	O 	0.3775	0.8432	0.4432	-0.432
Mof_O 	O 	0.7185	0.1438	0.3872	-0.416
Mof_O 	O 	0.7722	0.2315	0.36071	-0.434
Mof_O 	O 	0.2575	0.864	0.09935	-0.435
Mof_O 	O 	0.2825	0.8775	0.0349	-0.424
Mof_O 	O 	0.77056	0.24572	0.44941	-0.599
Mof_O 	O 	0.71301	0.26176	0.52719	-0.58
Mof_C 	C 	0.9277	0.3908	0.37493	0.038
Mof_H 	H 	0.9433	0.3965	0.4029	-0.008
Mof_C 	C 	0.9611	0.4285	0.3473	-0.05
Mof_C 	C 	0.9395	0.4167	0.3051	-0.019
Mof_H 	H 	0.9611	0.4399	0.2857	0.036
Mof_C 	C 	0.8857	0.3701	0.2923	-0.055
Mof_C 	C 	0.8546	0.338	0.32315	0.037
Mof_H 	H 	0.8171	0.3082	0.315	0.022
Mof_C 	C 	0.0177	0.4773	0.3638	0.101
Mof_C 	C 	0.0105	0.5106	0.3999	-0.159
Mof_H 	H 	0.9696	0.504	0.4123	0.081
Mof_C 	C 	0.0639	0.5536	0.4175	0.082
Mof_H 	H 	0.0585	0.5752	0.4419	0.006
Mof_C 	C 	0.1253	0.5652	0.39958	-0.152
Mof_C 	C 	0.1296	0.5354	0.3618	0.081
Mof_H 	H 	0.1685	0.5448	0.3482	0.014
Mof_C 	C 	0.0766	0.4921	0.3444	-0.158
Mof_H 	H 	0.0804	0.4724	0.3192	0.087
Mof_C 	C 	0.1842	0.6099	0.42118	0.408
Mof_C 	C 	0.8598	0.3535	0.2487	0.121
Mof_C 	C 	0.8613	0.3945	0.2171	-0.186
Mof_H 	H 	0.8833	0.4358	0.2221	0.096
Mof_C 	C 	0.8318	0.3789	0.1774	0.11
Mof_H 	H 	0.8341	0.41	0.1566	0.005
Mof_C 	C 	0.7999	0.3202	0.16773	-0.163
Mof_C 	C 	0.8096	0.2716	0.1985	0.094
Mof_H 	H 	0.7961	0.2278	0.1921	0.01
Mof_C 	C 	0.8386	0.2876	0.2379	-0.17
Mof_H 	H 	0.8444	0.2545	0.2579	0.095
Mof_C 	C 	0.7645	0.3017	0.12504	0.398
Mof_C 	C 	0.3332	0.983	0.44827	0.026
Mof_H 	H 	0.3763	0.9593	0.4513	0.025
Mof_C 	C 	0.3361	0.0515	0.442	-0.035
Mof_C 	C 	0.2706	0.086	0.4361	-0.032
Mof_H 	H 	0.2699	0.1317	0.4314	0.039
Mof_C 	C 	0.2062	0.0517	0.43726	-0.036
Mof_C 	C 	0.2107	0.9831	0.44463	0.028
Mof_H 	H 	0.1681	0.9597	0.4457	0.024
Mof_C 	C 	0.4077	0.0853	0.4429	0.087
Mof_C 	C 	0.4686	0.054	0.4629	-0.139
Mof_H 	H 	0.4644	0.0121	0.4744	0.079
Mof_C 	C 	0.5363	0.084	0.4661	0.061
Mof_H 	H 	0.5765	0.0615	0.4793	0.015
Mof_C 	C 	0.5447	0.1463	0.44993	-0.128
Mof_C 	C 	0.4844	0.178	0.4305	0.062
Mof_H 	H 	0.4886	0.2202	0.4194	0.023
Mof_C 	C 	0.4169	0.1481	0.4271	-0.14
Mof_H 	H 	0.3769	0.1709	0.4138	0.079
Mof_C 	C 	0.6173	0.1792	0.45602	0.343
Mof_C 	C 	0.1352	0.0861	0.4321	0.09
Mof_C 	C 	0.1283	0.1512	0.445	-0.143
Mof_H 	H 	0.1693	0.1749	0.456	0.079
Mof_C 	C 	0.0611	0.1817	0.4417	0.068
Mof_H 	H 	0.0576	0.2256	0.4502	0.015
Mof_C 	C 	0.9992	0.1473	0.42575	-0.136
Mof_C 	C 	0.0063	0.0829	0.4116	0.066
Mof_H 	H 	0.9655	0.0596	0.3999	0.019
Mof_C 	C 	0.0731	0.0528	0.4145	-0.146
Mof_H 	H 	0.0766	0.0097	0.4046	0.085
Mof_C 	C 	0.9258	0.1776	0.4257	0.382
Mof_C 	C 	0.7089	0.0011	0.44464	0.032
Mof_H 	H 	0.6659	0.0245	0.4434	0.02
Mof_C 	C 	0.7059	0.9327	0.4445	-0.04
Mof_C 	C 	0.772	0.898	0.4476	-0.028
Mof_H 	H 	0.7724	0.8516	0.4483	0.037
Mof_C 	C 	0.8365	0.933	0.44945	-0.04
Mof_C 	C 	0.8318	0.0023	0.44784	0.027
Mof_H 	H 	0.8741	0.0265	0.4478	0.023
Mof_C 	C 	0.9088	0.8999	0.4538	0.099
Mof_C 	C 	0.9704	0.938	0.4665	-0.159
Mof_H 	H 	0.9656	0.9835	0.4705	0.087
Mof_C 	C 	0.0379	0.91	0.4731	0.087
Mof_H 	H 	0.0778	0.9366	0.482	0.005
Mof_C 	C 	0.0473	0.8433	0.46673	-0.157
Mof_C 	C 	0.9872	0.8049	0.4533	0.084
Mof_H 	H 	0.9927	0.7597	0.4483	0.013
Mof_C 	C 	0.9195	0.8326	0.4472	-0.157
Mof_H 	H 	0.8798	0.8056	0.4385	0.084
Mof_C 	C 	0.1207	0.8125	0.47534	0.377
Mof_C 	C 	0.6358	0.8969	0.4422	0.09
Mof_C 	C 	0.5735	0.9252	0.4215	-0.144
Mof_H 	H 	0.576	0.9655	0.4079	0.084
Mof_C 	C 	0.5066	0.8937	0.4209	0.063
Mof_H 	H 	0.4653	0.9137	0.407	0.019
Mof_C 	C 	0.5009	0.8332	0.44044	-0.133
Mof_C 	C 	0.5641	0.8043	0.4607	0.066
Mof_H 	H 	0.562	0.7631	0.4735	0.018
Mof_C 	C 	0.63	0.8364	0.4621	-0.141
Mof_H 	H 	0.6712	0.817	0.4766	0.078
Mof_C 	C 	0.428	0.8026	0.44158	0.381
Mof_C 	C 	0.6453	0.145	0.1601	0.031
Mof_H 	H 	0.6863	0.1707	0.1683	0.028
Mof_C 	C 	0.6106	0.1162	0.1903	-0.041
Mof_C 	C 	0.5525	0.075	0.178	-0.03
Mof_H 	H 	0.5295	0.0537	0.1976	0.037
Mof_C 	C 	0.5279	0.0649	0.1357	-0.039
Mof_C 	C 	0.5648	0.0992	0.10863	0.032
Mof_H 	H 	0.5481	0.0953	0.0806	-0.001
Mof_C 	C 	0.6381	0.1306	0.2342	0.097
Mof_C 	C 	0.661	0.1969	0.2446	-0.143
Mof_H 	H 	0.6566	0.2296	0.2244	0.087
Mof_C 	C 	0.6898	0.2132	0.285	0.065
Mof_H 	H 	0.7048	0.2565	0.2917	0.02
Mof_C 	C 	0.696	0.1633	0.31575	-0.14
Mof_C 	C 	0.6616	0.1051	0.306	0.082
Mof_H 	H 	0.6572	0.0745	0.3267	0.016
Mof_C 	C 	0.6326	0.0898	0.2657	-0.159
Mof_H 	H 	0.6084	0.0496	0.2604	0.086
Mof_C 	C 	0.7318	0.1817	0.35816	0.389
Mof_C 	C 	0.4667	0.0211	0.12031	0.067
Mof_C 	C 	0.43	0.0274	0.0799	-0.079
Mof_H 	H 	0.4434	0.0612	0.0633	0.054
Mof_C 	C 	0.3745	0.9849	0.0643	0.022
Mof_H 	H 	0.3517	0.9897	0.0373	0.023
Mof_C 	C 	0.3849	0.932	0.1296	0.007
Mof_H 	H 	0.3685	0.9015	0.1474	0.037
Mof_C 	C 	0.4413	0.9746	0.1444	-0.04
Mof_H 	H 	0.4624	0.971	0.1717	0.041
Mof_C 	C 	0.353	0.9345	0.0893	-0.102
Mof_C 	C 	0.2925	0.8885	0.07314	0.368
Mof_C 	C 	0.4687	0.9874	0.0833	-0.049
Mof_H 	H 	0.5078	0.9931	0.0693	0.04
Mof_C 	C 	0.4109	0.9444	0.0669	-0.009
Mof_H 	H 	0.4114	0.9231	0.0418	0.036
Mof_C 	C 	0.3553	0.967	0.1281	0.002
Mof_H 	H 	0.3184	0.9595	0.1437	0.034
Mof_C 	C 	0.4114	0.0096	0.1431	-0.08
Mof_H 	H 	0.4119	0.0304	0.1684	0.054
_end
