data_functionalizedCrystal
_audit_creation_method	'EQeq! by Chris Wilmer'
_symmetry_space_group_name_H-M	'P1'
_symmetry_Int_Tables_number	1
_symmetry_cell_setting	triclinic
loop_
_symmetry_equiv_pos_as_xyz
  x,y,z
_cell_length_a	14.909
_cell_length_b	7.1963
_cell_length_c	24.592
_cell_angle_alpha	90
_cell_angle_beta	104.312
_cell_angle_gamma	90
loop_
_atom_site_label
_atom_site_type_symbol
_atom_site_fract_x
_atom_site_fract_y
_atom_site_fract_z
_atom_site_charge
Mof_C 	C 	0.4146	0.2879	0.4166	0.365
Mof_C 	C 	0.3566	0.1985	0.36471	-0.09
Mof_C 	C 	0.379	0.0242	0.34713	0.01
Mof_H 	H 	0.4291	0.9592	0.3689	0.041
Mof_C 	C 	0.3289	0.9485	0.2988	-0.054
Mof_H 	H 	0.346	0.8333	0.2875	0.047
Mof_C 	C 	0.253	0.0381	0.26605	-0.081
Mof_C 	C 	0.2284	0.2107	0.2835	-0.036
Mof_H 	H 	0.1762	0.2719	0.2626	0.016
Mof_C 	C 	0.2807	0.2896	0.331	-0.008
Mof_H 	H 	0.2654	0.4075	0.3412	0.033
Mof_C 	C 	0.1359	0.7901	0.23961	-0.83
Mof_H 	H 	0.1101	0.8483	0.2674	0.259
Mof_H 	H 	0.1763	0.691	0.2566	0.267
Mof_H 	H 	0.0869	0.7409	0.2102	0.257
Mof_C 	C 	0.1912	0.9344	0.21498	0.373
Mof_C 	C 	0.1215	0.0587	0.1758	-0.828
Mof_H 	H 	0.1537	0.1506	0.1597	0.273
Mof_H 	H 	0.0831	0.1191	0.1966	0.261
Mof_H 	H 	0.0835	0.9848	0.1465	0.265
Mof_C 	C 	0.2508	0.8456	0.17897	-0.104
Mof_C 	C 	0.3184	0.9534	0.16528	-0.031
Mof_H 	H 	0.3301	0.072	0.1804	0.043
Mof_C 	C 	0.369	0.8863	0.129	-0.02
Mof_H 	H 	0.4121	0.9639	0.1189	0.053
Mof_C 	C 	0.3575	0.7075	0.10736	-0.076
Mof_C 	C 	0.2882	0.5973	0.121	-0.026
Mof_H 	H 	0.2768	0.4781	0.1063	0.05
Mof_C 	C 	0.236	0.6675	0.1571	-0.014
Mof_H 	H 	0.191	0.5932	0.1664	0.016
Mof_C 	C 	0.4121	0.6358	0.06815	0.376
Mof_C 	C 	0.707	0.0346	0.5184	0.104
Mof_H 	H 	0.6706	0.9702	0.4881	-0.001
Mof_C 	C 	0.7509	0.2253	0.5865	-0.005
Mof_H 	H 	0.7515	0.3205	0.6121	0.026
Mof_C 	C 	0.8192	0.1019	0.5883	0.015
Mof_H 	H 	0.8755	0.0987	0.615	0.005
Mof_C 	C 	0.8516	0.8424	0.53228	0.121
Mof_C 	C 	0.8968	0.7188	0.5733	-0.128
Mof_H 	H 	0.8898	0.7284	0.6097	0.067
Mof_C 	C 	0.9526	0.5801	0.5596	-0.012
Mof_H 	H 	0.9813	0.4996	0.5882	0.02
Mof_C 	C 	0.9646	0.5674	0.5058	-0.011
Mof_C 	C 	0.9193	0.6911	0.4649	-0.009
Mof_H 	H 	0.9247	0.6875	0.428	0.022
Mof_C 	C 	0.863	0.8295	0.4784	-0.125
Mof_H 	H 	0.8331	0.9132	0.451	0.077
Mof_Co	Co	0.56078	0.33794	0.51174	1.156
Mof_N 	N 	0.6795	0.187	0.54005	-0.226
Mof_N 	N 	0.7926	0.9841	0.54501	-0.145
Mof_O 	O 	0.484	0.2035	0.44455	-0.437
Mof_O 	O 	0.3884	0.4452	0.42984	-0.438
Mof_O 	O 	0.47579	0.7312	0.061	-0.457
Mof_O 	O 	0.3835	0.4824	0.04411	-0.434
Mof_C 	C 	0.5854	0.2879	0.0834	0.366
Mof_C 	C 	0.6434	0.1985	0.13529	-0.091
Mof_C 	C 	0.621	0.0242	0.15287	0.016
Mof_H 	H 	0.5709	0.9592	0.1311	0.04
Mof_C 	C 	0.6711	0.9485	0.2012	-0.057
Mof_H 	H 	0.654	0.8333	0.2125	0.049
Mof_C 	C 	0.747	0.0381	0.23395	-0.078
Mof_C 	C 	0.7716	0.2107	0.2165	-0.037
Mof_H 	H 	0.8238	0.2719	0.2374	0.017
Mof_C 	C 	0.7193	0.2896	0.169	-0.007
Mof_H 	H 	0.7346	0.4075	0.1588	0.032
Mof_C 	C 	0.8641	0.7901	0.26039	-0.83
Mof_H 	H 	0.8899	0.8483	0.2326	0.259
Mof_H 	H 	0.8237	0.691	0.2434	0.267
Mof_H 	H 	0.9131	0.7409	0.2898	0.257
Mof_C 	C 	0.8088	0.9344	0.28502	0.373
Mof_C 	C 	0.8785	0.0587	0.3242	-0.829
Mof_H 	H 	0.8463	0.1506	0.3403	0.273
Mof_H 	H 	0.9169	0.1191	0.3034	0.261
Mof_H 	H 	0.9165	0.9848	0.3535	0.265
Mof_C 	C 	0.7492	0.8456	0.32103	-0.105
Mof_C 	C 	0.6816	0.9534	0.33472	-0.03
Mof_H 	H 	0.6699	0.072	0.3196	0.043
Mof_C 	C 	0.631	0.8863	0.371	-0.02
Mof_H 	H 	0.5879	0.9639	0.3811	0.053
Mof_C 	C 	0.6425	0.7075	0.39264	-0.075
Mof_C 	C 	0.7118	0.5973	0.379	-0.026
Mof_H 	H 	0.7232	0.4781	0.3937	0.05
Mof_C 	C 	0.764	0.6675	0.3429	-0.013
Mof_H 	H 	0.809	0.5932	0.3336	0.016
Mof_C 	C 	0.5879	0.6358	0.43185	0.376
Mof_C 	C 	0.293	0.0346	0.9816	0.103
Mof_H 	H 	0.3294	0.9702	0.0119	-0
Mof_C 	C 	0.2491	0.2253	0.9135	-0.004
Mof_H 	H 	0.2485	0.3205	0.8879	0.026
Mof_C 	C 	0.1808	0.1019	0.9117	0.013
Mof_H 	H 	0.1245	0.0987	0.885	0.006
Mof_C 	C 	0.1484	0.8424	0.96772	0.123
Mof_C 	C 	0.1032	0.7188	0.9267	-0.129
Mof_H 	H 	0.1102	0.7284	0.8903	0.067
Mof_C 	C 	0.0474	0.5801	0.9404	-0.011
Mof_H 	H 	0.0187	0.4996	0.9118	0.02
Mof_C 	C 	0.0354	0.5674	0.9942	-0.011
Mof_C 	C 	0.0807	0.6911	0.0351	-0.008
Mof_H 	H 	0.0753	0.6875	0.072	0.022
Mof_C 	C 	0.137	0.8295	0.0216	-0.127
Mof_H 	H 	0.1669	0.9132	0.049	0.077
Mof_Co	Co	0.43922	0.33794	0.98826	1.156
Mof_N 	N 	0.3205	0.187	0.95995	-0.226
Mof_N 	N 	0.2074	0.9841	0.95499	-0.143
Mof_O 	O 	0.516	0.2035	0.05545	-0.436
Mof_O 	O 	0.6116	0.4452	0.07016	-0.438
Mof_O 	O 	0.52421	0.7312	0.439	-0.457
Mof_O 	O 	0.6165	0.4824	0.45589	-0.434
Mof_C 	C 	0.5854	0.7121	0.5834	0.366
Mof_C 	C 	0.6434	0.8015	0.63529	-0.089
Mof_C 	C 	0.621	0.9758	0.65287	0.011
Mof_H 	H 	0.5709	0.0408	0.6311	0.042
Mof_C 	C 	0.6711	0.0515	0.7012	-0.053
Mof_H 	H 	0.654	0.1667	0.7125	0.048
Mof_C 	C 	0.747	0.9619	0.73395	-0.08
Mof_C 	C 	0.7716	0.7893	0.7165	-0.035
Mof_H 	H 	0.8238	0.7281	0.7374	0.016
Mof_C 	C 	0.7193	0.7104	0.669	-0.008
Mof_H 	H 	0.7346	0.5925	0.6588	0.033
Mof_C 	C 	0.8641	0.2099	0.76039	-0.83
Mof_H 	H 	0.8899	0.1517	0.7326	0.259
Mof_H 	H 	0.8237	0.309	0.7434	0.267
Mof_H 	H 	0.9131	0.2591	0.7898	0.257
Mof_C 	C 	0.8088	0.0656	0.78502	0.373
Mof_C 	C 	0.8785	0.9413	0.8242	-0.828
Mof_H 	H 	0.8463	0.8494	0.8403	0.273
Mof_H 	H 	0.9169	0.8809	0.8034	0.261
Mof_H 	H 	0.9165	0.0152	0.8535	0.265
Mof_C 	C 	0.7492	0.1544	0.82103	-0.104
Mof_C 	C 	0.6816	0.0466	0.83472	-0.031
Mof_H 	H 	0.6699	0.928	0.8196	0.043
Mof_C 	C 	0.631	0.1137	0.871	-0.02
Mof_H 	H 	0.5879	0.0361	0.8811	0.053
Mof_C 	C 	0.6425	0.2925	0.89264	-0.076
Mof_C 	C 	0.7118	0.4027	0.879	-0.026
Mof_H 	H 	0.7232	0.5219	0.8937	0.05
Mof_C 	C 	0.764	0.3325	0.8429	-0.014
Mof_H 	H 	0.809	0.4068	0.8336	0.016
Mof_C 	C 	0.5879	0.3642	0.93185	0.376
Mof_C 	C 	0.293	0.9654	0.4816	0.104
Mof_H 	H 	0.3294	0.0298	0.5119	-0.001
Mof_C 	C 	0.2491	0.7747	0.4135	-0.005
Mof_H 	H 	0.2485	0.6795	0.3879	0.026
Mof_C 	C 	0.1808	0.8981	0.4117	0.015
Mof_H 	H 	0.1245	0.9013	0.385	0.005
Mof_C 	C 	0.1484	0.1576	0.46772	0.121
Mof_C 	C 	0.1032	0.2812	0.4267	-0.128
Mof_H 	H 	0.1102	0.2716	0.3903	0.067
Mof_C 	C 	0.0474	0.4199	0.4404	-0.012
Mof_H 	H 	0.0187	0.5004	0.4118	0.02
Mof_C 	C 	0.0354	0.4326	0.4942	-0.011
Mof_C 	C 	0.0807	0.3089	0.5351	-0.009
Mof_H 	H 	0.0753	0.3125	0.572	0.022
Mof_C 	C 	0.137	0.1705	0.5216	-0.125
Mof_H 	H 	0.1669	0.0868	0.549	0.077
Mof_Co	Co	0.43922	0.66206	0.48826	1.156
Mof_N 	N 	0.3205	0.813	0.45995	-0.226
Mof_N 	N 	0.2074	0.0159	0.45499	-0.145
Mof_O 	O 	0.516	0.7965	0.55545	-0.437
Mof_O 	O 	0.6116	0.5548	0.57016	-0.438
Mof_O 	O 	0.52421	0.2688	0.939	-0.457
Mof_O 	O 	0.6165	0.5176	0.95589	-0.434
Mof_C 	C 	0.4146	0.7121	0.9166	0.366
Mof_C 	C 	0.3566	0.8015	0.86471	-0.091
Mof_C 	C 	0.379	0.9758	0.84713	0.016
Mof_H 	H 	0.4291	0.0408	0.8689	0.04
Mof_C 	C 	0.3289	0.0515	0.7988	-0.057
Mof_H 	H 	0.346	0.1667	0.7875	0.049
Mof_C 	C 	0.253	0.9619	0.76605	-0.078
Mof_C 	C 	0.2284	0.7893	0.7835	-0.037
Mof_H 	H 	0.1762	0.7281	0.7626	0.017
Mof_C 	C 	0.2807	0.7104	0.831	-0.007
Mof_H 	H 	0.2654	0.5925	0.8412	0.032
Mof_C 	C 	0.1359	0.2099	0.73961	-0.83
Mof_H 	H 	0.1101	0.1517	0.7674	0.259
Mof_H 	H 	0.1763	0.309	0.7566	0.267
Mof_H 	H 	0.0869	0.2591	0.7102	0.257
Mof_C 	C 	0.1912	0.0656	0.71498	0.373
Mof_C 	C 	0.1215	0.9413	0.6758	-0.829
Mof_H 	H 	0.1537	0.8494	0.6597	0.273
Mof_H 	H 	0.0831	0.8809	0.6966	0.261
Mof_H 	H 	0.0835	0.0152	0.6465	0.265
Mof_C 	C 	0.2508	0.1544	0.67897	-0.105
Mof_C 	C 	0.3184	0.0466	0.66528	-0.03
Mof_H 	H 	0.3301	0.928	0.6804	0.043
Mof_C 	C 	0.369	0.1137	0.629	-0.02
Mof_H 	H 	0.4121	0.0361	0.6189	0.053
Mof_C 	C 	0.3575	0.2925	0.60736	-0.075
Mof_C 	C 	0.2882	0.4027	0.621	-0.026
Mof_H 	H 	0.2768	0.5219	0.6063	0.05
Mof_C 	C 	0.236	0.3325	0.6571	-0.013
Mof_H 	H 	0.191	0.4068	0.6664	0.016
Mof_C 	C 	0.4121	0.3642	0.56815	0.376
Mof_C 	C 	0.707	0.9654	0.0184	0.103
Mof_H 	H 	0.6706	0.0298	0.9881	-0
Mof_C 	C 	0.7509	0.7747	0.0865	-0.004
Mof_H 	H 	0.7515	0.6795	0.1121	0.026
Mof_C 	C 	0.8192	0.8981	0.0883	0.013
Mof_H 	H 	0.8755	0.9013	0.115	0.006
Mof_C 	C 	0.8516	0.1576	0.03228	0.123
Mof_C 	C 	0.8968	0.2812	0.0733	-0.129
Mof_H 	H 	0.8898	0.2716	0.1097	0.067
Mof_C 	C 	0.9526	0.4199	0.0596	-0.011
Mof_H 	H 	0.9813	0.5004	0.0882	0.02
Mof_C 	C 	0.9646	0.4326	0.0058	-0.011
Mof_C 	C 	0.9193	0.3089	0.9649	-0.008
Mof_H 	H 	0.9247	0.3125	0.928	0.022
Mof_C 	C 	0.863	0.1705	0.9784	-0.127
Mof_H 	H 	0.8331	0.0868	0.951	0.077
Mof_Co	Co	0.56078	0.66206	0.01174	1.156
Mof_N 	N 	0.6795	0.813	0.04005	-0.226
Mof_N 	N 	0.7926	0.0159	0.04501	-0.143
Mof_O 	O 	0.484	0.7965	0.94455	-0.436
Mof_O 	O 	0.3884	0.5548	0.92984	-0.438
Mof_O 	O 	0.47579	0.2688	0.561	-0.457
Mof_O 	O 	0.3835	0.5176	0.54411	-0.434
_end
