data_functionalizedCrystal
_audit_creation_method	'EQeq! by Chris Wilmer'
_symmetry_space_group_name_H-M	'P1'
_symmetry_Int_Tables_number	1
_symmetry_cell_setting	triclinic
loop_
_symmetry_equiv_pos_as_xyz
  x,y,z
_cell_length_a	18.3517
_cell_length_b	18.3517
_cell_length_c	17.772
_cell_angle_alpha	90
_cell_angle_beta	90
_cell_angle_gamma	90
loop_
_atom_site_label
_atom_site_type_symbol
_atom_site_fract_x
_atom_site_fract_y
_atom_site_fract_z
_atom_site_charge
Mof_O 	O 	0.14248	0.22844	0.07969	-1.044
Mof_C 	C 	0.28636	0.18974	0.2158	0.076
Mof_N 	N 	0.34055	0.13892	0.18266	-0.085
Mof_O 	O 	0.64248	0.72844	0.57969	-1.456
Mof_C 	C 	0.78636	0.68974	0.7158	0.151
Mof_N 	N 	0.84055	0.63892	0.68266	-0.081
Mof_O 	O 	0.85752	0.77156	0.07969	-1.002
Mof_C 	C 	0.71364	0.81026	0.2158	0.063
Mof_N 	N 	0.65945	0.86108	0.18266	-0.099
Mof_O 	O 	0.35752	0.27156	0.57969	-1.453
Mof_C 	C 	0.21364	0.31026	0.7158	0.156
Mof_N 	N 	0.15945	0.36108	0.68266	-0.064
Mof_O 	O 	0.77156	0.14248	0.07969	-1.034
Mof_C 	C 	0.81026	0.28636	0.2158	0.067
Mof_N 	N 	0.86108	0.34055	0.18266	-0.099
Mof_O 	O 	0.27156	0.64248	0.57969	-1.454
Mof_C 	C 	0.31026	0.78636	0.7158	0.153
Mof_N 	N 	0.36108	0.84055	0.68266	-0.078
Mof_O 	O 	0.22844	0.85752	0.07969	-1.011
Mof_C 	C 	0.18974	0.71364	0.2158	0.073
Mof_N 	N 	0.13892	0.65945	0.18266	-0.085
Mof_O 	O 	0.72844	0.35752	0.57969	-1.454
Mof_C 	C 	0.68974	0.21364	0.7158	0.154
Mof_N 	N 	0.63892	0.15945	0.68266	-0.066
Mof_O 	O 	0.85752	0.22844	0.92031	-0.709
Mof_C 	C 	0.71364	0.18974	0.7842	0.095
Mof_N 	N 	0.65945	0.13892	0.81734	0.017
Mof_O 	O 	0.35752	0.72844	0.42031	-1.46
Mof_C 	C 	0.21364	0.68974	0.2842	0.129
Mof_N 	N 	0.15945	0.63892	0.31734	-0.088
Mof_O 	O 	0.14248	0.77156	0.92031	-0.731
Mof_C 	C 	0.28636	0.81026	0.7842	0.088
Mof_N 	N 	0.34055	0.86108	0.81734	0.002
Mof_O 	O 	0.64248	0.27156	0.42031	-1.46
Mof_C 	C 	0.78636	0.31026	0.2842	0.128
Mof_N 	N 	0.84055	0.36108	0.31734	-0.1
Mof_O 	O 	0.22844	0.14248	0.92031	-0.739
Mof_C 	C 	0.18974	0.28636	0.7842	0.099
Mof_N 	N 	0.13892	0.34055	0.81734	0.018
Mof_O 	O 	0.72844	0.64248	0.42031	-1.461
Mof_C 	C 	0.68974	0.78636	0.2842	0.127
Mof_N 	N 	0.63892	0.84055	0.31734	-0.102
Mof_O 	O 	0.77156	0.85752	0.92031	-0.701
Mof_C 	C 	0.81026	0.71364	0.7842	0.085
Mof_N 	N 	0.86108	0.65945	0.81734	0.002
Mof_O 	O 	0.27156	0.35752	0.42031	-1.459
Mof_C 	C 	0.31026	0.21364	0.2842	0.13
Mof_N 	N 	0.36108	0.15945	0.31734	-0.086
Mof_O 	O 	0.85752	0.77156	0.92031	-0.701
Mof_C 	C 	0.71364	0.81026	0.7842	0.085
Mof_N 	N 	0.65945	0.86108	0.81734	0.002
Mof_O 	O 	0.35752	0.27156	0.42031	-1.459
Mof_C 	C 	0.21364	0.31026	0.2842	0.13
Mof_N 	N 	0.15945	0.36108	0.31734	-0.086
Mof_O 	O 	0.14248	0.22844	0.92031	-0.739
Mof_C 	C 	0.28636	0.18974	0.7842	0.099
Mof_N 	N 	0.34055	0.13892	0.81734	0.018
Mof_O 	O 	0.64248	0.72844	0.42031	-1.461
Mof_C 	C 	0.78636	0.68974	0.2842	0.127
Mof_N 	N 	0.84055	0.63892	0.31734	-0.102
Mof_O 	O 	0.22844	0.85752	0.92031	-0.709
Mof_C 	C 	0.18974	0.71364	0.7842	0.095
Mof_N 	N 	0.13892	0.65945	0.81734	0.017
Mof_O 	O 	0.72844	0.35752	0.42031	-1.46
Mof_C 	C 	0.68974	0.21364	0.2842	0.129
Mof_N 	N 	0.63892	0.15945	0.31734	-0.088
Mof_O 	O 	0.77156	0.14248	0.92031	-0.731
Mof_C 	C 	0.81026	0.28636	0.7842	0.088
Mof_N 	N 	0.86108	0.34055	0.81734	0.002
Mof_O 	O 	0.27156	0.64248	0.42031	-1.46
Mof_C 	C 	0.31026	0.78636	0.2842	0.128
Mof_N 	N 	0.36108	0.84055	0.31734	-0.1
Mof_O 	O 	0.14248	0.77156	0.07969	-1.034
Mof_C 	C 	0.28636	0.81026	0.2158	0.067
Mof_N 	N 	0.34055	0.86108	0.18266	-0.099
Mof_O 	O 	0.64248	0.27156	0.57969	-1.454
Mof_C 	C 	0.78636	0.31026	0.7158	0.153
Mof_N 	N 	0.84055	0.36108	0.68266	-0.078
Mof_O 	O 	0.85752	0.22844	0.07969	-1.011
Mof_C 	C 	0.71364	0.18974	0.2158	0.073
Mof_N 	N 	0.65945	0.13892	0.18266	-0.085
Mof_O 	O 	0.35752	0.72844	0.57969	-1.454
Mof_C 	C 	0.21364	0.68974	0.7158	0.154
Mof_N 	N 	0.15945	0.63892	0.68266	-0.066
Mof_O 	O 	0.77156	0.85752	0.07969	-1.002
Mof_C 	C 	0.81026	0.71364	0.2158	0.063
Mof_N 	N 	0.86108	0.65945	0.18266	-0.099
Mof_O 	O 	0.27156	0.35752	0.57969	-1.453
Mof_C 	C 	0.31026	0.21364	0.7158	0.156
Mof_N 	N 	0.36108	0.15945	0.68266	-0.064
Mof_O 	O 	0.22844	0.14248	0.07969	-1.043
Mof_C 	C 	0.18974	0.28636	0.2158	0.077
Mof_N 	N 	0.13892	0.34055	0.18266	-0.084
Mof_O 	O 	0.72844	0.64248	0.57969	-1.455
Mof_C 	C 	0.68974	0.78636	0.7158	0.152
Mof_N 	N 	0.63892	0.84055	0.68266	-0.08
Mof_Al	Al	0.07866	0.2066	-0	3.617
Mof_O 	O 	0.06052	0.3103	-0	-1.041
Mof_C 	C 	0.06769	0.46344	-0	0.054
Mof_N 	N 	0.14358	0.43184	-0	-0.163
Mof_Al	Al	0.57866	0.7066	0.5	5.77
Mof_O 	O 	0.56052	0.8103	0.5	-1.296
Mof_C 	C 	0.56769	0.96344	0.5	0.022
Mof_N 	N 	0.64358	0.93184	0.5	-0.079
Mof_Al	Al	0.92134	0.7934	-0	3.375
Mof_O 	O 	0.93948	0.6897	-0	-1.051
Mof_C 	C 	0.93231	0.53656	-0	0.011
Mof_N 	N 	0.85642	0.56816	-0	-0.163
Mof_Al	Al	0.42134	0.2934	0.5	5.783
Mof_O 	O 	0.43948	0.1897	0.5	-1.303
Mof_C 	C 	0.43231	0.03656	0.5	0.214
Mof_N 	N 	0.35642	0.06816	0.5	-0.063
Mof_Al	Al	0.7934	0.07866	-0	3.599
Mof_O 	O 	0.6897	0.06052	-0	-1.037
Mof_C 	C 	0.53656	0.06769	-0	0.054
Mof_N 	N 	0.56816	0.14358	-0	-0.162
Mof_Al	Al	0.2934	0.57866	0.5	5.781
Mof_O 	O 	0.1897	0.56052	0.5	-1.304
Mof_C 	C 	0.03656	0.56769	0.5	0.213
Mof_N 	N 	0.06816	0.64358	0.5	-0.068
Mof_Al	Al	0.2066	0.92134	-0	3.393
Mof_O 	O 	0.3103	0.93948	-0	-1.055
Mof_C 	C 	0.46344	0.93231	-0	0.011
Mof_N 	N 	0.43184	0.85642	-0	-0.163
Mof_Al	Al	0.7066	0.42134	0.5	5.772
Mof_O 	O 	0.8103	0.43948	0.5	-1.295
Mof_C 	C 	0.96344	0.43231	0.5	0.023
Mof_N 	N 	0.93184	0.35642	0.5	-0.074
Mof_Al	Al	0.92134	0.2066	-0	3.393
Mof_O 	O 	0.93948	0.3103	-0	-1.055
Mof_C 	C 	0.93231	0.46344	-0	0.011
Mof_N 	N 	0.85642	0.43184	-0	-0.163
Mof_Al	Al	0.42134	0.7066	0.5	5.772
Mof_O 	O 	0.43948	0.8103	0.5	-1.295
Mof_C 	C 	0.43231	0.96344	0.5	0.023
Mof_N 	N 	0.35642	0.93184	0.5	-0.074
Mof_Al	Al	0.07866	0.7934	-0	3.599
Mof_O 	O 	0.06052	0.6897	-0	-1.037
Mof_C 	C 	0.06769	0.53656	-0	0.054
Mof_N 	N 	0.14358	0.56816	-0	-0.162
Mof_Al	Al	0.57866	0.2934	0.5	5.781
Mof_O 	O 	0.56052	0.1897	0.5	-1.304
Mof_C 	C 	0.56769	0.03656	0.5	0.213
Mof_N 	N 	0.64358	0.06816	0.5	-0.068
Mof_Al	Al	0.2066	0.07866	-0	3.617
Mof_O 	O 	0.3103	0.06052	-0	-1.041
Mof_C 	C 	0.46344	0.06769	-0	0.054
Mof_N 	N 	0.43184	0.14358	-0	-0.163
Mof_Al	Al	0.7066	0.57866	0.5	5.77
Mof_O 	O 	0.8103	0.56052	0.5	-1.296
Mof_C 	C 	0.96344	0.56769	0.5	0.022
Mof_N 	N 	0.93184	0.64358	0.5	-0.079
Mof_Al	Al	0.7934	0.92134	-0	3.375
Mof_O 	O 	0.6897	0.93948	-0	-1.051
Mof_C 	C 	0.53656	0.93231	-0	0.011
Mof_N 	N 	0.56816	0.85642	-0	-0.163
Mof_Al	Al	0.2934	0.42134	0.5	5.783
Mof_O 	O 	0.1897	0.43948	0.5	-1.303
Mof_C 	C 	0.03656	0.43231	0.5	0.214
Mof_N 	N 	0.06816	0.35642	0.5	-0.063
Mof_O 	O 	0.11024	0.11024	-0	-1.563
Mof_O 	O 	0.61024	0.61024	0.5	-2.096
Mof_O 	O 	0.88976	0.88976	-0	-1.53
Mof_O 	O 	0.38976	0.38976	0.5	-2.1
Mof_O 	O 	0.88976	0.11024	-0	-1.546
Mof_O 	O 	0.38976	0.61024	0.5	-2.098
Mof_O 	O 	0.11024	0.88976	-0	-1.546
Mof_O 	O 	0.61024	0.38976	0.5	-2.098
Mof_O 	O 	-1.34136e-33	0.19291	0.06616	-1.353
Mof_C 	C 	1.59163e-33	0.1847	0.14796	0.301
Mof_O 	O 	0.5	0.69291	0.56616	-2.074
Mof_C 	C 	0.5	0.6847	0.64796	0.389
Mof_O 	O 	-5.55892e-33	0.80709	0.06616	-1.351
Mof_C 	C 	-4.73472e-33	0.8153	0.14796	0.28
Mof_O 	O 	0.5	0.30709	0.56616	-2.078
Mof_C 	C 	0.5	0.3153	0.64796	0.391
Mof_O 	O 	0.80709	-5.27195e-34	0.06616	-1.351
Mof_C 	C 	0.8153	0	0.14796	0.28
Mof_O 	O 	0.30709	0.5	0.56616	-2.078
Mof_C 	C 	0.3153	0.5	0.64796	0.391
Mof_O 	O 	0.19291	-5.27195e-34	0.06616	-1.353
Mof_C 	C 	0.1847	0	0.14796	0.301
Mof_O 	O 	0.69291	0.5	0.56616	-2.074
Mof_C 	C 	0.6847	0.5	0.64796	0.389
Mof_O 	O 	3.39074e-33	0.19291	0.93384	-0.996
Mof_C 	C 	-5.3414e-33	0.1847	0.85204	0.346
Mof_O 	O 	0.5	0.69291	0.43384	-2.069
Mof_C 	C 	0.5	0.6847	0.35204	0.311
Mof_O 	O 	-2.19146e-32	0.80709	0.93384	-0.995
Mof_C 	C 	-2.22116e-32	0.8153	0.85204	0.324
Mof_O 	O 	0.5	0.30709	0.43384	-2.072
Mof_C 	C 	0.5	0.3153	0.35204	0.313
Mof_O 	O 	0.19291	-8.43512e-33	0.93384	-0.996
Mof_C 	C 	0.1847	-8.43512e-33	0.85204	0.346
Mof_O 	O 	0.69291	0.5	0.43384	-2.069
Mof_C 	C 	0.6847	0.5	0.35204	0.311
Mof_O 	O 	0.80709	-8.43512e-33	0.93384	-0.995
Mof_C 	C 	0.8153	-8.43512e-33	0.85204	0.324
Mof_O 	O 	0.30709	0.5	0.43384	-2.072
Mof_C 	C 	0.3153	0.5	0.35204	0.313
Mof_C 	C 	-4.21756e-33	0.34196	-0	0.781
Mof_C 	C 	-4.21756e-33	0.42527	-0	-0.193
Mof_C 	C 	0.5	0.84196	0.5	0.977
Mof_C 	C 	0.5	0.92527	0.5	-0.2
Mof_C 	C 	-8.43512e-33	0.65804	-0	0.779
Mof_C 	C 	-0	0.57473	-0	-0.192
Mof_C 	C 	0.5	0.15804	0.5	1.011
Mof_C 	C 	0.5	0.07473	0.5	-0.286
Mof_C 	C 	0.65804	0	-0	0.779
Mof_C 	C 	0.57473	0	-0	-0.192
Mof_C 	C 	0.15804	0.5	0.5	1.011
Mof_C 	C 	0.07473	0.5	0.5	-0.286
Mof_C 	C 	0.34196	0	-0	0.781
Mof_C 	C 	0.42527	0	-0	-0.193
Mof_C 	C 	0.84196	0.5	0.5	0.977
Mof_C 	C 	0.92527	0.5	0.5	-0.2
Mof_C 	C 	0.19687	0.19687	0.10774	0.794
Mof_C 	C 	0.22431	0.22431	0.18267	-0.231
Mof_C 	C 	0.69687	0.69687	0.60774	1.115
Mof_C 	C 	0.72431	0.72431	0.68267	-0.328
Mof_C 	C 	0.80313	0.80313	0.10774	0.758
Mof_C 	C 	0.77569	0.77569	0.18267	-0.229
Mof_C 	C 	0.30313	0.30313	0.60774	1.119
Mof_C 	C 	0.27569	0.27569	0.68267	-0.322
Mof_C 	C 	0.80313	0.19687	0.10774	0.776
Mof_C 	C 	0.77569	0.22431	0.18267	-0.23
Mof_C 	C 	0.30313	0.69687	0.60774	1.117
Mof_C 	C 	0.27569	0.72431	0.68267	-0.325
Mof_C 	C 	0.19687	0.80313	0.10774	0.776
Mof_C 	C 	0.22431	0.77569	0.18267	-0.23
Mof_C 	C 	0.69687	0.30313	0.60774	1.117
Mof_C 	C 	0.72431	0.27569	0.68267	-0.325
Mof_C 	C 	0.80313	0.19687	0.89226	0.752
Mof_C 	C 	0.77569	0.22431	0.81733	-0.156
Mof_C 	C 	0.30313	0.69687	0.39226	1.11
Mof_C 	C 	0.27569	0.72431	0.31733	-0.337
Mof_C 	C 	0.19687	0.80313	0.89226	0.752
Mof_C 	C 	0.22431	0.77569	0.81733	-0.156
Mof_C 	C 	0.69687	0.30313	0.39226	1.11
Mof_C 	C 	0.72431	0.27569	0.31733	-0.337
Mof_C 	C 	0.19687	0.19687	0.89226	0.77
Mof_C 	C 	0.22431	0.22431	0.81733	-0.156
Mof_C 	C 	0.69687	0.69687	0.39226	1.107
Mof_C 	C 	0.72431	0.72431	0.31733	-0.34
Mof_C 	C 	0.80313	0.80313	0.89226	0.734
Mof_C 	C 	0.77569	0.77569	0.81733	-0.155
Mof_C 	C 	0.30313	0.30313	0.39226	1.112
Mof_C 	C 	0.27569	0.27569	0.31733	-0.333
_end
