data_functionalizedCrystal
_audit_creation_method	'EQeq! by Chris Wilmer'
_symmetry_space_group_name_H-M	'P1'
_symmetry_Int_Tables_number	1
_symmetry_cell_setting	triclinic
loop_
_symmetry_equiv_pos_as_xyz
  x,y,z
_cell_length_a	12.808
_cell_length_b	14.155
_cell_length_c	18.0479
_cell_angle_alpha	101.46
_cell_angle_beta	110.783
_cell_angle_gamma	90
loop_
_atom_site_label
_atom_site_type_symbol
_atom_site_fract_x
_atom_site_fract_y
_atom_site_fract_z
_atom_site_charge
Mof_Fe	Fe	0.25409	0.64481	0.03816	0.83
Mof_Fe	Fe	0.53433	0.99273	0.4308	0.787
Mof_Fe	Fe	0.21593	0.85519	0.96184	0.955
Mof_Fe	Fe	0.10353	0.50727	0.5692	0.725
Mof_Fe	Fe	0.74591	0.35519	0.96184	0.967
Mof_Fe	Fe	0.46567	0.00727	0.5692	0.717
Mof_Fe	Fe	0.78407	0.14481	0.03816	0.831
Mof_Fe	Fe	0.89647	0.49273	0.4308	0.777
Mof_Fe	Fe	-0	0.5	-0	0.815
Mof_Fe	Fe	-0	0	-0	0.78
Mof_H 	H 	0.3265	0.7343	0.279	0.035
Mof_H 	H 	0.2664	0.7229	0.4804	0.036
Mof_H 	H 	0.0846	0.5459	0.2684	0.012
Mof_H 	H 	0.8994	0.6296	0.8646	0.443
Mof_H 	H 	0.9561	0.6582	0.8074	0.433
Mof_H 	H 	0.934	0.7384	0.8724	0.442
Mof_H 	H 	0.5686	0.611	0.0102	0.03
Mof_H 	H 	0.0475	0.7657	0.721	-0.01
Mof_H 	H 	0.786	0.7771	0.5196	0.033
Mof_H 	H 	0.8162	0.9541	0.7316	0.03
Mof_H 	H 	0.0348	0.8704	0.1354	0.446
Mof_H 	H 	0.1487	0.8418	0.1926	0.449
Mof_H 	H 	0.0616	0.7616	0.1276	0.438
Mof_H 	H 	0.5584	0.889	0.9898	0.043
Mof_H 	H 	0.6735	0.2657	0.721	0.034
Mof_H 	H 	0.7336	0.2771	0.5196	0.036
Mof_H 	H 	0.9154	0.4541	0.7316	0.027
Mof_H 	H 	0.1006	0.3704	0.1354	0.475
Mof_H 	H 	0.0439	0.3418	0.1926	0.47
Mof_H 	H 	0.066	0.2616	0.1276	0.467
Mof_H 	H 	0.4314	0.389	0.9898	0.037
Mof_H 	H 	0.9525	0.2343	0.279	0.077
Mof_H 	H 	0.214	0.2229	0.4804	0.039
Mof_H 	H 	0.1838	0.0459	0.2684	0.01
Mof_H 	H 	0.9652	0.1296	0.8646	0.475
Mof_H 	H 	0.8513	0.1582	0.8074	0.454
Mof_H 	H 	0.9384	0.2384	0.8724	0.471
Mof_H 	H 	0.4416	0.111	0.0102	0.024
Mof_H 	H 	0.8356	0.75	-0	0.034
Mof_H 	H 	0.1644	0.25	-0	0.022
Mof_C 	C 	0.20263	0.6329	0.25986	-0.145
Mof_C 	C 	0.2852	0.7084	0.3044	0.059
Mof_C 	C 	0.30585	0.7447	0.3851	-0.128
Mof_C 	C 	0.24936	0.7013	0.42492	0.067
Mof_C 	C 	0.16742	0.6256	0.38144	-0.137
Mof_C 	C 	0.14223	0.5937	0.29826	0.072
Mof_C 	C 	0.17808	0.598	0.16936	0.377
Mof_C 	C 	0.38616	0.8336	0.42972	0.375
Mof_C 	C 	0.10561	0.58	0.42462	0.388
Mof_C 	C 	0.06603	0.6629	0.92086	0.702
Mof_C 	C 	0.95391	0.6732	0.86102	-1.286
Mof_C 	C 	0.71159	0.6652	0.00418	-0.132
Mof_C 	C 	0.60286	0.6664	0.00552	0.074
Mof_C 	C 	0.77032	0.5739	0.00464	0.383
Mof_C 	C 	0.94277	0.8671	0.74014	-0.116
Mof_C 	C 	0.9808	0.7916	0.6956	0.128
Mof_C 	C 	0.92075	0.7553	0.6149	-0.157
Mof_C 	C 	0.82444	0.7987	0.57508	0.084
Mof_C 	C 	0.78598	0.8744	0.61856	-0.129
Mof_C 	C 	0.84397	0.9063	0.70174	0.064
Mof_C 	C 	0.00872	0.902	0.83064	0.307
Mof_C 	C 	0.95644	0.6664	0.57028	0.431
Mof_C 	C 	0.68099	0.92	0.57538	0.386
Mof_C 	C 	0.14517	0.8371	0.07914	0.751
Mof_C 	C 	0.09289	0.8268	0.13898	-1.362
Mof_C 	C 	0.70741	0.8348	0.99582	-0.082
Mof_C 	C 	0.59734	0.8336	0.99448	0.122
Mof_C 	C 	0.76568	0.9261	0.99536	0.389
Mof_C 	C 	0.79737	0.3671	0.74014	-0.136
Mof_C 	C 	0.7148	0.2916	0.6956	0.057
Mof_C 	C 	0.69415	0.2553	0.6149	-0.128
Mof_C 	C 	0.75064	0.2987	0.57508	0.065
Mof_C 	C 	0.83258	0.3744	0.61856	-0.126
Mof_C 	C 	0.85777	0.4063	0.70174	0.067
Mof_C 	C 	0.82192	0.402	0.83064	0.378
Mof_C 	C 	0.61384	0.1664	0.57028	0.376
Mof_C 	C 	0.89439	0.42	0.57538	0.383
Mof_C 	C 	0.93397	0.3371	0.07914	0.809
Mof_C 	C 	0.04609	0.3268	0.13898	-1.471
Mof_C 	C 	0.28841	0.3348	0.99582	-0.081
Mof_C 	C 	0.39714	0.3336	0.99448	0.123
Mof_C 	C 	0.22968	0.4261	0.99536	0.367
Mof_C 	C 	0.05723	0.1329	0.25986	-0.162
Mof_C 	C 	0.0192	0.2084	0.3044	-0.011
Mof_C 	C 	0.07925	0.2447	0.3851	-0.098
Mof_C 	C 	0.17556	0.2013	0.42492	0.048
Mof_C 	C 	0.21402	0.1256	0.38144	-0.132
Mof_C 	C 	0.15603	0.0937	0.29826	0.073
Mof_C 	C 	0.99128	0.098	0.16936	0.441
Mof_C 	C 	0.04356	0.3336	0.42972	0.321
Mof_C 	C 	0.31901	0.08	0.42462	0.385
Mof_C 	C 	0.85483	0.1629	0.92086	0.758
Mof_C 	C 	0.90711	0.1732	0.86102	-1.392
Mof_C 	C 	0.29259	0.1652	0.00418	-0.13
Mof_C 	C 	0.40266	0.1664	0.00552	0.068
Mof_C 	C 	0.23432	0.0739	0.00464	0.347
Mof_C 	C 	0.5457	0.75	-0	-0.178
Mof_C 	C 	0.763	0.75	-0	-0.001
Mof_C 	C 	0.429	0.75	-0	0.355
Mof_C 	C 	0.4543	0.25	-0	-0.184
Mof_C 	C 	0.237	0.25	-0	-0.014
Mof_C 	C 	0.571	0.25	-0	0.35
Mof_O 	O 	0.08606	0.5535	0.12832	-0.387
Mof_O 	O 	0.2526	0.6205	0.1446	-0.383
Mof_O 	O 	0.44255	0.8618	0.3929	-0.367
Mof_O 	O 	0.38787	0.8735	0.49894	-0.357
Mof_O 	O 	0.16015	0.5733	0.4957	-0.369
Mof_O 	O 	0.00509	0.5527	0.38578	-0.393
Mof_O 	O 	0.15424	0.6968	0.91628	-0.47
Mof_O 	O 	0.07495	0.6241	0.9799	-0.498
Mof_O 	O 	0.86901	0.5803	0.00622	-0.378
Mof_O 	O 	0.71661	0.498	0.00202	-0.387
Mof_O 	O 	0.3997	0.6859	0.0294	-0.37
Mof_O 	O 	0.95774	0.9465	0.87168	-0.299
Mof_O 	O 	0.108	0.8795	0.8554	-0.362
Mof_O 	O 	0.04965	0.6382	0.6071	-0.404
Mof_O 	O 	0.88893	0.6265	0.50106	-0.375
Mof_O 	O 	0.66445	0.9267	0.5043	-0.363
Mof_O 	O 	0.61931	0.9473	0.61422	-0.356
Mof_O 	O 	0.23796	0.8032	0.08372	-0.502
Mof_O 	O 	0.09505	0.8759	0.0201	-0.566
Mof_O 	O 	0.86279	0.9197	0.99378	-0.319
Mof_O 	O 	0.71459	0.002	0.99798	-0.339
Mof_O 	O 	0.3703	0.8141	0.9706	-0.326
Mof_O 	O 	0.91394	0.4465	0.87168	-0.344
Mof_O 	O 	0.7474	0.3795	0.8554	-0.377
Mof_O 	O 	0.55745	0.1382	0.6071	-0.37
Mof_O 	O 	0.61213	0.1265	0.50106	-0.38
Mof_O 	O 	0.83985	0.4267	0.5043	-0.367
Mof_O 	O 	0.99491	0.4473	0.61422	-0.348
Mof_O 	O 	0.84576	0.3032	0.08372	-0.517
Mof_O 	O 	0.92505	0.3759	0.0201	-0.575
Mof_O 	O 	0.13099	0.4197	0.99378	-0.348
Mof_O 	O 	0.28339	0.502	0.99798	-0.322
Mof_O 	O 	0.6003	0.3141	0.9706	-0.325
Mof_O 	O 	0.04226	0.0535	0.12832	-0.421
Mof_O 	O 	0.892	0.1205	0.1446	-0.396
Mof_O 	O 	0.95035	0.3618	0.3929	-0.334
Mof_O 	O 	0.11107	0.3735	0.49894	-0.36
Mof_O 	O 	0.33555	0.0733	0.4957	-0.373
Mof_O 	O 	0.38069	0.0527	0.38578	-0.385
Mof_O 	O 	0.76204	0.1968	0.91628	-0.481
Mof_O 	O 	0.90495	0.1241	0.9799	-0.492
Mof_O 	O 	0.13721	0.0803	0.00622	-0.395
Mof_O 	O 	0.28541	0.998	0.00202	-0.356
Mof_O 	O 	0.6297	0.1859	0.0294	-0.372
_end
