data_functionalizedCrystal
_audit_creation_method	'EQeq! by Chris Wilmer'
_symmetry_space_group_name_H-M	'P1'
_symmetry_Int_Tables_number	1
_symmetry_cell_setting	triclinic
loop_
_symmetry_equiv_pos_as_xyz
  x,y,z
_cell_length_a	26.0414
_cell_length_b	26.0414
_cell_length_c	26.0414
_cell_angle_alpha	109.471
_cell_angle_beta	109.471
_cell_angle_gamma	109.471
loop_
_atom_site_label
_atom_site_type_symbol
_atom_site_fract_x
_atom_site_fract_y
_atom_site_fract_z
_atom_site_charge
Mof_Cd	Cd	0.64518	0.29036	0.14518	0.463
Mof_Cd	Cd	0.14518	0.5	0.85482	0.464
Mof_Cd	Cd	0.85482	0.70964	0.35482	0.464
Mof_Cd	Cd	0.35482	0.5	0.64518	0.462
Mof_Cd	Cd	0.35482	0.85482	0.70964	0.463
Mof_Cd	Cd	0.64518	0.35482	0.5	0.462
Mof_Cd	Cd	0.14518	0.64518	0.29036	0.462
Mof_Cd	Cd	0.85482	0.14518	0.5	0.463
Mof_Cd	Cd	0.5	0.85482	0.14518	0.463
Mof_Cd	Cd	0.29036	0.14518	0.64518	0.462
Mof_Cd	Cd	0.5	0.64518	0.35482	0.462
Mof_Cd	Cd	0.70964	0.35482	0.85482	0.463
Mof_Cd	Cd	0.35482	0.70964	0.85482	0.463
Mof_Cd	Cd	0.85482	0.5	0.14518	0.463
Mof_Cd	Cd	0.14518	0.29036	0.64518	0.462
Mof_Cd	Cd	0.64518	0.5	0.35482	0.462
Mof_Cd	Cd	0.64518	0.14518	0.29036	0.462
Mof_Cd	Cd	0.35482	0.64518	0.5	0.462
Mof_Cd	Cd	0.85482	0.35482	0.70964	0.463
Mof_Cd	Cd	0.14518	0.85482	0.5	0.463
Mof_Cd	Cd	0.5	0.14518	0.85482	0.463
Mof_Cd	Cd	0.70964	0.85482	0.35482	0.463
Mof_Cd	Cd	0.5	0.35482	0.64518	0.462
Mof_Cd	Cd	0.29036	0.64518	0.14518	0.462
Mof_H 	H 	0.5854	0.369	0.0866	0.031
Mof_H 	H 	0.4992	0.2195	0.1257	0.024
Mof_H 	H 	0.2824	0.4988	0.9134	0.034
Mof_H 	H 	0.0938	0.3735	0.8743	0.022
Mof_H 	H 	0.7176	0.631	0.2164	0.032
Mof_H 	H 	0.9062	0.7805	0.2797	0.02
Mof_H 	H 	0.4146	0.5012	0.7836	0.033
Mof_H 	H 	0.5008	0.6265	0.7203	0.027
Mof_H 	H 	0.2164	0.7176	0.631	0.032
Mof_H 	H 	0.2797	0.9062	0.7805	0.02
Mof_H 	H 	0.7836	0.4146	0.5012	0.033
Mof_H 	H 	0.7203	0.5008	0.6265	0.027
Mof_H 	H 	0.0866	0.5854	0.369	0.031
Mof_H 	H 	0.1257	0.4992	0.2195	0.024
Mof_H 	H 	0.9134	0.2824	0.4988	0.034
Mof_H 	H 	0.8743	0.0938	0.3735	0.022
Mof_H 	H 	0.4988	0.9134	0.2824	0.034
Mof_H 	H 	0.3735	0.8743	0.0938	0.022
Mof_H 	H 	0.369	0.0866	0.5854	0.031
Mof_H 	H 	0.2195	0.1257	0.4992	0.024
Mof_H 	H 	0.5012	0.7836	0.4146	0.033
Mof_H 	H 	0.6265	0.7203	0.5008	0.027
Mof_H 	H 	0.631	0.2164	0.7176	0.032
Mof_H 	H 	0.7805	0.2797	0.9062	0.02
Mof_H 	H 	0.631	0.4146	0.9134	0.034
Mof_H 	H 	0.7805	0.5008	0.8743	0.027
Mof_H 	H 	0.5012	0.7176	0.0866	0.031
Mof_H 	H 	0.6265	0.9062	0.1257	0.019
Mof_H 	H 	0.369	0.2824	0.7836	0.033
Mof_H 	H 	0.2195	0.0938	0.7203	0.022
Mof_H 	H 	0.4988	0.5854	0.2164	0.032
Mof_H 	H 	0.3735	0.4992	0.2797	0.025
Mof_H 	H 	0.2824	0.7836	0.369	0.033
Mof_H 	H 	0.0938	0.7203	0.2195	0.022
Mof_H 	H 	0.5854	0.2164	0.4988	0.032
Mof_H 	H 	0.4992	0.2797	0.3735	0.025
Mof_H 	H 	0.4146	0.9134	0.631	0.034
Mof_H 	H 	0.5008	0.8743	0.7805	0.027
Mof_H 	H 	0.7176	0.0866	0.5012	0.031
Mof_H 	H 	0.9062	0.1257	0.6265	0.019
Mof_H 	H 	0.0866	0.5012	0.7176	0.031
Mof_H 	H 	0.1257	0.6265	0.9062	0.019
Mof_H 	H 	0.9134	0.631	0.4146	0.034
Mof_H 	H 	0.8743	0.7805	0.5008	0.027
Mof_H 	H 	0.2164	0.4988	0.5854	0.032
Mof_H 	H 	0.2797	0.3735	0.4992	0.025
Mof_H 	H 	0.7836	0.369	0.2824	0.033
Mof_H 	H 	0.7203	0.2195	0.0938	0.022
Mof_H 	H 	0.4146	0.631	0.9134	0.034
Mof_H 	H 	0.5008	0.7805	0.8743	0.027
Mof_H 	H 	0.7176	0.5012	0.0866	0.031
Mof_H 	H 	0.9062	0.6265	0.1257	0.019
Mof_H 	H 	0.2824	0.369	0.7836	0.033
Mof_H 	H 	0.0938	0.2195	0.7203	0.022
Mof_H 	H 	0.5854	0.4988	0.2164	0.032
Mof_H 	H 	0.4992	0.3735	0.2797	0.025
Mof_H 	H 	0.7836	0.2824	0.369	0.033
Mof_H 	H 	0.7203	0.0938	0.2195	0.022
Mof_H 	H 	0.2164	0.5854	0.4988	0.032
Mof_H 	H 	0.2797	0.4992	0.3735	0.025
Mof_H 	H 	0.9134	0.4146	0.631	0.034
Mof_H 	H 	0.8743	0.5008	0.7805	0.027
Mof_H 	H 	0.0866	0.7176	0.5012	0.031
Mof_H 	H 	0.1257	0.9062	0.6265	0.019
Mof_H 	H 	0.5012	0.0866	0.7176	0.031
Mof_H 	H 	0.6265	0.1257	0.9062	0.019
Mof_H 	H 	0.631	0.9134	0.4146	0.034
Mof_H 	H 	0.7805	0.8743	0.5008	0.027
Mof_H 	H 	0.4988	0.2164	0.5854	0.032
Mof_H 	H 	0.3735	0.2797	0.4992	0.025
Mof_H 	H 	0.369	0.7836	0.2824	0.033
Mof_H 	H 	0.2195	0.7203	0.0938	0.022
Mof_H 	H 	0.369	0.5854	0.0866	0.031
Mof_H 	H 	0.2195	0.4992	0.1257	0.024
Mof_H 	H 	0.4988	0.2824	0.9134	0.034
Mof_H 	H 	0.3735	0.0938	0.8743	0.022
Mof_H 	H 	0.631	0.7176	0.2164	0.032
Mof_H 	H 	0.7805	0.9062	0.2797	0.02
Mof_H 	H 	0.5012	0.4146	0.7836	0.033
Mof_H 	H 	0.6265	0.5008	0.7203	0.027
Mof_H 	H 	0.7176	0.2164	0.631	0.032
Mof_H 	H 	0.9062	0.2797	0.7805	0.02
Mof_H 	H 	0.4146	0.7836	0.5012	0.033
Mof_H 	H 	0.5008	0.7203	0.6265	0.027
Mof_H 	H 	0.5854	0.0866	0.369	0.031
Mof_H 	H 	0.4992	0.1257	0.2195	0.024
Mof_H 	H 	0.2824	0.9134	0.4988	0.034
Mof_H 	H 	0.0938	0.8743	0.3735	0.022
Mof_H 	H 	0.9134	0.4988	0.2824	0.034
Mof_H 	H 	0.8743	0.3735	0.0938	0.022
Mof_H 	H 	0.0866	0.369	0.5854	0.031
Mof_H 	H 	0.1257	0.2195	0.4992	0.024
Mof_H 	H 	0.7836	0.5012	0.4146	0.033
Mof_H 	H 	0.7203	0.6265	0.5008	0.027
Mof_H 	H 	0.2164	0.631	0.7176	0.032
Mof_H 	H 	0.2797	0.7805	0.9062	0.02
Mof_H 	H 	0.6144	0.4496	0.064	0.079
Mof_H 	H 	0.3856	0.5504	0.936	0.084
Mof_H 	H 	0.6144	0.5504	0.1648	0.08
Mof_H 	H 	0.3856	0.4496	0.8352	0.082
Mof_H 	H 	0.1648	0.6144	0.5504	0.08
Mof_H 	H 	0.8352	0.3856	0.4496	0.082
Mof_H 	H 	0.064	0.6144	0.4496	0.079
Mof_H 	H 	0.936	0.3856	0.5504	0.084
Mof_H 	H 	0.5504	0.936	0.3856	0.084
Mof_H 	H 	0.4496	0.064	0.6144	0.079
Mof_H 	H 	0.4496	0.8352	0.3856	0.082
Mof_H 	H 	0.5504	0.1648	0.6144	0.08
Mof_H 	H 	0.5504	0.3856	0.936	0.084
Mof_H 	H 	0.4496	0.6144	0.064	0.079
Mof_H 	H 	0.4496	0.3856	0.8352	0.082
Mof_H 	H 	0.5504	0.6144	0.1648	0.08
Mof_H 	H 	0.3856	0.8352	0.4496	0.082
Mof_H 	H 	0.6144	0.1648	0.5504	0.08
Mof_H 	H 	0.3856	0.936	0.5504	0.084
Mof_H 	H 	0.6144	0.064	0.4496	0.079
Mof_H 	H 	0.064	0.4496	0.6144	0.079
Mof_H 	H 	0.936	0.5504	0.3856	0.084
Mof_H 	H 	0.1648	0.5504	0.6144	0.08
Mof_H 	H 	0.8352	0.4496	0.3856	0.082
Mof_H 	H 	0.4472	0.1562	0.1562	0.094
Mof_H 	H 	3.345e-17	0.291	0.8438	0.103
Mof_H 	H 	8.36249e-18	0.8438	0.291	0.103
Mof_H 	H 	0.5528	0.709	0.709	0.098
Mof_H 	H 	0.291	6.68999e-17	0.8438	0.103
Mof_H 	H 	0.709	0.5528	0.709	0.098
Mof_H 	H 	0.1562	0.4472	0.1562	0.094
Mof_H 	H 	0.8438	1.6725e-17	0.291	0.103
Mof_H 	H 	0.291	0.8438	-0	0.103
Mof_H 	H 	0.1562	0.1562	0.4472	0.094
Mof_H 	H 	0.709	0.709	0.5528	0.098
Mof_H 	H 	0.8438	0.291	-0	0.103
Mof_H 	H 	0.8438	0.5528	0.8438	0.099
Mof_H 	H 	0.709	0	0.1562	0.101
Mof_H 	H 	0.1562	0	0.709	0.101
Mof_H 	H 	0.291	0.4472	0.291	0.095
Mof_H 	H 	5.85374e-17	0.709	0.1562	0.101
Mof_H 	H 	0.4472	0.291	0.291	0.095
Mof_H 	H 	0.5528	0.8438	0.8438	0.099
Mof_H 	H 	8.36249e-17	0.1562	0.709	0.101
Mof_H 	H 	0.1562	0.709	-0	0.101
Mof_H 	H 	0.8438	0.8438	0.5528	0.099
Mof_H 	H 	0.291	0.291	0.4472	0.095
Mof_H 	H 	0.709	0.1562	-0	0.101
Mof_C 	C 	0.6268	0.3896	0.0938	0.086
Mof_C 	C 	0.5197	0.204	0.1489	0.114
Mof_C 	C 	0.2958	0.533	0.9062	0.089
Mof_C 	C 	0.0551	0.3708	0.8511	0.126
Mof_C 	C 	0.7042	0.6104	0.2372	0.087
Mof_C 	C 	0.9449	0.796	0.3157	0.139
Mof_C 	C 	0.3732	0.467	0.7628	0.088
Mof_C 	C 	0.4803	0.6292	0.6843	0.116
Mof_C 	C 	0.2372	0.7042	0.6104	0.087
Mof_C 	C 	0.3157	0.9449	0.796	0.139
Mof_C 	C 	0.7628	0.3732	0.467	0.088
Mof_C 	C 	0.6843	0.4803	0.6292	0.116
Mof_C 	C 	0.0938	0.6268	0.3896	0.086
Mof_C 	C 	0.1489	0.5197	0.204	0.114
Mof_C 	C 	0.9062	0.2958	0.533	0.089
Mof_C 	C 	0.8511	0.0551	0.3708	0.126
Mof_C 	C 	0.533	0.9062	0.2958	0.089
Mof_C 	C 	0.3708	0.8511	0.0551	0.126
Mof_C 	C 	0.3896	0.0938	0.6268	0.086
Mof_C 	C 	0.204	0.1489	0.5197	0.114
Mof_C 	C 	0.467	0.7628	0.3732	0.088
Mof_C 	C 	0.6292	0.6843	0.4803	0.116
Mof_C 	C 	0.6104	0.2372	0.7042	0.087
Mof_C 	C 	0.796	0.3157	0.9449	0.139
Mof_C 	C 	0.6104	0.3732	0.9062	0.089
Mof_C 	C 	0.796	0.4803	0.8511	0.117
Mof_C 	C 	0.467	0.7042	0.0938	0.086
Mof_C 	C 	0.6292	0.9449	0.1489	0.138
Mof_C 	C 	0.3896	0.2958	0.7628	0.088
Mof_C 	C 	0.204	0.0551	0.6843	0.125
Mof_C 	C 	0.533	0.6268	0.2372	0.087
Mof_C 	C 	0.3708	0.5197	0.3157	0.115
Mof_C 	C 	0.2958	0.7628	0.3896	0.088
Mof_C 	C 	0.0551	0.6843	0.204	0.125
Mof_C 	C 	0.6268	0.2372	0.533	0.087
Mof_C 	C 	0.5197	0.3157	0.3708	0.115
Mof_C 	C 	0.3732	0.9062	0.6104	0.089
Mof_C 	C 	0.4803	0.8511	0.796	0.117
Mof_C 	C 	0.7042	0.0938	0.467	0.086
Mof_C 	C 	0.9449	0.1489	0.6292	0.138
Mof_C 	C 	0.0938	0.467	0.7042	0.086
Mof_C 	C 	0.1489	0.6292	0.9449	0.138
Mof_C 	C 	0.9062	0.6104	0.3732	0.089
Mof_C 	C 	0.8511	0.796	0.4803	0.117
Mof_C 	C 	0.2372	0.533	0.6268	0.087
Mof_C 	C 	0.3157	0.3708	0.5197	0.115
Mof_C 	C 	0.7628	0.3896	0.2958	0.088
Mof_C 	C 	0.6843	0.204	0.0551	0.125
Mof_C 	C 	0.3732	0.6104	0.9062	0.089
Mof_C 	C 	0.4803	0.796	0.8511	0.117
Mof_C 	C 	0.7042	0.467	0.0938	0.086
Mof_C 	C 	0.9449	0.6292	0.1489	0.138
Mof_C 	C 	0.2958	0.3896	0.7628	0.088
Mof_C 	C 	0.0551	0.204	0.6843	0.125
Mof_C 	C 	0.6268	0.533	0.2372	0.087
Mof_C 	C 	0.5197	0.3708	0.3157	0.115
Mof_C 	C 	0.7628	0.2958	0.3896	0.088
Mof_C 	C 	0.6843	0.0551	0.204	0.125
Mof_C 	C 	0.2372	0.6268	0.533	0.087
Mof_C 	C 	0.3157	0.5197	0.3708	0.115
Mof_C 	C 	0.9062	0.3732	0.6104	0.089
Mof_C 	C 	0.8511	0.4803	0.796	0.117
Mof_C 	C 	0.0938	0.7042	0.467	0.086
Mof_C 	C 	0.1489	0.9449	0.6292	0.138
Mof_C 	C 	0.467	0.0938	0.7042	0.086
Mof_C 	C 	0.6292	0.1489	0.9449	0.138
Mof_C 	C 	0.6104	0.9062	0.3732	0.089
Mof_C 	C 	0.796	0.8511	0.4803	0.117
Mof_C 	C 	0.533	0.2372	0.6268	0.087
Mof_C 	C 	0.3708	0.3157	0.5197	0.115
Mof_C 	C 	0.3896	0.7628	0.2958	0.088
Mof_C 	C 	0.204	0.6843	0.0551	0.125
Mof_C 	C 	0.3896	0.6268	0.0938	0.086
Mof_C 	C 	0.204	0.5197	0.1489	0.114
Mof_C 	C 	0.533	0.2958	0.9062	0.089
Mof_C 	C 	0.3708	0.0551	0.8511	0.126
Mof_C 	C 	0.6104	0.7042	0.2372	0.087
Mof_C 	C 	0.796	0.9449	0.3157	0.139
Mof_C 	C 	0.467	0.3732	0.7628	0.088
Mof_C 	C 	0.6292	0.4803	0.6843	0.116
Mof_C 	C 	0.7042	0.2372	0.6104	0.087
Mof_C 	C 	0.9449	0.3157	0.796	0.139
Mof_C 	C 	0.3732	0.7628	0.467	0.088
Mof_C 	C 	0.4803	0.6843	0.6292	0.116
Mof_C 	C 	0.6268	0.0938	0.3896	0.086
Mof_C 	C 	0.5197	0.1489	0.204	0.114
Mof_C 	C 	0.2958	0.9062	0.533	0.089
Mof_C 	C 	0.0551	0.8511	0.3708	0.126
Mof_C 	C 	0.9062	0.533	0.2958	0.089
Mof_C 	C 	0.8511	0.3708	0.0551	0.126
Mof_C 	C 	0.0938	0.3896	0.6268	0.086
Mof_C 	C 	0.1489	0.204	0.5197	0.114
Mof_C 	C 	0.7628	0.467	0.3732	0.088
Mof_C 	C 	0.6843	0.6292	0.4803	0.116
Mof_C 	C 	0.2372	0.6104	0.7042	0.087
Mof_C 	C 	0.3157	0.796	0.9449	0.139
Mof_C 	C 	0.6121	0.3831	0.229	0.277
Mof_C 	C 	0.6772	0.4021	0.2751	0.052
Mof_C 	C 	0.1541	0.3831	0.771	0.276
Mof_C 	C 	0.127	0.4021	0.7249	0.052
Mof_C 	C 	0.8459	0.6169	0.229	0.277
Mof_C 	C 	0.873	0.5979	0.2751	0.053
Mof_C 	C 	0.3879	0.6169	0.771	0.276
Mof_C 	C 	0.3228	0.5979	0.7249	0.052
Mof_C 	C 	0.229	0.8459	0.6169	0.277
Mof_C 	C 	0.2751	0.873	0.5979	0.053
Mof_C 	C 	0.771	0.3879	0.6169	0.276
Mof_C 	C 	0.7249	0.3228	0.5979	0.052
Mof_C 	C 	0.229	0.6121	0.3831	0.277
Mof_C 	C 	0.2751	0.6772	0.4021	0.052
Mof_C 	C 	0.771	0.1541	0.3831	0.276
Mof_C 	C 	0.7249	0.127	0.4021	0.052
Mof_C 	C 	0.3831	0.771	0.1541	0.276
Mof_C 	C 	0.4021	0.7249	0.127	0.052
Mof_C 	C 	0.3831	0.229	0.6121	0.277
Mof_C 	C 	0.4021	0.2751	0.6772	0.052
Mof_C 	C 	0.6169	0.771	0.3879	0.276
Mof_C 	C 	0.5979	0.7249	0.3228	0.052
Mof_C 	C 	0.6169	0.229	0.8459	0.277
Mof_C 	C 	0.5979	0.2751	0.873	0.053
Mof_C 	C 	0.6169	0.3879	0.771	0.276
Mof_C 	C 	0.5979	0.3228	0.7249	0.052
Mof_C 	C 	0.6169	0.8459	0.229	0.277
Mof_C 	C 	0.5979	0.873	0.2751	0.053
Mof_C 	C 	0.3831	0.1541	0.771	0.276
Mof_C 	C 	0.4021	0.127	0.7249	0.052
Mof_C 	C 	0.3831	0.6121	0.229	0.277
Mof_C 	C 	0.4021	0.6772	0.2751	0.052
Mof_C 	C 	0.1541	0.771	0.3831	0.276
Mof_C 	C 	0.127	0.7249	0.4021	0.052
Mof_C 	C 	0.6121	0.229	0.3831	0.277
Mof_C 	C 	0.6772	0.2751	0.4021	0.052
Mof_C 	C 	0.3879	0.771	0.6169	0.276
Mof_C 	C 	0.3228	0.7249	0.5979	0.052
Mof_C 	C 	0.8459	0.229	0.6169	0.277
Mof_C 	C 	0.873	0.2751	0.5979	0.053
Mof_C 	C 	0.229	0.6169	0.8459	0.277
Mof_C 	C 	0.2751	0.5979	0.873	0.053
Mof_C 	C 	0.771	0.6169	0.3879	0.276
Mof_C 	C 	0.7249	0.5979	0.3228	0.052
Mof_C 	C 	0.229	0.3831	0.6121	0.277
Mof_C 	C 	0.2751	0.4021	0.6772	0.052
Mof_C 	C 	0.771	0.3831	0.1541	0.276
Mof_C 	C 	0.7249	0.4021	0.127	0.052
Mof_C 	C 	0.6435	0.4375	0.081	-0.138
Mof_C 	C 	0.3565	0.5625	0.919	-0.137
Mof_C 	C 	0.6435	0.5625	0.206	-0.137
Mof_C 	C 	0.3565	0.4375	0.794	-0.137
Mof_C 	C 	0.206	0.6435	0.5625	-0.137
Mof_C 	C 	0.794	0.3565	0.4375	-0.137
Mof_C 	C 	0.081	0.6435	0.4375	-0.138
Mof_C 	C 	0.919	0.3565	0.5625	-0.137
Mof_C 	C 	0.5625	0.919	0.3565	-0.137
Mof_C 	C 	0.4375	0.081	0.6435	-0.138
Mof_C 	C 	0.4375	0.794	0.3565	-0.137
Mof_C 	C 	0.5625	0.206	0.6435	-0.137
Mof_C 	C 	0.5625	0.3565	0.919	-0.137
Mof_C 	C 	0.4375	0.6435	0.081	-0.138
Mof_C 	C 	0.4375	0.3565	0.794	-0.137
Mof_C 	C 	0.5625	0.6435	0.206	-0.137
Mof_C 	C 	0.3565	0.794	0.4375	-0.137
Mof_C 	C 	0.6435	0.206	0.5625	-0.137
Mof_C 	C 	0.3565	0.919	0.5625	-0.137
Mof_C 	C 	0.6435	0.081	0.4375	-0.138
Mof_C 	C 	0.081	0.4375	0.6435	-0.138
Mof_C 	C 	0.919	0.5625	0.3565	-0.137
Mof_C 	C 	0.206	0.5625	0.6435	-0.137
Mof_C 	C 	0.794	0.4375	0.3565	-0.137
Mof_C 	C 	0.5415	0.2121	-0	0.253
Mof_C 	C 	0.591	0.1958	-0	0.05
Mof_C 	C 	0.2121	0.5415	-0	0.253
Mof_C 	C 	0.1958	0.591	-0	0.05
Mof_C 	C 	0.7879	0.7879	0.3294	0.266
Mof_C 	C 	0.8042	0.8042	0.3952	0.057
Mof_C 	C 	0.4585	0.4585	0.6706	0.266
Mof_C 	C 	0.409	0.409	0.6048	0.056
Mof_C 	C 	0.3294	0.7879	0.7879	0.266
Mof_C 	C 	0.3952	0.8042	0.8042	0.057
Mof_C 	C 	0.6706	0.4585	0.4585	0.266
Mof_C 	C 	0.6048	0.409	0.409	0.056
Mof_C 	C 	1.25437e-17	0.5415	0.2121	0.253
Mof_C 	C 	1.25437e-17	0.591	0.1958	0.05
Mof_C 	C 	5.01749e-17	0.2121	0.5415	0.253
Mof_C 	C 	1.6725e-17	0.1958	0.591	0.05
Mof_C 	C 	0.5415	1.6725e-17	0.2121	0.253
Mof_C 	C 	0.591	1.6725e-17	0.1958	0.05
Mof_C 	C 	0.2121	6.68999e-17	0.5415	0.253
Mof_C 	C 	0.1958	3.345e-17	0.591	0.05
Mof_C 	C 	0.4585	0.6706	0.4585	0.266
Mof_C 	C 	0.409	0.6048	0.409	0.056
Mof_C 	C 	0.7879	0.3294	0.7879	0.266
Mof_C 	C 	0.8042	0.3952	0.8042	0.057
Mof_C 	C 	0.7879	0.4585	-0	0.254
Mof_C 	C 	0.8042	0.409	-0	0.051
Mof_C 	C 	0.4585	0.7879	-0	0.254
Mof_C 	C 	0.409	0.8042	-0	0.051
Mof_C 	C 	0.2121	0.2121	0.6706	0.266
Mof_C 	C 	0.1958	0.1958	0.6048	0.055
Mof_C 	C 	0.5415	0.5415	0.3294	0.266
Mof_C 	C 	0.591	0.591	0.3952	0.056
Mof_C 	C 	0.2121	0.6706	0.2121	0.266
Mof_C 	C 	0.1958	0.6048	0.1958	0.055
Mof_C 	C 	0.5415	0.3294	0.5415	0.266
Mof_C 	C 	0.591	0.3952	0.591	0.056
Mof_C 	C 	0.4585	6.68999e-17	0.7879	0.254
Mof_C 	C 	0.409	0	0.8042	0.051
Mof_C 	C 	0.7879	0	0.4585	0.254
Mof_C 	C 	0.8042	3.345e-17	0.409	0.051
Mof_C 	C 	5.01749e-17	0.4585	0.7879	0.254
Mof_C 	C 	-5.01749e-17	0.409	0.8042	0.051
Mof_C 	C 	-0	0.7879	0.4585	0.254
Mof_C 	C 	-5.01749e-17	0.8042	0.409	0.051
Mof_C 	C 	0.3294	0.5415	0.5415	0.266
Mof_C 	C 	0.3952	0.591	0.591	0.056
Mof_C 	C 	0.6706	0.2121	0.2121	0.266
Mof_C 	C 	0.6048	0.1958	0.1958	0.055
Mof_C 	C 	0.4898	0.1681	0.1681	-0.164
Mof_C 	C 	8.36249e-17	0.3217	0.8319	-0.189
Mof_C 	C 	1.6725e-17	0.8319	0.3217	-0.189
Mof_C 	C 	0.5102	0.6783	0.6783	-0.163
Mof_C 	C 	0.3217	1.338e-16	0.8319	-0.189
Mof_C 	C 	0.6783	0.5102	0.6783	-0.163
Mof_C 	C 	0.1681	0.4898	0.1681	-0.164
Mof_C 	C 	0.8319	3.345e-17	0.3217	-0.189
Mof_C 	C 	0.3217	0.8319	-0	-0.189
Mof_C 	C 	0.1681	0.1681	0.4898	-0.164
Mof_C 	C 	0.6783	0.6783	0.5102	-0.163
Mof_C 	C 	0.8319	0.3217	-0	-0.189
Mof_C 	C 	0.8319	0.5102	0.8319	-0.163
Mof_C 	C 	0.6783	1.6725e-17	0.1681	-0.189
Mof_C 	C 	0.1681	0	0.6783	-0.189
Mof_C 	C 	0.3217	0.4898	0.3217	-0.163
Mof_C 	C 	2.09062e-17	0.6783	0.1681	-0.189
Mof_C 	C 	0.4898	0.3217	0.3217	-0.163
Mof_C 	C 	0.5102	0.8319	0.8319	-0.163
Mof_C 	C 	1.6725e-17	0.1681	0.6783	-0.189
Mof_C 	C 	0.1681	0.6783	-0	-0.189
Mof_C 	C 	0.8319	0.8319	0.5102	-0.163
Mof_C 	C 	0.3217	0.3217	0.4898	-0.163
Mof_C 	C 	0.6783	0.1681	-0	-0.189
Mof_N 	N 	0.6669	0.371	0.1163	-0.133
Mof_N 	N 	0.5769	0.2173	0.1626	-0.139
Mof_N 	N 	0.2547	0.5506	0.8837	-0.133
Mof_N 	N 	0.0547	0.4143	0.8374	-0.141
Mof_N 	N 	0.7453	0.629	0.2959	-0.133
Mof_N 	N 	0.9453	0.7827	0.3596	-0.138
Mof_N 	N 	0.3331	0.4494	0.7041	-0.133
Mof_N 	N 	0.4231	0.5857	0.6404	-0.139
Mof_N 	N 	0.2959	0.7453	0.629	-0.133
Mof_N 	N 	0.3596	0.9453	0.7827	-0.138
Mof_N 	N 	0.7041	0.3331	0.4494	-0.133
Mof_N 	N 	0.6404	0.4231	0.5857	-0.139
Mof_N 	N 	0.1163	0.6669	0.371	-0.133
Mof_N 	N 	0.1626	0.5769	0.2173	-0.139
Mof_N 	N 	0.8837	0.2547	0.5506	-0.133
Mof_N 	N 	0.8374	0.0547	0.4143	-0.141
Mof_N 	N 	0.5506	0.8837	0.2547	-0.133
Mof_N 	N 	0.4143	0.8374	0.0547	-0.141
Mof_N 	N 	0.371	0.1163	0.6669	-0.133
Mof_N 	N 	0.2173	0.1626	0.5769	-0.139
Mof_N 	N 	0.4494	0.7041	0.3331	-0.133
Mof_N 	N 	0.5857	0.6404	0.4231	-0.139
Mof_N 	N 	0.629	0.2959	0.7453	-0.133
Mof_N 	N 	0.7827	0.3596	0.9453	-0.138
Mof_N 	N 	0.629	0.3331	0.8837	-0.133
Mof_N 	N 	0.7827	0.4231	0.8374	-0.139
Mof_N 	N 	0.4494	0.7453	0.1163	-0.133
Mof_N 	N 	0.5857	0.9453	0.1626	-0.138
Mof_N 	N 	0.371	0.2547	0.7041	-0.133
Mof_N 	N 	0.2173	0.0547	0.6404	-0.141
Mof_N 	N 	0.5506	0.6669	0.2959	-0.133
Mof_N 	N 	0.4143	0.5769	0.3596	-0.139
Mof_N 	N 	0.2547	0.7041	0.371	-0.133
Mof_N 	N 	0.0547	0.6404	0.2173	-0.141
Mof_N 	N 	0.6669	0.2959	0.5506	-0.133
Mof_N 	N 	0.5769	0.3596	0.4143	-0.139
Mof_N 	N 	0.3331	0.8837	0.629	-0.133
Mof_N 	N 	0.4231	0.8374	0.7827	-0.139
Mof_N 	N 	0.7453	0.1163	0.4494	-0.133
Mof_N 	N 	0.9453	0.1626	0.5857	-0.138
Mof_N 	N 	0.1163	0.4494	0.7453	-0.133
Mof_N 	N 	0.1626	0.5857	0.9453	-0.138
Mof_N 	N 	0.8837	0.629	0.3331	-0.133
Mof_N 	N 	0.8374	0.7827	0.4231	-0.139
Mof_N 	N 	0.2959	0.5506	0.6669	-0.133
Mof_N 	N 	0.3596	0.4143	0.5769	-0.139
Mof_N 	N 	0.7041	0.371	0.2547	-0.133
Mof_N 	N 	0.6404	0.2173	0.0547	-0.141
Mof_N 	N 	0.3331	0.629	0.8837	-0.133
Mof_N 	N 	0.4231	0.7827	0.8374	-0.139
Mof_N 	N 	0.7453	0.4494	0.1163	-0.133
Mof_N 	N 	0.9453	0.5857	0.1626	-0.138
Mof_N 	N 	0.2547	0.371	0.7041	-0.133
Mof_N 	N 	0.0547	0.2173	0.6404	-0.141
Mof_N 	N 	0.6669	0.5506	0.2959	-0.133
Mof_N 	N 	0.5769	0.4143	0.3596	-0.139
Mof_N 	N 	0.7041	0.2547	0.371	-0.133
Mof_N 	N 	0.6404	0.0547	0.2173	-0.141
Mof_N 	N 	0.2959	0.6669	0.5506	-0.133
Mof_N 	N 	0.3596	0.5769	0.4143	-0.139
Mof_N 	N 	0.8837	0.3331	0.629	-0.133
Mof_N 	N 	0.8374	0.4231	0.7827	-0.139
Mof_N 	N 	0.1163	0.7453	0.4494	-0.133
Mof_N 	N 	0.1626	0.9453	0.5857	-0.138
Mof_N 	N 	0.4494	0.1163	0.7453	-0.133
Mof_N 	N 	0.5857	0.1626	0.9453	-0.138
Mof_N 	N 	0.629	0.8837	0.3331	-0.133
Mof_N 	N 	0.7827	0.8374	0.4231	-0.139
Mof_N 	N 	0.5506	0.2959	0.6669	-0.133
Mof_N 	N 	0.4143	0.3596	0.5769	-0.139
Mof_N 	N 	0.371	0.7041	0.2547	-0.133
Mof_N 	N 	0.2173	0.6404	0.0547	-0.141
Mof_N 	N 	0.371	0.6669	0.1163	-0.133
Mof_N 	N 	0.2173	0.5769	0.1626	-0.139
Mof_N 	N 	0.5506	0.2547	0.8837	-0.133
Mof_N 	N 	0.4143	0.0547	0.8374	-0.141
Mof_N 	N 	0.629	0.7453	0.2959	-0.133
Mof_N 	N 	0.7827	0.9453	0.3596	-0.138
Mof_N 	N 	0.4494	0.3331	0.7041	-0.133
Mof_N 	N 	0.5857	0.4231	0.6404	-0.139
Mof_N 	N 	0.7453	0.2959	0.629	-0.133
Mof_N 	N 	0.9453	0.3596	0.7827	-0.138
Mof_N 	N 	0.3331	0.7041	0.4494	-0.133
Mof_N 	N 	0.4231	0.6404	0.5857	-0.139
Mof_N 	N 	0.6669	0.1163	0.371	-0.133
Mof_N 	N 	0.5769	0.1626	0.2173	-0.139
Mof_N 	N 	0.2547	0.8837	0.5506	-0.133
Mof_N 	N 	0.0547	0.8374	0.4143	-0.141
Mof_N 	N 	0.8837	0.5506	0.2547	-0.133
Mof_N 	N 	0.8374	0.4143	0.0547	-0.141
Mof_N 	N 	0.1163	0.371	0.6669	-0.133
Mof_N 	N 	0.1626	0.2173	0.5769	-0.139
Mof_N 	N 	0.7041	0.4494	0.3331	-0.133
Mof_N 	N 	0.6404	0.5857	0.4231	-0.139
Mof_N 	N 	0.2959	0.629	0.7453	-0.133
Mof_N 	N 	0.3596	0.7827	0.9453	-0.138
Mof_O 	O 	0.5874	0.3389	0.1751	-0.245
Mof_O 	O 	0.547	0.2433	0.0517	-0.239
Mof_O 	O 	0.1638	0.4123	0.8249	-0.245
Mof_O 	O 	0.1916	0.4953	0.9483	-0.229
Mof_O 	O 	0.8362	0.6611	0.2485	-0.244
Mof_O 	O 	0.8084	0.7567	0.3037	-0.238
Mof_O 	O 	0.4126	0.5877	0.7515	-0.244
Mof_O 	O 	0.453	0.5047	0.6963	-0.239
Mof_O 	O 	0.2485	0.8362	0.6611	-0.244
Mof_O 	O 	0.3037	0.8084	0.7567	-0.238
Mof_O 	O 	0.7515	0.4126	0.5877	-0.244
Mof_O 	O 	0.6963	0.453	0.5047	-0.239
Mof_O 	O 	0.1751	0.5874	0.3389	-0.245
Mof_O 	O 	0.0517	0.547	0.2433	-0.239
Mof_O 	O 	0.8249	0.1638	0.4123	-0.245
Mof_O 	O 	0.9483	0.1916	0.4953	-0.229
Mof_O 	O 	0.4123	0.8249	0.1638	-0.245
Mof_O 	O 	0.4953	0.9483	0.1916	-0.229
Mof_O 	O 	0.3389	0.1751	0.5874	-0.245
Mof_O 	O 	0.2433	0.0517	0.547	-0.239
Mof_O 	O 	0.5877	0.7515	0.4126	-0.244
Mof_O 	O 	0.5047	0.6963	0.453	-0.239
Mof_O 	O 	0.6611	0.2485	0.8362	-0.244
Mof_O 	O 	0.7567	0.3037	0.8084	-0.238
Mof_O 	O 	0.6611	0.4126	0.8249	-0.244
Mof_O 	O 	0.7567	0.453	0.9483	-0.228
Mof_O 	O 	0.5877	0.8362	0.1751	-0.244
Mof_O 	O 	0.5047	0.8084	0.0517	-0.237
Mof_O 	O 	0.3389	0.1638	0.7515	-0.244
Mof_O 	O 	0.2433	0.1916	0.6963	-0.239
Mof_O 	O 	0.4123	0.5874	0.2485	-0.245
Mof_O 	O 	0.4953	0.547	0.3037	-0.24
Mof_O 	O 	0.1638	0.7515	0.3389	-0.244
Mof_O 	O 	0.1916	0.6963	0.2433	-0.239
Mof_O 	O 	0.5874	0.2485	0.4123	-0.245
Mof_O 	O 	0.547	0.3037	0.4953	-0.24
Mof_O 	O 	0.4126	0.8249	0.6611	-0.244
Mof_O 	O 	0.453	0.9483	0.7567	-0.228
Mof_O 	O 	0.8362	0.1751	0.5877	-0.244
Mof_O 	O 	0.8084	0.0517	0.5047	-0.237
Mof_O 	O 	0.1751	0.5877	0.8362	-0.244
Mof_O 	O 	0.0517	0.5047	0.8084	-0.237
Mof_O 	O 	0.8249	0.6611	0.4126	-0.244
Mof_O 	O 	0.9483	0.7567	0.453	-0.228
Mof_O 	O 	0.2485	0.4123	0.5874	-0.245
Mof_O 	O 	0.3037	0.4953	0.547	-0.24
Mof_O 	O 	0.7515	0.3389	0.1638	-0.244
Mof_O 	O 	0.6963	0.2433	0.1916	-0.239
Mof_O 	O 	0.4126	0.6611	0.8249	-0.244
Mof_O 	O 	0.453	0.7567	0.9483	-0.228
Mof_O 	O 	0.8362	0.5877	0.1751	-0.244
Mof_O 	O 	0.8084	0.5047	0.0517	-0.237
Mof_O 	O 	0.1638	0.3389	0.7515	-0.244
Mof_O 	O 	0.1916	0.2433	0.6963	-0.239
Mof_O 	O 	0.5874	0.4123	0.2485	-0.245
Mof_O 	O 	0.547	0.4953	0.3037	-0.24
Mof_O 	O 	0.7515	0.1638	0.3389	-0.244
Mof_O 	O 	0.6963	0.1916	0.2433	-0.239
Mof_O 	O 	0.2485	0.5874	0.4123	-0.245
Mof_O 	O 	0.3037	0.547	0.4953	-0.24
Mof_O 	O 	0.8249	0.4126	0.6611	-0.244
Mof_O 	O 	0.9483	0.453	0.7567	-0.228
Mof_O 	O 	0.1751	0.8362	0.5877	-0.244
Mof_O 	O 	0.0517	0.8084	0.5047	-0.237
Mof_O 	O 	0.5877	0.1751	0.8362	-0.244
Mof_O 	O 	0.5047	0.0517	0.8084	-0.237
Mof_O 	O 	0.6611	0.8249	0.4126	-0.244
Mof_O 	O 	0.7567	0.9483	0.453	-0.228
Mof_O 	O 	0.4123	0.2485	0.5874	-0.245
Mof_O 	O 	0.4953	0.3037	0.547	-0.24
Mof_O 	O 	0.3389	0.7515	0.1638	-0.244
Mof_O 	O 	0.2433	0.6963	0.1916	-0.239
Mof_O 	O 	0.3389	0.5874	0.1751	-0.245
Mof_O 	O 	0.2433	0.547	0.0517	-0.239
Mof_O 	O 	0.4123	0.1638	0.8249	-0.245
Mof_O 	O 	0.4953	0.1916	0.9483	-0.229
Mof_O 	O 	0.6611	0.8362	0.2485	-0.244
Mof_O 	O 	0.7567	0.8084	0.3037	-0.238
Mof_O 	O 	0.5877	0.4126	0.7515	-0.244
Mof_O 	O 	0.5047	0.453	0.6963	-0.239
Mof_O 	O 	0.8362	0.2485	0.6611	-0.244
Mof_O 	O 	0.8084	0.3037	0.7567	-0.238
Mof_O 	O 	0.4126	0.7515	0.5877	-0.244
Mof_O 	O 	0.453	0.6963	0.5047	-0.239
Mof_O 	O 	0.5874	0.1751	0.3389	-0.245
Mof_O 	O 	0.547	0.0517	0.2433	-0.239
Mof_O 	O 	0.1638	0.8249	0.4123	-0.245
Mof_O 	O 	0.1916	0.9483	0.4953	-0.229
Mof_O 	O 	0.8249	0.4123	0.1638	-0.245
Mof_O 	O 	0.9483	0.4953	0.1916	-0.229
Mof_O 	O 	0.1751	0.3389	0.5874	-0.245
Mof_O 	O 	0.0517	0.2433	0.547	-0.239
Mof_O 	O 	0.7515	0.5877	0.4126	-0.244
Mof_O 	O 	0.6963	0.5047	0.453	-0.239
Mof_O 	O 	0.2485	0.6611	0.8362	-0.244
Mof_O 	O 	0.3037	0.7567	0.8084	-0.238
_end
