data_functionalizedCrystal
_audit_creation_method	'EQeq! by Chris Wilmer'
_symmetry_space_group_name_H-M	'P1'
_symmetry_Int_Tables_number	1
_symmetry_cell_setting	triclinic
loop_
_symmetry_equiv_pos_as_xyz
  x,y,z
_cell_length_a	7.361
_cell_length_b	15.645
_cell_length_c	26.957
_cell_angle_alpha	90
_cell_angle_beta	90
_cell_angle_gamma	90
loop_
_atom_site_label
_atom_site_type_symbol
_atom_site_fract_x
_atom_site_fract_y
_atom_site_fract_z
_atom_site_charge
Mof_Ni	Ni	0.4895	0.65587	0.68717	1.082
Mof_O 	O 	0.3887	0.643	0.61404	-0.371
Mof_O 	O 	0.6014	0.5562	0.64209	-0.367
Mof_O 	O 	0.879	0.3643	0.25192	-0.419
Mof_O 	O 	0.6437	0.2772	0.25	-0.293
Mof_O 	O 	0.0869	0.5571	0.4582	-0.116
Mof_O 	O 	0.2806	0.5468	0.39648	-0.122
Mof_O 	O 	0.1749	0.3187	0.3722	-0.114
Mof_O 	O 	0.2343	0.3569	0.4438	-0.096
Mof_N 	N 	0.344	0.7609	0.70996	-0.246
Mof_N 	N 	0.7093	0.0716	0.78859	-0.228
Mof_N 	N 	0.2413	0.5401	0.4404	-0.005
Mof_N 	N 	0.2845	0.344	0.4034	-0.001
Mof_C 	C 	0.342	0.7896	0.7564	0.096
Mof_H 	H 	0.4207	0.7646	0.7792	0.007
Mof_C 	C 	0.2326	0.7998	0.6777	0.087
Mof_H 	H 	0.237	0.7832	0.6446	0.001
Mof_C 	C 	0.2316	0.8533	0.7723	-0.14
Mof_H 	H 	0.2389	0.8722	0.805	0.096
Mof_C 	C 	0.1136	0.862	0.6909	-0.137
Mof_H 	H 	0.0364	0.8857	0.6673	0.097
Mof_C 	C 	0.1072	0.8906	0.7399	0.074
Mof_C 	C 	0.9722	0.9554	0.75664	0.075
Mof_C 	C 	0.7995	0.952	0.738	-0.134
Mof_H 	H 	0.7677	0.9111	0.7146	0.092
Mof_C 	C 	0.0161	0.0153	0.7916	-0.146
Mof_H 	H 	0.1321	0.0178	0.8052	0.095
Mof_C 	C 	0.6713	0.0115	0.755	0.088
Mof_H 	H 	0.5541	0.009	0.7422	0.01
Mof_C 	C 	0.8805	0.0726	0.8061	0.095
Mof_H 	H 	0.9105	0.1142	0.8294	0.002
Mof_C 	C 	0.4968	0.5817	0.6078	0.274
Mof_C 	C 	0.5066	0.5392	0.55684	-0.02
Mof_C 	C 	0.6412	0.4828	0.54632	-0.018
Mof_H 	H 	0.7249	0.4674	0.5706	0.062
Mof_C 	C 	0.6531	0.448	0.4989	-0.05
Mof_H 	H 	0.7495	0.4118	0.4914	0.076
Mof_C 	C 	0.5259	0.4658	0.46254	0.01
Mof_C 	C 	0.3839	0.518	0.4765	0.086
Mof_C 	C 	0.3731	0.5545	0.5229	-0.075
Mof_H 	H 	0.2753	0.5894	0.531	0.096
Mof_C 	C 	0.7356	0.3322	0.26936	0.354
Mof_C 	C 	0.6767	0.3688	0.31801	-0.068
Mof_C 	C 	0.5122	0.3452	0.33744	-0.04
Mof_H 	H 	0.4367	0.3083	0.3199	0.079
Mof_C 	C 	0.4579	0.3767	0.3838	0.065
Mof_C 	C 	0.5639	0.4318	0.4109	0.031
Mof_C 	C 	0.7285	0.4567	0.3912	-0.081
Mof_H 	H 	0.8018	0.4953	0.4082	0.087
Mof_C 	C 	0.7855	0.4229	0.3445	0.018
Mof_H 	H 	0.8987	0.438	0.3319	0.055
Mof_Ni	Ni	0.0105	0.34413	0.18717	1.081
Mof_O 	O 	0.1113	0.357	0.11404	-0.37
Mof_O 	O 	0.8986	0.4438	0.14209	-0.362
Mof_O 	O 	0.621	0.6357	0.75192	-0.42
Mof_O 	O 	0.8563	0.7228	0.75	-0.294
Mof_O 	O 	0.4131	0.4429	0.9582	-0.117
Mof_O 	O 	0.2194	0.4532	0.89648	-0.123
Mof_O 	O 	0.3251	0.6813	0.8722	-0.115
Mof_O 	O 	0.2657	0.6431	0.9438	-0.097
Mof_N 	N 	0.156	0.2391	0.20996	-0.247
Mof_N 	N 	0.7907	0.9284	0.28859	-0.227
Mof_N 	N 	0.2587	0.4599	0.9404	-0.005
Mof_N 	N 	0.2155	0.656	0.9034	0
Mof_C 	C 	0.158	0.2104	0.2564	0.096
Mof_H 	H 	0.0793	0.2354	0.2792	0.007
Mof_C 	C 	0.2674	0.2002	0.1777	0.087
Mof_H 	H 	0.263	0.2168	0.1446	0
Mof_C 	C 	0.2684	0.1467	0.2723	-0.14
Mof_H 	H 	0.2611	0.1278	0.305	0.096
Mof_C 	C 	0.3864	0.138	0.1909	-0.138
Mof_H 	H 	0.4636	0.1143	0.1673	0.096
Mof_C 	C 	0.3928	0.1094	0.2399	0.073
Mof_C 	C 	0.5278	0.0446	0.25664	0.073
Mof_C 	C 	0.7005	0.048	0.238	-0.13
Mof_H 	H 	0.7323	0.0889	0.2146	0.091
Mof_C 	C 	0.4839	0.9847	0.2916	-0.141
Mof_H 	H 	0.3679	0.9822	0.3052	0.094
Mof_C 	C 	0.8287	0.9885	0.255	0.085
Mof_H 	H 	0.9459	0.991	0.2422	0.011
Mof_C 	C 	0.6195	0.9274	0.3061	0.091
Mof_H 	H 	0.5895	0.8858	0.3294	0.003
Mof_C 	C 	0.0032	0.4183	0.1078	0.263
Mof_C 	C 	0.9934	0.4608	0.05684	-0.006
Mof_C 	C 	0.8588	0.5172	0.04632	-0.025
Mof_H 	H 	0.7751	0.5326	0.0706	0.066
Mof_C 	C 	0.8469	0.552	0.9989	-0.046
Mof_H 	H 	0.7505	0.5882	0.9914	0.075
Mof_C 	C 	0.9741	0.5342	0.96254	0.009
Mof_C 	C 	0.1161	0.482	0.9765	0.087
Mof_C 	C 	0.1269	0.4455	0.0229	-0.086
Mof_H 	H 	0.2247	0.4106	0.031	0.099
Mof_C 	C 	0.7644	0.6678	0.76936	0.356
Mof_C 	C 	0.8233	0.6312	0.81801	-0.073
Mof_C 	C 	0.9878	0.6548	0.83744	-0.031
Mof_H 	H 	0.0633	0.6917	0.8199	0.075
Mof_C 	C 	0.0421	0.6233	0.8838	0.056
Mof_C 	C 	0.9361	0.5682	0.9109	0.038
Mof_C 	C 	0.7715	0.5433	0.8912	-0.086
Mof_H 	H 	0.6982	0.5047	0.9082	0.09
Mof_C 	C 	0.7145	0.5771	0.8445	0.023
Mof_H 	H 	0.6013	0.562	0.8319	0.054
Mof_Ni	Ni	0.5105	0.15587	0.81283	1.081
Mof_O 	O 	0.6113	0.143	0.88596	-0.371
Mof_O 	O 	0.3986	0.0562	0.85791	-0.368
Mof_O 	O 	0.121	0.8643	0.24808	-0.419
Mof_O 	O 	0.3563	0.7772	0.25	-0.293
Mof_O 	O 	0.9131	0.0571	0.0418	-0.115
Mof_O 	O 	0.7194	0.0468	0.10352	-0.122
Mof_O 	O 	0.8251	0.8187	0.1278	-0.114
Mof_O 	O 	0.7657	0.8569	0.0562	-0.096
Mof_N 	N 	0.656	0.2609	0.79004	-0.246
Mof_N 	N 	0.2907	0.5716	0.71141	-0.227
Mof_N 	N 	0.7587	0.0401	0.0596	-0.005
Mof_N 	N 	0.7155	0.844	0.0966	-0.001
Mof_C 	C 	0.658	0.2896	0.7436	0.096
Mof_H 	H 	0.5793	0.2646	0.7208	0.007
Mof_C 	C 	0.7674	0.2998	0.8223	0.087
Mof_H 	H 	0.763	0.2832	0.8554	0.001
Mof_C 	C 	0.7684	0.3533	0.7277	-0.14
Mof_H 	H 	0.7611	0.3722	0.695	0.096
Mof_C 	C 	0.8864	0.362	0.8091	-0.137
Mof_H 	H 	0.9636	0.3857	0.8327	0.097
Mof_C 	C 	0.8928	0.3906	0.7601	0.073
Mof_C 	C 	0.0278	0.4554	0.74336	0.075
Mof_C 	C 	0.2005	0.452	0.762	-0.132
Mof_H 	H 	0.2323	0.4111	0.7854	0.091
Mof_C 	C 	0.9839	0.5153	0.7084	-0.144
Mof_H 	H 	0.8679	0.5178	0.6948	0.094
Mof_C 	C 	0.3287	0.5115	0.745	0.087
Mof_H 	H 	0.4459	0.509	0.7578	0.011
Mof_C 	C 	0.1195	0.5726	0.6939	0.093
Mof_H 	H 	0.0895	0.6142	0.6706	0.003
Mof_C 	C 	0.5032	0.0817	0.8922	0.274
Mof_C 	C 	0.4934	0.0392	0.94316	-0.021
Mof_C 	C 	0.3588	0.9828	0.95368	-0.018
Mof_H 	H 	0.2751	0.9674	0.9294	0.063
Mof_C 	C 	0.3469	0.948	0.0011	-0.05
Mof_H 	H 	0.2505	0.9118	0.0086	0.076
Mof_C 	C 	0.4741	0.9658	0.03746	0.009
Mof_C 	C 	0.6161	0.018	0.0235	0.087
Mof_C 	C 	0.6269	0.0545	0.9771	-0.075
Mof_H 	H 	0.7247	0.0894	0.969	0.096
Mof_C 	C 	0.2644	0.8322	0.23064	0.354
Mof_C 	C 	0.3233	0.8688	0.18199	-0.068
Mof_C 	C 	0.4878	0.8452	0.16256	-0.04
Mof_H 	H 	0.5633	0.8083	0.1801	0.079
Mof_C 	C 	0.5421	0.8767	0.1162	0.064
Mof_C 	C 	0.4361	0.9318	0.0891	0.031
Mof_C 	C 	0.2715	0.9567	0.1088	-0.081
Mof_H 	H 	0.1982	0.9953	0.0918	0.087
Mof_C 	C 	0.2145	0.9229	0.1555	0.018
Mof_H 	H 	0.1013	0.938	0.1681	0.055
Mof_Ni	Ni	0.9895	0.84413	0.31283	1.081
Mof_O 	O 	0.8887	0.857	0.38596	-0.369
Mof_O 	O 	0.1014	0.9438	0.35791	-0.361
Mof_O 	O 	0.379	0.1357	0.74808	-0.42
Mof_O 	O 	0.1437	0.2228	0.75	-0.294
Mof_O 	O 	0.5869	0.9429	0.5418	-0.117
Mof_O 	O 	0.7806	0.9532	0.60352	-0.123
Mof_O 	O 	0.6749	0.1813	0.6278	-0.115
Mof_O 	O 	0.7343	0.1431	0.5562	-0.097
Mof_N 	N 	0.844	0.7391	0.29004	-0.246
Mof_N 	N 	0.2093	0.4284	0.21141	-0.227
Mof_N 	N 	0.7413	0.9599	0.5596	-0.006
Mof_N 	N 	0.7845	0.156	0.5966	0
Mof_C 	C 	0.842	0.7104	0.2436	0.096
Mof_H 	H 	0.9207	0.7354	0.2208	0.008
Mof_C 	C 	0.7326	0.7002	0.3223	0.087
Mof_H 	H 	0.737	0.7168	0.3554	0
Mof_C 	C 	0.7316	0.6467	0.2277	-0.14
Mof_H 	H 	0.7389	0.6278	0.195	0.096
Mof_C 	C 	0.6136	0.638	0.3091	-0.137
Mof_H 	H 	0.5364	0.6143	0.3327	0.096
Mof_C 	C 	0.6072	0.6094	0.2601	0.073
Mof_C 	C 	0.4722	0.5446	0.24336	0.073
Mof_C 	C 	0.2995	0.548	0.262	-0.132
Mof_H 	H 	0.2677	0.5889	0.2854	0.092
Mof_C 	C 	0.5161	0.4847	0.2084	-0.141
Mof_H 	H 	0.6321	0.4822	0.1948	0.094
Mof_C 	C 	0.1713	0.4885	0.245	0.087
Mof_H 	H 	0.0541	0.491	0.2578	0.011
Mof_C 	C 	0.3805	0.4274	0.1939	0.092
Mof_H 	H 	0.4105	0.3858	0.1706	0.003
Mof_C 	C 	0.9968	0.9183	0.3922	0.261
Mof_C 	C 	0.0066	0.9608	0.44316	-0.002
Mof_C 	C 	0.1412	0.0172	0.45368	-0.03
Mof_H 	H 	0.2249	0.0326	0.4294	0.067
Mof_C 	C 	0.1531	0.052	0.5011	-0.043
Mof_H 	H 	0.2495	0.0882	0.5086	0.074
Mof_C 	C 	0.0259	0.0342	0.53746	0.007
Mof_C 	C 	0.8839	0.982	0.5235	0.088
Mof_C 	C 	0.8731	0.9455	0.4771	-0.089
Mof_H 	H 	0.7753	0.9106	0.469	0.1
Mof_C 	C 	0.2356	0.1678	0.73064	0.356
Mof_C 	C 	0.1767	0.1312	0.68199	-0.072
Mof_C 	C 	0.0122	0.1548	0.66256	-0.033
Mof_H 	H 	0.9367	0.1917	0.6801	0.076
Mof_C 	C 	0.9579	0.1233	0.6162	0.058
Mof_C 	C 	0.0639	0.0682	0.5891	0.037
Mof_C 	C 	0.2285	0.0433	0.6088	-0.085
Mof_H 	H 	0.3018	0.0047	0.5918	0.089
Mof_C 	C 	0.2855	0.0771	0.6555	0.022
Mof_H 	H 	0.3987	0.062	0.6681	0.054
_end
