data_functionalizedCrystal
_audit_creation_method	'EQeq! by Chris Wilmer'
_symmetry_space_group_name_H-M	'P1'
_symmetry_Int_Tables_number	1
_symmetry_cell_setting	triclinic
loop_
_symmetry_equiv_pos_as_xyz
  x,y,z
_cell_length_a	10.837
_cell_length_b	18.131
_cell_length_c	17.561
_cell_angle_alpha	90
_cell_angle_beta	104.301
_cell_angle_gamma	90
loop_
_atom_site_label
_atom_site_type_symbol
_atom_site_fract_x
_atom_site_fract_y
_atom_site_fract_z
_atom_site_charge
Mof_Cu	Cu	0.95558	0.14045	0.62506	0.847
Mof_Cu	Cu	0.55272	0.13269	0.86997	0.848
Mof_N 	N 	0.8457	0.11399	0.70282	-0.21
Mof_N 	N 	0.6782	0.11334	0.80299	-0.215
Mof_C 	C 	0.7223	0.0964	0.6775	0.001
Mof_H 	H 	0.6901	0.0837	0.6238	0.005
Mof_C 	C 	0.6397	0.0961	0.7261	-0.008
Mof_H 	H 	0.553	0.0832	0.7047	0.008
Mof_C 	C 	0.8035	0.12852	0.8291	-0.004
Mof_H 	H 	0.8366	0.1391	0.8833	0.009
Mof_C 	C 	0.8856	0.12924	0.7801	-0.007
Mof_H 	H 	0.9728	0.1408	0.8016	0.009
Mof_N 	N 	0.1339	0.15082	0.69451	-0.22
Mof_N 	N 	0.3777	0.14672	0.79713	-0.218
Mof_C 	C 	0.1783	0.0905	0.7366	-0
Mof_H 	H 	0.1258	0.0479	0.7313	-0
Mof_C 	C 	0.2978	0.0884	0.7875	-0.01
Mof_H 	H 	0.3246	0.0446	0.8167	0.008
Mof_C 	C 	0.3335	0.2062	0.7542	-0.002
Mof_H 	H 	0.3866	0.2484	0.7581	0.002
Mof_C 	C 	0.2122	0.2084	0.7038	0.002
Mof_H 	H 	0.1845	0.2523	0.6753	-0
Mof_N 	N 	0.9823	0.05348	0.55336	-0.214
Mof_C 	C 	0.0742	0.0571	0.5175	0.002
Mof_H 	H 	0.1319	0.0974	0.5286	-0
Mof_C 	C 	0.9094	0.9956	0.5362	0.007
Mof_H 	H 	0.8422	0.9893	0.5616	0.002
Mof_N 	N 	0.8384	0.20841	0.55122	-0.222
Mof_N 	N 	0.6546	0.29429	0.44902	-0.216
Mof_C 	C 	0.7847	0.2672	0.5761	0
Mof_H 	H 	0.809	0.2799	0.6302	0
Mof_C 	C 	0.6948	0.31	0.5254	-0.006
Mof_H 	H 	0.6607	0.3518	0.5456	0.011
Mof_C 	C 	0.7073	0.2346	0.4248	-0.003
Mof_H 	H 	0.6814	0.2209	0.371	0.001
Mof_C 	C 	0.7978	0.1926	0.475	-0.004
Mof_H 	H 	0.8324	0.151	0.4547	0.007
Mof_N 	N 	0.5189	0.05018	0.94356	-0.211
Mof_C 	C 	0.5909	0.98928	0.96112	-0.003
Mof_H 	H 	0.6558	0.9801	0.9346	0.004
Mof_C 	C 	0.5721	0.9395	0.0174	-0.003
Mof_H 	H 	0.625	0.8971	0.0286	0.002
Mof_Cu	Cu	0.04442	0.64045	0.87494	0.847
Mof_Cu	Cu	0.44728	0.63269	0.63003	0.848
Mof_N 	N 	0.1543	0.61399	0.79718	-0.21
Mof_N 	N 	0.3218	0.61334	0.69701	-0.215
Mof_C 	C 	0.2777	0.5964	0.8225	0.001
Mof_H 	H 	0.3099	0.5837	0.8762	0.005
Mof_C 	C 	0.3603	0.5961	0.7739	-0.008
Mof_H 	H 	0.447	0.5832	0.7953	0.008
Mof_C 	C 	0.1965	0.62852	0.6709	-0.004
Mof_H 	H 	0.1634	0.6391	0.6167	0.009
Mof_C 	C 	0.1144	0.62924	0.7199	-0.007
Mof_H 	H 	0.0272	0.6408	0.6984	0.009
Mof_N 	N 	0.8661	0.65082	0.80549	-0.22
Mof_N 	N 	0.6223	0.64672	0.70287	-0.218
Mof_C 	C 	0.8217	0.5905	0.7634	-0
Mof_H 	H 	0.8742	0.5479	0.7687	-0
Mof_C 	C 	0.7022	0.5884	0.7125	-0.01
Mof_H 	H 	0.6754	0.5446	0.6833	0.008
Mof_C 	C 	0.6665	0.7062	0.7458	-0.002
Mof_H 	H 	0.6134	0.7484	0.7419	0.002
Mof_C 	C 	0.7878	0.7084	0.7962	0.002
Mof_H 	H 	0.8155	0.7523	0.8247	0
Mof_N 	N 	0.0177	0.55348	0.94664	-0.213
Mof_C 	C 	0.9258	0.5571	0.9825	0.003
Mof_H 	H 	0.8681	0.5974	0.9714	-0
Mof_C 	C 	0.0906	0.4956	0.9638	0.005
Mof_H 	H 	0.1578	0.4893	0.9384	0.003
Mof_N 	N 	0.1616	0.70841	0.94878	-0.223
Mof_N 	N 	0.3454	0.79429	0.05098	-0.215
Mof_C 	C 	0.2153	0.7672	0.9239	0
Mof_H 	H 	0.191	0.7799	0.8698	-0
Mof_C 	C 	0.3052	0.81	0.9746	-0.007
Mof_H 	H 	0.3393	0.8518	0.9544	0.011
Mof_C 	C 	0.2927	0.7346	0.0752	-0.003
Mof_H 	H 	0.3186	0.7209	0.129	0.001
Mof_C 	C 	0.2022	0.6926	0.025	-0.003
Mof_H 	H 	0.1676	0.651	0.0453	0.007
Mof_N 	N 	0.4811	0.55018	0.55644	-0.211
Mof_C 	C 	0.4091	0.48928	0.53888	-0.002
Mof_H 	H 	0.3442	0.4801	0.5654	0.004
Mof_C 	C 	0.4279	0.4395	0.4826	-0.004
Mof_H 	H 	0.375	0.3971	0.4714	0.003
Mof_Cu	Cu	0.04442	0.85955	0.37494	0.847
Mof_Cu	Cu	0.44728	0.86731	0.13003	0.848
Mof_N 	N 	0.1543	0.88601	0.29718	-0.21
Mof_N 	N 	0.3218	0.88666	0.19701	-0.215
Mof_C 	C 	0.2777	0.9036	0.3225	0.001
Mof_H 	H 	0.3099	0.9163	0.3762	0.005
Mof_C 	C 	0.3603	0.9039	0.2739	-0.008
Mof_H 	H 	0.447	0.9168	0.2953	0.008
Mof_C 	C 	0.1965	0.87148	0.1709	-0.004
Mof_H 	H 	0.1634	0.8609	0.1167	0.009
Mof_C 	C 	0.1144	0.87076	0.2199	-0.007
Mof_H 	H 	0.0272	0.8592	0.1984	0.009
Mof_N 	N 	0.8661	0.84918	0.30549	-0.22
Mof_N 	N 	0.6223	0.85328	0.20287	-0.218
Mof_C 	C 	0.8217	0.9095	0.2634	-0
Mof_H 	H 	0.8742	0.9521	0.2687	-0
Mof_C 	C 	0.7022	0.9116	0.2125	-0.01
Mof_H 	H 	0.6754	0.9554	0.1833	0.008
Mof_C 	C 	0.6665	0.7938	0.2458	-0.002
Mof_H 	H 	0.6134	0.7516	0.2419	0.002
Mof_C 	C 	0.7878	0.7916	0.2962	0.002
Mof_H 	H 	0.8155	0.7477	0.3247	-0
Mof_N 	N 	0.0177	0.94652	0.44664	-0.214
Mof_C 	C 	0.9258	0.9429	0.4825	0.002
Mof_H 	H 	0.8681	0.9026	0.4714	-0
Mof_C 	C 	0.0906	0.0044	0.4638	0.007
Mof_H 	H 	0.1578	0.0107	0.4384	0.002
Mof_N 	N 	0.1616	0.79159	0.44878	-0.222
Mof_N 	N 	0.3454	0.70571	0.55098	-0.216
Mof_C 	C 	0.2153	0.7328	0.4239	0
Mof_H 	H 	0.191	0.7201	0.3698	0
Mof_C 	C 	0.3052	0.69	0.4746	-0.006
Mof_H 	H 	0.3393	0.6482	0.4544	0.011
Mof_C 	C 	0.2927	0.7654	0.5752	-0.003
Mof_H 	H 	0.3186	0.7791	0.629	0.001
Mof_C 	C 	0.2022	0.8074	0.525	-0.004
Mof_H 	H 	0.1676	0.849	0.5453	0.007
Mof_N 	N 	0.4811	0.94982	0.05644	-0.211
Mof_C 	C 	0.4091	0.01072	0.03888	-0.003
Mof_H 	H 	0.3442	0.0199	0.0654	0.004
Mof_C 	C 	0.4279	0.0605	0.9826	-0.003
Mof_H 	H 	0.375	0.1029	0.9714	0.002
Mof_Cu	Cu	0.95558	0.35955	0.12506	0.847
Mof_Cu	Cu	0.55272	0.36731	0.36997	0.848
Mof_N 	N 	0.8457	0.38601	0.20282	-0.21
Mof_N 	N 	0.6782	0.38666	0.30299	-0.215
Mof_C 	C 	0.7223	0.4036	0.1775	0.001
Mof_H 	H 	0.6901	0.4163	0.1238	0.005
Mof_C 	C 	0.6397	0.4039	0.2261	-0.008
Mof_H 	H 	0.553	0.4168	0.2047	0.008
Mof_C 	C 	0.8035	0.37148	0.3291	-0.004
Mof_H 	H 	0.8366	0.3609	0.3833	0.009
Mof_C 	C 	0.8856	0.37076	0.2801	-0.007
Mof_H 	H 	0.9728	0.3592	0.3016	0.009
Mof_N 	N 	0.1339	0.34918	0.19451	-0.22
Mof_N 	N 	0.3777	0.35328	0.29713	-0.218
Mof_C 	C 	0.1783	0.4095	0.2366	-0
Mof_H 	H 	0.1258	0.4521	0.2313	-0
Mof_C 	C 	0.2978	0.4116	0.2875	-0.01
Mof_H 	H 	0.3246	0.4554	0.3167	0.008
Mof_C 	C 	0.3335	0.2938	0.2542	-0.002
Mof_H 	H 	0.3866	0.2516	0.2581	0.002
Mof_C 	C 	0.2122	0.2916	0.2038	0.002
Mof_H 	H 	0.1845	0.2477	0.1753	0
Mof_N 	N 	0.9823	0.44652	0.05336	-0.213
Mof_C 	C 	0.0742	0.4429	0.0175	0.003
Mof_H 	H 	0.1319	0.4026	0.0286	-0
Mof_C 	C 	0.9094	0.5044	0.0362	0.005
Mof_H 	H 	0.8422	0.5107	0.0616	0.003
Mof_N 	N 	0.8384	0.29159	0.05122	-0.223
Mof_N 	N 	0.6546	0.20571	0.94902	-0.215
Mof_C 	C 	0.7847	0.2328	0.0761	0
Mof_H 	H 	0.809	0.2201	0.1302	-0
Mof_C 	C 	0.6948	0.19	0.0254	-0.007
Mof_H 	H 	0.6607	0.1482	0.0456	0.011
Mof_C 	C 	0.7073	0.2654	0.9248	-0.003
Mof_H 	H 	0.6814	0.2791	0.871	0.001
Mof_C 	C 	0.7978	0.3074	0.975	-0.003
Mof_H 	H 	0.8324	0.349	0.9547	0.007
Mof_N 	N 	0.5189	0.44982	0.44356	-0.211
Mof_C 	C 	0.5909	0.51072	0.46112	-0.002
Mof_H 	H 	0.6558	0.5199	0.4346	0.004
Mof_C 	C 	0.5721	0.5605	0.5174	-0.004
Mof_H 	H 	0.625	0.6029	0.5286	0.003
_end
