data_functionalizedCrystal
_audit_creation_method	'EQeq! by Chris Wilmer'
_symmetry_space_group_name_H-M	'P1'
_symmetry_Int_Tables_number	1
_symmetry_cell_setting	triclinic
loop_
_symmetry_equiv_pos_as_xyz
  x,y,z
_cell_length_a	10.1645
_cell_length_b	10.7048
_cell_length_c	6.2049
_cell_angle_alpha	90
_cell_angle_beta	114.277
_cell_angle_gamma	90
loop_
_atom_site_label
_atom_site_type_symbol
_atom_site_fract_x
_atom_site_fract_y
_atom_site_fract_z
_atom_site_charge
Mof_C 	C 	0.318	0.2113	0.544	-0.061
Mof_H 	H 	0.401	0.2658	0.5652	0.016
Mof_H 	H 	0.3344	0.1755	0.7001	-0.002
Mof_N 	N 	0.3105	0.1088	0.3797	-0.262
Mof_H 	H 	0.2948	0.1422	0.2345	0.053
Mof_H 	H 	0.2333	0.0582	0.3603	0.047
Mof_C 	C 	0.818	0.7113	0.544	-0.063
Mof_H 	H 	0.901	0.7658	0.5652	0.042
Mof_H 	H 	0.8344	0.6755	0.7001	0.023
Mof_N 	N 	0.8105	0.6088	0.3797	-0.255
Mof_H 	H 	0.7948	0.6422	0.2345	0.077
Mof_H 	H 	0.7333	0.5582	0.3603	0.077
Mof_C 	C 	0.682	0.2113	0.956	0.023
Mof_H 	H 	0.599	0.2658	0.9348	-0.003
Mof_H 	H 	0.6656	0.1755	0.7999	-0.024
Mof_N 	N 	0.6895	0.1088	0.1203	-0.283
Mof_H 	H 	0.7052	0.1422	0.2655	0.069
Mof_H 	H 	0.7667	0.0582	0.1397	0.065
Mof_C 	C 	0.182	0.7113	0.956	0.027
Mof_H 	H 	0.099	0.7658	0.9348	-0.015
Mof_H 	H 	0.1656	0.6755	0.7999	-0.027
Mof_N 	N 	0.1895	0.6088	0.1203	-0.286
Mof_H 	H 	0.2052	0.6422	0.2655	0.07
Mof_H 	H 	0.2667	0.5582	0.1397	0.074
Mof_C 	C 	0.682	0.7887	0.456	-0.027
Mof_H 	H 	0.599	0.7342	0.4348	0.008
Mof_H 	H 	0.6656	0.8245	0.2999	0.005
Mof_N 	N 	0.6895	0.8912	0.6203	-0.269
Mof_H 	H 	0.7052	0.8578	0.7655	0.095
Mof_H 	H 	0.7667	0.9418	0.6397	0.11
Mof_C 	C 	0.182	0.2887	0.456	-0.024
Mof_H 	H 	0.099	0.2342	0.4348	-0.019
Mof_H 	H 	0.1656	0.3245	0.2999	-0.02
Mof_N 	N 	0.1895	0.3912	0.6203	-0.277
Mof_H 	H 	0.2052	0.3578	0.7655	0.072
Mof_H 	H 	0.2667	0.4418	0.6397	0.08
Mof_C 	C 	0.318	0.7887	0.044	-0.111
Mof_H 	H 	0.401	0.7342	0.0652	0.027
Mof_H 	H 	0.3344	0.8245	0.2001	0.024
Mof_N 	N 	0.3105	0.8912	0.8797	-0.238
Mof_H 	H 	0.2948	0.8578	0.7345	0.078
Mof_H 	H 	0.2333	0.9418	0.8603	0.091
Mof_C 	C 	0.818	0.2887	0.044	-0.114
Mof_H 	H 	0.901	0.2342	0.0652	0.039
Mof_H 	H 	0.8344	0.3245	0.2001	0.027
Mof_N 	N 	0.8105	0.3912	0.8797	-0.236
Mof_H 	H 	0.7948	0.3578	0.7345	0.076
Mof_H 	H 	0.7333	0.4418	0.8603	0.082
Mof_Ag	Ag	0.5	0	0.5	0.309
Mof_Ag	Ag	1.61493e-33	0.5	0.5	0.311
Mof_Ag	Ag	0.5	0	-0	0.258
Mof_Ag	Ag	-0	0.5	-0	0.261
_end
