data_functionalizedCrystal
_audit_creation_method	'EQeq! by Chris Wilmer'
_symmetry_space_group_name_H-M	'P1'
_symmetry_Int_Tables_number	1
_symmetry_cell_setting	triclinic
loop_
_symmetry_equiv_pos_as_xyz
  x,y,z
_cell_length_a	9.4592
_cell_length_b	41.254
_cell_length_c	18.4138
_cell_angle_alpha	98.645
_cell_angle_beta	90
_cell_angle_gamma	90
loop_
_atom_site_label
_atom_site_type_symbol
_atom_site_fract_x
_atom_site_fract_y
_atom_site_fract_z
_atom_site_charge
Mof_Zn	Zn	0.45639	0.57981	0.5295	1.22
Mof_Zn	Zn	0.04269	0.92025	0.46925	1.213
Mof_Zn	Zn	0.95639	0.42019	0.9705	1.234
Mof_Zn	Zn	0.54269	0.07975	0.03075	1.212
Mof_Zn	Zn	0.54361	0.42019	0.4705	1.221
Mof_Zn	Zn	0.95731	0.07975	0.53075	1.229
Mof_Zn	Zn	0.04361	0.57981	0.0295	1.203
Mof_Zn	Zn	0.45731	0.92025	0.96925	1.232
Mof_Zn	Zn	0.5	0.5	0.5	1.244
Mof_Zn	Zn	-0	0.5	-0	1.225
Mof_Zn	Zn	1.42138e-32	0	0.5	1.233
Mof_Zn	Zn	0.5	0	-0	1.23
Mof_Cu	Cu	0.19145	0.74992	0.53204	0.898
Mof_Cu	Cu	0.69145	0.25008	0.96796	0.912
Mof_Cu	Cu	0.80855	0.25008	0.46796	0.899
Mof_Cu	Cu	0.30855	0.74992	0.03204	0.883
Mof_H 	H 	0.7428	0.5991	0.362	0.047
Mof_H 	H 	0.8432	0.6016	0.2476	0.047
Mof_H 	H 	0.8516	0.5032	0.2072	0.052
Mof_H 	H 	0.7517	0.5006	0.3208	0.055
Mof_H 	H 	0.194	0.4972	0.4166	0.069
Mof_H 	H 	0.001	0.54	0.5982	0.085
Mof_H 	H 	0.8363	0.901	0.2622	0.057
Mof_H 	H 	0.7354	0.9005	0.1462	0.038
Mof_H 	H 	0.7502	0.9991	0.1727	0.051
Mof_H 	H 	0.859	0.9995	0.2859	0.064
Mof_H 	H 	0.5144	0.6251	0.4241	0.03
Mof_H 	H 	0.262	0.6299	0.583	0.003
Mof_H 	H 	0.5499	0.6643	0.3484	0.138
Mof_H 	H 	0.5442	0.7008	0.3923	0.145
Mof_H 	H 	0.4136	0.6866	0.342	0.144
Mof_H 	H 	0.1769	0.6855	0.6505	0.023
Mof_H 	H 	0.9051	0.7304	0.616	0.061
Mof_H 	H 	0.0022	0.7227	0.682	0.038
Mof_H 	H 	0.0775	0.772	0.7064	0.05
Mof_H 	H 	0.9231	0.7785	0.6747	0.08
Mof_H 	H 	0.014	0.8254	0.6279	0.005
Mof_H 	H 	0.029	0.8694	0.5715	0
Mof_H 	H 	0.214	0.8669	0.3654	0.025
Mof_H 	H 	0.3202	0.8233	0.3079	0.136
Mof_H 	H 	0.2522	0.7893	0.322	0.14
Mof_H 	H 	0.3964	0.8019	0.3621	0.148
Mof_H 	H 	0.2428	0.4009	0.138	0.041
Mof_H 	H 	0.3432	0.3984	0.2524	0.043
Mof_H 	H 	0.3516	0.4968	0.2928	0.047
Mof_H 	H 	0.2517	0.4994	0.1792	0.05
Mof_H 	H 	0.694	0.5028	0.0834	0.072
Mof_H 	H 	0.501	0.46	0.9018	0.088
Mof_H 	H 	0.3363	0.099	0.2378	0.05
Mof_H 	H 	0.2354	0.0995	0.3538	0.036
Mof_H 	H 	0.2502	0.0009	0.3273	0.044
Mof_H 	H 	0.359	0.0005	0.2141	0.054
Mof_H 	H 	0.0144	0.3749	0.0759	0.003
Mof_H 	H 	0.762	0.3701	0.917	0.012
Mof_H 	H 	0.0499	0.3357	0.1516	0.078
Mof_H 	H 	0.0442	0.2992	0.1077	0.079
Mof_H 	H 	0.9136	0.3134	0.158	0.104
Mof_H 	H 	0.6769	0.3145	0.8495	0.029
Mof_H 	H 	0.4051	0.2696	0.884	0.039
Mof_H 	H 	0.5022	0.2773	0.818	0.038
Mof_H 	H 	0.5775	0.228	0.7936	0.042
Mof_H 	H 	0.4231	0.2215	0.8253	0.05
Mof_H 	H 	0.514	0.1746	0.8721	0.012
Mof_H 	H 	0.529	0.1306	0.9285	0.003
Mof_H 	H 	0.714	0.1331	0.1346	0.03
Mof_H 	H 	0.8202	0.1767	0.1921	0.144
Mof_H 	H 	0.7522	0.2107	0.178	0.149
Mof_H 	H 	0.8964	0.1981	0.1379	0.154
Mof_H 	H 	0.2572	0.4009	0.638	0.044
Mof_H 	H 	0.1568	0.3984	0.7524	0.043
Mof_H 	H 	0.1484	0.4968	0.7928	0.047
Mof_H 	H 	0.2483	0.4994	0.6792	0.054
Mof_H 	H 	0.806	0.5028	0.5834	0.028
Mof_H 	H 	0.999	0.46	0.4018	0.032
Mof_H 	H 	0.1637	0.099	0.7378	0.049
Mof_H 	H 	0.2646	0.0995	0.8538	0.043
Mof_H 	H 	0.2498	0.0009	0.8273	0.049
Mof_H 	H 	0.141	0.0005	0.7141	0.05
Mof_H 	H 	0.4856	0.3749	0.5759	0.03
Mof_H 	H 	0.738	0.3701	0.417	0.009
Mof_H 	H 	0.4501	0.3357	0.6516	0.137
Mof_H 	H 	0.4558	0.2992	0.6077	0.141
Mof_H 	H 	0.5864	0.3134	0.658	0.147
Mof_H 	H 	0.8231	0.3145	0.3495	0.028
Mof_H 	H 	0.0949	0.2696	0.384	0.067
Mof_H 	H 	0.9978	0.2773	0.318	0.087
Mof_H 	H 	0.9225	0.228	0.2936	0.009
Mof_H 	H 	0.0769	0.2215	0.3253	0
Mof_H 	H 	0.986	0.1746	0.3721	0.011
Mof_H 	H 	0.971	0.1306	0.4285	0.011
Mof_H 	H 	0.786	0.1331	0.6346	0.031
Mof_H 	H 	0.6798	0.1767	0.6921	0.142
Mof_H 	H 	0.7478	0.2107	0.678	0.149
Mof_H 	H 	0.6036	0.1981	0.6379	0.149
Mof_H 	H 	0.7572	0.5991	0.862	0.05
Mof_H 	H 	0.6568	0.6016	0.7476	0.045
Mof_H 	H 	0.6484	0.5032	0.7072	0.049
Mof_H 	H 	0.7483	0.5006	0.8208	0.058
Mof_H 	H 	0.306	0.4972	0.9166	0.026
Mof_H 	H 	0.499	0.54	0.0982	0.03
Mof_H 	H 	0.6637	0.901	0.7622	0.056
Mof_H 	H 	0.7646	0.9005	0.6462	0.045
Mof_H 	H 	0.7498	0.9991	0.6727	0.056
Mof_H 	H 	0.641	0.9995	0.7859	0.059
Mof_H 	H 	0.9856	0.6251	0.9241	0.055
Mof_H 	H 	0.238	0.6299	0.083	-0.002
Mof_H 	H 	0.9501	0.6643	0.8484	0.203
Mof_H 	H 	0.9558	0.7008	0.8923	0.212
Mof_H 	H 	0.0864	0.6866	0.842	0.191
Mof_H 	H 	0.3231	0.6855	0.1505	0.018
Mof_H 	H 	0.5949	0.7304	0.116	0.033
Mof_H 	H 	0.4978	0.7227	0.182	0.036
Mof_H 	H 	0.4225	0.772	0.2064	0.041
Mof_H 	H 	0.5769	0.7785	0.1747	0.052
Mof_H 	H 	0.486	0.8254	0.1279	0.006
Mof_H 	H 	0.471	0.8694	0.0715	0.01
Mof_H 	H 	0.286	0.8669	0.8654	0.027
Mof_H 	H 	0.1798	0.8233	0.8079	0.135
Mof_H 	H 	0.2478	0.7893	0.822	0.142
Mof_H 	H 	0.1036	0.8019	0.8621	0.143
Mof_C 	C 	0.6527	0.54801	0.41962	0.384
Mof_C 	C 	0.7323	0.54939	0.34922	-0.077
Mof_C 	C 	0.7632	0.5795	0.32954	-0.017
Mof_C 	C 	0.8245	0.58086	0.262	-0.009
Mof_C 	C 	0.859	0.55268	0.21485	-0.083
Mof_C 	C 	0.8291	0.52297	0.2385	-0.011
Mof_C 	C 	0.7683	0.52125	0.30544	-0.014
Mof_C 	C 	0.9217	0.55296	0.13984	0.393
Mof_C 	C 	0.2345	0.54501	0.52935	0.303
Mof_C 	C 	0.1138	0.52176	0.51451	-0.014
Mof_C 	C 	0.11	0.49789	0.45132	-0.089
Mof_C 	C 	0.0019	0.52296	0.5614	-0.118
Mof_C 	C 	0.9181	0.95097	0.35909	0.363
Mof_C 	C 	0.8562	0.9509	0.28394	-0.058
Mof_C 	C 	0.8196	0.9209	0.2436	-0.034
Mof_C 	C 	0.7578	0.92087	0.1753	0.01
Mof_C 	C 	0.7282	0.94943	0.14849	-0.103
Mof_C 	C 	0.7676	0.97905	0.19054	0.006
Mof_C 	C 	0.8317	0.97925	0.25772	-0.026
Mof_C 	C 	0.6477	0.94934	0.07902	0.409
Mof_C 	C 	0.2672	0.95666	0.4653	0.34
Mof_C 	C 	0.3888	0.97961	0.48303	-0.09
Mof_C 	C 	0.3842	0.00072	0.54909	0.017
Mof_C 	C 	0.4996	0.97835	0.4337	0.031
Mof_C 	C 	0.45	0.63775	0.4563	-0.016
Mof_C 	C 	0.4199	0.66786	0.4428	0.032
Mof_C 	C 	0.3309	0.68871	0.487	0.128
Mof_C 	C 	0.2676	0.67413	0.5459	-0.092
Mof_C 	C 	0.3081	0.6427	0.556	0.047
Mof_C 	C 	0.4884	0.68115	0.375	-0.393
Mof_C 	C 	0.1806	0.69187	0.6031	0.001
Mof_C 	C 	-2.30974e-32	0.73408	0.6383	-0.076
Mof_C 	C 	0.016	0.76801	0.6625	-0.132
Mof_C 	C 	0.059	0.8111	0.5887	0.053
Mof_C 	C 	0.1091	0.82509	0.5254	-0.122
Mof_C 	C 	0.0751	0.85871	0.5236	0.05
Mof_C 	C 	0.182	0.8586	0.4123	-0.02
Mof_C 	C 	0.2208	0.8266	0.4088	0.035
Mof_C 	C 	0.1888	0.80823	0.4669	0.15
Mof_C 	C 	0.3049	0.80865	0.3444	-0.402
Mof_C 	C 	0.1527	0.45199	0.08038	0.385
Mof_C 	C 	0.2323	0.45061	0.15078	-0.085
Mof_C 	C 	0.2632	0.4205	0.17046	-0.019
Mof_C 	C 	0.3245	0.41914	0.238	-0.012
Mof_C 	C 	0.359	0.44732	0.28515	-0.088
Mof_C 	C 	0.3291	0.47703	0.2615	-0.014
Mof_C 	C 	0.2683	0.47875	0.19456	-0.015
Mof_C 	C 	0.4217	0.44704	0.36016	0.394
Mof_C 	C 	0.7345	0.45499	0.97065	0.333
Mof_C 	C 	0.6138	0.47824	0.98549	0.012
Mof_C 	C 	0.61	0.50211	0.04868	-0.101
Mof_C 	C 	0.5019	0.47704	0.9386	-0.101
Mof_C 	C 	0.4181	0.04903	0.14091	0.365
Mof_C 	C 	0.3562	0.0491	0.21606	-0.069
Mof_C 	C 	0.3196	0.0791	0.2564	-0.033
Mof_C 	C 	0.2578	0.07913	0.3247	0.004
Mof_C 	C 	0.2282	0.05057	0.35151	-0.104
Mof_C 	C 	0.2676	0.02095	0.30946	-0.001
Mof_C 	C 	0.3317	0.02075	0.24228	-0.026
Mof_C 	C 	0.1477	0.05066	0.42098	0.406
Mof_C 	C 	0.7672	0.04334	0.0347	0.323
Mof_C 	C 	0.8888	0.02039	0.01697	-0.167
Mof_C 	C 	0.8842	0.99928	0.95091	0.112
Mof_C 	C 	0.9996	0.02165	0.0663	0.096
Mof_C 	C 	0.95	0.36225	0.0437	0.008
Mof_C 	C 	0.9199	0.33214	0.0572	-0.005
Mof_C 	C 	0.8309	0.31129	0.013	0.11
Mof_C 	C 	0.7676	0.32587	0.9541	-0.055
Mof_C 	C 	0.8081	0.3573	0.944	0.041
Mof_C 	C 	0.9884	0.31885	0.125	-0.237
Mof_C 	C 	0.6806	0.30813	0.8969	-0.002
Mof_C 	C 	0.5	0.26592	0.8617	-0.051
Mof_C 	C 	0.516	0.23199	0.8375	-0.095
Mof_C 	C 	0.559	0.1889	0.9113	0.052
Mof_C 	C 	0.6091	0.17491	0.9746	-0.088
Mof_C 	C 	0.5751	0.14129	0.9764	0.079
Mof_C 	C 	0.682	0.1414	0.0877	-0.028
Mof_C 	C 	0.7208	0.1734	0.0912	0.048
Mof_C 	C 	0.6888	0.19177	0.0331	0.113
Mof_C 	C 	0.8049	0.19135	0.1556	-0.418
Mof_C 	C 	0.3473	0.45199	0.58038	0.383
Mof_C 	C 	0.2677	0.45061	0.65078	-0.078
Mof_C 	C 	0.2368	0.4205	0.67046	-0.021
Mof_C 	C 	0.1755	0.41914	0.738	-0.009
Mof_C 	C 	0.141	0.44732	0.78515	-0.089
Mof_C 	C 	0.1709	0.47703	0.7615	-0.011
Mof_C 	C 	0.2317	0.47875	0.69456	-0.018
Mof_C 	C 	0.0783	0.44704	0.86016	0.393
Mof_C 	C 	0.7655	0.45499	0.47065	0.347
Mof_C 	C 	0.8862	0.47824	0.48549	-0.124
Mof_C 	C 	0.89	0.50211	0.54868	0.074
Mof_C 	C 	0.9981	0.47704	0.4386	0.068
Mof_C 	C 	0.0819	0.04903	0.64091	0.368
Mof_C 	C 	0.1438	0.0491	0.71606	-0.074
Mof_C 	C 	0.1804	0.0791	0.7564	-0.026
Mof_C 	C 	0.2422	0.07913	0.8247	-0.001
Mof_C 	C 	0.2718	0.05057	0.85151	-0.093
Mof_C 	C 	0.2324	0.02095	0.80946	-0.007
Mof_C 	C 	0.1683	0.02075	0.74228	-0.019
Mof_C 	C 	0.3523	0.05066	0.92098	0.4
Mof_C 	C 	0.7328	0.04334	0.5347	0.341
Mof_C 	C 	0.6112	0.02039	0.51697	-0.11
Mof_C 	C 	0.6158	0.99928	0.45091	0.038
Mof_C 	C 	0.5004	0.02165	0.5663	0.039
Mof_C 	C 	0.55	0.36225	0.5437	-0.017
Mof_C 	C 	0.5801	0.33214	0.5572	0.033
Mof_C 	C 	0.6691	0.31129	0.513	0.126
Mof_C 	C 	0.7324	0.32587	0.4541	-0.085
Mof_C 	C 	0.6919	0.3573	0.444	0.043
Mof_C 	C 	0.5116	0.31885	0.625	-0.392
Mof_C 	C 	0.8194	0.30813	0.3969	-0.003
Mof_C 	C 	1.51021e-32	0.26592	0.3617	-0.183
Mof_C 	C 	0.984	0.23199	0.3375	0.022
Mof_C 	C 	0.941	0.1889	0.4113	0.063
Mof_C 	C 	0.8909	0.17491	0.4746	-0.121
Mof_C 	C 	0.9249	0.14129	0.4764	0.055
Mof_C 	C 	0.818	0.1414	0.5877	-0.017
Mof_C 	C 	0.7792	0.1734	0.5912	0.041
Mof_C 	C 	0.8112	0.19177	0.5331	0.151
Mof_C 	C 	0.6951	0.19135	0.6556	-0.41
Mof_C 	C 	0.8473	0.54801	0.91962	0.38
Mof_C 	C 	0.7677	0.54939	0.84922	-0.069
Mof_C 	C 	0.7368	0.5795	0.82954	-0.022
Mof_C 	C 	0.6755	0.58086	0.762	-0.004
Mof_C 	C 	0.641	0.55268	0.71485	-0.088
Mof_C 	C 	0.6709	0.52297	0.7385	-0.006
Mof_C 	C 	0.7317	0.52125	0.80544	-0.019
Mof_C 	C 	0.5783	0.55296	0.63984	0.396
Mof_C 	C 	0.2655	0.54501	0.02935	0.31
Mof_C 	C 	0.3862	0.52176	0.01451	-0.148
Mof_C 	C 	0.39	0.49789	0.95132	0.088
Mof_C 	C 	0.4981	0.52296	0.0614	0.05
Mof_C 	C 	0.5819	0.95097	0.85909	0.366
Mof_C 	C 	0.6438	0.9509	0.78394	-0.065
Mof_C 	C 	0.6804	0.9209	0.7436	-0.027
Mof_C 	C 	0.7422	0.92087	0.6753	0.003
Mof_C 	C 	0.7718	0.94943	0.64849	-0.092
Mof_C 	C 	0.7324	0.97905	0.69054	-0
Mof_C 	C 	0.6683	0.97925	0.75772	-0.02
Mof_C 	C 	0.8523	0.94934	0.57902	0.403
Mof_C 	C 	0.2328	0.95666	0.9653	0.359
Mof_C 	C 	0.1112	0.97961	0.98303	-0.027
Mof_C 	C 	0.1158	0.00072	0.04909	-0.067
Mof_C 	C 	0.0004	0.97835	0.9337	-0.02
Mof_C 	C 	0.05	0.63775	0.9563	-0.033
Mof_C 	C 	0.0801	0.66786	0.9428	0.069
Mof_C 	C 	0.1691	0.68871	0.987	0.152
Mof_C 	C 	0.2324	0.67413	0.0459	-0.131
Mof_C 	C 	0.1919	0.6427	0.056	0.052
Mof_C 	C 	0.0116	0.68115	0.875	-0.565
Mof_C 	C 	0.3194	0.69187	0.1031	0.011
Mof_C 	C 	0.5	0.73408	0.1383	-0.048
Mof_C 	C 	0.484	0.76801	0.1625	-0.099
Mof_C 	C 	0.441	0.8111	0.0887	0.063
Mof_C 	C 	0.3909	0.82509	0.0254	-0.157
Mof_C 	C 	0.4249	0.85871	0.0236	0.026
Mof_C 	C 	0.318	0.8586	0.9123	-0.008
Mof_C 	C 	0.2792	0.8266	0.9088	0.029
Mof_C 	C 	0.3112	0.80823	0.9669	0.192
Mof_C 	C 	0.1951	0.80865	0.8444	-0.394
Mof_N 	N 	0.397	0.62412	0.51142	-0.25
Mof_N 	N 	0.1098	0.87456	0.4699	-0.255
Mof_N 	N 	0.1017	0.71867	0.5867	-0.208
Mof_N 	N 	0.086	0.78186	0.59589	-0.223
Mof_N 	N 	0.897	0.37588	0.98858	-0.233
Mof_N 	N 	0.6098	0.12544	0.0301	-0.27
Mof_N 	N 	0.6017	0.28133	0.9133	-0.202
Mof_N 	N 	0.586	0.21814	0.90411	-0.22
Mof_N 	N 	0.603	0.37588	0.48858	-0.249
Mof_N 	N 	0.8902	0.12544	0.5301	-0.248
Mof_N 	N 	0.8983	0.28133	0.4133	-0.184
Mof_N 	N 	0.914	0.21814	0.40411	-0.235
Mof_N 	N 	0.103	0.62412	0.01142	-0.272
Mof_N 	N 	0.3902	0.87456	0.9699	-0.231
Mof_N 	N 	0.3983	0.71867	0.0867	-0.215
Mof_N 	N 	0.414	0.78186	0.09589	-0.232
Mof_O 	O 	0.6086	0.57432	0.4542	-0.475
Mof_O 	O 	0.6365	0.51953	0.4377	-0.452
Mof_O 	O 	0.9309	0.52685	0.09878	-0.465
Mof_O 	O 	0.9556	0.581	0.12487	-0.469
Mof_O 	O 	0.3472	0.53917	0.49037	-0.538
Mof_O 	O 	0.2245	0.56949	0.57666	-0.354
Mof_O 	O 	0.9417	0.92335	0.37992	-0.463
Mof_O 	O 	0.9431	0.97877	0.39597	-0.426
Mof_O 	O 	0.6424	0.97539	0.05229	-0.47
Mof_O 	O 	0.592	0.92285	0.05118	-0.494
Mof_O 	O 	0.1539	0.96054	0.5051	-0.548
Mof_O 	O 	0.2752	0.93313	0.41545	-0.349
Mof_O 	O 	0.3008	0.7175	0.47069	-0.35
Mof_O 	O 	0.2298	0.77852	0.46312	-0.365
Mof_O 	O 	0.1086	0.42568	0.0458	-0.498
Mof_O 	O 	0.1365	0.48047	0.0623	-0.468
Mof_O 	O 	0.4309	0.47315	0.40122	-0.47
Mof_O 	O 	0.4556	0.419	0.37513	-0.478
Mof_O 	O 	0.8472	0.46083	0.00963	-0.561
Mof_O 	O 	0.7245	0.43051	0.92334	-0.351
Mof_O 	O 	0.4417	0.07665	0.12008	-0.485
Mof_O 	O 	0.4431	0.02123	0.10403	-0.449
Mof_O 	O 	0.1424	0.02461	0.44771	-0.471
Mof_O 	O 	0.092	0.07715	0.44882	-0.493
Mof_O 	O 	0.6539	0.03946	0.9949	-0.513
Mof_O 	O 	0.7752	0.06687	0.08455	-0.345
Mof_O 	O 	0.8008	0.2825	0.02931	-0.356
Mof_O 	O 	0.7298	0.22148	0.03688	-0.367
Mof_O 	O 	0.3914	0.42568	0.5458	-0.477
Mof_O 	O 	0.3635	0.48047	0.5623	-0.453
Mof_O 	O 	0.0691	0.47315	0.90122	-0.463
Mof_O 	O 	0.0444	0.419	0.87513	-0.478
Mof_O 	O 	0.6528	0.46083	0.50963	-0.546
Mof_O 	O 	0.7755	0.43051	0.42334	-0.359
Mof_O 	O 	0.0583	0.07665	0.62008	-0.486
Mof_O 	O 	0.0569	0.02123	0.60403	-0.451
Mof_O 	O 	0.3576	0.02461	0.94771	-0.45
Mof_O 	O 	0.408	0.07715	0.94882	-0.469
Mof_O 	O 	0.8461	0.03946	0.4949	-0.538
Mof_O 	O 	0.7248	0.06687	0.58455	-0.344
Mof_O 	O 	0.6992	0.2825	0.52931	-0.348
Mof_O 	O 	0.7702	0.22148	0.53688	-0.363
Mof_O 	O 	0.8914	0.57432	0.9542	-0.453
Mof_O 	O 	0.8635	0.51953	0.9377	-0.432
Mof_O 	O 	0.5691	0.52685	0.59878	-0.467
Mof_O 	O 	0.5444	0.581	0.62487	-0.476
Mof_O 	O 	0.1528	0.53917	0.99037	-0.511
Mof_O 	O 	0.2755	0.56949	0.07666	-0.361
Mof_O 	O 	0.5583	0.92335	0.87992	-0.467
Mof_O 	O 	0.5569	0.97877	0.89597	-0.43
Mof_O 	O 	0.8576	0.97539	0.55229	-0.451
Mof_O 	O 	0.908	0.92285	0.55118	-0.467
Mof_O 	O 	0.3461	0.96054	0.0051	-0.574
Mof_O 	O 	0.2248	0.93313	0.91545	-0.347
Mof_O 	O 	0.1992	0.7175	0.97069	-0.342
Mof_O 	O 	0.2702	0.77852	0.96312	-0.36
_end
