data_functionalizedCrystal
_audit_creation_method	'EQeq! by Chris Wilmer'
_symmetry_space_group_name_H-M	'P1'
_symmetry_Int_Tables_number	1
_symmetry_cell_setting	triclinic
loop_
_symmetry_equiv_pos_as_xyz
  x,y,z
_cell_length_a	9.8417
_cell_length_b	10.6202
_cell_length_c	10.6202
_cell_angle_alpha	120
_cell_angle_beta	90
_cell_angle_gamma	90
loop_
_atom_site_label
_atom_site_type_symbol
_atom_site_fract_x
_atom_site_fract_y
_atom_site_fract_z
_atom_site_charge
Mof_Sr	Sr	0.5001	0.6883	0.45365	1.434
Mof_Sr	Sr	0.16677	0.76535	0.3117	1.416
Mof_Sr	Sr	0.83343	0.54635	0.23465	1.338
Mof_H 	H 	0.2309	0.4504	0.9845	0.056
Mof_H 	H 	0.1618	0.2508	0.7703	0.044
Mof_H 	H 	0.5272	0.0697	0.7279	0.003
Mof_H 	H 	0.5955	0.2693	0.9426	0.041
Mof_H 	H 	0.89757	0.5341	0.5496	0.012
Mof_H 	H 	0.82847	0.5195	0.7492	0.081
Mof_H 	H 	0.19387	0.6582	0.9303	0.042
Mof_H 	H 	0.26217	0.6733	0.7307	-0.008
Mof_H 	H 	0.56423	0.0155	0.4659	0.048
Mof_H 	H 	0.49513	0.2297	0.4805	0.039
Mof_H 	H 	0.86053	0.2721	0.3418	-0.013
Mof_H 	H 	0.92883	0.0574	0.3267	0.013
Mof_C 	C 	0.4618	0.5104	0.1291	0.342
Mof_C 	C 	0.4188	0.3807	0.9857	-0.041
Mof_C 	C 	0.291	0.3738	0.9332	-0.052
Mof_C 	C 	0.2494	0.2541	0.8044	0.014
Mof_C 	C 	0.3378	0.1387	0.7256	-0.132
Mof_C 	C 	0.2882	0.0094	0.5874	0.43
Mof_C 	C 	0.4669	0.1461	0.7791	0.027
Mof_C 	C 	0.508	0.2657	0.9079	-0.054
Mof_C 	C 	0.12847	0.6187	0.4896	0.407
Mof_C 	C 	0.08547	0.605	0.6193	-0.106
Mof_C 	C 	0.95767	0.5594	0.6262	-0.016
Mof_C 	C 	0.91607	0.5503	0.7459	-0.15
Mof_C 	C 	0.00447	0.5869	0.8613	0.05
Mof_C 	C 	0.95487	0.578	0.9906	0.275
Mof_C 	C 	0.13357	0.633	0.8539	-0.096
Mof_C 	C 	0.17467	0.6422	0.7343	0.036
Mof_C 	C 	0.79513	0.8709	0.3813	0.354
Mof_C 	C 	0.75213	0.0143	0.395	-0.068
Mof_C 	C 	0.62433	0.0668	0.4406	-0.041
Mof_C 	C 	0.58273	0.1956	0.4497	-0.009
Mof_C 	C 	0.67113	0.2744	0.4131	-0.118
Mof_C 	C 	0.62153	0.4126	0.422	0.36
Mof_C 	C 	0.80023	0.2209	0.367	-0.002
Mof_C 	C 	0.84133	0.0921	0.3578	-0.042
Mof_O 	O 	0.3749	0.6076	0.2005	-0.536
Mof_O 	O 	0.5794	0.5145	0.1738	-0.51
Mof_O 	O 	0.1664	0.0038	0.5536	-0.395
Mof_O 	O 	0.3735	0.9135	0.507	-0.573
Mof_O 	O 	0.04157	0.5929	0.3924	-0.504
Mof_O 	O 	0.24607	0.6593	0.4855	-0.516
Mof_O 	O 	0.83307	0.5498	0.9962	-0.376
Mof_O 	O 	0.04017	0.5935	0.0865	-0.495
Mof_O 	O 	0.70823	0.7995	0.4071	-0.537
Mof_O 	O 	0.91273	0.8262	0.3407	-0.541
Mof_O 	O 	0.49973	0.4464	0.4502	-0.419
Mof_O 	O 	0.70683	0.493	0.4065	-0.512
_end
