data_functionalizedCrystal
_audit_creation_method	'EQeq! by Chris Wilmer'
_symmetry_space_group_name_H-M	'P1'
_symmetry_Int_Tables_number	1
_symmetry_cell_setting	triclinic
loop_
_symmetry_equiv_pos_as_xyz
  x,y,z
_cell_length_a	32.365
_cell_length_b	32.365
_cell_length_c	32.365
_cell_angle_alpha	90
_cell_angle_beta	90
_cell_angle_gamma	90
loop_
_atom_site_label
_atom_site_type_symbol
_atom_site_fract_x
_atom_site_fract_y
_atom_site_fract_z
_atom_site_charge
Mof_Cu	Cu	0.45958	0.25	0.75	0.912
Mof_Cu	Cu	0.04042	0.25	0.75	0.912
Mof_Cu	Cu	0.75	0.45958	0.25	0.912
Mof_Cu	Cu	0.75	0.04042	0.25	0.912
Mof_Cu	Cu	0.25	0.75	0.45958	0.912
Mof_Cu	Cu	0.25	0.75	0.04042	0.912
Mof_Cu	Cu	0.75	0.54042	0.25	0.912
Mof_Cu	Cu	0.75	0.95958	0.25	0.912
Mof_Cu	Cu	0.54042	0.25	0.75	0.912
Mof_Cu	Cu	0.95958	0.25	0.75	0.912
Mof_Cu	Cu	0.25	0.75	0.95958	0.912
Mof_Cu	Cu	0.25	0.75	0.54042	0.912
Mof_H 	H 	0.5141	0.386	0.5289	0.146
Mof_H 	H 	0.4304	0.3216	0.6473	0.015
Mof_H 	H 	0.43	0.3639	0.5886	0.126
Mof_H 	H 	0.5552	0.361	0.5857	0.115
Mof_H 	H 	0.5556	0.3187	0.6443	0.022
Mof_H 	H 	0.519	0.4185	0.4789	0.034
Mof_H 	H 	0.9859	0.114	0.5289	0.146
Mof_H 	H 	0.0696	0.1784	0.6473	0.015
Mof_H 	H 	0.07	0.1361	0.5886	0.126
Mof_H 	H 	0.9448	0.139	0.5857	0.115
Mof_H 	H 	0.9444	0.1813	0.6443	0.022
Mof_H 	H 	0.981	0.0815	0.4789	0.034
Mof_H 	H 	0.9859	0.386	0.9711	0.146
Mof_H 	H 	0.0696	0.3216	0.8527	0.015
Mof_H 	H 	0.07	0.3639	0.9114	0.126
Mof_H 	H 	0.9448	0.361	0.9143	0.115
Mof_H 	H 	0.9444	0.3187	0.8557	0.022
Mof_H 	H 	0.981	0.4185	0.0211	0.034
Mof_H 	H 	0.5141	0.114	0.9711	0.146
Mof_H 	H 	0.4304	0.1784	0.8527	0.015
Mof_H 	H 	0.43	0.1361	0.9114	0.126
Mof_H 	H 	0.5552	0.139	0.9143	0.115
Mof_H 	H 	0.5556	0.1813	0.8557	0.022
Mof_H 	H 	0.519	0.0815	0.0211	0.034
Mof_H 	H 	0.5289	0.5141	0.386	0.146
Mof_H 	H 	0.6473	0.4304	0.3216	0.015
Mof_H 	H 	0.5886	0.43	0.3639	0.126
Mof_H 	H 	0.5857	0.5552	0.361	0.115
Mof_H 	H 	0.6443	0.5556	0.3187	0.022
Mof_H 	H 	0.4789	0.519	0.4185	0.034
Mof_H 	H 	0.5289	0.9859	0.114	0.146
Mof_H 	H 	0.6473	0.0696	0.1784	0.015
Mof_H 	H 	0.5886	0.07	0.1361	0.126
Mof_H 	H 	0.5857	0.9448	0.139	0.115
Mof_H 	H 	0.6443	0.9444	0.1813	0.022
Mof_H 	H 	0.4789	0.981	0.0815	0.034
Mof_H 	H 	0.9711	0.9859	0.386	0.146
Mof_H 	H 	0.8527	0.0696	0.3216	0.015
Mof_H 	H 	0.9114	0.07	0.3639	0.126
Mof_H 	H 	0.9143	0.9448	0.361	0.115
Mof_H 	H 	0.8557	0.9444	0.3187	0.022
Mof_H 	H 	0.0211	0.981	0.4185	0.034
Mof_H 	H 	0.9711	0.5141	0.114	0.146
Mof_H 	H 	0.8527	0.4304	0.1784	0.015
Mof_H 	H 	0.9114	0.43	0.1361	0.126
Mof_H 	H 	0.9143	0.5552	0.139	0.115
Mof_H 	H 	0.8557	0.5556	0.1813	0.022
Mof_H 	H 	0.0211	0.519	0.0815	0.034
Mof_H 	H 	0.386	0.5289	0.5141	0.146
Mof_H 	H 	0.3216	0.6473	0.4304	0.015
Mof_H 	H 	0.3639	0.5886	0.43	0.126
Mof_H 	H 	0.361	0.5857	0.5552	0.115
Mof_H 	H 	0.3187	0.6443	0.5556	0.022
Mof_H 	H 	0.4185	0.4789	0.519	0.034
Mof_H 	H 	0.114	0.5289	0.9859	0.146
Mof_H 	H 	0.1784	0.6473	0.0696	0.015
Mof_H 	H 	0.1361	0.5886	0.07	0.126
Mof_H 	H 	0.139	0.5857	0.9448	0.115
Mof_H 	H 	0.1813	0.6443	0.9444	0.022
Mof_H 	H 	0.0815	0.4789	0.981	0.034
Mof_H 	H 	0.386	0.9711	0.9859	0.146
Mof_H 	H 	0.3216	0.8527	0.0696	0.015
Mof_H 	H 	0.3639	0.9114	0.07	0.126
Mof_H 	H 	0.361	0.9143	0.9448	0.115
Mof_H 	H 	0.3187	0.8557	0.9444	0.022
Mof_H 	H 	0.4185	0.0211	0.981	0.034
Mof_H 	H 	0.114	0.9711	0.5141	0.146
Mof_H 	H 	0.1784	0.8527	0.4304	0.015
Mof_H 	H 	0.1361	0.9114	0.43	0.126
Mof_H 	H 	0.139	0.9143	0.5552	0.115
Mof_H 	H 	0.1813	0.8557	0.5556	0.022
Mof_H 	H 	0.0815	0.0211	0.519	0.034
Mof_H 	H 	0.614	0.4859	0.0289	0.146
Mof_H 	H 	0.6784	0.5696	0.1473	0.015
Mof_H 	H 	0.6361	0.57	0.0886	0.126
Mof_H 	H 	0.639	0.4448	0.0857	0.115
Mof_H 	H 	0.6813	0.4444	0.1443	0.022
Mof_H 	H 	0.5815	0.481	0.9789	0.034
Mof_H 	H 	0.886	0.0141	0.0289	0.146
Mof_H 	H 	0.8216	0.9304	0.1473	0.015
Mof_H 	H 	0.8639	0.93	0.0886	0.126
Mof_H 	H 	0.861	0.0552	0.0857	0.115
Mof_H 	H 	0.8187	0.0556	0.1443	0.022
Mof_H 	H 	0.9185	0.019	0.9789	0.034
Mof_H 	H 	0.614	0.0141	0.4711	0.146
Mof_H 	H 	0.6784	0.9304	0.3527	0.015
Mof_H 	H 	0.6361	0.93	0.4114	0.126
Mof_H 	H 	0.639	0.0552	0.4143	0.115
Mof_H 	H 	0.6813	0.0556	0.3557	0.022
Mof_H 	H 	0.5815	0.019	0.5211	0.034
Mof_H 	H 	0.886	0.4859	0.4711	0.146
Mof_H 	H 	0.8216	0.5696	0.3527	0.015
Mof_H 	H 	0.8639	0.57	0.4114	0.126
Mof_H 	H 	0.861	0.4448	0.4143	0.115
Mof_H 	H 	0.8187	0.4444	0.3557	0.022
Mof_H 	H 	0.9185	0.481	0.5211	0.034
Mof_H 	H 	0.4859	0.4711	0.886	0.146
Mof_H 	H 	0.5696	0.3527	0.8216	0.015
Mof_H 	H 	0.57	0.4114	0.8639	0.126
Mof_H 	H 	0.4448	0.4143	0.861	0.115
Mof_H 	H 	0.4444	0.3557	0.8187	0.022
Mof_H 	H 	0.481	0.5211	0.9185	0.034
Mof_H 	H 	0.0141	0.4711	0.614	0.146
Mof_H 	H 	0.9304	0.3527	0.6784	0.015
Mof_H 	H 	0.93	0.4114	0.6361	0.126
Mof_H 	H 	0.0552	0.4143	0.639	0.115
Mof_H 	H 	0.0556	0.3557	0.6813	0.022
Mof_H 	H 	0.019	0.5211	0.5815	0.034
Mof_H 	H 	0.0141	0.0289	0.886	0.146
Mof_H 	H 	0.9304	0.1473	0.8216	0.015
Mof_H 	H 	0.93	0.0886	0.8639	0.126
Mof_H 	H 	0.0552	0.0857	0.861	0.115
Mof_H 	H 	0.0556	0.1443	0.8187	0.022
Mof_H 	H 	0.019	0.9789	0.9185	0.034
Mof_H 	H 	0.4859	0.0289	0.614	0.146
Mof_H 	H 	0.5696	0.1473	0.6784	0.015
Mof_H 	H 	0.57	0.0886	0.6361	0.126
Mof_H 	H 	0.4448	0.0857	0.639	0.115
Mof_H 	H 	0.4444	0.1443	0.6813	0.022
Mof_H 	H 	0.481	0.9789	0.5815	0.034
Mof_H 	H 	0.4711	0.614	0.0141	0.146
Mof_H 	H 	0.3527	0.6784	0.9304	0.015
Mof_H 	H 	0.4114	0.6361	0.93	0.126
Mof_H 	H 	0.4143	0.639	0.0552	0.115
Mof_H 	H 	0.3557	0.6813	0.0556	0.022
Mof_H 	H 	0.5211	0.5815	0.019	0.034
Mof_H 	H 	0.4711	0.886	0.4859	0.146
Mof_H 	H 	0.3527	0.8216	0.5696	0.015
Mof_H 	H 	0.4114	0.8639	0.57	0.126
Mof_H 	H 	0.4143	0.861	0.4448	0.115
Mof_H 	H 	0.3557	0.8187	0.4444	0.022
Mof_H 	H 	0.5211	0.9185	0.481	0.034
Mof_H 	H 	0.0289	0.614	0.4859	0.146
Mof_H 	H 	0.1473	0.6784	0.5696	0.015
Mof_H 	H 	0.0886	0.6361	0.57	0.126
Mof_H 	H 	0.0857	0.639	0.4448	0.115
Mof_H 	H 	0.1443	0.6813	0.4444	0.022
Mof_H 	H 	0.9789	0.5815	0.481	0.034
Mof_H 	H 	0.0289	0.886	0.0141	0.146
Mof_H 	H 	0.1473	0.8216	0.9304	0.015
Mof_H 	H 	0.0886	0.8639	0.93	0.126
Mof_H 	H 	0.0857	0.861	0.0552	0.115
Mof_H 	H 	0.1443	0.8187	0.0556	0.022
Mof_H 	H 	0.9789	0.9185	0.019	0.034
Mof_C 	C 	0.4979	0.29	0.69007	0.411
Mof_C 	C 	0.493	0.31615	0.6513	-0.145
Mof_C 	C 	0.4557	0.32956	0.63476	0.112
Mof_C 	C 	0.4555	0.35469	0.59993	-0.215
Mof_C 	C 	0.4925	0.36641	0.58165	0.223
Mof_C 	C 	0.5298	0.353	0.59819	-0.207
Mof_C 	C 	0.5301	0.32787	0.63302	0.102
Mof_C 	C 	0.4655	0.4169	0.5385	0.27
Mof_C 	C 	0.4674	0.4434	0.5028	-0.1
Mof_C 	C 	0.4992	0.4399	0.4756	0.045
Mof_C 	C 	0.0021	0.21	0.69007	0.411
Mof_C 	C 	0.007	0.18385	0.6513	-0.145
Mof_C 	C 	0.0443	0.17044	0.63476	0.112
Mof_C 	C 	0.0445	0.14531	0.59993	-0.215
Mof_C 	C 	0.0075	0.13359	0.58165	0.223
Mof_C 	C 	0.9702	0.147	0.59819	-0.207
Mof_C 	C 	0.9699	0.17213	0.63302	0.102
Mof_C 	C 	0.0345	0.0831	0.5385	0.27
Mof_C 	C 	0.0326	0.0566	0.5028	-0.099
Mof_C 	C 	0.0008	0.0601	0.4756	0.044
Mof_C 	C 	0.0021	0.29	0.80993	0.411
Mof_C 	C 	0.007	0.31615	0.8487	-0.145
Mof_C 	C 	0.0443	0.32956	0.86524	0.112
Mof_C 	C 	0.0445	0.35469	0.90007	-0.215
Mof_C 	C 	0.0075	0.36641	0.91835	0.223
Mof_C 	C 	0.9702	0.353	0.90181	-0.207
Mof_C 	C 	0.9699	0.32787	0.86698	0.102
Mof_C 	C 	0.0345	0.4169	0.9615	0.27
Mof_C 	C 	0.0326	0.4434	0.9972	-0.099
Mof_C 	C 	0.0008	0.4399	0.0244	0.044
Mof_C 	C 	0.4979	0.21	0.80993	0.411
Mof_C 	C 	0.493	0.18385	0.8487	-0.145
Mof_C 	C 	0.4557	0.17044	0.86524	0.112
Mof_C 	C 	0.4555	0.14531	0.90007	-0.215
Mof_C 	C 	0.4925	0.13359	0.91835	0.223
Mof_C 	C 	0.5298	0.147	0.90181	-0.207
Mof_C 	C 	0.5301	0.17213	0.86698	0.102
Mof_C 	C 	0.4655	0.0831	0.9615	0.27
Mof_C 	C 	0.4674	0.0566	0.9972	-0.099
Mof_C 	C 	0.4992	0.0601	0.0244	0.044
Mof_C 	C 	0.69007	0.4979	0.29	0.411
Mof_C 	C 	0.6513	0.493	0.31615	-0.145
Mof_C 	C 	0.63476	0.4557	0.32956	0.112
Mof_C 	C 	0.59993	0.4555	0.35469	-0.215
Mof_C 	C 	0.58165	0.4925	0.36641	0.223
Mof_C 	C 	0.59819	0.5298	0.353	-0.207
Mof_C 	C 	0.63302	0.5301	0.32787	0.102
Mof_C 	C 	0.5385	0.4655	0.4169	0.27
Mof_C 	C 	0.5028	0.4674	0.4434	-0.1
Mof_C 	C 	0.4756	0.4992	0.4399	0.045
Mof_C 	C 	0.69007	0.0021	0.21	0.411
Mof_C 	C 	0.6513	0.007	0.18385	-0.145
Mof_C 	C 	0.63476	0.0443	0.17044	0.112
Mof_C 	C 	0.59993	0.0445	0.14531	-0.215
Mof_C 	C 	0.58165	0.0075	0.13359	0.223
Mof_C 	C 	0.59819	0.9702	0.147	-0.207
Mof_C 	C 	0.63302	0.9699	0.17213	0.102
Mof_C 	C 	0.5385	0.0345	0.0831	0.27
Mof_C 	C 	0.5028	0.0326	0.0566	-0.099
Mof_C 	C 	0.4756	0.0008	0.0601	0.044
Mof_C 	C 	0.80993	0.0021	0.29	0.411
Mof_C 	C 	0.8487	0.007	0.31615	-0.145
Mof_C 	C 	0.86524	0.0443	0.32956	0.112
Mof_C 	C 	0.90007	0.0445	0.35469	-0.215
Mof_C 	C 	0.91835	0.0075	0.36641	0.223
Mof_C 	C 	0.90181	0.9702	0.353	-0.207
Mof_C 	C 	0.86698	0.9699	0.32787	0.102
Mof_C 	C 	0.9615	0.0345	0.4169	0.27
Mof_C 	C 	0.9972	0.0326	0.4434	-0.099
Mof_C 	C 	0.0244	0.0008	0.4399	0.044
Mof_C 	C 	0.80993	0.4979	0.21	0.411
Mof_C 	C 	0.8487	0.493	0.18385	-0.145
Mof_C 	C 	0.86524	0.4557	0.17044	0.112
Mof_C 	C 	0.90007	0.4555	0.14531	-0.215
Mof_C 	C 	0.91835	0.4925	0.13359	0.223
Mof_C 	C 	0.90181	0.5298	0.147	-0.207
Mof_C 	C 	0.86698	0.5301	0.17213	0.102
Mof_C 	C 	0.9615	0.4655	0.0831	0.27
Mof_C 	C 	0.9972	0.4674	0.0566	-0.099
Mof_C 	C 	0.0244	0.4992	0.0601	0.044
Mof_C 	C 	0.29	0.69007	0.4979	0.411
Mof_C 	C 	0.31615	0.6513	0.493	-0.145
Mof_C 	C 	0.32956	0.63476	0.4557	0.112
Mof_C 	C 	0.35469	0.59993	0.4555	-0.215
Mof_C 	C 	0.36641	0.58165	0.4925	0.223
Mof_C 	C 	0.353	0.59819	0.5298	-0.207
Mof_C 	C 	0.32787	0.63302	0.5301	0.102
Mof_C 	C 	0.4169	0.5385	0.4655	0.27
Mof_C 	C 	0.4434	0.5028	0.4674	-0.1
Mof_C 	C 	0.4399	0.4756	0.4992	0.045
Mof_C 	C 	0.21	0.69007	0.0021	0.411
Mof_C 	C 	0.18385	0.6513	0.007	-0.145
Mof_C 	C 	0.17044	0.63476	0.0443	0.112
Mof_C 	C 	0.14531	0.59993	0.0445	-0.215
Mof_C 	C 	0.13359	0.58165	0.0075	0.223
Mof_C 	C 	0.147	0.59819	0.9702	-0.207
Mof_C 	C 	0.17213	0.63302	0.9699	0.102
Mof_C 	C 	0.0831	0.5385	0.0345	0.27
Mof_C 	C 	0.0566	0.5028	0.0326	-0.099
Mof_C 	C 	0.0601	0.4756	0.0008	0.044
Mof_C 	C 	0.29	0.80993	0.0021	0.411
Mof_C 	C 	0.31615	0.8487	0.007	-0.145
Mof_C 	C 	0.32956	0.86524	0.0443	0.112
Mof_C 	C 	0.35469	0.90007	0.0445	-0.215
Mof_C 	C 	0.36641	0.91835	0.0075	0.223
Mof_C 	C 	0.353	0.90181	0.9702	-0.207
Mof_C 	C 	0.32787	0.86698	0.9699	0.102
Mof_C 	C 	0.4169	0.9615	0.0345	0.27
Mof_C 	C 	0.4434	0.9972	0.0326	-0.099
Mof_C 	C 	0.4399	0.0244	0.0008	0.044
Mof_C 	C 	0.21	0.80993	0.4979	0.411
Mof_C 	C 	0.18385	0.8487	0.493	-0.145
Mof_C 	C 	0.17044	0.86524	0.4557	0.112
Mof_C 	C 	0.14531	0.90007	0.4555	-0.215
Mof_C 	C 	0.13359	0.91835	0.4925	0.223
Mof_C 	C 	0.147	0.90181	0.5298	-0.207
Mof_C 	C 	0.17213	0.86698	0.5301	0.102
Mof_C 	C 	0.0831	0.9615	0.4655	0.27
Mof_C 	C 	0.0566	0.9972	0.4674	-0.099
Mof_C 	C 	0.0601	0.0244	0.4992	0.044
Mof_C 	C 	0.71	0.5021	0.19007	0.411
Mof_C 	C 	0.68385	0.507	0.1513	-0.145
Mof_C 	C 	0.67044	0.5443	0.13476	0.112
Mof_C 	C 	0.64531	0.5445	0.09993	-0.215
Mof_C 	C 	0.63359	0.5075	0.08165	0.223
Mof_C 	C 	0.647	0.4702	0.09819	-0.207
Mof_C 	C 	0.67213	0.4699	0.13302	0.102
Mof_C 	C 	0.5831	0.5345	0.0385	0.27
Mof_C 	C 	0.5566	0.5326	0.0028	-0.1
Mof_C 	C 	0.5601	0.5008	0.9756	0.045
Mof_C 	C 	0.79	0.9979	0.19007	0.411
Mof_C 	C 	0.81615	0.993	0.1513	-0.145
Mof_C 	C 	0.82956	0.9557	0.13476	0.112
Mof_C 	C 	0.85469	0.9555	0.09993	-0.215
Mof_C 	C 	0.86641	0.9925	0.08165	0.223
Mof_C 	C 	0.853	0.0298	0.09819	-0.207
Mof_C 	C 	0.82787	0.0301	0.13302	0.102
Mof_C 	C 	0.9169	0.9655	0.0385	0.27
Mof_C 	C 	0.9434	0.9674	0.0028	-0.098
Mof_C 	C 	0.9399	0.9992	0.9756	0.043
Mof_C 	C 	0.71	0.9979	0.30993	0.411
Mof_C 	C 	0.68385	0.993	0.3487	-0.145
Mof_C 	C 	0.67044	0.9557	0.36524	0.112
Mof_C 	C 	0.64531	0.9555	0.40007	-0.215
Mof_C 	C 	0.63359	0.9925	0.41835	0.223
Mof_C 	C 	0.647	0.0298	0.40181	-0.207
Mof_C 	C 	0.67213	0.0301	0.36698	0.102
Mof_C 	C 	0.5831	0.9655	0.4615	0.27
Mof_C 	C 	0.5566	0.9674	0.4972	-0.1
Mof_C 	C 	0.5601	0.9992	0.5244	0.045
Mof_C 	C 	0.79	0.5021	0.30993	0.411
Mof_C 	C 	0.81615	0.507	0.3487	-0.145
Mof_C 	C 	0.82956	0.5443	0.36524	0.112
Mof_C 	C 	0.85469	0.5445	0.40007	-0.215
Mof_C 	C 	0.86641	0.5075	0.41835	0.223
Mof_C 	C 	0.853	0.4702	0.40181	-0.207
Mof_C 	C 	0.82787	0.4699	0.36698	0.102
Mof_C 	C 	0.9169	0.5345	0.4615	0.27
Mof_C 	C 	0.9434	0.5326	0.4972	-0.1
Mof_C 	C 	0.9399	0.5008	0.5244	0.045
Mof_C 	C 	0.5021	0.30993	0.79	0.411
Mof_C 	C 	0.507	0.3487	0.81615	-0.145
Mof_C 	C 	0.5443	0.36524	0.82956	0.112
Mof_C 	C 	0.5445	0.40007	0.85469	-0.215
Mof_C 	C 	0.5075	0.41835	0.86641	0.223
Mof_C 	C 	0.4702	0.40181	0.853	-0.207
Mof_C 	C 	0.4699	0.36698	0.82787	0.102
Mof_C 	C 	0.5345	0.4615	0.9169	0.27
Mof_C 	C 	0.5326	0.4972	0.9434	-0.1
Mof_C 	C 	0.5008	0.5244	0.9399	0.045
Mof_C 	C 	0.9979	0.30993	0.71	0.411
Mof_C 	C 	0.993	0.3487	0.68385	-0.145
Mof_C 	C 	0.9557	0.36524	0.67044	0.112
Mof_C 	C 	0.9555	0.40007	0.64531	-0.215
Mof_C 	C 	0.9925	0.41835	0.63359	0.223
Mof_C 	C 	0.0298	0.40181	0.647	-0.207
Mof_C 	C 	0.0301	0.36698	0.67213	0.102
Mof_C 	C 	0.9655	0.4615	0.5831	0.27
Mof_C 	C 	0.9674	0.4972	0.5566	-0.1
Mof_C 	C 	0.9992	0.5244	0.5601	0.045
Mof_C 	C 	0.9979	0.19007	0.79	0.411
Mof_C 	C 	0.993	0.1513	0.81615	-0.145
Mof_C 	C 	0.9557	0.13476	0.82956	0.112
Mof_C 	C 	0.9555	0.09993	0.85469	-0.215
Mof_C 	C 	0.9925	0.08165	0.86641	0.223
Mof_C 	C 	0.0298	0.09819	0.853	-0.207
Mof_C 	C 	0.0301	0.13302	0.82787	0.102
Mof_C 	C 	0.9655	0.0385	0.9169	0.27
Mof_C 	C 	0.9674	0.0028	0.9434	-0.098
Mof_C 	C 	0.9992	0.9756	0.9399	0.043
Mof_C 	C 	0.5021	0.19007	0.71	0.411
Mof_C 	C 	0.507	0.1513	0.68385	-0.145
Mof_C 	C 	0.5443	0.13476	0.67044	0.112
Mof_C 	C 	0.5445	0.09993	0.64531	-0.215
Mof_C 	C 	0.5075	0.08165	0.63359	0.223
Mof_C 	C 	0.4702	0.09819	0.647	-0.207
Mof_C 	C 	0.4699	0.13302	0.67213	0.102
Mof_C 	C 	0.5345	0.0385	0.5831	0.27
Mof_C 	C 	0.5326	0.0028	0.5566	-0.1
Mof_C 	C 	0.5008	0.9756	0.5601	0.045
Mof_C 	C 	0.30993	0.71	0.9979	0.411
Mof_C 	C 	0.3487	0.68385	0.993	-0.145
Mof_C 	C 	0.36524	0.67044	0.9557	0.112
Mof_C 	C 	0.40007	0.64531	0.9555	-0.215
Mof_C 	C 	0.41835	0.63359	0.9925	0.223
Mof_C 	C 	0.40181	0.647	0.0298	-0.207
Mof_C 	C 	0.36698	0.67213	0.0301	0.102
Mof_C 	C 	0.4615	0.5831	0.9655	0.27
Mof_C 	C 	0.4972	0.5566	0.9674	-0.1
Mof_C 	C 	0.5244	0.5601	0.9992	0.045
Mof_C 	C 	0.30993	0.79	0.5021	0.411
Mof_C 	C 	0.3487	0.81615	0.507	-0.145
Mof_C 	C 	0.36524	0.82956	0.5443	0.112
Mof_C 	C 	0.40007	0.85469	0.5445	-0.215
Mof_C 	C 	0.41835	0.86641	0.5075	0.223
Mof_C 	C 	0.40181	0.853	0.4702	-0.207
Mof_C 	C 	0.36698	0.82787	0.4699	0.102
Mof_C 	C 	0.4615	0.9169	0.5345	0.27
Mof_C 	C 	0.4972	0.9434	0.5326	-0.1
Mof_C 	C 	0.5244	0.9399	0.5008	0.045
Mof_C 	C 	0.19007	0.71	0.5021	0.411
Mof_C 	C 	0.1513	0.68385	0.507	-0.145
Mof_C 	C 	0.13476	0.67044	0.5443	0.112
Mof_C 	C 	0.09993	0.64531	0.5445	-0.215
Mof_C 	C 	0.08165	0.63359	0.5075	0.223
Mof_C 	C 	0.09819	0.647	0.4702	-0.207
Mof_C 	C 	0.13302	0.67213	0.4699	0.102
Mof_C 	C 	0.0385	0.5831	0.5345	0.27
Mof_C 	C 	0.0028	0.5566	0.5326	-0.1
Mof_C 	C 	0.9756	0.5601	0.5008	0.045
Mof_C 	C 	0.19007	0.79	0.9979	0.411
Mof_C 	C 	0.1513	0.81615	0.993	-0.145
Mof_C 	C 	0.13476	0.82956	0.9557	0.112
Mof_C 	C 	0.09993	0.85469	0.9555	-0.215
Mof_C 	C 	0.08165	0.86641	0.9925	0.223
Mof_C 	C 	0.09819	0.853	0.0298	-0.207
Mof_C 	C 	0.13302	0.82787	0.0301	0.102
Mof_C 	C 	0.0385	0.9169	0.9655	0.27
Mof_C 	C 	0.0028	0.9434	0.9674	-0.098
Mof_C 	C 	0.9756	0.9399	0.9992	0.043
Mof_N 	N 	0.4937	0.3896	0.5465	-0.278
Mof_N 	N 	0.0063	0.1104	0.5465	-0.278
Mof_N 	N 	0.0063	0.3896	0.9535	-0.278
Mof_N 	N 	0.4937	0.1104	0.9535	-0.278
Mof_N 	N 	0.5465	0.4937	0.3896	-0.278
Mof_N 	N 	0.5465	0.0063	0.1104	-0.278
Mof_N 	N 	0.9535	0.0063	0.3896	-0.278
Mof_N 	N 	0.9535	0.4937	0.1104	-0.278
Mof_N 	N 	0.3896	0.5465	0.4937	-0.278
Mof_N 	N 	0.1104	0.5465	0.0063	-0.278
Mof_N 	N 	0.3896	0.9535	0.0063	-0.278
Mof_N 	N 	0.1104	0.9535	0.4937	-0.278
Mof_N 	N 	0.6104	0.5063	0.0465	-0.278
Mof_N 	N 	0.8896	0.9937	0.0465	-0.278
Mof_N 	N 	0.6104	0.9937	0.4535	-0.278
Mof_N 	N 	0.8896	0.5063	0.4535	-0.278
Mof_N 	N 	0.5063	0.4535	0.8896	-0.278
Mof_N 	N 	0.9937	0.4535	0.6104	-0.278
Mof_N 	N 	0.9937	0.0465	0.8896	-0.278
Mof_N 	N 	0.5063	0.0465	0.6104	-0.278
Mof_N 	N 	0.4535	0.6104	0.9937	-0.278
Mof_N 	N 	0.4535	0.8896	0.5063	-0.278
Mof_N 	N 	0.0465	0.6104	0.5063	-0.278
Mof_N 	N 	0.0465	0.8896	0.9937	-0.278
Mof_O 	O 	0.46364	0.28427	0.70328	-0.449
Mof_O 	O 	0.5339	0.2846	0.7005	-0.428
Mof_O 	O 	0.4331	0.4256	0.5554	-0.255
Mof_O 	O 	0.03636	0.21573	0.70328	-0.449
Mof_O 	O 	0.9661	0.2154	0.7005	-0.428
Mof_O 	O 	0.0669	0.0744	0.5554	-0.255
Mof_O 	O 	0.03636	0.28427	0.79672	-0.449
Mof_O 	O 	0.9661	0.2846	0.7995	-0.428
Mof_O 	O 	0.0669	0.4256	0.9446	-0.255
Mof_O 	O 	0.46364	0.21573	0.79672	-0.449
Mof_O 	O 	0.5339	0.2154	0.7995	-0.428
Mof_O 	O 	0.4331	0.0744	0.9446	-0.255
Mof_O 	O 	0.70328	0.46364	0.28427	-0.449
Mof_O 	O 	0.7005	0.5339	0.2846	-0.428
Mof_O 	O 	0.5554	0.4331	0.4256	-0.255
Mof_O 	O 	0.70328	0.03636	0.21573	-0.449
Mof_O 	O 	0.7005	0.9661	0.2154	-0.428
Mof_O 	O 	0.5554	0.0669	0.0744	-0.255
Mof_O 	O 	0.79672	0.03636	0.28427	-0.449
Mof_O 	O 	0.7995	0.9661	0.2846	-0.428
Mof_O 	O 	0.9446	0.0669	0.4256	-0.255
Mof_O 	O 	0.79672	0.46364	0.21573	-0.449
Mof_O 	O 	0.7995	0.5339	0.2154	-0.428
Mof_O 	O 	0.9446	0.4331	0.0744	-0.255
Mof_O 	O 	0.28427	0.70328	0.46364	-0.449
Mof_O 	O 	0.2846	0.7005	0.5339	-0.428
Mof_O 	O 	0.4256	0.5554	0.4331	-0.255
Mof_O 	O 	0.21573	0.70328	0.03636	-0.449
Mof_O 	O 	0.2154	0.7005	0.9661	-0.428
Mof_O 	O 	0.0744	0.5554	0.0669	-0.255
Mof_O 	O 	0.28427	0.79672	0.03636	-0.449
Mof_O 	O 	0.2846	0.7995	0.9661	-0.428
Mof_O 	O 	0.4256	0.9446	0.0669	-0.255
Mof_O 	O 	0.21573	0.79672	0.46364	-0.449
Mof_O 	O 	0.2154	0.7995	0.5339	-0.428
Mof_O 	O 	0.0744	0.9446	0.4331	-0.255
Mof_O 	O 	0.71573	0.53636	0.20328	-0.449
Mof_O 	O 	0.7154	0.4661	0.2005	-0.428
Mof_O 	O 	0.5744	0.5669	0.0554	-0.255
Mof_O 	O 	0.78427	0.96364	0.20328	-0.449
Mof_O 	O 	0.7846	0.0339	0.2005	-0.428
Mof_O 	O 	0.9256	0.9331	0.0554	-0.255
Mof_O 	O 	0.71573	0.96364	0.29672	-0.449
Mof_O 	O 	0.7154	0.0339	0.2995	-0.428
Mof_O 	O 	0.5744	0.9331	0.4446	-0.255
Mof_O 	O 	0.78427	0.53636	0.29672	-0.449
Mof_O 	O 	0.7846	0.4661	0.2995	-0.428
Mof_O 	O 	0.9256	0.5669	0.4446	-0.255
Mof_O 	O 	0.53636	0.29672	0.78427	-0.449
Mof_O 	O 	0.4661	0.2995	0.7846	-0.428
Mof_O 	O 	0.5669	0.4446	0.9256	-0.255
Mof_O 	O 	0.96364	0.29672	0.71573	-0.449
Mof_O 	O 	0.0339	0.2995	0.7154	-0.428
Mof_O 	O 	0.9331	0.4446	0.5744	-0.255
Mof_O 	O 	0.96364	0.20328	0.78427	-0.449
Mof_O 	O 	0.0339	0.2005	0.7846	-0.428
Mof_O 	O 	0.9331	0.0554	0.9256	-0.255
Mof_O 	O 	0.53636	0.20328	0.71573	-0.449
Mof_O 	O 	0.4661	0.2005	0.7154	-0.428
Mof_O 	O 	0.5669	0.0554	0.5744	-0.255
Mof_O 	O 	0.29672	0.71573	0.96364	-0.449
Mof_O 	O 	0.2995	0.7154	0.0339	-0.428
Mof_O 	O 	0.4446	0.5744	0.9331	-0.255
Mof_O 	O 	0.29672	0.78427	0.53636	-0.449
Mof_O 	O 	0.2995	0.7846	0.4661	-0.428
Mof_O 	O 	0.4446	0.9256	0.5669	-0.255
Mof_O 	O 	0.20328	0.71573	0.53636	-0.449
Mof_O 	O 	0.2005	0.7154	0.4661	-0.428
Mof_O 	O 	0.0554	0.5744	0.5669	-0.255
Mof_O 	O 	0.20328	0.78427	0.96364	-0.449
Mof_O 	O 	0.2005	0.7846	0.0339	-0.428
Mof_O 	O 	0.0554	0.9256	0.9331	-0.255
Mof_Cu	Cu	0.25	0.45958	0.75	0.912
Mof_Cu	Cu	0.25	0.04042	0.75	0.912
Mof_Cu	Cu	0.45958	0.75	0.25	0.912
Mof_Cu	Cu	0.04042	0.75	0.25	0.912
Mof_Cu	Cu	0.75	0.25	0.04042	0.912
Mof_Cu	Cu	0.75	0.25	0.45958	0.912
Mof_Cu	Cu	0.54042	0.75	0.25	0.912
Mof_Cu	Cu	0.95958	0.75	0.25	0.912
Mof_Cu	Cu	0.25	0.54042	0.75	0.912
Mof_Cu	Cu	0.25	0.95958	0.75	0.912
Mof_Cu	Cu	0.75	0.25	0.54042	0.912
Mof_Cu	Cu	0.75	0.25	0.95958	0.912
Mof_H 	H 	0.386	0.5141	0.9711	0.146
Mof_H 	H 	0.3216	0.4304	0.8527	0.015
Mof_H 	H 	0.3639	0.43	0.9114	0.126
Mof_H 	H 	0.361	0.5552	0.9143	0.115
Mof_H 	H 	0.3187	0.5556	0.8557	0.022
Mof_H 	H 	0.4185	0.519	0.0211	0.034
Mof_H 	H 	0.114	0.9859	0.9711	0.146
Mof_H 	H 	0.1784	0.0696	0.8527	0.015
Mof_H 	H 	0.1361	0.07	0.9114	0.126
Mof_H 	H 	0.139	0.9448	0.9143	0.115
Mof_H 	H 	0.1813	0.9444	0.8557	0.022
Mof_H 	H 	0.0815	0.981	0.0211	0.034
Mof_H 	H 	0.386	0.9859	0.5289	0.146
Mof_H 	H 	0.3216	0.0696	0.6473	0.015
Mof_H 	H 	0.3639	0.07	0.5886	0.126
Mof_H 	H 	0.361	0.9448	0.5857	0.115
Mof_H 	H 	0.3187	0.9444	0.6443	0.022
Mof_H 	H 	0.4185	0.981	0.4789	0.034
Mof_H 	H 	0.114	0.5141	0.5289	0.146
Mof_H 	H 	0.1784	0.4304	0.6473	0.015
Mof_H 	H 	0.1361	0.43	0.5886	0.126
Mof_H 	H 	0.139	0.5552	0.5857	0.115
Mof_H 	H 	0.1813	0.5556	0.6443	0.022
Mof_H 	H 	0.0815	0.519	0.4789	0.034
Mof_H 	H 	0.5141	0.5289	0.114	0.146
Mof_H 	H 	0.4304	0.6473	0.1784	0.015
Mof_H 	H 	0.43	0.5886	0.1361	0.126
Mof_H 	H 	0.5552	0.5857	0.139	0.115
Mof_H 	H 	0.5556	0.6443	0.1813	0.022
Mof_H 	H 	0.519	0.4789	0.0815	0.034
Mof_H 	H 	0.9859	0.5289	0.386	0.146
Mof_H 	H 	0.0696	0.6473	0.3216	0.015
Mof_H 	H 	0.07	0.5886	0.3639	0.126
Mof_H 	H 	0.9448	0.5857	0.361	0.115
Mof_H 	H 	0.9444	0.6443	0.3187	0.022
Mof_H 	H 	0.981	0.4789	0.4185	0.034
Mof_H 	H 	0.9859	0.9711	0.114	0.146
Mof_H 	H 	0.0696	0.8527	0.1784	0.015
Mof_H 	H 	0.07	0.9114	0.1361	0.126
Mof_H 	H 	0.9448	0.9143	0.139	0.115
Mof_H 	H 	0.9444	0.8557	0.1813	0.022
Mof_H 	H 	0.981	0.0211	0.0815	0.034
Mof_H 	H 	0.5141	0.9711	0.386	0.146
Mof_H 	H 	0.4304	0.8527	0.3216	0.015
Mof_H 	H 	0.43	0.9114	0.3639	0.126
Mof_H 	H 	0.5552	0.9143	0.361	0.115
Mof_H 	H 	0.5556	0.8557	0.3187	0.022
Mof_H 	H 	0.519	0.0211	0.4185	0.034
Mof_H 	H 	0.5289	0.386	0.9859	0.146
Mof_H 	H 	0.6473	0.3216	0.0696	0.015
Mof_H 	H 	0.5886	0.3639	0.07	0.126
Mof_H 	H 	0.5857	0.361	0.9448	0.115
Mof_H 	H 	0.6443	0.3187	0.9444	0.022
Mof_H 	H 	0.4789	0.4185	0.981	0.034
Mof_H 	H 	0.5289	0.114	0.5141	0.146
Mof_H 	H 	0.6473	0.1784	0.4304	0.015
Mof_H 	H 	0.5886	0.1361	0.43	0.126
Mof_H 	H 	0.5857	0.139	0.5552	0.115
Mof_H 	H 	0.6443	0.1813	0.5556	0.022
Mof_H 	H 	0.4789	0.0815	0.519	0.034
Mof_H 	H 	0.9711	0.386	0.5141	0.146
Mof_H 	H 	0.8527	0.3216	0.4304	0.015
Mof_H 	H 	0.9114	0.3639	0.43	0.126
Mof_H 	H 	0.9143	0.361	0.5552	0.115
Mof_H 	H 	0.8557	0.3187	0.5556	0.022
Mof_H 	H 	0.0211	0.4185	0.519	0.034
Mof_H 	H 	0.9711	0.114	0.9859	0.146
Mof_H 	H 	0.8527	0.1784	0.0696	0.015
Mof_H 	H 	0.9114	0.1361	0.07	0.126
Mof_H 	H 	0.9143	0.139	0.9448	0.115
Mof_H 	H 	0.8557	0.1813	0.9444	0.022
Mof_H 	H 	0.0211	0.0815	0.981	0.034
Mof_H 	H 	0.4859	0.614	0.4711	0.146
Mof_H 	H 	0.5696	0.6784	0.3527	0.015
Mof_H 	H 	0.57	0.6361	0.4114	0.126
Mof_H 	H 	0.4448	0.639	0.4143	0.115
Mof_H 	H 	0.4444	0.6813	0.3557	0.022
Mof_H 	H 	0.481	0.5815	0.5211	0.034
Mof_H 	H 	0.0141	0.886	0.4711	0.146
Mof_H 	H 	0.9304	0.8216	0.3527	0.015
Mof_H 	H 	0.93	0.8639	0.4114	0.126
Mof_H 	H 	0.0552	0.861	0.4143	0.115
Mof_H 	H 	0.0556	0.8187	0.3557	0.022
Mof_H 	H 	0.019	0.9185	0.5211	0.034
Mof_H 	H 	0.0141	0.614	0.0289	0.146
Mof_H 	H 	0.9304	0.6784	0.1473	0.015
Mof_H 	H 	0.93	0.6361	0.0886	0.126
Mof_H 	H 	0.0552	0.639	0.0857	0.115
Mof_H 	H 	0.0556	0.6813	0.1443	0.022
Mof_H 	H 	0.019	0.5815	0.9789	0.034
Mof_H 	H 	0.4859	0.886	0.0289	0.146
Mof_H 	H 	0.5696	0.8216	0.1473	0.015
Mof_H 	H 	0.57	0.8639	0.0886	0.126
Mof_H 	H 	0.4448	0.861	0.0857	0.115
Mof_H 	H 	0.4444	0.8187	0.1443	0.022
Mof_H 	H 	0.481	0.9185	0.9789	0.034
Mof_H 	H 	0.4711	0.4859	0.614	0.146
Mof_H 	H 	0.3527	0.5696	0.6784	0.015
Mof_H 	H 	0.4114	0.57	0.6361	0.126
Mof_H 	H 	0.4143	0.4448	0.639	0.115
Mof_H 	H 	0.3557	0.4444	0.6813	0.022
Mof_H 	H 	0.5211	0.481	0.5815	0.034
Mof_H 	H 	0.4711	0.0141	0.886	0.146
Mof_H 	H 	0.3527	0.9304	0.8216	0.015
Mof_H 	H 	0.4114	0.93	0.8639	0.126
Mof_H 	H 	0.4143	0.0552	0.861	0.115
Mof_H 	H 	0.3557	0.0556	0.8187	0.022
Mof_H 	H 	0.5211	0.019	0.9185	0.034
Mof_H 	H 	0.0289	0.0141	0.614	0.146
Mof_H 	H 	0.1473	0.9304	0.6784	0.015
Mof_H 	H 	0.0886	0.93	0.6361	0.126
Mof_H 	H 	0.0857	0.0552	0.639	0.115
Mof_H 	H 	0.1443	0.0556	0.6813	0.022
Mof_H 	H 	0.9789	0.019	0.5815	0.034
Mof_H 	H 	0.0289	0.4859	0.886	0.146
Mof_H 	H 	0.1473	0.5696	0.8216	0.015
Mof_H 	H 	0.0886	0.57	0.8639	0.126
Mof_H 	H 	0.0857	0.4448	0.861	0.115
Mof_H 	H 	0.1443	0.4444	0.8187	0.022
Mof_H 	H 	0.9789	0.481	0.9185	0.034
Mof_H 	H 	0.614	0.4711	0.4859	0.146
Mof_H 	H 	0.6784	0.3527	0.5696	0.015
Mof_H 	H 	0.6361	0.4114	0.57	0.126
Mof_H 	H 	0.639	0.4143	0.4448	0.115
Mof_H 	H 	0.6813	0.3557	0.4444	0.022
Mof_H 	H 	0.5815	0.5211	0.481	0.034
Mof_H 	H 	0.886	0.4711	0.0141	0.146
Mof_H 	H 	0.8216	0.3527	0.9304	0.015
Mof_H 	H 	0.8639	0.4114	0.93	0.126
Mof_H 	H 	0.861	0.4143	0.0552	0.115
Mof_H 	H 	0.8187	0.3557	0.0556	0.022
Mof_H 	H 	0.9185	0.5211	0.019	0.034
Mof_H 	H 	0.614	0.0289	0.0141	0.146
Mof_H 	H 	0.6784	0.1473	0.9304	0.015
Mof_H 	H 	0.6361	0.0886	0.93	0.126
Mof_H 	H 	0.639	0.0857	0.0552	0.115
Mof_H 	H 	0.6813	0.1443	0.0556	0.022
Mof_H 	H 	0.5815	0.9789	0.019	0.034
Mof_H 	H 	0.886	0.0289	0.4859	0.146
Mof_H 	H 	0.8216	0.1473	0.5696	0.015
Mof_H 	H 	0.8639	0.0886	0.57	0.126
Mof_H 	H 	0.861	0.0857	0.4448	0.115
Mof_H 	H 	0.8187	0.1443	0.4444	0.022
Mof_H 	H 	0.9185	0.9789	0.481	0.034
Mof_C 	C 	0.29	0.4979	0.80993	0.411
Mof_C 	C 	0.31615	0.493	0.8487	-0.145
Mof_C 	C 	0.32956	0.4557	0.86524	0.112
Mof_C 	C 	0.35469	0.4555	0.90007	-0.215
Mof_C 	C 	0.36641	0.4925	0.91835	0.223
Mof_C 	C 	0.353	0.5298	0.90181	-0.207
Mof_C 	C 	0.32787	0.5301	0.86698	0.102
Mof_C 	C 	0.4169	0.4655	0.9615	0.27
Mof_C 	C 	0.4434	0.4674	0.9972	-0.1
Mof_C 	C 	0.4399	0.4992	0.0244	0.045
Mof_C 	C 	0.21	0.0021	0.80993	0.411
Mof_C 	C 	0.18385	0.007	0.8487	-0.145
Mof_C 	C 	0.17044	0.0443	0.86524	0.112
Mof_C 	C 	0.14531	0.0445	0.90007	-0.215
Mof_C 	C 	0.13359	0.0075	0.91835	0.223
Mof_C 	C 	0.147	0.9702	0.90181	-0.207
Mof_C 	C 	0.17213	0.9699	0.86698	0.102
Mof_C 	C 	0.0831	0.0345	0.9615	0.27
Mof_C 	C 	0.0566	0.0326	0.9972	-0.098
Mof_C 	C 	0.0601	0.0008	0.0244	0.043
Mof_C 	C 	0.29	0.0021	0.69007	0.411
Mof_C 	C 	0.31615	0.007	0.6513	-0.145
Mof_C 	C 	0.32956	0.0443	0.63476	0.112
Mof_C 	C 	0.35469	0.0445	0.59993	-0.215
Mof_C 	C 	0.36641	0.0075	0.58165	0.223
Mof_C 	C 	0.353	0.9702	0.59819	-0.207
Mof_C 	C 	0.32787	0.9699	0.63302	0.102
Mof_C 	C 	0.4169	0.0345	0.5385	0.27
Mof_C 	C 	0.4434	0.0326	0.5028	-0.1
Mof_C 	C 	0.4399	0.0008	0.4756	0.045
Mof_C 	C 	0.21	0.4979	0.69007	0.411
Mof_C 	C 	0.18385	0.493	0.6513	-0.145
Mof_C 	C 	0.17044	0.4557	0.63476	0.112
Mof_C 	C 	0.14531	0.4555	0.59993	-0.215
Mof_C 	C 	0.13359	0.4925	0.58165	0.223
Mof_C 	C 	0.147	0.5298	0.59819	-0.207
Mof_C 	C 	0.17213	0.5301	0.63302	0.102
Mof_C 	C 	0.0831	0.4655	0.5385	0.27
Mof_C 	C 	0.0566	0.4674	0.5028	-0.1
Mof_C 	C 	0.0601	0.4992	0.4756	0.045
Mof_C 	C 	0.4979	0.69007	0.21	0.411
Mof_C 	C 	0.493	0.6513	0.18385	-0.145
Mof_C 	C 	0.4557	0.63476	0.17044	0.112
Mof_C 	C 	0.4555	0.59993	0.14531	-0.215
Mof_C 	C 	0.4925	0.58165	0.13359	0.223
Mof_C 	C 	0.5298	0.59819	0.147	-0.207
Mof_C 	C 	0.5301	0.63302	0.17213	0.102
Mof_C 	C 	0.4655	0.5385	0.0831	0.27
Mof_C 	C 	0.4674	0.5028	0.0566	-0.1
Mof_C 	C 	0.4992	0.4756	0.0601	0.045
Mof_C 	C 	0.0021	0.69007	0.29	0.411
Mof_C 	C 	0.007	0.6513	0.31615	-0.145
Mof_C 	C 	0.0443	0.63476	0.32956	0.112
Mof_C 	C 	0.0445	0.59993	0.35469	-0.215
Mof_C 	C 	0.0075	0.58165	0.36641	0.223
Mof_C 	C 	0.9702	0.59819	0.353	-0.207
Mof_C 	C 	0.9699	0.63302	0.32787	0.102
Mof_C 	C 	0.0345	0.5385	0.4169	0.27
Mof_C 	C 	0.0326	0.5028	0.4434	-0.1
Mof_C 	C 	0.0008	0.4756	0.4399	0.045
Mof_C 	C 	0.0021	0.80993	0.21	0.411
Mof_C 	C 	0.007	0.8487	0.18385	-0.145
Mof_C 	C 	0.0443	0.86524	0.17044	0.112
Mof_C 	C 	0.0445	0.90007	0.14531	-0.215
Mof_C 	C 	0.0075	0.91835	0.13359	0.223
Mof_C 	C 	0.9702	0.90181	0.147	-0.207
Mof_C 	C 	0.9699	0.86698	0.17213	0.102
Mof_C 	C 	0.0345	0.9615	0.0831	0.27
Mof_C 	C 	0.0326	0.9972	0.0566	-0.098
Mof_C 	C 	0.0008	0.0244	0.0601	0.043
Mof_C 	C 	0.4979	0.80993	0.29	0.411
Mof_C 	C 	0.493	0.8487	0.31615	-0.145
Mof_C 	C 	0.4557	0.86524	0.32956	0.112
Mof_C 	C 	0.4555	0.90007	0.35469	-0.215
Mof_C 	C 	0.4925	0.91835	0.36641	0.223
Mof_C 	C 	0.5298	0.90181	0.353	-0.207
Mof_C 	C 	0.5301	0.86698	0.32787	0.102
Mof_C 	C 	0.4655	0.9615	0.4169	0.27
Mof_C 	C 	0.4674	0.9972	0.4434	-0.1
Mof_C 	C 	0.4992	0.0244	0.4399	0.045
Mof_C 	C 	0.69007	0.29	0.0021	0.411
Mof_C 	C 	0.6513	0.31615	0.007	-0.145
Mof_C 	C 	0.63476	0.32956	0.0443	0.112
Mof_C 	C 	0.59993	0.35469	0.0445	-0.215
Mof_C 	C 	0.58165	0.36641	0.0075	0.223
Mof_C 	C 	0.59819	0.353	0.9702	-0.207
Mof_C 	C 	0.63302	0.32787	0.9699	0.102
Mof_C 	C 	0.5385	0.4169	0.0345	0.27
Mof_C 	C 	0.5028	0.4434	0.0326	-0.1
Mof_C 	C 	0.4756	0.4399	0.0008	0.045
Mof_C 	C 	0.69007	0.21	0.4979	0.411
Mof_C 	C 	0.6513	0.18385	0.493	-0.145
Mof_C 	C 	0.63476	0.17044	0.4557	0.112
Mof_C 	C 	0.59993	0.14531	0.4555	-0.215
Mof_C 	C 	0.58165	0.13359	0.4925	0.223
Mof_C 	C 	0.59819	0.147	0.5298	-0.207
Mof_C 	C 	0.63302	0.17213	0.5301	0.102
Mof_C 	C 	0.5385	0.0831	0.4655	0.27
Mof_C 	C 	0.5028	0.0566	0.4674	-0.1
Mof_C 	C 	0.4756	0.0601	0.4992	0.045
Mof_C 	C 	0.80993	0.29	0.4979	0.411
Mof_C 	C 	0.8487	0.31615	0.493	-0.145
Mof_C 	C 	0.86524	0.32956	0.4557	0.112
Mof_C 	C 	0.90007	0.35469	0.4555	-0.215
Mof_C 	C 	0.91835	0.36641	0.4925	0.223
Mof_C 	C 	0.90181	0.353	0.5298	-0.207
Mof_C 	C 	0.86698	0.32787	0.5301	0.102
Mof_C 	C 	0.9615	0.4169	0.4655	0.27
Mof_C 	C 	0.9972	0.4434	0.4674	-0.1
Mof_C 	C 	0.0244	0.4399	0.4992	0.045
Mof_C 	C 	0.80993	0.21	0.0021	0.411
Mof_C 	C 	0.8487	0.18385	0.007	-0.145
Mof_C 	C 	0.86524	0.17044	0.0443	0.112
Mof_C 	C 	0.90007	0.14531	0.0445	-0.215
Mof_C 	C 	0.91835	0.13359	0.0075	0.223
Mof_C 	C 	0.90181	0.147	0.9702	-0.207
Mof_C 	C 	0.86698	0.17213	0.9699	0.102
Mof_C 	C 	0.9615	0.0831	0.0345	0.27
Mof_C 	C 	0.9972	0.0566	0.0326	-0.098
Mof_C 	C 	0.0244	0.0601	0.0008	0.043
Mof_C 	C 	0.5021	0.71	0.30993	0.411
Mof_C 	C 	0.507	0.68385	0.3487	-0.145
Mof_C 	C 	0.5443	0.67044	0.36524	0.112
Mof_C 	C 	0.5445	0.64531	0.40007	-0.215
Mof_C 	C 	0.5075	0.63359	0.41835	0.223
Mof_C 	C 	0.4702	0.647	0.40181	-0.207
Mof_C 	C 	0.4699	0.67213	0.36698	0.102
Mof_C 	C 	0.5345	0.5831	0.4615	0.27
Mof_C 	C 	0.5326	0.5566	0.4972	-0.1
Mof_C 	C 	0.5008	0.5601	0.5244	0.045
Mof_C 	C 	0.9979	0.79	0.30993	0.411
Mof_C 	C 	0.993	0.81615	0.3487	-0.145
Mof_C 	C 	0.9557	0.82956	0.36524	0.112
Mof_C 	C 	0.9555	0.85469	0.40007	-0.215
Mof_C 	C 	0.9925	0.86641	0.41835	0.223
Mof_C 	C 	0.0298	0.853	0.40181	-0.207
Mof_C 	C 	0.0301	0.82787	0.36698	0.102
Mof_C 	C 	0.9655	0.9169	0.4615	0.27
Mof_C 	C 	0.9674	0.9434	0.4972	-0.099
Mof_C 	C 	0.9992	0.9399	0.5244	0.044
Mof_C 	C 	0.9979	0.71	0.19007	0.411
Mof_C 	C 	0.993	0.68385	0.1513	-0.145
Mof_C 	C 	0.9557	0.67044	0.13476	0.112
Mof_C 	C 	0.9555	0.64531	0.09993	-0.215
Mof_C 	C 	0.9925	0.63359	0.08165	0.223
Mof_C 	C 	0.0298	0.647	0.09819	-0.207
Mof_C 	C 	0.0301	0.67213	0.13302	0.102
Mof_C 	C 	0.9655	0.5831	0.0385	0.27
Mof_C 	C 	0.9674	0.5566	0.0028	-0.099
Mof_C 	C 	0.9992	0.5601	0.9756	0.044
Mof_C 	C 	0.5021	0.79	0.19007	0.411
Mof_C 	C 	0.507	0.81615	0.1513	-0.145
Mof_C 	C 	0.5443	0.82956	0.13476	0.112
Mof_C 	C 	0.5445	0.85469	0.09993	-0.215
Mof_C 	C 	0.5075	0.86641	0.08165	0.223
Mof_C 	C 	0.4702	0.853	0.09819	-0.207
Mof_C 	C 	0.4699	0.82787	0.13302	0.102
Mof_C 	C 	0.5345	0.9169	0.0385	0.27
Mof_C 	C 	0.5326	0.9434	0.0028	-0.099
Mof_C 	C 	0.5008	0.9399	0.9756	0.044
Mof_C 	C 	0.30993	0.5021	0.71	0.411
Mof_C 	C 	0.3487	0.507	0.68385	-0.145
Mof_C 	C 	0.36524	0.5443	0.67044	0.112
Mof_C 	C 	0.40007	0.5445	0.64531	-0.215
Mof_C 	C 	0.41835	0.5075	0.63359	0.223
Mof_C 	C 	0.40181	0.4702	0.647	-0.207
Mof_C 	C 	0.36698	0.4699	0.67213	0.102
Mof_C 	C 	0.4615	0.5345	0.5831	0.27
Mof_C 	C 	0.4972	0.5326	0.5566	-0.1
Mof_C 	C 	0.5244	0.5008	0.5601	0.045
Mof_C 	C 	0.30993	0.9979	0.79	0.411
Mof_C 	C 	0.3487	0.993	0.81615	-0.145
Mof_C 	C 	0.36524	0.9557	0.82956	0.112
Mof_C 	C 	0.40007	0.9555	0.85469	-0.215
Mof_C 	C 	0.41835	0.9925	0.86641	0.223
Mof_C 	C 	0.40181	0.0298	0.853	-0.207
Mof_C 	C 	0.36698	0.0301	0.82787	0.102
Mof_C 	C 	0.4615	0.9655	0.9169	0.27
Mof_C 	C 	0.4972	0.9674	0.9434	-0.099
Mof_C 	C 	0.5244	0.9992	0.9399	0.044
Mof_C 	C 	0.19007	0.9979	0.71	0.411
Mof_C 	C 	0.1513	0.993	0.68385	-0.145
Mof_C 	C 	0.13476	0.9557	0.67044	0.112
Mof_C 	C 	0.09993	0.9555	0.64531	-0.215
Mof_C 	C 	0.08165	0.9925	0.63359	0.223
Mof_C 	C 	0.09819	0.0298	0.647	-0.207
Mof_C 	C 	0.13302	0.0301	0.67213	0.102
Mof_C 	C 	0.0385	0.9655	0.5831	0.27
Mof_C 	C 	0.0028	0.9674	0.5566	-0.099
Mof_C 	C 	0.9756	0.9992	0.5601	0.044
Mof_C 	C 	0.19007	0.5021	0.79	0.411
Mof_C 	C 	0.1513	0.507	0.81615	-0.145
Mof_C 	C 	0.13476	0.5443	0.82956	0.112
Mof_C 	C 	0.09993	0.5445	0.85469	-0.215
Mof_C 	C 	0.08165	0.5075	0.86641	0.223
Mof_C 	C 	0.09819	0.4702	0.853	-0.207
Mof_C 	C 	0.13302	0.4699	0.82787	0.102
Mof_C 	C 	0.0385	0.5345	0.9169	0.27
Mof_C 	C 	0.0028	0.5326	0.9434	-0.099
Mof_C 	C 	0.9756	0.5008	0.9399	0.044
Mof_C 	C 	0.71	0.30993	0.5021	0.411
Mof_C 	C 	0.68385	0.3487	0.507	-0.145
Mof_C 	C 	0.67044	0.36524	0.5443	0.112
Mof_C 	C 	0.64531	0.40007	0.5445	-0.215
Mof_C 	C 	0.63359	0.41835	0.5075	0.223
Mof_C 	C 	0.647	0.40181	0.4702	-0.207
Mof_C 	C 	0.67213	0.36698	0.4699	0.102
Mof_C 	C 	0.5831	0.4615	0.5345	0.27
Mof_C 	C 	0.5566	0.4972	0.5326	-0.1
Mof_C 	C 	0.5601	0.5244	0.5008	0.045
Mof_C 	C 	0.79	0.30993	0.9979	0.411
Mof_C 	C 	0.81615	0.3487	0.993	-0.145
Mof_C 	C 	0.82956	0.36524	0.9557	0.112
Mof_C 	C 	0.85469	0.40007	0.9555	-0.215
Mof_C 	C 	0.86641	0.41835	0.9925	0.223
Mof_C 	C 	0.853	0.40181	0.0298	-0.207
Mof_C 	C 	0.82787	0.36698	0.0301	0.102
Mof_C 	C 	0.9169	0.4615	0.9655	0.27
Mof_C 	C 	0.9434	0.4972	0.9674	-0.099
Mof_C 	C 	0.9399	0.5244	0.9992	0.044
Mof_C 	C 	0.71	0.19007	0.9979	0.411
Mof_C 	C 	0.68385	0.1513	0.993	-0.145
Mof_C 	C 	0.67044	0.13476	0.9557	0.112
Mof_C 	C 	0.64531	0.09993	0.9555	-0.215
Mof_C 	C 	0.63359	0.08165	0.9925	0.223
Mof_C 	C 	0.647	0.09819	0.0298	-0.207
Mof_C 	C 	0.67213	0.13302	0.0301	0.102
Mof_C 	C 	0.5831	0.0385	0.9655	0.27
Mof_C 	C 	0.5566	0.0028	0.9674	-0.099
Mof_C 	C 	0.5601	0.9756	0.9992	0.044
Mof_C 	C 	0.79	0.19007	0.5021	0.411
Mof_C 	C 	0.81615	0.1513	0.507	-0.145
Mof_C 	C 	0.82956	0.13476	0.5443	0.112
Mof_C 	C 	0.85469	0.09993	0.5445	-0.215
Mof_C 	C 	0.86641	0.08165	0.5075	0.223
Mof_C 	C 	0.853	0.09819	0.4702	-0.207
Mof_C 	C 	0.82787	0.13302	0.4699	0.102
Mof_C 	C 	0.9169	0.0385	0.5345	0.27
Mof_C 	C 	0.9434	0.0028	0.5326	-0.099
Mof_C 	C 	0.9399	0.9756	0.5008	0.044
Mof_N 	N 	0.3896	0.4937	0.9535	-0.278
Mof_N 	N 	0.1104	0.0063	0.9535	-0.278
Mof_N 	N 	0.3896	0.0063	0.5465	-0.278
Mof_N 	N 	0.1104	0.4937	0.5465	-0.278
Mof_N 	N 	0.4937	0.5465	0.1104	-0.278
Mof_N 	N 	0.0063	0.5465	0.3896	-0.278
Mof_N 	N 	0.0063	0.9535	0.1104	-0.278
Mof_N 	N 	0.4937	0.9535	0.3896	-0.278
Mof_N 	N 	0.5465	0.3896	0.0063	-0.278
Mof_N 	N 	0.5465	0.1104	0.4937	-0.278
Mof_N 	N 	0.9535	0.3896	0.4937	-0.278
Mof_N 	N 	0.9535	0.1104	0.0063	-0.278
Mof_N 	N 	0.5063	0.6104	0.4535	-0.278
Mof_N 	N 	0.9937	0.8896	0.4535	-0.278
Mof_N 	N 	0.9937	0.6104	0.0465	-0.278
Mof_N 	N 	0.5063	0.8896	0.0465	-0.278
Mof_N 	N 	0.4535	0.5063	0.6104	-0.278
Mof_N 	N 	0.4535	0.9937	0.8896	-0.278
Mof_N 	N 	0.0465	0.9937	0.6104	-0.278
Mof_N 	N 	0.0465	0.5063	0.8896	-0.278
Mof_N 	N 	0.6104	0.4535	0.5063	-0.278
Mof_N 	N 	0.8896	0.4535	0.9937	-0.278
Mof_N 	N 	0.6104	0.0465	0.9937	-0.278
Mof_N 	N 	0.8896	0.0465	0.5063	-0.278
Mof_O 	O 	0.28427	0.46364	0.79672	-0.449
Mof_O 	O 	0.2846	0.5339	0.7995	-0.428
Mof_O 	O 	0.4256	0.4331	0.9446	-0.255
Mof_O 	O 	0.21573	0.03636	0.79672	-0.449
Mof_O 	O 	0.2154	0.9661	0.7995	-0.428
Mof_O 	O 	0.0744	0.0669	0.9446	-0.255
Mof_O 	O 	0.28427	0.03636	0.70328	-0.449
Mof_O 	O 	0.2846	0.9661	0.7005	-0.428
Mof_O 	O 	0.4256	0.0669	0.5554	-0.255
Mof_O 	O 	0.21573	0.46364	0.70328	-0.449
Mof_O 	O 	0.2154	0.5339	0.7005	-0.428
Mof_O 	O 	0.0744	0.4331	0.5554	-0.255
Mof_O 	O 	0.46364	0.70328	0.21573	-0.449
Mof_O 	O 	0.5339	0.7005	0.2154	-0.428
Mof_O 	O 	0.4331	0.5554	0.0744	-0.255
Mof_O 	O 	0.03636	0.70328	0.28427	-0.449
Mof_O 	O 	0.9661	0.7005	0.2846	-0.428
Mof_O 	O 	0.0669	0.5554	0.4256	-0.255
Mof_O 	O 	0.03636	0.79672	0.21573	-0.449
Mof_O 	O 	0.9661	0.7995	0.2154	-0.428
Mof_O 	O 	0.0669	0.9446	0.0744	-0.255
Mof_O 	O 	0.46364	0.79672	0.28427	-0.449
Mof_O 	O 	0.5339	0.7995	0.2846	-0.428
Mof_O 	O 	0.4331	0.9446	0.4256	-0.255
Mof_O 	O 	0.70328	0.28427	0.03636	-0.449
Mof_O 	O 	0.7005	0.2846	0.9661	-0.428
Mof_O 	O 	0.5554	0.4256	0.0669	-0.255
Mof_O 	O 	0.70328	0.21573	0.46364	-0.449
Mof_O 	O 	0.7005	0.2154	0.5339	-0.428
Mof_O 	O 	0.5554	0.0744	0.4331	-0.255
Mof_O 	O 	0.79672	0.28427	0.46364	-0.449
Mof_O 	O 	0.7995	0.2846	0.5339	-0.428
Mof_O 	O 	0.9446	0.4256	0.4331	-0.255
Mof_O 	O 	0.79672	0.21573	0.03636	-0.449
Mof_O 	O 	0.7995	0.2154	0.9661	-0.428
Mof_O 	O 	0.9446	0.0744	0.0669	-0.255
Mof_O 	O 	0.53636	0.71573	0.29672	-0.449
Mof_O 	O 	0.4661	0.7154	0.2995	-0.428
Mof_O 	O 	0.5669	0.5744	0.4446	-0.255
Mof_O 	O 	0.96364	0.78427	0.29672	-0.449
Mof_O 	O 	0.0339	0.7846	0.2995	-0.428
Mof_O 	O 	0.9331	0.9256	0.4446	-0.255
Mof_O 	O 	0.96364	0.71573	0.20328	-0.449
Mof_O 	O 	0.0339	0.7154	0.2005	-0.428
Mof_O 	O 	0.9331	0.5744	0.0554	-0.255
Mof_O 	O 	0.53636	0.78427	0.20328	-0.449
Mof_O 	O 	0.4661	0.7846	0.2005	-0.428
Mof_O 	O 	0.5669	0.9256	0.0554	-0.255
Mof_O 	O 	0.29672	0.53636	0.71573	-0.449
Mof_O 	O 	0.2995	0.4661	0.7154	-0.428
Mof_O 	O 	0.4446	0.5669	0.5744	-0.255
Mof_O 	O 	0.29672	0.96364	0.78427	-0.449
Mof_O 	O 	0.2995	0.0339	0.7846	-0.428
Mof_O 	O 	0.4446	0.9331	0.9256	-0.255
Mof_O 	O 	0.20328	0.96364	0.71573	-0.449
Mof_O 	O 	0.2005	0.0339	0.7154	-0.428
Mof_O 	O 	0.0554	0.9331	0.5744	-0.255
Mof_O 	O 	0.20328	0.53636	0.78427	-0.449
Mof_O 	O 	0.2005	0.4661	0.7846	-0.428
Mof_O 	O 	0.0554	0.5669	0.9256	-0.255
Mof_O 	O 	0.71573	0.29672	0.53636	-0.449
Mof_O 	O 	0.7154	0.2995	0.4661	-0.428
Mof_O 	O 	0.5744	0.4446	0.5669	-0.255
Mof_O 	O 	0.78427	0.29672	0.96364	-0.449
Mof_O 	O 	0.7846	0.2995	0.0339	-0.428
Mof_O 	O 	0.9256	0.4446	0.9331	-0.255
Mof_O 	O 	0.71573	0.20328	0.96364	-0.449
Mof_O 	O 	0.7154	0.2005	0.0339	-0.428
Mof_O 	O 	0.5744	0.0554	0.9331	-0.255
Mof_O 	O 	0.78427	0.20328	0.53636	-0.449
Mof_O 	O 	0.7846	0.2005	0.4661	-0.428
Mof_O 	O 	0.9256	0.0554	0.5669	-0.255
_end
