data_functionalizedCrystal
_audit_creation_method	'EQeq! by Chris Wilmer'
_symmetry_space_group_name_H-M	'P1'
_symmetry_Int_Tables_number	1
_symmetry_cell_setting	triclinic
loop_
_symmetry_equiv_pos_as_xyz
  x,y,z
_cell_length_a	4.5054
_cell_length_b	10.3354
_cell_length_c	10.8017
_cell_angle_alpha	77.933
_cell_angle_beta	79.23
_cell_angle_gamma	83.148
loop_
_atom_site_label
_atom_site_type_symbol
_atom_site_fract_x
_atom_site_fract_y
_atom_site_fract_z
_atom_site_charge
Mof_Gd	Gd	0.17178	0.11326	0.57849	1.748
Mof_O 	O 	0.7849	0.252	0.68	-0.483
Mof_O 	O 	0.3676	0.143	0.7583	-0.467
Mof_O 	O 	0.0518	0.0494	0.2482	-0.456
Mof_O 	O 	0.7128	0.0899	0.4993	-0.605
Mof_O 	O 	0.249	0.1775	0.3498	-0.489
Mof_N 	N 	0.925	0.4682	0.049	-0.085
Mof_C 	C 	0.5733	0.2089	0.7692	0.414
Mof_C 	C 	0.571	0.2414	0.8999	-0.105
Mof_C 	C 	0.7525	0.3366	0.9078	-0.027
Mof_H 	H 	0.8754	0.3778	0.8346	0.055
Mof_C 	C 	0.7509	0.3708	0.0264	0.064
Mof_C 	C 	0.5746	0.3039	0.135	-0.021
Mof_H 	H 	0.5754	0.3252	0.2144	0.048
Mof_C 	C 	0.3977	0.2061	0.127	-0.11
Mof_C 	C 	0.3916	0.175	0.0094	0.05
Mof_H 	H 	0.2701	0.1108	0.0029	0.039
Mof_C 	C 	0.219	0.1369	0.2507	0.429
Mof_Gd	Gd	0.82822	0.88674	0.42151	1.749
Mof_O 	O 	0.2151	0.748	0.32	-0.482
Mof_O 	O 	0.6324	0.857	0.2417	-0.467
Mof_O 	O 	0.9482	0.9506	0.7518	-0.456
Mof_O 	O 	0.2872	0.9101	0.5007	-0.605
Mof_O 	O 	0.751	0.8225	0.6502	-0.489
Mof_N 	N 	0.075	0.5318	0.951	-0.085
Mof_C 	C 	0.4267	0.7911	0.2308	0.414
Mof_C 	C 	0.429	0.7586	0.1001	-0.105
Mof_C 	C 	0.2475	0.6634	0.0922	-0.027
Mof_H 	H 	0.1246	0.6222	0.1654	0.055
Mof_C 	C 	0.2491	0.6292	0.9736	0.064
Mof_C 	C 	0.4254	0.6961	0.865	-0.021
Mof_H 	H 	0.4246	0.6748	0.7856	0.048
Mof_C 	C 	0.6023	0.7939	0.873	-0.11
Mof_C 	C 	0.6084	0.825	0.9906	0.05
Mof_H 	H 	0.7299	0.8892	0.9971	0.039
Mof_C 	C 	0.781	0.8631	0.7493	0.429
_end
