data_functionalizedCrystal
_audit_creation_method	'EQeq! by Chris Wilmer'
_symmetry_space_group_name_H-M	'P1'
_symmetry_Int_Tables_number	1
_symmetry_cell_setting	triclinic
loop_
_symmetry_equiv_pos_as_xyz
  x,y,z
_cell_length_a	22.522
_cell_length_b	22.522
_cell_length_c	33.6
_cell_angle_alpha	90
_cell_angle_beta	90
_cell_angle_gamma	90
loop_
_atom_site_label
_atom_site_type_symbol
_atom_site_fract_x
_atom_site_fract_y
_atom_site_fract_z
_atom_site_charge
Mof_N 	N 	0.23688	0.08135	0.64243	-0.243
Mof_C 	C 	0.2202	0.1139	0.67355	0.088
Mof_H 	H 	0.2505	0.1335	0.6881	-0.023
Mof_C 	C 	0.1633	0.1213	0.68613	-0.16
Mof_H 	H 	0.1548	0.1461	0.7083	0.082
Mof_C 	C 	0.1177	0.092	0.6661	0.095
Mof_C 	C 	0.1343	0.0576	0.63369	-0.155
Mof_H 	H 	0.1048	0.0375	0.6187	0.08
Mof_C 	C 	0.19282	0.0524	0.62312	0.078
Mof_H 	H 	0.2029	0.0275	0.6013	-0.017
Mof_C 	C 	0.0552	0.096	0.6783	-0.036
Mof_C 	C 	0.03207	0.1005	0.71567	-0.027
Mof_C 	C 	0.067	0.0965	0.75313	0.098
Mof_C 	C 	0.0909	0.044	0.76507	-0.162
Mof_H 	H 	0.0876	0.0099	0.7486	0.083
Mof_C 	C 	0.1203	0.0404	0.80151	0.089
Mof_H 	H 	0.1355	0.0029	0.8095	-0.025
Mof_N 	N 	0.12803	0.08557	0.82541	-0.255
Mof_C 	C 	0.1041	0.1369	0.81397	0.081
Mof_H 	H 	0.1073	0.1701	0.8312	-0.026
Mof_C 	C 	0.0744	0.1441	0.77775	-0.16
Mof_H 	H 	0.0595	0.182	0.7703	0.076
Mof_N 	N 	0.73688	0.58135	0.14243	-0.243
Mof_C 	C 	0.7202	0.6139	0.17355	0.088
Mof_H 	H 	0.7505	0.6335	0.1881	-0.023
Mof_C 	C 	0.6633	0.6213	0.18613	-0.16
Mof_H 	H 	0.6548	0.6461	0.2083	0.082
Mof_C 	C 	0.6177	0.592	0.1661	0.095
Mof_C 	C 	0.6343	0.5576	0.13369	-0.155
Mof_H 	H 	0.6048	0.5375	0.1187	0.08
Mof_C 	C 	0.69282	0.5524	0.12312	0.078
Mof_H 	H 	0.7029	0.5275	0.1013	-0.017
Mof_C 	C 	0.5552	0.596	0.1783	-0.036
Mof_C 	C 	0.53207	0.6005	0.21567	-0.028
Mof_C 	C 	0.567	0.5965	0.25313	0.098
Mof_C 	C 	0.5909	0.544	0.26507	-0.162
Mof_H 	H 	0.5876	0.5099	0.2486	0.083
Mof_C 	C 	0.6203	0.5404	0.30151	0.089
Mof_H 	H 	0.6355	0.5029	0.3095	-0.025
Mof_N 	N 	0.62803	0.58557	0.32541	-0.255
Mof_C 	C 	0.6041	0.6369	0.31397	0.082
Mof_H 	H 	0.6073	0.6701	0.3312	-0.027
Mof_C 	C 	0.5744	0.6441	0.27775	-0.161
Mof_H 	H 	0.5595	0.682	0.2703	0.076
Mof_N 	N 	0.26312	0.91865	0.14243	-0.243
Mof_C 	C 	0.2798	0.8861	0.17355	0.088
Mof_H 	H 	0.2495	0.8665	0.1881	-0.023
Mof_C 	C 	0.3367	0.8787	0.18613	-0.16
Mof_H 	H 	0.3452	0.8539	0.2083	0.082
Mof_C 	C 	0.3823	0.908	0.1661	0.095
Mof_C 	C 	0.3657	0.9424	0.13369	-0.155
Mof_H 	H 	0.3952	0.9625	0.1187	0.08
Mof_C 	C 	0.30718	0.9476	0.12312	0.078
Mof_H 	H 	0.2971	0.9725	0.1013	-0.017
Mof_C 	C 	0.4448	0.904	0.1783	-0.036
Mof_C 	C 	0.46793	0.8995	0.21567	-0.028
Mof_C 	C 	0.433	0.9035	0.25313	0.098
Mof_C 	C 	0.4091	0.956	0.26507	-0.162
Mof_H 	H 	0.4124	0.9901	0.2486	0.083
Mof_C 	C 	0.3797	0.9596	0.30151	0.089
Mof_H 	H 	0.3645	0.9971	0.3095	-0.025
Mof_N 	N 	0.37197	0.91443	0.32541	-0.255
Mof_C 	C 	0.3959	0.8631	0.31397	0.082
Mof_H 	H 	0.3927	0.8299	0.3312	-0.027
Mof_C 	C 	0.4256	0.8559	0.27775	-0.161
Mof_H 	H 	0.4405	0.818	0.2703	0.076
Mof_N 	N 	0.76312	0.41865	0.64243	-0.243
Mof_C 	C 	0.7798	0.3861	0.67355	0.088
Mof_H 	H 	0.7495	0.3665	0.6881	-0.023
Mof_C 	C 	0.8367	0.3787	0.68613	-0.16
Mof_H 	H 	0.8452	0.3539	0.7083	0.082
Mof_C 	C 	0.8823	0.408	0.6661	0.095
Mof_C 	C 	0.8657	0.4424	0.63369	-0.154
Mof_H 	H 	0.8952	0.4625	0.6187	0.08
Mof_C 	C 	0.80718	0.4476	0.62312	0.079
Mof_H 	H 	0.7971	0.4725	0.6013	-0.016
Mof_C 	C 	0.9448	0.404	0.6783	-0.035
Mof_C 	C 	0.96793	0.3995	0.71567	-0.027
Mof_C 	C 	0.933	0.4035	0.75313	0.099
Mof_C 	C 	0.9091	0.456	0.76507	-0.161
Mof_H 	H 	0.9124	0.4901	0.7486	0.084
Mof_C 	C 	0.8797	0.4596	0.80151	0.09
Mof_H 	H 	0.8645	0.4971	0.8095	-0.024
Mof_N 	N 	0.87197	0.41443	0.82541	-0.254
Mof_C 	C 	0.8959	0.3631	0.81397	0.082
Mof_H 	H 	0.8927	0.3299	0.8312	-0.026
Mof_C 	C 	0.9256	0.3559	0.77775	-0.16
Mof_H 	H 	0.9405	0.318	0.7703	0.077
Mof_N 	N 	0.16865	0.98688	0.89243	-0.242
Mof_C 	C 	0.1361	0.9702	0.92355	0.089
Mof_H 	H 	0.1165	0.0005	0.9381	-0.022
Mof_C 	C 	0.1287	0.9133	0.93613	-0.16
Mof_H 	H 	0.1039	0.9048	0.9583	0.083
Mof_C 	C 	0.158	0.8677	0.9161	0.096
Mof_C 	C 	0.1924	0.8843	0.88369	-0.154
Mof_H 	H 	0.2125	0.8548	0.8687	0.081
Mof_C 	C 	0.1976	0.94282	0.87312	0.079
Mof_H 	H 	0.2225	0.9529	0.8513	-0.016
Mof_C 	C 	0.154	0.8052	0.9283	-0.035
Mof_C 	C 	0.1495	0.78207	0.96567	-0.027
Mof_C 	C 	0.1535	0.817	0.00313	0.099
Mof_C 	C 	0.206	0.8409	0.01507	-0.162
Mof_H 	H 	0.2401	0.8376	0.9986	0.084
Mof_C 	C 	0.2096	0.8703	0.05151	0.09
Mof_H 	H 	0.2471	0.8855	0.0595	-0.024
Mof_N 	N 	0.16443	0.87803	0.07541	-0.254
Mof_C 	C 	0.1131	0.8541	0.06397	0.083
Mof_H 	H 	0.0799	0.8573	0.0812	-0.025
Mof_C 	C 	0.1059	0.8244	0.02775	-0.16
Mof_H 	H 	0.068	0.8095	0.0203	0.077
Mof_N 	N 	0.66865	0.48688	0.39243	-0.242
Mof_C 	C 	0.6361	0.4702	0.42355	0.089
Mof_H 	H 	0.6165	0.5005	0.4381	-0.022
Mof_C 	C 	0.6287	0.4133	0.43613	-0.159
Mof_H 	H 	0.6039	0.4048	0.4583	0.083
Mof_C 	C 	0.658	0.3677	0.4161	0.096
Mof_C 	C 	0.6924	0.3843	0.38369	-0.154
Mof_H 	H 	0.7125	0.3548	0.3687	0.081
Mof_C 	C 	0.6976	0.44282	0.37312	0.079
Mof_H 	H 	0.7225	0.4529	0.3513	-0.016
Mof_C 	C 	0.654	0.3052	0.4283	-0.035
Mof_C 	C 	0.6495	0.28207	0.46567	-0.027
Mof_C 	C 	0.6535	0.317	0.50313	0.099
Mof_C 	C 	0.706	0.3409	0.51507	-0.161
Mof_H 	H 	0.7401	0.3376	0.4986	0.084
Mof_C 	C 	0.7096	0.3703	0.55151	0.09
Mof_H 	H 	0.7471	0.3855	0.5595	-0.024
Mof_N 	N 	0.66443	0.37803	0.57541	-0.254
Mof_C 	C 	0.6131	0.3541	0.56397	0.083
Mof_H 	H 	0.5799	0.3573	0.5812	-0.026
Mof_C 	C 	0.6059	0.3244	0.52775	-0.16
Mof_H 	H 	0.568	0.3095	0.5203	0.077
Mof_N 	N 	0.33135	0.01312	0.39243	-0.242
Mof_C 	C 	0.3639	0.0298	0.42355	0.089
Mof_H 	H 	0.3835	0.9995	0.4381	-0.022
Mof_C 	C 	0.3713	0.0867	0.43613	-0.159
Mof_H 	H 	0.3961	0.0952	0.4583	0.083
Mof_C 	C 	0.342	0.1323	0.4161	0.096
Mof_C 	C 	0.3076	0.1157	0.38369	-0.154
Mof_H 	H 	0.2875	0.1452	0.3687	0.081
Mof_C 	C 	0.3024	0.05718	0.37312	0.079
Mof_H 	H 	0.2775	0.0471	0.3513	-0.016
Mof_C 	C 	0.346	0.1948	0.4283	-0.035
Mof_C 	C 	0.3505	0.21793	0.46567	-0.027
Mof_C 	C 	0.3465	0.183	0.50313	0.099
Mof_C 	C 	0.294	0.1591	0.51507	-0.161
Mof_H 	H 	0.2599	0.1624	0.4986	0.084
Mof_C 	C 	0.2904	0.1297	0.55151	0.09
Mof_H 	H 	0.2529	0.1145	0.5595	-0.024
Mof_N 	N 	0.33557	0.12197	0.57541	-0.254
Mof_C 	C 	0.3869	0.1459	0.56397	0.083
Mof_H 	H 	0.4201	0.1427	0.5812	-0.026
Mof_C 	C 	0.3941	0.1756	0.52775	-0.16
Mof_H 	H 	0.432	0.1905	0.5203	0.077
Mof_N 	N 	0.83135	0.51312	0.89243	-0.242
Mof_C 	C 	0.8639	0.5298	0.92355	0.089
Mof_H 	H 	0.8835	0.4995	0.9381	-0.022
Mof_C 	C 	0.8713	0.5867	0.93613	-0.159
Mof_H 	H 	0.8961	0.5952	0.9583	0.083
Mof_C 	C 	0.842	0.6323	0.9161	0.096
Mof_C 	C 	0.8076	0.6157	0.88369	-0.154
Mof_H 	H 	0.7875	0.6452	0.8687	0.081
Mof_C 	C 	0.8024	0.55718	0.87312	0.079
Mof_H 	H 	0.7775	0.5471	0.8513	-0.016
Mof_C 	C 	0.846	0.6948	0.9283	-0.035
Mof_C 	C 	0.8505	0.71793	0.96567	-0.027
Mof_C 	C 	0.8465	0.683	0.00313	0.099
Mof_C 	C 	0.794	0.6591	0.01507	-0.161
Mof_H 	H 	0.7599	0.6624	0.9986	0.084
Mof_C 	C 	0.7904	0.6297	0.05151	0.09
Mof_H 	H 	0.7529	0.6145	0.0595	-0.024
Mof_N 	N 	0.83557	0.62197	0.07541	-0.254
Mof_C 	C 	0.8869	0.6459	0.06397	0.082
Mof_H 	H 	0.9201	0.6427	0.0812	-0.026
Mof_C 	C 	0.8941	0.6756	0.02775	-0.16
Mof_H 	H 	0.932	0.6905	0.0203	0.077
Mof_N 	N 	0.26312	0.08135	0.85757	-0.242
Mof_C 	C 	0.2798	0.1139	0.82645	0.089
Mof_H 	H 	0.2495	0.1335	0.8119	-0.022
Mof_C 	C 	0.3367	0.1213	0.81387	-0.159
Mof_H 	H 	0.3452	0.1461	0.7917	0.083
Mof_C 	C 	0.3823	0.092	0.8339	0.096
Mof_C 	C 	0.3657	0.0576	0.86631	-0.154
Mof_H 	H 	0.3952	0.0375	0.8813	0.081
Mof_C 	C 	0.30718	0.0524	0.87688	0.079
Mof_H 	H 	0.2971	0.0275	0.8987	-0.016
Mof_C 	C 	0.4448	0.096	0.8217	-0.035
Mof_C 	C 	0.46793	0.1005	0.78433	-0.027
Mof_C 	C 	0.433	0.0965	0.74687	0.099
Mof_C 	C 	0.4091	0.044	0.73493	-0.161
Mof_H 	H 	0.4124	0.0099	0.7514	0.084
Mof_C 	C 	0.3797	0.0404	0.69849	0.09
Mof_H 	H 	0.3645	0.0029	0.6905	-0.024
Mof_N 	N 	0.37197	0.08557	0.67459	-0.254
Mof_C 	C 	0.3959	0.1369	0.68603	0.083
Mof_H 	H 	0.3927	0.1701	0.6688	-0.026
Mof_C 	C 	0.4256	0.1441	0.72225	-0.16
Mof_H 	H 	0.4405	0.182	0.7297	0.077
Mof_N 	N 	0.76312	0.58135	0.35757	-0.242
Mof_C 	C 	0.7798	0.6139	0.32645	0.089
Mof_H 	H 	0.7495	0.6335	0.3119	-0.022
Mof_C 	C 	0.8367	0.6213	0.31387	-0.159
Mof_H 	H 	0.8452	0.6461	0.2917	0.083
Mof_C 	C 	0.8823	0.592	0.3339	0.096
Mof_C 	C 	0.8657	0.5576	0.36631	-0.154
Mof_H 	H 	0.8952	0.5375	0.3813	0.08
Mof_C 	C 	0.80718	0.5524	0.37688	0.079
Mof_H 	H 	0.7971	0.5275	0.3987	-0.016
Mof_C 	C 	0.9448	0.596	0.3217	-0.035
Mof_C 	C 	0.96793	0.6005	0.28433	-0.027
Mof_C 	C 	0.933	0.5965	0.24687	0.099
Mof_C 	C 	0.9091	0.544	0.23493	-0.161
Mof_H 	H 	0.9124	0.5099	0.2514	0.084
Mof_C 	C 	0.8797	0.5404	0.19849	0.09
Mof_H 	H 	0.8645	0.5029	0.1905	-0.024
Mof_N 	N 	0.87197	0.58557	0.17459	-0.254
Mof_C 	C 	0.8959	0.6369	0.18603	0.082
Mof_H 	H 	0.8927	0.6701	0.1688	-0.026
Mof_C 	C 	0.9256	0.6441	0.22225	-0.16
Mof_H 	H 	0.9405	0.682	0.2297	0.077
Mof_N 	N 	0.23688	0.91865	0.35757	-0.242
Mof_C 	C 	0.2202	0.8861	0.32645	0.089
Mof_H 	H 	0.2505	0.8665	0.3119	-0.022
Mof_C 	C 	0.1633	0.8787	0.31387	-0.159
Mof_H 	H 	0.1548	0.8539	0.2917	0.083
Mof_C 	C 	0.1177	0.908	0.3339	0.096
Mof_C 	C 	0.1343	0.9424	0.36631	-0.154
Mof_H 	H 	0.1048	0.9625	0.3813	0.081
Mof_C 	C 	0.19282	0.9476	0.37688	0.079
Mof_H 	H 	0.2029	0.9725	0.3987	-0.016
Mof_C 	C 	0.0552	0.904	0.3217	-0.035
Mof_C 	C 	0.03207	0.8995	0.28433	-0.026
Mof_C 	C 	0.067	0.9035	0.24687	0.099
Mof_C 	C 	0.0909	0.956	0.23493	-0.161
Mof_H 	H 	0.0876	0.9901	0.2514	0.084
Mof_C 	C 	0.1203	0.9596	0.19849	0.09
Mof_H 	H 	0.1355	0.9971	0.1905	-0.024
Mof_N 	N 	0.12803	0.91443	0.17459	-0.254
Mof_C 	C 	0.1041	0.8631	0.18603	0.082
Mof_H 	H 	0.1073	0.8299	0.1688	-0.025
Mof_C 	C 	0.0744	0.8559	0.22225	-0.159
Mof_H 	H 	0.0595	0.818	0.2297	0.077
Mof_N 	N 	0.73688	0.41865	0.85757	-0.242
Mof_C 	C 	0.7202	0.3861	0.82645	0.089
Mof_H 	H 	0.7505	0.3665	0.8119	-0.022
Mof_C 	C 	0.6633	0.3787	0.81387	-0.159
Mof_H 	H 	0.6548	0.3539	0.7917	0.083
Mof_C 	C 	0.6177	0.408	0.8339	0.096
Mof_C 	C 	0.6343	0.4424	0.86631	-0.154
Mof_H 	H 	0.6048	0.4625	0.8813	0.081
Mof_C 	C 	0.69282	0.4476	0.87688	0.079
Mof_H 	H 	0.7029	0.4725	0.8987	-0.016
Mof_C 	C 	0.5552	0.404	0.8217	-0.035
Mof_C 	C 	0.53207	0.3995	0.78433	-0.027
Mof_C 	C 	0.567	0.4035	0.74687	0.099
Mof_C 	C 	0.5909	0.456	0.73493	-0.161
Mof_H 	H 	0.5876	0.4901	0.7514	0.084
Mof_C 	C 	0.6203	0.4596	0.69849	0.09
Mof_H 	H 	0.6355	0.4971	0.6905	-0.024
Mof_N 	N 	0.62803	0.41443	0.67459	-0.254
Mof_C 	C 	0.6041	0.3631	0.68603	0.083
Mof_H 	H 	0.6073	0.3299	0.6688	-0.026
Mof_C 	C 	0.5744	0.3559	0.72225	-0.16
Mof_H 	H 	0.5595	0.318	0.7297	0.077
Mof_N 	N 	0.33135	0.98688	0.60757	-0.242
Mof_C 	C 	0.3639	0.9702	0.57645	0.089
Mof_H 	H 	0.3835	0.0005	0.5619	-0.022
Mof_C 	C 	0.3713	0.9133	0.56387	-0.159
Mof_H 	H 	0.3961	0.9048	0.5417	0.083
Mof_C 	C 	0.342	0.8677	0.5839	0.096
Mof_C 	C 	0.3076	0.8843	0.61631	-0.154
Mof_H 	H 	0.2875	0.8548	0.6313	0.081
Mof_C 	C 	0.3024	0.94282	0.62688	0.079
Mof_H 	H 	0.2775	0.9529	0.6487	-0.016
Mof_C 	C 	0.346	0.8052	0.5717	-0.035
Mof_C 	C 	0.3505	0.78207	0.53433	-0.027
Mof_C 	C 	0.3465	0.817	0.49687	0.099
Mof_C 	C 	0.294	0.8409	0.48493	-0.161
Mof_H 	H 	0.2599	0.8376	0.5014	0.084
Mof_C 	C 	0.2904	0.8703	0.44849	0.09
Mof_H 	H 	0.2529	0.8855	0.4405	-0.024
Mof_N 	N 	0.33557	0.87803	0.42459	-0.254
Mof_C 	C 	0.3869	0.8541	0.43603	0.083
Mof_H 	H 	0.4201	0.8573	0.4188	-0.026
Mof_C 	C 	0.3941	0.8244	0.47225	-0.16
Mof_H 	H 	0.432	0.8095	0.4797	0.077
Mof_N 	N 	0.83135	0.48688	0.10757	-0.242
Mof_C 	C 	0.8639	0.4702	0.07645	0.089
Mof_H 	H 	0.8835	0.5005	0.0619	-0.022
Mof_C 	C 	0.8713	0.4133	0.06387	-0.159
Mof_H 	H 	0.8961	0.4048	0.0417	0.083
Mof_C 	C 	0.842	0.3677	0.0839	0.096
Mof_C 	C 	0.8076	0.3843	0.11631	-0.154
Mof_H 	H 	0.7875	0.3548	0.1313	0.081
Mof_C 	C 	0.8024	0.44282	0.12688	0.079
Mof_H 	H 	0.7775	0.4529	0.1487	-0.016
Mof_C 	C 	0.846	0.3052	0.0717	-0.035
Mof_C 	C 	0.8505	0.28207	0.03433	-0.027
Mof_C 	C 	0.8465	0.317	0.99687	0.099
Mof_C 	C 	0.794	0.3409	0.98493	-0.161
Mof_H 	H 	0.7599	0.3376	0.0014	0.084
Mof_C 	C 	0.7904	0.3703	0.94849	0.09
Mof_H 	H 	0.7529	0.3855	0.9405	-0.024
Mof_N 	N 	0.83557	0.37803	0.92459	-0.254
Mof_C 	C 	0.8869	0.3541	0.93603	0.082
Mof_H 	H 	0.9201	0.3573	0.9188	-0.026
Mof_C 	C 	0.8941	0.3244	0.97225	-0.16
Mof_H 	H 	0.932	0.3095	0.9797	0.077
Mof_N 	N 	0.16865	0.01312	0.10757	-0.242
Mof_C 	C 	0.1361	0.0298	0.07645	0.089
Mof_H 	H 	0.1165	0.9995	0.0619	-0.022
Mof_C 	C 	0.1287	0.0867	0.06387	-0.16
Mof_H 	H 	0.1039	0.0952	0.0417	0.083
Mof_C 	C 	0.158	0.1323	0.0839	0.096
Mof_C 	C 	0.1924	0.1157	0.11631	-0.154
Mof_H 	H 	0.2125	0.1452	0.1313	0.081
Mof_C 	C 	0.1976	0.05718	0.12688	0.079
Mof_H 	H 	0.2225	0.0471	0.1487	-0.016
Mof_C 	C 	0.154	0.1948	0.0717	-0.035
Mof_C 	C 	0.1495	0.21793	0.03433	-0.027
Mof_C 	C 	0.1535	0.183	0.99687	0.099
Mof_C 	C 	0.206	0.1591	0.98493	-0.162
Mof_H 	H 	0.2401	0.1624	0.0014	0.084
Mof_C 	C 	0.2096	0.1297	0.94849	0.09
Mof_H 	H 	0.2471	0.1145	0.9405	-0.024
Mof_N 	N 	0.16443	0.12197	0.92459	-0.254
Mof_C 	C 	0.1131	0.1459	0.93603	0.083
Mof_H 	H 	0.0799	0.1427	0.9188	-0.025
Mof_C 	C 	0.1059	0.1756	0.97225	-0.16
Mof_H 	H 	0.068	0.1905	0.9797	0.077
Mof_N 	N 	0.66865	0.51312	0.60757	-0.242
Mof_C 	C 	0.6361	0.5298	0.57645	0.089
Mof_H 	H 	0.6165	0.4995	0.5619	-0.022
Mof_C 	C 	0.6287	0.5867	0.56387	-0.159
Mof_H 	H 	0.6039	0.5952	0.5417	0.083
Mof_C 	C 	0.658	0.6323	0.5839	0.096
Mof_C 	C 	0.6924	0.6157	0.61631	-0.154
Mof_H 	H 	0.7125	0.6452	0.6313	0.081
Mof_C 	C 	0.6976	0.55718	0.62688	0.079
Mof_H 	H 	0.7225	0.5471	0.6487	-0.016
Mof_C 	C 	0.654	0.6948	0.5717	-0.035
Mof_C 	C 	0.6495	0.71793	0.53433	-0.027
Mof_C 	C 	0.6535	0.683	0.49687	0.099
Mof_C 	C 	0.706	0.6591	0.48493	-0.161
Mof_H 	H 	0.7401	0.6624	0.5014	0.084
Mof_C 	C 	0.7096	0.6297	0.44849	0.09
Mof_H 	H 	0.7471	0.6145	0.4405	-0.024
Mof_N 	N 	0.66443	0.62197	0.42459	-0.254
Mof_C 	C 	0.6131	0.6459	0.43603	0.083
Mof_H 	H 	0.5799	0.6427	0.4188	-0.026
Mof_C 	C 	0.6059	0.6756	0.47225	-0.16
Mof_H 	H 	0.568	0.6905	0.4797	0.077
Mof_N 	N 	0.76312	0.91865	0.35757	-0.242
Mof_C 	C 	0.7798	0.8861	0.32645	0.089
Mof_H 	H 	0.7495	0.8665	0.3119	-0.022
Mof_C 	C 	0.8367	0.8787	0.31387	-0.159
Mof_H 	H 	0.8452	0.8539	0.2917	0.083
Mof_C 	C 	0.8823	0.908	0.3339	0.096
Mof_C 	C 	0.8657	0.9424	0.36631	-0.154
Mof_H 	H 	0.8952	0.9625	0.3813	0.08
Mof_C 	C 	0.80718	0.9476	0.37688	0.079
Mof_H 	H 	0.7971	0.9725	0.3987	-0.016
Mof_C 	C 	0.9448	0.904	0.3217	-0.035
Mof_C 	C 	0.96793	0.8995	0.28433	-0.027
Mof_C 	C 	0.933	0.9035	0.24687	0.099
Mof_C 	C 	0.9091	0.956	0.23493	-0.161
Mof_H 	H 	0.9124	0.9901	0.2514	0.084
Mof_C 	C 	0.8797	0.9596	0.19849	0.09
Mof_H 	H 	0.8645	0.9971	0.1905	-0.024
Mof_N 	N 	0.87197	0.91443	0.17459	-0.254
Mof_C 	C 	0.8959	0.8631	0.18603	0.082
Mof_H 	H 	0.8927	0.8299	0.1688	-0.026
Mof_C 	C 	0.9256	0.8559	0.22225	-0.16
Mof_H 	H 	0.9405	0.818	0.2297	0.077
Mof_N 	N 	0.26312	0.41865	0.85757	-0.242
Mof_C 	C 	0.2798	0.3861	0.82645	0.089
Mof_H 	H 	0.2495	0.3665	0.8119	-0.022
Mof_C 	C 	0.3367	0.3787	0.81387	-0.159
Mof_H 	H 	0.3452	0.3539	0.7917	0.083
Mof_C 	C 	0.3823	0.408	0.8339	0.096
Mof_C 	C 	0.3657	0.4424	0.86631	-0.154
Mof_H 	H 	0.3952	0.4625	0.8813	0.081
Mof_C 	C 	0.30718	0.4476	0.87688	0.079
Mof_H 	H 	0.2971	0.4725	0.8987	-0.016
Mof_C 	C 	0.4448	0.404	0.8217	-0.035
Mof_C 	C 	0.46793	0.3995	0.78433	-0.027
Mof_C 	C 	0.433	0.4035	0.74687	0.099
Mof_C 	C 	0.4091	0.456	0.73493	-0.161
Mof_H 	H 	0.4124	0.4901	0.7514	0.084
Mof_C 	C 	0.3797	0.4596	0.69849	0.09
Mof_H 	H 	0.3645	0.4971	0.6905	-0.024
Mof_N 	N 	0.37197	0.41443	0.67459	-0.254
Mof_C 	C 	0.3959	0.3631	0.68603	0.083
Mof_H 	H 	0.3927	0.3299	0.6688	-0.026
Mof_C 	C 	0.4256	0.3559	0.72225	-0.16
Mof_H 	H 	0.4405	0.318	0.7297	0.077
Mof_N 	N 	0.73688	0.08135	0.85757	-0.242
Mof_C 	C 	0.7202	0.1139	0.82645	0.089
Mof_H 	H 	0.7505	0.1335	0.8119	-0.022
Mof_C 	C 	0.6633	0.1213	0.81387	-0.159
Mof_H 	H 	0.6548	0.1461	0.7917	0.083
Mof_C 	C 	0.6177	0.092	0.8339	0.096
Mof_C 	C 	0.6343	0.0576	0.86631	-0.154
Mof_H 	H 	0.6048	0.0375	0.8813	0.081
Mof_C 	C 	0.69282	0.0524	0.87688	0.079
Mof_H 	H 	0.7029	0.0275	0.8987	-0.016
Mof_C 	C 	0.5552	0.096	0.8217	-0.035
Mof_C 	C 	0.53207	0.1005	0.78433	-0.027
Mof_C 	C 	0.567	0.0965	0.74687	0.099
Mof_C 	C 	0.5909	0.044	0.73493	-0.161
Mof_H 	H 	0.5876	0.0099	0.7514	0.084
Mof_C 	C 	0.6203	0.0404	0.69849	0.09
Mof_H 	H 	0.6355	0.0029	0.6905	-0.024
Mof_N 	N 	0.62803	0.08557	0.67459	-0.254
Mof_C 	C 	0.6041	0.1369	0.68603	0.083
Mof_H 	H 	0.6073	0.1701	0.6688	-0.026
Mof_C 	C 	0.5744	0.1441	0.72225	-0.16
Mof_H 	H 	0.5595	0.182	0.7297	0.077
Mof_N 	N 	0.23688	0.58135	0.35757	-0.242
Mof_C 	C 	0.2202	0.6139	0.32645	0.089
Mof_H 	H 	0.2505	0.6335	0.3119	-0.022
Mof_C 	C 	0.1633	0.6213	0.31387	-0.159
Mof_H 	H 	0.1548	0.6461	0.2917	0.083
Mof_C 	C 	0.1177	0.592	0.3339	0.096
Mof_C 	C 	0.1343	0.5576	0.36631	-0.154
Mof_H 	H 	0.1048	0.5375	0.3813	0.081
Mof_C 	C 	0.19282	0.5524	0.37688	0.079
Mof_H 	H 	0.2029	0.5275	0.3987	-0.016
Mof_C 	C 	0.0552	0.596	0.3217	-0.035
Mof_C 	C 	0.03207	0.6005	0.28433	-0.026
Mof_C 	C 	0.067	0.5965	0.24687	0.099
Mof_C 	C 	0.0909	0.544	0.23493	-0.161
Mof_H 	H 	0.0876	0.5099	0.2514	0.084
Mof_C 	C 	0.1203	0.5404	0.19849	0.09
Mof_H 	H 	0.1355	0.5029	0.1905	-0.024
Mof_N 	N 	0.12803	0.58557	0.17459	-0.254
Mof_C 	C 	0.1041	0.6369	0.18603	0.082
Mof_H 	H 	0.1073	0.6701	0.1688	-0.025
Mof_C 	C 	0.0744	0.6441	0.22225	-0.159
Mof_H 	H 	0.0595	0.682	0.2297	0.077
Mof_N 	N 	0.83135	0.01312	0.10757	-0.242
Mof_C 	C 	0.8639	0.0298	0.07645	0.089
Mof_H 	H 	0.8835	0.9995	0.0619	-0.022
Mof_C 	C 	0.8713	0.0867	0.06387	-0.16
Mof_H 	H 	0.8961	0.0952	0.0417	0.083
Mof_C 	C 	0.842	0.1323	0.0839	0.096
Mof_C 	C 	0.8076	0.1157	0.11631	-0.154
Mof_H 	H 	0.7875	0.1452	0.1313	0.081
Mof_C 	C 	0.8024	0.05718	0.12688	0.079
Mof_H 	H 	0.7775	0.0471	0.1487	-0.016
Mof_C 	C 	0.846	0.1948	0.0717	-0.035
Mof_C 	C 	0.8505	0.21793	0.03433	-0.027
Mof_C 	C 	0.8465	0.183	0.99687	0.099
Mof_C 	C 	0.794	0.1591	0.98493	-0.161
Mof_H 	H 	0.7599	0.1624	0.0014	0.084
Mof_C 	C 	0.7904	0.1297	0.94849	0.09
Mof_H 	H 	0.7529	0.1145	0.9405	-0.024
Mof_N 	N 	0.83557	0.12197	0.92459	-0.254
Mof_C 	C 	0.8869	0.1459	0.93603	0.082
Mof_H 	H 	0.9201	0.1427	0.9188	-0.026
Mof_C 	C 	0.8941	0.1756	0.97225	-0.16
Mof_H 	H 	0.932	0.1905	0.9797	0.077
Mof_N 	N 	0.33135	0.51312	0.60757	-0.242
Mof_C 	C 	0.3639	0.5298	0.57645	0.089
Mof_H 	H 	0.3835	0.4995	0.5619	-0.022
Mof_C 	C 	0.3713	0.5867	0.56387	-0.159
Mof_H 	H 	0.3961	0.5952	0.5417	0.083
Mof_C 	C 	0.342	0.6323	0.5839	0.096
Mof_C 	C 	0.3076	0.6157	0.61631	-0.154
Mof_H 	H 	0.2875	0.6452	0.6313	0.081
Mof_C 	C 	0.3024	0.55718	0.62688	0.079
Mof_H 	H 	0.2775	0.5471	0.6487	-0.016
Mof_C 	C 	0.346	0.6948	0.5717	-0.035
Mof_C 	C 	0.3505	0.71793	0.53433	-0.027
Mof_C 	C 	0.3465	0.683	0.49687	0.099
Mof_C 	C 	0.294	0.6591	0.48493	-0.161
Mof_H 	H 	0.2599	0.6624	0.5014	0.084
Mof_C 	C 	0.2904	0.6297	0.44849	0.09
Mof_H 	H 	0.2529	0.6145	0.4405	-0.024
Mof_N 	N 	0.33557	0.62197	0.42459	-0.254
Mof_C 	C 	0.3869	0.6459	0.43603	0.083
Mof_H 	H 	0.4201	0.6427	0.4188	-0.026
Mof_C 	C 	0.3941	0.6756	0.47225	-0.16
Mof_H 	H 	0.432	0.6905	0.4797	0.077
Mof_N 	N 	0.66865	0.98688	0.60757	-0.242
Mof_C 	C 	0.6361	0.9702	0.57645	0.089
Mof_H 	H 	0.6165	0.0005	0.5619	-0.022
Mof_C 	C 	0.6287	0.9133	0.56387	-0.159
Mof_H 	H 	0.6039	0.9048	0.5417	0.083
Mof_C 	C 	0.658	0.8677	0.5839	0.096
Mof_C 	C 	0.6924	0.8843	0.61631	-0.154
Mof_H 	H 	0.7125	0.8548	0.6313	0.081
Mof_C 	C 	0.6976	0.94282	0.62688	0.079
Mof_H 	H 	0.7225	0.9529	0.6487	-0.016
Mof_C 	C 	0.654	0.8052	0.5717	-0.035
Mof_C 	C 	0.6495	0.78207	0.53433	-0.027
Mof_C 	C 	0.6535	0.817	0.49687	0.099
Mof_C 	C 	0.706	0.8409	0.48493	-0.161
Mof_H 	H 	0.7401	0.8376	0.5014	0.084
Mof_C 	C 	0.7096	0.8703	0.44849	0.09
Mof_H 	H 	0.7471	0.8855	0.4405	-0.024
Mof_N 	N 	0.66443	0.87803	0.42459	-0.254
Mof_C 	C 	0.6131	0.8541	0.43603	0.083
Mof_H 	H 	0.5799	0.8573	0.4188	-0.026
Mof_C 	C 	0.6059	0.8244	0.47225	-0.16
Mof_H 	H 	0.568	0.8095	0.4797	0.077
Mof_N 	N 	0.16865	0.48688	0.10757	-0.242
Mof_C 	C 	0.1361	0.4702	0.07645	0.089
Mof_H 	H 	0.1165	0.5005	0.0619	-0.022
Mof_C 	C 	0.1287	0.4133	0.06387	-0.159
Mof_H 	H 	0.1039	0.4048	0.0417	0.083
Mof_C 	C 	0.158	0.3677	0.0839	0.096
Mof_C 	C 	0.1924	0.3843	0.11631	-0.154
Mof_H 	H 	0.2125	0.3548	0.1313	0.081
Mof_C 	C 	0.1976	0.44282	0.12688	0.079
Mof_H 	H 	0.2225	0.4529	0.1487	-0.016
Mof_C 	C 	0.154	0.3052	0.0717	-0.035
Mof_C 	C 	0.1495	0.28207	0.03433	-0.027
Mof_C 	C 	0.1535	0.317	0.99687	0.099
Mof_C 	C 	0.206	0.3409	0.98493	-0.161
Mof_H 	H 	0.2401	0.3376	0.0014	0.084
Mof_C 	C 	0.2096	0.3703	0.94849	0.09
Mof_H 	H 	0.2471	0.3855	0.9405	-0.024
Mof_N 	N 	0.16443	0.37803	0.92459	-0.254
Mof_C 	C 	0.1131	0.3541	0.93603	0.083
Mof_H 	H 	0.0799	0.3573	0.9188	-0.025
Mof_C 	C 	0.1059	0.3244	0.97225	-0.16
Mof_H 	H 	0.068	0.3095	0.9797	0.077
Mof_N 	N 	0.73688	0.91865	0.14243	-0.242
Mof_C 	C 	0.7202	0.8861	0.17355	0.089
Mof_H 	H 	0.7505	0.8665	0.1881	-0.022
Mof_C 	C 	0.6633	0.8787	0.18613	-0.159
Mof_H 	H 	0.6548	0.8539	0.2083	0.083
Mof_C 	C 	0.6177	0.908	0.1661	0.096
Mof_C 	C 	0.6343	0.9424	0.13369	-0.154
Mof_H 	H 	0.6048	0.9625	0.1187	0.081
Mof_C 	C 	0.69282	0.9476	0.12312	0.079
Mof_H 	H 	0.7029	0.9725	0.1013	-0.016
Mof_C 	C 	0.5552	0.904	0.1783	-0.035
Mof_C 	C 	0.53207	0.8995	0.21567	-0.027
Mof_C 	C 	0.567	0.9035	0.25313	0.099
Mof_C 	C 	0.5909	0.956	0.26507	-0.161
Mof_H 	H 	0.5876	0.9901	0.2486	0.084
Mof_C 	C 	0.6203	0.9596	0.30151	0.09
Mof_H 	H 	0.6355	0.9971	0.3095	-0.024
Mof_N 	N 	0.62803	0.91443	0.32541	-0.254
Mof_C 	C 	0.6041	0.8631	0.31397	0.083
Mof_H 	H 	0.6073	0.8299	0.3312	-0.026
Mof_C 	C 	0.5744	0.8559	0.27775	-0.16
Mof_H 	H 	0.5595	0.818	0.2703	0.077
Mof_N 	N 	0.23688	0.41865	0.64243	-0.242
Mof_C 	C 	0.2202	0.3861	0.67355	0.089
Mof_H 	H 	0.2505	0.3665	0.6881	-0.022
Mof_C 	C 	0.1633	0.3787	0.68613	-0.159
Mof_H 	H 	0.1548	0.3539	0.7083	0.083
Mof_C 	C 	0.1177	0.408	0.6661	0.096
Mof_C 	C 	0.1343	0.4424	0.63369	-0.154
Mof_H 	H 	0.1048	0.4625	0.6187	0.081
Mof_C 	C 	0.19282	0.4476	0.62312	0.079
Mof_H 	H 	0.2029	0.4725	0.6013	-0.016
Mof_C 	C 	0.0552	0.404	0.6783	-0.035
Mof_C 	C 	0.03207	0.3995	0.71567	-0.026
Mof_C 	C 	0.067	0.4035	0.75313	0.099
Mof_C 	C 	0.0909	0.456	0.76507	-0.161
Mof_H 	H 	0.0876	0.4901	0.7486	0.084
Mof_C 	C 	0.1203	0.4596	0.80151	0.09
Mof_H 	H 	0.1355	0.4971	0.8095	-0.024
Mof_N 	N 	0.12803	0.41443	0.82541	-0.254
Mof_C 	C 	0.1041	0.3631	0.81397	0.082
Mof_H 	H 	0.1073	0.3299	0.8312	-0.025
Mof_C 	C 	0.0744	0.3559	0.77775	-0.159
Mof_H 	H 	0.0595	0.318	0.7703	0.077
Mof_N 	N 	0.76312	0.08135	0.64243	-0.242
Mof_C 	C 	0.7798	0.1139	0.67355	0.089
Mof_H 	H 	0.7495	0.1335	0.6881	-0.022
Mof_C 	C 	0.8367	0.1213	0.68613	-0.159
Mof_H 	H 	0.8452	0.1461	0.7083	0.083
Mof_C 	C 	0.8823	0.092	0.6661	0.096
Mof_C 	C 	0.8657	0.0576	0.63369	-0.154
Mof_H 	H 	0.8952	0.0375	0.6187	0.08
Mof_C 	C 	0.80718	0.0524	0.62312	0.079
Mof_H 	H 	0.7971	0.0275	0.6013	-0.016
Mof_C 	C 	0.9448	0.096	0.6783	-0.035
Mof_C 	C 	0.96793	0.1005	0.71567	-0.027
Mof_C 	C 	0.933	0.0965	0.75313	0.099
Mof_C 	C 	0.9091	0.044	0.76507	-0.161
Mof_H 	H 	0.9124	0.0099	0.7486	0.084
Mof_C 	C 	0.8797	0.0404	0.80151	0.09
Mof_H 	H 	0.8645	0.0029	0.8095	-0.024
Mof_N 	N 	0.87197	0.08557	0.82541	-0.254
Mof_C 	C 	0.8959	0.1369	0.81397	0.082
Mof_H 	H 	0.8927	0.1701	0.8312	-0.026
Mof_C 	C 	0.9256	0.1441	0.77775	-0.16
Mof_H 	H 	0.9405	0.182	0.7703	0.077
Mof_N 	N 	0.26312	0.58135	0.14243	-0.242
Mof_C 	C 	0.2798	0.6139	0.17355	0.089
Mof_H 	H 	0.2495	0.6335	0.1881	-0.022
Mof_C 	C 	0.3367	0.6213	0.18613	-0.159
Mof_H 	H 	0.3452	0.6461	0.2083	0.083
Mof_C 	C 	0.3823	0.592	0.1661	0.096
Mof_C 	C 	0.3657	0.5576	0.13369	-0.154
Mof_H 	H 	0.3952	0.5375	0.1187	0.081
Mof_C 	C 	0.30718	0.5524	0.12312	0.079
Mof_H 	H 	0.2971	0.5275	0.1013	-0.016
Mof_C 	C 	0.4448	0.596	0.1783	-0.035
Mof_C 	C 	0.46793	0.6005	0.21567	-0.027
Mof_C 	C 	0.433	0.5965	0.25313	0.099
Mof_C 	C 	0.4091	0.544	0.26507	-0.161
Mof_H 	H 	0.4124	0.5099	0.2486	0.084
Mof_C 	C 	0.3797	0.5404	0.30151	0.09
Mof_H 	H 	0.3645	0.5029	0.3095	-0.024
Mof_N 	N 	0.37197	0.58557	0.32541	-0.254
Mof_C 	C 	0.3959	0.6369	0.31397	0.083
Mof_H 	H 	0.3927	0.6701	0.3312	-0.026
Mof_C 	C 	0.4256	0.6441	0.27775	-0.16
Mof_H 	H 	0.4405	0.682	0.2703	0.077
Mof_N 	N 	0.66865	0.01312	0.39243	-0.242
Mof_C 	C 	0.6361	0.0298	0.42355	0.089
Mof_H 	H 	0.6165	0.9995	0.4381	-0.022
Mof_C 	C 	0.6287	0.0867	0.43613	-0.159
Mof_H 	H 	0.6039	0.0952	0.4583	0.083
Mof_C 	C 	0.658	0.1323	0.4161	0.096
Mof_C 	C 	0.6924	0.1157	0.38369	-0.154
Mof_H 	H 	0.7125	0.1452	0.3687	0.081
Mof_C 	C 	0.6976	0.05718	0.37312	0.079
Mof_H 	H 	0.7225	0.0471	0.3513	-0.016
Mof_C 	C 	0.654	0.1948	0.4283	-0.035
Mof_C 	C 	0.6495	0.21793	0.46567	-0.027
Mof_C 	C 	0.6535	0.183	0.50313	0.099
Mof_C 	C 	0.706	0.1591	0.51507	-0.161
Mof_H 	H 	0.7401	0.1624	0.4986	0.084
Mof_C 	C 	0.7096	0.1297	0.55151	0.09
Mof_H 	H 	0.7471	0.1145	0.5595	-0.024
Mof_N 	N 	0.66443	0.12197	0.57541	-0.254
Mof_C 	C 	0.6131	0.1459	0.56397	0.083
Mof_H 	H 	0.5799	0.1427	0.5812	-0.026
Mof_C 	C 	0.6059	0.1756	0.52775	-0.16
Mof_H 	H 	0.568	0.1905	0.5203	0.077
Mof_N 	N 	0.16865	0.51312	0.89243	-0.242
Mof_C 	C 	0.1361	0.5298	0.92355	0.089
Mof_H 	H 	0.1165	0.4995	0.9381	-0.022
Mof_C 	C 	0.1287	0.5867	0.93613	-0.159
Mof_H 	H 	0.1039	0.5952	0.9583	0.083
Mof_C 	C 	0.158	0.6323	0.9161	0.096
Mof_C 	C 	0.1924	0.6157	0.88369	-0.154
Mof_H 	H 	0.2125	0.6452	0.8687	0.081
Mof_C 	C 	0.1976	0.55718	0.87312	0.079
Mof_H 	H 	0.2225	0.5471	0.8513	-0.016
Mof_C 	C 	0.154	0.6948	0.9283	-0.035
Mof_C 	C 	0.1495	0.71793	0.96567	-0.027
Mof_C 	C 	0.1535	0.683	0.00313	0.099
Mof_C 	C 	0.206	0.6591	0.01507	-0.161
Mof_H 	H 	0.2401	0.6624	0.9986	0.084
Mof_C 	C 	0.2096	0.6297	0.05151	0.09
Mof_H 	H 	0.2471	0.6145	0.0595	-0.024
Mof_N 	N 	0.16443	0.62197	0.07541	-0.254
Mof_C 	C 	0.1131	0.6459	0.06397	0.083
Mof_H 	H 	0.0799	0.6427	0.0812	-0.025
Mof_C 	C 	0.1059	0.6756	0.02775	-0.16
Mof_H 	H 	0.068	0.6905	0.0203	0.077
Mof_N 	N 	0.83135	0.98688	0.89243	-0.242
Mof_C 	C 	0.8639	0.9702	0.92355	0.089
Mof_H 	H 	0.8835	0.0005	0.9381	-0.022
Mof_C 	C 	0.8713	0.9133	0.93613	-0.16
Mof_H 	H 	0.8961	0.9048	0.9583	0.083
Mof_C 	C 	0.842	0.8677	0.9161	0.096
Mof_C 	C 	0.8076	0.8843	0.88369	-0.154
Mof_H 	H 	0.7875	0.8548	0.8687	0.081
Mof_C 	C 	0.8024	0.94282	0.87312	0.079
Mof_H 	H 	0.7775	0.9529	0.8513	-0.016
Mof_C 	C 	0.846	0.8052	0.9283	-0.035
Mof_C 	C 	0.8505	0.78207	0.96567	-0.027
Mof_C 	C 	0.8465	0.817	0.00313	0.099
Mof_C 	C 	0.794	0.8409	0.01507	-0.161
Mof_H 	H 	0.7599	0.8376	0.9986	0.084
Mof_C 	C 	0.7904	0.8703	0.05151	0.09
Mof_H 	H 	0.7529	0.8855	0.0595	-0.024
Mof_N 	N 	0.83557	0.87803	0.07541	-0.254
Mof_C 	C 	0.8869	0.8541	0.06397	0.082
Mof_H 	H 	0.9201	0.8573	0.0812	-0.026
Mof_C 	C 	0.8941	0.8244	0.02775	-0.16
Mof_H 	H 	0.932	0.8095	0.0203	0.077
Mof_N 	N 	0.33135	0.48688	0.39243	-0.242
Mof_C 	C 	0.3639	0.4702	0.42355	0.089
Mof_H 	H 	0.3835	0.5005	0.4381	-0.022
Mof_C 	C 	0.3713	0.4133	0.43613	-0.159
Mof_H 	H 	0.3961	0.4048	0.4583	0.083
Mof_C 	C 	0.342	0.3677	0.4161	0.096
Mof_C 	C 	0.3076	0.3843	0.38369	-0.154
Mof_H 	H 	0.2875	0.3548	0.3687	0.081
Mof_C 	C 	0.3024	0.44282	0.37312	0.079
Mof_H 	H 	0.2775	0.4529	0.3513	-0.016
Mof_C 	C 	0.346	0.3052	0.4283	-0.035
Mof_C 	C 	0.3505	0.28207	0.46567	-0.027
Mof_C 	C 	0.3465	0.317	0.50313	0.099
Mof_C 	C 	0.294	0.3409	0.51507	-0.161
Mof_H 	H 	0.2599	0.3376	0.4986	0.084
Mof_C 	C 	0.2904	0.3703	0.55151	0.09
Mof_H 	H 	0.2529	0.3855	0.5595	-0.024
Mof_N 	N 	0.33557	0.37803	0.57541	-0.254
Mof_C 	C 	0.3869	0.3541	0.56397	0.083
Mof_H 	H 	0.4201	0.3573	0.5812	-0.026
Mof_C 	C 	0.3941	0.3244	0.52775	-0.16
Mof_H 	H 	0.432	0.3095	0.5203	0.077
Mof_Cu	Cu	0.32392	0.07392	0.625	0.853
Mof_Cu	Cu	0.82392	0.57392	0.125	0.853
Mof_Cu	Cu	0.17608	0.92608	0.125	0.853
Mof_Cu	Cu	0.67608	0.42608	0.625	0.853
Mof_Cu	Cu	0.17608	0.07392	0.875	0.853
Mof_Cu	Cu	0.67608	0.57392	0.375	0.853
Mof_Cu	Cu	0.32392	0.92608	0.375	0.853
Mof_Cu	Cu	0.82392	0.42608	0.875	0.853
Mof_Cu	Cu	0.67608	0.92608	0.375	0.853
Mof_Cu	Cu	0.17608	0.42608	0.875	0.853
Mof_Cu	Cu	0.82392	0.07392	0.875	0.853
Mof_Cu	Cu	0.32392	0.57392	0.375	0.853
Mof_Cu	Cu	0.82392	0.92608	0.125	0.853
Mof_Cu	Cu	0.32392	0.42608	0.625	0.853
Mof_Cu	Cu	0.67608	0.07392	0.625	0.853
Mof_Cu	Cu	0.17608	0.57392	0.125	0.853
Mof_S 	S 	3.59531e-33	0.09321	0.64275	-0.01
Mof_S 	S 	0.5	0.59321	0.14275	-0.01
Mof_S 	S 	0.5	0.90679	0.14275	-0.01
Mof_S 	S 	3.59531e-33	0.40679	0.64275	-0.01
Mof_S 	S 	0.15679	0.75	0.89275	-0.01
Mof_S 	S 	0.34321	0.25	0.39275	-0.01
Mof_S 	S 	0.5	0.09321	0.85725	-0.01
Mof_S 	S 	7.9229e-33	0.59321	0.35725	-0.01
Mof_S 	S 	1.99833e-33	0.90679	0.35725	-0.01
Mof_S 	S 	0.5	0.40679	0.85725	-0.01
Mof_S 	S 	0.34321	0.75	0.60725	-0.01
Mof_S 	S 	0.15679	0.25	0.10725	-0.01
Mof_S 	S 	0.84321	0.25	0.10725	-0.011
Mof_S 	S 	0.65679	0.75	0.60725	-0.01
Mof_S 	S 	0.65679	0.25	0.39275	-0.01
Mof_S 	S 	0.84321	0.75	0.89275	-0.011
_end
