data_functionalizedCrystal
_audit_creation_method	'EQeq! by Chris Wilmer'
_symmetry_space_group_name_H-M	'P1'
_symmetry_Int_Tables_number	1
_symmetry_cell_setting	triclinic
loop_
_symmetry_equiv_pos_as_xyz
  x,y,z
_cell_length_a	9.5959
_cell_length_b	17.2532
_cell_length_c	18.495
_cell_angle_alpha	90.4486
_cell_angle_beta	90
_cell_angle_gamma	106.146
loop_
_atom_site_label
_atom_site_type_symbol
_atom_site_fract_x
_atom_site_fract_y
_atom_site_fract_z
_atom_site_charge
Mof_Zn	Zn	0.5572	0.6933	0.99568	1.247
Mof_Zn	Zn	0.8639	0.3067	0.50432	1.238
Mof_Zn	Zn	0.4428	0.3067	0.00432	1.227
Mof_Zn	Zn	0.1361	0.6933	0.49568	1.236
Mof_Zn	Zn	0.5	0.5	-0	1.227
Mof_Zn	Zn	-5.79807e-17	0.5	0.5	1.227
Mof_H 	H 	0.8409	0.735	0.8154	0.058
Mof_H 	H 	0.952	0.7408	0.7015	0.056
Mof_H 	H 	0.759	0.5028	0.6692	0.055
Mof_H 	H 	0.6513	0.4962	0.7833	0.055
Mof_H 	H 	0.334	0.9206	0.0792	0.033
Mof_H 	H 	0.661	0.9434	0.9377	0.039
Mof_H 	H 	0.04	0.5648	0.8877	0.096
Mof_H 	H 	0.1921	0.5142	0.082	0.11
Mof_H 	H 	0.1059	0.265	0.6846	0.044
Mof_H 	H 	0.2112	0.2592	0.7985	0.047
Mof_H 	H 	0.2562	0.4972	0.8308	0.055
Mof_H 	H 	0.1551	0.5038	0.7167	0.049
Mof_H 	H 	0.4134	0.0794	0.4208	0.048
Mof_H 	H 	0.7176	0.0566	0.5623	0.054
Mof_H 	H 	0.4752	0.4352	0.6123	0.05
Mof_H 	H 	0.6779	0.4858	0.418	0.056
Mof_H 	H 	0.1591	0.265	0.1846	0.041
Mof_H 	H 	0.048	0.2592	0.2985	0.042
Mof_H 	H 	0.241	0.4972	0.3308	0.057
Mof_H 	H 	0.3487	0.5038	0.2167	0.046
Mof_H 	H 	0.666	0.0794	0.9208	0.074
Mof_H 	H 	0.339	0.0566	0.0623	0.07
Mof_H 	H 	0.96	0.4352	0.1123	0.003
Mof_H 	H 	0.8079	0.4858	0.918	-0
Mof_H 	H 	0.8941	0.735	0.3154	0.056
Mof_H 	H 	0.7888	0.7408	0.2015	0.052
Mof_H 	H 	0.7438	0.5028	0.1692	0.058
Mof_H 	H 	0.8449	0.4962	0.2833	0.052
Mof_H 	H 	0.5866	0.9206	0.5792	0.059
Mof_H 	H 	0.2824	0.9434	0.4377	0.053
Mof_H 	H 	0.5248	0.5648	0.3877	0.05
Mof_H 	H 	0.3221	0.5142	0.582	0.054
Mof_C 	C 	0.6632	0.6112	0.88193	0.367
Mof_C 	C 	0.73658	0.61516	0.81	-0.067
Mof_C 	C 	0.82502	0.68784	0.7862	-0.022
Mof_C 	C 	0.89085	0.6911	0.7183	-0.002
Mof_C 	C 	0.86762	0.62244	0.6754	-0.089
Mof_C 	C 	0.77681	0.54962	0.699	-0.003
Mof_C 	C 	0.71231	0.54602	0.7665	-0.019
Mof_C 	C 	0.93879	0.62678	0.60269	0.426
Mof_C 	C 	0.4823	0.8302	0.0166	0.299
Mof_C 	C 	0.491	0.9186	0.008	-0.116
Mof_C 	C 	0.4011	0.9528	0.0461	0.021
Mof_C 	C 	0.5944	0.9658	0.9626	0.045
Mof_C 	C 	0.28583	0.59846	0.9615	0.321
Mof_C 	C 	0.13832	0.54624	0.9824	0.068
Mof_C 	C 	0.02324	0.53828	0.933	-0.179
Mof_C 	C 	0.11414	0.50828	0.0488	-0.21
Mof_C 	C 	0.052	0.3888	0.61807	0.327
Mof_C 	C 	0.12142	0.38484	0.69	-0.068
Mof_C 	C 	0.13718	0.31216	0.7138	-0.027
Mof_C 	C 	0.19975	0.3089	0.7817	-0.015
Mof_C 	C 	0.24518	0.37756	0.8246	-0.081
Mof_C 	C 	0.22719	0.45038	0.801	-0.014
Mof_C 	C 	0.16629	0.45398	0.7335	-0.022
Mof_C 	C 	0.31201	0.37322	0.89731	0.378
Mof_C 	C 	0.6521	0.1698	0.4834	0.324
Mof_C 	C 	0.5724	0.0814	0.492	-0.065
Mof_C 	C 	0.4483	0.0472	0.4539	-0.011
Mof_C 	C 	0.6286	0.0342	0.5374	-0.009
Mof_C 	C 	0.68737	0.40154	0.5385	0.331
Mof_C 	C 	0.59208	0.45376	0.5176	-0.064
Mof_C 	C 	0.48496	0.46172	0.567	-0.015
Mof_C 	C 	0.60586	0.49172	0.4512	-0.017
Mof_C 	C 	0.3368	0.3888	0.11807	0.368
Mof_C 	C 	0.26342	0.38484	0.19	-0.084
Mof_C 	C 	0.17498	0.31216	0.2138	-0.013
Mof_C 	C 	0.10915	0.3089	0.2817	-0.03
Mof_C 	C 	0.13238	0.37756	0.3246	-0.069
Mof_C 	C 	0.22319	0.45038	0.301	-0.027
Mof_C 	C 	0.28769	0.45398	0.2335	-0.01
Mof_C 	C 	0.06121	0.37322	0.39731	0.336
Mof_C 	C 	0.5177	0.1698	0.9834	0.345
Mof_C 	C 	0.509	0.0814	0.992	0.004
Mof_C 	C 	0.5989	0.0472	0.9539	-0.061
Mof_C 	C 	0.4056	0.0342	0.0374	-0.097
Mof_C 	C 	0.71417	0.40154	0.0385	0.343
Mof_C 	C 	0.86168	0.45376	0.0176	-0.197
Mof_C 	C 	0.97676	0.46172	0.067	0.151
Mof_C 	C 	0.88586	0.49172	0.9512	0.178
Mof_C 	C 	0.948	0.6112	0.38193	0.408
Mof_C 	C 	0.87858	0.61516	0.31	-0.083
Mof_C 	C 	0.86282	0.68784	0.2862	-0.008
Mof_C 	C 	0.80025	0.6911	0.2183	-0.017
Mof_C 	C 	0.75482	0.62244	0.1754	-0.077
Mof_C 	C 	0.77281	0.54962	0.199	-0.016
Mof_C 	C 	0.83371	0.54602	0.2665	-0.007
Mof_C 	C 	0.68799	0.62678	0.10269	0.384
Mof_C 	C 	0.3479	0.8302	0.5166	0.319
Mof_C 	C 	0.4276	0.9186	0.508	-0.051
Mof_C 	C 	0.5517	0.9528	0.5461	-0.035
Mof_C 	C 	0.3714	0.9658	0.4626	-0.036
Mof_C 	C 	0.31263	0.59846	0.4615	0.333
Mof_C 	C 	0.40792	0.54624	0.4824	-0.066
Mof_C 	C 	0.51504	0.53828	0.433	-0.012
Mof_C 	C 	0.39414	0.50828	0.5488	-0.016
Mof_O 	O 	0.67681	0.67822	0.91442	-0.452
Mof_O 	O 	0.59054	0.54268	0.90323	-0.434
Mof_O 	O 	0.0333	0.6914	0.58833	-0.496
Mof_O 	O 	0.89846	0.56812	0.56075	-0.458
Mof_O 	O 	0.56259	0.80378	0.977	-0.419
Mof_O 	O 	0.4221	0.7926	0.0721	-0.294
Mof_O 	O 	0.39161	0.59702	0.00612	-0.568
Mof_O 	O 	0.30482	0.64024	0.9078	-0.318
Mof_O 	O 	0.99859	0.32178	0.58558	-0.426
Mof_O 	O 	0.04786	0.45732	0.59677	-0.448
Mof_O 	O 	0.3419	0.3086	0.91167	-0.451
Mof_O 	O 	0.33034	0.43188	0.93925	-0.448
Mof_O 	O 	0.75881	0.19622	0.523	-0.446
Mof_O 	O 	0.6295	0.2074	0.4279	-0.291
Mof_O 	O 	0.79459	0.40298	0.49388	-0.537
Mof_O 	O 	0.66458	0.35976	0.5922	-0.321
Mof_O 	O 	0.32319	0.32178	0.08558	-0.473
Mof_O 	O 	0.40946	0.45732	0.09677	-0.453
Mof_O 	O 	0.9667	0.3086	0.41167	-0.424
Mof_O 	O 	0.10154	0.43188	0.43925	-0.458
Mof_O 	O 	0.43741	0.19622	0.023	-0.479
Mof_O 	O 	0.5779	0.2074	0.9279	-0.286
Mof_O 	O 	0.60839	0.40298	0.99388	-0.518
Mof_O 	O 	0.69518	0.35976	0.0922	-0.328
Mof_O 	O 	0.00141	0.67822	0.41442	-0.499
Mof_O 	O 	0.95214	0.54268	0.40323	-0.439
Mof_O 	O 	0.6581	0.6914	0.08833	-0.468
Mof_O 	O 	0.66966	0.56812	0.06075	-0.468
Mof_O 	O 	0.24119	0.80378	0.477	-0.451
Mof_O 	O 	0.3705	0.7926	0.5721	-0.29
Mof_O 	O 	0.20541	0.59702	0.50612	-0.55
Mof_O 	O 	0.33542	0.64024	0.4078	-0.325
Mof_H 	H 	0.2724	0.7436	0.3364	0.141
Mof_H 	H 	0.3569	0.8324	0.3106	0.135
Mof_H 	H 	0.1885	0.796	0.2918	0.129
Mof_H 	H 	0.4345	0.6764	0.2621	0.141
Mof_H 	H 	0.4931	0.719	0.1871	0.148
Mof_H 	H 	0.5231	0.77	0.261	0.137
Mof_C 	C 	0.2816	0.7832	0.2978	-0.326
Mof_C 	C 	0.4533	0.7266	0.2346	-0.327
Mof_N 	N 	0.3221	0.7476	0.2254	-0.023
Mof_H 	H 	0.5288	0.2564	0.1636	0.143
Mof_H 	H 	0.5245	0.1676	0.1894	0.135
Mof_H 	H 	0.3925	0.204	0.2082	0.136
Mof_H 	H 	0.7581	0.3236	0.2379	0.15
Mof_H 	H 	0.7741	0.281	0.3129	0.157
Mof_H 	H 	0.7531	0.23	0.239	0.144
Mof_C 	C 	0.4984	0.2168	0.2022	-0.329
Mof_C 	C 	0.7267	0.2734	0.2654	-0.338
Mof_N 	N 	0.5745	0.2524	0.2746	-0.017
Mof_H 	H 	0.7276	0.2564	0.6636	0.149
Mof_H 	H 	0.6431	0.1676	0.6894	0.14
Mof_H 	H 	0.8115	0.204	0.7082	0.149
Mof_H 	H 	0.5655	0.3236	0.7379	0.145
Mof_H 	H 	0.5069	0.281	0.8129	0.152
Mof_H 	H 	0.4769	0.23	0.739	0.136
Mof_C 	C 	0.7184	0.2168	0.7022	-0.337
Mof_C 	C 	0.5467	0.2734	0.7654	-0.33
Mof_N 	N 	0.6779	0.2524	0.7746	-0.012
Mof_H 	H 	0.4712	0.7436	0.8364	0.146
Mof_H 	H 	0.4755	0.8324	0.8106	0.139
Mof_H 	H 	0.6075	0.796	0.7918	0.142
Mof_H 	H 	0.2419	0.6764	0.7621	0.136
Mof_H 	H 	0.2259	0.719	0.6871	0.143
Mof_H 	H 	0.2469	0.77	0.761	0.129
Mof_C 	C 	0.5016	0.7832	0.7978	-0.334
Mof_C 	C 	0.2733	0.7266	0.7346	-0.318
Mof_N 	N 	0.4255	0.7476	0.7254	-0.018
_end
