data_functionalizedCrystal
_audit_creation_method	'EQeq! by Chris Wilmer'
_symmetry_space_group_name_H-M	'P1'
_symmetry_Int_Tables_number	1
_symmetry_cell_setting	triclinic
loop_
_symmetry_equiv_pos_as_xyz
  x,y,z
_cell_length_a	9.866
_cell_length_b	17.646
_cell_length_c	11.9142
_cell_angle_alpha	90
_cell_angle_beta	96.014
_cell_angle_gamma	90
loop_
_atom_site_label
_atom_site_type_symbol
_atom_site_fract_x
_atom_site_fract_y
_atom_site_fract_z
_atom_site_charge
Mof_C 	C 	0.3385	0.09003	0.1789	0.287
Mof_C 	C 	0.8493	0.135	0.2159	0.295
Mof_C 	C 	0.5918	0.11546	0.1997	-0.04
Mof_H 	H 	0.6036	0.0697	0.1615	0.078
Mof_C 	C 	0.4614	0.13761	0.2195	-0.016
Mof_C 	C 	0.7059	0.15952	0.2351	-0.02
Mof_C 	C 	0.4419	0.2056	0.2776	-0.105
Mof_H 	H 	0.3548	0.2209	0.2938	0.093
Mof_C 	C 	0.6867	0.22875	0.289	-0.104
Mof_H 	H 	0.7612	0.2607	0.3105	0.089
Mof_C 	C 	0.557	0.24931	0.3101	0.112
Mof_C 	C 	0.5767	0.33464	0.4784	0.111
Mof_H 	H 	0.6179	0.2991	0.53	0.011
Mof_C 	C 	0.4848	0.38753	0.3246	0.086
Mof_C 	C 	0.4319	0.40891	0.2096	0.057
Mof_C 	C 	0.427	0.3639	0.1144	-0.107
Mof_H 	H 	0.46	0.3139	0.1189	0.08
Mof_C 	C 	0.3727	0.3937	0.0129	0.043
Mof_H 	H 	0.3689	0.3641	0.9471	0.029
Mof_C 	C 	0.3235	0.4674	0.0075	-0.119
Mof_H 	H 	0.283	0.4878	0.9392	0.085
Mof_C 	C 	0.3357	0.5101	0.1056	0.078
Mof_H 	H 	0.3053	0.5606	0.1023	0.015
Mof_N 	N 	0.5384	0.32071	0.368	-0.147
Mof_N 	N 	0.5481	0.40488	0.5033	-0.183
Mof_N 	N 	0.489	0.43815	0.4054	-0.176
Mof_N 	N 	0.3889	0.48214	0.2044	-0.207
Mof_O 	O 	0.3532	0.03143	0.1246	-0.274
Mof_O 	O 	0.2232	0.11453	0.2034	-0.362
Mof_O 	O 	0.8676	0.06711	0.188	-0.335
Mof_O 	O 	0.9427	0.18074	0.2343	-0.264
Mof_Cu	Cu	0.42403	0.54365	0.34774	0.91
Mof_C 	C 	0.1615	0.59003	0.3211	0.286
Mof_C 	C 	0.6507	0.635	0.2841	0.295
Mof_C 	C 	0.9082	0.61546	0.3003	-0.04
Mof_H 	H 	0.8964	0.5697	0.3385	0.078
Mof_C 	C 	0.0386	0.63761	0.2805	-0.015
Mof_C 	C 	0.7941	0.65952	0.2649	-0.02
Mof_C 	C 	0.0581	0.7056	0.2224	-0.103
Mof_H 	H 	0.1452	0.7209	0.2062	0.093
Mof_C 	C 	0.8133	0.72875	0.211	-0.103
Mof_H 	H 	0.7388	0.7607	0.1895	0.089
Mof_C 	C 	0.943	0.74931	0.1899	0.11
Mof_C 	C 	0.9233	0.83464	0.0216	0.115
Mof_H 	H 	0.8821	0.7991	0.97	0.009
Mof_C 	C 	0.0152	0.88753	0.1754	0.089
Mof_C 	C 	0.0681	0.90891	0.2904	0.055
Mof_C 	C 	0.073	0.8639	0.3856	-0.103
Mof_H 	H 	0.04	0.8139	0.3811	0.079
Mof_C 	C 	0.1273	0.8937	0.4871	0.039
Mof_H 	H 	0.1311	0.8641	0.5529	0.031
Mof_C 	C 	0.1765	0.9674	0.4925	-0.109
Mof_H 	H 	0.217	0.9878	0.5608	0.082
Mof_C 	C 	0.1643	0.0101	0.3944	0.067
Mof_H 	H 	0.1947	0.0606	0.3977	0.018
Mof_N 	N 	0.9616	0.82071	0.132	-0.148
Mof_N 	N 	0.9519	0.90488	0.9967	-0.186
Mof_N 	N 	0.011	0.93815	0.0946	-0.175
Mof_N 	N 	0.1111	0.98214	0.2956	-0.203
Mof_O 	O 	0.1468	0.53143	0.3754	-0.273
Mof_O 	O 	0.2768	0.61453	0.2966	-0.362
Mof_O 	O 	0.6324	0.56711	0.312	-0.336
Mof_O 	O 	0.5573	0.68074	0.2657	-0.266
Mof_Cu	Cu	0.07597	0.04365	0.15226	0.908
Mof_C 	C 	0.6615	0.90997	0.8211	0.286
Mof_C 	C 	0.1507	0.865	0.7841	0.294
Mof_C 	C 	0.4082	0.88454	0.8003	-0.04
Mof_H 	H 	0.3964	0.9303	0.8385	0.078
Mof_C 	C 	0.5386	0.86239	0.7805	-0.016
Mof_C 	C 	0.2941	0.84048	0.7649	-0.02
Mof_C 	C 	0.5581	0.7944	0.7224	-0.105
Mof_H 	H 	0.6452	0.7791	0.7062	0.093
Mof_C 	C 	0.3133	0.77125	0.711	-0.104
Mof_H 	H 	0.2388	0.7393	0.6895	0.089
Mof_C 	C 	0.443	0.75069	0.6899	0.112
Mof_C 	C 	0.4233	0.66536	0.5216	0.111
Mof_H 	H 	0.3821	0.7009	0.47	0.011
Mof_C 	C 	0.5152	0.61247	0.6754	0.086
Mof_C 	C 	0.5681	0.59109	0.7904	0.057
Mof_C 	C 	0.573	0.6361	0.8856	-0.107
Mof_H 	H 	0.54	0.6861	0.8811	0.08
Mof_C 	C 	0.6273	0.6063	0.9871	0.043
Mof_H 	H 	0.6311	0.6359	0.0529	0.029
Mof_C 	C 	0.6765	0.5326	0.9925	-0.119
Mof_H 	H 	0.717	0.5122	0.0608	0.085
Mof_C 	C 	0.6643	0.4899	0.8944	0.078
Mof_H 	H 	0.6947	0.4394	0.8977	0.015
Mof_N 	N 	0.4616	0.67929	0.632	-0.147
Mof_N 	N 	0.4519	0.59512	0.4967	-0.183
Mof_N 	N 	0.511	0.56185	0.5946	-0.176
Mof_N 	N 	0.6111	0.51786	0.7956	-0.207
Mof_O 	O 	0.6468	0.96857	0.8754	-0.274
Mof_O 	O 	0.7768	0.88547	0.7966	-0.362
Mof_O 	O 	0.1324	0.93289	0.812	-0.335
Mof_O 	O 	0.0573	0.81926	0.7657	-0.264
Mof_Cu	Cu	0.57597	0.45635	0.65226	0.91
Mof_C 	C 	0.8385	0.40997	0.6789	0.286
Mof_C 	C 	0.3493	0.365	0.7159	0.295
Mof_C 	C 	0.0918	0.38454	0.6997	-0.04
Mof_H 	H 	0.1036	0.4303	0.6615	0.078
Mof_C 	C 	0.9614	0.36239	0.7195	-0.015
Mof_C 	C 	0.2059	0.34048	0.7351	-0.02
Mof_C 	C 	0.9419	0.2944	0.7776	-0.103
Mof_H 	H 	0.8548	0.2791	0.7938	0.093
Mof_C 	C 	0.1867	0.27125	0.789	-0.103
Mof_H 	H 	0.2612	0.2393	0.8105	0.089
Mof_C 	C 	0.057	0.25069	0.8101	0.11
Mof_C 	C 	0.0767	0.16536	0.9784	0.115
Mof_H 	H 	0.1179	0.2009	0.03	0.009
Mof_C 	C 	0.9848	0.11247	0.8246	0.089
Mof_C 	C 	0.9319	0.09109	0.7096	0.055
Mof_C 	C 	0.927	0.1361	0.6144	-0.103
Mof_H 	H 	0.96	0.1861	0.6189	0.079
Mof_C 	C 	0.8727	0.1063	0.5129	0.039
Mof_H 	H 	0.8689	0.1359	0.4471	0.031
Mof_C 	C 	0.8235	0.0326	0.5075	-0.109
Mof_H 	H 	0.783	0.0122	0.4392	0.082
Mof_C 	C 	0.8357	0.9899	0.6056	0.067
Mof_H 	H 	0.8053	0.9394	0.6023	0.018
Mof_N 	N 	0.0384	0.17929	0.868	-0.148
Mof_N 	N 	0.0481	0.09512	0.0033	-0.186
Mof_N 	N 	0.989	0.06185	0.9054	-0.175
Mof_N 	N 	0.8889	0.01786	0.7044	-0.203
Mof_O 	O 	0.8532	0.46857	0.6246	-0.273
Mof_O 	O 	0.7232	0.38547	0.7034	-0.362
Mof_O 	O 	0.3676	0.43289	0.688	-0.336
Mof_O 	O 	0.4427	0.31926	0.7343	-0.266
Mof_Cu	Cu	0.92403	0.95635	0.84774	0.908
_end
