data_functionalizedCrystal
_audit_creation_method	'EQeq! by Chris Wilmer'
_symmetry_space_group_name_H-M	'P1'
_symmetry_Int_Tables_number	1
_symmetry_cell_setting	triclinic
loop_
_symmetry_equiv_pos_as_xyz
  x,y,z
_cell_length_a	18.219
_cell_length_b	22.1055
_cell_length_c	22.1055
_cell_angle_alpha	80.2227
_cell_angle_beta	65.6637
_cell_angle_gamma	65.6637
loop_
_atom_site_label
_atom_site_type_symbol
_atom_site_fract_x
_atom_site_fract_y
_atom_site_fract_z
_atom_site_charge
Mof_Cu	Cu	0.75	0.50757	0.49243	0.852
Mof_Cu	Cu	0.25	0.99243	0.00757	0.852
Mof_Cu	Cu	0.25757	0.49243	0.99243	0.852
Mof_Cu	Cu	0.24243	0.00757	0.50757	0.852
Mof_H 	H 	0.4296	0.9358	0.4238	-0.027
Mof_H 	H 	0.5666	0.5693	0.5039	-0.022
Mof_H 	H 	0.2664	0.8771	0.5731	-0.028
Mof_H 	H 	0.7397	0.6465	0.4619	-0.021
Mof_H 	H 	0.3709	0.7733	0.5681	0.077
Mof_H 	H 	0.4602	0.6715	0.5083	0.072
Mof_H 	H 	0.6375	0.7519	0.4641	0.072
Mof_H 	H 	0.5391	0.8344	0.4156	0.078
Mof_H 	H 	0.2892	0.5642	0.0762	-0.027
Mof_H 	H 	0.1398	0.9307	0.9961	-0.023
Mof_H 	H 	0.2166	0.6229	0.9269	-0.028
Mof_H 	H 	0.3481	0.8535	0.0381	-0.021
Mof_H 	H 	0.2123	0.7267	0.9319	0.077
Mof_H 	H 	0.14	0.8285	0.9917	0.071
Mof_H 	H 	0.3535	0.7481	0.0359	0.072
Mof_H 	H 	0.2891	0.6656	0.0844	0.078
Mof_H 	H 	0.2108	0.9238	0.4358	-0.027
Mof_H 	H 	0.3602	0.0039	0.0693	-0.022
Mof_H 	H 	0.2834	0.0731	0.3771	-0.028
Mof_H 	H 	0.1519	0.9619	0.1465	-0.021
Mof_H 	H 	0.2877	0.0681	0.2733	0.077
Mof_H 	H 	0.36	0.0083	0.1715	0.072
Mof_H 	H 	0.1465	0.9641	0.2519	0.072
Mof_H 	H 	0.2109	0.9156	0.3344	0.078
Mof_H 	H 	0.0704	0.5762	0.0642	-0.027
Mof_H 	H 	0.9334	0.4961	0.4307	-0.022
Mof_H 	H 	0.2336	0.4269	0.1229	-0.028
Mof_H 	H 	0.7603	0.5381	0.3535	-0.021
Mof_H 	H 	0.1291	0.4319	0.2267	0.077
Mof_H 	H 	0.0398	0.4917	0.3285	0.072
Mof_H 	H 	0.8625	0.5359	0.2481	0.072
Mof_H 	H 	0.9609	0.5844	0.1656	0.078
Mof_H 	H 	0.6466	0.4238	0.5642	-0.027
Mof_H 	H 	0.4295	0.5039	0.9307	-0.022
Mof_H 	H 	0.6605	0.5731	0.6229	-0.028
Mof_H 	H 	0.2984	0.4619	0.8535	-0.021
Mof_H 	H 	0.561	0.5681	0.7267	0.077
Mof_H 	H 	0.5315	0.5083	0.8285	0.072
Mof_H 	H 	0.3984	0.4641	0.7481	0.072
Mof_H 	H 	0.5453	0.4156	0.6656	0.078
Mof_H 	H 	0.1346	0.0762	0.9358	-0.027
Mof_H 	H 	0.3641	0.9961	0.5693	-0.022
Mof_H 	H 	0.3565	0.9269	0.8771	-0.028
Mof_H 	H 	0.1138	0.0381	0.6465	-0.021
Mof_H 	H 	0.3558	0.9319	0.7733	0.077
Mof_H 	H 	0.3683	0.9917	0.6715	0.071
Mof_H 	H 	0.1106	0.0359	0.7519	0.072
Mof_H 	H 	0.1265	0.0844	0.8344	0.078
Mof_H 	H 	0.3654	0.0642	0.9238	-0.027
Mof_H 	H 	0.1359	0.4307	0.0039	-0.022
Mof_H 	H 	0.1435	0.1229	0.0731	-0.028
Mof_H 	H 	0.3862	0.3535	0.9619	-0.021
Mof_H 	H 	0.1442	0.2267	0.0681	0.077
Mof_H 	H 	0.1317	0.3285	0.0083	0.072
Mof_H 	H 	0.3894	0.2481	0.9641	0.072
Mof_H 	H 	0.3735	0.1656	0.9156	0.078
Mof_H 	H 	0.8534	0.4358	0.5762	-0.027
Mof_H 	H 	0.0705	0.0693	0.4961	-0.022
Mof_H 	H 	0.8395	0.3771	0.4269	-0.028
Mof_H 	H 	0.2016	0.1465	0.5381	-0.021
Mof_H 	H 	0.939	0.2733	0.4319	0.077
Mof_H 	H 	0.9685	0.1715	0.4917	0.071
Mof_H 	H 	0.1016	0.2519	0.5359	0.072
Mof_H 	H 	0.9547	0.3344	0.5844	0.078
Mof_C 	C 	0.4177	0.9026	0.4532	0.088
Mof_C 	C 	0.5362	0.72403	0.48677	0.051
Mof_C 	C 	0.4678	0.7911	0.4901	0.064
Mof_C 	C 	0.5806	0.6066	0.4966	0.076
Mof_C 	C 	0.3221	0.868	0.5406	0.09
Mof_C 	C 	0.6825	0.652	0.4718	0.078
Mof_C 	C 	0.3844	0.8057	0.5379	-0.153
Mof_C 	C 	0.5166	0.6677	0.4989	-0.14
Mof_C 	C 	0.6216	0.7155	0.4727	-0.14
Mof_C 	C 	0.4837	0.8416	0.4478	-0.153
Mof_C 	C 	0.2735	0.5974	0.0468	0.089
Mof_C 	C 	0.247	0.77597	0.01323	0.05
Mof_C 	C 	0.249	0.7089	0.0099	0.065
Mof_C 	C 	0.1838	0.8934	0.0034	0.076
Mof_C 	C 	0.2307	0.632	0.9594	0.09
Mof_C 	C 	0.3063	0.848	0.0282	0.078
Mof_C 	C 	0.228	0.6943	0.9621	-0.154
Mof_C 	C 	0.1832	0.8323	0.0011	-0.139
Mof_C 	C 	0.3098	0.7845	0.0273	-0.14
Mof_C 	C 	0.2731	0.6584	0.0522	-0.154
Mof_C 	C 	0.2265	0.9532	0.4026	0.088
Mof_C 	C 	0.253	0.98677	0.22403	0.051
Mof_C 	C 	0.251	0.9901	0.2911	0.065
Mof_C 	C 	0.3162	0.9966	0.1066	0.076
Mof_C 	C 	0.2693	0.0406	0.368	0.09
Mof_C 	C 	0.1937	0.9718	0.152	0.078
Mof_C 	C 	0.272	0.0379	0.3057	-0.153
Mof_C 	C 	0.3168	0.9989	0.1677	-0.14
Mof_C 	C 	0.1902	0.9727	0.2155	-0.14
Mof_C 	C 	0.2269	0.9478	0.3416	-0.154
Mof_C 	C 	0.0823	0.5468	0.0974	0.088
Mof_C 	C 	0.9638	0.51323	0.27597	0.051
Mof_C 	C 	0.0322	0.5099	0.2089	0.064
Mof_C 	C 	0.9194	0.5034	0.3934	0.076
Mof_C 	C 	0.1779	0.4594	0.132	0.09
Mof_C 	C 	0.8175	0.5282	0.348	0.078
Mof_C 	C 	0.1156	0.4621	0.1943	-0.153
Mof_C 	C 	0.9834	0.5011	0.3323	-0.14
Mof_C 	C 	0.8784	0.5273	0.2845	-0.14
Mof_C 	C 	0.0163	0.5522	0.1584	-0.153
Mof_C 	C 	0.6291	0.4532	0.5974	0.088
Mof_C 	C 	0.47703	0.48677	0.77597	0.051
Mof_C 	C 	0.5421	0.4901	0.7089	0.064
Mof_C 	C 	0.4228	0.4966	0.8934	0.076
Mof_C 	C 	0.6373	0.5406	0.632	0.09
Mof_C 	C 	0.3457	0.4718	0.848	0.078
Mof_C 	C 	0.5777	0.5379	0.6943	-0.153
Mof_C 	C 	0.4845	0.4989	0.8323	-0.14
Mof_C 	C 	0.4057	0.4727	0.7845	-0.14
Mof_C 	C 	0.5685	0.4478	0.6584	-0.153
Mof_C 	C 	0.1797	0.0468	0.9026	0.089
Mof_C 	C 	0.23977	0.01323	0.72403	0.05
Mof_C 	C 	0.2411	0.0099	0.7911	0.065
Mof_C 	C 	0.3128	0.0034	0.6066	0.076
Mof_C 	C 	0.3099	0.9594	0.868	0.09
Mof_C 	C 	0.1655	0.0282	0.652	0.078
Mof_C 	C 	0.3099	0.9621	0.8057	-0.154
Mof_C 	C 	0.3157	0.0011	0.6677	-0.139
Mof_C 	C 	0.1629	0.0273	0.7155	-0.14
Mof_C 	C 	0.1747	0.0522	0.8416	-0.154
Mof_C 	C 	0.3203	0.0974	0.9532	0.088
Mof_C 	C 	0.26023	0.27597	0.98677	0.051
Mof_C 	C 	0.2589	0.2089	0.9901	0.064
Mof_C 	C 	0.1872	0.3934	0.9966	0.076
Mof_C 	C 	0.1901	0.132	0.0406	0.09
Mof_C 	C 	0.3345	0.348	0.9718	0.078
Mof_C 	C 	0.1901	0.1943	0.0379	-0.153
Mof_C 	C 	0.1843	0.3323	0.9989	-0.14
Mof_C 	C 	0.3371	0.2845	0.9727	-0.14
Mof_C 	C 	0.3253	0.1584	0.9478	-0.153
Mof_C 	C 	0.8709	0.4026	0.5468	0.088
Mof_C 	C 	0.02297	0.22403	0.51323	0.05
Mof_C 	C 	0.9579	0.2911	0.5099	0.064
Mof_C 	C 	0.0772	0.1066	0.5034	0.076
Mof_C 	C 	0.8627	0.368	0.4594	0.09
Mof_C 	C 	0.1543	0.152	0.5282	0.078
Mof_C 	C 	0.9223	0.3057	0.4621	-0.153
Mof_C 	C 	0.0155	0.1677	0.5011	-0.139
Mof_C 	C 	0.0943	0.2155	0.5273	-0.14
Mof_C 	C 	0.9315	0.3416	0.5522	-0.153
Mof_N 	N 	0.66305	0.59817	0.48453	-0.242
Mof_N 	N 	0.33738	0.91616	0.49888	-0.246
Mof_N 	N 	0.24575	0.90183	0.01547	-0.242
Mof_N 	N 	0.25242	0.58384	0.00112	-0.245
Mof_N 	N 	0.25425	0.98453	0.09817	-0.242
Mof_N 	N 	0.24758	0.99888	0.41616	-0.246
Mof_N 	N 	0.83695	0.51547	0.40183	-0.242
Mof_N 	N 	0.16262	0.50112	0.08384	-0.245
Mof_N 	N 	0.35242	0.48453	0.90183	-0.242
Mof_N 	N 	0.66374	0.49888	0.58384	-0.246
Mof_N 	N 	0.23878	0.01547	0.59817	-0.242
Mof_N 	N 	0.24646	0.00112	0.91616	-0.245
Mof_N 	N 	0.26122	0.40183	0.98453	-0.242
Mof_N 	N 	0.25354	0.08384	0.99888	-0.245
Mof_N 	N 	0.14758	0.09817	0.51547	-0.242
Mof_N 	N 	0.83626	0.41616	0.50112	-0.246
Mof_Cu	Cu	0.74243	0.50757	0.00757	0.852
Mof_Cu	Cu	0.75757	0.99243	0.49243	0.852
Mof_Cu	Cu	0.25	0.49243	0.50757	0.852
Mof_Cu	Cu	0.75	0.00757	0.99243	0.852
Mof_H 	H 	0.3534	0.5762	0.4358	-0.027
Mof_H 	H 	0.5705	0.4961	0.0693	-0.022
Mof_H 	H 	0.3395	0.4269	0.3771	-0.028
Mof_H 	H 	0.7016	0.5381	0.1465	-0.021
Mof_H 	H 	0.439	0.4319	0.2733	0.077
Mof_H 	H 	0.4685	0.4917	0.1715	0.072
Mof_H 	H 	0.6016	0.5359	0.2519	0.072
Mof_H 	H 	0.4547	0.5844	0.3344	0.078
Mof_H 	H 	0.8654	0.9238	0.0642	-0.027
Mof_H 	H 	0.6359	0.0039	0.4307	-0.022
Mof_H 	H 	0.6435	0.0731	0.1229	-0.028
Mof_H 	H 	0.8862	0.9619	0.3535	-0.021
Mof_H 	H 	0.6442	0.0681	0.2267	0.077
Mof_H 	H 	0.6317	0.0083	0.3285	0.071
Mof_H 	H 	0.8894	0.9641	0.2481	0.072
Mof_H 	H 	0.8735	0.9156	0.1656	0.078
Mof_H 	H 	0.6346	0.9358	0.0762	-0.027
Mof_H 	H 	0.8641	0.5693	0.9961	-0.022
Mof_H 	H 	0.8565	0.8771	0.9269	-0.028
Mof_H 	H 	0.6138	0.6465	0.0381	-0.021
Mof_H 	H 	0.8558	0.7733	0.9319	0.077
Mof_H 	H 	0.8683	0.6715	0.9917	0.072
Mof_H 	H 	0.6106	0.7519	0.0359	0.072
Mof_H 	H 	0.6265	0.8344	0.0844	0.078
Mof_H 	H 	0.1466	0.5642	0.4238	-0.027
Mof_H 	H 	0.9295	0.9307	0.5039	-0.022
Mof_H 	H 	0.1605	0.6229	0.5731	-0.028
Mof_H 	H 	0.7984	0.8535	0.4619	-0.021
Mof_H 	H 	0.061	0.7267	0.5681	0.077
Mof_H 	H 	0.0315	0.8285	0.5083	0.071
Mof_H 	H 	0.8984	0.7481	0.4641	0.072
Mof_H 	H 	0.0453	0.6656	0.4156	0.078
Mof_H 	H 	0.5704	0.0642	0.5762	-0.027
Mof_H 	H 	0.4334	0.4307	0.4961	-0.022
Mof_H 	H 	0.7336	0.1229	0.4269	-0.028
Mof_H 	H 	0.2603	0.3535	0.5381	-0.021
Mof_H 	H 	0.6291	0.2267	0.4319	0.077
Mof_H 	H 	0.5398	0.3285	0.4917	0.072
Mof_H 	H 	0.3625	0.2481	0.5359	0.072
Mof_H 	H 	0.4609	0.1656	0.5844	0.078
Mof_H 	H 	0.7108	0.4358	0.9238	-0.027
Mof_H 	H 	0.8602	0.0693	0.0039	-0.023
Mof_H 	H 	0.7834	0.3771	0.0731	-0.028
Mof_H 	H 	0.6519	0.1465	0.9619	-0.021
Mof_H 	H 	0.7877	0.2733	0.0681	0.077
Mof_H 	H 	0.86	0.1715	0.0083	0.071
Mof_H 	H 	0.6465	0.2519	0.9641	0.072
Mof_H 	H 	0.7109	0.3344	0.9156	0.078
Mof_H 	H 	0.7892	0.0762	0.5642	-0.027
Mof_H 	H 	0.6398	0.9961	0.9307	-0.022
Mof_H 	H 	0.7166	0.9269	0.6229	-0.028
Mof_H 	H 	0.8481	0.0381	0.8535	-0.021
Mof_H 	H 	0.7123	0.9319	0.7267	0.077
Mof_H 	H 	0.64	0.9917	0.8285	0.072
Mof_H 	H 	0.8535	0.0359	0.7481	0.072
Mof_H 	H 	0.7891	0.0844	0.6656	0.078
Mof_H 	H 	0.9296	0.4238	0.9358	-0.027
Mof_H 	H 	0.0666	0.5039	0.5693	-0.022
Mof_H 	H 	0.7664	0.5731	0.8771	-0.028
Mof_H 	H 	0.2397	0.4619	0.6465	-0.021
Mof_H 	H 	0.8709	0.5681	0.7733	0.077
Mof_H 	H 	0.9602	0.5083	0.6715	0.072
Mof_H 	H 	0.1375	0.4641	0.7519	0.072
Mof_H 	H 	0.0391	0.4156	0.8344	0.078
Mof_C 	C 	0.3709	0.5468	0.4026	0.088
Mof_C 	C 	0.52297	0.51323	0.22403	0.051
Mof_C 	C 	0.4579	0.5099	0.2911	0.064
Mof_C 	C 	0.5772	0.5034	0.1066	0.076
Mof_C 	C 	0.3627	0.4594	0.368	0.09
Mof_C 	C 	0.6543	0.5282	0.152	0.078
Mof_C 	C 	0.4223	0.4621	0.3057	-0.153
Mof_C 	C 	0.5155	0.5011	0.1677	-0.14
Mof_C 	C 	0.5943	0.5273	0.2155	-0.14
Mof_C 	C 	0.4315	0.5522	0.3416	-0.153
Mof_C 	C 	0.8203	0.9532	0.0974	0.089
Mof_C 	C 	0.76023	0.98677	0.27597	0.05
Mof_C 	C 	0.7589	0.9901	0.2089	0.065
Mof_C 	C 	0.6872	0.9966	0.3934	0.076
Mof_C 	C 	0.6901	0.0406	0.132	0.09
Mof_C 	C 	0.8345	0.9718	0.348	0.078
Mof_C 	C 	0.6901	0.0379	0.1943	-0.154
Mof_C 	C 	0.6843	0.9989	0.3323	-0.139
Mof_C 	C 	0.8371	0.9727	0.2845	-0.14
Mof_C 	C 	0.8253	0.9478	0.1584	-0.154
Mof_C 	C 	0.6797	0.9026	0.0468	0.088
Mof_C 	C 	0.73977	0.72403	0.01323	0.051
Mof_C 	C 	0.7411	0.7911	0.0099	0.064
Mof_C 	C 	0.8128	0.6066	0.0034	0.076
Mof_C 	C 	0.8099	0.868	0.9594	0.09
Mof_C 	C 	0.6655	0.652	0.0282	0.078
Mof_C 	C 	0.8099	0.8057	0.9621	-0.153
Mof_C 	C 	0.8157	0.6677	0.0011	-0.14
Mof_C 	C 	0.6629	0.7155	0.0273	-0.14
Mof_C 	C 	0.6747	0.8416	0.0522	-0.153
Mof_C 	C 	0.1291	0.5974	0.4532	0.088
Mof_C 	C 	0.97703	0.77597	0.48677	0.05
Mof_C 	C 	0.0421	0.7089	0.4901	0.064
Mof_C 	C 	0.9228	0.8934	0.4966	0.076
Mof_C 	C 	0.1373	0.632	0.5406	0.09
Mof_C 	C 	0.8457	0.848	0.4718	0.078
Mof_C 	C 	0.0777	0.6943	0.5379	-0.153
Mof_C 	C 	0.9845	0.8323	0.4989	-0.139
Mof_C 	C 	0.9057	0.7845	0.4727	-0.14
Mof_C 	C 	0.0685	0.6584	0.4478	-0.153
Mof_C 	C 	0.5823	0.0974	0.5468	0.088
Mof_C 	C 	0.4638	0.27597	0.51323	0.051
Mof_C 	C 	0.5322	0.2089	0.5099	0.064
Mof_C 	C 	0.4194	0.3934	0.5034	0.076
Mof_C 	C 	0.6779	0.132	0.4594	0.09
Mof_C 	C 	0.3175	0.348	0.5282	0.078
Mof_C 	C 	0.6156	0.1943	0.4621	-0.153
Mof_C 	C 	0.4834	0.3323	0.5011	-0.14
Mof_C 	C 	0.3784	0.2845	0.5273	-0.14
Mof_C 	C 	0.5163	0.1584	0.5522	-0.153
Mof_C 	C 	0.7265	0.4026	0.9532	0.089
Mof_C 	C 	0.753	0.22403	0.98677	0.05
Mof_C 	C 	0.751	0.2911	0.9901	0.065
Mof_C 	C 	0.8162	0.1066	0.9966	0.076
Mof_C 	C 	0.7693	0.368	0.0406	0.09
Mof_C 	C 	0.6937	0.152	0.9718	0.078
Mof_C 	C 	0.772	0.3057	0.0379	-0.154
Mof_C 	C 	0.8168	0.1677	0.9989	-0.139
Mof_C 	C 	0.6902	0.2155	0.9727	-0.14
Mof_C 	C 	0.7269	0.3416	0.9478	-0.154
Mof_C 	C 	0.7735	0.0468	0.5974	0.088
Mof_C 	C 	0.747	0.01323	0.77597	0.051
Mof_C 	C 	0.749	0.0099	0.7089	0.065
Mof_C 	C 	0.6838	0.0034	0.8934	0.076
Mof_C 	C 	0.7307	0.9594	0.632	0.09
Mof_C 	C 	0.8063	0.0282	0.848	0.078
Mof_C 	C 	0.728	0.9621	0.6943	-0.153
Mof_C 	C 	0.6832	0.0011	0.8323	-0.14
Mof_C 	C 	0.8098	0.0273	0.7845	-0.14
Mof_C 	C 	0.7731	0.0522	0.6584	-0.154
Mof_C 	C 	0.9177	0.4532	0.9026	0.088
Mof_C 	C 	0.0362	0.48677	0.72403	0.051
Mof_C 	C 	0.9678	0.4901	0.7911	0.064
Mof_C 	C 	0.0806	0.4966	0.6066	0.076
Mof_C 	C 	0.8221	0.5406	0.868	0.09
Mof_C 	C 	0.1825	0.4718	0.652	0.078
Mof_C 	C 	0.8844	0.5379	0.8057	-0.153
Mof_C 	C 	0.0166	0.4989	0.6677	-0.14
Mof_C 	C 	0.1216	0.4727	0.7155	-0.14
Mof_C 	C 	0.9837	0.4478	0.8416	-0.153
Mof_N 	N 	0.64758	0.51547	0.09817	-0.242
Mof_N 	N 	0.33626	0.50112	0.41616	-0.246
Mof_N 	N 	0.76122	0.98453	0.40183	-0.242
Mof_N 	N 	0.75354	0.99888	0.08384	-0.245
Mof_N 	N 	0.73878	0.59817	0.01547	-0.242
Mof_N 	N 	0.74646	0.91616	0.00112	-0.245
Mof_N 	N 	0.85242	0.90183	0.48453	-0.242
Mof_N 	N 	0.16374	0.58384	0.49888	-0.246
Mof_N 	N 	0.33695	0.40183	0.51547	-0.242
Mof_N 	N 	0.66262	0.08384	0.50112	-0.246
Mof_N 	N 	0.75425	0.09817	0.98453	-0.242
Mof_N 	N 	0.74758	0.41616	0.99888	-0.245
Mof_N 	N 	0.74575	0.01547	0.90183	-0.242
Mof_N 	N 	0.75242	0.00112	0.58384	-0.246
Mof_N 	N 	0.16305	0.48453	0.59817	-0.242
Mof_N 	N 	0.83738	0.49888	0.91616	-0.245
_end
