data_functionalizedCrystal
_audit_creation_method	'EQeq! by Chris Wilmer'
_symmetry_space_group_name_H-M	'P1'
_symmetry_Int_Tables_number	1
_symmetry_cell_setting	triclinic
loop_
_symmetry_equiv_pos_as_xyz
  x,y,z
_cell_length_a	17.25
_cell_length_b	17.57
_cell_length_c	16.79
_cell_angle_alpha	90
_cell_angle_beta	90
_cell_angle_gamma	90
loop_
_atom_site_label
_atom_site_type_symbol
_atom_site_fract_x
_atom_site_fract_y
_atom_site_fract_z
_atom_site_charge
Mof_N 	N 	0.1932	0.2951	0.3658	-0.17
Mof_C 	C 	0.2087	0.2784	0.2997	0.206
Mof_N 	N 	0.6932	0.7951	0.8658	-0.161
Mof_C 	C 	0.7087	0.7784	0.7997	0.213
Mof_N 	N 	0.8068	0.7049	0.3658	-0.17
Mof_C 	C 	0.7913	0.7216	0.2997	0.206
Mof_N 	N 	0.3068	0.2049	0.8658	-0.161
Mof_C 	C 	0.2913	0.2216	0.7997	0.213
Mof_N 	N 	0.3068	0.7951	0.6342	-0.171
Mof_C 	C 	0.2913	0.7784	0.7003	0.211
Mof_N 	N 	0.8068	0.2951	0.1342	-0.171
Mof_C 	C 	0.7913	0.2784	0.2003	0.205
Mof_N 	N 	0.6932	0.2049	0.6342	-0.171
Mof_C 	C 	0.7087	0.2216	0.7003	0.211
Mof_N 	N 	0.1932	0.7049	0.1342	-0.171
Mof_C 	C 	0.2087	0.7216	0.2003	0.205
Mof_N 	N 	0.8068	0.7049	0.6342	-0.171
Mof_C 	C 	0.7913	0.7216	0.7003	0.211
Mof_N 	N 	0.3068	0.2049	0.1342	-0.171
Mof_C 	C 	0.2913	0.2216	0.2003	0.205
Mof_N 	N 	0.1932	0.2951	0.6342	-0.171
Mof_C 	C 	0.2087	0.2784	0.7003	0.211
Mof_N 	N 	0.6932	0.7951	0.1342	-0.171
Mof_C 	C 	0.7087	0.7784	0.2003	0.205
Mof_N 	N 	0.6932	0.2049	0.3658	-0.171
Mof_C 	C 	0.7087	0.2216	0.2997	0.205
Mof_N 	N 	0.1932	0.7049	0.8658	-0.162
Mof_C 	C 	0.2087	0.7216	0.7997	0.212
Mof_N 	N 	0.3068	0.7951	0.3658	-0.171
Mof_C 	C 	0.2913	0.7784	0.2997	0.205
Mof_N 	N 	0.8068	0.2951	0.8658	-0.162
Mof_C 	C 	0.7913	0.2784	0.7997	0.212
Mof_N 	N 	0.4764	0.2953	0.5	-0.159
Mof_C 	C 	0.4007	0.3056	0.5	0.175
Mof_N 	N 	0.3374	0.2872	0.5	-0.169
Mof_Cd	Cd	0.20374	0.28802	0.5	0.426
Mof_N 	N 	0.2006	0.1573	0.5	-0.176
Mof_C 	C 	0.201	0.0942	0.5	0.19
Mof_N 	N 	0.1992	0.0199	0.5	-0.168
Mof_N 	N 	0.299	0.9228	0.5	-0.158
Mof_C 	C 	0.2616	0.9765	0.5	0.171
Mof_C 	C 	0.5096	0.2268	0.5	0.161
Mof_N 	N 	0.5681	0.1929	0.5	-0.15
Mof_N 	N 	0.9764	0.7953	-0	-0.16
Mof_C 	C 	0.9007	0.8056	-0	0.171
Mof_N 	N 	0.8374	0.7872	-0	-0.171
Mof_Cd	Cd	0.70374	0.78802	-0	0.418
Mof_N 	N 	0.7006	0.6573	-0	-0.178
Mof_C 	C 	0.701	0.5942	-0	0.185
Mof_N 	N 	0.6992	0.5199	-0	-0.169
Mof_N 	N 	0.799	0.4228	-0	-0.16
Mof_C 	C 	0.7616	0.4765	-0	0.166
Mof_C 	C 	0.0096	0.7268	-0	0.156
Mof_N 	N 	0.0681	0.6929	-0	-0.152
Mof_N 	N 	0.5236	0.7047	0.5	-0.159
Mof_C 	C 	0.5993	0.6944	0.5	0.175
Mof_N 	N 	0.6626	0.7128	0.5	-0.169
Mof_Cd	Cd	0.79626	0.71198	0.5	0.426
Mof_N 	N 	0.7994	0.8427	0.5	-0.176
Mof_C 	C 	0.799	0.9058	0.5	0.19
Mof_N 	N 	0.8008	0.9801	0.5	-0.168
Mof_N 	N 	0.701	0.0772	0.5	-0.158
Mof_C 	C 	0.7384	0.0235	0.5	0.171
Mof_C 	C 	0.4904	0.7732	0.5	0.161
Mof_N 	N 	0.4319	0.8071	0.5	-0.15
Mof_N 	N 	0.0236	0.2047	-0	-0.16
Mof_C 	C 	0.0993	0.1944	-0	0.171
Mof_N 	N 	0.1626	0.2128	-0	-0.171
Mof_Cd	Cd	0.29626	0.21198	-0	0.418
Mof_N 	N 	0.2994	0.3427	-0	-0.178
Mof_C 	C 	0.299	0.4058	-0	0.185
Mof_N 	N 	0.3008	0.4801	-0	-0.169
Mof_N 	N 	0.201	0.5772	-0	-0.16
Mof_C 	C 	0.2384	0.5235	-0	0.166
Mof_C 	C 	0.9904	0.2732	-0	0.156
Mof_N 	N 	0.9319	0.3071	-0	-0.152
Mof_N 	N 	0.0236	0.7953	0.5	-0.159
Mof_C 	C 	0.0993	0.8056	0.5	0.175
Mof_N 	N 	0.1626	0.7872	0.5	-0.169
Mof_Cd	Cd	0.29626	0.78802	0.5	0.426
Mof_N 	N 	0.2994	0.6573	0.5	-0.176
Mof_C 	C 	0.299	0.5942	0.5	0.19
Mof_N 	N 	0.3008	0.5199	0.5	-0.168
Mof_N 	N 	0.201	0.4228	0.5	-0.158
Mof_C 	C 	0.2384	0.4765	0.5	0.171
Mof_C 	C 	0.9904	0.7268	0.5	0.161
Mof_N 	N 	0.9319	0.6929	0.5	-0.15
Mof_N 	N 	0.5236	0.2953	-0	-0.16
Mof_C 	C 	0.5993	0.3056	-0	0.171
Mof_N 	N 	0.6626	0.2872	-0	-0.171
Mof_Cd	Cd	0.79626	0.28802	-0	0.418
Mof_N 	N 	0.7994	0.1573	-0	-0.178
Mof_C 	C 	0.799	0.0942	-0	0.185
Mof_N 	N 	0.8008	0.0199	-0	-0.169
Mof_N 	N 	0.701	0.9228	-0	-0.16
Mof_C 	C 	0.7384	0.9765	-0	0.166
Mof_C 	C 	0.4904	0.2268	-0	0.156
Mof_N 	N 	0.4319	0.1929	-0	-0.152
Mof_N 	N 	0.9764	0.2047	0.5	-0.159
Mof_C 	C 	0.9007	0.1944	0.5	0.175
Mof_N 	N 	0.8374	0.2128	0.5	-0.169
Mof_Cd	Cd	0.70374	0.21198	0.5	0.426
Mof_N 	N 	0.7006	0.3427	0.5	-0.176
Mof_C 	C 	0.701	0.4058	0.5	0.19
Mof_N 	N 	0.6992	0.4801	0.5	-0.168
Mof_N 	N 	0.799	0.5772	0.5	-0.158
Mof_C 	C 	0.7616	0.5235	0.5	0.171
Mof_C 	C 	0.0096	0.2732	0.5	0.161
Mof_N 	N 	0.0681	0.3071	0.5	-0.15
Mof_N 	N 	0.4764	0.7047	-0	-0.16
Mof_C 	C 	0.4007	0.6944	-0	0.171
Mof_N 	N 	0.3374	0.7128	-0	-0.171
Mof_Cd	Cd	0.20374	0.71198	-0	0.418
Mof_N 	N 	0.2006	0.8427	-0	-0.178
Mof_C 	C 	0.201	0.9058	-0	0.185
Mof_N 	N 	0.1992	0.9801	-0	-0.169
Mof_N 	N 	0.299	0.0772	-0	-0.16
Mof_C 	C 	0.2616	0.0235	-0	0.166
Mof_C 	C 	0.5096	0.7732	-0	0.156
Mof_N 	N 	0.5681	0.8071	-0	-0.152
Mof_N 	N 	0.25	0.25	0.25	-0.205
Mof_N 	N 	0.75	0.75	0.25	-0.205
Mof_N 	N 	0.25	0.75	0.75	-0.204
Mof_N 	N 	0.75	0.25	0.75	-0.204
Mof_N 	N 	0.75	0.75	0.75	-0.204
Mof_N 	N 	0.25	0.25	0.75	-0.204
Mof_N 	N 	0.75	0.25	0.25	-0.205
Mof_N 	N 	0.25	0.75	0.25	-0.205
_end
