data_functionalizedCrystal
_audit_creation_method	'EQeq! by Chris Wilmer'
_symmetry_space_group_name_H-M	'P1'
_symmetry_Int_Tables_number	1
_symmetry_cell_setting	triclinic
loop_
_symmetry_equiv_pos_as_xyz
  x,y,z
_cell_length_a	11.6005
_cell_length_b	16.4488
_cell_length_c	12.0828
_cell_angle_alpha	90
_cell_angle_beta	112.295
_cell_angle_gamma	90
loop_
_atom_site_label
_atom_site_type_symbol
_atom_site_fract_x
_atom_site_fract_y
_atom_site_fract_z
_atom_site_charge
Mof_Nd	Nd	0.19376	0.0264	0.57694	2.603
Mof_S 	S 	0.0545	0.21759	0.2101	0.092
Mof_S 	S 	0.4899	0.28146	0.7536	0.073
Mof_O 	O 	0.1373	0.0794	0.3741	-0.536
Mof_O 	O 	0.9502	0.0319	0.3499	-0.637
Mof_O 	O 	0.0548	0.3612	0.068	-0.589
Mof_O 	O 	0.8551	0.3975	0.0243	-0.581
Mof_O 	O 	0.2752	0.1042	0.7813	-0.422
Mof_O 	O 	0.3458	0.1384	0.6415	-0.479
Mof_O 	O 	0.6446	0.432	0.7908	-0.457
Mof_O 	O 	0.6196	0.4733	0.956	-0.432
Mof_C 	C 	0.9613	0.1524	0.2496	-0.129
Mof_C 	C 	0.8404	0.1761	0.2046	0.005
Mof_H 	H 	0.7773	0.1486	0.2187	0.033
Mof_C 	C 	0.8207	0.2465	0.1347	0.013
Mof_H 	H 	0.743	0.2705	0.0962	0.041
Mof_C 	C 	0.9289	0.276	0.1294	-0.149
Mof_C 	C 	0.0209	0.0833	0.3297	0.451
Mof_C 	C 	0.9481	0.3509	0.07	0.522
Mof_C 	C 	0.3952	0.2257	0.8052	-0.081
Mof_C 	C 	0.3837	0.2631	0.9032	-0.008
Mof_H 	H 	0.3351	0.2428	0.9429	0.048
Mof_C 	C 	0.4539	0.3355	0.9362	-0.019
Mof_H 	H 	0.4577	0.3676	0.001	0.064
Mof_C 	C 	0.5157	0.3535	0.863	-0.062
Mof_C 	C 	0.335	0.151	0.7396	0.326
Mof_C 	C 	0.5989	0.4239	0.8699	0.297
Mof_Nd	Nd	0.80624	0.5264	0.92306	2.626
Mof_S 	S 	0.9455	0.71759	0.2899	0.103
Mof_S 	S 	0.5101	0.78146	0.7464	0.075
Mof_O 	O 	0.8627	0.5794	0.1259	-0.543
Mof_O 	O 	0.0498	0.5319	0.1501	-0.658
Mof_O 	O 	0.9452	0.8612	0.432	-0.589
Mof_O 	O 	0.1449	0.8975	0.4757	-0.578
Mof_O 	O 	0.7248	0.6042	0.7187	-0.421
Mof_O 	O 	0.6542	0.6384	0.8585	-0.481
Mof_O 	O 	0.3554	0.932	0.7092	-0.453
Mof_O 	O 	0.3804	0.9733	0.544	-0.428
Mof_C 	C 	0.0387	0.6524	0.2504	-0.152
Mof_C 	C 	0.1596	0.6761	0.2954	0.016
Mof_H 	H 	0.2227	0.6486	0.2813	0.028
Mof_C 	C 	0.1793	0.7465	0.3653	0.008
Mof_H 	H 	0.257	0.7705	0.4038	0.042
Mof_C 	C 	0.0711	0.776	0.3706	-0.152
Mof_C 	C 	0.9791	0.5833	0.1703	0.479
Mof_C 	C 	0.0519	0.8509	0.43	0.522
Mof_C 	C 	0.6048	0.7257	0.6948	-0.08
Mof_C 	C 	0.6163	0.7631	0.5968	-0.009
Mof_H 	H 	0.6649	0.7428	0.5571	0.05
Mof_C 	C 	0.5461	0.8355	0.5638	-0.016
Mof_H 	H 	0.5423	0.8676	0.499	0.062
Mof_C 	C 	0.4843	0.8535	0.637	-0.063
Mof_C 	C 	0.665	0.651	0.7604	0.325
Mof_C 	C 	0.4011	0.9239	0.6301	0.298
Mof_Nd	Nd	0.80624	0.9736	0.42306	2.604
Mof_S 	S 	0.9455	0.78241	0.7899	0.093
Mof_S 	S 	0.5101	0.71854	0.2464	0.074
Mof_O 	O 	0.8627	0.9206	0.6259	-0.535
Mof_O 	O 	0.0498	0.9681	0.6501	-0.637
Mof_O 	O 	0.9452	0.6388	0.932	-0.589
Mof_O 	O 	0.1449	0.6025	0.9757	-0.581
Mof_O 	O 	0.7248	0.8958	0.2187	-0.422
Mof_O 	O 	0.6542	0.8616	0.3585	-0.479
Mof_O 	O 	0.3554	0.568	0.2092	-0.457
Mof_O 	O 	0.3804	0.5267	0.044	-0.432
Mof_C 	C 	0.0387	0.8476	0.7504	-0.129
Mof_C 	C 	0.1596	0.8239	0.7954	0.005
Mof_H 	H 	0.2227	0.8514	0.7813	0.033
Mof_C 	C 	0.1793	0.7535	0.8653	0.013
Mof_H 	H 	0.257	0.7295	0.9038	0.041
Mof_C 	C 	0.0711	0.724	0.8706	-0.149
Mof_C 	C 	0.9791	0.9167	0.6703	0.451
Mof_C 	C 	0.0519	0.6491	0.93	0.522
Mof_C 	C 	0.6048	0.7743	0.1948	-0.081
Mof_C 	C 	0.6163	0.7369	0.0968	-0.008
Mof_H 	H 	0.6649	0.7572	0.0571	0.048
Mof_C 	C 	0.5461	0.6645	0.0638	-0.019
Mof_H 	H 	0.5423	0.6324	0.999	0.064
Mof_C 	C 	0.4843	0.6465	0.137	-0.062
Mof_C 	C 	0.665	0.849	0.2604	0.326
Mof_C 	C 	0.4011	0.5761	0.1301	0.297
Mof_Nd	Nd	0.19376	0.4736	0.07694	2.626
Mof_S 	S 	0.0545	0.28241	0.7101	0.103
Mof_S 	S 	0.4899	0.21854	0.2536	0.075
Mof_O 	O 	0.1373	0.4206	0.8741	-0.543
Mof_O 	O 	0.9502	0.4681	0.8499	-0.658
Mof_O 	O 	0.0548	0.1388	0.568	-0.589
Mof_O 	O 	0.8551	0.1025	0.5243	-0.578
Mof_O 	O 	0.2752	0.3958	0.2813	-0.421
Mof_O 	O 	0.3458	0.3616	0.1415	-0.481
Mof_O 	O 	0.6446	0.068	0.2908	-0.453
Mof_O 	O 	0.6196	0.0267	0.456	-0.428
Mof_C 	C 	0.9613	0.3476	0.7496	-0.152
Mof_C 	C 	0.8404	0.3239	0.7046	0.016
Mof_H 	H 	0.7773	0.3514	0.7187	0.028
Mof_C 	C 	0.8207	0.2535	0.6347	0.008
Mof_H 	H 	0.743	0.2295	0.5962	0.042
Mof_C 	C 	0.9289	0.224	0.6294	-0.152
Mof_C 	C 	0.0209	0.4167	0.8297	0.479
Mof_C 	C 	0.9481	0.1491	0.57	0.522
Mof_C 	C 	0.3952	0.2743	0.3052	-0.08
Mof_C 	C 	0.3837	0.2369	0.4032	-0.009
Mof_H 	H 	0.3351	0.2572	0.4429	0.05
Mof_C 	C 	0.4539	0.1645	0.4362	-0.016
Mof_H 	H 	0.4577	0.1324	0.501	0.062
Mof_C 	C 	0.5157	0.1465	0.363	-0.063
Mof_C 	C 	0.335	0.349	0.2396	0.325
Mof_C 	C 	0.5989	0.0761	0.3699	0.298
_end
