data_functionalizedCrystal
_audit_creation_method	'EQeq! by Chris Wilmer'
_symmetry_space_group_name_H-M	'P1'
_symmetry_Int_Tables_number	1
_symmetry_cell_setting	triclinic
loop_
_symmetry_equiv_pos_as_xyz
  x,y,z
_cell_length_a	10.1071
_cell_length_b	13.0894
_cell_length_c	13.6696
_cell_angle_alpha	97.074
_cell_angle_beta	109.843
_cell_angle_gamma	95.596
loop_
_atom_site_label
_atom_site_type_symbol
_atom_site_fract_x
_atom_site_fract_y
_atom_site_fract_z
_atom_site_charge
Mof_C 	C 	0.9996	0.2787	0.9371	0.473
Mof_C 	C 	0.001	0.3931	0.9724	-0.151
Mof_C 	C 	0.1265	0.4598	0.02	0.147
Mof_C 	C 	0.8713	0.4336	0.9517	0.147
Mof_C 	C 	0.2216	0.0575	0.3862	0.439
Mof_C 	C 	0.3662	0.0286	0.4463	-0.135
Mof_C 	C 	0.4749	0.1004	0.5235	0.162
Mof_C 	C 	0.6065	0.0728	0.5758	0.165
Mof_C 	C 	0.7336	0.9316	0.9424	0.442
Mof_C 	C 	0.613	0.9666	0.9729	-0.178
Mof_C 	C 	0.5685	0.9214	0.0457	0.151
Mof_C 	C 	0.541	0.0437	0.9255	0.145
Mof_Cl	Cl	0.2837	0.40952	0.04438	-0.237
Mof_Cl	Cl	0.71349	0.35118	0.89243	-0.21
Mof_Cl	Cl	0.43827	0.22433	0.55303	-0.228
Mof_Cl	Cl	0.7385	0.16382	0.66688	-0.245
Mof_Cl	Cl	0.64767	0.82025	0.09792	-0.231
Mof_Cl	Cl	0.59136	0.09426	0.83119	-0.25
Mof_La	La	0.03628	0.11963	0.13967	2.087
Mof_O 	O 	0.984	0.2168	0.9974	-0.512
Mof_O 	O 	0.0153	0.2543	0.8515	-0.252
Mof_O 	O 	0.2182	0.1078	0.3129	-0.46
Mof_O 	O 	0.1218	0.026	0.4121	-0.288
Mof_O 	O 	0.8531	0.991	0.9806	-0.552
Mof_O 	O 	0.7122	0.8492	0.8795	-0.383
Mof_O 	O 	0.9741	0.9513	0.1964	-1.125
Mof_H 	H 	0.9774	0.9753	0.2557	0.503
Mof_H 	H 	0.9921	0.8926	0.1831	0.575
Mof_C 	C 	0.0004	0.7213	0.0629	0.474
Mof_C 	C 	0.999	0.6069	0.0276	-0.15
Mof_C 	C 	0.8735	0.5402	0.98	0.147
Mof_C 	C 	0.1287	0.5664	0.0483	0.147
Mof_C 	C 	0.7784	0.9425	0.6138	0.439
Mof_C 	C 	0.6338	0.9714	0.5537	-0.135
Mof_C 	C 	0.5251	0.8996	0.4765	0.162
Mof_C 	C 	0.3935	0.9272	0.4242	0.165
Mof_C 	C 	0.2664	0.0684	0.0576	0.442
Mof_C 	C 	0.387	0.0334	0.0271	-0.178
Mof_C 	C 	0.4315	0.0786	0.9543	0.151
Mof_C 	C 	0.459	0.9563	0.0745	0.145
Mof_Cl	Cl	0.7163	0.59048	0.95562	-0.237
Mof_Cl	Cl	0.28651	0.64882	0.10757	-0.21
Mof_Cl	Cl	0.56173	0.77567	0.44697	-0.228
Mof_Cl	Cl	0.2615	0.83618	0.33312	-0.245
Mof_Cl	Cl	0.35233	0.17975	0.90208	-0.231
Mof_Cl	Cl	0.40864	0.90574	0.16881	-0.25
Mof_La	La	0.96372	0.88037	0.86033	2.087
Mof_O 	O 	0.016	0.7832	0.0026	-0.512
Mof_O 	O 	0.9847	0.7457	0.1485	-0.252
Mof_O 	O 	0.7818	0.8922	0.6871	-0.46
Mof_O 	O 	0.8782	0.974	0.5879	-0.288
Mof_O 	O 	0.1469	0.009	0.0194	-0.552
Mof_O 	O 	0.2878	0.1508	0.1205	-0.383
Mof_O 	O 	0.0259	0.0487	0.8036	-1.125
Mof_H 	H 	0.0226	0.0247	0.7443	0.503
Mof_H 	H 	0.0079	0.1074	0.8169	0.575
_end
