data_functionalizedCrystal
_audit_creation_method	'EQeq! by Chris Wilmer'
_symmetry_space_group_name_H-M	'P1'
_symmetry_Int_Tables_number	1
_symmetry_cell_setting	triclinic
loop_
_symmetry_equiv_pos_as_xyz
  x,y,z
_cell_length_a	12.0995
_cell_length_b	14.0077
_cell_length_c	14.0077
_cell_angle_alpha	97.5462
_cell_angle_beta	100.083
_cell_angle_gamma	79.9168
loop_
_atom_site_label
_atom_site_type_symbol
_atom_site_fract_x
_atom_site_fract_y
_atom_site_fract_z
_atom_site_charge
Mof_Zn	Zn	0.10065	0.23015	0.81609	1.21
Mof_Zn	Zn	0.39935	0.81609	0.23015	1.21
Mof_Zn	Zn	0.89935	0.76985	0.18391	1.21
Mof_Zn	Zn	0.60065	0.18391	0.76985	1.21
Mof_H 	H 	0.0358	0.3381	0.1533	0.001
Mof_H 	H 	0.9443	0.3233	0.2813	0.119
Mof_H 	H 	0.6819	0.241	0.0926	0.117
Mof_H 	H 	0.8775	0.3445	0.7695	-0.005
Mof_H 	H 	0.7737	0.439	0.6554	0.101
Mof_H 	H 	0.004	0.3444	0.482	0.092
Mof_H 	H 	0.1084	0.255	0.604	-0.014
Mof_H 	H 	0.835	0.4403	0.4165	0.084
Mof_H 	H 	0.8342	0.5309	0.4945	0.074
Mof_H 	H 	0.342	0.2073	0.9101	-0.022
Mof_H 	H 	0.4861	0.2965	0.9611	0.106
Mof_H 	H 	0.2816	0.5272	0.8592	0.119
Mof_H 	H 	0.1406	0.4345	0.8145	-0.027
Mof_H 	H 	0.4802	0.5411	0.9115	0.086
Mof_H 	H 	0.5669	0.4463	0.9333	0.09
Mof_H 	H 	0.4642	0.1533	0.3381	0.002
Mof_H 	H 	0.5557	0.2813	0.3233	0.118
Mof_H 	H 	0.8181	0.0926	0.241	0.118
Mof_H 	H 	0.6225	0.7695	0.3445	-0.005
Mof_H 	H 	0.7263	0.6554	0.439	0.101
Mof_H 	H 	0.496	0.482	0.3444	0.095
Mof_H 	H 	0.3916	0.604	0.255	-0.015
Mof_H 	H 	0.665	0.4165	0.4403	0.085
Mof_H 	H 	0.6658	0.4945	0.5309	0.075
Mof_H 	H 	0.158	0.9101	0.2073	-0.021
Mof_H 	H 	0.0139	0.9611	0.2965	0.106
Mof_H 	H 	0.2184	0.8592	0.5272	0.119
Mof_H 	H 	0.3594	0.8145	0.4345	-0.027
Mof_H 	H 	0.0198	0.9115	0.5411	0.085
Mof_H 	H 	0.9331	0.9333	0.4463	0.087
Mof_H 	H 	0.9642	0.6619	0.8467	0.001
Mof_H 	H 	0.0557	0.6767	0.7187	0.119
Mof_H 	H 	0.3181	0.759	0.9074	0.117
Mof_H 	H 	0.1225	0.6555	0.2305	-0.005
Mof_H 	H 	0.2263	0.561	0.3446	0.101
Mof_H 	H 	0.996	0.6556	0.518	0.092
Mof_H 	H 	0.8916	0.745	0.396	-0.014
Mof_H 	H 	0.165	0.5597	0.5835	0.084
Mof_H 	H 	0.1658	0.4691	0.5055	0.074
Mof_H 	H 	0.658	0.7927	0.0899	-0.022
Mof_H 	H 	0.5139	0.7035	0.0389	0.106
Mof_H 	H 	0.7184	0.4728	0.1408	0.119
Mof_H 	H 	0.8594	0.5655	0.1855	-0.027
Mof_H 	H 	0.5198	0.4589	0.0885	0.086
Mof_H 	H 	0.4331	0.5537	0.0667	0.09
Mof_H 	H 	0.5358	0.8467	0.6619	0.002
Mof_H 	H 	0.4443	0.7187	0.6767	0.118
Mof_H 	H 	0.1819	0.9074	0.759	0.118
Mof_H 	H 	0.3775	0.2305	0.6555	-0.005
Mof_H 	H 	0.2737	0.3446	0.561	0.101
Mof_H 	H 	0.504	0.518	0.6556	0.095
Mof_H 	H 	0.6084	0.396	0.745	-0.015
Mof_H 	H 	0.335	0.5835	0.5597	0.085
Mof_H 	H 	0.3342	0.5055	0.4691	0.075
Mof_H 	H 	0.842	0.0899	0.7927	-0.021
Mof_H 	H 	0.9861	0.0389	0.7035	0.106
Mof_H 	H 	0.7816	0.1408	0.4728	0.119
Mof_H 	H 	0.6406	0.1855	0.5655	-0.027
Mof_H 	H 	0.9802	0.0885	0.4589	0.085
Mof_H 	H 	0.0669	0.0667	0.5537	0.087
Mof_C 	C 	0.8078	0.26874	0.02706	0.049
Mof_C 	C 	0.9146	0.2962	0.045	-0.124
Mof_C 	C 	0.9651	0.3177	0.1407	0.109
Mof_C 	C 	0.9102	0.309	0.2174	-0.241
Mof_C 	C 	0.806	0.27917	0.19903	0.253
Mof_C 	C 	0.7535	0.25998	0.10462	-0.209
Mof_C 	C 	0.7418	0.26173	0.92647	0.292
Mof_C 	C 	0.9816	0.3009	0.9653	0.361
Mof_C 	C 	0.9054	0.3455	0.7119	0.113
Mof_C 	C 	0.8419	0.4014	0.6428	-0.202
Mof_C 	C 	0.8772	0.4028	0.5548	0.155
Mof_C 	C 	0.977	0.3469	0.5407	-0.202
Mof_C 	C 	0.0396	0.29284	0.61476	0.102
Mof_C 	C 	0.8118	0.4668	0.4788	-0.169
Mof_C 	C 	0.3291	0.2729	0.9001	0.127
Mof_C 	C 	0.4166	0.3259	0.9299	-0.233
Mof_C 	C 	0.4011	0.4233	0.9133	0.175
Mof_C 	C 	0.2962	0.4619	0.8705	-0.225
Mof_C 	C 	0.2115	0.4056	0.8436	0.141
Mof_C 	C 	0.4953	0.4843	0.9473	-0.183
Mof_C 	C 	0.6922	0.02706	0.26874	0.05
Mof_C 	C 	0.5854	0.045	0.2962	-0.123
Mof_C 	C 	0.5349	0.1407	0.3177	0.107
Mof_C 	C 	0.5898	0.2174	0.309	-0.24
Mof_C 	C 	0.694	0.19903	0.27917	0.253
Mof_C 	C 	0.7465	0.10462	0.25998	-0.209
Mof_C 	C 	0.7582	0.92647	0.26173	0.291
Mof_C 	C 	0.5184	0.9653	0.3009	0.359
Mof_C 	C 	0.5946	0.7119	0.3455	0.113
Mof_C 	C 	0.6581	0.6428	0.4014	-0.204
Mof_C 	C 	0.6228	0.5548	0.4028	0.158
Mof_C 	C 	0.523	0.5407	0.3469	-0.207
Mof_C 	C 	0.4604	0.61476	0.29284	0.105
Mof_C 	C 	0.6882	0.4788	0.4668	-0.172
Mof_C 	C 	0.1709	0.9001	0.2729	0.127
Mof_C 	C 	0.0834	0.9299	0.3259	-0.232
Mof_C 	C 	0.0989	0.9133	0.4233	0.174
Mof_C 	C 	0.2038	0.8705	0.4619	-0.224
Mof_C 	C 	0.2885	0.8436	0.4056	0.141
Mof_C 	C 	0.0047	0.9473	0.4843	-0.179
Mof_C 	C 	0.1922	0.73126	0.97294	0.049
Mof_C 	C 	0.0854	0.7038	0.955	-0.124
Mof_C 	C 	0.0349	0.6823	0.8593	0.109
Mof_C 	C 	0.0898	0.691	0.7826	-0.241
Mof_C 	C 	0.194	0.72083	0.80097	0.253
Mof_C 	C 	0.2465	0.74002	0.89538	-0.209
Mof_C 	C 	0.2582	0.73827	0.07353	0.292
Mof_C 	C 	0.0184	0.6991	0.0347	0.361
Mof_C 	C 	0.0946	0.6545	0.2881	0.113
Mof_C 	C 	0.1581	0.5986	0.3572	-0.202
Mof_C 	C 	0.1228	0.5972	0.4452	0.155
Mof_C 	C 	0.023	0.6531	0.4593	-0.202
Mof_C 	C 	0.9604	0.70716	0.38524	0.102
Mof_C 	C 	0.1882	0.5332	0.5212	-0.169
Mof_C 	C 	0.6709	0.7271	0.0999	0.127
Mof_C 	C 	0.5834	0.6741	0.0701	-0.233
Mof_C 	C 	0.5989	0.5767	0.0867	0.175
Mof_C 	C 	0.7038	0.5381	0.1295	-0.225
Mof_C 	C 	0.7885	0.5944	0.1564	0.141
Mof_C 	C 	0.5047	0.5157	0.0527	-0.183
Mof_C 	C 	0.3078	0.97294	0.73126	0.05
Mof_C 	C 	0.4146	0.955	0.7038	-0.123
Mof_C 	C 	0.4651	0.8593	0.6823	0.107
Mof_C 	C 	0.4102	0.7826	0.691	-0.24
Mof_C 	C 	0.306	0.80097	0.72083	0.253
Mof_C 	C 	0.2535	0.89538	0.74002	-0.209
Mof_C 	C 	0.2418	0.07353	0.73827	0.291
Mof_C 	C 	0.4816	0.0347	0.6991	0.359
Mof_C 	C 	0.4054	0.2881	0.6545	0.113
Mof_C 	C 	0.3419	0.3572	0.5986	-0.204
Mof_C 	C 	0.3772	0.4452	0.5972	0.158
Mof_C 	C 	0.477	0.4593	0.6531	-0.207
Mof_C 	C 	0.5396	0.38524	0.70716	0.105
Mof_C 	C 	0.3118	0.5212	0.5332	-0.172
Mof_C 	C 	0.8291	0.0999	0.7271	0.127
Mof_C 	C 	0.9166	0.0701	0.6741	-0.232
Mof_C 	C 	0.9011	0.0867	0.5767	0.174
Mof_C 	C 	0.7962	0.1295	0.5381	-0.224
Mof_C 	C 	0.7115	0.1564	0.5944	0.141
Mof_C 	C 	0.9953	0.0527	0.5157	-0.179
Mof_N 	N 	0.0048	0.29292	0.70028	-0.283
Mof_N 	N 	0.2264	0.3113	0.85734	-0.287
Mof_N 	N 	0.4952	0.70028	0.29292	-0.283
Mof_N 	N 	0.2736	0.85734	0.3113	-0.287
Mof_N 	N 	0.9952	0.70708	0.29972	-0.283
Mof_N 	N 	0.7736	0.6887	0.14266	-0.287
Mof_N 	N 	0.5048	0.29972	0.70708	-0.283
Mof_N 	N 	0.7264	0.14266	0.6887	-0.287
Mof_O 	O 	0.6782	0.19534	0.905	-0.439
Mof_O 	O 	0.7482	0.31884	0.86998	-0.304
Mof_O 	O 	0.9959	0.22475	0.90669	-0.451
Mof_O 	O 	0.0165	0.3759	0.9579	-0.307
Mof_O 	O 	0.8218	0.905	0.19534	-0.44
Mof_O 	O 	0.7518	0.86998	0.31884	-0.305
Mof_O 	O 	0.5041	0.90669	0.22475	-0.451
Mof_O 	O 	0.4835	0.9579	0.3759	-0.305
Mof_O 	O 	0.3218	0.80466	0.095	-0.439
Mof_O 	O 	0.2518	0.68116	0.13002	-0.304
Mof_O 	O 	0.0041	0.77525	0.09331	-0.451
Mof_O 	O 	0.9835	0.6241	0.0421	-0.307
Mof_O 	O 	0.1782	0.095	0.80466	-0.44
Mof_O 	O 	0.2482	0.13002	0.68116	-0.305
Mof_O 	O 	0.4959	0.09331	0.77525	-0.451
Mof_O 	O 	0.5165	0.0421	0.6241	-0.305
Mof_O 	O 	0.75	0.2781	0.2781	-0.299
Mof_O 	O 	0.25	0.7219	0.7219	-0.299
_end
