data_functionalizedCrystal
_audit_creation_method	'EQeq! by Chris Wilmer'
_symmetry_space_group_name_H-M	'P1'
_symmetry_Int_Tables_number	1
_symmetry_cell_setting	triclinic
loop_
_symmetry_equiv_pos_as_xyz
  x,y,z
_cell_length_a	22.26
_cell_length_b	22.26
_cell_length_c	22.26
_cell_angle_alpha	90
_cell_angle_beta	90
_cell_angle_gamma	90
loop_
_atom_site_label
_atom_site_type_symbol
_atom_site_fract_x
_atom_site_fract_y
_atom_site_fract_z
_atom_site_charge
Mof_Cd	Cd	0.2376	0.2376	0.7624	0.256
Mof_Cd	Cd	0.2082	0.2082	0.7918	0.329
Mof_Cd	Cd	0.7624	0.7624	0.7624	0.256
Mof_Cd	Cd	0.7918	0.7918	0.7918	0.332
Mof_Cd	Cd	0.7624	0.2376	0.2376	0.256
Mof_Cd	Cd	0.7918	0.2082	0.2082	0.329
Mof_Cd	Cd	0.2376	0.7624	0.2376	0.256
Mof_Cd	Cd	0.2082	0.7918	0.2082	0.329
Mof_Cd	Cd	0.2376	0.2376	0.2376	0.255
Mof_Cd	Cd	0.2082	0.2082	0.2082	0.327
Mof_Cd	Cd	0.7624	0.7624	0.2376	0.255
Mof_Cd	Cd	0.7918	0.7918	0.2082	0.329
Mof_Cd	Cd	0.2376	0.7624	0.7624	0.255
Mof_Cd	Cd	0.2082	0.7918	0.7918	0.329
Mof_Cd	Cd	0.7624	0.2376	0.7624	0.255
Mof_Cd	Cd	0.7918	0.2082	0.7918	0.329
Mof_Co	Co	0.5	0	0.5	1.084
Mof_Co	Co	0.5	0.5	-0	1.084
Mof_Co	Co	1.8747e-33	0.5	0.5	1.084
Mof_N 	N 	0.4059	0	0.5	-0.267
Mof_N 	N 	0.5941	0	0.5	-0.267
Mof_N 	N 	0.5	0.4059	-0	-0.267
Mof_N 	N 	0.5	0.5941	-0	-0.267
Mof_N 	N 	6.09913e-33	0.5	0.4059	-0.267
Mof_N 	N 	6.80477e-33	0.5	0.5941	-0.267
Mof_N 	N 	6.45195e-33	0.4059	0.5	-0.267
Mof_N 	N 	6.45195e-33	0.5941	0.5	-0.267
Mof_N 	N 	0.4059	0.5	-0	-0.267
Mof_N 	N 	0.5941	0.5	-0	-0.267
Mof_N 	N 	0.5	0	0.5941	-0.267
Mof_N 	N 	0.5	-4.57725e-33	0.4059	-0.267
Mof_C 	C 	0.3096	0	0.5303	-0.074
Mof_H 	H 	0.275	0	0.5553	0.064
Mof_C 	C 	0.3704	0	0.5504	0.088
Mof_C 	C 	0.6904	0	0.5303	-0.073
Mof_H 	H 	0.725	0	0.5553	0.065
Mof_C 	C 	0.6296	0	0.5504	0.088
Mof_C 	C 	0.6904	0	0.4697	-0.073
Mof_H 	H 	0.725	0	0.4447	0.065
Mof_C 	C 	0.6296	0	0.4496	0.088
Mof_C 	C 	0.3096	0	0.4697	-0.073
Mof_H 	H 	0.275	0	0.4447	0.064
Mof_C 	C 	0.3704	0	0.4496	0.088
Mof_C 	C 	0.5303	0.3096	-0	-0.074
Mof_H 	H 	0.5553	0.275	-0	0.064
Mof_C 	C 	0.5504	0.3704	-0	0.088
Mof_C 	C 	0.5303	0.6904	-0	-0.073
Mof_H 	H 	0.5553	0.725	-0	0.065
Mof_C 	C 	0.5504	0.6296	-0	0.088
Mof_C 	C 	0.4697	0.6904	-0	-0.073
Mof_H 	H 	0.4447	0.725	-0	0.065
Mof_C 	C 	0.4496	0.6296	-0	0.088
Mof_C 	C 	0.4697	0.3096	-0	-0.073
Mof_H 	H 	0.4447	0.275	-0	0.064
Mof_C 	C 	0.4496	0.3704	-0	0.088
Mof_C 	C 	-5.70507e-33	0.5303	0.3096	-0.074
Mof_H 	H 	-3.54617e-33	0.5553	0.275	0.064
Mof_C 	C 	-3.18848e-33	0.5504	0.3704	0.088
Mof_C 	C 	-6.56592e-33	0.5303	0.6904	-0.073
Mof_H 	H 	2.71831e-33	0.5553	0.725	0.065
Mof_C 	C 	1.15151e-32	0.5504	0.6296	0.088
Mof_C 	C 	-6.56592e-33	0.4697	0.6904	-0.073
Mof_H 	H 	2.71831e-33	0.4447	0.725	0.065
Mof_C 	C 	2.36062e-33	0.4496	0.6296	0.088
Mof_C 	C 	-5.70507e-33	0.4697	0.3096	-0.073
Mof_H 	H 	-3.54617e-33	0.4447	0.275	0.064
Mof_C 	C 	5.96603e-33	0.4496	0.3704	0.088
Mof_C 	C 	-7.39341e-33	0.3096	0.4697	-0.073
Mof_H 	H 	-2.9099e-33	0.275	0.4447	0.064
Mof_C 	C 	6.26298e-33	0.3704	0.4496	0.088
Mof_C 	C 	-2.81616e-33	0.6904	0.4697	-0.073
Mof_H 	H 	6.24461e-33	0.725	0.4447	0.065
Mof_C 	C 	1.68573e-33	0.6296	0.4496	0.088
Mof_C 	C 	-2.58895e-33	0.6904	0.5303	-0.073
Mof_H 	H 	6.65929e-33	0.725	0.5553	0.065
Mof_C 	C 	1.12182e-32	0.6296	0.5504	0.088
Mof_C 	C 	-7.1662e-33	0.3096	0.5303	-0.074
Mof_H 	H 	-2.49521e-33	0.275	0.5553	0.064
Mof_C 	C 	-2.51358e-33	0.3704	0.5504	0.088
Mof_C 	C 	0.3096	0.5303	-0	-0.074
Mof_H 	H 	0.275	0.5553	-0	0.064
Mof_C 	C 	0.3704	0.5504	-0	0.088
Mof_C 	C 	0.6904	0.5303	-0	-0.073
Mof_H 	H 	0.725	0.5553	-0	0.065
Mof_C 	C 	0.6296	0.5504	-0	0.088
Mof_C 	C 	0.6904	0.4697	-0	-0.073
Mof_H 	H 	0.725	0.4447	-0	0.065
Mof_C 	C 	0.6296	0.4496	-0	0.088
Mof_C 	C 	0.3096	0.4697	-0	-0.073
Mof_H 	H 	0.275	0.4447	-0	0.064
Mof_C 	C 	0.3704	0.4496	-0	0.088
Mof_C 	C 	0.5303	0	0.6904	-0.073
Mof_H 	H 	0.5553	0	0.725	0.065
Mof_C 	C 	0.5504	0	0.6296	0.088
Mof_C 	C 	0.5303	-2.28863e-33	0.3096	-0.074
Mof_H 	H 	0.5553	0	0.275	0.064
Mof_C 	C 	0.5504	0	0.3704	0.088
Mof_C 	C 	0.4697	-2.28863e-33	0.3096	-0.073
Mof_H 	H 	0.4447	0	0.275	0.064
Mof_C 	C 	0.4496	0	0.3704	0.088
Mof_C 	C 	0.4697	0	0.6904	-0.073
Mof_H 	H 	0.4447	0	0.725	0.065
Mof_C 	C 	0.4496	0	0.6296	0.088
Mof_C 	C 	0.2562	9.15451e-33	0.7438	0.022
Mof_H 	H 	0.226	0	0.774	0.062
Mof_C 	C 	0.3908	4.57725e-33	0.6092	-0.12
Mof_C 	C 	0.3434	-4.57725e-33	0.6566	0.037
Mof_C 	C 	0.7438	9.15451e-33	0.7438	0.021
Mof_H 	H 	0.774	0	0.774	0.064
Mof_C 	C 	0.6092	4.57725e-33	0.6092	-0.12
Mof_C 	C 	0.6566	-4.57725e-33	0.6566	0.038
Mof_C 	C 	0.7438	0	0.2562	0.022
Mof_H 	H 	0.774	0	0.226	0.062
Mof_C 	C 	0.6092	-4.57725e-33	0.3908	-0.12
Mof_C 	C 	0.6566	-4.57725e-33	0.3434	0.037
Mof_C 	C 	0.2562	0	0.2562	0.024
Mof_H 	H 	0.226	0	0.226	0.06
Mof_C 	C 	0.3908	-4.57725e-33	0.3908	-0.12
Mof_C 	C 	0.3434	-4.57725e-33	0.3434	0.036
Mof_C 	C 	0.7438	0.2562	-0	0.022
Mof_H 	H 	0.774	0.226	-0	0.062
Mof_C 	C 	0.6092	0.3908	-0	-0.12
Mof_C 	C 	0.6566	0.3434	-0	0.037
Mof_C 	C 	0.7438	0.7438	-0	0.021
Mof_H 	H 	0.774	0.774	-0	0.064
Mof_C 	C 	0.6092	0.6092	-0	-0.12
Mof_C 	C 	0.6566	0.6566	-0	0.038
Mof_C 	C 	0.2562	0.7438	-0	0.022
Mof_H 	H 	0.226	0.774	-0	0.062
Mof_C 	C 	0.3908	0.6092	-0	-0.12
Mof_C 	C 	0.3434	0.6566	-0	0.037
Mof_C 	C 	0.2562	0.2562	-0	0.024
Mof_H 	H 	0.226	0.226	-0	0.06
Mof_C 	C 	0.3908	0.3908	-0	-0.12
Mof_C 	C 	0.3434	0.3434	-0	0.036
Mof_C 	C 	9.60596e-34	0.7438	0.2562	0.022
Mof_H 	H 	5.42462e-33	0.774	0.226	0.062
Mof_C 	C 	6.04252e-33	0.6092	0.3908	-0.12
Mof_C 	C 	-7.86696e-33	0.6566	0.3434	0.037
Mof_C 	C 	2.10978e-32	0.7438	0.7438	0.021
Mof_H 	H 	2.90204e-33	0.774	0.774	0.064
Mof_C 	C 	1.14386e-32	0.6092	0.6092	-0.12
Mof_C 	C 	-1.12699e-32	0.6566	0.6566	0.038
Mof_C 	C 	2.7888e-33	0.2562	0.7438	0.022
Mof_H 	H 	2.90204e-33	0.226	0.774	0.062
Mof_C 	C 	6.86139e-33	0.3908	0.6092	-0.12
Mof_C 	C 	-6.69265e-33	0.3434	0.6566	0.037
Mof_C 	C 	9.60596e-34	0.2562	0.2562	0.024
Mof_H 	H 	8.47364e-34	0.226	0.226	0.06
Mof_C 	C 	-7.68924e-33	0.3908	0.3908	-0.12
Mof_C 	C 	-7.86696e-33	0.3434	0.3434	0.036
Mof_C 	C 	0.2583	0.1113	0.7417	0.362
Mof_C 	C 	0.3219	0.0538	0.6781	-0.04
Mof_H 	H 	0.337	0.0907	0.663	0.062
Mof_O 	O 	0.2194	0.1117	0.7806	-0.274
Mof_O 	O 	0.2763	0.1586	0.7237	-0.312
Mof_C 	C 	0.2782	0.0533	0.7218	-0.089
Mof_C 	C 	0.7417	0.8887	0.7417	0.359
Mof_C 	C 	0.6781	0.9462	0.6781	-0.029
Mof_H 	H 	0.663	0.9093	0.663	0.063
Mof_O 	O 	0.7806	0.8883	0.7806	-0.266
Mof_O 	O 	0.7237	0.8414	0.7237	-0.308
Mof_C 	C 	0.7218	0.9467	0.7218	-0.076
Mof_C 	C 	0.7417	0.1113	0.2583	0.362
Mof_C 	C 	0.6781	0.0538	0.3219	-0.04
Mof_H 	H 	0.663	0.0907	0.337	0.062
Mof_O 	O 	0.7806	0.1117	0.2194	-0.274
Mof_O 	O 	0.7237	0.1586	0.2763	-0.312
Mof_C 	C 	0.7218	0.0533	0.2782	-0.089
Mof_C 	C 	0.2583	0.8887	0.2583	0.36
Mof_C 	C 	0.3219	0.9462	0.3219	-0.028
Mof_H 	H 	0.337	0.9093	0.337	0.062
Mof_O 	O 	0.2194	0.8883	0.2194	-0.27
Mof_O 	O 	0.2763	0.8414	0.2763	-0.31
Mof_C 	C 	0.2782	0.9467	0.2782	-0.08
Mof_C 	C 	0.7417	0.2583	0.1113	0.362
Mof_C 	C 	0.6781	0.3219	0.0538	-0.04
Mof_H 	H 	0.663	0.337	0.0907	0.062
Mof_O 	O 	0.7806	0.2194	0.1117	-0.274
Mof_O 	O 	0.7237	0.2763	0.1586	-0.312
Mof_C 	C 	0.7218	0.2782	0.0533	-0.089
Mof_C 	C 	0.7417	0.7417	0.8887	0.359
Mof_C 	C 	0.6781	0.6781	0.9462	-0.029
Mof_H 	H 	0.663	0.663	0.9093	0.063
Mof_O 	O 	0.7806	0.7806	0.8883	-0.266
Mof_O 	O 	0.7237	0.7237	0.8414	-0.308
Mof_C 	C 	0.7218	0.7218	0.9467	-0.076
Mof_C 	C 	0.2583	0.7417	0.1113	0.362
Mof_C 	C 	0.3219	0.6781	0.0538	-0.04
Mof_H 	H 	0.337	0.663	0.0907	0.062
Mof_O 	O 	0.2194	0.7806	0.1117	-0.274
Mof_O 	O 	0.2763	0.7237	0.1586	-0.312
Mof_C 	C 	0.2782	0.7218	0.0533	-0.089
Mof_C 	C 	0.2583	0.2583	0.8887	0.36
Mof_C 	C 	0.3219	0.3219	0.9462	-0.028
Mof_H 	H 	0.337	0.337	0.9093	0.062
Mof_O 	O 	0.2194	0.2194	0.8883	-0.27
Mof_O 	O 	0.2763	0.2763	0.8414	-0.31
Mof_C 	C 	0.2782	0.2782	0.9467	-0.08
Mof_C 	C 	0.1113	0.7417	0.2583	0.362
Mof_C 	C 	0.0538	0.6781	0.3219	-0.04
Mof_H 	H 	0.0907	0.663	0.337	0.062
Mof_O 	O 	0.1117	0.7806	0.2194	-0.274
Mof_O 	O 	0.1586	0.7237	0.2763	-0.312
Mof_C 	C 	0.0533	0.7218	0.2782	-0.089
Mof_C 	C 	0.8887	0.7417	0.7417	0.359
Mof_C 	C 	0.9462	0.6781	0.6781	-0.029
Mof_H 	H 	0.9093	0.663	0.663	0.063
Mof_O 	O 	0.8883	0.7806	0.7806	-0.266
Mof_O 	O 	0.8414	0.7237	0.7237	-0.308
Mof_C 	C 	0.9467	0.7218	0.7218	-0.076
Mof_C 	C 	0.1113	0.2583	0.7417	0.362
Mof_C 	C 	0.0538	0.3219	0.6781	-0.04
Mof_H 	H 	0.0907	0.337	0.663	0.062
Mof_O 	O 	0.1117	0.2194	0.7806	-0.274
Mof_O 	O 	0.1586	0.2763	0.7237	-0.312
Mof_C 	C 	0.0533	0.2782	0.7218	-0.089
Mof_C 	C 	0.8887	0.2583	0.2583	0.36
Mof_C 	C 	0.9462	0.3219	0.3219	-0.028
Mof_H 	H 	0.9093	0.337	0.337	0.062
Mof_O 	O 	0.8883	0.2194	0.2194	-0.27
Mof_O 	O 	0.8414	0.2763	0.2763	-0.31
Mof_C 	C 	0.9467	0.2782	0.2782	-0.08
Mof_C 	C 	0.1113	0.2583	0.2583	0.362
Mof_C 	C 	0.0538	0.3219	0.3219	-0.04
Mof_H 	H 	0.0907	0.337	0.337	0.062
Mof_O 	O 	0.1117	0.2194	0.2194	-0.276
Mof_O 	O 	0.1586	0.2763	0.2763	-0.313
Mof_C 	C 	0.0533	0.2782	0.2782	-0.091
Mof_C 	C 	0.8887	0.7417	0.2583	0.359
Mof_C 	C 	0.9462	0.6781	0.3219	-0.029
Mof_H 	H 	0.9093	0.663	0.337	0.062
Mof_O 	O 	0.8883	0.7806	0.2194	-0.268
Mof_O 	O 	0.8414	0.7237	0.2763	-0.309
Mof_C 	C 	0.9467	0.7218	0.2782	-0.078
Mof_C 	C 	0.1113	0.7417	0.7417	0.361
Mof_C 	C 	0.0538	0.6781	0.6781	-0.041
Mof_H 	H 	0.0907	0.663	0.663	0.063
Mof_O 	O 	0.1117	0.7806	0.7806	-0.272
Mof_O 	O 	0.1586	0.7237	0.7237	-0.311
Mof_C 	C 	0.0533	0.7218	0.7218	-0.087
Mof_C 	C 	0.8887	0.2583	0.7417	0.359
Mof_C 	C 	0.9462	0.3219	0.6781	-0.029
Mof_H 	H 	0.9093	0.337	0.663	0.062
Mof_O 	O 	0.8883	0.2194	0.7806	-0.268
Mof_O 	O 	0.8414	0.2763	0.7237	-0.309
Mof_C 	C 	0.9467	0.2782	0.7218	-0.078
Mof_C 	C 	0.2583	0.7417	0.8887	0.359
Mof_C 	C 	0.3219	0.6781	0.9462	-0.029
Mof_H 	H 	0.337	0.663	0.9093	0.062
Mof_O 	O 	0.2194	0.7806	0.8883	-0.268
Mof_O 	O 	0.2763	0.7237	0.8414	-0.309
Mof_C 	C 	0.2782	0.7218	0.9467	-0.078
Mof_C 	C 	0.7417	0.7417	0.1113	0.361
Mof_C 	C 	0.6781	0.6781	0.0538	-0.041
Mof_H 	H 	0.663	0.663	0.0907	0.063
Mof_O 	O 	0.7806	0.7806	0.1117	-0.272
Mof_O 	O 	0.7237	0.7237	0.1586	-0.311
Mof_C 	C 	0.7218	0.7218	0.0533	-0.087
Mof_C 	C 	0.7417	0.2583	0.8887	0.359
Mof_C 	C 	0.6781	0.3219	0.9462	-0.029
Mof_H 	H 	0.663	0.337	0.9093	0.062
Mof_O 	O 	0.7806	0.2194	0.8883	-0.268
Mof_O 	O 	0.7237	0.2763	0.8414	-0.309
Mof_C 	C 	0.7218	0.2782	0.9467	-0.078
Mof_C 	C 	0.2583	0.2583	0.1113	0.362
Mof_C 	C 	0.3219	0.3219	0.0538	-0.04
Mof_H 	H 	0.337	0.337	0.0907	0.062
Mof_O 	O 	0.2194	0.2194	0.1117	-0.276
Mof_O 	O 	0.2763	0.2763	0.1586	-0.313
Mof_C 	C 	0.2782	0.2782	0.0533	-0.091
Mof_C 	C 	0.7417	0.1113	0.7417	0.361
Mof_C 	C 	0.6781	0.0538	0.6781	-0.041
Mof_H 	H 	0.663	0.0907	0.663	0.063
Mof_O 	O 	0.7806	0.1117	0.7806	-0.272
Mof_O 	O 	0.7237	0.1586	0.7237	-0.311
Mof_C 	C 	0.7218	0.0533	0.7218	-0.087
Mof_C 	C 	0.7417	0.8887	0.2583	0.359
Mof_C 	C 	0.6781	0.9462	0.3219	-0.029
Mof_H 	H 	0.663	0.9093	0.337	0.062
Mof_O 	O 	0.7806	0.8883	0.2194	-0.268
Mof_O 	O 	0.7237	0.8414	0.2763	-0.309
Mof_C 	C 	0.7218	0.9467	0.2782	-0.078
Mof_C 	C 	0.2583	0.1113	0.2583	0.362
Mof_C 	C 	0.3219	0.0538	0.3219	-0.04
Mof_H 	H 	0.337	0.0907	0.337	0.062
Mof_O 	O 	0.2194	0.1117	0.2194	-0.276
Mof_O 	O 	0.2763	0.1586	0.2763	-0.313
Mof_C 	C 	0.2782	0.0533	0.2782	-0.091
Mof_C 	C 	0.2583	0.8887	0.7417	0.359
Mof_C 	C 	0.3219	0.9462	0.6781	-0.029
Mof_H 	H 	0.337	0.9093	0.663	0.062
Mof_O 	O 	0.2194	0.8883	0.7806	-0.268
Mof_O 	O 	0.2763	0.8414	0.7237	-0.309
Mof_C 	C 	0.2782	0.9467	0.7218	-0.078
_end
