data_functionalizedCrystal
_audit_creation_method	'EQeq! by Chris Wilmer'
_symmetry_space_group_name_H-M	'P1'
_symmetry_Int_Tables_number	1
_symmetry_cell_setting	triclinic
loop_
_symmetry_equiv_pos_as_xyz
  x,y,z
_cell_length_a	14.4401
_cell_length_b	19.6977
_cell_length_c	19.6977
_cell_angle_alpha	82.2787
_cell_angle_beta	68.4975
_cell_angle_gamma	68.4974
loop_
_atom_site_label
_atom_site_type_symbol
_atom_site_fract_x
_atom_site_fract_y
_atom_site_fract_z
_atom_site_charge
Mof_Co	Co	0.16931	0.8095	0.17798	1.125
Mof_Co	Co	0.15679	0.1905	0.82203	1.126
Mof_Co	Co	0.65271	0.17797	0.19051	1.13
Mof_Co	Co	0.02118	0.82203	0.8095	1.109
Mof_Co	Co	0.09322	0.67797	0.30949	1.118
Mof_Co	Co	0.08068	0.32203	0.6905	1.119
Mof_Co	Co	0.22882	0.6905	0.67797	1.125
Mof_Co	Co	0.59729	0.3095	0.32202	1.13
Mof_H 	H 	0.7676	0.7852	0.3334	0.072
Mof_H 	H 	0.8658	0.9503	0.2295	0.059
Mof_H 	H 	0.5527	0.9748	0.298	0.075
Mof_H 	H 	0.8862	0.2148	0.6666	0.079
Mof_H 	H 	0.0456	0.0497	0.7705	-0.013
Mof_H 	H 	0.8255	0.0252	0.702	0.067
Mof_H 	H 	0.899	0.3334	0.2148	0.039
Mof_H 	H 	0.9047	0.2295	0.0497	0.021
Mof_H 	H 	0.1493	0.298	0.0252	0.048
Mof_H 	H 	0.4472	0.6666	0.7852	0.071
Mof_H 	H 	0.1839	0.7705	0.9503	0.045
Mof_H 	H 	0.4725	0.702	0.9748	0.077
Mof_H 	H 	0.3638	0.8334	0.2852	0.069
Mof_H 	H 	0.2044	0.7295	0.4503	0.044
Mof_H 	H 	0.4245	0.798	0.4748	0.075
Mof_H 	H 	0.4824	0.1666	0.7148	0.071
Mof_H 	H 	0.3842	0.2705	0.5497	0.048
Mof_H 	H 	0.6973	0.202	0.5252	0.079
Mof_H 	H 	0.8028	0.7148	0.8334	0.08
Mof_H 	H 	0.0661	0.5497	0.7295	-0.006
Mof_H 	H 	0.7775	0.5252	0.798	0.071
Mof_H 	H 	0.351	0.2852	0.1666	0.068
Mof_H 	H 	0.3453	0.4503	0.2705	0.048
Mof_H 	H 	0.1007	0.4748	0.202	0.063
Mof_C 	C 	0.94279	0.8153	0.27452	0.439
Mof_C 	C 	0.64704	0.87659	0.32393	0.019
Mof_C 	C 	0.75182	0.83385	0.31551	-0.004
Mof_C 	C 	0.81033	0.93102	0.25292	0.026
Mof_C 	C 	0.6852	0.05	0.2284	0.295
Mof_C 	C 	0.83162	0.86101	0.28195	-0.103
Mof_C 	C 	0.62347	0.94605	0.29421	-0.03
Mof_C 	C 	0.7063	0.97246	0.25874	-0.057
Mof_C 	C 	0.563	0.84585	0.36035	0.054
Mof_C 	C 	0.03261	0.1847	0.72548	0.347
Mof_C 	C 	0.84756	0.12341	0.67607	0.009
Mof_C 	C 	0.90118	0.16615	0.68449	-0.004
Mof_C 	C 	0.99427	0.06898	0.74708	0.12
Mof_C 	C 	0.9636	0.95	0.7716	0.382
Mof_C 	C 	0.97458	0.13899	0.71805	-0.082
Mof_C 	C 	0.86373	0.05395	0.70579	0.001
Mof_C 	C 	0.9375	0.02754	0.74126	-0.113
Mof_C 	C 	0.7692	0.15415	0.63965	0.06
Mof_C 	C 	0.78269	0.27452	0.1847	0.411
Mof_C 	C 	0.02903	0.32393	0.12341	-0.082
Mof_C 	C 	0.93267	0.31551	0.16615	0.11
Mof_C 	C 	0.93675	0.25292	0.06898	0.143
Mof_C 	C 	0.0864	0.2284	0.95	0.33
Mof_C 	C 	0.88643	0.28195	0.13899	-0.168
Mof_C 	C 	0.08232	0.29421	0.05395	0.045
Mof_C 	C 	0.03496	0.25874	0.02754	-0.171
Mof_C 	C 	0.07665	0.36035	0.15415	0.043
Mof_C 	C 	0.24191	0.72548	0.8153	0.382
Mof_C 	C 	0.47637	0.67607	0.87659	0.021
Mof_C 	C 	0.41433	0.68449	0.83385	-0.013
Mof_C 	C 	0.25865	0.74708	0.93102	0.017
Mof_C 	C 	0.2648	0.7716	0.05	0.297
Mof_C 	C 	0.30737	0.71805	0.86101	-0.095
Mof_C 	C 	0.43048	0.70579	0.94605	-0.033
Mof_C 	C 	0.32124	0.74126	0.97246	-0.06
Mof_C 	C 	0.59115	0.63965	0.84585	0.053
Mof_C 	C 	0.21739	0.77452	0.3153	0.382
Mof_C 	C 	0.40244	0.82393	0.37659	0.018
Mof_C 	C 	0.34882	0.81551	0.33385	-0.012
Mof_C 	C 	0.25573	0.75292	0.43102	0.018
Mof_C 	C 	0.2864	0.7284	0.55	0.299
Mof_C 	C 	0.27542	0.78195	0.36101	-0.098
Mof_C 	C 	0.38627	0.79421	0.44605	-0.032
Mof_C 	C 	0.3125	0.75874	0.47246	-0.065
Mof_C 	C 	0.4808	0.86035	0.34585	0.053
Mof_C 	C 	0.30721	0.22548	0.6847	0.381
Mof_C 	C 	0.60296	0.17607	0.62341	0.023
Mof_C 	C 	0.49818	0.18449	0.66615	-0.014
Mof_C 	C 	0.43967	0.24708	0.56898	0.017
Mof_C 	C 	0.5648	0.2716	0.45	0.298
Mof_C 	C 	0.41838	0.21805	0.63899	-0.094
Mof_C 	C 	0.62653	0.20579	0.55395	-0.034
Mof_C 	C 	0.5437	0.24126	0.52754	-0.059
Mof_C 	C 	0.687	0.13965	0.65415	0.051
Mof_C 	C 	0.00809	0.6847	0.77452	0.279
Mof_C 	C 	0.77363	0.62341	0.82393	0.019
Mof_C 	C 	0.83567	0.66615	0.81551	-0.023
Mof_C 	C 	0.99135	0.56898	0.75292	0.104
Mof_C 	C 	0.9852	0.45	0.7284	0.373
Mof_C 	C 	0.94263	0.63899	0.78195	-0.055
Mof_C 	C 	0.81952	0.55395	0.79421	-0.01
Mof_C 	C 	0.92876	0.52754	0.75874	-0.098
Mof_C 	C 	0.65885	0.65415	0.86035	0.056
Mof_C 	C 	0.46731	0.3153	0.22548	0.382
Mof_C 	C 	0.22097	0.37659	0.17607	0.01
Mof_C 	C 	0.31733	0.33385	0.18449	-0.01
Mof_C 	C 	0.31325	0.43102	0.24708	0.02
Mof_C 	C 	0.1636	0.55	0.2716	0.301
Mof_C 	C 	0.36357	0.36101	0.21805	-0.098
Mof_C 	C 	0.16768	0.44605	0.20579	-0.029
Mof_C 	C 	0.21504	0.47246	0.24126	-0.069
Mof_C 	C 	0.17335	0.34585	0.13965	0.052
Mof_O 	O 	0.01358	0.84345	0.23909	-0.521
Mof_O 	O 	0.75944	0.07451	0.20315	-0.404
Mof_O 	O 	0.95849	0.75366	0.30386	-0.455
Mof_O 	O 	0.59492	0.08688	0.22816	-0.385
Mof_O 	O 	0.601	0.7777	0.4001	-0.155
Mof_O 	O 	0.09612	0.15655	0.76091	-0.472
Mof_O 	O 	0.0371	0.92549	0.79685	-0.463
Mof_O 	O 	0.01601	0.24634	0.69614	-0.48
Mof_O 	O 	0.90996	0.91312	0.77184	-0.388
Mof_O 	O 	0.7788	0.2223	0.5999	-0.153
Mof_O 	O 	0.74733	0.23909	0.15655	-0.474
Mof_O 	O 	0.03741	0.20315	0.92549	-0.436
Mof_O 	O 	0.73765	0.30386	0.24634	-0.471
Mof_O 	O 	0.17692	0.22816	0.91312	-0.396
Mof_O 	O 	0.9989	0.4001	0.2223	-0.119
Mof_O 	O 	0.14297	0.76091	0.84345	-0.479
Mof_O 	O 	0.16605	0.79685	0.07451	-0.42
Mof_O 	O 	0.28785	0.69614	0.75366	-0.469
Mof_O 	O 	0.3182	0.77184	0.08688	-0.386
Mof_O 	O 	0.6213	0.5999	0.7777	-0.156
Mof_O 	O 	0.15388	0.73909	0.34345	-0.48
Mof_O 	O 	0.2129	0.70315	0.57451	-0.419
Mof_O 	O 	0.23399	0.80386	0.25366	-0.471
Mof_O 	O 	0.34004	0.72816	0.58688	-0.385
Mof_O 	O 	0.4712	0.9001	0.2777	-0.16
Mof_O 	O 	0.23642	0.26091	0.65655	-0.474
Mof_O 	O 	0.49056	0.29685	0.42549	-0.412
Mof_O 	O 	0.29151	0.19614	0.74634	-0.469
Mof_O 	O 	0.65508	0.27184	0.41312	-0.38
Mof_O 	O 	0.649	0.0999	0.7223	-0.157
Mof_O 	O 	0.10703	0.65655	0.73909	-0.456
Mof_O 	O 	0.08395	0.42549	0.70315	-0.46
Mof_O 	O 	0.96215	0.74634	0.80386	-0.398
Mof_O 	O 	0.9318	0.41312	0.72816	-0.382
Mof_O 	O 	0.6287	0.7223	0.9001	-0.156
Mof_O 	O 	0.50267	0.34345	0.26091	-0.471
Mof_O 	O 	0.21259	0.57451	0.29685	-0.415
Mof_O 	O 	0.51235	0.25366	0.19614	-0.468
Mof_O 	O 	0.07308	0.58688	0.27184	-0.401
Mof_O 	O 	0.2511	0.2777	0.0999	-0.161
_end
