data_functionalizedCrystal
_audit_creation_method	'EQeq! by Chris Wilmer'
_symmetry_space_group_name_H-M	'P1'
_symmetry_Int_Tables_number	1
_symmetry_cell_setting	triclinic
loop_
_symmetry_equiv_pos_as_xyz
  x,y,z
_cell_length_a	16.6308
_cell_length_b	16.6308
_cell_length_c	51.164
_cell_angle_alpha	90
_cell_angle_beta	90
_cell_angle_gamma	120
loop_
_atom_site_label
_atom_site_type_symbol
_atom_site_fract_x
_atom_site_fract_y
_atom_site_fract_z
_atom_site_charge
Mof_W 	W 	0.52541	0.63951	0.17242	1.313
Mof_W 	W 	0.29141	0.43915	0.16837	0.992
Mof_W 	W 	0.39246	0.59167	0.11161	1.026
Mof_W 	W 	0.48007	0.73175	0.22288	0.97
Mof_Lu	Lu	0.77256	0.65682	0.17278	1.894
Mof_C 	C 	0.6835	0.7144	0.0943	-0.251
Mof_O 	O 	0.4223	0.5276	0.1765	-0.482
Mof_O 	O 	0.6132	0.6111	0.1689	-0.622
Mof_O 	O 	0.6123	0.7735	0.1634	-0.475
Mof_C 	C 	0.6042	0.7125	0.0543	-0.263
Mof_O 	O 	0.2627	0.5506	0.1792	-0.342
Mof_O 	O 	0.4876	0.6336	0.1348	-0.461
Mof_N 	N 	0.6626	0.8385	0.0848	-0.202
Mof_O 	O 	0.5281	0.5802	0.0295	-0.686
Mof_O 	O 	0.7541	0.7077	0.1337	-0.592
Mof_O 	O 	0.275	0.4297	0.206	-0.445
Mof_O 	O 	0.319	0.4876	0.1337	-0.453
Mof_O 	O 	0.3938	0.7707	0.2256	-0.455
Mof_O 	O 	0.44	0.7101	0.0955	-0.43
Mof_O 	O 	0.5334	0.7039	0.0145	-0.408
Mof_C 	C 	0.719	0.6652	0.1115	0.427
Mof_O 	O 	0.7177	0.5942	0.1044	-0.373
Mof_C 	C 	0.5507	0.6615	0.0309	0.533
Mof_O 	O 	0.5479	0.6691	0.2081	-0.482
Mof_C 	C 	0.6178	0.7994	0.0623	0.168
Mof_H 	H 	0.5956	0.8316	0.0517	-0.055
Mof_C 	C 	0.6932	0.7978	0.0993	0.19
Mof_H 	H 	0.7233	0.8365	0.1141	-0.056
Mof_C 	C 	0.639	0.6705	0.0718	0.175
Mof_H 	H 	0.6312	0.6125	0.0677	-0.044
Mof_W 	W 	0.19208	0.97284	0.50575	1.149
Mof_W 	W 	0.95808	0.77248	0.5017	1.058
Mof_W 	W 	0.05913	0.925	0.44494	0.808
Mof_W 	W 	0.14674	0.06508	0.55621	1.045
Mof_Lu	Lu	0.43923	0.99015	0.50612	1.659
Mof_C 	C 	0.35017	0.04773	0.42763	-0.137
Mof_O 	O 	0.08897	0.86093	0.50983	-0.513
Mof_O 	O 	0.27987	0.94443	0.50223	-0.6
Mof_O 	O 	0.27897	0.10683	0.49673	-0.419
Mof_C 	C 	0.27087	0.04583	0.38763	-0.148
Mof_O 	O 	0.92937	0.88393	0.51253	-0.358
Mof_O 	O 	0.15427	0.96693	0.46813	-0.464
Mof_N 	N 	0.32927	0.17183	0.41813	-0.17
Mof_O 	O 	0.19477	0.91353	0.36283	-0.627
Mof_O 	O 	0.42077	0.04103	0.46703	-0.437
Mof_O 	O 	0.94167	0.76303	0.53933	-0.426
Mof_O 	O 	0.98567	0.82093	0.46703	-0.391
Mof_O 	O 	0.06047	0.10403	0.55893	-0.501
Mof_O 	O 	0.10667	0.04343	0.42883	-0.371
Mof_O 	O 	0.20007	0.03723	0.34783	-0.288
Mof_C 	C 	0.38567	0.99853	0.44483	0.229
Mof_O 	O 	0.38437	0.92753	0.43773	-0.349
Mof_C 	C 	0.21737	0.99483	0.36423	0.3
Mof_O 	O 	0.21457	0.00243	0.54143	-0.404
Mof_C 	C 	0.28447	0.13273	0.39563	0.122
Mof_H 	H 	0.26227	0.16493	0.38503	-0.034
Mof_C 	C 	0.35987	0.13113	0.43263	0.135
Mof_H 	H 	0.38997	0.16983	0.44743	-0.02
Mof_C 	C 	0.30567	0.00383	0.40513	0.241
Mof_H 	H 	0.29787	0.94583	0.40103	-0.12
Mof_W 	W 	0.85874	0.30618	0.83909	1.315
Mof_W 	W 	0.62474	0.10582	0.83504	1.026
Mof_W 	W 	0.72579	0.25834	0.77828	1.039
Mof_W 	W 	0.8134	0.39842	0.88955	0.99
Mof_Lu	Lu	0.10589	0.32349	0.83945	1.751
Mof_C 	C 	0.01683	0.38107	0.76097	-0.348
Mof_O 	O 	0.75563	0.19427	0.84317	-0.48
Mof_O 	O 	0.94653	0.27777	0.83557	-0.566
Mof_O 	O 	0.94563	0.44017	0.83007	-0.448
Mof_C 	C 	0.93753	0.37917	0.72097	-0.292
Mof_O 	O 	0.59603	0.21727	0.84587	-0.355
Mof_O 	O 	0.82093	0.30027	0.80147	-0.45
Mof_N 	N 	0.99593	0.50517	0.75147	-0.144
Mof_O 	O 	0.86143	0.24687	0.69617	-0.691
Mof_O 	O 	0.08743	0.37437	0.80037	-0.595
Mof_O 	O 	0.60833	0.09637	0.87267	-0.43
Mof_O 	O 	0.65233	0.15427	0.80037	-0.446
Mof_O 	O 	0.72713	0.43737	0.89227	-0.452
Mof_O 	O 	0.77333	0.37677	0.76217	-0.429
Mof_O 	O 	0.86673	0.37057	0.68117	-0.403
Mof_C 	C 	0.05233	0.33187	0.77817	0.438
Mof_O 	O 	0.05103	0.26087	0.77107	-0.402
Mof_C 	C 	0.88403	0.32817	0.69757	0.559
Mof_O 	O 	0.88123	0.33577	0.87477	-0.468
Mof_C 	C 	0.95113	0.46607	0.72897	0.206
Mof_H 	H 	0.92893	0.49827	0.71837	-0.053
Mof_C 	C 	0.02653	0.46447	0.76597	0.137
Mof_H 	H 	0.05663	0.50317	0.78077	-0.053
Mof_C 	C 	0.97233	0.33717	0.73847	0.31
Mof_H 	H 	0.96453	0.27917	0.73437	-0.061
Mof_W 	W 	0.36049	0.8859	0.17242	1.23
Mof_W 	W 	0.56085	0.85226	0.16837	0.961
Mof_W 	W 	0.40833	0.80079	0.11161	1.012
Mof_W 	W 	0.26825	0.74832	0.22288	0.958
Mof_Lu	Lu	0.34318	0.11574	0.17278	1.916
Mof_C 	C 	0.2856	0.9691	0.0943	-0.282
Mof_O 	O 	0.4724	0.8947	0.1765	-0.492
Mof_O 	O 	0.3889	0.0021	0.1689	-0.557
Mof_O 	O 	0.2265	0.8388	0.1634	-0.488
Mof_C 	C 	0.2875	0.8917	0.0543	-0.209
Mof_O 	O 	0.4494	0.7121	0.1792	-0.346
Mof_O 	O 	0.3664	0.854	0.1348	-0.465
Mof_N 	N 	0.1615	0.8241	0.0848	-0.197
Mof_O 	O 	0.4198	0.9479	0.0295	-0.672
Mof_O 	O 	0.2923	0.0464	0.1337	-0.586
Mof_O 	O 	0.5703	0.8453	0.206	-0.457
Mof_O 	O 	0.5124	0.8314	0.1337	-0.457
Mof_O 	O 	0.2293	0.6231	0.2256	-0.454
Mof_O 	O 	0.2899	0.7299	0.0955	-0.428
Mof_O 	O 	0.2961	0.8295	0.0145	-0.401
Mof_C 	C 	0.3348	0.0538	0.1115	0.492
Mof_O 	O 	0.4058	0.1235	0.1044	-0.382
Mof_C 	C 	0.3385	0.8892	0.0309	0.491
Mof_O 	O 	0.3309	0.8788	0.2081	-0.502
Mof_C 	C 	0.2006	0.8184	0.0623	0.141
Mof_H 	H 	0.1684	0.764	0.0517	-0.047
Mof_C 	C 	0.2022	0.8954	0.0993	0.189
Mof_H 	H 	0.1635	0.8868	0.1141	-0.077
Mof_C 	C 	0.3295	0.9685	0.0718	0.002
Mof_H 	H 	0.3875	0.0187	0.0677	0.079
Mof_W 	W 	0.02716	0.21923	0.50575	1.171
Mof_W 	W 	0.22752	0.18559	0.5017	0.986
Mof_W 	W 	0.075	0.13412	0.44494	0.952
Mof_W 	W 	0.93492	0.08165	0.55621	1.123
Mof_Lu	Lu	0.00985	0.44907	0.50612	1.685
Mof_C 	C 	0.95227	0.30243	0.42763	-0.144
Mof_O 	O 	0.13907	0.22803	0.50983	-0.471
Mof_O 	O 	0.05557	0.33543	0.50223	-0.601
Mof_O 	O 	0.89317	0.17213	0.49673	-0.434
Mof_C 	C 	0.95417	0.22503	0.38763	-0.152
Mof_O 	O 	0.11607	0.04543	0.51253	-0.319
Mof_O 	O 	0.03307	0.18733	0.46813	-0.47
Mof_N 	N 	0.82817	0.15743	0.41813	-0.162
Mof_O 	O 	0.08647	0.28123	0.36283	-0.642
Mof_O 	O 	0.95897	0.37973	0.46703	-0.451
Mof_O 	O 	0.23697	0.17863	0.53933	-0.448
Mof_O 	O 	0.17907	0.16473	0.46703	-0.434
Mof_O 	O 	0.89597	0.95643	0.55893	-0.51
Mof_O 	O 	0.95657	0.06323	0.42883	-0.331
Mof_O 	O 	0.96277	0.16283	0.34783	-0.275
Mof_C 	C 	0.00147	0.38713	0.44483	0.247
Mof_O 	O 	0.07247	0.45683	0.43773	-0.351
Mof_C 	C 	0.00517	0.22253	0.36423	0.326
Mof_O 	O 	0.99757	0.21213	0.54143	-0.42
Mof_C 	C 	0.86727	0.15173	0.39563	0.124
Mof_H 	H 	0.83507	0.09733	0.38503	-0.014
Mof_C 	C 	0.86887	0.22873	0.43263	0.136
Mof_H 	H 	0.83017	0.22013	0.44743	-0.016
Mof_C 	C 	0.99617	0.30183	0.40513	0.23
Mof_H 	H 	0.05417	0.35203	0.40103	-0.11
Mof_W 	W 	0.69382	0.55257	0.83909	1.313
Mof_W 	W 	0.89418	0.51893	0.83504	1.022
Mof_W 	W 	0.74166	0.46746	0.77828	1.032
Mof_W 	W 	0.60158	0.41499	0.88955	0.977
Mof_Lu	Lu	0.67651	0.78241	0.83945	1.809
Mof_C 	C 	0.61893	0.63577	0.76097	-0.252
Mof_O 	O 	0.80573	0.56137	0.84317	-0.482
Mof_O 	O 	0.72223	0.66877	0.83557	-0.613
Mof_O 	O 	0.55983	0.50547	0.83007	-0.473
Mof_C 	C 	0.62083	0.55837	0.72097	-0.267
Mof_O 	O 	0.78273	0.37877	0.84587	-0.355
Mof_O 	O 	0.69973	0.52067	0.80147	-0.461
Mof_N 	N 	0.49483	0.49077	0.75147	-0.191
Mof_O 	O 	0.75313	0.61457	0.69617	-0.691
Mof_O 	O 	0.62563	0.71307	0.80037	-0.587
Mof_O 	O 	0.90363	0.51197	0.87267	-0.431
Mof_O 	O 	0.84573	0.49807	0.80037	-0.448
Mof_O 	O 	0.56263	0.28977	0.89227	-0.451
Mof_O 	O 	0.62323	0.39657	0.76217	-0.432
Mof_O 	O 	0.62943	0.49617	0.68117	-0.41
Mof_C 	C 	0.66813	0.72047	0.77817	0.424
Mof_O 	O 	0.73913	0.79017	0.77107	-0.387
Mof_C 	C 	0.67183	0.55587	0.69757	0.536
Mof_O 	O 	0.66423	0.54547	0.87477	-0.481
Mof_C 	C 	0.53393	0.48507	0.72897	0.175
Mof_H 	H 	0.50173	0.43067	0.71837	-0.054
Mof_C 	C 	0.53553	0.56207	0.76597	0.189
Mof_H 	H 	0.49683	0.55347	0.78077	-0.047
Mof_C 	C 	0.66283	0.63517	0.73847	0.178
Mof_H 	H 	0.72083	0.68537	0.73437	-0.047
Mof_W 	W 	0.1141	0.47459	0.17242	1.24
Mof_W 	W 	0.14774	0.70859	0.16837	0.957
Mof_W 	W 	0.19921	0.60754	0.11161	1.013
Mof_W 	W 	0.25168	0.51993	0.22288	0.963
Mof_Lu	Lu	0.88426	0.22744	0.17278	1.982
Mof_C 	C 	0.0309	0.3165	0.0943	-0.273
Mof_O 	O 	0.1053	0.5777	0.1765	-0.491
Mof_O 	O 	0.9979	0.3868	0.1689	-0.57
Mof_O 	O 	0.1612	0.3877	0.1634	-0.483
Mof_C 	C 	0.1083	0.3958	0.0543	-0.215
Mof_O 	O 	0.2879	0.7373	0.1792	-0.336
Mof_O 	O 	0.146	0.5124	0.1348	-0.465
Mof_N 	N 	0.1759	0.3374	0.0848	-0.187
Mof_O 	O 	0.0521	0.4719	0.0295	-0.673
Mof_O 	O 	0.9536	0.2459	0.1337	-0.582
Mof_O 	O 	0.1547	0.725	0.206	-0.46
Mof_O 	O 	0.1686	0.681	0.1337	-0.456
Mof_O 	O 	0.3769	0.6062	0.2256	-0.45
Mof_O 	O 	0.2701	0.56	0.0955	-0.429
Mof_O 	O 	0.1705	0.4666	0.0145	-0.404
Mof_C 	C 	0.9462	0.281	0.1115	0.486
Mof_O 	O 	0.8765	0.2823	0.1044	-0.375
Mof_C 	C 	0.1108	0.4493	0.0309	0.496
Mof_O 	O 	0.1212	0.4521	0.2081	-0.498
Mof_C 	C 	0.1816	0.3822	0.0623	0.149
Mof_H 	H 	0.236	0.4044	0.0517	-0.046
Mof_C 	C 	0.1046	0.3068	0.0993	0.186
Mof_H 	H 	0.1132	0.2767	0.1141	-0.059
Mof_C 	C 	0.0315	0.361	0.0718	0.017
Mof_H 	H 	0.9813	0.3688	0.0677	0.069
Mof_W 	W 	0.78077	0.80792	0.50575	1.312
Mof_W 	W 	0.81441	0.04192	0.5017	1.075
Mof_W 	W 	0.86588	0.94087	0.44494	0.898
Mof_W 	W 	0.91835	0.85326	0.55621	1.046
Mof_Lu	Lu	0.55093	0.56077	0.50612	1.883
Mof_C 	C 	0.69757	0.64983	0.42763	-0.246
Mof_O 	O 	0.77197	0.91103	0.50983	-0.533
Mof_O 	O 	0.66457	0.72013	0.50223	-0.622
Mof_O 	O 	0.82787	0.72103	0.49673	-0.477
Mof_C 	C 	0.77497	0.72913	0.38763	-0.258
Mof_O 	O 	0.95457	0.07063	0.51253	-0.293
Mof_O 	O 	0.81267	0.84573	0.46813	-0.453
Mof_N 	N 	0.84257	0.67073	0.41813	-0.18
Mof_O 	O 	0.71877	0.80523	0.36283	-0.672
Mof_O 	O 	0.62027	0.57923	0.46703	-0.589
Mof_O 	O 	0.82137	0.05833	0.53933	-0.429
Mof_O 	O 	0.83527	0.01433	0.46703	-0.39
Mof_O 	O 	0.04357	0.93953	0.55893	-0.561
Mof_O 	O 	0.93677	0.89333	0.42883	-0.383
Mof_O 	O 	0.83717	0.79993	0.34783	-0.398
Mof_C 	C 	0.61287	0.61433	0.44483	0.425
Mof_O 	O 	0.54317	0.61563	0.43773	-0.384
Mof_C 	C 	0.77747	0.78263	0.36423	0.521
Mof_O 	O 	0.78787	0.78543	0.54143	-0.49
Mof_C 	C 	0.84827	0.71553	0.39563	0.169
Mof_H 	H 	0.90267	0.73773	0.38503	-0.036
Mof_C 	C 	0.77127	0.64013	0.43263	0.185
Mof_H 	H 	0.77987	0.61003	0.44743	-0.039
Mof_C 	C 	0.69817	0.69433	0.40513	0.171
Mof_H 	H 	0.64797	0.70213	0.40103	-0.047
Mof_W 	W 	0.44743	0.14126	0.83909	1.311
Mof_W 	W 	0.48107	0.37526	0.83504	0.995
Mof_W 	W 	0.53254	0.27421	0.77828	1.031
Mof_W 	W 	0.58501	0.1866	0.88955	0.992
Mof_Lu	Lu	0.21759	0.89411	0.83945	1.658
Mof_C 	C 	0.36423	0.98317	0.76097	-0.366
Mof_O 	O 	0.43863	0.24437	0.84317	-0.481
Mof_O 	O 	0.33123	0.05347	0.83557	-0.556
Mof_O 	O 	0.49453	0.05437	0.83007	-0.444
Mof_C 	C 	0.44163	0.06247	0.72097	-0.299
Mof_O 	O 	0.62123	0.40397	0.84587	-0.351
Mof_O 	O 	0.47933	0.17907	0.80147	-0.45
Mof_N 	N 	0.50923	0.00407	0.75147	-0.139
Mof_O 	O 	0.38543	0.13857	0.69617	-0.687
Mof_O 	O 	0.28693	0.91257	0.80037	-0.592
Mof_O 	O 	0.48803	0.39167	0.87267	-0.443
Mof_O 	O 	0.50193	0.34767	0.80037	-0.453
Mof_O 	O 	0.71023	0.27287	0.89227	-0.452
Mof_O 	O 	0.60343	0.22667	0.76217	-0.429
Mof_O 	O 	0.50383	0.13327	0.68117	-0.402
Mof_C 	C 	0.27953	0.94767	0.77817	0.44
Mof_O 	O 	0.20983	0.94897	0.77107	-0.431
Mof_C 	C 	0.44413	0.11597	0.69757	0.559
Mof_O 	O 	0.45453	0.11877	0.87477	-0.465
Mof_C 	C 	0.51493	0.04887	0.72897	0.211
Mof_H 	H 	0.56933	0.07107	0.71837	-0.054
Mof_C 	C 	0.43793	0.97347	0.76597	0.134
Mof_H 	H 	0.44653	0.94337	0.78077	-0.054
Mof_C 	C 	0.36483	0.02767	0.73847	0.329
Mof_H 	H 	0.31463	0.03547	0.73437	-0.074
Mof_W 	W 	0.36049	0.47459	0.67242	1.314
Mof_W 	W 	0.56085	0.70859	0.66837	0.991
Mof_W 	W 	0.40833	0.60754	0.61161	1.026
Mof_W 	W 	0.26825	0.51993	0.72288	0.97
Mof_Lu	Lu	0.34318	0.22744	0.67278	1.901
Mof_C 	C 	0.2856	0.3165	0.5943	-0.251
Mof_O 	O 	0.4724	0.5777	0.6765	-0.482
Mof_O 	O 	0.3889	0.3868	0.6689	-0.623
Mof_O 	O 	0.2265	0.3877	0.6634	-0.475
Mof_C 	C 	0.2875	0.3958	0.5543	-0.263
Mof_O 	O 	0.4494	0.7373	0.6792	-0.341
Mof_O 	O 	0.3664	0.5124	0.6348	-0.461
Mof_N 	N 	0.1615	0.3374	0.5848	-0.2
Mof_O 	O 	0.4198	0.4719	0.5295	-0.687
Mof_O 	O 	0.2923	0.2459	0.6337	-0.592
Mof_O 	O 	0.5703	0.725	0.706	-0.445
Mof_O 	O 	0.5124	0.681	0.6337	-0.453
Mof_O 	O 	0.2293	0.6062	0.7256	-0.455
Mof_O 	O 	0.2899	0.56	0.5955	-0.43
Mof_O 	O 	0.2961	0.4666	0.5145	-0.408
Mof_C 	C 	0.3348	0.281	0.6115	0.427
Mof_O 	O 	0.4058	0.2823	0.6044	-0.372
Mof_C 	C 	0.3385	0.4493	0.5309	0.534
Mof_O 	O 	0.3309	0.4521	0.7081	-0.482
Mof_C 	C 	0.2006	0.3822	0.5623	0.168
Mof_H 	H 	0.1684	0.4044	0.5517	-0.055
Mof_C 	C 	0.2022	0.3068	0.5993	0.19
Mof_H 	H 	0.1635	0.2767	0.6141	-0.055
Mof_C 	C 	0.3295	0.361	0.5718	0.175
Mof_H 	H 	0.3875	0.3688	0.5677	-0.043
Mof_W 	W 	0.02716	0.80792	0.00575	1.16
Mof_W 	W 	0.22752	0.04192	0.0017	1.061
Mof_W 	W 	0.075	0.94087	0.94494	0.804
Mof_W 	W 	0.93492	0.85326	0.05621	1.037
Mof_Lu	Lu	0.00985	0.56077	0.00612	1.674
Mof_C 	C 	0.95227	0.64983	0.92763	-0.147
Mof_O 	O 	0.13907	0.91103	0.00983	-0.519
Mof_O 	O 	0.05557	0.72013	0.00223	-0.602
Mof_O 	O 	0.89317	0.72103	0.99673	-0.419
Mof_C 	C 	0.95417	0.72913	0.88763	-0.159
Mof_O 	O 	0.11607	0.07063	0.01253	-0.355
Mof_O 	O 	0.03307	0.84573	0.96813	-0.46
Mof_N 	N 	0.82817	0.67073	0.91813	-0.172
Mof_O 	O 	0.08647	0.80523	0.86283	-0.631
Mof_O 	O 	0.95897	0.57923	0.96703	-0.449
Mof_O 	O 	0.23697	0.05833	0.03933	-0.424
Mof_O 	O 	0.17907	0.01433	0.96703	-0.384
Mof_O 	O 	0.89597	0.93953	0.05893	-0.506
Mof_O 	O 	0.95657	0.89333	0.92883	-0.376
Mof_O 	O 	0.96277	0.79993	0.84783	-0.301
Mof_C 	C 	0.00147	0.61433	0.94483	0.248
Mof_O 	O 	0.07247	0.61563	0.93773	-0.351
Mof_C 	C 	0.00517	0.78263	0.86423	0.32
Mof_O 	O 	0.99757	0.78543	0.04143	-0.411
Mof_C 	C 	0.86727	0.71553	0.89563	0.126
Mof_H 	H 	0.83507	0.73773	0.88503	-0.036
Mof_C 	C 	0.86887	0.64013	0.93263	0.14
Mof_H 	H 	0.83017	0.61003	0.94743	-0.022
Mof_C 	C 	0.99617	0.69433	0.90513	0.235
Mof_H 	H 	0.05417	0.70213	0.90103	-0.113
Mof_W 	W 	0.69382	0.14126	0.33909	1.315
Mof_W 	W 	0.89418	0.37526	0.33504	1.023
Mof_W 	W 	0.74166	0.27421	0.27828	1.039
Mof_W 	W 	0.60158	0.1866	0.38955	0.991
Mof_Lu	Lu	0.67651	0.89411	0.33945	1.736
Mof_C 	C 	0.61893	0.98317	0.26097	-0.359
Mof_O 	O 	0.80573	0.24437	0.34317	-0.48
Mof_O 	O 	0.72223	0.05347	0.33557	-0.561
Mof_O 	O 	0.55983	0.05437	0.33007	-0.445
Mof_C 	C 	0.62083	0.06247	0.22097	-0.295
Mof_O 	O 	0.78273	0.40397	0.34587	-0.355
Mof_O 	O 	0.69973	0.17907	0.30147	-0.449
Mof_N 	N 	0.49483	0.00407	0.25147	-0.139
Mof_O 	O 	0.75313	0.13857	0.19617	-0.69
Mof_O 	O 	0.62563	0.91257	0.30037	-0.595
Mof_O 	O 	0.90363	0.39167	0.37267	-0.431
Mof_O 	O 	0.84573	0.34767	0.30037	-0.447
Mof_O 	O 	0.56263	0.27287	0.39227	-0.452
Mof_O 	O 	0.62323	0.22667	0.26217	-0.429
Mof_O 	O 	0.62943	0.13327	0.18117	-0.402
Mof_C 	C 	0.66813	0.94767	0.27817	0.439
Mof_O 	O 	0.73913	0.94897	0.27107	-0.406
Mof_C 	C 	0.67183	0.11597	0.19757	0.561
Mof_O 	O 	0.66423	0.11877	0.37477	-0.467
Mof_C 	C 	0.53393	0.04887	0.22897	0.209
Mof_H 	H 	0.50173	0.07107	0.21837	-0.053
Mof_C 	C 	0.53553	0.97347	0.26597	0.132
Mof_H 	H 	0.49683	0.94337	0.28077	-0.053
Mof_C 	C 	0.66283	0.02767	0.23847	0.324
Mof_H 	H 	0.72083	0.03547	0.23437	-0.064
Mof_W 	W 	0.1141	0.63951	0.67242	1.238
Mof_W 	W 	0.14774	0.43915	0.66837	0.964
Mof_W 	W 	0.19921	0.59167	0.61161	1.013
Mof_W 	W 	0.25168	0.73175	0.72288	0.959
Mof_Lu	Lu	0.88426	0.65682	0.67278	1.907
Mof_C 	C 	0.0309	0.7144	0.5943	-0.28
Mof_O 	O 	0.1053	0.5276	0.6765	-0.491
Mof_O 	O 	0.9979	0.6111	0.6689	-0.563
Mof_O 	O 	0.1612	0.7735	0.6634	-0.487
Mof_C 	C 	0.1083	0.7125	0.5543	-0.215
Mof_O 	O 	0.2879	0.5506	0.6792	-0.346
Mof_O 	O 	0.146	0.6336	0.6348	-0.465
Mof_N 	N 	0.1759	0.8385	0.5848	-0.199
Mof_O 	O 	0.0521	0.5802	0.5295	-0.674
Mof_O 	O 	0.9536	0.7077	0.6337	-0.587
Mof_O 	O 	0.1547	0.4297	0.706	-0.455
Mof_O 	O 	0.1686	0.4876	0.6337	-0.457
Mof_O 	O 	0.3769	0.7707	0.7256	-0.454
Mof_O 	O 	0.2701	0.7101	0.5955	-0.428
Mof_O 	O 	0.1705	0.7039	0.5145	-0.401
Mof_C 	C 	0.9462	0.6652	0.6115	0.486
Mof_O 	O 	0.8765	0.5942	0.6044	-0.382
Mof_C 	C 	0.1108	0.6615	0.5309	0.496
Mof_O 	O 	0.1212	0.6691	0.7081	-0.501
Mof_C 	C 	0.1816	0.7994	0.5623	0.143
Mof_H 	H 	0.236	0.8316	0.5517	-0.048
Mof_C 	C 	0.1046	0.7978	0.5993	0.19
Mof_H 	H 	0.1132	0.8365	0.6141	-0.077
Mof_C 	C 	0.0315	0.6705	0.5718	0.019
Mof_H 	H 	0.9813	0.6125	0.5677	0.067
Mof_W 	W 	0.78077	0.97284	0.00575	1.15
Mof_W 	W 	0.81441	0.77248	0.0017	0.98
Mof_W 	W 	0.86588	0.925	0.94494	0.942
Mof_W 	W 	0.91835	0.06508	0.05621	1.122
Mof_Lu	Lu	0.55093	0.99015	0.00612	1.657
Mof_C 	C 	0.69757	0.04773	0.92763	-0.133
Mof_O 	O 	0.77197	0.86093	0.00983	-0.469
Mof_O 	O 	0.66457	0.94443	0.00223	-0.598
Mof_O 	O 	0.82787	0.10683	0.99673	-0.424
Mof_C 	C 	0.77497	0.04583	0.88763	-0.142
Mof_O 	O 	0.95457	0.88393	0.01253	-0.326
Mof_O 	O 	0.81267	0.96693	0.96813	-0.469
Mof_N 	N 	0.84257	0.17183	0.91813	-0.161
Mof_O 	O 	0.71877	0.91353	0.86283	-0.637
Mof_O 	O 	0.62027	0.04103	0.96703	-0.434
Mof_O 	O 	0.82137	0.76303	0.03933	-0.447
Mof_O 	O 	0.83527	0.82093	0.96703	-0.432
Mof_O 	O 	0.04357	0.10403	0.05893	-0.504
Mof_O 	O 	0.93677	0.04343	0.92883	-0.331
Mof_O 	O 	0.83717	0.03723	0.84783	-0.265
Mof_C 	C 	0.61287	0.99853	0.94483	0.228
Mof_O 	O 	0.54317	0.92753	0.93773	-0.346
Mof_C 	C 	0.77747	0.99483	0.86423	0.305
Mof_O 	O 	0.78787	0.00243	0.04143	-0.412
Mof_C 	C 	0.84827	0.13273	0.89563	0.12
Mof_H 	H 	0.90267	0.16493	0.88503	-0.014
Mof_C 	C 	0.77127	0.13113	0.93263	0.131
Mof_H 	H 	0.77987	0.16983	0.94743	-0.014
Mof_C 	C 	0.69817	0.00383	0.90513	0.237
Mof_H 	H 	0.64797	0.94583	0.90103	-0.117
Mof_W 	W 	0.44743	0.30618	0.33909	1.314
Mof_W 	W 	0.48107	0.10582	0.33504	1.025
Mof_W 	W 	0.53254	0.25834	0.27828	1.032
Mof_W 	W 	0.58501	0.39842	0.38955	0.976
Mof_Lu	Lu	0.21759	0.32349	0.33945	1.817
Mof_C 	C 	0.36423	0.38107	0.26097	-0.251
Mof_O 	O 	0.43863	0.19427	0.34317	-0.482
Mof_O 	O 	0.33123	0.27777	0.33557	-0.614
Mof_O 	O 	0.49453	0.44017	0.33007	-0.473
Mof_C 	C 	0.44163	0.37917	0.22097	-0.266
Mof_O 	O 	0.62123	0.21727	0.34587	-0.355
Mof_O 	O 	0.47933	0.30027	0.30147	-0.461
Mof_N 	N 	0.50923	0.50517	0.25147	-0.191
Mof_O 	O 	0.38543	0.24687	0.19617	-0.691
Mof_O 	O 	0.28693	0.37437	0.30037	-0.588
Mof_O 	O 	0.48803	0.09637	0.37267	-0.43
Mof_O 	O 	0.50193	0.15427	0.30037	-0.447
Mof_O 	O 	0.71023	0.43737	0.39227	-0.451
Mof_O 	O 	0.60343	0.37677	0.26217	-0.432
Mof_O 	O 	0.50383	0.37057	0.18117	-0.41
Mof_C 	C 	0.27953	0.33187	0.27817	0.424
Mof_O 	O 	0.20983	0.26087	0.27107	-0.384
Mof_C 	C 	0.44413	0.32817	0.19757	0.536
Mof_O 	O 	0.45453	0.33577	0.37477	-0.481
Mof_C 	C 	0.51493	0.46607	0.22897	0.175
Mof_H 	H 	0.56933	0.49827	0.21837	-0.054
Mof_C 	C 	0.43793	0.46447	0.26597	0.189
Mof_H 	H 	0.44653	0.50317	0.28077	-0.047
Mof_C 	C 	0.36483	0.33717	0.23847	0.178
Mof_H 	H 	0.31463	0.27917	0.23437	-0.046
Mof_W 	W 	0.52541	0.8859	0.67242	1.232
Mof_W 	W 	0.29141	0.85226	0.66837	0.954
Mof_W 	W 	0.39246	0.80079	0.61161	1.011
Mof_W 	W 	0.48007	0.74832	0.72288	0.962
Mof_Lu	Lu	0.77256	0.11574	0.67278	1.983
Mof_C 	C 	0.6835	0.9691	0.5943	-0.276
Mof_O 	O 	0.4223	0.8947	0.6765	-0.492
Mof_O 	O 	0.6132	0.0021	0.6689	-0.563
Mof_O 	O 	0.6123	0.8388	0.6634	-0.484
Mof_C 	C 	0.6042	0.8917	0.5543	-0.21
Mof_O 	O 	0.2627	0.7121	0.6792	-0.337
Mof_O 	O 	0.4876	0.854	0.6348	-0.466
Mof_N 	N 	0.6626	0.8241	0.5848	-0.186
Mof_O 	O 	0.5281	0.9479	0.5295	-0.672
Mof_O 	O 	0.7541	0.0464	0.6337	-0.582
Mof_O 	O 	0.275	0.8453	0.706	-0.461
Mof_O 	O 	0.319	0.8314	0.6337	-0.457
Mof_O 	O 	0.3938	0.6231	0.7256	-0.45
Mof_O 	O 	0.44	0.7299	0.5955	-0.429
Mof_O 	O 	0.5334	0.8295	0.5145	-0.403
Mof_C 	C 	0.719	0.0538	0.6115	0.492
Mof_O 	O 	0.7177	0.1235	0.6044	-0.376
Mof_C 	C 	0.5507	0.8892	0.5309	0.492
Mof_O 	O 	0.5479	0.8788	0.7081	-0.5
Mof_C 	C 	0.6178	0.8184	0.5623	0.146
Mof_H 	H 	0.5956	0.764	0.5517	-0.045
Mof_C 	C 	0.6932	0.8954	0.5993	0.186
Mof_H 	H 	0.7233	0.8868	0.6141	-0.061
Mof_C 	C 	0.639	0.9685	0.5718	0
Mof_H 	H 	0.6312	0.0187	0.5677	0.081
Mof_W 	W 	0.19208	0.21923	0.00575	1.308
Mof_W 	W 	0.95808	0.18559	0.0017	1.062
Mof_W 	W 	0.05913	0.13412	0.94494	0.912
Mof_W 	W 	0.14674	0.08165	0.05621	1.054
Mof_Lu	Lu	0.43923	0.44907	0.00612	1.878
Mof_C 	C 	0.35017	0.30243	0.92763	-0.245
Mof_O 	O 	0.08897	0.22803	0.00983	-0.528
Mof_O 	O 	0.27987	0.33543	0.00223	-0.622
Mof_O 	O 	0.27897	0.17213	0.99673	-0.474
Mof_C 	C 	0.27087	0.22503	0.88763	-0.257
Mof_O 	O 	0.92937	0.04543	0.01253	-0.29
Mof_O 	O 	0.15427	0.18733	0.96813	-0.452
Mof_N 	N 	0.32927	0.15743	0.91813	-0.179
Mof_O 	O 	0.19477	0.28123	0.86283	-0.673
Mof_O 	O 	0.42077	0.37973	0.96703	-0.587
Mof_O 	O 	0.94167	0.17863	0.03933	-0.431
Mof_O 	O 	0.98567	0.16473	0.96703	-0.392
Mof_O 	O 	0.06047	0.95643	0.05893	-0.561
Mof_O 	O 	0.10667	0.06323	0.92883	-0.378
Mof_O 	O 	0.20007	0.16283	0.84783	-0.395
Mof_C 	C 	0.38567	0.38713	0.94483	0.424
Mof_O 	O 	0.38437	0.45683	0.93773	-0.382
Mof_C 	C 	0.21737	0.22253	0.86423	0.522
Mof_O 	O 	0.21457	0.21213	0.04143	-0.491
Mof_C 	C 	0.28447	0.15173	0.89563	0.168
Mof_H 	H 	0.26227	0.09733	0.88503	-0.034
Mof_C 	C 	0.35987	0.22873	0.93263	0.184
Mof_H 	H 	0.38997	0.22013	0.94743	-0.038
Mof_C 	C 	0.30567	0.30183	0.90513	0.171
Mof_H 	H 	0.29787	0.35203	0.90103	-0.046
Mof_W 	W 	0.85874	0.55257	0.33909	1.311
Mof_W 	W 	0.62474	0.51893	0.33504	0.995
Mof_W 	W 	0.72579	0.46746	0.27828	1.03
Mof_W 	W 	0.8134	0.41499	0.38955	0.99
Mof_Lu	Lu	0.10589	0.78241	0.33945	1.665
Mof_C 	C 	0.01683	0.63577	0.26097	-0.356
Mof_O 	O 	0.75563	0.56137	0.34317	-0.481
Mof_O 	O 	0.94653	0.66877	0.33557	-0.561
Mof_O 	O 	0.94563	0.50547	0.33007	-0.446
Mof_C 	C 	0.93753	0.55837	0.22097	-0.296
Mof_O 	O 	0.59603	0.37877	0.34587	-0.351
Mof_O 	O 	0.82093	0.52067	0.30147	-0.451
Mof_N 	N 	0.99593	0.49077	0.25147	-0.144
Mof_O 	O 	0.86143	0.61457	0.19617	-0.687
Mof_O 	O 	0.08743	0.71307	0.30037	-0.591
Mof_O 	O 	0.60833	0.51197	0.37267	-0.443
Mof_O 	O 	0.65233	0.49807	0.30037	-0.453
Mof_O 	O 	0.72713	0.28977	0.39227	-0.452
Mof_O 	O 	0.77333	0.39657	0.26217	-0.429
Mof_O 	O 	0.86673	0.49617	0.18117	-0.402
Mof_C 	C 	0.05233	0.72047	0.27817	0.439
Mof_O 	O 	0.05103	0.79017	0.27107	-0.429
Mof_C 	C 	0.88403	0.55587	0.19757	0.556
Mof_O 	O 	0.88123	0.54547	0.37477	-0.467
Mof_C 	C 	0.95113	0.48507	0.22897	0.208
Mof_H 	H 	0.92893	0.43067	0.21837	-0.054
Mof_C 	C 	0.02653	0.56207	0.26597	0.14
Mof_H 	H 	0.05663	0.55347	0.28077	-0.054
Mof_C 	C 	0.97233	0.63517	0.23847	0.315
Mof_H 	H 	0.96453	0.68537	0.23437	-0.072
Mof_O 	O 	0.33333	0.66667	0.1337	-0.313
Mof_O 	O 	-3.29571e-32	-3.29571e-32	0.46703	-0.289
Mof_O 	O 	0.66667	0.33333	0.80037	-0.32
Mof_O 	O 	0.33333	0.66667	0.6337	-0.313
Mof_O 	O 	-3.29571e-32	-6.59142e-32	0.96703	-0.287
Mof_O 	O 	0.66667	0.33333	0.30037	-0.32
_end
