data_functionalizedCrystal
_audit_creation_method	'EQeq! by Chris Wilmer'
_symmetry_space_group_name_H-M	'P1'
_symmetry_Int_Tables_number	1
_symmetry_cell_setting	triclinic
loop_
_symmetry_equiv_pos_as_xyz
  x,y,z
_cell_length_a	21.963
_cell_length_b	7.6577
_cell_length_c	6.1689
_cell_angle_alpha	90
_cell_angle_beta	91.48
_cell_angle_gamma	90
loop_
_atom_site_label
_atom_site_type_symbol
_atom_site_fract_x
_atom_site_fract_y
_atom_site_fract_z
_atom_site_charge
Mof_Ce	Ce	0.35468	0.74659	0.94994	3.264
Mof_O 	O 	0.4561	0.6383	0.1142	-0.577
Mof_O 	O 	0.4627	0.8558	0.8514	-0.547
Mof_O 	O 	0.344	0.7989	0.3445	-0.641
Mof_O 	O 	0.3409	0.9555	0.6466	-0.623
Mof_O 	O 	0.3623	0.0559	0.0972	-0.655
Mof_H 	H 	0.3938	0.1129	0.0613	0.27
Mof_O 	O 	0.23679	0.1092	0.2825	-0.564
Mof_H 	H 	0.2451	0.0242	0.1986	0.269
Mof_O 	O 	0.3353	0.4618	0.1392	-0.604
Mof_O 	O 	0.2499	0.3545	0.9956	-0.583
Mof_C 	C 	0.3444	0.9392	0.4453	0.431
Mof_C 	C 	0.3496	0.1074	0.3093	0.08
Mof_H 	H 	0.3832	0.1789	0.3675	-0.007
Mof_C 	C 	0.2903	0.2123	0.3138	-0.014
Mof_H 	H 	0.2882	0.2702	0.4551	0.039
Mof_C 	C 	0.2929	0.3543	0.1372	0.433
Mof_O 	O 	0.3885	0.5478	0.6431	-0.949
Mof_H 	H 	0.4162	0.4915	0.5758	0.393
Mof_H 	H 	0.3667	0.613	0.558	0.321
Mof_Ce	Ce	0.85468	0.24659	0.94994	3.323
Mof_O 	O 	0.9561	0.1383	0.1142	-0.528
Mof_O 	O 	0.9627	0.3558	0.8514	-0.502
Mof_O 	O 	0.844	0.2989	0.3445	-0.641
Mof_O 	O 	0.8409	0.4555	0.6466	-0.622
Mof_O 	O 	0.8623	0.5559	0.0972	-0.67
Mof_H 	H 	0.8938	0.6129	0.0613	0.265
Mof_O 	O 	0.73679	0.6092	0.2825	-0.565
Mof_H 	H 	0.7451	0.5242	0.1986	0.254
Mof_O 	O 	0.8353	0.9618	0.1392	-0.637
Mof_O 	O 	0.7499	0.8545	0.9956	-0.604
Mof_C 	C 	0.8444	0.4392	0.4453	0.477
Mof_C 	C 	0.8496	0.6074	0.3093	0.04
Mof_H 	H 	0.8832	0.6789	0.3675	-0.005
Mof_C 	C 	0.7903	0.7123	0.3138	-0.01
Mof_H 	H 	0.7882	0.7702	0.4551	0.027
Mof_C 	C 	0.7929	0.8543	0.1372	0.438
Mof_O 	O 	0.8885	0.0478	0.6431	-0.881
Mof_H 	H 	0.9162	0.9915	0.5758	0.338
Mof_H 	H 	0.8667	0.113	0.558	0.306
Mof_Ce	Ce	0.64532	0.74659	0.05006	3.032
Mof_O 	O 	0.5439	0.6383	0.8858	-0.525
Mof_O 	O 	0.5373	0.8558	0.1486	-0.557
Mof_O 	O 	0.656	0.7989	0.6555	-0.606
Mof_O 	O 	0.6591	0.9555	0.3534	-0.61
Mof_O 	O 	0.6377	0.0559	0.9028	-0.617
Mof_H 	H 	0.6062	0.1129	0.9387	0.279
Mof_O 	O 	0.76321	0.1092	0.7175	-0.571
Mof_H 	H 	0.7549	0.0242	0.8014	0.274
Mof_O 	O 	0.6647	0.4618	0.8608	-0.579
Mof_O 	O 	0.7501	0.3545	0.0044	-0.669
Mof_C 	C 	0.6556	0.9392	0.5547	0.42
Mof_C 	C 	0.6504	0.1074	0.6907	0.08
Mof_H 	H 	0.6168	0.1789	0.6325	-0.006
Mof_C 	C 	0.7097	0.2123	0.6862	-0.027
Mof_H 	H 	0.7118	0.2702	0.5449	0.04
Mof_C 	C 	0.7071	0.3543	0.8628	0.499
Mof_O 	O 	0.6115	0.5478	0.3569	-0.937
Mof_H 	H 	0.5838	0.4915	0.4242	0.387
Mof_H 	H 	0.6333	0.613	0.442	0.326
Mof_Ce	Ce	0.14532	0.24659	0.05006	3.085
Mof_O 	O 	0.0439	0.1383	0.8858	-0.506
Mof_O 	O 	0.0373	0.3558	0.1486	-0.542
Mof_O 	O 	0.156	0.2989	0.6555	-0.606
Mof_O 	O 	0.1591	0.4555	0.3534	-0.609
Mof_O 	O 	0.1377	0.5559	0.9028	-0.631
Mof_H 	H 	0.1062	0.6129	0.9387	0.266
Mof_O 	O 	0.26321	0.6092	0.7175	-0.573
Mof_H 	H 	0.2549	0.5242	0.8014	0.259
Mof_O 	O 	0.1647	0.9618	0.8608	-0.614
Mof_O 	O 	0.2501	0.8545	0.0044	-0.69
Mof_C 	C 	0.1556	0.4392	0.5547	0.462
Mof_C 	C 	0.1504	0.6074	0.6907	0.041
Mof_H 	H 	0.1168	0.6789	0.6325	-0.01
Mof_C 	C 	0.2097	0.7123	0.6862	-0.024
Mof_H 	H 	0.2118	0.7702	0.5449	0.027
Mof_C 	C 	0.2071	0.8543	0.8628	0.504
Mof_O 	O 	0.1115	0.0478	0.3569	-0.867
Mof_H 	H 	0.0838	0.9915	0.4242	0.322
Mof_H 	H 	0.1333	0.113	0.442	0.308
Mof_S 	S 	0.5	0.7451	-0	0.657
Mof_S 	S 	-0	0.2451	-0	0.569
_end
