data_functionalizedCrystal
_audit_creation_method	'EQeq! by Chris Wilmer'
_symmetry_space_group_name_H-M	'P1'
_symmetry_Int_Tables_number	1
_symmetry_cell_setting	triclinic
loop_
_symmetry_equiv_pos_as_xyz
  x,y,z
_cell_length_a	8.5947
_cell_length_b	13.187
_cell_length_c	9.6462
_cell_angle_alpha	90
_cell_angle_beta	96.496
_cell_angle_gamma	90
loop_
_atom_site_label
_atom_site_type_symbol
_atom_site_fract_x
_atom_site_fract_y
_atom_site_fract_z
_atom_site_charge
Mof_Nd	Nd	0.54956	0.26554	0.49658	1.837
Mof_C 	C 	0.5448	0.3905	0.747	0.285
Mof_C 	C 	0.5267	0.4519	0.8761	-0.048
Mof_C 	C 	0.6203	0.4273	0.0005	-0.054
Mof_C 	C 	0.4073	0.5256	0.8729	-0.105
Mof_C 	C 	0.7608	0.3583	0.9967	0.292
Mof_C 	C 	0.3031	0.551	0.7384	0.412
Mof_O 	O 	0.5467	0.4335	0.6301	-0.423
Mof_O 	O 	0.5537	0.294	0.7585	-0.444
Mof_O 	O 	0.788	0.2883	0.0856	-0.426
Mof_O 	O 	0.8532	0.376	0.9037	-0.444
Mof_O 	O 	0.3516	0.6158	0.6588	-0.531
Mof_O 	O 	0.1717	0.5077	0.719	-0.331
Mof_Nd	Nd	0.95044	0.76554	0.00342	1.797
Mof_C 	C 	0.9552	0.8905	0.753	0.285
Mof_C 	C 	0.9733	0.9519	0.6239	-0.046
Mof_C 	C 	0.8797	0.9273	0.4995	-0.051
Mof_C 	C 	0.0927	0.0256	0.6271	-0.113
Mof_C 	C 	0.7392	0.8583	0.5033	0.284
Mof_C 	C 	0.1969	0.051	0.7616	0.411
Mof_O 	O 	0.9533	0.9335	0.8699	-0.411
Mof_O 	O 	0.9463	0.794	0.7415	-0.437
Mof_O 	O 	0.712	0.7883	0.4144	-0.426
Mof_O 	O 	0.6468	0.876	0.5963	-0.45
Mof_O 	O 	0.1484	0.1158	0.8412	-0.531
Mof_O 	O 	0.3283	0.0077	0.781	-0.333
Mof_Nd	Nd	0.45044	0.73446	0.50342	1.838
Mof_C 	C 	0.4552	0.6095	0.253	0.286
Mof_C 	C 	0.4733	0.5481	0.1239	-0.048
Mof_C 	C 	0.3797	0.5727	0.9995	-0.054
Mof_C 	C 	0.5927	0.4744	0.1271	-0.105
Mof_C 	C 	0.2392	0.6417	0.0033	0.292
Mof_C 	C 	0.6969	0.449	0.2616	0.412
Mof_O 	O 	0.4533	0.5665	0.3699	-0.423
Mof_O 	O 	0.4463	0.706	0.2415	-0.444
Mof_O 	O 	0.212	0.7117	0.9144	-0.426
Mof_O 	O 	0.1468	0.624	0.0963	-0.444
Mof_O 	O 	0.6484	0.3842	0.3412	-0.531
Mof_O 	O 	0.8283	0.4923	0.281	-0.331
Mof_Nd	Nd	0.04956	0.23446	0.99658	1.797
Mof_C 	C 	0.0448	0.1095	0.247	0.285
Mof_C 	C 	0.0267	0.0481	0.3761	-0.046
Mof_C 	C 	0.1203	0.0727	0.5005	-0.051
Mof_C 	C 	0.9073	0.9744	0.3729	-0.113
Mof_C 	C 	0.2608	0.1417	0.4967	0.284
Mof_C 	C 	0.8031	0.949	0.2384	0.411
Mof_O 	O 	0.0467	0.0665	0.1301	-0.411
Mof_O 	O 	0.0537	0.206	0.2585	-0.437
Mof_O 	O 	0.288	0.2117	0.5856	-0.426
Mof_O 	O 	0.3532	0.124	0.4037	-0.45
Mof_O 	O 	0.8516	0.8842	0.1588	-0.531
Mof_O 	O 	0.6717	0.9923	0.219	-0.333
_end
