data_functionalizedCrystal
_audit_creation_method	'EQeq! by Chris Wilmer'
_symmetry_space_group_name_H-M	'P1'
_symmetry_Int_Tables_number	1
_symmetry_cell_setting	triclinic
loop_
_symmetry_equiv_pos_as_xyz
  x,y,z
_cell_length_a	15.251
_cell_length_b	21.5041
_cell_length_c	22.8079
_cell_angle_alpha	118.126
_cell_angle_beta	107.651
_cell_angle_gamma	90
loop_
_atom_site_label
_atom_site_type_symbol
_atom_site_fract_x
_atom_site_fract_y
_atom_site_fract_z
_atom_site_charge
Mof_Mn	Mn	0.36009	0.22404	0.53222	0.922
Mof_Mn	Mn	0.11202	0.17108	0.43642	0.899
Mof_Mn	Mn	0.01845	0.60364	0.06628	0.792
Mof_Mn	Mn	0.13991	0.69182	0.46778	0.922
Mof_Mn	Mn	0.38798	0.73466	0.56358	0.899
Mof_Mn	Mn	0.48155	0.53736	0.93372	0.792
Mof_Mn	Mn	0.63991	0.77596	0.46778	0.923
Mof_Mn	Mn	0.88798	0.82892	0.56358	0.9
Mof_Mn	Mn	0.98155	0.39636	0.93372	0.793
Mof_Mn	Mn	0.86009	0.30818	0.53222	0.923
Mof_Mn	Mn	0.61202	0.26534	0.43642	0.9
Mof_Mn	Mn	0.51845	0.46264	0.06628	0.793
Mof_P 	P 	0.99063	0.99639	0.31594	0.23
Mof_P 	P 	0.47893	0.1775	0.66088	0.237
Mof_P 	P 	0.50937	0.68045	0.68406	0.23
Mof_P 	P 	0.02107	0.51662	0.33912	0.237
Mof_P 	P 	0.00937	0.00361	0.68406	0.23
Mof_P 	P 	0.52107	0.8225	0.33912	0.237
Mof_P 	P 	0.49063	0.31955	0.31594	0.23
Mof_P 	P 	0.97893	0.48338	0.66088	0.237
Mof_H 	H 	0.5678	0.2002	0.5808	0.033
Mof_H 	H 	0.8404	0.2762	0.7042	0.048
Mof_H 	H 	0.8114	0.2577	0.7904	0.057
Mof_H 	H 	0.6257	0.0415	0.283	0.033
Mof_H 	H 	0.6546	0.9318	0.2064	0.055
Mof_H 	H 	0.5898	0.067	0.6146	0.049
Mof_H 	H 	0.4143	0.883	0.536	0.046
Mof_H 	H 	0.2953	0.9488	0.56	0.053
Mof_H 	H 	0.3216	0.0729	0.6108	0.064
Mof_H 	H 	0.1048	0.8712	0.4834	0.049
Mof_H 	H 	0.9008	0.9451	0.3842	0.05
Mof_H 	H 	0.1569	0.9527	0.3672	0.062
Mof_H 	H 	0.2073	0.9	0.4378	0.056
Mof_H 	H 	0.9039	0.1079	0.3904	0.032
Mof_H 	H 	0.8078	0.9103	0.2178	0.035
Mof_H 	H 	0.9995	0.8432	0.2374	0.049
Mof_H 	H 	0.9921	0.8122	0.046	0.043
Mof_H 	H 	0.9865	0.9338	0.0848	0.049
Mof_H 	H 	0.987	0.0092	0.1986	0.046
Mof_H 	H 	0.4561	0.31	0.76	0.051
Mof_H 	H 	0.4861	0.1207	0.7562	0.038
Mof_H 	H 	0.4831	0.1727	0.872	0.05
Mof_H 	H 	0.4743	0.2934	0.9334	0.046
Mof_H 	H 	0.6591	0.2202	0.7758	0.033
Mof_H 	H 	0.9322	0.6194	0.4192	0.033
Mof_H 	H 	0.6596	0.572	0.2958	0.048
Mof_H 	H 	0.6886	0.4673	0.2096	0.057
Mof_H 	H 	0.8743	0.7585	0.717	0.034
Mof_H 	H 	0.8454	0.7254	0.7936	0.055
Mof_H 	H 	0.9102	0.4524	0.3854	0.049
Mof_H 	H 	0.0857	0.347	0.464	0.046
Mof_H 	H 	0.2047	0.3888	0.44	0.053
Mof_H 	H 	0.1784	0.4621	0.3892	0.064
Mof_H 	H 	0.3952	0.3878	0.5166	0.049
Mof_H 	H 	0.5992	0.5609	0.6158	0.05
Mof_H 	H 	0.3431	0.5855	0.6328	0.062
Mof_H 	H 	0.2927	0.4622	0.5622	0.056
Mof_H 	H 	0.5961	0.7175	0.6096	0.032
Mof_H 	H 	0.6922	0.6925	0.7822	0.036
Mof_H 	H 	0.5005	0.6058	0.7626	0.049
Mof_H 	H 	0.5079	0.7662	0.954	0.043
Mof_H 	H 	0.5135	0.849	0.9152	0.049
Mof_H 	H 	0.513	0.8106	0.8014	0.046
Mof_H 	H 	0.0439	0.55	0.24	0.051
Mof_H 	H 	0.0139	0.3645	0.2438	0.038
Mof_H 	H 	0.0169	0.3007	0.128	0.05
Mof_H 	H 	0.0257	0.36	0.0666	0.046
Mof_H 	H 	0.8409	0.4444	0.2242	0.033
Mof_H 	H 	0.4322	0.7998	0.4192	0.033
Mof_H 	H 	0.1596	0.7238	0.2958	0.048
Mof_H 	H 	0.1886	0.7423	0.2096	0.057
Mof_H 	H 	0.3743	0.9585	0.717	0.033
Mof_H 	H 	0.3454	0.0682	0.7936	0.055
Mof_H 	H 	0.4102	0.933	0.3854	0.049
Mof_H 	H 	0.5857	0.117	0.464	0.046
Mof_H 	H 	0.7047	0.0512	0.44	0.053
Mof_H 	H 	0.6784	0.9271	0.3892	0.064
Mof_H 	H 	0.8952	0.1288	0.5166	0.049
Mof_H 	H 	0.0992	0.0549	0.6158	0.05
Mof_H 	H 	0.8431	0.0473	0.6328	0.062
Mof_H 	H 	0.7927	0.1	0.5622	0.056
Mof_H 	H 	0.0961	0.8921	0.6096	0.032
Mof_H 	H 	0.1922	0.0897	0.7822	0.035
Mof_H 	H 	0.0005	0.1568	0.7626	0.049
Mof_H 	H 	0.0079	0.1878	0.954	0.043
Mof_H 	H 	0.0135	0.0662	0.9152	0.049
Mof_H 	H 	0.013	0.9908	0.8014	0.046
Mof_H 	H 	0.5439	0.69	0.24	0.051
Mof_H 	H 	0.5139	0.8793	0.2438	0.038
Mof_H 	H 	0.5169	0.8273	0.128	0.05
Mof_H 	H 	0.5257	0.7066	0.0666	0.046
Mof_H 	H 	0.3409	0.7798	0.2242	0.033
Mof_H 	H 	0.0678	0.3806	0.5808	0.033
Mof_H 	H 	0.3404	0.428	0.7042	0.048
Mof_H 	H 	0.3114	0.5327	0.7904	0.057
Mof_H 	H 	0.1257	0.2415	0.283	0.034
Mof_H 	H 	0.1546	0.2746	0.2064	0.055
Mof_H 	H 	0.0898	0.5476	0.6146	0.049
Mof_H 	H 	0.9143	0.653	0.536	0.046
Mof_H 	H 	0.7953	0.6112	0.56	0.053
Mof_H 	H 	0.8216	0.5379	0.6108	0.064
Mof_H 	H 	0.6048	0.6122	0.4834	0.049
Mof_H 	H 	0.4008	0.4391	0.3842	0.05
Mof_H 	H 	0.6569	0.4145	0.3672	0.062
Mof_H 	H 	0.7073	0.5378	0.4378	0.056
Mof_H 	H 	0.4039	0.2825	0.3904	0.032
Mof_H 	H 	0.3078	0.3075	0.2178	0.036
Mof_H 	H 	0.4995	0.3942	0.2374	0.049
Mof_H 	H 	0.4921	0.2338	0.046	0.043
Mof_H 	H 	0.4865	0.151	0.0848	0.049
Mof_H 	H 	0.487	0.1894	0.1986	0.046
Mof_H 	H 	0.9561	0.45	0.76	0.051
Mof_H 	H 	0.9861	0.6355	0.7562	0.038
Mof_H 	H 	0.9831	0.6993	0.872	0.05
Mof_H 	H 	0.9743	0.64	0.9334	0.046
Mof_H 	H 	0.1591	0.5556	0.7758	0.033
Mof_C 	C 	0.61683	0.21392	0.62428	0.017
Mof_C 	C 	0.7068	0.24168	0.6347	-0.107
Mof_C 	C 	0.7789	0.25809	0.6969	0.021
Mof_C 	C 	0.7615	0.24818	0.74874	-0.07
Mof_C 	C 	0.723	0.25801	0.58106	0.382
Mof_C 	C 	0.7468	0.1583	0.39278	0.375
Mof_C 	C 	0.762	0.08617	0.34362	-0.112
Mof_C 	C 	0.6881	0.03311	0.28894	0.023
Mof_C 	C 	0.7055	0.96804	0.24308	-0.075
Mof_C 	C 	0.59167	0.92819	0.5576	0.323
Mof_C 	C 	0.5299	0.04312	0.60368	-0.008
Mof_C 	C 	0.51327	0.9693	0.57302	-0.071
Mof_C 	C 	0.4257	0.93365	0.55676	-0.007
Mof_C 	C 	0.3552	0.97304	0.57124	-0.046
Mof_C 	C 	0.3705	0.04667	0.6016	-0.021
Mof_C 	C 	0.9251	0.88651	0.46636	0.32
Mof_C 	C 	0.9925	0.90514	0.43792	-0.067
Mof_C 	C 	0.0841	0.89201	0.45406	-0.007
Mof_C 	C 	0.963	0.93624	0.3955	-0.008
Mof_C 	C 	0.0244	0.95446	0.3696	-0.041
Mof_C 	C 	0.1153	0.94062	0.38532	-0.018
Mof_C 	C 	0.1453	0.90948	0.42722	-0.042
Mof_C 	C 	0.8532	0.07259	0.352	0.021
Mof_C 	C 	0.8704	0.00798	0.30478	-0.063
Mof_C 	C 	0.7964	0.95483	0.24994	-0.007
Mof_C 	C 	0.9926	0.93356	0.22954	-0.043
Mof_C 	C 	0.9974	0.86168	0.20664	-0.012
Mof_C 	C 	0.999	0.81611	0.13834	-0.071
Mof_C 	C 	0.9933	0.8431	0.09286	-0.006
Mof_C 	C 	0.9892	0.91539	0.1158	-0.055
Mof_C 	C 	0.9893	0.95997	0.18322	-0.02
Mof_C 	C 	0.0066	0.73877	0.11396	0.304
Mof_C 	C 	0.4584	0.39102	0.89126	0.368
Mof_C 	C 	0.4633	0.3133	0.852	-0.105
Mof_C 	C 	0.4623	0.28224	0.78288	0.009
Mof_C 	C 	0.4703	0.21011	0.7469	-0.05
Mof_C 	C 	0.4795	0.16941	0.7802	-0.021
Mof_C 	C 	0.479	0.20084	0.8496	-0.062
Mof_C 	C 	0.4726	0.27219	0.88586	0.004
Mof_C 	C 	0.4598	0.08233	0.61862	-0.044
Mof_C 	C 	0.5988	0.20633	0.67678	-0.065
Mof_C 	C 	0.6714	0.22434	0.73934	-0.009
Mof_C 	C 	0.88317	0.58964	0.37572	0.017
Mof_C 	C 	0.7932	0.60698	0.3653	-0.107
Mof_C 	C 	0.7211	0.56119	0.3031	0.021
Mof_C 	C 	0.7385	0.49944	0.25126	-0.07
Mof_C 	C 	0.777	0.67695	0.41894	0.382
Mof_C 	C 	0.7532	0.76552	0.60722	0.375
Mof_C 	C 	0.738	0.74255	0.65638	-0.112
Mof_C 	C 	0.8119	0.74417	0.71106	0.023
Mof_C 	C 	0.7945	0.72496	0.75692	-0.074
Mof_C 	C 	0.90833	0.37059	0.4424	0.323
Mof_C 	C 	0.9701	0.43944	0.39632	-0.008
Mof_C 	C 	0.98673	0.39628	0.42698	-0.071
Mof_C 	C 	0.0743	0.37689	0.44324	-0.007
Mof_C 	C 	0.1448	0.4018	0.42876	-0.046
Mof_C 	C 	0.1295	0.44507	0.3984	-0.021
Mof_C 	C 	0.5749	0.42015	0.53364	0.32
Mof_C 	C 	0.5075	0.46722	0.56208	-0.067
Mof_C 	C 	0.4159	0.43795	0.54594	-0.007
Mof_C 	C 	0.537	0.54074	0.6045	-0.009
Mof_C 	C 	0.4756	0.58486	0.6304	-0.041
Mof_C 	C 	0.3847	0.5553	0.61468	-0.019
Mof_C 	C 	0.3547	0.48226	0.57278	-0.042
Mof_C 	C 	0.6468	0.72059	0.648	0.021
Mof_C 	C 	0.6296	0.7032	0.69522	-0.063
Mof_C 	C 	0.7036	0.70489	0.75006	-0.008
Mof_C 	C 	0.5074	0.70402	0.77046	-0.043
Mof_C 	C 	0.5026	0.65504	0.79336	-0.012
Mof_C 	C 	0.501	0.67777	0.86166	-0.072
Mof_C 	C 	0.5067	0.75024	0.90714	-0.006
Mof_C 	C 	0.5108	0.79959	0.8842	-0.055
Mof_C 	C 	0.5107	0.77675	0.81678	-0.019
Mof_C 	C 	0.4934	0.62481	0.88604	0.305
Mof_C 	C 	0.0416	0.49976	0.10874	0.368
Mof_C 	C 	0.0367	0.4613	0.148	-0.105
Mof_C 	C 	0.0377	0.49936	0.21712	0.009
Mof_C 	C 	0.0297	0.46321	0.2531	-0.05
Mof_C 	C 	0.0205	0.38921	0.2198	-0.021
Mof_C 	C 	0.021	0.35124	0.1504	-0.062
Mof_C 	C 	0.0274	0.38633	0.11414	0.004
Mof_C 	C 	0.0402	0.46371	0.38138	-0.044
Mof_C 	C 	0.9012	0.52955	0.32322	-0.064
Mof_C 	C 	0.8286	0.485	0.26066	-0.009
Mof_C 	C 	0.38317	0.78608	0.37572	0.017
Mof_C 	C 	0.2932	0.75832	0.3653	-0.107
Mof_C 	C 	0.2211	0.74191	0.3031	0.021
Mof_C 	C 	0.2385	0.75182	0.25126	-0.07
Mof_C 	C 	0.277	0.74199	0.41894	0.382
Mof_C 	C 	0.2532	0.8417	0.60722	0.375
Mof_C 	C 	0.238	0.91383	0.65638	-0.112
Mof_C 	C 	0.3119	0.96689	0.71106	0.023
Mof_C 	C 	0.2945	0.03196	0.75692	-0.075
Mof_C 	C 	0.40833	0.07181	0.4424	0.323
Mof_C 	C 	0.4701	0.95688	0.39632	-0.008
Mof_C 	C 	0.48673	0.0307	0.42698	-0.071
Mof_C 	C 	0.5743	0.06635	0.44324	-0.007
Mof_C 	C 	0.6448	0.02696	0.42876	-0.046
Mof_C 	C 	0.6295	0.95333	0.3984	-0.021
Mof_C 	C 	0.0749	0.11349	0.53364	0.32
Mof_C 	C 	0.0075	0.09486	0.56208	-0.067
Mof_C 	C 	0.9159	0.10799	0.54594	-0.007
Mof_C 	C 	0.037	0.06376	0.6045	-0.008
Mof_C 	C 	0.9756	0.04554	0.6304	-0.041
Mof_C 	C 	0.8847	0.05938	0.61468	-0.018
Mof_C 	C 	0.8547	0.09052	0.57278	-0.042
Mof_C 	C 	0.1468	0.92741	0.648	0.021
Mof_C 	C 	0.1296	0.99202	0.69522	-0.063
Mof_C 	C 	0.2036	0.04517	0.75006	-0.007
Mof_C 	C 	0.0074	0.06644	0.77046	-0.043
Mof_C 	C 	0.0026	0.13832	0.79336	-0.012
Mof_C 	C 	0.001	0.18389	0.86166	-0.071
Mof_C 	C 	0.0067	0.1569	0.90714	-0.006
Mof_C 	C 	0.0108	0.08461	0.8842	-0.055
Mof_C 	C 	0.0107	0.04003	0.81678	-0.02
Mof_C 	C 	0.9934	0.26123	0.88604	0.304
Mof_C 	C 	0.5416	0.60898	0.10874	0.368
Mof_C 	C 	0.5367	0.6867	0.148	-0.105
Mof_C 	C 	0.5377	0.71776	0.21712	0.009
Mof_C 	C 	0.5297	0.78989	0.2531	-0.05
Mof_C 	C 	0.5205	0.83059	0.2198	-0.021
Mof_C 	C 	0.521	0.79916	0.1504	-0.062
Mof_C 	C 	0.5274	0.72781	0.11414	0.004
Mof_C 	C 	0.5402	0.91767	0.38138	-0.044
Mof_C 	C 	0.4012	0.79367	0.32322	-0.065
Mof_C 	C 	0.3286	0.77566	0.26066	-0.009
Mof_C 	C 	0.11683	0.41036	0.62428	0.017
Mof_C 	C 	0.2068	0.39302	0.6347	-0.107
Mof_C 	C 	0.2789	0.43881	0.6969	0.021
Mof_C 	C 	0.2615	0.50056	0.74874	-0.07
Mof_C 	C 	0.223	0.32305	0.58106	0.382
Mof_C 	C 	0.2468	0.23448	0.39278	0.375
Mof_C 	C 	0.262	0.25745	0.34362	-0.112
Mof_C 	C 	0.1881	0.25583	0.28894	0.023
Mof_C 	C 	0.2055	0.27504	0.24308	-0.074
Mof_C 	C 	0.09167	0.62941	0.5576	0.323
Mof_C 	C 	0.0299	0.56056	0.60368	-0.008
Mof_C 	C 	0.01327	0.60372	0.57302	-0.071
Mof_C 	C 	0.9257	0.62311	0.55676	-0.007
Mof_C 	C 	0.8552	0.5982	0.57124	-0.046
Mof_C 	C 	0.8705	0.55493	0.6016	-0.021
Mof_C 	C 	0.4251	0.57985	0.46636	0.32
Mof_C 	C 	0.4925	0.53278	0.43792	-0.067
Mof_C 	C 	0.5841	0.56205	0.45406	-0.007
Mof_C 	C 	0.463	0.45926	0.3955	-0.009
Mof_C 	C 	0.5244	0.41514	0.3696	-0.041
Mof_C 	C 	0.6153	0.4447	0.38532	-0.019
Mof_C 	C 	0.6453	0.51774	0.42722	-0.042
Mof_C 	C 	0.3532	0.27941	0.352	0.021
Mof_C 	C 	0.3704	0.2968	0.30478	-0.063
Mof_C 	C 	0.2964	0.29511	0.24994	-0.008
Mof_C 	C 	0.4926	0.29598	0.22954	-0.043
Mof_C 	C 	0.4974	0.34496	0.20664	-0.012
Mof_C 	C 	0.499	0.32223	0.13834	-0.072
Mof_C 	C 	0.4933	0.24976	0.09286	-0.006
Mof_C 	C 	0.4892	0.20041	0.1158	-0.055
Mof_C 	C 	0.4893	0.22325	0.18322	-0.019
Mof_C 	C 	0.5066	0.37519	0.11396	0.305
Mof_C 	C 	0.9584	0.50024	0.89126	0.368
Mof_C 	C 	0.9633	0.5387	0.852	-0.105
Mof_C 	C 	0.9623	0.50064	0.78288	0.009
Mof_C 	C 	0.9703	0.53679	0.7469	-0.05
Mof_C 	C 	0.9795	0.61079	0.7802	-0.021
Mof_C 	C 	0.979	0.64876	0.8496	-0.062
Mof_C 	C 	0.9726	0.61367	0.88586	0.004
Mof_C 	C 	0.9598	0.53629	0.61862	-0.044
Mof_C 	C 	0.0988	0.47045	0.67678	-0.064
Mof_C 	C 	0.1714	0.515	0.73934	-0.009
Mof_O 	O 	0.65262	0.24823	0.52898	-0.376
Mof_O 	O 	0.80456	0.28271	0.594	-0.385
Mof_O 	O 	0.23732	0.13708	0.48444	-0.277
Mof_O 	O 	0.81347	0.19769	0.44814	-0.386
Mof_O 	O 	0.6675	0.17523	0.37358	-0.372
Mof_O 	O 	0.41329	0.20631	0.62052	-0.31
Mof_O 	O 	0.57247	0.86041	0.52848	-0.348
Mof_O 	O 	0.95566	0.85894	0.50544	-0.339
Mof_O 	O 	0.84326	0.89766	0.44818	-0.239
Mof_O 	O 	0.05371	0.0654	0.3457	-0.305
Mof_O 	O 	0.66912	0.96199	0.5736	-0.243
Mof_O 	O 	0.0118	0.70068	0.05406	-0.345
Mof_O 	O 	0.01036	0.71461	0.15454	-0.325
Mof_O 	O 	0.4704	0.42016	0.95476	-0.425
Mof_O 	O 	0.44549	0.42497	0.85724	-0.368
Mof_O 	O 	0.84738	0.71925	0.47102	-0.376
Mof_O 	O 	0.69544	0.68871	0.406	-0.385
Mof_O 	O 	0.26268	0.65264	0.51556	-0.277
Mof_O 	O 	0.68653	0.74955	0.55186	-0.386
Mof_O 	O 	0.8325	0.80165	0.62642	-0.372
Mof_O 	O 	0.08671	0.58579	0.37948	-0.31
Mof_O 	O 	0.92753	0.33193	0.47152	-0.348
Mof_O 	O 	0.54434	0.3535	0.49456	-0.34
Mof_O 	O 	0.65674	0.44948	0.55182	-0.239
Mof_O 	O 	0.44629	0.7197	0.6543	-0.305
Mof_O 	O 	0.83088	0.38839	0.4264	-0.243
Mof_O 	O 	0.4882	0.64662	0.94594	-0.345
Mof_O 	O 	0.48964	0.56007	0.84546	-0.325
Mof_O 	O 	0.0296	0.4654	0.04524	-0.425
Mof_O 	O 	0.05451	0.56773	0.14276	-0.368
Mof_O 	O 	0.34738	0.75177	0.47102	-0.376
Mof_O 	O 	0.19544	0.71729	0.406	-0.385
Mof_O 	O 	0.76268	0.86292	0.51556	-0.277
Mof_O 	O 	0.18653	0.80231	0.55186	-0.386
Mof_O 	O 	0.3325	0.82477	0.62642	-0.372
Mof_O 	O 	0.58671	0.79369	0.37948	-0.31
Mof_O 	O 	0.42753	0.13959	0.47152	-0.348
Mof_O 	O 	0.04434	0.14106	0.49456	-0.339
Mof_O 	O 	0.15674	0.10234	0.55182	-0.239
Mof_O 	O 	0.94629	0.9346	0.6543	-0.305
Mof_O 	O 	0.33088	0.03801	0.4264	-0.243
Mof_O 	O 	0.9882	0.29932	0.94594	-0.345
Mof_O 	O 	0.98964	0.28539	0.84546	-0.325
Mof_O 	O 	0.5296	0.57984	0.04524	-0.425
Mof_O 	O 	0.55451	0.57503	0.14276	-0.368
Mof_O 	O 	0.15262	0.28075	0.52898	-0.376
Mof_O 	O 	0.30456	0.31129	0.594	-0.385
Mof_O 	O 	0.73732	0.34736	0.48444	-0.277
Mof_O 	O 	0.31347	0.25045	0.44814	-0.386
Mof_O 	O 	0.1675	0.19835	0.37358	-0.372
Mof_O 	O 	0.91329	0.41421	0.62052	-0.31
Mof_O 	O 	0.07247	0.66807	0.52848	-0.348
Mof_O 	O 	0.45566	0.6465	0.50544	-0.34
Mof_O 	O 	0.34326	0.55052	0.44818	-0.239
Mof_O 	O 	0.55371	0.2803	0.3457	-0.305
Mof_O 	O 	0.16912	0.61161	0.5736	-0.243
Mof_O 	O 	0.5118	0.35338	0.05406	-0.345
Mof_O 	O 	0.51036	0.43993	0.15454	-0.325
Mof_O 	O 	0.9704	0.5346	0.95476	-0.425
Mof_O 	O 	0.94549	0.43227	0.85724	-0.368
_end
