data_functionalizedCrystal
_audit_creation_method	'EQeq! by Chris Wilmer'
_symmetry_space_group_name_H-M	'P1'
_symmetry_Int_Tables_number	1
_symmetry_cell_setting	triclinic
loop_
_symmetry_equiv_pos_as_xyz
  x,y,z
_cell_length_a	24.427
_cell_length_b	24.427
_cell_length_c	24.427
_cell_angle_alpha	90
_cell_angle_beta	90
_cell_angle_gamma	90
loop_
_atom_site_label
_atom_site_type_symbol
_atom_site_fract_x
_atom_site_fract_y
_atom_site_fract_z
_atom_site_charge
Mof_Cu	Cu	0.05912	0.21592	0.38543	0.923
Mof_Cu	Cu	0.14849	0.20257	0.48689	0.924
Mof_O 	O 	0.83018	0.05669	0.37102	-0.425
Mof_O 	O 	0.07903	0.18629	0.45479	-0.401
Mof_O 	O 	0.98236	0.19405	0.3929	-0.41
Mof_O 	O 	0.71072	0.25755	0.48015	-0.402
Mof_O 	O 	0.76742	0.32553	0.45656	-0.404
Mof_O 	O 	0.96143	0.2764	0.4264	-0.261
Mof_O 	O 	0.7525	0.0734	0.4122	-0.281
Mof_N 	N 	0.138	0.2264	0.37199	-0.189
Mof_N 	N 	0.17311	0.2234	0.41436	-0.194
Mof_C 	C 	0.167	0.2316	0.3259	0.088
Mof_H 	H 	0.1523	0.2349	0.2909	0.003
Mof_C 	C 	0.224	0.2266	0.3941	0.089
Mof_H 	H 	0.2559	0.2258	0.4149	0.011
Mof_C 	C 	0.8896	0.2121	0.4174	-0.105
Mof_C 	C 	0.2221	0.2314	0.3381	-0.141
Mof_H 	H 	0.2513	0.2339	0.3138	0.085
Mof_C 	C 	0.7551	0.2761	0.4615	0.367
Mof_C 	C 	0.7981	0.088	0.3983	0.354
Mof_C 	C 	0.819	0.1435	0.4126	-0.118
Mof_C 	C 	0.7971	0.2346	0.4435	-0.114
Mof_C 	C 	0.9485	0.2296	0.4117	0.332
Mof_C 	C 	0.8728	0.1585	0.4052	0.056
Mof_H 	H 	0.8981	0.1332	0.3921	0.027
Mof_C 	C 	0.8509	0.2498	0.436	0.051
Mof_H 	H 	0.8616	0.2856	0.4434	0.05
Mof_C 	C 	0.7809	0.1812	0.4323	0.053
Mof_H 	H 	0.7448	0.1706	0.4381	0.048
Mof_Cu	Cu	0.44088	0.78408	0.88543	0.922
Mof_Cu	Cu	0.35151	0.79743	0.98689	0.923
Mof_O 	O 	0.66982	0.94331	0.87102	-0.425
Mof_O 	O 	0.42097	0.81371	0.95479	-0.402
Mof_O 	O 	0.51764	0.80595	0.8929	-0.411
Mof_O 	O 	0.78928	0.74245	0.98015	-0.402
Mof_O 	O 	0.73258	0.67447	0.95656	-0.405
Mof_O 	O 	0.53857	0.7236	0.9264	-0.261
Mof_O 	O 	0.7475	0.9266	0.9122	-0.282
Mof_N 	N 	0.362	0.7736	0.87199	-0.19
Mof_N 	N 	0.32689	0.7766	0.91436	-0.195
Mof_C 	C 	0.333	0.7684	0.8259	0.087
Mof_H 	H 	0.3477	0.7651	0.7909	0.002
Mof_C 	C 	0.276	0.7734	0.8941	0.088
Mof_H 	H 	0.2441	0.7742	0.9149	0.01
Mof_C 	C 	0.6104	0.7879	0.9174	-0.106
Mof_C 	C 	0.2779	0.7686	0.8381	-0.142
Mof_H 	H 	0.2487	0.7661	0.8138	0.084
Mof_C 	C 	0.7449	0.7239	0.9615	0.367
Mof_C 	C 	0.7019	0.912	0.8983	0.354
Mof_C 	C 	0.681	0.8565	0.9126	-0.117
Mof_C 	C 	0.7029	0.7654	0.9435	-0.114
Mof_C 	C 	0.5515	0.7704	0.9117	0.332
Mof_C 	C 	0.6272	0.8415	0.9052	0.056
Mof_H 	H 	0.6019	0.8668	0.8921	0.027
Mof_C 	C 	0.6491	0.7502	0.936	0.051
Mof_H 	H 	0.6384	0.7144	0.9434	0.05
Mof_C 	C 	0.7191	0.8188	0.9323	0.053
Mof_H 	H 	0.7552	0.8294	0.9381	0.048
Mof_Cu	Cu	0.94088	0.71592	0.11457	0.922
Mof_Cu	Cu	0.85151	0.70257	0.01311	0.922
Mof_O 	O 	0.16982	0.55669	0.12898	-0.426
Mof_O 	O 	0.92097	0.68629	0.04521	-0.402
Mof_O 	O 	0.01764	0.69405	0.1071	-0.411
Mof_O 	O 	0.28928	0.75755	0.01985	-0.403
Mof_O 	O 	0.23258	0.82553	0.04344	-0.405
Mof_O 	O 	0.03857	0.7764	0.0736	-0.261
Mof_O 	O 	0.2475	0.5734	0.0878	-0.282
Mof_N 	N 	0.862	0.7264	0.12801	-0.19
Mof_N 	N 	0.82689	0.7234	0.08564	-0.195
Mof_C 	C 	0.833	0.7316	0.1741	0.087
Mof_H 	H 	0.8477	0.7349	0.2091	0.002
Mof_C 	C 	0.776	0.7266	0.1059	0.088
Mof_H 	H 	0.7441	0.7258	0.0851	0.01
Mof_C 	C 	0.1104	0.7121	0.0826	-0.106
Mof_C 	C 	0.7779	0.7314	0.1619	-0.142
Mof_H 	H 	0.7487	0.7339	0.1862	0.084
Mof_C 	C 	0.2449	0.7761	0.0385	0.367
Mof_C 	C 	0.2019	0.588	0.1017	0.354
Mof_C 	C 	0.181	0.6435	0.0874	-0.118
Mof_C 	C 	0.2029	0.7346	0.0565	-0.114
Mof_C 	C 	0.0515	0.7296	0.0883	0.332
Mof_C 	C 	0.1272	0.6585	0.0948	0.056
Mof_H 	H 	0.1019	0.6332	0.1079	0.027
Mof_C 	C 	0.1491	0.7498	0.064	0.051
Mof_H 	H 	0.1384	0.7856	0.0566	0.05
Mof_C 	C 	0.2191	0.6812	0.0677	0.053
Mof_H 	H 	0.2552	0.6706	0.0619	0.048
Mof_Cu	Cu	0.55912	0.28408	0.61457	0.922
Mof_Cu	Cu	0.64849	0.29743	0.51311	0.923
Mof_O 	O 	0.33018	0.44331	0.62898	-0.426
Mof_O 	O 	0.57903	0.31371	0.54521	-0.402
Mof_O 	O 	0.48236	0.30595	0.6071	-0.411
Mof_O 	O 	0.21072	0.24245	0.51985	-0.403
Mof_O 	O 	0.26742	0.17447	0.54344	-0.405
Mof_O 	O 	0.46143	0.2236	0.5736	-0.261
Mof_O 	O 	0.2525	0.4266	0.5878	-0.282
Mof_N 	N 	0.638	0.2736	0.62801	-0.19
Mof_N 	N 	0.67311	0.2766	0.58564	-0.195
Mof_C 	C 	0.667	0.2684	0.6741	0.087
Mof_H 	H 	0.6523	0.2651	0.7091	0.002
Mof_C 	C 	0.724	0.2734	0.6059	0.088
Mof_H 	H 	0.7559	0.2742	0.5851	0.01
Mof_C 	C 	0.3896	0.2879	0.5826	-0.106
Mof_C 	C 	0.7221	0.2686	0.6619	-0.142
Mof_H 	H 	0.7513	0.2661	0.6862	0.084
Mof_C 	C 	0.2551	0.2239	0.5385	0.367
Mof_C 	C 	0.2981	0.412	0.6017	0.354
Mof_C 	C 	0.319	0.3565	0.5874	-0.118
Mof_C 	C 	0.2971	0.2654	0.5565	-0.114
Mof_C 	C 	0.4485	0.2704	0.5883	0.332
Mof_C 	C 	0.3728	0.3415	0.5948	0.056
Mof_H 	H 	0.3981	0.3668	0.6079	0.027
Mof_C 	C 	0.3509	0.2502	0.564	0.051
Mof_H 	H 	0.3616	0.2144	0.5566	0.05
Mof_C 	C 	0.2809	0.3188	0.5677	0.053
Mof_H 	H 	0.2448	0.3294	0.5619	0.048
Mof_Cu	Cu	0.38543	0.05912	0.21592	0.922
Mof_Cu	Cu	0.48689	0.14849	0.20257	0.923
Mof_O 	O 	0.37102	0.83018	0.05669	-0.426
Mof_O 	O 	0.45479	0.07903	0.18629	-0.402
Mof_O 	O 	0.3929	0.98236	0.19405	-0.411
Mof_O 	O 	0.48015	0.71072	0.25755	-0.403
Mof_O 	O 	0.45656	0.76742	0.32553	-0.405
Mof_O 	O 	0.4264	0.96143	0.2764	-0.262
Mof_O 	O 	0.4122	0.7525	0.0734	-0.282
Mof_N 	N 	0.37199	0.138	0.2264	-0.19
Mof_N 	N 	0.41436	0.17311	0.2234	-0.195
Mof_C 	C 	0.3259	0.167	0.2316	0.087
Mof_H 	H 	0.2909	0.1523	0.2349	0.002
Mof_C 	C 	0.3941	0.224	0.2266	0.088
Mof_H 	H 	0.4149	0.2559	0.2258	0.01
Mof_C 	C 	0.4174	0.8896	0.2121	-0.106
Mof_C 	C 	0.3381	0.2221	0.2314	-0.142
Mof_H 	H 	0.3138	0.2513	0.2339	0.084
Mof_C 	C 	0.4615	0.7551	0.2761	0.367
Mof_C 	C 	0.3983	0.7981	0.088	0.354
Mof_C 	C 	0.4126	0.819	0.1435	-0.118
Mof_C 	C 	0.4435	0.7971	0.2346	-0.114
Mof_C 	C 	0.4117	0.9485	0.2296	0.332
Mof_C 	C 	0.4052	0.8728	0.1585	0.056
Mof_H 	H 	0.3921	0.8981	0.1332	0.027
Mof_C 	C 	0.436	0.8509	0.2498	0.051
Mof_H 	H 	0.4434	0.8616	0.2856	0.05
Mof_C 	C 	0.4323	0.7809	0.1812	0.053
Mof_H 	H 	0.4381	0.7448	0.1706	0.048
Mof_Cu	Cu	0.88543	0.44088	0.78408	0.922
Mof_Cu	Cu	0.98689	0.35151	0.79743	0.923
Mof_O 	O 	0.87102	0.66982	0.94331	-0.425
Mof_O 	O 	0.95479	0.42097	0.81371	-0.402
Mof_O 	O 	0.8929	0.51764	0.80595	-0.411
Mof_O 	O 	0.98015	0.78928	0.74245	-0.402
Mof_O 	O 	0.95656	0.73258	0.67447	-0.405
Mof_O 	O 	0.9264	0.53857	0.7236	-0.261
Mof_O 	O 	0.9122	0.7475	0.9266	-0.282
Mof_N 	N 	0.87199	0.362	0.7736	-0.19
Mof_N 	N 	0.91436	0.32689	0.7766	-0.195
Mof_C 	C 	0.8259	0.333	0.7684	0.087
Mof_H 	H 	0.7909	0.3477	0.7651	0.002
Mof_C 	C 	0.8941	0.276	0.7734	0.088
Mof_H 	H 	0.9149	0.2441	0.7742	0.01
Mof_C 	C 	0.9174	0.6104	0.7879	-0.106
Mof_C 	C 	0.8381	0.2779	0.7686	-0.142
Mof_H 	H 	0.8138	0.2487	0.7661	0.084
Mof_C 	C 	0.9615	0.7449	0.7239	0.367
Mof_C 	C 	0.8983	0.7019	0.912	0.354
Mof_C 	C 	0.9126	0.681	0.8565	-0.117
Mof_C 	C 	0.9435	0.7029	0.7654	-0.114
Mof_C 	C 	0.9117	0.5515	0.7704	0.332
Mof_C 	C 	0.9052	0.6272	0.8415	0.056
Mof_H 	H 	0.8921	0.6019	0.8668	0.027
Mof_C 	C 	0.936	0.6491	0.7502	0.051
Mof_H 	H 	0.9434	0.6384	0.7144	0.05
Mof_C 	C 	0.9323	0.7191	0.8188	0.053
Mof_H 	H 	0.9381	0.7552	0.8294	0.048
Mof_Cu	Cu	0.11457	0.94088	0.71592	0.922
Mof_Cu	Cu	0.01311	0.85151	0.70257	0.922
Mof_O 	O 	0.12898	0.16982	0.55669	-0.426
Mof_O 	O 	0.04521	0.92097	0.68629	-0.402
Mof_O 	O 	0.1071	0.01764	0.69405	-0.411
Mof_O 	O 	0.01985	0.28928	0.75755	-0.403
Mof_O 	O 	0.04344	0.23258	0.82553	-0.405
Mof_O 	O 	0.0736	0.03857	0.7764	-0.261
Mof_O 	O 	0.0878	0.2475	0.5734	-0.282
Mof_N 	N 	0.12801	0.862	0.7264	-0.19
Mof_N 	N 	0.08564	0.82689	0.7234	-0.195
Mof_C 	C 	0.1741	0.833	0.7316	0.087
Mof_H 	H 	0.2091	0.8477	0.7349	0.002
Mof_C 	C 	0.1059	0.776	0.7266	0.088
Mof_H 	H 	0.0851	0.7441	0.7258	0.01
Mof_C 	C 	0.0826	0.1104	0.7121	-0.106
Mof_C 	C 	0.1619	0.7779	0.7314	-0.142
Mof_H 	H 	0.1862	0.7487	0.7339	0.084
Mof_C 	C 	0.0385	0.2449	0.7761	0.367
Mof_C 	C 	0.1017	0.2019	0.588	0.354
Mof_C 	C 	0.0874	0.181	0.6435	-0.118
Mof_C 	C 	0.0565	0.2029	0.7346	-0.114
Mof_C 	C 	0.0883	0.0515	0.7296	0.332
Mof_C 	C 	0.0948	0.1272	0.6585	0.056
Mof_H 	H 	0.1079	0.1019	0.6332	0.027
Mof_C 	C 	0.064	0.1491	0.7498	0.051
Mof_H 	H 	0.0566	0.1384	0.7856	0.05
Mof_C 	C 	0.0677	0.2191	0.6812	0.053
Mof_H 	H 	0.0619	0.2552	0.6706	0.048
Mof_Cu	Cu	0.61457	0.55912	0.28408	0.922
Mof_Cu	Cu	0.51311	0.64849	0.29743	0.923
Mof_O 	O 	0.62898	0.33018	0.44331	-0.426
Mof_O 	O 	0.54521	0.57903	0.31371	-0.402
Mof_O 	O 	0.6071	0.48236	0.30595	-0.411
Mof_O 	O 	0.51985	0.21072	0.24245	-0.403
Mof_O 	O 	0.54344	0.26742	0.17447	-0.405
Mof_O 	O 	0.5736	0.46143	0.2236	-0.261
Mof_O 	O 	0.5878	0.2525	0.4266	-0.282
Mof_N 	N 	0.62801	0.638	0.2736	-0.19
Mof_N 	N 	0.58564	0.67311	0.2766	-0.195
Mof_C 	C 	0.6741	0.667	0.2684	0.087
Mof_H 	H 	0.7091	0.6523	0.2651	0.002
Mof_C 	C 	0.6059	0.724	0.2734	0.088
Mof_H 	H 	0.5851	0.7559	0.2742	0.01
Mof_C 	C 	0.5826	0.3896	0.2879	-0.106
Mof_C 	C 	0.6619	0.7221	0.2686	-0.142
Mof_H 	H 	0.6862	0.7513	0.2661	0.084
Mof_C 	C 	0.5385	0.2551	0.2239	0.367
Mof_C 	C 	0.6017	0.2981	0.412	0.354
Mof_C 	C 	0.5874	0.319	0.3565	-0.118
Mof_C 	C 	0.5565	0.2971	0.2654	-0.114
Mof_C 	C 	0.5883	0.4485	0.2704	0.332
Mof_C 	C 	0.5948	0.3728	0.3415	0.056
Mof_H 	H 	0.6079	0.3981	0.3668	0.027
Mof_C 	C 	0.564	0.3509	0.2502	0.051
Mof_H 	H 	0.5566	0.3616	0.2144	0.05
Mof_C 	C 	0.5677	0.2809	0.3188	0.053
Mof_H 	H 	0.5619	0.2448	0.3294	0.048
Mof_Cu	Cu	0.21592	0.38543	0.05912	0.922
Mof_Cu	Cu	0.20257	0.48689	0.14849	0.923
Mof_O 	O 	0.05669	0.37102	0.83018	-0.426
Mof_O 	O 	0.18629	0.45479	0.07903	-0.402
Mof_O 	O 	0.19405	0.3929	0.98236	-0.411
Mof_O 	O 	0.25755	0.48015	0.71072	-0.403
Mof_O 	O 	0.32553	0.45656	0.76742	-0.405
Mof_O 	O 	0.2764	0.4264	0.96143	-0.262
Mof_O 	O 	0.0734	0.4122	0.7525	-0.282
Mof_N 	N 	0.2264	0.37199	0.138	-0.19
Mof_N 	N 	0.2234	0.41436	0.17311	-0.195
Mof_C 	C 	0.2316	0.3259	0.167	0.087
Mof_H 	H 	0.2349	0.2909	0.1523	0.002
Mof_C 	C 	0.2266	0.3941	0.224	0.088
Mof_H 	H 	0.2258	0.4149	0.2559	0.01
Mof_C 	C 	0.2121	0.4174	0.8896	-0.106
Mof_C 	C 	0.2314	0.3381	0.2221	-0.142
Mof_H 	H 	0.2339	0.3138	0.2513	0.084
Mof_C 	C 	0.2761	0.4615	0.7551	0.367
Mof_C 	C 	0.088	0.3983	0.7981	0.354
Mof_C 	C 	0.1435	0.4126	0.819	-0.118
Mof_C 	C 	0.2346	0.4435	0.7971	-0.114
Mof_C 	C 	0.2296	0.4117	0.9485	0.332
Mof_C 	C 	0.1585	0.4052	0.8728	0.056
Mof_H 	H 	0.1332	0.3921	0.8981	0.027
Mof_C 	C 	0.2498	0.436	0.8509	0.051
Mof_H 	H 	0.2856	0.4434	0.8616	0.05
Mof_C 	C 	0.1812	0.4323	0.7809	0.053
Mof_H 	H 	0.1706	0.4381	0.7448	0.048
Mof_Cu	Cu	0.78408	0.88543	0.44088	0.922
Mof_Cu	Cu	0.79743	0.98689	0.35151	0.923
Mof_O 	O 	0.94331	0.87102	0.66982	-0.425
Mof_O 	O 	0.81371	0.95479	0.42097	-0.402
Mof_O 	O 	0.80595	0.8929	0.51764	-0.411
Mof_O 	O 	0.74245	0.98015	0.78928	-0.402
Mof_O 	O 	0.67447	0.95656	0.73258	-0.405
Mof_O 	O 	0.7236	0.9264	0.53857	-0.261
Mof_O 	O 	0.9266	0.9122	0.7475	-0.282
Mof_N 	N 	0.7736	0.87199	0.362	-0.19
Mof_N 	N 	0.7766	0.91436	0.32689	-0.195
Mof_C 	C 	0.7684	0.8259	0.333	0.087
Mof_H 	H 	0.7651	0.7909	0.3477	0.002
Mof_C 	C 	0.7734	0.8941	0.276	0.088
Mof_H 	H 	0.7742	0.9149	0.2441	0.01
Mof_C 	C 	0.7879	0.9174	0.6104	-0.106
Mof_C 	C 	0.7686	0.8381	0.2779	-0.142
Mof_H 	H 	0.7661	0.8138	0.2487	0.084
Mof_C 	C 	0.7239	0.9615	0.7449	0.367
Mof_C 	C 	0.912	0.8983	0.7019	0.354
Mof_C 	C 	0.8565	0.9126	0.681	-0.117
Mof_C 	C 	0.7654	0.9435	0.7029	-0.114
Mof_C 	C 	0.7704	0.9117	0.5515	0.332
Mof_C 	C 	0.8415	0.9052	0.6272	0.056
Mof_H 	H 	0.8668	0.8921	0.6019	0.027
Mof_C 	C 	0.7502	0.936	0.6491	0.051
Mof_H 	H 	0.7144	0.9434	0.6384	0.05
Mof_C 	C 	0.8188	0.9323	0.7191	0.053
Mof_H 	H 	0.8294	0.9381	0.7552	0.048
Mof_Cu	Cu	0.71592	0.11457	0.94088	0.922
Mof_Cu	Cu	0.70257	0.01311	0.85151	0.922
Mof_O 	O 	0.55669	0.12898	0.16982	-0.426
Mof_O 	O 	0.68629	0.04521	0.92097	-0.402
Mof_O 	O 	0.69405	0.1071	0.01764	-0.411
Mof_O 	O 	0.75755	0.01985	0.28928	-0.403
Mof_O 	O 	0.82553	0.04344	0.23258	-0.405
Mof_O 	O 	0.7764	0.0736	0.03857	-0.261
Mof_O 	O 	0.5734	0.0878	0.2475	-0.282
Mof_N 	N 	0.7264	0.12801	0.862	-0.19
Mof_N 	N 	0.7234	0.08564	0.82689	-0.195
Mof_C 	C 	0.7316	0.1741	0.833	0.087
Mof_H 	H 	0.7349	0.2091	0.8477	0.002
Mof_C 	C 	0.7266	0.1059	0.776	0.088
Mof_H 	H 	0.7258	0.0851	0.7441	0.01
Mof_C 	C 	0.7121	0.0826	0.1104	-0.106
Mof_C 	C 	0.7314	0.1619	0.7779	-0.142
Mof_H 	H 	0.7339	0.1862	0.7487	0.084
Mof_C 	C 	0.7761	0.0385	0.2449	0.367
Mof_C 	C 	0.588	0.1017	0.2019	0.354
Mof_C 	C 	0.6435	0.0874	0.181	-0.118
Mof_C 	C 	0.7346	0.0565	0.2029	-0.114
Mof_C 	C 	0.7296	0.0883	0.0515	0.332
Mof_C 	C 	0.6585	0.0948	0.1272	0.056
Mof_H 	H 	0.6332	0.1079	0.1019	0.027
Mof_C 	C 	0.7498	0.064	0.1491	0.051
Mof_H 	H 	0.7856	0.0566	0.1384	0.05
Mof_C 	C 	0.6812	0.0677	0.2191	0.053
Mof_H 	H 	0.6706	0.0619	0.2552	0.048
Mof_Cu	Cu	0.28408	0.61457	0.55912	0.922
Mof_Cu	Cu	0.29743	0.51311	0.64849	0.923
Mof_O 	O 	0.44331	0.62898	0.33018	-0.426
Mof_O 	O 	0.31371	0.54521	0.57903	-0.402
Mof_O 	O 	0.30595	0.6071	0.48236	-0.411
Mof_O 	O 	0.24245	0.51985	0.21072	-0.403
Mof_O 	O 	0.17447	0.54344	0.26742	-0.405
Mof_O 	O 	0.2236	0.5736	0.46143	-0.261
Mof_O 	O 	0.4266	0.5878	0.2525	-0.282
Mof_N 	N 	0.2736	0.62801	0.638	-0.19
Mof_N 	N 	0.2766	0.58564	0.67311	-0.195
Mof_C 	C 	0.2684	0.6741	0.667	0.087
Mof_H 	H 	0.2651	0.7091	0.6523	0.002
Mof_C 	C 	0.2734	0.6059	0.724	0.088
Mof_H 	H 	0.2742	0.5851	0.7559	0.01
Mof_C 	C 	0.2879	0.5826	0.3896	-0.106
Mof_C 	C 	0.2686	0.6619	0.7221	-0.142
Mof_H 	H 	0.2661	0.6862	0.7513	0.084
Mof_C 	C 	0.2239	0.5385	0.2551	0.367
Mof_C 	C 	0.412	0.6017	0.2981	0.354
Mof_C 	C 	0.3565	0.5874	0.319	-0.118
Mof_C 	C 	0.2654	0.5565	0.2971	-0.114
Mof_C 	C 	0.2704	0.5883	0.4485	0.332
Mof_C 	C 	0.3415	0.5948	0.3728	0.056
Mof_H 	H 	0.3668	0.6079	0.3981	0.027
Mof_C 	C 	0.2502	0.564	0.3509	0.051
Mof_H 	H 	0.2144	0.5566	0.3616	0.05
Mof_C 	C 	0.3188	0.5677	0.2809	0.053
Mof_H 	H 	0.3294	0.5619	0.2448	0.048
Mof_Cu	Cu	0.94088	0.78408	0.61457	0.922
Mof_Cu	Cu	0.85151	0.79743	0.51311	0.923
Mof_O 	O 	0.16982	0.94331	0.62898	-0.426
Mof_O 	O 	0.92097	0.81371	0.54521	-0.402
Mof_O 	O 	0.01764	0.80595	0.6071	-0.411
Mof_O 	O 	0.28928	0.74245	0.51985	-0.403
Mof_O 	O 	0.23258	0.67447	0.54344	-0.405
Mof_O 	O 	0.03857	0.7236	0.5736	-0.262
Mof_O 	O 	0.2475	0.9266	0.5878	-0.282
Mof_N 	N 	0.862	0.7736	0.62801	-0.19
Mof_N 	N 	0.82689	0.7766	0.58564	-0.195
Mof_C 	C 	0.833	0.7684	0.6741	0.087
Mof_H 	H 	0.8477	0.7651	0.7091	0.002
Mof_C 	C 	0.776	0.7734	0.6059	0.088
Mof_H 	H 	0.7441	0.7742	0.5851	0.01
Mof_C 	C 	0.1104	0.7879	0.5826	-0.106
Mof_C 	C 	0.7779	0.7686	0.6619	-0.142
Mof_H 	H 	0.7487	0.7661	0.6862	0.084
Mof_C 	C 	0.2449	0.7239	0.5385	0.367
Mof_C 	C 	0.2019	0.912	0.6017	0.354
Mof_C 	C 	0.181	0.8565	0.5874	-0.118
Mof_C 	C 	0.2029	0.7654	0.5565	-0.114
Mof_C 	C 	0.0515	0.7704	0.5883	0.332
Mof_C 	C 	0.1272	0.8415	0.5948	0.056
Mof_H 	H 	0.1019	0.8668	0.6079	0.027
Mof_C 	C 	0.1491	0.7502	0.564	0.051
Mof_H 	H 	0.1384	0.7144	0.5566	0.05
Mof_C 	C 	0.2191	0.8188	0.5677	0.053
Mof_H 	H 	0.2552	0.8294	0.5619	0.048
Mof_Cu	Cu	0.55912	0.21592	0.11457	0.922
Mof_Cu	Cu	0.64849	0.20257	0.01311	0.923
Mof_O 	O 	0.33018	0.05669	0.12898	-0.425
Mof_O 	O 	0.57903	0.18629	0.04521	-0.402
Mof_O 	O 	0.48236	0.19405	0.1071	-0.411
Mof_O 	O 	0.21072	0.25755	0.01985	-0.402
Mof_O 	O 	0.26742	0.32553	0.04344	-0.405
Mof_O 	O 	0.46143	0.2764	0.0736	-0.261
Mof_O 	O 	0.2525	0.0734	0.0878	-0.282
Mof_N 	N 	0.638	0.2264	0.12801	-0.19
Mof_N 	N 	0.67311	0.2234	0.08564	-0.195
Mof_C 	C 	0.667	0.2316	0.1741	0.087
Mof_H 	H 	0.6523	0.2349	0.2091	0.002
Mof_C 	C 	0.724	0.2266	0.1059	0.088
Mof_H 	H 	0.7559	0.2258	0.0851	0.01
Mof_C 	C 	0.3896	0.2121	0.0826	-0.106
Mof_C 	C 	0.7221	0.2314	0.1619	-0.142
Mof_H 	H 	0.7513	0.2339	0.1862	0.084
Mof_C 	C 	0.2551	0.2761	0.0385	0.367
Mof_C 	C 	0.2981	0.088	0.1017	0.354
Mof_C 	C 	0.319	0.1435	0.0874	-0.117
Mof_C 	C 	0.2971	0.2346	0.0565	-0.114
Mof_C 	C 	0.4485	0.2296	0.0883	0.332
Mof_C 	C 	0.3728	0.1585	0.0948	0.056
Mof_H 	H 	0.3981	0.1332	0.1079	0.027
Mof_C 	C 	0.3509	0.2498	0.064	0.051
Mof_H 	H 	0.3616	0.2856	0.0566	0.05
Mof_C 	C 	0.2809	0.1812	0.0677	0.053
Mof_H 	H 	0.2448	0.1706	0.0619	0.048
Mof_Cu	Cu	0.05912	0.28408	0.88543	0.922
Mof_Cu	Cu	0.14849	0.29743	0.98689	0.922
Mof_O 	O 	0.83018	0.44331	0.87102	-0.426
Mof_O 	O 	0.07903	0.31371	0.95479	-0.402
Mof_O 	O 	0.98236	0.30595	0.8929	-0.411
Mof_O 	O 	0.71072	0.24245	0.98015	-0.403
Mof_O 	O 	0.76742	0.17447	0.95656	-0.405
Mof_O 	O 	0.96143	0.2236	0.9264	-0.261
Mof_O 	O 	0.7525	0.4266	0.9122	-0.282
Mof_N 	N 	0.138	0.2736	0.87199	-0.19
Mof_N 	N 	0.17311	0.2766	0.91436	-0.195
Mof_C 	C 	0.167	0.2684	0.8259	0.087
Mof_H 	H 	0.1523	0.2651	0.7909	0.002
Mof_C 	C 	0.224	0.2734	0.8941	0.088
Mof_H 	H 	0.2559	0.2742	0.9149	0.01
Mof_C 	C 	0.8896	0.2879	0.9174	-0.106
Mof_C 	C 	0.2221	0.2686	0.8381	-0.142
Mof_H 	H 	0.2513	0.2661	0.8138	0.084
Mof_C 	C 	0.7551	0.2239	0.9615	0.367
Mof_C 	C 	0.7981	0.412	0.8983	0.354
Mof_C 	C 	0.819	0.3565	0.9126	-0.118
Mof_C 	C 	0.7971	0.2654	0.9435	-0.114
Mof_C 	C 	0.9485	0.2704	0.9117	0.332
Mof_C 	C 	0.8728	0.3415	0.9052	0.056
Mof_H 	H 	0.8981	0.3668	0.8921	0.027
Mof_C 	C 	0.8509	0.2502	0.936	0.051
Mof_H 	H 	0.8616	0.2144	0.9434	0.05
Mof_C 	C 	0.7809	0.3188	0.9323	0.053
Mof_H 	H 	0.7448	0.3294	0.9381	0.048
Mof_Cu	Cu	0.44088	0.71592	0.38543	0.922
Mof_Cu	Cu	0.35151	0.70257	0.48689	0.923
Mof_O 	O 	0.66982	0.55669	0.37102	-0.426
Mof_O 	O 	0.42097	0.68629	0.45479	-0.402
Mof_O 	O 	0.51764	0.69405	0.3929	-0.411
Mof_O 	O 	0.78928	0.75755	0.48015	-0.403
Mof_O 	O 	0.73258	0.82553	0.45656	-0.405
Mof_O 	O 	0.53857	0.7764	0.4264	-0.261
Mof_O 	O 	0.7475	0.5734	0.4122	-0.282
Mof_N 	N 	0.362	0.7264	0.37199	-0.19
Mof_N 	N 	0.32689	0.7234	0.41436	-0.195
Mof_C 	C 	0.333	0.7316	0.3259	0.087
Mof_H 	H 	0.3477	0.7349	0.2909	0.002
Mof_C 	C 	0.276	0.7266	0.3941	0.088
Mof_H 	H 	0.2441	0.7258	0.4149	0.01
Mof_C 	C 	0.6104	0.7121	0.4174	-0.106
Mof_C 	C 	0.2779	0.7314	0.3381	-0.142
Mof_H 	H 	0.2487	0.7339	0.3138	0.084
Mof_C 	C 	0.7449	0.7761	0.4615	0.367
Mof_C 	C 	0.7019	0.588	0.3983	0.354
Mof_C 	C 	0.681	0.6435	0.4126	-0.118
Mof_C 	C 	0.7029	0.7346	0.4435	-0.114
Mof_C 	C 	0.5515	0.7296	0.4117	0.332
Mof_C 	C 	0.6272	0.6585	0.4052	0.056
Mof_H 	H 	0.6019	0.6332	0.3921	0.027
Mof_C 	C 	0.6491	0.7498	0.436	0.051
Mof_H 	H 	0.6384	0.7856	0.4434	0.05
Mof_C 	C 	0.7191	0.6812	0.4323	0.053
Mof_H 	H 	0.7552	0.6706	0.4381	0.048
Mof_Cu	Cu	0.61457	0.94088	0.78408	0.922
Mof_Cu	Cu	0.51311	0.85151	0.79743	0.923
Mof_O 	O 	0.62898	0.16982	0.94331	-0.426
Mof_O 	O 	0.54521	0.92097	0.81371	-0.402
Mof_O 	O 	0.6071	0.01764	0.80595	-0.411
Mof_O 	O 	0.51985	0.28928	0.74245	-0.403
Mof_O 	O 	0.54344	0.23258	0.67447	-0.405
Mof_O 	O 	0.5736	0.03857	0.7236	-0.262
Mof_O 	O 	0.5878	0.2475	0.9266	-0.282
Mof_N 	N 	0.62801	0.862	0.7736	-0.19
Mof_N 	N 	0.58564	0.82689	0.7766	-0.195
Mof_C 	C 	0.6741	0.833	0.7684	0.087
Mof_H 	H 	0.7091	0.8477	0.7651	0.002
Mof_C 	C 	0.6059	0.776	0.7734	0.088
Mof_H 	H 	0.5851	0.7441	0.7742	0.01
Mof_C 	C 	0.5826	0.1104	0.7879	-0.106
Mof_C 	C 	0.6619	0.7779	0.7686	-0.142
Mof_H 	H 	0.6862	0.7487	0.7661	0.084
Mof_C 	C 	0.5385	0.2449	0.7239	0.367
Mof_C 	C 	0.6017	0.2019	0.912	0.354
Mof_C 	C 	0.5874	0.181	0.8565	-0.118
Mof_C 	C 	0.5565	0.2029	0.7654	-0.114
Mof_C 	C 	0.5883	0.0515	0.7704	0.332
Mof_C 	C 	0.5948	0.1272	0.8415	0.056
Mof_H 	H 	0.6079	0.1019	0.8668	0.027
Mof_C 	C 	0.564	0.1491	0.7502	0.051
Mof_H 	H 	0.5566	0.1384	0.7144	0.05
Mof_C 	C 	0.5677	0.2191	0.8188	0.053
Mof_H 	H 	0.5619	0.2552	0.8294	0.048
Mof_Cu	Cu	0.11457	0.55912	0.21592	0.922
Mof_Cu	Cu	0.01311	0.64849	0.20257	0.923
Mof_O 	O 	0.12898	0.33018	0.05669	-0.425
Mof_O 	O 	0.04521	0.57903	0.18629	-0.402
Mof_O 	O 	0.1071	0.48236	0.19405	-0.411
Mof_O 	O 	0.01985	0.21072	0.25755	-0.402
Mof_O 	O 	0.04344	0.26742	0.32553	-0.405
Mof_O 	O 	0.0736	0.46143	0.2764	-0.261
Mof_O 	O 	0.0878	0.2525	0.0734	-0.282
Mof_N 	N 	0.12801	0.638	0.2264	-0.19
Mof_N 	N 	0.08564	0.67311	0.2234	-0.195
Mof_C 	C 	0.1741	0.667	0.2316	0.087
Mof_H 	H 	0.2091	0.6523	0.2349	0.002
Mof_C 	C 	0.1059	0.724	0.2266	0.088
Mof_H 	H 	0.0851	0.7559	0.2258	0.01
Mof_C 	C 	0.0826	0.3896	0.2121	-0.106
Mof_C 	C 	0.1619	0.7221	0.2314	-0.142
Mof_H 	H 	0.1862	0.7513	0.2339	0.084
Mof_C 	C 	0.0385	0.2551	0.2761	0.367
Mof_C 	C 	0.1017	0.2981	0.088	0.354
Mof_C 	C 	0.0874	0.319	0.1435	-0.117
Mof_C 	C 	0.0565	0.2971	0.2346	-0.114
Mof_C 	C 	0.0883	0.4485	0.2296	0.332
Mof_C 	C 	0.0948	0.3728	0.1585	0.056
Mof_H 	H 	0.1079	0.3981	0.1332	0.027
Mof_C 	C 	0.064	0.3509	0.2498	0.051
Mof_H 	H 	0.0566	0.3616	0.2856	0.05
Mof_C 	C 	0.0677	0.2809	0.1812	0.053
Mof_H 	H 	0.0619	0.2448	0.1706	0.048
Mof_Cu	Cu	0.88543	0.05912	0.28408	0.922
Mof_Cu	Cu	0.98689	0.14849	0.29743	0.922
Mof_O 	O 	0.87102	0.83018	0.44331	-0.426
Mof_O 	O 	0.95479	0.07903	0.31371	-0.402
Mof_O 	O 	0.8929	0.98236	0.30595	-0.411
Mof_O 	O 	0.98015	0.71072	0.24245	-0.403
Mof_O 	O 	0.95656	0.76742	0.17447	-0.405
Mof_O 	O 	0.9264	0.96143	0.2236	-0.261
Mof_O 	O 	0.9122	0.7525	0.4266	-0.282
Mof_N 	N 	0.87199	0.138	0.2736	-0.19
Mof_N 	N 	0.91436	0.17311	0.2766	-0.195
Mof_C 	C 	0.8259	0.167	0.2684	0.087
Mof_H 	H 	0.7909	0.1523	0.2651	0.002
Mof_C 	C 	0.8941	0.224	0.2734	0.088
Mof_H 	H 	0.9149	0.2559	0.2742	0.01
Mof_C 	C 	0.9174	0.8896	0.2879	-0.106
Mof_C 	C 	0.8381	0.2221	0.2686	-0.142
Mof_H 	H 	0.8138	0.2513	0.2661	0.084
Mof_C 	C 	0.9615	0.7551	0.2239	0.367
Mof_C 	C 	0.8983	0.7981	0.412	0.354
Mof_C 	C 	0.9126	0.819	0.3565	-0.118
Mof_C 	C 	0.9435	0.7971	0.2654	-0.114
Mof_C 	C 	0.9117	0.9485	0.2704	0.332
Mof_C 	C 	0.9052	0.8728	0.3415	0.056
Mof_H 	H 	0.8921	0.8981	0.3668	0.027
Mof_C 	C 	0.936	0.8509	0.2502	0.051
Mof_H 	H 	0.9434	0.8616	0.2144	0.05
Mof_C 	C 	0.9323	0.7809	0.3188	0.053
Mof_H 	H 	0.9381	0.7448	0.3294	0.048
Mof_Cu	Cu	0.38543	0.44088	0.71592	0.922
Mof_Cu	Cu	0.48689	0.35151	0.70257	0.923
Mof_O 	O 	0.37102	0.66982	0.55669	-0.426
Mof_O 	O 	0.45479	0.42097	0.68629	-0.402
Mof_O 	O 	0.3929	0.51764	0.69405	-0.411
Mof_O 	O 	0.48015	0.78928	0.75755	-0.403
Mof_O 	O 	0.45656	0.73258	0.82553	-0.405
Mof_O 	O 	0.4264	0.53857	0.7764	-0.261
Mof_O 	O 	0.4122	0.7475	0.5734	-0.282
Mof_N 	N 	0.37199	0.362	0.7264	-0.19
Mof_N 	N 	0.41436	0.32689	0.7234	-0.195
Mof_C 	C 	0.3259	0.333	0.7316	0.087
Mof_H 	H 	0.2909	0.3477	0.7349	0.002
Mof_C 	C 	0.3941	0.276	0.7266	0.088
Mof_H 	H 	0.4149	0.2441	0.7258	0.01
Mof_C 	C 	0.4174	0.6104	0.7121	-0.106
Mof_C 	C 	0.3381	0.2779	0.7314	-0.142
Mof_H 	H 	0.3138	0.2487	0.7339	0.084
Mof_C 	C 	0.4615	0.7449	0.7761	0.367
Mof_C 	C 	0.3983	0.7019	0.588	0.354
Mof_C 	C 	0.4126	0.681	0.6435	-0.118
Mof_C 	C 	0.4435	0.7029	0.7346	-0.114
Mof_C 	C 	0.4117	0.5515	0.7296	0.332
Mof_C 	C 	0.4052	0.6272	0.6585	0.056
Mof_H 	H 	0.3921	0.6019	0.6332	0.027
Mof_C 	C 	0.436	0.6491	0.7498	0.051
Mof_H 	H 	0.4434	0.6384	0.7856	0.05
Mof_C 	C 	0.4323	0.7191	0.6812	0.053
Mof_H 	H 	0.4381	0.7552	0.6706	0.048
Mof_Cu	Cu	0.78408	0.61457	0.94088	0.922
Mof_Cu	Cu	0.79743	0.51311	0.85151	0.923
Mof_O 	O 	0.94331	0.62898	0.16982	-0.426
Mof_O 	O 	0.81371	0.54521	0.92097	-0.402
Mof_O 	O 	0.80595	0.6071	0.01764	-0.411
Mof_O 	O 	0.74245	0.51985	0.28928	-0.403
Mof_O 	O 	0.67447	0.54344	0.23258	-0.405
Mof_O 	O 	0.7236	0.5736	0.03857	-0.262
Mof_O 	O 	0.9266	0.5878	0.2475	-0.282
Mof_N 	N 	0.7736	0.62801	0.862	-0.19
Mof_N 	N 	0.7766	0.58564	0.82689	-0.195
Mof_C 	C 	0.7684	0.6741	0.833	0.087
Mof_H 	H 	0.7651	0.7091	0.8477	0.002
Mof_C 	C 	0.7734	0.6059	0.776	0.088
Mof_H 	H 	0.7742	0.5851	0.7441	0.01
Mof_C 	C 	0.7879	0.5826	0.1104	-0.106
Mof_C 	C 	0.7686	0.6619	0.7779	-0.142
Mof_H 	H 	0.7661	0.6862	0.7487	0.084
Mof_C 	C 	0.7239	0.5385	0.2449	0.367
Mof_C 	C 	0.912	0.6017	0.2019	0.354
Mof_C 	C 	0.8565	0.5874	0.181	-0.118
Mof_C 	C 	0.7654	0.5565	0.2029	-0.114
Mof_C 	C 	0.7704	0.5883	0.0515	0.332
Mof_C 	C 	0.8415	0.5948	0.1272	0.056
Mof_H 	H 	0.8668	0.6079	0.1019	0.027
Mof_C 	C 	0.7502	0.564	0.1491	0.051
Mof_H 	H 	0.7144	0.5566	0.1384	0.05
Mof_C 	C 	0.8188	0.5677	0.2191	0.053
Mof_H 	H 	0.8294	0.5619	0.2552	0.048
Mof_Cu	Cu	0.21592	0.11457	0.55912	0.922
Mof_Cu	Cu	0.20257	0.01311	0.64849	0.923
Mof_O 	O 	0.05669	0.12898	0.33018	-0.425
Mof_O 	O 	0.18629	0.04521	0.57903	-0.402
Mof_O 	O 	0.19405	0.1071	0.48236	-0.411
Mof_O 	O 	0.25755	0.01985	0.21072	-0.402
Mof_O 	O 	0.32553	0.04344	0.26742	-0.405
Mof_O 	O 	0.2764	0.0736	0.46143	-0.261
Mof_O 	O 	0.0734	0.0878	0.2525	-0.282
Mof_N 	N 	0.2264	0.12801	0.638	-0.19
Mof_N 	N 	0.2234	0.08564	0.67311	-0.195
Mof_C 	C 	0.2316	0.1741	0.667	0.087
Mof_H 	H 	0.2349	0.2091	0.6523	0.002
Mof_C 	C 	0.2266	0.1059	0.724	0.088
Mof_H 	H 	0.2258	0.0851	0.7559	0.01
Mof_C 	C 	0.2121	0.0826	0.3896	-0.106
Mof_C 	C 	0.2314	0.1619	0.7221	-0.142
Mof_H 	H 	0.2339	0.1862	0.7513	0.084
Mof_C 	C 	0.2761	0.0385	0.2551	0.367
Mof_C 	C 	0.088	0.1017	0.2981	0.354
Mof_C 	C 	0.1435	0.0874	0.319	-0.117
Mof_C 	C 	0.2346	0.0565	0.2971	-0.114
Mof_C 	C 	0.2296	0.0883	0.4485	0.332
Mof_C 	C 	0.1585	0.0948	0.3728	0.056
Mof_H 	H 	0.1332	0.1079	0.3981	0.027
Mof_C 	C 	0.2498	0.064	0.3509	0.051
Mof_H 	H 	0.2856	0.0566	0.3616	0.05
Mof_C 	C 	0.1812	0.0677	0.2809	0.053
Mof_H 	H 	0.1706	0.0619	0.2448	0.048
Mof_Cu	Cu	0.28408	0.88543	0.05912	0.922
Mof_Cu	Cu	0.29743	0.98689	0.14849	0.922
Mof_O 	O 	0.44331	0.87102	0.83018	-0.426
Mof_O 	O 	0.31371	0.95479	0.07903	-0.402
Mof_O 	O 	0.30595	0.8929	0.98236	-0.411
Mof_O 	O 	0.24245	0.98015	0.71072	-0.403
Mof_O 	O 	0.17447	0.95656	0.76742	-0.405
Mof_O 	O 	0.2236	0.9264	0.96143	-0.261
Mof_O 	O 	0.4266	0.9122	0.7525	-0.282
Mof_N 	N 	0.2736	0.87199	0.138	-0.19
Mof_N 	N 	0.2766	0.91436	0.17311	-0.195
Mof_C 	C 	0.2684	0.8259	0.167	0.087
Mof_H 	H 	0.2651	0.7909	0.1523	0.002
Mof_C 	C 	0.2734	0.8941	0.224	0.088
Mof_H 	H 	0.2742	0.9149	0.2559	0.01
Mof_C 	C 	0.2879	0.9174	0.8896	-0.106
Mof_C 	C 	0.2686	0.8381	0.2221	-0.142
Mof_H 	H 	0.2661	0.8138	0.2513	0.084
Mof_C 	C 	0.2239	0.9615	0.7551	0.367
Mof_C 	C 	0.412	0.8983	0.7981	0.354
Mof_C 	C 	0.3565	0.9126	0.819	-0.118
Mof_C 	C 	0.2654	0.9435	0.7971	-0.114
Mof_C 	C 	0.2704	0.9117	0.9485	0.332
Mof_C 	C 	0.3415	0.9052	0.8728	0.056
Mof_H 	H 	0.3668	0.8921	0.8981	0.027
Mof_C 	C 	0.2502	0.936	0.8509	0.051
Mof_H 	H 	0.2144	0.9434	0.8616	0.05
Mof_C 	C 	0.3188	0.9323	0.7809	0.053
Mof_H 	H 	0.3294	0.9381	0.7448	0.048
Mof_Cu	Cu	0.71592	0.38543	0.44088	0.922
Mof_Cu	Cu	0.70257	0.48689	0.35151	0.923
Mof_O 	O 	0.55669	0.37102	0.66982	-0.426
Mof_O 	O 	0.68629	0.45479	0.42097	-0.402
Mof_O 	O 	0.69405	0.3929	0.51764	-0.411
Mof_O 	O 	0.75755	0.48015	0.78928	-0.403
Mof_O 	O 	0.82553	0.45656	0.73258	-0.405
Mof_O 	O 	0.7764	0.4264	0.53857	-0.261
Mof_O 	O 	0.5734	0.4122	0.7475	-0.282
Mof_N 	N 	0.7264	0.37199	0.362	-0.19
Mof_N 	N 	0.7234	0.41436	0.32689	-0.195
Mof_C 	C 	0.7316	0.3259	0.333	0.087
Mof_H 	H 	0.7349	0.2909	0.3477	0.002
Mof_C 	C 	0.7266	0.3941	0.276	0.088
Mof_H 	H 	0.7258	0.4149	0.2441	0.01
Mof_C 	C 	0.7121	0.4174	0.6104	-0.106
Mof_C 	C 	0.7314	0.3381	0.2779	-0.142
Mof_H 	H 	0.7339	0.3138	0.2487	0.084
Mof_C 	C 	0.7761	0.4615	0.7449	0.367
Mof_C 	C 	0.588	0.3983	0.7019	0.354
Mof_C 	C 	0.6435	0.4126	0.681	-0.118
Mof_C 	C 	0.7346	0.4435	0.7029	-0.114
Mof_C 	C 	0.7296	0.4117	0.5515	0.332
Mof_C 	C 	0.6585	0.4052	0.6272	0.056
Mof_H 	H 	0.6332	0.3921	0.6019	0.027
Mof_C 	C 	0.7498	0.436	0.6491	0.051
Mof_H 	H 	0.7856	0.4434	0.6384	0.05
Mof_C 	C 	0.6812	0.4323	0.7191	0.053
Mof_H 	H 	0.6706	0.4381	0.7552	0.048
_end
