data_functionalizedCrystal
_audit_creation_method	'EQeq! by Chris Wilmer'
_symmetry_space_group_name_H-M	'P1'
_symmetry_Int_Tables_number	1
_symmetry_cell_setting	triclinic
loop_
_symmetry_equiv_pos_as_xyz
  x,y,z
_cell_length_a	18.408
_cell_length_b	9.3923
_cell_length_c	10.07
_cell_angle_alpha	90
_cell_angle_beta	90
_cell_angle_gamma	90
loop_
_atom_site_label
_atom_site_type_symbol
_atom_site_fract_x
_atom_site_fract_y
_atom_site_fract_z
_atom_site_charge
Mof_O 	O 	0.62	0.0017	0.4277	-0.564
Mof_O 	O 	0.5349	0.7654	0.5155	-0.849
Mof_O 	O 	0.5451	0.6582	0.7085	-0.757
Mof_Ru	Ru	0.48527	0.05914	0.59396	0.982
Mof_O 	O 	0.5049	0.8802	0.7038	-0.731
Mof_O 	O 	0.7037	0.1194	0.5397	-0.598
Mof_O 	O 	0.5903	0.1187	0.6157	-0.673
Mof_O 	O 	0.7085	0.1141	0.8299	-0.688
Mof_H 	H 	0.6987	0.162	0.8993	0.135
Mof_H 	H 	0.67	0.0749	0.8009	0.045
Mof_C 	C 	0.5279	0.7677	0.6441	0.578
Mof_C 	C 	0.6384	0.0813	0.5289	0.558
Mof_K 	K 	0.4306	0.5036	0.5521	2.015
Mof_O 	O 	0.88	0.4983	0.4277	-0.562
Mof_O 	O 	0.9651	0.7346	0.5155	-0.845
Mof_O 	O 	0.9549	0.8418	0.7085	-0.753
Mof_Ru	Ru	0.01473	0.44086	0.59396	0.986
Mof_O 	O 	0.9951	0.6198	0.7038	-0.73
Mof_O 	O 	0.7963	0.3806	0.5397	-0.596
Mof_O 	O 	0.9097	0.3813	0.6157	-0.674
Mof_O 	O 	0.7915	0.3859	0.8299	-0.688
Mof_H 	H 	0.8013	0.338	0.8993	0.136
Mof_H 	H 	0.83	0.4251	0.8009	0.047
Mof_C 	C 	0.9721	0.7323	0.6441	0.577
Mof_C 	C 	0.8616	0.4187	0.5289	0.558
Mof_K 	K 	0.0694	0.9964	0.5521	2.002
Mof_O 	O 	0.38	0.5017	0.0723	-0.565
Mof_O 	O 	0.4651	0.2654	0.9845	-0.847
Mof_O 	O 	0.4549	0.1582	0.7915	-0.755
Mof_Ru	Ru	0.51473	0.55914	0.90604	0.981
Mof_O 	O 	0.4951	0.3802	0.7962	-0.73
Mof_O 	O 	0.2963	0.6194	0.9603	-0.594
Mof_O 	O 	0.4097	0.6187	0.8843	-0.673
Mof_O 	O 	0.2915	0.6141	0.6701	-0.686
Mof_H 	H 	0.3013	0.662	0.6007	0.136
Mof_H 	H 	0.33	0.5749	0.6991	0.045
Mof_C 	C 	0.4721	0.2677	0.8559	0.577
Mof_C 	C 	0.3616	0.5813	0.9711	0.56
Mof_K 	K 	0.5694	0.0036	0.9479	2.013
Mof_O 	O 	0.12	0.9983	0.0723	-0.571
Mof_O 	O 	0.0349	0.2346	0.9845	-0.832
Mof_O 	O 	0.0451	0.3418	0.7915	-0.749
Mof_Ru	Ru	0.98527	0.94086	0.90604	0.971
Mof_O 	O 	0.0049	0.1198	0.7962	-0.719
Mof_O 	O 	0.2037	0.8806	0.9603	-0.596
Mof_O 	O 	0.0903	0.8813	0.8843	-0.67
Mof_O 	O 	0.2085	0.8859	0.6701	-0.688
Mof_H 	H 	0.1987	0.838	0.6007	0.137
Mof_H 	H 	0.17	0.9251	0.6991	0.046
Mof_C 	C 	0.0279	0.2323	0.8559	0.576
Mof_C 	C 	0.1384	0.9187	0.9711	0.566
Mof_K 	K 	0.9306	0.4964	0.9479	1.982
Mof_O 	O 	0.38	0.9983	0.5723	-0.563
Mof_O 	O 	0.4651	0.2346	0.4845	-0.848
Mof_O 	O 	0.4549	0.3418	0.2915	-0.756
Mof_Ru	Ru	0.51473	0.94086	0.40604	0.983
Mof_O 	O 	0.4951	0.1198	0.2962	-0.73
Mof_O 	O 	0.2963	0.8806	0.4603	-0.597
Mof_O 	O 	0.4097	0.8813	0.3843	-0.673
Mof_O 	O 	0.2915	0.8859	0.1701	-0.688
Mof_H 	H 	0.3013	0.838	0.1007	0.135
Mof_H 	H 	0.33	0.9251	0.1991	0.045
Mof_C 	C 	0.4721	0.2323	0.3559	0.578
Mof_C 	C 	0.3616	0.9187	0.4711	0.558
Mof_K 	K 	0.5694	0.4964	0.4479	2.015
Mof_O 	O 	0.12	0.5017	0.5723	-0.562
Mof_O 	O 	0.0349	0.2654	0.4845	-0.845
Mof_O 	O 	0.0451	0.1582	0.2915	-0.753
Mof_Ru	Ru	0.98527	0.55914	0.40604	0.986
Mof_O 	O 	0.0049	0.3802	0.2962	-0.73
Mof_O 	O 	0.2037	0.6194	0.4603	-0.596
Mof_O 	O 	0.0903	0.6187	0.3843	-0.674
Mof_O 	O 	0.2085	0.6141	0.1701	-0.688
Mof_H 	H 	0.1987	0.662	0.1007	0.136
Mof_H 	H 	0.17	0.5749	0.1991	0.047
Mof_C 	C 	0.0279	0.2677	0.3559	0.577
Mof_C 	C 	0.1384	0.5813	0.4711	0.558
Mof_K 	K 	0.9306	0.0036	0.4479	2.002
Mof_O 	O 	0.62	0.4983	0.9277	-0.565
Mof_O 	O 	0.5349	0.7346	0.0155	-0.847
Mof_O 	O 	0.5451	0.8418	0.2085	-0.755
Mof_Ru	Ru	0.48527	0.44086	0.09396	0.981
Mof_O 	O 	0.5049	0.6198	0.2038	-0.73
Mof_O 	O 	0.7037	0.3806	0.0397	-0.594
Mof_O 	O 	0.5903	0.3813	0.1157	-0.673
Mof_O 	O 	0.7085	0.3859	0.3299	-0.686
Mof_H 	H 	0.6987	0.338	0.3993	0.136
Mof_H 	H 	0.67	0.4251	0.3009	0.045
Mof_C 	C 	0.5279	0.7323	0.1441	0.577
Mof_C 	C 	0.6384	0.4187	0.0289	0.56
Mof_K 	K 	0.4306	0.9964	0.0521	2.013
Mof_O 	O 	0.88	0.0017	0.9277	-0.571
Mof_O 	O 	0.9651	0.7654	0.0155	-0.832
Mof_O 	O 	0.9549	0.6582	0.2085	-0.749
Mof_Ru	Ru	0.01473	0.05914	0.09396	0.971
Mof_O 	O 	0.9951	0.8802	0.2038	-0.719
Mof_O 	O 	0.7963	0.1194	0.0397	-0.596
Mof_O 	O 	0.9097	0.1187	0.1157	-0.67
Mof_O 	O 	0.7915	0.1141	0.3299	-0.688
Mof_H 	H 	0.8013	0.162	0.3993	0.137
Mof_H 	H 	0.83	0.0749	0.3009	0.046
Mof_C 	C 	0.9721	0.7677	0.1441	0.576
Mof_C 	C 	0.8616	0.0813	0.0289	0.566
Mof_K 	K 	0.0694	0.5036	0.0521	1.982
Mof_Co	Co	0.75	0.25	0.68458	1.085
Mof_Co	Co	0.25	0.75	0.81542	1.086
Mof_Co	Co	0.25	0.75	0.31542	1.085
Mof_Co	Co	0.75	0.25	0.18458	1.086
_end
