data_functionalizedCrystal
_audit_creation_method	'EQeq! by Chris Wilmer'
_symmetry_space_group_name_H-M	'P1'
_symmetry_Int_Tables_number	1
_symmetry_cell_setting	triclinic
loop_
_symmetry_equiv_pos_as_xyz
  x,y,z
_cell_length_a	28.9352
_cell_length_b	28.9352
_cell_length_c	33.184
_cell_angle_alpha	86.1511
_cell_angle_beta	86.1511
_cell_angle_gamma	76.6937
loop_
_atom_site_label
_atom_site_type_symbol
_atom_site_fract_x
_atom_site_fract_y
_atom_site_fract_z
_atom_site_charge
Mof_Co	Co	0.24041	0.17396	0.85564	1.118
Mof_Co	Co	0.7281	0.79397	0.40745	1.113
Mof_Co	Co	0.24496	0.0542	0.86908	1.081
Mof_Co	Co	0.25832	0.71163	0.14661	1.116
Mof_Co	Co	0.69674	0.68879	0.39317	1.082
Mof_Co	Co	0.82604	0.75959	0.64436	1.118
Mof_Co	Co	0.20603	0.2719	0.09255	1.113
Mof_Co	Co	0.9458	0.75504	0.63092	1.081
Mof_Co	Co	0.28837	0.74168	0.35339	1.116
Mof_Co	Co	0.31121	0.30326	0.10683	1.082
Mof_Co	Co	0.75959	0.82604	0.14436	1.118
Mof_Co	Co	0.2719	0.20603	0.59255	1.113
Mof_Co	Co	0.75504	0.9458	0.13092	1.081
Mof_Co	Co	0.74168	0.28837	0.85339	1.116
Mof_Co	Co	0.30326	0.31121	0.60683	1.083
Mof_Co	Co	0.17396	0.24041	0.35564	1.119
Mof_Co	Co	0.79397	0.7281	0.90745	1.114
Mof_Co	Co	0.0542	0.24496	0.36908	1.082
Mof_Co	Co	0.71163	0.25832	0.64661	1.117
Mof_Co	Co	0.68879	0.69674	0.89317	1.083
Mof_Co	Co	0.26941	0.73059	0.25	1.204
Mof_Co	Co	0.73059	0.26941	0.75	1.204
Mof_H 	H 	0.2021	0.8569	0.1165	0.016
Mof_H 	H 	0.2533	0.8803	0.2221	0.033
Mof_H 	H 	0.2359	0.9623	0.2042	0.065
Mof_H 	H 	0.1849	0.9377	0.1001	0.059
Mof_H 	H 	0.2113	0.0059	0.0794	0.054
Mof_H 	H 	0.1673	0.1397	0.1149	0.047
Mof_H 	H 	0.1769	0.0309	0.1973	0.059
Mof_H 	H 	0.1875	0.1731	0.1718	0.081
Mof_H 	H 	0.11	0.0876	0.2257	0.073
Mof_H 	H 	0.1695	0.2221	0.225	0.02
Mof_H 	H 	0.0923	0.1349	0.2801	-0.003
Mof_H 	H 	0.1788	0.0428	0.0222	0.065
Mof_H 	H 	0.1903	0.0687	0.9548	-0.039
Mof_H 	H 	0.2182	0.1532	0.0619	0.075
Mof_H 	H 	0.2292	0.1814	0.9949	0.015
Mof_H 	H 	0.1047	0.6983	0.1935	0.023
Mof_H 	H 	0.0515	0.6683	0.2388	0.063
Mof_H 	H 	0.2107	0.6443	0.2662	0.029
Mof_H 	H 	0.1589	0.6073	0.3081	0.071
Mof_H 	H 	0.1135	0.5447	0.3059	0.064
Mof_H 	H 	0.013	0.666	0.3079	0.061
Mof_H 	H 	0.1335	0.4773	0.352	0.082
Mof_H 	H 	0.0007	0.4717	0.3331	0.07
Mof_H 	H 	0.1545	0.3957	0.3605	0.016
Mof_H 	H 	0.0215	0.3897	0.3411	-0.002
Mof_H 	H 	0.9865	0.5451	0.3622	0.057
Mof_H 	H 	0.9111	0.5787	0.3483	0.069
Mof_H 	H 	0.9545	0.7003	0.3543	0.082
Mof_H 	H 	0.8791	0.7383	0.3727	0.01
Mof_H 	H 	0.8353	0.6179	0.3683	-0.008
Mof_H 	H 	0.395	0.7516	0.1161	0.015
Mof_H 	H 	0.4725	0.7601	0.1094	0.062
Mof_H 	H 	0.4938	0.7108	0.2247	0.057
Mof_H 	H 	0.5558	0.7298	0.1035	0.058
Mof_H 	H 	0.6112	0.6886	0.0643	0.056
Mof_H 	H 	0.6925	0.7719	0.0967	0.061
Mof_H 	H 	0.7377	0.7575	0.0363	0.034
Mof_H 	H 	0.6526	0.6778	0.0014	0.001
Mof_H 	H 	0.5412	0.7626	0.2194	0.059
Mof_H 	H 	0.6669	0.7521	0.1574	0.044
Mof_H 	H 	0.6707	0.8113	0.2078	0.077
Mof_H 	H 	0.7025	0.8231	0.2663	0.014
Mof_H 	H 	0.6278	0.7412	0.3284	-0.051
Mof_H 	H 	0.594	0.7288	0.2714	0.071
Mof_H 	H 	0.4155	0.7039	0.2322	0.021
Mof_H 	H 	0.1431	0.7979	0.3835	0.016
Mof_H 	H 	0.1197	0.7467	0.2779	0.033
Mof_H 	H 	0.0377	0.7641	0.2958	0.065
Mof_H 	H 	0.0623	0.8151	0.3999	0.059
Mof_H 	H 	0.9941	0.7887	0.4206	0.054
Mof_H 	H 	0.8603	0.8327	0.3851	0.047
Mof_H 	H 	0.9691	0.8231	0.3027	0.059
Mof_H 	H 	0.8269	0.8125	0.3282	0.081
Mof_H 	H 	0.9124	0.89	0.2743	0.073
Mof_H 	H 	0.7779	0.8305	0.275	0.02
Mof_H 	H 	0.8651	0.9077	0.2199	-0.003
Mof_H 	H 	0.9572	0.8212	0.4778	0.065
Mof_H 	H 	0.9313	0.8097	0.5452	-0.039
Mof_H 	H 	0.8468	0.7818	0.4381	0.075
Mof_H 	H 	0.8186	0.7708	0.5051	0.015
Mof_H 	H 	0.3017	0.8953	0.3065	0.023
Mof_H 	H 	0.3317	0.9485	0.2612	0.063
Mof_H 	H 	0.3557	0.7893	0.2338	0.029
Mof_H 	H 	0.3927	0.8411	0.1919	0.071
Mof_H 	H 	0.4553	0.8865	0.1941	0.064
Mof_H 	H 	0.334	0.987	0.1921	0.061
Mof_H 	H 	0.5227	0.8665	0.148	0.082
Mof_H 	H 	0.5283	0.9993	0.1669	0.07
Mof_H 	H 	0.6043	0.8455	0.1395	0.016
Mof_H 	H 	0.6103	0.9785	0.1589	-0.002
Mof_H 	H 	0.4549	0.0135	0.1378	0.057
Mof_H 	H 	0.4213	0.0889	0.1517	0.069
Mof_H 	H 	0.2997	0.0455	0.1457	0.082
Mof_H 	H 	0.2617	0.1209	0.1273	0.011
Mof_H 	H 	0.3821	0.1647	0.1317	-0.008
Mof_H 	H 	0.2484	0.605	0.3839	0.015
Mof_H 	H 	0.2399	0.5275	0.3906	0.062
Mof_H 	H 	0.2892	0.5062	0.2753	0.057
Mof_H 	H 	0.2702	0.4442	0.3965	0.058
Mof_H 	H 	0.3114	0.3888	0.4357	0.056
Mof_H 	H 	0.2281	0.3075	0.4033	0.061
Mof_H 	H 	0.2425	0.2623	0.4637	0.034
Mof_H 	H 	0.3222	0.3474	0.4986	0.001
Mof_H 	H 	0.2374	0.4588	0.2806	0.059
Mof_H 	H 	0.2479	0.3331	0.3426	0.044
Mof_H 	H 	0.1887	0.3293	0.2922	0.077
Mof_H 	H 	0.1769	0.2975	0.2337	0.014
Mof_H 	H 	0.2588	0.3722	0.1716	-0.051
Mof_H 	H 	0.2712	0.406	0.2286	0.071
Mof_H 	H 	0.2961	0.5845	0.2678	0.021
Mof_H 	H 	0.7979	0.1431	0.8835	0.016
Mof_H 	H 	0.7467	0.1197	0.7779	0.033
Mof_H 	H 	0.7641	0.0377	0.7958	0.065
Mof_H 	H 	0.8151	0.0623	0.8999	0.059
Mof_H 	H 	0.7887	0.9941	0.9206	0.054
Mof_H 	H 	0.8327	0.8603	0.8851	0.047
Mof_H 	H 	0.8231	0.9691	0.8027	0.059
Mof_H 	H 	0.8125	0.8269	0.8282	0.081
Mof_H 	H 	0.89	0.9124	0.7743	0.073
Mof_H 	H 	0.8305	0.7779	0.775	0.02
Mof_H 	H 	0.9077	0.8651	0.7199	-0.003
Mof_H 	H 	0.8212	0.9572	0.9778	0.065
Mof_H 	H 	0.8097	0.9313	0.0452	-0.039
Mof_H 	H 	0.7818	0.8468	0.9381	0.075
Mof_H 	H 	0.7708	0.8186	0.0051	0.015
Mof_H 	H 	0.8953	0.3017	0.8065	0.023
Mof_H 	H 	0.9485	0.3317	0.7612	0.063
Mof_H 	H 	0.7893	0.3557	0.7338	0.029
Mof_H 	H 	0.8411	0.3927	0.6919	0.071
Mof_H 	H 	0.8865	0.4553	0.6941	0.064
Mof_H 	H 	0.987	0.334	0.6921	0.061
Mof_H 	H 	0.8665	0.5227	0.648	0.082
Mof_H 	H 	0.9993	0.5283	0.6669	0.07
Mof_H 	H 	0.8455	0.6043	0.6395	0.016
Mof_H 	H 	0.9785	0.6103	0.6589	-0.002
Mof_H 	H 	0.0135	0.4549	0.6378	0.057
Mof_H 	H 	0.0889	0.4213	0.6517	0.069
Mof_H 	H 	0.0455	0.2997	0.6457	0.082
Mof_H 	H 	0.1209	0.2617	0.6273	0.01
Mof_H 	H 	0.1647	0.3821	0.6317	-0.008
Mof_H 	H 	0.605	0.2484	0.8839	0.015
Mof_H 	H 	0.5275	0.2399	0.8906	0.062
Mof_H 	H 	0.5062	0.2892	0.7753	0.057
Mof_H 	H 	0.4442	0.2702	0.8965	0.058
Mof_H 	H 	0.3888	0.3114	0.9357	0.056
Mof_H 	H 	0.3075	0.2281	0.9033	0.061
Mof_H 	H 	0.2623	0.2425	0.9637	0.034
Mof_H 	H 	0.3474	0.3222	0.9986	0.001
Mof_H 	H 	0.4588	0.2374	0.7806	0.059
Mof_H 	H 	0.3331	0.2479	0.8426	0.044
Mof_H 	H 	0.3293	0.1887	0.7922	0.077
Mof_H 	H 	0.2975	0.1769	0.7337	0.014
Mof_H 	H 	0.3722	0.2588	0.6716	-0.051
Mof_H 	H 	0.406	0.2712	0.7286	0.071
Mof_H 	H 	0.5845	0.2961	0.7678	0.021
Mof_H 	H 	0.8569	0.2021	0.6165	0.016
Mof_H 	H 	0.8803	0.2533	0.7221	0.033
Mof_H 	H 	0.9623	0.2359	0.7042	0.065
Mof_H 	H 	0.9377	0.1849	0.6001	0.059
Mof_H 	H 	0.0059	0.2113	0.5794	0.054
Mof_H 	H 	0.1397	0.1673	0.6149	0.047
Mof_H 	H 	0.0309	0.1769	0.6973	0.059
Mof_H 	H 	0.1731	0.1875	0.6718	0.081
Mof_H 	H 	0.0876	0.11	0.7257	0.073
Mof_H 	H 	0.2221	0.1695	0.725	0.02
Mof_H 	H 	0.1349	0.0923	0.7801	-0.003
Mof_H 	H 	0.0428	0.1788	0.5222	0.065
Mof_H 	H 	0.0687	0.1903	0.4548	-0.039
Mof_H 	H 	0.1532	0.2182	0.5619	0.075
Mof_H 	H 	0.1814	0.2292	0.4949	0.015
Mof_H 	H 	0.6983	0.1047	0.6935	0.023
Mof_H 	H 	0.6683	0.0515	0.7388	0.063
Mof_H 	H 	0.6443	0.2107	0.7662	0.029
Mof_H 	H 	0.6073	0.1589	0.8081	0.071
Mof_H 	H 	0.5447	0.1135	0.8059	0.064
Mof_H 	H 	0.666	0.013	0.8079	0.061
Mof_H 	H 	0.4773	0.1335	0.852	0.082
Mof_H 	H 	0.4717	0.0007	0.8331	0.07
Mof_H 	H 	0.3957	0.1545	0.8605	0.016
Mof_H 	H 	0.3897	0.0215	0.8411	-0.002
Mof_H 	H 	0.5451	0.9865	0.8622	0.057
Mof_H 	H 	0.5787	0.9111	0.8483	0.069
Mof_H 	H 	0.7003	0.9545	0.8543	0.082
Mof_H 	H 	0.7383	0.8791	0.8727	0.011
Mof_H 	H 	0.6179	0.8353	0.8683	-0.008
Mof_H 	H 	0.7516	0.395	0.6161	0.015
Mof_H 	H 	0.7601	0.4725	0.6094	0.062
Mof_H 	H 	0.7108	0.4938	0.7247	0.057
Mof_H 	H 	0.7298	0.5558	0.6035	0.058
Mof_H 	H 	0.6886	0.6112	0.5643	0.056
Mof_H 	H 	0.7719	0.6925	0.5967	0.061
Mof_H 	H 	0.7575	0.7377	0.5363	0.034
Mof_H 	H 	0.6778	0.6526	0.5014	0.001
Mof_H 	H 	0.7626	0.5412	0.7194	0.059
Mof_H 	H 	0.7521	0.6669	0.6574	0.044
Mof_H 	H 	0.8113	0.6707	0.7078	0.077
Mof_H 	H 	0.8231	0.7025	0.7663	0.014
Mof_H 	H 	0.7412	0.6278	0.8284	-0.051
Mof_H 	H 	0.7288	0.594	0.7714	0.071
Mof_H 	H 	0.7039	0.4155	0.7322	0.021
Mof_C 	C 	0.23889	0.80823	0.18217	0.396
Mof_C 	C 	0.70104	0.71692	0.01449	-0.122
Mof_C 	C 	0.20847	0.87801	0.13427	0.041
Mof_C 	C 	0.72671	0.70907	0.97175	0.369
Mof_C 	C 	0.22835	0.86109	0.17153	-0.123
Mof_C 	C 	0.23942	0.89188	0.19786	0.038
Mof_C 	C 	0.229	0.9412	0.18682	-0.112
Mof_C 	C 	0.19854	0.92604	0.12444	-0.115
Mof_C 	C 	0.20911	0.95833	0.15139	0.045
Mof_C 	C 	0.19625	0.01033	0.14067	0.024
Mof_C 	C 	0.20116	0.0271	0.09969	-0.093
Mof_C 	C 	0.19023	0.07701	0.09031	0.012
Mof_C 	C 	0.17458	0.10708	0.121	-0.087
Mof_C 	C 	0.16927	0.09023	0.16166	0.015
Mof_C 	C 	0.18021	0.04229	0.17062	-0.098
Mof_C 	C 	0.15363	0.12469	0.19408	0.069
Mof_C 	C 	0.16886	0.16496	0.19387	-0.148
Mof_C 	C 	0.12283	0.11419	0.22622	-0.149
Mof_C 	C 	0.15772	0.1947	0.22557	0.062
Mof_C 	C 	0.1116	0.143	0.25849	0.072
Mof_C 	C 	0.12837	0.18343	0.25907	-0.163
Mof_C 	C 	0.11993	0.21313	0.29453	0.369
Mof_C 	C 	0.1977	0.09512	0.04883	0.069
Mof_C 	C 	0.18942	0.07068	0.01661	-0.146
Mof_C 	C 	0.19624	0.08566	0.97593	0.059
Mof_C 	C 	0.21258	0.13604	0.04078	-0.15
Mof_C 	C 	0.21279	0.12857	0.96887	-0.17
Mof_C 	C 	0.21964	0.15292	0.99999	0.071
Mof_C 	C 	0.22279	0.14425	0.92561	0.377
Mof_C 	C 	0.1979	0.69112	0.1973	0.334
Mof_C 	C 	0.16256	0.67426	0.22646	-0.118
Mof_C 	C 	0.11532	0.68118	0.21711	0.035
Mof_C 	C 	0.08372	0.66198	0.24362	-0.115
Mof_C 	C 	0.17914	0.64804	0.25998	0.035
Mof_C 	C 	0.14764	0.62636	0.28557	-0.112
Mof_C 	C 	0.10107	0.63339	0.27714	0.047
Mof_C 	C 	0.06734	0.60902	0.30268	0.033
Mof_C 	C 	0.08263	0.56065	0.31317	-0.101
Mof_C 	C 	0.0511	0.53602	0.33486	0.022
Mof_C 	C 	0.02248	0.63354	0.31447	-0.1
Mof_C 	C 	0.11061	0.45981	0.3499	-0.149
Mof_C 	C 	0.03173	0.45627	0.33858	-0.145
Mof_C 	C 	0.06612	0.4828	0.34205	0.07
Mof_C 	C 	0.12338	0.4107	0.35492	0.08
Mof_C 	C 	0.04417	0.40733	0.34339	0.072
Mof_C 	C 	0.99067	0.60945	0.33671	0.02
Mof_C 	C 	0.00679	0.56097	0.34678	-0.095
Mof_C 	C 	0.94269	0.63507	0.34939	0.063
Mof_C 	C 	0.90509	0.61069	0.35363	-0.145
Mof_C 	C 	0.93082	0.68316	0.35702	-0.146
Mof_C 	C 	0.88562	0.70592	0.3684	0.083
Mof_C 	C 	0.84914	0.68176	0.37378	-0.173
Mof_C 	C 	0.85946	0.6344	0.36568	0.079
Mof_C 	C 	0.79929	0.70659	0.38632	0.428
Mof_C 	C 	0.39791	0.72361	0.17404	-0.13
Mof_C 	C 	0.34748	0.71736	0.1791	0.391
Mof_C 	C 	0.41464	0.74292	0.13769	0.04
Mof_C 	C 	0.46109	0.74897	0.13415	-0.119
Mof_C 	C 	0.47378	0.7196	0.20332	-0.113
Mof_C 	C 	0.49059	0.73923	0.16566	0.039
Mof_C 	C 	0.54058	0.74442	0.16284	0.029
Mof_C 	C 	0.5688	0.73694	0.12652	-0.105
Mof_C 	C 	0.6157	0.74032	0.12509	0.029
Mof_C 	C 	0.64634	0.73134	0.08646	0.041
Mof_C 	C 	0.63632	0.7034	0.05826	-0.113
Mof_C 	C 	0.68474	0.75248	0.07825	-0.112
Mof_C 	C 	0.71158	0.74386	0.04167	0.038
Mof_C 	C 	0.6613	0.69554	0.02072	0.025
Mof_C 	C 	0.56021	0.75611	0.19582	-0.098
Mof_C 	C 	0.63508	0.75054	0.15885	-0.091
Mof_C 	C 	0.60849	0.75873	0.19558	0.012
Mof_C 	C 	0.62818	0.76906	0.23231	0.071
Mof_C 	C 	0.66154	0.79706	0.23207	-0.157
Mof_C 	C 	0.68087	0.80379	0.26702	0.08
Mof_C 	C 	0.66897	0.78237	0.30342	-0.188
Mof_C 	C 	0.63644	0.75524	0.30387	0.093
Mof_C 	C 	0.61594	0.7478	0.26992	-0.171
Mof_C 	C 	0.42743	0.71403	0.20726	0.036
Mof_C 	C 	0.104	0.33044	0.35541	0.417
Mof_C 	C 	0.09084	0.38428	0.35169	-0.162
Mof_C 	C 	0.69256	0.78734	0.34013	0.337
Mof_C 	C 	0.19177	0.76111	0.31783	0.396
Mof_C 	C 	0.28308	0.29896	0.48551	-0.122
Mof_C 	C 	0.12199	0.79153	0.36573	0.041
Mof_C 	C 	0.29093	0.27329	0.52825	0.369
Mof_C 	C 	0.13891	0.77165	0.32847	-0.123
Mof_C 	C 	0.10812	0.76058	0.30214	0.038
Mof_C 	C 	0.0588	0.771	0.31318	-0.112
Mof_C 	C 	0.07396	0.80146	0.37556	-0.115
Mof_C 	C 	0.04167	0.79089	0.34861	0.045
Mof_C 	C 	0.98967	0.80375	0.35933	0.024
Mof_C 	C 	0.9729	0.79884	0.40031	-0.093
Mof_C 	C 	0.92299	0.80977	0.40969	0.012
Mof_C 	C 	0.89292	0.82542	0.379	-0.087
Mof_C 	C 	0.90977	0.83073	0.33834	0.015
Mof_C 	C 	0.95771	0.81979	0.32938	-0.098
Mof_C 	C 	0.87531	0.84637	0.30592	0.069
Mof_C 	C 	0.83504	0.83114	0.30613	-0.148
Mof_C 	C 	0.88581	0.87717	0.27378	-0.149
Mof_C 	C 	0.8053	0.84228	0.27443	0.062
Mof_C 	C 	0.857	0.8884	0.24151	0.072
Mof_C 	C 	0.81657	0.87163	0.24093	-0.163
Mof_C 	C 	0.78687	0.88007	0.20547	0.369
Mof_C 	C 	0.90488	0.8023	0.45117	0.069
Mof_C 	C 	0.92932	0.81058	0.48339	-0.146
Mof_C 	C 	0.91434	0.80376	0.52407	0.059
Mof_C 	C 	0.86396	0.78742	0.45922	-0.15
Mof_C 	C 	0.87143	0.78721	0.53113	-0.17
Mof_C 	C 	0.84708	0.78036	0.50001	0.071
Mof_C 	C 	0.85575	0.77721	0.57439	0.377
Mof_C 	C 	0.30888	0.8021	0.3027	0.334
Mof_C 	C 	0.32574	0.83744	0.27354	-0.118
Mof_C 	C 	0.31882	0.88468	0.28289	0.035
Mof_C 	C 	0.33802	0.91628	0.25638	-0.115
Mof_C 	C 	0.35196	0.82086	0.24002	0.035
Mof_C 	C 	0.37364	0.85236	0.21443	-0.112
Mof_C 	C 	0.36661	0.89893	0.22286	0.047
Mof_C 	C 	0.39098	0.93266	0.19732	0.033
Mof_C 	C 	0.43935	0.91737	0.18683	-0.101
Mof_C 	C 	0.46398	0.9489	0.16514	0.022
Mof_C 	C 	0.36646	0.97752	0.18553	-0.1
Mof_C 	C 	0.54019	0.88939	0.1501	-0.149
Mof_C 	C 	0.54373	0.96827	0.16142	-0.145
Mof_C 	C 	0.5172	0.93388	0.15795	0.07
Mof_C 	C 	0.5893	0.87662	0.14508	0.08
Mof_C 	C 	0.59267	0.95583	0.15661	0.072
Mof_C 	C 	0.39055	0.00933	0.16329	0.02
Mof_C 	C 	0.43903	0.99321	0.15322	-0.095
Mof_C 	C 	0.36493	0.05731	0.15061	0.063
Mof_C 	C 	0.38931	0.09491	0.14637	-0.145
Mof_C 	C 	0.31684	0.06918	0.14298	-0.146
Mof_C 	C 	0.29408	0.11438	0.1316	0.083
Mof_C 	C 	0.31824	0.15086	0.12622	-0.173
Mof_C 	C 	0.3656	0.14054	0.13432	0.079
Mof_C 	C 	0.29341	0.20071	0.11368	0.428
Mof_C 	C 	0.27639	0.60209	0.32596	-0.13
Mof_C 	C 	0.28264	0.65252	0.3209	0.391
Mof_C 	C 	0.25708	0.58536	0.36231	0.04
Mof_C 	C 	0.25103	0.53891	0.36585	-0.119
Mof_C 	C 	0.2804	0.52622	0.29668	-0.113
Mof_C 	C 	0.26077	0.50941	0.33434	0.039
Mof_C 	C 	0.25558	0.45942	0.33716	0.029
Mof_C 	C 	0.26306	0.4312	0.37348	-0.105
Mof_C 	C 	0.25968	0.3843	0.37491	0.029
Mof_C 	C 	0.26866	0.35366	0.41354	0.041
Mof_C 	C 	0.2966	0.36368	0.44174	-0.113
Mof_C 	C 	0.24752	0.31526	0.42175	-0.112
Mof_C 	C 	0.25614	0.28842	0.45833	0.038
Mof_C 	C 	0.30446	0.3387	0.47928	0.025
Mof_C 	C 	0.24389	0.43979	0.30418	-0.098
Mof_C 	C 	0.24946	0.36492	0.34115	-0.091
Mof_C 	C 	0.24127	0.39151	0.30442	0.012
Mof_C 	C 	0.23094	0.37182	0.26769	0.071
Mof_C 	C 	0.20294	0.33846	0.26793	-0.157
Mof_C 	C 	0.19621	0.31913	0.23298	0.08
Mof_C 	C 	0.21763	0.33103	0.19658	-0.188
Mof_C 	C 	0.24476	0.36356	0.19613	0.093
Mof_C 	C 	0.2522	0.38406	0.23008	-0.171
Mof_C 	C 	0.28597	0.57257	0.29274	0.036
Mof_C 	C 	0.66956	0.896	0.14459	0.417
Mof_C 	C 	0.61572	0.90916	0.14831	-0.162
Mof_C 	C 	0.21266	0.30744	0.15987	0.337
Mof_C 	C 	0.76111	0.19177	0.81783	0.396
Mof_C 	C 	0.29896	0.28308	0.98551	-0.122
Mof_C 	C 	0.79153	0.12199	0.86573	0.041
Mof_C 	C 	0.27329	0.29093	0.02825	0.369
Mof_C 	C 	0.77165	0.13891	0.82847	-0.123
Mof_C 	C 	0.76058	0.10812	0.80214	0.038
Mof_C 	C 	0.771	0.0588	0.81318	-0.112
Mof_C 	C 	0.80146	0.07396	0.87556	-0.115
Mof_C 	C 	0.79089	0.04167	0.84861	0.045
Mof_C 	C 	0.80375	0.98967	0.85933	0.024
Mof_C 	C 	0.79884	0.9729	0.90031	-0.093
Mof_C 	C 	0.80977	0.92299	0.90969	0.012
Mof_C 	C 	0.82542	0.89292	0.879	-0.087
Mof_C 	C 	0.83073	0.90977	0.83834	0.015
Mof_C 	C 	0.81979	0.95771	0.82938	-0.098
Mof_C 	C 	0.84637	0.87531	0.80592	0.069
Mof_C 	C 	0.83114	0.83504	0.80613	-0.148
Mof_C 	C 	0.87717	0.88581	0.77378	-0.149
Mof_C 	C 	0.84228	0.8053	0.77443	0.062
Mof_C 	C 	0.8884	0.857	0.74151	0.072
Mof_C 	C 	0.87163	0.81657	0.74093	-0.163
Mof_C 	C 	0.88007	0.78687	0.70547	0.369
Mof_C 	C 	0.8023	0.90488	0.95117	0.069
Mof_C 	C 	0.81058	0.92932	0.98339	-0.146
Mof_C 	C 	0.80376	0.91434	0.02407	0.059
Mof_C 	C 	0.78742	0.86396	0.95922	-0.15
Mof_C 	C 	0.78721	0.87143	0.03113	-0.17
Mof_C 	C 	0.78036	0.84708	1e-05	0.071
Mof_C 	C 	0.77721	0.85575	0.07439	0.377
Mof_C 	C 	0.8021	0.30888	0.8027	0.334
Mof_C 	C 	0.83744	0.32574	0.77354	-0.118
Mof_C 	C 	0.88468	0.31882	0.78289	0.035
Mof_C 	C 	0.91628	0.33802	0.75638	-0.115
Mof_C 	C 	0.82086	0.35196	0.74002	0.035
Mof_C 	C 	0.85236	0.37364	0.71443	-0.112
Mof_C 	C 	0.89893	0.36661	0.72286	0.047
Mof_C 	C 	0.93266	0.39098	0.69732	0.033
Mof_C 	C 	0.91737	0.43935	0.68683	-0.101
Mof_C 	C 	0.9489	0.46398	0.66514	0.022
Mof_C 	C 	0.97752	0.36646	0.68553	-0.1
Mof_C 	C 	0.88939	0.54019	0.6501	-0.149
Mof_C 	C 	0.96827	0.54373	0.66142	-0.145
Mof_C 	C 	0.93388	0.5172	0.65795	0.07
Mof_C 	C 	0.87662	0.5893	0.64508	0.08
Mof_C 	C 	0.95583	0.59267	0.65661	0.072
Mof_C 	C 	0.00933	0.39055	0.66329	0.02
Mof_C 	C 	0.99321	0.43903	0.65322	-0.095
Mof_C 	C 	0.05731	0.36493	0.65061	0.063
Mof_C 	C 	0.09491	0.38931	0.64637	-0.145
Mof_C 	C 	0.06918	0.31684	0.64298	-0.146
Mof_C 	C 	0.11438	0.29408	0.6316	0.083
Mof_C 	C 	0.15086	0.31824	0.62622	-0.173
Mof_C 	C 	0.14054	0.3656	0.63432	0.079
Mof_C 	C 	0.20071	0.29341	0.61368	0.428
Mof_C 	C 	0.60209	0.27639	0.82596	-0.13
Mof_C 	C 	0.65252	0.28264	0.8209	0.391
Mof_C 	C 	0.58536	0.25708	0.86231	0.04
Mof_C 	C 	0.53891	0.25103	0.86585	-0.119
Mof_C 	C 	0.52622	0.2804	0.79668	-0.113
Mof_C 	C 	0.50941	0.26077	0.83434	0.039
Mof_C 	C 	0.45942	0.25558	0.83716	0.029
Mof_C 	C 	0.4312	0.26306	0.87348	-0.105
Mof_C 	C 	0.3843	0.25968	0.87491	0.029
Mof_C 	C 	0.35366	0.26866	0.91354	0.041
Mof_C 	C 	0.36368	0.2966	0.94174	-0.113
Mof_C 	C 	0.31526	0.24752	0.92175	-0.112
Mof_C 	C 	0.28842	0.25614	0.95833	0.038
Mof_C 	C 	0.3387	0.30446	0.97928	0.025
Mof_C 	C 	0.43979	0.24389	0.80418	-0.098
Mof_C 	C 	0.36492	0.24946	0.84115	-0.091
Mof_C 	C 	0.39151	0.24127	0.80442	0.012
Mof_C 	C 	0.37182	0.23094	0.76769	0.071
Mof_C 	C 	0.33846	0.20294	0.76793	-0.157
Mof_C 	C 	0.31913	0.19621	0.73298	0.08
Mof_C 	C 	0.33103	0.21763	0.69658	-0.188
Mof_C 	C 	0.36356	0.24476	0.69613	0.093
Mof_C 	C 	0.38406	0.2522	0.73008	-0.171
Mof_C 	C 	0.57257	0.28597	0.79274	0.036
Mof_C 	C 	0.896	0.66956	0.64459	0.417
Mof_C 	C 	0.90916	0.61572	0.64831	-0.162
Mof_C 	C 	0.30744	0.21266	0.65987	0.337
Mof_C 	C 	0.80823	0.23889	0.68217	0.396
Mof_C 	C 	0.71692	0.70104	0.51449	-0.122
Mof_C 	C 	0.87801	0.20847	0.63427	0.041
Mof_C 	C 	0.70907	0.72671	0.47175	0.369
Mof_C 	C 	0.86109	0.22835	0.67153	-0.123
Mof_C 	C 	0.89188	0.23942	0.69786	0.038
Mof_C 	C 	0.9412	0.229	0.68682	-0.112
Mof_C 	C 	0.92604	0.19854	0.62444	-0.115
Mof_C 	C 	0.95833	0.20911	0.65139	0.045
Mof_C 	C 	0.01033	0.19625	0.64067	0.024
Mof_C 	C 	0.0271	0.20116	0.59969	-0.093
Mof_C 	C 	0.07701	0.19023	0.59031	0.012
Mof_C 	C 	0.10708	0.17458	0.621	-0.087
Mof_C 	C 	0.09023	0.16927	0.66166	0.015
Mof_C 	C 	0.04229	0.18021	0.67062	-0.098
Mof_C 	C 	0.12469	0.15363	0.69408	0.069
Mof_C 	C 	0.16496	0.16886	0.69387	-0.148
Mof_C 	C 	0.11419	0.12283	0.72622	-0.149
Mof_C 	C 	0.1947	0.15772	0.72557	0.062
Mof_C 	C 	0.143	0.1116	0.75849	0.072
Mof_C 	C 	0.18343	0.12837	0.75907	-0.163
Mof_C 	C 	0.21313	0.11993	0.79453	0.369
Mof_C 	C 	0.09512	0.1977	0.54883	0.069
Mof_C 	C 	0.07068	0.18942	0.51661	-0.146
Mof_C 	C 	0.08566	0.19624	0.47593	0.059
Mof_C 	C 	0.13604	0.21258	0.54078	-0.15
Mof_C 	C 	0.12857	0.21279	0.46887	-0.17
Mof_C 	C 	0.15292	0.21964	0.49999	0.071
Mof_C 	C 	0.14425	0.22279	0.42561	0.377
Mof_C 	C 	0.69112	0.1979	0.6973	0.334
Mof_C 	C 	0.67426	0.16256	0.72646	-0.118
Mof_C 	C 	0.68118	0.11532	0.71711	0.035
Mof_C 	C 	0.66198	0.08372	0.74362	-0.115
Mof_C 	C 	0.64804	0.17914	0.75998	0.035
Mof_C 	C 	0.62636	0.14764	0.78557	-0.112
Mof_C 	C 	0.63339	0.10107	0.77714	0.047
Mof_C 	C 	0.60902	0.06734	0.80268	0.033
Mof_C 	C 	0.56065	0.08263	0.81317	-0.101
Mof_C 	C 	0.53602	0.0511	0.83486	0.022
Mof_C 	C 	0.63354	0.02248	0.81447	-0.1
Mof_C 	C 	0.45981	0.11061	0.8499	-0.149
Mof_C 	C 	0.45627	0.03173	0.83858	-0.145
Mof_C 	C 	0.4828	0.06612	0.84205	0.07
Mof_C 	C 	0.4107	0.12338	0.85492	0.08
Mof_C 	C 	0.40733	0.04417	0.84339	0.072
Mof_C 	C 	0.60945	0.99067	0.83671	0.02
Mof_C 	C 	0.56097	0.00679	0.84678	-0.095
Mof_C 	C 	0.63507	0.94269	0.84939	0.063
Mof_C 	C 	0.61069	0.90509	0.85363	-0.145
Mof_C 	C 	0.68316	0.93082	0.85702	-0.146
Mof_C 	C 	0.70592	0.88562	0.8684	0.083
Mof_C 	C 	0.68176	0.84914	0.87378	-0.173
Mof_C 	C 	0.6344	0.85946	0.86568	0.079
Mof_C 	C 	0.70659	0.79929	0.88632	0.428
Mof_C 	C 	0.72361	0.39791	0.67404	-0.13
Mof_C 	C 	0.71736	0.34748	0.6791	0.391
Mof_C 	C 	0.74292	0.41464	0.63769	0.04
Mof_C 	C 	0.74897	0.46109	0.63415	-0.119
Mof_C 	C 	0.7196	0.47378	0.70332	-0.113
Mof_C 	C 	0.73923	0.49059	0.66566	0.039
Mof_C 	C 	0.74442	0.54058	0.66284	0.029
Mof_C 	C 	0.73694	0.5688	0.62652	-0.105
Mof_C 	C 	0.74032	0.6157	0.62509	0.029
Mof_C 	C 	0.73134	0.64634	0.58646	0.041
Mof_C 	C 	0.7034	0.63632	0.55826	-0.113
Mof_C 	C 	0.75248	0.68474	0.57825	-0.112
Mof_C 	C 	0.74386	0.71158	0.54167	0.038
Mof_C 	C 	0.69554	0.6613	0.52072	0.025
Mof_C 	C 	0.75611	0.56021	0.69582	-0.098
Mof_C 	C 	0.75054	0.63508	0.65885	-0.091
Mof_C 	C 	0.75873	0.60849	0.69558	0.012
Mof_C 	C 	0.76906	0.62818	0.73231	0.071
Mof_C 	C 	0.79706	0.66154	0.73207	-0.157
Mof_C 	C 	0.80379	0.68087	0.76702	0.08
Mof_C 	C 	0.78237	0.66897	0.80342	-0.188
Mof_C 	C 	0.75524	0.63644	0.80387	0.093
Mof_C 	C 	0.7478	0.61594	0.76992	-0.171
Mof_C 	C 	0.71403	0.42743	0.70726	0.036
Mof_C 	C 	0.33044	0.104	0.85541	0.417
Mof_C 	C 	0.38428	0.09084	0.85169	-0.162
Mof_C 	C 	0.78734	0.69256	0.84013	0.337
Mof_O 	O 	0.23371	0.78299	0.15449	-0.454
Mof_O 	O 	0.25259	0.79413	0.21705	-0.428
Mof_O 	O 	0.32616	0.71884	0.14817	-0.487
Mof_O 	O 	0.3327	0.7105	0.21569	-0.43
Mof_O 	O 	0.23815	0.69431	0.20863	-0.51
Mof_O 	O 	0.18772	0.7002	0.1607	-0.417
Mof_O 	O 	0.76986	0.68198	0.39409	-0.497
Mof_O 	O 	0.79085	0.75103	0.38881	-0.468
Mof_O 	O 	0.23169	0.18509	0.91924	-0.429
Mof_O 	O 	0.22047	0.12017	0.89677	-0.579
Mof_O 	O 	0.0844	0.20918	0.31925	-0.48
Mof_O 	O 	0.14775	0.23945	0.30006	-0.468
Mof_O 	O 	0.14694	0.3109	0.36006	-0.466
Mof_O 	O 	0.07065	0.31009	0.35405	-0.495
Mof_O 	O 	0.71599	0.81869	0.34276	-0.404
Mof_O 	O 	0.71429	0.68253	0.94885	-0.504
Mof_O 	O 	0.76009	0.73117	0.96435	-0.457
Mof_O 	O 	0.68768	0.7594	0.37227	-0.56
Mof_O 	O 	0.21701	0.76629	0.34551	-0.454
Mof_O 	O 	0.20587	0.74741	0.28295	-0.428
Mof_O 	O 	0.28116	0.67384	0.35183	-0.487
Mof_O 	O 	0.2895	0.6673	0.28431	-0.43
Mof_O 	O 	0.30569	0.76185	0.29137	-0.51
Mof_O 	O 	0.2998	0.81228	0.3393	-0.417
Mof_O 	O 	0.31802	0.23014	0.10591	-0.497
Mof_O 	O 	0.24897	0.20915	0.11119	-0.468
Mof_O 	O 	0.81491	0.76831	0.58076	-0.429
Mof_O 	O 	0.87983	0.77953	0.60323	-0.579
Mof_O 	O 	0.79082	0.9156	0.18075	-0.48
Mof_O 	O 	0.76055	0.85225	0.19994	-0.468
Mof_O 	O 	0.6891	0.85306	0.13994	-0.466
Mof_O 	O 	0.68991	0.92935	0.14595	-0.495
Mof_O 	O 	0.18131	0.28401	0.15724	-0.404
Mof_O 	O 	0.31747	0.28571	0.55115	-0.504
Mof_O 	O 	0.26883	0.23991	0.53565	-0.457
Mof_O 	O 	0.2406	0.31232	0.12773	-0.56
Mof_O 	O 	0.76629	0.21701	0.84551	-0.454
Mof_O 	O 	0.74741	0.20587	0.78295	-0.428
Mof_O 	O 	0.67384	0.28116	0.85183	-0.487
Mof_O 	O 	0.6673	0.2895	0.78431	-0.43
Mof_O 	O 	0.76185	0.30569	0.79137	-0.51
Mof_O 	O 	0.81228	0.2998	0.8393	-0.417
Mof_O 	O 	0.23014	0.31802	0.60591	-0.497
Mof_O 	O 	0.20915	0.24897	0.61119	-0.468
Mof_O 	O 	0.76831	0.81491	0.08076	-0.429
Mof_O 	O 	0.77953	0.87983	0.10323	-0.579
Mof_O 	O 	0.9156	0.79082	0.68075	-0.48
Mof_O 	O 	0.85225	0.76055	0.69994	-0.468
Mof_O 	O 	0.85306	0.6891	0.63994	-0.466
Mof_O 	O 	0.92935	0.68991	0.64595	-0.495
Mof_O 	O 	0.28401	0.18131	0.65724	-0.404
Mof_O 	O 	0.28571	0.31747	0.05115	-0.504
Mof_O 	O 	0.23991	0.26883	0.03565	-0.457
Mof_O 	O 	0.31232	0.2406	0.62773	-0.56
Mof_O 	O 	0.78299	0.23371	0.65449	-0.454
Mof_O 	O 	0.79413	0.25259	0.71705	-0.428
Mof_O 	O 	0.71884	0.32616	0.64817	-0.487
Mof_O 	O 	0.7105	0.3327	0.71569	-0.43
Mof_O 	O 	0.69431	0.23815	0.70863	-0.51
Mof_O 	O 	0.7002	0.18772	0.6607	-0.417
Mof_O 	O 	0.68198	0.76986	0.89409	-0.497
Mof_O 	O 	0.75103	0.79085	0.88881	-0.468
Mof_O 	O 	0.18509	0.23169	0.41924	-0.429
Mof_O 	O 	0.12017	0.22047	0.39677	-0.579
Mof_O 	O 	0.20918	0.0844	0.81925	-0.48
Mof_O 	O 	0.23945	0.14775	0.80006	-0.468
Mof_O 	O 	0.3109	0.14694	0.86006	-0.466
Mof_O 	O 	0.31009	0.07065	0.85405	-0.495
Mof_O 	O 	0.81869	0.71599	0.84276	-0.404
Mof_O 	O 	0.68253	0.71429	0.44885	-0.504
Mof_O 	O 	0.73117	0.76009	0.46435	-0.457
Mof_O 	O 	0.7594	0.68768	0.87227	-0.56
_end
