data_functionalizedCrystal
_audit_creation_method	'EQeq! by Chris Wilmer'
_symmetry_space_group_name_H-M	'P1'
_symmetry_Int_Tables_number	1
_symmetry_cell_setting	triclinic
loop_
_symmetry_equiv_pos_as_xyz
  x,y,z
_cell_length_a	37.2911
_cell_length_b	37.2911
_cell_length_c	37.5132
_cell_angle_alpha	60.1957
_cell_angle_beta	60.1957
_cell_angle_gamma	60
loop_
_atom_site_label
_atom_site_type_symbol
_atom_site_fract_x
_atom_site_fract_y
_atom_site_fract_z
_atom_site_charge
Mof_Cu	Cu	0.90805	0.37269	0.27597	0.913
Mof_Cu	Cu	0.37269	0.44329	0.27597	0.913
Mof_Cu	Cu	0.44329	0.90805	0.27597	0.912
Mof_Cu	Cu	0.90805	0.44329	0.27597	0.912
Mof_Cu	Cu	0.37269	0.90805	0.27597	0.912
Mof_Cu	Cu	0.44329	0.37269	0.27597	0.912
Mof_Cu	Cu	0.90833	0.90833	0.81001	0.911
Mof_Cu	Cu	0.90707	0.90707	0.74117	0.901
Mof_Cu	Cu	0.90833	0.37333	0.81001	0.911
Mof_Cu	Cu	0.90707	0.44469	0.74117	0.901
Mof_Cu	Cu	0.37333	0.90833	0.81001	0.911
Mof_Cu	Cu	0.44469	0.90707	0.74117	0.901
Mof_H 	H 	0.8881	0.0436	0.7684	0.044
Mof_H 	H 	0.8832	0.1187	0.7315	0.074
Mof_H 	H 	0.8799	0.1156	0.6319	0.078
Mof_H 	H 	0.8942	0.0419	0.6613	0.035
Mof_H 	H 	0.9249	0.7721	0.8893	0.041
Mof_H 	H 	0.9399	0.6962	0.9199	0.08
Mof_H 	H 	0.9393	0.6956	0.8122	0.081
Mof_H 	H 	0.9319	0.7682	0.7804	0.037
Mof_H 	H 	0.9385	0.5522	0.0657	0.082
Mof_H 	H 	0.9297	0.5184	0.1401	0.042
Mof_H 	H 	0.0376	0.2959	0.2649	0.041
Mof_H 	H 	0.1092	0.261	0.2649	0.074
Mof_H 	H 	0.8834	0.2995	0.4111	0.076
Mof_H 	H 	0.8865	0.2583	0.4867	0.06
Mof_H 	H 	0.7796	0.4109	0.2904	0.057
Mof_H 	H 	0.7067	0.4454	0.2955	0.05
Mof_H 	H 	0.0436	0.2999	0.7684	0.044
Mof_H 	H 	0.1187	0.2666	0.7315	0.074
Mof_H 	H 	0.1156	0.3726	0.6319	0.078
Mof_H 	H 	0.0419	0.4026	0.6613	0.035
Mof_H 	H 	0.7721	0.4137	0.8893	0.041
Mof_H 	H 	0.6962	0.444	0.9199	0.08
Mof_H 	H 	0.6956	0.5529	0.8122	0.081
Mof_H 	H 	0.7682	0.5195	0.7804	0.037
Mof_H 	H 	0.5522	0.4436	0.0657	0.082
Mof_H 	H 	0.5184	0.4118	0.1401	0.042
Mof_H 	H 	0.2959	0.4016	0.2649	0.04
Mof_H 	H 	0.261	0.3649	0.2649	0.074
Mof_H 	H 	0.2995	0.406	0.4111	0.076
Mof_H 	H 	0.2583	0.3685	0.4867	0.06
Mof_H 	H 	0.4109	0.5191	0.2904	0.057
Mof_H 	H 	0.4454	0.5524	0.2955	0.05
Mof_H 	H 	0.2999	0.8881	0.7684	0.044
Mof_H 	H 	0.2666	0.8832	0.7315	0.074
Mof_H 	H 	0.3726	0.8799	0.6319	0.078
Mof_H 	H 	0.4026	0.8942	0.6613	0.035
Mof_H 	H 	0.4137	0.9249	0.8893	0.041
Mof_H 	H 	0.444	0.9399	0.9199	0.08
Mof_H 	H 	0.5529	0.9393	0.8122	0.081
Mof_H 	H 	0.5195	0.9319	0.7804	0.037
Mof_H 	H 	0.4436	0.9385	0.0657	0.082
Mof_H 	H 	0.4118	0.9297	0.1401	0.042
Mof_H 	H 	0.4016	0.0376	0.2649	0.041
Mof_H 	H 	0.3649	0.1092	0.2649	0.074
Mof_H 	H 	0.406	0.8834	0.4111	0.076
Mof_H 	H 	0.3685	0.8865	0.4867	0.06
Mof_H 	H 	0.5191	0.7796	0.2904	0.057
Mof_H 	H 	0.5524	0.7067	0.2955	0.05
Mof_H 	H 	0.8881	0.2999	0.7684	0.044
Mof_H 	H 	0.8832	0.2666	0.7315	0.074
Mof_H 	H 	0.8799	0.3726	0.6319	0.078
Mof_H 	H 	0.8942	0.4026	0.6613	0.035
Mof_H 	H 	0.9249	0.4137	0.8893	0.041
Mof_H 	H 	0.9399	0.444	0.9199	0.08
Mof_H 	H 	0.9393	0.5529	0.8122	0.081
Mof_H 	H 	0.9319	0.5195	0.7804	0.037
Mof_H 	H 	0.9385	0.4436	0.0657	0.082
Mof_H 	H 	0.9297	0.4118	0.1401	0.042
Mof_H 	H 	0.0376	0.4016	0.2649	0.041
Mof_H 	H 	0.1092	0.3649	0.2649	0.074
Mof_H 	H 	0.8834	0.406	0.4111	0.076
Mof_H 	H 	0.8865	0.3685	0.4867	0.06
Mof_H 	H 	0.7796	0.5191	0.2904	0.057
Mof_H 	H 	0.7067	0.5524	0.2955	0.05
Mof_H 	H 	0.0436	0.8881	0.7684	0.044
Mof_H 	H 	0.1187	0.8832	0.7315	0.074
Mof_H 	H 	0.1156	0.8799	0.6319	0.078
Mof_H 	H 	0.0419	0.8942	0.6613	0.035
Mof_H 	H 	0.7721	0.9249	0.8893	0.041
Mof_H 	H 	0.6962	0.9399	0.9199	0.08
Mof_H 	H 	0.6956	0.9393	0.8122	0.081
Mof_H 	H 	0.7682	0.9319	0.7804	0.037
Mof_H 	H 	0.5522	0.9385	0.0657	0.082
Mof_H 	H 	0.5184	0.9297	0.1401	0.042
Mof_H 	H 	0.2959	0.0376	0.2649	0.041
Mof_H 	H 	0.261	0.1092	0.2649	0.074
Mof_H 	H 	0.2995	0.8834	0.4111	0.076
Mof_H 	H 	0.2583	0.8865	0.4867	0.06
Mof_H 	H 	0.4109	0.7796	0.2904	0.057
Mof_H 	H 	0.4454	0.7067	0.2955	0.05
Mof_H 	H 	0.2999	0.0436	0.7684	0.044
Mof_H 	H 	0.2666	0.1187	0.7315	0.074
Mof_H 	H 	0.3726	0.1156	0.6319	0.078
Mof_H 	H 	0.4026	0.0419	0.6613	0.035
Mof_H 	H 	0.4137	0.7721	0.8893	0.041
Mof_H 	H 	0.444	0.6962	0.9199	0.08
Mof_H 	H 	0.5529	0.6956	0.8122	0.081
Mof_H 	H 	0.5195	0.7682	0.7804	0.037
Mof_H 	H 	0.4436	0.5522	0.0657	0.082
Mof_H 	H 	0.4118	0.5184	0.1401	0.042
Mof_H 	H 	0.4016	0.2959	0.2649	0.04
Mof_H 	H 	0.3649	0.261	0.2649	0.074
Mof_H 	H 	0.406	0.2995	0.4111	0.076
Mof_H 	H 	0.3685	0.2583	0.4867	0.06
Mof_H 	H 	0.5191	0.4109	0.2904	0.057
Mof_H 	H 	0.5524	0.4454	0.2955	0.05
Mof_C 	C 	0.8953	0.9881	0.7447	0.366
Mof_C 	C 	0.8911	0.0332	0.7189	-0.113
Mof_C 	C 	0.8879	0.057	0.7399	0.022
Mof_C 	C 	0.8839	0.1042	0.7168	-0.081
Mof_C 	C 	0.8813	0.1279	0.6763	0.027
Mof_C 	C 	0.8834	0.102	0.6589	-0.09
Mof_C 	C 	0.8901	0.0564	0.6781	0.044
Mof_C 	C 	0.8762	0.1702	0.6622	0.12
Mof_C 	C 	0.8799	0.2246	0.6001	0.166
Mof_C 	C 	0.9214	0.8279	0.8101	0.376
Mof_C 	C 	0.9304	0.7759	0.8314	-0.082
Mof_C 	C 	0.9303	0.7559	0.8737	0.024
Mof_C 	C 	0.9389	0.711	0.8917	-0.097
Mof_C 	C 	0.9454	0.6894	0.8683	0.039
Mof_C 	C 	0.9393	0.7108	0.8257	-0.094
Mof_C 	C 	0.9337	0.7531	0.8083	0.028
Mof_C 	C 	0.9482	0.6455	0.8914	0.095
Mof_C 	C 	0.9482	0.5819	0.9487	0.233
Mof_C 	C 	0.937	0.5241	0.0807	-0.096
Mof_C 	C 	0.9316	0.5046	0.1239	0.025
Mof_C 	C 	0.0544	0.3101	0.2613	0.01
Mof_C 	C 	0.0959	0.2909	0.261	-0.087
Mof_C 	C 	0.8846	0.3139	0.4246	-0.064
Mof_C 	C 	0.8865	0.287	0.472	-0.035
Mof_C 	C 	0.7629	0.4388	0.2928	-0.02
Mof_C 	C 	0.7205	0.4604	0.2955	-0.015
Mof_C 	C 	0.9881	0.3719	0.7447	0.366
Mof_C 	C 	0.0332	0.3568	0.7189	-0.113
Mof_C 	C 	0.057	0.3152	0.7399	0.022
Mof_C 	C 	0.1042	0.2951	0.7168	-0.081
Mof_C 	C 	0.1279	0.3145	0.6763	0.027
Mof_C 	C 	0.102	0.3557	0.6589	-0.09
Mof_C 	C 	0.0564	0.3754	0.6781	0.044
Mof_C 	C 	0.1702	0.2914	0.6622	0.12
Mof_C 	C 	0.2246	0.2954	0.6001	0.166
Mof_C 	C 	0.8279	0.4406	0.8101	0.376
Mof_C 	C 	0.7759	0.4623	0.8314	-0.082
Mof_C 	C 	0.7559	0.4401	0.8737	0.024
Mof_C 	C 	0.711	0.4584	0.8917	-0.097
Mof_C 	C 	0.6894	0.4969	0.8683	0.039
Mof_C 	C 	0.7108	0.5242	0.8257	-0.094
Mof_C 	C 	0.7531	0.5049	0.8083	0.028
Mof_C 	C 	0.6455	0.5149	0.8914	0.095
Mof_C 	C 	0.5819	0.5212	0.9487	0.233
Mof_C 	C 	0.5241	0.4582	0.0807	-0.096
Mof_C 	C 	0.5046	0.4399	0.1239	0.025
Mof_C 	C 	0.3101	0.3742	0.2613	0.01
Mof_C 	C 	0.2909	0.3522	0.261	-0.087
Mof_C 	C 	0.3139	0.3769	0.4246	-0.064
Mof_C 	C 	0.287	0.3545	0.472	-0.035
Mof_C 	C 	0.4388	0.5055	0.2928	-0.02
Mof_C 	C 	0.4604	0.5236	0.2955	-0.015
Mof_C 	C 	0.3719	0.8953	0.7447	0.366
Mof_C 	C 	0.3568	0.8911	0.7189	-0.112
Mof_C 	C 	0.3152	0.8879	0.7399	0.022
Mof_C 	C 	0.2951	0.8839	0.7168	-0.081
Mof_C 	C 	0.3145	0.8813	0.6763	0.027
Mof_C 	C 	0.3557	0.8834	0.6589	-0.09
Mof_C 	C 	0.3754	0.8901	0.6781	0.044
Mof_C 	C 	0.2914	0.8762	0.6622	0.12
Mof_C 	C 	0.2954	0.8799	0.6001	0.166
Mof_C 	C 	0.4406	0.9214	0.8101	0.376
Mof_C 	C 	0.4623	0.9304	0.8314	-0.082
Mof_C 	C 	0.4401	0.9303	0.8737	0.024
Mof_C 	C 	0.4584	0.9389	0.8917	-0.097
Mof_C 	C 	0.4969	0.9454	0.8683	0.039
Mof_C 	C 	0.5242	0.9393	0.8257	-0.094
Mof_C 	C 	0.5049	0.9337	0.8083	0.028
Mof_C 	C 	0.5149	0.9482	0.8914	0.095
Mof_C 	C 	0.5212	0.9482	0.9487	0.233
Mof_C 	C 	0.4582	0.937	0.0807	-0.096
Mof_C 	C 	0.4399	0.9316	0.1239	0.025
Mof_C 	C 	0.3742	0.0544	0.2613	0.01
Mof_C 	C 	0.3522	0.0959	0.261	-0.087
Mof_C 	C 	0.3769	0.8846	0.4246	-0.064
Mof_C 	C 	0.3545	0.8865	0.472	-0.035
Mof_C 	C 	0.5055	0.7629	0.2928	-0.02
Mof_C 	C 	0.5236	0.7205	0.2955	-0.015
Mof_C 	C 	0.8953	0.3719	0.7447	0.366
Mof_C 	C 	0.8911	0.3568	0.7189	-0.112
Mof_C 	C 	0.8879	0.3152	0.7399	0.022
Mof_C 	C 	0.8839	0.2951	0.7168	-0.081
Mof_C 	C 	0.8813	0.3145	0.6763	0.027
Mof_C 	C 	0.8834	0.3557	0.6589	-0.09
Mof_C 	C 	0.8901	0.3754	0.6781	0.044
Mof_C 	C 	0.8762	0.2914	0.6622	0.12
Mof_C 	C 	0.8799	0.2954	0.6001	0.166
Mof_C 	C 	0.9214	0.4406	0.8101	0.376
Mof_C 	C 	0.9304	0.4623	0.8314	-0.082
Mof_C 	C 	0.9303	0.4401	0.8737	0.024
Mof_C 	C 	0.9389	0.4584	0.8917	-0.097
Mof_C 	C 	0.9454	0.4969	0.8683	0.039
Mof_C 	C 	0.9393	0.5242	0.8257	-0.094
Mof_C 	C 	0.9337	0.5049	0.8083	0.028
Mof_C 	C 	0.9482	0.5149	0.8914	0.095
Mof_C 	C 	0.9482	0.5212	0.9487	0.233
Mof_C 	C 	0.937	0.4582	0.0807	-0.096
Mof_C 	C 	0.9316	0.4399	0.1239	0.025
Mof_C 	C 	0.0544	0.3742	0.2613	0.01
Mof_C 	C 	0.0959	0.3522	0.261	-0.087
Mof_C 	C 	0.8846	0.3769	0.4246	-0.064
Mof_C 	C 	0.8865	0.3545	0.472	-0.035
Mof_C 	C 	0.7629	0.5055	0.2928	-0.02
Mof_C 	C 	0.7205	0.5236	0.2955	-0.015
Mof_C 	C 	0.9881	0.8953	0.7447	0.366
Mof_C 	C 	0.0332	0.8911	0.7189	-0.113
Mof_C 	C 	0.057	0.8879	0.7399	0.022
Mof_C 	C 	0.1042	0.8839	0.7168	-0.081
Mof_C 	C 	0.1279	0.8813	0.6763	0.027
Mof_C 	C 	0.102	0.8834	0.6589	-0.09
Mof_C 	C 	0.0564	0.8901	0.6781	0.044
Mof_C 	C 	0.1702	0.8762	0.6622	0.12
Mof_C 	C 	0.2246	0.8799	0.6001	0.166
Mof_C 	C 	0.8279	0.9214	0.8101	0.376
Mof_C 	C 	0.7759	0.9304	0.8314	-0.082
Mof_C 	C 	0.7559	0.9303	0.8737	0.024
Mof_C 	C 	0.711	0.9389	0.8917	-0.097
Mof_C 	C 	0.6894	0.9454	0.8683	0.039
Mof_C 	C 	0.7108	0.9393	0.8257	-0.094
Mof_C 	C 	0.7531	0.9337	0.8083	0.028
Mof_C 	C 	0.6455	0.9482	0.8914	0.095
Mof_C 	C 	0.5819	0.9482	0.9487	0.233
Mof_C 	C 	0.5241	0.937	0.0807	-0.096
Mof_C 	C 	0.5046	0.9316	0.1239	0.025
Mof_C 	C 	0.3101	0.0544	0.2613	0.01
Mof_C 	C 	0.2909	0.0959	0.261	-0.087
Mof_C 	C 	0.3139	0.8846	0.4246	-0.064
Mof_C 	C 	0.287	0.8865	0.472	-0.035
Mof_C 	C 	0.4388	0.7629	0.2928	-0.02
Mof_C 	C 	0.4604	0.7205	0.2955	-0.015
Mof_C 	C 	0.3719	0.9881	0.7447	0.366
Mof_C 	C 	0.3568	0.0332	0.7189	-0.113
Mof_C 	C 	0.3152	0.057	0.7399	0.022
Mof_C 	C 	0.2951	0.1042	0.7168	-0.081
Mof_C 	C 	0.3145	0.1279	0.6763	0.027
Mof_C 	C 	0.3557	0.102	0.6589	-0.09
Mof_C 	C 	0.3754	0.0564	0.6781	0.044
Mof_C 	C 	0.2914	0.1702	0.6622	0.12
Mof_C 	C 	0.2954	0.2246	0.6001	0.166
Mof_C 	C 	0.4406	0.8279	0.8101	0.376
Mof_C 	C 	0.4623	0.7759	0.8314	-0.082
Mof_C 	C 	0.4401	0.7559	0.8737	0.024
Mof_C 	C 	0.4584	0.711	0.8917	-0.097
Mof_C 	C 	0.4969	0.6894	0.8683	0.039
Mof_C 	C 	0.5242	0.7108	0.8257	-0.094
Mof_C 	C 	0.5049	0.7531	0.8083	0.028
Mof_C 	C 	0.5149	0.6455	0.8914	0.095
Mof_C 	C 	0.5212	0.5819	0.9487	0.233
Mof_C 	C 	0.4582	0.5241	0.0807	-0.096
Mof_C 	C 	0.4399	0.5046	0.1239	0.025
Mof_C 	C 	0.3742	0.3101	0.2613	0.01
Mof_C 	C 	0.3522	0.2909	0.261	-0.087
Mof_C 	C 	0.3769	0.3139	0.4246	-0.064
Mof_C 	C 	0.3545	0.287	0.472	-0.035
Mof_C 	C 	0.5055	0.4388	0.2928	-0.02
Mof_C 	C 	0.5236	0.4604	0.2955	-0.015
Mof_C 	C 	0.8784	0.23195	0.6577	0.197
Mof_C 	C 	0.908	0.3742	0.3436	0.194
Mof_C 	C 	0.8843	0.3577	0.4003	0.054
Mof_C 	C 	0.8881	0.31125	0.4894	-0.012
Mof_C 	C 	0.8797	0.29445	0.5314	0.119
Mof_C 	C 	0.23195	0.23195	0.6577	0.197
Mof_C 	C 	0.3742	0.3742	0.3436	0.194
Mof_C 	C 	0.3577	0.3577	0.4003	0.054
Mof_C 	C 	0.31125	0.31125	0.4894	-0.012
Mof_C 	C 	0.29445	0.29445	0.5314	0.119
Mof_C 	C 	0.23195	0.8784	0.6577	0.197
Mof_C 	C 	0.3742	0.908	0.3436	0.194
Mof_C 	C 	0.3577	0.8843	0.4003	0.054
Mof_C 	C 	0.31125	0.8881	0.4894	-0.012
Mof_C 	C 	0.29445	0.8797	0.5314	0.119
Mof_C 	C 	0.952	0.57965	0.8887	0.199
Mof_C 	C 	0.9486	0.5209	0.0096	0.119
Mof_C 	C 	0.94	0.49985	0.0603	0.045
Mof_C 	C 	0.9291	0.46465	0.1416	-0.074
Mof_C 	C 	0.9266	0.4398	0.1938	0.371
Mof_C 	C 	0.9951	0.3721	0.2607	0.214
Mof_C 	C 	0.0407	0.3517	0.2559	-0.064
Mof_C 	C 	0.1199	0.3124	0.2553	0.043
Mof_C 	C 	0.1717	0.2877	0.2529	0.111
Mof_C 	C 	0.8218	0.4448	0.2886	0.328
Mof_C 	C 	0.7768	0.4643	0.2946	-0.078
Mof_C 	C 	0.6934	0.5039	0.2988	-0.064
Mof_C 	C 	0.6524	0.5214	0.3048	0.2
Mof_C 	C 	0.57965	0.57965	0.8887	0.199
Mof_C 	C 	0.5209	0.5209	0.0096	0.119
Mof_C 	C 	0.49985	0.49985	0.0603	0.045
Mof_C 	C 	0.46465	0.46465	0.1416	-0.074
Mof_C 	C 	0.4398	0.4398	0.1938	0.371
Mof_C 	C 	0.3721	0.3721	0.2607	0.214
Mof_C 	C 	0.3517	0.3517	0.2559	-0.064
Mof_C 	C 	0.3124	0.3124	0.2553	0.043
Mof_C 	C 	0.2877	0.2877	0.2529	0.111
Mof_C 	C 	0.4448	0.4448	0.2886	0.328
Mof_C 	C 	0.4643	0.4643	0.2946	-0.078
Mof_C 	C 	0.5039	0.5039	0.2988	-0.064
Mof_C 	C 	0.5214	0.5214	0.3048	0.2
Mof_C 	C 	0.57965	0.952	0.8887	0.199
Mof_C 	C 	0.5209	0.9486	0.0096	0.119
Mof_C 	C 	0.49985	0.94	0.0603	0.045
Mof_C 	C 	0.46465	0.9291	0.1416	-0.074
Mof_C 	C 	0.4398	0.9266	0.1938	0.371
Mof_C 	C 	0.3721	0.9951	0.2607	0.214
Mof_C 	C 	0.3517	0.0407	0.2559	-0.064
Mof_C 	C 	0.3124	0.1199	0.2553	0.043
Mof_C 	C 	0.2877	0.1717	0.2529	0.111
Mof_C 	C 	0.4448	0.8218	0.2886	0.328
Mof_C 	C 	0.4643	0.7768	0.2946	-0.078
Mof_C 	C 	0.5039	0.6934	0.2988	-0.064
Mof_C 	C 	0.5214	0.6524	0.3048	0.2
Mof_C 	C 	0.22825	0.22825	0.2523	0.232
Mof_C 	C 	0.22825	0.2912	0.2523	0.232
Mof_C 	C 	0.2912	0.22825	0.2523	0.232
Mof_C 	C 	0.5875	0.5211	0.3039	0.191
Mof_C 	C 	0.5211	0.5875	0.3039	0.191
Mof_C 	C 	0.5875	0.5875	0.3039	0.191
Mof_N 	N 	0.8768	0.1915	0.6802	-0.156
Mof_N 	N 	0.875	0.185	0.622	-0.148
Mof_N 	N 	0.9473	0.6218	0.934	-0.155
Mof_N 	N 	0.9493	0.6218	0.8698	-0.141
Mof_N 	N 	0.9483	0.5617	0.9913	-0.152
Mof_N 	N 	0.1891	0.2465	0.2523	-0.164
Mof_N 	N 	0.8779	0.2524	0.5539	-0.129
Mof_N 	N 	0.6304	0.5067	0.3024	-0.166
Mof_N 	N 	0.1915	0.2515	0.6802	-0.156
Mof_N 	N 	0.185	0.318	0.622	-0.148
Mof_N 	N 	0.6218	0.4969	0.934	-0.155
Mof_N 	N 	0.6218	0.5591	0.8698	-0.141
Mof_N 	N 	0.5617	0.4987	0.9913	-0.152
Mof_N 	N 	0.2465	0.3121	0.2523	-0.164
Mof_N 	N 	0.2524	0.3158	0.5539	-0.129
Mof_N 	N 	0.5067	0.5605	0.3024	-0.166
Mof_N 	N 	0.2515	0.8768	0.6802	-0.156
Mof_N 	N 	0.318	0.875	0.622	-0.148
Mof_N 	N 	0.4969	0.9473	0.934	-0.155
Mof_N 	N 	0.5591	0.9493	0.8698	-0.141
Mof_N 	N 	0.4987	0.9483	0.9913	-0.152
Mof_N 	N 	0.3121	0.1891	0.2523	-0.164
Mof_N 	N 	0.3158	0.8779	0.5539	-0.129
Mof_N 	N 	0.5605	0.6304	0.3024	-0.166
Mof_N 	N 	0.8768	0.2515	0.6802	-0.156
Mof_N 	N 	0.875	0.318	0.622	-0.148
Mof_N 	N 	0.9473	0.4969	0.934	-0.155
Mof_N 	N 	0.9493	0.5591	0.8698	-0.141
Mof_N 	N 	0.9483	0.4987	0.9913	-0.152
Mof_N 	N 	0.1891	0.3121	0.2523	-0.164
Mof_N 	N 	0.8779	0.3158	0.5539	-0.129
Mof_N 	N 	0.6304	0.5605	0.3024	-0.166
Mof_N 	N 	0.1915	0.8768	0.6802	-0.156
Mof_N 	N 	0.185	0.875	0.622	-0.148
Mof_N 	N 	0.6218	0.9473	0.934	-0.155
Mof_N 	N 	0.6218	0.9493	0.8698	-0.141
Mof_N 	N 	0.5617	0.9483	0.9913	-0.152
Mof_N 	N 	0.2465	0.1891	0.2523	-0.164
Mof_N 	N 	0.2524	0.8779	0.5539	-0.129
Mof_N 	N 	0.5067	0.6304	0.3024	-0.166
Mof_N 	N 	0.2515	0.1915	0.6802	-0.156
Mof_N 	N 	0.318	0.185	0.622	-0.148
Mof_N 	N 	0.4969	0.6218	0.934	-0.155
Mof_N 	N 	0.5591	0.6218	0.8698	-0.141
Mof_N 	N 	0.4987	0.5617	0.9913	-0.152
Mof_N 	N 	0.3121	0.2465	0.2523	-0.164
Mof_N 	N 	0.3158	0.2524	0.5539	-0.129
Mof_N 	N 	0.5605	0.5067	0.3024	-0.166
Mof_N 	N 	0.8807	0.2521	0.6151	-0.177
Mof_N 	N 	0.2521	0.2521	0.6151	-0.177
Mof_N 	N 	0.2521	0.8807	0.6151	-0.177
Mof_N 	N 	0.9483	0.55975	0.9322	-0.232
Mof_N 	N 	0.55975	0.55975	0.9322	-0.232
Mof_N 	N 	0.55975	0.9483	0.9322	-0.232
Mof_N 	N 	0.24913	0.24913	0.25261	-0.221
Mof_N 	N 	0.56497	0.56497	0.30509	-0.168
Mof_O 	O 	0.8971	0.9709	0.7798	-0.433
Mof_O 	O 	0.89704	0.97094	0.71848	-0.378
Mof_O 	O 	0.918	0.845	0.7741	-0.428
Mof_O 	O 	0.9193	0.8456	0.8323	-0.412
Mof_O 	O 	0.9208	0.4041	0.2124	-0.402
Mof_O 	O 	0.9652	0.353	0.2664	-0.376
Mof_O 	O 	0.892	0.3523	0.3406	-0.341
Mof_O 	O 	0.8467	0.4061	0.2838	-0.383
Mof_O 	O 	0.9709	0.3522	0.7798	-0.433
Mof_O 	O 	0.97094	0.41354	0.71848	-0.378
Mof_O 	O 	0.845	0.4629	0.7741	-0.428
Mof_O 	O 	0.8456	0.4028	0.8323	-0.412
Mof_O 	O 	0.4041	0.4627	0.2124	-0.402
Mof_O 	O 	0.353	0.4154	0.2664	-0.376
Mof_O 	O 	0.3523	0.4151	0.3406	-0.341
Mof_O 	O 	0.4061	0.4634	0.2838	-0.383
Mof_O 	O 	0.3522	0.8971	0.7798	-0.433
Mof_O 	O 	0.41354	0.89704	0.71848	-0.378
Mof_O 	O 	0.4629	0.918	0.7741	-0.428
Mof_O 	O 	0.4028	0.9193	0.8323	-0.412
Mof_O 	O 	0.4627	0.9208	0.2124	-0.402
Mof_O 	O 	0.4154	0.9652	0.2664	-0.376
Mof_O 	O 	0.4151	0.892	0.3406	-0.341
Mof_O 	O 	0.4634	0.8467	0.2838	-0.383
Mof_O 	O 	0.8971	0.3522	0.7798	-0.433
Mof_O 	O 	0.89704	0.41354	0.71848	-0.378
Mof_O 	O 	0.918	0.4629	0.7741	-0.428
Mof_O 	O 	0.9193	0.4028	0.8323	-0.412
Mof_O 	O 	0.9208	0.4627	0.2124	-0.402
Mof_O 	O 	0.9652	0.4154	0.2664	-0.376
Mof_O 	O 	0.892	0.4151	0.3406	-0.341
Mof_O 	O 	0.8467	0.4634	0.2838	-0.383
Mof_O 	O 	0.9709	0.8971	0.7798	-0.433
Mof_O 	O 	0.97094	0.89704	0.71848	-0.378
Mof_O 	O 	0.845	0.918	0.7741	-0.428
Mof_O 	O 	0.8456	0.9193	0.8323	-0.412
Mof_O 	O 	0.4041	0.9208	0.2124	-0.402
Mof_O 	O 	0.353	0.9652	0.2664	-0.376
Mof_O 	O 	0.3523	0.892	0.3406	-0.341
Mof_O 	O 	0.4061	0.8467	0.2838	-0.383
Mof_O 	O 	0.3522	0.9709	0.7798	-0.433
Mof_O 	O 	0.41354	0.97094	0.71848	-0.378
Mof_O 	O 	0.4629	0.845	0.7741	-0.428
Mof_O 	O 	0.4028	0.8456	0.8323	-0.412
Mof_O 	O 	0.4627	0.4041	0.2124	-0.402
Mof_O 	O 	0.4154	0.353	0.2664	-0.376
Mof_O 	O 	0.4151	0.3523	0.3406	-0.341
Mof_O 	O 	0.4634	0.4061	0.2838	-0.383
Mof_Cu	Cu	0.09195	0.55671	0.72403	0.912
Mof_Cu	Cu	0.62731	0.09195	0.72403	0.912
Mof_Cu	Cu	0.55671	0.62731	0.72403	0.912
Mof_Cu	Cu	0.09195	0.62731	0.72403	0.912
Mof_Cu	Cu	0.62731	0.55671	0.72403	0.912
Mof_Cu	Cu	0.55671	0.09195	0.72403	0.912
Mof_Cu	Cu	0.09167	0.62667	0.18999	0.911
Mof_Cu	Cu	0.09292	0.55531	0.25885	0.901
Mof_Cu	Cu	0.09167	0.09167	0.18999	0.911
Mof_Cu	Cu	0.09292	0.09292	0.25885	0.901
Mof_Cu	Cu	0.62667	0.09167	0.18999	0.911
Mof_Cu	Cu	0.55531	0.09292	0.25885	0.901
Mof_H 	H 	0.1119	0.7001	0.2316	0.044
Mof_H 	H 	0.1168	0.7334	0.2685	0.074
Mof_H 	H 	0.1201	0.6274	0.3681	0.078
Mof_H 	H 	0.1058	0.5974	0.3387	0.035
Mof_H 	H 	0.0751	0.5863	0.1107	0.041
Mof_H 	H 	0.0601	0.556	0.0801	0.08
Mof_H 	H 	0.0607	0.4471	0.1878	0.081
Mof_H 	H 	0.0681	0.4805	0.2196	0.037
Mof_H 	H 	0.0615	0.5564	0.9343	0.082
Mof_H 	H 	0.0703	0.5882	0.8599	0.042
Mof_H 	H 	0.9624	0.5984	0.7351	0.041
Mof_H 	H 	0.8908	0.6351	0.7351	0.074
Mof_H 	H 	0.1166	0.594	0.5889	0.076
Mof_H 	H 	0.1135	0.6315	0.5133	0.06
Mof_H 	H 	0.2204	0.4809	0.7096	0.057
Mof_H 	H 	0.2933	0.4476	0.7045	0.05
Mof_H 	H 	0.9564	0.1119	0.2316	0.044
Mof_H 	H 	0.8813	0.1168	0.2685	0.074
Mof_H 	H 	0.8844	0.1201	0.3681	0.078
Mof_H 	H 	0.9581	0.1058	0.3387	0.035
Mof_H 	H 	0.2279	0.0751	0.1107	0.041
Mof_H 	H 	0.3038	0.0601	0.0801	0.08
Mof_H 	H 	0.3044	0.0607	0.1878	0.081
Mof_H 	H 	0.2318	0.0681	0.2196	0.037
Mof_H 	H 	0.4478	0.0615	0.9343	0.082
Mof_H 	H 	0.4816	0.0703	0.8599	0.042
Mof_H 	H 	0.7041	0.9624	0.7351	0.041
Mof_H 	H 	0.739	0.8908	0.7351	0.074
Mof_H 	H 	0.7005	0.1166	0.5889	0.076
Mof_H 	H 	0.7417	0.1135	0.5133	0.06
Mof_H 	H 	0.5891	0.2204	0.7096	0.057
Mof_H 	H 	0.5546	0.2933	0.7045	0.05
Mof_H 	H 	0.7001	0.9564	0.2316	0.044
Mof_H 	H 	0.7334	0.8813	0.2685	0.074
Mof_H 	H 	0.6274	0.8844	0.3681	0.078
Mof_H 	H 	0.5974	0.9581	0.3387	0.035
Mof_H 	H 	0.5863	0.2279	0.1107	0.041
Mof_H 	H 	0.556	0.3038	0.0801	0.08
Mof_H 	H 	0.4471	0.3044	0.1878	0.081
Mof_H 	H 	0.4805	0.2318	0.2196	0.037
Mof_H 	H 	0.5564	0.4478	0.9343	0.082
Mof_H 	H 	0.5882	0.4816	0.8599	0.042
Mof_H 	H 	0.5984	0.7041	0.7351	0.04
Mof_H 	H 	0.6351	0.739	0.7351	0.074
Mof_H 	H 	0.594	0.7005	0.5889	0.076
Mof_H 	H 	0.6315	0.7417	0.5133	0.06
Mof_H 	H 	0.4809	0.5891	0.7096	0.057
Mof_H 	H 	0.4476	0.5546	0.7045	0.05
Mof_H 	H 	0.1119	0.9564	0.2316	0.044
Mof_H 	H 	0.1168	0.8813	0.2685	0.074
Mof_H 	H 	0.1201	0.8844	0.3681	0.078
Mof_H 	H 	0.1058	0.9581	0.3387	0.035
Mof_H 	H 	0.0751	0.2279	0.1107	0.041
Mof_H 	H 	0.0601	0.3038	0.0801	0.08
Mof_H 	H 	0.0607	0.3044	0.1878	0.081
Mof_H 	H 	0.0681	0.2318	0.2196	0.037
Mof_H 	H 	0.0615	0.4478	0.9343	0.082
Mof_H 	H 	0.0703	0.4816	0.8599	0.042
Mof_H 	H 	0.9624	0.7041	0.7351	0.041
Mof_H 	H 	0.8908	0.739	0.7351	0.074
Mof_H 	H 	0.1166	0.7005	0.5889	0.076
Mof_H 	H 	0.1135	0.7417	0.5133	0.06
Mof_H 	H 	0.2204	0.5891	0.7096	0.057
Mof_H 	H 	0.2933	0.5546	0.7045	0.05
Mof_H 	H 	0.9564	0.7001	0.2316	0.044
Mof_H 	H 	0.8813	0.7334	0.2685	0.074
Mof_H 	H 	0.8844	0.6274	0.3681	0.078
Mof_H 	H 	0.9581	0.5974	0.3387	0.035
Mof_H 	H 	0.2279	0.5863	0.1107	0.041
Mof_H 	H 	0.3038	0.556	0.0801	0.08
Mof_H 	H 	0.3044	0.4471	0.1878	0.081
Mof_H 	H 	0.2318	0.4805	0.2196	0.037
Mof_H 	H 	0.4478	0.5564	0.9343	0.082
Mof_H 	H 	0.4816	0.5882	0.8599	0.042
Mof_H 	H 	0.7041	0.5984	0.7351	0.04
Mof_H 	H 	0.739	0.6351	0.7351	0.074
Mof_H 	H 	0.7005	0.594	0.5889	0.076
Mof_H 	H 	0.7417	0.6315	0.5133	0.06
Mof_H 	H 	0.5891	0.4809	0.7096	0.057
Mof_H 	H 	0.5546	0.4476	0.7045	0.05
Mof_H 	H 	0.7001	0.1119	0.2316	0.044
Mof_H 	H 	0.7334	0.1168	0.2685	0.074
Mof_H 	H 	0.6274	0.1201	0.3681	0.078
Mof_H 	H 	0.5974	0.1058	0.3387	0.035
Mof_H 	H 	0.5863	0.0751	0.1107	0.041
Mof_H 	H 	0.556	0.0601	0.0801	0.08
Mof_H 	H 	0.4471	0.0607	0.1878	0.081
Mof_H 	H 	0.4805	0.0681	0.2196	0.037
Mof_H 	H 	0.5564	0.0615	0.9343	0.082
Mof_H 	H 	0.5882	0.0703	0.8599	0.042
Mof_H 	H 	0.5984	0.9624	0.7351	0.041
Mof_H 	H 	0.6351	0.8908	0.7351	0.074
Mof_H 	H 	0.594	0.1166	0.5889	0.076
Mof_H 	H 	0.6315	0.1135	0.5133	0.06
Mof_H 	H 	0.4809	0.2204	0.7096	0.057
Mof_H 	H 	0.4476	0.2933	0.7045	0.05
Mof_C 	C 	0.1047	0.6281	0.2553	0.366
Mof_C 	C 	0.1089	0.6432	0.2811	-0.113
Mof_C 	C 	0.1121	0.6848	0.2601	0.022
Mof_C 	C 	0.1161	0.7049	0.2832	-0.081
Mof_C 	C 	0.1187	0.6855	0.3237	0.027
Mof_C 	C 	0.1166	0.6443	0.3411	-0.09
Mof_C 	C 	0.1099	0.6246	0.3219	0.044
Mof_C 	C 	0.1238	0.7086	0.3378	0.12
Mof_C 	C 	0.1201	0.7046	0.3999	0.166
Mof_C 	C 	0.0786	0.5594	0.1899	0.376
Mof_C 	C 	0.0696	0.5377	0.1686	-0.082
Mof_C 	C 	0.0697	0.5599	0.1263	0.024
Mof_C 	C 	0.0611	0.5416	0.1083	-0.097
Mof_C 	C 	0.0546	0.5031	0.1317	0.039
Mof_C 	C 	0.0607	0.4758	0.1743	-0.094
Mof_C 	C 	0.0663	0.4951	0.1917	0.028
Mof_C 	C 	0.0518	0.4851	0.1086	0.095
Mof_C 	C 	0.0518	0.4788	0.0513	0.233
Mof_C 	C 	0.063	0.5418	0.9193	-0.096
Mof_C 	C 	0.0684	0.5601	0.8761	0.025
Mof_C 	C 	0.9456	0.6258	0.7387	0.01
Mof_C 	C 	0.9041	0.6478	0.739	-0.087
Mof_C 	C 	0.1154	0.6231	0.5754	-0.064
Mof_C 	C 	0.1135	0.6455	0.528	-0.035
Mof_C 	C 	0.2371	0.4945	0.7072	-0.02
Mof_C 	C 	0.2795	0.4764	0.7045	-0.015
Mof_C 	C 	0.0119	0.1047	0.2553	0.366
Mof_C 	C 	0.9668	0.1089	0.2811	-0.113
Mof_C 	C 	0.943	0.1121	0.2601	0.022
Mof_C 	C 	0.8958	0.1161	0.2832	-0.081
Mof_C 	C 	0.8721	0.1187	0.3237	0.027
Mof_C 	C 	0.898	0.1166	0.3411	-0.09
Mof_C 	C 	0.9436	0.1099	0.3219	0.044
Mof_C 	C 	0.8298	0.1238	0.3378	0.12
Mof_C 	C 	0.7754	0.1201	0.3999	0.166
Mof_C 	C 	0.1721	0.0786	0.1899	0.376
Mof_C 	C 	0.2241	0.0696	0.1686	-0.082
Mof_C 	C 	0.2441	0.0697	0.1263	0.024
Mof_C 	C 	0.289	0.0611	0.1083	-0.097
Mof_C 	C 	0.3106	0.0546	0.1317	0.039
Mof_C 	C 	0.2892	0.0607	0.1743	-0.094
Mof_C 	C 	0.2469	0.0663	0.1917	0.028
Mof_C 	C 	0.3545	0.0518	0.1086	0.095
Mof_C 	C 	0.4181	0.0518	0.0513	0.233
Mof_C 	C 	0.4759	0.063	0.9193	-0.096
Mof_C 	C 	0.4954	0.0684	0.8761	0.025
Mof_C 	C 	0.6899	0.9456	0.7387	0.01
Mof_C 	C 	0.7091	0.9041	0.739	-0.087
Mof_C 	C 	0.6861	0.1154	0.5754	-0.064
Mof_C 	C 	0.713	0.1135	0.528	-0.035
Mof_C 	C 	0.5612	0.2371	0.7072	-0.02
Mof_C 	C 	0.5396	0.2795	0.7045	-0.015
Mof_C 	C 	0.6281	0.0119	0.2553	0.366
Mof_C 	C 	0.6432	0.9668	0.2811	-0.113
Mof_C 	C 	0.6848	0.943	0.2601	0.022
Mof_C 	C 	0.7049	0.8958	0.2832	-0.082
Mof_C 	C 	0.6855	0.8721	0.3237	0.027
Mof_C 	C 	0.6443	0.898	0.3411	-0.09
Mof_C 	C 	0.6246	0.9436	0.3219	0.044
Mof_C 	C 	0.7086	0.8298	0.3378	0.12
Mof_C 	C 	0.7046	0.7754	0.3999	0.166
Mof_C 	C 	0.5594	0.1721	0.1899	0.376
Mof_C 	C 	0.5377	0.2241	0.1686	-0.082
Mof_C 	C 	0.5599	0.2441	0.1263	0.024
Mof_C 	C 	0.5416	0.289	0.1083	-0.097
Mof_C 	C 	0.5031	0.3106	0.1317	0.039
Mof_C 	C 	0.4758	0.2892	0.1743	-0.094
Mof_C 	C 	0.4951	0.2469	0.1917	0.028
Mof_C 	C 	0.4851	0.3545	0.1086	0.095
Mof_C 	C 	0.4788	0.4181	0.0513	0.233
Mof_C 	C 	0.5418	0.4759	0.9193	-0.096
Mof_C 	C 	0.5601	0.4954	0.8761	0.025
Mof_C 	C 	0.6258	0.6899	0.7387	0.01
Mof_C 	C 	0.6478	0.7091	0.739	-0.087
Mof_C 	C 	0.6231	0.6861	0.5754	-0.064
Mof_C 	C 	0.6455	0.713	0.528	-0.035
Mof_C 	C 	0.4945	0.5612	0.7072	-0.02
Mof_C 	C 	0.4764	0.5396	0.7045	-0.015
Mof_C 	C 	0.1047	0.0119	0.2553	0.366
Mof_C 	C 	0.1089	0.9668	0.2811	-0.113
Mof_C 	C 	0.1121	0.943	0.2601	0.022
Mof_C 	C 	0.1161	0.8958	0.2832	-0.081
Mof_C 	C 	0.1187	0.8721	0.3237	0.027
Mof_C 	C 	0.1166	0.898	0.3411	-0.09
Mof_C 	C 	0.1099	0.9436	0.3219	0.044
Mof_C 	C 	0.1238	0.8298	0.3378	0.12
Mof_C 	C 	0.1201	0.7754	0.3999	0.166
Mof_C 	C 	0.0786	0.1721	0.1899	0.376
Mof_C 	C 	0.0696	0.2241	0.1686	-0.082
Mof_C 	C 	0.0697	0.2441	0.1263	0.024
Mof_C 	C 	0.0611	0.289	0.1083	-0.097
Mof_C 	C 	0.0546	0.3106	0.1317	0.039
Mof_C 	C 	0.0607	0.2892	0.1743	-0.094
Mof_C 	C 	0.0663	0.2469	0.1917	0.028
Mof_C 	C 	0.0518	0.3545	0.1086	0.095
Mof_C 	C 	0.0518	0.4181	0.0513	0.233
Mof_C 	C 	0.063	0.4759	0.9193	-0.096
Mof_C 	C 	0.0684	0.4954	0.8761	0.025
Mof_C 	C 	0.9456	0.6899	0.7387	0.01
Mof_C 	C 	0.9041	0.7091	0.739	-0.087
Mof_C 	C 	0.1154	0.6861	0.5754	-0.064
Mof_C 	C 	0.1135	0.713	0.528	-0.035
Mof_C 	C 	0.2371	0.5612	0.7072	-0.02
Mof_C 	C 	0.2795	0.5396	0.7045	-0.015
Mof_C 	C 	0.0119	0.6281	0.2553	0.366
Mof_C 	C 	0.9668	0.6432	0.2811	-0.113
Mof_C 	C 	0.943	0.6848	0.2601	0.022
Mof_C 	C 	0.8958	0.7049	0.2832	-0.082
Mof_C 	C 	0.8721	0.6855	0.3237	0.027
Mof_C 	C 	0.898	0.6443	0.3411	-0.09
Mof_C 	C 	0.9436	0.6246	0.3219	0.044
Mof_C 	C 	0.8298	0.7086	0.3378	0.12
Mof_C 	C 	0.7754	0.7046	0.3999	0.166
Mof_C 	C 	0.1721	0.5594	0.1899	0.376
Mof_C 	C 	0.2241	0.5377	0.1686	-0.082
Mof_C 	C 	0.2441	0.5599	0.1263	0.024
Mof_C 	C 	0.289	0.5416	0.1083	-0.097
Mof_C 	C 	0.3106	0.5031	0.1317	0.039
Mof_C 	C 	0.2892	0.4758	0.1743	-0.094
Mof_C 	C 	0.2469	0.4951	0.1917	0.028
Mof_C 	C 	0.3545	0.4851	0.1086	0.095
Mof_C 	C 	0.4181	0.4788	0.0513	0.233
Mof_C 	C 	0.4759	0.5418	0.9193	-0.096
Mof_C 	C 	0.4954	0.5601	0.8761	0.025
Mof_C 	C 	0.6899	0.6258	0.7387	0.01
Mof_C 	C 	0.7091	0.6478	0.739	-0.087
Mof_C 	C 	0.6861	0.6231	0.5754	-0.064
Mof_C 	C 	0.713	0.6455	0.528	-0.035
Mof_C 	C 	0.5612	0.4945	0.7072	-0.02
Mof_C 	C 	0.5396	0.4764	0.7045	-0.015
Mof_C 	C 	0.6281	0.1047	0.2553	0.366
Mof_C 	C 	0.6432	0.1089	0.2811	-0.113
Mof_C 	C 	0.6848	0.1121	0.2601	0.022
Mof_C 	C 	0.7049	0.1161	0.2832	-0.081
Mof_C 	C 	0.6855	0.1187	0.3237	0.027
Mof_C 	C 	0.6443	0.1166	0.3411	-0.09
Mof_C 	C 	0.6246	0.1099	0.3219	0.044
Mof_C 	C 	0.7086	0.1238	0.3378	0.12
Mof_C 	C 	0.7046	0.1201	0.3999	0.166
Mof_C 	C 	0.5594	0.0786	0.1899	0.376
Mof_C 	C 	0.5377	0.0696	0.1686	-0.082
Mof_C 	C 	0.5599	0.0697	0.1263	0.024
Mof_C 	C 	0.5416	0.0611	0.1083	-0.097
Mof_C 	C 	0.5031	0.0546	0.1317	0.039
Mof_C 	C 	0.4758	0.0607	0.1743	-0.094
Mof_C 	C 	0.4951	0.0663	0.1917	0.028
Mof_C 	C 	0.4851	0.0518	0.1086	0.095
Mof_C 	C 	0.4788	0.0518	0.0513	0.233
Mof_C 	C 	0.5418	0.063	0.9193	-0.096
Mof_C 	C 	0.5601	0.0684	0.8761	0.025
Mof_C 	C 	0.6258	0.9456	0.7387	0.01
Mof_C 	C 	0.6478	0.9041	0.739	-0.087
Mof_C 	C 	0.6231	0.1154	0.5754	-0.064
Mof_C 	C 	0.6455	0.1135	0.528	-0.035
Mof_C 	C 	0.4945	0.2371	0.7072	-0.02
Mof_C 	C 	0.4764	0.2795	0.7045	-0.015
Mof_C 	C 	0.1216	0.76805	0.3423	0.197
Mof_C 	C 	0.092	0.6258	0.6564	0.194
Mof_C 	C 	0.1157	0.6423	0.5997	0.054
Mof_C 	C 	0.1119	0.68875	0.5106	-0.012
Mof_C 	C 	0.1203	0.70555	0.4686	0.119
Mof_C 	C 	0.76805	0.1216	0.3423	0.197
Mof_C 	C 	0.6258	0.092	0.6564	0.194
Mof_C 	C 	0.6423	0.1157	0.5997	0.054
Mof_C 	C 	0.68875	0.1119	0.5106	-0.012
Mof_C 	C 	0.70555	0.1203	0.4686	0.119
Mof_C 	C 	0.76805	0.76805	0.3423	0.197
Mof_C 	C 	0.6258	0.6258	0.6564	0.194
Mof_C 	C 	0.6423	0.6423	0.5997	0.054
Mof_C 	C 	0.68875	0.68875	0.5106	-0.012
Mof_C 	C 	0.70555	0.70555	0.4686	0.119
Mof_C 	C 	0.048	0.42035	0.1113	0.199
Mof_C 	C 	0.0514	0.4791	0.9904	0.119
Mof_C 	C 	0.06	0.50015	0.9397	0.045
Mof_C 	C 	0.0709	0.53535	0.8584	-0.074
Mof_C 	C 	0.0734	0.5602	0.8062	0.371
Mof_C 	C 	0.0049	0.6279	0.7393	0.214
Mof_C 	C 	0.9593	0.6483	0.7441	-0.064
Mof_C 	C 	0.8801	0.6876	0.7447	0.043
Mof_C 	C 	0.8283	0.7123	0.7471	0.111
Mof_C 	C 	0.1782	0.5552	0.7114	0.328
Mof_C 	C 	0.2232	0.5357	0.7054	-0.078
Mof_C 	C 	0.3066	0.4961	0.7012	-0.064
Mof_C 	C 	0.3476	0.4786	0.6952	0.2
Mof_C 	C 	0.42035	0.048	0.1113	0.199
Mof_C 	C 	0.4791	0.0514	0.9904	0.119
Mof_C 	C 	0.50015	0.06	0.9397	0.045
Mof_C 	C 	0.53535	0.0709	0.8584	-0.074
Mof_C 	C 	0.5602	0.0734	0.8062	0.371
Mof_C 	C 	0.6279	0.0049	0.7393	0.214
Mof_C 	C 	0.6483	0.9593	0.7441	-0.064
Mof_C 	C 	0.6876	0.8801	0.7447	0.043
Mof_C 	C 	0.7123	0.8283	0.7471	0.111
Mof_C 	C 	0.5552	0.1782	0.7114	0.328
Mof_C 	C 	0.5357	0.2232	0.7054	-0.078
Mof_C 	C 	0.4961	0.3066	0.7012	-0.064
Mof_C 	C 	0.4786	0.3476	0.6952	0.2
Mof_C 	C 	0.42035	0.42035	0.1113	0.199
Mof_C 	C 	0.4791	0.4791	0.9904	0.119
Mof_C 	C 	0.50015	0.50015	0.9397	0.045
Mof_C 	C 	0.53535	0.53535	0.8584	-0.074
Mof_C 	C 	0.5602	0.5602	0.8062	0.371
Mof_C 	C 	0.6279	0.6279	0.7393	0.214
Mof_C 	C 	0.6483	0.6483	0.7441	-0.064
Mof_C 	C 	0.6876	0.6876	0.7447	0.043
Mof_C 	C 	0.7123	0.7123	0.7471	0.111
Mof_C 	C 	0.5552	0.5552	0.7114	0.328
Mof_C 	C 	0.5357	0.5357	0.7054	-0.078
Mof_C 	C 	0.4961	0.4961	0.7012	-0.064
Mof_C 	C 	0.4786	0.4786	0.6952	0.2
Mof_C 	C 	0.77175	0.7088	0.7477	0.232
Mof_C 	C 	0.77175	0.77175	0.7477	0.232
Mof_C 	C 	0.7088	0.77175	0.7477	0.232
Mof_C 	C 	0.4125	0.4125	0.6961	0.191
Mof_C 	C 	0.4789	0.4125	0.6961	0.191
Mof_C 	C 	0.4125	0.4789	0.6961	0.191
Mof_N 	N 	0.1232	0.7485	0.3198	-0.156
Mof_N 	N 	0.125	0.682	0.378	-0.148
Mof_N 	N 	0.0527	0.5031	0.066	-0.155
Mof_N 	N 	0.0507	0.4409	0.1302	-0.141
Mof_N 	N 	0.0517	0.5013	0.0087	-0.152
Mof_N 	N 	0.8109	0.6879	0.7477	-0.164
Mof_N 	N 	0.1221	0.6842	0.4461	-0.129
Mof_N 	N 	0.3696	0.4395	0.6976	-0.166
Mof_N 	N 	0.8085	0.1232	0.3198	-0.156
Mof_N 	N 	0.815	0.125	0.378	-0.148
Mof_N 	N 	0.3782	0.0527	0.066	-0.155
Mof_N 	N 	0.3782	0.0507	0.1302	-0.141
Mof_N 	N 	0.4383	0.0517	0.0087	-0.152
Mof_N 	N 	0.7535	0.8109	0.7477	-0.164
Mof_N 	N 	0.7476	0.1221	0.4461	-0.129
Mof_N 	N 	0.4933	0.3696	0.6976	-0.166
Mof_N 	N 	0.7485	0.8085	0.3198	-0.156
Mof_N 	N 	0.682	0.815	0.378	-0.148
Mof_N 	N 	0.5031	0.3782	0.066	-0.155
Mof_N 	N 	0.4409	0.3782	0.1302	-0.141
Mof_N 	N 	0.5013	0.4383	0.0087	-0.152
Mof_N 	N 	0.6879	0.7535	0.7477	-0.164
Mof_N 	N 	0.6842	0.7476	0.4461	-0.129
Mof_N 	N 	0.4395	0.4933	0.6976	-0.166
Mof_N 	N 	0.1232	0.8085	0.3198	-0.156
Mof_N 	N 	0.125	0.815	0.378	-0.148
Mof_N 	N 	0.0527	0.3782	0.066	-0.155
Mof_N 	N 	0.0507	0.3782	0.1302	-0.141
Mof_N 	N 	0.0517	0.4383	0.0087	-0.152
Mof_N 	N 	0.8109	0.7535	0.7477	-0.164
Mof_N 	N 	0.1221	0.7476	0.4461	-0.129
Mof_N 	N 	0.3696	0.4933	0.6976	-0.166
Mof_N 	N 	0.8085	0.7485	0.3198	-0.156
Mof_N 	N 	0.815	0.682	0.378	-0.148
Mof_N 	N 	0.3782	0.5031	0.066	-0.155
Mof_N 	N 	0.3782	0.4409	0.1302	-0.141
Mof_N 	N 	0.4383	0.5013	0.0087	-0.152
Mof_N 	N 	0.7535	0.6879	0.7477	-0.164
Mof_N 	N 	0.7476	0.6842	0.4461	-0.129
Mof_N 	N 	0.4933	0.4395	0.6976	-0.166
Mof_N 	N 	0.7485	0.1232	0.3198	-0.156
Mof_N 	N 	0.682	0.125	0.378	-0.148
Mof_N 	N 	0.5031	0.0527	0.066	-0.155
Mof_N 	N 	0.4409	0.0507	0.1302	-0.141
Mof_N 	N 	0.5013	0.0517	0.0087	-0.152
Mof_N 	N 	0.6879	0.8109	0.7477	-0.164
Mof_N 	N 	0.6842	0.1221	0.4461	-0.129
Mof_N 	N 	0.4395	0.3696	0.6976	-0.166
Mof_N 	N 	0.1193	0.7479	0.3849	-0.177
Mof_N 	N 	0.7479	0.1193	0.3849	-0.177
Mof_N 	N 	0.7479	0.7479	0.3849	-0.177
Mof_N 	N 	0.0517	0.44025	0.0678	-0.232
Mof_N 	N 	0.44025	0.0517	0.0678	-0.232
Mof_N 	N 	0.44025	0.44025	0.0678	-0.232
Mof_N 	N 	0.75087	0.75087	0.74739	-0.221
Mof_N 	N 	0.43503	0.43503	0.69491	-0.168
Mof_O 	O 	0.1029	0.6478	0.2202	-0.433
Mof_O 	O 	0.10296	0.58646	0.28152	-0.378
Mof_O 	O 	0.082	0.5371	0.2259	-0.428
Mof_O 	O 	0.0807	0.5972	0.1677	-0.412
Mof_O 	O 	0.0792	0.5373	0.7876	-0.402
Mof_O 	O 	0.0348	0.5846	0.7336	-0.376
Mof_O 	O 	0.108	0.5849	0.6594	-0.341
Mof_O 	O 	0.1533	0.5366	0.7162	-0.383
Mof_O 	O 	0.0291	0.1029	0.2202	-0.433
Mof_O 	O 	0.02906	0.10296	0.28152	-0.378
Mof_O 	O 	0.155	0.082	0.2259	-0.428
Mof_O 	O 	0.1544	0.0807	0.1677	-0.412
Mof_O 	O 	0.5959	0.0792	0.7876	-0.402
Mof_O 	O 	0.647	0.0348	0.7336	-0.376
Mof_O 	O 	0.6477	0.108	0.6594	-0.341
Mof_O 	O 	0.5939	0.1533	0.7162	-0.383
Mof_O 	O 	0.6478	0.0291	0.2202	-0.433
Mof_O 	O 	0.58646	0.02906	0.28152	-0.378
Mof_O 	O 	0.5371	0.155	0.2259	-0.428
Mof_O 	O 	0.5972	0.1544	0.1677	-0.412
Mof_O 	O 	0.5373	0.5959	0.7876	-0.402
Mof_O 	O 	0.5846	0.647	0.7336	-0.376
Mof_O 	O 	0.5849	0.6477	0.6594	-0.341
Mof_O 	O 	0.5366	0.5939	0.7162	-0.383
Mof_O 	O 	0.1029	0.0291	0.2202	-0.433
Mof_O 	O 	0.10296	0.02906	0.28152	-0.378
Mof_O 	O 	0.082	0.155	0.2259	-0.428
Mof_O 	O 	0.0807	0.1544	0.1677	-0.412
Mof_O 	O 	0.0792	0.5959	0.7876	-0.402
Mof_O 	O 	0.0348	0.647	0.7336	-0.376
Mof_O 	O 	0.108	0.6477	0.6594	-0.341
Mof_O 	O 	0.1533	0.5939	0.7162	-0.383
Mof_O 	O 	0.0291	0.6478	0.2202	-0.433
Mof_O 	O 	0.02906	0.58646	0.28152	-0.378
Mof_O 	O 	0.155	0.5371	0.2259	-0.428
Mof_O 	O 	0.1544	0.5972	0.1677	-0.412
Mof_O 	O 	0.5959	0.5373	0.7876	-0.402
Mof_O 	O 	0.647	0.5846	0.7336	-0.376
Mof_O 	O 	0.6477	0.5849	0.6594	-0.341
Mof_O 	O 	0.5939	0.5366	0.7162	-0.383
Mof_O 	O 	0.6478	0.1029	0.2202	-0.433
Mof_O 	O 	0.58646	0.10296	0.28152	-0.378
Mof_O 	O 	0.5371	0.082	0.2259	-0.428
Mof_O 	O 	0.5972	0.0807	0.1677	-0.412
Mof_O 	O 	0.5373	0.0792	0.7876	-0.402
Mof_O 	O 	0.5846	0.0348	0.7336	-0.376
Mof_O 	O 	0.5849	0.108	0.6594	-0.341
Mof_O 	O 	0.5366	0.1533	0.7162	-0.383
_end
