data_functionalizedCrystal
_audit_creation_method	'EQeq! by Chris Wilmer'
_symmetry_space_group_name_H-M	'P1'
_symmetry_Int_Tables_number	1
_symmetry_cell_setting	triclinic
loop_
_symmetry_equiv_pos_as_xyz
  x,y,z
_cell_length_a	9.7821
_cell_length_b	19.916
_cell_length_c	16.1047
_cell_angle_alpha	90
_cell_angle_beta	93.581
_cell_angle_gamma	90
loop_
_atom_site_label
_atom_site_type_symbol
_atom_site_fract_x
_atom_site_fract_y
_atom_site_fract_z
_atom_site_charge
Mof_N 	N 	0.4459	0.0897	0.4155	-0.186
Mof_N 	N 	0.9474	0.4125	0.9143	-0.154
Mof_O 	O 	0.1452	0.4306	0.0622	-0.386
Mof_O 	O 	0.3544	0.4745	0.0913	-0.37
Mof_O 	O 	0.6353	0.0681	0.5678	-0.375
Mof_O 	O 	0.8499	0.0301	0.5874	-0.371
Mof_C 	C 	0.2628	0.43	0.0969	0.371
Mof_C 	C 	0.299	0.3705	0.1514	-0.131
Mof_C 	C 	0.2528	0.3063	0.129	0.035
Mof_H 	H 	0.1974	0.3003	0.0789	0.005
Mof_C 	C 	0.2863	0.2516	0.1782	-0.109
Mof_H 	H 	0.259	0.208	0.1598	0.048
Mof_C 	C 	0.3598	0.2591	0.2546	0.027
Mof_C 	C 	0.4042	0.3228	0.277	-0.105
Mof_H 	H 	0.454	0.3293	0.3289	0.064
Mof_C 	C 	0.3778	0.3773	0.2254	0.042
Mof_H 	H 	0.4142	0.42	0.241	0.024
Mof_C 	C 	0.4233	0.0822	0.3329	0.076
Mof_H 	H 	0.4264	0.0382	0.3104	-0.015
Mof_C 	C 	0.3958	0.1351	0.2792	-0.137
Mof_H 	H 	0.3818	0.1269	0.2212	0.058
Mof_C 	C 	0.3883	0.2005	0.3097	0.05
Mof_C 	C 	0.4124	0.2076	0.3962	-0.134
Mof_H 	H 	0.4089	0.2508	0.421	0.071
Mof_C 	C 	0.4411	0.1522	0.4452	0.08
Mof_H 	H 	0.4585	0.1587	0.5033	0.007
Mof_C 	C 	0.7575	0.072	0.5961	0.364
Mof_C 	C 	0.7927	0.1339	0.6483	-0.074
Mof_C 	C 	0.6944	0.1822	0.6607	-0.01
Mof_H 	H 	0.6052	0.1777	0.6344	0.048
Mof_C 	C 	0.7253	0.2375	0.7117	-0.041
Mof_H 	H 	0.6564	0.27	0.72	0.045
Mof_C 	C 	0.855	0.2459	0.7503	-0.04
Mof_C 	C 	0.9553	0.1975	0.7338	0.025
Mof_H 	H 	0.0459	0.2025	0.7579	0.004
Mof_C 	C 	0.9239	0.1436	0.6835	-0.036
Mof_H 	H 	0.9935	0.1122	0.6726	0.071
Mof_C 	C 	0.8198	0.3922	0.8955	0.121
Mof_H 	H 	0.7475	0.4158	0.9192	0.015
Mof_C 	C 	0.7861	0.339	0.8436	-0.175
Mof_H 	H 	0.6929	0.3264	0.8333	0.097
Mof_C 	C 	0.8873	0.3039	0.8068	0.149
Mof_C 	C 	0.0211	0.325	0.8268	-0.207
Mof_H 	H 	0.0957	0.3025	0.8041	0.099
Mof_C 	C 	0.0446	0.3783	0.8792	0.095
Mof_H 	H 	0.1368	0.3917	0.8913	0.017
Mof_N 	N 	0.5541	0.5897	0.0845	-0.162
Mof_N 	N 	0.0526	0.9125	0.5857	-0.18
Mof_O 	O 	0.8548	0.9306	0.4378	-0.318
Mof_O 	O 	0.6456	0.9745	0.4087	-0.316
Mof_O 	O 	0.3647	0.5681	0.9322	-0.347
Mof_O 	O 	0.1501	0.5301	0.9126	-0.35
Mof_C 	C 	0.7372	0.93	0.4031	0.36
Mof_C 	C 	0.701	0.8705	0.3486	-0.108
Mof_C 	C 	0.7472	0.8063	0.371	0.033
Mof_H 	H 	0.8026	0.8003	0.4211	0.032
Mof_C 	C 	0.7137	0.7516	0.3218	-0.105
Mof_H 	H 	0.741	0.708	0.3402	0.066
Mof_C 	C 	0.6402	0.7591	0.2454	0.038
Mof_C 	C 	0.5958	0.8228	0.223	-0.102
Mof_H 	H 	0.546	0.8293	0.1711	0.062
Mof_C 	C 	0.6222	0.8773	0.2746	0.035
Mof_H 	H 	0.5858	0.92	0.259	0.038
Mof_C 	C 	0.5767	0.5822	0.1671	0.067
Mof_H 	H 	0.5736	0.5382	0.1896	0.015
Mof_C 	C 	0.6042	0.6351	0.2208	-0.111
Mof_H 	H 	0.6182	0.6269	0.2788	0.066
Mof_C 	C 	0.6117	0.7005	0.1903	0.02
Mof_C 	C 	0.5876	0.7076	0.1038	-0.063
Mof_H 	H 	0.5911	0.7508	0.079	0.036
Mof_C 	C 	0.5589	0.6522	0.0548	-0.058
Mof_H 	H 	0.5415	0.6587	0.9967	0.095
Mof_C 	C 	0.2425	0.572	0.9039	0.392
Mof_C 	C 	0.2073	0.6339	0.8517	-0.146
Mof_C 	C 	0.3056	0.6822	0.8393	0.07
Mof_H 	H 	0.3948	0.6777	0.8656	0.026
Mof_C 	C 	0.2747	0.7375	0.7883	-0.131
Mof_H 	H 	0.3436	0.77	0.78	0.081
Mof_C 	C 	0.145	0.7459	0.7497	0.084
Mof_C 	C 	0.0447	0.6975	0.7662	-0.197
Mof_H 	H 	0.9541	0.7025	0.7421	0.121
Mof_C 	C 	0.0761	0.6436	0.8165	0.097
Mof_H 	H 	0.0065	0.6122	0.8274	0.007
Mof_C 	C 	0.1802	0.8922	0.6045	0.074
Mof_H 	H 	0.2525	0.9158	0.5808	0.031
Mof_C 	C 	0.2139	0.839	0.6564	-0.105
Mof_H 	H 	0.3071	0.8264	0.6667	0.071
Mof_C 	C 	0.1127	0.8039	0.6932	0.007
Mof_C 	C 	0.9789	0.825	0.6732	-0.081
Mof_H 	H 	0.9043	0.8025	0.6959	0.067
Mof_C 	C 	0.9554	0.8783	0.6208	0.109
Mof_H 	H 	0.8632	0.8917	0.6087	0.02
Mof_N 	N 	0.5541	0.9103	0.5845	-0.166
Mof_N 	N 	0.0526	0.5875	0.0857	-0.205
Mof_O 	O 	0.8548	0.5694	0.9378	-0.314
Mof_O 	O 	0.6456	0.5255	0.9087	-0.337
Mof_O 	O 	0.3647	0.9319	0.4322	-0.346
Mof_O 	O 	0.1501	0.9699	0.4126	-0.333
Mof_C 	C 	0.7372	0.57	0.9031	0.362
Mof_C 	C 	0.701	0.6295	0.8486	-0.106
Mof_C 	C 	0.7472	0.6937	0.871	0.029
Mof_H 	H 	0.8026	0.6997	0.9211	0.049
Mof_C 	C 	0.7137	0.7484	0.8218	-0.094
Mof_H 	H 	0.741	0.792	0.8402	0.073
Mof_C 	C 	0.6402	0.7409	0.7454	0.024
Mof_C 	C 	0.5958	0.6772	0.723	-0.095
Mof_H 	H 	0.546	0.6707	0.6711	0.06
Mof_C 	C 	0.6222	0.6227	0.7746	0.032
Mof_H 	H 	0.5858	0.58	0.759	0.03
Mof_C 	C 	0.5767	0.9178	0.6671	0.088
Mof_H 	H 	0.5736	0.9618	0.6896	0.036
Mof_C 	C 	0.6042	0.8649	0.7208	-0.132
Mof_H 	H 	0.6182	0.8731	0.7788	0.087
Mof_C 	C 	0.6117	0.7995	0.6903	0.057
Mof_C 	C 	0.5876	0.7924	0.6038	-0.135
Mof_H 	H 	0.5911	0.7492	0.579	0.073
Mof_C 	C 	0.5589	0.8478	0.5548	0.082
Mof_H 	H 	0.5415	0.8413	0.4967	0.009
Mof_C 	C 	0.2425	0.928	0.4039	0.385
Mof_C 	C 	0.2073	0.8661	0.3517	-0.144
Mof_C 	C 	0.3056	0.8178	0.3393	0.063
Mof_H 	H 	0.3948	0.8223	0.3656	0.024
Mof_C 	C 	0.2747	0.7625	0.2883	-0.132
Mof_H 	H 	0.3436	0.73	0.28	0.075
Mof_C 	C 	0.145	0.7541	0.2497	0.077
Mof_C 	C 	0.0447	0.8025	0.2662	-0.197
Mof_H 	H 	0.9541	0.7975	0.2421	0.119
Mof_C 	C 	0.0761	0.8564	0.3165	0.091
Mof_H 	H 	0.0065	0.8878	0.3274	0.011
Mof_C 	C 	0.1802	0.6078	0.1045	0.067
Mof_H 	H 	0.2525	0.5842	0.0808	0.006
Mof_C 	C 	0.2139	0.661	0.1564	-0.116
Mof_H 	H 	0.3071	0.6736	0.1667	0.07
Mof_C 	C 	0.1127	0.6961	0.1932	0.003
Mof_C 	C 	0.9789	0.675	0.1732	-0.088
Mof_H 	H 	0.9043	0.6975	0.1959	0.065
Mof_C 	C 	0.9554	0.6217	0.1208	0.102
Mof_H 	H 	0.8632	0.6083	0.1087	0.004
Mof_N 	N 	0.4459	0.4103	0.9155	-0.192
Mof_N 	N 	0.9474	0.0875	0.4143	-0.176
Mof_O 	O 	0.1452	0.0694	0.5622	-0.38
Mof_O 	O 	0.3544	0.0255	0.5913	-0.388
Mof_O 	O 	0.6353	0.4319	0.0678	-0.378
Mof_O 	O 	0.8499	0.4699	0.0874	-0.358
Mof_C 	C 	0.2628	0.07	0.5969	0.371
Mof_C 	C 	0.299	0.1295	0.6514	-0.127
Mof_C 	C 	0.2528	0.1937	0.629	0.03
Mof_H 	H 	0.1974	0.1997	0.5789	0.022
Mof_C 	C 	0.2863	0.2484	0.6782	-0.097
Mof_H 	H 	0.259	0.292	0.6598	0.055
Mof_C 	C 	0.3598	0.2409	0.7546	0.013
Mof_C 	C 	0.4042	0.1772	0.777	-0.097
Mof_H 	H 	0.454	0.1707	0.8289	0.062
Mof_C 	C 	0.3778	0.1227	0.7254	0.037
Mof_H 	H 	0.4142	0.08	0.741	0.016
Mof_C 	C 	0.4233	0.4178	0.8329	0.098
Mof_H 	H 	0.4264	0.4618	0.8104	0.006
Mof_C 	C 	0.3958	0.3649	0.7792	-0.159
Mof_H 	H 	0.3818	0.3731	0.7212	0.079
Mof_C 	C 	0.3883	0.2995	0.8097	0.087
Mof_C 	C 	0.4124	0.2924	0.8962	-0.206
Mof_H 	H 	0.4089	0.2492	0.921	0.109
Mof_C 	C 	0.4411	0.3478	0.9452	0.221
Mof_H 	H 	0.4585	0.3413	0.0033	-0.079
Mof_C 	C 	0.7575	0.428	0.0961	0.358
Mof_C 	C 	0.7927	0.3661	0.1483	-0.072
Mof_C 	C 	0.6944	0.3178	0.1607	-0.018
Mof_H 	H 	0.6052	0.3223	0.1344	0.046
Mof_C 	C 	0.7253	0.2625	0.2117	-0.04
Mof_H 	H 	0.6564	0.23	0.22	0.039
Mof_C 	C 	0.855	0.2541	0.2503	-0.049
Mof_C 	C 	0.9553	0.3025	0.2338	0.03
Mof_H 	H 	0.0459	0.2975	0.2579	0.001
Mof_C 	C 	0.9239	0.3564	0.1835	-0.044
Mof_H 	H 	0.9935	0.3878	0.1726	0.076
Mof_C 	C 	0.8198	0.1078	0.3955	0.115
Mof_H 	H 	0.7475	0.0842	0.4192	-0.008
Mof_C 	C 	0.7861	0.161	0.3436	-0.187
Mof_H 	H 	0.6929	0.1736	0.3333	0.096
Mof_C 	C 	0.8873	0.1961	0.3068	0.149
Mof_C 	C 	0.0211	0.175	0.3268	-0.217
Mof_H 	H 	0.0957	0.1975	0.3041	0.097
Mof_C 	C 	0.0446	0.1217	0.3792	0.085
Mof_H 	H 	0.1368	0.1083	0.3913	0.001
Mof_Mn	Mn	0.5	0	0.5	0.839
Mof_Mn	Mn	0.5	0.5	-0	0.848
Mof_Mn	Mn	-0	0.5	-0	0.796
Mof_Mn	Mn	3.27918e-33	0	0.5	0.785
_end
