data_functionalizedCrystal
_audit_creation_method	'EQeq! by Chris Wilmer'
_symmetry_space_group_name_H-M	'P1'
_symmetry_Int_Tables_number	1
_symmetry_cell_setting	triclinic
loop_
_symmetry_equiv_pos_as_xyz
  x,y,z
_cell_length_a	12.8
_cell_length_b	12.8
_cell_length_c	9.984
_cell_angle_alpha	90
_cell_angle_beta	90
_cell_angle_gamma	90
loop_
_atom_site_label
_atom_site_type_symbol
_atom_site_fract_x
_atom_site_fract_y
_atom_site_fract_z
_atom_site_charge
Mof_C 	C 	0.7518	0.694	0.0363	-0.035
Mof_H 	H 	0.7332	0.6671	0.1195	0
Mof_C 	C 	0.7008	0.7818	0.992	-0.044
Mof_H 	H 	0.6497	0.8128	0.045	-0.001
Mof_C 	C 	0.7256	0.8246	0.8675	0.073
Mof_C 	C 	0.8044	0.7753	0.7961	-0.156
Mof_H 	H 	0.8242	0.8004	0.7124	0.061
Mof_C 	C 	0.8526	0.6896	0.8494	0.065
Mof_H 	H 	0.9073	0.6599	0.8013	-0.032
Mof_C 	C 	0.6816	0.9259	0.8216	-0.129
Mof_H 	H 	0.709	0.9405	0.733	0.044
Mof_H 	H 	0.7068	0.9803	0.8809	0.048
Mof_C 	C 	0.5154	0.8645	0.714	-0.033
Mof_H 	H 	0.5657	0.8118	0.6836	0.033
Mof_C 	C 	0.4191	0.8094	0.7762	-0.433
Mof_H 	H 	0.4421	0.7551	0.8356	0.147
Mof_H 	H 	0.3772	0.7797	0.7062	0.145
Mof_H 	H 	0.3784	0.8594	0.8254	0.131
Mof_C 	C 	0.478	0.9289	0.5943	0.298
Mof_N 	N 	0.8261	0.645	0.968	-0.241
Mof_N 	N 	0.5655	0.9329	0.8156	-0.268
Mof_H 	H 	0.5416	0.9115	0.8959	0.112
Mof_O 	O 	0.478	0.0261	0.5996	-0.474
Mof_O 	O 	0.4455	0.8753	0.4954	-0.454
Mof_Zn	Zn	0.90972	0.51723	0.04161	1.156
Mof_C 	C 	0.2482	0.306	0.5363	0.096
Mof_H 	H 	0.2668	0.3329	0.6195	-0.042
Mof_C 	C 	0.2992	0.2182	0.492	-0.203
Mof_H 	H 	0.3503	0.1872	0.545	0.072
Mof_C 	C 	0.2744	0.1754	0.3675	0.143
Mof_C 	C 	0.1956	0.2247	0.2961	-0.211
Mof_H 	H 	0.1758	0.1996	0.2124	0.075
Mof_C 	C 	0.1474	0.3104	0.3494	0.093
Mof_H 	H 	0.0927	0.3401	0.3013	-0.046
Mof_C 	C 	0.3184	0.0741	0.3216	-0.173
Mof_H 	H 	0.291	0.0595	0.233	0.054
Mof_H 	H 	0.2932	0.0197	0.3809	0.057
Mof_C 	C 	0.4846	0.1355	0.214	-0.032
Mof_H 	H 	0.4343	0.1882	0.1836	0.028
Mof_C 	C 	0.5809	0.1906	0.2762	-0.419
Mof_H 	H 	0.5579	0.2449	0.3356	0.137
Mof_H 	H 	0.6228	0.2203	0.2062	0.135
Mof_H 	H 	0.6216	0.1406	0.3254	0.122
Mof_C 	C 	0.522	0.0711	0.0943	0.272
Mof_N 	N 	0.1739	0.355	0.468	-0.285
Mof_N 	N 	0.4345	0.0671	0.3156	-0.261
Mof_H 	H 	0.4584	0.0885	0.3959	0.103
Mof_O 	O 	0.522	0.9739	0.0996	-0.475
Mof_O 	O 	0.5545	0.1247	0.9954	-0.429
Mof_Zn	Zn	0.09028	0.48277	0.54161	1.165
Mof_C 	C 	0.306	0.7518	0.2863	0.11
Mof_H 	H 	0.3329	0.7332	0.3695	-0.047
Mof_C 	C 	0.2182	0.7008	0.242	-0.228
Mof_H 	H 	0.1872	0.6497	0.295	0.079
Mof_C 	C 	0.1754	0.7256	0.1175	0.18
Mof_C 	C 	0.2247	0.8044	0.0461	-0.276
Mof_H 	H 	0.1996	0.8242	0.9624	0.113
Mof_C 	C 	0.3104	0.8526	0.0994	0.125
Mof_H 	H 	0.3401	0.9073	0.0513	-0.061
Mof_C 	C 	0.0741	0.6816	0.0716	-0.224
Mof_H 	H 	0.0595	0.709	0.983	0.08
Mof_H 	H 	0.0197	0.7068	0.1309	0.07
Mof_C 	C 	0.1355	0.5154	0.964	0.03
Mof_H 	H 	0.1882	0.5657	0.9336	0.018
Mof_C 	C 	0.1906	0.4191	0.0262	-0.57
Mof_H 	H 	0.2449	0.4421	0.0856	0.178
Mof_H 	H 	0.2203	0.3772	0.9562	0.197
Mof_H 	H 	0.1406	0.3784	0.0754	0.163
Mof_C 	C 	0.0711	0.478	0.8443	0.275
Mof_N 	N 	0.355	0.8261	0.218	-0.294
Mof_N 	N 	0.0671	0.5655	0.0656	-0.27
Mof_H 	H 	0.0885	0.5416	0.1459	0.104
Mof_O 	O 	0.9739	0.478	0.8496	-0.46
Mof_O 	O 	0.1247	0.4455	0.7454	-0.447
Mof_Zn	Zn	0.48277	0.90972	0.29161	1.165
Mof_C 	C 	0.694	0.2482	0.7863	0.098
Mof_H 	H 	0.6671	0.2668	0.8695	-0.038
Mof_C 	C 	0.7818	0.2992	0.742	-0.202
Mof_H 	H 	0.8128	0.3503	0.795	0.074
Mof_C 	C 	0.8246	0.2744	0.6175	0.145
Mof_C 	C 	0.7753	0.1956	0.5461	-0.21
Mof_H 	H 	0.8004	0.1758	0.4624	0.078
Mof_C 	C 	0.6896	0.1474	0.5994	0.096
Mof_H 	H 	0.6599	0.0927	0.5513	-0.044
Mof_C 	C 	0.9259	0.3184	0.5716	-0.174
Mof_H 	H 	0.9405	0.291	0.483	0.055
Mof_H 	H 	0.9803	0.2932	0.6309	0.059
Mof_C 	C 	0.8645	0.4846	0.464	-0.04
Mof_H 	H 	0.8118	0.4343	0.4336	0.033
Mof_C 	C 	0.8094	0.5809	0.5262	-0.417
Mof_H 	H 	0.7551	0.5579	0.5856	0.138
Mof_H 	H 	0.7797	0.6228	0.4562	0.138
Mof_H 	H 	0.8594	0.6216	0.5754	0.122
Mof_C 	C 	0.9289	0.522	0.3443	0.297
Mof_N 	N 	0.645	0.1739	0.718	-0.284
Mof_N 	N 	0.9329	0.4345	0.5656	-0.26
Mof_H 	H 	0.9115	0.4584	0.6459	0.104
Mof_O 	O 	0.0261	0.522	0.3496	-0.474
Mof_O 	O 	0.8753	0.5545	0.2454	-0.46
Mof_Zn	Zn	0.51723	0.09028	0.79161	1.167
_end
