data_functionalizedCrystal
_audit_creation_method	'EQeq! by Chris Wilmer'
_symmetry_space_group_name_H-M	'P1'
_symmetry_Int_Tables_number	1
_symmetry_cell_setting	triclinic
loop_
_symmetry_equiv_pos_as_xyz
  x,y,z
_cell_length_a	19.0949
_cell_length_b	22.7667
_cell_length_c	13.3952
_cell_angle_alpha	90
_cell_angle_beta	113.185
_cell_angle_gamma	90
loop_
_atom_site_label
_atom_site_type_symbol
_atom_site_fract_x
_atom_site_fract_y
_atom_site_fract_z
_atom_site_charge
Mof_Cu	Cu	0.49585	0.76335	0.55696	0.904
Mof_N 	N 	0.4674	0.67755	0.5449	-0.21
Mof_N 	N 	0.40514	0.76713	0.4159	-0.21
Mof_N 	N 	0.57436	0.93534	0.8045	-0.204
Mof_O 	O 	0.51142	0.84794	0.5652	-0.446
Mof_O 	O 	0.62055	0.84719	0.5407	-0.309
Mof_O 	O 	0.57906	0.74621	0.6937	-0.446
Mof_O 	O 	0.57967	0.81169	0.8185	-0.468
Mof_C 	C 	0.5011	0.63365	0.6111	0.048
Mof_H 	H 	0.5417	0.642	0.6775	0.016
Mof_C 	C 	0.4787	0.5757	0.5859	-0.082
Mof_H 	H 	0.5033	0.5456	0.6353	0.054
Mof_C 	C 	0.4213	0.5625	0.4901	-0.037
Mof_H 	H 	0.406	0.5233	0.4731	0.039
Mof_C 	C 	0.3847	0.6073	0.4165	0.002
Mof_C 	C 	0.324	0.5997	0.3134	-0.043
Mof_H 	H 	0.3058	0.5615	0.2911	0.043
Mof_C 	C 	0.2921	0.6443	0.2474	-0.072
Mof_H 	H 	0.2526	0.6369	0.1796	0.07
Mof_C 	C 	0.3167	0.7038	0.2774	0.026
Mof_C 	C 	0.2862	0.7539	0.2144	-0.048
Mof_H 	H 	0.2468	0.7499	0.1453	0.056
Mof_C 	C 	0.3133	0.808	0.2527	-0.07
Mof_H 	H 	0.2918	0.8417	0.2114	0.052
Mof_C 	C 	0.3735	0.8131	0.3542	0.042
Mof_H 	H 	0.3923	0.8508	0.3798	0.016
Mof_C 	C 	0.3768	0.713	0.3789	0.014
Mof_C 	C 	0.4101	0.66493	0.4486	0.024
Mof_C 	C 	0.6491	0.93375	0.8613	0.043
Mof_H 	H 	0.6737	0.8972	0.8787	0.021
Mof_C 	C 	0.692	0.9849	0.896	-0.073
Mof_H 	H 	0.7448	0.9823	0.9368	0.052
Mof_C 	C 	0.6585	0.0382	0.8714	-0.045
Mof_H 	H 	0.6875	0.0725	0.8953	0.048
Mof_C 	C 	0.5801	0.04172	0.8099	0.015
Mof_C 	C 	0.5379	0.0958	0.7788	-0.055
Mof_H 	H 	0.5637	0.1318	0.799	0.054
Mof_C 	C 	0.5404	0.98872	0.7795	0.023
Mof_C 	C 	0.5678	0.87288	0.5522	0.377
Mof_C 	C 	0.5657	0.93778	0.5472	-0.232
Mof_H 	H 	0.6122	0.9583	0.5729	0.118
Mof_C 	C 	0.5017	0.96852	0.5085	0.028
Mof_H 	H 	0.4555	0.9482	0.4908	0.031
Mof_C 	C 	0.6055	0.76806	0.7868	0.438
Mof_C 	C 	0.6736	0.73914	0.8674	-0.263
Mof_H 	H 	0.6871	0.7017	0.851	0.129
Mof_C 	C 	0.7163	0.76331	0.961	0.037
Mof_H 	H 	0.7018	0.8003	0.9777	0.027
Mof_Cu	Cu	0.99585	0.26335	0.55696	0.912
Mof_N 	N 	0.9674	0.17755	0.5449	-0.186
Mof_N 	N 	0.90514	0.26713	0.4159	-0.21
Mof_N 	N 	0.07436	0.43534	0.8045	-0.199
Mof_O 	O 	0.01142	0.34794	0.5652	-0.449
Mof_O 	O 	0.12055	0.34719	0.5407	-0.305
Mof_O 	O 	0.07906	0.24621	0.6937	-0.451
Mof_O 	O 	0.07967	0.31169	0.8185	-0.471
Mof_C 	C 	0.0011	0.13365	0.6111	-0.028
Mof_H 	H 	0.0417	0.142	0.6775	0.038
Mof_C 	C 	0.9787	0.0757	0.5859	0.019
Mof_H 	H 	0.0033	0.0456	0.6353	0.009
Mof_C 	C 	0.9213	0.0625	0.4901	-0.097
Mof_H 	H 	0.906	0.0233	0.4731	0.062
Mof_C 	C 	0.8847	0.1073	0.4165	0.035
Mof_C 	C 	0.824	0.0997	0.3134	-0.066
Mof_H 	H 	0.8058	0.0615	0.2911	0.05
Mof_C 	C 	0.7921	0.1443	0.2474	-0.056
Mof_H 	H 	0.7526	0.1369	0.1796	0.065
Mof_C 	C 	0.8167	0.2038	0.2774	0.017
Mof_C 	C 	0.7862	0.2539	0.2144	-0.041
Mof_H 	H 	0.7468	0.2499	0.1453	0.054
Mof_C 	C 	0.8133	0.308	0.2527	-0.074
Mof_H 	H 	0.7918	0.3417	0.2114	0.054
Mof_C 	C 	0.8735	0.3131	0.3542	0.046
Mof_H 	H 	0.8923	0.3508	0.3798	0.016
Mof_C 	C 	0.8768	0.213	0.3789	0.023
Mof_C 	C 	0.9101	0.16493	0.4486	0.01
Mof_C 	C 	0.1491	0.43375	0.8613	0.036
Mof_H 	H 	0.1737	0.3972	0.8787	0.023
Mof_C 	C 	0.192	0.4849	0.896	-0.061
Mof_H 	H 	0.2448	0.4823	0.9368	0.047
Mof_C 	C 	0.1585	0.5382	0.8714	-0.063
Mof_H 	H 	0.1875	0.5725	0.8953	0.054
Mof_C 	C 	0.0801	0.54172	0.8099	0.042
Mof_C 	C 	0.0379	0.5958	0.7788	-0.106
Mof_H 	H 	0.0637	0.6318	0.799	0.068
Mof_C 	C 	0.0404	0.48872	0.7795	-0.006
Mof_C 	C 	0.0678	0.37288	0.5522	0.355
Mof_C 	C 	0.0657	0.43778	0.5472	-0.174
Mof_H 	H 	0.1122	0.4583	0.5729	0.098
Mof_C 	C 	0.0017	0.46852	0.5085	-0.078
Mof_H 	H 	0.9555	0.4482	0.4908	0.074
Mof_C 	C 	0.1055	0.26806	0.7868	0.437
Mof_C 	C 	0.1736	0.23914	0.8674	-0.261
Mof_H 	H 	0.1871	0.2017	0.851	0.128
Mof_C 	C 	0.2163	0.26331	0.961	0.032
Mof_H 	H 	0.2018	0.3003	0.9777	0.028
Mof_Cu	Cu	0.50415	0.76335	0.94304	0.904
Mof_N 	N 	0.5326	0.67755	0.9551	-0.211
Mof_N 	N 	0.59486	0.76713	0.0841	-0.209
Mof_N 	N 	0.42564	0.93534	0.6955	-0.203
Mof_O 	O 	0.48858	0.84794	0.9348	-0.446
Mof_O 	O 	0.37945	0.84719	0.9593	-0.309
Mof_O 	O 	0.42094	0.74621	0.8063	-0.446
Mof_O 	O 	0.42033	0.81169	0.6815	-0.468
Mof_C 	C 	0.4989	0.63365	0.8889	0.05
Mof_H 	H 	0.4583	0.642	0.8225	0.015
Mof_C 	C 	0.5213	0.5757	0.9141	-0.087
Mof_H 	H 	0.4967	0.5456	0.8647	0.055
Mof_C 	C 	0.5787	0.5625	0.0099	-0.031
Mof_H 	H 	0.594	0.5233	0.0269	0.037
Mof_C 	C 	0.6153	0.6073	0.0835	-0.001
Mof_C 	C 	0.676	0.5997	0.1866	-0.04
Mof_H 	H 	0.6942	0.5615	0.2089	0.041
Mof_C 	C 	0.7079	0.6443	0.2526	-0.074
Mof_H 	H 	0.7474	0.6369	0.3204	0.071
Mof_C 	C 	0.6833	0.7038	0.2226	0.028
Mof_C 	C 	0.7138	0.7539	0.2856	-0.049
Mof_H 	H 	0.7532	0.7499	0.3547	0.057
Mof_C 	C 	0.6867	0.808	0.2473	-0.069
Mof_H 	H 	0.7082	0.8417	0.2886	0.052
Mof_C 	C 	0.6265	0.8131	0.1458	0.041
Mof_H 	H 	0.6077	0.8508	0.1202	0.017
Mof_C 	C 	0.6232	0.713	0.1211	0.012
Mof_C 	C 	0.5899	0.66493	0.0514	0.027
Mof_C 	C 	0.3509	0.93375	0.6387	0.044
Mof_H 	H 	0.3263	0.8972	0.6213	0.02
Mof_C 	C 	0.308	0.9849	0.604	-0.073
Mof_H 	H 	0.2552	0.9823	0.5632	0.052
Mof_C 	C 	0.3415	0.0382	0.6286	-0.045
Mof_H 	H 	0.3125	0.0725	0.6047	0.048
Mof_C 	C 	0.4199	0.04172	0.6901	0.015
Mof_C 	C 	0.4621	0.0958	0.7212	-0.054
Mof_H 	H 	0.4363	0.1318	0.701	0.054
Mof_C 	C 	0.4596	0.98872	0.7205	0.024
Mof_C 	C 	0.4322	0.87288	0.9478	0.374
Mof_C 	C 	0.4343	0.93778	0.9528	-0.224
Mof_H 	H 	0.3878	0.9583	0.9271	0.115
Mof_C 	C 	0.4983	0.96852	0.9915	0.014
Mof_H 	H 	0.5445	0.9482	0.0092	0.037
Mof_C 	C 	0.3945	0.76806	0.7132	0.438
Mof_C 	C 	0.3264	0.73914	0.6326	-0.264
Mof_H 	H 	0.3129	0.7017	0.649	0.13
Mof_C 	C 	0.2837	0.76331	0.539	0.039
Mof_H 	H 	0.2982	0.8003	0.5223	0.027
Mof_Cu	Cu	0.00415	0.26335	0.94304	0.897
Mof_N 	N 	0.0326	0.17755	0.9551	-0.238
Mof_N 	N 	0.09486	0.26713	0.0841	-0.207
Mof_N 	N 	0.92564	0.43534	0.6955	-0.205
Mof_O 	O 	0.98858	0.34794	0.9348	-0.44
Mof_O 	O 	0.87945	0.34719	0.9593	-0.312
Mof_O 	O 	0.92094	0.24621	0.8063	-0.439
Mof_O 	O 	0.92033	0.31169	0.6815	-0.461
Mof_C 	C 	0.9989	0.13365	0.8889	0.137
Mof_H 	H 	0.9583	0.142	0.8225	-0.011
Mof_C 	C 	0.0213	0.0757	0.9141	-0.202
Mof_H 	H 	0.9967	0.0456	0.8647	0.106
Mof_C 	C 	0.0787	0.0625	0.0099	0.041
Mof_H 	H 	0.094	0.0233	0.0269	0.011
Mof_C 	C 	0.1153	0.1073	0.0835	-0.041
Mof_C 	C 	0.176	0.0997	0.1866	-0.014
Mof_H 	H 	0.1942	0.0615	0.2089	0.032
Mof_C 	C 	0.2079	0.1443	0.2526	-0.093
Mof_H 	H 	0.2474	0.1369	0.3204	0.077
Mof_C 	C 	0.1833	0.2038	0.2226	0.039
Mof_C 	C 	0.2138	0.2539	0.2856	-0.057
Mof_H 	H 	0.2532	0.2499	0.3547	0.059
Mof_C 	C 	0.1867	0.308	0.2473	-0.064
Mof_H 	H 	0.2082	0.3417	0.2886	0.049
Mof_C 	C 	0.1265	0.3131	0.1458	0.037
Mof_H 	H 	0.1077	0.3508	0.1202	0.017
Mof_C 	C 	0.1232	0.213	0.1211	0.002
Mof_C 	C 	0.0899	0.16493	0.0514	0.047
Mof_C 	C 	0.8509	0.43375	0.6387	0.051
Mof_H 	H 	0.8263	0.3972	0.6213	0.018
Mof_C 	C 	0.808	0.4849	0.604	-0.087
Mof_H 	H 	0.7552	0.4823	0.5632	0.056
Mof_C 	C 	0.8415	0.5382	0.6286	-0.025
Mof_H 	H 	0.8125	0.5725	0.6047	0.041
Mof_C 	C 	0.9199	0.54172	0.6901	-0.012
Mof_C 	C 	0.9621	0.5958	0.7212	-0.003
Mof_H 	H 	0.9363	0.6318	0.701	0.04
Mof_C 	C 	0.9596	0.48872	0.7205	0.054
Mof_C 	C 	0.9322	0.37288	0.9478	0.395
Mof_C 	C 	0.9343	0.43778	0.9528	-0.28
Mof_H 	H 	0.8878	0.4583	0.9271	0.134
Mof_C 	C 	0.9983	0.46852	0.9915	0.117
Mof_H 	H 	0.0445	0.4482	0.0092	-0.005
Mof_C 	C 	0.8945	0.26806	0.7132	0.436
Mof_C 	C 	0.8264	0.23914	0.6326	-0.262
Mof_H 	H 	0.8129	0.2017	0.649	0.13
Mof_C 	C 	0.7837	0.26331	0.539	0.038
Mof_H 	H 	0.7982	0.3003	0.5223	0.027
Mof_Cu	Cu	0.50415	0.23665	0.44304	0.905
Mof_N 	N 	0.5326	0.32245	0.4551	-0.209
Mof_N 	N 	0.59486	0.23287	0.5841	-0.209
Mof_N 	N 	0.42564	0.06466	0.1955	-0.203
Mof_O 	O 	0.48858	0.15206	0.4348	-0.446
Mof_O 	O 	0.37945	0.15281	0.4593	-0.309
Mof_O 	O 	0.42094	0.25379	0.3063	-0.446
Mof_O 	O 	0.42033	0.18831	0.1815	-0.468
Mof_C 	C 	0.4989	0.36635	0.3889	0.048
Mof_H 	H 	0.4583	0.358	0.3225	0.016
Mof_C 	C 	0.5213	0.4243	0.4141	-0.082
Mof_H 	H 	0.4967	0.4544	0.3647	0.054
Mof_C 	C 	0.5787	0.4375	0.5099	-0.037
Mof_H 	H 	0.594	0.4767	0.5269	0.039
Mof_C 	C 	0.6153	0.3927	0.5835	0.001
Mof_C 	C 	0.676	0.4003	0.6866	-0.043
Mof_H 	H 	0.6942	0.4385	0.7089	0.042
Mof_C 	C 	0.7079	0.3557	0.7526	-0.072
Mof_H 	H 	0.7474	0.3631	0.8204	0.07
Mof_C 	C 	0.6833	0.2962	0.7226	0.026
Mof_C 	C 	0.7138	0.2461	0.7856	-0.049
Mof_H 	H 	0.7532	0.2501	0.8547	0.057
Mof_C 	C 	0.6867	0.192	0.7473	-0.069
Mof_H 	H 	0.7082	0.1583	0.7886	0.052
Mof_C 	C 	0.6265	0.1869	0.6458	0.042
Mof_H 	H 	0.6077	0.1492	0.6202	0.016
Mof_C 	C 	0.6232	0.287	0.6211	0.013
Mof_C 	C 	0.5899	0.33507	0.5514	0.024
Mof_C 	C 	0.3509	0.06625	0.1387	0.044
Mof_H 	H 	0.3263	0.1028	0.1213	0.021
Mof_C 	C 	0.308	0.0151	0.104	-0.074
Mof_H 	H 	0.2552	0.0177	0.0632	0.052
Mof_C 	C 	0.3415	0.9618	0.1286	-0.044
Mof_H 	H 	0.3125	0.9275	0.1047	0.048
Mof_C 	C 	0.4199	0.95828	0.1901	0.016
Mof_C 	C 	0.4621	0.9042	0.2212	-0.054
Mof_H 	H 	0.4363	0.8682	0.201	0.054
Mof_C 	C 	0.4596	0.01128	0.2205	0.023
Mof_C 	C 	0.4322	0.12712	0.4478	0.377
Mof_C 	C 	0.4343	0.06222	0.4528	-0.231
Mof_H 	H 	0.3878	0.0417	0.4271	0.117
Mof_C 	C 	0.4983	0.03148	0.4915	0.027
Mof_H 	H 	0.5445	0.0518	0.5092	0.031
Mof_C 	C 	0.3945	0.23194	0.2132	0.44
Mof_C 	C 	0.3264	0.26086	0.1326	-0.268
Mof_H 	H 	0.3129	0.2983	0.149	0.132
Mof_C 	C 	0.2837	0.23669	0.039	0.047
Mof_H 	H 	0.2982	0.1997	0.0223	0.025
Mof_Cu	Cu	0.00415	0.73665	0.44304	0.899
Mof_N 	N 	0.0326	0.82245	0.4551	-0.232
Mof_N 	N 	0.09486	0.73287	0.5841	-0.209
Mof_N 	N 	0.92564	0.56466	0.1955	-0.205
Mof_O 	O 	0.98858	0.65206	0.4348	-0.441
Mof_O 	O 	0.87945	0.65281	0.4593	-0.313
Mof_O 	O 	0.92094	0.75379	0.3063	-0.44
Mof_O 	O 	0.92033	0.68831	0.1815	-0.462
Mof_C 	C 	0.9989	0.86635	0.3889	0.123
Mof_H 	H 	0.9583	0.858	0.3225	-0.006
Mof_C 	C 	0.0213	0.9243	0.4141	-0.178
Mof_H 	H 	0.9967	0.9544	0.3647	0.097
Mof_C 	C 	0.0787	0.9375	0.5099	0.021
Mof_H 	H 	0.094	0.9767	0.5269	0.017
Mof_C 	C 	0.1153	0.8927	0.5835	-0.031
Mof_C 	C 	0.176	0.9003	0.6866	-0.021
Mof_H 	H 	0.1942	0.9385	0.7089	0.034
Mof_C 	C 	0.2079	0.8557	0.7526	-0.088
Mof_H 	H 	0.2474	0.8631	0.8204	0.074
Mof_C 	C 	0.1833	0.7962	0.7226	0.035
Mof_C 	C 	0.2138	0.7461	0.7856	-0.055
Mof_H 	H 	0.2532	0.7501	0.8547	0.058
Mof_C 	C 	0.1867	0.692	0.7473	-0.066
Mof_H 	H 	0.2082	0.6583	0.7886	0.05
Mof_C 	C 	0.1265	0.6869	0.6458	0.038
Mof_H 	H 	0.1077	0.6492	0.6202	0.016
Mof_C 	C 	0.1232	0.787	0.6211	0.005
Mof_C 	C 	0.0899	0.83507	0.5514	0.039
Mof_C 	C 	0.8509	0.56625	0.1387	0.05
Mof_H 	H 	0.8263	0.6028	0.1213	0.019
Mof_C 	C 	0.808	0.5151	0.104	-0.085
Mof_H 	H 	0.7552	0.5177	0.0632	0.056
Mof_C 	C 	0.8415	0.4618	0.1286	-0.028
Mof_H 	H 	0.8125	0.4275	0.1047	0.042
Mof_C 	C 	0.9199	0.45828	0.1901	-0.008
Mof_C 	C 	0.9621	0.4042	0.2212	-0.009
Mof_H 	H 	0.9363	0.3682	0.201	0.042
Mof_C 	C 	0.9596	0.51128	0.2205	0.05
Mof_C 	C 	0.9322	0.62712	0.4478	0.399
Mof_C 	C 	0.9343	0.56222	0.4528	-0.29
Mof_H 	H 	0.8878	0.5417	0.4271	0.137
Mof_C 	C 	0.9983	0.53148	0.4915	0.135
Mof_H 	H 	0.0445	0.5518	0.5092	-0.012
Mof_C 	C 	0.8945	0.73194	0.2132	0.437
Mof_C 	C 	0.8264	0.76086	0.1326	-0.264
Mof_H 	H 	0.8129	0.7983	0.149	0.131
Mof_C 	C 	0.7837	0.73669	0.039	0.041
Mof_H 	H 	0.7982	0.6997	0.0223	0.027
Mof_Cu	Cu	0.49585	0.23665	0.05696	0.905
Mof_N 	N 	0.4674	0.32245	0.0449	-0.207
Mof_N 	N 	0.40514	0.23287	0.9159	-0.21
Mof_N 	N 	0.57436	0.06466	0.3045	-0.203
Mof_O 	O 	0.51142	0.15206	0.0652	-0.446
Mof_O 	O 	0.62055	0.15281	0.0407	-0.309
Mof_O 	O 	0.57906	0.25379	0.1937	-0.446
Mof_O 	O 	0.57967	0.18831	0.3185	-0.468
Mof_C 	C 	0.5011	0.36635	0.1111	0.045
Mof_H 	H 	0.5417	0.358	0.1775	0.017
Mof_C 	C 	0.4787	0.4243	0.0859	-0.074
Mof_H 	H 	0.5033	0.4544	0.1353	0.052
Mof_C 	C 	0.4213	0.4375	0.9901	-0.044
Mof_H 	H 	0.406	0.4767	0.9731	0.041
Mof_C 	C 	0.3847	0.3927	0.9165	0.006
Mof_C 	C 	0.324	0.4003	0.8134	-0.046
Mof_H 	H 	0.3058	0.4385	0.7911	0.043
Mof_C 	C 	0.2921	0.3557	0.7474	-0.07
Mof_H 	H 	0.2526	0.3631	0.6796	0.069
Mof_C 	C 	0.3167	0.2962	0.7774	0.024
Mof_C 	C 	0.2862	0.2461	0.7144	-0.047
Mof_H 	H 	0.2468	0.2501	0.6453	0.055
Mof_C 	C 	0.3133	0.192	0.7527	-0.071
Mof_H 	H 	0.2918	0.1583	0.7114	0.052
Mof_C 	C 	0.3735	0.1869	0.8542	0.042
Mof_H 	H 	0.3923	0.1492	0.8798	0.016
Mof_C 	C 	0.3768	0.287	0.8789	0.015
Mof_C 	C 	0.4101	0.33507	0.9486	0.02
Mof_C 	C 	0.6491	0.06625	0.3613	0.044
Mof_H 	H 	0.6737	0.1028	0.3787	0.02
Mof_C 	C 	0.692	0.0151	0.396	-0.075
Mof_H 	H 	0.7448	0.0177	0.4368	0.052
Mof_C 	C 	0.6585	0.9618	0.3714	-0.044
Mof_H 	H 	0.6875	0.9275	0.3953	0.048
Mof_C 	C 	0.5801	0.95828	0.3099	0.016
Mof_C 	C 	0.5379	0.9042	0.2788	-0.054
Mof_H 	H 	0.5637	0.8682	0.299	0.054
Mof_C 	C 	0.5404	0.01128	0.2795	0.023
Mof_C 	C 	0.5678	0.12712	0.0522	0.38
Mof_C 	C 	0.5657	0.06222	0.0472	-0.239
Mof_H 	H 	0.6122	0.0417	0.0729	0.12
Mof_C 	C 	0.5017	0.03148	0.0085	0.042
Mof_H 	H 	0.4555	0.0518	0.9908	0.025
Mof_C 	C 	0.6055	0.23194	0.2868	0.438
Mof_C 	C 	0.6736	0.26086	0.3674	-0.265
Mof_H 	H 	0.6871	0.2983	0.351	0.13
Mof_C 	C 	0.7163	0.23669	0.461	0.04
Mof_H 	H 	0.7018	0.1997	0.4777	0.027
Mof_Cu	Cu	0.99585	0.73665	0.05696	0.911
Mof_N 	N 	0.9674	0.82245	0.0449	-0.189
Mof_N 	N 	0.90514	0.73287	0.9159	-0.21
Mof_N 	N 	0.07436	0.56466	0.3045	-0.199
Mof_O 	O 	0.01142	0.65206	0.0652	-0.449
Mof_O 	O 	0.12055	0.65281	0.0407	-0.305
Mof_O 	O 	0.07906	0.75379	0.1937	-0.451
Mof_O 	O 	0.07967	0.68831	0.3185	-0.471
Mof_C 	C 	0.0011	0.86635	0.1111	-0.018
Mof_H 	H 	0.0417	0.858	0.1775	0.035
Mof_C 	C 	0.9787	0.9243	0.0859	0.006
Mof_H 	H 	0.0033	0.9544	0.1353	0.016
Mof_C 	C 	0.9213	0.9375	0.9901	-0.089
Mof_H 	H 	0.906	0.9767	0.9731	0.059
Mof_C 	C 	0.8847	0.8927	0.9165	0.031
Mof_C 	C 	0.824	0.9003	0.8134	-0.063
Mof_H 	H 	0.8058	0.9385	0.7911	0.049
Mof_C 	C 	0.7921	0.8557	0.7474	-0.058
Mof_H 	H 	0.7526	0.8631	0.6796	0.065
Mof_C 	C 	0.8167	0.7962	0.7774	0.018
Mof_C 	C 	0.7862	0.7461	0.7144	-0.042
Mof_H 	H 	0.7468	0.7501	0.6453	0.055
Mof_C 	C 	0.8133	0.692	0.7527	-0.073
Mof_H 	H 	0.7918	0.6583	0.7114	0.053
Mof_C 	C 	0.8735	0.6869	0.8542	0.045
Mof_H 	H 	0.8923	0.6492	0.8798	0.016
Mof_C 	C 	0.8768	0.787	0.8789	0.022
Mof_C 	C 	0.9101	0.83507	0.9486	0.012
Mof_C 	C 	0.1491	0.56625	0.3613	0.038
Mof_H 	H 	0.1737	0.6028	0.3787	0.022
Mof_C 	C 	0.192	0.5151	0.396	-0.062
Mof_H 	H 	0.2448	0.5177	0.4368	0.048
Mof_C 	C 	0.1585	0.4618	0.3714	-0.06
Mof_H 	H 	0.1875	0.4275	0.3953	0.054
Mof_C 	C 	0.0801	0.45828	0.3099	0.039
Mof_C 	C 	0.0379	0.4042	0.2788	-0.098
Mof_H 	H 	0.0637	0.3682	0.299	0.066
Mof_C 	C 	0.0404	0.51128	0.2795	-0.002
Mof_C 	C 	0.0678	0.62712	0.0522	0.358
Mof_C 	C 	0.0657	0.56222	0.0472	-0.183
Mof_H 	H 	0.1122	0.5417	0.0729	0.102
Mof_C 	C 	0.0017	0.53148	0.0085	-0.06
Mof_H 	H 	0.9555	0.5518	0.9908	0.067
Mof_C 	C 	0.1055	0.73194	0.2868	0.439
Mof_C 	C 	0.1736	0.76086	0.3674	-0.265
Mof_H 	H 	0.1871	0.7983	0.351	0.13
Mof_C 	C 	0.2163	0.73669	0.461	0.04
Mof_H 	H 	0.2018	0.6997	0.4777	0.027
Mof_Cu	Cu	0.5	0.86874	0.75	0.917
Mof_Cu	Cu	-4.24762e-17	0.36874	0.75	0.911
Mof_Cu	Cu	0.5	0.13126	0.25	0.917
Mof_Cu	Cu	9.16438e-34	0.63126	0.25	0.912
_end
