data_functionalizedCrystal
_audit_creation_method	'EQeq! by Chris Wilmer'
_symmetry_space_group_name_H-M	'P1'
_symmetry_Int_Tables_number	1
_symmetry_cell_setting	triclinic
loop_
_symmetry_equiv_pos_as_xyz
  x,y,z
_cell_length_a	44.9918
_cell_length_b	44.9918
_cell_length_c	44.9918
_cell_angle_alpha	60
_cell_angle_beta	60
_cell_angle_gamma	60
loop_
_atom_site_label
_atom_site_type_symbol
_atom_site_fract_x
_atom_site_fract_y
_atom_site_fract_z
_atom_site_charge
Mof_Co	Co	0.75	0.75	0.99283	1.12
Mof_Co	Co	0.25	0.25	0.50717	1.12
Mof_Co	Co	0.49283	0.50717	0.25	1.12
Mof_Co	Co	0.00717	0.99283	0.75	1.12
Mof_Co	Co	0.75	0.99283	0.50717	1.121
Mof_Co	Co	0.25	0.50717	0.99283	1.121
Mof_Co	Co	0.49283	0.25	0.75	1.121
Mof_Co	Co	0.00717	0.75	0.25	1.121
Mof_Co	Co	0.75	0.50717	0.75	1.121
Mof_Co	Co	0.25	0.99283	0.25	1.121
Mof_Co	Co	0.49283	0.75	0.50717	1.121
Mof_Co	Co	0.00717	0.25	0.99283	1.121
Mof_Co	Co	0.25	0.25	0.00717	1.121
Mof_Co	Co	0.75	0.75	0.49283	1.121
Mof_Co	Co	0.50717	0.49283	0.75	1.121
Mof_Co	Co	0.99283	0.00717	0.25	1.121
Mof_Co	Co	0.25	0.00717	0.49283	1.121
Mof_Co	Co	0.75	0.49283	0.00717	1.121
Mof_Co	Co	0.50717	0.75	0.25	1.121
Mof_Co	Co	0.99283	0.25	0.75	1.121
Mof_Co	Co	0.25	0.49283	0.25	1.121
Mof_Co	Co	0.75	0.00717	0.75	1.121
Mof_Co	Co	0.50717	0.25	0.49283	1.121
Mof_Co	Co	0.99283	0.75	0.00717	1.121
Mof_Co	Co	0.74761	0.50239	0.24761	1.124
Mof_Co	Co	0.00239	0.24761	0.50239	1.124
Mof_Co	Co	0.74761	0.24761	0.50239	1.124
Mof_Co	Co	0.00239	0.50239	0.24761	1.124
Mof_Co	Co	0.74761	0.50239	0.50239	1.124
Mof_Co	Co	0.00239	0.24761	0.24761	1.124
Mof_Co	Co	0.49761	0.25239	0.25239	1.124
Mof_Co	Co	0.75239	0.99761	0.99761	1.124
Mof_Co	Co	0.75239	0.25239	0.99761	1.124
Mof_Co	Co	0.49761	0.99761	0.25239	1.124
Mof_Co	Co	0.49761	0.25239	0.99761	1.124
Mof_Co	Co	0.75239	0.99761	0.25239	1.124
Mof_Co	Co	0.25239	0.49761	0.75239	1.124
Mof_Co	Co	0.99761	0.75239	0.49761	1.124
Mof_Co	Co	0.25239	0.75239	0.49761	1.124
Mof_Co	Co	0.99761	0.49761	0.75239	1.124
Mof_Co	Co	0.25239	0.49761	0.49761	1.124
Mof_Co	Co	0.99761	0.75239	0.75239	1.124
Mof_Co	Co	0.50239	0.74761	0.74761	1.124
Mof_Co	Co	0.24761	0.00239	0.00239	1.124
Mof_Co	Co	0.24761	0.74761	0.00239	1.124
Mof_Co	Co	0.50239	0.00239	0.74761	1.124
Mof_Co	Co	0.50239	0.74761	0.00239	1.124
Mof_Co	Co	0.24761	0.00239	0.74761	1.124
Mof_H 	H 	0.587	0.7262	0.2098	0.013
Mof_H 	H 	0.6478	0.6382	0.2694	0.038
Mof_H 	H 	0.5948	0.6426	0.3218	0.065
Mof_H 	H 	0.5397	0.6853	0.3143	-0.001
Mof_H 	H 	0.6795	0.8133	0.0191	-0.001
Mof_H 	H 	0.6305	0.8217	0.0711	0.065
Mof_H 	H 	0.6287	0.7739	0.1265	0.037
Mof_H 	H 	0.7264	0.7134	0.075	0.015
Mof_H 	H 	0.7085	0.5835	0.2177	0.011
Mof_H 	H 	0.7591	0.6271	0.1107	0.038
Mof_H 	H 	0.801	0.569	0.1114	0.065
Mof_H 	H 	0.7942	0.5192	0.165	0.003
Mof_H 	H 	0.7736	0.5586	0.2396	0
Mof_H 	H 	0.8241	0.5661	0.2319	0.068
Mof_H 	H 	0.8795	0.5175	0.2281	0.036
Mof_H 	H 	0.8274	0.456	0.2458	0.011
Mof_H 	H 	0.2262	0.087	0.477	0.013
Mof_H 	H 	0.1382	0.1478	0.4446	0.038
Mof_H 	H 	0.1426	0.0948	0.4408	0.065
Mof_H 	H 	0.1853	0.0397	0.4607	-0.001
Mof_H 	H 	0.3133	0.1795	0.4881	-0.001
Mof_H 	H 	0.3217	0.1305	0.4767	0.065
Mof_H 	H 	0.2739	0.1287	0.4709	0.037
Mof_H 	H 	0.2134	0.2264	0.4852	0.015
Mof_H 	H 	0.0835	0.2085	0.4903	0.011
Mof_H 	H 	0.1271	0.2591	0.5031	0.038
Mof_H 	H 	0.069	0.301	0.5186	0.065
Mof_H 	H 	0.0192	0.2942	0.5216	0.003
Mof_H 	H 	0.0586	0.2736	0.4282	0
Mof_H 	H 	0.0661	0.3241	0.3779	0.068
Mof_H 	H 	0.0175	0.3795	0.3749	0.036
Mof_H 	H 	0.956	0.3274	0.4708	0.011
Mof_H 	H 	0.7098	0.477	0.087	0.013
Mof_H 	H 	0.7694	0.4446	0.1478	0.038
Mof_H 	H 	0.8218	0.4408	0.0948	0.065
Mof_H 	H 	0.8143	0.4607	0.0397	-0.001
Mof_H 	H 	0.5191	0.4881	0.1795	-0.001
Mof_H 	H 	0.5711	0.4767	0.1305	0.065
Mof_H 	H 	0.6265	0.4709	0.1287	0.037
Mof_H 	H 	0.575	0.4852	0.2264	0.015
Mof_H 	H 	0.7177	0.4903	0.2085	0.011
Mof_H 	H 	0.6107	0.5031	0.2591	0.038
Mof_H 	H 	0.6114	0.5186	0.301	0.065
Mof_H 	H 	0.665	0.5216	0.2942	0.003
Mof_H 	H 	0.7396	0.4282	0.2736	0
Mof_H 	H 	0.7319	0.3779	0.3241	0.068
Mof_H 	H 	0.7281	0.3749	0.3795	0.036
Mof_H 	H 	0.7458	0.4708	0.3274	0.011
Mof_H 	H 	0.977	0.2098	0.7262	0.013
Mof_H 	H 	0.9446	0.2694	0.6382	0.038
Mof_H 	H 	0.9408	0.3218	0.6426	0.065
Mof_H 	H 	0.9607	0.3143	0.6853	-0.001
Mof_H 	H 	0.9881	0.0191	0.8133	-0.001
Mof_H 	H 	0.9767	0.0711	0.8217	0.065
Mof_H 	H 	0.9709	0.1265	0.7739	0.037
Mof_H 	H 	0.9852	0.075	0.7134	0.015
Mof_H 	H 	0.9903	0.2177	0.5835	0.011
Mof_H 	H 	0.0031	0.1107	0.6271	0.038
Mof_H 	H 	0.0186	0.1114	0.569	0.065
Mof_H 	H 	0.0216	0.165	0.5192	0.003
Mof_H 	H 	0.9282	0.2396	0.5586	0
Mof_H 	H 	0.8779	0.2319	0.5661	0.068
Mof_H 	H 	0.8749	0.2281	0.5175	0.036
Mof_H 	H 	0.9708	0.2458	0.456	0.011
Mof_H 	H 	0.587	0.2098	0.477	0.013
Mof_H 	H 	0.6478	0.2694	0.4446	0.038
Mof_H 	H 	0.5948	0.3218	0.4408	0.065
Mof_H 	H 	0.5397	0.3143	0.4607	-0.001
Mof_H 	H 	0.6795	0.0191	0.4881	-0.001
Mof_H 	H 	0.6305	0.0711	0.4767	0.065
Mof_H 	H 	0.6287	0.1265	0.4709	0.037
Mof_H 	H 	0.7264	0.075	0.4852	0.015
Mof_H 	H 	0.7085	0.2177	0.4903	0.011
Mof_H 	H 	0.7591	0.1107	0.5031	0.038
Mof_H 	H 	0.801	0.1114	0.5186	0.065
Mof_H 	H 	0.7942	0.165	0.5216	0.003
Mof_H 	H 	0.7736	0.2396	0.4282	0
Mof_H 	H 	0.8241	0.2319	0.3779	0.068
Mof_H 	H 	0.8795	0.2281	0.3749	0.036
Mof_H 	H 	0.8274	0.2458	0.4708	0.011
Mof_H 	H 	0.2262	0.477	0.2098	0.013
Mof_H 	H 	0.1382	0.4446	0.2694	0.038
Mof_H 	H 	0.1426	0.4408	0.3218	0.065
Mof_H 	H 	0.1853	0.4607	0.3143	-0.001
Mof_H 	H 	0.3133	0.4881	0.0191	-0.001
Mof_H 	H 	0.3217	0.4767	0.0711	0.065
Mof_H 	H 	0.2739	0.4709	0.1265	0.037
Mof_H 	H 	0.2134	0.4852	0.075	0.015
Mof_H 	H 	0.0835	0.4903	0.2177	0.011
Mof_H 	H 	0.1271	0.5031	0.1107	0.038
Mof_H 	H 	0.069	0.5186	0.1114	0.065
Mof_H 	H 	0.0192	0.5216	0.165	0.003
Mof_H 	H 	0.0586	0.4282	0.2396	0
Mof_H 	H 	0.0661	0.3779	0.2319	0.068
Mof_H 	H 	0.0175	0.3749	0.2281	0.036
Mof_H 	H 	0.956	0.4708	0.2458	0.011
Mof_H 	H 	0.7098	0.087	0.7262	0.013
Mof_H 	H 	0.7694	0.1478	0.6382	0.038
Mof_H 	H 	0.8218	0.0948	0.6426	0.065
Mof_H 	H 	0.8143	0.0397	0.6853	-0.001
Mof_H 	H 	0.5191	0.1795	0.8133	-0.001
Mof_H 	H 	0.5711	0.1305	0.8217	0.065
Mof_H 	H 	0.6265	0.1287	0.7739	0.037
Mof_H 	H 	0.575	0.2264	0.7134	0.015
Mof_H 	H 	0.7177	0.2085	0.5835	0.011
Mof_H 	H 	0.6107	0.2591	0.6271	0.038
Mof_H 	H 	0.6114	0.301	0.569	0.065
Mof_H 	H 	0.665	0.2942	0.5192	0.003
Mof_H 	H 	0.7396	0.2736	0.5586	0
Mof_H 	H 	0.7319	0.3241	0.5661	0.068
Mof_H 	H 	0.7281	0.3795	0.5175	0.036
Mof_H 	H 	0.7458	0.3274	0.456	0.011
Mof_H 	H 	0.977	0.7262	0.087	0.013
Mof_H 	H 	0.9446	0.6382	0.1478	0.038
Mof_H 	H 	0.9408	0.6426	0.0948	0.065
Mof_H 	H 	0.9607	0.6853	0.0397	-0.001
Mof_H 	H 	0.9881	0.8133	0.1795	-0.001
Mof_H 	H 	0.9767	0.8217	0.1305	0.065
Mof_H 	H 	0.9709	0.7739	0.1287	0.037
Mof_H 	H 	0.9852	0.7134	0.2264	0.015
Mof_H 	H 	0.9903	0.5835	0.2085	0.011
Mof_H 	H 	0.0031	0.6271	0.2591	0.038
Mof_H 	H 	0.0186	0.569	0.301	0.065
Mof_H 	H 	0.0216	0.5192	0.2942	0.003
Mof_H 	H 	0.9282	0.5586	0.2736	0
Mof_H 	H 	0.8779	0.5661	0.3241	0.068
Mof_H 	H 	0.8749	0.5175	0.3795	0.036
Mof_H 	H 	0.9708	0.456	0.3274	0.011
Mof_H 	H 	0.587	0.477	0.7262	0.013
Mof_H 	H 	0.6478	0.4446	0.6382	0.038
Mof_H 	H 	0.5948	0.4408	0.6426	0.065
Mof_H 	H 	0.5397	0.4607	0.6853	-0.001
Mof_H 	H 	0.6795	0.4881	0.8133	-0.001
Mof_H 	H 	0.6305	0.4767	0.8217	0.065
Mof_H 	H 	0.6287	0.4709	0.7739	0.037
Mof_H 	H 	0.7264	0.4852	0.7134	0.015
Mof_H 	H 	0.7085	0.4903	0.5835	0.011
Mof_H 	H 	0.7591	0.5031	0.6271	0.038
Mof_H 	H 	0.801	0.5186	0.569	0.065
Mof_H 	H 	0.7942	0.5216	0.5192	0.003
Mof_H 	H 	0.7736	0.4282	0.5586	0
Mof_H 	H 	0.8241	0.3779	0.5661	0.068
Mof_H 	H 	0.8795	0.3749	0.5175	0.036
Mof_H 	H 	0.8274	0.4708	0.456	0.011
Mof_H 	H 	0.2262	0.2098	0.087	0.013
Mof_H 	H 	0.1382	0.2694	0.1478	0.038
Mof_H 	H 	0.1426	0.3218	0.0948	0.065
Mof_H 	H 	0.1853	0.3143	0.0397	-0.001
Mof_H 	H 	0.3133	0.0191	0.1795	-0.001
Mof_H 	H 	0.3217	0.0711	0.1305	0.065
Mof_H 	H 	0.2739	0.1265	0.1287	0.037
Mof_H 	H 	0.2134	0.075	0.2264	0.015
Mof_H 	H 	0.0835	0.2177	0.2085	0.011
Mof_H 	H 	0.1271	0.1107	0.2591	0.038
Mof_H 	H 	0.069	0.1114	0.301	0.065
Mof_H 	H 	0.0192	0.165	0.2942	0.003
Mof_H 	H 	0.0586	0.2396	0.2736	0
Mof_H 	H 	0.0661	0.2319	0.3241	0.068
Mof_H 	H 	0.0175	0.2281	0.3795	0.036
Mof_H 	H 	0.956	0.2458	0.3274	0.011
Mof_H 	H 	0.7098	0.7262	0.477	0.013
Mof_H 	H 	0.7694	0.6382	0.4446	0.038
Mof_H 	H 	0.8218	0.6426	0.4408	0.065
Mof_H 	H 	0.8143	0.6853	0.4607	-0.001
Mof_H 	H 	0.5191	0.8133	0.4881	-0.001
Mof_H 	H 	0.5711	0.8217	0.4767	0.065
Mof_H 	H 	0.6265	0.7739	0.4709	0.037
Mof_H 	H 	0.575	0.7134	0.4852	0.015
Mof_H 	H 	0.7177	0.5835	0.4903	0.011
Mof_H 	H 	0.6107	0.6271	0.5031	0.038
Mof_H 	H 	0.6114	0.569	0.5186	0.065
Mof_H 	H 	0.665	0.5192	0.5216	0.003
Mof_H 	H 	0.7396	0.5586	0.4282	0
Mof_H 	H 	0.7319	0.5661	0.3779	0.068
Mof_H 	H 	0.7281	0.5175	0.3749	0.036
Mof_H 	H 	0.7458	0.456	0.4708	0.011
Mof_H 	H 	0.977	0.087	0.2098	0.013
Mof_H 	H 	0.9446	0.1478	0.2694	0.038
Mof_H 	H 	0.9408	0.0948	0.3218	0.065
Mof_H 	H 	0.9607	0.0397	0.3143	-0.001
Mof_H 	H 	0.9881	0.1795	0.0191	-0.001
Mof_H 	H 	0.9767	0.1305	0.0711	0.065
Mof_H 	H 	0.9709	0.1287	0.1265	0.037
Mof_H 	H 	0.9852	0.2264	0.075	0.015
Mof_H 	H 	0.9903	0.2085	0.2177	0.011
Mof_H 	H 	0.0031	0.2591	0.1107	0.038
Mof_H 	H 	0.0186	0.301	0.1114	0.065
Mof_H 	H 	0.0216	0.2942	0.165	0.003
Mof_H 	H 	0.9282	0.2736	0.2396	0
Mof_H 	H 	0.8779	0.3241	0.2319	0.068
Mof_H 	H 	0.8749	0.3795	0.2281	0.036
Mof_H 	H 	0.9708	0.3274	0.2458	0.011
Mof_H 	H 	0.2738	0.413	0.2902	0.013
Mof_H 	H 	0.3618	0.3522	0.2306	0.038
Mof_H 	H 	0.3574	0.4052	0.1782	0.065
Mof_H 	H 	0.3147	0.4603	0.1857	-0.001
Mof_H 	H 	0.1867	0.3205	0.4809	-0.001
Mof_H 	H 	0.1783	0.3695	0.4289	0.065
Mof_H 	H 	0.2261	0.3713	0.3735	0.037
Mof_H 	H 	0.2866	0.2736	0.425	0.015
Mof_H 	H 	0.4165	0.2915	0.2823	0.011
Mof_H 	H 	0.3729	0.2409	0.3893	0.038
Mof_H 	H 	0.431	0.199	0.3886	0.065
Mof_H 	H 	0.4808	0.2058	0.335	0.003
Mof_H 	H 	0.4414	0.2264	0.2604	0
Mof_H 	H 	0.4339	0.1759	0.2681	0.068
Mof_H 	H 	0.4825	0.1205	0.2719	0.036
Mof_H 	H 	0.544	0.1726	0.2542	0.011
Mof_H 	H 	0.913	0.7738	0.023	0.013
Mof_H 	H 	0.8522	0.8618	0.0554	0.038
Mof_H 	H 	0.9052	0.8574	0.0592	0.065
Mof_H 	H 	0.9603	0.8147	0.0393	-0.001
Mof_H 	H 	0.8205	0.6867	0.0119	-0.001
Mof_H 	H 	0.8695	0.6783	0.0233	0.065
Mof_H 	H 	0.8713	0.7261	0.0291	0.037
Mof_H 	H 	0.7736	0.7866	0.0148	0.015
Mof_H 	H 	0.7915	0.9165	0.0097	0.011
Mof_H 	H 	0.7409	0.8729	0.9969	0.038
Mof_H 	H 	0.699	0.931	0.9814	0.065
Mof_H 	H 	0.7058	0.9808	0.9784	0.004
Mof_H 	H 	0.7264	0.9414	0.0718	0
Mof_H 	H 	0.6759	0.9339	0.1221	0.068
Mof_H 	H 	0.6205	0.9825	0.1251	0.036
Mof_H 	H 	0.6726	0.044	0.0292	0.011
Mof_H 	H 	0.523	0.2902	0.413	0.013
Mof_H 	H 	0.5554	0.2306	0.3522	0.038
Mof_H 	H 	0.5592	0.1782	0.4052	0.065
Mof_H 	H 	0.5393	0.1857	0.4603	-0.001
Mof_H 	H 	0.5119	0.4809	0.3205	-0.001
Mof_H 	H 	0.5233	0.4289	0.3695	0.065
Mof_H 	H 	0.5291	0.3735	0.3713	0.037
Mof_H 	H 	0.5148	0.425	0.2736	0.015
Mof_H 	H 	0.5097	0.2823	0.2915	0.011
Mof_H 	H 	0.4969	0.3893	0.2409	0.038
Mof_H 	H 	0.4814	0.3886	0.199	0.065
Mof_H 	H 	0.4784	0.335	0.2058	0.003
Mof_H 	H 	0.5718	0.2604	0.2264	0
Mof_H 	H 	0.6221	0.2681	0.1759	0.068
Mof_H 	H 	0.6251	0.2719	0.1205	0.036
Mof_H 	H 	0.5292	0.2542	0.1726	0.011
Mof_H 	H 	0.7902	0.023	0.7738	0.013
Mof_H 	H 	0.7306	0.0554	0.8618	0.038
Mof_H 	H 	0.6782	0.0592	0.8574	0.065
Mof_H 	H 	0.6857	0.0393	0.8147	-0.001
Mof_H 	H 	0.9809	0.0119	0.6867	-0.001
Mof_H 	H 	0.9289	0.0233	0.6783	0.065
Mof_H 	H 	0.8735	0.0291	0.7261	0.037
Mof_H 	H 	0.925	0.0148	0.7866	0.015
Mof_H 	H 	0.7823	0.0097	0.9165	0.011
Mof_H 	H 	0.8893	0.9969	0.8729	0.038
Mof_H 	H 	0.8886	0.9814	0.931	0.065
Mof_H 	H 	0.835	0.9784	0.9808	0.004
Mof_H 	H 	0.7604	0.0718	0.9414	0
Mof_H 	H 	0.7681	0.1221	0.9339	0.068
Mof_H 	H 	0.7719	0.1251	0.9825	0.036
Mof_H 	H 	0.7542	0.0292	0.044	0.011
Mof_H 	H 	0.7902	0.413	0.023	0.013
Mof_H 	H 	0.7306	0.3522	0.0554	0.038
Mof_H 	H 	0.6782	0.4052	0.0592	0.065
Mof_H 	H 	0.6857	0.4603	0.0393	-0.001
Mof_H 	H 	0.9809	0.3205	0.0119	-0.001
Mof_H 	H 	0.9289	0.3695	0.0233	0.065
Mof_H 	H 	0.8735	0.3713	0.0291	0.037
Mof_H 	H 	0.925	0.2736	0.0148	0.015
Mof_H 	H 	0.7823	0.2915	0.0097	0.011
Mof_H 	H 	0.8893	0.2409	0.9969	0.038
Mof_H 	H 	0.8886	0.199	0.9814	0.065
Mof_H 	H 	0.835	0.2058	0.9784	0.003
Mof_H 	H 	0.7604	0.2264	0.0718	0
Mof_H 	H 	0.7681	0.1759	0.1221	0.068
Mof_H 	H 	0.7719	0.1205	0.1251	0.036
Mof_H 	H 	0.7542	0.1726	0.0292	0.011
Mof_H 	H 	0.523	0.7738	0.2902	0.013
Mof_H 	H 	0.5554	0.8618	0.2306	0.038
Mof_H 	H 	0.5592	0.8574	0.1782	0.065
Mof_H 	H 	0.5393	0.8147	0.1857	-0.001
Mof_H 	H 	0.5119	0.6867	0.4809	-0.001
Mof_H 	H 	0.5233	0.6783	0.4289	0.065
Mof_H 	H 	0.5291	0.7261	0.3735	0.037
Mof_H 	H 	0.5148	0.7866	0.425	0.015
Mof_H 	H 	0.5097	0.9165	0.2823	0.011
Mof_H 	H 	0.4969	0.8729	0.3893	0.038
Mof_H 	H 	0.4814	0.931	0.3886	0.065
Mof_H 	H 	0.4784	0.9808	0.335	0.003
Mof_H 	H 	0.5718	0.9414	0.2604	0
Mof_H 	H 	0.6221	0.9339	0.2681	0.068
Mof_H 	H 	0.6251	0.9825	0.2719	0.036
Mof_H 	H 	0.5292	0.044	0.2542	0.011
Mof_H 	H 	0.913	0.2902	0.7738	0.013
Mof_H 	H 	0.8522	0.2306	0.8618	0.038
Mof_H 	H 	0.9052	0.1782	0.8574	0.065
Mof_H 	H 	0.9603	0.1857	0.8147	-0.001
Mof_H 	H 	0.8205	0.4809	0.6867	-0.001
Mof_H 	H 	0.8695	0.4289	0.6783	0.065
Mof_H 	H 	0.8713	0.3735	0.7261	0.037
Mof_H 	H 	0.7736	0.425	0.7866	0.015
Mof_H 	H 	0.7915	0.2823	0.9165	0.011
Mof_H 	H 	0.7409	0.3893	0.8729	0.038
Mof_H 	H 	0.699	0.3886	0.931	0.065
Mof_H 	H 	0.7058	0.335	0.9808	0.003
Mof_H 	H 	0.7264	0.2604	0.9414	0
Mof_H 	H 	0.6759	0.2681	0.9339	0.068
Mof_H 	H 	0.6205	0.2719	0.9825	0.036
Mof_H 	H 	0.6726	0.2542	0.044	0.011
Mof_H 	H 	0.2738	0.023	0.413	0.013
Mof_H 	H 	0.3618	0.0554	0.3522	0.038
Mof_H 	H 	0.3574	0.0592	0.4052	0.065
Mof_H 	H 	0.3147	0.0393	0.4603	-0.001
Mof_H 	H 	0.1867	0.0119	0.3205	-0.001
Mof_H 	H 	0.1783	0.0233	0.3695	0.065
Mof_H 	H 	0.2261	0.0291	0.3713	0.037
Mof_H 	H 	0.2866	0.0148	0.2736	0.015
Mof_H 	H 	0.4165	0.0097	0.2915	0.011
Mof_H 	H 	0.3729	0.9969	0.2409	0.038
Mof_H 	H 	0.431	0.9814	0.199	0.065
Mof_H 	H 	0.4808	0.9784	0.2058	0.003
Mof_H 	H 	0.4414	0.0718	0.2264	0
Mof_H 	H 	0.4339	0.1221	0.1759	0.068
Mof_H 	H 	0.4825	0.1251	0.1205	0.036
Mof_H 	H 	0.544	0.0292	0.1726	0.011
Mof_H 	H 	0.523	0.413	0.7738	0.013
Mof_H 	H 	0.5554	0.3522	0.8618	0.038
Mof_H 	H 	0.5592	0.4052	0.8574	0.065
Mof_H 	H 	0.5393	0.4603	0.8147	-0.001
Mof_H 	H 	0.5119	0.3205	0.6867	-0.001
Mof_H 	H 	0.5233	0.3695	0.6783	0.065
Mof_H 	H 	0.5291	0.3713	0.7261	0.037
Mof_H 	H 	0.5148	0.2736	0.7866	0.015
Mof_H 	H 	0.5097	0.2915	0.9165	0.011
Mof_H 	H 	0.4969	0.2409	0.8729	0.038
Mof_H 	H 	0.4814	0.199	0.931	0.065
Mof_H 	H 	0.4784	0.2058	0.9808	0.003
Mof_H 	H 	0.5718	0.2264	0.9414	0
Mof_H 	H 	0.6221	0.1759	0.9339	0.068
Mof_H 	H 	0.6251	0.1205	0.9825	0.036
Mof_H 	H 	0.5292	0.1726	0.044	0.011
Mof_H 	H 	0.7902	0.7738	0.413	0.013
Mof_H 	H 	0.7306	0.8618	0.3522	0.038
Mof_H 	H 	0.6782	0.8574	0.4052	0.065
Mof_H 	H 	0.6857	0.8147	0.4603	-0.001
Mof_H 	H 	0.9809	0.6867	0.3205	-0.001
Mof_H 	H 	0.9289	0.6783	0.3695	0.065
Mof_H 	H 	0.8735	0.7261	0.3713	0.037
Mof_H 	H 	0.925	0.7866	0.2736	0.015
Mof_H 	H 	0.7823	0.9165	0.2915	0.011
Mof_H 	H 	0.8893	0.8729	0.2409	0.038
Mof_H 	H 	0.8886	0.931	0.199	0.065
Mof_H 	H 	0.835	0.9808	0.2058	0.003
Mof_H 	H 	0.7604	0.9414	0.2264	0
Mof_H 	H 	0.7681	0.9339	0.1759	0.068
Mof_H 	H 	0.7719	0.9825	0.1205	0.036
Mof_H 	H 	0.7542	0.044	0.1726	0.011
Mof_H 	H 	0.2738	0.2902	0.023	0.013
Mof_H 	H 	0.3618	0.2306	0.0554	0.038
Mof_H 	H 	0.3574	0.1782	0.0592	0.065
Mof_H 	H 	0.3147	0.1857	0.0393	-0.001
Mof_H 	H 	0.1867	0.4809	0.0119	-0.001
Mof_H 	H 	0.1783	0.4289	0.0233	0.065
Mof_H 	H 	0.2261	0.3735	0.0291	0.037
Mof_H 	H 	0.2866	0.425	0.0148	0.015
Mof_H 	H 	0.4165	0.2823	0.0097	0.011
Mof_H 	H 	0.3729	0.3893	0.9969	0.038
Mof_H 	H 	0.431	0.3886	0.9814	0.065
Mof_H 	H 	0.4808	0.335	0.9784	0.003
Mof_H 	H 	0.4414	0.2604	0.0718	0
Mof_H 	H 	0.4339	0.2681	0.1221	0.068
Mof_H 	H 	0.4825	0.2719	0.1251	0.036
Mof_H 	H 	0.544	0.2542	0.0292	0.011
Mof_H 	H 	0.913	0.023	0.2902	0.013
Mof_H 	H 	0.8522	0.0554	0.2306	0.038
Mof_H 	H 	0.9052	0.0592	0.1782	0.065
Mof_H 	H 	0.9603	0.0393	0.1857	-0.001
Mof_H 	H 	0.8205	0.0119	0.4809	-0.001
Mof_H 	H 	0.8695	0.0233	0.4289	0.065
Mof_H 	H 	0.8713	0.0291	0.3735	0.037
Mof_H 	H 	0.7736	0.0148	0.425	0.015
Mof_H 	H 	0.7915	0.0097	0.2823	0.011
Mof_H 	H 	0.7409	0.9969	0.3893	0.038
Mof_H 	H 	0.699	0.9814	0.3886	0.065
Mof_H 	H 	0.7058	0.9784	0.335	0.003
Mof_H 	H 	0.7264	0.0718	0.2604	0
Mof_H 	H 	0.6759	0.1221	0.2681	0.068
Mof_H 	H 	0.6205	0.1251	0.2719	0.036
Mof_H 	H 	0.6726	0.0292	0.2542	0.011
Mof_H 	H 	0.413	0.2738	0.7902	0.013
Mof_H 	H 	0.3522	0.3618	0.7306	0.038
Mof_H 	H 	0.4052	0.3574	0.6782	0.065
Mof_H 	H 	0.4603	0.3147	0.6857	-0.001
Mof_H 	H 	0.3205	0.1867	0.9809	-0.001
Mof_H 	H 	0.3695	0.1783	0.9289	0.065
Mof_H 	H 	0.3713	0.2261	0.8735	0.037
Mof_H 	H 	0.2736	0.2866	0.925	0.015
Mof_H 	H 	0.2915	0.4165	0.7823	0.011
Mof_H 	H 	0.2409	0.3729	0.8893	0.038
Mof_H 	H 	0.199	0.431	0.8886	0.065
Mof_H 	H 	0.2058	0.4808	0.835	0.003
Mof_H 	H 	0.2264	0.4414	0.7604	0
Mof_H 	H 	0.1759	0.4339	0.7681	0.068
Mof_H 	H 	0.1205	0.4825	0.7719	0.036
Mof_H 	H 	0.1726	0.544	0.7542	0.011
Mof_H 	H 	0.7738	0.913	0.523	0.013
Mof_H 	H 	0.8618	0.8522	0.5554	0.038
Mof_H 	H 	0.8574	0.9052	0.5592	0.065
Mof_H 	H 	0.8147	0.9603	0.5393	-0.001
Mof_H 	H 	0.6867	0.8205	0.5119	-0.001
Mof_H 	H 	0.6783	0.8695	0.5233	0.065
Mof_H 	H 	0.7261	0.8713	0.5291	0.037
Mof_H 	H 	0.7866	0.7736	0.5148	0.015
Mof_H 	H 	0.9165	0.7915	0.5097	0.011
Mof_H 	H 	0.8729	0.7409	0.4969	0.038
Mof_H 	H 	0.931	0.699	0.4814	0.065
Mof_H 	H 	0.9808	0.7058	0.4784	0.003
Mof_H 	H 	0.9414	0.7264	0.5718	0
Mof_H 	H 	0.9339	0.6759	0.6221	0.068
Mof_H 	H 	0.9825	0.6205	0.6251	0.036
Mof_H 	H 	0.044	0.6726	0.5292	0.011
Mof_H 	H 	0.2902	0.523	0.913	0.013
Mof_H 	H 	0.2306	0.5554	0.8522	0.038
Mof_H 	H 	0.1782	0.5592	0.9052	0.065
Mof_H 	H 	0.1857	0.5393	0.9603	-0.001
Mof_H 	H 	0.4809	0.5119	0.8205	-0.001
Mof_H 	H 	0.4289	0.5233	0.8695	0.065
Mof_H 	H 	0.3735	0.5291	0.8713	0.037
Mof_H 	H 	0.425	0.5148	0.7736	0.015
Mof_H 	H 	0.2823	0.5097	0.7915	0.011
Mof_H 	H 	0.3893	0.4969	0.7409	0.038
Mof_H 	H 	0.3886	0.4814	0.699	0.065
Mof_H 	H 	0.335	0.4784	0.7058	0.003
Mof_H 	H 	0.2604	0.5718	0.7264	0
Mof_H 	H 	0.2681	0.6221	0.6759	0.068
Mof_H 	H 	0.2719	0.6251	0.6205	0.036
Mof_H 	H 	0.2542	0.5292	0.6726	0.011
Mof_H 	H 	0.023	0.7902	0.2738	0.013
Mof_H 	H 	0.0554	0.7306	0.3618	0.038
Mof_H 	H 	0.0592	0.6782	0.3574	0.065
Mof_H 	H 	0.0393	0.6857	0.3147	-0.001
Mof_H 	H 	0.0119	0.9809	0.1867	-0.001
Mof_H 	H 	0.0233	0.9289	0.1783	0.065
Mof_H 	H 	0.0291	0.8735	0.2261	0.037
Mof_H 	H 	0.0148	0.925	0.2866	0.015
Mof_H 	H 	0.0097	0.7823	0.4165	0.011
Mof_H 	H 	0.9969	0.8893	0.3729	0.038
Mof_H 	H 	0.9814	0.8886	0.431	0.065
Mof_H 	H 	0.9784	0.835	0.4808	0.003
Mof_H 	H 	0.0718	0.7604	0.4414	0
Mof_H 	H 	0.1221	0.7681	0.4339	0.068
Mof_H 	H 	0.1251	0.7719	0.4825	0.036
Mof_H 	H 	0.0292	0.7542	0.544	0.011
Mof_H 	H 	0.413	0.7902	0.523	0.013
Mof_H 	H 	0.3522	0.7306	0.5554	0.038
Mof_H 	H 	0.4052	0.6782	0.5592	0.065
Mof_H 	H 	0.4603	0.6857	0.5393	-0.001
Mof_H 	H 	0.3205	0.9809	0.5119	-0.001
Mof_H 	H 	0.3695	0.9289	0.5233	0.065
Mof_H 	H 	0.3713	0.8735	0.5291	0.037
Mof_H 	H 	0.2736	0.925	0.5148	0.015
Mof_H 	H 	0.2915	0.7823	0.5097	0.011
Mof_H 	H 	0.2409	0.8893	0.4969	0.038
Mof_H 	H 	0.199	0.8886	0.4814	0.065
Mof_H 	H 	0.2058	0.835	0.4784	0.003
Mof_H 	H 	0.2264	0.7604	0.5718	0
Mof_H 	H 	0.1759	0.7681	0.6221	0.068
Mof_H 	H 	0.1205	0.7719	0.6251	0.036
Mof_H 	H 	0.1726	0.7542	0.5292	0.011
Mof_H 	H 	0.7738	0.523	0.7902	0.013
Mof_H 	H 	0.8618	0.5554	0.7306	0.038
Mof_H 	H 	0.8574	0.5592	0.6782	0.065
Mof_H 	H 	0.8147	0.5393	0.6857	-0.001
Mof_H 	H 	0.6867	0.5119	0.9809	-0.001
Mof_H 	H 	0.6783	0.5233	0.9289	0.065
Mof_H 	H 	0.7261	0.5291	0.8735	0.037
Mof_H 	H 	0.7866	0.5148	0.925	0.015
Mof_H 	H 	0.9165	0.5097	0.7823	0.011
Mof_H 	H 	0.8729	0.4969	0.8893	0.038
Mof_H 	H 	0.931	0.4814	0.8886	0.065
Mof_H 	H 	0.9808	0.4784	0.835	0.003
Mof_H 	H 	0.9414	0.5718	0.7604	0
Mof_H 	H 	0.9339	0.6221	0.7681	0.068
Mof_H 	H 	0.9825	0.6251	0.7719	0.036
Mof_H 	H 	0.044	0.5292	0.7542	0.011
Mof_H 	H 	0.2902	0.913	0.2738	0.013
Mof_H 	H 	0.2306	0.8522	0.3618	0.038
Mof_H 	H 	0.1782	0.9052	0.3574	0.065
Mof_H 	H 	0.1857	0.9603	0.3147	-0.001
Mof_H 	H 	0.4809	0.8205	0.1867	-0.001
Mof_H 	H 	0.4289	0.8695	0.1783	0.065
Mof_H 	H 	0.3735	0.8713	0.2261	0.037
Mof_H 	H 	0.425	0.7736	0.2866	0.015
Mof_H 	H 	0.2823	0.7915	0.4165	0.011
Mof_H 	H 	0.3893	0.7409	0.3729	0.038
Mof_H 	H 	0.3886	0.699	0.431	0.065
Mof_H 	H 	0.335	0.7058	0.4808	0.003
Mof_H 	H 	0.2604	0.7264	0.4414	0
Mof_H 	H 	0.2681	0.6759	0.4339	0.068
Mof_H 	H 	0.2719	0.6205	0.4825	0.036
Mof_H 	H 	0.2542	0.6726	0.544	0.011
Mof_H 	H 	0.023	0.2738	0.913	0.013
Mof_H 	H 	0.0554	0.3618	0.8522	0.038
Mof_H 	H 	0.0592	0.3574	0.9052	0.065
Mof_H 	H 	0.0393	0.3147	0.9603	-0.001
Mof_H 	H 	0.0119	0.1867	0.8205	-0.001
Mof_H 	H 	0.0233	0.1783	0.8695	0.065
Mof_H 	H 	0.0291	0.2261	0.8713	0.037
Mof_H 	H 	0.0148	0.2866	0.7736	0.015
Mof_H 	H 	0.0097	0.4165	0.7915	0.011
Mof_H 	H 	0.9969	0.3729	0.7409	0.038
Mof_H 	H 	0.9814	0.431	0.699	0.065
Mof_H 	H 	0.9784	0.4808	0.7058	0.003
Mof_H 	H 	0.0718	0.4414	0.7264	0
Mof_H 	H 	0.1221	0.4339	0.6759	0.068
Mof_H 	H 	0.1251	0.4825	0.6205	0.036
Mof_H 	H 	0.0292	0.544	0.6726	0.011
Mof_H 	H 	0.413	0.523	0.2738	0.013
Mof_H 	H 	0.3522	0.5554	0.3618	0.038
Mof_H 	H 	0.4052	0.5592	0.3574	0.065
Mof_H 	H 	0.4603	0.5393	0.3147	-0.001
Mof_H 	H 	0.3205	0.5119	0.1867	-0.001
Mof_H 	H 	0.3695	0.5233	0.1783	0.065
Mof_H 	H 	0.3713	0.5291	0.2261	0.037
Mof_H 	H 	0.2736	0.5148	0.2866	0.015
Mof_H 	H 	0.2915	0.5097	0.4165	0.011
Mof_H 	H 	0.2409	0.4969	0.3729	0.038
Mof_H 	H 	0.199	0.4814	0.431	0.065
Mof_H 	H 	0.2058	0.4784	0.4808	0.003
Mof_H 	H 	0.2264	0.5718	0.4414	0
Mof_H 	H 	0.1759	0.6221	0.4339	0.068
Mof_H 	H 	0.1205	0.6251	0.4825	0.036
Mof_H 	H 	0.1726	0.5292	0.544	0.011
Mof_H 	H 	0.7738	0.7902	0.913	0.013
Mof_H 	H 	0.8618	0.7306	0.8522	0.038
Mof_H 	H 	0.8574	0.6782	0.9052	0.065
Mof_H 	H 	0.8147	0.6857	0.9603	-0.001
Mof_H 	H 	0.6867	0.9809	0.8205	-0.001
Mof_H 	H 	0.6783	0.9289	0.8695	0.065
Mof_H 	H 	0.7261	0.8735	0.8713	0.037
Mof_H 	H 	0.7866	0.925	0.7736	0.015
Mof_H 	H 	0.9165	0.7823	0.7915	0.011
Mof_H 	H 	0.8729	0.8893	0.7409	0.038
Mof_H 	H 	0.931	0.8886	0.699	0.065
Mof_H 	H 	0.9808	0.835	0.7058	0.003
Mof_H 	H 	0.9414	0.7604	0.7264	0
Mof_H 	H 	0.9339	0.7681	0.6759	0.068
Mof_H 	H 	0.9825	0.7719	0.6205	0.036
Mof_H 	H 	0.044	0.7542	0.6726	0.011
Mof_H 	H 	0.2902	0.2738	0.523	0.013
Mof_H 	H 	0.2306	0.3618	0.5554	0.038
Mof_H 	H 	0.1782	0.3574	0.5592	0.065
Mof_H 	H 	0.1857	0.3147	0.5393	-0.001
Mof_H 	H 	0.4809	0.1867	0.5119	-0.001
Mof_H 	H 	0.4289	0.1783	0.5233	0.065
Mof_H 	H 	0.3735	0.2261	0.5291	0.037
Mof_H 	H 	0.425	0.2866	0.5148	0.015
Mof_H 	H 	0.2823	0.4165	0.5097	0.011
Mof_H 	H 	0.3893	0.3729	0.4969	0.038
Mof_H 	H 	0.3886	0.431	0.4814	0.065
Mof_H 	H 	0.335	0.4808	0.4784	0.003
Mof_H 	H 	0.2604	0.4414	0.5718	0
Mof_H 	H 	0.2681	0.4339	0.6221	0.068
Mof_H 	H 	0.2719	0.4825	0.6251	0.036
Mof_H 	H 	0.2542	0.544	0.5292	0.011
Mof_H 	H 	0.023	0.913	0.7902	0.013
Mof_H 	H 	0.0554	0.8522	0.7306	0.038
Mof_H 	H 	0.0592	0.9052	0.6782	0.065
Mof_H 	H 	0.0393	0.9603	0.6857	-0.001
Mof_H 	H 	0.0119	0.8205	0.9809	-0.001
Mof_H 	H 	0.0233	0.8695	0.9289	0.065
Mof_H 	H 	0.0291	0.8713	0.8735	0.037
Mof_H 	H 	0.0148	0.7736	0.925	0.015
Mof_H 	H 	0.0097	0.7915	0.7823	0.011
Mof_H 	H 	0.9969	0.7409	0.8893	0.038
Mof_H 	H 	0.9814	0.699	0.8886	0.065
Mof_H 	H 	0.9784	0.7058	0.835	0.003
Mof_H 	H 	0.0718	0.7264	0.7604	0
Mof_H 	H 	0.1221	0.6759	0.7681	0.068
Mof_H 	H 	0.1251	0.6205	0.7719	0.036
Mof_H 	H 	0.0292	0.6726	0.7542	0.011
Mof_H 	H 	0.7262	0.587	0.7098	0.013
Mof_H 	H 	0.6382	0.6478	0.7694	0.038
Mof_H 	H 	0.6426	0.5948	0.8218	0.065
Mof_H 	H 	0.6853	0.5397	0.8143	-0.001
Mof_H 	H 	0.8133	0.6795	0.5191	-0.001
Mof_H 	H 	0.8217	0.6305	0.5711	0.065
Mof_H 	H 	0.7739	0.6287	0.6265	0.037
Mof_H 	H 	0.7134	0.7264	0.575	0.015
Mof_H 	H 	0.5835	0.7085	0.7177	0.011
Mof_H 	H 	0.6271	0.7591	0.6107	0.038
Mof_H 	H 	0.569	0.801	0.6114	0.065
Mof_H 	H 	0.5192	0.7942	0.665	0.003
Mof_H 	H 	0.5586	0.7736	0.7396	0
Mof_H 	H 	0.5661	0.8241	0.7319	0.068
Mof_H 	H 	0.5175	0.8795	0.7281	0.036
Mof_H 	H 	0.456	0.8274	0.7458	0.011
Mof_H 	H 	0.087	0.2262	0.977	0.013
Mof_H 	H 	0.1478	0.1382	0.9446	0.038
Mof_H 	H 	0.0948	0.1426	0.9408	0.065
Mof_H 	H 	0.0397	0.1853	0.9607	-0.001
Mof_H 	H 	0.1795	0.3133	0.9881	-0.001
Mof_H 	H 	0.1305	0.3217	0.9767	0.065
Mof_H 	H 	0.1287	0.2739	0.9709	0.037
Mof_H 	H 	0.2264	0.2134	0.9852	0.015
Mof_H 	H 	0.2085	0.0835	0.9903	0.011
Mof_H 	H 	0.2591	0.1271	0.0031	0.038
Mof_H 	H 	0.301	0.069	0.0186	0.065
Mof_H 	H 	0.2942	0.0192	0.0216	0.004
Mof_H 	H 	0.2736	0.0586	0.9282	0
Mof_H 	H 	0.3241	0.0661	0.8779	0.068
Mof_H 	H 	0.3795	0.0175	0.8749	0.036
Mof_H 	H 	0.3274	0.956	0.9708	0.011
Mof_H 	H 	0.477	0.7098	0.587	0.013
Mof_H 	H 	0.4446	0.7694	0.6478	0.038
Mof_H 	H 	0.4408	0.8218	0.5948	0.065
Mof_H 	H 	0.4607	0.8143	0.5397	-0.001
Mof_H 	H 	0.4881	0.5191	0.6795	-0.001
Mof_H 	H 	0.4767	0.5711	0.6305	0.065
Mof_H 	H 	0.4709	0.6265	0.6287	0.037
Mof_H 	H 	0.4852	0.575	0.7264	0.015
Mof_H 	H 	0.4903	0.7177	0.7085	0.011
Mof_H 	H 	0.5031	0.6107	0.7591	0.038
Mof_H 	H 	0.5186	0.6114	0.801	0.065
Mof_H 	H 	0.5216	0.665	0.7942	0.003
Mof_H 	H 	0.4282	0.7396	0.7736	0
Mof_H 	H 	0.3779	0.7319	0.8241	0.068
Mof_H 	H 	0.3749	0.7281	0.8795	0.036
Mof_H 	H 	0.4708	0.7458	0.8274	0.011
Mof_H 	H 	0.2098	0.977	0.2262	0.013
Mof_H 	H 	0.2694	0.9446	0.1382	0.038
Mof_H 	H 	0.3218	0.9408	0.1426	0.065
Mof_H 	H 	0.3143	0.9607	0.1853	-0.001
Mof_H 	H 	0.0191	0.9881	0.3133	-0.001
Mof_H 	H 	0.0711	0.9767	0.3217	0.065
Mof_H 	H 	0.1265	0.9709	0.2739	0.037
Mof_H 	H 	0.075	0.9852	0.2134	0.015
Mof_H 	H 	0.2177	0.9903	0.0835	0.011
Mof_H 	H 	0.1107	0.0031	0.1271	0.038
Mof_H 	H 	0.1114	0.0186	0.069	0.065
Mof_H 	H 	0.165	0.0216	0.0192	0.004
Mof_H 	H 	0.2396	0.9282	0.0586	0
Mof_H 	H 	0.2319	0.8779	0.0661	0.068
Mof_H 	H 	0.2281	0.8749	0.0175	0.036
Mof_H 	H 	0.2458	0.9708	0.956	0.011
Mof_H 	H 	0.2098	0.587	0.977	0.013
Mof_H 	H 	0.2694	0.6478	0.9446	0.038
Mof_H 	H 	0.3218	0.5948	0.9408	0.065
Mof_H 	H 	0.3143	0.5397	0.9607	-0.001
Mof_H 	H 	0.0191	0.6795	0.9881	-0.001
Mof_H 	H 	0.0711	0.6305	0.9767	0.065
Mof_H 	H 	0.1265	0.6287	0.9709	0.037
Mof_H 	H 	0.075	0.7264	0.9852	0.015
Mof_H 	H 	0.2177	0.7085	0.9903	0.011
Mof_H 	H 	0.1107	0.7591	0.0031	0.038
Mof_H 	H 	0.1114	0.801	0.0186	0.065
Mof_H 	H 	0.165	0.7942	0.0216	0.003
Mof_H 	H 	0.2396	0.7736	0.9282	0
Mof_H 	H 	0.2319	0.8241	0.8779	0.068
Mof_H 	H 	0.2281	0.8795	0.8749	0.036
Mof_H 	H 	0.2458	0.8274	0.9708	0.011
Mof_H 	H 	0.477	0.2262	0.7098	0.013
Mof_H 	H 	0.4446	0.1382	0.7694	0.038
Mof_H 	H 	0.4408	0.1426	0.8218	0.065
Mof_H 	H 	0.4607	0.1853	0.8143	-0.001
Mof_H 	H 	0.4881	0.3133	0.5191	-0.001
Mof_H 	H 	0.4767	0.3217	0.5711	0.065
Mof_H 	H 	0.4709	0.2739	0.6265	0.037
Mof_H 	H 	0.4852	0.2134	0.575	0.015
Mof_H 	H 	0.4903	0.0835	0.7177	0.011
Mof_H 	H 	0.5031	0.1271	0.6107	0.038
Mof_H 	H 	0.5186	0.069	0.6114	0.065
Mof_H 	H 	0.5216	0.0192	0.665	0.003
Mof_H 	H 	0.4282	0.0586	0.7396	0
Mof_H 	H 	0.3779	0.0661	0.7319	0.068
Mof_H 	H 	0.3749	0.0175	0.7281	0.036
Mof_H 	H 	0.4708	0.956	0.7458	0.011
Mof_H 	H 	0.087	0.7098	0.2262	0.013
Mof_H 	H 	0.1478	0.7694	0.1382	0.038
Mof_H 	H 	0.0948	0.8218	0.1426	0.065
Mof_H 	H 	0.0397	0.8143	0.1853	-0.001
Mof_H 	H 	0.1795	0.5191	0.3133	-0.001
Mof_H 	H 	0.1305	0.5711	0.3217	0.065
Mof_H 	H 	0.1287	0.6265	0.2739	0.037
Mof_H 	H 	0.2264	0.575	0.2134	0.015
Mof_H 	H 	0.2085	0.7177	0.0835	0.011
Mof_H 	H 	0.2591	0.6107	0.1271	0.038
Mof_H 	H 	0.301	0.6114	0.069	0.065
Mof_H 	H 	0.2942	0.665	0.0192	0.003
Mof_H 	H 	0.2736	0.7396	0.0586	0
Mof_H 	H 	0.3241	0.7319	0.0661	0.068
Mof_H 	H 	0.3795	0.7281	0.0175	0.036
Mof_H 	H 	0.3274	0.7458	0.956	0.011
Mof_H 	H 	0.7262	0.977	0.587	0.013
Mof_H 	H 	0.6382	0.9446	0.6478	0.038
Mof_H 	H 	0.6426	0.9408	0.5948	0.065
Mof_H 	H 	0.6853	0.9607	0.5397	-0.001
Mof_H 	H 	0.8133	0.9881	0.6795	-0.001
Mof_H 	H 	0.8217	0.9767	0.6305	0.065
Mof_H 	H 	0.7739	0.9709	0.6287	0.037
Mof_H 	H 	0.7134	0.9852	0.7264	0.015
Mof_H 	H 	0.5835	0.9903	0.7085	0.011
Mof_H 	H 	0.6271	0.0031	0.7591	0.038
Mof_H 	H 	0.569	0.0186	0.801	0.065
Mof_H 	H 	0.5192	0.0216	0.7942	0.003
Mof_H 	H 	0.5586	0.9282	0.7736	0
Mof_H 	H 	0.5661	0.8779	0.8241	0.068
Mof_H 	H 	0.5175	0.8749	0.8795	0.036
Mof_H 	H 	0.456	0.9708	0.8274	0.011
Mof_H 	H 	0.477	0.587	0.2262	0.013
Mof_H 	H 	0.4446	0.6478	0.1382	0.038
Mof_H 	H 	0.4408	0.5948	0.1426	0.065
Mof_H 	H 	0.4607	0.5397	0.1853	-0.001
Mof_H 	H 	0.4881	0.6795	0.3133	-0.001
Mof_H 	H 	0.4767	0.6305	0.3217	0.065
Mof_H 	H 	0.4709	0.6287	0.2739	0.037
Mof_H 	H 	0.4852	0.7264	0.2134	0.015
Mof_H 	H 	0.4903	0.7085	0.0835	0.011
Mof_H 	H 	0.5031	0.7591	0.1271	0.038
Mof_H 	H 	0.5186	0.801	0.069	0.065
Mof_H 	H 	0.5216	0.7942	0.0192	0.003
Mof_H 	H 	0.4282	0.7736	0.0586	0
Mof_H 	H 	0.3779	0.8241	0.0661	0.068
Mof_H 	H 	0.3749	0.8795	0.0175	0.036
Mof_H 	H 	0.4708	0.8274	0.956	0.011
Mof_H 	H 	0.2098	0.2262	0.587	0.013
Mof_H 	H 	0.2694	0.1382	0.6478	0.038
Mof_H 	H 	0.3218	0.1426	0.5948	0.065
Mof_H 	H 	0.3143	0.1853	0.5397	-0.001
Mof_H 	H 	0.0191	0.3133	0.6795	-0.001
Mof_H 	H 	0.0711	0.3217	0.6305	0.065
Mof_H 	H 	0.1265	0.2739	0.6287	0.037
Mof_H 	H 	0.075	0.2134	0.7264	0.015
Mof_H 	H 	0.2177	0.0835	0.7085	0.011
Mof_H 	H 	0.1107	0.1271	0.7591	0.038
Mof_H 	H 	0.1114	0.069	0.801	0.065
Mof_H 	H 	0.165	0.0192	0.7942	0.003
Mof_H 	H 	0.2396	0.0586	0.7736	0
Mof_H 	H 	0.2319	0.0661	0.8241	0.068
Mof_H 	H 	0.2281	0.0175	0.8795	0.036
Mof_H 	H 	0.2458	0.956	0.8274	0.011
Mof_H 	H 	0.7262	0.7098	0.977	0.013
Mof_H 	H 	0.6382	0.7694	0.9446	0.038
Mof_H 	H 	0.6426	0.8218	0.9408	0.065
Mof_H 	H 	0.6853	0.8143	0.9607	-0.001
Mof_H 	H 	0.8133	0.5191	0.9881	-0.001
Mof_H 	H 	0.8217	0.5711	0.9767	0.065
Mof_H 	H 	0.7739	0.6265	0.9709	0.037
Mof_H 	H 	0.7134	0.575	0.9852	0.015
Mof_H 	H 	0.5835	0.7177	0.9903	0.011
Mof_H 	H 	0.6271	0.6107	0.0031	0.038
Mof_H 	H 	0.569	0.6114	0.0186	0.065
Mof_H 	H 	0.5192	0.665	0.0216	0.003
Mof_H 	H 	0.5586	0.7396	0.9282	0
Mof_H 	H 	0.5661	0.7319	0.8779	0.068
Mof_H 	H 	0.5175	0.7281	0.8749	0.036
Mof_H 	H 	0.456	0.7458	0.9708	0.011
Mof_H 	H 	0.087	0.977	0.7098	0.013
Mof_H 	H 	0.1478	0.9446	0.7694	0.038
Mof_H 	H 	0.0948	0.9408	0.8218	0.065
Mof_H 	H 	0.0397	0.9607	0.8143	-0.001
Mof_H 	H 	0.1795	0.9881	0.5191	-0.001
Mof_H 	H 	0.1305	0.9767	0.5711	0.065
Mof_H 	H 	0.1287	0.9709	0.6265	0.037
Mof_H 	H 	0.2264	0.9852	0.575	0.015
Mof_H 	H 	0.2085	0.9903	0.7177	0.011
Mof_H 	H 	0.2591	0.0031	0.6107	0.038
Mof_H 	H 	0.301	0.0186	0.6114	0.065
Mof_H 	H 	0.2942	0.0216	0.665	0.003
Mof_H 	H 	0.2736	0.9282	0.7396	0
Mof_H 	H 	0.3241	0.8779	0.7319	0.068
Mof_H 	H 	0.3795	0.8749	0.7281	0.036
Mof_H 	H 	0.3274	0.9708	0.7458	0.011
Mof_C 	C 	0.73027	0.83609	0.95973	0.097
Mof_C 	C 	0.798	0.44528	0.20432	0.108
Mof_C 	C 	0.58837	0.70817	0.23259	0.037
Mof_C 	C 	0.62161	0.68233	0.23405	-0.048
Mof_C 	C 	0.62506	0.65652	0.2675	0.006
Mof_C 	C 	0.59382	0.6587	0.29812	-0.098
Mof_C 	C 	0.56109	0.68495	0.29331	0.062
Mof_C 	C 	0.67918	0.79388	0.04156	0.057
Mof_C 	C 	0.64981	0.79909	0.07241	-0.099
Mof_C 	C 	0.6489	0.77106	0.10496	0.009
Mof_C 	C 	0.67772	0.7385	0.10608	-0.049
Mof_C 	C 	0.70651	0.73549	0.07405	0.036
Mof_C 	C 	0.67746	0.70662	0.13978	0.135
Mof_C 	C 	0.70337	0.64681	0.16715	0.135
Mof_C 	C 	0.65217	0.68055	0.19989	0.132
Mof_C 	C 	0.72794	0.5805	0.19592	0.044
Mof_C 	C 	0.73038	0.61132	0.16518	-0.053
Mof_C 	C 	0.75743	0.60689	0.13267	0.009
Mof_C 	C 	0.78158	0.57266	0.133	-0.094
Mof_C 	C 	0.77769	0.54297	0.16527	0.053
Mof_C 	C 	0.7956	0.53832	0.23938	0.061
Mof_C 	C 	0.82552	0.54328	0.2343	-0.103
Mof_C 	C 	0.85794	0.51458	0.23254	0.012
Mof_C 	C 	0.85841	0.48149	0.23737	-0.055
Mof_C 	C 	0.82678	0.47872	0.2428	0.044
Mof_C 	C 	0.8919	0.44962	0.2367	0.137
Mof_C 	C 	0.33609	0.23027	0.47391	0.097
Mof_C 	C 	0.94528	0.298	0.5524	0.108
Mof_C 	C 	0.20817	0.08837	0.47087	0.037
Mof_C 	C 	0.18233	0.12161	0.46201	-0.048
Mof_C 	C 	0.15652	0.12506	0.45092	0.006
Mof_C 	C 	0.1587	0.09382	0.44936	-0.098
Mof_C 	C 	0.18495	0.06109	0.46065	0.062
Mof_C 	C 	0.29388	0.17918	0.48538	0.057
Mof_C 	C 	0.29909	0.14981	0.47869	-0.099
Mof_C 	C 	0.27106	0.1489	0.47508	0.009
Mof_C 	C 	0.2385	0.17772	0.4777	-0.049
Mof_C 	C 	0.23549	0.20651	0.48395	0.036
Mof_C 	C 	0.20662	0.17746	0.47614	0.135
Mof_C 	C 	0.14681	0.20337	0.48267	0.135
Mof_C 	C 	0.18055	0.15217	0.46739	0.132
Mof_C 	C 	0.0805	0.22794	0.49564	0.044
Mof_C 	C 	0.11132	0.23038	0.49312	-0.053
Mof_C 	C 	0.10689	0.25743	0.50301	0.009
Mof_C 	C 	0.07266	0.28158	0.51276	-0.094
Mof_C 	C 	0.04297	0.27769	0.51407	0.053
Mof_C 	C 	0.03832	0.2956	0.4267	0.061
Mof_C 	C 	0.04328	0.32552	0.3969	-0.103
Mof_C 	C 	0.01458	0.35794	0.39494	0.012
Mof_C 	C 	0.98149	0.35841	0.42273	-0.055
Mof_C 	C 	0.97872	0.32678	0.4517	0.044
Mof_C 	C 	0.94962	0.3919	0.42178	0.137
Mof_C 	C 	0.45973	0.47391	0.23027	0.097
Mof_C 	C 	0.70432	0.5524	0.298	0.108
Mof_C 	C 	0.73259	0.47087	0.08837	0.037
Mof_C 	C 	0.73405	0.46201	0.12161	-0.048
Mof_C 	C 	0.7675	0.45092	0.12506	0.006
Mof_C 	C 	0.79812	0.44936	0.09382	-0.098
Mof_C 	C 	0.79331	0.46065	0.06109	0.062
Mof_C 	C 	0.54156	0.48538	0.17918	0.057
Mof_C 	C 	0.57241	0.47869	0.14981	-0.099
Mof_C 	C 	0.60496	0.47508	0.1489	0.009
Mof_C 	C 	0.60608	0.4777	0.17772	-0.049
Mof_C 	C 	0.57405	0.48395	0.20651	0.036
Mof_C 	C 	0.63978	0.47614	0.17746	0.135
Mof_C 	C 	0.66715	0.48267	0.20337	0.135
Mof_C 	C 	0.69989	0.46739	0.15217	0.132
Mof_C 	C 	0.69592	0.49564	0.22794	0.044
Mof_C 	C 	0.66518	0.49312	0.23038	-0.053
Mof_C 	C 	0.63267	0.50301	0.25743	0.009
Mof_C 	C 	0.633	0.51276	0.28158	-0.094
Mof_C 	C 	0.66527	0.51407	0.27769	0.053
Mof_C 	C 	0.73938	0.4267	0.2956	0.061
Mof_C 	C 	0.7343	0.3969	0.32552	-0.103
Mof_C 	C 	0.73254	0.39494	0.35794	0.012
Mof_C 	C 	0.73737	0.42273	0.35841	-0.055
Mof_C 	C 	0.7428	0.4517	0.32678	0.044
Mof_C 	C 	0.7367	0.42178	0.3919	0.137
Mof_C 	C 	0.97391	0.95973	0.83609	0.097
Mof_C 	C 	0.0524	0.20432	0.44528	0.108
Mof_C 	C 	0.97087	0.23259	0.70817	0.037
Mof_C 	C 	0.96201	0.23405	0.68233	-0.048
Mof_C 	C 	0.95092	0.2675	0.65652	0.006
Mof_C 	C 	0.94936	0.29812	0.6587	-0.098
Mof_C 	C 	0.96065	0.29331	0.68495	0.062
Mof_C 	C 	0.98538	0.04156	0.79388	0.057
Mof_C 	C 	0.97869	0.07241	0.79909	-0.098
Mof_C 	C 	0.97508	0.10496	0.77106	0.009
Mof_C 	C 	0.9777	0.10608	0.7385	-0.049
Mof_C 	C 	0.98395	0.07405	0.73549	0.036
Mof_C 	C 	0.97614	0.13978	0.70662	0.135
Mof_C 	C 	0.98267	0.16715	0.64681	0.135
Mof_C 	C 	0.96739	0.19989	0.68055	0.132
Mof_C 	C 	0.99564	0.19592	0.5805	0.044
Mof_C 	C 	0.99312	0.16518	0.61132	-0.053
Mof_C 	C 	0.00301	0.13267	0.60689	0.009
Mof_C 	C 	0.01276	0.133	0.57266	-0.094
Mof_C 	C 	0.01407	0.16527	0.54297	0.053
Mof_C 	C 	0.9267	0.23938	0.53832	0.061
Mof_C 	C 	0.8969	0.2343	0.54328	-0.103
Mof_C 	C 	0.89494	0.23254	0.51458	0.012
Mof_C 	C 	0.92273	0.23737	0.48149	-0.055
Mof_C 	C 	0.9517	0.2428	0.47872	0.044
Mof_C 	C 	0.92178	0.2367	0.44962	0.137
Mof_C 	C 	0.73027	0.95973	0.47391	0.097
Mof_C 	C 	0.798	0.20432	0.5524	0.108
Mof_C 	C 	0.58837	0.23259	0.47087	0.037
Mof_C 	C 	0.62161	0.23405	0.46201	-0.048
Mof_C 	C 	0.62506	0.2675	0.45092	0.006
Mof_C 	C 	0.59382	0.29812	0.44936	-0.098
Mof_C 	C 	0.56109	0.29331	0.46065	0.062
Mof_C 	C 	0.67918	0.04156	0.48538	0.057
Mof_C 	C 	0.64981	0.07241	0.47869	-0.098
Mof_C 	C 	0.6489	0.10496	0.47508	0.009
Mof_C 	C 	0.67772	0.10608	0.4777	-0.049
Mof_C 	C 	0.70651	0.07405	0.48395	0.036
Mof_C 	C 	0.67746	0.13978	0.47614	0.135
Mof_C 	C 	0.70337	0.16715	0.48267	0.135
Mof_C 	C 	0.65217	0.19989	0.46739	0.132
Mof_C 	C 	0.72794	0.19592	0.49564	0.044
Mof_C 	C 	0.73038	0.16518	0.49312	-0.053
Mof_C 	C 	0.75743	0.13267	0.50301	0.009
Mof_C 	C 	0.78158	0.133	0.51276	-0.094
Mof_C 	C 	0.77769	0.16527	0.51407	0.053
Mof_C 	C 	0.7956	0.23938	0.4267	0.061
Mof_C 	C 	0.82552	0.2343	0.3969	-0.103
Mof_C 	C 	0.85794	0.23254	0.39494	0.012
Mof_C 	C 	0.85841	0.23737	0.42273	-0.055
Mof_C 	C 	0.82678	0.2428	0.4517	0.044
Mof_C 	C 	0.8919	0.2367	0.42178	0.137
Mof_C 	C 	0.33609	0.47391	0.95973	0.097
Mof_C 	C 	0.94528	0.5524	0.20432	0.108
Mof_C 	C 	0.20817	0.47087	0.23259	0.037
Mof_C 	C 	0.18233	0.46201	0.23405	-0.048
Mof_C 	C 	0.15652	0.45092	0.2675	0.006
Mof_C 	C 	0.1587	0.44936	0.29812	-0.098
Mof_C 	C 	0.18495	0.46065	0.29331	0.062
Mof_C 	C 	0.29388	0.48538	0.04156	0.057
Mof_C 	C 	0.29909	0.47869	0.07241	-0.098
Mof_C 	C 	0.27106	0.47508	0.10496	0.009
Mof_C 	C 	0.2385	0.4777	0.10608	-0.049
Mof_C 	C 	0.23549	0.48395	0.07405	0.036
Mof_C 	C 	0.20662	0.47614	0.13978	0.135
Mof_C 	C 	0.14681	0.48267	0.16715	0.135
Mof_C 	C 	0.18055	0.46739	0.19989	0.132
Mof_C 	C 	0.0805	0.49564	0.19592	0.044
Mof_C 	C 	0.11132	0.49312	0.16518	-0.053
Mof_C 	C 	0.10689	0.50301	0.13267	0.009
Mof_C 	C 	0.07266	0.51276	0.133	-0.094
Mof_C 	C 	0.04297	0.51407	0.16527	0.053
Mof_C 	C 	0.03832	0.4267	0.23938	0.061
Mof_C 	C 	0.04328	0.3969	0.2343	-0.103
Mof_C 	C 	0.01458	0.39494	0.23254	0.012
Mof_C 	C 	0.98149	0.42273	0.23737	-0.055
Mof_C 	C 	0.97872	0.4517	0.2428	0.044
Mof_C 	C 	0.94962	0.42178	0.2367	0.137
Mof_C 	C 	0.45973	0.23027	0.83609	0.097
Mof_C 	C 	0.70432	0.298	0.44528	0.108
Mof_C 	C 	0.73259	0.08837	0.70817	0.037
Mof_C 	C 	0.73405	0.12161	0.68233	-0.048
Mof_C 	C 	0.7675	0.12506	0.65652	0.006
Mof_C 	C 	0.79812	0.09382	0.6587	-0.098
Mof_C 	C 	0.79331	0.06109	0.68495	0.062
Mof_C 	C 	0.54156	0.17918	0.79388	0.057
Mof_C 	C 	0.57241	0.14981	0.79909	-0.099
Mof_C 	C 	0.60496	0.1489	0.77106	0.009
Mof_C 	C 	0.60608	0.17772	0.7385	-0.049
Mof_C 	C 	0.57405	0.20651	0.73549	0.036
Mof_C 	C 	0.63978	0.17746	0.70662	0.135
Mof_C 	C 	0.66715	0.20337	0.64681	0.135
Mof_C 	C 	0.69989	0.15217	0.68055	0.132
Mof_C 	C 	0.69592	0.22794	0.5805	0.044
Mof_C 	C 	0.66518	0.23038	0.61132	-0.053
Mof_C 	C 	0.63267	0.25743	0.60689	0.009
Mof_C 	C 	0.633	0.28158	0.57266	-0.094
Mof_C 	C 	0.66527	0.27769	0.54297	0.053
Mof_C 	C 	0.73938	0.2956	0.53832	0.061
Mof_C 	C 	0.7343	0.32552	0.54328	-0.103
Mof_C 	C 	0.73254	0.35794	0.51458	0.012
Mof_C 	C 	0.73737	0.35841	0.48149	-0.055
Mof_C 	C 	0.7428	0.32678	0.47872	0.044
Mof_C 	C 	0.7367	0.3919	0.44962	0.137
Mof_C 	C 	0.97391	0.83609	0.23027	0.097
Mof_C 	C 	0.0524	0.44528	0.298	0.108
Mof_C 	C 	0.97087	0.70817	0.08837	0.037
Mof_C 	C 	0.96201	0.68233	0.12161	-0.048
Mof_C 	C 	0.95092	0.65652	0.12506	0.006
Mof_C 	C 	0.94936	0.6587	0.09382	-0.098
Mof_C 	C 	0.96065	0.68495	0.06109	0.062
Mof_C 	C 	0.98538	0.79388	0.17918	0.057
Mof_C 	C 	0.97869	0.79909	0.14981	-0.098
Mof_C 	C 	0.97508	0.77106	0.1489	0.009
Mof_C 	C 	0.9777	0.7385	0.17772	-0.049
Mof_C 	C 	0.98395	0.73549	0.20651	0.036
Mof_C 	C 	0.97614	0.70662	0.17746	0.135
Mof_C 	C 	0.98267	0.64681	0.20337	0.135
Mof_C 	C 	0.96739	0.68055	0.15217	0.132
Mof_C 	C 	0.99564	0.5805	0.22794	0.044
Mof_C 	C 	0.99312	0.61132	0.23038	-0.053
Mof_C 	C 	0.00301	0.60689	0.25743	0.009
Mof_C 	C 	0.01276	0.57266	0.28158	-0.094
Mof_C 	C 	0.01407	0.54297	0.27769	0.053
Mof_C 	C 	0.9267	0.53832	0.2956	0.061
Mof_C 	C 	0.8969	0.54328	0.32552	-0.103
Mof_C 	C 	0.89494	0.51458	0.35794	0.012
Mof_C 	C 	0.92273	0.48149	0.35841	-0.055
Mof_C 	C 	0.9517	0.47872	0.32678	0.044
Mof_C 	C 	0.92178	0.44962	0.3919	0.137
Mof_C 	C 	0.73027	0.47391	0.83609	0.097
Mof_C 	C 	0.798	0.5524	0.44528	0.108
Mof_C 	C 	0.58837	0.47087	0.70817	0.037
Mof_C 	C 	0.62161	0.46201	0.68233	-0.048
Mof_C 	C 	0.62506	0.45092	0.65652	0.006
Mof_C 	C 	0.59382	0.44936	0.6587	-0.098
Mof_C 	C 	0.56109	0.46065	0.68495	0.062
Mof_C 	C 	0.67918	0.48538	0.79388	0.057
Mof_C 	C 	0.64981	0.47869	0.79909	-0.099
Mof_C 	C 	0.6489	0.47508	0.77106	0.009
Mof_C 	C 	0.67772	0.4777	0.7385	-0.049
Mof_C 	C 	0.70651	0.48395	0.73549	0.036
Mof_C 	C 	0.67746	0.47614	0.70662	0.135
Mof_C 	C 	0.70337	0.48267	0.64681	0.135
Mof_C 	C 	0.65217	0.46739	0.68055	0.132
Mof_C 	C 	0.72794	0.49564	0.5805	0.044
Mof_C 	C 	0.73038	0.49312	0.61132	-0.053
Mof_C 	C 	0.75743	0.50301	0.60689	0.009
Mof_C 	C 	0.78158	0.51276	0.57266	-0.094
Mof_C 	C 	0.77769	0.51407	0.54297	0.053
Mof_C 	C 	0.7956	0.4267	0.53832	0.061
Mof_C 	C 	0.82552	0.3969	0.54328	-0.103
Mof_C 	C 	0.85794	0.39494	0.51458	0.012
Mof_C 	C 	0.85841	0.42273	0.48149	-0.055
Mof_C 	C 	0.82678	0.4517	0.47872	0.044
Mof_C 	C 	0.8919	0.42178	0.44962	0.137
Mof_C 	C 	0.33609	0.95973	0.23027	0.097
Mof_C 	C 	0.94528	0.20432	0.298	0.108
Mof_C 	C 	0.20817	0.23259	0.08837	0.037
Mof_C 	C 	0.18233	0.23405	0.12161	-0.048
Mof_C 	C 	0.15652	0.2675	0.12506	0.006
Mof_C 	C 	0.1587	0.29812	0.09382	-0.098
Mof_C 	C 	0.18495	0.29331	0.06109	0.062
Mof_C 	C 	0.29388	0.04156	0.17918	0.057
Mof_C 	C 	0.29909	0.07241	0.14981	-0.098
Mof_C 	C 	0.27106	0.10496	0.1489	0.009
Mof_C 	C 	0.2385	0.10608	0.17772	-0.049
Mof_C 	C 	0.23549	0.07405	0.20651	0.036
Mof_C 	C 	0.20662	0.13978	0.17746	0.135
Mof_C 	C 	0.14681	0.16715	0.20337	0.135
Mof_C 	C 	0.18055	0.19989	0.15217	0.132
Mof_C 	C 	0.0805	0.19592	0.22794	0.044
Mof_C 	C 	0.11132	0.16518	0.23038	-0.053
Mof_C 	C 	0.10689	0.13267	0.25743	0.009
Mof_C 	C 	0.07266	0.133	0.28158	-0.094
Mof_C 	C 	0.04297	0.16527	0.27769	0.053
Mof_C 	C 	0.03832	0.23938	0.2956	0.061
Mof_C 	C 	0.04328	0.2343	0.32552	-0.103
Mof_C 	C 	0.01458	0.23254	0.35794	0.012
Mof_C 	C 	0.98149	0.23737	0.35841	-0.055
Mof_C 	C 	0.97872	0.2428	0.32678	0.044
Mof_C 	C 	0.94962	0.2367	0.3919	0.137
Mof_C 	C 	0.45973	0.83609	0.47391	0.097
Mof_C 	C 	0.70432	0.44528	0.5524	0.108
Mof_C 	C 	0.73259	0.70817	0.47087	0.037
Mof_C 	C 	0.73405	0.68233	0.46201	-0.048
Mof_C 	C 	0.7675	0.65652	0.45092	0.006
Mof_C 	C 	0.79812	0.6587	0.44936	-0.098
Mof_C 	C 	0.79331	0.68495	0.46065	0.062
Mof_C 	C 	0.54156	0.79388	0.48538	0.057
Mof_C 	C 	0.57241	0.79909	0.47869	-0.099
Mof_C 	C 	0.60496	0.77106	0.47508	0.009
Mof_C 	C 	0.60608	0.7385	0.4777	-0.049
Mof_C 	C 	0.57405	0.73549	0.48395	0.036
Mof_C 	C 	0.63978	0.70662	0.47614	0.135
Mof_C 	C 	0.66715	0.64681	0.48267	0.135
Mof_C 	C 	0.69989	0.68055	0.46739	0.132
Mof_C 	C 	0.69592	0.5805	0.49564	0.044
Mof_C 	C 	0.66518	0.61132	0.49312	-0.053
Mof_C 	C 	0.63267	0.60689	0.50301	0.009
Mof_C 	C 	0.633	0.57266	0.51276	-0.094
Mof_C 	C 	0.66527	0.54297	0.51407	0.053
Mof_C 	C 	0.73938	0.53832	0.4267	0.061
Mof_C 	C 	0.7343	0.54328	0.3969	-0.103
Mof_C 	C 	0.73254	0.51458	0.39494	0.012
Mof_C 	C 	0.73737	0.48149	0.42273	-0.055
Mof_C 	C 	0.7428	0.47872	0.4517	0.044
Mof_C 	C 	0.7367	0.44962	0.42178	0.137
Mof_C 	C 	0.97391	0.23027	0.95973	0.097
Mof_C 	C 	0.0524	0.298	0.20432	0.108
Mof_C 	C 	0.97087	0.08837	0.23259	0.037
Mof_C 	C 	0.96201	0.12161	0.23405	-0.048
Mof_C 	C 	0.95092	0.12506	0.2675	0.006
Mof_C 	C 	0.94936	0.09382	0.29812	-0.098
Mof_C 	C 	0.96065	0.06109	0.29331	0.062
Mof_C 	C 	0.98538	0.17918	0.04156	0.057
Mof_C 	C 	0.97869	0.14981	0.07241	-0.098
Mof_C 	C 	0.97508	0.1489	0.10496	0.009
Mof_C 	C 	0.9777	0.17772	0.10608	-0.049
Mof_C 	C 	0.98395	0.20651	0.07405	0.036
Mof_C 	C 	0.97614	0.17746	0.13978	0.135
Mof_C 	C 	0.98267	0.20337	0.16715	0.135
Mof_C 	C 	0.96739	0.15217	0.19989	0.132
Mof_C 	C 	0.99564	0.22794	0.19592	0.044
Mof_C 	C 	0.99312	0.23038	0.16518	-0.053
Mof_C 	C 	0.00301	0.25743	0.13267	0.009
Mof_C 	C 	0.01276	0.28158	0.133	-0.094
Mof_C 	C 	0.01407	0.27769	0.16527	0.053
Mof_C 	C 	0.9267	0.2956	0.23938	0.061
Mof_C 	C 	0.8969	0.32552	0.2343	-0.103
Mof_C 	C 	0.89494	0.35794	0.23254	0.012
Mof_C 	C 	0.92273	0.35841	0.23737	-0.055
Mof_C 	C 	0.9517	0.32678	0.2428	0.044
Mof_C 	C 	0.92178	0.3919	0.2367	0.137
Mof_C 	C 	0.16391	0.26973	0.54027	0.097
Mof_C 	C 	0.55472	0.202	0.29568	0.108
Mof_C 	C 	0.29183	0.41163	0.26741	0.037
Mof_C 	C 	0.31767	0.37839	0.26595	-0.048
Mof_C 	C 	0.34348	0.37494	0.2325	0.006
Mof_C 	C 	0.3413	0.40618	0.20188	-0.098
Mof_C 	C 	0.31505	0.43891	0.20669	0.062
Mof_C 	C 	0.20612	0.32082	0.45844	0.057
Mof_C 	C 	0.20091	0.35019	0.42759	-0.099
Mof_C 	C 	0.22894	0.3511	0.39504	0.009
Mof_C 	C 	0.2615	0.32228	0.39392	-0.049
Mof_C 	C 	0.26451	0.29349	0.42595	0.036
Mof_C 	C 	0.29338	0.32254	0.36022	0.135
Mof_C 	C 	0.35319	0.29663	0.33285	0.135
Mof_C 	C 	0.31945	0.34783	0.30011	0.132
Mof_C 	C 	0.4195	0.27206	0.30408	0.044
Mof_C 	C 	0.38868	0.26962	0.33482	-0.053
Mof_C 	C 	0.39311	0.24257	0.36733	0.009
Mof_C 	C 	0.42734	0.21842	0.367	-0.094
Mof_C 	C 	0.45703	0.22231	0.33473	0.053
Mof_C 	C 	0.46168	0.2044	0.26062	0.061
Mof_C 	C 	0.45672	0.17448	0.2657	-0.103
Mof_C 	C 	0.48542	0.14206	0.26746	0.012
Mof_C 	C 	0.51851	0.14159	0.26263	-0.055
Mof_C 	C 	0.52128	0.17322	0.2572	0.044
Mof_C 	C 	0.55038	0.1081	0.2633	0.137
Mof_C 	C 	0.76973	0.66391	0.02609	0.097
Mof_C 	C 	0.702	0.05472	0.9476	0.108
Mof_C 	C 	0.91163	0.79183	0.02913	0.037
Mof_C 	C 	0.87839	0.81767	0.03799	-0.048
Mof_C 	C 	0.87494	0.84348	0.04908	0.006
Mof_C 	C 	0.90618	0.8413	0.05064	-0.098
Mof_C 	C 	0.93891	0.81505	0.03935	0.062
Mof_C 	C 	0.82082	0.70612	0.01462	0.057
Mof_C 	C 	0.85019	0.70091	0.02131	-0.099
Mof_C 	C 	0.8511	0.72894	0.02492	0.009
Mof_C 	C 	0.82228	0.7615	0.0223	-0.049
Mof_C 	C 	0.79349	0.76451	0.01605	0.036
Mof_C 	C 	0.82254	0.79338	0.02386	0.135
Mof_C 	C 	0.79663	0.85319	0.01733	0.135
Mof_C 	C 	0.84783	0.81945	0.03261	0.132
Mof_C 	C 	0.77206	0.9195	0.00436	0.044
Mof_C 	C 	0.76962	0.88868	0.00688	-0.053
Mof_C 	C 	0.74257	0.89311	0.99699	0.009
Mof_C 	C 	0.71842	0.92734	0.98724	-0.094
Mof_C 	C 	0.72231	0.95703	0.98593	0.053
Mof_C 	C 	0.7044	0.96168	0.0733	0.061
Mof_C 	C 	0.67448	0.95672	0.1031	-0.103
Mof_C 	C 	0.64206	0.98542	0.10506	0.012
Mof_C 	C 	0.64159	0.01851	0.07727	-0.055
Mof_C 	C 	0.67322	0.02128	0.0483	0.044
Mof_C 	C 	0.6081	0.05038	0.07822	0.137
Mof_C 	C 	0.52609	0.54027	0.26973	0.097
Mof_C 	C 	0.4476	0.29568	0.202	0.108
Mof_C 	C 	0.52913	0.26741	0.41163	0.037
Mof_C 	C 	0.53799	0.26595	0.37839	-0.048
Mof_C 	C 	0.54908	0.2325	0.37494	0.006
Mof_C 	C 	0.55064	0.20188	0.40618	-0.098
Mof_C 	C 	0.53935	0.20669	0.43891	0.062
Mof_C 	C 	0.51462	0.45844	0.32082	0.057
Mof_C 	C 	0.52131	0.42759	0.35019	-0.099
Mof_C 	C 	0.52492	0.39504	0.3511	0.009
Mof_C 	C 	0.5223	0.39392	0.32228	-0.049
Mof_C 	C 	0.51605	0.42595	0.29349	0.036
Mof_C 	C 	0.52386	0.36022	0.32254	0.135
Mof_C 	C 	0.51733	0.33285	0.29663	0.135
Mof_C 	C 	0.53261	0.30011	0.34783	0.132
Mof_C 	C 	0.50436	0.30408	0.27206	0.044
Mof_C 	C 	0.50688	0.33482	0.26962	-0.053
Mof_C 	C 	0.49699	0.36733	0.24257	0.009
Mof_C 	C 	0.48724	0.367	0.21842	-0.094
Mof_C 	C 	0.48593	0.33473	0.22231	0.053
Mof_C 	C 	0.5733	0.26062	0.2044	0.061
Mof_C 	C 	0.6031	0.2657	0.17448	-0.103
Mof_C 	C 	0.60506	0.26746	0.14206	0.012
Mof_C 	C 	0.57727	0.26263	0.14159	-0.055
Mof_C 	C 	0.5483	0.2572	0.17322	0.044
Mof_C 	C 	0.57822	0.2633	0.1081	0.137
Mof_C 	C 	0.04027	0.02609	0.66391	0.097
Mof_C 	C 	0.79568	0.9476	0.05472	0.108
Mof_C 	C 	0.76741	0.02913	0.79183	0.037
Mof_C 	C 	0.76595	0.03799	0.81767	-0.048
Mof_C 	C 	0.7325	0.04908	0.84348	0.006
Mof_C 	C 	0.70188	0.05064	0.8413	-0.098
Mof_C 	C 	0.70669	0.03935	0.81505	0.062
Mof_C 	C 	0.95844	0.01462	0.70612	0.057
Mof_C 	C 	0.92759	0.02131	0.70091	-0.098
Mof_C 	C 	0.89504	0.02492	0.72894	0.009
Mof_C 	C 	0.89392	0.0223	0.7615	-0.049
Mof_C 	C 	0.92595	0.01605	0.76451	0.036
Mof_C 	C 	0.86022	0.02386	0.79338	0.135
Mof_C 	C 	0.83285	0.01733	0.85319	0.135
Mof_C 	C 	0.80011	0.03261	0.81945	0.132
Mof_C 	C 	0.80408	0.00436	0.9195	0.044
Mof_C 	C 	0.83482	0.00688	0.88868	-0.053
Mof_C 	C 	0.86733	0.99699	0.89311	0.009
Mof_C 	C 	0.867	0.98724	0.92734	-0.094
Mof_C 	C 	0.83473	0.98593	0.95703	0.053
Mof_C 	C 	0.76062	0.0733	0.96168	0.061
Mof_C 	C 	0.7657	0.1031	0.95672	-0.103
Mof_C 	C 	0.76746	0.10506	0.98542	0.012
Mof_C 	C 	0.76263	0.07727	0.01851	-0.055
Mof_C 	C 	0.7572	0.0483	0.02128	0.044
Mof_C 	C 	0.7633	0.07822	0.05038	0.137
Mof_C 	C 	0.04027	0.26973	0.02609	0.097
Mof_C 	C 	0.79568	0.202	0.9476	0.108
Mof_C 	C 	0.76741	0.41163	0.02913	0.037
Mof_C 	C 	0.76595	0.37839	0.03799	-0.048
Mof_C 	C 	0.7325	0.37494	0.04908	0.006
Mof_C 	C 	0.70188	0.40618	0.05064	-0.098
Mof_C 	C 	0.70669	0.43891	0.03935	0.062
Mof_C 	C 	0.95844	0.32082	0.01462	0.057
Mof_C 	C 	0.92759	0.35019	0.02131	-0.098
Mof_C 	C 	0.89504	0.3511	0.02492	0.009
Mof_C 	C 	0.89392	0.32228	0.0223	-0.049
Mof_C 	C 	0.92595	0.29349	0.01605	0.036
Mof_C 	C 	0.86022	0.32254	0.02386	0.135
Mof_C 	C 	0.83285	0.29663	0.01733	0.135
Mof_C 	C 	0.80011	0.34783	0.03261	0.132
Mof_C 	C 	0.80408	0.27206	0.00436	0.044
Mof_C 	C 	0.83482	0.26962	0.00688	-0.053
Mof_C 	C 	0.86733	0.24257	0.99699	0.009
Mof_C 	C 	0.867	0.21842	0.98724	-0.094
Mof_C 	C 	0.83473	0.22231	0.98593	0.053
Mof_C 	C 	0.76062	0.2044	0.0733	0.061
Mof_C 	C 	0.7657	0.17448	0.1031	-0.103
Mof_C 	C 	0.76746	0.14206	0.10506	0.012
Mof_C 	C 	0.76263	0.14159	0.07727	-0.055
Mof_C 	C 	0.7572	0.17322	0.0483	0.044
Mof_C 	C 	0.7633	0.1081	0.07822	0.137
Mof_C 	C 	0.52609	0.66391	0.54027	0.097
Mof_C 	C 	0.4476	0.05472	0.29568	0.108
Mof_C 	C 	0.52913	0.79183	0.26741	0.037
Mof_C 	C 	0.53799	0.81767	0.26595	-0.048
Mof_C 	C 	0.54908	0.84348	0.2325	0.006
Mof_C 	C 	0.55064	0.8413	0.20188	-0.098
Mof_C 	C 	0.53935	0.81505	0.20669	0.062
Mof_C 	C 	0.51462	0.70612	0.45844	0.057
Mof_C 	C 	0.52131	0.70091	0.42759	-0.099
Mof_C 	C 	0.52492	0.72894	0.39504	0.009
Mof_C 	C 	0.5223	0.7615	0.39392	-0.049
Mof_C 	C 	0.51605	0.76451	0.42595	0.036
Mof_C 	C 	0.52386	0.79338	0.36022	0.135
Mof_C 	C 	0.51733	0.85319	0.33285	0.135
Mof_C 	C 	0.53261	0.81945	0.30011	0.132
Mof_C 	C 	0.50436	0.9195	0.30408	0.044
Mof_C 	C 	0.50688	0.88868	0.33482	-0.053
Mof_C 	C 	0.49699	0.89311	0.36733	0.009
Mof_C 	C 	0.48724	0.92734	0.367	-0.094
Mof_C 	C 	0.48593	0.95703	0.33473	0.053
Mof_C 	C 	0.5733	0.96168	0.26062	0.061
Mof_C 	C 	0.6031	0.95672	0.2657	-0.103
Mof_C 	C 	0.60506	0.98542	0.26746	0.012
Mof_C 	C 	0.57727	0.01851	0.26263	-0.055
Mof_C 	C 	0.5483	0.02128	0.2572	0.044
Mof_C 	C 	0.57822	0.05038	0.2633	0.137
Mof_C 	C 	0.76973	0.54027	0.66391	0.097
Mof_C 	C 	0.702	0.29568	0.05472	0.108
Mof_C 	C 	0.91163	0.26741	0.79183	0.037
Mof_C 	C 	0.87839	0.26595	0.81767	-0.048
Mof_C 	C 	0.87494	0.2325	0.84348	0.006
Mof_C 	C 	0.90618	0.20188	0.8413	-0.098
Mof_C 	C 	0.93891	0.20669	0.81505	0.062
Mof_C 	C 	0.82082	0.45844	0.70612	0.057
Mof_C 	C 	0.85019	0.42759	0.70091	-0.099
Mof_C 	C 	0.8511	0.39504	0.72894	0.009
Mof_C 	C 	0.82228	0.39392	0.7615	-0.049
Mof_C 	C 	0.79349	0.42595	0.76451	0.036
Mof_C 	C 	0.82254	0.36022	0.79338	0.135
Mof_C 	C 	0.79663	0.33285	0.85319	0.135
Mof_C 	C 	0.84783	0.30011	0.81945	0.132
Mof_C 	C 	0.77206	0.30408	0.9195	0.044
Mof_C 	C 	0.76962	0.33482	0.88868	-0.053
Mof_C 	C 	0.74257	0.36733	0.89311	0.009
Mof_C 	C 	0.71842	0.367	0.92734	-0.094
Mof_C 	C 	0.72231	0.33473	0.95703	0.053
Mof_C 	C 	0.7044	0.26062	0.96168	0.061
Mof_C 	C 	0.67448	0.2657	0.95672	-0.103
Mof_C 	C 	0.64206	0.26746	0.98542	0.012
Mof_C 	C 	0.64159	0.26263	0.01851	-0.055
Mof_C 	C 	0.67322	0.2572	0.02128	0.044
Mof_C 	C 	0.6081	0.2633	0.05038	0.137
Mof_C 	C 	0.16391	0.02609	0.26973	0.097
Mof_C 	C 	0.55472	0.9476	0.202	0.108
Mof_C 	C 	0.29183	0.02913	0.41163	0.037
Mof_C 	C 	0.31767	0.03799	0.37839	-0.048
Mof_C 	C 	0.34348	0.04908	0.37494	0.006
Mof_C 	C 	0.3413	0.05064	0.40618	-0.098
Mof_C 	C 	0.31505	0.03935	0.43891	0.062
Mof_C 	C 	0.20612	0.01462	0.32082	0.057
Mof_C 	C 	0.20091	0.02131	0.35019	-0.098
Mof_C 	C 	0.22894	0.02492	0.3511	0.009
Mof_C 	C 	0.2615	0.0223	0.32228	-0.049
Mof_C 	C 	0.26451	0.01605	0.29349	0.036
Mof_C 	C 	0.29338	0.02386	0.32254	0.135
Mof_C 	C 	0.35319	0.01733	0.29663	0.135
Mof_C 	C 	0.31945	0.03261	0.34783	0.132
Mof_C 	C 	0.4195	0.00436	0.27206	0.044
Mof_C 	C 	0.38868	0.00688	0.26962	-0.053
Mof_C 	C 	0.39311	0.99699	0.24257	0.009
Mof_C 	C 	0.42734	0.98724	0.21842	-0.094
Mof_C 	C 	0.45703	0.98593	0.22231	0.053
Mof_C 	C 	0.46168	0.0733	0.2044	0.061
Mof_C 	C 	0.45672	0.1031	0.17448	-0.103
Mof_C 	C 	0.48542	0.10506	0.14206	0.012
Mof_C 	C 	0.51851	0.07727	0.14159	-0.055
Mof_C 	C 	0.52128	0.0483	0.17322	0.044
Mof_C 	C 	0.55038	0.07822	0.1081	0.137
Mof_C 	C 	0.52609	0.26973	0.66391	0.097
Mof_C 	C 	0.4476	0.202	0.05472	0.108
Mof_C 	C 	0.52913	0.41163	0.79183	0.037
Mof_C 	C 	0.53799	0.37839	0.81767	-0.048
Mof_C 	C 	0.54908	0.37494	0.84348	0.006
Mof_C 	C 	0.55064	0.40618	0.8413	-0.098
Mof_C 	C 	0.53935	0.43891	0.81505	0.062
Mof_C 	C 	0.51462	0.32082	0.70612	0.057
Mof_C 	C 	0.52131	0.35019	0.70091	-0.099
Mof_C 	C 	0.52492	0.3511	0.72894	0.009
Mof_C 	C 	0.5223	0.32228	0.7615	-0.049
Mof_C 	C 	0.51605	0.29349	0.76451	0.036
Mof_C 	C 	0.52386	0.32254	0.79338	0.135
Mof_C 	C 	0.51733	0.29663	0.85319	0.135
Mof_C 	C 	0.53261	0.34783	0.81945	0.132
Mof_C 	C 	0.50436	0.27206	0.9195	0.044
Mof_C 	C 	0.50688	0.26962	0.88868	-0.053
Mof_C 	C 	0.49699	0.24257	0.89311	0.009
Mof_C 	C 	0.48724	0.21842	0.92734	-0.094
Mof_C 	C 	0.48593	0.22231	0.95703	0.053
Mof_C 	C 	0.5733	0.2044	0.96168	0.061
Mof_C 	C 	0.6031	0.17448	0.95672	-0.103
Mof_C 	C 	0.60506	0.14206	0.98542	0.012
Mof_C 	C 	0.57727	0.14159	0.01851	-0.055
Mof_C 	C 	0.5483	0.17322	0.02128	0.044
Mof_C 	C 	0.57822	0.1081	0.05038	0.137
Mof_C 	C 	0.04027	0.66391	0.26973	0.097
Mof_C 	C 	0.79568	0.05472	0.202	0.108
Mof_C 	C 	0.76741	0.79183	0.41163	0.037
Mof_C 	C 	0.76595	0.81767	0.37839	-0.048
Mof_C 	C 	0.7325	0.84348	0.37494	0.006
Mof_C 	C 	0.70188	0.8413	0.40618	-0.098
Mof_C 	C 	0.70669	0.81505	0.43891	0.062
Mof_C 	C 	0.95844	0.70612	0.32082	0.057
Mof_C 	C 	0.92759	0.70091	0.35019	-0.098
Mof_C 	C 	0.89504	0.72894	0.3511	0.009
Mof_C 	C 	0.89392	0.7615	0.32228	-0.049
Mof_C 	C 	0.92595	0.76451	0.29349	0.036
Mof_C 	C 	0.86022	0.79338	0.32254	0.135
Mof_C 	C 	0.83285	0.85319	0.29663	0.135
Mof_C 	C 	0.80011	0.81945	0.34783	0.132
Mof_C 	C 	0.80408	0.9195	0.27206	0.044
Mof_C 	C 	0.83482	0.88868	0.26962	-0.053
Mof_C 	C 	0.86733	0.89311	0.24257	0.009
Mof_C 	C 	0.867	0.92734	0.21842	-0.094
Mof_C 	C 	0.83473	0.95703	0.22231	0.053
Mof_C 	C 	0.76062	0.96168	0.2044	0.061
Mof_C 	C 	0.7657	0.95672	0.17448	-0.103
Mof_C 	C 	0.76746	0.98542	0.14206	0.012
Mof_C 	C 	0.76263	0.01851	0.14159	-0.055
Mof_C 	C 	0.7572	0.02128	0.17322	0.044
Mof_C 	C 	0.7633	0.05038	0.1081	0.137
Mof_C 	C 	0.16391	0.54027	0.02609	0.097
Mof_C 	C 	0.55472	0.29568	0.9476	0.108
Mof_C 	C 	0.29183	0.26741	0.02913	0.037
Mof_C 	C 	0.31767	0.26595	0.03799	-0.048
Mof_C 	C 	0.34348	0.2325	0.04908	0.006
Mof_C 	C 	0.3413	0.20188	0.05064	-0.098
Mof_C 	C 	0.31505	0.20669	0.03935	0.062
Mof_C 	C 	0.20612	0.45844	0.01462	0.057
Mof_C 	C 	0.20091	0.42759	0.02131	-0.098
Mof_C 	C 	0.22894	0.39504	0.02492	0.009
Mof_C 	C 	0.2615	0.39392	0.0223	-0.049
Mof_C 	C 	0.26451	0.42595	0.01605	0.036
Mof_C 	C 	0.29338	0.36022	0.02386	0.135
Mof_C 	C 	0.35319	0.33285	0.01733	0.135
Mof_C 	C 	0.31945	0.30011	0.03261	0.132
Mof_C 	C 	0.4195	0.30408	0.00436	0.044
Mof_C 	C 	0.38868	0.33482	0.00688	-0.053
Mof_C 	C 	0.39311	0.36733	0.99699	0.009
Mof_C 	C 	0.42734	0.367	0.98724	-0.094
Mof_C 	C 	0.45703	0.33473	0.98593	0.053
Mof_C 	C 	0.46168	0.26062	0.0733	0.061
Mof_C 	C 	0.45672	0.2657	0.1031	-0.103
Mof_C 	C 	0.48542	0.26746	0.10506	0.012
Mof_C 	C 	0.51851	0.26263	0.07727	-0.055
Mof_C 	C 	0.52128	0.2572	0.0483	0.044
Mof_C 	C 	0.55038	0.2633	0.07822	0.137
Mof_C 	C 	0.76973	0.02609	0.54027	0.097
Mof_C 	C 	0.702	0.9476	0.29568	0.108
Mof_C 	C 	0.91163	0.02913	0.26741	0.037
Mof_C 	C 	0.87839	0.03799	0.26595	-0.048
Mof_C 	C 	0.87494	0.04908	0.2325	0.006
Mof_C 	C 	0.90618	0.05064	0.20188	-0.098
Mof_C 	C 	0.93891	0.03935	0.20669	0.062
Mof_C 	C 	0.82082	0.01462	0.45844	0.057
Mof_C 	C 	0.85019	0.02131	0.42759	-0.098
Mof_C 	C 	0.8511	0.02492	0.39504	0.009
Mof_C 	C 	0.82228	0.0223	0.39392	-0.049
Mof_C 	C 	0.79349	0.01605	0.42595	0.036
Mof_C 	C 	0.82254	0.02386	0.36022	0.135
Mof_C 	C 	0.79663	0.01733	0.33285	0.135
Mof_C 	C 	0.84783	0.03261	0.30011	0.132
Mof_C 	C 	0.77206	0.00436	0.30408	0.044
Mof_C 	C 	0.76962	0.00688	0.33482	-0.053
Mof_C 	C 	0.74257	0.99699	0.36733	0.009
Mof_C 	C 	0.71842	0.98724	0.367	-0.094
Mof_C 	C 	0.72231	0.98593	0.33473	0.053
Mof_C 	C 	0.7044	0.0733	0.26062	0.061
Mof_C 	C 	0.67448	0.1031	0.2657	-0.103
Mof_C 	C 	0.64206	0.10506	0.26746	0.012
Mof_C 	C 	0.64159	0.07727	0.26263	-0.055
Mof_C 	C 	0.67322	0.0483	0.2572	0.044
Mof_C 	C 	0.6081	0.07822	0.2633	0.137
Mof_C 	C 	0.26973	0.16391	0.04027	0.097
Mof_C 	C 	0.202	0.55472	0.79568	0.108
Mof_C 	C 	0.41163	0.29183	0.76741	0.037
Mof_C 	C 	0.37839	0.31767	0.76595	-0.048
Mof_C 	C 	0.37494	0.34348	0.7325	0.006
Mof_C 	C 	0.40618	0.3413	0.70188	-0.098
Mof_C 	C 	0.43891	0.31505	0.70669	0.062
Mof_C 	C 	0.32082	0.20612	0.95844	0.057
Mof_C 	C 	0.35019	0.20091	0.92759	-0.099
Mof_C 	C 	0.3511	0.22894	0.89504	0.009
Mof_C 	C 	0.32228	0.2615	0.89392	-0.049
Mof_C 	C 	0.29349	0.26451	0.92595	0.036
Mof_C 	C 	0.32254	0.29338	0.86022	0.135
Mof_C 	C 	0.29663	0.35319	0.83285	0.135
Mof_C 	C 	0.34783	0.31945	0.80011	0.132
Mof_C 	C 	0.27206	0.4195	0.80408	0.044
Mof_C 	C 	0.26962	0.38868	0.83482	-0.053
Mof_C 	C 	0.24257	0.39311	0.86733	0.009
Mof_C 	C 	0.21842	0.42734	0.867	-0.094
Mof_C 	C 	0.22231	0.45703	0.83473	0.053
Mof_C 	C 	0.2044	0.46168	0.76062	0.061
Mof_C 	C 	0.17448	0.45672	0.7657	-0.103
Mof_C 	C 	0.14206	0.48542	0.76746	0.012
Mof_C 	C 	0.14159	0.51851	0.76263	-0.055
Mof_C 	C 	0.17322	0.52128	0.7572	0.044
Mof_C 	C 	0.1081	0.55038	0.7633	0.137
Mof_C 	C 	0.66391	0.76973	0.52609	0.097
Mof_C 	C 	0.05472	0.702	0.4476	0.108
Mof_C 	C 	0.79183	0.91163	0.52913	0.037
Mof_C 	C 	0.81767	0.87839	0.53799	-0.048
Mof_C 	C 	0.84348	0.87494	0.54908	0.006
Mof_C 	C 	0.8413	0.90618	0.55064	-0.098
Mof_C 	C 	0.81505	0.93891	0.53935	0.062
Mof_C 	C 	0.70612	0.82082	0.51462	0.057
Mof_C 	C 	0.70091	0.85019	0.52131	-0.099
Mof_C 	C 	0.72894	0.8511	0.52492	0.009
Mof_C 	C 	0.7615	0.82228	0.5223	-0.049
Mof_C 	C 	0.76451	0.79349	0.51605	0.036
Mof_C 	C 	0.79338	0.82254	0.52386	0.135
Mof_C 	C 	0.85319	0.79663	0.51733	0.135
Mof_C 	C 	0.81945	0.84783	0.53261	0.132
Mof_C 	C 	0.9195	0.77206	0.50436	0.044
Mof_C 	C 	0.88868	0.76962	0.50688	-0.053
Mof_C 	C 	0.89311	0.74257	0.49699	0.009
Mof_C 	C 	0.92734	0.71842	0.48724	-0.094
Mof_C 	C 	0.95703	0.72231	0.48593	0.053
Mof_C 	C 	0.96168	0.7044	0.5733	0.061
Mof_C 	C 	0.95672	0.67448	0.6031	-0.103
Mof_C 	C 	0.98542	0.64206	0.60506	0.012
Mof_C 	C 	0.01851	0.64159	0.57727	-0.055
Mof_C 	C 	0.02128	0.67322	0.5483	0.044
Mof_C 	C 	0.05038	0.6081	0.57822	0.137
Mof_C 	C 	0.54027	0.52609	0.76973	0.097
Mof_C 	C 	0.29568	0.4476	0.702	0.108
Mof_C 	C 	0.26741	0.52913	0.91163	0.037
Mof_C 	C 	0.26595	0.53799	0.87839	-0.048
Mof_C 	C 	0.2325	0.54908	0.87494	0.006
Mof_C 	C 	0.20188	0.55064	0.90618	-0.098
Mof_C 	C 	0.20669	0.53935	0.93891	0.062
Mof_C 	C 	0.45844	0.51462	0.82082	0.057
Mof_C 	C 	0.42759	0.52131	0.85019	-0.099
Mof_C 	C 	0.39504	0.52492	0.8511	0.009
Mof_C 	C 	0.39392	0.5223	0.82228	-0.049
Mof_C 	C 	0.42595	0.51605	0.79349	0.036
Mof_C 	C 	0.36022	0.52386	0.82254	0.135
Mof_C 	C 	0.33285	0.51733	0.79663	0.135
Mof_C 	C 	0.30011	0.53261	0.84783	0.132
Mof_C 	C 	0.30408	0.50436	0.77206	0.044
Mof_C 	C 	0.33482	0.50688	0.76962	-0.053
Mof_C 	C 	0.36733	0.49699	0.74257	0.009
Mof_C 	C 	0.367	0.48724	0.71842	-0.094
Mof_C 	C 	0.33473	0.48593	0.72231	0.053
Mof_C 	C 	0.26062	0.5733	0.7044	0.061
Mof_C 	C 	0.2657	0.6031	0.67448	-0.103
Mof_C 	C 	0.26746	0.60506	0.64206	0.012
Mof_C 	C 	0.26263	0.57727	0.64159	-0.055
Mof_C 	C 	0.2572	0.5483	0.67322	0.044
Mof_C 	C 	0.2633	0.57822	0.6081	0.137
Mof_C 	C 	0.02609	0.04027	0.16391	0.097
Mof_C 	C 	0.9476	0.79568	0.55472	0.108
Mof_C 	C 	0.02913	0.76741	0.29183	0.037
Mof_C 	C 	0.03799	0.76595	0.31767	-0.048
Mof_C 	C 	0.04908	0.7325	0.34348	0.006
Mof_C 	C 	0.05064	0.70188	0.3413	-0.098
Mof_C 	C 	0.03935	0.70669	0.31505	0.062
Mof_C 	C 	0.01462	0.95844	0.20612	0.057
Mof_C 	C 	0.02131	0.92759	0.20091	-0.098
Mof_C 	C 	0.02492	0.89504	0.22894	0.009
Mof_C 	C 	0.0223	0.89392	0.2615	-0.049
Mof_C 	C 	0.01605	0.92595	0.26451	0.036
Mof_C 	C 	0.02386	0.86022	0.29338	0.135
Mof_C 	C 	0.01733	0.83285	0.35319	0.135
Mof_C 	C 	0.03261	0.80011	0.31945	0.132
Mof_C 	C 	0.00436	0.80408	0.4195	0.044
Mof_C 	C 	0.00688	0.83482	0.38868	-0.053
Mof_C 	C 	0.99699	0.86733	0.39311	0.009
Mof_C 	C 	0.98724	0.867	0.42734	-0.094
Mof_C 	C 	0.98593	0.83473	0.45703	0.053
Mof_C 	C 	0.0733	0.76062	0.46168	0.061
Mof_C 	C 	0.1031	0.7657	0.45672	-0.103
Mof_C 	C 	0.10506	0.76746	0.48542	0.012
Mof_C 	C 	0.07727	0.76263	0.51851	-0.055
Mof_C 	C 	0.0483	0.7572	0.52128	0.044
Mof_C 	C 	0.07822	0.7633	0.55038	0.137
Mof_C 	C 	0.26973	0.04027	0.52609	0.097
Mof_C 	C 	0.202	0.79568	0.4476	0.108
Mof_C 	C 	0.41163	0.76741	0.52913	0.037
Mof_C 	C 	0.37839	0.76595	0.53799	-0.048
Mof_C 	C 	0.37494	0.7325	0.54908	0.006
Mof_C 	C 	0.40618	0.70188	0.55064	-0.098
Mof_C 	C 	0.43891	0.70669	0.53935	0.062
Mof_C 	C 	0.32082	0.95844	0.51462	0.057
Mof_C 	C 	0.35019	0.92759	0.52131	-0.098
Mof_C 	C 	0.3511	0.89504	0.52492	0.009
Mof_C 	C 	0.32228	0.89392	0.5223	-0.049
Mof_C 	C 	0.29349	0.92595	0.51605	0.036
Mof_C 	C 	0.32254	0.86022	0.52386	0.135
Mof_C 	C 	0.29663	0.83285	0.51733	0.135
Mof_C 	C 	0.34783	0.80011	0.53261	0.132
Mof_C 	C 	0.27206	0.80408	0.50436	0.044
Mof_C 	C 	0.26962	0.83482	0.50688	-0.053
Mof_C 	C 	0.24257	0.86733	0.49699	0.009
Mof_C 	C 	0.21842	0.867	0.48724	-0.094
Mof_C 	C 	0.22231	0.83473	0.48593	0.053
Mof_C 	C 	0.2044	0.76062	0.5733	0.061
Mof_C 	C 	0.17448	0.7657	0.6031	-0.103
Mof_C 	C 	0.14206	0.76746	0.60506	0.012
Mof_C 	C 	0.14159	0.76263	0.57727	-0.055
Mof_C 	C 	0.17322	0.7572	0.5483	0.044
Mof_C 	C 	0.1081	0.7633	0.57822	0.137
Mof_C 	C 	0.66391	0.52609	0.04027	0.097
Mof_C 	C 	0.05472	0.4476	0.79568	0.108
Mof_C 	C 	0.79183	0.52913	0.76741	0.037
Mof_C 	C 	0.81767	0.53799	0.76595	-0.048
Mof_C 	C 	0.84348	0.54908	0.7325	0.006
Mof_C 	C 	0.8413	0.55064	0.70188	-0.098
Mof_C 	C 	0.81505	0.53935	0.70669	0.062
Mof_C 	C 	0.70612	0.51462	0.95844	0.057
Mof_C 	C 	0.70091	0.52131	0.92759	-0.098
Mof_C 	C 	0.72894	0.52492	0.89504	0.009
Mof_C 	C 	0.7615	0.5223	0.89392	-0.049
Mof_C 	C 	0.76451	0.51605	0.92595	0.036
Mof_C 	C 	0.79338	0.52386	0.86022	0.135
Mof_C 	C 	0.85319	0.51733	0.83285	0.135
Mof_C 	C 	0.81945	0.53261	0.80011	0.132
Mof_C 	C 	0.9195	0.50436	0.80408	0.044
Mof_C 	C 	0.88868	0.50688	0.83482	-0.053
Mof_C 	C 	0.89311	0.49699	0.86733	0.009
Mof_C 	C 	0.92734	0.48724	0.867	-0.094
Mof_C 	C 	0.95703	0.48593	0.83473	0.053
Mof_C 	C 	0.96168	0.5733	0.76062	0.061
Mof_C 	C 	0.95672	0.6031	0.7657	-0.103
Mof_C 	C 	0.98542	0.60506	0.76746	0.012
Mof_C 	C 	0.01851	0.57727	0.76263	-0.055
Mof_C 	C 	0.02128	0.5483	0.7572	0.044
Mof_C 	C 	0.05038	0.57822	0.7633	0.137
Mof_C 	C 	0.54027	0.76973	0.16391	0.097
Mof_C 	C 	0.29568	0.702	0.55472	0.108
Mof_C 	C 	0.26741	0.91163	0.29183	0.037
Mof_C 	C 	0.26595	0.87839	0.31767	-0.048
Mof_C 	C 	0.2325	0.87494	0.34348	0.006
Mof_C 	C 	0.20188	0.90618	0.3413	-0.098
Mof_C 	C 	0.20669	0.93891	0.31505	0.062
Mof_C 	C 	0.45844	0.82082	0.20612	0.057
Mof_C 	C 	0.42759	0.85019	0.20091	-0.099
Mof_C 	C 	0.39504	0.8511	0.22894	0.009
Mof_C 	C 	0.39392	0.82228	0.2615	-0.049
Mof_C 	C 	0.42595	0.79349	0.26451	0.036
Mof_C 	C 	0.36022	0.82254	0.29338	0.135
Mof_C 	C 	0.33285	0.79663	0.35319	0.135
Mof_C 	C 	0.30011	0.84783	0.31945	0.132
Mof_C 	C 	0.30408	0.77206	0.4195	0.044
Mof_C 	C 	0.33482	0.76962	0.38868	-0.053
Mof_C 	C 	0.36733	0.74257	0.39311	0.009
Mof_C 	C 	0.367	0.71842	0.42734	-0.094
Mof_C 	C 	0.33473	0.72231	0.45703	0.053
Mof_C 	C 	0.26062	0.7044	0.46168	0.061
Mof_C 	C 	0.2657	0.67448	0.45672	-0.103
Mof_C 	C 	0.26746	0.64206	0.48542	0.012
Mof_C 	C 	0.26263	0.64159	0.51851	-0.055
Mof_C 	C 	0.2572	0.67322	0.52128	0.044
Mof_C 	C 	0.2633	0.6081	0.55038	0.137
Mof_C 	C 	0.02609	0.16391	0.76973	0.097
Mof_C 	C 	0.9476	0.55472	0.702	0.108
Mof_C 	C 	0.02913	0.29183	0.91163	0.037
Mof_C 	C 	0.03799	0.31767	0.87839	-0.048
Mof_C 	C 	0.04908	0.34348	0.87494	0.006
Mof_C 	C 	0.05064	0.3413	0.90618	-0.098
Mof_C 	C 	0.03935	0.31505	0.93891	0.062
Mof_C 	C 	0.01462	0.20612	0.82082	0.057
Mof_C 	C 	0.02131	0.20091	0.85019	-0.098
Mof_C 	C 	0.02492	0.22894	0.8511	0.009
Mof_C 	C 	0.0223	0.2615	0.82228	-0.049
Mof_C 	C 	0.01605	0.26451	0.79349	0.036
Mof_C 	C 	0.02386	0.29338	0.82254	0.135
Mof_C 	C 	0.01733	0.35319	0.79663	0.135
Mof_C 	C 	0.03261	0.31945	0.84783	0.132
Mof_C 	C 	0.00436	0.4195	0.77206	0.044
Mof_C 	C 	0.00688	0.38868	0.76962	-0.053
Mof_C 	C 	0.99699	0.39311	0.74257	0.009
Mof_C 	C 	0.98724	0.42734	0.71842	-0.094
Mof_C 	C 	0.98593	0.45703	0.72231	0.053
Mof_C 	C 	0.0733	0.46168	0.7044	0.061
Mof_C 	C 	0.1031	0.45672	0.67448	-0.103
Mof_C 	C 	0.10506	0.48542	0.64206	0.012
Mof_C 	C 	0.07727	0.51851	0.64159	-0.055
Mof_C 	C 	0.0483	0.52128	0.67322	0.044
Mof_C 	C 	0.07822	0.55038	0.6081	0.137
Mof_C 	C 	0.26973	0.52609	0.16391	0.097
Mof_C 	C 	0.202	0.4476	0.55472	0.108
Mof_C 	C 	0.41163	0.52913	0.29183	0.037
Mof_C 	C 	0.37839	0.53799	0.31767	-0.048
Mof_C 	C 	0.37494	0.54908	0.34348	0.006
Mof_C 	C 	0.40618	0.55064	0.3413	-0.098
Mof_C 	C 	0.43891	0.53935	0.31505	0.062
Mof_C 	C 	0.32082	0.51462	0.20612	0.057
Mof_C 	C 	0.35019	0.52131	0.20091	-0.099
Mof_C 	C 	0.3511	0.52492	0.22894	0.009
Mof_C 	C 	0.32228	0.5223	0.2615	-0.049
Mof_C 	C 	0.29349	0.51605	0.26451	0.036
Mof_C 	C 	0.32254	0.52386	0.29338	0.135
Mof_C 	C 	0.29663	0.51733	0.35319	0.135
Mof_C 	C 	0.34783	0.53261	0.31945	0.132
Mof_C 	C 	0.27206	0.50436	0.4195	0.044
Mof_C 	C 	0.26962	0.50688	0.38868	-0.053
Mof_C 	C 	0.24257	0.49699	0.39311	0.009
Mof_C 	C 	0.21842	0.48724	0.42734	-0.094
Mof_C 	C 	0.22231	0.48593	0.45703	0.053
Mof_C 	C 	0.2044	0.5733	0.46168	0.061
Mof_C 	C 	0.17448	0.6031	0.45672	-0.103
Mof_C 	C 	0.14206	0.60506	0.48542	0.012
Mof_C 	C 	0.14159	0.57727	0.51851	-0.055
Mof_C 	C 	0.17322	0.5483	0.52128	0.044
Mof_C 	C 	0.1081	0.57822	0.55038	0.137
Mof_C 	C 	0.66391	0.04027	0.76973	0.097
Mof_C 	C 	0.05472	0.79568	0.702	0.108
Mof_C 	C 	0.79183	0.76741	0.91163	0.037
Mof_C 	C 	0.81767	0.76595	0.87839	-0.048
Mof_C 	C 	0.84348	0.7325	0.87494	0.006
Mof_C 	C 	0.8413	0.70188	0.90618	-0.098
Mof_C 	C 	0.81505	0.70669	0.93891	0.062
Mof_C 	C 	0.70612	0.95844	0.82082	0.057
Mof_C 	C 	0.70091	0.92759	0.85019	-0.098
Mof_C 	C 	0.72894	0.89504	0.8511	0.009
Mof_C 	C 	0.7615	0.89392	0.82228	-0.049
Mof_C 	C 	0.76451	0.92595	0.79349	0.036
Mof_C 	C 	0.79338	0.86022	0.82254	0.135
Mof_C 	C 	0.85319	0.83285	0.79663	0.135
Mof_C 	C 	0.81945	0.80011	0.84783	0.132
Mof_C 	C 	0.9195	0.80408	0.77206	0.044
Mof_C 	C 	0.88868	0.83482	0.76962	-0.053
Mof_C 	C 	0.89311	0.86733	0.74257	0.009
Mof_C 	C 	0.92734	0.867	0.71842	-0.094
Mof_C 	C 	0.95703	0.83473	0.72231	0.053
Mof_C 	C 	0.96168	0.76062	0.7044	0.061
Mof_C 	C 	0.95672	0.7657	0.67448	-0.103
Mof_C 	C 	0.98542	0.76746	0.64206	0.012
Mof_C 	C 	0.01851	0.76263	0.64159	-0.055
Mof_C 	C 	0.02128	0.7572	0.67322	0.044
Mof_C 	C 	0.05038	0.7633	0.6081	0.137
Mof_C 	C 	0.54027	0.16391	0.52609	0.097
Mof_C 	C 	0.29568	0.55472	0.4476	0.108
Mof_C 	C 	0.26741	0.29183	0.52913	0.037
Mof_C 	C 	0.26595	0.31767	0.53799	-0.048
Mof_C 	C 	0.2325	0.34348	0.54908	0.006
Mof_C 	C 	0.20188	0.3413	0.55064	-0.098
Mof_C 	C 	0.20669	0.31505	0.53935	0.062
Mof_C 	C 	0.45844	0.20612	0.51462	0.057
Mof_C 	C 	0.42759	0.20091	0.52131	-0.099
Mof_C 	C 	0.39504	0.22894	0.52492	0.009
Mof_C 	C 	0.39392	0.2615	0.5223	-0.049
Mof_C 	C 	0.42595	0.26451	0.51605	0.036
Mof_C 	C 	0.36022	0.29338	0.52386	0.135
Mof_C 	C 	0.33285	0.35319	0.51733	0.135
Mof_C 	C 	0.30011	0.31945	0.53261	0.132
Mof_C 	C 	0.30408	0.4195	0.50436	0.044
Mof_C 	C 	0.33482	0.38868	0.50688	-0.053
Mof_C 	C 	0.36733	0.39311	0.49699	0.009
Mof_C 	C 	0.367	0.42734	0.48724	-0.094
Mof_C 	C 	0.33473	0.45703	0.48593	0.053
Mof_C 	C 	0.26062	0.46168	0.5733	0.061
Mof_C 	C 	0.2657	0.45672	0.6031	-0.103
Mof_C 	C 	0.26746	0.48542	0.60506	0.012
Mof_C 	C 	0.26263	0.51851	0.57727	-0.055
Mof_C 	C 	0.2572	0.52128	0.5483	0.044
Mof_C 	C 	0.2633	0.55038	0.57822	0.137
Mof_C 	C 	0.02609	0.76973	0.04027	0.097
Mof_C 	C 	0.9476	0.702	0.79568	0.108
Mof_C 	C 	0.02913	0.91163	0.76741	0.037
Mof_C 	C 	0.03799	0.87839	0.76595	-0.048
Mof_C 	C 	0.04908	0.87494	0.7325	0.006
Mof_C 	C 	0.05064	0.90618	0.70188	-0.098
Mof_C 	C 	0.03935	0.93891	0.70669	0.062
Mof_C 	C 	0.01462	0.82082	0.95844	0.057
Mof_C 	C 	0.02131	0.85019	0.92759	-0.098
Mof_C 	C 	0.02492	0.8511	0.89504	0.009
Mof_C 	C 	0.0223	0.82228	0.89392	-0.049
Mof_C 	C 	0.01605	0.79349	0.92595	0.036
Mof_C 	C 	0.02386	0.82254	0.86022	0.135
Mof_C 	C 	0.01733	0.79663	0.83285	0.135
Mof_C 	C 	0.03261	0.84783	0.80011	0.132
Mof_C 	C 	0.00436	0.77206	0.80408	0.044
Mof_C 	C 	0.00688	0.76962	0.83482	-0.053
Mof_C 	C 	0.99699	0.74257	0.86733	0.009
Mof_C 	C 	0.98724	0.71842	0.867	-0.094
Mof_C 	C 	0.98593	0.72231	0.83473	0.053
Mof_C 	C 	0.0733	0.7044	0.76062	0.061
Mof_C 	C 	0.1031	0.67448	0.7657	-0.103
Mof_C 	C 	0.10506	0.64206	0.76746	0.012
Mof_C 	C 	0.07727	0.64159	0.76263	-0.055
Mof_C 	C 	0.0483	0.67322	0.7572	0.044
Mof_C 	C 	0.07822	0.6081	0.7633	0.137
Mof_C 	C 	0.83609	0.73027	0.45973	0.097
Mof_C 	C 	0.44528	0.798	0.70432	0.108
Mof_C 	C 	0.70817	0.58837	0.73259	0.037
Mof_C 	C 	0.68233	0.62161	0.73405	-0.048
Mof_C 	C 	0.65652	0.62506	0.7675	0.006
Mof_C 	C 	0.6587	0.59382	0.79812	-0.098
Mof_C 	C 	0.68495	0.56109	0.79331	0.062
Mof_C 	C 	0.79388	0.67918	0.54156	0.057
Mof_C 	C 	0.79909	0.64981	0.57241	-0.099
Mof_C 	C 	0.77106	0.6489	0.60496	0.009
Mof_C 	C 	0.7385	0.67772	0.60608	-0.049
Mof_C 	C 	0.73549	0.70651	0.57405	0.036
Mof_C 	C 	0.70662	0.67746	0.63978	0.135
Mof_C 	C 	0.64681	0.70337	0.66715	0.135
Mof_C 	C 	0.68055	0.65217	0.69989	0.132
Mof_C 	C 	0.5805	0.72794	0.69592	0.044
Mof_C 	C 	0.61132	0.73038	0.66518	-0.053
Mof_C 	C 	0.60689	0.75743	0.63267	0.009
Mof_C 	C 	0.57266	0.78158	0.633	-0.094
Mof_C 	C 	0.54297	0.77769	0.66527	0.053
Mof_C 	C 	0.53832	0.7956	0.73938	0.061
Mof_C 	C 	0.54328	0.82552	0.7343	-0.103
Mof_C 	C 	0.51458	0.85794	0.73254	0.012
Mof_C 	C 	0.48149	0.85841	0.73737	-0.055
Mof_C 	C 	0.47872	0.82678	0.7428	0.044
Mof_C 	C 	0.44962	0.8919	0.7367	0.137
Mof_C 	C 	0.23027	0.33609	0.97391	0.097
Mof_C 	C 	0.298	0.94528	0.0524	0.108
Mof_C 	C 	0.08837	0.20817	0.97087	0.037
Mof_C 	C 	0.12161	0.18233	0.96201	-0.048
Mof_C 	C 	0.12506	0.15652	0.95092	0.006
Mof_C 	C 	0.09382	0.1587	0.94936	-0.098
Mof_C 	C 	0.06109	0.18495	0.96065	0.062
Mof_C 	C 	0.17918	0.29388	0.98538	0.057
Mof_C 	C 	0.14981	0.29909	0.97869	-0.099
Mof_C 	C 	0.1489	0.27106	0.97508	0.009
Mof_C 	C 	0.17772	0.2385	0.9777	-0.049
Mof_C 	C 	0.20651	0.23549	0.98395	0.036
Mof_C 	C 	0.17746	0.20662	0.97614	0.135
Mof_C 	C 	0.20337	0.14681	0.98267	0.135
Mof_C 	C 	0.15217	0.18055	0.96739	0.132
Mof_C 	C 	0.22794	0.0805	0.99564	0.044
Mof_C 	C 	0.23038	0.11132	0.99312	-0.053
Mof_C 	C 	0.25743	0.10689	0.00301	0.009
Mof_C 	C 	0.28158	0.07266	0.01276	-0.094
Mof_C 	C 	0.27769	0.04297	0.01407	0.053
Mof_C 	C 	0.2956	0.03832	0.9267	0.061
Mof_C 	C 	0.32552	0.04328	0.8969	-0.103
Mof_C 	C 	0.35794	0.01458	0.89494	0.012
Mof_C 	C 	0.35841	0.98149	0.92273	-0.055
Mof_C 	C 	0.32678	0.97872	0.9517	0.044
Mof_C 	C 	0.3919	0.94962	0.92178	0.137
Mof_C 	C 	0.47391	0.45973	0.73027	0.097
Mof_C 	C 	0.5524	0.70432	0.798	0.108
Mof_C 	C 	0.47087	0.73259	0.58837	0.037
Mof_C 	C 	0.46201	0.73405	0.62161	-0.048
Mof_C 	C 	0.45092	0.7675	0.62506	0.006
Mof_C 	C 	0.44936	0.79812	0.59382	-0.098
Mof_C 	C 	0.46065	0.79331	0.56109	0.062
Mof_C 	C 	0.48538	0.54156	0.67918	0.057
Mof_C 	C 	0.47869	0.57241	0.64981	-0.099
Mof_C 	C 	0.47508	0.60496	0.6489	0.009
Mof_C 	C 	0.4777	0.60608	0.67772	-0.049
Mof_C 	C 	0.48395	0.57405	0.70651	0.036
Mof_C 	C 	0.47614	0.63978	0.67746	0.135
Mof_C 	C 	0.48267	0.66715	0.70337	0.135
Mof_C 	C 	0.46739	0.69989	0.65217	0.132
Mof_C 	C 	0.49564	0.69592	0.72794	0.044
Mof_C 	C 	0.49312	0.66518	0.73038	-0.053
Mof_C 	C 	0.50301	0.63267	0.75743	0.009
Mof_C 	C 	0.51276	0.633	0.78158	-0.094
Mof_C 	C 	0.51407	0.66527	0.77769	0.053
Mof_C 	C 	0.4267	0.73938	0.7956	0.061
Mof_C 	C 	0.3969	0.7343	0.82552	-0.103
Mof_C 	C 	0.39494	0.73254	0.85794	0.012
Mof_C 	C 	0.42273	0.73737	0.85841	-0.055
Mof_C 	C 	0.4517	0.7428	0.82678	0.044
Mof_C 	C 	0.42178	0.7367	0.8919	0.137
Mof_C 	C 	0.95973	0.97391	0.33609	0.097
Mof_C 	C 	0.20432	0.0524	0.94528	0.108
Mof_C 	C 	0.23259	0.97087	0.20817	0.037
Mof_C 	C 	0.23405	0.96201	0.18233	-0.048
Mof_C 	C 	0.2675	0.95092	0.15652	0.006
Mof_C 	C 	0.29812	0.94936	0.1587	-0.098
Mof_C 	C 	0.29331	0.96065	0.18495	0.062
Mof_C 	C 	0.04156	0.98538	0.29388	0.057
Mof_C 	C 	0.07241	0.97869	0.29909	-0.098
Mof_C 	C 	0.10496	0.97508	0.27106	0.009
Mof_C 	C 	0.10608	0.9777	0.2385	-0.049
Mof_C 	C 	0.07405	0.98395	0.23549	0.036
Mof_C 	C 	0.13978	0.97614	0.20662	0.135
Mof_C 	C 	0.16715	0.98267	0.14681	0.135
Mof_C 	C 	0.19989	0.96739	0.18055	0.132
Mof_C 	C 	0.19592	0.99564	0.0805	0.044
Mof_C 	C 	0.16518	0.99312	0.11132	-0.053
Mof_C 	C 	0.13267	0.00301	0.10689	0.009
Mof_C 	C 	0.133	0.01276	0.07266	-0.094
Mof_C 	C 	0.16527	0.01407	0.04297	0.053
Mof_C 	C 	0.23938	0.9267	0.03832	0.061
Mof_C 	C 	0.2343	0.8969	0.04328	-0.103
Mof_C 	C 	0.23254	0.89494	0.01458	0.012
Mof_C 	C 	0.23737	0.92273	0.98149	-0.055
Mof_C 	C 	0.2428	0.9517	0.97872	0.044
Mof_C 	C 	0.2367	0.92178	0.94962	0.137
Mof_C 	C 	0.95973	0.73027	0.97391	0.097
Mof_C 	C 	0.20432	0.798	0.0524	0.108
Mof_C 	C 	0.23259	0.58837	0.97087	0.037
Mof_C 	C 	0.23405	0.62161	0.96201	-0.048
Mof_C 	C 	0.2675	0.62506	0.95092	0.006
Mof_C 	C 	0.29812	0.59382	0.94936	-0.098
Mof_C 	C 	0.29331	0.56109	0.96065	0.062
Mof_C 	C 	0.04156	0.67918	0.98538	0.057
Mof_C 	C 	0.07241	0.64981	0.97869	-0.098
Mof_C 	C 	0.10496	0.6489	0.97508	0.009
Mof_C 	C 	0.10608	0.67772	0.9777	-0.049
Mof_C 	C 	0.07405	0.70651	0.98395	0.036
Mof_C 	C 	0.13978	0.67746	0.97614	0.135
Mof_C 	C 	0.16715	0.70337	0.98267	0.135
Mof_C 	C 	0.19989	0.65217	0.96739	0.132
Mof_C 	C 	0.19592	0.72794	0.99564	0.044
Mof_C 	C 	0.16518	0.73038	0.99312	-0.053
Mof_C 	C 	0.13267	0.75743	0.00301	0.009
Mof_C 	C 	0.133	0.78158	0.01276	-0.094
Mof_C 	C 	0.16527	0.77769	0.01407	0.053
Mof_C 	C 	0.23938	0.7956	0.9267	0.061
Mof_C 	C 	0.2343	0.82552	0.8969	-0.103
Mof_C 	C 	0.23254	0.85794	0.89494	0.012
Mof_C 	C 	0.23737	0.85841	0.92273	-0.055
Mof_C 	C 	0.2428	0.82678	0.9517	0.044
Mof_C 	C 	0.2367	0.8919	0.92178	0.137
Mof_C 	C 	0.47391	0.33609	0.45973	0.097
Mof_C 	C 	0.5524	0.94528	0.70432	0.108
Mof_C 	C 	0.47087	0.20817	0.73259	0.037
Mof_C 	C 	0.46201	0.18233	0.73405	-0.048
Mof_C 	C 	0.45092	0.15652	0.7675	0.006
Mof_C 	C 	0.44936	0.1587	0.79812	-0.098
Mof_C 	C 	0.46065	0.18495	0.79331	0.062
Mof_C 	C 	0.48538	0.29388	0.54156	0.057
Mof_C 	C 	0.47869	0.29909	0.57241	-0.099
Mof_C 	C 	0.47508	0.27106	0.60496	0.009
Mof_C 	C 	0.4777	0.2385	0.60608	-0.049
Mof_C 	C 	0.48395	0.23549	0.57405	0.036
Mof_C 	C 	0.47614	0.20662	0.63978	0.135
Mof_C 	C 	0.48267	0.14681	0.66715	0.135
Mof_C 	C 	0.46739	0.18055	0.69989	0.132
Mof_C 	C 	0.49564	0.0805	0.69592	0.044
Mof_C 	C 	0.49312	0.11132	0.66518	-0.053
Mof_C 	C 	0.50301	0.10689	0.63267	0.009
Mof_C 	C 	0.51276	0.07266	0.633	-0.094
Mof_C 	C 	0.51407	0.04297	0.66527	0.053
Mof_C 	C 	0.4267	0.03832	0.73938	0.061
Mof_C 	C 	0.3969	0.04328	0.7343	-0.103
Mof_C 	C 	0.39494	0.01458	0.73254	0.012
Mof_C 	C 	0.42273	0.98149	0.73737	-0.055
Mof_C 	C 	0.4517	0.97872	0.7428	0.044
Mof_C 	C 	0.42178	0.94962	0.7367	0.137
Mof_C 	C 	0.23027	0.45973	0.33609	0.097
Mof_C 	C 	0.298	0.70432	0.94528	0.108
Mof_C 	C 	0.08837	0.73259	0.20817	0.037
Mof_C 	C 	0.12161	0.73405	0.18233	-0.048
Mof_C 	C 	0.12506	0.7675	0.15652	0.006
Mof_C 	C 	0.09382	0.79812	0.1587	-0.098
Mof_C 	C 	0.06109	0.79331	0.18495	0.062
Mof_C 	C 	0.17918	0.54156	0.29388	0.057
Mof_C 	C 	0.14981	0.57241	0.29909	-0.099
Mof_C 	C 	0.1489	0.60496	0.27106	0.009
Mof_C 	C 	0.17772	0.60608	0.2385	-0.049
Mof_C 	C 	0.20651	0.57405	0.23549	0.036
Mof_C 	C 	0.17746	0.63978	0.20662	0.135
Mof_C 	C 	0.20337	0.66715	0.14681	0.135
Mof_C 	C 	0.15217	0.69989	0.18055	0.132
Mof_C 	C 	0.22794	0.69592	0.0805	0.044
Mof_C 	C 	0.23038	0.66518	0.11132	-0.053
Mof_C 	C 	0.25743	0.63267	0.10689	0.009
Mof_C 	C 	0.28158	0.633	0.07266	-0.094
Mof_C 	C 	0.27769	0.66527	0.04297	0.053
Mof_C 	C 	0.2956	0.73938	0.03832	0.061
Mof_C 	C 	0.32552	0.7343	0.04328	-0.103
Mof_C 	C 	0.35794	0.73254	0.01458	0.012
Mof_C 	C 	0.35841	0.73737	0.98149	-0.055
Mof_C 	C 	0.32678	0.7428	0.97872	0.044
Mof_C 	C 	0.3919	0.7367	0.94962	0.137
Mof_C 	C 	0.83609	0.97391	0.73027	0.097
Mof_C 	C 	0.44528	0.0524	0.798	0.108
Mof_C 	C 	0.70817	0.97087	0.58837	0.037
Mof_C 	C 	0.68233	0.96201	0.62161	-0.048
Mof_C 	C 	0.65652	0.95092	0.62506	0.006
Mof_C 	C 	0.6587	0.94936	0.59382	-0.098
Mof_C 	C 	0.68495	0.96065	0.56109	0.062
Mof_C 	C 	0.79388	0.98538	0.67918	0.057
Mof_C 	C 	0.79909	0.97869	0.64981	-0.098
Mof_C 	C 	0.77106	0.97508	0.6489	0.009
Mof_C 	C 	0.7385	0.9777	0.67772	-0.049
Mof_C 	C 	0.73549	0.98395	0.70651	0.036
Mof_C 	C 	0.70662	0.97614	0.67746	0.135
Mof_C 	C 	0.64681	0.98267	0.70337	0.135
Mof_C 	C 	0.68055	0.96739	0.65217	0.132
Mof_C 	C 	0.5805	0.99564	0.72794	0.044
Mof_C 	C 	0.61132	0.99312	0.73038	-0.053
Mof_C 	C 	0.60689	0.00301	0.75743	0.009
Mof_C 	C 	0.57266	0.01276	0.78158	-0.094
Mof_C 	C 	0.54297	0.01407	0.77769	0.053
Mof_C 	C 	0.53832	0.9267	0.7956	0.061
Mof_C 	C 	0.54328	0.8969	0.82552	-0.103
Mof_C 	C 	0.51458	0.89494	0.85794	0.012
Mof_C 	C 	0.48149	0.92273	0.85841	-0.055
Mof_C 	C 	0.47872	0.9517	0.82678	0.044
Mof_C 	C 	0.44962	0.92178	0.8919	0.137
Mof_C 	C 	0.47391	0.73027	0.33609	0.097
Mof_C 	C 	0.5524	0.798	0.94528	0.108
Mof_C 	C 	0.47087	0.58837	0.20817	0.037
Mof_C 	C 	0.46201	0.62161	0.18233	-0.048
Mof_C 	C 	0.45092	0.62506	0.15652	0.006
Mof_C 	C 	0.44936	0.59382	0.1587	-0.098
Mof_C 	C 	0.46065	0.56109	0.18495	0.062
Mof_C 	C 	0.48538	0.67918	0.29388	0.057
Mof_C 	C 	0.47869	0.64981	0.29909	-0.099
Mof_C 	C 	0.47508	0.6489	0.27106	0.009
Mof_C 	C 	0.4777	0.67772	0.2385	-0.049
Mof_C 	C 	0.48395	0.70651	0.23549	0.036
Mof_C 	C 	0.47614	0.67746	0.20662	0.135
Mof_C 	C 	0.48267	0.70337	0.14681	0.135
Mof_C 	C 	0.46739	0.65217	0.18055	0.132
Mof_C 	C 	0.49564	0.72794	0.0805	0.044
Mof_C 	C 	0.49312	0.73038	0.11132	-0.053
Mof_C 	C 	0.50301	0.75743	0.10689	0.009
Mof_C 	C 	0.51276	0.78158	0.07266	-0.094
Mof_C 	C 	0.51407	0.77769	0.04297	0.053
Mof_C 	C 	0.4267	0.7956	0.03832	0.061
Mof_C 	C 	0.3969	0.82552	0.04328	-0.103
Mof_C 	C 	0.39494	0.85794	0.01458	0.012
Mof_C 	C 	0.42273	0.85841	0.98149	-0.055
Mof_C 	C 	0.4517	0.82678	0.97872	0.044
Mof_C 	C 	0.42178	0.8919	0.94962	0.137
Mof_C 	C 	0.95973	0.33609	0.73027	0.097
Mof_C 	C 	0.20432	0.94528	0.798	0.108
Mof_C 	C 	0.23259	0.20817	0.58837	0.037
Mof_C 	C 	0.23405	0.18233	0.62161	-0.048
Mof_C 	C 	0.2675	0.15652	0.62506	0.006
Mof_C 	C 	0.29812	0.1587	0.59382	-0.098
Mof_C 	C 	0.29331	0.18495	0.56109	0.062
Mof_C 	C 	0.04156	0.29388	0.67918	0.057
Mof_C 	C 	0.07241	0.29909	0.64981	-0.098
Mof_C 	C 	0.10496	0.27106	0.6489	0.009
Mof_C 	C 	0.10608	0.2385	0.67772	-0.049
Mof_C 	C 	0.07405	0.23549	0.70651	0.036
Mof_C 	C 	0.13978	0.20662	0.67746	0.135
Mof_C 	C 	0.16715	0.14681	0.70337	0.135
Mof_C 	C 	0.19989	0.18055	0.65217	0.132
Mof_C 	C 	0.19592	0.0805	0.72794	0.044
Mof_C 	C 	0.16518	0.11132	0.73038	-0.053
Mof_C 	C 	0.13267	0.10689	0.75743	0.009
Mof_C 	C 	0.133	0.07266	0.78158	-0.094
Mof_C 	C 	0.16527	0.04297	0.77769	0.053
Mof_C 	C 	0.23938	0.03832	0.7956	0.061
Mof_C 	C 	0.2343	0.04328	0.82552	-0.103
Mof_C 	C 	0.23254	0.01458	0.85794	0.012
Mof_C 	C 	0.23737	0.98149	0.85841	-0.055
Mof_C 	C 	0.2428	0.97872	0.82678	0.044
Mof_C 	C 	0.2367	0.94962	0.8919	0.137
Mof_C 	C 	0.83609	0.45973	0.97391	0.097
Mof_C 	C 	0.44528	0.70432	0.0524	0.108
Mof_C 	C 	0.70817	0.73259	0.97087	0.037
Mof_C 	C 	0.68233	0.73405	0.96201	-0.048
Mof_C 	C 	0.65652	0.7675	0.95092	0.006
Mof_C 	C 	0.6587	0.79812	0.94936	-0.098
Mof_C 	C 	0.68495	0.79331	0.96065	0.062
Mof_C 	C 	0.79388	0.54156	0.98538	0.057
Mof_C 	C 	0.79909	0.57241	0.97869	-0.098
Mof_C 	C 	0.77106	0.60496	0.97508	0.009
Mof_C 	C 	0.7385	0.60608	0.9777	-0.049
Mof_C 	C 	0.73549	0.57405	0.98395	0.036
Mof_C 	C 	0.70662	0.63978	0.97614	0.135
Mof_C 	C 	0.64681	0.66715	0.98267	0.135
Mof_C 	C 	0.68055	0.69989	0.96739	0.132
Mof_C 	C 	0.5805	0.69592	0.99564	0.044
Mof_C 	C 	0.61132	0.66518	0.99312	-0.053
Mof_C 	C 	0.60689	0.63267	0.00301	0.009
Mof_C 	C 	0.57266	0.633	0.01276	-0.094
Mof_C 	C 	0.54297	0.66527	0.01407	0.053
Mof_C 	C 	0.53832	0.73938	0.9267	0.061
Mof_C 	C 	0.54328	0.7343	0.8969	-0.103
Mof_C 	C 	0.51458	0.73254	0.89494	0.012
Mof_C 	C 	0.48149	0.73737	0.92273	-0.055
Mof_C 	C 	0.47872	0.7428	0.9517	0.044
Mof_C 	C 	0.44962	0.7367	0.92178	0.137
Mof_C 	C 	0.23027	0.97391	0.45973	0.097
Mof_C 	C 	0.298	0.0524	0.70432	0.108
Mof_C 	C 	0.08837	0.97087	0.73259	0.037
Mof_C 	C 	0.12161	0.96201	0.73405	-0.048
Mof_C 	C 	0.12506	0.95092	0.7675	0.006
Mof_C 	C 	0.09382	0.94936	0.79812	-0.098
Mof_C 	C 	0.06109	0.96065	0.79331	0.062
Mof_C 	C 	0.17918	0.98538	0.54156	0.057
Mof_C 	C 	0.14981	0.97869	0.57241	-0.098
Mof_C 	C 	0.1489	0.97508	0.60496	0.009
Mof_C 	C 	0.17772	0.9777	0.60608	-0.049
Mof_C 	C 	0.20651	0.98395	0.57405	0.036
Mof_C 	C 	0.17746	0.97614	0.63978	0.135
Mof_C 	C 	0.20337	0.98267	0.66715	0.135
Mof_C 	C 	0.15217	0.96739	0.69989	0.132
Mof_C 	C 	0.22794	0.99564	0.69592	0.044
Mof_C 	C 	0.23038	0.99312	0.66518	-0.053
Mof_C 	C 	0.25743	0.00301	0.63267	0.009
Mof_C 	C 	0.28158	0.01276	0.633	-0.094
Mof_C 	C 	0.27769	0.01407	0.66527	0.053
Mof_C 	C 	0.2956	0.9267	0.73938	0.061
Mof_C 	C 	0.32552	0.8969	0.7343	-0.103
Mof_C 	C 	0.35794	0.89494	0.73254	0.012
Mof_C 	C 	0.35841	0.92273	0.73737	-0.055
Mof_C 	C 	0.32678	0.9517	0.7428	0.044
Mof_C 	C 	0.3919	0.92178	0.7367	0.137
Mof_S 	S 	0.709	0.87964	0.94636	-0.061
Mof_S 	S 	0.82409	0.41441	0.18455	-0.062
Mof_S 	S 	0.37964	0.209	0.465	-0.061
Mof_S 	S 	0.91441	0.32409	0.57695	-0.062
Mof_S 	S 	0.44636	0.465	0.209	-0.061
Mof_S 	S 	0.68455	0.57695	0.32409	-0.062
Mof_S 	S 	0.965	0.94636	0.87964	-0.061
Mof_S 	S 	0.07695	0.18455	0.41441	-0.062
Mof_S 	S 	0.709	0.94636	0.465	-0.061
Mof_S 	S 	0.82409	0.18455	0.57695	-0.062
Mof_S 	S 	0.37964	0.465	0.94636	-0.061
Mof_S 	S 	0.91441	0.57695	0.18455	-0.062
Mof_S 	S 	0.44636	0.209	0.87964	-0.061
Mof_S 	S 	0.68455	0.32409	0.41441	-0.062
Mof_S 	S 	0.965	0.87964	0.209	-0.061
Mof_S 	S 	0.07695	0.41441	0.32409	-0.062
Mof_S 	S 	0.709	0.465	0.87964	-0.061
Mof_S 	S 	0.82409	0.57695	0.41441	-0.062
Mof_S 	S 	0.37964	0.94636	0.209	-0.061
Mof_S 	S 	0.91441	0.18455	0.32409	-0.062
Mof_S 	S 	0.44636	0.87964	0.465	-0.061
Mof_S 	S 	0.68455	0.41441	0.57695	-0.062
Mof_S 	S 	0.965	0.209	0.94636	-0.061
Mof_S 	S 	0.07695	0.32409	0.18455	-0.062
Mof_S 	S 	0.12036	0.291	0.55364	-0.061
Mof_S 	S 	0.58559	0.17591	0.31545	-0.062
Mof_S 	S 	0.791	0.62036	0.035	-0.061
Mof_S 	S 	0.67591	0.08559	0.92305	-0.062
Mof_S 	S 	0.535	0.55364	0.291	-0.061
Mof_S 	S 	0.42305	0.31545	0.17591	-0.062
Mof_S 	S 	0.05364	0.035	0.62036	-0.061
Mof_S 	S 	0.81545	0.92305	0.08559	-0.062
Mof_S 	S 	0.05364	0.291	0.035	-0.061
Mof_S 	S 	0.81545	0.17591	0.92305	-0.062
Mof_S 	S 	0.535	0.62036	0.55364	-0.061
Mof_S 	S 	0.42305	0.08559	0.31545	-0.062
Mof_S 	S 	0.791	0.55364	0.62036	-0.061
Mof_S 	S 	0.67591	0.31545	0.08559	-0.062
Mof_S 	S 	0.12036	0.035	0.291	-0.061
Mof_S 	S 	0.58559	0.92305	0.17591	-0.062
Mof_S 	S 	0.535	0.291	0.62036	-0.061
Mof_S 	S 	0.42305	0.17591	0.08559	-0.062
Mof_S 	S 	0.05364	0.62036	0.291	-0.061
Mof_S 	S 	0.81545	0.08559	0.17591	-0.062
Mof_S 	S 	0.12036	0.55364	0.035	-0.061
Mof_S 	S 	0.58559	0.31545	0.92305	-0.062
Mof_S 	S 	0.791	0.035	0.55364	-0.061
Mof_S 	S 	0.67591	0.92305	0.31545	-0.062
Mof_S 	S 	0.291	0.12036	0.05364	-0.061
Mof_S 	S 	0.17591	0.58559	0.81545	-0.062
Mof_S 	S 	0.62036	0.791	0.535	-0.061
Mof_S 	S 	0.08559	0.67591	0.42305	-0.062
Mof_S 	S 	0.55364	0.535	0.791	-0.061
Mof_S 	S 	0.31545	0.42305	0.67591	-0.062
Mof_S 	S 	0.035	0.05364	0.12036	-0.061
Mof_S 	S 	0.92305	0.81545	0.58559	-0.062
Mof_S 	S 	0.291	0.05364	0.535	-0.061
Mof_S 	S 	0.17591	0.81545	0.42305	-0.062
Mof_S 	S 	0.62036	0.535	0.05364	-0.061
Mof_S 	S 	0.08559	0.42305	0.81545	-0.062
Mof_S 	S 	0.55364	0.791	0.12036	-0.061
Mof_S 	S 	0.31545	0.67591	0.58559	-0.062
Mof_S 	S 	0.035	0.12036	0.791	-0.061
Mof_S 	S 	0.92305	0.58559	0.67591	-0.062
Mof_S 	S 	0.291	0.535	0.12036	-0.061
Mof_S 	S 	0.17591	0.42305	0.58559	-0.062
Mof_S 	S 	0.62036	0.05364	0.791	-0.061
Mof_S 	S 	0.08559	0.81545	0.67591	-0.062
Mof_S 	S 	0.55364	0.12036	0.535	-0.061
Mof_S 	S 	0.31545	0.58559	0.42305	-0.062
Mof_S 	S 	0.035	0.791	0.05364	-0.061
Mof_S 	S 	0.92305	0.67591	0.81545	-0.062
Mof_S 	S 	0.87964	0.709	0.44636	-0.061
Mof_S 	S 	0.41441	0.82409	0.68455	-0.062
Mof_S 	S 	0.209	0.37964	0.965	-0.061
Mof_S 	S 	0.32409	0.91441	0.07695	-0.062
Mof_S 	S 	0.465	0.44636	0.709	-0.061
Mof_S 	S 	0.57695	0.68455	0.82409	-0.062
Mof_S 	S 	0.94636	0.965	0.37964	-0.061
Mof_S 	S 	0.18455	0.07695	0.91441	-0.062
Mof_S 	S 	0.94636	0.709	0.965	-0.061
Mof_S 	S 	0.18455	0.82409	0.07695	-0.062
Mof_S 	S 	0.465	0.37964	0.44636	-0.061
Mof_S 	S 	0.57695	0.91441	0.68455	-0.062
Mof_S 	S 	0.209	0.44636	0.37964	-0.061
Mof_S 	S 	0.32409	0.68455	0.91441	-0.062
Mof_S 	S 	0.87964	0.965	0.709	-0.061
Mof_S 	S 	0.41441	0.07695	0.82409	-0.062
Mof_S 	S 	0.465	0.709	0.37964	-0.061
Mof_S 	S 	0.57695	0.82409	0.91441	-0.062
Mof_S 	S 	0.94636	0.37964	0.709	-0.061
Mof_S 	S 	0.18455	0.91441	0.82409	-0.062
Mof_S 	S 	0.87964	0.44636	0.965	-0.061
Mof_S 	S 	0.41441	0.68455	0.07695	-0.062
Mof_S 	S 	0.209	0.965	0.44636	-0.061
Mof_S 	S 	0.32409	0.07695	0.68455	-0.062
Mof_N 	N 	0.74474	0.8048	0.9691	-0.259
Mof_N 	N 	0.77926	0.4666	0.21832	-0.265
Mof_N 	N 	0.55763	0.70961	0.26135	-0.226
Mof_N 	N 	0.7074	0.7624	0.04184	-0.226
Mof_N 	N 	0.70441	0.67511	0.13667	-0.151
Mof_N 	N 	0.65077	0.71085	0.17041	-0.15
Mof_N 	N 	0.67845	0.64809	0.20035	-0.149
Mof_N 	N 	0.75111	0.54729	0.19661	-0.229
Mof_N 	N 	0.79545	0.50639	0.24407	-0.23
Mof_N 	N 	0.91999	0.45197	0.23675	-0.153
Mof_N 	N 	0.3048	0.24474	0.48136	-0.259
Mof_N 	N 	0.9666	0.27926	0.53582	-0.265
Mof_N 	N 	0.20961	0.05763	0.47141	-0.226
Mof_N 	N 	0.2624	0.2074	0.48836	-0.226
Mof_N 	N 	0.17511	0.20441	0.48381	-0.151
Mof_N 	N 	0.21085	0.15077	0.46797	-0.15
Mof_N 	N 	0.14809	0.17845	0.47311	-0.149
Mof_N 	N 	0.04729	0.25111	0.50499	-0.229
Mof_N 	N 	0.00639	0.29545	0.45409	-0.23
Mof_N 	N 	0.95197	0.41999	0.39129	-0.153
Mof_N 	N 	0.4691	0.48136	0.24474	-0.259
Mof_N 	N 	0.71832	0.53582	0.27926	-0.265
Mof_N 	N 	0.76135	0.47141	0.05763	-0.226
Mof_N 	N 	0.54184	0.48836	0.2074	-0.226
Mof_N 	N 	0.63667	0.48381	0.20441	-0.151
Mof_N 	N 	0.67041	0.46797	0.15077	-0.15
Mof_N 	N 	0.70035	0.47311	0.17845	-0.149
Mof_N 	N 	0.69661	0.50499	0.25111	-0.229
Mof_N 	N 	0.74407	0.45409	0.29545	-0.23
Mof_N 	N 	0.73675	0.39129	0.41999	-0.153
Mof_N 	N 	0.98136	0.9691	0.8048	-0.259
Mof_N 	N 	0.03582	0.21832	0.4666	-0.265
Mof_N 	N 	0.97141	0.26135	0.70961	-0.226
Mof_N 	N 	0.98836	0.04184	0.7624	-0.226
Mof_N 	N 	0.98381	0.13667	0.67511	-0.151
Mof_N 	N 	0.96797	0.17041	0.71085	-0.15
Mof_N 	N 	0.97311	0.20035	0.64809	-0.149
Mof_N 	N 	0.00499	0.19661	0.54729	-0.229
Mof_N 	N 	0.95409	0.24407	0.50639	-0.23
Mof_N 	N 	0.89129	0.23675	0.45197	-0.153
Mof_N 	N 	0.74474	0.9691	0.48136	-0.259
Mof_N 	N 	0.77926	0.21832	0.53582	-0.265
Mof_N 	N 	0.55763	0.26135	0.47141	-0.226
Mof_N 	N 	0.7074	0.04184	0.48836	-0.226
Mof_N 	N 	0.70441	0.13667	0.48381	-0.151
Mof_N 	N 	0.65077	0.17041	0.46797	-0.15
Mof_N 	N 	0.67845	0.20035	0.47311	-0.149
Mof_N 	N 	0.75111	0.19661	0.50499	-0.229
Mof_N 	N 	0.79545	0.24407	0.45409	-0.23
Mof_N 	N 	0.91999	0.23675	0.39129	-0.153
Mof_N 	N 	0.3048	0.48136	0.9691	-0.259
Mof_N 	N 	0.9666	0.53582	0.21832	-0.265
Mof_N 	N 	0.20961	0.47141	0.26135	-0.226
Mof_N 	N 	0.2624	0.48836	0.04184	-0.226
Mof_N 	N 	0.17511	0.48381	0.13667	-0.151
Mof_N 	N 	0.21085	0.46797	0.17041	-0.15
Mof_N 	N 	0.14809	0.47311	0.20035	-0.149
Mof_N 	N 	0.04729	0.50499	0.19661	-0.229
Mof_N 	N 	0.00639	0.45409	0.24407	-0.23
Mof_N 	N 	0.95197	0.39129	0.23675	-0.153
Mof_N 	N 	0.4691	0.24474	0.8048	-0.259
Mof_N 	N 	0.71832	0.27926	0.4666	-0.265
Mof_N 	N 	0.76135	0.05763	0.70961	-0.226
Mof_N 	N 	0.54184	0.2074	0.7624	-0.226
Mof_N 	N 	0.63667	0.20441	0.67511	-0.151
Mof_N 	N 	0.67041	0.15077	0.71085	-0.15
Mof_N 	N 	0.70035	0.17845	0.64809	-0.149
Mof_N 	N 	0.69661	0.25111	0.54729	-0.229
Mof_N 	N 	0.74407	0.29545	0.50639	-0.23
Mof_N 	N 	0.73675	0.41999	0.45197	-0.153
Mof_N 	N 	0.98136	0.8048	0.24474	-0.259
Mof_N 	N 	0.03582	0.4666	0.27926	-0.265
Mof_N 	N 	0.97141	0.70961	0.05763	-0.226
Mof_N 	N 	0.98836	0.7624	0.2074	-0.226
Mof_N 	N 	0.98381	0.67511	0.20441	-0.151
Mof_N 	N 	0.96797	0.71085	0.15077	-0.15
Mof_N 	N 	0.97311	0.64809	0.17845	-0.149
Mof_N 	N 	0.00499	0.54729	0.25111	-0.229
Mof_N 	N 	0.95409	0.50639	0.29545	-0.23
Mof_N 	N 	0.89129	0.45197	0.41999	-0.153
Mof_N 	N 	0.74474	0.48136	0.8048	-0.259
Mof_N 	N 	0.77926	0.53582	0.4666	-0.265
Mof_N 	N 	0.55763	0.47141	0.70961	-0.226
Mof_N 	N 	0.7074	0.48836	0.7624	-0.226
Mof_N 	N 	0.70441	0.48381	0.67511	-0.151
Mof_N 	N 	0.65077	0.46797	0.71085	-0.15
Mof_N 	N 	0.67845	0.47311	0.64809	-0.149
Mof_N 	N 	0.75111	0.50499	0.54729	-0.229
Mof_N 	N 	0.79545	0.45409	0.50639	-0.23
Mof_N 	N 	0.91999	0.39129	0.45197	-0.153
Mof_N 	N 	0.3048	0.9691	0.24474	-0.259
Mof_N 	N 	0.9666	0.21832	0.27926	-0.265
Mof_N 	N 	0.20961	0.26135	0.05763	-0.226
Mof_N 	N 	0.2624	0.04184	0.2074	-0.226
Mof_N 	N 	0.17511	0.13667	0.20441	-0.151
Mof_N 	N 	0.21085	0.17041	0.15077	-0.15
Mof_N 	N 	0.14809	0.20035	0.17845	-0.149
Mof_N 	N 	0.04729	0.19661	0.25111	-0.229
Mof_N 	N 	0.00639	0.24407	0.29545	-0.23
Mof_N 	N 	0.95197	0.23675	0.41999	-0.153
Mof_N 	N 	0.4691	0.8048	0.48136	-0.259
Mof_N 	N 	0.71832	0.4666	0.53582	-0.265
Mof_N 	N 	0.76135	0.70961	0.47141	-0.226
Mof_N 	N 	0.54184	0.7624	0.48836	-0.226
Mof_N 	N 	0.63667	0.67511	0.48381	-0.151
Mof_N 	N 	0.67041	0.71085	0.46797	-0.15
Mof_N 	N 	0.70035	0.64809	0.47311	-0.149
Mof_N 	N 	0.69661	0.54729	0.50499	-0.229
Mof_N 	N 	0.74407	0.50639	0.45409	-0.23
Mof_N 	N 	0.73675	0.45197	0.39129	-0.153
Mof_N 	N 	0.98136	0.24474	0.9691	-0.259
Mof_N 	N 	0.03582	0.27926	0.21832	-0.265
Mof_N 	N 	0.97141	0.05763	0.26135	-0.226
Mof_N 	N 	0.98836	0.2074	0.04184	-0.226
Mof_N 	N 	0.98381	0.20441	0.13667	-0.151
Mof_N 	N 	0.96797	0.15077	0.17041	-0.15
Mof_N 	N 	0.97311	0.17845	0.20035	-0.149
Mof_N 	N 	0.00499	0.25111	0.19661	-0.229
Mof_N 	N 	0.95409	0.29545	0.24407	-0.23
Mof_N 	N 	0.89129	0.41999	0.23675	-0.153
Mof_N 	N 	0.1952	0.25526	0.5309	-0.259
Mof_N 	N 	0.5334	0.22074	0.28168	-0.265
Mof_N 	N 	0.29039	0.44237	0.23865	-0.226
Mof_N 	N 	0.2376	0.2926	0.45816	-0.226
Mof_N 	N 	0.32489	0.29559	0.36333	-0.151
Mof_N 	N 	0.28915	0.34923	0.32959	-0.15
Mof_N 	N 	0.35191	0.32155	0.29965	-0.149
Mof_N 	N 	0.45271	0.24889	0.30339	-0.229
Mof_N 	N 	0.49361	0.20455	0.25593	-0.23
Mof_N 	N 	0.54803	0.08001	0.26325	-0.153
Mof_N 	N 	0.75526	0.6952	0.01864	-0.259
Mof_N 	N 	0.72074	0.0334	0.96418	-0.265
Mof_N 	N 	0.94237	0.79039	0.02859	-0.226
Mof_N 	N 	0.7926	0.7376	0.01164	-0.226
Mof_N 	N 	0.79559	0.82489	0.01619	-0.151
Mof_N 	N 	0.84923	0.78915	0.03203	-0.15
Mof_N 	N 	0.82155	0.85191	0.02689	-0.149
Mof_N 	N 	0.74889	0.95271	0.99501	-0.229
Mof_N 	N 	0.70455	0.99361	0.04591	-0.23
Mof_N 	N 	0.58001	0.04803	0.10871	-0.153
Mof_N 	N 	0.51864	0.5309	0.25526	-0.259
Mof_N 	N 	0.46418	0.28168	0.22074	-0.265
Mof_N 	N 	0.52859	0.23865	0.44237	-0.226
Mof_N 	N 	0.51164	0.45816	0.2926	-0.226
Mof_N 	N 	0.51619	0.36333	0.29559	-0.151
Mof_N 	N 	0.53203	0.32959	0.34923	-0.15
Mof_N 	N 	0.52689	0.29965	0.32155	-0.149
Mof_N 	N 	0.49501	0.30339	0.24889	-0.229
Mof_N 	N 	0.54591	0.25593	0.20455	-0.23
Mof_N 	N 	0.60871	0.26325	0.08001	-0.153
Mof_N 	N 	0.0309	0.01864	0.6952	-0.259
Mof_N 	N 	0.78168	0.96418	0.0334	-0.265
Mof_N 	N 	0.73865	0.02859	0.79039	-0.226
Mof_N 	N 	0.95816	0.01164	0.7376	-0.226
Mof_N 	N 	0.86333	0.01619	0.82489	-0.151
Mof_N 	N 	0.82959	0.03203	0.78915	-0.15
Mof_N 	N 	0.79965	0.02689	0.85191	-0.149
Mof_N 	N 	0.80339	0.99501	0.95271	-0.229
Mof_N 	N 	0.75593	0.04591	0.99361	-0.23
Mof_N 	N 	0.76325	0.10871	0.04803	-0.153
Mof_N 	N 	0.0309	0.25526	0.01864	-0.259
Mof_N 	N 	0.78168	0.22074	0.96418	-0.265
Mof_N 	N 	0.73865	0.44237	0.02859	-0.226
Mof_N 	N 	0.95816	0.2926	0.01164	-0.226
Mof_N 	N 	0.86333	0.29559	0.01619	-0.151
Mof_N 	N 	0.82959	0.34923	0.03203	-0.15
Mof_N 	N 	0.79965	0.32155	0.02689	-0.149
Mof_N 	N 	0.80339	0.24889	0.99501	-0.229
Mof_N 	N 	0.75593	0.20455	0.04591	-0.23
Mof_N 	N 	0.76325	0.08001	0.10871	-0.153
Mof_N 	N 	0.51864	0.6952	0.5309	-0.259
Mof_N 	N 	0.46418	0.0334	0.28168	-0.265
Mof_N 	N 	0.52859	0.79039	0.23865	-0.226
Mof_N 	N 	0.51164	0.7376	0.45816	-0.226
Mof_N 	N 	0.51619	0.82489	0.36333	-0.151
Mof_N 	N 	0.53203	0.78915	0.32959	-0.15
Mof_N 	N 	0.52689	0.85191	0.29965	-0.149
Mof_N 	N 	0.49501	0.95271	0.30339	-0.229
Mof_N 	N 	0.54591	0.99361	0.25593	-0.23
Mof_N 	N 	0.60871	0.04803	0.26325	-0.153
Mof_N 	N 	0.75526	0.5309	0.6952	-0.259
Mof_N 	N 	0.72074	0.28168	0.0334	-0.265
Mof_N 	N 	0.94237	0.23865	0.79039	-0.226
Mof_N 	N 	0.7926	0.45816	0.7376	-0.226
Mof_N 	N 	0.79559	0.36333	0.82489	-0.151
Mof_N 	N 	0.84923	0.32959	0.78915	-0.15
Mof_N 	N 	0.82155	0.29965	0.85191	-0.149
Mof_N 	N 	0.74889	0.30339	0.95271	-0.229
Mof_N 	N 	0.70455	0.25593	0.99361	-0.23
Mof_N 	N 	0.58001	0.26325	0.04803	-0.153
Mof_N 	N 	0.1952	0.01864	0.25526	-0.259
Mof_N 	N 	0.5334	0.96418	0.22074	-0.265
Mof_N 	N 	0.29039	0.02859	0.44237	-0.226
Mof_N 	N 	0.2376	0.01164	0.2926	-0.226
Mof_N 	N 	0.32489	0.01619	0.29559	-0.151
Mof_N 	N 	0.28915	0.03203	0.34923	-0.15
Mof_N 	N 	0.35191	0.02689	0.32155	-0.149
Mof_N 	N 	0.45271	0.99501	0.24889	-0.229
Mof_N 	N 	0.49361	0.04591	0.20455	-0.23
Mof_N 	N 	0.54803	0.10871	0.08001	-0.153
Mof_N 	N 	0.51864	0.25526	0.6952	-0.259
Mof_N 	N 	0.46418	0.22074	0.0334	-0.265
Mof_N 	N 	0.52859	0.44237	0.79039	-0.226
Mof_N 	N 	0.51164	0.2926	0.7376	-0.226
Mof_N 	N 	0.51619	0.29559	0.82489	-0.151
Mof_N 	N 	0.53203	0.34923	0.78915	-0.15
Mof_N 	N 	0.52689	0.32155	0.85191	-0.149
Mof_N 	N 	0.49501	0.24889	0.95271	-0.229
Mof_N 	N 	0.54591	0.20455	0.99361	-0.23
Mof_N 	N 	0.60871	0.08001	0.04803	-0.153
Mof_N 	N 	0.0309	0.6952	0.25526	-0.259
Mof_N 	N 	0.78168	0.0334	0.22074	-0.265
Mof_N 	N 	0.73865	0.79039	0.44237	-0.226
Mof_N 	N 	0.95816	0.7376	0.2926	-0.226
Mof_N 	N 	0.86333	0.82489	0.29559	-0.151
Mof_N 	N 	0.82959	0.78915	0.34923	-0.15
Mof_N 	N 	0.79965	0.85191	0.32155	-0.149
Mof_N 	N 	0.80339	0.95271	0.24889	-0.229
Mof_N 	N 	0.75593	0.99361	0.20455	-0.23
Mof_N 	N 	0.76325	0.04803	0.08001	-0.153
Mof_N 	N 	0.1952	0.5309	0.01864	-0.259
Mof_N 	N 	0.5334	0.28168	0.96418	-0.265
Mof_N 	N 	0.29039	0.23865	0.02859	-0.226
Mof_N 	N 	0.2376	0.45816	0.01164	-0.226
Mof_N 	N 	0.32489	0.36333	0.01619	-0.151
Mof_N 	N 	0.28915	0.32959	0.03203	-0.15
Mof_N 	N 	0.35191	0.29965	0.02689	-0.149
Mof_N 	N 	0.45271	0.30339	0.99501	-0.229
Mof_N 	N 	0.49361	0.25593	0.04591	-0.23
Mof_N 	N 	0.54803	0.26325	0.10871	-0.153
Mof_N 	N 	0.75526	0.01864	0.5309	-0.259
Mof_N 	N 	0.72074	0.96418	0.28168	-0.265
Mof_N 	N 	0.94237	0.02859	0.23865	-0.226
Mof_N 	N 	0.7926	0.01164	0.45816	-0.226
Mof_N 	N 	0.79559	0.01619	0.36333	-0.151
Mof_N 	N 	0.84923	0.03203	0.32959	-0.15
Mof_N 	N 	0.82155	0.02689	0.29965	-0.149
Mof_N 	N 	0.74889	0.99501	0.30339	-0.229
Mof_N 	N 	0.70455	0.04591	0.25593	-0.23
Mof_N 	N 	0.58001	0.10871	0.26325	-0.153
Mof_N 	N 	0.25526	0.1952	0.0309	-0.259
Mof_N 	N 	0.22074	0.5334	0.78168	-0.265
Mof_N 	N 	0.44237	0.29039	0.73865	-0.226
Mof_N 	N 	0.2926	0.2376	0.95816	-0.226
Mof_N 	N 	0.29559	0.32489	0.86333	-0.151
Mof_N 	N 	0.34923	0.28915	0.82959	-0.15
Mof_N 	N 	0.32155	0.35191	0.79965	-0.149
Mof_N 	N 	0.24889	0.45271	0.80339	-0.229
Mof_N 	N 	0.20455	0.49361	0.75593	-0.23
Mof_N 	N 	0.08001	0.54803	0.76325	-0.153
Mof_N 	N 	0.6952	0.75526	0.51864	-0.259
Mof_N 	N 	0.0334	0.72074	0.46418	-0.265
Mof_N 	N 	0.79039	0.94237	0.52859	-0.226
Mof_N 	N 	0.7376	0.7926	0.51164	-0.226
Mof_N 	N 	0.82489	0.79559	0.51619	-0.151
Mof_N 	N 	0.78915	0.84923	0.53203	-0.15
Mof_N 	N 	0.85191	0.82155	0.52689	-0.149
Mof_N 	N 	0.95271	0.74889	0.49501	-0.229
Mof_N 	N 	0.99361	0.70455	0.54591	-0.23
Mof_N 	N 	0.04803	0.58001	0.60871	-0.153
Mof_N 	N 	0.5309	0.51864	0.75526	-0.259
Mof_N 	N 	0.28168	0.46418	0.72074	-0.265
Mof_N 	N 	0.23865	0.52859	0.94237	-0.226
Mof_N 	N 	0.45816	0.51164	0.7926	-0.226
Mof_N 	N 	0.36333	0.51619	0.79559	-0.151
Mof_N 	N 	0.32959	0.53203	0.84923	-0.15
Mof_N 	N 	0.29965	0.52689	0.82155	-0.149
Mof_N 	N 	0.30339	0.49501	0.74889	-0.229
Mof_N 	N 	0.25593	0.54591	0.70455	-0.23
Mof_N 	N 	0.26325	0.60871	0.58001	-0.153
Mof_N 	N 	0.01864	0.0309	0.1952	-0.259
Mof_N 	N 	0.96418	0.78168	0.5334	-0.265
Mof_N 	N 	0.02859	0.73865	0.29039	-0.226
Mof_N 	N 	0.01164	0.95816	0.2376	-0.226
Mof_N 	N 	0.01619	0.86333	0.32489	-0.151
Mof_N 	N 	0.03203	0.82959	0.28915	-0.15
Mof_N 	N 	0.02689	0.79965	0.35191	-0.149
Mof_N 	N 	0.99501	0.80339	0.45271	-0.229
Mof_N 	N 	0.04591	0.75593	0.49361	-0.23
Mof_N 	N 	0.10871	0.76325	0.54803	-0.153
Mof_N 	N 	0.25526	0.0309	0.51864	-0.259
Mof_N 	N 	0.22074	0.78168	0.46418	-0.265
Mof_N 	N 	0.44237	0.73865	0.52859	-0.226
Mof_N 	N 	0.2926	0.95816	0.51164	-0.226
Mof_N 	N 	0.29559	0.86333	0.51619	-0.151
Mof_N 	N 	0.34923	0.82959	0.53203	-0.15
Mof_N 	N 	0.32155	0.79965	0.52689	-0.149
Mof_N 	N 	0.24889	0.80339	0.49501	-0.229
Mof_N 	N 	0.20455	0.75593	0.54591	-0.23
Mof_N 	N 	0.08001	0.76325	0.60871	-0.153
Mof_N 	N 	0.6952	0.51864	0.0309	-0.259
Mof_N 	N 	0.0334	0.46418	0.78168	-0.265
Mof_N 	N 	0.79039	0.52859	0.73865	-0.226
Mof_N 	N 	0.7376	0.51164	0.95816	-0.226
Mof_N 	N 	0.82489	0.51619	0.86333	-0.151
Mof_N 	N 	0.78915	0.53203	0.82959	-0.15
Mof_N 	N 	0.85191	0.52689	0.79965	-0.149
Mof_N 	N 	0.95271	0.49501	0.80339	-0.229
Mof_N 	N 	0.99361	0.54591	0.75593	-0.23
Mof_N 	N 	0.04803	0.60871	0.76325	-0.153
Mof_N 	N 	0.5309	0.75526	0.1952	-0.259
Mof_N 	N 	0.28168	0.72074	0.5334	-0.265
Mof_N 	N 	0.23865	0.94237	0.29039	-0.226
Mof_N 	N 	0.45816	0.7926	0.2376	-0.226
Mof_N 	N 	0.36333	0.79559	0.32489	-0.151
Mof_N 	N 	0.32959	0.84923	0.28915	-0.15
Mof_N 	N 	0.29965	0.82155	0.35191	-0.149
Mof_N 	N 	0.30339	0.74889	0.45271	-0.229
Mof_N 	N 	0.25593	0.70455	0.49361	-0.23
Mof_N 	N 	0.26325	0.58001	0.54803	-0.153
Mof_N 	N 	0.01864	0.1952	0.75526	-0.259
Mof_N 	N 	0.96418	0.5334	0.72074	-0.265
Mof_N 	N 	0.02859	0.29039	0.94237	-0.226
Mof_N 	N 	0.01164	0.2376	0.7926	-0.226
Mof_N 	N 	0.01619	0.32489	0.79559	-0.151
Mof_N 	N 	0.03203	0.28915	0.84923	-0.15
Mof_N 	N 	0.02689	0.35191	0.82155	-0.149
Mof_N 	N 	0.99501	0.45271	0.74889	-0.229
Mof_N 	N 	0.04591	0.49361	0.70455	-0.23
Mof_N 	N 	0.10871	0.54803	0.58001	-0.153
Mof_N 	N 	0.25526	0.51864	0.1952	-0.259
Mof_N 	N 	0.22074	0.46418	0.5334	-0.265
Mof_N 	N 	0.44237	0.52859	0.29039	-0.226
Mof_N 	N 	0.2926	0.51164	0.2376	-0.226
Mof_N 	N 	0.29559	0.51619	0.32489	-0.151
Mof_N 	N 	0.34923	0.53203	0.28915	-0.15
Mof_N 	N 	0.32155	0.52689	0.35191	-0.149
Mof_N 	N 	0.24889	0.49501	0.45271	-0.229
Mof_N 	N 	0.20455	0.54591	0.49361	-0.23
Mof_N 	N 	0.08001	0.60871	0.54803	-0.153
Mof_N 	N 	0.6952	0.0309	0.75526	-0.259
Mof_N 	N 	0.0334	0.78168	0.72074	-0.265
Mof_N 	N 	0.79039	0.73865	0.94237	-0.226
Mof_N 	N 	0.7376	0.95816	0.7926	-0.226
Mof_N 	N 	0.82489	0.86333	0.79559	-0.151
Mof_N 	N 	0.78915	0.82959	0.84923	-0.15
Mof_N 	N 	0.85191	0.79965	0.82155	-0.149
Mof_N 	N 	0.95271	0.80339	0.74889	-0.229
Mof_N 	N 	0.99361	0.75593	0.70455	-0.23
Mof_N 	N 	0.04803	0.76325	0.58001	-0.153
Mof_N 	N 	0.5309	0.1952	0.51864	-0.259
Mof_N 	N 	0.28168	0.5334	0.46418	-0.265
Mof_N 	N 	0.23865	0.29039	0.52859	-0.226
Mof_N 	N 	0.45816	0.2376	0.51164	-0.226
Mof_N 	N 	0.36333	0.32489	0.51619	-0.151
Mof_N 	N 	0.32959	0.28915	0.53203	-0.15
Mof_N 	N 	0.29965	0.35191	0.52689	-0.149
Mof_N 	N 	0.30339	0.45271	0.49501	-0.229
Mof_N 	N 	0.25593	0.49361	0.54591	-0.23
Mof_N 	N 	0.26325	0.54803	0.60871	-0.153
Mof_N 	N 	0.01864	0.75526	0.0309	-0.259
Mof_N 	N 	0.96418	0.72074	0.78168	-0.265
Mof_N 	N 	0.02859	0.94237	0.73865	-0.226
Mof_N 	N 	0.01164	0.7926	0.95816	-0.226
Mof_N 	N 	0.01619	0.79559	0.86333	-0.151
Mof_N 	N 	0.03203	0.84923	0.82959	-0.15
Mof_N 	N 	0.02689	0.82155	0.79965	-0.149
Mof_N 	N 	0.99501	0.74889	0.80339	-0.229
Mof_N 	N 	0.04591	0.70455	0.75593	-0.23
Mof_N 	N 	0.10871	0.58001	0.76325	-0.153
Mof_N 	N 	0.8048	0.74474	0.4691	-0.259
Mof_N 	N 	0.4666	0.77926	0.71832	-0.265
Mof_N 	N 	0.70961	0.55763	0.76135	-0.226
Mof_N 	N 	0.7624	0.7074	0.54184	-0.226
Mof_N 	N 	0.67511	0.70441	0.63667	-0.151
Mof_N 	N 	0.71085	0.65077	0.67041	-0.15
Mof_N 	N 	0.64809	0.67845	0.70035	-0.149
Mof_N 	N 	0.54729	0.75111	0.69661	-0.229
Mof_N 	N 	0.50639	0.79545	0.74407	-0.23
Mof_N 	N 	0.45197	0.91999	0.73675	-0.153
Mof_N 	N 	0.24474	0.3048	0.98136	-0.259
Mof_N 	N 	0.27926	0.9666	0.03582	-0.265
Mof_N 	N 	0.05763	0.20961	0.97141	-0.226
Mof_N 	N 	0.2074	0.2624	0.98836	-0.226
Mof_N 	N 	0.20441	0.17511	0.98381	-0.151
Mof_N 	N 	0.15077	0.21085	0.96797	-0.15
Mof_N 	N 	0.17845	0.14809	0.97311	-0.149
Mof_N 	N 	0.25111	0.04729	0.00499	-0.229
Mof_N 	N 	0.29545	0.00639	0.95409	-0.23
Mof_N 	N 	0.41999	0.95197	0.89129	-0.153
Mof_N 	N 	0.48136	0.4691	0.74474	-0.259
Mof_N 	N 	0.53582	0.71832	0.77926	-0.265
Mof_N 	N 	0.47141	0.76135	0.55763	-0.226
Mof_N 	N 	0.48836	0.54184	0.7074	-0.226
Mof_N 	N 	0.48381	0.63667	0.70441	-0.151
Mof_N 	N 	0.46797	0.67041	0.65077	-0.15
Mof_N 	N 	0.47311	0.70035	0.67845	-0.149
Mof_N 	N 	0.50499	0.69661	0.75111	-0.229
Mof_N 	N 	0.45409	0.74407	0.79545	-0.23
Mof_N 	N 	0.39129	0.73675	0.91999	-0.153
Mof_N 	N 	0.9691	0.98136	0.3048	-0.259
Mof_N 	N 	0.21832	0.03582	0.9666	-0.265
Mof_N 	N 	0.26135	0.97141	0.20961	-0.226
Mof_N 	N 	0.04184	0.98836	0.2624	-0.226
Mof_N 	N 	0.13667	0.98381	0.17511	-0.151
Mof_N 	N 	0.17041	0.96797	0.21085	-0.15
Mof_N 	N 	0.20035	0.97311	0.14809	-0.149
Mof_N 	N 	0.19661	0.00499	0.04729	-0.229
Mof_N 	N 	0.24407	0.95409	0.00639	-0.23
Mof_N 	N 	0.23675	0.89129	0.95197	-0.153
Mof_N 	N 	0.9691	0.74474	0.98136	-0.259
Mof_N 	N 	0.21832	0.77926	0.03582	-0.265
Mof_N 	N 	0.26135	0.55763	0.97141	-0.226
Mof_N 	N 	0.04184	0.7074	0.98836	-0.226
Mof_N 	N 	0.13667	0.70441	0.98381	-0.151
Mof_N 	N 	0.17041	0.65077	0.96797	-0.15
Mof_N 	N 	0.20035	0.67845	0.97311	-0.149
Mof_N 	N 	0.19661	0.75111	0.00499	-0.229
Mof_N 	N 	0.24407	0.79545	0.95409	-0.23
Mof_N 	N 	0.23675	0.91999	0.89129	-0.153
Mof_N 	N 	0.48136	0.3048	0.4691	-0.259
Mof_N 	N 	0.53582	0.9666	0.71832	-0.265
Mof_N 	N 	0.47141	0.20961	0.76135	-0.226
Mof_N 	N 	0.48836	0.2624	0.54184	-0.226
Mof_N 	N 	0.48381	0.17511	0.63667	-0.151
Mof_N 	N 	0.46797	0.21085	0.67041	-0.15
Mof_N 	N 	0.47311	0.14809	0.70035	-0.149
Mof_N 	N 	0.50499	0.04729	0.69661	-0.229
Mof_N 	N 	0.45409	0.00639	0.74407	-0.23
Mof_N 	N 	0.39129	0.95197	0.73675	-0.153
Mof_N 	N 	0.24474	0.4691	0.3048	-0.259
Mof_N 	N 	0.27926	0.71832	0.9666	-0.265
Mof_N 	N 	0.05763	0.76135	0.20961	-0.226
Mof_N 	N 	0.2074	0.54184	0.2624	-0.226
Mof_N 	N 	0.20441	0.63667	0.17511	-0.151
Mof_N 	N 	0.15077	0.67041	0.21085	-0.15
Mof_N 	N 	0.17845	0.70035	0.14809	-0.149
Mof_N 	N 	0.25111	0.69661	0.04729	-0.229
Mof_N 	N 	0.29545	0.74407	0.00639	-0.23
Mof_N 	N 	0.41999	0.73675	0.95197	-0.153
Mof_N 	N 	0.8048	0.98136	0.74474	-0.259
Mof_N 	N 	0.4666	0.03582	0.77926	-0.265
Mof_N 	N 	0.70961	0.97141	0.55763	-0.226
Mof_N 	N 	0.7624	0.98836	0.7074	-0.226
Mof_N 	N 	0.67511	0.98381	0.70441	-0.151
Mof_N 	N 	0.71085	0.96797	0.65077	-0.15
Mof_N 	N 	0.64809	0.97311	0.67845	-0.149
Mof_N 	N 	0.54729	0.00499	0.75111	-0.229
Mof_N 	N 	0.50639	0.95409	0.79545	-0.23
Mof_N 	N 	0.45197	0.89129	0.91999	-0.153
Mof_N 	N 	0.48136	0.74474	0.3048	-0.259
Mof_N 	N 	0.53582	0.77926	0.9666	-0.265
Mof_N 	N 	0.47141	0.55763	0.20961	-0.226
Mof_N 	N 	0.48836	0.7074	0.2624	-0.226
Mof_N 	N 	0.48381	0.70441	0.17511	-0.151
Mof_N 	N 	0.46797	0.65077	0.21085	-0.15
Mof_N 	N 	0.47311	0.67845	0.14809	-0.149
Mof_N 	N 	0.50499	0.75111	0.04729	-0.229
Mof_N 	N 	0.45409	0.79545	0.00639	-0.23
Mof_N 	N 	0.39129	0.91999	0.95197	-0.153
Mof_N 	N 	0.9691	0.3048	0.74474	-0.259
Mof_N 	N 	0.21832	0.9666	0.77926	-0.265
Mof_N 	N 	0.26135	0.20961	0.55763	-0.226
Mof_N 	N 	0.04184	0.2624	0.7074	-0.226
Mof_N 	N 	0.13667	0.17511	0.70441	-0.151
Mof_N 	N 	0.17041	0.21085	0.65077	-0.15
Mof_N 	N 	0.20035	0.14809	0.67845	-0.149
Mof_N 	N 	0.19661	0.04729	0.75111	-0.229
Mof_N 	N 	0.24407	0.00639	0.79545	-0.23
Mof_N 	N 	0.23675	0.95197	0.91999	-0.153
Mof_N 	N 	0.8048	0.4691	0.98136	-0.259
Mof_N 	N 	0.4666	0.71832	0.03582	-0.265
Mof_N 	N 	0.70961	0.76135	0.97141	-0.226
Mof_N 	N 	0.7624	0.54184	0.98836	-0.226
Mof_N 	N 	0.67511	0.63667	0.98381	-0.151
Mof_N 	N 	0.71085	0.67041	0.96797	-0.15
Mof_N 	N 	0.64809	0.70035	0.97311	-0.149
Mof_N 	N 	0.54729	0.69661	0.00499	-0.229
Mof_N 	N 	0.50639	0.74407	0.95409	-0.23
Mof_N 	N 	0.45197	0.73675	0.89129	-0.153
Mof_N 	N 	0.24474	0.98136	0.4691	-0.259
Mof_N 	N 	0.27926	0.03582	0.71832	-0.265
Mof_N 	N 	0.05763	0.97141	0.76135	-0.226
Mof_N 	N 	0.2074	0.98836	0.54184	-0.226
Mof_N 	N 	0.20441	0.98381	0.63667	-0.151
Mof_N 	N 	0.15077	0.96797	0.67041	-0.15
Mof_N 	N 	0.17845	0.97311	0.70035	-0.149
Mof_N 	N 	0.25111	0.00499	0.69661	-0.229
Mof_N 	N 	0.29545	0.95409	0.74407	-0.23
Mof_N 	N 	0.41999	0.89129	0.73675	-0.153
_end
