data_functionalizedCrystal
_audit_creation_method	'EQeq! by Chris Wilmer'
_symmetry_space_group_name_H-M	'P1'
_symmetry_Int_Tables_number	1
_symmetry_cell_setting	triclinic
loop_
_symmetry_equiv_pos_as_xyz
  x,y,z
_cell_length_a	42.672
_cell_length_b	42.672
_cell_length_c	42.672
_cell_angle_alpha	90
_cell_angle_beta	90
_cell_angle_gamma	90
loop_
_atom_site_label
_atom_site_type_symbol
_atom_site_fract_x
_atom_site_fract_y
_atom_site_fract_z
_atom_site_charge
Mof_N 	N 	0.06264	0.38049	0.99269	-0.324
Mof_N 	N 	0.97371	0.45663	0.00135	-0.151
Mof_C 	C 	0.03571	0.38128	0.00897	0.047
Mof_C 	C 	0.01377	0.40458	0.00567	-0.15
Mof_C 	C 	0.01982	0.42839	0.98453	0.046
Mof_C 	C 	0.04755	0.42793	0.96757	-0.139
Mof_C 	C 	0.06847	0.4037	0.97259	0.051
Mof_C 	C 	0.99695	0.45415	0.9806	0.103
Mof_H 	H 	0.03165	0.3649	0.02349	-0.081
Mof_H 	H 	0.99495	0.40435	0.01757	0.062
Mof_H 	H 	0.05208	0.44395	0.95279	0.061
Mof_H 	H 	0.08767	0.40359	0.96133	-0.077
Mof_N 	N 	0.68736	0.86951	0.49269	-0.326
Mof_N 	N 	0.77629	0.79337	0.50135	-0.147
Mof_C 	C 	0.71429	0.86872	0.50897	0.046
Mof_C 	C 	0.73623	0.84542	0.50567	-0.138
Mof_C 	C 	0.73018	0.82161	0.48453	0.044
Mof_C 	C 	0.70245	0.82207	0.46757	-0.138
Mof_C 	C 	0.68153	0.8463	0.47259	0.05
Mof_C 	C 	0.75305	0.79585	0.4806	0.094
Mof_H 	H 	0.71835	0.8851	0.52349	-0.079
Mof_H 	H 	0.75505	0.84565	0.51757	0.056
Mof_H 	H 	0.69792	0.80605	0.45279	0.061
Mof_H 	H 	0.66233	0.84641	0.46133	-0.077
Mof_N 	N 	0.18736	0.88049	0.75731	-0.326
Mof_N 	N 	0.27629	0.95663	0.74865	-0.147
Mof_C 	C 	0.21429	0.88128	0.74103	0.046
Mof_C 	C 	0.23623	0.90458	0.74433	-0.138
Mof_C 	C 	0.23018	0.92839	0.76547	0.044
Mof_C 	C 	0.20245	0.92793	0.78243	-0.138
Mof_C 	C 	0.18153	0.9037	0.77741	0.05
Mof_C 	C 	0.25305	0.95415	0.7694	0.095
Mof_H 	H 	0.21835	0.8649	0.72651	-0.079
Mof_H 	H 	0.25505	0.90435	0.73243	0.056
Mof_H 	H 	0.19792	0.94395	0.79721	0.062
Mof_H 	H 	0.16233	0.90359	0.78867	-0.077
Mof_N 	N 	0.56264	0.36951	0.25731	-0.326
Mof_N 	N 	0.47371	0.29337	0.24865	-0.147
Mof_C 	C 	0.53571	0.36872	0.24103	0.046
Mof_C 	C 	0.51377	0.34542	0.24433	-0.138
Mof_C 	C 	0.51982	0.32161	0.26547	0.044
Mof_C 	C 	0.54755	0.32207	0.28243	-0.138
Mof_C 	C 	0.56847	0.3463	0.27741	0.05
Mof_C 	C 	0.49695	0.29585	0.2694	0.094
Mof_H 	H 	0.53165	0.3851	0.22651	-0.079
Mof_H 	H 	0.49495	0.34565	0.23243	0.056
Mof_H 	H 	0.55208	0.30605	0.29721	0.061
Mof_H 	H 	0.58767	0.34641	0.28867	-0.077
Mof_N 	N 	0.99269	0.56264	0.88049	-0.324
Mof_N 	N 	0.00135	0.47371	0.95663	-0.151
Mof_C 	C 	0.00897	0.53571	0.88128	0.044
Mof_C 	C 	0.00567	0.51377	0.90458	-0.143
Mof_C 	C 	0.98453	0.51982	0.92839	0.048
Mof_C 	C 	0.96757	0.54755	0.92793	-0.139
Mof_C 	C 	0.97259	0.56847	0.9037	0.051
Mof_C 	C 	0.9806	0.49695	0.95415	0.098
Mof_H 	H 	0.02349	0.53165	0.8649	-0.079
Mof_H 	H 	0.01757	0.49495	0.90435	0.057
Mof_H 	H 	0.95279	0.55208	0.94395	0.062
Mof_H 	H 	0.96133	0.58767	0.90359	-0.077
Mof_N 	N 	0.49269	0.18736	0.36951	-0.326
Mof_N 	N 	0.50135	0.27629	0.29337	-0.147
Mof_C 	C 	0.50897	0.21429	0.36872	0.046
Mof_C 	C 	0.50567	0.23623	0.34542	-0.138
Mof_C 	C 	0.48453	0.23018	0.32161	0.044
Mof_C 	C 	0.46757	0.20245	0.32207	-0.138
Mof_C 	C 	0.47259	0.18153	0.3463	0.05
Mof_C 	C 	0.4806	0.25305	0.29585	0.094
Mof_H 	H 	0.52349	0.21835	0.3851	-0.079
Mof_H 	H 	0.51757	0.25505	0.34565	0.056
Mof_H 	H 	0.45279	0.19792	0.30605	0.061
Mof_H 	H 	0.46133	0.16233	0.34641	-0.077
Mof_N 	N 	0.75731	0.68736	0.38049	-0.326
Mof_N 	N 	0.74865	0.77629	0.45663	-0.147
Mof_C 	C 	0.74103	0.71429	0.38128	0.046
Mof_C 	C 	0.74433	0.73623	0.40458	-0.138
Mof_C 	C 	0.76547	0.73018	0.42839	0.044
Mof_C 	C 	0.78243	0.70245	0.42793	-0.138
Mof_C 	C 	0.77741	0.68153	0.4037	0.05
Mof_C 	C 	0.7694	0.75305	0.45415	0.094
Mof_H 	H 	0.72651	0.71835	0.3649	-0.079
Mof_H 	H 	0.73243	0.75505	0.40435	0.056
Mof_H 	H 	0.79721	0.69792	0.44395	0.061
Mof_H 	H 	0.78867	0.66233	0.40359	-0.077
Mof_N 	N 	0.25731	0.06264	0.86951	-0.327
Mof_N 	N 	0.24865	0.97371	0.79337	-0.147
Mof_C 	C 	0.24103	0.03571	0.86872	0.049
Mof_C 	C 	0.24433	0.01377	0.84542	-0.145
Mof_C 	C 	0.26547	0.01982	0.82161	0.041
Mof_C 	C 	0.28243	0.04755	0.82207	-0.137
Mof_C 	C 	0.27741	0.06847	0.8463	0.049
Mof_C 	C 	0.2694	0.99695	0.79585	0.101
Mof_H 	H 	0.22651	0.03165	0.8851	-0.081
Mof_H 	H 	0.23243	0.99495	0.84565	0.061
Mof_H 	H 	0.29721	0.05208	0.80605	0.061
Mof_H 	H 	0.28867	0.08767	0.84641	-0.077
Mof_N 	N 	0.88049	0.49269	0.06264	-0.327
Mof_N 	N 	0.95663	0.50135	0.97371	-0.147
Mof_C 	C 	0.88128	0.50897	0.03571	0.049
Mof_C 	C 	0.90458	0.50567	0.01377	-0.145
Mof_C 	C 	0.92839	0.48453	0.01982	0.041
Mof_C 	C 	0.92793	0.46757	0.04755	-0.137
Mof_C 	C 	0.9037	0.47259	0.06847	0.049
Mof_C 	C 	0.95415	0.4806	0.99695	0.102
Mof_H 	H 	0.8649	0.52349	0.03165	-0.081
Mof_H 	H 	0.90435	0.51757	0.99495	0.061
Mof_H 	H 	0.94395	0.45279	0.05208	0.061
Mof_H 	H 	0.90359	0.46133	0.08767	-0.077
Mof_N 	N 	0.36951	0.99269	0.68736	-0.324
Mof_N 	N 	0.29337	0.00135	0.77629	-0.151
Mof_C 	C 	0.36872	0.00897	0.71429	0.044
Mof_C 	C 	0.34542	0.00567	0.73623	-0.143
Mof_C 	C 	0.32161	0.98453	0.73018	0.048
Mof_C 	C 	0.32207	0.96757	0.70245	-0.139
Mof_C 	C 	0.3463	0.97259	0.68153	0.051
Mof_C 	C 	0.29585	0.9806	0.75305	0.097
Mof_H 	H 	0.3851	0.02349	0.71835	-0.079
Mof_H 	H 	0.34565	0.01757	0.75505	0.057
Mof_H 	H 	0.30605	0.95279	0.69792	0.062
Mof_H 	H 	0.34641	0.96133	0.66233	-0.077
Mof_N 	N 	0.38049	0.25731	0.18736	-0.326
Mof_N 	N 	0.45663	0.24865	0.27629	-0.147
Mof_C 	C 	0.38128	0.24103	0.21429	0.046
Mof_C 	C 	0.40458	0.24433	0.23623	-0.138
Mof_C 	C 	0.42839	0.26547	0.23018	0.044
Mof_C 	C 	0.42793	0.28243	0.20245	-0.138
Mof_C 	C 	0.4037	0.27741	0.18153	0.05
Mof_C 	C 	0.45415	0.2694	0.25305	0.094
Mof_H 	H 	0.3649	0.22651	0.21835	-0.079
Mof_H 	H 	0.40435	0.23243	0.25505	0.056
Mof_H 	H 	0.44395	0.29721	0.19792	0.061
Mof_H 	H 	0.40359	0.28867	0.16233	-0.077
Mof_N 	N 	0.86951	0.75731	0.56264	-0.326
Mof_N 	N 	0.79337	0.74865	0.47371	-0.147
Mof_C 	C 	0.86872	0.74103	0.53571	0.046
Mof_C 	C 	0.84542	0.74433	0.51377	-0.138
Mof_C 	C 	0.82161	0.76547	0.51982	0.044
Mof_C 	C 	0.82207	0.78243	0.54755	-0.138
Mof_C 	C 	0.8463	0.77741	0.56847	0.05
Mof_C 	C 	0.79585	0.7694	0.49695	0.094
Mof_H 	H 	0.8851	0.72651	0.53165	-0.079
Mof_H 	H 	0.84565	0.73243	0.49495	0.057
Mof_H 	H 	0.80605	0.79721	0.55208	0.062
Mof_H 	H 	0.84641	0.78867	0.58767	-0.076
Mof_N 	N 	0.13049	0.31264	0.00731	-0.327
Mof_N 	N 	0.20663	0.22371	0.99865	-0.141
Mof_C 	C 	0.13128	0.28571	0.99103	0.049
Mof_C 	C 	0.15458	0.26377	0.99433	-0.132
Mof_C 	C 	0.17839	0.26982	0.01547	0.04
Mof_C 	C 	0.17793	0.29755	0.03243	-0.136
Mof_C 	C 	0.1537	0.31847	0.02741	0.049
Mof_C 	C 	0.20415	0.24695	0.0194	0.093
Mof_H 	H 	0.1149	0.28165	0.97651	-0.078
Mof_H 	H 	0.15435	0.24495	0.98243	0.056
Mof_H 	H 	0.19395	0.30208	0.04721	0.062
Mof_H 	H 	0.15359	0.33767	0.03867	-0.076
Mof_N 	N 	0.61951	0.93736	0.50731	-0.324
Mof_N 	N 	0.54337	0.02629	0.49865	-0.145
Mof_C 	C 	0.61872	0.96429	0.49103	0.044
Mof_C 	C 	0.59542	0.98623	0.49433	-0.13
Mof_C 	C 	0.57161	0.98018	0.51547	0.047
Mof_C 	C 	0.57207	0.95245	0.53243	-0.138
Mof_C 	C 	0.5963	0.93153	0.52741	0.051
Mof_C 	C 	0.54585	0.00305	0.5194	0.089
Mof_H 	H 	0.6351	0.96835	0.47651	-0.076
Mof_H 	H 	0.59565	0.00505	0.48243	0.052
Mof_H 	H 	0.55605	0.94792	0.54721	0.063
Mof_H 	H 	0.59641	0.91233	0.53867	-0.076
Mof_N 	N 	0.63049	0.43736	0.24269	-0.325
Mof_N 	N 	0.70663	0.52629	0.25135	-0.146
Mof_C 	C 	0.63128	0.46429	0.25897	0.047
Mof_C 	C 	0.65458	0.48623	0.25567	-0.137
Mof_C 	C 	0.67839	0.48018	0.23453	0.045
Mof_C 	C 	0.67793	0.45245	0.21757	-0.137
Mof_C 	C 	0.6537	0.43153	0.22259	0.051
Mof_C 	C 	0.70415	0.50305	0.2306	0.095
Mof_H 	H 	0.6149	0.46835	0.27349	-0.078
Mof_H 	H 	0.65435	0.50505	0.26757	0.057
Mof_H 	H 	0.69395	0.44792	0.20279	0.062
Mof_H 	H 	0.65359	0.41233	0.21133	-0.076
Mof_N 	N 	0.11951	0.81264	0.74269	-0.325
Mof_N 	N 	0.04337	0.72371	0.75135	-0.145
Mof_C 	C 	0.11872	0.78571	0.75897	0.047
Mof_C 	C 	0.09542	0.76377	0.75567	-0.137
Mof_C 	C 	0.07161	0.76982	0.73453	0.044
Mof_C 	C 	0.07207	0.79755	0.71757	-0.137
Mof_C 	C 	0.0963	0.81847	0.72259	0.05
Mof_C 	C 	0.04585	0.74695	0.7306	0.094
Mof_H 	H 	0.1351	0.78165	0.77349	-0.078
Mof_H 	H 	0.09565	0.74495	0.76757	0.057
Mof_H 	H 	0.05605	0.80208	0.70279	0.062
Mof_H 	H 	0.09641	0.83767	0.71133	-0.076
Mof_N 	N 	0.31264	0.24269	0.11951	-0.325
Mof_N 	N 	0.22371	0.25135	0.04337	-0.145
Mof_C 	C 	0.28571	0.25897	0.11872	0.047
Mof_C 	C 	0.26377	0.25567	0.09542	-0.137
Mof_C 	C 	0.26982	0.23453	0.07161	0.044
Mof_C 	C 	0.29755	0.21757	0.07207	-0.137
Mof_C 	C 	0.31847	0.22259	0.0963	0.05
Mof_C 	C 	0.24695	0.2306	0.04585	0.094
Mof_H 	H 	0.28165	0.27349	0.1351	-0.078
Mof_H 	H 	0.24495	0.26757	0.09565	0.057
Mof_H 	H 	0.30208	0.20279	0.05605	0.062
Mof_H 	H 	0.33767	0.21133	0.09641	-0.077
Mof_N 	N 	0.93736	0.74269	0.63049	-0.324
Mof_N 	N 	0.02629	0.75135	0.70663	-0.145
Mof_C 	C 	0.96429	0.75897	0.63128	0.044
Mof_C 	C 	0.98623	0.75567	0.65458	-0.13
Mof_C 	C 	0.98018	0.73453	0.67839	0.047
Mof_C 	C 	0.95245	0.71757	0.67793	-0.138
Mof_C 	C 	0.93153	0.72259	0.6537	0.051
Mof_C 	C 	0.00305	0.7306	0.70415	0.089
Mof_H 	H 	0.96835	0.77349	0.6149	-0.076
Mof_H 	H 	0.00505	0.76757	0.65435	0.052
Mof_H 	H 	0.94792	0.70279	0.69395	0.063
Mof_H 	H 	0.91233	0.71133	0.65359	-0.076
Mof_N 	N 	0.43736	0.00731	0.61951	-0.327
Mof_N 	N 	0.52629	0.99865	0.54337	-0.141
Mof_C 	C 	0.46429	0.99103	0.61872	0.049
Mof_C 	C 	0.48623	0.99433	0.59542	-0.132
Mof_C 	C 	0.48018	0.01547	0.57161	0.04
Mof_C 	C 	0.45245	0.03243	0.57207	-0.136
Mof_C 	C 	0.43153	0.02741	0.5963	0.049
Mof_C 	C 	0.50305	0.0194	0.54585	0.093
Mof_H 	H 	0.46835	0.97651	0.6351	-0.078
Mof_H 	H 	0.50505	0.98243	0.59565	0.056
Mof_H 	H 	0.44792	0.04721	0.55605	0.062
Mof_H 	H 	0.41233	0.03867	0.59641	-0.076
Mof_N 	N 	0.81264	0.50731	0.13049	-0.325
Mof_N 	N 	0.72371	0.49865	0.20663	-0.146
Mof_C 	C 	0.78571	0.49103	0.13128	0.047
Mof_C 	C 	0.76377	0.49433	0.15458	-0.137
Mof_C 	C 	0.76982	0.51547	0.17839	0.045
Mof_C 	C 	0.79755	0.53243	0.17793	-0.137
Mof_C 	C 	0.81847	0.52741	0.1537	0.051
Mof_C 	C 	0.74695	0.5194	0.20415	0.095
Mof_H 	H 	0.78165	0.47651	0.1149	-0.078
Mof_H 	H 	0.74495	0.48243	0.15435	0.057
Mof_H 	H 	0.80208	0.54721	0.19395	0.062
Mof_H 	H 	0.83767	0.53867	0.15359	-0.076
Mof_N 	N 	0.24269	0.13049	0.93736	-0.325
Mof_N 	N 	0.25135	0.20663	0.02629	-0.145
Mof_C 	C 	0.25897	0.13128	0.96429	0.044
Mof_C 	C 	0.25567	0.15458	0.98623	-0.13
Mof_C 	C 	0.23453	0.17839	0.98018	0.047
Mof_C 	C 	0.21757	0.17793	0.95245	-0.138
Mof_C 	C 	0.22259	0.1537	0.93153	0.051
Mof_C 	C 	0.2306	0.20415	0.00305	0.089
Mof_H 	H 	0.27349	0.1149	0.96835	-0.077
Mof_H 	H 	0.26757	0.15435	0.00505	0.052
Mof_H 	H 	0.20279	0.19395	0.94792	0.063
Mof_H 	H 	0.21133	0.15359	0.91233	-0.076
Mof_N 	N 	0.74269	0.61951	0.31264	-0.325
Mof_N 	N 	0.75135	0.54337	0.22371	-0.146
Mof_C 	C 	0.75897	0.61872	0.28571	0.047
Mof_C 	C 	0.75567	0.59542	0.26377	-0.137
Mof_C 	C 	0.73453	0.57161	0.26982	0.045
Mof_C 	C 	0.71757	0.57207	0.29755	-0.137
Mof_C 	C 	0.72259	0.5963	0.31847	0.051
Mof_C 	C 	0.7306	0.54585	0.24695	0.095
Mof_H 	H 	0.77349	0.6351	0.28165	-0.078
Mof_H 	H 	0.76757	0.59565	0.24495	0.057
Mof_H 	H 	0.70279	0.55605	0.30208	0.062
Mof_H 	H 	0.71133	0.59641	0.33767	-0.076
Mof_N 	N 	0.00731	0.63049	0.81264	-0.327
Mof_N 	N 	0.99865	0.70663	0.72371	-0.141
Mof_C 	C 	0.99103	0.63128	0.78571	0.049
Mof_C 	C 	0.99433	0.65458	0.76377	-0.132
Mof_C 	C 	0.01547	0.67839	0.76982	0.04
Mof_C 	C 	0.03243	0.67793	0.79755	-0.136
Mof_C 	C 	0.02741	0.6537	0.81847	0.049
Mof_C 	C 	0.0194	0.70415	0.74695	0.093
Mof_H 	H 	0.97651	0.6149	0.78165	-0.078
Mof_H 	H 	0.98243	0.65435	0.74495	0.056
Mof_H 	H 	0.04721	0.69395	0.80208	0.062
Mof_H 	H 	0.03867	0.65359	0.83767	-0.076
Mof_N 	N 	0.50731	0.11951	0.43736	-0.325
Mof_N 	N 	0.49865	0.04337	0.52629	-0.145
Mof_C 	C 	0.49103	0.11872	0.46429	0.047
Mof_C 	C 	0.49433	0.09542	0.48623	-0.137
Mof_C 	C 	0.51547	0.07161	0.48018	0.044
Mof_C 	C 	0.53243	0.07207	0.45245	-0.137
Mof_C 	C 	0.52741	0.0963	0.43153	0.05
Mof_C 	C 	0.5194	0.04585	0.50305	0.094
Mof_H 	H 	0.47651	0.1351	0.46835	-0.078
Mof_H 	H 	0.48243	0.09565	0.50505	0.057
Mof_H 	H 	0.54721	0.05605	0.44792	0.062
Mof_H 	H 	0.53867	0.09641	0.41233	-0.076
Mof_Zn	Zn	0.09456	0.34456	-0	1.084
Mof_Zn	Zn	0.65544	0.90544	0.5	1.086
Mof_Zn	Zn	0.15544	0.84456	0.75	1.086
Mof_Zn	Zn	0.59456	0.40544	0.25	1.086
Mof_Zn	Zn	-7.22953e-33	0.59456	0.84456	1.084
Mof_Zn	Zn	0.5	0.15544	0.40544	1.085
Mof_Zn	Zn	0.75	0.65544	0.34456	1.086
Mof_Zn	Zn	0.25	0.09456	0.90544	1.086
Mof_Zn	Zn	0.84456	0.5	0.09456	1.085
Mof_Zn	Zn	0.40544	0	0.65544	1.084
Mof_Zn	Zn	0.34456	0.25	0.15544	1.085
Mof_Zn	Zn	0.90544	0.75	0.59456	1.086
Mof_N 	N 	0.06264	0.88049	0.49269	-0.326
Mof_N 	N 	0.97371	0.95663	0.50135	-0.146
Mof_C 	C 	0.03571	0.88128	0.50897	0.05
Mof_C 	C 	0.01377	0.90458	0.50567	-0.144
Mof_C 	C 	0.01982	0.92839	0.48453	0.042
Mof_C 	C 	0.04755	0.92793	0.46757	-0.136
Mof_C 	C 	0.06847	0.9037	0.47259	0.05
Mof_C 	C 	0.99695	0.95415	0.4806	0.103
Mof_H 	H 	0.03165	0.8649	0.52349	-0.08
Mof_H 	H 	0.99495	0.90435	0.51757	0.062
Mof_H 	H 	0.05208	0.94395	0.45279	0.062
Mof_H 	H 	0.08767	0.90359	0.46133	-0.076
Mof_N 	N 	0.68736	0.36951	0.99269	-0.323
Mof_N 	N 	0.77629	0.29337	0.00135	-0.15
Mof_C 	C 	0.71429	0.36872	0.00897	0.045
Mof_C 	C 	0.73623	0.34542	0.00567	-0.142
Mof_C 	C 	0.73018	0.32161	0.98453	0.049
Mof_C 	C 	0.70245	0.32207	0.96757	-0.138
Mof_C 	C 	0.68153	0.3463	0.97259	0.052
Mof_C 	C 	0.75305	0.29585	0.9806	0.098
Mof_H 	H 	0.71835	0.3851	0.02349	-0.078
Mof_H 	H 	0.75505	0.34565	0.01757	0.058
Mof_H 	H 	0.69792	0.30605	0.95279	0.063
Mof_H 	H 	0.66233	0.34641	0.96133	-0.076
Mof_N 	N 	0.18736	0.38049	0.25731	-0.325
Mof_N 	N 	0.27629	0.45663	0.24865	-0.146
Mof_C 	C 	0.21429	0.38128	0.24103	0.047
Mof_C 	C 	0.23623	0.40458	0.24433	-0.137
Mof_C 	C 	0.23018	0.42839	0.26547	0.045
Mof_C 	C 	0.20245	0.42793	0.28243	-0.137
Mof_C 	C 	0.18153	0.4037	0.27741	0.051
Mof_C 	C 	0.25305	0.45415	0.2694	0.095
Mof_H 	H 	0.21835	0.3649	0.22651	-0.078
Mof_H 	H 	0.25505	0.40435	0.23243	0.057
Mof_H 	H 	0.19792	0.44395	0.29721	0.062
Mof_H 	H 	0.16233	0.40359	0.28867	-0.076
Mof_N 	N 	0.56264	0.86951	0.75731	-0.325
Mof_N 	N 	0.47371	0.79337	0.74865	-0.146
Mof_C 	C 	0.53571	0.86872	0.74103	0.047
Mof_C 	C 	0.51377	0.84542	0.74433	-0.137
Mof_C 	C 	0.51982	0.82161	0.76547	0.045
Mof_C 	C 	0.54755	0.82207	0.78243	-0.137
Mof_C 	C 	0.56847	0.8463	0.77741	0.051
Mof_C 	C 	0.49695	0.79585	0.7694	0.095
Mof_H 	H 	0.53165	0.8851	0.72651	-0.078
Mof_H 	H 	0.49495	0.84565	0.73243	0.057
Mof_H 	H 	0.55208	0.80605	0.79721	0.062
Mof_H 	H 	0.58767	0.84641	0.78867	-0.076
Mof_N 	N 	0.99269	0.06264	0.38049	-0.323
Mof_N 	N 	0.00135	0.97371	0.45663	-0.15
Mof_C 	C 	0.00897	0.03571	0.38128	0.048
Mof_C 	C 	0.00567	0.01377	0.40458	-0.149
Mof_C 	C 	0.98453	0.01982	0.42839	0.047
Mof_C 	C 	0.96757	0.04755	0.42793	-0.138
Mof_C 	C 	0.97259	0.06847	0.4037	0.052
Mof_C 	C 	0.9806	0.99695	0.45415	0.104
Mof_H 	H 	0.02349	0.03165	0.3649	-0.08
Mof_H 	H 	0.01757	0.99495	0.40435	0.063
Mof_H 	H 	0.95279	0.05208	0.44395	0.062
Mof_H 	H 	0.96133	0.08767	0.40359	-0.076
Mof_N 	N 	0.49269	0.68736	0.86951	-0.325
Mof_N 	N 	0.50135	0.77629	0.79337	-0.146
Mof_C 	C 	0.50897	0.71429	0.86872	0.047
Mof_C 	C 	0.50567	0.73623	0.84542	-0.137
Mof_C 	C 	0.48453	0.73018	0.82161	0.045
Mof_C 	C 	0.46757	0.70245	0.82207	-0.137
Mof_C 	C 	0.47259	0.68153	0.8463	0.051
Mof_C 	C 	0.4806	0.75305	0.79585	0.095
Mof_H 	H 	0.52349	0.71835	0.8851	-0.078
Mof_H 	H 	0.51757	0.75505	0.84565	0.057
Mof_H 	H 	0.45279	0.69792	0.80605	0.062
Mof_H 	H 	0.46133	0.66233	0.84641	-0.076
Mof_N 	N 	0.75731	0.18736	0.88049	-0.325
Mof_N 	N 	0.74865	0.27629	0.95663	-0.146
Mof_C 	C 	0.74103	0.21429	0.88128	0.047
Mof_C 	C 	0.74433	0.23623	0.90458	-0.137
Mof_C 	C 	0.76547	0.23018	0.92839	0.045
Mof_C 	C 	0.78243	0.20245	0.92793	-0.137
Mof_C 	C 	0.77741	0.18153	0.9037	0.051
Mof_C 	C 	0.7694	0.25305	0.95415	0.096
Mof_H 	H 	0.72651	0.21835	0.8649	-0.078
Mof_H 	H 	0.73243	0.25505	0.90435	0.057
Mof_H 	H 	0.79721	0.19792	0.94395	0.063
Mof_H 	H 	0.78867	0.16233	0.90359	-0.076
Mof_N 	N 	0.25731	0.56264	0.36951	-0.325
Mof_N 	N 	0.24865	0.47371	0.29337	-0.146
Mof_C 	C 	0.24103	0.53571	0.36872	0.047
Mof_C 	C 	0.24433	0.51377	0.34542	-0.137
Mof_C 	C 	0.26547	0.51982	0.32161	0.045
Mof_C 	C 	0.28243	0.54755	0.32207	-0.137
Mof_C 	C 	0.27741	0.56847	0.3463	0.051
Mof_C 	C 	0.2694	0.49695	0.29585	0.095
Mof_H 	H 	0.22651	0.53165	0.3851	-0.078
Mof_H 	H 	0.23243	0.49495	0.34565	0.057
Mof_H 	H 	0.29721	0.55208	0.30605	0.062
Mof_H 	H 	0.28867	0.58767	0.34641	-0.076
Mof_N 	N 	0.88049	0.99269	0.56264	-0.323
Mof_N 	N 	0.95663	0.00135	0.47371	-0.15
Mof_C 	C 	0.88128	0.00897	0.53571	0.045
Mof_C 	C 	0.90458	0.00567	0.51377	-0.142
Mof_C 	C 	0.92839	0.98453	0.51982	0.049
Mof_C 	C 	0.92793	0.96757	0.54755	-0.138
Mof_C 	C 	0.9037	0.97259	0.56847	0.052
Mof_C 	C 	0.95415	0.9806	0.49695	0.099
Mof_H 	H 	0.8649	0.02349	0.53165	-0.078
Mof_H 	H 	0.90435	0.01757	0.49495	0.058
Mof_H 	H 	0.94395	0.95279	0.55208	0.063
Mof_H 	H 	0.90359	0.96133	0.58767	-0.076
Mof_N 	N 	0.36951	0.49269	0.18736	-0.325
Mof_N 	N 	0.29337	0.50135	0.27629	-0.146
Mof_C 	C 	0.36872	0.50897	0.21429	0.047
Mof_C 	C 	0.34542	0.50567	0.23623	-0.137
Mof_C 	C 	0.32161	0.48453	0.23018	0.045
Mof_C 	C 	0.32207	0.46757	0.20245	-0.137
Mof_C 	C 	0.3463	0.47259	0.18153	0.051
Mof_C 	C 	0.29585	0.4806	0.25305	0.095
Mof_H 	H 	0.3851	0.52349	0.21835	-0.078
Mof_H 	H 	0.34565	0.51757	0.25505	0.057
Mof_H 	H 	0.30605	0.45279	0.19792	0.062
Mof_H 	H 	0.34641	0.46133	0.16233	-0.076
Mof_N 	N 	0.38049	0.75731	0.68736	-0.325
Mof_N 	N 	0.45663	0.74865	0.77629	-0.146
Mof_C 	C 	0.38128	0.74103	0.71429	0.047
Mof_C 	C 	0.40458	0.74433	0.73623	-0.137
Mof_C 	C 	0.42839	0.76547	0.73018	0.045
Mof_C 	C 	0.42793	0.78243	0.70245	-0.137
Mof_C 	C 	0.4037	0.77741	0.68153	0.051
Mof_C 	C 	0.45415	0.7694	0.75305	0.095
Mof_H 	H 	0.3649	0.72651	0.71835	-0.078
Mof_H 	H 	0.40435	0.73243	0.75505	0.057
Mof_H 	H 	0.44395	0.79721	0.69792	0.062
Mof_H 	H 	0.40359	0.78867	0.66233	-0.076
Mof_N 	N 	0.86951	0.25731	0.06264	-0.326
Mof_N 	N 	0.79337	0.24865	0.97371	-0.146
Mof_C 	C 	0.86872	0.24103	0.03571	0.05
Mof_C 	C 	0.84542	0.24433	0.01377	-0.144
Mof_C 	C 	0.82161	0.26547	0.01982	0.042
Mof_C 	C 	0.82207	0.28243	0.04755	-0.136
Mof_C 	C 	0.8463	0.27741	0.06847	0.05
Mof_C 	C 	0.79585	0.2694	0.99695	0.102
Mof_H 	H 	0.8851	0.22651	0.03165	-0.08
Mof_H 	H 	0.84565	0.23243	0.99495	0.062
Mof_H 	H 	0.80605	0.29721	0.05208	0.062
Mof_H 	H 	0.84641	0.28867	0.08767	-0.076
Mof_N 	N 	0.13049	0.81264	0.50731	-0.325
Mof_N 	N 	0.20663	0.72371	0.49865	-0.146
Mof_C 	C 	0.13128	0.78571	0.49103	0.047
Mof_C 	C 	0.15458	0.76377	0.49433	-0.137
Mof_C 	C 	0.17839	0.76982	0.51547	0.045
Mof_C 	C 	0.17793	0.79755	0.53243	-0.137
Mof_C 	C 	0.1537	0.81847	0.52741	0.051
Mof_C 	C 	0.20415	0.74695	0.5194	0.095
Mof_H 	H 	0.1149	0.78165	0.47651	-0.078
Mof_H 	H 	0.15435	0.74495	0.48243	0.057
Mof_H 	H 	0.19395	0.80208	0.54721	0.062
Mof_H 	H 	0.15359	0.83767	0.53867	-0.076
Mof_N 	N 	0.61951	0.43736	0.00731	-0.327
Mof_N 	N 	0.54337	0.52629	0.99865	-0.141
Mof_C 	C 	0.61872	0.46429	0.99103	0.049
Mof_C 	C 	0.59542	0.48623	0.99433	-0.132
Mof_C 	C 	0.57161	0.48018	0.01547	0.04
Mof_C 	C 	0.57207	0.45245	0.03243	-0.136
Mof_C 	C 	0.5963	0.43153	0.02741	0.049
Mof_C 	C 	0.54585	0.50305	0.0194	0.093
Mof_H 	H 	0.6351	0.46835	0.97651	-0.078
Mof_H 	H 	0.59565	0.50505	0.98243	0.056
Mof_H 	H 	0.55605	0.44792	0.04721	0.062
Mof_H 	H 	0.59641	0.41233	0.03867	-0.076
Mof_N 	N 	0.63049	0.93736	0.74269	-0.324
Mof_N 	N 	0.70663	0.02629	0.75135	-0.145
Mof_C 	C 	0.63128	0.96429	0.75897	0.044
Mof_C 	C 	0.65458	0.98623	0.75567	-0.13
Mof_C 	C 	0.67839	0.98018	0.73453	0.047
Mof_C 	C 	0.67793	0.95245	0.71757	-0.138
Mof_C 	C 	0.6537	0.93153	0.72259	0.051
Mof_C 	C 	0.70415	0.00305	0.7306	0.089
Mof_H 	H 	0.6149	0.96835	0.77349	-0.076
Mof_H 	H 	0.65435	0.00505	0.76757	0.052
Mof_H 	H 	0.69395	0.94792	0.70279	0.063
Mof_H 	H 	0.65359	0.91233	0.71133	-0.076
Mof_N 	N 	0.11951	0.31264	0.24269	-0.325
Mof_N 	N 	0.04337	0.22371	0.25135	-0.145
Mof_C 	C 	0.11872	0.28571	0.25897	0.047
Mof_C 	C 	0.09542	0.26377	0.25567	-0.137
Mof_C 	C 	0.07161	0.26982	0.23453	0.044
Mof_C 	C 	0.07207	0.29755	0.21757	-0.137
Mof_C 	C 	0.0963	0.31847	0.22259	0.05
Mof_C 	C 	0.04585	0.24695	0.2306	0.094
Mof_H 	H 	0.1351	0.28165	0.27349	-0.078
Mof_H 	H 	0.09565	0.24495	0.26757	0.057
Mof_H 	H 	0.05605	0.30208	0.20279	0.062
Mof_H 	H 	0.09641	0.33767	0.21133	-0.077
Mof_N 	N 	0.31264	0.74269	0.61951	-0.325
Mof_N 	N 	0.22371	0.75135	0.54337	-0.146
Mof_C 	C 	0.28571	0.75897	0.61872	0.047
Mof_C 	C 	0.26377	0.75567	0.59542	-0.137
Mof_C 	C 	0.26982	0.73453	0.57161	0.045
Mof_C 	C 	0.29755	0.71757	0.57207	-0.137
Mof_C 	C 	0.31847	0.72259	0.5963	0.051
Mof_C 	C 	0.24695	0.7306	0.54585	0.095
Mof_H 	H 	0.28165	0.77349	0.6351	-0.078
Mof_H 	H 	0.24495	0.76757	0.59565	0.057
Mof_H 	H 	0.30208	0.70279	0.55605	0.062
Mof_H 	H 	0.33767	0.71133	0.59641	-0.076
Mof_N 	N 	0.93736	0.24269	0.13049	-0.325
Mof_N 	N 	0.02629	0.25135	0.20663	-0.145
Mof_C 	C 	0.96429	0.25897	0.13128	0.044
Mof_C 	C 	0.98623	0.25567	0.15458	-0.13
Mof_C 	C 	0.98018	0.23453	0.17839	0.047
Mof_C 	C 	0.95245	0.21757	0.17793	-0.138
Mof_C 	C 	0.93153	0.22259	0.1537	0.051
Mof_C 	C 	0.00305	0.2306	0.20415	0.089
Mof_H 	H 	0.96835	0.27349	0.1149	-0.077
Mof_H 	H 	0.00505	0.26757	0.15435	0.052
Mof_H 	H 	0.94792	0.20279	0.19395	0.063
Mof_H 	H 	0.91233	0.21133	0.15359	-0.076
Mof_N 	N 	0.43736	0.50731	0.11951	-0.325
Mof_N 	N 	0.52629	0.49865	0.04337	-0.145
Mof_C 	C 	0.46429	0.49103	0.11872	0.047
Mof_C 	C 	0.48623	0.49433	0.09542	-0.137
Mof_C 	C 	0.48018	0.51547	0.07161	0.044
Mof_C 	C 	0.45245	0.53243	0.07207	-0.137
Mof_C 	C 	0.43153	0.52741	0.0963	0.05
Mof_C 	C 	0.50305	0.5194	0.04585	0.094
Mof_H 	H 	0.46835	0.47651	0.1351	-0.078
Mof_H 	H 	0.50505	0.48243	0.09565	0.057
Mof_H 	H 	0.44792	0.54721	0.05605	0.062
Mof_H 	H 	0.41233	0.53867	0.09641	-0.076
Mof_N 	N 	0.81264	0.00731	0.63049	-0.327
Mof_N 	N 	0.72371	0.99865	0.70663	-0.141
Mof_C 	C 	0.78571	0.99103	0.63128	0.049
Mof_C 	C 	0.76377	0.99433	0.65458	-0.132
Mof_C 	C 	0.76982	0.01547	0.67839	0.04
Mof_C 	C 	0.79755	0.03243	0.67793	-0.136
Mof_C 	C 	0.81847	0.02741	0.6537	0.049
Mof_C 	C 	0.74695	0.0194	0.70415	0.093
Mof_H 	H 	0.78165	0.97651	0.6149	-0.078
Mof_H 	H 	0.74495	0.98243	0.65435	0.056
Mof_H 	H 	0.80208	0.04721	0.69395	0.062
Mof_H 	H 	0.83767	0.03867	0.65359	-0.076
Mof_N 	N 	0.24269	0.63049	0.43736	-0.325
Mof_N 	N 	0.25135	0.70663	0.52629	-0.146
Mof_C 	C 	0.25897	0.63128	0.46429	0.047
Mof_C 	C 	0.25567	0.65458	0.48623	-0.137
Mof_C 	C 	0.23453	0.67839	0.48018	0.045
Mof_C 	C 	0.21757	0.67793	0.45245	-0.137
Mof_C 	C 	0.22259	0.6537	0.43153	0.051
Mof_C 	C 	0.2306	0.70415	0.50305	0.095
Mof_H 	H 	0.27349	0.6149	0.46835	-0.078
Mof_H 	H 	0.26757	0.65435	0.50505	0.057
Mof_H 	H 	0.20279	0.69395	0.44792	0.062
Mof_H 	H 	0.21133	0.65359	0.41233	-0.076
Mof_N 	N 	0.74269	0.11951	0.81264	-0.325
Mof_N 	N 	0.75135	0.04337	0.72371	-0.145
Mof_C 	C 	0.75897	0.11872	0.78571	0.047
Mof_C 	C 	0.75567	0.09542	0.76377	-0.137
Mof_C 	C 	0.73453	0.07161	0.76982	0.044
Mof_C 	C 	0.71757	0.07207	0.79755	-0.137
Mof_C 	C 	0.72259	0.0963	0.81847	0.05
Mof_C 	C 	0.7306	0.04585	0.74695	0.094
Mof_H 	H 	0.77349	0.1351	0.78165	-0.078
Mof_H 	H 	0.76757	0.09565	0.74495	0.057
Mof_H 	H 	0.70279	0.05605	0.80208	0.062
Mof_H 	H 	0.71133	0.09641	0.83767	-0.076
Mof_N 	N 	0.00731	0.13049	0.31264	-0.327
Mof_N 	N 	0.99865	0.20663	0.22371	-0.141
Mof_C 	C 	0.99103	0.13128	0.28571	0.049
Mof_C 	C 	0.99433	0.15458	0.26377	-0.132
Mof_C 	C 	0.01547	0.17839	0.26982	0.04
Mof_C 	C 	0.03243	0.17793	0.29755	-0.136
Mof_C 	C 	0.02741	0.1537	0.31847	0.049
Mof_C 	C 	0.0194	0.20415	0.24695	0.093
Mof_H 	H 	0.97651	0.1149	0.28165	-0.078
Mof_H 	H 	0.98243	0.15435	0.24495	0.056
Mof_H 	H 	0.04721	0.19395	0.30208	0.062
Mof_H 	H 	0.03867	0.15359	0.33767	-0.076
Mof_N 	N 	0.50731	0.61951	0.93736	-0.324
Mof_N 	N 	0.49865	0.54337	0.02629	-0.145
Mof_C 	C 	0.49103	0.61872	0.96429	0.044
Mof_C 	C 	0.49433	0.59542	0.98623	-0.13
Mof_C 	C 	0.51547	0.57161	0.98018	0.047
Mof_C 	C 	0.53243	0.57207	0.95245	-0.138
Mof_C 	C 	0.52741	0.5963	0.93153	0.051
Mof_C 	C 	0.5194	0.54585	0.00305	0.089
Mof_H 	H 	0.47651	0.6351	0.96835	-0.076
Mof_H 	H 	0.48243	0.59565	0.00505	0.052
Mof_H 	H 	0.54721	0.55605	0.94792	0.063
Mof_H 	H 	0.53867	0.59641	0.91233	-0.076
Mof_Zn	Zn	0.09456	0.84456	0.5	1.085
Mof_Zn	Zn	0.65544	0.40544	-0	1.084
Mof_Zn	Zn	0.15544	0.34456	0.25	1.085
Mof_Zn	Zn	0.59456	0.90544	0.75	1.086
Mof_Zn	Zn	-1.30714e-33	0.09456	0.34456	1.084
Mof_Zn	Zn	0.5	0.65544	0.90544	1.086
Mof_Zn	Zn	0.75	0.15544	0.84456	1.086
Mof_Zn	Zn	0.25	0.59456	0.40544	1.086
Mof_Zn	Zn	0.84456	-5.19806e-33	0.59456	1.084
Mof_Zn	Zn	0.40544	0.5	0.15544	1.085
Mof_Zn	Zn	0.34456	0.75	0.65544	1.086
Mof_Zn	Zn	0.90544	0.25	0.09456	1.086
Mof_N 	N 	0.56264	0.38049	0.49269	-0.325
Mof_N 	N 	0.47371	0.45663	0.50135	-0.146
Mof_C 	C 	0.53571	0.38128	0.50897	0.047
Mof_C 	C 	0.51377	0.40458	0.50567	-0.137
Mof_C 	C 	0.51982	0.42839	0.48453	0.045
Mof_C 	C 	0.54755	0.42793	0.46757	-0.137
Mof_C 	C 	0.56847	0.4037	0.47259	0.051
Mof_C 	C 	0.49695	0.45415	0.4806	0.095
Mof_H 	H 	0.53165	0.3649	0.52349	-0.078
Mof_H 	H 	0.49495	0.40435	0.51757	0.057
Mof_H 	H 	0.55208	0.44395	0.45279	0.062
Mof_H 	H 	0.58767	0.40359	0.46133	-0.076
Mof_N 	N 	0.18736	0.86951	0.99269	-0.323
Mof_N 	N 	0.27629	0.79337	0.00135	-0.15
Mof_C 	C 	0.21429	0.86872	0.00897	0.045
Mof_C 	C 	0.23623	0.84542	0.00567	-0.142
Mof_C 	C 	0.23018	0.82161	0.98453	0.049
Mof_C 	C 	0.20245	0.82207	0.96757	-0.138
Mof_C 	C 	0.18153	0.8463	0.97259	0.052
Mof_C 	C 	0.25305	0.79585	0.9806	0.098
Mof_H 	H 	0.21835	0.8851	0.02349	-0.078
Mof_H 	H 	0.25505	0.84565	0.01757	0.058
Mof_H 	H 	0.19792	0.80605	0.95279	0.063
Mof_H 	H 	0.16233	0.84641	0.96133	-0.076
Mof_N 	N 	0.68736	0.88049	0.25731	-0.325
Mof_N 	N 	0.77629	0.95663	0.24865	-0.146
Mof_C 	C 	0.71429	0.88128	0.24103	0.047
Mof_C 	C 	0.73623	0.90458	0.24433	-0.137
Mof_C 	C 	0.73018	0.92839	0.26547	0.045
Mof_C 	C 	0.70245	0.92793	0.28243	-0.137
Mof_C 	C 	0.68153	0.9037	0.27741	0.051
Mof_C 	C 	0.75305	0.95415	0.2694	0.096
Mof_H 	H 	0.71835	0.8649	0.22651	-0.078
Mof_H 	H 	0.75505	0.90435	0.23243	0.057
Mof_H 	H 	0.69792	0.94395	0.29721	0.063
Mof_H 	H 	0.66233	0.90359	0.28867	-0.076
Mof_N 	N 	0.06264	0.36951	0.75731	-0.326
Mof_N 	N 	0.97371	0.29337	0.74865	-0.146
Mof_C 	C 	0.03571	0.36872	0.74103	0.05
Mof_C 	C 	0.01377	0.34542	0.74433	-0.144
Mof_C 	C 	0.01982	0.32161	0.76547	0.042
Mof_C 	C 	0.04755	0.32207	0.78243	-0.136
Mof_C 	C 	0.06847	0.3463	0.77741	0.05
Mof_C 	C 	0.99695	0.29585	0.7694	0.102
Mof_H 	H 	0.03165	0.3851	0.72651	-0.08
Mof_H 	H 	0.99495	0.34565	0.73243	0.062
Mof_H 	H 	0.05208	0.30605	0.79721	0.062
Mof_H 	H 	0.08767	0.34641	0.78867	-0.076
Mof_N 	N 	0.49269	0.56264	0.38049	-0.325
Mof_N 	N 	0.50135	0.47371	0.45663	-0.146
Mof_C 	C 	0.50897	0.53571	0.38128	0.047
Mof_C 	C 	0.50567	0.51377	0.40458	-0.137
Mof_C 	C 	0.48453	0.51982	0.42839	0.045
Mof_C 	C 	0.46757	0.54755	0.42793	-0.137
Mof_C 	C 	0.47259	0.56847	0.4037	0.051
Mof_C 	C 	0.4806	0.49695	0.45415	0.095
Mof_H 	H 	0.52349	0.53165	0.3649	-0.078
Mof_H 	H 	0.51757	0.49495	0.40435	0.057
Mof_H 	H 	0.45279	0.55208	0.44395	0.062
Mof_H 	H 	0.46133	0.58767	0.40359	-0.076
Mof_N 	N 	0.99269	0.18736	0.86951	-0.323
Mof_N 	N 	0.00135	0.27629	0.79337	-0.15
Mof_C 	C 	0.00897	0.21429	0.86872	0.045
Mof_C 	C 	0.00567	0.23623	0.84542	-0.142
Mof_C 	C 	0.98453	0.23018	0.82161	0.049
Mof_C 	C 	0.96757	0.20245	0.82207	-0.138
Mof_C 	C 	0.97259	0.18153	0.8463	0.052
Mof_C 	C 	0.9806	0.25305	0.79585	0.098
Mof_H 	H 	0.02349	0.21835	0.8851	-0.078
Mof_H 	H 	0.01757	0.25505	0.84565	0.058
Mof_H 	H 	0.95279	0.19792	0.80605	0.063
Mof_H 	H 	0.96133	0.16233	0.84641	-0.076
Mof_N 	N 	0.25731	0.68736	0.88049	-0.325
Mof_N 	N 	0.24865	0.77629	0.95663	-0.146
Mof_C 	C 	0.24103	0.71429	0.88128	0.047
Mof_C 	C 	0.24433	0.73623	0.90458	-0.137
Mof_C 	C 	0.26547	0.73018	0.92839	0.045
Mof_C 	C 	0.28243	0.70245	0.92793	-0.137
Mof_C 	C 	0.27741	0.68153	0.9037	0.051
Mof_C 	C 	0.2694	0.75305	0.95415	0.096
Mof_H 	H 	0.22651	0.71835	0.8649	-0.078
Mof_H 	H 	0.23243	0.75505	0.90435	0.057
Mof_H 	H 	0.29721	0.69792	0.94395	0.063
Mof_H 	H 	0.28867	0.66233	0.90359	-0.076
Mof_N 	N 	0.75731	0.06264	0.36951	-0.326
Mof_N 	N 	0.74865	0.97371	0.29337	-0.146
Mof_C 	C 	0.74103	0.03571	0.36872	0.05
Mof_C 	C 	0.74433	0.01377	0.34542	-0.144
Mof_C 	C 	0.76547	0.01982	0.32161	0.042
Mof_C 	C 	0.78243	0.04755	0.32207	-0.136
Mof_C 	C 	0.77741	0.06847	0.3463	0.05
Mof_C 	C 	0.7694	0.99695	0.29585	0.102
Mof_H 	H 	0.72651	0.03165	0.3851	-0.08
Mof_H 	H 	0.73243	0.99495	0.34565	0.062
Mof_H 	H 	0.79721	0.05208	0.30605	0.062
Mof_H 	H 	0.78867	0.08767	0.34641	-0.076
Mof_N 	N 	0.38049	0.49269	0.56264	-0.325
Mof_N 	N 	0.45663	0.50135	0.47371	-0.146
Mof_C 	C 	0.38128	0.50897	0.53571	0.047
Mof_C 	C 	0.40458	0.50567	0.51377	-0.137
Mof_C 	C 	0.42839	0.48453	0.51982	0.045
Mof_C 	C 	0.42793	0.46757	0.54755	-0.137
Mof_C 	C 	0.4037	0.47259	0.56847	0.051
Mof_C 	C 	0.45415	0.4806	0.49695	0.095
Mof_H 	H 	0.3649	0.52349	0.53165	-0.078
Mof_H 	H 	0.40435	0.51757	0.49495	0.057
Mof_H 	H 	0.44395	0.45279	0.55208	0.062
Mof_H 	H 	0.40359	0.46133	0.58767	-0.076
Mof_N 	N 	0.86951	0.99269	0.18736	-0.323
Mof_N 	N 	0.79337	0.00135	0.27629	-0.15
Mof_C 	C 	0.86872	0.00897	0.21429	0.045
Mof_C 	C 	0.84542	0.00567	0.23623	-0.142
Mof_C 	C 	0.82161	0.98453	0.23018	0.049
Mof_C 	C 	0.82207	0.96757	0.20245	-0.138
Mof_C 	C 	0.8463	0.97259	0.18153	0.052
Mof_C 	C 	0.79585	0.9806	0.25305	0.098
Mof_H 	H 	0.8851	0.02349	0.21835	-0.078
Mof_H 	H 	0.84565	0.01757	0.25505	0.058
Mof_H 	H 	0.80605	0.95279	0.19792	0.063
Mof_H 	H 	0.84641	0.96133	0.16233	-0.076
Mof_N 	N 	0.88049	0.25731	0.68736	-0.325
Mof_N 	N 	0.95663	0.24865	0.77629	-0.146
Mof_C 	C 	0.88128	0.24103	0.71429	0.047
Mof_C 	C 	0.90458	0.24433	0.73623	-0.137
Mof_C 	C 	0.92839	0.26547	0.73018	0.045
Mof_C 	C 	0.92793	0.28243	0.70245	-0.137
Mof_C 	C 	0.9037	0.27741	0.68153	0.051
Mof_C 	C 	0.95415	0.2694	0.75305	0.096
Mof_H 	H 	0.8649	0.22651	0.71835	-0.078
Mof_H 	H 	0.90435	0.23243	0.75505	0.057
Mof_H 	H 	0.94395	0.29721	0.69792	0.063
Mof_H 	H 	0.90359	0.28867	0.66233	-0.076
Mof_N 	N 	0.36951	0.75731	0.06264	-0.326
Mof_N 	N 	0.29337	0.74865	0.97371	-0.146
Mof_C 	C 	0.36872	0.74103	0.03571	0.05
Mof_C 	C 	0.34542	0.74433	0.01377	-0.144
Mof_C 	C 	0.32161	0.76547	0.01982	0.042
Mof_C 	C 	0.32207	0.78243	0.04755	-0.136
Mof_C 	C 	0.3463	0.77741	0.06847	0.05
Mof_C 	C 	0.29585	0.7694	0.99695	0.102
Mof_H 	H 	0.3851	0.72651	0.03165	-0.08
Mof_H 	H 	0.34565	0.73243	0.99495	0.062
Mof_H 	H 	0.30605	0.79721	0.05208	0.062
Mof_H 	H 	0.34641	0.78867	0.08767	-0.076
Mof_N 	N 	0.63049	0.31264	0.50731	-0.325
Mof_N 	N 	0.70663	0.22371	0.49865	-0.146
Mof_C 	C 	0.63128	0.28571	0.49103	0.047
Mof_C 	C 	0.65458	0.26377	0.49433	-0.137
Mof_C 	C 	0.67839	0.26982	0.51547	0.045
Mof_C 	C 	0.67793	0.29755	0.53243	-0.137
Mof_C 	C 	0.6537	0.31847	0.52741	0.051
Mof_C 	C 	0.70415	0.24695	0.5194	0.095
Mof_H 	H 	0.6149	0.28165	0.47651	-0.078
Mof_H 	H 	0.65435	0.24495	0.48243	0.057
Mof_H 	H 	0.69395	0.30208	0.54721	0.062
Mof_H 	H 	0.65359	0.33767	0.53867	-0.076
Mof_N 	N 	0.11951	0.93736	0.00731	-0.327
Mof_N 	N 	0.04337	0.02629	0.99865	-0.141
Mof_C 	C 	0.11872	0.96429	0.99103	0.046
Mof_C 	C 	0.09542	0.98623	0.99433	-0.125
Mof_C 	C 	0.07161	0.98018	0.01547	0.042
Mof_C 	C 	0.07207	0.95245	0.03243	-0.137
Mof_C 	C 	0.0963	0.93153	0.02741	0.049
Mof_C 	C 	0.04585	0.00305	0.0194	0.086
Mof_H 	H 	0.1351	0.96835	0.97651	-0.076
Mof_H 	H 	0.09565	0.00505	0.98243	0.051
Mof_H 	H 	0.05605	0.94792	0.04721	0.062
Mof_H 	H 	0.09641	0.91233	0.03867	-0.076
Mof_N 	N 	0.13049	0.43736	0.74269	-0.325
Mof_N 	N 	0.20663	0.52629	0.75135	-0.146
Mof_C 	C 	0.13128	0.46429	0.75897	0.047
Mof_C 	C 	0.15458	0.48623	0.75567	-0.137
Mof_C 	C 	0.17839	0.48018	0.73453	0.045
Mof_C 	C 	0.17793	0.45245	0.71757	-0.137
Mof_C 	C 	0.1537	0.43153	0.72259	0.051
Mof_C 	C 	0.20415	0.50305	0.7306	0.095
Mof_H 	H 	0.1149	0.46835	0.77349	-0.078
Mof_H 	H 	0.15435	0.50505	0.76757	0.057
Mof_H 	H 	0.19395	0.44792	0.70279	0.062
Mof_H 	H 	0.15359	0.41233	0.71133	-0.076
Mof_N 	N 	0.61951	0.81264	0.24269	-0.325
Mof_N 	N 	0.54337	0.72371	0.25135	-0.146
Mof_C 	C 	0.61872	0.78571	0.25897	0.047
Mof_C 	C 	0.59542	0.76377	0.25567	-0.137
Mof_C 	C 	0.57161	0.76982	0.23453	0.045
Mof_C 	C 	0.57207	0.79755	0.21757	-0.137
Mof_C 	C 	0.5963	0.81847	0.22259	0.051
Mof_C 	C 	0.54585	0.74695	0.2306	0.095
Mof_H 	H 	0.6351	0.78165	0.27349	-0.078
Mof_H 	H 	0.59565	0.74495	0.26757	0.057
Mof_H 	H 	0.55605	0.80208	0.20279	0.062
Mof_H 	H 	0.59641	0.83767	0.21133	-0.076
Mof_N 	N 	0.81264	0.24269	0.61951	-0.325
Mof_N 	N 	0.72371	0.25135	0.54337	-0.146
Mof_C 	C 	0.78571	0.25897	0.61872	0.047
Mof_C 	C 	0.76377	0.25567	0.59542	-0.137
Mof_C 	C 	0.76982	0.23453	0.57161	0.045
Mof_C 	C 	0.79755	0.21757	0.57207	-0.137
Mof_C 	C 	0.81847	0.22259	0.5963	0.051
Mof_C 	C 	0.74695	0.2306	0.54585	0.095
Mof_H 	H 	0.78165	0.27349	0.6351	-0.078
Mof_H 	H 	0.74495	0.26757	0.59565	0.057
Mof_H 	H 	0.80208	0.20279	0.55605	0.062
Mof_H 	H 	0.83767	0.21133	0.59641	-0.076
Mof_N 	N 	0.43736	0.74269	0.13049	-0.325
Mof_N 	N 	0.52629	0.75135	0.20663	-0.146
Mof_C 	C 	0.46429	0.75897	0.13128	0.047
Mof_C 	C 	0.48623	0.75567	0.15458	-0.137
Mof_C 	C 	0.48018	0.73453	0.17839	0.045
Mof_C 	C 	0.45245	0.71757	0.17793	-0.137
Mof_C 	C 	0.43153	0.72259	0.1537	0.051
Mof_C 	C 	0.50305	0.7306	0.20415	0.095
Mof_H 	H 	0.46835	0.77349	0.1149	-0.078
Mof_H 	H 	0.50505	0.76757	0.15435	0.057
Mof_H 	H 	0.44792	0.70279	0.19395	0.062
Mof_H 	H 	0.41233	0.71133	0.15359	-0.076
Mof_N 	N 	0.93736	0.00731	0.11951	-0.327
Mof_N 	N 	0.02629	0.99865	0.04337	-0.141
Mof_C 	C 	0.96429	0.99103	0.11872	0.046
Mof_C 	C 	0.98623	0.99433	0.09542	-0.125
Mof_C 	C 	0.98018	0.01547	0.07161	0.042
Mof_C 	C 	0.95245	0.03243	0.07207	-0.137
Mof_C 	C 	0.93153	0.02741	0.0963	0.049
Mof_C 	C 	0.00305	0.0194	0.04585	0.086
Mof_H 	H 	0.96835	0.97651	0.1351	-0.076
Mof_H 	H 	0.00505	0.98243	0.09565	0.051
Mof_H 	H 	0.94792	0.04721	0.05605	0.062
Mof_H 	H 	0.91233	0.03867	0.09641	-0.076
Mof_N 	N 	0.31264	0.50731	0.63049	-0.325
Mof_N 	N 	0.22371	0.49865	0.70663	-0.146
Mof_C 	C 	0.28571	0.49103	0.63128	0.047
Mof_C 	C 	0.26377	0.49433	0.65458	-0.137
Mof_C 	C 	0.26982	0.51547	0.67839	0.045
Mof_C 	C 	0.29755	0.53243	0.67793	-0.137
Mof_C 	C 	0.31847	0.52741	0.6537	0.051
Mof_C 	C 	0.24695	0.5194	0.70415	0.095
Mof_H 	H 	0.28165	0.47651	0.6149	-0.078
Mof_H 	H 	0.24495	0.48243	0.65435	0.057
Mof_H 	H 	0.30208	0.54721	0.69395	0.062
Mof_H 	H 	0.33767	0.53867	0.65359	-0.076
Mof_N 	N 	0.74269	0.13049	0.43736	-0.325
Mof_N 	N 	0.75135	0.20663	0.52629	-0.146
Mof_C 	C 	0.75897	0.13128	0.46429	0.047
Mof_C 	C 	0.75567	0.15458	0.48623	-0.137
Mof_C 	C 	0.73453	0.17839	0.48018	0.045
Mof_C 	C 	0.71757	0.17793	0.45245	-0.137
Mof_C 	C 	0.72259	0.1537	0.43153	0.051
Mof_C 	C 	0.7306	0.20415	0.50305	0.095
Mof_H 	H 	0.77349	0.1149	0.46835	-0.078
Mof_H 	H 	0.76757	0.15435	0.50505	0.057
Mof_H 	H 	0.70279	0.19395	0.44792	0.062
Mof_H 	H 	0.71133	0.15359	0.41233	-0.076
Mof_N 	N 	0.24269	0.61951	0.81264	-0.325
Mof_N 	N 	0.25135	0.54337	0.72371	-0.146
Mof_C 	C 	0.25897	0.61872	0.78571	0.047
Mof_C 	C 	0.25567	0.59542	0.76377	-0.137
Mof_C 	C 	0.23453	0.57161	0.76982	0.045
Mof_C 	C 	0.21757	0.57207	0.79755	-0.137
Mof_C 	C 	0.22259	0.5963	0.81847	0.051
Mof_C 	C 	0.2306	0.54585	0.74695	0.095
Mof_H 	H 	0.27349	0.6351	0.78165	-0.078
Mof_H 	H 	0.26757	0.59565	0.74495	0.057
Mof_H 	H 	0.20279	0.55605	0.80208	0.062
Mof_H 	H 	0.21133	0.59641	0.83767	-0.076
Mof_N 	N 	0.50731	0.63049	0.31264	-0.325
Mof_N 	N 	0.49865	0.70663	0.22371	-0.146
Mof_C 	C 	0.49103	0.63128	0.28571	0.047
Mof_C 	C 	0.49433	0.65458	0.26377	-0.137
Mof_C 	C 	0.51547	0.67839	0.26982	0.045
Mof_C 	C 	0.53243	0.67793	0.29755	-0.137
Mof_C 	C 	0.52741	0.6537	0.31847	0.051
Mof_C 	C 	0.5194	0.70415	0.24695	0.095
Mof_H 	H 	0.47651	0.6149	0.28165	-0.078
Mof_H 	H 	0.48243	0.65435	0.24495	0.057
Mof_H 	H 	0.54721	0.69395	0.30208	0.062
Mof_H 	H 	0.53867	0.65359	0.33767	-0.076
Mof_N 	N 	0.00731	0.11951	0.93736	-0.327
Mof_N 	N 	0.99865	0.04337	0.02629	-0.141
Mof_C 	C 	0.99103	0.11872	0.96429	0.046
Mof_C 	C 	0.99433	0.09542	0.98623	-0.125
Mof_C 	C 	0.01547	0.07161	0.98018	0.042
Mof_C 	C 	0.03243	0.07207	0.95245	-0.137
Mof_C 	C 	0.02741	0.0963	0.93153	0.049
Mof_C 	C 	0.0194	0.04585	0.00305	0.086
Mof_H 	H 	0.97651	0.1351	0.96835	-0.076
Mof_H 	H 	0.98243	0.09565	0.00505	0.051
Mof_H 	H 	0.04721	0.05605	0.94792	0.062
Mof_H 	H 	0.03867	0.09641	0.91233	-0.076
Mof_Zn	Zn	0.59456	0.34456	0.5	1.086
Mof_Zn	Zn	0.15544	0.90544	-0	1.085
Mof_Zn	Zn	0.65544	0.84456	0.25	1.086
Mof_Zn	Zn	0.09456	0.40544	0.75	1.085
Mof_Zn	Zn	0.5	0.59456	0.34456	1.086
Mof_Zn	Zn	3.39486e-33	0.15544	0.90544	1.085
Mof_Zn	Zn	0.25	0.65544	0.84456	1.086
Mof_Zn	Zn	0.75	0.09456	0.40544	1.085
Mof_Zn	Zn	0.34456	0.5	0.59456	1.086
Mof_Zn	Zn	0.90544	0	0.15544	1.085
Mof_Zn	Zn	0.84456	0.25	0.65544	1.086
Mof_Zn	Zn	0.40544	0.75	0.09456	1.085
Mof_N 	N 	0.56264	0.88049	0.99269	-0.323
Mof_N 	N 	0.47371	0.95663	0.00135	-0.15
Mof_C 	C 	0.53571	0.88128	0.00897	0.045
Mof_C 	C 	0.51377	0.90458	0.00567	-0.142
Mof_C 	C 	0.51982	0.92839	0.98453	0.049
Mof_C 	C 	0.54755	0.92793	0.96757	-0.138
Mof_C 	C 	0.56847	0.9037	0.97259	0.052
Mof_C 	C 	0.49695	0.95415	0.9806	0.099
Mof_H 	H 	0.53165	0.8649	0.02349	-0.078
Mof_H 	H 	0.49495	0.90435	0.01757	0.058
Mof_H 	H 	0.55208	0.94395	0.95279	0.063
Mof_H 	H 	0.58767	0.90359	0.96133	-0.076
Mof_N 	N 	0.18736	0.36951	0.49269	-0.325
Mof_N 	N 	0.27629	0.29337	0.50135	-0.146
Mof_C 	C 	0.21429	0.36872	0.50897	0.047
Mof_C 	C 	0.23623	0.34542	0.50567	-0.137
Mof_C 	C 	0.23018	0.32161	0.48453	0.045
Mof_C 	C 	0.20245	0.32207	0.46757	-0.137
Mof_C 	C 	0.18153	0.3463	0.47259	0.051
Mof_C 	C 	0.25305	0.29585	0.4806	0.095
Mof_H 	H 	0.21835	0.3851	0.52349	-0.078
Mof_H 	H 	0.25505	0.34565	0.51757	0.057
Mof_H 	H 	0.19792	0.30605	0.45279	0.062
Mof_H 	H 	0.16233	0.34641	0.46133	-0.076
Mof_N 	N 	0.68736	0.38049	0.75731	-0.325
Mof_N 	N 	0.77629	0.45663	0.74865	-0.146
Mof_C 	C 	0.71429	0.38128	0.74103	0.047
Mof_C 	C 	0.73623	0.40458	0.74433	-0.137
Mof_C 	C 	0.73018	0.42839	0.76547	0.045
Mof_C 	C 	0.70245	0.42793	0.78243	-0.137
Mof_C 	C 	0.68153	0.4037	0.77741	0.051
Mof_C 	C 	0.75305	0.45415	0.7694	0.095
Mof_H 	H 	0.71835	0.3649	0.72651	-0.078
Mof_H 	H 	0.75505	0.40435	0.73243	0.057
Mof_H 	H 	0.69792	0.44395	0.79721	0.062
Mof_H 	H 	0.66233	0.40359	0.78867	-0.076
Mof_N 	N 	0.06264	0.86951	0.25731	-0.326
Mof_N 	N 	0.97371	0.79337	0.24865	-0.146
Mof_C 	C 	0.03571	0.86872	0.24103	0.05
Mof_C 	C 	0.01377	0.84542	0.24433	-0.144
Mof_C 	C 	0.01982	0.82161	0.26547	0.042
Mof_C 	C 	0.04755	0.82207	0.28243	-0.136
Mof_C 	C 	0.06847	0.8463	0.27741	0.05
Mof_C 	C 	0.99695	0.79585	0.2694	0.102
Mof_H 	H 	0.03165	0.8851	0.22651	-0.08
Mof_H 	H 	0.99495	0.84565	0.23243	0.062
Mof_H 	H 	0.05208	0.80605	0.29721	0.062
Mof_H 	H 	0.08767	0.84641	0.28867	-0.076
Mof_N 	N 	0.49269	0.06264	0.88049	-0.326
Mof_N 	N 	0.50135	0.97371	0.95663	-0.146
Mof_C 	C 	0.50897	0.03571	0.88128	0.05
Mof_C 	C 	0.50567	0.01377	0.90458	-0.144
Mof_C 	C 	0.48453	0.01982	0.92839	0.042
Mof_C 	C 	0.46757	0.04755	0.92793	-0.136
Mof_C 	C 	0.47259	0.06847	0.9037	0.05
Mof_C 	C 	0.4806	0.99695	0.95415	0.103
Mof_H 	H 	0.52349	0.03165	0.8649	-0.08
Mof_H 	H 	0.51757	0.99495	0.90435	0.062
Mof_H 	H 	0.45279	0.05208	0.94395	0.062
Mof_H 	H 	0.46133	0.08767	0.90359	-0.076
Mof_N 	N 	0.99269	0.68736	0.36951	-0.323
Mof_N 	N 	0.00135	0.77629	0.29337	-0.15
Mof_C 	C 	0.00897	0.71429	0.36872	0.045
Mof_C 	C 	0.00567	0.73623	0.34542	-0.142
Mof_C 	C 	0.98453	0.73018	0.32161	0.049
Mof_C 	C 	0.96757	0.70245	0.32207	-0.138
Mof_C 	C 	0.97259	0.68153	0.3463	0.052
Mof_C 	C 	0.9806	0.75305	0.29585	0.098
Mof_H 	H 	0.02349	0.71835	0.3851	-0.078
Mof_H 	H 	0.01757	0.75505	0.34565	0.058
Mof_H 	H 	0.95279	0.69792	0.30605	0.063
Mof_H 	H 	0.96133	0.66233	0.34641	-0.076
Mof_N 	N 	0.25731	0.18736	0.38049	-0.325
Mof_N 	N 	0.24865	0.27629	0.45663	-0.146
Mof_C 	C 	0.24103	0.21429	0.38128	0.047
Mof_C 	C 	0.24433	0.23623	0.40458	-0.137
Mof_C 	C 	0.26547	0.23018	0.42839	0.045
Mof_C 	C 	0.28243	0.20245	0.42793	-0.137
Mof_C 	C 	0.27741	0.18153	0.4037	0.051
Mof_C 	C 	0.2694	0.25305	0.45415	0.095
Mof_H 	H 	0.22651	0.21835	0.3649	-0.078
Mof_H 	H 	0.23243	0.25505	0.40435	0.057
Mof_H 	H 	0.29721	0.19792	0.44395	0.062
Mof_H 	H 	0.28867	0.16233	0.40359	-0.076
Mof_N 	N 	0.75731	0.56264	0.86951	-0.325
Mof_N 	N 	0.74865	0.47371	0.79337	-0.146
Mof_C 	C 	0.74103	0.53571	0.86872	0.047
Mof_C 	C 	0.74433	0.51377	0.84542	-0.137
Mof_C 	C 	0.76547	0.51982	0.82161	0.045
Mof_C 	C 	0.78243	0.54755	0.82207	-0.137
Mof_C 	C 	0.77741	0.56847	0.8463	0.051
Mof_C 	C 	0.7694	0.49695	0.79585	0.095
Mof_H 	H 	0.72651	0.53165	0.8851	-0.078
Mof_H 	H 	0.73243	0.49495	0.84565	0.057
Mof_H 	H 	0.79721	0.55208	0.80605	0.062
Mof_H 	H 	0.78867	0.58767	0.84641	-0.076
Mof_N 	N 	0.38049	0.99269	0.06264	-0.323
Mof_N 	N 	0.45663	0.00135	0.97371	-0.15
Mof_C 	C 	0.38128	0.00897	0.03571	0.048
Mof_C 	C 	0.40458	0.00567	0.01377	-0.149
Mof_C 	C 	0.42839	0.98453	0.01982	0.047
Mof_C 	C 	0.42793	0.96757	0.04755	-0.138
Mof_C 	C 	0.4037	0.97259	0.06847	0.052
Mof_C 	C 	0.45415	0.9806	0.99695	0.104
Mof_H 	H 	0.3649	0.02349	0.03165	-0.08
Mof_H 	H 	0.40435	0.01757	0.99495	0.063
Mof_H 	H 	0.44395	0.95279	0.05208	0.062
Mof_H 	H 	0.40359	0.96133	0.08767	-0.076
Mof_N 	N 	0.86951	0.49269	0.68736	-0.325
Mof_N 	N 	0.79337	0.50135	0.77629	-0.146
Mof_C 	C 	0.86872	0.50897	0.71429	0.047
Mof_C 	C 	0.84542	0.50567	0.73623	-0.137
Mof_C 	C 	0.82161	0.48453	0.73018	0.045
Mof_C 	C 	0.82207	0.46757	0.70245	-0.137
Mof_C 	C 	0.8463	0.47259	0.68153	0.051
Mof_C 	C 	0.79585	0.4806	0.75305	0.095
Mof_H 	H 	0.8851	0.52349	0.71835	-0.078
Mof_H 	H 	0.84565	0.51757	0.75505	0.057
Mof_H 	H 	0.80605	0.45279	0.69792	0.062
Mof_H 	H 	0.84641	0.46133	0.66233	-0.076
Mof_N 	N 	0.88049	0.75731	0.18736	-0.325
Mof_N 	N 	0.95663	0.74865	0.27629	-0.146
Mof_C 	C 	0.88128	0.74103	0.21429	0.047
Mof_C 	C 	0.90458	0.74433	0.23623	-0.137
Mof_C 	C 	0.92839	0.76547	0.23018	0.045
Mof_C 	C 	0.92793	0.78243	0.20245	-0.137
Mof_C 	C 	0.9037	0.77741	0.18153	0.051
Mof_C 	C 	0.95415	0.7694	0.25305	0.096
Mof_H 	H 	0.8649	0.72651	0.21835	-0.078
Mof_H 	H 	0.90435	0.73243	0.25505	0.057
Mof_H 	H 	0.94395	0.79721	0.19792	0.063
Mof_H 	H 	0.90359	0.78867	0.16233	-0.076
Mof_N 	N 	0.36951	0.25731	0.56264	-0.325
Mof_N 	N 	0.29337	0.24865	0.47371	-0.146
Mof_C 	C 	0.36872	0.24103	0.53571	0.047
Mof_C 	C 	0.34542	0.24433	0.51377	-0.137
Mof_C 	C 	0.32161	0.26547	0.51982	0.045
Mof_C 	C 	0.32207	0.28243	0.54755	-0.137
Mof_C 	C 	0.3463	0.27741	0.56847	0.051
Mof_C 	C 	0.29585	0.2694	0.49695	0.095
Mof_H 	H 	0.3851	0.22651	0.53165	-0.078
Mof_H 	H 	0.34565	0.23243	0.49495	0.057
Mof_H 	H 	0.30605	0.29721	0.55208	0.062
Mof_H 	H 	0.34641	0.28867	0.58767	-0.076
Mof_N 	N 	0.63049	0.81264	0.00731	-0.327
Mof_N 	N 	0.70663	0.72371	0.99865	-0.141
Mof_C 	C 	0.63128	0.78571	0.99103	0.049
Mof_C 	C 	0.65458	0.76377	0.99433	-0.132
Mof_C 	C 	0.67839	0.76982	0.01547	0.04
Mof_C 	C 	0.67793	0.79755	0.03243	-0.136
Mof_C 	C 	0.6537	0.81847	0.02741	0.049
Mof_C 	C 	0.70415	0.74695	0.0194	0.093
Mof_H 	H 	0.6149	0.78165	0.97651	-0.078
Mof_H 	H 	0.65435	0.74495	0.98243	0.056
Mof_H 	H 	0.69395	0.80208	0.04721	0.062
Mof_H 	H 	0.65359	0.83767	0.03867	-0.076
Mof_N 	N 	0.11951	0.43736	0.50731	-0.325
Mof_N 	N 	0.04337	0.52629	0.49865	-0.145
Mof_C 	C 	0.11872	0.46429	0.49103	0.047
Mof_C 	C 	0.09542	0.48623	0.49433	-0.137
Mof_C 	C 	0.07161	0.48018	0.51547	0.044
Mof_C 	C 	0.07207	0.45245	0.53243	-0.137
Mof_C 	C 	0.0963	0.43153	0.52741	0.05
Mof_C 	C 	0.04585	0.50305	0.5194	0.094
Mof_H 	H 	0.1351	0.46835	0.47651	-0.078
Mof_H 	H 	0.09565	0.50505	0.48243	0.057
Mof_H 	H 	0.05605	0.44792	0.54721	0.062
Mof_H 	H 	0.09641	0.41233	0.53867	-0.076
Mof_N 	N 	0.13049	0.93736	0.24269	-0.325
Mof_N 	N 	0.20663	0.02629	0.25135	-0.145
Mof_C 	C 	0.13128	0.96429	0.25897	0.044
Mof_C 	C 	0.15458	0.98623	0.25567	-0.13
Mof_C 	C 	0.17839	0.98018	0.23453	0.047
Mof_C 	C 	0.17793	0.95245	0.21757	-0.138
Mof_C 	C 	0.1537	0.93153	0.22259	0.051
Mof_C 	C 	0.20415	0.00305	0.2306	0.089
Mof_H 	H 	0.1149	0.96835	0.27349	-0.077
Mof_H 	H 	0.15435	0.00505	0.26757	0.052
Mof_H 	H 	0.19395	0.94792	0.20279	0.063
Mof_H 	H 	0.15359	0.91233	0.21133	-0.076
Mof_N 	N 	0.61951	0.31264	0.74269	-0.325
Mof_N 	N 	0.54337	0.22371	0.75135	-0.146
Mof_C 	C 	0.61872	0.28571	0.75897	0.047
Mof_C 	C 	0.59542	0.26377	0.75567	-0.137
Mof_C 	C 	0.57161	0.26982	0.73453	0.045
Mof_C 	C 	0.57207	0.29755	0.71757	-0.137
Mof_C 	C 	0.5963	0.31847	0.72259	0.051
Mof_C 	C 	0.54585	0.24695	0.7306	0.095
Mof_H 	H 	0.6351	0.28165	0.77349	-0.078
Mof_H 	H 	0.59565	0.24495	0.76757	0.057
Mof_H 	H 	0.55605	0.30208	0.70279	0.062
Mof_H 	H 	0.59641	0.33767	0.71133	-0.076
Mof_N 	N 	0.81264	0.74269	0.11951	-0.325
Mof_N 	N 	0.72371	0.75135	0.04337	-0.145
Mof_C 	C 	0.78571	0.75897	0.11872	0.047
Mof_C 	C 	0.76377	0.75567	0.09542	-0.137
Mof_C 	C 	0.76982	0.73453	0.07161	0.044
Mof_C 	C 	0.79755	0.71757	0.07207	-0.137
Mof_C 	C 	0.81847	0.72259	0.0963	0.05
Mof_C 	C 	0.74695	0.7306	0.04585	0.094
Mof_H 	H 	0.78165	0.77349	0.1351	-0.078
Mof_H 	H 	0.74495	0.76757	0.09565	0.057
Mof_H 	H 	0.80208	0.70279	0.05605	0.062
Mof_H 	H 	0.83767	0.71133	0.09641	-0.076
Mof_N 	N 	0.43736	0.24269	0.63049	-0.325
Mof_N 	N 	0.52629	0.25135	0.70663	-0.146
Mof_C 	C 	0.46429	0.25897	0.63128	0.047
Mof_C 	C 	0.48623	0.25567	0.65458	-0.137
Mof_C 	C 	0.48018	0.23453	0.67839	0.045
Mof_C 	C 	0.45245	0.21757	0.67793	-0.137
Mof_C 	C 	0.43153	0.22259	0.6537	0.051
Mof_C 	C 	0.50305	0.2306	0.70415	0.095
Mof_H 	H 	0.46835	0.27349	0.6149	-0.078
Mof_H 	H 	0.50505	0.26757	0.65435	0.057
Mof_H 	H 	0.44792	0.20279	0.69395	0.062
Mof_H 	H 	0.41233	0.21133	0.65359	-0.076
Mof_N 	N 	0.93736	0.50731	0.61951	-0.324
Mof_N 	N 	0.02629	0.49865	0.54337	-0.145
Mof_C 	C 	0.96429	0.49103	0.61872	0.044
Mof_C 	C 	0.98623	0.49433	0.59542	-0.13
Mof_C 	C 	0.98018	0.51547	0.57161	0.047
Mof_C 	C 	0.95245	0.53243	0.57207	-0.138
Mof_C 	C 	0.93153	0.52741	0.5963	0.051
Mof_C 	C 	0.00305	0.5194	0.54585	0.089
Mof_H 	H 	0.96835	0.47651	0.6351	-0.076
Mof_H 	H 	0.00505	0.48243	0.59565	0.052
Mof_H 	H 	0.94792	0.54721	0.55605	0.063
Mof_H 	H 	0.91233	0.53867	0.59641	-0.076
Mof_N 	N 	0.31264	0.00731	0.13049	-0.327
Mof_N 	N 	0.22371	0.99865	0.20663	-0.141
Mof_C 	C 	0.28571	0.99103	0.13128	0.049
Mof_C 	C 	0.26377	0.99433	0.15458	-0.132
Mof_C 	C 	0.26982	0.01547	0.17839	0.04
Mof_C 	C 	0.29755	0.03243	0.17793	-0.136
Mof_C 	C 	0.31847	0.02741	0.1537	0.049
Mof_C 	C 	0.24695	0.0194	0.20415	0.093
Mof_H 	H 	0.28165	0.97651	0.1149	-0.078
Mof_H 	H 	0.24495	0.98243	0.15435	0.056
Mof_H 	H 	0.30208	0.04721	0.19395	0.062
Mof_H 	H 	0.33767	0.03867	0.15359	-0.076
Mof_N 	N 	0.74269	0.63049	0.93736	-0.324
Mof_N 	N 	0.75135	0.70663	0.02629	-0.145
Mof_C 	C 	0.75897	0.63128	0.96429	0.044
Mof_C 	C 	0.75567	0.65458	0.98623	-0.13
Mof_C 	C 	0.73453	0.67839	0.98018	0.047
Mof_C 	C 	0.71757	0.67793	0.95245	-0.138
Mof_C 	C 	0.72259	0.6537	0.93153	0.051
Mof_C 	C 	0.7306	0.70415	0.00305	0.089
Mof_H 	H 	0.77349	0.6149	0.96835	-0.076
Mof_H 	H 	0.76757	0.65435	0.00505	0.052
Mof_H 	H 	0.70279	0.69395	0.94792	0.063
Mof_H 	H 	0.71133	0.65359	0.91233	-0.076
Mof_N 	N 	0.24269	0.11951	0.31264	-0.325
Mof_N 	N 	0.25135	0.04337	0.22371	-0.145
Mof_C 	C 	0.25897	0.11872	0.28571	0.047
Mof_C 	C 	0.25567	0.09542	0.26377	-0.137
Mof_C 	C 	0.23453	0.07161	0.26982	0.044
Mof_C 	C 	0.21757	0.07207	0.29755	-0.137
Mof_C 	C 	0.22259	0.0963	0.31847	0.05
Mof_C 	C 	0.2306	0.04585	0.24695	0.094
Mof_H 	H 	0.27349	0.1351	0.28165	-0.078
Mof_H 	H 	0.26757	0.09565	0.24495	0.057
Mof_H 	H 	0.20279	0.05605	0.30208	0.062
Mof_H 	H 	0.21133	0.09641	0.33767	-0.077
Mof_N 	N 	0.50731	0.13049	0.81264	-0.325
Mof_N 	N 	0.49865	0.20663	0.72371	-0.146
Mof_C 	C 	0.49103	0.13128	0.78571	0.047
Mof_C 	C 	0.49433	0.15458	0.76377	-0.137
Mof_C 	C 	0.51547	0.17839	0.76982	0.045
Mof_C 	C 	0.53243	0.17793	0.79755	-0.137
Mof_C 	C 	0.52741	0.1537	0.81847	0.051
Mof_C 	C 	0.5194	0.20415	0.74695	0.095
Mof_H 	H 	0.47651	0.1149	0.78165	-0.078
Mof_H 	H 	0.48243	0.15435	0.74495	0.057
Mof_H 	H 	0.54721	0.19395	0.80208	0.062
Mof_H 	H 	0.53867	0.15359	0.83767	-0.076
Mof_N 	N 	0.00731	0.61951	0.43736	-0.327
Mof_N 	N 	0.99865	0.54337	0.52629	-0.141
Mof_C 	C 	0.99103	0.61872	0.46429	0.049
Mof_C 	C 	0.99433	0.59542	0.48623	-0.132
Mof_C 	C 	0.01547	0.57161	0.48018	0.04
Mof_C 	C 	0.03243	0.57207	0.45245	-0.136
Mof_C 	C 	0.02741	0.5963	0.43153	0.049
Mof_C 	C 	0.0194	0.54585	0.50305	0.093
Mof_H 	H 	0.97651	0.6351	0.46835	-0.078
Mof_H 	H 	0.98243	0.59565	0.50505	0.056
Mof_H 	H 	0.04721	0.55605	0.44792	0.062
Mof_H 	H 	0.03867	0.59641	0.41233	-0.076
Mof_Zn	Zn	0.59456	0.84456	-0	1.084
Mof_Zn	Zn	0.15544	0.40544	0.5	1.085
Mof_Zn	Zn	0.65544	0.34456	0.75	1.086
Mof_Zn	Zn	0.09456	0.90544	0.25	1.086
Mof_Zn	Zn	0.5	0.09456	0.84456	1.085
Mof_Zn	Zn	6.71822e-33	0.65544	0.40544	1.084
Mof_Zn	Zn	0.25	0.15544	0.34456	1.085
Mof_Zn	Zn	0.75	0.59456	0.90544	1.086
Mof_Zn	Zn	0.34456	-6.49758e-34	0.09456	1.084
Mof_Zn	Zn	0.90544	0.5	0.65544	1.086
Mof_Zn	Zn	0.84456	0.75	0.15544	1.086
Mof_Zn	Zn	0.40544	0.25	0.59456	1.086
Mof_N 	N 	0.93736	0.61951	0.00731	-0.326
Mof_N 	N 	0.02629	0.54337	0.99865	-0.141
Mof_C 	C 	0.96429	0.61872	0.99103	0.046
Mof_C 	C 	0.98623	0.59542	0.99433	-0.125
Mof_C 	C 	0.98018	0.57161	0.01547	0.042
Mof_C 	C 	0.95245	0.57207	0.03243	-0.137
Mof_C 	C 	0.93153	0.5963	0.02741	0.049
Mof_C 	C 	0.00305	0.54585	0.0194	0.086
Mof_H 	H 	0.96835	0.6351	0.97651	-0.076
Mof_H 	H 	0.00505	0.59565	0.98243	0.051
Mof_H 	H 	0.94792	0.55605	0.04721	0.062
Mof_H 	H 	0.91233	0.59641	0.03867	-0.076
Mof_N 	N 	0.31264	0.13049	0.50731	-0.325
Mof_N 	N 	0.22371	0.20663	0.49865	-0.146
Mof_C 	C 	0.28571	0.13128	0.49103	0.047
Mof_C 	C 	0.26377	0.15458	0.49433	-0.137
Mof_C 	C 	0.26982	0.17839	0.51547	0.045
Mof_C 	C 	0.29755	0.17793	0.53243	-0.137
Mof_C 	C 	0.31847	0.1537	0.52741	0.051
Mof_C 	C 	0.24695	0.20415	0.5194	0.095
Mof_H 	H 	0.28165	0.1149	0.47651	-0.078
Mof_H 	H 	0.24495	0.15435	0.48243	0.057
Mof_H 	H 	0.30208	0.19395	0.54721	0.062
Mof_H 	H 	0.33767	0.15359	0.53867	-0.076
Mof_N 	N 	0.81264	0.11951	0.24269	-0.325
Mof_N 	N 	0.72371	0.04337	0.25135	-0.145
Mof_C 	C 	0.78571	0.11872	0.25897	0.047
Mof_C 	C 	0.76377	0.09542	0.25567	-0.137
Mof_C 	C 	0.76982	0.07161	0.23453	0.044
Mof_C 	C 	0.79755	0.07207	0.21757	-0.137
Mof_C 	C 	0.81847	0.0963	0.22259	0.05
Mof_C 	C 	0.74695	0.04585	0.2306	0.094
Mof_H 	H 	0.78165	0.1351	0.27349	-0.078
Mof_H 	H 	0.74495	0.09565	0.26757	0.057
Mof_H 	H 	0.80208	0.05605	0.20279	0.062
Mof_H 	H 	0.83767	0.09641	0.21133	-0.076
Mof_N 	N 	0.43736	0.63049	0.74269	-0.325
Mof_N 	N 	0.52629	0.70663	0.75135	-0.146
Mof_C 	C 	0.46429	0.63128	0.75897	0.047
Mof_C 	C 	0.48623	0.65458	0.75567	-0.137
Mof_C 	C 	0.48018	0.67839	0.73453	0.045
Mof_C 	C 	0.45245	0.67793	0.71757	-0.137
Mof_C 	C 	0.43153	0.6537	0.72259	0.051
Mof_C 	C 	0.50305	0.70415	0.7306	0.095
Mof_H 	H 	0.46835	0.6149	0.77349	-0.078
Mof_H 	H 	0.50505	0.65435	0.76757	0.057
Mof_H 	H 	0.44792	0.69395	0.70279	0.062
Mof_H 	H 	0.41233	0.65359	0.71133	-0.076
Mof_N 	N 	0.00731	0.43736	0.11951	-0.327
Mof_N 	N 	0.99865	0.52629	0.04337	-0.141
Mof_C 	C 	0.99103	0.46429	0.11872	0.049
Mof_C 	C 	0.99433	0.48623	0.09542	-0.132
Mof_C 	C 	0.01547	0.48018	0.07161	0.04
Mof_C 	C 	0.03243	0.45245	0.07207	-0.136
Mof_C 	C 	0.02741	0.43153	0.0963	0.049
Mof_C 	C 	0.0194	0.50305	0.04585	0.092
Mof_H 	H 	0.97651	0.46835	0.1351	-0.078
Mof_H 	H 	0.98243	0.50505	0.09565	0.056
Mof_H 	H 	0.04721	0.44792	0.05605	0.061
Mof_H 	H 	0.03867	0.41233	0.09641	-0.076
Mof_N 	N 	0.50731	0.81264	0.63049	-0.325
Mof_N 	N 	0.49865	0.72371	0.70663	-0.146
Mof_C 	C 	0.49103	0.78571	0.63128	0.047
Mof_C 	C 	0.49433	0.76377	0.65458	-0.137
Mof_C 	C 	0.51547	0.76982	0.67839	0.045
Mof_C 	C 	0.53243	0.79755	0.67793	-0.137
Mof_C 	C 	0.52741	0.81847	0.6537	0.051
Mof_C 	C 	0.5194	0.74695	0.70415	0.095
Mof_H 	H 	0.47651	0.78165	0.6149	-0.078
Mof_H 	H 	0.48243	0.74495	0.65435	0.057
Mof_H 	H 	0.54721	0.80208	0.69395	0.062
Mof_H 	H 	0.53867	0.83767	0.65359	-0.076
Mof_N 	N 	0.24269	0.31264	0.61951	-0.325
Mof_N 	N 	0.25135	0.22371	0.54337	-0.146
Mof_C 	C 	0.25897	0.28571	0.61872	0.047
Mof_C 	C 	0.25567	0.26377	0.59542	-0.137
Mof_C 	C 	0.23453	0.26982	0.57161	0.045
Mof_C 	C 	0.21757	0.29755	0.57207	-0.137
Mof_C 	C 	0.22259	0.31847	0.5963	0.051
Mof_C 	C 	0.2306	0.24695	0.54585	0.095
Mof_H 	H 	0.27349	0.28165	0.6351	-0.078
Mof_H 	H 	0.26757	0.24495	0.59565	0.057
Mof_H 	H 	0.20279	0.30208	0.55605	0.062
Mof_H 	H 	0.21133	0.33767	0.59641	-0.076
Mof_N 	N 	0.74269	0.93736	0.13049	-0.325
Mof_N 	N 	0.75135	0.02629	0.20663	-0.145
Mof_C 	C 	0.75897	0.96429	0.13128	0.044
Mof_C 	C 	0.75567	0.98623	0.15458	-0.13
Mof_C 	C 	0.73453	0.98018	0.17839	0.047
Mof_C 	C 	0.71757	0.95245	0.17793	-0.138
Mof_C 	C 	0.72259	0.93153	0.1537	0.051
Mof_C 	C 	0.7306	0.00305	0.20415	0.089
Mof_H 	H 	0.77349	0.96835	0.1149	-0.077
Mof_H 	H 	0.76757	0.00505	0.15435	0.052
Mof_H 	H 	0.70279	0.94792	0.19395	0.063
Mof_H 	H 	0.71133	0.91233	0.15359	-0.076
Mof_N 	N 	0.11951	0.50731	0.93736	-0.325
Mof_N 	N 	0.04337	0.49865	0.02629	-0.145
Mof_C 	C 	0.11872	0.49103	0.96429	0.044
Mof_C 	C 	0.09542	0.49433	0.98623	-0.13
Mof_C 	C 	0.07161	0.51547	0.98018	0.047
Mof_C 	C 	0.07207	0.53243	0.95245	-0.138
Mof_C 	C 	0.0963	0.52741	0.93153	0.051
Mof_C 	C 	0.04585	0.5194	0.00305	0.088
Mof_H 	H 	0.1351	0.47651	0.96835	-0.076
Mof_H 	H 	0.09565	0.48243	0.00505	0.052
Mof_H 	H 	0.05605	0.54721	0.94792	0.063
Mof_H 	H 	0.09641	0.53867	0.91233	-0.076
Mof_N 	N 	0.63049	0.00731	0.31264	-0.327
Mof_N 	N 	0.70663	0.99865	0.22371	-0.141
Mof_C 	C 	0.63128	0.99103	0.28571	0.049
Mof_C 	C 	0.65458	0.99433	0.26377	-0.132
Mof_C 	C 	0.67839	0.01547	0.26982	0.04
Mof_C 	C 	0.67793	0.03243	0.29755	-0.136
Mof_C 	C 	0.6537	0.02741	0.31847	0.049
Mof_C 	C 	0.70415	0.0194	0.24695	0.093
Mof_H 	H 	0.6149	0.97651	0.28165	-0.078
Mof_H 	H 	0.65435	0.98243	0.24495	0.056
Mof_H 	H 	0.69395	0.04721	0.30208	0.062
Mof_H 	H 	0.65359	0.03867	0.33767	-0.076
Mof_N 	N 	0.61951	0.74269	0.81264	-0.325
Mof_N 	N 	0.54337	0.75135	0.72371	-0.146
Mof_C 	C 	0.61872	0.75897	0.78571	0.047
Mof_C 	C 	0.59542	0.75567	0.76377	-0.137
Mof_C 	C 	0.57161	0.73453	0.76982	0.045
Mof_C 	C 	0.57207	0.71757	0.79755	-0.137
Mof_C 	C 	0.5963	0.72259	0.81847	0.051
Mof_C 	C 	0.54585	0.7306	0.74695	0.095
Mof_H 	H 	0.6351	0.77349	0.78165	-0.078
Mof_H 	H 	0.59565	0.76757	0.74495	0.057
Mof_H 	H 	0.55605	0.70279	0.80208	0.062
Mof_H 	H 	0.59641	0.71133	0.83767	-0.076
Mof_N 	N 	0.13049	0.24269	0.43736	-0.325
Mof_N 	N 	0.20663	0.25135	0.52629	-0.146
Mof_C 	C 	0.13128	0.25897	0.46429	0.047
Mof_C 	C 	0.15458	0.25567	0.48623	-0.137
Mof_C 	C 	0.17839	0.23453	0.48018	0.045
Mof_C 	C 	0.17793	0.21757	0.45245	-0.137
Mof_C 	C 	0.1537	0.22259	0.43153	0.05
Mof_C 	C 	0.20415	0.2306	0.50305	0.095
Mof_H 	H 	0.1149	0.27349	0.46835	-0.078
Mof_H 	H 	0.15435	0.26757	0.50505	0.057
Mof_H 	H 	0.19395	0.20279	0.44792	0.062
Mof_H 	H 	0.15359	0.21133	0.41233	-0.076
Mof_N 	N 	0.86951	0.68736	0.99269	-0.323
Mof_N 	N 	0.79337	0.77629	0.00135	-0.15
Mof_C 	C 	0.86872	0.71429	0.00897	0.045
Mof_C 	C 	0.84542	0.73623	0.00567	-0.142
Mof_C 	C 	0.82161	0.73018	0.98453	0.049
Mof_C 	C 	0.82207	0.70245	0.96757	-0.138
Mof_C 	C 	0.8463	0.68153	0.97259	0.052
Mof_C 	C 	0.79585	0.75305	0.9806	0.098
Mof_H 	H 	0.8851	0.71835	0.02349	-0.078
Mof_H 	H 	0.84565	0.75505	0.01757	0.058
Mof_H 	H 	0.80605	0.69792	0.95279	0.063
Mof_H 	H 	0.84641	0.66233	0.96133	-0.076
Mof_N 	N 	0.38049	0.06264	0.49269	-0.326
Mof_N 	N 	0.45663	0.97371	0.50135	-0.146
Mof_C 	C 	0.38128	0.03571	0.50897	0.05
Mof_C 	C 	0.40458	0.01377	0.50567	-0.144
Mof_C 	C 	0.42839	0.01982	0.48453	0.042
Mof_C 	C 	0.42793	0.04755	0.46757	-0.136
Mof_C 	C 	0.4037	0.06847	0.47259	0.05
Mof_C 	C 	0.45415	0.99695	0.4806	0.102
Mof_H 	H 	0.3649	0.03165	0.52349	-0.08
Mof_H 	H 	0.40435	0.99495	0.51757	0.062
Mof_H 	H 	0.44395	0.05208	0.45279	0.062
Mof_H 	H 	0.40359	0.08767	0.46133	-0.076
Mof_N 	N 	0.36951	0.56264	0.75731	-0.325
Mof_N 	N 	0.29337	0.47371	0.74865	-0.146
Mof_C 	C 	0.36872	0.53571	0.74103	0.047
Mof_C 	C 	0.34542	0.51377	0.74433	-0.137
Mof_C 	C 	0.32161	0.51982	0.76547	0.045
Mof_C 	C 	0.32207	0.54755	0.78243	-0.137
Mof_C 	C 	0.3463	0.56847	0.77741	0.051
Mof_C 	C 	0.29585	0.49695	0.7694	0.095
Mof_H 	H 	0.3851	0.53165	0.72651	-0.078
Mof_H 	H 	0.34565	0.49495	0.73243	0.057
Mof_H 	H 	0.30605	0.55208	0.79721	0.062
Mof_H 	H 	0.34641	0.58767	0.78867	-0.076
Mof_N 	N 	0.88049	0.18736	0.25731	-0.325
Mof_N 	N 	0.95663	0.27629	0.24865	-0.146
Mof_C 	C 	0.88128	0.21429	0.24103	0.047
Mof_C 	C 	0.90458	0.23623	0.24433	-0.137
Mof_C 	C 	0.92839	0.23018	0.26547	0.045
Mof_C 	C 	0.92793	0.20245	0.28243	-0.137
Mof_C 	C 	0.9037	0.18153	0.27741	0.051
Mof_C 	C 	0.95415	0.25305	0.2694	0.096
Mof_H 	H 	0.8649	0.21835	0.22651	-0.078
Mof_H 	H 	0.90435	0.25505	0.23243	0.057
Mof_H 	H 	0.94395	0.19792	0.29721	0.063
Mof_H 	H 	0.90359	0.16233	0.28867	-0.076
Mof_N 	N 	0.68736	0.75731	0.88049	-0.325
Mof_N 	N 	0.77629	0.74865	0.95663	-0.146
Mof_C 	C 	0.71429	0.74103	0.88128	0.047
Mof_C 	C 	0.73623	0.74433	0.90458	-0.137
Mof_C 	C 	0.73018	0.76547	0.92839	0.045
Mof_C 	C 	0.70245	0.78243	0.92793	-0.137
Mof_C 	C 	0.68153	0.77741	0.9037	0.051
Mof_C 	C 	0.75305	0.7694	0.95415	0.096
Mof_H 	H 	0.71835	0.72651	0.8649	-0.078
Mof_H 	H 	0.75505	0.73243	0.90435	0.057
Mof_H 	H 	0.69792	0.79721	0.94395	0.063
Mof_H 	H 	0.66233	0.78867	0.90359	-0.076
Mof_N 	N 	0.06264	0.25731	0.36951	-0.326
Mof_N 	N 	0.97371	0.24865	0.29337	-0.146
Mof_C 	C 	0.03571	0.24103	0.36872	0.05
Mof_C 	C 	0.01377	0.24433	0.34542	-0.144
Mof_C 	C 	0.01982	0.26547	0.32161	0.042
Mof_C 	C 	0.04755	0.28243	0.32207	-0.136
Mof_C 	C 	0.06847	0.27741	0.3463	0.05
Mof_C 	C 	0.99695	0.2694	0.29585	0.102
Mof_H 	H 	0.03165	0.22651	0.3851	-0.08
Mof_H 	H 	0.99495	0.23243	0.34565	0.062
Mof_H 	H 	0.05208	0.29721	0.30605	0.062
Mof_H 	H 	0.08767	0.28867	0.34641	-0.076
Mof_N 	N 	0.56264	0.99269	0.38049	-0.323
Mof_N 	N 	0.47371	0.00135	0.45663	-0.15
Mof_C 	C 	0.53571	0.00897	0.38128	0.045
Mof_C 	C 	0.51377	0.00567	0.40458	-0.142
Mof_C 	C 	0.51982	0.98453	0.42839	0.049
Mof_C 	C 	0.54755	0.96757	0.42793	-0.138
Mof_C 	C 	0.56847	0.97259	0.4037	0.052
Mof_C 	C 	0.49695	0.9806	0.45415	0.098
Mof_H 	H 	0.53165	0.02349	0.3649	-0.078
Mof_H 	H 	0.49495	0.01757	0.40435	0.058
Mof_H 	H 	0.55208	0.95279	0.44395	0.063
Mof_H 	H 	0.58767	0.96133	0.40359	-0.076
Mof_N 	N 	0.18736	0.49269	0.86951	-0.325
Mof_N 	N 	0.27629	0.50135	0.79337	-0.146
Mof_C 	C 	0.21429	0.50897	0.86872	0.047
Mof_C 	C 	0.23623	0.50567	0.84542	-0.137
Mof_C 	C 	0.23018	0.48453	0.82161	0.045
Mof_C 	C 	0.20245	0.46757	0.82207	-0.137
Mof_C 	C 	0.18153	0.47259	0.8463	0.051
Mof_C 	C 	0.25305	0.4806	0.79585	0.095
Mof_H 	H 	0.21835	0.52349	0.8851	-0.078
Mof_H 	H 	0.25505	0.51757	0.84565	0.057
Mof_H 	H 	0.19792	0.45279	0.80605	0.062
Mof_H 	H 	0.16233	0.46133	0.84641	-0.076
Mof_N 	N 	0.75731	0.86951	0.06264	-0.326
Mof_N 	N 	0.74865	0.79337	0.97371	-0.146
Mof_C 	C 	0.74103	0.86872	0.03571	0.05
Mof_C 	C 	0.74433	0.84542	0.01377	-0.144
Mof_C 	C 	0.76547	0.82161	0.01982	0.042
Mof_C 	C 	0.78243	0.82207	0.04755	-0.136
Mof_C 	C 	0.77741	0.8463	0.06847	0.05
Mof_C 	C 	0.7694	0.79585	0.99695	0.102
Mof_H 	H 	0.72651	0.8851	0.03165	-0.08
Mof_H 	H 	0.73243	0.84565	0.99495	0.062
Mof_H 	H 	0.79721	0.80605	0.05208	0.062
Mof_H 	H 	0.78867	0.84641	0.08767	-0.076
Mof_N 	N 	0.25731	0.38049	0.68736	-0.325
Mof_N 	N 	0.24865	0.45663	0.77629	-0.146
Mof_C 	C 	0.24103	0.38128	0.71429	0.047
Mof_C 	C 	0.24433	0.40458	0.73623	-0.137
Mof_C 	C 	0.26547	0.42839	0.73018	0.045
Mof_C 	C 	0.28243	0.42793	0.70245	-0.137
Mof_C 	C 	0.27741	0.4037	0.68153	0.051
Mof_C 	C 	0.2694	0.45415	0.75305	0.095
Mof_H 	H 	0.22651	0.3649	0.71835	-0.078
Mof_H 	H 	0.23243	0.40435	0.75505	0.057
Mof_H 	H 	0.29721	0.44395	0.69792	0.062
Mof_H 	H 	0.28867	0.40359	0.66233	-0.076
Mof_N 	N 	0.99269	0.36951	0.18736	-0.323
Mof_N 	N 	0.00135	0.29337	0.27629	-0.15
Mof_C 	C 	0.00897	0.36872	0.21429	0.045
Mof_C 	C 	0.00567	0.34542	0.23623	-0.142
Mof_C 	C 	0.98453	0.32161	0.23018	0.049
Mof_C 	C 	0.96757	0.32207	0.20245	-0.138
Mof_C 	C 	0.97259	0.3463	0.18153	0.052
Mof_C 	C 	0.9806	0.29585	0.25305	0.098
Mof_H 	H 	0.02349	0.3851	0.21835	-0.078
Mof_H 	H 	0.01757	0.34565	0.25505	0.058
Mof_H 	H 	0.95279	0.30605	0.19792	0.063
Mof_H 	H 	0.96133	0.34641	0.16233	-0.076
Mof_N 	N 	0.49269	0.88049	0.56264	-0.325
Mof_N 	N 	0.50135	0.95663	0.47371	-0.146
Mof_C 	C 	0.50897	0.88128	0.53571	0.047
Mof_C 	C 	0.50567	0.90458	0.51377	-0.137
Mof_C 	C 	0.48453	0.92839	0.51982	0.045
Mof_C 	C 	0.46757	0.92793	0.54755	-0.137
Mof_C 	C 	0.47259	0.9037	0.56847	0.051
Mof_C 	C 	0.4806	0.95415	0.49695	0.096
Mof_H 	H 	0.52349	0.8649	0.53165	-0.078
Mof_H 	H 	0.51757	0.90435	0.49495	0.057
Mof_H 	H 	0.45279	0.94395	0.55208	0.063
Mof_H 	H 	0.46133	0.90359	0.58767	-0.076
Mof_Zn	Zn	0.90544	0.65544	-0	1.085
Mof_Zn	Zn	0.34456	0.09456	0.5	1.085
Mof_Zn	Zn	0.84456	0.15544	0.25	1.086
Mof_Zn	Zn	0.40544	0.59456	0.75	1.086
Mof_Zn	Zn	-7.16709e-34	0.40544	0.15544	1.084
Mof_Zn	Zn	0.5	0.84456	0.59456	1.086
Mof_Zn	Zn	0.25	0.34456	0.65544	1.086
Mof_Zn	Zn	0.75	0.90544	0.09456	1.086
Mof_Zn	Zn	0.15544	0.5	0.90544	1.086
Mof_Zn	Zn	0.59456	-2.59903e-33	0.34456	1.084
Mof_Zn	Zn	0.65544	0.75	0.84456	1.086
Mof_Zn	Zn	0.09456	0.25	0.40544	1.085
Mof_N 	N 	0.93736	0.11951	0.50731	-0.325
Mof_N 	N 	0.02629	0.04337	0.49865	-0.145
Mof_C 	C 	0.96429	0.11872	0.49103	0.044
Mof_C 	C 	0.98623	0.09542	0.49433	-0.13
Mof_C 	C 	0.98018	0.07161	0.51547	0.047
Mof_C 	C 	0.95245	0.07207	0.53243	-0.138
Mof_C 	C 	0.93153	0.0963	0.52741	0.051
Mof_C 	C 	0.00305	0.04585	0.5194	0.088
Mof_H 	H 	0.96835	0.1351	0.47651	-0.076
Mof_H 	H 	0.00505	0.09565	0.48243	0.052
Mof_H 	H 	0.94792	0.05605	0.54721	0.063
Mof_H 	H 	0.91233	0.09641	0.53867	-0.076
Mof_N 	N 	0.31264	0.63049	0.00731	-0.327
Mof_N 	N 	0.22371	0.70663	0.99865	-0.141
Mof_C 	C 	0.28571	0.63128	0.99103	0.049
Mof_C 	C 	0.26377	0.65458	0.99433	-0.132
Mof_C 	C 	0.26982	0.67839	0.01547	0.04
Mof_C 	C 	0.29755	0.67793	0.03243	-0.136
Mof_C 	C 	0.31847	0.6537	0.02741	0.049
Mof_C 	C 	0.24695	0.70415	0.0194	0.093
Mof_H 	H 	0.28165	0.6149	0.97651	-0.078
Mof_H 	H 	0.24495	0.65435	0.98243	0.056
Mof_H 	H 	0.30208	0.69395	0.04721	0.062
Mof_H 	H 	0.33767	0.65359	0.03867	-0.076
Mof_N 	N 	0.81264	0.61951	0.74269	-0.325
Mof_N 	N 	0.72371	0.54337	0.75135	-0.146
Mof_C 	C 	0.78571	0.61872	0.75897	0.047
Mof_C 	C 	0.76377	0.59542	0.75567	-0.137
Mof_C 	C 	0.76982	0.57161	0.73453	0.045
Mof_C 	C 	0.79755	0.57207	0.71757	-0.137
Mof_C 	C 	0.81847	0.5963	0.72259	0.051
Mof_C 	C 	0.74695	0.54585	0.7306	0.095
Mof_H 	H 	0.78165	0.6351	0.77349	-0.078
Mof_H 	H 	0.74495	0.59565	0.76757	0.057
Mof_H 	H 	0.80208	0.55605	0.70279	0.062
Mof_H 	H 	0.83767	0.59641	0.71133	-0.076
Mof_N 	N 	0.43736	0.13049	0.24269	-0.325
Mof_N 	N 	0.52629	0.20663	0.25135	-0.146
Mof_C 	C 	0.46429	0.13128	0.25897	0.047
Mof_C 	C 	0.48623	0.15458	0.25567	-0.137
Mof_C 	C 	0.48018	0.17839	0.23453	0.045
Mof_C 	C 	0.45245	0.17793	0.21757	-0.137
Mof_C 	C 	0.43153	0.1537	0.22259	0.05
Mof_C 	C 	0.50305	0.20415	0.2306	0.095
Mof_H 	H 	0.46835	0.1149	0.27349	-0.078
Mof_H 	H 	0.50505	0.15435	0.26757	0.057
Mof_H 	H 	0.44792	0.19395	0.20279	0.062
Mof_H 	H 	0.41233	0.15359	0.21133	-0.076
Mof_N 	N 	0.00731	0.93736	0.61951	-0.326
Mof_N 	N 	0.99865	0.02629	0.54337	-0.141
Mof_C 	C 	0.99103	0.96429	0.61872	0.046
Mof_C 	C 	0.99433	0.98623	0.59542	-0.125
Mof_C 	C 	0.01547	0.98018	0.57161	0.042
Mof_C 	C 	0.03243	0.95245	0.57207	-0.137
Mof_C 	C 	0.02741	0.93153	0.5963	0.049
Mof_C 	C 	0.0194	0.00305	0.54585	0.086
Mof_H 	H 	0.97651	0.96835	0.6351	-0.076
Mof_H 	H 	0.98243	0.00505	0.59565	0.051
Mof_H 	H 	0.04721	0.94792	0.55605	0.062
Mof_H 	H 	0.03867	0.91233	0.59641	-0.076
Mof_N 	N 	0.50731	0.31264	0.13049	-0.325
Mof_N 	N 	0.49865	0.22371	0.20663	-0.146
Mof_C 	C 	0.49103	0.28571	0.13128	0.047
Mof_C 	C 	0.49433	0.26377	0.15458	-0.137
Mof_C 	C 	0.51547	0.26982	0.17839	0.045
Mof_C 	C 	0.53243	0.29755	0.17793	-0.137
Mof_C 	C 	0.52741	0.31847	0.1537	0.051
Mof_C 	C 	0.5194	0.24695	0.20415	0.095
Mof_H 	H 	0.47651	0.28165	0.1149	-0.078
Mof_H 	H 	0.48243	0.24495	0.15435	0.057
Mof_H 	H 	0.54721	0.30208	0.19395	0.062
Mof_H 	H 	0.53867	0.33767	0.15359	-0.076
Mof_N 	N 	0.24269	0.81264	0.11951	-0.325
Mof_N 	N 	0.25135	0.72371	0.04337	-0.145
Mof_C 	C 	0.25897	0.78571	0.11872	0.047
Mof_C 	C 	0.25567	0.76377	0.09542	-0.137
Mof_C 	C 	0.23453	0.76982	0.07161	0.044
Mof_C 	C 	0.21757	0.79755	0.07207	-0.137
Mof_C 	C 	0.22259	0.81847	0.0963	0.05
Mof_C 	C 	0.2306	0.74695	0.04585	0.094
Mof_H 	H 	0.27349	0.78165	0.1351	-0.078
Mof_H 	H 	0.26757	0.74495	0.09565	0.057
Mof_H 	H 	0.20279	0.80208	0.05605	0.062
Mof_H 	H 	0.21133	0.83767	0.09641	-0.076
Mof_N 	N 	0.74269	0.43736	0.63049	-0.325
Mof_N 	N 	0.75135	0.52629	0.70663	-0.146
Mof_C 	C 	0.75897	0.46429	0.63128	0.047
Mof_C 	C 	0.75567	0.48623	0.65458	-0.137
Mof_C 	C 	0.73453	0.48018	0.67839	0.045
Mof_C 	C 	0.71757	0.45245	0.67793	-0.137
Mof_C 	C 	0.72259	0.43153	0.6537	0.051
Mof_C 	C 	0.7306	0.50305	0.70415	0.095
Mof_H 	H 	0.77349	0.46835	0.6149	-0.078
Mof_H 	H 	0.76757	0.50505	0.65435	0.057
Mof_H 	H 	0.70279	0.44792	0.69395	0.062
Mof_H 	H 	0.71133	0.41233	0.65359	-0.076
Mof_N 	N 	0.11951	0.00731	0.43736	-0.327
Mof_N 	N 	0.04337	0.99865	0.52629	-0.141
Mof_C 	C 	0.11872	0.99103	0.46429	0.049
Mof_C 	C 	0.09542	0.99433	0.48623	-0.132
Mof_C 	C 	0.07161	0.01547	0.48018	0.04
Mof_C 	C 	0.07207	0.03243	0.45245	-0.136
Mof_C 	C 	0.0963	0.02741	0.43153	0.049
Mof_C 	C 	0.04585	0.0194	0.50305	0.092
Mof_H 	H 	0.1351	0.97651	0.46835	-0.078
Mof_H 	H 	0.09565	0.98243	0.50505	0.056
Mof_H 	H 	0.05605	0.04721	0.44792	0.061
Mof_H 	H 	0.09641	0.03867	0.41233	-0.076
Mof_N 	N 	0.63049	0.50731	0.81264	-0.325
Mof_N 	N 	0.70663	0.49865	0.72371	-0.146
Mof_C 	C 	0.63128	0.49103	0.78571	0.047
Mof_C 	C 	0.65458	0.49433	0.76377	-0.137
Mof_C 	C 	0.67839	0.51547	0.76982	0.045
Mof_C 	C 	0.67793	0.53243	0.79755	-0.137
Mof_C 	C 	0.6537	0.52741	0.81847	0.051
Mof_C 	C 	0.70415	0.5194	0.74695	0.095
Mof_H 	H 	0.6149	0.47651	0.78165	-0.078
Mof_H 	H 	0.65435	0.48243	0.74495	0.057
Mof_H 	H 	0.69395	0.54721	0.80208	0.062
Mof_H 	H 	0.65359	0.53867	0.83767	-0.076
Mof_N 	N 	0.61951	0.24269	0.31264	-0.325
Mof_N 	N 	0.54337	0.25135	0.22371	-0.146
Mof_C 	C 	0.61872	0.25897	0.28571	0.047
Mof_C 	C 	0.59542	0.25567	0.26377	-0.137
Mof_C 	C 	0.57161	0.23453	0.26982	0.045
Mof_C 	C 	0.57207	0.21757	0.29755	-0.137
Mof_C 	C 	0.5963	0.22259	0.31847	0.051
Mof_C 	C 	0.54585	0.2306	0.24695	0.095
Mof_H 	H 	0.6351	0.27349	0.28165	-0.078
Mof_H 	H 	0.59565	0.26757	0.24495	0.057
Mof_H 	H 	0.55605	0.20279	0.30208	0.062
Mof_H 	H 	0.59641	0.21133	0.33767	-0.076
Mof_N 	N 	0.13049	0.74269	0.93736	-0.325
Mof_N 	N 	0.20663	0.75135	0.02629	-0.145
Mof_C 	C 	0.13128	0.75897	0.96429	0.044
Mof_C 	C 	0.15458	0.75567	0.98623	-0.13
Mof_C 	C 	0.17839	0.73453	0.98018	0.047
Mof_C 	C 	0.17793	0.71757	0.95245	-0.138
Mof_C 	C 	0.1537	0.72259	0.93153	0.051
Mof_C 	C 	0.20415	0.7306	0.00305	0.089
Mof_H 	H 	0.1149	0.77349	0.96835	-0.077
Mof_H 	H 	0.15435	0.76757	0.00505	0.052
Mof_H 	H 	0.19395	0.70279	0.94792	0.063
Mof_H 	H 	0.15359	0.71133	0.91233	-0.076
Mof_N 	N 	0.86951	0.18736	0.49269	-0.325
Mof_N 	N 	0.79337	0.27629	0.50135	-0.146
Mof_C 	C 	0.86872	0.21429	0.50897	0.047
Mof_C 	C 	0.84542	0.23623	0.50567	-0.137
Mof_C 	C 	0.82161	0.23018	0.48453	0.045
Mof_C 	C 	0.82207	0.20245	0.46757	-0.137
Mof_C 	C 	0.8463	0.18153	0.47259	0.051
Mof_C 	C 	0.79585	0.25305	0.4806	0.095
Mof_H 	H 	0.8851	0.21835	0.52349	-0.078
Mof_H 	H 	0.84565	0.25505	0.51757	0.057
Mof_H 	H 	0.80605	0.19792	0.45279	0.062
Mof_H 	H 	0.84641	0.16233	0.46133	-0.076
Mof_N 	N 	0.38049	0.56264	0.99269	-0.323
Mof_N 	N 	0.45663	0.47371	0.00135	-0.15
Mof_C 	C 	0.38128	0.53571	0.00897	0.045
Mof_C 	C 	0.40458	0.51377	0.00567	-0.142
Mof_C 	C 	0.42839	0.51982	0.98453	0.049
Mof_C 	C 	0.42793	0.54755	0.96757	-0.138
Mof_C 	C 	0.4037	0.56847	0.97259	0.052
Mof_C 	C 	0.45415	0.49695	0.9806	0.098
Mof_H 	H 	0.3649	0.53165	0.02349	-0.078
Mof_H 	H 	0.40435	0.49495	0.01757	0.058
Mof_H 	H 	0.44395	0.55208	0.95279	0.063
Mof_H 	H 	0.40359	0.58767	0.96133	-0.076
Mof_N 	N 	0.36951	0.06264	0.25731	-0.326
Mof_N 	N 	0.29337	0.97371	0.24865	-0.146
Mof_C 	C 	0.36872	0.03571	0.24103	0.05
Mof_C 	C 	0.34542	0.01377	0.24433	-0.144
Mof_C 	C 	0.32161	0.01982	0.26547	0.042
Mof_C 	C 	0.32207	0.04755	0.28243	-0.136
Mof_C 	C 	0.3463	0.06847	0.27741	0.05
Mof_C 	C 	0.29585	0.99695	0.2694	0.102
Mof_H 	H 	0.3851	0.03165	0.22651	-0.08
Mof_H 	H 	0.34565	0.99495	0.23243	0.062
Mof_H 	H 	0.30605	0.05208	0.29721	0.062
Mof_H 	H 	0.34641	0.08767	0.28867	-0.076
Mof_N 	N 	0.88049	0.68736	0.75731	-0.325
Mof_N 	N 	0.95663	0.77629	0.74865	-0.146
Mof_C 	C 	0.88128	0.71429	0.74103	0.047
Mof_C 	C 	0.90458	0.73623	0.74433	-0.137
Mof_C 	C 	0.92839	0.73018	0.76547	0.045
Mof_C 	C 	0.92793	0.70245	0.78243	-0.137
Mof_C 	C 	0.9037	0.68153	0.77741	0.051
Mof_C 	C 	0.95415	0.75305	0.7694	0.096
Mof_H 	H 	0.8649	0.71835	0.72651	-0.078
Mof_H 	H 	0.90435	0.75505	0.73243	0.057
Mof_H 	H 	0.94395	0.69792	0.79721	0.063
Mof_H 	H 	0.90359	0.66233	0.78867	-0.076
Mof_N 	N 	0.68736	0.25731	0.38049	-0.325
Mof_N 	N 	0.77629	0.24865	0.45663	-0.146
Mof_C 	C 	0.71429	0.24103	0.38128	0.047
Mof_C 	C 	0.73623	0.24433	0.40458	-0.137
Mof_C 	C 	0.73018	0.26547	0.42839	0.045
Mof_C 	C 	0.70245	0.28243	0.42793	-0.137
Mof_C 	C 	0.68153	0.27741	0.4037	0.051
Mof_C 	C 	0.75305	0.2694	0.45415	0.095
Mof_H 	H 	0.71835	0.22651	0.3649	-0.078
Mof_H 	H 	0.75505	0.23243	0.40435	0.057
Mof_H 	H 	0.69792	0.29721	0.44395	0.062
Mof_H 	H 	0.66233	0.28867	0.40359	-0.076
Mof_N 	N 	0.06264	0.75731	0.86951	-0.326
Mof_N 	N 	0.97371	0.74865	0.79337	-0.146
Mof_C 	C 	0.03571	0.74103	0.86872	0.05
Mof_C 	C 	0.01377	0.74433	0.84542	-0.144
Mof_C 	C 	0.01982	0.76547	0.82161	0.042
Mof_C 	C 	0.04755	0.78243	0.82207	-0.136
Mof_C 	C 	0.06847	0.77741	0.8463	0.05
Mof_C 	C 	0.99695	0.7694	0.79585	0.102
Mof_H 	H 	0.03165	0.72651	0.8851	-0.08
Mof_H 	H 	0.99495	0.73243	0.84565	0.062
Mof_H 	H 	0.05208	0.79721	0.80605	0.062
Mof_H 	H 	0.08767	0.78867	0.84641	-0.076
Mof_N 	N 	0.56264	0.49269	0.88049	-0.325
Mof_N 	N 	0.47371	0.50135	0.95663	-0.146
Mof_C 	C 	0.53571	0.50897	0.88128	0.047
Mof_C 	C 	0.51377	0.50567	0.90458	-0.137
Mof_C 	C 	0.51982	0.48453	0.92839	0.045
Mof_C 	C 	0.54755	0.46757	0.92793	-0.137
Mof_C 	C 	0.56847	0.47259	0.9037	0.051
Mof_C 	C 	0.49695	0.4806	0.95415	0.096
Mof_H 	H 	0.53165	0.52349	0.8649	-0.078
Mof_H 	H 	0.49495	0.51757	0.90435	0.057
Mof_H 	H 	0.55208	0.45279	0.94395	0.063
Mof_H 	H 	0.58767	0.46133	0.90359	-0.076
Mof_N 	N 	0.18736	0.99269	0.36951	-0.323
Mof_N 	N 	0.27629	0.00135	0.29337	-0.15
Mof_C 	C 	0.21429	0.00897	0.36872	0.045
Mof_C 	C 	0.23623	0.00567	0.34542	-0.142
Mof_C 	C 	0.23018	0.98453	0.32161	0.049
Mof_C 	C 	0.20245	0.96757	0.32207	-0.138
Mof_C 	C 	0.18153	0.97259	0.3463	0.052
Mof_C 	C 	0.25305	0.9806	0.29585	0.098
Mof_H 	H 	0.21835	0.02349	0.3851	-0.078
Mof_H 	H 	0.25505	0.01757	0.34565	0.058
Mof_H 	H 	0.19792	0.95279	0.30605	0.063
Mof_H 	H 	0.16233	0.96133	0.34641	-0.076
Mof_N 	N 	0.75731	0.36951	0.56264	-0.325
Mof_N 	N 	0.74865	0.29337	0.47371	-0.146
Mof_C 	C 	0.74103	0.36872	0.53571	0.047
Mof_C 	C 	0.74433	0.34542	0.51377	-0.137
Mof_C 	C 	0.76547	0.32161	0.51982	0.045
Mof_C 	C 	0.78243	0.32207	0.54755	-0.137
Mof_C 	C 	0.77741	0.3463	0.56847	0.051
Mof_C 	C 	0.7694	0.29585	0.49695	0.095
Mof_H 	H 	0.72651	0.3851	0.53165	-0.078
Mof_H 	H 	0.73243	0.34565	0.49495	0.057
Mof_H 	H 	0.79721	0.30605	0.55208	0.062
Mof_H 	H 	0.78867	0.34641	0.58767	-0.076
Mof_N 	N 	0.25731	0.88049	0.18736	-0.325
Mof_N 	N 	0.24865	0.95663	0.27629	-0.146
Mof_C 	C 	0.24103	0.88128	0.21429	0.047
Mof_C 	C 	0.24433	0.90458	0.23623	-0.137
Mof_C 	C 	0.26547	0.92839	0.23018	0.045
Mof_C 	C 	0.28243	0.92793	0.20245	-0.137
Mof_C 	C 	0.27741	0.9037	0.18153	0.051
Mof_C 	C 	0.2694	0.95415	0.25305	0.096
Mof_H 	H 	0.22651	0.8649	0.21835	-0.078
Mof_H 	H 	0.23243	0.90435	0.25505	0.057
Mof_H 	H 	0.29721	0.94395	0.19792	0.063
Mof_H 	H 	0.28867	0.90359	0.16233	-0.076
Mof_N 	N 	0.99269	0.86951	0.68736	-0.323
Mof_N 	N 	0.00135	0.79337	0.77629	-0.15
Mof_C 	C 	0.00897	0.86872	0.71429	0.045
Mof_C 	C 	0.00567	0.84542	0.73623	-0.142
Mof_C 	C 	0.98453	0.82161	0.73018	0.049
Mof_C 	C 	0.96757	0.82207	0.70245	-0.138
Mof_C 	C 	0.97259	0.8463	0.68153	0.052
Mof_C 	C 	0.9806	0.79585	0.75305	0.098
Mof_H 	H 	0.02349	0.8851	0.71835	-0.078
Mof_H 	H 	0.01757	0.84565	0.75505	0.058
Mof_H 	H 	0.95279	0.80605	0.69792	0.063
Mof_H 	H 	0.96133	0.84641	0.66233	-0.076
Mof_N 	N 	0.49269	0.38049	0.06264	-0.326
Mof_N 	N 	0.50135	0.45663	0.97371	-0.146
Mof_C 	C 	0.50897	0.38128	0.03571	0.05
Mof_C 	C 	0.50567	0.40458	0.01377	-0.144
Mof_C 	C 	0.48453	0.42839	0.01982	0.042
Mof_C 	C 	0.46757	0.42793	0.04755	-0.136
Mof_C 	C 	0.47259	0.4037	0.06847	0.05
Mof_C 	C 	0.4806	0.45415	0.99695	0.102
Mof_H 	H 	0.52349	0.3649	0.03165	-0.08
Mof_H 	H 	0.51757	0.40435	0.99495	0.062
Mof_H 	H 	0.45279	0.44395	0.05208	0.062
Mof_H 	H 	0.46133	0.40359	0.08767	-0.076
Mof_Zn	Zn	0.90544	0.15544	0.5	1.086
Mof_Zn	Zn	0.34456	0.59456	-0	1.084
Mof_Zn	Zn	0.84456	0.65544	0.75	1.086
Mof_Zn	Zn	0.40544	0.09456	0.25	1.085
Mof_Zn	Zn	-7.93862e-33	0.90544	0.65544	1.085
Mof_Zn	Zn	0.5	0.34456	0.09456	1.085
Mof_Zn	Zn	0.25	0.84456	0.15544	1.086
Mof_Zn	Zn	0.75	0.40544	0.59456	1.086
Mof_Zn	Zn	0.15544	0	0.40544	1.084
Mof_Zn	Zn	0.59456	0.5	0.84456	1.086
Mof_Zn	Zn	0.65544	0.25	0.34456	1.086
Mof_Zn	Zn	0.09456	0.75	0.90544	1.086
Mof_N 	N 	0.43736	0.61951	0.50731	-0.325
Mof_N 	N 	0.52629	0.54337	0.49865	-0.146
Mof_C 	C 	0.46429	0.61872	0.49103	0.047
Mof_C 	C 	0.48623	0.59542	0.49433	-0.137
Mof_C 	C 	0.48018	0.57161	0.51547	0.045
Mof_C 	C 	0.45245	0.57207	0.53243	-0.137
Mof_C 	C 	0.43153	0.5963	0.52741	0.051
Mof_C 	C 	0.50305	0.54585	0.5194	0.095
Mof_H 	H 	0.46835	0.6351	0.47651	-0.078
Mof_H 	H 	0.50505	0.59565	0.48243	0.057
Mof_H 	H 	0.44792	0.55605	0.54721	0.062
Mof_H 	H 	0.41233	0.59641	0.53867	-0.076
Mof_N 	N 	0.81264	0.13049	0.00731	-0.327
Mof_N 	N 	0.72371	0.20663	0.99865	-0.141
Mof_C 	C 	0.78571	0.13128	0.99103	0.049
Mof_C 	C 	0.76377	0.15458	0.99433	-0.132
Mof_C 	C 	0.76982	0.17839	0.01547	0.04
Mof_C 	C 	0.79755	0.17793	0.03243	-0.136
Mof_C 	C 	0.81847	0.1537	0.02741	0.049
Mof_C 	C 	0.74695	0.20415	0.0194	0.093
Mof_H 	H 	0.78165	0.1149	0.97651	-0.078
Mof_H 	H 	0.74495	0.15435	0.98243	0.056
Mof_H 	H 	0.80208	0.19395	0.04721	0.062
Mof_H 	H 	0.83767	0.15359	0.03867	-0.076
Mof_N 	N 	0.31264	0.11951	0.74269	-0.325
Mof_N 	N 	0.22371	0.04337	0.75135	-0.145
Mof_C 	C 	0.28571	0.11872	0.75897	0.047
Mof_C 	C 	0.26377	0.09542	0.75567	-0.137
Mof_C 	C 	0.26982	0.07161	0.73453	0.044
Mof_C 	C 	0.29755	0.07207	0.71757	-0.137
Mof_C 	C 	0.31847	0.0963	0.72259	0.05
Mof_C 	C 	0.24695	0.04585	0.7306	0.094
Mof_H 	H 	0.28165	0.1351	0.77349	-0.078
Mof_H 	H 	0.24495	0.09565	0.76757	0.057
Mof_H 	H 	0.30208	0.05605	0.70279	0.062
Mof_H 	H 	0.33767	0.09641	0.71133	-0.076
Mof_N 	N 	0.93736	0.63049	0.24269	-0.324
Mof_N 	N 	0.02629	0.70663	0.25135	-0.145
Mof_C 	C 	0.96429	0.63128	0.25897	0.044
Mof_C 	C 	0.98623	0.65458	0.25567	-0.13
Mof_C 	C 	0.98018	0.67839	0.23453	0.047
Mof_C 	C 	0.95245	0.67793	0.21757	-0.138
Mof_C 	C 	0.93153	0.6537	0.22259	0.051
Mof_C 	C 	0.00305	0.70415	0.2306	0.089
Mof_H 	H 	0.96835	0.6149	0.27349	-0.076
Mof_H 	H 	0.00505	0.65435	0.26757	0.052
Mof_H 	H 	0.94792	0.69395	0.20279	0.063
Mof_H 	H 	0.91233	0.65359	0.21133	-0.076
Mof_N 	N 	0.50731	0.43736	0.61951	-0.325
Mof_N 	N 	0.49865	0.52629	0.54337	-0.146
Mof_C 	C 	0.49103	0.46429	0.61872	0.047
Mof_C 	C 	0.49433	0.48623	0.59542	-0.137
Mof_C 	C 	0.51547	0.48018	0.57161	0.045
Mof_C 	C 	0.53243	0.45245	0.57207	-0.137
Mof_C 	C 	0.52741	0.43153	0.5963	0.051
Mof_C 	C 	0.5194	0.50305	0.54585	0.095
Mof_H 	H 	0.47651	0.46835	0.6351	-0.078
Mof_H 	H 	0.48243	0.50505	0.59565	0.057
Mof_H 	H 	0.54721	0.44792	0.55605	0.062
Mof_H 	H 	0.53867	0.41233	0.59641	-0.076
Mof_N 	N 	0.00731	0.81264	0.13049	-0.327
Mof_N 	N 	0.99865	0.72371	0.20663	-0.141
Mof_C 	C 	0.99103	0.78571	0.13128	0.049
Mof_C 	C 	0.99433	0.76377	0.15458	-0.132
Mof_C 	C 	0.01547	0.76982	0.17839	0.04
Mof_C 	C 	0.03243	0.79755	0.17793	-0.136
Mof_C 	C 	0.02741	0.81847	0.1537	0.049
Mof_C 	C 	0.0194	0.74695	0.20415	0.093
Mof_H 	H 	0.97651	0.78165	0.1149	-0.078
Mof_H 	H 	0.98243	0.74495	0.15435	0.056
Mof_H 	H 	0.04721	0.80208	0.19395	0.062
Mof_H 	H 	0.03867	0.83767	0.15359	-0.076
Mof_N 	N 	0.74269	0.31264	0.11951	-0.325
Mof_N 	N 	0.75135	0.22371	0.04337	-0.145
Mof_C 	C 	0.75897	0.28571	0.11872	0.047
Mof_C 	C 	0.75567	0.26377	0.09542	-0.137
Mof_C 	C 	0.73453	0.26982	0.07161	0.044
Mof_C 	C 	0.71757	0.29755	0.07207	-0.137
Mof_C 	C 	0.72259	0.31847	0.0963	0.05
Mof_C 	C 	0.7306	0.24695	0.04585	0.094
Mof_H 	H 	0.77349	0.28165	0.1351	-0.078
Mof_H 	H 	0.76757	0.24495	0.09565	0.057
Mof_H 	H 	0.70279	0.30208	0.05605	0.062
Mof_H 	H 	0.71133	0.33767	0.09641	-0.076
Mof_N 	N 	0.24269	0.93736	0.63049	-0.324
Mof_N 	N 	0.25135	0.02629	0.70663	-0.145
Mof_C 	C 	0.25897	0.96429	0.63128	0.044
Mof_C 	C 	0.25567	0.98623	0.65458	-0.13
Mof_C 	C 	0.23453	0.98018	0.67839	0.047
Mof_C 	C 	0.21757	0.95245	0.67793	-0.138
Mof_C 	C 	0.22259	0.93153	0.6537	0.051
Mof_C 	C 	0.2306	0.00305	0.70415	0.089
Mof_H 	H 	0.27349	0.96835	0.6149	-0.076
Mof_H 	H 	0.26757	0.00505	0.65435	0.052
Mof_H 	H 	0.20279	0.94792	0.69395	0.063
Mof_H 	H 	0.21133	0.91233	0.65359	-0.076
Mof_N 	N 	0.61951	0.50731	0.43736	-0.325
Mof_N 	N 	0.54337	0.49865	0.52629	-0.146
Mof_C 	C 	0.61872	0.49103	0.46429	0.047
Mof_C 	C 	0.59542	0.49433	0.48623	-0.137
Mof_C 	C 	0.57161	0.51547	0.48018	0.045
Mof_C 	C 	0.57207	0.53243	0.45245	-0.137
Mof_C 	C 	0.5963	0.52741	0.43153	0.051
Mof_C 	C 	0.54585	0.5194	0.50305	0.095
Mof_H 	H 	0.6351	0.47651	0.46835	-0.078
Mof_H 	H 	0.59565	0.48243	0.50505	0.057
Mof_H 	H 	0.55605	0.54721	0.44792	0.062
Mof_H 	H 	0.59641	0.53867	0.41233	-0.076
Mof_N 	N 	0.13049	0.00731	0.81264	-0.327
Mof_N 	N 	0.20663	0.99865	0.72371	-0.141
Mof_C 	C 	0.13128	0.99103	0.78571	0.049
Mof_C 	C 	0.15458	0.99433	0.76377	-0.132
Mof_C 	C 	0.17839	0.01547	0.76982	0.04
Mof_C 	C 	0.17793	0.03243	0.79755	-0.136
Mof_C 	C 	0.1537	0.02741	0.81847	0.049
Mof_C 	C 	0.20415	0.0194	0.74695	0.093
Mof_H 	H 	0.1149	0.97651	0.78165	-0.078
Mof_H 	H 	0.15435	0.98243	0.74495	0.056
Mof_H 	H 	0.19395	0.04721	0.80208	0.062
Mof_H 	H 	0.15359	0.03867	0.83767	-0.076
Mof_N 	N 	0.11951	0.74269	0.31264	-0.325
Mof_N 	N 	0.04337	0.75135	0.22371	-0.145
Mof_C 	C 	0.11872	0.75897	0.28571	0.047
Mof_C 	C 	0.09542	0.75567	0.26377	-0.137
Mof_C 	C 	0.07161	0.73453	0.26982	0.044
Mof_C 	C 	0.07207	0.71757	0.29755	-0.137
Mof_C 	C 	0.0963	0.72259	0.31847	0.05
Mof_C 	C 	0.04585	0.7306	0.24695	0.094
Mof_H 	H 	0.1351	0.77349	0.28165	-0.078
Mof_H 	H 	0.09565	0.76757	0.24495	0.057
Mof_H 	H 	0.05605	0.70279	0.30208	0.062
Mof_H 	H 	0.09641	0.71133	0.33767	-0.076
Mof_N 	N 	0.63049	0.24269	0.93736	-0.324
Mof_N 	N 	0.70663	0.25135	0.02629	-0.145
Mof_C 	C 	0.63128	0.25897	0.96429	0.044
Mof_C 	C 	0.65458	0.25567	0.98623	-0.13
Mof_C 	C 	0.67839	0.23453	0.98018	0.047
Mof_C 	C 	0.67793	0.21757	0.95245	-0.138
Mof_C 	C 	0.6537	0.22259	0.93153	0.051
Mof_C 	C 	0.70415	0.2306	0.00305	0.089
Mof_H 	H 	0.6149	0.27349	0.96835	-0.076
Mof_H 	H 	0.65435	0.26757	0.00505	0.052
Mof_H 	H 	0.69395	0.20279	0.94792	0.063
Mof_H 	H 	0.65359	0.21133	0.91233	-0.076
Mof_N 	N 	0.36951	0.68736	0.49269	-0.325
Mof_N 	N 	0.29337	0.77629	0.50135	-0.146
Mof_C 	C 	0.36872	0.71429	0.50897	0.047
Mof_C 	C 	0.34542	0.73623	0.50567	-0.137
Mof_C 	C 	0.32161	0.73018	0.48453	0.045
Mof_C 	C 	0.32207	0.70245	0.46757	-0.137
Mof_C 	C 	0.3463	0.68153	0.47259	0.051
Mof_C 	C 	0.29585	0.75305	0.4806	0.095
Mof_H 	H 	0.3851	0.71835	0.52349	-0.078
Mof_H 	H 	0.34565	0.75505	0.51757	0.057
Mof_H 	H 	0.30605	0.69792	0.45279	0.062
Mof_H 	H 	0.34641	0.66233	0.46133	-0.076
Mof_N 	N 	0.88049	0.06264	0.99269	-0.323
Mof_N 	N 	0.95663	0.97371	0.00135	-0.151
Mof_C 	C 	0.88128	0.03571	0.00897	0.048
Mof_C 	C 	0.90458	0.01377	0.00567	-0.148
Mof_C 	C 	0.92839	0.01982	0.98453	0.047
Mof_C 	C 	0.92793	0.04755	0.96757	-0.137
Mof_C 	C 	0.9037	0.06847	0.97259	0.052
Mof_C 	C 	0.95415	0.99695	0.9806	0.105
Mof_H 	H 	0.8649	0.03165	0.02349	-0.08
Mof_H 	H 	0.90435	0.99495	0.01757	0.063
Mof_H 	H 	0.94395	0.05208	0.95279	0.063
Mof_H 	H 	0.90359	0.08767	0.96133	-0.076
Mof_N 	N 	0.86951	0.56264	0.25731	-0.325
Mof_N 	N 	0.79337	0.47371	0.24865	-0.146
Mof_C 	C 	0.86872	0.53571	0.24103	0.047
Mof_C 	C 	0.84542	0.51377	0.24433	-0.137
Mof_C 	C 	0.82161	0.51982	0.26547	0.045
Mof_C 	C 	0.82207	0.54755	0.28243	-0.137
Mof_C 	C 	0.8463	0.56847	0.27741	0.051
Mof_C 	C 	0.79585	0.49695	0.2694	0.095
Mof_H 	H 	0.8851	0.53165	0.22651	-0.078
Mof_H 	H 	0.84565	0.49495	0.23243	0.057
Mof_H 	H 	0.80605	0.55208	0.29721	0.062
Mof_H 	H 	0.84641	0.58767	0.28867	-0.076
Mof_N 	N 	0.38049	0.18736	0.75731	-0.325
Mof_N 	N 	0.45663	0.27629	0.74865	-0.146
Mof_C 	C 	0.38128	0.21429	0.74103	0.047
Mof_C 	C 	0.40458	0.23623	0.74433	-0.137
Mof_C 	C 	0.42839	0.23018	0.76547	0.045
Mof_C 	C 	0.42793	0.20245	0.78243	-0.137
Mof_C 	C 	0.4037	0.18153	0.77741	0.051
Mof_C 	C 	0.45415	0.25305	0.7694	0.095
Mof_H 	H 	0.3649	0.21835	0.72651	-0.078
Mof_H 	H 	0.40435	0.25505	0.73243	0.057
Mof_H 	H 	0.44395	0.19792	0.79721	0.062
Mof_H 	H 	0.40359	0.16233	0.78867	-0.076
Mof_N 	N 	0.18736	0.75731	0.38049	-0.325
Mof_N 	N 	0.27629	0.74865	0.45663	-0.146
Mof_C 	C 	0.21429	0.74103	0.38128	0.047
Mof_C 	C 	0.23623	0.74433	0.40458	-0.137
Mof_C 	C 	0.23018	0.76547	0.42839	0.045
Mof_C 	C 	0.20245	0.78243	0.42793	-0.137
Mof_C 	C 	0.18153	0.77741	0.4037	0.051
Mof_C 	C 	0.25305	0.7694	0.45415	0.095
Mof_H 	H 	0.21835	0.72651	0.3649	-0.078
Mof_H 	H 	0.25505	0.73243	0.40435	0.057
Mof_H 	H 	0.19792	0.79721	0.44395	0.062
Mof_H 	H 	0.16233	0.78867	0.40359	-0.076
Mof_N 	N 	0.56264	0.25731	0.86951	-0.325
Mof_N 	N 	0.47371	0.24865	0.79337	-0.146
Mof_C 	C 	0.53571	0.24103	0.86872	0.047
Mof_C 	C 	0.51377	0.24433	0.84542	-0.137
Mof_C 	C 	0.51982	0.26547	0.82161	0.045
Mof_C 	C 	0.54755	0.28243	0.82207	-0.137
Mof_C 	C 	0.56847	0.27741	0.8463	0.051
Mof_C 	C 	0.49695	0.2694	0.79585	0.095
Mof_H 	H 	0.53165	0.22651	0.8851	-0.078
Mof_H 	H 	0.49495	0.23243	0.84565	0.057
Mof_H 	H 	0.55208	0.29721	0.80605	0.062
Mof_H 	H 	0.58767	0.28867	0.84641	-0.076
Mof_N 	N 	0.06264	0.99269	0.88049	-0.323
Mof_N 	N 	0.97371	0.00135	0.95663	-0.151
Mof_C 	C 	0.03571	0.00897	0.88128	0.048
Mof_C 	C 	0.01377	0.00567	0.90458	-0.148
Mof_C 	C 	0.01982	0.98453	0.92839	0.047
Mof_C 	C 	0.04755	0.96757	0.92793	-0.137
Mof_C 	C 	0.06847	0.97259	0.9037	0.052
Mof_C 	C 	0.99695	0.9806	0.95415	0.105
Mof_H 	H 	0.03165	0.02349	0.8649	-0.08
Mof_H 	H 	0.99495	0.01757	0.90435	0.063
Mof_H 	H 	0.05208	0.95279	0.94395	0.063
Mof_H 	H 	0.08767	0.96133	0.90359	-0.076
Mof_N 	N 	0.68736	0.49269	0.36951	-0.325
Mof_N 	N 	0.77629	0.50135	0.29337	-0.146
Mof_C 	C 	0.71429	0.50897	0.36872	0.047
Mof_C 	C 	0.73623	0.50567	0.34542	-0.137
Mof_C 	C 	0.73018	0.48453	0.32161	0.045
Mof_C 	C 	0.70245	0.46757	0.32207	-0.137
Mof_C 	C 	0.68153	0.47259	0.3463	0.051
Mof_C 	C 	0.75305	0.4806	0.29585	0.095
Mof_H 	H 	0.71835	0.52349	0.3851	-0.078
Mof_H 	H 	0.75505	0.51757	0.34565	0.057
Mof_H 	H 	0.69792	0.45279	0.30605	0.062
Mof_H 	H 	0.66233	0.46133	0.34641	-0.076
Mof_N 	N 	0.25731	0.86951	0.56264	-0.325
Mof_N 	N 	0.24865	0.79337	0.47371	-0.146
Mof_C 	C 	0.24103	0.86872	0.53571	0.047
Mof_C 	C 	0.24433	0.84542	0.51377	-0.137
Mof_C 	C 	0.26547	0.82161	0.51982	0.045
Mof_C 	C 	0.28243	0.82207	0.54755	-0.137
Mof_C 	C 	0.27741	0.8463	0.56847	0.051
Mof_C 	C 	0.2694	0.79585	0.49695	0.095
Mof_H 	H 	0.22651	0.8851	0.53165	-0.078
Mof_H 	H 	0.23243	0.84565	0.49495	0.057
Mof_H 	H 	0.29721	0.80605	0.55208	0.062
Mof_H 	H 	0.28867	0.84641	0.58767	-0.076
Mof_N 	N 	0.75731	0.38049	0.18736	-0.325
Mof_N 	N 	0.74865	0.45663	0.27629	-0.146
Mof_C 	C 	0.74103	0.38128	0.21429	0.047
Mof_C 	C 	0.74433	0.40458	0.23623	-0.137
Mof_C 	C 	0.76547	0.42839	0.23018	0.045
Mof_C 	C 	0.78243	0.42793	0.20245	-0.137
Mof_C 	C 	0.77741	0.4037	0.18153	0.051
Mof_C 	C 	0.7694	0.45415	0.25305	0.095
Mof_H 	H 	0.72651	0.3649	0.21835	-0.078
Mof_H 	H 	0.73243	0.40435	0.25505	0.057
Mof_H 	H 	0.79721	0.44395	0.19792	0.062
Mof_H 	H 	0.78867	0.40359	0.16233	-0.076
Mof_N 	N 	0.49269	0.36951	0.68736	-0.325
Mof_N 	N 	0.50135	0.29337	0.77629	-0.146
Mof_C 	C 	0.50897	0.36872	0.71429	0.047
Mof_C 	C 	0.50567	0.34542	0.73623	-0.137
Mof_C 	C 	0.48453	0.32161	0.73018	0.045
Mof_C 	C 	0.46757	0.32207	0.70245	-0.137
Mof_C 	C 	0.47259	0.3463	0.68153	0.051
Mof_C 	C 	0.4806	0.29585	0.75305	0.095
Mof_H 	H 	0.52349	0.3851	0.71835	-0.078
Mof_H 	H 	0.51757	0.34565	0.75505	0.057
Mof_H 	H 	0.45279	0.30605	0.69792	0.062
Mof_H 	H 	0.46133	0.34641	0.66233	-0.076
Mof_N 	N 	0.99269	0.88049	0.06264	-0.323
Mof_N 	N 	0.00135	0.95663	0.97371	-0.151
Mof_C 	C 	0.00897	0.88128	0.03571	0.048
Mof_C 	C 	0.00567	0.90458	0.01377	-0.148
Mof_C 	C 	0.98453	0.92839	0.01982	0.047
Mof_C 	C 	0.96757	0.92793	0.04755	-0.137
Mof_C 	C 	0.97259	0.9037	0.06847	0.052
Mof_C 	C 	0.9806	0.95415	0.99695	0.105
Mof_H 	H 	0.02349	0.8649	0.03165	-0.08
Mof_H 	H 	0.01757	0.90435	0.99495	0.063
Mof_H 	H 	0.95279	0.94395	0.05208	0.063
Mof_H 	H 	0.96133	0.90359	0.08767	-0.076
Mof_Zn	Zn	0.40544	0.65544	0.5	1.086
Mof_Zn	Zn	0.84456	0.09456	-0	1.084
Mof_Zn	Zn	0.34456	0.15544	0.75	1.085
Mof_Zn	Zn	0.90544	0.59456	0.25	1.086
Mof_Zn	Zn	0.5	0.40544	0.65544	1.086
Mof_Zn	Zn	-2.24449e-33	0.84456	0.09456	1.084
Mof_Zn	Zn	0.75	0.34456	0.15544	1.085
Mof_Zn	Zn	0.25	0.90544	0.59456	1.086
Mof_Zn	Zn	0.65544	0.5	0.40544	1.086
Mof_Zn	Zn	0.09456	0	0.84456	1.084
Mof_Zn	Zn	0.15544	0.75	0.34456	1.085
Mof_Zn	Zn	0.59456	0.25	0.90544	1.086
Mof_N 	N 	0.43736	0.11951	0.00731	-0.327
Mof_N 	N 	0.52629	0.04337	0.99865	-0.141
Mof_C 	C 	0.46429	0.11872	0.99103	0.049
Mof_C 	C 	0.48623	0.09542	0.99433	-0.132
Mof_C 	C 	0.48018	0.07161	0.01547	0.04
Mof_C 	C 	0.45245	0.07207	0.03243	-0.136
Mof_C 	C 	0.43153	0.0963	0.02741	0.049
Mof_C 	C 	0.50305	0.04585	0.0194	0.092
Mof_H 	H 	0.46835	0.1351	0.97651	-0.078
Mof_H 	H 	0.50505	0.09565	0.98243	0.056
Mof_H 	H 	0.44792	0.05605	0.04721	0.061
Mof_H 	H 	0.41233	0.09641	0.03867	-0.076
Mof_N 	N 	0.81264	0.63049	0.50731	-0.325
Mof_N 	N 	0.72371	0.70663	0.49865	-0.146
Mof_C 	C 	0.78571	0.63128	0.49103	0.047
Mof_C 	C 	0.76377	0.65458	0.49433	-0.137
Mof_C 	C 	0.76982	0.67839	0.51547	0.045
Mof_C 	C 	0.79755	0.67793	0.53243	-0.137
Mof_C 	C 	0.81847	0.6537	0.52741	0.051
Mof_C 	C 	0.74695	0.70415	0.5194	0.095
Mof_H 	H 	0.78165	0.6149	0.47651	-0.078
Mof_H 	H 	0.74495	0.65435	0.48243	0.057
Mof_H 	H 	0.80208	0.69395	0.54721	0.062
Mof_H 	H 	0.83767	0.65359	0.53867	-0.076
Mof_N 	N 	0.31264	0.61951	0.24269	-0.325
Mof_N 	N 	0.22371	0.54337	0.25135	-0.146
Mof_C 	C 	0.28571	0.61872	0.25897	0.047
Mof_C 	C 	0.26377	0.59542	0.25567	-0.137
Mof_C 	C 	0.26982	0.57161	0.23453	0.045
Mof_C 	C 	0.29755	0.57207	0.21757	-0.137
Mof_C 	C 	0.31847	0.5963	0.22259	0.051
Mof_C 	C 	0.24695	0.54585	0.2306	0.095
Mof_H 	H 	0.28165	0.6351	0.27349	-0.078
Mof_H 	H 	0.24495	0.59565	0.26757	0.057
Mof_H 	H 	0.30208	0.55605	0.20279	0.062
Mof_H 	H 	0.33767	0.59641	0.21133	-0.076
Mof_N 	N 	0.93736	0.13049	0.74269	-0.325
Mof_N 	N 	0.02629	0.20663	0.75135	-0.145
Mof_C 	C 	0.96429	0.13128	0.75897	0.044
Mof_C 	C 	0.98623	0.15458	0.75567	-0.13
Mof_C 	C 	0.98018	0.17839	0.73453	0.047
Mof_C 	C 	0.95245	0.17793	0.71757	-0.138
Mof_C 	C 	0.93153	0.1537	0.72259	0.051
Mof_C 	C 	0.00305	0.20415	0.7306	0.089
Mof_H 	H 	0.96835	0.1149	0.77349	-0.077
Mof_H 	H 	0.00505	0.15435	0.76757	0.052
Mof_H 	H 	0.94792	0.19395	0.70279	0.063
Mof_H 	H 	0.91233	0.15359	0.71133	-0.076
Mof_N 	N 	0.50731	0.93736	0.11951	-0.325
Mof_N 	N 	0.49865	0.02629	0.04337	-0.145
Mof_C 	C 	0.49103	0.96429	0.11872	0.044
Mof_C 	C 	0.49433	0.98623	0.09542	-0.13
Mof_C 	C 	0.51547	0.98018	0.07161	0.047
Mof_C 	C 	0.53243	0.95245	0.07207	-0.138
Mof_C 	C 	0.52741	0.93153	0.0963	0.051
Mof_C 	C 	0.5194	0.00305	0.04585	0.088
Mof_H 	H 	0.47651	0.96835	0.1351	-0.076
Mof_H 	H 	0.48243	0.00505	0.09565	0.052
Mof_H 	H 	0.54721	0.94792	0.05605	0.063
Mof_H 	H 	0.53867	0.91233	0.09641	-0.076
Mof_N 	N 	0.00731	0.31264	0.63049	-0.327
Mof_N 	N 	0.99865	0.22371	0.70663	-0.141
Mof_C 	C 	0.99103	0.28571	0.63128	0.049
Mof_C 	C 	0.99433	0.26377	0.65458	-0.132
Mof_C 	C 	0.01547	0.26982	0.67839	0.04
Mof_C 	C 	0.03243	0.29755	0.67793	-0.136
Mof_C 	C 	0.02741	0.31847	0.6537	0.049
Mof_C 	C 	0.0194	0.24695	0.70415	0.093
Mof_H 	H 	0.97651	0.28165	0.6149	-0.078
Mof_H 	H 	0.98243	0.24495	0.65435	0.056
Mof_H 	H 	0.04721	0.30208	0.69395	0.062
Mof_H 	H 	0.03867	0.33767	0.65359	-0.076
Mof_N 	N 	0.74269	0.81264	0.61951	-0.325
Mof_N 	N 	0.75135	0.72371	0.54337	-0.146
Mof_C 	C 	0.75897	0.78571	0.61872	0.047
Mof_C 	C 	0.75567	0.76377	0.59542	-0.137
Mof_C 	C 	0.73453	0.76982	0.57161	0.045
Mof_C 	C 	0.71757	0.79755	0.57207	-0.137
Mof_C 	C 	0.72259	0.81847	0.5963	0.051
Mof_C 	C 	0.7306	0.74695	0.54585	0.095
Mof_H 	H 	0.77349	0.78165	0.6351	-0.078
Mof_H 	H 	0.76757	0.74495	0.59565	0.057
Mof_H 	H 	0.70279	0.80208	0.55605	0.062
Mof_H 	H 	0.71133	0.83767	0.59641	-0.076
Mof_N 	N 	0.24269	0.43736	0.13049	-0.325
Mof_N 	N 	0.25135	0.52629	0.20663	-0.146
Mof_C 	C 	0.25897	0.46429	0.13128	0.047
Mof_C 	C 	0.25567	0.48623	0.15458	-0.137
Mof_C 	C 	0.23453	0.48018	0.17839	0.045
Mof_C 	C 	0.21757	0.45245	0.17793	-0.137
Mof_C 	C 	0.22259	0.43153	0.1537	0.05
Mof_C 	C 	0.2306	0.50305	0.20415	0.095
Mof_H 	H 	0.27349	0.46835	0.1149	-0.078
Mof_H 	H 	0.26757	0.50505	0.15435	0.057
Mof_H 	H 	0.20279	0.44792	0.19395	0.062
Mof_H 	H 	0.21133	0.41233	0.15359	-0.076
Mof_N 	N 	0.61951	0.00731	0.93736	-0.326
Mof_N 	N 	0.54337	0.99865	0.02629	-0.141
Mof_C 	C 	0.61872	0.99103	0.96429	0.046
Mof_C 	C 	0.59542	0.99433	0.98623	-0.125
Mof_C 	C 	0.57161	0.01547	0.98018	0.042
Mof_C 	C 	0.57207	0.03243	0.95245	-0.137
Mof_C 	C 	0.5963	0.02741	0.93153	0.049
Mof_C 	C 	0.54585	0.0194	0.00305	0.086
Mof_H 	H 	0.6351	0.97651	0.96835	-0.076
Mof_H 	H 	0.59565	0.98243	0.00505	0.051
Mof_H 	H 	0.55605	0.04721	0.94792	0.062
Mof_H 	H 	0.59641	0.03867	0.91233	-0.076
Mof_N 	N 	0.13049	0.50731	0.31264	-0.325
Mof_N 	N 	0.20663	0.49865	0.22371	-0.146
Mof_C 	C 	0.13128	0.49103	0.28571	0.047
Mof_C 	C 	0.15458	0.49433	0.26377	-0.137
Mof_C 	C 	0.17839	0.51547	0.26982	0.045
Mof_C 	C 	0.17793	0.53243	0.29755	-0.137
Mof_C 	C 	0.1537	0.52741	0.31847	0.051
Mof_C 	C 	0.20415	0.5194	0.24695	0.095
Mof_H 	H 	0.1149	0.47651	0.28165	-0.078
Mof_H 	H 	0.15435	0.48243	0.24495	0.057
Mof_H 	H 	0.19395	0.54721	0.30208	0.062
Mof_H 	H 	0.15359	0.53867	0.33767	-0.076
Mof_N 	N 	0.11951	0.24269	0.81264	-0.325
Mof_N 	N 	0.04337	0.25135	0.72371	-0.145
Mof_C 	C 	0.11872	0.25897	0.78571	0.047
Mof_C 	C 	0.09542	0.25567	0.76377	-0.137
Mof_C 	C 	0.07161	0.23453	0.76982	0.044
Mof_C 	C 	0.07207	0.21757	0.79755	-0.137
Mof_C 	C 	0.0963	0.22259	0.81847	0.05
Mof_C 	C 	0.04585	0.2306	0.74695	0.094
Mof_H 	H 	0.1351	0.27349	0.78165	-0.078
Mof_H 	H 	0.09565	0.26757	0.74495	0.057
Mof_H 	H 	0.05605	0.20279	0.80208	0.062
Mof_H 	H 	0.09641	0.21133	0.83767	-0.076
Mof_N 	N 	0.63049	0.74269	0.43736	-0.325
Mof_N 	N 	0.70663	0.75135	0.52629	-0.146
Mof_C 	C 	0.63128	0.75897	0.46429	0.047
Mof_C 	C 	0.65458	0.75567	0.48623	-0.137
Mof_C 	C 	0.67839	0.73453	0.48018	0.045
Mof_C 	C 	0.67793	0.71757	0.45245	-0.137
Mof_C 	C 	0.6537	0.72259	0.43153	0.051
Mof_C 	C 	0.70415	0.7306	0.50305	0.095
Mof_H 	H 	0.6149	0.77349	0.46835	-0.078
Mof_H 	H 	0.65435	0.76757	0.50505	0.057
Mof_H 	H 	0.69395	0.70279	0.44792	0.062
Mof_H 	H 	0.65359	0.71133	0.41233	-0.076
Mof_N 	N 	0.36951	0.18736	0.99269	-0.323
Mof_N 	N 	0.29337	0.27629	0.00135	-0.15
Mof_C 	C 	0.36872	0.21429	0.00897	0.045
Mof_C 	C 	0.34542	0.23623	0.00567	-0.142
Mof_C 	C 	0.32161	0.23018	0.98453	0.049
Mof_C 	C 	0.32207	0.20245	0.96757	-0.138
Mof_C 	C 	0.3463	0.18153	0.97259	0.052
Mof_C 	C 	0.29585	0.25305	0.9806	0.098
Mof_H 	H 	0.3851	0.21835	0.02349	-0.078
Mof_H 	H 	0.34565	0.25505	0.01757	0.058
Mof_H 	H 	0.30605	0.19792	0.95279	0.063
Mof_H 	H 	0.34641	0.16233	0.96133	-0.076
Mof_N 	N 	0.88049	0.56264	0.49269	-0.325
Mof_N 	N 	0.95663	0.47371	0.50135	-0.146
Mof_C 	C 	0.88128	0.53571	0.50897	0.047
Mof_C 	C 	0.90458	0.51377	0.50567	-0.137
Mof_C 	C 	0.92839	0.51982	0.48453	0.045
Mof_C 	C 	0.92793	0.54755	0.46757	-0.137
Mof_C 	C 	0.9037	0.56847	0.47259	0.051
Mof_C 	C 	0.95415	0.49695	0.4806	0.096
Mof_H 	H 	0.8649	0.53165	0.52349	-0.078
Mof_H 	H 	0.90435	0.49495	0.51757	0.057
Mof_H 	H 	0.94395	0.55208	0.45279	0.063
Mof_H 	H 	0.90359	0.58767	0.46133	-0.076
Mof_N 	N 	0.86951	0.06264	0.75731	-0.326
Mof_N 	N 	0.79337	0.97371	0.74865	-0.146
Mof_C 	C 	0.86872	0.03571	0.74103	0.05
Mof_C 	C 	0.84542	0.01377	0.74433	-0.144
Mof_C 	C 	0.82161	0.01982	0.76547	0.042
Mof_C 	C 	0.82207	0.04755	0.78243	-0.136
Mof_C 	C 	0.8463	0.06847	0.77741	0.05
Mof_C 	C 	0.79585	0.99695	0.7694	0.102
Mof_H 	H 	0.8851	0.03165	0.72651	-0.08
Mof_H 	H 	0.84565	0.99495	0.73243	0.062
Mof_H 	H 	0.80605	0.05208	0.79721	0.062
Mof_H 	H 	0.84641	0.08767	0.78867	-0.076
Mof_N 	N 	0.38049	0.68736	0.25731	-0.325
Mof_N 	N 	0.45663	0.77629	0.24865	-0.146
Mof_C 	C 	0.38128	0.71429	0.24103	0.047
Mof_C 	C 	0.40458	0.73623	0.24433	-0.137
Mof_C 	C 	0.42839	0.73018	0.26547	0.045
Mof_C 	C 	0.42793	0.70245	0.28243	-0.137
Mof_C 	C 	0.4037	0.68153	0.27741	0.051
Mof_C 	C 	0.45415	0.75305	0.2694	0.095
Mof_H 	H 	0.3649	0.71835	0.22651	-0.078
Mof_H 	H 	0.40435	0.75505	0.23243	0.057
Mof_H 	H 	0.44395	0.69792	0.29721	0.062
Mof_H 	H 	0.40359	0.66233	0.28867	-0.076
Mof_N 	N 	0.18736	0.25731	0.88049	-0.325
Mof_N 	N 	0.27629	0.24865	0.95663	-0.146
Mof_C 	C 	0.21429	0.24103	0.88128	0.047
Mof_C 	C 	0.23623	0.24433	0.90458	-0.137
Mof_C 	C 	0.23018	0.26547	0.92839	0.045
Mof_C 	C 	0.20245	0.28243	0.92793	-0.137
Mof_C 	C 	0.18153	0.27741	0.9037	0.051
Mof_C 	C 	0.25305	0.2694	0.95415	0.096
Mof_H 	H 	0.21835	0.22651	0.8649	-0.078
Mof_H 	H 	0.25505	0.23243	0.90435	0.057
Mof_H 	H 	0.19792	0.29721	0.94395	0.063
Mof_H 	H 	0.16233	0.28867	0.90359	-0.076
Mof_N 	N 	0.56264	0.75731	0.36951	-0.325
Mof_N 	N 	0.47371	0.74865	0.29337	-0.146
Mof_C 	C 	0.53571	0.74103	0.36872	0.047
Mof_C 	C 	0.51377	0.74433	0.34542	-0.137
Mof_C 	C 	0.51982	0.76547	0.32161	0.045
Mof_C 	C 	0.54755	0.78243	0.32207	-0.137
Mof_C 	C 	0.56847	0.77741	0.3463	0.051
Mof_C 	C 	0.49695	0.7694	0.29585	0.095
Mof_H 	H 	0.53165	0.72651	0.3851	-0.078
Mof_H 	H 	0.49495	0.73243	0.34565	0.057
Mof_H 	H 	0.55208	0.79721	0.30605	0.062
Mof_H 	H 	0.58767	0.78867	0.34641	-0.076
Mof_N 	N 	0.06264	0.49269	0.38049	-0.326
Mof_N 	N 	0.97371	0.50135	0.45663	-0.146
Mof_C 	C 	0.03571	0.50897	0.38128	0.05
Mof_C 	C 	0.01377	0.50567	0.40458	-0.144
Mof_C 	C 	0.01982	0.48453	0.42839	0.042
Mof_C 	C 	0.04755	0.46757	0.42793	-0.136
Mof_C 	C 	0.06847	0.47259	0.4037	0.05
Mof_C 	C 	0.99695	0.4806	0.45415	0.102
Mof_H 	H 	0.03165	0.52349	0.3649	-0.08
Mof_H 	H 	0.99495	0.51757	0.40435	0.062
Mof_H 	H 	0.05208	0.45279	0.44395	0.062
Mof_H 	H 	0.08767	0.46133	0.40359	-0.076
Mof_N 	N 	0.68736	0.99269	0.86951	-0.323
Mof_N 	N 	0.77629	0.00135	0.79337	-0.15
Mof_C 	C 	0.71429	0.00897	0.86872	0.045
Mof_C 	C 	0.73623	0.00567	0.84542	-0.142
Mof_C 	C 	0.73018	0.98453	0.82161	0.049
Mof_C 	C 	0.70245	0.96757	0.82207	-0.138
Mof_C 	C 	0.68153	0.97259	0.8463	0.052
Mof_C 	C 	0.75305	0.9806	0.79585	0.098
Mof_H 	H 	0.71835	0.02349	0.8851	-0.078
Mof_H 	H 	0.75505	0.01757	0.84565	0.058
Mof_H 	H 	0.69792	0.95279	0.80605	0.063
Mof_H 	H 	0.66233	0.96133	0.84641	-0.076
Mof_N 	N 	0.25731	0.36951	0.06264	-0.326
Mof_N 	N 	0.24865	0.29337	0.97371	-0.146
Mof_C 	C 	0.24103	0.36872	0.03571	0.05
Mof_C 	C 	0.24433	0.34542	0.01377	-0.144
Mof_C 	C 	0.26547	0.32161	0.01982	0.042
Mof_C 	C 	0.28243	0.32207	0.04755	-0.136
Mof_C 	C 	0.27741	0.3463	0.06847	0.05
Mof_C 	C 	0.2694	0.29585	0.99695	0.102
Mof_H 	H 	0.22651	0.3851	0.03165	-0.08
Mof_H 	H 	0.23243	0.34565	0.99495	0.062
Mof_H 	H 	0.29721	0.30605	0.05208	0.062
Mof_H 	H 	0.28867	0.34641	0.08767	-0.076
Mof_N 	N 	0.75731	0.88049	0.68736	-0.325
Mof_N 	N 	0.74865	0.95663	0.77629	-0.146
Mof_C 	C 	0.74103	0.88128	0.71429	0.047
Mof_C 	C 	0.74433	0.90458	0.73623	-0.137
Mof_C 	C 	0.76547	0.92839	0.73018	0.045
Mof_C 	C 	0.78243	0.92793	0.70245	-0.137
Mof_C 	C 	0.77741	0.9037	0.68153	0.051
Mof_C 	C 	0.7694	0.95415	0.75305	0.096
Mof_H 	H 	0.72651	0.8649	0.71835	-0.078
Mof_H 	H 	0.73243	0.90435	0.75505	0.057
Mof_H 	H 	0.79721	0.94395	0.69792	0.063
Mof_H 	H 	0.78867	0.90359	0.66233	-0.076
Mof_N 	N 	0.49269	0.86951	0.18736	-0.325
Mof_N 	N 	0.50135	0.79337	0.27629	-0.146
Mof_C 	C 	0.50897	0.86872	0.21429	0.047
Mof_C 	C 	0.50567	0.84542	0.23623	-0.137
Mof_C 	C 	0.48453	0.82161	0.23018	0.045
Mof_C 	C 	0.46757	0.82207	0.20245	-0.137
Mof_C 	C 	0.47259	0.8463	0.18153	0.051
Mof_C 	C 	0.4806	0.79585	0.25305	0.095
Mof_H 	H 	0.52349	0.8851	0.21835	-0.078
Mof_H 	H 	0.51757	0.84565	0.25505	0.057
Mof_H 	H 	0.45279	0.80605	0.19792	0.062
Mof_H 	H 	0.46133	0.84641	0.16233	-0.076
Mof_N 	N 	0.99269	0.38049	0.56264	-0.323
Mof_N 	N 	0.00135	0.45663	0.47371	-0.15
Mof_C 	C 	0.00897	0.38128	0.53571	0.045
Mof_C 	C 	0.00567	0.40458	0.51377	-0.142
Mof_C 	C 	0.98453	0.42839	0.51982	0.049
Mof_C 	C 	0.96757	0.42793	0.54755	-0.138
Mof_C 	C 	0.97259	0.4037	0.56847	0.052
Mof_C 	C 	0.9806	0.45415	0.49695	0.098
Mof_H 	H 	0.02349	0.3649	0.53165	-0.078
Mof_H 	H 	0.01757	0.40435	0.49495	0.058
Mof_H 	H 	0.95279	0.44395	0.55208	0.063
Mof_H 	H 	0.96133	0.40359	0.58767	-0.076
Mof_Zn	Zn	0.40544	0.15544	-0	1.084
Mof_Zn	Zn	0.84456	0.59456	0.5	1.086
Mof_Zn	Zn	0.34456	0.65544	0.25	1.086
Mof_Zn	Zn	0.90544	0.09456	0.75	1.086
Mof_Zn	Zn	0.5	0.90544	0.15544	1.086
Mof_Zn	Zn	-2.96882e-33	0.34456	0.59456	1.084
Mof_Zn	Zn	0.75	0.84456	0.65544	1.086
Mof_Zn	Zn	0.25	0.40544	0.09456	1.085
Mof_Zn	Zn	0.65544	-1.03961e-32	0.90544	1.085
Mof_Zn	Zn	0.09456	0.5	0.34456	1.085
Mof_Zn	Zn	0.15544	0.25	0.84456	1.086
Mof_Zn	Zn	0.59456	0.75	0.40544	1.086
_end
