data_functionalizedCrystal
_audit_creation_method	'EQeq! by Chris Wilmer'
_symmetry_space_group_name_H-M	'P1'
_symmetry_Int_Tables_number	1
_symmetry_cell_setting	triclinic
loop_
_symmetry_equiv_pos_as_xyz
  x,y,z
_cell_length_a	21.4745
_cell_length_b	7.4295
_cell_length_c	26.173
_cell_angle_alpha	90
_cell_angle_beta	127.366
_cell_angle_gamma	90
loop_
_atom_site_label
_atom_site_type_symbol
_atom_site_fract_x
_atom_site_fract_y
_atom_site_fract_z
_atom_site_charge
Mof_Ba	Ba	0.54553	0.20736	0.73378	1.929
Mof_Ba	Ba	0.0487	0.9709	0.31093	1.972
Mof_F 	F 	0.35904	0.4686	0.51315	-0.387
Mof_F 	F 	0.23839	0.4857	0.38998	-0.409
Mof_F 	F 	0.06587	0.4292	0.44316	-0.486
Mof_F 	F 	0.18585	0.4252	0.56698	-0.436
Mof_F 	F 	0.27083	0.1178	0.65661	-0.429
Mof_F 	F 	0.14422	0.1505	0.64894	-0.411
Mof_F 	F 	0.2977	0.3578	0.86381	-0.384
Mof_F 	F 	0.42256	0.3398	0.86864	-0.418
Mof_O 	O 	0.4015	0.3431	0.63339	-0.443
Mof_O 	O 	0.3441	0.5624	0.64992	-0.459
Mof_O 	O 	0.0705	0.6121	0.31403	-0.587
Mof_O 	O 	0.0356	0.3338	0.31744	-0.573
Mof_O 	O 	0.46982	0.3432	0.78682	-0.563
Mof_O 	O 	0.4348	0.0661	0.7489	-0.585
Mof_O 	O 	0.138	0.3946	0.7816	-0.478
Mof_O 	O 	0.0914	0.1469	0.7214	-0.461
Mof_C 	C 	0.3478	0.4508	0.6164	0.533
Mof_C 	C 	0.2774	0.4472	0.5454	-0.232
Mof_C 	C 	0.2869	0.459	0.4973	0.269
Mof_C 	C 	0.2242	0.4672	0.4335	0.288
Mof_C 	C 	0.1482	0.4571	0.4125	-0.314
Mof_C 	C 	0.1387	0.4392	0.46	0.272
Mof_C 	C 	0.201	0.4382	0.5242	0.261
Mof_C 	C 	0.0792	0.4689	0.3426	0.546
Mof_C 	C 	0.4248	0.2118	0.7664	0.548
Mof_C 	C 	0.3519	0.2282	0.7632	-0.316
Mof_C 	C 	0.279	0.1794	0.7083	0.296
Mof_C 	C 	0.2127	0.1936	0.7053	0.273
Mof_C 	C 	0.2145	0.2545	0.7562	-0.245
Mof_C 	C 	0.2878	0.302	0.8108	0.288
Mof_C 	C 	0.3543	0.2916	0.8135	0.283
Mof_C 	C 	0.1413	0.267	0.7535	0.552
Mof_O 	O 	0.0241	0.952	0.4043	0.331
Mof_C 	C 	0.0647	0.0064	0.4708	-0.139
Mof_H 	H 	0.0353	0.0945	0.4757	0.131
Mof_H 	H 	0.117	0.0515	0.4899	0.106
Mof_C 	C 	0.066	0.8223	0.4973	1.419
Mof_H 	H 	0.0918	0.8319	0.5426	-3.691
Mof_H 	H 	0.0939	0.7384	0.49	-0.542
Mof_H 	H 	0.0133	0.7809	0.476	-0.44
Mof_O 	O 	0.0662	0.969	0.4185	-0.358
Mof_C 	C 	0.0422	0.844	0.4449	-1.195
Mof_H 	H 	0.04	0.7231	0.43	0.458
Mof_H 	H 	0.9908	0.8756	0.4324	0.439
Mof_C 	C 	0.1047	0.856	0.5193	0.197
Mof_H 	H 	0.0912	0.7736	0.5395	3.164
Mof_H 	H 	0.1061	0.9762	0.5333	0.437
Mof_H 	H 	0.1552	0.825	0.5309	-0.028
Mof_Ba	Ba	0.45447	0.70736	0.76622	1.931
Mof_Ba	Ba	0.9513	0.4709	0.18907	1.991
Mof_F 	F 	0.64096	0.9686	0.98685	-0.385
Mof_F 	F 	0.76161	0.9857	0.11002	-0.409
Mof_F 	F 	0.93413	0.9292	0.05684	-0.485
Mof_F 	F 	0.81415	0.9252	0.93302	-0.435
Mof_F 	F 	0.72917	0.6178	0.84339	-0.429
Mof_F 	F 	0.85578	0.6505	0.85106	-0.41
Mof_F 	F 	0.7023	0.8578	0.63619	-0.381
Mof_F 	F 	0.57744	0.8398	0.63136	-0.416
Mof_O 	O 	0.5985	0.8431	0.86661	-0.444
Mof_O 	O 	0.6559	0.0624	0.85008	-0.461
Mof_O 	O 	0.9295	0.1121	0.18597	-0.584
Mof_O 	O 	0.9644	0.8338	0.18256	-0.576
Mof_O 	O 	0.53018	0.8432	0.71318	-0.563
Mof_O 	O 	0.5652	0.5661	0.7511	-0.585
Mof_O 	O 	0.862	0.8946	0.7184	-0.473
Mof_O 	O 	0.9086	0.6469	0.7786	-0.462
Mof_C 	C 	0.6522	0.9508	0.8836	0.535
Mof_C 	C 	0.7226	0.9472	0.9546	-0.232
Mof_C 	C 	0.7131	0.959	0.0027	0.266
Mof_C 	C 	0.7758	0.9672	0.0665	0.287
Mof_C 	C 	0.8518	0.9571	0.0875	-0.315
Mof_C 	C 	0.8613	0.9392	0.04	0.27
Mof_C 	C 	0.799	0.9382	0.9758	0.262
Mof_C 	C 	0.9208	0.9689	0.1574	0.544
Mof_C 	C 	0.5752	0.7118	0.7336	0.549
Mof_C 	C 	0.6481	0.7282	0.7368	-0.316
Mof_C 	C 	0.721	0.6794	0.7917	0.296
Mof_C 	C 	0.7873	0.6936	0.7947	0.273
Mof_C 	C 	0.7855	0.7545	0.7438	-0.244
Mof_C 	C 	0.7122	0.802	0.6892	0.288
Mof_C 	C 	0.6457	0.7916	0.6865	0.284
Mof_C 	C 	0.8587	0.767	0.7465	0.552
Mof_O 	O 	0.9759	0.452	0.0957	0.329
Mof_C 	C 	0.9353	0.5064	0.0292	-0.177
Mof_H 	H 	0.9647	0.5945	0.0243	0.141
Mof_H 	H 	0.883	0.5515	0.0101	0.114
Mof_C 	C 	0.934	0.3223	0.0027	1.437
Mof_H 	H 	0.9082	0.3319	0.9574	-3.721
Mof_H 	H 	0.9061	0.2384	0.01	-0.552
Mof_H 	H 	0.9867	0.2809	0.024	-0.447
Mof_O 	O 	0.9338	0.469	0.0815	-0.351
Mof_C 	C 	0.9578	0.344	0.0551	-1.173
Mof_H 	H 	0.96	0.2231	0.07	0.451
Mof_H 	H 	0.0092	0.3756	0.0676	0.434
Mof_C 	C 	0.8953	0.356	0.9807	0.194
Mof_H 	H 	0.9088	0.2736	0.9605	3.189
Mof_H 	H 	0.8939	0.4762	0.9667	0.448
Mof_H 	H 	0.8448	0.325	0.9691	-0.027
Mof_Ba	Ba	0.45447	0.79264	0.26622	1.93
Mof_Ba	Ba	0.9513	0.0291	0.68907	1.973
Mof_F 	F 	0.64096	0.5314	0.48685	-0.386
Mof_F 	F 	0.76161	0.5143	0.61002	-0.408
Mof_F 	F 	0.93413	0.5708	0.55684	-0.485
Mof_F 	F 	0.81415	0.5748	0.43302	-0.435
Mof_F 	F 	0.72917	0.8822	0.34339	-0.428
Mof_F 	F 	0.85578	0.8495	0.35106	-0.41
Mof_F 	F 	0.7023	0.6422	0.13619	-0.383
Mof_F 	F 	0.57744	0.6602	0.13136	-0.417
Mof_O 	O 	0.5985	0.6569	0.36661	-0.443
Mof_O 	O 	0.6559	0.4376	0.35008	-0.459
Mof_O 	O 	0.9295	0.3879	0.68597	-0.587
Mof_O 	O 	0.9644	0.6662	0.68256	-0.573
Mof_O 	O 	0.53018	0.6568	0.21318	-0.563
Mof_O 	O 	0.5652	0.9339	0.2511	-0.585
Mof_O 	O 	0.862	0.6054	0.2184	-0.478
Mof_O 	O 	0.9086	0.8531	0.2786	-0.461
Mof_C 	C 	0.6522	0.5492	0.3836	0.533
Mof_C 	C 	0.7226	0.5528	0.4546	-0.232
Mof_C 	C 	0.7131	0.541	0.5027	0.269
Mof_C 	C 	0.7758	0.5328	0.5665	0.288
Mof_C 	C 	0.8518	0.5429	0.5875	-0.314
Mof_C 	C 	0.8613	0.5608	0.54	0.272
Mof_C 	C 	0.799	0.5618	0.4758	0.261
Mof_C 	C 	0.9208	0.5311	0.6574	0.546
Mof_C 	C 	0.5752	0.7882	0.2336	0.548
Mof_C 	C 	0.6481	0.7718	0.2368	-0.316
Mof_C 	C 	0.721	0.8206	0.2917	0.296
Mof_C 	C 	0.7873	0.8064	0.2947	0.273
Mof_C 	C 	0.7855	0.7455	0.2438	-0.245
Mof_C 	C 	0.7122	0.698	0.1892	0.288
Mof_C 	C 	0.6457	0.7084	0.1865	0.283
Mof_C 	C 	0.8587	0.733	0.2465	0.552
Mof_O 	O 	0.9759	0.048	0.5957	0.331
Mof_C 	C 	0.9353	0.9936	0.5292	-0.139
Mof_H 	H 	0.9647	0.9055	0.5243	0.131
Mof_H 	H 	0.883	0.9485	0.5101	0.106
Mof_C 	C 	0.934	0.1777	0.5027	1.419
Mof_H 	H 	0.9082	0.1681	0.4574	-3.691
Mof_H 	H 	0.9061	0.2616	0.51	-0.542
Mof_H 	H 	0.9867	0.2191	0.524	-0.44
Mof_O 	O 	0.9338	0.031	0.5815	-0.358
Mof_C 	C 	0.9578	0.156	0.5551	-1.195
Mof_H 	H 	0.96	0.2769	0.57	0.458
Mof_H 	H 	0.0092	0.1244	0.5676	0.439
Mof_C 	C 	0.8953	0.144	0.4807	0.197
Mof_H 	H 	0.9088	0.2264	0.4605	3.164
Mof_H 	H 	0.8939	0.0238	0.4667	0.437
Mof_H 	H 	0.8448	0.175	0.4691	-0.028
Mof_Ba	Ba	0.54553	0.29264	0.23378	1.931
Mof_Ba	Ba	0.0487	0.5291	0.81093	1.991
Mof_F 	F 	0.35904	0.0314	0.01315	-0.385
Mof_F 	F 	0.23839	0.0143	0.88998	-0.409
Mof_F 	F 	0.06587	0.0708	0.94316	-0.485
Mof_F 	F 	0.18585	0.0748	0.06698	-0.435
Mof_F 	F 	0.27083	0.3822	0.15661	-0.429
Mof_F 	F 	0.14422	0.3495	0.14894	-0.41
Mof_F 	F 	0.2977	0.1422	0.36381	-0.381
Mof_F 	F 	0.42256	0.1602	0.36864	-0.416
Mof_O 	O 	0.4015	0.1569	0.13339	-0.444
Mof_O 	O 	0.3441	0.9376	0.14992	-0.461
Mof_O 	O 	0.0705	0.8879	0.81403	-0.584
Mof_O 	O 	0.0356	0.1662	0.81744	-0.576
Mof_O 	O 	0.46982	0.1568	0.28682	-0.563
Mof_O 	O 	0.4348	0.4339	0.2489	-0.585
Mof_O 	O 	0.138	0.1054	0.2816	-0.473
Mof_O 	O 	0.0914	0.3531	0.2214	-0.462
Mof_C 	C 	0.3478	0.0492	0.1164	0.535
Mof_C 	C 	0.2774	0.0528	0.0454	-0.232
Mof_C 	C 	0.2869	0.041	0.9973	0.266
Mof_C 	C 	0.2242	0.0328	0.9335	0.287
Mof_C 	C 	0.1482	0.0429	0.9125	-0.315
Mof_C 	C 	0.1387	0.0608	0.96	0.27
Mof_C 	C 	0.201	0.0618	0.0242	0.262
Mof_C 	C 	0.0792	0.0311	0.8426	0.544
Mof_C 	C 	0.4248	0.2882	0.2664	0.549
Mof_C 	C 	0.3519	0.2718	0.2632	-0.316
Mof_C 	C 	0.279	0.3206	0.2083	0.296
Mof_C 	C 	0.2127	0.3064	0.2053	0.273
Mof_C 	C 	0.2145	0.2455	0.2562	-0.244
Mof_C 	C 	0.2878	0.198	0.3108	0.288
Mof_C 	C 	0.3543	0.2084	0.3135	0.284
Mof_C 	C 	0.1413	0.233	0.2535	0.552
Mof_O 	O 	0.0241	0.548	0.9043	0.329
Mof_C 	C 	0.0647	0.4936	0.9708	-0.177
Mof_H 	H 	0.0353	0.4055	0.9757	0.141
Mof_H 	H 	0.117	0.4485	0.9899	0.114
Mof_C 	C 	0.066	0.6777	0.9973	1.437
Mof_H 	H 	0.0918	0.6681	0.0426	-3.721
Mof_H 	H 	0.0939	0.7616	0.99	-0.552
Mof_H 	H 	0.0133	0.7191	0.976	-0.447
Mof_O 	O 	0.0662	0.531	0.9185	-0.351
Mof_C 	C 	0.0422	0.656	0.9449	-1.173
Mof_H 	H 	0.04	0.7769	0.93	0.451
Mof_H 	H 	0.9908	0.6244	0.9324	0.434
Mof_C 	C 	0.1047	0.644	0.0193	0.194
Mof_H 	H 	0.0912	0.7264	0.0395	3.189
Mof_H 	H 	0.1061	0.5238	0.0333	0.448
Mof_H 	H 	0.1552	0.675	0.0309	-0.027
_end
