data_functionalizedCrystal
_audit_creation_method	'EQeq! by Chris Wilmer'
_symmetry_space_group_name_H-M	'P1'
_symmetry_Int_Tables_number	1
_symmetry_cell_setting	triclinic
loop_
_symmetry_equiv_pos_as_xyz
  x,y,z
_cell_length_a	17.9938
_cell_length_b	17.9938
_cell_length_c	22.1829
_cell_angle_alpha	90
_cell_angle_beta	90
_cell_angle_gamma	90
loop_
_atom_site_label
_atom_site_type_symbol
_atom_site_fract_x
_atom_site_fract_y
_atom_site_fract_z
_atom_site_charge
Mof_C 	C 	0.1562	0.436	0.8955	0.076
Mof_H 	H 	0.1397	0.3904	0.9124	0.018
Mof_C 	C 	0.2006	0.4342	0.8442	-0.127
Mof_C 	C 	0.2195	0.3624	0.8135	0.363
Mof_O 	O 	0.2595	0.368	0.7666	-0.408
Mof_O 	O 	0.1935	0.30297	0.83493	-0.391
Mof_C 	C 	0.6562	0.936	0.3955	0.079
Mof_H 	H 	0.6397	0.8904	0.4124	0.009
Mof_C 	C 	0.7006	0.9342	0.3442	-0.125
Mof_C 	C 	0.7195	0.8624	0.3135	0.363
Mof_O 	O 	0.7595	0.868	0.2666	-0.408
Mof_O 	O 	0.6935	0.80297	0.33493	-0.395
Mof_C 	C 	0.8438	0.564	0.8955	0.078
Mof_H 	H 	0.8603	0.6096	0.9124	0.021
Mof_C 	C 	0.7994	0.5658	0.8442	-0.125
Mof_C 	C 	0.7805	0.6376	0.8135	0.363
Mof_O 	O 	0.7405	0.632	0.7666	-0.408
Mof_O 	O 	0.8065	0.69703	0.83493	-0.389
Mof_C 	C 	0.3438	0.064	0.3955	0.075
Mof_H 	H 	0.3603	0.1096	0.4124	0.01
Mof_C 	C 	0.2994	0.0658	0.3442	-0.129
Mof_C 	C 	0.2805	0.1376	0.3135	0.363
Mof_O 	O 	0.2405	0.132	0.2666	-0.41
Mof_O 	O 	0.3065	0.19703	0.33493	-0.396
Mof_C 	C 	0.564	0.1562	0.8955	0.077
Mof_H 	H 	0.6096	0.1397	0.9124	0.019
Mof_C 	C 	0.5658	0.2006	0.8442	-0.126
Mof_C 	C 	0.6376	0.2195	0.8135	0.363
Mof_O 	O 	0.632	0.2595	0.7666	-0.408
Mof_O 	O 	0.69703	0.1935	0.83493	-0.391
Mof_C 	C 	0.064	0.6562	0.3955	0.075
Mof_H 	H 	0.1096	0.6397	0.4124	0.01
Mof_C 	C 	0.0658	0.7006	0.3442	-0.128
Mof_C 	C 	0.1376	0.7195	0.3135	0.363
Mof_O 	O 	0.132	0.7595	0.2666	-0.41
Mof_O 	O 	0.19703	0.6935	0.33493	-0.396
Mof_C 	C 	0.436	0.8438	0.8955	0.078
Mof_H 	H 	0.3904	0.8603	0.9124	0.02
Mof_C 	C 	0.4342	0.7994	0.8442	-0.125
Mof_C 	C 	0.3624	0.7805	0.8135	0.363
Mof_O 	O 	0.368	0.7405	0.7666	-0.408
Mof_O 	O 	0.30297	0.8065	0.83493	-0.39
Mof_C 	C 	0.936	0.3438	0.3955	0.079
Mof_H 	H 	0.8904	0.3603	0.4124	0.009
Mof_C 	C 	0.9342	0.2994	0.3442	-0.126
Mof_C 	C 	0.8624	0.2805	0.3135	0.363
Mof_O 	O 	0.868	0.2405	0.2666	-0.408
Mof_O 	O 	0.80297	0.3065	0.33493	-0.395
Mof_C 	C 	0.8438	0.436	0.1045	0.075
Mof_H 	H 	0.8603	0.3904	0.0876	0.008
Mof_C 	C 	0.7994	0.4342	0.1558	-0.132
Mof_C 	C 	0.7805	0.3624	0.1865	0.364
Mof_O 	O 	0.7405	0.368	0.2334	-0.41
Mof_O 	O 	0.8065	0.30297	0.16507	-0.398
Mof_C 	C 	0.3438	0.936	0.6045	0.079
Mof_H 	H 	0.3603	0.8904	0.5876	0.009
Mof_C 	C 	0.2994	0.9342	0.6558	-0.123
Mof_C 	C 	0.2805	0.8624	0.6865	0.362
Mof_O 	O 	0.2405	0.868	0.7334	-0.406
Mof_O 	O 	0.3065	0.80297	0.66507	-0.395
Mof_C 	C 	0.1562	0.564	0.1045	0.075
Mof_H 	H 	0.1397	0.6096	0.0876	0.007
Mof_C 	C 	0.2006	0.5658	0.1558	-0.132
Mof_C 	C 	0.2195	0.6376	0.1865	0.364
Mof_O 	O 	0.2595	0.632	0.2334	-0.41
Mof_O 	O 	0.1935	0.69703	0.16507	-0.398
Mof_C 	C 	0.6562	0.064	0.6045	0.074
Mof_H 	H 	0.6397	0.1096	0.5876	0.01
Mof_C 	C 	0.7006	0.0658	0.6558	-0.126
Mof_C 	C 	0.7195	0.1376	0.6865	0.362
Mof_O 	O 	0.7595	0.132	0.7334	-0.407
Mof_O 	O 	0.6935	0.19703	0.66507	-0.395
Mof_C 	C 	0.436	0.1562	0.1045	0.075
Mof_H 	H 	0.3904	0.1397	0.0876	0.007
Mof_C 	C 	0.4342	0.2006	0.1558	-0.132
Mof_C 	C 	0.3624	0.2195	0.1865	0.364
Mof_O 	O 	0.368	0.2595	0.2334	-0.41
Mof_O 	O 	0.30297	0.1935	0.16507	-0.399
Mof_C 	C 	0.936	0.6562	0.6045	0.079
Mof_H 	H 	0.8904	0.6397	0.5876	0.01
Mof_C 	C 	0.9342	0.7006	0.6558	-0.123
Mof_C 	C 	0.8624	0.7195	0.6865	0.362
Mof_O 	O 	0.868	0.7595	0.7334	-0.405
Mof_O 	O 	0.80297	0.6935	0.66507	-0.395
Mof_C 	C 	0.564	0.8438	0.1045	0.075
Mof_H 	H 	0.6096	0.8603	0.0876	0.008
Mof_C 	C 	0.5658	0.7994	0.1558	-0.132
Mof_C 	C 	0.6376	0.7805	0.1865	0.364
Mof_O 	O 	0.632	0.7405	0.2334	-0.41
Mof_O 	O 	0.69703	0.8065	0.16507	-0.398
Mof_C 	C 	0.064	0.3438	0.6045	0.074
Mof_H 	H 	0.1096	0.3603	0.5876	0.01
Mof_C 	C 	0.0658	0.2994	0.6558	-0.127
Mof_C 	C 	0.1376	0.2805	0.6865	0.362
Mof_O 	O 	0.132	0.2405	0.7334	-0.408
Mof_O 	O 	0.19703	0.3065	0.66507	-0.395
Mof_C 	C 	0.8438	0.564	0.1045	0.075
Mof_H 	H 	0.8603	0.6096	0.0876	0.008
Mof_C 	C 	0.7994	0.5658	0.1558	-0.132
Mof_C 	C 	0.7805	0.6376	0.1865	0.364
Mof_O 	O 	0.7405	0.632	0.2334	-0.41
Mof_O 	O 	0.8065	0.69703	0.16507	-0.398
Mof_C 	C 	0.3438	0.064	0.6045	0.074
Mof_H 	H 	0.3603	0.1096	0.5876	0.01
Mof_C 	C 	0.2994	0.0658	0.6558	-0.127
Mof_C 	C 	0.2805	0.1376	0.6865	0.362
Mof_O 	O 	0.2405	0.132	0.7334	-0.408
Mof_O 	O 	0.3065	0.19703	0.66507	-0.395
Mof_C 	C 	0.1562	0.436	0.1045	0.075
Mof_H 	H 	0.1397	0.3904	0.0876	0.007
Mof_C 	C 	0.2006	0.4342	0.1558	-0.132
Mof_C 	C 	0.2195	0.3624	0.1865	0.364
Mof_O 	O 	0.2595	0.368	0.2334	-0.41
Mof_O 	O 	0.1935	0.30297	0.16507	-0.399
Mof_C 	C 	0.6562	0.936	0.6045	0.079
Mof_H 	H 	0.6397	0.8904	0.5876	0.01
Mof_C 	C 	0.7006	0.9342	0.6558	-0.123
Mof_C 	C 	0.7195	0.8624	0.6865	0.362
Mof_O 	O 	0.7595	0.868	0.7334	-0.405
Mof_O 	O 	0.6935	0.80297	0.66507	-0.395
Mof_C 	C 	0.436	0.8438	0.1045	0.075
Mof_H 	H 	0.3904	0.8603	0.0876	0.008
Mof_C 	C 	0.4342	0.7994	0.1558	-0.132
Mof_C 	C 	0.3624	0.7805	0.1865	0.364
Mof_O 	O 	0.368	0.7405	0.2334	-0.41
Mof_O 	O 	0.30297	0.8065	0.16507	-0.398
Mof_C 	C 	0.936	0.3438	0.6045	0.079
Mof_H 	H 	0.8904	0.3603	0.5876	0.009
Mof_C 	C 	0.9342	0.2994	0.6558	-0.123
Mof_C 	C 	0.8624	0.2805	0.6865	0.362
Mof_O 	O 	0.868	0.2405	0.7334	-0.406
Mof_O 	O 	0.80297	0.3065	0.66507	-0.395
Mof_C 	C 	0.564	0.1562	0.1045	0.075
Mof_H 	H 	0.6096	0.1397	0.0876	0.007
Mof_C 	C 	0.5658	0.2006	0.1558	-0.132
Mof_C 	C 	0.6376	0.2195	0.1865	0.364
Mof_O 	O 	0.632	0.2595	0.2334	-0.41
Mof_O 	O 	0.69703	0.1935	0.16507	-0.398
Mof_C 	C 	0.064	0.6562	0.6045	0.074
Mof_H 	H 	0.1096	0.6397	0.5876	0.01
Mof_C 	C 	0.0658	0.7006	0.6558	-0.126
Mof_C 	C 	0.1376	0.7195	0.6865	0.362
Mof_O 	O 	0.132	0.7595	0.7334	-0.407
Mof_O 	O 	0.19703	0.6935	0.66507	-0.395
Mof_C 	C 	0.1562	0.564	0.8955	0.077
Mof_H 	H 	0.1397	0.6096	0.9124	0.019
Mof_C 	C 	0.2006	0.5658	0.8442	-0.126
Mof_C 	C 	0.2195	0.6376	0.8135	0.363
Mof_O 	O 	0.2595	0.632	0.7666	-0.408
Mof_O 	O 	0.1935	0.69703	0.83493	-0.391
Mof_C 	C 	0.6562	0.064	0.3955	0.075
Mof_H 	H 	0.6397	0.1096	0.4124	0.01
Mof_C 	C 	0.7006	0.0658	0.3442	-0.128
Mof_C 	C 	0.7195	0.1376	0.3135	0.363
Mof_O 	O 	0.7595	0.132	0.2666	-0.41
Mof_O 	O 	0.6935	0.19703	0.33493	-0.396
Mof_C 	C 	0.8438	0.436	0.8955	0.078
Mof_H 	H 	0.8603	0.3904	0.9124	0.02
Mof_C 	C 	0.7994	0.4342	0.8442	-0.125
Mof_C 	C 	0.7805	0.3624	0.8135	0.363
Mof_O 	O 	0.7405	0.368	0.7666	-0.408
Mof_O 	O 	0.8065	0.30297	0.83493	-0.39
Mof_C 	C 	0.3438	0.936	0.3955	0.079
Mof_H 	H 	0.3603	0.8904	0.4124	0.009
Mof_C 	C 	0.2994	0.9342	0.3442	-0.126
Mof_C 	C 	0.2805	0.8624	0.3135	0.363
Mof_O 	O 	0.2405	0.868	0.2666	-0.408
Mof_O 	O 	0.3065	0.80297	0.33493	-0.395
Mof_C 	C 	0.564	0.8438	0.8955	0.078
Mof_H 	H 	0.6096	0.8603	0.9124	0.021
Mof_C 	C 	0.5658	0.7994	0.8442	-0.125
Mof_C 	C 	0.6376	0.7805	0.8135	0.363
Mof_O 	O 	0.632	0.7405	0.7666	-0.408
Mof_O 	O 	0.69703	0.8065	0.83493	-0.389
Mof_C 	C 	0.064	0.3438	0.3955	0.075
Mof_H 	H 	0.1096	0.3603	0.4124	0.01
Mof_C 	C 	0.0658	0.2994	0.3442	-0.129
Mof_C 	C 	0.1376	0.2805	0.3135	0.363
Mof_O 	O 	0.132	0.2405	0.2666	-0.41
Mof_O 	O 	0.19703	0.3065	0.33493	-0.396
Mof_C 	C 	0.436	0.1562	0.8955	0.077
Mof_H 	H 	0.3904	0.1397	0.9124	0.019
Mof_C 	C 	0.4342	0.2006	0.8442	-0.126
Mof_C 	C 	0.3624	0.2195	0.8135	0.363
Mof_O 	O 	0.368	0.2595	0.7666	-0.408
Mof_O 	O 	0.30297	0.1935	0.83493	-0.391
Mof_C 	C 	0.936	0.6562	0.3955	0.079
Mof_H 	H 	0.8904	0.6397	0.4124	0.009
Mof_C 	C 	0.9342	0.7006	0.3442	-0.125
Mof_C 	C 	0.8624	0.7195	0.3135	0.363
Mof_O 	O 	0.868	0.7595	0.2666	-0.408
Mof_O 	O 	0.80297	0.6935	0.33493	-0.395
Mof_C 	C 	0.2232	0.5	0.819	0.074
Mof_H 	H 	0.2542	0.5	0.7843	0.04
Mof_N 	N 	0.1357	0.5	0.9219	-0.228
Mof_C 	C 	0.7232	-3.51468e-33	0.319	0.069
Mof_H 	H 	0.7542	-3.51468e-33	0.2843	0.039
Mof_N 	N 	0.6357	0	0.4219	-0.241
Mof_C 	C 	0.7768	0.5	0.819	0.074
Mof_H 	H 	0.7458	0.5	0.7843	0.04
Mof_N 	N 	0.8643	0.5	0.9219	-0.227
Mof_C 	C 	0.2768	-3.51468e-33	0.319	0.069
Mof_H 	H 	0.2458	-3.51468e-33	0.2843	0.039
Mof_N 	N 	0.3643	0	0.4219	-0.241
Mof_C 	C 	0.5	0.2232	0.819	0.074
Mof_H 	H 	0.5	0.2542	0.7843	0.04
Mof_N 	N 	0.5	0.1357	0.9219	-0.228
Mof_C 	C 	-1.25842e-32	0.7232	0.319	0.069
Mof_H 	H 	1.31412e-33	0.7542	0.2843	0.039
Mof_N 	N 	-1.21086e-32	0.6357	0.4219	-0.241
Mof_C 	C 	0.5	0.7768	0.819	0.074
Mof_H 	H 	0.5	0.7458	0.7843	0.04
Mof_N 	N 	0.5	0.8643	0.9219	-0.227
Mof_C 	C 	-5.55486e-33	0.2768	0.319	0.069
Mof_H 	H 	1.31412e-33	0.2458	0.2843	0.039
Mof_N 	N 	-1.21086e-32	0.3643	0.4219	-0.241
Mof_C 	C 	0.7768	0.5	0.181	0.076
Mof_H 	H 	0.7458	0.5	0.2157	0.038
Mof_N 	N 	0.8643	0.5	0.0781	-0.241
Mof_C 	C 	0.2768	0	0.681	0.067
Mof_H 	H 	0.2458	-7.02937e-33	0.7157	0.041
Mof_N 	N 	0.3643	0	0.5781	-0.241
Mof_C 	C 	0.2232	0.5	0.181	0.076
Mof_H 	H 	0.2542	0.5	0.2157	0.038
Mof_N 	N 	0.1357	0.5	0.0781	-0.241
Mof_C 	C 	0.7232	0	0.681	0.066
Mof_H 	H 	0.7542	-7.02937e-33	0.7157	0.042
Mof_N 	N 	0.6357	0	0.5781	-0.241
Mof_C 	C 	0.5	0.2232	0.181	0.076
Mof_H 	H 	0.5	0.2542	0.2157	0.038
Mof_N 	N 	0.5	0.1357	0.0781	-0.241
Mof_C 	C 	-1.79403e-32	0.7232	0.681	0.066
Mof_H 	H 	-3.7212e-33	0.7542	0.7157	0.042
Mof_N 	N 	-4.35722e-33	0.6357	0.5781	-0.241
Mof_C 	C 	0.5	0.7768	0.181	0.076
Mof_H 	H 	0.5	0.7458	0.2157	0.038
Mof_N 	N 	0.5	0.8643	0.0781	-0.241
Mof_C 	C 	-1.79403e-32	0.2768	0.681	0.067
Mof_H 	H 	-1.07506e-32	0.2458	0.7157	0.041
Mof_N 	N 	2.67215e-33	0.3643	0.5781	-0.241
Mof_Cu	Cu	0.28957	0.28957	0.71055	0.906
Mof_Cu	Cu	0.78957	0.78957	0.21055	0.905
Mof_Cu	Cu	0.71043	0.71043	0.71055	0.906
Mof_Cu	Cu	0.21043	0.21043	0.21055	0.905
Mof_Cu	Cu	0.71043	0.28957	0.71055	0.906
Mof_Cu	Cu	0.21043	0.78957	0.21055	0.905
Mof_Cu	Cu	0.28957	0.71043	0.71055	0.906
Mof_Cu	Cu	0.78957	0.21043	0.21055	0.905
Mof_Cu	Cu	0.71043	0.28957	0.28945	0.906
Mof_Cu	Cu	0.21043	0.78957	0.78945	0.907
Mof_Cu	Cu	0.28957	0.71043	0.28945	0.906
Mof_Cu	Cu	0.78957	0.21043	0.78945	0.907
Mof_Cu	Cu	0.28957	0.28957	0.28945	0.906
Mof_Cu	Cu	0.78957	0.78957	0.78945	0.908
Mof_Cu	Cu	0.71043	0.71043	0.28945	0.906
Mof_Cu	Cu	0.21043	0.21043	0.78945	0.907
Mof_Cu	Cu	0.07404	0.5	-0	0.795
Mof_Cu	Cu	0.57404	-7.02937e-33	0.5	0.801
Mof_Cu	Cu	0.92596	0.5	-0	0.796
Mof_Cu	Cu	0.42596	-7.02937e-33	0.5	0.801
Mof_Cu	Cu	0.5	0.07404	-0	0.795
Mof_Cu	Cu	-1.17476e-32	0.57404	0.5	0.801
Mof_Cu	Cu	0.5	0.92596	-0	0.796
Mof_Cu	Cu	-1.17476e-32	0.42596	0.5	0.801
Mof_I 	I 	-3.51468e-33	0.37304	-0	-0.457
Mof_I 	I 	0.5	0.87304	0.5	-0.42
Mof_I 	I 	-7.02937e-33	0.62696	-0	-0.456
Mof_I 	I 	0.5	0.12696	0.5	-0.425
Mof_I 	I 	0.62696	0	-0	-0.456
Mof_I 	I 	0.12696	0.5	0.5	-0.425
Mof_I 	I 	0.37304	0	-0	-0.457
Mof_I 	I 	0.87304	0.5	0.5	-0.42
_end
