data_functionalizedCrystal
_audit_creation_method	'EQeq! by Chris Wilmer'
_symmetry_space_group_name_H-M	'P1'
_symmetry_Int_Tables_number	1
_symmetry_cell_setting	triclinic
loop_
_symmetry_equiv_pos_as_xyz
  x,y,z
_cell_length_a	10.5014
_cell_length_b	10.5014
_cell_length_c	21.47
_cell_angle_alpha	90
_cell_angle_beta	90
_cell_angle_gamma	90
loop_
_atom_site_label
_atom_site_type_symbol
_atom_site_fract_x
_atom_site_fract_y
_atom_site_fract_z
_atom_site_charge
Mof_F 	F 	0.65117	0.74654	0.38442	-0.391
Mof_N 	N 	0.5052	0.03515	0.38019	-0.44
Mof_C 	C 	0.50333	0.92594	0.38199	0.232
Mof_F 	F 	0.15117	0.24654	0.88442	-0.417
Mof_N 	N 	0.0052	0.53515	0.88019	-0.41
Mof_C 	C 	0.00333	0.42594	0.88199	0.179
Mof_F 	F 	0.84883	0.25346	0.88442	-0.31
Mof_N 	N 	0.9948	0.96485	0.88019	-0.339
Mof_C 	C 	0.99667	0.07406	0.88199	0.374
Mof_F 	F 	0.34883	0.75346	0.38442	-0.432
Mof_N 	N 	0.4948	0.46485	0.38019	-0.432
Mof_C 	C 	0.49667	0.57406	0.38199	0.224
Mof_F 	F 	0.00346	0.90117	0.63442	-0.448
Mof_N 	N 	0.71485	0.7552	0.63019	-0.45
Mof_C 	C 	0.82406	0.75333	0.63199	0.367
Mof_F 	F 	0.50346	0.40117	0.13442	-0.408
Mof_N 	N 	0.21485	0.2552	0.13019	-0.397
Mof_C 	C 	0.32406	0.25333	0.13199	0.203
Mof_F 	F 	0.49654	0.09883	0.13442	-0.408
Mof_N 	N 	0.78515	0.2448	0.13019	-0.334
Mof_C 	C 	0.67594	0.24667	0.13199	0.232
Mof_F 	F 	0.99654	0.59883	0.63442	-0.284
Mof_N 	N 	0.28515	0.7448	0.63019	-0.441
Mof_C 	C 	0.17594	0.74667	0.63199	0.21
Mof_F 	F 	0.34883	0.25346	0.61558	-0.434
Mof_N 	N 	0.4948	0.96485	0.61981	-0.426
Mof_C 	C 	0.49667	0.07406	0.61801	0.213
Mof_F 	F 	0.84883	0.75346	0.11558	-0.307
Mof_N 	N 	0.9948	0.46485	0.11981	-0.347
Mof_C 	C 	0.99667	0.57406	0.11801	0.389
Mof_F 	F 	0.15117	0.74654	0.11558	-0.415
Mof_N 	N 	0.0052	0.03515	0.11981	-0.415
Mof_C 	C 	0.00333	0.92594	0.11801	0.189
Mof_F 	F 	0.65117	0.24654	0.61558	-0.393
Mof_N 	N 	0.5052	0.53515	0.61981	-0.433
Mof_C 	C 	0.50333	0.42594	0.61801	0.222
Mof_F 	F 	0.99654	0.09883	0.36558	-0.288
Mof_N 	N 	0.28515	0.2448	0.36981	-0.441
Mof_C 	C 	0.17594	0.24667	0.36801	0.208
Mof_F 	F 	0.49654	0.59883	0.86558	-0.406
Mof_N 	N 	0.78515	0.7448	0.86981	-0.333
Mof_C 	C 	0.67594	0.74667	0.86801	0.234
Mof_F 	F 	0.50346	0.90117	0.86558	-0.407
Mof_N 	N 	0.21485	0.7552	0.86981	-0.397
Mof_C 	C 	0.32406	0.75333	0.86801	0.205
Mof_F 	F 	0.00346	0.40117	0.36558	-0.45
Mof_N 	N 	0.71485	0.2552	0.36981	-0.45
Mof_C 	C 	0.82406	0.25333	0.36801	0.364
Mof_Li	Li	0.5	0.25	0.375	2.87
Mof_Li	Li	6.70741e-33	0.75	0.875	2.441
Mof_Li	Li	0.5	0.75	0.625	2.876
Mof_Li	Li	3.62361e-33	0.25	0.125	2.438
Mof_P 	P 	0.5	0.75	0.38273	0.521
Mof_F 	F 	0.5	0.75	0.30924	-0.357
Mof_N 	N 	0.5	0.75	0.522	-0.448
Mof_C 	C 	0.5	0.75	0.46856	0.148
Mof_P 	P 	6.76666e-33	0.25	0.88273	0.398
Mof_F 	F 	-1.512e-32	0.25	0.80924	-0.413
Mof_N 	N 	-8.30885e-34	0.25	0.022	-0.424
Mof_C 	C 	7.4246e-33	0.25	0.96856	0.08
Mof_P 	P 	1.55119e-32	0.75	0.63273	0.388
Mof_F 	F 	4.28691e-33	0.75	0.55924	-0.418
Mof_N 	N 	5.91785e-33	0.75	0.772	-0.426
Mof_C 	C 	-5.15344e-33	0.75	0.71856	0.073
Mof_P 	P 	0.5	0.25	0.13273	0.529
Mof_F 	F 	0.5	0.25	0.05924	-0.353
Mof_N 	N 	0.5	0.25	0.272	-0.445
Mof_C 	C 	0.5	0.25	0.21856	0.155
Mof_P 	P 	0.5	0.25	0.61727	0.523
Mof_F 	F 	0.5	0.25	0.69076	-0.36
Mof_N 	N 	0.5	0.25	0.478	-0.448
Mof_C 	C 	0.5	0.25	0.53144	0.146
Mof_P 	P 	-1.76646e-33	0.75	0.11727	0.393
Mof_F 	F 	-9.19935e-33	0.75	0.19076	-0.411
Mof_N 	N 	7.49696e-33	0.75	0.978	-0.424
Mof_C 	C 	-1.0917e-33	0.75	0.03144	0.082
Mof_P 	P 	-7.84629e-33	0.25	0.36727	0.39
Mof_F 	F 	3.37869e-33	0.25	0.44076	-0.42
Mof_N 	N 	1.74776e-33	0.25	0.228	-0.426
Mof_C 	C 	-3.17341e-33	0.25	0.28144	0.072
Mof_P 	P 	0.5	0.75	0.86727	0.528
Mof_F 	F 	0.5	0.75	0.94076	-0.351
Mof_N 	N 	0.5	0.75	0.728	-0.445
Mof_C 	C 	0.5	0.75	0.78144	0.156
_end
