data_functionalizedCrystal
_audit_creation_method	'EQeq! by Chris Wilmer'
_symmetry_space_group_name_H-M	'P1'
_symmetry_Int_Tables_number	1
_symmetry_cell_setting	triclinic
loop_
_symmetry_equiv_pos_as_xyz
  x,y,z
_cell_length_a	12.9012
_cell_length_b	14.5816
_cell_length_c	11.8243
_cell_angle_alpha	90
_cell_angle_beta	90
_cell_angle_gamma	90
loop_
_atom_site_label
_atom_site_type_symbol
_atom_site_fract_x
_atom_site_fract_y
_atom_site_fract_z
_atom_site_charge
Mof_Cd	Cd	0.50211	0.25495	0.02373	0.519
Mof_O 	O 	0.47946	0.11477	0.1473	-0.222
Mof_O 	O 	0.34461	0.19532	0.09262	-0.219
Mof_O 	O 	0.14152	0.10304	0.02362	-0.215
Mof_O 	O 	0.08693	0.18534	0.16975	-0.235
Mof_O 	O 	0.08996	0.817	0.37887	-0.232
Mof_O 	O 	0.11338	0.91225	0.52128	-0.211
Mof_O 	O 	0.3228	0.81488	0.47549	-0.215
Mof_O 	O 	0.46345	0.86245	0.39528	-0.233
Mof_C 	C 	0.38419	0.12831	0.14417	0.287
Mof_C 	C 	0.31464	0.06356	0.20828	-0.019
Mof_C 	C 	0.20615	0.06609	0.20585	-0.022
Mof_C 	C 	0.14228	0.12301	0.12502	0.3
Mof_C 	C 	0.15083	0.00822	0.2781	-0
Mof_C 	C 	0.19942	0.94464	0.3484	-0.02
Mof_C 	C 	0.13049	0.88631	0.42354	0.302
Mof_C 	C 	0.30767	0.93815	0.34497	-0.025
Mof_C 	C 	0.36738	0.86762	0.41087	0.299
Mof_C 	C 	0.36262	0.99896	0.277	-0.01
Mof_H 	H 	0.4371	0.9927	0.279	0.085
Mof_H 	H 	0.0723	0.0119	0.281	0.069
Mof_Cd	Cd	0.49789	0.74506	0.52373	0.525
Mof_O 	O 	0.52054	0.88523	0.6473	-0.22
Mof_O 	O 	0.65539	0.80468	0.59262	-0.217
Mof_O 	O 	0.85848	0.89696	0.52362	-0.211
Mof_O 	O 	0.91307	0.81466	0.66975	-0.234
Mof_O 	O 	0.91004	0.183	0.87887	-0.23
Mof_O 	O 	0.88662	0.08775	0.02128	-0.219
Mof_O 	O 	0.6772	0.18512	0.97549	-0.21
Mof_O 	O 	0.53655	0.13755	0.89528	-0.228
Mof_C 	C 	0.61581	0.87169	0.64417	0.287
Mof_C 	C 	0.68536	0.93644	0.70828	-0.018
Mof_C 	C 	0.79385	0.93391	0.70585	-0.022
Mof_C 	C 	0.85772	0.87699	0.62502	0.3
Mof_C 	C 	0.84917	0.99178	0.7781	0.001
Mof_C 	C 	0.80058	0.05536	0.8484	-0.021
Mof_C 	C 	0.86951	0.11369	0.92354	0.312
Mof_C 	C 	0.69233	0.06185	0.84497	-0.022
Mof_C 	C 	0.63262	0.13238	0.91087	0.298
Mof_C 	C 	0.63738	0.00104	0.777	-0.009
Mof_H 	H 	0.5629	0.0073	0.779	0.087
Mof_H 	H 	0.9277	0.9881	0.781	0.07
Mof_Cd	Cd	0.00211	0.24506	0.02373	0.515
Mof_O 	O 	0.97946	0.38523	0.1473	-0.222
Mof_O 	O 	0.84461	0.30468	0.09262	-0.218
Mof_O 	O 	0.64152	0.39696	0.02362	-0.214
Mof_O 	O 	0.58693	0.31466	0.16975	-0.235
Mof_O 	O 	0.58996	0.683	0.37887	-0.233
Mof_O 	O 	0.61338	0.58775	0.52128	-0.212
Mof_O 	O 	0.8228	0.68512	0.47549	-0.215
Mof_O 	O 	0.96345	0.63755	0.39528	-0.233
Mof_C 	C 	0.88419	0.37169	0.14417	0.287
Mof_C 	C 	0.81464	0.43644	0.20828	-0.018
Mof_C 	C 	0.70615	0.43391	0.20585	-0.023
Mof_C 	C 	0.64228	0.37699	0.12502	0.3
Mof_C 	C 	0.65083	0.49178	0.2781	0.001
Mof_C 	C 	0.69942	0.55536	0.3484	-0.022
Mof_C 	C 	0.63049	0.61369	0.42354	0.302
Mof_C 	C 	0.80767	0.56185	0.34497	-0.024
Mof_C 	C 	0.86738	0.63238	0.41087	0.298
Mof_C 	C 	0.86262	0.50104	0.277	-0.011
Mof_H 	H 	0.9371	0.5073	0.279	0.086
Mof_H 	H 	0.5723	0.4881	0.281	0.069
Mof_Cd	Cd	0.99789	0.75495	0.52373	0.524
Mof_O 	O 	0.02054	0.61477	0.6473	-0.219
Mof_O 	O 	0.15539	0.69532	0.59262	-0.216
Mof_O 	O 	0.35848	0.60304	0.52362	-0.211
Mof_O 	O 	0.41307	0.68534	0.66975	-0.233
Mof_O 	O 	0.41004	0.317	0.87887	-0.231
Mof_O 	O 	0.38662	0.41225	0.02128	-0.223
Mof_O 	O 	0.1772	0.31488	0.97549	-0.208
Mof_O 	O 	0.03655	0.36245	0.89528	-0.227
Mof_C 	C 	0.11581	0.62831	0.64417	0.286
Mof_C 	C 	0.18536	0.56356	0.70828	-0.016
Mof_C 	C 	0.29385	0.56609	0.70585	-0.023
Mof_C 	C 	0.35772	0.62301	0.62502	0.3
Mof_C 	C 	0.34917	0.50822	0.7781	0.004
Mof_C 	C 	0.30058	0.44464	0.8484	-0.025
Mof_C 	C 	0.36951	0.38631	0.92354	0.316
Mof_C 	C 	0.19233	0.43815	0.84497	-0.019
Mof_C 	C 	0.13262	0.36762	0.91087	0.296
Mof_C 	C 	0.13738	0.49896	0.777	-0.013
Mof_H 	H 	0.0629	0.4927	0.779	0.088
Mof_H 	H 	0.4277	0.5119	0.781	0.07
_end
