data_functionalizedCrystal
_audit_creation_method	'EQeq! by Chris Wilmer'
_symmetry_space_group_name_H-M	'P1'
_symmetry_Int_Tables_number	1
_symmetry_cell_setting	triclinic
loop_
_symmetry_equiv_pos_as_xyz
  x,y,z
_cell_length_a	15.512
_cell_length_b	15.512
_cell_length_c	15.645
_cell_angle_alpha	90
_cell_angle_beta	90
_cell_angle_gamma	120
loop_
_atom_site_label
_atom_site_type_symbol
_atom_site_fract_x
_atom_site_fract_y
_atom_site_fract_z
_atom_site_charge
Mof_Pr	Pr	0.33333	0.66666	0.75	2.557
Mof_Pr	Pr	0.66667	0.33334	0.75	2.557
Mof_Pr	Pr	0.66667	0.33334	0.25	2.538
Mof_Pr	Pr	0.33333	0.66666	0.25	2.537
Mof_Mn	Mn	0.5	0.5	-0	0.767
Mof_Mn	Mn	-0	0.5	-0	0.69
Mof_Mn	Mn	0.5	0	-0	0.69
Mof_Mn	Mn	7.98529e-18	0.5	0.5	0.823
Mof_Mn	Mn	0.5	0.5	0.5	0.902
Mof_Mn	Mn	0.5	0	0.5	0.823
Mof_H 	H 	0.2328	0.2863	0.8414	0.053
Mof_H 	H 	0.0535	0.7672	0.8414	0.049
Mof_H 	H 	0.7137	0.9465	0.8414	0.075
Mof_H 	H 	0.7672	0.7137	0.8414	0.064
Mof_H 	H 	0.9465	0.2328	0.8414	0.07
Mof_H 	H 	0.2863	0.0535	0.8414	0.043
Mof_H 	H 	0.9465	0.7137	0.6586	0.062
Mof_H 	H 	0.2863	0.2328	0.6586	0.039
Mof_H 	H 	0.7672	0.0535	0.6586	0.034
Mof_H 	H 	0.0535	0.2863	0.6586	0.029
Mof_H 	H 	0.7137	0.7672	0.6586	0.05
Mof_H 	H 	0.2328	0.9465	0.6586	0.056
Mof_H 	H 	0.7672	0.7137	0.1586	0.038
Mof_H 	H 	0.9465	0.2328	0.1586	0.044
Mof_H 	H 	0.2863	0.0535	0.1586	0.016
Mof_H 	H 	0.2328	0.2863	0.1586	0.026
Mof_H 	H 	0.0535	0.7672	0.1586	0.022
Mof_H 	H 	0.7137	0.9465	0.1586	0.049
Mof_H 	H 	0.0535	0.2863	0.3414	0.026
Mof_H 	H 	0.7137	0.7672	0.3414	0.048
Mof_H 	H 	0.2328	0.9465	0.3414	0.055
Mof_H 	H 	0.9465	0.7137	0.3414	0.06
Mof_H 	H 	0.2863	0.2328	0.3414	0.037
Mof_H 	H 	0.7672	0.0535	0.3414	0.032
Mof_H 	H 	0.10035	0.2007	0.75	0.028
Mof_H 	H 	0.10035	0.89965	0.75	0.045
Mof_H 	H 	0.7993	0.89965	0.75	0.063
Mof_H 	H 	0.89965	0.7993	0.75	0.063
Mof_H 	H 	0.89965	0.10035	0.75	0.045
Mof_H 	H 	0.2007	0.10035	0.75	0.028
Mof_H 	H 	0.89965	0.7993	0.25	0.059
Mof_H 	H 	0.89965	0.10035	0.25	0.041
Mof_H 	H 	0.2007	0.10035	0.25	0.024
Mof_H 	H 	0.10035	0.2007	0.25	0.024
Mof_H 	H 	0.10035	0.89965	0.25	0.041
Mof_H 	H 	0.7993	0.89965	0.25	0.059
Mof_C 	C 	0.2633	0.4236	0.8034	-0.037
Mof_C 	C 	0.3512	0.4875	0.8606	0.372
Mof_C 	C 	0.2133	0.3204	0.8044	-0.021
Mof_C 	C 	0.1603	0.7367	0.8034	-0.036
Mof_C 	C 	0.1363	0.6488	0.8606	0.371
Mof_C 	C 	0.1071	0.7867	0.8044	-0.019
Mof_C 	C 	0.5764	0.8397	0.8034	-0.023
Mof_C 	C 	0.5125	0.8637	0.8606	0.367
Mof_C 	C 	0.6796	0.8929	0.8044	-0.015
Mof_C 	C 	0.7367	0.5764	0.8034	-0.029
Mof_C 	C 	0.6488	0.5125	0.8606	0.374
Mof_C 	C 	0.7867	0.6796	0.8044	-0.014
Mof_C 	C 	0.8397	0.2633	0.8034	-0.026
Mof_C 	C 	0.8637	0.3512	0.8606	0.367
Mof_C 	C 	0.8929	0.2133	0.8044	-0.019
Mof_C 	C 	0.4236	0.1603	0.8034	-0.04
Mof_C 	C 	0.4875	0.1363	0.8606	0.37
Mof_C 	C 	0.3204	0.1071	0.8044	-0.022
Mof_C 	C 	0.8397	0.5764	0.6966	-0.035
Mof_C 	C 	0.8637	0.5125	0.6394	0.376
Mof_C 	C 	0.8929	0.6796	0.6956	-0.013
Mof_C 	C 	0.4236	0.2633	0.6966	-0.049
Mof_C 	C 	0.4875	0.3512	0.6394	0.382
Mof_C 	C 	0.3204	0.2133	0.6956	-0.019
Mof_C 	C 	0.7367	0.1603	0.6966	-0.048
Mof_C 	C 	0.6488	0.1363	0.6394	0.381
Mof_C 	C 	0.7867	0.1071	0.6956	-0.017
Mof_C 	C 	0.1603	0.4236	0.6966	-0.053
Mof_C 	C 	0.1363	0.4875	0.6394	0.38
Mof_C 	C 	0.1071	0.3204	0.6956	-0.02
Mof_C 	C 	0.5764	0.7367	0.6966	-0.041
Mof_C 	C 	0.5125	0.6488	0.6394	0.383
Mof_C 	C 	0.6796	0.7867	0.6956	-0.012
Mof_C 	C 	0.2633	0.8397	0.6966	-0.038
Mof_C 	C 	0.3512	0.8637	0.6394	0.376
Mof_C 	C 	0.2133	0.8929	0.6956	-0.018
Mof_C 	C 	0.7367	0.5764	0.1966	-0.051
Mof_C 	C 	0.6488	0.5125	0.1394	0.378
Mof_C 	C 	0.7867	0.6796	0.1956	-0.008
Mof_C 	C 	0.8397	0.2633	0.1966	-0.047
Mof_C 	C 	0.8637	0.3512	0.1394	0.371
Mof_C 	C 	0.8929	0.2133	0.1956	-0.013
Mof_C 	C 	0.4236	0.1603	0.1966	-0.062
Mof_C 	C 	0.4875	0.1363	0.1394	0.375
Mof_C 	C 	0.3204	0.1071	0.1956	-0.016
Mof_C 	C 	0.2633	0.4236	0.1966	-0.059
Mof_C 	C 	0.3512	0.4875	0.1394	0.377
Mof_C 	C 	0.2133	0.3204	0.1956	-0.015
Mof_C 	C 	0.1603	0.7367	0.1966	-0.057
Mof_C 	C 	0.1363	0.6488	0.1394	0.376
Mof_C 	C 	0.1071	0.7867	0.1956	-0.013
Mof_C 	C 	0.5764	0.8397	0.1966	-0.044
Mof_C 	C 	0.5125	0.8637	0.1394	0.372
Mof_C 	C 	0.6796	0.8929	0.1956	-0.009
Mof_C 	C 	0.1603	0.4236	0.3034	-0.057
Mof_C 	C 	0.1363	0.4875	0.3606	0.38
Mof_C 	C 	0.1071	0.3204	0.3044	-0.015
Mof_C 	C 	0.5764	0.7367	0.3034	-0.046
Mof_C 	C 	0.5125	0.6488	0.3606	0.384
Mof_C 	C 	0.6796	0.7867	0.3044	-0.007
Mof_C 	C 	0.2633	0.8397	0.3034	-0.043
Mof_C 	C 	0.3512	0.8637	0.3606	0.376
Mof_C 	C 	0.2133	0.8929	0.3044	-0.012
Mof_C 	C 	0.8397	0.5764	0.3034	-0.039
Mof_C 	C 	0.8637	0.5125	0.3606	0.377
Mof_C 	C 	0.8929	0.6796	0.3044	-0.008
Mof_C 	C 	0.4236	0.2633	0.3034	-0.054
Mof_C 	C 	0.4875	0.3512	0.3606	0.382
Mof_C 	C 	0.3204	0.2133	0.3044	-0.014
Mof_C 	C 	0.7367	0.1603	0.3034	-0.053
Mof_C 	C 	0.6488	0.1363	0.3606	0.381
Mof_C 	C 	0.7867	0.1071	0.3044	-0.012
Mof_C 	C 	0.13495	0.2699	0.75	-0.053
Mof_C 	C 	0.13495	0.86505	0.75	-0.045
Mof_C 	C 	0.7301	0.86505	0.75	-0.04
Mof_C 	C 	0.86505	0.7301	0.75	-0.04
Mof_C 	C 	0.86505	0.13495	0.75	-0.045
Mof_C 	C 	0.2699	0.13495	0.75	-0.054
Mof_C 	C 	0.86505	0.7301	0.25	-0.054
Mof_C 	C 	0.86505	0.13495	0.25	-0.059
Mof_C 	C 	0.2699	0.13495	0.25	-0.068
Mof_C 	C 	0.13495	0.2699	0.25	-0.068
Mof_C 	C 	0.13495	0.86505	0.25	-0.06
Mof_C 	C 	0.7301	0.86505	0.25	-0.054
Mof_N 	N 	0.2372	0.4744	0.75	-0.224
Mof_N 	N 	0.2372	0.7628	0.75	-0.224
Mof_N 	N 	0.5256	0.7628	0.75	-0.223
Mof_N 	N 	0.7628	0.5256	0.75	-0.223
Mof_N 	N 	0.7628	0.2372	0.75	-0.224
Mof_N 	N 	0.4744	0.2372	0.75	-0.224
Mof_N 	N 	0.7628	0.5256	0.25	-0.22
Mof_N 	N 	0.7628	0.2372	0.25	-0.221
Mof_N 	N 	0.4744	0.2372	0.25	-0.221
Mof_N 	N 	0.2372	0.4744	0.25	-0.221
Mof_N 	N 	0.2372	0.7628	0.25	-0.221
Mof_N 	N 	0.5256	0.7628	0.25	-0.22
Mof_O 	O 	0.3832	0.4441	0.9049	-0.327
Mof_O 	O 	0.3839	0.5807	0.8573	-0.487
Mof_O 	O 	0.0609	0.6168	0.9049	-0.332
Mof_O 	O 	0.1968	0.6161	0.8573	-0.489
Mof_O 	O 	0.5559	0.9391	0.9049	-0.289
Mof_O 	O 	0.4193	0.8032	0.8573	-0.475
Mof_O 	O 	0.6168	0.5559	0.9049	-0.323
Mof_O 	O 	0.6161	0.4193	0.8573	-0.486
Mof_O 	O 	0.9391	0.3832	0.9049	-0.291
Mof_O 	O 	0.8032	0.3839	0.8573	-0.476
Mof_O 	O 	0.4441	0.0609	0.9049	-0.334
Mof_O 	O 	0.5807	0.1968	0.8573	-0.49
Mof_O 	O 	0.9391	0.5559	0.5951	-0.346
Mof_O 	O 	0.8032	0.4193	0.6427	-0.501
Mof_O 	O 	0.4441	0.3832	0.5951	-0.386
Mof_O 	O 	0.5807	0.3839	0.6427	-0.513
Mof_O 	O 	0.6168	0.0609	0.5951	-0.39
Mof_O 	O 	0.6161	0.1968	0.6427	-0.516
Mof_O 	O 	0.0609	0.4441	0.5951	-0.392
Mof_O 	O 	0.1968	0.5807	0.6427	-0.516
Mof_O 	O 	0.5559	0.6168	0.5951	-0.381
Mof_O 	O 	0.4193	0.6161	0.6427	-0.512
Mof_O 	O 	0.3832	0.9391	0.5951	-0.348
Mof_O 	O 	0.3839	0.8032	0.6427	-0.502
Mof_O 	O 	0.6168	0.5559	0.0951	-0.388
Mof_O 	O 	0.6161	0.4193	0.1427	-0.52
Mof_O 	O 	0.9391	0.3832	0.0951	-0.354
Mof_O 	O 	0.8032	0.3839	0.1427	-0.51
Mof_O 	O 	0.4441	0.0609	0.0951	-0.399
Mof_O 	O 	0.5807	0.1968	0.1427	-0.524
Mof_O 	O 	0.3832	0.4441	0.0951	-0.393
Mof_O 	O 	0.3839	0.5807	0.1427	-0.521
Mof_O 	O 	0.0609	0.6168	0.0951	-0.397
Mof_O 	O 	0.1968	0.6161	0.1427	-0.524
Mof_O 	O 	0.5559	0.9391	0.0951	-0.352
Mof_O 	O 	0.4193	0.8032	0.1427	-0.509
Mof_O 	O 	0.0609	0.4441	0.4049	-0.392
Mof_O 	O 	0.1968	0.5807	0.3573	-0.514
Mof_O 	O 	0.5559	0.6168	0.4049	-0.381
Mof_O 	O 	0.4193	0.6161	0.3573	-0.51
Mof_O 	O 	0.3832	0.9391	0.4049	-0.348
Mof_O 	O 	0.3839	0.8032	0.3573	-0.5
Mof_O 	O 	0.9391	0.5559	0.4049	-0.346
Mof_O 	O 	0.8032	0.4193	0.3573	-0.499
Mof_O 	O 	0.4441	0.3832	0.4049	-0.386
Mof_O 	O 	0.5807	0.3839	0.3573	-0.512
Mof_O 	O 	0.6168	0.0609	0.4049	-0.39
Mof_O 	O 	0.6161	0.1968	0.3573	-0.514
_end
