data_functionalizedCrystal
_audit_creation_method	'EQeq! by Chris Wilmer'
_symmetry_space_group_name_H-M	'P1'
_symmetry_Int_Tables_number	1
_symmetry_cell_setting	triclinic
loop_
_symmetry_equiv_pos_as_xyz
  x,y,z
_cell_length_a	6.8391
_cell_length_b	21.7447
_cell_length_c	22.9299
_cell_angle_alpha	90
_cell_angle_beta	90
_cell_angle_gamma	90
loop_
_atom_site_label
_atom_site_type_symbol
_atom_site_fract_x
_atom_site_fract_y
_atom_site_fract_z
_atom_site_charge
Mof_Gd	Gd	0.57145	0.23258	0.04897	1.843
Mof_O 	O 	0.5939	0.30876	0.64714	-0.39
Mof_O 	O 	0.5576	0.20977	0.63863	-0.355
Mof_C 	C 	0.5744	0.2565	0.66996	0.273
Mof_C 	C 	0.571	0.2505	0.73489	0.053
Mof_C 	C 	0.5589	0.1918	0.75939	-0.167
Mof_H 	H 	0.5518	0.1571	0.7358	0.15
Mof_C 	C 	0.5576	0.1865	0.81923	0.203
Mof_N 	N 	0.5016	0.1247	0.8441	0.02
Mof_O 	O 	0.5441	0.1158	0.8948	-0.131
Mof_O 	O 	0.4356	0.085	0.8142	-0.053
Mof_C 	C 	0.5684	0.2372	0.85553	-0.228
Mof_C 	C 	0.5797	0.2951	0.8309	0.117
Mof_H 	H 	0.5858	0.3298	0.8545	-0.013
Mof_C 	C 	0.5817	0.301	0.77022	-0.14
Mof_H 	H 	0.5905	0.34	0.7536	0.106
Mof_C 	C 	0.5661	0.23345	0.9208	0.508
Mof_O 	O 	0.4074	0.22742	0.94708	-0.551
Mof_O 	O 	0.7245	0.24073	0.94778	-0.572
Mof_O 	O 	0.2805	0.35234	0.96363	-0.486
Mof_O 	O 	0.5427	0.33506	0.0191	-0.462
Mof_C 	C 	0.4231	0.36961	0.99319	0.461
Mof_C 	C 	0.4594	0.43742	0.9973	-0.089
Mof_C 	C 	0.5796	0.461	0.0399	-0.054
Mof_H 	H 	0.634	0.4346	0.0679	0.171
Mof_C 	C 	0.3817	0.4768	0.9573	0.032
Mof_H 	H 	0.302	0.4615	0.9278	0.052
Mof_N 	N 	0.605	0.1247	0.8429	-0.039
Mof_O 	O 	0.6242	0.1185	0.895	0.036
Mof_O 	O 	0.6036	0.0803	0.8093	-0.048
Mof_N 	N 	0.595	0.4298	0.1023	-0.094
Mof_O 	O 	0.443	0.4159	0.1354	-0.057
Mof_O 	O 	0.757	0.4223	0.116	-0.073
Mof_Gd	Gd	0.92855	0.76742	0.54897	1.835
Mof_O 	O 	0.9061	0.69124	0.14714	-0.392
Mof_O 	O 	0.9424	0.79023	0.13863	-0.357
Mof_C 	C 	0.9256	0.7435	0.16996	0.271
Mof_C 	C 	0.929	0.7495	0.23489	0.049
Mof_C 	C 	0.9411	0.8082	0.25939	-0.168
Mof_H 	H 	0.9482	0.8429	0.2358	0.148
Mof_C 	C 	0.9424	0.8135	0.31923	0.199
Mof_N 	N 	0.9984	0.8753	0.3441	0.016
Mof_O 	O 	0.9559	0.8842	0.3948	-0.134
Mof_O 	O 	0.0644	0.915	0.3142	-0.047
Mof_C 	C 	0.9316	0.7628	0.35553	-0.228
Mof_C 	C 	0.9203	0.7049	0.3309	0.114
Mof_H 	H 	0.9142	0.6702	0.3545	-0.013
Mof_C 	C 	0.9183	0.699	0.27022	-0.14
Mof_H 	H 	0.9095	0.66	0.2536	0.104
Mof_C 	C 	0.9339	0.76655	0.4208	0.501
Mof_O 	O 	0.0926	0.77258	0.44708	-0.545
Mof_O 	O 	0.7755	0.75927	0.44778	-0.573
Mof_O 	O 	0.2195	0.64766	0.46363	-0.487
Mof_O 	O 	0.9573	0.66494	0.5191	-0.466
Mof_C 	C 	0.0769	0.63039	0.49319	0.465
Mof_C 	C 	0.0406	0.56258	0.4973	-0.089
Mof_C 	C 	0.9204	0.539	0.5399	-0.057
Mof_H 	H 	0.866	0.5654	0.5679	0.172
Mof_C 	C 	0.1183	0.5232	0.4573	0.033
Mof_H 	H 	0.198	0.5385	0.4278	0.052
Mof_N 	N 	0.895	0.8753	0.3429	-0.037
Mof_O 	O 	0.8758	0.8815	0.395	0.036
Mof_O 	O 	0.8964	0.9197	0.3093	-0.051
Mof_N 	N 	0.905	0.5702	0.6023	-0.095
Mof_O 	O 	0.057	0.5841	0.6354	-0.055
Mof_O 	O 	0.743	0.5777	0.616	-0.074
Mof_Gd	Gd	0.42855	0.73258	0.45103	1.842
Mof_O 	O 	0.4061	0.80876	0.85286	-0.391
Mof_O 	O 	0.4424	0.70977	0.86137	-0.356
Mof_C 	C 	0.4256	0.7565	0.83004	0.272
Mof_C 	C 	0.429	0.7505	0.76511	0.052
Mof_C 	C 	0.4411	0.6918	0.74061	-0.168
Mof_H 	H 	0.4482	0.6571	0.7642	0.149
Mof_C 	C 	0.4424	0.6865	0.68077	0.202
Mof_N 	N 	0.4984	0.6247	0.6559	0.02
Mof_O 	O 	0.4559	0.6158	0.6052	-0.134
Mof_O 	O 	0.5644	0.585	0.6858	-0.053
Mof_C 	C 	0.4316	0.7372	0.64447	-0.228
Mof_C 	C 	0.4203	0.7951	0.6691	0.117
Mof_H 	H 	0.4142	0.8298	0.6455	-0.013
Mof_C 	C 	0.4183	0.801	0.72978	-0.14
Mof_H 	H 	0.4095	0.84	0.7464	0.105
Mof_C 	C 	0.4339	0.73345	0.5792	0.508
Mof_O 	O 	0.5926	0.72742	0.55292	-0.551
Mof_O 	O 	0.2755	0.74073	0.55222	-0.572
Mof_O 	O 	0.7195	0.85234	0.53637	-0.486
Mof_O 	O 	0.4573	0.83506	0.4809	-0.462
Mof_C 	C 	0.5769	0.86961	0.50681	0.46
Mof_C 	C 	0.5406	0.93742	0.5027	-0.089
Mof_C 	C 	0.4204	0.961	0.4601	-0.054
Mof_H 	H 	0.366	0.9346	0.4321	0.171
Mof_C 	C 	0.6183	0.9768	0.5427	0.031
Mof_H 	H 	0.698	0.9615	0.5722	0.052
Mof_N 	N 	0.395	0.6247	0.6571	-0.039
Mof_O 	O 	0.3758	0.6185	0.605	0.037
Mof_O 	O 	0.3964	0.5803	0.6907	-0.048
Mof_N 	N 	0.405	0.9298	0.3977	-0.094
Mof_O 	O 	0.557	0.9159	0.3646	-0.057
Mof_O 	O 	0.243	0.9223	0.384	-0.073
Mof_Gd	Gd	0.07145	0.26742	0.95103	1.835
Mof_O 	O 	0.0939	0.19124	0.35286	-0.392
Mof_O 	O 	0.0576	0.29023	0.36137	-0.357
Mof_C 	C 	0.0744	0.2435	0.33004	0.271
Mof_C 	C 	0.071	0.2495	0.26511	0.049
Mof_C 	C 	0.0589	0.3082	0.24061	-0.168
Mof_H 	H 	0.0518	0.3429	0.2642	0.148
Mof_C 	C 	0.0576	0.3135	0.18077	0.199
Mof_N 	N 	0.0016	0.3753	0.1559	0.017
Mof_O 	O 	0.0441	0.3842	0.1052	-0.135
Mof_O 	O 	0.9356	0.415	0.1858	-0.049
Mof_C 	C 	0.0684	0.2628	0.14447	-0.228
Mof_C 	C 	0.0797	0.2049	0.1691	0.115
Mof_H 	H 	0.0858	0.1702	0.1455	-0.014
Mof_C 	C 	0.0817	0.199	0.22978	-0.14
Mof_H 	H 	0.0905	0.16	0.2464	0.104
Mof_C 	C 	0.0661	0.26655	0.0792	0.502
Mof_O 	O 	0.9074	0.27258	0.05292	-0.546
Mof_O 	O 	0.2245	0.25927	0.05222	-0.573
Mof_O 	O 	0.7805	0.14766	0.03637	-0.487
Mof_O 	O 	0.0427	0.16494	0.9809	-0.466
Mof_C 	C 	0.9231	0.13039	0.00681	0.465
Mof_C 	C 	0.9594	0.06258	0.0027	-0.089
Mof_C 	C 	0.0796	0.039	0.9601	-0.057
Mof_H 	H 	0.134	0.0654	0.9321	0.172
Mof_C 	C 	0.8817	0.0232	0.0427	0.032
Mof_H 	H 	0.802	0.0385	0.0722	0.052
Mof_N 	N 	0.105	0.3753	0.1571	-0.038
Mof_O 	O 	0.1242	0.3815	0.105	0.037
Mof_O 	O 	0.1036	0.4197	0.1907	-0.05
Mof_N 	N 	0.095	0.0702	0.8977	-0.096
Mof_O 	O 	0.943	0.0841	0.8646	-0.054
Mof_O 	O 	0.257	0.0777	0.884	-0.074
Mof_Gd	Gd	0.42855	0.76742	0.95103	1.842
Mof_O 	O 	0.4061	0.69124	0.35286	-0.391
Mof_O 	O 	0.4424	0.79023	0.36137	-0.356
Mof_C 	C 	0.4256	0.7435	0.33004	0.272
Mof_C 	C 	0.429	0.7495	0.26511	0.052
Mof_C 	C 	0.4411	0.8082	0.24061	-0.168
Mof_H 	H 	0.4482	0.8429	0.2642	0.149
Mof_C 	C 	0.4424	0.8135	0.18077	0.202
Mof_N 	N 	0.4984	0.8753	0.1559	0.019
Mof_O 	O 	0.4559	0.8842	0.1052	-0.132
Mof_O 	O 	0.5644	0.915	0.1858	-0.053
Mof_C 	C 	0.4316	0.7628	0.14447	-0.228
Mof_C 	C 	0.4203	0.7049	0.1691	0.117
Mof_H 	H 	0.4142	0.6702	0.1455	-0.013
Mof_C 	C 	0.4183	0.699	0.22978	-0.14
Mof_H 	H 	0.4095	0.66	0.2464	0.106
Mof_C 	C 	0.4339	0.76655	0.0792	0.508
Mof_O 	O 	0.5926	0.77258	0.05292	-0.551
Mof_O 	O 	0.2755	0.75927	0.05222	-0.572
Mof_O 	O 	0.7195	0.64766	0.03637	-0.486
Mof_O 	O 	0.4573	0.66494	0.9809	-0.462
Mof_C 	C 	0.5769	0.63039	0.00681	0.461
Mof_C 	C 	0.5406	0.56258	0.0027	-0.089
Mof_C 	C 	0.4204	0.539	0.9601	-0.054
Mof_H 	H 	0.366	0.5654	0.9321	0.171
Mof_C 	C 	0.6183	0.5232	0.0427	0.032
Mof_H 	H 	0.698	0.5385	0.0722	0.052
Mof_N 	N 	0.395	0.8753	0.1571	-0.039
Mof_O 	O 	0.3758	0.8815	0.105	0.036
Mof_O 	O 	0.3964	0.9197	0.1907	-0.048
Mof_N 	N 	0.405	0.5702	0.8977	-0.094
Mof_O 	O 	0.557	0.5841	0.8646	-0.057
Mof_O 	O 	0.243	0.5777	0.884	-0.073
Mof_Gd	Gd	0.07145	0.23258	0.45103	1.835
Mof_O 	O 	0.0939	0.30876	0.85286	-0.392
Mof_O 	O 	0.0576	0.20977	0.86137	-0.357
Mof_C 	C 	0.0744	0.2565	0.83004	0.271
Mof_C 	C 	0.071	0.2505	0.76511	0.049
Mof_C 	C 	0.0589	0.1918	0.74061	-0.168
Mof_H 	H 	0.0518	0.1571	0.7642	0.148
Mof_C 	C 	0.0576	0.1865	0.68077	0.199
Mof_N 	N 	0.0016	0.1247	0.6559	0.016
Mof_O 	O 	0.0441	0.1158	0.6052	-0.134
Mof_O 	O 	0.9356	0.085	0.6858	-0.047
Mof_C 	C 	0.0684	0.2372	0.64447	-0.228
Mof_C 	C 	0.0797	0.2951	0.6691	0.114
Mof_H 	H 	0.0858	0.3298	0.6455	-0.013
Mof_C 	C 	0.0817	0.301	0.72978	-0.14
Mof_H 	H 	0.0905	0.34	0.7464	0.104
Mof_C 	C 	0.0661	0.23345	0.5792	0.501
Mof_O 	O 	0.9074	0.22742	0.55292	-0.545
Mof_O 	O 	0.2245	0.24073	0.55222	-0.573
Mof_O 	O 	0.7805	0.35234	0.53637	-0.487
Mof_O 	O 	0.0427	0.33506	0.4809	-0.466
Mof_C 	C 	0.9231	0.36961	0.50681	0.465
Mof_C 	C 	0.9594	0.43742	0.5027	-0.089
Mof_C 	C 	0.0796	0.461	0.4601	-0.057
Mof_H 	H 	0.134	0.4346	0.4321	0.172
Mof_C 	C 	0.8817	0.4768	0.5427	0.033
Mof_H 	H 	0.802	0.4615	0.5722	0.052
Mof_N 	N 	0.105	0.1247	0.6571	-0.037
Mof_O 	O 	0.1242	0.1185	0.605	0.036
Mof_O 	O 	0.1036	0.0803	0.6907	-0.051
Mof_N 	N 	0.095	0.4298	0.3977	-0.095
Mof_O 	O 	0.943	0.4159	0.3646	-0.055
Mof_O 	O 	0.257	0.4223	0.384	-0.074
Mof_Gd	Gd	0.57145	0.26742	0.54897	1.842
Mof_O 	O 	0.5939	0.19124	0.14714	-0.391
Mof_O 	O 	0.5576	0.29023	0.13863	-0.356
Mof_C 	C 	0.5744	0.2435	0.16996	0.272
Mof_C 	C 	0.571	0.2495	0.23489	0.052
Mof_C 	C 	0.5589	0.3082	0.25939	-0.168
Mof_H 	H 	0.5518	0.3429	0.2358	0.149
Mof_C 	C 	0.5576	0.3135	0.31923	0.202
Mof_N 	N 	0.5016	0.3753	0.3441	0.02
Mof_O 	O 	0.5441	0.3842	0.3948	-0.134
Mof_O 	O 	0.4356	0.415	0.3142	-0.053
Mof_C 	C 	0.5684	0.2628	0.35553	-0.228
Mof_C 	C 	0.5797	0.2049	0.3309	0.117
Mof_H 	H 	0.5858	0.1702	0.3545	-0.013
Mof_C 	C 	0.5817	0.199	0.27022	-0.14
Mof_H 	H 	0.5905	0.16	0.2536	0.105
Mof_C 	C 	0.5661	0.26655	0.4208	0.508
Mof_O 	O 	0.4074	0.27258	0.44708	-0.551
Mof_O 	O 	0.7245	0.25927	0.44778	-0.572
Mof_O 	O 	0.2805	0.14766	0.46363	-0.486
Mof_O 	O 	0.5427	0.16494	0.5191	-0.462
Mof_C 	C 	0.4231	0.13039	0.49319	0.46
Mof_C 	C 	0.4594	0.06258	0.4973	-0.089
Mof_C 	C 	0.5796	0.039	0.5399	-0.054
Mof_H 	H 	0.634	0.0654	0.5679	0.171
Mof_C 	C 	0.3817	0.0232	0.4573	0.031
Mof_H 	H 	0.302	0.0385	0.4278	0.052
Mof_N 	N 	0.605	0.3753	0.3429	-0.039
Mof_O 	O 	0.6242	0.3815	0.395	0.037
Mof_O 	O 	0.6036	0.4197	0.3093	-0.048
Mof_N 	N 	0.595	0.0702	0.6023	-0.094
Mof_O 	O 	0.443	0.0841	0.6354	-0.057
Mof_O 	O 	0.757	0.0777	0.616	-0.073
Mof_Gd	Gd	0.92855	0.73258	0.04897	1.835
Mof_O 	O 	0.9061	0.80876	0.64714	-0.392
Mof_O 	O 	0.9424	0.70977	0.63863	-0.357
Mof_C 	C 	0.9256	0.7565	0.66996	0.271
Mof_C 	C 	0.929	0.7505	0.73489	0.049
Mof_C 	C 	0.9411	0.6918	0.75939	-0.168
Mof_H 	H 	0.9482	0.6571	0.7358	0.148
Mof_C 	C 	0.9424	0.6865	0.81923	0.199
Mof_N 	N 	0.9984	0.6247	0.8441	0.017
Mof_O 	O 	0.9559	0.6158	0.8948	-0.135
Mof_O 	O 	0.0644	0.585	0.8142	-0.049
Mof_C 	C 	0.9316	0.7372	0.85553	-0.228
Mof_C 	C 	0.9203	0.7951	0.8309	0.115
Mof_H 	H 	0.9142	0.8298	0.8545	-0.014
Mof_C 	C 	0.9183	0.801	0.77022	-0.14
Mof_H 	H 	0.9095	0.84	0.7536	0.104
Mof_C 	C 	0.9339	0.73345	0.9208	0.502
Mof_O 	O 	0.0926	0.72742	0.94708	-0.546
Mof_O 	O 	0.7755	0.74073	0.94778	-0.573
Mof_O 	O 	0.2195	0.85234	0.96363	-0.487
Mof_O 	O 	0.9573	0.83506	0.0191	-0.466
Mof_C 	C 	0.0769	0.86961	0.99319	0.465
Mof_C 	C 	0.0406	0.93742	0.9973	-0.089
Mof_C 	C 	0.9204	0.961	0.0399	-0.057
Mof_H 	H 	0.866	0.9346	0.0679	0.172
Mof_C 	C 	0.1183	0.9768	0.9573	0.032
Mof_H 	H 	0.198	0.9615	0.9278	0.052
Mof_N 	N 	0.895	0.6247	0.8429	-0.038
Mof_O 	O 	0.8758	0.6185	0.895	0.037
Mof_O 	O 	0.8964	0.5803	0.8093	-0.05
Mof_N 	N 	0.905	0.9298	0.1023	-0.096
Mof_O 	O 	0.057	0.9159	0.1354	-0.054
Mof_O 	O 	0.743	0.9223	0.116	-0.074
_end
