data_functionalizedCrystal
_audit_creation_method	'EQeq! by Chris Wilmer'
_symmetry_space_group_name_H-M	'P1'
_symmetry_Int_Tables_number	1
_symmetry_cell_setting	triclinic
loop_
_symmetry_equiv_pos_as_xyz
  x,y,z
_cell_length_a	7.2326
_cell_length_b	10.2337
_cell_length_c	13.1558
_cell_angle_alpha	90
_cell_angle_beta	90
_cell_angle_gamma	100.107
loop_
_atom_site_label
_atom_site_type_symbol
_atom_site_fract_x
_atom_site_fract_y
_atom_site_fract_z
_atom_site_charge
Mof_Nd	Nd	0.163	0.28187	0.90549	2.418
Mof_Nd	Nd	0.837	0.21813	0.40549	2.429
Mof_Nd	Nd	0.837	0.71813	0.09451	2.419
Mof_Nd	Nd	0.163	0.78187	0.59451	2.43
Mof_P 	P 	0.78745	0.07069	0.04946	0.535
Mof_P 	P 	0.21255	0.42931	0.54946	0.547
Mof_P 	P 	0.21255	0.92931	0.95054	0.535
Mof_P 	P 	0.78745	0.57069	0.45054	0.547
Mof_H 	H 	0.5929	0.188	0.0447	0.283
Mof_H 	H 	0.8679	0.0004	0.2586	0.279
Mof_H 	H 	0.0577	0.086	0.1495	0.047
Mof_H 	H 	0.4071	0.312	0.5447	0.285
Mof_H 	H 	0.1321	0.4996	0.7586	0.281
Mof_H 	H 	0.9423	0.414	0.6495	0.041
Mof_H 	H 	0.4071	0.812	0.9553	0.283
Mof_H 	H 	0.1321	0.9996	0.7414	0.279
Mof_H 	H 	0.9423	0.914	0.8505	0.047
Mof_H 	H 	0.5929	0.688	0.4553	0.285
Mof_H 	H 	0.8679	0.5004	0.2414	0.281
Mof_H 	H 	0.0577	0.586	0.3505	0.041
Mof_C 	C 	0.9441	0.1252	0.1562	-0.137
Mof_C 	C 	0.9997	0.2745	0.1634	0.426
Mof_C 	C 	0.4531	0.5553	0.9757	0.272
Mof_C 	C 	0.0559	0.3748	0.6562	-0.13
Mof_C 	C 	0.0003	0.2255	0.6634	0.437
Mof_C 	C 	0.5469	0.9447	0.4757	0.271
Mof_C 	C 	0.0559	0.8748	0.8438	-0.137
Mof_C 	C 	0.0003	0.7255	0.8366	0.426
Mof_C 	C 	0.5469	0.4447	0.0243	0.272
Mof_C 	C 	0.9441	0.6252	0.3438	-0.13
Mof_C 	C 	0.9997	0.7745	0.3366	0.437
Mof_C 	C 	0.4531	0.0553	0.5243	0.271
Mof_O 	O 	0.6037	0.1241	0.0804	-0.461
Mof_O 	O 	0.8696	0.1314	0.9523	-0.51
Mof_O 	O 	0.7454	0.9223	0.0544	-0.526
Mof_O 	O 	0.8461	0.0748	0.2464	-0.58
Mof_O 	O 	0.0809	0.3338	0.0874	-0.523
Mof_O 	O 	0.9609	0.3306	0.2442	-0.541
Mof_O 	O 	0.3051	0.5186	0.9269	-0.511
Mof_O 	O 	0.5328	0.672	0.9914	-0.477
Mof_O 	O 	0.3963	0.3759	0.5804	-0.463
Mof_O 	O 	0.1304	0.3686	0.4523	-0.519
Mof_O 	O 	0.2546	0.5777	0.5544	-0.53
Mof_O 	O 	0.1539	0.4252	0.7464	-0.581
Mof_O 	O 	0.9191	0.1662	0.5874	-0.534
Mof_O 	O 	0.0391	0.1694	0.7442	-0.542
Mof_O 	O 	0.6949	0.9814	0.4269	-0.509
Mof_O 	O 	0.4672	0.828	0.4914	-0.478
Mof_O 	O 	0.3963	0.8759	0.9196	-0.461
Mof_O 	O 	0.1304	0.8686	0.0477	-0.51
Mof_O 	O 	0.2546	0.0777	0.9456	-0.526
Mof_O 	O 	0.1539	0.9252	0.7536	-0.58
Mof_O 	O 	0.9191	0.6662	0.9126	-0.523
Mof_O 	O 	0.0391	0.6694	0.7558	-0.541
Mof_O 	O 	0.6949	0.4814	0.0731	-0.511
Mof_O 	O 	0.4672	0.328	0.0086	-0.477
Mof_O 	O 	0.6037	0.6241	0.4196	-0.463
Mof_O 	O 	0.8696	0.6314	0.5477	-0.519
Mof_O 	O 	0.7454	0.4223	0.4456	-0.53
Mof_O 	O 	0.8461	0.5748	0.2536	-0.581
Mof_O 	O 	0.0809	0.8338	0.4126	-0.534
Mof_O 	O 	0.9609	0.8306	0.2558	-0.542
Mof_O 	O 	0.3051	0.0186	0.5731	-0.509
Mof_O 	O 	0.5328	0.172	0.5086	-0.478
_end
