data_functionalizedCrystal
_audit_creation_method	'EQeq! by Chris Wilmer'
_symmetry_space_group_name_H-M	'P1'
_symmetry_Int_Tables_number	1
_symmetry_cell_setting	triclinic
loop_
_symmetry_equiv_pos_as_xyz
  x,y,z
_cell_length_a	33.5375
_cell_length_b	33.5375
_cell_length_c	33.5375
_cell_angle_alpha	90
_cell_angle_beta	90
_cell_angle_gamma	90
loop_
_atom_site_label
_atom_site_type_symbol
_atom_site_fract_x
_atom_site_fract_y
_atom_site_fract_z
_atom_site_charge
Mof_Cu	Cu	0.0637	0.15852	0.85684	0.923
Mof_O 	O 	0.06434	0.10049	0.85236	-0.481
Mof_C 	C 	0.02989	0.08232	0.86182	0.253
Mof_C 	C 	0.01104	0.05689	0.83514	-0.26
Mof_H 	H 	0.0225	0.0519	0.8101	0.121
Mof_C 	C 	0.97565	0.03911	0.84547	0.114
Mof_H 	H 	0.9629	0.0219	0.8274	-0.019
Mof_C 	C 	0.95866	0.04638	0.88236	-0.161
Mof_H 	H 	0.9344	0.0341	0.8894	0.076
Mof_C 	C 	0.97751	0.0718	0.90892	0.052
Mof_H 	H 	0.9659	0.0767	0.9339	0.015
Mof_C 	C 	0.013	0.09001	0.89926	-0.121
Mof_C 	C 	0.03471	0.1166	0.92819	-0.012
Mof_H 	H 	0.0194	0.1185	0.953	0.038
Mof_H 	H 	0.0607	0.1048	0.9346	0.03
Mof_N 	N 	0.04076	0.15728	0.91146	-0.287
Mof_H 	H 	0.0191	0.1675	0.9086	0.163
Mof_C 	C 	0.06506	0.1861	0.93495	-0.006
Mof_C 	C 	0.04628	0.19768	0.97508	-0.105
Mof_H 	H 	0.0328	0.2235	0.973	0.064
Mof_H 	H 	0.0267	0.1776	0.9834	0.062
Mof_C 	C 	0.0798	0.1999	0.0046	-0.081
Mof_H 	H 	0.0703	0.196	0.032	0.043
Mof_H 	H 	0.094	0.2254	0.0028	0.056
Mof_C 	C 	0.1066	0.1646	0.9906	-0.056
Mof_H 	H 	0.1335	0.1668	0.0017	0.036
Mof_H 	H 	0.0951	0.139	0.9986	0.039
Mof_C 	C 	0.10703	0.16893	0.94571	-0.127
Mof_H 	H 	0.1112	0.143	0.9328	0.046
Mof_H 	H 	0.1282	0.1872	0.9373	0.064
Mof_C 	C 	0.07233	0.22193	0.9076	0.293
Mof_O 	O 	0.07344	0.21442	0.87002	-0.391
Mof_O 	O 	0.07794	0.25497	0.9226	-0.348
Mof_C 	C 	0.1197	0.1939	0.9822	-0.001
Mof_Cu	Cu	0.5637	0.65852	0.35684	0.923
Mof_O 	O 	0.56434	0.60049	0.35236	-0.481
Mof_C 	C 	0.52989	0.58232	0.36182	0.253
Mof_C 	C 	0.51104	0.55689	0.33514	-0.26
Mof_H 	H 	0.5225	0.5519	0.3101	0.121
Mof_C 	C 	0.47565	0.53911	0.34547	0.114
Mof_H 	H 	0.4629	0.5219	0.3274	-0.019
Mof_C 	C 	0.45866	0.54638	0.38236	-0.161
Mof_H 	H 	0.4344	0.5341	0.3894	0.076
Mof_C 	C 	0.47751	0.5718	0.40892	0.052
Mof_H 	H 	0.4659	0.5767	0.4339	0.015
Mof_C 	C 	0.513	0.59001	0.39926	-0.121
Mof_C 	C 	0.53471	0.6166	0.42819	-0.013
Mof_H 	H 	0.5194	0.6185	0.453	0.039
Mof_H 	H 	0.5607	0.6048	0.4346	0.03
Mof_N 	N 	0.54076	0.65728	0.41146	-0.287
Mof_H 	H 	0.5191	0.6675	0.4086	0.163
Mof_C 	C 	0.56506	0.6861	0.43495	-0.006
Mof_C 	C 	0.54628	0.69768	0.47508	-0.105
Mof_H 	H 	0.5328	0.7235	0.473	0.064
Mof_H 	H 	0.5267	0.6776	0.4834	0.062
Mof_C 	C 	0.5798	0.6999	0.5046	-0.08
Mof_H 	H 	0.5703	0.696	0.532	0.043
Mof_H 	H 	0.594	0.7254	0.5028	0.056
Mof_C 	C 	0.6066	0.6646	0.4906	-0.057
Mof_H 	H 	0.6335	0.6668	0.5017	0.036
Mof_H 	H 	0.5951	0.639	0.4986	0.04
Mof_C 	C 	0.60703	0.66893	0.44571	-0.127
Mof_H 	H 	0.6112	0.643	0.4328	0.046
Mof_H 	H 	0.6282	0.6872	0.4373	0.064
Mof_C 	C 	0.57233	0.72193	0.4076	0.293
Mof_O 	O 	0.57344	0.71442	0.37002	-0.391
Mof_O 	O 	0.57794	0.75497	0.4226	-0.348
Mof_C 	C 	0.6197	0.6939	0.4822	-0.001
Mof_Cu	Cu	0.4363	0.84148	0.35684	0.923
Mof_O 	O 	0.43566	0.89951	0.35236	-0.481
Mof_C 	C 	0.47011	0.91768	0.36182	0.253
Mof_C 	C 	0.48896	0.94311	0.33514	-0.26
Mof_H 	H 	0.4775	0.9481	0.3101	0.121
Mof_C 	C 	0.52435	0.96089	0.34547	0.114
Mof_H 	H 	0.5371	0.9781	0.3274	-0.019
Mof_C 	C 	0.54134	0.95362	0.38236	-0.161
Mof_H 	H 	0.5656	0.9659	0.3894	0.076
Mof_C 	C 	0.52249	0.9282	0.40892	0.052
Mof_H 	H 	0.5341	0.9233	0.4339	0.015
Mof_C 	C 	0.487	0.90999	0.39926	-0.121
Mof_C 	C 	0.46529	0.8834	0.42819	-0.013
Mof_H 	H 	0.4806	0.8815	0.453	0.038
Mof_H 	H 	0.4393	0.8952	0.4346	0.03
Mof_N 	N 	0.45924	0.84272	0.41146	-0.287
Mof_H 	H 	0.4809	0.8325	0.4086	0.163
Mof_C 	C 	0.43494	0.8139	0.43495	-0.006
Mof_C 	C 	0.45372	0.80232	0.47508	-0.105
Mof_H 	H 	0.4672	0.7765	0.473	0.064
Mof_H 	H 	0.4733	0.8224	0.4834	0.062
Mof_C 	C 	0.4202	0.8001	0.5046	-0.08
Mof_H 	H 	0.4297	0.804	0.532	0.043
Mof_H 	H 	0.406	0.7746	0.5028	0.056
Mof_C 	C 	0.3934	0.8354	0.4906	-0.057
Mof_H 	H 	0.3665	0.8332	0.5017	0.036
Mof_H 	H 	0.4049	0.861	0.4986	0.04
Mof_C 	C 	0.39297	0.83107	0.44571	-0.127
Mof_H 	H 	0.3888	0.857	0.4328	0.046
Mof_H 	H 	0.3718	0.8128	0.4373	0.064
Mof_C 	C 	0.42767	0.77807	0.4076	0.293
Mof_O 	O 	0.42656	0.78558	0.37002	-0.391
Mof_O 	O 	0.42206	0.74503	0.4226	-0.348
Mof_C 	C 	0.3803	0.8061	0.4822	-0.001
Mof_Cu	Cu	0.9363	0.34148	0.85684	0.923
Mof_O 	O 	0.93566	0.39951	0.85236	-0.481
Mof_C 	C 	0.97011	0.41768	0.86182	0.253
Mof_C 	C 	0.98896	0.44311	0.83514	-0.26
Mof_H 	H 	0.9775	0.4481	0.8101	0.121
Mof_C 	C 	0.02435	0.46089	0.84547	0.114
Mof_H 	H 	0.0371	0.4781	0.8274	-0.019
Mof_C 	C 	0.04134	0.45362	0.88236	-0.161
Mof_H 	H 	0.0656	0.4659	0.8894	0.076
Mof_C 	C 	0.02249	0.4282	0.90892	0.052
Mof_H 	H 	0.0341	0.4233	0.9339	0.015
Mof_C 	C 	0.987	0.40999	0.89926	-0.121
Mof_C 	C 	0.96529	0.3834	0.92819	-0.012
Mof_H 	H 	0.9806	0.3815	0.953	0.038
Mof_H 	H 	0.9393	0.3952	0.9346	0.03
Mof_N 	N 	0.95924	0.34272	0.91146	-0.287
Mof_H 	H 	0.9809	0.3325	0.9086	0.163
Mof_C 	C 	0.93494	0.3139	0.93495	-0.006
Mof_C 	C 	0.95372	0.30232	0.97508	-0.105
Mof_H 	H 	0.9672	0.2765	0.973	0.064
Mof_H 	H 	0.9733	0.3224	0.9834	0.062
Mof_C 	C 	0.9202	0.3001	0.0046	-0.081
Mof_H 	H 	0.9297	0.304	0.032	0.043
Mof_H 	H 	0.906	0.2746	0.0028	0.056
Mof_C 	C 	0.8934	0.3354	0.9906	-0.056
Mof_H 	H 	0.8665	0.3332	0.0017	0.036
Mof_H 	H 	0.9049	0.361	0.9986	0.039
Mof_C 	C 	0.89297	0.33107	0.94571	-0.127
Mof_H 	H 	0.8888	0.357	0.9328	0.046
Mof_H 	H 	0.8718	0.3128	0.9373	0.064
Mof_C 	C 	0.92767	0.27807	0.9076	0.292
Mof_O 	O 	0.92656	0.28558	0.87002	-0.392
Mof_O 	O 	0.92206	0.24503	0.9226	-0.349
Mof_C 	C 	0.8803	0.3061	0.9822	-0.002
Mof_Cu	Cu	0.9363	0.65852	0.64316	0.922
Mof_O 	O 	0.93566	0.60049	0.64764	-0.482
Mof_C 	C 	0.97011	0.58232	0.63818	0.252
Mof_C 	C 	0.98896	0.55689	0.66486	-0.261
Mof_H 	H 	0.9775	0.5519	0.6899	0.12
Mof_C 	C 	0.02435	0.53911	0.65453	0.113
Mof_H 	H 	0.0371	0.5219	0.6726	-0.02
Mof_C 	C 	0.04134	0.54638	0.61764	-0.162
Mof_H 	H 	0.0656	0.5341	0.6106	0.075
Mof_C 	C 	0.02249	0.5718	0.59108	0.051
Mof_H 	H 	0.0341	0.5767	0.5661	0.014
Mof_C 	C 	0.987	0.59001	0.60074	-0.122
Mof_C 	C 	0.96529	0.6166	0.57181	-0.013
Mof_H 	H 	0.9806	0.6185	0.547	0.037
Mof_H 	H 	0.9393	0.6048	0.5654	0.029
Mof_N 	N 	0.95924	0.65728	0.58854	-0.288
Mof_H 	H 	0.9809	0.6675	0.5914	0.162
Mof_C 	C 	0.93494	0.6861	0.56505	-0.007
Mof_C 	C 	0.95372	0.69768	0.52492	-0.106
Mof_H 	H 	0.9672	0.7235	0.527	0.063
Mof_H 	H 	0.9733	0.6776	0.5166	0.061
Mof_C 	C 	0.9202	0.6999	0.4954	-0.081
Mof_H 	H 	0.9297	0.696	0.468	0.042
Mof_H 	H 	0.906	0.7254	0.4972	0.055
Mof_C 	C 	0.8934	0.6646	0.5094	-0.058
Mof_H 	H 	0.8665	0.6668	0.4983	0.035
Mof_H 	H 	0.9049	0.639	0.5014	0.039
Mof_C 	C 	0.89297	0.66893	0.55429	-0.128
Mof_H 	H 	0.8888	0.643	0.5672	0.045
Mof_H 	H 	0.8718	0.6872	0.5627	0.063
Mof_C 	C 	0.92767	0.72193	0.5924	0.292
Mof_O 	O 	0.92656	0.71442	0.62998	-0.392
Mof_O 	O 	0.92206	0.75497	0.5774	-0.349
Mof_C 	C 	0.8803	0.6939	0.5178	-0.002
Mof_Cu	Cu	0.4363	0.15852	0.14316	0.922
Mof_O 	O 	0.43566	0.10049	0.14764	-0.482
Mof_C 	C 	0.47011	0.08232	0.13818	0.252
Mof_C 	C 	0.48896	0.05689	0.16486	-0.261
Mof_H 	H 	0.4775	0.0519	0.1899	0.12
Mof_C 	C 	0.52435	0.03911	0.15453	0.113
Mof_H 	H 	0.5371	0.0219	0.1726	-0.02
Mof_C 	C 	0.54134	0.04638	0.11764	-0.162
Mof_H 	H 	0.5656	0.0341	0.1106	0.075
Mof_C 	C 	0.52249	0.0718	0.09108	0.051
Mof_H 	H 	0.5341	0.0767	0.0661	0.014
Mof_C 	C 	0.487	0.09001	0.10074	-0.122
Mof_C 	C 	0.46529	0.1166	0.07181	-0.014
Mof_H 	H 	0.4806	0.1185	0.047	0.037
Mof_H 	H 	0.4393	0.1048	0.0654	0.029
Mof_N 	N 	0.45924	0.15728	0.08854	-0.288
Mof_H 	H 	0.4809	0.1675	0.0914	0.162
Mof_C 	C 	0.43494	0.1861	0.06505	-0.007
Mof_C 	C 	0.45372	0.19768	0.02492	-0.106
Mof_H 	H 	0.4672	0.2235	0.027	0.063
Mof_H 	H 	0.4733	0.1776	0.0166	0.061
Mof_C 	C 	0.4202	0.1999	0.9954	-0.082
Mof_H 	H 	0.4297	0.196	0.968	0.042
Mof_H 	H 	0.406	0.2254	0.9972	0.055
Mof_C 	C 	0.3934	0.1646	0.0094	-0.057
Mof_H 	H 	0.3665	0.1668	0.9983	0.035
Mof_H 	H 	0.4049	0.139	0.0014	0.038
Mof_C 	C 	0.39297	0.16893	0.05429	-0.128
Mof_H 	H 	0.3888	0.143	0.0672	0.045
Mof_H 	H 	0.3718	0.1872	0.0627	0.063
Mof_C 	C 	0.42767	0.22193	0.0924	0.292
Mof_O 	O 	0.42656	0.21442	0.12998	-0.392
Mof_O 	O 	0.42206	0.25497	0.0774	-0.349
Mof_C 	C 	0.3803	0.1939	0.0178	-0.002
Mof_Cu	Cu	0.5637	0.34148	0.14316	0.922
Mof_O 	O 	0.56434	0.39951	0.14764	-0.482
Mof_C 	C 	0.52989	0.41768	0.13818	0.252
Mof_C 	C 	0.51104	0.44311	0.16486	-0.261
Mof_H 	H 	0.5225	0.4481	0.1899	0.12
Mof_C 	C 	0.47565	0.46089	0.15453	0.113
Mof_H 	H 	0.4629	0.4781	0.1726	-0.02
Mof_C 	C 	0.45866	0.45362	0.11764	-0.162
Mof_H 	H 	0.4344	0.4659	0.1106	0.075
Mof_C 	C 	0.47751	0.4282	0.09108	0.051
Mof_H 	H 	0.4659	0.4233	0.0661	0.014
Mof_C 	C 	0.513	0.40999	0.10074	-0.122
Mof_C 	C 	0.53471	0.3834	0.07181	-0.014
Mof_H 	H 	0.5194	0.3815	0.047	0.037
Mof_H 	H 	0.5607	0.3952	0.0654	0.029
Mof_N 	N 	0.54076	0.34272	0.08854	-0.288
Mof_H 	H 	0.5191	0.3325	0.0914	0.162
Mof_C 	C 	0.56506	0.3139	0.06505	-0.007
Mof_C 	C 	0.54628	0.30232	0.02492	-0.106
Mof_H 	H 	0.5328	0.2765	0.027	0.063
Mof_H 	H 	0.5267	0.3224	0.0166	0.061
Mof_C 	C 	0.5798	0.3001	0.9954	-0.082
Mof_H 	H 	0.5703	0.304	0.968	0.042
Mof_H 	H 	0.594	0.2746	0.9972	0.055
Mof_C 	C 	0.6066	0.3354	0.0094	-0.057
Mof_H 	H 	0.6335	0.3332	0.9983	0.035
Mof_H 	H 	0.5951	0.361	0.0014	0.039
Mof_C 	C 	0.60703	0.33107	0.05429	-0.128
Mof_H 	H 	0.6112	0.357	0.0672	0.045
Mof_H 	H 	0.6282	0.3128	0.0627	0.063
Mof_C 	C 	0.57233	0.27807	0.0924	0.292
Mof_O 	O 	0.57344	0.28558	0.12998	-0.392
Mof_O 	O 	0.57794	0.24503	0.0774	-0.349
Mof_C 	C 	0.6197	0.3061	0.0178	-0.002
Mof_Cu	Cu	0.0637	0.84148	0.64316	0.922
Mof_O 	O 	0.06434	0.89951	0.64764	-0.482
Mof_C 	C 	0.02989	0.91768	0.63818	0.252
Mof_C 	C 	0.01104	0.94311	0.66486	-0.261
Mof_H 	H 	0.0225	0.9481	0.6899	0.12
Mof_C 	C 	0.97565	0.96089	0.65453	0.113
Mof_H 	H 	0.9629	0.9781	0.6726	-0.02
Mof_C 	C 	0.95866	0.95362	0.61764	-0.162
Mof_H 	H 	0.9344	0.9659	0.6106	0.075
Mof_C 	C 	0.97751	0.9282	0.59108	0.051
Mof_H 	H 	0.9659	0.9233	0.5661	0.014
Mof_C 	C 	0.013	0.90999	0.60074	-0.122
Mof_C 	C 	0.03471	0.8834	0.57181	-0.013
Mof_H 	H 	0.0194	0.8815	0.547	0.037
Mof_H 	H 	0.0607	0.8952	0.5654	0.029
Mof_N 	N 	0.04076	0.84272	0.58854	-0.288
Mof_H 	H 	0.0191	0.8325	0.5914	0.162
Mof_C 	C 	0.06506	0.8139	0.56505	-0.007
Mof_C 	C 	0.04628	0.80232	0.52492	-0.106
Mof_H 	H 	0.0328	0.7765	0.527	0.063
Mof_H 	H 	0.0267	0.8224	0.5166	0.061
Mof_C 	C 	0.0798	0.8001	0.4954	-0.081
Mof_H 	H 	0.0703	0.804	0.468	0.042
Mof_H 	H 	0.094	0.7746	0.4972	0.055
Mof_C 	C 	0.1066	0.8354	0.5094	-0.058
Mof_H 	H 	0.1335	0.8332	0.4983	0.035
Mof_H 	H 	0.0951	0.861	0.5014	0.039
Mof_C 	C 	0.10703	0.83107	0.55429	-0.128
Mof_H 	H 	0.1112	0.857	0.5672	0.045
Mof_H 	H 	0.1282	0.8128	0.5627	0.063
Mof_C 	C 	0.07233	0.77807	0.5924	0.292
Mof_O 	O 	0.07344	0.78558	0.62998	-0.392
Mof_O 	O 	0.07794	0.74503	0.5774	-0.349
Mof_C 	C 	0.1197	0.8061	0.5178	-0.002
Mof_Cu	Cu	0.85684	0.0637	0.15852	0.922
Mof_O 	O 	0.85236	0.06434	0.10049	-0.482
Mof_C 	C 	0.86182	0.02989	0.08232	0.252
Mof_C 	C 	0.83514	0.01104	0.05689	-0.261
Mof_H 	H 	0.8101	0.0225	0.0519	0.12
Mof_C 	C 	0.84547	0.97565	0.03911	0.113
Mof_H 	H 	0.8274	0.9629	0.0219	-0.02
Mof_C 	C 	0.88236	0.95866	0.04638	-0.162
Mof_H 	H 	0.8894	0.9344	0.0341	0.075
Mof_C 	C 	0.90892	0.97751	0.0718	0.051
Mof_H 	H 	0.9339	0.9659	0.0767	0.014
Mof_C 	C 	0.89926	0.013	0.09001	-0.122
Mof_C 	C 	0.92819	0.03471	0.1166	-0.013
Mof_H 	H 	0.953	0.0194	0.1185	0.037
Mof_H 	H 	0.9346	0.0607	0.1048	0.029
Mof_N 	N 	0.91146	0.04076	0.15728	-0.288
Mof_H 	H 	0.9086	0.0191	0.1675	0.162
Mof_C 	C 	0.93495	0.06506	0.1861	-0.007
Mof_C 	C 	0.97508	0.04628	0.19768	-0.106
Mof_H 	H 	0.973	0.0328	0.2235	0.063
Mof_H 	H 	0.9834	0.0267	0.1776	0.061
Mof_C 	C 	0.0046	0.0798	0.1999	-0.082
Mof_H 	H 	0.032	0.0703	0.196	0.042
Mof_H 	H 	0.0028	0.094	0.2254	0.055
Mof_C 	C 	0.9906	0.1066	0.1646	-0.057
Mof_H 	H 	0.0017	0.1335	0.1668	0.035
Mof_H 	H 	0.9986	0.0951	0.139	0.038
Mof_C 	C 	0.94571	0.10703	0.16893	-0.128
Mof_H 	H 	0.9328	0.1112	0.143	0.045
Mof_H 	H 	0.9373	0.1282	0.1872	0.063
Mof_C 	C 	0.9076	0.07233	0.22193	0.292
Mof_O 	O 	0.87002	0.07344	0.21442	-0.392
Mof_O 	O 	0.9226	0.07794	0.25497	-0.349
Mof_C 	C 	0.9822	0.1197	0.1939	-0.002
Mof_Cu	Cu	0.35684	0.5637	0.65852	0.922
Mof_O 	O 	0.35236	0.56434	0.60049	-0.482
Mof_C 	C 	0.36182	0.52989	0.58232	0.252
Mof_C 	C 	0.33514	0.51104	0.55689	-0.261
Mof_H 	H 	0.3101	0.5225	0.5519	0.12
Mof_C 	C 	0.34547	0.47565	0.53911	0.113
Mof_H 	H 	0.3274	0.4629	0.5219	-0.02
Mof_C 	C 	0.38236	0.45866	0.54638	-0.162
Mof_H 	H 	0.3894	0.4344	0.5341	0.075
Mof_C 	C 	0.40892	0.47751	0.5718	0.051
Mof_H 	H 	0.4339	0.4659	0.5767	0.014
Mof_C 	C 	0.39926	0.513	0.59001	-0.122
Mof_C 	C 	0.42819	0.53471	0.6166	-0.014
Mof_H 	H 	0.453	0.5194	0.6185	0.038
Mof_H 	H 	0.4346	0.5607	0.6048	0.029
Mof_N 	N 	0.41146	0.54076	0.65728	-0.288
Mof_H 	H 	0.4086	0.5191	0.6675	0.162
Mof_C 	C 	0.43495	0.56506	0.6861	-0.007
Mof_C 	C 	0.47508	0.54628	0.69768	-0.106
Mof_H 	H 	0.473	0.5328	0.7235	0.063
Mof_H 	H 	0.4834	0.5267	0.6776	0.061
Mof_C 	C 	0.5046	0.5798	0.6999	-0.081
Mof_H 	H 	0.532	0.5703	0.696	0.042
Mof_H 	H 	0.5028	0.594	0.7254	0.055
Mof_C 	C 	0.4906	0.6066	0.6646	-0.058
Mof_H 	H 	0.5017	0.6335	0.6668	0.035
Mof_H 	H 	0.4986	0.5951	0.639	0.039
Mof_C 	C 	0.44571	0.60703	0.66893	-0.128
Mof_H 	H 	0.4328	0.6112	0.643	0.045
Mof_H 	H 	0.4373	0.6282	0.6872	0.063
Mof_C 	C 	0.4076	0.57233	0.72193	0.292
Mof_O 	O 	0.37002	0.57344	0.71442	-0.392
Mof_O 	O 	0.4226	0.57794	0.75497	-0.349
Mof_C 	C 	0.4822	0.6197	0.6939	-0.002
Mof_Cu	Cu	0.35684	0.4363	0.84148	0.922
Mof_O 	O 	0.35236	0.43566	0.89951	-0.482
Mof_C 	C 	0.36182	0.47011	0.91768	0.252
Mof_C 	C 	0.33514	0.48896	0.94311	-0.261
Mof_H 	H 	0.3101	0.4775	0.9481	0.12
Mof_C 	C 	0.34547	0.52435	0.96089	0.113
Mof_H 	H 	0.3274	0.5371	0.9781	-0.02
Mof_C 	C 	0.38236	0.54134	0.95362	-0.162
Mof_H 	H 	0.3894	0.5656	0.9659	0.075
Mof_C 	C 	0.40892	0.52249	0.9282	0.051
Mof_H 	H 	0.4339	0.5341	0.9233	0.014
Mof_C 	C 	0.39926	0.487	0.90999	-0.122
Mof_C 	C 	0.42819	0.46529	0.8834	-0.014
Mof_H 	H 	0.453	0.4806	0.8815	0.037
Mof_H 	H 	0.4346	0.4393	0.8952	0.029
Mof_N 	N 	0.41146	0.45924	0.84272	-0.288
Mof_H 	H 	0.4086	0.4809	0.8325	0.162
Mof_C 	C 	0.43495	0.43494	0.8139	-0.007
Mof_C 	C 	0.47508	0.45372	0.80232	-0.106
Mof_H 	H 	0.473	0.4672	0.7765	0.063
Mof_H 	H 	0.4834	0.4733	0.8224	0.061
Mof_C 	C 	0.5046	0.4202	0.8001	-0.081
Mof_H 	H 	0.532	0.4297	0.804	0.042
Mof_H 	H 	0.5028	0.406	0.7746	0.055
Mof_C 	C 	0.4906	0.3934	0.8354	-0.058
Mof_H 	H 	0.5017	0.3665	0.8332	0.035
Mof_H 	H 	0.4986	0.4049	0.861	0.039
Mof_C 	C 	0.44571	0.39297	0.83107	-0.128
Mof_H 	H 	0.4328	0.3888	0.857	0.045
Mof_H 	H 	0.4373	0.3718	0.8128	0.063
Mof_C 	C 	0.4076	0.42767	0.77807	0.292
Mof_O 	O 	0.37002	0.42656	0.78558	-0.392
Mof_O 	O 	0.4226	0.42206	0.74503	-0.349
Mof_C 	C 	0.4822	0.3803	0.8061	-0.002
Mof_Cu	Cu	0.85684	0.9363	0.34148	0.922
Mof_O 	O 	0.85236	0.93566	0.39951	-0.482
Mof_C 	C 	0.86182	0.97011	0.41768	0.252
Mof_C 	C 	0.83514	0.98896	0.44311	-0.261
Mof_H 	H 	0.8101	0.9775	0.4481	0.12
Mof_C 	C 	0.84547	0.02435	0.46089	0.113
Mof_H 	H 	0.8274	0.0371	0.4781	-0.02
Mof_C 	C 	0.88236	0.04134	0.45362	-0.162
Mof_H 	H 	0.8894	0.0656	0.4659	0.075
Mof_C 	C 	0.90892	0.02249	0.4282	0.051
Mof_H 	H 	0.9339	0.0341	0.4233	0.014
Mof_C 	C 	0.89926	0.987	0.40999	-0.122
Mof_C 	C 	0.92819	0.96529	0.3834	-0.013
Mof_H 	H 	0.953	0.9806	0.3815	0.037
Mof_H 	H 	0.9346	0.9393	0.3952	0.029
Mof_N 	N 	0.91146	0.95924	0.34272	-0.288
Mof_H 	H 	0.9086	0.9809	0.3325	0.162
Mof_C 	C 	0.93495	0.93494	0.3139	-0.007
Mof_C 	C 	0.97508	0.95372	0.30232	-0.106
Mof_H 	H 	0.973	0.9672	0.2765	0.063
Mof_H 	H 	0.9834	0.9733	0.3224	0.061
Mof_C 	C 	0.0046	0.9202	0.3001	-0.082
Mof_H 	H 	0.032	0.9297	0.304	0.042
Mof_H 	H 	0.0028	0.906	0.2746	0.055
Mof_C 	C 	0.9906	0.8934	0.3354	-0.057
Mof_H 	H 	0.0017	0.8665	0.3332	0.035
Mof_H 	H 	0.9986	0.9049	0.361	0.038
Mof_C 	C 	0.94571	0.89297	0.33107	-0.128
Mof_H 	H 	0.9328	0.8888	0.357	0.045
Mof_H 	H 	0.9373	0.8718	0.3128	0.063
Mof_C 	C 	0.9076	0.92767	0.27807	0.292
Mof_O 	O 	0.87002	0.92656	0.28558	-0.392
Mof_O 	O 	0.9226	0.92206	0.24503	-0.349
Mof_C 	C 	0.9822	0.8803	0.3061	-0.002
Mof_Cu	Cu	0.64316	0.9363	0.65852	0.922
Mof_O 	O 	0.64764	0.93566	0.60049	-0.482
Mof_C 	C 	0.63818	0.97011	0.58232	0.252
Mof_C 	C 	0.66486	0.98896	0.55689	-0.261
Mof_H 	H 	0.6899	0.9775	0.5519	0.12
Mof_C 	C 	0.65453	0.02435	0.53911	0.113
Mof_H 	H 	0.6726	0.0371	0.5219	-0.02
Mof_C 	C 	0.61764	0.04134	0.54638	-0.162
Mof_H 	H 	0.6106	0.0656	0.5341	0.075
Mof_C 	C 	0.59108	0.02249	0.5718	0.051
Mof_H 	H 	0.5661	0.0341	0.5767	0.014
Mof_C 	C 	0.60074	0.987	0.59001	-0.122
Mof_C 	C 	0.57181	0.96529	0.6166	-0.013
Mof_H 	H 	0.547	0.9806	0.6185	0.037
Mof_H 	H 	0.5654	0.9393	0.6048	0.029
Mof_N 	N 	0.58854	0.95924	0.65728	-0.288
Mof_H 	H 	0.5914	0.9809	0.6675	0.162
Mof_C 	C 	0.56505	0.93494	0.6861	-0.007
Mof_C 	C 	0.52492	0.95372	0.69768	-0.106
Mof_H 	H 	0.527	0.9672	0.7235	0.063
Mof_H 	H 	0.5166	0.9733	0.6776	0.061
Mof_C 	C 	0.4954	0.9202	0.6999	-0.081
Mof_H 	H 	0.468	0.9297	0.696	0.042
Mof_H 	H 	0.4972	0.906	0.7254	0.055
Mof_C 	C 	0.5094	0.8934	0.6646	-0.058
Mof_H 	H 	0.4983	0.8665	0.6668	0.035
Mof_H 	H 	0.5014	0.9049	0.639	0.039
Mof_C 	C 	0.55429	0.89297	0.66893	-0.128
Mof_H 	H 	0.5672	0.8888	0.643	0.045
Mof_H 	H 	0.5627	0.8718	0.6872	0.063
Mof_C 	C 	0.5924	0.92767	0.72193	0.292
Mof_O 	O 	0.62998	0.92656	0.71442	-0.392
Mof_O 	O 	0.5774	0.92206	0.75497	-0.349
Mof_C 	C 	0.5178	0.8803	0.6939	-0.002
Mof_Cu	Cu	0.14316	0.4363	0.15852	0.922
Mof_O 	O 	0.14764	0.43566	0.10049	-0.482
Mof_C 	C 	0.13818	0.47011	0.08232	0.252
Mof_C 	C 	0.16486	0.48896	0.05689	-0.261
Mof_H 	H 	0.1899	0.4775	0.0519	0.12
Mof_C 	C 	0.15453	0.52435	0.03911	0.113
Mof_H 	H 	0.1726	0.5371	0.0219	-0.02
Mof_C 	C 	0.11764	0.54134	0.04638	-0.162
Mof_H 	H 	0.1106	0.5656	0.0341	0.075
Mof_C 	C 	0.09108	0.52249	0.0718	0.051
Mof_H 	H 	0.0661	0.5341	0.0767	0.014
Mof_C 	C 	0.10074	0.487	0.09001	-0.122
Mof_C 	C 	0.07181	0.46529	0.1166	-0.014
Mof_H 	H 	0.047	0.4806	0.1185	0.037
Mof_H 	H 	0.0654	0.4393	0.1048	0.029
Mof_N 	N 	0.08854	0.45924	0.15728	-0.288
Mof_H 	H 	0.0914	0.4809	0.1675	0.162
Mof_C 	C 	0.06505	0.43494	0.1861	-0.007
Mof_C 	C 	0.02492	0.45372	0.19768	-0.106
Mof_H 	H 	0.027	0.4672	0.2235	0.063
Mof_H 	H 	0.0166	0.4733	0.1776	0.061
Mof_C 	C 	0.9954	0.4202	0.1999	-0.082
Mof_H 	H 	0.968	0.4297	0.196	0.042
Mof_H 	H 	0.9972	0.406	0.2254	0.055
Mof_C 	C 	0.0094	0.3934	0.1646	-0.057
Mof_H 	H 	0.9983	0.3665	0.1668	0.035
Mof_H 	H 	0.0014	0.4049	0.139	0.038
Mof_C 	C 	0.05429	0.39297	0.16893	-0.128
Mof_H 	H 	0.0672	0.3888	0.143	0.045
Mof_H 	H 	0.0627	0.3718	0.1872	0.063
Mof_C 	C 	0.0924	0.42767	0.22193	0.292
Mof_O 	O 	0.12998	0.42656	0.21442	-0.392
Mof_O 	O 	0.0774	0.42206	0.25497	-0.349
Mof_C 	C 	0.0178	0.3803	0.1939	-0.002
Mof_Cu	Cu	0.14316	0.5637	0.34148	0.922
Mof_O 	O 	0.14764	0.56434	0.39951	-0.482
Mof_C 	C 	0.13818	0.52989	0.41768	0.252
Mof_C 	C 	0.16486	0.51104	0.44311	-0.261
Mof_H 	H 	0.1899	0.5225	0.4481	0.12
Mof_C 	C 	0.15453	0.47565	0.46089	0.113
Mof_H 	H 	0.1726	0.4629	0.4781	-0.02
Mof_C 	C 	0.11764	0.45866	0.45362	-0.162
Mof_H 	H 	0.1106	0.4344	0.4659	0.075
Mof_C 	C 	0.09108	0.47751	0.4282	0.051
Mof_H 	H 	0.0661	0.4659	0.4233	0.014
Mof_C 	C 	0.10074	0.513	0.40999	-0.122
Mof_C 	C 	0.07181	0.53471	0.3834	-0.014
Mof_H 	H 	0.047	0.5194	0.3815	0.037
Mof_H 	H 	0.0654	0.5607	0.3952	0.029
Mof_N 	N 	0.08854	0.54076	0.34272	-0.288
Mof_H 	H 	0.0914	0.5191	0.3325	0.162
Mof_C 	C 	0.06505	0.56506	0.3139	-0.007
Mof_C 	C 	0.02492	0.54628	0.30232	-0.106
Mof_H 	H 	0.027	0.5328	0.2765	0.063
Mof_H 	H 	0.0166	0.5267	0.3224	0.061
Mof_C 	C 	0.9954	0.5798	0.3001	-0.082
Mof_H 	H 	0.968	0.5703	0.304	0.042
Mof_H 	H 	0.9972	0.594	0.2746	0.055
Mof_C 	C 	0.0094	0.6066	0.3354	-0.057
Mof_H 	H 	0.9983	0.6335	0.3332	0.035
Mof_H 	H 	0.0014	0.5951	0.361	0.039
Mof_C 	C 	0.05429	0.60703	0.33107	-0.128
Mof_H 	H 	0.0672	0.6112	0.357	0.045
Mof_H 	H 	0.0627	0.6282	0.3128	0.063
Mof_C 	C 	0.0924	0.57233	0.27807	0.292
Mof_O 	O 	0.12998	0.57344	0.28558	-0.392
Mof_O 	O 	0.0774	0.57794	0.24503	-0.349
Mof_C 	C 	0.0178	0.6197	0.3061	-0.002
Mof_Cu	Cu	0.64316	0.0637	0.84148	0.922
Mof_O 	O 	0.64764	0.06434	0.89951	-0.482
Mof_C 	C 	0.63818	0.02989	0.91768	0.252
Mof_C 	C 	0.66486	0.01104	0.94311	-0.261
Mof_H 	H 	0.6899	0.0225	0.9481	0.12
Mof_C 	C 	0.65453	0.97565	0.96089	0.113
Mof_H 	H 	0.6726	0.9629	0.9781	-0.02
Mof_C 	C 	0.61764	0.95866	0.95362	-0.162
Mof_H 	H 	0.6106	0.9344	0.9659	0.075
Mof_C 	C 	0.59108	0.97751	0.9282	0.051
Mof_H 	H 	0.5661	0.9659	0.9233	0.014
Mof_C 	C 	0.60074	0.013	0.90999	-0.122
Mof_C 	C 	0.57181	0.03471	0.8834	-0.013
Mof_H 	H 	0.547	0.0194	0.8815	0.037
Mof_H 	H 	0.5654	0.0607	0.8952	0.029
Mof_N 	N 	0.58854	0.04076	0.84272	-0.288
Mof_H 	H 	0.5914	0.0191	0.8325	0.162
Mof_C 	C 	0.56505	0.06506	0.8139	-0.007
Mof_C 	C 	0.52492	0.04628	0.80232	-0.106
Mof_H 	H 	0.527	0.0328	0.7765	0.063
Mof_H 	H 	0.5166	0.0267	0.8224	0.061
Mof_C 	C 	0.4954	0.0798	0.8001	-0.081
Mof_H 	H 	0.468	0.0703	0.804	0.042
Mof_H 	H 	0.4972	0.094	0.7746	0.055
Mof_C 	C 	0.5094	0.1066	0.8354	-0.058
Mof_H 	H 	0.4983	0.1335	0.8332	0.035
Mof_H 	H 	0.5014	0.0951	0.861	0.039
Mof_C 	C 	0.55429	0.10703	0.83107	-0.128
Mof_H 	H 	0.5672	0.1112	0.857	0.045
Mof_H 	H 	0.5627	0.1282	0.8128	0.063
Mof_C 	C 	0.5924	0.07233	0.77807	0.292
Mof_O 	O 	0.62998	0.07344	0.78558	-0.392
Mof_O 	O 	0.5774	0.07794	0.74503	-0.349
Mof_C 	C 	0.5178	0.1197	0.8061	-0.002
Mof_Cu	Cu	0.15852	0.85684	0.0637	0.922
Mof_O 	O 	0.10049	0.85236	0.06434	-0.482
Mof_C 	C 	0.08232	0.86182	0.02989	0.252
Mof_C 	C 	0.05689	0.83514	0.01104	-0.261
Mof_H 	H 	0.0519	0.8101	0.0225	0.12
Mof_C 	C 	0.03911	0.84547	0.97565	0.113
Mof_H 	H 	0.0219	0.8274	0.9629	-0.02
Mof_C 	C 	0.04638	0.88236	0.95866	-0.162
Mof_H 	H 	0.0341	0.8894	0.9344	0.075
Mof_C 	C 	0.0718	0.90892	0.97751	0.051
Mof_H 	H 	0.0767	0.9339	0.9659	0.014
Mof_C 	C 	0.09001	0.89926	0.013	-0.122
Mof_C 	C 	0.1166	0.92819	0.03471	-0.013
Mof_H 	H 	0.1185	0.953	0.0194	0.037
Mof_H 	H 	0.1048	0.9346	0.0607	0.029
Mof_N 	N 	0.15728	0.91146	0.04076	-0.288
Mof_H 	H 	0.1675	0.9086	0.0191	0.162
Mof_C 	C 	0.1861	0.93495	0.06506	-0.007
Mof_C 	C 	0.19768	0.97508	0.04628	-0.106
Mof_H 	H 	0.2235	0.973	0.0328	0.063
Mof_H 	H 	0.1776	0.9834	0.0267	0.061
Mof_C 	C 	0.1999	0.0046	0.0798	-0.082
Mof_H 	H 	0.196	0.032	0.0703	0.042
Mof_H 	H 	0.2254	0.0028	0.094	0.055
Mof_C 	C 	0.1646	0.9906	0.1066	-0.057
Mof_H 	H 	0.1668	0.0017	0.1335	0.035
Mof_H 	H 	0.139	0.9986	0.0951	0.038
Mof_C 	C 	0.16893	0.94571	0.10703	-0.128
Mof_H 	H 	0.143	0.9328	0.1112	0.045
Mof_H 	H 	0.1872	0.9373	0.1282	0.063
Mof_C 	C 	0.22193	0.9076	0.07233	0.292
Mof_O 	O 	0.21442	0.87002	0.07344	-0.392
Mof_O 	O 	0.25497	0.9226	0.07794	-0.349
Mof_C 	C 	0.1939	0.9822	0.1197	-0.002
Mof_Cu	Cu	0.65852	0.35684	0.5637	0.922
Mof_O 	O 	0.60049	0.35236	0.56434	-0.482
Mof_C 	C 	0.58232	0.36182	0.52989	0.252
Mof_C 	C 	0.55689	0.33514	0.51104	-0.261
Mof_H 	H 	0.5519	0.3101	0.5225	0.12
Mof_C 	C 	0.53911	0.34547	0.47565	0.113
Mof_H 	H 	0.5219	0.3274	0.4629	-0.02
Mof_C 	C 	0.54638	0.38236	0.45866	-0.162
Mof_H 	H 	0.5341	0.3894	0.4344	0.075
Mof_C 	C 	0.5718	0.40892	0.47751	0.051
Mof_H 	H 	0.5767	0.4339	0.4659	0.014
Mof_C 	C 	0.59001	0.39926	0.513	-0.122
Mof_C 	C 	0.6166	0.42819	0.53471	-0.014
Mof_H 	H 	0.6185	0.453	0.5194	0.038
Mof_H 	H 	0.6048	0.4346	0.5607	0.029
Mof_N 	N 	0.65728	0.41146	0.54076	-0.288
Mof_H 	H 	0.6675	0.4086	0.5191	0.162
Mof_C 	C 	0.6861	0.43495	0.56506	-0.007
Mof_C 	C 	0.69768	0.47508	0.54628	-0.106
Mof_H 	H 	0.7235	0.473	0.5328	0.063
Mof_H 	H 	0.6776	0.4834	0.5267	0.061
Mof_C 	C 	0.6999	0.5046	0.5798	-0.081
Mof_H 	H 	0.696	0.532	0.5703	0.042
Mof_H 	H 	0.7254	0.5028	0.594	0.055
Mof_C 	C 	0.6646	0.4906	0.6066	-0.058
Mof_H 	H 	0.6668	0.5017	0.6335	0.035
Mof_H 	H 	0.639	0.4986	0.5951	0.039
Mof_C 	C 	0.66893	0.44571	0.60703	-0.128
Mof_H 	H 	0.643	0.4328	0.6112	0.045
Mof_H 	H 	0.6872	0.4373	0.6282	0.063
Mof_C 	C 	0.72193	0.4076	0.57233	0.292
Mof_O 	O 	0.71442	0.37002	0.57344	-0.392
Mof_O 	O 	0.75497	0.4226	0.57794	-0.349
Mof_C 	C 	0.6939	0.4822	0.6197	-0.002
Mof_Cu	Cu	0.84148	0.35684	0.4363	0.922
Mof_O 	O 	0.89951	0.35236	0.43566	-0.482
Mof_C 	C 	0.91768	0.36182	0.47011	0.252
Mof_C 	C 	0.94311	0.33514	0.48896	-0.261
Mof_H 	H 	0.9481	0.3101	0.4775	0.12
Mof_C 	C 	0.96089	0.34547	0.52435	0.113
Mof_H 	H 	0.9781	0.3274	0.5371	-0.02
Mof_C 	C 	0.95362	0.38236	0.54134	-0.162
Mof_H 	H 	0.9659	0.3894	0.5656	0.075
Mof_C 	C 	0.9282	0.40892	0.52249	0.051
Mof_H 	H 	0.9233	0.4339	0.5341	0.014
Mof_C 	C 	0.90999	0.39926	0.487	-0.122
Mof_C 	C 	0.8834	0.42819	0.46529	-0.014
Mof_H 	H 	0.8815	0.453	0.4806	0.037
Mof_H 	H 	0.8952	0.4346	0.4393	0.029
Mof_N 	N 	0.84272	0.41146	0.45924	-0.288
Mof_H 	H 	0.8325	0.4086	0.4809	0.162
Mof_C 	C 	0.8139	0.43495	0.43494	-0.007
Mof_C 	C 	0.80232	0.47508	0.45372	-0.106
Mof_H 	H 	0.7765	0.473	0.4672	0.063
Mof_H 	H 	0.8224	0.4834	0.4733	0.061
Mof_C 	C 	0.8001	0.5046	0.4202	-0.081
Mof_H 	H 	0.804	0.532	0.4297	0.042
Mof_H 	H 	0.7746	0.5028	0.406	0.055
Mof_C 	C 	0.8354	0.4906	0.3934	-0.058
Mof_H 	H 	0.8332	0.5017	0.3665	0.035
Mof_H 	H 	0.861	0.4986	0.4049	0.039
Mof_C 	C 	0.83107	0.44571	0.39297	-0.128
Mof_H 	H 	0.857	0.4328	0.3888	0.045
Mof_H 	H 	0.8128	0.4373	0.3718	0.063
Mof_C 	C 	0.77807	0.4076	0.42767	0.292
Mof_O 	O 	0.78558	0.37002	0.42656	-0.392
Mof_O 	O 	0.74503	0.4226	0.42206	-0.349
Mof_C 	C 	0.8061	0.4822	0.3803	-0.002
Mof_Cu	Cu	0.34148	0.85684	0.9363	0.922
Mof_O 	O 	0.39951	0.85236	0.93566	-0.482
Mof_C 	C 	0.41768	0.86182	0.97011	0.252
Mof_C 	C 	0.44311	0.83514	0.98896	-0.261
Mof_H 	H 	0.4481	0.8101	0.9775	0.12
Mof_C 	C 	0.46089	0.84547	0.02435	0.113
Mof_H 	H 	0.4781	0.8274	0.0371	-0.02
Mof_C 	C 	0.45362	0.88236	0.04134	-0.162
Mof_H 	H 	0.4659	0.8894	0.0656	0.075
Mof_C 	C 	0.4282	0.90892	0.02249	0.051
Mof_H 	H 	0.4233	0.9339	0.0341	0.014
Mof_C 	C 	0.40999	0.89926	0.987	-0.122
Mof_C 	C 	0.3834	0.92819	0.96529	-0.013
Mof_H 	H 	0.3815	0.953	0.9806	0.037
Mof_H 	H 	0.3952	0.9346	0.9393	0.029
Mof_N 	N 	0.34272	0.91146	0.95924	-0.288
Mof_H 	H 	0.3325	0.9086	0.9809	0.162
Mof_C 	C 	0.3139	0.93495	0.93494	-0.007
Mof_C 	C 	0.30232	0.97508	0.95372	-0.106
Mof_H 	H 	0.2765	0.973	0.9672	0.063
Mof_H 	H 	0.3224	0.9834	0.9733	0.061
Mof_C 	C 	0.3001	0.0046	0.9202	-0.082
Mof_H 	H 	0.304	0.032	0.9297	0.042
Mof_H 	H 	0.2746	0.0028	0.906	0.055
Mof_C 	C 	0.3354	0.9906	0.8934	-0.057
Mof_H 	H 	0.3332	0.0017	0.8665	0.035
Mof_H 	H 	0.361	0.9986	0.9049	0.038
Mof_C 	C 	0.33107	0.94571	0.89297	-0.128
Mof_H 	H 	0.357	0.9328	0.8888	0.045
Mof_H 	H 	0.3128	0.9373	0.8718	0.063
Mof_C 	C 	0.27807	0.9076	0.92767	0.292
Mof_O 	O 	0.28558	0.87002	0.92656	-0.392
Mof_O 	O 	0.24503	0.9226	0.92206	-0.349
Mof_C 	C 	0.3061	0.9822	0.8803	-0.002
Mof_Cu	Cu	0.65852	0.64316	0.9363	0.922
Mof_O 	O 	0.60049	0.64764	0.93566	-0.482
Mof_C 	C 	0.58232	0.63818	0.97011	0.252
Mof_C 	C 	0.55689	0.66486	0.98896	-0.261
Mof_H 	H 	0.5519	0.6899	0.9775	0.12
Mof_C 	C 	0.53911	0.65453	0.02435	0.113
Mof_H 	H 	0.5219	0.6726	0.0371	-0.02
Mof_C 	C 	0.54638	0.61764	0.04134	-0.162
Mof_H 	H 	0.5341	0.6106	0.0656	0.075
Mof_C 	C 	0.5718	0.59108	0.02249	0.051
Mof_H 	H 	0.5767	0.5661	0.0341	0.014
Mof_C 	C 	0.59001	0.60074	0.987	-0.122
Mof_C 	C 	0.6166	0.57181	0.96529	-0.013
Mof_H 	H 	0.6185	0.547	0.9806	0.037
Mof_H 	H 	0.6048	0.5654	0.9393	0.029
Mof_N 	N 	0.65728	0.58854	0.95924	-0.288
Mof_H 	H 	0.6675	0.5914	0.9809	0.162
Mof_C 	C 	0.6861	0.56505	0.93494	-0.007
Mof_C 	C 	0.69768	0.52492	0.95372	-0.106
Mof_H 	H 	0.7235	0.527	0.9672	0.063
Mof_H 	H 	0.6776	0.5166	0.9733	0.061
Mof_C 	C 	0.6999	0.4954	0.9202	-0.081
Mof_H 	H 	0.696	0.468	0.9297	0.042
Mof_H 	H 	0.7254	0.4972	0.906	0.055
Mof_C 	C 	0.6646	0.5094	0.8934	-0.058
Mof_H 	H 	0.6668	0.4983	0.8665	0.035
Mof_H 	H 	0.639	0.5014	0.9049	0.039
Mof_C 	C 	0.66893	0.55429	0.89297	-0.128
Mof_H 	H 	0.643	0.5672	0.8888	0.045
Mof_H 	H 	0.6872	0.5627	0.8718	0.063
Mof_C 	C 	0.72193	0.5924	0.92767	0.292
Mof_O 	O 	0.71442	0.62998	0.92656	-0.392
Mof_O 	O 	0.75497	0.5774	0.92206	-0.349
Mof_C 	C 	0.6939	0.5178	0.8803	-0.002
Mof_Cu	Cu	0.15852	0.14316	0.4363	0.922
Mof_O 	O 	0.10049	0.14764	0.43566	-0.482
Mof_C 	C 	0.08232	0.13818	0.47011	0.252
Mof_C 	C 	0.05689	0.16486	0.48896	-0.261
Mof_H 	H 	0.0519	0.1899	0.4775	0.12
Mof_C 	C 	0.03911	0.15453	0.52435	0.113
Mof_H 	H 	0.0219	0.1726	0.5371	-0.02
Mof_C 	C 	0.04638	0.11764	0.54134	-0.162
Mof_H 	H 	0.0341	0.1106	0.5656	0.075
Mof_C 	C 	0.0718	0.09108	0.52249	0.051
Mof_H 	H 	0.0767	0.0661	0.5341	0.014
Mof_C 	C 	0.09001	0.10074	0.487	-0.122
Mof_C 	C 	0.1166	0.07181	0.46529	-0.014
Mof_H 	H 	0.1185	0.047	0.4806	0.037
Mof_H 	H 	0.1048	0.0654	0.4393	0.029
Mof_N 	N 	0.15728	0.08854	0.45924	-0.288
Mof_H 	H 	0.1675	0.0914	0.4809	0.162
Mof_C 	C 	0.1861	0.06505	0.43494	-0.007
Mof_C 	C 	0.19768	0.02492	0.45372	-0.106
Mof_H 	H 	0.2235	0.027	0.4672	0.063
Mof_H 	H 	0.1776	0.0166	0.4733	0.061
Mof_C 	C 	0.1999	0.9954	0.4202	-0.082
Mof_H 	H 	0.196	0.968	0.4297	0.042
Mof_H 	H 	0.2254	0.9972	0.406	0.055
Mof_C 	C 	0.1646	0.0094	0.3934	-0.057
Mof_H 	H 	0.1668	0.9983	0.3665	0.035
Mof_H 	H 	0.139	0.0014	0.4049	0.038
Mof_C 	C 	0.16893	0.05429	0.39297	-0.128
Mof_H 	H 	0.143	0.0672	0.3888	0.045
Mof_H 	H 	0.1872	0.0627	0.3718	0.063
Mof_C 	C 	0.22193	0.0924	0.42767	0.292
Mof_O 	O 	0.21442	0.12998	0.42656	-0.392
Mof_O 	O 	0.25497	0.0774	0.42206	-0.349
Mof_C 	C 	0.1939	0.0178	0.3803	-0.002
Mof_Cu	Cu	0.34148	0.14316	0.5637	0.922
Mof_O 	O 	0.39951	0.14764	0.56434	-0.482
Mof_C 	C 	0.41768	0.13818	0.52989	0.252
Mof_C 	C 	0.44311	0.16486	0.51104	-0.261
Mof_H 	H 	0.4481	0.1899	0.5225	0.12
Mof_C 	C 	0.46089	0.15453	0.47565	0.113
Mof_H 	H 	0.4781	0.1726	0.4629	-0.02
Mof_C 	C 	0.45362	0.11764	0.45866	-0.162
Mof_H 	H 	0.4659	0.1106	0.4344	0.075
Mof_C 	C 	0.4282	0.09108	0.47751	0.051
Mof_H 	H 	0.4233	0.0661	0.4659	0.014
Mof_C 	C 	0.40999	0.10074	0.513	-0.122
Mof_C 	C 	0.3834	0.07181	0.53471	-0.014
Mof_H 	H 	0.3815	0.047	0.5194	0.037
Mof_H 	H 	0.3952	0.0654	0.5607	0.029
Mof_N 	N 	0.34272	0.08854	0.54076	-0.288
Mof_H 	H 	0.3325	0.0914	0.5191	0.162
Mof_C 	C 	0.3139	0.06505	0.56506	-0.007
Mof_C 	C 	0.30232	0.02492	0.54628	-0.106
Mof_H 	H 	0.2765	0.027	0.5328	0.063
Mof_H 	H 	0.3224	0.0166	0.5267	0.061
Mof_C 	C 	0.3001	0.9954	0.5798	-0.082
Mof_H 	H 	0.304	0.968	0.5703	0.042
Mof_H 	H 	0.2746	0.9972	0.594	0.055
Mof_C 	C 	0.3354	0.0094	0.6066	-0.057
Mof_H 	H 	0.3332	0.9983	0.6335	0.035
Mof_H 	H 	0.361	0.0014	0.5951	0.039
Mof_C 	C 	0.33107	0.05429	0.60703	-0.128
Mof_H 	H 	0.357	0.0672	0.6112	0.045
Mof_H 	H 	0.3128	0.0627	0.6282	0.063
Mof_C 	C 	0.27807	0.0924	0.57233	0.292
Mof_O 	O 	0.28558	0.12998	0.57344	-0.392
Mof_O 	O 	0.24503	0.0774	0.57794	-0.349
Mof_C 	C 	0.3061	0.0178	0.6197	-0.002
Mof_Cu	Cu	0.84148	0.64316	0.0637	0.922
Mof_O 	O 	0.89951	0.64764	0.06434	-0.482
Mof_C 	C 	0.91768	0.63818	0.02989	0.252
Mof_C 	C 	0.94311	0.66486	0.01104	-0.261
Mof_H 	H 	0.9481	0.6899	0.0225	0.12
Mof_C 	C 	0.96089	0.65453	0.97565	0.113
Mof_H 	H 	0.9781	0.6726	0.9629	-0.02
Mof_C 	C 	0.95362	0.61764	0.95866	-0.162
Mof_H 	H 	0.9659	0.6106	0.9344	0.075
Mof_C 	C 	0.9282	0.59108	0.97751	0.051
Mof_H 	H 	0.9233	0.5661	0.9659	0.014
Mof_C 	C 	0.90999	0.60074	0.013	-0.122
Mof_C 	C 	0.8834	0.57181	0.03471	-0.013
Mof_H 	H 	0.8815	0.547	0.0194	0.037
Mof_H 	H 	0.8952	0.5654	0.0607	0.029
Mof_N 	N 	0.84272	0.58854	0.04076	-0.288
Mof_H 	H 	0.8325	0.5914	0.0191	0.162
Mof_C 	C 	0.8139	0.56505	0.06506	-0.007
Mof_C 	C 	0.80232	0.52492	0.04628	-0.106
Mof_H 	H 	0.7765	0.527	0.0328	0.063
Mof_H 	H 	0.8224	0.5166	0.0267	0.061
Mof_C 	C 	0.8001	0.4954	0.0798	-0.081
Mof_H 	H 	0.804	0.468	0.0703	0.042
Mof_H 	H 	0.7746	0.4972	0.094	0.055
Mof_C 	C 	0.8354	0.5094	0.1066	-0.058
Mof_H 	H 	0.8332	0.4983	0.1335	0.035
Mof_H 	H 	0.861	0.5014	0.0951	0.039
Mof_C 	C 	0.83107	0.55429	0.10703	-0.128
Mof_H 	H 	0.857	0.5672	0.1112	0.045
Mof_H 	H 	0.8128	0.5627	0.1282	0.063
Mof_C 	C 	0.77807	0.5924	0.07233	0.292
Mof_O 	O 	0.78558	0.62998	0.07344	-0.392
Mof_O 	O 	0.74503	0.5774	0.07794	-0.349
Mof_C 	C 	0.8061	0.5178	0.1197	-0.002
Mof_Cu	Cu	0.90852	0.3137	0.39316	0.922
Mof_O 	O 	0.85049	0.31434	0.39764	-0.482
Mof_C 	C 	0.83232	0.27989	0.38818	0.252
Mof_C 	C 	0.80689	0.26104	0.41486	-0.261
Mof_H 	H 	0.8019	0.2725	0.4399	0.12
Mof_C 	C 	0.78911	0.22565	0.40453	0.113
Mof_H 	H 	0.7719	0.2129	0.4226	-0.02
Mof_C 	C 	0.79638	0.20866	0.36764	-0.162
Mof_H 	H 	0.7841	0.1844	0.3606	0.075
Mof_C 	C 	0.8218	0.22751	0.34108	0.051
Mof_H 	H 	0.8267	0.2159	0.3161	0.014
Mof_C 	C 	0.84001	0.263	0.35074	-0.122
Mof_C 	C 	0.8666	0.28471	0.32181	-0.014
Mof_H 	H 	0.8685	0.2694	0.297	0.038
Mof_H 	H 	0.8548	0.3107	0.3154	0.029
Mof_N 	N 	0.90728	0.29076	0.33854	-0.288
Mof_H 	H 	0.9175	0.2691	0.3414	0.162
Mof_C 	C 	0.9361	0.31506	0.31505	-0.007
Mof_C 	C 	0.94768	0.29628	0.27492	-0.106
Mof_H 	H 	0.9735	0.2828	0.277	0.063
Mof_H 	H 	0.9276	0.2767	0.2666	0.061
Mof_C 	C 	0.9499	0.3298	0.2454	-0.081
Mof_H 	H 	0.946	0.3203	0.218	0.042
Mof_H 	H 	0.9754	0.344	0.2472	0.055
Mof_C 	C 	0.9146	0.3566	0.2594	-0.058
Mof_H 	H 	0.9168	0.3835	0.2483	0.035
Mof_H 	H 	0.889	0.3451	0.2514	0.039
Mof_C 	C 	0.91893	0.35703	0.30429	-0.128
Mof_H 	H 	0.893	0.3612	0.3172	0.045
Mof_H 	H 	0.9372	0.3782	0.3127	0.063
Mof_C 	C 	0.97193	0.32233	0.3424	0.292
Mof_O 	O 	0.96442	0.32344	0.37998	-0.392
Mof_O 	O 	0.00497	0.32794	0.3274	-0.349
Mof_C 	C 	0.9439	0.3697	0.2678	-0.002
Mof_Cu	Cu	0.40852	0.8137	0.89316	0.922
Mof_O 	O 	0.35049	0.81434	0.89764	-0.482
Mof_C 	C 	0.33232	0.77989	0.88818	0.252
Mof_C 	C 	0.30689	0.76104	0.91486	-0.261
Mof_H 	H 	0.3019	0.7725	0.9399	0.12
Mof_C 	C 	0.28911	0.72565	0.90453	0.113
Mof_H 	H 	0.2719	0.7129	0.9226	-0.02
Mof_C 	C 	0.29638	0.70866	0.86764	-0.162
Mof_H 	H 	0.2841	0.6844	0.8606	0.075
Mof_C 	C 	0.3218	0.72751	0.84108	0.051
Mof_H 	H 	0.3267	0.7159	0.8161	0.014
Mof_C 	C 	0.34001	0.763	0.85074	-0.122
Mof_C 	C 	0.3666	0.78471	0.82181	-0.014
Mof_H 	H 	0.3685	0.7694	0.797	0.038
Mof_H 	H 	0.3548	0.8107	0.8154	0.029
Mof_N 	N 	0.40728	0.79076	0.83854	-0.288
Mof_H 	H 	0.4175	0.7691	0.8414	0.162
Mof_C 	C 	0.4361	0.81506	0.81505	-0.007
Mof_C 	C 	0.44768	0.79628	0.77492	-0.106
Mof_H 	H 	0.4735	0.7828	0.777	0.063
Mof_H 	H 	0.4276	0.7767	0.7666	0.061
Mof_C 	C 	0.4499	0.8298	0.7454	-0.081
Mof_H 	H 	0.446	0.8203	0.718	0.042
Mof_H 	H 	0.4754	0.844	0.7472	0.055
Mof_C 	C 	0.4146	0.8566	0.7594	-0.058
Mof_H 	H 	0.4168	0.8835	0.7483	0.035
Mof_H 	H 	0.389	0.8451	0.7514	0.039
Mof_C 	C 	0.41893	0.85703	0.80429	-0.128
Mof_H 	H 	0.393	0.8612	0.8172	0.045
Mof_H 	H 	0.4372	0.8782	0.8127	0.063
Mof_C 	C 	0.47193	0.82233	0.8424	0.292
Mof_O 	O 	0.46442	0.82344	0.87998	-0.392
Mof_O 	O 	0.50497	0.82794	0.8274	-0.349
Mof_C 	C 	0.4439	0.8697	0.7678	-0.002
Mof_Cu	Cu	0.59148	0.6863	0.89316	0.922
Mof_O 	O 	0.64951	0.68566	0.89764	-0.482
Mof_C 	C 	0.66768	0.72011	0.88818	0.252
Mof_C 	C 	0.69311	0.73896	0.91486	-0.261
Mof_H 	H 	0.6981	0.7275	0.9399	0.12
Mof_C 	C 	0.71089	0.77435	0.90453	0.113
Mof_H 	H 	0.7281	0.7871	0.9226	-0.02
Mof_C 	C 	0.70362	0.79134	0.86764	-0.162
Mof_H 	H 	0.7159	0.8156	0.8606	0.075
Mof_C 	C 	0.6782	0.77249	0.84108	0.051
Mof_H 	H 	0.6733	0.7841	0.8161	0.014
Mof_C 	C 	0.65999	0.737	0.85074	-0.122
Mof_C 	C 	0.6334	0.71529	0.82181	-0.014
Mof_H 	H 	0.6315	0.7306	0.797	0.038
Mof_H 	H 	0.6452	0.6893	0.8154	0.029
Mof_N 	N 	0.59272	0.70924	0.83854	-0.288
Mof_H 	H 	0.5825	0.7309	0.8414	0.162
Mof_C 	C 	0.5639	0.68494	0.81505	-0.007
Mof_C 	C 	0.55232	0.70372	0.77492	-0.106
Mof_H 	H 	0.5265	0.7172	0.777	0.063
Mof_H 	H 	0.5724	0.7233	0.7666	0.061
Mof_C 	C 	0.5501	0.6702	0.7454	-0.081
Mof_H 	H 	0.554	0.6797	0.718	0.042
Mof_H 	H 	0.5246	0.656	0.7472	0.055
Mof_C 	C 	0.5854	0.6434	0.7594	-0.058
Mof_H 	H 	0.5832	0.6165	0.7483	0.035
Mof_H 	H 	0.611	0.6549	0.7514	0.039
Mof_C 	C 	0.58107	0.64297	0.80429	-0.128
Mof_H 	H 	0.607	0.6388	0.8172	0.045
Mof_H 	H 	0.5628	0.6218	0.8127	0.063
Mof_C 	C 	0.52807	0.67767	0.8424	0.292
Mof_O 	O 	0.53558	0.67656	0.87998	-0.392
Mof_O 	O 	0.49503	0.67206	0.8274	-0.349
Mof_C 	C 	0.5561	0.6303	0.7678	-0.002
Mof_Cu	Cu	0.09148	0.1863	0.39316	0.922
Mof_O 	O 	0.14951	0.18566	0.39764	-0.482
Mof_C 	C 	0.16768	0.22011	0.38818	0.252
Mof_C 	C 	0.19311	0.23896	0.41486	-0.261
Mof_H 	H 	0.1981	0.2275	0.4399	0.12
Mof_C 	C 	0.21089	0.27435	0.40453	0.113
Mof_H 	H 	0.2281	0.2871	0.4226	-0.02
Mof_C 	C 	0.20362	0.29134	0.36764	-0.162
Mof_H 	H 	0.2159	0.3156	0.3606	0.075
Mof_C 	C 	0.1782	0.27249	0.34108	0.051
Mof_H 	H 	0.1733	0.2841	0.3161	0.014
Mof_C 	C 	0.15999	0.237	0.35074	-0.122
Mof_C 	C 	0.1334	0.21529	0.32181	-0.014
Mof_H 	H 	0.1315	0.2306	0.297	0.038
Mof_H 	H 	0.1452	0.1893	0.3154	0.029
Mof_N 	N 	0.09272	0.20924	0.33854	-0.288
Mof_H 	H 	0.0825	0.2309	0.3414	0.162
Mof_C 	C 	0.0639	0.18494	0.31505	-0.007
Mof_C 	C 	0.05232	0.20372	0.27492	-0.106
Mof_H 	H 	0.0265	0.2172	0.277	0.063
Mof_H 	H 	0.0724	0.2233	0.2666	0.061
Mof_C 	C 	0.0501	0.1702	0.2454	-0.081
Mof_H 	H 	0.054	0.1797	0.218	0.042
Mof_H 	H 	0.0246	0.156	0.2472	0.055
Mof_C 	C 	0.0854	0.1434	0.2594	-0.058
Mof_H 	H 	0.0832	0.1165	0.2483	0.035
Mof_H 	H 	0.111	0.1549	0.2514	0.039
Mof_C 	C 	0.08107	0.14297	0.30429	-0.128
Mof_H 	H 	0.107	0.1388	0.3172	0.045
Mof_H 	H 	0.0628	0.1218	0.3127	0.063
Mof_C 	C 	0.02807	0.17767	0.3424	0.292
Mof_O 	O 	0.03558	0.17656	0.37998	-0.392
Mof_O 	O 	0.99503	0.17206	0.3274	-0.349
Mof_C 	C 	0.0561	0.1303	0.2678	-0.002
Mof_Cu	Cu	0.40852	0.1863	0.60684	0.922
Mof_O 	O 	0.35049	0.18566	0.60236	-0.482
Mof_C 	C 	0.33232	0.22011	0.61182	0.252
Mof_C 	C 	0.30689	0.23896	0.58514	-0.261
Mof_H 	H 	0.3019	0.2275	0.5601	0.12
Mof_C 	C 	0.28911	0.27435	0.59547	0.113
Mof_H 	H 	0.2719	0.2871	0.5774	-0.02
Mof_C 	C 	0.29638	0.29134	0.63236	-0.162
Mof_H 	H 	0.2841	0.3156	0.6394	0.075
Mof_C 	C 	0.3218	0.27249	0.65892	0.051
Mof_H 	H 	0.3267	0.2841	0.6839	0.014
Mof_C 	C 	0.34001	0.237	0.64926	-0.122
Mof_C 	C 	0.3666	0.21529	0.67819	-0.014
Mof_H 	H 	0.3685	0.2306	0.703	0.038
Mof_H 	H 	0.3548	0.1893	0.6846	0.029
Mof_N 	N 	0.40728	0.20924	0.66146	-0.288
Mof_H 	H 	0.4175	0.2309	0.6586	0.162
Mof_C 	C 	0.4361	0.18494	0.68495	-0.007
Mof_C 	C 	0.44768	0.20372	0.72508	-0.106
Mof_H 	H 	0.4735	0.2172	0.723	0.063
Mof_H 	H 	0.4276	0.2233	0.7334	0.061
Mof_C 	C 	0.4499	0.1702	0.7546	-0.081
Mof_H 	H 	0.446	0.1797	0.782	0.042
Mof_H 	H 	0.4754	0.156	0.7528	0.055
Mof_C 	C 	0.4146	0.1434	0.7406	-0.058
Mof_H 	H 	0.4168	0.1165	0.7517	0.035
Mof_H 	H 	0.389	0.1549	0.7486	0.039
Mof_C 	C 	0.41893	0.14297	0.69571	-0.128
Mof_H 	H 	0.393	0.1388	0.6828	0.045
Mof_H 	H 	0.4372	0.1218	0.6873	0.063
Mof_C 	C 	0.47193	0.17767	0.6576	0.292
Mof_O 	O 	0.46442	0.17656	0.62002	-0.392
Mof_O 	O 	0.50497	0.17206	0.6726	-0.349
Mof_C 	C 	0.4439	0.1303	0.7322	-0.002
Mof_Cu	Cu	0.90852	0.6863	0.10684	0.922
Mof_O 	O 	0.85049	0.68566	0.10236	-0.482
Mof_C 	C 	0.83232	0.72011	0.11182	0.252
Mof_C 	C 	0.80689	0.73896	0.08514	-0.261
Mof_H 	H 	0.8019	0.7275	0.0601	0.12
Mof_C 	C 	0.78911	0.77435	0.09547	0.113
Mof_H 	H 	0.7719	0.7871	0.0774	-0.02
Mof_C 	C 	0.79638	0.79134	0.13236	-0.162
Mof_H 	H 	0.7841	0.8156	0.1394	0.075
Mof_C 	C 	0.8218	0.77249	0.15892	0.051
Mof_H 	H 	0.8267	0.7841	0.1839	0.014
Mof_C 	C 	0.84001	0.737	0.14926	-0.122
Mof_C 	C 	0.8666	0.71529	0.17819	-0.014
Mof_H 	H 	0.8685	0.7306	0.203	0.038
Mof_H 	H 	0.8548	0.6893	0.1846	0.029
Mof_N 	N 	0.90728	0.70924	0.16146	-0.288
Mof_H 	H 	0.9175	0.7309	0.1586	0.162
Mof_C 	C 	0.9361	0.68494	0.18495	-0.007
Mof_C 	C 	0.94768	0.70372	0.22508	-0.106
Mof_H 	H 	0.9735	0.7172	0.223	0.063
Mof_H 	H 	0.9276	0.7233	0.2334	0.061
Mof_C 	C 	0.9499	0.6702	0.2546	-0.081
Mof_H 	H 	0.946	0.6797	0.282	0.042
Mof_H 	H 	0.9754	0.656	0.2528	0.055
Mof_C 	C 	0.9146	0.6434	0.2406	-0.058
Mof_H 	H 	0.9168	0.6165	0.2517	0.035
Mof_H 	H 	0.889	0.6549	0.2486	0.039
Mof_C 	C 	0.91893	0.64297	0.19571	-0.128
Mof_H 	H 	0.893	0.6388	0.1828	0.045
Mof_H 	H 	0.9372	0.6218	0.1873	0.063
Mof_C 	C 	0.97193	0.67767	0.1576	0.292
Mof_O 	O 	0.96442	0.67656	0.12002	-0.392
Mof_O 	O 	0.00497	0.67206	0.1726	-0.349
Mof_C 	C 	0.9439	0.6303	0.2322	-0.002
Mof_Cu	Cu	0.09148	0.8137	0.10684	0.922
Mof_O 	O 	0.14951	0.81434	0.10236	-0.482
Mof_C 	C 	0.16768	0.77989	0.11182	0.252
Mof_C 	C 	0.19311	0.76104	0.08514	-0.261
Mof_H 	H 	0.1981	0.7725	0.0601	0.12
Mof_C 	C 	0.21089	0.72565	0.09547	0.113
Mof_H 	H 	0.2281	0.7129	0.0774	-0.02
Mof_C 	C 	0.20362	0.70866	0.13236	-0.162
Mof_H 	H 	0.2159	0.6844	0.1394	0.075
Mof_C 	C 	0.1782	0.72751	0.15892	0.051
Mof_H 	H 	0.1733	0.7159	0.1839	0.014
Mof_C 	C 	0.15999	0.763	0.14926	-0.122
Mof_C 	C 	0.1334	0.78471	0.17819	-0.014
Mof_H 	H 	0.1315	0.7694	0.203	0.038
Mof_H 	H 	0.1452	0.8107	0.1846	0.029
Mof_N 	N 	0.09272	0.79076	0.16146	-0.288
Mof_H 	H 	0.0825	0.7691	0.1586	0.162
Mof_C 	C 	0.0639	0.81506	0.18495	-0.007
Mof_C 	C 	0.05232	0.79628	0.22508	-0.106
Mof_H 	H 	0.0265	0.7828	0.223	0.063
Mof_H 	H 	0.0724	0.7767	0.2334	0.061
Mof_C 	C 	0.0501	0.8298	0.2546	-0.081
Mof_H 	H 	0.054	0.8203	0.282	0.042
Mof_H 	H 	0.0246	0.844	0.2528	0.055
Mof_C 	C 	0.0854	0.8566	0.2406	-0.058
Mof_H 	H 	0.0832	0.8835	0.2517	0.035
Mof_H 	H 	0.111	0.8451	0.2486	0.039
Mof_C 	C 	0.08107	0.85703	0.19571	-0.128
Mof_H 	H 	0.107	0.8612	0.1828	0.045
Mof_H 	H 	0.0628	0.8782	0.1873	0.063
Mof_C 	C 	0.02807	0.82233	0.1576	0.292
Mof_O 	O 	0.03558	0.82344	0.12002	-0.392
Mof_O 	O 	0.99503	0.82794	0.1726	-0.349
Mof_C 	C 	0.0561	0.8697	0.2322	-0.002
Mof_Cu	Cu	0.59148	0.3137	0.60684	0.922
Mof_O 	O 	0.64951	0.31434	0.60236	-0.482
Mof_C 	C 	0.66768	0.27989	0.61182	0.252
Mof_C 	C 	0.69311	0.26104	0.58514	-0.261
Mof_H 	H 	0.6981	0.2725	0.5601	0.12
Mof_C 	C 	0.71089	0.22565	0.59547	0.113
Mof_H 	H 	0.7281	0.2129	0.5774	-0.02
Mof_C 	C 	0.70362	0.20866	0.63236	-0.162
Mof_H 	H 	0.7159	0.1844	0.6394	0.075
Mof_C 	C 	0.6782	0.22751	0.65892	0.051
Mof_H 	H 	0.6733	0.2159	0.6839	0.014
Mof_C 	C 	0.65999	0.263	0.64926	-0.122
Mof_C 	C 	0.6334	0.28471	0.67819	-0.014
Mof_H 	H 	0.6315	0.2694	0.703	0.038
Mof_H 	H 	0.6452	0.3107	0.6846	0.029
Mof_N 	N 	0.59272	0.29076	0.66146	-0.288
Mof_H 	H 	0.5825	0.2691	0.6586	0.162
Mof_C 	C 	0.5639	0.31506	0.68495	-0.007
Mof_C 	C 	0.55232	0.29628	0.72508	-0.106
Mof_H 	H 	0.5265	0.2828	0.723	0.063
Mof_H 	H 	0.5724	0.2767	0.7334	0.061
Mof_C 	C 	0.5501	0.3298	0.7546	-0.081
Mof_H 	H 	0.554	0.3203	0.782	0.042
Mof_H 	H 	0.5246	0.344	0.7528	0.055
Mof_C 	C 	0.5854	0.3566	0.7406	-0.058
Mof_H 	H 	0.5832	0.3835	0.7517	0.035
Mof_H 	H 	0.611	0.3451	0.7486	0.039
Mof_C 	C 	0.58107	0.35703	0.69571	-0.128
Mof_H 	H 	0.607	0.3612	0.6828	0.045
Mof_H 	H 	0.5628	0.3782	0.6873	0.063
Mof_C 	C 	0.52807	0.32233	0.6576	0.292
Mof_O 	O 	0.53558	0.32344	0.62002	-0.392
Mof_O 	O 	0.49503	0.32794	0.6726	-0.349
Mof_C 	C 	0.5561	0.3697	0.7322	-0.002
Mof_Cu	Cu	0.8137	0.10684	0.09148	0.922
Mof_O 	O 	0.81434	0.10236	0.14951	-0.482
Mof_C 	C 	0.77989	0.11182	0.16768	0.252
Mof_C 	C 	0.76104	0.08514	0.19311	-0.261
Mof_H 	H 	0.7725	0.0601	0.1981	0.12
Mof_C 	C 	0.72565	0.09547	0.21089	0.113
Mof_H 	H 	0.7129	0.0774	0.2281	-0.02
Mof_C 	C 	0.70866	0.13236	0.20362	-0.162
Mof_H 	H 	0.6844	0.1394	0.2159	0.075
Mof_C 	C 	0.72751	0.15892	0.1782	0.051
Mof_H 	H 	0.7159	0.1839	0.1733	0.014
Mof_C 	C 	0.763	0.14926	0.15999	-0.122
Mof_C 	C 	0.78471	0.17819	0.1334	-0.014
Mof_H 	H 	0.7694	0.203	0.1315	0.038
Mof_H 	H 	0.8107	0.1846	0.1452	0.029
Mof_N 	N 	0.79076	0.16146	0.09272	-0.288
Mof_H 	H 	0.7691	0.1586	0.0825	0.162
Mof_C 	C 	0.81506	0.18495	0.0639	-0.007
Mof_C 	C 	0.79628	0.22508	0.05232	-0.106
Mof_H 	H 	0.7828	0.223	0.0265	0.063
Mof_H 	H 	0.7767	0.2334	0.0724	0.061
Mof_C 	C 	0.8298	0.2546	0.0501	-0.081
Mof_H 	H 	0.8203	0.282	0.054	0.042
Mof_H 	H 	0.844	0.2528	0.0246	0.055
Mof_C 	C 	0.8566	0.2406	0.0854	-0.058
Mof_H 	H 	0.8835	0.2517	0.0832	0.035
Mof_H 	H 	0.8451	0.2486	0.111	0.039
Mof_C 	C 	0.85703	0.19571	0.08107	-0.128
Mof_H 	H 	0.8612	0.1828	0.107	0.045
Mof_H 	H 	0.8782	0.1873	0.0628	0.063
Mof_C 	C 	0.82233	0.1576	0.02807	0.292
Mof_O 	O 	0.82344	0.12002	0.03558	-0.392
Mof_O 	O 	0.82794	0.1726	0.99503	-0.349
Mof_C 	C 	0.8697	0.2322	0.0561	-0.002
Mof_Cu	Cu	0.3137	0.60684	0.59148	0.922
Mof_O 	O 	0.31434	0.60236	0.64951	-0.482
Mof_C 	C 	0.27989	0.61182	0.66768	0.252
Mof_C 	C 	0.26104	0.58514	0.69311	-0.261
Mof_H 	H 	0.2725	0.5601	0.6981	0.12
Mof_C 	C 	0.22565	0.59547	0.71089	0.113
Mof_H 	H 	0.2129	0.5774	0.7281	-0.02
Mof_C 	C 	0.20866	0.63236	0.70362	-0.162
Mof_H 	H 	0.1844	0.6394	0.7159	0.075
Mof_C 	C 	0.22751	0.65892	0.6782	0.051
Mof_H 	H 	0.2159	0.6839	0.6733	0.014
Mof_C 	C 	0.263	0.64926	0.65999	-0.122
Mof_C 	C 	0.28471	0.67819	0.6334	-0.014
Mof_H 	H 	0.2694	0.703	0.6315	0.038
Mof_H 	H 	0.3107	0.6846	0.6452	0.029
Mof_N 	N 	0.29076	0.66146	0.59272	-0.288
Mof_H 	H 	0.2691	0.6586	0.5825	0.162
Mof_C 	C 	0.31506	0.68495	0.5639	-0.007
Mof_C 	C 	0.29628	0.72508	0.55232	-0.106
Mof_H 	H 	0.2828	0.723	0.5265	0.063
Mof_H 	H 	0.2767	0.7334	0.5724	0.061
Mof_C 	C 	0.3298	0.7546	0.5501	-0.081
Mof_H 	H 	0.3203	0.782	0.554	0.042
Mof_H 	H 	0.344	0.7528	0.5246	0.055
Mof_C 	C 	0.3566	0.7406	0.5854	-0.058
Mof_H 	H 	0.3835	0.7517	0.5832	0.035
Mof_H 	H 	0.3451	0.7486	0.611	0.039
Mof_C 	C 	0.35703	0.69571	0.58107	-0.128
Mof_H 	H 	0.3612	0.6828	0.607	0.045
Mof_H 	H 	0.3782	0.6873	0.5628	0.063
Mof_C 	C 	0.32233	0.6576	0.52807	0.292
Mof_O 	O 	0.32344	0.62002	0.53558	-0.392
Mof_O 	O 	0.32794	0.6726	0.49503	-0.349
Mof_C 	C 	0.3697	0.7322	0.5561	-0.002
Mof_Cu	Cu	0.1863	0.60684	0.40852	0.922
Mof_O 	O 	0.18566	0.60236	0.35049	-0.482
Mof_C 	C 	0.22011	0.61182	0.33232	0.252
Mof_C 	C 	0.23896	0.58514	0.30689	-0.261
Mof_H 	H 	0.2275	0.5601	0.3019	0.12
Mof_C 	C 	0.27435	0.59547	0.28911	0.113
Mof_H 	H 	0.2871	0.5774	0.2719	-0.02
Mof_C 	C 	0.29134	0.63236	0.29638	-0.162
Mof_H 	H 	0.3156	0.6394	0.2841	0.075
Mof_C 	C 	0.27249	0.65892	0.3218	0.051
Mof_H 	H 	0.2841	0.6839	0.3267	0.014
Mof_C 	C 	0.237	0.64926	0.34001	-0.122
Mof_C 	C 	0.21529	0.67819	0.3666	-0.014
Mof_H 	H 	0.2306	0.703	0.3685	0.038
Mof_H 	H 	0.1893	0.6846	0.3548	0.029
Mof_N 	N 	0.20924	0.66146	0.40728	-0.288
Mof_H 	H 	0.2309	0.6586	0.4175	0.162
Mof_C 	C 	0.18494	0.68495	0.4361	-0.007
Mof_C 	C 	0.20372	0.72508	0.44768	-0.106
Mof_H 	H 	0.2172	0.723	0.4735	0.063
Mof_H 	H 	0.2233	0.7334	0.4276	0.061
Mof_C 	C 	0.1702	0.7546	0.4499	-0.081
Mof_H 	H 	0.1797	0.782	0.446	0.042
Mof_H 	H 	0.156	0.7528	0.4754	0.055
Mof_C 	C 	0.1434	0.7406	0.4146	-0.058
Mof_H 	H 	0.1165	0.7517	0.4168	0.035
Mof_H 	H 	0.1549	0.7486	0.389	0.039
Mof_C 	C 	0.14297	0.69571	0.41893	-0.128
Mof_H 	H 	0.1388	0.6828	0.393	0.045
Mof_H 	H 	0.1218	0.6873	0.4372	0.063
Mof_C 	C 	0.17767	0.6576	0.47193	0.292
Mof_O 	O 	0.17656	0.62002	0.46442	-0.392
Mof_O 	O 	0.17206	0.6726	0.50497	-0.349
Mof_C 	C 	0.1303	0.7322	0.4439	-0.002
Mof_Cu	Cu	0.6863	0.10684	0.90852	0.922
Mof_O 	O 	0.68566	0.10236	0.85049	-0.482
Mof_C 	C 	0.72011	0.11182	0.83232	0.252
Mof_C 	C 	0.73896	0.08514	0.80689	-0.261
Mof_H 	H 	0.7275	0.0601	0.8019	0.12
Mof_C 	C 	0.77435	0.09547	0.78911	0.113
Mof_H 	H 	0.7871	0.0774	0.7719	-0.02
Mof_C 	C 	0.79134	0.13236	0.79638	-0.162
Mof_H 	H 	0.8156	0.1394	0.7841	0.075
Mof_C 	C 	0.77249	0.15892	0.8218	0.051
Mof_H 	H 	0.7841	0.1839	0.8267	0.014
Mof_C 	C 	0.737	0.14926	0.84001	-0.122
Mof_C 	C 	0.71529	0.17819	0.8666	-0.014
Mof_H 	H 	0.7306	0.203	0.8685	0.038
Mof_H 	H 	0.6893	0.1846	0.8548	0.029
Mof_N 	N 	0.70924	0.16146	0.90728	-0.288
Mof_H 	H 	0.7309	0.1586	0.9175	0.162
Mof_C 	C 	0.68494	0.18495	0.9361	-0.007
Mof_C 	C 	0.70372	0.22508	0.94768	-0.106
Mof_H 	H 	0.7172	0.223	0.9735	0.063
Mof_H 	H 	0.7233	0.2334	0.9276	0.061
Mof_C 	C 	0.6702	0.2546	0.9499	-0.081
Mof_H 	H 	0.6797	0.282	0.946	0.042
Mof_H 	H 	0.656	0.2528	0.9754	0.055
Mof_C 	C 	0.6434	0.2406	0.9146	-0.058
Mof_H 	H 	0.6165	0.2517	0.9168	0.035
Mof_H 	H 	0.6549	0.2486	0.889	0.039
Mof_C 	C 	0.64297	0.19571	0.91893	-0.128
Mof_H 	H 	0.6388	0.1828	0.893	0.045
Mof_H 	H 	0.6218	0.1873	0.9372	0.063
Mof_C 	C 	0.67767	0.1576	0.97193	0.292
Mof_O 	O 	0.67656	0.12002	0.96442	-0.392
Mof_O 	O 	0.67206	0.1726	0.00497	-0.349
Mof_C 	C 	0.6303	0.2322	0.9439	-0.002
Mof_Cu	Cu	0.6863	0.89316	0.59148	0.922
Mof_O 	O 	0.68566	0.89764	0.64951	-0.482
Mof_C 	C 	0.72011	0.88818	0.66768	0.252
Mof_C 	C 	0.73896	0.91486	0.69311	-0.261
Mof_H 	H 	0.7275	0.9399	0.6981	0.12
Mof_C 	C 	0.77435	0.90453	0.71089	0.113
Mof_H 	H 	0.7871	0.9226	0.7281	-0.02
Mof_C 	C 	0.79134	0.86764	0.70362	-0.162
Mof_H 	H 	0.8156	0.8606	0.7159	0.075
Mof_C 	C 	0.77249	0.84108	0.6782	0.051
Mof_H 	H 	0.7841	0.8161	0.6733	0.014
Mof_C 	C 	0.737	0.85074	0.65999	-0.122
Mof_C 	C 	0.71529	0.82181	0.6334	-0.014
Mof_H 	H 	0.7306	0.797	0.6315	0.038
Mof_H 	H 	0.6893	0.8154	0.6452	0.029
Mof_N 	N 	0.70924	0.83854	0.59272	-0.288
Mof_H 	H 	0.7309	0.8414	0.5825	0.162
Mof_C 	C 	0.68494	0.81505	0.5639	-0.007
Mof_C 	C 	0.70372	0.77492	0.55232	-0.106
Mof_H 	H 	0.7172	0.777	0.5265	0.063
Mof_H 	H 	0.7233	0.7666	0.5724	0.061
Mof_C 	C 	0.6702	0.7454	0.5501	-0.081
Mof_H 	H 	0.6797	0.718	0.554	0.042
Mof_H 	H 	0.656	0.7472	0.5246	0.055
Mof_C 	C 	0.6434	0.7594	0.5854	-0.058
Mof_H 	H 	0.6165	0.7483	0.5832	0.035
Mof_H 	H 	0.6549	0.7514	0.611	0.039
Mof_C 	C 	0.64297	0.80429	0.58107	-0.128
Mof_H 	H 	0.6388	0.8172	0.607	0.045
Mof_H 	H 	0.6218	0.8127	0.5628	0.063
Mof_C 	C 	0.67767	0.8424	0.52807	0.292
Mof_O 	O 	0.67656	0.87998	0.53558	-0.392
Mof_O 	O 	0.67206	0.8274	0.49503	-0.349
Mof_C 	C 	0.6303	0.7678	0.5561	-0.002
Mof_Cu	Cu	0.1863	0.39316	0.09148	0.922
Mof_O 	O 	0.18566	0.39764	0.14951	-0.482
Mof_C 	C 	0.22011	0.38818	0.16768	0.252
Mof_C 	C 	0.23896	0.41486	0.19311	-0.261
Mof_H 	H 	0.2275	0.4399	0.1981	0.12
Mof_C 	C 	0.27435	0.40453	0.21089	0.113
Mof_H 	H 	0.2871	0.4226	0.2281	-0.02
Mof_C 	C 	0.29134	0.36764	0.20362	-0.162
Mof_H 	H 	0.3156	0.3606	0.2159	0.075
Mof_C 	C 	0.27249	0.34108	0.1782	0.051
Mof_H 	H 	0.2841	0.3161	0.1733	0.014
Mof_C 	C 	0.237	0.35074	0.15999	-0.122
Mof_C 	C 	0.21529	0.32181	0.1334	-0.014
Mof_H 	H 	0.2306	0.297	0.1315	0.038
Mof_H 	H 	0.1893	0.3154	0.1452	0.029
Mof_N 	N 	0.20924	0.33854	0.09272	-0.288
Mof_H 	H 	0.2309	0.3414	0.0825	0.162
Mof_C 	C 	0.18494	0.31505	0.0639	-0.007
Mof_C 	C 	0.20372	0.27492	0.05232	-0.106
Mof_H 	H 	0.2172	0.277	0.0265	0.063
Mof_H 	H 	0.2233	0.2666	0.0724	0.061
Mof_C 	C 	0.1702	0.2454	0.0501	-0.081
Mof_H 	H 	0.1797	0.218	0.054	0.042
Mof_H 	H 	0.156	0.2472	0.0246	0.055
Mof_C 	C 	0.1434	0.2594	0.0854	-0.058
Mof_H 	H 	0.1165	0.2483	0.0832	0.035
Mof_H 	H 	0.1549	0.2514	0.111	0.039
Mof_C 	C 	0.14297	0.30429	0.08107	-0.128
Mof_H 	H 	0.1388	0.3172	0.107	0.045
Mof_H 	H 	0.1218	0.3127	0.0628	0.063
Mof_C 	C 	0.17767	0.3424	0.02807	0.292
Mof_O 	O 	0.17656	0.37998	0.03558	-0.392
Mof_O 	O 	0.17206	0.3274	0.99503	-0.349
Mof_C 	C 	0.1303	0.2678	0.0561	-0.002
Mof_Cu	Cu	0.3137	0.39316	0.90852	0.922
Mof_O 	O 	0.31434	0.39764	0.85049	-0.482
Mof_C 	C 	0.27989	0.38818	0.83232	0.252
Mof_C 	C 	0.26104	0.41486	0.80689	-0.261
Mof_H 	H 	0.2725	0.4399	0.8019	0.12
Mof_C 	C 	0.22565	0.40453	0.78911	0.113
Mof_H 	H 	0.2129	0.4226	0.7719	-0.02
Mof_C 	C 	0.20866	0.36764	0.79638	-0.162
Mof_H 	H 	0.1844	0.3606	0.7841	0.075
Mof_C 	C 	0.22751	0.34108	0.8218	0.051
Mof_H 	H 	0.2159	0.3161	0.8267	0.014
Mof_C 	C 	0.263	0.35074	0.84001	-0.122
Mof_C 	C 	0.28471	0.32181	0.8666	-0.014
Mof_H 	H 	0.2694	0.297	0.8685	0.038
Mof_H 	H 	0.3107	0.3154	0.8548	0.029
Mof_N 	N 	0.29076	0.33854	0.90728	-0.288
Mof_H 	H 	0.2691	0.3414	0.9175	0.162
Mof_C 	C 	0.31506	0.31505	0.9361	-0.007
Mof_C 	C 	0.29628	0.27492	0.94768	-0.106
Mof_H 	H 	0.2828	0.277	0.9735	0.063
Mof_H 	H 	0.2767	0.2666	0.9276	0.061
Mof_C 	C 	0.3298	0.2454	0.9499	-0.081
Mof_H 	H 	0.3203	0.218	0.946	0.042
Mof_H 	H 	0.344	0.2472	0.9754	0.055
Mof_C 	C 	0.3566	0.2594	0.9146	-0.058
Mof_H 	H 	0.3835	0.2483	0.9168	0.035
Mof_H 	H 	0.3451	0.2514	0.889	0.039
Mof_C 	C 	0.35703	0.30429	0.91893	-0.128
Mof_H 	H 	0.3612	0.3172	0.893	0.045
Mof_H 	H 	0.3782	0.3127	0.9372	0.063
Mof_C 	C 	0.32233	0.3424	0.97193	0.292
Mof_O 	O 	0.32344	0.37998	0.96442	-0.392
Mof_O 	O 	0.32794	0.3274	0.00497	-0.349
Mof_C 	C 	0.3697	0.2678	0.9439	-0.002
Mof_Cu	Cu	0.8137	0.89316	0.40852	0.922
Mof_O 	O 	0.81434	0.89764	0.35049	-0.482
Mof_C 	C 	0.77989	0.88818	0.33232	0.252
Mof_C 	C 	0.76104	0.91486	0.30689	-0.261
Mof_H 	H 	0.7725	0.9399	0.3019	0.12
Mof_C 	C 	0.72565	0.90453	0.28911	0.113
Mof_H 	H 	0.7129	0.9226	0.2719	-0.02
Mof_C 	C 	0.70866	0.86764	0.29638	-0.162
Mof_H 	H 	0.6844	0.8606	0.2841	0.075
Mof_C 	C 	0.72751	0.84108	0.3218	0.051
Mof_H 	H 	0.7159	0.8161	0.3267	0.014
Mof_C 	C 	0.763	0.85074	0.34001	-0.122
Mof_C 	C 	0.78471	0.82181	0.3666	-0.014
Mof_H 	H 	0.7694	0.797	0.3685	0.038
Mof_H 	H 	0.8107	0.8154	0.3548	0.029
Mof_N 	N 	0.79076	0.83854	0.40728	-0.288
Mof_H 	H 	0.7691	0.8414	0.4175	0.162
Mof_C 	C 	0.81506	0.81505	0.4361	-0.007
Mof_C 	C 	0.79628	0.77492	0.44768	-0.106
Mof_H 	H 	0.7828	0.777	0.4735	0.063
Mof_H 	H 	0.7767	0.7666	0.4276	0.061
Mof_C 	C 	0.8298	0.7454	0.4499	-0.081
Mof_H 	H 	0.8203	0.718	0.446	0.042
Mof_H 	H 	0.844	0.7472	0.4754	0.055
Mof_C 	C 	0.8566	0.7594	0.4146	-0.058
Mof_H 	H 	0.8835	0.7483	0.4168	0.035
Mof_H 	H 	0.8451	0.7514	0.389	0.039
Mof_C 	C 	0.85703	0.80429	0.41893	-0.128
Mof_H 	H 	0.8612	0.8172	0.393	0.045
Mof_H 	H 	0.8782	0.8127	0.4372	0.063
Mof_C 	C 	0.82233	0.8424	0.47193	0.292
Mof_O 	O 	0.82344	0.87998	0.46442	-0.392
Mof_O 	O 	0.82794	0.8274	0.50497	-0.349
Mof_C 	C 	0.8697	0.7678	0.4439	-0.002
Mof_Cu	Cu	0.60684	0.40852	0.1863	0.922
Mof_O 	O 	0.60236	0.35049	0.18566	-0.482
Mof_C 	C 	0.61182	0.33232	0.22011	0.252
Mof_C 	C 	0.58514	0.30689	0.23896	-0.261
Mof_H 	H 	0.5601	0.3019	0.2275	0.12
Mof_C 	C 	0.59547	0.28911	0.27435	0.113
Mof_H 	H 	0.5774	0.2719	0.2871	-0.02
Mof_C 	C 	0.63236	0.29638	0.29134	-0.162
Mof_H 	H 	0.6394	0.2841	0.3156	0.075
Mof_C 	C 	0.65892	0.3218	0.27249	0.051
Mof_H 	H 	0.6839	0.3267	0.2841	0.014
Mof_C 	C 	0.64926	0.34001	0.237	-0.122
Mof_C 	C 	0.67819	0.3666	0.21529	-0.014
Mof_H 	H 	0.703	0.3685	0.2306	0.038
Mof_H 	H 	0.6846	0.3548	0.1893	0.029
Mof_N 	N 	0.66146	0.40728	0.20924	-0.288
Mof_H 	H 	0.6586	0.4175	0.2309	0.162
Mof_C 	C 	0.68495	0.4361	0.18494	-0.007
Mof_C 	C 	0.72508	0.44768	0.20372	-0.106
Mof_H 	H 	0.723	0.4735	0.2172	0.063
Mof_H 	H 	0.7334	0.4276	0.2233	0.061
Mof_C 	C 	0.7546	0.4499	0.1702	-0.081
Mof_H 	H 	0.782	0.446	0.1797	0.042
Mof_H 	H 	0.7528	0.4754	0.156	0.055
Mof_C 	C 	0.7406	0.4146	0.1434	-0.058
Mof_H 	H 	0.7517	0.4168	0.1165	0.035
Mof_H 	H 	0.7486	0.389	0.1549	0.039
Mof_C 	C 	0.69571	0.41893	0.14297	-0.128
Mof_H 	H 	0.6828	0.393	0.1388	0.045
Mof_H 	H 	0.6873	0.4372	0.1218	0.063
Mof_C 	C 	0.6576	0.47193	0.17767	0.292
Mof_O 	O 	0.62002	0.46442	0.17656	-0.392
Mof_O 	O 	0.6726	0.50497	0.17206	-0.349
Mof_C 	C 	0.7322	0.4439	0.1303	-0.002
Mof_Cu	Cu	0.10684	0.90852	0.6863	0.922
Mof_O 	O 	0.10236	0.85049	0.68566	-0.482
Mof_C 	C 	0.11182	0.83232	0.72011	0.252
Mof_C 	C 	0.08514	0.80689	0.73896	-0.261
Mof_H 	H 	0.0601	0.8019	0.7275	0.12
Mof_C 	C 	0.09547	0.78911	0.77435	0.113
Mof_H 	H 	0.0774	0.7719	0.7871	-0.02
Mof_C 	C 	0.13236	0.79638	0.79134	-0.162
Mof_H 	H 	0.1394	0.7841	0.8156	0.075
Mof_C 	C 	0.15892	0.8218	0.77249	0.051
Mof_H 	H 	0.1839	0.8267	0.7841	0.014
Mof_C 	C 	0.14926	0.84001	0.737	-0.122
Mof_C 	C 	0.17819	0.8666	0.71529	-0.014
Mof_H 	H 	0.203	0.8685	0.7306	0.038
Mof_H 	H 	0.1846	0.8548	0.6893	0.029
Mof_N 	N 	0.16146	0.90728	0.70924	-0.288
Mof_H 	H 	0.1586	0.9175	0.7309	0.162
Mof_C 	C 	0.18495	0.9361	0.68494	-0.007
Mof_C 	C 	0.22508	0.94768	0.70372	-0.106
Mof_H 	H 	0.223	0.9735	0.7172	0.063
Mof_H 	H 	0.2334	0.9276	0.7233	0.061
Mof_C 	C 	0.2546	0.9499	0.6702	-0.081
Mof_H 	H 	0.282	0.946	0.6797	0.042
Mof_H 	H 	0.2528	0.9754	0.656	0.055
Mof_C 	C 	0.2406	0.9146	0.6434	-0.058
Mof_H 	H 	0.2517	0.9168	0.6165	0.035
Mof_H 	H 	0.2486	0.889	0.6549	0.039
Mof_C 	C 	0.19571	0.91893	0.64297	-0.128
Mof_H 	H 	0.1828	0.893	0.6388	0.045
Mof_H 	H 	0.1873	0.9372	0.6218	0.063
Mof_C 	C 	0.1576	0.97193	0.67767	0.292
Mof_O 	O 	0.12002	0.96442	0.67656	-0.392
Mof_O 	O 	0.1726	0.00497	0.67206	-0.349
Mof_C 	C 	0.2322	0.9439	0.6303	-0.002
Mof_Cu	Cu	0.10684	0.09148	0.8137	0.922
Mof_O 	O 	0.10236	0.14951	0.81434	-0.482
Mof_C 	C 	0.11182	0.16768	0.77989	0.252
Mof_C 	C 	0.08514	0.19311	0.76104	-0.261
Mof_H 	H 	0.0601	0.1981	0.7725	0.12
Mof_C 	C 	0.09547	0.21089	0.72565	0.113
Mof_H 	H 	0.0774	0.2281	0.7129	-0.02
Mof_C 	C 	0.13236	0.20362	0.70866	-0.162
Mof_H 	H 	0.1394	0.2159	0.6844	0.075
Mof_C 	C 	0.15892	0.1782	0.72751	0.051
Mof_H 	H 	0.1839	0.1733	0.7159	0.014
Mof_C 	C 	0.14926	0.15999	0.763	-0.122
Mof_C 	C 	0.17819	0.1334	0.78471	-0.014
Mof_H 	H 	0.203	0.1315	0.7694	0.038
Mof_H 	H 	0.1846	0.1452	0.8107	0.029
Mof_N 	N 	0.16146	0.09272	0.79076	-0.288
Mof_H 	H 	0.1586	0.0825	0.7691	0.162
Mof_C 	C 	0.18495	0.0639	0.81506	-0.007
Mof_C 	C 	0.22508	0.05232	0.79628	-0.106
Mof_H 	H 	0.223	0.0265	0.7828	0.063
Mof_H 	H 	0.2334	0.0724	0.7767	0.061
Mof_C 	C 	0.2546	0.0501	0.8298	-0.081
Mof_H 	H 	0.282	0.054	0.8203	0.042
Mof_H 	H 	0.2528	0.0246	0.844	0.055
Mof_C 	C 	0.2406	0.0854	0.8566	-0.058
Mof_H 	H 	0.2517	0.0832	0.8835	0.035
Mof_H 	H 	0.2486	0.111	0.8451	0.039
Mof_C 	C 	0.19571	0.08107	0.85703	-0.128
Mof_H 	H 	0.1828	0.107	0.8612	0.045
Mof_H 	H 	0.1873	0.0628	0.8782	0.063
Mof_C 	C 	0.1576	0.02807	0.82233	0.292
Mof_O 	O 	0.12002	0.03558	0.82344	-0.392
Mof_O 	O 	0.1726	0.99503	0.82794	-0.349
Mof_C 	C 	0.2322	0.0561	0.8697	-0.002
Mof_Cu	Cu	0.60684	0.59148	0.3137	0.922
Mof_O 	O 	0.60236	0.64951	0.31434	-0.482
Mof_C 	C 	0.61182	0.66768	0.27989	0.252
Mof_C 	C 	0.58514	0.69311	0.26104	-0.261
Mof_H 	H 	0.5601	0.6981	0.2725	0.12
Mof_C 	C 	0.59547	0.71089	0.22565	0.113
Mof_H 	H 	0.5774	0.7281	0.2129	-0.02
Mof_C 	C 	0.63236	0.70362	0.20866	-0.162
Mof_H 	H 	0.6394	0.7159	0.1844	0.075
Mof_C 	C 	0.65892	0.6782	0.22751	0.051
Mof_H 	H 	0.6839	0.6733	0.2159	0.014
Mof_C 	C 	0.64926	0.65999	0.263	-0.122
Mof_C 	C 	0.67819	0.6334	0.28471	-0.014
Mof_H 	H 	0.703	0.6315	0.2694	0.038
Mof_H 	H 	0.6846	0.6452	0.3107	0.029
Mof_N 	N 	0.66146	0.59272	0.29076	-0.288
Mof_H 	H 	0.6586	0.5825	0.2691	0.162
Mof_C 	C 	0.68495	0.5639	0.31506	-0.007
Mof_C 	C 	0.72508	0.55232	0.29628	-0.106
Mof_H 	H 	0.723	0.5265	0.2828	0.063
Mof_H 	H 	0.7334	0.5724	0.2767	0.061
Mof_C 	C 	0.7546	0.5501	0.3298	-0.081
Mof_H 	H 	0.782	0.554	0.3203	0.042
Mof_H 	H 	0.7528	0.5246	0.344	0.055
Mof_C 	C 	0.7406	0.5854	0.3566	-0.058
Mof_H 	H 	0.7517	0.5832	0.3835	0.035
Mof_H 	H 	0.7486	0.611	0.3451	0.039
Mof_C 	C 	0.69571	0.58107	0.35703	-0.128
Mof_H 	H 	0.6828	0.607	0.3612	0.045
Mof_H 	H 	0.6873	0.5628	0.3782	0.063
Mof_C 	C 	0.6576	0.52807	0.32233	0.292
Mof_O 	O 	0.62002	0.53558	0.32344	-0.392
Mof_O 	O 	0.6726	0.49503	0.32794	-0.349
Mof_C 	C 	0.7322	0.5561	0.3697	-0.002
Mof_Cu	Cu	0.39316	0.90852	0.3137	0.922
Mof_O 	O 	0.39764	0.85049	0.31434	-0.482
Mof_C 	C 	0.38818	0.83232	0.27989	0.252
Mof_C 	C 	0.41486	0.80689	0.26104	-0.261
Mof_H 	H 	0.4399	0.8019	0.2725	0.12
Mof_C 	C 	0.40453	0.78911	0.22565	0.113
Mof_H 	H 	0.4226	0.7719	0.2129	-0.02
Mof_C 	C 	0.36764	0.79638	0.20866	-0.162
Mof_H 	H 	0.3606	0.7841	0.1844	0.075
Mof_C 	C 	0.34108	0.8218	0.22751	0.051
Mof_H 	H 	0.3161	0.8267	0.2159	0.014
Mof_C 	C 	0.35074	0.84001	0.263	-0.122
Mof_C 	C 	0.32181	0.8666	0.28471	-0.014
Mof_H 	H 	0.297	0.8685	0.2694	0.038
Mof_H 	H 	0.3154	0.8548	0.3107	0.029
Mof_N 	N 	0.33854	0.90728	0.29076	-0.288
Mof_H 	H 	0.3414	0.9175	0.2691	0.162
Mof_C 	C 	0.31505	0.9361	0.31506	-0.007
Mof_C 	C 	0.27492	0.94768	0.29628	-0.106
Mof_H 	H 	0.277	0.9735	0.2828	0.063
Mof_H 	H 	0.2666	0.9276	0.2767	0.061
Mof_C 	C 	0.2454	0.9499	0.3298	-0.081
Mof_H 	H 	0.218	0.946	0.3203	0.042
Mof_H 	H 	0.2472	0.9754	0.344	0.055
Mof_C 	C 	0.2594	0.9146	0.3566	-0.058
Mof_H 	H 	0.2483	0.9168	0.3835	0.035
Mof_H 	H 	0.2514	0.889	0.3451	0.039
Mof_C 	C 	0.30429	0.91893	0.35703	-0.128
Mof_H 	H 	0.3172	0.893	0.3612	0.045
Mof_H 	H 	0.3127	0.9372	0.3782	0.063
Mof_C 	C 	0.3424	0.97193	0.32233	0.292
Mof_O 	O 	0.37998	0.96442	0.32344	-0.392
Mof_O 	O 	0.3274	0.00497	0.32794	-0.349
Mof_C 	C 	0.2678	0.9439	0.3697	-0.002
Mof_Cu	Cu	0.89316	0.40852	0.8137	0.922
Mof_O 	O 	0.89764	0.35049	0.81434	-0.482
Mof_C 	C 	0.88818	0.33232	0.77989	0.252
Mof_C 	C 	0.91486	0.30689	0.76104	-0.261
Mof_H 	H 	0.9399	0.3019	0.7725	0.12
Mof_C 	C 	0.90453	0.28911	0.72565	0.113
Mof_H 	H 	0.9226	0.2719	0.7129	-0.02
Mof_C 	C 	0.86764	0.29638	0.70866	-0.162
Mof_H 	H 	0.8606	0.2841	0.6844	0.075
Mof_C 	C 	0.84108	0.3218	0.72751	0.051
Mof_H 	H 	0.8161	0.3267	0.7159	0.014
Mof_C 	C 	0.85074	0.34001	0.763	-0.122
Mof_C 	C 	0.82181	0.3666	0.78471	-0.014
Mof_H 	H 	0.797	0.3685	0.7694	0.038
Mof_H 	H 	0.8154	0.3548	0.8107	0.029
Mof_N 	N 	0.83854	0.40728	0.79076	-0.288
Mof_H 	H 	0.8414	0.4175	0.7691	0.162
Mof_C 	C 	0.81505	0.4361	0.81506	-0.007
Mof_C 	C 	0.77492	0.44768	0.79628	-0.106
Mof_H 	H 	0.777	0.4735	0.7828	0.063
Mof_H 	H 	0.7666	0.4276	0.7767	0.061
Mof_C 	C 	0.7454	0.4499	0.8298	-0.081
Mof_H 	H 	0.718	0.446	0.8203	0.042
Mof_H 	H 	0.7472	0.4754	0.844	0.055
Mof_C 	C 	0.7594	0.4146	0.8566	-0.058
Mof_H 	H 	0.7483	0.4168	0.8835	0.035
Mof_H 	H 	0.7514	0.389	0.8451	0.039
Mof_C 	C 	0.80429	0.41893	0.85703	-0.128
Mof_H 	H 	0.8172	0.393	0.8612	0.045
Mof_H 	H 	0.8127	0.4372	0.8782	0.063
Mof_C 	C 	0.8424	0.47193	0.82233	0.292
Mof_O 	O 	0.87998	0.46442	0.82344	-0.392
Mof_O 	O 	0.8274	0.50497	0.82794	-0.349
Mof_C 	C 	0.7678	0.4439	0.8697	-0.002
Mof_Cu	Cu	0.89316	0.59148	0.6863	0.922
Mof_O 	O 	0.89764	0.64951	0.68566	-0.482
Mof_C 	C 	0.88818	0.66768	0.72011	0.252
Mof_C 	C 	0.91486	0.69311	0.73896	-0.261
Mof_H 	H 	0.9399	0.6981	0.7275	0.12
Mof_C 	C 	0.90453	0.71089	0.77435	0.113
Mof_H 	H 	0.9226	0.7281	0.7871	-0.02
Mof_C 	C 	0.86764	0.70362	0.79134	-0.162
Mof_H 	H 	0.8606	0.7159	0.8156	0.075
Mof_C 	C 	0.84108	0.6782	0.77249	0.051
Mof_H 	H 	0.8161	0.6733	0.7841	0.014
Mof_C 	C 	0.85074	0.65999	0.737	-0.122
Mof_C 	C 	0.82181	0.6334	0.71529	-0.014
Mof_H 	H 	0.797	0.6315	0.7306	0.038
Mof_H 	H 	0.8154	0.6452	0.6893	0.029
Mof_N 	N 	0.83854	0.59272	0.70924	-0.288
Mof_H 	H 	0.8414	0.5825	0.7309	0.162
Mof_C 	C 	0.81505	0.5639	0.68494	-0.007
Mof_C 	C 	0.77492	0.55232	0.70372	-0.106
Mof_H 	H 	0.777	0.5265	0.7172	0.063
Mof_H 	H 	0.7666	0.5724	0.7233	0.061
Mof_C 	C 	0.7454	0.5501	0.6702	-0.081
Mof_H 	H 	0.718	0.554	0.6797	0.042
Mof_H 	H 	0.7472	0.5246	0.656	0.055
Mof_C 	C 	0.7594	0.5854	0.6434	-0.058
Mof_H 	H 	0.7483	0.5832	0.6165	0.035
Mof_H 	H 	0.7514	0.611	0.6549	0.039
Mof_C 	C 	0.80429	0.58107	0.64297	-0.128
Mof_H 	H 	0.8172	0.607	0.6388	0.045
Mof_H 	H 	0.8127	0.5628	0.6218	0.063
Mof_C 	C 	0.8424	0.52807	0.67767	0.292
Mof_O 	O 	0.87998	0.53558	0.67656	-0.392
Mof_O 	O 	0.8274	0.49503	0.67206	-0.349
Mof_C 	C 	0.7678	0.5561	0.6303	-0.002
Mof_Cu	Cu	0.39316	0.09148	0.1863	0.922
Mof_O 	O 	0.39764	0.14951	0.18566	-0.482
Mof_C 	C 	0.38818	0.16768	0.22011	0.252
Mof_C 	C 	0.41486	0.19311	0.23896	-0.261
Mof_H 	H 	0.4399	0.1981	0.2275	0.12
Mof_C 	C 	0.40453	0.21089	0.27435	0.113
Mof_H 	H 	0.4226	0.2281	0.2871	-0.02
Mof_C 	C 	0.36764	0.20362	0.29134	-0.162
Mof_H 	H 	0.3606	0.2159	0.3156	0.075
Mof_C 	C 	0.34108	0.1782	0.27249	0.051
Mof_H 	H 	0.3161	0.1733	0.2841	0.014
Mof_C 	C 	0.35074	0.15999	0.237	-0.122
Mof_C 	C 	0.32181	0.1334	0.21529	-0.014
Mof_H 	H 	0.297	0.1315	0.2306	0.038
Mof_H 	H 	0.3154	0.1452	0.1893	0.029
Mof_N 	N 	0.33854	0.09272	0.20924	-0.288
Mof_H 	H 	0.3414	0.0825	0.2309	0.162
Mof_C 	C 	0.31505	0.0639	0.18494	-0.007
Mof_C 	C 	0.27492	0.05232	0.20372	-0.106
Mof_H 	H 	0.277	0.0265	0.2172	0.063
Mof_H 	H 	0.2666	0.0724	0.2233	0.061
Mof_C 	C 	0.2454	0.0501	0.1702	-0.081
Mof_H 	H 	0.218	0.054	0.1797	0.042
Mof_H 	H 	0.2472	0.0246	0.156	0.055
Mof_C 	C 	0.2594	0.0854	0.1434	-0.058
Mof_H 	H 	0.2483	0.0832	0.1165	0.035
Mof_H 	H 	0.2514	0.111	0.1549	0.039
Mof_C 	C 	0.30429	0.08107	0.14297	-0.128
Mof_H 	H 	0.3172	0.107	0.1388	0.045
Mof_H 	H 	0.3127	0.0628	0.1218	0.063
Mof_C 	C 	0.3424	0.02807	0.17767	0.292
Mof_O 	O 	0.37998	0.03558	0.17656	-0.392
Mof_O 	O 	0.3274	0.99503	0.17206	-0.349
Mof_C 	C 	0.2678	0.0561	0.1303	-0.002
Mof_Cu	Cu	0.9363	0.84148	0.14316	0.922
Mof_O 	O 	0.93566	0.89951	0.14764	-0.482
Mof_C 	C 	0.97011	0.91768	0.13818	0.252
Mof_C 	C 	0.98896	0.94311	0.16486	-0.261
Mof_H 	H 	0.9775	0.9481	0.1899	0.12
Mof_C 	C 	0.02435	0.96089	0.15453	0.113
Mof_H 	H 	0.0371	0.9781	0.1726	-0.02
Mof_C 	C 	0.04134	0.95362	0.11764	-0.162
Mof_H 	H 	0.0656	0.9659	0.1106	0.075
Mof_C 	C 	0.02249	0.9282	0.09108	0.051
Mof_H 	H 	0.0341	0.9233	0.0661	0.014
Mof_C 	C 	0.987	0.90999	0.10074	-0.122
Mof_C 	C 	0.96529	0.8834	0.07181	-0.013
Mof_H 	H 	0.9806	0.8815	0.047	0.037
Mof_H 	H 	0.9393	0.8952	0.0654	0.029
Mof_N 	N 	0.95924	0.84272	0.08854	-0.288
Mof_H 	H 	0.9809	0.8325	0.0914	0.162
Mof_C 	C 	0.93494	0.8139	0.06505	-0.007
Mof_C 	C 	0.95372	0.80232	0.02492	-0.106
Mof_H 	H 	0.9672	0.7765	0.027	0.063
Mof_H 	H 	0.9733	0.8224	0.0166	0.061
Mof_C 	C 	0.9202	0.8001	0.9954	-0.082
Mof_H 	H 	0.9297	0.804	0.968	0.042
Mof_H 	H 	0.906	0.7746	0.9972	0.055
Mof_C 	C 	0.8934	0.8354	0.0094	-0.057
Mof_H 	H 	0.8665	0.8332	0.9983	0.035
Mof_H 	H 	0.9049	0.861	0.0014	0.038
Mof_C 	C 	0.89297	0.83107	0.05429	-0.128
Mof_H 	H 	0.8888	0.857	0.0672	0.045
Mof_H 	H 	0.8718	0.8128	0.0627	0.063
Mof_C 	C 	0.92767	0.77807	0.0924	0.292
Mof_O 	O 	0.92656	0.78558	0.12998	-0.392
Mof_O 	O 	0.92206	0.74503	0.0774	-0.349
Mof_C 	C 	0.8803	0.8061	0.0178	-0.002
Mof_Cu	Cu	0.4363	0.34148	0.64316	0.922
Mof_O 	O 	0.43566	0.39951	0.64764	-0.482
Mof_C 	C 	0.47011	0.41768	0.63818	0.252
Mof_C 	C 	0.48896	0.44311	0.66486	-0.261
Mof_H 	H 	0.4775	0.4481	0.6899	0.12
Mof_C 	C 	0.52435	0.46089	0.65453	0.113
Mof_H 	H 	0.5371	0.4781	0.6726	-0.02
Mof_C 	C 	0.54134	0.45362	0.61764	-0.162
Mof_H 	H 	0.5656	0.4659	0.6106	0.075
Mof_C 	C 	0.52249	0.4282	0.59108	0.051
Mof_H 	H 	0.5341	0.4233	0.5661	0.014
Mof_C 	C 	0.487	0.40999	0.60074	-0.122
Mof_C 	C 	0.46529	0.3834	0.57181	-0.014
Mof_H 	H 	0.4806	0.3815	0.547	0.038
Mof_H 	H 	0.4393	0.3952	0.5654	0.029
Mof_N 	N 	0.45924	0.34272	0.58854	-0.288
Mof_H 	H 	0.4809	0.3325	0.5914	0.162
Mof_C 	C 	0.43494	0.3139	0.56505	-0.007
Mof_C 	C 	0.45372	0.30232	0.52492	-0.106
Mof_H 	H 	0.4672	0.2765	0.527	0.063
Mof_H 	H 	0.4733	0.3224	0.5166	0.061
Mof_C 	C 	0.4202	0.3001	0.4954	-0.081
Mof_H 	H 	0.4297	0.304	0.468	0.042
Mof_H 	H 	0.406	0.2746	0.4972	0.055
Mof_C 	C 	0.3934	0.3354	0.5094	-0.058
Mof_H 	H 	0.3665	0.3332	0.4983	0.035
Mof_H 	H 	0.4049	0.361	0.5014	0.039
Mof_C 	C 	0.39297	0.33107	0.55429	-0.128
Mof_H 	H 	0.3888	0.357	0.5672	0.045
Mof_H 	H 	0.3718	0.3128	0.5627	0.063
Mof_C 	C 	0.42767	0.27807	0.5924	0.292
Mof_O 	O 	0.42656	0.28558	0.62998	-0.392
Mof_O 	O 	0.42206	0.24503	0.5774	-0.349
Mof_C 	C 	0.3803	0.3061	0.5178	-0.002
Mof_Cu	Cu	0.5637	0.15852	0.64316	0.922
Mof_O 	O 	0.56434	0.10049	0.64764	-0.482
Mof_C 	C 	0.52989	0.08232	0.63818	0.252
Mof_C 	C 	0.51104	0.05689	0.66486	-0.261
Mof_H 	H 	0.5225	0.0519	0.6899	0.12
Mof_C 	C 	0.47565	0.03911	0.65453	0.113
Mof_H 	H 	0.4629	0.0219	0.6726	-0.02
Mof_C 	C 	0.45866	0.04638	0.61764	-0.162
Mof_H 	H 	0.4344	0.0341	0.6106	0.075
Mof_C 	C 	0.47751	0.0718	0.59108	0.051
Mof_H 	H 	0.4659	0.0767	0.5661	0.014
Mof_C 	C 	0.513	0.09001	0.60074	-0.122
Mof_C 	C 	0.53471	0.1166	0.57181	-0.014
Mof_H 	H 	0.5194	0.1185	0.547	0.037
Mof_H 	H 	0.5607	0.1048	0.5654	0.029
Mof_N 	N 	0.54076	0.15728	0.58854	-0.288
Mof_H 	H 	0.5191	0.1675	0.5914	0.162
Mof_C 	C 	0.56506	0.1861	0.56505	-0.007
Mof_C 	C 	0.54628	0.19768	0.52492	-0.106
Mof_H 	H 	0.5328	0.2235	0.527	0.063
Mof_H 	H 	0.5267	0.1776	0.5166	0.061
Mof_C 	C 	0.5798	0.1999	0.4954	-0.081
Mof_H 	H 	0.5703	0.196	0.468	0.042
Mof_H 	H 	0.594	0.2254	0.4972	0.055
Mof_C 	C 	0.6066	0.1646	0.5094	-0.058
Mof_H 	H 	0.6335	0.1668	0.4983	0.035
Mof_H 	H 	0.5951	0.139	0.5014	0.039
Mof_C 	C 	0.60703	0.16893	0.55429	-0.128
Mof_H 	H 	0.6112	0.143	0.5672	0.045
Mof_H 	H 	0.6282	0.1872	0.5627	0.063
Mof_C 	C 	0.57233	0.22193	0.5924	0.292
Mof_O 	O 	0.57344	0.21442	0.62998	-0.392
Mof_O 	O 	0.57794	0.25497	0.5774	-0.349
Mof_C 	C 	0.6197	0.1939	0.5178	-0.002
Mof_Cu	Cu	0.0637	0.65852	0.14316	0.922
Mof_O 	O 	0.06434	0.60049	0.14764	-0.482
Mof_C 	C 	0.02989	0.58232	0.13818	0.252
Mof_C 	C 	0.01104	0.55689	0.16486	-0.261
Mof_H 	H 	0.0225	0.5519	0.1899	0.12
Mof_C 	C 	0.97565	0.53911	0.15453	0.113
Mof_H 	H 	0.9629	0.5219	0.1726	-0.02
Mof_C 	C 	0.95866	0.54638	0.11764	-0.162
Mof_H 	H 	0.9344	0.5341	0.1106	0.075
Mof_C 	C 	0.97751	0.5718	0.09108	0.051
Mof_H 	H 	0.9659	0.5767	0.0661	0.014
Mof_C 	C 	0.013	0.59001	0.10074	-0.122
Mof_C 	C 	0.03471	0.6166	0.07181	-0.013
Mof_H 	H 	0.0194	0.6185	0.047	0.037
Mof_H 	H 	0.0607	0.6048	0.0654	0.029
Mof_N 	N 	0.04076	0.65728	0.08854	-0.288
Mof_H 	H 	0.0191	0.6675	0.0914	0.162
Mof_C 	C 	0.06506	0.6861	0.06505	-0.007
Mof_C 	C 	0.04628	0.69768	0.02492	-0.106
Mof_H 	H 	0.0328	0.7235	0.027	0.063
Mof_H 	H 	0.0267	0.6776	0.0166	0.061
Mof_C 	C 	0.0798	0.6999	0.9954	-0.082
Mof_H 	H 	0.0703	0.696	0.968	0.042
Mof_H 	H 	0.094	0.7254	0.9972	0.055
Mof_C 	C 	0.1066	0.6646	0.0094	-0.057
Mof_H 	H 	0.1335	0.6668	0.9983	0.035
Mof_H 	H 	0.0951	0.639	0.0014	0.038
Mof_C 	C 	0.10703	0.66893	0.05429	-0.128
Mof_H 	H 	0.1112	0.643	0.0672	0.045
Mof_H 	H 	0.1282	0.6872	0.0627	0.063
Mof_C 	C 	0.07233	0.72193	0.0924	0.292
Mof_O 	O 	0.07344	0.71442	0.12998	-0.392
Mof_O 	O 	0.07794	0.75497	0.0774	-0.349
Mof_C 	C 	0.1197	0.6939	0.0178	-0.002
Mof_Cu	Cu	0.0637	0.34148	0.35684	0.922
Mof_O 	O 	0.06434	0.39951	0.35236	-0.482
Mof_C 	C 	0.02989	0.41768	0.36182	0.252
Mof_C 	C 	0.01104	0.44311	0.33514	-0.261
Mof_H 	H 	0.0225	0.4481	0.3101	0.12
Mof_C 	C 	0.97565	0.46089	0.34547	0.113
Mof_H 	H 	0.9629	0.4781	0.3274	-0.02
Mof_C 	C 	0.95866	0.45362	0.38236	-0.162
Mof_H 	H 	0.9344	0.4659	0.3894	0.075
Mof_C 	C 	0.97751	0.4282	0.40892	0.051
Mof_H 	H 	0.9659	0.4233	0.4339	0.014
Mof_C 	C 	0.013	0.40999	0.39926	-0.122
Mof_C 	C 	0.03471	0.3834	0.42819	-0.013
Mof_H 	H 	0.0194	0.3815	0.453	0.037
Mof_H 	H 	0.0607	0.3952	0.4346	0.029
Mof_N 	N 	0.04076	0.34272	0.41146	-0.288
Mof_H 	H 	0.0191	0.3325	0.4086	0.162
Mof_C 	C 	0.06506	0.3139	0.43495	-0.007
Mof_C 	C 	0.04628	0.30232	0.47508	-0.106
Mof_H 	H 	0.0328	0.2765	0.473	0.063
Mof_H 	H 	0.0267	0.3224	0.4834	0.061
Mof_C 	C 	0.0798	0.3001	0.5046	-0.081
Mof_H 	H 	0.0703	0.304	0.532	0.042
Mof_H 	H 	0.094	0.2746	0.5028	0.055
Mof_C 	C 	0.1066	0.3354	0.4906	-0.058
Mof_H 	H 	0.1335	0.3332	0.5017	0.035
Mof_H 	H 	0.0951	0.361	0.4986	0.039
Mof_C 	C 	0.10703	0.33107	0.44571	-0.128
Mof_H 	H 	0.1112	0.357	0.4328	0.045
Mof_H 	H 	0.1282	0.3128	0.4373	0.063
Mof_C 	C 	0.07233	0.27807	0.4076	0.292
Mof_O 	O 	0.07344	0.28558	0.37002	-0.392
Mof_O 	O 	0.07794	0.24503	0.4226	-0.349
Mof_C 	C 	0.1197	0.3061	0.4822	-0.002
Mof_Cu	Cu	0.5637	0.84148	0.85684	0.922
Mof_O 	O 	0.56434	0.89951	0.85236	-0.482
Mof_C 	C 	0.52989	0.91768	0.86182	0.252
Mof_C 	C 	0.51104	0.94311	0.83514	-0.261
Mof_H 	H 	0.5225	0.9481	0.8101	0.12
Mof_C 	C 	0.47565	0.96089	0.84547	0.113
Mof_H 	H 	0.4629	0.9781	0.8274	-0.02
Mof_C 	C 	0.45866	0.95362	0.88236	-0.162
Mof_H 	H 	0.4344	0.9659	0.8894	0.075
Mof_C 	C 	0.47751	0.9282	0.90892	0.051
Mof_H 	H 	0.4659	0.9233	0.9339	0.014
Mof_C 	C 	0.513	0.90999	0.89926	-0.122
Mof_C 	C 	0.53471	0.8834	0.92819	-0.014
Mof_H 	H 	0.5194	0.8815	0.953	0.037
Mof_H 	H 	0.5607	0.8952	0.9346	0.029
Mof_N 	N 	0.54076	0.84272	0.91146	-0.288
Mof_H 	H 	0.5191	0.8325	0.9086	0.162
Mof_C 	C 	0.56506	0.8139	0.93495	-0.007
Mof_C 	C 	0.54628	0.80232	0.97508	-0.106
Mof_H 	H 	0.5328	0.7765	0.973	0.063
Mof_H 	H 	0.5267	0.8224	0.9834	0.061
Mof_C 	C 	0.5798	0.8001	0.0046	-0.082
Mof_H 	H 	0.5703	0.804	0.032	0.042
Mof_H 	H 	0.594	0.7746	0.0028	0.055
Mof_C 	C 	0.6066	0.8354	0.9906	-0.057
Mof_H 	H 	0.6335	0.8332	0.0017	0.035
Mof_H 	H 	0.5951	0.861	0.9986	0.038
Mof_C 	C 	0.60703	0.83107	0.94571	-0.128
Mof_H 	H 	0.6112	0.857	0.9328	0.045
Mof_H 	H 	0.6282	0.8128	0.9373	0.063
Mof_C 	C 	0.57233	0.77807	0.9076	0.292
Mof_O 	O 	0.57344	0.78558	0.87002	-0.392
Mof_O 	O 	0.57794	0.74503	0.9226	-0.349
Mof_C 	C 	0.6197	0.8061	0.9822	-0.002
Mof_Cu	Cu	0.4363	0.65852	0.85684	0.922
Mof_O 	O 	0.43566	0.60049	0.85236	-0.482
Mof_C 	C 	0.47011	0.58232	0.86182	0.252
Mof_C 	C 	0.48896	0.55689	0.83514	-0.261
Mof_H 	H 	0.4775	0.5519	0.8101	0.12
Mof_C 	C 	0.52435	0.53911	0.84547	0.113
Mof_H 	H 	0.5371	0.5219	0.8274	-0.02
Mof_C 	C 	0.54134	0.54638	0.88236	-0.162
Mof_H 	H 	0.5656	0.5341	0.8894	0.075
Mof_C 	C 	0.52249	0.5718	0.90892	0.051
Mof_H 	H 	0.5341	0.5767	0.9339	0.014
Mof_C 	C 	0.487	0.59001	0.89926	-0.122
Mof_C 	C 	0.46529	0.6166	0.92819	-0.014
Mof_H 	H 	0.4806	0.6185	0.953	0.037
Mof_H 	H 	0.4393	0.6048	0.9346	0.029
Mof_N 	N 	0.45924	0.65728	0.91146	-0.288
Mof_H 	H 	0.4809	0.6675	0.9086	0.162
Mof_C 	C 	0.43494	0.6861	0.93495	-0.007
Mof_C 	C 	0.45372	0.69768	0.97508	-0.106
Mof_H 	H 	0.4672	0.7235	0.973	0.063
Mof_H 	H 	0.4733	0.6776	0.9834	0.061
Mof_C 	C 	0.4202	0.6999	0.0046	-0.082
Mof_H 	H 	0.4297	0.696	0.032	0.042
Mof_H 	H 	0.406	0.7254	0.0028	0.055
Mof_C 	C 	0.3934	0.6646	0.9906	-0.057
Mof_H 	H 	0.3665	0.6668	0.0017	0.035
Mof_H 	H 	0.4049	0.639	0.9986	0.039
Mof_C 	C 	0.39297	0.66893	0.94571	-0.128
Mof_H 	H 	0.3888	0.643	0.9328	0.045
Mof_H 	H 	0.3718	0.6872	0.9373	0.063
Mof_C 	C 	0.42767	0.72193	0.9076	0.292
Mof_O 	O 	0.42656	0.71442	0.87002	-0.392
Mof_O 	O 	0.42206	0.75497	0.9226	-0.349
Mof_C 	C 	0.3803	0.6939	0.9822	-0.002
Mof_Cu	Cu	0.9363	0.15852	0.35684	0.922
Mof_O 	O 	0.93566	0.10049	0.35236	-0.482
Mof_C 	C 	0.97011	0.08232	0.36182	0.252
Mof_C 	C 	0.98896	0.05689	0.33514	-0.261
Mof_H 	H 	0.9775	0.0519	0.3101	0.12
Mof_C 	C 	0.02435	0.03911	0.34547	0.113
Mof_H 	H 	0.0371	0.0219	0.3274	-0.02
Mof_C 	C 	0.04134	0.04638	0.38236	-0.162
Mof_H 	H 	0.0656	0.0341	0.3894	0.075
Mof_C 	C 	0.02249	0.0718	0.40892	0.051
Mof_H 	H 	0.0341	0.0767	0.4339	0.014
Mof_C 	C 	0.987	0.09001	0.39926	-0.122
Mof_C 	C 	0.96529	0.1166	0.42819	-0.013
Mof_H 	H 	0.9806	0.1185	0.453	0.037
Mof_H 	H 	0.9393	0.1048	0.4346	0.029
Mof_N 	N 	0.95924	0.15728	0.41146	-0.288
Mof_H 	H 	0.9809	0.1675	0.4086	0.162
Mof_C 	C 	0.93494	0.1861	0.43495	-0.007
Mof_C 	C 	0.95372	0.19768	0.47508	-0.106
Mof_H 	H 	0.9672	0.2235	0.473	0.063
Mof_H 	H 	0.9733	0.1776	0.4834	0.061
Mof_C 	C 	0.9202	0.1999	0.5046	-0.081
Mof_H 	H 	0.9297	0.196	0.532	0.042
Mof_H 	H 	0.906	0.2254	0.5028	0.055
Mof_C 	C 	0.8934	0.1646	0.4906	-0.058
Mof_H 	H 	0.8665	0.1668	0.5017	0.035
Mof_H 	H 	0.9049	0.139	0.4986	0.039
Mof_C 	C 	0.89297	0.16893	0.44571	-0.128
Mof_H 	H 	0.8888	0.143	0.4328	0.045
Mof_H 	H 	0.8718	0.1872	0.4373	0.063
Mof_C 	C 	0.92767	0.22193	0.4076	0.292
Mof_O 	O 	0.92656	0.21442	0.37002	-0.392
Mof_O 	O 	0.92206	0.25497	0.4226	-0.349
Mof_C 	C 	0.8803	0.1939	0.4822	-0.002
Mof_Cu	Cu	0.14316	0.9363	0.84148	0.922
Mof_O 	O 	0.14764	0.93566	0.89951	-0.482
Mof_C 	C 	0.13818	0.97011	0.91768	0.252
Mof_C 	C 	0.16486	0.98896	0.94311	-0.261
Mof_H 	H 	0.1899	0.9775	0.9481	0.12
Mof_C 	C 	0.15453	0.02435	0.96089	0.113
Mof_H 	H 	0.1726	0.0371	0.9781	-0.02
Mof_C 	C 	0.11764	0.04134	0.95362	-0.162
Mof_H 	H 	0.1106	0.0656	0.9659	0.075
Mof_C 	C 	0.09108	0.02249	0.9282	0.051
Mof_H 	H 	0.0661	0.0341	0.9233	0.014
Mof_C 	C 	0.10074	0.987	0.90999	-0.122
Mof_C 	C 	0.07181	0.96529	0.8834	-0.013
Mof_H 	H 	0.047	0.9806	0.8815	0.037
Mof_H 	H 	0.0654	0.9393	0.8952	0.029
Mof_N 	N 	0.08854	0.95924	0.84272	-0.288
Mof_H 	H 	0.0914	0.9809	0.8325	0.162
Mof_C 	C 	0.06505	0.93494	0.8139	-0.007
Mof_C 	C 	0.02492	0.95372	0.80232	-0.106
Mof_H 	H 	0.027	0.9672	0.7765	0.063
Mof_H 	H 	0.0166	0.9733	0.8224	0.061
Mof_C 	C 	0.9954	0.9202	0.8001	-0.082
Mof_H 	H 	0.968	0.9297	0.804	0.042
Mof_H 	H 	0.9972	0.906	0.7746	0.055
Mof_C 	C 	0.0094	0.8934	0.8354	-0.057
Mof_H 	H 	0.9983	0.8665	0.8332	0.035
Mof_H 	H 	0.0014	0.9049	0.861	0.038
Mof_C 	C 	0.05429	0.89297	0.83107	-0.128
Mof_H 	H 	0.0672	0.8888	0.857	0.045
Mof_H 	H 	0.0627	0.8718	0.8128	0.063
Mof_C 	C 	0.0924	0.92767	0.77807	0.292
Mof_O 	O 	0.12998	0.92656	0.78558	-0.392
Mof_O 	O 	0.0774	0.92206	0.74503	-0.349
Mof_C 	C 	0.0178	0.8803	0.8061	-0.002
Mof_Cu	Cu	0.64316	0.4363	0.34148	0.922
Mof_O 	O 	0.64764	0.43566	0.39951	-0.482
Mof_C 	C 	0.63818	0.47011	0.41768	0.252
Mof_C 	C 	0.66486	0.48896	0.44311	-0.261
Mof_H 	H 	0.6899	0.4775	0.4481	0.12
Mof_C 	C 	0.65453	0.52435	0.46089	0.113
Mof_H 	H 	0.6726	0.5371	0.4781	-0.02
Mof_C 	C 	0.61764	0.54134	0.45362	-0.162
Mof_H 	H 	0.6106	0.5656	0.4659	0.075
Mof_C 	C 	0.59108	0.52249	0.4282	0.051
Mof_H 	H 	0.5661	0.5341	0.4233	0.014
Mof_C 	C 	0.60074	0.487	0.40999	-0.122
Mof_C 	C 	0.57181	0.46529	0.3834	-0.014
Mof_H 	H 	0.547	0.4806	0.3815	0.038
Mof_H 	H 	0.5654	0.4393	0.3952	0.029
Mof_N 	N 	0.58854	0.45924	0.34272	-0.288
Mof_H 	H 	0.5914	0.4809	0.3325	0.162
Mof_C 	C 	0.56505	0.43494	0.3139	-0.007
Mof_C 	C 	0.52492	0.45372	0.30232	-0.106
Mof_H 	H 	0.527	0.4672	0.2765	0.063
Mof_H 	H 	0.5166	0.4733	0.3224	0.061
Mof_C 	C 	0.4954	0.4202	0.3001	-0.081
Mof_H 	H 	0.468	0.4297	0.304	0.042
Mof_H 	H 	0.4972	0.406	0.2746	0.055
Mof_C 	C 	0.5094	0.3934	0.3354	-0.058
Mof_H 	H 	0.4983	0.3665	0.3332	0.035
Mof_H 	H 	0.5014	0.4049	0.361	0.039
Mof_C 	C 	0.55429	0.39297	0.33107	-0.128
Mof_H 	H 	0.5672	0.3888	0.357	0.045
Mof_H 	H 	0.5627	0.3718	0.3128	0.063
Mof_C 	C 	0.5924	0.42767	0.27807	0.292
Mof_O 	O 	0.62998	0.42656	0.28558	-0.392
Mof_O 	O 	0.5774	0.42206	0.24503	-0.349
Mof_C 	C 	0.5178	0.3803	0.3061	-0.002
Mof_Cu	Cu	0.64316	0.5637	0.15852	0.922
Mof_O 	O 	0.64764	0.56434	0.10049	-0.482
Mof_C 	C 	0.63818	0.52989	0.08232	0.252
Mof_C 	C 	0.66486	0.51104	0.05689	-0.261
Mof_H 	H 	0.6899	0.5225	0.0519	0.12
Mof_C 	C 	0.65453	0.47565	0.03911	0.113
Mof_H 	H 	0.6726	0.4629	0.0219	-0.02
Mof_C 	C 	0.61764	0.45866	0.04638	-0.162
Mof_H 	H 	0.6106	0.4344	0.0341	0.075
Mof_C 	C 	0.59108	0.47751	0.0718	0.051
Mof_H 	H 	0.5661	0.4659	0.0767	0.014
Mof_C 	C 	0.60074	0.513	0.09001	-0.122
Mof_C 	C 	0.57181	0.53471	0.1166	-0.014
Mof_H 	H 	0.547	0.5194	0.1185	0.037
Mof_H 	H 	0.5654	0.5607	0.1048	0.029
Mof_N 	N 	0.58854	0.54076	0.15728	-0.288
Mof_H 	H 	0.5914	0.5191	0.1675	0.162
Mof_C 	C 	0.56505	0.56506	0.1861	-0.007
Mof_C 	C 	0.52492	0.54628	0.19768	-0.106
Mof_H 	H 	0.527	0.5328	0.2235	0.063
Mof_H 	H 	0.5166	0.5267	0.1776	0.061
Mof_C 	C 	0.4954	0.5798	0.1999	-0.081
Mof_H 	H 	0.468	0.5703	0.196	0.042
Mof_H 	H 	0.4972	0.594	0.2254	0.055
Mof_C 	C 	0.5094	0.6066	0.1646	-0.058
Mof_H 	H 	0.4983	0.6335	0.1668	0.035
Mof_H 	H 	0.5014	0.5951	0.139	0.039
Mof_C 	C 	0.55429	0.60703	0.16893	-0.128
Mof_H 	H 	0.5672	0.6112	0.143	0.045
Mof_H 	H 	0.5627	0.6282	0.1872	0.063
Mof_C 	C 	0.5924	0.57233	0.22193	0.292
Mof_O 	O 	0.62998	0.57344	0.21442	-0.392
Mof_O 	O 	0.5774	0.57794	0.25497	-0.349
Mof_C 	C 	0.5178	0.6197	0.1939	-0.002
Mof_Cu	Cu	0.14316	0.0637	0.65852	0.922
Mof_O 	O 	0.14764	0.06434	0.60049	-0.482
Mof_C 	C 	0.13818	0.02989	0.58232	0.252
Mof_C 	C 	0.16486	0.01104	0.55689	-0.261
Mof_H 	H 	0.1899	0.0225	0.5519	0.12
Mof_C 	C 	0.15453	0.97565	0.53911	0.113
Mof_H 	H 	0.1726	0.9629	0.5219	-0.02
Mof_C 	C 	0.11764	0.95866	0.54638	-0.162
Mof_H 	H 	0.1106	0.9344	0.5341	0.075
Mof_C 	C 	0.09108	0.97751	0.5718	0.051
Mof_H 	H 	0.0661	0.9659	0.5767	0.014
Mof_C 	C 	0.10074	0.013	0.59001	-0.122
Mof_C 	C 	0.07181	0.03471	0.6166	-0.013
Mof_H 	H 	0.047	0.0194	0.6185	0.037
Mof_H 	H 	0.0654	0.0607	0.6048	0.029
Mof_N 	N 	0.08854	0.04076	0.65728	-0.288
Mof_H 	H 	0.0914	0.0191	0.6675	0.162
Mof_C 	C 	0.06505	0.06506	0.6861	-0.007
Mof_C 	C 	0.02492	0.04628	0.69768	-0.106
Mof_H 	H 	0.027	0.0328	0.7235	0.063
Mof_H 	H 	0.0166	0.0267	0.6776	0.061
Mof_C 	C 	0.9954	0.0798	0.6999	-0.082
Mof_H 	H 	0.968	0.0703	0.696	0.042
Mof_H 	H 	0.9972	0.094	0.7254	0.055
Mof_C 	C 	0.0094	0.1066	0.6646	-0.057
Mof_H 	H 	0.9983	0.1335	0.6668	0.035
Mof_H 	H 	0.0014	0.0951	0.639	0.038
Mof_C 	C 	0.05429	0.10703	0.66893	-0.128
Mof_H 	H 	0.0672	0.1112	0.643	0.045
Mof_H 	H 	0.0627	0.1282	0.6872	0.063
Mof_C 	C 	0.0924	0.07233	0.72193	0.292
Mof_O 	O 	0.12998	0.07344	0.71442	-0.392
Mof_O 	O 	0.0774	0.07794	0.75497	-0.349
Mof_C 	C 	0.0178	0.1197	0.6939	-0.002
Mof_Cu	Cu	0.35684	0.0637	0.34148	0.922
Mof_O 	O 	0.35236	0.06434	0.39951	-0.482
Mof_C 	C 	0.36182	0.02989	0.41768	0.252
Mof_C 	C 	0.33514	0.01104	0.44311	-0.261
Mof_H 	H 	0.3101	0.0225	0.4481	0.12
Mof_C 	C 	0.34547	0.97565	0.46089	0.113
Mof_H 	H 	0.3274	0.9629	0.4781	-0.02
Mof_C 	C 	0.38236	0.95866	0.45362	-0.162
Mof_H 	H 	0.3894	0.9344	0.4659	0.075
Mof_C 	C 	0.40892	0.97751	0.4282	0.051
Mof_H 	H 	0.4339	0.9659	0.4233	0.014
Mof_C 	C 	0.39926	0.013	0.40999	-0.122
Mof_C 	C 	0.42819	0.03471	0.3834	-0.013
Mof_H 	H 	0.453	0.0194	0.3815	0.037
Mof_H 	H 	0.4346	0.0607	0.3952	0.029
Mof_N 	N 	0.41146	0.04076	0.34272	-0.288
Mof_H 	H 	0.4086	0.0191	0.3325	0.162
Mof_C 	C 	0.43495	0.06506	0.3139	-0.007
Mof_C 	C 	0.47508	0.04628	0.30232	-0.106
Mof_H 	H 	0.473	0.0328	0.2765	0.063
Mof_H 	H 	0.4834	0.0267	0.3224	0.061
Mof_C 	C 	0.5046	0.0798	0.3001	-0.081
Mof_H 	H 	0.532	0.0703	0.304	0.042
Mof_H 	H 	0.5028	0.094	0.2746	0.055
Mof_C 	C 	0.4906	0.1066	0.3354	-0.058
Mof_H 	H 	0.5017	0.1335	0.3332	0.035
Mof_H 	H 	0.4986	0.0951	0.361	0.039
Mof_C 	C 	0.44571	0.10703	0.33107	-0.128
Mof_H 	H 	0.4328	0.1112	0.357	0.045
Mof_H 	H 	0.4373	0.1282	0.3128	0.063
Mof_C 	C 	0.4076	0.07233	0.27807	0.292
Mof_O 	O 	0.37002	0.07344	0.28558	-0.392
Mof_O 	O 	0.4226	0.07794	0.24503	-0.349
Mof_C 	C 	0.4822	0.1197	0.3061	-0.002
Mof_Cu	Cu	0.85684	0.5637	0.84148	0.922
Mof_O 	O 	0.85236	0.56434	0.89951	-0.482
Mof_C 	C 	0.86182	0.52989	0.91768	0.252
Mof_C 	C 	0.83514	0.51104	0.94311	-0.261
Mof_H 	H 	0.8101	0.5225	0.9481	0.12
Mof_C 	C 	0.84547	0.47565	0.96089	0.113
Mof_H 	H 	0.8274	0.4629	0.9781	-0.02
Mof_C 	C 	0.88236	0.45866	0.95362	-0.162
Mof_H 	H 	0.8894	0.4344	0.9659	0.075
Mof_C 	C 	0.90892	0.47751	0.9282	0.051
Mof_H 	H 	0.9339	0.4659	0.9233	0.014
Mof_C 	C 	0.89926	0.513	0.90999	-0.122
Mof_C 	C 	0.92819	0.53471	0.8834	-0.014
Mof_H 	H 	0.953	0.5194	0.8815	0.037
Mof_H 	H 	0.9346	0.5607	0.8952	0.029
Mof_N 	N 	0.91146	0.54076	0.84272	-0.288
Mof_H 	H 	0.9086	0.5191	0.8325	0.162
Mof_C 	C 	0.93495	0.56506	0.8139	-0.007
Mof_C 	C 	0.97508	0.54628	0.80232	-0.106
Mof_H 	H 	0.973	0.5328	0.7765	0.063
Mof_H 	H 	0.9834	0.5267	0.8224	0.061
Mof_C 	C 	0.0046	0.5798	0.8001	-0.082
Mof_H 	H 	0.032	0.5703	0.804	0.042
Mof_H 	H 	0.0028	0.594	0.7746	0.055
Mof_C 	C 	0.9906	0.6066	0.8354	-0.057
Mof_H 	H 	0.0017	0.6335	0.8332	0.035
Mof_H 	H 	0.9986	0.5951	0.861	0.038
Mof_C 	C 	0.94571	0.60703	0.83107	-0.128
Mof_H 	H 	0.9328	0.6112	0.857	0.045
Mof_H 	H 	0.9373	0.6282	0.8128	0.063
Mof_C 	C 	0.9076	0.57233	0.77807	0.292
Mof_O 	O 	0.87002	0.57344	0.78558	-0.392
Mof_O 	O 	0.9226	0.57794	0.74503	-0.349
Mof_C 	C 	0.9822	0.6197	0.8061	-0.002
Mof_Cu	Cu	0.85684	0.4363	0.65852	0.922
Mof_O 	O 	0.85236	0.43566	0.60049	-0.482
Mof_C 	C 	0.86182	0.47011	0.58232	0.252
Mof_C 	C 	0.83514	0.48896	0.55689	-0.261
Mof_H 	H 	0.8101	0.4775	0.5519	0.12
Mof_C 	C 	0.84547	0.52435	0.53911	0.113
Mof_H 	H 	0.8274	0.5371	0.5219	-0.02
Mof_C 	C 	0.88236	0.54134	0.54638	-0.162
Mof_H 	H 	0.8894	0.5656	0.5341	0.075
Mof_C 	C 	0.90892	0.52249	0.5718	0.051
Mof_H 	H 	0.9339	0.5341	0.5767	0.014
Mof_C 	C 	0.89926	0.487	0.59001	-0.122
Mof_C 	C 	0.92819	0.46529	0.6166	-0.014
Mof_H 	H 	0.953	0.4806	0.6185	0.037
Mof_H 	H 	0.9346	0.4393	0.6048	0.029
Mof_N 	N 	0.91146	0.45924	0.65728	-0.288
Mof_H 	H 	0.9086	0.4809	0.6675	0.162
Mof_C 	C 	0.93495	0.43494	0.6861	-0.007
Mof_C 	C 	0.97508	0.45372	0.69768	-0.106
Mof_H 	H 	0.973	0.4672	0.7235	0.063
Mof_H 	H 	0.9834	0.4733	0.6776	0.061
Mof_C 	C 	0.0046	0.4202	0.6999	-0.082
Mof_H 	H 	0.032	0.4297	0.696	0.042
Mof_H 	H 	0.0028	0.406	0.7254	0.055
Mof_C 	C 	0.9906	0.3934	0.6646	-0.057
Mof_H 	H 	0.0017	0.3665	0.6668	0.035
Mof_H 	H 	0.9986	0.4049	0.639	0.039
Mof_C 	C 	0.94571	0.39297	0.66893	-0.128
Mof_H 	H 	0.9328	0.3888	0.643	0.045
Mof_H 	H 	0.9373	0.3718	0.6872	0.063
Mof_C 	C 	0.9076	0.42767	0.72193	0.292
Mof_O 	O 	0.87002	0.42656	0.71442	-0.392
Mof_O 	O 	0.9226	0.42206	0.75497	-0.349
Mof_C 	C 	0.9822	0.3803	0.6939	-0.002
Mof_Cu	Cu	0.35684	0.9363	0.15852	0.922
Mof_O 	O 	0.35236	0.93566	0.10049	-0.482
Mof_C 	C 	0.36182	0.97011	0.08232	0.252
Mof_C 	C 	0.33514	0.98896	0.05689	-0.261
Mof_H 	H 	0.3101	0.9775	0.0519	0.12
Mof_C 	C 	0.34547	0.02435	0.03911	0.113
Mof_H 	H 	0.3274	0.0371	0.0219	-0.02
Mof_C 	C 	0.38236	0.04134	0.04638	-0.162
Mof_H 	H 	0.3894	0.0656	0.0341	0.075
Mof_C 	C 	0.40892	0.02249	0.0718	0.051
Mof_H 	H 	0.4339	0.0341	0.0767	0.014
Mof_C 	C 	0.39926	0.987	0.09001	-0.122
Mof_C 	C 	0.42819	0.96529	0.1166	-0.013
Mof_H 	H 	0.453	0.9806	0.1185	0.037
Mof_H 	H 	0.4346	0.9393	0.1048	0.029
Mof_N 	N 	0.41146	0.95924	0.15728	-0.288
Mof_H 	H 	0.4086	0.9809	0.1675	0.162
Mof_C 	C 	0.43495	0.93494	0.1861	-0.007
Mof_C 	C 	0.47508	0.95372	0.19768	-0.106
Mof_H 	H 	0.473	0.9672	0.2235	0.063
Mof_H 	H 	0.4834	0.9733	0.1776	0.061
Mof_C 	C 	0.5046	0.9202	0.1999	-0.081
Mof_H 	H 	0.532	0.9297	0.196	0.042
Mof_H 	H 	0.5028	0.906	0.2254	0.055
Mof_C 	C 	0.4906	0.8934	0.1646	-0.058
Mof_H 	H 	0.5017	0.8665	0.1668	0.035
Mof_H 	H 	0.4986	0.9049	0.139	0.039
Mof_C 	C 	0.44571	0.89297	0.16893	-0.128
Mof_H 	H 	0.4328	0.8888	0.143	0.045
Mof_H 	H 	0.4373	0.8718	0.1872	0.063
Mof_C 	C 	0.4076	0.92767	0.22193	0.292
Mof_O 	O 	0.37002	0.92656	0.21442	-0.392
Mof_O 	O 	0.4226	0.92206	0.25497	-0.349
Mof_C 	C 	0.4822	0.8803	0.1939	-0.002
Mof_Cu	Cu	0.84148	0.14316	0.9363	0.922
Mof_O 	O 	0.89951	0.14764	0.93566	-0.482
Mof_C 	C 	0.91768	0.13818	0.97011	0.252
Mof_C 	C 	0.94311	0.16486	0.98896	-0.261
Mof_H 	H 	0.9481	0.1899	0.9775	0.12
Mof_C 	C 	0.96089	0.15453	0.02435	0.113
Mof_H 	H 	0.9781	0.1726	0.0371	-0.02
Mof_C 	C 	0.95362	0.11764	0.04134	-0.162
Mof_H 	H 	0.9659	0.1106	0.0656	0.075
Mof_C 	C 	0.9282	0.09108	0.02249	0.051
Mof_H 	H 	0.9233	0.0661	0.0341	0.014
Mof_C 	C 	0.90999	0.10074	0.987	-0.122
Mof_C 	C 	0.8834	0.07181	0.96529	-0.013
Mof_H 	H 	0.8815	0.047	0.9806	0.037
Mof_H 	H 	0.8952	0.0654	0.9393	0.029
Mof_N 	N 	0.84272	0.08854	0.95924	-0.288
Mof_H 	H 	0.8325	0.0914	0.9809	0.162
Mof_C 	C 	0.8139	0.06505	0.93494	-0.007
Mof_C 	C 	0.80232	0.02492	0.95372	-0.106
Mof_H 	H 	0.7765	0.027	0.9672	0.063
Mof_H 	H 	0.8224	0.0166	0.9733	0.061
Mof_C 	C 	0.8001	0.9954	0.9202	-0.082
Mof_H 	H 	0.804	0.968	0.9297	0.042
Mof_H 	H 	0.7746	0.9972	0.906	0.055
Mof_C 	C 	0.8354	0.0094	0.8934	-0.057
Mof_H 	H 	0.8332	0.9983	0.8665	0.035
Mof_H 	H 	0.861	0.0014	0.9049	0.038
Mof_C 	C 	0.83107	0.05429	0.89297	-0.128
Mof_H 	H 	0.857	0.0672	0.8888	0.045
Mof_H 	H 	0.8128	0.0627	0.8718	0.063
Mof_C 	C 	0.77807	0.0924	0.92767	0.292
Mof_O 	O 	0.78558	0.12998	0.92656	-0.392
Mof_O 	O 	0.74503	0.0774	0.92206	-0.349
Mof_C 	C 	0.8061	0.0178	0.8803	-0.002
Mof_Cu	Cu	0.34148	0.64316	0.4363	0.922
Mof_O 	O 	0.39951	0.64764	0.43566	-0.482
Mof_C 	C 	0.41768	0.63818	0.47011	0.252
Mof_C 	C 	0.44311	0.66486	0.48896	-0.261
Mof_H 	H 	0.4481	0.6899	0.4775	0.12
Mof_C 	C 	0.46089	0.65453	0.52435	0.113
Mof_H 	H 	0.4781	0.6726	0.5371	-0.02
Mof_C 	C 	0.45362	0.61764	0.54134	-0.162
Mof_H 	H 	0.4659	0.6106	0.5656	0.075
Mof_C 	C 	0.4282	0.59108	0.52249	0.051
Mof_H 	H 	0.4233	0.5661	0.5341	0.014
Mof_C 	C 	0.40999	0.60074	0.487	-0.122
Mof_C 	C 	0.3834	0.57181	0.46529	-0.014
Mof_H 	H 	0.3815	0.547	0.4806	0.038
Mof_H 	H 	0.3952	0.5654	0.4393	0.029
Mof_N 	N 	0.34272	0.58854	0.45924	-0.288
Mof_H 	H 	0.3325	0.5914	0.4809	0.162
Mof_C 	C 	0.3139	0.56505	0.43494	-0.007
Mof_C 	C 	0.30232	0.52492	0.45372	-0.106
Mof_H 	H 	0.2765	0.527	0.4672	0.063
Mof_H 	H 	0.3224	0.5166	0.4733	0.061
Mof_C 	C 	0.3001	0.4954	0.4202	-0.081
Mof_H 	H 	0.304	0.468	0.4297	0.042
Mof_H 	H 	0.2746	0.4972	0.406	0.055
Mof_C 	C 	0.3354	0.5094	0.3934	-0.058
Mof_H 	H 	0.3332	0.4983	0.3665	0.035
Mof_H 	H 	0.361	0.5014	0.4049	0.039
Mof_C 	C 	0.33107	0.55429	0.39297	-0.128
Mof_H 	H 	0.357	0.5672	0.3888	0.045
Mof_H 	H 	0.3128	0.5627	0.3718	0.063
Mof_C 	C 	0.27807	0.5924	0.42767	0.292
Mof_O 	O 	0.28558	0.62998	0.42656	-0.392
Mof_O 	O 	0.24503	0.5774	0.42206	-0.349
Mof_C 	C 	0.3061	0.5178	0.3803	-0.002
Mof_Cu	Cu	0.15852	0.64316	0.5637	0.922
Mof_O 	O 	0.10049	0.64764	0.56434	-0.482
Mof_C 	C 	0.08232	0.63818	0.52989	0.252
Mof_C 	C 	0.05689	0.66486	0.51104	-0.261
Mof_H 	H 	0.0519	0.6899	0.5225	0.12
Mof_C 	C 	0.03911	0.65453	0.47565	0.113
Mof_H 	H 	0.0219	0.6726	0.4629	-0.02
Mof_C 	C 	0.04638	0.61764	0.45866	-0.162
Mof_H 	H 	0.0341	0.6106	0.4344	0.075
Mof_C 	C 	0.0718	0.59108	0.47751	0.051
Mof_H 	H 	0.0767	0.5661	0.4659	0.014
Mof_C 	C 	0.09001	0.60074	0.513	-0.122
Mof_C 	C 	0.1166	0.57181	0.53471	-0.014
Mof_H 	H 	0.1185	0.547	0.5194	0.037
Mof_H 	H 	0.1048	0.5654	0.5607	0.029
Mof_N 	N 	0.15728	0.58854	0.54076	-0.288
Mof_H 	H 	0.1675	0.5914	0.5191	0.162
Mof_C 	C 	0.1861	0.56505	0.56506	-0.007
Mof_C 	C 	0.19768	0.52492	0.54628	-0.106
Mof_H 	H 	0.2235	0.527	0.5328	0.063
Mof_H 	H 	0.1776	0.5166	0.5267	0.061
Mof_C 	C 	0.1999	0.4954	0.5798	-0.081
Mof_H 	H 	0.196	0.468	0.5703	0.042
Mof_H 	H 	0.2254	0.4972	0.594	0.055
Mof_C 	C 	0.1646	0.5094	0.6066	-0.058
Mof_H 	H 	0.1668	0.4983	0.6335	0.035
Mof_H 	H 	0.139	0.5014	0.5951	0.039
Mof_C 	C 	0.16893	0.55429	0.60703	-0.128
Mof_H 	H 	0.143	0.5672	0.6112	0.045
Mof_H 	H 	0.1872	0.5627	0.6282	0.063
Mof_C 	C 	0.22193	0.5924	0.57233	0.292
Mof_O 	O 	0.21442	0.62998	0.57344	-0.392
Mof_O 	O 	0.25497	0.5774	0.57794	-0.349
Mof_C 	C 	0.1939	0.5178	0.6197	-0.002
Mof_Cu	Cu	0.65852	0.14316	0.0637	0.922
Mof_O 	O 	0.60049	0.14764	0.06434	-0.482
Mof_C 	C 	0.58232	0.13818	0.02989	0.252
Mof_C 	C 	0.55689	0.16486	0.01104	-0.261
Mof_H 	H 	0.5519	0.1899	0.0225	0.12
Mof_C 	C 	0.53911	0.15453	0.97565	0.113
Mof_H 	H 	0.5219	0.1726	0.9629	-0.02
Mof_C 	C 	0.54638	0.11764	0.95866	-0.162
Mof_H 	H 	0.5341	0.1106	0.9344	0.075
Mof_C 	C 	0.5718	0.09108	0.97751	0.051
Mof_H 	H 	0.5767	0.0661	0.9659	0.014
Mof_C 	C 	0.59001	0.10074	0.013	-0.122
Mof_C 	C 	0.6166	0.07181	0.03471	-0.013
Mof_H 	H 	0.6185	0.047	0.0194	0.037
Mof_H 	H 	0.6048	0.0654	0.0607	0.029
Mof_N 	N 	0.65728	0.08854	0.04076	-0.288
Mof_H 	H 	0.6675	0.0914	0.0191	0.162
Mof_C 	C 	0.6861	0.06505	0.06506	-0.007
Mof_C 	C 	0.69768	0.02492	0.04628	-0.106
Mof_H 	H 	0.7235	0.027	0.0328	0.063
Mof_H 	H 	0.6776	0.0166	0.0267	0.061
Mof_C 	C 	0.6999	0.9954	0.0798	-0.082
Mof_H 	H 	0.696	0.968	0.0703	0.042
Mof_H 	H 	0.7254	0.9972	0.094	0.055
Mof_C 	C 	0.6646	0.0094	0.1066	-0.057
Mof_H 	H 	0.6668	0.9983	0.1335	0.035
Mof_H 	H 	0.639	0.0014	0.0951	0.038
Mof_C 	C 	0.66893	0.05429	0.10703	-0.128
Mof_H 	H 	0.643	0.0672	0.1112	0.045
Mof_H 	H 	0.6872	0.0627	0.1282	0.063
Mof_C 	C 	0.72193	0.0924	0.07233	0.292
Mof_O 	O 	0.71442	0.12998	0.07344	-0.392
Mof_O 	O 	0.75497	0.0774	0.07794	-0.349
Mof_C 	C 	0.6939	0.0178	0.1197	-0.002
Mof_Cu	Cu	0.34148	0.35684	0.0637	0.922
Mof_O 	O 	0.39951	0.35236	0.06434	-0.482
Mof_C 	C 	0.41768	0.36182	0.02989	0.252
Mof_C 	C 	0.44311	0.33514	0.01104	-0.261
Mof_H 	H 	0.4481	0.3101	0.0225	0.12
Mof_C 	C 	0.46089	0.34547	0.97565	0.113
Mof_H 	H 	0.4781	0.3274	0.9629	-0.02
Mof_C 	C 	0.45362	0.38236	0.95866	-0.162
Mof_H 	H 	0.4659	0.3894	0.9344	0.075
Mof_C 	C 	0.4282	0.40892	0.97751	0.051
Mof_H 	H 	0.4233	0.4339	0.9659	0.014
Mof_C 	C 	0.40999	0.39926	0.013	-0.122
Mof_C 	C 	0.3834	0.42819	0.03471	-0.013
Mof_H 	H 	0.3815	0.453	0.0194	0.037
Mof_H 	H 	0.3952	0.4346	0.0607	0.029
Mof_N 	N 	0.34272	0.41146	0.04076	-0.288
Mof_H 	H 	0.3325	0.4086	0.0191	0.162
Mof_C 	C 	0.3139	0.43495	0.06506	-0.007
Mof_C 	C 	0.30232	0.47508	0.04628	-0.106
Mof_H 	H 	0.2765	0.473	0.0328	0.063
Mof_H 	H 	0.3224	0.4834	0.0267	0.061
Mof_C 	C 	0.3001	0.5046	0.0798	-0.081
Mof_H 	H 	0.304	0.532	0.0703	0.042
Mof_H 	H 	0.2746	0.5028	0.094	0.055
Mof_C 	C 	0.3354	0.4906	0.1066	-0.058
Mof_H 	H 	0.3332	0.5017	0.1335	0.035
Mof_H 	H 	0.361	0.4986	0.0951	0.039
Mof_C 	C 	0.33107	0.44571	0.10703	-0.128
Mof_H 	H 	0.357	0.4328	0.1112	0.045
Mof_H 	H 	0.3128	0.4373	0.1282	0.063
Mof_C 	C 	0.27807	0.4076	0.07233	0.292
Mof_O 	O 	0.28558	0.37002	0.07344	-0.392
Mof_O 	O 	0.24503	0.4226	0.07794	-0.349
Mof_C 	C 	0.3061	0.4822	0.1197	-0.002
Mof_Cu	Cu	0.84148	0.85684	0.5637	0.922
Mof_O 	O 	0.89951	0.85236	0.56434	-0.482
Mof_C 	C 	0.91768	0.86182	0.52989	0.252
Mof_C 	C 	0.94311	0.83514	0.51104	-0.261
Mof_H 	H 	0.9481	0.8101	0.5225	0.12
Mof_C 	C 	0.96089	0.84547	0.47565	0.113
Mof_H 	H 	0.9781	0.8274	0.4629	-0.02
Mof_C 	C 	0.95362	0.88236	0.45866	-0.162
Mof_H 	H 	0.9659	0.8894	0.4344	0.075
Mof_C 	C 	0.9282	0.90892	0.47751	0.051
Mof_H 	H 	0.9233	0.9339	0.4659	0.014
Mof_C 	C 	0.90999	0.89926	0.513	-0.122
Mof_C 	C 	0.8834	0.92819	0.53471	-0.014
Mof_H 	H 	0.8815	0.953	0.5194	0.037
Mof_H 	H 	0.8952	0.9346	0.5607	0.029
Mof_N 	N 	0.84272	0.91146	0.54076	-0.288
Mof_H 	H 	0.8325	0.9086	0.5191	0.162
Mof_C 	C 	0.8139	0.93495	0.56506	-0.007
Mof_C 	C 	0.80232	0.97508	0.54628	-0.106
Mof_H 	H 	0.7765	0.973	0.5328	0.063
Mof_H 	H 	0.8224	0.9834	0.5267	0.061
Mof_C 	C 	0.8001	0.0046	0.5798	-0.082
Mof_H 	H 	0.804	0.032	0.5703	0.042
Mof_H 	H 	0.7746	0.0028	0.594	0.055
Mof_C 	C 	0.8354	0.9906	0.6066	-0.057
Mof_H 	H 	0.8332	0.0017	0.6335	0.035
Mof_H 	H 	0.861	0.9986	0.5951	0.038
Mof_C 	C 	0.83107	0.94571	0.60703	-0.128
Mof_H 	H 	0.857	0.9328	0.6112	0.045
Mof_H 	H 	0.8128	0.9373	0.6282	0.063
Mof_C 	C 	0.77807	0.9076	0.57233	0.292
Mof_O 	O 	0.78558	0.87002	0.57344	-0.392
Mof_O 	O 	0.74503	0.9226	0.57794	-0.349
Mof_C 	C 	0.8061	0.9822	0.6197	-0.002
Mof_Cu	Cu	0.65852	0.85684	0.4363	0.922
Mof_O 	O 	0.60049	0.85236	0.43566	-0.482
Mof_C 	C 	0.58232	0.86182	0.47011	0.252
Mof_C 	C 	0.55689	0.83514	0.48896	-0.261
Mof_H 	H 	0.5519	0.8101	0.4775	0.12
Mof_C 	C 	0.53911	0.84547	0.52435	0.113
Mof_H 	H 	0.5219	0.8274	0.5371	-0.02
Mof_C 	C 	0.54638	0.88236	0.54134	-0.162
Mof_H 	H 	0.5341	0.8894	0.5656	0.075
Mof_C 	C 	0.5718	0.90892	0.52249	0.051
Mof_H 	H 	0.5767	0.9339	0.5341	0.014
Mof_C 	C 	0.59001	0.89926	0.487	-0.122
Mof_C 	C 	0.6166	0.92819	0.46529	-0.014
Mof_H 	H 	0.6185	0.953	0.4806	0.037
Mof_H 	H 	0.6048	0.9346	0.4393	0.029
Mof_N 	N 	0.65728	0.91146	0.45924	-0.288
Mof_H 	H 	0.6675	0.9086	0.4809	0.162
Mof_C 	C 	0.6861	0.93495	0.43494	-0.007
Mof_C 	C 	0.69768	0.97508	0.45372	-0.106
Mof_H 	H 	0.7235	0.973	0.4672	0.063
Mof_H 	H 	0.6776	0.9834	0.4733	0.061
Mof_C 	C 	0.6999	0.0046	0.4202	-0.082
Mof_H 	H 	0.696	0.032	0.4297	0.042
Mof_H 	H 	0.7254	0.0028	0.406	0.055
Mof_C 	C 	0.6646	0.9906	0.3934	-0.057
Mof_H 	H 	0.6668	0.0017	0.3665	0.035
Mof_H 	H 	0.639	0.9986	0.4049	0.039
Mof_C 	C 	0.66893	0.94571	0.39297	-0.128
Mof_H 	H 	0.643	0.9328	0.3888	0.045
Mof_H 	H 	0.6872	0.9373	0.3718	0.063
Mof_C 	C 	0.72193	0.9076	0.42767	0.292
Mof_O 	O 	0.71442	0.87002	0.42656	-0.392
Mof_O 	O 	0.75497	0.9226	0.42206	-0.349
Mof_C 	C 	0.6939	0.9822	0.3803	-0.002
Mof_Cu	Cu	0.15852	0.35684	0.9363	0.922
Mof_O 	O 	0.10049	0.35236	0.93566	-0.482
Mof_C 	C 	0.08232	0.36182	0.97011	0.252
Mof_C 	C 	0.05689	0.33514	0.98896	-0.261
Mof_H 	H 	0.0519	0.3101	0.9775	0.12
Mof_C 	C 	0.03911	0.34547	0.02435	0.113
Mof_H 	H 	0.0219	0.3274	0.0371	-0.02
Mof_C 	C 	0.04638	0.38236	0.04134	-0.162
Mof_H 	H 	0.0341	0.3894	0.0656	0.075
Mof_C 	C 	0.0718	0.40892	0.02249	0.051
Mof_H 	H 	0.0767	0.4339	0.0341	0.014
Mof_C 	C 	0.09001	0.39926	0.987	-0.122
Mof_C 	C 	0.1166	0.42819	0.96529	-0.013
Mof_H 	H 	0.1185	0.453	0.9806	0.037
Mof_H 	H 	0.1048	0.4346	0.9393	0.029
Mof_N 	N 	0.15728	0.41146	0.95924	-0.288
Mof_H 	H 	0.1675	0.4086	0.9809	0.162
Mof_C 	C 	0.1861	0.43495	0.93494	-0.007
Mof_C 	C 	0.19768	0.47508	0.95372	-0.106
Mof_H 	H 	0.2235	0.473	0.9672	0.063
Mof_H 	H 	0.1776	0.4834	0.9733	0.061
Mof_C 	C 	0.1999	0.5046	0.9202	-0.081
Mof_H 	H 	0.196	0.532	0.9297	0.042
Mof_H 	H 	0.2254	0.5028	0.906	0.055
Mof_C 	C 	0.1646	0.4906	0.8934	-0.058
Mof_H 	H 	0.1668	0.5017	0.8665	0.035
Mof_H 	H 	0.139	0.4986	0.9049	0.039
Mof_C 	C 	0.16893	0.44571	0.89297	-0.128
Mof_H 	H 	0.143	0.4328	0.8888	0.045
Mof_H 	H 	0.1872	0.4373	0.8718	0.063
Mof_C 	C 	0.22193	0.4076	0.92767	0.292
Mof_O 	O 	0.21442	0.37002	0.92656	-0.392
Mof_O 	O 	0.25497	0.4226	0.92206	-0.349
Mof_C 	C 	0.1939	0.4822	0.8803	-0.002
Mof_Cu	Cu	0.09148	0.6863	0.60684	0.922
Mof_O 	O 	0.14951	0.68566	0.60236	-0.482
Mof_C 	C 	0.16768	0.72011	0.61182	0.252
Mof_C 	C 	0.19311	0.73896	0.58514	-0.261
Mof_H 	H 	0.1981	0.7275	0.5601	0.12
Mof_C 	C 	0.21089	0.77435	0.59547	0.113
Mof_H 	H 	0.2281	0.7871	0.5774	-0.02
Mof_C 	C 	0.20362	0.79134	0.63236	-0.162
Mof_H 	H 	0.2159	0.8156	0.6394	0.075
Mof_C 	C 	0.1782	0.77249	0.65892	0.051
Mof_H 	H 	0.1733	0.7841	0.6839	0.014
Mof_C 	C 	0.15999	0.737	0.64926	-0.122
Mof_C 	C 	0.1334	0.71529	0.67819	-0.014
Mof_H 	H 	0.1315	0.7306	0.703	0.038
Mof_H 	H 	0.1452	0.6893	0.6846	0.029
Mof_N 	N 	0.09272	0.70924	0.66146	-0.288
Mof_H 	H 	0.0825	0.7309	0.6586	0.162
Mof_C 	C 	0.0639	0.68494	0.68495	-0.007
Mof_C 	C 	0.05232	0.70372	0.72508	-0.106
Mof_H 	H 	0.0265	0.7172	0.723	0.063
Mof_H 	H 	0.0724	0.7233	0.7334	0.061
Mof_C 	C 	0.0501	0.6702	0.7546	-0.081
Mof_H 	H 	0.054	0.6797	0.782	0.042
Mof_H 	H 	0.0246	0.656	0.7528	0.055
Mof_C 	C 	0.0854	0.6434	0.7406	-0.058
Mof_H 	H 	0.0832	0.6165	0.7517	0.035
Mof_H 	H 	0.111	0.6549	0.7486	0.039
Mof_C 	C 	0.08107	0.64297	0.69571	-0.128
Mof_H 	H 	0.107	0.6388	0.6828	0.045
Mof_H 	H 	0.0628	0.6218	0.6873	0.063
Mof_C 	C 	0.02807	0.67767	0.6576	0.292
Mof_O 	O 	0.03558	0.67656	0.62002	-0.392
Mof_O 	O 	0.99503	0.67206	0.6726	-0.349
Mof_C 	C 	0.0561	0.6303	0.7322	-0.002
Mof_Cu	Cu	0.59148	0.1863	0.10684	0.922
Mof_O 	O 	0.64951	0.18566	0.10236	-0.482
Mof_C 	C 	0.66768	0.22011	0.11182	0.252
Mof_C 	C 	0.69311	0.23896	0.08514	-0.261
Mof_H 	H 	0.6981	0.2275	0.0601	0.12
Mof_C 	C 	0.71089	0.27435	0.09547	0.113
Mof_H 	H 	0.7281	0.2871	0.0774	-0.02
Mof_C 	C 	0.70362	0.29134	0.13236	-0.162
Mof_H 	H 	0.7159	0.3156	0.1394	0.075
Mof_C 	C 	0.6782	0.27249	0.15892	0.051
Mof_H 	H 	0.6733	0.2841	0.1839	0.014
Mof_C 	C 	0.65999	0.237	0.14926	-0.122
Mof_C 	C 	0.6334	0.21529	0.17819	-0.014
Mof_H 	H 	0.6315	0.2306	0.203	0.038
Mof_H 	H 	0.6452	0.1893	0.1846	0.029
Mof_N 	N 	0.59272	0.20924	0.16146	-0.288
Mof_H 	H 	0.5825	0.2309	0.1586	0.162
Mof_C 	C 	0.5639	0.18494	0.18495	-0.007
Mof_C 	C 	0.55232	0.20372	0.22508	-0.106
Mof_H 	H 	0.5265	0.2172	0.223	0.063
Mof_H 	H 	0.5724	0.2233	0.2334	0.061
Mof_C 	C 	0.5501	0.1702	0.2546	-0.081
Mof_H 	H 	0.554	0.1797	0.282	0.042
Mof_H 	H 	0.5246	0.156	0.2528	0.055
Mof_C 	C 	0.5854	0.1434	0.2406	-0.058
Mof_H 	H 	0.5832	0.1165	0.2517	0.035
Mof_H 	H 	0.611	0.1549	0.2486	0.039
Mof_C 	C 	0.58107	0.14297	0.19571	-0.128
Mof_H 	H 	0.607	0.1388	0.1828	0.045
Mof_H 	H 	0.5628	0.1218	0.1873	0.063
Mof_C 	C 	0.52807	0.17767	0.1576	0.292
Mof_O 	O 	0.53558	0.17656	0.12002	-0.392
Mof_O 	O 	0.49503	0.17206	0.1726	-0.349
Mof_C 	C 	0.5561	0.1303	0.2322	-0.002
Mof_Cu	Cu	0.40852	0.3137	0.10684	0.922
Mof_O 	O 	0.35049	0.31434	0.10236	-0.482
Mof_C 	C 	0.33232	0.27989	0.11182	0.252
Mof_C 	C 	0.30689	0.26104	0.08514	-0.261
Mof_H 	H 	0.3019	0.2725	0.0601	0.12
Mof_C 	C 	0.28911	0.22565	0.09547	0.113
Mof_H 	H 	0.2719	0.2129	0.0774	-0.02
Mof_C 	C 	0.29638	0.20866	0.13236	-0.162
Mof_H 	H 	0.2841	0.1844	0.1394	0.075
Mof_C 	C 	0.3218	0.22751	0.15892	0.051
Mof_H 	H 	0.3267	0.2159	0.1839	0.014
Mof_C 	C 	0.34001	0.263	0.14926	-0.122
Mof_C 	C 	0.3666	0.28471	0.17819	-0.014
Mof_H 	H 	0.3685	0.2694	0.203	0.038
Mof_H 	H 	0.3548	0.3107	0.1846	0.029
Mof_N 	N 	0.40728	0.29076	0.16146	-0.288
Mof_H 	H 	0.4175	0.2691	0.1586	0.162
Mof_C 	C 	0.4361	0.31506	0.18495	-0.007
Mof_C 	C 	0.44768	0.29628	0.22508	-0.106
Mof_H 	H 	0.4735	0.2828	0.223	0.063
Mof_H 	H 	0.4276	0.2767	0.2334	0.061
Mof_C 	C 	0.4499	0.3298	0.2546	-0.081
Mof_H 	H 	0.446	0.3203	0.282	0.042
Mof_H 	H 	0.4754	0.344	0.2528	0.055
Mof_C 	C 	0.4146	0.3566	0.2406	-0.058
Mof_H 	H 	0.4168	0.3835	0.2517	0.035
Mof_H 	H 	0.389	0.3451	0.2486	0.039
Mof_C 	C 	0.41893	0.35703	0.19571	-0.128
Mof_H 	H 	0.393	0.3612	0.1828	0.045
Mof_H 	H 	0.4372	0.3782	0.1873	0.063
Mof_C 	C 	0.47193	0.32233	0.1576	0.292
Mof_O 	O 	0.46442	0.32344	0.12002	-0.392
Mof_O 	O 	0.50497	0.32794	0.1726	-0.349
Mof_C 	C 	0.4439	0.3697	0.2322	-0.002
Mof_Cu	Cu	0.90852	0.8137	0.60684	0.922
Mof_O 	O 	0.85049	0.81434	0.60236	-0.482
Mof_C 	C 	0.83232	0.77989	0.61182	0.252
Mof_C 	C 	0.80689	0.76104	0.58514	-0.261
Mof_H 	H 	0.8019	0.7725	0.5601	0.12
Mof_C 	C 	0.78911	0.72565	0.59547	0.113
Mof_H 	H 	0.7719	0.7129	0.5774	-0.02
Mof_C 	C 	0.79638	0.70866	0.63236	-0.162
Mof_H 	H 	0.7841	0.6844	0.6394	0.075
Mof_C 	C 	0.8218	0.72751	0.65892	0.051
Mof_H 	H 	0.8267	0.7159	0.6839	0.014
Mof_C 	C 	0.84001	0.763	0.64926	-0.122
Mof_C 	C 	0.8666	0.78471	0.67819	-0.014
Mof_H 	H 	0.8685	0.7694	0.703	0.038
Mof_H 	H 	0.8548	0.8107	0.6846	0.029
Mof_N 	N 	0.90728	0.79076	0.66146	-0.288
Mof_H 	H 	0.9175	0.7691	0.6586	0.162
Mof_C 	C 	0.9361	0.81506	0.68495	-0.007
Mof_C 	C 	0.94768	0.79628	0.72508	-0.106
Mof_H 	H 	0.9735	0.7828	0.723	0.063
Mof_H 	H 	0.9276	0.7767	0.7334	0.061
Mof_C 	C 	0.9499	0.8298	0.7546	-0.081
Mof_H 	H 	0.946	0.8203	0.782	0.042
Mof_H 	H 	0.9754	0.844	0.7528	0.055
Mof_C 	C 	0.9146	0.8566	0.7406	-0.058
Mof_H 	H 	0.9168	0.8835	0.7517	0.035
Mof_H 	H 	0.889	0.8451	0.7486	0.039
Mof_C 	C 	0.91893	0.85703	0.69571	-0.128
Mof_H 	H 	0.893	0.8612	0.6828	0.045
Mof_H 	H 	0.9372	0.8782	0.6873	0.063
Mof_C 	C 	0.97193	0.82233	0.6576	0.292
Mof_O 	O 	0.96442	0.82344	0.62002	-0.392
Mof_O 	O 	0.00497	0.82794	0.6726	-0.349
Mof_C 	C 	0.9439	0.8697	0.7322	-0.002
Mof_Cu	Cu	0.59148	0.8137	0.39316	0.922
Mof_O 	O 	0.64951	0.81434	0.39764	-0.482
Mof_C 	C 	0.66768	0.77989	0.38818	0.252
Mof_C 	C 	0.69311	0.76104	0.41486	-0.261
Mof_H 	H 	0.6981	0.7725	0.4399	0.12
Mof_C 	C 	0.71089	0.72565	0.40453	0.113
Mof_H 	H 	0.7281	0.7129	0.4226	-0.02
Mof_C 	C 	0.70362	0.70866	0.36764	-0.162
Mof_H 	H 	0.7159	0.6844	0.3606	0.075
Mof_C 	C 	0.6782	0.72751	0.34108	0.051
Mof_H 	H 	0.6733	0.7159	0.3161	0.014
Mof_C 	C 	0.65999	0.763	0.35074	-0.122
Mof_C 	C 	0.6334	0.78471	0.32181	-0.014
Mof_H 	H 	0.6315	0.7694	0.297	0.038
Mof_H 	H 	0.6452	0.8107	0.3154	0.029
Mof_N 	N 	0.59272	0.79076	0.33854	-0.288
Mof_H 	H 	0.5825	0.7691	0.3414	0.162
Mof_C 	C 	0.5639	0.81506	0.31505	-0.007
Mof_C 	C 	0.55232	0.79628	0.27492	-0.106
Mof_H 	H 	0.5265	0.7828	0.277	0.063
Mof_H 	H 	0.5724	0.7767	0.2666	0.061
Mof_C 	C 	0.5501	0.8298	0.2454	-0.081
Mof_H 	H 	0.554	0.8203	0.218	0.042
Mof_H 	H 	0.5246	0.844	0.2472	0.055
Mof_C 	C 	0.5854	0.8566	0.2594	-0.058
Mof_H 	H 	0.5832	0.8835	0.2483	0.035
Mof_H 	H 	0.611	0.8451	0.2514	0.039
Mof_C 	C 	0.58107	0.85703	0.30429	-0.128
Mof_H 	H 	0.607	0.8612	0.3172	0.045
Mof_H 	H 	0.5628	0.8782	0.3127	0.063
Mof_C 	C 	0.52807	0.82233	0.3424	0.292
Mof_O 	O 	0.53558	0.82344	0.37998	-0.392
Mof_O 	O 	0.49503	0.82794	0.3274	-0.349
Mof_C 	C 	0.5561	0.8697	0.2678	-0.002
Mof_Cu	Cu	0.09148	0.3137	0.89316	0.922
Mof_O 	O 	0.14951	0.31434	0.89764	-0.482
Mof_C 	C 	0.16768	0.27989	0.88818	0.252
Mof_C 	C 	0.19311	0.26104	0.91486	-0.261
Mof_H 	H 	0.1981	0.2725	0.9399	0.12
Mof_C 	C 	0.21089	0.22565	0.90453	0.113
Mof_H 	H 	0.2281	0.2129	0.9226	-0.02
Mof_C 	C 	0.20362	0.20866	0.86764	-0.162
Mof_H 	H 	0.2159	0.1844	0.8606	0.075
Mof_C 	C 	0.1782	0.22751	0.84108	0.051
Mof_H 	H 	0.1733	0.2159	0.8161	0.014
Mof_C 	C 	0.15999	0.263	0.85074	-0.122
Mof_C 	C 	0.1334	0.28471	0.82181	-0.014
Mof_H 	H 	0.1315	0.2694	0.797	0.038
Mof_H 	H 	0.1452	0.3107	0.8154	0.029
Mof_N 	N 	0.09272	0.29076	0.83854	-0.288
Mof_H 	H 	0.0825	0.2691	0.8414	0.162
Mof_C 	C 	0.0639	0.31506	0.81505	-0.007
Mof_C 	C 	0.05232	0.29628	0.77492	-0.106
Mof_H 	H 	0.0265	0.2828	0.777	0.063
Mof_H 	H 	0.0724	0.2767	0.7666	0.061
Mof_C 	C 	0.0501	0.3298	0.7454	-0.081
Mof_H 	H 	0.054	0.3203	0.718	0.042
Mof_H 	H 	0.0246	0.344	0.7472	0.055
Mof_C 	C 	0.0854	0.3566	0.7594	-0.058
Mof_H 	H 	0.0832	0.3835	0.7483	0.035
Mof_H 	H 	0.111	0.3451	0.7514	0.039
Mof_C 	C 	0.08107	0.35703	0.80429	-0.128
Mof_H 	H 	0.107	0.3612	0.8172	0.045
Mof_H 	H 	0.0628	0.3782	0.8127	0.063
Mof_C 	C 	0.02807	0.32233	0.8424	0.292
Mof_O 	O 	0.03558	0.32344	0.87998	-0.392
Mof_O 	O 	0.99503	0.32794	0.8274	-0.349
Mof_C 	C 	0.0561	0.3697	0.7678	-0.002
Mof_Cu	Cu	0.90852	0.1863	0.89316	0.922
Mof_O 	O 	0.85049	0.18566	0.89764	-0.482
Mof_C 	C 	0.83232	0.22011	0.88818	0.252
Mof_C 	C 	0.80689	0.23896	0.91486	-0.261
Mof_H 	H 	0.8019	0.2275	0.9399	0.12
Mof_C 	C 	0.78911	0.27435	0.90453	0.113
Mof_H 	H 	0.7719	0.2871	0.9226	-0.02
Mof_C 	C 	0.79638	0.29134	0.86764	-0.162
Mof_H 	H 	0.7841	0.3156	0.8606	0.075
Mof_C 	C 	0.8218	0.27249	0.84108	0.051
Mof_H 	H 	0.8267	0.2841	0.8161	0.014
Mof_C 	C 	0.84001	0.237	0.85074	-0.122
Mof_C 	C 	0.8666	0.21529	0.82181	-0.014
Mof_H 	H 	0.8685	0.2306	0.797	0.038
Mof_H 	H 	0.8548	0.1893	0.8154	0.029
Mof_N 	N 	0.90728	0.20924	0.83854	-0.288
Mof_H 	H 	0.9175	0.2309	0.8414	0.162
Mof_C 	C 	0.9361	0.18494	0.81505	-0.007
Mof_C 	C 	0.94768	0.20372	0.77492	-0.106
Mof_H 	H 	0.9735	0.2172	0.777	0.063
Mof_H 	H 	0.9276	0.2233	0.7666	0.061
Mof_C 	C 	0.9499	0.1702	0.7454	-0.081
Mof_H 	H 	0.946	0.1797	0.718	0.042
Mof_H 	H 	0.9754	0.156	0.7472	0.055
Mof_C 	C 	0.9146	0.1434	0.7594	-0.058
Mof_H 	H 	0.9168	0.1165	0.7483	0.035
Mof_H 	H 	0.889	0.1549	0.7514	0.039
Mof_C 	C 	0.91893	0.14297	0.80429	-0.128
Mof_H 	H 	0.893	0.1388	0.8172	0.045
Mof_H 	H 	0.9372	0.1218	0.8127	0.063
Mof_C 	C 	0.97193	0.17767	0.8424	0.292
Mof_O 	O 	0.96442	0.17656	0.87998	-0.392
Mof_O 	O 	0.00497	0.17206	0.8274	-0.349
Mof_C 	C 	0.9439	0.1303	0.7678	-0.002
Mof_Cu	Cu	0.40852	0.6863	0.39316	0.922
Mof_O 	O 	0.35049	0.68566	0.39764	-0.482
Mof_C 	C 	0.33232	0.72011	0.38818	0.252
Mof_C 	C 	0.30689	0.73896	0.41486	-0.261
Mof_H 	H 	0.3019	0.7275	0.4399	0.12
Mof_C 	C 	0.28911	0.77435	0.40453	0.113
Mof_H 	H 	0.2719	0.7871	0.4226	-0.02
Mof_C 	C 	0.29638	0.79134	0.36764	-0.162
Mof_H 	H 	0.2841	0.8156	0.3606	0.075
Mof_C 	C 	0.3218	0.77249	0.34108	0.051
Mof_H 	H 	0.3267	0.7841	0.3161	0.014
Mof_C 	C 	0.34001	0.737	0.35074	-0.122
Mof_C 	C 	0.3666	0.71529	0.32181	-0.014
Mof_H 	H 	0.3685	0.7306	0.297	0.038
Mof_H 	H 	0.3548	0.6893	0.3154	0.029
Mof_N 	N 	0.40728	0.70924	0.33854	-0.288
Mof_H 	H 	0.4175	0.7309	0.3414	0.162
Mof_C 	C 	0.4361	0.68494	0.31505	-0.007
Mof_C 	C 	0.44768	0.70372	0.27492	-0.106
Mof_H 	H 	0.4735	0.7172	0.277	0.063
Mof_H 	H 	0.4276	0.7233	0.2666	0.061
Mof_C 	C 	0.4499	0.6702	0.2454	-0.081
Mof_H 	H 	0.446	0.6797	0.218	0.042
Mof_H 	H 	0.4754	0.656	0.2472	0.055
Mof_C 	C 	0.4146	0.6434	0.2594	-0.058
Mof_H 	H 	0.4168	0.6165	0.2483	0.035
Mof_H 	H 	0.389	0.6549	0.2514	0.039
Mof_C 	C 	0.41893	0.64297	0.30429	-0.128
Mof_H 	H 	0.393	0.6388	0.3172	0.045
Mof_H 	H 	0.4372	0.6218	0.3127	0.063
Mof_C 	C 	0.47193	0.67767	0.3424	0.292
Mof_O 	O 	0.46442	0.67656	0.37998	-0.392
Mof_O 	O 	0.50497	0.67206	0.3274	-0.349
Mof_C 	C 	0.4439	0.6303	0.2678	-0.002
Mof_Cu	Cu	0.1863	0.89316	0.90852	0.922
Mof_O 	O 	0.18566	0.89764	0.85049	-0.482
Mof_C 	C 	0.22011	0.88818	0.83232	0.252
Mof_C 	C 	0.23896	0.91486	0.80689	-0.261
Mof_H 	H 	0.2275	0.9399	0.8019	0.12
Mof_C 	C 	0.27435	0.90453	0.78911	0.113
Mof_H 	H 	0.2871	0.9226	0.7719	-0.02
Mof_C 	C 	0.29134	0.86764	0.79638	-0.162
Mof_H 	H 	0.3156	0.8606	0.7841	0.075
Mof_C 	C 	0.27249	0.84108	0.8218	0.051
Mof_H 	H 	0.2841	0.8161	0.8267	0.014
Mof_C 	C 	0.237	0.85074	0.84001	-0.122
Mof_C 	C 	0.21529	0.82181	0.8666	-0.014
Mof_H 	H 	0.2306	0.797	0.8685	0.038
Mof_H 	H 	0.1893	0.8154	0.8548	0.029
Mof_N 	N 	0.20924	0.83854	0.90728	-0.288
Mof_H 	H 	0.2309	0.8414	0.9175	0.162
Mof_C 	C 	0.18494	0.81505	0.9361	-0.007
Mof_C 	C 	0.20372	0.77492	0.94768	-0.106
Mof_H 	H 	0.2172	0.777	0.9735	0.063
Mof_H 	H 	0.2233	0.7666	0.9276	0.061
Mof_C 	C 	0.1702	0.7454	0.9499	-0.081
Mof_H 	H 	0.1797	0.718	0.946	0.042
Mof_H 	H 	0.156	0.7472	0.9754	0.055
Mof_C 	C 	0.1434	0.7594	0.9146	-0.058
Mof_H 	H 	0.1165	0.7483	0.9168	0.035
Mof_H 	H 	0.1549	0.7514	0.889	0.039
Mof_C 	C 	0.14297	0.80429	0.91893	-0.128
Mof_H 	H 	0.1388	0.8172	0.893	0.045
Mof_H 	H 	0.1218	0.8127	0.9372	0.063
Mof_C 	C 	0.17767	0.8424	0.97193	0.292
Mof_O 	O 	0.17656	0.87998	0.96442	-0.392
Mof_O 	O 	0.17206	0.8274	0.00497	-0.349
Mof_C 	C 	0.1303	0.7678	0.9439	-0.002
Mof_Cu	Cu	0.6863	0.39316	0.40852	0.922
Mof_O 	O 	0.68566	0.39764	0.35049	-0.482
Mof_C 	C 	0.72011	0.38818	0.33232	0.252
Mof_C 	C 	0.73896	0.41486	0.30689	-0.261
Mof_H 	H 	0.7275	0.4399	0.3019	0.12
Mof_C 	C 	0.77435	0.40453	0.28911	0.113
Mof_H 	H 	0.7871	0.4226	0.2719	-0.02
Mof_C 	C 	0.79134	0.36764	0.29638	-0.162
Mof_H 	H 	0.8156	0.3606	0.2841	0.075
Mof_C 	C 	0.77249	0.34108	0.3218	0.051
Mof_H 	H 	0.7841	0.3161	0.3267	0.014
Mof_C 	C 	0.737	0.35074	0.34001	-0.122
Mof_C 	C 	0.71529	0.32181	0.3666	-0.014
Mof_H 	H 	0.7306	0.297	0.3685	0.038
Mof_H 	H 	0.6893	0.3154	0.3548	0.029
Mof_N 	N 	0.70924	0.33854	0.40728	-0.288
Mof_H 	H 	0.7309	0.3414	0.4175	0.162
Mof_C 	C 	0.68494	0.31505	0.4361	-0.007
Mof_C 	C 	0.70372	0.27492	0.44768	-0.106
Mof_H 	H 	0.7172	0.277	0.4735	0.063
Mof_H 	H 	0.7233	0.2666	0.4276	0.061
Mof_C 	C 	0.6702	0.2454	0.4499	-0.081
Mof_H 	H 	0.6797	0.218	0.446	0.042
Mof_H 	H 	0.656	0.2472	0.4754	0.055
Mof_C 	C 	0.6434	0.2594	0.4146	-0.058
Mof_H 	H 	0.6165	0.2483	0.4168	0.035
Mof_H 	H 	0.6549	0.2514	0.389	0.039
Mof_C 	C 	0.64297	0.30429	0.41893	-0.128
Mof_H 	H 	0.6388	0.3172	0.393	0.045
Mof_H 	H 	0.6218	0.3127	0.4372	0.063
Mof_C 	C 	0.67767	0.3424	0.47193	0.292
Mof_O 	O 	0.67656	0.37998	0.46442	-0.392
Mof_O 	O 	0.67206	0.3274	0.50497	-0.349
Mof_C 	C 	0.6303	0.2678	0.4439	-0.002
Mof_Cu	Cu	0.8137	0.39316	0.59148	0.922
Mof_O 	O 	0.81434	0.39764	0.64951	-0.482
Mof_C 	C 	0.77989	0.38818	0.66768	0.252
Mof_C 	C 	0.76104	0.41486	0.69311	-0.261
Mof_H 	H 	0.7725	0.4399	0.6981	0.12
Mof_C 	C 	0.72565	0.40453	0.71089	0.113
Mof_H 	H 	0.7129	0.4226	0.7281	-0.02
Mof_C 	C 	0.70866	0.36764	0.70362	-0.162
Mof_H 	H 	0.6844	0.3606	0.7159	0.075
Mof_C 	C 	0.72751	0.34108	0.6782	0.051
Mof_H 	H 	0.7159	0.3161	0.6733	0.014
Mof_C 	C 	0.763	0.35074	0.65999	-0.122
Mof_C 	C 	0.78471	0.32181	0.6334	-0.014
Mof_H 	H 	0.7694	0.297	0.6315	0.038
Mof_H 	H 	0.8107	0.3154	0.6452	0.029
Mof_N 	N 	0.79076	0.33854	0.59272	-0.288
Mof_H 	H 	0.7691	0.3414	0.5825	0.162
Mof_C 	C 	0.81506	0.31505	0.5639	-0.007
Mof_C 	C 	0.79628	0.27492	0.55232	-0.106
Mof_H 	H 	0.7828	0.277	0.5265	0.063
Mof_H 	H 	0.7767	0.2666	0.5724	0.061
Mof_C 	C 	0.8298	0.2454	0.5501	-0.081
Mof_H 	H 	0.8203	0.218	0.554	0.042
Mof_H 	H 	0.844	0.2472	0.5246	0.055
Mof_C 	C 	0.8566	0.2594	0.5854	-0.058
Mof_H 	H 	0.8835	0.2483	0.5832	0.035
Mof_H 	H 	0.8451	0.2514	0.611	0.039
Mof_C 	C 	0.85703	0.30429	0.58107	-0.128
Mof_H 	H 	0.8612	0.3172	0.607	0.045
Mof_H 	H 	0.8782	0.3127	0.5628	0.063
Mof_C 	C 	0.82233	0.3424	0.52807	0.292
Mof_O 	O 	0.82344	0.37998	0.53558	-0.392
Mof_O 	O 	0.82794	0.3274	0.49503	-0.349
Mof_C 	C 	0.8697	0.2678	0.5561	-0.002
Mof_Cu	Cu	0.3137	0.89316	0.09148	0.922
Mof_O 	O 	0.31434	0.89764	0.14951	-0.482
Mof_C 	C 	0.27989	0.88818	0.16768	0.252
Mof_C 	C 	0.26104	0.91486	0.19311	-0.261
Mof_H 	H 	0.2725	0.9399	0.1981	0.12
Mof_C 	C 	0.22565	0.90453	0.21089	0.113
Mof_H 	H 	0.2129	0.9226	0.2281	-0.02
Mof_C 	C 	0.20866	0.86764	0.20362	-0.162
Mof_H 	H 	0.1844	0.8606	0.2159	0.075
Mof_C 	C 	0.22751	0.84108	0.1782	0.051
Mof_H 	H 	0.2159	0.8161	0.1733	0.014
Mof_C 	C 	0.263	0.85074	0.15999	-0.122
Mof_C 	C 	0.28471	0.82181	0.1334	-0.014
Mof_H 	H 	0.2694	0.797	0.1315	0.038
Mof_H 	H 	0.3107	0.8154	0.1452	0.029
Mof_N 	N 	0.29076	0.83854	0.09272	-0.288
Mof_H 	H 	0.2691	0.8414	0.0825	0.162
Mof_C 	C 	0.31506	0.81505	0.0639	-0.007
Mof_C 	C 	0.29628	0.77492	0.05232	-0.106
Mof_H 	H 	0.2828	0.777	0.0265	0.063
Mof_H 	H 	0.2767	0.7666	0.0724	0.061
Mof_C 	C 	0.3298	0.7454	0.0501	-0.081
Mof_H 	H 	0.3203	0.718	0.054	0.042
Mof_H 	H 	0.344	0.7472	0.0246	0.055
Mof_C 	C 	0.3566	0.7594	0.0854	-0.058
Mof_H 	H 	0.3835	0.7483	0.0832	0.035
Mof_H 	H 	0.3451	0.7514	0.111	0.039
Mof_C 	C 	0.35703	0.80429	0.08107	-0.128
Mof_H 	H 	0.3612	0.8172	0.107	0.045
Mof_H 	H 	0.3782	0.8127	0.0628	0.063
Mof_C 	C 	0.32233	0.8424	0.02807	0.292
Mof_O 	O 	0.32344	0.87998	0.03558	-0.392
Mof_O 	O 	0.32794	0.8274	0.99503	-0.349
Mof_C 	C 	0.3697	0.7678	0.0561	-0.002
Mof_Cu	Cu	0.3137	0.10684	0.40852	0.922
Mof_O 	O 	0.31434	0.10236	0.35049	-0.482
Mof_C 	C 	0.27989	0.11182	0.33232	0.252
Mof_C 	C 	0.26104	0.08514	0.30689	-0.261
Mof_H 	H 	0.2725	0.0601	0.3019	0.12
Mof_C 	C 	0.22565	0.09547	0.28911	0.113
Mof_H 	H 	0.2129	0.0774	0.2719	-0.02
Mof_C 	C 	0.20866	0.13236	0.29638	-0.162
Mof_H 	H 	0.1844	0.1394	0.2841	0.075
Mof_C 	C 	0.22751	0.15892	0.3218	0.051
Mof_H 	H 	0.2159	0.1839	0.3267	0.014
Mof_C 	C 	0.263	0.14926	0.34001	-0.122
Mof_C 	C 	0.28471	0.17819	0.3666	-0.014
Mof_H 	H 	0.2694	0.203	0.3685	0.038
Mof_H 	H 	0.3107	0.1846	0.3548	0.029
Mof_N 	N 	0.29076	0.16146	0.40728	-0.288
Mof_H 	H 	0.2691	0.1586	0.4175	0.162
Mof_C 	C 	0.31506	0.18495	0.4361	-0.007
Mof_C 	C 	0.29628	0.22508	0.44768	-0.106
Mof_H 	H 	0.2828	0.223	0.4735	0.063
Mof_H 	H 	0.2767	0.2334	0.4276	0.061
Mof_C 	C 	0.3298	0.2546	0.4499	-0.081
Mof_H 	H 	0.3203	0.282	0.446	0.042
Mof_H 	H 	0.344	0.2528	0.4754	0.055
Mof_C 	C 	0.3566	0.2406	0.4146	-0.058
Mof_H 	H 	0.3835	0.2517	0.4168	0.035
Mof_H 	H 	0.3451	0.2486	0.389	0.039
Mof_C 	C 	0.35703	0.19571	0.41893	-0.128
Mof_H 	H 	0.3612	0.1828	0.393	0.045
Mof_H 	H 	0.3782	0.1873	0.4372	0.063
Mof_C 	C 	0.32233	0.1576	0.47193	0.292
Mof_O 	O 	0.32344	0.12002	0.46442	-0.392
Mof_O 	O 	0.32794	0.1726	0.50497	-0.349
Mof_C 	C 	0.3697	0.2322	0.4439	-0.002
Mof_Cu	Cu	0.8137	0.60684	0.90852	0.922
Mof_O 	O 	0.81434	0.60236	0.85049	-0.482
Mof_C 	C 	0.77989	0.61182	0.83232	0.252
Mof_C 	C 	0.76104	0.58514	0.80689	-0.261
Mof_H 	H 	0.7725	0.5601	0.8019	0.12
Mof_C 	C 	0.72565	0.59547	0.78911	0.113
Mof_H 	H 	0.7129	0.5774	0.7719	-0.02
Mof_C 	C 	0.70866	0.63236	0.79638	-0.162
Mof_H 	H 	0.6844	0.6394	0.7841	0.075
Mof_C 	C 	0.72751	0.65892	0.8218	0.051
Mof_H 	H 	0.7159	0.6839	0.8267	0.014
Mof_C 	C 	0.763	0.64926	0.84001	-0.122
Mof_C 	C 	0.78471	0.67819	0.8666	-0.014
Mof_H 	H 	0.7694	0.703	0.8685	0.038
Mof_H 	H 	0.8107	0.6846	0.8548	0.029
Mof_N 	N 	0.79076	0.66146	0.90728	-0.288
Mof_H 	H 	0.7691	0.6586	0.9175	0.162
Mof_C 	C 	0.81506	0.68495	0.9361	-0.007
Mof_C 	C 	0.79628	0.72508	0.94768	-0.106
Mof_H 	H 	0.7828	0.723	0.9735	0.063
Mof_H 	H 	0.7767	0.7334	0.9276	0.061
Mof_C 	C 	0.8298	0.7546	0.9499	-0.081
Mof_H 	H 	0.8203	0.782	0.946	0.042
Mof_H 	H 	0.844	0.7528	0.9754	0.055
Mof_C 	C 	0.8566	0.7406	0.9146	-0.058
Mof_H 	H 	0.8835	0.7517	0.9168	0.035
Mof_H 	H 	0.8451	0.7486	0.889	0.039
Mof_C 	C 	0.85703	0.69571	0.91893	-0.128
Mof_H 	H 	0.8612	0.6828	0.893	0.045
Mof_H 	H 	0.8782	0.6873	0.9372	0.063
Mof_C 	C 	0.82233	0.6576	0.97193	0.292
Mof_O 	O 	0.82344	0.62002	0.96442	-0.392
Mof_O 	O 	0.82794	0.6726	0.00497	-0.349
Mof_C 	C 	0.8697	0.7322	0.9439	-0.002
Mof_Cu	Cu	0.6863	0.60684	0.09148	0.922
Mof_O 	O 	0.68566	0.60236	0.14951	-0.482
Mof_C 	C 	0.72011	0.61182	0.16768	0.252
Mof_C 	C 	0.73896	0.58514	0.19311	-0.261
Mof_H 	H 	0.7275	0.5601	0.1981	0.12
Mof_C 	C 	0.77435	0.59547	0.21089	0.113
Mof_H 	H 	0.7871	0.5774	0.2281	-0.02
Mof_C 	C 	0.79134	0.63236	0.20362	-0.162
Mof_H 	H 	0.8156	0.6394	0.2159	0.075
Mof_C 	C 	0.77249	0.65892	0.1782	0.051
Mof_H 	H 	0.7841	0.6839	0.1733	0.014
Mof_C 	C 	0.737	0.64926	0.15999	-0.122
Mof_C 	C 	0.71529	0.67819	0.1334	-0.014
Mof_H 	H 	0.7306	0.703	0.1315	0.038
Mof_H 	H 	0.6893	0.6846	0.1452	0.029
Mof_N 	N 	0.70924	0.66146	0.09272	-0.288
Mof_H 	H 	0.7309	0.6586	0.0825	0.162
Mof_C 	C 	0.68494	0.68495	0.0639	-0.007
Mof_C 	C 	0.70372	0.72508	0.05232	-0.106
Mof_H 	H 	0.7172	0.723	0.0265	0.063
Mof_H 	H 	0.7233	0.7334	0.0724	0.061
Mof_C 	C 	0.6702	0.7546	0.0501	-0.081
Mof_H 	H 	0.6797	0.782	0.054	0.042
Mof_H 	H 	0.656	0.7528	0.0246	0.055
Mof_C 	C 	0.6434	0.7406	0.0854	-0.058
Mof_H 	H 	0.6165	0.7517	0.0832	0.035
Mof_H 	H 	0.6549	0.7486	0.111	0.039
Mof_C 	C 	0.64297	0.69571	0.08107	-0.128
Mof_H 	H 	0.6388	0.6828	0.107	0.045
Mof_H 	H 	0.6218	0.6873	0.0628	0.063
Mof_C 	C 	0.67767	0.6576	0.02807	0.292
Mof_O 	O 	0.67656	0.62002	0.03558	-0.392
Mof_O 	O 	0.67206	0.6726	0.99503	-0.349
Mof_C 	C 	0.6303	0.7322	0.0561	-0.002
Mof_Cu	Cu	0.1863	0.10684	0.59148	0.922
Mof_O 	O 	0.18566	0.10236	0.64951	-0.482
Mof_C 	C 	0.22011	0.11182	0.66768	0.252
Mof_C 	C 	0.23896	0.08514	0.69311	-0.261
Mof_H 	H 	0.2275	0.0601	0.6981	0.12
Mof_C 	C 	0.27435	0.09547	0.71089	0.113
Mof_H 	H 	0.2871	0.0774	0.7281	-0.02
Mof_C 	C 	0.29134	0.13236	0.70362	-0.162
Mof_H 	H 	0.3156	0.1394	0.7159	0.075
Mof_C 	C 	0.27249	0.15892	0.6782	0.051
Mof_H 	H 	0.2841	0.1839	0.6733	0.014
Mof_C 	C 	0.237	0.14926	0.65999	-0.122
Mof_C 	C 	0.21529	0.17819	0.6334	-0.014
Mof_H 	H 	0.2306	0.203	0.6315	0.038
Mof_H 	H 	0.1893	0.1846	0.6452	0.029
Mof_N 	N 	0.20924	0.16146	0.59272	-0.288
Mof_H 	H 	0.2309	0.1586	0.5825	0.162
Mof_C 	C 	0.18494	0.18495	0.5639	-0.007
Mof_C 	C 	0.20372	0.22508	0.55232	-0.106
Mof_H 	H 	0.2172	0.223	0.5265	0.063
Mof_H 	H 	0.2233	0.2334	0.5724	0.061
Mof_C 	C 	0.1702	0.2546	0.5501	-0.081
Mof_H 	H 	0.1797	0.282	0.554	0.042
Mof_H 	H 	0.156	0.2528	0.5246	0.055
Mof_C 	C 	0.1434	0.2406	0.5854	-0.058
Mof_H 	H 	0.1165	0.2517	0.5832	0.035
Mof_H 	H 	0.1549	0.2486	0.611	0.039
Mof_C 	C 	0.14297	0.19571	0.58107	-0.128
Mof_H 	H 	0.1388	0.1828	0.607	0.045
Mof_H 	H 	0.1218	0.1873	0.5628	0.063
Mof_C 	C 	0.17767	0.1576	0.52807	0.292
Mof_O 	O 	0.17656	0.12002	0.53558	-0.392
Mof_O 	O 	0.17206	0.1726	0.49503	-0.349
Mof_C 	C 	0.1303	0.2322	0.5561	-0.002
Mof_Cu	Cu	0.39316	0.59148	0.8137	0.922
Mof_O 	O 	0.39764	0.64951	0.81434	-0.482
Mof_C 	C 	0.38818	0.66768	0.77989	0.252
Mof_C 	C 	0.41486	0.69311	0.76104	-0.261
Mof_H 	H 	0.4399	0.6981	0.7725	0.12
Mof_C 	C 	0.40453	0.71089	0.72565	0.113
Mof_H 	H 	0.4226	0.7281	0.7129	-0.02
Mof_C 	C 	0.36764	0.70362	0.70866	-0.162
Mof_H 	H 	0.3606	0.7159	0.6844	0.075
Mof_C 	C 	0.34108	0.6782	0.72751	0.051
Mof_H 	H 	0.3161	0.6733	0.7159	0.014
Mof_C 	C 	0.35074	0.65999	0.763	-0.122
Mof_C 	C 	0.32181	0.6334	0.78471	-0.014
Mof_H 	H 	0.297	0.6315	0.7694	0.038
Mof_H 	H 	0.3154	0.6452	0.8107	0.029
Mof_N 	N 	0.33854	0.59272	0.79076	-0.288
Mof_H 	H 	0.3414	0.5825	0.7691	0.162
Mof_C 	C 	0.31505	0.5639	0.81506	-0.007
Mof_C 	C 	0.27492	0.55232	0.79628	-0.106
Mof_H 	H 	0.277	0.5265	0.7828	0.063
Mof_H 	H 	0.2666	0.5724	0.7767	0.061
Mof_C 	C 	0.2454	0.5501	0.8298	-0.081
Mof_H 	H 	0.218	0.554	0.8203	0.042
Mof_H 	H 	0.2472	0.5246	0.844	0.055
Mof_C 	C 	0.2594	0.5854	0.8566	-0.058
Mof_H 	H 	0.2483	0.5832	0.8835	0.035
Mof_H 	H 	0.2514	0.611	0.8451	0.039
Mof_C 	C 	0.30429	0.58107	0.85703	-0.128
Mof_H 	H 	0.3172	0.607	0.8612	0.045
Mof_H 	H 	0.3127	0.5628	0.8782	0.063
Mof_C 	C 	0.3424	0.52807	0.82233	0.292
Mof_O 	O 	0.37998	0.53558	0.82344	-0.392
Mof_O 	O 	0.3274	0.49503	0.82794	-0.349
Mof_C 	C 	0.2678	0.5561	0.8697	-0.002
Mof_Cu	Cu	0.89316	0.09148	0.3137	0.922
Mof_O 	O 	0.89764	0.14951	0.31434	-0.482
Mof_C 	C 	0.88818	0.16768	0.27989	0.252
Mof_C 	C 	0.91486	0.19311	0.26104	-0.261
Mof_H 	H 	0.9399	0.1981	0.2725	0.12
Mof_C 	C 	0.90453	0.21089	0.22565	0.113
Mof_H 	H 	0.9226	0.2281	0.2129	-0.02
Mof_C 	C 	0.86764	0.20362	0.20866	-0.162
Mof_H 	H 	0.8606	0.2159	0.1844	0.075
Mof_C 	C 	0.84108	0.1782	0.22751	0.051
Mof_H 	H 	0.8161	0.1733	0.2159	0.014
Mof_C 	C 	0.85074	0.15999	0.263	-0.122
Mof_C 	C 	0.82181	0.1334	0.28471	-0.014
Mof_H 	H 	0.797	0.1315	0.2694	0.038
Mof_H 	H 	0.8154	0.1452	0.3107	0.029
Mof_N 	N 	0.83854	0.09272	0.29076	-0.288
Mof_H 	H 	0.8414	0.0825	0.2691	0.162
Mof_C 	C 	0.81505	0.0639	0.31506	-0.007
Mof_C 	C 	0.77492	0.05232	0.29628	-0.106
Mof_H 	H 	0.777	0.0265	0.2828	0.063
Mof_H 	H 	0.7666	0.0724	0.2767	0.061
Mof_C 	C 	0.7454	0.0501	0.3298	-0.081
Mof_H 	H 	0.718	0.054	0.3203	0.042
Mof_H 	H 	0.7472	0.0246	0.344	0.055
Mof_C 	C 	0.7594	0.0854	0.3566	-0.058
Mof_H 	H 	0.7483	0.0832	0.3835	0.035
Mof_H 	H 	0.7514	0.111	0.3451	0.039
Mof_C 	C 	0.80429	0.08107	0.35703	-0.128
Mof_H 	H 	0.8172	0.107	0.3612	0.045
Mof_H 	H 	0.8127	0.0628	0.3782	0.063
Mof_C 	C 	0.8424	0.02807	0.32233	0.292
Mof_O 	O 	0.87998	0.03558	0.32344	-0.392
Mof_O 	O 	0.8274	0.99503	0.32794	-0.349
Mof_C 	C 	0.7678	0.0561	0.3697	-0.002
Mof_Cu	Cu	0.89316	0.90852	0.1863	0.922
Mof_O 	O 	0.89764	0.85049	0.18566	-0.482
Mof_C 	C 	0.88818	0.83232	0.22011	0.252
Mof_C 	C 	0.91486	0.80689	0.23896	-0.261
Mof_H 	H 	0.9399	0.8019	0.2275	0.12
Mof_C 	C 	0.90453	0.78911	0.27435	0.113
Mof_H 	H 	0.9226	0.7719	0.2871	-0.02
Mof_C 	C 	0.86764	0.79638	0.29134	-0.162
Mof_H 	H 	0.8606	0.7841	0.3156	0.075
Mof_C 	C 	0.84108	0.8218	0.27249	0.051
Mof_H 	H 	0.8161	0.8267	0.2841	0.014
Mof_C 	C 	0.85074	0.84001	0.237	-0.122
Mof_C 	C 	0.82181	0.8666	0.21529	-0.014
Mof_H 	H 	0.797	0.8685	0.2306	0.038
Mof_H 	H 	0.8154	0.8548	0.1893	0.029
Mof_N 	N 	0.83854	0.90728	0.20924	-0.288
Mof_H 	H 	0.8414	0.9175	0.2309	0.162
Mof_C 	C 	0.81505	0.9361	0.18494	-0.007
Mof_C 	C 	0.77492	0.94768	0.20372	-0.106
Mof_H 	H 	0.777	0.9735	0.2172	0.063
Mof_H 	H 	0.7666	0.9276	0.2233	0.061
Mof_C 	C 	0.7454	0.9499	0.1702	-0.081
Mof_H 	H 	0.718	0.946	0.1797	0.042
Mof_H 	H 	0.7472	0.9754	0.156	0.055
Mof_C 	C 	0.7594	0.9146	0.1434	-0.058
Mof_H 	H 	0.7483	0.9168	0.1165	0.035
Mof_H 	H 	0.7514	0.889	0.1549	0.039
Mof_C 	C 	0.80429	0.91893	0.14297	-0.128
Mof_H 	H 	0.8172	0.893	0.1388	0.045
Mof_H 	H 	0.8127	0.9372	0.1218	0.063
Mof_C 	C 	0.8424	0.97193	0.17767	0.292
Mof_O 	O 	0.87998	0.96442	0.17656	-0.392
Mof_O 	O 	0.8274	0.00497	0.17206	-0.349
Mof_C 	C 	0.7678	0.9439	0.1303	-0.002
Mof_Cu	Cu	0.39316	0.40852	0.6863	0.922
Mof_O 	O 	0.39764	0.35049	0.68566	-0.482
Mof_C 	C 	0.38818	0.33232	0.72011	0.252
Mof_C 	C 	0.41486	0.30689	0.73896	-0.261
Mof_H 	H 	0.4399	0.3019	0.7275	0.12
Mof_C 	C 	0.40453	0.28911	0.77435	0.113
Mof_H 	H 	0.4226	0.2719	0.7871	-0.02
Mof_C 	C 	0.36764	0.29638	0.79134	-0.162
Mof_H 	H 	0.3606	0.2841	0.8156	0.075
Mof_C 	C 	0.34108	0.3218	0.77249	0.051
Mof_H 	H 	0.3161	0.3267	0.7841	0.014
Mof_C 	C 	0.35074	0.34001	0.737	-0.122
Mof_C 	C 	0.32181	0.3666	0.71529	-0.014
Mof_H 	H 	0.297	0.3685	0.7306	0.038
Mof_H 	H 	0.3154	0.3548	0.6893	0.029
Mof_N 	N 	0.33854	0.40728	0.70924	-0.288
Mof_H 	H 	0.3414	0.4175	0.7309	0.162
Mof_C 	C 	0.31505	0.4361	0.68494	-0.007
Mof_C 	C 	0.27492	0.44768	0.70372	-0.106
Mof_H 	H 	0.277	0.4735	0.7172	0.063
Mof_H 	H 	0.2666	0.4276	0.7233	0.061
Mof_C 	C 	0.2454	0.4499	0.6702	-0.081
Mof_H 	H 	0.218	0.446	0.6797	0.042
Mof_H 	H 	0.2472	0.4754	0.656	0.055
Mof_C 	C 	0.2594	0.4146	0.6434	-0.058
Mof_H 	H 	0.2483	0.4168	0.6165	0.035
Mof_H 	H 	0.2514	0.389	0.6549	0.039
Mof_C 	C 	0.30429	0.41893	0.64297	-0.128
Mof_H 	H 	0.3172	0.393	0.6388	0.045
Mof_H 	H 	0.3127	0.4372	0.6218	0.063
Mof_C 	C 	0.3424	0.47193	0.67767	0.292
Mof_O 	O 	0.37998	0.46442	0.67656	-0.392
Mof_O 	O 	0.3274	0.50497	0.67206	-0.349
Mof_C 	C 	0.2678	0.4439	0.6303	-0.002
Mof_Cu	Cu	0.60684	0.09148	0.6863	0.922
Mof_O 	O 	0.60236	0.14951	0.68566	-0.482
Mof_C 	C 	0.61182	0.16768	0.72011	0.252
Mof_C 	C 	0.58514	0.19311	0.73896	-0.261
Mof_H 	H 	0.5601	0.1981	0.7275	0.12
Mof_C 	C 	0.59547	0.21089	0.77435	0.113
Mof_H 	H 	0.5774	0.2281	0.7871	-0.02
Mof_C 	C 	0.63236	0.20362	0.79134	-0.162
Mof_H 	H 	0.6394	0.2159	0.8156	0.075
Mof_C 	C 	0.65892	0.1782	0.77249	0.051
Mof_H 	H 	0.6839	0.1733	0.7841	0.014
Mof_C 	C 	0.64926	0.15999	0.737	-0.122
Mof_C 	C 	0.67819	0.1334	0.71529	-0.014
Mof_H 	H 	0.703	0.1315	0.7306	0.038
Mof_H 	H 	0.6846	0.1452	0.6893	0.029
Mof_N 	N 	0.66146	0.09272	0.70924	-0.288
Mof_H 	H 	0.6586	0.0825	0.7309	0.162
Mof_C 	C 	0.68495	0.0639	0.68494	-0.007
Mof_C 	C 	0.72508	0.05232	0.70372	-0.106
Mof_H 	H 	0.723	0.0265	0.7172	0.063
Mof_H 	H 	0.7334	0.0724	0.7233	0.061
Mof_C 	C 	0.7546	0.0501	0.6702	-0.081
Mof_H 	H 	0.782	0.054	0.6797	0.042
Mof_H 	H 	0.7528	0.0246	0.656	0.055
Mof_C 	C 	0.7406	0.0854	0.6434	-0.058
Mof_H 	H 	0.7517	0.0832	0.6165	0.035
Mof_H 	H 	0.7486	0.111	0.6549	0.039
Mof_C 	C 	0.69571	0.08107	0.64297	-0.128
Mof_H 	H 	0.6828	0.107	0.6388	0.045
Mof_H 	H 	0.6873	0.0628	0.6218	0.063
Mof_C 	C 	0.6576	0.02807	0.67767	0.292
Mof_O 	O 	0.62002	0.03558	0.67656	-0.392
Mof_O 	O 	0.6726	0.99503	0.67206	-0.349
Mof_C 	C 	0.7322	0.0561	0.6303	-0.002
Mof_Cu	Cu	0.10684	0.59148	0.1863	0.922
Mof_O 	O 	0.10236	0.64951	0.18566	-0.482
Mof_C 	C 	0.11182	0.66768	0.22011	0.252
Mof_C 	C 	0.08514	0.69311	0.23896	-0.261
Mof_H 	H 	0.0601	0.6981	0.2275	0.12
Mof_C 	C 	0.09547	0.71089	0.27435	0.113
Mof_H 	H 	0.0774	0.7281	0.2871	-0.02
Mof_C 	C 	0.13236	0.70362	0.29134	-0.162
Mof_H 	H 	0.1394	0.7159	0.3156	0.075
Mof_C 	C 	0.15892	0.6782	0.27249	0.051
Mof_H 	H 	0.1839	0.6733	0.2841	0.014
Mof_C 	C 	0.14926	0.65999	0.237	-0.122
Mof_C 	C 	0.17819	0.6334	0.21529	-0.014
Mof_H 	H 	0.203	0.6315	0.2306	0.038
Mof_H 	H 	0.1846	0.6452	0.1893	0.029
Mof_N 	N 	0.16146	0.59272	0.20924	-0.288
Mof_H 	H 	0.1586	0.5825	0.2309	0.162
Mof_C 	C 	0.18495	0.5639	0.18494	-0.007
Mof_C 	C 	0.22508	0.55232	0.20372	-0.106
Mof_H 	H 	0.223	0.5265	0.2172	0.063
Mof_H 	H 	0.2334	0.5724	0.2233	0.061
Mof_C 	C 	0.2546	0.5501	0.1702	-0.081
Mof_H 	H 	0.282	0.554	0.1797	0.042
Mof_H 	H 	0.2528	0.5246	0.156	0.055
Mof_C 	C 	0.2406	0.5854	0.1434	-0.058
Mof_H 	H 	0.2517	0.5832	0.1165	0.035
Mof_H 	H 	0.2486	0.611	0.1549	0.039
Mof_C 	C 	0.19571	0.58107	0.14297	-0.128
Mof_H 	H 	0.1828	0.607	0.1388	0.045
Mof_H 	H 	0.1873	0.5628	0.1218	0.063
Mof_C 	C 	0.1576	0.52807	0.17767	0.292
Mof_O 	O 	0.12002	0.53558	0.17656	-0.392
Mof_O 	O 	0.1726	0.49503	0.17206	-0.349
Mof_C 	C 	0.2322	0.5561	0.1303	-0.002
Mof_Cu	Cu	0.10684	0.40852	0.3137	0.922
Mof_O 	O 	0.10236	0.35049	0.31434	-0.482
Mof_C 	C 	0.11182	0.33232	0.27989	0.252
Mof_C 	C 	0.08514	0.30689	0.26104	-0.261
Mof_H 	H 	0.0601	0.3019	0.2725	0.12
Mof_C 	C 	0.09547	0.28911	0.22565	0.113
Mof_H 	H 	0.0774	0.2719	0.2129	-0.02
Mof_C 	C 	0.13236	0.29638	0.20866	-0.162
Mof_H 	H 	0.1394	0.2841	0.1844	0.075
Mof_C 	C 	0.15892	0.3218	0.22751	0.051
Mof_H 	H 	0.1839	0.3267	0.2159	0.014
Mof_C 	C 	0.14926	0.34001	0.263	-0.122
Mof_C 	C 	0.17819	0.3666	0.28471	-0.014
Mof_H 	H 	0.203	0.3685	0.2694	0.038
Mof_H 	H 	0.1846	0.3548	0.3107	0.029
Mof_N 	N 	0.16146	0.40728	0.29076	-0.288
Mof_H 	H 	0.1586	0.4175	0.2691	0.162
Mof_C 	C 	0.18495	0.4361	0.31506	-0.007
Mof_C 	C 	0.22508	0.44768	0.29628	-0.106
Mof_H 	H 	0.223	0.4735	0.2828	0.063
Mof_H 	H 	0.2334	0.4276	0.2767	0.061
Mof_C 	C 	0.2546	0.4499	0.3298	-0.081
Mof_H 	H 	0.282	0.446	0.3203	0.042
Mof_H 	H 	0.2528	0.4754	0.344	0.055
Mof_C 	C 	0.2406	0.4146	0.3566	-0.058
Mof_H 	H 	0.2517	0.4168	0.3835	0.035
Mof_H 	H 	0.2486	0.389	0.3451	0.039
Mof_C 	C 	0.19571	0.41893	0.35703	-0.128
Mof_H 	H 	0.1828	0.393	0.3612	0.045
Mof_H 	H 	0.1873	0.4372	0.3782	0.063
Mof_C 	C 	0.1576	0.47193	0.32233	0.292
Mof_O 	O 	0.12002	0.46442	0.32344	-0.392
Mof_O 	O 	0.1726	0.50497	0.32794	-0.349
Mof_C 	C 	0.2322	0.4439	0.3697	-0.002
Mof_Cu	Cu	0.60684	0.90852	0.8137	0.922
Mof_O 	O 	0.60236	0.85049	0.81434	-0.482
Mof_C 	C 	0.61182	0.83232	0.77989	0.252
Mof_C 	C 	0.58514	0.80689	0.76104	-0.261
Mof_H 	H 	0.5601	0.8019	0.7725	0.12
Mof_C 	C 	0.59547	0.78911	0.72565	0.113
Mof_H 	H 	0.5774	0.7719	0.7129	-0.02
Mof_C 	C 	0.63236	0.79638	0.70866	-0.162
Mof_H 	H 	0.6394	0.7841	0.6844	0.075
Mof_C 	C 	0.65892	0.8218	0.72751	0.051
Mof_H 	H 	0.6839	0.8267	0.7159	0.014
Mof_C 	C 	0.64926	0.84001	0.763	-0.122
Mof_C 	C 	0.67819	0.8666	0.78471	-0.014
Mof_H 	H 	0.703	0.8685	0.7694	0.038
Mof_H 	H 	0.6846	0.8548	0.8107	0.029
Mof_N 	N 	0.66146	0.90728	0.79076	-0.288
Mof_H 	H 	0.6586	0.9175	0.7691	0.162
Mof_C 	C 	0.68495	0.9361	0.81506	-0.007
Mof_C 	C 	0.72508	0.94768	0.79628	-0.106
Mof_H 	H 	0.723	0.9735	0.7828	0.063
Mof_H 	H 	0.7334	0.9276	0.7767	0.061
Mof_C 	C 	0.7546	0.9499	0.8298	-0.081
Mof_H 	H 	0.782	0.946	0.8203	0.042
Mof_H 	H 	0.7528	0.9754	0.844	0.055
Mof_C 	C 	0.7406	0.9146	0.8566	-0.058
Mof_H 	H 	0.7517	0.9168	0.8835	0.035
Mof_H 	H 	0.7486	0.889	0.8451	0.039
Mof_C 	C 	0.69571	0.91893	0.85703	-0.128
Mof_H 	H 	0.6828	0.893	0.8612	0.045
Mof_H 	H 	0.6873	0.9372	0.8782	0.063
Mof_C 	C 	0.6576	0.97193	0.82233	0.292
Mof_O 	O 	0.62002	0.96442	0.82344	-0.392
Mof_O 	O 	0.6726	0.00497	0.82794	-0.349
Mof_C 	C 	0.7322	0.9439	0.8697	-0.002
_end
