data_functionalizedCrystal
_audit_creation_method	'EQeq! by Chris Wilmer'
_symmetry_space_group_name_H-M	'P1'
_symmetry_Int_Tables_number	1
_symmetry_cell_setting	triclinic
loop_
_symmetry_equiv_pos_as_xyz
  x,y,z
_cell_length_a	8.6006
_cell_length_b	10.173
_cell_length_c	11.125
_cell_angle_alpha	65.11
_cell_angle_beta	71.8
_cell_angle_gamma	78.86
loop_
_atom_site_label
_atom_site_type_symbol
_atom_site_fract_x
_atom_site_fract_y
_atom_site_fract_z
_atom_site_charge
Mof_Gd	Gd	0.13188	0.43942	0.65371	1.518
Mof_O 	O 	0.0346	0.368	0.4793	-0.502
Mof_O 	O 	0.1319	0.2042	0.6471	-0.397
Mof_O 	O 	0.8443	0.3803	0.7643	-0.37
Mof_O 	O 	0.9391	0.5226	0.8258	-0.372
Mof_O 	O 	0.1789	0.2648	0.8685	-0.373
Mof_O 	O 	0.3979	0.3003	0.6944	-0.401
Mof_C 	C 	0.0679	0.2359	0.5523	0.375
Mof_C 	C 	0.0342	0.1147	0.5229	-0.111
Mof_C 	C 	0.9927	0.9842	0.6305	-0.006
Mof_H 	H 	0.8945	0.9999	0.6951	0.041
Mof_C 	C 	0.0429	0.1327	0.3903	-0.005
Mof_H 	H 	0.9661	0.2107	0.3544	0.018
Mof_C 	C 	0.821	0.46	0.8326	0.304
Mof_C 	C 	0.6549	0.4818	0.9177	-0.07
Mof_C 	C 	0.5264	0.4092	0.9285	-0.015
Mof_H 	H 	0.5108	0.4368	0.8391	0.031
Mof_C 	C 	0.6302	0.5695	0.9923	-0.029
Mof_H 	H 	0.6592	0.6661	0.9298	0.052
Mof_C 	C 	0.3259	0.232	0.8193	0.314
Mof_C 	C 	0.4177	0.1116	0.9102	-0.063
Mof_C 	C 	0.3378	0.0402	0.0481	-0.008
Mof_H 	H 	0.303	0.1093	0.0909	0.046
Mof_C 	C 	0.5812	0.0704	0.8621	-0.033
Mof_H 	H 	0.6459	0.1517	0.8289	0.056
Mof_Gd	Gd	0.86812	0.56058	0.34629	1.518
Mof_O 	O 	0.9654	0.632	0.5207	-0.502
Mof_O 	O 	0.8681	0.7958	0.3529	-0.397
Mof_O 	O 	0.1557	0.6197	0.2357	-0.37
Mof_O 	O 	0.0609	0.4774	0.1742	-0.372
Mof_O 	O 	0.8211	0.7352	0.1315	-0.373
Mof_O 	O 	0.6021	0.6997	0.3056	-0.401
Mof_C 	C 	0.9321	0.7641	0.4477	0.375
Mof_C 	C 	0.9658	0.8853	0.4771	-0.111
Mof_C 	C 	0.0073	0.0158	0.3695	-0.006
Mof_H 	H 	0.1055	0.0001	0.3049	0.041
Mof_C 	C 	0.9571	0.8673	0.6097	-0.005
Mof_H 	H 	0.0339	0.7893	0.6456	0.018
Mof_C 	C 	0.179	0.54	0.1674	0.304
Mof_C 	C 	0.3451	0.5182	0.0823	-0.07
Mof_C 	C 	0.4736	0.5908	0.0715	-0.015
Mof_H 	H 	0.4892	0.5632	0.1609	0.031
Mof_C 	C 	0.3698	0.4305	0.0077	-0.029
Mof_H 	H 	0.3408	0.3339	0.0702	0.052
Mof_C 	C 	0.6741	0.768	0.1807	0.314
Mof_C 	C 	0.5823	0.8884	0.0898	-0.063
Mof_C 	C 	0.6622	0.9598	0.9519	-0.008
Mof_H 	H 	0.697	0.8907	0.9091	0.046
Mof_C 	C 	0.4188	0.9296	0.1379	-0.033
Mof_H 	H 	0.3541	0.8483	0.1711	0.056
_end
