data_functionalizedCrystal
_audit_creation_method	'EQeq! by Chris Wilmer'
_symmetry_space_group_name_H-M	'P1'
_symmetry_Int_Tables_number	1
_symmetry_cell_setting	triclinic
loop_
_symmetry_equiv_pos_as_xyz
  x,y,z
_cell_length_a	19.383
_cell_length_b	21.599
_cell_length_c	21.599
_cell_angle_alpha	90
_cell_angle_beta	90
_cell_angle_gamma	90
loop_
_atom_site_label
_atom_site_type_symbol
_atom_site_fract_x
_atom_site_fract_y
_atom_site_fract_z
_atom_site_charge
Mof_Cd	Cd	-7.37045e-33	0.0914	0.9086	0.417
Mof_Cd	Cd	-4.50353e-33	0.9086	0.0914	0.417
Mof_Cd	Cd	0.8673	0.1732	0.8268	0.328
Mof_Cd	Cd	0.8673	0.1732	0.1732	0.328
Mof_Cd	Cd	-1.71187e-33	0.0914	0.0914	0.416
Mof_Cd	Cd	3.79618e-33	0.9086	0.9086	0.418
Mof_Cd	Cd	0.5	0.5	0.96239	0.25
Mof_Cd	Cd	0.5	0.5	0.03761	0.243
Mof_Cd	Cd	0.5	0.96239	0.5	0.25
Mof_Cd	Cd	0.5	0.03761	0.5	0.244
Mof_Cd	Cd	0.8673	0.8268	0.8268	0.33
Mof_Cd	Cd	0.8673	0.8268	0.1732	0.329
Mof_H 	H 	0.7564	0	0.5566	0.066
Mof_H 	H 	0.7761	0.093	0.2552	0.014
Mof_H 	H 	0.3101	0.0931	0.3298	0.07
Mof_H 	H 	0.6899	0.9069	0.6702	0.074
Mof_H 	H 	0.6899	0.0931	0.3298	0.074
Mof_H 	H 	0.3101	0.6702	0.0931	0.07
Mof_H 	H 	0.2239	0.7448	0.907	0.052
Mof_H 	H 	0.2436	0	0.5566	0.07
Mof_H 	H 	0.6899	0.6702	0.0931	0.074
Mof_H 	H 	0.7761	0.2552	0.093	0.014
Mof_H 	H 	0.4367	0.7315	-0	0.066
Mof_H 	H 	0.7761	0.907	0.2552	0.014
Mof_H 	H 	0.2239	0.093	0.7448	0.052
Mof_H 	H 	0.7761	0.907	0.7448	0.014
Mof_H 	H 	0.7564	0	0.4434	0.066
Mof_H 	H 	0.6899	0.0931	0.6702	0.074
Mof_H 	H 	0.3101	0.0931	0.6702	0.07
Mof_H 	H 	0.7564	0.4434	-0	0.066
Mof_H 	H 	0.7761	0.2552	0.907	0.014
Mof_H 	H 	0.4367	0	0.2685	0.065
Mof_H 	H 	0.3101	0.9069	0.6702	0.07
Mof_H 	H 	0.3101	0.9069	0.3298	0.07
Mof_H 	H 	0.4367	-5.58331e-33	0.7315	0.066
Mof_H 	H 	0.2239	0.7448	0.093	0.052
Mof_H 	H 	0.5633	-5.58331e-33	0.7315	0.064
Mof_H 	H 	0.6899	0.9069	0.3298	0.074
Mof_H 	H 	0.3101	0.3298	0.9069	0.07
Mof_H 	H 	0.2239	0.907	0.7448	0.052
Mof_H 	H 	0.2239	0.907	0.2552	0.052
Mof_H 	H 	0.6899	0.3298	0.9069	0.074
Mof_H 	H 	0.2239	0.2552	0.093	0.052
Mof_H 	H 	0.5633	0.2685	-0	0.064
Mof_H 	H 	0.7761	0.093	0.7448	0.014
Mof_H 	H 	0.5633	0	0.2685	0.064
Mof_H 	H 	0.7761	0.7448	0.093	0.014
Mof_H 	H 	0.2239	0.2552	0.907	0.052
Mof_H 	H 	0.4367	0.2685	-0	0.065
Mof_H 	H 	0.3101	0.3298	0.0931	0.07
Mof_H 	H 	0.2436	0.4434	-0	0.07
Mof_H 	H 	0.6899	0.3298	0.0931	0.074
Mof_H 	H 	0.2436	0.5566	-0	0.07
Mof_H 	H 	0.2239	0.093	0.2552	0.052
Mof_H 	H 	0.2436	0	0.4434	0.07
Mof_H 	H 	0.6899	0.6702	0.9069	0.074
Mof_H 	H 	0.7564	0.5566	-0	0.066
Mof_H 	H 	0.7761	0.7448	0.907	0.014
Mof_H 	H 	0.5633	0.7315	-0	0.064
Mof_H 	H 	0.3101	0.6702	0.9069	0.07
Mof_C 	C 	0.7177	0.4687	-0	-0.09
Mof_C 	C 	0.8408	0.8003	-0	0.13
Mof_C 	C 	0.4651	0	0.3032	-0.089
Mof_C 	C 	0.2927	0.315	0.05578	-0.101
Mof_C 	C 	0.7848	0	0.24816	-0.061
Mof_C 	C 	0.1592	-1.39583e-33	0.1997	0.126
Mof_C 	C 	0.2152	0	0.24816	-0.021
Mof_C 	C 	0.2411	0.94424	0.2703	-0.008
Mof_C 	C 	0.5555	0.6376	-0	0.102
Mof_C 	C 	0.7589	0.05576	0.7297	0.02
Mof_C 	C 	0.2152	0.75184	-0	-0.021
Mof_C 	C 	0.7848	0.24816	-0	-0.061
Mof_C 	C 	0.2927	0.94422	0.315	-0.098
Mof_C 	C 	0.2927	0.685	0.05578	-0.101
Mof_C 	C 	0.4651	0.3032	-0	-0.089
Mof_C 	C 	0.6248	0.6128	-0	-0.111
Mof_C 	C 	0.7177	-5.58331e-33	0.4687	-0.09
Mof_C 	C 	0.7589	0.2703	0.94424	0.022
Mof_C 	C 	0.7589	0.7297	0.94424	0.022
Mof_C 	C 	0.2823	0.4687	-0	-0.087
Mof_C 	C 	0.3482	0.5504	-0	0.101
Mof_C 	C 	0.6518	0.5504	-0	0.102
Mof_C 	C 	0.2927	0.315	0.94422	-0.098
Mof_C 	C 	0.2927	0.05578	0.315	-0.101
Mof_C 	C 	0.2823	0.5313	-0	-0.087
Mof_C 	C 	0.4651	0.6968	-0	-0.089
Mof_C 	C 	0.3482	0	0.4496	0.101
Mof_C 	C 	0.7848	0.75184	-0	-0.061
Mof_C 	C 	0.6518	0.4496	-0	0.102
Mof_C 	C 	0.3183	0	0.3375	0.071
Mof_C 	C 	0.2152	0.24816	-0	-0.021
Mof_C 	C 	0.8408	0	0.8003	0.13
Mof_C 	C 	0.7589	0.94424	0.2703	0.022
Mof_C 	C 	0.7073	0.685	0.94422	-0.127
Mof_C 	C 	0.3752	0	0.6128	-0.104
Mof_C 	C 	0.3752	0.6128	-0	-0.104
Mof_C 	C 	0.2411	0.05576	0.7297	-0.011
Mof_C 	C 	0.2411	0.05576	0.2703	-0.011
Mof_C 	C 	0.6817	0.3375	-0	0.088
Mof_C 	C 	0.7589	0.7297	0.05576	0.02
Mof_C 	C 	0.4445	-2.79166e-33	0.3624	0.1
Mof_C 	C 	0.7589	0.2703	0.05576	0.02
Mof_C 	C 	0.6817	0.6625	-0	0.088
Mof_C 	C 	0.6248	0	0.6128	-0.111
Mof_C 	C 	0.7073	0.94422	0.685	-0.127
Mof_C 	C 	0.5555	-2.79166e-33	0.3624	0.102
Mof_C 	C 	0.6817	0	0.3375	0.088
Mof_C 	C 	0.2152	0	0.75184	-0.021
Mof_C 	C 	0.7848	0	0.75184	-0.061
Mof_C 	C 	0.5349	-5.58331e-33	0.6968	-0.09
Mof_C 	C 	0.7073	0.315	0.05578	-0.13
Mof_C 	C 	0.5349	0	0.3032	-0.09
Mof_C 	C 	0.4445	0.3624	-0	0.1
Mof_C 	C 	0.6248	-2.79166e-33	0.3872	-0.111
Mof_C 	C 	0.2927	0.94422	0.685	-0.098
Mof_C 	C 	0.2927	0.685	0.94422	-0.098
Mof_C 	C 	0.7589	0.05576	0.2703	0.02
Mof_C 	C 	0.6518	0	0.4496	0.102
Mof_C 	C 	0.1592	0	0.8003	0.126
Mof_C 	C 	0.5555	0	0.6376	0.102
Mof_C 	C 	0.7177	0	0.5313	-0.09
Mof_C 	C 	0.2411	0.94424	0.7297	-0.008
Mof_C 	C 	0.7073	0.05578	0.685	-0.13
Mof_C 	C 	0.5349	0.6968	-0	-0.09
Mof_C 	C 	0.7073	0.05578	0.315	-0.13
Mof_C 	C 	0.1592	0.1997	-0	0.126
Mof_C 	C 	0.2411	0.7297	0.05576	-0.011
Mof_C 	C 	0.4445	0.6376	-0	0.1
Mof_C 	C 	0.2411	0.2703	0.05576	-0.011
Mof_C 	C 	0.3752	-2.79166e-33	0.3872	-0.104
Mof_C 	C 	0.3752	0.3872	-0	-0.104
Mof_C 	C 	0.2823	0	0.5313	-0.087
Mof_C 	C 	0.2823	-5.58331e-33	0.4687	-0.087
Mof_C 	C 	0.3183	-5.58331e-33	0.6625	0.071
Mof_C 	C 	0.4651	-5.58331e-33	0.6968	-0.089
Mof_C 	C 	0.5349	0.3032	-0	-0.09
Mof_C 	C 	0.5555	0.3624	-0	0.102
Mof_C 	C 	0.7073	0.685	0.05578	-0.13
Mof_C 	C 	0.7073	0.94422	0.315	-0.127
Mof_C 	C 	0.3482	0	0.5504	0.101
Mof_C 	C 	0.6518	0	0.5504	0.102
Mof_C 	C 	0.2927	0.05578	0.685	-0.101
Mof_C 	C 	0.8408	0.1997	-0	0.13
Mof_C 	C 	0.3183	0.3375	-0	0.071
Mof_C 	C 	0.1592	0.8003	-0	0.126
Mof_C 	C 	0.3482	0.4496	-0	0.101
Mof_C 	C 	0.3183	0.6625	-0	0.071
Mof_C 	C 	0.2411	0.2703	0.94424	-0.008
Mof_C 	C 	0.2411	0.7297	0.94424	-0.008
Mof_C 	C 	0.6817	-5.58331e-33	0.6625	0.088
Mof_C 	C 	0.4445	0	0.6376	0.1
Mof_C 	C 	0.8408	-1.39583e-33	0.1997	0.13
Mof_C 	C 	0.7589	0.94424	0.7297	0.022
Mof_C 	C 	0.6248	0.3872	-0	-0.111
Mof_C 	C 	0.7177	0.5313	-0	-0.09
Mof_C 	C 	0.7073	0.315	0.94422	-0.127
Mof_N 	N 	0.5	2.79166e-33	0.402	-0.177
Mof_N 	N 	0.8695	0.18	0.948	-0.114
Mof_N 	N 	0.08122	0.85931	0.03062	-0.069
Mof_N 	N 	0.1305	0.052	0.18	-0.081
Mof_N 	N 	0.1305	0.052	0.82	-0.081
Mof_N 	N 	0.1305	0.18	0.052	-0.081
Mof_N 	N 	0.08122	0.03062	0.85931	-0.069
Mof_N 	N 	0.1305	0.948	0.18	-0.08
Mof_N 	N 	0.91878	0.03062	0.14069	-0.082
Mof_N 	N 	0.8695	0.948	0.82	-0.114
Mof_N 	N 	0.08122	0.96938	0.14069	-0.066
Mof_N 	N 	0.1305	0.82	0.052	-0.081
Mof_N 	N 	0.5	0.402	-0	-0.177
Mof_N 	N 	0.5	0.598	-0	-0.177
Mof_N 	N 	0.5	-5.58331e-33	0.598	-0.177
Mof_N 	N 	0.1305	0.82	0.948	-0.08
Mof_N 	N 	0.1305	0.18	0.948	-0.08
Mof_N 	N 	0.91878	0.14069	0.03062	-0.082
Mof_N 	N 	0.91878	0.14069	0.96938	-0.079
Mof_N 	N 	0.08122	0.14069	0.96938	-0.066
Mof_N 	N 	0.91878	0.96938	0.85931	-0.079
Mof_N 	N 	0.08122	0.85931	0.96938	-0.066
Mof_N 	N 	0.8695	0.948	0.18	-0.114
Mof_N 	N 	0.91878	0.85931	0.03062	-0.081
Mof_N 	N 	0.8695	0.18	0.052	-0.116
Mof_N 	N 	0.8695	0.82	0.052	-0.116
Mof_N 	N 	0.1305	0.948	0.82	-0.08
Mof_N 	N 	0.8695	0.052	0.18	-0.116
Mof_N 	N 	0.08122	0.03062	0.14069	-0.069
Mof_N 	N 	0.3914	0	0.5	-0.177
Mof_N 	N 	0.8695	0.82	0.948	-0.114
Mof_N 	N 	0.8695	0.052	0.82	-0.116
Mof_N 	N 	0.91878	0.96938	0.14069	-0.079
Mof_N 	N 	0.08122	0.14069	0.03062	-0.069
Mof_N 	N 	0.91878	0.85931	0.96938	-0.079
Mof_N 	N 	0.08122	0.96938	0.85931	-0.066
Mof_N 	N 	0.91878	0.03062	0.85931	-0.081
Mof_N 	N 	0.3914	0.5	-0	-0.177
Mof_N 	N 	0.6086	0.5	-0	-0.178
Mof_N 	N 	0.6086	0	0.5	-0.178
Mof_Cl	Cl	3.499e-33	0.8307	0.1693	-0.371
Mof_Cl	Cl	3.47071e-33	0.1693	0.8307	-0.371
Mof_Cl	Cl	2.5804e-32	0.8307	0.8307	-0.371
Mof_Cl	Cl	-3.48014e-33	0.1693	0.1693	-0.371
_end
