data_functionalizedCrystal
_audit_creation_method	'EQeq! by Chris Wilmer'
_symmetry_space_group_name_H-M	'P1'
_symmetry_Int_Tables_number	1
_symmetry_cell_setting	triclinic
loop_
_symmetry_equiv_pos_as_xyz
  x,y,z
_cell_length_a	21.8937
_cell_length_b	21.8937
_cell_length_c	16.7687
_cell_angle_alpha	90
_cell_angle_beta	90
_cell_angle_gamma	90
loop_
_atom_site_label
_atom_site_type_symbol
_atom_site_fract_x
_atom_site_fract_y
_atom_site_fract_z
_atom_site_charge
Mof_La	La	0.8202	0.35795	0.63752	1.811
Mof_N 	N 	0.8629	0.4171	0.765	-0.173
Mof_O 	O 	0.7212	0.4307	0.8627	-0.472
Mof_O 	O 	0.7474	0.389	0.7459	-0.501
Mof_O 	O 	0.9322	0.3835	0.6442	-0.53
Mof_O 	O 	0.0147	0.4247	0.7002	-0.53
Mof_O 	O 	0.7215	0.3834	0.5568	-0.734
Mof_H 	H 	0.7254	0.4206	0.5396	0.274
Mof_H 	H 	0.7323	0.3607	0.5178	0.248
Mof_C 	C 	0.7593	0.4171	0.8106	0.389
Mof_C 	C 	0.8247	0.4347	0.8235	-0.088
Mof_C 	C 	0.845	0.4675	0.887	0.017
Mof_H 	H 	0.8179	0.4791	0.927	0.014
Mof_C 	C 	0.9057	0.4836	0.8921	-0.103
Mof_H 	H 	0.9201	0.5059	0.9354	0.05
Mof_C 	C 	0.945	0.4658	0.8313	0.017
Mof_H 	H 	0.9862	0.4761	0.8329	0.007
Mof_C 	C 	0.9216	0.4328	0.7686	-0.097
Mof_C 	C 	0.9593	0.4121	0.6985	0.412
Mof_La	La	0.3202	0.85795	0.13752	1.809
Mof_N 	N 	0.3629	0.9171	0.265	-0.174
Mof_O 	O 	0.2212	0.9307	0.3627	-0.473
Mof_O 	O 	0.2474	0.889	0.2459	-0.503
Mof_O 	O 	0.4322	0.8835	0.1442	-0.531
Mof_O 	O 	0.5147	0.9247	0.2002	-0.531
Mof_O 	O 	0.2215	0.8834	0.0568	-0.735
Mof_H 	H 	0.2254	0.9206	0.0396	0.272
Mof_H 	H 	0.2323	0.8607	0.0178	0.246
Mof_C 	C 	0.2593	0.9171	0.3106	0.388
Mof_C 	C 	0.3247	0.9347	0.3235	-0.089
Mof_C 	C 	0.345	0.9675	0.387	0.018
Mof_H 	H 	0.3179	0.9791	0.427	0.013
Mof_C 	C 	0.4057	0.9836	0.3921	-0.105
Mof_H 	H 	0.4201	0.0059	0.4354	0.051
Mof_C 	C 	0.445	0.9658	0.3313	0.018
Mof_H 	H 	0.4862	0.9761	0.3329	0.006
Mof_C 	C 	0.4216	0.9328	0.2686	-0.097
Mof_C 	C 	0.4593	0.9121	0.1985	0.412
Mof_La	La	0.6798	0.64205	0.13752	1.809
Mof_N 	N 	0.6371	0.5829	0.265	-0.174
Mof_O 	O 	0.7788	0.5693	0.3627	-0.473
Mof_O 	O 	0.7526	0.611	0.2459	-0.502
Mof_O 	O 	0.5678	0.6165	0.1442	-0.531
Mof_O 	O 	0.4853	0.5753	0.2002	-0.531
Mof_O 	O 	0.7785	0.6166	0.0568	-0.735
Mof_H 	H 	0.7746	0.5794	0.0396	0.273
Mof_H 	H 	0.7677	0.6393	0.0178	0.246
Mof_C 	C 	0.7407	0.5829	0.3106	0.388
Mof_C 	C 	0.6753	0.5653	0.3235	-0.088
Mof_C 	C 	0.655	0.5325	0.387	0.017
Mof_H 	H 	0.6821	0.5209	0.427	0.014
Mof_C 	C 	0.5943	0.5164	0.3921	-0.103
Mof_H 	H 	0.5799	0.4941	0.4354	0.05
Mof_C 	C 	0.555	0.5342	0.3313	0.017
Mof_H 	H 	0.5138	0.5239	0.3329	0.007
Mof_C 	C 	0.5784	0.5672	0.2686	-0.097
Mof_C 	C 	0.5407	0.5879	0.1985	0.412
Mof_La	La	0.1798	0.14205	0.63752	1.81
Mof_N 	N 	0.1371	0.0829	0.765	-0.174
Mof_O 	O 	0.2788	0.0693	0.8627	-0.474
Mof_O 	O 	0.2526	0.111	0.7459	-0.503
Mof_O 	O 	0.0678	0.1165	0.6442	-0.531
Mof_O 	O 	0.9853	0.0753	0.7002	-0.533
Mof_O 	O 	0.2785	0.1166	0.5568	-0.735
Mof_H 	H 	0.2746	0.0794	0.5396	0.273
Mof_H 	H 	0.2677	0.1393	0.5178	0.247
Mof_C 	C 	0.2407	0.0829	0.8106	0.388
Mof_C 	C 	0.1753	0.0653	0.8235	-0.089
Mof_C 	C 	0.155	0.0325	0.887	0.019
Mof_H 	H 	0.1821	0.0209	0.927	0.013
Mof_C 	C 	0.0943	0.0164	0.8921	-0.107
Mof_H 	H 	0.0799	0.9941	0.9354	0.052
Mof_C 	C 	0.055	0.0342	0.8313	0.02
Mof_H 	H 	0.0138	0.0239	0.8329	0.006
Mof_C 	C 	0.0784	0.0672	0.7686	-0.098
Mof_C 	C 	0.0407	0.0879	0.6985	0.414
Mof_La	La	0.39205	0.0702	0.88752	1.806
Mof_N 	N 	0.3329	0.1129	0.015	-0.174
Mof_O 	O 	0.3193	0.9712	0.1127	-0.476
Mof_O 	O 	0.361	0.9974	0.9959	-0.502
Mof_O 	O 	0.3665	0.1822	0.8942	-0.53
Mof_O 	O 	0.3253	0.2647	0.9502	-0.531
Mof_O 	O 	0.3666	0.9715	0.8068	-0.734
Mof_H 	H 	0.3294	0.9754	0.7896	0.273
Mof_H 	H 	0.3893	0.9823	0.7678	0.247
Mof_C 	C 	0.3329	0.0093	0.0606	0.392
Mof_C 	C 	0.3153	0.0747	0.0735	-0.088
Mof_C 	C 	0.2825	0.095	0.137	0.017
Mof_H 	H 	0.2709	0.0679	0.177	0.015
Mof_C 	C 	0.2664	0.1557	0.1421	-0.102
Mof_H 	H 	0.2441	0.1701	0.1854	0.05
Mof_C 	C 	0.2842	0.195	0.0813	0.016
Mof_H 	H 	0.2739	0.2362	0.0829	0.008
Mof_C 	C 	0.3172	0.1716	0.0186	-0.095
Mof_C 	C 	0.3379	0.2093	0.9485	0.41
Mof_La	La	0.89205	0.5702	0.38752	1.81
Mof_N 	N 	0.8329	0.6129	0.515	-0.174
Mof_O 	O 	0.8193	0.4712	0.6127	-0.473
Mof_O 	O 	0.861	0.4974	0.4959	-0.502
Mof_O 	O 	0.8665	0.6822	0.3942	-0.531
Mof_O 	O 	0.8253	0.7647	0.4502	-0.531
Mof_O 	O 	0.8666	0.4715	0.3068	-0.735
Mof_H 	H 	0.8294	0.4754	0.2896	0.273
Mof_H 	H 	0.8893	0.4823	0.2678	0.247
Mof_C 	C 	0.8329	0.5093	0.5606	0.388
Mof_C 	C 	0.8153	0.5747	0.5735	-0.088
Mof_C 	C 	0.7825	0.595	0.637	0.017
Mof_H 	H 	0.7709	0.5679	0.677	0.014
Mof_C 	C 	0.7664	0.6557	0.6421	-0.103
Mof_H 	H 	0.7441	0.6701	0.6854	0.05
Mof_C 	C 	0.7842	0.695	0.5813	0.017
Mof_H 	H 	0.7739	0.7362	0.5829	0.007
Mof_C 	C 	0.8172	0.6716	0.5186	-0.097
Mof_C 	C 	0.8379	0.7093	0.4485	0.412
Mof_La	La	0.10795	0.9298	0.38752	1.807
Mof_N 	N 	0.1671	0.8871	0.515	-0.174
Mof_O 	O 	0.1807	0.0288	0.6127	-0.472
Mof_O 	O 	0.139	0.0026	0.4959	-0.501
Mof_O 	O 	0.1335	0.8178	0.3942	-0.531
Mof_O 	O 	0.1747	0.7353	0.4502	-0.531
Mof_O 	O 	0.1334	0.0285	0.3068	-0.735
Mof_H 	H 	0.1706	0.0246	0.2896	0.274
Mof_H 	H 	0.1107	0.0177	0.2678	0.247
Mof_C 	C 	0.1671	0.9907	0.5606	0.386
Mof_C 	C 	0.1847	0.9253	0.5735	-0.088
Mof_C 	C 	0.2175	0.905	0.637	0.016
Mof_H 	H 	0.2291	0.9321	0.677	0.014
Mof_C 	C 	0.2336	0.8443	0.6421	-0.102
Mof_H 	H 	0.2559	0.8299	0.6854	0.05
Mof_C 	C 	0.2158	0.805	0.5813	0.017
Mof_H 	H 	0.2261	0.7638	0.5829	0.007
Mof_C 	C 	0.1828	0.8284	0.5186	-0.097
Mof_C 	C 	0.1621	0.7907	0.4485	0.412
Mof_La	La	0.60795	0.4298	0.88752	1.809
Mof_N 	N 	0.6671	0.3871	0.015	-0.174
Mof_O 	O 	0.6807	0.5288	0.1127	-0.473
Mof_O 	O 	0.639	0.5026	0.9959	-0.502
Mof_O 	O 	0.6335	0.3178	0.8942	-0.531
Mof_O 	O 	0.6747	0.2353	0.9502	-0.531
Mof_O 	O 	0.6334	0.5285	0.8068	-0.735
Mof_H 	H 	0.6706	0.5246	0.7896	0.273
Mof_H 	H 	0.6107	0.5177	0.7678	0.247
Mof_C 	C 	0.6671	0.4907	0.0606	0.388
Mof_C 	C 	0.6847	0.4253	0.0735	-0.088
Mof_C 	C 	0.7175	0.405	0.137	0.016
Mof_H 	H 	0.7291	0.4321	0.177	0.014
Mof_C 	C 	0.7336	0.3443	0.1421	-0.102
Mof_H 	H 	0.7559	0.3299	0.1854	0.05
Mof_C 	C 	0.7158	0.305	0.0813	0.016
Mof_H 	H 	0.7261	0.2638	0.0829	0.008
Mof_C 	C 	0.6828	0.3284	0.0186	-0.096
Mof_C 	C 	0.6621	0.2907	0.9485	0.411
Mof_La	La	0.1798	0.64205	0.36248	1.81
Mof_N 	N 	0.1371	0.5829	0.235	-0.174
Mof_O 	O 	0.2788	0.5693	0.1373	-0.473
Mof_O 	O 	0.2526	0.611	0.2541	-0.502
Mof_O 	O 	0.0678	0.6165	0.3558	-0.531
Mof_O 	O 	0.9853	0.5753	0.2998	-0.531
Mof_O 	O 	0.2785	0.6166	0.4432	-0.735
Mof_H 	H 	0.2746	0.5794	0.4604	0.273
Mof_H 	H 	0.2677	0.6393	0.4822	0.247
Mof_C 	C 	0.2407	0.5829	0.1894	0.388
Mof_C 	C 	0.1753	0.5653	0.1765	-0.088
Mof_C 	C 	0.155	0.5325	0.113	0.017
Mof_H 	H 	0.1821	0.5209	0.073	0.014
Mof_C 	C 	0.0943	0.5164	0.1079	-0.103
Mof_H 	H 	0.0799	0.4941	0.0646	0.05
Mof_C 	C 	0.055	0.5342	0.1687	0.017
Mof_H 	H 	0.0138	0.5239	0.1671	0.007
Mof_C 	C 	0.0784	0.5672	0.2314	-0.097
Mof_C 	C 	0.0407	0.5879	0.3015	0.412
Mof_La	La	0.6798	0.14205	0.86248	1.809
Mof_N 	N 	0.6371	0.0829	0.735	-0.174
Mof_O 	O 	0.7788	0.0693	0.6373	-0.473
Mof_O 	O 	0.7526	0.111	0.7541	-0.503
Mof_O 	O 	0.5678	0.1165	0.8558	-0.531
Mof_O 	O 	0.4853	0.0753	0.7998	-0.531
Mof_O 	O 	0.7785	0.1166	0.9432	-0.735
Mof_H 	H 	0.7746	0.0794	0.9604	0.272
Mof_H 	H 	0.7677	0.1393	0.9822	0.246
Mof_C 	C 	0.7407	0.0829	0.6894	0.388
Mof_C 	C 	0.6753	0.0653	0.6765	-0.089
Mof_C 	C 	0.655	0.0325	0.613	0.018
Mof_H 	H 	0.6821	0.0209	0.573	0.013
Mof_C 	C 	0.5943	0.0164	0.6079	-0.105
Mof_H 	H 	0.5799	0.9941	0.5646	0.051
Mof_C 	C 	0.555	0.0342	0.6687	0.018
Mof_H 	H 	0.5138	0.0239	0.6671	0.006
Mof_C 	C 	0.5784	0.0672	0.7314	-0.097
Mof_C 	C 	0.5407	0.0879	0.8015	0.412
Mof_La	La	0.3202	0.35795	0.86248	1.809
Mof_N 	N 	0.3629	0.4171	0.735	-0.174
Mof_O 	O 	0.2212	0.4307	0.6373	-0.473
Mof_O 	O 	0.2474	0.389	0.7541	-0.502
Mof_O 	O 	0.4322	0.3835	0.8558	-0.531
Mof_O 	O 	0.5147	0.4247	0.7998	-0.531
Mof_O 	O 	0.2215	0.3834	0.9432	-0.735
Mof_H 	H 	0.2254	0.4206	0.9604	0.273
Mof_H 	H 	0.2323	0.3607	0.9822	0.246
Mof_C 	C 	0.2593	0.4171	0.6894	0.388
Mof_C 	C 	0.3247	0.4347	0.6765	-0.088
Mof_C 	C 	0.345	0.4675	0.613	0.017
Mof_H 	H 	0.3179	0.4791	0.573	0.014
Mof_C 	C 	0.4057	0.4836	0.6079	-0.103
Mof_H 	H 	0.4201	0.5059	0.5646	0.05
Mof_C 	C 	0.445	0.4658	0.6687	0.017
Mof_H 	H 	0.4862	0.4761	0.6671	0.007
Mof_C 	C 	0.4216	0.4328	0.7314	-0.097
Mof_C 	C 	0.4593	0.4121	0.8015	0.412
Mof_La	La	0.8202	0.85795	0.36248	1.81
Mof_N 	N 	0.8629	0.9171	0.235	-0.174
Mof_O 	O 	0.7212	0.9307	0.1373	-0.474
Mof_O 	O 	0.7474	0.889	0.2541	-0.503
Mof_O 	O 	0.9322	0.8835	0.3558	-0.531
Mof_O 	O 	0.0147	0.9247	0.2998	-0.533
Mof_O 	O 	0.7215	0.8834	0.4432	-0.735
Mof_H 	H 	0.7254	0.9206	0.4604	0.273
Mof_H 	H 	0.7323	0.8607	0.4822	0.247
Mof_C 	C 	0.7593	0.9171	0.1894	0.388
Mof_C 	C 	0.8247	0.9347	0.1765	-0.089
Mof_C 	C 	0.845	0.9675	0.113	0.019
Mof_H 	H 	0.8179	0.9791	0.073	0.013
Mof_C 	C 	0.9057	0.9836	0.1079	-0.107
Mof_H 	H 	0.9201	0.0059	0.0646	0.052
Mof_C 	C 	0.945	0.9658	0.1687	0.02
Mof_H 	H 	0.9862	0.9761	0.1671	0.006
Mof_C 	C 	0.9216	0.9328	0.2314	-0.098
Mof_C 	C 	0.9593	0.9121	0.3015	0.414
Mof_La	La	0.60795	0.9298	0.11248	1.806
Mof_N 	N 	0.6671	0.8871	0.985	-0.174
Mof_O 	O 	0.6807	0.0288	0.8873	-0.476
Mof_O 	O 	0.639	0.0026	0.0041	-0.502
Mof_O 	O 	0.6335	0.8178	0.1058	-0.53
Mof_O 	O 	0.6747	0.7353	0.0498	-0.531
Mof_O 	O 	0.6334	0.0285	0.1932	-0.734
Mof_H 	H 	0.6706	0.0246	0.2104	0.273
Mof_H 	H 	0.6107	0.0177	0.2322	0.247
Mof_C 	C 	0.6671	0.9907	0.9394	0.392
Mof_C 	C 	0.6847	0.9253	0.9265	-0.088
Mof_C 	C 	0.7175	0.905	0.863	0.017
Mof_H 	H 	0.7291	0.9321	0.823	0.015
Mof_C 	C 	0.7336	0.8443	0.8579	-0.102
Mof_H 	H 	0.7559	0.8299	0.8146	0.05
Mof_C 	C 	0.7158	0.805	0.9187	0.016
Mof_H 	H 	0.7261	0.7638	0.9171	0.008
Mof_C 	C 	0.6828	0.8284	0.9814	-0.095
Mof_C 	C 	0.6621	0.7907	0.0515	0.41
Mof_La	La	0.10795	0.4298	0.61248	1.81
Mof_N 	N 	0.1671	0.3871	0.485	-0.174
Mof_O 	O 	0.1807	0.5288	0.3873	-0.473
Mof_O 	O 	0.139	0.5026	0.5041	-0.502
Mof_O 	O 	0.1335	0.3178	0.6058	-0.531
Mof_O 	O 	0.1747	0.2353	0.5498	-0.531
Mof_O 	O 	0.1334	0.5285	0.6932	-0.735
Mof_H 	H 	0.1706	0.5246	0.7104	0.273
Mof_H 	H 	0.1107	0.5177	0.7322	0.247
Mof_C 	C 	0.1671	0.4907	0.4394	0.388
Mof_C 	C 	0.1847	0.4253	0.4265	-0.088
Mof_C 	C 	0.2175	0.405	0.363	0.017
Mof_H 	H 	0.2291	0.4321	0.323	0.014
Mof_C 	C 	0.2336	0.3443	0.3579	-0.103
Mof_H 	H 	0.2559	0.3299	0.3146	0.05
Mof_C 	C 	0.2158	0.305	0.4187	0.017
Mof_H 	H 	0.2261	0.2638	0.4171	0.007
Mof_C 	C 	0.1828	0.3284	0.4814	-0.097
Mof_C 	C 	0.1621	0.2907	0.5515	0.412
Mof_La	La	0.89205	0.0702	0.61248	1.807
Mof_N 	N 	0.8329	0.1129	0.485	-0.174
Mof_O 	O 	0.8193	0.9712	0.3873	-0.472
Mof_O 	O 	0.861	0.9974	0.5041	-0.501
Mof_O 	O 	0.8665	0.1822	0.6058	-0.531
Mof_O 	O 	0.8253	0.2647	0.5498	-0.531
Mof_O 	O 	0.8666	0.9715	0.6932	-0.735
Mof_H 	H 	0.8294	0.9754	0.7104	0.274
Mof_H 	H 	0.8893	0.9823	0.7322	0.247
Mof_C 	C 	0.8329	0.0093	0.4394	0.386
Mof_C 	C 	0.8153	0.0747	0.4265	-0.088
Mof_C 	C 	0.7825	0.095	0.363	0.016
Mof_H 	H 	0.7709	0.0679	0.323	0.014
Mof_C 	C 	0.7664	0.1557	0.3579	-0.102
Mof_H 	H 	0.7441	0.1701	0.3146	0.05
Mof_C 	C 	0.7842	0.195	0.4187	0.017
Mof_H 	H 	0.7739	0.2362	0.4171	0.007
Mof_C 	C 	0.8172	0.1716	0.4814	-0.097
Mof_C 	C 	0.8379	0.2093	0.5515	0.412
Mof_La	La	0.39205	0.5702	0.11248	1.809
Mof_N 	N 	0.3329	0.6129	0.985	-0.174
Mof_O 	O 	0.3193	0.4712	0.8873	-0.473
Mof_O 	O 	0.361	0.4974	0.0041	-0.502
Mof_O 	O 	0.3665	0.6822	0.1058	-0.531
Mof_O 	O 	0.3253	0.7647	0.0498	-0.531
Mof_O 	O 	0.3666	0.4715	0.1932	-0.735
Mof_H 	H 	0.3294	0.4754	0.2104	0.273
Mof_H 	H 	0.3893	0.4823	0.2322	0.247
Mof_C 	C 	0.3329	0.5093	0.9394	0.388
Mof_C 	C 	0.3153	0.5747	0.9265	-0.088
Mof_C 	C 	0.2825	0.595	0.863	0.016
Mof_H 	H 	0.2709	0.5679	0.823	0.014
Mof_C 	C 	0.2664	0.6557	0.8579	-0.102
Mof_H 	H 	0.2441	0.6701	0.8146	0.05
Mof_C 	C 	0.2842	0.695	0.9187	0.016
Mof_H 	H 	0.2739	0.7362	0.9171	0.008
Mof_C 	C 	0.3172	0.6716	0.9814	-0.096
Mof_C 	C 	0.3379	0.7093	0.0515	0.411
_end
