data_functionalizedCrystal
_audit_creation_method	'EQeq! by Chris Wilmer'
_symmetry_space_group_name_H-M	'P1'
_symmetry_Int_Tables_number	1
_symmetry_cell_setting	triclinic
loop_
_symmetry_equiv_pos_as_xyz
  x,y,z
_cell_length_a	12.7279
_cell_length_b	14.5331
_cell_length_c	23.2812
_cell_angle_alpha	99.815
_cell_angle_beta	92.601
_cell_angle_gamma	97.071
loop_
_atom_site_label
_atom_site_type_symbol
_atom_site_fract_x
_atom_site_fract_y
_atom_site_fract_z
_atom_site_charge
Mof_Mg	Mg	0.49549	0.69808	0.60862	1.469
Mof_Mg	Mg	0.94134	0.31208	0.07448	1.458
Mof_Mg	Mg	0.50451	0.30192	0.39138	1.469
Mof_Mg	Mg	0.05866	0.68792	0.92552	1.455
Mof_Mg	Mg	0.5	0.5	0.5	1.478
Mof_Mg	Mg	-0	0.5	-0	1.475
Mof_Si	Si	0.97304	0.77608	0.36669	0.885
Mof_Si	Si	0.60107	0.7548	0.18747	0.804
Mof_Si	Si	0.02696	0.22392	0.63331	0.676
Mof_Si	Si	0.39893	0.2452	0.81253	0.793
Mof_H 	H 	0.8667	0.622	0.412	-0.012
Mof_H 	H 	0.7293	0.5936	0.4739	0.082
Mof_H 	H 	0.6663	0.8621	0.476	0.084
Mof_H 	H 	0.803	0.8862	0.4153	-0.013
Mof_H 	H 	0.8352	0.6083	0.3062	-0.01
Mof_H 	H 	0.8306	0.5043	0.2204	0.067
Mof_H 	H 	0.0602	0.6786	0.1646	0.068
Mof_H 	H 	0.0705	0.7801	0.2545	-0.014
Mof_H 	H 	0.1614	0.679	0.3402	-0.024
Mof_H 	H 	0.2876	0.6202	0.3929	0.07
Mof_H 	H 	0.1663	0.7308	0.5425	0.091
Mof_H 	H 	0.032	0.7772	0.4894	-0.018
Mof_H 	H 	0.935	0.9009	0.2825	-0.032
Mof_H 	H 	0.9733	0.0624	0.282	0.076
Mof_H 	H 	0.1217	0.1002	0.4436	0.082
Mof_H 	H 	0.0833	0.9387	0.4441	-0.027
Mof_H 	H 	0.5352	0.7672	0.307	-0.009
Mof_H 	H 	0.5185	0.6714	0.3756	0.072
Mof_H 	H 	0.6105	0.4623	0.2622	0.068
Mof_H 	H 	0.6306	0.5581	0.1937	-0.017
Mof_H 	H 	0.6623	0.6049	0.1046	-0.024
Mof_H 	H 	0.7919	0.5853	0.037	0.073
Mof_H 	H 	0.9222	0.8552	0.0924	0.075
Mof_H 	H 	0.7955	0.8721	0.1634	-0.022
Mof_H 	H 	0.3917	0.641	0.1831	-0.013
Mof_H 	H 	0.2505	0.5932	0.1136	0.061
Mof_H 	H 	0.3786	0.7638	0.0132	0.052
Mof_H 	H 	0.5285	0.8038	0.0774	-0.022
Mof_H 	H 	0.7384	0.8653	0.2844	-0.026
Mof_H 	H 	0.7485	0.0082	0.3436	0.09
Mof_H 	H 	0.5032	0.071	0.2491	0.07
Mof_H 	H 	0.4926	0.9274	0.1879	-0.022
Mof_H 	H 	0.1333	0.378	0.588	-0.007
Mof_H 	H 	0.2707	0.4064	0.5261	0.072
Mof_H 	H 	0.3337	0.1379	0.524	0.076
Mof_H 	H 	0.197	0.1138	0.5847	-0.004
Mof_H 	H 	0.1648	0.3917	0.6938	0.005
Mof_H 	H 	0.1694	0.4957	0.7796	0.05
Mof_H 	H 	0.9398	0.3214	0.8354	0.057
Mof_H 	H 	0.9295	0.2199	0.7455	0
Mof_H 	H 	0.8386	0.321	0.6598	0.01
Mof_H 	H 	0.7124	0.3798	0.6071	0.057
Mof_H 	H 	0.8337	0.2692	0.4575	0.081
Mof_H 	H 	0.968	0.2228	0.5106	0.026
Mof_H 	H 	0.065	0.0991	0.7175	-0.005
Mof_H 	H 	0.0267	0.9376	0.718	0.071
Mof_H 	H 	0.8783	0.8998	0.5564	0.082
Mof_H 	H 	0.9167	0.0613	0.5559	0.003
Mof_H 	H 	0.4648	0.2328	0.693	-0.007
Mof_H 	H 	0.4815	0.3286	0.6244	0.072
Mof_H 	H 	0.3895	0.5377	0.7378	0.069
Mof_H 	H 	0.3694	0.4419	0.8063	-0.013
Mof_H 	H 	0.3377	0.3951	0.8954	-0.009
Mof_H 	H 	0.2081	0.4147	0.963	0.078
Mof_H 	H 	0.0778	0.1448	0.9076	0.061
Mof_H 	H 	0.2045	0.1279	0.8366	-0.014
Mof_H 	H 	0.6083	0.359	0.8169	-0.006
Mof_H 	H 	0.7495	0.4068	0.8864	0.065
Mof_H 	H 	0.6214	0.2362	0.9868	0.067
Mof_H 	H 	0.4715	0.1962	0.9226	-0.01
Mof_H 	H 	0.2616	0.1347	0.7156	-0.021
Mof_H 	H 	0.2515	0.9918	0.6564	0.075
Mof_H 	H 	0.4968	0.929	0.7509	0.073
Mof_H 	H 	0.5074	0.0726	0.8121	-0.015
Mof_C 	C 	0.8524	0.7564	0.4093	-0.304
Mof_C 	C 	0.827	0.6715	0.4259	0.124
Mof_C 	C 	0.7452	0.6533	0.4625	-0.099
Mof_C 	C 	0.6872	0.7297	0.4818	-0.008
Mof_C 	C 	0.7078	0.8131	0.4639	-0.108
Mof_C 	C 	0.7893	0.8272	0.4278	0.11
Mof_C 	C 	0.605	0.7141	0.5257	0.342
Mof_C 	C 	0.9561	0.7035	0.292	-0.279
Mof_C 	C 	0.8843	0.6219	0.2782	0.099
Mof_C 	C 	0.8801	0.5602	0.2268	-0.09
Mof_C 	C 	0.9466	0.5781	0.1841	-0.026
Mof_C 	C 	0.0163	0.6628	0.1943	-0.112
Mof_C 	C 	0.0216	0.7238	0.2479	0.065
Mof_C 	C 	0.9493	0.5099	0.1295	0.401
Mof_C 	C 	0.0821	0.7355	0.4082	-0.326
Mof_C 	C 	0.1603	0.6881	0.3815	0.115
Mof_C 	C 	0.2367	0.6537	0.413	-0.096
Mof_C 	C 	0.24	0.6675	0.4745	-0.032
Mof_C 	C 	0.1641	0.7171	0.5011	-0.092
Mof_C 	C 	0.0855	0.7473	0.4693	0.112
Mof_C 	C 	0.3244	0.6349	0.5079	0.399
Mof_C 	C 	0.0055	0.9046	0.3633	-0.361
Mof_C 	C 	0.9729	0.9414	0.3152	0.152
Mof_C 	C 	0.9957	0.0373	0.3149	-0.097
Mof_C 	C 	0.0511	0.0965	0.3627	-0.015
Mof_C 	C 	0.0838	0.0597	0.4109	-0.121
Mof_C 	C 	0.061	0.9638	0.4112	0.122
Mof_C 	C 	0.0772	0.1978	0.3604	0.253
Mof_C 	C 	0.5895	0.6761	0.2422	-0.292
Mof_C 	C 	0.5529	0.7051	0.2976	0.09
Mof_C 	C 	0.5418	0.6482	0.3383	-0.087
Mof_C 	C 	0.5641	0.5572	0.3255	-0.046
Mof_C 	C 	0.5962	0.5255	0.2717	-0.092
Mof_C 	C 	0.6084	0.5829	0.231	0.096
Mof_C 	C 	0.5465	0.4929	0.3683	0.394
Mof_C 	C 	0.7146	0.7415	0.1404	-0.302
Mof_C 	C 	0.7152	0.6563	0.1025	0.114
Mof_C 	C 	0.7914	0.6445	0.0617	-0.128
Mof_C 	C 	0.8673	0.7209	0.0576	0.016
Mof_C 	C 	0.8694	0.8039	0.0947	-0.122
Mof_C 	C 	0.7927	0.8141	0.137	0.114
Mof_C 	C 	0.9427	0.7067	0.0086	0.229
Mof_C 	C 	0.4775	0.7259	0.1364	-0.284
Mof_C 	C 	0.3921	0.6646	0.1475	0.085
Mof_C 	C 	0.3071	0.6378	0.1063	-0.089
Mof_C 	C 	0.3015	0.6729	0.0558	-0.039
Mof_C 	C 	0.3821	0.7357	0.0471	-0.091
Mof_C 	C 	0.4712	0.7611	0.0861	0.092
Mof_C 	C 	0.206	0.6412	0.0128	0.367
Mof_C 	C 	0.6144	0.8786	0.2288	-0.296
Mof_C 	C 	0.6896	0.9071	0.2769	0.116
Mof_C 	C 	0.695	0.9905	0.3125	-0.133
Mof_C 	C 	0.624	0.0491	0.3037	0.002
Mof_C 	C 	0.5498	0.0273	0.2562	-0.116
Mof_C 	C 	0.5445	0.943	0.2199	0.103
Mof_C 	C 	0.6218	0.1394	0.3461	0.325
Mof_C 	C 	0.1476	0.2436	0.5907	-0.249
Mof_C 	C 	0.173	0.3285	0.5741	0.082
Mof_C 	C 	0.2548	0.3467	0.5375	-0.077
Mof_C 	C 	0.3128	0.2703	0.5182	-0.027
Mof_C 	C 	0.2922	0.1869	0.5361	-0.082
Mof_C 	C 	0.2107	0.1728	0.5722	0.07
Mof_C 	C 	0.395	0.2859	0.4743	0.348
Mof_C 	C 	0.0439	0.2965	0.708	-0.267
Mof_C 	C 	0.1157	0.3781	0.7218	0.053
Mof_C 	C 	0.1199	0.4398	0.7732	-0.043
Mof_C 	C 	0.0534	0.4219	0.8159	-0.116
Mof_C 	C 	0.9837	0.3372	0.8057	-0.015
Mof_C 	C 	0.9784	0.2762	0.7521	0.077
Mof_C 	C 	0.0507	0.4901	0.8705	0.427
Mof_C 	C 	0.9179	0.2645	0.5918	-0.207
Mof_C 	C 	0.8397	0.3119	0.6185	0.05
Mof_C 	C 	0.7633	0.3463	0.587	-0.046
Mof_C 	C 	0.76	0.3325	0.5255	-0.064
Mof_C 	C 	0.8359	0.2829	0.4989	-0.038
Mof_C 	C 	0.9145	0.2527	0.5307	0.046
Mof_C 	C 	0.6756	0.3651	0.4921	0.414
Mof_C 	C 	0.9945	0.0954	0.6367	-0.202
Mof_C 	C 	0.0271	0.0586	0.6848	0.047
Mof_C 	C 	0.0043	0.9627	0.6851	-0.134
Mof_C 	C 	0.9489	0.9035	0.6373	0.036
Mof_C 	C 	0.9162	0.9403	0.5891	-0.102
Mof_C 	C 	0.939	0.0362	0.5888	0.072
Mof_C 	C 	0.9228	0.8022	0.6396	0.245
Mof_C 	C 	0.4105	0.3239	0.7578	-0.287
Mof_C 	C 	0.4471	0.2949	0.7024	0.087
Mof_C 	C 	0.4582	0.3518	0.6617	-0.083
Mof_C 	C 	0.4359	0.4428	0.6745	-0.048
Mof_C 	C 	0.4038	0.4745	0.7283	-0.088
Mof_C 	C 	0.3916	0.4171	0.769	0.093
Mof_C 	C 	0.4535	0.5071	0.6317	0.396
Mof_C 	C 	0.2854	0.2585	0.8596	-0.282
Mof_C 	C 	0.2848	0.3437	0.8975	0.091
Mof_C 	C 	0.2086	0.3555	0.9383	-0.087
Mof_C 	C 	0.1327	0.2791	0.9424	-0.043
Mof_C 	C 	0.1306	0.1961	0.9053	-0.079
Mof_C 	C 	0.2073	0.1859	0.863	0.085
Mof_C 	C 	0.0573	0.2933	0.9914	0.397
Mof_C 	C 	0.5225	0.2741	0.8636	-0.271
Mof_C 	C 	0.6079	0.3354	0.8525	0.077
Mof_C 	C 	0.6929	0.3622	0.8937	-0.068
Mof_C 	C 	0.6985	0.3271	0.9442	-0.055
Mof_C 	C 	0.6179	0.2643	0.9529	-0.067
Mof_C 	C 	0.5288	0.2389	0.9139	0.084
Mof_C 	C 	0.794	0.3588	0.9872	0.454
Mof_C 	C 	0.3856	0.1214	0.7712	-0.287
Mof_C 	C 	0.3104	0.0929	0.7231	0.101
Mof_C 	C 	0.305	0.0095	0.6875	-0.108
Mof_C 	C 	0.376	0.9509	0.6963	-0.013
Mof_C 	C 	0.4502	0.9727	0.7438	-0.112
Mof_C 	C 	0.4555	0.057	0.7801	0.102
Mof_C 	C 	0.3782	0.8606	0.6539	0.329
Mof_O 	O 	0.5771	0.6338	0.53749	-0.611
Mof_O 	O 	0.57	0.7845	0.55282	-0.431
Mof_O 	O 	0.9115	0.4258	0.12879	-0.558
Mof_O 	O 	0.9913	0.5405	0.08702	-0.489
Mof_O 	O 	0.357	0.5603	0.48828	-0.462
Mof_O 	O 	0.3572	0.6867	0.55603	-0.454
Mof_O 	O 	0.0547	0.2295	0.3169	-0.259
Mof_O 	O 	0.1315	0.251	0.4074	-0.224
Mof_O 	O 	0.5268	0.5277	0.42012	-0.502
Mof_O 	O 	0.5544	0.4066	0.35212	-0.529
Mof_O 	O 	0.957	0.6261	0.98359	-0.558
Mof_O 	O 	0.987	0.7818	0.993	-0.386
Mof_O 	O 	0.1543	0.5625	0.01456	-0.503
Mof_O 	O 	0.1885	0.6977	0.97963	-0.51
Mof_O 	O 	0.6887	0.1559	0.39229	-0.235
Mof_O 	O 	0.5596	0.1946	0.33766	-0.471
Mof_O 	O 	0.4229	0.3662	0.46251	-0.614
Mof_O 	O 	0.43	0.2155	0.44718	-0.434
Mof_O 	O 	0.0885	0.5742	0.87121	-0.573
Mof_O 	O 	0.0087	0.4595	0.91298	-0.512
Mof_O 	O 	0.643	0.4397	0.51172	-0.463
Mof_O 	O 	0.6428	0.3133	0.44397	-0.456
Mof_O 	O 	0.9453	0.7705	0.6831	-0.229
Mof_O 	O 	0.8685	0.749	0.5926	-0.21
Mof_O 	O 	0.4732	0.4723	0.57988	-0.501
Mof_O 	O 	0.4456	0.5934	0.64788	-0.529
Mof_O 	O 	0.043	0.3739	0.01641	-0.68
Mof_O 	O 	0.013	0.2182	0.007	-0.504
Mof_O 	O 	0.8457	0.4375	0.98544	-0.479
Mof_O 	O 	0.8115	0.3023	0.02037	-0.568
Mof_O 	O 	0.3113	0.8441	0.60771	-0.242
Mof_O 	O 	0.4404	0.8054	0.66234	-0.471
_end
