data_functionalizedCrystal
_audit_creation_method	'EQeq! by Chris Wilmer'
_symmetry_space_group_name_H-M	'P1'
_symmetry_Int_Tables_number	1
_symmetry_cell_setting	triclinic
loop_
_symmetry_equiv_pos_as_xyz
  x,y,z
_cell_length_a	27.4526
_cell_length_b	27.4526
_cell_length_c	27.4526
_cell_angle_alpha	90
_cell_angle_beta	90
_cell_angle_gamma	90
loop_
_atom_site_label
_atom_site_type_symbol
_atom_site_fract_x
_atom_site_fract_y
_atom_site_fract_z
_atom_site_charge
Mof_C 	C 	0.0167	0.7945	0.648	0.03
Mof_C 	C 	0.0151	0.7584	0.6831	0.003
Mof_C 	C 	0.0167	0.2945	0.148	0.03
Mof_C 	C 	0.0151	0.2584	0.1831	0.002
Mof_C 	C 	0.5167	0.7945	0.148	0.029
Mof_C 	C 	0.5151	0.7584	0.1831	-0.004
Mof_C 	C 	0.5167	0.2945	0.648	0.029
Mof_C 	C 	0.5151	0.2584	0.6831	-0.004
Mof_C 	C 	0.9833	0.2055	0.648	0.028
Mof_C 	C 	0.9849	0.2416	0.6831	-0.012
Mof_C 	C 	0.9833	0.7055	0.148	0.028
Mof_C 	C 	0.9849	0.7416	0.1831	-0.012
Mof_C 	C 	0.4833	0.2055	0.148	0.029
Mof_C 	C 	0.4849	0.2416	0.1831	-0.004
Mof_C 	C 	0.4833	0.7055	0.648	0.029
Mof_C 	C 	0.4849	0.7416	0.6831	-0.004
Mof_C 	C 	0.9833	0.7945	0.352	0.028
Mof_C 	C 	0.9849	0.7584	0.3169	-0.012
Mof_C 	C 	0.9833	0.2945	0.852	0.027
Mof_C 	C 	0.9849	0.2584	0.8169	-0.012
Mof_C 	C 	0.4833	0.7945	0.852	0.029
Mof_C 	C 	0.4849	0.7584	0.8169	-0.004
Mof_C 	C 	0.4833	0.2945	0.352	0.029
Mof_C 	C 	0.4849	0.2584	0.3169	-0.004
Mof_C 	C 	0.0167	0.2055	0.352	0.03
Mof_C 	C 	0.0151	0.2416	0.3169	0.003
Mof_C 	C 	0.0167	0.7055	0.852	0.03
Mof_C 	C 	0.0151	0.7416	0.8169	0.003
Mof_C 	C 	0.5167	0.2055	0.852	0.029
Mof_C 	C 	0.5151	0.2416	0.8169	-0.004
Mof_C 	C 	0.5167	0.7055	0.352	0.029
Mof_C 	C 	0.5151	0.7416	0.3169	-0.004
Mof_C 	C 	0.648	0.0167	0.7945	0.03
Mof_C 	C 	0.6831	0.0151	0.7584	0.003
Mof_C 	C 	0.648	0.5167	0.2945	0.03
Mof_C 	C 	0.6831	0.5151	0.2584	-0.003
Mof_C 	C 	0.148	0.0167	0.2945	0.031
Mof_C 	C 	0.1831	0.0151	0.2584	0.003
Mof_C 	C 	0.148	0.5167	0.7945	0.03
Mof_C 	C 	0.1831	0.5151	0.7584	-0.003
Mof_C 	C 	0.648	0.9833	0.2055	0.029
Mof_C 	C 	0.6831	0.9849	0.2416	-0.011
Mof_C 	C 	0.648	0.4833	0.7055	0.03
Mof_C 	C 	0.6831	0.4849	0.7416	-0.003
Mof_C 	C 	0.148	0.9833	0.7055	0.029
Mof_C 	C 	0.1831	0.9849	0.7416	-0.011
Mof_C 	C 	0.148	0.4833	0.2055	0.03
Mof_C 	C 	0.1831	0.4849	0.2416	-0.003
Mof_C 	C 	0.352	0.9833	0.7945	0.029
Mof_C 	C 	0.3169	0.9849	0.7584	-0.011
Mof_C 	C 	0.352	0.4833	0.2945	0.03
Mof_C 	C 	0.3169	0.4849	0.2584	-0.003
Mof_C 	C 	0.852	0.9833	0.2945	0.028
Mof_C 	C 	0.8169	0.9849	0.2584	-0.011
Mof_C 	C 	0.852	0.4833	0.7945	0.03
Mof_C 	C 	0.8169	0.4849	0.7584	-0.003
Mof_C 	C 	0.352	0.0167	0.2055	0.031
Mof_C 	C 	0.3169	0.0151	0.2416	0.004
Mof_C 	C 	0.352	0.5167	0.7055	0.03
Mof_C 	C 	0.3169	0.5151	0.7416	-0.003
Mof_C 	C 	0.852	0.0167	0.7055	0.031
Mof_C 	C 	0.8169	0.0151	0.7416	0.004
Mof_C 	C 	0.852	0.5167	0.2055	0.03
Mof_C 	C 	0.8169	0.5151	0.2416	-0.003
Mof_C 	C 	0.7945	0.648	0.0167	0.031
Mof_C 	C 	0.7584	0.6831	0.0151	0.004
Mof_C 	C 	0.7945	0.148	0.5167	0.03
Mof_C 	C 	0.7584	0.1831	0.5151	-0.003
Mof_C 	C 	0.2945	0.648	0.5167	0.03
Mof_C 	C 	0.2584	0.6831	0.5151	-0.003
Mof_C 	C 	0.2945	0.148	0.0167	0.031
Mof_C 	C 	0.2584	0.1831	0.0151	0.003
Mof_C 	C 	0.2055	0.648	0.9833	0.029
Mof_C 	C 	0.2416	0.6831	0.9849	-0.011
Mof_C 	C 	0.2055	0.148	0.4833	0.03
Mof_C 	C 	0.2416	0.1831	0.4849	-0.003
Mof_C 	C 	0.7055	0.648	0.4833	0.03
Mof_C 	C 	0.7416	0.6831	0.4849	-0.003
Mof_C 	C 	0.7055	0.148	0.9833	0.029
Mof_C 	C 	0.7416	0.1831	0.9849	-0.011
Mof_C 	C 	0.7945	0.352	0.9833	0.029
Mof_C 	C 	0.7584	0.3169	0.9849	-0.011
Mof_C 	C 	0.7945	0.852	0.4833	0.03
Mof_C 	C 	0.7584	0.8169	0.4849	-0.003
Mof_C 	C 	0.2945	0.352	0.4833	0.03
Mof_C 	C 	0.2584	0.3169	0.4849	-0.003
Mof_C 	C 	0.2945	0.852	0.9833	0.028
Mof_C 	C 	0.2584	0.8169	0.9849	-0.011
Mof_C 	C 	0.2055	0.352	0.0167	0.031
Mof_C 	C 	0.2416	0.3169	0.0151	0.004
Mof_C 	C 	0.2055	0.852	0.5167	0.03
Mof_C 	C 	0.2416	0.8169	0.5151	-0.003
Mof_C 	C 	0.7055	0.352	0.5167	0.03
Mof_C 	C 	0.7416	0.3169	0.5151	-0.003
Mof_C 	C 	0.7055	0.852	0.0167	0.031
Mof_C 	C 	0.7416	0.8169	0.0151	0.004
Mof_C 	C 	0.7945	0.0167	0.352	0.031
Mof_C 	C 	0.7584	0.0151	0.3169	0.004
Mof_C 	C 	0.7945	0.5167	0.852	0.03
Mof_C 	C 	0.7584	0.5151	0.8169	-0.003
Mof_C 	C 	0.2945	0.0167	0.852	0.031
Mof_C 	C 	0.2584	0.0151	0.8169	0.004
Mof_C 	C 	0.2945	0.5167	0.352	0.03
Mof_C 	C 	0.2584	0.5151	0.3169	-0.003
Mof_C 	C 	0.2055	0.9833	0.352	0.029
Mof_C 	C 	0.2416	0.9849	0.3169	-0.011
Mof_C 	C 	0.2055	0.4833	0.852	0.03
Mof_C 	C 	0.2416	0.4849	0.8169	-0.003
Mof_C 	C 	0.7055	0.9833	0.852	0.028
Mof_C 	C 	0.7416	0.9849	0.8169	-0.011
Mof_C 	C 	0.7055	0.4833	0.352	0.03
Mof_C 	C 	0.7416	0.4849	0.3169	-0.003
Mof_C 	C 	0.7945	0.9833	0.648	0.029
Mof_C 	C 	0.7584	0.9849	0.6831	-0.011
Mof_C 	C 	0.7945	0.4833	0.148	0.03
Mof_C 	C 	0.7584	0.4849	0.1831	-0.003
Mof_C 	C 	0.2945	0.9833	0.148	0.029
Mof_C 	C 	0.2584	0.9849	0.1831	-0.011
Mof_C 	C 	0.2945	0.4833	0.648	0.03
Mof_C 	C 	0.2584	0.4849	0.6831	-0.003
Mof_C 	C 	0.2055	0.0167	0.648	0.031
Mof_C 	C 	0.2416	0.0151	0.6831	0.004
Mof_C 	C 	0.2055	0.5167	0.148	0.03
Mof_C 	C 	0.2416	0.5151	0.1831	-0.003
Mof_C 	C 	0.7055	0.0167	0.148	0.031
Mof_C 	C 	0.7416	0.0151	0.1831	0.004
Mof_C 	C 	0.7055	0.5167	0.648	0.03
Mof_C 	C 	0.7416	0.5151	0.6831	-0.003
Mof_C 	C 	0.0167	0.648	0.2055	0.031
Mof_C 	C 	0.0151	0.6831	0.2416	0.004
Mof_C 	C 	0.0167	0.148	0.7055	0.031
Mof_C 	C 	0.0151	0.1831	0.7416	0.004
Mof_C 	C 	0.5167	0.648	0.7055	0.03
Mof_C 	C 	0.5151	0.6831	0.7416	-0.003
Mof_C 	C 	0.5167	0.148	0.2055	0.03
Mof_C 	C 	0.5151	0.1831	0.2416	-0.003
Mof_C 	C 	0.9833	0.648	0.7945	0.029
Mof_C 	C 	0.9849	0.6831	0.7584	-0.011
Mof_C 	C 	0.9833	0.148	0.2945	0.029
Mof_C 	C 	0.9849	0.1831	0.2584	-0.011
Mof_C 	C 	0.4833	0.648	0.2945	0.03
Mof_C 	C 	0.4849	0.6831	0.2584	-0.003
Mof_C 	C 	0.4833	0.148	0.7945	0.03
Mof_C 	C 	0.4849	0.1831	0.7584	-0.003
Mof_C 	C 	0.9833	0.352	0.2055	0.029
Mof_C 	C 	0.9849	0.3169	0.2416	-0.011
Mof_C 	C 	0.9833	0.852	0.7055	0.028
Mof_C 	C 	0.9849	0.8169	0.7416	-0.011
Mof_C 	C 	0.4833	0.352	0.7055	0.03
Mof_C 	C 	0.4849	0.3169	0.7416	-0.003
Mof_C 	C 	0.4833	0.852	0.2055	0.03
Mof_C 	C 	0.4849	0.8169	0.2416	-0.003
Mof_C 	C 	0.0167	0.352	0.7945	0.031
Mof_C 	C 	0.0151	0.3169	0.7584	0.004
Mof_C 	C 	0.0167	0.852	0.2945	0.031
Mof_C 	C 	0.0151	0.8169	0.2584	0.004
Mof_C 	C 	0.5167	0.352	0.2945	0.03
Mof_C 	C 	0.5151	0.3169	0.2584	-0.003
Mof_C 	C 	0.5167	0.852	0.7945	0.03
Mof_C 	C 	0.5151	0.8169	0.7584	-0.003
Mof_C 	C 	0.648	0.7945	0.9833	0.029
Mof_C 	C 	0.6831	0.7584	0.9849	-0.011
Mof_C 	C 	0.648	0.2945	0.4833	0.03
Mof_C 	C 	0.6831	0.2584	0.4849	-0.003
Mof_C 	C 	0.148	0.7945	0.4833	0.03
Mof_C 	C 	0.1831	0.7584	0.4849	-0.003
Mof_C 	C 	0.148	0.2945	0.9833	0.029
Mof_C 	C 	0.1831	0.2584	0.9849	-0.011
Mof_C 	C 	0.648	0.2055	0.0167	0.031
Mof_C 	C 	0.6831	0.2416	0.0151	0.004
Mof_C 	C 	0.648	0.7055	0.5167	0.03
Mof_C 	C 	0.6831	0.7416	0.5151	-0.003
Mof_C 	C 	0.148	0.2055	0.5167	0.03
Mof_C 	C 	0.1831	0.2416	0.5151	-0.003
Mof_C 	C 	0.148	0.7055	0.0167	0.031
Mof_C 	C 	0.1831	0.7416	0.0151	0.004
Mof_C 	C 	0.352	0.7945	0.0167	0.031
Mof_C 	C 	0.3169	0.7584	0.0151	0.004
Mof_C 	C 	0.352	0.2945	0.5167	0.03
Mof_C 	C 	0.3169	0.2584	0.5151	-0.003
Mof_C 	C 	0.852	0.7945	0.5167	0.03
Mof_C 	C 	0.8169	0.7584	0.5151	-0.003
Mof_C 	C 	0.852	0.2945	0.0167	0.031
Mof_C 	C 	0.8169	0.2584	0.0151	0.004
Mof_C 	C 	0.352	0.2055	0.9833	0.029
Mof_C 	C 	0.3169	0.2416	0.9849	-0.011
Mof_C 	C 	0.352	0.7055	0.4833	0.03
Mof_C 	C 	0.3169	0.7416	0.4849	-0.003
Mof_C 	C 	0.852	0.2055	0.4833	0.03
Mof_C 	C 	0.8169	0.2416	0.4849	-0.003
Mof_C 	C 	0.852	0.7055	0.9833	0.028
Mof_C 	C 	0.8169	0.7416	0.9849	-0.011
Mof_C 	C 	0.9833	0.2055	0.352	0.029
Mof_C 	C 	0.9849	0.2416	0.3169	-0.011
Mof_C 	C 	0.9833	0.7055	0.852	0.028
Mof_C 	C 	0.9849	0.7416	0.8169	-0.011
Mof_C 	C 	0.4833	0.2055	0.852	0.03
Mof_C 	C 	0.4849	0.2416	0.8169	-0.003
Mof_C 	C 	0.4833	0.7055	0.352	0.03
Mof_C 	C 	0.4849	0.7416	0.3169	-0.003
Mof_C 	C 	0.0167	0.7945	0.352	0.031
Mof_C 	C 	0.0151	0.7584	0.3169	0.004
Mof_C 	C 	0.0167	0.2945	0.852	0.031
Mof_C 	C 	0.0151	0.2584	0.8169	0.004
Mof_C 	C 	0.5167	0.7945	0.852	0.03
Mof_C 	C 	0.5151	0.7584	0.8169	-0.003
Mof_C 	C 	0.5167	0.2945	0.352	0.03
Mof_C 	C 	0.5151	0.2584	0.3169	-0.003
Mof_C 	C 	0.0167	0.2055	0.648	0.031
Mof_C 	C 	0.0151	0.2416	0.6831	0.004
Mof_C 	C 	0.0167	0.7055	0.148	0.031
Mof_C 	C 	0.0151	0.7416	0.1831	0.004
Mof_C 	C 	0.5167	0.2055	0.148	0.03
Mof_C 	C 	0.5151	0.2416	0.1831	-0.003
Mof_C 	C 	0.5167	0.7055	0.648	0.03
Mof_C 	C 	0.5151	0.7416	0.6831	-0.003
Mof_C 	C 	0.9833	0.7945	0.648	0.029
Mof_C 	C 	0.9849	0.7584	0.6831	-0.011
Mof_C 	C 	0.9833	0.2945	0.148	0.029
Mof_C 	C 	0.9849	0.2584	0.1831	-0.011
Mof_C 	C 	0.4833	0.7945	0.148	0.03
Mof_C 	C 	0.4849	0.7584	0.1831	-0.003
Mof_C 	C 	0.4833	0.2945	0.648	0.03
Mof_C 	C 	0.4849	0.2584	0.6831	-0.003
Mof_C 	C 	0.352	0.9833	0.2055	0.029
Mof_C 	C 	0.3169	0.9849	0.2416	-0.011
Mof_C 	C 	0.352	0.4833	0.7055	0.03
Mof_C 	C 	0.3169	0.4849	0.7416	-0.003
Mof_C 	C 	0.852	0.9833	0.7055	0.028
Mof_C 	C 	0.8169	0.9849	0.7416	-0.011
Mof_C 	C 	0.852	0.4833	0.2055	0.03
Mof_C 	C 	0.8169	0.4849	0.2416	-0.003
Mof_C 	C 	0.352	0.0167	0.7945	0.031
Mof_C 	C 	0.3169	0.0151	0.7584	0.004
Mof_C 	C 	0.352	0.5167	0.2945	0.03
Mof_C 	C 	0.3169	0.5151	0.2584	-0.003
Mof_C 	C 	0.852	0.0167	0.2945	0.031
Mof_C 	C 	0.8169	0.0151	0.2584	0.004
Mof_C 	C 	0.852	0.5167	0.7945	0.03
Mof_C 	C 	0.8169	0.5151	0.7584	-0.003
Mof_C 	C 	0.648	0.0167	0.2055	0.031
Mof_C 	C 	0.6831	0.0151	0.2416	0.004
Mof_C 	C 	0.648	0.5167	0.7055	0.03
Mof_C 	C 	0.6831	0.5151	0.7416	-0.003
Mof_C 	C 	0.148	0.0167	0.7055	0.031
Mof_C 	C 	0.1831	0.0151	0.7416	0.004
Mof_C 	C 	0.148	0.5167	0.2055	0.03
Mof_C 	C 	0.1831	0.5151	0.2416	-0.003
Mof_C 	C 	0.648	0.9833	0.7945	0.029
Mof_C 	C 	0.6831	0.9849	0.7584	-0.011
Mof_C 	C 	0.648	0.4833	0.2945	0.03
Mof_C 	C 	0.6831	0.4849	0.2584	-0.003
Mof_C 	C 	0.148	0.9833	0.2945	0.029
Mof_C 	C 	0.1831	0.9849	0.2584	-0.011
Mof_C 	C 	0.148	0.4833	0.7945	0.03
Mof_C 	C 	0.1831	0.4849	0.7584	-0.003
Mof_C 	C 	0.2055	0.352	0.9833	0.029
Mof_C 	C 	0.2416	0.3169	0.9849	-0.011
Mof_C 	C 	0.2055	0.852	0.4833	0.03
Mof_C 	C 	0.2416	0.8169	0.4849	-0.003
Mof_C 	C 	0.7055	0.352	0.4833	0.03
Mof_C 	C 	0.7416	0.3169	0.4849	-0.003
Mof_C 	C 	0.7055	0.852	0.9833	0.028
Mof_C 	C 	0.7416	0.8169	0.9849	-0.011
Mof_C 	C 	0.7945	0.352	0.0167	0.031
Mof_C 	C 	0.7584	0.3169	0.0151	0.004
Mof_C 	C 	0.7945	0.852	0.5167	0.03
Mof_C 	C 	0.7584	0.8169	0.5151	-0.003
Mof_C 	C 	0.2945	0.352	0.5167	0.03
Mof_C 	C 	0.2584	0.3169	0.5151	-0.003
Mof_C 	C 	0.2945	0.852	0.0167	0.031
Mof_C 	C 	0.2584	0.8169	0.0151	0.004
Mof_C 	C 	0.2055	0.648	0.0167	0.031
Mof_C 	C 	0.2416	0.6831	0.0151	0.004
Mof_C 	C 	0.2055	0.148	0.5167	0.03
Mof_C 	C 	0.2416	0.1831	0.5151	-0.003
Mof_C 	C 	0.7055	0.648	0.5167	0.03
Mof_C 	C 	0.7416	0.6831	0.5151	-0.003
Mof_C 	C 	0.7055	0.148	0.0167	0.031
Mof_C 	C 	0.7416	0.1831	0.0151	0.004
Mof_C 	C 	0.7945	0.648	0.9833	0.029
Mof_C 	C 	0.7584	0.6831	0.9849	-0.011
Mof_C 	C 	0.7945	0.148	0.4833	0.03
Mof_C 	C 	0.7584	0.1831	0.4849	-0.003
Mof_C 	C 	0.2945	0.648	0.4833	0.03
Mof_C 	C 	0.2584	0.6831	0.4849	-0.003
Mof_C 	C 	0.2945	0.148	0.9833	0.029
Mof_C 	C 	0.2584	0.1831	0.9849	-0.011
Mof_C 	C 	0.2055	0.9833	0.648	0.029
Mof_C 	C 	0.2416	0.9849	0.6831	-0.011
Mof_C 	C 	0.2055	0.4833	0.148	0.03
Mof_C 	C 	0.2416	0.4849	0.1831	-0.003
Mof_C 	C 	0.7055	0.9833	0.148	0.029
Mof_C 	C 	0.7416	0.9849	0.1831	-0.011
Mof_C 	C 	0.7055	0.4833	0.648	0.03
Mof_C 	C 	0.7416	0.4849	0.6831	-0.003
Mof_C 	C 	0.7945	0.0167	0.648	0.031
Mof_C 	C 	0.7584	0.0151	0.6831	0.004
Mof_C 	C 	0.7945	0.5167	0.148	0.03
Mof_C 	C 	0.7584	0.5151	0.1831	-0.003
Mof_C 	C 	0.2945	0.0167	0.148	0.031
Mof_C 	C 	0.2584	0.0151	0.1831	0.003
Mof_C 	C 	0.2945	0.5167	0.648	0.03
Mof_C 	C 	0.2584	0.5151	0.6831	-0.003
Mof_C 	C 	0.2055	0.0167	0.352	0.031
Mof_C 	C 	0.2416	0.0151	0.3169	0.004
Mof_C 	C 	0.2055	0.5167	0.852	0.03
Mof_C 	C 	0.2416	0.5151	0.8169	-0.003
Mof_C 	C 	0.7055	0.0167	0.852	0.031
Mof_C 	C 	0.7416	0.0151	0.8169	0.004
Mof_C 	C 	0.7055	0.5167	0.352	0.03
Mof_C 	C 	0.7416	0.5151	0.3169	-0.003
Mof_C 	C 	0.7945	0.9833	0.352	0.029
Mof_C 	C 	0.7584	0.9849	0.3169	-0.011
Mof_C 	C 	0.7945	0.4833	0.852	0.03
Mof_C 	C 	0.7584	0.4849	0.8169	-0.003
Mof_C 	C 	0.2945	0.9833	0.852	0.028
Mof_C 	C 	0.2584	0.9849	0.8169	-0.011
Mof_C 	C 	0.2945	0.4833	0.352	0.03
Mof_C 	C 	0.2584	0.4849	0.3169	-0.003
Mof_C 	C 	0.9833	0.352	0.7945	0.029
Mof_C 	C 	0.9849	0.3169	0.7584	-0.011
Mof_C 	C 	0.9833	0.852	0.2945	0.028
Mof_C 	C 	0.9849	0.8169	0.2584	-0.011
Mof_C 	C 	0.4833	0.352	0.2945	0.03
Mof_C 	C 	0.4849	0.3169	0.2584	-0.003
Mof_C 	C 	0.4833	0.852	0.7945	0.03
Mof_C 	C 	0.4849	0.8169	0.7584	-0.003
Mof_C 	C 	0.0167	0.352	0.2055	0.031
Mof_C 	C 	0.0151	0.3169	0.2416	0.004
Mof_C 	C 	0.0167	0.852	0.7055	0.031
Mof_C 	C 	0.0151	0.8169	0.7416	0.004
Mof_C 	C 	0.5167	0.352	0.7055	0.03
Mof_C 	C 	0.5151	0.3169	0.7416	-0.003
Mof_C 	C 	0.5167	0.852	0.2055	0.03
Mof_C 	C 	0.5151	0.8169	0.2416	-0.003
Mof_C 	C 	0.0167	0.648	0.7945	0.031
Mof_C 	C 	0.0151	0.6831	0.7584	0.004
Mof_C 	C 	0.0167	0.148	0.2945	0.031
Mof_C 	C 	0.0151	0.1831	0.2584	0.003
Mof_C 	C 	0.5167	0.648	0.2945	0.03
Mof_C 	C 	0.5151	0.6831	0.2584	-0.003
Mof_C 	C 	0.5167	0.148	0.7945	0.03
Mof_C 	C 	0.5151	0.1831	0.7584	-0.003
Mof_C 	C 	0.9833	0.648	0.2055	0.029
Mof_C 	C 	0.9849	0.6831	0.2416	-0.011
Mof_C 	C 	0.9833	0.148	0.7055	0.029
Mof_C 	C 	0.9849	0.1831	0.7416	-0.011
Mof_C 	C 	0.4833	0.648	0.7055	0.03
Mof_C 	C 	0.4849	0.6831	0.7416	-0.003
Mof_C 	C 	0.4833	0.148	0.2055	0.03
Mof_C 	C 	0.4849	0.1831	0.2416	-0.003
Mof_C 	C 	0.352	0.2055	0.0167	0.031
Mof_C 	C 	0.3169	0.2416	0.0151	0.004
Mof_C 	C 	0.352	0.7055	0.5167	0.03
Mof_C 	C 	0.3169	0.7416	0.5151	-0.003
Mof_C 	C 	0.852	0.2055	0.5167	0.03
Mof_C 	C 	0.8169	0.2416	0.5151	-0.003
Mof_C 	C 	0.852	0.7055	0.0167	0.031
Mof_C 	C 	0.8169	0.7416	0.0151	0.004
Mof_C 	C 	0.352	0.7945	0.9833	0.029
Mof_C 	C 	0.3169	0.7584	0.9849	-0.011
Mof_C 	C 	0.352	0.2945	0.4833	0.03
Mof_C 	C 	0.3169	0.2584	0.4849	-0.003
Mof_C 	C 	0.852	0.7945	0.4833	0.03
Mof_C 	C 	0.8169	0.7584	0.4849	-0.003
Mof_C 	C 	0.852	0.2945	0.9833	0.028
Mof_C 	C 	0.8169	0.2584	0.9849	-0.011
Mof_C 	C 	0.648	0.2055	0.9833	0.029
Mof_C 	C 	0.6831	0.2416	0.9849	-0.011
Mof_C 	C 	0.648	0.7055	0.4833	0.03
Mof_C 	C 	0.6831	0.7416	0.4849	-0.003
Mof_C 	C 	0.148	0.2055	0.4833	0.03
Mof_C 	C 	0.1831	0.2416	0.4849	-0.003
Mof_C 	C 	0.148	0.7055	0.9833	0.029
Mof_C 	C 	0.1831	0.7416	0.9849	-0.011
Mof_C 	C 	0.648	0.7945	0.0167	0.031
Mof_C 	C 	0.6831	0.7584	0.0151	0.004
Mof_C 	C 	0.648	0.2945	0.5167	0.03
Mof_C 	C 	0.6831	0.2584	0.5151	-0.003
Mof_C 	C 	0.148	0.7945	0.5167	0.03
Mof_C 	C 	0.1831	0.7584	0.5151	-0.003
Mof_C 	C 	0.148	0.2945	0.0167	0.031
Mof_C 	C 	0.1831	0.2584	0.0151	0.003
Mof_U 	U 	1.16356e-32	0.90113	0.5	0.046
Mof_U 	U 	-0	0.40113	-0	0.047
Mof_U 	U 	0.5	0.40113	0.5	0.045
Mof_U 	U 	-3.00575e-33	0.09887	0.5	0.046
Mof_U 	U 	-0	0.59887	-0	0.047
Mof_U 	U 	0.5	0.59887	0.5	0.045
Mof_U 	U 	0.5	0.90113	-0	0.046
Mof_U 	U 	0.5	0.09887	-0	0.046
Mof_U 	U 	0.5	0	0.90113	0.046
Mof_U 	U 	0.5	0.5	0.40113	0.045
Mof_U 	U 	0.5	0	0.09887	0.046
Mof_U 	U 	0.5	0.5	0.59887	0.045
Mof_U 	U 	1.31396e-32	0.5	0.90113	0.046
Mof_U 	U 	-8.4941e-34	0.5	0.09887	0.046
Mof_U 	U 	0.90113	0.5	-0	0.046
Mof_U 	U 	0.40113	0.5	0.5	0.045
Mof_U 	U 	0.09887	0.5	-0	0.046
Mof_U 	U 	0.59887	0.5	0.5	0.045
Mof_U 	U 	0.40113	0	-0	0.047
Mof_U 	U 	0.59887	0	-0	0.047
Mof_U 	U 	0.90113	0	0.5	0.046
Mof_U 	U 	0.09887	0	0.5	0.046
Mof_U 	U 	2.2454e-33	0	0.59887	0.047
Mof_U 	U 	1.504e-33	0	0.40113	0.047
Mof_O 	O 	-2.72005e-33	0.8647	0.5762	-0.164
Mof_O 	O 	-9.34409e-34	0.3647	0.0762	-0.164
Mof_O 	O 	0.5	0.8647	0.0762	-0.165
Mof_O 	O 	0.5	0.3647	0.5762	-0.165
Mof_O 	O 	-2.72005e-33	0.1353	0.5762	-0.164
Mof_O 	O 	-9.34409e-34	0.6353	0.0762	-0.164
Mof_O 	O 	0.5	0.1353	0.0762	-0.165
Mof_O 	O 	0.5	0.6353	0.5762	-0.165
Mof_O 	O 	1.589e-33	0.8647	0.4238	-0.164
Mof_O 	O 	-6.29721e-33	0.3647	0.9238	-0.165
Mof_O 	O 	0.5	0.8647	0.9238	-0.166
Mof_O 	O 	0.5	0.3647	0.4238	-0.165
Mof_O 	O 	-8.17191e-33	0.1353	0.4238	-0.164
Mof_O 	O 	1.32246e-32	0.6353	0.9238	-0.165
Mof_O 	O 	0.5	0.1353	0.9238	-0.166
Mof_O 	O 	0.5	0.6353	0.4238	-0.165
Mof_O 	O 	0.5762	0	0.8647	-0.164
Mof_O 	O 	0.5762	0.5	0.3647	-0.165
Mof_O 	O 	0.0762	0	0.3647	-0.164
Mof_O 	O 	0.0762	0.5	0.8647	-0.165
Mof_O 	O 	0.5762	0	0.1353	-0.164
Mof_O 	O 	0.5762	0.5	0.6353	-0.165
Mof_O 	O 	0.0762	0	0.6353	-0.164
Mof_O 	O 	0.0762	0.5	0.1353	-0.165
Mof_O 	O 	0.4238	0	0.8647	-0.164
Mof_O 	O 	0.4238	0.5	0.3647	-0.165
Mof_O 	O 	0.9238	0	0.3647	-0.165
Mof_O 	O 	0.9238	0.5	0.8647	-0.166
Mof_O 	O 	0.4238	0	0.1353	-0.164
Mof_O 	O 	0.4238	0.5	0.6353	-0.165
Mof_O 	O 	0.9238	0	0.6353	-0.165
Mof_O 	O 	0.9238	0.5	0.1353	-0.166
Mof_O 	O 	0.8647	0.5762	-0	-0.164
Mof_O 	O 	0.8647	0.0762	0.5	-0.165
Mof_O 	O 	0.3647	0.5762	0.5	-0.165
Mof_O 	O 	0.3647	0.0762	-0	-0.164
Mof_O 	O 	0.1353	0.5762	-0	-0.164
Mof_O 	O 	0.1353	0.0762	0.5	-0.165
Mof_O 	O 	0.6353	0.5762	0.5	-0.165
Mof_O 	O 	0.6353	0.0762	-0	-0.164
Mof_O 	O 	0.8647	0.4238	-0	-0.164
Mof_O 	O 	0.8647	0.9238	0.5	-0.166
Mof_O 	O 	0.3647	0.4238	0.5	-0.165
Mof_O 	O 	0.3647	0.9238	-0	-0.165
Mof_O 	O 	0.1353	0.4238	-0	-0.164
Mof_O 	O 	0.1353	0.9238	0.5	-0.166
Mof_O 	O 	0.6353	0.4238	0.5	-0.165
Mof_O 	O 	0.6353	0.9238	-0	-0.165
Mof_O 	O 	0.8647	-4.88045e-33	0.4238	-0.164
Mof_O 	O 	0.8647	0.5	0.9238	-0.166
Mof_O 	O 	0.3647	-9.7609e-33	0.9238	-0.165
Mof_O 	O 	0.3647	0.5	0.4238	-0.165
Mof_O 	O 	0.1353	-4.88045e-33	0.4238	-0.164
Mof_O 	O 	0.1353	0.5	0.9238	-0.166
Mof_O 	O 	0.6353	-9.7609e-33	0.9238	-0.165
Mof_O 	O 	0.6353	0.5	0.4238	-0.165
Mof_O 	O 	0.8647	0	0.5762	-0.164
Mof_O 	O 	0.8647	0.5	0.0762	-0.165
Mof_O 	O 	0.3647	-6.10056e-34	0.0762	-0.164
Mof_O 	O 	0.3647	0.5	0.5762	-0.165
Mof_O 	O 	0.1353	0	0.5762	-0.164
Mof_O 	O 	0.1353	0.5	0.0762	-0.165
Mof_O 	O 	0.6353	-6.10056e-34	0.0762	-0.164
Mof_O 	O 	0.6353	0.5	0.5762	-0.165
Mof_O 	O 	-7.12819e-34	0.5762	0.1353	-0.164
Mof_O 	O 	-2.49846e-33	0.0762	0.6353	-0.164
Mof_O 	O 	0.5	0.5762	0.6353	-0.165
Mof_O 	O 	0.5	0.0762	0.1353	-0.165
Mof_O 	O 	-6.5188e-33	0.5762	0.8647	-0.164
Mof_O 	O 	1.36741e-33	0.0762	0.3647	-0.164
Mof_O 	O 	0.5	0.5762	0.3647	-0.165
Mof_O 	O 	0.5	0.0762	0.8647	-0.165
Mof_O 	O 	-5.59327e-33	0.4238	0.1353	-0.164
Mof_O 	O 	7.26244e-33	0.9238	0.6353	-0.165
Mof_O 	O 	0.5	0.4238	0.6353	-0.165
Mof_O 	O 	0.5	0.9238	0.1353	-0.166
Mof_O 	O 	3.24211e-33	0.4238	0.8647	-0.164
Mof_O 	O 	-8.3935e-33	0.9238	0.3647	-0.165
Mof_O 	O 	0.5	0.4238	0.3647	-0.165
Mof_O 	O 	0.5	0.9238	0.8647	-0.166
Mof_O 	O 	0.5762	0.8647	-0	-0.164
Mof_O 	O 	0.5762	0.3647	0.5	-0.165
Mof_O 	O 	0.0762	0.8647	0.5	-0.165
Mof_O 	O 	0.0762	0.3647	-0	-0.164
Mof_O 	O 	0.5762	0.1353	-0	-0.164
Mof_O 	O 	0.5762	0.6353	0.5	-0.165
Mof_O 	O 	0.0762	0.1353	0.5	-0.165
Mof_O 	O 	0.0762	0.6353	-0	-0.164
Mof_O 	O 	0.4238	0.8647	-0	-0.164
Mof_O 	O 	0.4238	0.3647	0.5	-0.165
Mof_O 	O 	0.9238	0.8647	0.5	-0.166
Mof_O 	O 	0.9238	0.3647	-0	-0.165
Mof_O 	O 	0.4238	0.1353	-0	-0.164
Mof_O 	O 	0.4238	0.6353	0.5	-0.165
Mof_O 	O 	0.9238	0.1353	0.5	-0.166
Mof_O 	O 	0.9238	0.6353	-0	-0.165
Mof_C 	C 	2.3235e-33	0.8803	0.6197	0.288
Mof_C 	C 	2.4701e-33	0.8412	0.6588	-0.079
Mof_C 	C 	2.73856e-33	0.7696	0.7304	0.011
Mof_C 	C 	0.5	0.8803	0.1197	0.288
Mof_C 	C 	0.5	0.8412	0.1588	-0.081
Mof_C 	C 	0.5	0.7696	0.2304	0.009
Mof_C 	C 	-2.55695e-33	0.1197	0.6197	0.287
Mof_C 	C 	2.4701e-33	0.1588	0.6588	-0.079
Mof_C 	C 	1.24995e-32	0.2304	0.7304	0.011
Mof_C 	C 	0.5	0.1197	0.1197	0.288
Mof_C 	C 	0.5	0.1588	0.1588	-0.081
Mof_C 	C 	0.5	0.2304	0.2304	0.009
Mof_C 	C 	1.4259e-33	0.8803	0.3803	0.288
Mof_C 	C 	1.10402e-32	0.8412	0.3412	-0.079
Mof_C 	C 	3.45106e-33	0.7696	0.2696	0.011
Mof_C 	C 	0.5	0.8803	0.8803	0.288
Mof_C 	C 	0.5	0.8412	0.8412	-0.081
Mof_C 	C 	0.5	0.7696	0.7696	0.009
Mof_C 	C 	1.4259e-33	0.1197	0.3803	0.287
Mof_C 	C 	-1.16093e-33	0.1588	0.3412	-0.079
Mof_C 	C 	1.01084e-33	0.2304	0.2696	0.011
Mof_C 	C 	0.5	0.1197	0.8803	0.288
Mof_C 	C 	0.5	0.1588	0.8412	-0.081
Mof_C 	C 	0.5	0.2304	0.7696	0.009
Mof_C 	C 	0.6197	9.7609e-33	0.8803	0.288
Mof_C 	C 	0.6588	9.7609e-33	0.8412	-0.079
Mof_C 	C 	0.7304	0	0.7696	0.011
Mof_C 	C 	0.6197	0.5	0.3803	0.288
Mof_C 	C 	0.6588	0.5	0.3412	-0.081
Mof_C 	C 	0.7304	0.5	0.2696	0.009
Mof_C 	C 	0.6197	0	0.1197	0.287
Mof_C 	C 	0.6588	-1.22011e-33	0.1588	-0.079
Mof_C 	C 	0.7304	-2.44023e-33	0.2304	0.011
Mof_C 	C 	0.6197	0.5	0.6197	0.288
Mof_C 	C 	0.6588	0.5	0.6588	-0.081
Mof_C 	C 	0.7304	0.5	0.7304	0.009
Mof_C 	C 	0.3803	9.7609e-33	0.8803	0.288
Mof_C 	C 	0.3412	9.7609e-33	0.8412	-0.079
Mof_C 	C 	0.2696	0	0.7696	0.011
Mof_C 	C 	0.3803	0.5	0.3803	0.288
Mof_C 	C 	0.3412	0.5	0.3412	-0.081
Mof_C 	C 	0.2696	0.5	0.2696	0.009
Mof_C 	C 	0.3803	0	0.1197	0.287
Mof_C 	C 	0.3412	-1.22011e-33	0.1588	-0.079
Mof_C 	C 	0.2696	-2.44023e-33	0.2304	0.011
Mof_C 	C 	0.3803	0.5	0.6197	0.288
Mof_C 	C 	0.3412	0.5	0.6588	-0.081
Mof_C 	C 	0.2696	0.5	0.7304	0.009
Mof_C 	C 	0.8803	0.6197	-0	0.288
Mof_C 	C 	0.8412	0.6588	-0	-0.079
Mof_C 	C 	0.7696	0.7304	-0	0.011
Mof_C 	C 	0.8803	0.1197	0.5	0.288
Mof_C 	C 	0.8412	0.1588	0.5	-0.081
Mof_C 	C 	0.7696	0.2304	0.5	0.009
Mof_C 	C 	0.1197	0.6197	-0	0.287
Mof_C 	C 	0.1588	0.6588	-0	-0.079
Mof_C 	C 	0.2304	0.7304	-0	0.011
Mof_C 	C 	0.1197	0.1197	0.5	0.288
Mof_C 	C 	0.1588	0.1588	0.5	-0.081
Mof_C 	C 	0.2304	0.2304	0.5	0.009
Mof_C 	C 	0.8803	0.3803	-0	0.288
Mof_C 	C 	0.8412	0.3412	-0	-0.079
Mof_C 	C 	0.7696	0.2696	-0	0.011
Mof_C 	C 	0.8803	0.8803	0.5	0.288
Mof_C 	C 	0.8412	0.8412	0.5	-0.081
Mof_C 	C 	0.7696	0.7696	0.5	0.009
Mof_C 	C 	0.1197	0.3803	-0	0.287
Mof_C 	C 	0.1588	0.3412	-0	-0.079
Mof_C 	C 	0.2304	0.2696	-0	0.011
Mof_C 	C 	0.1197	0.8803	0.5	0.288
Mof_C 	C 	0.1588	0.8412	0.5	-0.081
Mof_C 	C 	0.2304	0.7696	0.5	0.009
Mof_C 	C 	0.8803	0	0.3803	0.288
Mof_C 	C 	0.8412	-2.44023e-33	0.3412	-0.079
Mof_C 	C 	0.7696	2.44023e-33	0.2696	0.011
Mof_C 	C 	0.8803	0.5	0.8803	0.288
Mof_C 	C 	0.8412	0.5	0.8412	-0.081
Mof_C 	C 	0.7696	0.5	0.7696	0.009
Mof_C 	C 	0.1197	0	0.3803	0.287
Mof_C 	C 	0.1588	-2.44023e-33	0.3412	-0.079
Mof_C 	C 	0.2304	2.44023e-33	0.2696	0.011
Mof_C 	C 	0.1197	0.5	0.8803	0.288
Mof_C 	C 	0.1588	0.5	0.8412	-0.081
Mof_C 	C 	0.2304	0.5	0.7696	0.009
Mof_C 	C 	0.8803	0	0.6197	0.288
Mof_C 	C 	0.8412	0	0.6588	-0.079
Mof_C 	C 	0.7696	0	0.7304	0.011
Mof_C 	C 	0.8803	0.5	0.1197	0.288
Mof_C 	C 	0.8412	0.5	0.1588	-0.081
Mof_C 	C 	0.7696	0.5	0.2304	0.009
Mof_C 	C 	0.1197	0	0.6197	0.287
Mof_C 	C 	0.1588	0	0.6588	-0.079
Mof_C 	C 	0.2304	0	0.7304	0.011
Mof_C 	C 	0.1197	0.5	0.1197	0.288
Mof_C 	C 	0.1588	0.5	0.1588	-0.081
Mof_C 	C 	0.2304	0.5	0.2304	0.009
Mof_C 	C 	-7.7131e-34	0.6197	0.1197	0.287
Mof_C 	C 	-6.24708e-34	0.6588	0.1588	-0.079
Mof_C 	C 	8.18454e-33	0.7304	0.2304	0.011
Mof_C 	C 	0.5	0.6197	0.6197	0.288
Mof_C 	C 	0.5	0.6588	0.6588	-0.081
Mof_C 	C 	0.5	0.7304	0.7304	0.009
Mof_C 	C 	3.3006e-33	0.6197	0.8803	0.288
Mof_C 	C 	3.15399e-33	0.6588	0.8412	-0.079
Mof_C 	C 	2.88554e-33	0.7304	0.7696	0.011
Mof_C 	C 	0.5	0.6197	0.3803	0.288
Mof_C 	C 	0.5	0.6588	0.3412	-0.081
Mof_C 	C 	0.5	0.7304	0.2696	0.009
Mof_C 	C 	-7.7131e-34	0.3803	0.1197	0.287
Mof_C 	C 	-6.24708e-34	0.3412	0.1588	-0.079
Mof_C 	C 	8.63862e-34	0.2696	0.2304	0.011
Mof_C 	C 	0.5	0.3803	0.6197	0.288
Mof_C 	C 	0.5	0.3412	0.6588	-0.081
Mof_C 	C 	0.5	0.2696	0.7304	0.009
Mof_C 	C 	3.3006e-33	0.3803	0.8803	0.288
Mof_C 	C 	1.29149e-32	0.3412	0.8412	-0.079
Mof_C 	C 	2.88554e-33	0.2696	0.7696	0.011
Mof_C 	C 	0.5	0.3803	0.3803	0.288
Mof_C 	C 	0.5	0.3412	0.3412	-0.081
Mof_C 	C 	0.5	0.2696	0.2696	0.009
Mof_C 	C 	0.6197	0.8803	-0	0.288
Mof_C 	C 	0.6588	0.8412	-0	-0.079
Mof_C 	C 	0.7304	0.7696	-0	0.011
Mof_C 	C 	0.6197	0.3803	0.5	0.288
Mof_C 	C 	0.6588	0.3412	0.5	-0.081
Mof_C 	C 	0.7304	0.2696	0.5	0.009
Mof_C 	C 	0.6197	0.1197	-0	0.287
Mof_C 	C 	0.6588	0.1588	-0	-0.079
Mof_C 	C 	0.7304	0.2304	-0	0.011
Mof_C 	C 	0.6197	0.6197	0.5	0.288
Mof_C 	C 	0.6588	0.6588	0.5	-0.081
Mof_C 	C 	0.7304	0.7304	0.5	0.009
Mof_C 	C 	0.3803	0.8803	-0	0.288
Mof_C 	C 	0.3412	0.8412	-0	-0.079
Mof_C 	C 	0.2696	0.7696	-0	0.011
Mof_C 	C 	0.3803	0.3803	0.5	0.288
Mof_C 	C 	0.3412	0.3412	0.5	-0.081
Mof_C 	C 	0.2696	0.2696	0.5	0.009
Mof_C 	C 	0.3803	0.1197	-0	0.287
Mof_C 	C 	0.3412	0.1588	-0	-0.079
Mof_C 	C 	0.2696	0.2304	-0	0.011
Mof_C 	C 	0.3803	0.6197	0.5	0.288
Mof_C 	C 	0.3412	0.6588	0.5	-0.081
Mof_C 	C 	0.2696	0.7304	0.5	0.009
Mof_O 	O 	0.9518	0.9518	0.4518	-0.027
Mof_O 	O 	0.0482	0.0482	0.4518	-0.025
Mof_O 	O 	0.0482	0.9518	0.5482	-0.026
Mof_O 	O 	0.9518	0.0482	0.5482	-0.026
Mof_O 	O 	0.4518	0.9518	0.9518	-0.027
Mof_O 	O 	0.4518	0.4518	0.4518	-0.025
Mof_O 	O 	0.4518	0.0482	0.0482	-0.025
Mof_O 	O 	0.4518	0.5482	0.5482	-0.025
Mof_O 	O 	0.5482	0.0482	0.9518	-0.026
Mof_O 	O 	0.5482	0.5482	0.4518	-0.025
Mof_O 	O 	0.5482	0.9518	0.0482	-0.026
Mof_O 	O 	0.5482	0.4518	0.5482	-0.025
Mof_O 	O 	0.9518	0.4518	0.9518	-0.027
Mof_O 	O 	0.0482	0.4518	0.0482	-0.025
Mof_O 	O 	0.9518	0.5482	0.0482	-0.026
Mof_O 	O 	0.0482	0.5482	0.9518	-0.026
Mof_O 	O 	0.9518	0.9518	0.5482	-0.027
Mof_O 	O 	0.0482	0.0482	0.5482	-0.025
Mof_O 	O 	0.9518	0.0482	0.4518	-0.026
Mof_O 	O 	0.0482	0.9518	0.4518	-0.026
Mof_O 	O 	0.9518	0.4518	0.0482	-0.026
Mof_O 	O 	0.0482	0.4518	0.9518	-0.026
Mof_O 	O 	0.0482	0.5482	0.0482	-0.025
Mof_O 	O 	0.9518	0.5482	0.9518	-0.027
Mof_O 	O 	0.4518	0.9518	0.0482	-0.026
Mof_O 	O 	0.4518	0.4518	0.5482	-0.025
Mof_O 	O 	0.4518	0.0482	0.9518	-0.026
Mof_O 	O 	0.4518	0.5482	0.4518	-0.025
Mof_O 	O 	0.5482	0.9518	0.9518	-0.027
Mof_O 	O 	0.5482	0.4518	0.4518	-0.025
Mof_O 	O 	0.5482	0.0482	0.0482	-0.025
Mof_O 	O 	0.5482	0.5482	0.5482	-0.025
_end
