data_functionalizedCrystal
_audit_creation_method	'EQeq! by Chris Wilmer'
_symmetry_space_group_name_H-M	'P1'
_symmetry_Int_Tables_number	1
_symmetry_cell_setting	triclinic
loop_
_symmetry_equiv_pos_as_xyz
  x,y,z
_cell_length_a	26.353
_cell_length_b	26.353
_cell_length_c	26.353
_cell_angle_alpha	90
_cell_angle_beta	90
_cell_angle_gamma	90
loop_
_atom_site_label
_atom_site_type_symbol
_atom_site_fract_x
_atom_site_fract_y
_atom_site_fract_z
_atom_site_charge
Mof_O 	O 	0.2435	0.0513	0.1834	-0.426
Mof_O 	O 	0.2435	0.5513	0.6834	-0.405
Mof_O 	O 	0.7435	0.0513	0.6834	-0.418
Mof_O 	O 	0.7435	0.5513	0.1834	-0.407
Mof_O 	O 	0.7565	0.9487	0.1834	-0.376
Mof_O 	O 	0.7565	0.4487	0.6834	-0.403
Mof_O 	O 	0.2565	0.9487	0.6834	-0.374
Mof_O 	O 	0.2565	0.4487	0.1834	-0.411
Mof_O 	O 	0.7565	0.0513	0.8166	-0.415
Mof_O 	O 	0.7565	0.5513	0.3166	-0.403
Mof_O 	O 	0.2565	0.0513	0.3166	-0.423
Mof_O 	O 	0.2565	0.5513	0.8166	-0.401
Mof_O 	O 	0.2435	0.9487	0.8166	-0.368
Mof_O 	O 	0.2435	0.4487	0.3166	-0.405
Mof_O 	O 	0.7435	0.9487	0.3166	-0.37
Mof_O 	O 	0.7435	0.4487	0.8166	-0.397
Mof_O 	O 	0.1834	0.2435	0.0513	-0.426
Mof_O 	O 	0.1834	0.7435	0.5513	-0.407
Mof_O 	O 	0.6834	0.2435	0.5513	-0.405
Mof_O 	O 	0.6834	0.7435	0.0513	-0.418
Mof_O 	O 	0.1834	0.7565	0.9487	-0.376
Mof_O 	O 	0.1834	0.2565	0.4487	-0.411
Mof_O 	O 	0.6834	0.7565	0.4487	-0.403
Mof_O 	O 	0.6834	0.2565	0.9487	-0.374
Mof_O 	O 	0.8166	0.7565	0.0513	-0.414
Mof_O 	O 	0.8166	0.2565	0.5513	-0.4
Mof_O 	O 	0.3166	0.7565	0.5513	-0.402
Mof_O 	O 	0.3166	0.2565	0.0513	-0.422
Mof_O 	O 	0.8166	0.2435	0.9487	-0.367
Mof_O 	O 	0.8166	0.7435	0.4487	-0.396
Mof_O 	O 	0.3166	0.2435	0.4487	-0.404
Mof_O 	O 	0.3166	0.7435	0.9487	-0.369
Mof_O 	O 	0.0513	0.1834	0.2435	-0.425
Mof_O 	O 	0.0513	0.6834	0.7435	-0.417
Mof_O 	O 	0.5513	0.1834	0.7435	-0.406
Mof_O 	O 	0.5513	0.6834	0.2435	-0.404
Mof_O 	O 	0.9487	0.1834	0.7565	-0.375
Mof_O 	O 	0.9487	0.6834	0.2565	-0.373
Mof_O 	O 	0.4487	0.1834	0.2565	-0.41
Mof_O 	O 	0.4487	0.6834	0.7565	-0.402
Mof_O 	O 	0.0513	0.8166	0.7565	-0.414
Mof_O 	O 	0.0513	0.3166	0.2565	-0.422
Mof_O 	O 	0.5513	0.8166	0.2565	-0.4
Mof_O 	O 	0.5513	0.3166	0.7565	-0.402
Mof_O 	O 	0.9487	0.8166	0.2435	-0.367
Mof_O 	O 	0.9487	0.3166	0.7435	-0.369
Mof_O 	O 	0.4487	0.8166	0.7435	-0.396
Mof_O 	O 	0.4487	0.3166	0.2435	-0.404
Mof_O 	O 	0.0513	0.2435	0.8166	-0.415
Mof_O 	O 	0.0513	0.7435	0.3166	-0.418
Mof_O 	O 	0.5513	0.2435	0.3166	-0.404
Mof_O 	O 	0.5513	0.7435	0.8166	-0.396
Mof_O 	O 	0.9487	0.7565	0.8166	-0.365
Mof_O 	O 	0.9487	0.2565	0.3166	-0.374
Mof_O 	O 	0.4487	0.7565	0.3166	-0.402
Mof_O 	O 	0.4487	0.2565	0.8166	-0.4
Mof_O 	O 	0.0513	0.7565	0.1834	-0.424
Mof_O 	O 	0.0513	0.2565	0.6834	-0.422
Mof_O 	O 	0.5513	0.7565	0.6834	-0.402
Mof_O 	O 	0.5513	0.2565	0.1834	-0.41
Mof_O 	O 	0.9487	0.2435	0.1834	-0.377
Mof_O 	O 	0.9487	0.7435	0.6834	-0.369
Mof_O 	O 	0.4487	0.2435	0.6834	-0.404
Mof_O 	O 	0.4487	0.7435	0.1834	-0.406
Mof_O 	O 	0.2435	0.1834	0.9487	-0.377
Mof_O 	O 	0.2435	0.6834	0.4487	-0.404
Mof_O 	O 	0.7435	0.1834	0.4487	-0.406
Mof_O 	O 	0.7435	0.6834	0.9487	-0.369
Mof_O 	O 	0.7565	0.1834	0.0513	-0.424
Mof_O 	O 	0.7565	0.6834	0.5513	-0.402
Mof_O 	O 	0.2565	0.1834	0.5513	-0.41
Mof_O 	O 	0.2565	0.6834	0.0513	-0.422
Mof_O 	O 	0.7565	0.8166	0.9487	-0.365
Mof_O 	O 	0.7565	0.3166	0.4487	-0.402
Mof_O 	O 	0.2565	0.8166	0.4487	-0.4
Mof_O 	O 	0.2565	0.3166	0.9487	-0.374
Mof_O 	O 	0.2435	0.8166	0.0513	-0.415
Mof_O 	O 	0.2435	0.3166	0.5513	-0.404
Mof_O 	O 	0.7435	0.8166	0.5513	-0.396
Mof_O 	O 	0.7435	0.3166	0.0513	-0.418
Mof_O 	O 	0.1834	0.0513	0.7565	-0.424
Mof_O 	O 	0.1834	0.5513	0.2565	-0.41
Mof_O 	O 	0.6834	0.0513	0.2565	-0.422
Mof_O 	O 	0.6834	0.5513	0.7565	-0.402
Mof_O 	O 	0.1834	0.9487	0.2435	-0.377
Mof_O 	O 	0.1834	0.4487	0.7435	-0.406
Mof_O 	O 	0.6834	0.9487	0.7435	-0.369
Mof_O 	O 	0.6834	0.4487	0.2435	-0.404
Mof_O 	O 	0.8166	0.0513	0.2435	-0.415
Mof_O 	O 	0.8166	0.5513	0.7435	-0.396
Mof_O 	O 	0.3166	0.0513	0.7435	-0.418
Mof_O 	O 	0.3166	0.5513	0.2435	-0.404
Mof_O 	O 	0.8166	0.9487	0.7565	-0.365
Mof_O 	O 	0.8166	0.4487	0.2565	-0.4
Mof_O 	O 	0.3166	0.9487	0.2565	-0.374
Mof_O 	O 	0.3166	0.4487	0.7565	-0.402
Mof_O 	O 	0.7565	0.9487	0.8166	-0.365
Mof_O 	O 	0.7565	0.4487	0.3166	-0.402
Mof_O 	O 	0.2565	0.9487	0.3166	-0.374
Mof_O 	O 	0.2565	0.4487	0.8166	-0.4
Mof_O 	O 	0.2435	0.0513	0.8166	-0.415
Mof_O 	O 	0.2435	0.5513	0.3166	-0.404
Mof_O 	O 	0.7435	0.0513	0.3166	-0.418
Mof_O 	O 	0.7435	0.5513	0.8166	-0.396
Mof_O 	O 	0.2435	0.9487	0.1834	-0.377
Mof_O 	O 	0.2435	0.4487	0.6834	-0.404
Mof_O 	O 	0.7435	0.9487	0.6834	-0.369
Mof_O 	O 	0.7435	0.4487	0.1834	-0.406
Mof_O 	O 	0.7565	0.0513	0.1834	-0.424
Mof_O 	O 	0.7565	0.5513	0.6834	-0.402
Mof_O 	O 	0.2565	0.0513	0.6834	-0.422
Mof_O 	O 	0.2565	0.5513	0.1834	-0.41
Mof_O 	O 	0.8166	0.7565	0.9487	-0.365
Mof_O 	O 	0.8166	0.2565	0.4487	-0.4
Mof_O 	O 	0.3166	0.7565	0.4487	-0.402
Mof_O 	O 	0.3166	0.2565	0.9487	-0.374
Mof_O 	O 	0.8166	0.2435	0.0513	-0.415
Mof_O 	O 	0.8166	0.7435	0.5513	-0.396
Mof_O 	O 	0.3166	0.2435	0.5513	-0.404
Mof_O 	O 	0.3166	0.7435	0.0513	-0.418
Mof_O 	O 	0.1834	0.2435	0.9487	-0.377
Mof_O 	O 	0.1834	0.7435	0.4487	-0.406
Mof_O 	O 	0.6834	0.2435	0.4487	-0.404
Mof_O 	O 	0.6834	0.7435	0.9487	-0.369
Mof_O 	O 	0.1834	0.7565	0.0513	-0.424
Mof_O 	O 	0.1834	0.2565	0.5513	-0.41
Mof_O 	O 	0.6834	0.7565	0.5513	-0.402
Mof_O 	O 	0.6834	0.2565	0.0513	-0.422
Mof_O 	O 	0.9487	0.8166	0.7565	-0.365
Mof_O 	O 	0.9487	0.3166	0.2565	-0.374
Mof_O 	O 	0.4487	0.8166	0.2565	-0.4
Mof_O 	O 	0.4487	0.3166	0.7565	-0.402
Mof_O 	O 	0.0513	0.8166	0.2435	-0.415
Mof_O 	O 	0.0513	0.3166	0.7435	-0.418
Mof_O 	O 	0.5513	0.8166	0.7435	-0.396
Mof_O 	O 	0.5513	0.3166	0.2435	-0.404
Mof_O 	O 	0.9487	0.1834	0.2435	-0.377
Mof_O 	O 	0.9487	0.6834	0.7435	-0.369
Mof_O 	O 	0.4487	0.1834	0.7435	-0.406
Mof_O 	O 	0.4487	0.6834	0.2435	-0.404
Mof_O 	O 	0.0513	0.1834	0.7565	-0.424
Mof_O 	O 	0.0513	0.6834	0.2565	-0.422
Mof_O 	O 	0.5513	0.1834	0.2565	-0.41
Mof_O 	O 	0.5513	0.6834	0.7565	-0.402
Mof_O 	O 	0.9487	0.7565	0.1834	-0.375
Mof_O 	O 	0.9487	0.2565	0.6834	-0.373
Mof_O 	O 	0.4487	0.7565	0.6834	-0.402
Mof_O 	O 	0.4487	0.2565	0.1834	-0.41
Mof_O 	O 	0.0513	0.2435	0.1834	-0.425
Mof_O 	O 	0.0513	0.7435	0.6834	-0.417
Mof_O 	O 	0.5513	0.2435	0.6834	-0.404
Mof_O 	O 	0.5513	0.7435	0.1834	-0.406
Mof_O 	O 	0.9487	0.2435	0.8166	-0.367
Mof_O 	O 	0.9487	0.7435	0.3166	-0.369
Mof_O 	O 	0.4487	0.2435	0.3166	-0.404
Mof_O 	O 	0.4487	0.7435	0.8166	-0.396
Mof_O 	O 	0.0513	0.7565	0.8166	-0.414
Mof_O 	O 	0.0513	0.2565	0.3166	-0.422
Mof_O 	O 	0.5513	0.7565	0.3166	-0.402
Mof_O 	O 	0.5513	0.2565	0.8166	-0.4
Mof_O 	O 	0.7565	0.8166	0.0513	-0.414
Mof_O 	O 	0.7565	0.3166	0.5513	-0.402
Mof_O 	O 	0.2565	0.8166	0.5513	-0.4
Mof_O 	O 	0.2565	0.3166	0.0513	-0.422
Mof_O 	O 	0.2435	0.8166	0.9487	-0.367
Mof_O 	O 	0.2435	0.3166	0.4487	-0.404
Mof_O 	O 	0.7435	0.8166	0.4487	-0.396
Mof_O 	O 	0.7435	0.3166	0.9487	-0.369
Mof_O 	O 	0.2435	0.1834	0.0513	-0.425
Mof_O 	O 	0.2435	0.6834	0.5513	-0.404
Mof_O 	O 	0.7435	0.1834	0.5513	-0.406
Mof_O 	O 	0.7435	0.6834	0.0513	-0.417
Mof_O 	O 	0.7565	0.1834	0.9487	-0.375
Mof_O 	O 	0.7565	0.6834	0.4487	-0.402
Mof_O 	O 	0.2565	0.1834	0.4487	-0.41
Mof_O 	O 	0.2565	0.6834	0.9487	-0.373
Mof_O 	O 	0.8166	0.9487	0.2435	-0.367
Mof_O 	O 	0.8166	0.4487	0.7435	-0.396
Mof_O 	O 	0.3166	0.9487	0.7435	-0.369
Mof_O 	O 	0.3166	0.4487	0.2435	-0.404
Mof_O 	O 	0.8166	0.0513	0.7565	-0.414
Mof_O 	O 	0.8166	0.5513	0.2565	-0.4
Mof_O 	O 	0.3166	0.0513	0.2565	-0.422
Mof_O 	O 	0.3166	0.5513	0.7565	-0.402
Mof_O 	O 	0.1834	0.9487	0.7565	-0.375
Mof_O 	O 	0.1834	0.4487	0.2565	-0.41
Mof_O 	O 	0.6834	0.9487	0.2565	-0.373
Mof_O 	O 	0.6834	0.4487	0.7565	-0.402
Mof_O 	O 	0.1834	0.0513	0.2435	-0.425
Mof_O 	O 	0.1834	0.5513	0.7435	-0.406
Mof_O 	O 	0.6834	0.0513	0.7435	-0.417
Mof_O 	O 	0.6834	0.5513	0.2435	-0.404
Mof_Cu	Cu	0.285	2.75861e-33	0.215	0.883
Mof_Cu	Cu	0.285	0.5	0.715	0.914
Mof_Cu	Cu	0.715	2.75861e-33	0.215	0.883
Mof_Cu	Cu	0.715	0.5	0.715	0.914
Mof_Cu	Cu	0.215	0.5	0.215	0.911
Mof_Cu	Cu	0.715	-5.51722e-33	0.785	0.886
Mof_Cu	Cu	0.715	0.5	0.285	0.914
Mof_Cu	Cu	0.215	0	0.285	0.883
Mof_Cu	Cu	0.285	-5.51722e-33	0.785	0.886
Mof_Cu	Cu	0.285	0.5	0.285	0.914
Mof_Cu	Cu	0.215	0.285	-0	0.883
Mof_Cu	Cu	0.215	0.785	0.5	0.914
Mof_Cu	Cu	0.215	0.715	-0	0.883
Mof_Cu	Cu	0.215	0.215	0.5	0.911
Mof_Cu	Cu	0.785	0.715	-0	0.886
Mof_Cu	Cu	0.785	0.215	0.5	0.914
Mof_Cu	Cu	0.285	0.215	-0	0.883
Mof_Cu	Cu	0.785	0.285	-0	0.886
Mof_Cu	Cu	0.785	0.785	0.5	0.918
Mof_Cu	Cu	0.285	0.285	0.5	0.914
Mof_Cu	Cu	1.06858e-33	0.215	0.285	0.883
Mof_Cu	Cu	0.5	0.215	0.785	0.914
Mof_Cu	Cu	2.68082e-33	0.215	0.715	0.883
Mof_Cu	Cu	0.5	0.215	0.215	0.911
Mof_Cu	Cu	-1.38708e-32	0.785	0.715	0.886
Mof_Cu	Cu	3.56473e-33	0.285	0.215	0.883
Mof_Cu	Cu	0.5	0.785	0.215	0.914
Mof_Cu	Cu	-9.96586e-33	0.785	0.285	0.886
Mof_Cu	Cu	0.5	0.785	0.785	0.918
Mof_Cu	Cu	0.5	0.285	0.285	0.914
Mof_Cu	Cu	-1.36084e-32	0.285	0.785	0.886
Mof_Cu	Cu	-1.36084e-32	0.715	0.785	0.886
Mof_Cu	Cu	0.5	0.715	0.285	0.914
Mof_Cu	Cu	3.56473e-33	0.715	0.215	0.883
Mof_Cu	Cu	0.5	0.715	0.715	0.914
Mof_Cu	Cu	0.5	0.285	0.715	0.914
Mof_Cu	Cu	0.285	0.715	0.5	0.914
Mof_Cu	Cu	0.715	0.215	-0	0.883
Mof_Cu	Cu	0.715	0.715	0.5	0.914
Mof_Cu	Cu	0.715	0.785	-0	0.886
Mof_Cu	Cu	0.715	0.285	0.5	0.914
Mof_Cu	Cu	0.285	0.785	-0	0.886
Mof_Cu	Cu	0.215	0	0.715	0.883
Mof_Cu	Cu	0.215	0.5	0.785	0.914
Mof_Cu	Cu	0.785	0	0.285	0.886
Mof_Cu	Cu	0.785	0.5	0.785	0.918
Mof_Cu	Cu	0.785	0	0.715	0.886
Mof_Cu	Cu	0.785	0.5	0.215	0.914
Mof_C 	C 	0.1988	0.1329	0.1329	0.105
Mof_C 	C 	0.1988	0.6329	0.6329	0.12
Mof_C 	C 	0.6988	0.1329	0.6329	0.117
Mof_C 	C 	0.6988	0.6329	0.1329	0.117
Mof_C 	C 	0.8012	0.8671	0.1329	0.125
Mof_C 	C 	0.8012	0.3671	0.6329	0.125
Mof_C 	C 	0.3012	0.8671	0.6329	0.129
Mof_C 	C 	0.3012	0.3671	0.1329	0.113
Mof_C 	C 	0.8012	0.1329	0.8671	0.125
Mof_C 	C 	0.8012	0.6329	0.3671	0.125
Mof_C 	C 	0.3012	0.1329	0.3671	0.113
Mof_C 	C 	0.3012	0.6329	0.8671	0.129
Mof_C 	C 	0.1988	0.8671	0.8671	0.135
Mof_C 	C 	0.1988	0.3671	0.3671	0.12
Mof_C 	C 	0.6988	0.8671	0.3671	0.132
Mof_C 	C 	0.6988	0.3671	0.8671	0.132
Mof_C 	C 	0.1329	0.1988	0.1329	0.105
Mof_C 	C 	0.1329	0.6988	0.6329	0.117
Mof_C 	C 	0.6329	0.1988	0.6329	0.12
Mof_C 	C 	0.6329	0.6988	0.1329	0.117
Mof_C 	C 	0.1329	0.8012	0.8671	0.125
Mof_C 	C 	0.1329	0.3012	0.3671	0.113
Mof_C 	C 	0.6329	0.8012	0.3671	0.125
Mof_C 	C 	0.6329	0.3012	0.8671	0.129
Mof_C 	C 	0.8671	0.8012	0.1329	0.125
Mof_C 	C 	0.8671	0.3012	0.6329	0.129
Mof_C 	C 	0.3671	0.8012	0.6329	0.125
Mof_C 	C 	0.3671	0.3012	0.1329	0.113
Mof_C 	C 	0.8671	0.1988	0.8671	0.135
Mof_C 	C 	0.8671	0.6988	0.3671	0.132
Mof_C 	C 	0.3671	0.1988	0.3671	0.12
Mof_C 	C 	0.3671	0.6988	0.8671	0.132
Mof_C 	C 	0.1329	0.1329	0.1988	0.105
Mof_C 	C 	0.1329	0.6329	0.6988	0.117
Mof_C 	C 	0.6329	0.1329	0.6988	0.117
Mof_C 	C 	0.6329	0.6329	0.1988	0.12
Mof_C 	C 	0.8671	0.1329	0.8012	0.125
Mof_C 	C 	0.8671	0.6329	0.3012	0.129
Mof_C 	C 	0.3671	0.1329	0.3012	0.113
Mof_C 	C 	0.3671	0.6329	0.8012	0.125
Mof_C 	C 	0.1329	0.8671	0.8012	0.125
Mof_C 	C 	0.1329	0.3671	0.3012	0.113
Mof_C 	C 	0.6329	0.8671	0.3012	0.129
Mof_C 	C 	0.6329	0.3671	0.8012	0.125
Mof_C 	C 	0.8671	0.8671	0.1988	0.135
Mof_C 	C 	0.8671	0.3671	0.6988	0.132
Mof_C 	C 	0.3671	0.8671	0.6988	0.132
Mof_C 	C 	0.3671	0.3671	0.1988	0.12
Mof_C 	C 	0.1329	0.1988	0.8671	0.12
Mof_C 	C 	0.1329	0.6988	0.3671	0.117
Mof_C 	C 	0.6329	0.1988	0.3671	0.12
Mof_C 	C 	0.6329	0.6988	0.8671	0.132
Mof_C 	C 	0.8671	0.8012	0.8671	0.141
Mof_C 	C 	0.8671	0.3012	0.3671	0.129
Mof_C 	C 	0.3671	0.8012	0.3671	0.125
Mof_C 	C 	0.3671	0.3012	0.8671	0.129
Mof_C 	C 	0.1329	0.8012	0.1329	0.11
Mof_C 	C 	0.1329	0.3012	0.6329	0.113
Mof_C 	C 	0.6329	0.8012	0.6329	0.126
Mof_C 	C 	0.6329	0.3012	0.1329	0.113
Mof_C 	C 	0.8671	0.1988	0.1329	0.12
Mof_C 	C 	0.8671	0.6988	0.6329	0.132
Mof_C 	C 	0.3671	0.1988	0.6329	0.12
Mof_C 	C 	0.3671	0.6988	0.1329	0.117
Mof_C 	C 	0.1988	0.1329	0.8671	0.12
Mof_C 	C 	0.1988	0.6329	0.3671	0.12
Mof_C 	C 	0.6988	0.1329	0.3671	0.117
Mof_C 	C 	0.6988	0.6329	0.8671	0.132
Mof_C 	C 	0.8012	0.1329	0.1329	0.11
Mof_C 	C 	0.8012	0.6329	0.6329	0.126
Mof_C 	C 	0.3012	0.1329	0.6329	0.113
Mof_C 	C 	0.3012	0.6329	0.1329	0.113
Mof_C 	C 	0.8012	0.8671	0.8671	0.141
Mof_C 	C 	0.8012	0.3671	0.3671	0.125
Mof_C 	C 	0.3012	0.8671	0.3671	0.129
Mof_C 	C 	0.3012	0.3671	0.8671	0.129
Mof_C 	C 	0.1988	0.8671	0.1329	0.12
Mof_C 	C 	0.1988	0.3671	0.6329	0.12
Mof_C 	C 	0.6988	0.8671	0.6329	0.132
Mof_C 	C 	0.6988	0.3671	0.1329	0.117
Mof_C 	C 	0.1329	0.1329	0.8012	0.11
Mof_C 	C 	0.1329	0.6329	0.3012	0.113
Mof_C 	C 	0.6329	0.1329	0.3012	0.113
Mof_C 	C 	0.6329	0.6329	0.8012	0.126
Mof_C 	C 	0.1329	0.8671	0.1988	0.12
Mof_C 	C 	0.1329	0.3671	0.6988	0.117
Mof_C 	C 	0.6329	0.8671	0.6988	0.132
Mof_C 	C 	0.6329	0.3671	0.1988	0.12
Mof_C 	C 	0.8671	0.1329	0.1988	0.12
Mof_C 	C 	0.8671	0.6329	0.6988	0.132
Mof_C 	C 	0.3671	0.1329	0.6988	0.117
Mof_C 	C 	0.3671	0.6329	0.1988	0.12
Mof_C 	C 	0.8671	0.8671	0.8012	0.141
Mof_C 	C 	0.8671	0.3671	0.3012	0.129
Mof_C 	C 	0.3671	0.8671	0.3012	0.129
Mof_C 	C 	0.3671	0.3671	0.8012	0.125
Mof_C 	C 	0.2027	0.0677	0.2027	0.368
Mof_C 	C 	0.1759	0.1119	0.1759	-0.15
Mof_C 	C 	0.2027	0.5677	0.7027	0.371
Mof_C 	C 	0.1759	0.6119	0.6759	-0.146
Mof_C 	C 	0.7027	0.0677	0.7027	0.369
Mof_C 	C 	0.6759	0.1119	0.6759	-0.148
Mof_C 	C 	0.7027	0.5677	0.2027	0.371
Mof_C 	C 	0.6759	0.6119	0.1759	-0.146
Mof_C 	C 	0.7973	0.9323	0.2027	0.369
Mof_C 	C 	0.8241	0.8881	0.1759	-0.14
Mof_C 	C 	0.7973	0.4323	0.7027	0.373
Mof_C 	C 	0.8241	0.3881	0.6759	-0.144
Mof_C 	C 	0.2973	0.9323	0.7027	0.369
Mof_C 	C 	0.3241	0.8881	0.6759	-0.14
Mof_C 	C 	0.2973	0.4323	0.2027	0.371
Mof_C 	C 	0.3241	0.3881	0.1759	-0.146
Mof_C 	C 	0.7973	0.0677	0.7973	0.372
Mof_C 	C 	0.8241	0.1119	0.8241	-0.147
Mof_C 	C 	0.7973	0.5677	0.2973	0.374
Mof_C 	C 	0.8241	0.6119	0.3241	-0.144
Mof_C 	C 	0.2973	0.0677	0.2973	0.371
Mof_C 	C 	0.3241	0.1119	0.3241	-0.149
Mof_C 	C 	0.2973	0.5677	0.7973	0.374
Mof_C 	C 	0.3241	0.6119	0.8241	-0.144
Mof_C 	C 	0.2027	0.9323	0.7973	0.369
Mof_C 	C 	0.1759	0.8881	0.8241	-0.14
Mof_C 	C 	0.2027	0.4323	0.2973	0.371
Mof_C 	C 	0.1759	0.3881	0.3241	-0.146
Mof_C 	C 	0.7027	0.9323	0.2973	0.369
Mof_C 	C 	0.6759	0.8881	0.3241	-0.14
Mof_C 	C 	0.7027	0.4323	0.7973	0.373
Mof_C 	C 	0.6759	0.3881	0.8241	-0.144
Mof_C 	C 	0.2027	0.2027	0.0677	0.368
Mof_C 	C 	0.1759	0.1759	0.1119	-0.15
Mof_C 	C 	0.2027	0.7027	0.5677	0.371
Mof_C 	C 	0.1759	0.6759	0.6119	-0.146
Mof_C 	C 	0.7027	0.2027	0.5677	0.371
Mof_C 	C 	0.6759	0.1759	0.6119	-0.146
Mof_C 	C 	0.7027	0.7027	0.0677	0.369
Mof_C 	C 	0.6759	0.6759	0.1119	-0.148
Mof_C 	C 	0.2027	0.7973	0.9323	0.369
Mof_C 	C 	0.1759	0.8241	0.8881	-0.14
Mof_C 	C 	0.2027	0.2973	0.4323	0.371
Mof_C 	C 	0.1759	0.3241	0.3881	-0.146
Mof_C 	C 	0.7027	0.7973	0.4323	0.373
Mof_C 	C 	0.6759	0.8241	0.3881	-0.144
Mof_C 	C 	0.7027	0.2973	0.9323	0.369
Mof_C 	C 	0.6759	0.3241	0.8881	-0.14
Mof_C 	C 	0.7973	0.7973	0.0677	0.372
Mof_C 	C 	0.8241	0.8241	0.1119	-0.147
Mof_C 	C 	0.7973	0.2973	0.5677	0.374
Mof_C 	C 	0.8241	0.3241	0.6119	-0.144
Mof_C 	C 	0.2973	0.7973	0.5677	0.374
Mof_C 	C 	0.3241	0.8241	0.6119	-0.144
Mof_C 	C 	0.2973	0.2973	0.0677	0.371
Mof_C 	C 	0.3241	0.3241	0.1119	-0.149
Mof_C 	C 	0.7973	0.2027	0.9323	0.369
Mof_C 	C 	0.8241	0.1759	0.8881	-0.14
Mof_C 	C 	0.7973	0.7027	0.4323	0.373
Mof_C 	C 	0.8241	0.6759	0.3881	-0.144
Mof_C 	C 	0.2973	0.2027	0.4323	0.371
Mof_C 	C 	0.3241	0.1759	0.3881	-0.146
Mof_C 	C 	0.2973	0.7027	0.9323	0.369
Mof_C 	C 	0.3241	0.6759	0.8881	-0.14
Mof_C 	C 	0.0677	0.2027	0.2027	0.368
Mof_C 	C 	0.1119	0.1759	0.1759	-0.15
Mof_C 	C 	0.0677	0.7027	0.7027	0.369
Mof_C 	C 	0.1119	0.6759	0.6759	-0.148
Mof_C 	C 	0.5677	0.2027	0.7027	0.371
Mof_C 	C 	0.6119	0.1759	0.6759	-0.146
Mof_C 	C 	0.5677	0.7027	0.2027	0.371
Mof_C 	C 	0.6119	0.6759	0.1759	-0.146
Mof_C 	C 	0.9323	0.2027	0.7973	0.369
Mof_C 	C 	0.8881	0.1759	0.8241	-0.14
Mof_C 	C 	0.9323	0.7027	0.2973	0.369
Mof_C 	C 	0.8881	0.6759	0.3241	-0.14
Mof_C 	C 	0.4323	0.2027	0.2973	0.371
Mof_C 	C 	0.3881	0.1759	0.3241	-0.146
Mof_C 	C 	0.4323	0.7027	0.7973	0.373
Mof_C 	C 	0.3881	0.6759	0.8241	-0.144
Mof_C 	C 	0.0677	0.7973	0.7973	0.372
Mof_C 	C 	0.1119	0.8241	0.8241	-0.147
Mof_C 	C 	0.0677	0.2973	0.2973	0.371
Mof_C 	C 	0.1119	0.3241	0.3241	-0.149
Mof_C 	C 	0.5677	0.7973	0.2973	0.374
Mof_C 	C 	0.6119	0.8241	0.3241	-0.144
Mof_C 	C 	0.5677	0.2973	0.7973	0.374
Mof_C 	C 	0.6119	0.3241	0.8241	-0.144
Mof_C 	C 	0.9323	0.7973	0.2027	0.369
Mof_C 	C 	0.8881	0.8241	0.1759	-0.14
Mof_C 	C 	0.9323	0.2973	0.7027	0.369
Mof_C 	C 	0.8881	0.3241	0.6759	-0.14
Mof_C 	C 	0.4323	0.7973	0.7027	0.373
Mof_C 	C 	0.3881	0.8241	0.6759	-0.144
Mof_C 	C 	0.4323	0.2973	0.2027	0.371
Mof_C 	C 	0.3881	0.3241	0.1759	-0.146
Mof_C 	C 	0.0677	0.2027	0.7973	0.37
Mof_C 	C 	0.1119	0.1759	0.8241	-0.148
Mof_C 	C 	0.0677	0.7027	0.2973	0.37
Mof_C 	C 	0.1119	0.6759	0.3241	-0.149
Mof_C 	C 	0.5677	0.2027	0.2973	0.371
Mof_C 	C 	0.6119	0.1759	0.3241	-0.146
Mof_C 	C 	0.5677	0.7027	0.7973	0.373
Mof_C 	C 	0.6119	0.6759	0.8241	-0.144
Mof_C 	C 	0.9323	0.7973	0.7973	0.371
Mof_C 	C 	0.8881	0.8241	0.8241	-0.138
Mof_C 	C 	0.9323	0.2973	0.2973	0.37
Mof_C 	C 	0.8881	0.3241	0.3241	-0.14
Mof_C 	C 	0.4323	0.7973	0.2973	0.374
Mof_C 	C 	0.3881	0.8241	0.3241	-0.144
Mof_C 	C 	0.4323	0.2973	0.7973	0.374
Mof_C 	C 	0.3881	0.3241	0.8241	-0.144
Mof_C 	C 	0.0677	0.7973	0.2027	0.37
Mof_C 	C 	0.1119	0.8241	0.1759	-0.148
Mof_C 	C 	0.0677	0.2973	0.7027	0.37
Mof_C 	C 	0.1119	0.3241	0.6759	-0.149
Mof_C 	C 	0.5677	0.7973	0.7027	0.373
Mof_C 	C 	0.6119	0.8241	0.6759	-0.144
Mof_C 	C 	0.5677	0.2973	0.2027	0.371
Mof_C 	C 	0.6119	0.3241	0.1759	-0.146
Mof_C 	C 	0.9323	0.2027	0.2027	0.367
Mof_C 	C 	0.8881	0.1759	0.1759	-0.142
Mof_C 	C 	0.9323	0.7027	0.7027	0.369
Mof_C 	C 	0.8881	0.6759	0.6759	-0.14
Mof_C 	C 	0.4323	0.2027	0.7027	0.371
Mof_C 	C 	0.3881	0.1759	0.6759	-0.146
Mof_C 	C 	0.4323	0.7027	0.2027	0.371
Mof_C 	C 	0.3881	0.6759	0.1759	-0.146
Mof_C 	C 	0.2027	0.2027	0.9323	0.367
Mof_C 	C 	0.1759	0.1759	0.8881	-0.142
Mof_C 	C 	0.2027	0.7027	0.4323	0.371
Mof_C 	C 	0.1759	0.6759	0.3881	-0.146
Mof_C 	C 	0.7027	0.2027	0.4323	0.371
Mof_C 	C 	0.6759	0.1759	0.3881	-0.146
Mof_C 	C 	0.7027	0.7027	0.9323	0.369
Mof_C 	C 	0.6759	0.6759	0.8881	-0.14
Mof_C 	C 	0.7973	0.2027	0.0677	0.37
Mof_C 	C 	0.8241	0.1759	0.1119	-0.148
Mof_C 	C 	0.7973	0.7027	0.5677	0.373
Mof_C 	C 	0.8241	0.6759	0.6119	-0.144
Mof_C 	C 	0.2973	0.2027	0.5677	0.371
Mof_C 	C 	0.3241	0.1759	0.6119	-0.146
Mof_C 	C 	0.2973	0.7027	0.0677	0.37
Mof_C 	C 	0.3241	0.6759	0.1119	-0.149
Mof_C 	C 	0.7973	0.7973	0.9323	0.371
Mof_C 	C 	0.8241	0.8241	0.8881	-0.138
Mof_C 	C 	0.7973	0.2973	0.4323	0.374
Mof_C 	C 	0.8241	0.3241	0.3881	-0.144
Mof_C 	C 	0.2973	0.7973	0.4323	0.374
Mof_C 	C 	0.3241	0.8241	0.3881	-0.144
Mof_C 	C 	0.2973	0.2973	0.9323	0.37
Mof_C 	C 	0.3241	0.3241	0.8881	-0.14
Mof_C 	C 	0.2027	0.7973	0.0677	0.37
Mof_C 	C 	0.1759	0.8241	0.1119	-0.148
Mof_C 	C 	0.2027	0.2973	0.5677	0.371
Mof_C 	C 	0.1759	0.3241	0.6119	-0.146
Mof_C 	C 	0.7027	0.7973	0.5677	0.373
Mof_C 	C 	0.6759	0.8241	0.6119	-0.144
Mof_C 	C 	0.7027	0.2973	0.0677	0.37
Mof_C 	C 	0.6759	0.3241	0.1119	-0.149
Mof_C 	C 	0.2027	0.0677	0.7973	0.37
Mof_C 	C 	0.1759	0.1119	0.8241	-0.148
Mof_C 	C 	0.2027	0.5677	0.2973	0.371
Mof_C 	C 	0.1759	0.6119	0.3241	-0.146
Mof_C 	C 	0.7027	0.0677	0.2973	0.37
Mof_C 	C 	0.6759	0.1119	0.3241	-0.149
Mof_C 	C 	0.7027	0.5677	0.7973	0.373
Mof_C 	C 	0.6759	0.6119	0.8241	-0.144
Mof_C 	C 	0.2027	0.9323	0.2027	0.367
Mof_C 	C 	0.1759	0.8881	0.1759	-0.142
Mof_C 	C 	0.2027	0.4323	0.7027	0.371
Mof_C 	C 	0.1759	0.3881	0.6759	-0.146
Mof_C 	C 	0.7027	0.9323	0.7027	0.369
Mof_C 	C 	0.6759	0.8881	0.6759	-0.14
Mof_C 	C 	0.7027	0.4323	0.2027	0.371
Mof_C 	C 	0.6759	0.3881	0.1759	-0.146
Mof_C 	C 	0.7973	0.0677	0.2027	0.37
Mof_C 	C 	0.8241	0.1119	0.1759	-0.148
Mof_C 	C 	0.7973	0.5677	0.7027	0.373
Mof_C 	C 	0.8241	0.6119	0.6759	-0.144
Mof_C 	C 	0.2973	0.0677	0.7027	0.37
Mof_C 	C 	0.3241	0.1119	0.6759	-0.149
Mof_C 	C 	0.2973	0.5677	0.2027	0.371
Mof_C 	C 	0.3241	0.6119	0.1759	-0.146
Mof_C 	C 	0.7973	0.9323	0.7973	0.371
Mof_C 	C 	0.8241	0.8881	0.8241	-0.138
Mof_C 	C 	0.7973	0.4323	0.2973	0.374
Mof_C 	C 	0.8241	0.3881	0.3241	-0.144
Mof_C 	C 	0.2973	0.9323	0.2973	0.37
Mof_C 	C 	0.3241	0.8881	0.3241	-0.14
Mof_C 	C 	0.2973	0.4323	0.7973	0.374
Mof_C 	C 	0.3241	0.3881	0.8241	-0.144
_end
