data_functionalizedCrystal
_audit_creation_method	'EQeq! by Chris Wilmer'
_symmetry_space_group_name_H-M	'P1'
_symmetry_Int_Tables_number	1
_symmetry_cell_setting	triclinic
loop_
_symmetry_equiv_pos_as_xyz
  x,y,z
_cell_length_a	13.395
_cell_length_b	14.354
_cell_length_c	11.319
_cell_angle_alpha	90
_cell_angle_beta	111.55
_cell_angle_gamma	90
loop_
_atom_site_label
_atom_site_type_symbol
_atom_site_fract_x
_atom_site_fract_y
_atom_site_fract_z
_atom_site_charge
Mof_O 	O 	0.88849	0.96806	0.11894	-0.442
Mof_O 	O 	0.86568	0.02548	0.28828	-0.64
Mof_O 	O 	0.5227	0.3371	0.0753	-1.057
Mof_O 	O 	0.6174	0.2754	0.2576	0.507
Mof_C 	C 	0.5892	0.2779	0.1383	0.131
Mof_C 	C 	0.6466	0.1355	0.8764	-0.821
Mof_H 	H 	0.6256	0.1307	0.7887	0.28
Mof_C 	C 	0.5998	0.2016	0.9286	0.848
Mof_H 	H 	0.5481	0.2417	0.8756	-0.323
Mof_C 	C 	0.72469	0.07646	0.9546	0.697
Mof_H 	H 	0.7565	0.0322	0.9197	-0.285
Mof_C 	C 	0.62934	0.20857	0.058	-1.095
Mof_C 	C 	0.84212	0.02217	0.1722	0.479
Mof_C 	C 	0.70661	0.14946	0.1354	0.773
Mof_H 	H 	0.7265	0.1538	0.223	-0.261
Mof_C 	C 	0.75521	0.08367	0.0851	-0.73
Mof_C 	C 	0.4346	0.2848	0.421	1.224
Mof_O 	O 	0.5007	0.3333	0.5002	-0.422
Mof_O 	O 	0.4132	0.2926	0.3029	-1.055
Mof_O 	O 	0.38849	0.46806	0.11894	-0.911
Mof_O 	O 	0.36568	0.52548	0.28828	-0.855
Mof_O 	O 	0.0227	0.8371	0.0753	-1.292
Mof_O 	O 	0.1174	0.7754	0.2576	0.335
Mof_C 	C 	0.0892	0.7779	0.1383	0.099
Mof_C 	C 	0.1466	0.6355	0.8764	-0.885
Mof_H 	H 	0.1256	0.6307	0.7887	0.303
Mof_C 	C 	0.0998	0.7016	0.9286	0.877
Mof_H 	H 	0.0481	0.7417	0.8756	-0.361
Mof_C 	C 	0.22469	0.57646	0.9546	0.803
Mof_H 	H 	0.2565	0.5322	0.9197	-0.312
Mof_C 	C 	0.12934	0.70857	0.058	-1.109
Mof_C 	C 	0.34212	0.52217	0.1722	0.831
Mof_C 	C 	0.20661	0.64946	0.1354	0.855
Mof_H 	H 	0.2265	0.6538	0.223	-0.283
Mof_C 	C 	0.25521	0.58367	0.0851	-0.882
Mof_C 	C 	0.9346	0.7848	0.421	1.136
Mof_O 	O 	0.0007	0.8333	0.5002	-0.617
Mof_O 	O 	0.9132	0.7926	0.3029	-1.013
Mof_O 	O 	0.11151	0.96806	0.38106	-0.5
Mof_O 	O 	0.13432	0.02548	0.21172	-0.636
Mof_O 	O 	0.4773	0.3371	0.4247	-0.826
Mof_O 	O 	0.3826	0.2754	0.2424	0.49
Mof_C 	C 	0.4108	0.2779	0.3617	0.134
Mof_C 	C 	0.3534	0.1355	0.6236	-0.558
Mof_H 	H 	0.3744	0.1307	0.7113	0.191
Mof_C 	C 	0.4002	0.2016	0.5714	0.531
Mof_H 	H 	0.4519	0.2417	0.6244	-0.214
Mof_C 	C 	0.27531	0.07646	0.5454	0.393
Mof_H 	H 	0.2435	0.0322	0.5803	-0.216
Mof_C 	C 	0.37066	0.20857	0.442	-0.824
Mof_C 	C 	0.15788	0.02217	0.3278	0.383
Mof_C 	C 	0.29339	0.14946	0.3646	0.555
Mof_H 	H 	0.2735	0.1538	0.277	-0.196
Mof_C 	C 	0.24479	0.08367	0.4149	-0.511
Mof_C 	C 	0.5654	0.2848	0.079	1.345
Mof_O 	O 	0.4993	0.3333	0.9998	-0.201
Mof_O 	O 	0.5868	0.2926	0.1971	-1.051
Mof_O 	O 	0.61151	0.46806	0.38106	-0.898
Mof_O 	O 	0.63432	0.52548	0.21172	-0.801
Mof_O 	O 	0.9773	0.8371	0.4247	-0.346
Mof_O 	O 	0.8826	0.7754	0.2424	0.55
Mof_C 	C 	0.9108	0.7779	0.3617	0.056
Mof_C 	C 	0.8534	0.6355	0.6236	-0.531
Mof_H 	H 	0.8744	0.6307	0.7113	0.228
Mof_C 	C 	0.9002	0.7016	0.5714	0.494
Mof_H 	H 	0.9519	0.7417	0.6244	-0.119
Mof_C 	C 	0.77531	0.57646	0.5454	0.461
Mof_H 	H 	0.7435	0.5322	0.5803	-0.209
Mof_C 	C 	0.87066	0.70857	0.442	-0.705
Mof_C 	C 	0.65788	0.52217	0.3278	0.741
Mof_C 	C 	0.79339	0.64946	0.3646	0.575
Mof_H 	H 	0.7735	0.6538	0.277	-0.185
Mof_C 	C 	0.74479	0.58367	0.4149	-0.592
Mof_C 	C 	0.0654	0.7848	0.079	1.257
Mof_O 	O 	0.9993	0.8333	0.9998	0.293
Mof_O 	O 	0.0868	0.7926	0.1971	-0.796
Mof_O 	O 	0.11151	0.03194	0.88106	-0.835
Mof_O 	O 	0.13432	0.97452	0.71172	-0.572
Mof_O 	O 	0.4773	0.6629	0.9247	-0.592
Mof_O 	O 	0.3826	0.7246	0.7424	0.555
Mof_C 	C 	0.4108	0.7221	0.8617	0.097
Mof_C 	C 	0.3534	0.8645	0.1236	-0.315
Mof_H 	H 	0.3744	0.8693	0.2113	0.154
Mof_C 	C 	0.4002	0.7984	0.0714	0.276
Mof_H 	H 	0.4519	0.7583	0.1244	-0.115
Mof_C 	C 	0.27531	0.92354	0.0454	0.197
Mof_H 	H 	0.2435	0.9678	0.0803	-0.016
Mof_C 	C 	0.37066	0.79143	0.942	-0.577
Mof_C 	C 	0.15788	0.97783	0.8278	0.774
Mof_C 	C 	0.29339	0.85054	0.8646	0.434
Mof_H 	H 	0.2735	0.8462	0.777	-0.12
Mof_C 	C 	0.24479	0.91633	0.9149	-0.354
Mof_C 	C 	0.5654	0.7152	0.579	1.342
Mof_O 	O 	0.4993	0.6667	0.4998	-0.419
Mof_O 	O 	0.5868	0.7074	0.6971	-1.146
Mof_O 	O 	0.61151	0.53194	0.88106	-0.823
Mof_O 	O 	0.63432	0.47452	0.71172	-0.802
Mof_O 	O 	0.9773	0.1629	0.9247	-0.024
Mof_O 	O 	0.8826	0.2246	0.7424	0.528
Mof_C 	C 	0.9108	0.2221	0.8617	0.038
Mof_C 	C 	0.8534	0.3645	0.1236	-0.223
Mof_H 	H 	0.8744	0.3693	0.2113	0.116
Mof_C 	C 	0.9002	0.2984	0.0714	0.137
Mof_H 	H 	0.9519	0.2583	0.1244	0.01
Mof_C 	C 	0.77531	0.42354	0.0454	0.122
Mof_H 	H 	0.7435	0.4678	0.0803	-0.098
Mof_C 	C 	0.87066	0.29143	0.942	-0.38
Mof_C 	C 	0.65788	0.47783	0.8278	0.653
Mof_C 	C 	0.79339	0.35054	0.8646	0.315
Mof_H 	H 	0.7735	0.3462	0.777	-0.096
Mof_C 	C 	0.74479	0.41633	0.9149	-0.319
Mof_C 	C 	0.0654	0.2152	0.579	1.143
Mof_O 	O 	0.9993	0.1667	0.4998	0.104
Mof_O 	O 	0.0868	0.2074	0.6971	-0.806
Mof_O 	O 	0.88849	0.03194	0.61894	-0.797
Mof_O 	O 	0.86568	0.97452	0.78828	-0.523
Mof_O 	O 	0.5227	0.6629	0.5753	-0.86
Mof_O 	O 	0.6174	0.7246	0.7576	0.613
Mof_C 	C 	0.5892	0.7221	0.6383	0.117
Mof_C 	C 	0.6466	0.8645	0.3764	-0.595
Mof_H 	H 	0.6256	0.8693	0.2887	0.247
Mof_C 	C 	0.5998	0.7984	0.4286	0.611
Mof_H 	H 	0.5481	0.7583	0.3756	-0.235
Mof_C 	C 	0.72469	0.92354	0.4546	0.505
Mof_H 	H 	0.7565	0.9678	0.4197	-0.115
Mof_C 	C 	0.62934	0.79143	0.558	-0.882
Mof_C 	C 	0.84212	0.97783	0.6722	0.825
Mof_C 	C 	0.70661	0.85054	0.6354	0.667
Mof_H 	H 	0.7265	0.8462	0.723	-0.193
Mof_C 	C 	0.75521	0.91633	0.5851	-0.579
Mof_C 	C 	0.4346	0.7152	0.921	1.172
Mof_O 	O 	0.5007	0.6667	0.0002	-0.58
Mof_O 	O 	0.4132	0.7074	0.8029	-1.08
Mof_O 	O 	0.38849	0.53194	0.61894	-0.898
Mof_O 	O 	0.36568	0.47452	0.78828	-0.791
Mof_O 	O 	0.0227	0.1629	0.5753	-1.134
Mof_O 	O 	0.1174	0.2246	0.7576	0.33
Mof_C 	C 	0.0892	0.2221	0.6383	0.108
Mof_C 	C 	0.1466	0.3645	0.3764	-0.622
Mof_H 	H 	0.1256	0.3693	0.2887	0.203
Mof_C 	C 	0.0998	0.2984	0.4286	0.571
Mof_H 	H 	0.0481	0.2583	0.3756	-0.269
Mof_C 	C 	0.22469	0.42354	0.4546	0.499
Mof_H 	H 	0.2565	0.4678	0.4197	-0.232
Mof_C 	C 	0.12934	0.29143	0.558	-0.852
Mof_C 	C 	0.34212	0.47783	0.6722	0.744
Mof_C 	C 	0.20661	0.35054	0.6354	0.64
Mof_H 	H 	0.2265	0.3462	0.723	-0.209
Mof_C 	C 	0.25521	0.41633	0.5851	-0.643
Mof_C 	C 	0.9346	0.2152	0.921	0.958
Mof_O 	O 	0.0007	0.1667	0.0002	-0.868
Mof_O 	O 	0.9132	0.2074	0.8029	-0.98
Mof_Fe	Fe	1.08302e-33	0.88805	0.25	0.811
Mof_Fe	Fe	0.5	0.38805	0.25	0.813
Mof_Fe	Fe	2.8082e-17	0.11195	0.75	0.642
Mof_Fe	Fe	0.5	0.61195	0.75	0.798
Mof_Na	Na	-0	0	-0	2.041
Mof_Na	Na	0.5	0.5	-0	3.402
Mof_Na	Na	2.16603e-33	-6.23546e-33	0.5	2.287
Mof_Na	Na	0.5	0.5	0.5	3.681
_end
