data_functionalizedCrystal
_audit_creation_method	'EQeq! by Chris Wilmer'
_symmetry_space_group_name_H-M	'P1'
_symmetry_Int_Tables_number	1
_symmetry_cell_setting	triclinic
loop_
_symmetry_equiv_pos_as_xyz
  x,y,z
_cell_length_a	9.9359
_cell_length_b	9.9359
_cell_length_c	6.4471
_cell_angle_alpha	90
_cell_angle_beta	90
_cell_angle_gamma	90
loop_
_atom_site_label
_atom_site_type_symbol
_atom_site_fract_x
_atom_site_fract_y
_atom_site_fract_z
_atom_site_charge
Mof_C 	C 	0.224	0.1761	0.1688	0.001
Mof_H 	H 	0.20153	0.1225	0.29024	0.044
Mof_C 	C 	0.776	0.8239	0.1688	0.007
Mof_H 	H 	0.79847	0.8775	0.29024	0.062
Mof_C 	C 	0.3239	0.724	0.1688	0.006
Mof_H 	H 	0.3775	0.70153	0.29024	0.049
Mof_C 	C 	0.6761	0.276	0.1688	0.005
Mof_H 	H 	0.6225	0.29847	0.29024	0.047
Mof_C 	C 	0.276	0.6761	0.8312	0.049
Mof_H 	H 	0.29847	0.6225	0.70976	0.04
Mof_C 	C 	0.724	0.3239	0.8312	0.05
Mof_H 	H 	0.70153	0.3775	0.70976	0.041
Mof_C 	C 	0.1761	0.224	0.8312	0.05
Mof_H 	H 	0.1225	0.20153	0.70976	0.035
Mof_C 	C 	0.8239	0.776	0.8312	0.043
Mof_H 	H 	0.8775	0.79847	0.70976	0.055
Mof_C 	C 	0.276	0.3239	0.8312	0.046
Mof_H 	H 	0.29847	0.3775	0.70976	0.039
Mof_C 	C 	0.724	0.6761	0.8312	0.052
Mof_H 	H 	0.70153	0.6225	0.70976	0.042
Mof_C 	C 	0.1761	0.776	0.8312	0.046
Mof_H 	H 	0.1225	0.79847	0.70976	0.042
Mof_C 	C 	0.8239	0.224	0.8312	0.047
Mof_H 	H 	0.8775	0.20153	0.70976	0.048
Mof_C 	C 	0.224	0.8239	0.1688	0.004
Mof_H 	H 	0.20153	0.8775	0.29024	0.056
Mof_C 	C 	0.776	0.1761	0.1688	0.003
Mof_H 	H 	0.79847	0.1225	0.29024	0.05
Mof_C 	C 	0.3239	0.276	0.1688	0.001
Mof_H 	H 	0.3775	0.29847	0.29024	0.047
Mof_C 	C 	0.6761	0.724	0.1688	0.01
Mof_H 	H 	0.6225	0.70153	0.29024	0.049
Mof_Ni	Ni	-0	0	-0	1.101
Mof_Ni	Ni	0.5	0.5	-0	1.12
Mof_F 	F 	7.91899e-34	2.47886e-33	0.3255	-0.665
Mof_F 	F 	0.5	0.5	0.3255	-0.645
Mof_F 	F 	0.5	0.5	0.6745	-0.632
Mof_F 	F 	1.64097e-33	4.95772e-33	0.6745	-0.648
Mof_N 	N 	0.1511	0.1511	-0	-0.219
Mof_N 	N 	0.8489	0.8489	-0	-0.193
Mof_N 	N 	0.3489	0.6511	-0	-0.212
Mof_N 	N 	0.6511	0.3489	-0	-0.212
Mof_N 	N 	0.3489	0.3489	-0	-0.213
Mof_N 	N 	0.6511	0.6511	-0	-0.21
Mof_N 	N 	0.1511	0.8489	-0	-0.206
Mof_N 	N 	0.8489	0.1511	-0	-0.205
Mof_H 	H 	1.21644e-33	2.47886e-33	0.5	0.433
Mof_H 	H 	0.5	0.5	0.5	0.44
_end
