data_functionalizedCrystal
_audit_creation_method	'EQeq! by Chris Wilmer'
_symmetry_space_group_name_H-M	'P1'
_symmetry_Int_Tables_number	1
_symmetry_cell_setting	triclinic
loop_
_symmetry_equiv_pos_as_xyz
  x,y,z
_cell_length_a	6.673
_cell_length_b	14.044
_cell_length_c	23.825
_cell_angle_alpha	90
_cell_angle_beta	90
_cell_angle_gamma	90
loop_
_atom_site_label
_atom_site_type_symbol
_atom_site_fract_x
_atom_site_fract_y
_atom_site_fract_z
_atom_site_charge
Mof_Ce	Ce	0.88144	0.70566	0.63392	2.309
Mof_Ce	Ce	0.38144	0.79434	0.86608	2.339
Mof_Ce	Ce	0.61856	0.70566	0.36608	2.34
Mof_Ce	Ce	0.11856	0.79434	0.13392	2.309
Mof_Ce	Ce	0.11856	0.29434	0.36608	2.31
Mof_Ce	Ce	0.61856	0.20566	0.13392	2.34
Mof_Ce	Ce	0.38144	0.29434	0.63392	2.34
Mof_Ce	Ce	0.88144	0.20566	0.86608	2.309
Mof_H 	H 	0.918	0.916	0.611	0.411
Mof_H 	H 	0.418	0.584	0.889	0.414
Mof_H 	H 	0.582	0.916	0.389	0.414
Mof_H 	H 	0.082	0.584	0.111	0.411
Mof_H 	H 	0.082	0.084	0.389	0.411
Mof_H 	H 	0.582	0.416	0.111	0.414
Mof_H 	H 	0.418	0.084	0.611	0.414
Mof_H 	H 	0.918	0.416	0.889	0.411
Mof_C 	C 	0.0222	0.8906	0.7323	0.147
Mof_C 	C 	0.0559	0.9328	0.7878	0.04
Mof_C 	C 	0.0131	0.0272	0.7661	0.159
Mof_C 	C 	0.9881	0.9872	0.7094	-0.028
Mof_C 	C 	0.8617	0.7039	0.4911	0.281
Mof_C 	C 	0.5222	0.6094	0.7677	0.125
Mof_C 	C 	0.5559	0.5672	0.7122	0.044
Mof_C 	C 	0.5131	0.4728	0.7339	0.137
Mof_C 	C 	0.4881	0.5128	0.7906	0.005
Mof_C 	C 	0.3617	0.7961	0.0089	0.279
Mof_C 	C 	0.4778	0.8906	0.2677	0.125
Mof_C 	C 	0.4441	0.9328	0.2122	0.044
Mof_C 	C 	0.4869	0.0272	0.2339	0.137
Mof_C 	C 	0.5119	0.9872	0.2906	0.005
Mof_C 	C 	0.6383	0.7039	0.5089	0.281
Mof_C 	C 	0.9778	0.6094	0.2323	0.147
Mof_C 	C 	0.9441	0.5672	0.2878	0.04
Mof_C 	C 	0.9869	0.4728	0.2661	0.159
Mof_C 	C 	0.0119	0.5128	0.2094	-0.028
Mof_C 	C 	0.1383	0.7961	0.9911	0.284
Mof_C 	C 	0.9778	0.1094	0.2677	0.147
Mof_C 	C 	0.9441	0.0672	0.2122	0.04
Mof_C 	C 	0.9869	0.9728	0.2339	0.159
Mof_C 	C 	0.0119	0.0128	0.2906	-0.028
Mof_C 	C 	0.1383	0.2961	0.5089	0.281
Mof_C 	C 	0.4778	0.3906	0.2323	0.125
Mof_C 	C 	0.4441	0.4328	0.2878	0.044
Mof_C 	C 	0.4869	0.5272	0.2661	0.137
Mof_C 	C 	0.5119	0.4872	0.2094	0.005
Mof_C 	C 	0.6383	0.2039	0.9911	0.279
Mof_C 	C 	0.5222	0.1094	0.7323	0.125
Mof_C 	C 	0.5559	0.0672	0.7878	0.044
Mof_C 	C 	0.5131	0.9728	0.7661	0.137
Mof_C 	C 	0.4881	0.0128	0.7094	0.005
Mof_C 	C 	0.3617	0.2961	0.4911	0.281
Mof_C 	C 	0.0222	0.3906	0.7677	0.147
Mof_C 	C 	0.0559	0.4328	0.7122	0.04
Mof_C 	C 	0.0131	0.5272	0.7339	0.159
Mof_C 	C 	0.9881	0.4872	0.7906	-0.028
Mof_C 	C 	0.8617	0.2039	0.0089	0.284
Mof_O 	O 	0.0244	0.8082	0.7131	-0.461
Mof_O 	O 	0.1058	0.9038	0.8356	-0.476
Mof_O 	O 	0.0045	0.1099	0.7859	-0.485
Mof_O 	O 	0.9558	0.0208	0.6622	-0.22
Mof_O 	O 	0.9879	0.7066	0.5292	-0.475
Mof_O 	O 	0.8953	0.6999	0.4393	-0.49
Mof_O 	O 	0.8793	0.8718	0.5959	-0.716
Mof_O 	O 	0.5244	0.6918	0.7869	-0.466
Mof_O 	O 	0.6058	0.5962	0.6644	-0.48
Mof_O 	O 	0.5045	0.3901	0.7141	-0.492
Mof_O 	O 	0.4558	0.4792	0.8378	-0.221
Mof_O 	O 	0.4879	0.7934	0.9708	-0.476
Mof_O 	O 	0.3953	0.8001	0.0607	-0.489
Mof_O 	O 	0.3793	0.6282	0.9041	-0.717
Mof_O 	O 	0.4756	0.8082	0.2869	-0.466
Mof_O 	O 	0.3942	0.9038	0.1644	-0.48
Mof_O 	O 	0.4955	0.1099	0.2141	-0.492
Mof_O 	O 	0.5442	0.0208	0.3378	-0.221
Mof_O 	O 	0.5121	0.7066	0.4708	-0.477
Mof_O 	O 	0.6047	0.6999	0.5607	-0.489
Mof_O 	O 	0.6207	0.8718	0.4041	-0.718
Mof_O 	O 	0.9756	0.6918	0.2131	-0.46
Mof_O 	O 	0.8942	0.5962	0.3356	-0.476
Mof_O 	O 	0.9955	0.3901	0.2859	-0.485
Mof_O 	O 	0.0442	0.4792	0.1622	-0.219
Mof_O 	O 	0.0121	0.7934	0.0292	-0.477
Mof_O 	O 	0.1047	0.8001	0.9393	-0.491
Mof_O 	O 	0.1207	0.6282	0.0959	-0.716
Mof_O 	O 	0.9756	0.1918	0.2869	-0.461
Mof_O 	O 	0.8942	0.0962	0.1644	-0.476
Mof_O 	O 	0.9955	0.8901	0.2141	-0.485
Mof_O 	O 	0.0442	0.9792	0.3378	-0.22
Mof_O 	O 	0.0121	0.2934	0.4708	-0.475
Mof_O 	O 	0.1047	0.3001	0.5607	-0.49
Mof_O 	O 	0.1207	0.1282	0.4041	-0.716
Mof_O 	O 	0.4756	0.3082	0.2131	-0.466
Mof_O 	O 	0.3942	0.4038	0.3356	-0.48
Mof_O 	O 	0.4955	0.6099	0.2859	-0.492
Mof_O 	O 	0.5442	0.5208	0.1622	-0.221
Mof_O 	O 	0.5121	0.2066	0.0292	-0.476
Mof_O 	O 	0.6047	0.1999	0.9393	-0.489
Mof_O 	O 	0.6207	0.3718	0.0959	-0.717
Mof_O 	O 	0.5244	0.1918	0.7131	-0.466
Mof_O 	O 	0.6058	0.0962	0.8356	-0.48
Mof_O 	O 	0.5045	0.8901	0.7859	-0.492
Mof_O 	O 	0.4558	0.9792	0.6622	-0.221
Mof_O 	O 	0.4879	0.2934	0.5292	-0.477
Mof_O 	O 	0.3953	0.3001	0.4393	-0.489
Mof_O 	O 	0.3793	0.1282	0.5959	-0.718
Mof_O 	O 	0.0244	0.3082	0.7869	-0.46
Mof_O 	O 	0.1058	0.4038	0.6644	-0.476
Mof_O 	O 	0.0045	0.6099	0.7141	-0.485
Mof_O 	O 	0.9558	0.5208	0.8378	-0.219
Mof_O 	O 	0.9879	0.2066	0.9708	-0.477
Mof_O 	O 	0.8953	0.1999	0.0607	-0.491
Mof_O 	O 	0.8793	0.3718	0.9041	-0.716
_end
