data_functionalizedCrystal
_audit_creation_method	'EQeq! by Chris Wilmer'
_symmetry_space_group_name_H-M	'P1'
_symmetry_Int_Tables_number	1
_symmetry_cell_setting	triclinic
loop_
_symmetry_equiv_pos_as_xyz
  x,y,z
_cell_length_a	14.2118
_cell_length_b	14.2118
_cell_length_c	63.501
_cell_angle_alpha	90
_cell_angle_beta	90
_cell_angle_gamma	90
loop_
_atom_site_label
_atom_site_type_symbol
_atom_site_fract_x
_atom_site_fract_y
_atom_site_fract_z
_atom_site_charge
Mof_Eu	Eu	0.22204	0.9808	0.43826	2.578
Mof_O 	O 	0.3741	0.909	0.4656	-0.641
Mof_O 	O 	0.2189	0.8834	0.4668	-0.585
Mof_O 	O 	0.095	0.7445	0.5352	-0.641
Mof_O 	O 	0.1226	0.5951	0.5292	-0.631
Mof_O 	O 	0.0448	0.6315	0.57108	-0.772
Mof_O 	O 	0.1136	0.4977	0.56961	-0.575
Mof_O 	O 	0.1363	0.6786	0.6711	-0.444
Mof_O 	O 	0.0018	0.6768	0.65194	-0.556
Mof_O 	O 	0.0755	0.0118	0.4513	-0.668
Mof_C 	C 	0.3163	0.7922	0.4916	-0.249
Mof_C 	C 	0.3962	0.7627	0.4969	0.177
Mof_H 	H 	0.4495	0.7848	0.49	-0.032
Mof_C 	C 	0.4054	0.6964	0.5133	-0.215
Mof_H 	H 	0.4639	0.671	0.5166	0.104
Mof_C 	C 	0.321	0.6679	0.525	0.151
Mof_C 	C 	0.2363	0.7075	0.5188	-0.26
Mof_C 	C 	0.2328	0.7721	0.5036	0.174
Mof_H 	H 	0.177	0.8038	0.5007	-0.011
Mof_C 	C 	0.3357	0.6036	0.5429	-0.051
Mof_C 	C 	0.3784	0.5201	0.541	-0.016
Mof_H 	H 	0.4008	0.5015	0.5278	0.03
Mof_C 	C 	0.39	0.4615	0.5579	-0.067
Mof_H 	H 	0.4253	0.4068	0.5565	0.043
Mof_C 	C 	0.3505	0.483	0.5764	-0.014
Mof_H 	H 	0.3581	0.4414	0.5876	0.019
Mof_C 	C 	0.2984	0.5642	0.5795	-0.053
Mof_C 	C 	0.2917	0.6178	0.5625	-0.004
Mof_H 	H 	0.2536	0.6708	0.5636	0.034
Mof_C 	C 	0.2476	0.5845	0.5984	0.14
Mof_C 	C 	0.2939	0.5997	0.6189	-0.2
Mof_H 	H 	0.3587	0.5936	0.6204	0.093
Mof_C 	C 	0.239	0.6227	0.6352	0.118
Mof_H 	H 	0.269	0.6305	0.6481	-0.003
Mof_C 	C 	0.1457	0.6357	0.635	-0.182
Mof_C 	C 	0.0992	0.6222	0.6161	0.138
Mof_H 	H 	0.0347	0.6322	0.615	-0.038
Mof_C 	C 	0.1527	0.5928	0.5985	-0.249
Mof_C 	C 	0.3026	0.8683	0.4746	0.459
Mof_C 	C 	0.142	0.6813	0.529	0.614
Mof_C 	C 	0.099	0.5719	0.5777	0.593
Mof_C 	C 	0.094	0.6591	0.654	0.314
Mof_Eu	Eu	0.72204	0.4808	0.93826	2.306
Mof_O 	O 	0.8741	0.409	0.9656	-0.641
Mof_O 	O 	0.7189	0.3834	0.9668	-0.565
Mof_O 	O 	0.595	0.2445	0.0352	-0.578
Mof_O 	O 	0.6226	0.0951	0.0292	-0.636
Mof_O 	O 	0.5448	0.1315	0.07108	-0.669
Mof_O 	O 	0.6136	0.9977	0.06961	-0.445
Mof_O 	O 	0.6363	0.1786	0.1711	-0.41
Mof_O 	O 	0.5018	0.1768	0.15194	-0.497
Mof_O 	O 	0.5755	0.5118	0.9513	-0.671
Mof_C 	C 	0.8163	0.2922	0.9916	-0.229
Mof_C 	C 	0.8962	0.2627	0.9969	0.15
Mof_H 	H 	0.9495	0.2848	0.99	-0.005
Mof_C 	C 	0.9054	0.1964	0.0133	-0.189
Mof_H 	H 	0.9639	0.171	0.0166	0.108
Mof_C 	C 	0.821	0.1679	0.025	0.109
Mof_C 	C 	0.7363	0.2075	0.0188	-0.237
Mof_C 	C 	0.7328	0.2721	0.0036	0.148
Mof_H 	H 	0.677	0.3038	0.0007	-0.002
Mof_C 	C 	0.8357	0.1036	0.0429	0.017
Mof_C 	C 	0.8784	0.0201	0.041	-0.182
Mof_H 	H 	0.9008	0.0015	0.0278	0.071
Mof_C 	C 	0.89	0.9615	0.0579	0.092
Mof_H 	H 	0.9253	0.9068	0.0565	0.025
Mof_C 	C 	0.8505	0.983	0.0764	0.016
Mof_H 	H 	0.8581	0.9414	0.0876	0.046
Mof_C 	C 	0.7984	0.0642	0.0795	-0.088
Mof_C 	C 	0.7917	0.1178	0.0625	-0.038
Mof_H 	H 	0.7536	0.1708	0.0636	0.049
Mof_C 	C 	0.7476	0.0845	0.0984	0.116
Mof_C 	C 	0.7939	0.0997	0.1189	-0.187
Mof_H 	H 	0.8587	0.0936	0.1204	0.087
Mof_C 	C 	0.739	0.1227	0.1352	0.096
Mof_H 	H 	0.769	0.1305	0.1481	0.002
Mof_C 	C 	0.6457	0.1357	0.135	-0.161
Mof_C 	C 	0.5992	0.1222	0.1161	0.101
Mof_H 	H 	0.5347	0.1322	0.115	-0.015
Mof_C 	C 	0.6527	0.0928	0.0985	-0.203
Mof_C 	C 	0.8026	0.3683	0.9746	0.446
Mof_C 	C 	0.642	0.1813	0.029	0.589
Mof_C 	C 	0.599	0.0719	0.0777	0.449
Mof_C 	C 	0.594	0.1591	0.154	0.299
Mof_Eu	Eu	0.77796	0.0192	0.43826	1.993
Mof_O 	O 	0.6259	0.091	0.4656	-0.665
Mof_O 	O 	0.7811	0.1166	0.4668	-0.535
Mof_O 	O 	0.905	0.2555	0.5352	-0.514
Mof_O 	O 	0.8774	0.4049	0.5292	-0.574
Mof_O 	O 	0.9552	0.3685	0.57108	-0.608
Mof_O 	O 	0.8864	0.5023	0.56961	-0.518
Mof_O 	O 	0.8637	0.3214	0.6711	-0.371
Mof_O 	O 	0.9982	0.3232	0.65194	-0.412
Mof_O 	O 	0.9245	0.9882	0.4513	-0.413
Mof_C 	C 	0.6837	0.2078	0.4916	-0.233
Mof_C 	C 	0.6038	0.2373	0.4969	0.151
Mof_H 	H 	0.5505	0.2152	0.49	-0.032
Mof_C 	C 	0.5946	0.3036	0.5133	-0.201
Mof_H 	H 	0.5361	0.329	0.5166	0.093
Mof_C 	C 	0.679	0.3321	0.525	0.123
Mof_C 	C 	0.7637	0.2925	0.5188	-0.226
Mof_C 	C 	0.7672	0.2279	0.5036	0.143
Mof_H 	H 	0.823	0.1962	0.5007	0.004
Mof_C 	C 	0.6643	0.3964	0.5429	-0.024
Mof_C 	C 	0.6216	0.4799	0.541	-0.045
Mof_H 	H 	0.5992	0.4985	0.5278	0.041
Mof_C 	C 	0.61	0.5385	0.5579	-0.035
Mof_H 	H 	0.5747	0.5932	0.5565	0.038
Mof_C 	C 	0.6495	0.517	0.5764	-0.048
Mof_H 	H 	0.6419	0.5586	0.5876	0.039
Mof_C 	C 	0.7016	0.4358	0.5795	-0.016
Mof_C 	C 	0.7083	0.3822	0.5625	-0.04
Mof_H 	H 	0.7464	0.3292	0.5636	0.047
Mof_C 	C 	0.7524	0.4155	0.5984	0.099
Mof_C 	C 	0.7061	0.4003	0.6189	-0.158
Mof_H 	H 	0.6413	0.4064	0.6204	0.077
Mof_C 	C 	0.761	0.3773	0.6352	0.079
Mof_H 	H 	0.731	0.3695	0.6481	0.011
Mof_C 	C 	0.8543	0.3643	0.635	-0.133
Mof_C 	C 	0.9008	0.3778	0.6161	0.097
Mof_H 	H 	0.9653	0.3678	0.615	0.017
Mof_C 	C 	0.8473	0.4072	0.5985	-0.184
Mof_C 	C 	0.6974	0.1317	0.4746	0.437
Mof_C 	C 	0.858	0.3187	0.529	0.564
Mof_C 	C 	0.901	0.4281	0.5777	0.532
Mof_C 	C 	0.906	0.3409	0.654	0.296
Mof_Eu	Eu	0.27796	0.5192	0.93826	2.283
Mof_O 	O 	0.1259	0.591	0.9656	-0.672
Mof_O 	O 	0.2811	0.6166	0.9668	-0.56
Mof_O 	O 	0.405	0.7555	0.0352	-0.58
Mof_O 	O 	0.3774	0.9049	0.0292	-0.574
Mof_O 	O 	0.4552	0.8685	0.07108	-0.723
Mof_O 	O 	0.3864	0.0023	0.06961	-0.655
Mof_O 	O 	0.3637	0.8214	0.1711	-0.406
Mof_O 	O 	0.4982	0.8232	0.15194	-0.476
Mof_O 	O 	0.4245	0.4882	0.9513	-0.669
Mof_C 	C 	0.1837	0.7078	0.9916	-0.257
Mof_C 	C 	0.1038	0.7373	0.9969	0.179
Mof_H 	H 	0.0505	0.7152	0.99	-0.061
Mof_C 	C 	0.0946	0.8036	0.0133	-0.232
Mof_H 	H 	0.0361	0.829	0.0166	0.09
Mof_C 	C 	0.179	0.8321	0.025	0.166
Mof_C 	C 	0.2637	0.7925	0.0188	-0.253
Mof_C 	C 	0.2672	0.7279	0.0036	0.17
Mof_H 	H 	0.323	0.6962	0.0007	-0.007
Mof_C 	C 	0.1643	0.8964	0.0429	-0.098
Mof_C 	C 	0.1216	0.9799	0.041	0.132
Mof_H 	H 	0.0992	0.9985	0.0278	-0.002
Mof_C 	C 	0.11	0.0385	0.0579	-0.205
Mof_H 	H 	0.0747	0.0932	0.0565	0.058
Mof_C 	C 	0.1495	0.017	0.0764	-0.076
Mof_H 	H 	0.1419	0.0586	0.0876	0.01
Mof_C 	C 	0.2016	0.9358	0.0795	0.018
Mof_C 	C 	0.2083	0.8822	0.0625	-0.002
Mof_H 	H 	0.2464	0.8292	0.0636	0.031
Mof_C 	C 	0.2524	0.9155	0.0984	0.126
Mof_C 	C 	0.2061	0.9003	0.1189	-0.172
Mof_H 	H 	0.1413	0.9064	0.1204	0.084
Mof_C 	C 	0.261	0.8773	0.1352	0.104
Mof_H 	H 	0.231	0.8695	0.1481	0.006
Mof_C 	C 	0.3543	0.8643	0.135	-0.156
Mof_C 	C 	0.4008	0.8778	0.1161	0.137
Mof_H 	H 	0.4653	0.8678	0.115	-0.008
Mof_C 	C 	0.3473	0.9072	0.0985	-0.234
Mof_C 	C 	0.1974	0.6317	0.9746	0.453
Mof_C 	C 	0.358	0.8187	0.029	0.591
Mof_C 	C 	0.401	0.9281	0.0777	0.683
Mof_C 	C 	0.406	0.8409	0.154	0.312
Mof_Eu	Eu	0.9808	0.77796	0.56174	2.606
Mof_O 	O 	0.909	0.6259	0.5344	-0.64
Mof_O 	O 	0.8834	0.7811	0.5332	-0.568
Mof_O 	O 	0.7445	0.905	0.4648	-0.512
Mof_O 	O 	0.5951	0.8774	0.4708	-0.575
Mof_O 	O 	0.6315	0.9552	0.42892	-0.616
Mof_O 	O 	0.4977	0.8864	0.43039	-0.521
Mof_O 	O 	0.6786	0.8637	0.3289	-0.374
Mof_O 	O 	0.6768	0.9982	0.34806	-0.413
Mof_O 	O 	0.0118	0.9245	0.5487	-0.59
Mof_C 	C 	0.7922	0.6837	0.5084	-0.222
Mof_C 	C 	0.7627	0.6038	0.5031	0.151
Mof_H 	H 	0.7848	0.5505	0.51	-0.024
Mof_C 	C 	0.6964	0.5946	0.4867	-0.192
Mof_H 	H 	0.671	0.5361	0.4834	0.095
Mof_C 	C 	0.6679	0.679	0.475	0.122
Mof_C 	C 	0.7075	0.7637	0.4812	-0.219
Mof_C 	C 	0.7721	0.7672	0.4964	0.144
Mof_H 	H 	0.8038	0.823	0.4993	0.018
Mof_C 	C 	0.6036	0.6643	0.4571	-0.018
Mof_C 	C 	0.5201	0.6216	0.459	-0.05
Mof_H 	H 	0.5015	0.5992	0.4722	0.042
Mof_C 	C 	0.4615	0.61	0.4421	-0.031
Mof_H 	H 	0.4068	0.5747	0.4435	0.03
Mof_C 	C 	0.483	0.6495	0.4236	-0.051
Mof_H 	H 	0.4414	0.6419	0.4124	0.035
Mof_C 	C 	0.5642	0.7016	0.4205	-0.013
Mof_C 	C 	0.6178	0.7083	0.4375	-0.041
Mof_H 	H 	0.6708	0.7464	0.4364	0.051
Mof_C 	C 	0.5845	0.7524	0.4016	0.099
Mof_C 	C 	0.5997	0.7061	0.3811	-0.158
Mof_H 	H 	0.5936	0.6413	0.3796	0.079
Mof_C 	C 	0.6227	0.761	0.3648	0.079
Mof_H 	H 	0.6305	0.731	0.3519	0.012
Mof_C 	C 	0.6357	0.8543	0.365	-0.134
Mof_C 	C 	0.6222	0.9008	0.3839	0.097
Mof_H 	H 	0.6322	0.9653	0.385	0.018
Mof_C 	C 	0.5928	0.8473	0.4015	-0.186
Mof_C 	C 	0.8683	0.6974	0.5254	0.452
Mof_C 	C 	0.6813	0.858	0.471	0.565
Mof_C 	C 	0.5719	0.901	0.4223	0.536
Mof_C 	C 	0.6591	0.906	0.346	0.295
Mof_Eu	Eu	0.4808	0.27796	0.06174	2.269
Mof_O 	O 	0.409	0.1259	0.0344	-0.672
Mof_O 	O 	0.3834	0.2811	0.0332	-0.564
Mof_O 	O 	0.2445	0.405	0.9648	-0.582
Mof_O 	O 	0.0951	0.3774	0.9708	-0.637
Mof_O 	O 	0.1315	0.4552	0.92892	-0.67
Mof_O 	O 	0.9977	0.3864	0.93039	-0.445
Mof_O 	O 	0.1786	0.3637	0.8289	-0.417
Mof_O 	O 	0.1768	0.4982	0.84806	-0.494
Mof_O 	O 	0.5118	0.4245	0.0487	-0.667
Mof_C 	C 	0.2922	0.1837	0.0084	-0.248
Mof_C 	C 	0.2627	0.1038	0.0031	0.152
Mof_H 	H 	0.2848	0.0505	0.01	-0.055
Mof_C 	C 	0.1964	0.0946	0.9867	-0.207
Mof_H 	H 	0.171	0.0361	0.9834	0.065
Mof_C 	C 	0.1679	0.179	0.975	0.104
Mof_C 	C 	0.2075	0.2637	0.9812	-0.244
Mof_C 	C 	0.2721	0.2672	0.9964	0.15
Mof_H 	H 	0.3038	0.323	0.9993	-0.006
Mof_C 	C 	0.1036	0.1643	0.9571	0.003
Mof_C 	C 	0.0201	0.1216	0.959	-0.199
Mof_H 	H 	0.0015	0.0992	0.9722	0.046
Mof_C 	C 	0.9615	0.11	0.9421	0.081
Mof_H 	H 	0.9068	0.0747	0.9435	-0.014
Mof_C 	C 	0.983	0.1495	0.9236	0.01
Mof_H 	H 	0.9414	0.1419	0.9124	0.025
Mof_C 	C 	0.0642	0.2016	0.9205	-0.103
Mof_C 	C 	0.1178	0.2083	0.9375	-0.042
Mof_H 	H 	0.1708	0.2464	0.9364	0.044
Mof_C 	C 	0.0845	0.2524	0.9016	0.108
Mof_C 	C 	0.0997	0.2061	0.8811	-0.188
Mof_H 	H 	0.0936	0.1413	0.8796	0.058
Mof_C 	C 	0.1227	0.261	0.8648	0.089
Mof_H 	H 	0.1305	0.231	0.8519	-0.01
Mof_C 	C 	0.1357	0.3543	0.865	-0.161
Mof_C 	C 	0.1222	0.4008	0.8839	0.098
Mof_H 	H 	0.1322	0.4653	0.885	-0.013
Mof_C 	C 	0.0928	0.3473	0.9015	-0.202
Mof_C 	C 	0.3683	0.1974	0.0254	0.447
Mof_C 	C 	0.1813	0.358	0.971	0.591
Mof_C 	C 	0.0719	0.401	0.9223	0.448
Mof_C 	C 	0.1591	0.406	0.846	0.298
Mof_Eu	Eu	0.0192	0.22204	0.56174	1.931
Mof_O 	O 	0.091	0.3741	0.5344	-0.667
Mof_O 	O 	0.1166	0.2189	0.5332	-0.552
Mof_O 	O 	0.2555	0.095	0.4648	-0.649
Mof_O 	O 	0.4049	0.1226	0.4708	-0.632
Mof_O 	O 	0.3685	0.0448	0.42892	-0.771
Mof_O 	O 	0.5023	0.1136	0.43039	-0.573
Mof_O 	O 	0.3214	0.1363	0.3289	-0.444
Mof_O 	O 	0.3232	0.0018	0.34806	-0.56
Mof_O 	O 	0.9882	0.0755	0.5487	-0.472
Mof_C 	C 	0.2078	0.3163	0.5084	-0.262
Mof_C 	C 	0.2373	0.3962	0.5031	0.177
Mof_H 	H 	0.2152	0.4495	0.51	-0.042
Mof_C 	C 	0.3036	0.4054	0.4867	-0.226
Mof_H 	H 	0.329	0.4639	0.4834	0.102
Mof_C 	C 	0.3321	0.321	0.475	0.151
Mof_C 	C 	0.2925	0.2363	0.4812	-0.27
Mof_C 	C 	0.2279	0.2328	0.4964	0.173
Mof_H 	H 	0.1962	0.177	0.4993	-0.028
Mof_C 	C 	0.3964	0.3357	0.4571	-0.058
Mof_C 	C 	0.4799	0.3784	0.459	-0.01
Mof_H 	H 	0.4985	0.4008	0.4722	0.029
Mof_C 	C 	0.5385	0.39	0.4421	-0.072
Mof_H 	H 	0.5932	0.4253	0.4435	0.051
Mof_C 	C 	0.517	0.3505	0.4236	-0.01
Mof_H 	H 	0.5586	0.3581	0.4124	0.023
Mof_C 	C 	0.4358	0.2984	0.4205	-0.058
Mof_C 	C 	0.3822	0.2917	0.4375	-0.001
Mof_H 	H 	0.3292	0.2536	0.4364	0.029
Mof_C 	C 	0.4155	0.2476	0.4016	0.142
Mof_C 	C 	0.4003	0.2939	0.3811	-0.201
Mof_H 	H 	0.4064	0.3587	0.3796	0.091
Mof_C 	C 	0.3773	0.239	0.3648	0.12
Mof_H 	H 	0.3695	0.269	0.3519	-0.004
Mof_C 	C 	0.3643	0.1457	0.365	-0.183
Mof_C 	C 	0.3778	0.0992	0.3839	0.14
Mof_H 	H 	0.3678	0.0347	0.385	-0.04
Mof_C 	C 	0.4072	0.1527	0.4015	-0.249
Mof_C 	C 	0.1317	0.3026	0.5254	0.444
Mof_C 	C 	0.3187	0.142	0.471	0.615
Mof_C 	C 	0.4281	0.099	0.4223	0.592
Mof_C 	C 	0.3409	0.094	0.346	0.316
Mof_Eu	Eu	0.5192	0.72204	0.06174	2.32
Mof_O 	O 	0.591	0.8741	0.0344	-0.641
Mof_O 	O 	0.6166	0.7189	0.0332	-0.561
Mof_O 	O 	0.7555	0.595	0.9648	-0.576
Mof_O 	O 	0.9049	0.6226	0.9708	-0.574
Mof_O 	O 	0.8685	0.5448	0.92892	-0.722
Mof_O 	O 	0.0023	0.6136	0.93039	-0.652
Mof_O 	O 	0.8214	0.6363	0.8289	-0.4
Mof_O 	O 	0.8232	0.5018	0.84806	-0.479
Mof_O 	O 	0.4882	0.5755	0.0487	-0.673
Mof_C 	C 	0.7078	0.8163	0.0084	-0.237
Mof_C 	C 	0.7373	0.8962	0.0031	0.175
Mof_H 	H 	0.7152	0.9495	0.01	-0.013
Mof_C 	C 	0.8036	0.9054	0.9867	-0.212
Mof_H 	H 	0.829	0.9639	0.9834	0.13
Mof_C 	C 	0.8321	0.821	0.975	0.168
Mof_C 	C 	0.7925	0.7363	0.9812	-0.246
Mof_C 	C 	0.7279	0.7328	0.9964	0.166
Mof_H 	H 	0.6962	0.677	0.9993	-0.004
Mof_C 	C 	0.8964	0.8357	0.9571	-0.077
Mof_C 	C 	0.9799	0.8784	0.959	0.13
Mof_H 	H 	0.9985	0.9008	0.9722	0.027
Mof_C 	C 	0.0385	0.89	0.9421	-0.176
Mof_H 	H 	0.0932	0.9253	0.9435	0.093
Mof_C 	C 	0.017	0.8505	0.9236	-0.069
Mof_H 	H 	0.0586	0.8581	0.9124	0.033
Mof_C 	C 	0.9358	0.7984	0.9205	0.028
Mof_C 	C 	0.8822	0.7917	0.9375	-0.002
Mof_H 	H 	0.8292	0.7536	0.9364	0.036
Mof_C 	C 	0.9155	0.7476	0.9016	0.133
Mof_C 	C 	0.9003	0.7939	0.8811	-0.171
Mof_H 	H 	0.9064	0.8587	0.8796	0.111
Mof_C 	C 	0.8773	0.739	0.8648	0.11
Mof_H 	H 	0.8695	0.769	0.8519	0.017
Mof_C 	C 	0.8643	0.6457	0.865	-0.156
Mof_C 	C 	0.8778	0.5992	0.8839	0.14
Mof_H 	H 	0.8678	0.5347	0.885	-0.011
Mof_C 	C 	0.9072	0.6527	0.9015	-0.235
Mof_C 	C 	0.6317	0.8026	0.0254	0.451
Mof_C 	C 	0.8187	0.642	0.971	0.588
Mof_C 	C 	0.9281	0.599	0.9223	0.681
Mof_C 	C 	0.8409	0.594	0.846	0.313
Mof_Eu	Eu	0.27796	0.9808	0.31174	2.593
Mof_O 	O 	0.1259	0.909	0.2844	-0.615
Mof_O 	O 	0.2811	0.8834	0.2832	-0.574
Mof_O 	O 	0.405	0.7445	0.2148	-0.586
Mof_O 	O 	0.3774	0.5951	0.2208	-0.643
Mof_O 	O 	0.4552	0.6315	0.17892	-0.714
Mof_O 	O 	0.3864	0.4977	0.18039	-0.577
Mof_O 	O 	0.3637	0.6786	0.0789	-0.415
Mof_O 	O 	0.4982	0.6768	0.09806	-0.487
Mof_O 	O 	0.4245	0.0118	0.2987	-0.696
Mof_C 	C 	0.1837	0.7922	0.2584	-0.235
Mof_C 	C 	0.1038	0.7627	0.2531	0.156
Mof_H 	H 	0.0505	0.7848	0.26	-0.046
Mof_C 	C 	0.0946	0.6964	0.2367	-0.209
Mof_H 	H 	0.0361	0.671	0.2334	0.077
Mof_C 	C 	0.179	0.6679	0.225	0.134
Mof_C 	C 	0.2637	0.7075	0.2312	-0.247
Mof_C 	C 	0.2672	0.7721	0.2464	0.158
Mof_H 	H 	0.323	0.8038	0.2493	0.002
Mof_C 	C 	0.1643	0.6036	0.2071	-0.044
Mof_C 	C 	0.1216	0.5201	0.209	-0.036
Mof_H 	H 	0.0992	0.5015	0.2222	0.022
Mof_C 	C 	0.11	0.4615	0.1921	-0.061
Mof_H 	H 	0.0747	0.4068	0.1935	0.019
Mof_C 	C 	0.1495	0.483	0.1736	-0.035
Mof_H 	H 	0.1419	0.4414	0.1624	0.015
Mof_C 	C 	0.2016	0.5642	0.1705	-0.041
Mof_C 	C 	0.2083	0.6178	0.1875	-0.022
Mof_H 	H 	0.2464	0.6708	0.1864	0.039
Mof_C 	C 	0.2524	0.5845	0.1516	0.118
Mof_C 	C 	0.2061	0.5997	0.1311	-0.181
Mof_H 	H 	0.1413	0.5936	0.1296	0.072
Mof_C 	C 	0.261	0.6227	0.1148	0.096
Mof_H 	H 	0.231	0.6305	0.1019	-0.003
Mof_C 	C 	0.3543	0.6357	0.115	-0.16
Mof_C 	C 	0.4008	0.6222	0.1339	0.118
Mof_H 	H 	0.4653	0.6322	0.135	-0.011
Mof_C 	C 	0.3473	0.5928	0.1515	-0.22
Mof_C 	C 	0.1974	0.8683	0.2754	0.442
Mof_C 	C 	0.358	0.6813	0.221	0.604
Mof_C 	C 	0.401	0.5719	0.1723	0.572
Mof_C 	C 	0.406	0.6591	0.096	0.303
Mof_Eu	Eu	0.77796	0.4808	0.81174	2.303
Mof_O 	O 	0.6259	0.409	0.7844	-0.696
Mof_O 	O 	0.7811	0.3834	0.7832	-0.559
Mof_O 	O 	0.905	0.2445	0.7148	-0.504
Mof_O 	O 	0.8774	0.0951	0.7208	-0.565
Mof_O 	O 	0.9552	0.1315	0.67892	-0.571
Mof_O 	O 	0.8864	0.9977	0.68039	-0.398
Mof_O 	O 	0.8637	0.1786	0.5789	-0.375
Mof_O 	O 	0.9982	0.1768	0.59806	-0.418
Mof_O 	O 	0.9245	0.5118	0.7987	-0.566
Mof_C 	C 	0.6837	0.2922	0.7584	-0.233
Mof_C 	C 	0.6038	0.2627	0.7531	0.146
Mof_H 	H 	0.5505	0.2848	0.76	-0.032
Mof_C 	C 	0.5946	0.1964	0.7367	-0.19
Mof_H 	H 	0.5361	0.171	0.7334	0.084
Mof_C 	C 	0.679	0.1679	0.725	0.092
Mof_C 	C 	0.7637	0.2075	0.7312	-0.215
Mof_C 	C 	0.7672	0.2721	0.7464	0.136
Mof_H 	H 	0.823	0.3038	0.7493	0.012
Mof_C 	C 	0.6643	0.1036	0.7071	0.028
Mof_C 	C 	0.6216	0.0201	0.709	-0.205
Mof_H 	H 	0.5992	0.0015	0.7222	0.064
Mof_C 	C 	0.61	0.9615	0.6921	0.104
Mof_H 	H 	0.5747	0.9068	0.6935	-0.001
Mof_C 	C 	0.6495	0.983	0.6736	-0.013
Mof_H 	H 	0.6419	0.9414	0.6624	0.045
Mof_C 	C 	0.7016	0.0642	0.6705	-0.068
Mof_C 	C 	0.7083	0.1178	0.6875	-0.062
Mof_H 	H 	0.7464	0.1708	0.6864	0.056
Mof_C 	C 	0.7524	0.0845	0.6516	0.089
Mof_C 	C 	0.7061	0.0997	0.6311	-0.164
Mof_H 	H 	0.6413	0.0936	0.6296	0.065
Mof_C 	C 	0.761	0.1227	0.6148	0.071
Mof_H 	H 	0.731	0.1305	0.6019	0.005
Mof_C 	C 	0.8543	0.1357	0.615	-0.134
Mof_C 	C 	0.9008	0.1222	0.6339	0.077
Mof_H 	H 	0.9653	0.1322	0.635	0.016
Mof_C 	C 	0.8473	0.0928	0.6515	-0.168
Mof_C 	C 	0.6974	0.3683	0.7754	0.457
Mof_C 	C 	0.858	0.1813	0.721	0.55
Mof_C 	C 	0.901	0.0719	0.6723	0.421
Mof_C 	C 	0.906	0.1591	0.596	0.29
Mof_Eu	Eu	0.72204	0.0192	0.31174	1.989
Mof_O 	O 	0.8741	0.091	0.2844	-0.61
Mof_O 	O 	0.7189	0.1166	0.2832	-0.541
Mof_O 	O 	0.595	0.2555	0.2148	-0.587
Mof_O 	O 	0.6226	0.4049	0.2208	-0.642
Mof_O 	O 	0.5448	0.3685	0.17892	-0.708
Mof_O 	O 	0.6136	0.5023	0.18039	-0.573
Mof_O 	O 	0.6363	0.3214	0.0789	-0.405
Mof_O 	O 	0.5018	0.3232	0.09806	-0.491
Mof_O 	O 	0.5755	0.9882	0.2987	-0.509
Mof_C 	C 	0.8163	0.2078	0.2584	-0.228
Mof_C 	C 	0.8962	0.2373	0.2531	0.154
Mof_H 	H 	0.9495	0.2152	0.26	-0.006
Mof_C 	C 	0.9054	0.3036	0.2367	-0.2
Mof_H 	H 	0.9639	0.329	0.2334	0.117
Mof_C 	C 	0.821	0.3321	0.225	0.139
Mof_C 	C 	0.7363	0.2925	0.2312	-0.248
Mof_C 	C 	0.7328	0.2279	0.2464	0.154
Mof_H 	H 	0.677	0.1962	0.2493	-0.01
Mof_C 	C 	0.8357	0.3964	0.2071	-0.034
Mof_C 	C 	0.8784	0.4799	0.209	-0.022
Mof_H 	H 	0.9008	0.4985	0.2222	0.049
Mof_C 	C 	0.89	0.5385	0.1921	-0.045
Mof_H 	H 	0.9253	0.5932	0.1935	0.063
Mof_C 	C 	0.8505	0.517	0.1736	-0.024
Mof_H 	H 	0.8581	0.5586	0.1624	0.041
Mof_C 	C 	0.7984	0.4358	0.1705	-0.033
Mof_C 	C 	0.7917	0.3822	0.1875	-0.018
Mof_H 	H 	0.7536	0.3292	0.1864	0.039
Mof_C 	C 	0.7476	0.4155	0.1516	0.126
Mof_C 	C 	0.7939	0.4003	0.1311	-0.181
Mof_H 	H 	0.8587	0.4064	0.1296	0.099
Mof_C 	C 	0.739	0.3773	0.1148	0.105
Mof_H 	H 	0.769	0.3695	0.1019	0.009
Mof_C 	C 	0.6457	0.3643	0.115	-0.16
Mof_C 	C 	0.5992	0.3778	0.1339	0.123
Mof_H 	H 	0.5347	0.3678	0.135	-0.015
Mof_C 	C 	0.6527	0.4072	0.1515	-0.22
Mof_C 	C 	0.8026	0.1317	0.2754	0.426
Mof_C 	C 	0.642	0.3187	0.221	0.602
Mof_C 	C 	0.599	0.4281	0.1723	0.569
Mof_C 	C 	0.594	0.3409	0.096	0.306
Mof_Eu	Eu	0.22204	0.5192	0.81174	2.267
Mof_O 	O 	0.3741	0.591	0.7844	-0.698
Mof_O 	O 	0.2189	0.6166	0.7832	-0.573
Mof_O 	O 	0.095	0.7555	0.7148	-0.636
Mof_O 	O 	0.1226	0.9049	0.7208	-0.563
Mof_O 	O 	0.0448	0.8685	0.67892	-0.782
Mof_O 	O 	0.1136	0.0023	0.68039	-0.653
Mof_O 	O 	0.1363	0.8214	0.5789	-0.436
Mof_O 	O 	0.0018	0.8232	0.59806	-0.545
Mof_O 	O 	0.0755	0.4882	0.7987	-0.639
Mof_C 	C 	0.3163	0.7078	0.7584	-0.271
Mof_C 	C 	0.3962	0.7373	0.7531	0.198
Mof_H 	H 	0.4495	0.7152	0.76	-0.049
Mof_C 	C 	0.4054	0.8036	0.7367	-0.238
Mof_H 	H 	0.4639	0.829	0.7334	0.115
Mof_C 	C 	0.321	0.8321	0.725	0.181
Mof_C 	C 	0.2363	0.7925	0.7312	-0.267
Mof_C 	C 	0.2328	0.7279	0.7464	0.185
Mof_H 	H 	0.177	0.6962	0.7493	-0.022
Mof_C 	C 	0.3357	0.8964	0.7071	-0.102
Mof_C 	C 	0.3784	0.9799	0.709	0.146
Mof_H 	H 	0.4008	0.9985	0.7222	0.007
Mof_C 	C 	0.39	0.0385	0.6921	-0.205
Mof_H 	H 	0.4253	0.0932	0.6935	0.081
Mof_C 	C 	0.3505	0.017	0.6736	-0.055
Mof_H 	H 	0.3581	0.0586	0.6624	0.015
Mof_C 	C 	0.2984	0.9358	0.6705	0.004
Mof_C 	C 	0.2917	0.8822	0.6875	0.016
Mof_H 	H 	0.2536	0.8292	0.6864	0.026
Mof_C 	C 	0.2476	0.9155	0.6516	0.148
Mof_C 	C 	0.2939	0.9003	0.6311	-0.191
Mof_H 	H 	0.3587	0.9064	0.6296	0.104
Mof_C 	C 	0.239	0.8773	0.6148	0.125
Mof_H 	H 	0.269	0.8695	0.6019	0.005
Mof_C 	C 	0.1457	0.8643	0.615	-0.178
Mof_C 	C 	0.0992	0.8778	0.6339	0.158
Mof_H 	H 	0.0347	0.8678	0.635	-0.036
Mof_C 	C 	0.1527	0.9072	0.6515	-0.263
Mof_C 	C 	0.3026	0.6317	0.7754	0.47
Mof_C 	C 	0.142	0.8187	0.721	0.601
Mof_C 	C 	0.099	0.9281	0.6723	0.704
Mof_C 	C 	0.094	0.8409	0.596	0.322
Mof_Eu	Eu	0.5192	0.77796	0.18826	2.315
Mof_O 	O 	0.591	0.6259	0.2156	-0.696
Mof_O 	O 	0.6166	0.7811	0.2168	-0.555
Mof_O 	O 	0.7555	0.905	0.2852	-0.504
Mof_O 	O 	0.9049	0.8774	0.2792	-0.508
Mof_O 	O 	0.8685	0.9552	0.32108	-0.623
Mof_O 	O 	0.0023	0.8864	0.31961	-0.592
Mof_O 	O 	0.8214	0.8637	0.4211	-0.367
Mof_O 	O 	0.8232	0.9982	0.40194	-0.404
Mof_O 	O 	0.4882	0.9245	0.2013	-0.567
Mof_C 	C 	0.7078	0.6837	0.2416	-0.243
Mof_C 	C 	0.7373	0.6038	0.2469	0.172
Mof_H 	H 	0.7152	0.5505	0.24	-0.039
Mof_C 	C 	0.8036	0.5946	0.2633	-0.214
Mof_H 	H 	0.829	0.5361	0.2666	0.107
Mof_C 	C 	0.8321	0.679	0.275	0.153
Mof_C 	C 	0.7925	0.7637	0.2688	-0.225
Mof_C 	C 	0.7279	0.7672	0.2536	0.156
Mof_H 	H 	0.6962	0.823	0.2507	0.01
Mof_C 	C 	0.8964	0.6643	0.2929	-0.069
Mof_C 	C 	0.9799	0.6216	0.291	0.111
Mof_H 	H 	0.9985	0.5992	0.2778	0.019
Mof_C 	C 	0.0385	0.61	0.3079	-0.17
Mof_H 	H 	0.0932	0.5747	0.3065	0.068
Mof_C 	C 	0.017	0.6495	0.3264	-0.09
Mof_H 	H 	0.0586	0.6419	0.3376	0.03
Mof_C 	C 	0.9358	0.7016	0.3295	0.043
Mof_C 	C 	0.8822	0.7083	0.3125	-0.022
Mof_H 	H 	0.8292	0.7464	0.3136	0.043
Mof_C 	C 	0.9155	0.7524	0.3484	0.107
Mof_C 	C 	0.9003	0.7061	0.3689	-0.149
Mof_H 	H 	0.9064	0.6413	0.3704	0.09
Mof_C 	C 	0.8773	0.761	0.3852	0.085
Mof_H 	H 	0.8695	0.731	0.3981	0.02
Mof_C 	C 	0.8643	0.8543	0.385	-0.13
Mof_C 	C 	0.8778	0.9008	0.3661	0.115
Mof_H 	H 	0.8678	0.9653	0.365	0.02
Mof_C 	C 	0.9072	0.8473	0.3485	-0.199
Mof_C 	C 	0.6317	0.6974	0.2246	0.463
Mof_C 	C 	0.8187	0.858	0.279	0.551
Mof_C 	C 	0.9281	0.901	0.3277	0.639
Mof_C 	C 	0.8409	0.906	0.404	0.303
Mof_Eu	Eu	0.0192	0.27796	0.68826	1.946
Mof_O 	O 	0.091	0.1259	0.7156	-0.641
Mof_O 	O 	0.1166	0.2811	0.7168	-0.54
Mof_O 	O 	0.2555	0.405	0.7852	-0.591
Mof_O 	O 	0.4049	0.3774	0.7792	-0.643
Mof_O 	O 	0.3685	0.4552	0.82108	-0.708
Mof_O 	O 	0.5023	0.3864	0.81961	-0.574
Mof_O 	O 	0.3214	0.3637	0.9211	-0.412
Mof_O 	O 	0.3232	0.4982	0.90194	-0.488
Mof_O 	O 	0.9882	0.4245	0.7013	-0.503
Mof_C 	C 	0.2078	0.1837	0.7416	-0.248
Mof_C 	C 	0.2373	0.1038	0.7469	0.157
Mof_H 	H 	0.2152	0.0505	0.74	-0.055
Mof_C 	C 	0.3036	0.0946	0.7633	-0.219
Mof_H 	H 	0.329	0.0361	0.7666	0.076
Mof_C 	C 	0.3321	0.179	0.775	0.135
Mof_C 	C 	0.2925	0.2637	0.7688	-0.255
Mof_C 	C 	0.2279	0.2672	0.7536	0.157
Mof_H 	H 	0.1962	0.323	0.7507	-0.014
Mof_C 	C 	0.3964	0.1643	0.7929	-0.051
Mof_C 	C 	0.4799	0.1216	0.791	-0.03
Mof_H 	H 	0.4985	0.0992	0.7778	0.021
Mof_C 	C 	0.5385	0.11	0.8079	-0.066
Mof_H 	H 	0.5932	0.0747	0.8065	0.027
Mof_C 	C 	0.517	0.1495	0.8264	-0.031
Mof_H 	H 	0.5586	0.1419	0.8376	0.02
Mof_C 	C 	0.4358	0.2016	0.8295	-0.045
Mof_C 	C 	0.3822	0.2083	0.8125	-0.02
Mof_H 	H 	0.3292	0.2464	0.8136	0.034
Mof_C 	C 	0.4155	0.2524	0.8484	0.119
Mof_C 	C 	0.4003	0.2061	0.8689	-0.182
Mof_H 	H 	0.4064	0.1413	0.8704	0.071
Mof_C 	C 	0.3773	0.261	0.8852	0.098
Mof_H 	H 	0.3695	0.231	0.8981	-0.003
Mof_C 	C 	0.3643	0.3543	0.885	-0.16
Mof_C 	C 	0.3778	0.4008	0.8661	0.119
Mof_H 	H 	0.3678	0.4653	0.865	-0.012
Mof_C 	C 	0.4072	0.3473	0.8485	-0.219
Mof_C 	C 	0.1317	0.1974	0.7246	0.427
Mof_C 	C 	0.3187	0.358	0.779	0.604
Mof_C 	C 	0.4281	0.401	0.8277	0.569
Mof_C 	C 	0.3409	0.406	0.904	0.305
Mof_Eu	Eu	0.4808	0.22204	0.18826	2.253
Mof_O 	O 	0.409	0.3741	0.2156	-0.698
Mof_O 	O 	0.3834	0.2189	0.2168	-0.577
Mof_O 	O 	0.2445	0.095	0.2852	-0.64
Mof_O 	O 	0.0951	0.1226	0.2792	-0.626
Mof_O 	O 	0.1315	0.0448	0.32108	-0.733
Mof_O 	O 	0.9977	0.1136	0.31961	-0.446
Mof_O 	O 	0.1786	0.1363	0.4211	-0.448
Mof_O 	O 	0.1768	0.0018	0.40194	-0.565
Mof_O 	O 	0.5118	0.0755	0.2013	-0.637
Mof_C 	C 	0.2922	0.3163	0.2416	-0.263
Mof_C 	C 	0.2627	0.3962	0.2469	0.173
Mof_H 	H 	0.2848	0.4495	0.24	-0.042
Mof_C 	C 	0.1964	0.4054	0.2633	-0.215
Mof_H 	H 	0.171	0.4639	0.2666	0.092
Mof_C 	C 	0.1679	0.321	0.275	0.121
Mof_C 	C 	0.2075	0.2363	0.2688	-0.26
Mof_C 	C 	0.2721	0.2328	0.2536	0.167
Mof_H 	H 	0.3038	0.177	0.2507	-0.021
Mof_C 	C 	0.1036	0.3357	0.2929	-0.006
Mof_C 	C 	0.0201	0.3784	0.291	-0.172
Mof_H 	H 	0.0015	0.4008	0.2778	0.053
Mof_C 	C 	0.9615	0.39	0.3079	0.069
Mof_H 	H 	0.9068	0.4253	0.3065	0.012
Mof_C 	C 	0.983	0.3505	0.3264	0.03
Mof_H 	H 	0.9414	0.3581	0.3376	0.028
Mof_C 	C 	0.0642	0.2984	0.3295	-0.114
Mof_C 	C 	0.1178	0.2917	0.3125	-0.022
Mof_H 	H 	0.1708	0.2536	0.3136	0.039
Mof_C 	C 	0.0845	0.2476	0.3484	0.132
Mof_C 	C 	0.0997	0.2939	0.3689	-0.207
Mof_H 	H 	0.0936	0.3587	0.3704	0.08
Mof_C 	C 	0.1227	0.239	0.3852	0.111
Mof_H 	H 	0.1305	0.269	0.3981	-0.01
Mof_C 	C 	0.1357	0.1457	0.385	-0.183
Mof_C 	C 	0.1222	0.0992	0.3661	0.12
Mof_H 	H 	0.1322	0.0347	0.365	-0.041
Mof_C 	C 	0.0928	0.1527	0.3485	-0.232
Mof_C 	C 	0.3683	0.3026	0.2246	0.464
Mof_C 	C 	0.1813	0.142	0.279	0.602
Mof_C 	C 	0.0719	0.099	0.3277	0.474
Mof_C 	C 	0.1591	0.094	0.404	0.309
Mof_Eu	Eu	0.9808	0.72204	0.68826	2.616
Mof_O 	O 	0.909	0.8741	0.7156	-0.587
Mof_O 	O 	0.8834	0.7189	0.7168	-0.573
Mof_O 	O 	0.7445	0.595	0.7852	-0.583
Mof_O 	O 	0.5951	0.6226	0.7792	-0.642
Mof_O 	O 	0.6315	0.5448	0.82108	-0.713
Mof_O 	O 	0.4977	0.6136	0.81961	-0.575
Mof_O 	O 	0.6786	0.6363	0.9211	-0.408
Mof_O 	O 	0.6768	0.5018	0.90194	-0.49
Mof_O 	O 	0.0118	0.5755	0.7013	-0.697
Mof_C 	C 	0.7922	0.8163	0.7416	-0.217
Mof_C 	C 	0.7627	0.8962	0.7469	0.154
Mof_H 	H 	0.7848	0.9495	0.74	0.001
Mof_C 	C 	0.6964	0.9054	0.7633	-0.191
Mof_H 	H 	0.671	0.9639	0.7666	0.118
Mof_C 	C 	0.6679	0.821	0.775	0.138
Mof_C 	C 	0.7075	0.7363	0.7688	-0.241
Mof_C 	C 	0.7721	0.7328	0.7536	0.155
Mof_H 	H 	0.8038	0.677	0.7507	0.005
Mof_C 	C 	0.6036	0.8357	0.7929	-0.028
Mof_C 	C 	0.5201	0.8784	0.791	-0.028
Mof_H 	H 	0.5015	0.9008	0.7778	0.049
Mof_C 	C 	0.4615	0.89	0.8079	-0.041
Mof_H 	H 	0.4068	0.9253	0.8065	0.056
Mof_C 	C 	0.483	0.8505	0.8264	-0.028
Mof_H 	H 	0.4414	0.8581	0.8376	0.037
Mof_C 	C 	0.5642	0.7984	0.8295	-0.029
Mof_C 	C 	0.6178	0.7917	0.8125	-0.02
Mof_H 	H 	0.6708	0.7536	0.8136	0.044
Mof_C 	C 	0.5845	0.7476	0.8484	0.126
Mof_C 	C 	0.5997	0.7939	0.8689	-0.18
Mof_H 	H 	0.5936	0.8587	0.8704	0.1
Mof_C 	C 	0.6227	0.739	0.8852	0.103
Mof_H 	H 	0.6305	0.769	0.8981	0.009
Mof_C 	C 	0.6357	0.6457	0.885	-0.16
Mof_C 	C 	0.6222	0.5992	0.8661	0.121
Mof_H 	H 	0.6322	0.5347	0.865	-0.013
Mof_C 	C 	0.5928	0.6527	0.8485	-0.222
Mof_C 	C 	0.8683	0.8026	0.7246	0.441
Mof_C 	C 	0.6813	0.642	0.779	0.602
Mof_C 	C 	0.5719	0.599	0.8277	0.572
Mof_C 	C 	0.6591	0.594	0.904	0.304
Mof_Eu	Eu	0.5	0	0.4598	2.273
Mof_Eu	Eu	-7.83946e-32	0.5	0.9598	2.285
Mof_Eu	Eu	9.04998e-33	0.5	0.5402	2.273
Mof_Eu	Eu	0.5	1.96821e-33	0.0402	2.285
Mof_Eu	Eu	-1.0884e-32	-1.57457e-32	0.2902	2.028
Mof_Eu	Eu	0.5	0.5	0.7902	2.532
Mof_Eu	Eu	0.5	0.5	0.2098	2.532
Mof_Eu	Eu	1.18913e-32	0	0.7098	2.028
Mof_C 	C 	7.42159e-33	0	0.443	0.494
Mof_H 	H 	-8.57037e-33	-1.57457e-32	0.4283	-0.261
Mof_C 	C 	0.5	0.5	0.943	0.818
Mof_H 	H 	0.5	0.5	0.9283	-0.313
Mof_C 	C 	4.08228e-32	3.14914e-32	0.557	0.478
Mof_H 	H 	9.5777e-33	0	0.5717	-0.256
Mof_C 	C 	0.5	0.5	0.057	0.818
Mof_H 	H 	0.5	0.5	0.0717	-0.313
Mof_C 	C 	0.5	0	0.307	0.649
Mof_H 	H 	0.5	-1.57457e-32	0.3217	-0.286
Mof_C 	C 	-1.79717e-32	0.5	0.807	0.652
Mof_H 	H 	-1.77254e-32	0.5	0.8217	-0.286
Mof_C 	C 	0.5	7.87284e-33	0.193	0.651
Mof_H 	H 	0.5	0	0.1783	-0.285
Mof_C 	C 	1.16098e-32	0.5	0.693	0.646
Mof_H 	H 	-2.01278e-32	0.5	0.6783	-0.285
_end
