data_functionalizedCrystal
_audit_creation_method	'EQeq! by Chris Wilmer'
_symmetry_space_group_name_H-M	'P1'
_symmetry_Int_Tables_number	1
_symmetry_cell_setting	triclinic
loop_
_symmetry_equiv_pos_as_xyz
  x,y,z
_cell_length_a	9.8442
_cell_length_b	10.8795
_cell_length_c	29.2288
_cell_angle_alpha	90
_cell_angle_beta	90
_cell_angle_gamma	92.177
loop_
_atom_site_label
_atom_site_type_symbol
_atom_site_fract_x
_atom_site_fract_y
_atom_site_fract_z
_atom_site_charge
Mof_Er	Er	0.54517	0.04156	0.91851	1.862
Mof_Er	Er	0.54026	0.26342	0.74846	1.64
Mof_Er	Er	0.45483	0.45844	0.41851	1.868
Mof_Er	Er	0.45974	0.23658	0.24846	1.643
Mof_Er	Er	0.45483	0.95844	0.08149	1.862
Mof_Er	Er	0.45974	0.73658	0.25154	1.64
Mof_Er	Er	0.54517	0.54156	0.58149	1.868
Mof_Er	Er	0.54026	0.76342	0.75154	1.643
Mof_H 	H 	0.8659	0.8932	0.7132	0.011
Mof_H 	H 	0.094	0.8451	0.7093	0.055
Mof_H 	H 	0.22	0.1626	0.893	0.015
Mof_H 	H 	0.9867	0.1645	0.9076	0.055
Mof_H 	H 	0.9431	0.6894	0.9826	0.043
Mof_H 	H 	0.1752	0.7354	0.9872	0.031
Mof_H 	H 	0.1341	0.6068	0.2132	0.007
Mof_H 	H 	0.906	0.6549	0.2093	0.055
Mof_H 	H 	0.78	0.3374	0.393	0.013
Mof_H 	H 	0.0133	0.3355	0.4076	0.061
Mof_H 	H 	0.0569	0.8106	0.4826	0.044
Mof_H 	H 	0.8248	0.7646	0.4872	0.03
Mof_H 	H 	0.1341	0.1068	0.2868	0.01
Mof_H 	H 	0.906	0.1549	0.2907	0.054
Mof_H 	H 	0.78	0.8374	0.107	0.015
Mof_H 	H 	0.0133	0.8355	0.0924	0.055
Mof_H 	H 	0.0569	0.3106	0.0174	0.043
Mof_H 	H 	0.8248	0.2646	0.0128	0.031
Mof_H 	H 	0.8659	0.3932	0.7868	0.007
Mof_H 	H 	0.094	0.3451	0.7907	0.055
Mof_H 	H 	0.22	0.6626	0.607	0.013
Mof_H 	H 	0.9867	0.6645	0.5924	0.061
Mof_H 	H 	0.9431	0.1894	0.5174	0.044
Mof_H 	H 	0.1752	0.2354	0.5128	0.03
Mof_C 	C 	0.9248	0.0874	0.84871	-0.084
Mof_C 	C 	0.9691	0.0323	0.80702	0.046
Mof_C 	C 	0.879	0.9905	0.77145	-0.146
Mof_C 	C 	0.926	0.922	0.73567	0.017
Mof_C 	C 	0.0645	0.895	0.73282	-0.04
Mof_C 	C 	0.157	0.9414	0.76429	-0.088
Mof_C 	C 	0.1119	0.0168	0.80113	0.071
Mof_C 	C 	0.2054	0.0751	0.83274	-0.17
Mof_C 	C 	0.1587	0.1285	0.87188	0.036
Mof_C 	C 	0.0173	0.1317	0.88026	-0.04
Mof_C 	C 	0.7811	0.0791	0.86496	0.327
Mof_C 	C 	0.733	0.0291	0.76708	0.471
Mof_C 	C 	0.3535	0.0991	0.82227	0.51
Mof_C 	C 	0.2982	0.8953	0.76138	0.344
Mof_C 	C 	0.8816	0.8613	0.98931	-0.118
Mof_C 	C 	0.9738	0.7706	0.98633	-0.016
Mof_C 	C 	0.1141	0.7984	0.98888	0.002
Mof_C 	C 	0.1614	0.9169	0.99382	-0.14
Mof_C 	C 	0.9282	0.9858	0.99883	0.066
Mof_C 	C 	0.737	0.8271	0.97647	0.414
Mof_C 	C 	0.3112	0.9408	0.98583	0.44
Mof_C 	C 	0.0752	0.4126	0.34871	-0.083
Mof_C 	C 	0.0309	0.4677	0.30702	0.059
Mof_C 	C 	0.121	0.5095	0.27145	-0.164
Mof_C 	C 	0.074	0.578	0.23567	0.021
Mof_C 	C 	0.9355	0.605	0.23282	-0.04
Mof_C 	C 	0.843	0.5586	0.26429	-0.089
Mof_C 	C 	0.8881	0.4832	0.30113	0.068
Mof_C 	C 	0.7946	0.4249	0.33274	-0.17
Mof_C 	C 	0.8413	0.3715	0.37188	0.04
Mof_C 	C 	0.9827	0.3683	0.38026	-0.049
Mof_C 	C 	0.2189	0.4209	0.36496	0.334
Mof_C 	C 	0.267	0.4709	0.26708	0.488
Mof_C 	C 	0.6465	0.4009	0.32227	0.511
Mof_C 	C 	0.7018	0.6047	0.26138	0.343
Mof_C 	C 	0.1184	0.6387	0.48931	-0.117
Mof_C 	C 	0.0262	0.7294	0.48633	-0.022
Mof_C 	C 	0.8859	0.7016	0.48888	0.006
Mof_C 	C 	0.8386	0.5831	0.49382	-0.139
Mof_C 	C 	0.0718	0.5142	0.49883	0.063
Mof_C 	C 	0.263	0.6729	0.47647	0.413
Mof_C 	C 	0.6888	0.5592	0.48583	0.438
Mof_C 	C 	0.0752	0.9126	0.15129	-0.084
Mof_C 	C 	0.0309	0.9677	0.19298	0.046
Mof_C 	C 	0.121	0.0095	0.22855	-0.146
Mof_C 	C 	0.074	0.078	0.26433	0.017
Mof_C 	C 	0.9355	0.105	0.26718	-0.04
Mof_C 	C 	0.843	0.0586	0.23571	-0.088
Mof_C 	C 	0.8881	0.9832	0.19887	0.071
Mof_C 	C 	0.7946	0.9249	0.16726	-0.17
Mof_C 	C 	0.8413	0.8715	0.12812	0.036
Mof_C 	C 	0.9827	0.8683	0.11974	-0.04
Mof_C 	C 	0.2189	0.9209	0.13504	0.327
Mof_C 	C 	0.267	0.9709	0.23292	0.471
Mof_C 	C 	0.6465	0.9009	0.17773	0.51
Mof_C 	C 	0.7018	0.1047	0.23862	0.344
Mof_C 	C 	0.1184	0.1387	0.01069	-0.118
Mof_C 	C 	0.0262	0.2294	0.01367	-0.016
Mof_C 	C 	0.8859	0.2016	0.01112	0.002
Mof_C 	C 	0.8386	0.0831	0.00618	-0.14
Mof_C 	C 	0.0718	0.0142	0.00117	0.066
Mof_C 	C 	0.263	0.1729	0.02353	0.414
Mof_C 	C 	0.6888	0.0592	0.01417	0.44
Mof_C 	C 	0.9248	0.5874	0.65129	-0.083
Mof_C 	C 	0.9691	0.5323	0.69298	0.059
Mof_C 	C 	0.879	0.4905	0.72855	-0.164
Mof_C 	C 	0.926	0.422	0.76433	0.021
Mof_C 	C 	0.0645	0.395	0.76718	-0.04
Mof_C 	C 	0.157	0.4414	0.73571	-0.089
Mof_C 	C 	0.1119	0.5168	0.69887	0.068
Mof_C 	C 	0.2054	0.5751	0.66726	-0.17
Mof_C 	C 	0.1587	0.6285	0.62812	0.04
Mof_C 	C 	0.0173	0.6317	0.61974	-0.049
Mof_C 	C 	0.7811	0.5791	0.63504	0.334
Mof_C 	C 	0.733	0.5291	0.73292	0.488
Mof_C 	C 	0.3535	0.5991	0.67773	0.511
Mof_C 	C 	0.2982	0.3953	0.73862	0.343
Mof_C 	C 	0.8816	0.3613	0.51069	-0.117
Mof_C 	C 	0.9738	0.2706	0.51367	-0.022
Mof_C 	C 	0.1141	0.2984	0.51112	0.006
Mof_C 	C 	0.1614	0.4169	0.50618	-0.139
Mof_C 	C 	0.9282	0.4858	0.50117	0.063
Mof_C 	C 	0.737	0.3271	0.52353	0.413
Mof_C 	C 	0.3112	0.4408	0.51417	0.438
Mof_O 	O 	0.7121	0.1407	0.77251	-0.514
Mof_O 	O 	0.6436	0.9507	0.75494	-0.545
Mof_O 	O 	0.7079	0.9844	0.85831	-0.413
Mof_O 	O 	0.7359	0.1642	0.89045	-0.426
Mof_O 	O 	0.3839	0.1304	0.78221	-0.506
Mof_O 	O 	0.4378	0.0963	0.85442	-0.567
Mof_O 	O 	0.3554	0.8887	0.72276	-0.403
Mof_O 	O 	0.3554	0.854	0.7963	-0.421
Mof_O 	O 	0.6776	0.8993	0.94987	-0.502
Mof_O 	O 	0.6854	0.7274	0.99068	-0.293
Mof_O 	O 	0.394	0.8838	0.00988	-0.504
Mof_O 	O 	0.3414	0.0141	0.95385	-0.518
Mof_O 	O 	0.2879	0.3593	0.27251	-0.517
Mof_O 	O 	0.3564	0.5493	0.25494	-0.553
Mof_O 	O 	0.2921	0.5156	0.35831	-0.42
Mof_O 	O 	0.2641	0.3358	0.39045	-0.427
Mof_O 	O 	0.6161	0.3696	0.28221	-0.505
Mof_O 	O 	0.5622	0.4037	0.35442	-0.567
Mof_O 	O 	0.6446	0.6113	0.22276	-0.403
Mof_O 	O 	0.6446	0.646	0.2963	-0.421
Mof_O 	O 	0.3224	0.6007	0.44987	-0.504
Mof_O 	O 	0.3146	0.7726	0.49068	-0.294
Mof_O 	O 	0.606	0.6162	0.50988	-0.504
Mof_O 	O 	0.6586	0.4859	0.45385	-0.518
Mof_O 	O 	0.2879	0.8593	0.22749	-0.514
Mof_O 	O 	0.3564	0.0493	0.24506	-0.545
Mof_O 	O 	0.2921	0.0156	0.14169	-0.413
Mof_O 	O 	0.2641	0.8358	0.10955	-0.426
Mof_O 	O 	0.6161	0.8696	0.21779	-0.506
Mof_O 	O 	0.5622	0.9037	0.14558	-0.567
Mof_O 	O 	0.6446	0.1113	0.27724	-0.403
Mof_O 	O 	0.6446	0.146	0.2037	-0.421
Mof_O 	O 	0.3224	0.1007	0.05013	-0.502
Mof_O 	O 	0.3146	0.2726	0.00932	-0.293
Mof_O 	O 	0.606	0.1162	0.99012	-0.504
Mof_O 	O 	0.6586	0.9859	0.04615	-0.518
Mof_O 	O 	0.7121	0.6407	0.72749	-0.517
Mof_O 	O 	0.6436	0.4507	0.74506	-0.553
Mof_O 	O 	0.7079	0.4844	0.64169	-0.42
Mof_O 	O 	0.7359	0.6642	0.60955	-0.427
Mof_O 	O 	0.3839	0.6304	0.71779	-0.505
Mof_O 	O 	0.4378	0.5963	0.64558	-0.567
Mof_O 	O 	0.3554	0.3887	0.77724	-0.403
Mof_O 	O 	0.3554	0.354	0.7037	-0.421
Mof_O 	O 	0.6776	0.3993	0.55013	-0.504
Mof_O 	O 	0.6854	0.2274	0.50932	-0.294
Mof_O 	O 	0.394	0.3838	0.49012	-0.504
Mof_O 	O 	0.3414	0.5141	0.54615	-0.518
_end
