data_functionalizedCrystal
_audit_creation_method	'EQeq! by Chris Wilmer'
_symmetry_space_group_name_H-M	'P1'
_symmetry_Int_Tables_number	1
_symmetry_cell_setting	triclinic
loop_
_symmetry_equiv_pos_as_xyz
  x,y,z
_cell_length_a	18.4898
_cell_length_b	18.4898
_cell_length_c	38.7266
_cell_angle_alpha	90
_cell_angle_beta	90
_cell_angle_gamma	120
loop_
_atom_site_label
_atom_site_type_symbol
_atom_site_fract_x
_atom_site_fract_y
_atom_site_fract_z
_atom_site_charge
Mof_O 	O 	0.4436	0.148	0.16927	-0.396
Mof_O 	O 	0.3625	0.107	0.1221	-0.394
Mof_C 	C 	0.4249	0.1189	0.1391	0.362
Mof_C 	C 	0.4838	0.0967	0.12229	-0.071
Mof_C 	C 	0.4685	0.0666	0.0883	-0.001
Mof_H 	H 	0.4202	0.0574	0.077	0.071
Mof_C 	C 	0.5769	0.0639	0.0109	-0.047
Mof_H 	H 	0.632	0.111	0.013	0.068
Mof_C 	C 	0.4385	0.9608	0.0239	-0.086
Mof_N 	N 	0.361	0.9005	0.0479	-0.097
Mof_O 	O 	0.2948	0.882	0.0391	-0.091
Mof_O 	O 	0.38	0.8838	0.0742	-0.046
Mof_H 	H 	0.3817	0.92	0.0291	0.183
Mof_O 	O 	0.11027	0.48133	0.5026	-0.396
Mof_O 	O 	0.02917	0.44033	0.45543	-0.395
Mof_C 	C 	0.09157	0.45223	0.47243	0.361
Mof_C 	C 	0.15047	0.43003	0.45562	-0.072
Mof_C 	C 	0.13517	0.39993	0.42163	-0.002
Mof_H 	H 	0.08687	0.39073	0.41033	0.07
Mof_C 	C 	0.24357	0.39723	0.34423	-0.047
Mof_H 	H 	0.29867	0.44433	0.34633	0.067
Mof_C 	C 	0.10517	0.29413	0.35723	-0.088
Mof_N 	N 	0.02767	0.23383	0.38123	-0.098
Mof_O 	O 	0.96147	0.21533	0.37243	-0.092
Mof_O 	O 	0.04667	0.21713	0.40753	-0.047
Mof_H 	H 	0.04837	0.25333	0.36243	0.182
Mof_O 	O 	0.77693	0.81467	0.83594	-0.397
Mof_O 	O 	0.69583	0.77367	0.78877	-0.395
Mof_C 	C 	0.75823	0.78557	0.80577	0.361
Mof_C 	C 	0.81713	0.76337	0.78896	-0.072
Mof_C 	C 	0.80183	0.73327	0.75497	-0.002
Mof_H 	H 	0.75353	0.72407	0.74367	0.07
Mof_C 	C 	0.91023	0.73057	0.67757	-0.047
Mof_H 	H 	0.96533	0.77767	0.67967	0.067
Mof_C 	C 	0.77183	0.62747	0.69057	-0.088
Mof_N 	N 	0.69433	0.56717	0.71457	-0.098
Mof_O 	O 	0.62813	0.54867	0.70577	-0.092
Mof_O 	O 	0.71333	0.55047	0.74087	-0.047
Mof_H 	H 	0.71503	0.58667	0.69577	0.182
Mof_O 	O 	0.852	0.2956	0.16927	-0.397
Mof_O 	O 	0.893	0.2555	0.1221	-0.395
Mof_C 	C 	0.8811	0.306	0.1391	0.361
Mof_C 	C 	0.9033	0.3871	0.12229	-0.072
Mof_C 	C 	0.9334	0.4019	0.0883	-0.002
Mof_H 	H 	0.9426	0.3628	0.077	0.07
Mof_C 	C 	0.9361	0.513	0.0109	-0.048
Mof_H 	H 	0.889	0.521	0.013	0.067
Mof_C 	C 	0.0392	0.4777	0.0239	-0.087
Mof_N 	N 	0.0995	0.4605	0.0479	-0.098
Mof_O 	O 	0.118	0.4128	0.0391	-0.092
Mof_O 	O 	0.1162	0.4962	0.0742	-0.047
Mof_H 	H 	0.08	0.4617	0.0291	0.182
Mof_O 	O 	0.51867	0.62893	0.5026	-0.397
Mof_O 	O 	0.55967	0.58883	0.45543	-0.395
Mof_C 	C 	0.54777	0.63933	0.47243	0.361
Mof_C 	C 	0.56997	0.72043	0.45562	-0.072
Mof_C 	C 	0.60007	0.73523	0.42163	-0.002
Mof_H 	H 	0.60927	0.69613	0.41033	0.07
Mof_C 	C 	0.60277	0.84633	0.34423	-0.047
Mof_H 	H 	0.55567	0.85433	0.34633	0.067
Mof_C 	C 	0.70587	0.81103	0.35723	-0.088
Mof_N 	N 	0.76617	0.79383	0.38123	-0.098
Mof_O 	O 	0.78467	0.74613	0.37243	-0.092
Mof_O 	O 	0.78287	0.82953	0.40753	-0.047
Mof_H 	H 	0.74667	0.79503	0.36243	0.182
Mof_O 	O 	0.18533	0.96227	0.83594	-0.397
Mof_O 	O 	0.22633	0.92217	0.78877	-0.395
Mof_C 	C 	0.21443	0.97267	0.80577	0.361
Mof_C 	C 	0.23663	0.05377	0.78896	-0.071
Mof_C 	C 	0.26673	0.06857	0.75497	-0.003
Mof_H 	H 	0.27593	0.02947	0.74367	0.07
Mof_C 	C 	0.26943	0.17967	0.67757	-0.047
Mof_H 	H 	0.22233	0.18767	0.67967	0.067
Mof_C 	C 	0.37253	0.14437	0.69057	-0.088
Mof_N 	N 	0.43283	0.12717	0.71457	-0.098
Mof_O 	O 	0.45133	0.07947	0.70577	-0.092
Mof_O 	O 	0.44953	0.16287	0.74087	-0.047
Mof_H 	H 	0.41333	0.12837	0.69577	0.182
Mof_O 	O 	0.7044	0.5564	0.16927	-0.397
Mof_O 	O 	0.7445	0.6375	0.1221	-0.395
Mof_C 	C 	0.694	0.5751	0.1391	0.361
Mof_C 	C 	0.6129	0.5162	0.12229	-0.072
Mof_C 	C 	0.5981	0.5315	0.0883	-0.002
Mof_H 	H 	0.6372	0.5798	0.077	0.07
Mof_C 	C 	0.487	0.4231	0.0109	-0.047
Mof_H 	H 	0.479	0.368	0.013	0.067
Mof_C 	C 	0.5223	0.5615	0.0239	-0.088
Mof_N 	N 	0.5395	0.639	0.0479	-0.098
Mof_O 	O 	0.5872	0.7052	0.0391	-0.092
Mof_O 	O 	0.5038	0.62	0.0742	-0.047
Mof_H 	H 	0.5383	0.6183	0.0291	0.182
Mof_O 	O 	0.37107	0.88973	0.5026	-0.397
Mof_O 	O 	0.41117	0.97083	0.45543	-0.395
Mof_C 	C 	0.36067	0.90843	0.47243	0.361
Mof_C 	C 	0.27957	0.84953	0.45562	-0.072
Mof_C 	C 	0.26477	0.86483	0.42163	-0.002
Mof_H 	H 	0.30387	0.91313	0.41033	0.07
Mof_C 	C 	0.15367	0.75643	0.34423	-0.047
Mof_H 	H 	0.14567	0.70133	0.34633	0.067
Mof_C 	C 	0.18897	0.89483	0.35723	-0.088
Mof_N 	N 	0.20617	0.97233	0.38123	-0.098
Mof_O 	O 	0.25387	0.03853	0.37243	-0.092
Mof_O 	O 	0.17047	0.95333	0.40753	-0.047
Mof_H 	H 	0.20497	0.95163	0.36243	0.182
Mof_O 	O 	0.03773	0.22307	0.83594	-0.397
Mof_O 	O 	0.07783	0.30417	0.78877	-0.395
Mof_C 	C 	0.02733	0.24177	0.80577	0.361
Mof_C 	C 	0.94623	0.18287	0.78896	-0.071
Mof_C 	C 	0.93143	0.19817	0.75497	-0.003
Mof_H 	H 	0.97053	0.24647	0.74367	0.07
Mof_C 	C 	0.82033	0.08977	0.67757	-0.047
Mof_H 	H 	0.81233	0.03467	0.67967	0.067
Mof_C 	C 	0.85563	0.22817	0.69057	-0.088
Mof_N 	N 	0.87283	0.30567	0.71457	-0.098
Mof_O 	O 	0.92053	0.37187	0.70577	-0.092
Mof_O 	O 	0.83713	0.28667	0.74087	-0.047
Mof_H 	H 	0.87163	0.28497	0.69577	0.182
Mof_O 	O 	0.148	0.4436	0.83073	-0.397
Mof_O 	O 	0.107	0.3625	0.8779	-0.395
Mof_C 	C 	0.1189	0.4249	0.8609	0.361
Mof_C 	C 	0.0967	0.4838	0.87771	-0.072
Mof_C 	C 	0.0666	0.4685	0.9117	-0.002
Mof_H 	H 	0.0574	0.4202	0.923	0.07
Mof_C 	C 	0.0639	0.5769	0.9891	-0.048
Mof_H 	H 	0.111	0.632	0.987	0.067
Mof_C 	C 	0.9608	0.4385	0.9761	-0.087
Mof_N 	N 	0.9005	0.361	0.9521	-0.098
Mof_O 	O 	0.882	0.2948	0.9609	-0.092
Mof_O 	O 	0.8838	0.38	0.9258	-0.047
Mof_H 	H 	0.92	0.3817	0.9709	0.182
Mof_O 	O 	0.81467	0.77693	0.16406	-0.397
Mof_O 	O 	0.77367	0.69583	0.21123	-0.395
Mof_C 	C 	0.78557	0.75823	0.19423	0.361
Mof_C 	C 	0.76337	0.81713	0.21104	-0.072
Mof_C 	C 	0.73327	0.80183	0.24503	-0.002
Mof_H 	H 	0.72407	0.75353	0.25633	0.07
Mof_C 	C 	0.73057	0.91023	0.32243	-0.047
Mof_H 	H 	0.77767	0.96533	0.32033	0.067
Mof_C 	C 	0.62747	0.77183	0.30943	-0.088
Mof_N 	N 	0.56717	0.69433	0.28543	-0.098
Mof_O 	O 	0.54867	0.62813	0.29423	-0.092
Mof_O 	O 	0.55047	0.71333	0.25913	-0.047
Mof_H 	H 	0.58667	0.71503	0.30423	0.182
Mof_O 	O 	0.48133	0.11027	0.4974	-0.397
Mof_O 	O 	0.44033	0.02917	0.54457	-0.395
Mof_C 	C 	0.45223	0.09157	0.52757	0.361
Mof_C 	C 	0.43003	0.15047	0.54438	-0.072
Mof_C 	C 	0.39993	0.13517	0.57837	-0.002
Mof_H 	H 	0.39073	0.08687	0.58967	0.07
Mof_C 	C 	0.39723	0.24357	0.65577	-0.047
Mof_H 	H 	0.44433	0.29867	0.65367	0.067
Mof_C 	C 	0.29413	0.10517	0.64277	-0.088
Mof_N 	N 	0.23383	0.02767	0.61877	-0.098
Mof_O 	O 	0.21533	0.96147	0.62757	-0.092
Mof_O 	O 	0.21713	0.04667	0.59247	-0.047
Mof_H 	H 	0.25333	0.04837	0.63757	0.182
Mof_O 	O 	0.2956	0.852	0.83073	-0.397
Mof_O 	O 	0.2555	0.893	0.8779	-0.395
Mof_C 	C 	0.306	0.8811	0.8609	0.361
Mof_C 	C 	0.3871	0.9033	0.87771	-0.072
Mof_C 	C 	0.4019	0.9334	0.9117	-0.002
Mof_H 	H 	0.3628	0.9426	0.923	0.07
Mof_C 	C 	0.513	0.9361	0.9891	-0.048
Mof_H 	H 	0.521	0.889	0.987	0.067
Mof_C 	C 	0.4777	0.0392	0.9761	-0.087
Mof_N 	N 	0.4605	0.0995	0.9521	-0.098
Mof_O 	O 	0.4128	0.118	0.9609	-0.092
Mof_O 	O 	0.4962	0.1162	0.9258	-0.047
Mof_H 	H 	0.4617	0.08	0.9709	0.182
Mof_O 	O 	0.96227	0.18533	0.16406	-0.397
Mof_O 	O 	0.92217	0.22633	0.21123	-0.395
Mof_C 	C 	0.97267	0.21443	0.19423	0.361
Mof_C 	C 	0.05377	0.23663	0.21104	-0.071
Mof_C 	C 	0.06857	0.26673	0.24503	-0.003
Mof_H 	H 	0.02947	0.27593	0.25633	0.07
Mof_C 	C 	0.17967	0.26943	0.32243	-0.047
Mof_H 	H 	0.18767	0.22233	0.32033	0.067
Mof_C 	C 	0.14437	0.37253	0.30943	-0.088
Mof_N 	N 	0.12717	0.43283	0.28543	-0.098
Mof_O 	O 	0.07947	0.45133	0.29423	-0.092
Mof_O 	O 	0.16287	0.44953	0.25913	-0.047
Mof_H 	H 	0.12837	0.41333	0.30423	0.182
Mof_O 	O 	0.62893	0.51867	0.4974	-0.397
Mof_O 	O 	0.58883	0.55967	0.54457	-0.395
Mof_C 	C 	0.63933	0.54777	0.52757	0.361
Mof_C 	C 	0.72043	0.56997	0.54438	-0.072
Mof_C 	C 	0.73523	0.60007	0.57837	-0.002
Mof_H 	H 	0.69613	0.60927	0.58967	0.07
Mof_C 	C 	0.84633	0.60277	0.65577	-0.047
Mof_H 	H 	0.85433	0.55567	0.65367	0.067
Mof_C 	C 	0.81103	0.70587	0.64277	-0.088
Mof_N 	N 	0.79383	0.76617	0.61877	-0.098
Mof_O 	O 	0.74613	0.78467	0.62757	-0.092
Mof_O 	O 	0.82953	0.78287	0.59247	-0.047
Mof_H 	H 	0.79503	0.74667	0.63757	0.182
Mof_O 	O 	0.5564	0.7044	0.83073	-0.397
Mof_O 	O 	0.6375	0.7445	0.8779	-0.395
Mof_C 	C 	0.5751	0.694	0.8609	0.361
Mof_C 	C 	0.5162	0.6129	0.87771	-0.072
Mof_C 	C 	0.5315	0.5981	0.9117	-0.002
Mof_H 	H 	0.5798	0.6372	0.923	0.07
Mof_C 	C 	0.4231	0.487	0.9891	-0.047
Mof_H 	H 	0.368	0.479	0.987	0.067
Mof_C 	C 	0.5615	0.5223	0.9761	-0.088
Mof_N 	N 	0.639	0.5395	0.9521	-0.098
Mof_O 	O 	0.7052	0.5872	0.9609	-0.092
Mof_O 	O 	0.62	0.5038	0.9258	-0.047
Mof_H 	H 	0.6183	0.5383	0.9709	0.182
Mof_O 	O 	0.22307	0.03773	0.16406	-0.397
Mof_O 	O 	0.30417	0.07783	0.21123	-0.395
Mof_C 	C 	0.24177	0.02733	0.19423	0.361
Mof_C 	C 	0.18287	0.94623	0.21104	-0.071
Mof_C 	C 	0.19817	0.93143	0.24503	-0.003
Mof_H 	H 	0.24647	0.97053	0.25633	0.07
Mof_C 	C 	0.08977	0.82033	0.32243	-0.047
Mof_H 	H 	0.03467	0.81233	0.32033	0.067
Mof_C 	C 	0.22817	0.85563	0.30943	-0.088
Mof_N 	N 	0.30567	0.87283	0.28543	-0.098
Mof_O 	O 	0.37187	0.92053	0.29423	-0.092
Mof_O 	O 	0.28667	0.83713	0.25913	-0.047
Mof_H 	H 	0.28497	0.87163	0.30423	0.182
Mof_O 	O 	0.88973	0.37107	0.4974	-0.397
Mof_O 	O 	0.97083	0.41117	0.54457	-0.395
Mof_C 	C 	0.90843	0.36067	0.52757	0.361
Mof_C 	C 	0.84953	0.27957	0.54438	-0.072
Mof_C 	C 	0.86483	0.26477	0.57837	-0.002
Mof_H 	H 	0.91313	0.30387	0.58967	0.07
Mof_C 	C 	0.75643	0.15367	0.65577	-0.047
Mof_H 	H 	0.70133	0.14567	0.65367	0.067
Mof_C 	C 	0.89483	0.18897	0.64277	-0.088
Mof_N 	N 	0.97233	0.20617	0.61877	-0.098
Mof_O 	O 	0.03853	0.25387	0.62757	-0.092
Mof_O 	O 	0.95333	0.17047	0.59247	-0.047
Mof_H 	H 	0.95163	0.20497	0.63757	0.182
Mof_O 	O 	0.5564	0.852	0.83073	-0.397
Mof_O 	O 	0.6375	0.893	0.8779	-0.395
Mof_C 	C 	0.5751	0.8811	0.8609	0.361
Mof_C 	C 	0.5162	0.9033	0.87771	-0.072
Mof_C 	C 	0.5315	0.9334	0.9117	-0.002
Mof_H 	H 	0.5798	0.9426	0.923	0.07
Mof_C 	C 	0.4231	0.9361	0.9891	-0.048
Mof_H 	H 	0.368	0.889	0.987	0.067
Mof_C 	C 	0.5615	0.0392	0.9761	-0.087
Mof_N 	N 	0.639	0.0995	0.9521	-0.098
Mof_O 	O 	0.7052	0.118	0.9609	-0.092
Mof_O 	O 	0.62	0.1162	0.9258	-0.047
Mof_H 	H 	0.6183	0.08	0.9709	0.182
Mof_O 	O 	0.22307	0.18533	0.16406	-0.397
Mof_O 	O 	0.30417	0.22633	0.21123	-0.395
Mof_C 	C 	0.24177	0.21443	0.19423	0.361
Mof_C 	C 	0.18287	0.23663	0.21104	-0.072
Mof_C 	C 	0.19817	0.26673	0.24503	-0.002
Mof_H 	H 	0.24647	0.27593	0.25633	0.07
Mof_C 	C 	0.08977	0.26943	0.32243	-0.047
Mof_H 	H 	0.03467	0.22233	0.32033	0.067
Mof_C 	C 	0.22817	0.37253	0.30943	-0.088
Mof_N 	N 	0.30567	0.43283	0.28543	-0.098
Mof_O 	O 	0.37187	0.45133	0.29423	-0.092
Mof_O 	O 	0.28667	0.44953	0.25913	-0.047
Mof_H 	H 	0.28497	0.41333	0.30423	0.182
Mof_O 	O 	0.88973	0.51867	0.4974	-0.397
Mof_O 	O 	0.97083	0.55967	0.54457	-0.395
Mof_C 	C 	0.90843	0.54777	0.52757	0.361
Mof_C 	C 	0.84953	0.56997	0.54438	-0.072
Mof_C 	C 	0.86483	0.60007	0.57837	-0.002
Mof_H 	H 	0.91313	0.60927	0.58967	0.07
Mof_C 	C 	0.75643	0.60277	0.65577	-0.047
Mof_H 	H 	0.70133	0.55567	0.65367	0.067
Mof_C 	C 	0.89483	0.70587	0.64277	-0.088
Mof_N 	N 	0.97233	0.76617	0.61877	-0.098
Mof_O 	O 	0.03853	0.78467	0.62757	-0.092
Mof_O 	O 	0.95333	0.78287	0.59247	-0.047
Mof_H 	H 	0.95163	0.74667	0.63757	0.182
Mof_O 	O 	0.148	0.7044	0.83073	-0.397
Mof_O 	O 	0.107	0.7445	0.8779	-0.395
Mof_C 	C 	0.1189	0.694	0.8609	0.361
Mof_C 	C 	0.0967	0.6129	0.87771	-0.072
Mof_C 	C 	0.0666	0.5981	0.9117	-0.002
Mof_H 	H 	0.0574	0.6372	0.923	0.07
Mof_C 	C 	0.0639	0.487	0.9891	-0.048
Mof_H 	H 	0.111	0.479	0.987	0.067
Mof_C 	C 	0.9608	0.5223	0.9761	-0.087
Mof_N 	N 	0.9005	0.5395	0.9521	-0.098
Mof_O 	O 	0.882	0.5872	0.9609	-0.092
Mof_O 	O 	0.8838	0.5038	0.9258	-0.047
Mof_H 	H 	0.92	0.5383	0.9709	0.182
Mof_O 	O 	0.81467	0.03773	0.16406	-0.397
Mof_O 	O 	0.77367	0.07783	0.21123	-0.395
Mof_C 	C 	0.78557	0.02733	0.19423	0.361
Mof_C 	C 	0.76337	0.94623	0.21104	-0.071
Mof_C 	C 	0.73327	0.93143	0.24503	-0.003
Mof_H 	H 	0.72407	0.97053	0.25633	0.07
Mof_C 	C 	0.73057	0.82033	0.32243	-0.047
Mof_H 	H 	0.77767	0.81233	0.32033	0.067
Mof_C 	C 	0.62747	0.85563	0.30943	-0.088
Mof_N 	N 	0.56717	0.87283	0.28543	-0.098
Mof_O 	O 	0.54867	0.92053	0.29423	-0.092
Mof_O 	O 	0.55047	0.83713	0.25913	-0.047
Mof_H 	H 	0.58667	0.87163	0.30423	0.182
Mof_O 	O 	0.48133	0.37107	0.4974	-0.397
Mof_O 	O 	0.44033	0.41117	0.54457	-0.395
Mof_C 	C 	0.45223	0.36067	0.52757	0.361
Mof_C 	C 	0.43003	0.27957	0.54438	-0.072
Mof_C 	C 	0.39993	0.26477	0.57837	-0.002
Mof_H 	H 	0.39073	0.30387	0.58967	0.07
Mof_C 	C 	0.39723	0.15367	0.65577	-0.047
Mof_H 	H 	0.44433	0.14567	0.65367	0.067
Mof_C 	C 	0.29413	0.18897	0.64277	-0.088
Mof_N 	N 	0.23383	0.20617	0.61877	-0.098
Mof_O 	O 	0.21533	0.25387	0.62757	-0.092
Mof_O 	O 	0.21713	0.17047	0.59247	-0.047
Mof_H 	H 	0.25333	0.20497	0.63757	0.182
Mof_O 	O 	0.2956	0.4436	0.83073	-0.397
Mof_O 	O 	0.2555	0.3625	0.8779	-0.395
Mof_C 	C 	0.306	0.4249	0.8609	0.361
Mof_C 	C 	0.3871	0.4838	0.87771	-0.072
Mof_C 	C 	0.4019	0.4685	0.9117	-0.002
Mof_H 	H 	0.3628	0.4202	0.923	0.07
Mof_C 	C 	0.513	0.5769	0.9891	-0.047
Mof_H 	H 	0.521	0.632	0.987	0.067
Mof_C 	C 	0.4777	0.4385	0.9761	-0.088
Mof_N 	N 	0.4605	0.361	0.9521	-0.098
Mof_O 	O 	0.4128	0.2948	0.9609	-0.092
Mof_O 	O 	0.4962	0.38	0.9258	-0.047
Mof_H 	H 	0.4617	0.3817	0.9709	0.182
Mof_O 	O 	0.96227	0.77693	0.16406	-0.397
Mof_O 	O 	0.92217	0.69583	0.21123	-0.395
Mof_C 	C 	0.97267	0.75823	0.19423	0.361
Mof_C 	C 	0.05377	0.81713	0.21104	-0.071
Mof_C 	C 	0.06857	0.80183	0.24503	-0.003
Mof_H 	H 	0.02947	0.75353	0.25633	0.07
Mof_C 	C 	0.17967	0.91023	0.32243	-0.047
Mof_H 	H 	0.18767	0.96533	0.32033	0.067
Mof_C 	C 	0.14437	0.77183	0.30943	-0.088
Mof_N 	N 	0.12717	0.69433	0.28543	-0.098
Mof_O 	O 	0.07947	0.62813	0.29423	-0.092
Mof_O 	O 	0.16287	0.71333	0.25913	-0.047
Mof_H 	H 	0.12837	0.71503	0.30423	0.182
Mof_O 	O 	0.62893	0.11027	0.4974	-0.397
Mof_O 	O 	0.58883	0.02917	0.54457	-0.395
Mof_C 	C 	0.63933	0.09157	0.52757	0.361
Mof_C 	C 	0.72043	0.15047	0.54438	-0.072
Mof_C 	C 	0.73523	0.13517	0.57837	-0.002
Mof_H 	H 	0.69613	0.08687	0.58967	0.07
Mof_C 	C 	0.84633	0.24357	0.65577	-0.047
Mof_H 	H 	0.85433	0.29867	0.65367	0.067
Mof_C 	C 	0.81103	0.10517	0.64277	-0.088
Mof_N 	N 	0.79383	0.02767	0.61877	-0.098
Mof_O 	O 	0.74613	0.96147	0.62757	-0.092
Mof_O 	O 	0.82953	0.04667	0.59247	-0.047
Mof_H 	H 	0.79503	0.04837	0.63757	0.182
Mof_O 	O 	0.852	0.5564	0.16927	-0.397
Mof_O 	O 	0.893	0.6375	0.1221	-0.395
Mof_C 	C 	0.8811	0.5751	0.1391	0.361
Mof_C 	C 	0.9033	0.5162	0.12229	-0.072
Mof_C 	C 	0.9334	0.5315	0.0883	-0.002
Mof_H 	H 	0.9426	0.5798	0.077	0.07
Mof_C 	C 	0.9361	0.4231	0.0109	-0.048
Mof_H 	H 	0.889	0.368	0.013	0.067
Mof_C 	C 	0.0392	0.5615	0.0239	-0.087
Mof_N 	N 	0.0995	0.639	0.0479	-0.098
Mof_O 	O 	0.118	0.7052	0.0391	-0.092
Mof_O 	O 	0.1162	0.62	0.0742	-0.047
Mof_H 	H 	0.08	0.6183	0.0291	0.182
Mof_O 	O 	0.51867	0.88973	0.5026	-0.397
Mof_O 	O 	0.55967	0.97083	0.45543	-0.395
Mof_C 	C 	0.54777	0.90843	0.47243	0.361
Mof_C 	C 	0.56997	0.84953	0.45562	-0.072
Mof_C 	C 	0.60007	0.86483	0.42163	-0.002
Mof_H 	H 	0.60927	0.91313	0.41033	0.07
Mof_C 	C 	0.60277	0.75643	0.34423	-0.047
Mof_H 	H 	0.55567	0.70133	0.34633	0.067
Mof_C 	C 	0.70587	0.89483	0.35723	-0.088
Mof_N 	N 	0.76617	0.97233	0.38123	-0.098
Mof_O 	O 	0.78467	0.03853	0.37243	-0.092
Mof_O 	O 	0.78287	0.95333	0.40753	-0.047
Mof_H 	H 	0.74667	0.95163	0.36243	0.182
Mof_O 	O 	0.18533	0.22307	0.83594	-0.397
Mof_O 	O 	0.22633	0.30417	0.78877	-0.395
Mof_C 	C 	0.21443	0.24177	0.80577	0.361
Mof_C 	C 	0.23663	0.18287	0.78896	-0.072
Mof_C 	C 	0.26673	0.19817	0.75497	-0.002
Mof_H 	H 	0.27593	0.24647	0.74367	0.07
Mof_C 	C 	0.26943	0.08977	0.67757	-0.047
Mof_H 	H 	0.22233	0.03467	0.67967	0.067
Mof_C 	C 	0.37253	0.22817	0.69057	-0.088
Mof_N 	N 	0.43283	0.30567	0.71457	-0.098
Mof_O 	O 	0.45133	0.37187	0.70577	-0.092
Mof_O 	O 	0.44953	0.28667	0.74087	-0.047
Mof_H 	H 	0.41333	0.28497	0.69577	0.182
Mof_O 	O 	0.7044	0.148	0.16927	-0.397
Mof_O 	O 	0.7445	0.107	0.1221	-0.395
Mof_C 	C 	0.694	0.1189	0.1391	0.361
Mof_C 	C 	0.6129	0.0967	0.12229	-0.072
Mof_C 	C 	0.5981	0.0666	0.0883	-0.002
Mof_H 	H 	0.6372	0.0574	0.077	0.07
Mof_C 	C 	0.487	0.0639	0.0109	-0.048
Mof_H 	H 	0.479	0.111	0.013	0.067
Mof_C 	C 	0.5223	0.9608	0.0239	-0.087
Mof_N 	N 	0.5395	0.9005	0.0479	-0.098
Mof_O 	O 	0.5872	0.882	0.0391	-0.092
Mof_O 	O 	0.5038	0.8838	0.0742	-0.047
Mof_H 	H 	0.5383	0.92	0.0291	0.182
Mof_O 	O 	0.37107	0.48133	0.5026	-0.397
Mof_O 	O 	0.41117	0.44033	0.45543	-0.395
Mof_C 	C 	0.36067	0.45223	0.47243	0.361
Mof_C 	C 	0.27957	0.43003	0.45562	-0.072
Mof_C 	C 	0.26477	0.39993	0.42163	-0.002
Mof_H 	H 	0.30387	0.39073	0.41033	0.07
Mof_C 	C 	0.15367	0.39723	0.34423	-0.047
Mof_H 	H 	0.14567	0.44433	0.34633	0.067
Mof_C 	C 	0.18897	0.29413	0.35723	-0.088
Mof_N 	N 	0.20617	0.23383	0.38123	-0.098
Mof_O 	O 	0.25387	0.21533	0.37243	-0.092
Mof_O 	O 	0.17047	0.21713	0.40753	-0.047
Mof_H 	H 	0.20497	0.25333	0.36243	0.182
Mof_O 	O 	0.03773	0.81467	0.83594	-0.397
Mof_O 	O 	0.07783	0.77367	0.78877	-0.395
Mof_C 	C 	0.02733	0.78557	0.80577	0.361
Mof_C 	C 	0.94623	0.76337	0.78896	-0.071
Mof_C 	C 	0.93143	0.73327	0.75497	-0.003
Mof_H 	H 	0.97053	0.72407	0.74367	0.07
Mof_C 	C 	0.82033	0.73057	0.67757	-0.047
Mof_H 	H 	0.81233	0.77767	0.67967	0.067
Mof_C 	C 	0.85563	0.62747	0.69057	-0.088
Mof_N 	N 	0.87283	0.56717	0.71457	-0.098
Mof_O 	O 	0.92053	0.54867	0.70577	-0.092
Mof_O 	O 	0.83713	0.55047	0.74087	-0.047
Mof_H 	H 	0.87163	0.58667	0.69577	0.182
Mof_O 	O 	0.4436	0.2956	0.16927	-0.397
Mof_O 	O 	0.3625	0.2555	0.1221	-0.395
Mof_C 	C 	0.4249	0.306	0.1391	0.361
Mof_C 	C 	0.4838	0.3871	0.12229	-0.072
Mof_C 	C 	0.4685	0.4019	0.0883	-0.002
Mof_H 	H 	0.4202	0.3628	0.077	0.07
Mof_C 	C 	0.5769	0.513	0.0109	-0.047
Mof_H 	H 	0.632	0.521	0.013	0.067
Mof_C 	C 	0.4385	0.4777	0.0239	-0.088
Mof_N 	N 	0.361	0.4605	0.0479	-0.098
Mof_O 	O 	0.2948	0.4128	0.0391	-0.092
Mof_O 	O 	0.38	0.4962	0.0742	-0.047
Mof_H 	H 	0.3817	0.4617	0.0291	0.182
Mof_O 	O 	0.11027	0.62893	0.5026	-0.397
Mof_O 	O 	0.02917	0.58883	0.45543	-0.395
Mof_C 	C 	0.09157	0.63933	0.47243	0.361
Mof_C 	C 	0.15047	0.72043	0.45562	-0.072
Mof_C 	C 	0.13517	0.73523	0.42163	-0.002
Mof_H 	H 	0.08687	0.69613	0.41033	0.07
Mof_C 	C 	0.24357	0.84633	0.34423	-0.047
Mof_H 	H 	0.29867	0.85433	0.34633	0.067
Mof_C 	C 	0.10517	0.81103	0.35723	-0.088
Mof_N 	N 	0.02767	0.79383	0.38123	-0.098
Mof_O 	O 	0.96147	0.74613	0.37243	-0.092
Mof_O 	O 	0.04667	0.82953	0.40753	-0.047
Mof_H 	H 	0.04837	0.79503	0.36243	0.182
Mof_O 	O 	0.77693	0.96227	0.83594	-0.397
Mof_O 	O 	0.69583	0.92217	0.78877	-0.395
Mof_C 	C 	0.75823	0.97267	0.80577	0.361
Mof_C 	C 	0.81713	0.05377	0.78896	-0.071
Mof_C 	C 	0.80183	0.06857	0.75497	-0.003
Mof_H 	H 	0.75353	0.02947	0.74367	0.07
Mof_C 	C 	0.91023	0.17967	0.67757	-0.047
Mof_H 	H 	0.96533	0.18767	0.67967	0.067
Mof_C 	C 	0.77183	0.14437	0.69057	-0.088
Mof_N 	N 	0.69433	0.12717	0.71457	-0.098
Mof_O 	O 	0.62813	0.07947	0.70577	-0.092
Mof_O 	O 	0.71333	0.16287	0.74087	-0.047
Mof_H 	H 	0.71503	0.12837	0.69577	0.182
Mof_Cu	Cu	0.38169	0.19084	0.19456	0.911
Mof_Cu	Cu	0.04836	0.52418	0.5279	0.91
Mof_Cu	Cu	0.71502	0.85751	0.86123	0.911
Mof_Cu	Cu	0.80916	0.19084	0.19456	0.911
Mof_Cu	Cu	0.47582	0.52418	0.5279	0.911
Mof_Cu	Cu	0.14249	0.85751	0.86123	0.911
Mof_Cu	Cu	0.80916	0.61831	0.19456	0.911
Mof_Cu	Cu	0.47582	0.95164	0.5279	0.91
Mof_Cu	Cu	0.14249	0.28498	0.86123	0.911
Mof_Cu	Cu	0.19084	0.38169	0.80544	0.911
Mof_Cu	Cu	0.85751	0.71502	0.13877	0.911
Mof_Cu	Cu	0.52418	0.04836	0.4721	0.91
Mof_Cu	Cu	0.19084	0.80915	0.80544	0.911
Mof_Cu	Cu	0.85751	0.14249	0.13877	0.911
Mof_Cu	Cu	0.52418	0.47582	0.4721	0.911
Mof_Cu	Cu	0.61831	0.80915	0.80544	0.911
Mof_Cu	Cu	0.28498	0.14249	0.13877	0.911
Mof_Cu	Cu	0.95164	0.47582	0.4721	0.91
Mof_C 	C 	0.55585	0.1117	0.1389	0.031
Mof_H 	H 	0.566	0.132	0.1614	0.062
Mof_C 	C 	0.52535	0.0507	0.0717	-0.008
Mof_C 	C 	0.5105	0.021	0.0351	0.119
Mof_C 	C 	0.22252	0.44503	0.47223	0.031
Mof_H 	H 	0.23267	0.46533	0.49473	0.062
Mof_C 	C 	0.19202	0.38403	0.40503	-0.008
Mof_C 	C 	0.17717	0.35433	0.36843	0.12
Mof_C 	C 	0.88918	0.77837	0.80557	0.03
Mof_H 	H 	0.89933	0.79867	0.82807	0.062
Mof_C 	C 	0.85868	0.71737	0.73837	-0.008
Mof_C 	C 	0.84383	0.68767	0.70177	0.12
Mof_C 	C 	0.8883	0.44415	0.1389	0.031
Mof_H 	H 	0.868	0.434	0.1614	0.062
Mof_C 	C 	0.9493	0.47465	0.0717	-0.008
Mof_C 	C 	0.979	0.4895	0.0351	0.119
Mof_C 	C 	0.55497	0.77748	0.47223	0.031
Mof_H 	H 	0.53467	0.76733	0.49473	0.062
Mof_C 	C 	0.61597	0.80798	0.40503	-0.008
Mof_C 	C 	0.64567	0.82283	0.36843	0.12
Mof_C 	C 	0.22163	0.11082	0.80557	0.03
Mof_H 	H 	0.20133	0.10067	0.82807	0.062
Mof_C 	C 	0.28263	0.14132	0.73837	-0.008
Mof_C 	C 	0.31233	0.15617	0.70177	0.12
Mof_C 	C 	0.55585	0.44415	0.1389	0.031
Mof_H 	H 	0.566	0.434	0.1614	0.062
Mof_C 	C 	0.52535	0.47465	0.0717	-0.008
Mof_C 	C 	0.5105	0.4895	0.0351	0.12
Mof_C 	C 	0.22252	0.77748	0.47223	0.031
Mof_H 	H 	0.23267	0.76733	0.49473	0.062
Mof_C 	C 	0.19202	0.80798	0.40503	-0.008
Mof_C 	C 	0.17717	0.82283	0.36843	0.12
Mof_C 	C 	0.88918	0.11082	0.80557	0.03
Mof_H 	H 	0.89933	0.10067	0.82807	0.062
Mof_C 	C 	0.85868	0.14132	0.73837	-0.008
Mof_C 	C 	0.84383	0.15617	0.70177	0.12
Mof_C 	C 	0.1117	0.55585	0.8611	0.031
Mof_H 	H 	0.132	0.566	0.8386	0.062
Mof_C 	C 	0.0507	0.52535	0.9283	-0.008
Mof_C 	C 	0.021	0.5105	0.9649	0.119
Mof_C 	C 	0.77837	0.88918	0.19443	0.03
Mof_H 	H 	0.79867	0.89933	0.17193	0.062
Mof_C 	C 	0.71737	0.85868	0.26163	-0.008
Mof_C 	C 	0.68767	0.84383	0.29823	0.12
Mof_C 	C 	0.44503	0.22252	0.52777	0.031
Mof_H 	H 	0.46533	0.23267	0.50527	0.062
Mof_C 	C 	0.38403	0.19202	0.59497	-0.008
Mof_C 	C 	0.35433	0.17717	0.63157	0.12
Mof_C 	C 	0.44415	0.8883	0.8611	0.031
Mof_H 	H 	0.434	0.868	0.8386	0.062
Mof_C 	C 	0.47465	0.9493	0.9283	-0.008
Mof_C 	C 	0.4895	0.979	0.9649	0.119
Mof_C 	C 	0.11082	0.22163	0.19443	0.03
Mof_H 	H 	0.10067	0.20133	0.17193	0.062
Mof_C 	C 	0.14132	0.28263	0.26163	-0.008
Mof_C 	C 	0.15617	0.31233	0.29823	0.12
Mof_C 	C 	0.77748	0.55497	0.52777	0.031
Mof_H 	H 	0.76733	0.53467	0.50527	0.062
Mof_C 	C 	0.80798	0.61597	0.59497	-0.008
Mof_C 	C 	0.82283	0.64567	0.63157	0.12
Mof_C 	C 	0.44415	0.55585	0.8611	0.031
Mof_H 	H 	0.434	0.566	0.8386	0.062
Mof_C 	C 	0.47465	0.52535	0.9283	-0.008
Mof_C 	C 	0.4895	0.5105	0.9649	0.12
Mof_C 	C 	0.11082	0.88918	0.19443	0.03
Mof_H 	H 	0.10067	0.89933	0.17193	0.062
Mof_C 	C 	0.14132	0.85868	0.26163	-0.008
Mof_C 	C 	0.15617	0.84383	0.29823	0.12
Mof_C 	C 	0.77748	0.22252	0.52777	0.031
Mof_H 	H 	0.76733	0.23267	0.50527	0.062
Mof_C 	C 	0.80798	0.19202	0.59497	-0.008
Mof_C 	C 	0.82283	0.17717	0.63157	0.12
_end
