data_functionalizedCrystal
_audit_creation_method	'EQeq! by Chris Wilmer'
_symmetry_space_group_name_H-M	'P1'
_symmetry_Int_Tables_number	1
_symmetry_cell_setting	triclinic
loop_
_symmetry_equiv_pos_as_xyz
  x,y,z
_cell_length_a	28.2573
_cell_length_b	14.6878
_cell_length_c	13.639
_cell_angle_alpha	90
_cell_angle_beta	99.327
_cell_angle_gamma	90
loop_
_atom_site_label
_atom_site_type_symbol
_atom_site_fract_x
_atom_site_fract_y
_atom_site_fract_z
_atom_site_charge
Mof_C 	C 	0.4049	0.2589	0.9747	0.332
Mof_C 	C 	0.4493	0.2863	0.9367	-0.109
Mof_C 	C 	0.4785	0.2185	0.9033	0.042
Mof_H 	H 	0.4692	0.1578	0.903	0.022
Mof_C 	C 	0.52	0.2412	0.8716	-0.126
Mof_H 	H 	0.5387	0.1961	0.8491	0.071
Mof_C 	C 	0.5351	0.3338	0.8727	0.069
Mof_C 	C 	0.505	0.4022	0.9018	-0.121
Mof_H 	H 	0.513	0.4634	0.8987	0.083
Mof_C 	C 	0.4623	0.3751	0.9357	0.045
Mof_H 	H 	0.4429	0.4191	0.9577	0.026
Mof_C 	C 	0.5826	0.3507	0.8455	-0.017
Mof_C 	C 	0.7509	0.5968	0.9082	0.464
Mof_C 	C 	0.7199	0.5276	0.8506	-0.169
Mof_C 	C 	0.7378	0.472	0.7845	0.093
Mof_H 	H 	0.7695	0.4783	0.7752	0.007
Mof_C 	C 	0.709	0.4068	0.7316	-0.175
Mof_C 	C 	0.6606	0.3965	0.7456	-0.005
Mof_H 	H 	0.6408	0.3542	0.7086	0.05
Mof_C 	C 	0.6432	0.4513	0.8166	0.04
Mof_C 	C 	0.6719	0.518	0.8648	-0.003
Mof_H 	H 	0.6595	0.5574	0.9076	0.035
Mof_C 	C 	0.7275	0.3462	0.6597	0.512
Mof_N 	N 	0.5969	0.4386	0.8393	-0.11
Mof_O 	O 	0.3874	0.1807	0.9539	-0.453
Mof_O 	O 	0.3859	0.3137	0.0266	-0.448
Mof_O 	O 	0.79551	0.5846	0.9245	-0.512
Mof_O 	O 	0.7326	0.6647	0.9436	-0.668
Mof_O 	O 	0.6991	0.2863	0.6173	-0.541
Mof_O 	O 	0.7697	0.3567	0.646	-0.576
Mof_O 	O 	0.3546	0.265	0.208	-0.265
Mof_C 	C 	0.3318	0.293	0.273	0.156
Mof_N 	N 	0.3606	0.345	0.352	-0.081
Mof_C 	C 	0.3788	0.393	0.443	-0.183
Mof_H 	H 	0.4024	0.4367	0.4303	0.095
Mof_H 	H 	0.3932	0.3505	0.4922	0.09
Mof_H 	H 	0.353	0.4241	0.4665	0.064
Mof_H 	H 	0.599	0.316	0.906	0.027
Mof_Eu	Eu	0.31788	0.21057	0.03755	2.311
Mof_C 	C 	0.3234	0.391	0.395	-0.201
Mof_H 	H 	0.338	0.4294	0.4486	0.06
Mof_H 	H 	0.3034	0.3468	0.42	0.084
Mof_H 	H 	0.3043	0.4276	0.3453	0.091
Mof_O 	O 	0.3503	0.255	0.2028	-0.112
Mof_C 	C 	0.9049	0.7589	0.9747	0.331
Mof_C 	C 	0.9493	0.7863	0.9367	-0.108
Mof_C 	C 	0.9785	0.7185	0.9033	0.043
Mof_H 	H 	0.9692	0.6578	0.903	0.023
Mof_C 	C 	0.02	0.7412	0.8716	-0.126
Mof_H 	H 	0.0387	0.6961	0.8491	0.072
Mof_C 	C 	0.0351	0.8338	0.8727	0.069
Mof_C 	C 	0.005	0.9022	0.9018	-0.122
Mof_H 	H 	0.013	0.9634	0.8987	0.083
Mof_C 	C 	0.9623	0.8751	0.9357	0.046
Mof_H 	H 	0.9429	0.9191	0.9577	0.025
Mof_C 	C 	0.0826	0.8507	0.8455	-0.017
Mof_C 	C 	0.2509	0.0968	0.9082	0.464
Mof_C 	C 	0.2199	0.0276	0.8506	-0.167
Mof_C 	C 	0.2378	0.972	0.7845	0.09
Mof_H 	H 	0.2695	0.9783	0.7752	0.007
Mof_C 	C 	0.209	0.9068	0.7316	-0.175
Mof_C 	C 	0.1606	0.8965	0.7456	-0.005
Mof_H 	H 	0.1408	0.8542	0.7086	0.05
Mof_C 	C 	0.1432	0.9513	0.8166	0.038
Mof_C 	C 	0.1719	0.018	0.8648	-0.001
Mof_H 	H 	0.1595	0.0574	0.9076	0.035
Mof_C 	C 	0.2275	0.8462	0.6597	0.512
Mof_N 	N 	0.0969	0.9386	0.8393	-0.11
Mof_O 	O 	0.8874	0.6807	0.9539	-0.454
Mof_O 	O 	0.8859	0.8137	0.0266	-0.446
Mof_O 	O 	0.29551	0.0846	0.9245	-0.51
Mof_O 	O 	0.2326	0.1647	0.9436	-0.668
Mof_O 	O 	0.1991	0.7863	0.6173	-0.541
Mof_O 	O 	0.2697	0.8567	0.646	-0.577
Mof_O 	O 	0.8546	0.765	0.208	-0.265
Mof_C 	C 	0.8318	0.793	0.273	0.156
Mof_N 	N 	0.8606	0.845	0.352	-0.081
Mof_C 	C 	0.8788	0.893	0.443	-0.183
Mof_H 	H 	0.9024	0.9367	0.4303	0.095
Mof_H 	H 	0.8932	0.8505	0.4922	0.09
Mof_H 	H 	0.853	0.9241	0.4665	0.064
Mof_H 	H 	0.099	0.816	0.906	0.026
Mof_Eu	Eu	0.81788	0.71057	0.03755	2.316
Mof_C 	C 	0.8234	0.891	0.395	-0.201
Mof_H 	H 	0.838	0.9294	0.4486	0.06
Mof_H 	H 	0.8034	0.8468	0.42	0.084
Mof_H 	H 	0.8043	0.9276	0.3453	0.091
Mof_O 	O 	0.8503	0.755	0.2028	-0.112
Mof_C 	C 	0.5951	0.2589	0.5253	0.332
Mof_C 	C 	0.5507	0.2863	0.5633	-0.107
Mof_C 	C 	0.5215	0.2185	0.5967	0.042
Mof_H 	H 	0.5308	0.1578	0.597	0.023
Mof_C 	C 	0.48	0.2412	0.6284	-0.125
Mof_H 	H 	0.4613	0.1961	0.6509	0.072
Mof_C 	C 	0.4649	0.3338	0.6273	0.069
Mof_C 	C 	0.495	0.4022	0.5982	-0.121
Mof_H 	H 	0.487	0.4634	0.6013	0.083
Mof_C 	C 	0.5377	0.3751	0.5643	0.045
Mof_H 	H 	0.5571	0.4191	0.5423	0.026
Mof_C 	C 	0.4174	0.3507	0.6545	-0.017
Mof_C 	C 	0.2491	0.5968	0.5918	0.464
Mof_C 	C 	0.2801	0.5276	0.6494	-0.169
Mof_C 	C 	0.2622	0.472	0.7155	0.093
Mof_H 	H 	0.2305	0.4783	0.7248	0.007
Mof_C 	C 	0.291	0.4068	0.7684	-0.176
Mof_C 	C 	0.3394	0.3965	0.7544	-0.005
Mof_H 	H 	0.3592	0.3542	0.7914	0.05
Mof_C 	C 	0.3568	0.4513	0.6834	0.04
Mof_C 	C 	0.3281	0.518	0.6352	-0.003
Mof_H 	H 	0.3405	0.5574	0.5924	0.035
Mof_C 	C 	0.2725	0.3462	0.8403	0.512
Mof_N 	N 	0.4031	0.4386	0.6607	-0.11
Mof_O 	O 	0.6126	0.1807	0.5461	-0.454
Mof_O 	O 	0.6141	0.3137	0.4734	-0.447
Mof_O 	O 	0.20449	0.5846	0.5755	-0.512
Mof_O 	O 	0.2674	0.6647	0.5564	-0.668
Mof_O 	O 	0.3009	0.2863	0.8827	-0.541
Mof_O 	O 	0.2303	0.3567	0.854	-0.577
Mof_O 	O 	0.6454	0.265	0.292	-0.265
Mof_C 	C 	0.6682	0.293	0.227	0.155
Mof_N 	N 	0.6394	0.345	0.148	-0.081
Mof_C 	C 	0.6212	0.393	0.057	-0.183
Mof_H 	H 	0.5976	0.4367	0.0697	0.095
Mof_H 	H 	0.6068	0.3505	0.0078	0.09
Mof_H 	H 	0.647	0.4241	0.0335	0.064
Mof_H 	H 	0.401	0.316	0.594	0.027
Mof_Eu	Eu	0.68212	0.21057	0.46245	2.313
Mof_C 	C 	0.6766	0.391	0.105	-0.2
Mof_H 	H 	0.662	0.4294	0.0514	0.06
Mof_H 	H 	0.6966	0.3468	0.08	0.084
Mof_H 	H 	0.6957	0.4276	0.1547	0.091
Mof_O 	O 	0.6497	0.255	0.2972	-0.112
Mof_C 	C 	0.0951	0.7589	0.5253	0.332
Mof_C 	C 	0.0507	0.7863	0.5633	-0.107
Mof_C 	C 	0.0215	0.7185	0.5967	0.042
Mof_H 	H 	0.0308	0.6578	0.597	0.023
Mof_C 	C 	0.98	0.7412	0.6284	-0.125
Mof_H 	H 	0.9613	0.6961	0.6509	0.072
Mof_C 	C 	0.9649	0.8338	0.6273	0.069
Mof_C 	C 	0.995	0.9022	0.5982	-0.121
Mof_H 	H 	0.987	0.9634	0.6013	0.083
Mof_C 	C 	0.0377	0.8751	0.5643	0.045
Mof_H 	H 	0.0571	0.9191	0.5423	0.026
Mof_C 	C 	0.9174	0.8507	0.6545	-0.017
Mof_C 	C 	0.7491	0.0968	0.5918	0.464
Mof_C 	C 	0.7801	0.0276	0.6494	-0.168
Mof_C 	C 	0.7622	0.972	0.7155	0.092
Mof_H 	H 	0.7305	0.9783	0.7248	0.007
Mof_C 	C 	0.791	0.9068	0.7684	-0.176
Mof_C 	C 	0.8394	0.8965	0.7544	-0.005
Mof_H 	H 	0.8592	0.8542	0.7914	0.05
Mof_C 	C 	0.8568	0.9513	0.6834	0.039
Mof_C 	C 	0.8281	0.018	0.6352	-0.002
Mof_H 	H 	0.8405	0.0574	0.5924	0.035
Mof_C 	C 	0.7725	0.8462	0.8403	0.512
Mof_N 	N 	0.9031	0.9386	0.6607	-0.11
Mof_O 	O 	0.1126	0.6807	0.5461	-0.454
Mof_O 	O 	0.1141	0.8137	0.4734	-0.447
Mof_O 	O 	0.70449	0.0846	0.5755	-0.512
Mof_O 	O 	0.7674	0.1647	0.5564	-0.668
Mof_O 	O 	0.8009	0.7863	0.8827	-0.542
Mof_O 	O 	0.7303	0.8567	0.854	-0.577
Mof_O 	O 	0.1454	0.765	0.292	-0.265
Mof_C 	C 	0.1682	0.793	0.227	0.156
Mof_N 	N 	0.1394	0.845	0.148	-0.081
Mof_C 	C 	0.1212	0.893	0.057	-0.184
Mof_H 	H 	0.0976	0.9367	0.0697	0.096
Mof_H 	H 	0.1068	0.8505	0.0078	0.092
Mof_H 	H 	0.147	0.9241	0.0335	0.064
Mof_H 	H 	0.901	0.816	0.594	0.027
Mof_Eu	Eu	0.18212	0.71057	0.46245	2.314
Mof_C 	C 	0.1766	0.891	0.105	-0.202
Mof_H 	H 	0.162	0.9294	0.0514	0.061
Mof_H 	H 	0.1966	0.8468	0.08	0.085
Mof_H 	H 	0.1957	0.9276	0.1547	0.092
Mof_O 	O 	0.1497	0.755	0.2972	-0.112
Mof_C 	C 	0.5951	0.7411	0.0253	0.333
Mof_C 	C 	0.5507	0.7137	0.0633	-0.108
Mof_C 	C 	0.5215	0.7815	0.0967	0.043
Mof_H 	H 	0.5308	0.8422	0.097	0.023
Mof_C 	C 	0.48	0.7588	0.1284	-0.125
Mof_H 	H 	0.4613	0.8039	0.1509	0.072
Mof_C 	C 	0.4649	0.6662	0.1273	0.069
Mof_C 	C 	0.495	0.5978	0.0982	-0.121
Mof_H 	H 	0.487	0.5366	0.1013	0.083
Mof_C 	C 	0.5377	0.6249	0.0643	0.045
Mof_H 	H 	0.5571	0.5809	0.0423	0.026
Mof_C 	C 	0.4174	0.6493	0.1545	-0.017
Mof_C 	C 	0.2491	0.4032	0.0918	0.464
Mof_C 	C 	0.2801	0.4724	0.1494	-0.169
Mof_C 	C 	0.2622	0.528	0.2155	0.093
Mof_H 	H 	0.2305	0.5217	0.2248	0.007
Mof_C 	C 	0.291	0.5932	0.2684	-0.175
Mof_C 	C 	0.3394	0.6035	0.2544	-0.005
Mof_H 	H 	0.3592	0.6458	0.2914	0.05
Mof_C 	C 	0.3568	0.5487	0.1834	0.04
Mof_C 	C 	0.3281	0.482	0.1352	-0.003
Mof_H 	H 	0.3405	0.4426	0.0924	0.035
Mof_C 	C 	0.2725	0.6538	0.3403	0.512
Mof_N 	N 	0.4031	0.5614	0.1607	-0.11
Mof_O 	O 	0.6126	0.8193	0.0461	-0.453
Mof_O 	O 	0.6141	0.6863	0.9734	-0.448
Mof_O 	O 	0.20449	0.4154	0.0755	-0.512
Mof_O 	O 	0.2674	0.3353	0.0564	-0.668
Mof_O 	O 	0.3009	0.7137	0.3827	-0.541
Mof_O 	O 	0.2303	0.6433	0.354	-0.576
Mof_O 	O 	0.6454	0.735	0.792	-0.265
Mof_C 	C 	0.6682	0.707	0.727	0.156
Mof_N 	N 	0.6394	0.655	0.648	-0.081
Mof_C 	C 	0.6212	0.607	0.557	-0.183
Mof_H 	H 	0.5976	0.5633	0.5697	0.095
Mof_H 	H 	0.6068	0.6495	0.5078	0.09
Mof_H 	H 	0.647	0.5759	0.5335	0.064
Mof_H 	H 	0.401	0.684	0.094	0.027
Mof_Eu	Eu	0.68212	0.78943	0.96245	2.311
Mof_C 	C 	0.6766	0.609	0.605	-0.201
Mof_H 	H 	0.662	0.5706	0.5514	0.06
Mof_H 	H 	0.6966	0.6532	0.58	0.084
Mof_H 	H 	0.6957	0.5724	0.6547	0.091
Mof_O 	O 	0.6497	0.745	0.7972	-0.112
Mof_C 	C 	0.0951	0.2411	0.0253	0.331
Mof_C 	C 	0.0507	0.2137	0.0633	-0.108
Mof_C 	C 	0.0215	0.2815	0.0967	0.043
Mof_H 	H 	0.0308	0.3422	0.097	0.023
Mof_C 	C 	0.98	0.2588	0.1284	-0.126
Mof_H 	H 	0.9613	0.3039	0.1509	0.072
Mof_C 	C 	0.9649	0.1662	0.1273	0.069
Mof_C 	C 	0.995	0.0978	0.0982	-0.122
Mof_H 	H 	0.987	0.0366	0.1013	0.083
Mof_C 	C 	0.0377	0.1249	0.0643	0.046
Mof_H 	H 	0.0571	0.0809	0.0423	0.025
Mof_C 	C 	0.9174	0.1493	0.1545	-0.017
Mof_C 	C 	0.7491	0.9032	0.0918	0.464
Mof_C 	C 	0.7801	0.9724	0.1494	-0.167
Mof_C 	C 	0.7622	0.028	0.2155	0.09
Mof_H 	H 	0.7305	0.0217	0.2248	0.007
Mof_C 	C 	0.791	0.0932	0.2684	-0.175
Mof_C 	C 	0.8394	0.1035	0.2544	-0.005
Mof_H 	H 	0.8592	0.1458	0.2914	0.05
Mof_C 	C 	0.8568	0.0487	0.1834	0.038
Mof_C 	C 	0.8281	0.982	0.1352	-0.001
Mof_H 	H 	0.8405	0.9426	0.0924	0.035
Mof_C 	C 	0.7725	0.1538	0.3403	0.512
Mof_N 	N 	0.9031	0.0614	0.1607	-0.11
Mof_O 	O 	0.1126	0.3193	0.0461	-0.454
Mof_O 	O 	0.1141	0.1863	0.9734	-0.446
Mof_O 	O 	0.70449	0.9154	0.0755	-0.51
Mof_O 	O 	0.7674	0.8353	0.0564	-0.668
Mof_O 	O 	0.8009	0.2137	0.3827	-0.541
Mof_O 	O 	0.7303	0.1433	0.354	-0.577
Mof_O 	O 	0.1454	0.235	0.792	-0.265
Mof_C 	C 	0.1682	0.207	0.727	0.156
Mof_N 	N 	0.1394	0.155	0.648	-0.081
Mof_C 	C 	0.1212	0.107	0.557	-0.183
Mof_H 	H 	0.0976	0.0633	0.5697	0.095
Mof_H 	H 	0.1068	0.1495	0.5078	0.09
Mof_H 	H 	0.147	0.0759	0.5335	0.064
Mof_H 	H 	0.901	0.184	0.094	0.026
Mof_Eu	Eu	0.18212	0.28943	0.96245	2.316
Mof_C 	C 	0.1766	0.109	0.605	-0.201
Mof_H 	H 	0.162	0.0706	0.5514	0.06
Mof_H 	H 	0.1966	0.1532	0.58	0.084
Mof_H 	H 	0.1957	0.0724	0.6547	0.091
Mof_O 	O 	0.1497	0.245	0.7972	-0.112
Mof_C 	C 	0.4049	0.7411	0.4747	0.332
Mof_C 	C 	0.4493	0.7137	0.4367	-0.107
Mof_C 	C 	0.4785	0.7815	0.4033	0.042
Mof_H 	H 	0.4692	0.8422	0.403	0.023
Mof_C 	C 	0.52	0.7588	0.3716	-0.125
Mof_H 	H 	0.5387	0.8039	0.3491	0.072
Mof_C 	C 	0.5351	0.6662	0.3727	0.069
Mof_C 	C 	0.505	0.5978	0.4018	-0.121
Mof_H 	H 	0.513	0.5366	0.3987	0.083
Mof_C 	C 	0.4623	0.6249	0.4357	0.045
Mof_H 	H 	0.4429	0.5809	0.4577	0.026
Mof_C 	C 	0.5826	0.6493	0.3455	-0.017
Mof_C 	C 	0.7509	0.4032	0.4082	0.464
Mof_C 	C 	0.7199	0.4724	0.3506	-0.169
Mof_C 	C 	0.7378	0.528	0.2845	0.093
Mof_H 	H 	0.7695	0.5217	0.2752	0.007
Mof_C 	C 	0.709	0.5932	0.2316	-0.176
Mof_C 	C 	0.6606	0.6035	0.2456	-0.005
Mof_H 	H 	0.6408	0.6458	0.2086	0.05
Mof_C 	C 	0.6432	0.5487	0.3166	0.04
Mof_C 	C 	0.6719	0.482	0.3648	-0.003
Mof_H 	H 	0.6595	0.4426	0.4076	0.035
Mof_C 	C 	0.7275	0.6538	0.1597	0.512
Mof_N 	N 	0.5969	0.5614	0.3393	-0.11
Mof_O 	O 	0.3874	0.8193	0.4539	-0.454
Mof_O 	O 	0.3859	0.6863	0.5266	-0.447
Mof_O 	O 	0.79551	0.4154	0.4245	-0.512
Mof_O 	O 	0.7326	0.3353	0.4436	-0.668
Mof_O 	O 	0.6991	0.7137	0.1173	-0.541
Mof_O 	O 	0.7697	0.6433	0.146	-0.577
Mof_O 	O 	0.3546	0.735	0.708	-0.265
Mof_C 	C 	0.3318	0.707	0.773	0.155
Mof_N 	N 	0.3606	0.655	0.852	-0.081
Mof_C 	C 	0.3788	0.607	0.943	-0.183
Mof_H 	H 	0.4024	0.5633	0.9303	0.095
Mof_H 	H 	0.3932	0.6495	0.9922	0.09
Mof_H 	H 	0.353	0.5759	0.9665	0.064
Mof_H 	H 	0.599	0.684	0.406	0.027
Mof_Eu	Eu	0.31788	0.78943	0.53755	2.313
Mof_C 	C 	0.3234	0.609	0.895	-0.2
Mof_H 	H 	0.338	0.5706	0.9486	0.06
Mof_H 	H 	0.3034	0.6532	0.92	0.084
Mof_H 	H 	0.3043	0.5724	0.8453	0.091
Mof_O 	O 	0.3503	0.745	0.7028	-0.112
Mof_C 	C 	0.9049	0.2411	0.4747	0.332
Mof_C 	C 	0.9493	0.2137	0.4367	-0.107
Mof_C 	C 	0.9785	0.2815	0.4033	0.042
Mof_H 	H 	0.9692	0.3422	0.403	0.023
Mof_C 	C 	0.02	0.2588	0.3716	-0.125
Mof_H 	H 	0.0387	0.3039	0.3491	0.072
Mof_C 	C 	0.0351	0.1662	0.3727	0.069
Mof_C 	C 	0.005	0.0978	0.4018	-0.121
Mof_H 	H 	0.013	0.0366	0.3987	0.083
Mof_C 	C 	0.9623	0.1249	0.4357	0.045
Mof_H 	H 	0.9429	0.0809	0.4577	0.026
Mof_C 	C 	0.0826	0.1493	0.3455	-0.017
Mof_C 	C 	0.2509	0.9032	0.4082	0.464
Mof_C 	C 	0.2199	0.9724	0.3506	-0.168
Mof_C 	C 	0.2378	0.028	0.2845	0.092
Mof_H 	H 	0.2695	0.0217	0.2752	0.007
Mof_C 	C 	0.209	0.0932	0.2316	-0.176
Mof_C 	C 	0.1606	0.1035	0.2456	-0.005
Mof_H 	H 	0.1408	0.1458	0.2086	0.05
Mof_C 	C 	0.1432	0.0487	0.3166	0.039
Mof_C 	C 	0.1719	0.982	0.3648	-0.002
Mof_H 	H 	0.1595	0.9426	0.4076	0.035
Mof_C 	C 	0.2275	0.1538	0.1597	0.512
Mof_N 	N 	0.0969	0.0614	0.3393	-0.11
Mof_O 	O 	0.8874	0.3193	0.4539	-0.454
Mof_O 	O 	0.8859	0.1863	0.5266	-0.447
Mof_O 	O 	0.29551	0.9154	0.4245	-0.512
Mof_O 	O 	0.2326	0.8353	0.4436	-0.668
Mof_O 	O 	0.1991	0.2137	0.1173	-0.542
Mof_O 	O 	0.2697	0.1433	0.146	-0.577
Mof_O 	O 	0.8546	0.235	0.708	-0.265
Mof_C 	C 	0.8318	0.207	0.773	0.156
Mof_N 	N 	0.8606	0.155	0.852	-0.081
Mof_C 	C 	0.8788	0.107	0.943	-0.184
Mof_H 	H 	0.9024	0.0633	0.9303	0.096
Mof_H 	H 	0.8932	0.1495	0.9922	0.092
Mof_H 	H 	0.853	0.0759	0.9665	0.064
Mof_H 	H 	0.099	0.184	0.406	0.027
Mof_Eu	Eu	0.81788	0.28943	0.53755	2.314
Mof_C 	C 	0.8234	0.109	0.895	-0.202
Mof_H 	H 	0.838	0.0706	0.9486	0.061
Mof_H 	H 	0.8034	0.1532	0.92	0.085
Mof_H 	H 	0.8043	0.0724	0.8453	0.092
Mof_O 	O 	0.8503	0.245	0.7028	-0.112
_end
