data_functionalizedCrystal
_audit_creation_method	'EQeq! by Chris Wilmer'
_symmetry_space_group_name_H-M	'P1'
_symmetry_Int_Tables_number	1
_symmetry_cell_setting	triclinic
loop_
_symmetry_equiv_pos_as_xyz
  x,y,z
_cell_length_a	6.595
_cell_length_b	9.1653
_cell_length_c	14.1958
_cell_angle_alpha	85.873
_cell_angle_beta	82.166
_cell_angle_gamma	74.734
loop_
_atom_site_label
_atom_site_type_symbol
_atom_site_fract_x
_atom_site_fract_y
_atom_site_fract_z
_atom_site_charge
Mof_C 	C 	0.2246	0.755	0.1929	0.222
Mof_C 	C 	0.565	0.0749	0.1717	0.282
Mof_C 	C 	0.6533	0.9054	0.1876	-0.039
Mof_C 	C 	0.6924	0.8399	0.2772	-0.055
Mof_C 	C 	0.6737	0.9259	0.3642	0.303
Mof_C 	C 	0.7575	0.6832	0.2862	0.004
Mof_H 	H 	0.7889	0.6373	0.3465	0.051
Mof_C 	C 	0.7779	0.5917	0.2104	-0.044
Mof_C 	C 	0.8445	0.4235	0.2348	0.298
Mof_C 	C 	0.7401	0.6566	0.1208	-0.039
Mof_C 	C 	0.735	0.5681	0.0361	0.295
Mof_C 	C 	0.6816	0.8165	0.1097	-0.018
Mof_H 	H 	0.6617	0.8629	0.0484	0.057
Mof_Cd	Cd	0.41306	0.38552	0.16468	0.485
Mof_Cd	Cd	0.05851	0.11128	0.2754	0.45
Mof_Cd	Cd	0.24604	0.87754	0.48855	0.453
Mof_N 	N 	0.2101	0.791	0.1011	-0.329
Mof_H 	H 	0.1696	0.8866	0.082	0.166
Mof_H 	H 	0.241	0.7193	0.0595	0.188
Mof_N 	N 	0.1817	0.8543	0.2631	-0.137
Mof_N 	N 	0.2147	0.7685	0.3448	-0.071
Mof_N 	N 	0.273	0.6256	0.3257	-0.047
Mof_N 	N 	0.2818	0.612	0.2311	-0.13
Mof_O 	O 	0.412	0.1436	0.2314	-0.273
Mof_O 	O 	0.6408	0.1418	0.1016	-0.258
Mof_O 	O 	0.7443	0.0422	0.3593	-0.279
Mof_O 	O 	0.5944	0.8733	0.4412	-0.285
Mof_O 	O 	0.705	0.3493	0.2519	-0.262
Mof_O 	O 	0.034	0.3646	0.2461	-0.276
Mof_O 	O 	0.6869	0.4446	0.0509	-0.269
Mof_O 	O 	0.7767	0.6267	0.9539	-0.262
Mof_O 	O 	0.0839	0.1059	0.4299	-0.425
Mof_H 	H 	0.1583	0.1642	0.4386	0.245
Mof_C 	C 	0.7754	0.245	0.8071	0.221
Mof_C 	C 	0.435	0.9251	0.8283	0.281
Mof_C 	C 	0.3467	0.0946	0.8124	-0.039
Mof_C 	C 	0.3076	0.1601	0.7228	-0.055
Mof_C 	C 	0.3263	0.0741	0.6358	0.303
Mof_C 	C 	0.2425	0.3168	0.7138	0.004
Mof_H 	H 	0.2111	0.3627	0.6535	0.051
Mof_C 	C 	0.2221	0.4083	0.7896	-0.044
Mof_C 	C 	0.1555	0.5765	0.7652	0.298
Mof_C 	C 	0.2599	0.3434	0.8792	-0.039
Mof_C 	C 	0.265	0.4319	0.9639	0.295
Mof_C 	C 	0.3184	0.1835	0.8903	-0.018
Mof_H 	H 	0.3383	0.1371	0.9516	0.057
Mof_Cd	Cd	0.58694	0.61448	0.83532	0.485
Mof_Cd	Cd	0.94149	0.88872	0.7246	0.45
Mof_Cd	Cd	0.75396	0.12246	0.51145	0.453
Mof_N 	N 	0.7899	0.209	0.8989	-0.329
Mof_H 	H 	0.8304	0.1134	0.918	0.166
Mof_H 	H 	0.759	0.2807	0.9405	0.188
Mof_N 	N 	0.8183	0.1457	0.7369	-0.137
Mof_N 	N 	0.7853	0.2315	0.6552	-0.071
Mof_N 	N 	0.727	0.3744	0.6743	-0.047
Mof_N 	N 	0.7182	0.388	0.7689	-0.13
Mof_O 	O 	0.588	0.8564	0.7686	-0.273
Mof_O 	O 	0.3592	0.8582	0.8984	-0.258
Mof_O 	O 	0.2557	0.9578	0.6407	-0.279
Mof_O 	O 	0.4056	0.1267	0.5588	-0.285
Mof_O 	O 	0.295	0.6507	0.7481	-0.262
Mof_O 	O 	0.966	0.6354	0.7539	-0.276
Mof_O 	O 	0.3131	0.5554	0.9491	-0.269
Mof_O 	O 	0.2233	0.3733	0.0461	-0.262
Mof_O 	O 	0.9161	0.8941	0.5701	-0.425
Mof_H 	H 	0.8417	0.8358	0.5614	0.245
_end
