data_functionalizedCrystal
_audit_creation_method	'EQeq! by Chris Wilmer'
_symmetry_space_group_name_H-M	'P1'
_symmetry_Int_Tables_number	1
_symmetry_cell_setting	triclinic
loop_
_symmetry_equiv_pos_as_xyz
  x,y,z
_cell_length_a	10.8947
_cell_length_b	10.9708
_cell_length_c	13.9891
_cell_angle_alpha	81.54
_cell_angle_beta	89.016
_cell_angle_gamma	87.658
loop_
_atom_site_label
_atom_site_type_symbol
_atom_site_fract_x
_atom_site_fract_y
_atom_site_fract_z
_atom_site_charge
Mof_Zn	Zn	0.727	0.66383	0.60703	1.217
Mof_Zn	Zn	0.72296	0.62223	0.81924	1.222
Mof_H 	H 	0.5483	0.6481	0.4515	0.003
Mof_H 	H 	0.5422	0.6408	0.2904	0.084
Mof_H 	H 	0.5443	0.6353	0.9811	0.017
Mof_H 	H 	0.9066	0.6263	0.1374	0.092
Mof_H 	H 	0.9018	0.6841	0.4389	0.001
Mof_H 	H 	0.7824	0.2773	0.5833	0.045
Mof_H 	H 	0.5397	0.6506	0.14	0.101
Mof_H 	H 	0.1252	0.6446	0.5718	0.049
Mof_H 	H 	0.9049	0.681	0.2768	0.084
Mof_H 	H 	0.7818	0.0727	0.5742	0.051
Mof_H 	H 	0.8993	0.6088	0.9783	0.016
Mof_H 	H 	0.3313	0.6515	0.5725	0.047
Mof_H 	H 	0.2089	0.7907	0.9457	0.026
Mof_H 	H 	0.216	0.6574	0.0059	0.029
Mof_H 	H 	0.6306	0.073	0.0003	0.025
Mof_H 	H 	0.5144	0.0978	0.9337	0.018
Mof_C 	C 	0.7262	0.4069	0.7234	0.408
Mof_C 	C 	0.7259	0.2715	0.7208	-0.131
Mof_C 	C 	0.9579	0.6419	0.7129	0.412
Mof_C 	C 	0.6894	0.0604	0.7917	0.124
Mof_C 	C 	0.7236	0.645	0.1591	0.071
Mof_C 	C 	0.1562	0.664	0.7968	0.125
Mof_C 	C 	0.6212	0.6544	0.4159	0.086
Mof_C 	C 	0.6172	0.649	0.3191	-0.131
Mof_C 	C 	0.7241	0.6557	0.2631	0.063
Mof_C 	C 	0.0941	0.6532	0.7139	-0.127
Mof_C 	C 	0.6184	0.6341	0.0133	0.102
Mof_C 	C 	0.831	0.6295	0.1071	-0.132
Mof_C 	C 	0.8281	0.6759	0.4083	0.088
Mof_C 	C 	0.759	0.2236	0.6376	-0.003
Mof_C 	C 	0.6149	0.6442	0.1083	-0.137
Mof_C 	C 	0.69	0.1863	0.7983	0.121
Mof_C 	C 	0.2846	0.6685	0.7962	0.131
Mof_C 	C 	0.1645	0.6498	0.6295	-0.007
Mof_C 	C 	0.4897	0.6549	0.7136	0.437
Mof_C 	C 	0.3556	0.6614	0.7149	-0.143
Mof_C 	C 	0.7252	0.0123	0.7087	-0.129
Mof_C 	C 	0.8309	0.6723	0.3109	-0.134
Mof_C 	C 	0.7585	0.0992	0.6323	0
Mof_C 	C 	0.8258	0.6191	0.0114	0.099
Mof_C 	C 	0.2882	0.6538	0.6302	0.004
Mof_C 	C 	0.7252	0.8779	0.7026	0.436
Mof_C 	C 	0.2149	0.7033	0.9411	0.131
Mof_C 	C 	0.6035	0.0923	0.9339	0.13
Mof_N 	N 	0.7252	0.6683	0.4617	-0.252
Mof_N 	N 	0.7223	0.6227	0.9628	-0.25
Mof_O 	O 	0.7326	0.4755	0.6442	-0.472
Mof_O 	O 	0.9081	0.6605	0.6318	-0.47
Mof_O 	O 	0.904	0.615	0.7926	-0.459
Mof_O 	O 	0.5436	0.6648	0.6332	-0.475
Mof_O 	O 	0.5417	0.6402	0.7923	-0.465
Mof_O 	O 	0.7288	0.8079	0.78	-0.464
Mof_O 	O 	0.7233	0.8478	0.621	-0.458
Mof_O 	O 	0.7174	0.4414	0.8046	-0.448
Mof_O 	O 	0.1136	0.6688	0.8877	-0.206
Mof_O 	O 	0.3241	0.674	0.888	-0.199
Mof_O 	O 	0.6485	0.9987	0.8785	-0.198
Mof_O 	O 	0.6527	0.2068	0.8888	-0.207
Mof_Zn	Zn	0.273	0.33617	0.39297	1.218
Mof_Zn	Zn	0.27704	0.37777	0.18076	1.223
Mof_H 	H 	0.4517	0.3519	0.5485	0.004
Mof_H 	H 	0.4578	0.3592	0.7096	0.085
Mof_H 	H 	0.4557	0.3647	0.0189	0.017
Mof_H 	H 	0.0934	0.3737	0.8626	0.092
Mof_H 	H 	0.0982	0.3159	0.5611	0.001
Mof_H 	H 	0.2176	0.7227	0.4167	0.045
Mof_H 	H 	0.4603	0.3494	0.86	0.101
Mof_H 	H 	0.8748	0.3554	0.4282	0.049
Mof_H 	H 	0.0951	0.319	0.7232	0.084
Mof_H 	H 	0.2182	0.9273	0.4258	0.051
Mof_H 	H 	0.1007	0.3912	0.0217	0.016
Mof_H 	H 	0.6687	0.3485	0.4275	0.047
Mof_H 	H 	0.7911	0.2093	0.0543	0.026
Mof_H 	H 	0.784	0.3426	0.9941	0.029
Mof_H 	H 	0.3694	0.927	0.9997	0.025
Mof_H 	H 	0.4856	0.9022	0.0663	0.018
Mof_C 	C 	0.2738	0.5931	0.2766	0.408
Mof_C 	C 	0.2741	0.7285	0.2792	-0.131
Mof_C 	C 	0.0421	0.3581	0.2871	0.412
Mof_C 	C 	0.3106	0.9396	0.2083	0.124
Mof_C 	C 	0.2764	0.355	0.8409	0.071
Mof_C 	C 	0.8438	0.336	0.2032	0.125
Mof_C 	C 	0.3788	0.3456	0.5841	0.086
Mof_C 	C 	0.3828	0.351	0.6809	-0.131
Mof_C 	C 	0.2759	0.3443	0.7369	0.063
Mof_C 	C 	0.9059	0.3468	0.2861	-0.127
Mof_C 	C 	0.3816	0.3659	0.9867	0.102
Mof_C 	C 	0.169	0.3705	0.8929	-0.132
Mof_C 	C 	0.1719	0.3241	0.5917	0.088
Mof_C 	C 	0.241	0.7764	0.3624	-0.003
Mof_C 	C 	0.3851	0.3558	0.8917	-0.137
Mof_C 	C 	0.31	0.8137	0.2017	0.121
Mof_C 	C 	0.7154	0.3315	0.2038	0.131
Mof_C 	C 	0.8355	0.3502	0.3705	-0.007
Mof_C 	C 	0.5103	0.3451	0.2864	0.437
Mof_C 	C 	0.6444	0.3386	0.2851	-0.143
Mof_C 	C 	0.2748	0.9877	0.2913	-0.129
Mof_C 	C 	0.1691	0.3277	0.6891	-0.134
Mof_C 	C 	0.2415	0.9008	0.3677	0
Mof_C 	C 	0.1742	0.3809	0.9886	0.099
Mof_C 	C 	0.7118	0.3462	0.3698	0.004
Mof_C 	C 	0.2748	0.1221	0.2974	0.436
Mof_C 	C 	0.7851	0.2967	0.0589	0.131
Mof_C 	C 	0.3965	0.9077	0.0661	0.13
Mof_N 	N 	0.2748	0.3317	0.5383	-0.252
Mof_N 	N 	0.2777	0.3773	0.0372	-0.25
Mof_O 	O 	0.2674	0.5245	0.3558	-0.472
Mof_O 	O 	0.0919	0.3395	0.3682	-0.47
Mof_O 	O 	0.096	0.385	0.2074	-0.459
Mof_O 	O 	0.4564	0.3352	0.3668	-0.475
Mof_O 	O 	0.4583	0.3598	0.2077	-0.465
Mof_O 	O 	0.2712	0.1921	0.22	-0.464
Mof_O 	O 	0.2767	0.1522	0.379	-0.458
Mof_O 	O 	0.2826	0.5586	0.1954	-0.448
Mof_O 	O 	0.8864	0.3312	0.1123	-0.206
Mof_O 	O 	0.6759	0.326	0.112	-0.199
Mof_O 	O 	0.3515	0.0013	0.1215	-0.198
Mof_O 	O 	0.3473	0.7932	0.1112	-0.207
_end
