data_functionalizedCrystal
_audit_creation_method	'EQeq! by Chris Wilmer'
_symmetry_space_group_name_H-M	'P1'
_symmetry_Int_Tables_number	1
_symmetry_cell_setting	triclinic
loop_
_symmetry_equiv_pos_as_xyz
  x,y,z
_cell_length_a	16.6549
_cell_length_b	6.3378
_cell_length_c	22.208
_cell_angle_alpha	90
_cell_angle_beta	94.862
_cell_angle_gamma	90
loop_
_atom_site_label
_atom_site_type_symbol
_atom_site_fract_x
_atom_site_fract_y
_atom_site_fract_z
_atom_site_charge
Mof_Ti	Ti	0.2827	0.007	0.5753	2.179
Mof_Ti	Ti	0.3595	0.9978	0.8011	1.992
Mof_P 	P 	0.2306	0.5016	0.5691	0.793
Mof_P 	P 	0.4424	0.9276	0.6669	0.682
Mof_P 	P 	0.1956	0.0007	0.7064	0.808
Mof_F 	F 	0.1759	0.0158	0.5446	-0.606
Mof_O 	O 	0.2876	0.3121	0.5772	-0.515
Mof_O 	O 	0.2485	0.9983	0.6538	-0.601
Mof_O 	O 	0.2826	0.7002	0.5725	-0.517
Mof_O 	O 	0.1821	0.4898	0.5072	-0.48
Mof_O 	O 	0.3948	0.9954	0.608	-0.488
Mof_O 	O 	0.405	0.006	0.7227	-0.493
Mof_O 	O 	0.4407	0.6818	0.6638	-0.194
Mof_O 	O 	0.5288	0.0062	0.665	-0.455
Mof_O 	O 	0.1396	0.8078	0.7035	-0.497
Mof_O 	O 	0.1404	0.1955	0.703	-0.527
Mof_O 	O 	0.1716	0.5033	0.6186	-0.536
Mof_O 	O 	0.2501	0.0019	0.7656	-0.549
Mof_Ti	Ti	0.7827	0.507	0.5753	2.161
Mof_Ti	Ti	0.8595	0.4978	0.8011	2.037
Mof_P 	P 	0.7306	0.0016	0.5691	0.795
Mof_P 	P 	0.9424	0.4276	0.6669	0.701
Mof_P 	P 	0.6956	0.5007	0.7064	0.792
Mof_F 	F 	0.6759	0.5158	0.5446	-0.606
Mof_O 	O 	0.7876	0.8121	0.5772	-0.519
Mof_O 	O 	0.7485	0.4983	0.6538	-0.591
Mof_O 	O 	0.7826	0.2002	0.5725	-0.515
Mof_O 	O 	0.6821	0.9898	0.5072	-0.486
Mof_O 	O 	0.8948	0.4954	0.608	-0.486
Mof_O 	O 	0.905	0.506	0.7227	-0.512
Mof_O 	O 	0.9407	0.1818	0.6638	-0.194
Mof_O 	O 	0.0288	0.5062	0.665	-0.474
Mof_O 	O 	0.6396	0.3078	0.7035	-0.482
Mof_O 	O 	0.6404	0.6955	0.703	-0.523
Mof_O 	O 	0.6716	0.0033	0.6186	-0.524
Mof_O 	O 	0.7501	0.5019	0.7656	-0.56
Mof_Ti	Ti	0.7173	0.007	0.9247	2.177
Mof_Ti	Ti	0.6405	0.9978	0.6989	1.991
Mof_P 	P 	0.7694	0.5016	0.9309	0.791
Mof_P 	P 	0.5576	0.9276	0.8331	0.681
Mof_P 	P 	0.8044	0.0007	0.7936	0.807
Mof_F 	F 	0.8241	0.0158	0.9554	-0.606
Mof_O 	O 	0.7124	0.3121	0.9228	-0.516
Mof_O 	O 	0.7515	0.9983	0.8462	-0.602
Mof_O 	O 	0.7174	0.7002	0.9275	-0.517
Mof_O 	O 	0.8179	0.4898	0.9928	-0.481
Mof_O 	O 	0.6052	0.9954	0.892	-0.488
Mof_O 	O 	0.595	0.006	0.7773	-0.493
Mof_O 	O 	0.5593	0.6818	0.8362	-0.195
Mof_O 	O 	0.4712	0.0062	0.835	-0.455
Mof_O 	O 	0.8604	0.8078	0.7965	-0.497
Mof_O 	O 	0.8596	0.1955	0.797	-0.527
Mof_O 	O 	0.8284	0.5033	0.8814	-0.536
Mof_O 	O 	0.7499	0.0019	0.7344	-0.549
Mof_Ti	Ti	0.2173	0.507	0.9247	2.16
Mof_Ti	Ti	0.1405	0.4978	0.6989	2.037
Mof_P 	P 	0.2694	0.0016	0.9309	0.794
Mof_P 	P 	0.0576	0.4276	0.8331	0.7
Mof_P 	P 	0.3044	0.5007	0.7936	0.792
Mof_F 	F 	0.3241	0.5158	0.9554	-0.606
Mof_O 	O 	0.2124	0.8121	0.9228	-0.519
Mof_O 	O 	0.2515	0.4983	0.8462	-0.591
Mof_O 	O 	0.2174	0.2002	0.9275	-0.515
Mof_O 	O 	0.3179	0.9898	0.9928	-0.486
Mof_O 	O 	0.1052	0.4954	0.892	-0.486
Mof_O 	O 	0.095	0.506	0.7773	-0.513
Mof_O 	O 	0.0593	0.1818	0.8362	-0.195
Mof_O 	O 	0.9712	0.5062	0.835	-0.473
Mof_O 	O 	0.3604	0.3078	0.7965	-0.482
Mof_O 	O 	0.3596	0.6955	0.797	-0.523
Mof_O 	O 	0.3284	0.0033	0.8814	-0.524
Mof_O 	O 	0.2499	0.5019	0.7344	-0.56
Mof_Ti	Ti	0.7173	0.993	0.4247	2.178
Mof_Ti	Ti	0.6405	0.0022	0.1989	1.991
Mof_P 	P 	0.7694	0.4984	0.4309	0.792
Mof_P 	P 	0.5576	0.0724	0.3331	0.681
Mof_P 	P 	0.8044	0.9993	0.2936	0.807
Mof_F 	F 	0.8241	0.9842	0.4554	-0.607
Mof_O 	O 	0.7124	0.6879	0.4228	-0.516
Mof_O 	O 	0.7515	0.0017	0.3462	-0.602
Mof_O 	O 	0.7174	0.2998	0.4275	-0.518
Mof_O 	O 	0.8179	0.5102	0.4928	-0.481
Mof_O 	O 	0.6052	0.0046	0.392	-0.488
Mof_O 	O 	0.595	0.994	0.2773	-0.493
Mof_O 	O 	0.5593	0.3182	0.3362	-0.194
Mof_O 	O 	0.4712	0.9938	0.335	-0.455
Mof_O 	O 	0.8604	0.1922	0.2965	-0.497
Mof_O 	O 	0.8596	0.8045	0.297	-0.527
Mof_O 	O 	0.8284	0.4967	0.3814	-0.536
Mof_O 	O 	0.7499	0.9981	0.2344	-0.549
Mof_Ti	Ti	0.2173	0.493	0.4247	2.161
Mof_Ti	Ti	0.1405	0.5022	0.1989	2.037
Mof_P 	P 	0.2694	0.9984	0.4309	0.795
Mof_P 	P 	0.0576	0.5724	0.3331	0.701
Mof_P 	P 	0.3044	0.4993	0.2936	0.792
Mof_F 	F 	0.3241	0.4842	0.4554	-0.606
Mof_O 	O 	0.2124	0.1879	0.4228	-0.519
Mof_O 	O 	0.2515	0.5017	0.3462	-0.591
Mof_O 	O 	0.2174	0.7998	0.4275	-0.515
Mof_O 	O 	0.3179	0.0102	0.4928	-0.486
Mof_O 	O 	0.1052	0.5046	0.392	-0.486
Mof_O 	O 	0.095	0.494	0.2773	-0.512
Mof_O 	O 	0.0593	0.8182	0.3362	-0.194
Mof_O 	O 	0.9712	0.4938	0.335	-0.474
Mof_O 	O 	0.3604	0.6922	0.2965	-0.482
Mof_O 	O 	0.3596	0.3045	0.297	-0.523
Mof_O 	O 	0.3284	0.9967	0.3814	-0.524
Mof_O 	O 	0.2499	0.4981	0.2344	-0.56
Mof_Ti	Ti	0.2827	0.993	0.0753	2.177
Mof_Ti	Ti	0.3595	0.0022	0.3011	1.991
Mof_P 	P 	0.2306	0.4984	0.0691	0.791
Mof_P 	P 	0.4424	0.0724	0.1669	0.681
Mof_P 	P 	0.1956	0.9993	0.2064	0.807
Mof_F 	F 	0.1759	0.9842	0.0446	-0.606
Mof_O 	O 	0.2876	0.6879	0.0772	-0.516
Mof_O 	O 	0.2485	0.0017	0.1538	-0.602
Mof_O 	O 	0.2826	0.2998	0.0725	-0.517
Mof_O 	O 	0.1821	0.5102	0.0072	-0.481
Mof_O 	O 	0.3948	0.0046	0.108	-0.488
Mof_O 	O 	0.405	0.994	0.2227	-0.493
Mof_O 	O 	0.4407	0.3182	0.1638	-0.195
Mof_O 	O 	0.5288	0.9938	0.165	-0.455
Mof_O 	O 	0.1396	0.1922	0.2035	-0.497
Mof_O 	O 	0.1404	0.8045	0.203	-0.527
Mof_O 	O 	0.1716	0.4967	0.1186	-0.536
Mof_O 	O 	0.2501	0.9981	0.2656	-0.549
Mof_Ti	Ti	0.7827	0.493	0.0753	2.16
Mof_Ti	Ti	0.8595	0.5022	0.3011	2.037
Mof_P 	P 	0.7306	0.9984	0.0691	0.794
Mof_P 	P 	0.9424	0.5724	0.1669	0.7
Mof_P 	P 	0.6956	0.4993	0.2064	0.792
Mof_F 	F 	0.6759	0.4842	0.0446	-0.606
Mof_O 	O 	0.7876	0.1879	0.0772	-0.519
Mof_O 	O 	0.7485	0.5017	0.1538	-0.591
Mof_O 	O 	0.7826	0.7998	0.0725	-0.515
Mof_O 	O 	0.6821	0.0102	0.0072	-0.486
Mof_O 	O 	0.8948	0.5046	0.108	-0.486
Mof_O 	O 	0.905	0.494	0.2227	-0.513
Mof_O 	O 	0.9407	0.8182	0.1638	-0.195
Mof_O 	O 	0.0288	0.4938	0.165	-0.473
Mof_O 	O 	0.6396	0.6922	0.2035	-0.482
Mof_O 	O 	0.6404	0.3045	0.203	-0.523
Mof_O 	O 	0.6716	0.9967	0.1186	-0.524
Mof_O 	O 	0.7501	0.4981	0.2656	-0.56
_end
