data_functionalizedCrystal
_audit_creation_method	'EQeq! by Chris Wilmer'
_symmetry_space_group_name_H-M	'P1'
_symmetry_Int_Tables_number	1
_symmetry_cell_setting	triclinic
loop_
_symmetry_equiv_pos_as_xyz
  x,y,z
_cell_length_a	20.8935
_cell_length_b	16.0332
_cell_length_c	28.1694
_cell_angle_alpha	90
_cell_angle_beta	90
_cell_angle_gamma	90
loop_
_atom_site_label
_atom_site_type_symbol
_atom_site_fract_x
_atom_site_fract_y
_atom_site_fract_z
_atom_site_charge
Mof_Co	Co	0.84315	0.24881	0.83513	1.149
Mof_N 	N 	0.7963	0.36	0.8173	-0.198
Mof_N 	N 	0.8839	0.2483	0.7637	-0.189
Mof_O 	O 	0.8975	0.1431	0.8474	-0.447
Mof_O 	O 	0.7637	0.1855	0.8109	-0.445
Mof_O 	O 	0.8102	0.2473	0.905	-0.527
Mof_C 	C 	0.7339	0.3845	0.8191	0.101
Mof_N 	N 	0.8275	0.4334	0.8111	-0.18
Mof_C 	C 	0.7289	0.4698	0.8146	-0.118
Mof_H 	H 	0.8684	0.4381	0.809	0.12
Mof_C 	C 	0.7875	0.4964	0.8087	0.12
Mof_C 	C 	0.6715	0.5263	0.8227	0.254
Mof_H 	H 	0.7991	0.5517	0.8037	0
Mof_N 	N 	0.6162	0.4848	0.8282	-0.155
Mof_O 	O 	0.6776	0.6004	0.8255	-0.238
Mof_C 	C 	0.5555	0.5212	0.8363	0.118
Mof_C 	C 	0.5049	0.4614	0.8456	-0.067
Mof_C 	C 	0.5437	0.6046	0.8414	-0.085
Mof_H 	H 	0.5126	0.4044	0.8435	0.074
Mof_C 	C 	0.4442	0.4913	0.8578	-0.066
Mof_C 	C 	0.4837	0.6319	0.8565	-0.065
Mof_H 	H 	0.5757	0.6432	0.8347	0.104
Mof_C 	C 	0.4333	0.5727	0.864	0.011
Mof_C 	C 	0.3905	0.4276	0.8669	0.383
Mof_C 	C 	0.472	0.7231	0.8605	0.325
Mof_H 	H 	0.393	0.591	0.8733	0.032
Mof_O 	O 	0.3467	0.4481	0.8936	-0.454
Mof_O 	O 	0.425	0.7524	0.883	-0.526
Mof_O 	O 	0.5114	0.7723	0.8414	-0.378
Mof_Co	Co	0.27677	0.37802	0.92494	1.169
Mof_Co	Co	0.45832	0.87824	0.86409	1.171
Mof_Co	Co	0.39153	0.75059	0.95422	1.146
Mof_O 	O 	0.5103	0.9714	0.8328	-0.413
Mof_O 	O 	0.3878	0.9499	0.8955	-0.445
Mof_O 	O 	0.5176	0.8899	0.9216	-0.399
Mof_C 	C 	0.5028	0.0135	0.7964	0.357
Mof_O 	O 	0.4542	0.0172	0.7732	-0.303
Mof_C 	C 	0.5597	0.0604	0.7787	-0.053
Mof_C 	C 	0.5604	0.0953	0.7339	-0.086
Mof_C 	C 	0.6112	0.0762	0.8107	-0.004
Mof_H 	H 	0.5252	0.0887	0.7141	0.088
Mof_C 	C 	0.6126	0.1396	0.7182	0.119
Mof_C 	C 	0.6638	0.1216	0.7961	-0.052
Mof_H 	H 	0.6093	0.0558	0.8416	0.067
Mof_N 	N 	0.6139	0.1704	0.6709	-0.148
Mof_C 	C 	0.6667	0.1521	0.7488	-0.077
Mof_C 	C 	0.7214	0.1415	0.8276	0.39
Mof_O 	O 	0.7152	0.1126	0.8683	-0.419
Mof_O 	O 	0.721	0.0332	0.9565	-0.378
Mof_O 	O 	0.7272	0.2293	0.9506	-0.386
Mof_C 	C 	0.6389	0.2424	0.6561	0.224
Mof_H 	H 	0.703	0.1797	0.7378	0.091
Mof_C 	C 	0.7635	0.2776	0.9303	0.326
Mof_O 	O 	0.658	0.2964	0.6868	-0.209
Mof_C 	C 	0.6408	0.2612	0.6078	-0.088
Mof_C 	C 	0.7536	0.3679	0.9344	-0.068
Mof_C 	C 	0.6211	0.2176	0.5653	0.072
Mof_C 	C 	0.6746	0.3312	0.5898	0.092
Mof_C 	C 	0.8046	0.4228	0.9261	0.002
Mof_C 	C 	0.6956	0.3974	0.9496	-0.082
Mof_N 	N 	0.6434	0.2532	0.5242	-0.19
Mof_H 	H 	0.5958	0.1699	0.5658	0.025
Mof_N 	N 	0.6741	0.3248	0.5431	-0.174
Mof_H 	H 	0.6934	0.3735	0.6076	0.024
Mof_H 	H 	0.8449	0.403	0.9178	0.033
Mof_C 	C 	0.7926	0.5095	0.9309	-0.055
Mof_C 	C 	0.685	0.4829	0.9509	0.119
Mof_H 	H 	0.6636	0.3605	0.9589	0.101
Mof_H 	H 	0.6915	0.3618	0.5251	0.124
Mof_C 	C 	0.7324	0.5384	0.9462	-0.086
Mof_C 	C 	0.8445	0.5737	0.9211	0.374
Mof_N 	N 	0.6233	0.5181	0.9658	-0.147
Mof_H 	H 	0.7257	0.5946	0.9528	0.084
Mof_O 	O 	0.8372	0.6462	0.94	-0.446
Mof_C 	C 	0.5665	0.4787	0.9725	0.216
Mof_O 	O 	0.5625	0.3991	0.9724	-0.216
Mof_C 	C 	0.5103	0.5303	0.9736	-0.092
Mof_C 	C 	0.4487	0.4947	0.9729	0.078
Mof_C 	C 	0.4996	0.6183	0.9706	0.087
Mof_N 	N 	0.4085	0.5623	0.9722	-0.165
Mof_H 	H 	0.4378	0.4385	0.9729	0.01
Mof_N 	N 	0.4398	0.6379	0.9685	-0.201
Mof_H 	H 	0.5325	0.6574	0.9703	0.009
Mof_H 	H 	0.3675	0.558	0.974	0.105
Mof_O 	O 	0.4698	0.8135	0.9788	-0.413
Mof_C 	C 	0.5179	0.8607	0.9625	0.324
Mof_C 	C 	0.5678	0.8805	0.9986	-0.029
Mof_C 	C 	0.6208	0.928	0.9808	-0.088
Mof_C 	C 	0.5644	0.8526	0.0422	-0.093
Mof_H 	H 	0.6213	0.9489	0.95	0.094
Mof_C 	C 	0.6697	0.9408	0.0109	0.048
Mof_C 	C 	0.6105	0.8683	0.0763	0.145
Mof_H 	H 	0.5291	0.8206	0.0508	0.107
Mof_C 	C 	0.668	0.9154	0.0568	-0.122
Mof_C 	C 	0.7284	0.9908	0.9938	0.239
Mof_N 	N 	0.6119	0.8437	0.1216	-0.158
Mof_H 	H 	0.7025	0.9268	0.0766	0.098
Mof_O 	O 	0.7806	0.982	0.0164	-0.253
Mof_C 	C 	0.5671	0.7951	0.1441	0.245
Mof_O 	O 	0.5242	0.7607	0.1213	-0.224
Mof_C 	C 	0.5786	0.7682	0.1907	-0.116
Mof_C 	C 	0.5352	0.7189	0.2172	0.102
Mof_C 	C 	0.6251	0.7855	0.2263	0.113
Mof_N 	N 	0.5622	0.709	0.2575	-0.173
Mof_H 	H 	0.4957	0.6983	0.2075	0.022
Mof_H 	H 	0.6592	0.8219	0.2217	0.007
Mof_H 	H 	0.5457	0.6782	0.2793	0.12
Mof_Co	Co	0.15685	0.75119	0.33513	1.148
Mof_N 	N 	0.2037	0.64	0.3173	-0.199
Mof_N 	N 	0.1161	0.7517	0.2637	-0.19
Mof_O 	O 	0.1025	0.8569	0.3474	-0.447
Mof_O 	O 	0.2363	0.8145	0.3109	-0.446
Mof_O 	O 	0.1898	0.7527	0.405	-0.526
Mof_C 	C 	0.2661	0.6155	0.3191	0.101
Mof_N 	N 	0.1725	0.5666	0.3111	-0.18
Mof_C 	C 	0.2711	0.5302	0.3146	-0.118
Mof_H 	H 	0.1316	0.5619	0.309	0.12
Mof_C 	C 	0.2125	0.5036	0.3087	0.12
Mof_C 	C 	0.3285	0.4737	0.3227	0.254
Mof_H 	H 	0.2009	0.4483	0.3037	0.001
Mof_N 	N 	0.3838	0.5152	0.3282	-0.155
Mof_O 	O 	0.3224	0.3996	0.3255	-0.237
Mof_C 	C 	0.4445	0.4788	0.3363	0.118
Mof_C 	C 	0.4951	0.5386	0.3456	-0.067
Mof_C 	C 	0.4563	0.3954	0.3414	-0.085
Mof_H 	H 	0.4874	0.5956	0.3435	0.074
Mof_C 	C 	0.5558	0.5087	0.3578	-0.066
Mof_C 	C 	0.5163	0.3681	0.3565	-0.065
Mof_H 	H 	0.4243	0.3568	0.3347	0.104
Mof_C 	C 	0.5667	0.4273	0.364	0.01
Mof_C 	C 	0.6095	0.5724	0.3669	0.383
Mof_C 	C 	0.528	0.2769	0.3605	0.325
Mof_H 	H 	0.607	0.409	0.3733	0.033
Mof_O 	O 	0.6533	0.5519	0.3936	-0.453
Mof_O 	O 	0.575	0.2476	0.383	-0.526
Mof_O 	O 	0.4886	0.2277	0.3414	-0.377
Mof_Co	Co	0.72323	0.62198	0.42494	1.171
Mof_Co	Co	0.54168	0.12176	0.36409	1.171
Mof_Co	Co	0.60847	0.24941	0.45422	1.149
Mof_O 	O 	0.4897	0.0286	0.3328	-0.411
Mof_O 	O 	0.6122	0.0501	0.3955	-0.444
Mof_O 	O 	0.4824	0.1101	0.4216	-0.398
Mof_C 	C 	0.4972	0.9865	0.2964	0.356
Mof_O 	O 	0.5458	0.9828	0.2732	-0.302
Mof_C 	C 	0.4403	0.9396	0.2787	-0.051
Mof_C 	C 	0.4396	0.9047	0.2339	-0.086
Mof_C 	C 	0.3888	0.9238	0.3107	-0.005
Mof_H 	H 	0.4748	0.9113	0.2141	0.089
Mof_C 	C 	0.3874	0.8604	0.2182	0.12
Mof_C 	C 	0.3362	0.8784	0.2961	-0.051
Mof_H 	H 	0.3907	0.9442	0.3416	0.067
Mof_N 	N 	0.3861	0.8296	0.1709	-0.147
Mof_C 	C 	0.3333	0.8479	0.2488	-0.077
Mof_C 	C 	0.2786	0.8585	0.3276	0.39
Mof_O 	O 	0.2848	0.8874	0.3683	-0.418
Mof_O 	O 	0.279	0.9668	0.4565	-0.388
Mof_O 	O 	0.2728	0.7707	0.4506	-0.383
Mof_C 	C 	0.3611	0.7576	0.1561	0.225
Mof_H 	H 	0.297	0.8203	0.2378	0.092
Mof_C 	C 	0.2365	0.7224	0.4303	0.326
Mof_O 	O 	0.342	0.7036	0.1868	-0.208
Mof_C 	C 	0.3592	0.7388	0.1078	-0.087
Mof_C 	C 	0.2464	0.6321	0.4344	-0.066
Mof_C 	C 	0.3789	0.7824	0.0653	0.074
Mof_C 	C 	0.3254	0.6688	0.0898	0.095
Mof_C 	C 	0.1954	0.5772	0.4261	0.001
Mof_C 	C 	0.3044	0.6026	0.4496	-0.083
Mof_N 	N 	0.3566	0.7468	0.0242	-0.182
Mof_H 	H 	0.4042	0.8301	0.0658	0.029
Mof_N 	N 	0.3259	0.6752	0.0431	-0.173
Mof_H 	H 	0.3066	0.6265	0.1076	0.024
Mof_H 	H 	0.1551	0.597	0.4178	0.034
Mof_C 	C 	0.2074	0.4905	0.4309	-0.053
Mof_C 	C 	0.315	0.5171	0.4509	0.122
Mof_H 	H 	0.3364	0.6395	0.4589	0.103
Mof_H 	H 	0.3085	0.6382	0.0251	0.129
Mof_C 	C 	0.2676	0.4616	0.4462	-0.087
Mof_C 	C 	0.1555	0.4263	0.4211	0.374
Mof_N 	N 	0.3767	0.4819	0.4658	-0.145
Mof_H 	H 	0.2743	0.4054	0.4528	0.087
Mof_O 	O 	0.1628	0.3538	0.44	-0.442
Mof_C 	C 	0.4335	0.5213	0.4725	0.217
Mof_O 	O 	0.4375	0.6009	0.4724	-0.213
Mof_C 	C 	0.4897	0.4697	0.4736	-0.09
Mof_C 	C 	0.5513	0.5053	0.4729	0.081
Mof_C 	C 	0.5004	0.3817	0.4706	0.089
Mof_N 	N 	0.5915	0.4377	0.4722	-0.165
Mof_H 	H 	0.5622	0.5615	0.4729	0.011
Mof_N 	N 	0.5602	0.3621	0.4685	-0.199
Mof_H 	H 	0.4675	0.3426	0.4703	0.011
Mof_H 	H 	0.6325	0.442	0.474	0.111
Mof_O 	O 	0.5302	0.1865	0.4788	-0.406
Mof_C 	C 	0.4821	0.1393	0.4625	0.322
Mof_C 	C 	0.4322	0.1195	0.4986	-0.016
Mof_C 	C 	0.3792	0.072	0.4808	-0.046
Mof_C 	C 	0.4356	0.1474	0.5422	-0.117
Mof_H 	H 	0.3787	0.0511	0.45	0.081
Mof_C 	C 	0.3303	0.0592	0.5109	-0.012
Mof_C 	C 	0.3895	0.1317	0.5763	0.141
Mof_H 	H 	0.4709	0.1794	0.5508	0.109
Mof_C 	C 	0.332	0.0846	0.5568	-0.1
Mof_C 	C 	0.2716	0.0092	0.4938	0.292
Mof_N 	N 	0.3881	0.1563	0.6216	-0.159
Mof_H 	H 	0.2975	0.0732	0.5766	0.088
Mof_O 	O 	0.2194	0.018	0.5164	-0.282
Mof_C 	C 	0.4329	0.2049	0.6441	0.244
Mof_O 	O 	0.4758	0.2393	0.6213	-0.226
Mof_C 	C 	0.4214	0.2318	0.6907	-0.117
Mof_C 	C 	0.4648	0.2811	0.7172	0.102
Mof_C 	C 	0.3749	0.2145	0.7263	0.113
Mof_N 	N 	0.4378	0.291	0.7575	-0.173
Mof_H 	H 	0.5043	0.3017	0.7075	0.021
Mof_H 	H 	0.3408	0.1781	0.7217	0.006
Mof_H 	H 	0.4543	0.3218	0.7793	0.12
Mof_Co	Co	0.34315	0.25119	0.83513	1.148
Mof_N 	N 	0.2963	0.14	0.8173	-0.199
Mof_N 	N 	0.3839	0.2517	0.7637	-0.19
Mof_O 	O 	0.3975	0.3569	0.8474	-0.448
Mof_O 	O 	0.2637	0.3145	0.8109	-0.446
Mof_O 	O 	0.3102	0.2527	0.905	-0.527
Mof_C 	C 	0.2339	0.1155	0.8191	0.101
Mof_N 	N 	0.3275	0.0666	0.8111	-0.18
Mof_C 	C 	0.2289	0.0302	0.8146	-0.118
Mof_H 	H 	0.3684	0.0619	0.809	0.12
Mof_C 	C 	0.2875	0.0036	0.8087	0.12
Mof_C 	C 	0.1715	0.9737	0.8227	0.255
Mof_H 	H 	0.2991	0.9483	0.8037	0
Mof_N 	N 	0.1162	0.0152	0.8282	-0.156
Mof_O 	O 	0.1776	0.8996	0.8255	-0.238
Mof_C 	C 	0.0555	0.9788	0.8363	0.119
Mof_C 	C 	0.0049	0.0386	0.8456	-0.069
Mof_C 	C 	0.0437	0.8954	0.8414	-0.085
Mof_H 	H 	0.0126	0.0956	0.8435	0.075
Mof_C 	C 	0.9442	0.0087	0.8578	-0.064
Mof_C 	C 	0.9837	0.8681	0.8565	-0.065
Mof_H 	H 	0.0757	0.8568	0.8347	0.104
Mof_C 	C 	0.9333	0.9273	0.864	0.008
Mof_C 	C 	0.8905	0.0724	0.8669	0.383
Mof_C 	C 	0.972	0.7769	0.8605	0.324
Mof_H 	H 	0.893	0.909	0.8733	0.032
Mof_O 	O 	0.8467	0.0519	0.8936	-0.453
Mof_O 	O 	0.925	0.7476	0.883	-0.526
Mof_O 	O 	0.0114	0.7277	0.8414	-0.377
Mof_Co	Co	0.77677	0.12198	0.92494	1.169
Mof_Co	Co	0.95832	0.62176	0.86409	1.17
Mof_Co	Co	0.89153	0.74941	0.95422	1.146
Mof_O 	O 	0.0103	0.5286	0.8328	-0.412
Mof_O 	O 	0.8878	0.5501	0.8955	-0.445
Mof_O 	O 	0.0176	0.6101	0.9216	-0.399
Mof_C 	C 	0.0028	0.4865	0.7964	0.357
Mof_O 	O 	0.9542	0.4828	0.7732	-0.303
Mof_C 	C 	0.0597	0.4396	0.7787	-0.053
Mof_C 	C 	0.0604	0.4047	0.7339	-0.086
Mof_C 	C 	0.1112	0.4238	0.8107	-0.004
Mof_H 	H 	0.0252	0.4113	0.7141	0.088
Mof_C 	C 	0.1126	0.3604	0.7182	0.119
Mof_C 	C 	0.1638	0.3784	0.7961	-0.052
Mof_H 	H 	0.1093	0.4442	0.8416	0.067
Mof_N 	N 	0.1139	0.3296	0.6709	-0.148
Mof_C 	C 	0.1667	0.3479	0.7488	-0.077
Mof_C 	C 	0.2214	0.3585	0.8276	0.39
Mof_O 	O 	0.2152	0.3874	0.8683	-0.419
Mof_O 	O 	0.221	0.4668	0.9565	-0.379
Mof_O 	O 	0.2272	0.2707	0.9506	-0.386
Mof_C 	C 	0.1389	0.2576	0.6561	0.224
Mof_H 	H 	0.203	0.3203	0.7378	0.091
Mof_C 	C 	0.2635	0.2224	0.9303	0.326
Mof_O 	O 	0.158	0.2036	0.6868	-0.209
Mof_C 	C 	0.1408	0.2388	0.6078	-0.088
Mof_C 	C 	0.2536	0.1321	0.9344	-0.068
Mof_C 	C 	0.1211	0.2824	0.5653	0.072
Mof_C 	C 	0.1746	0.1688	0.5898	0.092
Mof_C 	C 	0.3046	0.0772	0.9261	0.002
Mof_C 	C 	0.1956	0.1026	0.9496	-0.082
Mof_N 	N 	0.1434	0.2468	0.5242	-0.19
Mof_H 	H 	0.0958	0.3301	0.5658	0.025
Mof_N 	N 	0.1741	0.1752	0.5431	-0.174
Mof_H 	H 	0.1934	0.1265	0.6076	0.024
Mof_H 	H 	0.3449	0.097	0.9178	0.033
Mof_C 	C 	0.2926	0.9905	0.9309	-0.055
Mof_C 	C 	0.185	0.0171	0.9509	0.119
Mof_H 	H 	0.1636	0.1395	0.9589	0.101
Mof_H 	H 	0.1915	0.1382	0.5251	0.124
Mof_C 	C 	0.2324	0.9616	0.9462	-0.086
Mof_C 	C 	0.3445	0.9263	0.9211	0.374
Mof_N 	N 	0.1233	0.9819	0.9658	-0.146
Mof_H 	H 	0.2257	0.9054	0.9528	0.084
Mof_O 	O 	0.3372	0.8538	0.94	-0.446
Mof_C 	C 	0.0665	0.0213	0.9725	0.214
Mof_O 	O 	0.0625	0.1009	0.9724	-0.215
Mof_C 	C 	0.0103	0.9697	0.9736	-0.089
Mof_C 	C 	0.9487	0.0053	0.9729	0.078
Mof_C 	C 	0.9996	0.8817	0.9706	0.083
Mof_N 	N 	0.9085	0.9377	0.9722	-0.165
Mof_H 	H 	0.9378	0.0615	0.9729	0.01
Mof_N 	N 	0.9398	0.8621	0.9685	-0.201
Mof_H 	H 	0.0325	0.8426	0.9703	0.011
Mof_H 	H 	0.8675	0.942	0.974	0.105
Mof_O 	O 	0.9698	0.6865	0.9788	-0.414
Mof_C 	C 	0.0179	0.6393	0.9625	0.325
Mof_C 	C 	0.0678	0.6195	0.9986	-0.029
Mof_C 	C 	0.1208	0.572	0.9808	-0.086
Mof_C 	C 	0.0644	0.6474	0.0422	-0.094
Mof_H 	H 	0.1213	0.5511	0.95	0.093
Mof_C 	C 	0.1697	0.5592	0.0109	0.045
Mof_C 	C 	0.1105	0.6317	0.0763	0.145
Mof_H 	H 	0.0291	0.6794	0.0508	0.107
Mof_C 	C 	0.168	0.5846	0.0568	-0.121
Mof_C 	C 	0.2284	0.5092	0.9938	0.242
Mof_N 	N 	0.1119	0.6563	0.1216	-0.158
Mof_H 	H 	0.2025	0.5732	0.0766	0.097
Mof_O 	O 	0.2806	0.518	0.0164	-0.254
Mof_C 	C 	0.0671	0.7049	0.1441	0.245
Mof_O 	O 	0.0242	0.7393	0.1213	-0.224
Mof_C 	C 	0.0786	0.7318	0.1907	-0.115
Mof_C 	C 	0.0352	0.7811	0.2172	0.102
Mof_C 	C 	0.1251	0.7145	0.2263	0.113
Mof_N 	N 	0.0622	0.791	0.2575	-0.173
Mof_H 	H 	0.9957	0.8017	0.2075	0.022
Mof_H 	H 	0.1592	0.6781	0.2217	0.007
Mof_H 	H 	0.0457	0.8218	0.2793	0.12
Mof_Co	Co	0.65685	0.74881	0.33513	1.148
Mof_N 	N 	0.7037	0.86	0.3173	-0.199
Mof_N 	N 	0.6161	0.7483	0.2637	-0.19
Mof_O 	O 	0.6025	0.6431	0.3474	-0.448
Mof_O 	O 	0.7363	0.6855	0.3109	-0.446
Mof_O 	O 	0.6898	0.7473	0.405	-0.526
Mof_C 	C 	0.7661	0.8845	0.3191	0.101
Mof_N 	N 	0.6725	0.9334	0.3111	-0.18
Mof_C 	C 	0.7711	0.9698	0.3146	-0.118
Mof_H 	H 	0.6316	0.9381	0.309	0.12
Mof_C 	C 	0.7125	0.9964	0.3087	0.119
Mof_C 	C 	0.8285	0.0263	0.3227	0.255
Mof_H 	H 	0.7009	0.0517	0.3037	0.001
Mof_N 	N 	0.8838	0.9848	0.3282	-0.156
Mof_O 	O 	0.8224	0.1004	0.3255	-0.237
Mof_C 	C 	0.9445	0.0212	0.3363	0.12
Mof_C 	C 	0.9951	0.9614	0.3456	-0.07
Mof_C 	C 	0.9563	0.1046	0.3414	-0.085
Mof_H 	H 	0.9874	0.9044	0.3435	0.075
Mof_C 	C 	0.0558	0.9913	0.3578	-0.064
Mof_C 	C 	0.0163	0.1319	0.3565	-0.065
Mof_H 	H 	0.9243	0.1432	0.3347	0.104
Mof_C 	C 	0.0667	0.0727	0.364	0.008
Mof_C 	C 	0.1095	0.9276	0.3669	0.383
Mof_C 	C 	0.028	0.2231	0.3605	0.324
Mof_H 	H 	0.107	0.091	0.3733	0.033
Mof_O 	O 	0.1533	0.9481	0.3936	-0.452
Mof_O 	O 	0.075	0.2524	0.383	-0.526
Mof_O 	O 	0.9886	0.2723	0.3414	-0.376
Mof_Co	Co	0.22323	0.87802	0.42494	1.171
Mof_Co	Co	0.04168	0.37824	0.36409	1.171
Mof_Co	Co	0.10847	0.25059	0.45422	1.149
Mof_O 	O 	0.9897	0.4714	0.3328	-0.411
Mof_O 	O 	0.1122	0.4499	0.3955	-0.444
Mof_O 	O 	0.9824	0.3899	0.4216	-0.398
Mof_C 	C 	0.9972	0.5135	0.2964	0.357
Mof_O 	O 	0.0458	0.5172	0.2732	-0.303
Mof_C 	C 	0.9403	0.5604	0.2787	-0.051
Mof_C 	C 	0.9396	0.5953	0.2339	-0.086
Mof_C 	C 	0.8888	0.5762	0.3107	-0.005
Mof_H 	H 	0.9748	0.5887	0.2141	0.089
Mof_C 	C 	0.8874	0.6396	0.2182	0.12
Mof_C 	C 	0.8362	0.6216	0.2961	-0.051
Mof_H 	H 	0.8907	0.5558	0.3416	0.067
Mof_N 	N 	0.8861	0.6704	0.1709	-0.147
Mof_C 	C 	0.8333	0.6521	0.2488	-0.077
Mof_C 	C 	0.7786	0.6415	0.3276	0.39
Mof_O 	O 	0.7848	0.6126	0.3683	-0.418
Mof_O 	O 	0.779	0.5332	0.4565	-0.388
Mof_O 	O 	0.7728	0.7293	0.4506	-0.383
Mof_C 	C 	0.8611	0.7424	0.1561	0.225
Mof_H 	H 	0.797	0.6797	0.2378	0.092
Mof_C 	C 	0.7365	0.7776	0.4303	0.326
Mof_O 	O 	0.842	0.7964	0.1868	-0.208
Mof_C 	C 	0.8592	0.7612	0.1078	-0.087
Mof_C 	C 	0.7464	0.8679	0.4344	-0.066
Mof_C 	C 	0.8789	0.7176	0.0653	0.074
Mof_C 	C 	0.8254	0.8312	0.0898	0.095
Mof_C 	C 	0.6954	0.9228	0.4261	0.001
Mof_C 	C 	0.8044	0.8974	0.4496	-0.082
Mof_N 	N 	0.8566	0.7532	0.0242	-0.182
Mof_H 	H 	0.9042	0.6699	0.0658	0.029
Mof_N 	N 	0.8259	0.8248	0.0431	-0.173
Mof_H 	H 	0.8066	0.8735	0.1076	0.024
Mof_H 	H 	0.6551	0.903	0.4178	0.034
Mof_C 	C 	0.7074	0.0095	0.4309	-0.053
Mof_C 	C 	0.815	0.9829	0.4509	0.12
Mof_H 	H 	0.8364	0.8605	0.4589	0.103
Mof_H 	H 	0.8085	0.8618	0.0251	0.129
Mof_C 	C 	0.7676	0.0384	0.4462	-0.085
Mof_C 	C 	0.6555	0.0737	0.4211	0.374
Mof_N 	N 	0.8767	0.0181	0.4658	-0.144
Mof_H 	H 	0.7743	0.0946	0.4528	0.087
Mof_O 	O 	0.6628	0.1462	0.44	-0.442
Mof_C 	C 	0.9335	0.9787	0.4725	0.215
Mof_O 	O 	0.9375	0.8991	0.4724	-0.213
Mof_C 	C 	0.9897	0.0303	0.4736	-0.087
Mof_C 	C 	0.0513	0.9947	0.4729	0.079
Mof_C 	C 	0.0004	0.1183	0.4706	0.085
Mof_N 	N 	0.0915	0.0623	0.4722	-0.165
Mof_H 	H 	0.0622	0.9385	0.4729	0.012
Mof_N 	N 	0.0602	0.1379	0.4685	-0.198
Mof_H 	H 	0.9675	0.1574	0.4703	0.013
Mof_H 	H 	0.1325	0.058	0.474	0.111
Mof_O 	O 	0.0302	0.3135	0.4788	-0.406
Mof_C 	C 	0.9821	0.3607	0.4625	0.322
Mof_C 	C 	0.9322	0.3805	0.4986	-0.017
Mof_C 	C 	0.8792	0.428	0.4808	-0.046
Mof_C 	C 	0.9356	0.3526	0.5422	-0.116
Mof_H 	H 	0.8787	0.4489	0.45	0.081
Mof_C 	C 	0.8303	0.4408	0.5109	-0.012
Mof_C 	C 	0.8895	0.3683	0.5763	0.141
Mof_H 	H 	0.9709	0.3206	0.5508	0.109
Mof_C 	C 	0.832	0.4154	0.5568	-0.1
Mof_C 	C 	0.7716	0.4908	0.4938	0.292
Mof_N 	N 	0.8881	0.3437	0.6216	-0.159
Mof_H 	H 	0.7975	0.4268	0.5766	0.088
Mof_O 	O 	0.7194	0.482	0.5164	-0.282
Mof_C 	C 	0.9329	0.2951	0.6441	0.244
Mof_O 	O 	0.9758	0.2607	0.6213	-0.226
Mof_C 	C 	0.9214	0.2682	0.6907	-0.117
Mof_C 	C 	0.9648	0.2189	0.7172	0.103
Mof_C 	C 	0.8749	0.2855	0.7263	0.114
Mof_N 	N 	0.9378	0.209	0.7575	-0.173
Mof_H 	H 	0.0043	0.1983	0.7075	0.02
Mof_H 	H 	0.8408	0.3219	0.7217	0.006
Mof_H 	H 	0.9543	0.1782	0.7793	0.12
_end
