data_functionalizedCrystal
_audit_creation_method	'EQeq! by Chris Wilmer'
_symmetry_space_group_name_H-M	'P1'
_symmetry_Int_Tables_number	1
_symmetry_cell_setting	triclinic
loop_
_symmetry_equiv_pos_as_xyz
  x,y,z
_cell_length_a	10.7022
_cell_length_b	10.7022
_cell_length_c	22.8742
_cell_angle_alpha	90
_cell_angle_beta	90
_cell_angle_gamma	120
loop_
_atom_site_label
_atom_site_type_symbol
_atom_site_fract_x
_atom_site_fract_y
_atom_site_fract_z
_atom_site_charge
Mof_Co	Co	0.6447	0.2897	0.6775	1.116
Mof_Co	Co	0.645	0.3553	0.01083	1.108
Mof_Co	Co	0.7103	0.355	0.34417	1.115
Mof_H 	H 	0.6507	0.4206	0.7987	-0.014
Mof_H 	H 	0.7849	0.5968	0.8588	0.073
Mof_H 	H 	0.1211	0.679	0.76	0.073
Mof_H 	H 	0.9648	0.5258	0.6911	0.001
Mof_H 	H 	0.9087	0.8298	0.8822	0.064
Mof_H 	H 	0.0537	0.0043	0.9519	0.039
Mof_H 	H 	0.4	0.0111	0.8889	0.013
Mof_H 	H 	0.2632	0.8119	0.8321	0.066
Mof_H 	H 	0.5362	0.5086	0.659	0.005
Mof_H 	H 	0.5722	0.6935	0.5997	0.074
Mof_H 	H 	0.8074	0.5981	0.4963	0.063
Mof_H 	H 	0.784	0.4274	0.5605	-0.005
Mof_H 	H 	0.5599	0.8124	0.5277	0.063
Mof_H 	H 	0.5969	0.995	0.463	0.022
Mof_H 	H 	0.9522	0.0065	0.4019	0.026
Mof_H 	H 	0.9054	0.8123	0.4605	0.07
Mof_H 	H 	0.7699	0.3493	0.13203	-0.016
Mof_H 	H 	0.8119	0.2151	0.19213	0.071
Mof_H 	H 	0.5579	0.8789	0.09333	0.072
Mof_H 	H 	0.561	0.0352	0.02443	-0.006
Mof_H 	H 	0.9211	0.0913	0.21553	0.05
Mof_H 	H 	0.9506	0.9463	0.28523	0.049
Mof_H 	H 	0.6111	0.6	0.22223	0.03
Mof_H 	H 	0.5487	0.7368	0.16543	0.053
Mof_H 	H 	0.9724	0.4638	0.99233	0.015
Mof_H 	H 	0.1213	0.4278	0.93303	0.07
Mof_H 	H 	0.7907	0.1926	0.82963	0.06
Mof_H 	H 	0.6434	0.216	0.89383	-0.002
Mof_H 	H 	0.2525	0.4401	0.86103	0.061
Mof_H 	H 	0.3981	0.4031	0.79633	0.028
Mof_H 	H 	0.0543	0.0478	0.73523	0.044
Mof_H 	H 	0.9069	0.0946	0.79383	0.057
Mof_H 	H 	0.5794	0.2301	0.46537	-0.018
Mof_H 	H 	0.4032	0.1881	0.52547	0.076
Mof_H 	H 	0.321	0.4421	0.42667	0.083
Mof_H 	H 	0.4742	0.439	0.35777	-0.004
Mof_H 	H 	0.1702	0.0789	0.54887	0.065
Mof_H 	H 	0.9957	0.0494	0.61857	0.03
Mof_H 	H 	0.9889	0.3889	0.55557	0.013
Mof_H 	H 	0.1881	0.4513	0.49877	0.062
Mof_H 	H 	0.4914	0.0276	0.32567	0.01
Mof_H 	H 	0.3065	0.8787	0.26637	0.064
Mof_H 	H 	0.4019	0.2093	0.16297	0.056
Mof_H 	H 	0.5726	0.3566	0.22717	-0.002
Mof_H 	H 	0.1876	0.7475	0.19437	0.067
Mof_H 	H 	0.005	0.6019	0.12967	0.018
Mof_H 	H 	0.9935	0.9457	0.06857	0.026
Mof_H 	H 	0.1877	0.0931	0.12717	0.066
Mof_C 	C 	0.7488	0.4818	0.788	0.099
Mof_C 	C 	0.8272	0.5822	0.8248	-0.152
Mof_C 	C 	0.9736	0.6695	0.8141	0.065
Mof_C 	C 	0.02	0.634	0.7668	-0.124
Mof_C 	C 	0.927	0.535	0.7274	0.075
Mof_C 	C 	0.0666	0.7906	0.8534	0.038
Mof_C 	C 	0.007	0.857	0.8864	-0.089
Mof_C 	C 	0.096	0.966	0.9263	0.049
Mof_C 	C 	0.2467	0.0197	0.9294	-0.127
Mof_C 	C 	0.298	0.966	0.8917	0.072
Mof_C 	C 	0.2175	0.8508	0.8555	-0.113
Mof_C 	C 	0.3421	0.1479	0.969	0.361
Mof_C 	C 	0.597	0.529	0.6258	0.075
Mof_C 	C 	0.617	0.639	0.5899	-0.129
Mof_C 	C 	0.6989	0.6734	0.5404	0.064
Mof_C 	C 	0.754	0.5857	0.5311	-0.132
Mof_C 	C 	0.737	0.4807	0.569	0.075
Mof_C 	C 	0.726	0.7919	0.5011	0.039
Mof_C 	C 	0.639	0.849	0.5013	-0.11
Mof_C 	C 	0.663	0.96	0.4631	0.056
Mof_C 	C 	0.776	0.0214	0.4266	-0.13
Mof_C 	C 	0.87	0.966	0.4266	0.061
Mof_C 	C 	0.843	0.851	0.4622	-0.107
Mof_C 	C 	0.802	0.141	0.3856	0.335
Mof_C 	C 	0.733	0.2512	0.12133	0.1
Mof_C 	C 	0.755	0.1728	0.15813	-0.157
Mof_C 	C 	0.6959	0.0264	0.14743	0.071
Mof_C 	C 	0.614	0.98	0.10013	-0.128
Mof_C 	C 	0.608	0.073	0.06073	0.075
Mof_C 	C 	0.724	0.9334	0.18673	0.016
Mof_C 	C 	0.85	0.993	0.21973	-0.063
Mof_C 	C 	0.87	0.904	0.25963	0.008
Mof_C 	C 	0.773	0.7533	0.26273	-0.087
Mof_C 	C 	0.668	0.702	0.22503	0.024
Mof_C 	C 	0.6333	0.7825	0.18883	-0.084
Mof_C 	C 	0.8058	0.6579	0.30233	0.324
Mof_C 	C 	0.932	0.403	0.95913	0.061
Mof_C 	C 	0.022	0.383	0.92323	-0.105
Mof_C 	C 	0.9745	0.3011	0.87373	0.049
Mof_C 	C 	0.8317	0.246	0.86443	-0.123
Mof_C 	C 	0.7437	0.263	0.90233	0.071
Mof_C 	C 	0.0659	0.274	0.83443	0.034
Mof_C 	C 	0.21	0.361	0.83463	-0.097
Mof_C 	C 	0.297	0.337	0.79643	0.032
Mof_C 	C 	0.2454	0.224	0.75993	-0.1
Mof_C 	C 	0.096	0.13	0.75993	0.024
Mof_C 	C 	0.008	0.157	0.79553	-0.079
Mof_C 	C 	0.339	0.198	0.71893	0.326
Mof_C 	C 	0.5182	0.267	0.45467	0.11
Mof_C 	C 	0.4178	0.245	0.49147	-0.168
Mof_C 	C 	0.3305	0.3041	0.48077	0.09
Mof_C 	C 	0.366	0.386	0.43347	-0.155
Mof_C 	C 	0.465	0.392	0.39407	0.095
Mof_C 	C 	0.2094	0.276	0.52007	0.024
Mof_C 	C 	0.143	0.15	0.55307	-0.094
Mof_C 	C 	0.034	0.13	0.59297	0.047
Mof_C 	C 	0.9803	0.227	0.59607	-0.125
Mof_C 	C 	0.034	0.332	0.55837	0.066
Mof_C 	C 	0.1492	0.3667	0.52217	-0.107
Mof_C 	C 	0.8521	0.1942	0.63567	0.336
Mof_C 	C 	0.471	0.068	0.29247	0.053
Mof_C 	C 	0.361	0.978	0.25657	-0.096
Mof_C 	C 	0.3266	0.0255	0.20707	0.035
Mof_C 	C 	0.4143	0.1683	0.19777	-0.115
Mof_C 	C 	0.5193	0.2563	0.23567	0.065
Mof_C 	C 	0.2081	0.9341	0.16777	0.055
Mof_C 	C 	0.151	0.79	0.16797	-0.121
Mof_C 	C 	0.04	0.703	0.12977	0.061
Mof_C 	C 	0.9786	0.7546	0.09327	-0.135
Mof_C 	C 	0.034	0.904	0.09327	0.061
Mof_C 	C 	0.149	0.992	0.12887	-0.104
Mof_C 	C 	0.859	0.661	0.05227	0.336
Mof_N 	N 	0.7882	0.4525	0.7373	-0.246
Mof_N 	N 	0.6578	0.4471	0.6169	-0.241
Mof_N 	N 	0.6643	0.2118	0.07063	-0.249
Mof_N 	N 	0.7893	0.3422	0.95023	-0.232
Mof_N 	N 	0.5475	0.3357	0.40397	-0.252
Mof_N 	N 	0.5529	0.2107	0.28357	-0.236
Mof_O 	O 	0.2782	0.1939	0.0025	-0.315
Mof_O 	O 	0.7107	0.1834	0.3859	-0.437
Mof_O 	O 	0.913	0.1908	0.353	-0.294
Mof_O 	O 	0.4731	0.1863	0.9687	-0.44
Mof_O 	O 	0.9157	0.7218	0.33583	-0.29
Mof_O 	O 	0.4727	0.2893	0.71923	-0.434
Mof_O 	O 	0.2778	0.087	0.68633	-0.29
Mof_O 	O 	0.7132	0.5269	0.30203	-0.441
Mof_O 	O 	0.8061	0.0843	0.66917	-0.294
Mof_O 	O 	0.8166	0.5273	0.05257	-0.443
Mof_O 	O 	0.8092	0.7222	0.01967	-0.299
Mof_O 	O 	0.8137	0.2868	0.63537	-0.444
_end
