data_functionalizedCrystal
_audit_creation_method	'EQeq! by Chris Wilmer'
_symmetry_space_group_name_H-M	'P1'
_symmetry_Int_Tables_number	1
_symmetry_cell_setting	triclinic
loop_
_symmetry_equiv_pos_as_xyz
  x,y,z
_cell_length_a	9.761
_cell_length_b	10.645
_cell_length_c	10.956
_cell_angle_alpha	63.331
_cell_angle_beta	65.969
_cell_angle_gamma	67.128
loop_
_atom_site_label
_atom_site_type_symbol
_atom_site_fract_x
_atom_site_fract_y
_atom_site_fract_z
_atom_site_charge
Mof_Nd	Nd	0.71421	0.99232	0.49249	2.511
Mof_O 	O 	0.5701	0.1624	0.6257	-0.528
Mof_O 	O 	0.4023	0.1246	0.5672	-0.701
Mof_O 	O 	0.9149	0.8057	0.5887	-0.633
Mof_O 	O 	0.1129	0.8584	0.5904	-0.63
Mof_O 	O 	0.6284	0.1881	0.2935	-0.591
Mof_O 	O 	0.4131	0.1666	0.2855	-0.58
Mof_C 	C 	0.4388	0.1994	0.6074	0.439
Mof_C 	C 	0.3272	0.3388	0.6249	-0.126
Mof_C 	C 	0.3784	0.4298	0.6472	-0.032
Mof_H 	H 	0.476	0.3974	0.6654	0.046
Mof_C 	C 	0.2854	0.569	0.6428	0.034
Mof_H 	H 	0.3213	0.6322	0.6556	0.011
Mof_C 	C 	0.1411	0.6162	0.6201	-0.179
Mof_C 	C 	0.0856	0.52	0.6083	0.005
Mof_H 	H 	0.984	0.5488	0.5994	0.015
Mof_C 	C 	0.18	0.3815	0.6098	-0.004
Mof_H 	H 	0.1431	0.3168	0.6003	-0.02
Mof_C 	C 	0.0493	0.7715	0.5991	0.557
Mof_C 	C 	0.5162	0.2317	0.2423	0.492
Mof_C 	C 	0.5082	0.3718	0.1163	-0.132
Mof_C 	C 	0.3802	0.4314	0.0638	-0.009
Mof_H 	H 	0.298	0.3848	0.1079	0.034
Mof_C 	C 	0.6273	0.4412	0.0527	-0.008
Mof_H 	H 	0.7142	0.4013	0.0892	0.029
Mof_Nd	Nd	0.28579	0.00768	0.50751	2.511
Mof_O 	O 	0.4299	0.8376	0.3743	-0.528
Mof_O 	O 	0.5977	0.8754	0.4328	-0.701
Mof_O 	O 	0.0851	0.1943	0.4113	-0.633
Mof_O 	O 	0.8871	0.1416	0.4096	-0.63
Mof_O 	O 	0.3716	0.8119	0.7065	-0.591
Mof_O 	O 	0.5869	0.8334	0.7145	-0.58
Mof_C 	C 	0.5612	0.8006	0.3926	0.439
Mof_C 	C 	0.6728	0.6612	0.3751	-0.126
Mof_C 	C 	0.6216	0.5702	0.3528	-0.032
Mof_H 	H 	0.524	0.6026	0.3346	0.046
Mof_C 	C 	0.7146	0.431	0.3572	0.034
Mof_H 	H 	0.6787	0.3678	0.3444	0.011
Mof_C 	C 	0.8589	0.3838	0.3799	-0.179
Mof_C 	C 	0.9144	0.48	0.3917	0.005
Mof_H 	H 	0.016	0.4512	0.4006	0.015
Mof_C 	C 	0.82	0.6185	0.3902	-0.004
Mof_H 	H 	0.8569	0.6832	0.3997	-0.02
Mof_C 	C 	0.9507	0.2285	0.4009	0.557
Mof_C 	C 	0.4838	0.7683	0.7577	0.492
Mof_C 	C 	0.4918	0.6282	0.8837	-0.132
Mof_C 	C 	0.6198	0.5686	0.9362	-0.009
Mof_H 	H 	0.702	0.6152	0.8921	0.034
Mof_C 	C 	0.3727	0.5588	0.9473	-0.008
Mof_H 	H 	0.2858	0.5987	0.9108	0.029
_end
