data_functionalizedCrystal
_audit_creation_method	'EQeq! by Chris Wilmer'
_symmetry_space_group_name_H-M	'P1'
_symmetry_Int_Tables_number	1
_symmetry_cell_setting	triclinic
loop_
_symmetry_equiv_pos_as_xyz
  x,y,z
_cell_length_a	21.2928
_cell_length_b	21.2928
_cell_length_c	10.7304
_cell_angle_alpha	90
_cell_angle_beta	90
_cell_angle_gamma	90
loop_
_atom_site_label
_atom_site_type_symbol
_atom_site_fract_x
_atom_site_fract_y
_atom_site_fract_z
_atom_site_charge
Mof_Al	Al	0.2554	0.3138	0.2443	5.69
Mof_O 	O 	0.2487	0.2594	0.3805	-1.972
Mof_C 	C 	0.0564	0.3324	0.2586	-0.399
Mof_C 	C 	0.9395	0.3749	0.3453	0.156
Mof_C 	C 	0.1188	0.3141	0.2103	1.068
Mof_C 	C 	0.0524	0.3756	0.3585	0.165
Mof_C 	C 	0.0008	0.31	0.203	0.277
Mof_C 	C 	0.8831	0.3126	0.1826	0.914
Mof_C 	C 	0.942	0.3317	0.2452	-0.316
Mof_C 	C 	0.9943	0.3964	0.4015	-0.114
Mof_O 	O 	0.1685	0.3318	0.259	-1.413
Mof_O 	O 	0.8353	0.3296	0.2499	-1.235
Mof_O 	O 	0.8849	0.2665	0.1149	-1.107
Mof_O 	O 	0.1205	0.2773	0.1157	-1.1
Mof_C 	C 	0.5578	0.2688	0.2051	-0.36
Mof_C 	C 	0.4452	0.273	0.0707	0.22
Mof_C 	C 	0.6164	0.2752	0.2756	1.02
Mof_C 	C 	0.5582	0.2778	0.0745	0.196
Mof_C 	C 	0.5007	0.2602	0.2677	0.276
Mof_C 	C 	0.384	0.2652	0.2678	1.162
Mof_C 	C 	0.4442	0.2639	0.2013	-0.428
Mof_C 	C 	0.5021	0.2797	0.0078	-0.055
Mof_O 	O 	0.6575	0.3109	0.235	-1.364
Mof_O 	O 	0.343	0.2991	0.2213	-1.428
Mof_O 	O 	0.3769	0.2362	0.3695	-1.401
Mof_O 	O 	0.6152	0.2383	0.3643	-1.223
Mof_Al	Al	0.7457	0.3198	0.2433	5.155
Mof_O 	O 	0.7456	0.2584	0.3748	-1.718
Mof_Al	Al	0.7554	0.8138	0.7443	5.506
Mof_O 	O 	0.7487	0.7594	0.8805	-1.847
Mof_C 	C 	0.5564	0.8324	0.7586	-0.426
Mof_C 	C 	0.4395	0.8749	0.8453	0.128
Mof_C 	C 	0.6188	0.8141	0.7103	1.098
Mof_C 	C 	0.5524	0.8756	0.8585	0.132
Mof_C 	C 	0.5008	0.81	0.703	0.242
Mof_C 	C 	0.3831	0.8126	0.6826	0.919
Mof_C 	C 	0.442	0.8317	0.7452	-0.334
Mof_C 	C 	0.4943	0.8964	0.9015	-0.152
Mof_O 	O 	0.6685	0.8318	0.759	-1.43
Mof_O 	O 	0.3353	0.8296	0.7499	-1.254
Mof_O 	O 	0.3849	0.7665	0.6149	-1.259
Mof_O 	O 	0.6205	0.7773	0.6157	-1.294
Mof_C 	C 	0.0578	0.7688	0.7051	-0.352
Mof_C 	C 	0.9452	0.773	0.5707	0.166
Mof_C 	C 	0.1164	0.7752	0.7756	0.986
Mof_C 	C 	0.0582	0.7778	0.5745	0.148
Mof_C 	C 	0.0007	0.7602	0.7677	0.22
Mof_C 	C 	0.884	0.7652	0.7678	1.079
Mof_C 	C 	0.9442	0.7639	0.7013	-0.407
Mof_C 	C 	0.0021	0.7797	0.5078	-0.108
Mof_O 	O 	0.1575	0.8109	0.735	-1.355
Mof_O 	O 	0.843	0.7991	0.7213	-1.39
Mof_O 	O 	0.8769	0.7362	0.8695	-1.286
Mof_O 	O 	0.1152	0.7383	0.8643	-1.183
Mof_Al	Al	0.2457	0.8198	0.7433	5.083
Mof_O 	O 	0.2456	0.7584	0.8748	-1.675
Mof_Al	Al	0.2446	0.1862	0.7443	5.506
Mof_O 	O 	0.2513	0.2406	0.8805	-1.847
Mof_C 	C 	0.4436	0.1676	0.7586	-0.426
Mof_C 	C 	0.5605	0.1251	0.8453	0.128
Mof_C 	C 	0.3812	0.1859	0.7103	1.098
Mof_C 	C 	0.4476	0.1244	0.8585	0.132
Mof_C 	C 	0.4992	0.19	0.703	0.242
Mof_C 	C 	0.6169	0.1874	0.6826	0.919
Mof_C 	C 	0.558	0.1683	0.7452	-0.334
Mof_C 	C 	0.5057	0.1036	0.9015	-0.152
Mof_O 	O 	0.3315	0.1682	0.759	-1.43
Mof_O 	O 	0.6647	0.1704	0.7499	-1.254
Mof_O 	O 	0.6151	0.2335	0.6149	-1.259
Mof_O 	O 	0.3795	0.2227	0.6157	-1.294
Mof_C 	C 	0.9422	0.2312	0.7051	-0.352
Mof_C 	C 	0.0548	0.227	0.5707	0.166
Mof_C 	C 	0.8836	0.2248	0.7756	0.986
Mof_C 	C 	0.9418	0.2222	0.5745	0.148
Mof_C 	C 	0.9993	0.2398	0.7677	0.22
Mof_C 	C 	0.116	0.2348	0.7678	1.079
Mof_C 	C 	0.0558	0.2361	0.7013	-0.407
Mof_C 	C 	0.9979	0.2203	0.5078	-0.108
Mof_O 	O 	0.8425	0.1891	0.735	-1.355
Mof_O 	O 	0.157	0.2009	0.7213	-1.39
Mof_O 	O 	0.1231	0.2638	0.8695	-1.286
Mof_O 	O 	0.8848	0.2617	0.8643	-1.183
Mof_Al	Al	0.7543	0.1802	0.7433	5.083
Mof_O 	O 	0.7544	0.2416	0.8748	-1.675
Mof_Al	Al	0.7446	0.6862	0.2443	5.689
Mof_O 	O 	0.7513	0.7406	0.3805	-1.973
Mof_C 	C 	0.9436	0.6676	0.2586	-0.4
Mof_C 	C 	0.0605	0.6251	0.3453	0.155
Mof_C 	C 	0.8812	0.6859	0.2103	1.067
Mof_C 	C 	0.9476	0.6244	0.3585	0.164
Mof_C 	C 	0.9992	0.69	0.203	0.277
Mof_C 	C 	0.1169	0.6874	0.1826	0.914
Mof_C 	C 	0.058	0.6683	0.2452	-0.316
Mof_C 	C 	0.0057	0.6036	0.4015	-0.114
Mof_O 	O 	0.8315	0.6682	0.259	-1.413
Mof_O 	O 	0.1647	0.6704	0.2499	-1.235
Mof_O 	O 	0.1151	0.7335	0.1149	-1.107
Mof_O 	O 	0.8795	0.7227	0.1157	-1.1
Mof_C 	C 	0.4422	0.7312	0.2051	-0.36
Mof_C 	C 	0.5548	0.727	0.0707	0.22
Mof_C 	C 	0.3836	0.7248	0.2756	1.02
Mof_C 	C 	0.4418	0.7222	0.0745	0.196
Mof_C 	C 	0.4993	0.7398	0.2677	0.276
Mof_C 	C 	0.616	0.7348	0.2678	1.162
Mof_C 	C 	0.5558	0.7361	0.2013	-0.428
Mof_C 	C 	0.4979	0.7203	0.0078	-0.055
Mof_O 	O 	0.3425	0.6891	0.235	-1.364
Mof_O 	O 	0.657	0.7009	0.2213	-1.428
Mof_O 	O 	0.6231	0.7638	0.3695	-1.401
Mof_O 	O 	0.3848	0.7617	0.3643	-1.223
Mof_Al	Al	0.2543	0.6802	0.2433	5.155
Mof_O 	O 	0.2544	0.7416	0.3748	-1.718
Mof_Al	Al	0.6862	0.7554	0.4943	5.619
Mof_O 	O 	0.7406	0.7487	0.6305	-1.946
Mof_C 	C 	0.6676	0.5564	0.5086	-0.422
Mof_C 	C 	0.6251	0.4395	0.5953	0.143
Mof_C 	C 	0.6859	0.6188	0.4603	1.116
Mof_C 	C 	0.6244	0.5524	0.6085	0.152
Mof_C 	C 	0.69	0.5008	0.453	0.258
Mof_C 	C 	0.6874	0.3831	0.4326	0.924
Mof_C 	C 	0.6683	0.442	0.4952	-0.328
Mof_C 	C 	0.6036	0.4943	0.6515	-0.137
Mof_O 	O 	0.6682	0.6685	0.509	-1.439
Mof_O 	O 	0.6704	0.3353	0.4999	-1.25
Mof_O 	O 	0.7335	0.3849	0.3649	-1.256
Mof_O 	O 	0.7227	0.6205	0.3657	-1.3
Mof_C 	C 	0.7312	0.0578	0.4551	-0.361
Mof_C 	C 	0.727	0.9452	0.3207	0.187
Mof_C 	C 	0.7248	0.1164	0.5256	1.012
Mof_C 	C 	0.7222	0.0582	0.3245	0.171
Mof_C 	C 	0.7398	0.0007	0.5177	0.264
Mof_C 	C 	0.7348	0.884	0.5178	1.145
Mof_C 	C 	0.7361	0.9442	0.4513	-0.427
Mof_C 	C 	0.7203	0.0021	0.2578	-0.075
Mof_O 	O 	0.6891	0.1575	0.485	-1.363
Mof_O 	O 	0.7009	0.843	0.4713	-1.422
Mof_O 	O 	0.7638	0.8769	0.6195	-1.388
Mof_O 	O 	0.7617	0.1152	0.6143	-1.223
Mof_Al	Al	0.6802	0.2457	0.4933	5.109
Mof_O 	O 	0.7416	0.2456	0.6248	-1.714
Mof_Al	Al	0.1862	0.2554	0.9943	4.771
Mof_O 	O 	0.2406	0.2487	0.1305	-1.779
Mof_C 	C 	0.1676	0.0564	0.0086	-0.027
Mof_C 	C 	0.1251	0.9395	0.0953	0.296
Mof_C 	C 	0.1859	0.1188	0.9603	0.636
Mof_C 	C 	0.1244	0.0524	0.1085	0.092
Mof_C 	C 	0.19	0.0008	0.953	0.058
Mof_C 	C 	0.1874	0.8831	0.9326	0.921
Mof_C 	C 	0.1683	0.942	0.9952	-0.435
Mof_C 	C 	0.1036	0.9943	0.1515	-0.096
Mof_O 	O 	0.1682	0.1685	0.009	-1.027
Mof_O 	O 	0.1704	0.8353	0.9999	-1.246
Mof_O 	O 	0.2335	0.8849	0.8649	-1.256
Mof_O 	O 	0.2227	0.1205	0.8657	-1.176
Mof_C 	C 	0.2312	0.5578	0.9551	-0.837
Mof_C 	C 	0.227	0.4452	0.8207	0.318
Mof_C 	C 	0.2248	0.6164	0.0256	1.429
Mof_C 	C 	0.2222	0.5582	0.8245	0.299
Mof_C 	C 	0.2398	0.5007	0.0177	0.722
Mof_C 	C 	0.2348	0.384	0.0178	1.533
Mof_C 	C 	0.2361	0.4442	0.9513	-0.896
Mof_C 	C 	0.2203	0.5021	0.7578	-0.226
Mof_O 	O 	0.1891	0.6575	0.985	-1.531
Mof_O 	O 	0.2009	0.343	0.9713	-1.507
Mof_O 	O 	0.2638	0.3769	0.1195	-1.484
Mof_O 	O 	0.2617	0.6152	0.1143	-1.32
Mof_Al	Al	0.1802	0.7457	0.9933	4.687
Mof_O 	O 	0.2416	0.7456	0.1248	-1.586
Mof_Al	Al	0.8138	0.7446	0.9943	4.771
Mof_O 	O 	0.7594	0.7513	0.1305	-1.779
Mof_C 	C 	0.8324	0.9436	0.0086	-0.027
Mof_C 	C 	0.8749	0.0605	0.0953	0.296
Mof_C 	C 	0.8141	0.8812	0.9603	0.636
Mof_C 	C 	0.8756	0.9476	0.1085	0.092
Mof_C 	C 	0.81	0.9992	0.953	0.058
Mof_C 	C 	0.8126	0.1169	0.9326	0.921
Mof_C 	C 	0.8317	0.058	0.9952	-0.435
Mof_C 	C 	0.8964	0.0057	0.1515	-0.096
Mof_O 	O 	0.8318	0.8315	0.009	-1.027
Mof_O 	O 	0.8296	0.1647	0.9999	-1.246
Mof_O 	O 	0.7665	0.1151	0.8649	-1.256
Mof_O 	O 	0.7773	0.8795	0.8657	-1.176
Mof_C 	C 	0.7688	0.4422	0.9551	-0.837
Mof_C 	C 	0.773	0.5548	0.8207	0.318
Mof_C 	C 	0.7752	0.3836	0.0256	1.429
Mof_C 	C 	0.7778	0.4418	0.8245	0.299
Mof_C 	C 	0.7602	0.4993	0.0177	0.722
Mof_C 	C 	0.7652	0.616	0.0178	1.533
Mof_C 	C 	0.7639	0.5558	0.9513	-0.896
Mof_C 	C 	0.7797	0.4979	0.7578	-0.226
Mof_O 	O 	0.8109	0.3425	0.985	-1.531
Mof_O 	O 	0.7991	0.657	0.9713	-1.507
Mof_O 	O 	0.7362	0.6231	0.1195	-1.484
Mof_O 	O 	0.7383	0.3848	0.1143	-1.32
Mof_Al	Al	0.8198	0.2543	0.9933	4.687
Mof_O 	O 	0.7584	0.2544	0.1248	-1.586
Mof_Al	Al	0.3138	0.2446	0.4943	5.619
Mof_O 	O 	0.2594	0.2513	0.6305	-1.946
Mof_C 	C 	0.3324	0.4436	0.5086	-0.422
Mof_C 	C 	0.3749	0.5605	0.5953	0.143
Mof_C 	C 	0.3141	0.3812	0.4603	1.116
Mof_C 	C 	0.3756	0.4476	0.6085	0.152
Mof_C 	C 	0.31	0.4992	0.453	0.258
Mof_C 	C 	0.3126	0.6169	0.4326	0.924
Mof_C 	C 	0.3317	0.558	0.4952	-0.328
Mof_C 	C 	0.3964	0.5057	0.6515	-0.137
Mof_O 	O 	0.3318	0.3315	0.509	-1.439
Mof_O 	O 	0.3296	0.6647	0.4999	-1.25
Mof_O 	O 	0.2665	0.6151	0.3649	-1.256
Mof_O 	O 	0.2773	0.3795	0.3657	-1.3
Mof_C 	C 	0.2688	0.9422	0.4551	-0.361
Mof_C 	C 	0.273	0.0548	0.3207	0.187
Mof_C 	C 	0.2752	0.8836	0.5256	1.012
Mof_C 	C 	0.2778	0.9418	0.3245	0.171
Mof_C 	C 	0.2602	0.9993	0.5177	0.264
Mof_C 	C 	0.2652	0.116	0.5178	1.145
Mof_C 	C 	0.2639	0.0558	0.4513	-0.427
Mof_C 	C 	0.2797	0.9979	0.2578	-0.075
Mof_O 	O 	0.3109	0.8425	0.485	-1.363
Mof_O 	O 	0.2991	0.157	0.4713	-1.422
Mof_O 	O 	0.2362	0.1231	0.6195	-1.388
Mof_O 	O 	0.2383	0.8848	0.6143	-1.223
Mof_Al	Al	0.3198	0.7543	0.4933	5.109
Mof_O 	O 	0.2584	0.7544	0.6248	-1.714
_end
