data_functionalizedCrystal
_audit_creation_method	'EQeq! by Chris Wilmer'
_symmetry_space_group_name_H-M	'P1'
_symmetry_Int_Tables_number	1
_symmetry_cell_setting	triclinic
loop_
_symmetry_equiv_pos_as_xyz
  x,y,z
_cell_length_a	20.2203
_cell_length_b	20.2203
_cell_length_c	17.4841
_cell_angle_alpha	90
_cell_angle_beta	90
_cell_angle_gamma	90
loop_
_atom_site_label
_atom_site_type_symbol
_atom_site_fract_x
_atom_site_fract_y
_atom_site_fract_z
_atom_site_charge
Mof_O 	O 	0.58701	0.46862	0.03301	-0.392
Mof_O 	O 	0.53078	0.3845	0.0806	-0.302
Mof_C 	C 	0.7173	0.4578	0.0088	0.172
Mof_C 	C 	0.5833	0.4146	0.0691	0.321
Mof_C 	C 	0.709	0.4063	0.0709	0.021
Mof_C 	C 	0.6477	0.3866	0.0992	-0.075
Mof_C 	C 	0.7657	0.3762	0.0982	-0.077
Mof_H 	H 	0.8065	0.3873	0.0774	0.058
Mof_C 	C 	0.6451	0.3395	0.1575	0.003
Mof_H 	H 	0.6045	0.3265	0.1774	0.042
Mof_C 	C 	0.7029	0.3123	0.1855	-0.075
Mof_H 	H 	0.7012	0.2816	0.2251	0.052
Mof_C 	C 	0.7626	0.3305	0.1551	-0.002
Mof_H 	H 	0.8014	0.3115	0.1735	0.027
Mof_C 	C 	0.6805	0.6796	0.1257	0.083
Mof_H 	H 	0.6757	0.6422	0.1563	0.028
Mof_C 	C 	0.7042	0.7778	0.0858	0.024
Mof_H 	H 	0.7193	0.8212	0.0847	0.04
Mof_C 	C 	0.675	0.7461	0.0281	-0.045
Mof_H 	H 	0.6665	0.7633	0.9797	0.071
Mof_C 	C 	0.6775	0.6016	0.9491	-0.096
Mof_H 	H 	0.6883	0.6364	0.9129	0.065
Mof_H 	H 	0.6552	0.5667	0.9211	0.073
Mof_C 	C 	0.6302	0.6294	0.0087	-0.106
Mof_H 	H 	0.6174	0.5944	0.0436	0.072
Mof_H 	H 	0.5905	0.6452	0.9834	0.083
Mof_N 	N 	0.7083	0.73501	0.148	-0.21
Mof_N 	N 	0.6597	0.68405	0.0527	-0.098
Mof_O 	O 	0.71618	0.44238	0.94065	-0.196
Mof_C 	C 	0.7412	0.5742	0.9823	0.026
Mof_H 	H 	0.7695	0.56	0.9407	0.041
Mof_H 	H 	0.7639	0.6093	0.0095	0.025
Mof_N 	N 	0.73095	0.51835	0.0347	-0.127
Mof_O 	O 	0.08701	0.96862	0.53301	-0.375
Mof_O 	O 	0.03078	0.8845	0.5806	-0.303
Mof_C 	C 	0.2173	0.9578	0.5088	0.215
Mof_C 	C 	0.0833	0.9146	0.5691	0.319
Mof_C 	C 	0.209	0.9063	0.5709	0.011
Mof_C 	C 	0.1477	0.8866	0.5992	-0.065
Mof_C 	C 	0.2657	0.8762	0.5982	-0.065
Mof_H 	H 	0.3065	0.8873	0.5774	0.059
Mof_C 	C 	0.1451	0.8395	0.6575	-0.004
Mof_H 	H 	0.1045	0.8265	0.6774	0.043
Mof_C 	C 	0.2029	0.8123	0.6855	-0.067
Mof_H 	H 	0.2012	0.7816	0.7251	0.05
Mof_C 	C 	0.2626	0.8305	0.6551	-0.009
Mof_H 	H 	0.3014	0.8115	0.6735	0.03
Mof_C 	C 	0.1805	0.1796	0.6257	0.086
Mof_H 	H 	0.1757	0.1422	0.6563	0.026
Mof_C 	C 	0.2042	0.2778	0.5858	-0.001
Mof_H 	H 	0.2193	0.3212	0.5847	0.051
Mof_C 	C 	0.175	0.2461	0.5281	0.005
Mof_H 	H 	0.1665	0.2633	0.4797	0.041
Mof_C 	C 	0.1775	0.1016	0.4491	-0.131
Mof_H 	H 	0.1883	0.1364	0.4129	0.07
Mof_H 	H 	0.1552	0.0667	0.4211	0.074
Mof_C 	C 	0.1302	0.1294	0.5087	-0.032
Mof_H 	H 	0.1174	0.0944	0.5436	0.05
Mof_H 	H 	0.0905	0.1452	0.4834	0.043
Mof_N 	N 	0.2083	0.23501	0.648	-0.207
Mof_N 	N 	0.1597	0.18405	0.5527	-0.114
Mof_O 	O 	0.21618	0.94238	0.44065	-0.214
Mof_C 	C 	0.2412	0.0742	0.4823	-0.011
Mof_H 	H 	0.2695	0.06	0.4407	0.044
Mof_H 	H 	0.2639	0.1093	0.5095	0.046
Mof_N 	N 	0.23095	0.01835	0.5347	-0.133
Mof_O 	O 	0.91299	0.53138	0.53301	-0.378
Mof_O 	O 	0.96922	0.6155	0.5806	-0.288
Mof_C 	C 	0.7827	0.5422	0.5088	0.197
Mof_C 	C 	0.9167	0.5854	0.5691	0.318
Mof_C 	C 	0.791	0.5937	0.5709	0.013
Mof_C 	C 	0.8523	0.6134	0.5992	-0.065
Mof_C 	C 	0.7343	0.6238	0.5982	-0.067
Mof_H 	H 	0.6935	0.6127	0.5774	0.058
Mof_C 	C 	0.8549	0.6605	0.6575	-0.005
Mof_H 	H 	0.8955	0.6735	0.6774	0.049
Mof_C 	C 	0.7971	0.6877	0.6855	-0.067
Mof_H 	H 	0.7988	0.7184	0.7251	0.051
Mof_C 	C 	0.7374	0.6695	0.6551	-0.008
Mof_H 	H 	0.6986	0.6885	0.6735	0.03
Mof_C 	C 	0.8195	0.3204	0.6257	0.088
Mof_H 	H 	0.8243	0.3578	0.6563	0.027
Mof_C 	C 	0.7958	0.2222	0.5858	0
Mof_H 	H 	0.7807	0.1788	0.5847	0.051
Mof_C 	C 	0.825	0.2539	0.5281	0.006
Mof_H 	H 	0.8335	0.2367	0.4797	0.043
Mof_C 	C 	0.8225	0.3984	0.4491	-0.128
Mof_H 	H 	0.8117	0.3636	0.4129	0.072
Mof_H 	H 	0.8448	0.4333	0.4211	0.081
Mof_C 	C 	0.8698	0.3706	0.5087	-0.039
Mof_H 	H 	0.8826	0.4056	0.5436	0.059
Mof_H 	H 	0.9095	0.3548	0.4834	0.056
Mof_N 	N 	0.7917	0.26499	0.648	-0.207
Mof_N 	N 	0.8403	0.31595	0.5527	-0.111
Mof_O 	O 	0.78382	0.55762	0.44065	-0.214
Mof_C 	C 	0.7588	0.4258	0.4823	-0.013
Mof_H 	H 	0.7305	0.44	0.4407	0.049
Mof_H 	H 	0.7361	0.3907	0.5095	0.047
Mof_N 	N 	0.76905	0.48165	0.5347	-0.12
Mof_O 	O 	0.41299	0.03138	0.03301	-0.4
Mof_O 	O 	0.46922	0.1155	0.0806	-0.304
Mof_C 	C 	0.2827	0.0422	0.0088	0.149
Mof_C 	C 	0.4167	0.0854	0.0691	0.323
Mof_C 	C 	0.291	0.0937	0.0709	0.027
Mof_C 	C 	0.3523	0.1134	0.0992	-0.082
Mof_C 	C 	0.2343	0.1238	0.0982	-0.084
Mof_H 	H 	0.1935	0.1127	0.0774	0.056
Mof_C 	C 	0.3549	0.1605	0.1575	0.007
Mof_H 	H 	0.3955	0.1735	0.1774	0.04
Mof_C 	C 	0.2971	0.1877	0.1855	-0.082
Mof_H 	H 	0.2988	0.2184	0.2251	0.054
Mof_C 	C 	0.2374	0.1695	0.1551	0.004
Mof_H 	H 	0.1986	0.1885	0.1735	0.021
Mof_C 	C 	0.3195	0.8204	0.1257	0.083
Mof_H 	H 	0.3243	0.8578	0.1563	0.028
Mof_C 	C 	0.2958	0.7222	0.0858	0.023
Mof_H 	H 	0.2807	0.6788	0.0847	0.04
Mof_C 	C 	0.325	0.7539	0.0281	-0.046
Mof_H 	H 	0.3335	0.7367	0.9797	0.071
Mof_C 	C 	0.3225	0.8984	0.9491	-0.096
Mof_H 	H 	0.3117	0.8636	0.9129	0.065
Mof_H 	H 	0.3448	0.9333	0.9211	0.077
Mof_C 	C 	0.3698	0.8706	0.0087	-0.104
Mof_H 	H 	0.3826	0.9056	0.0436	0.075
Mof_H 	H 	0.4095	0.8548	0.9834	0.083
Mof_N 	N 	0.2917	0.76499	0.148	-0.21
Mof_N 	N 	0.3403	0.81595	0.0527	-0.098
Mof_O 	O 	0.28382	0.05762	0.94065	-0.193
Mof_C 	C 	0.2588	0.9258	0.9823	0.021
Mof_H 	H 	0.2305	0.94	0.9407	0.046
Mof_H 	H 	0.2361	0.8907	0.0095	0.027
Mof_N 	N 	0.26905	0.98165	0.0347	-0.111
Mof_O 	O 	0.28138	0.83701	0.28301	-0.384
Mof_O 	O 	0.3655	0.78078	0.3306	-0.298
Mof_C 	C 	0.2922	0.9673	0.2588	0.2
Mof_C 	C 	0.3354	0.8333	0.3191	0.319
Mof_C 	C 	0.3437	0.959	0.3209	0.031
Mof_C 	C 	0.3634	0.8977	0.3492	-0.066
Mof_C 	C 	0.3738	0.0157	0.3482	-0.082
Mof_H 	H 	0.3627	0.0565	0.3274	0.059
Mof_C 	C 	0.4105	0.8951	0.4075	-0.017
Mof_H 	H 	0.4235	0.8545	0.4274	0.05
Mof_C 	C 	0.4377	0.9529	0.4355	-0.03
Mof_H 	H 	0.4684	0.9512	0.4751	0.041
Mof_C 	C 	0.4195	0.0126	0.4051	-0.04
Mof_H 	H 	0.4385	0.0514	0.4235	0.037
Mof_C 	C 	0.0704	0.9305	0.3757	0.089
Mof_H 	H 	0.1078	0.9257	0.4063	0.027
Mof_C 	C 	0.9722	0.9542	0.3358	0.089
Mof_H 	H 	0.9288	0.9693	0.3347	0.026
Mof_C 	C 	0.0039	0.925	0.2781	-0.09
Mof_H 	H 	0.9867	0.9165	0.2297	0.09
Mof_C 	C 	0.1484	0.9275	0.1991	-0.192
Mof_H 	H 	0.1136	0.9383	0.1629	0.091
Mof_H 	H 	0.1833	0.9052	0.1711	0.098
Mof_C 	C 	0.1206	0.8802	0.2587	-0.009
Mof_H 	H 	0.1556	0.8674	0.2936	0.046
Mof_H 	H 	0.1048	0.8405	0.2334	0.039
Mof_N 	N 	0.01499	0.9583	0.398	-0.224
Mof_N 	N 	0.06595	0.9097	0.3027	-0.102
Mof_O 	O 	0.30762	0.96618	0.19065	-0.21
Mof_C 	C 	0.1758	0.9912	0.2323	0.103
Mof_H 	H 	0.19	0.0195	0.1907	-0.003
Mof_H 	H 	0.1407	0.0139	0.2595	-0.005
Mof_N 	N 	0.23165	0.98095	0.2847	-0.128
Mof_O 	O 	0.78138	0.33701	0.78301	-0.383
Mof_O 	O 	0.8655	0.28078	0.8306	-0.294
Mof_C 	C 	0.7922	0.4673	0.7588	0.197
Mof_C 	C 	0.8354	0.3333	0.8191	0.32
Mof_C 	C 	0.8437	0.459	0.8209	0.015
Mof_C 	C 	0.8634	0.3977	0.8492	-0.067
Mof_C 	C 	0.8738	0.5157	0.8482	-0.067
Mof_H 	H 	0.8627	0.5565	0.8274	0.061
Mof_C 	C 	0.9105	0.3951	0.9075	-0
Mof_H 	H 	0.9235	0.3545	0.9274	0.051
Mof_C 	C 	0.9377	0.4529	0.9355	-0.067
Mof_H 	H 	0.9684	0.4512	0.9751	0.063
Mof_C 	C 	0.9195	0.5126	0.9051	-0.003
Mof_H 	H 	0.9385	0.5514	0.9235	0.038
Mof_C 	C 	0.5704	0.4305	0.8757	0.088
Mof_H 	H 	0.6078	0.4257	0.9063	0.031
Mof_C 	C 	0.4722	0.4542	0.8358	0
Mof_H 	H 	0.4288	0.4693	0.8347	0.052
Mof_C 	C 	0.5039	0.425	0.7781	0.006
Mof_H 	H 	0.4867	0.4165	0.7297	0.042
Mof_C 	C 	0.6484	0.4275	0.6991	-0.13
Mof_H 	H 	0.6136	0.4383	0.6629	0.071
Mof_H 	H 	0.6833	0.4052	0.6711	0.08
Mof_C 	C 	0.6206	0.3802	0.7587	-0.036
Mof_H 	H 	0.6556	0.3674	0.7936	0.056
Mof_H 	H 	0.6048	0.3405	0.7334	0.05
Mof_N 	N 	0.51499	0.4583	0.898	-0.202
Mof_N 	N 	0.56595	0.4097	0.8027	-0.112
Mof_O 	O 	0.80762	0.46618	0.69065	-0.212
Mof_C 	C 	0.6758	0.4912	0.7323	-0.012
Mof_H 	H 	0.69	0.5195	0.6907	0.049
Mof_H 	H 	0.6407	0.5139	0.7595	0.047
Mof_N 	N 	0.73165	0.48095	0.7847	-0.12
Mof_O 	O 	0.21862	0.16299	0.78301	-0.384
Mof_O 	O 	0.1345	0.21922	0.8306	-0.3
Mof_C 	C 	0.2078	0.0327	0.7588	0.195
Mof_C 	C 	0.1646	0.1667	0.8191	0.321
Mof_C 	C 	0.1563	0.041	0.8209	0.001
Mof_C 	C 	0.1366	0.1023	0.8492	-0.071
Mof_C 	C 	0.1262	0.9843	0.8482	-0.058
Mof_H 	H 	0.1373	0.9435	0.8274	0.058
Mof_C 	C 	0.0895	0.1049	0.9075	0.014
Mof_H 	H 	0.0765	0.1455	0.9274	0.038
Mof_C 	C 	0.0623	0.0471	0.9355	-0.107
Mof_H 	H 	0.0316	0.0488	0.9751	0.058
Mof_C 	C 	0.0805	0.9874	0.9051	0.026
Mof_H 	H 	0.0615	0.9486	0.9235	0.021
Mof_C 	C 	0.4296	0.0695	0.8757	0.084
Mof_H 	H 	0.3922	0.0743	0.9063	0.031
Mof_C 	C 	0.5278	0.0458	0.8358	-0.001
Mof_H 	H 	0.5712	0.0307	0.8347	0.048
Mof_C 	C 	0.4961	0.075	0.7781	0.002
Mof_H 	H 	0.5133	0.0835	0.7297	0.042
Mof_C 	C 	0.3516	0.0725	0.6991	-0.07
Mof_H 	H 	0.3864	0.0617	0.6629	0.049
Mof_H 	H 	0.3167	0.0948	0.6711	0.062
Mof_C 	C 	0.3794	0.1198	0.7587	-0.068
Mof_H 	H 	0.3444	0.1326	0.7936	0.066
Mof_H 	H 	0.3952	0.1595	0.7334	0.06
Mof_N 	N 	0.48501	0.0417	0.898	-0.204
Mof_N 	N 	0.43405	0.0903	0.8027	-0.108
Mof_O 	O 	0.19238	0.03382	0.69065	-0.22
Mof_C 	C 	0.3242	0.0088	0.7323	-0.113
Mof_H 	H 	0.31	0.9805	0.6907	0.092
Mof_H 	H 	0.3593	0.9861	0.7595	0.09
Mof_N 	N 	0.26835	0.01905	0.7847	-0.112
Mof_O 	O 	0.71862	0.66299	0.28301	-0.384
Mof_O 	O 	0.6345	0.71922	0.3306	-0.298
Mof_C 	C 	0.7078	0.5327	0.2588	0.197
Mof_C 	C 	0.6646	0.6667	0.3191	0.32
Mof_C 	C 	0.6563	0.541	0.3209	0.015
Mof_C 	C 	0.6366	0.6023	0.3492	-0.069
Mof_C 	C 	0.6262	0.4843	0.3482	-0.069
Mof_H 	H 	0.6373	0.4435	0.3274	0.059
Mof_C 	C 	0.5895	0.6049	0.4075	-0.002
Mof_H 	H 	0.5765	0.6455	0.4274	0.044
Mof_C 	C 	0.5623	0.5471	0.4355	-0.07
Mof_H 	H 	0.5316	0.5488	0.4751	0.05
Mof_C 	C 	0.5805	0.4874	0.4051	-0.006
Mof_H 	H 	0.5615	0.4486	0.4235	0.029
Mof_C 	C 	0.9296	0.5695	0.3757	0.09
Mof_H 	H 	0.8922	0.5743	0.4063	0.027
Mof_C 	C 	0.0278	0.5458	0.3358	-0.097
Mof_H 	H 	0.0712	0.5307	0.3347	0.083
Mof_C 	C 	0.9961	0.575	0.2781	0.115
Mof_H 	H 	0.0133	0.5835	0.2297	-0.011
Mof_C 	C 	0.8516	0.5725	0.1991	-0.135
Mof_H 	H 	0.8864	0.5617	0.1629	0.075
Mof_H 	H 	0.8167	0.5948	0.1711	0.082
Mof_C 	C 	0.8794	0.6198	0.2587	-0.026
Mof_H 	H 	0.8444	0.6326	0.2936	0.053
Mof_H 	H 	0.8952	0.6595	0.2334	0.049
Mof_N 	N 	0.98501	0.5417	0.398	-0.181
Mof_N 	N 	0.93405	0.5903	0.3027	-0.129
Mof_O 	O 	0.69238	0.53382	0.19065	-0.215
Mof_C 	C 	0.8242	0.5088	0.2323	-0.01
Mof_H 	H 	0.81	0.4805	0.1907	0.048
Mof_H 	H 	0.8593	0.4861	0.2595	0.048
Mof_N 	N 	0.76835	0.51905	0.2847	-0.12
Mof_O 	O 	0.41299	0.53138	0.96699	-0.373
Mof_O 	O 	0.46922	0.6155	0.9194	-0.294
Mof_C 	C 	0.2827	0.5422	0.9912	0.222
Mof_C 	C 	0.4167	0.5854	0.9309	0.318
Mof_C 	C 	0.291	0.5937	0.9291	0.008
Mof_C 	C 	0.3523	0.6134	0.9008	-0.062
Mof_C 	C 	0.2343	0.6238	0.9018	-0.061
Mof_H 	H 	0.1935	0.6127	0.9226	0.059
Mof_C 	C 	0.3549	0.6605	0.8425	-0.007
Mof_H 	H 	0.3955	0.6735	0.8226	0.046
Mof_C 	C 	0.2971	0.6877	0.8145	-0.064
Mof_H 	H 	0.2988	0.7184	0.7749	0.049
Mof_C 	C 	0.2374	0.6695	0.8449	-0.011
Mof_H 	H 	0.1986	0.6885	0.8265	0.031
Mof_C 	C 	0.3195	0.3204	0.8743	0.091
Mof_H 	H 	0.3243	0.3578	0.8437	0.025
Mof_C 	C 	0.2958	0.2222	0.9142	-0.028
Mof_H 	H 	0.2807	0.1788	0.9153	0.064
Mof_C 	C 	0.325	0.2539	0.9719	0.063
Mof_H 	H 	0.3335	0.2367	0.0203	0.008
Mof_C 	C 	0.3225	0.3984	0.0509	-0.167
Mof_H 	H 	0.3117	0.3636	0.0871	0.079
Mof_H 	H 	0.3448	0.4333	0.0789	0.089
Mof_C 	C 	0.3698	0.3706	0.9913	0.041
Mof_H 	H 	0.3826	0.4056	0.9564	0.037
Mof_H 	H 	0.4095	0.3548	0.0166	0.014
Mof_N 	N 	0.2917	0.26499	0.852	-0.204
Mof_N 	N 	0.3403	0.31595	0.9473	-0.129
Mof_O 	O 	0.28382	0.55762	0.05935	-0.232
Mof_C 	C 	0.2588	0.4258	0.0177	-0.051
Mof_H 	H 	0.2305	0.44	0.0593	0.055
Mof_H 	H 	0.2361	0.3907	0.9905	0.07
Mof_N 	N 	0.26905	0.48165	0.9653	-0.112
Mof_O 	O 	0.91299	0.03138	0.46699	-0.385
Mof_O 	O 	0.96922	0.1155	0.4194	-0.29
Mof_C 	C 	0.7827	0.0422	0.4912	0.181
Mof_C 	C 	0.9167	0.0854	0.4309	0.319
Mof_C 	C 	0.791	0.0937	0.4291	0.017
Mof_C 	C 	0.8523	0.1134	0.4008	-0.071
Mof_C 	C 	0.7343	0.1238	0.4018	-0.072
Mof_H 	H 	0.6935	0.1127	0.4226	0.058
Mof_C 	C 	0.8549	0.1605	0.3425	-0.002
Mof_H 	H 	0.8955	0.1735	0.3226	0.046
Mof_C 	C 	0.7971	0.1877	0.3145	-0.071
Mof_H 	H 	0.7988	0.2184	0.2749	0.051
Mof_C 	C 	0.7374	0.1695	0.3449	-0.005
Mof_H 	H 	0.6986	0.1885	0.3265	0.028
Mof_C 	C 	0.8195	0.8204	0.3743	0.088
Mof_H 	H 	0.8243	0.8578	0.3437	0.027
Mof_C 	C 	0.7958	0.7222	0.4142	0
Mof_H 	H 	0.7807	0.6788	0.4153	0.051
Mof_C 	C 	0.825	0.7539	0.4719	0.006
Mof_H 	H 	0.8335	0.7367	0.5203	0.043
Mof_C 	C 	0.8225	0.8984	0.5509	-0.128
Mof_H 	H 	0.8117	0.8636	0.5871	0.072
Mof_H 	H 	0.8448	0.9333	0.5789	0.085
Mof_C 	C 	0.8698	0.8706	0.4913	-0.04
Mof_H 	H 	0.8826	0.9056	0.4564	0.061
Mof_H 	H 	0.9095	0.8548	0.5166	0.057
Mof_N 	N 	0.7917	0.76499	0.352	-0.207
Mof_N 	N 	0.8403	0.81595	0.4473	-0.111
Mof_O 	O 	0.78382	0.05762	0.55935	-0.214
Mof_C 	C 	0.7588	0.9258	0.5177	-0.013
Mof_H 	H 	0.7305	0.94	0.5593	0.052
Mof_H 	H 	0.7361	0.8907	0.4905	0.048
Mof_N 	N 	0.76905	0.98165	0.4653	-0.108
Mof_O 	O 	0.08701	0.46862	0.46699	-0.386
Mof_O 	O 	0.03078	0.3845	0.4194	-0.308
Mof_C 	C 	0.2173	0.4578	0.4912	0.196
Mof_C 	C 	0.0833	0.4146	0.4309	0.321
Mof_C 	C 	0.209	0.4063	0.4291	0.016
Mof_C 	C 	0.1477	0.3866	0.4008	-0.072
Mof_C 	C 	0.2657	0.3762	0.4018	-0.071
Mof_H 	H 	0.3065	0.3873	0.4226	0.059
Mof_C 	C 	0.1451	0.3395	0.3425	0
Mof_H 	H 	0.1045	0.3265	0.3226	0.039
Mof_C 	C 	0.2029	0.3123	0.3145	-0.073
Mof_H 	H 	0.2012	0.2816	0.2749	0.05
Mof_C 	C 	0.2626	0.3305	0.3449	-0.004
Mof_H 	H 	0.3014	0.3115	0.3265	0.028
Mof_C 	C 	0.1805	0.6796	0.3743	0.086
Mof_H 	H 	0.1757	0.6422	0.3437	0.026
Mof_C 	C 	0.2042	0.7778	0.4142	-0.001
Mof_H 	H 	0.2193	0.8212	0.4153	0.052
Mof_C 	C 	0.175	0.7461	0.4719	0.005
Mof_H 	H 	0.1665	0.7633	0.5203	0.041
Mof_C 	C 	0.1775	0.6016	0.5509	-0.131
Mof_H 	H 	0.1883	0.6364	0.5871	0.071
Mof_H 	H 	0.1552	0.5667	0.5789	0.079
Mof_C 	C 	0.1302	0.6294	0.4913	-0.033
Mof_H 	H 	0.1174	0.5944	0.4564	0.053
Mof_H 	H 	0.0905	0.6452	0.5166	0.044
Mof_N 	N 	0.2083	0.73501	0.352	-0.207
Mof_N 	N 	0.1597	0.68405	0.4473	-0.114
Mof_O 	O 	0.21618	0.44238	0.55935	-0.214
Mof_C 	C 	0.2412	0.5742	0.5177	-0.012
Mof_H 	H 	0.2695	0.56	0.5593	0.048
Mof_H 	H 	0.2639	0.6093	0.4905	0.047
Mof_N 	N 	0.23095	0.51835	0.4653	-0.12
Mof_O 	O 	0.58701	0.96862	0.96699	-0.364
Mof_O 	O 	0.53078	0.8845	0.9194	-0.291
Mof_C 	C 	0.7173	0.9578	0.9912	0.233
Mof_C 	C 	0.5833	0.9146	0.9309	0.316
Mof_C 	C 	0.709	0.9063	0.9291	0.006
Mof_C 	C 	0.6477	0.8866	0.9008	-0.058
Mof_C 	C 	0.7657	0.8762	0.9018	-0.058
Mof_H 	H 	0.8065	0.8873	0.9226	0.061
Mof_C 	C 	0.6451	0.8395	0.8425	-0.01
Mof_H 	H 	0.6045	0.8265	0.8226	0.048
Mof_C 	C 	0.7029	0.8123	0.8145	-0.06
Mof_H 	H 	0.7012	0.7816	0.7749	0.048
Mof_C 	C 	0.7626	0.8305	0.8449	-0.014
Mof_H 	H 	0.8014	0.8115	0.8265	0.035
Mof_C 	C 	0.6805	0.1796	0.8743	0.092
Mof_H 	H 	0.6757	0.1422	0.8437	0.026
Mof_C 	C 	0.7042	0.2778	0.9142	-0.028
Mof_H 	H 	0.7193	0.3212	0.9153	0.065
Mof_C 	C 	0.675	0.2461	0.9719	0.064
Mof_H 	H 	0.6665	0.2633	0.0203	0.008
Mof_C 	C 	0.6775	0.1016	0.0509	-0.167
Mof_H 	H 	0.6883	0.1364	0.0871	0.078
Mof_H 	H 	0.6552	0.0667	0.0789	0.084
Mof_C 	C 	0.6302	0.1294	0.9913	0.044
Mof_H 	H 	0.6174	0.0944	0.9564	0.035
Mof_H 	H 	0.5905	0.1452	0.0166	0.012
Mof_N 	N 	0.7083	0.23501	0.852	-0.203
Mof_N 	N 	0.6597	0.18405	0.9473	-0.129
Mof_O 	O 	0.71618	0.94238	0.05935	-0.229
Mof_C 	C 	0.7412	0.0742	0.0177	-0.057
Mof_H 	H 	0.7695	0.06	0.0593	0.054
Mof_H 	H 	0.7639	0.1093	0.9905	0.073
Mof_N 	N 	0.73095	0.01835	0.9653	-0.12
Mof_O 	O 	0.71862	0.16299	0.71699	-0.384
Mof_O 	O 	0.6345	0.21922	0.6694	-0.299
Mof_C 	C 	0.7078	0.0327	0.7412	0.194
Mof_C 	C 	0.6646	0.1667	0.6809	0.321
Mof_C 	C 	0.6563	0.041	0.6791	0.003
Mof_C 	C 	0.6366	0.1023	0.6508	-0.073
Mof_C 	C 	0.6262	0.9843	0.6518	-0.061
Mof_H 	H 	0.6373	0.9435	0.6726	0.06
Mof_C 	C 	0.5895	0.1049	0.5925	0.014
Mof_H 	H 	0.5765	0.1455	0.5726	0.038
Mof_C 	C 	0.5623	0.0471	0.5645	-0.109
Mof_H 	H 	0.5316	0.0488	0.5249	0.059
Mof_C 	C 	0.5805	0.9874	0.5949	0.028
Mof_H 	H 	0.5615	0.9486	0.5765	0.02
Mof_C 	C 	0.9296	0.0695	0.6243	0.086
Mof_H 	H 	0.8922	0.0743	0.5937	0.027
Mof_C 	C 	0.0278	0.0458	0.6642	-0.107
Mof_H 	H 	0.0712	0.0307	0.6653	0.082
Mof_C 	C 	0.9961	0.075	0.7219	0.121
Mof_H 	H 	0.0133	0.0835	0.7703	-0.015
Mof_C 	C 	0.8516	0.0725	0.8009	-0.087
Mof_H 	H 	0.8864	0.0617	0.8371	0.06
Mof_H 	H 	0.8167	0.0948	0.8289	0.068
Mof_C 	C 	0.8794	0.1198	0.7413	-0.051
Mof_H 	H 	0.8444	0.1326	0.7064	0.061
Mof_H 	H 	0.8952	0.1595	0.7666	0.058
Mof_N 	N 	0.98501	0.0417	0.602	-0.181
Mof_N 	N 	0.93405	0.0903	0.6973	-0.127
Mof_O 	O 	0.69238	0.03382	0.80935	-0.217
Mof_C 	C 	0.8242	0.0088	0.7677	-0.095
Mof_H 	H 	0.81	0.9805	0.8093	0.086
Mof_H 	H 	0.8593	0.9861	0.7405	0.085
Mof_N 	N 	0.76835	0.01905	0.7153	-0.114
Mof_O 	O 	0.21862	0.66299	0.21699	-0.384
Mof_O 	O 	0.1345	0.71922	0.1694	-0.303
Mof_C 	C 	0.2078	0.5327	0.2412	0.197
Mof_C 	C 	0.1646	0.6667	0.1809	0.32
Mof_C 	C 	0.1563	0.541	0.1791	0.014
Mof_C 	C 	0.1366	0.6023	0.1508	-0.07
Mof_C 	C 	0.1262	0.4843	0.1518	-0.071
Mof_H 	H 	0.1373	0.4435	0.1726	0.056
Mof_C 	C 	0.0895	0.6049	0.0925	-0.004
Mof_H 	H 	0.0765	0.6455	0.0726	0.038
Mof_C 	C 	0.0623	0.5471	0.0645	-0.073
Mof_H 	H 	0.0316	0.5488	0.0249	0.038
Mof_C 	C 	0.0805	0.4874	0.0949	-0.009
Mof_H 	H 	0.0615	0.4486	0.0765	0.019
Mof_C 	C 	0.4296	0.5695	0.1243	0.085
Mof_H 	H 	0.3922	0.5743	0.0937	0.023
Mof_C 	C 	0.5278	0.5458	0.1642	-0.001
Mof_H 	H 	0.5712	0.5307	0.1653	0.051
Mof_C 	C 	0.4961	0.575	0.2219	0.005
Mof_H 	H 	0.5133	0.5835	0.2703	0.042
Mof_C 	C 	0.3516	0.5725	0.3009	-0.13
Mof_H 	H 	0.3864	0.5617	0.3371	0.071
Mof_H 	H 	0.3167	0.5948	0.3289	0.08
Mof_C 	C 	0.3794	0.6198	0.2413	-0.036
Mof_H 	H 	0.3444	0.6326	0.2064	0.055
Mof_H 	H 	0.3952	0.6595	0.2666	0.049
Mof_N 	N 	0.48501	0.5417	0.102	-0.21
Mof_N 	N 	0.43405	0.5903	0.1973	-0.113
Mof_O 	O 	0.19238	0.53382	0.30935	-0.216
Mof_C 	C 	0.3242	0.5088	0.2677	-0.012
Mof_H 	H 	0.31	0.4805	0.3093	0.048
Mof_H 	H 	0.3593	0.4861	0.2405	0.047
Mof_N 	N 	0.26835	0.51905	0.2153	-0.12
Mof_O 	O 	0.78138	0.83701	0.21699	-0.384
Mof_O 	O 	0.8655	0.78078	0.1694	-0.296
Mof_C 	C 	0.7922	0.9673	0.2412	0.199
Mof_C 	C 	0.8354	0.8333	0.1809	0.319
Mof_C 	C 	0.8437	0.959	0.1791	0.029
Mof_C 	C 	0.8634	0.8977	0.1508	-0.065
Mof_C 	C 	0.8738	0.0157	0.1518	-0.08
Mof_H 	H 	0.8627	0.0565	0.1726	0.059
Mof_C 	C 	0.9105	0.8951	0.0925	-0.019
Mof_H 	H 	0.9235	0.8545	0.0726	0.051
Mof_C 	C 	0.9377	0.9529	0.0645	-0.031
Mof_H 	H 	0.9684	0.9512	0.0249	0.042
Mof_C 	C 	0.9195	0.0126	0.0949	-0.041
Mof_H 	H 	0.9385	0.0514	0.0765	0.037
Mof_C 	C 	0.5704	0.9305	0.1243	0.091
Mof_H 	H 	0.6078	0.9257	0.0937	0.024
Mof_C 	C 	0.4722	0.9542	0.1642	0
Mof_H 	H 	0.4288	0.9693	0.1653	0.056
Mof_C 	C 	0.5039	0.925	0.2219	0.01
Mof_H 	H 	0.4867	0.9165	0.2703	0.042
Mof_C 	C 	0.6484	0.9275	0.3009	-0.193
Mof_H 	H 	0.6136	0.9383	0.3371	0.095
Mof_H 	H 	0.6833	0.9052	0.3289	0.099
Mof_C 	C 	0.6206	0.8802	0.2413	-0.002
Mof_H 	H 	0.6556	0.8674	0.2064	0.044
Mof_H 	H 	0.6048	0.8405	0.2666	0.039
Mof_N 	N 	0.51499	0.9583	0.102	-0.204
Mof_N 	N 	0.56595	0.9097	0.1973	-0.117
Mof_O 	O 	0.80762	0.96618	0.30935	-0.209
Mof_C 	C 	0.6758	0.9912	0.2677	0.093
Mof_H 	H 	0.69	0.0195	0.3093	0.003
Mof_H 	H 	0.6407	0.0139	0.2405	0.001
Mof_N 	N 	0.73165	0.98095	0.2153	-0.128
Mof_O 	O 	0.28138	0.33701	0.71699	-0.384
Mof_O 	O 	0.3655	0.28078	0.6694	-0.299
Mof_C 	C 	0.2922	0.4673	0.7412	0.197
Mof_C 	C 	0.3354	0.3333	0.6809	0.32
Mof_C 	C 	0.3437	0.459	0.6791	0.015
Mof_C 	C 	0.3634	0.3977	0.6508	-0.069
Mof_C 	C 	0.3738	0.5157	0.6518	-0.069
Mof_H 	H 	0.3627	0.5565	0.6726	0.059
Mof_C 	C 	0.4105	0.3951	0.5925	-0.002
Mof_H 	H 	0.4235	0.3545	0.5726	0.044
Mof_C 	C 	0.4377	0.4529	0.5645	-0.07
Mof_H 	H 	0.4684	0.4512	0.5249	0.05
Mof_C 	C 	0.4195	0.5126	0.5949	-0.006
Mof_H 	H 	0.4385	0.5514	0.5765	0.029
Mof_C 	C 	0.0704	0.4305	0.6243	0.083
Mof_H 	H 	0.1078	0.4257	0.5937	0.027
Mof_C 	C 	0.9722	0.4542	0.6642	0.099
Mof_H 	H 	0.9288	0.4693	0.6653	0.019
Mof_C 	C 	0.0039	0.425	0.7219	-0.107
Mof_H 	H 	0.9867	0.4165	0.7703	0.096
Mof_C 	C 	0.1484	0.4275	0.8009	-0.124
Mof_H 	H 	0.1136	0.4383	0.8371	0.068
Mof_H 	H 	0.1833	0.4052	0.8289	0.079
Mof_C 	C 	0.1206	0.3802	0.7413	-0.046
Mof_H 	H 	0.1556	0.3674	0.7064	0.058
Mof_H 	H 	0.1048	0.3405	0.7666	0.051
Mof_N 	N 	0.01499	0.4583	0.602	-0.231
Mof_N 	N 	0.06595	0.4097	0.6973	-0.096
Mof_O 	O 	0.30762	0.46618	0.80935	-0.214
Mof_C 	C 	0.1758	0.4912	0.7677	-0.015
Mof_H 	H 	0.19	0.5195	0.8093	0.049
Mof_H 	H 	0.1407	0.5139	0.7405	0.046
Mof_N 	N 	0.23165	0.48095	0.7153	-0.12
Mof_Cu	Cu	0.5	0.5	-0	0.896
Mof_Cu	Cu	5.15229e-33	3.53128e-33	0.5	0.886
Mof_Cu	Cu	8.68357e-33	0.5	0.5	0.895
Mof_Cu	Cu	0.5	0	-0	0.887
Mof_Cu	Cu	0.25	0.75	0.25	0.904
Mof_Cu	Cu	0.25	0.25	0.75	0.904
Mof_Cu	Cu	0.75	0.25	0.75	0.905
Mof_Cu	Cu	0.75	0.75	0.25	0.905
_end
