data_functionalizedCrystal
_audit_creation_method	'EQeq! by Chris Wilmer'
_symmetry_space_group_name_H-M	'P1'
_symmetry_Int_Tables_number	1
_symmetry_cell_setting	triclinic
loop_
_symmetry_equiv_pos_as_xyz
  x,y,z
_cell_length_a	18.5474
_cell_length_b	18.5474
_cell_length_c	18.5474
_cell_angle_alpha	90
_cell_angle_beta	90
_cell_angle_gamma	90
loop_
_atom_site_label
_atom_site_type_symbol
_atom_site_fract_x
_atom_site_fract_y
_atom_site_fract_z
_atom_site_charge
Mof_C 	C 	0.3203	0.3494	0.2471	-0.003
Mof_C 	C 	0.294	0.2647	0.3675	-0.047
Mof_C 	C 	0.3907	0.1816	0.331	-0.028
Mof_C 	C 	0.4023	0.148	0.3952	0.019
Mof_C 	C 	0.3572	0.0755	0.7788	-0.034
Mof_N 	N 	0.3826	0.4433	0.0886	-0.252
Mof_N 	N 	0.0429	0.1894	0.5854	-0.306
Mof_C 	C 	0.6797	0.6506	0.2471	0.007
Mof_C 	C 	0.706	0.7353	0.3675	-0.023
Mof_C 	C 	0.6093	0.8184	0.331	-0.034
Mof_C 	C 	0.5977	0.852	0.3952	0.067
Mof_C 	C 	0.6428	0.9245	0.7788	0.039
Mof_N 	N 	0.6174	0.5567	0.0886	-0.251
Mof_N 	N 	0.9571	0.8106	0.5854	-0.246
Mof_C 	C 	0.6797	0.3494	0.7529	0.016
Mof_C 	C 	0.706	0.2647	0.6325	-0.037
Mof_C 	C 	0.6093	0.1816	0.669	-0.027
Mof_C 	C 	0.5977	0.148	0.6048	0.026
Mof_C 	C 	0.6428	0.0755	0.2212	-0.043
Mof_N 	N 	0.6174	0.4433	0.9114	-0.206
Mof_N 	N 	0.9571	0.1894	0.4146	-0.255
Mof_C 	C 	0.3203	0.6506	0.7529	0.016
Mof_C 	C 	0.294	0.7353	0.6325	-0.027
Mof_C 	C 	0.3907	0.8184	0.669	-0.036
Mof_C 	C 	0.4023	0.852	0.6048	0.065
Mof_C 	C 	0.3572	0.9245	0.2212	0.019
Mof_N 	N 	0.3826	0.5567	0.9114	-0.207
Mof_N 	N 	0.0429	0.8106	0.4146	-0.299
Mof_C 	C 	0.2471	0.3203	0.3494	-0.002
Mof_C 	C 	0.3675	0.294	0.2647	-0.046
Mof_C 	C 	0.331	0.3907	0.1816	-0.027
Mof_C 	C 	0.3952	0.4023	0.148	0.019
Mof_C 	C 	0.7788	0.3572	0.0755	-0.034
Mof_N 	N 	0.0886	0.3826	0.4433	-0.252
Mof_N 	N 	0.5854	0.0429	0.1894	-0.306
Mof_C 	C 	0.2471	0.6797	0.6506	0.007
Mof_C 	C 	0.3675	0.706	0.7353	-0.023
Mof_C 	C 	0.331	0.6093	0.8184	-0.034
Mof_C 	C 	0.3952	0.5977	0.852	0.067
Mof_C 	C 	0.7788	0.6428	0.9245	0.039
Mof_N 	N 	0.0886	0.6174	0.5567	-0.251
Mof_N 	N 	0.5854	0.9571	0.8106	-0.246
Mof_C 	C 	0.7529	0.6797	0.3494	0.016
Mof_C 	C 	0.6325	0.706	0.2647	-0.037
Mof_C 	C 	0.669	0.6093	0.1816	-0.027
Mof_C 	C 	0.6048	0.5977	0.148	0.026
Mof_C 	C 	0.2212	0.6428	0.0755	-0.043
Mof_N 	N 	0.9114	0.6174	0.4433	-0.206
Mof_N 	N 	0.4146	0.9571	0.1894	-0.255
Mof_C 	C 	0.7529	0.3203	0.6506	0.016
Mof_C 	C 	0.6325	0.294	0.7353	-0.027
Mof_C 	C 	0.669	0.3907	0.8184	-0.036
Mof_C 	C 	0.6048	0.4023	0.852	0.065
Mof_C 	C 	0.2212	0.3572	0.9245	0.019
Mof_N 	N 	0.9114	0.3826	0.5567	-0.207
Mof_N 	N 	0.4146	0.0429	0.8106	-0.299
Mof_C 	C 	0.3494	0.2471	0.3203	-0.002
Mof_C 	C 	0.2647	0.3675	0.294	-0.046
Mof_C 	C 	0.1816	0.331	0.3907	-0.027
Mof_C 	C 	0.148	0.3952	0.4023	0.019
Mof_C 	C 	0.0755	0.7788	0.3572	-0.034
Mof_N 	N 	0.4433	0.0886	0.3826	-0.252
Mof_N 	N 	0.1894	0.5854	0.0429	-0.306
Mof_C 	C 	0.6506	0.2471	0.6797	0.007
Mof_C 	C 	0.7353	0.3675	0.706	-0.023
Mof_C 	C 	0.8184	0.331	0.6093	-0.034
Mof_C 	C 	0.852	0.3952	0.5977	0.067
Mof_C 	C 	0.9245	0.7788	0.6428	0.039
Mof_N 	N 	0.5567	0.0886	0.6174	-0.251
Mof_N 	N 	0.8106	0.5854	0.9571	-0.246
Mof_C 	C 	0.3494	0.7529	0.6797	0.016
Mof_C 	C 	0.2647	0.6325	0.706	-0.037
Mof_C 	C 	0.1816	0.669	0.6093	-0.027
Mof_C 	C 	0.148	0.6048	0.5977	0.026
Mof_C 	C 	0.0755	0.2212	0.6428	-0.043
Mof_N 	N 	0.4433	0.9114	0.6174	-0.206
Mof_N 	N 	0.1894	0.4146	0.9571	-0.255
Mof_C 	C 	0.6506	0.7529	0.3203	0.016
Mof_C 	C 	0.7353	0.6325	0.294	-0.027
Mof_C 	C 	0.8184	0.669	0.3907	-0.036
Mof_C 	C 	0.852	0.6048	0.4023	0.065
Mof_C 	C 	0.9245	0.2212	0.3572	0.019
Mof_N 	N 	0.5567	0.9114	0.3826	-0.207
Mof_N 	N 	0.8106	0.4146	0.0429	-0.299
Mof_C 	C 	0.8494	0.8203	0.7471	0.018
Mof_C 	C 	0.7647	0.794	0.8675	0.009
Mof_C 	C 	0.6816	0.8907	0.831	-0.035
Mof_C 	C 	0.648	0.9023	0.8952	0.118
Mof_C 	C 	0.5755	0.8572	0.2788	0.011
Mof_N 	N 	0.9433	0.8826	0.5886	-0.196
Mof_N 	N 	0.6894	0.5429	0.0854	-0.299
Mof_C 	C 	0.1506	0.1797	0.7471	0.001
Mof_C 	C 	0.2353	0.206	0.8675	-0.028
Mof_C 	C 	0.3184	0.1093	0.831	-0.033
Mof_C 	C 	0.352	0.0977	0.8952	0.053
Mof_C 	C 	0.4245	0.1428	0.2788	-0.044
Mof_N 	N 	0.0567	0.1174	0.5886	-0.261
Mof_N 	N 	0.3106	0.4571	0.0854	-0.3
Mof_C 	C 	0.8494	0.1797	0.2529	0.011
Mof_C 	C 	0.7647	0.206	0.1325	-0.058
Mof_C 	C 	0.6816	0.1093	0.169	-0.022
Mof_C 	C 	0.648	0.0977	0.1048	-0.018
Mof_C 	C 	0.5755	0.1428	0.7212	-0.015
Mof_N 	N 	0.9433	0.1174	0.4114	-0.221
Mof_N 	N 	0.6894	0.4571	0.9146	-0.253
Mof_C 	C 	0.1506	0.8203	0.2529	0.008
Mof_C 	C 	0.2353	0.794	0.1325	-0.054
Mof_C 	C 	0.3184	0.8907	0.169	-0.033
Mof_C 	C 	0.352	0.9023	0.1048	0.025
Mof_C 	C 	0.4245	0.8572	0.7212	0.029
Mof_N 	N 	0.0567	0.8826	0.4114	-0.238
Mof_N 	N 	0.3106	0.5429	0.9146	-0.254
Mof_C 	C 	0.8203	0.7471	0.8494	0.018
Mof_C 	C 	0.794	0.8675	0.7647	0.009
Mof_C 	C 	0.8907	0.831	0.6816	-0.035
Mof_C 	C 	0.9023	0.8952	0.648	0.118
Mof_C 	C 	0.8572	0.2788	0.5755	0.011
Mof_N 	N 	0.8826	0.5886	0.9433	-0.196
Mof_N 	N 	0.5429	0.0854	0.6894	-0.299
Mof_C 	C 	0.1797	0.7471	0.1506	0.001
Mof_C 	C 	0.206	0.8675	0.2353	-0.028
Mof_C 	C 	0.1093	0.831	0.3184	-0.033
Mof_C 	C 	0.0977	0.8952	0.352	0.053
Mof_C 	C 	0.1428	0.2788	0.4245	-0.044
Mof_N 	N 	0.1174	0.5886	0.0567	-0.261
Mof_N 	N 	0.4571	0.0854	0.3106	-0.3
Mof_C 	C 	0.1797	0.2529	0.8494	0.011
Mof_C 	C 	0.206	0.1325	0.7647	-0.058
Mof_C 	C 	0.1093	0.169	0.6816	-0.022
Mof_C 	C 	0.0977	0.1048	0.648	-0.018
Mof_C 	C 	0.1428	0.7212	0.5755	-0.015
Mof_N 	N 	0.1174	0.4114	0.9433	-0.221
Mof_N 	N 	0.4571	0.9146	0.6894	-0.253
Mof_C 	C 	0.8203	0.2529	0.1506	0.008
Mof_C 	C 	0.794	0.1325	0.2353	-0.054
Mof_C 	C 	0.8907	0.169	0.3184	-0.033
Mof_C 	C 	0.9023	0.1048	0.352	0.025
Mof_C 	C 	0.8572	0.7212	0.4245	0.029
Mof_N 	N 	0.8826	0.4114	0.0567	-0.238
Mof_N 	N 	0.5429	0.9146	0.3106	-0.254
Mof_C 	C 	0.7471	0.8494	0.8203	0.018
Mof_C 	C 	0.8675	0.7647	0.794	0.009
Mof_C 	C 	0.831	0.6816	0.8907	-0.035
Mof_C 	C 	0.8952	0.648	0.9023	0.118
Mof_C 	C 	0.2788	0.5755	0.8572	0.011
Mof_N 	N 	0.5886	0.9433	0.8826	-0.196
Mof_N 	N 	0.0854	0.6894	0.5429	-0.299
Mof_C 	C 	0.7471	0.1506	0.1797	0.001
Mof_C 	C 	0.8675	0.2353	0.206	-0.028
Mof_C 	C 	0.831	0.3184	0.1093	-0.033
Mof_C 	C 	0.8952	0.352	0.0977	0.053
Mof_C 	C 	0.2788	0.4245	0.1428	-0.044
Mof_N 	N 	0.5886	0.0567	0.1174	-0.261
Mof_N 	N 	0.0854	0.3106	0.4571	-0.3
Mof_C 	C 	0.2529	0.8494	0.1797	0.011
Mof_C 	C 	0.1325	0.7647	0.206	-0.058
Mof_C 	C 	0.169	0.6816	0.1093	-0.022
Mof_C 	C 	0.1048	0.648	0.0977	-0.018
Mof_C 	C 	0.7212	0.5755	0.1428	-0.015
Mof_N 	N 	0.4114	0.9433	0.1174	-0.221
Mof_N 	N 	0.9146	0.6894	0.4571	-0.253
Mof_C 	C 	0.2529	0.1506	0.8203	0.008
Mof_C 	C 	0.1325	0.2353	0.794	-0.054
Mof_C 	C 	0.169	0.3184	0.8907	-0.033
Mof_C 	C 	0.1048	0.352	0.9023	0.025
Mof_C 	C 	0.7212	0.4245	0.8572	0.029
Mof_N 	N 	0.4114	0.0567	0.8826	-0.238
Mof_N 	N 	0.9146	0.3106	0.5429	-0.254
Mof_O 	O 	0.57	0	0.5	-0.626
Mof_O 	O 	0.43	0	0.5	-0.63
Mof_O 	O 	0.5	0.57	-0	-0.626
Mof_O 	O 	0.5	0.43	-0	-0.63
Mof_O 	O 	6.09357e-33	0.5	0.57	-0.626
Mof_O 	O 	1.61224e-33	0.5	0.43	-0.63
Mof_O 	O 	0.5	0.07	-0	-0.679
Mof_O 	O 	0.5	0.93	-0	-0.576
Mof_O 	O 	0.07	0	0.5	-0.679
Mof_O 	O 	0.93	0	0.5	-0.576
Mof_O 	O 	2.62458e-34	0.5	0.07	-0.679
Mof_O 	O 	3.48694e-33	0.5	0.93	-0.576
Mof_Zn	Zn	0.5	0	0.42	1.133
Mof_Zn	Zn	0.5	0	0.58	1.133
Mof_Zn	Zn	0.42	0.5	-0	1.133
Mof_Zn	Zn	0.58	0.5	-0	1.133
Mof_Zn	Zn	5.83111e-33	0.42	0.5	1.133
Mof_Zn	Zn	-2.08171e-33	0.58	0.5	1.133
Mof_Zn	Zn	0.5	0	0.92	1.154
Mof_Zn	Zn	0.5	0	0.08	1.112
Mof_Zn	Zn	5.83111e-33	0.92	0.5	1.154
Mof_Zn	Zn	1.8747e-33	0.08	0.5	1.112
Mof_Zn	Zn	0.92	0.5	-0	1.154
Mof_Zn	Zn	0.08	0.5	-0	1.112
Mof_Zn	Zn	1.8747e-33	0.25	0.5	1.069
Mof_Zn	Zn	-2.08171e-33	0.75	0.5	1.074
Mof_Zn	Zn	0.5	0	0.25	1.069
Mof_Zn	Zn	0.5	0	0.75	1.074
Mof_Zn	Zn	0.25	0.5	-0	1.069
Mof_Zn	Zn	0.75	0.5	-0	1.074
_end
