data_functionalizedCrystal
_audit_creation_method	'EQeq! by Chris Wilmer'
_symmetry_space_group_name_H-M	'P1'
_symmetry_Int_Tables_number	1
_symmetry_cell_setting	triclinic
loop_
_symmetry_equiv_pos_as_xyz
  x,y,z
_cell_length_a	10.2008
_cell_length_b	20.4494
_cell_length_c	20.5893
_cell_angle_alpha	88.589
_cell_angle_beta	76.395
_cell_angle_gamma	87.033
loop_
_atom_site_label
_atom_site_type_symbol
_atom_site_fract_x
_atom_site_fract_y
_atom_site_fract_z
_atom_site_charge
Mof_O 	O 	0.1473	0.7357	0.16372	-0.262
Mof_C 	C 	0.7059	0.3279	0.3589	0.316
Mof_C 	C 	0.582	0.2883	0.371	-0.068
Mof_C 	C 	0.5889	0.2242	0.3942	0.018
Mof_H 	H 	0.6707	0.2057	0.3999	0.063
Mof_C 	C 	0.4742	0.1874	0.4091	-0.072
Mof_C 	C 	0.3549	0.2143	0.3971	0.019
Mof_H 	H 	0.2786	0.1896	0.4059	0.064
Mof_C 	C 	0.3472	0.2775	0.3723	-0.064
Mof_C 	C 	0.4607	0.3155	0.361	0.014
Mof_H 	H 	0.4549	0.3589	0.3469	0.071
Mof_C 	C 	0.4802	0.1203	0.4401	0.324
Mof_C 	C 	0.2152	0.3061	0.3603	0.308
Mof_C 	C 	0.9259	0.3618	0.1908	0.325
Mof_C 	C 	0.9635	0.3273	0.1244	-0.068
Mof_C 	C 	0.0973	0.3094	0.0954	0.02
Mof_H 	H 	0.1648	0.3203	0.1161	0.065
Mof_C 	C 	0.1311	0.2754	0.0354	-0.065
Mof_C 	C 	0.03	0.2564	0.0062	0.019
Mof_H 	H 	0.0521	0.2324	0.967	0.068
Mof_C 	C 	0.8952	0.2732	0.0355	-0.069
Mof_C 	C 	0.8639	0.3105	0.0933	0.02
Mof_H 	H 	0.7747	0.3243	0.1112	0.065
Mof_C 	C 	0.2775	0.2572	0.0055	0.31
Mof_C 	C 	0.7822	0.2501	0.0076	0.313
Mof_C 	C 	0.9951	0.5147	0.2699	0.31
Mof_C 	C 	0.1293	0.5465	0.248	-0.06
Mof_C 	C 	0.1316	0.6073	0.2165	0.013
Mof_H 	H 	0.0515	0.6284	0.2117	0.067
Mof_C 	C 	0.2537	0.6367	0.1922	-0.06
Mof_C 	C 	0.3722	0.6049	0.1997	0.009
Mof_H 	H 	0.4542	0.6237	0.182	0.071
Mof_C 	C 	0.3702	0.5452	0.2332	-0.054
Mof_C 	C 	0.2476	0.5153	0.2573	0.008
Mof_H 	H 	0.2454	0.475	0.2794	0.071
Mof_C 	C 	0.258	0.7032	0.1584	0.316
Mof_C 	C 	0.5008	0.5146	0.2443	0.294
Mof_C 	C 	0.3889	0.8705	0.1687	0.32
Mof_C 	C 	0.4909	0.8829	0.2086	-0.071
Mof_C 	C 	0.6282	0.8736	0.1802	0.02
Mof_H 	H 	0.657	0.8587	0.1366	0.067
Mof_C 	C 	0.7225	0.8861	0.2164	-0.067
Mof_C 	C 	0.6797	0.9089	0.2811	0.021
Mof_H 	H 	0.7429	0.9184	0.3051	0.061
Mof_C 	C 	0.542	0.9176	0.3105	-0.073
Mof_C 	C 	0.4493	0.9045	0.2739	0.024
Mof_H 	H 	0.3576	0.9103	0.2934	0.064
Mof_C 	C 	0.8714	0.8741	0.1866	0.309
Mof_C 	C 	0.4968	0.943	0.3807	0.324
Mof_Cd	Cd	0.98413	0.36566	0.33926	0.48
Mof_Cd	Cd	0.45396	0.77897	0.03517	0.484
Mof_Cd	Cd	0.13473	0.84238	0.13364	0.483
Mof_Cd	Cd	0.34614	0.99409	0.50605	0.467
Mof_Cd	Cd	0.72949	0.46802	0.27948	0.486
Mof_O 	O 	0.8174	0.2965	0.353	-0.266
Mof_O 	O 	0.6907	0.38898	0.35905	-0.283
Mof_O 	O 	0.3724	0.09071	0.45499	-0.277
Mof_O 	O 	0.5931	0.09899	0.44902	-0.277
Mof_O 	O 	0.1156	0.2718	0.3726	-0.249
Mof_O 	O 	0.2106	0.36291	0.3376	-0.262
Mof_O 	O 	0.0111	0.35903	0.2258	-0.267
Mof_O 	O 	0.8109	0.38955	0.20545	-0.271
Mof_O 	O 	0.6677	0.27874	0.02461	-0.255
Mof_O 	O 	0.8049	0.2008	0.97061	-0.288
Mof_O 	O 	0.3146	0.2408	0.94616	-0.246
Mof_O 	O 	0.3598	0.2587	0.0412	-0.26
Mof_O 	O 	0.9758	0.47579	0.31904	-0.282
Mof_O 	O 	0.9076	0.52987	0.23746	-0.26
Mof_O 	O 	0.3722	0.72066	0.12798	-0.27
Mof_O 	O 	0.6102	0.5387	0.21399	-0.238
Mof_O 	O 	0.498	0.46783	0.28427	-0.254
Mof_O 	O 	0.429	0.86414	0.10643	-0.283
Mof_O 	O 	0.2683	0.8678	0.20018	-0.267
Mof_O 	O 	0.3725	0.94761	0.4063	-0.271
Mof_O 	O 	0.5869	0.95845	0.40885	-0.284
Mof_O 	O 	0.9537	0.8974	0.2144	-0.251
Mof_O 	O 	0.9078	0.8399	0.13592	-0.26
Mof_O 	O 	0.8527	0.2643	0.83628	-0.261
Mof_C 	C 	0.2941	0.6721	0.6411	0.317
Mof_C 	C 	0.418	0.7117	0.629	-0.067
Mof_C 	C 	0.4111	0.7758	0.6058	0.019
Mof_H 	H 	0.3293	0.7943	0.6001	0.064
Mof_C 	C 	0.5258	0.8126	0.5909	-0.071
Mof_C 	C 	0.6451	0.7857	0.6029	0.019
Mof_H 	H 	0.7214	0.8104	0.5941	0.064
Mof_C 	C 	0.6528	0.7225	0.6277	-0.064
Mof_C 	C 	0.5393	0.6845	0.639	0.014
Mof_H 	H 	0.5451	0.6411	0.6531	0.071
Mof_C 	C 	0.5198	0.8797	0.5599	0.324
Mof_C 	C 	0.7848	0.6939	0.6397	0.308
Mof_C 	C 	0.0741	0.6382	0.8092	0.325
Mof_C 	C 	0.0365	0.6727	0.8756	-0.068
Mof_C 	C 	0.9027	0.6906	0.9046	0.02
Mof_H 	H 	0.8352	0.6797	0.8839	0.065
Mof_C 	C 	0.8689	0.7246	0.9646	-0.065
Mof_C 	C 	0.97	0.7436	0.9938	0.019
Mof_H 	H 	0.9479	0.7676	0.033	0.068
Mof_C 	C 	0.1048	0.7268	0.9645	-0.069
Mof_C 	C 	0.1361	0.6895	0.9067	0.02
Mof_H 	H 	0.2253	0.6757	0.8888	0.065
Mof_C 	C 	0.7225	0.7428	0.9945	0.31
Mof_C 	C 	0.2178	0.7499	0.9924	0.313
Mof_C 	C 	0.0049	0.4853	0.7301	0.31
Mof_C 	C 	0.8707	0.4535	0.752	-0.06
Mof_C 	C 	0.8684	0.3927	0.7835	0.013
Mof_H 	H 	0.9485	0.3716	0.7883	0.067
Mof_C 	C 	0.7463	0.3633	0.8078	-0.06
Mof_C 	C 	0.6278	0.3951	0.8003	0.009
Mof_H 	H 	0.5458	0.3763	0.818	0.071
Mof_C 	C 	0.6298	0.4548	0.7668	-0.054
Mof_C 	C 	0.7524	0.4847	0.7427	0.008
Mof_H 	H 	0.7546	0.525	0.7206	0.071
Mof_C 	C 	0.742	0.2968	0.8416	0.316
Mof_C 	C 	0.4992	0.4854	0.7557	0.294
Mof_C 	C 	0.6111	0.1295	0.8313	0.32
Mof_C 	C 	0.5091	0.1171	0.7914	-0.071
Mof_C 	C 	0.3718	0.1264	0.8198	0.02
Mof_H 	H 	0.343	0.1413	0.8634	0.067
Mof_C 	C 	0.2775	0.1139	0.7836	-0.067
Mof_C 	C 	0.3203	0.0911	0.7189	0.021
Mof_H 	H 	0.2571	0.0816	0.6949	0.061
Mof_C 	C 	0.458	0.0824	0.6895	-0.073
Mof_C 	C 	0.5507	0.0955	0.7261	0.024
Mof_H 	H 	0.6424	0.0897	0.7066	0.064
Mof_C 	C 	0.1286	0.1259	0.8134	0.309
Mof_C 	C 	0.5032	0.057	0.6193	0.324
Mof_Cd	Cd	0.01587	0.63434	0.66074	0.48
Mof_Cd	Cd	0.54604	0.22103	0.96482	0.484
Mof_Cd	Cd	0.86527	0.15762	0.86636	0.483
Mof_Cd	Cd	0.65386	0.00591	0.49395	0.467
Mof_Cd	Cd	0.27051	0.53198	0.72052	0.486
Mof_O 	O 	0.1826	0.7035	0.647	-0.266
Mof_O 	O 	0.3093	0.61102	0.64095	-0.283
Mof_O 	O 	0.6276	0.90929	0.54501	-0.277
Mof_O 	O 	0.4069	0.90101	0.55098	-0.277
Mof_O 	O 	0.8844	0.7282	0.6274	-0.249
Mof_O 	O 	0.7894	0.63709	0.6624	-0.262
Mof_O 	O 	0.9889	0.64097	0.7742	-0.267
Mof_O 	O 	0.1891	0.61045	0.79455	-0.271
Mof_O 	O 	0.3323	0.72126	0.97539	-0.255
Mof_O 	O 	0.1951	0.7992	0.02939	-0.288
Mof_O 	O 	0.6854	0.7592	0.05384	-0.246
Mof_O 	O 	0.6402	0.7413	0.9588	-0.26
Mof_O 	O 	0.0242	0.52421	0.68096	-0.282
Mof_O 	O 	0.0924	0.47013	0.76254	-0.26
Mof_O 	O 	0.6278	0.27934	0.87202	-0.27
Mof_O 	O 	0.3898	0.4613	0.78601	-0.238
Mof_O 	O 	0.502	0.53217	0.71573	-0.254
Mof_O 	O 	0.571	0.13586	0.89357	-0.283
Mof_O 	O 	0.7317	0.1322	0.79982	-0.267
Mof_O 	O 	0.6275	0.05239	0.5937	-0.271
Mof_O 	O 	0.4131	0.04155	0.59115	-0.284
Mof_O 	O 	0.0463	0.1026	0.7856	-0.251
Mof_O 	O 	0.0922	0.1601	0.86408	-0.26
_end
