data_functionalizedCrystal
_audit_creation_method	'EQeq! by Chris Wilmer'
_symmetry_space_group_name_H-M	'P1'
_symmetry_Int_Tables_number	1
_symmetry_cell_setting	triclinic
loop_
_symmetry_equiv_pos_as_xyz
  x,y,z
_cell_length_a	8.441
_cell_length_b	8.441
_cell_length_c	17.5
_cell_angle_alpha	90
_cell_angle_beta	90
_cell_angle_gamma	90
loop_
_atom_site_label
_atom_site_type_symbol
_atom_site_fract_x
_atom_site_fract_y
_atom_site_fract_z
_atom_site_charge
Mof_O 	O 	0.1386	0.1479	0.01736	-0.314
Mof_O 	O 	0.1265	0.9703	0.92263	-0.34
Mof_C 	C 	0.0772	0.0341	0.98288	0.11
Mof_O 	O 	0.6386	0.6479	0.51736	-0.336
Mof_O 	O 	0.6265	0.4703	0.42263	-0.36
Mof_C 	C 	0.5772	0.5341	0.48288	0.271
Mof_O 	O 	0.3614	0.8521	0.51736	-0.382
Mof_O 	O 	0.3735	0.0297	0.42263	-0.393
Mof_C 	C 	0.4228	0.9659	0.48288	0.254
Mof_O 	O 	0.8614	0.3521	0.01736	-0.291
Mof_O 	O 	0.8735	0.5297	0.92263	-0.311
Mof_C 	C 	0.9228	0.4659	0.98288	0.44
Mof_O 	O 	0.6021	0.3886	0.26736	-0.351
Mof_O 	O 	0.7797	0.3765	0.17263	-0.28
Mof_C 	C 	0.7159	0.3272	0.23288	0.284
Mof_O 	O 	0.1021	0.8886	0.76736	-0.39
Mof_O 	O 	0.2797	0.8765	0.67263	-0.41
Mof_C 	C 	0.2159	0.8272	0.73288	0.272
Mof_O 	O 	0.8979	0.6114	0.76736	-0.229
Mof_O 	O 	0.7203	0.6235	0.67263	-0.353
Mof_C 	C 	0.7841	0.6728	0.73288	0.275
Mof_O 	O 	0.3979	0.1114	0.26736	-0.36
Mof_O 	O 	0.2203	0.1235	0.17263	-0.363
Mof_C 	C 	0.2841	0.1728	0.23288	0.256
Mof_O 	O 	0.8614	0.8521	0.98264	-0.29
Mof_O 	O 	0.8735	0.0297	0.07737	-0.294
Mof_C 	C 	0.9228	0.9659	0.01712	0.412
Mof_O 	O 	0.3614	0.3521	0.48264	-0.386
Mof_O 	O 	0.3735	0.5297	0.57737	-0.407
Mof_C 	C 	0.4228	0.4659	0.51712	0.283
Mof_O 	O 	0.6386	0.1479	0.48264	-0.34
Mof_O 	O 	0.6265	0.9703	0.57737	-0.375
Mof_C 	C 	0.5772	0.0341	0.51712	0.3
Mof_O 	O 	0.1386	0.6479	0.98264	-0.317
Mof_O 	O 	0.1265	0.4703	0.07737	-0.331
Mof_C 	C 	0.0772	0.5341	0.01712	0.092
Mof_O 	O 	0.3979	0.6114	0.73264	-0.361
Mof_O 	O 	0.2203	0.6235	0.82737	-0.366
Mof_C 	C 	0.2841	0.6728	0.76712	0.256
Mof_O 	O 	0.8979	0.1114	0.23264	-0.228
Mof_O 	O 	0.7203	0.1235	0.32737	-0.352
Mof_C 	C 	0.7841	0.1728	0.26712	0.276
Mof_O 	O 	0.1021	0.3886	0.23264	-0.39
Mof_O 	O 	0.2797	0.3765	0.32737	-0.41
Mof_C 	C 	0.2159	0.3272	0.26712	0.272
Mof_O 	O 	0.6021	0.8886	0.73264	-0.352
Mof_O 	O 	0.7797	0.8765	0.82737	-0.283
Mof_C 	C 	0.7159	0.8272	0.76712	0.284
Mof_Yb	Yb	-4.08967e-33	0.25	0.125	1.425
Mof_Yb	Yb	0.5	0.75	0.625	1.877
Mof_Yb	Yb	0.5	0.25	0.375	1.878
Mof_Yb	Yb	6.80164e-33	0.75	0.875	1.428
_end
