data_functionalizedCrystal
_audit_creation_method	'EQeq! by Chris Wilmer'
_symmetry_space_group_name_H-M	'P1'
_symmetry_Int_Tables_number	1
_symmetry_cell_setting	triclinic
loop_
_symmetry_equiv_pos_as_xyz
  x,y,z
_cell_length_a	15.4115
_cell_length_b	19.185
_cell_length_c	25.471
_cell_angle_alpha	90
_cell_angle_beta	90
_cell_angle_gamma	90
loop_
_atom_site_label
_atom_site_type_symbol
_atom_site_fract_x
_atom_site_fract_y
_atom_site_fract_z
_atom_site_charge
Mof_Zn	Zn	0.93733	0.16212	0.23122	1.188
Mof_Zn	Zn	0.97166	0.03581	0.45095	1.212
Mof_N 	N 	0.9245	0.1309	0.30655	-0.311
Mof_N 	N 	0.865	0.1653	0.3375	-0.321
Mof_N 	N 	0.9282	0.0848	0.38542	-0.35
Mof_N 	N 	0.0505	0.2137	0.21981	-0.306
Mof_H 	H 	0.0277	0.2888	0.7293	-0.091
Mof_N 	N 	0.9553	0.9132	0.027	0.582
Mof_H 	H 	0.0064	0.9112	0.0405	-0.127
Mof_H 	H 	0.943	0.8883	0.9999	-0.094
Mof_O 	O 	0.9861	0.1208	0.49941	-0.455
Mof_O 	O 	0.0236	0.0657	0.57236	-0.468
Mof_O 	O 	0.6018	0.0399	0.06167	-0.453
Mof_O 	O 	0.6424	0.9834	0.98978	-0.463
Mof_O 	O 	0.8342	0.1149	0.1861	-0.47
Mof_O 	O 	0.9577	0.0776	0.1804	-0.468
Mof_C 	C 	0.0281	0.0336	0.3185	-0.891
Mof_H 	H 	0.0841	0.0547	0.3229	0.277
Mof_H 	H 	0.0191	0.0229	0.2821	0.266
Mof_H 	H 	0.0252	0.9915	0.3388	0.283
Mof_C 	C 	0.9603	0.0824	0.33648	0.319
Mof_C 	C 	0.8691	0.1358	0.38382	0.306
Mof_C 	C 	0.8123	0.1572	0.4283	-0.87
Mof_H 	H 	0.7625	0.1815	0.4149	0.233
Mof_H 	H 	0.844	0.1874	0.4514	0.267
Mof_H 	H 	0.7937	0.1166	0.4472	0.276
Mof_C 	C 	0.0069	0.1187	0.5471	0.324
Mof_C 	C 	0.01	0.1875	0.576	0.131
Mof_C 	C 	0.0194	0.188	0.6297	-0.476
Mof_H 	H 	0.0247	0.1461	0.6478	0.201
Mof_C 	C 	0.8833	0.0796	0.1643	0.324
Mof_C 	C 	0.8561	0.0373	0.1171	0.148
Mof_C 	C 	0.9159	0.9951	0.0922	-0.549
Mof_H 	H 	0.9726	0.9923	0.1045	0.23
Mof_C 	C 	0.891	0.9578	0.0496	0.804
Mof_C 	C 	0.8068	0.9643	0.0298	-0.513
Mof_H 	H 	0.7909	0.9388	0.0003	0.205
Mof_C 	C 	0.7477	0.0071	0.0529	0.154
Mof_C 	C 	0.7734	0.0425	0.0982	-0.215
Mof_H 	H 	0.7334	0.0702	0.1159	0.108
Mof_C 	C 	0.6567	0.0108	0.0329	0.306
Mof_C 	C 	0.1594	0.1211	0.2049	-0.875
Mof_H 	H 	0.1112	0.0905	0.2108	0.264
Mof_H 	H 	0.203	0.113	0.2312	0.253
Mof_H 	H 	0.1834	0.1123	0.1708	0.258
Mof_C 	C 	0.1296	0.1946	0.2079	0.296
Mof_H 	H 	0.9301	0.9277	0.0334	-0.75
Mof_Zn	Zn	0.56267	0.83788	0.73122	1.19
Mof_Zn	Zn	0.52834	0.96419	0.95095	1.214
Mof_N 	N 	0.5755	0.8691	0.80655	-0.313
Mof_N 	N 	0.635	0.8347	0.8375	-0.321
Mof_N 	N 	0.5718	0.9152	0.88542	-0.352
Mof_N 	N 	0.4495	0.7863	0.71981	-0.307
Mof_H 	H 	0.4723	0.7112	0.2293	-0.09
Mof_N 	N 	0.5447	0.0868	0.527	0.573
Mof_H 	H 	0.4936	0.0888	0.5405	-0.123
Mof_H 	H 	0.557	0.1117	0.4999	-0.094
Mof_O 	O 	0.5139	0.8792	0.99941	-0.452
Mof_O 	O 	0.4764	0.9343	0.07236	-0.469
Mof_O 	O 	0.8982	0.9601	0.56167	-0.451
Mof_O 	O 	0.8576	0.0166	0.48978	-0.468
Mof_O 	O 	0.6658	0.8851	0.6861	-0.468
Mof_O 	O 	0.5423	0.9224	0.6804	-0.464
Mof_C 	C 	0.4719	0.9664	0.8185	-0.927
Mof_H 	H 	0.4159	0.9453	0.8229	0.287
Mof_H 	H 	0.4809	0.9771	0.7821	0.275
Mof_H 	H 	0.4748	0.0085	0.8388	0.296
Mof_C 	C 	0.5397	0.9176	0.83648	0.332
Mof_C 	C 	0.6309	0.8642	0.88382	0.307
Mof_C 	C 	0.6877	0.8428	0.9283	-0.872
Mof_H 	H 	0.7375	0.8185	0.9149	0.234
Mof_H 	H 	0.656	0.8126	0.9514	0.268
Mof_H 	H 	0.7063	0.8834	0.9472	0.277
Mof_C 	C 	0.4931	0.8813	0.0471	0.32
Mof_C 	C 	0.49	0.8125	0.076	0.134
Mof_C 	C 	0.4806	0.812	0.1297	-0.478
Mof_H 	H 	0.4753	0.8539	0.1478	0.2
Mof_C 	C 	0.6167	0.9204	0.6643	0.321
Mof_C 	C 	0.6439	0.9627	0.6171	0.157
Mof_C 	C 	0.5841	0.0049	0.5922	-0.557
Mof_H 	H 	0.5274	0.0077	0.6045	0.232
Mof_C 	C 	0.609	0.0422	0.5496	0.804
Mof_C 	C 	0.6932	0.0357	0.5298	-0.521
Mof_H 	H 	0.7091	0.0612	0.5003	0.207
Mof_C 	C 	0.7523	0.9929	0.5529	0.162
Mof_C 	C 	0.7266	0.9575	0.5982	-0.221
Mof_H 	H 	0.7666	0.9298	0.6159	0.111
Mof_C 	C 	0.8433	0.9892	0.5329	0.31
Mof_C 	C 	0.3406	0.8789	0.7049	-0.87
Mof_H 	H 	0.3888	0.9095	0.7108	0.261
Mof_H 	H 	0.297	0.887	0.7312	0.251
Mof_H 	H 	0.3166	0.8877	0.6708	0.256
Mof_C 	C 	0.3704	0.8054	0.7079	0.294
Mof_H 	H 	0.5699	0.0723	0.5334	-0.742
Mof_Zn	Zn	0.06267	0.66212	0.76878	1.189
Mof_Zn	Zn	0.02834	0.53581	0.54905	1.214
Mof_N 	N 	0.0755	0.6309	0.69345	-0.313
Mof_N 	N 	0.135	0.6653	0.6625	-0.321
Mof_N 	N 	0.0718	0.5848	0.61458	-0.351
Mof_N 	N 	0.9495	0.7137	0.78019	-0.306
Mof_H 	H 	0.9723	0.7888	0.2707	-0.09
Mof_N 	N 	0.0447	0.4132	0.973	0.578
Mof_H 	H 	0.9936	0.4112	0.9595	-0.123
Mof_H 	H 	0.057	0.3883	0.0001	-0.094
Mof_O 	O 	0.0139	0.6208	0.50059	-0.453
Mof_O 	O 	0.9764	0.5657	0.42764	-0.469
Mof_O 	O 	0.3982	0.5399	0.93833	-0.453
Mof_O 	O 	0.3576	0.4834	0.01022	-0.464
Mof_O 	O 	0.1658	0.6149	0.8139	-0.469
Mof_O 	O 	0.0423	0.5776	0.8196	-0.465
Mof_C 	C 	0.9719	0.5336	0.6815	-0.922
Mof_H 	H 	0.9159	0.5547	0.6771	0.286
Mof_H 	H 	0.9809	0.5229	0.7179	0.274
Mof_H 	H 	0.9748	0.4915	0.6612	0.295
Mof_C 	C 	0.0397	0.5824	0.66352	0.33
Mof_C 	C 	0.1309	0.6358	0.61618	0.306
Mof_C 	C 	0.1877	0.6572	0.5717	-0.87
Mof_H 	H 	0.2375	0.6815	0.5851	0.233
Mof_H 	H 	0.156	0.6874	0.5486	0.267
Mof_H 	H 	0.2063	0.6166	0.5528	0.276
Mof_C 	C 	0.9931	0.6187	0.4529	0.322
Mof_C 	C 	0.99	0.6875	0.424	0.131
Mof_C 	C 	0.9806	0.688	0.3703	-0.476
Mof_H 	H 	0.9753	0.6461	0.3522	0.2
Mof_C 	C 	0.1167	0.5796	0.8357	0.321
Mof_C 	C 	0.1439	0.5373	0.8829	0.157
Mof_C 	C 	0.0841	0.4951	0.9078	-0.559
Mof_H 	H 	0.0274	0.4923	0.8955	0.232
Mof_C 	C 	0.109	0.4578	0.9504	0.81
Mof_C 	C 	0.1932	0.4643	0.9702	-0.521
Mof_H 	H 	0.2091	0.4388	0.9997	0.207
Mof_C 	C 	0.2523	0.5071	0.9471	0.161
Mof_C 	C 	0.2266	0.5425	0.9018	-0.221
Mof_H 	H 	0.2666	0.5702	0.8841	0.111
Mof_C 	C 	0.3433	0.5108	0.9671	0.305
Mof_C 	C 	0.8406	0.6211	0.7951	-0.872
Mof_H 	H 	0.8888	0.5905	0.7892	0.262
Mof_H 	H 	0.797	0.613	0.7688	0.252
Mof_H 	H 	0.8166	0.6123	0.8292	0.257
Mof_C 	C 	0.8704	0.6946	0.7921	0.295
Mof_H 	H 	0.0699	0.4277	0.9666	-0.75
Mof_Zn	Zn	0.43733	0.33788	0.26878	1.19
Mof_Zn	Zn	0.47166	0.46419	0.04905	1.214
Mof_N 	N 	0.4245	0.3691	0.19345	-0.313
Mof_N 	N 	0.365	0.3347	0.1625	-0.321
Mof_N 	N 	0.4282	0.4152	0.11458	-0.352
Mof_N 	N 	0.5505	0.2863	0.28019	-0.307
Mof_H 	H 	0.5277	0.2112	0.7707	-0.09
Mof_N 	N 	0.4553	0.5868	0.473	0.576
Mof_H 	H 	0.5064	0.5888	0.4595	-0.124
Mof_H 	H 	0.443	0.6117	0.5001	-0.095
Mof_O 	O 	0.4861	0.3792	0.00059	-0.452
Mof_O 	O 	0.5236	0.4343	0.92764	-0.469
Mof_O 	O 	0.1018	0.4601	0.43833	-0.452
Mof_O 	O 	0.1424	0.5166	0.51022	-0.465
Mof_O 	O 	0.3342	0.3851	0.3139	-0.469
Mof_O 	O 	0.4577	0.4224	0.3196	-0.465
Mof_C 	C 	0.5281	0.4664	0.1815	-0.926
Mof_H 	H 	0.5841	0.4453	0.1771	0.286
Mof_H 	H 	0.5191	0.4771	0.2179	0.274
Mof_H 	H 	0.5252	0.5085	0.1612	0.296
Mof_C 	C 	0.4603	0.4176	0.16352	0.332
Mof_C 	C 	0.3691	0.3642	0.11618	0.307
Mof_C 	C 	0.3123	0.3428	0.0717	-0.871
Mof_H 	H 	0.2625	0.3185	0.0851	0.234
Mof_H 	H 	0.344	0.3126	0.0486	0.268
Mof_H 	H 	0.2937	0.3834	0.0528	0.277
Mof_C 	C 	0.5069	0.3813	0.9529	0.32
Mof_C 	C 	0.51	0.3125	0.924	0.134
Mof_C 	C 	0.5194	0.312	0.8703	-0.478
Mof_H 	H 	0.5247	0.3539	0.8522	0.2
Mof_C 	C 	0.3833	0.4204	0.3357	0.322
Mof_C 	C 	0.3561	0.4627	0.3829	0.155
Mof_C 	C 	0.4159	0.5049	0.4078	-0.554
Mof_H 	H 	0.4726	0.5077	0.3955	0.231
Mof_C 	C 	0.391	0.5422	0.4504	0.804
Mof_C 	C 	0.3068	0.5357	0.4702	-0.517
Mof_H 	H 	0.2909	0.5612	0.4997	0.206
Mof_C 	C 	0.2477	0.4929	0.4471	0.159
Mof_C 	C 	0.2734	0.4575	0.4018	-0.219
Mof_H 	H 	0.2334	0.4298	0.3841	0.11
Mof_C 	C 	0.1567	0.4892	0.4671	0.307
Mof_C 	C 	0.6594	0.3789	0.2951	-0.871
Mof_H 	H 	0.6112	0.4095	0.2892	0.261
Mof_H 	H 	0.703	0.387	0.2688	0.251
Mof_H 	H 	0.6834	0.3877	0.3292	0.256
Mof_C 	C 	0.6296	0.3054	0.2921	0.295
Mof_H 	H 	0.4301	0.5723	0.4666	-0.744
Mof_Zn	Zn	0.06267	0.83788	0.76878	1.189
Mof_Zn	Zn	0.02834	0.96419	0.54905	1.213
Mof_N 	N 	0.0755	0.8691	0.69345	-0.311
Mof_N 	N 	0.135	0.8347	0.6625	-0.321
Mof_N 	N 	0.0718	0.9152	0.61458	-0.35
Mof_N 	N 	0.9495	0.7863	0.78019	-0.306
Mof_H 	H 	0.9723	0.7112	0.2707	-0.091
Mof_N 	N 	0.0447	0.0868	0.973	0.582
Mof_H 	H 	0.9936	0.0888	0.9595	-0.127
Mof_H 	H 	0.057	0.1117	0.0001	-0.094
Mof_O 	O 	0.0139	0.8792	0.50059	-0.455
Mof_O 	O 	0.9764	0.9343	0.42764	-0.468
Mof_O 	O 	0.3982	0.9601	0.93833	-0.453
Mof_O 	O 	0.3576	0.0166	0.01022	-0.463
Mof_O 	O 	0.1658	0.8851	0.8139	-0.47
Mof_O 	O 	0.0423	0.9224	0.8196	-0.468
Mof_C 	C 	0.9719	0.9664	0.6815	-0.891
Mof_H 	H 	0.9159	0.9453	0.6771	0.277
Mof_H 	H 	0.9809	0.9771	0.7179	0.266
Mof_H 	H 	0.9748	0.0085	0.6612	0.283
Mof_C 	C 	0.0397	0.9176	0.66352	0.319
Mof_C 	C 	0.1309	0.8642	0.61618	0.306
Mof_C 	C 	0.1877	0.8428	0.5717	-0.87
Mof_H 	H 	0.2375	0.8185	0.5851	0.233
Mof_H 	H 	0.156	0.8126	0.5486	0.267
Mof_H 	H 	0.2063	0.8834	0.5528	0.276
Mof_C 	C 	0.9931	0.8813	0.4529	0.324
Mof_C 	C 	0.99	0.8125	0.424	0.131
Mof_C 	C 	0.9806	0.812	0.3703	-0.476
Mof_H 	H 	0.9753	0.8539	0.3522	0.201
Mof_C 	C 	0.1167	0.9204	0.8357	0.324
Mof_C 	C 	0.1439	0.9627	0.8829	0.148
Mof_C 	C 	0.0841	0.0049	0.9078	-0.549
Mof_H 	H 	0.0274	0.0077	0.8955	0.23
Mof_C 	C 	0.109	0.0422	0.9504	0.804
Mof_C 	C 	0.1932	0.0357	0.9702	-0.513
Mof_H 	H 	0.2091	0.0612	0.9997	0.205
Mof_C 	C 	0.2523	0.9929	0.9471	0.154
Mof_C 	C 	0.2266	0.9575	0.9018	-0.215
Mof_H 	H 	0.2666	0.9298	0.8841	0.108
Mof_C 	C 	0.3433	0.9892	0.9671	0.306
Mof_C 	C 	0.8406	0.8789	0.7951	-0.875
Mof_H 	H 	0.8888	0.9095	0.7892	0.264
Mof_H 	H 	0.797	0.887	0.7688	0.253
Mof_H 	H 	0.8166	0.8877	0.8292	0.258
Mof_C 	C 	0.8704	0.8054	0.7921	0.296
Mof_H 	H 	0.0699	0.0723	0.9666	-0.75
Mof_Zn	Zn	0.43733	0.16212	0.26878	1.19
Mof_Zn	Zn	0.47166	0.03581	0.04905	1.214
Mof_N 	N 	0.4245	0.1309	0.19345	-0.313
Mof_N 	N 	0.365	0.1653	0.1625	-0.321
Mof_N 	N 	0.4282	0.0848	0.11458	-0.352
Mof_N 	N 	0.5505	0.2137	0.28019	-0.307
Mof_H 	H 	0.5277	0.2888	0.7707	-0.09
Mof_N 	N 	0.4553	0.9132	0.473	0.573
Mof_H 	H 	0.5064	0.9112	0.4595	-0.123
Mof_H 	H 	0.443	0.8883	0.5001	-0.094
Mof_O 	O 	0.4861	0.1208	0.00059	-0.452
Mof_O 	O 	0.5236	0.0657	0.92764	-0.469
Mof_O 	O 	0.1018	0.0399	0.43833	-0.451
Mof_O 	O 	0.1424	0.9834	0.51022	-0.468
Mof_O 	O 	0.3342	0.1149	0.3139	-0.468
Mof_O 	O 	0.4577	0.0776	0.3196	-0.464
Mof_C 	C 	0.5281	0.0336	0.1815	-0.927
Mof_H 	H 	0.5841	0.0547	0.1771	0.287
Mof_H 	H 	0.5191	0.0229	0.2179	0.275
Mof_H 	H 	0.5252	0.9915	0.1612	0.296
Mof_C 	C 	0.4603	0.0824	0.16352	0.332
Mof_C 	C 	0.3691	0.1358	0.11618	0.307
Mof_C 	C 	0.3123	0.1572	0.0717	-0.872
Mof_H 	H 	0.2625	0.1815	0.0851	0.234
Mof_H 	H 	0.344	0.1874	0.0486	0.268
Mof_H 	H 	0.2937	0.1166	0.0528	0.277
Mof_C 	C 	0.5069	0.1187	0.9529	0.32
Mof_C 	C 	0.51	0.1875	0.924	0.134
Mof_C 	C 	0.5194	0.188	0.8703	-0.478
Mof_H 	H 	0.5247	0.1461	0.8522	0.2
Mof_C 	C 	0.3833	0.0796	0.3357	0.321
Mof_C 	C 	0.3561	0.0373	0.3829	0.157
Mof_C 	C 	0.4159	0.9951	0.4078	-0.557
Mof_H 	H 	0.4726	0.9923	0.3955	0.232
Mof_C 	C 	0.391	0.9578	0.4504	0.804
Mof_C 	C 	0.3068	0.9643	0.4702	-0.521
Mof_H 	H 	0.2909	0.9388	0.4997	0.207
Mof_C 	C 	0.2477	0.0071	0.4471	0.162
Mof_C 	C 	0.2734	0.0425	0.4018	-0.221
Mof_H 	H 	0.2334	0.0702	0.3841	0.111
Mof_C 	C 	0.1567	0.0108	0.4671	0.31
Mof_C 	C 	0.6594	0.1211	0.2951	-0.87
Mof_H 	H 	0.6112	0.0905	0.2892	0.261
Mof_H 	H 	0.703	0.113	0.2688	0.251
Mof_H 	H 	0.6834	0.1123	0.3292	0.256
Mof_C 	C 	0.6296	0.1946	0.2921	0.294
Mof_H 	H 	0.4301	0.9277	0.4666	-0.742
Mof_Zn	Zn	0.93733	0.33788	0.23122	1.189
Mof_Zn	Zn	0.97166	0.46419	0.45095	1.214
Mof_N 	N 	0.9245	0.3691	0.30655	-0.313
Mof_N 	N 	0.865	0.3347	0.3375	-0.321
Mof_N 	N 	0.9282	0.4152	0.38542	-0.351
Mof_N 	N 	0.0505	0.2863	0.21981	-0.306
Mof_H 	H 	0.0277	0.2112	0.7293	-0.09
Mof_N 	N 	0.9553	0.5868	0.027	0.578
Mof_H 	H 	0.0064	0.5888	0.0405	-0.123
Mof_H 	H 	0.943	0.6117	0.9999	-0.094
Mof_O 	O 	0.9861	0.3792	0.49941	-0.453
Mof_O 	O 	0.0236	0.4343	0.57236	-0.469
Mof_O 	O 	0.6018	0.4601	0.06167	-0.453
Mof_O 	O 	0.6424	0.5166	0.98978	-0.464
Mof_O 	O 	0.8342	0.3851	0.1861	-0.469
Mof_O 	O 	0.9577	0.4224	0.1804	-0.465
Mof_C 	C 	0.0281	0.4664	0.3185	-0.922
Mof_H 	H 	0.0841	0.4453	0.3229	0.286
Mof_H 	H 	0.0191	0.4771	0.2821	0.274
Mof_H 	H 	0.0252	0.5085	0.3388	0.295
Mof_C 	C 	0.9603	0.4176	0.33648	0.33
Mof_C 	C 	0.8691	0.3642	0.38382	0.306
Mof_C 	C 	0.8123	0.3428	0.4283	-0.87
Mof_H 	H 	0.7625	0.3185	0.4149	0.233
Mof_H 	H 	0.844	0.3126	0.4514	0.267
Mof_H 	H 	0.7937	0.3834	0.4472	0.276
Mof_C 	C 	0.0069	0.3813	0.5471	0.322
Mof_C 	C 	0.01	0.3125	0.576	0.131
Mof_C 	C 	0.0194	0.312	0.6297	-0.476
Mof_H 	H 	0.0247	0.3539	0.6478	0.2
Mof_C 	C 	0.8833	0.4204	0.1643	0.321
Mof_C 	C 	0.8561	0.4627	0.1171	0.157
Mof_C 	C 	0.9159	0.5049	0.0922	-0.559
Mof_H 	H 	0.9726	0.5077	0.1045	0.232
Mof_C 	C 	0.891	0.5422	0.0496	0.81
Mof_C 	C 	0.8068	0.5357	0.0298	-0.521
Mof_H 	H 	0.7909	0.5612	0.0003	0.207
Mof_C 	C 	0.7477	0.4929	0.0529	0.161
Mof_C 	C 	0.7734	0.4575	0.0982	-0.221
Mof_H 	H 	0.7334	0.4298	0.1159	0.111
Mof_C 	C 	0.6567	0.4892	0.0329	0.305
Mof_C 	C 	0.1594	0.3789	0.2049	-0.872
Mof_H 	H 	0.1112	0.4095	0.2108	0.262
Mof_H 	H 	0.203	0.387	0.2312	0.252
Mof_H 	H 	0.1834	0.3877	0.1708	0.257
Mof_C 	C 	0.1296	0.3054	0.2079	0.295
Mof_H 	H 	0.9301	0.5723	0.0334	-0.75
Mof_Zn	Zn	0.56267	0.66212	0.73122	1.19
Mof_Zn	Zn	0.52834	0.53581	0.95095	1.214
Mof_N 	N 	0.5755	0.6309	0.80655	-0.313
Mof_N 	N 	0.635	0.6653	0.8375	-0.321
Mof_N 	N 	0.5718	0.5848	0.88542	-0.352
Mof_N 	N 	0.4495	0.7137	0.71981	-0.307
Mof_H 	H 	0.4723	0.7888	0.2293	-0.09
Mof_N 	N 	0.5447	0.4132	0.527	0.576
Mof_H 	H 	0.4936	0.4112	0.5405	-0.124
Mof_H 	H 	0.557	0.3883	0.4999	-0.095
Mof_O 	O 	0.5139	0.6208	0.99941	-0.452
Mof_O 	O 	0.4764	0.5657	0.07236	-0.469
Mof_O 	O 	0.8982	0.5399	0.56167	-0.452
Mof_O 	O 	0.8576	0.4834	0.48978	-0.465
Mof_O 	O 	0.6658	0.6149	0.6861	-0.469
Mof_O 	O 	0.5423	0.5776	0.6804	-0.465
Mof_C 	C 	0.4719	0.5336	0.8185	-0.926
Mof_H 	H 	0.4159	0.5547	0.8229	0.286
Mof_H 	H 	0.4809	0.5229	0.7821	0.274
Mof_H 	H 	0.4748	0.4915	0.8388	0.296
Mof_C 	C 	0.5397	0.5824	0.83648	0.332
Mof_C 	C 	0.6309	0.6358	0.88382	0.307
Mof_C 	C 	0.6877	0.6572	0.9283	-0.871
Mof_H 	H 	0.7375	0.6815	0.9149	0.234
Mof_H 	H 	0.656	0.6874	0.9514	0.268
Mof_H 	H 	0.7063	0.6166	0.9472	0.277
Mof_C 	C 	0.4931	0.6187	0.0471	0.32
Mof_C 	C 	0.49	0.6875	0.076	0.134
Mof_C 	C 	0.4806	0.688	0.1297	-0.478
Mof_H 	H 	0.4753	0.6461	0.1478	0.2
Mof_C 	C 	0.6167	0.5796	0.6643	0.322
Mof_C 	C 	0.6439	0.5373	0.6171	0.155
Mof_C 	C 	0.5841	0.4951	0.5922	-0.554
Mof_H 	H 	0.5274	0.4923	0.6045	0.231
Mof_C 	C 	0.609	0.4578	0.5496	0.804
Mof_C 	C 	0.6932	0.4643	0.5298	-0.517
Mof_H 	H 	0.7091	0.4388	0.5003	0.206
Mof_C 	C 	0.7523	0.5071	0.5529	0.159
Mof_C 	C 	0.7266	0.5425	0.5982	-0.219
Mof_H 	H 	0.7666	0.5702	0.6159	0.11
Mof_C 	C 	0.8433	0.5108	0.5329	0.307
Mof_C 	C 	0.3406	0.6211	0.7049	-0.871
Mof_H 	H 	0.3888	0.5905	0.7108	0.261
Mof_H 	H 	0.297	0.613	0.7312	0.251
Mof_H 	H 	0.3166	0.6123	0.6708	0.256
Mof_C 	C 	0.3704	0.6946	0.7079	0.295
Mof_H 	H 	0.5699	0.4277	0.5334	-0.744
Mof_Zn	Zn	0.80809	0.25	0.30813	1.173
Mof_N 	N 	0.1821	0.25	0.1997	-0.396
Mof_N 	N 	0.026	0.25	0.7124	0.509
Mof_O 	O 	0.8648	0.25	0.2385	-0.898
Mof_H 	H 	0.824	0.25	0.2137	0.239
Mof_C 	C 	0.021	0.25	0.6569	0.714
Mof_C 	C 	0.002	0.25	0.5489	-0.187
Mof_H 	H 	0.9913	0.25	0.513	0.1
Mof_H 	H 	0.0231	0.25	0.6934	-0.67
Mof_Zn	Zn	0.69191	0.75	0.80813	1.173
Mof_N 	N 	0.3179	0.75	0.6997	-0.395
Mof_N 	N 	0.474	0.75	0.2124	0.508
Mof_O 	O 	0.6352	0.75	0.7385	-0.897
Mof_H 	H 	0.676	0.75	0.7137	0.239
Mof_C 	C 	0.479	0.75	0.1569	0.714
Mof_C 	C 	0.498	0.75	0.0489	-0.193
Mof_H 	H 	0.5087	0.75	0.013	0.103
Mof_H 	H 	0.4769	0.75	0.1934	-0.669
Mof_Zn	Zn	0.19191	0.75	0.69187	1.173
Mof_N 	N 	0.8179	0.75	0.8003	-0.396
Mof_N 	N 	0.974	0.75	0.2876	0.509
Mof_O 	O 	0.1352	0.75	0.7615	-0.898
Mof_H 	H 	0.176	0.75	0.7863	0.239
Mof_C 	C 	0.979	0.75	0.3431	0.714
Mof_C 	C 	0.998	0.75	0.4511	-0.187
Mof_H 	H 	0.0087	0.75	0.487	0.1
Mof_H 	H 	0.9769	0.75	0.3066	-0.67
Mof_Zn	Zn	0.30809	0.25	0.19187	1.173
Mof_N 	N 	0.6821	0.25	0.3003	-0.395
Mof_N 	N 	0.526	0.25	0.7876	0.508
Mof_O 	O 	0.3648	0.25	0.2615	-0.897
Mof_H 	H 	0.324	0.25	0.2863	0.239
Mof_C 	C 	0.521	0.25	0.8431	0.714
Mof_C 	C 	0.502	0.25	0.9511	-0.193
Mof_H 	H 	0.4913	0.25	0.987	0.103
Mof_H 	H 	0.5231	0.25	0.8066	-0.669
_end
