data_functionalizedCrystal
_audit_creation_method	'EQeq! by Chris Wilmer'
_symmetry_space_group_name_H-M	'P1'
_symmetry_Int_Tables_number	1
_symmetry_cell_setting	triclinic
loop_
_symmetry_equiv_pos_as_xyz
  x,y,z
_cell_length_a	9.646
_cell_length_b	9.41
_cell_length_c	30.929
_cell_angle_alpha	90
_cell_angle_beta	93.338
_cell_angle_gamma	90
loop_
_atom_site_label
_atom_site_type_symbol
_atom_site_fract_x
_atom_site_fract_y
_atom_site_fract_z
_atom_site_charge
Mof_Zn	Zn	0.03557	0.27106	0.14027	1.23
Mof_Zn	Zn	0.21463	0.55604	0.03969	1.211
Mof_Zn	Zn	0.06167	0.80211	0.19345	1.227
Mof_P 	P 	0.96249	0.11013	0.2208	0.412
Mof_P 	P 	0.24892	0.06078	0.1827	0.415
Mof_P 	P 	0.92741	0.37431	0.05042	0.422
Mof_P 	P 	0.02478	0.59927	0.1145	0.43
Mof_O 	O 	0.911	0.1984	0.18205	-0.437
Mof_O 	O 	0.9342	0.9511	0.21381	-0.425
Mof_O 	O 	0.9002	0.162	0.26185	-0.435
Mof_O 	O 	0.1806	0.1301	0.1418	-0.431
Mof_O 	O 	0.3983	0.1036	0.1905	-0.227
Mof_O 	O 	0.2304	0.8994	0.18157	-0.43
Mof_O 	O 	0.1914	0.2757	0.22864	-0.375
Mof_H 	H 	0.1485	0.3182	0.2468	0.227
Mof_O 	O 	0.9316	0.2543	0.08325	-0.409
Mof_O 	O 	0.0696	0.3996	0.03312	-0.453
Mof_O 	O 	0.8174	0.3433	0.01447	-0.427
Mof_O 	O 	0.9696	0.7159	0.14241	-0.42
Mof_O 	O 	0.1339	0.6591	0.0858	-0.443
Mof_O 	O 	0.0779	0.4724	0.14067	-0.476
Mof_O 	O 	0.8345	0.6453	0.04797	-0.331
Mof_H 	H 	0.8654	0.6272	0.0245	0.201
Mof_N 	N 	0.533	0.8784	0.2991	-0.21
Mof_H 	H 	0.5654	0.7933	0.3	0.173
Mof_N 	N 	0.3918	0.4521	0.0573	-0.25
Mof_C 	C 	0.1533	0.1284	0.2285	-0.054
Mof_C 	C 	0.1935	0.0544	0.2723	-0.128
Mof_H 	H 	0.1544	0.1098	0.2951	0.049
Mof_H 	H 	0.1485	0.9622	0.272	0.042
Mof_C 	C 	0.3443	0.0322	0.2845	0.026
Mof_C 	C 	0.4327	0.1437	0.2968	-0.02
Mof_H 	H 	0.3985	0.2362	0.2961	0.062
Mof_C 	C 	0.5706	0.1202	0.31	-0.109
Mof_H 	H 	0.6291	0.1954	0.318	0.08
Mof_C 	C 	0.6179	0.9844	0.3108	0.107
Mof_H 	H 	0.7099	0.9655	0.3196	0.007
Mof_C 	C 	0.3997	0.8971	0.2861	0.033
Mof_H 	H 	0.3446	0.8193	0.2782	0.039
Mof_C 	C 	0.8769	0.5359	0.0788	-0.025
Mof_C 	C 	0.7539	0.5133	0.108	-0.169
Mof_H 	H 	0.7889	0.4607	0.1333	0.063
Mof_H 	H 	0.726	0.6061	0.118	0.105
Mof_C 	C 	0.6235	0.4378	0.09	0.067
Mof_C 	C 	0.6047	0.2974	0.0979	-0.076
Mof_H 	H 	0.6761	0.2434	0.1111	0.075
Mof_C 	C 	0.4802	0.237	0.0865	-0.037
Mof_H 	H 	0.4654	0.1417	0.0926	0.063
Mof_C 	C 	0.3754	0.3157	0.0658	0.016
Mof_H 	H 	0.2915	0.2719	0.0577	0.009
Mof_C 	C 	0.5125	0.5122	0.0703	-0.024
Mof_H 	H 	0.523	0.6092	0.0659	0.026
Mof_Zn	Zn	0.96443	0.77106	0.35973	1.23
Mof_Zn	Zn	0.78537	0.05604	0.46031	1.21
Mof_Zn	Zn	0.93833	0.30211	0.30655	1.228
Mof_P 	P 	0.03751	0.61013	0.2792	0.42
Mof_P 	P 	0.75108	0.56078	0.3173	0.415
Mof_P 	P 	0.07259	0.87431	0.44958	0.416
Mof_P 	P 	0.97522	0.09927	0.3855	0.421
Mof_O 	O 	0.089	0.6984	0.31795	-0.438
Mof_O 	O 	0.0658	0.4511	0.28619	-0.431
Mof_O 	O 	0.0998	0.662	0.23815	-0.434
Mof_O 	O 	0.8194	0.6301	0.3582	-0.432
Mof_O 	O 	0.6017	0.6036	0.3095	-0.226
Mof_O 	O 	0.7696	0.3994	0.31843	-0.429
Mof_O 	O 	0.8086	0.7757	0.27136	-0.375
Mof_H 	H 	0.8515	0.8182	0.2532	0.227
Mof_O 	O 	0.0684	0.7543	0.41675	-0.407
Mof_O 	O 	0.9304	0.8996	0.46688	-0.448
Mof_O 	O 	0.1826	0.8433	0.48553	-0.427
Mof_O 	O 	0.0304	0.2159	0.35759	-0.419
Mof_O 	O 	0.8661	0.1591	0.4142	-0.443
Mof_O 	O 	0.9221	0.9724	0.35933	-0.469
Mof_O 	O 	0.1655	0.1453	0.45203	-0.332
Mof_H 	H 	0.1346	0.1272	0.4755	0.202
Mof_N 	N 	0.467	0.3784	0.2009	-0.207
Mof_H 	H 	0.4346	0.2933	0.2	0.172
Mof_N 	N 	0.6082	0.9521	0.4427	-0.248
Mof_C 	C 	0.8467	0.6284	0.2715	-0.054
Mof_C 	C 	0.8065	0.5544	0.2277	-0.136
Mof_H 	H 	0.8456	0.6098	0.2049	0.051
Mof_H 	H 	0.8515	0.4622	0.228	0.046
Mof_C 	C 	0.6557	0.5322	0.2155	0.034
Mof_C 	C 	0.5673	0.6437	0.2032	-0.029
Mof_H 	H 	0.6015	0.7362	0.2039	0.065
Mof_C 	C 	0.4294	0.6202	0.19	-0.095
Mof_H 	H 	0.3709	0.6954	0.182	0.076
Mof_C 	C 	0.3821	0.4844	0.1892	0.096
Mof_H 	H 	0.2901	0.4655	0.1804	0.01
Mof_C 	C 	0.6003	0.3971	0.2139	0.027
Mof_H 	H 	0.6554	0.3193	0.2218	0.041
Mof_C 	C 	0.1231	0.0359	0.4212	-0.02
Mof_C 	C 	0.2461	0.0133	0.392	-0.168
Mof_H 	H 	0.2111	0.9607	0.3667	0.061
Mof_H 	H 	0.274	0.1061	0.382	0.104
Mof_C 	C 	0.3765	0.9378	0.41	0.068
Mof_C 	C 	0.3953	0.7974	0.4021	-0.077
Mof_H 	H 	0.3239	0.7434	0.3889	0.076
Mof_C 	C 	0.5198	0.737	0.4135	-0.036
Mof_H 	H 	0.5346	0.6417	0.4074	0.064
Mof_C 	C 	0.6246	0.8157	0.4342	0.016
Mof_H 	H 	0.7085	0.7719	0.4423	0.009
Mof_C 	C 	0.4875	0.0122	0.4297	-0.028
Mof_H 	H 	0.477	0.1092	0.4341	0.027
Mof_Zn	Zn	0.96443	0.72894	0.85973	1.23
Mof_Zn	Zn	0.78537	0.44396	0.96031	1.211
Mof_Zn	Zn	0.93833	0.19789	0.80655	1.227
Mof_P 	P 	0.03751	0.88987	0.7792	0.412
Mof_P 	P 	0.75108	0.93922	0.8173	0.415
Mof_P 	P 	0.07259	0.62569	0.94958	0.422
Mof_P 	P 	0.97522	0.40073	0.8855	0.43
Mof_O 	O 	0.089	0.8016	0.81795	-0.437
Mof_O 	O 	0.0658	0.0489	0.78619	-0.425
Mof_O 	O 	0.0998	0.838	0.73815	-0.435
Mof_O 	O 	0.8194	0.8699	0.8582	-0.431
Mof_O 	O 	0.6017	0.8964	0.8095	-0.227
Mof_O 	O 	0.7696	0.1006	0.81843	-0.43
Mof_O 	O 	0.8086	0.7243	0.77136	-0.375
Mof_H 	H 	0.8515	0.6818	0.7532	0.227
Mof_O 	O 	0.0684	0.7457	0.91675	-0.409
Mof_O 	O 	0.9304	0.6004	0.96688	-0.453
Mof_O 	O 	0.1826	0.6567	0.98553	-0.427
Mof_O 	O 	0.0304	0.2841	0.85759	-0.42
Mof_O 	O 	0.8661	0.3409	0.9142	-0.443
Mof_O 	O 	0.9221	0.5276	0.85933	-0.476
Mof_O 	O 	0.1655	0.3547	0.95203	-0.331
Mof_H 	H 	0.1346	0.3728	0.9755	0.201
Mof_N 	N 	0.467	0.1216	0.7009	-0.21
Mof_H 	H 	0.4346	0.2067	0.7	0.173
Mof_N 	N 	0.6082	0.5479	0.9427	-0.25
Mof_C 	C 	0.8467	0.8716	0.7715	-0.054
Mof_C 	C 	0.8065	0.9456	0.7277	-0.128
Mof_H 	H 	0.8456	0.8902	0.7049	0.049
Mof_H 	H 	0.8515	0.0378	0.728	0.042
Mof_C 	C 	0.6557	0.9678	0.7155	0.026
Mof_C 	C 	0.5673	0.8563	0.7032	-0.02
Mof_H 	H 	0.6015	0.7638	0.7039	0.062
Mof_C 	C 	0.4294	0.8798	0.69	-0.109
Mof_H 	H 	0.3709	0.8046	0.682	0.08
Mof_C 	C 	0.3821	0.0156	0.6892	0.107
Mof_H 	H 	0.2901	0.0345	0.6804	0.007
Mof_C 	C 	0.6003	0.1029	0.7139	0.033
Mof_H 	H 	0.6554	0.1807	0.7218	0.039
Mof_C 	C 	0.1231	0.4641	0.9212	-0.025
Mof_C 	C 	0.2461	0.4867	0.892	-0.169
Mof_H 	H 	0.2111	0.5393	0.8667	0.063
Mof_H 	H 	0.274	0.3939	0.882	0.105
Mof_C 	C 	0.3765	0.5622	0.91	0.067
Mof_C 	C 	0.3953	0.7026	0.9021	-0.076
Mof_H 	H 	0.3239	0.7566	0.8889	0.075
Mof_C 	C 	0.5198	0.763	0.9135	-0.037
Mof_H 	H 	0.5346	0.8583	0.9074	0.063
Mof_C 	C 	0.6246	0.6843	0.9342	0.016
Mof_H 	H 	0.7085	0.7281	0.9423	0.009
Mof_C 	C 	0.4875	0.4878	0.9297	-0.024
Mof_H 	H 	0.477	0.3908	0.9341	0.026
Mof_Zn	Zn	0.03557	0.22894	0.64027	1.23
Mof_Zn	Zn	0.21463	0.94396	0.53969	1.21
Mof_Zn	Zn	0.06167	0.69789	0.69345	1.228
Mof_P 	P 	0.96249	0.38987	0.7208	0.42
Mof_P 	P 	0.24892	0.43922	0.6827	0.415
Mof_P 	P 	0.92741	0.12569	0.55042	0.416
Mof_P 	P 	0.02478	0.90073	0.6145	0.421
Mof_O 	O 	0.911	0.3016	0.68205	-0.438
Mof_O 	O 	0.9342	0.5489	0.71381	-0.431
Mof_O 	O 	0.9002	0.338	0.76185	-0.434
Mof_O 	O 	0.1806	0.3699	0.6418	-0.432
Mof_O 	O 	0.3983	0.3964	0.6905	-0.226
Mof_O 	O 	0.2304	0.6006	0.68157	-0.429
Mof_O 	O 	0.1914	0.2243	0.72864	-0.375
Mof_H 	H 	0.1485	0.1818	0.7468	0.227
Mof_O 	O 	0.9316	0.2457	0.58325	-0.407
Mof_O 	O 	0.0696	0.1004	0.53312	-0.448
Mof_O 	O 	0.8174	0.1567	0.51447	-0.427
Mof_O 	O 	0.9696	0.7841	0.64241	-0.419
Mof_O 	O 	0.1339	0.8409	0.5858	-0.443
Mof_O 	O 	0.0779	0.0276	0.64067	-0.469
Mof_O 	O 	0.8345	0.8547	0.54797	-0.332
Mof_H 	H 	0.8654	0.8728	0.5245	0.202
Mof_N 	N 	0.533	0.6216	0.7991	-0.207
Mof_H 	H 	0.5654	0.7067	0.8	0.172
Mof_N 	N 	0.3918	0.0479	0.5573	-0.248
Mof_C 	C 	0.1533	0.3716	0.7285	-0.054
Mof_C 	C 	0.1935	0.4456	0.7723	-0.136
Mof_H 	H 	0.1544	0.3902	0.7951	0.051
Mof_H 	H 	0.1485	0.5378	0.772	0.046
Mof_C 	C 	0.3443	0.4678	0.7845	0.034
Mof_C 	C 	0.4327	0.3563	0.7968	-0.029
Mof_H 	H 	0.3985	0.2638	0.7961	0.065
Mof_C 	C 	0.5706	0.3798	0.81	-0.095
Mof_H 	H 	0.6291	0.3046	0.818	0.076
Mof_C 	C 	0.6179	0.5156	0.8108	0.096
Mof_H 	H 	0.7099	0.5345	0.8196	0.01
Mof_C 	C 	0.3997	0.6029	0.7861	0.027
Mof_H 	H 	0.3446	0.6807	0.7782	0.041
Mof_C 	C 	0.8769	0.9641	0.5788	-0.02
Mof_C 	C 	0.7539	0.9867	0.608	-0.168
Mof_H 	H 	0.7889	0.0393	0.6333	0.061
Mof_H 	H 	0.726	0.8939	0.618	0.104
Mof_C 	C 	0.6235	0.0622	0.59	0.068
Mof_C 	C 	0.6047	0.2026	0.5979	-0.077
Mof_H 	H 	0.6761	0.2566	0.6111	0.076
Mof_C 	C 	0.4802	0.263	0.5865	-0.036
Mof_H 	H 	0.4654	0.3583	0.5926	0.064
Mof_C 	C 	0.3754	0.1843	0.5658	0.016
Mof_H 	H 	0.2915	0.2281	0.5577	0.009
Mof_C 	C 	0.5125	0.9878	0.5703	-0.028
Mof_H 	H 	0.523	0.8908	0.5659	0.027
_end
