data_functionalizedCrystal
_audit_creation_method	'EQeq! by Chris Wilmer'
_symmetry_space_group_name_H-M	'P1'
_symmetry_Int_Tables_number	1
_symmetry_cell_setting	triclinic
loop_
_symmetry_equiv_pos_as_xyz
  x,y,z
_cell_length_a	34.1449
_cell_length_b	34.1449
_cell_length_c	19.8843
_cell_angle_alpha	90
_cell_angle_beta	90
_cell_angle_gamma	90
loop_
_atom_site_label
_atom_site_type_symbol
_atom_site_fract_x
_atom_site_fract_y
_atom_site_fract_z
_atom_site_charge
Mof_Cu	Cu	0.24658	0.25458	0.31462	0.903
Mof_O 	O 	0.19785	0.28048	0.3007	-0.399
Mof_O 	O 	0.45842	0.46701	0.066	-0.404
Mof_C 	C 	0.1346	0.3124	0.1569	0.032
Mof_H 	H 	0.15	0.3055	0.1201	0.028
Mof_C 	C 	0.3156	0.3646	0.1542	0.022
Mof_H 	H 	0.3117	0.3484	0.1173	0.031
Mof_C 	C 	0.07428	0.34107	0.2023	0.123
Mof_C 	C 	0.0978	0.3312	0.1511	-0.146
Mof_H 	H 	0.0892	0.3373	0.1079	0.077
Mof_C 	C 	0.3318	0.4035	0.1513	-0.121
Mof_H 	H 	0.3364	0.4135	0.1085	0.071
Mof_C 	C 	0.34134	0.4273	0.2035	0.088
Mof_O 	O 	0.03312	0.45924	0.0677	-0.411
Mof_C 	C 	0.3131	0.3757	0.2848	0.032
Mof_H 	H 	0.3079	0.3681	0.3289	0.033
Mof_O 	O 	0.27389	0.30299	0.3037	-0.393
Mof_C 	C 	0.3051	0.3534	0.2302	-0.1
Mof_O 	O 	0.28161	0.29761	0.1917	-0.454
Mof_C 	C 	0.03465	0.39326	0.151	0.029
Mof_H 	H 	0.0581	0.4047	0.1376	0.034
Mof_C 	C 	0.3597	0.46448	0.1931	-0.07
Mof_C 	C 	0.39457	0.46422	0.1499	-0.001
Mof_C 	C 	0.03591	0.3594	0.1903	-0.106
Mof_C 	C 	0.12319	0.3149	0.2796	0.037
Mof_H 	H 	0.1308	0.3108	0.324	0.03
Mof_O 	O 	0.20407	0.27237	0.1832	-0.382
Mof_C 	C 	0.0867	0.3318	0.2608	-0.156
Mof_H 	H 	0.0696	0.3369	0.296	0.076
Mof_C 	C 	0.14583	0.30511	0.2256	-0.075
Mof_C 	C 	0.3312	0.4136	0.266	-0.12
Mof_H 	H 	0.3363	0.4305	0.3015	0.071
Mof_C 	C 	0.2852	0.3143	0.2386	0.393
Mof_C 	C 	0.18616	0.28434	0.2419	0.291
Mof_H 	H 	0.022	0.307	0.266	0.176
Mof_H 	H 	0.306	0.473	0.274	0.091
Mof_H 	H 	0.4101	0.4422	0.147	0.046
Mof_Cu	Cu	0.74658	0.75458	0.81462	0.906
Mof_O 	O 	0.69785	0.78048	0.8007	-0.393
Mof_O 	O 	0.95842	0.96701	0.566	-0.382
Mof_C 	C 	0.6346	0.8124	0.6569	0.035
Mof_H 	H 	0.65	0.8055	0.6201	0.035
Mof_C 	C 	0.8156	0.8646	0.6542	0.025
Mof_H 	H 	0.8117	0.8484	0.6173	0.039
Mof_C 	C 	0.57428	0.84107	0.7023	0.126
Mof_C 	C 	0.5978	0.8312	0.6511	-0.142
Mof_H 	H 	0.5892	0.8373	0.6079	0.085
Mof_C 	C 	0.8318	0.9035	0.6513	-0.116
Mof_H 	H 	0.8364	0.9135	0.6085	0.078
Mof_C 	C 	0.84134	0.9273	0.7035	0.089
Mof_O 	O 	0.53312	0.95924	0.5677	-0.398
Mof_C 	C 	0.8131	0.8757	0.7848	0.032
Mof_H 	H 	0.8079	0.8681	0.8289	0.039
Mof_O 	O 	0.77389	0.80299	0.8037	-0.388
Mof_C 	C 	0.8051	0.8534	0.7302	-0.095
Mof_O 	O 	0.78161	0.79761	0.6917	-0.449
Mof_C 	C 	0.53465	0.89326	0.651	0.026
Mof_H 	H 	0.5581	0.9047	0.6376	0.04
Mof_C 	C 	0.8597	0.96448	0.6931	-0.059
Mof_C 	C 	0.89457	0.96422	0.6499	0.008
Mof_C 	C 	0.53591	0.8594	0.6903	-0.102
Mof_C 	C 	0.62319	0.8149	0.7796	0.039
Mof_H 	H 	0.6308	0.8108	0.824	0.036
Mof_O 	O 	0.70407	0.77237	0.6832	-0.378
Mof_C 	C 	0.5867	0.8318	0.7608	-0.154
Mof_H 	H 	0.5696	0.8369	0.796	0.08
Mof_C 	C 	0.64583	0.80511	0.7256	-0.071
Mof_C 	C 	0.8312	0.9136	0.766	-0.116
Mof_H 	H 	0.8363	0.9305	0.8015	0.075
Mof_C 	C 	0.7852	0.8143	0.7386	0.392
Mof_C 	C 	0.68616	0.78434	0.7419	0.291
Mof_H 	H 	0.522	0.807	0.766	0.179
Mof_H 	H 	0.806	0.973	0.774	0.1
Mof_H 	H 	0.9101	0.9422	0.647	0.049
Mof_Cu	Cu	0.75342	0.74542	0.31462	0.905
Mof_O 	O 	0.80215	0.71952	0.3007	-0.398
Mof_O 	O 	0.54158	0.53299	0.066	-0.403
Mof_C 	C 	0.8654	0.6876	0.1569	0.033
Mof_H 	H 	0.85	0.6945	0.1201	0.029
Mof_C 	C 	0.6844	0.6354	0.1542	0.023
Mof_H 	H 	0.6883	0.6516	0.1173	0.032
Mof_C 	C 	0.92572	0.65893	0.2023	0.124
Mof_C 	C 	0.9022	0.6688	0.1511	-0.143
Mof_H 	H 	0.9108	0.6627	0.1079	0.079
Mof_C 	C 	0.6682	0.5965	0.1513	-0.119
Mof_H 	H 	0.6636	0.5865	0.1085	0.072
Mof_C 	C 	0.65866	0.5727	0.2035	0.089
Mof_O 	O 	0.96688	0.54076	0.0677	-0.405
Mof_C 	C 	0.6869	0.6243	0.2848	0.032
Mof_H 	H 	0.6921	0.6319	0.3289	0.033
Mof_O 	O 	0.72611	0.69701	0.3037	-0.393
Mof_C 	C 	0.6949	0.6466	0.2302	-0.1
Mof_O 	O 	0.71839	0.70239	0.1917	-0.454
Mof_C 	C 	0.96535	0.60674	0.151	0.036
Mof_H 	H 	0.9419	0.5953	0.1376	0.033
Mof_C 	C 	0.6403	0.53552	0.1931	-0.07
Mof_C 	C 	0.60543	0.53578	0.1499	-0.001
Mof_C 	C 	0.96409	0.6406	0.1903	-0.102
Mof_C 	C 	0.87681	0.6851	0.2796	0.038
Mof_H 	H 	0.8692	0.6892	0.324	0.031
Mof_O 	O 	0.79593	0.72763	0.1832	-0.382
Mof_C 	C 	0.9133	0.6682	0.2608	-0.155
Mof_H 	H 	0.9304	0.6631	0.296	0.077
Mof_C 	C 	0.85417	0.69489	0.2256	-0.074
Mof_C 	C 	0.6688	0.5864	0.266	-0.12
Mof_H 	H 	0.6637	0.5695	0.3015	0.071
Mof_C 	C 	0.7148	0.6857	0.2386	0.393
Mof_C 	C 	0.81384	0.71566	0.2419	0.291
Mof_H 	H 	0.978	0.693	0.266	0.182
Mof_H 	H 	0.694	0.527	0.274	0.091
Mof_H 	H 	0.5899	0.5578	0.147	0.046
Mof_Cu	Cu	0.25342	0.24542	0.81462	0.906
Mof_O 	O 	0.30215	0.21952	0.8007	-0.393
Mof_O 	O 	0.04158	0.03299	0.566	-0.394
Mof_C 	C 	0.3654	0.1876	0.6569	0.035
Mof_H 	H 	0.35	0.1945	0.6201	0.035
Mof_C 	C 	0.1844	0.1354	0.6542	0.024
Mof_H 	H 	0.1883	0.1516	0.6173	0.038
Mof_C 	C 	0.42572	0.15893	0.7023	0.126
Mof_C 	C 	0.4022	0.1688	0.6511	-0.143
Mof_H 	H 	0.4108	0.1627	0.6079	0.085
Mof_C 	C 	0.1682	0.0965	0.6513	-0.117
Mof_H 	H 	0.1636	0.0865	0.6085	0.077
Mof_C 	C 	0.15866	0.0727	0.7035	0.09
Mof_O 	O 	0.46688	0.04076	0.5677	-0.404
Mof_C 	C 	0.1869	0.1243	0.7848	0.032
Mof_H 	H 	0.1921	0.1319	0.8289	0.038
Mof_O 	O 	0.22611	0.19701	0.8037	-0.389
Mof_C 	C 	0.1949	0.1466	0.7302	-0.096
Mof_O 	O 	0.21839	0.20239	0.6917	-0.449
Mof_C 	C 	0.46535	0.10674	0.651	0.027
Mof_H 	H 	0.4419	0.0953	0.6376	0.039
Mof_C 	C 	0.1403	0.03552	0.6931	-0.067
Mof_C 	C 	0.10543	0.03578	0.6499	0.001
Mof_C 	C 	0.46409	0.1406	0.6903	-0.103
Mof_C 	C 	0.37681	0.1851	0.7796	0.038
Mof_H 	H 	0.3692	0.1892	0.824	0.036
Mof_O 	O 	0.29593	0.22763	0.6832	-0.378
Mof_C 	C 	0.4133	0.1682	0.7608	-0.154
Mof_H 	H 	0.4304	0.1631	0.796	0.08
Mof_C 	C 	0.35417	0.19489	0.7256	-0.071
Mof_C 	C 	0.1688	0.0864	0.766	-0.118
Mof_H 	H 	0.1637	0.0695	0.8015	0.073
Mof_C 	C 	0.2148	0.1857	0.7386	0.392
Mof_C 	C 	0.31384	0.21566	0.7419	0.291
Mof_H 	H 	0.478	0.193	0.766	0.179
Mof_H 	H 	0.194	0.027	0.774	0.094
Mof_H 	H 	0.0899	0.0578	0.647	0.048
Mof_Cu	Cu	0.75342	0.25458	0.68538	0.904
Mof_O 	O 	0.80215	0.28048	0.6993	-0.397
Mof_O 	O 	0.54158	0.46701	0.934	-0.375
Mof_C 	C 	0.8654	0.3124	0.8431	0.036
Mof_H 	H 	0.85	0.3055	0.8799	0.041
Mof_C 	C 	0.6844	0.3646	0.8458	0.027
Mof_H 	H 	0.6883	0.3484	0.8827	0.044
Mof_C 	C 	0.92572	0.34107	0.7977	0.125
Mof_C 	C 	0.9022	0.3312	0.8489	-0.14
Mof_H 	H 	0.9108	0.3373	0.8921	0.092
Mof_C 	C 	0.6682	0.4035	0.8487	-0.118
Mof_H 	H 	0.6636	0.4135	0.8915	0.085
Mof_C 	C 	0.65866	0.4273	0.7965	0.093
Mof_O 	O 	0.96688	0.45924	0.9323	-0.379
Mof_C 	C 	0.6869	0.3757	0.7152	0.032
Mof_H 	H 	0.6921	0.3681	0.6711	0.034
Mof_O 	O 	0.72611	0.30299	0.6963	-0.392
Mof_C 	C 	0.6949	0.3534	0.7698	-0.095
Mof_O 	O 	0.71839	0.29761	0.8083	-0.446
Mof_C 	C 	0.96535	0.39326	0.849	0.033
Mof_H 	H 	0.9419	0.4047	0.8624	0.041
Mof_C 	C 	0.6403	0.46448	0.8069	-0.068
Mof_C 	C 	0.60543	0.46422	0.8501	0.002
Mof_C 	C 	0.96409	0.3594	0.8097	-0.096
Mof_C 	C 	0.87681	0.3149	0.7204	0.038
Mof_H 	H 	0.8692	0.3108	0.676	0.032
Mof_O 	O 	0.79593	0.27237	0.8168	-0.374
Mof_C 	C 	0.9133	0.3318	0.7392	-0.153
Mof_H 	H 	0.9304	0.3369	0.704	0.077
Mof_C 	C 	0.85417	0.30511	0.7744	-0.07
Mof_C 	C 	0.6688	0.4136	0.734	-0.119
Mof_H 	H 	0.6637	0.4305	0.6985	0.071
Mof_C 	C 	0.7148	0.3143	0.7614	0.391
Mof_C 	C 	0.81384	0.28434	0.7581	0.291
Mof_H 	H 	0.978	0.307	0.734	0.184
Mof_H 	H 	0.694	0.473	0.726	0.092
Mof_H 	H 	0.5899	0.4422	0.853	0.051
Mof_Cu	Cu	0.25342	0.75458	0.18538	0.902
Mof_O 	O 	0.30215	0.78048	0.1993	-0.401
Mof_O 	O 	0.04158	0.96701	0.434	-0.388
Mof_C 	C 	0.3654	0.8124	0.3431	0.035
Mof_H 	H 	0.35	0.8055	0.3799	0.034
Mof_C 	C 	0.1844	0.8646	0.3458	0.024
Mof_H 	H 	0.1883	0.8484	0.3827	0.038
Mof_C 	C 	0.42572	0.84107	0.2977	0.125
Mof_C 	C 	0.4022	0.8312	0.3489	-0.144
Mof_H 	H 	0.4108	0.8373	0.3921	0.086
Mof_C 	C 	0.1682	0.9035	0.3487	-0.118
Mof_H 	H 	0.1636	0.9135	0.3915	0.078
Mof_C 	C 	0.15866	0.9273	0.2965	0.089
Mof_O 	O 	0.46688	0.95924	0.4323	-0.399
Mof_C 	C 	0.1869	0.8757	0.2152	0.031
Mof_H 	H 	0.1921	0.8681	0.1711	0.029
Mof_O 	O 	0.22611	0.80299	0.1963	-0.397
Mof_C 	C 	0.1949	0.8534	0.2698	-0.099
Mof_O 	O 	0.21839	0.79761	0.3083	-0.45
Mof_C 	C 	0.46535	0.89326	0.349	0.026
Mof_H 	H 	0.4419	0.9047	0.3624	0.039
Mof_C 	C 	0.1403	0.96448	0.3069	-0.063
Mof_C 	C 	0.10543	0.96422	0.3501	0.01
Mof_C 	C 	0.46409	0.8594	0.3097	-0.104
Mof_C 	C 	0.37681	0.8149	0.2204	0.038
Mof_H 	H 	0.3692	0.8108	0.176	0.027
Mof_O 	O 	0.29593	0.77237	0.3168	-0.378
Mof_C 	C 	0.4133	0.8318	0.2392	-0.156
Mof_H 	H 	0.4304	0.8369	0.204	0.074
Mof_C 	C 	0.35417	0.80511	0.2744	-0.075
Mof_C 	C 	0.1688	0.9136	0.234	-0.12
Mof_H 	H 	0.1637	0.9305	0.1985	0.068
Mof_C 	C 	0.2148	0.8143	0.2614	0.392
Mof_C 	C 	0.31384	0.78434	0.2581	0.292
Mof_H 	H 	0.478	0.807	0.234	0.173
Mof_H 	H 	0.194	0.973	0.226	0.095
Mof_H 	H 	0.0899	0.9422	0.353	0.044
Mof_Cu	Cu	0.24658	0.74542	0.68538	0.904
Mof_O 	O 	0.19785	0.71952	0.6993	-0.397
Mof_O 	O 	0.45842	0.53299	0.934	-0.375
Mof_C 	C 	0.1346	0.6876	0.8431	0.036
Mof_H 	H 	0.15	0.6945	0.8799	0.041
Mof_C 	C 	0.3156	0.6354	0.8458	0.027
Mof_H 	H 	0.3117	0.6516	0.8827	0.044
Mof_C 	C 	0.07428	0.65893	0.7977	0.125
Mof_C 	C 	0.0978	0.6688	0.8489	-0.141
Mof_H 	H 	0.0892	0.6627	0.8921	0.091
Mof_C 	C 	0.3318	0.5965	0.8487	-0.118
Mof_H 	H 	0.3364	0.5865	0.8915	0.085
Mof_C 	C 	0.34134	0.5727	0.7965	0.093
Mof_O 	O 	0.03312	0.54076	0.9323	-0.384
Mof_C 	C 	0.3131	0.6243	0.7152	0.032
Mof_H 	H 	0.3079	0.6319	0.6711	0.033
Mof_O 	O 	0.27389	0.69701	0.6963	-0.392
Mof_C 	C 	0.3051	0.6466	0.7698	-0.096
Mof_O 	O 	0.28161	0.70239	0.8083	-0.446
Mof_C 	C 	0.03465	0.60674	0.849	0.026
Mof_H 	H 	0.0581	0.5953	0.8624	0.042
Mof_C 	C 	0.3597	0.53552	0.8069	-0.068
Mof_C 	C 	0.39457	0.53578	0.8501	0.002
Mof_C 	C 	0.03591	0.6406	0.8097	-0.101
Mof_C 	C 	0.12319	0.6851	0.7204	0.037
Mof_H 	H 	0.1308	0.6892	0.676	0.031
Mof_O 	O 	0.20407	0.72763	0.8168	-0.374
Mof_C 	C 	0.0867	0.6682	0.7392	-0.154
Mof_H 	H 	0.0696	0.6631	0.704	0.076
Mof_C 	C 	0.14583	0.69489	0.7744	-0.071
Mof_C 	C 	0.3312	0.5864	0.734	-0.119
Mof_H 	H 	0.3363	0.5695	0.6985	0.071
Mof_C 	C 	0.2852	0.6857	0.7614	0.391
Mof_C 	C 	0.18616	0.71566	0.7581	0.291
Mof_H 	H 	0.022	0.693	0.734	0.178
Mof_H 	H 	0.306	0.527	0.726	0.092
Mof_H 	H 	0.4101	0.5578	0.853	0.051
Mof_Cu	Cu	0.74658	0.24542	0.18538	0.902
Mof_O 	O 	0.69785	0.21952	0.1993	-0.402
Mof_O 	O 	0.95842	0.03299	0.434	-0.39
Mof_C 	C 	0.6346	0.1876	0.3431	0.035
Mof_H 	H 	0.65	0.1945	0.3799	0.034
Mof_C 	C 	0.8156	0.1354	0.3458	0.024
Mof_H 	H 	0.8117	0.1516	0.3827	0.038
Mof_C 	C 	0.57428	0.15893	0.2977	0.125
Mof_C 	C 	0.5978	0.1688	0.3489	-0.144
Mof_H 	H 	0.5892	0.1627	0.3921	0.085
Mof_C 	C 	0.8318	0.0965	0.3487	-0.118
Mof_H 	H 	0.8364	0.0865	0.3915	0.078
Mof_C 	C 	0.84134	0.0727	0.2965	0.089
Mof_O 	O 	0.53312	0.04076	0.4323	-0.405
Mof_C 	C 	0.8131	0.1243	0.2152	0.03
Mof_H 	H 	0.8079	0.1319	0.1711	0.028
Mof_O 	O 	0.77389	0.19701	0.1963	-0.397
Mof_C 	C 	0.8051	0.1466	0.2698	-0.099
Mof_O 	O 	0.78161	0.20239	0.3083	-0.45
Mof_C 	C 	0.53465	0.10674	0.349	0.027
Mof_H 	H 	0.5581	0.0953	0.3624	0.037
Mof_C 	C 	0.8597	0.03552	0.3069	-0.069
Mof_C 	C 	0.89457	0.03578	0.3501	0
Mof_C 	C 	0.53591	0.1406	0.3097	-0.105
Mof_C 	C 	0.62319	0.1851	0.2204	0.038
Mof_H 	H 	0.6308	0.1892	0.176	0.026
Mof_O 	O 	0.70407	0.22763	0.3168	-0.379
Mof_C 	C 	0.5867	0.1682	0.2392	-0.157
Mof_H 	H 	0.5696	0.1631	0.204	0.073
Mof_C 	C 	0.64583	0.19489	0.2744	-0.075
Mof_C 	C 	0.8312	0.0864	0.234	-0.12
Mof_H 	H 	0.8363	0.0695	0.1985	0.066
Mof_C 	C 	0.7852	0.1857	0.2614	0.392
Mof_C 	C 	0.68616	0.21566	0.2581	0.291
Mof_H 	H 	0.522	0.193	0.234	0.173
Mof_H 	H 	0.806	0.027	0.226	0.088
Mof_H 	H 	0.9101	0.0578	0.353	0.047
Mof_Cu	Cu	0.75342	0.74542	0.68538	0.904
Mof_O 	O 	0.80215	0.71952	0.6993	-0.397
Mof_O 	O 	0.54158	0.53299	0.934	-0.375
Mof_C 	C 	0.8654	0.6876	0.8431	0.036
Mof_H 	H 	0.85	0.6945	0.8799	0.041
Mof_C 	C 	0.6844	0.6354	0.8458	0.027
Mof_H 	H 	0.6883	0.6516	0.8827	0.044
Mof_C 	C 	0.92572	0.65893	0.7977	0.125
Mof_C 	C 	0.9022	0.6688	0.8489	-0.14
Mof_H 	H 	0.9108	0.6627	0.8921	0.092
Mof_C 	C 	0.6682	0.5965	0.8487	-0.118
Mof_H 	H 	0.6636	0.5865	0.8915	0.085
Mof_C 	C 	0.65866	0.5727	0.7965	0.093
Mof_O 	O 	0.96688	0.54076	0.9323	-0.379
Mof_C 	C 	0.6869	0.6243	0.7152	0.032
Mof_H 	H 	0.6921	0.6319	0.6711	0.034
Mof_O 	O 	0.72611	0.69701	0.6963	-0.392
Mof_C 	C 	0.6949	0.6466	0.7698	-0.095
Mof_O 	O 	0.71839	0.70239	0.8083	-0.446
Mof_C 	C 	0.96535	0.60674	0.849	0.033
Mof_H 	H 	0.9419	0.5953	0.8624	0.041
Mof_C 	C 	0.6403	0.53552	0.8069	-0.068
Mof_C 	C 	0.60543	0.53578	0.8501	0.002
Mof_C 	C 	0.96409	0.6406	0.8097	-0.096
Mof_C 	C 	0.87681	0.6851	0.7204	0.038
Mof_H 	H 	0.8692	0.6892	0.676	0.032
Mof_O 	O 	0.79593	0.72763	0.8168	-0.374
Mof_C 	C 	0.9133	0.6682	0.7392	-0.153
Mof_H 	H 	0.9304	0.6631	0.704	0.077
Mof_C 	C 	0.85417	0.69489	0.7744	-0.07
Mof_C 	C 	0.6688	0.5864	0.734	-0.119
Mof_H 	H 	0.6637	0.5695	0.6985	0.071
Mof_C 	C 	0.7148	0.6857	0.7614	0.391
Mof_C 	C 	0.81384	0.71566	0.7581	0.291
Mof_H 	H 	0.978	0.693	0.734	0.184
Mof_H 	H 	0.694	0.527	0.726	0.092
Mof_H 	H 	0.5899	0.5578	0.853	0.051
Mof_Cu	Cu	0.25342	0.24542	0.18538	0.902
Mof_O 	O 	0.30215	0.21952	0.1993	-0.402
Mof_O 	O 	0.04158	0.03299	0.434	-0.395
Mof_C 	C 	0.3654	0.1876	0.3431	0.035
Mof_H 	H 	0.35	0.1945	0.3799	0.034
Mof_C 	C 	0.1844	0.1354	0.3458	0.024
Mof_H 	H 	0.1883	0.1516	0.3827	0.038
Mof_C 	C 	0.42572	0.15893	0.2977	0.125
Mof_C 	C 	0.4022	0.1688	0.3489	-0.144
Mof_H 	H 	0.4108	0.1627	0.3921	0.085
Mof_C 	C 	0.1682	0.0965	0.3487	-0.119
Mof_H 	H 	0.1636	0.0865	0.3915	0.077
Mof_C 	C 	0.15866	0.0727	0.2965	0.089
Mof_O 	O 	0.46688	0.04076	0.4323	-0.405
Mof_C 	C 	0.1869	0.1243	0.2152	0.03
Mof_H 	H 	0.1921	0.1319	0.1711	0.028
Mof_O 	O 	0.22611	0.19701	0.1963	-0.397
Mof_C 	C 	0.1949	0.1466	0.2698	-0.099
Mof_O 	O 	0.21839	0.20239	0.3083	-0.45
Mof_C 	C 	0.46535	0.10674	0.349	0.027
Mof_H 	H 	0.4419	0.0953	0.3624	0.037
Mof_C 	C 	0.1403	0.03552	0.3069	-0.07
Mof_C 	C 	0.10543	0.03578	0.3501	0.002
Mof_C 	C 	0.46409	0.1406	0.3097	-0.105
Mof_C 	C 	0.37681	0.1851	0.2204	0.038
Mof_H 	H 	0.3692	0.1892	0.176	0.026
Mof_O 	O 	0.29593	0.22763	0.3168	-0.379
Mof_C 	C 	0.4133	0.1682	0.2392	-0.157
Mof_H 	H 	0.4304	0.1631	0.204	0.073
Mof_C 	C 	0.35417	0.19489	0.2744	-0.075
Mof_C 	C 	0.1688	0.0864	0.234	-0.121
Mof_H 	H 	0.1637	0.0695	0.1985	0.066
Mof_C 	C 	0.2148	0.1857	0.2614	0.392
Mof_C 	C 	0.31384	0.21566	0.2581	0.292
Mof_H 	H 	0.478	0.193	0.234	0.173
Mof_H 	H 	0.194	0.027	0.226	0.088
Mof_H 	H 	0.0899	0.0578	0.353	0.046
Mof_Cu	Cu	0.24658	0.25458	0.68538	0.904
Mof_O 	O 	0.19785	0.28048	0.6993	-0.397
Mof_O 	O 	0.45842	0.46701	0.934	-0.375
Mof_C 	C 	0.1346	0.3124	0.8431	0.036
Mof_H 	H 	0.15	0.3055	0.8799	0.04
Mof_C 	C 	0.3156	0.3646	0.8458	0.027
Mof_H 	H 	0.3117	0.3484	0.8827	0.044
Mof_C 	C 	0.07428	0.34107	0.7977	0.125
Mof_C 	C 	0.0978	0.3312	0.8489	-0.141
Mof_H 	H 	0.0892	0.3373	0.8921	0.091
Mof_C 	C 	0.3318	0.4035	0.8487	-0.118
Mof_H 	H 	0.3364	0.4135	0.8915	0.085
Mof_C 	C 	0.34134	0.4273	0.7965	0.093
Mof_O 	O 	0.03312	0.45924	0.9323	-0.384
Mof_C 	C 	0.3131	0.3757	0.7152	0.032
Mof_H 	H 	0.3079	0.3681	0.6711	0.033
Mof_O 	O 	0.27389	0.30299	0.6963	-0.392
Mof_C 	C 	0.3051	0.3534	0.7698	-0.096
Mof_O 	O 	0.28161	0.29761	0.8083	-0.446
Mof_C 	C 	0.03465	0.39326	0.849	0.026
Mof_H 	H 	0.0581	0.4047	0.8624	0.042
Mof_C 	C 	0.3597	0.46448	0.8069	-0.068
Mof_C 	C 	0.39457	0.46422	0.8501	0.002
Mof_C 	C 	0.03591	0.3594	0.8097	-0.101
Mof_C 	C 	0.12319	0.3149	0.7204	0.037
Mof_H 	H 	0.1308	0.3108	0.676	0.031
Mof_O 	O 	0.20407	0.27237	0.8168	-0.374
Mof_C 	C 	0.0867	0.3318	0.7392	-0.154
Mof_H 	H 	0.0696	0.3369	0.704	0.076
Mof_C 	C 	0.14583	0.30511	0.7744	-0.071
Mof_C 	C 	0.3312	0.4136	0.734	-0.119
Mof_H 	H 	0.3363	0.4305	0.6985	0.071
Mof_C 	C 	0.2852	0.3143	0.7614	0.391
Mof_C 	C 	0.18616	0.28434	0.7581	0.291
Mof_H 	H 	0.022	0.307	0.734	0.178
Mof_H 	H 	0.306	0.473	0.726	0.092
Mof_H 	H 	0.4101	0.4422	0.853	0.051
Mof_Cu	Cu	0.74658	0.75458	0.18538	0.903
Mof_O 	O 	0.69785	0.78048	0.1993	-0.401
Mof_O 	O 	0.95842	0.96701	0.434	-0.383
Mof_C 	C 	0.6346	0.8124	0.3431	0.035
Mof_H 	H 	0.65	0.8055	0.3799	0.034
Mof_C 	C 	0.8156	0.8646	0.3458	0.024
Mof_H 	H 	0.8117	0.8484	0.3827	0.038
Mof_C 	C 	0.57428	0.84107	0.2977	0.125
Mof_C 	C 	0.5978	0.8312	0.3489	-0.144
Mof_H 	H 	0.5892	0.8373	0.3921	0.086
Mof_C 	C 	0.8318	0.9035	0.3487	-0.117
Mof_H 	H 	0.8364	0.9135	0.3915	0.079
Mof_C 	C 	0.84134	0.9273	0.2965	0.088
Mof_O 	O 	0.53312	0.95924	0.4323	-0.399
Mof_C 	C 	0.8131	0.8757	0.2152	0.031
Mof_H 	H 	0.8079	0.8681	0.1711	0.029
Mof_O 	O 	0.77389	0.80299	0.1963	-0.397
Mof_C 	C 	0.8051	0.8534	0.2698	-0.098
Mof_O 	O 	0.78161	0.79761	0.3083	-0.45
Mof_C 	C 	0.53465	0.89326	0.349	0.026
Mof_H 	H 	0.5581	0.9047	0.3624	0.039
Mof_C 	C 	0.8597	0.96448	0.3069	-0.062
Mof_C 	C 	0.89457	0.96422	0.3501	0.009
Mof_C 	C 	0.53591	0.8594	0.3097	-0.104
Mof_C 	C 	0.62319	0.8149	0.2204	0.038
Mof_H 	H 	0.6308	0.8108	0.176	0.027
Mof_O 	O 	0.70407	0.77237	0.3168	-0.378
Mof_C 	C 	0.5867	0.8318	0.2392	-0.156
Mof_H 	H 	0.5696	0.8369	0.204	0.074
Mof_C 	C 	0.64583	0.80511	0.2744	-0.075
Mof_C 	C 	0.8312	0.9136	0.234	-0.119
Mof_H 	H 	0.8363	0.9305	0.1985	0.068
Mof_C 	C 	0.7852	0.8143	0.2614	0.392
Mof_C 	C 	0.68616	0.78434	0.2581	0.292
Mof_H 	H 	0.522	0.807	0.234	0.173
Mof_H 	H 	0.806	0.973	0.226	0.095
Mof_H 	H 	0.9101	0.9422	0.353	0.046
Mof_Cu	Cu	0.24658	0.74542	0.31462	0.904
Mof_O 	O 	0.19785	0.71952	0.3007	-0.398
Mof_O 	O 	0.45842	0.53299	0.066	-0.403
Mof_C 	C 	0.1346	0.6876	0.1569	0.033
Mof_H 	H 	0.15	0.6945	0.1201	0.029
Mof_C 	C 	0.3156	0.6354	0.1542	0.023
Mof_H 	H 	0.3117	0.6516	0.1173	0.032
Mof_C 	C 	0.07428	0.65893	0.2023	0.124
Mof_C 	C 	0.0978	0.6688	0.1511	-0.144
Mof_H 	H 	0.0892	0.6627	0.1079	0.079
Mof_C 	C 	0.3318	0.5965	0.1513	-0.12
Mof_H 	H 	0.3364	0.5865	0.1085	0.072
Mof_C 	C 	0.34134	0.5727	0.2035	0.089
Mof_O 	O 	0.03312	0.54076	0.0677	-0.411
Mof_C 	C 	0.3131	0.6243	0.2848	0.032
Mof_H 	H 	0.3079	0.6319	0.3289	0.033
Mof_O 	O 	0.27389	0.69701	0.3037	-0.394
Mof_C 	C 	0.3051	0.6466	0.2302	-0.1
Mof_O 	O 	0.28161	0.70239	0.1917	-0.454
Mof_C 	C 	0.03465	0.60674	0.151	0.029
Mof_H 	H 	0.0581	0.5953	0.1376	0.034
Mof_C 	C 	0.3597	0.53552	0.1931	-0.07
Mof_C 	C 	0.39457	0.53578	0.1499	-0.001
Mof_C 	C 	0.03591	0.6406	0.1903	-0.106
Mof_C 	C 	0.12319	0.6851	0.2796	0.037
Mof_H 	H 	0.1308	0.6892	0.324	0.03
Mof_O 	O 	0.20407	0.72763	0.1832	-0.382
Mof_C 	C 	0.0867	0.6682	0.2608	-0.156
Mof_H 	H 	0.0696	0.6631	0.296	0.076
Mof_C 	C 	0.14583	0.69489	0.2256	-0.075
Mof_C 	C 	0.3312	0.5864	0.266	-0.12
Mof_H 	H 	0.3363	0.5695	0.3015	0.071
Mof_C 	C 	0.2852	0.6857	0.2386	0.393
Mof_C 	C 	0.18616	0.71566	0.2419	0.291
Mof_H 	H 	0.022	0.693	0.266	0.176
Mof_H 	H 	0.306	0.527	0.274	0.091
Mof_H 	H 	0.4101	0.5578	0.147	0.046
Mof_Cu	Cu	0.74658	0.24542	0.81462	0.906
Mof_O 	O 	0.69785	0.21952	0.8007	-0.393
Mof_O 	O 	0.95842	0.03299	0.566	-0.389
Mof_C 	C 	0.6346	0.1876	0.6569	0.035
Mof_H 	H 	0.65	0.1945	0.6201	0.035
Mof_C 	C 	0.8156	0.1354	0.6542	0.024
Mof_H 	H 	0.8117	0.1516	0.6173	0.038
Mof_C 	C 	0.57428	0.15893	0.7023	0.126
Mof_C 	C 	0.5978	0.1688	0.6511	-0.143
Mof_H 	H 	0.5892	0.1627	0.6079	0.085
Mof_C 	C 	0.8318	0.0965	0.6513	-0.117
Mof_H 	H 	0.8364	0.0865	0.6085	0.077
Mof_C 	C 	0.84134	0.0727	0.7035	0.09
Mof_O 	O 	0.53312	0.04076	0.5677	-0.404
Mof_C 	C 	0.8131	0.1243	0.7848	0.032
Mof_H 	H 	0.8079	0.1319	0.8289	0.038
Mof_O 	O 	0.77389	0.19701	0.8037	-0.389
Mof_C 	C 	0.8051	0.1466	0.7302	-0.095
Mof_O 	O 	0.78161	0.20239	0.6917	-0.449
Mof_C 	C 	0.53465	0.10674	0.651	0.027
Mof_H 	H 	0.5581	0.0953	0.6376	0.039
Mof_C 	C 	0.8597	0.03552	0.6931	-0.066
Mof_C 	C 	0.89457	0.03578	0.6499	-0
Mof_C 	C 	0.53591	0.1406	0.6903	-0.103
Mof_C 	C 	0.62319	0.1851	0.7796	0.038
Mof_H 	H 	0.6308	0.1892	0.824	0.036
Mof_O 	O 	0.70407	0.22763	0.6832	-0.378
Mof_C 	C 	0.5867	0.1682	0.7608	-0.154
Mof_H 	H 	0.5696	0.1631	0.796	0.08
Mof_C 	C 	0.64583	0.19489	0.7256	-0.071
Mof_C 	C 	0.8312	0.0864	0.766	-0.117
Mof_H 	H 	0.8363	0.0695	0.8015	0.073
Mof_C 	C 	0.7852	0.1857	0.7386	0.392
Mof_C 	C 	0.68616	0.21566	0.7419	0.291
Mof_H 	H 	0.522	0.193	0.766	0.179
Mof_H 	H 	0.806	0.027	0.774	0.094
Mof_H 	H 	0.9101	0.0578	0.647	0.05
Mof_Cu	Cu	0.75342	0.25458	0.31462	0.904
Mof_O 	O 	0.80215	0.28048	0.3007	-0.398
Mof_O 	O 	0.54158	0.46701	0.066	-0.403
Mof_C 	C 	0.8654	0.3124	0.1569	0.033
Mof_H 	H 	0.85	0.3055	0.1201	0.029
Mof_C 	C 	0.6844	0.3646	0.1542	0.023
Mof_H 	H 	0.6883	0.3484	0.1173	0.032
Mof_C 	C 	0.92572	0.34107	0.2023	0.124
Mof_C 	C 	0.9022	0.3312	0.1511	-0.143
Mof_H 	H 	0.9108	0.3373	0.1079	0.079
Mof_C 	C 	0.6682	0.4035	0.1513	-0.119
Mof_H 	H 	0.6636	0.4135	0.1085	0.072
Mof_C 	C 	0.65866	0.4273	0.2035	0.089
Mof_O 	O 	0.96688	0.45924	0.0677	-0.405
Mof_C 	C 	0.6869	0.3757	0.2848	0.032
Mof_H 	H 	0.6921	0.3681	0.3289	0.033
Mof_O 	O 	0.72611	0.30299	0.3037	-0.393
Mof_C 	C 	0.6949	0.3534	0.2302	-0.1
Mof_O 	O 	0.71839	0.29761	0.1917	-0.454
Mof_C 	C 	0.96535	0.39326	0.151	0.036
Mof_H 	H 	0.9419	0.4047	0.1376	0.033
Mof_C 	C 	0.6403	0.46448	0.1931	-0.07
Mof_C 	C 	0.60543	0.46422	0.1499	-0.001
Mof_C 	C 	0.96409	0.3594	0.1903	-0.102
Mof_C 	C 	0.87681	0.3149	0.2796	0.038
Mof_H 	H 	0.8692	0.3108	0.324	0.031
Mof_O 	O 	0.79593	0.27237	0.1832	-0.382
Mof_C 	C 	0.9133	0.3318	0.2608	-0.155
Mof_H 	H 	0.9304	0.3369	0.296	0.077
Mof_C 	C 	0.85417	0.30511	0.2256	-0.074
Mof_C 	C 	0.6688	0.4136	0.266	-0.12
Mof_H 	H 	0.6637	0.4305	0.3015	0.071
Mof_C 	C 	0.7148	0.3143	0.2386	0.393
Mof_C 	C 	0.81384	0.28434	0.2419	0.291
Mof_H 	H 	0.978	0.307	0.266	0.182
Mof_H 	H 	0.694	0.473	0.274	0.091
Mof_H 	H 	0.5899	0.4422	0.147	0.046
Mof_Cu	Cu	0.25342	0.75458	0.81462	0.906
Mof_O 	O 	0.30215	0.78048	0.8007	-0.393
Mof_O 	O 	0.04158	0.96701	0.566	-0.387
Mof_C 	C 	0.3654	0.8124	0.6569	0.035
Mof_H 	H 	0.35	0.8055	0.6201	0.035
Mof_C 	C 	0.1844	0.8646	0.6542	0.024
Mof_H 	H 	0.1883	0.8484	0.6173	0.038
Mof_C 	C 	0.42572	0.84107	0.7023	0.126
Mof_C 	C 	0.4022	0.8312	0.6511	-0.142
Mof_H 	H 	0.4108	0.8373	0.6079	0.085
Mof_C 	C 	0.1682	0.9035	0.6513	-0.116
Mof_H 	H 	0.1636	0.9135	0.6085	0.078
Mof_C 	C 	0.15866	0.9273	0.7035	0.089
Mof_O 	O 	0.46688	0.95924	0.5677	-0.398
Mof_C 	C 	0.1869	0.8757	0.7848	0.032
Mof_H 	H 	0.1921	0.8681	0.8289	0.039
Mof_O 	O 	0.22611	0.80299	0.8037	-0.388
Mof_C 	C 	0.1949	0.8534	0.7302	-0.095
Mof_O 	O 	0.21839	0.79761	0.6917	-0.449
Mof_C 	C 	0.46535	0.89326	0.651	0.026
Mof_H 	H 	0.4419	0.9047	0.6376	0.04
Mof_C 	C 	0.1403	0.96448	0.6931	-0.06
Mof_C 	C 	0.10543	0.96422	0.6499	0.009
Mof_C 	C 	0.46409	0.8594	0.6903	-0.102
Mof_C 	C 	0.37681	0.8149	0.7796	0.039
Mof_H 	H 	0.3692	0.8108	0.824	0.036
Mof_O 	O 	0.29593	0.77237	0.6832	-0.378
Mof_C 	C 	0.4133	0.8318	0.7608	-0.154
Mof_H 	H 	0.4304	0.8369	0.796	0.08
Mof_C 	C 	0.35417	0.80511	0.7256	-0.071
Mof_C 	C 	0.1688	0.9136	0.766	-0.117
Mof_H 	H 	0.1637	0.9305	0.8015	0.074
Mof_C 	C 	0.2148	0.8143	0.7386	0.392
Mof_C 	C 	0.31384	0.78434	0.7419	0.291
Mof_H 	H 	0.478	0.807	0.766	0.179
Mof_H 	H 	0.194	0.973	0.774	0.1
Mof_H 	H 	0.0899	0.9422	0.647	0.047
Mof_Cu	Cu	0.03829	0.5	-0	0.889
Mof_Cu	Cu	0.53829	0	0.5	0.902
Mof_Cu	Cu	0.96171	0.5	-0	0.89
Mof_Cu	Cu	0.46171	0	0.5	0.902
Mof_Cu	Cu	0.5	0.46178	-0	0.889
Mof_Cu	Cu	-7.61948e-33	0.96178	0.5	0.903
Mof_Cu	Cu	0.5	0.53822	-0	0.889
Mof_Cu	Cu	-1.08607e-33	0.03822	0.5	0.901
Mof_N 	N 	-1.63499e-33	0.3087	0.2486	-0.359
Mof_C 	C 	-4.06848e-33	0.4103	0.1315	-0.11
Mof_C 	C 	4.82156e-33	0.3423	0.2134	0.124
Mof_C 	C 	-3.62032e-33	0.4468	0.0874	0.337
Mof_N 	N 	0.5	0.8087	0.7486	-0.353
Mof_C 	C 	0.5	0.9103	0.6315	-0.094
Mof_C 	C 	0.5	0.8423	0.7134	0.132
Mof_C 	C 	0.5	0.9468	0.5874	0.343
Mof_N 	N 	2.72061e-33	0.6913	0.2486	-0.359
Mof_C 	C 	2.87126e-34	0.5897	0.1315	-0.11
Mof_C 	C 	4.82156e-33	0.6577	0.2134	0.124
Mof_C 	C 	-7.97592e-33	0.5532	0.0874	0.337
Mof_N 	N 	0.5	0.1913	0.7486	-0.353
Mof_C 	C 	0.5	0.0897	0.6315	-0.097
Mof_C 	C 	0.5	0.1577	0.7134	0.132
Mof_C 	C 	0.5	0.0532	0.5874	0.343
Mof_N 	N 	-2.71495e-33	0.3087	0.7514	-0.358
Mof_C 	C 	-6.81487e-33	0.4103	0.8685	-0.097
Mof_C 	C 	-6.9937e-33	0.3423	0.7866	0.125
Mof_C 	C 	-2.36297e-33	0.4468	0.9126	0.334
Mof_N 	N 	0.5	0.8087	0.2514	-0.351
Mof_C 	C 	0.5	0.9103	0.3685	-0.096
Mof_C 	C 	0.5	0.8423	0.2866	0.129
Mof_C 	C 	0.5	0.9468	0.4126	0.342
Mof_N 	N 	-2.71495e-33	0.6913	0.7514	-0.358
Mof_C 	C 	-2.45927e-33	0.5897	0.8685	-0.097
Mof_C 	C 	6.07312e-33	0.6577	0.7866	0.125
Mof_C 	C 	-6.71858e-33	0.5532	0.9126	0.334
Mof_N 	N 	0.5	0.1913	0.2514	-0.35
Mof_C 	C 	0.5	0.0897	0.3685	-0.099
Mof_C 	C 	0.5	0.1577	0.2866	0.129
Mof_C 	C 	0.5	0.0532	0.4126	0.343
Mof_N 	N 	0.3083	0.5	0.252	-0.199
Mof_C 	C 	0.4116	0.5	0.1314	-0.089
Mof_C 	C 	0.3425	0.5	0.2097	0.086
Mof_C 	C 	0.4469	0.5	0.0906	0.329
Mof_N 	N 	0.8083	-4.3556e-33	0.752	-0.203
Mof_C 	C 	0.9116	0	0.6314	-0.09
Mof_C 	C 	0.8425	0	0.7097	0.078
Mof_C 	C 	0.9469	-4.3556e-33	0.5906	0.32
Mof_N 	N 	0.6917	0.5	0.252	-0.199
Mof_C 	C 	0.5884	0.5	0.1314	-0.089
Mof_C 	C 	0.6575	0.5	0.2097	0.086
Mof_C 	C 	0.5531	0.5	0.0906	0.329
Mof_N 	N 	0.1917	-4.3556e-33	0.752	-0.203
Mof_C 	C 	0.0884	0	0.6314	-0.092
Mof_C 	C 	0.1575	0	0.7097	0.079
Mof_C 	C 	0.0531	-4.3556e-33	0.5906	0.32
Mof_N 	N 	0.6917	0.5	0.748	-0.198
Mof_C 	C 	0.5884	0.5	0.8686	-0.079
Mof_C 	C 	0.6575	0.5	0.7903	0.09
Mof_C 	C 	0.5531	0.5	0.9094	0.324
Mof_N 	N 	0.1917	0	0.248	-0.203
Mof_C 	C 	0.0884	0	0.3686	-0.095
Mof_C 	C 	0.1575	-2.1778e-33	0.2903	0.078
Mof_C 	C 	0.0531	2.1778e-33	0.4094	0.32
Mof_N 	N 	0.3083	0.5	0.748	-0.198
Mof_C 	C 	0.4116	0.5	0.8686	-0.079
Mof_C 	C 	0.3425	0.5	0.7903	0.09
Mof_C 	C 	0.4469	0.5	0.9094	0.324
Mof_N 	N 	0.8083	0	0.248	-0.203
Mof_C 	C 	0.9116	0	0.3686	-0.093
Mof_C 	C 	0.8425	-2.1778e-33	0.2903	0.077
Mof_C 	C 	0.9469	2.1778e-33	0.4094	0.319
_end
