data_functionalizedCrystal
_audit_creation_method	'EQeq! by Chris Wilmer'
_symmetry_space_group_name_H-M	'P1'
_symmetry_Int_Tables_number	1
_symmetry_cell_setting	triclinic
loop_
_symmetry_equiv_pos_as_xyz
  x,y,z
_cell_length_a	10.0631
_cell_length_b	14.5166
_cell_length_c	14.5166
_cell_angle_alpha	65.1711
_cell_angle_beta	76.6399
_cell_angle_gamma	103.36
loop_
_atom_site_label
_atom_site_type_symbol
_atom_site_fract_x
_atom_site_fract_y
_atom_site_fract_z
_atom_site_charge
Mof_Cu	Cu	0.38255	0.8876	0.54935	0.871
Mof_Cu	Cu	0.9319	0.54935	0.56305	0.871
Mof_Cu	Cu	0.49495	0.56305	0.8876	0.87
Mof_Cu	Cu	0.61745	0.1124	0.45065	0.87
Mof_Cu	Cu	0.0681	0.45065	0.43695	0.87
Mof_Cu	Cu	0.50505	0.43695	0.1124	0.87
Mof_H 	H 	0.4738	0.725	0.6917	-0.056
Mof_H 	H 	0.0315	0.6584	0.932	0.084
Mof_H 	H 	0.1056	0.7789	0.7483	-0.035
Mof_H 	H 	0.0904	0.5346	0.0755	0.096
Mof_H 	H 	0.2444	0.513	0.0473	0.082
Mof_H 	H 	0.627	0.0194	0.291	-0.006
Mof_H 	H 	0.4518	0.9614	0.3137	0.001
Mof_H 	H 	0.5328	0.0914	0.2577	0.019
Mof_H 	H 	0.1655	0.6917	0.5833	-0.056
Mof_H 	H 	0.9635	0.932	0.4096	0.081
Mof_H 	H 	0.8539	0.7483	0.4728	-0.034
Mof_H 	H 	0.1659	0.0755	0.3899	0.096
Mof_H 	H 	0.2917	0.0473	0.4397	0.082
Mof_H 	H 	0.918	0.291	0.6896	-0.006
Mof_H 	H 	0.7655	0.3137	0.7249	0.001
Mof_H 	H 	0.7905	0.2577	0.6509	0.019
Mof_H 	H 	0.7488	0.5833	0.725	-0.056
Mof_H 	H 	0.3731	0.4096	0.6584	0.084
Mof_H 	H 	0.3267	0.4728	0.7789	-0.035
Mof_H 	H 	0.5558	0.3899	0.5346	0.096
Mof_H 	H 	0.7314	0.4397	0.513	0.082
Mof_H 	H 	0.6076	0.6896	0.0194	-0.006
Mof_H 	H 	0.4904	0.7249	0.9614	0
Mof_H 	H 	0.4414	0.6509	0.0914	0.018
Mof_H 	H 	0.5262	0.275	0.3083	-0.056
Mof_H 	H 	0.9685	0.3416	0.068	0.084
Mof_H 	H 	0.8944	0.2211	0.2517	-0.035
Mof_H 	H 	0.9096	0.4654	0.9245	0.096
Mof_H 	H 	0.7556	0.487	0.9527	0.082
Mof_H 	H 	0.373	0.9806	0.709	-0.006
Mof_H 	H 	0.5482	0.0386	0.6863	0.001
Mof_H 	H 	0.4672	0.9086	0.7423	0.019
Mof_H 	H 	0.8345	0.3083	0.4167	-0.056
Mof_H 	H 	0.0365	0.068	0.5904	0.081
Mof_H 	H 	0.1461	0.2517	0.5272	-0.034
Mof_H 	H 	0.8341	0.9245	0.6101	0.096
Mof_H 	H 	0.7083	0.9527	0.5603	0.082
Mof_H 	H 	0.082	0.709	0.3104	-0.006
Mof_H 	H 	0.2345	0.6863	0.2751	0.001
Mof_H 	H 	0.2095	0.7423	0.3491	0.019
Mof_H 	H 	0.2512	0.4167	0.275	-0.056
Mof_H 	H 	0.6269	0.5904	0.3416	0.084
Mof_H 	H 	0.6733	0.5272	0.2211	-0.035
Mof_H 	H 	0.4442	0.6101	0.4654	0.096
Mof_H 	H 	0.2686	0.5603	0.487	0.082
Mof_H 	H 	0.3924	0.3104	0.9806	-0.006
Mof_H 	H 	0.5096	0.2751	0.0386	0
Mof_H 	H 	0.5586	0.3491	0.9086	0.018
Mof_C 	C 	0.123	0.6717	0.882	-0.212
Mof_C 	C 	0.3819	0.7107	0.7419	0.102
Mof_C 	C 	0.167	0.7421	0.7742	0.099
Mof_C 	C 	0.2168	0.6179	0.92	0.178
Mof_C 	C 	0.5226	0.024	0.3109	0.012
Mof_C 	C 	0.005	0.882	0.4463	-0.205
Mof_C 	C 	0.1238	0.7419	0.5474	0.102
Mof_C 	C 	0.9412	0.7742	0.4837	0.094
Mof_C 	C 	0.1368	0.92	0.4621	0.178
Mof_C 	C 	0.8335	0.3109	0.6651	0.013
Mof_C 	C 	0.4513	0.4463	0.6717	-0.212
Mof_C 	C 	0.6712	0.5474	0.7107	0.102
Mof_C 	C 	0.4249	0.4837	0.7421	0.099
Mof_C 	C 	0.5989	0.4621	0.6179	0.179
Mof_C 	C 	0.4986	0.6651	0.024	0.015
Mof_C 	C 	0.877	0.3283	0.118	-0.212
Mof_C 	C 	0.6181	0.2893	0.2581	0.102
Mof_C 	C 	0.833	0.2579	0.2258	0.099
Mof_C 	C 	0.7832	0.3821	0.08	0.178
Mof_C 	C 	0.4774	0.976	0.6891	0.012
Mof_C 	C 	0.995	0.118	0.5537	-0.205
Mof_C 	C 	0.8762	0.2581	0.4526	0.102
Mof_C 	C 	0.0588	0.2258	0.5163	0.094
Mof_C 	C 	0.8632	0.08	0.5379	0.178
Mof_C 	C 	0.1665	0.6891	0.3349	0.013
Mof_C 	C 	0.5487	0.5537	0.3283	-0.212
Mof_C 	C 	0.3288	0.4526	0.2893	0.102
Mof_C 	C 	0.5751	0.5163	0.2579	0.099
Mof_C 	C 	0.4011	0.5379	0.3821	0.179
Mof_C 	C 	0.5014	0.3349	0.976	0.015
Mof_N 	N 	0.2997	0.7639	0.7006	-0.256
Mof_N 	N 	0.3483	0.6389	0.8459	-0.253
Mof_N 	N 	0.1808	0.5488	0.0237	-0.262
Mof_N 	N 	0.0003	0.7006	0.5355	-0.254
Mof_N 	N 	0.1942	0.8459	0.5152	-0.253
Mof_N 	N 	0.2045	0.0237	0.4275	-0.262
Mof_N 	N 	0.5358	0.5355	0.7639	-0.256
Mof_N 	N 	0.7094	0.5152	0.6389	-0.253
Mof_N 	N 	0.632	0.4275	0.5488	-0.262
Mof_N 	N 	0.7003	0.2361	0.2994	-0.256
Mof_N 	N 	0.6517	0.3611	0.1541	-0.253
Mof_N 	N 	0.8192	0.4512	0.9763	-0.262
Mof_N 	N 	0.9997	0.2994	0.4645	-0.254
Mof_N 	N 	0.8058	0.1541	0.4848	-0.253
Mof_N 	N 	0.7955	0.9763	0.5725	-0.262
Mof_N 	N 	0.4642	0.4645	0.2361	-0.256
Mof_N 	N 	0.2906	0.4848	0.3611	-0.253
Mof_N 	N 	0.368	0.5725	0.4512	-0.262
Mof_O 	O 	0.4876	0.0217	0.413	-0.465
Mof_O 	O 	0.9006	0.413	0.5653	-0.465
Mof_O 	O 	0.4659	0.5653	0.0217	-0.465
Mof_O 	O 	0.5124	0.9783	0.587	-0.465
Mof_O 	O 	0.0994	0.587	0.4347	-0.465
Mof_O 	O 	0.5341	0.4347	0.9783	-0.465
_end
