data_functionalizedCrystal
_audit_creation_method	'EQeq! by Chris Wilmer'
_symmetry_space_group_name_H-M	'P1'
_symmetry_Int_Tables_number	1
_symmetry_cell_setting	triclinic
loop_
_symmetry_equiv_pos_as_xyz
  x,y,z
_cell_length_a	11.3504
_cell_length_b	12.1923
_cell_length_c	16.1827
_cell_angle_alpha	90
_cell_angle_beta	130.491
_cell_angle_gamma	90
loop_
_atom_site_label
_atom_site_type_symbol
_atom_site_fract_x
_atom_site_fract_y
_atom_site_fract_z
_atom_site_charge
Mof_Zn	Zn	0.8207	0.02369	0.48117	1.241
Mof_S 	S 	0.97655	0.95931	0.71643	0.515
Mof_O 	O 	0.925	0.92376	0.61078	-0.413
Mof_O 	O 	0.1329	0.9259	0.8035	-0.222
Mof_O 	O 	0.9451	0.07277	0.7161	-0.27
Mof_O 	O 	0.3957	0.9801	0.5587	-0.38
Mof_O 	O 	0.3624	0.85461	0.6341	-0.349
Mof_O 	O 	0.7829	0.57828	0.87185	-0.449
Mof_O 	O 	0.02376	0.6385	0.96179	-0.462
Mof_C 	C 	0.8573	0.8848	0.73192	-0.086
Mof_C 	C 	0.7049	0.9183	0.67216	0.045
Mof_H 	H 	0.667	0.9774	0.6246	0.058
Mof_C 	C 	0.6095	0.8635	0.68357	-0.086
Mof_C 	C 	0.4459	0.9004	0.6221	0.339
Mof_C 	C 	0.6662	0.77448	0.75327	0.056
Mof_H 	H 	0.6018	0.7371	0.7605	0.057
Mof_C 	C 	0.8188	0.7408	0.81243	-0.107
Mof_C 	C 	0.9151	0.79688	0.80191	0.051
Mof_H 	H 	0.0176	0.7752	0.8418	0.063
Mof_C 	C 	0.8806	0.64504	0.88781	0.406
Mof_Zn	Zn	0.1793	0.52369	0.01883	1.237
Mof_S 	S 	0.02345	0.45931	0.78357	0.534
Mof_O 	O 	0.075	0.42376	0.88922	-0.414
Mof_O 	O 	0.8671	0.4259	0.6965	-0.234
Mof_O 	O 	0.0549	0.57277	0.7839	-0.274
Mof_O 	O 	0.6043	0.4801	0.9413	-0.384
Mof_O 	O 	0.6376	0.35461	0.8659	-0.352
Mof_O 	O 	0.2171	0.07828	0.62815	-0.452
Mof_O 	O 	0.97624	0.1385	0.53821	-0.473
Mof_C 	C 	0.1427	0.3848	0.76808	-0.101
Mof_C 	C 	0.2951	0.4183	0.82784	0.057
Mof_H 	H 	0.333	0.4774	0.8754	0.054
Mof_C 	C 	0.3905	0.3635	0.81643	-0.095
Mof_C 	C 	0.5541	0.4004	0.8779	0.343
Mof_C 	C 	0.3338	0.27448	0.74673	0.068
Mof_H 	H 	0.3982	0.2371	0.7395	0.053
Mof_C 	C 	0.1812	0.2408	0.68757	-0.122
Mof_C 	C 	0.0849	0.29688	0.69809	0.081
Mof_H 	H 	0.9824	0.2752	0.6582	0.047
Mof_C 	C 	0.1194	0.14504	0.61219	0.423
Mof_Zn	Zn	0.1793	0.97631	0.51883	1.24
Mof_S 	S 	0.02345	0.04069	0.28357	0.514
Mof_O 	O 	0.075	0.07624	0.38922	-0.414
Mof_O 	O 	0.8671	0.0741	0.1965	-0.223
Mof_O 	O 	0.0549	0.92723	0.2839	-0.271
Mof_O 	O 	0.6043	0.0199	0.4413	-0.381
Mof_O 	O 	0.6376	0.14539	0.3659	-0.349
Mof_O 	O 	0.2171	0.42172	0.12815	-0.449
Mof_O 	O 	0.97624	0.3615	0.03821	-0.462
Mof_C 	C 	0.1427	0.1152	0.26808	-0.086
Mof_C 	C 	0.2951	0.0817	0.32784	0.045
Mof_H 	H 	0.333	0.0226	0.3754	0.058
Mof_C 	C 	0.3905	0.1365	0.31643	-0.086
Mof_C 	C 	0.5541	0.0996	0.3779	0.339
Mof_C 	C 	0.3338	0.22552	0.24673	0.056
Mof_H 	H 	0.3982	0.2629	0.2395	0.057
Mof_C 	C 	0.1812	0.2592	0.18757	-0.107
Mof_C 	C 	0.0849	0.20312	0.19809	0.051
Mof_H 	H 	0.9824	0.2248	0.1582	0.063
Mof_C 	C 	0.1194	0.35496	0.11219	0.406
Mof_Zn	Zn	0.8207	0.47631	0.98117	1.237
Mof_S 	S 	0.97655	0.54069	0.21643	0.534
Mof_O 	O 	0.925	0.57624	0.11078	-0.414
Mof_O 	O 	0.1329	0.5741	0.3035	-0.234
Mof_O 	O 	0.9451	0.42723	0.2161	-0.274
Mof_O 	O 	0.3957	0.5199	0.0587	-0.384
Mof_O 	O 	0.3624	0.64539	0.1341	-0.352
Mof_O 	O 	0.7829	0.92172	0.37185	-0.452
Mof_O 	O 	0.02376	0.8615	0.46179	-0.473
Mof_C 	C 	0.8573	0.6152	0.23192	-0.101
Mof_C 	C 	0.7049	0.5817	0.17216	0.057
Mof_H 	H 	0.667	0.5226	0.1246	0.054
Mof_C 	C 	0.6095	0.6365	0.18357	-0.095
Mof_C 	C 	0.4459	0.5996	0.1221	0.343
Mof_C 	C 	0.6662	0.72552	0.25327	0.068
Mof_H 	H 	0.6018	0.7629	0.2605	0.053
Mof_C 	C 	0.8188	0.7592	0.31243	-0.122
Mof_C 	C 	0.9151	0.70312	0.30191	0.081
Mof_H 	H 	0.0176	0.7248	0.3418	0.047
Mof_C 	C 	0.8806	0.85496	0.38781	0.423
_end
