data_functionalizedCrystal
_audit_creation_method	'EQeq! by Chris Wilmer'
_symmetry_space_group_name_H-M	'P1'
_symmetry_Int_Tables_number	1
_symmetry_cell_setting	triclinic
loop_
_symmetry_equiv_pos_as_xyz
  x,y,z
_cell_length_a	39.2006
_cell_length_b	39.2006
_cell_length_c	39.2006
_cell_angle_alpha	90
_cell_angle_beta	90
_cell_angle_gamma	90
loop_
_atom_site_label
_atom_site_type_symbol
_atom_site_fract_x
_atom_site_fract_y
_atom_site_fract_z
_atom_site_charge
Mof_S 	S 	0.6299	0.60091	0.70936	0.038
Mof_O 	O 	0.65596	0.54092	0.74589	-0.358
Mof_O 	O 	0.7052	0.53515	0.7183	-0.391
Mof_C 	C 	0.67652	0.54892	0.72254	0.342
Mof_C 	C 	0.66652	0.57756	0.69992	-0.088
Mof_C 	C 	0.68545	0.58877	0.67043	-0.039
Mof_H 	H 	0.7059	0.5791	0.6618	0.056
Mof_C 	C 	0.6667	0.61814	0.65646	0.024
Mof_C 	C 	0.6377	0.62744	0.67547	-0.028
Mof_S 	S 	0.6299	0.10091	0.20936	0.036
Mof_O 	O 	0.65596	0.04092	0.24589	-0.359
Mof_O 	O 	0.7052	0.03515	0.2183	-0.39
Mof_C 	C 	0.67652	0.04892	0.22254	0.341
Mof_C 	C 	0.66652	0.07756	0.19992	-0.088
Mof_C 	C 	0.68545	0.08877	0.17043	-0.04
Mof_H 	H 	0.7059	0.0791	0.1618	0.055
Mof_C 	C 	0.6667	0.11814	0.15646	0.023
Mof_C 	C 	0.6377	0.12744	0.17547	-0.028
Mof_S 	S 	0.1299	0.60091	0.20936	0.037
Mof_O 	O 	0.15596	0.54092	0.24589	-0.359
Mof_O 	O 	0.2052	0.53515	0.2183	-0.391
Mof_C 	C 	0.17652	0.54892	0.22254	0.342
Mof_C 	C 	0.16652	0.57756	0.19992	-0.088
Mof_C 	C 	0.18545	0.58877	0.17043	-0.04
Mof_H 	H 	0.2059	0.5791	0.1618	0.055
Mof_C 	C 	0.1667	0.61814	0.15646	0.024
Mof_C 	C 	0.1377	0.62744	0.17547	-0.028
Mof_S 	S 	0.1299	0.10091	0.70936	0.036
Mof_O 	O 	0.15596	0.04092	0.74589	-0.359
Mof_O 	O 	0.2052	0.03515	0.7183	-0.39
Mof_C 	C 	0.17652	0.04892	0.72254	0.341
Mof_C 	C 	0.16652	0.07756	0.69992	-0.088
Mof_C 	C 	0.18545	0.08877	0.67043	-0.04
Mof_H 	H 	0.2059	0.0791	0.6618	0.056
Mof_C 	C 	0.1667	0.11814	0.65646	0.023
Mof_C 	C 	0.1377	0.12744	0.67547	-0.028
Mof_S 	S 	0.3701	0.39909	0.70936	0.038
Mof_O 	O 	0.34404	0.45908	0.74589	-0.358
Mof_O 	O 	0.2948	0.46485	0.7183	-0.391
Mof_C 	C 	0.32348	0.45108	0.72254	0.342
Mof_C 	C 	0.33348	0.42244	0.69992	-0.088
Mof_C 	C 	0.31455	0.41123	0.67043	-0.039
Mof_H 	H 	0.2941	0.4209	0.6618	0.056
Mof_C 	C 	0.3333	0.38186	0.65646	0.024
Mof_C 	C 	0.3623	0.37256	0.67547	-0.028
Mof_S 	S 	0.3701	0.89909	0.20936	0.04
Mof_O 	O 	0.34404	0.95908	0.24589	-0.351
Mof_O 	O 	0.2948	0.96485	0.2183	-0.382
Mof_C 	C 	0.32348	0.95108	0.22254	0.341
Mof_C 	C 	0.33348	0.92244	0.19992	-0.087
Mof_C 	C 	0.31455	0.91123	0.17043	-0.039
Mof_H 	H 	0.2941	0.9209	0.1618	0.057
Mof_C 	C 	0.3333	0.88186	0.15646	0.025
Mof_C 	C 	0.3623	0.87256	0.17547	-0.028
Mof_S 	S 	0.8701	0.39909	0.20936	0.04
Mof_O 	O 	0.84404	0.45908	0.24589	-0.358
Mof_O 	O 	0.7948	0.46485	0.2183	-0.391
Mof_C 	C 	0.82348	0.45108	0.22254	0.342
Mof_C 	C 	0.83348	0.42244	0.19992	-0.088
Mof_C 	C 	0.81455	0.41123	0.17043	-0.039
Mof_H 	H 	0.7941	0.4209	0.1618	0.056
Mof_C 	C 	0.8333	0.38186	0.15646	0.024
Mof_C 	C 	0.8623	0.37256	0.17547	-0.028
Mof_S 	S 	0.8701	0.89909	0.70936	0.042
Mof_O 	O 	0.84404	0.95908	0.74589	-0.35
Mof_O 	O 	0.7948	0.96485	0.7183	-0.382
Mof_C 	C 	0.82348	0.95108	0.72254	0.341
Mof_C 	C 	0.83348	0.92244	0.69992	-0.086
Mof_C 	C 	0.81455	0.91123	0.67043	-0.039
Mof_H 	H 	0.7941	0.9209	0.6618	0.057
Mof_C 	C 	0.8333	0.88186	0.65646	0.025
Mof_C 	C 	0.8623	0.87256	0.67547	-0.028
Mof_S 	S 	0.3701	0.60091	0.29064	0.038
Mof_O 	O 	0.34404	0.54092	0.25411	-0.358
Mof_O 	O 	0.2948	0.53515	0.2817	-0.391
Mof_C 	C 	0.32348	0.54892	0.27746	0.343
Mof_C 	C 	0.33348	0.57756	0.30008	-0.088
Mof_C 	C 	0.31455	0.58877	0.32957	-0.039
Mof_H 	H 	0.2941	0.5791	0.3382	0.056
Mof_C 	C 	0.3333	0.61814	0.34354	0.024
Mof_C 	C 	0.3623	0.62744	0.32453	-0.028
Mof_S 	S 	0.3701	0.10091	0.79064	0.037
Mof_O 	O 	0.34404	0.04092	0.75411	-0.359
Mof_O 	O 	0.2948	0.03515	0.7817	-0.39
Mof_C 	C 	0.32348	0.04892	0.77746	0.342
Mof_C 	C 	0.33348	0.07756	0.80008	-0.088
Mof_C 	C 	0.31455	0.08877	0.82957	-0.04
Mof_H 	H 	0.2941	0.0791	0.8382	0.056
Mof_C 	C 	0.3333	0.11814	0.84354	0.024
Mof_C 	C 	0.3623	0.12744	0.82453	-0.028
Mof_S 	S 	0.8701	0.60091	0.79064	0.04
Mof_O 	O 	0.84404	0.54092	0.75411	-0.358
Mof_O 	O 	0.7948	0.53515	0.7817	-0.391
Mof_C 	C 	0.82348	0.54892	0.77746	0.343
Mof_C 	C 	0.83348	0.57756	0.80008	-0.088
Mof_C 	C 	0.81455	0.58877	0.82957	-0.039
Mof_H 	H 	0.7941	0.5791	0.8382	0.056
Mof_C 	C 	0.8333	0.61814	0.84354	0.025
Mof_C 	C 	0.8623	0.62744	0.82453	-0.028
Mof_S 	S 	0.8701	0.10091	0.29064	0.039
Mof_O 	O 	0.84404	0.04092	0.25411	-0.358
Mof_O 	O 	0.7948	0.03515	0.2817	-0.39
Mof_C 	C 	0.82348	0.04892	0.27746	0.342
Mof_C 	C 	0.83348	0.07756	0.30008	-0.088
Mof_C 	C 	0.81455	0.08877	0.32957	-0.04
Mof_H 	H 	0.7941	0.0791	0.3382	0.056
Mof_C 	C 	0.8333	0.11814	0.34354	0.024
Mof_C 	C 	0.8623	0.12744	0.32453	-0.028
Mof_S 	S 	0.6299	0.39909	0.29064	0.038
Mof_O 	O 	0.65596	0.45908	0.25411	-0.358
Mof_O 	O 	0.7052	0.46485	0.2817	-0.391
Mof_C 	C 	0.67652	0.45108	0.27746	0.343
Mof_C 	C 	0.66652	0.42244	0.30008	-0.088
Mof_C 	C 	0.68545	0.41123	0.32957	-0.039
Mof_H 	H 	0.7059	0.4209	0.3382	0.056
Mof_C 	C 	0.6667	0.38186	0.34354	0.024
Mof_C 	C 	0.6377	0.37256	0.32453	-0.028
Mof_S 	S 	0.6299	0.89909	0.79064	0.04
Mof_O 	O 	0.65596	0.95908	0.75411	-0.351
Mof_O 	O 	0.7052	0.96485	0.7817	-0.382
Mof_C 	C 	0.67652	0.95108	0.77746	0.341
Mof_C 	C 	0.66652	0.92244	0.80008	-0.086
Mof_C 	C 	0.68545	0.91123	0.82957	-0.039
Mof_H 	H 	0.7059	0.9209	0.8382	0.057
Mof_C 	C 	0.6667	0.88186	0.84354	0.025
Mof_C 	C 	0.6377	0.87256	0.82453	-0.028
Mof_S 	S 	0.1299	0.39909	0.79064	0.038
Mof_O 	O 	0.15596	0.45908	0.75411	-0.359
Mof_O 	O 	0.2052	0.46485	0.7817	-0.391
Mof_C 	C 	0.17652	0.45108	0.77746	0.343
Mof_C 	C 	0.16652	0.42244	0.80008	-0.088
Mof_C 	C 	0.18545	0.41123	0.82957	-0.039
Mof_H 	H 	0.2059	0.4209	0.8382	0.056
Mof_C 	C 	0.1667	0.38186	0.84354	0.024
Mof_C 	C 	0.1377	0.37256	0.82453	-0.028
Mof_S 	S 	0.1299	0.89909	0.29064	0.039
Mof_O 	O 	0.15596	0.95908	0.25411	-0.352
Mof_O 	O 	0.2052	0.96485	0.2817	-0.382
Mof_C 	C 	0.17652	0.95108	0.27746	0.341
Mof_C 	C 	0.16652	0.92244	0.30008	-0.086
Mof_C 	C 	0.18545	0.91123	0.32957	-0.039
Mof_H 	H 	0.2059	0.9209	0.3382	0.057
Mof_C 	C 	0.1667	0.88186	0.34354	0.025
Mof_C 	C 	0.1377	0.87256	0.32453	-0.028
Mof_S 	S 	0.70936	0.6299	0.60091	0.038
Mof_O 	O 	0.74589	0.65596	0.54092	-0.358
Mof_O 	O 	0.7183	0.7052	0.53515	-0.391
Mof_C 	C 	0.72254	0.67652	0.54892	0.342
Mof_C 	C 	0.69992	0.66652	0.57756	-0.088
Mof_C 	C 	0.67043	0.68545	0.58877	-0.039
Mof_H 	H 	0.6618	0.7059	0.5791	0.056
Mof_C 	C 	0.65646	0.6667	0.61814	0.024
Mof_C 	C 	0.67547	0.6377	0.62744	-0.028
Mof_S 	S 	0.70936	0.1299	0.10091	0.036
Mof_O 	O 	0.74589	0.15596	0.04092	-0.359
Mof_O 	O 	0.7183	0.2052	0.03515	-0.39
Mof_C 	C 	0.72254	0.17652	0.04892	0.341
Mof_C 	C 	0.69992	0.16652	0.07756	-0.088
Mof_C 	C 	0.67043	0.18545	0.08877	-0.04
Mof_H 	H 	0.6618	0.2059	0.0791	0.056
Mof_C 	C 	0.65646	0.1667	0.11814	0.023
Mof_C 	C 	0.67547	0.1377	0.12744	-0.028
Mof_S 	S 	0.20936	0.6299	0.10091	0.036
Mof_O 	O 	0.24589	0.65596	0.04092	-0.359
Mof_O 	O 	0.2183	0.7052	0.03515	-0.39
Mof_C 	C 	0.22254	0.67652	0.04892	0.342
Mof_C 	C 	0.19992	0.66652	0.07756	-0.087
Mof_C 	C 	0.17043	0.68545	0.08877	-0.039
Mof_H 	H 	0.1618	0.7059	0.0791	0.056
Mof_C 	C 	0.15646	0.6667	0.11814	0.024
Mof_C 	C 	0.17547	0.6377	0.12744	-0.027
Mof_S 	S 	0.20936	0.1299	0.60091	0.038
Mof_O 	O 	0.24589	0.15596	0.54092	-0.358
Mof_O 	O 	0.2183	0.2052	0.53515	-0.39
Mof_C 	C 	0.22254	0.17652	0.54892	0.343
Mof_C 	C 	0.19992	0.16652	0.57756	-0.087
Mof_C 	C 	0.17043	0.18545	0.58877	-0.039
Mof_H 	H 	0.1618	0.2059	0.5791	0.056
Mof_C 	C 	0.15646	0.1667	0.61814	0.025
Mof_C 	C 	0.17547	0.1377	0.62744	-0.027
Mof_S 	S 	0.70936	0.3701	0.39909	0.039
Mof_O 	O 	0.74589	0.34404	0.45908	-0.357
Mof_O 	O 	0.7183	0.2948	0.46485	-0.39
Mof_C 	C 	0.72254	0.32348	0.45108	0.343
Mof_C 	C 	0.69992	0.33348	0.42244	-0.087
Mof_C 	C 	0.67043	0.31455	0.41123	-0.038
Mof_H 	H 	0.6618	0.2941	0.4209	0.057
Mof_C 	C 	0.65646	0.3333	0.38186	0.025
Mof_C 	C 	0.67547	0.3623	0.37256	-0.027
Mof_S 	S 	0.70936	0.8701	0.89909	0.043
Mof_O 	O 	0.74589	0.84404	0.95908	-0.349
Mof_O 	O 	0.7183	0.7948	0.96485	-0.381
Mof_C 	C 	0.72254	0.82348	0.95108	0.342
Mof_C 	C 	0.69992	0.83348	0.92244	-0.085
Mof_C 	C 	0.67043	0.81455	0.91123	-0.038
Mof_H 	H 	0.6618	0.7941	0.9209	0.058
Mof_C 	C 	0.65646	0.8333	0.88186	0.026
Mof_C 	C 	0.67547	0.8623	0.87256	-0.027
Mof_S 	S 	0.20936	0.3701	0.89909	0.041
Mof_O 	O 	0.24589	0.34404	0.95908	-0.35
Mof_O 	O 	0.2183	0.2948	0.96485	-0.381
Mof_C 	C 	0.22254	0.32348	0.95108	0.342
Mof_C 	C 	0.19992	0.33348	0.92244	-0.086
Mof_C 	C 	0.17043	0.31455	0.91123	-0.038
Mof_H 	H 	0.1618	0.2941	0.9209	0.058
Mof_C 	C 	0.15646	0.3333	0.88186	0.026
Mof_C 	C 	0.17547	0.3623	0.87256	-0.027
Mof_S 	S 	0.20936	0.8701	0.39909	0.041
Mof_O 	O 	0.24589	0.84404	0.45908	-0.357
Mof_O 	O 	0.2183	0.7948	0.46485	-0.39
Mof_C 	C 	0.22254	0.82348	0.45108	0.343
Mof_C 	C 	0.19992	0.83348	0.42244	-0.087
Mof_C 	C 	0.17043	0.81455	0.41123	-0.038
Mof_H 	H 	0.1618	0.7941	0.4209	0.057
Mof_C 	C 	0.15646	0.8333	0.38186	0.025
Mof_C 	C 	0.17547	0.8623	0.37256	-0.027
Mof_S 	S 	0.29064	0.3701	0.60091	0.039
Mof_O 	O 	0.25411	0.34404	0.54092	-0.357
Mof_O 	O 	0.2817	0.2948	0.53515	-0.39
Mof_C 	C 	0.27746	0.32348	0.54892	0.344
Mof_C 	C 	0.30008	0.33348	0.57756	-0.087
Mof_C 	C 	0.32957	0.31455	0.58877	-0.038
Mof_H 	H 	0.3382	0.2941	0.5791	0.057
Mof_C 	C 	0.34354	0.3333	0.61814	0.025
Mof_C 	C 	0.32453	0.3623	0.62744	-0.027
Mof_S 	S 	0.29064	0.8701	0.10091	0.04
Mof_O 	O 	0.25411	0.84404	0.04092	-0.357
Mof_O 	O 	0.2817	0.7948	0.03515	-0.389
Mof_C 	C 	0.27746	0.82348	0.04892	0.343
Mof_C 	C 	0.30008	0.83348	0.07756	-0.087
Mof_C 	C 	0.32957	0.81455	0.08877	-0.039
Mof_H 	H 	0.3382	0.7941	0.0791	0.057
Mof_C 	C 	0.34354	0.8333	0.11814	0.025
Mof_C 	C 	0.32453	0.8623	0.12744	-0.027
Mof_S 	S 	0.79064	0.3701	0.10091	0.038
Mof_O 	O 	0.75411	0.34404	0.04092	-0.358
Mof_O 	O 	0.7817	0.2948	0.03515	-0.389
Mof_C 	C 	0.77746	0.32348	0.04892	0.343
Mof_C 	C 	0.80008	0.33348	0.07756	-0.087
Mof_C 	C 	0.82957	0.31455	0.08877	-0.039
Mof_H 	H 	0.8382	0.2941	0.0791	0.057
Mof_C 	C 	0.84354	0.3333	0.11814	0.025
Mof_C 	C 	0.82453	0.3623	0.12744	-0.027
Mof_S 	S 	0.79064	0.8701	0.60091	0.041
Mof_O 	O 	0.75411	0.84404	0.54092	-0.357
Mof_O 	O 	0.7817	0.7948	0.53515	-0.39
Mof_C 	C 	0.77746	0.82348	0.54892	0.344
Mof_C 	C 	0.80008	0.83348	0.57756	-0.087
Mof_C 	C 	0.82957	0.81455	0.58877	-0.038
Mof_H 	H 	0.8382	0.7941	0.5791	0.057
Mof_C 	C 	0.84354	0.8333	0.61814	0.026
Mof_C 	C 	0.82453	0.8623	0.62744	-0.027
Mof_S 	S 	0.29064	0.6299	0.39909	0.039
Mof_O 	O 	0.25411	0.65596	0.45908	-0.357
Mof_O 	O 	0.2817	0.7052	0.46485	-0.39
Mof_C 	C 	0.27746	0.67652	0.45108	0.344
Mof_C 	C 	0.30008	0.66652	0.42244	-0.087
Mof_C 	C 	0.32957	0.68545	0.41123	-0.038
Mof_H 	H 	0.3382	0.7059	0.4209	0.057
Mof_C 	C 	0.34354	0.6667	0.38186	0.025
Mof_C 	C 	0.32453	0.6377	0.37256	-0.027
Mof_S 	S 	0.29064	0.1299	0.89909	0.04
Mof_O 	O 	0.25411	0.15596	0.95908	-0.351
Mof_O 	O 	0.2817	0.2052	0.96485	-0.381
Mof_C 	C 	0.27746	0.17652	0.95108	0.342
Mof_C 	C 	0.30008	0.16652	0.92244	-0.085
Mof_C 	C 	0.32957	0.18545	0.91123	-0.038
Mof_H 	H 	0.3382	0.2059	0.9209	0.058
Mof_C 	C 	0.34354	0.1667	0.88186	0.026
Mof_C 	C 	0.32453	0.1377	0.87256	-0.027
Mof_S 	S 	0.79064	0.6299	0.89909	0.041
Mof_O 	O 	0.75411	0.65596	0.95908	-0.35
Mof_O 	O 	0.7817	0.7052	0.96485	-0.381
Mof_C 	C 	0.77746	0.67652	0.95108	0.342
Mof_C 	C 	0.80008	0.66652	0.92244	-0.085
Mof_C 	C 	0.82957	0.68545	0.91123	-0.038
Mof_H 	H 	0.8382	0.7059	0.9209	0.058
Mof_C 	C 	0.84354	0.6667	0.88186	0.026
Mof_C 	C 	0.82453	0.6377	0.87256	-0.027
Mof_S 	S 	0.79064	0.1299	0.39909	0.039
Mof_O 	O 	0.75411	0.15596	0.45908	-0.358
Mof_O 	O 	0.7817	0.2052	0.46485	-0.39
Mof_C 	C 	0.77746	0.17652	0.45108	0.344
Mof_C 	C 	0.80008	0.16652	0.42244	-0.087
Mof_C 	C 	0.82957	0.18545	0.41123	-0.038
Mof_H 	H 	0.8382	0.2059	0.4209	0.057
Mof_C 	C 	0.84354	0.1667	0.38186	0.025
Mof_C 	C 	0.82453	0.1377	0.37256	-0.027
Mof_S 	S 	0.60091	0.70936	0.6299	0.039
Mof_O 	O 	0.54092	0.74589	0.65596	-0.357
Mof_O 	O 	0.53515	0.7183	0.7052	-0.39
Mof_C 	C 	0.54892	0.72254	0.67652	0.343
Mof_C 	C 	0.57756	0.69992	0.66652	-0.087
Mof_C 	C 	0.58877	0.67043	0.68545	-0.038
Mof_H 	H 	0.5791	0.6618	0.7059	0.057
Mof_C 	C 	0.61814	0.65646	0.6667	0.025
Mof_C 	C 	0.62744	0.67547	0.6377	-0.027
Mof_S 	S 	0.60091	0.20936	0.1299	0.038
Mof_O 	O 	0.54092	0.24589	0.15596	-0.358
Mof_O 	O 	0.53515	0.2183	0.2052	-0.39
Mof_C 	C 	0.54892	0.22254	0.17652	0.343
Mof_C 	C 	0.57756	0.19992	0.16652	-0.087
Mof_C 	C 	0.58877	0.17043	0.18545	-0.039
Mof_H 	H 	0.5791	0.1618	0.2059	0.056
Mof_C 	C 	0.61814	0.15646	0.1667	0.025
Mof_C 	C 	0.62744	0.17547	0.1377	-0.027
Mof_S 	S 	0.10091	0.70936	0.1299	0.037
Mof_O 	O 	0.04092	0.74589	0.15596	-0.358
Mof_O 	O 	0.03515	0.7183	0.2052	-0.389
Mof_C 	C 	0.04892	0.72254	0.17652	0.342
Mof_C 	C 	0.07756	0.69992	0.16652	-0.087
Mof_C 	C 	0.08877	0.67043	0.18545	-0.039
Mof_H 	H 	0.0791	0.6618	0.2059	0.057
Mof_C 	C 	0.11814	0.65646	0.1667	0.024
Mof_C 	C 	0.12744	0.67547	0.1377	-0.027
Mof_S 	S 	0.10091	0.20936	0.6299	0.037
Mof_O 	O 	0.04092	0.24589	0.65596	-0.358
Mof_O 	O 	0.03515	0.2183	0.7052	-0.389
Mof_C 	C 	0.04892	0.22254	0.67652	0.342
Mof_C 	C 	0.07756	0.19992	0.66652	-0.087
Mof_C 	C 	0.08877	0.17043	0.68545	-0.039
Mof_H 	H 	0.0791	0.1618	0.7059	0.056
Mof_C 	C 	0.11814	0.15646	0.6667	0.024
Mof_C 	C 	0.12744	0.17547	0.6377	-0.027
Mof_S 	S 	0.39909	0.70936	0.3701	0.039
Mof_O 	O 	0.45908	0.74589	0.34404	-0.357
Mof_O 	O 	0.46485	0.7183	0.2948	-0.39
Mof_C 	C 	0.45108	0.72254	0.32348	0.343
Mof_C 	C 	0.42244	0.69992	0.33348	-0.087
Mof_C 	C 	0.41123	0.67043	0.31455	-0.038
Mof_H 	H 	0.4209	0.6618	0.2941	0.057
Mof_C 	C 	0.38186	0.65646	0.3333	0.025
Mof_C 	C 	0.37256	0.67547	0.3623	-0.027
Mof_S 	S 	0.39909	0.20936	0.8701	0.041
Mof_O 	O 	0.45908	0.24589	0.84404	-0.357
Mof_O 	O 	0.46485	0.2183	0.7948	-0.39
Mof_C 	C 	0.45108	0.22254	0.82348	0.343
Mof_C 	C 	0.42244	0.19992	0.83348	-0.087
Mof_C 	C 	0.41123	0.17043	0.81455	-0.038
Mof_H 	H 	0.4209	0.1618	0.7941	0.057
Mof_C 	C 	0.38186	0.15646	0.8333	0.025
Mof_C 	C 	0.37256	0.17547	0.8623	-0.027
Mof_S 	S 	0.89909	0.70936	0.8701	0.043
Mof_O 	O 	0.95908	0.74589	0.84404	-0.349
Mof_O 	O 	0.96485	0.7183	0.7948	-0.381
Mof_C 	C 	0.95108	0.72254	0.82348	0.342
Mof_C 	C 	0.92244	0.69992	0.83348	-0.085
Mof_C 	C 	0.91123	0.67043	0.81455	-0.038
Mof_H 	H 	0.9209	0.6618	0.7941	0.058
Mof_C 	C 	0.88186	0.65646	0.8333	0.026
Mof_C 	C 	0.87256	0.67547	0.8623	-0.027
Mof_S 	S 	0.89909	0.20936	0.3701	0.041
Mof_O 	O 	0.95908	0.24589	0.34404	-0.35
Mof_O 	O 	0.96485	0.2183	0.2948	-0.381
Mof_C 	C 	0.95108	0.22254	0.32348	0.342
Mof_C 	C 	0.92244	0.19992	0.33348	-0.086
Mof_C 	C 	0.91123	0.17043	0.31455	-0.038
Mof_H 	H 	0.9209	0.1618	0.2941	0.058
Mof_C 	C 	0.88186	0.15646	0.3333	0.026
Mof_C 	C 	0.87256	0.17547	0.3623	-0.027
Mof_S 	S 	0.60091	0.29064	0.3701	0.039
Mof_O 	O 	0.54092	0.25411	0.34404	-0.357
Mof_O 	O 	0.53515	0.2817	0.2948	-0.39
Mof_C 	C 	0.54892	0.27746	0.32348	0.344
Mof_C 	C 	0.57756	0.30008	0.33348	-0.087
Mof_C 	C 	0.58877	0.32957	0.31455	-0.038
Mof_H 	H 	0.5791	0.3382	0.2941	0.057
Mof_C 	C 	0.61814	0.34354	0.3333	0.025
Mof_C 	C 	0.62744	0.32453	0.3623	-0.027
Mof_S 	S 	0.60091	0.79064	0.8701	0.041
Mof_O 	O 	0.54092	0.75411	0.84404	-0.357
Mof_O 	O 	0.53515	0.7817	0.7948	-0.39
Mof_C 	C 	0.54892	0.77746	0.82348	0.344
Mof_C 	C 	0.57756	0.80008	0.83348	-0.087
Mof_C 	C 	0.58877	0.82957	0.81455	-0.038
Mof_H 	H 	0.5791	0.8382	0.7941	0.057
Mof_C 	C 	0.61814	0.84354	0.8333	0.026
Mof_C 	C 	0.62744	0.82453	0.8623	-0.027
Mof_S 	S 	0.10091	0.29064	0.8701	0.04
Mof_O 	O 	0.04092	0.25411	0.84404	-0.357
Mof_O 	O 	0.03515	0.2817	0.7948	-0.389
Mof_C 	C 	0.04892	0.27746	0.82348	0.343
Mof_C 	C 	0.07756	0.30008	0.83348	-0.087
Mof_C 	C 	0.08877	0.32957	0.81455	-0.039
Mof_H 	H 	0.0791	0.3382	0.7941	0.057
Mof_C 	C 	0.11814	0.34354	0.8333	0.025
Mof_C 	C 	0.12744	0.32453	0.8623	-0.027
Mof_S 	S 	0.10091	0.79064	0.3701	0.038
Mof_O 	O 	0.04092	0.75411	0.34404	-0.358
Mof_O 	O 	0.03515	0.7817	0.2948	-0.389
Mof_C 	C 	0.04892	0.77746	0.32348	0.343
Mof_C 	C 	0.07756	0.80008	0.33348	-0.087
Mof_C 	C 	0.08877	0.82957	0.31455	-0.039
Mof_H 	H 	0.0791	0.8382	0.2941	0.057
Mof_C 	C 	0.11814	0.84354	0.3333	0.025
Mof_C 	C 	0.12744	0.82453	0.3623	-0.027
Mof_S 	S 	0.39909	0.29064	0.6299	0.039
Mof_O 	O 	0.45908	0.25411	0.65596	-0.357
Mof_O 	O 	0.46485	0.2817	0.7052	-0.39
Mof_C 	C 	0.45108	0.27746	0.67652	0.344
Mof_C 	C 	0.42244	0.30008	0.66652	-0.087
Mof_C 	C 	0.41123	0.32957	0.68545	-0.038
Mof_H 	H 	0.4209	0.3382	0.7059	0.057
Mof_C 	C 	0.38186	0.34354	0.6667	0.025
Mof_C 	C 	0.37256	0.32453	0.6377	-0.027
Mof_S 	S 	0.39909	0.79064	0.1299	0.039
Mof_O 	O 	0.45908	0.75411	0.15596	-0.358
Mof_O 	O 	0.46485	0.7817	0.2052	-0.39
Mof_C 	C 	0.45108	0.77746	0.17652	0.344
Mof_C 	C 	0.42244	0.80008	0.16652	-0.087
Mof_C 	C 	0.41123	0.82957	0.18545	-0.038
Mof_H 	H 	0.4209	0.8382	0.2059	0.057
Mof_C 	C 	0.38186	0.84354	0.1667	0.025
Mof_C 	C 	0.37256	0.82453	0.1377	-0.027
Mof_S 	S 	0.89909	0.29064	0.1299	0.04
Mof_O 	O 	0.95908	0.25411	0.15596	-0.351
Mof_O 	O 	0.96485	0.2817	0.2052	-0.381
Mof_C 	C 	0.95108	0.27746	0.17652	0.342
Mof_C 	C 	0.92244	0.30008	0.16652	-0.085
Mof_C 	C 	0.91123	0.32957	0.18545	-0.038
Mof_H 	H 	0.9209	0.3382	0.2059	0.058
Mof_C 	C 	0.88186	0.34354	0.1667	0.026
Mof_C 	C 	0.87256	0.32453	0.1377	-0.027
Mof_S 	S 	0.89909	0.79064	0.6299	0.041
Mof_O 	O 	0.95908	0.75411	0.65596	-0.35
Mof_O 	O 	0.96485	0.7817	0.7052	-0.381
Mof_C 	C 	0.95108	0.77746	0.67652	0.342
Mof_C 	C 	0.92244	0.80008	0.66652	-0.085
Mof_C 	C 	0.91123	0.82957	0.68545	-0.038
Mof_H 	H 	0.9209	0.8382	0.7059	0.058
Mof_C 	C 	0.88186	0.84354	0.6667	0.026
Mof_C 	C 	0.87256	0.82453	0.6377	-0.027
Mof_S 	S 	0.10091	0.1299	0.79064	0.037
Mof_O 	O 	0.04092	0.15596	0.75411	-0.358
Mof_O 	O 	0.03515	0.2052	0.7817	-0.389
Mof_C 	C 	0.04892	0.17652	0.77746	0.343
Mof_C 	C 	0.07756	0.16652	0.80008	-0.087
Mof_C 	C 	0.08877	0.18545	0.82957	-0.039
Mof_H 	H 	0.0791	0.2059	0.8382	0.057
Mof_C 	C 	0.11814	0.1667	0.84354	0.025
Mof_C 	C 	0.12744	0.1377	0.82453	-0.027
Mof_S 	S 	0.10091	0.6299	0.29064	0.038
Mof_O 	O 	0.04092	0.65596	0.25411	-0.358
Mof_O 	O 	0.03515	0.7052	0.2817	-0.389
Mof_C 	C 	0.04892	0.67652	0.27746	0.343
Mof_C 	C 	0.07756	0.66652	0.30008	-0.087
Mof_C 	C 	0.08877	0.68545	0.32957	-0.039
Mof_H 	H 	0.0791	0.7059	0.3382	0.057
Mof_C 	C 	0.11814	0.6667	0.34354	0.025
Mof_C 	C 	0.12744	0.6377	0.32453	-0.027
Mof_S 	S 	0.60091	0.1299	0.29064	0.038
Mof_O 	O 	0.54092	0.15596	0.25411	-0.358
Mof_O 	O 	0.53515	0.2052	0.2817	-0.39
Mof_C 	C 	0.54892	0.17652	0.27746	0.343
Mof_C 	C 	0.57756	0.16652	0.30008	-0.087
Mof_C 	C 	0.58877	0.18545	0.32957	-0.038
Mof_H 	H 	0.5791	0.2059	0.3382	0.057
Mof_C 	C 	0.61814	0.1667	0.34354	0.025
Mof_C 	C 	0.62744	0.1377	0.32453	-0.027
Mof_S 	S 	0.60091	0.6299	0.79064	0.04
Mof_O 	O 	0.54092	0.65596	0.75411	-0.357
Mof_O 	O 	0.53515	0.7052	0.7817	-0.39
Mof_C 	C 	0.54892	0.67652	0.77746	0.344
Mof_C 	C 	0.57756	0.66652	0.80008	-0.087
Mof_C 	C 	0.58877	0.68545	0.82957	-0.038
Mof_H 	H 	0.5791	0.7059	0.8382	0.057
Mof_C 	C 	0.61814	0.6667	0.84354	0.026
Mof_C 	C 	0.62744	0.6377	0.82453	-0.027
Mof_S 	S 	0.89909	0.8701	0.79064	0.043
Mof_O 	O 	0.95908	0.84404	0.75411	-0.349
Mof_O 	O 	0.96485	0.7948	0.7817	-0.381
Mof_C 	C 	0.95108	0.82348	0.77746	0.342
Mof_C 	C 	0.92244	0.83348	0.80008	-0.085
Mof_C 	C 	0.91123	0.81455	0.82957	-0.038
Mof_H 	H 	0.9209	0.7941	0.8382	0.058
Mof_C 	C 	0.88186	0.8333	0.84354	0.027
Mof_C 	C 	0.87256	0.8623	0.82453	-0.027
Mof_S 	S 	0.89909	0.3701	0.29064	0.041
Mof_O 	O 	0.95908	0.34404	0.25411	-0.35
Mof_O 	O 	0.96485	0.2948	0.2817	-0.381
Mof_C 	C 	0.95108	0.32348	0.27746	0.342
Mof_C 	C 	0.92244	0.33348	0.30008	-0.085
Mof_C 	C 	0.91123	0.31455	0.32957	-0.038
Mof_H 	H 	0.9209	0.2941	0.3382	0.058
Mof_C 	C 	0.88186	0.3333	0.34354	0.026
Mof_C 	C 	0.87256	0.3623	0.32453	-0.027
Mof_S 	S 	0.39909	0.8701	0.29064	0.041
Mof_O 	O 	0.45908	0.84404	0.25411	-0.357
Mof_O 	O 	0.46485	0.7948	0.2817	-0.39
Mof_C 	C 	0.45108	0.82348	0.27746	0.344
Mof_C 	C 	0.42244	0.83348	0.30008	-0.087
Mof_C 	C 	0.41123	0.81455	0.32957	-0.038
Mof_H 	H 	0.4209	0.7941	0.3382	0.057
Mof_C 	C 	0.38186	0.8333	0.34354	0.026
Mof_C 	C 	0.37256	0.8623	0.32453	-0.027
Mof_S 	S 	0.39909	0.3701	0.79064	0.04
Mof_O 	O 	0.45908	0.34404	0.75411	-0.357
Mof_O 	O 	0.46485	0.2948	0.7817	-0.39
Mof_C 	C 	0.45108	0.32348	0.77746	0.344
Mof_C 	C 	0.42244	0.33348	0.80008	-0.087
Mof_C 	C 	0.41123	0.31455	0.82957	-0.038
Mof_H 	H 	0.4209	0.2941	0.8382	0.057
Mof_C 	C 	0.38186	0.3333	0.84354	0.026
Mof_C 	C 	0.37256	0.3623	0.82453	-0.027
Mof_S 	S 	0.10091	0.8701	0.20936	0.039
Mof_O 	O 	0.04092	0.84404	0.24589	-0.357
Mof_O 	O 	0.03515	0.7948	0.2183	-0.389
Mof_C 	C 	0.04892	0.82348	0.22254	0.342
Mof_C 	C 	0.07756	0.83348	0.19992	-0.087
Mof_C 	C 	0.08877	0.81455	0.17043	-0.039
Mof_H 	H 	0.0791	0.7941	0.1618	0.057
Mof_C 	C 	0.11814	0.8333	0.15646	0.025
Mof_C 	C 	0.12744	0.8623	0.17547	-0.027
Mof_S 	S 	0.10091	0.3701	0.70936	0.038
Mof_O 	O 	0.04092	0.34404	0.74589	-0.358
Mof_O 	O 	0.03515	0.2948	0.7183	-0.389
Mof_C 	C 	0.04892	0.32348	0.72254	0.342
Mof_C 	C 	0.07756	0.33348	0.69992	-0.087
Mof_C 	C 	0.08877	0.31455	0.67043	-0.039
Mof_H 	H 	0.0791	0.2941	0.6618	0.057
Mof_C 	C 	0.11814	0.3333	0.65646	0.025
Mof_C 	C 	0.12744	0.3623	0.67547	-0.027
Mof_S 	S 	0.60091	0.8701	0.70936	0.041
Mof_O 	O 	0.54092	0.84404	0.74589	-0.357
Mof_O 	O 	0.53515	0.7948	0.7183	-0.39
Mof_C 	C 	0.54892	0.82348	0.72254	0.344
Mof_C 	C 	0.57756	0.83348	0.69992	-0.087
Mof_C 	C 	0.58877	0.81455	0.67043	-0.038
Mof_H 	H 	0.5791	0.7941	0.6618	0.057
Mof_C 	C 	0.61814	0.8333	0.65646	0.025
Mof_C 	C 	0.62744	0.8623	0.67547	-0.027
Mof_S 	S 	0.60091	0.3701	0.20936	0.039
Mof_O 	O 	0.54092	0.34404	0.24589	-0.357
Mof_O 	O 	0.53515	0.2948	0.2183	-0.39
Mof_C 	C 	0.54892	0.32348	0.22254	0.343
Mof_C 	C 	0.57756	0.33348	0.19992	-0.087
Mof_C 	C 	0.58877	0.31455	0.17043	-0.038
Mof_H 	H 	0.5791	0.2941	0.1618	0.057
Mof_C 	C 	0.61814	0.3333	0.15646	0.025
Mof_C 	C 	0.62744	0.3623	0.17547	-0.027
Mof_S 	S 	0.89909	0.1299	0.20936	0.04
Mof_O 	O 	0.95908	0.15596	0.24589	-0.351
Mof_O 	O 	0.96485	0.2052	0.2183	-0.381
Mof_C 	C 	0.95108	0.17652	0.22254	0.342
Mof_C 	C 	0.92244	0.16652	0.19992	-0.086
Mof_C 	C 	0.91123	0.18545	0.17043	-0.038
Mof_H 	H 	0.9209	0.2059	0.1618	0.058
Mof_C 	C 	0.88186	0.1667	0.15646	0.025
Mof_C 	C 	0.87256	0.1377	0.17547	-0.027
Mof_S 	S 	0.89909	0.6299	0.70936	0.041
Mof_O 	O 	0.95908	0.65596	0.74589	-0.35
Mof_O 	O 	0.96485	0.7052	0.7183	-0.381
Mof_C 	C 	0.95108	0.67652	0.72254	0.342
Mof_C 	C 	0.92244	0.66652	0.69992	-0.085
Mof_C 	C 	0.91123	0.68545	0.67043	-0.038
Mof_H 	H 	0.9209	0.7059	0.6618	0.058
Mof_C 	C 	0.88186	0.6667	0.65646	0.026
Mof_C 	C 	0.87256	0.6377	0.67547	-0.027
Mof_S 	S 	0.39909	0.1299	0.70936	0.038
Mof_O 	O 	0.45908	0.15596	0.74589	-0.358
Mof_O 	O 	0.46485	0.2052	0.7183	-0.39
Mof_C 	C 	0.45108	0.17652	0.72254	0.343
Mof_C 	C 	0.42244	0.16652	0.69992	-0.087
Mof_C 	C 	0.41123	0.18545	0.67043	-0.038
Mof_H 	H 	0.4209	0.2059	0.6618	0.057
Mof_C 	C 	0.38186	0.1667	0.65646	0.025
Mof_C 	C 	0.37256	0.1377	0.67547	-0.027
Mof_S 	S 	0.39909	0.6299	0.20936	0.039
Mof_O 	O 	0.45908	0.65596	0.24589	-0.357
Mof_O 	O 	0.46485	0.7052	0.2183	-0.39
Mof_C 	C 	0.45108	0.67652	0.22254	0.343
Mof_C 	C 	0.42244	0.66652	0.19992	-0.087
Mof_C 	C 	0.41123	0.68545	0.17043	-0.038
Mof_H 	H 	0.4209	0.7059	0.1618	0.057
Mof_C 	C 	0.38186	0.6667	0.15646	0.025
Mof_C 	C 	0.37256	0.6377	0.17547	-0.027
Mof_S 	S 	0.1299	0.20936	0.89909	0.04
Mof_O 	O 	0.15596	0.24589	0.95908	-0.351
Mof_O 	O 	0.2052	0.2183	0.96485	-0.381
Mof_C 	C 	0.17652	0.22254	0.95108	0.342
Mof_C 	C 	0.16652	0.19992	0.92244	-0.086
Mof_C 	C 	0.18545	0.17043	0.91123	-0.038
Mof_H 	H 	0.2059	0.1618	0.9209	0.058
Mof_C 	C 	0.1667	0.15646	0.88186	0.025
Mof_C 	C 	0.1377	0.17547	0.87256	-0.027
Mof_S 	S 	0.1299	0.70936	0.39909	0.038
Mof_O 	O 	0.15596	0.74589	0.45908	-0.358
Mof_O 	O 	0.2052	0.7183	0.46485	-0.39
Mof_C 	C 	0.17652	0.72254	0.45108	0.343
Mof_C 	C 	0.16652	0.69992	0.42244	-0.087
Mof_C 	C 	0.18545	0.67043	0.41123	-0.038
Mof_H 	H 	0.2059	0.6618	0.4209	0.057
Mof_C 	C 	0.1667	0.65646	0.38186	0.025
Mof_C 	C 	0.1377	0.67547	0.37256	-0.027
Mof_S 	S 	0.6299	0.20936	0.39909	0.039
Mof_O 	O 	0.65596	0.24589	0.45908	-0.357
Mof_O 	O 	0.7052	0.2183	0.46485	-0.39
Mof_C 	C 	0.67652	0.22254	0.45108	0.343
Mof_C 	C 	0.66652	0.19992	0.42244	-0.087
Mof_C 	C 	0.68545	0.17043	0.41123	-0.038
Mof_H 	H 	0.7059	0.1618	0.4209	0.057
Mof_C 	C 	0.6667	0.15646	0.38186	0.025
Mof_C 	C 	0.6377	0.17547	0.37256	-0.027
Mof_S 	S 	0.6299	0.70936	0.89909	0.041
Mof_O 	O 	0.65596	0.74589	0.95908	-0.35
Mof_O 	O 	0.7052	0.7183	0.96485	-0.381
Mof_C 	C 	0.67652	0.72254	0.95108	0.342
Mof_C 	C 	0.66652	0.69992	0.92244	-0.085
Mof_C 	C 	0.68545	0.67043	0.91123	-0.038
Mof_H 	H 	0.7059	0.6618	0.9209	0.058
Mof_C 	C 	0.6667	0.65646	0.88186	0.026
Mof_C 	C 	0.6377	0.67547	0.87256	-0.027
Mof_S 	S 	0.8701	0.20936	0.10091	0.039
Mof_O 	O 	0.84404	0.24589	0.04092	-0.357
Mof_O 	O 	0.7948	0.2183	0.03515	-0.389
Mof_C 	C 	0.82348	0.22254	0.04892	0.342
Mof_C 	C 	0.83348	0.19992	0.07756	-0.087
Mof_C 	C 	0.81455	0.17043	0.08877	-0.039
Mof_H 	H 	0.7941	0.1618	0.0791	0.057
Mof_C 	C 	0.8333	0.15646	0.11814	0.025
Mof_C 	C 	0.8623	0.17547	0.12744	-0.027
Mof_S 	S 	0.8701	0.70936	0.60091	0.041
Mof_O 	O 	0.84404	0.74589	0.54092	-0.357
Mof_O 	O 	0.7948	0.7183	0.53515	-0.39
Mof_C 	C 	0.82348	0.72254	0.54892	0.344
Mof_C 	C 	0.83348	0.69992	0.57756	-0.087
Mof_C 	C 	0.81455	0.67043	0.58877	-0.038
Mof_H 	H 	0.7941	0.6618	0.5791	0.057
Mof_C 	C 	0.8333	0.65646	0.61814	0.025
Mof_C 	C 	0.8623	0.67547	0.62744	-0.027
Mof_S 	S 	0.3701	0.20936	0.60091	0.039
Mof_O 	O 	0.34404	0.24589	0.54092	-0.357
Mof_O 	O 	0.2948	0.2183	0.53515	-0.39
Mof_C 	C 	0.32348	0.22254	0.54892	0.343
Mof_C 	C 	0.33348	0.19992	0.57756	-0.087
Mof_C 	C 	0.31455	0.17043	0.58877	-0.038
Mof_H 	H 	0.2941	0.1618	0.5791	0.057
Mof_C 	C 	0.3333	0.15646	0.61814	0.025
Mof_C 	C 	0.3623	0.17547	0.62744	-0.027
Mof_S 	S 	0.3701	0.70936	0.10091	0.038
Mof_O 	O 	0.34404	0.74589	0.04092	-0.358
Mof_O 	O 	0.2948	0.7183	0.03515	-0.389
Mof_C 	C 	0.32348	0.72254	0.04892	0.342
Mof_C 	C 	0.33348	0.69992	0.07756	-0.087
Mof_C 	C 	0.31455	0.67043	0.08877	-0.039
Mof_H 	H 	0.2941	0.6618	0.0791	0.057
Mof_C 	C 	0.3333	0.65646	0.11814	0.025
Mof_C 	C 	0.3623	0.67547	0.12744	-0.027
Mof_S 	S 	0.8701	0.79064	0.89909	0.043
Mof_O 	O 	0.84404	0.75411	0.95908	-0.349
Mof_O 	O 	0.7948	0.7817	0.96485	-0.381
Mof_C 	C 	0.82348	0.77746	0.95108	0.342
Mof_C 	C 	0.83348	0.80008	0.92244	-0.085
Mof_C 	C 	0.81455	0.82957	0.91123	-0.038
Mof_H 	H 	0.7941	0.8382	0.9209	0.058
Mof_C 	C 	0.8333	0.84354	0.88186	0.027
Mof_C 	C 	0.8623	0.82453	0.87256	-0.027
Mof_S 	S 	0.8701	0.29064	0.39909	0.041
Mof_O 	O 	0.84404	0.25411	0.45908	-0.357
Mof_O 	O 	0.7948	0.2817	0.46485	-0.39
Mof_C 	C 	0.82348	0.27746	0.45108	0.344
Mof_C 	C 	0.83348	0.30008	0.42244	-0.087
Mof_C 	C 	0.81455	0.32957	0.41123	-0.038
Mof_H 	H 	0.7941	0.3382	0.4209	0.057
Mof_C 	C 	0.8333	0.34354	0.38186	0.026
Mof_C 	C 	0.8623	0.32453	0.37256	-0.027
Mof_S 	S 	0.3701	0.79064	0.39909	0.04
Mof_O 	O 	0.34404	0.75411	0.45908	-0.357
Mof_O 	O 	0.2948	0.7817	0.46485	-0.39
Mof_C 	C 	0.32348	0.77746	0.45108	0.344
Mof_C 	C 	0.33348	0.80008	0.42244	-0.087
Mof_C 	C 	0.31455	0.82957	0.41123	-0.038
Mof_H 	H 	0.2941	0.8382	0.4209	0.057
Mof_C 	C 	0.3333	0.84354	0.38186	0.026
Mof_C 	C 	0.3623	0.82453	0.37256	-0.027
Mof_S 	S 	0.3701	0.29064	0.89909	0.041
Mof_O 	O 	0.34404	0.25411	0.95908	-0.35
Mof_O 	O 	0.2948	0.2817	0.96485	-0.381
Mof_C 	C 	0.32348	0.27746	0.95108	0.342
Mof_C 	C 	0.33348	0.30008	0.92244	-0.085
Mof_C 	C 	0.31455	0.32957	0.91123	-0.038
Mof_H 	H 	0.2941	0.3382	0.9209	0.058
Mof_C 	C 	0.3333	0.34354	0.88186	0.026
Mof_C 	C 	0.3623	0.32453	0.87256	-0.027
Mof_S 	S 	0.1299	0.79064	0.10091	0.037
Mof_O 	O 	0.15596	0.75411	0.04092	-0.358
Mof_O 	O 	0.2052	0.7817	0.03515	-0.389
Mof_C 	C 	0.17652	0.77746	0.04892	0.343
Mof_C 	C 	0.16652	0.80008	0.07756	-0.087
Mof_C 	C 	0.18545	0.82957	0.08877	-0.039
Mof_H 	H 	0.2059	0.8382	0.0791	0.057
Mof_C 	C 	0.1667	0.84354	0.11814	0.025
Mof_C 	C 	0.1377	0.82453	0.12744	-0.027
Mof_S 	S 	0.1299	0.29064	0.60091	0.038
Mof_O 	O 	0.15596	0.25411	0.54092	-0.358
Mof_O 	O 	0.2052	0.2817	0.53515	-0.39
Mof_C 	C 	0.17652	0.27746	0.54892	0.343
Mof_C 	C 	0.16652	0.30008	0.57756	-0.087
Mof_C 	C 	0.18545	0.32957	0.58877	-0.038
Mof_H 	H 	0.2059	0.3382	0.5791	0.057
Mof_C 	C 	0.1667	0.34354	0.61814	0.025
Mof_C 	C 	0.1377	0.32453	0.62744	-0.027
Mof_S 	S 	0.6299	0.79064	0.60091	0.04
Mof_O 	O 	0.65596	0.75411	0.54092	-0.357
Mof_O 	O 	0.7052	0.7817	0.53515	-0.39
Mof_C 	C 	0.67652	0.77746	0.54892	0.344
Mof_C 	C 	0.66652	0.80008	0.57756	-0.087
Mof_C 	C 	0.68545	0.82957	0.58877	-0.038
Mof_H 	H 	0.7059	0.8382	0.5791	0.057
Mof_C 	C 	0.6667	0.84354	0.61814	0.026
Mof_C 	C 	0.6377	0.82453	0.62744	-0.027
Mof_S 	S 	0.6299	0.29064	0.10091	0.038
Mof_O 	O 	0.65596	0.25411	0.04092	-0.358
Mof_O 	O 	0.7052	0.2817	0.03515	-0.389
Mof_C 	C 	0.67652	0.27746	0.04892	0.343
Mof_C 	C 	0.66652	0.30008	0.07756	-0.087
Mof_C 	C 	0.68545	0.32957	0.08877	-0.039
Mof_H 	H 	0.7059	0.3382	0.0791	0.057
Mof_C 	C 	0.6667	0.34354	0.11814	0.025
Mof_C 	C 	0.6377	0.32453	0.12744	-0.027
Mof_S 	S 	0.20936	0.10091	0.8701	0.039
Mof_O 	O 	0.24589	0.04092	0.84404	-0.357
Mof_O 	O 	0.2183	0.03515	0.7948	-0.389
Mof_C 	C 	0.22254	0.04892	0.82348	0.342
Mof_C 	C 	0.19992	0.07756	0.83348	-0.087
Mof_C 	C 	0.17043	0.08877	0.81455	-0.039
Mof_H 	H 	0.1618	0.0791	0.7941	0.057
Mof_C 	C 	0.15646	0.11814	0.8333	0.025
Mof_C 	C 	0.17547	0.12744	0.8623	-0.027
Mof_S 	S 	0.20936	0.60091	0.3701	0.039
Mof_O 	O 	0.24589	0.54092	0.34404	-0.357
Mof_O 	O 	0.2183	0.53515	0.2948	-0.39
Mof_C 	C 	0.22254	0.54892	0.32348	0.343
Mof_C 	C 	0.19992	0.57756	0.33348	-0.087
Mof_C 	C 	0.17043	0.58877	0.31455	-0.038
Mof_H 	H 	0.1618	0.5791	0.2941	0.057
Mof_C 	C 	0.15646	0.61814	0.3333	0.025
Mof_C 	C 	0.17547	0.62744	0.3623	-0.027
Mof_S 	S 	0.70936	0.10091	0.3701	0.038
Mof_O 	O 	0.74589	0.04092	0.34404	-0.358
Mof_O 	O 	0.7183	0.03515	0.2948	-0.389
Mof_C 	C 	0.72254	0.04892	0.32348	0.342
Mof_C 	C 	0.69992	0.07756	0.33348	-0.087
Mof_C 	C 	0.67043	0.08877	0.31455	-0.039
Mof_H 	H 	0.6618	0.0791	0.2941	0.057
Mof_C 	C 	0.65646	0.11814	0.3333	0.025
Mof_C 	C 	0.67547	0.12744	0.3623	-0.027
Mof_S 	S 	0.70936	0.60091	0.8701	0.041
Mof_O 	O 	0.74589	0.54092	0.84404	-0.357
Mof_O 	O 	0.7183	0.53515	0.7948	-0.39
Mof_C 	C 	0.72254	0.54892	0.82348	0.344
Mof_C 	C 	0.69992	0.57756	0.83348	-0.087
Mof_C 	C 	0.67043	0.58877	0.81455	-0.038
Mof_H 	H 	0.6618	0.5791	0.7941	0.057
Mof_C 	C 	0.65646	0.61814	0.8333	0.025
Mof_C 	C 	0.67547	0.62744	0.8623	-0.027
Mof_S 	S 	0.20936	0.89909	0.1299	0.04
Mof_O 	O 	0.24589	0.95908	0.15596	-0.351
Mof_O 	O 	0.2183	0.96485	0.2052	-0.381
Mof_C 	C 	0.22254	0.95108	0.17652	0.342
Mof_C 	C 	0.19992	0.92244	0.16652	-0.086
Mof_C 	C 	0.17043	0.91123	0.18545	-0.038
Mof_H 	H 	0.1618	0.9209	0.2059	0.058
Mof_C 	C 	0.15646	0.88186	0.1667	0.025
Mof_C 	C 	0.17547	0.87256	0.1377	-0.027
Mof_S 	S 	0.20936	0.39909	0.6299	0.039
Mof_O 	O 	0.24589	0.45908	0.65596	-0.357
Mof_O 	O 	0.2183	0.46485	0.7052	-0.39
Mof_C 	C 	0.22254	0.45108	0.67652	0.343
Mof_C 	C 	0.19992	0.42244	0.66652	-0.087
Mof_C 	C 	0.17043	0.41123	0.68545	-0.038
Mof_H 	H 	0.1618	0.4209	0.7059	0.057
Mof_C 	C 	0.15646	0.38186	0.6667	0.025
Mof_C 	C 	0.17547	0.37256	0.6377	-0.027
Mof_S 	S 	0.70936	0.89909	0.6299	0.041
Mof_O 	O 	0.74589	0.95908	0.65596	-0.35
Mof_O 	O 	0.7183	0.96485	0.7052	-0.381
Mof_C 	C 	0.72254	0.95108	0.67652	0.342
Mof_C 	C 	0.69992	0.92244	0.66652	-0.085
Mof_C 	C 	0.67043	0.91123	0.68545	-0.038
Mof_H 	H 	0.6618	0.9209	0.7059	0.058
Mof_C 	C 	0.65646	0.88186	0.6667	0.026
Mof_C 	C 	0.67547	0.87256	0.6377	-0.027
Mof_S 	S 	0.70936	0.39909	0.1299	0.038
Mof_O 	O 	0.74589	0.45908	0.15596	-0.358
Mof_O 	O 	0.7183	0.46485	0.2052	-0.39
Mof_C 	C 	0.72254	0.45108	0.17652	0.343
Mof_C 	C 	0.69992	0.42244	0.16652	-0.087
Mof_C 	C 	0.67043	0.41123	0.18545	-0.038
Mof_H 	H 	0.6618	0.4209	0.2059	0.057
Mof_C 	C 	0.65646	0.38186	0.1667	0.025
Mof_C 	C 	0.67547	0.37256	0.1377	-0.027
Mof_S 	S 	0.79064	0.10091	0.1299	0.037
Mof_O 	O 	0.75411	0.04092	0.15596	-0.358
Mof_O 	O 	0.7817	0.03515	0.2052	-0.389
Mof_C 	C 	0.77746	0.04892	0.17652	0.343
Mof_C 	C 	0.80008	0.07756	0.16652	-0.087
Mof_C 	C 	0.82957	0.08877	0.18545	-0.039
Mof_H 	H 	0.8382	0.0791	0.2059	0.057
Mof_C 	C 	0.84354	0.11814	0.1667	0.025
Mof_C 	C 	0.82453	0.12744	0.1377	-0.027
Mof_S 	S 	0.79064	0.60091	0.6299	0.04
Mof_O 	O 	0.75411	0.54092	0.65596	-0.357
Mof_O 	O 	0.7817	0.53515	0.7052	-0.39
Mof_C 	C 	0.77746	0.54892	0.67652	0.344
Mof_C 	C 	0.80008	0.57756	0.66652	-0.087
Mof_C 	C 	0.82957	0.58877	0.68545	-0.038
Mof_H 	H 	0.8382	0.5791	0.7059	0.057
Mof_C 	C 	0.84354	0.61814	0.6667	0.026
Mof_C 	C 	0.82453	0.62744	0.6377	-0.027
Mof_S 	S 	0.29064	0.10091	0.6299	0.038
Mof_O 	O 	0.25411	0.04092	0.65596	-0.358
Mof_O 	O 	0.2817	0.03515	0.7052	-0.389
Mof_C 	C 	0.27746	0.04892	0.67652	0.343
Mof_C 	C 	0.30008	0.07756	0.66652	-0.087
Mof_C 	C 	0.32957	0.08877	0.68545	-0.039
Mof_H 	H 	0.3382	0.0791	0.7059	0.057
Mof_C 	C 	0.34354	0.11814	0.6667	0.025
Mof_C 	C 	0.32453	0.12744	0.6377	-0.027
Mof_S 	S 	0.29064	0.60091	0.1299	0.038
Mof_O 	O 	0.25411	0.54092	0.15596	-0.358
Mof_O 	O 	0.2817	0.53515	0.2052	-0.39
Mof_C 	C 	0.27746	0.54892	0.17652	0.343
Mof_C 	C 	0.30008	0.57756	0.16652	-0.087
Mof_C 	C 	0.32957	0.58877	0.18545	-0.038
Mof_H 	H 	0.3382	0.5791	0.2059	0.057
Mof_C 	C 	0.34354	0.61814	0.1667	0.025
Mof_C 	C 	0.32453	0.62744	0.1377	-0.027
Mof_S 	S 	0.79064	0.89909	0.8701	0.043
Mof_O 	O 	0.75411	0.95908	0.84404	-0.349
Mof_O 	O 	0.7817	0.96485	0.7948	-0.381
Mof_C 	C 	0.77746	0.95108	0.82348	0.342
Mof_C 	C 	0.80008	0.92244	0.83348	-0.085
Mof_C 	C 	0.82957	0.91123	0.81455	-0.038
Mof_H 	H 	0.8382	0.9209	0.7941	0.058
Mof_C 	C 	0.84354	0.88186	0.8333	0.027
Mof_C 	C 	0.82453	0.87256	0.8623	-0.027
Mof_S 	S 	0.79064	0.39909	0.3701	0.04
Mof_O 	O 	0.75411	0.45908	0.34404	-0.357
Mof_O 	O 	0.7817	0.46485	0.2948	-0.39
Mof_C 	C 	0.77746	0.45108	0.32348	0.344
Mof_C 	C 	0.80008	0.42244	0.33348	-0.087
Mof_C 	C 	0.82957	0.41123	0.31455	-0.038
Mof_H 	H 	0.8382	0.4209	0.2941	0.057
Mof_C 	C 	0.84354	0.38186	0.3333	0.026
Mof_C 	C 	0.82453	0.37256	0.3623	-0.027
Mof_S 	S 	0.29064	0.89909	0.3701	0.041
Mof_O 	O 	0.25411	0.95908	0.34404	-0.35
Mof_O 	O 	0.2817	0.96485	0.2948	-0.381
Mof_C 	C 	0.27746	0.95108	0.32348	0.342
Mof_C 	C 	0.30008	0.92244	0.33348	-0.085
Mof_C 	C 	0.32957	0.91123	0.31455	-0.038
Mof_H 	H 	0.3382	0.9209	0.2941	0.058
Mof_C 	C 	0.34354	0.88186	0.3333	0.026
Mof_C 	C 	0.32453	0.87256	0.3623	-0.027
Mof_S 	S 	0.29064	0.39909	0.8701	0.041
Mof_O 	O 	0.25411	0.45908	0.84404	-0.357
Mof_O 	O 	0.2817	0.46485	0.7948	-0.39
Mof_C 	C 	0.27746	0.45108	0.82348	0.344
Mof_C 	C 	0.30008	0.42244	0.83348	-0.087
Mof_C 	C 	0.32957	0.41123	0.81455	-0.038
Mof_H 	H 	0.3382	0.4209	0.7941	0.057
Mof_C 	C 	0.34354	0.38186	0.8333	0.026
Mof_C 	C 	0.32453	0.37256	0.8623	-0.027
Mof_S 	S 	0.3701	0.39909	0.29064	0.04
Mof_O 	O 	0.34404	0.45908	0.25411	-0.357
Mof_O 	O 	0.2948	0.46485	0.2817	-0.39
Mof_C 	C 	0.32348	0.45108	0.27746	0.344
Mof_C 	C 	0.33348	0.42244	0.30008	-0.087
Mof_C 	C 	0.31455	0.41123	0.32957	-0.038
Mof_H 	H 	0.2941	0.4209	0.3382	0.057
Mof_C 	C 	0.3333	0.38186	0.34354	0.025
Mof_C 	C 	0.3623	0.37256	0.32453	-0.027
Mof_S 	S 	0.3701	0.89909	0.79064	0.042
Mof_O 	O 	0.34404	0.95908	0.75411	-0.35
Mof_O 	O 	0.2948	0.96485	0.7817	-0.381
Mof_C 	C 	0.32348	0.95108	0.77746	0.342
Mof_C 	C 	0.33348	0.92244	0.80008	-0.085
Mof_C 	C 	0.31455	0.91123	0.82957	-0.038
Mof_H 	H 	0.2941	0.9209	0.8382	0.058
Mof_C 	C 	0.3333	0.88186	0.84354	0.026
Mof_C 	C 	0.3623	0.87256	0.82453	-0.027
Mof_S 	S 	0.8701	0.39909	0.79064	0.042
Mof_O 	O 	0.84404	0.45908	0.75411	-0.357
Mof_O 	O 	0.7948	0.46485	0.7817	-0.39
Mof_C 	C 	0.82348	0.45108	0.77746	0.344
Mof_C 	C 	0.83348	0.42244	0.80008	-0.087
Mof_C 	C 	0.81455	0.41123	0.82957	-0.038
Mof_H 	H 	0.7941	0.4209	0.8382	0.057
Mof_C 	C 	0.8333	0.38186	0.84354	0.026
Mof_C 	C 	0.8623	0.37256	0.82453	-0.027
Mof_S 	S 	0.8701	0.89909	0.29064	0.043
Mof_O 	O 	0.84404	0.95908	0.25411	-0.349
Mof_O 	O 	0.7948	0.96485	0.2817	-0.381
Mof_C 	C 	0.82348	0.95108	0.27746	0.342
Mof_C 	C 	0.83348	0.92244	0.30008	-0.085
Mof_C 	C 	0.81455	0.91123	0.32957	-0.038
Mof_H 	H 	0.7941	0.9209	0.3382	0.058
Mof_C 	C 	0.8333	0.88186	0.34354	0.026
Mof_C 	C 	0.8623	0.87256	0.32453	-0.027
Mof_S 	S 	0.6299	0.60091	0.29064	0.039
Mof_O 	O 	0.65596	0.54092	0.25411	-0.357
Mof_O 	O 	0.7052	0.53515	0.2817	-0.39
Mof_C 	C 	0.67652	0.54892	0.27746	0.344
Mof_C 	C 	0.66652	0.57756	0.30008	-0.087
Mof_C 	C 	0.68545	0.58877	0.32957	-0.038
Mof_H 	H 	0.7059	0.5791	0.3382	0.057
Mof_C 	C 	0.6667	0.61814	0.34354	0.025
Mof_C 	C 	0.6377	0.62744	0.32453	-0.027
Mof_S 	S 	0.6299	0.10091	0.79064	0.038
Mof_O 	O 	0.65596	0.04092	0.75411	-0.358
Mof_O 	O 	0.7052	0.03515	0.7817	-0.389
Mof_C 	C 	0.67652	0.04892	0.77746	0.343
Mof_C 	C 	0.66652	0.07756	0.80008	-0.087
Mof_C 	C 	0.68545	0.08877	0.82957	-0.039
Mof_H 	H 	0.7059	0.0791	0.8382	0.057
Mof_C 	C 	0.6667	0.11814	0.84354	0.025
Mof_C 	C 	0.6377	0.12744	0.82453	-0.027
Mof_S 	S 	0.1299	0.60091	0.79064	0.039
Mof_O 	O 	0.15596	0.54092	0.75411	-0.358
Mof_O 	O 	0.2052	0.53515	0.7817	-0.39
Mof_C 	C 	0.17652	0.54892	0.77746	0.344
Mof_C 	C 	0.16652	0.57756	0.80008	-0.087
Mof_C 	C 	0.18545	0.58877	0.82957	-0.038
Mof_H 	H 	0.2059	0.5791	0.8382	0.057
Mof_C 	C 	0.1667	0.61814	0.84354	0.025
Mof_C 	C 	0.1377	0.62744	0.82453	-0.027
Mof_S 	S 	0.1299	0.10091	0.29064	0.037
Mof_O 	O 	0.15596	0.04092	0.25411	-0.359
Mof_O 	O 	0.2052	0.03515	0.2817	-0.389
Mof_C 	C 	0.17652	0.04892	0.27746	0.342
Mof_C 	C 	0.16652	0.07756	0.30008	-0.087
Mof_C 	C 	0.18545	0.08877	0.32957	-0.039
Mof_H 	H 	0.2059	0.0791	0.3382	0.057
Mof_C 	C 	0.1667	0.11814	0.34354	0.024
Mof_C 	C 	0.1377	0.12744	0.32453	-0.027
Mof_S 	S 	0.6299	0.39909	0.70936	0.039
Mof_O 	O 	0.65596	0.45908	0.74589	-0.357
Mof_O 	O 	0.7052	0.46485	0.7183	-0.39
Mof_C 	C 	0.67652	0.45108	0.72254	0.343
Mof_C 	C 	0.66652	0.42244	0.69992	-0.087
Mof_C 	C 	0.68545	0.41123	0.67043	-0.038
Mof_H 	H 	0.7059	0.4209	0.6618	0.057
Mof_C 	C 	0.6667	0.38186	0.65646	0.025
Mof_C 	C 	0.6377	0.37256	0.67547	-0.027
Mof_S 	S 	0.6299	0.89909	0.20936	0.041
Mof_O 	O 	0.65596	0.95908	0.24589	-0.35
Mof_O 	O 	0.7052	0.96485	0.2183	-0.381
Mof_C 	C 	0.67652	0.95108	0.22254	0.342
Mof_C 	C 	0.66652	0.92244	0.19992	-0.086
Mof_C 	C 	0.68545	0.91123	0.17043	-0.038
Mof_H 	H 	0.7059	0.9209	0.1618	0.058
Mof_C 	C 	0.6667	0.88186	0.15646	0.026
Mof_C 	C 	0.6377	0.87256	0.17547	-0.027
Mof_S 	S 	0.1299	0.39909	0.20936	0.038
Mof_O 	O 	0.15596	0.45908	0.24589	-0.358
Mof_O 	O 	0.2052	0.46485	0.2183	-0.39
Mof_C 	C 	0.17652	0.45108	0.22254	0.343
Mof_C 	C 	0.16652	0.42244	0.19992	-0.087
Mof_C 	C 	0.18545	0.41123	0.17043	-0.038
Mof_H 	H 	0.2059	0.4209	0.1618	0.056
Mof_C 	C 	0.1667	0.38186	0.15646	0.025
Mof_C 	C 	0.1377	0.37256	0.17547	-0.027
Mof_S 	S 	0.1299	0.89909	0.70936	0.04
Mof_O 	O 	0.15596	0.95908	0.74589	-0.35
Mof_O 	O 	0.2052	0.96485	0.7183	-0.381
Mof_C 	C 	0.17652	0.95108	0.72254	0.342
Mof_C 	C 	0.16652	0.92244	0.69992	-0.086
Mof_C 	C 	0.18545	0.91123	0.67043	-0.038
Mof_H 	H 	0.2059	0.9209	0.6618	0.058
Mof_C 	C 	0.1667	0.88186	0.65646	0.026
Mof_C 	C 	0.1377	0.87256	0.67547	-0.027
Mof_S 	S 	0.3701	0.60091	0.70936	0.039
Mof_O 	O 	0.34404	0.54092	0.74589	-0.357
Mof_O 	O 	0.2948	0.53515	0.7183	-0.39
Mof_C 	C 	0.32348	0.54892	0.72254	0.343
Mof_C 	C 	0.33348	0.57756	0.69992	-0.087
Mof_C 	C 	0.31455	0.58877	0.67043	-0.038
Mof_H 	H 	0.2941	0.5791	0.6618	0.057
Mof_C 	C 	0.3333	0.61814	0.65646	0.025
Mof_C 	C 	0.3623	0.62744	0.67547	-0.027
Mof_S 	S 	0.3701	0.10091	0.20936	0.038
Mof_O 	O 	0.34404	0.04092	0.24589	-0.358
Mof_O 	O 	0.2948	0.03515	0.2183	-0.389
Mof_C 	C 	0.32348	0.04892	0.22254	0.342
Mof_C 	C 	0.33348	0.07756	0.19992	-0.087
Mof_C 	C 	0.31455	0.08877	0.17043	-0.039
Mof_H 	H 	0.2941	0.0791	0.1618	0.056
Mof_C 	C 	0.3333	0.11814	0.15646	0.024
Mof_C 	C 	0.3623	0.12744	0.17547	-0.027
Mof_S 	S 	0.8701	0.60091	0.20936	0.041
Mof_O 	O 	0.84404	0.54092	0.24589	-0.357
Mof_O 	O 	0.7948	0.53515	0.2183	-0.39
Mof_C 	C 	0.82348	0.54892	0.22254	0.343
Mof_C 	C 	0.83348	0.57756	0.19992	-0.087
Mof_C 	C 	0.81455	0.58877	0.17043	-0.038
Mof_H 	H 	0.7941	0.5791	0.1618	0.057
Mof_C 	C 	0.8333	0.61814	0.15646	0.025
Mof_C 	C 	0.8623	0.62744	0.17547	-0.027
Mof_S 	S 	0.8701	0.10091	0.70936	0.04
Mof_O 	O 	0.84404	0.04092	0.74589	-0.357
Mof_O 	O 	0.7948	0.03515	0.7183	-0.389
Mof_C 	C 	0.82348	0.04892	0.72254	0.342
Mof_C 	C 	0.83348	0.07756	0.69992	-0.087
Mof_C 	C 	0.81455	0.08877	0.67043	-0.039
Mof_H 	H 	0.7941	0.0791	0.6618	0.057
Mof_C 	C 	0.8333	0.11814	0.65646	0.025
Mof_C 	C 	0.8623	0.12744	0.67547	-0.027
Mof_S 	S 	0.29064	0.3701	0.39909	0.04
Mof_O 	O 	0.25411	0.34404	0.45908	-0.357
Mof_O 	O 	0.2817	0.2948	0.46485	-0.39
Mof_C 	C 	0.27746	0.32348	0.45108	0.344
Mof_C 	C 	0.30008	0.33348	0.42244	-0.087
Mof_C 	C 	0.32957	0.31455	0.41123	-0.038
Mof_H 	H 	0.3382	0.2941	0.4209	0.057
Mof_C 	C 	0.34354	0.3333	0.38186	0.025
Mof_C 	C 	0.32453	0.3623	0.37256	-0.027
Mof_S 	S 	0.29064	0.8701	0.89909	0.043
Mof_O 	O 	0.25411	0.84404	0.95908	-0.349
Mof_O 	O 	0.2817	0.7948	0.96485	-0.381
Mof_C 	C 	0.27746	0.82348	0.95108	0.342
Mof_C 	C 	0.30008	0.83348	0.92244	-0.085
Mof_C 	C 	0.32957	0.81455	0.91123	-0.038
Mof_H 	H 	0.3382	0.7941	0.9209	0.058
Mof_C 	C 	0.34354	0.8333	0.88186	0.026
Mof_C 	C 	0.32453	0.8623	0.87256	-0.027
Mof_S 	S 	0.79064	0.3701	0.89909	0.042
Mof_O 	O 	0.75411	0.34404	0.95908	-0.35
Mof_O 	O 	0.7817	0.2948	0.96485	-0.381
Mof_C 	C 	0.77746	0.32348	0.95108	0.342
Mof_C 	C 	0.80008	0.33348	0.92244	-0.085
Mof_C 	C 	0.82957	0.31455	0.91123	-0.038
Mof_H 	H 	0.8382	0.2941	0.9209	0.058
Mof_C 	C 	0.84354	0.3333	0.88186	0.026
Mof_C 	C 	0.82453	0.3623	0.87256	-0.027
Mof_S 	S 	0.79064	0.8701	0.39909	0.042
Mof_O 	O 	0.75411	0.84404	0.45908	-0.357
Mof_O 	O 	0.7817	0.7948	0.46485	-0.39
Mof_C 	C 	0.77746	0.82348	0.45108	0.344
Mof_C 	C 	0.80008	0.83348	0.42244	-0.087
Mof_C 	C 	0.82957	0.81455	0.41123	-0.038
Mof_H 	H 	0.8382	0.7941	0.4209	0.057
Mof_C 	C 	0.84354	0.8333	0.38186	0.026
Mof_C 	C 	0.82453	0.8623	0.37256	-0.027
Mof_S 	S 	0.29064	0.6299	0.60091	0.039
Mof_O 	O 	0.25411	0.65596	0.54092	-0.357
Mof_O 	O 	0.2817	0.7052	0.53515	-0.39
Mof_C 	C 	0.27746	0.67652	0.54892	0.344
Mof_C 	C 	0.30008	0.66652	0.57756	-0.087
Mof_C 	C 	0.32957	0.68545	0.58877	-0.038
Mof_H 	H 	0.3382	0.7059	0.5791	0.057
Mof_C 	C 	0.34354	0.6667	0.61814	0.025
Mof_C 	C 	0.32453	0.6377	0.62744	-0.027
Mof_S 	S 	0.29064	0.1299	0.10091	0.037
Mof_O 	O 	0.25411	0.15596	0.04092	-0.359
Mof_O 	O 	0.2817	0.2052	0.03515	-0.389
Mof_C 	C 	0.27746	0.17652	0.04892	0.342
Mof_C 	C 	0.30008	0.16652	0.07756	-0.087
Mof_C 	C 	0.32957	0.18545	0.08877	-0.039
Mof_H 	H 	0.3382	0.2059	0.0791	0.057
Mof_C 	C 	0.34354	0.1667	0.11814	0.024
Mof_C 	C 	0.32453	0.1377	0.12744	-0.027
Mof_S 	S 	0.79064	0.6299	0.10091	0.038
Mof_O 	O 	0.75411	0.65596	0.04092	-0.358
Mof_O 	O 	0.7817	0.7052	0.03515	-0.389
Mof_C 	C 	0.77746	0.67652	0.04892	0.343
Mof_C 	C 	0.80008	0.66652	0.07756	-0.087
Mof_C 	C 	0.82957	0.68545	0.08877	-0.039
Mof_H 	H 	0.8382	0.7059	0.0791	0.057
Mof_C 	C 	0.84354	0.6667	0.11814	0.025
Mof_C 	C 	0.82453	0.6377	0.12744	-0.027
Mof_S 	S 	0.79064	0.1299	0.60091	0.039
Mof_O 	O 	0.75411	0.15596	0.54092	-0.358
Mof_O 	O 	0.7817	0.2052	0.53515	-0.39
Mof_C 	C 	0.77746	0.17652	0.54892	0.344
Mof_C 	C 	0.80008	0.16652	0.57756	-0.087
Mof_C 	C 	0.82957	0.18545	0.58877	-0.038
Mof_H 	H 	0.8382	0.2059	0.5791	0.057
Mof_C 	C 	0.84354	0.1667	0.61814	0.025
Mof_C 	C 	0.82453	0.1377	0.62744	-0.027
Mof_S 	S 	0.70936	0.6299	0.39909	0.039
Mof_O 	O 	0.74589	0.65596	0.45908	-0.357
Mof_O 	O 	0.7183	0.7052	0.46485	-0.39
Mof_C 	C 	0.72254	0.67652	0.45108	0.343
Mof_C 	C 	0.69992	0.66652	0.42244	-0.087
Mof_C 	C 	0.67043	0.68545	0.41123	-0.038
Mof_H 	H 	0.6618	0.7059	0.4209	0.057
Mof_C 	C 	0.65646	0.6667	0.38186	0.025
Mof_C 	C 	0.67547	0.6377	0.37256	-0.027
Mof_S 	S 	0.70936	0.1299	0.89909	0.04
Mof_O 	O 	0.74589	0.15596	0.95908	-0.35
Mof_O 	O 	0.7183	0.2052	0.96485	-0.381
Mof_C 	C 	0.72254	0.17652	0.95108	0.342
Mof_C 	C 	0.69992	0.16652	0.92244	-0.086
Mof_C 	C 	0.67043	0.18545	0.91123	-0.038
Mof_H 	H 	0.6618	0.2059	0.9209	0.058
Mof_C 	C 	0.65646	0.1667	0.88186	0.026
Mof_C 	C 	0.67547	0.1377	0.87256	-0.027
Mof_S 	S 	0.20936	0.6299	0.89909	0.041
Mof_O 	O 	0.24589	0.65596	0.95908	-0.35
Mof_O 	O 	0.2183	0.7052	0.96485	-0.381
Mof_C 	C 	0.22254	0.67652	0.95108	0.342
Mof_C 	C 	0.19992	0.66652	0.92244	-0.086
Mof_C 	C 	0.17043	0.68545	0.91123	-0.038
Mof_H 	H 	0.1618	0.7059	0.9209	0.058
Mof_C 	C 	0.15646	0.6667	0.88186	0.026
Mof_C 	C 	0.17547	0.6377	0.87256	-0.027
Mof_S 	S 	0.20936	0.1299	0.39909	0.038
Mof_O 	O 	0.24589	0.15596	0.45908	-0.358
Mof_O 	O 	0.2183	0.2052	0.46485	-0.39
Mof_C 	C 	0.22254	0.17652	0.45108	0.343
Mof_C 	C 	0.19992	0.16652	0.42244	-0.087
Mof_C 	C 	0.17043	0.18545	0.41123	-0.038
Mof_H 	H 	0.1618	0.2059	0.4209	0.056
Mof_C 	C 	0.15646	0.1667	0.38186	0.025
Mof_C 	C 	0.17547	0.1377	0.37256	-0.027
Mof_S 	S 	0.70936	0.3701	0.60091	0.039
Mof_O 	O 	0.74589	0.34404	0.54092	-0.357
Mof_O 	O 	0.7183	0.2948	0.53515	-0.39
Mof_C 	C 	0.72254	0.32348	0.54892	0.343
Mof_C 	C 	0.69992	0.33348	0.57756	-0.087
Mof_C 	C 	0.67043	0.31455	0.58877	-0.038
Mof_H 	H 	0.6618	0.2941	0.5791	0.057
Mof_C 	C 	0.65646	0.3333	0.61814	0.025
Mof_C 	C 	0.67547	0.3623	0.62744	-0.027
Mof_S 	S 	0.70936	0.8701	0.10091	0.04
Mof_O 	O 	0.74589	0.84404	0.04092	-0.357
Mof_O 	O 	0.7183	0.7948	0.03515	-0.389
Mof_C 	C 	0.72254	0.82348	0.04892	0.342
Mof_C 	C 	0.69992	0.83348	0.07756	-0.087
Mof_C 	C 	0.67043	0.81455	0.08877	-0.039
Mof_H 	H 	0.6618	0.7941	0.0791	0.057
Mof_C 	C 	0.65646	0.8333	0.11814	0.025
Mof_C 	C 	0.67547	0.8623	0.12744	-0.027
Mof_S 	S 	0.20936	0.3701	0.10091	0.038
Mof_O 	O 	0.24589	0.34404	0.04092	-0.358
Mof_O 	O 	0.2183	0.2948	0.03515	-0.389
Mof_C 	C 	0.22254	0.32348	0.04892	0.342
Mof_C 	C 	0.19992	0.33348	0.07756	-0.087
Mof_C 	C 	0.17043	0.31455	0.08877	-0.039
Mof_H 	H 	0.1618	0.2941	0.0791	0.056
Mof_C 	C 	0.15646	0.3333	0.11814	0.024
Mof_C 	C 	0.17547	0.3623	0.12744	-0.027
Mof_S 	S 	0.20936	0.8701	0.60091	0.041
Mof_O 	O 	0.24589	0.84404	0.54092	-0.357
Mof_O 	O 	0.2183	0.7948	0.53515	-0.39
Mof_C 	C 	0.22254	0.82348	0.54892	0.343
Mof_C 	C 	0.19992	0.83348	0.57756	-0.087
Mof_C 	C 	0.17043	0.81455	0.58877	-0.038
Mof_H 	H 	0.1618	0.7941	0.5791	0.057
Mof_C 	C 	0.15646	0.8333	0.61814	0.025
Mof_C 	C 	0.17547	0.8623	0.62744	-0.027
Mof_S 	S 	0.39909	0.29064	0.3701	0.04
Mof_O 	O 	0.45908	0.25411	0.34404	-0.357
Mof_O 	O 	0.46485	0.2817	0.2948	-0.39
Mof_C 	C 	0.45108	0.27746	0.32348	0.344
Mof_C 	C 	0.42244	0.30008	0.33348	-0.087
Mof_C 	C 	0.41123	0.32957	0.31455	-0.038
Mof_H 	H 	0.4209	0.3382	0.2941	0.057
Mof_C 	C 	0.38186	0.34354	0.3333	0.025
Mof_C 	C 	0.37256	0.32453	0.3623	-0.027
Mof_S 	S 	0.39909	0.79064	0.8701	0.042
Mof_O 	O 	0.45908	0.75411	0.84404	-0.357
Mof_O 	O 	0.46485	0.7817	0.7948	-0.39
Mof_C 	C 	0.45108	0.77746	0.82348	0.344
Mof_C 	C 	0.42244	0.80008	0.83348	-0.087
Mof_C 	C 	0.41123	0.82957	0.81455	-0.038
Mof_H 	H 	0.4209	0.8382	0.7941	0.057
Mof_C 	C 	0.38186	0.84354	0.8333	0.026
Mof_C 	C 	0.37256	0.82453	0.8623	-0.027
Mof_S 	S 	0.89909	0.29064	0.8701	0.043
Mof_O 	O 	0.95908	0.25411	0.84404	-0.349
Mof_O 	O 	0.96485	0.2817	0.7948	-0.381
Mof_C 	C 	0.95108	0.27746	0.82348	0.342
Mof_C 	C 	0.92244	0.30008	0.83348	-0.085
Mof_C 	C 	0.91123	0.32957	0.81455	-0.038
Mof_H 	H 	0.9209	0.3382	0.7941	0.058
Mof_C 	C 	0.88186	0.34354	0.8333	0.026
Mof_C 	C 	0.87256	0.32453	0.8623	-0.027
Mof_S 	S 	0.89909	0.79064	0.3701	0.042
Mof_O 	O 	0.95908	0.75411	0.34404	-0.35
Mof_O 	O 	0.96485	0.7817	0.2948	-0.381
Mof_C 	C 	0.95108	0.77746	0.32348	0.342
Mof_C 	C 	0.92244	0.80008	0.33348	-0.085
Mof_C 	C 	0.91123	0.82957	0.31455	-0.038
Mof_H 	H 	0.9209	0.8382	0.2941	0.058
Mof_C 	C 	0.88186	0.84354	0.3333	0.026
Mof_C 	C 	0.87256	0.82453	0.3623	-0.027
Mof_S 	S 	0.60091	0.29064	0.6299	0.039
Mof_O 	O 	0.54092	0.25411	0.65596	-0.357
Mof_O 	O 	0.53515	0.2817	0.7052	-0.39
Mof_C 	C 	0.54892	0.27746	0.67652	0.344
Mof_C 	C 	0.57756	0.30008	0.66652	-0.087
Mof_C 	C 	0.58877	0.32957	0.68545	-0.038
Mof_H 	H 	0.5791	0.3382	0.7059	0.057
Mof_C 	C 	0.61814	0.34354	0.6667	0.025
Mof_C 	C 	0.62744	0.32453	0.6377	-0.027
Mof_S 	S 	0.60091	0.79064	0.1299	0.039
Mof_O 	O 	0.54092	0.75411	0.15596	-0.358
Mof_O 	O 	0.53515	0.7817	0.2052	-0.39
Mof_C 	C 	0.54892	0.77746	0.17652	0.344
Mof_C 	C 	0.57756	0.80008	0.16652	-0.087
Mof_C 	C 	0.58877	0.82957	0.18545	-0.038
Mof_H 	H 	0.5791	0.8382	0.2059	0.057
Mof_C 	C 	0.61814	0.84354	0.1667	0.025
Mof_C 	C 	0.62744	0.82453	0.1377	-0.027
Mof_S 	S 	0.10091	0.29064	0.1299	0.037
Mof_O 	O 	0.04092	0.25411	0.15596	-0.359
Mof_O 	O 	0.03515	0.2817	0.2052	-0.389
Mof_C 	C 	0.04892	0.27746	0.17652	0.342
Mof_C 	C 	0.07756	0.30008	0.16652	-0.087
Mof_C 	C 	0.08877	0.32957	0.18545	-0.039
Mof_H 	H 	0.0791	0.3382	0.2059	0.057
Mof_C 	C 	0.11814	0.34354	0.1667	0.024
Mof_C 	C 	0.12744	0.32453	0.1377	-0.027
Mof_S 	S 	0.10091	0.79064	0.6299	0.038
Mof_O 	O 	0.04092	0.75411	0.65596	-0.358
Mof_O 	O 	0.03515	0.7817	0.7052	-0.389
Mof_C 	C 	0.04892	0.77746	0.67652	0.343
Mof_C 	C 	0.07756	0.80008	0.66652	-0.087
Mof_C 	C 	0.08877	0.82957	0.68545	-0.039
Mof_H 	H 	0.0791	0.8382	0.7059	0.057
Mof_C 	C 	0.11814	0.84354	0.6667	0.025
Mof_C 	C 	0.12744	0.82453	0.6377	-0.027
Mof_S 	S 	0.39909	0.70936	0.6299	0.039
Mof_O 	O 	0.45908	0.74589	0.65596	-0.357
Mof_O 	O 	0.46485	0.7183	0.7052	-0.39
Mof_C 	C 	0.45108	0.72254	0.67652	0.343
Mof_C 	C 	0.42244	0.69992	0.66652	-0.087
Mof_C 	C 	0.41123	0.67043	0.68545	-0.038
Mof_H 	H 	0.4209	0.6618	0.7059	0.057
Mof_C 	C 	0.38186	0.65646	0.6667	0.025
Mof_C 	C 	0.37256	0.67547	0.6377	-0.027
Mof_S 	S 	0.39909	0.20936	0.1299	0.038
Mof_O 	O 	0.45908	0.24589	0.15596	-0.358
Mof_O 	O 	0.46485	0.2183	0.2052	-0.39
Mof_C 	C 	0.45108	0.22254	0.17652	0.343
Mof_C 	C 	0.42244	0.19992	0.16652	-0.087
Mof_C 	C 	0.41123	0.17043	0.18545	-0.038
Mof_H 	H 	0.4209	0.1618	0.2059	0.056
Mof_C 	C 	0.38186	0.15646	0.1667	0.025
Mof_C 	C 	0.37256	0.17547	0.1377	-0.027
Mof_S 	S 	0.89909	0.70936	0.1299	0.04
Mof_O 	O 	0.95908	0.74589	0.15596	-0.35
Mof_O 	O 	0.96485	0.7183	0.2052	-0.381
Mof_C 	C 	0.95108	0.72254	0.17652	0.342
Mof_C 	C 	0.92244	0.69992	0.16652	-0.086
Mof_C 	C 	0.91123	0.67043	0.18545	-0.038
Mof_H 	H 	0.9209	0.6618	0.2059	0.058
Mof_C 	C 	0.88186	0.65646	0.1667	0.026
Mof_C 	C 	0.87256	0.67547	0.1377	-0.027
Mof_S 	S 	0.89909	0.20936	0.6299	0.041
Mof_O 	O 	0.95908	0.24589	0.65596	-0.35
Mof_O 	O 	0.96485	0.2183	0.7052	-0.381
Mof_C 	C 	0.95108	0.22254	0.67652	0.342
Mof_C 	C 	0.92244	0.19992	0.66652	-0.086
Mof_C 	C 	0.91123	0.17043	0.68545	-0.038
Mof_H 	H 	0.9209	0.1618	0.7059	0.058
Mof_C 	C 	0.88186	0.15646	0.6667	0.026
Mof_C 	C 	0.87256	0.17547	0.6377	-0.027
Mof_S 	S 	0.60091	0.70936	0.3701	0.039
Mof_O 	O 	0.54092	0.74589	0.34404	-0.357
Mof_O 	O 	0.53515	0.7183	0.2948	-0.39
Mof_C 	C 	0.54892	0.72254	0.32348	0.343
Mof_C 	C 	0.57756	0.69992	0.33348	-0.087
Mof_C 	C 	0.58877	0.67043	0.31455	-0.038
Mof_H 	H 	0.5791	0.6618	0.2941	0.057
Mof_C 	C 	0.61814	0.65646	0.3333	0.025
Mof_C 	C 	0.62744	0.67547	0.3623	-0.027
Mof_S 	S 	0.60091	0.20936	0.8701	0.041
Mof_O 	O 	0.54092	0.24589	0.84404	-0.357
Mof_O 	O 	0.53515	0.2183	0.7948	-0.39
Mof_C 	C 	0.54892	0.22254	0.82348	0.343
Mof_C 	C 	0.57756	0.19992	0.83348	-0.087
Mof_C 	C 	0.58877	0.17043	0.81455	-0.038
Mof_H 	H 	0.5791	0.1618	0.7941	0.057
Mof_C 	C 	0.61814	0.15646	0.8333	0.025
Mof_C 	C 	0.62744	0.17547	0.8623	-0.027
Mof_S 	S 	0.10091	0.70936	0.8701	0.04
Mof_O 	O 	0.04092	0.74589	0.84404	-0.357
Mof_O 	O 	0.03515	0.7183	0.7948	-0.389
Mof_C 	C 	0.04892	0.72254	0.82348	0.342
Mof_C 	C 	0.07756	0.69992	0.83348	-0.087
Mof_C 	C 	0.08877	0.67043	0.81455	-0.039
Mof_H 	H 	0.0791	0.6618	0.7941	0.057
Mof_C 	C 	0.11814	0.65646	0.8333	0.025
Mof_C 	C 	0.12744	0.67547	0.8623	-0.027
Mof_S 	S 	0.10091	0.20936	0.3701	0.038
Mof_O 	O 	0.04092	0.24589	0.34404	-0.358
Mof_O 	O 	0.03515	0.2183	0.2948	-0.389
Mof_C 	C 	0.04892	0.22254	0.32348	0.342
Mof_C 	C 	0.07756	0.19992	0.33348	-0.087
Mof_C 	C 	0.08877	0.17043	0.31455	-0.039
Mof_H 	H 	0.0791	0.1618	0.2941	0.056
Mof_C 	C 	0.11814	0.15646	0.3333	0.024
Mof_C 	C 	0.12744	0.17547	0.3623	-0.027
Mof_S 	S 	0.89909	0.8701	0.20936	0.043
Mof_O 	O 	0.95908	0.84404	0.24589	-0.349
Mof_O 	O 	0.96485	0.7948	0.2183	-0.381
Mof_C 	C 	0.95108	0.82348	0.22254	0.342
Mof_C 	C 	0.92244	0.83348	0.19992	-0.086
Mof_C 	C 	0.91123	0.81455	0.17043	-0.038
Mof_H 	H 	0.9209	0.7941	0.1618	0.058
Mof_C 	C 	0.88186	0.8333	0.15646	0.026
Mof_C 	C 	0.87256	0.8623	0.17547	-0.027
Mof_S 	S 	0.89909	0.3701	0.70936	0.041
Mof_O 	O 	0.95908	0.34404	0.74589	-0.35
Mof_O 	O 	0.96485	0.2948	0.7183	-0.381
Mof_C 	C 	0.95108	0.32348	0.72254	0.342
Mof_C 	C 	0.92244	0.33348	0.69992	-0.085
Mof_C 	C 	0.91123	0.31455	0.67043	-0.038
Mof_H 	H 	0.9209	0.2941	0.6618	0.058
Mof_C 	C 	0.88186	0.3333	0.65646	0.026
Mof_C 	C 	0.87256	0.3623	0.67547	-0.027
Mof_S 	S 	0.39909	0.8701	0.70936	0.041
Mof_O 	O 	0.45908	0.84404	0.74589	-0.357
Mof_O 	O 	0.46485	0.7948	0.7183	-0.39
Mof_C 	C 	0.45108	0.82348	0.72254	0.344
Mof_C 	C 	0.42244	0.83348	0.69992	-0.087
Mof_C 	C 	0.41123	0.81455	0.67043	-0.038
Mof_H 	H 	0.4209	0.7941	0.6618	0.057
Mof_C 	C 	0.38186	0.8333	0.65646	0.025
Mof_C 	C 	0.37256	0.8623	0.67547	-0.027
Mof_S 	S 	0.39909	0.3701	0.20936	0.039
Mof_O 	O 	0.45908	0.34404	0.24589	-0.357
Mof_O 	O 	0.46485	0.2948	0.2183	-0.39
Mof_C 	C 	0.45108	0.32348	0.22254	0.343
Mof_C 	C 	0.42244	0.33348	0.19992	-0.087
Mof_C 	C 	0.41123	0.31455	0.17043	-0.038
Mof_H 	H 	0.4209	0.2941	0.1618	0.057
Mof_C 	C 	0.38186	0.3333	0.15646	0.025
Mof_C 	C 	0.37256	0.3623	0.17547	-0.027
Mof_S 	S 	0.10091	0.1299	0.20936	0.036
Mof_O 	O 	0.04092	0.15596	0.24589	-0.359
Mof_O 	O 	0.03515	0.2052	0.2183	-0.389
Mof_C 	C 	0.04892	0.17652	0.22254	0.342
Mof_C 	C 	0.07756	0.16652	0.19992	-0.087
Mof_C 	C 	0.08877	0.18545	0.17043	-0.039
Mof_H 	H 	0.0791	0.2059	0.1618	0.056
Mof_C 	C 	0.11814	0.1667	0.15646	0.024
Mof_C 	C 	0.12744	0.1377	0.17547	-0.027
Mof_S 	S 	0.10091	0.6299	0.70936	0.038
Mof_O 	O 	0.04092	0.65596	0.74589	-0.358
Mof_O 	O 	0.03515	0.7052	0.7183	-0.389
Mof_C 	C 	0.04892	0.67652	0.72254	0.342
Mof_C 	C 	0.07756	0.66652	0.69992	-0.087
Mof_C 	C 	0.08877	0.68545	0.67043	-0.039
Mof_H 	H 	0.0791	0.7059	0.6618	0.057
Mof_C 	C 	0.11814	0.6667	0.65646	0.025
Mof_C 	C 	0.12744	0.6377	0.67547	-0.027
Mof_S 	S 	0.60091	0.1299	0.70936	0.038
Mof_O 	O 	0.54092	0.15596	0.74589	-0.358
Mof_O 	O 	0.53515	0.2052	0.7183	-0.39
Mof_C 	C 	0.54892	0.17652	0.72254	0.343
Mof_C 	C 	0.57756	0.16652	0.69992	-0.087
Mof_C 	C 	0.58877	0.18545	0.67043	-0.038
Mof_H 	H 	0.5791	0.2059	0.6618	0.057
Mof_C 	C 	0.61814	0.1667	0.65646	0.025
Mof_C 	C 	0.62744	0.1377	0.67547	-0.027
Mof_S 	S 	0.60091	0.6299	0.20936	0.039
Mof_O 	O 	0.54092	0.65596	0.24589	-0.357
Mof_O 	O 	0.53515	0.7052	0.2183	-0.39
Mof_C 	C 	0.54892	0.67652	0.22254	0.343
Mof_C 	C 	0.57756	0.66652	0.19992	-0.087
Mof_C 	C 	0.58877	0.68545	0.17043	-0.038
Mof_H 	H 	0.5791	0.7059	0.1618	0.057
Mof_C 	C 	0.61814	0.6667	0.15646	0.025
Mof_C 	C 	0.62744	0.6377	0.17547	-0.027
Mof_S 	S 	0.89909	0.1299	0.79064	0.04
Mof_O 	O 	0.95908	0.15596	0.75411	-0.351
Mof_O 	O 	0.96485	0.2052	0.7817	-0.381
Mof_C 	C 	0.95108	0.17652	0.77746	0.342
Mof_C 	C 	0.92244	0.16652	0.80008	-0.085
Mof_C 	C 	0.91123	0.18545	0.82957	-0.038
Mof_H 	H 	0.9209	0.2059	0.8382	0.058
Mof_C 	C 	0.88186	0.1667	0.84354	0.026
Mof_C 	C 	0.87256	0.1377	0.82453	-0.027
Mof_S 	S 	0.89909	0.6299	0.29064	0.041
Mof_O 	O 	0.95908	0.65596	0.25411	-0.35
Mof_O 	O 	0.96485	0.7052	0.2817	-0.381
Mof_C 	C 	0.95108	0.67652	0.27746	0.342
Mof_C 	C 	0.92244	0.66652	0.30008	-0.085
Mof_C 	C 	0.91123	0.68545	0.32957	-0.038
Mof_H 	H 	0.9209	0.7059	0.3382	0.058
Mof_C 	C 	0.88186	0.6667	0.34354	0.026
Mof_C 	C 	0.87256	0.6377	0.32453	-0.027
Mof_S 	S 	0.39909	0.1299	0.29064	0.038
Mof_O 	O 	0.45908	0.15596	0.25411	-0.358
Mof_O 	O 	0.46485	0.2052	0.2817	-0.39
Mof_C 	C 	0.45108	0.17652	0.27746	0.344
Mof_C 	C 	0.42244	0.16652	0.30008	-0.087
Mof_C 	C 	0.41123	0.18545	0.32957	-0.038
Mof_H 	H 	0.4209	0.2059	0.3382	0.057
Mof_C 	C 	0.38186	0.1667	0.34354	0.025
Mof_C 	C 	0.37256	0.1377	0.32453	-0.027
Mof_S 	S 	0.39909	0.6299	0.79064	0.04
Mof_O 	O 	0.45908	0.65596	0.75411	-0.357
Mof_O 	O 	0.46485	0.7052	0.7817	-0.39
Mof_C 	C 	0.45108	0.67652	0.77746	0.344
Mof_C 	C 	0.42244	0.66652	0.80008	-0.087
Mof_C 	C 	0.41123	0.68545	0.82957	-0.038
Mof_H 	H 	0.4209	0.7059	0.8382	0.057
Mof_C 	C 	0.38186	0.6667	0.84354	0.026
Mof_C 	C 	0.37256	0.6377	0.82453	-0.027
Mof_S 	S 	0.10091	0.8701	0.79064	0.04
Mof_O 	O 	0.04092	0.84404	0.75411	-0.357
Mof_O 	O 	0.03515	0.7948	0.7817	-0.389
Mof_C 	C 	0.04892	0.82348	0.77746	0.343
Mof_C 	C 	0.07756	0.83348	0.80008	-0.087
Mof_C 	C 	0.08877	0.81455	0.82957	-0.038
Mof_H 	H 	0.0791	0.7941	0.8382	0.057
Mof_C 	C 	0.11814	0.8333	0.84354	0.026
Mof_C 	C 	0.12744	0.8623	0.82453	-0.027
Mof_S 	S 	0.10091	0.3701	0.29064	0.038
Mof_O 	O 	0.04092	0.34404	0.25411	-0.358
Mof_O 	O 	0.03515	0.2948	0.2817	-0.389
Mof_C 	C 	0.04892	0.32348	0.27746	0.343
Mof_C 	C 	0.07756	0.33348	0.30008	-0.087
Mof_C 	C 	0.08877	0.31455	0.32957	-0.039
Mof_H 	H 	0.0791	0.2941	0.3382	0.057
Mof_C 	C 	0.11814	0.3333	0.34354	0.025
Mof_C 	C 	0.12744	0.3623	0.32453	-0.027
Mof_S 	S 	0.60091	0.8701	0.29064	0.041
Mof_O 	O 	0.54092	0.84404	0.25411	-0.357
Mof_O 	O 	0.53515	0.7948	0.2817	-0.39
Mof_C 	C 	0.54892	0.82348	0.27746	0.344
Mof_C 	C 	0.57756	0.83348	0.30008	-0.087
Mof_C 	C 	0.58877	0.81455	0.32957	-0.038
Mof_H 	H 	0.5791	0.7941	0.3382	0.057
Mof_C 	C 	0.61814	0.8333	0.34354	0.025
Mof_C 	C 	0.62744	0.8623	0.32453	-0.027
Mof_S 	S 	0.60091	0.3701	0.79064	0.04
Mof_O 	O 	0.54092	0.34404	0.75411	-0.357
Mof_O 	O 	0.53515	0.2948	0.7817	-0.39
Mof_C 	C 	0.54892	0.32348	0.77746	0.344
Mof_C 	C 	0.57756	0.33348	0.80008	-0.087
Mof_C 	C 	0.58877	0.31455	0.82957	-0.038
Mof_H 	H 	0.5791	0.2941	0.8382	0.057
Mof_C 	C 	0.61814	0.3333	0.84354	0.026
Mof_C 	C 	0.62744	0.3623	0.82453	-0.027
Mof_S 	S 	0.8701	0.79064	0.10091	0.04
Mof_O 	O 	0.84404	0.75411	0.04092	-0.357
Mof_O 	O 	0.7948	0.7817	0.03515	-0.389
Mof_C 	C 	0.82348	0.77746	0.04892	0.343
Mof_C 	C 	0.83348	0.80008	0.07756	-0.087
Mof_C 	C 	0.81455	0.82957	0.08877	-0.038
Mof_H 	H 	0.7941	0.8382	0.0791	0.057
Mof_C 	C 	0.8333	0.84354	0.11814	0.026
Mof_C 	C 	0.8623	0.82453	0.12744	-0.027
Mof_S 	S 	0.8701	0.29064	0.60091	0.041
Mof_O 	O 	0.84404	0.25411	0.54092	-0.357
Mof_O 	O 	0.7948	0.2817	0.53515	-0.39
Mof_C 	C 	0.82348	0.27746	0.54892	0.344
Mof_C 	C 	0.83348	0.30008	0.57756	-0.087
Mof_C 	C 	0.81455	0.32957	0.58877	-0.038
Mof_H 	H 	0.7941	0.3382	0.5791	0.057
Mof_C 	C 	0.8333	0.34354	0.61814	0.025
Mof_C 	C 	0.8623	0.32453	0.62744	-0.027
Mof_S 	S 	0.3701	0.79064	0.60091	0.04
Mof_O 	O 	0.34404	0.75411	0.54092	-0.357
Mof_O 	O 	0.2948	0.7817	0.53515	-0.39
Mof_C 	C 	0.32348	0.77746	0.54892	0.344
Mof_C 	C 	0.33348	0.80008	0.57756	-0.087
Mof_C 	C 	0.31455	0.82957	0.58877	-0.038
Mof_H 	H 	0.2941	0.8382	0.5791	0.057
Mof_C 	C 	0.3333	0.84354	0.61814	0.026
Mof_C 	C 	0.3623	0.82453	0.62744	-0.027
Mof_S 	S 	0.3701	0.29064	0.10091	0.038
Mof_O 	O 	0.34404	0.25411	0.04092	-0.358
Mof_O 	O 	0.2948	0.2817	0.03515	-0.389
Mof_C 	C 	0.32348	0.27746	0.04892	0.343
Mof_C 	C 	0.33348	0.30008	0.07756	-0.087
Mof_C 	C 	0.31455	0.32957	0.08877	-0.039
Mof_H 	H 	0.2941	0.3382	0.0791	0.057
Mof_C 	C 	0.3333	0.34354	0.11814	0.025
Mof_C 	C 	0.3623	0.32453	0.12744	-0.027
Mof_S 	S 	0.1299	0.79064	0.89909	0.04
Mof_O 	O 	0.15596	0.75411	0.95908	-0.351
Mof_O 	O 	0.2052	0.7817	0.96485	-0.381
Mof_C 	C 	0.17652	0.77746	0.95108	0.342
Mof_C 	C 	0.16652	0.80008	0.92244	-0.085
Mof_C 	C 	0.18545	0.82957	0.91123	-0.038
Mof_H 	H 	0.2059	0.8382	0.9209	0.058
Mof_C 	C 	0.1667	0.84354	0.88186	0.026
Mof_C 	C 	0.1377	0.82453	0.87256	-0.027
Mof_S 	S 	0.1299	0.29064	0.39909	0.038
Mof_O 	O 	0.15596	0.25411	0.45908	-0.358
Mof_O 	O 	0.2052	0.2817	0.46485	-0.39
Mof_C 	C 	0.17652	0.27746	0.45108	0.344
Mof_C 	C 	0.16652	0.30008	0.42244	-0.087
Mof_C 	C 	0.18545	0.32957	0.41123	-0.038
Mof_H 	H 	0.2059	0.3382	0.4209	0.057
Mof_C 	C 	0.1667	0.34354	0.38186	0.025
Mof_C 	C 	0.1377	0.32453	0.37256	-0.027
Mof_S 	S 	0.6299	0.79064	0.39909	0.04
Mof_O 	O 	0.65596	0.75411	0.45908	-0.357
Mof_O 	O 	0.7052	0.7817	0.46485	-0.39
Mof_C 	C 	0.67652	0.77746	0.45108	0.344
Mof_C 	C 	0.66652	0.80008	0.42244	-0.087
Mof_C 	C 	0.68545	0.82957	0.41123	-0.038
Mof_H 	H 	0.7059	0.8382	0.4209	0.057
Mof_C 	C 	0.6667	0.84354	0.38186	0.026
Mof_C 	C 	0.6377	0.82453	0.37256	-0.027
Mof_S 	S 	0.6299	0.29064	0.89909	0.041
Mof_O 	O 	0.65596	0.25411	0.95908	-0.35
Mof_O 	O 	0.7052	0.2817	0.96485	-0.381
Mof_C 	C 	0.67652	0.27746	0.95108	0.342
Mof_C 	C 	0.66652	0.30008	0.92244	-0.085
Mof_C 	C 	0.68545	0.32957	0.91123	-0.038
Mof_H 	H 	0.7059	0.3382	0.9209	0.058
Mof_C 	C 	0.6667	0.34354	0.88186	0.026
Mof_C 	C 	0.6377	0.32453	0.87256	-0.027
Mof_S 	S 	0.1299	0.20936	0.10091	0.036
Mof_O 	O 	0.15596	0.24589	0.04092	-0.359
Mof_O 	O 	0.2052	0.2183	0.03515	-0.389
Mof_C 	C 	0.17652	0.22254	0.04892	0.342
Mof_C 	C 	0.16652	0.19992	0.07756	-0.087
Mof_C 	C 	0.18545	0.17043	0.08877	-0.039
Mof_H 	H 	0.2059	0.1618	0.0791	0.056
Mof_C 	C 	0.1667	0.15646	0.11814	0.024
Mof_C 	C 	0.1377	0.17547	0.12744	-0.027
Mof_S 	S 	0.1299	0.70936	0.60091	0.038
Mof_O 	O 	0.15596	0.74589	0.54092	-0.358
Mof_O 	O 	0.2052	0.7183	0.53515	-0.39
Mof_C 	C 	0.17652	0.72254	0.54892	0.343
Mof_C 	C 	0.16652	0.69992	0.57756	-0.087
Mof_C 	C 	0.18545	0.67043	0.58877	-0.038
Mof_H 	H 	0.2059	0.6618	0.5791	0.057
Mof_C 	C 	0.1667	0.65646	0.61814	0.025
Mof_C 	C 	0.1377	0.67547	0.62744	-0.027
Mof_S 	S 	0.6299	0.20936	0.60091	0.039
Mof_O 	O 	0.65596	0.24589	0.54092	-0.357
Mof_O 	O 	0.7052	0.2183	0.53515	-0.39
Mof_C 	C 	0.67652	0.22254	0.54892	0.343
Mof_C 	C 	0.66652	0.19992	0.57756	-0.087
Mof_C 	C 	0.68545	0.17043	0.58877	-0.038
Mof_H 	H 	0.7059	0.1618	0.5791	0.057
Mof_C 	C 	0.6667	0.15646	0.61814	0.025
Mof_C 	C 	0.6377	0.17547	0.62744	-0.027
Mof_S 	S 	0.6299	0.70936	0.10091	0.038
Mof_O 	O 	0.65596	0.74589	0.04092	-0.358
Mof_O 	O 	0.7052	0.7183	0.03515	-0.389
Mof_C 	C 	0.67652	0.72254	0.04892	0.342
Mof_C 	C 	0.66652	0.69992	0.07756	-0.087
Mof_C 	C 	0.68545	0.67043	0.08877	-0.039
Mof_H 	H 	0.7059	0.6618	0.0791	0.057
Mof_C 	C 	0.6667	0.65646	0.11814	0.025
Mof_C 	C 	0.6377	0.67547	0.12744	-0.027
Mof_S 	S 	0.8701	0.20936	0.89909	0.043
Mof_O 	O 	0.84404	0.24589	0.95908	-0.349
Mof_O 	O 	0.7948	0.2183	0.96485	-0.381
Mof_C 	C 	0.82348	0.22254	0.95108	0.342
Mof_C 	C 	0.83348	0.19992	0.92244	-0.086
Mof_C 	C 	0.81455	0.17043	0.91123	-0.038
Mof_H 	H 	0.7941	0.1618	0.9209	0.058
Mof_C 	C 	0.8333	0.15646	0.88186	0.026
Mof_C 	C 	0.8623	0.17547	0.87256	-0.027
Mof_S 	S 	0.8701	0.70936	0.39909	0.041
Mof_O 	O 	0.84404	0.74589	0.45908	-0.357
Mof_O 	O 	0.7948	0.7183	0.46485	-0.39
Mof_C 	C 	0.82348	0.72254	0.45108	0.344
Mof_C 	C 	0.83348	0.69992	0.42244	-0.087
Mof_C 	C 	0.81455	0.67043	0.41123	-0.038
Mof_H 	H 	0.7941	0.6618	0.4209	0.057
Mof_C 	C 	0.8333	0.65646	0.38186	0.025
Mof_C 	C 	0.8623	0.67547	0.37256	-0.027
Mof_S 	S 	0.3701	0.20936	0.39909	0.039
Mof_O 	O 	0.34404	0.24589	0.45908	-0.357
Mof_O 	O 	0.2948	0.2183	0.46485	-0.39
Mof_C 	C 	0.32348	0.22254	0.45108	0.343
Mof_C 	C 	0.33348	0.19992	0.42244	-0.087
Mof_C 	C 	0.31455	0.17043	0.41123	-0.038
Mof_H 	H 	0.2941	0.1618	0.4209	0.057
Mof_C 	C 	0.3333	0.15646	0.38186	0.025
Mof_C 	C 	0.3623	0.17547	0.37256	-0.027
Mof_S 	S 	0.3701	0.70936	0.89909	0.041
Mof_O 	O 	0.34404	0.74589	0.95908	-0.35
Mof_O 	O 	0.2948	0.7183	0.96485	-0.381
Mof_C 	C 	0.32348	0.72254	0.95108	0.342
Mof_C 	C 	0.33348	0.69992	0.92244	-0.085
Mof_C 	C 	0.31455	0.67043	0.91123	-0.038
Mof_H 	H 	0.2941	0.6618	0.9209	0.058
Mof_C 	C 	0.3333	0.65646	0.88186	0.026
Mof_C 	C 	0.3623	0.67547	0.87256	-0.027
Mof_S 	S 	0.79064	0.89909	0.1299	0.04
Mof_O 	O 	0.75411	0.95908	0.15596	-0.351
Mof_O 	O 	0.7817	0.96485	0.2052	-0.381
Mof_C 	C 	0.77746	0.95108	0.17652	0.342
Mof_C 	C 	0.80008	0.92244	0.16652	-0.085
Mof_C 	C 	0.82957	0.91123	0.18545	-0.038
Mof_H 	H 	0.8382	0.9209	0.2059	0.058
Mof_C 	C 	0.84354	0.88186	0.1667	0.026
Mof_C 	C 	0.82453	0.87256	0.1377	-0.027
Mof_S 	S 	0.79064	0.39909	0.6299	0.04
Mof_O 	O 	0.75411	0.45908	0.65596	-0.357
Mof_O 	O 	0.7817	0.46485	0.7052	-0.39
Mof_C 	C 	0.77746	0.45108	0.67652	0.344
Mof_C 	C 	0.80008	0.42244	0.66652	-0.087
Mof_C 	C 	0.82957	0.41123	0.68545	-0.038
Mof_H 	H 	0.8382	0.4209	0.7059	0.057
Mof_C 	C 	0.84354	0.38186	0.6667	0.026
Mof_C 	C 	0.82453	0.37256	0.6377	-0.027
Mof_S 	S 	0.29064	0.89909	0.6299	0.041
Mof_O 	O 	0.25411	0.95908	0.65596	-0.35
Mof_O 	O 	0.2817	0.96485	0.7052	-0.381
Mof_C 	C 	0.27746	0.95108	0.67652	0.342
Mof_C 	C 	0.30008	0.92244	0.66652	-0.085
Mof_C 	C 	0.32957	0.91123	0.68545	-0.038
Mof_H 	H 	0.3382	0.9209	0.7059	0.058
Mof_C 	C 	0.34354	0.88186	0.6667	0.026
Mof_C 	C 	0.32453	0.87256	0.6377	-0.027
Mof_S 	S 	0.29064	0.39909	0.1299	0.038
Mof_O 	O 	0.25411	0.45908	0.15596	-0.358
Mof_O 	O 	0.2817	0.46485	0.2052	-0.39
Mof_C 	C 	0.27746	0.45108	0.17652	0.344
Mof_C 	C 	0.30008	0.42244	0.16652	-0.087
Mof_C 	C 	0.32957	0.41123	0.18545	-0.038
Mof_H 	H 	0.3382	0.4209	0.2059	0.057
Mof_C 	C 	0.34354	0.38186	0.1667	0.025
Mof_C 	C 	0.32453	0.37256	0.1377	-0.027
Mof_S 	S 	0.79064	0.10091	0.8701	0.04
Mof_O 	O 	0.75411	0.04092	0.84404	-0.357
Mof_O 	O 	0.7817	0.03515	0.7948	-0.389
Mof_C 	C 	0.77746	0.04892	0.82348	0.343
Mof_C 	C 	0.80008	0.07756	0.83348	-0.087
Mof_C 	C 	0.82957	0.08877	0.81455	-0.038
Mof_H 	H 	0.8382	0.0791	0.7941	0.057
Mof_C 	C 	0.84354	0.11814	0.8333	0.026
Mof_C 	C 	0.82453	0.12744	0.8623	-0.027
Mof_S 	S 	0.79064	0.60091	0.3701	0.04
Mof_O 	O 	0.75411	0.54092	0.34404	-0.357
Mof_O 	O 	0.7817	0.53515	0.2948	-0.39
Mof_C 	C 	0.77746	0.54892	0.32348	0.344
Mof_C 	C 	0.80008	0.57756	0.33348	-0.087
Mof_C 	C 	0.82957	0.58877	0.31455	-0.038
Mof_H 	H 	0.8382	0.5791	0.2941	0.057
Mof_C 	C 	0.84354	0.61814	0.3333	0.026
Mof_C 	C 	0.82453	0.62744	0.3623	-0.027
Mof_S 	S 	0.29064	0.10091	0.3701	0.038
Mof_O 	O 	0.25411	0.04092	0.34404	-0.358
Mof_O 	O 	0.2817	0.03515	0.2948	-0.389
Mof_C 	C 	0.27746	0.04892	0.32348	0.343
Mof_C 	C 	0.30008	0.07756	0.33348	-0.087
Mof_C 	C 	0.32957	0.08877	0.31455	-0.039
Mof_H 	H 	0.3382	0.0791	0.2941	0.057
Mof_C 	C 	0.34354	0.11814	0.3333	0.025
Mof_C 	C 	0.32453	0.12744	0.3623	-0.027
Mof_S 	S 	0.29064	0.60091	0.8701	0.041
Mof_O 	O 	0.25411	0.54092	0.84404	-0.357
Mof_O 	O 	0.2817	0.53515	0.7948	-0.39
Mof_C 	C 	0.27746	0.54892	0.82348	0.344
Mof_C 	C 	0.30008	0.57756	0.83348	-0.087
Mof_C 	C 	0.32957	0.58877	0.81455	-0.038
Mof_H 	H 	0.3382	0.5791	0.7941	0.057
Mof_C 	C 	0.34354	0.61814	0.8333	0.025
Mof_C 	C 	0.32453	0.62744	0.8623	-0.027
Mof_S 	S 	0.20936	0.89909	0.8701	0.043
Mof_O 	O 	0.24589	0.95908	0.84404	-0.349
Mof_O 	O 	0.2183	0.96485	0.7948	-0.381
Mof_C 	C 	0.22254	0.95108	0.82348	0.342
Mof_C 	C 	0.19992	0.92244	0.83348	-0.086
Mof_C 	C 	0.17043	0.91123	0.81455	-0.038
Mof_H 	H 	0.1618	0.9209	0.7941	0.058
Mof_C 	C 	0.15646	0.88186	0.8333	0.026
Mof_C 	C 	0.17547	0.87256	0.8623	-0.027
Mof_S 	S 	0.20936	0.39909	0.3701	0.039
Mof_O 	O 	0.24589	0.45908	0.34404	-0.357
Mof_O 	O 	0.2183	0.46485	0.2948	-0.39
Mof_C 	C 	0.22254	0.45108	0.32348	0.343
Mof_C 	C 	0.19992	0.42244	0.33348	-0.087
Mof_C 	C 	0.17043	0.41123	0.31455	-0.038
Mof_H 	H 	0.1618	0.4209	0.2941	0.057
Mof_C 	C 	0.15646	0.38186	0.3333	0.025
Mof_C 	C 	0.17547	0.37256	0.3623	-0.027
Mof_S 	S 	0.70936	0.89909	0.3701	0.041
Mof_O 	O 	0.74589	0.95908	0.34404	-0.35
Mof_O 	O 	0.7183	0.96485	0.2948	-0.381
Mof_C 	C 	0.72254	0.95108	0.32348	0.342
Mof_C 	C 	0.69992	0.92244	0.33348	-0.085
Mof_C 	C 	0.67043	0.91123	0.31455	-0.038
Mof_H 	H 	0.6618	0.9209	0.2941	0.058
Mof_C 	C 	0.65646	0.88186	0.3333	0.026
Mof_C 	C 	0.67547	0.87256	0.3623	-0.027
Mof_S 	S 	0.70936	0.39909	0.8701	0.041
Mof_O 	O 	0.74589	0.45908	0.84404	-0.357
Mof_O 	O 	0.7183	0.46485	0.7948	-0.39
Mof_C 	C 	0.72254	0.45108	0.82348	0.344
Mof_C 	C 	0.69992	0.42244	0.83348	-0.087
Mof_C 	C 	0.67043	0.41123	0.81455	-0.038
Mof_H 	H 	0.6618	0.4209	0.7941	0.057
Mof_C 	C 	0.65646	0.38186	0.8333	0.025
Mof_C 	C 	0.67547	0.37256	0.8623	-0.027
Mof_S 	S 	0.20936	0.10091	0.1299	0.036
Mof_O 	O 	0.24589	0.04092	0.15596	-0.359
Mof_O 	O 	0.2183	0.03515	0.2052	-0.389
Mof_C 	C 	0.22254	0.04892	0.17652	0.342
Mof_C 	C 	0.19992	0.07756	0.16652	-0.087
Mof_C 	C 	0.17043	0.08877	0.18545	-0.039
Mof_H 	H 	0.1618	0.0791	0.2059	0.056
Mof_C 	C 	0.15646	0.11814	0.1667	0.024
Mof_C 	C 	0.17547	0.12744	0.1377	-0.027
Mof_S 	S 	0.20936	0.60091	0.6299	0.039
Mof_O 	O 	0.24589	0.54092	0.65596	-0.357
Mof_O 	O 	0.2183	0.53515	0.7052	-0.39
Mof_C 	C 	0.22254	0.54892	0.67652	0.343
Mof_C 	C 	0.19992	0.57756	0.66652	-0.087
Mof_C 	C 	0.17043	0.58877	0.68545	-0.038
Mof_H 	H 	0.1618	0.5791	0.7059	0.057
Mof_C 	C 	0.15646	0.61814	0.6667	0.025
Mof_C 	C 	0.17547	0.62744	0.6377	-0.027
Mof_S 	S 	0.70936	0.10091	0.6299	0.038
Mof_O 	O 	0.74589	0.04092	0.65596	-0.358
Mof_O 	O 	0.7183	0.03515	0.7052	-0.389
Mof_C 	C 	0.72254	0.04892	0.67652	0.342
Mof_C 	C 	0.69992	0.07756	0.66652	-0.087
Mof_C 	C 	0.67043	0.08877	0.68545	-0.039
Mof_H 	H 	0.6618	0.0791	0.7059	0.057
Mof_C 	C 	0.65646	0.11814	0.6667	0.025
Mof_C 	C 	0.67547	0.12744	0.6377	-0.027
Mof_S 	S 	0.70936	0.60091	0.1299	0.038
Mof_O 	O 	0.74589	0.54092	0.15596	-0.358
Mof_O 	O 	0.7183	0.53515	0.2052	-0.39
Mof_C 	C 	0.72254	0.54892	0.17652	0.343
Mof_C 	C 	0.69992	0.57756	0.16652	-0.087
Mof_C 	C 	0.67043	0.58877	0.18545	-0.038
Mof_H 	H 	0.6618	0.5791	0.2059	0.057
Mof_C 	C 	0.65646	0.61814	0.1667	0.025
Mof_C 	C 	0.67547	0.62744	0.1377	-0.027
Mof_Mn	Mn	0.68386	0.5	0.77163	0.871
Mof_Mn	Mn	0.68386	-3.35245e-33	0.27163	0.853
Mof_Mn	Mn	0.18386	0.5	0.27163	0.87
Mof_Mn	Mn	0.18386	0	0.77163	0.853
Mof_Mn	Mn	0.31614	0.5	0.77163	0.871
Mof_Mn	Mn	0.31614	-3.35245e-33	0.27163	0.853
Mof_Mn	Mn	0.81614	0.5	0.27163	0.871
Mof_Mn	Mn	0.81614	0	0.77163	0.854
Mof_Mn	Mn	0.31614	0.5	0.22837	0.87
Mof_Mn	Mn	0.31614	0	0.72837	0.853
Mof_Mn	Mn	0.81614	0.5	0.72837	0.871
Mof_Mn	Mn	0.81614	1.67622e-33	0.22837	0.853
Mof_Mn	Mn	0.68386	0.5	0.22837	0.87
Mof_Mn	Mn	0.68386	0	0.72837	0.853
Mof_Mn	Mn	0.18386	0.5	0.72837	0.87
Mof_Mn	Mn	0.18386	1.67622e-33	0.22837	0.852
Mof_Mn	Mn	0.77163	0.68386	0.5	0.871
Mof_Mn	Mn	0.77163	0.18386	-0	0.853
Mof_Mn	Mn	0.27163	0.68386	-0	0.853
Mof_Mn	Mn	0.27163	0.18386	0.5	0.87
Mof_Mn	Mn	0.77163	0.31614	0.5	0.871
Mof_Mn	Mn	0.77163	0.81614	-0	0.854
Mof_Mn	Mn	0.27163	0.31614	-0	0.853
Mof_Mn	Mn	0.27163	0.81614	0.5	0.871
Mof_Mn	Mn	0.22837	0.31614	0.5	0.87
Mof_Mn	Mn	0.22837	0.81614	-0	0.853
Mof_Mn	Mn	0.72837	0.31614	-0	0.853
Mof_Mn	Mn	0.72837	0.81614	0.5	0.871
Mof_Mn	Mn	0.22837	0.68386	0.5	0.87
Mof_Mn	Mn	0.22837	0.18386	-0	0.852
Mof_Mn	Mn	0.72837	0.68386	-0	0.853
Mof_Mn	Mn	0.72837	0.18386	0.5	0.87
Mof_Mn	Mn	0.5	0.77163	0.68386	0.871
Mof_Mn	Mn	0.5	0.27163	0.18386	0.87
Mof_Mn	Mn	6.89365e-34	0.77163	0.18386	0.853
Mof_Mn	Mn	2.56406e-33	0.27163	0.68386	0.853
Mof_Mn	Mn	0.5	0.77163	0.31614	0.871
Mof_Mn	Mn	0.5	0.27163	0.81614	0.871
Mof_Mn	Mn	-3.64486e-33	0.77163	0.81614	0.854
Mof_Mn	Mn	1.18534e-33	0.27163	0.31614	0.853
Mof_Mn	Mn	0.5	0.22837	0.31614	0.87
Mof_Mn	Mn	0.5	0.72837	0.81614	0.871
Mof_Mn	Mn	-3.64486e-33	0.22837	0.81614	0.853
Mof_Mn	Mn	-5.51956e-33	0.72837	0.31614	0.853
Mof_Mn	Mn	0.5	0.22837	0.68386	0.87
Mof_Mn	Mn	0.5	0.72837	0.18386	0.87
Mof_Mn	Mn	2.36559e-33	0.22837	0.18386	0.852
Mof_Mn	Mn	2.56406e-33	0.72837	0.68386	0.853
Mof_Mn	Mn	-3.97395e-33	0.18386	0.72837	0.852
Mof_Mn	Mn	5.88492e-33	0.68386	0.22837	0.853
Mof_Mn	Mn	0.5	0.18386	0.22837	0.869
Mof_Mn	Mn	0.5	0.68386	0.72837	0.87
Mof_Mn	Mn	2.73095e-33	0.81614	0.72837	0.854
Mof_Mn	Mn	5.88492e-33	0.31614	0.22837	0.853
Mof_Mn	Mn	0.5	0.81614	0.22837	0.871
Mof_Mn	Mn	0.5	0.31614	0.72837	0.87
Mof_Mn	Mn	7.72335e-33	0.81614	0.27163	0.854
Mof_Mn	Mn	2.89315e-33	0.31614	0.77163	0.853
Mof_Mn	Mn	0.5	0.81614	0.77163	0.871
Mof_Mn	Mn	0.5	0.31614	0.27163	0.87
Mof_Mn	Mn	1.01845e-33	0.18386	0.27163	0.852
Mof_Mn	Mn	2.89315e-33	0.68386	0.77163	0.853
Mof_Mn	Mn	0.5	0.18386	0.77163	0.87
Mof_Mn	Mn	0.5	0.68386	0.27163	0.87
Mof_Mn	Mn	0.18386	0.27163	-0	0.852
Mof_Mn	Mn	0.18386	0.77163	0.5	0.87
Mof_Mn	Mn	0.68386	0.27163	0.5	0.87
Mof_Mn	Mn	0.68386	0.77163	-0	0.853
Mof_Mn	Mn	0.81614	0.27163	-0	0.854
Mof_Mn	Mn	0.81614	0.77163	0.5	0.871
Mof_Mn	Mn	0.31614	0.27163	0.5	0.87
Mof_Mn	Mn	0.31614	0.77163	-0	0.853
Mof_Mn	Mn	0.81614	0.72837	-0	0.854
Mof_Mn	Mn	0.81614	0.22837	0.5	0.871
Mof_Mn	Mn	0.31614	0.72837	0.5	0.87
Mof_Mn	Mn	0.31614	0.22837	-0	0.853
Mof_Mn	Mn	0.18386	0.72837	-0	0.852
Mof_Mn	Mn	0.18386	0.22837	0.5	0.869
Mof_Mn	Mn	0.68386	0.72837	0.5	0.87
Mof_Mn	Mn	0.68386	0.22837	-0	0.853
Mof_Mn	Mn	0.27163	0	0.81614	0.854
Mof_Mn	Mn	0.27163	0.5	0.31614	0.87
Mof_Mn	Mn	0.77163	0	0.31614	0.853
Mof_Mn	Mn	0.77163	0.5	0.81614	0.871
Mof_Mn	Mn	0.27163	1.67622e-33	0.18386	0.852
Mof_Mn	Mn	0.27163	0.5	0.68386	0.87
Mof_Mn	Mn	0.77163	0	0.68386	0.853
Mof_Mn	Mn	0.77163	0.5	0.18386	0.87
Mof_Mn	Mn	0.72837	1.67622e-33	0.18386	0.852
Mof_Mn	Mn	0.72837	0.5	0.68386	0.87
Mof_Mn	Mn	0.22837	0	0.68386	0.853
Mof_Mn	Mn	0.22837	0.5	0.18386	0.869
Mof_Mn	Mn	0.72837	0	0.81614	0.854
Mof_Mn	Mn	0.72837	0.5	0.31614	0.87
Mof_Mn	Mn	0.22837	0	0.31614	0.853
Mof_Mn	Mn	0.22837	0.5	0.81614	0.871
_end
