data_functionalizedCrystal
_audit_creation_method	'EQeq! by Chris Wilmer'
_symmetry_space_group_name_H-M	'P1'
_symmetry_Int_Tables_number	1
_symmetry_cell_setting	triclinic
loop_
_symmetry_equiv_pos_as_xyz
  x,y,z
_cell_length_a	11.5641
_cell_length_b	12.0913
_cell_length_c	16.4202
_cell_angle_alpha	90
_cell_angle_beta	106.261
_cell_angle_gamma	90
loop_
_atom_site_label
_atom_site_type_symbol
_atom_site_fract_x
_atom_site_fract_y
_atom_site_fract_z
_atom_site_charge
Mof_Zn	Zn	0.5883	0.4985	0.8063	1.199
Mof_Zn	Zn	0.2523	0.2357	0.40031	1.219
Mof_Zn	Zn	0.7523	0.2643	0.90031	1.218
Mof_Zn	Zn	0.9117	0.9985	0.6937	1.197
Mof_Zn	Zn	0.7477	0.7643	0.59969	1.218
Mof_Zn	Zn	0.4117	0.5015	0.1937	1.198
Mof_Zn	Zn	0.2477	0.7357	0.09969	1.218
Mof_Zn	Zn	0.0883	0.0015	0.3063	1.197
Mof_H 	H 	0.4744	0.6203	0.9372	-0.012
Mof_H 	H 	0.4419	0.0938	0.2193	0.059
Mof_H 	H 	0.5496	0.0411	0.3855	0.077
Mof_H 	H 	0.4193	0.3323	0.5736	-0.003
Mof_H 	H 	0.0807	0.8323	0.9264	-0.001
Mof_H 	H 	0.5239	0.0564	0.1084	0.05
Mof_H 	H 	0.9744	0.8797	0.4372	-0.012
Mof_H 	H 	0.4761	0.9436	0.8916	0.05
Mof_H 	H 	0.9469	0.576	0.7771	0.022
Mof_H 	H 	0.4469	0.924	0.2771	0.019
Mof_H 	H 	0.0239	0.4436	0.6084	0.052
Mof_H 	H 	0.0531	0.424	0.2229	0.022
Mof_H 	H 	0.9504	0.5411	0.1145	0.074
Mof_H 	H 	0.0256	0.1203	0.5628	-0.012
Mof_H 	H 	0.5807	0.6677	0.4264	-0.003
Mof_H 	H 	0.9419	0.4062	0.7193	0.058
Mof_H 	H 	0.0496	0.4589	0.8855	0.074
Mof_H 	H 	0.9193	0.1677	0.0736	-0.001
Mof_H 	H 	0.0581	0.5938	0.2807	0.058
Mof_H 	H 	0.9761	0.5564	0.3916	0.052
Mof_H 	H 	0.5531	0.076	0.7229	0.019
Mof_H 	H 	0.5581	0.9062	0.7807	0.059
Mof_H 	H 	0.4504	0.9589	0.6145	0.077
Mof_H 	H 	0.5256	0.3797	0.0628	-0.012
Mof_C 	C 	0.5427	0.8492	0.8143	-0.052
Mof_C 	C 	0.4152	0.804	0.9997	0.332
Mof_C 	C 	0.994	0.8212	0.4067	0.072
Mof_C 	C 	0.506	0.3212	0.0933	0.077
Mof_C 	C 	0.9956	0.6048	0.8276	0.048
Mof_C 	C 	0.377	0.0796	0.5331	-0.002
Mof_C 	C 	0.494	0.6788	0.9067	0.077
Mof_C 	C 	0.006	0.1788	0.5933	0.072
Mof_C 	C 	0.0044	0.3952	0.1724	0.048
Mof_C 	C 	0.9683	0.7143	0.4271	-0.105
Mof_C 	C 	0.5071	0.1289	0.1203	0.015
Mof_C 	C 	0.9573	0.3492	0.6857	-0.048
Mof_C 	C 	0.509	0.7823	0.3389	-0.149
Mof_C 	C 	0.123	0.5796	0.9669	-0.006
Mof_C 	C 	0.3056	0.0097	0.4599	0.314
Mof_C 	C 	0.9249	0.2436	0.0827	0.094
Mof_C 	C 	0.4573	0.1508	0.1857	-0.052
Mof_C 	C 	0.4929	0.8711	0.8797	0.015
Mof_C 	C 	0.5526	0.2984	0.7292	0.42
Mof_C 	C 	0.5751	0.7436	0.4173	0.099
Mof_C 	C 	0.5317	0.2143	0.0729	-0.106
Mof_C 	C 	0.9474	0.7984	0.7708	0.414
Mof_C 	C 	0.0692	0.7585	0.2999	-0.027
Mof_C 	C 	0.0317	0.2857	0.5729	-0.105
Mof_C 	C 	0.4683	0.7857	0.9271	-0.106
Mof_C 	C 	0.5044	0.1048	0.6724	0.061
Mof_C 	C 	0.4956	0.8952	0.3276	0.061
Mof_C 	C 	0.3786	0.2911	0.2705	0.332
Mof_C 	C 	0.6944	0.9903	0.5401	0.314
Mof_C 	C 	0.4474	0.7016	0.2708	0.42
Mof_C 	C 	0.945	0.4648	0.1075	-0.077
Mof_C 	C 	0.0751	0.7564	0.9173	0.094
Mof_C 	C 	0.0848	0.304	0.5003	0.336
Mof_C 	C 	0.555	0.9648	0.3925	-0.086
Mof_C 	C 	0.491	0.2177	0.6611	-0.149
Mof_C 	C 	0.0071	0.3711	0.6203	0.012
Mof_C 	C 	0.009	0.7177	0.8389	-0.139
Mof_C 	C 	0.445	0.0352	0.6075	-0.086
Mof_C 	C 	0.9929	0.6289	0.3797	0.012
Mof_C 	C 	0.623	0.9204	0.4669	-0.002
Mof_C 	C 	0.6214	0.7089	0.7295	0.332
Mof_C 	C 	0.4308	0.2585	0.2001	-0.026
Mof_C 	C 	0.8056	0.4903	0.9599	0.317
Mof_C 	C 	0.1214	0.7911	0.2295	0.333
Mof_C 	C 	0.991	0.2823	0.1611	-0.139
Mof_C 	C 	0.877	0.4204	0.0331	-0.006
Mof_C 	C 	0.8786	0.2089	0.7705	0.333
Mof_C 	C 	0.0427	0.6508	0.3143	-0.048
Mof_C 	C 	0.1944	0.5097	0.0401	0.317
Mof_C 	C 	0.4249	0.2564	0.5827	0.099
Mof_C 	C 	0.5692	0.7415	0.7999	-0.026
Mof_C 	C 	0.0526	0.2016	0.2292	0.414
Mof_C 	C 	0.9152	0.696	0.4997	0.336
Mof_C 	C 	0.5848	0.196	0.0003	0.332
Mof_C 	C 	0.055	0.5352	0.8925	-0.077
Mof_C 	C 	0.9308	0.2415	0.7001	-0.027
Mof_N 	N 	0.455	0.3432	0.1548	-0.236
Mof_N 	N 	0.955	0.1568	0.6548	-0.233
Mof_N 	N 	0.1318	0.6887	0.9807	-0.231
Mof_N 	N 	0.6318	0.8113	0.4807	-0.232
Mof_N 	N 	0.8682	0.3113	0.0193	-0.231
Mof_N 	N 	0.545	0.6568	0.8452	-0.236
Mof_N 	N 	0.045	0.8432	0.3452	-0.233
Mof_N 	N 	0.3682	0.1887	0.5193	-0.232
Mof_O 	O 	0.3849	0.7376	0.2017	-0.512
Mof_O 	O 	0.0347	0.1016	0.2087	-0.483
Mof_O 	O 	0.6027	0.2822	0.9637	-0.404
Mof_O 	O 	0.3573	0.2183	0.3173	-0.42
Mof_O 	O 	0.1115	0.3997	0.4845	-0.297
Mof_O 	O 	0.5347	0.3984	0.7087	-0.481
Mof_O 	O 	0.3102	0.9083	0.4668	-0.273
Mof_O 	O 	0.1151	0.2376	0.2983	-0.512
Mof_O 	O 	0.7468	0.4374	0.8949	-0.547
Mof_O 	O 	0.6151	0.2624	0.7983	-0.512
Mof_O 	O 	0.3647	0.3939	0.2792	-0.433
Mof_O 	O 	0.6427	0.7817	0.6827	-0.42
Mof_O 	O 	0.8573	0.2817	0.8173	-0.419
Mof_O 	O 	0.3973	0.7178	0.0363	-0.404
Mof_O 	O 	0.1353	0.8939	0.2208	-0.43
Mof_O 	O 	0.1427	0.7183	0.1827	-0.419
Mof_O 	O 	0.2532	0.5626	0.1051	-0.547
Mof_O 	O 	0.2468	0.0626	0.3949	-0.547
Mof_O 	O 	0.3885	0.8997	0.0155	-0.294
Mof_O 	O 	0.8849	0.7624	0.7017	-0.512
Mof_O 	O 	0.4653	0.6016	0.2913	-0.481
Mof_O 	O 	0.8647	0.1061	0.7792	-0.43
Mof_O 	O 	0.8973	0.7822	0.5363	-0.406
Mof_O 	O 	0.9653	0.8984	0.7913	-0.483
Mof_O 	O 	0.6898	0.0917	0.5332	-0.273
Mof_O 	O 	0.6115	0.1003	0.9845	-0.294
Mof_O 	O 	0.1898	0.4083	0.0332	-0.278
Mof_O 	O 	0.6353	0.6061	0.7208	-0.433
Mof_O 	O 	0.1027	0.2178	0.4637	-0.406
Mof_O 	O 	0.7532	0.9374	0.6051	-0.547
Mof_O 	O 	0.8885	0.6003	0.5155	-0.297
Mof_O 	O 	0.8102	0.5917	0.9668	-0.278
_end
