data_functionalizedCrystal
_audit_creation_method	'EQeq! by Chris Wilmer'
_symmetry_space_group_name_H-M	'P1'
_symmetry_Int_Tables_number	1
_symmetry_cell_setting	triclinic
loop_
_symmetry_equiv_pos_as_xyz
  x,y,z
_cell_length_a	14.8602
_cell_length_b	18.9219
_cell_length_c	29.774
_cell_angle_alpha	98.0891
_cell_angle_beta	90
_cell_angle_gamma	113.121
loop_
_atom_site_label
_atom_site_type_symbol
_atom_site_fract_x
_atom_site_fract_y
_atom_site_fract_z
_atom_site_charge
Mof_Eu	Eu	0.38725	0.5807	0.64105	2.138
Mof_Eu	Eu	0.46637	0.82591	0.65621	2.141
Mof_Eu	Eu	0.19345	0.5807	0.14105	2.138
Mof_Eu	Eu	0.35954	0.82591	0.15621	2.141
Mof_H 	H 	0.4232	0.81	0.8097	0.007
Mof_H 	H 	0.4688	0.6106	0.7847	0.007
Mof_H 	H 	0.4629	0.5996	0.8608	0.092
Mof_H 	H 	0.4262	0.5938	0.9427	0.091
Mof_H 	H 	0.3394	0.7996	0.0048	0.021
Mof_H 	H 	0.3717	0.5998	0.0157	0.015
Mof_H 	H 	0.7871	0.8518	0.6554	0.019
Mof_H 	H 	0.6705	0.6176	0.6448	-0.018
Mof_H 	H 	0.9463	0.8544	0.6517	0.077
Mof_H 	H 	0.1015	0.8352	0.6495	0.084
Mof_H 	H 	0.2317	0.7974	0.6507	-0.074
Mof_H 	H 	0.046	0.5702	0.6413	0.02
Mof_H 	H 	0.1066	0.3306	0.5984	0.055
Mof_H 	H 	0.1535	0.4018	0.7345	0.058
Mof_H 	H 	0.0113	0.298	0.7476	0.055
Mof_H 	H 	0.8546	0.1806	0.7478	0.063
Mof_H 	H 	0.7382	0.0488	0.5996	0.06
Mof_H 	H 	0.7135	0.0664	0.7363	0.049
Mof_H 	H 	0.3868	0.81	0.3097	0.007
Mof_H 	H 	0.1418	0.6106	0.2847	0.007
Mof_H 	H 	0.1367	0.5996	0.3608	0.092
Mof_H 	H 	0.1676	0.5938	0.4427	0.091
Mof_H 	H 	0.4602	0.7996	0.5048	0.022
Mof_H 	H 	0.2281	0.5998	0.5157	0.015
Mof_H 	H 	0.0647	0.8518	0.1554	0.019
Mof_H 	H 	0.9471	0.6176	0.1448	-0.018
Mof_H 	H 	0.9081	0.8544	0.1517	0.076
Mof_H 	H 	0.7337	0.8352	0.1495	0.084
Mof_H 	H 	0.5657	0.7974	0.1507	-0.074
Mof_H 	H 	0.5242	0.5702	0.1413	0.02
Mof_H 	H 	0.224	0.3306	0.0984	0.055
Mof_H 	H 	0.2483	0.4018	0.2345	0.057
Mof_H 	H 	0.2867	0.298	0.2476	0.055
Mof_H 	H 	0.326	0.1806	0.2478	0.062
Mof_H 	H 	0.3106	0.0488	0.0996	0.06
Mof_H 	H 	0.3529	0.0664	0.2363	0.049
Mof_C 	C 	0.44855	0.7161	0.7391	0.534
Mof_C 	C 	0.44573	0.71106	0.789	-0.197
Mof_C 	C 	0.42896	0.76612	0.8195	0.097
Mof_C 	C 	0.45708	0.64856	0.8055	0.104
Mof_C 	C 	0.42078	0.75576	0.8647	-0.106
Mof_C 	C 	0.45186	0.64092	0.8503	-0.133
Mof_C 	C 	0.43012	0.69444	0.8806	0.071
Mof_C 	C 	0.40955	0.6915	0.929	0.058
Mof_C 	C 	0.38341	0.75182	0.9482	-0.095
Mof_C 	C 	0.40662	0.63444	0.9548	-0.119
Mof_C 	C 	0.35399	0.75678	0.9918	0.081
Mof_C 	C 	0.3746	0.6386	0.9979	0.084
Mof_C 	C 	0.34616	0.69812	0.01652	-0.186
Mof_C 	C 	0.30156	0.69492	0.06168	0.494
Mof_C 	C 	0.61561	0.73802	0.64785	0.521
Mof_C 	C 	0.71514	0.73488	0.6489	-0.201
Mof_C 	C 	0.7962	0.8044	0.6523	0.088
Mof_C 	C 	0.72553	0.66586	0.6467	0.097
Mof_C 	C 	0.8912	0.8066	0.6513	-0.127
Mof_C 	C 	0.82308	0.67016	0.6474	-0.106
Mof_C 	C 	0.9028	0.7382	0.6496	0.053
Mof_C 	C 	0.99835	0.7275	0.6488	0.076
Mof_C 	C 	0.0903	0.7822	0.6492	-0.178
Mof_C 	C 	0.98122	0.64984	0.646	-0.111
Mof_C 	C 	0.1665	0.7592	0.6492	0.135
Mof_C 	C 	0.0579	0.6238	0.6443	0.096
Mof_C 	C 	0.15154	0.68108	0.6471	-0.212
Mof_C 	C 	0.2399	0.6602	0.64821	0.496
Mof_C 	C 	0.23543	0.44366	0.6583	0.315
Mof_C 	C 	0.14307	0.37514	0.6657	-0.064
Mof_C 	C 	0.08738	0.32396	0.6284	0.01
Mof_C 	C 	0.11456	0.36552	0.7095	0.001
Mof_C 	C 	0.0023	0.2626	0.6368	-0.059
Mof_C 	C 	0.03017	0.30394	0.7174	-0.075
Mof_C 	C 	0.97347	0.25094	0.6808	0.027
Mof_C 	C 	0.88189	0.18058	0.6805	0.034
Mof_C 	C 	0.84672	0.14244	0.63766	-0.062
Mof_C 	C 	0.83172	0.15344	0.71794	-0.08
Mof_C 	C 	0.76154	0.07468	0.6296	0.021
Mof_C 	C 	0.74777	0.08614	0.7109	0.018
Mof_C 	C 	0.71219	0.04638	0.6671	-0.08
Mof_C 	C 	0.62305	0.9725	0.66076	0.322
Mof_C 	C 	0.26755	0.7161	0.2391	0.534
Mof_C 	C 	0.26533	0.71106	0.289	-0.197
Mof_C 	C 	0.33716	0.76612	0.3195	0.097
Mof_C 	C 	0.19148	0.64856	0.3055	0.104
Mof_C 	C 	0.33498	0.75576	0.3647	-0.106
Mof_C 	C 	0.18906	0.64092	0.3503	-0.133
Mof_C 	C 	0.26432	0.69444	0.3806	0.071
Mof_C 	C 	0.28195	0.6915	0.429	0.058
Mof_C 	C 	0.36841	0.75182	0.4482	-0.094
Mof_C 	C 	0.22782	0.63444	0.4548	-0.119
Mof_C 	C 	0.40279	0.75678	0.4918	0.08
Mof_C 	C 	0.264	0.6386	0.4979	0.084
Mof_C 	C 	0.35196	0.69812	0.51652	-0.186
Mof_C 	C 	0.39336	0.69492	0.56168	0.493
Mof_C 	C 	0.12241	0.73802	0.14785	0.521
Mof_C 	C 	0.01974	0.73488	0.1489	-0.201
Mof_C 	C 	0.0082	0.8044	0.1523	0.087
Mof_C 	C 	0.94033	0.66586	0.1467	0.097
Mof_C 	C 	0.9154	0.8066	0.1513	-0.127
Mof_C 	C 	0.84708	0.67016	0.1474	-0.106
Mof_C 	C 	0.8354	0.7382	0.1496	0.053
Mof_C 	C 	0.72915	0.7275	0.1488	0.076
Mof_C 	C 	0.6919	0.7822	0.1492	-0.178
Mof_C 	C 	0.66862	0.64984	0.146	-0.111
Mof_C 	C 	0.5927	0.7592	0.1492	0.135
Mof_C 	C 	0.5659	0.6238	0.1443	0.096
Mof_C 	C 	0.52954	0.68108	0.1471	-0.212
Mof_C 	C 	0.4203	0.6602	0.14821	0.496
Mof_C 	C 	0.20823	0.44366	0.1583	0.315
Mof_C 	C 	0.23207	0.37514	0.1657	-0.064
Mof_C 	C 	0.23658	0.32396	0.1284	0.01
Mof_C 	C 	0.25096	0.36552	0.2095	0.001
Mof_C 	C 	0.2603	0.2626	0.1368	-0.06
Mof_C 	C 	0.27377	0.30394	0.2174	-0.075
Mof_C 	C 	0.27747	0.25094	0.1808	0.027
Mof_C 	C 	0.29869	0.18058	0.1805	0.034
Mof_C 	C 	0.29572	0.14244	0.13766	-0.062
Mof_C 	C 	0.32172	0.15344	0.21794	-0.079
Mof_C 	C 	0.31314	0.07468	0.1296	0.021
Mof_C 	C 	0.33837	0.08614	0.2109	0.018
Mof_C 	C 	0.33419	0.04638	0.1671	-0.079
Mof_C 	C 	0.34945	0.9725	0.16076	0.322
Mof_S 	S 	0.3867	0.81254	0.90804	0.345
Mof_S 	S 	0.85687	0.59042	0.64715	0.338
Mof_S 	S 	0.92134	0.18906	0.59582	0.315
Mof_S 	S 	0.42584	0.81254	0.40804	0.345
Mof_S 	S 	0.73355	0.59042	0.14715	0.338
Mof_S 	S 	0.26772	0.18906	0.09582	0.315
Mof_O 	O 	0.46627	0.78094	0.72768	-0.555
Mof_O 	O 	0.43217	0.65354	0.71329	-0.58
Mof_O 	O 	0.46373	0.88866	0.91957	-0.223
Mof_O 	O 	0.2904	0.808	0.89816	-0.23
Mof_O 	O 	0.30213	0.75806	0.08251	-0.553
Mof_O 	O 	0.26699	0.62998	0.07494	-0.55
Mof_O 	O 	0.6108	0.8026	0.65932	-0.534
Mof_O 	O 	0.5443	0.6744	0.63597	-0.605
Mof_O 	O 	0.83925	0.5605	0.6904	-0.226
Mof_O 	O 	0.8212	0.5362	0.6065	-0.237
Mof_O 	O 	0.3236	0.7144	0.65234	-0.639
Mof_O 	O 	0.22672	0.59064	0.64572	-0.48
Mof_O 	O 	0.25974	0.45088	0.61784	-0.458
Mof_O 	O 	0.28366	0.49052	0.69191	-0.422
Mof_O 	O 	0.96877	0.14154	0.57329	-0.206
Mof_O 	O 	0.87083	0.21926	0.56743	-0.21
Mof_O 	O 	0.59407	0.93394	0.62191	-0.419
Mof_O 	O 	0.57732	0.95084	0.69559	-0.472
Mof_O 	O 	0.31467	0.78094	0.22768	-0.555
Mof_O 	O 	0.22137	0.65354	0.21329	-0.58
Mof_O 	O 	0.42493	0.88866	0.41957	-0.223
Mof_O 	O 	0.5176	0.808	0.39816	-0.23
Mof_O 	O 	0.45593	0.75806	0.58251	-0.553
Mof_O 	O 	0.36299	0.62998	0.57494	-0.55
Mof_O 	O 	0.1918	0.8026	0.15932	-0.534
Mof_O 	O 	0.1301	0.6744	0.13597	-0.605
Mof_O 	O 	0.72125	0.5605	0.1904	-0.225
Mof_O 	O 	0.715	0.5362	0.1065	-0.237
Mof_O 	O 	0.3908	0.7144	0.15234	-0.639
Mof_O 	O 	0.36392	0.59064	0.14572	-0.48
Mof_O 	O 	0.19114	0.45088	0.11784	-0.458
Mof_O 	O 	0.20686	0.49052	0.19191	-0.422
Mof_O 	O 	0.17277	0.14154	0.07329	-0.206
Mof_O 	O 	0.34843	0.21926	0.06743	-0.21
Mof_O 	O 	0.33987	0.93394	0.12191	-0.419
Mof_O 	O 	0.37352	0.95084	0.19559	-0.472
Mof_Eu	Eu	0.80655	0.4193	0.85895	2.138
Mof_Eu	Eu	0.64046	0.17409	0.84379	2.141
Mof_Eu	Eu	0.61275	0.4193	0.35895	2.138
Mof_Eu	Eu	0.53363	0.17409	0.34379	2.141
Mof_H 	H 	0.6132	0.19	0.6903	0.007
Mof_H 	H 	0.8582	0.3894	0.7153	0.007
Mof_H 	H 	0.8633	0.4004	0.6392	0.092
Mof_H 	H 	0.8324	0.4062	0.5573	0.091
Mof_H 	H 	0.5398	0.2004	0.4952	0.022
Mof_H 	H 	0.7719	0.4002	0.4843	0.015
Mof_H 	H 	0.9353	0.1482	0.8446	0.019
Mof_H 	H 	0.0529	0.3824	0.8552	-0.018
Mof_H 	H 	0.0919	0.1456	0.8483	0.076
Mof_H 	H 	0.2663	0.1648	0.8505	0.084
Mof_H 	H 	0.4343	0.2026	0.8493	-0.074
Mof_H 	H 	0.4758	0.4298	0.8587	0.02
Mof_H 	H 	0.776	0.6694	0.9016	0.055
Mof_H 	H 	0.7517	0.5982	0.7655	0.057
Mof_H 	H 	0.7133	0.702	0.7524	0.055
Mof_H 	H 	0.674	0.8194	0.7522	0.062
Mof_H 	H 	0.6894	0.9512	0.9004	0.06
Mof_H 	H 	0.6471	0.9336	0.7637	0.049
Mof_H 	H 	0.5768	0.19	0.1903	0.007
Mof_H 	H 	0.5312	0.3894	0.2153	0.007
Mof_H 	H 	0.5371	0.4004	0.1392	0.092
Mof_H 	H 	0.5738	0.4062	0.0573	0.091
Mof_H 	H 	0.6606	0.2004	0.9952	0.021
Mof_H 	H 	0.6283	0.4002	0.9843	0.015
Mof_H 	H 	0.2129	0.1482	0.3446	0.019
Mof_H 	H 	0.3295	0.3824	0.3552	-0.018
Mof_H 	H 	0.0537	0.1456	0.3483	0.077
Mof_H 	H 	0.8985	0.1648	0.3505	0.084
Mof_H 	H 	0.7683	0.2026	0.3493	-0.074
Mof_H 	H 	0.954	0.4298	0.3587	0.02
Mof_H 	H 	0.8934	0.6694	0.4016	0.055
Mof_H 	H 	0.8465	0.5982	0.2655	0.058
Mof_H 	H 	0.9887	0.702	0.2524	0.055
Mof_H 	H 	0.1454	0.8194	0.2522	0.063
Mof_H 	H 	0.2618	0.9512	0.4004	0.06
Mof_H 	H 	0.2865	0.9336	0.2637	0.049
Mof_C 	C 	0.73245	0.2839	0.7609	0.534
Mof_C 	C 	0.73467	0.28894	0.711	-0.197
Mof_C 	C 	0.66284	0.23388	0.6805	0.097
Mof_C 	C 	0.80852	0.35144	0.6945	0.104
Mof_C 	C 	0.66502	0.24424	0.6353	-0.106
Mof_C 	C 	0.81094	0.35908	0.6497	-0.133
Mof_C 	C 	0.73568	0.30556	0.6194	0.071
Mof_C 	C 	0.71805	0.3085	0.571	0.058
Mof_C 	C 	0.63159	0.24818	0.5518	-0.094
Mof_C 	C 	0.77218	0.36556	0.5452	-0.119
Mof_C 	C 	0.59721	0.24322	0.5082	0.08
Mof_C 	C 	0.736	0.3614	0.5021	0.084
Mof_C 	C 	0.64804	0.30188	0.48348	-0.186
Mof_C 	C 	0.60664	0.30508	0.43832	0.493
Mof_C 	C 	0.87759	0.26198	0.85215	0.521
Mof_C 	C 	0.98026	0.26512	0.8511	-0.201
Mof_C 	C 	0.9918	0.1956	0.8477	0.087
Mof_C 	C 	0.05967	0.33414	0.8533	0.097
Mof_C 	C 	0.0846	0.1934	0.8487	-0.127
Mof_C 	C 	0.15292	0.32984	0.8526	-0.106
Mof_C 	C 	0.1646	0.2618	0.8504	0.053
Mof_C 	C 	0.27085	0.2725	0.8512	0.076
Mof_C 	C 	0.3081	0.2178	0.8508	-0.178
Mof_C 	C 	0.33138	0.35016	0.854	-0.111
Mof_C 	C 	0.4073	0.2408	0.8508	0.135
Mof_C 	C 	0.4341	0.3762	0.8557	0.096
Mof_C 	C 	0.47046	0.31892	0.8529	-0.212
Mof_C 	C 	0.5797	0.3398	0.85179	0.496
Mof_C 	C 	0.79177	0.55634	0.8417	0.315
Mof_C 	C 	0.76793	0.62486	0.8343	-0.064
Mof_C 	C 	0.76342	0.67604	0.8716	0.01
Mof_C 	C 	0.74904	0.63448	0.7905	0.001
Mof_C 	C 	0.7397	0.7374	0.8632	-0.06
Mof_C 	C 	0.72623	0.69606	0.7826	-0.075
Mof_C 	C 	0.72253	0.74906	0.8192	0.027
Mof_C 	C 	0.70131	0.81942	0.8195	0.034
Mof_C 	C 	0.70428	0.85756	0.86234	-0.062
Mof_C 	C 	0.67828	0.84656	0.78206	-0.079
Mof_C 	C 	0.68686	0.92532	0.8704	0.021
Mof_C 	C 	0.66163	0.91386	0.7891	0.018
Mof_C 	C 	0.66581	0.95362	0.8329	-0.079
Mof_C 	C 	0.65055	0.0275	0.83924	0.322
Mof_C 	C 	0.55145	0.2839	0.2609	0.534
Mof_C 	C 	0.55427	0.28894	0.211	-0.197
Mof_C 	C 	0.57104	0.23388	0.1805	0.097
Mof_C 	C 	0.54292	0.35144	0.1945	0.104
Mof_C 	C 	0.57922	0.24424	0.1353	-0.106
Mof_C 	C 	0.54814	0.35908	0.1497	-0.133
Mof_C 	C 	0.56988	0.30556	0.1194	0.071
Mof_C 	C 	0.59045	0.3085	0.071	0.058
Mof_C 	C 	0.61659	0.24818	0.0518	-0.095
Mof_C 	C 	0.59338	0.36556	0.0452	-0.119
Mof_C 	C 	0.64601	0.24322	0.0082	0.081
Mof_C 	C 	0.6254	0.3614	0.0021	0.084
Mof_C 	C 	0.65384	0.30188	0.98348	-0.186
Mof_C 	C 	0.69844	0.30508	0.93832	0.494
Mof_C 	C 	0.38439	0.26198	0.35215	0.521
Mof_C 	C 	0.28486	0.26512	0.3511	-0.201
Mof_C 	C 	0.2038	0.1956	0.3477	0.088
Mof_C 	C 	0.27447	0.33414	0.3533	0.097
Mof_C 	C 	0.1088	0.1934	0.3487	-0.127
Mof_C 	C 	0.17692	0.32984	0.3526	-0.106
Mof_C 	C 	0.0972	0.2618	0.3504	0.053
Mof_C 	C 	0.00165	0.2725	0.3512	0.076
Mof_C 	C 	0.9097	0.2178	0.3508	-0.178
Mof_C 	C 	0.01878	0.35016	0.354	-0.111
Mof_C 	C 	0.8335	0.2408	0.3508	0.135
Mof_C 	C 	0.9421	0.3762	0.3557	0.096
Mof_C 	C 	0.84846	0.31892	0.3529	-0.212
Mof_C 	C 	0.7601	0.3398	0.35179	0.496
Mof_C 	C 	0.76457	0.55634	0.3417	0.315
Mof_C 	C 	0.85693	0.62486	0.3343	-0.064
Mof_C 	C 	0.91262	0.67604	0.3716	0.01
Mof_C 	C 	0.88544	0.63448	0.2905	0.001
Mof_C 	C 	0.9977	0.7374	0.3632	-0.059
Mof_C 	C 	0.96983	0.69606	0.2826	-0.075
Mof_C 	C 	0.02653	0.74906	0.3192	0.027
Mof_C 	C 	0.11811	0.81942	0.3195	0.034
Mof_C 	C 	0.15328	0.85756	0.36234	-0.062
Mof_C 	C 	0.16828	0.84656	0.28206	-0.08
Mof_C 	C 	0.23846	0.92532	0.3704	0.021
Mof_C 	C 	0.25223	0.91386	0.2891	0.018
Mof_C 	C 	0.28781	0.95362	0.3329	-0.08
Mof_C 	C 	0.37695	0.0275	0.33924	0.322
Mof_S 	S 	0.57416	0.18746	0.59196	0.345
Mof_S 	S 	0.26645	0.40958	0.85285	0.338
Mof_S 	S 	0.73228	0.81094	0.90418	0.315
Mof_S 	S 	0.6133	0.18746	0.09196	0.345
Mof_S 	S 	0.14313	0.40958	0.35285	0.338
Mof_S 	S 	0.07866	0.81094	0.40418	0.315
Mof_O 	O 	0.68533	0.21906	0.77232	-0.555
Mof_O 	O 	0.77863	0.34646	0.78671	-0.58
Mof_O 	O 	0.57507	0.11134	0.58043	-0.223
Mof_O 	O 	0.4824	0.192	0.60184	-0.23
Mof_O 	O 	0.54407	0.24194	0.41749	-0.553
Mof_O 	O 	0.63701	0.37002	0.42506	-0.55
Mof_O 	O 	0.8082	0.1974	0.84068	-0.534
Mof_O 	O 	0.8699	0.3256	0.86403	-0.605
Mof_O 	O 	0.27875	0.4395	0.8096	-0.225
Mof_O 	O 	0.285	0.4638	0.8935	-0.237
Mof_O 	O 	0.6092	0.2856	0.84766	-0.639
Mof_O 	O 	0.63608	0.40936	0.85428	-0.48
Mof_O 	O 	0.80886	0.54912	0.88216	-0.458
Mof_O 	O 	0.79314	0.50948	0.80809	-0.422
Mof_O 	O 	0.82723	0.85846	0.92671	-0.206
Mof_O 	O 	0.65157	0.78074	0.93257	-0.21
Mof_O 	O 	0.66013	0.06606	0.87809	-0.419
Mof_O 	O 	0.62648	0.04916	0.80441	-0.472
Mof_O 	O 	0.53373	0.21906	0.27232	-0.555
Mof_O 	O 	0.56783	0.34646	0.28671	-0.58
Mof_O 	O 	0.53627	0.11134	0.08043	-0.223
Mof_O 	O 	0.7096	0.192	0.10184	-0.23
Mof_O 	O 	0.69787	0.24194	0.91749	-0.553
Mof_O 	O 	0.73301	0.37002	0.92506	-0.55
Mof_O 	O 	0.3892	0.1974	0.34068	-0.534
Mof_O 	O 	0.4557	0.3256	0.36403	-0.605
Mof_O 	O 	0.16075	0.4395	0.3096	-0.226
Mof_O 	O 	0.1788	0.4638	0.3935	-0.237
Mof_O 	O 	0.6764	0.2856	0.34766	-0.639
Mof_O 	O 	0.77328	0.40936	0.35428	-0.48
Mof_O 	O 	0.74026	0.54912	0.38216	-0.458
Mof_O 	O 	0.71634	0.50948	0.30809	-0.422
Mof_O 	O 	0.03123	0.85846	0.42671	-0.206
Mof_O 	O 	0.12917	0.78074	0.43257	-0.21
Mof_O 	O 	0.40593	0.06606	0.37809	-0.419
Mof_O 	O 	0.42268	0.04916	0.30441	-0.472
_end
