data_functionalizedCrystal
_audit_creation_method	'EQeq! by Chris Wilmer'
_symmetry_space_group_name_H-M	'P1'
_symmetry_Int_Tables_number	1
_symmetry_cell_setting	triclinic
loop_
_symmetry_equiv_pos_as_xyz
  x,y,z
_cell_length_a	15.0135
_cell_length_b	14.9245
_cell_length_c	31.4557
_cell_angle_alpha	90
_cell_angle_beta	98.206
_cell_angle_gamma	90
loop_
_atom_site_label
_atom_site_type_symbol
_atom_site_fract_x
_atom_site_fract_y
_atom_site_fract_z
_atom_site_charge
Mof_Fe	Fe	0.6915	0.52066	0.45083	0.646
Mof_Au	Au	0.44626	0.77261	0.45604	0.046
Mof_Au	Au	0.94965	0.76255	0.44758	0.055
Mof_C 	C 	0.8566	0.6682	0.4509	0.042
Mof_C 	C 	0.5408	0.6838	0.4469	0.04
Mof_C 	C 	0.5378	0.3625	0.4441	0.051
Mof_C 	C 	0.8493	0.3626	0.4604	0.044
Mof_N 	N 	0.7994	0.6173	0.4527	-0.175
Mof_N 	N 	0.5928	0.6286	0.4428	-0.173
Mof_N 	N 	0.5889	0.4193	0.4445	-0.178
Mof_N 	N 	0.7932	0.4153	0.461	-0.173
Mof_N 	N 	0.6902	0.5105	0.3802	-0.182
Mof_C 	C 	0.7676	0.5062	0.364	0.086
Mof_H 	H 	0.8215	0.5118	0.3832	-0.002
Mof_C 	C 	0.7735	0.4939	0.3208	-0.144
Mof_H 	H 	0.83	0.4892	0.3114	0.078
Mof_C 	C 	0.6952	0.4886	0.2915	0.075
Mof_C 	C 	0.6137	0.4957	0.3079	-0.14
Mof_H 	H 	0.5588	0.4942	0.2894	0.095
Mof_C 	C 	0.6147	0.505	0.3518	0.086
Mof_H 	H 	0.5592	0.5075	0.3623	0.008
Mof_C 	C 	0.6988	0.4756	0.2444	0.039
Mof_C 	C 	0.7725	0.4385	0.229	-0.053
Mof_H 	H 	0.8226	0.4188	0.2481	0.047
Mof_N 	N 	0.6254	0.4985	0.1746	-0.084
Mof_N 	N 	0.6265	0.504	0.2175	-0.083
Mof_C 	C 	0.7713	0.4309	0.1858	-0.054
Mof_H 	H 	0.8198	0.4051	0.1743	0.047
Mof_C 	C 	0.6961	0.4625	0.1594	0.037
Mof_C 	C 	0.6906	0.4616	0.1109	0.082
Mof_C 	C 	0.6455	0.5289	0.0868	-0.15
Mof_H 	H 	0.6145	0.5734	0.1	0.088
Mof_C 	C 	0.6467	0.53	0.0435	0.087
Mof_H 	H 	0.6163	0.5769	0.0275	-0.004
Mof_C 	C 	0.728	0.4019	0.0453	0.091
Mof_H 	H 	0.7545	0.3557	0.0311	-0.005
Mof_C 	C 	0.7323	0.3968	0.0896	-0.156
Mof_H 	H 	0.7633	0.3495	0.1049	0.082
Mof_N 	N 	0.6888	0.468	0.0219	-0.186
Mof_Fe	Fe	0.1915	0.02066	0.45083	0.645
Mof_Au	Au	0.94626	0.27261	0.45604	0.045
Mof_Au	Au	0.44965	0.26255	0.44758	0.054
Mof_C 	C 	0.3566	0.1682	0.4509	0.041
Mof_C 	C 	0.0408	0.1838	0.4469	0.039
Mof_C 	C 	0.0378	0.8625	0.4441	0.05
Mof_C 	C 	0.3493	0.8626	0.4604	0.043
Mof_N 	N 	0.2994	0.1173	0.4527	-0.176
Mof_N 	N 	0.0928	0.1286	0.4428	-0.174
Mof_N 	N 	0.0889	0.9193	0.4445	-0.178
Mof_N 	N 	0.2932	0.9153	0.461	-0.174
Mof_N 	N 	0.1902	0.0105	0.3802	-0.183
Mof_C 	C 	0.2676	0.0062	0.364	0.085
Mof_H 	H 	0.3215	0.0118	0.3832	-0.002
Mof_C 	C 	0.2735	0.9939	0.3208	-0.143
Mof_H 	H 	0.33	0.9892	0.3114	0.078
Mof_C 	C 	0.1952	0.9886	0.2915	0.075
Mof_C 	C 	0.1137	0.9957	0.3079	-0.139
Mof_H 	H 	0.0588	0.9942	0.2894	0.095
Mof_C 	C 	0.1147	0.005	0.3518	0.085
Mof_H 	H 	0.0592	0.0075	0.3623	0.008
Mof_C 	C 	0.1988	0.9756	0.2444	0.04
Mof_C 	C 	0.2725	0.9385	0.229	-0.053
Mof_H 	H 	0.3226	0.9188	0.2481	0.047
Mof_N 	N 	0.1254	0.9985	0.1746	-0.083
Mof_N 	N 	0.1265	0.004	0.2175	-0.084
Mof_C 	C 	0.2713	0.9309	0.1858	-0.054
Mof_H 	H 	0.3198	0.9051	0.1743	0.047
Mof_C 	C 	0.1961	0.9625	0.1594	0.037
Mof_C 	C 	0.1906	0.9616	0.1109	0.082
Mof_C 	C 	0.1455	0.0289	0.0868	-0.151
Mof_H 	H 	0.1145	0.0734	0.1	0.089
Mof_C 	C 	0.1467	0.03	0.0435	0.087
Mof_H 	H 	0.1163	0.0769	0.0275	-0.004
Mof_C 	C 	0.228	0.9019	0.0453	0.091
Mof_H 	H 	0.2545	0.8557	0.0311	-0.005
Mof_C 	C 	0.2323	0.8968	0.0896	-0.157
Mof_H 	H 	0.2633	0.8495	0.1049	0.082
Mof_N 	N 	0.1888	0.968	0.0219	-0.186
Mof_Fe	Fe	0.6915	0.47934	0.95083	0.645
Mof_Au	Au	0.44626	0.22739	0.95604	0.045
Mof_Au	Au	0.94965	0.23745	0.94758	0.054
Mof_C 	C 	0.8566	0.3318	0.9509	0.041
Mof_C 	C 	0.5408	0.3162	0.9469	0.039
Mof_C 	C 	0.5378	0.6375	0.9441	0.05
Mof_C 	C 	0.8493	0.6374	0.9604	0.043
Mof_N 	N 	0.7994	0.3827	0.9527	-0.176
Mof_N 	N 	0.5928	0.3714	0.9428	-0.174
Mof_N 	N 	0.5889	0.5807	0.9445	-0.179
Mof_N 	N 	0.7932	0.5847	0.961	-0.174
Mof_N 	N 	0.6902	0.4895	0.8802	-0.183
Mof_C 	C 	0.7676	0.4938	0.864	0.086
Mof_H 	H 	0.8215	0.4882	0.8832	-0.002
Mof_C 	C 	0.7735	0.5061	0.8208	-0.144
Mof_H 	H 	0.83	0.5108	0.8114	0.078
Mof_C 	C 	0.6952	0.5114	0.7915	0.075
Mof_C 	C 	0.6137	0.5043	0.8079	-0.14
Mof_H 	H 	0.5588	0.5058	0.7894	0.095
Mof_C 	C 	0.6147	0.495	0.8518	0.086
Mof_H 	H 	0.5592	0.4925	0.8623	0.008
Mof_C 	C 	0.6988	0.5244	0.7444	0.039
Mof_C 	C 	0.7725	0.5615	0.729	-0.053
Mof_H 	H 	0.8226	0.5812	0.7481	0.047
Mof_N 	N 	0.6254	0.5015	0.6746	-0.084
Mof_N 	N 	0.6265	0.496	0.7175	-0.083
Mof_C 	C 	0.7713	0.5691	0.6858	-0.054
Mof_H 	H 	0.8198	0.5949	0.6743	0.047
Mof_C 	C 	0.6961	0.5375	0.6594	0.037
Mof_C 	C 	0.6906	0.5384	0.6109	0.082
Mof_C 	C 	0.6455	0.4711	0.5868	-0.15
Mof_H 	H 	0.6145	0.4266	0.6	0.088
Mof_C 	C 	0.6467	0.47	0.5435	0.087
Mof_H 	H 	0.6163	0.4231	0.5275	-0.004
Mof_C 	C 	0.728	0.5981	0.5453	0.091
Mof_H 	H 	0.7545	0.6443	0.5311	-0.005
Mof_C 	C 	0.7323	0.6032	0.5896	-0.156
Mof_H 	H 	0.7633	0.6505	0.6049	0.082
Mof_N 	N 	0.6888	0.532	0.5219	-0.186
Mof_Fe	Fe	0.1915	0.97934	0.95083	0.644
Mof_Au	Au	0.94626	0.72739	0.95604	0.045
Mof_Au	Au	0.44965	0.73745	0.94758	0.053
Mof_C 	C 	0.3566	0.8318	0.9509	0.041
Mof_C 	C 	0.0408	0.8162	0.9469	0.039
Mof_C 	C 	0.0378	0.1375	0.9441	0.051
Mof_C 	C 	0.3493	0.1374	0.9604	0.043
Mof_N 	N 	0.2994	0.8827	0.9527	-0.176
Mof_N 	N 	0.0928	0.8714	0.9428	-0.174
Mof_N 	N 	0.0889	0.0807	0.9445	-0.178
Mof_N 	N 	0.2932	0.0847	0.961	-0.173
Mof_N 	N 	0.1902	0.9895	0.8802	-0.183
Mof_C 	C 	0.2676	0.9938	0.864	0.085
Mof_H 	H 	0.3215	0.9882	0.8832	-0.002
Mof_C 	C 	0.2735	0.0061	0.8208	-0.143
Mof_H 	H 	0.33	0.0108	0.8114	0.078
Mof_C 	C 	0.1952	0.0114	0.7915	0.074
Mof_C 	C 	0.1137	0.0043	0.8079	-0.138
Mof_H 	H 	0.0588	0.0058	0.7894	0.095
Mof_C 	C 	0.1147	0.995	0.8518	0.085
Mof_H 	H 	0.0592	0.9925	0.8623	0.008
Mof_C 	C 	0.1988	0.0244	0.7444	0.04
Mof_C 	C 	0.2725	0.0615	0.729	-0.053
Mof_H 	H 	0.3226	0.0812	0.7481	0.047
Mof_N 	N 	0.1254	0.0015	0.6746	-0.084
Mof_N 	N 	0.1265	0.996	0.7175	-0.084
Mof_C 	C 	0.2713	0.0691	0.6858	-0.054
Mof_H 	H 	0.3198	0.0949	0.6743	0.047
Mof_C 	C 	0.1961	0.0375	0.6594	0.037
Mof_C 	C 	0.1906	0.0384	0.6109	0.082
Mof_C 	C 	0.1455	0.9711	0.5868	-0.151
Mof_H 	H 	0.1145	0.9266	0.6	0.089
Mof_C 	C 	0.1467	0.97	0.5435	0.087
Mof_H 	H 	0.1163	0.9231	0.5275	-0.004
Mof_C 	C 	0.228	0.0981	0.5453	0.091
Mof_H 	H 	0.2545	0.1443	0.5311	-0.005
Mof_C 	C 	0.2323	0.1032	0.5896	-0.156
Mof_H 	H 	0.2633	0.1505	0.6049	0.082
Mof_N 	N 	0.1888	0.032	0.5219	-0.186
Mof_Fe	Fe	0.3085	0.52066	0.04917	0.645
Mof_Au	Au	0.55374	0.77261	0.04396	0.045
Mof_Au	Au	0.05035	0.76255	0.05242	0.054
Mof_C 	C 	0.1434	0.6682	0.0491	0.041
Mof_C 	C 	0.4592	0.6838	0.0531	0.039
Mof_C 	C 	0.4622	0.3625	0.0559	0.05
Mof_C 	C 	0.1507	0.3626	0.0396	0.043
Mof_N 	N 	0.2006	0.6173	0.0473	-0.176
Mof_N 	N 	0.4072	0.6286	0.0572	-0.174
Mof_N 	N 	0.4111	0.4193	0.0555	-0.179
Mof_N 	N 	0.2068	0.4153	0.039	-0.174
Mof_N 	N 	0.3098	0.5105	0.1198	-0.183
Mof_C 	C 	0.2324	0.5062	0.136	0.086
Mof_H 	H 	0.1785	0.5118	0.1168	-0.002
Mof_C 	C 	0.2265	0.4939	0.1792	-0.144
Mof_H 	H 	0.17	0.4892	0.1886	0.078
Mof_C 	C 	0.3048	0.4886	0.2085	0.075
Mof_C 	C 	0.3863	0.4957	0.1921	-0.14
Mof_H 	H 	0.4412	0.4942	0.2106	0.095
Mof_C 	C 	0.3853	0.505	0.1482	0.086
Mof_H 	H 	0.4408	0.5075	0.1377	0.008
Mof_C 	C 	0.3012	0.4756	0.2556	0.039
Mof_C 	C 	0.2275	0.4385	0.271	-0.053
Mof_H 	H 	0.1774	0.4188	0.2519	0.047
Mof_N 	N 	0.3746	0.4985	0.3254	-0.084
Mof_N 	N 	0.3735	0.504	0.2825	-0.083
Mof_C 	C 	0.2287	0.4309	0.3142	-0.054
Mof_H 	H 	0.1802	0.4051	0.3257	0.047
Mof_C 	C 	0.3039	0.4625	0.3406	0.037
Mof_C 	C 	0.3094	0.4616	0.3891	0.082
Mof_C 	C 	0.3545	0.5289	0.4132	-0.15
Mof_H 	H 	0.3855	0.5734	0.4	0.088
Mof_C 	C 	0.3533	0.53	0.4565	0.087
Mof_H 	H 	0.3837	0.5769	0.4725	-0.004
Mof_C 	C 	0.272	0.4019	0.4547	0.091
Mof_H 	H 	0.2455	0.3557	0.4689	-0.005
Mof_C 	C 	0.2677	0.3968	0.4104	-0.156
Mof_H 	H 	0.2367	0.3495	0.3951	0.082
Mof_N 	N 	0.3112	0.468	0.4781	-0.186
Mof_Fe	Fe	0.8085	0.02066	0.04917	0.644
Mof_Au	Au	0.05374	0.27261	0.04396	0.045
Mof_Au	Au	0.55035	0.26255	0.05242	0.053
Mof_C 	C 	0.6434	0.1682	0.0491	0.041
Mof_C 	C 	0.9592	0.1838	0.0531	0.039
Mof_C 	C 	0.9622	0.8625	0.0559	0.051
Mof_C 	C 	0.6507	0.8626	0.0396	0.043
Mof_N 	N 	0.7006	0.1173	0.0473	-0.176
Mof_N 	N 	0.9072	0.1286	0.0572	-0.174
Mof_N 	N 	0.9111	0.9193	0.0555	-0.178
Mof_N 	N 	0.7068	0.9153	0.039	-0.173
Mof_N 	N 	0.8098	0.0105	0.1198	-0.183
Mof_C 	C 	0.7324	0.0062	0.136	0.085
Mof_H 	H 	0.6785	0.0118	0.1168	-0.002
Mof_C 	C 	0.7265	0.9939	0.1792	-0.143
Mof_H 	H 	0.67	0.9892	0.1886	0.078
Mof_C 	C 	0.8048	0.9886	0.2085	0.074
Mof_C 	C 	0.8863	0.9957	0.1921	-0.138
Mof_H 	H 	0.9412	0.9942	0.2106	0.095
Mof_C 	C 	0.8853	0.005	0.1482	0.085
Mof_H 	H 	0.9408	0.0075	0.1377	0.008
Mof_C 	C 	0.8012	0.9756	0.2556	0.04
Mof_C 	C 	0.7275	0.9385	0.271	-0.053
Mof_H 	H 	0.6774	0.9188	0.2519	0.047
Mof_N 	N 	0.8746	0.9985	0.3254	-0.084
Mof_N 	N 	0.8735	0.004	0.2825	-0.084
Mof_C 	C 	0.7287	0.9309	0.3142	-0.054
Mof_H 	H 	0.6802	0.9051	0.3257	0.047
Mof_C 	C 	0.8039	0.9625	0.3406	0.037
Mof_C 	C 	0.8094	0.9616	0.3891	0.082
Mof_C 	C 	0.8545	0.0289	0.4132	-0.151
Mof_H 	H 	0.8855	0.0734	0.4	0.089
Mof_C 	C 	0.8533	0.03	0.4565	0.087
Mof_H 	H 	0.8837	0.0769	0.4725	-0.004
Mof_C 	C 	0.772	0.9019	0.4547	0.091
Mof_H 	H 	0.7455	0.8557	0.4689	-0.005
Mof_C 	C 	0.7677	0.8968	0.4104	-0.156
Mof_H 	H 	0.7367	0.8495	0.3951	0.082
Mof_N 	N 	0.8112	0.968	0.4781	-0.186
Mof_Fe	Fe	0.3085	0.47934	0.54917	0.645
Mof_Au	Au	0.55374	0.22739	0.54396	0.045
Mof_Au	Au	0.05035	0.23745	0.55242	0.054
Mof_C 	C 	0.1434	0.3318	0.5491	0.041
Mof_C 	C 	0.4592	0.3162	0.5531	0.039
Mof_C 	C 	0.4622	0.6375	0.5559	0.05
Mof_C 	C 	0.1507	0.6374	0.5396	0.043
Mof_N 	N 	0.2006	0.3827	0.5473	-0.176
Mof_N 	N 	0.4072	0.3714	0.5572	-0.174
Mof_N 	N 	0.4111	0.5807	0.5555	-0.179
Mof_N 	N 	0.2068	0.5847	0.539	-0.174
Mof_N 	N 	0.3098	0.4895	0.6198	-0.183
Mof_C 	C 	0.2324	0.4938	0.636	0.086
Mof_H 	H 	0.1785	0.4882	0.6168	-0.002
Mof_C 	C 	0.2265	0.5061	0.6792	-0.144
Mof_H 	H 	0.17	0.5108	0.6886	0.078
Mof_C 	C 	0.3048	0.5114	0.7085	0.075
Mof_C 	C 	0.3863	0.5043	0.6921	-0.14
Mof_H 	H 	0.4412	0.5058	0.7106	0.095
Mof_C 	C 	0.3853	0.495	0.6482	0.086
Mof_H 	H 	0.4408	0.4925	0.6377	0.008
Mof_C 	C 	0.3012	0.5244	0.7556	0.039
Mof_C 	C 	0.2275	0.5615	0.771	-0.053
Mof_H 	H 	0.1774	0.5812	0.7519	0.047
Mof_N 	N 	0.3746	0.5015	0.8254	-0.084
Mof_N 	N 	0.3735	0.496	0.7825	-0.083
Mof_C 	C 	0.2287	0.5691	0.8142	-0.054
Mof_H 	H 	0.1802	0.5949	0.8257	0.047
Mof_C 	C 	0.3039	0.5375	0.8406	0.037
Mof_C 	C 	0.3094	0.5384	0.8891	0.082
Mof_C 	C 	0.3545	0.4711	0.9132	-0.15
Mof_H 	H 	0.3855	0.4266	0.9	0.088
Mof_C 	C 	0.3533	0.47	0.9565	0.087
Mof_H 	H 	0.3837	0.4231	0.9725	-0.004
Mof_C 	C 	0.272	0.5981	0.9547	0.091
Mof_H 	H 	0.2455	0.6443	0.9689	-0.005
Mof_C 	C 	0.2677	0.6032	0.9104	-0.156
Mof_H 	H 	0.2367	0.6505	0.8951	0.082
Mof_N 	N 	0.3112	0.532	0.9781	-0.186
Mof_Fe	Fe	0.8085	0.97934	0.54917	0.645
Mof_Au	Au	0.05374	0.72739	0.54396	0.045
Mof_Au	Au	0.55035	0.73745	0.55242	0.054
Mof_C 	C 	0.6434	0.8318	0.5491	0.041
Mof_C 	C 	0.9592	0.8162	0.5531	0.039
Mof_C 	C 	0.9622	0.1375	0.5559	0.05
Mof_C 	C 	0.6507	0.1374	0.5396	0.043
Mof_N 	N 	0.7006	0.8827	0.5473	-0.176
Mof_N 	N 	0.9072	0.8714	0.5572	-0.174
Mof_N 	N 	0.9111	0.0807	0.5555	-0.178
Mof_N 	N 	0.7068	0.0847	0.539	-0.174
Mof_N 	N 	0.8098	0.9895	0.6198	-0.183
Mof_C 	C 	0.7324	0.9938	0.636	0.085
Mof_H 	H 	0.6785	0.9882	0.6168	-0.002
Mof_C 	C 	0.7265	0.0061	0.6792	-0.143
Mof_H 	H 	0.67	0.0108	0.6886	0.078
Mof_C 	C 	0.8048	0.0114	0.7085	0.075
Mof_C 	C 	0.8863	0.0043	0.6921	-0.139
Mof_H 	H 	0.9412	0.0058	0.7106	0.095
Mof_C 	C 	0.8853	0.995	0.6482	0.085
Mof_H 	H 	0.9408	0.9925	0.6377	0.008
Mof_C 	C 	0.8012	0.0244	0.7556	0.04
Mof_C 	C 	0.7275	0.0615	0.771	-0.053
Mof_H 	H 	0.6774	0.0812	0.7519	0.047
Mof_N 	N 	0.8746	0.0015	0.8254	-0.083
Mof_N 	N 	0.8735	0.996	0.7825	-0.084
Mof_C 	C 	0.7287	0.0691	0.8142	-0.054
Mof_H 	H 	0.6802	0.0949	0.8257	0.047
Mof_C 	C 	0.8039	0.0375	0.8406	0.037
Mof_C 	C 	0.8094	0.0384	0.8891	0.082
Mof_C 	C 	0.8545	0.9711	0.9132	-0.151
Mof_H 	H 	0.8855	0.9266	0.9	0.089
Mof_C 	C 	0.8533	0.97	0.9565	0.087
Mof_H 	H 	0.8837	0.9231	0.9725	-0.004
Mof_C 	C 	0.772	0.0981	0.9547	0.091
Mof_H 	H 	0.7455	0.1443	0.9689	-0.005
Mof_C 	C 	0.7677	0.1032	0.9104	-0.157
Mof_H 	H 	0.7367	0.1505	0.8951	0.082
Mof_N 	N 	0.8112	0.032	0.9781	-0.186
_end
