data_functionalizedCrystal
_audit_creation_method	'EQeq! by Chris Wilmer'
_symmetry_space_group_name_H-M	'P1'
_symmetry_Int_Tables_number	1
_symmetry_cell_setting	triclinic
loop_
_symmetry_equiv_pos_as_xyz
  x,y,z
_cell_length_a	17.5123
_cell_length_b	18.1004
_cell_length_c	18.1084
_cell_angle_alpha	90
_cell_angle_beta	92.118
_cell_angle_gamma	90
loop_
_atom_site_label
_atom_site_type_symbol
_atom_site_fract_x
_atom_site_fract_y
_atom_site_fract_z
_atom_site_charge
Mof_C 	C 	0.6767	0.8798	0.9931	0.292
Mof_C 	C 	0.4834	0.1808	0.9339	0.285
Mof_C 	C 	0.7486	0.0867	0.7033	0.289
Mof_C 	C 	0.82	0.937	0.499	0.306
Mof_C 	C 	0.0307	0.6452	0.4344	0.304
Mof_C 	C 	0.7453	0.7346	0.2042	0.307
Mof_C 	C 	0.5962	0.9055	0.9721	0.027
Mof_C 	C 	0.4913	0.1528	0.8528	0.067
Mof_C 	C 	0.7195	0.0069	0.7251	-0.006
Mof_C 	C 	0.9002	0.9106	0.4798	0.037
Mof_C 	C 	0.0139	0.6715	0.3523	0.038
Mof_C 	C 	0.772	0.8128	0.2272	0.049
Mof_C 	C 	0.5559	0.9348	0.0394	0.334
Mof_C 	C 	0.5179	0.2191	0.8053	0.284
Mof_C 	C 	0.7877	0.9601	0.7526	0.327
Mof_C 	C 	0.9464	0.8829	0.5517	0.332
Mof_C 	C 	0.9861	0.6107	0.3034	0.296
Mof_C 	C 	0.7034	0.8614	0.252	0.298
Mof_O 	O 	0.7283	0.8947	0.9503	-0.333
Mof_O 	O 	0.5152	0.1418	0.9846	-0.351
Mof_O 	O 	0.7082	0.1409	0.7242	-0.346
Mof_O 	O 	0.7669	0.9158	0.456	-0.318
Mof_O 	O 	0.0018	0.6822	0.4855	-0.334
Mof_O 	O 	0.7844	0.6807	0.2289	-0.33
Mof_O 	O 	0.6884	0.8404	0.0513	-0.364
Mof_O 	O 	0.4428	0.2363	0.9459	-0.388
Mof_O 	O 	0.8054	0.0945	0.6645	-0.385
Mof_O 	O 	0.8076	0.9734	0.5562	-0.357
Mof_O 	O 	0.0716	0.588	0.4451	-0.376
Mof_O 	O 	0.6871	0.7283	0.1624	-0.386
Mof_O 	O 	0.5985	0.9597	0.9164	-0.41
Mof_O 	O 	0.5447	0.0961	0.851	-0.448
Mof_O 	O 	0.6651	0.0134	0.7769	-0.435
Mof_O 	O 	0.8989	0.8598	0.4254	-0.415
Mof_O 	O 	0.9597	0.7289	0.3543	-0.4
Mof_O 	O 	0.8293	0.8098	0.2807	-0.396
Mof_O 	O 	0.5547	0.845	0.9416	-0.313
Mof_H 	H 	0.5538	0.8115	0.9721	0.244
Mof_O 	O 	0.4219	0.1242	0.8283	-0.343
Mof_H 	H 	0.3892	0.1565	0.8292	0.25
Mof_O 	O 	0.6886	0.9748	0.6607	-0.277
Mof_H 	H 	0.7212	0.9734	0.6294	0.242
Mof_O 	O 	0.9392	0.976	0.4533	-0.26
Mof_H 	H 	0.9411	0.0074	0.4859	0.182
Mof_O 	O 	0.0823	0.7038	0.3284	-0.322
Mof_H 	H 	0.1158	0.6722	0.3274	0.243
Mof_O 	O 	0.8038	0.8459	0.1644	-0.324
Mof_H 	H 	0.7709	0.8488	0.131	0.242
Mof_O 	O 	0.5406	0.8922	0.0904	-0.368
Mof_O 	O 	0.4757	0.2734	0.7966	-0.351
Mof_O 	O 	0.782	0.9297	0.8163	-0.332
Mof_O 	O 	0.9576	0.9277	0.6025	-0.353
Mof_O 	O 	0.0305	0.5549	0.2938	-0.364
Mof_O 	O 	0.649	0.8744	0.2094	-0.371
Mof_O 	O 	0.5357	0.0034	0.0397	-0.371
Mof_O 	O 	0.5808	0.2099	0.7739	-0.33
Mof_O 	O 	0.8445	0.9488	0.7152	-0.354
Mof_O 	O 	0.9649	0.8171	0.5489	-0.337
Mof_O 	O 	0.9219	0.6162	0.2735	-0.331
Mof_O 	O 	0.7099	0.8845	0.3199	-0.323
Mof_Cu	Cu	0.69372	0.95805	0.86792	0.919
Mof_Cu	Cu	0.56111	0.05332	0.94901	0.897
Mof_Cu	Cu	0.63049	0.11478	0.79196	0.905
Mof_Cu	Cu	0.80276	0.86189	0.3705	0.934
Mof_Cu	Cu	0.94458	0.76664	0.45514	0.934
Mof_Cu	Cu	0.86839	0.70681	0.2955	0.932
Mof_Zn	Zn	0.60639	0.80806	0.12973	1.249
Mof_Zn	Zn	0.88863	0.01352	0.63458	1.232
Mof_Br	Br	0.79656	0.70412	0.4252	-0.406
Mof_C 	C 	0.3233	0.3798	0.0069	0.28
Mof_C 	C 	0.5166	0.6808	0.0661	0.286
Mof_C 	C 	0.2514	0.5867	0.2967	0.28
Mof_C 	C 	0.18	0.437	0.501	0.3
Mof_C 	C 	0.9693	0.1452	0.5656	0.304
Mof_C 	C 	0.2547	0.2346	0.7958	0.305
Mof_C 	C 	0.4038	0.4055	0.0279	0.039
Mof_C 	C 	0.5087	0.6528	0.1472	0.066
Mof_C 	C 	0.2805	0.5069	0.2749	0.071
Mof_C 	C 	0.0998	0.4106	0.5202	0.046
Mof_C 	C 	0.9861	0.1715	0.6477	0.031
Mof_C 	C 	0.228	0.3128	0.7728	0.049
Mof_C 	C 	0.4441	0.4348	0.9606	0.285
Mof_C 	C 	0.4821	0.7191	0.1947	0.286
Mof_C 	C 	0.2123	0.4601	0.2474	0.276
Mof_C 	C 	0.0536	0.3829	0.4483	0.329
Mof_C 	C 	0.0139	0.1107	0.6966	0.303
Mof_C 	C 	0.2966	0.3614	0.748	0.297
Mof_O 	O 	0.2717	0.3947	0.0497	-0.339
Mof_O 	O 	0.4848	0.6418	0.0154	-0.345
Mof_O 	O 	0.2918	0.6409	0.2758	-0.335
Mof_O 	O 	0.2331	0.4158	0.544	-0.324
Mof_O 	O 	0.9982	0.1822	0.5145	-0.344
Mof_O 	O 	0.2156	0.1807	0.7711	-0.335
Mof_O 	O 	0.3116	0.3404	0.9487	-0.361
Mof_O 	O 	0.5572	0.7363	0.0541	-0.386
Mof_O 	O 	0.1946	0.5945	0.3355	-0.368
Mof_O 	O 	0.1924	0.4734	0.4438	-0.376
Mof_O 	O 	0.9284	0.088	0.5549	-0.386
Mof_O 	O 	0.3129	0.2283	0.8376	-0.389
Mof_O 	O 	0.4015	0.4597	0.0836	-0.436
Mof_O 	O 	0.4553	0.5961	0.149	-0.438
Mof_O 	O 	0.3349	0.5134	0.2231	-0.425
Mof_O 	O 	0.1011	0.3598	0.5746	-0.418
Mof_O 	O 	0.0403	0.2289	0.6457	-0.4
Mof_O 	O 	0.1707	0.3098	0.7193	-0.398
Mof_O 	O 	0.4453	0.345	0.0584	-0.325
Mof_H 	H 	0.4462	0.3115	0.0279	0.244
Mof_O 	O 	0.5781	0.6242	0.1717	-0.335
Mof_H 	H 	0.6108	0.6565	0.1708	0.249
Mof_O 	O 	0.3114	0.4748	0.3393	-0.33
Mof_H 	H 	0.2788	0.4734	0.3706	0.25
Mof_O 	O 	0.0608	0.476	0.5467	-0.329
Mof_H 	H 	0.0589	0.5074	0.5141	0.244
Mof_O 	O 	0.9177	0.2038	0.6716	-0.326
Mof_H 	H 	0.8842	0.1722	0.6726	0.241
Mof_O 	O 	0.1962	0.3459	0.8356	-0.328
Mof_H 	H 	0.2291	0.3488	0.869	0.241
Mof_O 	O 	0.4594	0.3922	0.9096	-0.364
Mof_O 	O 	0.5243	0.7734	0.2034	-0.346
Mof_O 	O 	0.218	0.4297	0.1837	-0.334
Mof_O 	O 	0.0424	0.4277	0.3975	-0.374
Mof_O 	O 	0.9695	0.0549	0.7062	-0.382
Mof_O 	O 	0.351	0.3744	0.7906	-0.377
Mof_O 	O 	0.4643	0.5034	0.9603	-0.322
Mof_O 	O 	0.4192	0.7099	0.2261	-0.323
Mof_O 	O 	0.1555	0.4488	0.2848	-0.36
Mof_O 	O 	0.0351	0.3171	0.4511	-0.343
Mof_O 	O 	0.0781	0.1162	0.7265	-0.34
Mof_O 	O 	0.2901	0.3845	0.6801	-0.329
Mof_Cu	Cu	0.30628	0.45805	0.13208	0.907
Mof_Cu	Cu	0.43889	0.55332	0.05099	0.909
Mof_Cu	Cu	0.36951	0.61478	0.20804	0.909
Mof_Cu	Cu	0.19724	0.36189	0.6295	0.933
Mof_Cu	Cu	0.05542	0.26664	0.54486	0.933
Mof_Cu	Cu	0.13161	0.20681	0.7045	0.932
Mof_Zn	Zn	0.39361	0.30806	0.87027	1.248
Mof_Zn	Zn	0.11137	0.51352	0.36542	1.245
Mof_Br	Br	0.20344	0.20412	0.5748	-0.417
_end
