data_functionalizedCrystal
_audit_creation_method	'EQeq! by Chris Wilmer'
_symmetry_space_group_name_H-M	'P1'
_symmetry_Int_Tables_number	1
_symmetry_cell_setting	triclinic
loop_
_symmetry_equiv_pos_as_xyz
  x,y,z
_cell_length_a	7.5417
_cell_length_b	17.885
_cell_length_c	23.764
_cell_angle_alpha	92.498
_cell_angle_beta	90
_cell_angle_gamma	90
loop_
_atom_site_label
_atom_site_type_symbol
_atom_site_fract_x
_atom_site_fract_y
_atom_site_fract_z
_atom_site_charge
Mof_Zn	Zn	0.97385	0.92156	0.96861	1.192
Mof_Zn	Zn	0.29444	0.99051	0.91267	1.226
Mof_Zn	Zn	0.97385	0.57844	0.53139	1.194
Mof_Zn	Zn	0.29444	0.50949	0.58733	1.227
Mof_Zn	Zn	0.02615	0.07844	0.03139	1.193
Mof_Zn	Zn	0.70556	0.00949	0.08733	1.227
Mof_Zn	Zn	0.02615	0.42156	0.46861	1.194
Mof_Zn	Zn	0.70556	0.49051	0.41267	1.227
Mof_H 	H 	0.495	0.9099	0.7312	0.166
Mof_H 	H 	0.743	0.1762	0.7288	0.231
Mof_H 	H 	0.7397	0.8261	0.6401	0.167
Mof_H 	H 	0.0654	0.0049	0.7585	0.071
Mof_H 	H 	0.9337	0.0093	0.67	0.264
Mof_H 	H 	0.077	0.2125	0.8605	0.226
Mof_H 	H 	0.163	0.7983	0.5719	0.028
Mof_H 	H 	0.5551	0.1089	0.7856	0.076
Mof_H 	H 	0.8872	0.1467	0.9172	-0.048
Mof_H 	H 	0.6242	0.9093	0.8199	-0.003
Mof_H 	H 	0.6294	0.7072	0.6177	-0.011
Mof_H 	H 	0.2762	0.9176	0.5918	0.261
Mof_H 	H 	0.495	0.5901	0.7688	0.165
Mof_H 	H 	0.743	0.3238	0.7712	0.231
Mof_H 	H 	0.7397	0.6739	0.8599	0.167
Mof_H 	H 	0.0654	0.4951	0.7415	0.07
Mof_H 	H 	0.9337	0.4907	0.83	0.26
Mof_H 	H 	0.077	0.2875	0.6395	0.225
Mof_H 	H 	0.163	0.7017	0.9281	0.028
Mof_H 	H 	0.5551	0.3911	0.7144	0.076
Mof_H 	H 	0.8872	0.3533	0.5828	-0.048
Mof_H 	H 	0.6242	0.5907	0.6801	-0.003
Mof_H 	H 	0.6294	0.7928	0.8823	-0.011
Mof_H 	H 	0.2762	0.5824	0.9082	0.261
Mof_H 	H 	0.505	0.0901	0.2688	0.166
Mof_H 	H 	0.257	0.8238	0.2712	0.231
Mof_H 	H 	0.2603	0.1739	0.3599	0.167
Mof_H 	H 	0.9346	0.9951	0.2415	0.071
Mof_H 	H 	0.0663	0.9907	0.33	0.264
Mof_H 	H 	0.923	0.7875	0.1395	0.226
Mof_H 	H 	0.837	0.2017	0.4281	0.028
Mof_H 	H 	0.4449	0.8911	0.2144	0.076
Mof_H 	H 	0.1128	0.8533	0.0828	-0.048
Mof_H 	H 	0.3758	0.0907	0.1801	-0.003
Mof_H 	H 	0.3706	0.2928	0.3823	-0.011
Mof_H 	H 	0.7238	0.0824	0.4082	0.261
Mof_H 	H 	0.505	0.4099	0.2312	0.165
Mof_H 	H 	0.257	0.6762	0.2288	0.231
Mof_H 	H 	0.2603	0.3261	0.1401	0.167
Mof_H 	H 	0.9346	0.5049	0.2585	0.07
Mof_H 	H 	0.0663	0.5093	0.17	0.26
Mof_H 	H 	0.923	0.7125	0.3605	0.225
Mof_H 	H 	0.837	0.2983	0.0719	0.028
Mof_H 	H 	0.4449	0.6089	0.2856	0.076
Mof_H 	H 	0.1128	0.6467	0.4172	-0.048
Mof_H 	H 	0.3758	0.4093	0.3199	-0.003
Mof_H 	H 	0.3706	0.2072	0.1177	-0.011
Mof_H 	H 	0.7238	0.4176	0.0918	0.261
Mof_C 	C 	0.3086	0.66409	0.58051	0.437
Mof_C 	C 	0.6108	0.9298	0.73673	-0.276
Mof_C 	C 	0.9256	0.20415	0.78948	0.387
Mof_C 	C 	0.7715	0.17115	0.7674	-0.277
Mof_C 	C 	0.6994	0.12328	0.85752	-0.187
Mof_C 	C 	0.9451	0.95721	0.85424	0.422
Mof_C 	C 	0.603	0.96104	0.63424	-0.493
Mof_C 	C 	0.5187	0.8839	0.61899	0.377
Mof_C 	C 	0.701	0.9596	0.69138	0.356
Mof_C 	C 	0.8579	0.95706	0.79751	-0.202
Mof_C 	C 	0.6222	0.82057	0.62606	-0.287
Mof_C 	C 	0.9486	0.98614	0.75291	0.17
Mof_C 	C 	0.4625	0.02466	0.6405	0.966
Mof_C 	C 	0.871	0.98826	0.7002	-0.272
Mof_C 	C 	0.9692	0.1929	0.84541	-0.297
Mof_C 	C 	0.1625	0.30663	0.78268	0.972
Mof_C 	C 	0.2808	0.80396	0.58562	0.211
Mof_C 	C 	0.6597	0.13113	0.80119	0.203
Mof_C 	C 	0.7274	0.97944	0.58494	0.96
Mof_C 	C 	0.8568	0.15341	0.87895	0.218
Mof_C 	C 	0.5744	0.08264	0.89454	0.384
Mof_C 	C 	0.6875	0.92898	0.78935	0.174
Mof_C 	C 	0.5566	0.74986	0.61305	0.192
Mof_C 	C 	0.3474	0.87493	0.59784	-0.278
Mof_C 	C 	0.3841	0.7408	0.5931	-0.209
Mof_C 	C 	0.3086	0.83591	0.91949	0.437
Mof_C 	C 	0.6108	0.5702	0.76327	-0.276
Mof_C 	C 	0.9256	0.29585	0.71052	0.387
Mof_C 	C 	0.7715	0.32885	0.7326	-0.277
Mof_C 	C 	0.6994	0.37672	0.64248	-0.187
Mof_C 	C 	0.9451	0.54279	0.64576	0.426
Mof_C 	C 	0.603	0.53896	0.86576	-0.492
Mof_C 	C 	0.5187	0.6161	0.88101	0.376
Mof_C 	C 	0.701	0.5404	0.80862	0.355
Mof_C 	C 	0.8579	0.54294	0.70249	-0.202
Mof_C 	C 	0.6222	0.67943	0.87394	-0.286
Mof_C 	C 	0.9486	0.51386	0.74709	0.172
Mof_C 	C 	0.4625	0.47534	0.8595	0.965
Mof_C 	C 	0.871	0.51174	0.7998	-0.267
Mof_C 	C 	0.9692	0.3071	0.65459	-0.295
Mof_C 	C 	0.1625	0.19337	0.71732	0.972
Mof_C 	C 	0.2808	0.69604	0.91438	0.211
Mof_C 	C 	0.6597	0.36887	0.69881	0.203
Mof_C 	C 	0.7274	0.52056	0.91506	0.961
Mof_C 	C 	0.8568	0.34659	0.62105	0.217
Mof_C 	C 	0.5744	0.41736	0.60546	0.384
Mof_C 	C 	0.6875	0.57102	0.71065	0.175
Mof_C 	C 	0.5566	0.75014	0.88695	0.192
Mof_C 	C 	0.3474	0.62507	0.90216	-0.278
Mof_C 	C 	0.3841	0.7592	0.9069	-0.209
Mof_C 	C 	0.6914	0.33591	0.41949	0.437
Mof_C 	C 	0.3892	0.0702	0.26327	-0.276
Mof_C 	C 	0.0744	0.79585	0.21052	0.387
Mof_C 	C 	0.2285	0.82885	0.2326	-0.277
Mof_C 	C 	0.3006	0.87672	0.14248	-0.187
Mof_C 	C 	0.0549	0.04279	0.14576	0.422
Mof_C 	C 	0.397	0.03896	0.36576	-0.493
Mof_C 	C 	0.4813	0.1161	0.38101	0.377
Mof_C 	C 	0.299	0.0404	0.30862	0.356
Mof_C 	C 	0.1421	0.04294	0.20249	-0.202
Mof_C 	C 	0.3778	0.17943	0.37394	-0.287
Mof_C 	C 	0.0514	0.01386	0.24709	0.17
Mof_C 	C 	0.5375	0.97534	0.3595	0.966
Mof_C 	C 	0.129	0.01174	0.2998	-0.272
Mof_C 	C 	0.0308	0.8071	0.15459	-0.297
Mof_C 	C 	0.8375	0.69337	0.21732	0.972
Mof_C 	C 	0.7192	0.19604	0.41438	0.211
Mof_C 	C 	0.3403	0.86887	0.19881	0.203
Mof_C 	C 	0.2726	0.02056	0.41506	0.96
Mof_C 	C 	0.1432	0.84659	0.12105	0.218
Mof_C 	C 	0.4256	0.91736	0.10546	0.384
Mof_C 	C 	0.3125	0.07102	0.21065	0.174
Mof_C 	C 	0.4434	0.25014	0.38695	0.192
Mof_C 	C 	0.6526	0.12507	0.40216	-0.278
Mof_C 	C 	0.6159	0.2592	0.4069	-0.209
Mof_C 	C 	0.6914	0.16409	0.08051	0.437
Mof_C 	C 	0.3892	0.4298	0.23673	-0.276
Mof_C 	C 	0.0744	0.70415	0.28948	0.387
Mof_C 	C 	0.2285	0.67115	0.2674	-0.277
Mof_C 	C 	0.3006	0.62328	0.35752	-0.187
Mof_C 	C 	0.0549	0.45721	0.35424	0.426
Mof_C 	C 	0.397	0.46104	0.13424	-0.492
Mof_C 	C 	0.4813	0.3839	0.11899	0.376
Mof_C 	C 	0.299	0.4596	0.19138	0.355
Mof_C 	C 	0.1421	0.45706	0.29751	-0.202
Mof_C 	C 	0.3778	0.32057	0.12606	-0.286
Mof_C 	C 	0.0514	0.48614	0.25291	0.172
Mof_C 	C 	0.5375	0.52466	0.1405	0.965
Mof_C 	C 	0.129	0.48826	0.2002	-0.267
Mof_C 	C 	0.0308	0.6929	0.34541	-0.295
Mof_C 	C 	0.8375	0.80663	0.28268	0.972
Mof_C 	C 	0.7192	0.30396	0.08562	0.211
Mof_C 	C 	0.3403	0.63113	0.30119	0.203
Mof_C 	C 	0.2726	0.47944	0.08494	0.961
Mof_C 	C 	0.1432	0.65341	0.37895	0.217
Mof_C 	C 	0.4256	0.58264	0.39454	0.384
Mof_C 	C 	0.3125	0.42898	0.28935	0.175
Mof_C 	C 	0.4434	0.24986	0.11305	0.192
Mof_C 	C 	0.6526	0.37493	0.09784	-0.278
Mof_C 	C 	0.6159	0.2408	0.0931	-0.209
Mof_C 	C 	0.0417	0.25	0.75	-0.51
Mof_C 	C 	0.9583	0.75	0.25	-0.51
Mof_O 	O 	0.4304	0.06046	0.87148	-0.422
Mof_O 	O 	0.1542	0.66049	0.5614	-0.472
Mof_O 	O 	0.859	0.93212	0.89463	-0.487
Mof_O 	O 	0.6103	0.07438	0.94489	-0.326
Mof_O 	O 	0.0999	0.98246	0.85715	-0.481
Mof_O 	O 	0.4062	0.60904	0.59075	-0.471
Mof_O 	O 	0.1744	0.9969	0.98628	-0.666
Mof_O 	O 	0.4304	0.43954	0.62852	-0.423
Mof_O 	O 	0.1542	0.83951	0.9386	-0.472
Mof_O 	O 	0.859	0.56788	0.60537	-0.486
Mof_O 	O 	0.6103	0.42562	0.55511	-0.327
Mof_O 	O 	0.0999	0.51754	0.64285	-0.483
Mof_O 	O 	0.4062	0.89096	0.90925	-0.471
Mof_O 	O 	0.1744	0.5031	0.51372	-0.667
Mof_O 	O 	0.5696	0.93954	0.12852	-0.422
Mof_O 	O 	0.8458	0.33951	0.4386	-0.472
Mof_O 	O 	0.141	0.06788	0.10537	-0.487
Mof_O 	O 	0.3897	0.92562	0.05511	-0.326
Mof_O 	O 	0.9001	0.01754	0.14285	-0.481
Mof_O 	O 	0.5938	0.39096	0.40925	-0.471
Mof_O 	O 	0.8256	0.0031	0.01372	-0.666
Mof_O 	O 	0.5696	0.56046	0.37148	-0.423
Mof_O 	O 	0.8458	0.16049	0.0614	-0.472
Mof_O 	O 	0.141	0.43212	0.39463	-0.486
Mof_O 	O 	0.3897	0.57438	0.44489	-0.327
Mof_O 	O 	0.9001	0.48246	0.35715	-0.483
Mof_O 	O 	0.5938	0.10904	0.09075	-0.471
Mof_O 	O 	0.8256	0.4969	0.48628	-0.667
Mof_F 	F 	0.2376	0.35488	0.74843	-0.455
Mof_F 	F 	0.2954	0.2748	0.81036	-0.439
Mof_F 	F 	0.8697	0.93495	0.58276	-0.477
Mof_F 	F 	0.7876	0.05019	0.58789	-0.41
Mof_F 	F 	0.0696	0.34766	0.82086	-0.45
Mof_F 	F 	0.5347	0.08819	0.66168	-0.428
Mof_F 	F 	0.3308	0.0069	0.67481	-0.481
Mof_F 	F 	0.6457	0.97015	0.53516	-0.387
Mof_F 	F 	0.3881	0.04121	0.59121	-0.392
Mof_F 	F 	0.2376	0.14512	0.75157	-0.455
Mof_F 	F 	0.2954	0.2252	0.68964	-0.439
Mof_F 	F 	0.8697	0.56505	0.91724	-0.477
Mof_F 	F 	0.7876	0.44981	0.91211	-0.411
Mof_F 	F 	0.0696	0.15234	0.67914	-0.451
Mof_F 	F 	0.5347	0.41181	0.83832	-0.429
Mof_F 	F 	0.3308	0.4931	0.82519	-0.481
Mof_F 	F 	0.6457	0.52985	0.96484	-0.387
Mof_F 	F 	0.3881	0.45879	0.90879	-0.391
Mof_F 	F 	0.7624	0.64512	0.25157	-0.455
Mof_F 	F 	0.7046	0.7252	0.18964	-0.439
Mof_F 	F 	0.1303	0.06505	0.41724	-0.477
Mof_F 	F 	0.2124	0.94981	0.41211	-0.41
Mof_F 	F 	0.9304	0.65234	0.17914	-0.45
Mof_F 	F 	0.4653	0.91181	0.33832	-0.428
Mof_F 	F 	0.6692	0.9931	0.32519	-0.481
Mof_F 	F 	0.3543	0.02985	0.46484	-0.387
Mof_F 	F 	0.6119	0.95879	0.40879	-0.392
Mof_F 	F 	0.7624	0.85488	0.24843	-0.455
Mof_F 	F 	0.7046	0.7748	0.31036	-0.439
Mof_F 	F 	0.1303	0.43495	0.08276	-0.477
Mof_F 	F 	0.2124	0.55019	0.08789	-0.411
Mof_F 	F 	0.9304	0.84766	0.32086	-0.451
Mof_F 	F 	0.4653	0.58819	0.16168	-0.429
Mof_F 	F 	0.6692	0.5069	0.17481	-0.481
Mof_F 	F 	0.3543	0.47015	0.03516	-0.387
Mof_F 	F 	0.6119	0.54121	0.09121	-0.391
_end
