data_functionalizedCrystal
_audit_creation_method	'EQeq! by Chris Wilmer'
_symmetry_space_group_name_H-M	'P1'
_symmetry_Int_Tables_number	1
_symmetry_cell_setting	triclinic
loop_
_symmetry_equiv_pos_as_xyz
  x,y,z
_cell_length_a	9.1571
_cell_length_b	10.4571
_cell_length_c	10.4571
_cell_angle_alpha	95.8993
_cell_angle_beta	100.305
_cell_angle_gamma	79.6951
loop_
_atom_site_label
_atom_site_type_symbol
_atom_site_fract_x
_atom_site_fract_y
_atom_site_fract_z
_atom_site_charge
Mof_Zn	Zn	0.75	0.02443	0.02443	1.238
Mof_Zn	Zn	0.25	0.97557	0.97557	1.238
Mof_P 	P 	0.99153	0.20632	0.05526	0.461
Mof_P 	P 	0.50847	0.05526	0.20632	0.47
Mof_P 	P 	0.00847	0.79368	0.94474	0.461
Mof_P 	P 	0.49153	0.94474	0.79368	0.47
Mof_H 	H 	0.0132	0.2349	0.2475	0.274
Mof_H 	H 	0.7264	0.3459	0.9625	0.283
Mof_H 	H 	0.2144	0.3631	0.0863	0.114
Mof_H 	H 	0.4868	0.2475	0.2349	0.273
Mof_H 	H 	0.7736	0.9625	0.3459	0.284
Mof_H 	H 	0.2856	0.0863	0.3631	0.115
Mof_H 	H 	0.9868	0.7651	0.7525	0.274
Mof_H 	H 	0.2736	0.6541	0.0375	0.283
Mof_H 	H 	0.7856	0.6369	0.9137	0.114
Mof_H 	H 	0.5132	0.7525	0.7651	0.273
Mof_H 	H 	0.2264	0.0375	0.6541	0.284
Mof_H 	H 	0.7144	0.9137	0.6369	0.115
Mof_C 	C 	0.861	0.45668	0.97332	0.236
Mof_C 	C 	0.9901	0.37309	0.02575	-0.112
Mof_C 	C 	0.1282	0.4182	0.0516	-0.113
Mof_C 	C 	0.639	0.97332	0.45668	0.236
Mof_C 	C 	0.5099	0.02575	0.37309	-0.11
Mof_C 	C 	0.3718	0.0516	0.4182	-0.116
Mof_C 	C 	0.139	0.54332	0.02668	0.236
Mof_C 	C 	0.0099	0.62691	0.97425	-0.112
Mof_C 	C 	0.8718	0.5818	0.9484	-0.113
Mof_C 	C 	0.361	0.02668	0.54332	0.236
Mof_C 	C 	0.4901	0.97425	0.62691	-0.11
Mof_C 	C 	0.6282	0.9484	0.5818	-0.116
Mof_O 	O 	0.0621	0.18481	0.19931	-0.466
Mof_O 	O 	0.827	0.18768	0.02698	-0.454
Mof_O 	O 	0.0893	0.12064	0.96892	-0.427
Mof_O 	O 	0.721	0.42088	0.94338	-0.414
Mof_O 	O 	0.4379	0.19931	0.18481	-0.47
Mof_O 	O 	0.673	0.02698	0.18768	-0.456
Mof_O 	O 	0.4107	0.96892	0.12064	-0.433
Mof_O 	O 	0.779	0.94338	0.42088	-0.413
Mof_O 	O 	0.9379	0.81519	0.80069	-0.466
Mof_O 	O 	0.173	0.81232	0.97302	-0.454
Mof_O 	O 	0.9107	0.87936	0.03108	-0.427
Mof_O 	O 	0.279	0.57912	0.05662	-0.414
Mof_O 	O 	0.5621	0.80069	0.81519	-0.47
Mof_O 	O 	0.327	0.97302	0.81232	-0.456
Mof_O 	O 	0.5893	0.03108	0.87936	-0.433
Mof_O 	O 	0.221	0.05662	0.57912	-0.413
_end
