data_functionalizedCrystal
_audit_creation_method	'EQeq! by Chris Wilmer'
_symmetry_space_group_name_H-M	'P1'
_symmetry_Int_Tables_number	1
_symmetry_cell_setting	triclinic
loop_
_symmetry_equiv_pos_as_xyz
  x,y,z
_cell_length_a	10.7765
_cell_length_b	15.0683
_cell_length_c	28.487
_cell_angle_alpha	86.8973
_cell_angle_beta	81.2941
_cell_angle_gamma	69.0478
loop_
_atom_site_label
_atom_site_type_symbol
_atom_site_fract_x
_atom_site_fract_y
_atom_site_fract_z
_atom_site_charge
Mof_Cu	Cu	0.62216	0.96212	0.01088	0.899
Mof_Cu	Cu	0.41572	0.96212	0.48912	0.9
Mof_Cu	Cu	0.37784	0.03788	0.98912	0.899
Mof_Cu	Cu	0.58428	0.03788	0.51088	0.9
Mof_H 	H 	0.554	0.7752	0.1282	-0.004
Mof_H 	H 	0.1997	0.8888	0.087	0.013
Mof_H 	H 	0.107	0.7924	0.1448	0.125
Mof_H 	H 	0.1751	0.5216	0.1851	0.044
Mof_H 	H 	0.1597	0.4456	0.2237	0.045
Mof_H 	H 	0.2292	0.278	0.0861	0.002
Mof_H 	H 	0.3958	0.5644	0.2096	0.043
Mof_H 	H 	0.3329	0.6374	0.252	0.043
Mof_H 	H 	0.4713	0.6822	0.1855	0.129
Mof_H 	H 	0.5576	0.291	0.1707	0.126
Mof_H 	H 	0.6046	0.1684	0.1136	0.008
Mof_H 	H 	0.1729	0.3956	0.1432	0.124
Mof_H 	H 	0.6708	0.7752	0.3718	-0.003
Mof_H 	H 	0.9115	0.8888	0.413	0.014
Mof_H 	H 	0.1006	0.7924	0.3552	0.124
Mof_H 	H 	0.3033	0.5216	0.3149	0.044
Mof_H 	H 	0.3947	0.4456	0.2763	0.045
Mof_H 	H 	0.4928	0.278	0.4139	0.002
Mof_H 	H 	0.0398	0.5644	0.2904	0.043
Mof_H 	H 	0.0297	0.6374	0.248	0.044
Mof_H 	H 	0.8465	0.6822	0.3145	0.128
Mof_H 	H 	0.1514	0.291	0.3293	0.126
Mof_H 	H 	0.227	0.1684	0.3864	0.007
Mof_H 	H 	0.4315	0.3956	0.3568	0.124
Mof_H 	H 	0.446	0.2248	0.8718	-0.004
Mof_H 	H 	0.8003	0.1112	0.913	0.013
Mof_H 	H 	0.893	0.2076	0.8552	0.125
Mof_H 	H 	0.8249	0.4784	0.8149	0.044
Mof_H 	H 	0.8403	0.5544	0.7763	0.045
Mof_H 	H 	0.7708	0.722	0.9139	0.002
Mof_H 	H 	0.6042	0.4356	0.7904	0.043
Mof_H 	H 	0.6671	0.3626	0.748	0.043
Mof_H 	H 	0.5287	0.3178	0.8145	0.129
Mof_H 	H 	0.4424	0.709	0.8293	0.126
Mof_H 	H 	0.3954	0.8316	0.8864	0.008
Mof_H 	H 	0.8271	0.6044	0.8568	0.124
Mof_H 	H 	0.3292	0.2248	0.6282	-0.003
Mof_H 	H 	0.0885	0.1112	0.587	0.014
Mof_H 	H 	0.8994	0.2076	0.6448	0.124
Mof_H 	H 	0.6967	0.4784	0.6851	0.044
Mof_H 	H 	0.6053	0.5544	0.7237	0.045
Mof_H 	H 	0.5072	0.722	0.5861	0.002
Mof_H 	H 	0.9602	0.4356	0.7096	0.043
Mof_H 	H 	0.9703	0.3626	0.752	0.044
Mof_H 	H 	0.1535	0.3178	0.6855	0.128
Mof_H 	H 	0.8486	0.709	0.6707	0.126
Mof_H 	H 	0.773	0.8316	0.6136	0.007
Mof_H 	H 	0.5685	0.6044	0.6432	0.124
Mof_C 	C 	0.465	0.7796	0.1303	0.152
Mof_C 	C 	0.38681	0.83898	0.1017	-0.19
Mof_C 	C 	0.2556	0.8458	0.1062	0.11
Mof_C 	C 	0.1968	0.7868	0.1411	-0.223
Mof_C 	C 	0.43079	0.90082	0.06561	0.408
Mof_C 	C 	0.2151	0.4822	0.21088	0.003
Mof_C 	C 	0.29499	0.28042	0.1032	0.134
Mof_C 	C 	0.31236	0.60448	0.22759	0.007
Mof_C 	C 	0.29082	0.72316	0.1672	0.276
Mof_C 	C 	0.41544	0.72112	0.1649	-0.272
Mof_C 	C 	0.36145	0.3555	0.1597	0.258
Mof_C 	C 	0.4922	0.2884	0.1535	-0.227
Mof_C 	C 	0.5192	0.2148	0.1187	0.123
Mof_C 	C 	0.42463	0.21134	0.0936	-0.177
Mof_C 	C 	0.26008	0.35224	0.1367	-0.255
Mof_C 	C 	0.45033	0.13294	0.0595	0.386
Mof_C 	C 	0.7554	0.7796	0.3697	0.149
Mof_C 	C 	0.77421	0.83898	0.3983	-0.188
Mof_C 	C 	0.8986	0.8458	0.3938	0.107
Mof_C 	C 	0.0164	0.7868	0.3589	-0.218
Mof_C 	C 	0.66839	0.90082	0.43439	0.407
Mof_C 	C 	0.3027	0.4822	0.28912	0.003
Mof_C 	C 	0.42459	0.28042	0.3968	0.134
Mof_C 	C 	0.08316	0.60448	0.27241	0.006
Mof_C 	C 	0.98602	0.72316	0.3328	0.272
Mof_C 	C 	0.86344	0.72112	0.3351	-0.269
Mof_C 	C 	0.28305	0.3555	0.3403	0.258
Mof_C 	C 	0.2194	0.2884	0.3465	-0.227
Mof_C 	C 	0.266	0.2148	0.3813	0.123
Mof_C 	C 	0.36403	0.21134	0.4064	-0.177
Mof_C 	C 	0.38768	0.35224	0.3633	-0.255
Mof_C 	C 	0.41673	0.13294	0.4405	0.386
Mof_C 	C 	0.535	0.2204	0.8697	0.152
Mof_C 	C 	0.61319	0.16102	0.8983	-0.19
Mof_C 	C 	0.7444	0.1542	0.8938	0.11
Mof_C 	C 	0.8032	0.2132	0.8589	-0.223
Mof_C 	C 	0.56921	0.09918	0.93439	0.408
Mof_C 	C 	0.7849	0.5178	0.78912	0.003
Mof_C 	C 	0.70501	0.71958	0.8968	0.134
Mof_C 	C 	0.68764	0.39552	0.77241	0.007
Mof_C 	C 	0.70918	0.27684	0.8328	0.276
Mof_C 	C 	0.58456	0.27888	0.8351	-0.272
Mof_C 	C 	0.63855	0.6445	0.8403	0.258
Mof_C 	C 	0.5078	0.7116	0.8465	-0.227
Mof_C 	C 	0.4808	0.7852	0.8813	0.123
Mof_C 	C 	0.57537	0.78866	0.9064	-0.177
Mof_C 	C 	0.73992	0.64776	0.8633	-0.255
Mof_C 	C 	0.54967	0.86706	0.9405	0.386
Mof_C 	C 	0.2446	0.2204	0.6303	0.149
Mof_C 	C 	0.22579	0.16102	0.6017	-0.188
Mof_C 	C 	0.1014	0.1542	0.6062	0.107
Mof_C 	C 	0.9836	0.2132	0.6411	-0.218
Mof_C 	C 	0.33161	0.09918	0.56561	0.407
Mof_C 	C 	0.6973	0.5178	0.71088	0.003
Mof_C 	C 	0.57541	0.71958	0.6032	0.134
Mof_C 	C 	0.91684	0.39552	0.72759	0.006
Mof_C 	C 	0.01398	0.27684	0.6672	0.272
Mof_C 	C 	0.13656	0.27888	0.6649	-0.269
Mof_C 	C 	0.71695	0.6445	0.6597	0.258
Mof_C 	C 	0.7806	0.7116	0.6535	-0.227
Mof_C 	C 	0.734	0.7852	0.6187	0.123
Mof_C 	C 	0.63597	0.78866	0.5936	-0.177
Mof_C 	C 	0.61232	0.64776	0.6367	-0.255
Mof_C 	C 	0.58327	0.86706	0.5595	0.386
Mof_C 	C 	0.2278	0.5444	0.25	0.027
Mof_C 	C 	0.7722	0.4556	0.75	0.027
Mof_O 	O 	0.34238	0.95564	0.04246	-0.419
Mof_O 	O 	0.5499	0.892	0.06122	-0.422
Mof_O 	O 	0.56841	0.06998	0.05487	-0.404
Mof_O 	O 	0.36011	0.13518	0.0364	-0.413
Mof_O 	O 	0.23023	0.67114	0.19698	-0.235
Mof_O 	O 	0.34906	0.42028	0.19438	-0.231
Mof_O 	O 	0.70198	0.95564	0.45754	-0.418
Mof_O 	O 	0.5581	0.892	0.43878	-0.421
Mof_O 	O 	0.36161	0.06998	0.44513	-0.405
Mof_O 	O 	0.50471	0.13518	0.4636	-0.414
Mof_O 	O 	0.09863	0.67114	0.30302	-0.233
Mof_O 	O 	0.23066	0.42028	0.30562	-0.231
Mof_O 	O 	0.65762	0.04436	0.95754	-0.419
Mof_O 	O 	0.4501	0.108	0.93878	-0.422
Mof_O 	O 	0.43159	0.93002	0.94513	-0.404
Mof_O 	O 	0.63989	0.86482	0.9636	-0.413
Mof_O 	O 	0.76977	0.32886	0.80302	-0.235
Mof_O 	O 	0.65094	0.57972	0.80562	-0.231
Mof_O 	O 	0.29802	0.04436	0.54246	-0.418
Mof_O 	O 	0.4419	0.108	0.56122	-0.421
Mof_O 	O 	0.63839	0.93002	0.55487	-0.405
Mof_O 	O 	0.49529	0.86482	0.5364	-0.414
Mof_O 	O 	0.90137	0.32886	0.69698	-0.233
Mof_O 	O 	0.76934	0.57972	0.69438	-0.231
_end
