data_functionalizedCrystal
_audit_creation_method	'EQeq! by Chris Wilmer'
_symmetry_space_group_name_H-M	'P1'
_symmetry_Int_Tables_number	1
_symmetry_cell_setting	triclinic
loop_
_symmetry_equiv_pos_as_xyz
  x,y,z
_cell_length_a	32.721
_cell_length_b	32.721
_cell_length_c	9.316
_cell_angle_alpha	90
_cell_angle_beta	90
_cell_angle_gamma	120
loop_
_atom_site_label
_atom_site_type_symbol
_atom_site_fract_x
_atom_site_fract_y
_atom_site_fract_z
_atom_site_charge
Mof_N 	N 	0.53316	0.99786	0.8212	-0.253
Mof_N 	N 	0.44174	0.94325	0.9291	-0.264
Mof_N 	N 	0.24045	0.86321	0.2382	-0.235
Mof_C 	C 	0.58079	0.02505	0.7948	0.097
Mof_C 	C 	0.59308	0.00873	0.6668	-0.098
Mof_H 	H 	0.6237	0.0215	0.6259	0.061
Mof_C 	C 	0.55316	0.97208	0.6167	-0.054
Mof_H 	H 	0.5501	0.9541	0.5332	0.05
Mof_C 	C 	0.51575	0.96502	0.7128	0.083
Mof_C 	C 	0.46936	0.92796	0.7006	-0.092
Mof_C 	C 	0.43496	0.91847	0.8036	0.081
Mof_C 	C 	0.38605	0.88202	0.7897	-0.058
Mof_H 	H 	0.3725	0.86	0.7134	0.05
Mof_C 	C 	0.36346	0.88532	0.905	-0.104
Mof_H 	H 	0.3308	0.8661	0.9254	0.074
Mof_C 	C 	0.39767	0.92327	0.9925	0.131
Mof_C 	C 	0.38685	0.93837	0.1192	-0.18
Mof_C 	C 	0.33615	0.91301	0.1633	0.151
Mof_C 	C 	0.31991	0.87996	0.2729	-0.194
Mof_H 	H 	0.3412	0.8737	0.3247	0.092
Mof_C 	C 	0.27236	0.85627	0.3057	0.1
Mof_H 	H 	0.2618	0.8336	0.381	-0.018
Mof_C 	C 	0.25642	0.89519	0.1334	0.101
Mof_H 	H 	0.2344	0.9008	0.0838	-0.015
Mof_C 	C 	0.30325	0.92068	0.0925	-0.193
Mof_H 	H 	0.3128	0.9431	0.0169	0.091
Mof_C 	C 	0.45581	0.8962	0.5719	0
Mof_C 	C 	0.44225	0.84905	0.5856	0.004
Mof_H 	H 	0.4419	0.8365	0.6778	0.024
Mof_C 	C 	0.42905	0.81956	0.4652	-0.188
Mof_H 	H 	0.42	0.7873	0.4767	0.081
Mof_C 	C 	0.42897	0.83682	0.3297	0.214
Mof_C 	C 	0.44251	0.88404	0.3167	-0.182
Mof_H 	H 	0.4426	0.8965	0.2245	0.082
Mof_C 	C 	0.45592	0.91348	0.435	0.004
Mof_H 	H 	0.4653	0.9458	0.4229	0.033
Mof_C 	C 	0.41604	0.80554	0.1974	-0.562
Mof_H 	H 	0.4033	0.8174	0.1235	0.174
Mof_H 	H 	0.3922	0.7732	0.223	0.167
Mof_H 	H 	0.4442	0.8059	0.1605	0.178
Mof_N 	N 	0.46684	0.00214	0.1788	-0.273
Mof_N 	N 	0.55826	0.05675	0.0709	-0.267
Mof_N 	N 	0.75955	0.13679	0.7618	-0.232
Mof_C 	C 	0.41921	0.97495	0.2052	0.116
Mof_C 	C 	0.40692	0.99127	0.3332	-0.075
Mof_H 	H 	0.3763	0.9785	0.3741	0.059
Mof_C 	C 	0.44684	0.02792	0.3833	-0.085
Mof_H 	H 	0.4499	0.0459	0.4668	0.059
Mof_C 	C 	0.48425	0.03498	0.2872	0.087
Mof_C 	C 	0.53064	0.07204	0.2994	-0.098
Mof_C 	C 	0.56504	0.08153	0.1964	0.083
Mof_C 	C 	0.61395	0.11798	0.2103	-0.074
Mof_H 	H 	0.6275	0.14	0.2866	0.053
Mof_C 	C 	0.63654	0.11468	0.095	-0.083
Mof_H 	H 	0.6692	0.1339	0.0746	0.056
Mof_C 	C 	0.60233	0.07673	0.0075	0.075
Mof_C 	C 	0.61315	0.06163	0.8808	-0.131
Mof_C 	C 	0.66385	0.08699	0.8367	0.138
Mof_C 	C 	0.68009	0.12004	0.7271	-0.184
Mof_H 	H 	0.6588	0.1263	0.6753	0.089
Mof_C 	C 	0.72764	0.14373	0.6943	0.096
Mof_H 	H 	0.7382	0.1664	0.619	-0.017
Mof_C 	C 	0.74358	0.10481	0.8666	0.098
Mof_H 	H 	0.7656	0.0992	0.9162	-0.009
Mof_C 	C 	0.69675	0.07932	0.9075	-0.18
Mof_H 	H 	0.6872	0.0569	0.9831	0.095
Mof_C 	C 	0.54419	0.1038	0.4281	-0.004
Mof_C 	C 	0.55775	0.15095	0.4144	0.01
Mof_H 	H 	0.5581	0.1635	0.3222	0.019
Mof_C 	C 	0.57095	0.18044	0.5348	-0.197
Mof_H 	H 	0.58	0.2127	0.5233	0.082
Mof_C 	C 	0.57103	0.16318	0.6703	0.225
Mof_C 	C 	0.55749	0.11596	0.6833	-0.192
Mof_H 	H 	0.5574	0.1035	0.7755	0.089
Mof_C 	C 	0.54408	0.08652	0.565	0.011
Mof_H 	H 	0.5347	0.0542	0.5771	0.027
Mof_C 	C 	0.58396	0.19446	0.8026	-0.581
Mof_H 	H 	0.5967	0.1826	0.8765	0.187
Mof_H 	H 	0.6078	0.2268	0.777	0.174
Mof_H 	H 	0.5558	0.1941	0.8395	0.187
Mof_Co	Co	0.5	0	-0	1.125
Mof_N 	N 	0.19983	0.33119	0.15453	-0.264
Mof_N 	N 	0.10841	0.27658	0.26243	-0.266
Mof_N 	N 	0.90712	0.19654	0.57153	-0.227
Mof_C 	C 	0.24746	0.35838	0.12813	0.132
Mof_C 	C 	0.25975	0.34206	0.00013	-0.177
Mof_H 	H 	0.29037	0.35483	0.95923	0.103
Mof_C 	C 	0.21983	0.30541	0.95003	0.017
Mof_H 	H 	0.21677	0.28743	0.86653	0.028
Mof_C 	C 	0.18242	0.29835	0.04613	0.047
Mof_C 	C 	0.13603	0.26129	0.03393	-0.091
Mof_C 	C 	0.10163	0.2518	0.13693	0.074
Mof_C 	C 	0.05272	0.21535	0.12303	-0.056
Mof_H 	H 	0.03917	0.19333	0.04673	0.04
Mof_C 	C 	0.03013	0.21865	0.23833	-0.115
Mof_H 	H 	0.99747	0.19943	0.25873	0.077
Mof_C 	C 	0.06434	0.2566	0.32583	0.104
Mof_C 	C 	0.05352	0.2717	0.45253	-0.146
Mof_C 	C 	0.00282	0.24634	0.49663	0.108
Mof_C 	C 	0.98658	0.21329	0.60623	-0.144
Mof_H 	H 	0.00787	0.20703	0.65803	0.072
Mof_C 	C 	0.93903	0.1896	0.63903	0.078
Mof_H 	H 	0.92847	0.16693	0.71433	-0.009
Mof_C 	C 	0.92309	0.22852	0.46673	0.086
Mof_H 	H 	0.90107	0.23413	0.41713	-0.008
Mof_C 	C 	0.96992	0.25401	0.42583	-0.158
Mof_H 	H 	0.97947	0.27643	0.35023	0.085
Mof_C 	C 	0.12248	0.22953	0.90523	-0.006
Mof_C 	C 	0.10892	0.18238	0.91893	0.043
Mof_H 	H 	0.10857	0.16983	0.01113	-0.002
Mof_C 	C 	0.09572	0.15289	0.79853	-0.212
Mof_H 	H 	0.08667	0.12063	0.81003	0.089
Mof_C 	C 	0.09564	0.17015	0.66303	0.229
Mof_C 	C 	0.10918	0.21737	0.65003	-0.195
Mof_H 	H 	0.10927	0.22983	0.55783	0.087
Mof_C 	C 	0.12259	0.24681	0.76833	0.015
Mof_H 	H 	0.13197	0.27913	0.75623	0.029
Mof_C 	C 	0.08271	0.13887	0.53073	-0.577
Mof_H 	H 	0.06997	0.15073	0.45683	0.181
Mof_H 	H 	0.05887	0.10653	0.55633	0.17
Mof_H 	H 	0.11087	0.13923	0.49383	0.184
Mof_N 	N 	0.13351	0.33547	0.51213	-0.264
Mof_N 	N 	0.22493	0.39008	0.40423	-0.268
Mof_N 	N 	0.42622	0.47012	0.09513	-0.229
Mof_C 	C 	0.08588	0.30828	0.53853	0.102
Mof_C 	C 	0.07359	0.3246	0.66653	-0.082
Mof_H 	H 	0.04297	0.31183	0.70743	0.059
Mof_C 	C 	0.11351	0.36125	0.71663	-0.07
Mof_H 	H 	0.11657	0.37923	0.80013	0.058
Mof_C 	C 	0.15092	0.36831	0.62053	0.086
Mof_C 	C 	0.19731	0.40537	0.63273	-0.094
Mof_C 	C 	0.23171	0.41486	0.52973	0.082
Mof_C 	C 	0.28062	0.45131	0.54363	-0.066
Mof_H 	H 	0.29417	0.47333	0.61993	0.053
Mof_C 	C 	0.30321	0.44801	0.42833	-0.095
Mof_H 	H 	0.33587	0.46723	0.40793	0.066
Mof_C 	C 	0.269	0.41006	0.34083	0.106
Mof_C 	C 	0.27982	0.39496	0.21413	-0.165
Mof_C 	C 	0.33052	0.42032	0.17003	0.138
Mof_C 	C 	0.34676	0.45337	0.06043	-0.172
Mof_H 	H 	0.32547	0.45963	0.00863	0.08
Mof_C 	C 	0.39431	0.47706	0.02763	0.058
Mof_H 	H 	0.40487	0.49973	0.95233	0.008
Mof_C 	C 	0.41025	0.43814	0.19993	0.095
Mof_H 	H 	0.43227	0.43253	0.24953	-0.011
Mof_C 	C 	0.36342	0.41265	0.24083	-0.183
Mof_H 	H 	0.35387	0.39023	0.31643	0.091
Mof_C 	C 	0.21086	0.43713	0.76143	-0.003
Mof_C 	C 	0.22442	0.48428	0.74773	-0
Mof_H 	H 	0.22477	0.49683	0.65553	0.025
Mof_C 	C 	0.23762	0.51377	0.86813	-0.164
Mof_H 	H 	0.24667	0.54603	0.85663	0.077
Mof_C 	C 	0.2377	0.49651	0.00363	0.198
Mof_C 	C 	0.22416	0.44929	0.01663	-0.205
Mof_H 	H 	0.22407	0.43683	0.10883	0.089
Mof_C 	C 	0.21075	0.41985	0.89833	0.032
Mof_H 	H 	0.20137	0.38753	0.91043	0.028
Mof_C 	C 	0.25063	0.52779	0.13593	-0.554
Mof_H 	H 	0.26337	0.51593	0.20983	0.176
Mof_H 	H 	0.27447	0.56013	0.11033	0.163
Mof_H 	H 	0.22247	0.52743	0.17283	0.176
Mof_Co	Co	0.16667	0.33333	0.33333	1.136
Mof_N 	N 	0.86649	0.66453	0.48787	-0.265
Mof_N 	N 	0.77507	0.60992	0.59577	-0.266
Mof_N 	N 	0.57378	0.52988	0.90487	-0.236
Mof_C 	C 	0.91412	0.69172	0.46147	0.111
Mof_C 	C 	0.92641	0.6754	0.33347	-0.09
Mof_H 	H 	0.95703	0.68817	0.29257	0.062
Mof_C 	C 	0.88649	0.63875	0.28337	-0.067
Mof_H 	H 	0.88343	0.62077	0.19987	0.051
Mof_C 	C 	0.84908	0.63169	0.37947	0.084
Mof_C 	C 	0.80269	0.59463	0.36727	-0.096
Mof_C 	C 	0.76829	0.58514	0.47027	0.082
Mof_C 	C 	0.71938	0.54869	0.45637	-0.067
Mof_H 	H 	0.70583	0.52667	0.38007	0.05
Mof_C 	C 	0.69679	0.55199	0.57167	-0.092
Mof_H 	H 	0.66413	0.53277	0.59207	0.064
Mof_C 	C 	0.731	0.58994	0.65917	0.099
Mof_C 	C 	0.72018	0.60504	0.78587	-0.146
Mof_C 	C 	0.66948	0.57968	0.82997	0.15
Mof_C 	C 	0.65324	0.54663	0.93957	-0.205
Mof_H 	H 	0.67453	0.54037	0.99137	0.101
Mof_C 	C 	0.60569	0.52294	0.97237	0.136
Mof_H 	H 	0.59513	0.50027	0.04767	-0.041
Mof_C 	C 	0.58975	0.56186	0.80007	0.104
Mof_H 	H 	0.56773	0.56747	0.75047	-0.012
Mof_C 	C 	0.63658	0.58735	0.75917	-0.189
Mof_H 	H 	0.64613	0.60977	0.68357	0.094
Mof_C 	C 	0.78914	0.56287	0.23857	0
Mof_C 	C 	0.77558	0.51572	0.25227	0.013
Mof_H 	H 	0.77523	0.50317	0.34447	0.019
Mof_C 	C 	0.76238	0.48623	0.13187	-0.218
Mof_H 	H 	0.75333	0.45397	0.14337	0.085
Mof_C 	C 	0.7623	0.50349	0.99637	0.24
Mof_C 	C 	0.77584	0.55071	0.98337	-0.17
Mof_H 	H 	0.77593	0.56317	0.89117	0.081
Mof_C 	C 	0.78925	0.58015	0.10167	-0.015
Mof_H 	H 	0.79863	0.61247	0.08957	0.032
Mof_C 	C 	0.74937	0.47221	0.86407	-0.587
Mof_H 	H 	0.73663	0.48407	0.79017	0.185
Mof_H 	H 	0.72553	0.43987	0.88967	0.178
Mof_H 	H 	0.77753	0.47257	0.82717	0.189
Mof_N 	N 	0.80017	0.66881	0.84547	-0.265
Mof_N 	N 	0.89159	0.72342	0.73757	-0.268
Mof_N 	N 	0.09288	0.80346	0.42847	-0.24
Mof_C 	C 	0.75254	0.64162	0.87187	0.083
Mof_C 	C 	0.74025	0.65794	0.99987	0.002
Mof_H 	H 	0.70963	0.64517	0.04077	0.02
Mof_C 	C 	0.78017	0.69459	0.04997	-0.151
Mof_H 	H 	0.78323	0.71257	0.13347	0.08
Mof_C 	C 	0.81758	0.70165	0.95387	0.121
Mof_C 	C 	0.86397	0.73871	0.96607	-0.099
Mof_C 	C 	0.89837	0.7482	0.86307	0.09
Mof_C 	C 	0.94728	0.78465	0.87697	-0.077
Mof_H 	H 	0.96083	0.80667	0.95327	0.062
Mof_C 	C 	0.96987	0.78135	0.76167	-0.073
Mof_H 	H 	0.00253	0.80057	0.74127	0.053
Mof_C 	C 	0.93566	0.7434	0.67417	0.101
Mof_C 	C 	0.94648	0.7283	0.54747	-0.165
Mof_C 	C 	0.99718	0.75366	0.50337	0.181
Mof_C 	C 	0.01342	0.78671	0.39377	-0.235
Mof_H 	H 	0.99213	0.79297	0.34197	0.11
Mof_C 	C 	0.06097	0.8104	0.36097	0.118
Mof_H 	H 	0.07153	0.83307	0.28567	-0.026
Mof_C 	C 	0.07691	0.77148	0.53327	0.113
Mof_H 	H 	0.09893	0.76587	0.58287	-0.016
Mof_C 	C 	0.03008	0.74599	0.57417	-0.215
Mof_H 	H 	0.02053	0.72357	0.64977	0.1
Mof_C 	C 	0.87752	0.77047	0.09477	0.002
Mof_C 	C 	0.89108	0.81762	0.08107	-0.028
Mof_H 	H 	0.89143	0.83017	0.98887	0.044
Mof_C 	C 	0.90428	0.84711	0.20147	-0.174
Mof_H 	H 	0.91333	0.87937	0.18997	0.074
Mof_C 	C 	0.90436	0.82985	0.33697	0.211
Mof_C 	C 	0.89082	0.78263	0.34997	-0.18
Mof_H 	H 	0.89073	0.77017	0.44217	0.083
Mof_C 	C 	0.87741	0.75319	0.23167	0
Mof_H 	H 	0.86803	0.72087	0.24377	0.03
Mof_C 	C 	0.91729	0.86113	0.46927	-0.566
Mof_H 	H 	0.93003	0.84927	0.54317	0.181
Mof_H 	H 	0.94113	0.89347	0.44367	0.172
Mof_H 	H 	0.88913	0.86077	0.50617	0.182
Mof_Co	Co	0.83333	0.66667	0.66667	1.137
Mof_N 	N 	0.00214	0.5353	0.8212	-0.264
Mof_N 	N 	0.05675	0.49849	0.9291	-0.266
Mof_N 	N 	0.13679	0.37724	0.2382	-0.234
Mof_C 	C 	0.97495	0.55574	0.7948	0.104
Mof_C 	C 	0.99127	0.58435	0.6668	-0.066
Mof_H 	H 	0.9785	0.6022	0.6259	0.056
Mof_C 	C 	0.02792	0.58108	0.6167	-0.087
Mof_H 	H 	0.0459	0.596	0.5332	0.06
Mof_C 	C 	0.03498	0.55073	0.7128	0.089
Mof_C 	C 	0.07204	0.5414	0.7006	-0.097
Mof_C 	C 	0.08153	0.51649	0.8036	0.081
Mof_C 	C 	0.11798	0.50403	0.7897	-0.06
Mof_H 	H 	0.14	0.5125	0.7134	0.05
Mof_C 	C 	0.11468	0.47814	0.905	-0.104
Mof_H 	H 	0.1339	0.4647	0.9254	0.074
Mof_C 	C 	0.07673	0.4744	0.9925	0.129
Mof_C 	C 	0.06163	0.44848	0.1192	-0.18
Mof_C 	C 	0.08699	0.42314	0.1633	0.15
Mof_C 	C 	0.12004	0.43995	0.2729	-0.194
Mof_H 	H 	0.1263	0.4675	0.3247	0.092
Mof_C 	C 	0.14373	0.41609	0.3057	0.099
Mof_H 	H 	0.1664	0.4282	0.381	-0.018
Mof_C 	C 	0.10481	0.36123	0.1334	0.099
Mof_H 	H 	0.0992	0.3336	0.0838	-0.015
Mof_C 	C 	0.07932	0.38257	0.0925	-0.193
Mof_H 	H 	0.0569	0.3697	0.0169	0.088
Mof_C 	C 	0.1038	0.55961	0.5719	0.001
Mof_C 	C 	0.15095	0.5932	0.5856	0.004
Mof_H 	H 	0.1635	0.6054	0.6778	0.025
Mof_C 	C 	0.18044	0.60949	0.4652	-0.188
Mof_H 	H 	0.2127	0.6327	0.4767	0.081
Mof_C 	C 	0.16318	0.59215	0.3297	0.214
Mof_C 	C 	0.11596	0.55847	0.3167	-0.182
Mof_H 	H 	0.1035	0.5461	0.2245	0.081
Mof_C 	C 	0.08652	0.54244	0.435	0.004
Mof_H 	H 	0.0542	0.5195	0.4229	0.029
Mof_C 	C 	0.19446	0.6105	0.1974	-0.562
Mof_H 	H 	0.1826	0.5859	0.1235	0.174
Mof_H 	H 	0.2268	0.619	0.223	0.167
Mof_H 	H 	0.1941	0.6383	0.1605	0.178
Mof_N 	N 	0.99786	0.4647	0.1788	-0.261
Mof_N 	N 	0.94325	0.50151	0.0709	-0.264
Mof_N 	N 	0.86321	0.62276	0.7618	-0.232
Mof_C 	C 	0.02505	0.44426	0.2052	0.11
Mof_C 	C 	0.00873	0.41565	0.3332	-0.106
Mof_H 	H 	0.0215	0.3978	0.3741	0.065
Mof_C 	C 	0.97208	0.41892	0.3833	-0.05
Mof_H 	H 	0.9541	0.404	0.4668	0.049
Mof_C 	C 	0.96502	0.44927	0.2872	0.08
Mof_C 	C 	0.92796	0.4586	0.2994	-0.092
Mof_C 	C 	0.91847	0.48351	0.1964	0.083
Mof_C 	C 	0.88202	0.49597	0.2103	-0.073
Mof_H 	H 	0.86	0.4875	0.2866	0.053
Mof_C 	C 	0.88532	0.52186	0.095	-0.084
Mof_H 	H 	0.8661	0.5353	0.0746	0.056
Mof_C 	C 	0.92327	0.5256	0.0075	0.078
Mof_C 	C 	0.93837	0.55152	0.8808	-0.131
Mof_C 	C 	0.91301	0.57686	0.8367	0.14
Mof_C 	C 	0.87996	0.56005	0.7271	-0.184
Mof_H 	H 	0.8737	0.5325	0.6753	0.089
Mof_C 	C 	0.85627	0.58391	0.6943	0.096
Mof_H 	H 	0.8336	0.5718	0.619	-0.017
Mof_C 	C 	0.89519	0.63877	0.8666	0.1
Mof_H 	H 	0.9008	0.6664	0.9162	-0.009
Mof_C 	C 	0.92068	0.61743	0.9075	-0.18
Mof_H 	H 	0.9431	0.6303	0.9831	0.098
Mof_C 	C 	0.8962	0.44039	0.4281	-0.004
Mof_C 	C 	0.84905	0.4068	0.4144	0.01
Mof_H 	H 	0.8365	0.3946	0.3222	0.019
Mof_C 	C 	0.81956	0.39051	0.5348	-0.197
Mof_H 	H 	0.7873	0.3673	0.5233	0.082
Mof_C 	C 	0.83682	0.40785	0.6703	0.225
Mof_C 	C 	0.88404	0.44153	0.6833	-0.192
Mof_H 	H 	0.8965	0.4539	0.7755	0.089
Mof_C 	C 	0.91348	0.45756	0.565	0.011
Mof_H 	H 	0.9458	0.4805	0.5771	0.03
Mof_C 	C 	0.80554	0.3895	0.8026	-0.581
Mof_H 	H 	0.8174	0.4141	0.8765	0.187
Mof_H 	H 	0.7732	0.381	0.777	0.174
Mof_H 	H 	0.8059	0.3617	0.8395	0.187
Mof_Co	Co	-0	0.5	-0	1.125
Mof_N 	N 	0.66881	0.86863	0.15453	-0.264
Mof_N 	N 	0.72342	0.83182	0.26243	-0.266
Mof_N 	N 	0.80346	0.71057	0.57153	-0.233
Mof_C 	C 	0.64162	0.88907	0.12813	0.131
Mof_C 	C 	0.65794	0.91768	0.00013	-0.175
Mof_H 	H 	0.64517	0.93553	0.95923	0.103
Mof_C 	C 	0.69459	0.91441	0.95003	0.015
Mof_H 	H 	0.71257	0.92933	0.86653	0.029
Mof_C 	C 	0.70165	0.88406	0.04613	0.048
Mof_C 	C 	0.73871	0.87473	0.03393	-0.091
Mof_C 	C 	0.7482	0.84982	0.13693	0.077
Mof_C 	C 	0.78465	0.83736	0.12303	-0.065
Mof_H 	H 	0.80667	0.84583	0.04673	0.046
Mof_C 	C 	0.78135	0.81147	0.23833	-0.096
Mof_H 	H 	0.80057	0.79803	0.25873	0.064
Mof_C 	C 	0.7434	0.80773	0.32583	0.103
Mof_C 	C 	0.7283	0.78181	0.45253	-0.156
Mof_C 	C 	0.75366	0.75647	0.49663	0.145
Mof_C 	C 	0.78671	0.77328	0.60623	-0.189
Mof_H 	H 	0.79297	0.80083	0.65803	0.092
Mof_C 	C 	0.8104	0.74942	0.63903	0.098
Mof_H 	H 	0.83307	0.76153	0.71433	-0.017
Mof_C 	C 	0.77148	0.69456	0.46673	0.1
Mof_H 	H 	0.76587	0.66693	0.41713	-0.013
Mof_C 	C 	0.74599	0.7159	0.42583	-0.187
Mof_H 	H 	0.72357	0.70303	0.35023	0.092
Mof_C 	C 	0.77047	0.89294	0.90523	-0.007
Mof_C 	C 	0.81762	0.92653	0.91893	0.046
Mof_H 	H 	0.83017	0.93873	0.01113	0
Mof_C 	C 	0.84711	0.94282	0.79853	-0.215
Mof_H 	H 	0.87937	0.96603	0.81003	0.094
Mof_C 	C 	0.82985	0.92548	0.66303	0.237
Mof_C 	C 	0.78263	0.8918	0.65003	-0.2
Mof_H 	H 	0.77017	0.87943	0.55783	0.089
Mof_C 	C 	0.75319	0.87577	0.76833	0.018
Mof_H 	H 	0.72087	0.85283	0.75623	0.028
Mof_C 	C 	0.86113	0.94383	0.53073	-0.59
Mof_H 	H 	0.84927	0.91923	0.45683	0.187
Mof_H 	H 	0.89347	0.95233	0.55633	0.179
Mof_H 	H 	0.86077	0.97163	0.49383	0.19
Mof_N 	N 	0.66453	0.79803	0.51213	-0.264
Mof_N 	N 	0.60992	0.83484	0.40423	-0.268
Mof_N 	N 	0.52988	0.95609	0.09513	-0.227
Mof_C 	C 	0.69172	0.77759	0.53853	0.107
Mof_C 	C 	0.6754	0.74898	0.66653	-0.085
Mof_H 	H 	0.68817	0.73113	0.70743	0.062
Mof_C 	C 	0.63875	0.75225	0.71663	-0.068
Mof_H 	H 	0.62077	0.73733	0.80013	0.058
Mof_C 	C 	0.63169	0.7826	0.62053	0.085
Mof_C 	C 	0.59463	0.79193	0.63273	-0.094
Mof_C 	C 	0.58514	0.81684	0.52973	0.082
Mof_C 	C 	0.54869	0.8293	0.54363	-0.066
Mof_H 	H 	0.52667	0.82083	0.61993	0.053
Mof_C 	C 	0.55199	0.85519	0.42833	-0.095
Mof_H 	H 	0.53277	0.86863	0.40793	0.066
Mof_C 	C 	0.58994	0.85893	0.34083	0.106
Mof_C 	C 	0.60504	0.88485	0.21413	-0.164
Mof_C 	C 	0.57968	0.91019	0.17003	0.139
Mof_C 	C 	0.54663	0.89338	0.06043	-0.172
Mof_H 	H 	0.54037	0.86583	0.00863	0.08
Mof_C 	C 	0.52294	0.91724	0.02763	0.059
Mof_H 	H 	0.50027	0.90513	0.95233	0.008
Mof_C 	C 	0.56186	0.9721	0.19993	0.096
Mof_H 	H 	0.56747	0.99973	0.24953	-0.008
Mof_C 	C 	0.58735	0.95076	0.24083	-0.182
Mof_H 	H 	0.60977	0.96363	0.31643	0.093
Mof_C 	C 	0.56287	0.77372	0.76143	-0.003
Mof_C 	C 	0.51572	0.74013	0.74773	-0
Mof_H 	H 	0.50317	0.72793	0.65553	0.025
Mof_C 	C 	0.48623	0.72384	0.86813	-0.164
Mof_H 	H 	0.45397	0.70063	0.85663	0.077
Mof_C 	C 	0.50349	0.74118	0.00363	0.198
Mof_C 	C 	0.55071	0.77486	0.01663	-0.205
Mof_H 	H 	0.56317	0.78723	0.10883	0.089
Mof_C 	C 	0.58015	0.79089	0.89833	0.031
Mof_H 	H 	0.61247	0.81383	0.91043	0.028
Mof_C 	C 	0.47221	0.72283	0.13593	-0.554
Mof_H 	H 	0.48407	0.74743	0.20983	0.176
Mof_H 	H 	0.43987	0.71433	0.11033	0.163
Mof_H 	H 	0.47257	0.69503	0.17283	0.176
Mof_Co	Co	0.66667	0.83333	0.33333	1.136
Mof_N 	N 	0.33547	0.20197	0.48787	-0.264
Mof_N 	N 	0.39008	0.16516	0.59577	-0.266
Mof_N 	N 	0.47012	0.04391	0.90487	-0.237
Mof_C 	C 	0.30828	0.22241	0.46147	0.106
Mof_C 	C 	0.3246	0.25102	0.33347	-0.087
Mof_H 	H 	0.31183	0.26887	0.29257	0.059
Mof_C 	C 	0.36125	0.24775	0.28337	-0.07
Mof_H 	H 	0.37923	0.26267	0.19987	0.052
Mof_C 	C 	0.36831	0.2174	0.37947	0.085
Mof_C 	C 	0.40537	0.20807	0.36727	-0.097
Mof_C 	C 	0.41486	0.18316	0.47027	0.082
Mof_C 	C 	0.45131	0.1707	0.45637	-0.068
Mof_H 	H 	0.47333	0.17917	0.38007	0.05
Mof_C 	C 	0.44801	0.14481	0.57167	-0.092
Mof_H 	H 	0.46723	0.13137	0.59207	0.064
Mof_C 	C 	0.41006	0.14107	0.65917	0.099
Mof_C 	C 	0.39496	0.11515	0.78587	-0.146
Mof_C 	C 	0.42032	0.08981	0.82997	0.15
Mof_C 	C 	0.45337	0.10662	0.93957	-0.205
Mof_H 	H 	0.45963	0.13417	0.99137	0.101
Mof_C 	C 	0.47706	0.08276	0.97237	0.136
Mof_H 	H 	0.49973	0.09487	0.04767	-0.041
Mof_C 	C 	0.43814	0.0279	0.80007	0.103
Mof_H 	H 	0.43253	0.00027	0.75047	-0.015
Mof_C 	C 	0.41265	0.04924	0.75917	-0.19
Mof_H 	H 	0.39023	0.03637	0.68357	0.093
Mof_C 	C 	0.43713	0.22628	0.23857	0.001
Mof_C 	C 	0.48428	0.25987	0.25227	0.013
Mof_H 	H 	0.49683	0.27207	0.34447	0.019
Mof_C 	C 	0.51377	0.27616	0.13187	-0.218
Mof_H 	H 	0.54603	0.29937	0.14337	0.085
Mof_C 	C 	0.49651	0.25882	0.99637	0.24
Mof_C 	C 	0.44929	0.22514	0.98337	-0.169
Mof_H 	H 	0.43683	0.21277	0.89117	0.081
Mof_C 	C 	0.41985	0.20911	0.10167	-0.015
Mof_H 	H 	0.38753	0.18617	0.08957	0.032
Mof_C 	C 	0.52779	0.27717	0.86407	-0.587
Mof_H 	H 	0.51593	0.25257	0.79017	0.185
Mof_H 	H 	0.56013	0.28567	0.88967	0.178
Mof_H 	H 	0.52743	0.30497	0.82717	0.189
Mof_N 	N 	0.33119	0.13137	0.84547	-0.265
Mof_N 	N 	0.27658	0.16818	0.73757	-0.268
Mof_N 	N 	0.19654	0.28943	0.42847	-0.233
Mof_C 	C 	0.35838	0.11093	0.87187	0.081
Mof_C 	C 	0.34206	0.08232	0.99987	0.004
Mof_H 	H 	0.35483	0.06447	0.04077	0.017
Mof_C 	C 	0.30541	0.08559	0.04997	-0.154
Mof_H 	H 	0.28743	0.07067	0.13347	0.08
Mof_C 	C 	0.29835	0.11594	0.95387	0.122
Mof_C 	C 	0.26129	0.12527	0.96607	-0.099
Mof_C 	C 	0.2518	0.15018	0.86307	0.087
Mof_C 	C 	0.21535	0.16264	0.87697	-0.068
Mof_H 	H 	0.19333	0.15417	0.95327	0.057
Mof_C 	C 	0.21865	0.18853	0.76167	-0.091
Mof_H 	H 	0.19943	0.20197	0.74127	0.065
Mof_C 	C 	0.2566	0.19227	0.67417	0.102
Mof_C 	C 	0.2717	0.21819	0.54747	-0.155
Mof_C 	C 	0.24634	0.24353	0.50337	0.144
Mof_C 	C 	0.21329	0.22672	0.39377	-0.189
Mof_H 	H 	0.20703	0.19917	0.34197	0.089
Mof_C 	C 	0.1896	0.25058	0.36097	0.097
Mof_H 	H 	0.16693	0.23847	0.28567	-0.018
Mof_C 	C 	0.22852	0.30544	0.53327	0.1
Mof_H 	H 	0.23413	0.33307	0.58287	-0.011
Mof_C 	C 	0.25401	0.2841	0.57417	-0.186
Mof_H 	H 	0.27643	0.29697	0.64977	0.093
Mof_C 	C 	0.22953	0.10706	0.09477	0.005
Mof_C 	C 	0.18238	0.07347	0.08107	-0.034
Mof_H 	H 	0.16983	0.06127	0.98887	0.044
Mof_C 	C 	0.15289	0.05718	0.20147	-0.169
Mof_H 	H 	0.12063	0.03397	0.18997	0.068
Mof_C 	C 	0.17015	0.07452	0.33697	0.202
Mof_C 	C 	0.21737	0.1082	0.34997	-0.174
Mof_H 	H 	0.22983	0.12057	0.44217	0.08
Mof_C 	C 	0.24681	0.12423	0.23167	-0.004
Mof_H 	H 	0.27913	0.14717	0.24377	0.032
Mof_C 	C 	0.13887	0.05617	0.46927	-0.552
Mof_H 	H 	0.15073	0.08077	0.54317	0.175
Mof_H 	H 	0.10653	0.04767	0.44367	0.163
Mof_H 	H 	0.13923	0.02837	0.50617	0.175
Mof_Co	Co	0.33333	0.16667	0.66667	1.137
Mof_N 	N 	0.4647	0.46684	0.8212	-0.259
Mof_N 	N 	0.50151	0.55826	0.9291	-0.265
Mof_N 	N 	0.62276	0.75955	0.2382	-0.234
Mof_C 	C 	0.44426	0.41921	0.7948	0.101
Mof_C 	C 	0.41565	0.40692	0.6668	-0.081
Mof_H 	H 	0.3978	0.3763	0.6259	0.059
Mof_C 	C 	0.41892	0.44684	0.6167	-0.07
Mof_H 	H 	0.404	0.4499	0.5332	0.056
Mof_C 	C 	0.44927	0.48425	0.7128	0.086
Mof_C 	C 	0.4586	0.53064	0.7006	-0.095
Mof_C 	C 	0.48351	0.56504	0.8036	0.081
Mof_C 	C 	0.49597	0.61395	0.7897	-0.059
Mof_H 	H 	0.4875	0.6275	0.7134	0.05
Mof_C 	C 	0.52186	0.63654	0.905	-0.104
Mof_H 	H 	0.5353	0.6692	0.9254	0.074
Mof_C 	C 	0.5256	0.60233	0.9925	0.13
Mof_C 	C 	0.55152	0.61315	0.1192	-0.18
Mof_C 	C 	0.57686	0.66385	0.1633	0.15
Mof_C 	C 	0.56005	0.68009	0.2729	-0.194
Mof_H 	H 	0.5325	0.6588	0.3247	0.092
Mof_C 	C 	0.58391	0.72764	0.3057	0.099
Mof_H 	H 	0.5718	0.7382	0.381	-0.018
Mof_C 	C 	0.63877	0.74358	0.1334	0.1
Mof_H 	H 	0.6664	0.7656	0.0838	-0.015
Mof_C 	C 	0.61743	0.69675	0.0925	-0.193
Mof_H 	H 	0.6303	0.6872	0.0169	0.089
Mof_C 	C 	0.44039	0.54419	0.5719	0.001
Mof_C 	C 	0.4068	0.55775	0.5856	0.004
Mof_H 	H 	0.3946	0.5581	0.6778	0.025
Mof_C 	C 	0.39051	0.57095	0.4652	-0.188
Mof_H 	H 	0.3673	0.58	0.4767	0.081
Mof_C 	C 	0.40785	0.57103	0.3297	0.214
Mof_C 	C 	0.44153	0.55749	0.3167	-0.182
Mof_H 	H 	0.4539	0.5574	0.2245	0.081
Mof_C 	C 	0.45756	0.54408	0.435	0.004
Mof_H 	H 	0.4805	0.5347	0.4229	0.031
Mof_C 	C 	0.3895	0.58396	0.1974	-0.562
Mof_H 	H 	0.4141	0.5967	0.1235	0.174
Mof_H 	H 	0.381	0.6078	0.223	0.167
Mof_H 	H 	0.3617	0.5558	0.1605	0.178
Mof_N 	N 	0.5353	0.53316	0.1788	-0.268
Mof_N 	N 	0.49849	0.44174	0.0709	-0.266
Mof_N 	N 	0.37724	0.24045	0.7618	-0.232
Mof_C 	C 	0.55574	0.58079	0.2052	0.113
Mof_C 	C 	0.58435	0.59308	0.3332	-0.091
Mof_H 	H 	0.6022	0.6237	0.3741	0.062
Mof_C 	C 	0.58108	0.55316	0.3833	-0.067
Mof_H 	H 	0.596	0.5501	0.4668	0.054
Mof_C 	C 	0.55073	0.51575	0.2872	0.084
Mof_C 	C 	0.5414	0.46936	0.2994	-0.095
Mof_C 	C 	0.51649	0.43496	0.1964	0.083
Mof_C 	C 	0.50403	0.38605	0.2103	-0.074
Mof_H 	H 	0.5125	0.3725	0.2866	0.053
Mof_C 	C 	0.47814	0.36346	0.095	-0.084
Mof_H 	H 	0.4647	0.3308	0.0746	0.056
Mof_C 	C 	0.4744	0.39767	0.0075	0.076
Mof_C 	C 	0.44848	0.38685	0.8808	-0.131
Mof_C 	C 	0.42314	0.33615	0.8367	0.139
Mof_C 	C 	0.43995	0.31991	0.7271	-0.184
Mof_H 	H 	0.4675	0.3412	0.6753	0.089
Mof_C 	C 	0.41609	0.27236	0.6943	0.096
Mof_H 	H 	0.4282	0.2618	0.619	-0.017
Mof_C 	C 	0.36123	0.25642	0.8666	0.099
Mof_H 	H 	0.3336	0.2344	0.9162	-0.009
Mof_C 	C 	0.38257	0.30325	0.9075	-0.18
Mof_H 	H 	0.3697	0.3128	0.9831	0.096
Mof_C 	C 	0.55961	0.45581	0.4281	-0.004
Mof_C 	C 	0.5932	0.44225	0.4144	0.01
Mof_H 	H 	0.6054	0.4419	0.3222	0.019
Mof_C 	C 	0.60949	0.42905	0.5348	-0.197
Mof_H 	H 	0.6327	0.42	0.5233	0.082
Mof_C 	C 	0.59215	0.42897	0.6703	0.225
Mof_C 	C 	0.55847	0.44251	0.6833	-0.192
Mof_H 	H 	0.5461	0.4426	0.7755	0.089
Mof_C 	C 	0.54244	0.45592	0.565	0.011
Mof_H 	H 	0.5195	0.4653	0.5771	0.029
Mof_C 	C 	0.6105	0.41604	0.8026	-0.581
Mof_H 	H 	0.5859	0.4033	0.8765	0.187
Mof_H 	H 	0.619	0.3922	0.777	0.174
Mof_H 	H 	0.6383	0.4442	0.8395	0.187
Mof_Co	Co	0.5	0.5	-0	1.129
Mof_N 	N 	0.13137	0.80017	0.15453	-0.264
Mof_N 	N 	0.16818	0.89159	0.26243	-0.266
Mof_N 	N 	0.28943	0.09288	0.57153	-0.24
Mof_C 	C 	0.11093	0.75254	0.12813	0.131
Mof_C 	C 	0.08232	0.74025	0.00013	-0.177
Mof_H 	H 	0.06447	0.70963	0.95923	0.101
Mof_C 	C 	0.08559	0.78017	0.95003	0.015
Mof_H 	H 	0.07067	0.78323	0.86653	0.028
Mof_C 	C 	0.11594	0.81758	0.04613	0.048
Mof_C 	C 	0.12527	0.86397	0.03393	-0.093
Mof_C 	C 	0.15018	0.89837	0.13693	0.081
Mof_C 	C 	0.16264	0.94728	0.12303	-0.075
Mof_H 	H 	0.15417	0.96083	0.04673	0.051
Mof_C 	C 	0.18853	0.96987	0.23833	-0.076
Mof_H 	H 	0.20197	0.00253	0.25873	0.052
Mof_C 	C 	0.19227	0.93566	0.32583	0.101
Mof_C 	C 	0.21819	0.94648	0.45253	-0.165
Mof_C 	C 	0.24353	0.99718	0.49663	0.182
Mof_C 	C 	0.22672	0.01342	0.60623	-0.235
Mof_H 	H 	0.19917	0.99213	0.65803	0.113
Mof_C 	C 	0.25058	0.06097	0.63903	0.12
Mof_H 	H 	0.23847	0.07153	0.71433	-0.025
Mof_C 	C 	0.30544	0.07691	0.46673	0.114
Mof_H 	H 	0.33307	0.09893	0.41713	-0.017
Mof_C 	C 	0.2841	0.03008	0.42583	-0.216
Mof_H 	H 	0.29697	0.02053	0.35023	0.099
Mof_C 	C 	0.10706	0.87752	0.90523	-0.005
Mof_C 	C 	0.07347	0.89108	0.91893	0.043
Mof_H 	H 	0.06127	0.89143	0.01113	-0.001
Mof_C 	C 	0.05718	0.90428	0.79853	-0.212
Mof_H 	H 	0.03397	0.91333	0.81003	0.09
Mof_C 	C 	0.07452	0.90436	0.66303	0.232
Mof_C 	C 	0.1082	0.89082	0.65003	-0.196
Mof_H 	H 	0.12057	0.89073	0.55783	0.088
Mof_C 	C 	0.12423	0.87741	0.76833	0.016
Mof_H 	H 	0.14717	0.86803	0.75623	0.029
Mof_C 	C 	0.05617	0.91729	0.53073	-0.582
Mof_H 	H 	0.08077	0.93003	0.45683	0.184
Mof_H 	H 	0.04767	0.94113	0.55633	0.174
Mof_H 	H 	0.02837	0.88913	0.49383	0.183
Mof_N 	N 	0.20197	0.86649	0.51213	-0.265
Mof_N 	N 	0.16516	0.77507	0.40423	-0.268
Mof_N 	N 	0.04391	0.57378	0.09513	-0.23
Mof_C 	C 	0.22241	0.91412	0.53853	0.112
Mof_C 	C 	0.25102	0.92641	0.66653	-0.088
Mof_H 	H 	0.26887	0.95703	0.70743	0.065
Mof_C 	C 	0.24775	0.88649	0.71663	-0.066
Mof_H 	H 	0.26267	0.88343	0.80013	0.057
Mof_C 	C 	0.2174	0.84908	0.62053	0.084
Mof_C 	C 	0.20807	0.80269	0.63273	-0.093
Mof_C 	C 	0.18316	0.76829	0.52973	0.082
Mof_C 	C 	0.1707	0.71938	0.54363	-0.066
Mof_H 	H 	0.17917	0.70583	0.61993	0.053
Mof_C 	C 	0.14481	0.69679	0.42833	-0.095
Mof_H 	H 	0.13137	0.66413	0.40793	0.065
Mof_C 	C 	0.14107	0.731	0.34083	0.106
Mof_C 	C 	0.11515	0.72018	0.21413	-0.165
Mof_C 	C 	0.08981	0.66948	0.17003	0.138
Mof_C 	C 	0.10662	0.65324	0.06043	-0.172
Mof_H 	H 	0.13417	0.67453	0.00863	0.08
Mof_C 	C 	0.08276	0.60569	0.02763	0.057
Mof_H 	H 	0.09487	0.59513	0.95233	0.008
Mof_C 	C 	0.0279	0.58975	0.19993	0.094
Mof_H 	H 	0.00027	0.56773	0.24953	-0.014
Mof_C 	C 	0.04924	0.63658	0.24083	-0.184
Mof_H 	H 	0.03637	0.64613	0.31643	0.09
Mof_C 	C 	0.22628	0.78914	0.76143	-0.004
Mof_C 	C 	0.25987	0.77558	0.74773	0
Mof_H 	H 	0.27207	0.77523	0.65553	0.025
Mof_C 	C 	0.27616	0.76238	0.86813	-0.164
Mof_H 	H 	0.29937	0.75333	0.85663	0.077
Mof_C 	C 	0.25882	0.7623	0.00363	0.198
Mof_C 	C 	0.22514	0.77584	0.01663	-0.205
Mof_H 	H 	0.21277	0.77593	0.10883	0.089
Mof_C 	C 	0.20911	0.78925	0.89833	0.031
Mof_H 	H 	0.18617	0.79863	0.91043	0.028
Mof_C 	C 	0.27717	0.74937	0.13593	-0.554
Mof_H 	H 	0.25257	0.73663	0.20983	0.176
Mof_H 	H 	0.28567	0.72553	0.11033	0.163
Mof_H 	H 	0.30497	0.77753	0.17283	0.176
Mof_Co	Co	0.16667	0.83333	0.33333	1.136
Mof_N 	N 	0.79803	0.13351	0.48787	-0.264
Mof_N 	N 	0.83484	0.22493	0.59577	-0.266
Mof_N 	N 	0.95609	0.42622	0.90487	-0.234
Mof_C 	C 	0.77759	0.08588	0.46147	0.102
Mof_C 	C 	0.74898	0.07359	0.33347	-0.084
Mof_H 	H 	0.73113	0.04297	0.29257	0.056
Mof_C 	C 	0.75225	0.11351	0.28337	-0.072
Mof_H 	H 	0.73733	0.11657	0.19987	0.052
Mof_C 	C 	0.7826	0.15092	0.37947	0.085
Mof_C 	C 	0.79193	0.19731	0.36727	-0.097
Mof_C 	C 	0.81684	0.23171	0.47027	0.082
Mof_C 	C 	0.8293	0.28062	0.45637	-0.067
Mof_H 	H 	0.82083	0.29417	0.38007	0.05
Mof_C 	C 	0.85519	0.30321	0.57167	-0.092
Mof_H 	H 	0.86863	0.33587	0.59207	0.064
Mof_C 	C 	0.85893	0.269	0.65917	0.099
Mof_C 	C 	0.88485	0.27982	0.78587	-0.146
Mof_C 	C 	0.91019	0.33052	0.82997	0.151
Mof_C 	C 	0.89338	0.34676	0.93957	-0.205
Mof_H 	H 	0.86583	0.32547	0.99137	0.101
Mof_C 	C 	0.91724	0.39431	0.97237	0.136
Mof_H 	H 	0.90513	0.40487	0.04767	-0.041
Mof_C 	C 	0.9721	0.41025	0.80007	0.105
Mof_H 	H 	0.99973	0.43227	0.75047	-0.009
Mof_C 	C 	0.95076	0.36342	0.75917	-0.189
Mof_H 	H 	0.96363	0.35387	0.68357	0.096
Mof_C 	C 	0.77372	0.21086	0.23857	0.001
Mof_C 	C 	0.74013	0.22442	0.25227	0.013
Mof_H 	H 	0.72793	0.22477	0.34447	0.019
Mof_C 	C 	0.72384	0.23762	0.13187	-0.218
Mof_H 	H 	0.70063	0.24667	0.14337	0.085
Mof_C 	C 	0.74118	0.2377	0.99637	0.24
Mof_C 	C 	0.77486	0.22416	0.98337	-0.17
Mof_H 	H 	0.78723	0.22407	0.89117	0.081
Mof_C 	C 	0.79089	0.21075	0.10167	-0.015
Mof_H 	H 	0.81383	0.20137	0.08957	0.032
Mof_C 	C 	0.72283	0.25063	0.86407	-0.587
Mof_H 	H 	0.74743	0.26337	0.79017	0.185
Mof_H 	H 	0.71433	0.27447	0.88967	0.178
Mof_H 	H 	0.69503	0.22247	0.82717	0.189
Mof_N 	N 	0.86863	0.19983	0.84547	-0.265
Mof_N 	N 	0.83182	0.10841	0.73757	-0.267
Mof_N 	N 	0.71057	0.90712	0.42847	-0.226
Mof_C 	C 	0.88907	0.24746	0.87187	0.083
Mof_C 	C 	0.91768	0.25975	0.99987	0.001
Mof_H 	H 	0.93553	0.29037	0.04077	0.022
Mof_C 	C 	0.91441	0.21983	0.04997	-0.149
Mof_H 	H 	0.92933	0.21677	0.13347	0.081
Mof_C 	C 	0.88406	0.18242	0.95387	0.12
Mof_C 	C 	0.87473	0.13603	0.96607	-0.097
Mof_C 	C 	0.84982	0.10163	0.86307	0.083
Mof_C 	C 	0.83736	0.05272	0.87697	-0.058
Mof_H 	H 	0.84583	0.03917	0.95327	0.052
Mof_C 	C 	0.81147	0.03013	0.76167	-0.11
Mof_H 	H 	0.79803	0.99747	0.74127	0.077
Mof_C 	C 	0.80773	0.06434	0.67417	0.103
Mof_C 	C 	0.78181	0.05352	0.54747	-0.145
Mof_C 	C 	0.75647	0.00282	0.50337	0.107
Mof_C 	C 	0.77328	0.98658	0.39377	-0.143
Mof_H 	H 	0.80083	0.00787	0.34197	0.069
Mof_C 	C 	0.74942	0.93903	0.36097	0.076
Mof_H 	H 	0.76153	0.92847	0.28567	-0.01
Mof_C 	C 	0.69456	0.92309	0.53327	0.085
Mof_H 	H 	0.66693	0.90107	0.58287	-0.006
Mof_C 	C 	0.7159	0.96992	0.57417	-0.157
Mof_H 	H 	0.70303	0.97947	0.64977	0.087
Mof_C 	C 	0.89294	0.12248	0.09477	0.002
Mof_C 	C 	0.92653	0.10892	0.08107	-0.029
Mof_H 	H 	0.93873	0.10857	0.98887	0.044
Mof_C 	C 	0.94282	0.09572	0.20147	-0.173
Mof_H 	H 	0.96603	0.08667	0.18997	0.073
Mof_C 	C 	0.92548	0.09564	0.33697	0.208
Mof_C 	C 	0.8918	0.10918	0.34997	-0.178
Mof_H 	H 	0.87943	0.10927	0.44217	0.082
Mof_C 	C 	0.87577	0.12259	0.23167	-0.001
Mof_H 	H 	0.85283	0.13197	0.24377	0.03
Mof_C 	C 	0.94383	0.08271	0.46927	-0.562
Mof_H 	H 	0.91923	0.06997	0.54317	0.177
Mof_H 	H 	0.95233	0.05887	0.44367	0.167
Mof_H 	H 	0.97163	0.11087	0.50617	0.182
Mof_Co	Co	0.83333	0.16667	0.66667	1.137
_end
