data_functionalizedCrystal
_audit_creation_method	'EQeq! by Chris Wilmer'
_symmetry_space_group_name_H-M	'P1'
_symmetry_Int_Tables_number	1
_symmetry_cell_setting	triclinic
loop_
_symmetry_equiv_pos_as_xyz
  x,y,z
_cell_length_a	16.52
_cell_length_b	34.6
_cell_length_c	9.361
_cell_angle_alpha	90
_cell_angle_beta	112.4
_cell_angle_gamma	90
loop_
_atom_site_label
_atom_site_type_symbol
_atom_site_fract_x
_atom_site_fract_y
_atom_site_fract_z
_atom_site_charge
Mof_N 	N 	0.887	0.016	0.83	-0.175
Mof_N 	N 	0.972	0.945	0.945	-0.148
Mof_C 	C 	0.827	0.99	0.729	0.087
Mof_C 	C 	0.828	0.953	0.723	-0.071
Mof_C 	C 	0.895	0.929	0.821	0.074
Mof_C 	C 	0.904	0.888	0.808	-0.025
Mof_C 	C 	0.98	0.876	0.931	0.022
Mof_C 	C 	0.021	0.913	0.994	0.049
Mof_C 	C 	0.094	0.916	0.151	-0.082
Mof_C 	C 	0.861	0.052	0.785	0.086
Mof_C 	C 	0.778	0.051	0.648	-0.023
Mof_C 	C 	0.755	0.017	0.622	-0.023
Mof_C 	C 	0.744	0.931	0.631	0.033
Mof_C 	C 	0.7	0.904	0.667	-0.02
Mof_C 	C 	0.625	0.882	0.568	0.018
Mof_C 	C 	0.649	0.921	0.377	0.059
Mof_C 	C 	0.724	0.941	0.458	-0.031
Mof_C 	C 	0.137	0.876	0.204	0.032
Mof_C 	C 	0.184	0.851	0.169	-0.044
Mof_C 	C 	0.221	0.816	0.235	0.012
Mof_C 	C 	0.158	0.831	0.415	0.034
Mof_C 	C 	0.131	0.868	0.337	-0.033
Mof_N 	N 	0.607	0.893	0.408	-0.148
Mof_N 	N 	0.205	0.806	0.37	-0.153
Mof_N 	N 	0.387	0.516	0.83	-0.178
Mof_N 	N 	0.472	0.445	0.945	-0.177
Mof_C 	C 	0.327	0.49	0.729	0.072
Mof_C 	C 	0.328	0.453	0.723	-0.067
Mof_C 	C 	0.395	0.429	0.821	0.066
Mof_C 	C 	0.404	0.388	0.808	-0.019
Mof_C 	C 	0.48	0.376	0.931	-0.02
Mof_C 	C 	0.521	0.413	0.994	0.102
Mof_C 	C 	0.594	0.416	0.151	-0.094
Mof_C 	C 	0.361	0.552	0.785	0.079
Mof_C 	C 	0.278	0.551	0.648	-0.026
Mof_C 	C 	0.255	0.517	0.622	-0.016
Mof_C 	C 	0.244	0.431	0.631	0.029
Mof_C 	C 	0.2	0.404	0.667	-0.021
Mof_C 	C 	0.125	0.382	0.568	0.01
Mof_C 	C 	0.149	0.421	0.377	0.053
Mof_C 	C 	0.224	0.441	0.458	-0.034
Mof_C 	C 	0.637	0.376	0.204	0.04
Mof_C 	C 	0.684	0.351	0.169	-0.043
Mof_C 	C 	0.721	0.316	0.235	0.02
Mof_C 	C 	0.658	0.331	0.415	0.04
Mof_C 	C 	0.631	0.368	0.337	-0.03
Mof_N 	N 	0.107	0.393	0.408	-0.149
Mof_N 	N 	0.705	0.306	0.37	-0.152
Mof_N 	N 	0.113	0.016	0.67	-0.19
Mof_N 	N 	0.028	0.945	0.555	-0.2
Mof_C 	C 	0.173	0.99	0.771	0.087
Mof_C 	C 	0.172	0.953	0.777	-0.075
Mof_C 	C 	0.105	0.929	0.679	0.062
Mof_C 	C 	0.096	0.888	0.692	-0.014
Mof_C 	C 	0.02	0.876	0.569	-0.068
Mof_C 	C 	0.979	0.913	0.506	0.131
Mof_C 	C 	0.906	0.916	0.349	-0.079
Mof_C 	C 	0.139	0.052	0.715	0.077
Mof_C 	C 	0.222	0.051	0.852	-0.016
Mof_C 	C 	0.245	0.017	0.878	-0.015
Mof_C 	C 	0.256	0.931	0.869	0.057
Mof_C 	C 	0.3	0.904	0.833	-0.034
Mof_C 	C 	0.375	0.882	0.932	0.04
Mof_C 	C 	0.351	0.921	0.123	0.065
Mof_C 	C 	0.276	0.941	0.042	-0.059
Mof_C 	C 	0.863	0.876	0.296	0.044
Mof_C 	C 	0.816	0.851	0.331	-0.033
Mof_C 	C 	0.779	0.816	0.265	0.02
Mof_C 	C 	0.842	0.831	0.085	0.034
Mof_C 	C 	0.869	0.868	0.163	-0.031
Mof_N 	N 	0.393	0.893	0.092	-0.162
Mof_N 	N 	0.795	0.806	0.13	-0.152
Mof_N 	N 	0.613	0.516	0.67	-0.188
Mof_N 	N 	0.528	0.445	0.555	-0.185
Mof_C 	C 	0.673	0.49	0.771	0.074
Mof_C 	C 	0.672	0.453	0.777	-0.071
Mof_C 	C 	0.605	0.429	0.679	0.065
Mof_C 	C 	0.596	0.388	0.692	-0.017
Mof_C 	C 	0.52	0.376	0.569	-0.027
Mof_C 	C 	0.479	0.413	0.506	0.079
Mof_C 	C 	0.406	0.416	0.349	-0.073
Mof_C 	C 	0.639	0.552	0.715	0.086
Mof_C 	C 	0.722	0.551	0.852	-0.019
Mof_C 	C 	0.745	0.517	0.878	-0.001
Mof_C 	C 	0.756	0.431	0.869	0.058
Mof_C 	C 	0.8	0.404	0.833	-0.033
Mof_C 	C 	0.875	0.382	0.932	0.051
Mof_C 	C 	0.851	0.421	0.123	0.072
Mof_C 	C 	0.776	0.441	0.042	-0.061
Mof_C 	C 	0.363	0.376	0.296	0.038
Mof_C 	C 	0.316	0.351	0.331	-0.035
Mof_C 	C 	0.279	0.316	0.265	0.015
Mof_C 	C 	0.342	0.331	0.085	0.028
Mof_C 	C 	0.369	0.368	0.163	-0.035
Mof_N 	N 	0.893	0.393	0.092	-0.155
Mof_N 	N 	0.295	0.306	0.13	-0.153
Mof_N 	N 	0.113	0.984	0.17	-0.181
Mof_N 	N 	0.028	0.055	0.055	-0.2
Mof_C 	C 	0.173	0.01	0.271	0.054
Mof_C 	C 	0.172	0.047	0.277	-0.064
Mof_C 	C 	0.105	0.071	0.179	0.053
Mof_C 	C 	0.096	0.112	0.192	-0.019
Mof_C 	C 	0.02	0.124	0.069	-0.075
Mof_C 	C 	0.979	0.087	0.006	0.107
Mof_C 	C 	0.906	0.084	0.849	-0.052
Mof_C 	C 	0.139	0.948	0.215	0.085
Mof_C 	C 	0.222	0.949	0.352	-0.028
Mof_C 	C 	0.245	0.983	0.378	-0.002
Mof_C 	C 	0.256	0.069	0.369	0.027
Mof_C 	C 	0.3	0.096	0.333	-0.031
Mof_C 	C 	0.375	0.118	0.432	0.011
Mof_C 	C 	0.351	0.079	0.623	0.064
Mof_C 	C 	0.276	0.059	0.542	-0.035
Mof_C 	C 	0.863	0.124	0.796	0.039
Mof_C 	C 	0.816	0.149	0.831	-0.024
Mof_C 	C 	0.779	0.184	0.765	0.025
Mof_C 	C 	0.842	0.169	0.585	0.041
Mof_C 	C 	0.869	0.132	0.663	-0.023
Mof_N 	N 	0.393	0.107	0.592	-0.148
Mof_N 	N 	0.795	0.194	0.63	-0.151
Mof_N 	N 	0.613	0.484	0.17	-0.19
Mof_N 	N 	0.528	0.555	0.055	-0.183
Mof_C 	C 	0.673	0.51	0.271	0.068
Mof_C 	C 	0.672	0.547	0.277	-0.071
Mof_C 	C 	0.605	0.571	0.179	0.061
Mof_C 	C 	0.596	0.612	0.192	-0.024
Mof_C 	C 	0.52	0.624	0.069	-0.034
Mof_C 	C 	0.479	0.587	0.006	0.054
Mof_C 	C 	0.406	0.584	0.849	-0.045
Mof_C 	C 	0.639	0.448	0.215	0.091
Mof_C 	C 	0.722	0.449	0.352	-0.025
Mof_C 	C 	0.745	0.483	0.378	-0.01
Mof_C 	C 	0.756	0.569	0.369	0.032
Mof_C 	C 	0.8	0.596	0.333	-0.03
Mof_C 	C 	0.875	0.618	0.432	0.024
Mof_C 	C 	0.851	0.579	0.623	0.072
Mof_C 	C 	0.776	0.559	0.542	-0.034
Mof_C 	C 	0.363	0.624	0.796	0.032
Mof_C 	C 	0.316	0.649	0.831	-0.025
Mof_C 	C 	0.279	0.684	0.765	0.019
Mof_C 	C 	0.342	0.669	0.585	0.036
Mof_C 	C 	0.369	0.632	0.663	-0.027
Mof_N 	N 	0.893	0.607	0.592	-0.142
Mof_N 	N 	0.295	0.694	0.63	-0.152
Mof_N 	N 	0.887	0.984	0.33	-0.173
Mof_N 	N 	0.972	0.055	0.445	-0.155
Mof_C 	C 	0.827	0.01	0.229	0.057
Mof_C 	C 	0.828	0.047	0.223	-0.061
Mof_C 	C 	0.895	0.071	0.321	0.067
Mof_C 	C 	0.904	0.112	0.308	-0.029
Mof_C 	C 	0.98	0.124	0.431	0.016
Mof_C 	C 	0.021	0.087	0.494	0.024
Mof_C 	C 	0.094	0.084	0.651	-0.057
Mof_C 	C 	0.861	0.948	0.285	0.094
Mof_C 	C 	0.778	0.949	0.148	-0.035
Mof_C 	C 	0.755	0.983	0.122	-0.01
Mof_C 	C 	0.744	0.069	0.131	0.003
Mof_C 	C 	0.7	0.096	0.167	-0.017
Mof_C 	C 	0.625	0.118	0.068	-0.012
Mof_C 	C 	0.649	0.079	0.877	0.058
Mof_C 	C 	0.724	0.059	0.958	-0.007
Mof_C 	C 	0.137	0.124	0.704	0.028
Mof_C 	C 	0.184	0.149	0.669	-0.035
Mof_C 	C 	0.221	0.184	0.735	0.02
Mof_C 	C 	0.158	0.169	0.915	0.044
Mof_C 	C 	0.131	0.132	0.837	-0.026
Mof_N 	N 	0.607	0.107	0.908	-0.134
Mof_N 	N 	0.205	0.194	0.87	-0.147
Mof_N 	N 	0.387	0.484	0.33	-0.189
Mof_N 	N 	0.472	0.555	0.445	-0.185
Mof_C 	C 	0.327	0.51	0.229	0.067
Mof_C 	C 	0.328	0.547	0.223	-0.068
Mof_C 	C 	0.395	0.571	0.321	0.062
Mof_C 	C 	0.404	0.612	0.308	-0.026
Mof_C 	C 	0.48	0.624	0.431	-0.027
Mof_C 	C 	0.521	0.587	0.494	0.078
Mof_C 	C 	0.594	0.584	0.651	-0.068
Mof_C 	C 	0.361	0.448	0.285	0.086
Mof_C 	C 	0.278	0.449	0.148	-0.032
Mof_C 	C 	0.255	0.483	0.122	-0.025
Mof_C 	C 	0.244	0.569	0.131	0.004
Mof_C 	C 	0.2	0.596	0.167	-0.019
Mof_C 	C 	0.125	0.618	0.068	-0.017
Mof_C 	C 	0.149	0.579	0.877	0.054
Mof_C 	C 	0.224	0.559	0.958	-0.007
Mof_C 	C 	0.637	0.624	0.704	0.036
Mof_C 	C 	0.684	0.649	0.669	-0.034
Mof_C 	C 	0.721	0.684	0.735	0.028
Mof_C 	C 	0.658	0.669	0.915	0.05
Mof_C 	C 	0.631	0.632	0.837	-0.022
Mof_N 	N 	0.107	0.607	0.908	-0.135
Mof_N 	N 	0.705	0.694	0.87	-0.146
Mof_Cd	Cd	0.5	0.1484	0.75	0.28
Mof_Cd	Cd	-2.29812e-17	0.6484	0.75	0.256
Mof_Cd	Cd	0.5	0.8516	0.25	0.265
Mof_Cd	Cd	7.3355e-34	0.3516	0.25	0.241
Mof_Cd	Cd	0.25	0.75	0.5	0.266
Mof_Cd	Cd	0.75	0.75	-0	0.255
Mof_Cd	Cd	0.75	0.25	0.5	0.276
Mof_Cd	Cd	0.25	0.25	-0	0.245
Mof_Pd	Pd	-0	0	-0	0.45
Mof_Pd	Pd	0.5	0.5	-0	0.493
Mof_Pd	Pd	1.4671e-33	0	0.5	0.482
Mof_Pd	Pd	0.5	0.5	0.5	0.526
_end
