data_functionalizedCrystal
_audit_creation_method	'EQeq! by Chris Wilmer'
_symmetry_space_group_name_H-M	'P1'
_symmetry_Int_Tables_number	1
_symmetry_cell_setting	triclinic
loop_
_symmetry_equiv_pos_as_xyz
  x,y,z
_cell_length_a	8.709
_cell_length_b	11.587
_cell_length_c	8.28
_cell_angle_alpha	90
_cell_angle_beta	90
_cell_angle_gamma	90
loop_
_atom_site_label
_atom_site_type_symbol
_atom_site_fract_x
_atom_site_fract_y
_atom_site_fract_z
_atom_site_charge
Mof_C 	C 	0.97029	0.21972	0.02571	0.505
Mof_H 	H 	0.918	0.2804	0.08	-0.115
Mof_O 	O 	0.24059	0.40404	0.11873	-0.428
Mof_O 	O 	0.08746	0.17983	0.09078	-0.461
Mof_O 	O 	0.91591	0.18578	0.89362	-0.442
Mof_C 	C 	0.52971	0.78028	0.02571	0.523
Mof_H 	H 	0.582	0.7196	0.08	-0.118
Mof_O 	O 	0.25941	0.59596	0.11873	-0.429
Mof_O 	O 	0.41254	0.82017	0.09078	-0.448
Mof_O 	O 	0.58409	0.81422	0.89362	-0.428
Mof_C 	C 	0.52971	0.71972	0.47429	0.527
Mof_H 	H 	0.582	0.7804	0.42	-0.115
Mof_O 	O 	0.25941	0.90404	0.38127	-0.365
Mof_O 	O 	0.41254	0.67983	0.40922	-0.463
Mof_O 	O 	0.58409	0.68578	0.60638	-0.442
Mof_C 	C 	0.97029	0.28028	0.47429	0.525
Mof_H 	H 	0.918	0.2196	0.42	-0.126
Mof_O 	O 	0.24059	0.09596	0.38127	-0.417
Mof_O 	O 	0.08746	0.32017	0.40922	-0.464
Mof_O 	O 	0.91591	0.31422	0.60638	-0.445
Mof_C 	C 	0.02971	0.78028	0.97429	0.5
Mof_H 	H 	0.082	0.7196	0.92	-0.112
Mof_O 	O 	0.75941	0.59596	0.88127	-0.428
Mof_O 	O 	0.91254	0.82017	0.90922	-0.436
Mof_O 	O 	0.08409	0.81422	0.10638	-0.419
Mof_C 	C 	0.47029	0.21972	0.97429	0.526
Mof_H 	H 	0.418	0.2804	0.92	-0.122
Mof_O 	O 	0.74059	0.40404	0.88127	-0.429
Mof_O 	O 	0.58746	0.17983	0.90922	-0.472
Mof_O 	O 	0.41591	0.18578	0.10638	-0.451
Mof_C 	C 	0.47029	0.28028	0.52571	0.528
Mof_H 	H 	0.418	0.2196	0.58	-0.126
Mof_O 	O 	0.74059	0.09596	0.61873	-0.416
Mof_O 	O 	0.58746	0.32017	0.59078	-0.466
Mof_O 	O 	0.41591	0.31422	0.39362	-0.446
Mof_C 	C 	0.02971	0.71972	0.52571	0.523
Mof_H 	H 	0.082	0.7804	0.58	-0.114
Mof_O 	O 	0.75941	0.90404	0.61873	-0.362
Mof_O 	O 	0.91254	0.67983	0.59078	-0.46
Mof_O 	O 	0.08409	0.68578	0.39362	-0.441
Mof_C 	C 	0.25	0.5	0.1884	0.474
Mof_H 	H 	0.25	0.5	0.3031	-0.098
Mof_C 	C 	0.25	0	0.3116	0.375
Mof_H 	H 	0.25	-1.88826e-33	0.1969	-0.086
Mof_C 	C 	0.75	0.5	0.8116	0.474
Mof_H 	H 	0.75	0.5	0.6969	-0.098
Mof_C 	C 	0.75	0	0.6884	0.37
Mof_H 	H 	0.75	0	0.8031	-0.086
Mof_Mg	Mg	0.24103	0.25	0.25	1.481
Mof_Mg	Mg	0.25897	0.75	0.25	1.481
Mof_Mg	Mg	0.75897	0.75	0.75	1.481
Mof_Mg	Mg	0.74103	0.25	0.75	1.481
_end
