data_functionalizedCrystal
_audit_creation_method	'EQeq! by Chris Wilmer'
_symmetry_space_group_name_H-M	'P1'
_symmetry_Int_Tables_number	1
_symmetry_cell_setting	triclinic
loop_
_symmetry_equiv_pos_as_xyz
  x,y,z
_cell_length_a	16.226
_cell_length_b	16.5641
_cell_length_c	16.5641
_cell_angle_alpha	76.1195
_cell_angle_beta	60.673
_cell_angle_gamma	60.673
loop_
_atom_site_label
_atom_site_type_symbol
_atom_site_fract_x
_atom_site_fract_y
_atom_site_fract_z
_atom_site_charge
Mof_Sm	Sm	0.70511	0.53254	0.3798	1.993
Mof_Sm	Sm	0.62595	0.88674	0.02394	2.151
Mof_Sm	Sm	0.11745	0.96746	0.12021	1.953
Mof_Sm	Sm	0.03663	0.61326	0.47606	2.152
Mof_Sm	Sm	0.08492	0.6202	0.03253	1.965
Mof_Sm	Sm	0.64989	0.97606	0.38674	2.156
Mof_Sm	Sm	0.23765	0.8798	0.46746	1.989
Mof_Sm	Sm	0.51269	0.52394	0.11326	2.16
Mof_Sm	Sm	0.29489	0.46746	0.6202	1.992
Mof_Sm	Sm	0.37405	0.11326	0.97606	2.15
Mof_Sm	Sm	0.88255	0.03254	0.87979	1.953
Mof_Sm	Sm	0.96337	0.38674	0.52394	2.152
Mof_Sm	Sm	0.91509	0.37979	0.96747	1.965
Mof_Sm	Sm	0.35011	0.02394	0.61326	2.156
Mof_Sm	Sm	0.76234	0.12021	0.53254	1.989
Mof_Sm	Sm	0.48731	0.47606	0.88674	2.16
Mof_H 	H 	0.5586	0.7486	0.2532	-0.065
Mof_H 	H 	0.5834	0.7823	0.4003	-0.077
Mof_H 	H 	0.0604	0.7514	0.2468	-0.065
Mof_H 	H 	0.266	0.7177	0.0997	-0.076
Mof_H 	H 	0.8118	0.7468	0.2486	-0.064
Mof_H 	H 	0.9837	0.5997	0.2823	-0.072
Mof_H 	H 	0.3072	0.7532	0.2514	-0.064
Mof_H 	H 	0.3657	0.9003	0.2177	-0.077
Mof_H 	H 	0.4414	0.2514	0.7468	-0.065
Mof_H 	H 	0.4166	0.2177	0.5997	-0.077
Mof_H 	H 	0.9396	0.2486	0.7532	-0.065
Mof_H 	H 	0.734	0.2823	0.9003	-0.076
Mof_H 	H 	0.1882	0.2532	0.7514	-0.064
Mof_H 	H 	0.0163	0.4003	0.7177	-0.072
Mof_H 	H 	0.6928	0.2468	0.7486	-0.064
Mof_H 	H 	0.6343	0.0997	0.7823	-0.077
Mof_C 	C 	0.6312	0.7226	0.2172	0.158
Mof_C 	C 	0.7826	0.7027	0.1063	-0.082
Mof_C 	C 	0.7948	0.6325	0.1705	-0.101
Mof_C 	C 	0.8555	0.7239	0.0159	0.412
Mof_C 	C 	0.8868	0.5524	0.179	0.418
Mof_C 	C 	0.6397	0.7591	0.4147	0.154
Mof_C 	C 	0.7721	0.6637	0.4429	-0.064
Mof_C 	C 	0.7519	0.7535	0.4517	-0.093
Mof_C 	C 	0.8489	0.5705	0.4531	0.378
Mof_C 	C 	0.8054	0.794	0.4694	0.435
Mof_C 	C 	0.071	0.7774	0.2828	0.156
Mof_C 	C 	0.0916	0.7973	0.3937	-0.087
Mof_C 	C 	0.0978	0.8675	0.3295	-0.097
Mof_C 	C 	0.0953	0.7761	0.4841	0.421
Mof_C 	C 	0.1182	0.9476	0.321	0.402
Mof_C 	C 	0.3135	0.7409	0.0853	0.153
Mof_C 	C 	0.3787	0.8363	0.0571	-0.065
Mof_C 	C 	0.4571	0.7465	0.0483	-0.094
Mof_C 	C 	0.3725	0.9295	0.0469	0.378
Mof_C 	C 	0.5688	0.706	0.0306	0.434
Mof_C 	C 	0.8484	0.7828	0.2226	0.157
Mof_C 	C 	0.8889	0.8937	0.2027	-0.085
Mof_C 	C 	0.9653	0.8295	0.1325	-0.087
Mof_C 	C 	0.8714	0.9841	0.2239	0.415
Mof_C 	C 	0.0658	0.821	0.0524	0.393
Mof_C 	C 	0.0544	0.5853	0.2591	0.146
Mof_C 	C 	0.215	0.5571	0.1637	-0.064
Mof_C 	C 	0.2036	0.5483	0.2535	-0.094
Mof_C 	C 	0.302	0.5469	0.0705	0.378
Mof_C 	C 	0.2748	0.5306	0.294	0.435
Mof_C 	C 	0.3538	0.7172	0.2774	0.157
Mof_C 	C 	0.4853	0.6063	0.2973	-0.085
Mof_C 	C 	0.4273	0.6705	0.3675	-0.101
Mof_C 	C 	0.5794	0.5159	0.2761	0.421
Mof_C 	C 	0.4392	0.679	0.4476	0.419
Mof_C 	C 	0.3988	0.9147	0.2409	0.153
Mof_C 	C 	0.4358	0.9429	0.3363	-0.065
Mof_C 	C 	0.5054	0.9517	0.2465	-0.095
Mof_C 	C 	0.4194	0.9531	0.4295	0.377
Mof_C 	C 	0.5994	0.9694	0.206	0.434
Mof_C 	C 	0.3688	0.2774	0.7828	0.158
Mof_C 	C 	0.2174	0.2973	0.8937	-0.082
Mof_C 	C 	0.2052	0.3675	0.8295	-0.101
Mof_C 	C 	0.1445	0.2761	0.9841	0.412
Mof_C 	C 	0.1132	0.4476	0.821	0.418
Mof_C 	C 	0.3603	0.2409	0.5853	0.154
Mof_C 	C 	0.2279	0.3363	0.5571	-0.064
Mof_C 	C 	0.2481	0.2465	0.5483	-0.093
Mof_C 	C 	0.1511	0.4295	0.5469	0.378
Mof_C 	C 	0.1946	0.206	0.5306	0.435
Mof_C 	C 	0.929	0.2226	0.7172	0.156
Mof_C 	C 	0.9084	0.2027	0.6063	-0.087
Mof_C 	C 	0.9022	0.1325	0.6705	-0.097
Mof_C 	C 	0.9047	0.2239	0.5159	0.421
Mof_C 	C 	0.8818	0.0524	0.679	0.402
Mof_C 	C 	0.6865	0.2591	0.9147	0.153
Mof_C 	C 	0.6213	0.1637	0.9429	-0.065
Mof_C 	C 	0.5429	0.2535	0.9517	-0.094
Mof_C 	C 	0.6275	0.0705	0.9531	0.378
Mof_C 	C 	0.4312	0.294	0.9694	0.434
Mof_C 	C 	0.1516	0.2172	0.7774	0.157
Mof_C 	C 	0.1111	0.1063	0.7973	-0.085
Mof_C 	C 	0.0347	0.1705	0.8675	-0.087
Mof_C 	C 	0.1286	0.0159	0.7761	0.415
Mof_C 	C 	0.9342	0.179	0.9476	0.393
Mof_C 	C 	0.9456	0.4147	0.7409	0.146
Mof_C 	C 	0.785	0.4429	0.8363	-0.064
Mof_C 	C 	0.7964	0.4517	0.7465	-0.094
Mof_C 	C 	0.698	0.4531	0.9295	0.378
Mof_C 	C 	0.7252	0.4694	0.706	0.435
Mof_C 	C 	0.6462	0.2828	0.7226	0.157
Mof_C 	C 	0.5147	0.3937	0.7027	-0.085
Mof_C 	C 	0.5727	0.3295	0.6325	-0.101
Mof_C 	C 	0.4206	0.4841	0.7239	0.421
Mof_C 	C 	0.5608	0.321	0.5524	0.419
Mof_C 	C 	0.6012	0.0853	0.7591	0.153
Mof_C 	C 	0.5642	0.0571	0.6637	-0.065
Mof_C 	C 	0.4946	0.0483	0.7535	-0.095
Mof_C 	C 	0.5806	0.0469	0.5705	0.377
Mof_C 	C 	0.4006	0.0306	0.794	0.434
Mof_N 	N 	0.6971	0.6453	0.2417	-0.249
Mof_N 	N 	0.6772	0.7603	0.1365	-0.253
Mof_N 	N 	0.6681	0.8133	0.4329	-0.276
Mof_N 	N 	0.6995	0.6681	0.4189	-0.286
Mof_N 	N 	0.0841	0.8547	0.2583	-0.249
Mof_N 	N 	0.074	0.7397	0.3635	-0.253
Mof_N 	N 	0.4143	0.6867	0.0671	-0.276
Mof_N 	N 	0.2865	0.8319	0.0811	-0.284
Mof_N 	N 	0.9388	0.7583	0.1453	-0.248
Mof_N 	N 	0.8137	0.8635	0.2603	-0.253
Mof_N 	N 	0.101	0.5671	0.3133	-0.275
Mof_N 	N 	0.1184	0.5811	0.1681	-0.283
Mof_N 	N 	0.3424	0.7417	0.3547	-0.249
Mof_N 	N 	0.4375	0.6365	0.2397	-0.253
Mof_N 	N 	0.4814	0.9329	0.1867	-0.276
Mof_N 	N 	0.3676	0.9189	0.3319	-0.286
Mof_N 	N 	0.3029	0.3547	0.7583	-0.249
Mof_N 	N 	0.3228	0.2397	0.8635	-0.253
Mof_N 	N 	0.3319	0.1867	0.5671	-0.276
Mof_N 	N 	0.3005	0.3319	0.5811	-0.286
Mof_N 	N 	0.9159	0.1453	0.7417	-0.249
Mof_N 	N 	0.926	0.2603	0.6365	-0.253
Mof_N 	N 	0.5857	0.3133	0.9329	-0.276
Mof_N 	N 	0.7135	0.1681	0.9189	-0.284
Mof_N 	N 	0.0612	0.2417	0.8547	-0.248
Mof_N 	N 	0.1863	0.1365	0.7397	-0.253
Mof_N 	N 	0.899	0.4329	0.6867	-0.275
Mof_N 	N 	0.8816	0.4189	0.8319	-0.283
Mof_N 	N 	0.6576	0.2583	0.6453	-0.249
Mof_N 	N 	0.5625	0.3635	0.7603	-0.253
Mof_N 	N 	0.5186	0.0671	0.8133	-0.276
Mof_N 	N 	0.6324	0.0811	0.6681	-0.286
Mof_O 	O 	0.8674	0.4928	0.2412	-0.54
Mof_O 	O 	0.977	0.5457	0.1289	-0.556
Mof_O 	O 	0.9531	0.6784	0.9834	-0.564
Mof_O 	O 	0.8119	0.79239	0.97201	-0.54
Mof_O 	O 	0.84746	0.50223	0.43245	-0.578
Mof_O 	O 	0.91268	0.55585	0.48499	-0.659
Mof_O 	O 	0.8761	0.7439	0.4945	-0.572
Mof_O 	O 	0.7729	0.8808	0.4576	-0.517
Mof_O 	O 	0.1014	0.0072	0.2588	-0.521
Mof_O 	O 	0.1516	0.9543	0.3711	-0.559
Mof_O 	O 	0.1149	0.8216	0.5166	-0.572
Mof_O 	O 	0.0763	0.70761	0.52799	-0.551
Mof_O 	O 	0.28214	0.99777	0.06755	-0.582
Mof_O 	O 	0.45352	0.94415	0.01501	-0.662
Mof_O 	O 	0.6145	0.7561	0.0055	-0.574
Mof_O 	O 	0.6113	0.6192	0.0424	-0.518
Mof_O 	O 	0.1086	0.7588	0.9928	-0.521
Mof_O 	O 	0.1059	0.8711	0.0457	-0.556
Mof_O 	O 	0.9365	0.0166	0.1784	-0.559
Mof_O 	O 	0.78391	0.02799	0.29239	-0.547
Mof_O 	O 	0.27991	0.56755	0.00223	-0.578
Mof_O 	O 	0.39767	0.51501	0.05585	-0.66
Mof_O 	O 	0.3706	0.5055	0.2439	-0.574
Mof_O 	O 	0.2305	0.5424	0.3808	-0.519
Mof_O 	O 	0.3602	0.7412	0.5072	-0.541
Mof_O 	O 	0.5227	0.6289	0.4543	-0.562
Mof_O 	O 	0.6315	0.4834	0.3216	-0.571
Mof_O 	O 	0.60429	0.47201	0.20761	-0.55
Mof_O 	O 	0.34969	0.93245	0.49777	-0.578
Mof_O 	O 	0.46853	0.98499	0.44415	-0.66
Mof_O 	O 	0.62	0.9945	0.2561	-0.575
Mof_O 	O 	0.6537	0.9576	0.1192	-0.518
Mof_O 	O 	0.1326	0.5072	0.7588	-0.54
Mof_O 	O 	0.023	0.4543	0.8711	-0.556
Mof_O 	O 	0.0469	0.3216	0.0166	-0.564
Mof_O 	O 	0.1881	0.20761	0.02799	-0.54
Mof_O 	O 	0.15254	0.49777	0.56755	-0.578
Mof_O 	O 	0.08732	0.44415	0.51501	-0.659
Mof_O 	O 	0.1239	0.2561	0.5055	-0.572
Mof_O 	O 	0.2271	0.1192	0.5424	-0.517
Mof_O 	O 	0.8986	0.9928	0.7412	-0.521
Mof_O 	O 	0.8484	0.0457	0.6289	-0.559
Mof_O 	O 	0.8851	0.1784	0.4834	-0.572
Mof_O 	O 	0.9237	0.29239	0.47201	-0.551
Mof_O 	O 	0.71786	0.00223	0.93245	-0.582
Mof_O 	O 	0.54648	0.05585	0.98499	-0.662
Mof_O 	O 	0.3855	0.2439	0.9945	-0.574
Mof_O 	O 	0.3887	0.3808	0.9576	-0.518
Mof_O 	O 	0.8914	0.2412	0.0072	-0.521
Mof_O 	O 	0.8941	0.1289	0.9543	-0.556
Mof_O 	O 	0.0635	0.9834	0.8216	-0.559
Mof_O 	O 	0.21609	0.97201	0.70761	-0.547
Mof_O 	O 	0.72009	0.43245	0.99777	-0.578
Mof_O 	O 	0.60233	0.48499	0.94415	-0.66
Mof_O 	O 	0.6294	0.4945	0.7561	-0.574
Mof_O 	O 	0.7695	0.4576	0.6192	-0.519
Mof_O 	O 	0.6398	0.2588	0.4928	-0.541
Mof_O 	O 	0.4773	0.3711	0.5457	-0.562
Mof_O 	O 	0.3685	0.5166	0.6784	-0.571
Mof_O 	O 	0.39571	0.52799	0.79239	-0.55
Mof_O 	O 	0.65031	0.06755	0.50223	-0.578
Mof_O 	O 	0.53147	0.01501	0.55585	-0.66
Mof_O 	O 	0.38	0.0055	0.7439	-0.575
Mof_O 	O 	0.3463	0.0424	0.8808	-0.518
_end
