data_functionalizedCrystal
_audit_creation_method	'EQeq! by Chris Wilmer'
_symmetry_space_group_name_H-M	'P1'
_symmetry_Int_Tables_number	1
_symmetry_cell_setting	triclinic
loop_
_symmetry_equiv_pos_as_xyz
  x,y,z
_cell_length_a	11.8454
_cell_length_b	28.3935
_cell_length_c	34.5364
_cell_angle_alpha	90
_cell_angle_beta	90
_cell_angle_gamma	90
loop_
_atom_site_label
_atom_site_type_symbol
_atom_site_fract_x
_atom_site_fract_y
_atom_site_fract_z
_atom_site_charge
Mof_Ni	Ni	0.78365	0.39007	0.12687	1.127
Mof_O 	O 	0.3842	0.60552	0.89038	-0.398
Mof_O 	O 	0.3943	0.54147	0.92795	-0.415
Mof_O 	O 	0.66929	0.54648	0.03824	-0.398
Mof_O 	O 	0.6713	0.61545	0.07015	-0.415
Mof_O 	O 	0.4689	0.746	0.02849	-0.086
Mof_O 	O 	0.80776	0.45964	0.12429	-0.815
Mof_O 	O 	0.8024	0.45656	0.21139	-0.421
Mof_O 	O 	0.7272	0.39224	0.18425	-0.409
Mof_O 	O 	0.0531	0.37679	0.35425	-0.394
Mof_O 	O 	0.9544	0.44304	0.34686	-0.328
Mof_O 	O 	0.8724	0.23774	0.30055	-0.126
Mof_N 	N 	0.5038	0.7383	0.99234	-0.001
Mof_N 	N 	0.7671	0.31697	0.12621	-0.214
Mof_N 	N 	0.7282	0.07276	0.08854	-0.284
Mof_N 	N 	0.8639	0.25854	0.26716	-0.045
Mof_C 	C 	0.4105	0.58458	0.92107	0.331
Mof_C 	C 	0.4649	0.6142	0.9547	-0.059
Mof_C 	C 	0.4614	0.6636	0.9559	-0.015
Mof_H 	H 	0.4244	0.6805	0.9367	0.059
Mof_C 	C 	0.5145	0.6869	0.9867	0.037
Mof_C 	C 	0.5738	0.6625	0.014	-0.004
Mof_H 	H 	0.6117	0.6785	0.0336	0.05
Mof_C 	C 	0.577	0.6134	0.0121	-0.017
Mof_C 	C 	0.5268	0.58917	0.98159	-0.006
Mof_H 	H 	0.5348	0.5567	0.9794	0.025
Mof_C 	C 	0.6465	0.58954	0.04234	0.352
Mof_C 	C 	0.7788	0.41346	0.21097	0.335
Mof_C 	C 	0.8181	0.38504	0.2447	-0.046
Mof_C 	C 	0.8671	0.40578	0.277	-0.012
Mof_H 	H 	0.8676	0.4384	0.2794	0.056
Mof_C 	C 	0.9153	0.37804	0.30564	-0.046
Mof_C 	C 	0.913	0.32919	0.30208	-0.081
Mof_H 	H 	0.9451	0.3103	0.3211	0.1
Mof_C 	C 	0.8625	0.30894	0.26985	0.122
Mof_C 	C 	0.8146	0.33649	0.24116	-0.086
Mof_H 	H 	0.7806	0.3226	0.2198	0.099
Mof_C 	C 	0.9784	0.40102	0.33833	0.328
Mof_C 	C 	0.8501	0.29259	0.1096	0.095
Mof_H 	H 	0.9158	0.3085	0.1028	0.011
Mof_C 	C 	0.8434	0.24496	0.10194	-0.131
Mof_H 	H 	0.9031	0.2296	0.0899	0.093
Mof_C 	C 	0.7475	0.22025	0.11228	0.065
Mof_C 	C 	0.6629	0.24516	0.13099	-0.129
Mof_H 	H 	0.598	0.2298	0.1394	0.079
Mof_C 	C 	0.6757	0.29295	0.13711	0.092
Mof_H 	H 	0.6177	0.3092	0.1494	0.007
Mof_C 	C 	0.7375	0.16923	0.10361	0.073
Mof_C 	C 	0.6743	0.13952	0.12653	-0.146
Mof_H 	H 	0.634	0.1513	0.1475	0.087
Mof_C 	C 	0.6713	0.09197	0.11805	0.093
Mof_H 	H 	0.6277	0.0724	0.1336	-0.044
Mof_C 	C 	0.7872	0.10154	0.06575	0.091
Mof_H 	H 	0.8257	0.0889	0.0447	-0.037
Mof_C 	C 	0.7933	0.1494	0.07216	-0.147
Mof_H 	H 	0.8348	0.1684	0.0555	0.096
Mof_H 	H 	0.876	0.4606	0.1272	0.303
Mof_N 	N 	0.5323	0.73651	0.96771	-0.061
Mof_C 	C 	0.4754	0.6108	0.9494	-0.001
Mof_C 	C 	0.4754	0.6595	0.9465	-0.029
Mof_H 	H 	0.4405	0.6742	0.9256	0.01
Mof_C 	C 	0.5278	0.6861	0.97488	0.032
Mof_C 	C 	0.5855	0.664	0.0056	-0.03
Mof_H 	H 	0.6211	0.6822	0.0244	0.019
Mof_C 	C 	0.5892	0.6152	0.0078	-0.049
Mof_H 	H 	0.5187	0.5569	0.9852	0.005
Mof_Ni	Ni	0.28365	0.89007	0.12687	1.129
Mof_O 	O 	0.8842	0.10552	0.89038	-0.405
Mof_O 	O 	0.8943	0.04147	0.92795	-0.449
Mof_O 	O 	0.16929	0.04648	0.03824	-0.429
Mof_O 	O 	0.1713	0.11545	0.07015	-0.417
Mof_O 	O 	0.9689	0.246	0.02849	-0.084
Mof_O 	O 	0.30776	0.95964	0.12429	-0.762
Mof_O 	O 	0.3024	0.95656	0.21139	-0.367
Mof_O 	O 	0.2272	0.89224	0.18425	-0.394
Mof_O 	O 	0.5531	0.87679	0.35425	-0.388
Mof_O 	O 	0.4544	0.94304	0.34686	-0.292
Mof_O 	O 	0.3724	0.73774	0.30055	-0.126
Mof_N 	N 	0.0038	0.2383	0.99234	-0
Mof_N 	N 	0.2671	0.81697	0.12621	-0.214
Mof_N 	N 	0.2282	0.57276	0.08854	-0.272
Mof_N 	N 	0.3639	0.75854	0.26716	-0.045
Mof_C 	C 	0.9105	0.08458	0.92107	0.339
Mof_C 	C 	0.9649	0.1142	0.9547	-0.063
Mof_C 	C 	0.9614	0.1636	0.9559	-0.014
Mof_H 	H 	0.9244	0.1805	0.9367	0.058
Mof_C 	C 	0.0145	0.1869	0.9867	0.036
Mof_C 	C 	0.0738	0.1625	0.014	-0.003
Mof_H 	H 	0.1117	0.1785	0.0336	0.049
Mof_C 	C 	0.077	0.1134	0.0121	-0.02
Mof_C 	C 	0.0268	0.08917	0.98159	-0.001
Mof_H 	H 	0.0348	0.0567	0.9794	0.015
Mof_C 	C 	0.1465	0.08954	0.04234	0.357
Mof_C 	C 	0.2788	0.91346	0.21097	0.324
Mof_C 	C 	0.3181	0.88504	0.2447	-0.026
Mof_C 	C 	0.3671	0.90578	0.277	-0.028
Mof_H 	H 	0.3676	0.9384	0.2794	0.08
Mof_C 	C 	0.4153	0.87804	0.30564	-0.029
Mof_C 	C 	0.413	0.82919	0.30208	-0.091
Mof_H 	H 	0.4451	0.8103	0.3211	0.104
Mof_C 	C 	0.3625	0.80894	0.26985	0.13
Mof_C 	C 	0.3146	0.83649	0.24116	-0.097
Mof_H 	H 	0.2806	0.8226	0.2198	0.103
Mof_C 	C 	0.4784	0.90102	0.33833	0.317
Mof_C 	C 	0.3501	0.79259	0.1096	0.094
Mof_H 	H 	0.4158	0.8085	0.1028	0.01
Mof_C 	C 	0.3434	0.74496	0.10194	-0.132
Mof_H 	H 	0.4031	0.7296	0.0899	0.093
Mof_C 	C 	0.2475	0.72025	0.11228	0.066
Mof_C 	C 	0.1629	0.74516	0.13099	-0.129
Mof_H 	H 	0.098	0.7298	0.1394	0.08
Mof_C 	C 	0.1757	0.79295	0.13711	0.091
Mof_H 	H 	0.1177	0.8092	0.1494	0.008
Mof_C 	C 	0.2375	0.66923	0.10361	0.071
Mof_C 	C 	0.1743	0.63952	0.12653	-0.141
Mof_H 	H 	0.134	0.6513	0.1475	0.088
Mof_C 	C 	0.1713	0.59197	0.11805	0.09
Mof_H 	H 	0.1277	0.5724	0.1336	-0.026
Mof_C 	C 	0.2872	0.60154	0.06575	0.09
Mof_H 	H 	0.3257	0.5889	0.0447	-0.027
Mof_C 	C 	0.2933	0.6494	0.07216	-0.143
Mof_H 	H 	0.3348	0.6684	0.0555	0.095
Mof_H 	H 	0.376	0.9606	0.1272	0.311
Mof_N 	N 	0.0323	0.23651	0.96771	-0.061
Mof_C 	C 	0.9754	0.1108	0.9494	-0.004
Mof_C 	C 	0.9754	0.1595	0.9465	-0.028
Mof_H 	H 	0.9405	0.1742	0.9256	0.011
Mof_C 	C 	0.0278	0.1861	0.97488	0.032
Mof_C 	C 	0.0855	0.164	0.0056	-0.029
Mof_H 	H 	0.1211	0.1822	0.0244	0.02
Mof_C 	C 	0.0892	0.1152	0.0078	-0.054
Mof_H 	H 	0.0187	0.0569	0.9852	-0.004
Mof_Ni	Ni	0.71635	0.60993	0.12687	1.128
Mof_O 	O 	0.1158	0.39448	0.89038	-0.397
Mof_O 	O 	0.1057	0.45853	0.92795	-0.414
Mof_O 	O 	0.83071	0.45352	0.03824	-0.397
Mof_O 	O 	0.8287	0.38455	0.07015	-0.414
Mof_O 	O 	0.0311	0.254	0.02849	-0.084
Mof_O 	O 	0.69224	0.54036	0.12429	-0.814
Mof_O 	O 	0.6976	0.54344	0.21139	-0.42
Mof_O 	O 	0.7728	0.60776	0.18425	-0.408
Mof_O 	O 	0.4469	0.62321	0.35425	-0.393
Mof_O 	O 	0.5456	0.55696	0.34686	-0.327
Mof_O 	O 	0.6276	0.76226	0.30055	-0.126
Mof_N 	N 	0.9962	0.2617	0.99234	-0.001
Mof_N 	N 	0.7329	0.68303	0.12621	-0.214
Mof_N 	N 	0.7718	0.92724	0.08854	-0.246
Mof_N 	N 	0.6361	0.74146	0.26716	-0.044
Mof_C 	C 	0.0895	0.41542	0.92107	0.332
Mof_C 	C 	0.0351	0.3858	0.9547	-0.058
Mof_C 	C 	0.0386	0.3364	0.9559	-0.015
Mof_H 	H 	0.0756	0.3195	0.9367	0.06
Mof_C 	C 	0.9855	0.3131	0.9867	0.037
Mof_C 	C 	0.9262	0.3375	0.014	-0.004
Mof_H 	H 	0.8883	0.3215	0.0336	0.05
Mof_C 	C 	0.923	0.3866	0.0121	-0.017
Mof_C 	C 	0.9732	0.41083	0.98159	-0.006
Mof_H 	H 	0.9652	0.4433	0.9794	0.025
Mof_C 	C 	0.8535	0.41046	0.04234	0.352
Mof_C 	C 	0.7212	0.58654	0.21097	0.335
Mof_C 	C 	0.6819	0.61496	0.2447	-0.046
Mof_C 	C 	0.6329	0.59422	0.277	-0.012
Mof_H 	H 	0.6324	0.5616	0.2794	0.056
Mof_C 	C 	0.5847	0.62196	0.30564	-0.046
Mof_C 	C 	0.587	0.67081	0.30208	-0.081
Mof_H 	H 	0.5549	0.6897	0.3211	0.1
Mof_C 	C 	0.6375	0.69106	0.26985	0.122
Mof_C 	C 	0.6854	0.66351	0.24116	-0.086
Mof_H 	H 	0.7194	0.6774	0.2198	0.099
Mof_C 	C 	0.5216	0.59898	0.33833	0.328
Mof_C 	C 	0.6499	0.70741	0.1096	0.096
Mof_H 	H 	0.5842	0.6915	0.1028	0.01
Mof_C 	C 	0.6566	0.75504	0.10194	-0.134
Mof_H 	H 	0.5969	0.7704	0.0899	0.094
Mof_C 	C 	0.7525	0.77975	0.11228	0.069
Mof_C 	C 	0.8371	0.75484	0.13099	-0.131
Mof_H 	H 	0.902	0.7702	0.1394	0.081
Mof_C 	C 	0.8243	0.70705	0.13711	0.093
Mof_H 	H 	0.8823	0.6908	0.1494	0.006
Mof_C 	C 	0.7625	0.83077	0.10361	0.067
Mof_C 	C 	0.8257	0.86048	0.12653	-0.133
Mof_H 	H 	0.866	0.8487	0.1475	0.089
Mof_C 	C 	0.8287	0.90803	0.11805	0.087
Mof_H 	H 	0.8723	0.9276	0.1336	-0.002
Mof_C 	C 	0.7128	0.89846	0.06575	0.088
Mof_H 	H 	0.6743	0.9111	0.0447	-0.013
Mof_C 	C 	0.7067	0.8506	0.07216	-0.138
Mof_H 	H 	0.6652	0.8316	0.0555	0.093
Mof_H 	H 	0.624	0.5394	0.1272	0.303
Mof_N 	N 	0.9677	0.26349	0.96771	-0.061
Mof_C 	C 	0.0246	0.3892	0.9494	-0.001
Mof_C 	C 	0.0246	0.3405	0.9465	-0.029
Mof_H 	H 	0.0595	0.3258	0.9256	0.01
Mof_C 	C 	0.9722	0.3139	0.97488	0.033
Mof_C 	C 	0.9145	0.336	0.0056	-0.03
Mof_H 	H 	0.8789	0.3178	0.0244	0.019
Mof_C 	C 	0.9108	0.3848	0.0078	-0.049
Mof_H 	H 	0.9813	0.4431	0.9852	0.005
Mof_Ni	Ni	0.21635	0.10993	0.12687	1.128
Mof_O 	O 	0.6158	0.89448	0.89038	-0.384
Mof_O 	O 	0.6057	0.95853	0.92795	-0.358
Mof_O 	O 	0.33071	0.95352	0.03824	-0.346
Mof_O 	O 	0.3287	0.88455	0.07015	-0.408
Mof_O 	O 	0.5311	0.754	0.02849	-0.084
Mof_O 	O 	0.19224	0.04036	0.12429	-0.832
Mof_O 	O 	0.1976	0.04344	0.21139	-0.453
Mof_O 	O 	0.2728	0.10776	0.18425	-0.416
Mof_O 	O 	0.9469	0.12321	0.35425	-0.397
Mof_O 	O 	0.0456	0.05696	0.34686	-0.354
Mof_O 	O 	0.1276	0.26226	0.30055	-0.126
Mof_N 	N 	0.4962	0.7617	0.99234	-0.001
Mof_N 	N 	0.2329	0.18303	0.12621	-0.214
Mof_N 	N 	0.2718	0.42724	0.08854	-0.272
Mof_N 	N 	0.1361	0.24146	0.26716	-0.043
Mof_C 	C 	0.5895	0.91542	0.92107	0.321
Mof_C 	C 	0.5351	0.8858	0.9547	-0.051
Mof_C 	C 	0.5386	0.8364	0.9559	-0.017
Mof_H 	H 	0.5756	0.8195	0.9367	0.062
Mof_C 	C 	0.4855	0.8131	0.9867	0.038
Mof_C 	C 	0.4262	0.8375	0.014	-0.005
Mof_H 	H 	0.3883	0.8215	0.0336	0.052
Mof_C 	C 	0.423	0.8866	0.0121	-0.013
Mof_C 	C 	0.4732	0.91083	0.98159	-0.012
Mof_H 	H 	0.4652	0.9433	0.9794	0.036
Mof_C 	C 	0.3535	0.91046	0.04234	0.343
Mof_C 	C 	0.2212	0.08654	0.21097	0.342
Mof_C 	C 	0.1819	0.11496	0.2447	-0.062
Mof_C 	C 	0.1329	0.09422	0.277	0.001
Mof_H 	H 	0.1324	0.0616	0.2794	0.035
Mof_C 	C 	0.0847	0.12196	0.30564	-0.059
Mof_C 	C 	0.087	0.17081	0.30208	-0.073
Mof_H 	H 	0.0549	0.1897	0.3211	0.097
Mof_C 	C 	0.1375	0.19106	0.26985	0.116
Mof_C 	C 	0.1854	0.16351	0.24116	-0.077
Mof_H 	H 	0.2194	0.1774	0.2198	0.095
Mof_C 	C 	0.0216	0.09898	0.33833	0.337
Mof_C 	C 	0.1499	0.20741	0.1096	0.096
Mof_H 	H 	0.0842	0.1915	0.1028	0.01
Mof_C 	C 	0.1566	0.25504	0.10194	-0.132
Mof_H 	H 	0.0969	0.2704	0.0899	0.094
Mof_C 	C 	0.2525	0.27975	0.11228	0.067
Mof_C 	C 	0.3371	0.25484	0.13099	-0.13
Mof_H 	H 	0.402	0.2702	0.1394	0.08
Mof_C 	C 	0.3243	0.20705	0.13711	0.093
Mof_H 	H 	0.3823	0.1908	0.1494	0.006
Mof_C 	C 	0.2625	0.33077	0.10361	0.071
Mof_C 	C 	0.3257	0.36048	0.12653	-0.14
Mof_H 	H 	0.366	0.3487	0.1475	0.088
Mof_C 	C 	0.3287	0.40803	0.11805	0.09
Mof_H 	H 	0.3723	0.4276	0.1336	-0.026
Mof_C 	C 	0.2128	0.39846	0.06575	0.09
Mof_H 	H 	0.1743	0.4111	0.0447	-0.027
Mof_C 	C 	0.2067	0.3506	0.07216	-0.143
Mof_H 	H 	0.1652	0.3316	0.0555	0.095
Mof_H 	H 	0.124	0.0394	0.1272	0.293
Mof_N 	N 	0.4677	0.76349	0.96771	-0.062
Mof_C 	C 	0.5246	0.8892	0.9494	0.003
Mof_C 	C 	0.5246	0.8405	0.9465	-0.032
Mof_H 	H 	0.5595	0.8258	0.9256	0.008
Mof_C 	C 	0.4722	0.8139	0.97488	0.033
Mof_C 	C 	0.4145	0.836	0.0056	-0.032
Mof_H 	H 	0.3789	0.8178	0.0244	0.019
Mof_C 	C 	0.4108	0.8848	0.0078	-0.043
Mof_H 	H 	0.4813	0.9431	0.9852	0.016
Mof_Ni	Ni	0.21635	0.39007	0.37313	1.128
Mof_O 	O 	0.6158	0.60552	0.60962	-0.397
Mof_O 	O 	0.6057	0.54147	0.57205	-0.414
Mof_O 	O 	0.33071	0.54648	0.46176	-0.397
Mof_O 	O 	0.3287	0.61545	0.42985	-0.414
Mof_O 	O 	0.5311	0.746	0.47151	-0.085
Mof_O 	O 	0.19224	0.45964	0.37571	-0.814
Mof_O 	O 	0.1976	0.45656	0.28861	-0.42
Mof_O 	O 	0.2728	0.39224	0.31575	-0.408
Mof_O 	O 	0.9469	0.37679	0.14575	-0.393
Mof_O 	O 	0.0456	0.44304	0.15314	-0.327
Mof_O 	O 	0.1276	0.23774	0.19945	-0.125
Mof_N 	N 	0.4962	0.7383	0.50766	-0
Mof_N 	N 	0.2329	0.31697	0.37379	-0.213
Mof_N 	N 	0.2718	0.07276	0.41146	-0.283
Mof_N 	N 	0.1361	0.25854	0.23284	-0.044
Mof_C 	C 	0.5895	0.58458	0.57893	0.332
Mof_C 	C 	0.5351	0.6142	0.5453	-0.058
Mof_C 	C 	0.5386	0.6636	0.5441	-0.015
Mof_H 	H 	0.5756	0.6805	0.5633	0.06
Mof_C 	C 	0.4855	0.6869	0.5133	0.037
Mof_C 	C 	0.4262	0.6625	0.486	-0.004
Mof_H 	H 	0.3883	0.6785	0.4664	0.05
Mof_C 	C 	0.423	0.6134	0.4879	-0.017
Mof_C 	C 	0.4732	0.58917	0.51841	-0.006
Mof_H 	H 	0.4652	0.5567	0.5206	0.025
Mof_C 	C 	0.3535	0.58954	0.45766	0.352
Mof_C 	C 	0.2212	0.41346	0.28903	0.335
Mof_C 	C 	0.1819	0.38504	0.2553	-0.046
Mof_C 	C 	0.1329	0.40578	0.223	-0.012
Mof_H 	H 	0.1324	0.4384	0.2206	0.056
Mof_C 	C 	0.0847	0.37804	0.19436	-0.046
Mof_C 	C 	0.087	0.32919	0.19792	-0.081
Mof_H 	H 	0.0549	0.3103	0.1789	0.1
Mof_C 	C 	0.1375	0.30894	0.23015	0.122
Mof_C 	C 	0.1854	0.33649	0.25884	-0.086
Mof_H 	H 	0.2194	0.3226	0.2802	0.099
Mof_C 	C 	0.0216	0.40102	0.16167	0.328
Mof_C 	C 	0.1499	0.29259	0.3904	0.095
Mof_H 	H 	0.0842	0.3085	0.3972	0.011
Mof_C 	C 	0.1566	0.24496	0.39806	-0.131
Mof_H 	H 	0.0969	0.2296	0.4101	0.093
Mof_C 	C 	0.2525	0.22025	0.38772	0.065
Mof_C 	C 	0.3371	0.24516	0.36901	-0.129
Mof_H 	H 	0.402	0.2298	0.3606	0.079
Mof_C 	C 	0.3243	0.29295	0.36289	0.092
Mof_H 	H 	0.3823	0.3092	0.3506	0.007
Mof_C 	C 	0.2625	0.16923	0.39639	0.073
Mof_C 	C 	0.3257	0.13952	0.37347	-0.146
Mof_H 	H 	0.366	0.1513	0.3525	0.087
Mof_C 	C 	0.3287	0.09197	0.38195	0.093
Mof_H 	H 	0.3723	0.0724	0.3664	-0.044
Mof_C 	C 	0.2128	0.10154	0.43425	0.091
Mof_H 	H 	0.1743	0.0889	0.4553	-0.037
Mof_C 	C 	0.2067	0.1494	0.42784	-0.147
Mof_H 	H 	0.1652	0.1684	0.4445	0.096
Mof_H 	H 	0.124	0.4606	0.3728	0.303
Mof_N 	N 	0.4677	0.73651	0.53229	-0.061
Mof_C 	C 	0.5246	0.6108	0.5506	-0.001
Mof_C 	C 	0.5246	0.6595	0.5535	-0.029
Mof_H 	H 	0.5595	0.6742	0.5744	0.01
Mof_C 	C 	0.4722	0.6861	0.52512	0.032
Mof_C 	C 	0.4145	0.664	0.4944	-0.03
Mof_H 	H 	0.3789	0.6822	0.4756	0.019
Mof_C 	C 	0.4108	0.6152	0.4922	-0.049
Mof_H 	H 	0.4813	0.5569	0.5148	0.005
Mof_Ni	Ni	0.71635	0.89007	0.37313	1.129
Mof_O 	O 	0.1158	0.10552	0.60962	-0.405
Mof_O 	O 	0.1057	0.04147	0.57205	-0.449
Mof_O 	O 	0.83071	0.04648	0.46176	-0.43
Mof_O 	O 	0.8287	0.11545	0.42985	-0.417
Mof_O 	O 	0.0311	0.246	0.47151	-0.084
Mof_O 	O 	0.69224	0.95964	0.37571	-0.762
Mof_O 	O 	0.6976	0.95656	0.28861	-0.367
Mof_O 	O 	0.7728	0.89224	0.31575	-0.394
Mof_O 	O 	0.4469	0.87679	0.14575	-0.388
Mof_O 	O 	0.5456	0.94304	0.15314	-0.292
Mof_O 	O 	0.6276	0.73774	0.19945	-0.126
Mof_N 	N 	0.9962	0.2383	0.50766	-0
Mof_N 	N 	0.7329	0.81697	0.37379	-0.214
Mof_N 	N 	0.7718	0.57276	0.41146	-0.272
Mof_N 	N 	0.6361	0.75854	0.23284	-0.045
Mof_C 	C 	0.0895	0.08458	0.57893	0.339
Mof_C 	C 	0.0351	0.1142	0.5453	-0.063
Mof_C 	C 	0.0386	0.1636	0.5441	-0.014
Mof_H 	H 	0.0756	0.1805	0.5633	0.058
Mof_C 	C 	0.9855	0.1869	0.5133	0.036
Mof_C 	C 	0.9262	0.1625	0.486	-0.003
Mof_H 	H 	0.8883	0.1785	0.4664	0.049
Mof_C 	C 	0.923	0.1134	0.4879	-0.02
Mof_C 	C 	0.9732	0.08917	0.51841	-0.001
Mof_H 	H 	0.9652	0.0567	0.5206	0.015
Mof_C 	C 	0.8535	0.08954	0.45766	0.357
Mof_C 	C 	0.7212	0.91346	0.28903	0.324
Mof_C 	C 	0.6819	0.88504	0.2553	-0.026
Mof_C 	C 	0.6329	0.90578	0.223	-0.028
Mof_H 	H 	0.6324	0.9384	0.2206	0.08
Mof_C 	C 	0.5847	0.87804	0.19436	-0.029
Mof_C 	C 	0.587	0.82919	0.19792	-0.091
Mof_H 	H 	0.5549	0.8103	0.1789	0.104
Mof_C 	C 	0.6375	0.80894	0.23015	0.13
Mof_C 	C 	0.6854	0.83649	0.25884	-0.097
Mof_H 	H 	0.7194	0.8226	0.2802	0.103
Mof_C 	C 	0.5216	0.90102	0.16167	0.317
Mof_C 	C 	0.6499	0.79259	0.3904	0.094
Mof_H 	H 	0.5842	0.8085	0.3972	0.01
Mof_C 	C 	0.6566	0.74496	0.39806	-0.132
Mof_H 	H 	0.5969	0.7296	0.4101	0.093
Mof_C 	C 	0.7525	0.72025	0.38772	0.066
Mof_C 	C 	0.8371	0.74516	0.36901	-0.129
Mof_H 	H 	0.902	0.7298	0.3606	0.08
Mof_C 	C 	0.8243	0.79295	0.36289	0.091
Mof_H 	H 	0.8823	0.8092	0.3506	0.008
Mof_C 	C 	0.7625	0.66923	0.39639	0.071
Mof_C 	C 	0.8257	0.63952	0.37347	-0.141
Mof_H 	H 	0.866	0.6513	0.3525	0.088
Mof_C 	C 	0.8287	0.59197	0.38195	0.09
Mof_H 	H 	0.8723	0.5724	0.3664	-0.026
Mof_C 	C 	0.7128	0.60154	0.43425	0.09
Mof_H 	H 	0.6743	0.5889	0.4553	-0.027
Mof_C 	C 	0.7067	0.6494	0.42784	-0.143
Mof_H 	H 	0.6652	0.6684	0.4445	0.095
Mof_H 	H 	0.624	0.9606	0.3728	0.311
Mof_N 	N 	0.9677	0.23651	0.53229	-0.061
Mof_C 	C 	0.0246	0.1108	0.5506	-0.004
Mof_C 	C 	0.0246	0.1595	0.5535	-0.028
Mof_H 	H 	0.0595	0.1742	0.5744	0.011
Mof_C 	C 	0.9722	0.1861	0.52512	0.032
Mof_C 	C 	0.9145	0.164	0.4944	-0.029
Mof_H 	H 	0.8789	0.1822	0.4756	0.02
Mof_C 	C 	0.9108	0.1152	0.4922	-0.054
Mof_H 	H 	0.9813	0.0569	0.5148	-0.004
Mof_Ni	Ni	0.28365	0.60993	0.37313	1.128
Mof_O 	O 	0.8842	0.39448	0.60962	-0.397
Mof_O 	O 	0.8943	0.45853	0.57205	-0.414
Mof_O 	O 	0.16929	0.45352	0.46176	-0.397
Mof_O 	O 	0.1713	0.38455	0.42985	-0.414
Mof_O 	O 	0.9689	0.254	0.47151	-0.084
Mof_O 	O 	0.30776	0.54036	0.37571	-0.814
Mof_O 	O 	0.3024	0.54344	0.28861	-0.42
Mof_O 	O 	0.2272	0.60776	0.31575	-0.408
Mof_O 	O 	0.5531	0.62321	0.14575	-0.393
Mof_O 	O 	0.4544	0.55696	0.15314	-0.327
Mof_O 	O 	0.3724	0.76226	0.19945	-0.126
Mof_N 	N 	0.0038	0.2617	0.50766	-0.001
Mof_N 	N 	0.2671	0.68303	0.37379	-0.214
Mof_N 	N 	0.2282	0.92724	0.41146	-0.246
Mof_N 	N 	0.3639	0.74146	0.23284	-0.044
Mof_C 	C 	0.9105	0.41542	0.57893	0.332
Mof_C 	C 	0.9649	0.3858	0.5453	-0.058
Mof_C 	C 	0.9614	0.3364	0.5441	-0.015
Mof_H 	H 	0.9244	0.3195	0.5633	0.06
Mof_C 	C 	0.0145	0.3131	0.5133	0.037
Mof_C 	C 	0.0738	0.3375	0.486	-0.004
Mof_H 	H 	0.1117	0.3215	0.4664	0.05
Mof_C 	C 	0.077	0.3866	0.4879	-0.017
Mof_C 	C 	0.0268	0.41083	0.51841	-0.006
Mof_H 	H 	0.0348	0.4433	0.5206	0.025
Mof_C 	C 	0.1465	0.41046	0.45766	0.352
Mof_C 	C 	0.2788	0.58654	0.28903	0.335
Mof_C 	C 	0.3181	0.61496	0.2553	-0.046
Mof_C 	C 	0.3671	0.59422	0.223	-0.012
Mof_H 	H 	0.3676	0.5616	0.2206	0.056
Mof_C 	C 	0.4153	0.62196	0.19436	-0.046
Mof_C 	C 	0.413	0.67081	0.19792	-0.081
Mof_H 	H 	0.4451	0.6897	0.1789	0.1
Mof_C 	C 	0.3625	0.69106	0.23015	0.122
Mof_C 	C 	0.3146	0.66351	0.25884	-0.086
Mof_H 	H 	0.2806	0.6774	0.2802	0.099
Mof_C 	C 	0.4784	0.59898	0.16167	0.328
Mof_C 	C 	0.3501	0.70741	0.3904	0.096
Mof_H 	H 	0.4158	0.6915	0.3972	0.01
Mof_C 	C 	0.3434	0.75504	0.39806	-0.134
Mof_H 	H 	0.4031	0.7704	0.4101	0.094
Mof_C 	C 	0.2475	0.77975	0.38772	0.069
Mof_C 	C 	0.1629	0.75484	0.36901	-0.131
Mof_H 	H 	0.098	0.7702	0.3606	0.081
Mof_C 	C 	0.1757	0.70705	0.36289	0.093
Mof_H 	H 	0.1177	0.6908	0.3506	0.006
Mof_C 	C 	0.2375	0.83077	0.39639	0.067
Mof_C 	C 	0.1743	0.86048	0.37347	-0.133
Mof_H 	H 	0.134	0.8487	0.3525	0.089
Mof_C 	C 	0.1713	0.90803	0.38195	0.087
Mof_H 	H 	0.1277	0.9276	0.3664	-0.002
Mof_C 	C 	0.2872	0.89846	0.43425	0.088
Mof_H 	H 	0.3257	0.9111	0.4553	-0.012
Mof_C 	C 	0.2933	0.8506	0.42784	-0.138
Mof_H 	H 	0.3348	0.8316	0.4445	0.093
Mof_H 	H 	0.376	0.5394	0.3728	0.303
Mof_N 	N 	0.0323	0.26349	0.53229	-0.061
Mof_C 	C 	0.9754	0.3892	0.5506	-0.001
Mof_C 	C 	0.9754	0.3405	0.5535	-0.029
Mof_H 	H 	0.9405	0.3258	0.5744	0.01
Mof_C 	C 	0.0278	0.3139	0.52512	0.033
Mof_C 	C 	0.0855	0.336	0.4944	-0.03
Mof_H 	H 	0.1211	0.3178	0.4756	0.019
Mof_C 	C 	0.0892	0.3848	0.4922	-0.049
Mof_H 	H 	0.0187	0.4431	0.5148	0.005
Mof_Ni	Ni	0.78365	0.10993	0.37313	1.128
Mof_O 	O 	0.3842	0.89448	0.60962	-0.384
Mof_O 	O 	0.3943	0.95853	0.57205	-0.357
Mof_O 	O 	0.66929	0.95352	0.46176	-0.346
Mof_O 	O 	0.6713	0.88455	0.42985	-0.408
Mof_O 	O 	0.4689	0.754	0.47151	-0.084
Mof_O 	O 	0.80776	0.04036	0.37571	-0.832
Mof_O 	O 	0.8024	0.04344	0.28861	-0.453
Mof_O 	O 	0.7272	0.10776	0.31575	-0.416
Mof_O 	O 	0.0531	0.12321	0.14575	-0.397
Mof_O 	O 	0.9544	0.05696	0.15314	-0.354
Mof_O 	O 	0.8724	0.26226	0.19945	-0.126
Mof_N 	N 	0.5038	0.7617	0.50766	-0.001
Mof_N 	N 	0.7671	0.18303	0.37379	-0.214
Mof_N 	N 	0.7282	0.42724	0.41146	-0.272
Mof_N 	N 	0.8639	0.24146	0.23284	-0.043
Mof_C 	C 	0.4105	0.91542	0.57893	0.321
Mof_C 	C 	0.4649	0.8858	0.5453	-0.051
Mof_C 	C 	0.4614	0.8364	0.5441	-0.017
Mof_H 	H 	0.4244	0.8195	0.5633	0.062
Mof_C 	C 	0.5145	0.8131	0.5133	0.038
Mof_C 	C 	0.5738	0.8375	0.486	-0.005
Mof_H 	H 	0.6117	0.8215	0.4664	0.052
Mof_C 	C 	0.577	0.8866	0.4879	-0.013
Mof_C 	C 	0.5268	0.91083	0.51841	-0.012
Mof_H 	H 	0.5348	0.9433	0.5206	0.036
Mof_C 	C 	0.6465	0.91046	0.45766	0.343
Mof_C 	C 	0.7788	0.08654	0.28903	0.342
Mof_C 	C 	0.8181	0.11496	0.2553	-0.062
Mof_C 	C 	0.8671	0.09422	0.223	0.001
Mof_H 	H 	0.8676	0.0616	0.2206	0.035
Mof_C 	C 	0.9153	0.12196	0.19436	-0.059
Mof_C 	C 	0.913	0.17081	0.19792	-0.073
Mof_H 	H 	0.9451	0.1897	0.1789	0.097
Mof_C 	C 	0.8625	0.19106	0.23015	0.116
Mof_C 	C 	0.8146	0.16351	0.25884	-0.077
Mof_H 	H 	0.7806	0.1774	0.2802	0.095
Mof_C 	C 	0.9784	0.09898	0.16167	0.337
Mof_C 	C 	0.8501	0.20741	0.3904	0.096
Mof_H 	H 	0.9158	0.1915	0.3972	0.01
Mof_C 	C 	0.8434	0.25504	0.39806	-0.132
Mof_H 	H 	0.9031	0.2704	0.4101	0.094
Mof_C 	C 	0.7475	0.27975	0.38772	0.067
Mof_C 	C 	0.6629	0.25484	0.36901	-0.13
Mof_H 	H 	0.598	0.2702	0.3606	0.08
Mof_C 	C 	0.6757	0.20705	0.36289	0.093
Mof_H 	H 	0.6177	0.1908	0.3506	0.006
Mof_C 	C 	0.7375	0.33077	0.39639	0.071
Mof_C 	C 	0.6743	0.36048	0.37347	-0.14
Mof_H 	H 	0.634	0.3487	0.3525	0.088
Mof_C 	C 	0.6713	0.40803	0.38195	0.09
Mof_H 	H 	0.6277	0.4276	0.3664	-0.026
Mof_C 	C 	0.7872	0.39846	0.43425	0.09
Mof_H 	H 	0.8257	0.4111	0.4553	-0.027
Mof_C 	C 	0.7933	0.3506	0.42784	-0.143
Mof_H 	H 	0.8348	0.3316	0.4445	0.095
Mof_H 	H 	0.876	0.0394	0.3728	0.293
Mof_N 	N 	0.5323	0.76349	0.53229	-0.062
Mof_C 	C 	0.4754	0.8892	0.5506	0.003
Mof_C 	C 	0.4754	0.8405	0.5535	-0.032
Mof_H 	H 	0.4405	0.8258	0.5744	0.008
Mof_C 	C 	0.5278	0.8139	0.52512	0.033
Mof_C 	C 	0.5855	0.836	0.4944	-0.032
Mof_H 	H 	0.6211	0.8178	0.4756	0.019
Mof_C 	C 	0.5892	0.8848	0.4922	-0.043
Mof_H 	H 	0.5187	0.9431	0.5148	0.016
Mof_Ni	Ni	0.21635	0.60993	0.87313	1.128
Mof_O 	O 	0.6158	0.39448	0.10962	-0.397
Mof_O 	O 	0.6057	0.45853	0.07205	-0.414
Mof_O 	O 	0.33071	0.45352	0.96176	-0.397
Mof_O 	O 	0.3287	0.38455	0.92985	-0.414
Mof_O 	O 	0.5311	0.254	0.97151	-0.084
Mof_O 	O 	0.19224	0.54036	0.87571	-0.814
Mof_O 	O 	0.1976	0.54344	0.78861	-0.42
Mof_O 	O 	0.2728	0.60776	0.81575	-0.408
Mof_O 	O 	0.9469	0.62321	0.64575	-0.393
Mof_O 	O 	0.0456	0.55696	0.65314	-0.327
Mof_O 	O 	0.1276	0.76226	0.69945	-0.126
Mof_N 	N 	0.4962	0.2617	0.00766	-0.001
Mof_N 	N 	0.2329	0.68303	0.87379	-0.214
Mof_N 	N 	0.2718	0.92724	0.91146	-0.246
Mof_N 	N 	0.1361	0.74146	0.73284	-0.044
Mof_C 	C 	0.5895	0.41542	0.07893	0.332
Mof_C 	C 	0.5351	0.3858	0.0453	-0.058
Mof_C 	C 	0.5386	0.3364	0.0441	-0.015
Mof_H 	H 	0.5756	0.3195	0.0633	0.06
Mof_C 	C 	0.4855	0.3131	0.0133	0.037
Mof_C 	C 	0.4262	0.3375	0.986	-0.004
Mof_H 	H 	0.3883	0.3215	0.9664	0.05
Mof_C 	C 	0.423	0.3866	0.9879	-0.017
Mof_C 	C 	0.4732	0.41083	0.01841	-0.006
Mof_H 	H 	0.4652	0.4433	0.0206	0.025
Mof_C 	C 	0.3535	0.41046	0.95766	0.352
Mof_C 	C 	0.2212	0.58654	0.78903	0.335
Mof_C 	C 	0.1819	0.61496	0.7553	-0.046
Mof_C 	C 	0.1329	0.59422	0.723	-0.012
Mof_H 	H 	0.1324	0.5616	0.7206	0.056
Mof_C 	C 	0.0847	0.62196	0.69436	-0.046
Mof_C 	C 	0.087	0.67081	0.69792	-0.081
Mof_H 	H 	0.0549	0.6897	0.6789	0.1
Mof_C 	C 	0.1375	0.69106	0.73015	0.122
Mof_C 	C 	0.1854	0.66351	0.75884	-0.086
Mof_H 	H 	0.2194	0.6774	0.7802	0.099
Mof_C 	C 	0.0216	0.59898	0.66167	0.328
Mof_C 	C 	0.1499	0.70741	0.8904	0.096
Mof_H 	H 	0.0842	0.6915	0.8972	0.01
Mof_C 	C 	0.1566	0.75504	0.89806	-0.134
Mof_H 	H 	0.0969	0.7704	0.9101	0.094
Mof_C 	C 	0.2525	0.77975	0.88772	0.069
Mof_C 	C 	0.3371	0.75484	0.86901	-0.131
Mof_H 	H 	0.402	0.7702	0.8606	0.081
Mof_C 	C 	0.3243	0.70705	0.86289	0.093
Mof_H 	H 	0.3823	0.6908	0.8506	0.007
Mof_C 	C 	0.2625	0.83077	0.89639	0.067
Mof_C 	C 	0.3257	0.86048	0.87347	-0.133
Mof_H 	H 	0.366	0.8487	0.8525	0.089
Mof_C 	C 	0.3287	0.90803	0.88195	0.087
Mof_H 	H 	0.3723	0.9276	0.8664	-0.002
Mof_C 	C 	0.2128	0.89846	0.93425	0.088
Mof_H 	H 	0.1743	0.9111	0.9553	-0.013
Mof_C 	C 	0.2067	0.8506	0.92784	-0.138
Mof_H 	H 	0.1652	0.8316	0.9445	0.093
Mof_H 	H 	0.124	0.5394	0.8728	0.303
Mof_N 	N 	0.4677	0.26349	0.03229	-0.061
Mof_C 	C 	0.5246	0.3892	0.0506	-0.001
Mof_C 	C 	0.5246	0.3405	0.0535	-0.029
Mof_H 	H 	0.5595	0.3258	0.0744	0.01
Mof_C 	C 	0.4722	0.3139	0.02512	0.033
Mof_C 	C 	0.4145	0.336	0.9944	-0.03
Mof_H 	H 	0.3789	0.3178	0.9756	0.019
Mof_C 	C 	0.4108	0.3848	0.9922	-0.049
Mof_H 	H 	0.4813	0.4431	0.0148	0.005
Mof_Ni	Ni	0.71635	0.10993	0.87313	1.128
Mof_O 	O 	0.1158	0.89448	0.10962	-0.385
Mof_O 	O 	0.1057	0.95853	0.07205	-0.358
Mof_O 	O 	0.83071	0.95352	0.96176	-0.347
Mof_O 	O 	0.8287	0.88455	0.92985	-0.408
Mof_O 	O 	0.0311	0.754	0.97151	-0.084
Mof_O 	O 	0.69224	0.04036	0.87571	-0.832
Mof_O 	O 	0.6976	0.04344	0.78861	-0.453
Mof_O 	O 	0.7728	0.10776	0.81575	-0.416
Mof_O 	O 	0.4469	0.12321	0.64575	-0.397
Mof_O 	O 	0.5456	0.05696	0.65314	-0.354
Mof_O 	O 	0.6276	0.26226	0.69945	-0.126
Mof_N 	N 	0.9962	0.7617	0.00766	-0.001
Mof_N 	N 	0.7329	0.18303	0.87379	-0.214
Mof_N 	N 	0.7718	0.42724	0.91146	-0.272
Mof_N 	N 	0.6361	0.24146	0.73284	-0.043
Mof_C 	C 	0.0895	0.91542	0.07893	0.321
Mof_C 	C 	0.0351	0.8858	0.0453	-0.052
Mof_C 	C 	0.0386	0.8364	0.0441	-0.017
Mof_H 	H 	0.0756	0.8195	0.0633	0.063
Mof_C 	C 	0.9855	0.8131	0.0133	0.039
Mof_C 	C 	0.9262	0.8375	0.986	-0.005
Mof_H 	H 	0.8883	0.8215	0.9664	0.052
Mof_C 	C 	0.923	0.8866	0.9879	-0.013
Mof_C 	C 	0.9732	0.91083	0.01841	-0.012
Mof_H 	H 	0.9652	0.9433	0.0206	0.036
Mof_C 	C 	0.8535	0.91046	0.95766	0.343
Mof_C 	C 	0.7212	0.08654	0.78903	0.342
Mof_C 	C 	0.6819	0.11496	0.7553	-0.062
Mof_C 	C 	0.6329	0.09422	0.723	0.001
Mof_H 	H 	0.6324	0.0616	0.7206	0.035
Mof_C 	C 	0.5847	0.12196	0.69436	-0.059
Mof_C 	C 	0.587	0.17081	0.69792	-0.073
Mof_H 	H 	0.5549	0.1897	0.6789	0.097
Mof_C 	C 	0.6375	0.19106	0.73015	0.116
Mof_C 	C 	0.6854	0.16351	0.75884	-0.077
Mof_H 	H 	0.7194	0.1774	0.7802	0.095
Mof_C 	C 	0.5216	0.09898	0.66167	0.336
Mof_C 	C 	0.6499	0.20741	0.8904	0.096
Mof_H 	H 	0.5842	0.1915	0.8972	0.01
Mof_C 	C 	0.6566	0.25504	0.89806	-0.132
Mof_H 	H 	0.5969	0.2704	0.9101	0.094
Mof_C 	C 	0.7525	0.27975	0.88772	0.067
Mof_C 	C 	0.8371	0.25484	0.86901	-0.13
Mof_H 	H 	0.902	0.2702	0.8606	0.08
Mof_C 	C 	0.8243	0.20705	0.86289	0.093
Mof_H 	H 	0.8823	0.1908	0.8506	0.006
Mof_C 	C 	0.7625	0.33077	0.89639	0.071
Mof_C 	C 	0.8257	0.36048	0.87347	-0.14
Mof_H 	H 	0.866	0.3487	0.8525	0.088
Mof_C 	C 	0.8287	0.40803	0.88195	0.09
Mof_H 	H 	0.8723	0.4276	0.8664	-0.026
Mof_C 	C 	0.7128	0.39846	0.93425	0.09
Mof_H 	H 	0.6743	0.4111	0.9553	-0.027
Mof_C 	C 	0.7067	0.3506	0.92784	-0.143
Mof_H 	H 	0.6652	0.3316	0.9445	0.095
Mof_H 	H 	0.624	0.0394	0.8728	0.293
Mof_N 	N 	0.9677	0.76349	0.03229	-0.062
Mof_C 	C 	0.0246	0.8892	0.0506	0.003
Mof_C 	C 	0.0246	0.8405	0.0535	-0.032
Mof_H 	H 	0.0595	0.8258	0.0744	0.008
Mof_C 	C 	0.9722	0.8139	0.02512	0.033
Mof_C 	C 	0.9145	0.836	0.9944	-0.032
Mof_H 	H 	0.8789	0.8178	0.9756	0.018
Mof_C 	C 	0.9108	0.8848	0.9922	-0.043
Mof_H 	H 	0.9813	0.9431	0.0148	0.016
Mof_Ni	Ni	0.28365	0.39007	0.87313	1.128
Mof_O 	O 	0.8842	0.60552	0.10962	-0.397
Mof_O 	O 	0.8943	0.54147	0.07205	-0.414
Mof_O 	O 	0.16929	0.54648	0.96176	-0.397
Mof_O 	O 	0.1713	0.61545	0.92985	-0.414
Mof_O 	O 	0.9689	0.746	0.97151	-0.085
Mof_O 	O 	0.30776	0.45964	0.87571	-0.814
Mof_O 	O 	0.3024	0.45656	0.78861	-0.42
Mof_O 	O 	0.2272	0.39224	0.81575	-0.408
Mof_O 	O 	0.5531	0.37679	0.64575	-0.393
Mof_O 	O 	0.4544	0.44304	0.65314	-0.327
Mof_O 	O 	0.3724	0.23774	0.69945	-0.125
Mof_N 	N 	0.0038	0.7383	0.00766	-0
Mof_N 	N 	0.2671	0.31697	0.87379	-0.213
Mof_N 	N 	0.2282	0.07276	0.91146	-0.283
Mof_N 	N 	0.3639	0.25854	0.73284	-0.044
Mof_C 	C 	0.9105	0.58458	0.07893	0.332
Mof_C 	C 	0.9649	0.6142	0.0453	-0.058
Mof_C 	C 	0.9614	0.6636	0.0441	-0.015
Mof_H 	H 	0.9244	0.6805	0.0633	0.06
Mof_C 	C 	0.0145	0.6869	0.0133	0.037
Mof_C 	C 	0.0738	0.6625	0.986	-0.004
Mof_H 	H 	0.1117	0.6785	0.9664	0.05
Mof_C 	C 	0.077	0.6134	0.9879	-0.017
Mof_C 	C 	0.0268	0.58917	0.01841	-0.006
Mof_H 	H 	0.0348	0.5567	0.0206	0.025
Mof_C 	C 	0.1465	0.58954	0.95766	0.352
Mof_C 	C 	0.2788	0.41346	0.78903	0.335
Mof_C 	C 	0.3181	0.38504	0.7553	-0.046
Mof_C 	C 	0.3671	0.40578	0.723	-0.012
Mof_H 	H 	0.3676	0.4384	0.7206	0.056
Mof_C 	C 	0.4153	0.37804	0.69436	-0.046
Mof_C 	C 	0.413	0.32919	0.69792	-0.081
Mof_H 	H 	0.4451	0.3103	0.6789	0.1
Mof_C 	C 	0.3625	0.30894	0.73015	0.122
Mof_C 	C 	0.3146	0.33649	0.75884	-0.086
Mof_H 	H 	0.2806	0.3226	0.7802	0.099
Mof_C 	C 	0.4784	0.40102	0.66167	0.328
Mof_C 	C 	0.3501	0.29259	0.8904	0.095
Mof_H 	H 	0.4158	0.3085	0.8972	0.011
Mof_C 	C 	0.3434	0.24496	0.89806	-0.131
Mof_H 	H 	0.4031	0.2296	0.9101	0.093
Mof_C 	C 	0.2475	0.22025	0.88772	0.065
Mof_C 	C 	0.1629	0.24516	0.86901	-0.129
Mof_H 	H 	0.098	0.2298	0.8606	0.079
Mof_C 	C 	0.1757	0.29295	0.86289	0.092
Mof_H 	H 	0.1177	0.3092	0.8506	0.007
Mof_C 	C 	0.2375	0.16923	0.89639	0.073
Mof_C 	C 	0.1743	0.13952	0.87347	-0.146
Mof_H 	H 	0.134	0.1513	0.8525	0.088
Mof_C 	C 	0.1713	0.09197	0.88195	0.093
Mof_H 	H 	0.1277	0.0724	0.8664	-0.044
Mof_C 	C 	0.2872	0.10154	0.93425	0.091
Mof_H 	H 	0.3257	0.0889	0.9553	-0.037
Mof_C 	C 	0.2933	0.1494	0.92784	-0.147
Mof_H 	H 	0.3348	0.1684	0.9445	0.096
Mof_H 	H 	0.376	0.4606	0.8728	0.303
Mof_N 	N 	0.0323	0.73651	0.03229	-0.062
Mof_C 	C 	0.9754	0.6108	0.0506	-0.001
Mof_C 	C 	0.9754	0.6595	0.0535	-0.029
Mof_H 	H 	0.9405	0.6742	0.0744	0.009
Mof_C 	C 	0.0278	0.6861	0.02512	0.032
Mof_C 	C 	0.0855	0.664	0.9944	-0.03
Mof_H 	H 	0.1211	0.6822	0.9756	0.019
Mof_C 	C 	0.0892	0.6152	0.9922	-0.049
Mof_H 	H 	0.0187	0.5569	0.0148	0.005
Mof_Ni	Ni	0.78365	0.89007	0.87313	1.129
Mof_O 	O 	0.3842	0.10552	0.10962	-0.405
Mof_O 	O 	0.3943	0.04147	0.07205	-0.449
Mof_O 	O 	0.66929	0.04648	0.96176	-0.43
Mof_O 	O 	0.6713	0.11545	0.92985	-0.418
Mof_O 	O 	0.4689	0.246	0.97151	-0.084
Mof_O 	O 	0.80776	0.95964	0.87571	-0.762
Mof_O 	O 	0.8024	0.95656	0.78861	-0.367
Mof_O 	O 	0.7272	0.89224	0.81575	-0.393
Mof_O 	O 	0.0531	0.87679	0.64575	-0.388
Mof_O 	O 	0.9544	0.94304	0.65314	-0.292
Mof_O 	O 	0.8724	0.73774	0.69945	-0.126
Mof_N 	N 	0.5038	0.2383	0.00766	-0
Mof_N 	N 	0.7671	0.81697	0.87379	-0.214
Mof_N 	N 	0.7282	0.57276	0.91146	-0.272
Mof_N 	N 	0.8639	0.75854	0.73284	-0.045
Mof_C 	C 	0.4105	0.08458	0.07893	0.339
Mof_C 	C 	0.4649	0.1142	0.0453	-0.063
Mof_C 	C 	0.4614	0.1636	0.0441	-0.014
Mof_H 	H 	0.4244	0.1805	0.0633	0.058
Mof_C 	C 	0.5145	0.1869	0.0133	0.036
Mof_C 	C 	0.5738	0.1625	0.986	-0.003
Mof_H 	H 	0.6117	0.1785	0.9664	0.049
Mof_C 	C 	0.577	0.1134	0.9879	-0.02
Mof_C 	C 	0.5268	0.08917	0.01841	-0.001
Mof_H 	H 	0.5348	0.0567	0.0206	0.014
Mof_C 	C 	0.6465	0.08954	0.95766	0.357
Mof_C 	C 	0.7788	0.91346	0.78903	0.324
Mof_C 	C 	0.8181	0.88504	0.7553	-0.026
Mof_C 	C 	0.8671	0.90578	0.723	-0.028
Mof_H 	H 	0.8676	0.9384	0.7206	0.08
Mof_C 	C 	0.9153	0.87804	0.69436	-0.03
Mof_C 	C 	0.913	0.82919	0.69792	-0.091
Mof_H 	H 	0.9451	0.8103	0.6789	0.104
Mof_C 	C 	0.8625	0.80894	0.73015	0.13
Mof_C 	C 	0.8146	0.83649	0.75884	-0.097
Mof_H 	H 	0.7806	0.8226	0.7802	0.103
Mof_C 	C 	0.9784	0.90102	0.66167	0.317
Mof_C 	C 	0.8501	0.79259	0.8904	0.094
Mof_H 	H 	0.9158	0.8085	0.8972	0.01
Mof_C 	C 	0.8434	0.74496	0.89806	-0.132
Mof_H 	H 	0.9031	0.7296	0.9101	0.093
Mof_C 	C 	0.7475	0.72025	0.88772	0.066
Mof_C 	C 	0.6629	0.74516	0.86901	-0.129
Mof_H 	H 	0.598	0.7298	0.8606	0.08
Mof_C 	C 	0.6757	0.79295	0.86289	0.091
Mof_H 	H 	0.6177	0.8092	0.8506	0.008
Mof_C 	C 	0.7375	0.66923	0.89639	0.071
Mof_C 	C 	0.6743	0.63952	0.87347	-0.141
Mof_H 	H 	0.634	0.6513	0.8525	0.088
Mof_C 	C 	0.6713	0.59197	0.88195	0.09
Mof_H 	H 	0.6277	0.5724	0.8664	-0.026
Mof_C 	C 	0.7872	0.60154	0.93425	0.09
Mof_H 	H 	0.8257	0.5889	0.9553	-0.027
Mof_C 	C 	0.7933	0.6494	0.92784	-0.143
Mof_H 	H 	0.8348	0.6684	0.9445	0.095
Mof_H 	H 	0.876	0.9606	0.8728	0.31
Mof_N 	N 	0.5323	0.23651	0.03229	-0.061
Mof_C 	C 	0.4754	0.1108	0.0506	-0.004
Mof_C 	C 	0.4754	0.1595	0.0535	-0.028
Mof_H 	H 	0.4405	0.1742	0.0744	0.011
Mof_C 	C 	0.5278	0.1861	0.02512	0.032
Mof_C 	C 	0.5855	0.164	0.9944	-0.029
Mof_H 	H 	0.6211	0.1822	0.9756	0.02
Mof_C 	C 	0.5892	0.1152	0.9922	-0.054
Mof_H 	H 	0.5187	0.0569	0.0148	-0.004
Mof_Ni	Ni	0.78365	0.60993	0.62687	1.128
Mof_O 	O 	0.3842	0.39448	0.39038	-0.397
Mof_O 	O 	0.3943	0.45853	0.42795	-0.414
Mof_O 	O 	0.66929	0.45352	0.53824	-0.397
Mof_O 	O 	0.6713	0.38455	0.57015	-0.414
Mof_O 	O 	0.4689	0.254	0.52849	-0.084
Mof_O 	O 	0.80776	0.54036	0.62429	-0.814
Mof_O 	O 	0.8024	0.54344	0.71139	-0.42
Mof_O 	O 	0.7272	0.60776	0.68425	-0.408
Mof_O 	O 	0.0531	0.62321	0.85425	-0.393
Mof_O 	O 	0.9544	0.55696	0.84686	-0.327
Mof_O 	O 	0.8724	0.76226	0.80055	-0.126
Mof_N 	N 	0.5038	0.2617	0.49234	-0.001
Mof_N 	N 	0.7671	0.68303	0.62621	-0.214
Mof_N 	N 	0.7282	0.92724	0.58854	-0.246
Mof_N 	N 	0.8639	0.74146	0.76716	-0.044
Mof_C 	C 	0.4105	0.41542	0.42107	0.332
Mof_C 	C 	0.4649	0.3858	0.4547	-0.058
Mof_C 	C 	0.4614	0.3364	0.4559	-0.015
Mof_H 	H 	0.4244	0.3195	0.4367	0.06
Mof_C 	C 	0.5145	0.3131	0.4867	0.037
Mof_C 	C 	0.5738	0.3375	0.514	-0.004
Mof_H 	H 	0.6117	0.3215	0.5336	0.05
Mof_C 	C 	0.577	0.3866	0.5121	-0.017
Mof_C 	C 	0.5268	0.41083	0.48159	-0.006
Mof_H 	H 	0.5348	0.4433	0.4794	0.025
Mof_C 	C 	0.6465	0.41046	0.54234	0.352
Mof_C 	C 	0.7788	0.58654	0.71097	0.335
Mof_C 	C 	0.8181	0.61496	0.7447	-0.046
Mof_C 	C 	0.8671	0.59422	0.777	-0.012
Mof_H 	H 	0.8676	0.5616	0.7794	0.056
Mof_C 	C 	0.9153	0.62196	0.80564	-0.046
Mof_C 	C 	0.913	0.67081	0.80208	-0.081
Mof_H 	H 	0.9451	0.6897	0.8211	0.1
Mof_C 	C 	0.8625	0.69106	0.76985	0.122
Mof_C 	C 	0.8146	0.66351	0.74116	-0.086
Mof_H 	H 	0.7806	0.6774	0.7198	0.099
Mof_C 	C 	0.9784	0.59898	0.83833	0.328
Mof_C 	C 	0.8501	0.70741	0.6096	0.096
Mof_H 	H 	0.9158	0.6915	0.6028	0.01
Mof_C 	C 	0.8434	0.75504	0.60194	-0.134
Mof_H 	H 	0.9031	0.7704	0.5899	0.094
Mof_C 	C 	0.7475	0.77975	0.61228	0.069
Mof_C 	C 	0.6629	0.75484	0.63099	-0.131
Mof_H 	H 	0.598	0.7702	0.6394	0.081
Mof_C 	C 	0.6757	0.70705	0.63711	0.093
Mof_H 	H 	0.6177	0.6908	0.6494	0.007
Mof_C 	C 	0.7375	0.83077	0.60361	0.067
Mof_C 	C 	0.6743	0.86048	0.62653	-0.133
Mof_H 	H 	0.634	0.8487	0.6475	0.089
Mof_C 	C 	0.6713	0.90803	0.61805	0.087
Mof_H 	H 	0.6277	0.9276	0.6336	-0.002
Mof_C 	C 	0.7872	0.89846	0.56575	0.088
Mof_H 	H 	0.8257	0.9111	0.5447	-0.013
Mof_C 	C 	0.7933	0.8506	0.57216	-0.138
Mof_H 	H 	0.8348	0.8316	0.5555	0.093
Mof_H 	H 	0.876	0.5394	0.6272	0.303
Mof_N 	N 	0.5323	0.26349	0.46771	-0.061
Mof_C 	C 	0.4754	0.3892	0.4494	-0.001
Mof_C 	C 	0.4754	0.3405	0.4465	-0.029
Mof_H 	H 	0.4405	0.3258	0.4256	0.01
Mof_C 	C 	0.5278	0.3139	0.47488	0.033
Mof_C 	C 	0.5855	0.336	0.5056	-0.03
Mof_H 	H 	0.6211	0.3178	0.5244	0.019
Mof_C 	C 	0.5892	0.3848	0.5078	-0.049
Mof_H 	H 	0.5187	0.4431	0.4852	0.005
Mof_Ni	Ni	0.28365	0.10993	0.62687	1.128
Mof_O 	O 	0.8842	0.89448	0.39038	-0.385
Mof_O 	O 	0.8943	0.95853	0.42795	-0.358
Mof_O 	O 	0.16929	0.95352	0.53824	-0.346
Mof_O 	O 	0.1713	0.88455	0.57015	-0.408
Mof_O 	O 	0.9689	0.754	0.52849	-0.084
Mof_O 	O 	0.30776	0.04036	0.62429	-0.832
Mof_O 	O 	0.3024	0.04344	0.71139	-0.453
Mof_O 	O 	0.2272	0.10776	0.68425	-0.416
Mof_O 	O 	0.5531	0.12321	0.85425	-0.397
Mof_O 	O 	0.4544	0.05696	0.84686	-0.354
Mof_O 	O 	0.3724	0.26226	0.80055	-0.126
Mof_N 	N 	0.0038	0.7617	0.49234	-0.001
Mof_N 	N 	0.2671	0.18303	0.62621	-0.214
Mof_N 	N 	0.2282	0.42724	0.58854	-0.272
Mof_N 	N 	0.3639	0.24146	0.76716	-0.043
Mof_C 	C 	0.9105	0.91542	0.42107	0.321
Mof_C 	C 	0.9649	0.8858	0.4547	-0.052
Mof_C 	C 	0.9614	0.8364	0.4559	-0.017
Mof_H 	H 	0.9244	0.8195	0.4367	0.063
Mof_C 	C 	0.0145	0.8131	0.4867	0.039
Mof_C 	C 	0.0738	0.8375	0.514	-0.005
Mof_H 	H 	0.1117	0.8215	0.5336	0.052
Mof_C 	C 	0.077	0.8866	0.5121	-0.013
Mof_C 	C 	0.0268	0.91083	0.48159	-0.012
Mof_H 	H 	0.0348	0.9433	0.4794	0.036
Mof_C 	C 	0.1465	0.91046	0.54234	0.343
Mof_C 	C 	0.2788	0.08654	0.71097	0.342
Mof_C 	C 	0.3181	0.11496	0.7447	-0.062
Mof_C 	C 	0.3671	0.09422	0.777	0.001
Mof_H 	H 	0.3676	0.0616	0.7794	0.035
Mof_C 	C 	0.4153	0.12196	0.80564	-0.059
Mof_C 	C 	0.413	0.17081	0.80208	-0.073
Mof_H 	H 	0.4451	0.1897	0.8211	0.097
Mof_C 	C 	0.3625	0.19106	0.76985	0.116
Mof_C 	C 	0.3146	0.16351	0.74116	-0.077
Mof_H 	H 	0.2806	0.1774	0.7198	0.095
Mof_C 	C 	0.4784	0.09898	0.83833	0.336
Mof_C 	C 	0.3501	0.20741	0.6096	0.096
Mof_H 	H 	0.4158	0.1915	0.6028	0.01
Mof_C 	C 	0.3434	0.25504	0.60194	-0.132
Mof_H 	H 	0.4031	0.2704	0.5899	0.094
Mof_C 	C 	0.2475	0.27975	0.61228	0.067
Mof_C 	C 	0.1629	0.25484	0.63099	-0.13
Mof_H 	H 	0.098	0.2702	0.6394	0.08
Mof_C 	C 	0.1757	0.20705	0.63711	0.093
Mof_H 	H 	0.1177	0.1908	0.6494	0.006
Mof_C 	C 	0.2375	0.33077	0.60361	0.071
Mof_C 	C 	0.1743	0.36048	0.62653	-0.14
Mof_H 	H 	0.134	0.3487	0.6475	0.088
Mof_C 	C 	0.1713	0.40803	0.61805	0.09
Mof_H 	H 	0.1277	0.4276	0.6336	-0.026
Mof_C 	C 	0.2872	0.39846	0.56575	0.09
Mof_H 	H 	0.3257	0.4111	0.5447	-0.027
Mof_C 	C 	0.2933	0.3506	0.57216	-0.143
Mof_H 	H 	0.3348	0.3316	0.5555	0.095
Mof_H 	H 	0.376	0.0394	0.6272	0.293
Mof_N 	N 	0.0323	0.76349	0.46771	-0.062
Mof_C 	C 	0.9754	0.8892	0.4494	0.003
Mof_C 	C 	0.9754	0.8405	0.4465	-0.032
Mof_H 	H 	0.9405	0.8258	0.4256	0.008
Mof_C 	C 	0.0278	0.8139	0.47488	0.033
Mof_C 	C 	0.0855	0.836	0.5056	-0.032
Mof_H 	H 	0.1211	0.8178	0.5244	0.018
Mof_C 	C 	0.0892	0.8848	0.5078	-0.043
Mof_H 	H 	0.0187	0.9431	0.4852	0.016
Mof_Ni	Ni	0.71635	0.39007	0.62687	1.128
Mof_O 	O 	0.1158	0.60552	0.39038	-0.397
Mof_O 	O 	0.1057	0.54147	0.42795	-0.414
Mof_O 	O 	0.83071	0.54648	0.53824	-0.397
Mof_O 	O 	0.8287	0.61545	0.57015	-0.414
Mof_O 	O 	0.0311	0.746	0.52849	-0.085
Mof_O 	O 	0.69224	0.45964	0.62429	-0.814
Mof_O 	O 	0.6976	0.45656	0.71139	-0.42
Mof_O 	O 	0.7728	0.39224	0.68425	-0.408
Mof_O 	O 	0.4469	0.37679	0.85425	-0.393
Mof_O 	O 	0.5456	0.44304	0.84686	-0.327
Mof_O 	O 	0.6276	0.23774	0.80055	-0.125
Mof_N 	N 	0.9962	0.7383	0.49234	-0
Mof_N 	N 	0.7329	0.31697	0.62621	-0.213
Mof_N 	N 	0.7718	0.07276	0.58854	-0.283
Mof_N 	N 	0.6361	0.25854	0.76716	-0.044
Mof_C 	C 	0.0895	0.58458	0.42107	0.332
Mof_C 	C 	0.0351	0.6142	0.4547	-0.058
Mof_C 	C 	0.0386	0.6636	0.4559	-0.015
Mof_H 	H 	0.0756	0.6805	0.4367	0.06
Mof_C 	C 	0.9855	0.6869	0.4867	0.037
Mof_C 	C 	0.9262	0.6625	0.514	-0.004
Mof_H 	H 	0.8883	0.6785	0.5336	0.05
Mof_C 	C 	0.923	0.6134	0.5121	-0.017
Mof_C 	C 	0.9732	0.58917	0.48159	-0.006
Mof_H 	H 	0.9652	0.5567	0.4794	0.025
Mof_C 	C 	0.8535	0.58954	0.54234	0.352
Mof_C 	C 	0.7212	0.41346	0.71097	0.335
Mof_C 	C 	0.6819	0.38504	0.7447	-0.046
Mof_C 	C 	0.6329	0.40578	0.777	-0.012
Mof_H 	H 	0.6324	0.4384	0.7794	0.056
Mof_C 	C 	0.5847	0.37804	0.80564	-0.046
Mof_C 	C 	0.587	0.32919	0.80208	-0.081
Mof_H 	H 	0.5549	0.3103	0.8211	0.1
Mof_C 	C 	0.6375	0.30894	0.76985	0.122
Mof_C 	C 	0.6854	0.33649	0.74116	-0.086
Mof_H 	H 	0.7194	0.3226	0.7198	0.099
Mof_C 	C 	0.5216	0.40102	0.83833	0.328
Mof_C 	C 	0.6499	0.29259	0.6096	0.095
Mof_H 	H 	0.5842	0.3085	0.6028	0.011
Mof_C 	C 	0.6566	0.24496	0.60194	-0.131
Mof_H 	H 	0.5969	0.2296	0.5899	0.093
Mof_C 	C 	0.7525	0.22025	0.61228	0.065
Mof_C 	C 	0.8371	0.24516	0.63099	-0.129
Mof_H 	H 	0.902	0.2298	0.6394	0.079
Mof_C 	C 	0.8243	0.29295	0.63711	0.092
Mof_H 	H 	0.8823	0.3092	0.6494	0.007
Mof_C 	C 	0.7625	0.16923	0.60361	0.073
Mof_C 	C 	0.8257	0.13952	0.62653	-0.146
Mof_H 	H 	0.866	0.1513	0.6475	0.088
Mof_C 	C 	0.8287	0.09197	0.61805	0.093
Mof_H 	H 	0.8723	0.0724	0.6336	-0.044
Mof_C 	C 	0.7128	0.10154	0.56575	0.091
Mof_H 	H 	0.6743	0.0889	0.5447	-0.037
Mof_C 	C 	0.7067	0.1494	0.57216	-0.147
Mof_H 	H 	0.6652	0.1684	0.5555	0.096
Mof_H 	H 	0.624	0.4606	0.6272	0.303
Mof_N 	N 	0.9677	0.73651	0.46771	-0.062
Mof_C 	C 	0.0246	0.6108	0.4494	-0.001
Mof_C 	C 	0.0246	0.6595	0.4465	-0.029
Mof_H 	H 	0.0595	0.6742	0.4256	0.009
Mof_C 	C 	0.9722	0.6861	0.47488	0.032
Mof_C 	C 	0.9145	0.664	0.5056	-0.03
Mof_H 	H 	0.8789	0.6822	0.5244	0.019
Mof_C 	C 	0.9108	0.6152	0.5078	-0.049
Mof_H 	H 	0.9813	0.5569	0.4852	0.005
Mof_Ni	Ni	0.21635	0.89007	0.62687	1.129
Mof_O 	O 	0.6158	0.10552	0.39038	-0.405
Mof_O 	O 	0.6057	0.04147	0.42795	-0.45
Mof_O 	O 	0.33071	0.04648	0.53824	-0.43
Mof_O 	O 	0.3287	0.11545	0.57015	-0.418
Mof_O 	O 	0.5311	0.246	0.52849	-0.084
Mof_O 	O 	0.19224	0.95964	0.62429	-0.762
Mof_O 	O 	0.1976	0.95656	0.71139	-0.367
Mof_O 	O 	0.2728	0.89224	0.68425	-0.393
Mof_O 	O 	0.9469	0.87679	0.85425	-0.388
Mof_O 	O 	0.0456	0.94304	0.84686	-0.292
Mof_O 	O 	0.1276	0.73774	0.80055	-0.126
Mof_N 	N 	0.4962	0.2383	0.49234	-0
Mof_N 	N 	0.2329	0.81697	0.62621	-0.214
Mof_N 	N 	0.2718	0.57276	0.58854	-0.272
Mof_N 	N 	0.1361	0.75854	0.76716	-0.045
Mof_C 	C 	0.5895	0.08458	0.42107	0.339
Mof_C 	C 	0.5351	0.1142	0.4547	-0.063
Mof_C 	C 	0.5386	0.1636	0.4559	-0.014
Mof_H 	H 	0.5756	0.1805	0.4367	0.058
Mof_C 	C 	0.4855	0.1869	0.4867	0.036
Mof_C 	C 	0.4262	0.1625	0.514	-0.003
Mof_H 	H 	0.3883	0.1785	0.5336	0.049
Mof_C 	C 	0.423	0.1134	0.5121	-0.02
Mof_C 	C 	0.4732	0.08917	0.48159	-0.001
Mof_H 	H 	0.4652	0.0567	0.4794	0.014
Mof_C 	C 	0.3535	0.08954	0.54234	0.357
Mof_C 	C 	0.2212	0.91346	0.71097	0.324
Mof_C 	C 	0.1819	0.88504	0.7447	-0.026
Mof_C 	C 	0.1329	0.90578	0.777	-0.028
Mof_H 	H 	0.1324	0.9384	0.7794	0.08
Mof_C 	C 	0.0847	0.87804	0.80564	-0.03
Mof_C 	C 	0.087	0.82919	0.80208	-0.091
Mof_H 	H 	0.0549	0.8103	0.8211	0.104
Mof_C 	C 	0.1375	0.80894	0.76985	0.13
Mof_C 	C 	0.1854	0.83649	0.74116	-0.097
Mof_H 	H 	0.2194	0.8226	0.7198	0.103
Mof_C 	C 	0.0216	0.90102	0.83833	0.317
Mof_C 	C 	0.1499	0.79259	0.6096	0.094
Mof_H 	H 	0.0842	0.8085	0.6028	0.01
Mof_C 	C 	0.1566	0.74496	0.60194	-0.132
Mof_H 	H 	0.0969	0.7296	0.5899	0.093
Mof_C 	C 	0.2525	0.72025	0.61228	0.066
Mof_C 	C 	0.3371	0.74516	0.63099	-0.129
Mof_H 	H 	0.402	0.7298	0.6394	0.08
Mof_C 	C 	0.3243	0.79295	0.63711	0.091
Mof_H 	H 	0.3823	0.8092	0.6494	0.008
Mof_C 	C 	0.2625	0.66923	0.60361	0.071
Mof_C 	C 	0.3257	0.63952	0.62653	-0.141
Mof_H 	H 	0.366	0.6513	0.6475	0.088
Mof_C 	C 	0.3287	0.59197	0.61805	0.09
Mof_H 	H 	0.3723	0.5724	0.6336	-0.026
Mof_C 	C 	0.2128	0.60154	0.56575	0.09
Mof_H 	H 	0.1743	0.5889	0.5447	-0.027
Mof_C 	C 	0.2067	0.6494	0.57216	-0.143
Mof_H 	H 	0.1652	0.6684	0.5555	0.095
Mof_H 	H 	0.124	0.9606	0.6272	0.31
Mof_N 	N 	0.4677	0.23651	0.46771	-0.061
Mof_C 	C 	0.5246	0.1108	0.4494	-0.004
Mof_C 	C 	0.5246	0.1595	0.4465	-0.028
Mof_H 	H 	0.5595	0.1742	0.4256	0.011
Mof_C 	C 	0.4722	0.1861	0.47488	0.032
Mof_C 	C 	0.4145	0.164	0.5056	-0.029
Mof_H 	H 	0.3789	0.1822	0.5244	0.02
Mof_C 	C 	0.4108	0.1152	0.5078	-0.054
Mof_H 	H 	0.4813	0.0569	0.4852	-0.004
Mof_Ni	Ni	0.75	0.5	0.07962	1.126
Mof_Ni	Ni	0.75	0.5	0.16855	1.081
Mof_Ni	Ni	0.25	-1.08661e-33	0.07962	1.078
Mof_Ni	Ni	0.25	-2.17322e-33	0.16855	1.034
Mof_Ni	Ni	0.25	0.5	0.42038	1.126
Mof_Ni	Ni	0.25	0.5	0.33145	1.081
Mof_Ni	Ni	0.75	-4.34645e-33	0.42038	1.078
Mof_Ni	Ni	0.75	0	0.33145	1.034
Mof_Ni	Ni	0.25	0.5	0.92038	1.126
Mof_Ni	Ni	0.25	0.5	0.83145	1.081
Mof_Ni	Ni	0.75	0	0.92038	1.078
Mof_Ni	Ni	0.75	-8.6929e-33	0.83145	1.034
Mof_Ni	Ni	0.75	0.5	0.57962	1.126
Mof_Ni	Ni	0.75	0.5	0.66855	1.081
Mof_Ni	Ni	0.25	0	0.57962	1.078
Mof_Ni	Ni	0.25	0	0.66855	1.034
Mof_Ni	Ni	0.75	-1.08661e-33	0.08514	0.937
Mof_Ni	Ni	0.25	0.5	0.08514	0.982
Mof_Ni	Ni	0.25	-4.34645e-33	0.41486	0.937
Mof_Ni	Ni	0.75	0.5	0.41486	0.982
Mof_Ni	Ni	0.25	0	0.91486	0.937
Mof_Ni	Ni	0.75	0.5	0.91486	0.982
Mof_Ni	Ni	0.75	0	0.58514	0.937
Mof_Ni	Ni	0.25	0.5	0.58514	0.982
_end
