data_functionalizedCrystal
_audit_creation_method	'EQeq! by Chris Wilmer'
_symmetry_space_group_name_H-M	'P1'
_symmetry_Int_Tables_number	1
_symmetry_cell_setting	triclinic
loop_
_symmetry_equiv_pos_as_xyz
  x,y,z
_cell_length_a	9.5115
_cell_length_b	12.92
_cell_length_c	12.92
_cell_angle_alpha	91.9819
_cell_angle_beta	90
_cell_angle_gamma	90
loop_
_atom_site_label
_atom_site_type_symbol
_atom_site_fract_x
_atom_site_fract_y
_atom_site_fract_z
_atom_site_charge
Mof_U 	U 	0.77706	0.6804	0.09918	-0.004
Mof_U 	U 	0.27706	0.3196	0.90082	0.011
Mof_U 	U 	0.27706	0.90082	0.3196	0.011
Mof_U 	U 	0.77706	0.09918	0.6804	-0.004
Mof_U 	U 	0.94812	0.20613	0.20613	0.004
Mof_U 	U 	0.44812	0.79387	0.79387	0.017
Mof_P 	P 	0.9043	0.22989	0.92781	0.307
Mof_P 	P 	0.9706	0.43029	0.03619	0.309
Mof_P 	P 	0.4043	0.77011	0.07219	0.356
Mof_P 	P 	0.4706	0.56971	0.96381	0.337
Mof_P 	P 	0.4043	0.07219	0.77011	0.356
Mof_P 	P 	0.4706	0.96381	0.56971	0.337
Mof_P 	P 	0.9043	0.92781	0.22989	0.308
Mof_P 	P 	0.9706	0.03619	0.43029	0.309
Mof_H 	H 	0.9525	0.4192	0.8122	0.262
Mof_H 	H 	0.7967	0.3856	0.7902	0.284
Mof_H 	H 	0.8282	0.4903	0.8507	0.279
Mof_H 	H 	0.6906	0.4293	0.9973	0.276
Mof_H 	H 	0.4525	0.5808	0.1878	0.299
Mof_H 	H 	0.2967	0.6144	0.2098	0.313
Mof_H 	H 	0.3282	0.5097	0.1493	0.311
Mof_H 	H 	0.1906	0.5707	0.0027	0.286
Mof_H 	H 	0.4525	0.1878	0.5808	0.299
Mof_H 	H 	0.2967	0.2098	0.6144	0.313
Mof_H 	H 	0.3282	0.1493	0.5097	0.311
Mof_H 	H 	0.1906	0.0027	0.5707	0.286
Mof_H 	H 	0.9525	0.8122	0.4192	0.262
Mof_H 	H 	0.7967	0.7902	0.3856	0.284
Mof_H 	H 	0.8282	0.8507	0.4903	0.279
Mof_H 	H 	0.6906	0.9973	0.4293	0.276
Mof_C 	C 	0.855	0.3644	0.9404	0.195
Mof_C 	C 	0.8584	0.42	0.8392	-0.739
Mof_C 	C 	0.355	0.6356	0.0596	0.215
Mof_C 	C 	0.3584	0.58	0.1608	-0.794
Mof_C 	C 	0.355	0.0596	0.6356	0.215
Mof_C 	C 	0.3584	0.1608	0.58	-0.794
Mof_C 	C 	0.855	0.9404	0.3644	0.195
Mof_C 	C 	0.8584	0.8392	0.42	-0.739
Mof_O 	O 	0.9097	0.5356	0.0574	-0.185
Mof_O 	O 	0.8136	0.1779	0.8451	-0.146
Mof_O 	O 	0.8856	0.1783	0.0319	-0.121
Mof_O 	O 	0.1145	0.4358	0.9836	-0.16
Mof_O 	O 	0.9721	0.3665	0.1351	-0.167
Mof_O 	O 	0.0585	0.2331	0.8951	-0.1
Mof_O 	O 	0.7115	0.3689	0.9831	-0.355
Mof_O 	O 	0.4097	0.4644	0.9426	-0.174
Mof_O 	O 	0.3136	0.8221	0.1549	-0.136
Mof_O 	O 	0.3856	0.8217	0.9681	-0.121
Mof_O 	O 	0.6145	0.5642	0.0164	-0.196
Mof_O 	O 	0.4721	0.6335	0.8649	-0.154
Mof_O 	O 	0.5585	0.7669	0.1049	-0.152
Mof_O 	O 	0.2115	0.6311	0.0169	-0.347
Mof_O 	O 	0.4097	0.9426	0.4644	-0.174
Mof_O 	O 	0.3136	0.1549	0.8221	-0.136
Mof_O 	O 	0.3856	0.9681	0.8217	-0.121
Mof_O 	O 	0.6145	0.0164	0.5642	-0.196
Mof_O 	O 	0.4721	0.8649	0.6335	-0.154
Mof_O 	O 	0.5585	0.1049	0.7669	-0.152
Mof_O 	O 	0.2115	0.0169	0.6311	-0.347
Mof_O 	O 	0.9097	0.0574	0.5356	-0.185
Mof_O 	O 	0.8136	0.8451	0.1779	-0.146
Mof_O 	O 	0.8856	0.0319	0.1783	-0.121
Mof_O 	O 	0.1145	0.9836	0.4358	-0.16
Mof_O 	O 	0.9721	0.1351	0.3665	-0.167
Mof_O 	O 	0.0585	0.8951	0.2331	-0.1
Mof_O 	O 	0.7115	0.9831	0.3689	-0.355
_end
