data_functionalizedCrystal
_audit_creation_method	'EQeq! by Chris Wilmer'
_symmetry_space_group_name_H-M	'P1'
_symmetry_Int_Tables_number	1
_symmetry_cell_setting	triclinic
loop_
_symmetry_equiv_pos_as_xyz
  x,y,z
_cell_length_a	29.627
_cell_length_b	29.627
_cell_length_c	29.627
_cell_angle_alpha	90
_cell_angle_beta	90
_cell_angle_gamma	90
loop_
_atom_site_label
_atom_site_type_symbol
_atom_site_fract_x
_atom_site_fract_y
_atom_site_fract_z
_atom_site_charge
Mof_O 	O 	0.2802	0.0609	0.3961	-0.273
Mof_O 	O 	0.2706	0.0469	0.0464	-0.452
Mof_O 	O 	0.3466	0.0462	0.0458	-0.462
Mof_O 	O 	0.2292	0.1637	0.2181	-0.429
Mof_O 	O 	0.1898	0.1245	0.167	-0.543
Mof_O 	O 	0.1869	0.1206	0.2881	-0.406
Mof_O 	O 	0.1477	0.0811	0.2356	-0.543
Mof_O 	O 	0.4382	0.1512	0.1236	-0.646
Mof_N 	N 	0.3912	0.1537	0.1703	-0.85
Mof_H 	H 	0.2366	0.9743	0.4115	-0.012
Mof_C 	C 	0.3086	0.0588	0.0603	0.222
Mof_C 	C 	0.3089	0.0928	0.0988	-0.068
Mof_C 	C 	0.2684	0.1027	0.1207	-0.41
Mof_H 	H 	0.2413	0.0911	0.11	-0.009
Mof_C 	C 	0.2695	0.1305	0.1589	-0.123
Mof_C 	C 	0.3096	0.1472	0.1748	-0.36
Mof_H 	H 	0.3098	0.1658	0.2	0.156
Mof_C 	C 	0.3497	0.1365	0.1535	0.365
Mof_C 	C 	0.4299	0.1567	0.1634	1.546
Mof_C 	C 	0.4608	0.1945	0.2418	6.446
Mof_H 	H 	0.4332	0.2007	0.2555	-2.076
Mof_C 	C 	0.4622	0.1705	0.2011	-4.606
Mof_C 	C 	0.2264	0.1403	0.1835	0.166
Mof_C 	C 	0.1715	0.0839	0.2706	0.269
Mof_C 	C 	0.1823	0.0404	0.2941	-0.208
Mof_C 	C 	0.206	0.0409	0.3349	-0.129
Mof_H 	H 	0.2142	0.0681	0.3483	0.123
Mof_C 	C 	0.3496	0.1085	0.1158	-0.326
Mof_H 	H 	0.3766	0.1004	0.1021	0.102
Mof_C 	C 	0.27	0.0262	0.4182	0.418
Mof_H 	H 	0.4695	0.2415	0.3123	-2.839
Mof_H 	H 	0.5162	0.2627	0.2993	-2.805
Mof_H 	H 	0.5144	0.2177	0.327	-2.84
Mof_H 	H 	0.4172	0.0268	0.4853	-0.856
Mof_O 	O 	0.3834	0.1385	0.2337	-0.423
Mof_C 	C 	0.4053	0.1552	0.2021	0.909
Mof_O 	O 	0.7802	0.5609	0.8961	-0.183
Mof_O 	O 	0.7706	0.5469	0.5464	-0.322
Mof_O 	O 	0.8466	0.5462	0.5458	-0.357
Mof_O 	O 	0.7292	0.6637	0.7181	-0.393
Mof_O 	O 	0.6898	0.6245	0.667	-0.286
Mof_O 	O 	0.6869	0.6206	0.7881	-0.365
Mof_O 	O 	0.6477	0.5811	0.7356	-0.278
Mof_O 	O 	0.9382	0.6512	0.6236	0.264
Mof_N 	N 	0.8912	0.6537	0.6703	0.696
Mof_H 	H 	0.7366	0.4743	0.9115	0.088
Mof_C 	C 	0.8086	0.5588	0.5603	0.434
Mof_C 	C 	0.8089	0.5928	0.5988	-0.043
Mof_C 	C 	0.7684	0.6027	0.6207	0.261
Mof_H 	H 	0.7413	0.5911	0.61	0.127
Mof_C 	C 	0.7695	0.6305	0.6589	-0.016
Mof_C 	C 	0.8096	0.6472	0.6748	0.16
Mof_H 	H 	0.8098	0.6658	0.7	0.022
Mof_C 	C 	0.8497	0.6365	0.6535	-0.153
Mof_C 	C 	0.9299	0.6567	0.6634	-1.893
Mof_C 	C 	0.9608	0.6945	0.7418	-10.952
Mof_H 	H 	0.9332	0.7007	0.7555	3.636
Mof_C 	C 	0.9622	0.6705	0.7011	6.864
Mof_C 	C 	0.7264	0.6403	0.6835	0.459
Mof_C 	C 	0.6715	0.5839	0.7706	0.364
Mof_C 	C 	0.6823	0.5404	0.7941	0.074
Mof_C 	C 	0.706	0.5409	0.8349	-0.153
Mof_H 	H 	0.7142	0.5681	0.8483	0.122
Mof_C 	C 	0.8496	0.6085	0.6158	0.146
Mof_H 	H 	0.8766	0.6004	0.6021	0.038
Mof_C 	C 	0.77	0.5262	0.9182	0.223
Mof_H 	H 	0.9695	0.7415	0.8123	4.834
Mof_H 	H 	0.0162	0.7627	0.7993	4.926
Mof_H 	H 	0.0144	0.7177	0.827	5.041
Mof_H 	H 	0.9172	0.5268	0.9853	-0.503
Mof_O 	O 	0.8834	0.6385	0.7337	0.122
Mof_C 	C 	0.9053	0.6552	0.7021	-0.804
Mof_O 	O 	0.7198	0.9391	0.3961	-0.195
Mof_O 	O 	0.7294	0.9531	0.0464	-0.661
Mof_O 	O 	0.6534	0.9538	0.0458	-0.577
Mof_O 	O 	0.7708	0.8363	0.2181	-0.433
Mof_O 	O 	0.8102	0.8755	0.167	-0.614
Mof_O 	O 	0.8131	0.8794	0.2881	-0.448
Mof_O 	O 	0.8523	0.9189	0.2356	-0.714
Mof_O 	O 	0.5618	0.8488	0.1236	-0.55
Mof_N 	N 	0.6088	0.8463	0.1703	-0.862
Mof_H 	H 	0.7634	0.0257	0.4115	-0.008
Mof_C 	C 	0.6914	0.9412	0.0603	0.22
Mof_C 	C 	0.6911	0.9072	0.0988	-0.105
Mof_C 	C 	0.7316	0.8973	0.1207	-0.396
Mof_H 	H 	0.7587	0.9089	0.11	-0.084
Mof_C 	C 	0.7305	0.8695	0.1589	-0.16
Mof_C 	C 	0.6904	0.8528	0.1748	-0.354
Mof_H 	H 	0.6902	0.8342	0.2	0.155
Mof_C 	C 	0.6503	0.8635	0.1535	0.362
Mof_C 	C 	0.5701	0.8433	0.1634	1.557
Mof_C 	C 	0.5392	0.8055	0.2418	6.751
Mof_H 	H 	0.5668	0.7993	0.2555	-2.178
Mof_C 	C 	0.5378	0.8295	0.2011	-4.789
Mof_C 	C 	0.7736	0.8597	0.1835	0.181
Mof_C 	C 	0.8285	0.9161	0.2706	0.311
Mof_C 	C 	0.8177	0.9596	0.2941	-0.494
Mof_C 	C 	0.794	0.9591	0.3349	-0.405
Mof_H 	H 	0.7858	0.9319	0.3483	0.158
Mof_C 	C 	0.6504	0.8915	0.1158	-0.351
Mof_H 	H 	0.6234	0.8996	0.1021	0.138
Mof_C 	C 	0.73	0.9738	0.4182	-0.206
Mof_H 	H 	0.5305	0.7585	0.3123	-3.005
Mof_H 	H 	0.4838	0.7373	0.2993	-2.968
Mof_H 	H 	0.4856	0.7823	0.327	-3.011
Mof_H 	H 	0.5828	0.9732	0.4853	-1.139
Mof_O 	O 	0.6166	0.8615	0.2337	-0.451
Mof_C 	C 	0.5947	0.8448	0.2021	0.93
Mof_O 	O 	0.2198	0.4391	0.8961	0.047
Mof_O 	O 	0.2294	0.4531	0.5464	-0.323
Mof_O 	O 	0.1534	0.4538	0.5458	-0.326
Mof_O 	O 	0.2708	0.3363	0.7181	-0.395
Mof_O 	O 	0.3102	0.3755	0.667	-0.292
Mof_O 	O 	0.3131	0.3794	0.7881	-0.375
Mof_O 	O 	0.3523	0.4189	0.7356	-0.288
Mof_O 	O 	0.0618	0.3488	0.6236	0.393
Mof_N 	N 	0.1088	0.3463	0.6703	0.685
Mof_H 	H 	0.2634	0.5257	0.9115	0.26
Mof_C 	C 	0.1914	0.4412	0.5603	0.421
Mof_C 	C 	0.1911	0.4072	0.5988	-0.023
Mof_C 	C 	0.2316	0.3973	0.6207	0.238
Mof_H 	H 	0.2587	0.4089	0.61	0.127
Mof_C 	C 	0.2305	0.3695	0.6589	-0.01
Mof_C 	C 	0.1904	0.3528	0.6748	0.143
Mof_H 	H 	0.1902	0.3342	0.7	0.027
Mof_C 	C 	0.1503	0.3635	0.6535	-0.123
Mof_C 	C 	0.0701	0.3433	0.6634	-1.842
Mof_C 	C 	0.0392	0.3055	0.7418	-10.445
Mof_H 	H 	0.0668	0.2993	0.7555	3.497
Mof_C 	C 	0.0378	0.3295	0.7011	6.955
Mof_C 	C 	0.2736	0.3597	0.6835	0.451
Mof_C 	C 	0.3285	0.4161	0.7706	0.371
Mof_C 	C 	0.3177	0.4596	0.7941	0.037
Mof_C 	C 	0.294	0.4591	0.8349	-0.1
Mof_H 	H 	0.2858	0.4319	0.8483	0.088
Mof_C 	C 	0.1504	0.3915	0.6158	0.126
Mof_H 	H 	0.1234	0.3996	0.6021	0.077
Mof_C 	C 	0.23	0.4738	0.9182	-0.596
Mof_H 	H 	0.0305	0.2585	0.8123	4.519
Mof_H 	H 	0.9838	0.2373	0.7993	4.302
Mof_H 	H 	0.9856	0.2823	0.827	4.326
Mof_H 	H 	0.0828	0.4732	0.9853	2.475
Mof_O 	O 	0.1166	0.3615	0.7337	0.147
Mof_C 	C 	0.0947	0.3448	0.7021	-0.794
Mof_O 	O 	0.9391	0.2802	0.3961	-0.18
Mof_O 	O 	0.9531	0.2706	0.0464	-0.643
Mof_O 	O 	0.9538	0.3466	0.0458	-0.575
Mof_O 	O 	0.8363	0.2292	0.2181	-0.432
Mof_O 	O 	0.8755	0.1898	0.167	-0.588
Mof_O 	O 	0.8794	0.1869	0.2881	-0.433
Mof_O 	O 	0.9189	0.1477	0.2356	-0.663
Mof_O 	O 	0.8488	0.4382	0.1236	-0.551
Mof_N 	N 	0.8463	0.3912	0.1703	-0.863
Mof_H 	H 	0.0257	0.2366	0.4115	0.016
Mof_C 	C 	0.9412	0.3086	0.0603	0.216
Mof_C 	C 	0.9072	0.3089	0.0988	-0.093
Mof_C 	C 	0.8973	0.2684	0.1207	-0.401
Mof_H 	H 	0.9089	0.2413	0.11	-0.063
Mof_C 	C 	0.8695	0.2695	0.1589	-0.145
Mof_C 	C 	0.8528	0.3096	0.1748	-0.36
Mof_H 	H 	0.8342	0.3098	0.2	0.157
Mof_C 	C 	0.8635	0.3497	0.1535	0.367
Mof_C 	C 	0.8433	0.4299	0.1634	1.558
Mof_C 	C 	0.8055	0.4608	0.2418	6.751
Mof_H 	H 	0.7993	0.4332	0.2555	-2.179
Mof_C 	C 	0.8295	0.4622	0.2011	-4.79
Mof_C 	C 	0.8597	0.2264	0.1835	0.174
Mof_C 	C 	0.9161	0.1715	0.2706	0.306
Mof_C 	C 	0.9596	0.1823	0.2941	-0.448
Mof_C 	C 	0.9591	0.206	0.3349	-0.416
Mof_H 	H 	0.9319	0.2142	0.3483	0.174
Mof_C 	C 	0.8915	0.3496	0.1158	-0.356
Mof_H 	H 	0.8996	0.3766	0.1021	0.14
Mof_C 	C 	0.9738	0.27	0.4182	-0.241
Mof_H 	H 	0.7585	0.4695	0.3123	-3.005
Mof_H 	H 	0.7373	0.5162	0.2993	-2.968
Mof_H 	H 	0.7823	0.5144	0.327	-3.011
Mof_H 	H 	0.9732	0.4172	0.4853	-1.035
Mof_O 	O 	0.8615	0.3834	0.2337	-0.449
Mof_C 	C 	0.8448	0.4053	0.2021	0.929
Mof_O 	O 	0.4391	0.7802	0.8961	-0.184
Mof_O 	O 	0.4531	0.7706	0.5464	-0.322
Mof_O 	O 	0.4538	0.8466	0.5458	-0.36
Mof_O 	O 	0.3363	0.7292	0.7181	-0.394
Mof_O 	O 	0.3755	0.6898	0.667	-0.286
Mof_O 	O 	0.3794	0.6869	0.7881	-0.367
Mof_O 	O 	0.4189	0.6477	0.7356	-0.279
Mof_O 	O 	0.3488	0.9382	0.6236	0.248
Mof_N 	N 	0.3463	0.8912	0.6703	0.677
Mof_H 	H 	0.5257	0.7366	0.9115	0.089
Mof_C 	C 	0.4412	0.8086	0.5603	0.434
Mof_C 	C 	0.4072	0.8089	0.5988	-0.041
Mof_C 	C 	0.3973	0.7684	0.6207	0.26
Mof_H 	H 	0.4089	0.7413	0.61	0.128
Mof_C 	C 	0.3695	0.7695	0.6589	-0.014
Mof_C 	C 	0.3528	0.8096	0.6748	0.156
Mof_H 	H 	0.3342	0.8098	0.7	0.024
Mof_C 	C 	0.3635	0.8497	0.6535	-0.146
Mof_C 	C 	0.3433	0.9299	0.6634	-1.848
Mof_C 	C 	0.3055	0.9608	0.7418	-10.737
Mof_H 	H 	0.2993	0.9332	0.7555	3.565
Mof_C 	C 	0.3295	0.9622	0.7011	6.712
Mof_C 	C 	0.3597	0.7264	0.6835	0.459
Mof_C 	C 	0.4161	0.6715	0.7706	0.364
Mof_C 	C 	0.4596	0.6823	0.7941	0.073
Mof_C 	C 	0.4591	0.706	0.8349	-0.153
Mof_H 	H 	0.4319	0.7142	0.8483	0.12
Mof_C 	C 	0.3915	0.8496	0.6158	0.143
Mof_H 	H 	0.3996	0.8766	0.6021	0.037
Mof_C 	C 	0.4738	0.77	0.9182	0.223
Mof_H 	H 	0.2585	0.9695	0.8123	4.74
Mof_H 	H 	0.2373	0.0162	0.7993	4.835
Mof_H 	H 	0.2823	0.0144	0.827	4.947
Mof_H 	H 	0.4732	0.9172	0.9853	-0.504
Mof_O 	O 	0.3615	0.8834	0.7337	0.117
Mof_C 	C 	0.3448	0.9053	0.7021	-0.784
Mof_O 	O 	0.0609	0.7198	0.3961	-0.288
Mof_O 	O 	0.0469	0.7294	0.0464	-0.47
Mof_O 	O 	0.0462	0.6534	0.0458	-0.463
Mof_O 	O 	0.1637	0.7708	0.2181	-0.43
Mof_O 	O 	0.1245	0.8102	0.167	-0.568
Mof_O 	O 	0.1206	0.8131	0.2881	-0.421
Mof_O 	O 	0.0811	0.8523	0.2356	-0.594
Mof_O 	O 	0.1512	0.5618	0.1236	-0.645
Mof_N 	N 	0.1537	0.6088	0.1703	-0.849
Mof_H 	H 	0.9743	0.7634	0.4115	-0.037
Mof_C 	C 	0.0588	0.6914	0.0603	0.226
Mof_C 	C 	0.0928	0.6911	0.0988	-0.08
Mof_C 	C 	0.1027	0.7316	0.1207	-0.404
Mof_H 	H 	0.0911	0.7587	0.11	-0.029
Mof_C 	C 	0.1305	0.7305	0.1589	-0.138
Mof_C 	C 	0.1472	0.6904	0.1748	-0.354
Mof_H 	H 	0.1658	0.6902	0.2	0.154
Mof_C 	C 	0.1365	0.6503	0.1535	0.36
Mof_C 	C 	0.1567	0.5701	0.1634	1.545
Mof_C 	C 	0.1945	0.5392	0.2418	6.446
Mof_H 	H 	0.2007	0.5668	0.2555	-2.075
Mof_C 	C 	0.1705	0.5378	0.2011	-4.606
Mof_C 	C 	0.1403	0.7736	0.1835	0.172
Mof_C 	C 	0.0839	0.8285	0.2706	0.273
Mof_C 	C 	0.0404	0.8177	0.2941	-0.254
Mof_C 	C 	0.0409	0.794	0.3349	-0.118
Mof_H 	H 	0.0681	0.7858	0.3483	0.107
Mof_C 	C 	0.1085	0.6504	0.1158	-0.321
Mof_H 	H 	0.1004	0.6234	0.1021	0.1
Mof_C 	C 	0.0262	0.73	0.4182	0.454
Mof_H 	H 	0.2415	0.5305	0.3123	-2.839
Mof_H 	H 	0.2627	0.4838	0.2993	-2.805
Mof_H 	H 	0.2177	0.4856	0.327	-2.84
Mof_H 	H 	0.0268	0.5828	0.4853	-0.96
Mof_O 	O 	0.1385	0.6166	0.2337	-0.425
Mof_C 	C 	0.1552	0.5947	0.2021	0.91
Mof_O 	O 	0.5609	0.2198	0.8961	0.048
Mof_O 	O 	0.5469	0.2294	0.5464	-0.323
Mof_O 	O 	0.5462	0.1534	0.5458	-0.324
Mof_O 	O 	0.6637	0.2708	0.7181	-0.395
Mof_O 	O 	0.6245	0.3102	0.667	-0.292
Mof_O 	O 	0.6206	0.3131	0.7881	-0.373
Mof_O 	O 	0.5811	0.3523	0.7356	-0.288
Mof_O 	O 	0.6512	0.0618	0.6236	0.409
Mof_N 	N 	0.6537	0.1088	0.6703	0.704
Mof_H 	H 	0.4743	0.2634	0.9115	0.26
Mof_C 	C 	0.5588	0.1914	0.5603	0.42
Mof_C 	C 	0.5928	0.1911	0.5988	-0.024
Mof_C 	C 	0.6027	0.2316	0.6207	0.239
Mof_H 	H 	0.5911	0.2587	0.61	0.127
Mof_C 	C 	0.6305	0.2305	0.6589	-0.012
Mof_C 	C 	0.6472	0.1904	0.6748	0.146
Mof_H 	H 	0.6658	0.1902	0.7	0.026
Mof_C 	C 	0.6365	0.1503	0.6535	-0.13
Mof_C 	C 	0.6567	0.0701	0.6634	-1.887
Mof_C 	C 	0.6945	0.0392	0.7418	-10.66
Mof_H 	H 	0.7007	0.0668	0.7555	3.568
Mof_C 	C 	0.6705	0.0378	0.7011	7.107
Mof_C 	C 	0.6403	0.2736	0.6835	0.451
Mof_C 	C 	0.5839	0.3285	0.7706	0.371
Mof_C 	C 	0.5404	0.3177	0.7941	0.038
Mof_C 	C 	0.5409	0.294	0.8349	-0.1
Mof_H 	H 	0.5681	0.2858	0.8483	0.09
Mof_C 	C 	0.6085	0.1504	0.6158	0.128
Mof_H 	H 	0.6004	0.1234	0.6021	0.078
Mof_C 	C 	0.5262	0.23	0.9182	-0.596
Mof_H 	H 	0.7415	0.0305	0.8123	4.613
Mof_H 	H 	0.7627	0.9838	0.7993	4.392
Mof_H 	H 	0.7177	0.9856	0.827	4.42
Mof_H 	H 	0.5268	0.0828	0.9853	2.476
Mof_O 	O 	0.6385	0.1166	0.7337	0.152
Mof_C 	C 	0.6552	0.0947	0.7021	-0.815
Mof_O 	O 	0.7198	0.0609	0.6039	-0.288
Mof_O 	O 	0.7294	0.0469	0.9536	-0.505
Mof_O 	O 	0.6534	0.0462	0.9542	-0.497
Mof_O 	O 	0.7708	0.1637	0.7819	-0.431
Mof_O 	O 	0.8102	0.1245	0.833	-0.574
Mof_O 	O 	0.8131	0.1206	0.7119	-0.421
Mof_O 	O 	0.8523	0.0811	0.7644	-0.596
Mof_O 	O 	0.5618	0.1512	0.8764	-0.651
Mof_N 	N 	0.6088	0.1537	0.8297	-0.849
Mof_H 	H 	0.7634	0.9743	0.5885	-0.037
Mof_C 	C 	0.6914	0.0588	0.9397	0.232
Mof_C 	C 	0.6911	0.0928	0.9012	-0.096
Mof_C 	C 	0.7316	0.1027	0.8793	-0.397
Mof_H 	H 	0.7587	0.0911	0.89	-0.038
Mof_C 	C 	0.7305	0.1305	0.8411	-0.147
Mof_C 	C 	0.6904	0.1472	0.8252	-0.349
Mof_H 	H 	0.6902	0.1658	0.8	0.151
Mof_C 	C 	0.6503	0.1365	0.8465	0.353
Mof_C 	C 	0.5701	0.1567	0.8366	1.545
Mof_C 	C 	0.5392	0.1945	0.7582	6.442
Mof_H 	H 	0.5668	0.2007	0.7445	-2.074
Mof_C 	C 	0.5378	0.1705	0.7989	-4.603
Mof_C 	C 	0.7736	0.1403	0.8165	0.174
Mof_C 	C 	0.8285	0.0839	0.7294	0.274
Mof_C 	C 	0.8177	0.0404	0.7059	-0.255
Mof_C 	C 	0.794	0.0409	0.6651	-0.117
Mof_H 	H 	0.7858	0.0681	0.6517	0.106
Mof_C 	C 	0.6504	0.1085	0.8842	-0.315
Mof_H 	H 	0.6234	0.1004	0.8979	0.091
Mof_C 	C 	0.73	0.0262	0.5818	0.454
Mof_H 	H 	0.5305	0.2415	0.6877	-2.837
Mof_H 	H 	0.4838	0.2627	0.7007	-2.802
Mof_H 	H 	0.4856	0.2177	0.673	-2.837
Mof_H 	H 	0.5828	0.0268	0.5147	-0.96
Mof_O 	O 	0.6166	0.1385	0.7663	-0.424
Mof_C 	C 	0.5947	0.1552	0.7979	0.908
Mof_O 	O 	0.2198	0.5609	0.1039	0.059
Mof_O 	O 	0.2294	0.5469	0.4536	-0.323
Mof_O 	O 	0.1534	0.5462	0.4542	-0.324
Mof_O 	O 	0.2708	0.6637	0.2819	-0.394
Mof_O 	O 	0.3102	0.6245	0.333	-0.292
Mof_O 	O 	0.3131	0.6206	0.2119	-0.369
Mof_O 	O 	0.3523	0.5811	0.2644	-0.286
Mof_O 	O 	0.0618	0.6512	0.3764	0.41
Mof_N 	N 	0.1088	0.6537	0.3297	0.707
Mof_H 	H 	0.2634	0.4743	0.0885	0.272
Mof_C 	C 	0.1914	0.5588	0.4397	0.421
Mof_C 	C 	0.1911	0.5928	0.4012	-0.024
Mof_C 	C 	0.2316	0.6027	0.3793	0.239
Mof_H 	H 	0.2587	0.5911	0.39	0.127
Mof_C 	C 	0.2305	0.6305	0.3411	-0.012
Mof_C 	C 	0.1904	0.6472	0.3252	0.147
Mof_H 	H 	0.1902	0.6658	0.3	0.026
Mof_C 	C 	0.1503	0.6365	0.3465	-0.131
Mof_C 	C 	0.0701	0.6567	0.3366	-1.894
Mof_C 	C 	0.0392	0.6945	0.2582	-10.694
Mof_H 	H 	0.0668	0.7007	0.2445	3.579
Mof_C 	C 	0.0378	0.6705	0.2989	7.13
Mof_C 	C 	0.2736	0.6403	0.3165	0.451
Mof_C 	C 	0.3285	0.5839	0.2294	0.37
Mof_C 	C 	0.3177	0.5404	0.2059	0.044
Mof_C 	C 	0.294	0.5409	0.1651	-0.104
Mof_H 	H 	0.2858	0.5681	0.1517	0.096
Mof_C 	C 	0.1504	0.6085	0.3842	0.129
Mof_H 	H 	0.1234	0.6004	0.3979	0.078
Mof_C 	C 	0.23	0.5262	0.0818	-0.601
Mof_H 	H 	0.0305	0.7415	0.1877	4.627
Mof_H 	H 	0.9838	0.7627	0.2007	4.407
Mof_H 	H 	0.9856	0.7177	0.173	4.434
Mof_H 	H 	0.0828	0.5268	0.0147	2.575
Mof_O 	O 	0.1166	0.6385	0.2663	0.153
Mof_C 	C 	0.0947	0.6552	0.2979	-0.818
Mof_O 	O 	0.2802	0.9391	0.6039	-0.18
Mof_O 	O 	0.2706	0.9531	0.9536	-0.676
Mof_O 	O 	0.3466	0.9538	0.9542	-0.607
Mof_O 	O 	0.2292	0.8363	0.7819	-0.433
Mof_O 	O 	0.1898	0.8755	0.833	-0.594
Mof_O 	O 	0.1869	0.8794	0.7119	-0.433
Mof_O 	O 	0.1477	0.9189	0.7644	-0.665
Mof_O 	O 	0.4382	0.8488	0.8764	-0.556
Mof_N 	N 	0.3912	0.8463	0.8297	-0.863
Mof_H 	H 	0.2366	0.0257	0.5885	0.017
Mof_C 	C 	0.3086	0.9412	0.9397	0.221
Mof_C 	C 	0.3089	0.9072	0.9012	-0.108
Mof_C 	C 	0.2684	0.8973	0.8793	-0.394
Mof_H 	H 	0.2413	0.9089	0.89	-0.073
Mof_C 	C 	0.2695	0.8695	0.8411	-0.153
Mof_C 	C 	0.3096	0.8528	0.8252	-0.356
Mof_H 	H 	0.3098	0.8342	0.8	0.155
Mof_C 	C 	0.3497	0.8635	0.8465	0.36
Mof_C 	C 	0.4299	0.8433	0.8366	1.558
Mof_C 	C 	0.4608	0.8055	0.7582	6.747
Mof_H 	H 	0.4332	0.7993	0.7445	-2.178
Mof_C 	C 	0.4622	0.8295	0.7989	-4.788
Mof_C 	C 	0.2264	0.8597	0.8165	0.177
Mof_C 	C 	0.1715	0.9161	0.7294	0.307
Mof_C 	C 	0.1823	0.9596	0.7059	-0.448
Mof_C 	C 	0.206	0.9591	0.6651	-0.414
Mof_H 	H 	0.2142	0.9319	0.6517	0.173
Mof_C 	C 	0.3496	0.8915	0.8842	-0.35
Mof_H 	H 	0.3766	0.8996	0.8979	0.132
Mof_C 	C 	0.27	0.9738	0.5818	-0.24
Mof_H 	H 	0.4695	0.7585	0.6877	-3.003
Mof_H 	H 	0.5162	0.7373	0.7007	-2.966
Mof_H 	H 	0.5144	0.7823	0.673	-3.009
Mof_H 	H 	0.4172	0.9732	0.5147	-1.035
Mof_O 	O 	0.3834	0.8615	0.7663	-0.448
Mof_C 	C 	0.4053	0.8448	0.7979	0.927
Mof_O 	O 	0.7802	0.4391	0.1039	-0.174
Mof_O 	O 	0.7706	0.4531	0.4536	-0.322
Mof_O 	O 	0.8466	0.4538	0.4542	-0.36
Mof_O 	O 	0.7292	0.3363	0.2819	-0.393
Mof_O 	O 	0.6898	0.3755	0.333	-0.286
Mof_O 	O 	0.6869	0.3794	0.2119	-0.363
Mof_O 	O 	0.6477	0.4189	0.2644	-0.277
Mof_O 	O 	0.9382	0.3488	0.3764	0.249
Mof_N 	N 	0.8912	0.3463	0.3297	0.679
Mof_H 	H 	0.7366	0.5257	0.0885	0.102
Mof_C 	C 	0.8086	0.4412	0.4397	0.434
Mof_C 	C 	0.8089	0.4072	0.4012	-0.042
Mof_C 	C 	0.7684	0.3973	0.3793	0.26
Mof_H 	H 	0.7413	0.4089	0.39	0.128
Mof_C 	C 	0.7695	0.3695	0.3411	-0.014
Mof_C 	C 	0.8096	0.3528	0.3252	0.157
Mof_H 	H 	0.8098	0.3342	0.3	0.024
Mof_C 	C 	0.8497	0.3635	0.3465	-0.147
Mof_C 	C 	0.9299	0.3433	0.3366	-1.855
Mof_C 	C 	0.9608	0.3055	0.2582	-10.77
Mof_H 	H 	0.9332	0.2993	0.2445	3.575
Mof_C 	C 	0.9622	0.3295	0.2989	6.733
Mof_C 	C 	0.7264	0.3597	0.3165	0.459
Mof_C 	C 	0.6715	0.4161	0.2294	0.363
Mof_C 	C 	0.6823	0.4596	0.2059	0.079
Mof_C 	C 	0.706	0.4591	0.1651	-0.156
Mof_H 	H 	0.7142	0.4319	0.1517	0.126
Mof_C 	C 	0.8496	0.3915	0.3842	0.144
Mof_H 	H 	0.8766	0.3996	0.3979	0.036
Mof_C 	C 	0.77	0.4738	0.0818	0.218
Mof_H 	H 	0.9695	0.2585	0.1877	4.755
Mof_H 	H 	0.0162	0.2373	0.2007	4.851
Mof_H 	H 	0.0144	0.2823	0.173	4.962
Mof_H 	H 	0.9172	0.4732	0.0147	-0.407
Mof_O 	O 	0.8834	0.3615	0.2663	0.117
Mof_C 	C 	0.9053	0.3448	0.2979	-0.787
Mof_O 	O 	0.0609	0.2802	0.6039	-0.272
Mof_O 	O 	0.0469	0.2706	0.9536	-0.487
Mof_O 	O 	0.0462	0.3466	0.9542	-0.495
Mof_O 	O 	0.1637	0.2292	0.7819	-0.429
Mof_O 	O 	0.1245	0.1898	0.833	-0.549
Mof_O 	O 	0.1206	0.1869	0.7119	-0.406
Mof_O 	O 	0.0811	0.1477	0.7644	-0.545
Mof_O 	O 	0.1512	0.4382	0.8764	-0.651
Mof_N 	N 	0.1537	0.3912	0.8297	-0.85
Mof_H 	H 	0.9743	0.2366	0.5885	-0.012
Mof_C 	C 	0.0588	0.3086	0.9397	0.228
Mof_C 	C 	0.0928	0.3089	0.9012	-0.084
Mof_C 	C 	0.1027	0.2684	0.8793	-0.402
Mof_H 	H 	0.0911	0.2413	0.89	-0.018
Mof_C 	C 	0.1305	0.2695	0.8411	-0.132
Mof_C 	C 	0.1472	0.3096	0.8252	-0.356
Mof_H 	H 	0.1658	0.3098	0.8	0.154
Mof_C 	C 	0.1365	0.3497	0.8465	0.358
Mof_C 	C 	0.1567	0.4299	0.8366	1.546
Mof_C 	C 	0.1945	0.4608	0.7582	6.442
Mof_H 	H 	0.2007	0.4332	0.7445	-2.074
Mof_C 	C 	0.1705	0.4622	0.7989	-4.604
Mof_C 	C 	0.1403	0.2264	0.8165	0.168
Mof_C 	C 	0.0839	0.1715	0.7294	0.27
Mof_C 	C 	0.0404	0.1823	0.7059	-0.209
Mof_C 	C 	0.0409	0.206	0.6651	-0.128
Mof_H 	H 	0.0681	0.2142	0.6517	0.123
Mof_C 	C 	0.1085	0.3496	0.8842	-0.321
Mof_H 	H 	0.1004	0.3766	0.8979	0.093
Mof_C 	C 	0.0262	0.27	0.5818	0.418
Mof_H 	H 	0.2415	0.4695	0.6877	-2.837
Mof_H 	H 	0.2627	0.5162	0.7007	-2.802
Mof_H 	H 	0.2177	0.5144	0.673	-2.837
Mof_H 	H 	0.0268	0.4172	0.5147	-0.856
Mof_O 	O 	0.1385	0.3834	0.7663	-0.422
Mof_C 	C 	0.1552	0.4053	0.7979	0.907
Mof_O 	O 	0.5609	0.7802	0.1039	-0.172
Mof_O 	O 	0.5469	0.7706	0.4536	-0.322
Mof_O 	O 	0.5462	0.8466	0.4542	-0.357
Mof_O 	O 	0.6637	0.7292	0.2819	-0.393
Mof_O 	O 	0.6245	0.6898	0.333	-0.286
Mof_O 	O 	0.6206	0.6869	0.2119	-0.361
Mof_O 	O 	0.5811	0.6477	0.2644	-0.277
Mof_O 	O 	0.6512	0.9382	0.3764	0.265
Mof_N 	N 	0.6537	0.8912	0.3297	0.699
Mof_H 	H 	0.4743	0.7366	0.0885	0.101
Mof_C 	C 	0.5588	0.8086	0.4397	0.434
Mof_C 	C 	0.5928	0.8089	0.4012	-0.043
Mof_C 	C 	0.6027	0.7684	0.3793	0.261
Mof_H 	H 	0.5911	0.7413	0.39	0.127
Mof_C 	C 	0.6305	0.7695	0.3411	-0.017
Mof_C 	C 	0.6472	0.8096	0.3252	0.16
Mof_H 	H 	0.6658	0.8098	0.3	0.022
Mof_C 	C 	0.6365	0.8497	0.3465	-0.154
Mof_C 	C 	0.6567	0.9299	0.3366	-1.9
Mof_C 	C 	0.6945	0.9608	0.2582	-10.987
Mof_H 	H 	0.7007	0.9332	0.2445	3.647
Mof_C 	C 	0.6705	0.9622	0.2989	6.886
Mof_C 	C 	0.6403	0.7264	0.3165	0.459
Mof_C 	C 	0.5839	0.6715	0.2294	0.363
Mof_C 	C 	0.5404	0.6823	0.2059	0.08
Mof_C 	C 	0.5409	0.706	0.1651	-0.156
Mof_H 	H 	0.5681	0.7142	0.1517	0.128
Mof_C 	C 	0.6085	0.8496	0.3842	0.146
Mof_H 	H 	0.6004	0.8766	0.3979	0.037
Mof_C 	C 	0.5262	0.77	0.0818	0.218
Mof_H 	H 	0.7415	0.9695	0.1877	4.849
Mof_H 	H 	0.7627	0.0162	0.2007	4.942
Mof_H 	H 	0.7177	0.0144	0.173	5.057
Mof_H 	H 	0.5268	0.9172	0.0147	-0.407
Mof_O 	O 	0.6385	0.8834	0.2663	0.123
Mof_C 	C 	0.6552	0.9053	0.2979	-0.808
Mof_O 	O 	0.9391	0.7198	0.6039	-0.195
Mof_O 	O 	0.9531	0.7294	0.9536	-0.694
Mof_O 	O 	0.9538	0.6534	0.9542	-0.608
Mof_O 	O 	0.8363	0.7708	0.7819	-0.435
Mof_O 	O 	0.8755	0.8102	0.833	-0.62
Mof_O 	O 	0.8794	0.8131	0.7119	-0.448
Mof_O 	O 	0.9189	0.8523	0.7644	-0.716
Mof_O 	O 	0.8488	0.5618	0.8764	-0.556
Mof_N 	N 	0.8463	0.6088	0.8297	-0.862
Mof_H 	H 	0.0257	0.7634	0.5885	-0.008
Mof_C 	C 	0.9412	0.6914	0.9397	0.225
Mof_C 	C 	0.9072	0.6911	0.9012	-0.12
Mof_C 	C 	0.8973	0.7316	0.8793	-0.389
Mof_H 	H 	0.9089	0.7587	0.89	-0.093
Mof_C 	C 	0.8695	0.7305	0.8411	-0.168
Mof_C 	C 	0.8528	0.6904	0.8252	-0.35
Mof_H 	H 	0.8342	0.6902	0.8	0.153
Mof_C 	C 	0.8635	0.6503	0.8465	0.355
Mof_C 	C 	0.8433	0.5701	0.8366	1.558
Mof_C 	C 	0.8055	0.5392	0.7582	6.747
Mof_H 	H 	0.7993	0.5668	0.7445	-2.177
Mof_C 	C 	0.8295	0.5378	0.7989	-4.787
Mof_C 	C 	0.8597	0.7736	0.8165	0.183
Mof_C 	C 	0.9161	0.8285	0.7294	0.312
Mof_C 	C 	0.9596	0.8177	0.7059	-0.494
Mof_C 	C 	0.9591	0.794	0.6651	-0.404
Mof_H 	H 	0.9319	0.7858	0.6517	0.157
Mof_C 	C 	0.8915	0.6504	0.8842	-0.345
Mof_H 	H 	0.8996	0.6234	0.8979	0.13
Mof_C 	C 	0.9738	0.73	0.5818	-0.205
Mof_H 	H 	0.7585	0.5305	0.6877	-3.003
Mof_H 	H 	0.7373	0.4838	0.7007	-2.966
Mof_H 	H 	0.7823	0.4856	0.673	-3.009
Mof_H 	H 	0.9732	0.5828	0.5147	-1.139
Mof_O 	O 	0.8615	0.6166	0.7663	-0.45
Mof_C 	C 	0.8448	0.5947	0.7979	0.929
Mof_O 	O 	0.4391	0.2198	0.1039	0.058
Mof_O 	O 	0.4531	0.2294	0.4536	-0.323
Mof_O 	O 	0.4538	0.1534	0.4542	-0.326
Mof_O 	O 	0.3363	0.2708	0.2819	-0.394
Mof_O 	O 	0.3755	0.3102	0.333	-0.292
Mof_O 	O 	0.3794	0.3131	0.2119	-0.371
Mof_O 	O 	0.4189	0.3523	0.2644	-0.287
Mof_O 	O 	0.3488	0.0618	0.3764	0.395
Mof_N 	N 	0.3463	0.1088	0.3297	0.688
Mof_H 	H 	0.5257	0.2634	0.0885	0.273
Mof_C 	C 	0.4412	0.1914	0.4397	0.421
Mof_C 	C 	0.4072	0.1911	0.4012	-0.023
Mof_C 	C 	0.3973	0.2316	0.3793	0.238
Mof_H 	H 	0.4089	0.2587	0.39	0.127
Mof_C 	C 	0.3695	0.2305	0.3411	-0.01
Mof_C 	C 	0.3528	0.1904	0.3252	0.143
Mof_H 	H 	0.3342	0.1902	0.3	0.027
Mof_C 	C 	0.3635	0.1503	0.3465	-0.124
Mof_C 	C 	0.3433	0.0701	0.3366	-1.849
Mof_C 	C 	0.3055	0.0392	0.2582	-10.477
Mof_H 	H 	0.2993	0.0668	0.2445	3.507
Mof_C 	C 	0.3295	0.0378	0.2989	6.977
Mof_C 	C 	0.3597	0.2736	0.3165	0.451
Mof_C 	C 	0.4161	0.3285	0.2294	0.37
Mof_C 	C 	0.4596	0.3177	0.2059	0.043
Mof_C 	C 	0.4591	0.294	0.1651	-0.104
Mof_H 	H 	0.4319	0.2858	0.1517	0.094
Mof_C 	C 	0.3915	0.1504	0.3842	0.127
Mof_H 	H 	0.3996	0.1234	0.3979	0.077
Mof_C 	C 	0.4738	0.23	0.0818	-0.601
Mof_H 	H 	0.2585	0.0305	0.1877	4.533
Mof_H 	H 	0.2373	0.9838	0.2007	4.316
Mof_H 	H 	0.2823	0.9856	0.173	4.339
Mof_H 	H 	0.4732	0.0828	0.0147	2.575
Mof_O 	O 	0.3615	0.1166	0.2663	0.147
Mof_C 	C 	0.3448	0.0947	0.2979	-0.797
Mof_O 	O 	0.7198	0.9391	0.6039	-0.195
Mof_O 	O 	0.7294	0.9531	0.9536	-0.694
Mof_O 	O 	0.6534	0.9538	0.9542	-0.608
Mof_O 	O 	0.7708	0.8363	0.7819	-0.435
Mof_O 	O 	0.8102	0.8755	0.833	-0.62
Mof_O 	O 	0.8131	0.8794	0.7119	-0.448
Mof_O 	O 	0.8523	0.9189	0.7644	-0.716
Mof_O 	O 	0.5618	0.8488	0.8764	-0.556
Mof_N 	N 	0.6088	0.8463	0.8297	-0.862
Mof_H 	H 	0.7634	0.0257	0.5885	-0.008
Mof_C 	C 	0.6914	0.9412	0.9397	0.225
Mof_C 	C 	0.6911	0.9072	0.9012	-0.12
Mof_C 	C 	0.7316	0.8973	0.8793	-0.389
Mof_H 	H 	0.7587	0.9089	0.89	-0.093
Mof_C 	C 	0.7305	0.8695	0.8411	-0.168
Mof_C 	C 	0.6904	0.8528	0.8252	-0.35
Mof_H 	H 	0.6902	0.8342	0.8	0.153
Mof_C 	C 	0.6503	0.8635	0.8465	0.355
Mof_C 	C 	0.5701	0.8433	0.8366	1.558
Mof_C 	C 	0.5392	0.8055	0.7582	6.747
Mof_H 	H 	0.5668	0.7993	0.7445	-2.177
Mof_C 	C 	0.5378	0.8295	0.7989	-4.787
Mof_C 	C 	0.7736	0.8597	0.8165	0.183
Mof_C 	C 	0.8285	0.9161	0.7294	0.312
Mof_C 	C 	0.8177	0.9596	0.7059	-0.494
Mof_C 	C 	0.794	0.9591	0.6651	-0.404
Mof_H 	H 	0.7858	0.9319	0.6517	0.157
Mof_C 	C 	0.6504	0.8915	0.8842	-0.345
Mof_H 	H 	0.6234	0.8996	0.8979	0.13
Mof_C 	C 	0.73	0.9738	0.5818	-0.205
Mof_H 	H 	0.5305	0.7585	0.6877	-3.003
Mof_H 	H 	0.4838	0.7373	0.7007	-2.966
Mof_H 	H 	0.4856	0.7823	0.673	-3.009
Mof_H 	H 	0.5828	0.9732	0.5147	-1.139
Mof_O 	O 	0.6166	0.8615	0.7663	-0.45
Mof_C 	C 	0.5947	0.8448	0.7979	0.929
Mof_O 	O 	0.2198	0.4391	0.1039	0.058
Mof_O 	O 	0.2294	0.4531	0.4536	-0.323
Mof_O 	O 	0.1534	0.4538	0.4542	-0.326
Mof_O 	O 	0.2708	0.3363	0.2819	-0.394
Mof_O 	O 	0.3102	0.3755	0.333	-0.292
Mof_O 	O 	0.3131	0.3794	0.2119	-0.371
Mof_O 	O 	0.3523	0.4189	0.2644	-0.287
Mof_O 	O 	0.0618	0.3488	0.3764	0.395
Mof_N 	N 	0.1088	0.3463	0.3297	0.688
Mof_H 	H 	0.2634	0.5257	0.0885	0.273
Mof_C 	C 	0.1914	0.4412	0.4397	0.421
Mof_C 	C 	0.1911	0.4072	0.4012	-0.023
Mof_C 	C 	0.2316	0.3973	0.3793	0.238
Mof_H 	H 	0.2587	0.4089	0.39	0.127
Mof_C 	C 	0.2305	0.3695	0.3411	-0.01
Mof_C 	C 	0.1904	0.3528	0.3252	0.143
Mof_H 	H 	0.1902	0.3342	0.3	0.027
Mof_C 	C 	0.1503	0.3635	0.3465	-0.124
Mof_C 	C 	0.0701	0.3433	0.3366	-1.849
Mof_C 	C 	0.0392	0.3055	0.2582	-10.477
Mof_H 	H 	0.0668	0.2993	0.2445	3.507
Mof_C 	C 	0.0378	0.3295	0.2989	6.977
Mof_C 	C 	0.2736	0.3597	0.3165	0.451
Mof_C 	C 	0.3285	0.4161	0.2294	0.37
Mof_C 	C 	0.3177	0.4596	0.2059	0.043
Mof_C 	C 	0.294	0.4591	0.1651	-0.104
Mof_H 	H 	0.2858	0.4319	0.1517	0.094
Mof_C 	C 	0.1504	0.3915	0.3842	0.127
Mof_H 	H 	0.1234	0.3996	0.3979	0.077
Mof_C 	C 	0.23	0.4738	0.0818	-0.601
Mof_H 	H 	0.0305	0.2585	0.1877	4.533
Mof_H 	H 	0.9838	0.2373	0.2007	4.316
Mof_H 	H 	0.9856	0.2823	0.173	4.339
Mof_H 	H 	0.0828	0.4732	0.0147	2.575
Mof_O 	O 	0.1166	0.3615	0.2663	0.147
Mof_C 	C 	0.0947	0.3448	0.2979	-0.797
Mof_O 	O 	0.2802	0.0609	0.6039	-0.272
Mof_O 	O 	0.2706	0.0469	0.9536	-0.487
Mof_O 	O 	0.3466	0.0462	0.9542	-0.495
Mof_O 	O 	0.2292	0.1637	0.7819	-0.429
Mof_O 	O 	0.1898	0.1245	0.833	-0.549
Mof_O 	O 	0.1869	0.1206	0.7119	-0.406
Mof_O 	O 	0.1477	0.0811	0.7644	-0.545
Mof_O 	O 	0.4382	0.1512	0.8764	-0.651
Mof_N 	N 	0.3912	0.1537	0.8297	-0.85
Mof_H 	H 	0.2366	0.9743	0.5885	-0.012
Mof_C 	C 	0.3086	0.0588	0.9397	0.228
Mof_C 	C 	0.3089	0.0928	0.9012	-0.084
Mof_C 	C 	0.2684	0.1027	0.8793	-0.402
Mof_H 	H 	0.2413	0.0911	0.89	-0.018
Mof_C 	C 	0.2695	0.1305	0.8411	-0.132
Mof_C 	C 	0.3096	0.1472	0.8252	-0.356
Mof_H 	H 	0.3098	0.1658	0.8	0.154
Mof_C 	C 	0.3497	0.1365	0.8465	0.358
Mof_C 	C 	0.4299	0.1567	0.8366	1.546
Mof_C 	C 	0.4608	0.1945	0.7582	6.442
Mof_H 	H 	0.4332	0.2007	0.7445	-2.074
Mof_C 	C 	0.4622	0.1705	0.7989	-4.604
Mof_C 	C 	0.2264	0.1403	0.8165	0.168
Mof_C 	C 	0.1715	0.0839	0.7294	0.27
Mof_C 	C 	0.1823	0.0404	0.7059	-0.209
Mof_C 	C 	0.206	0.0409	0.6651	-0.128
Mof_H 	H 	0.2142	0.0681	0.6517	0.123
Mof_C 	C 	0.3496	0.1085	0.8842	-0.321
Mof_H 	H 	0.3766	0.1004	0.8979	0.093
Mof_C 	C 	0.27	0.0262	0.5818	0.418
Mof_H 	H 	0.4695	0.2415	0.6877	-2.837
Mof_H 	H 	0.5162	0.2627	0.7007	-2.802
Mof_H 	H 	0.5144	0.2177	0.673	-2.837
Mof_H 	H 	0.4172	0.0268	0.5147	-0.856
Mof_O 	O 	0.3834	0.1385	0.7663	-0.422
Mof_C 	C 	0.4053	0.1552	0.7979	0.907
Mof_O 	O 	0.7802	0.5609	0.1039	-0.172
Mof_O 	O 	0.7706	0.5469	0.4536	-0.322
Mof_O 	O 	0.8466	0.5462	0.4542	-0.357
Mof_O 	O 	0.7292	0.6637	0.2819	-0.393
Mof_O 	O 	0.6898	0.6245	0.333	-0.286
Mof_O 	O 	0.6869	0.6206	0.2119	-0.361
Mof_O 	O 	0.6477	0.5811	0.2644	-0.277
Mof_O 	O 	0.9382	0.6512	0.3764	0.265
Mof_N 	N 	0.8912	0.6537	0.3297	0.699
Mof_H 	H 	0.7366	0.4743	0.0885	0.101
Mof_C 	C 	0.8086	0.5588	0.4397	0.434
Mof_C 	C 	0.8089	0.5928	0.4012	-0.043
Mof_C 	C 	0.7684	0.6027	0.3793	0.261
Mof_H 	H 	0.7413	0.5911	0.39	0.127
Mof_C 	C 	0.7695	0.6305	0.3411	-0.017
Mof_C 	C 	0.8096	0.6472	0.3252	0.16
Mof_H 	H 	0.8098	0.6658	0.3	0.022
Mof_C 	C 	0.8497	0.6365	0.3465	-0.154
Mof_C 	C 	0.9299	0.6567	0.3366	-1.9
Mof_C 	C 	0.9608	0.6945	0.2582	-10.987
Mof_H 	H 	0.9332	0.7007	0.2445	3.647
Mof_C 	C 	0.9622	0.6705	0.2989	6.886
Mof_C 	C 	0.7264	0.6403	0.3165	0.459
Mof_C 	C 	0.6715	0.5839	0.2294	0.363
Mof_C 	C 	0.6823	0.5404	0.2059	0.08
Mof_C 	C 	0.706	0.5409	0.1651	-0.156
Mof_H 	H 	0.7142	0.5681	0.1517	0.128
Mof_C 	C 	0.8496	0.6085	0.3842	0.146
Mof_H 	H 	0.8766	0.6004	0.3979	0.037
Mof_C 	C 	0.77	0.5262	0.0818	0.218
Mof_H 	H 	0.9695	0.7415	0.1877	4.849
Mof_H 	H 	0.0162	0.7627	0.2007	4.942
Mof_H 	H 	0.0144	0.7177	0.173	5.057
Mof_H 	H 	0.9172	0.5268	0.0147	-0.407
Mof_O 	O 	0.8834	0.6385	0.2663	0.123
Mof_C 	C 	0.9053	0.6552	0.2979	-0.808
Mof_O 	O 	0.0609	0.7198	0.6039	-0.288
Mof_O 	O 	0.0469	0.7294	0.9536	-0.505
Mof_O 	O 	0.0462	0.6534	0.9542	-0.497
Mof_O 	O 	0.1637	0.7708	0.7819	-0.431
Mof_O 	O 	0.1245	0.8102	0.833	-0.574
Mof_O 	O 	0.1206	0.8131	0.7119	-0.421
Mof_O 	O 	0.0811	0.8523	0.7644	-0.596
Mof_O 	O 	0.1512	0.5618	0.8764	-0.651
Mof_N 	N 	0.1537	0.6088	0.8297	-0.849
Mof_H 	H 	0.9743	0.7634	0.5885	-0.037
Mof_C 	C 	0.0588	0.6914	0.9397	0.232
Mof_C 	C 	0.0928	0.6911	0.9012	-0.096
Mof_C 	C 	0.1027	0.7316	0.8793	-0.397
Mof_H 	H 	0.0911	0.7587	0.89	-0.038
Mof_C 	C 	0.1305	0.7305	0.8411	-0.147
Mof_C 	C 	0.1472	0.6904	0.8252	-0.349
Mof_H 	H 	0.1658	0.6902	0.8	0.151
Mof_C 	C 	0.1365	0.6503	0.8465	0.353
Mof_C 	C 	0.1567	0.5701	0.8366	1.545
Mof_C 	C 	0.1945	0.5392	0.7582	6.442
Mof_H 	H 	0.2007	0.5668	0.7445	-2.074
Mof_C 	C 	0.1705	0.5378	0.7989	-4.603
Mof_C 	C 	0.1403	0.7736	0.8165	0.174
Mof_C 	C 	0.0839	0.8285	0.7294	0.274
Mof_C 	C 	0.0404	0.8177	0.7059	-0.255
Mof_C 	C 	0.0409	0.794	0.6651	-0.117
Mof_H 	H 	0.0681	0.7858	0.6517	0.106
Mof_C 	C 	0.1085	0.6504	0.8842	-0.315
Mof_H 	H 	0.1004	0.6234	0.8979	0.091
Mof_C 	C 	0.0262	0.73	0.5818	0.454
Mof_H 	H 	0.2415	0.5305	0.6877	-2.837
Mof_H 	H 	0.2627	0.4838	0.7007	-2.802
Mof_H 	H 	0.2177	0.4856	0.673	-2.837
Mof_H 	H 	0.0268	0.5828	0.5147	-0.96
Mof_O 	O 	0.1385	0.6166	0.7663	-0.424
Mof_C 	C 	0.1552	0.5947	0.7979	0.908
Mof_O 	O 	0.5609	0.2198	0.1039	0.059
Mof_O 	O 	0.5469	0.2294	0.4536	-0.323
Mof_O 	O 	0.5462	0.1534	0.4542	-0.324
Mof_O 	O 	0.6637	0.2708	0.2819	-0.394
Mof_O 	O 	0.6245	0.3102	0.333	-0.292
Mof_O 	O 	0.6206	0.3131	0.2119	-0.369
Mof_O 	O 	0.5811	0.3523	0.2644	-0.286
Mof_O 	O 	0.6512	0.0618	0.3764	0.41
Mof_N 	N 	0.6537	0.1088	0.3297	0.707
Mof_H 	H 	0.4743	0.2634	0.0885	0.272
Mof_C 	C 	0.5588	0.1914	0.4397	0.421
Mof_C 	C 	0.5928	0.1911	0.4012	-0.024
Mof_C 	C 	0.6027	0.2316	0.3793	0.239
Mof_H 	H 	0.5911	0.2587	0.39	0.127
Mof_C 	C 	0.6305	0.2305	0.3411	-0.012
Mof_C 	C 	0.6472	0.1904	0.3252	0.147
Mof_H 	H 	0.6658	0.1902	0.3	0.026
Mof_C 	C 	0.6365	0.1503	0.3465	-0.131
Mof_C 	C 	0.6567	0.0701	0.3366	-1.894
Mof_C 	C 	0.6945	0.0392	0.2582	-10.694
Mof_H 	H 	0.7007	0.0668	0.2445	3.579
Mof_C 	C 	0.6705	0.0378	0.2989	7.13
Mof_C 	C 	0.6403	0.2736	0.3165	0.451
Mof_C 	C 	0.5839	0.3285	0.2294	0.37
Mof_C 	C 	0.5404	0.3177	0.2059	0.044
Mof_C 	C 	0.5409	0.294	0.1651	-0.104
Mof_H 	H 	0.5681	0.2858	0.1517	0.096
Mof_C 	C 	0.6085	0.1504	0.3842	0.129
Mof_H 	H 	0.6004	0.1234	0.3979	0.078
Mof_C 	C 	0.5262	0.23	0.0818	-0.601
Mof_H 	H 	0.7415	0.0305	0.1877	4.627
Mof_H 	H 	0.7627	0.9838	0.2007	4.407
Mof_H 	H 	0.7177	0.9856	0.173	4.434
Mof_H 	H 	0.5268	0.0828	0.0147	2.575
Mof_O 	O 	0.6385	0.1166	0.2663	0.153
Mof_C 	C 	0.6552	0.0947	0.2979	-0.818
Mof_O 	O 	0.9391	0.2802	0.6039	-0.18
Mof_O 	O 	0.9531	0.2706	0.9536	-0.676
Mof_O 	O 	0.9538	0.3466	0.9542	-0.607
Mof_O 	O 	0.8363	0.2292	0.7819	-0.433
Mof_O 	O 	0.8755	0.1898	0.833	-0.594
Mof_O 	O 	0.8794	0.1869	0.7119	-0.433
Mof_O 	O 	0.9189	0.1477	0.7644	-0.665
Mof_O 	O 	0.8488	0.4382	0.8764	-0.556
Mof_N 	N 	0.8463	0.3912	0.8297	-0.863
Mof_H 	H 	0.0257	0.2366	0.5885	0.017
Mof_C 	C 	0.9412	0.3086	0.9397	0.221
Mof_C 	C 	0.9072	0.3089	0.9012	-0.108
Mof_C 	C 	0.8973	0.2684	0.8793	-0.394
Mof_H 	H 	0.9089	0.2413	0.89	-0.073
Mof_C 	C 	0.8695	0.2695	0.8411	-0.153
Mof_C 	C 	0.8528	0.3096	0.8252	-0.356
Mof_H 	H 	0.8342	0.3098	0.8	0.155
Mof_C 	C 	0.8635	0.3497	0.8465	0.36
Mof_C 	C 	0.8433	0.4299	0.8366	1.558
Mof_C 	C 	0.8055	0.4608	0.7582	6.747
Mof_H 	H 	0.7993	0.4332	0.7445	-2.178
Mof_C 	C 	0.8295	0.4622	0.7989	-4.788
Mof_C 	C 	0.8597	0.2264	0.8165	0.177
Mof_C 	C 	0.9161	0.1715	0.7294	0.307
Mof_C 	C 	0.9596	0.1823	0.7059	-0.448
Mof_C 	C 	0.9591	0.206	0.6651	-0.414
Mof_H 	H 	0.9319	0.2142	0.6517	0.173
Mof_C 	C 	0.8915	0.3496	0.8842	-0.35
Mof_H 	H 	0.8996	0.3766	0.8979	0.132
Mof_C 	C 	0.9738	0.27	0.5818	-0.24
Mof_H 	H 	0.7585	0.4695	0.6877	-3.003
Mof_H 	H 	0.7373	0.5162	0.7007	-2.966
Mof_H 	H 	0.7823	0.5144	0.673	-3.009
Mof_H 	H 	0.9732	0.4172	0.5147	-1.035
Mof_O 	O 	0.8615	0.3834	0.7663	-0.448
Mof_C 	C 	0.8448	0.4053	0.7979	0.927
Mof_O 	O 	0.4391	0.7802	0.1039	-0.174
Mof_O 	O 	0.4531	0.7706	0.4536	-0.322
Mof_O 	O 	0.4538	0.8466	0.4542	-0.36
Mof_O 	O 	0.3363	0.7292	0.2819	-0.393
Mof_O 	O 	0.3755	0.6898	0.333	-0.286
Mof_O 	O 	0.3794	0.6869	0.2119	-0.363
Mof_O 	O 	0.4189	0.6477	0.2644	-0.277
Mof_O 	O 	0.3488	0.9382	0.3764	0.249
Mof_N 	N 	0.3463	0.8912	0.3297	0.679
Mof_H 	H 	0.5257	0.7366	0.0885	0.102
Mof_C 	C 	0.4412	0.8086	0.4397	0.434
Mof_C 	C 	0.4072	0.8089	0.4012	-0.042
Mof_C 	C 	0.3973	0.7684	0.3793	0.26
Mof_H 	H 	0.4089	0.7413	0.39	0.128
Mof_C 	C 	0.3695	0.7695	0.3411	-0.014
Mof_C 	C 	0.3528	0.8096	0.3252	0.157
Mof_H 	H 	0.3342	0.8098	0.3	0.024
Mof_C 	C 	0.3635	0.8497	0.3465	-0.147
Mof_C 	C 	0.3433	0.9299	0.3366	-1.855
Mof_C 	C 	0.3055	0.9608	0.2582	-10.77
Mof_H 	H 	0.2993	0.9332	0.2445	3.575
Mof_C 	C 	0.3295	0.9622	0.2989	6.733
Mof_C 	C 	0.3597	0.7264	0.3165	0.459
Mof_C 	C 	0.4161	0.6715	0.2294	0.363
Mof_C 	C 	0.4596	0.6823	0.2059	0.079
Mof_C 	C 	0.4591	0.706	0.1651	-0.156
Mof_H 	H 	0.4319	0.7142	0.1517	0.126
Mof_C 	C 	0.3915	0.8496	0.3842	0.144
Mof_H 	H 	0.3996	0.8766	0.3979	0.036
Mof_C 	C 	0.4738	0.77	0.0818	0.218
Mof_H 	H 	0.2585	0.9695	0.1877	4.755
Mof_H 	H 	0.2373	0.0162	0.2007	4.851
Mof_H 	H 	0.2823	0.0144	0.173	4.962
Mof_H 	H 	0.4732	0.9172	0.0147	-0.407
Mof_O 	O 	0.3615	0.8834	0.2663	0.117
Mof_C 	C 	0.3448	0.9053	0.2979	-0.787
Mof_O 	O 	0.2802	0.9391	0.3961	-0.18
Mof_O 	O 	0.2706	0.9531	0.0464	-0.643
Mof_O 	O 	0.3466	0.9538	0.0458	-0.575
Mof_O 	O 	0.2292	0.8363	0.2181	-0.432
Mof_O 	O 	0.1898	0.8755	0.167	-0.588
Mof_O 	O 	0.1869	0.8794	0.2881	-0.433
Mof_O 	O 	0.1477	0.9189	0.2356	-0.663
Mof_O 	O 	0.4382	0.8488	0.1236	-0.551
Mof_N 	N 	0.3912	0.8463	0.1703	-0.863
Mof_H 	H 	0.2366	0.0257	0.4115	0.016
Mof_C 	C 	0.3086	0.9412	0.0603	0.216
Mof_C 	C 	0.3089	0.9072	0.0988	-0.093
Mof_C 	C 	0.2684	0.8973	0.1207	-0.401
Mof_H 	H 	0.2413	0.9089	0.11	-0.063
Mof_C 	C 	0.2695	0.8695	0.1589	-0.145
Mof_C 	C 	0.3096	0.8528	0.1748	-0.36
Mof_H 	H 	0.3098	0.8342	0.2	0.157
Mof_C 	C 	0.3497	0.8635	0.1535	0.367
Mof_C 	C 	0.4299	0.8433	0.1634	1.558
Mof_C 	C 	0.4608	0.8055	0.2418	6.751
Mof_H 	H 	0.4332	0.7993	0.2555	-2.179
Mof_C 	C 	0.4622	0.8295	0.2011	-4.79
Mof_C 	C 	0.2264	0.8597	0.1835	0.174
Mof_C 	C 	0.1715	0.9161	0.2706	0.306
Mof_C 	C 	0.1823	0.9596	0.2941	-0.448
Mof_C 	C 	0.206	0.9591	0.3349	-0.416
Mof_H 	H 	0.2142	0.9319	0.3483	0.174
Mof_C 	C 	0.3496	0.8915	0.1158	-0.356
Mof_H 	H 	0.3766	0.8996	0.1021	0.14
Mof_C 	C 	0.27	0.9738	0.4182	-0.241
Mof_H 	H 	0.4695	0.7585	0.3123	-3.005
Mof_H 	H 	0.5162	0.7373	0.2993	-2.968
Mof_H 	H 	0.5144	0.7823	0.327	-3.011
Mof_H 	H 	0.4172	0.9732	0.4853	-1.035
Mof_O 	O 	0.3834	0.8615	0.2337	-0.449
Mof_C 	C 	0.4053	0.8448	0.2021	0.929
Mof_O 	O 	0.7802	0.4391	0.8961	-0.184
Mof_O 	O 	0.7706	0.4531	0.5464	-0.322
Mof_O 	O 	0.8466	0.4538	0.5458	-0.36
Mof_O 	O 	0.7292	0.3363	0.7181	-0.394
Mof_O 	O 	0.6898	0.3755	0.667	-0.286
Mof_O 	O 	0.6869	0.3794	0.7881	-0.367
Mof_O 	O 	0.6477	0.4189	0.7356	-0.279
Mof_O 	O 	0.9382	0.3488	0.6236	0.248
Mof_N 	N 	0.8912	0.3463	0.6703	0.677
Mof_H 	H 	0.7366	0.5257	0.9115	0.089
Mof_C 	C 	0.8086	0.4412	0.5603	0.434
Mof_C 	C 	0.8089	0.4072	0.5988	-0.041
Mof_C 	C 	0.7684	0.3973	0.6207	0.26
Mof_H 	H 	0.7413	0.4089	0.61	0.128
Mof_C 	C 	0.7695	0.3695	0.6589	-0.014
Mof_C 	C 	0.8096	0.3528	0.6748	0.156
Mof_H 	H 	0.8098	0.3342	0.7	0.024
Mof_C 	C 	0.8497	0.3635	0.6535	-0.146
Mof_C 	C 	0.9299	0.3433	0.6634	-1.848
Mof_C 	C 	0.9608	0.3055	0.7418	-10.737
Mof_H 	H 	0.9332	0.2993	0.7555	3.565
Mof_C 	C 	0.9622	0.3295	0.7011	6.712
Mof_C 	C 	0.7264	0.3597	0.6835	0.459
Mof_C 	C 	0.6715	0.4161	0.7706	0.364
Mof_C 	C 	0.6823	0.4596	0.7941	0.073
Mof_C 	C 	0.706	0.4591	0.8349	-0.153
Mof_H 	H 	0.7142	0.4319	0.8483	0.12
Mof_C 	C 	0.8496	0.3915	0.6158	0.143
Mof_H 	H 	0.8766	0.3996	0.6021	0.037
Mof_C 	C 	0.77	0.4738	0.9182	0.223
Mof_H 	H 	0.9695	0.2585	0.8123	4.74
Mof_H 	H 	0.0162	0.2373	0.7993	4.835
Mof_H 	H 	0.0144	0.2823	0.827	4.947
Mof_H 	H 	0.9172	0.4732	0.9853	-0.504
Mof_O 	O 	0.8834	0.3615	0.7337	0.117
Mof_C 	C 	0.9053	0.3448	0.7021	-0.784
Mof_O 	O 	0.7198	0.0609	0.3961	-0.288
Mof_O 	O 	0.7294	0.0469	0.0464	-0.47
Mof_O 	O 	0.6534	0.0462	0.0458	-0.463
Mof_O 	O 	0.7708	0.1637	0.2181	-0.43
Mof_O 	O 	0.8102	0.1245	0.167	-0.568
Mof_O 	O 	0.8131	0.1206	0.2881	-0.421
Mof_O 	O 	0.8523	0.0811	0.2356	-0.594
Mof_O 	O 	0.5618	0.1512	0.1236	-0.645
Mof_N 	N 	0.6088	0.1537	0.1703	-0.849
Mof_H 	H 	0.7634	0.9743	0.4115	-0.037
Mof_C 	C 	0.6914	0.0588	0.0603	0.226
Mof_C 	C 	0.6911	0.0928	0.0988	-0.08
Mof_C 	C 	0.7316	0.1027	0.1207	-0.404
Mof_H 	H 	0.7587	0.0911	0.11	-0.029
Mof_C 	C 	0.7305	0.1305	0.1589	-0.138
Mof_C 	C 	0.6904	0.1472	0.1748	-0.354
Mof_H 	H 	0.6902	0.1658	0.2	0.154
Mof_C 	C 	0.6503	0.1365	0.1535	0.36
Mof_C 	C 	0.5701	0.1567	0.1634	1.545
Mof_C 	C 	0.5392	0.1945	0.2418	6.446
Mof_H 	H 	0.5668	0.2007	0.2555	-2.075
Mof_C 	C 	0.5378	0.1705	0.2011	-4.606
Mof_C 	C 	0.7736	0.1403	0.1835	0.172
Mof_C 	C 	0.8285	0.0839	0.2706	0.273
Mof_C 	C 	0.8177	0.0404	0.2941	-0.254
Mof_C 	C 	0.794	0.0409	0.3349	-0.118
Mof_H 	H 	0.7858	0.0681	0.3483	0.107
Mof_C 	C 	0.6504	0.1085	0.1158	-0.321
Mof_H 	H 	0.6234	0.1004	0.1021	0.1
Mof_C 	C 	0.73	0.0262	0.4182	0.454
Mof_H 	H 	0.5305	0.2415	0.3123	-2.839
Mof_H 	H 	0.4838	0.2627	0.2993	-2.805
Mof_H 	H 	0.4856	0.2177	0.327	-2.84
Mof_H 	H 	0.5828	0.0268	0.4853	-0.96
Mof_O 	O 	0.6166	0.1385	0.2337	-0.425
Mof_C 	C 	0.5947	0.1552	0.2021	0.91
Mof_O 	O 	0.2198	0.5609	0.8961	0.048
Mof_O 	O 	0.2294	0.5469	0.5464	-0.323
Mof_O 	O 	0.1534	0.5462	0.5458	-0.324
Mof_O 	O 	0.2708	0.6637	0.7181	-0.395
Mof_O 	O 	0.3102	0.6245	0.667	-0.292
Mof_O 	O 	0.3131	0.6206	0.7881	-0.373
Mof_O 	O 	0.3523	0.5811	0.7356	-0.288
Mof_O 	O 	0.0618	0.6512	0.6236	0.409
Mof_N 	N 	0.1088	0.6537	0.6703	0.704
Mof_H 	H 	0.2634	0.4743	0.9115	0.26
Mof_C 	C 	0.1914	0.5588	0.5603	0.42
Mof_C 	C 	0.1911	0.5928	0.5988	-0.024
Mof_C 	C 	0.2316	0.6027	0.6207	0.239
Mof_H 	H 	0.2587	0.5911	0.61	0.127
Mof_C 	C 	0.2305	0.6305	0.6589	-0.012
Mof_C 	C 	0.1904	0.6472	0.6748	0.146
Mof_H 	H 	0.1902	0.6658	0.7	0.026
Mof_C 	C 	0.1503	0.6365	0.6535	-0.13
Mof_C 	C 	0.0701	0.6567	0.6634	-1.887
Mof_C 	C 	0.0392	0.6945	0.7418	-10.66
Mof_H 	H 	0.0668	0.7007	0.7555	3.568
Mof_C 	C 	0.0378	0.6705	0.7011	7.107
Mof_C 	C 	0.2736	0.6403	0.6835	0.451
Mof_C 	C 	0.3285	0.5839	0.7706	0.371
Mof_C 	C 	0.3177	0.5404	0.7941	0.038
Mof_C 	C 	0.294	0.5409	0.8349	-0.1
Mof_H 	H 	0.2858	0.5681	0.8483	0.09
Mof_C 	C 	0.1504	0.6085	0.6158	0.128
Mof_H 	H 	0.1234	0.6004	0.6021	0.078
Mof_C 	C 	0.23	0.5262	0.9182	-0.596
Mof_H 	H 	0.0305	0.7415	0.8123	4.613
Mof_H 	H 	0.9838	0.7627	0.7993	4.392
Mof_H 	H 	0.9856	0.7177	0.827	4.42
Mof_H 	H 	0.0828	0.5268	0.9853	2.476
Mof_O 	O 	0.1166	0.6385	0.7337	0.152
Mof_C 	C 	0.0947	0.6552	0.7021	-0.815
Mof_O 	O 	0.9391	0.7198	0.3961	-0.195
Mof_O 	O 	0.9531	0.7294	0.0464	-0.661
Mof_O 	O 	0.9538	0.6534	0.0458	-0.577
Mof_O 	O 	0.8363	0.7708	0.2181	-0.433
Mof_O 	O 	0.8755	0.8102	0.167	-0.614
Mof_O 	O 	0.8794	0.8131	0.2881	-0.448
Mof_O 	O 	0.9189	0.8523	0.2356	-0.714
Mof_O 	O 	0.8488	0.5618	0.1236	-0.55
Mof_N 	N 	0.8463	0.6088	0.1703	-0.862
Mof_H 	H 	0.0257	0.7634	0.4115	-0.008
Mof_C 	C 	0.9412	0.6914	0.0603	0.22
Mof_C 	C 	0.9072	0.6911	0.0988	-0.105
Mof_C 	C 	0.8973	0.7316	0.1207	-0.396
Mof_H 	H 	0.9089	0.7587	0.11	-0.084
Mof_C 	C 	0.8695	0.7305	0.1589	-0.16
Mof_C 	C 	0.8528	0.6904	0.1748	-0.354
Mof_H 	H 	0.8342	0.6902	0.2	0.155
Mof_C 	C 	0.8635	0.6503	0.1535	0.362
Mof_C 	C 	0.8433	0.5701	0.1634	1.557
Mof_C 	C 	0.8055	0.5392	0.2418	6.751
Mof_H 	H 	0.7993	0.5668	0.2555	-2.178
Mof_C 	C 	0.8295	0.5378	0.2011	-4.789
Mof_C 	C 	0.8597	0.7736	0.1835	0.181
Mof_C 	C 	0.9161	0.8285	0.2706	0.311
Mof_C 	C 	0.9596	0.8177	0.2941	-0.494
Mof_C 	C 	0.9591	0.794	0.3349	-0.405
Mof_H 	H 	0.9319	0.7858	0.3483	0.158
Mof_C 	C 	0.8915	0.6504	0.1158	-0.351
Mof_H 	H 	0.8996	0.6234	0.1021	0.138
Mof_C 	C 	0.9738	0.73	0.4182	-0.206
Mof_H 	H 	0.7585	0.5305	0.3123	-3.005
Mof_H 	H 	0.7373	0.4838	0.2993	-2.968
Mof_H 	H 	0.7823	0.4856	0.327	-3.011
Mof_H 	H 	0.9732	0.5828	0.4853	-1.139
Mof_O 	O 	0.8615	0.6166	0.2337	-0.451
Mof_C 	C 	0.8448	0.5947	0.2021	0.93
Mof_O 	O 	0.4391	0.2198	0.8961	0.047
Mof_O 	O 	0.4531	0.2294	0.5464	-0.323
Mof_O 	O 	0.4538	0.1534	0.5458	-0.326
Mof_O 	O 	0.3363	0.2708	0.7181	-0.395
Mof_O 	O 	0.3755	0.3102	0.667	-0.292
Mof_O 	O 	0.3794	0.3131	0.7881	-0.375
Mof_O 	O 	0.4189	0.3523	0.7356	-0.288
Mof_O 	O 	0.3488	0.0618	0.6236	0.393
Mof_N 	N 	0.3463	0.1088	0.6703	0.685
Mof_H 	H 	0.5257	0.2634	0.9115	0.26
Mof_C 	C 	0.4412	0.1914	0.5603	0.421
Mof_C 	C 	0.4072	0.1911	0.5988	-0.023
Mof_C 	C 	0.3973	0.2316	0.6207	0.238
Mof_H 	H 	0.4089	0.2587	0.61	0.127
Mof_C 	C 	0.3695	0.2305	0.6589	-0.01
Mof_C 	C 	0.3528	0.1904	0.6748	0.143
Mof_H 	H 	0.3342	0.1902	0.7	0.027
Mof_C 	C 	0.3635	0.1503	0.6535	-0.123
Mof_C 	C 	0.3433	0.0701	0.6634	-1.842
Mof_C 	C 	0.3055	0.0392	0.7418	-10.445
Mof_H 	H 	0.2993	0.0668	0.7555	3.497
Mof_C 	C 	0.3295	0.0378	0.7011	6.955
Mof_C 	C 	0.3597	0.2736	0.6835	0.451
Mof_C 	C 	0.4161	0.3285	0.7706	0.371
Mof_C 	C 	0.4596	0.3177	0.7941	0.037
Mof_C 	C 	0.4591	0.294	0.8349	-0.1
Mof_H 	H 	0.4319	0.2858	0.8483	0.088
Mof_C 	C 	0.3915	0.1504	0.6158	0.126
Mof_H 	H 	0.3996	0.1234	0.6021	0.077
Mof_C 	C 	0.4738	0.23	0.9182	-0.596
Mof_H 	H 	0.2585	0.0305	0.8123	4.519
Mof_H 	H 	0.2373	0.9838	0.7993	4.302
Mof_H 	H 	0.2823	0.9856	0.827	4.326
Mof_H 	H 	0.4732	0.0828	0.9853	2.475
Mof_O 	O 	0.3615	0.1166	0.7337	0.147
Mof_C 	C 	0.3448	0.0947	0.7021	-0.794
Mof_O 	O 	0.0609	0.2802	0.3961	-0.272
Mof_O 	O 	0.0469	0.2706	0.0464	-0.451
Mof_O 	O 	0.0462	0.3466	0.0458	-0.461
Mof_O 	O 	0.1637	0.2292	0.2181	-0.428
Mof_O 	O 	0.1245	0.1898	0.167	-0.542
Mof_O 	O 	0.1206	0.1869	0.2881	-0.406
Mof_O 	O 	0.0811	0.1477	0.2356	-0.543
Mof_O 	O 	0.1512	0.4382	0.1236	-0.646
Mof_N 	N 	0.1537	0.3912	0.1703	-0.85
Mof_H 	H 	0.9743	0.2366	0.4115	-0.012
Mof_C 	C 	0.0588	0.3086	0.0603	0.222
Mof_C 	C 	0.0928	0.3089	0.0988	-0.068
Mof_C 	C 	0.1027	0.2684	0.1207	-0.41
Mof_H 	H 	0.0911	0.2413	0.11	-0.009
Mof_C 	C 	0.1305	0.2695	0.1589	-0.123
Mof_C 	C 	0.1472	0.3096	0.1748	-0.36
Mof_H 	H 	0.1658	0.3098	0.2	0.156
Mof_C 	C 	0.1365	0.3497	0.1535	0.365
Mof_C 	C 	0.1567	0.4299	0.1634	1.546
Mof_C 	C 	0.1945	0.4608	0.2418	6.446
Mof_H 	H 	0.2007	0.4332	0.2555	-2.076
Mof_C 	C 	0.1705	0.4622	0.2011	-4.606
Mof_C 	C 	0.1403	0.2264	0.1835	0.166
Mof_C 	C 	0.0839	0.1715	0.2706	0.269
Mof_C 	C 	0.0404	0.1823	0.2941	-0.208
Mof_C 	C 	0.0409	0.206	0.3349	-0.129
Mof_H 	H 	0.0681	0.2142	0.3483	0.123
Mof_C 	C 	0.1085	0.3496	0.1158	-0.326
Mof_H 	H 	0.1004	0.3766	0.1021	0.102
Mof_C 	C 	0.0262	0.27	0.4182	0.418
Mof_H 	H 	0.2415	0.4695	0.3123	-2.839
Mof_H 	H 	0.2627	0.5162	0.2993	-2.805
Mof_H 	H 	0.2177	0.5144	0.327	-2.84
Mof_H 	H 	0.0268	0.4172	0.4853	-0.856
Mof_O 	O 	0.1385	0.3834	0.2337	-0.423
Mof_C 	C 	0.1552	0.4053	0.2021	0.909
Mof_O 	O 	0.5609	0.7802	0.8961	-0.183
Mof_O 	O 	0.5469	0.7706	0.5464	-0.322
Mof_O 	O 	0.5462	0.8466	0.5458	-0.357
Mof_O 	O 	0.6637	0.7292	0.7181	-0.393
Mof_O 	O 	0.6245	0.6898	0.667	-0.286
Mof_O 	O 	0.6206	0.6869	0.7881	-0.365
Mof_O 	O 	0.5811	0.6477	0.7356	-0.278
Mof_O 	O 	0.6512	0.9382	0.6236	0.264
Mof_N 	N 	0.6537	0.8912	0.6703	0.696
Mof_H 	H 	0.4743	0.7366	0.9115	0.088
Mof_C 	C 	0.5588	0.8086	0.5603	0.434
Mof_C 	C 	0.5928	0.8089	0.5988	-0.043
Mof_C 	C 	0.6027	0.7684	0.6207	0.261
Mof_H 	H 	0.5911	0.7413	0.61	0.127
Mof_C 	C 	0.6305	0.7695	0.6589	-0.016
Mof_C 	C 	0.6472	0.8096	0.6748	0.16
Mof_H 	H 	0.6658	0.8098	0.7	0.022
Mof_C 	C 	0.6365	0.8497	0.6535	-0.153
Mof_C 	C 	0.6567	0.9299	0.6634	-1.893
Mof_C 	C 	0.6945	0.9608	0.7418	-10.952
Mof_H 	H 	0.7007	0.9332	0.7555	3.636
Mof_C 	C 	0.6705	0.9622	0.7011	6.864
Mof_C 	C 	0.6403	0.7264	0.6835	0.459
Mof_C 	C 	0.5839	0.6715	0.7706	0.364
Mof_C 	C 	0.5404	0.6823	0.7941	0.074
Mof_C 	C 	0.5409	0.706	0.8349	-0.153
Mof_H 	H 	0.5681	0.7142	0.8483	0.122
Mof_C 	C 	0.6085	0.8496	0.6158	0.146
Mof_H 	H 	0.6004	0.8766	0.6021	0.038
Mof_C 	C 	0.5262	0.77	0.9182	0.223
Mof_H 	H 	0.7415	0.9695	0.8123	4.834
Mof_H 	H 	0.7627	0.0162	0.7993	4.926
Mof_H 	H 	0.7177	0.0144	0.827	5.041
Mof_H 	H 	0.5268	0.9172	0.9853	-0.503
Mof_O 	O 	0.6385	0.8834	0.7337	0.122
Mof_C 	C 	0.6552	0.9053	0.7021	-0.804
Mof_Cu	Cu	0.17844	0.17844	0.25768	0.895
Mof_Cu	Cu	0.1322	0.1322	0.19742	0.872
Mof_Cu	Cu	0.67844	0.67844	0.75768	0.914
Mof_Cu	Cu	0.6322	0.6322	0.69742	0.942
Mof_Cu	Cu	0.82156	0.82156	0.25768	0.896
Mof_Cu	Cu	0.8678	0.8678	0.19742	0.827
Mof_Cu	Cu	0.32156	0.32156	0.75768	0.911
Mof_Cu	Cu	0.3678	0.3678	0.69742	0.94
Mof_Cu	Cu	0.82156	0.17844	0.25768	0.896
Mof_Cu	Cu	0.8678	0.1322	0.19742	0.85
Mof_Cu	Cu	0.32156	0.67844	0.75768	0.913
Mof_Cu	Cu	0.3678	0.6322	0.69742	0.941
Mof_Cu	Cu	0.17844	0.82156	0.25768	0.896
Mof_Cu	Cu	0.1322	0.8678	0.19742	0.85
Mof_Cu	Cu	0.67844	0.32156	0.75768	0.913
Mof_Cu	Cu	0.6322	0.3678	0.69742	0.941
Mof_Cu	Cu	0.82156	0.17844	0.74232	0.896
Mof_Cu	Cu	0.8678	0.1322	0.80258	0.848
Mof_Cu	Cu	0.32156	0.67844	0.24232	0.914
Mof_Cu	Cu	0.3678	0.6322	0.30258	0.941
Mof_Cu	Cu	0.17844	0.82156	0.74232	0.896
Mof_Cu	Cu	0.1322	0.8678	0.80258	0.848
Mof_Cu	Cu	0.67844	0.32156	0.24232	0.914
Mof_Cu	Cu	0.6322	0.3678	0.30258	0.941
Mof_Cu	Cu	0.17844	0.17844	0.74232	0.896
Mof_Cu	Cu	0.1322	0.1322	0.80258	0.87
Mof_Cu	Cu	0.67844	0.67844	0.24232	0.915
Mof_Cu	Cu	0.6322	0.6322	0.30258	0.942
Mof_Cu	Cu	0.82156	0.82156	0.74232	0.896
Mof_Cu	Cu	0.8678	0.8678	0.80258	0.825
Mof_Cu	Cu	0.32156	0.32156	0.24232	0.912
Mof_Cu	Cu	0.3678	0.3678	0.30258	0.94
Mof_Cu	Cu	0.35308	0	-0	1.006
Mof_Cu	Cu	0.26384	0	-0	1.01
Mof_Cu	Cu	0.85308	0.5	0.5	0.939
Mof_Cu	Cu	0.76384	0.5	0.5	0.934
Mof_Cu	Cu	0.64692	0	-0	1.007
Mof_Cu	Cu	0.73616	0	-0	1
Mof_Cu	Cu	0.14692	0.5	0.5	0.956
Mof_Cu	Cu	0.23616	0.5	0.5	0.931
Mof_Cu	Cu	-0	0.35308	-0	1.006
Mof_Cu	Cu	-0	0.26384	-0	1.01
Mof_Cu	Cu	0.5	0.85308	0.5	0.939
Mof_Cu	Cu	0.5	0.76384	0.5	0.934
Mof_Cu	Cu	-0	0.64692	-0	1.007
Mof_Cu	Cu	-0	0.73616	-0	1
Mof_Cu	Cu	0.5	0.14692	0.5	0.956
Mof_Cu	Cu	0.5	0.23616	0.5	0.931
Mof_N 	N 	0.2416	0	0.3961	-0.062
Mof_C 	C 	0.17	0	0.2752	0.252
Mof_H 	H 	0.153	1.94141e-33	0.2489	-0.161
Mof_C 	C 	0.2173	3.88282e-33	0.3552	0.477
Mof_C 	C 	0.3321	0	0.4596	1.251
Mof_H 	H 	0.3474	3.88282e-33	0.4322	-0.337
Mof_C 	C 	0.2856	0	0.4596	-0.439
Mof_H 	H 	0.4172	3.88282e-33	0.5305	-0.726
Mof_N 	N 	0.7416	0.5	0.8961	-0.3
Mof_C 	C 	0.67	0.5	0.7752	0.06
Mof_H 	H 	0.653	0.5	0.7489	0.203
Mof_C 	C 	0.7173	0.5	0.8552	0.201
Mof_C 	C 	0.8321	0.5	0.9596	0.578
Mof_H 	H 	0.8474	0.5	0.9322	-0.081
Mof_C 	C 	0.7856	0.5	0.9596	-0.451
Mof_H 	H 	0.9172	0.5	0.0305	-0.512
Mof_N 	N 	0.7584	0	0.3961	-0.056
Mof_C 	C 	0.83	0	0.2752	0.267
Mof_H 	H 	0.847	1.94141e-33	0.2489	-0.209
Mof_C 	C 	0.7827	3.88282e-33	0.3552	0.449
Mof_C 	C 	0.6679	0	0.4596	1.448
Mof_H 	H 	0.6526	3.88282e-33	0.4322	-0.405
Mof_C 	C 	0.7144	0	0.4596	-0.569
Mof_H 	H 	0.5828	3.88282e-33	0.5305	-0.839
Mof_N 	N 	0.2584	0.5	0.8961	-0.17
Mof_C 	C 	0.33	0.5	0.7752	0.083
Mof_H 	H 	0.347	0.5	0.7489	0.186
Mof_C 	C 	0.2827	0.5	0.8552	0.102
Mof_C 	C 	0.1679	0.5	0.9596	-4.68
Mof_H 	H 	0.1526	0.5	0.9322	1.671
Mof_C 	C 	0.2144	0.5	0.9596	2.65
Mof_H 	H 	0.0828	0.5	0.0305	2.744
Mof_N 	N 	1.48514e-33	0.2416	0.3961	-0.062
Mof_C 	C 	1.03183e-33	0.17	0.2752	0.252
Mof_H 	H 	2.87464e-33	0.153	0.2489	-0.161
Mof_C 	C 	1.33179e-33	0.2173	0.3552	0.477
Mof_C 	C 	5.60604e-33	0.3321	0.4596	1.251
Mof_H 	H 	-2.26233e-33	0.3474	0.4322	-0.337
Mof_C 	C 	1.72322e-33	0.2856	0.4596	-0.439
Mof_H 	H 	-1.89376e-33	0.4172	0.5305	-0.726
Mof_N 	N 	0.5	0.7416	0.8961	-0.3
Mof_C 	C 	0.5	0.67	0.7752	0.06
Mof_H 	H 	0.5	0.653	0.7489	0.203
Mof_C 	C 	0.5	0.7173	0.8552	0.201
Mof_C 	C 	0.5	0.8321	0.9596	0.578
Mof_H 	H 	0.5	0.8474	0.9322	-0.081
Mof_C 	C 	0.5	0.7856	0.9596	-0.451
Mof_H 	H 	0.5	0.9172	0.0305	-0.512
Mof_N 	N 	-1.40461e-32	0.7584	0.3961	-0.056
Mof_C 	C 	4.91466e-33	0.83	0.2752	0.267
Mof_H 	H 	-1.00818e-33	0.847	0.2489	-0.209
Mof_C 	C 	5.21461e-33	0.7827	0.3552	0.449
Mof_C 	C 	-2.1596e-33	0.6679	0.4596	1.448
Mof_H 	H 	-6.14515e-33	0.6526	0.4322	-0.405
Mof_C 	C 	1.33717e-32	0.7144	0.4596	-0.569
Mof_H 	H 	1.98906e-33	0.5828	0.5305	-0.839
Mof_N 	N 	0.5	0.2584	0.8961	-0.17
Mof_C 	C 	0.5	0.33	0.7752	0.083
Mof_H 	H 	0.5	0.347	0.7489	0.186
Mof_C 	C 	0.5	0.2827	0.8552	0.102
Mof_C 	C 	0.5	0.1679	0.9596	-4.68
Mof_H 	H 	0.5	0.1526	0.9322	1.671
Mof_C 	C 	0.5	0.2144	0.9596	2.65
Mof_H 	H 	0.5	0.0828	0.0305	2.744
Mof_N 	N 	0.7584	-7.76564e-33	0.6039	-0.056
Mof_C 	C 	0.83	0	0.7248	0.268
Mof_H 	H 	0.847	-7.76564e-33	0.7511	-0.21
Mof_C 	C 	0.7827	0	0.6448	0.448
Mof_C 	C 	0.6679	0	0.5404	1.448
Mof_H 	H 	0.6526	0	0.5678	-0.404
Mof_C 	C 	0.7144	0	0.5404	-0.569
Mof_H 	H 	0.5828	-3.88282e-33	0.4695	-0.839
Mof_N 	N 	0.2584	0.5	0.1039	-0.177
Mof_C 	C 	0.33	0.5	0.2248	0.08
Mof_H 	H 	0.347	0.5	0.2511	0.188
Mof_C 	C 	0.2827	0.5	0.1448	0.111
Mof_C 	C 	0.1679	0.5	0.0404	-4.634
Mof_H 	H 	0.1526	0.5	0.0678	1.661
Mof_C 	C 	0.2144	0.5	0.0404	2.69
Mof_H 	H 	0.0828	0.5	0.9695	2.779
Mof_N 	N 	0.2416	-7.76564e-33	0.6039	-0.062
Mof_C 	C 	0.17	0	0.7248	0.253
Mof_H 	H 	0.153	-7.76564e-33	0.7511	-0.162
Mof_C 	C 	0.2173	0	0.6448	0.476
Mof_C 	C 	0.3321	0	0.5404	1.251
Mof_H 	H 	0.3474	0	0.5678	-0.337
Mof_C 	C 	0.2856	0	0.5404	-0.44
Mof_H 	H 	0.4172	-3.88282e-33	0.4695	-0.726
Mof_N 	N 	0.7416	0.5	0.1039	-0.307
Mof_C 	C 	0.67	0.5	0.2248	0.057
Mof_H 	H 	0.653	0.5	0.2511	0.205
Mof_C 	C 	0.7173	0.5	0.1448	0.21
Mof_C 	C 	0.8321	0.5	0.0404	0.622
Mof_H 	H 	0.8474	0.5	0.0678	-0.091
Mof_C 	C 	0.7856	0.5	0.0404	-0.411
Mof_H 	H 	0.9172	0.5	0.9695	-0.478
Mof_N 	N 	-1.3267e-32	0.2416	0.6039	-0.062
Mof_C 	C 	2.71756e-33	0.17	0.7248	0.253
Mof_H 	H 	-4.94947e-33	0.153	0.7511	-0.162
Mof_C 	C 	-5.34803e-33	0.2173	0.6448	0.476
Mof_C 	C 	-1.85665e-33	0.3321	0.5404	1.251
Mof_H 	H 	-1.75391e-33	0.3474	0.5678	-0.337
Mof_C 	C 	-5.73947e-33	0.2856	0.5404	-0.44
Mof_H 	H 	5.64316e-33	0.4172	0.4695	-0.726
Mof_N 	N 	0.5	0.7416	0.1039	-0.307
Mof_C 	C 	0.5	0.67	0.2248	0.057
Mof_H 	H 	0.5	0.653	0.2511	0.205
Mof_C 	C 	0.5	0.7173	0.1448	0.21
Mof_C 	C 	0.5	0.8321	0.0404	0.622
Mof_H 	H 	0.5	0.8474	0.0678	-0.091
Mof_C 	C 	0.5	0.7856	0.0404	-0.411
Mof_H 	H 	0.5	0.9172	0.9695	-0.478
Mof_N 	N 	2.26426e-33	0.7584	0.6039	-0.056
Mof_C 	C 	2.71756e-33	0.83	0.7248	0.268
Mof_H 	H 	-4.94947e-33	0.847	0.7511	-0.21
Mof_C 	C 	-5.34803e-33	0.7827	0.6448	0.448
Mof_C 	C 	-5.73947e-33	0.6679	0.5404	1.448
Mof_H 	H 	-1.75391e-33	0.6526	0.5678	-0.404
Mof_C 	C 	-1.35051e-32	0.7144	0.5404	-0.569
Mof_H 	H 	5.64316e-33	0.5828	0.4695	-0.839
Mof_N 	N 	0.5	0.2584	0.1039	-0.177
Mof_C 	C 	0.5	0.33	0.2248	0.08
Mof_H 	H 	0.5	0.347	0.2511	0.188
Mof_C 	C 	0.5	0.2827	0.1448	0.111
Mof_C 	C 	0.5	0.1679	0.0404	-4.634
Mof_H 	H 	0.5	0.1526	0.0678	1.661
Mof_C 	C 	0.5	0.2144	0.0404	2.69
Mof_H 	H 	0.5	0.0828	0.9695	2.779
Mof_C 	C 	0.5	0.1587	0.1838	5.208
Mof_H 	H 	0.5	0.1411	0.1578	-1.781
Mof_C 	C 	0.5	0.2088	0.2613	-8.499
Mof_C 	C 	0.5	0.2349	0.3037	17.401
Mof_C 	C 	-5.2018e-33	0.6587	0.6838	-7.708
Mof_H 	H 	-1.30649e-32	0.6411	0.6578	2.838
Mof_C 	C 	-4.91122e-33	0.7088	0.7613	14.424
Mof_C 	C 	-4.75225e-33	0.7349	0.8037	-28.838
Mof_C 	C 	0.5	0.8413	0.1838	5.371
Mof_H 	H 	0.5	0.8589	0.1578	-1.805
Mof_C 	C 	0.5	0.7912	0.2613	-8.956
Mof_C 	C 	0.5	0.7651	0.3037	18.407
Mof_C 	C 	2.56384e-33	0.3413	0.6838	-7.537
Mof_H 	H 	2.46635e-33	0.3589	0.6578	2.776
Mof_C 	C 	-4.91122e-33	0.2912	0.7613	14.138
Mof_C 	C 	-4.75225e-33	0.2651	0.8037	-28.259
Mof_C 	C 	0.8413	0.5	0.1838	5.371
Mof_H 	H 	0.8589	0.5	0.1578	-1.805
Mof_C 	C 	0.7912	0.5	0.2613	-8.956
Mof_C 	C 	0.7651	0.5	0.3037	18.407
Mof_C 	C 	0.3413	0	0.6838	-7.537
Mof_H 	H 	0.3589	0	0.6578	2.776
Mof_C 	C 	0.2912	0	0.7613	14.138
Mof_C 	C 	0.2651	0	0.8037	-28.259
Mof_C 	C 	0.1587	0.5	0.1838	5.208
Mof_H 	H 	0.1411	0.5	0.1578	-1.781
Mof_C 	C 	0.2088	0.5	0.2613	-8.499
Mof_C 	C 	0.2349	0.5	0.3037	17.401
Mof_C 	C 	0.6587	0	0.6838	-7.708
Mof_H 	H 	0.6411	0	0.6578	2.838
Mof_C 	C 	0.7088	0	0.7613	14.424
Mof_C 	C 	0.7349	0	0.8037	-28.838
Mof_C 	C 	0.5	0.1587	0.8162	5.206
Mof_H 	H 	0.5	0.1411	0.8422	-1.781
Mof_C 	C 	0.5	0.2088	0.7387	-8.492
Mof_C 	C 	0.5	0.2349	0.6963	17.385
Mof_C 	C 	1.18556e-33	0.6587	0.3162	-7.733
Mof_H 	H 	-2.59978e-33	0.6411	0.3422	2.846
Mof_C 	C 	-4.92925e-33	0.7088	0.2387	14.469
Mof_C 	C 	7.36007e-34	0.7349	0.1963	-28.928
Mof_C 	C 	0.5	0.8413	0.8162	5.369
Mof_H 	H 	0.5	0.8589	0.8422	-1.805
Mof_C 	C 	0.5	0.7912	0.7387	-8.949
Mof_C 	C 	0.5	0.7651	0.6963	18.393
Mof_C 	C 	1.18556e-33	0.3413	0.3162	-7.561
Mof_H 	H 	-2.59978e-33	0.3589	0.3422	2.784
Mof_C 	C 	-1.04643e-33	0.2912	0.2387	14.181
Mof_C 	C 	7.36007e-34	0.2651	0.1963	-28.345
Mof_C 	C 	0.1587	0.5	0.8162	5.206
Mof_H 	H 	0.1411	0.5	0.8422	-1.781
Mof_C 	C 	0.2088	0.5	0.7387	-8.492
Mof_C 	C 	0.2349	0.5	0.6963	17.385
Mof_C 	C 	0.6587	0	0.3162	-7.733
Mof_H 	H 	0.6411	0	0.3422	2.846
Mof_C 	C 	0.7088	1.94141e-33	0.2387	14.469
Mof_C 	C 	0.7349	0	0.1963	-28.928
Mof_C 	C 	0.8413	0.5	0.8162	5.369
Mof_H 	H 	0.8589	0.5	0.8422	-1.805
Mof_C 	C 	0.7912	0.5	0.7387	-8.949
Mof_C 	C 	0.7651	0.5	0.6963	18.393
Mof_C 	C 	0.3413	0	0.3162	-7.561
Mof_H 	H 	0.3589	0	0.3422	2.784
Mof_C 	C 	0.2912	1.94141e-33	0.2387	14.181
Mof_C 	C 	0.2651	0	0.1963	-28.345
Mof_C 	C 	0.2612	0	0.5	0.452
Mof_H 	H 	0.2298	0	0.5	-0.015
Mof_C 	C 	0.4064	0	0.5	5.41
Mof_C 	C 	0.357	0	0.5	-1.991
Mof_C 	C 	0.7612	0.5	-0	0.399
Mof_H 	H 	0.7298	0.5	-0	-0.087
Mof_C 	C 	0.9064	0.5	-0	2.58
Mof_C 	C 	0.857	0.5	-0	-0.942
Mof_C 	C 	0.7388	0	0.5	0.572
Mof_H 	H 	0.7702	0	0.5	-0.081
Mof_C 	C 	0.5936	0	0.5	6.055
Mof_C 	C 	0.643	0	0.5	-2.27
Mof_C 	C 	0.2388	0.5	-0	-2.534
Mof_H 	H 	0.2702	0.5	-0	0.889
Mof_C 	C 	0.0936	0.5	-0	-15.761
Mof_C 	C 	0.143	0.5	-0	6.736
Mof_C 	C 	1.8747e-33	0.2612	0.5	0.452
Mof_H 	H 	5.75752e-33	0.2298	0.5	-0.015
Mof_C 	C 	1.8747e-33	0.4064	0.5	5.41
Mof_C 	C 	-2.00812e-33	0.357	0.5	-1.991
Mof_C 	C 	0.5	0.7612	-0	0.399
Mof_H 	H 	0.5	0.7298	-0	-0.087
Mof_C 	C 	0.5	0.9064	-0	2.58
Mof_C 	C 	0.5	0.857	-0	-0.942
Mof_C 	C 	-2.00812e-33	0.7388	0.5	0.572
Mof_H 	H 	5.75752e-33	0.7702	0.5	-0.081
Mof_C 	C 	-2.00812e-33	0.5936	0.5	6.055
Mof_C 	C 	5.75752e-33	0.643	0.5	-2.27
Mof_C 	C 	0.5	0.2388	-0	-2.534
Mof_H 	H 	0.5	0.2702	-0	0.889
Mof_C 	C 	0.5	0.0936	-0	-15.761
Mof_C 	C 	0.5	0.143	-0	6.736
_end
