data_functionalizedCrystal
_audit_creation_method	'EQeq! by Chris Wilmer'
_symmetry_space_group_name_H-M	'P1'
_symmetry_Int_Tables_number	1
_symmetry_cell_setting	triclinic
loop_
_symmetry_equiv_pos_as_xyz
  x,y,z
_cell_length_a	26.34
_cell_length_b	26.34
_cell_length_c	28.37
_cell_angle_alpha	90
_cell_angle_beta	90
_cell_angle_gamma	90
loop_
_atom_site_label
_atom_site_type_symbol
_atom_site_fract_x
_atom_site_fract_y
_atom_site_fract_z
_atom_site_charge
Mof_N 	N 	0.60294	0.79529	0.19585	-0.212
Mof_O 	O 	0.52152	0.57135	0.14947	-0.42
Mof_O 	O 	0.52233	0.57039	0.22843	-0.409
Mof_O 	O 	0.48609	0.93455	0.04862	-0.419
Mof_O 	O 	0.56303	0.97282	0.04868	-0.407
Mof_C 	C 	0.5284	0.59143	0.18873	0.384
Mof_C 	C 	0.5465	0.64551	0.19034	-0.17
Mof_C 	C 	0.55543	0.66893	0.23277	0.112
Mof_H 	H 	0.5492	0.6515	0.2607	0.006
Mof_C 	C 	0.57375	0.71855	0.23446	-0.214
Mof_H 	H 	0.5798	0.734	0.2634	0.107
Mof_C 	C 	0.58293	0.7447	0.19315	0.182
Mof_C 	C 	0.57363	0.721	0.15067	-0.224
Mof_H 	H 	0.5799	0.7383	0.1227	0.107
Mof_C 	C 	0.55544	0.67257	0.14893	0.119
Mof_H 	H 	0.549	0.6575	0.1199	-0.002
Mof_C 	C 	0.5312	0.93967	0.06229	0.371
Mof_C 	C 	0.54997	0.90358	0.09963	-0.163
Mof_C 	C 	0.5996	0.90317	0.11266	0.107
Mof_H 	H 	0.6214	0.9273	0.1	0.007
Mof_C 	C 	0.61897	0.86715	0.14481	-0.211
Mof_H 	H 	0.6533	0.8668	0.1525	0.106
Mof_C 	C 	0.58552	0.83199	0.16478	0.19
Mof_C 	C 	0.53515	0.83391	0.1524	-0.22
Mof_H 	H 	0.5126	0.8108	0.1657	0.112
Mof_C 	C 	0.51715	0.86922	0.12069	0.115
Mof_H 	H 	0.4827	0.87	0.1134	0.004
Mof_C 	C 	0.64854	0.80192	0.22307	0.265
Mof_C 	C 	0.6847	0.7654	0.2232	-0.337
Mof_H 	H 	0.6807	0.7359	0.2056	0.151
Mof_C 	C 	0.4832	0.5373	0.3364	0.093
Mof_H 	H 	0.4707	0.5651	0.3199	0.009
Mof_N 	N 	0.4649	0.5794	0.4533	-0.184
Mof_C 	C 	0.4627	0.5876	0.4067	0.102
Mof_H 	H 	0.4514	0.6171	0.3921	-0.002
Mof_C 	C 	0.4813	0.5412	0.3824	-0.178
Mof_O 	O 	0.517	0.486	0.4556	-0.304
Mof_C 	C 	0.4203	0.6067	0.4744	-0.099
Mof_H 	H 	0.4197	0.6416	0.4634	0.059
Mof_H 	H 	0.3895	0.5903	0.4634	0.051
Mof_N 	N 	0.39706	0.20471	0.19585	-0.212
Mof_O 	O 	0.47848	0.42865	0.14947	-0.42
Mof_O 	O 	0.47767	0.42961	0.22843	-0.409
Mof_O 	O 	0.51391	0.06545	0.04862	-0.432
Mof_O 	O 	0.43697	0.02718	0.04868	-0.43
Mof_C 	C 	0.4716	0.40857	0.18873	0.384
Mof_C 	C 	0.4535	0.35449	0.19034	-0.169
Mof_C 	C 	0.44457	0.33107	0.23277	0.112
Mof_H 	H 	0.4508	0.3485	0.2607	0.007
Mof_C 	C 	0.42625	0.28145	0.23446	-0.213
Mof_H 	H 	0.4202	0.266	0.2634	0.107
Mof_C 	C 	0.41707	0.2553	0.19315	0.182
Mof_C 	C 	0.42637	0.279	0.15067	-0.224
Mof_H 	H 	0.4201	0.2617	0.1227	0.106
Mof_C 	C 	0.44456	0.32743	0.14893	0.119
Mof_H 	H 	0.451	0.3425	0.1199	-0.003
Mof_C 	C 	0.4688	0.06033	0.06229	0.373
Mof_C 	C 	0.45003	0.09642	0.09963	-0.173
Mof_C 	C 	0.4004	0.09683	0.11266	0.111
Mof_H 	H 	0.3786	0.0727	0.1	-0.001
Mof_C 	C 	0.38103	0.13285	0.14481	-0.217
Mof_H 	H 	0.3467	0.1332	0.1525	0.104
Mof_C 	C 	0.41448	0.16801	0.16478	0.191
Mof_C 	C 	0.46485	0.16609	0.1524	-0.226
Mof_H 	H 	0.4874	0.1892	0.1657	0.111
Mof_C 	C 	0.48285	0.13078	0.12069	0.118
Mof_H 	H 	0.5173	0.13	0.1134	-0.002
Mof_C 	C 	0.35146	0.19808	0.22307	0.261
Mof_C 	C 	0.3153	0.2346	0.2232	-0.334
Mof_H 	H 	0.3193	0.2641	0.2056	0.149
Mof_C 	C 	0.5168	0.4627	0.3364	0.093
Mof_H 	H 	0.5293	0.4349	0.3199	0.008
Mof_N 	N 	0.5351	0.4206	0.4533	-0.185
Mof_C 	C 	0.5373	0.4124	0.4067	0.102
Mof_H 	H 	0.5486	0.3829	0.3921	-0.003
Mof_C 	C 	0.5187	0.4588	0.3824	-0.178
Mof_O 	O 	0.483	0.514	0.4556	-0.304
Mof_C 	C 	0.5797	0.3933	0.4744	-0.099
Mof_H 	H 	0.5803	0.3584	0.4634	0.058
Mof_H 	H 	0.6105	0.4097	0.4634	0.051
Mof_N 	N 	0.20471	0.60294	0.19585	-0.212
Mof_O 	O 	0.42865	0.52152	0.14947	-0.419
Mof_O 	O 	0.42961	0.52233	0.22843	-0.408
Mof_O 	O 	0.06545	0.48609	0.04862	-0.432
Mof_O 	O 	0.02718	0.56303	0.04868	-0.429
Mof_C 	C 	0.40857	0.5284	0.18873	0.385
Mof_C 	C 	0.35449	0.5465	0.19034	-0.169
Mof_C 	C 	0.33107	0.55543	0.23277	0.113
Mof_H 	H 	0.3485	0.5492	0.2607	0.007
Mof_C 	C 	0.28145	0.57375	0.23446	-0.213
Mof_H 	H 	0.266	0.5798	0.2634	0.108
Mof_C 	C 	0.2553	0.58293	0.19315	0.182
Mof_C 	C 	0.279	0.57363	0.15067	-0.224
Mof_H 	H 	0.2617	0.5799	0.1227	0.107
Mof_C 	C 	0.32743	0.55544	0.14893	0.119
Mof_H 	H 	0.3425	0.549	0.1199	-0.003
Mof_C 	C 	0.06033	0.5312	0.06229	0.373
Mof_C 	C 	0.09642	0.54997	0.09963	-0.173
Mof_C 	C 	0.09683	0.5996	0.11266	0.111
Mof_H 	H 	0.0727	0.6214	0.1	-0.001
Mof_C 	C 	0.13285	0.61897	0.14481	-0.217
Mof_H 	H 	0.1332	0.6533	0.1525	0.105
Mof_C 	C 	0.16801	0.58552	0.16478	0.191
Mof_C 	C 	0.16609	0.53515	0.1524	-0.226
Mof_H 	H 	0.1892	0.5126	0.1657	0.111
Mof_C 	C 	0.13078	0.51715	0.12069	0.118
Mof_H 	H 	0.13	0.4827	0.1134	-0.002
Mof_C 	C 	0.19808	0.64854	0.22307	0.262
Mof_C 	C 	0.2346	0.6847	0.2232	-0.333
Mof_H 	H 	0.2641	0.6807	0.2056	0.15
Mof_C 	C 	0.4627	0.4832	0.3364	0.093
Mof_H 	H 	0.4349	0.4707	0.3199	0.008
Mof_N 	N 	0.4206	0.4649	0.4533	-0.185
Mof_C 	C 	0.4124	0.4627	0.4067	0.102
Mof_H 	H 	0.3829	0.4514	0.3921	-0.003
Mof_C 	C 	0.4588	0.4813	0.3824	-0.178
Mof_O 	O 	0.514	0.517	0.4556	-0.304
Mof_C 	C 	0.3933	0.4203	0.4744	-0.098
Mof_H 	H 	0.3584	0.4197	0.4634	0.058
Mof_H 	H 	0.4097	0.3895	0.4634	0.051
Mof_N 	N 	0.79529	0.39706	0.19585	-0.211
Mof_O 	O 	0.57135	0.47848	0.14947	-0.419
Mof_O 	O 	0.57039	0.47767	0.22843	-0.408
Mof_O 	O 	0.93455	0.51391	0.04862	-0.418
Mof_O 	O 	0.97282	0.43697	0.04868	-0.406
Mof_C 	C 	0.59143	0.4716	0.18873	0.385
Mof_C 	C 	0.64551	0.4535	0.19034	-0.169
Mof_C 	C 	0.66893	0.44457	0.23277	0.113
Mof_H 	H 	0.6515	0.4508	0.2607	0.007
Mof_C 	C 	0.71855	0.42625	0.23446	-0.213
Mof_H 	H 	0.734	0.4202	0.2634	0.108
Mof_C 	C 	0.7447	0.41707	0.19315	0.183
Mof_C 	C 	0.721	0.42637	0.15067	-0.224
Mof_H 	H 	0.7383	0.4201	0.1227	0.107
Mof_C 	C 	0.67257	0.44456	0.14893	0.119
Mof_H 	H 	0.6575	0.451	0.1199	-0.002
Mof_C 	C 	0.93967	0.4688	0.06229	0.371
Mof_C 	C 	0.90358	0.45003	0.09963	-0.163
Mof_C 	C 	0.90317	0.4004	0.11266	0.107
Mof_H 	H 	0.9273	0.3786	0.1	0.007
Mof_C 	C 	0.86715	0.38103	0.14481	-0.211
Mof_H 	H 	0.8668	0.3467	0.1525	0.105
Mof_C 	C 	0.83199	0.41448	0.16478	0.19
Mof_C 	C 	0.83391	0.46485	0.1524	-0.22
Mof_H 	H 	0.8108	0.4874	0.1657	0.112
Mof_C 	C 	0.86922	0.48285	0.12069	0.115
Mof_H 	H 	0.87	0.5173	0.1134	0.004
Mof_C 	C 	0.80192	0.35146	0.22307	0.265
Mof_C 	C 	0.7654	0.3153	0.2232	-0.337
Mof_H 	H 	0.7359	0.3193	0.2056	0.15
Mof_C 	C 	0.5373	0.5168	0.3364	0.093
Mof_H 	H 	0.5651	0.5293	0.3199	0.009
Mof_N 	N 	0.5794	0.5351	0.4533	-0.184
Mof_C 	C 	0.5876	0.5373	0.4067	0.102
Mof_H 	H 	0.6171	0.5486	0.3921	-0.002
Mof_C 	C 	0.5412	0.5187	0.3824	-0.178
Mof_O 	O 	0.486	0.483	0.4556	-0.304
Mof_C 	C 	0.6067	0.5797	0.4744	-0.099
Mof_H 	H 	0.6416	0.5803	0.4634	0.06
Mof_H 	H 	0.5903	0.6105	0.4634	0.052
Mof_N 	N 	0.89706	0.29529	0.30415	-0.217
Mof_O 	O 	0.97848	0.07135	0.35053	-0.407
Mof_O 	O 	0.97767	0.07039	0.27157	-0.398
Mof_O 	O 	0.01391	0.43455	0.45138	-0.446
Mof_O 	O 	0.93697	0.47282	0.45132	-0.415
Mof_C 	C 	0.9716	0.09143	0.31127	0.381
Mof_C 	C 	0.9535	0.14551	0.30966	-0.163
Mof_C 	C 	0.94457	0.16893	0.26723	0.111
Mof_H 	H 	0.9508	0.1515	0.2393	0.01
Mof_C 	C 	0.92625	0.21855	0.26554	-0.211
Mof_H 	H 	0.9202	0.234	0.2366	0.108
Mof_C 	C 	0.91707	0.2447	0.30685	0.184
Mof_C 	C 	0.92637	0.221	0.34933	-0.221
Mof_H 	H 	0.9201	0.2383	0.3773	0.113
Mof_C 	C 	0.94456	0.17257	0.35107	0.119
Mof_H 	H 	0.951	0.1575	0.3801	0.005
Mof_C 	C 	0.9688	0.43967	0.43771	0.424
Mof_C 	C 	0.95003	0.40358	0.40037	-0.215
Mof_C 	C 	0.9004	0.40317	0.38734	0.151
Mof_H 	H 	0.8786	0.4273	0.4	-0.005
Mof_C 	C 	0.88103	0.36715	0.35519	-0.245
Mof_H 	H 	0.8467	0.3668	0.3475	0.119
Mof_C 	C 	0.91448	0.33199	0.33522	0.224
Mof_C 	C 	0.96485	0.33391	0.3476	-0.281
Mof_H 	H 	0.9874	0.3108	0.3343	0.14
Mof_C 	C 	0.98285	0.36922	0.37931	0.217
Mof_H 	H 	0.0173	0.37	0.3866	-0.049
Mof_C 	C 	0.85146	0.30192	0.27693	0.266
Mof_C 	C 	0.8153	0.2654	0.2768	-0.338
Mof_H 	H 	0.8193	0.2359	0.2944	0.151
Mof_C 	C 	0.0168	0.0373	0.1636	0.052
Mof_H 	H 	0.0293	0.0651	0.1801	0.014
Mof_N 	N 	0.0351	0.0794	0.0467	-0.182
Mof_C 	C 	0.0373	0.0876	0.0933	0.081
Mof_H 	H 	0.0486	0.1171	0.1079	-0.004
Mof_C 	C 	0.0187	0.0412	0.1176	-0.153
Mof_O 	O 	0.983	0.986	0.0444	-0.226
Mof_C 	C 	0.0797	0.1067	0.0256	-0.184
Mof_H 	H 	0.0803	0.1416	0.0366	0.068
Mof_H 	H 	0.1105	0.0903	0.0366	0.062
Mof_N 	N 	0.10294	0.70471	0.30415	-0.205
Mof_O 	O 	0.02152	0.92865	0.35053	-0.409
Mof_O 	O 	0.02233	0.92961	0.27157	-0.404
Mof_O 	O 	0.98609	0.56545	0.45138	-0.382
Mof_O 	O 	0.06303	0.52718	0.45132	-0.398
Mof_C 	C 	0.0284	0.90857	0.31127	0.381
Mof_C 	C 	0.0465	0.85449	0.30966	-0.166
Mof_C 	C 	0.05543	0.83107	0.26723	0.11
Mof_H 	H 	0.0492	0.8485	0.2393	0.004
Mof_C 	C 	0.07375	0.78145	0.26554	-0.212
Mof_H 	H 	0.0798	0.766	0.2366	0.104
Mof_C 	C 	0.08293	0.7553	0.30685	0.181
Mof_C 	C 	0.07363	0.779	0.34933	-0.22
Mof_H 	H 	0.0799	0.7617	0.3773	0.111
Mof_C 	C 	0.05544	0.82743	0.35107	0.117
Mof_H 	H 	0.049	0.8425	0.3801	0.004
Mof_C 	C 	0.0312	0.56033	0.43771	0.321
Mof_C 	C 	0.04997	0.59642	0.40037	-0.108
Mof_C 	C 	0.0996	0.59683	0.38734	0.065
Mof_H 	H 	0.1214	0.5727	0.4	0.022
Mof_C 	C 	0.11897	0.63285	0.35519	-0.175
Mof_H 	H 	0.1533	0.6332	0.3475	0.095
Mof_C 	C 	0.08552	0.66801	0.33522	0.157
Mof_C 	C 	0.03515	0.66609	0.3476	-0.159
Mof_H 	H 	0.0126	0.6892	0.3343	0.085
Mof_C 	C 	0.01715	0.63078	0.37931	0.015
Mof_H 	H 	0.9827	0.63	0.3866	0.059
Mof_C 	C 	0.14854	0.69808	0.27693	0.261
Mof_C 	C 	0.1847	0.7346	0.2768	-0.333
Mof_H 	H 	0.1807	0.7641	0.2944	0.152
Mof_C 	C 	0.9832	0.9627	0.1636	0.118
Mof_H 	H 	0.9707	0.9349	0.1801	0.008
Mof_N 	N 	0.9649	0.9206	0.0467	-0.177
Mof_C 	C 	0.9627	0.9124	0.0933	0.087
Mof_H 	H 	0.9514	0.8829	0.1079	0.004
Mof_C 	C 	0.9813	0.9588	0.1176	-0.127
Mof_O 	O 	0.017	0.014	0.0444	-0.324
Mof_C 	C 	0.9203	0.8933	0.0256	-0.184
Mof_H 	H 	0.9197	0.8584	0.0366	0.076
Mof_H 	H 	0.8895	0.9097	0.0366	0.069
Mof_N 	N 	0.29529	0.10294	0.30415	-0.205
Mof_O 	O 	0.07135	0.02152	0.35053	-0.427
Mof_O 	O 	0.07039	0.02233	0.27157	-0.419
Mof_O 	O 	0.43455	0.98609	0.45138	-0.381
Mof_O 	O 	0.47282	0.06303	0.45132	-0.398
Mof_C 	C 	0.09143	0.0284	0.31127	0.383
Mof_C 	C 	0.14551	0.0465	0.30966	-0.173
Mof_C 	C 	0.16893	0.05543	0.26723	0.112
Mof_H 	H 	0.1515	0.0492	0.2393	0.001
Mof_C 	C 	0.21855	0.07375	0.26554	-0.215
Mof_H 	H 	0.234	0.0798	0.2366	0.104
Mof_C 	C 	0.2447	0.08293	0.30685	0.182
Mof_C 	C 	0.221	0.07363	0.34933	-0.224
Mof_H 	H 	0.2383	0.0799	0.3773	0.11
Mof_C 	C 	0.17257	0.05544	0.35107	0.119
Mof_H 	H 	0.1575	0.049	0.3801	-0.002
Mof_C 	C 	0.43967	0.0312	0.43771	0.32
Mof_C 	C 	0.40358	0.04997	0.40037	-0.107
Mof_C 	C 	0.40317	0.0996	0.38734	0.063
Mof_H 	H 	0.4273	0.1214	0.4	0.023
Mof_C 	C 	0.36715	0.11897	0.35519	-0.175
Mof_H 	H 	0.3668	0.1533	0.3475	0.094
Mof_C 	C 	0.33199	0.08552	0.33522	0.155
Mof_C 	C 	0.33391	0.03515	0.3476	-0.157
Mof_H 	H 	0.3108	0.0126	0.3343	0.084
Mof_C 	C 	0.36922	0.01715	0.37931	0.012
Mof_H 	H 	0.37	0.9827	0.3866	0.06
Mof_C 	C 	0.30192	0.14854	0.27693	0.261
Mof_C 	C 	0.2654	0.1847	0.2768	-0.333
Mof_H 	H 	0.2359	0.1807	0.2944	0.149
Mof_C 	C 	0.0373	0.9832	0.1636	0.094
Mof_H 	H 	0.0651	0.9707	0.1801	0.013
Mof_N 	N 	0.0794	0.9649	0.0467	-0.173
Mof_C 	C 	0.0876	0.9627	0.0933	0.087
Mof_H 	H 	0.1171	0.9514	0.1079	0.003
Mof_C 	C 	0.0412	0.9813	0.1176	-0.137
Mof_O 	O 	0.986	0.017	0.0444	-0.305
Mof_C 	C 	0.1067	0.9203	0.0256	-0.184
Mof_H 	H 	0.1416	0.9197	0.0366	0.075
Mof_H 	H 	0.0903	0.8895	0.0366	0.062
Mof_N 	N 	0.70471	0.89706	0.30415	-0.216
Mof_O 	O 	0.92865	0.97848	0.35053	-0.391
Mof_O 	O 	0.92961	0.97767	0.27157	-0.386
Mof_O 	O 	0.56545	0.01391	0.45138	-0.445
Mof_O 	O 	0.52718	0.93697	0.45132	-0.415
Mof_C 	C 	0.90857	0.9716	0.31127	0.379
Mof_C 	C 	0.85449	0.9535	0.30966	-0.158
Mof_C 	C 	0.83107	0.94457	0.26723	0.109
Mof_H 	H 	0.8485	0.9508	0.2393	0.012
Mof_C 	C 	0.78145	0.92625	0.26554	-0.208
Mof_H 	H 	0.766	0.9202	0.2366	0.108
Mof_C 	C 	0.7553	0.91707	0.30685	0.183
Mof_C 	C 	0.779	0.92637	0.34933	-0.218
Mof_H 	H 	0.7617	0.9201	0.3773	0.113
Mof_C 	C 	0.82743	0.94456	0.35107	0.117
Mof_H 	H 	0.8425	0.951	0.3801	0.01
Mof_C 	C 	0.56033	0.9688	0.43771	0.423
Mof_C 	C 	0.59642	0.95003	0.40037	-0.213
Mof_C 	C 	0.59683	0.9004	0.38734	0.151
Mof_H 	H 	0.5727	0.8786	0.4	-0.005
Mof_C 	C 	0.63285	0.88103	0.35519	-0.244
Mof_H 	H 	0.6332	0.8467	0.3475	0.119
Mof_C 	C 	0.66801	0.91448	0.33522	0.224
Mof_C 	C 	0.66609	0.96485	0.3476	-0.279
Mof_H 	H 	0.6892	0.9874	0.3343	0.139
Mof_C 	C 	0.63078	0.98285	0.37931	0.215
Mof_H 	H 	0.63	0.0173	0.3866	-0.047
Mof_C 	C 	0.69808	0.85146	0.27693	0.267
Mof_C 	C 	0.7346	0.8153	0.2768	-0.337
Mof_H 	H 	0.7641	0.8193	0.2944	0.154
Mof_C 	C 	0.9627	0.0168	0.1636	0.097
Mof_H 	H 	0.9349	0.0293	0.1801	0.003
Mof_N 	N 	0.9206	0.0351	0.0467	-0.183
Mof_C 	C 	0.9124	0.0373	0.0933	0.084
Mof_H 	H 	0.8829	0.0486	0.1079	-0.003
Mof_C 	C 	0.9588	0.0187	0.1176	-0.145
Mof_O 	O 	0.014	0.983	0.0444	-0.321
Mof_C 	C 	0.8933	0.0797	0.0256	-0.184
Mof_H 	H 	0.8584	0.0803	0.0366	0.069
Mof_H 	H 	0.9097	0.1105	0.0366	0.07
Mof_N 	N 	0.39706	0.20471	0.80415	-0.211
Mof_O 	O 	0.47848	0.42865	0.85053	-0.409
Mof_O 	O 	0.47767	0.42961	0.77157	-0.407
Mof_O 	O 	0.51391	0.06545	0.95138	-0.398
Mof_O 	O 	0.43697	0.02718	0.95132	-0.396
Mof_C 	C 	0.4716	0.40857	0.81127	0.383
Mof_C 	C 	0.4535	0.35449	0.80966	-0.164
Mof_C 	C 	0.44457	0.33107	0.76723	0.111
Mof_H 	H 	0.4508	0.3485	0.7393	0.008
Mof_C 	C 	0.42625	0.28145	0.76554	-0.211
Mof_H 	H 	0.4202	0.266	0.7366	0.107
Mof_C 	C 	0.41707	0.2553	0.80685	0.184
Mof_C 	C 	0.42637	0.279	0.84933	-0.22
Mof_H 	H 	0.4201	0.2617	0.8773	0.117
Mof_C 	C 	0.44456	0.32743	0.85107	0.119
Mof_H 	H 	0.451	0.3425	0.8801	0.01
Mof_C 	C 	0.4688	0.06033	0.93771	0.37
Mof_C 	C 	0.45003	0.09642	0.90037	-0.156
Mof_C 	C 	0.4004	0.09683	0.88734	0.106
Mof_H 	H 	0.3786	0.0727	0.9	0.011
Mof_C 	C 	0.38103	0.13285	0.85519	-0.207
Mof_H 	H 	0.3467	0.1332	0.8475	0.107
Mof_C 	C 	0.41448	0.16801	0.83522	0.189
Mof_C 	C 	0.46485	0.16609	0.8476	-0.217
Mof_H 	H 	0.4874	0.1892	0.8343	0.112
Mof_C 	C 	0.48285	0.13078	0.87931	0.113
Mof_H 	H 	0.5173	0.13	0.8866	0.008
Mof_C 	C 	0.35146	0.19808	0.77693	0.263
Mof_C 	C 	0.3153	0.2346	0.7768	-0.334
Mof_H 	H 	0.3193	0.2641	0.7944	0.153
Mof_C 	C 	0.5168	0.4627	0.6636	0.093
Mof_H 	H 	0.5293	0.4349	0.6801	0.009
Mof_N 	N 	0.5351	0.4206	0.5467	-0.184
Mof_C 	C 	0.5373	0.4124	0.5933	0.102
Mof_H 	H 	0.5486	0.3829	0.6079	-0.003
Mof_C 	C 	0.5187	0.4588	0.6176	-0.178
Mof_O 	O 	0.483	0.514	0.5444	-0.304
Mof_C 	C 	0.5797	0.3933	0.5256	-0.099
Mof_H 	H 	0.5803	0.3584	0.5366	0.058
Mof_H 	H 	0.6105	0.4097	0.5366	0.051
Mof_N 	N 	0.60294	0.79529	0.80415	-0.21
Mof_O 	O 	0.52152	0.57135	0.85053	-0.409
Mof_O 	O 	0.52233	0.57039	0.77157	-0.407
Mof_O 	O 	0.48609	0.93455	0.95138	-0.384
Mof_O 	O 	0.56303	0.97282	0.95132	-0.373
Mof_C 	C 	0.5284	0.59143	0.81127	0.383
Mof_C 	C 	0.5465	0.64551	0.80966	-0.164
Mof_C 	C 	0.55543	0.66893	0.76723	0.112
Mof_H 	H 	0.5492	0.6515	0.7393	0.008
Mof_C 	C 	0.57375	0.71855	0.76554	-0.211
Mof_H 	H 	0.5798	0.734	0.7366	0.108
Mof_C 	C 	0.58293	0.7447	0.80685	0.184
Mof_C 	C 	0.57363	0.721	0.84933	-0.22
Mof_H 	H 	0.5799	0.7383	0.8773	0.118
Mof_C 	C 	0.55544	0.67257	0.85107	0.12
Mof_H 	H 	0.549	0.6575	0.8801	0.01
Mof_C 	C 	0.5312	0.93967	0.93771	0.367
Mof_C 	C 	0.54997	0.90358	0.90037	-0.147
Mof_C 	C 	0.5996	0.90317	0.88734	0.103
Mof_H 	H 	0.6214	0.9273	0.9	0.02
Mof_C 	C 	0.61897	0.86715	0.85519	-0.201
Mof_H 	H 	0.6533	0.8668	0.8475	0.109
Mof_C 	C 	0.58552	0.83199	0.83522	0.188
Mof_C 	C 	0.53515	0.83391	0.8476	-0.211
Mof_H 	H 	0.5126	0.8108	0.8343	0.113
Mof_C 	C 	0.51715	0.86922	0.87931	0.11
Mof_H 	H 	0.4827	0.87	0.8866	0.015
Mof_C 	C 	0.64854	0.80192	0.77693	0.268
Mof_C 	C 	0.6847	0.7654	0.7768	-0.337
Mof_H 	H 	0.6807	0.7359	0.7944	0.156
Mof_C 	C 	0.4832	0.5373	0.6636	0.093
Mof_H 	H 	0.4707	0.5651	0.6801	0.009
Mof_N 	N 	0.4649	0.5794	0.5467	-0.184
Mof_C 	C 	0.4627	0.5876	0.5933	0.102
Mof_H 	H 	0.4514	0.6171	0.6079	-0.002
Mof_C 	C 	0.4813	0.5412	0.6176	-0.178
Mof_O 	O 	0.517	0.486	0.5444	-0.304
Mof_C 	C 	0.4203	0.6067	0.5256	-0.099
Mof_H 	H 	0.4197	0.6416	0.5366	0.06
Mof_H 	H 	0.3895	0.5903	0.5366	0.051
Mof_N 	N 	0.79529	0.39706	0.80415	-0.21
Mof_O 	O 	0.57135	0.47848	0.85053	-0.409
Mof_O 	O 	0.57039	0.47767	0.77157	-0.407
Mof_O 	O 	0.93455	0.51391	0.95138	-0.384
Mof_O 	O 	0.97282	0.43697	0.95132	-0.373
Mof_C 	C 	0.59143	0.4716	0.81127	0.383
Mof_C 	C 	0.64551	0.4535	0.80966	-0.164
Mof_C 	C 	0.66893	0.44457	0.76723	0.112
Mof_H 	H 	0.6515	0.4508	0.7393	0.008
Mof_C 	C 	0.71855	0.42625	0.76554	-0.211
Mof_H 	H 	0.734	0.4202	0.7366	0.108
Mof_C 	C 	0.7447	0.41707	0.80685	0.184
Mof_C 	C 	0.721	0.42637	0.84933	-0.22
Mof_H 	H 	0.7383	0.4201	0.8773	0.117
Mof_C 	C 	0.67257	0.44456	0.85107	0.12
Mof_H 	H 	0.6575	0.451	0.8801	0.01
Mof_C 	C 	0.93967	0.4688	0.93771	0.367
Mof_C 	C 	0.90358	0.45003	0.90037	-0.147
Mof_C 	C 	0.90317	0.4004	0.88734	0.103
Mof_H 	H 	0.9273	0.3786	0.9	0.02
Mof_C 	C 	0.86715	0.38103	0.85519	-0.201
Mof_H 	H 	0.8668	0.3467	0.8475	0.108
Mof_C 	C 	0.83199	0.41448	0.83522	0.188
Mof_C 	C 	0.83391	0.46485	0.8476	-0.211
Mof_H 	H 	0.8108	0.4874	0.8343	0.113
Mof_C 	C 	0.86922	0.48285	0.87931	0.11
Mof_H 	H 	0.87	0.5173	0.8866	0.015
Mof_C 	C 	0.80192	0.35146	0.77693	0.267
Mof_C 	C 	0.7654	0.3153	0.7768	-0.337
Mof_H 	H 	0.7359	0.3193	0.7944	0.154
Mof_C 	C 	0.5373	0.5168	0.6636	0.093
Mof_H 	H 	0.5651	0.5293	0.6801	0.009
Mof_N 	N 	0.5794	0.5351	0.5467	-0.184
Mof_C 	C 	0.5876	0.5373	0.5933	0.102
Mof_H 	H 	0.6171	0.5486	0.6079	-0.002
Mof_C 	C 	0.5412	0.5187	0.6176	-0.178
Mof_O 	O 	0.486	0.483	0.5444	-0.304
Mof_C 	C 	0.6067	0.5797	0.5256	-0.099
Mof_H 	H 	0.6416	0.5803	0.5366	0.06
Mof_H 	H 	0.5903	0.6105	0.5366	0.052
Mof_N 	N 	0.20471	0.60294	0.80415	-0.211
Mof_O 	O 	0.42865	0.52152	0.85053	-0.409
Mof_O 	O 	0.42961	0.52233	0.77157	-0.407
Mof_O 	O 	0.06545	0.48609	0.95138	-0.398
Mof_O 	O 	0.02718	0.56303	0.95132	-0.396
Mof_C 	C 	0.40857	0.5284	0.81127	0.383
Mof_C 	C 	0.35449	0.5465	0.80966	-0.164
Mof_C 	C 	0.33107	0.55543	0.76723	0.112
Mof_H 	H 	0.3485	0.5492	0.7393	0.008
Mof_C 	C 	0.28145	0.57375	0.76554	-0.211
Mof_H 	H 	0.266	0.5798	0.7366	0.108
Mof_C 	C 	0.2553	0.58293	0.80685	0.184
Mof_C 	C 	0.279	0.57363	0.84933	-0.22
Mof_H 	H 	0.2617	0.5799	0.8773	0.117
Mof_C 	C 	0.32743	0.55544	0.85107	0.119
Mof_H 	H 	0.3425	0.549	0.8801	0.01
Mof_C 	C 	0.06033	0.5312	0.93771	0.37
Mof_C 	C 	0.09642	0.54997	0.90037	-0.156
Mof_C 	C 	0.09683	0.5996	0.88734	0.107
Mof_H 	H 	0.0727	0.6214	0.9	0.012
Mof_C 	C 	0.13285	0.61897	0.85519	-0.207
Mof_H 	H 	0.1332	0.6533	0.8475	0.108
Mof_C 	C 	0.16801	0.58552	0.83522	0.19
Mof_C 	C 	0.16609	0.53515	0.8476	-0.217
Mof_H 	H 	0.1892	0.5126	0.8343	0.112
Mof_C 	C 	0.13078	0.51715	0.87931	0.113
Mof_H 	H 	0.13	0.4827	0.8866	0.008
Mof_C 	C 	0.19808	0.64854	0.77693	0.264
Mof_C 	C 	0.2346	0.6847	0.7768	-0.333
Mof_H 	H 	0.2641	0.6807	0.7944	0.154
Mof_C 	C 	0.4627	0.4832	0.6636	0.093
Mof_H 	H 	0.4349	0.4707	0.6801	0.009
Mof_N 	N 	0.4206	0.4649	0.5467	-0.184
Mof_C 	C 	0.4124	0.4627	0.5933	0.102
Mof_H 	H 	0.3829	0.4514	0.6079	-0.003
Mof_C 	C 	0.4588	0.4813	0.6176	-0.178
Mof_O 	O 	0.514	0.517	0.5444	-0.304
Mof_C 	C 	0.3933	0.4203	0.5256	-0.099
Mof_H 	H 	0.3584	0.4197	0.5366	0.058
Mof_H 	H 	0.4097	0.3895	0.5366	0.051
Mof_N 	N 	0.10294	0.70471	0.69585	-0.205
Mof_O 	O 	0.02152	0.92865	0.64947	-0.409
Mof_O 	O 	0.02233	0.92961	0.72843	-0.403
Mof_O 	O 	0.98609	0.56545	0.54862	-0.382
Mof_O 	O 	0.06303	0.52718	0.54868	-0.398
Mof_C 	C 	0.0284	0.90857	0.68873	0.382
Mof_C 	C 	0.0465	0.85449	0.69034	-0.166
Mof_C 	C 	0.05543	0.83107	0.73277	0.112
Mof_H 	H 	0.0492	0.8485	0.7607	0.006
Mof_C 	C 	0.07375	0.78145	0.73446	-0.212
Mof_H 	H 	0.0798	0.766	0.7634	0.108
Mof_C 	C 	0.08293	0.7553	0.69315	0.182
Mof_C 	C 	0.07363	0.779	0.65067	-0.22
Mof_H 	H 	0.0799	0.7617	0.6227	0.111
Mof_C 	C 	0.05544	0.82743	0.64893	0.118
Mof_H 	H 	0.049	0.8425	0.6199	0.003
Mof_C 	C 	0.0312	0.56033	0.56229	0.321
Mof_C 	C 	0.04997	0.59642	0.59963	-0.108
Mof_C 	C 	0.0996	0.59683	0.61266	0.065
Mof_H 	H 	0.1214	0.5727	0.6	0.023
Mof_C 	C 	0.11897	0.63285	0.64481	-0.175
Mof_H 	H 	0.1533	0.6332	0.6525	0.095
Mof_C 	C 	0.08552	0.66801	0.66478	0.157
Mof_C 	C 	0.03515	0.66609	0.6524	-0.159
Mof_H 	H 	0.0126	0.6892	0.6657	0.086
Mof_C 	C 	0.01715	0.63078	0.62069	0.015
Mof_H 	H 	0.9827	0.63	0.6134	0.059
Mof_C 	C 	0.14854	0.69808	0.72307	0.263
Mof_C 	C 	0.1847	0.7346	0.7232	-0.333
Mof_H 	H 	0.1807	0.7641	0.7056	0.153
Mof_C 	C 	0.9832	0.9627	0.8364	0.115
Mof_H 	H 	0.9707	0.9349	0.8199	0.011
Mof_N 	N 	0.9649	0.9206	0.9533	-0.177
Mof_C 	C 	0.9627	0.9124	0.9067	0.088
Mof_H 	H 	0.9514	0.8829	0.8921	0.01
Mof_C 	C 	0.9813	0.9588	0.8824	-0.12
Mof_O 	O 	0.017	0.014	0.9556	-0.312
Mof_C 	C 	0.9203	0.8933	0.9744	-0.012
Mof_H 	H 	0.9197	0.8584	0.9634	0.049
Mof_H 	H 	0.8895	0.9097	0.9634	0.041
Mof_N 	N 	0.89706	0.29529	0.69585	-0.217
Mof_O 	O 	0.97848	0.07135	0.64947	-0.407
Mof_O 	O 	0.97767	0.07039	0.72843	-0.398
Mof_O 	O 	0.01391	0.43455	0.54862	-0.446
Mof_O 	O 	0.93697	0.47282	0.54868	-0.415
Mof_C 	C 	0.9716	0.09143	0.68873	0.381
Mof_C 	C 	0.9535	0.14551	0.69034	-0.163
Mof_C 	C 	0.94457	0.16893	0.73277	0.112
Mof_H 	H 	0.9508	0.1515	0.7607	0.012
Mof_C 	C 	0.92625	0.21855	0.73446	-0.211
Mof_H 	H 	0.9202	0.234	0.7634	0.111
Mof_C 	C 	0.91707	0.2447	0.69315	0.185
Mof_C 	C 	0.92637	0.221	0.65067	-0.222
Mof_H 	H 	0.9201	0.2383	0.6227	0.113
Mof_C 	C 	0.94456	0.17257	0.64893	0.119
Mof_H 	H 	0.951	0.1575	0.6199	0.005
Mof_C 	C 	0.9688	0.43967	0.56229	0.424
Mof_C 	C 	0.95003	0.40358	0.59963	-0.215
Mof_C 	C 	0.9004	0.40317	0.61266	0.152
Mof_H 	H 	0.8786	0.4273	0.6	-0.005
Mof_C 	C 	0.88103	0.36715	0.64481	-0.245
Mof_H 	H 	0.8467	0.3668	0.6525	0.119
Mof_C 	C 	0.91448	0.33199	0.66478	0.225
Mof_C 	C 	0.96485	0.33391	0.6524	-0.281
Mof_H 	H 	0.9874	0.3108	0.6657	0.14
Mof_C 	C 	0.98285	0.36922	0.62069	0.217
Mof_H 	H 	0.0173	0.37	0.6134	-0.048
Mof_C 	C 	0.85146	0.30192	0.72307	0.267
Mof_C 	C 	0.8153	0.2654	0.7232	-0.338
Mof_H 	H 	0.8193	0.2359	0.7056	0.152
Mof_C 	C 	0.0168	0.0373	0.8364	0.048
Mof_H 	H 	0.0293	0.0651	0.8199	0.016
Mof_N 	N 	0.0351	0.0794	0.9533	-0.182
Mof_C 	C 	0.0373	0.0876	0.9067	0.082
Mof_H 	H 	0.0486	0.1171	0.8921	0.002
Mof_C 	C 	0.0187	0.0412	0.8824	-0.146
Mof_O 	O 	0.983	0.986	0.9556	-0.214
Mof_C 	C 	0.0797	0.1067	0.9744	-0.012
Mof_H 	H 	0.0803	0.1416	0.9634	0.042
Mof_H 	H 	0.1105	0.0903	0.9634	0.034
Mof_N 	N 	0.70471	0.89706	0.69585	-0.216
Mof_O 	O 	0.92865	0.97848	0.64947	-0.391
Mof_O 	O 	0.92961	0.97767	0.72843	-0.385
Mof_O 	O 	0.56545	0.01391	0.54862	-0.445
Mof_O 	O 	0.52718	0.93697	0.54868	-0.415
Mof_C 	C 	0.90857	0.9716	0.68873	0.379
Mof_C 	C 	0.85449	0.9535	0.69034	-0.158
Mof_C 	C 	0.83107	0.94457	0.73277	0.111
Mof_H 	H 	0.8485	0.9508	0.7607	0.014
Mof_C 	C 	0.78145	0.92625	0.73446	-0.208
Mof_H 	H 	0.766	0.9202	0.7634	0.111
Mof_C 	C 	0.7553	0.91707	0.69315	0.184
Mof_C 	C 	0.779	0.92637	0.65067	-0.218
Mof_H 	H 	0.7617	0.9201	0.6227	0.113
Mof_C 	C 	0.82743	0.94456	0.64893	0.117
Mof_H 	H 	0.8425	0.951	0.6199	0.01
Mof_C 	C 	0.56033	0.9688	0.56229	0.423
Mof_C 	C 	0.59642	0.95003	0.59963	-0.213
Mof_C 	C 	0.59683	0.9004	0.61266	0.151
Mof_H 	H 	0.5727	0.8786	0.6	-0.005
Mof_C 	C 	0.63285	0.88103	0.64481	-0.244
Mof_H 	H 	0.6332	0.8467	0.6525	0.119
Mof_C 	C 	0.66801	0.91448	0.66478	0.224
Mof_C 	C 	0.66609	0.96485	0.6524	-0.279
Mof_H 	H 	0.6892	0.9874	0.6657	0.14
Mof_C 	C 	0.63078	0.98285	0.62069	0.215
Mof_H 	H 	0.63	0.0173	0.6134	-0.047
Mof_C 	C 	0.69808	0.85146	0.72307	0.268
Mof_C 	C 	0.7346	0.8153	0.7232	-0.337
Mof_H 	H 	0.7641	0.8193	0.7056	0.155
Mof_C 	C 	0.9627	0.0168	0.8364	0.094
Mof_H 	H 	0.9349	0.0293	0.8199	0.006
Mof_N 	N 	0.9206	0.0351	0.9533	-0.183
Mof_C 	C 	0.9124	0.0373	0.9067	0.084
Mof_H 	H 	0.8829	0.0486	0.8921	0.003
Mof_C 	C 	0.9588	0.0187	0.8824	-0.138
Mof_O 	O 	0.014	0.983	0.9556	-0.309
Mof_C 	C 	0.8933	0.0797	0.9744	-0.012
Mof_H 	H 	0.8584	0.0803	0.9634	0.043
Mof_H 	H 	0.9097	0.1105	0.9634	0.042
Mof_N 	N 	0.29529	0.10294	0.69585	-0.205
Mof_O 	O 	0.07135	0.02152	0.64947	-0.427
Mof_O 	O 	0.07039	0.02233	0.72843	-0.419
Mof_O 	O 	0.43455	0.98609	0.54862	-0.381
Mof_O 	O 	0.47282	0.06303	0.54868	-0.398
Mof_C 	C 	0.09143	0.0284	0.68873	0.383
Mof_C 	C 	0.14551	0.0465	0.69034	-0.173
Mof_C 	C 	0.16893	0.05543	0.73277	0.113
Mof_H 	H 	0.1515	0.0492	0.7607	0.003
Mof_C 	C 	0.21855	0.07375	0.73446	-0.215
Mof_H 	H 	0.234	0.0798	0.7634	0.108
Mof_C 	C 	0.2447	0.08293	0.69315	0.183
Mof_C 	C 	0.221	0.07363	0.65067	-0.225
Mof_H 	H 	0.2383	0.0799	0.6227	0.11
Mof_C 	C 	0.17257	0.05544	0.64893	0.12
Mof_H 	H 	0.1575	0.049	0.6199	-0.002
Mof_C 	C 	0.43967	0.0312	0.56229	0.32
Mof_C 	C 	0.40358	0.04997	0.59963	-0.107
Mof_C 	C 	0.40317	0.0996	0.61266	0.064
Mof_H 	H 	0.4273	0.1214	0.6	0.023
Mof_C 	C 	0.36715	0.11897	0.64481	-0.175
Mof_H 	H 	0.3668	0.1533	0.6525	0.094
Mof_C 	C 	0.33199	0.08552	0.66478	0.156
Mof_C 	C 	0.33391	0.03515	0.6524	-0.157
Mof_H 	H 	0.3108	0.0126	0.6657	0.085
Mof_C 	C 	0.36922	0.01715	0.62069	0.013
Mof_H 	H 	0.37	0.9827	0.6134	0.06
Mof_C 	C 	0.30192	0.14854	0.72307	0.262
Mof_C 	C 	0.2654	0.1847	0.7232	-0.333
Mof_H 	H 	0.2359	0.1807	0.7056	0.15
Mof_C 	C 	0.0373	0.9832	0.8364	0.091
Mof_H 	H 	0.0651	0.9707	0.8199	0.015
Mof_N 	N 	0.0794	0.9649	0.9533	-0.173
Mof_C 	C 	0.0876	0.9627	0.9067	0.088
Mof_H 	H 	0.1171	0.9514	0.8921	0.009
Mof_C 	C 	0.0412	0.9813	0.8824	-0.13
Mof_O 	O 	0.986	0.017	0.9556	-0.293
Mof_C 	C 	0.1067	0.9203	0.9744	-0.012
Mof_H 	H 	0.1416	0.9197	0.9634	0.049
Mof_H 	H 	0.0903	0.8895	0.9634	0.034
Mof_Cu	Cu	0.5	0.5	0.14266	0.9
Mof_Cu	Cu	0.5	0.5	0.23598	0.92
Mof_N 	N 	0.5	0.5	0.31069	-0.247
Mof_C 	C 	0.5	0.5	0.4073	0.559
Mof_Cu	Cu	1.44307e-33	0	0.35734	0.88
Mof_Cu	Cu	1.06621e-33	0	0.26402	0.899
Mof_N 	N 	3.32952e-33	2.56501e-33	0.18931	-0.273
Mof_C 	C 	-9.0815e-34	-1.28251e-33	0.0927	0.436
Mof_Cu	Cu	0.5	0.5	0.85734	0.905
Mof_Cu	Cu	0.5	0.5	0.76402	0.919
Mof_N 	N 	0.5	0.5	0.68931	-0.246
Mof_C 	C 	0.5	0.5	0.5927	0.559
Mof_Cu	Cu	-2.53473e-33	0	0.64266	0.88
Mof_Cu	Cu	2.97215e-33	0	0.73598	0.899
Mof_N 	N 	3.27386e-33	0	0.81069	-0.27
Mof_C 	C 	3.66401e-33	0	0.9073	0.42
Mof_Cu	Cu	0.45549	0.97732	-0	0.893
Mof_Cu	Cu	0.54451	0.02268	-0	0.87
Mof_Cu	Cu	0.02268	0.45549	-0	0.87
Mof_Cu	Cu	0.97732	0.54451	-0	0.893
Mof_Cu	Cu	0.04451	0.47732	0.5	0.898
Mof_Cu	Cu	0.95549	0.52268	0.5	0.906
Mof_Cu	Cu	0.47732	0.95549	0.5	0.906
Mof_Cu	Cu	0.52268	0.04451	0.5	0.898
Mof_C 	C 	0.727	0.773	0.25	0.251
Mof_H 	H 	0.752	0.748	0.25	-0.056
Mof_C 	C 	0.65498	0.84502	0.25	-0.332
Mof_H 	H 	0.63	0.87	0.25	0.154
Mof_C 	C 	0.273	0.227	0.25	0.245
Mof_H 	H 	0.248	0.252	0.25	-0.059
Mof_C 	C 	0.34502	0.15498	0.25	-0.328
Mof_H 	H 	0.37	0.13	0.25	0.149
Mof_C 	C 	0.227	0.727	0.25	0.247
Mof_H 	H 	0.252	0.752	0.25	-0.055
Mof_C 	C 	0.15498	0.65498	0.25	-0.328
Mof_H 	H 	0.13	0.63	0.25	0.149
Mof_C 	C 	0.773	0.273	0.25	0.25
Mof_H 	H 	0.748	0.248	0.25	-0.06
Mof_C 	C 	0.84502	0.34502	0.25	-0.332
Mof_H 	H 	0.87	0.37	0.25	0.154
Mof_C 	C 	0.273	0.227	0.75	0.248
Mof_H 	H 	0.248	0.252	0.75	-0.056
Mof_C 	C 	0.34502	0.15498	0.75	-0.328
Mof_H 	H 	0.37	0.13	0.75	0.15
Mof_C 	C 	0.727	0.773	0.75	0.254
Mof_H 	H 	0.752	0.748	0.75	-0.054
Mof_C 	C 	0.65498	0.84502	0.75	-0.333
Mof_H 	H 	0.63	0.87	0.75	0.154
Mof_C 	C 	0.773	0.273	0.75	0.252
Mof_H 	H 	0.748	0.248	0.75	-0.058
Mof_C 	C 	0.84502	0.34502	0.75	-0.333
Mof_H 	H 	0.87	0.37	0.75	0.154
Mof_C 	C 	0.227	0.727	0.75	0.249
Mof_H 	H 	0.252	0.752	0.75	-0.053
Mof_C 	C 	0.15498	0.65498	0.75	-0.328
Mof_H 	H 	0.13	0.63	0.75	0.15
Mof_Cu	Cu	0.4794	0.5286	0.5	0.752
Mof_Cu	Cu	0.5206	0.4714	0.5	0.752
Mof_Cu	Cu	0.4714	0.4794	0.5	0.752
Mof_Cu	Cu	0.5286	0.5206	0.5	0.752
Mof_Cu	Cu	0.0206	0.0286	-0	0.726
Mof_Cu	Cu	0.9794	0.9714	-0	0.73
Mof_Cu	Cu	0.0286	0.9794	-0	0.74
Mof_Cu	Cu	0.9714	0.0206	-0	0.73
_end
