data_functionalizedCrystal
_audit_creation_method	'EQeq! by Chris Wilmer'
_symmetry_space_group_name_H-M	'P1'
_symmetry_Int_Tables_number	1
_symmetry_cell_setting	triclinic
loop_
_symmetry_equiv_pos_as_xyz
  x,y,z
_cell_length_a	7.834
_cell_length_b	13.782
_cell_length_c	13.798
_cell_angle_alpha	107.577
_cell_angle_beta	97.328
_cell_angle_gamma	97.034
loop_
_atom_site_label
_atom_site_type_symbol
_atom_site_fract_x
_atom_site_fract_y
_atom_site_fract_z
_atom_site_charge
Mof_Sr	Sr	0.95569	0.37351	0.873	1.514
Mof_Sr	Sr	0.3979	0.29768	0.79457	1.267
Mof_Sr	Sr	0.04431	0.62649	0.127	1.514
Mof_Sr	Sr	0.6021	0.70232	0.20543	1.267
Mof_Ni	Ni	0.9748	0.75517	0.73631	1.097
Mof_Ni	Ni	0.0252	0.24483	0.26369	1.097
Mof_H 	H 	0.3731	0.5682	0.5297	0.088
Mof_H 	H 	0.2655	0.1523	0.025	-0.015
Mof_H 	H 	0.6558	0.286	0.1956	0.088
Mof_H 	H 	0.2548	0.5382	0.6634	0.002
Mof_H 	H 	0.3442	0.714	0.8044	0.088
Mof_H 	H 	0.7452	0.4618	0.3366	0.002
Mof_H 	H 	0.7163	0.5505	0.6341	-0.011
Mof_H 	H 	0.5735	0.7791	0.7439	0.012
Mof_H 	H 	0.2837	0.4495	0.3659	-0.011
Mof_H 	H 	0.3582	0.0107	0.0555	0.082
Mof_H 	H 	0.7345	0.8477	0.975	-0.014
Mof_H 	H 	0.6418	0.9893	0.9445	0.082
Mof_H 	H 	0.6037	0.3986	0.098	-0.003
Mof_H 	H 	0.7529	0.1511	0.0581	-0.008
Mof_H 	H 	0.6269	0.4318	0.4703	0.089
Mof_H 	H 	0.2471	0.8489	0.9419	-0.008
Mof_H 	H 	0.4265	0.2209	0.2561	0.012
Mof_H 	H 	0.3963	0.6014	0.902	-0.003
Mof_C 	C 	0.206	0.9059	0.9312	0.104
Mof_C 	C 	0.9753	0.6075	0.3277	0.412
Mof_C 	C 	0.232	0.4393	0.42	0.11
Mof_C 	C 	0.546	0.3031	0.183	-0.153
Mof_C 	C 	0.289	0.5104	0.5183	-0.162
Mof_C 	C 	0.325	0.4714	0.0476	0.356
Mof_C 	C 	0.2162	0.3536	0.1471	-0.05
Mof_C 	C 	0.8844	0.2532	0.4457	0.294
Mof_C 	C 	0.4095	0.2657	0.2185	0.079
Mof_C 	C 	0.675	0.5286	0.9524	0.356
Mof_C 	C 	0.7838	0.6464	0.8529	-0.05
Mof_C 	C 	0.9666	0.6574	0.5222	0.008
Mof_C 	C 	0.0334	0.3426	0.4778	0.008
Mof_C 	C 	0.0317	0.1698	0.8836	0.409
Mof_C 	C 	0.1156	0.7468	0.5543	0.294
Mof_C 	C 	0.4878	0.6286	0.8759	0.061
Mof_C 	C 	0.0247	0.3925	0.6723	0.412
Mof_C 	C 	0.1213	0.0539	0.2584	0.274
Mof_C 	C 	0.5122	0.3714	0.1241	0.061
Mof_C 	C 	0.2172	0.4928	0.5966	0.074
Mof_C 	C 	0.794	0.0941	0.0688	0.104
Mof_C 	C 	0.9113	0.9256	0.1018	-0.149
Mof_C 	C 	0.979	0.0257	0.1662	0.025
Mof_C 	C 	0.8787	0.9461	0.7416	0.274
Mof_C 	C 	0.711	0.4896	0.4817	-0.162
Mof_C 	C 	0.0315	0.3726	0.1329	0.373
Mof_C 	C 	0.2169	0.0863	0.9807	0.086
Mof_C 	C 	0.9685	0.6274	0.8671	0.373
Mof_C 	C 	0.7261	0.9977	0.0016	-0.162
Mof_C 	C 	0.0882	0.4079	0.5787	-0.135
Mof_C 	C 	0.7828	0.5072	0.4034	0.074
Mof_C 	C 	0.64	0.6036	0.894	-0.155
Mof_C 	C 	0.5905	0.7343	0.7815	0.079
Mof_C 	C 	0.36	0.3964	0.106	-0.155
Mof_C 	C 	0.768	0.5607	0.58	0.11
Mof_C 	C 	0.9683	0.8302	0.1164	0.409
Mof_C 	C 	0.021	0.9743	0.8338	0.025
Mof_C 	C 	0.2739	0.0023	0.9984	-0.162
Mof_C 	C 	0.454	0.6969	0.817	-0.153
Mof_C 	C 	0.0887	0.0744	0.8982	-0.149
Mof_C 	C 	0.9118	0.5921	0.4213	-0.135
Mof_C 	C 	0.7831	0.9137	0.0193	0.086
Mof_N 	N 	0.8891	0.6406	0.5998	-0.228
Mof_N 	N 	0.919	0.1081	0.1492	-0.224
Mof_N 	N 	0.081	0.8919	0.8508	-0.224
Mof_N 	N 	0.2511	0.2895	0.2026	-0.204
Mof_N 	N 	0.7489	0.7105	0.7974	-0.204
Mof_N 	N 	0.1109	0.3594	0.4002	-0.228
Mof_O 	O 	0.8916	0.4194	0.6994	-0.425
Mof_O 	O 	0.8679	0.6404	0.2736	-0.532
Mof_O 	O 	0.703	0.5614	0.0523	-0.459
Mof_O 	O 	0.336	0.5692	0.0922	-0.54
Mof_O 	O 	0.1317	0.2205	0.8457	-0.536
Mof_O 	O 	0.0008	0.5739	0.9248	-0.499
Mof_O 	O 	0.812	0.2301	0.5109	-0.275
Mof_O 	O 	0.8101	0.0178	0.7226	-0.264
Mof_O 	O 	0.8404	0.2142	0.3481	-0.377
Mof_O 	O 	0.297	0.4386	0.9477	-0.459
Mof_O 	O 	0.9385	0.3398	0.1835	-0.433
Mof_O 	O 	0.9992	0.4261	0.0752	-0.499
Mof_O 	O 	0.664	0.4308	0.9078	-0.54
Mof_O 	O 	0.188	0.7699	0.4891	-0.275
Mof_O 	O 	0.8342	0.8534	0.6906	-0.387
Mof_O 	O 	0.8683	0.7795	0.1543	-0.536
Mof_O 	O 	0.1321	0.3596	0.7264	-0.532
Mof_O 	O 	0.8993	0.1999	0.9161	-0.43
Mof_O 	O 	0.1084	0.5806	0.3006	-0.425
Mof_O 	O 	0.1007	0.8001	0.0839	-0.43
Mof_O 	O 	0.1658	0.1466	0.3094	-0.387
Mof_O 	O 	0.1596	0.7858	0.6519	-0.377
Mof_O 	O 	0.1899	0.9822	0.2774	-0.264
Mof_O 	O 	0.0615	0.6602	0.8165	-0.433
_end
