data_functionalizedCrystal
_audit_creation_method	'EQeq! by Chris Wilmer'
_symmetry_space_group_name_H-M	'P1'
_symmetry_Int_Tables_number	1
_symmetry_cell_setting	triclinic
loop_
_symmetry_equiv_pos_as_xyz
  x,y,z
_cell_length_a	18.9586
_cell_length_b	18.9586
_cell_length_c	38.0589
_cell_angle_alpha	90
_cell_angle_beta	90
_cell_angle_gamma	120
loop_
_atom_site_label
_atom_site_type_symbol
_atom_site_fract_x
_atom_site_fract_y
_atom_site_fract_z
_atom_site_charge
Mof_Zn	Zn	0.80806	0.61646	0.99994	1.189
Mof_Zn	Zn	0.85808	0.71668	0.9346	1.196
Mof_O 	O 	0.9621	0.7786	0.962	-0.503
Mof_O 	O 	0.9252	0.7026	0.0101	-0.462
Mof_C 	C 	0.9719	0.7628	0.9912	0.368
Mof_C 	C 	0.0527	0.822	0.01146	-0.028
Mof_C 	C 	0.1075	0.8934	0.99431	-0.053
Mof_H 	H 	0.0965	0.9034	0.971	0.057
Mof_C 	C 	0.1784	0.9503	0.0112	-0.059
Mof_C 	C 	0.1945	0.9357	0.04524	-0.041
Mof_H 	H 	0.2429	0.9746	0.0568	0.069
Mof_C 	C 	0.1397	0.8643	0.0624	0.024
Mof_C 	C 	0.0688	0.8074	0.0455	-0.058
Mof_H 	H 	0.0313	0.7586	0.0572	0.054
Mof_C 	C 	0.2406	0.0261	0.9935	0.411
Mof_O 	O 	0.2261	0.0346	0.962	-0.48
Mof_O 	O 	0.2991	0.074	0.0083	-0.494
Mof_C 	C 	0.1643	0.843	0.0987	-0.001
Mof_C 	C 	0.1871	0.9025	0.1244	0.089
Mof_C 	C 	0.1978	0.8856	0.1589	-0.099
Mof_H 	H 	0.2134	0.9262	0.1765	0.056
Mof_C 	C 	0.1857	0.8091	0.1677	-0.048
Mof_C 	C 	0.1629	0.7496	0.142	0.174
Mof_C 	C 	0.1522	0.7665	0.1075	-0.156
Mof_H 	H 	0.1367	0.7258	0.0899	0.079
Mof_O 	O 	0.1627	0.6819	0.1518	-0.292
Mof_C 	C 	0.1365	0.616	0.173	0.251
Mof_H 	H 	0.1114	0.6153	0.1962	-0.043
Mof_C 	C 	0.0911	0.5355	0.1472	-0.101
Mof_H 	H 	0.1115	0.4973	0.1515	0.051
Mof_H 	H 	0.0313	0.5064	0.1504	0.042
Mof_C 	C 	0.1161	0.5751	0.1094	-0.3
Mof_H 	H 	0.0931	0.6107	0.1055	0.119
Mof_H 	H 	0.095	0.532	0.0916	0.109
Mof_H 	H 	0.1756	0.6071	0.1077	0.116
Mof_C 	C 	0.2193	0.6144	0.1721	-0.53
Mof_H 	H 	0.2462	0.6352	0.1494	0.181
Mof_H 	H 	0.2079	0.5584	0.1752	0.18
Mof_H 	H 	0.255	0.6487	0.191	0.175
Mof_O 	O 	0.2192	0.986	0.111	-0.238
Mof_C 	C 	0.2596	0.0606	0.1352	0.196
Mof_H 	H 	0.3106	0.0706	0.1473	-0.035
Mof_C 	C 	0.2679	0.1279	0.1097	-0.077
Mof_H 	H 	0.2969	0.1825	0.1207	0.036
Mof_H 	H 	0.296	0.1283	0.0877	0.044
Mof_C 	C 	0.1797	0.1001	0.1035	-0.331
Mof_H 	H 	0.1694	0.0982	0.0782	0.131
Mof_H 	H 	0.166	0.1383	0.1147	0.11
Mof_H 	H 	0.146	0.0457	0.1136	0.132
Mof_C 	C 	0.1831	0.0278	0.1581	-0.493
Mof_H 	H 	0.139	0.9785	0.1473	0.163
Mof_H 	H 	0.1667	0.0691	0.16	0.158
Mof_H 	H 	0.1948	0.0148	0.1815	0.166
Mof_C 	C 	0.0977	0.6384	0.2756	0.307
Mof_O 	O 	0.0339	0.5912	0.2551	-0.447
Mof_O 	O 	0.1177	0.6291	0.3065	-0.459
Mof_O 	O 	0.3695	0.8866	0.3052	-0.448
Mof_O 	O 	0.4084	0.9662	0.25736	-0.481
Mof_C 	C 	0.3564	0.9011	0.2722	0.381
Mof_C 	C 	0.1982	0.8037	0.20638	0.016
Mof_C 	C 	0.2694	0.8594	0.2234	-0.019
Mof_H 	H 	0.3094	0.9061	0.2112	0.041
Mof_C 	C 	0.2821	0.8468	0.2582	-0.132
Mof_C 	C 	0.2236	0.7784	0.27608	0.035
Mof_H 	H 	0.2322	0.7698	0.2999	0.039
Mof_C 	C 	0.1524	0.7227	0.259	-0.067
Mof_C 	C 	0.1397	0.7353	0.2242	-0.036
Mof_H 	H 	0.091	0.6972	0.2125	0.057
Mof_Zn	Zn	0.47473	0.94979	0.33327	1.195
Mof_Zn	Zn	0.52475	0.05001	0.26793	1.201
Mof_O 	O 	0.62877	0.11193	0.29533	-0.516
Mof_O 	O 	0.59187	0.03593	0.34343	-0.495
Mof_C 	C 	0.63857	0.09613	0.32453	0.433
Mof_C 	C 	0.71937	0.15533	0.34479	-0.116
Mof_C 	C 	0.77417	0.22673	0.32764	0.069
Mof_H 	H 	0.76317	0.23673	0.30433	0.026
Mof_C 	C 	0.84507	0.28363	0.34453	-0.157
Mof_C 	C 	0.86117	0.26903	0.37857	0.02
Mof_H 	H 	0.90957	0.30793	0.39013	0.051
Mof_C 	C 	0.80637	0.19763	0.39573	-0.018
Mof_C 	C 	0.73547	0.14073	0.37883	-0.001
Mof_H 	H 	0.69797	0.09193	0.39053	0.038
Mof_C 	C 	0.90727	0.35943	0.32683	0.492
Mof_O 	O 	0.89277	0.36793	0.29533	-0.494
Mof_O 	O 	0.96577	0.40733	0.34163	-0.538
Mof_C 	C 	0.83097	0.17633	0.43203	0.016
Mof_C 	C 	0.85377	0.23583	0.45773	0.084
Mof_C 	C 	0.86447	0.21893	0.49223	-0.093
Mof_H 	H 	0.88007	0.25953	0.50983	0.057
Mof_C 	C 	0.85237	0.14243	0.50103	-0.052
Mof_C 	C 	0.82957	0.08293	0.47533	0.18
Mof_C 	C 	0.81887	0.09983	0.44083	-0.163
Mof_H 	H 	0.80337	0.05913	0.42323	0.084
Mof_O 	O 	0.82937	0.01523	0.48513	-0.283
Mof_C 	C 	0.80317	0.94933	0.50633	0.242
Mof_H 	H 	0.77807	0.94863	0.52953	-0.042
Mof_C 	C 	0.75777	0.86883	0.48053	-0.102
Mof_H 	H 	0.77817	0.83063	0.48483	0.052
Mof_H 	H 	0.69797	0.83973	0.48373	0.042
Mof_C 	C 	0.78277	0.90843	0.44273	-0.295
Mof_H 	H 	0.75977	0.94403	0.43883	0.114
Mof_H 	H 	0.76167	0.86533	0.42493	0.106
Mof_H 	H 	0.84227	0.94043	0.44103	0.113
Mof_C 	C 	0.88597	0.94773	0.50543	-0.526
Mof_H 	H 	0.91287	0.96853	0.48273	0.18
Mof_H 	H 	0.87457	0.89173	0.50853	0.18
Mof_H 	H 	0.92167	0.98203	0.52433	0.174
Mof_O 	O 	0.88587	0.31933	0.44433	-0.232
Mof_C 	C 	0.92627	0.39393	0.46853	0.203
Mof_H 	H 	0.97727	0.40393	0.48063	-0.038
Mof_C 	C 	0.93457	0.46123	0.44303	-0.087
Mof_H 	H 	0.96357	0.51583	0.45403	0.04
Mof_H 	H 	0.96267	0.46163	0.42103	0.046
Mof_C 	C 	0.84637	0.43343	0.43683	-0.319
Mof_H 	H 	0.83607	0.43153	0.41153	0.125
Mof_H 	H 	0.83267	0.47163	0.44803	0.107
Mof_H 	H 	0.81267	0.37903	0.44693	0.125
Mof_C 	C 	0.84977	0.36113	0.49143	-0.527
Mof_H 	H 	0.80567	0.31183	0.48063	0.18
Mof_H 	H 	0.83337	0.40243	0.49333	0.168
Mof_H 	H 	0.86147	0.34813	0.51483	0.174
Mof_C 	C 	0.76437	0.97173	0.60893	0.297
Mof_O 	O 	0.70057	0.92453	0.58843	-0.444
Mof_O 	O 	0.78437	0.96243	0.63983	-0.456
Mof_O 	O 	0.03617	0.21993	0.63853	-0.444
Mof_O 	O 	0.07507	0.29953	0.59069	-0.476
Mof_C 	C 	0.02307	0.23443	0.60553	0.364
Mof_C 	C 	0.86487	0.13703	0.53971	0.028
Mof_C 	C 	0.93607	0.19273	0.55673	-0.031
Mof_H 	H 	0.97607	0.23943	0.54453	0.049
Mof_C 	C 	0.94877	0.18013	0.59153	-0.108
Mof_C 	C 	0.89027	0.11173	0.60941	0.02
Mof_H 	H 	0.89887	0.10313	0.63323	0.049
Mof_C 	C 	0.81907	0.05603	0.59233	-0.048
Mof_C 	C 	0.80637	0.06863	0.55753	-0.047
Mof_H 	H 	0.75767	0.03053	0.54583	0.065
Mof_Zn	Zn	0.14139	0.28313	0.66661	1.198
Mof_Zn	Zn	0.19141	0.38335	0.60127	1.198
Mof_O 	O 	0.29543	0.44527	0.62867	-0.519
Mof_O 	O 	0.25853	0.36927	0.67677	-0.499
Mof_C 	C 	0.30523	0.42947	0.65787	0.434
Mof_C 	C 	0.38603	0.48867	0.67813	-0.118
Mof_C 	C 	0.44083	0.56007	0.66098	0.07
Mof_H 	H 	0.42983	0.57007	0.63767	0.025
Mof_C 	C 	0.51173	0.61697	0.67787	-0.16
Mof_C 	C 	0.52783	0.60237	0.71191	0.021
Mof_H 	H 	0.57623	0.64127	0.72347	0.05
Mof_C 	C 	0.47303	0.53097	0.72907	-0.019
Mof_C 	C 	0.40213	0.47407	0.71217	-0
Mof_H 	H 	0.36463	0.42527	0.72387	0.037
Mof_C 	C 	0.57393	0.69277	0.66017	0.494
Mof_O 	O 	0.55943	0.70127	0.62867	-0.497
Mof_O 	O 	0.63243	0.74067	0.67497	-0.542
Mof_C 	C 	0.49763	0.50967	0.76537	0.015
Mof_C 	C 	0.52043	0.56917	0.79107	0.083
Mof_C 	C 	0.53113	0.55227	0.82557	-0.095
Mof_H 	H 	0.54673	0.59287	0.84317	0.056
Mof_C 	C 	0.51903	0.47577	0.83437	-0.051
Mof_C 	C 	0.49623	0.41627	0.80867	0.179
Mof_C 	C 	0.48553	0.43317	0.77417	-0.165
Mof_H 	H 	0.47003	0.39247	0.75657	0.082
Mof_O 	O 	0.49603	0.34857	0.81847	-0.293
Mof_C 	C 	0.46983	0.28267	0.83967	0.253
Mof_H 	H 	0.44473	0.28197	0.86287	-0.043
Mof_C 	C 	0.42443	0.20217	0.81387	-0.103
Mof_H 	H 	0.44483	0.16397	0.81817	0.053
Mof_H 	H 	0.36463	0.17307	0.81707	0.044
Mof_C 	C 	0.44943	0.24177	0.77607	-0.298
Mof_H 	H 	0.42643	0.27737	0.77217	0.118
Mof_H 	H 	0.42833	0.19867	0.75827	0.109
Mof_H 	H 	0.50893	0.27377	0.77437	0.115
Mof_C 	C 	0.55263	0.28107	0.83877	-0.531
Mof_H 	H 	0.57953	0.30187	0.81607	0.181
Mof_H 	H 	0.54123	0.22507	0.84187	0.18
Mof_H 	H 	0.58833	0.31537	0.85767	0.176
Mof_O 	O 	0.55253	0.65267	0.77767	-0.232
Mof_C 	C 	0.59293	0.72727	0.80187	0.2
Mof_H 	H 	0.64393	0.73727	0.81397	-0.04
Mof_C 	C 	0.60123	0.79457	0.77637	-0.083
Mof_H 	H 	0.63023	0.84917	0.78737	0.036
Mof_H 	H 	0.62933	0.79497	0.75437	0.044
Mof_C 	C 	0.51303	0.76677	0.77017	-0.321
Mof_H 	H 	0.50273	0.76487	0.74487	0.125
Mof_H 	H 	0.49933	0.80497	0.78137	0.107
Mof_H 	H 	0.47933	0.71237	0.78027	0.126
Mof_C 	C 	0.51643	0.69447	0.82477	-0.521
Mof_H 	H 	0.47233	0.64517	0.81397	0.178
Mof_H 	H 	0.50003	0.73577	0.82667	0.164
Mof_H 	H 	0.52813	0.68147	0.84817	0.17
Mof_C 	C 	0.43103	0.30507	0.94227	0.308
Mof_O 	O 	0.36723	0.25787	0.92177	-0.446
Mof_O 	O 	0.45103	0.29577	0.97317	-0.463
Mof_O 	O 	0.70283	0.55327	0.97187	-0.453
Mof_O 	O 	0.74173	0.63287	0.92403	-0.48
Mof_C 	C 	0.68973	0.56777	0.93887	0.381
Mof_C 	C 	0.53153	0.47037	0.87305	0.017
Mof_C 	C 	0.60273	0.52607	0.89007	-0.019
Mof_H 	H 	0.64273	0.57277	0.87787	0.041
Mof_C 	C 	0.61543	0.51347	0.92487	-0.133
Mof_C 	C 	0.55693	0.44507	0.94275	0.036
Mof_H 	H 	0.56553	0.43647	0.96657	0.036
Mof_C 	C 	0.48573	0.38937	0.92567	-0.069
Mof_C 	C 	0.47303	0.40197	0.89087	-0.036
Mof_H 	H 	0.42433	0.36387	0.87917	0.058
Mof_Zn	Zn	0.38354	0.1916	0.99994	1.189
Mof_Zn	Zn	0.28332	0.1414	0.9346	1.196
Mof_O 	O 	0.2214	0.1835	0.962	-0.502
Mof_O 	O 	0.2974	0.2226	0.0101	-0.462
Mof_C 	C 	0.2372	0.2091	0.9912	0.358
Mof_C 	C 	0.178	0.2307	0.01146	-0.014
Mof_C 	C 	0.1066	0.2141	0.99431	-0.062
Mof_H 	H 	0.0966	0.1931	0.971	0.062
Mof_C 	C 	0.0497	0.2281	0.0112	-0.052
Mof_C 	C 	0.0643	0.2588	0.04524	-0.046
Mof_H 	H 	0.0254	0.2683	0.0568	0.071
Mof_C 	C 	0.1357	0.2754	0.0624	0.03
Mof_C 	C 	0.1926	0.2614	0.0455	-0.065
Mof_H 	H 	0.2414	0.2727	0.0572	0.059
Mof_C 	C 	0.9739	0.2145	0.9935	0.408
Mof_O 	O 	0.9654	0.1915	0.962	-0.477
Mof_O 	O 	0.926	0.2251	0.0083	-0.493
Mof_C 	C 	0.157	0.3213	0.0987	-0.002
Mof_C 	C 	0.0975	0.2846	0.1244	0.09
Mof_C 	C 	0.1144	0.3122	0.1589	-0.099
Mof_H 	H 	0.0738	0.2872	0.1765	0.056
Mof_C 	C 	0.1909	0.3766	0.1677	-0.047
Mof_C 	C 	0.2504	0.4133	0.142	0.175
Mof_C 	C 	0.2335	0.3857	0.1075	-0.155
Mof_H 	H 	0.2742	0.4109	0.0899	0.079
Mof_O 	O 	0.3181	0.4808	0.1518	-0.292
Mof_C 	C 	0.384	0.5205	0.173	0.252
Mof_H 	H 	0.3847	0.4961	0.1962	-0.042
Mof_C 	C 	0.4645	0.5556	0.1472	-0.101
Mof_H 	H 	0.5027	0.6142	0.1515	0.052
Mof_H 	H 	0.4936	0.5249	0.1504	0.044
Mof_C 	C 	0.4249	0.541	0.1094	-0.301
Mof_H 	H 	0.3893	0.4824	0.1055	0.12
Mof_H 	H 	0.468	0.563	0.0916	0.111
Mof_H 	H 	0.3929	0.5685	0.1077	0.117
Mof_C 	C 	0.3856	0.6049	0.1721	-0.53
Mof_H 	H 	0.3648	0.611	0.1494	0.181
Mof_H 	H 	0.4416	0.6495	0.1752	0.18
Mof_H 	H 	0.3513	0.6063	0.191	0.176
Mof_O 	O 	0.014	0.2332	0.111	-0.238
Mof_C 	C 	0.9394	0.199	0.1352	0.198
Mof_H 	H 	0.9294	0.24	0.1473	-0.035
Mof_C 	C 	0.8721	0.14	0.1097	-0.074
Mof_H 	H 	0.8175	0.1144	0.1207	0.037
Mof_H 	H 	0.8717	0.1677	0.0877	0.044
Mof_C 	C 	0.8999	0.0796	0.1035	-0.338
Mof_H 	H 	0.9018	0.0712	0.0782	0.135
Mof_H 	H 	0.8617	0.0277	0.1147	0.115
Mof_H 	H 	0.9543	0.1003	0.1136	0.135
Mof_C 	C 	0.9722	0.1553	0.1581	-0.499
Mof_H 	H 	0.0215	0.1605	0.1473	0.167
Mof_H 	H 	0.9309	0.0976	0.16	0.162
Mof_H 	H 	0.9852	0.18	0.1815	0.169
Mof_C 	C 	0.3616	0.4593	0.2756	0.307
Mof_O 	O 	0.4088	0.4427	0.2551	-0.444
Mof_O 	O 	0.3709	0.4886	0.3065	-0.457
Mof_O 	O 	0.1134	0.4829	0.3052	-0.448
Mof_O 	O 	0.0338	0.4422	0.25736	-0.481
Mof_C 	C 	0.0989	0.4553	0.2722	0.381
Mof_C 	C 	0.1963	0.3945	0.20638	0.017
Mof_C 	C 	0.1406	0.41	0.2234	-0.019
Mof_H 	H 	0.0939	0.4033	0.2112	0.041
Mof_C 	C 	0.1532	0.4353	0.2582	-0.131
Mof_C 	C 	0.2216	0.4452	0.27608	0.035
Mof_H 	H 	0.2302	0.4624	0.2999	0.04
Mof_C 	C 	0.2773	0.4297	0.259	-0.066
Mof_C 	C 	0.2647	0.4044	0.2242	-0.036
Mof_H 	H 	0.3028	0.3938	0.2125	0.059
Mof_Zn	Zn	0.05021	0.52493	0.33327	1.195
Mof_Zn	Zn	0.94999	0.47473	0.26793	1.201
Mof_O 	O 	0.88807	0.51683	0.29533	-0.517
Mof_O 	O 	0.96407	0.55593	0.34343	-0.496
Mof_C 	C 	0.90387	0.54243	0.32453	0.433
Mof_C 	C 	0.84467	0.56403	0.34479	-0.117
Mof_C 	C 	0.77327	0.54743	0.32764	0.07
Mof_H 	H 	0.76327	0.52643	0.30433	0.026
Mof_C 	C 	0.71637	0.56143	0.34453	-0.159
Mof_C 	C 	0.73097	0.59213	0.37857	0.02
Mof_H 	H 	0.69207	0.60163	0.39013	0.05
Mof_C 	C 	0.80237	0.60873	0.39573	-0.019
Mof_C 	C 	0.85927	0.59473	0.37883	-0.001
Mof_H 	H 	0.90807	0.60603	0.39053	0.038
Mof_C 	C 	0.64057	0.54783	0.32683	0.493
Mof_O 	O 	0.63207	0.52483	0.29533	-0.497
Mof_O 	O 	0.59267	0.55843	0.34163	-0.542
Mof_C 	C 	0.82367	0.65463	0.43203	0.015
Mof_C 	C 	0.76417	0.61793	0.45773	0.084
Mof_C 	C 	0.78107	0.64553	0.49223	-0.095
Mof_H 	H 	0.74047	0.62053	0.50983	0.057
Mof_C 	C 	0.85757	0.70993	0.50103	-0.05
Mof_C 	C 	0.91707	0.74663	0.47533	0.177
Mof_C 	C 	0.90017	0.71903	0.44083	-0.163
Mof_H 	H 	0.94087	0.74423	0.42323	0.083
Mof_O 	O 	0.98477	0.81413	0.48513	-0.283
Mof_C 	C 	0.05067	0.85383	0.50633	0.238
Mof_H 	H 	0.05137	0.82943	0.52953	-0.042
Mof_C 	C 	0.13117	0.88893	0.48053	-0.101
Mof_H 	H 	0.16937	0.94753	0.48483	0.049
Mof_H 	H 	0.16027	0.85823	0.48373	0.041
Mof_C 	C 	0.09157	0.87433	0.44273	-0.293
Mof_H 	H 	0.05597	0.81573	0.43883	0.113
Mof_H 	H 	0.13467	0.89633	0.42493	0.103
Mof_H 	H 	0.05957	0.90183	0.44103	0.11
Mof_C 	C 	0.05227	0.93823	0.50543	-0.514
Mof_H 	H 	0.03147	0.94433	0.48273	0.172
Mof_H 	H 	0.10827	0.98283	0.50853	0.173
Mof_H 	H 	0.01797	0.93963	0.52433	0.166
Mof_O 	O 	0.68067	0.56653	0.44433	-0.232
Mof_C 	C 	0.60607	0.53233	0.46853	0.202
Mof_H 	H 	0.59607	0.57333	0.48063	-0.04
Mof_C 	C 	0.53877	0.47333	0.44303	-0.085
Mof_H 	H 	0.48417	0.44773	0.45403	0.038
Mof_H 	H 	0.53837	0.50103	0.42103	0.044
Mof_C 	C 	0.56657	0.41293	0.43683	-0.32
Mof_H 	H 	0.56847	0.40453	0.41153	0.125
Mof_H 	H 	0.52837	0.36103	0.44803	0.107
Mof_H 	H 	0.62097	0.43363	0.44693	0.126
Mof_C 	C 	0.63887	0.48863	0.49143	-0.525
Mof_H 	H 	0.68817	0.49383	0.48063	0.18
Mof_H 	H 	0.59757	0.43093	0.49333	0.167
Mof_H 	H 	0.65187	0.51333	0.51483	0.173
Mof_C 	C 	0.02827	0.79263	0.60893	0.298
Mof_O 	O 	0.07547	0.77603	0.58843	-0.445
Mof_O 	O 	0.03757	0.82193	0.63983	-0.458
Mof_O 	O 	0.78007	0.81623	0.63853	-0.445
Mof_O 	O 	0.70047	0.77553	0.59069	-0.477
Mof_C 	C 	0.76557	0.78863	0.60553	0.378
Mof_C 	C 	0.86297	0.72783	0.53971	0.023
Mof_C 	C 	0.80727	0.74333	0.55673	-0.023
Mof_H 	H 	0.76057	0.73663	0.54453	0.043
Mof_C 	C 	0.81987	0.76863	0.59153	-0.126
Mof_C 	C 	0.88827	0.77853	0.60941	0.029
Mof_H 	H 	0.89687	0.79573	0.63323	0.044
Mof_C 	C 	0.94397	0.76303	0.59233	-0.053
Mof_C 	C 	0.93137	0.73773	0.55753	-0.042
Mof_H 	H 	0.96947	0.72713	0.54583	0.063
Mof_Zn	Zn	0.71687	0.85827	0.66661	1.198
Mof_Zn	Zn	0.61665	0.80807	0.60127	1.198
Mof_O 	O 	0.55473	0.85017	0.62867	-0.52
Mof_O 	O 	0.63073	0.88927	0.67677	-0.5
Mof_C 	C 	0.57053	0.87577	0.65787	0.434
Mof_C 	C 	0.51133	0.89737	0.67813	-0.118
Mof_C 	C 	0.43993	0.88077	0.66098	0.069
Mof_H 	H 	0.42993	0.85977	0.63767	0.025
Mof_C 	C 	0.38303	0.89477	0.67787	-0.159
Mof_C 	C 	0.39763	0.92547	0.71191	0.018
Mof_H 	H 	0.35873	0.93497	0.72347	0.05
Mof_C 	C 	0.46903	0.94207	0.72907	-0.015
Mof_C 	C 	0.52593	0.92807	0.71217	-0.004
Mof_H 	H 	0.57473	0.93937	0.72387	0.036
Mof_C 	C 	0.30723	0.88117	0.66017	0.493
Mof_O 	O 	0.29873	0.85817	0.62867	-0.498
Mof_O 	O 	0.25933	0.89177	0.67497	-0.543
Mof_C 	C 	0.49033	0.98797	0.76537	-0.002
Mof_C 	C 	0.43083	0.95127	0.79107	0.093
Mof_C 	C 	0.44773	0.97887	0.82557	-0.115
Mof_H 	H 	0.40713	0.95387	0.84317	0.06
Mof_C 	C 	0.52423	0.04327	0.83437	-0.033
Mof_C 	C 	0.58373	0.07997	0.80867	0.168
Mof_C 	C 	0.56683	0.05237	0.77417	-0.144
Mof_H 	H 	0.60753	0.07757	0.75657	0.077
Mof_O 	O 	0.65143	0.14747	0.81847	-0.29
Mof_C 	C 	0.71733	0.18717	0.83967	0.251
Mof_H 	H 	0.71803	0.16277	0.86287	-0.042
Mof_C 	C 	0.79783	0.22227	0.81387	-0.102
Mof_H 	H 	0.83603	0.28087	0.81817	0.053
Mof_H 	H 	0.82693	0.19157	0.81707	0.045
Mof_C 	C 	0.75823	0.20767	0.77607	-0.3
Mof_H 	H 	0.72263	0.14907	0.77217	0.12
Mof_H 	H 	0.80133	0.22967	0.75827	0.11
Mof_H 	H 	0.72623	0.23517	0.77437	0.116
Mof_C 	C 	0.71893	0.27157	0.83877	-0.53
Mof_H 	H 	0.69813	0.27767	0.81607	0.181
Mof_H 	H 	0.77493	0.31617	0.84187	0.18
Mof_H 	H 	0.68463	0.27297	0.85767	0.175
Mof_O 	O 	0.34733	0.89987	0.77767	-0.234
Mof_C 	C 	0.27273	0.86567	0.80187	0.2
Mof_H 	H 	0.26273	0.90667	0.81397	-0.042
Mof_C 	C 	0.20543	0.80667	0.77637	-0.083
Mof_H 	H 	0.15083	0.78107	0.78737	0.035
Mof_H 	H 	0.20503	0.83437	0.75437	0.042
Mof_C 	C 	0.23323	0.74627	0.77017	-0.322
Mof_H 	H 	0.23513	0.73787	0.74487	0.126
Mof_H 	H 	0.19503	0.69437	0.78137	0.107
Mof_H 	H 	0.28763	0.76697	0.78027	0.126
Mof_C 	C 	0.30553	0.82197	0.82477	-0.52
Mof_H 	H 	0.35483	0.82717	0.81397	0.177
Mof_H 	H 	0.26423	0.76427	0.82667	0.164
Mof_H 	H 	0.31853	0.84667	0.84817	0.168
Mof_C 	C 	0.69493	0.12597	0.94227	0.308
Mof_O 	O 	0.74213	0.10937	0.92177	-0.445
Mof_O 	O 	0.70423	0.15527	0.97317	-0.462
Mof_O 	O 	0.44673	0.14957	0.97187	-0.452
Mof_O 	O 	0.36713	0.10887	0.92403	-0.48
Mof_C 	C 	0.43223	0.12197	0.93887	0.382
Mof_C 	C 	0.52963	0.06117	0.87305	0.013
Mof_C 	C 	0.47393	0.07667	0.89007	-0.015
Mof_H 	H 	0.42723	0.06997	0.87787	0.041
Mof_C 	C 	0.48653	0.10197	0.92487	-0.134
Mof_C 	C 	0.55493	0.11187	0.94275	0.037
Mof_H 	H 	0.56353	0.12907	0.96657	0.037
Mof_C 	C 	0.61063	0.09637	0.92567	-0.069
Mof_C 	C 	0.59803	0.07107	0.89087	-0.033
Mof_H 	H 	0.63613	0.06047	0.87917	0.058
Mof_Zn	Zn	0.8084	0.19194	0.99994	1.189
Mof_Zn	Zn	0.8586	0.14192	0.9346	1.196
Mof_O 	O 	0.8165	0.0379	0.962	-0.501
Mof_O 	O 	0.7774	0.0748	0.0101	-0.461
Mof_C 	C 	0.7909	0.0281	0.9912	0.366
Mof_C 	C 	0.7693	0.9473	0.01146	-0.021
Mof_C 	C 	0.7859	0.8925	0.99431	-0.063
Mof_H 	H 	0.8069	0.9035	0.971	0.063
Mof_C 	C 	0.7719	0.8216	0.0112	-0.043
Mof_C 	C 	0.7412	0.8055	0.04524	-0.049
Mof_H 	H 	0.7317	0.7571	0.0568	0.074
Mof_C 	C 	0.7246	0.8603	0.0624	0.03
Mof_C 	C 	0.7386	0.9312	0.0455	-0.063
Mof_H 	H 	0.7273	0.9687	0.0572	0.056
Mof_C 	C 	0.7855	0.7594	0.9935	0.399
Mof_O 	O 	0.8085	0.7739	0.962	-0.479
Mof_O 	O 	0.7749	0.7009	0.0083	-0.492
Mof_C 	C 	0.6787	0.8357	0.0987	-0.002
Mof_C 	C 	0.7154	0.8129	0.1244	0.09
Mof_C 	C 	0.6878	0.8022	0.1589	-0.1
Mof_H 	H 	0.7128	0.7866	0.1765	0.058
Mof_C 	C 	0.6234	0.8143	0.1677	-0.047
Mof_C 	C 	0.5867	0.8371	0.142	0.174
Mof_C 	C 	0.6143	0.8478	0.1075	-0.155
Mof_H 	H 	0.5891	0.8633	0.0899	0.079
Mof_O 	O 	0.5192	0.8373	0.1518	-0.292
Mof_C 	C 	0.4795	0.8635	0.173	0.251
Mof_H 	H 	0.5039	0.8886	0.1962	-0.043
Mof_C 	C 	0.4444	0.9089	0.1472	-0.101
Mof_H 	H 	0.3858	0.8885	0.1515	0.051
Mof_H 	H 	0.4751	0.9687	0.1504	0.042
Mof_C 	C 	0.459	0.8839	0.1094	-0.3
Mof_H 	H 	0.5176	0.9069	0.1055	0.119
Mof_H 	H 	0.437	0.905	0.0916	0.109
Mof_H 	H 	0.4315	0.8244	0.1077	0.116
Mof_C 	C 	0.3951	0.7807	0.1721	-0.53
Mof_H 	H 	0.389	0.7538	0.1494	0.181
Mof_H 	H 	0.3505	0.7921	0.1752	0.18
Mof_H 	H 	0.3937	0.745	0.191	0.175
Mof_O 	O 	0.7668	0.7808	0.111	-0.234
Mof_C 	C 	0.801	0.7404	0.1352	0.202
Mof_H 	H 	0.76	0.6894	0.1473	-0.039
Mof_C 	C 	0.86	0.7321	0.1097	-0.083
Mof_H 	H 	0.8856	0.7031	0.1207	0.039
Mof_H 	H 	0.8323	0.704	0.0877	0.045
Mof_C 	C 	0.9204	0.8203	0.1035	-0.326
Mof_H 	H 	0.9288	0.8306	0.0782	0.129
Mof_H 	H 	0.9723	0.834	0.1147	0.111
Mof_H 	H 	0.8997	0.854	0.1136	0.128
Mof_C 	C 	0.8447	0.8169	0.1581	-0.524
Mof_H 	H 	0.8395	0.861	0.1473	0.178
Mof_H 	H 	0.9024	0.8333	0.16	0.167
Mof_H 	H 	0.82	0.8052	0.1815	0.172
Mof_C 	C 	0.5407	0.9023	0.2756	0.307
Mof_O 	O 	0.5573	0.9661	0.2551	-0.447
Mof_O 	O 	0.5114	0.8823	0.3065	-0.458
Mof_O 	O 	0.5171	0.6305	0.3052	-0.446
Mof_O 	O 	0.5578	0.5916	0.25736	-0.477
Mof_C 	C 	0.5447	0.6436	0.2722	0.38
Mof_C 	C 	0.6055	0.8018	0.20638	0.017
Mof_C 	C 	0.59	0.7306	0.2234	-0.019
Mof_H 	H 	0.5967	0.6906	0.2112	0.042
Mof_C 	C 	0.5647	0.7179	0.2582	-0.13
Mof_C 	C 	0.5548	0.7764	0.27608	0.035
Mof_H 	H 	0.5376	0.7678	0.2999	0.04
Mof_C 	C 	0.5703	0.8476	0.259	-0.066
Mof_C 	C 	0.5956	0.8603	0.2242	-0.036
Mof_H 	H 	0.6062	0.909	0.2125	0.057
Mof_Zn	Zn	0.47507	0.52527	0.33327	1.198
Mof_Zn	Zn	0.52527	0.47525	0.26793	1.198
Mof_O 	O 	0.48317	0.37123	0.29533	-0.519
Mof_O 	O 	0.44407	0.40813	0.34343	-0.499
Mof_C 	C 	0.45757	0.36143	0.32453	0.434
Mof_C 	C 	0.43597	0.28063	0.34479	-0.118
Mof_C 	C 	0.45257	0.22583	0.32764	0.07
Mof_H 	H 	0.47357	0.23683	0.30433	0.026
Mof_C 	C 	0.43857	0.15493	0.34453	-0.158
Mof_C 	C 	0.40787	0.13883	0.37857	0.021
Mof_H 	H 	0.39837	0.09043	0.39013	0.051
Mof_C 	C 	0.39127	0.19363	0.39573	-0.019
Mof_C 	C 	0.40527	0.26453	0.37883	-0.001
Mof_H 	H 	0.39397	0.30203	0.39053	0.037
Mof_C 	C 	0.45217	0.09273	0.32683	0.492
Mof_O 	O 	0.47517	0.10723	0.29533	-0.495
Mof_O 	O 	0.44157	0.03423	0.34163	-0.538
Mof_C 	C 	0.34537	0.16903	0.43203	0.016
Mof_C 	C 	0.38207	0.14623	0.45773	0.083
Mof_C 	C 	0.35447	0.13553	0.49223	-0.093
Mof_H 	H 	0.37947	0.11993	0.50983	0.057
Mof_C 	C 	0.29007	0.14763	0.50103	-0.052
Mof_C 	C 	0.25337	0.17043	0.47533	0.18
Mof_C 	C 	0.28097	0.18113	0.44083	-0.165
Mof_H 	H 	0.25577	0.19663	0.42323	0.082
Mof_O 	O 	0.18587	0.17063	0.48513	-0.293
Mof_C 	C 	0.14617	0.19683	0.50633	0.252
Mof_H 	H 	0.17057	0.22193	0.52953	-0.043
Mof_C 	C 	0.11107	0.24223	0.48053	-0.102
Mof_H 	H 	0.05247	0.22183	0.48483	0.05
Mof_H 	H 	0.14177	0.30203	0.48373	0.042
Mof_C 	C 	0.12567	0.21723	0.44273	-0.297
Mof_H 	H 	0.18427	0.24023	0.43883	0.118
Mof_H 	H 	0.10367	0.23833	0.42493	0.106
Mof_H 	H 	0.09817	0.15773	0.44103	0.114
Mof_C 	C 	0.06177	0.11403	0.50543	-0.53
Mof_H 	H 	0.05567	0.08713	0.48273	0.182
Mof_H 	H 	0.01717	0.12543	0.50853	0.178
Mof_H 	H 	0.06037	0.07833	0.52433	0.177
Mof_O 	O 	0.43347	0.11413	0.44433	-0.232
Mof_C 	C 	0.46767	0.07373	0.46853	0.203
Mof_H 	H 	0.42667	0.02273	0.48063	-0.038
Mof_C 	C 	0.52667	0.06543	0.44303	-0.087
Mof_H 	H 	0.55227	0.03643	0.45403	0.04
Mof_H 	H 	0.49897	0.03733	0.42103	0.046
Mof_C 	C 	0.58707	0.15363	0.43683	-0.319
Mof_H 	H 	0.59547	0.16393	0.41153	0.125
Mof_H 	H 	0.63897	0.16733	0.44803	0.107
Mof_H 	H 	0.56637	0.18733	0.44693	0.125
Mof_C 	C 	0.51137	0.15023	0.49143	-0.527
Mof_H 	H 	0.50617	0.19433	0.48063	0.18
Mof_H 	H 	0.56907	0.16663	0.49333	0.168
Mof_H 	H 	0.48667	0.13853	0.51483	0.174
Mof_C 	C 	0.20737	0.23563	0.60893	0.306
Mof_O 	O 	0.22397	0.29943	0.58843	-0.444
Mof_O 	O 	0.17807	0.21563	0.63983	-0.456
Mof_O 	O 	0.18377	0.96383	0.63853	-0.446
Mof_O 	O 	0.22447	0.92493	0.59069	-0.477
Mof_C 	C 	0.21137	0.97693	0.60553	0.366
Mof_C 	C 	0.27217	0.13513	0.53971	0.025
Mof_C 	C 	0.25667	0.06393	0.55673	-0.028
Mof_H 	H 	0.26337	0.02393	0.54453	0.048
Mof_C 	C 	0.23137	0.05123	0.59153	-0.113
Mof_C 	C 	0.22147	0.10973	0.60941	0.026
Mof_H 	H 	0.20427	0.10113	0.63323	0.045
Mof_C 	C 	0.23697	0.18093	0.59233	-0.06
Mof_C 	C 	0.26227	0.19363	0.55753	-0.041
Mof_H 	H 	0.27287	0.24233	0.54583	0.06
Mof_Zn	Zn	0.14173	0.85861	0.66661	1.197
Mof_Zn	Zn	0.19193	0.80859	0.60127	1.197
Mof_O 	O 	0.14983	0.70457	0.62867	-0.52
Mof_O 	O 	0.11073	0.74147	0.67677	-0.5
Mof_C 	C 	0.12423	0.69477	0.65787	0.434
Mof_C 	C 	0.10263	0.61397	0.67813	-0.118
Mof_C 	C 	0.11923	0.55917	0.66098	0.069
Mof_H 	H 	0.14023	0.57017	0.63767	0.025
Mof_C 	C 	0.10523	0.48827	0.67787	-0.159
Mof_C 	C 	0.07453	0.47217	0.71191	0.018
Mof_H 	H 	0.06503	0.42377	0.72347	0.05
Mof_C 	C 	0.05793	0.52697	0.72907	-0.015
Mof_C 	C 	0.07193	0.59787	0.71217	-0.003
Mof_H 	H 	0.06063	0.63537	0.72387	0.036
Mof_C 	C 	0.11883	0.42607	0.66017	0.493
Mof_O 	O 	0.14183	0.44057	0.62867	-0.498
Mof_O 	O 	0.10823	0.36757	0.67497	-0.543
Mof_C 	C 	0.01203	0.50237	0.76537	-0.002
Mof_C 	C 	0.04873	0.47957	0.79107	0.093
Mof_C 	C 	0.02113	0.46887	0.82557	-0.115
Mof_H 	H 	0.04613	0.45327	0.84317	0.06
Mof_C 	C 	0.95673	0.48097	0.83437	-0.033
Mof_C 	C 	0.92003	0.50377	0.80867	0.168
Mof_C 	C 	0.94763	0.51447	0.77417	-0.144
Mof_H 	H 	0.92243	0.52997	0.75657	0.077
Mof_O 	O 	0.85253	0.50397	0.81847	-0.29
Mof_C 	C 	0.81283	0.53017	0.83967	0.251
Mof_H 	H 	0.83723	0.55527	0.86287	-0.042
Mof_C 	C 	0.77773	0.57557	0.81387	-0.101
Mof_H 	H 	0.71913	0.55517	0.81817	0.052
Mof_H 	H 	0.80843	0.63537	0.81707	0.043
Mof_C 	C 	0.79233	0.55057	0.77607	-0.299
Mof_H 	H 	0.85093	0.57357	0.77217	0.12
Mof_H 	H 	0.77033	0.57167	0.75827	0.109
Mof_H 	H 	0.76483	0.49107	0.77437	0.116
Mof_C 	C 	0.72843	0.44737	0.83877	-0.529
Mof_H 	H 	0.72233	0.42047	0.81607	0.181
Mof_H 	H 	0.68383	0.45877	0.84187	0.18
Mof_H 	H 	0.72703	0.41167	0.85767	0.175
Mof_O 	O 	0.10013	0.44747	0.77767	-0.234
Mof_C 	C 	0.13433	0.40707	0.80187	0.201
Mof_H 	H 	0.09333	0.35607	0.81397	-0.041
Mof_C 	C 	0.19333	0.39877	0.77637	-0.084
Mof_H 	H 	0.21893	0.36977	0.78737	0.037
Mof_H 	H 	0.16563	0.37067	0.75437	0.044
Mof_C 	C 	0.25373	0.48697	0.77017	-0.321
Mof_H 	H 	0.26213	0.49727	0.74487	0.125
Mof_H 	H 	0.30563	0.50067	0.78137	0.107
Mof_H 	H 	0.23303	0.52067	0.78027	0.126
Mof_C 	C 	0.17803	0.48357	0.82477	-0.521
Mof_H 	H 	0.17283	0.52767	0.81397	0.178
Mof_H 	H 	0.23573	0.49997	0.82667	0.164
Mof_H 	H 	0.15333	0.47187	0.84817	0.169
Mof_C 	C 	0.87403	0.56897	0.94227	0.308
Mof_O 	O 	0.89063	0.63277	0.92177	-0.445
Mof_O 	O 	0.84473	0.54897	0.97317	-0.462
Mof_O 	O 	0.85043	0.29717	0.97187	-0.452
Mof_O 	O 	0.89113	0.25827	0.92403	-0.479
Mof_C 	C 	0.87803	0.31027	0.93887	0.382
Mof_C 	C 	0.93883	0.46847	0.87305	0.013
Mof_C 	C 	0.92333	0.39727	0.89007	-0.016
Mof_H 	H 	0.93003	0.35727	0.87787	0.042
Mof_C 	C 	0.89803	0.38457	0.92487	-0.134
Mof_C 	C 	0.88813	0.44307	0.94275	0.037
Mof_H 	H 	0.87093	0.43447	0.96657	0.037
Mof_C 	C 	0.90363	0.51427	0.92567	-0.069
Mof_C 	C 	0.92893	0.52697	0.89087	-0.033
Mof_H 	H 	0.93953	0.57567	0.87917	0.057
_end
