data_functionalizedCrystal
_audit_creation_method	'EQeq! by Chris Wilmer'
_symmetry_space_group_name_H-M	'P1'
_symmetry_Int_Tables_number	1
_symmetry_cell_setting	triclinic
loop_
_symmetry_equiv_pos_as_xyz
  x,y,z
_cell_length_a	29.0261
_cell_length_b	29.0261
_cell_length_c	29.0261
_cell_angle_alpha	90
_cell_angle_beta	90
_cell_angle_gamma	90
loop_
_atom_site_label
_atom_site_type_symbol
_atom_site_fract_x
_atom_site_fract_y
_atom_site_fract_z
_atom_site_charge
Mof_O 	O 	0.2694	0.3304	0.4534	-0.415
Mof_O 	O 	0.2122	0.2764	0.4561	-0.419
Mof_O 	O 	0.2664	0.4524	0.3376	-0.372
Mof_O 	O 	0.2107	0.4501	0.2801	-0.374
Mof_C 	C 	0.2355	0.3083	0.4367	0.319
Mof_C 	C 	0.2319	0.4359	0.3159	0.296
Mof_C 	C 	0.2107	0.3311	0.3943	-0.038
Mof_C 	C 	0.173	0.311	0.3727	-0.045
Mof_H 	H 	0.1613	0.2824	0.3835	0.056
Mof_C 	C 	0.1524	0.3327	0.3353	0.014
Mof_C 	C 	0.1694	0.3745	0.3195	-0.051
Mof_H 	H 	0.1554	0.3893	0.294	0.061
Mof_C 	C 	0.2072	0.3947	0.3411	-0.028
Mof_C 	C 	0.2278	0.373	0.3785	-0.02
Mof_H 	H 	0.2535	0.3867	0.3932	0.07
Mof_C 	C 	0.0438	0.26	0.2609	-0.004
Mof_C 	C 	0.0745	0.2359	0.2887	-0.041
Mof_H 	H 	0.0712	0.2035	0.2924	0.04
Mof_C 	C 	0.1099	0.2591	0.311	-0.062
Mof_H 	H 	0.1308	0.2427	0.33	0.049
Mof_C 	C 	0.1146	0.3065	0.3055	0.02
Mof_C 	C 	0.084	0.3306	0.2777	-0.061
Mof_H 	H 	0.0872	0.3629	0.2739	0.051
Mof_C 	C 	0.0486	0.3073	0.2554	-0.043
Mof_H 	H 	0.0276	0.3238	0.2364	0.038
Mof_O 	O 	0.0003	0.192	0.2468	0.172
Mof_H 	H 	0.0007	0.1881	0.2784	-0.119
Mof_C 	C 	0.9999	0.2499	0.1887	-0.326
Mof_H 	H 	0.0108	0.282	0.1824	0.267
Mof_N 	N 	0.0302	0.2162	0.1655	-0.129
Mof_H 	H 	0.0574	0.2303	0.1578	0.081
Mof_C 	C 	0.9506	0.2432	0.1698	0.028
Mof_H 	H 	0.9352	0.2733	0.1652	0.01
Mof_H 	H 	0.9319	0.2245	0.1914	0.031
Mof_C 	C 	0.0065	0.2003	0.1233	-0.005
Mof_H 	H 	0.0068	0.1662	0.1221	0.026
Mof_H 	H 	0.0229	0.2121	0.0958	0.017
Mof_C 	C 	0.9564	0.218	0.1232	-0.143
Mof_H 	H 	0.9345	0.1918	0.1208	0.063
Mof_H 	H 	0.9511	0.2391	0.0971	0.061
Mof_O 	O 	0.7306	0.6696	0.4534	-0.414
Mof_O 	O 	0.7878	0.7236	0.4561	-0.418
Mof_O 	O 	0.7336	0.5476	0.3376	-0.371
Mof_O 	O 	0.7893	0.5499	0.2801	-0.373
Mof_C 	C 	0.7645	0.6917	0.4367	0.32
Mof_C 	C 	0.7681	0.5641	0.3159	0.297
Mof_C 	C 	0.7893	0.6689	0.3943	-0.037
Mof_C 	C 	0.827	0.689	0.3727	-0.044
Mof_H 	H 	0.8387	0.7176	0.3835	0.058
Mof_C 	C 	0.8476	0.6673	0.3353	0.016
Mof_C 	C 	0.8306	0.6255	0.3195	-0.051
Mof_H 	H 	0.8446	0.6107	0.294	0.063
Mof_C 	C 	0.7928	0.6053	0.3411	-0.028
Mof_C 	C 	0.7722	0.627	0.3785	-0.02
Mof_H 	H 	0.7465	0.6133	0.3932	0.07
Mof_C 	C 	0.9562	0.74	0.2609	0.002
Mof_C 	C 	0.9255	0.7641	0.2887	-0.042
Mof_H 	H 	0.9288	0.7965	0.2924	0.043
Mof_C 	C 	0.8901	0.7409	0.311	-0.06
Mof_H 	H 	0.8692	0.7573	0.33	0.049
Mof_C 	C 	0.8854	0.6935	0.3055	0.02
Mof_C 	C 	0.916	0.6694	0.2777	-0.059
Mof_H 	H 	0.9128	0.6371	0.2739	0.051
Mof_C 	C 	0.9514	0.6927	0.2554	-0.045
Mof_H 	H 	0.9724	0.6762	0.2364	0.041
Mof_O 	O 	0.9997	0.808	0.2468	0.187
Mof_H 	H 	0.9993	0.8119	0.2784	-0.172
Mof_C 	C 	0.0001	0.7501	0.1887	-0.33
Mof_H 	H 	0.9892	0.718	0.1824	0.221
Mof_N 	N 	0.9698	0.7838	0.1655	-0.125
Mof_H 	H 	0.9426	0.7697	0.1578	0.083
Mof_C 	C 	0.0494	0.7568	0.1698	0.032
Mof_H 	H 	0.0648	0.7267	0.1652	0.008
Mof_H 	H 	0.0681	0.7755	0.1914	0.029
Mof_C 	C 	0.9935	0.7997	0.1233	0.004
Mof_H 	H 	0.9932	0.8338	0.1221	0.027
Mof_H 	H 	0.9771	0.7879	0.0958	0.017
Mof_C 	C 	0.0436	0.782	0.1232	-0.153
Mof_H 	H 	0.0655	0.8082	0.1208	0.065
Mof_H 	H 	0.0489	0.7609	0.0971	0.063
Mof_O 	O 	0.7306	0.3304	0.5466	-0.414
Mof_O 	O 	0.7878	0.2764	0.5439	-0.418
Mof_O 	O 	0.7336	0.4524	0.6624	-0.371
Mof_O 	O 	0.7893	0.4501	0.7199	-0.373
Mof_C 	C 	0.7645	0.3083	0.5633	0.32
Mof_C 	C 	0.7681	0.4359	0.6841	0.297
Mof_C 	C 	0.7893	0.3311	0.6057	-0.037
Mof_C 	C 	0.827	0.311	0.6273	-0.044
Mof_H 	H 	0.8387	0.2824	0.6165	0.058
Mof_C 	C 	0.8476	0.3327	0.6647	0.016
Mof_C 	C 	0.8306	0.3745	0.6805	-0.051
Mof_H 	H 	0.8446	0.3893	0.706	0.063
Mof_C 	C 	0.7928	0.3947	0.6589	-0.028
Mof_C 	C 	0.7722	0.373	0.6215	-0.02
Mof_H 	H 	0.7465	0.3867	0.6068	0.07
Mof_C 	C 	0.9562	0.26	0.7391	0.002
Mof_C 	C 	0.9255	0.2359	0.7113	-0.042
Mof_H 	H 	0.9288	0.2035	0.7076	0.043
Mof_C 	C 	0.8901	0.2591	0.689	-0.06
Mof_H 	H 	0.8692	0.2427	0.67	0.049
Mof_C 	C 	0.8854	0.3065	0.6945	0.019
Mof_C 	C 	0.916	0.3306	0.7223	-0.058
Mof_H 	H 	0.9128	0.3629	0.7261	0.051
Mof_C 	C 	0.9514	0.3073	0.7446	-0.045
Mof_H 	H 	0.9724	0.3238	0.7636	0.041
Mof_O 	O 	0.9997	0.192	0.7532	0.187
Mof_H 	H 	0.9993	0.1881	0.7216	-0.173
Mof_C 	C 	0.0001	0.2499	0.8113	-0.33
Mof_H 	H 	0.9892	0.282	0.8176	0.221
Mof_N 	N 	0.9698	0.2162	0.8345	-0.125
Mof_H 	H 	0.9426	0.2303	0.8422	0.083
Mof_C 	C 	0.0494	0.2432	0.8302	0.032
Mof_H 	H 	0.0648	0.2733	0.8348	0.008
Mof_H 	H 	0.0681	0.2245	0.8086	0.029
Mof_C 	C 	0.9935	0.2003	0.8767	0.004
Mof_H 	H 	0.9932	0.1662	0.8779	0.027
Mof_H 	H 	0.9771	0.2121	0.9042	0.018
Mof_C 	C 	0.0436	0.218	0.8768	-0.153
Mof_H 	H 	0.0655	0.1918	0.8792	0.066
Mof_H 	H 	0.0489	0.2391	0.9029	0.064
Mof_O 	O 	0.2694	0.6696	0.5466	-0.414
Mof_O 	O 	0.2122	0.7236	0.5439	-0.418
Mof_O 	O 	0.2664	0.5476	0.6624	-0.371
Mof_O 	O 	0.2107	0.5499	0.7199	-0.373
Mof_C 	C 	0.2355	0.6917	0.5633	0.32
Mof_C 	C 	0.2319	0.5641	0.6841	0.297
Mof_C 	C 	0.2107	0.6689	0.6057	-0.037
Mof_C 	C 	0.173	0.689	0.6273	-0.044
Mof_H 	H 	0.1613	0.7176	0.6165	0.057
Mof_C 	C 	0.1524	0.6673	0.6647	0.015
Mof_C 	C 	0.1694	0.6255	0.6805	-0.051
Mof_H 	H 	0.1554	0.6107	0.706	0.063
Mof_C 	C 	0.2072	0.6053	0.6589	-0.028
Mof_C 	C 	0.2278	0.627	0.6215	-0.02
Mof_H 	H 	0.2535	0.6133	0.6068	0.07
Mof_C 	C 	0.0438	0.74	0.7391	-0.004
Mof_C 	C 	0.0745	0.7641	0.7113	-0.041
Mof_H 	H 	0.0712	0.7965	0.7076	0.041
Mof_C 	C 	0.1099	0.7409	0.689	-0.062
Mof_H 	H 	0.1308	0.7573	0.67	0.05
Mof_C 	C 	0.1146	0.6935	0.6945	0.02
Mof_C 	C 	0.084	0.6694	0.7223	-0.061
Mof_H 	H 	0.0872	0.6371	0.7261	0.051
Mof_C 	C 	0.0486	0.6927	0.7446	-0.043
Mof_H 	H 	0.0276	0.6762	0.7636	0.038
Mof_O 	O 	0.0003	0.808	0.7532	0.172
Mof_H 	H 	0.0007	0.8119	0.7216	-0.119
Mof_C 	C 	0.9999	0.7501	0.8113	-0.326
Mof_H 	H 	0.0108	0.718	0.8176	0.267
Mof_N 	N 	0.0302	0.7838	0.8345	-0.129
Mof_H 	H 	0.0574	0.7697	0.8422	0.082
Mof_C 	C 	0.9506	0.7568	0.8302	0.028
Mof_H 	H 	0.9352	0.7267	0.8348	0.011
Mof_H 	H 	0.9319	0.7755	0.8086	0.031
Mof_C 	C 	0.0065	0.7997	0.8767	-0.006
Mof_H 	H 	0.0068	0.8338	0.8779	0.027
Mof_H 	H 	0.0229	0.7879	0.9042	0.019
Mof_C 	C 	0.9564	0.782	0.8768	-0.143
Mof_H 	H 	0.9345	0.8082	0.8792	0.064
Mof_H 	H 	0.9511	0.7609	0.9029	0.062
Mof_O 	O 	0.4534	0.2694	0.3304	-0.414
Mof_O 	O 	0.4561	0.2122	0.2764	-0.418
Mof_O 	O 	0.3376	0.2664	0.4524	-0.371
Mof_O 	O 	0.2801	0.2107	0.4501	-0.373
Mof_C 	C 	0.4367	0.2355	0.3083	0.32
Mof_C 	C 	0.3159	0.2319	0.4359	0.297
Mof_C 	C 	0.3943	0.2107	0.3311	-0.037
Mof_C 	C 	0.3727	0.173	0.311	-0.044
Mof_H 	H 	0.3835	0.1613	0.2824	0.057
Mof_C 	C 	0.3353	0.1524	0.3327	0.015
Mof_C 	C 	0.3195	0.1694	0.3745	-0.05
Mof_H 	H 	0.294	0.1554	0.3893	0.062
Mof_C 	C 	0.3411	0.2072	0.3947	-0.028
Mof_C 	C 	0.3785	0.2278	0.373	-0.02
Mof_H 	H 	0.3932	0.2535	0.3867	0.07
Mof_C 	C 	0.2609	0.0438	0.26	-0.004
Mof_C 	C 	0.2887	0.0745	0.2359	-0.041
Mof_H 	H 	0.2924	0.0712	0.2035	0.04
Mof_C 	C 	0.311	0.1099	0.2591	-0.062
Mof_H 	H 	0.33	0.1308	0.2427	0.049
Mof_C 	C 	0.3055	0.1146	0.3065	0.02
Mof_C 	C 	0.2777	0.084	0.3306	-0.061
Mof_H 	H 	0.2739	0.0872	0.3629	0.051
Mof_C 	C 	0.2554	0.0486	0.3073	-0.043
Mof_H 	H 	0.2364	0.0276	0.3238	0.038
Mof_O 	O 	0.2468	0.0003	0.192	0.172
Mof_H 	H 	0.2784	0.0007	0.1881	-0.119
Mof_C 	C 	0.1887	0.9999	0.2499	-0.326
Mof_H 	H 	0.1824	0.0108	0.282	0.267
Mof_N 	N 	0.1655	0.0302	0.2162	-0.129
Mof_H 	H 	0.1578	0.0574	0.2303	0.081
Mof_C 	C 	0.1698	0.9506	0.2432	0.028
Mof_H 	H 	0.1652	0.9352	0.2733	0.01
Mof_H 	H 	0.1914	0.9319	0.2245	0.031
Mof_C 	C 	0.1233	0.0065	0.2003	-0.005
Mof_H 	H 	0.1221	0.0068	0.1662	0.026
Mof_H 	H 	0.0958	0.0229	0.2121	0.017
Mof_C 	C 	0.1232	0.9564	0.218	-0.143
Mof_H 	H 	0.1208	0.9345	0.1918	0.063
Mof_H 	H 	0.0971	0.9511	0.2391	0.061
Mof_O 	O 	0.4534	0.7306	0.6696	-0.414
Mof_O 	O 	0.4561	0.7878	0.7236	-0.418
Mof_O 	O 	0.3376	0.7336	0.5476	-0.371
Mof_O 	O 	0.2801	0.7893	0.5499	-0.373
Mof_C 	C 	0.4367	0.7645	0.6917	0.32
Mof_C 	C 	0.3159	0.7681	0.5641	0.297
Mof_C 	C 	0.3943	0.7893	0.6689	-0.037
Mof_C 	C 	0.3727	0.827	0.689	-0.044
Mof_H 	H 	0.3835	0.8387	0.7176	0.058
Mof_C 	C 	0.3353	0.8476	0.6673	0.016
Mof_C 	C 	0.3195	0.8306	0.6255	-0.051
Mof_H 	H 	0.294	0.8446	0.6107	0.063
Mof_C 	C 	0.3411	0.7928	0.6053	-0.028
Mof_C 	C 	0.3785	0.7722	0.627	-0.02
Mof_H 	H 	0.3932	0.7465	0.6133	0.07
Mof_C 	C 	0.2609	0.9562	0.74	0.002
Mof_C 	C 	0.2887	0.9255	0.7641	-0.042
Mof_H 	H 	0.2924	0.9288	0.7965	0.043
Mof_C 	C 	0.311	0.8901	0.7409	-0.06
Mof_H 	H 	0.33	0.8692	0.7573	0.049
Mof_C 	C 	0.3055	0.8854	0.6935	0.02
Mof_C 	C 	0.2777	0.916	0.6694	-0.059
Mof_H 	H 	0.2739	0.9128	0.6371	0.051
Mof_C 	C 	0.2554	0.9514	0.6927	-0.045
Mof_H 	H 	0.2364	0.9724	0.6762	0.041
Mof_O 	O 	0.2468	0.9997	0.808	0.187
Mof_H 	H 	0.2784	0.9993	0.8119	-0.172
Mof_C 	C 	0.1887	0.0001	0.7501	-0.33
Mof_H 	H 	0.1824	0.9892	0.718	0.221
Mof_N 	N 	0.1655	0.9698	0.7838	-0.125
Mof_H 	H 	0.1578	0.9426	0.7697	0.083
Mof_C 	C 	0.1698	0.0494	0.7568	0.032
Mof_H 	H 	0.1652	0.0648	0.7267	0.008
Mof_H 	H 	0.1914	0.0681	0.7755	0.029
Mof_C 	C 	0.1233	0.9935	0.7997	0.004
Mof_H 	H 	0.1221	0.9932	0.8338	0.027
Mof_H 	H 	0.0958	0.9771	0.7879	0.017
Mof_C 	C 	0.1232	0.0436	0.782	-0.153
Mof_H 	H 	0.1208	0.0655	0.8082	0.065
Mof_H 	H 	0.0971	0.0489	0.7609	0.063
Mof_O 	O 	0.5466	0.7306	0.3304	-0.414
Mof_O 	O 	0.5439	0.7878	0.2764	-0.418
Mof_O 	O 	0.6624	0.7336	0.4524	-0.371
Mof_O 	O 	0.7199	0.7893	0.4501	-0.373
Mof_C 	C 	0.5633	0.7645	0.3083	0.32
Mof_C 	C 	0.6841	0.7681	0.4359	0.297
Mof_C 	C 	0.6057	0.7893	0.3311	-0.037
Mof_C 	C 	0.6273	0.827	0.311	-0.044
Mof_H 	H 	0.6165	0.8387	0.2824	0.058
Mof_C 	C 	0.6647	0.8476	0.3327	0.016
Mof_C 	C 	0.6805	0.8306	0.3745	-0.051
Mof_H 	H 	0.706	0.8446	0.3893	0.063
Mof_C 	C 	0.6589	0.7928	0.3947	-0.028
Mof_C 	C 	0.6215	0.7722	0.373	-0.02
Mof_H 	H 	0.6068	0.7465	0.3867	0.07
Mof_C 	C 	0.7391	0.9562	0.26	0.002
Mof_C 	C 	0.7113	0.9255	0.2359	-0.042
Mof_H 	H 	0.7076	0.9288	0.2035	0.043
Mof_C 	C 	0.689	0.8901	0.2591	-0.06
Mof_H 	H 	0.67	0.8692	0.2427	0.049
Mof_C 	C 	0.6945	0.8854	0.3065	0.019
Mof_C 	C 	0.7223	0.916	0.3306	-0.058
Mof_H 	H 	0.7261	0.9128	0.3629	0.051
Mof_C 	C 	0.7446	0.9514	0.3073	-0.045
Mof_H 	H 	0.7636	0.9724	0.3238	0.041
Mof_O 	O 	0.7532	0.9997	0.192	0.187
Mof_H 	H 	0.7216	0.9993	0.1881	-0.173
Mof_C 	C 	0.8113	0.0001	0.2499	-0.33
Mof_H 	H 	0.8176	0.9892	0.282	0.221
Mof_N 	N 	0.8345	0.9698	0.2162	-0.125
Mof_H 	H 	0.8422	0.9426	0.2303	0.083
Mof_C 	C 	0.8302	0.0494	0.2432	0.032
Mof_H 	H 	0.8348	0.0648	0.2733	0.008
Mof_H 	H 	0.8086	0.0681	0.2245	0.029
Mof_C 	C 	0.8767	0.9935	0.2003	0.004
Mof_H 	H 	0.8779	0.9932	0.1662	0.027
Mof_H 	H 	0.9042	0.9771	0.2121	0.018
Mof_C 	C 	0.8768	0.0436	0.218	-0.153
Mof_H 	H 	0.8792	0.0655	0.1918	0.066
Mof_H 	H 	0.9029	0.0489	0.2391	0.064
Mof_O 	O 	0.5466	0.2694	0.6696	-0.414
Mof_O 	O 	0.5439	0.2122	0.7236	-0.418
Mof_O 	O 	0.6624	0.2664	0.5476	-0.371
Mof_O 	O 	0.7199	0.2107	0.5499	-0.373
Mof_C 	C 	0.5633	0.2355	0.6917	0.32
Mof_C 	C 	0.6841	0.2319	0.5641	0.297
Mof_C 	C 	0.6057	0.2107	0.6689	-0.037
Mof_C 	C 	0.6273	0.173	0.689	-0.044
Mof_H 	H 	0.6165	0.1613	0.7176	0.057
Mof_C 	C 	0.6647	0.1524	0.6673	0.015
Mof_C 	C 	0.6805	0.1694	0.6255	-0.051
Mof_H 	H 	0.706	0.1554	0.6107	0.063
Mof_C 	C 	0.6589	0.2072	0.6053	-0.028
Mof_C 	C 	0.6215	0.2278	0.627	-0.02
Mof_H 	H 	0.6068	0.2535	0.6133	0.07
Mof_C 	C 	0.7391	0.0438	0.74	-0.004
Mof_C 	C 	0.7113	0.0745	0.7641	-0.041
Mof_H 	H 	0.7076	0.0712	0.7965	0.041
Mof_C 	C 	0.689	0.1099	0.7409	-0.062
Mof_H 	H 	0.67	0.1308	0.7573	0.05
Mof_C 	C 	0.6945	0.1146	0.6935	0.02
Mof_C 	C 	0.7223	0.084	0.6694	-0.061
Mof_H 	H 	0.7261	0.0872	0.6371	0.051
Mof_C 	C 	0.7446	0.0486	0.6927	-0.043
Mof_H 	H 	0.7636	0.0276	0.6762	0.038
Mof_O 	O 	0.7532	0.0003	0.808	0.172
Mof_H 	H 	0.7216	0.0007	0.8119	-0.119
Mof_C 	C 	0.8113	0.9999	0.7501	-0.326
Mof_H 	H 	0.8176	0.0108	0.718	0.267
Mof_N 	N 	0.8345	0.0302	0.7838	-0.129
Mof_H 	H 	0.8422	0.0574	0.7697	0.082
Mof_C 	C 	0.8302	0.9506	0.7568	0.028
Mof_H 	H 	0.8348	0.9352	0.7267	0.011
Mof_H 	H 	0.8086	0.9319	0.7755	0.031
Mof_C 	C 	0.8767	0.0065	0.7997	-0.006
Mof_H 	H 	0.8779	0.0068	0.8338	0.027
Mof_H 	H 	0.9042	0.0229	0.7879	0.019
Mof_C 	C 	0.8768	0.9564	0.782	-0.143
Mof_H 	H 	0.8792	0.9345	0.8082	0.064
Mof_H 	H 	0.9029	0.9511	0.7609	0.062
Mof_O 	O 	0.3304	0.4534	0.2694	-0.414
Mof_O 	O 	0.2764	0.4561	0.2122	-0.418
Mof_O 	O 	0.4524	0.3376	0.2664	-0.371
Mof_O 	O 	0.4501	0.2801	0.2107	-0.373
Mof_C 	C 	0.3083	0.4367	0.2355	0.32
Mof_C 	C 	0.4359	0.3159	0.2319	0.297
Mof_C 	C 	0.3311	0.3943	0.2107	-0.037
Mof_C 	C 	0.311	0.3727	0.173	-0.044
Mof_H 	H 	0.2824	0.3835	0.1613	0.057
Mof_C 	C 	0.3327	0.3353	0.1524	0.015
Mof_C 	C 	0.3745	0.3195	0.1694	-0.05
Mof_H 	H 	0.3893	0.294	0.1554	0.062
Mof_C 	C 	0.3947	0.3411	0.2072	-0.028
Mof_C 	C 	0.373	0.3785	0.2278	-0.02
Mof_H 	H 	0.3867	0.3932	0.2535	0.07
Mof_C 	C 	0.26	0.2609	0.0438	-0.004
Mof_C 	C 	0.2359	0.2887	0.0745	-0.041
Mof_H 	H 	0.2035	0.2924	0.0712	0.04
Mof_C 	C 	0.2591	0.311	0.1099	-0.062
Mof_H 	H 	0.2427	0.33	0.1308	0.049
Mof_C 	C 	0.3065	0.3055	0.1146	0.02
Mof_C 	C 	0.3306	0.2777	0.084	-0.061
Mof_H 	H 	0.3629	0.2739	0.0872	0.051
Mof_C 	C 	0.3073	0.2554	0.0486	-0.043
Mof_H 	H 	0.3238	0.2364	0.0276	0.038
Mof_O 	O 	0.192	0.2468	0.0003	0.172
Mof_H 	H 	0.1881	0.2784	0.0007	-0.119
Mof_C 	C 	0.2499	0.1887	0.9999	-0.326
Mof_H 	H 	0.282	0.1824	0.0108	0.267
Mof_N 	N 	0.2162	0.1655	0.0302	-0.129
Mof_H 	H 	0.2303	0.1578	0.0574	0.081
Mof_C 	C 	0.2432	0.1698	0.9506	0.028
Mof_H 	H 	0.2733	0.1652	0.9352	0.01
Mof_H 	H 	0.2245	0.1914	0.9319	0.031
Mof_C 	C 	0.2003	0.1233	0.0065	-0.005
Mof_H 	H 	0.1662	0.1221	0.0068	0.026
Mof_H 	H 	0.2121	0.0958	0.0229	0.017
Mof_C 	C 	0.218	0.1232	0.9564	-0.143
Mof_H 	H 	0.1918	0.1208	0.9345	0.063
Mof_H 	H 	0.2391	0.0971	0.9511	0.061
Mof_O 	O 	0.6696	0.4534	0.7306	-0.414
Mof_O 	O 	0.7236	0.4561	0.7878	-0.418
Mof_O 	O 	0.5476	0.3376	0.7336	-0.371
Mof_O 	O 	0.5499	0.2801	0.7893	-0.373
Mof_C 	C 	0.6917	0.4367	0.7645	0.32
Mof_C 	C 	0.5641	0.3159	0.7681	0.297
Mof_C 	C 	0.6689	0.3943	0.7893	-0.037
Mof_C 	C 	0.689	0.3727	0.827	-0.044
Mof_H 	H 	0.7176	0.3835	0.8387	0.058
Mof_C 	C 	0.6673	0.3353	0.8476	0.016
Mof_C 	C 	0.6255	0.3195	0.8306	-0.051
Mof_H 	H 	0.6107	0.294	0.8446	0.063
Mof_C 	C 	0.6053	0.3411	0.7928	-0.028
Mof_C 	C 	0.627	0.3785	0.7722	-0.02
Mof_H 	H 	0.6133	0.3932	0.7465	0.07
Mof_C 	C 	0.74	0.2609	0.9562	0.002
Mof_C 	C 	0.7641	0.2887	0.9255	-0.042
Mof_H 	H 	0.7965	0.2924	0.9288	0.043
Mof_C 	C 	0.7409	0.311	0.8901	-0.06
Mof_H 	H 	0.7573	0.33	0.8692	0.049
Mof_C 	C 	0.6935	0.3055	0.8854	0.02
Mof_C 	C 	0.6694	0.2777	0.916	-0.059
Mof_H 	H 	0.6371	0.2739	0.9128	0.051
Mof_C 	C 	0.6927	0.2554	0.9514	-0.045
Mof_H 	H 	0.6762	0.2364	0.9724	0.041
Mof_O 	O 	0.808	0.2468	0.9997	0.187
Mof_H 	H 	0.8119	0.2784	0.9993	-0.172
Mof_C 	C 	0.7501	0.1887	0.0001	-0.33
Mof_H 	H 	0.718	0.1824	0.9892	0.221
Mof_N 	N 	0.7838	0.1655	0.9698	-0.125
Mof_H 	H 	0.7697	0.1578	0.9426	0.083
Mof_C 	C 	0.7568	0.1698	0.0494	0.032
Mof_H 	H 	0.7267	0.1652	0.0648	0.008
Mof_H 	H 	0.7755	0.1914	0.0681	0.029
Mof_C 	C 	0.7997	0.1233	0.9935	0.004
Mof_H 	H 	0.8338	0.1221	0.9932	0.027
Mof_H 	H 	0.7879	0.0958	0.9771	0.017
Mof_C 	C 	0.782	0.1232	0.0436	-0.153
Mof_H 	H 	0.8082	0.1208	0.0655	0.065
Mof_H 	H 	0.7609	0.0971	0.0489	0.063
Mof_O 	O 	0.3304	0.5466	0.7306	-0.414
Mof_O 	O 	0.2764	0.5439	0.7878	-0.418
Mof_O 	O 	0.4524	0.6624	0.7336	-0.371
Mof_O 	O 	0.4501	0.7199	0.7893	-0.373
Mof_C 	C 	0.3083	0.5633	0.7645	0.32
Mof_C 	C 	0.4359	0.6841	0.7681	0.297
Mof_C 	C 	0.3311	0.6057	0.7893	-0.037
Mof_C 	C 	0.311	0.6273	0.827	-0.044
Mof_H 	H 	0.2824	0.6165	0.8387	0.058
Mof_C 	C 	0.3327	0.6647	0.8476	0.016
Mof_C 	C 	0.3745	0.6805	0.8306	-0.051
Mof_H 	H 	0.3893	0.706	0.8446	0.063
Mof_C 	C 	0.3947	0.6589	0.7928	-0.028
Mof_C 	C 	0.373	0.6215	0.7722	-0.02
Mof_H 	H 	0.3867	0.6068	0.7465	0.07
Mof_C 	C 	0.26	0.7391	0.9562	0.002
Mof_C 	C 	0.2359	0.7113	0.9255	-0.042
Mof_H 	H 	0.2035	0.7076	0.9288	0.043
Mof_C 	C 	0.2591	0.689	0.8901	-0.06
Mof_H 	H 	0.2427	0.67	0.8692	0.049
Mof_C 	C 	0.3065	0.6945	0.8854	0.019
Mof_C 	C 	0.3306	0.7223	0.916	-0.058
Mof_H 	H 	0.3629	0.7261	0.9128	0.051
Mof_C 	C 	0.3073	0.7446	0.9514	-0.045
Mof_H 	H 	0.3238	0.7636	0.9724	0.041
Mof_O 	O 	0.192	0.7532	0.9997	0.187
Mof_H 	H 	0.1881	0.7216	0.9993	-0.173
Mof_C 	C 	0.2499	0.8113	0.0001	-0.33
Mof_H 	H 	0.282	0.8176	0.9892	0.221
Mof_N 	N 	0.2162	0.8345	0.9698	-0.125
Mof_H 	H 	0.2303	0.8422	0.9426	0.083
Mof_C 	C 	0.2432	0.8302	0.0494	0.032
Mof_H 	H 	0.2733	0.8348	0.0648	0.008
Mof_H 	H 	0.2245	0.8086	0.0681	0.029
Mof_C 	C 	0.2003	0.8767	0.9935	0.004
Mof_H 	H 	0.1662	0.8779	0.9932	0.027
Mof_H 	H 	0.2121	0.9042	0.9771	0.018
Mof_C 	C 	0.218	0.8768	0.0436	-0.153
Mof_H 	H 	0.1918	0.8792	0.0655	0.066
Mof_H 	H 	0.2391	0.9029	0.0489	0.064
Mof_O 	O 	0.6696	0.5466	0.2694	-0.414
Mof_O 	O 	0.7236	0.5439	0.2122	-0.418
Mof_O 	O 	0.5476	0.6624	0.2664	-0.371
Mof_O 	O 	0.5499	0.7199	0.2107	-0.373
Mof_C 	C 	0.6917	0.5633	0.2355	0.32
Mof_C 	C 	0.5641	0.6841	0.2319	0.297
Mof_C 	C 	0.6689	0.6057	0.2107	-0.037
Mof_C 	C 	0.689	0.6273	0.173	-0.044
Mof_H 	H 	0.7176	0.6165	0.1613	0.057
Mof_C 	C 	0.6673	0.6647	0.1524	0.015
Mof_C 	C 	0.6255	0.6805	0.1694	-0.051
Mof_H 	H 	0.6107	0.706	0.1554	0.063
Mof_C 	C 	0.6053	0.6589	0.2072	-0.028
Mof_C 	C 	0.627	0.6215	0.2278	-0.02
Mof_H 	H 	0.6133	0.6068	0.2535	0.07
Mof_C 	C 	0.74	0.7391	0.0438	-0.004
Mof_C 	C 	0.7641	0.7113	0.0745	-0.041
Mof_H 	H 	0.7965	0.7076	0.0712	0.041
Mof_C 	C 	0.7409	0.689	0.1099	-0.062
Mof_H 	H 	0.7573	0.67	0.1308	0.05
Mof_C 	C 	0.6935	0.6945	0.1146	0.02
Mof_C 	C 	0.6694	0.7223	0.084	-0.061
Mof_H 	H 	0.6371	0.7261	0.0872	0.051
Mof_C 	C 	0.6927	0.7446	0.0486	-0.043
Mof_H 	H 	0.6762	0.7636	0.0276	0.038
Mof_O 	O 	0.808	0.7532	0.0003	0.172
Mof_H 	H 	0.8119	0.7216	0.0007	-0.119
Mof_C 	C 	0.7501	0.8113	0.9999	-0.326
Mof_H 	H 	0.718	0.8176	0.0108	0.267
Mof_N 	N 	0.7838	0.8345	0.0302	-0.129
Mof_H 	H 	0.7697	0.8422	0.0574	0.082
Mof_C 	C 	0.7568	0.8302	0.9506	0.028
Mof_H 	H 	0.7267	0.8348	0.9352	0.011
Mof_H 	H 	0.7755	0.8086	0.9319	0.031
Mof_C 	C 	0.7997	0.8767	0.0065	-0.006
Mof_H 	H 	0.8338	0.8779	0.0068	0.027
Mof_H 	H 	0.7879	0.9042	0.0229	0.019
Mof_C 	C 	0.782	0.8768	0.9564	-0.143
Mof_H 	H 	0.8082	0.8792	0.9345	0.064
Mof_H 	H 	0.7609	0.9029	0.9511	0.062
Mof_O 	O 	0.3304	0.2694	0.5466	-0.414
Mof_O 	O 	0.2764	0.2122	0.5439	-0.418
Mof_O 	O 	0.4524	0.2664	0.6624	-0.371
Mof_O 	O 	0.4501	0.2107	0.7199	-0.373
Mof_C 	C 	0.3083	0.2355	0.5633	0.32
Mof_C 	C 	0.4359	0.2319	0.6841	0.297
Mof_C 	C 	0.3311	0.2107	0.6057	-0.037
Mof_C 	C 	0.311	0.173	0.6273	-0.044
Mof_H 	H 	0.2824	0.1613	0.6165	0.057
Mof_C 	C 	0.3327	0.1524	0.6647	0.015
Mof_C 	C 	0.3745	0.1694	0.6805	-0.05
Mof_H 	H 	0.3893	0.1554	0.706	0.063
Mof_C 	C 	0.3947	0.2072	0.6589	-0.028
Mof_C 	C 	0.373	0.2278	0.6215	-0.02
Mof_H 	H 	0.3867	0.2535	0.6068	0.07
Mof_C 	C 	0.26	0.0438	0.7391	-0.004
Mof_C 	C 	0.2359	0.0745	0.7113	-0.041
Mof_H 	H 	0.2035	0.0712	0.7076	0.04
Mof_C 	C 	0.2591	0.1099	0.689	-0.062
Mof_H 	H 	0.2427	0.1308	0.67	0.049
Mof_C 	C 	0.3065	0.1146	0.6945	0.02
Mof_C 	C 	0.3306	0.084	0.7223	-0.061
Mof_H 	H 	0.3629	0.0872	0.7261	0.051
Mof_C 	C 	0.3073	0.0486	0.7446	-0.043
Mof_H 	H 	0.3238	0.0276	0.7636	0.038
Mof_O 	O 	0.192	0.0003	0.7532	0.172
Mof_H 	H 	0.1881	0.0007	0.7216	-0.119
Mof_C 	C 	0.2499	0.9999	0.8113	-0.326
Mof_H 	H 	0.282	0.0108	0.8176	0.267
Mof_N 	N 	0.2162	0.0302	0.8345	-0.129
Mof_H 	H 	0.2303	0.0574	0.8422	0.082
Mof_C 	C 	0.2432	0.9506	0.8302	0.028
Mof_H 	H 	0.2733	0.9352	0.8348	0.011
Mof_H 	H 	0.2245	0.9319	0.8086	0.031
Mof_C 	C 	0.2003	0.0065	0.8767	-0.006
Mof_H 	H 	0.1662	0.0068	0.8779	0.027
Mof_H 	H 	0.2121	0.0229	0.9042	0.018
Mof_C 	C 	0.218	0.9564	0.8768	-0.143
Mof_H 	H 	0.1918	0.9345	0.8792	0.064
Mof_H 	H 	0.2391	0.9511	0.9029	0.062
Mof_O 	O 	0.6696	0.7306	0.5466	-0.414
Mof_O 	O 	0.7236	0.7878	0.5439	-0.418
Mof_O 	O 	0.5476	0.7336	0.6624	-0.371
Mof_O 	O 	0.5499	0.7893	0.7199	-0.373
Mof_C 	C 	0.6917	0.7645	0.5633	0.32
Mof_C 	C 	0.5641	0.7681	0.6841	0.297
Mof_C 	C 	0.6689	0.7893	0.6057	-0.037
Mof_C 	C 	0.689	0.827	0.6273	-0.044
Mof_H 	H 	0.7176	0.8387	0.6165	0.058
Mof_C 	C 	0.6673	0.8476	0.6647	0.016
Mof_C 	C 	0.6255	0.8306	0.6805	-0.051
Mof_H 	H 	0.6107	0.8446	0.706	0.063
Mof_C 	C 	0.6053	0.7928	0.6589	-0.028
Mof_C 	C 	0.627	0.7722	0.6215	-0.02
Mof_H 	H 	0.6133	0.7465	0.6068	0.07
Mof_C 	C 	0.74	0.9562	0.7391	0.002
Mof_C 	C 	0.7641	0.9255	0.7113	-0.042
Mof_H 	H 	0.7965	0.9288	0.7076	0.043
Mof_C 	C 	0.7409	0.8901	0.689	-0.06
Mof_H 	H 	0.7573	0.8692	0.67	0.049
Mof_C 	C 	0.6935	0.8854	0.6945	0.02
Mof_C 	C 	0.6694	0.916	0.7223	-0.058
Mof_H 	H 	0.6371	0.9128	0.7261	0.051
Mof_C 	C 	0.6927	0.9514	0.7446	-0.045
Mof_H 	H 	0.6762	0.9724	0.7636	0.041
Mof_O 	O 	0.808	0.9997	0.7532	0.187
Mof_H 	H 	0.8119	0.9993	0.7216	-0.172
Mof_C 	C 	0.7501	0.0001	0.8113	-0.33
Mof_H 	H 	0.718	0.9892	0.8176	0.221
Mof_N 	N 	0.7838	0.9698	0.8345	-0.125
Mof_H 	H 	0.7697	0.9426	0.8422	0.083
Mof_C 	C 	0.7568	0.0494	0.8302	0.032
Mof_H 	H 	0.7267	0.0648	0.8348	0.008
Mof_H 	H 	0.7755	0.0681	0.8086	0.029
Mof_C 	C 	0.7997	0.9935	0.8767	0.003
Mof_H 	H 	0.8338	0.9932	0.8779	0.027
Mof_H 	H 	0.7879	0.9771	0.9042	0.018
Mof_C 	C 	0.782	0.0436	0.8768	-0.153
Mof_H 	H 	0.8082	0.0655	0.8792	0.066
Mof_H 	H 	0.7609	0.0489	0.9029	0.064
Mof_O 	O 	0.3304	0.7306	0.4534	-0.414
Mof_O 	O 	0.2764	0.7878	0.4561	-0.418
Mof_O 	O 	0.4524	0.7336	0.3376	-0.371
Mof_O 	O 	0.4501	0.7893	0.2801	-0.373
Mof_C 	C 	0.3083	0.7645	0.4367	0.32
Mof_C 	C 	0.4359	0.7681	0.3159	0.297
Mof_C 	C 	0.3311	0.7893	0.3943	-0.037
Mof_C 	C 	0.311	0.827	0.3727	-0.044
Mof_H 	H 	0.2824	0.8387	0.3835	0.058
Mof_C 	C 	0.3327	0.8476	0.3353	0.016
Mof_C 	C 	0.3745	0.8306	0.3195	-0.051
Mof_H 	H 	0.3893	0.8446	0.294	0.063
Mof_C 	C 	0.3947	0.7928	0.3411	-0.028
Mof_C 	C 	0.373	0.7722	0.3785	-0.02
Mof_H 	H 	0.3867	0.7465	0.3932	0.07
Mof_C 	C 	0.26	0.9562	0.2609	0.002
Mof_C 	C 	0.2359	0.9255	0.2887	-0.042
Mof_H 	H 	0.2035	0.9288	0.2924	0.043
Mof_C 	C 	0.2591	0.8901	0.311	-0.06
Mof_H 	H 	0.2427	0.8692	0.33	0.049
Mof_C 	C 	0.3065	0.8854	0.3055	0.019
Mof_C 	C 	0.3306	0.916	0.2777	-0.059
Mof_H 	H 	0.3629	0.9128	0.2739	0.051
Mof_C 	C 	0.3073	0.9514	0.2554	-0.045
Mof_H 	H 	0.3238	0.9724	0.2364	0.041
Mof_O 	O 	0.192	0.9997	0.2468	0.187
Mof_H 	H 	0.1881	0.9993	0.2784	-0.173
Mof_C 	C 	0.2499	0.0001	0.1887	-0.33
Mof_H 	H 	0.282	0.9892	0.1824	0.221
Mof_N 	N 	0.2162	0.9698	0.1655	-0.125
Mof_H 	H 	0.2303	0.9426	0.1578	0.083
Mof_C 	C 	0.2432	0.0494	0.1698	0.032
Mof_H 	H 	0.2733	0.0648	0.1652	0.008
Mof_H 	H 	0.2245	0.0681	0.1914	0.029
Mof_C 	C 	0.2003	0.9935	0.1233	0.004
Mof_H 	H 	0.1662	0.9932	0.1221	0.026
Mof_H 	H 	0.2121	0.9771	0.0958	0.017
Mof_C 	C 	0.218	0.0436	0.1232	-0.153
Mof_H 	H 	0.1918	0.0655	0.1208	0.065
Mof_H 	H 	0.2391	0.0489	0.0971	0.063
Mof_O 	O 	0.6696	0.2694	0.4534	-0.414
Mof_O 	O 	0.7236	0.2122	0.4561	-0.418
Mof_O 	O 	0.5476	0.2664	0.3376	-0.371
Mof_O 	O 	0.5499	0.2107	0.2801	-0.373
Mof_C 	C 	0.6917	0.2355	0.4367	0.32
Mof_C 	C 	0.5641	0.2319	0.3159	0.297
Mof_C 	C 	0.6689	0.2107	0.3943	-0.037
Mof_C 	C 	0.689	0.173	0.3727	-0.044
Mof_H 	H 	0.7176	0.1613	0.3835	0.057
Mof_C 	C 	0.6673	0.1524	0.3353	0.015
Mof_C 	C 	0.6255	0.1694	0.3195	-0.05
Mof_H 	H 	0.6107	0.1554	0.294	0.062
Mof_C 	C 	0.6053	0.2072	0.3411	-0.028
Mof_C 	C 	0.627	0.2278	0.3785	-0.02
Mof_H 	H 	0.6133	0.2535	0.3932	0.07
Mof_C 	C 	0.74	0.0438	0.2609	-0.004
Mof_C 	C 	0.7641	0.0745	0.2887	-0.041
Mof_H 	H 	0.7965	0.0712	0.2924	0.041
Mof_C 	C 	0.7409	0.1099	0.311	-0.062
Mof_H 	H 	0.7573	0.1308	0.33	0.05
Mof_C 	C 	0.6935	0.1146	0.3055	0.02
Mof_C 	C 	0.6694	0.084	0.2777	-0.061
Mof_H 	H 	0.6371	0.0872	0.2739	0.051
Mof_C 	C 	0.6927	0.0486	0.2554	-0.043
Mof_H 	H 	0.6762	0.0276	0.2364	0.038
Mof_O 	O 	0.808	0.0003	0.2468	0.172
Mof_H 	H 	0.8119	0.0007	0.2784	-0.119
Mof_C 	C 	0.7501	0.9999	0.1887	-0.326
Mof_H 	H 	0.718	0.0108	0.1824	0.267
Mof_N 	N 	0.7838	0.0302	0.1655	-0.129
Mof_H 	H 	0.7697	0.0574	0.1578	0.082
Mof_C 	C 	0.7568	0.9506	0.1698	0.028
Mof_H 	H 	0.7267	0.9352	0.1652	0.01
Mof_H 	H 	0.7755	0.9319	0.1914	0.031
Mof_C 	C 	0.7997	0.0065	0.1233	-0.006
Mof_H 	H 	0.8338	0.0068	0.1221	0.027
Mof_H 	H 	0.7879	0.0229	0.0958	0.018
Mof_C 	C 	0.782	0.9564	0.1232	-0.143
Mof_H 	H 	0.8082	0.9345	0.1208	0.063
Mof_H 	H 	0.7609	0.9511	0.0971	0.061
Mof_O 	O 	0.2694	0.4534	0.6696	-0.414
Mof_O 	O 	0.2122	0.4561	0.7236	-0.418
Mof_O 	O 	0.2664	0.3376	0.5476	-0.371
Mof_O 	O 	0.2107	0.2801	0.5499	-0.373
Mof_C 	C 	0.2355	0.4367	0.6917	0.32
Mof_C 	C 	0.2319	0.3159	0.5641	0.297
Mof_C 	C 	0.2107	0.3943	0.6689	-0.037
Mof_C 	C 	0.173	0.3727	0.689	-0.044
Mof_H 	H 	0.1613	0.3835	0.7176	0.057
Mof_C 	C 	0.1524	0.3353	0.6673	0.015
Mof_C 	C 	0.1694	0.3195	0.6255	-0.05
Mof_H 	H 	0.1554	0.294	0.6107	0.062
Mof_C 	C 	0.2072	0.3411	0.6053	-0.028
Mof_C 	C 	0.2278	0.3785	0.627	-0.02
Mof_H 	H 	0.2535	0.3932	0.6133	0.07
Mof_C 	C 	0.0438	0.2609	0.74	-0.004
Mof_C 	C 	0.0745	0.2887	0.7641	-0.041
Mof_H 	H 	0.0712	0.2924	0.7965	0.041
Mof_C 	C 	0.1099	0.311	0.7409	-0.062
Mof_H 	H 	0.1308	0.33	0.7573	0.05
Mof_C 	C 	0.1146	0.3055	0.6935	0.02
Mof_C 	C 	0.084	0.2777	0.6694	-0.061
Mof_H 	H 	0.0872	0.2739	0.6371	0.051
Mof_C 	C 	0.0486	0.2554	0.6927	-0.043
Mof_H 	H 	0.0276	0.2364	0.6762	0.038
Mof_O 	O 	0.0003	0.2468	0.808	0.172
Mof_H 	H 	0.0007	0.2784	0.8119	-0.119
Mof_C 	C 	0.9999	0.1887	0.7501	-0.326
Mof_H 	H 	0.0108	0.1824	0.718	0.267
Mof_N 	N 	0.0302	0.1655	0.7838	-0.129
Mof_H 	H 	0.0574	0.1578	0.7697	0.082
Mof_C 	C 	0.9506	0.1698	0.7568	0.028
Mof_H 	H 	0.9352	0.1652	0.7267	0.01
Mof_H 	H 	0.9319	0.1914	0.7755	0.031
Mof_C 	C 	0.0065	0.1233	0.7997	-0.006
Mof_H 	H 	0.0068	0.1221	0.8338	0.027
Mof_H 	H 	0.0229	0.0958	0.7879	0.018
Mof_C 	C 	0.9564	0.1232	0.782	-0.143
Mof_H 	H 	0.9345	0.1208	0.8082	0.063
Mof_H 	H 	0.9511	0.0971	0.7609	0.061
Mof_O 	O 	0.7306	0.4534	0.3304	-0.414
Mof_O 	O 	0.7878	0.4561	0.2764	-0.418
Mof_O 	O 	0.7336	0.3376	0.4524	-0.371
Mof_O 	O 	0.7893	0.2801	0.4501	-0.373
Mof_C 	C 	0.7645	0.4367	0.3083	0.32
Mof_C 	C 	0.7681	0.3159	0.4359	0.297
Mof_C 	C 	0.7893	0.3943	0.3311	-0.037
Mof_C 	C 	0.827	0.3727	0.311	-0.044
Mof_H 	H 	0.8387	0.3835	0.2824	0.058
Mof_C 	C 	0.8476	0.3353	0.3327	0.016
Mof_C 	C 	0.8306	0.3195	0.3745	-0.051
Mof_H 	H 	0.8446	0.294	0.3893	0.063
Mof_C 	C 	0.7928	0.3411	0.3947	-0.028
Mof_C 	C 	0.7722	0.3785	0.373	-0.02
Mof_H 	H 	0.7465	0.3932	0.3867	0.07
Mof_C 	C 	0.9562	0.2609	0.26	0.002
Mof_C 	C 	0.9255	0.2887	0.2359	-0.042
Mof_H 	H 	0.9288	0.2924	0.2035	0.043
Mof_C 	C 	0.8901	0.311	0.2591	-0.06
Mof_H 	H 	0.8692	0.33	0.2427	0.049
Mof_C 	C 	0.8854	0.3055	0.3065	0.019
Mof_C 	C 	0.916	0.2777	0.3306	-0.059
Mof_H 	H 	0.9128	0.2739	0.3629	0.051
Mof_C 	C 	0.9514	0.2554	0.3073	-0.045
Mof_H 	H 	0.9724	0.2364	0.3238	0.041
Mof_O 	O 	0.9997	0.2468	0.192	0.187
Mof_H 	H 	0.9993	0.2784	0.1881	-0.173
Mof_C 	C 	0.0001	0.1887	0.2499	-0.33
Mof_H 	H 	0.9892	0.1824	0.282	0.221
Mof_N 	N 	0.9698	0.1655	0.2162	-0.125
Mof_H 	H 	0.9426	0.1578	0.2303	0.083
Mof_C 	C 	0.0494	0.1698	0.2432	0.032
Mof_H 	H 	0.0648	0.1652	0.2733	0.008
Mof_H 	H 	0.0681	0.1914	0.2245	0.029
Mof_C 	C 	0.9935	0.1233	0.2003	0.004
Mof_H 	H 	0.9932	0.1221	0.1662	0.026
Mof_H 	H 	0.9771	0.0958	0.2121	0.017
Mof_C 	C 	0.0436	0.1232	0.218	-0.153
Mof_H 	H 	0.0655	0.1208	0.1918	0.065
Mof_H 	H 	0.0489	0.0971	0.2391	0.063
Mof_O 	O 	0.7306	0.5466	0.6696	-0.414
Mof_O 	O 	0.7878	0.5439	0.7236	-0.418
Mof_O 	O 	0.7336	0.6624	0.5476	-0.371
Mof_O 	O 	0.7893	0.7199	0.5499	-0.373
Mof_C 	C 	0.7645	0.5633	0.6917	0.32
Mof_C 	C 	0.7681	0.6841	0.5641	0.297
Mof_C 	C 	0.7893	0.6057	0.6689	-0.037
Mof_C 	C 	0.827	0.6273	0.689	-0.044
Mof_H 	H 	0.8387	0.6165	0.7176	0.058
Mof_C 	C 	0.8476	0.6647	0.6673	0.016
Mof_C 	C 	0.8306	0.6805	0.6255	-0.051
Mof_H 	H 	0.8446	0.706	0.6107	0.063
Mof_C 	C 	0.7928	0.6589	0.6053	-0.028
Mof_C 	C 	0.7722	0.6215	0.627	-0.02
Mof_H 	H 	0.7465	0.6068	0.6133	0.07
Mof_C 	C 	0.9562	0.7391	0.74	0.002
Mof_C 	C 	0.9255	0.7113	0.7641	-0.042
Mof_H 	H 	0.9288	0.7076	0.7965	0.043
Mof_C 	C 	0.8901	0.689	0.7409	-0.06
Mof_H 	H 	0.8692	0.67	0.7573	0.049
Mof_C 	C 	0.8854	0.6945	0.6935	0.02
Mof_C 	C 	0.916	0.7223	0.6694	-0.058
Mof_H 	H 	0.9128	0.7261	0.6371	0.051
Mof_C 	C 	0.9514	0.7446	0.6927	-0.045
Mof_H 	H 	0.9724	0.7636	0.6762	0.041
Mof_O 	O 	0.9997	0.7532	0.808	0.187
Mof_H 	H 	0.9993	0.7216	0.8119	-0.172
Mof_C 	C 	0.0001	0.8113	0.7501	-0.33
Mof_H 	H 	0.9892	0.8176	0.718	0.221
Mof_N 	N 	0.9698	0.8345	0.7838	-0.125
Mof_H 	H 	0.9426	0.8422	0.7697	0.083
Mof_C 	C 	0.0494	0.8302	0.7568	0.032
Mof_H 	H 	0.0648	0.8348	0.7267	0.008
Mof_H 	H 	0.0681	0.8086	0.7755	0.029
Mof_C 	C 	0.9935	0.8767	0.7997	0.003
Mof_H 	H 	0.9932	0.8779	0.8338	0.027
Mof_H 	H 	0.9771	0.9042	0.7879	0.018
Mof_C 	C 	0.0436	0.8768	0.782	-0.153
Mof_H 	H 	0.0655	0.8792	0.8082	0.066
Mof_H 	H 	0.0489	0.9029	0.7609	0.064
Mof_O 	O 	0.2694	0.5466	0.3304	-0.414
Mof_O 	O 	0.2122	0.5439	0.2764	-0.418
Mof_O 	O 	0.2664	0.6624	0.4524	-0.371
Mof_O 	O 	0.2107	0.7199	0.4501	-0.373
Mof_C 	C 	0.2355	0.5633	0.3083	0.32
Mof_C 	C 	0.2319	0.6841	0.4359	0.297
Mof_C 	C 	0.2107	0.6057	0.3311	-0.037
Mof_C 	C 	0.173	0.6273	0.311	-0.044
Mof_H 	H 	0.1613	0.6165	0.2824	0.057
Mof_C 	C 	0.1524	0.6647	0.3327	0.015
Mof_C 	C 	0.1694	0.6805	0.3745	-0.05
Mof_H 	H 	0.1554	0.706	0.3893	0.063
Mof_C 	C 	0.2072	0.6589	0.3947	-0.028
Mof_C 	C 	0.2278	0.6215	0.373	-0.02
Mof_H 	H 	0.2535	0.6068	0.3867	0.07
Mof_C 	C 	0.0438	0.7391	0.26	-0.004
Mof_C 	C 	0.0745	0.7113	0.2359	-0.041
Mof_H 	H 	0.0712	0.7076	0.2035	0.04
Mof_C 	C 	0.1099	0.689	0.2591	-0.062
Mof_H 	H 	0.1308	0.67	0.2427	0.049
Mof_C 	C 	0.1146	0.6945	0.3065	0.02
Mof_C 	C 	0.084	0.7223	0.3306	-0.061
Mof_H 	H 	0.0872	0.7261	0.3629	0.051
Mof_C 	C 	0.0486	0.7446	0.3073	-0.043
Mof_H 	H 	0.0276	0.7636	0.3238	0.038
Mof_O 	O 	0.0003	0.7532	0.192	0.172
Mof_H 	H 	0.0007	0.7216	0.1881	-0.119
Mof_C 	C 	0.9999	0.8113	0.2499	-0.326
Mof_H 	H 	0.0108	0.8176	0.282	0.267
Mof_N 	N 	0.0302	0.8345	0.2162	-0.129
Mof_H 	H 	0.0574	0.8422	0.2303	0.082
Mof_C 	C 	0.9506	0.8302	0.2432	0.028
Mof_H 	H 	0.9352	0.8348	0.2733	0.011
Mof_H 	H 	0.9319	0.8086	0.2245	0.031
Mof_C 	C 	0.0065	0.8767	0.2003	-0.006
Mof_H 	H 	0.0068	0.8779	0.1662	0.027
Mof_H 	H 	0.0229	0.9042	0.2121	0.018
Mof_C 	C 	0.9564	0.8768	0.218	-0.143
Mof_H 	H 	0.9345	0.8792	0.1918	0.064
Mof_H 	H 	0.9511	0.9029	0.2391	0.062
Mof_O 	O 	0.4534	0.3304	0.7306	-0.414
Mof_O 	O 	0.4561	0.2764	0.7878	-0.418
Mof_O 	O 	0.3376	0.4524	0.7336	-0.371
Mof_O 	O 	0.2801	0.4501	0.7893	-0.373
Mof_C 	C 	0.4367	0.3083	0.7645	0.32
Mof_C 	C 	0.3159	0.4359	0.7681	0.297
Mof_C 	C 	0.3943	0.3311	0.7893	-0.037
Mof_C 	C 	0.3727	0.311	0.827	-0.044
Mof_H 	H 	0.3835	0.2824	0.8387	0.058
Mof_C 	C 	0.3353	0.3327	0.8476	0.016
Mof_C 	C 	0.3195	0.3745	0.8306	-0.051
Mof_H 	H 	0.294	0.3893	0.8446	0.063
Mof_C 	C 	0.3411	0.3947	0.7928	-0.028
Mof_C 	C 	0.3785	0.373	0.7722	-0.02
Mof_H 	H 	0.3932	0.3867	0.7465	0.07
Mof_C 	C 	0.2609	0.26	0.9562	0.002
Mof_C 	C 	0.2887	0.2359	0.9255	-0.042
Mof_H 	H 	0.2924	0.2035	0.9288	0.043
Mof_C 	C 	0.311	0.2591	0.8901	-0.06
Mof_H 	H 	0.33	0.2427	0.8692	0.049
Mof_C 	C 	0.3055	0.3065	0.8854	0.019
Mof_C 	C 	0.2777	0.3306	0.916	-0.059
Mof_H 	H 	0.2739	0.3629	0.9128	0.051
Mof_C 	C 	0.2554	0.3073	0.9514	-0.045
Mof_H 	H 	0.2364	0.3238	0.9724	0.041
Mof_O 	O 	0.2468	0.192	0.9997	0.187
Mof_H 	H 	0.2784	0.1881	0.9993	-0.173
Mof_C 	C 	0.1887	0.2499	0.0001	-0.33
Mof_H 	H 	0.1824	0.282	0.9892	0.221
Mof_N 	N 	0.1655	0.2162	0.9698	-0.125
Mof_H 	H 	0.1578	0.2303	0.9426	0.083
Mof_C 	C 	0.1698	0.2432	0.0494	0.032
Mof_H 	H 	0.1652	0.2733	0.0648	0.008
Mof_H 	H 	0.1914	0.2245	0.0681	0.029
Mof_C 	C 	0.1233	0.2003	0.9935	0.004
Mof_H 	H 	0.1221	0.1662	0.9932	0.026
Mof_H 	H 	0.0958	0.2121	0.9771	0.017
Mof_C 	C 	0.1232	0.218	0.0436	-0.153
Mof_H 	H 	0.1208	0.1918	0.0655	0.065
Mof_H 	H 	0.0971	0.2391	0.0489	0.063
Mof_O 	O 	0.4534	0.6696	0.2694	-0.414
Mof_O 	O 	0.4561	0.7236	0.2122	-0.418
Mof_O 	O 	0.3376	0.5476	0.2664	-0.371
Mof_O 	O 	0.2801	0.5499	0.2107	-0.373
Mof_C 	C 	0.4367	0.6917	0.2355	0.32
Mof_C 	C 	0.3159	0.5641	0.2319	0.297
Mof_C 	C 	0.3943	0.6689	0.2107	-0.037
Mof_C 	C 	0.3727	0.689	0.173	-0.044
Mof_H 	H 	0.3835	0.7176	0.1613	0.057
Mof_C 	C 	0.3353	0.6673	0.1524	0.015
Mof_C 	C 	0.3195	0.6255	0.1694	-0.05
Mof_H 	H 	0.294	0.6107	0.1554	0.062
Mof_C 	C 	0.3411	0.6053	0.2072	-0.028
Mof_C 	C 	0.3785	0.627	0.2278	-0.02
Mof_H 	H 	0.3932	0.6133	0.2535	0.07
Mof_C 	C 	0.2609	0.74	0.0438	-0.004
Mof_C 	C 	0.2887	0.7641	0.0745	-0.041
Mof_H 	H 	0.2924	0.7965	0.0712	0.041
Mof_C 	C 	0.311	0.7409	0.1099	-0.062
Mof_H 	H 	0.33	0.7573	0.1308	0.05
Mof_C 	C 	0.3055	0.6935	0.1146	0.02
Mof_C 	C 	0.2777	0.6694	0.084	-0.061
Mof_H 	H 	0.2739	0.6371	0.0872	0.051
Mof_C 	C 	0.2554	0.6927	0.0486	-0.043
Mof_H 	H 	0.2364	0.6762	0.0276	0.038
Mof_O 	O 	0.2468	0.808	0.0003	0.172
Mof_H 	H 	0.2784	0.8119	0.0007	-0.119
Mof_C 	C 	0.1887	0.7501	0.9999	-0.326
Mof_H 	H 	0.1824	0.718	0.0108	0.267
Mof_N 	N 	0.1655	0.7838	0.0302	-0.129
Mof_H 	H 	0.1578	0.7697	0.0574	0.082
Mof_C 	C 	0.1698	0.7568	0.9506	0.028
Mof_H 	H 	0.1652	0.7267	0.9352	0.01
Mof_H 	H 	0.1914	0.7755	0.9319	0.031
Mof_C 	C 	0.1233	0.7997	0.0065	-0.006
Mof_H 	H 	0.1221	0.8338	0.0068	0.027
Mof_H 	H 	0.0958	0.7879	0.0229	0.018
Mof_C 	C 	0.1232	0.782	0.9564	-0.143
Mof_H 	H 	0.1208	0.8082	0.9345	0.063
Mof_H 	H 	0.0971	0.7609	0.9511	0.061
Mof_O 	O 	0.5466	0.3304	0.2694	-0.414
Mof_O 	O 	0.5439	0.2764	0.2122	-0.418
Mof_O 	O 	0.6624	0.4524	0.2664	-0.371
Mof_O 	O 	0.7199	0.4501	0.2107	-0.373
Mof_C 	C 	0.5633	0.3083	0.2355	0.32
Mof_C 	C 	0.6841	0.4359	0.2319	0.297
Mof_C 	C 	0.6057	0.3311	0.2107	-0.037
Mof_C 	C 	0.6273	0.311	0.173	-0.044
Mof_H 	H 	0.6165	0.2824	0.1613	0.057
Mof_C 	C 	0.6647	0.3327	0.1524	0.015
Mof_C 	C 	0.6805	0.3745	0.1694	-0.05
Mof_H 	H 	0.706	0.3893	0.1554	0.063
Mof_C 	C 	0.6589	0.3947	0.2072	-0.028
Mof_C 	C 	0.6215	0.373	0.2278	-0.02
Mof_H 	H 	0.6068	0.3867	0.2535	0.07
Mof_C 	C 	0.7391	0.26	0.0438	-0.004
Mof_C 	C 	0.7113	0.2359	0.0745	-0.041
Mof_H 	H 	0.7076	0.2035	0.0712	0.04
Mof_C 	C 	0.689	0.2591	0.1099	-0.062
Mof_H 	H 	0.67	0.2427	0.1308	0.049
Mof_C 	C 	0.6945	0.3065	0.1146	0.02
Mof_C 	C 	0.7223	0.3306	0.084	-0.061
Mof_H 	H 	0.7261	0.3629	0.0872	0.051
Mof_C 	C 	0.7446	0.3073	0.0486	-0.043
Mof_H 	H 	0.7636	0.3238	0.0276	0.038
Mof_O 	O 	0.7532	0.192	0.0003	0.172
Mof_H 	H 	0.7216	0.1881	0.0007	-0.119
Mof_C 	C 	0.8113	0.2499	0.9999	-0.326
Mof_H 	H 	0.8176	0.282	0.0108	0.267
Mof_N 	N 	0.8345	0.2162	0.0302	-0.129
Mof_H 	H 	0.8422	0.2303	0.0574	0.082
Mof_C 	C 	0.8302	0.2432	0.9506	0.028
Mof_H 	H 	0.8348	0.2733	0.9352	0.011
Mof_H 	H 	0.8086	0.2245	0.9319	0.031
Mof_C 	C 	0.8767	0.2003	0.0065	-0.006
Mof_H 	H 	0.8779	0.1662	0.0068	0.027
Mof_H 	H 	0.9042	0.2121	0.0229	0.018
Mof_C 	C 	0.8768	0.218	0.9564	-0.143
Mof_H 	H 	0.8792	0.1918	0.9345	0.064
Mof_H 	H 	0.9029	0.2391	0.9511	0.062
Mof_O 	O 	0.5466	0.6696	0.7306	-0.414
Mof_O 	O 	0.5439	0.7236	0.7878	-0.418
Mof_O 	O 	0.6624	0.5476	0.7336	-0.371
Mof_O 	O 	0.7199	0.5499	0.7893	-0.373
Mof_C 	C 	0.5633	0.6917	0.7645	0.32
Mof_C 	C 	0.6841	0.5641	0.7681	0.297
Mof_C 	C 	0.6057	0.6689	0.7893	-0.037
Mof_C 	C 	0.6273	0.689	0.827	-0.044
Mof_H 	H 	0.6165	0.7176	0.8387	0.058
Mof_C 	C 	0.6647	0.6673	0.8476	0.016
Mof_C 	C 	0.6805	0.6255	0.8306	-0.051
Mof_H 	H 	0.706	0.6107	0.8446	0.063
Mof_C 	C 	0.6589	0.6053	0.7928	-0.028
Mof_C 	C 	0.6215	0.627	0.7722	-0.02
Mof_H 	H 	0.6068	0.6133	0.7465	0.07
Mof_C 	C 	0.7391	0.74	0.9562	0.002
Mof_C 	C 	0.7113	0.7641	0.9255	-0.042
Mof_H 	H 	0.7076	0.7965	0.9288	0.043
Mof_C 	C 	0.689	0.7409	0.8901	-0.06
Mof_H 	H 	0.67	0.7573	0.8692	0.049
Mof_C 	C 	0.6945	0.6935	0.8854	0.02
Mof_C 	C 	0.7223	0.6694	0.916	-0.058
Mof_H 	H 	0.7261	0.6371	0.9128	0.051
Mof_C 	C 	0.7446	0.6927	0.9514	-0.045
Mof_H 	H 	0.7636	0.6762	0.9724	0.041
Mof_O 	O 	0.7532	0.808	0.9997	0.187
Mof_H 	H 	0.7216	0.8119	0.9993	-0.172
Mof_C 	C 	0.8113	0.7501	0.0001	-0.33
Mof_H 	H 	0.8176	0.718	0.9892	0.221
Mof_N 	N 	0.8345	0.7838	0.9698	-0.125
Mof_H 	H 	0.8422	0.7697	0.9426	0.083
Mof_C 	C 	0.8302	0.7568	0.0494	0.032
Mof_H 	H 	0.8348	0.7267	0.0648	0.008
Mof_H 	H 	0.8086	0.7755	0.0681	0.029
Mof_C 	C 	0.8767	0.7997	0.9935	0.003
Mof_H 	H 	0.8779	0.8338	0.9932	0.027
Mof_H 	H 	0.9042	0.7879	0.9771	0.018
Mof_C 	C 	0.8768	0.782	0.0436	-0.153
Mof_H 	H 	0.8792	0.8082	0.0655	0.066
Mof_H 	H 	0.9029	0.7609	0.0489	0.064
Mof_Cu	Cu	0.30548	0.30548	0.5	0.909
Mof_Cu	Cu	0.24011	0.24011	0.5	0.907
Mof_Cu	Cu	0.69452	0.69452	0.5	0.909
Mof_Cu	Cu	0.75989	0.75989	0.5	0.907
Mof_Cu	Cu	0.69452	0.30548	0.5	0.909
Mof_Cu	Cu	0.75989	0.24011	0.5	0.907
Mof_Cu	Cu	0.30548	0.69452	0.5	0.909
Mof_Cu	Cu	0.24011	0.75989	0.5	0.907
Mof_Cu	Cu	0.5	0.30548	0.30548	0.909
Mof_Cu	Cu	0.5	0.24011	0.24011	0.907
Mof_Cu	Cu	0.5	0.69452	0.69452	0.909
Mof_Cu	Cu	0.5	0.75989	0.75989	0.907
Mof_Cu	Cu	0.5	0.69452	0.30548	0.909
Mof_Cu	Cu	0.5	0.75989	0.24011	0.907
Mof_Cu	Cu	0.5	0.30548	0.69452	0.909
Mof_Cu	Cu	0.5	0.24011	0.75989	0.907
Mof_Cu	Cu	0.30548	0.5	0.30548	0.909
Mof_Cu	Cu	0.24011	0.5	0.24011	0.907
Mof_Cu	Cu	0.69452	0.5	0.69452	0.909
Mof_Cu	Cu	0.75989	0.5	0.75989	0.907
Mof_Cu	Cu	0.30548	0.5	0.69452	0.909
Mof_Cu	Cu	0.24011	0.5	0.75989	0.907
Mof_Cu	Cu	0.69452	0.5	0.30548	0.909
Mof_Cu	Cu	0.75989	0.5	0.24011	0.907
Mof_C 	C 	9.02106e-34	0.2406	0.2406	0.069
Mof_C 	C 	-3.22689e-33	0.7594	0.2406	0.069
Mof_C 	C 	-5.4107e-33	0.2406	0.7594	0.069
Mof_C 	C 	2.84729e-33	0.7594	0.7594	0.069
Mof_C 	C 	0.2406	0	0.2406	0.069
Mof_C 	C 	0.2406	-8.25799e-33	0.7594	0.069
Mof_C 	C 	0.7594	0	0.2406	0.069
Mof_C 	C 	0.7594	-8.25799e-33	0.7594	0.069
Mof_C 	C 	0.2406	0.2406	-0	0.069
Mof_C 	C 	0.7594	0.2406	-0	0.069
Mof_C 	C 	0.2406	0.7594	-0	0.069
Mof_C 	C 	0.7594	0.7594	-0	0.069
_end
