data_functionalizedCrystal
_audit_creation_method	'EQeq! by Chris Wilmer'
_symmetry_space_group_name_H-M	'P1'
_symmetry_Int_Tables_number	1
_symmetry_cell_setting	triclinic
loop_
_symmetry_equiv_pos_as_xyz
  x,y,z
_cell_length_a	15.2933
_cell_length_b	15.5985
_cell_length_c	18.1942
_cell_angle_alpha	64.685
_cell_angle_beta	77.986
_cell_angle_gamma	61.077
loop_
_atom_site_label
_atom_site_type_symbol
_atom_site_fract_x
_atom_site_fract_y
_atom_site_fract_z
_atom_site_charge
Mof_C 	C 	0.1804	0.7656	0.9488	0.343
Mof_C 	C 	0.273	0.6904	0.0046	0.128
Mof_C 	C 	0.4497	0.8375	0.8393	0.278
Mof_C 	C 	0.5334	0.7262	0.8443	0.277
Mof_C 	C 	0.6925	0.7116	0.0101	0.16
Mof_C 	C 	0.79	0.691	0.9536	0.355
Mof_C 	C 	0.9463	0.6967	0.1197	0.264
Mof_C 	C 	0.0332	0.5964	0.1098	0.265
Mof_C 	C 	0.6387	0.9856	0.7119	0.33
Mof_C 	C 	0.6273	0.0236	0.7797	0.197
Mof_C 	C 	0.4475	0.3826	0.6208	0.294
Mof_C 	C 	0.5339	0.4036	0.6291	0.254
Mof_C 	C 	0.2013	0.7128	0.5094	0.274
Mof_C 	C 	0.2957	0.6977	0.454	0.272
Mof_C 	C 	0.354	0.7026	0.6897	0.276
Mof_C 	C 	0.3464	0.605	0.7548	0.25
Mof_C 	C 	0.7009	0.2421	0.4618	0.284
Mof_C 	C 	0.7931	0.1725	0.5181	0.259
Mof_C 	C 	0.8534	0.3672	0.2144	0.255
Mof_C 	C 	0.8635	0.403	0.276	0.258
Mof_C 	C 	0.9495	0.0147	0.3553	0.249
Mof_C 	C 	0.0344	0.0405	0.3494	0.247
Mof_C 	C 	0.1274	0.7199	0.2524	0.256
Mof_C 	C 	0.1179	0.8274	0.1898	0.259
Mof_O 	O 	0.0982	0.794	0.9847	-0.467
Mof_O 	O 	0.2564	0.6701	0.0798	-0.462
Mof_O 	O 	0.1921	0.7919	0.8738	-0.3
Mof_O 	O 	0.3559	0.655	0.9723	-0.215
Mof_O 	O 	0.3634	0.8591	0.8314	-0.286
Mof_O 	O 	0.509	0.6624	0.8418	-0.289
Mof_O 	O 	0.4816	0.8983	0.8414	-0.492
Mof_O 	O 	0.621	0.711	0.85	-0.496
Mof_O 	O 	0.6126	0.7764	0.9741	-0.435
Mof_O 	O 	0.7717	0.7476	0.8801	-0.51
Mof_O 	O 	0.7051	0.6633	0.085	-0.276
Mof_O 	O 	0.8706	0.6243	0.9867	-0.28
Mof_O 	O 	0.8593	0.7029	0.1273	-0.283
Mof_O 	O 	0.0189	0.5248	0.1124	-0.307
Mof_O 	O 	0.9674	0.7649	0.1176	-0.497
Mof_O 	O 	0.1183	0.5958	0.1013	-0.495
Mof_O 	O 	0.6476	0.8916	0.737	-0.503
Mof_O 	O 	0.6241	0.9616	0.8513	-0.447
Mof_O 	O 	0.6362	0.0449	0.6399	-0.334
Mof_O 	O 	0.6294	0.1092	0.7593	-0.273
Mof_O 	O 	0.468	0.2943	0.6225	-0.302
Mof_O 	O 	0.6197	0.3276	0.6426	-0.278
Mof_O 	O 	0.3636	0.4575	0.6124	-0.503
Mof_O 	O 	0.5091	0.4941	0.6264	-0.485
Mof_O 	O 	0.2191	0.6685	0.5854	-0.495
Mof_O 	O 	0.3782	0.6403	0.4914	-0.501
Mof_O 	O 	0.1197	0.7622	0.4775	-0.289
Mof_O 	O 	0.2848	0.7417	0.3794	-0.296
Mof_O 	O 	0.3644	0.7061	0.6177	-0.511
Mof_O 	O 	0.3428	0.5427	0.7287	-0.486
Mof_O 	O 	0.3461	0.7724	0.7095	-0.291
Mof_O 	O 	0.3414	0.5931	0.8272	-0.276
Mof_O 	O 	0.6184	0.2625	0.495	-0.301
Mof_O 	O 	0.7809	0.1445	0.5928	-0.294
Mof_O 	O 	0.7202	0.2702	0.387	-0.514
Mof_O 	O 	0.8768	0.1507	0.4825	-0.488
Mof_O 	O 	0.8457	0.2797	0.2442	-0.5
Mof_O 	O 	0.8723	0.3379	0.3503	-0.488
Mof_O 	O 	0.8534	0.422	0.1412	-0.309
Mof_O 	O 	0.8638	0.4892	0.2516	-0.29
Mof_O 	O 	0.8643	0.0823	0.3647	-0.499
Mof_O 	O 	0.0092	0.1297	0.3511	-0.494
Mof_O 	O 	0.9677	0.9309	0.3515	-0.261
Mof_O 	O 	0.1201	0.975	0.3437	-0.275
Mof_O 	O 	0.1291	0.7003	0.3252	-0.287
Mof_O 	O 	0.1224	0.8887	0.2149	-0.301
Mof_O 	O 	0.1285	0.6579	0.2238	-0.479
Mof_O 	O 	0.1067	0.8446	0.1163	-0.508
Mof_Cr	Cr	0.11159	0.72415	0.1041	2.063
Mof_Cr	Cr	0.62704	0.8313	0.85502	2.144
Mof_Cr	Cr	0.36262	0.58633	0.61037	2.145
Mof_Cr	Cr	0.8634	0.21017	0.36259	2.131
Mof_Mn	Mn	0.348	0.72271	0.84059	0.983
Mof_Mn	Mn	0.86162	0.56416	0.11939	0.947
Mof_Mn	Mn	0.6262	0.1919	0.62764	0.981
Mof_Mn	Mn	0.12832	0.83143	0.34396	0.97
_end
