data_functionalizedCrystal
_audit_creation_method	'EQeq! by Chris Wilmer'
_symmetry_space_group_name_H-M	'P1'
_symmetry_Int_Tables_number	1
_symmetry_cell_setting	triclinic
loop_
_symmetry_equiv_pos_as_xyz
  x,y,z
_cell_length_a	8.4738
_cell_length_b	16.6853
_cell_length_c	16.2148
_cell_angle_alpha	90
_cell_angle_beta	95.919
_cell_angle_gamma	90
loop_
_atom_site_label
_atom_site_type_symbol
_atom_site_fract_x
_atom_site_fract_y
_atom_site_fract_z
_atom_site_charge
Mof_P 	P 	0.81365	0.53488	0.76918	0.629
Mof_H 	H 	0.7696	0.4997	0.8094	-0.136
Mof_P 	P 	0.3006	0.23584	0.70784	0.624
Mof_H 	H 	0.4038	0.2533	0.7346	-0.129
Mof_P 	P 	0.01817	0.28537	0.89068	0.599
Mof_H 	H 	0.1333	0.2879	0.9048	-0.125
Mof_P 	P 	0.80155	0.24924	0.66253	0.598
Mof_H 	H 	0.7481	0.2521	0.7133	-0.136
Mof_O 	O 	0.2016	0.31037	0.69233	-0.369
Mof_O 	O 	0.9124	0.48385	0.71646	-0.341
Mof_O 	O 	0.9739	0.34365	0.82036	-0.366
Mof_O 	O 	0.8756	0.33088	0.64918	-0.323
Mof_O 	O 	0.2224	0.44349	0.80046	-0.287
Mof_O 	O 	0.1628	0.45961	0.63569	-0.254
Mof_O 	O 	0.3316	0.19757	0.62548	-0.341
Mof_O 	O 	0.9133	0.59837	0.81689	-0.373
Mof_O 	O 	0.6762	0.2306	0.59037	-0.337
Mof_O 	O 	0.939	0.30763	0.96742	-0.323
Mof_O 	O 	0.3528	0.0523	0.54403	-0.265
Mof_O 	O 	0.3436	0.9325	0.48112	-0.275
Mof_O 	O 	0.9746	0.19969	0.86495	-0.334
Mof_O 	O 	0.6763	0.5703	0.71327	-0.341
Mof_O 	O 	0.926	0.18325	0.67393	-0.347
Mof_O 	O 	0.2328	0.17864	0.76728	-0.357
Mof_O 	O 	0.4046	0.54032	0.80164	-0.28
Mof_O 	O 	0.3529	0.55306	0.63809	-0.262
Mof_C 	C 	0.268	0.5029	0.6714	0.241
Mof_C 	C 	0.3005	0.4947	0.7662	0.256
Mof_C 	C 	0.4118	0.9953	0.50735	0.246
Mof_Fe	Fe	0.04622	0.38793	0.71993	1.039
Mof_Fe	Fe	0.5094	0.14865	0.57818	1.045
Mof_Fe	Fe	0.02136	0.12854	0.77519	1.025
Mof_P 	P 	0.68635	0.03488	0.73082	0.632
Mof_H 	H 	0.7304	0.9997	0.6906	-0.138
Mof_P 	P 	0.1994	0.73584	0.79216	0.626
Mof_H 	H 	0.0962	0.7533	0.7654	-0.129
Mof_P 	P 	0.48183	0.78537	0.60932	0.619
Mof_H 	H 	0.3667	0.7879	0.5952	-0.129
Mof_P 	P 	0.69845	0.74924	0.83747	0.599
Mof_H 	H 	0.7519	0.7521	0.7867	-0.137
Mof_O 	O 	0.2984	0.81037	0.80767	-0.369
Mof_O 	O 	0.5876	0.98385	0.78354	-0.344
Mof_O 	O 	0.5261	0.84365	0.67964	-0.375
Mof_O 	O 	0.6244	0.83088	0.85082	-0.326
Mof_O 	O 	0.2776	0.94349	0.69954	-0.288
Mof_O 	O 	0.3372	0.95961	0.86431	-0.251
Mof_O 	O 	0.1684	0.69757	0.87452	-0.343
Mof_O 	O 	0.5867	0.09837	0.68311	-0.374
Mof_O 	O 	0.8238	0.7306	0.90963	-0.337
Mof_O 	O 	0.561	0.80763	0.53258	-0.331
Mof_O 	O 	0.1472	0.5523	0.95597	-0.265
Mof_O 	O 	0.1564	0.4325	0.01888	-0.272
Mof_O 	O 	0.5254	0.69969	0.63505	-0.344
Mof_O 	O 	0.8237	0.0703	0.78673	-0.337
Mof_O 	O 	0.574	0.68325	0.82607	-0.352
Mof_O 	O 	0.2672	0.67864	0.73272	-0.357
Mof_O 	O 	0.0954	0.04032	0.69836	-0.285
Mof_O 	O 	0.1471	0.05306	0.86191	-0.262
Mof_C 	C 	0.232	0.0029	0.8286	0.233
Mof_C 	C 	0.1995	0.9947	0.7338	0.265
Mof_C 	C 	0.0882	0.4953	0.99265	0.24
Mof_Fe	Fe	0.45378	0.88793	0.78007	1.047
Mof_Fe	Fe	0.9906	0.64865	0.92182	1.046
Mof_Fe	Fe	0.47864	0.62854	0.72481	1.037
Mof_P 	P 	0.18635	0.46512	0.23082	0.629
Mof_H 	H 	0.2304	0.5003	0.1906	-0.136
Mof_P 	P 	0.6994	0.76416	0.29216	0.624
Mof_H 	H 	0.5962	0.7467	0.2654	-0.129
Mof_P 	P 	0.98183	0.71463	0.10932	0.599
Mof_H 	H 	0.8667	0.7121	0.0952	-0.125
Mof_P 	P 	0.19845	0.75076	0.33747	0.598
Mof_H 	H 	0.2519	0.7479	0.2867	-0.136
Mof_O 	O 	0.7984	0.68963	0.30767	-0.369
Mof_O 	O 	0.0876	0.51615	0.28354	-0.341
Mof_O 	O 	0.0261	0.65635	0.17964	-0.366
Mof_O 	O 	0.1244	0.66912	0.35082	-0.323
Mof_O 	O 	0.7776	0.55651	0.19954	-0.287
Mof_O 	O 	0.8372	0.54039	0.36431	-0.254
Mof_O 	O 	0.6684	0.80243	0.37452	-0.341
Mof_O 	O 	0.0867	0.40163	0.18311	-0.373
Mof_O 	O 	0.3238	0.7694	0.40963	-0.337
Mof_O 	O 	0.061	0.69237	0.03258	-0.323
Mof_O 	O 	0.6472	0.9477	0.45597	-0.265
Mof_O 	O 	0.6564	0.0675	0.51888	-0.275
Mof_O 	O 	0.0254	0.80031	0.13505	-0.334
Mof_O 	O 	0.3237	0.4297	0.28673	-0.341
Mof_O 	O 	0.074	0.81675	0.32607	-0.347
Mof_O 	O 	0.7672	0.82136	0.23272	-0.357
Mof_O 	O 	0.5954	0.45968	0.19836	-0.28
Mof_O 	O 	0.6471	0.44694	0.36191	-0.262
Mof_C 	C 	0.732	0.4971	0.3286	0.241
Mof_C 	C 	0.6995	0.5053	0.2338	0.256
Mof_C 	C 	0.5882	0.0047	0.49265	0.246
Mof_Fe	Fe	0.95378	0.61207	0.28007	1.039
Mof_Fe	Fe	0.4906	0.85135	0.42182	1.045
Mof_Fe	Fe	0.97864	0.87146	0.22481	1.025
Mof_P 	P 	0.31365	0.96512	0.26918	0.632
Mof_H 	H 	0.2696	0.0003	0.3094	-0.138
Mof_P 	P 	0.8006	0.26416	0.20784	0.626
Mof_H 	H 	0.9038	0.2467	0.2346	-0.129
Mof_P 	P 	0.51817	0.21463	0.39068	0.619
Mof_H 	H 	0.6333	0.2121	0.4048	-0.129
Mof_P 	P 	0.30155	0.25076	0.16253	0.599
Mof_H 	H 	0.2481	0.2479	0.2133	-0.137
Mof_O 	O 	0.7016	0.18963	0.19233	-0.369
Mof_O 	O 	0.4124	0.01615	0.21646	-0.344
Mof_O 	O 	0.4739	0.15635	0.32036	-0.375
Mof_O 	O 	0.3756	0.16912	0.14918	-0.326
Mof_O 	O 	0.7224	0.05651	0.30046	-0.288
Mof_O 	O 	0.6628	0.04039	0.13569	-0.251
Mof_O 	O 	0.8316	0.30243	0.12548	-0.343
Mof_O 	O 	0.4133	0.90163	0.31689	-0.374
Mof_O 	O 	0.1762	0.2694	0.09037	-0.337
Mof_O 	O 	0.439	0.19237	0.46742	-0.331
Mof_O 	O 	0.8528	0.4477	0.04403	-0.265
Mof_O 	O 	0.8436	0.5675	0.98112	-0.272
Mof_O 	O 	0.4746	0.30031	0.36495	-0.344
Mof_O 	O 	0.1763	0.9297	0.21327	-0.337
Mof_O 	O 	0.426	0.31675	0.17393	-0.352
Mof_O 	O 	0.7328	0.32136	0.26728	-0.357
Mof_O 	O 	0.9046	0.95968	0.30164	-0.285
Mof_O 	O 	0.8529	0.94694	0.13809	-0.262
Mof_C 	C 	0.768	0.9971	0.1714	0.233
Mof_C 	C 	0.8005	0.0053	0.2662	0.265
Mof_C 	C 	0.9118	0.5047	0.00735	0.24
Mof_Fe	Fe	0.54622	0.11207	0.21993	1.047
Mof_Fe	Fe	0.0094	0.35135	0.07818	1.046
Mof_Fe	Fe	0.52136	0.37146	0.27519	1.037
_end
