data_functionalizedCrystal
_audit_creation_method	'EQeq! by Chris Wilmer'
_symmetry_space_group_name_H-M	'P1'
_symmetry_Int_Tables_number	1
_symmetry_cell_setting	triclinic
loop_
_symmetry_equiv_pos_as_xyz
  x,y,z
_cell_length_a	11.855
_cell_length_b	23.235
_cell_length_c	36.749
_cell_angle_alpha	95.26
_cell_angle_beta	90
_cell_angle_gamma	90
loop_
_atom_site_label
_atom_site_type_symbol
_atom_site_fract_x
_atom_site_fract_y
_atom_site_fract_z
_atom_site_charge
Mof_Cd	Cd	0.3387	0.75843	0.25319	0.482
Mof_Cd	Cd	0.01621	0.86517	0.28335	0.415
Mof_Cd	Cd	0.36817	0.59584	0.22548	0.457
Mof_Cd	Cd	0.78162	0.94343	0.22977	0.446
Mof_Cd	Cd	0.8387	0.24157	0.74681	0.485
Mof_Cd	Cd	0.51621	0.13483	0.71665	0.444
Mof_Cd	Cd	0.86817	0.40416	0.77452	0.464
Mof_Cd	Cd	0.28162	0.05657	0.77023	0.434
Mof_Ni	Ni	0.5022	0.5841	0.48633	1.095
Mof_Ni	Ni	0.95881	0.91395	0.48199	1.112
Mof_Ni	Ni	0.29172	0.57815	0.02446	1.096
Mof_Ni	Ni	0.81345	0.91997	0.02515	1.105
Mof_Ni	Ni	0.0022	0.4159	0.51367	1.077
Mof_Ni	Ni	0.45881	0.08605	0.51801	1.102
Mof_Ni	Ni	0.79172	0.42185	0.97554	1.101
Mof_Ni	Ni	0.31345	0.08003	0.97485	1.102
Mof_H 	H 	0.3133	0.6112	0.1228	0.031
Mof_H 	H 	0.4835	0.4691	0.0515	0.002
Mof_H 	H 	0.1992	0.6807	0.1505	0.035
Mof_H 	H 	0.5354	0.4615	0.9286	-0.056
Mof_H 	H 	0.3916	0.5666	0.8623	-0.186
Mof_H 	H 	0.3999	0.5264	0.1064	0.047
Mof_H 	H 	0.8084	0.8152	0.3608	0.012
Mof_H 	H 	0.7063	0.4811	0.448	0.015
Mof_H 	H 	0.7356	0.493	0.5094	-0.018
Mof_H 	H 	0.7887	0.9267	0.1227	0.013
Mof_H 	H 	0.9144	0.9921	0.1098	0.065
Mof_H 	H 	0.0581	0.9509	0.395	0.04
Mof_H 	H 	0.1444	0.0176	0.4464	0.015
Mof_H 	H 	0.1462	0.0347	0.5066	-0.053
Mof_H 	H 	0.0124	0.0283	0.0534	-0.061
Mof_H 	H 	0.6032	0.5296	0.3979	0.048
Mof_H 	H 	0.1418	0.7488	0.444	-0.096
Mof_H 	H 	0.5847	0.7516	0.4281	-0.117
Mof_H 	H 	0.4779	0.7541	0.0828	-0.114
Mof_H 	H 	0.3525	0.6694	0.3722	0.006
Mof_H 	H 	0.1255	0.7712	0.3852	-0.019
Mof_H 	H 	0.0981	0.7579	0.1812	0.032
Mof_H 	H 	0.4827	0.4632	0.9891	-0.054
Mof_H 	H 	0.7588	0.478	0.5701	-0.006
Mof_H 	H 	0.5531	0.7377	0.3615	-0.011
Mof_H 	H 	0.0312	0.0115	0.9943	-0.074
Mof_H 	H 	0.6131	0.4629	0.8681	-0.039
Mof_H 	H 	0.4724	0.6975	0.1273	0.156
Mof_H 	H 	0.8449	0.7425	0.0476	0.488
Mof_H 	H 	0.8646	0.7634	0.0088	0.445
Mof_H 	H 	0.9272	0.7941	0.0428	0.485
Mof_H 	H 	0.6517	0.8245	0.3257	0.151
Mof_H 	H 	0.108	0.5847	0.8994	0.796
Mof_H 	H 	0.0864	0.6504	0.9109	0.761
Mof_H 	H 	0.1299	0.61	0.9398	0.81
Mof_H 	H 	0.9458	0.818	0.1448	0.129
Mof_H 	H 	0.5679	0.782	0.1738	-0.01
Mof_H 	H 	0.6891	0.8503	0.1476	0.006
Mof_H 	H 	0.8994	0.6438	0.0209	0.5
Mof_H 	H 	0.013	0.6349	0.9993	0.458
Mof_H 	H 	0.9153	0.6709	0.9837	0.468
Mof_H 	H 	0.8048	0.4621	0.6298	-0.001
Mof_H 	H 	0.2459	0.7165	0.9241	0.73
Mof_H 	H 	0.3697	0.6929	0.9211	0.734
Mof_H 	H 	0.292	0.6773	0.9533	0.751
Mof_H 	H 	0.8916	0.5037	0.4383	0.065
Mof_H 	H 	0.8974	0.8999	0.8614	-0.106
Mof_H 	H 	0.0817	0.9511	0.6419	-0.194
Mof_H 	H 	0.2819	0.7332	0.332	0.169
Mof_H 	H 	0.9047	0.7789	0.9194	0.61
Mof_H 	H 	0.7833	0.7524	0.9203	0.602
Mof_H 	H 	0.8228	0.7984	0.9516	0.614
Mof_H 	H 	0.9713	0.7611	0.0932	-0.017
Mof_H 	H 	0.6887	0.4888	0.7556	0.327
Mof_H 	H 	0.6888	0.5162	0.6867	0.14
Mof_H 	H 	0.2682	0.0646	0.6264	-0.074
Mof_H 	H 	0.2041	0.0461	0.5673	-0.075
Mof_H 	H 	0.2268	0.4486	0.0133	0.039
Mof_H 	H 	0.9957	0.9425	0.8169	0.162
Mof_H 	H 	0.2904	0.7688	0.5237	0.442
Mof_H 	H 	0.3326	0.7087	0.5344	0.444
Mof_H 	H 	0.2304	0.7393	0.5551	0.421
Mof_H 	H 	0.3782	0.4298	0.1099	0.023
Mof_H 	H 	0.8591	0.8051	0.8571	0.656
Mof_H 	H 	0.7526	0.8428	0.8506	0.659
Mof_H 	H 	0.738	0.7793	0.861	0.64
Mof_H 	H 	0.098	0.6244	0.5024	0.451
Mof_H 	H 	0.1148	0.6528	0.5425	0.434
Mof_H 	H 	0.2157	0.621	0.5216	0.464
Mof_H 	H 	0.7754	0.7161	0.5001	0.628
Mof_H 	H 	0.7301	0.7443	0.5377	0.597
Mof_H 	H 	0.8221	0.7762	0.5163	0.624
Mof_H 	H 	0.3191	0.5854	0.6098	0.428
Mof_H 	H 	0.3373	0.6138	0.5731	0.429
Mof_H 	H 	0.2892	0.6507	0.6075	0.398
Mof_H 	H 	0.0882	0.0204	0.8698	0.018
Mof_H 	H 	0.2147	0.0013	0.6806	0.195
Mof_H 	H 	0.6174	0.728	0.9997	0.57
Mof_H 	H 	0.6532	0.788	0.9871	0.56
Mof_H 	H 	0.5539	0.7532	0.9673	0.534
Mof_H 	H 	0.5099	0.691	0.571	0.349
Mof_H 	H 	0.576	0.7052	0.6076	0.347
Mof_H 	H 	0.4509	0.726	0.6042	0.342
Mof_H 	H 	0.0933	0.3821	0.0282	-0.013
Mof_H 	H 	0.7586	0.8688	0.6058	0.649
Mof_H 	H 	0.7964	0.9031	0.573	0.687
Mof_H 	H 	0.7885	0.9347	0.6125	0.692
Mof_H 	H 	0.5833	0.7066	0.4783	0.619
Mof_H 	H 	0.5046	0.7607	0.4774	0.643
Mof_H 	H 	0.5353	0.7373	0.5148	0.607
Mof_H 	H 	0.6011	0.8328	0.5384	0.613
Mof_H 	H 	0.5692	0.8566	0.5012	0.643
Mof_H 	H 	0.6915	0.8654	0.5169	0.639
Mof_H 	H 	0.5418	0.4461	0.3649	0.049
Mof_H 	H 	0.5048	0.5286	0.8198	0.164
Mof_H 	H 	0.4083	0.8654	0.02	0.657
Mof_H 	H 	0.4262	0.8373	0.98	0.623
Mof_H 	H 	0.5236	0.8731	0.0002	0.658
Mof_H 	H 	0.8869	0.0443	0.4809	0.044
Mof_H 	H 	0.5939	0.5719	0.6484	-0.066
Mof_H 	H 	0.0489	0.0512	0.3868	-0.033
Mof_H 	H 	0.1464	0.7166	0.9937	0.42
Mof_H 	H 	0.1113	0.7786	0.0103	0.431
Mof_H 	H 	0.0463	0.7488	0.9765	0.392
Mof_H 	H 	0.5128	0.6185	0.0436	0.004
Mof_H 	H 	0.5804	0.5308	0.1296	0.038
Mof_H 	H 	0.0934	0.7755	0.4954	0.418
Mof_H 	H 	0.0478	0.7447	0.5286	0.384
Mof_H 	H 	0.0214	0.719	0.4886	0.421
Mof_H 	H 	0.2394	0.9449	0.3717	0.039
Mof_H 	H 	0.0068	0.658	0.4146	0.009
Mof_H 	H 	0.1812	0.8738	0.4651	0.008
Mof_H 	H 	0.0412	0.8197	0.5904	0.655
Mof_H 	H 	0.9551	0.8312	0.5595	0.697
Mof_H 	H 	0.9165	0.7978	0.5925	0.673
Mof_H 	H 	0.4527	0.4686	0.4697	0.019
Mof_H 	H 	0.9277	0.1205	0.37	0.021
Mof_H 	H 	0.4194	0.9067	0.3712	0.019
Mof_H 	H 	0.0992	0.3401	0.0822	-0.021
Mof_H 	H 	0.6817	0.6354	0.4382	0.009
Mof_H 	H 	0.4269	0.6164	0.664	0.393
Mof_H 	H 	0.4061	0.6821	0.6596	0.37
Mof_H 	H 	0.5295	0.6588	0.6626	0.387
Mof_H 	H 	0.7559	0.5741	0.1338	0.023
Mof_H 	H 	0.2264	0.6109	0.8512	0.8
Mof_H 	H 	0.3298	0.6522	0.8592	0.797
Mof_H 	H 	0.2067	0.6766	0.8633	0.775
Mof_H 	H 	0.8261	0.6938	0.4256	0.046
Mof_H 	H 	0.0599	0.0141	0.9325	0.017
Mof_H 	H 	0.8172	0.6332	0.0905	0.062
Mof_H 	H 	0.6582	0.8639	0.9393	0.696
Mof_H 	H 	0.6171	0.8153	0.9099	0.65
Mof_H 	H 	0.6354	0.8784	0.8992	0.683
Mof_H 	H 	0.3621	0.8367	0.464	-0.026
Mof_H 	H 	0.7831	0.0483	0.031	0.038
Mof_H 	H 	0.6904	0.6568	0.0469	-0.029
Mof_H 	H 	0.6735	0.1317	0.035	-0.005
Mof_H 	H 	0.4893	0.8586	0.4185	0.057
Mof_H 	H 	0.8245	0.0675	0.1393	0.058
Mof_H 	H 	0.0243	0.8644	0.6486	0.673
Mof_H 	H 	0.8986	0.8442	0.6509	0.686
Mof_H 	H 	0.929	0.9097	0.6591	0.723
Mof_H 	H 	0.2413	0.3642	0.1238	-0.019
Mof_H 	H 	0.0391	0.5655	0.4323	-0.017
Mof_H 	H 	0.0162	0.8763	0.0536	-0.072
Mof_H 	H 	0.4365	0.361	0.358	-0.006
Mof_H 	H 	0.9649	0.8677	0.3846	0.047
Mof_H 	H 	0.4676	0.5937	0.3883	0.019
Mof_H 	H 	0.76	0.112	0.4636	0.005
Mof_H 	H 	0.773	0.1472	0.4068	-0.022
Mof_H 	H 	0.3583	0.3798	0.4648	0
Mof_H 	H 	0.3503	0.3305	0.4084	-0.017
Mof_H 	H 	0.66	0.1881	0.0902	-0.029
Mof_H 	H 	0.7235	0.1538	0.1443	-0.011
Mof_H 	H 	0.3203	0.8606	0.1006	0.009
Mof_H 	H 	0.1563	0.8242	0.0725	0.04
Mof_H 	H 	0.3062	0.9623	0.1109	0.061
Mof_H 	H 	0.3511	0.7738	0.0374	0.623
Mof_H 	H 	0.4286	0.7193	0.0299	0.611
Mof_H 	H 	0.3709	0.7468	0.9973	0.577
Mof_H 	H 	0.1994	0.0113	0.0726	0.001
Mof_H 	H 	0.8133	0.3888	0.8772	0.026
Mof_H 	H 	0.9835	0.5309	0.9485	0.029
Mof_H 	H 	0.6992	0.3193	0.8495	0.019
Mof_H 	H 	0.0354	0.5385	0.0714	-0.108
Mof_H 	H 	0.8916	0.4334	0.1377	-0.187
Mof_H 	H 	0.8999	0.4736	0.8936	0.033
Mof_H 	H 	0.3084	0.1848	0.6392	0.013
Mof_H 	H 	0.2063	0.5189	0.552	0.016
Mof_H 	H 	0.2356	0.507	0.4906	-0.019
Mof_H 	H 	0.2887	0.0733	0.8773	0.028
Mof_H 	H 	0.4144	0.0079	0.8902	0.041
Mof_H 	H 	0.5581	0.0491	0.605	0.048
Mof_H 	H 	0.6444	0.9824	0.5536	0.013
Mof_H 	H 	0.6462	0.9653	0.4934	-0.061
Mof_H 	H 	0.5124	0.9717	0.9466	0.007
Mof_H 	H 	0.1032	0.4704	0.6021	0.038
Mof_H 	H 	0.6418	0.2512	0.556	-0.099
Mof_H 	H 	0.0847	0.2484	0.5719	-0.108
Mof_H 	H 	0.9779	0.2459	0.9172	0.024
Mof_H 	H 	0.8525	0.3306	0.6278	0.003
Mof_H 	H 	0.6255	0.2288	0.6148	-0.014
Mof_H 	H 	0.5981	0.2421	0.8188	-0.005
Mof_H 	H 	0.9827	0.5368	0.0109	-0.045
Mof_H 	H 	0.2588	0.522	0.4299	-0.014
Mof_H 	H 	0.0531	0.2623	0.6385	-0.009
Mof_H 	H 	0.5312	0.9885	0.0057	-0.044
Mof_H 	H 	0.1131	0.5371	0.1319	-0.025
Mof_H 	H 	0.9724	0.3025	0.8727	0.106
Mof_H 	H 	0.3449	0.2575	0.9524	0.487
Mof_H 	H 	0.3646	0.2366	0.9912	0.443
Mof_H 	H 	0.4272	0.2059	0.9572	0.472
Mof_H 	H 	0.1517	0.1755	0.6743	0.124
Mof_H 	H 	0.608	0.4153	0.1006	0.864
Mof_H 	H 	0.5864	0.3496	0.0891	0.829
Mof_H 	H 	0.6299	0.39	0.0602	0.875
Mof_H 	H 	0.4458	0.182	0.8552	0.159
Mof_H 	H 	0.0679	0.218	0.8262	0.044
Mof_H 	H 	0.1891	0.1497	0.8524	0.049
Mof_H 	H 	0.3994	0.3562	0.9791	0.546
Mof_H 	H 	0.513	0.3651	0.0007	0.536
Mof_H 	H 	0.4153	0.3291	0.0163	0.512
Mof_H 	H 	0.3048	0.5379	0.3702	-0.01
Mof_H 	H 	0.7459	0.2835	0.0759	0.799
Mof_H 	H 	0.8697	0.3071	0.0789	0.812
Mof_H 	H 	0.792	0.3227	0.0467	0.826
Mof_H 	H 	0.3916	0.4963	0.5617	0.051
Mof_H 	H 	0.3974	0.1001	0.1386	-0.137
Mof_H 	H 	0.5817	0.0489	0.3581	-0.222
Mof_H 	H 	0.7819	0.2668	0.668	0.17
Mof_H 	H 	0.4047	0.2211	0.0806	0.592
Mof_H 	H 	0.2833	0.2476	0.0797	0.595
Mof_H 	H 	0.3228	0.2016	0.0484	0.611
Mof_H 	H 	0.4713	0.2389	0.9068	-0.08
Mof_H 	H 	0.1887	0.5112	0.2444	0.326
Mof_H 	H 	0.1888	0.4838	0.3133	0.14
Mof_H 	H 	0.7682	0.9354	0.3736	-0.084
Mof_H 	H 	0.7041	0.9539	0.4327	-0.089
Mof_H 	H 	0.7268	0.5514	0.9867	0.047
Mof_H 	H 	0.4957	0.0575	0.1831	0.119
Mof_H 	H 	0.7904	0.2312	0.4763	0.468
Mof_H 	H 	0.8326	0.2913	0.4656	0.47
Mof_H 	H 	0.7304	0.2607	0.4449	0.439
Mof_H 	H 	0.8782	0.5702	0.8901	0.04
Mof_H 	H 	0.3591	0.1949	0.1429	0.639
Mof_H 	H 	0.2526	0.1572	0.1494	0.644
Mof_H 	H 	0.238	0.2207	0.139	0.624
Mof_H 	H 	0.598	0.3756	0.4976	0.483
Mof_H 	H 	0.6148	0.3472	0.4575	0.462
Mof_H 	H 	0.7157	0.379	0.4784	0.485
Mof_H 	H 	0.2754	0.2839	0.4999	0.57
Mof_H 	H 	0.2301	0.2557	0.4623	0.536
Mof_H 	H 	0.3221	0.2238	0.4837	0.559
Mof_H 	H 	0.8191	0.4146	0.3902	0.487
Mof_H 	H 	0.8373	0.3862	0.4269	0.488
Mof_H 	H 	0.7892	0.3493	0.3925	0.454
Mof_H 	H 	0.5882	0.9796	0.1302	-0.007
Mof_H 	H 	0.7147	0.9987	0.3194	0.204
Mof_H 	H 	0.1174	0.272	0.0003	0.39
Mof_H 	H 	0.1532	0.212	0.0129	0.383
Mof_H 	H 	0.0539	0.2468	0.0327	0.35
Mof_H 	H 	0.0099	0.309	0.429	0.442
Mof_H 	H 	0.076	0.2948	0.3924	0.442
Mof_H 	H 	0.9509	0.274	0.3958	0.469
Mof_H 	H 	0.5933	0.6179	0.9718	-0.016
Mof_H 	H 	0.2586	0.1312	0.3942	0.739
Mof_H 	H 	0.2964	0.0969	0.427	0.782
Mof_H 	H 	0.2885	0.0653	0.3875	0.782
Mof_H 	H 	0.0833	0.2934	0.5217	0.553
Mof_H 	H 	0.0046	0.2393	0.5226	0.57
Mof_H 	H 	0.0353	0.2627	0.4852	0.534
Mof_H 	H 	0.1011	0.1672	0.4616	0.546
Mof_H 	H 	0.0692	0.1434	0.4988	0.578
Mof_H 	H 	0.1915	0.1346	0.4831	0.578
Mof_H 	H 	0.0418	0.5539	0.6351	0.06
Mof_H 	H 	0.0048	0.4714	0.1802	0.142
Mof_H 	H 	0.9083	0.1346	0.98	0.417
Mof_H 	H 	0.9262	0.1627	0.02	0.39
Mof_H 	H 	0.0236	0.1269	0.9998	0.385
Mof_H 	H 	0.3869	0.9557	0.5191	0.044
Mof_H 	H 	0.0939	0.4281	0.3516	-0.094
Mof_H 	H 	0.5489	0.9488	0.6132	0.037
Mof_H 	H 	0.6464	0.2834	0.0063	0.413
Mof_H 	H 	0.6113	0.2214	0.9897	0.429
Mof_H 	H 	0.5463	0.2512	0.0235	0.393
Mof_H 	H 	0.0128	0.3815	0.9564	-0.035
Mof_H 	H 	0.0804	0.4692	0.8704	-0
Mof_H 	H 	0.5934	0.2245	0.5046	0.45
Mof_H 	H 	0.5478	0.2553	0.4714	0.416
Mof_H 	H 	0.5214	0.281	0.5114	0.461
Mof_H 	H 	0.7394	0.0551	0.6283	0.046
Mof_H 	H 	0.5068	0.342	0.5854	0.059
Mof_H 	H 	0.6812	0.1262	0.5349	0.01
Mof_H 	H 	0.5412	0.1803	0.4096	0.833
Mof_H 	H 	0.4551	0.1688	0.4405	0.84
Mof_H 	H 	0.4165	0.2022	0.4075	0.818
Mof_H 	H 	0.9527	0.5314	0.5303	0.016
Mof_H 	H 	0.4277	0.8795	0.63	-0.012
Mof_H 	H 	0.9194	0.0933	0.6288	0.033
Mof_H 	H 	0.5992	0.6599	0.9178	-0.009
Mof_H 	H 	0.1817	0.3646	0.5618	0.014
Mof_H 	H 	0.9269	0.3836	0.336	0.411
Mof_H 	H 	0.9061	0.3179	0.3404	0.381
Mof_H 	H 	0.0295	0.3412	0.3374	0.366
Mof_H 	H 	0.2559	0.4259	0.8662	0.041
Mof_H 	H 	0.7264	0.3891	0.1488	0.866
Mof_H 	H 	0.8298	0.3478	0.1408	0.863
Mof_H 	H 	0.7067	0.3234	0.1367	0.84
Mof_H 	H 	0.3261	0.3062	0.5744	0.025
Mof_H 	H 	0.5599	0.9859	0.0675	-0.033
Mof_H 	H 	0.3172	0.3668	0.9095	0.027
Mof_H 	H 	0.1582	0.1361	0.0607	0.702
Mof_H 	H 	0.1171	0.1847	0.0901	0.647
Mof_H 	H 	0.1354	0.1216	0.1008	0.676
Mof_H 	H 	0.8621	0.1633	0.536	-0.014
Mof_H 	H 	0.2831	0.9517	0.969	0.025
Mof_H 	H 	0.1904	0.3432	0.9531	0.003
Mof_H 	H 	0.1735	0.8683	0.965	-0.008
Mof_H 	H 	0.9893	0.1414	0.5815	0.074
Mof_H 	H 	0.3245	0.9325	0.8607	0.047
Mof_H 	H 	0.5243	0.1356	0.3514	0.85
Mof_H 	H 	0.3986	0.1558	0.3491	0.824
Mof_H 	H 	0.429	0.0903	0.3409	0.86
Mof_H 	H 	0.7413	0.6358	0.8762	-0.019
Mof_H 	H 	0.5391	0.4345	0.5677	0.022
Mof_H 	H 	0.5162	0.1237	0.9464	-0.004
Mof_H 	H 	0.9365	0.639	0.642	-0.019
Mof_H 	H 	0.4649	0.1323	0.6154	0.036
Mof_H 	H 	0.9676	0.4063	0.6117	0.012
Mof_H 	H 	0.26	0.888	0.5364	-0.009
Mof_H 	H 	0.273	0.8528	0.5932	0.003
Mof_H 	H 	0.8583	0.6202	0.5352	0.003
Mof_H 	H 	0.8503	0.6695	0.5916	0.003
Mof_H 	H 	0.16	0.8119	0.9098	-0.038
Mof_H 	H 	0.2235	0.8462	0.8557	-0.01
Mof_H 	H 	0.8203	0.1394	0.8994	0.071
Mof_H 	H 	0.6563	0.1758	0.9275	0.001
Mof_H 	H 	0.8062	0.0377	0.8891	0.025
Mof_H 	H 	0.8511	0.2262	0.9626	0.426
Mof_H 	H 	0.9286	0.2807	0.9701	0.422
Mof_H 	H 	0.8709	0.2532	0.0027	0.385
Mof_H 	H 	0.6994	0.9887	0.9274	0.049
Mof_C 	C 	0.1471	0.6616	0.0617	0.342
Mof_C 	C 	0.0808	0.729	0.1281	-0.111
Mof_C 	C 	0.2828	0.6131	0.0996	0.079
Mof_C 	C 	0.4108	0.4893	0.0528	-0.036
Mof_C 	C 	0.1641	0.6867	0.1286	0.051
Mof_C 	C 	0.0588	0.7046	0.0605	-0.515
Mof_C 	C 	0.4204	0.5155	0.9543	-0.316
Mof_C 	C 	0.3397	0.5605	0.9488	0.478
Mof_C 	C 	0.4864	0.4915	0.9246	0.22
Mof_C 	C 	0.9985	0.7148	0.0255	1.16
Mof_C 	C 	0.3997	0.5545	0.8856	0.473
Mof_C 	C 	0.3331	0.5802	0.9121	-0.842
Mof_C 	C 	0.4165	0.5409	0.0828	-0.051
Mof_C 	C 	0.1967	0.6524	0.0963	-0.19
Mof_C 	C 	0.8423	0.8353	0.4158	-0.229
Mof_C 	C 	0.8033	0.8291	0.4514	0.427
Mof_C 	C 	0.7071	0.7938	0.4564	-0.67
Mof_C 	C 	0.7813	0.8115	0.3842	0.13
Mof_C 	C 	0.6806	0.7826	0.3896	-0.218
Mof_C 	C 	0.6758	0.5204	0.4487	-0.035
Mof_C 	C 	0.6758	0.5186	0.5138	0.084
Mof_C 	C 	0.1614	0.7929	0.3194	0.392
Mof_C 	C 	0.5426	0.5906	0.5988	-0.452
Mof_C 	C 	0.5623	0.5747	0.5616	0.342
Mof_C 	C 	0.6453	0.5333	0.5507	-0.221
Mof_C 	C 	0.8692	0.9142	0.9504	0.401
Mof_C 	C 	0.7709	0.9147	0.0986	0.112
Mof_C 	C 	0.8838	0.9949	0.0852	-0.101
Mof_C 	C 	0.0773	0.9417	0.4198	-0.062
Mof_C 	C 	0.011	0.9449	0.5565	0.43
Mof_C 	C 	0.0709	0.9983	0.4462	-0.066
Mof_C 	C 	0.0987	0.0042	0.5108	0.145
Mof_C 	C 	0.6527	0.8512	0.0578	0.422
Mof_C 	C 	0.9835	0.9894	0.0562	0.138
Mof_C 	C 	0.084	0.9911	0.5474	-0.323
Mof_C 	C 	0.3694	0.6445	0.4233	-0.233
Mof_C 	C 	0.7685	0.5625	0.4409	0.029
Mof_C 	C 	0.5748	0.5218	0.4221	-0.051
Mof_C 	C 	0.1994	0.722	0.4391	0.278
Mof_C 	C 	0.5649	0.8101	0.0546	-0.652
Mof_C 	C 	0.6494	0.7733	0.4251	0.336
Mof_C 	C 	0.2402	0.7146	0.403	-0.205
Mof_C 	C 	0.5332	0.7826	0.0853	0.316
Mof_C 	C 	0.3328	0.6543	0.4596	0.363
Mof_C 	C 	0.3242	0.6756	0.3959	0.126
Mof_C 	C 	0.1881	0.7497	0.377	0.163
Mof_C 	C 	0.0584	0.7662	0.1605	0.058
Mof_C 	C 	0.4356	0.495	0.988	0.153
Mof_C 	C 	0.7053	0.506	0.5775	0.103
Mof_C 	C 	0.3153	0.446	0.0606	0.016
Mof_C 	C 	0.6033	0.768	0.3594	0.165
Mof_C 	C 	0.9768	0.9826	0.9919	0.171
Mof_C 	C 	0.5055	0.7935	0.0178	1.523
Mof_C 	C 	0.5591	0.4895	0.8621	0.252
Mof_C 	C 	0.7821	0.8353	0.9043	1.653
Mof_C 	C 	0.4916	0.7161	0.1499	-0.339
Mof_C 	C 	0.1538	0.0065	0.6095	-0.397
Mof_C 	C 	0.4603	0.6372	0.6112	0.917
Mof_C 	C 	0.5118	0.4646	0.4185	0.032
Mof_C 	C 	0.8553	0.89	0.913	-0.653
Mof_C 	C 	0.8994	0.7578	0.0318	-1.571
Mof_C 	C 	0.5996	0.7954	0.3286	-0.297
Mof_C 	C 	0.1336	0.6179	0.9146	-2.669
Mof_C 	C 	0.9891	0.8106	0.1649	-0.241
Mof_C 	C 	0.5478	0.7653	0.1507	0.184
Mof_C 	C 	0.075	0.9549	0.067	-0.14
Mof_C 	C 	0.9315	0.8832	0.6056	1.845
Mof_C 	C 	0.0101	0.9319	0.594	-0.821
Mof_C 	C 	0.66	0.8393	0.1245	0.133
Mof_C 	C 	0.9524	0.6614	0.0056	-1.579
Mof_C 	C 	0.2528	0.6312	0.9049	2.056
Mof_C 	C 	0.7518	0.4883	0.64	0.158
Mof_C 	C 	0.4587	0.6901	0.1822	0.413
Mof_C 	C 	0.2938	0.6843	0.928	-2.559
Mof_C 	C 	0.8771	0.5428	0.4369	-0.124
Mof_C 	C 	0.9106	0.9149	0.8854	0.278
Mof_C 	C 	0.5824	0.7965	0.1199	-0.222
Mof_C 	C 	0.081	0.9613	0.618	0.492
Mof_C 	C 	0.2209	0.7546	0.3417	-0.308
Mof_C 	C 	0.5168	0.7812	0.2995	0.386
Mof_C 	C 	0.8275	0.7867	0.9259	-2.093
Mof_C 	C 	0.03	0.7346	0.0936	0.139
Mof_C 	C 	0.3433	0.0581	0.6894	0.506
Mof_C 	C 	0.7444	0.4927	0.6753	-0.31
Mof_C 	C 	0.2291	0.0345	0.6357	0.365
Mof_C 	C 	0.1258	0.9992	0.8028	0.391
Mof_C 	C 	0.1541	0.0182	0.5742	0.269
Mof_C 	C 	0.821	0.462	0.6977	0.387
Mof_C 	C 	0.2304	0.432	0.0354	-0.122
Mof_C 	C 	0.6525	0.4837	0.804	0.467
Mof_C 	C 	0.045	0.9711	0.8266	-0.34
Mof_C 	C 	0.2675	0.7326	0.5319	-1.488
Mof_C 	C 	0.32	0.4203	0.0934	-0.108
Mof_C 	C 	0.783	0.8137	0.8647	-2.214
Mof_C 	C 	0.1502	0.6446	0.5191	-1.471
Mof_C 	C 	0.7565	0.7519	0.5139	-2.079
Mof_C 	C 	0.8141	0.0487	0.0851	0.065
Mof_C 	C 	0.3403	0.6202	0.5993	-1.386
Mof_C 	C 	0.045	0.9879	0.8625	0.076
Mof_C 	C 	0.2561	0.0281	0.6688	-0.509
Mof_C 	C 	0.5906	0.7627	0.9904	-1.911
Mof_C 	C 	0.5035	0.6956	0.5971	-1.225
Mof_C 	C 	0.1512	0.3922	0.0447	-0.014
Mof_C 	C 	0.8069	0.899	0.5986	-2.265
Mof_C 	C 	0.5627	0.7432	0.4909	-2.095
Mof_C 	C 	0.6282	0.8396	0.5146	-2.088
Mof_C 	C 	0.1858	0.702	0.5039	1.064
Mof_C 	C 	0.5046	0.4332	0.3849	-0.104
Mof_C 	C 	0.5607	0.5049	0.828	-0.384
Mof_C 	C 	0.462	0.8471	0.0032	-2.13
Mof_C 	C 	0.4823	0.51	0.8902	-0.319
Mof_C 	C 	0.6643	0.7822	0.4941	1.563
Mof_C 	C 	0.8949	0.0587	0.4583	-0.096
Mof_C 	C 	0.9825	0.0396	0.4358	0.025
Mof_C 	C 	0.5292	0.5688	0.085	0.048
Mof_C 	C 	0.6866	0.5196	0.6141	-0.17
Mof_C 	C 	0.6062	0.5619	0.6237	0.207
Mof_C 	C 	0.1922	0.9142	0.4191	0.047
Mof_C 	C 	0.9906	0.0635	0.4026	-0.003
Mof_C 	C 	0.0841	0.7424	0.9989	-1.476
Mof_C 	C 	0.5626	0.6078	0.0614	-0.109
Mof_C 	C 	0.6021	0.5561	0.1127	-0.114
Mof_C 	C 	0.0767	0.7388	0.5041	-1.43
Mof_C 	C 	0.2634	0.9238	0.3906	-0.116
Mof_C 	C 	0.9491	0.6353	0.4228	-0.024
Mof_C 	C 	0.2297	0.8814	0.4462	-0.102
Mof_C 	C 	0.9639	0.8282	0.5853	-2.331
Mof_C 	C 	0.4529	0.4458	0.4475	-0.092
Mof_C 	C 	0.9169	0.1044	0.392	-0.087
Mof_C 	C 	0.3724	0.9011	0.3908	0.021
Mof_C 	C 	0.1542	0.3667	0.0771	-0.101
Mof_C 	C 	0.7538	0.6198	0.4359	-0.079
Mof_C 	C 	0.4552	0.6498	0.6534	-1.293
Mof_C 	C 	0.708	0.5818	0.1148	0.026
Mof_C 	C 	0.254	0.6438	0.8663	-2.709
Mof_C 	C 	0.841	0.655	0.4278	-0.06
Mof_C 	C 	0.0077	0.9844	0.9278	-0.01
Mof_C 	C 	0.698	0.868	0.0929	-0.249
Mof_C 	C 	0.9504	0.9621	0.9568	-0.193
Mof_C 	C 	0.9864	0.962	0.8914	-0.085
Mof_C 	C 	0.7444	0.6181	0.0897	-0.114
Mof_C 	C 	0.6625	0.8495	0.9141	-2.281
Mof_C 	C 	0.3392	0.8594	0.4457	0.015
Mof_C 	C 	0.7704	0.0688	0.0536	-0.12
Mof_C 	C 	0.669	0.6312	0.0637	0.02
Mof_C 	C 	0.7075	0.1196	0.0558	-0.017
Mof_C 	C 	0.4146	0.8707	0.4183	-0.108
Mof_C 	C 	0.7955	0.0812	0.1182	-0.119
Mof_C 	C 	0.9472	0.8747	0.6444	-2.357
Mof_C 	C 	0.2387	0.3809	0.1018	-0.03
Mof_C 	C 	0.9657	0.5793	0.4308	0.047
Mof_C 	C 	0.0777	0.8961	0.0643	0.051
Mof_C 	C 	0.4426	0.3823	0.3806	-0.03
Mof_C 	C 	0.9376	0.8702	0.4084	0.094
Mof_C 	C 	0.4505	0.6014	0.413	0.089
Mof_C 	C 	0.8181	0.0995	0.4477	-0.041
Mof_C 	C 	0.8266	0.1215	0.4142	-0.046
Mof_C 	C 	0.3936	0.3938	0.4448	-0.038
Mof_C 	C 	0.3907	0.3649	0.4111	-0.075
Mof_C 	C 	0.6957	0.1524	0.0894	-0.089
Mof_C 	C 	0.7357	0.1332	0.1217	-0.015
Mof_C 	C 	0.9736	0.8478	0.1966	0.417
Mof_C 	C 	0.2616	0.883	0.0928	0.006
Mof_C 	C 	0.1647	0.8641	0.0762	-0.143
Mof_C 	C 	0.2368	0.6936	0.4671	-0.537
Mof_C 	C 	0.2547	0.942	0.0955	-0.109
Mof_C 	C 	0.405	0.7549	0.0209	-2.053
Mof_C 	C 	0.1785	0.9743	0.0776	0.017
Mof_C 	C 	0.6471	0.3384	0.9383	0.361
Mof_C 	C 	0.5808	0.271	0.8719	-0.187
Mof_C 	C 	0.7828	0.3869	0.9004	0.102
Mof_C 	C 	0.9108	0.5107	0.9472	-0.063
Mof_C 	C 	0.6641	0.3133	0.8714	0.102
Mof_C 	C 	0.5588	0.2954	0.9395	-0.526
Mof_C 	C 	0.9204	0.4845	0.0457	-0.343
Mof_C 	C 	0.8397	0.4395	0.0512	0.509
Mof_C 	C 	0.9864	0.5085	0.0754	0.297
Mof_C 	C 	0.4985	0.2852	0.9745	1.152
Mof_C 	C 	0.8997	0.4455	0.1144	0.5
Mof_C 	C 	0.8331	0.4198	0.0879	-0.895
Mof_C 	C 	0.9165	0.4591	0.9172	0.027
Mof_C 	C 	0.6967	0.3476	0.9037	-0.214
Mof_C 	C 	0.3423	0.1647	0.5842	-0.221
Mof_C 	C 	0.3033	0.1709	0.5486	0.401
Mof_C 	C 	0.2071	0.2062	0.5436	-0.615
Mof_C 	C 	0.2813	0.1885	0.6158	0.108
Mof_C 	C 	0.1806	0.2174	0.6104	-0.192
Mof_C 	C 	0.1758	0.4796	0.5513	-0.041
Mof_C 	C 	0.1758	0.4814	0.4862	0.08
Mof_C 	C 	0.6614	0.2071	0.6806	0.39
Mof_C 	C 	0.0426	0.4094	0.4012	-0.544
Mof_C 	C 	0.0623	0.4253	0.4384	0.331
Mof_C 	C 	0.1453	0.4667	0.4493	-0.229
Mof_C 	C 	0.3692	0.0858	0.0496	0.43
Mof_C 	C 	0.2709	0.0853	0.9014	0.062
Mof_C 	C 	0.3838	0.0051	0.9148	-0.05
Mof_C 	C 	0.5773	0.0583	0.5802	-0.04
Mof_C 	C 	0.511	0.0551	0.4435	0.523
Mof_C 	C 	0.5709	0.0017	0.5538	-0.043
Mof_C 	C 	0.5987	0.9958	0.4892	0.172
Mof_C 	C 	0.1527	0.1488	0.9422	0.294
Mof_C 	C 	0.4835	0.0106	0.9438	-0.029
Mof_C 	C 	0.584	0.0089	0.4526	-0.361
Mof_C 	C 	0.8694	0.3555	0.5767	-0.252
Mof_C 	C 	0.2685	0.4375	0.5591	0.031
Mof_C 	C 	0.0748	0.4782	0.5779	-0.043
Mof_C 	C 	0.6994	0.278	0.5609	0.299
Mof_C 	C 	0.0649	0.1899	0.9454	-0.383
Mof_C 	C 	0.1494	0.2267	0.5749	0.292
Mof_C 	C 	0.7402	0.2854	0.597	-0.214
Mof_C 	C 	0.0332	0.2174	0.9147	0.033
Mof_C 	C 	0.8328	0.3457	0.5404	0.386
Mof_C 	C 	0.8242	0.3244	0.6041	0.147
Mof_C 	C 	0.6881	0.2503	0.623	0.168
Mof_C 	C 	0.5584	0.2338	0.8395	0.186
Mof_C 	C 	0.9356	0.505	0.012	0.176
Mof_C 	C 	0.2053	0.494	0.4225	0.12
Mof_C 	C 	0.8153	0.554	0.9394	0.038
Mof_C 	C 	0.1033	0.232	0.6406	0.115
Mof_C 	C 	0.4768	0.0174	0.0081	0.128
Mof_C 	C 	0.0055	0.2065	0.9822	0.927
Mof_C 	C 	0.0591	0.5105	0.1379	0.199
Mof_C 	C 	0.2821	0.1647	0.0957	1.648
Mof_C 	C 	0.9916	0.2839	0.8501	-0.162
Mof_C 	C 	0.6538	0.9935	0.3905	-0.447
Mof_C 	C 	0.9603	0.3628	0.3888	1.097
Mof_C 	C 	0.0118	0.5354	0.5815	-0.001
Mof_C 	C 	0.3553	0.11	0.087	-0.689
Mof_C 	C 	0.3994	0.2422	0.9682	-1.568
Mof_C 	C 	0.0996	0.2046	0.6714	-0.242
Mof_C 	C 	0.6336	0.3821	0.0854	-2.869
Mof_C 	C 	0.4891	0.1894	0.8351	-0.35
Mof_C 	C 	0.0478	0.2347	0.8493	-0.027
Mof_C 	C 	0.575	0.0451	0.933	0.034
Mof_C 	C 	0.4315	0.1168	0.3944	2.172
Mof_C 	C 	0.5101	0.0681	0.406	-0.929
Mof_C 	C 	0.16	0.1607	0.8755	-0.002
Mof_C 	C 	0.4524	0.3386	0.9944	-1.748
Mof_C 	C 	0.7528	0.3688	0.0951	2.216
Mof_C 	C 	0.2518	0.5117	0.36	0.173
Mof_C 	C 	0.9587	0.3099	0.8178	0.352
Mof_C 	C 	0.7938	0.3157	0.072	-2.765
Mof_C 	C 	0.3771	0.4572	0.5631	-0.109
Mof_C 	C 	0.4106	0.0851	0.1146	0.344
Mof_C 	C 	0.0824	0.2035	0.8801	-0.039
Mof_C 	C 	0.581	0.0387	0.382	0.577
Mof_C 	C 	0.7209	0.2454	0.6583	-0.304
Mof_C 	C 	0.0168	0.2188	0.7005	0.258
Mof_C 	C 	0.3275	0.2133	0.0741	-2.073
Mof_C 	C 	0.53	0.2654	0.9064	0.251
Mof_C 	C 	0.8433	0.9419	0.3106	0.514
Mof_C 	C 	0.2444	0.5073	0.3247	-0.326
Mof_C 	C 	0.7291	0.9655	0.3643	0.403
Mof_C 	C 	0.6258	0.0008	0.1972	0.384
Mof_C 	C 	0.6541	0.9818	0.4258	0.318
Mof_C 	C 	0.321	0.538	0.3023	0.39
Mof_C 	C 	0.7304	0.568	0.9646	-0.136
Mof_C 	C 	0.1525	0.5163	0.196	0.453
Mof_C 	C 	0.545	0.0289	0.1734	-0.303
Mof_C 	C 	0.7675	0.2674	0.4681	-1.557
Mof_C 	C 	0.82	0.5797	0.9066	-0.123
Mof_C 	C 	0.283	0.1863	0.1353	-2.186
Mof_C 	C 	0.6502	0.3554	0.4809	-1.544
Mof_C 	C 	0.2565	0.2481	0.4861	-1.9
Mof_C 	C 	0.3141	0.9513	0.9149	0.029
Mof_C 	C 	0.8403	0.3798	0.4007	-1.57
Mof_C 	C 	0.545	0.0121	0.1375	0.158
Mof_C 	C 	0.7561	0.9719	0.3312	-0.529
Mof_C 	C 	0.0906	0.2373	0.0096	-1.319
Mof_C 	C 	0.0035	0.3044	0.4029	-1.579
Mof_C 	C 	0.6512	0.6078	0.9553	0.005
Mof_C 	C 	0.3069	0.101	0.4014	-2.593
Mof_C 	C 	0.0627	0.2568	0.5091	-1.9
Mof_C 	C 	0.1282	0.1604	0.4854	-1.907
Mof_C 	C 	0.6858	0.298	0.4961	1.123
Mof_C 	C 	0.0046	0.5668	0.6151	-0.171
Mof_C 	C 	0.0607	0.4951	0.172	-0.36
Mof_C 	C 	0.962	0.1529	0.9968	-1.288
Mof_C 	C 	0.9823	0.49	0.1098	-0.301
Mof_C 	C 	0.1643	0.2178	0.5059	1.418
Mof_C 	C 	0.3949	0.9413	0.5417	-0.126
Mof_C 	C 	0.4825	0.9604	0.5642	0.03
Mof_C 	C 	0.0292	0.4312	0.915	-0.06
Mof_C 	C 	0.1866	0.4804	0.3859	-0.201
Mof_C 	C 	0.1062	0.4381	0.3763	0.255
Mof_C 	C 	0.6922	0.0858	0.5809	0.046
Mof_C 	C 	0.4906	0.9365	0.5974	-0.12
Mof_C 	C 	0.5841	0.2576	0.0011	-1.433
Mof_C 	C 	0.0626	0.3922	0.9386	-0.026
Mof_C 	C 	0.1021	0.4439	0.8873	-0.038
Mof_C 	C 	0.5767	0.2612	0.4959	-1.516
Mof_C 	C 	0.7634	0.0762	0.6094	-0.109
Mof_C 	C 	0.4491	0.3647	0.5772	-0.099
Mof_C 	C 	0.7297	0.1186	0.5538	-0.096
Mof_C 	C 	0.4639	0.1718	0.4147	-2.856
Mof_C 	C 	0.9529	0.5542	0.5525	-0.04
Mof_C 	C 	0.4169	0.8956	0.608	-0.01
Mof_C 	C 	0.8724	0.0989	0.6092	0.023
Mof_C 	C 	0.6542	0.6333	0.9229	-0.115
Mof_C 	C 	0.2538	0.3802	0.5641	-0.102
Mof_C 	C 	0.9552	0.3502	0.3466	-1.313
Mof_C 	C 	0.208	0.4182	0.8852	-0.052
Mof_C 	C 	0.754	0.3562	0.1337	-2.91
Mof_C 	C 	0.341	0.345	0.5722	-0.02
Mof_C 	C 	0.5077	0.0156	0.0722	0.15
Mof_C 	C 	0.198	0.132	0.9071	-0.16
Mof_C 	C 	0.4504	0.0379	0.0432	-0.269
Mof_C 	C 	0.4864	0.038	0.1086	-0.23
Mof_C 	C 	0.2444	0.3819	0.9103	-0.039
Mof_C 	C 	0.1625	0.1505	0.0859	-2.273
Mof_C 	C 	0.8392	0.1406	0.5543	0.015
Mof_C 	C 	0.2704	0.9312	0.9464	-0.107
Mof_C 	C 	0.169	0.3688	0.9363	-0.064
Mof_C 	C 	0.2075	0.8804	0.9442	-0.043
Mof_C 	C 	0.9146	0.1293	0.5817	-0.099
Mof_C 	C 	0.2955	0.9188	0.8818	-0.101
Mof_C 	C 	0.4472	0.1253	0.3556	-2.874
Mof_C 	C 	0.7387	0.6191	0.8982	-0.009
Mof_C 	C 	0.4657	0.4207	0.5692	-0.001
Mof_C 	C 	0.5777	0.1039	0.9357	-0.092
Mof_C 	C 	0.9426	0.6177	0.6194	0.054
Mof_C 	C 	0.4376	0.1298	0.5916	0.086
Mof_C 	C 	0.9505	0.3986	0.587	0.147
Mof_C 	C 	0.3181	0.9005	0.5523	-0.003
Mof_C 	C 	0.3266	0.8785	0.5858	-0.104
Mof_C 	C 	0.8936	0.6062	0.5552	-0.03
Mof_C 	C 	0.8907	0.6351	0.5889	-0.1
Mof_C 	C 	0.1957	0.8476	0.9106	-0.08
Mof_C 	C 	0.2357	0.8668	0.8783	-0.037
Mof_C 	C 	0.4736	0.1522	0.8034	0.416
Mof_C 	C 	0.7616	0.117	0.9072	-0.117
Mof_C 	C 	0.6647	0.1359	0.9238	0.002
Mof_C 	C 	0.7368	0.3064	0.5329	-0.562
Mof_C 	C 	0.7547	0.058	0.9045	0.025
Mof_C 	C 	0.905	0.2451	0.9791	-1.376
Mof_C 	C 	0.6785	0.0257	0.9224	-0.12
Mof_N 	N 	0.3247	0.579	0.0738	-0.263
Mof_N 	N 	0.3904	0.5159	0.0181	-0.283
Mof_N 	N 	0.051	0.9767	0.48327	-0.299
Mof_N 	N 	0.9891	0.9053	0.4329	-0.244
Mof_N 	N 	0.5029	0.5717	0.4369	-0.271
Mof_N 	N 	0.6273	0.538	0.4853	-0.277
Mof_N 	N 	0.8161	0.943	0.0742	-0.264
Mof_N 	N 	0.9361	0.9671	0.0219	-0.306
Mof_N 	N 	0.8247	0.421	0.9262	-0.271
Mof_N 	N 	0.8904	0.4841	0.9819	-0.279
Mof_N 	N 	0.551	0.0233	0.51673	-0.292
Mof_N 	N 	0.4891	0.0947	0.5671	-0.265
Mof_N 	N 	0.0029	0.4283	0.5631	-0.304
Mof_N 	N 	0.1273	0.462	0.5147	-0.281
Mof_N 	N 	0.3161	0.057	0.9258	-0.262
Mof_N 	N 	0.4361	0.0329	0.9781	-0.287
Mof_Cl	Cl	0.2117	0.67174	0.24357	-0.366
Mof_Cl	Cl	0.7117	0.32826	0.75643	-0.361
Mof_O 	O 	0.1846	0.6354	0.03118	-0.519
Mof_O 	O 	0.2741	0.5829	0.97453	-0.575
Mof_O 	O 	0.854	0.8536	0.48036	-0.534
Mof_O 	O 	0.1986	0.8007	0.2876	-0.309
Mof_O 	O 	0.8007	0.4618	0.7321	-0.329
Mof_O 	O 	0.4636	0.7165	0.21334	-0.31
Mof_O 	O 	0.7292	0.4534	0.8109	-0.335
Mof_O 	O 	0.9448	0.9177	0.53154	-0.529
Mof_O 	O 	0.4197	0.6387	0.1773	-0.311
Mof_O 	O 	0.0661	0.8143	0.3286	-0.307
Mof_O 	O 	0.4596	0.7351	0.29929	-0.285
Mof_O 	O 	0.3754	0.6292	0.48642	-0.515
Mof_O 	O 	0.4999	0.5983	0.53712	-0.499
Mof_O 	O 	0.493	0.817	0.2774	-0.294
Mof_O 	O 	0.0446	0.849	0.22373	-0.329
Mof_O 	O 	0.1357	0.9843	0.771	-0.357
Mof_O 	O 	0.8847	0.8777	0.1989	-0.315
Mof_O 	O 	0.692	0.8738	0.02879	-0.548
Mof_O 	O 	0.8125	0.8947	0.97621	-0.552
Mof_O 	O 	0.3748	0.0493	0.72021	-0.396
Mof_O 	O 	0.9001	0.4329	0.6826	-0.258
Mof_O 	O 	0.636	0.5004	0.7687	-0.515
Mof_O 	O 	0.3982	0.0949	0.6744	-0.34
Mof_O 	O 	0.1806	0.0448	0.8167	-0.31
Mof_O 	O 	0.6846	0.3646	0.96882	-0.518
Mof_O 	O 	0.7741	0.4171	0.02547	-0.581
Mof_O 	O 	0.354	0.1464	0.51964	-0.532
Mof_O 	O 	0.6986	0.1993	0.7124	-0.305
Mof_O 	O 	0.3007	0.5382	0.2679	-0.335
Mof_O 	O 	0.9636	0.2835	0.78666	-0.283
Mof_O 	O 	0.2292	0.5466	0.1891	-0.335
Mof_O 	O 	0.4448	0.0823	0.46846	-0.587
Mof_O 	O 	0.9197	0.3613	0.8227	-0.286
Mof_O 	O 	0.5661	0.1857	0.6714	-0.295
Mof_O 	O 	0.9596	0.2649	0.70071	-0.226
Mof_O 	O 	0.8754	0.3708	0.51358	-0.507
Mof_O 	O 	0.9999	0.4017	0.46288	-0.463
Mof_O 	O 	0.993	0.183	0.7226	-0.226
Mof_O 	O 	0.5446	0.151	0.77627	-0.304
Mof_O 	O 	0.6357	0.0157	0.229	-0.345
Mof_O 	O 	0.3847	0.1223	0.8011	-0.325
Mof_O 	O 	0.192	0.1262	0.97121	-0.501
Mof_O 	O 	0.3125	0.1053	0.02379	-0.556
Mof_O 	O 	0.8748	0.9507	0.27979	-0.387
Mof_O 	O 	0.4001	0.5671	0.3174	-0.269
Mof_O 	O 	0.136	0.4996	0.2313	-0.519
Mof_O 	O 	0.8982	0.9051	0.3256	-0.324
Mof_O 	O 	0.6806	0.9552	0.1833	-0.304
_end
