data_functionalizedCrystal
_audit_creation_method	'EQeq! by Chris Wilmer'
_symmetry_space_group_name_H-M	'P1'
_symmetry_Int_Tables_number	1
_symmetry_cell_setting	triclinic
loop_
_symmetry_equiv_pos_as_xyz
  x,y,z
_cell_length_a	28.947
_cell_length_b	8.3321
_cell_length_c	18.3283
_cell_angle_alpha	90
_cell_angle_beta	114.792
_cell_angle_gamma	90
loop_
_atom_site_label
_atom_site_type_symbol
_atom_site_fract_x
_atom_site_fract_y
_atom_site_fract_z
_atom_site_charge
Mof_Zn	Zn	0.30639	0.22207	0.11587	1.223
Mof_N 	N 	0.3841	0.7954	0.1347	-0.17
Mof_O 	O 	0.3756	0.3035	0.2308	-0.415
Mof_N 	N 	0.3338	0.9992	0.12	-0.303
Mof_N 	N 	0.4846	0.526	0.5119	-0.052
Mof_O 	O 	0.3017	0.3661	0.2062	-0.437
Mof_C 	C 	0.3098	0.6384	0.4676	0.447
Mof_C 	C 	0.4314	0.5156	0.4562	0.081
Mof_C 	C 	0.3279	0.5105	0.3586	0.046
Mof_H 	H 	0.2933	0.5109	0.325	0.036
Mof_C 	C 	0.3453	0.5746	0.4352	-0.123
Mof_C 	C 	0.4305	0.701	0.1513	-0.005
Mof_H 	H 	0.4553	0.7693	0.1438	0.027
Mof_H 	H 	0.4223	0.6143	0.1126	0.047
Mof_C 	C 	0.4248	0.0688	0.1538	-0.9
Mof_H 	H 	0.4444	0.0775	0.2108	0.296
Mof_H 	H 	0.4119	0.1726	0.132	0.294
Mof_H 	H 	0.446	0.0286	0.1293	0.297
Mof_C 	C 	0.3625	0.4454	0.3325	-0.094
Mof_C 	C 	0.3815	0.9566	0.1372	0.328
Mof_H 	H 	0.4933	0.4646	0.2039	0.049
Mof_C 	C 	0.3976	0.579	0.484	-0.035
Mof_H 	H 	0.4096	0.6243	0.535	0.059
Mof_C 	C 	0.4136	0.4477	0.3803	-0.058
Mof_H 	H 	0.4364	0.404	0.362	0.091
Mof_C 	C 	0.3371	0.7341	0.1166	0.005
Mof_H 	H 	0.3281	0.6262	0.1118	0.034
Mof_C 	C 	0.306	0.8608	0.107	-0
Mof_H 	H 	0.2713	0.855	0.0937	0.024
Mof_C 	C 	0.4541	0.6311	0.2349	-0.165
Mof_H 	H 	0.4633	0.7179	0.2737	0.081
Mof_H 	H 	0.4291	0.5648	0.2429	0.094
Mof_C 	C 	0.346	0.3659	0.2516	0.392
Mof_O 	O 	0.4952	0.6197	0.5858	-0.161
Mof_O 	O 	0.32652	0.6595	0.5424	-0.514
Mof_O 	O 	0.2658	0.6636	0.4189	-0.512
Mof_Zn	Zn	0.80639	0.72207	0.11587	1.225
Mof_N 	N 	0.8841	0.2954	0.1347	-0.169
Mof_O 	O 	0.8756	0.8035	0.2308	-0.414
Mof_N 	N 	0.8338	0.4992	0.12	-0.302
Mof_N 	N 	0.9846	0.026	0.5119	-0.051
Mof_O 	O 	0.8017	0.8661	0.2062	-0.436
Mof_C 	C 	0.8098	0.1384	0.4676	0.448
Mof_C 	C 	0.9314	0.0156	0.4562	0.081
Mof_C 	C 	0.8279	0.0105	0.3586	0.046
Mof_H 	H 	0.7933	0.0109	0.325	0.036
Mof_C 	C 	0.8453	0.0746	0.4352	-0.122
Mof_C 	C 	0.9305	0.201	0.1513	-0.004
Mof_H 	H 	0.9553	0.2693	0.1438	0.026
Mof_H 	H 	0.9223	0.1143	0.1126	0.047
Mof_C 	C 	0.9248	0.5688	0.1538	-0.897
Mof_H 	H 	0.9444	0.5775	0.2108	0.295
Mof_H 	H 	0.9119	0.6726	0.132	0.293
Mof_H 	H 	0.946	0.5286	0.1293	0.296
Mof_C 	C 	0.8625	0.9454	0.3325	-0.094
Mof_C 	C 	0.8815	0.4566	0.1372	0.326
Mof_H 	H 	0.9933	0.9646	0.2039	0.049
Mof_C 	C 	0.8976	0.079	0.484	-0.035
Mof_H 	H 	0.9096	0.1243	0.535	0.059
Mof_C 	C 	0.9136	0.9477	0.3803	-0.058
Mof_H 	H 	0.9364	0.904	0.362	0.091
Mof_C 	C 	0.8371	0.2341	0.1166	0.005
Mof_H 	H 	0.8281	0.1262	0.1118	0.033
Mof_C 	C 	0.806	0.3608	0.107	-0
Mof_H 	H 	0.7713	0.355	0.0937	0.023
Mof_C 	C 	0.9541	0.1311	0.2349	-0.166
Mof_H 	H 	0.9633	0.2179	0.2737	0.081
Mof_H 	H 	0.9291	0.0648	0.2429	0.094
Mof_C 	C 	0.846	0.8659	0.2516	0.392
Mof_O 	O 	0.9952	0.1197	0.5858	-0.162
Mof_O 	O 	0.82652	0.1595	0.5424	-0.514
Mof_O 	O 	0.7658	0.1636	0.4189	-0.512
Mof_Zn	Zn	0.69361	0.22207	0.38413	1.224
Mof_N 	N 	0.6159	0.7954	0.3653	-0.169
Mof_O 	O 	0.6244	0.3035	0.2692	-0.414
Mof_N 	N 	0.6662	0.9992	0.38	-0.302
Mof_N 	N 	0.5154	0.526	0.9881	-0.051
Mof_O 	O 	0.6983	0.3661	0.2938	-0.436
Mof_C 	C 	0.6902	0.6384	0.0324	0.449
Mof_C 	C 	0.5686	0.5156	0.0438	0.081
Mof_C 	C 	0.6721	0.5105	0.1414	0.047
Mof_H 	H 	0.7067	0.5109	0.175	0.036
Mof_C 	C 	0.6547	0.5746	0.0648	-0.123
Mof_C 	C 	0.5695	0.701	0.3487	-0.005
Mof_H 	H 	0.5447	0.7693	0.3562	0.027
Mof_H 	H 	0.5777	0.6143	0.3874	0.047
Mof_C 	C 	0.5752	0.0688	0.3462	-0.899
Mof_H 	H 	0.5556	0.0775	0.2892	0.296
Mof_H 	H 	0.5881	0.1726	0.368	0.294
Mof_H 	H 	0.554	0.0286	0.3707	0.297
Mof_C 	C 	0.6375	0.4454	0.1675	-0.095
Mof_C 	C 	0.6185	0.9566	0.3628	0.327
Mof_H 	H 	0.5067	0.4646	0.2961	0.049
Mof_C 	C 	0.6024	0.579	0.016	-0.034
Mof_H 	H 	0.5904	0.6243	0.965	0.058
Mof_C 	C 	0.5864	0.4477	0.1197	-0.058
Mof_H 	H 	0.5636	0.404	0.138	0.091
Mof_C 	C 	0.6629	0.7341	0.3834	0.005
Mof_H 	H 	0.6719	0.6262	0.3882	0.034
Mof_C 	C 	0.694	0.8608	0.393	-0
Mof_H 	H 	0.7287	0.855	0.4063	0.024
Mof_C 	C 	0.5459	0.6311	0.2651	-0.165
Mof_H 	H 	0.5367	0.7179	0.2263	0.081
Mof_H 	H 	0.5709	0.5648	0.2571	0.094
Mof_C 	C 	0.654	0.3659	0.2484	0.392
Mof_O 	O 	0.5048	0.6197	0.9142	-0.161
Mof_O 	O 	0.67348	0.6595	0.9576	-0.515
Mof_O 	O 	0.7342	0.6636	0.0811	-0.512
Mof_Zn	Zn	0.19361	0.72207	0.38413	1.225
Mof_N 	N 	0.1159	0.2954	0.3653	-0.168
Mof_O 	O 	0.1244	0.8035	0.2692	-0.414
Mof_N 	N 	0.1662	0.4992	0.38	-0.302
Mof_N 	N 	0.0154	0.026	0.9881	-0.05
Mof_O 	O 	0.1983	0.8661	0.2938	-0.436
Mof_C 	C 	0.1902	0.1384	0.0324	0.446
Mof_C 	C 	0.0686	0.0156	0.0438	0.08
Mof_C 	C 	0.1721	0.0105	0.1414	0.045
Mof_H 	H 	0.2067	0.0109	0.175	0.036
Mof_C 	C 	0.1547	0.0746	0.0648	-0.121
Mof_C 	C 	0.0695	0.201	0.3487	-0.005
Mof_H 	H 	0.0447	0.2693	0.3562	0.027
Mof_H 	H 	0.0777	0.1143	0.3874	0.047
Mof_C 	C 	0.0752	0.5688	0.3462	-0.898
Mof_H 	H 	0.0556	0.5775	0.2892	0.296
Mof_H 	H 	0.0881	0.6726	0.368	0.293
Mof_H 	H 	0.054	0.5286	0.3707	0.297
Mof_C 	C 	0.1375	0.9454	0.1675	-0.093
Mof_C 	C 	0.1185	0.4566	0.3628	0.327
Mof_H 	H 	0.0067	0.9646	0.2961	0.049
Mof_C 	C 	0.1024	0.079	0.016	-0.038
Mof_H 	H 	0.0904	0.1243	0.965	0.06
Mof_C 	C 	0.0864	0.9477	0.1197	-0.057
Mof_H 	H 	0.0636	0.904	0.138	0.091
Mof_C 	C 	0.1629	0.2341	0.3834	0.005
Mof_H 	H 	0.1719	0.1262	0.3882	0.034
Mof_C 	C 	0.194	0.3608	0.393	-0
Mof_H 	H 	0.2287	0.355	0.4063	0.024
Mof_C 	C 	0.0459	0.1311	0.2651	-0.165
Mof_H 	H 	0.0367	0.2179	0.2263	0.081
Mof_H 	H 	0.0709	0.0648	0.2571	0.094
Mof_C 	C 	0.154	0.8659	0.2484	0.392
Mof_O 	O 	0.0048	0.1197	0.9142	-0.161
Mof_O 	O 	0.17348	0.1595	0.9576	-0.513
Mof_O 	O 	0.2342	0.1636	0.0811	-0.512
Mof_Zn	Zn	0.69361	0.77793	0.88413	1.224
Mof_N 	N 	0.6159	0.2046	0.8653	-0.169
Mof_O 	O 	0.6244	0.6965	0.7692	-0.414
Mof_N 	N 	0.6662	0.0008	0.88	-0.302
Mof_N 	N 	0.5154	0.474	0.4881	-0.051
Mof_O 	O 	0.6983	0.6339	0.7938	-0.436
Mof_C 	C 	0.6902	0.3616	0.5324	0.448
Mof_C 	C 	0.5686	0.4844	0.5438	0.082
Mof_C 	C 	0.6721	0.4895	0.6414	0.047
Mof_H 	H 	0.7067	0.4891	0.675	0.036
Mof_C 	C 	0.6547	0.4254	0.5648	-0.123
Mof_C 	C 	0.5695	0.299	0.8487	-0.005
Mof_H 	H 	0.5447	0.2307	0.8562	0.027
Mof_H 	H 	0.5777	0.3857	0.8874	0.047
Mof_C 	C 	0.5752	0.9312	0.8462	-0.901
Mof_H 	H 	0.5556	0.9225	0.7892	0.296
Mof_H 	H 	0.5881	0.8274	0.868	0.294
Mof_H 	H 	0.554	0.9714	0.8707	0.297
Mof_C 	C 	0.6375	0.5546	0.6675	-0.094
Mof_C 	C 	0.6185	0.0434	0.8628	0.328
Mof_H 	H 	0.5067	0.5354	0.7961	0.049
Mof_C 	C 	0.6024	0.421	0.516	-0.035
Mof_H 	H 	0.5904	0.3757	0.465	0.059
Mof_C 	C 	0.5864	0.5523	0.6197	-0.058
Mof_H 	H 	0.5636	0.596	0.638	0.091
Mof_C 	C 	0.6629	0.2659	0.8834	0.005
Mof_H 	H 	0.6719	0.3738	0.8882	0.034
Mof_C 	C 	0.694	0.1392	0.893	-0
Mof_H 	H 	0.7287	0.145	0.9063	0.024
Mof_C 	C 	0.5459	0.3689	0.7651	-0.165
Mof_H 	H 	0.5367	0.2821	0.7263	0.081
Mof_H 	H 	0.5709	0.4352	0.7571	0.094
Mof_C 	C 	0.654	0.6341	0.7484	0.392
Mof_O 	O 	0.5048	0.3803	0.4142	-0.161
Mof_O 	O 	0.67348	0.3405	0.4576	-0.514
Mof_O 	O 	0.7342	0.3364	0.5811	-0.512
Mof_Zn	Zn	0.19361	0.27793	0.88413	1.225
Mof_N 	N 	0.1159	0.7046	0.8653	-0.169
Mof_O 	O 	0.1244	0.1965	0.7692	-0.414
Mof_N 	N 	0.1662	0.5008	0.88	-0.302
Mof_N 	N 	0.0154	0.974	0.4881	-0.05
Mof_O 	O 	0.1983	0.1339	0.7938	-0.436
Mof_C 	C 	0.1902	0.8616	0.5324	0.448
Mof_C 	C 	0.0686	0.9844	0.5438	0.081
Mof_C 	C 	0.1721	0.9895	0.6414	0.046
Mof_H 	H 	0.2067	0.9891	0.675	0.036
Mof_C 	C 	0.1547	0.9254	0.5648	-0.122
Mof_C 	C 	0.0695	0.799	0.8487	-0.004
Mof_H 	H 	0.0447	0.7307	0.8562	0.027
Mof_H 	H 	0.0777	0.8857	0.8874	0.047
Mof_C 	C 	0.0752	0.4312	0.8462	-0.899
Mof_H 	H 	0.0556	0.4225	0.7892	0.296
Mof_H 	H 	0.0881	0.3274	0.868	0.294
Mof_H 	H 	0.054	0.4714	0.8707	0.297
Mof_C 	C 	0.1375	0.0546	0.6675	-0.093
Mof_C 	C 	0.1185	0.5434	0.8628	0.327
Mof_H 	H 	0.0067	0.0354	0.7961	0.049
Mof_C 	C 	0.1024	0.921	0.516	-0.035
Mof_H 	H 	0.0904	0.8757	0.465	0.059
Mof_C 	C 	0.0864	0.0523	0.6197	-0.058
Mof_H 	H 	0.0636	0.096	0.638	0.091
Mof_C 	C 	0.1629	0.7659	0.8834	0.005
Mof_H 	H 	0.1719	0.8738	0.8882	0.033
Mof_C 	C 	0.194	0.6392	0.893	-0
Mof_H 	H 	0.2287	0.645	0.9063	0.023
Mof_C 	C 	0.0459	0.8689	0.7651	-0.166
Mof_H 	H 	0.0367	0.7821	0.7263	0.081
Mof_H 	H 	0.0709	0.9352	0.7571	0.094
Mof_C 	C 	0.154	0.1341	0.7484	0.392
Mof_O 	O 	0.0048	0.8803	0.4142	-0.161
Mof_O 	O 	0.17348	0.8405	0.4576	-0.514
Mof_O 	O 	0.2342	0.8364	0.5811	-0.512
Mof_Zn	Zn	0.30639	0.77793	0.61587	1.224
Mof_N 	N 	0.3841	0.2046	0.6347	-0.169
Mof_O 	O 	0.3756	0.6965	0.7308	-0.414
Mof_N 	N 	0.3338	0.0008	0.62	-0.302
Mof_N 	N 	0.4846	0.474	0.0119	-0.051
Mof_O 	O 	0.3017	0.6339	0.7062	-0.436
Mof_C 	C 	0.3098	0.3616	0.9676	0.449
Mof_C 	C 	0.4314	0.4844	0.9562	0.081
Mof_C 	C 	0.3279	0.4895	0.8586	0.047
Mof_H 	H 	0.2933	0.4891	0.825	0.036
Mof_C 	C 	0.3453	0.4254	0.9352	-0.123
Mof_C 	C 	0.4305	0.299	0.6513	-0.005
Mof_H 	H 	0.4553	0.2307	0.6438	0.027
Mof_H 	H 	0.4223	0.3857	0.6126	0.047
Mof_C 	C 	0.4248	0.9312	0.6538	-0.899
Mof_H 	H 	0.4444	0.9225	0.7108	0.296
Mof_H 	H 	0.4119	0.8274	0.632	0.294
Mof_H 	H 	0.446	0.9714	0.6293	0.297
Mof_C 	C 	0.3625	0.5546	0.8325	-0.095
Mof_C 	C 	0.3815	0.0434	0.6372	0.327
Mof_H 	H 	0.4933	0.5354	0.7039	0.049
Mof_C 	C 	0.3976	0.421	0.984	-0.034
Mof_H 	H 	0.4096	0.3757	0.035	0.058
Mof_C 	C 	0.4136	0.5523	0.8803	-0.058
Mof_H 	H 	0.4364	0.596	0.862	0.091
Mof_C 	C 	0.3371	0.2659	0.6166	0.005
Mof_H 	H 	0.3281	0.3738	0.6118	0.034
Mof_C 	C 	0.306	0.1392	0.607	-0
Mof_H 	H 	0.2713	0.145	0.5937	0.024
Mof_C 	C 	0.4541	0.3689	0.7349	-0.165
Mof_H 	H 	0.4633	0.2821	0.7737	0.081
Mof_H 	H 	0.4291	0.4352	0.7429	0.094
Mof_C 	C 	0.346	0.6341	0.7516	0.392
Mof_O 	O 	0.4952	0.3803	0.0858	-0.161
Mof_O 	O 	0.32652	0.3405	0.0424	-0.515
Mof_O 	O 	0.2658	0.3364	0.9189	-0.512
Mof_Zn	Zn	0.80639	0.27793	0.61587	1.225
Mof_N 	N 	0.8841	0.7046	0.6347	-0.169
Mof_O 	O 	0.8756	0.1965	0.7308	-0.414
Mof_N 	N 	0.8338	0.5008	0.62	-0.302
Mof_N 	N 	0.9846	0.974	0.0119	-0.05
Mof_O 	O 	0.8017	0.1339	0.7062	-0.436
Mof_C 	C 	0.8098	0.8616	0.9676	0.447
Mof_C 	C 	0.9314	0.9844	0.9562	0.08
Mof_C 	C 	0.8279	0.9895	0.8586	0.045
Mof_H 	H 	0.7933	0.9891	0.825	0.036
Mof_C 	C 	0.8453	0.9254	0.9352	-0.121
Mof_C 	C 	0.9305	0.799	0.6513	-0.004
Mof_H 	H 	0.9553	0.7307	0.6438	0.026
Mof_H 	H 	0.9223	0.8857	0.6126	0.047
Mof_C 	C 	0.9248	0.4312	0.6538	-0.897
Mof_H 	H 	0.9444	0.4225	0.7108	0.295
Mof_H 	H 	0.9119	0.3274	0.632	0.293
Mof_H 	H 	0.946	0.4714	0.6293	0.296
Mof_C 	C 	0.8625	0.0546	0.8325	-0.093
Mof_C 	C 	0.8815	0.5434	0.6372	0.326
Mof_H 	H 	0.9933	0.0354	0.7039	0.048
Mof_C 	C 	0.8976	0.921	0.984	-0.037
Mof_H 	H 	0.9096	0.8757	0.035	0.06
Mof_C 	C 	0.9136	0.0523	0.8803	-0.057
Mof_H 	H 	0.9364	0.096	0.862	0.09
Mof_C 	C 	0.8371	0.7659	0.6166	0.005
Mof_H 	H 	0.8281	0.8738	0.6118	0.034
Mof_C 	C 	0.806	0.6392	0.607	-0
Mof_H 	H 	0.7713	0.645	0.5937	0.024
Mof_C 	C 	0.9541	0.8689	0.7349	-0.166
Mof_H 	H 	0.9633	0.7821	0.7737	0.081
Mof_H 	H 	0.9291	0.9352	0.7429	0.094
Mof_C 	C 	0.846	0.1341	0.7516	0.392
Mof_O 	O 	0.9952	0.8803	0.0858	-0.162
Mof_O 	O 	0.82652	0.8405	0.0424	-0.513
Mof_O 	O 	0.7658	0.8364	0.9189	-0.512
Mof_C 	C 	0.5	0.5332	0.25	-0.026
Mof_C 	C 	8.42369e-34	0.0332	0.25	-0.026
Mof_C 	C 	0.5	0.4668	0.75	-0.026
Mof_C 	C 	2.52711e-33	0.9668	0.75	-0.025
_end
