data_functionalizedCrystal
_audit_creation_method	'EQeq! by Chris Wilmer'
_symmetry_space_group_name_H-M	'P1'
_symmetry_Int_Tables_number	1
_symmetry_cell_setting	triclinic
loop_
_symmetry_equiv_pos_as_xyz
  x,y,z
_cell_length_a	13.293
_cell_length_b	13.782
_cell_length_c	14.011
_cell_angle_alpha	90
_cell_angle_beta	90
_cell_angle_gamma	90
loop_
_atom_site_label
_atom_site_type_symbol
_atom_site_fract_x
_atom_site_fract_y
_atom_site_fract_z
_atom_site_charge
Mof_Zn	Zn	0.37192	0.27703	0.24437	1.236
Mof_Zn	Zn	0.2249	0.63123	0.38723	1.231
Mof_Zn	Zn	0.37334	0.23963	0.49452	1.232
Mof_Zn	Zn	0.25807	0.37417	0.84983	1.229
Mof_Zn	Zn	0.06587	0.24041	0.36732	1.236
Mof_P 	P 	0.24084	0.39212	0.39104	0.537
Mof_P 	P 	0.38717	0.28159	0.01427	0.611
Mof_P 	P 	0.25748	0.11091	0.34327	0.537
Mof_P 	P 	0.10791	0.73793	0.22598	0.539
Mof_P 	P 	0.56931	0.25839	0.37084	0.538
Mof_O 	O 	0.3597	0.3649	0.9471	-0.51
Mof_O 	O 	0.1198	0.6511	0.2946	-0.473
Mof_O 	O 	0.2244	0.4968	0.425	-0.407
Mof_O 	O 	0.6413	0.3415	0.3456	-0.446
Mof_O 	O 	0.2615	0.0053	0.3083	-0.404
Mof_O 	O 	0.1543	0.1298	0.3884	-0.441
Mof_O 	O 	0.2638	0.3315	0.4814	-0.452
Mof_O 	O 	0.503	0.2914	0.4547	-0.434
Mof_O 	O 	0.3076	0.1999	0.007	-0.423
Mof_O 	O 	0.329	0.3886	0.3206	-0.452
Mof_O 	O 	0.4928	0.2438	0.987	-0.48
Mof_O 	O 	0.2726	0.1761	0.2549	-0.447
Mof_O 	O 	0.3423	0.1266	0.416	-0.459
Mof_O 	O 	0.1442	0.3563	0.3433	-0.441
Mof_O 	O 	0.6281	0.167	0.3998	-0.441
Mof_O 	O 	0.1977	0.8072	0.2345	-0.453
Mof_O 	O 	0.5068	0.236	0.2824	-0.431
Mof_O 	O 	0.0095	0.7889	0.2517	-0.43
Mof_O 	O 	0.101	0.6999	0.1247	-0.387
Mof_O 	O 	0.3886	0.3207	0.1159	-0.409
Mof_Zn	Zn	0.62808	0.72297	0.24437	1.237
Mof_Zn	Zn	0.7751	0.36877	0.38723	1.232
Mof_Zn	Zn	0.62666	0.76037	0.49452	1.233
Mof_Zn	Zn	0.74193	0.62583	0.84983	1.23
Mof_Zn	Zn	0.93413	0.75959	0.36732	1.237
Mof_P 	P 	0.75916	0.60788	0.39104	0.538
Mof_P 	P 	0.61283	0.71841	0.01427	0.611
Mof_P 	P 	0.74252	0.88909	0.34327	0.537
Mof_P 	P 	0.89209	0.26207	0.22598	0.539
Mof_P 	P 	0.43069	0.74161	0.37084	0.538
Mof_O 	O 	0.6403	0.6351	0.9471	-0.51
Mof_O 	O 	0.8802	0.3489	0.2946	-0.473
Mof_O 	O 	0.7756	0.5032	0.425	-0.407
Mof_O 	O 	0.3587	0.6585	0.3456	-0.446
Mof_O 	O 	0.7385	0.9947	0.3083	-0.404
Mof_O 	O 	0.8457	0.8702	0.3884	-0.441
Mof_O 	O 	0.7362	0.6685	0.4814	-0.452
Mof_O 	O 	0.497	0.7086	0.4547	-0.434
Mof_O 	O 	0.6924	0.8001	0.007	-0.423
Mof_O 	O 	0.671	0.6114	0.3206	-0.452
Mof_O 	O 	0.5072	0.7562	0.987	-0.48
Mof_O 	O 	0.7274	0.8239	0.2549	-0.447
Mof_O 	O 	0.6577	0.8734	0.416	-0.459
Mof_O 	O 	0.8558	0.6437	0.3433	-0.441
Mof_O 	O 	0.3719	0.833	0.3998	-0.441
Mof_O 	O 	0.8023	0.1928	0.2345	-0.453
Mof_O 	O 	0.4932	0.764	0.2824	-0.431
Mof_O 	O 	0.9905	0.2111	0.2517	-0.43
Mof_O 	O 	0.899	0.3001	0.1247	-0.387
Mof_O 	O 	0.6114	0.6793	0.1159	-0.409
Mof_Zn	Zn	0.87192	0.22297	0.74437	1.235
Mof_Zn	Zn	0.7249	0.86877	0.88723	1.224
Mof_Zn	Zn	0.87334	0.26037	0.99452	1.223
Mof_Zn	Zn	0.75807	0.12583	0.34983	1.232
Mof_Zn	Zn	0.56587	0.25959	0.86732	1.237
Mof_P 	P 	0.74084	0.10788	0.89104	0.539
Mof_P 	P 	0.88717	0.21841	0.51427	0.537
Mof_P 	P 	0.75748	0.38909	0.84327	0.537
Mof_P 	P 	0.60791	0.76207	0.72598	0.539
Mof_P 	P 	0.06931	0.24161	0.87084	0.538
Mof_O 	O 	0.8597	0.1351	0.4471	-0.47
Mof_O 	O 	0.6198	0.8489	0.7946	-0.482
Mof_O 	O 	0.7244	0.0032	0.925	-0.421
Mof_O 	O 	0.1413	0.1585	0.8456	-0.456
Mof_O 	O 	0.7615	0.4947	0.8083	-0.412
Mof_O 	O 	0.6543	0.3702	0.8884	-0.449
Mof_O 	O 	0.7638	0.1685	0.9814	-0.468
Mof_O 	O 	0.003	0.2086	0.9547	-0.45
Mof_O 	O 	0.8076	0.3001	0.507	-0.449
Mof_O 	O 	0.829	0.1114	0.8206	-0.458
Mof_O 	O 	0.9928	0.2562	0.487	-0.436
Mof_O 	O 	0.7726	0.3239	0.7549	-0.454
Mof_O 	O 	0.8423	0.3734	0.916	-0.47
Mof_O 	O 	0.6442	0.1437	0.8433	-0.447
Mof_O 	O 	0.1281	0.333	0.8998	-0.455
Mof_O 	O 	0.6977	0.6928	0.7345	-0.465
Mof_O 	O 	0.0068	0.264	0.7824	-0.439
Mof_O 	O 	0.5095	0.7111	0.7517	-0.438
Mof_O 	O 	0.601	0.8001	0.6247	-0.415
Mof_O 	O 	0.8886	0.1793	0.6159	-0.416
Mof_Zn	Zn	0.12808	0.77703	0.74437	1.235
Mof_Zn	Zn	0.2751	0.13123	0.88723	1.224
Mof_Zn	Zn	0.12666	0.73963	0.99452	1.223
Mof_Zn	Zn	0.24193	0.87417	0.34983	1.232
Mof_Zn	Zn	0.43413	0.74041	0.86732	1.237
Mof_P 	P 	0.25916	0.89212	0.89104	0.539
Mof_P 	P 	0.11283	0.78159	0.51427	0.537
Mof_P 	P 	0.24252	0.61091	0.84327	0.537
Mof_P 	P 	0.39209	0.23793	0.72598	0.539
Mof_P 	P 	0.93069	0.75839	0.87084	0.538
Mof_O 	O 	0.1403	0.8649	0.4471	-0.47
Mof_O 	O 	0.3802	0.1511	0.7946	-0.482
Mof_O 	O 	0.2756	0.9968	0.925	-0.421
Mof_O 	O 	0.8587	0.8415	0.8456	-0.456
Mof_O 	O 	0.2385	0.5053	0.8083	-0.412
Mof_O 	O 	0.3457	0.6298	0.8884	-0.449
Mof_O 	O 	0.2362	0.8315	0.9814	-0.468
Mof_O 	O 	0.997	0.7914	0.9547	-0.45
Mof_O 	O 	0.1924	0.6999	0.507	-0.449
Mof_O 	O 	0.171	0.8886	0.8206	-0.458
Mof_O 	O 	0.0072	0.7438	0.487	-0.436
Mof_O 	O 	0.2274	0.6761	0.7549	-0.454
Mof_O 	O 	0.1577	0.6266	0.916	-0.47
Mof_O 	O 	0.3558	0.8563	0.8433	-0.447
Mof_O 	O 	0.8719	0.667	0.8998	-0.455
Mof_O 	O 	0.3023	0.3072	0.7345	-0.465
Mof_O 	O 	0.9932	0.736	0.7824	-0.439
Mof_O 	O 	0.4905	0.2889	0.7517	-0.438
Mof_O 	O 	0.399	0.1999	0.6247	-0.415
Mof_O 	O 	0.1114	0.8207	0.6159	-0.416
_end
