data_functionalizedCrystal
_audit_creation_method	'EQeq! by Chris Wilmer'
_symmetry_space_group_name_H-M	'P1'
_symmetry_Int_Tables_number	1
_symmetry_cell_setting	triclinic
loop_
_symmetry_equiv_pos_as_xyz
  x,y,z
_cell_length_a	8.9036
_cell_length_b	11.1229
_cell_length_c	13.851
_cell_angle_alpha	106.103
_cell_angle_beta	90.944
_cell_angle_gamma	109.83
loop_
_atom_site_label
_atom_site_type_symbol
_atom_site_fract_x
_atom_site_fract_y
_atom_site_fract_z
_atom_site_charge
Mof_Gd	Gd	0.77723	0.24736	0.2373	1.717
Mof_Mn	Mn	0.71086	0.59056	0.0267	0.739
Mof_C 	C 	0.4629	0.7034	0.9442	0.401
Mof_C 	C 	0.6024	0.8383	0.9659	-0.054
Mof_C 	C 	0.8206	0.9737	0.9125	0.087
Mof_H 	H 	0.8892	0.9889	0.8637	0.043
Mof_C 	C 	0.7003	0.2859	0.4894	0.39
Mof_C 	C 	0.7679	0.4355	0.5372	-0.036
Mof_C 	C 	0.8452	0.0742	0.0043	-0.068
Mof_C 	C 	0.9843	0.2078	0.0349	0.368
Mof_C 	C 	0.6223	0.9415	0.0544	0.018
Mof_C 	C 	0.5114	0.9355	0.1359	0.365
Mof_C 	C 	0.7422	0.6382	0.551	0.039
Mof_H 	H 	0.6899	0.6889	0.5317	0.041
Mof_C 	C 	0.8755	0.7026	0.6244	-0.026
Mof_C 	C 	0.9502	0.8528	0.6744	0.323
Mof_C 	C 	0.9044	0.5008	0.6088	-0.011
Mof_C 	C 	0.0111	0.4349	0.6416	0.332
Mof_N 	N 	0.6985	0.8545	0.8935	-0.111
Mof_N 	N 	0.7451	0.0593	0.0737	-0.178
Mof_N 	N 	0.6865	0.5042	0.5069	-0.104
Mof_N 	N 	0.9546	0.6323	0.6519	-0.171
Mof_O 	O 	0.4849	0.6128	0.9738	-0.44
Mof_O 	O 	0.3395	0.6925	0.8938	-0.443
Mof_O 	O 	0.0882	0.2278	0.9757	-0.369
Mof_O 	O 	0.9816	0.2882	0.1193	-0.406
Mof_O 	O 	0.5483	0.0435	0.2101	-0.434
Mof_O 	O 	0.3926	0.8351	0.1222	-0.263
Mof_O 	O 	0.7388	0.2378	0.4044	-0.448
Mof_O 	O 	0.6081	0.2211	0.539	-0.363
Mof_O 	O 	0.8831	0.9257	0.6548	-0.233
Mof_O 	O 	0.081	0.8924	0.7316	-0.372
Mof_O 	O 	0.1284	0.513	0.7075	-0.415
Mof_O 	O 	0.9767	0.3137	0.5983	-0.253
Mof_Gd	Gd	0.22277	0.75264	0.7627	1.724
Mof_Mn	Mn	0.28914	0.40944	0.9733	0.724
Mof_C 	C 	0.5371	0.2966	0.0558	0.397
Mof_C 	C 	0.3976	0.1617	0.0341	-0.039
Mof_C 	C 	0.1794	0.0263	0.0875	-0.003
Mof_H 	H 	0.1108	0.0111	0.1363	0.057
Mof_C 	C 	0.2997	0.7141	0.5106	0.389
Mof_C 	C 	0.2321	0.5645	0.4628	-0.037
Mof_C 	C 	0.1548	0.9258	0.9957	0.011
Mof_C 	C 	0.0157	0.7922	0.9651	0.341
Mof_C 	C 	0.3777	0.0585	0.9456	-0.043
Mof_C 	C 	0.4886	0.0645	0.8641	0.288
Mof_C 	C 	0.2578	0.3618	0.449	0.042
Mof_H 	H 	0.3101	0.3111	0.4683	0.036
Mof_C 	C 	0.1245	0.2974	0.3756	-0.031
Mof_C 	C 	0.0498	0.1472	0.3256	0.337
Mof_C 	C 	0.0956	0.4992	0.3912	0
Mof_C 	C 	0.9889	0.5651	0.3584	0.316
Mof_N 	N 	0.3015	0.1455	0.1065	-0.103
Mof_N 	N 	0.2549	0.9407	0.9263	-0.153
Mof_N 	N 	0.3135	0.4958	0.4931	-0.105
Mof_N 	N 	0.0454	0.3677	0.3481	-0.169
Mof_O 	O 	0.5151	0.3872	0.0262	-0.432
Mof_O 	O 	0.6605	0.3075	0.1062	-0.441
Mof_O 	O 	0.9118	0.7722	0.0243	-0.344
Mof_O 	O 	0.0184	0.7118	0.8807	-0.4
Mof_O 	O 	0.4517	0.9565	0.7899	-0.37
Mof_O 	O 	0.6074	0.1649	0.8778	-0.264
Mof_O 	O 	0.2612	0.7622	0.5956	-0.44
Mof_O 	O 	0.3919	0.7789	0.461	-0.344
Mof_O 	O 	0.1169	0.0743	0.3452	-0.259
Mof_O 	O 	0.919	0.1076	0.2684	-0.396
Mof_O 	O 	0.8716	0.487	0.2925	-0.408
Mof_O 	O 	0.0233	0.6863	0.4017	-0.23
Mof_Mn	Mn	0.5	0	0.5	0.684
_end
