data_functionalizedCrystal
_audit_creation_method	'EQeq! by Chris Wilmer'
_symmetry_space_group_name_H-M	'P1'
_symmetry_Int_Tables_number	1
_symmetry_cell_setting	triclinic
loop_
_symmetry_equiv_pos_as_xyz
  x,y,z
_cell_length_a	6.8365
_cell_length_b	15.1444
_cell_length_c	15.1444
_cell_angle_alpha	62.2227
_cell_angle_beta	81.3456
_cell_angle_gamma	98.6544
loop_
_atom_site_label
_atom_site_type_symbol
_atom_site_fract_x
_atom_site_fract_y
_atom_site_fract_z
_atom_site_charge
Mof_Zn	Zn	0.88926	0.68439	0.57792	1.212
Mof_Zn	Zn	0.46718	0.57792	0.73769	1.212
Mof_Zn	Zn	0.20487	0.73769	0.68439	1.212
Mof_Zn	Zn	0.11074	0.31561	0.42208	1.212
Mof_Zn	Zn	0.53282	0.42208	0.26231	1.212
Mof_Zn	Zn	0.79513	0.26231	0.31561	1.212
Mof_H 	H 	0.6695	0.0181	0.5297	0.078
Mof_H 	H 	0.1992	0.5297	0.4522	0.078
Mof_H 	H 	0.6514	0.4522	0.0181	0.078
Mof_H 	H 	0.3305	0.9819	0.4703	0.078
Mof_H 	H 	0.8008	0.4703	0.5478	0.078
Mof_H 	H 	0.3486	0.5478	0.9819	0.078
Mof_C 	C 	0.64834	0.82388	0.61406	0.414
Mof_C 	C 	0.83502	0.91218	0.55332	-0.187
Mof_C 	C 	0.03588	0.89947	0.53473	0.195
Mof_C 	C 	0.80534	0.01125	0.51763	-0.099
Mof_C 	C 	0.2624	0.61406	0.56206	0.414
Mof_C 	C 	0.38834	0.55332	0.5345	-0.186
Mof_C 	C 	0.57061	0.53473	0.5658	0.195
Mof_C 	C 	0.32297	0.51763	0.47112	-0.1
Mof_C 	C 	0.82446	0.56206	0.82388	0.414
Mof_C 	C 	0.92284	0.5345	0.91218	-0.184
Mof_C 	C 	0.13641	0.5658	0.89947	0.194
Mof_C 	C 	0.79409	0.47112	0.01125	-0.101
Mof_C 	C 	0.35166	0.17612	0.38594	0.414
Mof_C 	C 	0.16498	0.08782	0.44668	-0.187
Mof_C 	C 	0.96412	0.10053	0.46527	0.195
Mof_C 	C 	0.19466	0.98875	0.48237	-0.099
Mof_C 	C 	0.7376	0.38594	0.43794	0.414
Mof_C 	C 	0.61166	0.44668	0.4655	-0.186
Mof_C 	C 	0.42939	0.46527	0.4342	0.195
Mof_C 	C 	0.67703	0.48237	0.52888	-0.1
Mof_C 	C 	0.17554	0.43794	0.17612	0.414
Mof_C 	C 	0.07716	0.4655	0.08782	-0.184
Mof_C 	C 	0.86359	0.4342	0.10053	0.194
Mof_C 	C 	0.20591	0.52888	0.98875	-0.101
Mof_O 	O 	0.67054	0.73308	0.65166	-0.576
Mof_O 	O 	0.47721	0.84395	0.62552	-0.478
Mof_O 	O 	0.08243	0.80824	0.56305	-0.559
Mof_O 	O 	0.3222	0.65166	0.61526	-0.576
Mof_O 	O 	0.10273	0.62552	0.53053	-0.478
Mof_O 	O 	0.64548	0.56305	0.62871	-0.559
Mof_O 	O 	0.93746	0.61526	0.73308	-0.576
Mof_O 	O 	0.63326	0.53053	0.84395	-0.478
Mof_O 	O 	0.27419	0.62871	0.80824	-0.559
Mof_O 	O 	0.32946	0.26692	0.34834	-0.576
Mof_O 	O 	0.52279	0.15605	0.37448	-0.478
Mof_O 	O 	0.91757	0.19176	0.43695	-0.559
Mof_O 	O 	0.6778	0.34834	0.38474	-0.576
Mof_O 	O 	0.89727	0.37448	0.46947	-0.478
Mof_O 	O 	0.35452	0.43695	0.37129	-0.559
Mof_O 	O 	0.06254	0.38474	0.26692	-0.576
Mof_O 	O 	0.36674	0.46947	0.15605	-0.478
Mof_O 	O 	0.72581	0.37129	0.19176	-0.559
_end
