data_functionalizedCrystal
_audit_creation_method	'EQeq! by Chris Wilmer'
_symmetry_space_group_name_H-M	'P1'
_symmetry_Int_Tables_number	1
_symmetry_cell_setting	triclinic
loop_
_symmetry_equiv_pos_as_xyz
  x,y,z
_cell_length_a	9.7528
_cell_length_b	16.1943
_cell_length_c	17.2751
_cell_angle_alpha	90
_cell_angle_beta	104.763
_cell_angle_gamma	90
loop_
_atom_site_label
_atom_site_type_symbol
_atom_site_fract_x
_atom_site_fract_y
_atom_site_fract_z
_atom_site_charge
Mof_Na	Na	0.70027	0.13524	0.23277	1.948
Mof_N 	N 	0.90379	0.1847	0.33038	-0.349
Mof_C 	C 	0.02149	0.22123	0.31816	0.072
Mof_H 	H 	0.022	0.2333	0.2644	-0.06
Mof_C 	C 	0.13942	0.24223	0.37657	-0.139
Mof_H 	H 	0.2177	0.267	0.3622	0.051
Mof_C 	C 	0.14639	0.22743	0.45888	0.029
Mof_C 	C 	0.0226	0.18892	0.47132	-0.123
Mof_H 	H 	0.0179	0.1763	0.5243	0.045
Mof_C 	C 	0.91022	0.16969	0.40841	0.043
Mof_H 	H 	0.8306	0.1438	0.4203	-0.055
Mof_N 	N 	0.81024	0.06907	0.14139	-0.355
Mof_C 	C 	0.8125	0.98936	0.11839	0.086
Mof_H 	H 	0.7599	0.9508	0.1407	-0.067
Mof_C 	C 	0.88428	0.95949	0.06564	-0.153
Mof_H 	H 	0.8806	0.9022	0.0534	0.066
Mof_C 	C 	0.96439	0.01352	0.02891	0.03
Mof_C 	C 	0.96529	0.09714	0.05499	-0.135
Mof_H 	H 	0.019	0.1373	0.0353	0.059
Mof_C 	C 	0.88938	0.12008	0.10823	0.057
Mof_H 	H 	0.8926	0.1767	0.1231	-0.075
Mof_N 	N 	0.58825	0.06555	0.31983	-0.357
Mof_C 	C 	0.63731	0.9947	0.35851	0.074
Mof_H 	H 	0.6967	0.9611	0.3357	-0.066
Mof_C 	C 	0.60873	0.9673	0.42747	-0.144
Mof_H 	H 	0.649	0.9169	0.4508	0.067
Mof_C 	C 	0.51915	0.0136	0.46489	0.033
Mof_C 	C 	0.46937	0.0888	0.42495	-0.136
Mof_H 	H 	0.4104	0.1243	0.4462	0.062
Mof_C 	C 	0.5055	0.11041	0.35645	0.058
Mof_H 	H 	0.4696	0.1613	0.3323	-0.065
Mof_N 	N 	0.51569	0.28363	0.64962	-0.344
Mof_C 	C 	0.50655	0.30006	0.57165	0.02
Mof_H 	H 	0.5872	0.3239	0.5591	-0.066
Mof_C 	C 	0.39076	0.28509	0.50945	-0.109
Mof_H 	H 	0.3939	0.2991	0.4565	0.037
Mof_C 	C 	0.26582	0.24886	0.52258	0.022
Mof_C 	C 	0.27377	0.23448	0.60493	-0.135
Mof_H 	H 	0.1937	0.2128	0.6199	0.05
Mof_C 	C 	0.39495	0.25147	0.66275	0.073
Mof_H 	H 	0.3947	0.2398	0.7166	-0.055
Mof_Na	Na	0.29973	0.63524	0.26723	1.949
Mof_N 	N 	0.09621	0.6847	0.16962	-0.348
Mof_C 	C 	0.97851	0.72123	0.18184	0.074
Mof_H 	H 	0.978	0.7333	0.2356	-0.059
Mof_C 	C 	0.86058	0.74223	0.12343	-0.138
Mof_H 	H 	0.7823	0.767	0.1378	0.052
Mof_C 	C 	0.85361	0.72743	0.04112	0.03
Mof_C 	C 	0.9774	0.68892	0.02868	-0.119
Mof_H 	H 	0.9821	0.6763	0.9757	0.044
Mof_C 	C 	0.08978	0.66969	0.09159	0.042
Mof_H 	H 	0.1694	0.6438	0.0797	-0.054
Mof_N 	N 	0.18976	0.56907	0.35861	-0.355
Mof_C 	C 	0.1875	0.48936	0.38161	0.085
Mof_H 	H 	0.2401	0.4508	0.3593	-0.067
Mof_C 	C 	0.11572	0.45949	0.43436	-0.154
Mof_H 	H 	0.1194	0.4022	0.4466	0.066
Mof_C 	C 	0.03561	0.51352	0.47109	0.032
Mof_C 	C 	0.03471	0.59714	0.44501	-0.137
Mof_H 	H 	0.981	0.6373	0.4647	0.06
Mof_C 	C 	0.11062	0.62008	0.39177	0.057
Mof_H 	H 	0.1074	0.6767	0.3769	-0.075
Mof_N 	N 	0.41175	0.56555	0.18017	-0.357
Mof_C 	C 	0.36269	0.4947	0.14149	0.073
Mof_H 	H 	0.3033	0.4611	0.1643	-0.066
Mof_C 	C 	0.39127	0.4673	0.07253	-0.144
Mof_H 	H 	0.351	0.4169	0.0492	0.066
Mof_C 	C 	0.48085	0.5136	0.03511	0.033
Mof_C 	C 	0.53063	0.5888	0.07505	-0.136
Mof_H 	H 	0.5896	0.6243	0.0538	0.062
Mof_C 	C 	0.4945	0.61041	0.14355	0.058
Mof_H 	H 	0.5304	0.6613	0.1677	-0.065
Mof_N 	N 	0.48431	0.78363	0.85038	-0.345
Mof_C 	C 	0.49345	0.80006	0.92835	0.021
Mof_H 	H 	0.4128	0.8239	0.9409	-0.066
Mof_C 	C 	0.60924	0.78509	0.99055	-0.11
Mof_H 	H 	0.6061	0.7991	0.0435	0.038
Mof_C 	C 	0.73418	0.74886	0.97742	0.021
Mof_C 	C 	0.72623	0.73448	0.89507	-0.135
Mof_H 	H 	0.8063	0.7128	0.8801	0.05
Mof_C 	C 	0.60505	0.75147	0.83725	0.073
Mof_H 	H 	0.6053	0.7398	0.7834	-0.055
Mof_Na	Na	0.29973	0.86476	0.76723	1.949
Mof_N 	N 	0.09621	0.8153	0.66962	-0.348
Mof_C 	C 	0.97851	0.77877	0.68184	0.073
Mof_H 	H 	0.978	0.7667	0.7356	-0.059
Mof_C 	C 	0.86058	0.75777	0.62343	-0.138
Mof_H 	H 	0.7823	0.733	0.6378	0.052
Mof_C 	C 	0.85361	0.77257	0.54112	0.03
Mof_C 	C 	0.9774	0.81108	0.52868	-0.122
Mof_H 	H 	0.9821	0.8237	0.4757	0.046
Mof_C 	C 	0.08978	0.83031	0.59159	0.044
Mof_H 	H 	0.1694	0.8562	0.5797	-0.055
Mof_N 	N 	0.18976	0.93093	0.85861	-0.355
Mof_C 	C 	0.1875	0.01064	0.88161	0.086
Mof_H 	H 	0.2401	0.0492	0.8593	-0.067
Mof_C 	C 	0.11572	0.04051	0.93436	-0.153
Mof_H 	H 	0.1194	0.0978	0.9466	0.066
Mof_C 	C 	0.03561	0.98648	0.97109	0.03
Mof_C 	C 	0.03471	0.90286	0.94501	-0.135
Mof_H 	H 	0.981	0.8627	0.9647	0.059
Mof_C 	C 	0.11062	0.87992	0.89177	0.057
Mof_H 	H 	0.1074	0.8233	0.8769	-0.075
Mof_N 	N 	0.41175	0.93445	0.68017	-0.357
Mof_C 	C 	0.36269	0.0053	0.64149	0.074
Mof_H 	H 	0.3033	0.0389	0.6643	-0.066
Mof_C 	C 	0.39127	0.0327	0.57253	-0.144
Mof_H 	H 	0.351	0.0831	0.5492	0.067
Mof_C 	C 	0.48085	0.9864	0.53511	0.033
Mof_C 	C 	0.53063	0.9112	0.57505	-0.136
Mof_H 	H 	0.5896	0.8757	0.5538	0.062
Mof_C 	C 	0.4945	0.88959	0.64355	0.058
Mof_H 	H 	0.5304	0.8387	0.6677	-0.065
Mof_N 	N 	0.48431	0.71637	0.35038	-0.344
Mof_C 	C 	0.49345	0.69994	0.42835	0.02
Mof_H 	H 	0.4128	0.6761	0.4409	-0.066
Mof_C 	C 	0.60924	0.71491	0.49055	-0.109
Mof_H 	H 	0.6061	0.7009	0.5435	0.037
Mof_C 	C 	0.73418	0.75114	0.47742	0.022
Mof_C 	C 	0.72623	0.76552	0.39507	-0.135
Mof_H 	H 	0.8063	0.7872	0.3801	0.05
Mof_C 	C 	0.60505	0.74853	0.33725	0.073
Mof_H 	H 	0.6053	0.7602	0.2834	-0.055
Mof_Na	Na	0.70027	0.36476	0.73277	1.949
Mof_N 	N 	0.90379	0.3153	0.83038	-0.348
Mof_C 	C 	0.02149	0.27877	0.81816	0.074
Mof_H 	H 	0.022	0.2667	0.7644	-0.059
Mof_C 	C 	0.13942	0.25777	0.87657	-0.138
Mof_H 	H 	0.2177	0.233	0.8622	0.052
Mof_C 	C 	0.14639	0.27257	0.95888	0.03
Mof_C 	C 	0.0226	0.31108	0.97132	-0.119
Mof_H 	H 	0.0179	0.3237	0.0243	0.044
Mof_C 	C 	0.91022	0.33031	0.90841	0.042
Mof_H 	H 	0.8306	0.3562	0.9203	-0.054
Mof_N 	N 	0.81024	0.43093	0.64139	-0.355
Mof_C 	C 	0.8125	0.51064	0.61839	0.085
Mof_H 	H 	0.7599	0.5492	0.6407	-0.067
Mof_C 	C 	0.88428	0.54051	0.56564	-0.154
Mof_H 	H 	0.8806	0.5978	0.5534	0.066
Mof_C 	C 	0.96439	0.48648	0.52891	0.032
Mof_C 	C 	0.96529	0.40286	0.55499	-0.137
Mof_H 	H 	0.019	0.3627	0.5353	0.06
Mof_C 	C 	0.88938	0.37992	0.60823	0.057
Mof_H 	H 	0.8926	0.3233	0.6231	-0.075
Mof_N 	N 	0.58825	0.43445	0.81983	-0.357
Mof_C 	C 	0.63731	0.5053	0.85851	0.073
Mof_H 	H 	0.6967	0.5389	0.8357	-0.066
Mof_C 	C 	0.60873	0.5327	0.92747	-0.144
Mof_H 	H 	0.649	0.5831	0.9508	0.066
Mof_C 	C 	0.51915	0.4864	0.96489	0.033
Mof_C 	C 	0.46937	0.4112	0.92495	-0.136
Mof_H 	H 	0.4104	0.3757	0.9462	0.062
Mof_C 	C 	0.5055	0.38959	0.85645	0.058
Mof_H 	H 	0.4696	0.3387	0.8323	-0.065
Mof_N 	N 	0.51569	0.21637	0.14962	-0.345
Mof_C 	C 	0.50655	0.19994	0.07165	0.021
Mof_H 	H 	0.5872	0.1761	0.0591	-0.066
Mof_C 	C 	0.39076	0.21491	0.00945	-0.11
Mof_H 	H 	0.3939	0.2009	0.9565	0.038
Mof_C 	C 	0.26582	0.25114	0.02258	0.021
Mof_C 	C 	0.27377	0.26552	0.10493	-0.135
Mof_H 	H 	0.1937	0.2872	0.1199	0.05
Mof_C 	C 	0.39495	0.24853	0.16275	0.073
Mof_H 	H 	0.3947	0.2602	0.2166	-0.055
_end
