data_functionalizedCrystal
_audit_creation_method	'EQeq! by Chris Wilmer'
_symmetry_space_group_name_H-M	'P1'
_symmetry_Int_Tables_number	1
_symmetry_cell_setting	triclinic
loop_
_symmetry_equiv_pos_as_xyz
  x,y,z
_cell_length_a	18.4448
_cell_length_b	18.4448
_cell_length_c	9.8084
_cell_angle_alpha	90
_cell_angle_beta	90
_cell_angle_gamma	120
loop_
_atom_site_label
_atom_site_type_symbol
_atom_site_fract_x
_atom_site_fract_y
_atom_site_fract_z
_atom_site_charge
Mof_O 	O 	0.5686	0.0623	0.361	-0.175
Mof_O 	O 	0.4616	0.6878	0.5044	-0.178
Mof_O 	O 	0.4671	0.7939	0.6141	-0.149
Mof_C 	C 	0.4702	0.7594	0.5045	0.279
Mof_C 	C 	0.4848	0.8052	0.3729	-0.027
Mof_C 	C 	0.5086	0.8891	0.3733	-0.005
Mof_H 	H 	0.515	0.9168	0.4555	0.091
Mof_O 	O 	0.9377	0.5063	0.361	-0.175
Mof_O 	O 	0.3122	0.7738	0.5044	-0.178
Mof_O 	O 	0.2061	0.6732	0.6141	-0.149
Mof_C 	C 	0.2406	0.7108	0.5045	0.279
Mof_C 	C 	0.1948	0.6796	0.3729	-0.027
Mof_C 	C 	0.1109	0.6195	0.3733	-0.004
Mof_H 	H 	0.0832	0.5982	0.4555	0.091
Mof_O 	O 	0.4937	0.4314	0.361	-0.175
Mof_O 	O 	0.2262	0.5384	0.5044	-0.178
Mof_O 	O 	0.3268	0.5329	0.6141	-0.149
Mof_C 	C 	0.2892	0.5298	0.5045	0.279
Mof_C 	C 	0.3204	0.5152	0.3729	-0.026
Mof_C 	C 	0.3805	0.4914	0.3733	-0.005
Mof_H 	H 	0.4018	0.485	0.4555	0.091
Mof_O 	O 	0.4314	0.9377	0.861	-0.176
Mof_O 	O 	0.5384	0.3122	0.0044	-0.179
Mof_O 	O 	0.5329	0.2061	0.1141	-0.15
Mof_C 	C 	0.5298	0.2406	0.0045	0.279
Mof_C 	C 	0.5152	0.1948	0.8729	-0.028
Mof_C 	C 	0.4914	0.1109	0.8733	-0.005
Mof_H 	H 	0.485	0.0832	0.9555	0.09
Mof_O 	O 	0.0623	0.4937	0.861	-0.176
Mof_O 	O 	0.6878	0.2262	0.0044	-0.179
Mof_O 	O 	0.7939	0.3268	0.1141	-0.15
Mof_C 	C 	0.7594	0.2892	0.0045	0.279
Mof_C 	C 	0.8052	0.3204	0.8729	-0.028
Mof_C 	C 	0.8891	0.3805	0.8733	-0.005
Mof_H 	H 	0.9168	0.4018	0.9555	0.09
Mof_O 	O 	0.5063	0.5686	0.861	-0.176
Mof_O 	O 	0.7738	0.4616	0.0044	-0.178
Mof_O 	O 	0.6732	0.4671	0.1141	-0.15
Mof_C 	C 	0.7108	0.4702	0.0045	0.279
Mof_C 	C 	0.6796	0.4848	0.8729	-0.028
Mof_C 	C 	0.6195	0.5086	0.8733	-0.006
Mof_H 	H 	0.5982	0.515	0.9555	0.09
Mof_O 	O 	0.4314	0.9377	0.639	-0.176
Mof_O 	O 	0.5384	0.3122	0.4956	-0.179
Mof_O 	O 	0.5329	0.2061	0.3859	-0.15
Mof_C 	C 	0.5298	0.2406	0.4955	0.278
Mof_C 	C 	0.5152	0.1948	0.6271	-0.028
Mof_C 	C 	0.4914	0.1109	0.6267	-0.006
Mof_H 	H 	0.485	0.0832	0.5445	0.09
Mof_O 	O 	0.0623	0.4937	0.639	-0.176
Mof_O 	O 	0.6878	0.2262	0.4956	-0.179
Mof_O 	O 	0.7939	0.3268	0.3859	-0.15
Mof_C 	C 	0.7594	0.2892	0.4955	0.278
Mof_C 	C 	0.8052	0.3204	0.6271	-0.028
Mof_C 	C 	0.8891	0.3805	0.6267	-0.005
Mof_H 	H 	0.9168	0.4018	0.5445	0.09
Mof_O 	O 	0.5063	0.5686	0.639	-0.176
Mof_O 	O 	0.7738	0.4616	0.4956	-0.179
Mof_O 	O 	0.6732	0.4671	0.3859	-0.15
Mof_C 	C 	0.7108	0.4702	0.4955	0.278
Mof_C 	C 	0.6796	0.4848	0.6271	-0.027
Mof_C 	C 	0.6195	0.5086	0.6267	-0.006
Mof_H 	H 	0.5982	0.515	0.5445	0.091
Mof_O 	O 	0.5686	0.0623	0.139	-0.176
Mof_O 	O 	0.4616	0.6878	0.9956	-0.179
Mof_O 	O 	0.4671	0.7939	0.8859	-0.15
Mof_C 	C 	0.4702	0.7594	0.9955	0.279
Mof_C 	C 	0.4848	0.8052	0.1271	-0.028
Mof_C 	C 	0.5086	0.8891	0.1267	-0.005
Mof_H 	H 	0.515	0.9168	0.0445	0.09
Mof_O 	O 	0.9377	0.5063	0.139	-0.176
Mof_O 	O 	0.3122	0.7738	0.9956	-0.179
Mof_O 	O 	0.2061	0.6732	0.8859	-0.15
Mof_C 	C 	0.2406	0.7108	0.9955	0.279
Mof_C 	C 	0.1948	0.6796	0.1271	-0.028
Mof_C 	C 	0.1109	0.6195	0.1267	-0.005
Mof_H 	H 	0.0832	0.5982	0.0445	0.09
Mof_O 	O 	0.4937	0.4314	0.139	-0.176
Mof_O 	O 	0.2262	0.5384	0.9956	-0.178
Mof_O 	O 	0.3268	0.5329	0.8859	-0.15
Mof_C 	C 	0.2892	0.5298	0.9955	0.279
Mof_C 	C 	0.3204	0.5152	0.1271	-0.028
Mof_C 	C 	0.3805	0.4914	0.1267	-0.006
Mof_H 	H 	0.4018	0.485	0.0445	0.09
Mof_Th	Th	0.64617	0.20201	0.25	0.034
Mof_C 	C 	0.5232	0.9324	0.25	-0.035
Mof_C 	C 	0.5538	0.0228	0.25	0.281
Mof_C 	C 	0.4734	0.7633	0.25	-0.012
Mof_H 	H 	0.4581	0.707	0.25	0.074
Mof_Th	Th	0.79799	0.44416	0.25	0.034
Mof_C 	C 	0.0676	0.5908	0.25	-0.035
Mof_C 	C 	0.9772	0.531	0.25	0.281
Mof_C 	C 	0.2367	0.7101	0.25	-0.012
Mof_H 	H 	0.293	0.7511	0.25	0.074
Mof_Th	Th	0.55584	0.35383	0.25	0.034
Mof_C 	C 	0.4092	0.4768	0.25	-0.034
Mof_C 	C 	0.469	0.4462	0.25	0.281
Mof_C 	C 	0.2899	0.5266	0.25	-0.012
Mof_H 	H 	0.2489	0.5419	0.25	0.074
Mof_Th	Th	0.35383	0.79799	0.75	0.034
Mof_C 	C 	0.4768	0.0676	0.75	-0.035
Mof_C 	C 	0.4462	0.9772	0.75	0.281
Mof_C 	C 	0.5266	0.2367	0.75	-0.012
Mof_H 	H 	0.5419	0.293	0.75	0.074
Mof_Th	Th	0.20201	0.55584	0.75	0.034
Mof_C 	C 	0.9324	0.4092	0.75	-0.035
Mof_C 	C 	0.0228	0.469	0.75	0.281
Mof_C 	C 	0.7633	0.2899	0.75	-0.012
Mof_H 	H 	0.707	0.2489	0.75	0.074
Mof_Th	Th	0.44416	0.64617	0.75	0.034
Mof_C 	C 	0.5908	0.5232	0.75	-0.034
Mof_C 	C 	0.531	0.5538	0.75	0.281
Mof_C 	C 	0.7101	0.4734	0.75	-0.012
Mof_H 	H 	0.7511	0.4581	0.75	0.074
Mof_O 	O 	0.66667	0.33333	0.25	-0.02
Mof_O 	O 	0.33333	0.66667	0.75	-0.02
_end
