data_functionalizedCrystal
_audit_creation_method	'EQeq! by Chris Wilmer'
_symmetry_space_group_name_H-M	'P1'
_symmetry_Int_Tables_number	1
_symmetry_cell_setting	triclinic
loop_
_symmetry_equiv_pos_as_xyz
  x,y,z
_cell_length_a	34.8492
_cell_length_b	14.8584
_cell_length_c	31.0351
_cell_angle_alpha	90
_cell_angle_beta	101.858
_cell_angle_gamma	90
loop_
_atom_site_label
_atom_site_type_symbol
_atom_site_fract_x
_atom_site_fract_y
_atom_site_fract_z
_atom_site_charge
Mof_C 	C 	0.3379	0.5466	0.7476	0.078
Mof_H 	H 	0.3591	0.5213	0.7682	-0.019
Mof_C 	C 	0.3334	0.6391	0.7471	-0.128
Mof_H 	H 	0.3507	0.676	0.7674	0.087
Mof_C 	C 	0.3033	0.6767	0.7165	0.058
Mof_C 	C 	0.279	0.6191	0.6878	-0.126
Mof_H 	H 	0.258	0.6421	0.6661	0.077
Mof_C 	C 	0.286	0.527	0.6915	0.072
Mof_H 	H 	0.2695	0.4877	0.6717	-0.017
Mof_N 	N 	0.3145	0.492	0.7214	-0.281
Mof_C 	C 	0.2962	0.7756	0.7166	0.1
Mof_N 	N 	0.32103	0.821	0.7477	-0.135
Mof_C 	C 	0.3118	0.9072	0.7509	0.102
Mof_N 	N 	0.28146	0.9483	0.7263	-0.146
Mof_C 	C 	0.26	0.8984	0.6944	0.084
Mof_N 	N 	0.26629	0.8104	0.6883	-0.142
Mof_C 	C 	0.3945	0.9731	0.8427	0.075
Mof_H 	H 	0.4193	0.9497	0.8568	-0.006
Mof_C 	C 	0.3713	0.9235	0.8093	-0.12
Mof_H 	H 	0.3794	0.8657	0.8017	0.093
Mof_C 	C 	0.3369	0.959	0.7878	0.063
Mof_C 	C 	0.3255	0.0425	0.8	-0.128
Mof_H 	H 	0.3015	0.0687	0.7851	0.073
Mof_C 	C 	0.3493	0.0873	0.8342	0.071
Mof_H 	H 	0.3414	0.1447	0.8426	-0.015
Mof_N 	N 	0.383	0.0528	0.8558	-0.271
Mof_C 	C 	0.1744	0.9473	0.6027	0.075
Mof_H 	H 	0.1584	0.9164	0.5787	-0.008
Mof_C 	C 	0.2036	0.9001	0.6296	-0.123
Mof_H 	H 	0.2069	0.8378	0.6247	0.084
Mof_C 	C 	0.2278	0.9429	0.6637	0.045
Mof_C 	C 	0.2202	0.034	0.6697	-0.121
Mof_H 	H 	0.2361	0.0666	0.6931	0.084
Mof_C 	C 	0.1899	0.0762	0.6418	0.065
Mof_H 	H 	0.1849	0.1378	0.6467	-0.004
Mof_N 	N 	0.16719	0.0338	0.6082	-0.286
Mof_C 	C 	0.3461	0.2853	0.6442	0.071
Mof_H 	H 	0.3206	0.2596	0.6395	-0.019
Mof_C 	C 	0.3692	0.2687	0.6137	-0.116
Mof_H 	H 	0.36	0.232	0.5886	0.082
Mof_C 	C 	0.4063	0.3075	0.6207	0.066
Mof_C 	C 	0.4189	0.3585	0.6577	-0.123
Mof_H 	H 	0.4442	0.3854	0.6634	0.085
Mof_C 	C 	0.3934	0.3699	0.6867	0.082
Mof_H 	H 	0.4022	0.4042	0.7127	-0.021
Mof_C 	C 	0.4319	0.2945	0.5885	0.105
Mof_C 	C 	0.4481	0.2158	0.5332	0.082
Mof_C 	C 	0.4811	0.341	0.5581	0.092
Mof_C 	C 	0.533	0.408	0.5227	-0.125
Mof_H 	H 	0.5247	0.3712	0.4974	0.078
Mof_C 	C 	0.5637	0.4656	0.525	0.075
Mof_H 	H 	0.5764	0.4683	0.5008	-0.012
Mof_C 	C 	0.5139	0.4041	0.5578	0.05
Mof_C 	C 	0.5259	0.4633	0.5926	-0.124
Mof_H 	H 	0.5125	0.4664	0.6163	0.084
Mof_C 	C 	0.558	0.5174	0.5919	0.08
Mof_H 	H 	0.5668	0.5562	0.6163	-0.019
Mof_C 	C 	0.4635	0.0385	0.452	0.073
Mof_H 	H 	0.482	0.0243	0.4345	-0.009
Mof_C 	C 	0.4696	0.115	0.4784	-0.124
Mof_H 	H 	0.4916	0.1527	0.4786	0.072
Mof_C 	C 	0.4431	0.1346	0.504	0.055
Mof_C 	C 	0.4114	0.0795	0.5025	-0.126
Mof_H 	H 	0.3924	0.0923	0.5197	0.079
Mof_C 	C 	0.4076	0.0046	0.4753	0.075
Mof_H 	H 	0.3858	0.9658	0.4746	-0.018
Mof_N 	N 	0.358	0.3357	0.6797	-0.287
Mof_N 	N 	0.4242	0.2234	0.5618	-0.136
Mof_N 	N 	0.4761	0.2749	0.52864	-0.15
Mof_N 	N 	0.46034	0.3543	0.5891	-0.136
Mof_N 	N 	0.577	0.5184	0.5596	-0.285
Mof_N 	N 	0.4328	0.9846	0.4503	-0.274
Mof_Zn	Zn	0.3261	0.3564	0.7294	0.599
Mof_I 	I 	0.37157	0.331	0.80341	-0.361
Mof_I 	I 	0.26312	0.2675	0.70295	0.001
Mof_Zn	Zn	0.1236	0.1036	0.5675	0.625
Mof_I 	I 	0.10764	0.24463	0.60669	-0.393
Mof_I 	I 	0.14528	0.0988	0.49434	0.037
Mof_Zn	Zn	0.4206	0.8792	0.40544	1.162
Mof_I 	I 	0.48013	0.85576	0.37197	-0.357
Mof_I 	I 	0.37893	0.7685	0.4364	-0.151
Mof_Zn	Zn	0.3196	0.3489	0.7199	0.596
Mof_I 	I 	0.3592	0.314	0.7966	-0.025
Mof_I 	I 	0.2523	0.2821	0.6892	-0.367
Mof_Zn	Zn	0.1279	0.0979	0.5572	0.602
Mof_I 	I 	0.11681	0.2497	0.59128	0.018
Mof_I 	I 	0.14817	0.0796	0.48365	-0.402
Mof_I 	I 	0.3856	0.7597	0.44293	-0.188
Mof_C 	C 	0.8379	0.0466	0.7476	0.079
Mof_H 	H 	0.8591	0.0213	0.7682	-0.018
Mof_C 	C 	0.8334	0.1391	0.7471	-0.127
Mof_H 	H 	0.8507	0.176	0.7674	0.088
Mof_C 	C 	0.8033	0.1767	0.7165	0.059
Mof_C 	C 	0.779	0.1191	0.6878	-0.124
Mof_H 	H 	0.758	0.1421	0.6661	0.078
Mof_C 	C 	0.786	0.027	0.6915	0.072
Mof_H 	H 	0.7695	0.9877	0.6717	-0.016
Mof_N 	N 	0.8145	0.992	0.7214	-0.28
Mof_C 	C 	0.7962	0.2756	0.7166	0.101
Mof_N 	N 	0.82103	0.321	0.7477	-0.134
Mof_C 	C 	0.8118	0.4072	0.7509	0.103
Mof_N 	N 	0.78146	0.4483	0.7263	-0.145
Mof_C 	C 	0.76	0.3984	0.6944	0.084
Mof_N 	N 	0.76629	0.3104	0.6883	-0.142
Mof_C 	C 	0.8945	0.4731	0.8427	0.074
Mof_H 	H 	0.9193	0.4497	0.8568	-0.006
Mof_C 	C 	0.8713	0.4235	0.8093	-0.119
Mof_H 	H 	0.8794	0.3657	0.8017	0.093
Mof_C 	C 	0.8369	0.459	0.7878	0.062
Mof_C 	C 	0.8255	0.5425	0.8	-0.127
Mof_H 	H 	0.8015	0.5687	0.7851	0.073
Mof_C 	C 	0.8493	0.5873	0.8342	0.071
Mof_H 	H 	0.8414	0.6447	0.8426	-0.015
Mof_N 	N 	0.883	0.5528	0.8558	-0.271
Mof_C 	C 	0.6744	0.4473	0.6027	0.075
Mof_H 	H 	0.6584	0.4164	0.5787	-0.008
Mof_C 	C 	0.7036	0.4001	0.6296	-0.122
Mof_H 	H 	0.7069	0.3378	0.6247	0.084
Mof_C 	C 	0.7278	0.4429	0.6637	0.045
Mof_C 	C 	0.7202	0.534	0.6697	-0.121
Mof_H 	H 	0.7361	0.5666	0.6931	0.084
Mof_C 	C 	0.6899	0.5762	0.6418	0.065
Mof_H 	H 	0.6849	0.6378	0.6467	-0.004
Mof_N 	N 	0.66719	0.5338	0.6082	-0.286
Mof_C 	C 	0.8461	0.7853	0.6442	0.071
Mof_H 	H 	0.8206	0.7596	0.6395	-0.019
Mof_C 	C 	0.8692	0.7687	0.6137	-0.116
Mof_H 	H 	0.86	0.732	0.5886	0.082
Mof_C 	C 	0.9063	0.8075	0.6207	0.066
Mof_C 	C 	0.9189	0.8585	0.6577	-0.123
Mof_H 	H 	0.9442	0.8854	0.6634	0.085
Mof_C 	C 	0.8934	0.8699	0.6867	0.082
Mof_H 	H 	0.9022	0.9042	0.7127	-0.021
Mof_C 	C 	0.9319	0.7945	0.5885	0.105
Mof_C 	C 	0.9481	0.7158	0.5332	0.082
Mof_C 	C 	0.9811	0.841	0.5581	0.092
Mof_C 	C 	0.033	0.908	0.5227	-0.125
Mof_H 	H 	0.0247	0.8712	0.4974	0.078
Mof_C 	C 	0.0637	0.9656	0.525	0.075
Mof_H 	H 	0.0764	0.9683	0.5008	-0.012
Mof_C 	C 	0.0139	0.9041	0.5578	0.05
Mof_C 	C 	0.0259	0.9633	0.5926	-0.124
Mof_H 	H 	0.0125	0.9664	0.6163	0.084
Mof_C 	C 	0.058	0.0174	0.5919	0.08
Mof_H 	H 	0.0668	0.0562	0.6163	-0.019
Mof_C 	C 	0.9635	0.5385	0.452	0.073
Mof_H 	H 	0.982	0.5243	0.4345	-0.009
Mof_C 	C 	0.9696	0.615	0.4784	-0.124
Mof_H 	H 	0.9916	0.6527	0.4786	0.072
Mof_C 	C 	0.9431	0.6346	0.504	0.055
Mof_C 	C 	0.9114	0.5795	0.5025	-0.126
Mof_H 	H 	0.8924	0.5923	0.5197	0.079
Mof_C 	C 	0.9076	0.5046	0.4753	0.075
Mof_H 	H 	0.8858	0.4658	0.4746	-0.018
Mof_N 	N 	0.858	0.8357	0.6797	-0.287
Mof_N 	N 	0.9242	0.7234	0.5618	-0.136
Mof_N 	N 	0.9761	0.7749	0.52864	-0.15
Mof_N 	N 	0.96034	0.8543	0.5891	-0.136
Mof_N 	N 	0.077	0.0184	0.5596	-0.285
Mof_N 	N 	0.9328	0.4846	0.4503	-0.274
Mof_Zn	Zn	0.8261	0.8564	0.7294	0.599
Mof_I 	I 	0.87157	0.831	0.80341	-0.361
Mof_I 	I 	0.76312	0.7675	0.70295	0.001
Mof_Zn	Zn	0.6236	0.6036	0.5675	0.625
Mof_I 	I 	0.60764	0.74463	0.60669	-0.393
Mof_I 	I 	0.64528	0.5988	0.49434	0.037
Mof_Zn	Zn	0.9206	0.3792	0.40544	1.162
Mof_I 	I 	0.98013	0.35576	0.37197	-0.357
Mof_I 	I 	0.87893	0.2685	0.4364	-0.151
Mof_Zn	Zn	0.8196	0.8489	0.7199	0.596
Mof_I 	I 	0.8592	0.814	0.7966	-0.025
Mof_I 	I 	0.7523	0.7821	0.6892	-0.367
Mof_Zn	Zn	0.6279	0.5979	0.5572	0.602
Mof_I 	I 	0.61681	0.7497	0.59128	0.018
Mof_I 	I 	0.64817	0.5796	0.48365	-0.402
Mof_I 	I 	0.8856	0.2597	0.44293	-0.188
Mof_C 	C 	0.3379	0.4534	0.2476	0.079
Mof_H 	H 	0.3591	0.4787	0.2682	-0.018
Mof_C 	C 	0.3334	0.3609	0.2471	-0.127
Mof_H 	H 	0.3507	0.324	0.2674	0.088
Mof_C 	C 	0.3033	0.3233	0.2165	0.059
Mof_C 	C 	0.279	0.3809	0.1878	-0.125
Mof_H 	H 	0.258	0.3579	0.1661	0.078
Mof_C 	C 	0.286	0.473	0.1915	0.073
Mof_H 	H 	0.2695	0.5123	0.1717	-0.016
Mof_N 	N 	0.3145	0.508	0.2214	-0.28
Mof_C 	C 	0.2962	0.2244	0.2166	0.101
Mof_N 	N 	0.32103	0.179	0.2477	-0.134
Mof_C 	C 	0.3118	0.0928	0.2509	0.103
Mof_N 	N 	0.28146	0.0517	0.2263	-0.145
Mof_C 	C 	0.26	0.1016	0.1944	0.084
Mof_N 	N 	0.26629	0.1896	0.1883	-0.142
Mof_C 	C 	0.3945	0.0269	0.3427	0.074
Mof_H 	H 	0.4193	0.0503	0.3568	-0.006
Mof_C 	C 	0.3713	0.0765	0.3093	-0.12
Mof_H 	H 	0.3794	0.1343	0.3017	0.093
Mof_C 	C 	0.3369	0.041	0.2878	0.062
Mof_C 	C 	0.3255	0.9575	0.3	-0.128
Mof_H 	H 	0.3015	0.9313	0.2851	0.073
Mof_C 	C 	0.3493	0.9127	0.3342	0.071
Mof_H 	H 	0.3414	0.8553	0.3426	-0.015
Mof_N 	N 	0.383	0.9472	0.3558	-0.271
Mof_C 	C 	0.1744	0.0527	0.1027	0.075
Mof_H 	H 	0.1584	0.0836	0.0787	-0.008
Mof_C 	C 	0.2036	0.0999	0.1296	-0.123
Mof_H 	H 	0.2069	0.1622	0.1247	0.084
Mof_C 	C 	0.2278	0.0571	0.1637	0.045
Mof_C 	C 	0.2202	0.966	0.1697	-0.121
Mof_H 	H 	0.2361	0.9334	0.1931	0.084
Mof_C 	C 	0.1899	0.9238	0.1418	0.065
Mof_H 	H 	0.1849	0.8622	0.1467	-0.004
Mof_N 	N 	0.16719	0.9662	0.1082	-0.286
Mof_C 	C 	0.3461	0.7147	0.1442	0.071
Mof_H 	H 	0.3206	0.7404	0.1395	-0.019
Mof_C 	C 	0.3692	0.7313	0.1137	-0.116
Mof_H 	H 	0.36	0.768	0.0886	0.082
Mof_C 	C 	0.4063	0.6925	0.1207	0.066
Mof_C 	C 	0.4189	0.6415	0.1577	-0.123
Mof_H 	H 	0.4442	0.6146	0.1634	0.085
Mof_C 	C 	0.3934	0.6301	0.1867	0.082
Mof_H 	H 	0.4022	0.5958	0.2127	-0.021
Mof_C 	C 	0.4319	0.7055	0.0885	0.105
Mof_C 	C 	0.4481	0.7842	0.0332	0.082
Mof_C 	C 	0.4811	0.659	0.0581	0.092
Mof_C 	C 	0.533	0.592	0.0227	-0.125
Mof_H 	H 	0.5247	0.6288	0.9974	0.078
Mof_C 	C 	0.5637	0.5344	0.025	0.076
Mof_H 	H 	0.5764	0.5317	0.0008	-0.012
Mof_C 	C 	0.5139	0.5959	0.0578	0.051
Mof_C 	C 	0.5259	0.5367	0.0926	-0.124
Mof_H 	H 	0.5125	0.5336	0.1163	0.084
Mof_C 	C 	0.558	0.4826	0.0919	0.08
Mof_H 	H 	0.5668	0.4438	0.1163	-0.019
Mof_C 	C 	0.4635	0.9615	0.952	0.073
Mof_H 	H 	0.482	0.9757	0.9345	-0.009
Mof_C 	C 	0.4696	0.885	0.9784	-0.124
Mof_H 	H 	0.4916	0.8473	0.9786	0.072
Mof_C 	C 	0.4431	0.8654	0.004	0.055
Mof_C 	C 	0.4114	0.9205	0.0025	-0.127
Mof_H 	H 	0.3924	0.9077	0.0197	0.08
Mof_C 	C 	0.4076	0.9954	0.9753	0.076
Mof_H 	H 	0.3858	0.0342	0.9746	-0.019
Mof_N 	N 	0.358	0.6643	0.1797	-0.287
Mof_N 	N 	0.4242	0.7766	0.0618	-0.136
Mof_N 	N 	0.4761	0.7251	0.02864	-0.15
Mof_N 	N 	0.46034	0.6457	0.0891	-0.136
Mof_N 	N 	0.577	0.4816	0.0596	-0.285
Mof_N 	N 	0.4328	0.0154	0.9503	-0.274
Mof_Zn	Zn	0.3261	0.6436	0.2294	0.599
Mof_I 	I 	0.37157	0.669	0.30341	-0.361
Mof_I 	I 	0.26312	0.7325	0.20295	0.001
Mof_Zn	Zn	0.1236	0.8964	0.0675	0.625
Mof_I 	I 	0.10764	0.75537	0.10669	-0.393
Mof_I 	I 	0.14528	0.9012	0.99434	0.037
Mof_Zn	Zn	0.4206	0.1208	0.90544	1.162
Mof_I 	I 	0.48013	0.14424	0.87197	-0.358
Mof_I 	I 	0.37893	0.2315	0.9364	-0.151
Mof_Zn	Zn	0.3196	0.6511	0.2199	0.596
Mof_I 	I 	0.3592	0.686	0.2966	-0.025
Mof_I 	I 	0.2523	0.7179	0.1892	-0.367
Mof_Zn	Zn	0.1279	0.9021	0.0572	0.601
Mof_I 	I 	0.11681	0.7503	0.09128	0.018
Mof_I 	I 	0.14817	0.9204	0.98365	-0.402
Mof_I 	I 	0.3856	0.2403	0.94293	-0.188
Mof_C 	C 	0.8379	0.9534	0.2476	0.079
Mof_H 	H 	0.8591	0.9787	0.2682	-0.018
Mof_C 	C 	0.8334	0.8609	0.2471	-0.127
Mof_H 	H 	0.8507	0.824	0.2674	0.088
Mof_C 	C 	0.8033	0.8233	0.2165	0.059
Mof_C 	C 	0.779	0.8809	0.1878	-0.124
Mof_H 	H 	0.758	0.8579	0.1661	0.078
Mof_C 	C 	0.786	0.973	0.1915	0.072
Mof_H 	H 	0.7695	0.0123	0.1717	-0.016
Mof_N 	N 	0.8145	0.008	0.2214	-0.28
Mof_C 	C 	0.7962	0.7244	0.2166	0.101
Mof_N 	N 	0.82103	0.679	0.2477	-0.134
Mof_C 	C 	0.8118	0.5928	0.2509	0.103
Mof_N 	N 	0.78146	0.5517	0.2263	-0.145
Mof_C 	C 	0.76	0.6016	0.1944	0.084
Mof_N 	N 	0.76629	0.6896	0.1883	-0.142
Mof_C 	C 	0.8945	0.5269	0.3427	0.074
Mof_H 	H 	0.9193	0.5503	0.3568	-0.006
Mof_C 	C 	0.8713	0.5765	0.3093	-0.119
Mof_H 	H 	0.8794	0.6343	0.3017	0.093
Mof_C 	C 	0.8369	0.541	0.2878	0.062
Mof_C 	C 	0.8255	0.4575	0.3	-0.127
Mof_H 	H 	0.8015	0.4313	0.2851	0.073
Mof_C 	C 	0.8493	0.4127	0.3342	0.071
Mof_H 	H 	0.8414	0.3553	0.3426	-0.015
Mof_N 	N 	0.883	0.4472	0.3558	-0.271
Mof_C 	C 	0.6744	0.5527	0.1027	0.075
Mof_H 	H 	0.6584	0.5836	0.0787	-0.008
Mof_C 	C 	0.7036	0.5999	0.1296	-0.122
Mof_H 	H 	0.7069	0.6622	0.1247	0.084
Mof_C 	C 	0.7278	0.5571	0.1637	0.045
Mof_C 	C 	0.7202	0.466	0.1697	-0.121
Mof_H 	H 	0.7361	0.4334	0.1931	0.084
Mof_C 	C 	0.6899	0.4238	0.1418	0.065
Mof_H 	H 	0.6849	0.3622	0.1467	-0.004
Mof_N 	N 	0.66719	0.4662	0.1082	-0.286
Mof_C 	C 	0.8461	0.2147	0.1442	0.071
Mof_H 	H 	0.8206	0.2404	0.1395	-0.019
Mof_C 	C 	0.8692	0.2313	0.1137	-0.116
Mof_H 	H 	0.86	0.268	0.0886	0.082
Mof_C 	C 	0.9063	0.1925	0.1207	0.066
Mof_C 	C 	0.9189	0.1415	0.1577	-0.123
Mof_H 	H 	0.9442	0.1146	0.1634	0.085
Mof_C 	C 	0.8934	0.1301	0.1867	0.082
Mof_H 	H 	0.9022	0.0958	0.2127	-0.021
Mof_C 	C 	0.9319	0.2055	0.0885	0.105
Mof_C 	C 	0.9481	0.2842	0.0332	0.082
Mof_C 	C 	0.9811	0.159	0.0581	0.092
Mof_C 	C 	0.033	0.092	0.0227	-0.124
Mof_H 	H 	0.0247	0.1288	0.9974	0.077
Mof_C 	C 	0.0637	0.0344	0.025	0.075
Mof_H 	H 	0.0764	0.0317	0.0008	-0.012
Mof_C 	C 	0.0139	0.0959	0.0578	0.05
Mof_C 	C 	0.0259	0.0367	0.0926	-0.123
Mof_H 	H 	0.0125	0.0336	0.1163	0.084
Mof_C 	C 	0.058	0.9826	0.0919	0.079
Mof_H 	H 	0.0668	0.9438	0.1163	-0.019
Mof_C 	C 	0.9635	0.4615	0.952	0.073
Mof_H 	H 	0.982	0.4757	0.9345	-0.009
Mof_C 	C 	0.9696	0.385	0.9784	-0.124
Mof_H 	H 	0.9916	0.3473	0.9786	0.072
Mof_C 	C 	0.9431	0.3654	0.004	0.055
Mof_C 	C 	0.9114	0.4205	0.0025	-0.126
Mof_H 	H 	0.8924	0.4077	0.0197	0.079
Mof_C 	C 	0.9076	0.4954	0.9753	0.075
Mof_H 	H 	0.8858	0.5342	0.9746	-0.018
Mof_N 	N 	0.858	0.1643	0.1797	-0.287
Mof_N 	N 	0.9242	0.2766	0.0618	-0.136
Mof_N 	N 	0.9761	0.2251	0.02864	-0.15
Mof_N 	N 	0.96034	0.1457	0.0891	-0.136
Mof_N 	N 	0.077	0.9816	0.0596	-0.285
Mof_N 	N 	0.9328	0.5154	0.9503	-0.274
Mof_Zn	Zn	0.8261	0.1436	0.2294	0.599
Mof_I 	I 	0.87157	0.169	0.30341	-0.361
Mof_I 	I 	0.76312	0.2325	0.20295	0.001
Mof_Zn	Zn	0.6236	0.3964	0.0675	0.625
Mof_I 	I 	0.60764	0.25537	0.10669	-0.393
Mof_I 	I 	0.64528	0.4012	0.99434	0.037
Mof_Zn	Zn	0.9206	0.6208	0.90544	1.162
Mof_I 	I 	0.98013	0.64424	0.87197	-0.358
Mof_I 	I 	0.87893	0.7315	0.9364	-0.151
Mof_Zn	Zn	0.8196	0.1511	0.2199	0.596
Mof_I 	I 	0.8592	0.186	0.2966	-0.025
Mof_I 	I 	0.7523	0.2179	0.1892	-0.367
Mof_Zn	Zn	0.6279	0.4021	0.0572	0.602
Mof_I 	I 	0.61681	0.2503	0.09128	0.018
Mof_I 	I 	0.64817	0.4204	0.98365	-0.402
Mof_I 	I 	0.8856	0.7403	0.94293	-0.188
Mof_C 	C 	0.6621	0.5466	0.7524	0.079
Mof_H 	H 	0.6409	0.5213	0.7318	-0.018
Mof_C 	C 	0.6666	0.6391	0.7529	-0.127
Mof_H 	H 	0.6493	0.676	0.7326	0.088
Mof_C 	C 	0.6967	0.6767	0.7835	0.059
Mof_C 	C 	0.721	0.6191	0.8122	-0.125
Mof_H 	H 	0.742	0.6421	0.8339	0.078
Mof_C 	C 	0.714	0.527	0.8085	0.073
Mof_H 	H 	0.7305	0.4877	0.8283	-0.016
Mof_N 	N 	0.6855	0.492	0.7786	-0.28
Mof_C 	C 	0.7038	0.7756	0.7834	0.101
Mof_N 	N 	0.67897	0.821	0.7523	-0.134
Mof_C 	C 	0.6882	0.9072	0.7491	0.103
Mof_N 	N 	0.71854	0.9483	0.7737	-0.145
Mof_C 	C 	0.74	0.8984	0.8056	0.084
Mof_N 	N 	0.73371	0.8104	0.8117	-0.142
Mof_C 	C 	0.6055	0.9731	0.6573	0.074
Mof_H 	H 	0.5807	0.9497	0.6432	-0.006
Mof_C 	C 	0.6287	0.9235	0.6907	-0.12
Mof_H 	H 	0.6206	0.8657	0.6983	0.093
Mof_C 	C 	0.6631	0.959	0.7122	0.062
Mof_C 	C 	0.6745	0.0425	0.7	-0.128
Mof_H 	H 	0.6985	0.0687	0.7149	0.073
Mof_C 	C 	0.6507	0.0873	0.6658	0.071
Mof_H 	H 	0.6586	0.1447	0.6574	-0.015
Mof_N 	N 	0.617	0.0528	0.6442	-0.271
Mof_C 	C 	0.8256	0.9473	0.8973	0.075
Mof_H 	H 	0.8416	0.9164	0.9213	-0.008
Mof_C 	C 	0.7964	0.9001	0.8704	-0.123
Mof_H 	H 	0.7931	0.8378	0.8753	0.084
Mof_C 	C 	0.7722	0.9429	0.8363	0.045
Mof_C 	C 	0.7798	0.034	0.8303	-0.121
Mof_H 	H 	0.7639	0.0666	0.8069	0.084
Mof_C 	C 	0.8101	0.0762	0.8582	0.065
Mof_H 	H 	0.8151	0.1378	0.8533	-0.004
Mof_N 	N 	0.83281	0.0338	0.8918	-0.286
Mof_C 	C 	0.6539	0.2853	0.8558	0.071
Mof_H 	H 	0.6794	0.2596	0.8605	-0.019
Mof_C 	C 	0.6308	0.2687	0.8863	-0.116
Mof_H 	H 	0.64	0.232	0.9114	0.082
Mof_C 	C 	0.5937	0.3075	0.8793	0.066
Mof_C 	C 	0.5811	0.3585	0.8423	-0.123
Mof_H 	H 	0.5558	0.3854	0.8366	0.085
Mof_C 	C 	0.6066	0.3699	0.8133	0.082
Mof_H 	H 	0.5978	0.4042	0.7873	-0.021
Mof_C 	C 	0.5681	0.2945	0.9115	0.105
Mof_C 	C 	0.5519	0.2158	0.9668	0.082
Mof_C 	C 	0.5189	0.341	0.9419	0.092
Mof_C 	C 	0.467	0.408	0.9773	-0.125
Mof_H 	H 	0.4753	0.3712	0.0026	0.078
Mof_C 	C 	0.4363	0.4656	0.975	0.076
Mof_H 	H 	0.4236	0.4683	0.9992	-0.012
Mof_C 	C 	0.4861	0.4041	0.9422	0.051
Mof_C 	C 	0.4741	0.4633	0.9074	-0.124
Mof_H 	H 	0.4875	0.4664	0.8837	0.084
Mof_C 	C 	0.442	0.5174	0.9081	0.08
Mof_H 	H 	0.4332	0.5562	0.8837	-0.019
Mof_C 	C 	0.5365	0.0385	0.048	0.073
Mof_H 	H 	0.518	0.0243	0.0655	-0.009
Mof_C 	C 	0.5304	0.115	0.0216	-0.124
Mof_H 	H 	0.5084	0.1527	0.0214	0.072
Mof_C 	C 	0.5569	0.1346	0.996	0.055
Mof_C 	C 	0.5886	0.0795	0.9975	-0.127
Mof_H 	H 	0.6076	0.0923	0.9803	0.08
Mof_C 	C 	0.5924	0.0046	0.0247	0.076
Mof_H 	H 	0.6142	0.9658	0.0254	-0.019
Mof_N 	N 	0.642	0.3357	0.8203	-0.287
Mof_N 	N 	0.5758	0.2234	0.9382	-0.136
Mof_N 	N 	0.5239	0.2749	0.97136	-0.15
Mof_N 	N 	0.53966	0.3543	0.9109	-0.136
Mof_N 	N 	0.423	0.5184	0.9404	-0.285
Mof_N 	N 	0.5672	0.9846	0.0497	-0.274
Mof_Zn	Zn	0.6739	0.3564	0.7706	0.599
Mof_I 	I 	0.62843	0.331	0.69659	-0.361
Mof_I 	I 	0.73688	0.2675	0.79705	0.001
Mof_Zn	Zn	0.8764	0.1036	0.9325	0.625
Mof_I 	I 	0.89236	0.24463	0.89331	-0.393
Mof_I 	I 	0.85472	0.0988	0.00566	0.037
Mof_Zn	Zn	0.5794	0.8792	0.09456	1.162
Mof_I 	I 	0.51987	0.85576	0.12803	-0.358
Mof_I 	I 	0.62107	0.7685	0.0636	-0.151
Mof_Zn	Zn	0.6804	0.3489	0.7801	0.596
Mof_I 	I 	0.6408	0.314	0.7034	-0.025
Mof_I 	I 	0.7477	0.2821	0.8108	-0.367
Mof_Zn	Zn	0.8721	0.0979	0.9428	0.601
Mof_I 	I 	0.88319	0.2497	0.90872	0.018
Mof_I 	I 	0.85183	0.0796	0.01635	-0.402
Mof_I 	I 	0.6144	0.7597	0.05707	-0.188
Mof_C 	C 	0.1621	0.0466	0.7524	0.079
Mof_H 	H 	0.1409	0.0213	0.7318	-0.018
Mof_C 	C 	0.1666	0.1391	0.7529	-0.127
Mof_H 	H 	0.1493	0.176	0.7326	0.088
Mof_C 	C 	0.1967	0.1767	0.7835	0.059
Mof_C 	C 	0.221	0.1191	0.8122	-0.124
Mof_H 	H 	0.242	0.1421	0.8339	0.078
Mof_C 	C 	0.214	0.027	0.8085	0.072
Mof_H 	H 	0.2305	0.9877	0.8283	-0.016
Mof_N 	N 	0.1855	0.992	0.7786	-0.28
Mof_C 	C 	0.2038	0.2756	0.7834	0.101
Mof_N 	N 	0.17897	0.321	0.7523	-0.134
Mof_C 	C 	0.1882	0.4072	0.7491	0.103
Mof_N 	N 	0.21854	0.4483	0.7737	-0.145
Mof_C 	C 	0.24	0.3984	0.8056	0.084
Mof_N 	N 	0.23371	0.3104	0.8117	-0.142
Mof_C 	C 	0.1055	0.4731	0.6573	0.074
Mof_H 	H 	0.0807	0.4497	0.6432	-0.006
Mof_C 	C 	0.1287	0.4235	0.6907	-0.119
Mof_H 	H 	0.1206	0.3657	0.6983	0.093
Mof_C 	C 	0.1631	0.459	0.7122	0.062
Mof_C 	C 	0.1745	0.5425	0.7	-0.127
Mof_H 	H 	0.1985	0.5687	0.7149	0.073
Mof_C 	C 	0.1507	0.5873	0.6658	0.071
Mof_H 	H 	0.1586	0.6447	0.6574	-0.015
Mof_N 	N 	0.117	0.5528	0.6442	-0.271
Mof_C 	C 	0.3256	0.4473	0.8973	0.075
Mof_H 	H 	0.3416	0.4164	0.9213	-0.008
Mof_C 	C 	0.2964	0.4001	0.8704	-0.122
Mof_H 	H 	0.2931	0.3378	0.8753	0.084
Mof_C 	C 	0.2722	0.4429	0.8363	0.045
Mof_C 	C 	0.2798	0.534	0.8303	-0.121
Mof_H 	H 	0.2639	0.5666	0.8069	0.084
Mof_C 	C 	0.3101	0.5762	0.8582	0.065
Mof_H 	H 	0.3151	0.6378	0.8533	-0.004
Mof_N 	N 	0.33281	0.5338	0.8918	-0.286
Mof_C 	C 	0.1539	0.7853	0.8558	0.071
Mof_H 	H 	0.1794	0.7596	0.8605	-0.019
Mof_C 	C 	0.1308	0.7687	0.8863	-0.116
Mof_H 	H 	0.14	0.732	0.9114	0.082
Mof_C 	C 	0.0937	0.8075	0.8793	0.066
Mof_C 	C 	0.0811	0.8585	0.8423	-0.123
Mof_H 	H 	0.0558	0.8854	0.8366	0.085
Mof_C 	C 	0.1066	0.8699	0.8133	0.082
Mof_H 	H 	0.0978	0.9042	0.7873	-0.021
Mof_C 	C 	0.0681	0.7945	0.9115	0.105
Mof_C 	C 	0.0519	0.7158	0.9668	0.082
Mof_C 	C 	0.0189	0.841	0.9419	0.092
Mof_C 	C 	0.967	0.908	0.9773	-0.124
Mof_H 	H 	0.9753	0.8712	0.0026	0.077
Mof_C 	C 	0.9363	0.9656	0.975	0.075
Mof_H 	H 	0.9236	0.9683	0.9992	-0.012
Mof_C 	C 	0.9861	0.9041	0.9422	0.05
Mof_C 	C 	0.9741	0.9633	0.9074	-0.123
Mof_H 	H 	0.9875	0.9664	0.8837	0.084
Mof_C 	C 	0.942	0.0174	0.9081	0.079
Mof_H 	H 	0.9332	0.0562	0.8837	-0.019
Mof_C 	C 	0.0365	0.5385	0.048	0.073
Mof_H 	H 	0.018	0.5243	0.0655	-0.009
Mof_C 	C 	0.0304	0.615	0.0216	-0.124
Mof_H 	H 	0.0084	0.6527	0.0214	0.072
Mof_C 	C 	0.0569	0.6346	0.996	0.055
Mof_C 	C 	0.0886	0.5795	0.9975	-0.126
Mof_H 	H 	0.1076	0.5923	0.9803	0.079
Mof_C 	C 	0.0924	0.5046	0.0247	0.075
Mof_H 	H 	0.1142	0.4658	0.0254	-0.018
Mof_N 	N 	0.142	0.8357	0.8203	-0.287
Mof_N 	N 	0.0758	0.7234	0.9382	-0.136
Mof_N 	N 	0.0239	0.7749	0.97136	-0.15
Mof_N 	N 	0.03966	0.8543	0.9109	-0.136
Mof_N 	N 	0.923	0.0184	0.9404	-0.285
Mof_N 	N 	0.0672	0.4846	0.0497	-0.274
Mof_Zn	Zn	0.1739	0.8564	0.7706	0.599
Mof_I 	I 	0.12843	0.831	0.69659	-0.361
Mof_I 	I 	0.23688	0.7675	0.79705	0.001
Mof_Zn	Zn	0.3764	0.6036	0.9325	0.625
Mof_I 	I 	0.39236	0.74463	0.89331	-0.393
Mof_I 	I 	0.35472	0.5988	0.00566	0.037
Mof_Zn	Zn	0.0794	0.3792	0.09456	1.162
Mof_I 	I 	0.01987	0.35576	0.12803	-0.358
Mof_I 	I 	0.12107	0.2685	0.0636	-0.151
Mof_Zn	Zn	0.1804	0.8489	0.7801	0.596
Mof_I 	I 	0.1408	0.814	0.7034	-0.025
Mof_I 	I 	0.2477	0.7821	0.8108	-0.367
Mof_Zn	Zn	0.3721	0.5979	0.9428	0.602
Mof_I 	I 	0.38319	0.7497	0.90872	0.018
Mof_I 	I 	0.35183	0.5796	0.01635	-0.402
Mof_I 	I 	0.1144	0.2597	0.05707	-0.188
Mof_C 	C 	0.6621	0.4534	0.2524	0.079
Mof_H 	H 	0.6409	0.4787	0.2318	-0.018
Mof_C 	C 	0.6666	0.3609	0.2529	-0.127
Mof_H 	H 	0.6493	0.324	0.2326	0.088
Mof_C 	C 	0.6967	0.3233	0.2835	0.059
Mof_C 	C 	0.721	0.3809	0.3122	-0.125
Mof_H 	H 	0.742	0.3579	0.3339	0.078
Mof_C 	C 	0.714	0.473	0.3085	0.073
Mof_H 	H 	0.7305	0.5123	0.3283	-0.016
Mof_N 	N 	0.6855	0.508	0.2786	-0.28
Mof_C 	C 	0.7038	0.2244	0.2834	0.101
Mof_N 	N 	0.67897	0.179	0.2523	-0.134
Mof_C 	C 	0.6882	0.0928	0.2491	0.103
Mof_N 	N 	0.71854	0.0517	0.2737	-0.145
Mof_C 	C 	0.74	0.1016	0.3056	0.084
Mof_N 	N 	0.73371	0.1896	0.3117	-0.142
Mof_C 	C 	0.6055	0.0269	0.1573	0.075
Mof_H 	H 	0.5807	0.0503	0.1432	-0.006
Mof_C 	C 	0.6287	0.0765	0.1907	-0.12
Mof_H 	H 	0.6206	0.1343	0.1983	0.093
Mof_C 	C 	0.6631	0.041	0.2122	0.063
Mof_C 	C 	0.6745	0.9575	0.2	-0.128
Mof_H 	H 	0.6985	0.9313	0.2149	0.073
Mof_C 	C 	0.6507	0.9127	0.1658	0.071
Mof_H 	H 	0.6586	0.8553	0.1574	-0.015
Mof_N 	N 	0.617	0.9472	0.1442	-0.271
Mof_C 	C 	0.8256	0.0527	0.3973	0.075
Mof_H 	H 	0.8416	0.0836	0.4213	-0.008
Mof_C 	C 	0.7964	0.0999	0.3704	-0.123
Mof_H 	H 	0.7931	0.1622	0.3753	0.084
Mof_C 	C 	0.7722	0.0571	0.3363	0.045
Mof_C 	C 	0.7798	0.966	0.3303	-0.121
Mof_H 	H 	0.7639	0.9334	0.3069	0.084
Mof_C 	C 	0.8101	0.9238	0.3582	0.065
Mof_H 	H 	0.8151	0.8622	0.3533	-0.004
Mof_N 	N 	0.83281	0.9662	0.3918	-0.286
Mof_C 	C 	0.6539	0.7147	0.3558	0.071
Mof_H 	H 	0.6794	0.7404	0.3605	-0.019
Mof_C 	C 	0.6308	0.7313	0.3863	-0.116
Mof_H 	H 	0.64	0.768	0.4114	0.082
Mof_C 	C 	0.5937	0.6925	0.3793	0.066
Mof_C 	C 	0.5811	0.6415	0.3423	-0.123
Mof_H 	H 	0.5558	0.6146	0.3366	0.085
Mof_C 	C 	0.6066	0.6301	0.3133	0.082
Mof_H 	H 	0.5978	0.5958	0.2873	-0.021
Mof_C 	C 	0.5681	0.7055	0.4115	0.105
Mof_C 	C 	0.5519	0.7842	0.4668	0.082
Mof_C 	C 	0.5189	0.659	0.4419	0.092
Mof_C 	C 	0.467	0.592	0.4773	-0.125
Mof_H 	H 	0.4753	0.6288	0.5026	0.078
Mof_C 	C 	0.4363	0.5344	0.475	0.075
Mof_H 	H 	0.4236	0.5317	0.4992	-0.012
Mof_C 	C 	0.4861	0.5959	0.4422	0.05
Mof_C 	C 	0.4741	0.5367	0.4074	-0.124
Mof_H 	H 	0.4875	0.5336	0.3837	0.084
Mof_C 	C 	0.442	0.4826	0.4081	0.08
Mof_H 	H 	0.4332	0.4438	0.3837	-0.019
Mof_C 	C 	0.5365	0.9615	0.548	0.073
Mof_H 	H 	0.518	0.9757	0.5655	-0.009
Mof_C 	C 	0.5304	0.885	0.5216	-0.124
Mof_H 	H 	0.5084	0.8473	0.5214	0.072
Mof_C 	C 	0.5569	0.8654	0.496	0.055
Mof_C 	C 	0.5886	0.9205	0.4975	-0.126
Mof_H 	H 	0.6076	0.9077	0.4803	0.079
Mof_C 	C 	0.5924	0.9954	0.5247	0.075
Mof_H 	H 	0.6142	0.0342	0.5254	-0.018
Mof_N 	N 	0.642	0.6643	0.3203	-0.287
Mof_N 	N 	0.5758	0.7766	0.4382	-0.136
Mof_N 	N 	0.5239	0.7251	0.47136	-0.15
Mof_N 	N 	0.53966	0.6457	0.4109	-0.136
Mof_N 	N 	0.423	0.4816	0.4404	-0.285
Mof_N 	N 	0.5672	0.0154	0.5497	-0.274
Mof_Zn	Zn	0.6739	0.6436	0.2706	0.599
Mof_I 	I 	0.62843	0.669	0.19659	-0.361
Mof_I 	I 	0.73688	0.7325	0.29705	0.001
Mof_Zn	Zn	0.8764	0.8964	0.4325	0.625
Mof_I 	I 	0.89236	0.75537	0.39331	-0.393
Mof_I 	I 	0.85472	0.9012	0.50566	0.037
Mof_Zn	Zn	0.5794	0.1208	0.59456	1.162
Mof_I 	I 	0.51987	0.14424	0.62803	-0.357
Mof_I 	I 	0.62107	0.2315	0.5636	-0.151
Mof_Zn	Zn	0.6804	0.6511	0.2801	0.596
Mof_I 	I 	0.6408	0.686	0.2034	-0.025
Mof_I 	I 	0.7477	0.7179	0.3108	-0.367
Mof_Zn	Zn	0.8721	0.9021	0.4428	0.602
Mof_I 	I 	0.88319	0.7503	0.40872	0.018
Mof_I 	I 	0.85183	0.9204	0.51635	-0.402
Mof_I 	I 	0.6144	0.2403	0.55707	-0.188
Mof_C 	C 	0.1621	0.9534	0.2524	0.079
Mof_H 	H 	0.1409	0.9787	0.2318	-0.018
Mof_C 	C 	0.1666	0.8609	0.2529	-0.127
Mof_H 	H 	0.1493	0.824	0.2326	0.088
Mof_C 	C 	0.1967	0.8233	0.2835	0.059
Mof_C 	C 	0.221	0.8809	0.3122	-0.124
Mof_H 	H 	0.242	0.8579	0.3339	0.078
Mof_C 	C 	0.214	0.973	0.3085	0.072
Mof_H 	H 	0.2305	0.0123	0.3283	-0.016
Mof_N 	N 	0.1855	0.008	0.2786	-0.28
Mof_C 	C 	0.2038	0.7244	0.2834	0.101
Mof_N 	N 	0.17897	0.679	0.2523	-0.134
Mof_C 	C 	0.1882	0.5928	0.2491	0.103
Mof_N 	N 	0.21854	0.5517	0.2737	-0.145
Mof_C 	C 	0.24	0.6016	0.3056	0.084
Mof_N 	N 	0.23371	0.6896	0.3117	-0.142
Mof_C 	C 	0.1055	0.5269	0.1573	0.074
Mof_H 	H 	0.0807	0.5503	0.1432	-0.006
Mof_C 	C 	0.1287	0.5765	0.1907	-0.119
Mof_H 	H 	0.1206	0.6343	0.1983	0.093
Mof_C 	C 	0.1631	0.541	0.2122	0.062
Mof_C 	C 	0.1745	0.4575	0.2	-0.127
Mof_H 	H 	0.1985	0.4313	0.2149	0.073
Mof_C 	C 	0.1507	0.4127	0.1658	0.071
Mof_H 	H 	0.1586	0.3553	0.1574	-0.015
Mof_N 	N 	0.117	0.4472	0.1442	-0.271
Mof_C 	C 	0.3256	0.5527	0.3973	0.075
Mof_H 	H 	0.3416	0.5836	0.4213	-0.008
Mof_C 	C 	0.2964	0.5999	0.3704	-0.122
Mof_H 	H 	0.2931	0.6622	0.3753	0.084
Mof_C 	C 	0.2722	0.5571	0.3363	0.045
Mof_C 	C 	0.2798	0.466	0.3303	-0.121
Mof_H 	H 	0.2639	0.4334	0.3069	0.084
Mof_C 	C 	0.3101	0.4238	0.3582	0.065
Mof_H 	H 	0.3151	0.3622	0.3533	-0.004
Mof_N 	N 	0.33281	0.4662	0.3918	-0.286
Mof_C 	C 	0.1539	0.2147	0.3558	0.071
Mof_H 	H 	0.1794	0.2404	0.3605	-0.019
Mof_C 	C 	0.1308	0.2313	0.3863	-0.116
Mof_H 	H 	0.14	0.268	0.4114	0.082
Mof_C 	C 	0.0937	0.1925	0.3793	0.066
Mof_C 	C 	0.0811	0.1415	0.3423	-0.123
Mof_H 	H 	0.0558	0.1146	0.3366	0.085
Mof_C 	C 	0.1066	0.1301	0.3133	0.082
Mof_H 	H 	0.0978	0.0958	0.2873	-0.021
Mof_C 	C 	0.0681	0.2055	0.4115	0.105
Mof_C 	C 	0.0519	0.2842	0.4668	0.082
Mof_C 	C 	0.0189	0.159	0.4419	0.092
Mof_C 	C 	0.967	0.092	0.4773	-0.125
Mof_H 	H 	0.9753	0.1288	0.5026	0.078
Mof_C 	C 	0.9363	0.0344	0.475	0.075
Mof_H 	H 	0.9236	0.0317	0.4992	-0.012
Mof_C 	C 	0.9861	0.0959	0.4422	0.05
Mof_C 	C 	0.9741	0.0367	0.4074	-0.124
Mof_H 	H 	0.9875	0.0336	0.3837	0.084
Mof_C 	C 	0.942	0.9826	0.4081	0.08
Mof_H 	H 	0.9332	0.9438	0.3837	-0.019
Mof_C 	C 	0.0365	0.4615	0.548	0.073
Mof_H 	H 	0.018	0.4757	0.5655	-0.009
Mof_C 	C 	0.0304	0.385	0.5216	-0.124
Mof_H 	H 	0.0084	0.3473	0.5214	0.072
Mof_C 	C 	0.0569	0.3654	0.496	0.055
Mof_C 	C 	0.0886	0.4205	0.4975	-0.126
Mof_H 	H 	0.1076	0.4077	0.4803	0.079
Mof_C 	C 	0.0924	0.4954	0.5247	0.075
Mof_H 	H 	0.1142	0.5342	0.5254	-0.018
Mof_N 	N 	0.142	0.1643	0.3203	-0.287
Mof_N 	N 	0.0758	0.2766	0.4382	-0.136
Mof_N 	N 	0.0239	0.2251	0.47136	-0.15
Mof_N 	N 	0.03966	0.1457	0.4109	-0.136
Mof_N 	N 	0.923	0.9816	0.4404	-0.285
Mof_N 	N 	0.0672	0.5154	0.5497	-0.274
Mof_Zn	Zn	0.1739	0.1436	0.2706	0.599
Mof_I 	I 	0.12843	0.169	0.19659	-0.361
Mof_I 	I 	0.23688	0.2325	0.29705	0.001
Mof_Zn	Zn	0.3764	0.3964	0.4325	0.625
Mof_I 	I 	0.39236	0.25537	0.39331	-0.393
Mof_I 	I 	0.35472	0.4012	0.50566	0.037
Mof_Zn	Zn	0.0794	0.6208	0.59456	1.162
Mof_I 	I 	0.01987	0.64424	0.62803	-0.357
Mof_I 	I 	0.12107	0.7315	0.5636	-0.151
Mof_Zn	Zn	0.1804	0.1511	0.2801	0.596
Mof_I 	I 	0.1408	0.186	0.2034	-0.025
Mof_I 	I 	0.2477	0.2179	0.3108	-0.367
Mof_Zn	Zn	0.3721	0.4021	0.4428	0.602
Mof_I 	I 	0.38319	0.2503	0.40872	0.018
Mof_I 	I 	0.35183	0.4204	0.51635	-0.402
Mof_I 	I 	0.1144	0.7403	0.55707	-0.188
_end
