data_functionalizedCrystal
_audit_creation_method	'EQeq! by Chris Wilmer'
_symmetry_space_group_name_H-M	'P1'
_symmetry_Int_Tables_number	1
_symmetry_cell_setting	triclinic
loop_
_symmetry_equiv_pos_as_xyz
  x,y,z
_cell_length_a	19.0518
_cell_length_b	19.0518
_cell_length_c	19.0518
_cell_angle_alpha	75.0369
_cell_angle_beta	75.0369
_cell_angle_gamma	75.0369
loop_
_atom_site_label
_atom_site_type_symbol
_atom_site_fract_x
_atom_site_fract_y
_atom_site_fract_z
_atom_site_charge
Mof_Al	Al	0.2354	0.6961	0.5319	3.908
Mof_Al	Al	0.3373	0.7803	0.4301	3.57
Mof_Al	Al	0.5319	0.2354	0.6961	3.907
Mof_Al	Al	0.4301	0.3373	0.7803	3.556
Mof_Al	Al	0.6961	0.5319	0.2354	3.896
Mof_Al	Al	0.7803	0.4301	0.3373	3.564
Mof_Al	Al	0.7646	0.3039	0.4681	3.897
Mof_Al	Al	0.6627	0.2197	0.5699	3.546
Mof_Al	Al	0.4681	0.7646	0.3039	3.889
Mof_Al	Al	0.5699	0.6627	0.2197	3.554
Mof_Al	Al	0.3039	0.4681	0.7646	3.915
Mof_Al	Al	0.2197	0.5699	0.6627	3.546
Mof_C 	C 	0.1337	0.6007	0.5547	0.759
Mof_C 	C 	0.0802	0.5741	0.5301	-0.21
Mof_C 	C 	0.0551	0.616	0.465	0.066
Mof_C 	C 	0.009	0.5894	0.4357	-0.075
Mof_C 	C 	0.9893	0.5217	0.47	0.005
Mof_C 	C 	0.0583	0.5067	0.566	0.052
Mof_C 	C 	0.995	0.961	0.52	-0.01
Mof_C 	C 	0.123	0.917	0.472	-0.229
Mof_C 	C 	0.1366	0.9826	0.4306	0.073
Mof_C 	C 	0.0532	0.9072	0.5192	0.056
Mof_C 	C 	0.0737	0.0477	0.4347	-0.117
Mof_C 	C 	0.187	0.85	0.472	0.818
Mof_C 	C 	0.3176	0.6486	0.4066	0.298
Mof_C 	C 	0.2172	0.7202	0.6742	0.233
Mof_C 	C 	0.293	0.5466	0.5218	0.158
Mof_C 	C 	0.3665	0.7055	0.5645	0.332
Mof_C 	C 	0.5547	0.1337	0.6007	0.759
Mof_C 	C 	0.5301	0.0802	0.5741	-0.21
Mof_C 	C 	0.465	0.0551	0.616	0.065
Mof_C 	C 	0.4357	0.009	0.5894	-0.073
Mof_C 	C 	0.47	0.9893	0.5217	0.001
Mof_C 	C 	0.566	0.0583	0.5067	0.051
Mof_C 	C 	0.52	0.995	0.961	-0.005
Mof_C 	C 	0.472	0.123	0.917	-0.225
Mof_C 	C 	0.4306	0.1366	0.9826	0.074
Mof_C 	C 	0.5192	0.0532	0.9072	0.054
Mof_C 	C 	0.4347	0.0737	0.0477	-0.068
Mof_C 	C 	0.472	0.187	0.85	0.817
Mof_C 	C 	0.4066	0.3176	0.6486	0.31
Mof_C 	C 	0.6742	0.2172	0.7202	0.234
Mof_C 	C 	0.5218	0.293	0.5466	0.16
Mof_C 	C 	0.5645	0.3665	0.7055	0.293
Mof_C 	C 	0.6007	0.5547	0.1337	0.759
Mof_C 	C 	0.5741	0.5301	0.0802	-0.21
Mof_C 	C 	0.616	0.465	0.0551	0.065
Mof_C 	C 	0.5894	0.4357	0.009	-0.073
Mof_C 	C 	0.5217	0.47	0.9893	0.002
Mof_C 	C 	0.5067	0.566	0.0583	0.051
Mof_C 	C 	0.961	0.52	0.995	-0.004
Mof_C 	C 	0.917	0.472	0.123	-0.226
Mof_C 	C 	0.9826	0.4306	0.1366	0.075
Mof_C 	C 	0.9072	0.5192	0.0532	0.054
Mof_C 	C 	0.0477	0.4347	0.0737	-0.069
Mof_C 	C 	0.85	0.472	0.187	0.817
Mof_C 	C 	0.6486	0.4066	0.3176	0.269
Mof_C 	C 	0.7202	0.6742	0.2172	0.233
Mof_C 	C 	0.5466	0.5218	0.293	0.159
Mof_C 	C 	0.7055	0.5645	0.3665	0.34
Mof_C 	C 	0.8663	0.3993	0.4453	0.751
Mof_C 	C 	0.9198	0.4259	0.4699	-0.206
Mof_C 	C 	0.9449	0.384	0.535	0.063
Mof_C 	C 	0.991	0.4106	0.5643	-0.069
Mof_C 	C 	0.0107	0.4783	0.53	-0.003
Mof_C 	C 	0.9417	0.4933	0.434	0.048
Mof_C 	C 	0.005	0.039	0.48	0.007
Mof_C 	C 	0.877	0.083	0.528	-0.222
Mof_C 	C 	0.8634	0.0174	0.5694	0.071
Mof_C 	C 	0.9468	0.0928	0.4808	0.044
Mof_C 	C 	0.9263	0.9523	0.5653	-0.065
Mof_C 	C 	0.813	0.15	0.528	0.814
Mof_C 	C 	0.6824	0.3514	0.5934	0.299
Mof_C 	C 	0.7828	0.2798	0.3258	0.218
Mof_C 	C 	0.707	0.4534	0.4782	0.231
Mof_C 	C 	0.6335	0.2945	0.4355	0.275
Mof_C 	C 	0.4453	0.8663	0.3993	0.751
Mof_C 	C 	0.4699	0.9198	0.4259	-0.208
Mof_C 	C 	0.535	0.9449	0.384	0.064
Mof_C 	C 	0.5643	0.991	0.4106	-0.072
Mof_C 	C 	0.53	0.0107	0.4783	0
Mof_C 	C 	0.434	0.9417	0.4933	0.051
Mof_C 	C 	0.48	0.005	0.039	-0.005
Mof_C 	C 	0.528	0.877	0.083	-0.225
Mof_C 	C 	0.5694	0.8634	0.0174	0.074
Mof_C 	C 	0.4808	0.9468	0.0928	0.052
Mof_C 	C 	0.5653	0.9263	0.9523	-0.068
Mof_C 	C 	0.528	0.813	0.15	0.816
Mof_C 	C 	0.5934	0.6824	0.3514	0.254
Mof_C 	C 	0.3258	0.7828	0.2798	0.215
Mof_C 	C 	0.4782	0.707	0.4534	0.209
Mof_C 	C 	0.4355	0.6335	0.2945	0.322
Mof_C 	C 	0.3993	0.4453	0.8663	0.751
Mof_C 	C 	0.4259	0.4699	0.9198	-0.208
Mof_C 	C 	0.384	0.535	0.9449	0.064
Mof_C 	C 	0.4106	0.5643	0.991	-0.072
Mof_C 	C 	0.4783	0.53	0.0107	-0
Mof_C 	C 	0.4933	0.434	0.9417	0.049
Mof_C 	C 	0.039	0.48	0.005	-0.005
Mof_C 	C 	0.083	0.528	0.877	-0.225
Mof_C 	C 	0.0174	0.5694	0.8634	0.073
Mof_C 	C 	0.0928	0.4808	0.9468	0.053
Mof_C 	C 	0.9523	0.5653	0.9263	-0.067
Mof_C 	C 	0.15	0.528	0.813	0.817
Mof_C 	C 	0.3514	0.5934	0.6824	0.265
Mof_C 	C 	0.2798	0.3258	0.7828	0.258
Mof_C 	C 	0.4534	0.4782	0.707	0.194
Mof_C 	C 	0.2945	0.4355	0.6335	0.311
Mof_O 	O 	0.1626	0.654	0.5163	-1.047
Mof_O 	O 	0.3083	0.7503	0.5353	-1.369
Mof_O 	O 	0.172	0.7885	0.5122	-1.038
Mof_O 	O 	0.2495	0.8549	0.4364	-0.996
Mof_O 	O 	0.2756	0.7136	0.4286	-1.377
Mof_O 	O 	0.1502	0.5574	0.6136	-0.966
Mof_O 	O 	0.2951	0.5945	0.5663	-1.215
Mof_O 	O 	0.1887	0.6817	0.6377	-1.242
Mof_O 	O 	0.5163	0.1626	0.654	-1.049
Mof_O 	O 	0.5353	0.3083	0.7503	-1.359
Mof_O 	O 	0.5122	0.172	0.7885	-1.038
Mof_O 	O 	0.4364	0.2495	0.8549	-0.993
Mof_O 	O 	0.4286	0.2756	0.7136	-1.375
Mof_O 	O 	0.6136	0.1502	0.5574	-0.968
Mof_O 	O 	0.5663	0.2951	0.5945	-1.204
Mof_O 	O 	0.6377	0.1887	0.6817	-1.242
Mof_O 	O 	0.654	0.5163	0.1626	-1.047
Mof_O 	O 	0.7503	0.5353	0.3083	-1.367
Mof_O 	O 	0.7885	0.5122	0.172	-1.036
Mof_O 	O 	0.8549	0.4364	0.2495	-0.995
Mof_O 	O 	0.7136	0.4286	0.2756	-1.369
Mof_O 	O 	0.5574	0.6136	0.1502	-0.97
Mof_O 	O 	0.5945	0.5663	0.2951	-1.205
Mof_O 	O 	0.6817	0.6377	0.1887	-1.241
Mof_O 	O 	0.8374	0.346	0.4837	-1.044
Mof_O 	O 	0.6917	0.2497	0.4647	-1.359
Mof_O 	O 	0.828	0.2115	0.4878	-1.037
Mof_O 	O 	0.7505	0.1451	0.5636	-0.992
Mof_O 	O 	0.7244	0.2864	0.5714	-1.368
Mof_O 	O 	0.8498	0.4426	0.3864	-0.968
Mof_O 	O 	0.7049	0.4055	0.4337	-1.219
Mof_O 	O 	0.8113	0.3183	0.3623	-1.243
Mof_O 	O 	0.4837	0.8374	0.346	-1.045
Mof_O 	O 	0.4647	0.6917	0.2497	-1.367
Mof_O 	O 	0.4878	0.828	0.2115	-1.036
Mof_O 	O 	0.5636	0.7505	0.1451	-0.993
Mof_O 	O 	0.5714	0.7244	0.2864	-1.361
Mof_O 	O 	0.3864	0.8498	0.4426	-0.969
Mof_O 	O 	0.4337	0.7049	0.4055	-1.219
Mof_O 	O 	0.3623	0.8113	0.3183	-1.241
Mof_O 	O 	0.346	0.4837	0.8374	-1.048
Mof_O 	O 	0.2497	0.4647	0.6917	-1.365
Mof_O 	O 	0.2115	0.4878	0.828	-1.039
Mof_O 	O 	0.1451	0.5636	0.7505	-0.992
Mof_O 	O 	0.2864	0.5714	0.7244	-1.367
Mof_O 	O 	0.4426	0.3864	0.8498	-0.969
Mof_O 	O 	0.4055	0.4337	0.7049	-1.216
Mof_O 	O 	0.3183	0.3623	0.8113	-1.247
Mof_H 	H 	0.07234	0.67119	0.43652	0.031
Mof_H 	H 	0.98787	0.62347	0.38382	0.044
Mof_H 	H 	0.07591	0.47481	0.62025	0.041
Mof_H 	H 	0.15637	0.9768	0.37018	0.018
Mof_H 	H 	0.18292	0.99727	0.44828	0.02
Mof_H 	H 	0.04745	0.85118	0.55744	0.035
Mof_H 	H 	0.06451	0.07318	0.37586	0.049
Mof_H 	H 	0.08953	0.09123	0.45563	0.05
Mof_H 	H 	0.31191	0.64969	0.34819	-0.034
Mof_H 	H 	0.29695	0.59884	0.44664	-0.13
Mof_H 	H 	0.25464	0.75597	0.63152	-0.048
Mof_H 	H 	0.25066	0.67868	0.71448	-0.028
Mof_H 	H 	0.32211	0.48782	0.54428	-0.033
Mof_H 	H 	0.3224	0.56622	0.46231	0.014
Mof_H 	H 	0.41604	0.69333	0.51767	-0.129
Mof_H 	H 	0.35016	0.65121	0.59827	-0.119
Mof_H 	H 	0.43652	0.07234	0.67119	0.031
Mof_H 	H 	0.38382	0.98787	0.62347	0.043
Mof_H 	H 	0.62025	0.07591	0.47481	0.041
Mof_H 	H 	0.39472	0.19407	0.98631	0.026
Mof_H 	H 	0.55744	0.04745	0.85118	0.035
Mof_H 	H 	0.40071	0.08167	0.10488	0.042
Mof_H 	H 	0.38176	0.28293	0.62455	-0.04
Mof_H 	H 	0.45677	0.33537	0.60665	-0.124
Mof_H 	H 	0.71512	0.24992	0.6787	-0.025
Mof_H 	H 	0.70545	0.16943	0.7578	-0.014
Mof_H 	H 	0.51706	0.23324	0.55239	-0.084
Mof_H 	H 	0.54823	0.31568	0.48682	-0.044
Mof_H 	H 	0.56376	0.36856	0.64535	-0.095
Mof_H 	H 	0.62413	0.35928	0.71141	-0.032
Mof_H 	H 	0.67119	0.43652	0.07234	0.031
Mof_H 	H 	0.62347	0.38382	0.98787	0.043
Mof_H 	H 	0.47481	0.62025	0.07591	0.041
Mof_H 	H 	0.98631	0.39472	0.19407	0.026
Mof_H 	H 	0.85118	0.55744	0.04745	0.035
Mof_H 	H 	0.10488	0.40071	0.08167	0.042
Mof_H 	H 	0.66228	0.34631	0.34779	-0.067
Mof_H 	H 	0.60927	0.41211	0.27952	-0.046
Mof_H 	H 	0.75776	0.70549	0.16943	-0.014
Mof_H 	H 	0.75533	0.6316	0.25529	-0.046
Mof_H 	H 	0.56508	0.46274	0.32407	-0.042
Mof_H 	H 	0.54852	0.52128	0.23283	-0.086
Mof_H 	H 	0.68113	0.51892	0.41028	-0.123
Mof_H 	H 	0.65861	0.60979	0.34625	-0.124
Mof_H 	H 	0.92766	0.32881	0.56348	0.032
Mof_H 	H 	0.01213	0.37653	0.61618	0.042
Mof_H 	H 	0.92409	0.52519	0.37975	0.042
Mof_H 	H 	0.80593	0.01369	0.60528	0.027
Mof_H 	H 	0.95255	0.14882	0.44256	0.036
Mof_H 	H 	0.91833	0.89512	0.59929	0.041
Mof_H 	H 	0.63879	0.33717	0.64546	-0.103
Mof_H 	H 	0.65375	0.38802	0.54702	-0.106
Mof_H 	H 	0.82224	0.23983	0.2907	-0.021
Mof_H 	H 	0.72027	0.28858	0.33133	-0.044
Mof_H 	H 	0.73753	0.49883	0.44269	-0.101
Mof_H 	H 	0.73724	0.42043	0.52466	-0.099
Mof_H 	H 	0.58466	0.26523	0.45296	-0.059
Mof_H 	H 	0.65054	0.30735	0.37236	-0.025
Mof_H 	H 	0.56348	0.92766	0.32881	0.032
Mof_H 	H 	0.61618	0.01213	0.37653	0.042
Mof_H 	H 	0.3797	0.92519	0.52676	0.04
Mof_H 	H 	0.60528	0.80593	0.01369	0.026
Mof_H 	H 	0.44318	0.95083	0.14945	0.036
Mof_H 	H 	0.59936	0.91814	0.89519	0.042
Mof_H 	H 	0.65559	0.67721	0.34499	-0.026
Mof_H 	H 	0.58059	0.62477	0.36289	-0.07
Mof_H 	H 	0.3592	0.7433	0.24152	-0.035
Mof_H 	H 	0.26283	0.79922	0.28689	-0.023
Mof_H 	H 	0.52861	0.73081	0.41943	-0.073
Mof_H 	H 	0.49744	0.64837	0.485	-0.022
Mof_H 	H 	0.47882	0.59378	0.32543	-0.126
Mof_H 	H 	0.41845	0.60306	0.25937	-0.045
Mof_H 	H 	0.32881	0.56348	0.92766	0.032
Mof_H 	H 	0.37653	0.61618	0.01213	0.042
Mof_H 	H 	0.52519	0.37975	0.92409	0.042
Mof_H 	H 	0.01369	0.60528	0.80593	0.026
Mof_H 	H 	0.14945	0.44318	0.95083	0.037
Mof_H 	H 	0.89512	0.59929	0.91833	0.042
Mof_H 	H 	0.3476	0.61094	0.62136	-0.041
Mof_H 	H 	0.40062	0.54514	0.68963	-0.11
Mof_H 	H 	0.29414	0.26348	0.8055	-0.024
Mof_H 	H 	0.29657	0.33738	0.71964	-0.061
Mof_H 	H 	0.48113	0.50166	0.64796	-0.021
Mof_H 	H 	0.4977	0.44312	0.7392	-0.07
Mof_H 	H 	0.27262	0.46448	0.58075	-0.089
Mof_H 	H 	0.29514	0.37361	0.64478	-0.035
Mof_H 	H 	0.37838	0.64397	0.40693	-0.077
Mof_H 	H 	0.16939	0.75713	0.70617	-0.014
Mof_H 	H 	0.23279	0.54705	0.52284	-0.076
Mof_H 	H 	0.38205	0.73442	0.60203	-0.039
Mof_H 	H 	0.36323	0.36894	0.66129	-0.112
Mof_H 	H 	0.6316	0.25534	0.75529	-0.045
Mof_H 	H 	0.46414	0.32838	0.56188	0.002
Mof_H 	H 	0.53007	0.42041	0.7222	-0.07
Mof_H 	H 	0.62095	0.44334	0.35994	-0.09
Mof_H 	H 	0.6787	0.71508	0.24997	-0.025
Mof_H 	H 	0.48748	0.54541	0.32041	-0.007
Mof_H 	H 	0.73924	0.58925	0.39173	-0.038
Mof_H 	H 	0.72022	0.3823	0.60576	-0.033
Mof_H 	H 	0.64792	0.47966	0.50322	-0.019
Mof_H 	H 	0.61655	0.34844	0.45672	-0.097
Mof_H 	H 	0.56206	0.71078	0.39962	-0.05
Mof_H 	H 	0.44452	0.74351	0.49449	-0.085
Mof_H 	H 	0.38477	0.65491	0.33622	-0.114
Mof_H 	H 	0.35928	0.64216	0.70177	-0.029
Mof_H 	H 	0.21751	0.34697	0.80018	-0.034
Mof_H 	H 	0.42009	0.52579	0.73554	-0.06
Mof_H 	H 	0.35326	0.44394	0.62623	-0.097
_end
