data_functionalizedCrystal
_audit_creation_method	'EQeq! by Chris Wilmer'
_symmetry_space_group_name_H-M	'P1'
_symmetry_Int_Tables_number	1
_symmetry_cell_setting	triclinic
loop_
_symmetry_equiv_pos_as_xyz
  x,y,z
_cell_length_a	14.4144
_cell_length_b	23.3964
_cell_length_c	15.5641
_cell_angle_alpha	90
_cell_angle_beta	107.632
_cell_angle_gamma	90
loop_
_atom_site_label
_atom_site_type_symbol
_atom_site_fract_x
_atom_site_fract_y
_atom_site_fract_z
_atom_site_charge
Mof_Cd	Cd	0.24684	0.44474	0.58252	0.511
Mof_Cd	Cd	0.27371	0.30844	0.69252	0.46
Mof_O 	O 	0.4129	0.4356	0.6001	-0.248
Mof_O 	O 	0.3375	0.3523	0.5912	-0.276
Mof_C 	C 	0.4161	0.3822	0.6047	0.317
Mof_C 	C 	0.5103	0.3524	0.6252	-0.138
Mof_C 	C 	0.6892	0.297	0.6726	0.171
Mof_C 	C 	0.604	0.2663	0.6361	-0.196
Mof_H 	H 	0.6066	0.2273	0.6256	0.107
Mof_C 	C 	0.5151	0.2939	0.6152	0.093
Mof_H 	H 	0.4579	0.2729	0.5941	0.014
Mof_C 	C 	0.5971	0.3834	0.6571	0.096
Mof_H 	H 	0.5952	0.423	0.662	0.022
Mof_C 	C 	0.6855	0.3554	0.6814	-0.196
Mof_H 	H 	0.7428	0.3761	0.7038	0.112
Mof_O 	O 	0.16	0.381	0.6323	-0.289
Mof_N 	N 	0.7823	0.2688	0.6984	-0.187
Mof_C 	C 	0.7345	0.2016	0.7967	-0.19
Mof_H 	H 	0.6932	0.229	0.8085	0.103
Mof_C 	C 	0.794	0.2155	0.7415	0.168
Mof_O 	O 	0.0451	0.4072	0.5093	-0.29
Mof_O 	O 	0.1868	0.223	0.7099	-0.271
Mof_O 	O 	0.1666	0.2585	0.5761	-0.261
Mof_C 	C 	0.9994	0.3479	0.6126	-0.1
Mof_C 	C 	0.0702	0.3806	0.5806	0.323
Mof_C 	C 	0.063	0.181	0.5891	-0.131
Mof_C 	C 	0.0207	0.3278	0.7006	0.036
Mof_H 	H 	0.0831	0.3323	0.7404	0.039
Mof_C 	C 	0.7383	0.1481	0.8322	0.09
Mof_H 	H 	0.6952	0.1382	0.8638	0.019
Mof_C 	C 	0.1441	0.2229	0.6287	0.312
Mof_N 	N 	0.8536	0.0558	0.4648	-0.183
Mof_C 	C 	0.8172	0.0175	0.5193	0.149
Mof_C 	C 	0.8403	0.0066	0.2001	-0.169
Mof_C 	C 	0.7679	0.0108	0.3215	-0.22
Mof_H 	H 	0.716	0.0029	0.3434	0.118
Mof_C 	C 	0.9496	0.3009	0.7293	-0.15
Mof_H 	H 	0.964	0.2877	0.7882	0.096
Mof_C 	C 	0.9187	0.0371	0.2537	0.114
Mof_H 	H 	0.9688	0.0473	0.2307	0.015
Mof_C 	C 	0.0569	0.1309	0.6329	0.053
Mof_H 	H 	0.1003	0.1241	0.6898	0.03
Mof_C 	C 	0.9863	0.0898	0.5933	-0.169
Mof_H 	H 	0.9835	0.0559	0.6235	0.102
Mof_C 	C 	0.7738	0.0398	0.5799	-0.17
Mof_H 	H 	0.7673	0.0791	0.5846	0.099
Mof_C 	C 	0.862	0.1763	0.7317	-0.192
Mof_H 	H 	0.9024	0.1852	0.697	0.112
Mof_C 	C 	0.827	0.959	0.5111	-0.168
Mof_H 	H 	0.8563	0.9443	0.4702	0.101
Mof_C 	C 	0.8495	0.0403	0.3749	0.183
Mof_C 	C 	0.921	0.0996	0.5097	0.155
Mof_C 	C 	0.9242	0.0528	0.3402	-0.22
Mof_H 	H 	0.979	0.0721	0.3756	0.117
Mof_C 	C 	0.8696	0.1234	0.7744	0.09
Mof_H 	H 	0.918	0.098	0.7711	0.021
Mof_C 	C 	0.8367	0.3127	0.5799	-0.171
Mof_H 	H 	0.7754	0.3067	0.5389	0.1
Mof_C 	C 	0.7479	0.9449	0.6281	-0.109
Mof_C 	C 	0.995	0.1914	0.5056	0.084
Mof_H 	H 	0.9981	0.2253	0.4755	0.022
Mof_C 	C 	0.8572	0.2938	0.6697	0.15
Mof_C 	C 	0.7652	0.9936	0.2359	0.122
Mof_H 	H 	0.712	0.9728	0.2013	0.014
Mof_C 	C 	0.7397	0.0025	0.6343	0.065
Mof_H 	H 	0.7108	0.0176	0.6753	0.03
Mof_C 	C 	0.7923	0.9226	0.5655	0.062
Mof_H 	H 	0.7984	0.8832	0.5606	0.032
Mof_C 	C 	0.9065	0.3395	0.554	0.076
Mof_H 	H 	0.8919	0.3526	0.495	0.026
Mof_C 	C 	0.9216	0.1514	0.4663	-0.183
Mof_H 	H 	0.8742	0.1595	0.4121	0.1
Mof_C 	C 	0.8053	0.108	0.8221	-0.137
Mof_C 	C 	0.8356	0.9903	0.1078	0.342
Mof_O 	O 	0.6753	0.9261	0.7428	-0.253
Mof_C 	C 	0.7169	0.906	0.6893	0.313
Mof_O 	O 	0.7755	0.952	0.0666	-0.266
Mof_O 	O 	0.894	0.0165	0.0731	-0.283
Mof_C 	C 	0.8068	0.0496	0.8605	0.335
Mof_O 	O 	0.7313	0.8525	0.6819	-0.27
Mof_O 	O 	0.8778	0.0167	0.8686	-0.286
Mof_O 	O 	0.7314	0.0351	0.8785	-0.278
Mof_Cd	Cd	0.75316	0.94474	0.91748	0.517
Mof_Cd	Cd	0.72629	0.80844	0.80748	0.461
Mof_O 	O 	0.5871	0.9356	0.8999	-0.247
Mof_O 	O 	0.6625	0.8523	0.9088	-0.275
Mof_C 	C 	0.5839	0.8822	0.8953	0.316
Mof_C 	C 	0.4897	0.8524	0.8748	-0.137
Mof_C 	C 	0.3108	0.797	0.8274	0.172
Mof_C 	C 	0.396	0.7663	0.8639	-0.197
Mof_H 	H 	0.3934	0.7273	0.8744	0.108
Mof_C 	C 	0.4849	0.7939	0.8848	0.093
Mof_H 	H 	0.5421	0.7729	0.9059	0.014
Mof_C 	C 	0.4029	0.8834	0.8429	0.096
Mof_H 	H 	0.4048	0.923	0.838	0.023
Mof_C 	C 	0.3145	0.8554	0.8186	-0.197
Mof_H 	H 	0.2572	0.8761	0.7962	0.112
Mof_O 	O 	0.84	0.881	0.8677	-0.299
Mof_N 	N 	0.2177	0.7688	0.8016	-0.197
Mof_C 	C 	0.2655	0.7016	0.7033	-0.193
Mof_H 	H 	0.3068	0.729	0.6915	0.104
Mof_C 	C 	0.206	0.7155	0.7585	0.17
Mof_O 	O 	0.9549	0.9072	0.9907	-0.289
Mof_O 	O 	0.8132	0.723	0.7901	-0.27
Mof_O 	O 	0.8334	0.7585	0.9239	-0.256
Mof_C 	C 	0.0006	0.8479	0.8874	-0.21
Mof_C 	C 	0.9298	0.8806	0.9194	0.377
Mof_C 	C 	0.937	0.681	0.9109	-0.134
Mof_C 	C 	0.9793	0.8278	0.7994	0.169
Mof_H 	H 	0.9169	0.8323	0.7596	-0.002
Mof_C 	C 	0.2617	0.6481	0.6678	0.093
Mof_H 	H 	0.3048	0.6382	0.6362	0.018
Mof_C 	C 	0.8559	0.7229	0.8713	0.317
Mof_N 	N 	0.1464	0.5558	0.0352	-0.192
Mof_C 	C 	0.1828	0.5175	0.9807	0.161
Mof_C 	C 	0.1597	0.5066	0.2999	-0.143
Mof_C 	C 	0.2321	0.5108	0.1785	-0.195
Mof_H 	H 	0.284	0.5029	0.1566	0.11
Mof_C 	C 	0.0504	0.8009	0.7707	-0.254
Mof_H 	H 	0.036	0.7877	0.7118	0.127
Mof_C 	C 	0.0813	0.5371	0.2463	0.093
Mof_H 	H 	0.0312	0.5473	0.2693	0.016
Mof_C 	C 	0.9431	0.6309	0.8671	0.103
Mof_H 	H 	0.8997	0.6241	0.8102	0.017
Mof_C 	C 	0.0137	0.5898	0.9067	-0.224
Mof_H 	H 	0.0165	0.5559	0.8765	0.115
Mof_C 	C 	0.2262	0.5398	0.9201	-0.181
Mof_H 	H 	0.2327	0.5791	0.9154	0.103
Mof_C 	C 	0.138	0.6763	0.7683	-0.196
Mof_H 	H 	0.0976	0.6852	0.803	0.109
Mof_C 	C 	0.173	0.459	0.9889	-0.173
Mof_H 	H 	0.1437	0.4443	0.0298	0.094
Mof_C 	C 	0.1505	0.5403	0.1251	0.169
Mof_C 	C 	0.079	0.5996	0.9903	0.187
Mof_C 	C 	0.0758	0.5528	0.1598	-0.206
Mof_H 	H 	0.021	0.5721	0.1244	0.106
Mof_C 	C 	0.1304	0.6234	0.7256	0.091
Mof_H 	H 	0.082	0.598	0.7289	0.016
Mof_C 	C 	0.1633	0.8127	0.9201	-0.247
Mof_H 	H 	0.2246	0.8067	0.9611	0.127
Mof_C 	C 	0.2521	0.4449	0.8719	-0.122
Mof_C 	C 	0.005	0.6914	0.9944	0.097
Mof_H 	H 	0.0019	0.7253	0.0245	0.006
Mof_C 	C 	0.1428	0.7938	0.8303	0.206
Mof_C 	C 	0.2348	0.4936	0.2641	0.089
Mof_H 	H 	0.288	0.4728	0.2987	0.024
Mof_C 	C 	0.2603	0.5025	0.8657	0.08
Mof_H 	H 	0.2892	0.5176	0.8247	0.026
Mof_C 	C 	0.2077	0.4226	0.9345	0.066
Mof_H 	H 	0.2016	0.3832	0.9394	0.029
Mof_C 	C 	0.0935	0.8395	0.946	0.171
Mof_H 	H 	0.1081	0.8526	0.005	-0.013
Mof_C 	C 	0.0784	0.6514	0.0337	-0.219
Mof_H 	H 	0.1258	0.6595	0.0879	0.11
Mof_C 	C 	0.1947	0.608	0.6779	-0.14
Mof_C 	C 	0.1644	0.4903	0.3922	0.324
Mof_O 	O 	0.3247	0.4261	0.7572	-0.255
Mof_C 	C 	0.2831	0.406	0.8107	0.317
Mof_O 	O 	0.2245	0.452	0.4334	-0.261
Mof_O 	O 	0.106	0.5165	0.4269	-0.281
Mof_C 	C 	0.1932	0.5496	0.6395	0.336
Mof_O 	O 	0.2687	0.3525	0.8181	-0.273
Mof_O 	O 	0.1222	0.5167	0.6314	-0.292
Mof_O 	O 	0.2686	0.5351	0.6215	-0.277
Mof_Cd	Cd	0.75316	0.55526	0.41748	0.511
Mof_Cd	Cd	0.72629	0.69156	0.30748	0.461
Mof_O 	O 	0.5871	0.5644	0.3999	-0.249
Mof_O 	O 	0.6625	0.6477	0.4088	-0.276
Mof_C 	C 	0.5839	0.6178	0.3953	0.316
Mof_C 	C 	0.4897	0.6476	0.3748	-0.139
Mof_C 	C 	0.3108	0.703	0.3274	0.172
Mof_C 	C 	0.396	0.7337	0.3639	-0.198
Mof_H 	H 	0.3934	0.7727	0.3744	0.108
Mof_C 	C 	0.4849	0.7061	0.3848	0.093
Mof_H 	H 	0.5421	0.7271	0.4059	0.013
Mof_C 	C 	0.4029	0.6166	0.3429	0.096
Mof_H 	H 	0.4048	0.577	0.338	0.021
Mof_C 	C 	0.3145	0.6446	0.3186	-0.198
Mof_H 	H 	0.2572	0.6239	0.2962	0.112
Mof_O 	O 	0.84	0.619	0.3677	-0.3
Mof_N 	N 	0.2177	0.7312	0.3016	-0.196
Mof_C 	C 	0.2655	0.7984	0.2033	-0.193
Mof_H 	H 	0.3068	0.771	0.1915	0.103
Mof_C 	C 	0.206	0.7845	0.2585	0.169
Mof_O 	O 	0.9549	0.5928	0.4907	-0.294
Mof_O 	O 	0.8132	0.777	0.2901	-0.268
Mof_O 	O 	0.8334	0.7415	0.4239	-0.256
Mof_C 	C 	0.0006	0.6521	0.3874	-0.208
Mof_C 	C 	0.9298	0.6194	0.4194	0.377
Mof_C 	C 	0.937	0.819	0.4109	-0.114
Mof_C 	C 	0.9793	0.6722	0.2994	0.17
Mof_H 	H 	0.9169	0.6677	0.2596	-0.002
Mof_C 	C 	0.2617	0.8519	0.1678	0.092
Mof_H 	H 	0.3048	0.8618	0.1362	0.017
Mof_C 	C 	0.8559	0.7771	0.3713	0.309
Mof_N 	N 	0.1464	0.9442	0.5352	-0.184
Mof_C 	C 	0.1828	0.9825	0.4807	0.181
Mof_C 	C 	0.1597	0.9934	0.7999	-0.099
Mof_C 	C 	0.2321	0.9892	0.6785	-0.157
Mof_H 	H 	0.284	0.9971	0.6566	0.1
Mof_C 	C 	0.0504	0.6991	0.2707	-0.253
Mof_H 	H 	0.036	0.7123	0.2118	0.127
Mof_C 	C 	0.0813	0.9629	0.7463	0.063
Mof_H 	H 	0.0312	0.9527	0.7693	0.028
Mof_C 	C 	0.9431	0.8691	0.3671	0.083
Mof_H 	H 	0.8997	0.8759	0.3102	0.024
Mof_C 	C 	0.0137	0.9102	0.4067	-0.202
Mof_H 	H 	0.0165	0.9441	0.3765	0.109
Mof_C 	C 	0.2262	0.9602	0.4201	-0.202
Mof_H 	H 	0.2327	0.9209	0.4154	0.11
Mof_C 	C 	0.138	0.8237	0.2683	-0.195
Mof_H 	H 	0.0976	0.8148	0.303	0.109
Mof_C 	C 	0.173	0.041	0.4889	-0.211
Mof_H 	H 	0.1437	0.0557	0.5298	0.109
Mof_C 	C 	0.1505	0.9597	0.6251	0.151
Mof_C 	C 	0.079	0.9004	0.4903	0.161
Mof_C 	C 	0.0758	0.9472	0.6598	-0.179
Mof_H 	H 	0.021	0.9279	0.6244	0.098
Mof_C 	C 	0.1304	0.8766	0.2256	0.09
Mof_H 	H 	0.082	0.902	0.2289	0.017
Mof_C 	C 	0.1633	0.6873	0.4201	-0.239
Mof_H 	H 	0.2246	0.6933	0.4611	0.123
Mof_C 	C 	0.2521	0.0551	0.3719	-0.148
Mof_C 	C 	0.005	0.8086	0.4944	0.056
Mof_H 	H 	0.0019	0.7747	0.5245	0.024
Mof_C 	C 	0.1428	0.7062	0.3303	0.203
Mof_C 	C 	0.2348	0.0064	0.7641	0.039
Mof_H 	H 	0.288	0.0272	0.7987	0.04
Mof_C 	C 	0.2603	0.9975	0.3657	0.109
Mof_H 	H 	0.2892	0.9824	0.3247	0.018
Mof_C 	C 	0.2077	0.0774	0.4345	0.091
Mof_H 	H 	0.2016	0.1168	0.4394	0.019
Mof_C 	C 	0.0935	0.6605	0.446	0.157
Mof_H 	H 	0.1081	0.6474	0.505	-0.004
Mof_C 	C 	0.0784	0.8486	0.5337	-0.179
Mof_H 	H 	0.1258	0.8405	0.5879	0.098
Mof_C 	C 	0.1947	0.892	0.1779	-0.138
Mof_C 	C 	0.1644	0.0097	0.8922	0.295
Mof_O 	O 	0.3247	0.0739	0.2572	-0.26
Mof_C 	C 	0.2831	0.094	0.3107	0.325
Mof_O 	O 	0.2245	0.048	0.9334	-0.252
Mof_O 	O 	0.106	0.9835	0.9269	-0.264
Mof_C 	C 	0.1932	0.9504	0.1395	0.335
Mof_O 	O 	0.2687	0.1475	0.3181	-0.276
Mof_O 	O 	0.1222	0.9833	0.1314	-0.286
Mof_O 	O 	0.2686	0.9649	0.1215	-0.273
Mof_Cd	Cd	0.24684	0.05526	0.08252	0.503
Mof_Cd	Cd	0.27371	0.19156	0.19252	0.458
Mof_O 	O 	0.4129	0.0644	0.1001	-0.252
Mof_O 	O 	0.3375	0.1477	0.0912	-0.278
Mof_C 	C 	0.4161	0.1178	0.1047	0.316
Mof_C 	C 	0.5103	0.1476	0.1252	-0.14
Mof_C 	C 	0.6892	0.203	0.1726	0.171
Mof_C 	C 	0.604	0.2337	0.1361	-0.197
Mof_H 	H 	0.6066	0.2727	0.1256	0.107
Mof_C 	C 	0.5151	0.2061	0.1152	0.093
Mof_H 	H 	0.4579	0.2271	0.0941	0.013
Mof_C 	C 	0.5971	0.1166	0.1571	0.096
Mof_H 	H 	0.5952	0.077	0.162	0.02
Mof_C 	C 	0.6855	0.1446	0.1814	-0.197
Mof_H 	H 	0.7428	0.1239	0.2038	0.111
Mof_O 	O 	0.16	0.119	0.1323	-0.288
Mof_N 	N 	0.7823	0.2312	0.1984	-0.186
Mof_C 	C 	0.7345	0.2984	0.2967	-0.19
Mof_H 	H 	0.6932	0.271	0.3085	0.103
Mof_C 	C 	0.794	0.2845	0.2415	0.167
Mof_O 	O 	0.0451	0.0928	0.0093	-0.291
Mof_O 	O 	0.1868	0.277	0.2099	-0.269
Mof_O 	O 	0.1666	0.2415	0.0761	-0.261
Mof_C 	C 	0.9994	0.1521	0.1126	-0.086
Mof_C 	C 	0.0702	0.1194	0.0806	0.317
Mof_C 	C 	0.063	0.319	0.0891	-0.115
Mof_C 	C 	0.0207	0.1722	0.2006	0.024
Mof_H 	H 	0.0831	0.1677	0.2404	0.043
Mof_C 	C 	0.7383	0.3519	0.3322	0.09
Mof_H 	H 	0.6952	0.3618	0.3638	0.019
Mof_C 	C 	0.1441	0.2771	0.1287	0.305
Mof_N 	N 	0.8536	0.4442	0.9648	-0.177
Mof_C 	C 	0.8172	0.4825	0.0193	0.163
Mof_C 	C 	0.8403	0.4934	0.7001	-0.14
Mof_C 	C 	0.7679	0.4892	0.8215	-0.194
Mof_H 	H 	0.716	0.4971	0.8434	0.111
Mof_C 	C 	0.9496	0.1991	0.2293	-0.139
Mof_H 	H 	0.964	0.2123	0.2882	0.093
Mof_C 	C 	0.9187	0.4629	0.7537	0.093
Mof_H 	H 	0.9688	0.4527	0.7307	0.022
Mof_C 	C 	0.0569	0.3691	0.1329	0.038
Mof_H 	H 	0.1003	0.3759	0.1898	0.035
Mof_C 	C 	0.9863	0.4102	0.0933	-0.152
Mof_H 	H 	0.9835	0.4441	0.1235	0.097
Mof_C 	C 	0.7738	0.4602	0.0799	-0.185
Mof_H 	H 	0.7673	0.4209	0.0846	0.103
Mof_C 	C 	0.862	0.3237	0.2317	-0.192
Mof_H 	H 	0.9024	0.3148	0.197	0.111
Mof_C 	C 	0.827	0.541	0.0111	-0.197
Mof_H 	H 	0.8563	0.5557	0.9702	0.113
Mof_C 	C 	0.8495	0.4597	0.8749	0.171
Mof_C 	C 	0.921	0.4004	0.0097	0.134
Mof_C 	C 	0.9242	0.4472	0.8402	-0.203
Mof_H 	H 	0.979	0.4279	0.8756	0.112
Mof_C 	C 	0.8696	0.3766	0.2744	0.089
Mof_H 	H 	0.918	0.402	0.2711	0.021
Mof_C 	C 	0.8367	0.1873	0.0799	-0.157
Mof_H 	H 	0.7754	0.1933	0.0389	0.093
Mof_C 	C 	0.7479	0.5551	0.1281	-0.128
Mof_C 	C 	0.995	0.3086	0.0056	0.05
Mof_H 	H 	0.9981	0.2747	0.9755	0.036
Mof_C 	C 	0.8572	0.2062	0.1697	0.141
Mof_C 	C 	0.7652	0.5064	0.7359	0.089
Mof_H 	H 	0.712	0.5272	0.7013	0.025
Mof_C 	C 	0.7397	0.4975	0.1343	0.086
Mof_H 	H 	0.7108	0.4824	0.1753	0.024
Mof_C 	C 	0.7923	0.5774	0.0655	0.081
Mof_H 	H 	0.7984	0.6168	0.0606	0.024
Mof_C 	C 	0.9065	0.1605	0.054	0.055
Mof_H 	H 	0.8919	0.1474	0.995	0.037
Mof_C 	C 	0.9216	0.3486	0.9663	-0.151
Mof_H 	H 	0.8742	0.3405	0.9121	0.09
Mof_C 	C 	0.8053	0.392	0.3221	-0.137
Mof_C 	C 	0.8356	0.5097	0.6078	0.324
Mof_O 	O 	0.6753	0.5739	0.2428	-0.257
Mof_C 	C 	0.7169	0.594	0.1893	0.32
Mof_O 	O 	0.7755	0.548	0.5666	-0.26
Mof_O 	O 	0.894	0.4835	0.5731	-0.275
Mof_C 	C 	0.8068	0.4504	0.3605	0.334
Mof_O 	O 	0.7313	0.6475	0.1819	-0.272
Mof_O 	O 	0.8778	0.4833	0.3686	-0.286
Mof_O 	O 	0.7314	0.4649	0.3785	-0.276
Mof_Cd	Cd	2.27268e-17	0.5	0.5	0.511
Mof_Cd	Cd	-0	0	-0	0.497
_end
