data_functionalizedCrystal
_audit_creation_method	'EQeq! by Chris Wilmer'
_symmetry_space_group_name_H-M	'P1'
_symmetry_Int_Tables_number	1
_symmetry_cell_setting	triclinic
loop_
_symmetry_equiv_pos_as_xyz
  x,y,z
_cell_length_a	9.8905
_cell_length_b	16.8809
_cell_length_c	7.2031
_cell_angle_alpha	90
_cell_angle_beta	70.7143
_cell_angle_gamma	90
loop_
_atom_site_label
_atom_site_type_symbol
_atom_site_fract_x
_atom_site_fract_y
_atom_site_fract_z
_atom_site_charge
Mof_C 	C 	0.83987	0.76513	0.81967	0.091
Mof_C 	C 	0.7353	0.71677	0.95103	-0.133
Mof_C 	C 	0.61125	0.75388	0.08209	0.105
Mof_C 	C 	0.60072	0.83778	0.09181	-0.128
Mof_C 	C 	0.71526	0.88287	0.97879	0.111
Mof_C 	C 	0.82991	0.84854	0.83229	-0.11
Mof_C 	C 	0.93762	0.89754	0.69235	0.267
Mof_C 	C 	0.47403	0.87717	0.23077	0.293
Mof_C 	C 	0.74533	0.62811	0.94078	0.308
Mof_O 	O 	0.0665	0.8748	0.6907	-0.316
Mof_O 	O 	0.8969	0.978	0.6941	-0.331
Mof_O 	O 	0.8478	0.5817	0.8445	-0.306
Mof_O 	O 	0.652	0.584	0.0667	-0.294
Mof_O 	O 	0.387	0.842	0.3797	-0.295
Mof_O 	O 	0.4576	0.9536	0.2111	-0.281
Mof_Bi	Bi	0.22158	0.95928	0.47356	1.018
Mof_C 	C 	0.16013	0.26513	0.68033	0.091
Mof_C 	C 	0.2647	0.21677	0.54897	-0.132
Mof_C 	C 	0.38875	0.25388	0.41791	0.105
Mof_C 	C 	0.39928	0.33778	0.40819	-0.126
Mof_C 	C 	0.28474	0.38287	0.52121	0.109
Mof_C 	C 	0.17009	0.34854	0.66771	-0.109
Mof_C 	C 	0.06238	0.39754	0.80765	0.263
Mof_C 	C 	0.52597	0.37717	0.26923	0.292
Mof_C 	C 	0.25467	0.12811	0.55922	0.307
Mof_O 	O 	0.9335	0.3748	0.8093	-0.312
Mof_O 	O 	0.1031	0.478	0.8059	-0.332
Mof_O 	O 	0.1522	0.0817	0.6555	-0.306
Mof_O 	O 	0.348	0.084	0.4333	-0.294
Mof_O 	O 	0.613	0.342	0.1203	-0.295
Mof_O 	O 	0.5424	0.4536	0.2889	-0.281
Mof_Bi	Bi	0.77842	0.45928	0.02644	1.019
Mof_C 	C 	0.16013	0.23487	0.18033	0.092
Mof_C 	C 	0.2647	0.28323	0.04897	-0.132
Mof_C 	C 	0.38875	0.24612	0.91791	0.106
Mof_C 	C 	0.39928	0.16222	0.90819	-0.127
Mof_C 	C 	0.28474	0.11713	0.02121	0.111
Mof_C 	C 	0.17009	0.15146	0.16771	-0.11
Mof_C 	C 	0.06238	0.10246	0.30765	0.267
Mof_C 	C 	0.52597	0.12283	0.76923	0.293
Mof_C 	C 	0.25467	0.37189	0.05922	0.308
Mof_O 	O 	0.9335	0.1252	0.3093	-0.316
Mof_O 	O 	0.1031	0.022	0.3059	-0.331
Mof_O 	O 	0.1522	0.4183	0.1555	-0.306
Mof_O 	O 	0.348	0.416	0.9333	-0.294
Mof_O 	O 	0.613	0.158	0.6203	-0.295
Mof_O 	O 	0.5424	0.0464	0.7889	-0.281
Mof_Bi	Bi	0.77842	0.04072	0.52644	1.018
Mof_C 	C 	0.83987	0.73487	0.31967	0.091
Mof_C 	C 	0.7353	0.78323	0.45103	-0.132
Mof_C 	C 	0.61125	0.74612	0.58209	0.105
Mof_C 	C 	0.60072	0.66222	0.59181	-0.126
Mof_C 	C 	0.71526	0.61713	0.47879	0.109
Mof_C 	C 	0.82991	0.65146	0.33229	-0.109
Mof_C 	C 	0.93762	0.60246	0.19235	0.263
Mof_C 	C 	0.47403	0.62283	0.73077	0.292
Mof_C 	C 	0.74533	0.87189	0.44078	0.307
Mof_O 	O 	0.0665	0.6252	0.1907	-0.312
Mof_O 	O 	0.8969	0.522	0.1941	-0.332
Mof_O 	O 	0.8478	0.9183	0.3445	-0.306
Mof_O 	O 	0.652	0.916	0.5667	-0.294
Mof_O 	O 	0.387	0.658	0.8797	-0.295
Mof_O 	O 	0.4576	0.5464	0.7111	-0.281
Mof_Bi	Bi	0.22158	0.54072	0.97356	1.019
_end
