data_functionalizedCrystal
_audit_creation_method	'EQeq! by Chris Wilmer'
_symmetry_space_group_name_H-M	'P1'
_symmetry_Int_Tables_number	1
_symmetry_cell_setting	triclinic
loop_
_symmetry_equiv_pos_as_xyz
  x,y,z
_cell_length_a	8.0352
_cell_length_b	10.1895
_cell_length_c	16.0266
_cell_angle_alpha	93.349
_cell_angle_beta	94.504
_cell_angle_gamma	92.452
loop_
_atom_site_label
_atom_site_type_symbol
_atom_site_fract_x
_atom_site_fract_y
_atom_site_fract_z
_atom_site_charge
Mof_Mn	Mn	0.38842	0.55471	0.13608	1.017
Mof_Mn	Mn	0.256	0.06321	0.28629	1.003
Mof_Mn	Mn	0.55567	0.24448	0.42358	1.004
Mof_P 	P 	0.74158	0.41041	0.0641	0.643
Mof_P 	P 	0.86969	0.16069	0.30598	0.582
Mof_O 	O 	0.6086	0.4877	0.09627	-0.374
Mof_O 	O 	0.7331	0.3806	0.97172	-0.361
Mof_O 	O 	0.9061	0.4937	0.0965	-0.432
Mof_H 	H 	0.9864	0.4611	0.076	0.289
Mof_O 	O 	0.7582	0.2767	0.1036	-0.458
Mof_H 	H 	0.8107	0.2877	0.1496	0.331
Mof_O 	O 	0.7648	0.1711	0.37964	-0.363
Mof_O 	O 	0.0448	0.1291	0.33444	-0.34
Mof_O 	O 	0.8624	0.2812	0.25503	-0.257
Mof_O 	O 	0.7989	0.039	0.24428	-0.415
Mof_H 	H 	0.6971	0.0314	0.2451	0.293
Mof_O 	O 	0.5131	0.7487	0.1815	-0.276
Mof_O 	O 	0.4594	0.9513	0.23096	-0.309
Mof_O 	O 	0.2039	0.6643	0.20875	-0.266
Mof_O 	O 	0.1501	0.866	0.25732	-0.279
Mof_O 	O 	0.2326	0.3666	0.11926	-0.294
Mof_O 	O 	0.2134	0.1672	0.16862	-0.276
Mof_O 	O 	0.4265	0.4526	0.25792	-0.309
Mof_O 	O 	0.4051	0.252	0.30612	-0.419
Mof_O 	O 	0.3664	0.3596	0.49034	-0.279
Mof_O 	O 	0.3248	0.5612	0.54315	-0.288
Mof_O 	O 	0.6035	0.1454	0.54306	-0.307
Mof_O 	O 	0.5991	0.9435	0.5906	-0.398
Mof_C 	C 	0.4218	0.8316	0.2112	0.252
Mof_C 	C 	0.2425	0.7829	0.22707	0.246
Mof_C 	C 	0.2639	0.2857	0.1729	0.233
Mof_C 	C 	0.3767	0.3363	0.2525	0.288
Mof_C 	C 	0.4108	0.4771	0.50997	0.246
Mof_C 	C 	0.5592	0.0275	0.53855	0.272
Mof_Mn	Mn	0.61158	0.44529	0.86392	1.018
Mof_Mn	Mn	0.744	0.93679	0.71371	1.004
Mof_Mn	Mn	0.44433	0.75552	0.57642	1.004
Mof_P 	P 	0.25842	0.58959	0.9359	0.643
Mof_P 	P 	0.13031	0.83931	0.69402	0.582
Mof_O 	O 	0.3914	0.5123	0.90373	-0.374
Mof_O 	O 	0.2669	0.6194	0.02828	-0.361
Mof_O 	O 	0.0939	0.5063	0.9035	-0.432
Mof_H 	H 	0.0136	0.5389	0.924	0.289
Mof_O 	O 	0.2418	0.7233	0.8964	-0.458
Mof_H 	H 	0.1893	0.7123	0.8504	0.331
Mof_O 	O 	0.2352	0.8289	0.62036	-0.363
Mof_O 	O 	0.9552	0.8709	0.66556	-0.34
Mof_O 	O 	0.1376	0.7188	0.74497	-0.257
Mof_O 	O 	0.2011	0.961	0.75572	-0.415
Mof_H 	H 	0.3029	0.9686	0.7549	0.293
Mof_O 	O 	0.4869	0.2513	0.8185	-0.276
Mof_O 	O 	0.5406	0.0487	0.76904	-0.309
Mof_O 	O 	0.7961	0.3357	0.79125	-0.266
Mof_O 	O 	0.8499	0.134	0.74268	-0.279
Mof_O 	O 	0.7674	0.6334	0.88074	-0.294
Mof_O 	O 	0.7866	0.8328	0.83138	-0.276
Mof_O 	O 	0.5735	0.5474	0.74208	-0.309
Mof_O 	O 	0.5949	0.748	0.69388	-0.419
Mof_O 	O 	0.6336	0.6404	0.50966	-0.279
Mof_O 	O 	0.6752	0.4388	0.45685	-0.288
Mof_O 	O 	0.3965	0.8546	0.45694	-0.307
Mof_O 	O 	0.4009	0.0565	0.4094	-0.398
Mof_C 	C 	0.5782	0.1684	0.7888	0.252
Mof_C 	C 	0.7575	0.2171	0.77293	0.246
Mof_C 	C 	0.7361	0.7143	0.8271	0.233
Mof_C 	C 	0.6233	0.6637	0.7475	0.288
Mof_C 	C 	0.5892	0.5229	0.49003	0.246
Mof_C 	C 	0.4408	0.9725	0.46145	0.272
_end
