data_functionalizedCrystal
_audit_creation_method	'EQeq! by Chris Wilmer'
_symmetry_space_group_name_H-M	'P1'
_symmetry_Int_Tables_number	1
_symmetry_cell_setting	triclinic
loop_
_symmetry_equiv_pos_as_xyz
  x,y,z
_cell_length_a	9.7682
_cell_length_b	9.7682
_cell_length_c	20.1
_cell_angle_alpha	90
_cell_angle_beta	90
_cell_angle_gamma	120
loop_
_atom_site_label
_atom_site_type_symbol
_atom_site_fract_x
_atom_site_fract_y
_atom_site_fract_z
_atom_site_charge
Mof_Zn	Zn	0.95877	0.51032	0.41565	1.179
Mof_N 	N 	0.3613	0.8492	0.5117	-0.28
Mof_N 	N 	0.4264	0.8258	0.4537	-0.152
Mof_N 	N 	0.1615	0.6893	0.4476	-0.321
Mof_N 	N 	0.0989	0.7617	0.5512	-0.28
Mof_H 	H 	0.0009	0.6672	0.5574	0.092
Mof_H 	H 	0.1314	0.8062	0.5921	0.104
Mof_N 	N 	0.2402	0.4177	0.2929	-0.326
Mof_N 	N 	0.0579	0.4273	0.3548	-0.276
Mof_N 	N 	0.986	0.2757	0.3269	-0.138
Mof_N 	N 	0.0824	0.1511	0.2534	-0.257
Mof_H 	H 	0.9955	0.1045	0.2236	0.093
Mof_H 	H 	0.1654	0.1645	0.2284	0.086
Mof_C 	C 	0.2044	0.7657	0.506	0.166
Mof_C 	C 	0.3035	0.7296	0.4178	0.167
Mof_C 	C 	0.3203	0.6751	0.3501	-0.367
Mof_H 	H 	0.3092	0.7429	0.3165	0.104
Mof_H 	H 	0.4286	0.6918	0.346	0.093
Mof_C 	C 	0.2058	0.5068	0.3338	0.154
Mof_C 	C 	0.0999	0.2788	0.29	0.164
Mof_Zn	Zn	0.48968	0.44845	0.74898	1.178
Mof_N 	N 	0.1508	0.5121	0.84503	-0.281
Mof_N 	N 	0.1742	0.6006	0.78703	-0.153
Mof_N 	N 	0.3107	0.4722	0.78093	-0.322
Mof_N 	N 	0.2383	0.3372	0.88453	-0.281
Mof_H 	H 	0.3328	0.3337	0.89073	0.091
Mof_H 	H 	0.1938	0.3252	0.92543	0.104
Mof_N 	N 	0.5823	0.8225	0.62623	-0.326
Mof_N 	N 	0.5727	0.6306	0.68813	-0.277
Mof_N 	N 	0.7243	0.7103	0.66023	-0.137
Mof_N 	N 	0.8489	0.9313	0.58673	-0.259
Mof_H 	H 	0.8955	0.891	0.55693	0.095
Mof_H 	H 	0.8355	0.0009	0.56173	0.088
Mof_C 	C 	0.2343	0.4387	0.83933	0.166
Mof_C 	C 	0.2704	0.5739	0.75113	0.167
Mof_C 	C 	0.3249	0.6452	0.68343	-0.367
Mof_H 	H 	0.2571	0.5663	0.64983	0.103
Mof_H 	H 	0.3082	0.7368	0.67933	0.093
Mof_C 	C 	0.4932	0.699	0.66713	0.153
Mof_C 	C 	0.7212	0.8211	0.62333	0.163
Mof_Zn	Zn	0.55155	0.04123	0.08232	1.177
Mof_N 	N 	0.4879	0.6387	0.17837	-0.281
Mof_N 	N 	0.3994	0.5736	0.12037	-0.153
Mof_N 	N 	0.5278	0.8385	0.11427	-0.322
Mof_N 	N 	0.6628	0.9011	0.21787	-0.281
Mof_H 	H 	0.6663	0.9991	0.22407	0.092
Mof_H 	H 	0.6748	0.8686	0.25877	0.104
Mof_N 	N 	0.1775	0.7598	0.95957	-0.327
Mof_N 	N 	0.3694	0.9421	0.02147	-0.276
Mof_N 	N 	0.2897	0.014	0.99357	-0.136
Mof_N 	N 	0.0687	0.9176	0.92007	-0.261
Mof_H 	H 	0.109	0.0045	0.89027	0.096
Mof_H 	H 	0.9991	0.8346	0.89507	0.089
Mof_C 	C 	0.5613	0.7956	0.17267	0.166
Mof_C 	C 	0.4261	0.6965	0.08447	0.167
Mof_C 	C 	0.3548	0.6797	0.01677	-0.365
Mof_H 	H 	0.4337	0.6908	0.98317	0.102
Mof_H 	H 	0.2632	0.5714	0.01267	0.093
Mof_C 	C 	0.301	0.7942	0.00047	0.155
Mof_C 	C 	0.1789	0.9001	0.95667	0.161
Mof_Zn	Zn	0.51032	0.95877	0.58435	1.178
Mof_N 	N 	0.8492	0.3613	0.4883	-0.281
Mof_N 	N 	0.8258	0.4264	0.5463	-0.153
Mof_N 	N 	0.6893	0.1615	0.5524	-0.322
Mof_N 	N 	0.7617	0.0989	0.4488	-0.281
Mof_H 	H 	0.6672	0.0009	0.4426	0.091
Mof_H 	H 	0.8062	0.1314	0.4079	0.104
Mof_N 	N 	0.4177	0.2402	0.7071	-0.326
Mof_N 	N 	0.4273	0.0579	0.6452	-0.276
Mof_N 	N 	0.2757	0.986	0.6731	-0.138
Mof_N 	N 	0.1511	0.0824	0.7466	-0.257
Mof_H 	H 	0.1045	0.9955	0.7764	0.093
Mof_H 	H 	0.1645	0.1654	0.7716	0.086
Mof_C 	C 	0.7657	0.2044	0.494	0.166
Mof_C 	C 	0.7296	0.3035	0.5822	0.167
Mof_C 	C 	0.6751	0.3203	0.6499	-0.367
Mof_H 	H 	0.7429	0.3092	0.6835	0.104
Mof_H 	H 	0.6918	0.4286	0.654	0.093
Mof_C 	C 	0.5068	0.2058	0.6662	0.154
Mof_C 	C 	0.2788	0.0999	0.71	0.164
Mof_Zn	Zn	0.44845	0.48968	0.25102	1.178
Mof_N 	N 	0.5121	0.1508	0.15497	-0.281
Mof_N 	N 	0.6006	0.1742	0.21297	-0.153
Mof_N 	N 	0.4722	0.3107	0.21907	-0.322
Mof_N 	N 	0.3372	0.2383	0.11547	-0.281
Mof_H 	H 	0.3337	0.3328	0.10927	0.091
Mof_H 	H 	0.3252	0.1938	0.07457	0.104
Mof_N 	N 	0.8225	0.5823	0.37377	-0.326
Mof_N 	N 	0.6306	0.5727	0.31187	-0.277
Mof_N 	N 	0.7103	0.7243	0.33977	-0.137
Mof_N 	N 	0.9313	0.8489	0.41327	-0.259
Mof_H 	H 	0.891	0.8955	0.44307	0.095
Mof_H 	H 	0.0009	0.8355	0.43827	0.088
Mof_C 	C 	0.4387	0.2343	0.16067	0.166
Mof_C 	C 	0.5739	0.2704	0.24887	0.167
Mof_C 	C 	0.6452	0.3249	0.31657	-0.367
Mof_H 	H 	0.5663	0.2571	0.35017	0.103
Mof_H 	H 	0.7368	0.3082	0.32067	0.093
Mof_C 	C 	0.699	0.4932	0.33287	0.153
Mof_C 	C 	0.8211	0.7212	0.37667	0.163
Mof_Zn	Zn	0.04123	0.55155	0.91768	1.177
Mof_N 	N 	0.6387	0.4879	0.82163	-0.281
Mof_N 	N 	0.5736	0.3994	0.87963	-0.153
Mof_N 	N 	0.8385	0.5278	0.88573	-0.322
Mof_N 	N 	0.9011	0.6628	0.78213	-0.281
Mof_H 	H 	0.9991	0.6663	0.77593	0.092
Mof_H 	H 	0.8686	0.6748	0.74123	0.104
Mof_N 	N 	0.7598	0.1775	0.04043	-0.327
Mof_N 	N 	0.9421	0.3694	0.97853	-0.276
Mof_N 	N 	0.014	0.2897	0.00643	-0.136
Mof_N 	N 	0.9176	0.0687	0.07993	-0.261
Mof_H 	H 	0.0045	0.109	0.10973	0.096
Mof_H 	H 	0.8346	0.9991	0.10493	0.089
Mof_C 	C 	0.7956	0.5613	0.82733	0.166
Mof_C 	C 	0.6965	0.4261	0.91553	0.167
Mof_C 	C 	0.6797	0.3548	0.98323	-0.365
Mof_H 	H 	0.6908	0.4337	0.01683	0.102
Mof_H 	H 	0.5714	0.2632	0.98733	0.093
Mof_C 	C 	0.7942	0.301	0.99953	0.155
Mof_C 	C 	0.9001	0.1789	0.04333	0.161
_end
