data_functionalizedCrystal
_audit_creation_method	'EQeq! by Chris Wilmer'
_symmetry_space_group_name_H-M	'P1'
_symmetry_Int_Tables_number	1
_symmetry_cell_setting	triclinic
loop_
_symmetry_equiv_pos_as_xyz
  x,y,z
_cell_length_a	17.2489
_cell_length_b	11.7539
_cell_length_c	17.7527
_cell_angle_alpha	90
_cell_angle_beta	105.384
_cell_angle_gamma	90
loop_
_atom_site_label
_atom_site_type_symbol
_atom_site_fract_x
_atom_site_fract_y
_atom_site_fract_z
_atom_site_charge
Mof_Nd	Nd	0.51247	0.10289	0.91461	2.617
Mof_Nd	Nd	0.48682	0.06222	0.61185	2.607
Mof_S 	S 	0.74597	0.21879	0.45841	0.079
Mof_S 	S 	0.74846	0.71378	0.59136	0.039
Mof_S 	S 	0.23405	0.2179	0.62871	0.067
Mof_O 	O 	0.4297	0.1555	0.794	-0.678
Mof_O 	O 	0.5743	0.9334	0.5798	-0.675
Mof_O 	O 	0.92	0.4444	0.5113	-0.72
Mof_O 	O 	0.8972	0.5956	0.7815	-0.646
Mof_O 	O 	0.8949	0.5688	0.6563	-0.675
Mof_O 	O 	0.0684	0.4436	0.6351	-0.627
Mof_O 	O 	0.9062	0.2839	0.445	-0.567
Mof_O 	O 	0.5639	0.1738	0.5461	-0.63
Mof_O 	O 	0.6161	0.8436	0.4866	-0.597
Mof_O 	O 	0.0858	0.3306	0.5388	-0.653
Mof_O 	O 	0.5987	0.0899	0.4459	-0.62
Mof_O 	O 	0.3813	0.0773	0.6758	-0.623
Mof_C 	C 	0.6802	0.801	0.6177	-0.168
Mof_C 	C 	0.795	0.6846	0.687	-0.194
Mof_C 	C 	0.619	0.8626	0.5568	0.523
Mof_C 	C 	0.1053	0.3675	0.6079	0.537
Mof_C 	C 	0.8038	0.3309	0.505	-0.149
Mof_C 	C 	0.8681	0.6115	0.7111	0.541
Mof_C 	C 	0.3769	0.1429	0.7303	0.534
Mof_C 	C 	0.6769	0.2408	0.5107	-0.178
Mof_C 	C 	0.8812	0.3545	0.4862	0.463
Mof_C 	C 	0.6072	0.1621	0.4999	0.547
Mof_C 	C 	0.1783	0.3182	0.6619	-0.174
Mof_C 	C 	0.7702	0.3831	0.5569	-0.013
Mof_H 	H 	0.7926	0.4458	0.5867	0.03
Mof_C 	C 	0.3034	0.2136	0.7192	-0.18
Mof_C 	C 	0.2831	0.2855	0.7712	0.008
Mof_H 	H 	0.3135	0.2939	0.8226	0.027
Mof_C 	C 	0.6975	0.3314	0.5603	0.02
Mof_H 	H 	0.6668	0.3563	0.5929	0.011
Mof_C 	C 	0.2111	0.3463	0.7387	0.004
Mof_H 	H 	0.1888	0.3987	0.7662	0.03
Mof_C 	C 	0.7591	0.7391	0.7367	0.008
Mof_H 	H 	0.7761	0.7325	0.7908	0.021
Mof_C 	C 	0.6931	0.8065	0.697	0.008
Mof_H 	H 	0.662	0.8496	0.7219	0.009
Mof_Nd	Nd	0.98753	0.60289	0.58539	2.664
Mof_Nd	Nd	0.01318	0.56222	0.88815	2.597
Mof_S 	S 	0.75403	0.71879	0.04159	0.053
Mof_S 	S 	0.75154	0.21378	0.90864	0.036
Mof_S 	S 	0.26595	0.7179	0.87129	0.069
Mof_O 	O 	0.0703	0.6555	0.706	-0.683
Mof_O 	O 	0.9257	0.4334	0.9202	-0.671
Mof_O 	O 	0.58	0.9444	0.9887	-0.696
Mof_O 	O 	0.6028	0.0956	0.7185	-0.649
Mof_O 	O 	0.6051	0.0688	0.8437	-0.674
Mof_O 	O 	0.4316	0.9436	0.8649	-0.616
Mof_O 	O 	0.5938	0.7839	0.055	-0.557
Mof_O 	O 	0.9361	0.6738	0.9539	-0.613
Mof_O 	O 	0.8839	0.3436	0.0134	-0.598
Mof_O 	O 	0.4142	0.8306	0.9612	-0.643
Mof_O 	O 	0.9013	0.5899	0.0541	-0.614
Mof_O 	O 	0.1187	0.5773	0.8242	-0.621
Mof_C 	C 	0.8198	0.301	0.8823	-0.168
Mof_C 	C 	0.705	0.1846	0.813	-0.194
Mof_C 	C 	0.881	0.3626	0.9432	0.525
Mof_C 	C 	0.3947	0.8675	0.8921	0.532
Mof_C 	C 	0.6962	0.8309	0.995	-0.12
Mof_C 	C 	0.6319	0.1115	0.7889	0.539
Mof_C 	C 	0.1231	0.6429	0.7697	0.537
Mof_C 	C 	0.8231	0.7408	0.9893	-0.152
Mof_C 	C 	0.6188	0.8545	0.0138	0.429
Mof_C 	C 	0.8928	0.6621	0.0001	0.516
Mof_C 	C 	0.3217	0.8182	0.8381	-0.171
Mof_C 	C 	0.7298	0.8831	0.9431	-0.022
Mof_H 	H 	0.7074	0.9458	0.9133	0.037
Mof_C 	C 	0.1966	0.7136	0.7808	-0.18
Mof_C 	C 	0.2169	0.7855	0.7288	0.011
Mof_H 	H 	0.1865	0.7939	0.6774	0.026
Mof_C 	C 	0.8025	0.8314	0.9397	0.015
Mof_H 	H 	0.8332	0.8563	0.9071	0.016
Mof_C 	C 	0.2889	0.8463	0.7613	0.003
Mof_H 	H 	0.3112	0.8987	0.7338	0.032
Mof_C 	C 	0.7409	0.2391	0.7633	0.008
Mof_H 	H 	0.7239	0.2325	0.7092	0.02
Mof_C 	C 	0.8069	0.3065	0.803	0.008
Mof_H 	H 	0.838	0.3496	0.7781	0.008
Mof_Nd	Nd	0.48753	0.89711	0.08539	2.616
Mof_Nd	Nd	0.51318	0.93778	0.38815	2.606
Mof_S 	S 	0.25403	0.78121	0.54159	0.078
Mof_S 	S 	0.25154	0.28622	0.40864	0.038
Mof_S 	S 	0.76595	0.7821	0.37129	0.067
Mof_O 	O 	0.5703	0.8445	0.206	-0.678
Mof_O 	O 	0.4257	0.0666	0.4202	-0.675
Mof_O 	O 	0.08	0.5556	0.4887	-0.72
Mof_O 	O 	0.1028	0.4044	0.2185	-0.646
Mof_O 	O 	0.1051	0.4312	0.3437	-0.675
Mof_O 	O 	0.9316	0.5564	0.3649	-0.627
Mof_O 	O 	0.0938	0.7161	0.555	-0.567
Mof_O 	O 	0.4361	0.8262	0.4539	-0.63
Mof_O 	O 	0.3839	0.1564	0.5134	-0.597
Mof_O 	O 	0.9142	0.6694	0.4612	-0.653
Mof_O 	O 	0.4013	0.9101	0.5541	-0.62
Mof_O 	O 	0.6187	0.9227	0.3242	-0.623
Mof_C 	C 	0.3198	0.199	0.3823	-0.168
Mof_C 	C 	0.205	0.3154	0.313	-0.194
Mof_C 	C 	0.381	0.1374	0.4432	0.523
Mof_C 	C 	0.8947	0.6325	0.3921	0.537
Mof_C 	C 	0.1962	0.6691	0.495	-0.149
Mof_C 	C 	0.1319	0.3885	0.2889	0.541
Mof_C 	C 	0.6231	0.8571	0.2697	0.534
Mof_C 	C 	0.3231	0.7592	0.4893	-0.178
Mof_C 	C 	0.1188	0.6455	0.5138	0.463
Mof_C 	C 	0.3928	0.8379	0.5001	0.547
Mof_C 	C 	0.8217	0.6818	0.3381	-0.174
Mof_C 	C 	0.2298	0.6169	0.4431	-0.013
Mof_H 	H 	0.2074	0.5542	0.4133	0.03
Mof_C 	C 	0.6966	0.7864	0.2808	-0.18
Mof_C 	C 	0.7169	0.7145	0.2288	0.008
Mof_H 	H 	0.6865	0.7061	0.1774	0.027
Mof_C 	C 	0.3025	0.6686	0.4397	0.02
Mof_H 	H 	0.3332	0.6437	0.4071	0.011
Mof_C 	C 	0.7889	0.6537	0.2613	0.004
Mof_H 	H 	0.8112	0.6013	0.2338	0.03
Mof_C 	C 	0.2409	0.2609	0.2633	0.008
Mof_H 	H 	0.2239	0.2675	0.2092	0.021
Mof_C 	C 	0.3069	0.1935	0.303	0.008
Mof_H 	H 	0.338	0.1504	0.2781	0.009
Mof_Nd	Nd	0.01247	0.39711	0.41461	2.664
Mof_Nd	Nd	0.98682	0.43778	0.11185	2.597
Mof_S 	S 	0.24597	0.28121	0.95841	0.053
Mof_S 	S 	0.24846	0.78622	0.09136	0.036
Mof_S 	S 	0.73405	0.2821	0.12871	0.069
Mof_O 	O 	0.9297	0.3445	0.294	-0.683
Mof_O 	O 	0.0743	0.5666	0.0798	-0.671
Mof_O 	O 	0.42	0.0556	0.0113	-0.696
Mof_O 	O 	0.3972	0.9044	0.2815	-0.649
Mof_O 	O 	0.3949	0.9312	0.1563	-0.674
Mof_O 	O 	0.5684	0.0564	0.1351	-0.616
Mof_O 	O 	0.4062	0.2161	0.945	-0.557
Mof_O 	O 	0.0639	0.3262	0.0461	-0.613
Mof_O 	O 	0.1161	0.6564	0.9866	-0.598
Mof_O 	O 	0.5858	0.1694	0.0388	-0.643
Mof_O 	O 	0.0987	0.4101	0.9459	-0.614
Mof_O 	O 	0.8813	0.4227	0.1758	-0.621
Mof_C 	C 	0.1802	0.699	0.1177	-0.168
Mof_C 	C 	0.295	0.8154	0.187	-0.194
Mof_C 	C 	0.119	0.6374	0.0568	0.525
Mof_C 	C 	0.6053	0.1325	0.1079	0.532
Mof_C 	C 	0.3038	0.1691	0.005	-0.12
Mof_C 	C 	0.3681	0.8885	0.2111	0.539
Mof_C 	C 	0.8769	0.3571	0.2303	0.537
Mof_C 	C 	0.1769	0.2592	0.0107	-0.152
Mof_C 	C 	0.3812	0.1455	0.9862	0.429
Mof_C 	C 	0.1072	0.3379	0.9999	0.516
Mof_C 	C 	0.6783	0.1818	0.1619	-0.171
Mof_C 	C 	0.2702	0.1169	0.0569	-0.022
Mof_H 	H 	0.2926	0.0542	0.0867	0.037
Mof_C 	C 	0.8034	0.2864	0.2192	-0.18
Mof_C 	C 	0.7831	0.2145	0.2712	0.011
Mof_H 	H 	0.8135	0.2061	0.3226	0.026
Mof_C 	C 	0.1975	0.1686	0.0603	0.015
Mof_H 	H 	0.1668	0.1437	0.0929	0.016
Mof_C 	C 	0.7111	0.1537	0.2387	0.003
Mof_H 	H 	0.6888	0.1013	0.2662	0.032
Mof_C 	C 	0.2591	0.7609	0.2367	0.008
Mof_H 	H 	0.2761	0.7675	0.2908	0.02
Mof_C 	C 	0.1931	0.6935	0.197	0.008
Mof_H 	H 	0.162	0.6504	0.2219	0.008
_end
