data_functionalizedCrystal
_audit_creation_method	'EQeq! by Chris Wilmer'
_symmetry_space_group_name_H-M	'P1'
_symmetry_Int_Tables_number	1
_symmetry_cell_setting	triclinic
loop_
_symmetry_equiv_pos_as_xyz
  x,y,z
_cell_length_a	12.608
_cell_length_b	12.769
_cell_length_c	21.876
_cell_angle_alpha	98.05
_cell_angle_beta	96.84
_cell_angle_gamma	118.109
loop_
_atom_site_label
_atom_site_type_symbol
_atom_site_fract_x
_atom_site_fract_y
_atom_site_fract_z
_atom_site_charge
Mof_Er	Er	0.06169	0.54521	0.09497	1.798
Mof_Er	Er	0.93109	0.95843	0.40296	1.988
Mof_S 	S 	0.26109	0.98173	0.98692	0.274
Mof_S 	S 	0.5072	0.2996	0.25286	0.272
Mof_S 	S 	0.50697	0.7381	0.47699	0.273
Mof_O 	O 	0.0529	0.3702	0.0451	-0.513
Mof_O 	O 	0.0217	0.3434	0.9401	-0.512
Mof_O 	O 	0.2228	0.9052	0.9246	-0.216
Mof_O 	O 	0.2404	0.9283	0.0409	-0.227
Mof_O 	O 	0.8555	0.4118	0.0882	-0.485
Mof_O 	O 	0.8454	0.3954	0.9854	-0.538
Mof_O 	O 	0.2587	0.6208	0.1422	-0.481
Mof_O 	O 	0.3031	0.6998	0.2462	-0.288
Mof_O 	O 	0.5466	0.2605	0.1991	-0.217
Mof_O 	O 	0.5896	0.3505	0.3137	-0.224
Mof_O 	O 	0.9574	0.9173	0.3059	-0.524
Mof_O 	O 	0.9684	0.7891	0.2299	-0.3
Mof_O 	O 	0.0913	0.9164	0.415	-0.504
Mof_O 	O 	0.1437	0.981	0.5195	-0.571
Mof_O 	O 	0.6	0.799	0.534	-0.226
Mof_O 	O 	0.5424	0.7307	0.4169	-0.266
Mof_O 	O 	0.0952	0.1462	0.4446	-0.559
Mof_O 	O 	0.1422	0.2055	0.5501	-0.553
Mof_O 	O 	0.7253	0.8364	0.3503	-1.054
Mof_H 	H 	0.6766	0.8215	0.3771	0.412
Mof_H 	H 	0.7437	0.7897	0.3502	0.482
Mof_C 	C 	0.051	0.3204	0.9913	0.499
Mof_C 	C 	0.0923	0.2258	0.9883	-0.152
Mof_C 	C 	0.1186	0.186	0.9329	0.051
Mof_H 	H 	0.1023	0.2107	0.8955	0.035
Mof_C 	C 	0.1687	0.1099	0.9324	-0.09
Mof_H 	H 	0.1889	0.0838	0.8948	0.074
Mof_C 	C 	0.1889	0.0724	0.9859	0.013
Mof_C 	C 	0.1591	0.1084	0.042	-0.095
Mof_H 	H 	0.1707	0.08	0.0787	0.072
Mof_C 	C 	0.1122	0.187	0.0416	0.06
Mof_H 	H 	0.0934	0.2147	0.0792	0.021
Mof_C 	C 	0.7965	0.3644	0.0313	0.471
Mof_C 	C 	0.6638	0.269	0.0194	-0.142
Mof_C 	C 	0.6131	0.226	0.0696	0.056
Mof_H 	H 	0.6624	0.2577	0.1112	0.049
Mof_C 	C 	0.4891	0.1358	0.0593	-0.081
Mof_H 	H 	0.4543	0.1059	0.0935	0.082
Mof_C 	C 	0.4193	0.0916	0.9995	0.011
Mof_C 	C 	0.4696	0.1336	0.9484	-0.087
Mof_H 	H 	0.4202	0.1022	0.9068	0.075
Mof_C 	C 	0.5918	0.2209	0.9592	0.057
Mof_H 	H 	0.6271	0.2484	0.9246	0.032
Mof_C 	C 	0.3069	0.6334	0.1999	0.347
Mof_C 	C 	0.366	0.5579	0.2113	-0.099
Mof_C 	C 	0.437	0.5783	0.2706	0.008
Mof_H 	H 	0.4532	0.6451	0.3029	0.053
Mof_C 	C 	0.484	0.5031	0.2832	-0.063
Mof_H 	H 	0.5322	0.5183	0.3236	0.061
Mof_C 	C 	0.4598	0.4044	0.2355	-0.006
Mof_C 	C 	0.3905	0.3815	0.1765	-0.067
Mof_H 	H 	0.3734	0.3137	0.1446	0.061
Mof_C 	C 	0.3457	0.4597	0.1643	0.014
Mof_H 	H 	0.3004	0.4459	0.1233	0.03
Mof_C 	C 	0.0119	0.8889	0.2675	0.433
Mof_C 	C 	0.1395	0.9885	0.2648	-0.142
Mof_C 	C 	0.1836	0.987	0.2096	0.048
Mof_H 	H 	0.1358	0.921	0.1742	0.023
Mof_C 	C 	0.2958	0.0802	0.2058	-0.091
Mof_H 	H 	0.324	0.0798	0.1674	0.074
Mof_C 	C 	0.3681	0.1755	0.2586	0.01
Mof_C 	C 	0.3274	0.1766	0.3144	-0.092
Mof_H 	H 	0.3776	0.2395	0.3509	0.079
Mof_C 	C 	0.2108	0.0834	0.3165	0.057
Mof_H 	H 	0.1804	0.0855	0.354	0.016
Mof_C 	C 	0.1523	0.2235	0.4958	0.517
Mof_C 	C 	0.243	0.3526	0.4913	-0.168
Mof_C 	C 	0.265	0.3781	0.4334	0.072
Mof_H 	H 	0.2239	0.3147	0.3964	0.012
Mof_C 	C 	0.3464	0.4955	0.4285	-0.104
Mof_H 	H 	0.3607	0.5125	0.3884	0.074
Mof_C 	C 	0.4062	0.5868	0.4826	0.022
Mof_C 	C 	0.3856	0.5637	0.5411	-0.104
Mof_H 	H 	0.427	0.6276	0.578	0.088
Mof_C 	C 	0.3041	0.4469	0.5457	0.072
Mof_H 	H 	0.2895	0.4305	0.5858	0.018
Mof_C 	C 	0.1553	0.935	0.4677	0.503
Mof_C 	C 	0.2529	0.8969	0.4699	-0.162
Mof_C 	C 	0.3159	0.9024	0.5278	0.07
Mof_H 	H 	0.3038	0.937	0.5659	0.009
Mof_C 	C 	0.3971	0.8568	0.53	-0.102
Mof_H 	H 	0.4409	0.8603	0.5694	0.081
Mof_C 	C 	0.4128	0.8067	0.474	0.02
Mof_C 	C 	0.3554	0.805	0.4157	-0.101
Mof_H 	H 	0.3708	0.7736	0.3779	0.087
Mof_C 	C 	0.2734	0.8509	0.4139	0.065
Mof_H 	H 	0.2322	0.8505	0.3744	0.03
Mof_Er	Er	0.93831	0.45479	0.90503	1.797
Mof_Er	Er	0.06891	0.04157	0.59704	1.987
Mof_S 	S 	0.73891	0.01827	0.01308	0.273
Mof_S 	S 	0.4928	0.7004	0.74714	0.271
Mof_S 	S 	0.49303	0.2619	0.52301	0.272
Mof_O 	O 	0.9471	0.6298	0.9549	-0.514
Mof_O 	O 	0.9783	0.6566	0.0599	-0.513
Mof_O 	O 	0.7772	0.0948	0.0754	-0.217
Mof_O 	O 	0.7596	0.0717	0.9591	-0.228
Mof_O 	O 	0.1445	0.5882	0.9118	-0.486
Mof_O 	O 	0.1546	0.6046	0.0146	-0.538
Mof_O 	O 	0.7413	0.3792	0.8578	-0.481
Mof_O 	O 	0.6969	0.3002	0.7538	-0.288
Mof_O 	O 	0.4534	0.7395	0.8009	-0.217
Mof_O 	O 	0.4104	0.6495	0.6863	-0.224
Mof_O 	O 	0.0426	0.0827	0.6941	-0.524
Mof_O 	O 	0.0316	0.2109	0.7701	-0.3
Mof_O 	O 	0.9087	0.0836	0.585	-0.504
Mof_O 	O 	0.8563	0.019	0.4805	-0.571
Mof_O 	O 	0.4	0.201	0.466	-0.226
Mof_O 	O 	0.4576	0.2693	0.5831	-0.266
Mof_O 	O 	0.9048	0.8538	0.5554	-0.559
Mof_O 	O 	0.8578	0.7945	0.4499	-0.553
Mof_O 	O 	0.2747	0.1636	0.6497	-1.054
Mof_H 	H 	0.3234	0.1785	0.6229	0.412
Mof_H 	H 	0.2563	0.2103	0.6498	0.482
Mof_C 	C 	0.949	0.6796	0.0087	0.499
Mof_C 	C 	0.9077	0.7742	0.0117	-0.152
Mof_C 	C 	0.8814	0.814	0.0671	0.051
Mof_H 	H 	0.8977	0.7893	0.1045	0.035
Mof_C 	C 	0.8313	0.8901	0.0676	-0.09
Mof_H 	H 	0.8111	0.9162	0.1052	0.074
Mof_C 	C 	0.8111	0.9276	0.0141	0.013
Mof_C 	C 	0.8409	0.8916	0.958	-0.095
Mof_H 	H 	0.8293	0.92	0.9213	0.072
Mof_C 	C 	0.8878	0.813	0.9584	0.06
Mof_H 	H 	0.9066	0.7853	0.9208	0.021
Mof_C 	C 	0.2035	0.6356	0.9687	0.471
Mof_C 	C 	0.3362	0.731	0.9806	-0.142
Mof_C 	C 	0.3869	0.774	0.9304	0.056
Mof_H 	H 	0.3376	0.7423	0.8888	0.049
Mof_C 	C 	0.5109	0.8642	0.9407	-0.081
Mof_H 	H 	0.5457	0.8941	0.9065	0.082
Mof_C 	C 	0.5807	0.9084	0.0005	0.011
Mof_C 	C 	0.5304	0.8664	0.0516	-0.087
Mof_H 	H 	0.5798	0.8978	0.0932	0.075
Mof_C 	C 	0.4082	0.7791	0.0408	0.057
Mof_H 	H 	0.3729	0.7516	0.0754	0.032
Mof_C 	C 	0.6931	0.3666	0.8001	0.347
Mof_C 	C 	0.634	0.4421	0.7887	-0.099
Mof_C 	C 	0.563	0.4217	0.7294	0.008
Mof_H 	H 	0.5468	0.3549	0.6971	0.053
Mof_C 	C 	0.516	0.4969	0.7168	-0.063
Mof_H 	H 	0.4678	0.4817	0.6764	0.061
Mof_C 	C 	0.5402	0.5956	0.7645	-0.006
Mof_C 	C 	0.6095	0.6185	0.8235	-0.067
Mof_H 	H 	0.6266	0.6863	0.8554	0.061
Mof_C 	C 	0.6543	0.5403	0.8357	0.014
Mof_H 	H 	0.6996	0.5541	0.8767	0.03
Mof_C 	C 	0.9881	0.1111	0.7325	0.433
Mof_C 	C 	0.8605	0.0115	0.7352	-0.142
Mof_C 	C 	0.8164	0.013	0.7904	0.048
Mof_H 	H 	0.8642	0.079	0.8258	0.023
Mof_C 	C 	0.7042	0.9198	0.7942	-0.091
Mof_H 	H 	0.676	0.9202	0.8326	0.074
Mof_C 	C 	0.6319	0.8245	0.7414	0.01
Mof_C 	C 	0.6726	0.8234	0.6856	-0.092
Mof_H 	H 	0.6224	0.7605	0.6491	0.079
Mof_C 	C 	0.7892	0.9166	0.6835	0.057
Mof_H 	H 	0.8196	0.9145	0.646	0.016
Mof_C 	C 	0.8477	0.7765	0.5042	0.517
Mof_C 	C 	0.757	0.6474	0.5087	-0.168
Mof_C 	C 	0.735	0.6219	0.5666	0.072
Mof_H 	H 	0.7761	0.6853	0.6036	0.012
Mof_C 	C 	0.6536	0.5045	0.5715	-0.104
Mof_H 	H 	0.6393	0.4875	0.6116	0.074
Mof_C 	C 	0.5938	0.4132	0.5174	0.022
Mof_C 	C 	0.6144	0.4363	0.4589	-0.104
Mof_H 	H 	0.573	0.3724	0.422	0.088
Mof_C 	C 	0.6959	0.5531	0.4543	0.072
Mof_H 	H 	0.7105	0.5695	0.4142	0.018
Mof_C 	C 	0.8447	0.065	0.5323	0.503
Mof_C 	C 	0.7471	0.1031	0.5301	-0.162
Mof_C 	C 	0.6841	0.0976	0.4722	0.07
Mof_H 	H 	0.6962	0.063	0.4341	0.009
Mof_C 	C 	0.6029	0.1432	0.47	-0.102
Mof_H 	H 	0.5591	0.1397	0.4306	0.081
Mof_C 	C 	0.5872	0.1933	0.526	0.02
Mof_C 	C 	0.6446	0.195	0.5843	-0.101
Mof_H 	H 	0.6292	0.2264	0.6221	0.087
Mof_C 	C 	0.7266	0.1491	0.5861	0.065
Mof_H 	H 	0.7678	0.1495	0.6256	0.03
_end
