data_functionalizedCrystal
_audit_creation_method	'EQeq! by Chris Wilmer'
_symmetry_space_group_name_H-M	'P1'
_symmetry_Int_Tables_number	1
_symmetry_cell_setting	triclinic
loop_
_symmetry_equiv_pos_as_xyz
  x,y,z
_cell_length_a	7.9415
_cell_length_b	13.846
_cell_length_c	7.3103
_cell_angle_alpha	90
_cell_angle_beta	90
_cell_angle_gamma	90
loop_
_atom_site_label
_atom_site_type_symbol
_atom_site_fract_x
_atom_site_fract_y
_atom_site_fract_z
_atom_site_charge
Mof_Co	Co	0.2206	0.33545	0.75941	1.211
Mof_O 	O 	0.1052	0.22859	0.6081	-0.385
Mof_O 	O 	0.9269	0.16402	0.412	-0.389
Mof_O 	O 	0.30884	0.21194	0.9026	-0.357
Mof_O 	O 	0.50562	0.14524	0.0773	-0.364
Mof_O 	O 	0.1121	0.4529	0.619	-0.36
Mof_O 	O 	0.13161	0.57242	0.4189	-0.37
Mof_C 	C 	0.9859	0.23363	0.4984	0.447
Mof_H 	H 	0.9361	0.2952	0.4791	-0.092
Mof_C 	C 	0.4435	0.21428	0.9917	0.409
Mof_H 	H 	0.5032	0.2737	0.9941	-0.084
Mof_C 	C 	0.1933	0.50449	0.5087	0.414
Mof_H 	H 	0.3096	0.4909	0.4926	-0.08
Mof_Co	Co	0.2794	0.66455	0.25941	1.21
Mof_O 	O 	0.3948	0.77141	0.1081	-0.39
Mof_O 	O 	0.5731	0.83598	0.912	-0.39
Mof_O 	O 	0.19116	0.78806	0.4026	-0.357
Mof_O 	O 	0.99438	0.85476	0.5773	-0.364
Mof_O 	O 	0.3879	0.5471	0.119	-0.36
Mof_O 	O 	0.36839	0.42758	0.9189	-0.368
Mof_C 	C 	0.5141	0.76637	0.9984	0.455
Mof_H 	H 	0.5639	0.7048	0.9791	-0.093
Mof_C 	C 	0.0565	0.78572	0.4917	0.406
Mof_H 	H 	0.9968	0.7263	0.4941	-0.081
Mof_C 	C 	0.3067	0.49551	0.0087	0.411
Mof_H 	H 	0.1904	0.5091	0.9926	-0.078
Mof_Co	Co	0.7794	0.83545	0.74059	1.21
Mof_O 	O 	0.8948	0.72859	0.8919	-0.387
Mof_O 	O 	0.0731	0.66402	0.088	-0.389
Mof_O 	O 	0.69116	0.71194	0.5974	-0.358
Mof_O 	O 	0.49438	0.64524	0.4227	-0.366
Mof_O 	O 	0.8879	0.9529	0.881	-0.356
Mof_O 	O 	0.86839	0.07242	0.0811	-0.365
Mof_C 	C 	0.0141	0.73363	0.0016	0.448
Mof_H 	H 	0.0639	0.7952	0.0209	-0.093
Mof_C 	C 	0.5565	0.71428	0.5083	0.412
Mof_H 	H 	0.4968	0.7737	0.5059	-0.084
Mof_C 	C 	0.8067	0.00449	0.9913	0.403
Mof_H 	H 	0.6904	0.9909	0.0074	-0.077
Mof_Co	Co	0.7206	0.16455	0.24059	1.21
Mof_O 	O 	0.6052	0.27141	0.3919	-0.389
Mof_O 	O 	0.4269	0.33598	0.588	-0.389
Mof_O 	O 	0.80884	0.28806	0.0974	-0.357
Mof_O 	O 	0.00562	0.35476	0.9227	-0.364
Mof_O 	O 	0.6121	0.0471	0.381	-0.359
Mof_O 	O 	0.63161	0.92758	0.5811	-0.369
Mof_C 	C 	0.4859	0.26637	0.5016	0.452
Mof_H 	H 	0.4361	0.2048	0.5209	-0.093
Mof_C 	C 	0.9435	0.28572	0.0083	0.409
Mof_H 	H 	0.0032	0.2263	0.0059	-0.082
Mof_C 	C 	0.6933	0.99551	0.4913	0.412
Mof_H 	H 	0.8096	0.0091	0.5074	-0.08
_end
