data_functionalizedCrystal
_audit_creation_method	'EQeq! by Chris Wilmer'
_symmetry_space_group_name_H-M	'P1'
_symmetry_Int_Tables_number	1
_symmetry_cell_setting	triclinic
loop_
_symmetry_equiv_pos_as_xyz
  x,y,z
_cell_length_a	12.3156
_cell_length_b	15.5113
_cell_length_c	18.9521
_cell_angle_alpha	90
_cell_angle_beta	90
_cell_angle_gamma	90
loop_
_atom_site_label
_atom_site_type_symbol
_atom_site_fract_x
_atom_site_fract_y
_atom_site_fract_z
_atom_site_charge
Mof_C 	C 	0.5071	0.66496	0.93787	0.065
Mof_H 	H 	0.4981	0.619	0.9069	0.027
Mof_C 	C 	0.4376	0.67141	0.99363	-0.088
Mof_H 	H 	0.3846	0.6295	0.0004	0.077
Mof_C 	C 	0.44539	0.73917	0.03972	-0.005
Mof_C 	C 	0.52996	0.79594	0.02858	-0.085
Mof_H 	H 	0.5409	0.842	0.0591	0.077
Mof_C 	C 	0.59746	0.78377	0.97222	0.06
Mof_H 	H 	0.6546	0.8223	0.9663	0.028
Mof_C 	C 	0.56106	0.57884	0.77416	0.279
Mof_C 	C 	0.49908	0.49774	0.75491	0.003
Mof_C 	C 	0.52561	0.42024	0.78646	-0.091
Mof_H 	H 	0.5808	0.4175	0.8199	0.091
Mof_C 	C 	0.46888	0.34655	0.76764	0.063
Mof_H 	H 	0.4873	0.2949	0.7894	0.033
Mof_C 	C 	0.36345	0.42157	0.69067	0.061
Mof_H 	H 	0.3072	0.4228	0.6579	0.038
Mof_C 	C 	0.41615	0.4983	0.70663	-0.09
Mof_H 	H 	0.3954	0.5494	0.6848	0.098
Mof_C 	C 	0.36229	0.75298	0.09572	0.272
Mof_Cd	Cd	0.6882	0.71601	0.81799	0.425
Mof_N 	N 	0.58699	0.72046	0.92525	-0.136
Mof_N 	N 	0.3898	0.34592	0.72019	-0.142
Mof_O 	O 	0.64825	0.57056	0.80599	-0.269
Mof_O 	O 	0.52076	0.64998	0.75884	-0.262
Mof_O 	O 	0.34507	0.82863	0.11646	-0.257
Mof_O 	O 	0.30927	0.68915	0.11708	-0.271
Mof_C 	C 	0.9929	0.33504	0.43787	0.065
Mof_H 	H 	0.0019	0.381	0.4069	0.025
Mof_C 	C 	0.0624	0.32859	0.49363	-0.089
Mof_H 	H 	0.1154	0.3705	0.5004	0.077
Mof_C 	C 	0.05461	0.26083	0.53972	-0.004
Mof_C 	C 	0.97004	0.20406	0.52858	-0.085
Mof_H 	H 	0.9591	0.158	0.5591	0.078
Mof_C 	C 	0.90254	0.21623	0.47222	0.06
Mof_H 	H 	0.8454	0.1777	0.4663	0.028
Mof_C 	C 	0.93894	0.42116	0.27416	0.28
Mof_C 	C 	0.00092	0.50226	0.25491	0.002
Mof_C 	C 	0.97439	0.57976	0.28646	-0.09
Mof_H 	H 	0.9192	0.5825	0.3199	0.091
Mof_C 	C 	0.03112	0.65345	0.26764	0.062
Mof_H 	H 	0.0127	0.7051	0.2894	0.033
Mof_C 	C 	0.13655	0.57843	0.19067	0.06
Mof_H 	H 	0.1928	0.5772	0.1579	0.038
Mof_C 	C 	0.08385	0.5017	0.20663	-0.089
Mof_H 	H 	0.1046	0.4506	0.1848	0.097
Mof_C 	C 	0.13771	0.24702	0.59572	0.272
Mof_Cd	Cd	0.8118	0.28399	0.31799	0.425
Mof_N 	N 	0.91301	0.27954	0.42525	-0.136
Mof_N 	N 	0.1102	0.65408	0.22019	-0.141
Mof_O 	O 	0.85175	0.42944	0.30599	-0.269
Mof_O 	O 	0.97924	0.35002	0.25884	-0.262
Mof_O 	O 	0.15493	0.17137	0.61646	-0.257
Mof_O 	O 	0.19073	0.31085	0.61708	-0.271
Mof_C 	C 	0.4929	0.16496	0.56213	0.065
Mof_H 	H 	0.5019	0.119	0.5931	0.026
Mof_C 	C 	0.5624	0.17141	0.50637	-0.089
Mof_H 	H 	0.6154	0.1295	0.4996	0.077
Mof_C 	C 	0.55461	0.23917	0.46028	-0.004
Mof_C 	C 	0.47004	0.29594	0.47142	-0.085
Mof_H 	H 	0.4591	0.342	0.4409	0.078
Mof_C 	C 	0.40254	0.28377	0.52778	0.06
Mof_H 	H 	0.3454	0.3223	0.5337	0.028
Mof_C 	C 	0.43894	0.07884	0.72584	0.279
Mof_C 	C 	0.50092	0.99774	0.74509	0.003
Mof_C 	C 	0.47439	0.92024	0.71354	-0.091
Mof_H 	H 	0.4192	0.9175	0.6801	0.091
Mof_C 	C 	0.53112	0.84655	0.73236	0.063
Mof_H 	H 	0.5127	0.7949	0.7106	0.032
Mof_C 	C 	0.63655	0.92157	0.80933	0.061
Mof_H 	H 	0.6928	0.9228	0.8421	0.038
Mof_C 	C 	0.58385	0.9983	0.79337	-0.09
Mof_H 	H 	0.6046	0.0494	0.8152	0.098
Mof_C 	C 	0.63771	0.25298	0.40428	0.272
Mof_Cd	Cd	0.3118	0.21601	0.68201	0.425
Mof_N 	N 	0.41301	0.22046	0.57475	-0.136
Mof_N 	N 	0.6102	0.84592	0.77981	-0.142
Mof_O 	O 	0.35175	0.07056	0.69401	-0.269
Mof_O 	O 	0.47924	0.14998	0.74116	-0.262
Mof_O 	O 	0.65493	0.32863	0.38354	-0.257
Mof_O 	O 	0.69073	0.18915	0.38292	-0.271
Mof_C 	C 	0.0071	0.83504	0.06213	0.061
Mof_H 	H 	0.9981	0.881	0.0931	0.027
Mof_C 	C 	0.9376	0.82859	0.00637	-0.083
Mof_H 	H 	0.8846	0.8705	0.9996	0.075
Mof_C 	C 	0.94539	0.76083	0.96028	-0.008
Mof_C 	C 	0.02996	0.70406	0.97142	-0.081
Mof_H 	H 	0.0409	0.658	0.9409	0.076
Mof_C 	C 	0.09746	0.71623	0.02778	0.057
Mof_H 	H 	0.1546	0.6777	0.0337	0.029
Mof_C 	C 	0.06106	0.92116	0.22584	0.278
Mof_C 	C 	0.99908	0.00226	0.24509	0.004
Mof_C 	C 	0.02561	0.07976	0.21354	-0.094
Mof_H 	H 	0.0808	0.0825	0.1801	0.092
Mof_C 	C 	0.96888	0.15345	0.23236	0.064
Mof_H 	H 	0.9873	0.2051	0.2106	0.032
Mof_C 	C 	0.86345	0.07843	0.30933	0.061
Mof_H 	H 	0.8072	0.0772	0.3421	0.038
Mof_C 	C 	0.91615	0.0017	0.29337	-0.09
Mof_H 	H 	0.8954	0.9506	0.3152	0.098
Mof_C 	C 	0.86229	0.74702	0.90428	0.274
Mof_Cd	Cd	0.1882	0.78399	0.18201	0.425
Mof_N 	N 	0.08699	0.77954	0.07475	-0.135
Mof_N 	N 	0.8898	0.15408	0.27981	-0.142
Mof_O 	O 	0.14825	0.92944	0.19401	-0.268
Mof_O 	O 	0.02076	0.85002	0.24116	-0.262
Mof_O 	O 	0.84507	0.67137	0.88354	-0.257
Mof_O 	O 	0.80927	0.81085	0.88292	-0.271
Mof_C 	C 	0.4929	0.33504	0.06213	0.064
Mof_H 	H 	0.5019	0.381	0.0931	0.026
Mof_C 	C 	0.5624	0.32859	0.00637	-0.088
Mof_H 	H 	0.6154	0.3705	0.9996	0.077
Mof_C 	C 	0.55461	0.26083	0.96028	-0.005
Mof_C 	C 	0.47004	0.20406	0.97142	-0.085
Mof_H 	H 	0.4591	0.158	0.9409	0.077
Mof_C 	C 	0.40254	0.21623	0.02778	0.06
Mof_H 	H 	0.3454	0.1777	0.0337	0.028
Mof_C 	C 	0.43894	0.42116	0.22584	0.279
Mof_C 	C 	0.50092	0.50226	0.24509	0.003
Mof_C 	C 	0.47439	0.57976	0.21354	-0.091
Mof_H 	H 	0.4192	0.5825	0.1801	0.091
Mof_C 	C 	0.53112	0.65345	0.23236	0.063
Mof_H 	H 	0.5127	0.7051	0.2106	0.033
Mof_C 	C 	0.63655	0.57843	0.30933	0.061
Mof_H 	H 	0.6928	0.5772	0.3421	0.038
Mof_C 	C 	0.58385	0.5017	0.29337	-0.09
Mof_H 	H 	0.6046	0.4506	0.3152	0.098
Mof_C 	C 	0.63771	0.24702	0.90428	0.272
Mof_Cd	Cd	0.3118	0.28399	0.18201	0.425
Mof_N 	N 	0.41301	0.27954	0.07475	-0.136
Mof_N 	N 	0.6102	0.65408	0.27981	-0.142
Mof_O 	O 	0.35175	0.42944	0.19401	-0.269
Mof_O 	O 	0.47924	0.35002	0.24116	-0.262
Mof_O 	O 	0.65493	0.17137	0.88354	-0.257
Mof_O 	O 	0.69073	0.31085	0.88292	-0.271
Mof_C 	C 	0.0071	0.66496	0.56213	0.065
Mof_H 	H 	0.9981	0.619	0.5931	0.025
Mof_C 	C 	0.9376	0.67141	0.50637	-0.089
Mof_H 	H 	0.8846	0.6295	0.4996	0.077
Mof_C 	C 	0.94539	0.73917	0.46028	-0.004
Mof_C 	C 	0.02996	0.79594	0.47142	-0.085
Mof_H 	H 	0.0409	0.842	0.4409	0.078
Mof_C 	C 	0.09746	0.78377	0.52778	0.06
Mof_H 	H 	0.1546	0.8223	0.5337	0.028
Mof_C 	C 	0.06106	0.57884	0.72584	0.28
Mof_C 	C 	0.99908	0.49774	0.74509	0.002
Mof_C 	C 	0.02561	0.42024	0.71354	-0.09
Mof_H 	H 	0.0808	0.4175	0.6801	0.091
Mof_C 	C 	0.96888	0.34655	0.73236	0.062
Mof_H 	H 	0.9873	0.2949	0.7106	0.033
Mof_C 	C 	0.86345	0.42157	0.80933	0.06
Mof_H 	H 	0.8072	0.4228	0.8421	0.038
Mof_C 	C 	0.91615	0.4983	0.79337	-0.089
Mof_H 	H 	0.8954	0.5494	0.8152	0.097
Mof_C 	C 	0.86229	0.75298	0.40428	0.272
Mof_Cd	Cd	0.1882	0.71601	0.68201	0.425
Mof_N 	N 	0.08699	0.72046	0.57475	-0.136
Mof_N 	N 	0.8898	0.34592	0.77981	-0.141
Mof_O 	O 	0.14825	0.57056	0.69401	-0.269
Mof_O 	O 	0.02076	0.64998	0.74116	-0.262
Mof_O 	O 	0.84507	0.82863	0.38354	-0.257
Mof_O 	O 	0.80927	0.68915	0.38292	-0.271
Mof_C 	C 	0.5071	0.83504	0.43787	0.065
Mof_H 	H 	0.4981	0.881	0.4069	0.026
Mof_C 	C 	0.4376	0.82859	0.49363	-0.089
Mof_H 	H 	0.3846	0.8705	0.5004	0.077
Mof_C 	C 	0.44539	0.76083	0.53972	-0.004
Mof_C 	C 	0.52996	0.70406	0.52858	-0.085
Mof_H 	H 	0.5409	0.658	0.5591	0.078
Mof_C 	C 	0.59746	0.71623	0.47222	0.06
Mof_H 	H 	0.6546	0.6777	0.4663	0.028
Mof_C 	C 	0.56106	0.92116	0.27416	0.279
Mof_C 	C 	0.49908	0.00226	0.25491	0.003
Mof_C 	C 	0.52561	0.07976	0.28646	-0.091
Mof_H 	H 	0.5808	0.0825	0.3199	0.091
Mof_C 	C 	0.46888	0.15345	0.26764	0.063
Mof_H 	H 	0.4873	0.2051	0.2894	0.032
Mof_C 	C 	0.36345	0.07843	0.19067	0.061
Mof_H 	H 	0.3072	0.0772	0.1579	0.038
Mof_C 	C 	0.41615	0.0017	0.20663	-0.09
Mof_H 	H 	0.3954	0.9506	0.1848	0.098
Mof_C 	C 	0.36229	0.74702	0.59572	0.272
Mof_Cd	Cd	0.6882	0.78399	0.31799	0.425
Mof_N 	N 	0.58699	0.77954	0.42525	-0.136
Mof_N 	N 	0.3898	0.15408	0.22019	-0.142
Mof_O 	O 	0.64825	0.92944	0.30599	-0.269
Mof_O 	O 	0.52076	0.85002	0.25884	-0.262
Mof_O 	O 	0.34507	0.67137	0.61646	-0.257
Mof_O 	O 	0.30927	0.81085	0.61708	-0.271
Mof_C 	C 	0.9929	0.16496	0.93787	0.061
Mof_H 	H 	0.0019	0.119	0.9069	0.027
Mof_C 	C 	0.0624	0.17141	0.99363	-0.083
Mof_H 	H 	0.1154	0.1295	0.0004	0.075
Mof_C 	C 	0.05461	0.23917	0.03972	-0.008
Mof_C 	C 	0.97004	0.29594	0.02858	-0.081
Mof_H 	H 	0.9591	0.342	0.0591	0.076
Mof_C 	C 	0.90254	0.28377	0.97222	0.057
Mof_H 	H 	0.8454	0.3223	0.9663	0.029
Mof_C 	C 	0.93894	0.07884	0.77416	0.278
Mof_C 	C 	0.00092	0.99774	0.75491	0.004
Mof_C 	C 	0.97439	0.92024	0.78646	-0.094
Mof_H 	H 	0.9192	0.9175	0.8199	0.092
Mof_C 	C 	0.03112	0.84655	0.76764	0.064
Mof_H 	H 	0.0127	0.7949	0.7894	0.032
Mof_C 	C 	0.13655	0.92157	0.69067	0.061
Mof_H 	H 	0.1928	0.9228	0.6579	0.038
Mof_C 	C 	0.08385	0.9983	0.70663	-0.09
Mof_H 	H 	0.1046	0.0494	0.6848	0.098
Mof_C 	C 	0.13771	0.25298	0.09572	0.274
Mof_Cd	Cd	0.8118	0.21601	0.81799	0.425
Mof_N 	N 	0.91301	0.22046	0.92525	-0.135
Mof_N 	N 	0.1102	0.84592	0.72019	-0.142
Mof_O 	O 	0.85175	0.07056	0.80599	-0.268
Mof_O 	O 	0.97924	0.14998	0.75884	-0.262
Mof_O 	O 	0.15493	0.32863	0.11646	-0.257
Mof_O 	O 	0.19073	0.18915	0.11708	-0.271
_end
