data_functionalizedCrystal
_audit_creation_method	'EQeq! by Chris Wilmer'
_symmetry_space_group_name_H-M	'P1'
_symmetry_Int_Tables_number	1
_symmetry_cell_setting	triclinic
loop_
_symmetry_equiv_pos_as_xyz
  x,y,z
_cell_length_a	10.12
_cell_length_b	21.934
_cell_length_c	15.818
_cell_angle_alpha	90
_cell_angle_beta	105.43
_cell_angle_gamma	90
loop_
_atom_site_label
_atom_site_type_symbol
_atom_site_fract_x
_atom_site_fract_y
_atom_site_fract_z
_atom_site_charge
Mof_C 	C 	0.8223	0.2453	0.3812	-0.131
Mof_C 	C 	0.9362	0.2842	0.4176	0.232
Mof_C 	C 	0.069	0.2577	0.4318	-0.313
Mof_H 	H 	0.1459	0.281	0.4578	0.116
Mof_C 	C 	0.0861	0.1991	0.4081	0.195
Mof_H 	H 	0.1743	0.1835	0.4178	-0.141
Mof_C 	C 	0.9752	0.1623	0.3701	-0.272
Mof_C 	C 	0.8413	0.1865	0.3573	0.101
Mof_H 	H 	0.7656	0.1623	0.3324	-0.049
Mof_C 	C 	0.6814	0.2737	0.3704	-0.037
Mof_H 	H 	0.6709	0.2837	0.428	0.044
Mof_H 	H 	0.6768	0.3115	0.3379	0.061
Mof_C 	C 	0.4354	0.2672	0.3175	-0.077
Mof_H 	H 	0.4383	0.3066	0.2901	0.059
Mof_H 	H 	0.4235	0.2741	0.3756	0.033
Mof_C 	C 	0.3156	0.2307	0.2636	-0.078
Mof_H 	H 	0.2998	0.1959	0.2974	-0.018
Mof_H 	H 	0.3377	0.2155	0.2114	0.032
Mof_N 	N 	0.5663	0.2345	0.3249	-0.156
Mof_O 	O 	0.9211	0.341	0.4367	-0.253
Mof_O 	O 	0.1016	0.0897	0.2881	-0.547
Mof_O 	O 	0.0569	0.054	0.4211	-0.964
Mof_O 	O 	0.871	0.0629	0.2899	-0.549
Mof_S 	S 	0.00235	0.08753	0.34022	0.609
Mof_K 	K 	0.83862	0.96762	0.4037	2.404
Mof_H 	H 	0.561	0.1982	0.342	0.041
Mof_H 	H 	0.811	0.082	0.526	0.297
Mof_C 	C 	0.3223	0.7453	0.8812	-0.147
Mof_C 	C 	0.4362	0.7842	0.9176	0.226
Mof_C 	C 	0.569	0.7577	0.9318	-0.322
Mof_H 	H 	0.6459	0.781	0.9578	0.102
Mof_C 	C 	0.5861	0.6991	0.9081	0.212
Mof_H 	H 	0.6743	0.6835	0.9178	-0.156
Mof_C 	C 	0.4752	0.6623	0.8701	-0.311
Mof_C 	C 	0.3413	0.6865	0.8573	0.114
Mof_H 	H 	0.2656	0.6623	0.8324	-0.054
Mof_C 	C 	0.1814	0.7737	0.8704	-0.022
Mof_H 	H 	0.1709	0.7837	0.928	0.022
Mof_H 	H 	0.1768	0.8115	0.8379	0.054
Mof_C 	C 	0.9354	0.7672	0.8175	-0.069
Mof_H 	H 	0.9383	0.8066	0.7901	0.055
Mof_H 	H 	0.9235	0.7741	0.8756	0.019
Mof_C 	C 	0.8156	0.7307	0.7636	-0.084
Mof_H 	H 	0.7998	0.6959	0.7974	-0.014
Mof_H 	H 	0.8377	0.7155	0.7114	0.034
Mof_N 	N 	0.0663	0.7345	0.8249	-0.16
Mof_O 	O 	0.4211	0.841	0.9367	-0.276
Mof_O 	O 	0.6016	0.5897	0.7881	-0.537
Mof_O 	O 	0.5569	0.554	0.9211	-0.982
Mof_O 	O 	0.371	0.5629	0.7899	-0.548
Mof_S 	S 	0.50235	0.58753	0.84022	0.651
Mof_K 	K 	0.33862	0.46762	0.9037	2.152
Mof_H 	H 	0.061	0.6982	0.842	0.041
Mof_H 	H 	0.311	0.582	0.026	0.269
Mof_C 	C 	0.6777	0.2453	0.6188	-0.133
Mof_C 	C 	0.5638	0.2842	0.5824	0.23
Mof_C 	C 	0.431	0.2577	0.5682	-0.313
Mof_H 	H 	0.3541	0.281	0.5422	0.119
Mof_C 	C 	0.4139	0.1991	0.5919	0.217
Mof_H 	H 	0.3257	0.1835	0.5822	-0.147
Mof_C 	C 	0.5248	0.1623	0.6299	-0.3
Mof_C 	C 	0.6587	0.1865	0.6427	0.113
Mof_H 	H 	0.7344	0.1623	0.6676	-0.054
Mof_C 	C 	0.8186	0.2737	0.6296	-0.037
Mof_H 	H 	0.8291	0.2837	0.572	0.045
Mof_H 	H 	0.8232	0.3115	0.6621	0.063
Mof_C 	C 	0.0646	0.2672	0.6825	-0.102
Mof_H 	H 	0.0617	0.3066	0.7099	0.067
Mof_H 	H 	0.0765	0.2741	0.6244	0.04
Mof_C 	C 	0.1844	0.2307	0.7364	-0.044
Mof_H 	H 	0.2002	0.1959	0.7026	-0.03
Mof_H 	H 	0.1623	0.2155	0.7886	0.017
Mof_N 	N 	0.9337	0.2345	0.6751	-0.15
Mof_O 	O 	0.5789	0.341	0.5633	-0.253
Mof_O 	O 	0.3984	0.0897	0.7119	-0.556
Mof_O 	O 	0.4431	0.054	0.5789	-0.968
Mof_O 	O 	0.629	0.0629	0.7101	-0.568
Mof_S 	S 	0.49765	0.08753	0.65978	0.641
Mof_K 	K 	0.66138	0.96762	0.5963	2.376
Mof_H 	H 	0.939	0.1982	0.658	0.041
Mof_H 	H 	0.689	0.082	0.474	0.295
Mof_C 	C 	0.1777	0.7453	0.1188	-0.122
Mof_C 	C 	0.0638	0.7842	0.0824	0.233
Mof_C 	C 	0.931	0.7577	0.0682	-0.306
Mof_H 	H 	0.8541	0.781	0.0422	0.137
Mof_C 	C 	0.9139	0.6991	0.0919	0.231
Mof_H 	H 	0.8257	0.6835	0.0822	-0.14
Mof_C 	C 	0.0248	0.6623	0.1299	-0.297
Mof_C 	C 	0.1587	0.6865	0.1427	0.117
Mof_H 	H 	0.2344	0.6623	0.1676	-0.054
Mof_C 	C 	0.3186	0.7737	0.1296	-0.046
Mof_H 	H 	0.3291	0.7837	0.072	0.066
Mof_H 	H 	0.3232	0.8115	0.1621	0.067
Mof_C 	C 	0.5646	0.7672	0.1825	-0.1
Mof_H 	H 	0.5617	0.8066	0.2099	0.07
Mof_H 	H 	0.5765	0.7741	0.1244	0.053
Mof_C 	C 	0.6844	0.7307	0.2364	-0.045
Mof_H 	H 	0.7002	0.6959	0.2026	-0.029
Mof_H 	H 	0.6623	0.7155	0.2886	0.019
Mof_N 	N 	0.4337	0.7345	0.1751	-0.151
Mof_O 	O 	0.0789	0.841	0.0633	-0.233
Mof_O 	O 	0.8984	0.5897	0.2119	-0.567
Mof_O 	O 	0.9431	0.554	0.0789	-0.949
Mof_O 	O 	0.129	0.5629	0.2101	-0.583
Mof_S 	S 	0.99765	0.58753	0.15978	0.639
Mof_K 	K 	0.16138	0.46762	0.0963	2.551
Mof_H 	H 	0.439	0.6982	0.158	0.042
Mof_H 	H 	0.189	0.582	0.974	0.211
Mof_C 	C 	0.1777	0.7547	0.6188	-0.132
Mof_C 	C 	0.0638	0.7158	0.5824	0.229
Mof_C 	C 	0.931	0.7423	0.5682	-0.311
Mof_H 	H 	0.8541	0.719	0.5422	0.118
Mof_C 	C 	0.9139	0.8009	0.5919	0.213
Mof_H 	H 	0.8257	0.8165	0.5822	-0.146
Mof_C 	C 	0.0248	0.8377	0.6299	-0.296
Mof_C 	C 	0.1587	0.8135	0.6427	0.111
Mof_H 	H 	0.2344	0.8377	0.6676	-0.053
Mof_C 	C 	0.3186	0.7263	0.6296	-0.037
Mof_H 	H 	0.3291	0.7163	0.572	0.044
Mof_H 	H 	0.3232	0.6885	0.6621	0.062
Mof_C 	C 	0.5646	0.7328	0.6825	-0.094
Mof_H 	H 	0.5617	0.6934	0.7099	0.067
Mof_H 	H 	0.5765	0.7259	0.6244	0.04
Mof_C 	C 	0.6844	0.7693	0.7364	-0.048
Mof_H 	H 	0.7002	0.8041	0.7026	-0.028
Mof_H 	H 	0.6623	0.7845	0.7886	0.019
Mof_N 	N 	0.4337	0.7655	0.6751	-0.153
Mof_O 	O 	0.0789	0.659	0.5633	-0.253
Mof_O 	O 	0.8984	0.9103	0.7119	-0.556
Mof_O 	O 	0.9431	0.946	0.5789	-0.967
Mof_O 	O 	0.129	0.9371	0.7101	-0.565
Mof_S 	S 	0.99765	0.91247	0.65978	0.637
Mof_K 	K 	0.16138	0.03238	0.5963	2.356
Mof_H 	H 	0.439	0.8018	0.658	0.04
Mof_H 	H 	0.189	0.918	0.474	0.294
Mof_C 	C 	0.6777	0.2547	0.1188	-0.118
Mof_C 	C 	0.5638	0.2158	0.0824	0.233
Mof_C 	C 	0.431	0.2423	0.0682	-0.302
Mof_H 	H 	0.3541	0.219	0.0422	0.135
Mof_C 	C 	0.4139	0.3009	0.0919	0.22
Mof_H 	H 	0.3257	0.3165	0.0822	-0.137
Mof_C 	C 	0.5248	0.3377	0.1299	-0.285
Mof_C 	C 	0.6587	0.3135	0.1427	0.111
Mof_H 	H 	0.7344	0.3377	0.1676	-0.051
Mof_C 	C 	0.8186	0.2263	0.1296	-0.05
Mof_H 	H 	0.8291	0.2163	0.072	0.069
Mof_H 	H 	0.8232	0.1885	0.1621	0.07
Mof_C 	C 	0.0646	0.2328	0.1825	-0.11
Mof_H 	H 	0.0617	0.1934	0.2099	0.07
Mof_H 	H 	0.0765	0.2259	0.1244	0.053
Mof_C 	C 	0.1844	0.2693	0.2364	-0.041
Mof_H 	H 	0.2002	0.3041	0.2026	-0.031
Mof_H 	H 	0.1623	0.2845	0.2886	0.016
Mof_N 	N 	0.9337	0.2655	0.1751	-0.146
Mof_O 	O 	0.5789	0.159	0.0633	-0.231
Mof_O 	O 	0.3984	0.4103	0.2119	-0.564
Mof_O 	O 	0.4431	0.446	0.0789	-0.949
Mof_O 	O 	0.629	0.4371	0.2101	-0.579
Mof_S 	S 	0.49765	0.41247	0.15978	0.627
Mof_K 	K 	0.66138	0.53238	0.0963	2.574
Mof_H 	H 	0.939	0.3018	0.158	0.044
Mof_H 	H 	0.689	0.418	0.974	0.208
Mof_C 	C 	0.3223	0.7547	0.3812	-0.135
Mof_C 	C 	0.4362	0.7158	0.4176	0.23
Mof_C 	C 	0.569	0.7423	0.4318	-0.314
Mof_H 	H 	0.6459	0.719	0.4578	0.119
Mof_C 	C 	0.5861	0.8009	0.4081	0.217
Mof_H 	H 	0.6743	0.8165	0.4178	-0.148
Mof_C 	C 	0.4752	0.8377	0.3701	-0.299
Mof_C 	C 	0.3413	0.8135	0.3573	0.113
Mof_H 	H 	0.2656	0.8377	0.3324	-0.054
Mof_C 	C 	0.1814	0.7263	0.3704	-0.034
Mof_H 	H 	0.1709	0.7163	0.428	0.043
Mof_H 	H 	0.1768	0.6885	0.3379	0.059
Mof_C 	C 	0.9354	0.7328	0.3175	-0.077
Mof_H 	H 	0.9383	0.6934	0.2901	0.06
Mof_H 	H 	0.9235	0.7259	0.3756	0.034
Mof_C 	C 	0.8156	0.7693	0.2636	-0.075
Mof_H 	H 	0.7998	0.8041	0.2974	-0.019
Mof_H 	H 	0.8377	0.7845	0.2114	0.032
Mof_N 	N 	0.0663	0.7655	0.3249	-0.157
Mof_O 	O 	0.4211	0.659	0.4367	-0.255
Mof_O 	O 	0.6016	0.9103	0.2881	-0.55
Mof_O 	O 	0.5569	0.946	0.4211	-0.969
Mof_O 	O 	0.371	0.9371	0.2899	-0.562
Mof_S 	S 	0.50235	0.91247	0.34022	0.638
Mof_K 	K 	0.33862	0.03238	0.4037	2.407
Mof_H 	H 	0.061	0.8018	0.342	0.041
Mof_H 	H 	0.311	0.918	0.526	0.294
Mof_C 	C 	0.8223	0.2547	0.8812	-0.146
Mof_C 	C 	0.9362	0.2158	0.9176	0.231
Mof_C 	C 	0.069	0.2423	0.9318	-0.325
Mof_H 	H 	0.1459	0.219	0.9578	0.102
Mof_C 	C 	0.0861	0.3009	0.9081	0.203
Mof_H 	H 	0.1743	0.3165	0.9178	-0.153
Mof_C 	C 	0.9752	0.3377	0.8701	-0.298
Mof_C 	C 	0.8413	0.3135	0.8573	0.109
Mof_H 	H 	0.7656	0.3377	0.8324	-0.052
Mof_C 	C 	0.6814	0.2263	0.8704	-0.022
Mof_H 	H 	0.6709	0.2163	0.928	0.02
Mof_H 	H 	0.6768	0.1885	0.8379	0.054
Mof_C 	C 	0.4354	0.2328	0.8175	-0.067
Mof_H 	H 	0.4383	0.1934	0.7901	0.054
Mof_H 	H 	0.4235	0.2259	0.8756	0.019
Mof_C 	C 	0.3156	0.2693	0.7636	-0.086
Mof_H 	H 	0.2998	0.3041	0.7974	-0.013
Mof_H 	H 	0.3377	0.2845	0.7114	0.035
Mof_N 	N 	0.5663	0.2655	0.8249	-0.161
Mof_O 	O 	0.9211	0.159	0.9367	-0.275
Mof_O 	O 	0.1016	0.4103	0.7881	-0.535
Mof_O 	O 	0.0569	0.446	0.9211	-0.978
Mof_O 	O 	0.871	0.4371	0.7899	-0.544
Mof_S 	S 	0.00235	0.41247	0.84022	0.638
Mof_K 	K 	0.83862	0.53238	0.9037	2.155
Mof_H 	H 	0.561	0.3018	0.842	0.041
Mof_H 	H 	0.811	0.418	0.026	0.27
Mof_O 	O 	0.75	0.0574	0.5	-1.234
Mof_O 	O 	0.25	0.5574	-0	-1.105
Mof_O 	O 	0.25	0.9426	0.5	-1.232
Mof_O 	O 	0.75	0.4426	-0	-1.102
_end
