data_functionalizedCrystal
_audit_creation_method	'EQeq! by Chris Wilmer'
_symmetry_space_group_name_H-M	'P1'
_symmetry_Int_Tables_number	1
_symmetry_cell_setting	triclinic
loop_
_symmetry_equiv_pos_as_xyz
  x,y,z
_cell_length_a	10.134
_cell_length_b	10.836
_cell_length_c	13.741
_cell_angle_alpha	79.153
_cell_angle_beta	78.786
_cell_angle_gamma	86.276
loop_
_atom_site_label
_atom_site_type_symbol
_atom_site_fract_x
_atom_site_fract_y
_atom_site_fract_z
_atom_site_charge
Mof_Eu	Eu	0.68102	0.07748	0.70312	2.245
Mof_C 	C 	0.7018	0.4722	0.7268	-0.13
Mof_C 	C 	0.6785	0.4177	0.8285	-0.048
Mof_H 	H 	0.6729	0.3308	0.8469	0.06
Mof_C 	C 	0.6636	0.4905	0.9024	0.13
Mof_C 	C 	0.665	0.6208	0.8745	-0.089
Mof_H 	H 	0.6535	0.671	0.9235	0.1
Mof_C 	C 	0.6837	0.6752	0.7736	-0.054
Mof_C 	C 	0.7037	0.6017	0.6999	0.034
Mof_H 	H 	0.7184	0.6392	0.6321	0.022
Mof_C 	C 	0.687	0.8149	0.7475	0.327
Mof_C 	C 	0.7326	0.3941	0.6462	0.477
Mof_C 	C 	0.6658	0.4823	0.0821	0.223
Mof_C 	C 	0.6516	0.4003	0.1839	0.009
Mof_C 	C 	0.6512	0.2697	0.2019	-0.093
Mof_H 	H 	0.6546	0.2261	0.1492	0.065
Mof_C 	C 	0.6457	0.2062	0.2991	0.065
Mof_H 	H 	0.6453	0.1189	0.3101	0.007
Mof_C 	C 	0.6393	0.3874	0.3606	0.059
Mof_H 	H 	0.6346	0.4287	0.4147	0.017
Mof_C 	C 	0.6444	0.4578	0.2661	-0.091
Mof_H 	H 	0.643	0.5451	0.2574	0.079
Mof_C 	C 	0.2625	0.114	0.8321	-0.067
Mof_C 	C 	0.1586	0.1037	0.7834	0.026
Mof_H 	H 	0.1767	0.0859	0.7184	0.027
Mof_C 	C 	0.0259	0.1202	0.8317	-0.132
Mof_C 	C 	0.999	0.1498	0.9271	0.015
Mof_H 	H 	0.9105	0.1614	0.959	0.066
Mof_C 	C 	0.1041	0.1624	0.9755	0.083
Mof_C 	C 	0.2347	0.1419	0.9298	-0.062
Mof_H 	H 	0.3048	0.1466	0.9637	0.091
Mof_C 	C 	0.4067	0.098	0.7849	0.327
Mof_C 	C 	0.9092	0.1097	0.7822	0.348
Mof_C 	C 	0.9936	0.2956	0.092	0.225
Mof_C 	C 	0.9903	0.3381	0.1905	0.032
Mof_C 	C 	0.983	0.2574	0.281	-0.113
Mof_H 	H 	0.983	0.1709	0.284	0.065
Mof_C 	C 	0.9755	0.3063	0.3674	0.083
Mof_H 	H 	0.9677	0.251	0.4286	-0.032
Mof_C 	C 	0.9852	0.5064	0.2786	0.086
Mof_H 	H 	0.9868	0.5925	0.2771	-0.01
Mof_C 	C 	0.9894	0.4655	0.1892	-0.116
Mof_H 	H 	0.9915	0.5225	0.1292	0.115
Mof_N 	N 	0.6459	0.4304	0.0043	-0.238
Mof_H 	H 	0.6202	0.354	0.018	0.139
Mof_N 	N 	0.6408	0.2611	0.3783	-0.144
Mof_N 	N 	0.0792	0.1979	0.0723	-0.246
Mof_H 	H 	0.119	0.1569	0.1189	0.148
Mof_N 	N 	0.9791	0.4296	0.3677	-0.234
Mof_O 	O 	0.807	0.4356	0.5648	-0.473
Mof_O 	O 	0.6798	0.2871	0.6643	-0.597
Mof_O 	O 	0.6708	0.871	0.661	-0.487
Mof_O 	O 	0.7058	0.8771	0.8107	-0.46
Mof_O 	O 	0.6914	0.5918	0.0745	-0.23
Mof_O 	O 	0.441	0.099	0.6907	-0.461
Mof_O 	O 	0.4963	0.084	0.8373	-0.459
Mof_O 	O 	0.9269	0.095	0.6905	-0.47
Mof_O 	O 	0.7915	0.1147	0.8328	-0.457
Mof_O 	O 	0.9243	0.3511	0.0332	-0.22
Mof_Eu	Eu	0.31898	0.92252	0.29688	2.234
Mof_C 	C 	0.2982	0.5278	0.2732	-0.144
Mof_C 	C 	0.3215	0.5823	0.1715	-0.042
Mof_H 	H 	0.3271	0.6692	0.1531	0.052
Mof_C 	C 	0.3364	0.5095	0.0976	0.109
Mof_C 	C 	0.335	0.3792	0.1255	-0.084
Mof_H 	H 	0.3465	0.329	0.0765	0.093
Mof_C 	C 	0.3163	0.3248	0.2264	-0.067
Mof_C 	C 	0.2963	0.3983	0.3001	0.035
Mof_H 	H 	0.2816	0.3608	0.3679	0.015
Mof_C 	C 	0.313	0.1851	0.2525	0.325
Mof_C 	C 	0.2674	0.6059	0.3538	0.477
Mof_C 	C 	0.3342	0.5177	0.9179	0.221
Mof_C 	C 	0.3484	0.5997	0.8161	0.01
Mof_C 	C 	0.3488	0.7303	0.7981	-0.094
Mof_H 	H 	0.3454	0.7739	0.8508	0.064
Mof_C 	C 	0.3543	0.7938	0.7009	0.065
Mof_H 	H 	0.3547	0.8811	0.6899	0.008
Mof_C 	C 	0.3607	0.6126	0.6394	0.059
Mof_H 	H 	0.3654	0.5713	0.5853	0.016
Mof_C 	C 	0.3556	0.5422	0.7339	-0.092
Mof_H 	H 	0.357	0.4549	0.7426	0.078
Mof_C 	C 	0.7375	0.886	0.1679	0.035
Mof_C 	C 	0.8414	0.8963	0.2166	-0.121
Mof_H 	H 	0.8233	0.9141	0.2816	0.086
Mof_C 	C 	0.9741	0.8798	0.1683	0.109
Mof_C 	C 	0.001	0.8502	0.0729	-0.273
Mof_H 	H 	0.0895	0.8386	0.041	0.148
Mof_C 	C 	0.8959	0.8376	0.0245	0.244
Mof_C 	C 	0.7653	0.8581	0.0702	-0.178
Mof_H 	H 	0.6952	0.8534	0.0363	0.126
Mof_C 	C 	0.5933	0.902	0.2151	0.291
Mof_C 	C 	0.0908	0.8903	0.2178	0.227
Mof_C 	C 	0.0064	0.7044	0.908	0.181
Mof_C 	C 	0.0097	0.6619	0.8095	0.03
Mof_C 	C 	0.017	0.7426	0.719	-0.124
Mof_H 	H 	0.017	0.8291	0.716	0.054
Mof_C 	C 	0.0245	0.6937	0.6326	0.076
Mof_H 	H 	0.0323	0.749	0.5714	-0.044
Mof_C 	C 	0.0148	0.4936	0.7214	0.078
Mof_H 	H 	0.0132	0.4075	0.7229	-0.024
Mof_C 	C 	0.0106	0.5345	0.8108	-0.125
Mof_H 	H 	0.0085	0.4775	0.8708	0.103
Mof_N 	N 	0.3541	0.5696	0.9957	-0.231
Mof_H 	H 	0.3798	0.646	0.982	0.139
Mof_N 	N 	0.3592	0.7389	0.6217	-0.145
Mof_N 	N 	0.9208	0.8021	0.9277	-0.236
Mof_H 	H 	0.881	0.8431	0.8811	0.161
Mof_N 	N 	0.0209	0.5704	0.6323	-0.245
Mof_O 	O 	0.193	0.5644	0.4352	-0.488
Mof_O 	O 	0.3202	0.7129	0.3357	-0.598
Mof_O 	O 	0.3292	0.129	0.339	-0.493
Mof_O 	O 	0.2942	0.1229	0.1893	-0.465
Mof_O 	O 	0.3086	0.4082	0.9255	-0.229
Mof_O 	O 	0.559	0.901	0.3093	-0.45
Mof_O 	O 	0.5037	0.916	0.1627	-0.451
Mof_O 	O 	0.0731	0.905	0.3095	-0.465
Mof_O 	O 	0.2085	0.8853	0.1672	-0.433
Mof_O 	O 	0.0757	0.6489	0.9668	-0.223
Mof_Ni	Ni	6.11254e-18	0.5	0.5	1.033
_end
