data_functionalizedCrystal
_audit_creation_method	'EQeq! by Chris Wilmer'
_symmetry_space_group_name_H-M	'P1'
_symmetry_Int_Tables_number	1
_symmetry_cell_setting	triclinic
loop_
_symmetry_equiv_pos_as_xyz
  x,y,z
_cell_length_a	9.2141
_cell_length_b	13.4695
_cell_length_c	14.5918
_cell_angle_alpha	90
_cell_angle_beta	90.356
_cell_angle_gamma	90
loop_
_atom_site_label
_atom_site_type_symbol
_atom_site_fract_x
_atom_site_fract_y
_atom_site_fract_z
_atom_site_charge
Mof_Tb	Tb	0.2511	0.00298	0.09237	2.251
Mof_C 	C 	0.0043	0.1113	0.3274	-0.054
Mof_C 	C 	0.0292	0.205	0.3646	0.018
Mof_H 	H 	0.0955	0.2491	0.3361	0.045
Mof_C 	C 	0.9568	0.2341	0.4439	-0.124
Mof_C 	C 	0.8652	0.1671	0.4875	-0.049
Mof_H 	H 	0.8155	0.187	0.5413	0.062
Mof_C 	C 	0.8452	0.0714	0.4538	0.086
Mof_C 	C 	0.912	0.0454	0.372	-0.085
Mof_H 	H 	0.8945	0.9818	0.3462	0.079
Mof_C 	C 	0.7611	0.9971	0.5096	-0.235
Mof_H 	H 	0.703	0.031	0.556	0.109
Mof_H 	H 	0.829	0.953	0.546	0.101
Mof_C 	C 	0.6638	0.9273	0.4572	0.074
Mof_C 	C 	0.5897	0.9566	0.3786	-0.068
Mof_H 	H 	0.607	0.0208	0.3539	0.072
Mof_C 	C 	0.4909	0.8943	0.3354	-0.065
Mof_C 	C 	0.4638	0.8002	0.3715	0.034
Mof_H 	H 	0.3921	0.7587	0.3444	0.039
Mof_C 	C 	0.5427	0.7674	0.4477	-0.143
Mof_C 	C 	0.6426	0.8313	0.489	-0.034
Mof_H 	H 	0.6975	0.8086	0.5402	0.056
Mof_C 	C 	0.0836	0.0748	0.2437	0.299
Mof_C 	C 	0.9763	0.3365	0.4841	0.496
Mof_C 	C 	0.4119	0.9324	0.2521	0.309
Mof_C 	C 	0.5238	0.664	0.4862	0.545
Mof_O 	O 	0.0267	0.00737	0.19556	-0.392
Mof_O 	O 	0.2058	0.11211	0.22516	-0.406
Mof_O 	O 	0.067	0.39286	0.4494	-0.572
Mof_O 	O 	0.8993	0.35902	0.553	-0.523
Mof_O 	O 	0.4703	0.00236	0.20602	-0.375
Mof_O 	O 	0.2921	0.89564	0.22957	-0.403
Mof_O 	O 	0.4154	0.61569	0.46185	-0.595
Mof_O 	O 	0.6198	0.6333	0.54071	-0.569
Mof_Tb	Tb	0.2489	0.50298	0.40763	2.271
Mof_C 	C 	0.4957	0.6113	0.1726	-0.055
Mof_C 	C 	0.4708	0.705	0.1354	0.022
Mof_H 	H 	0.4045	0.7491	0.1639	0.044
Mof_C 	C 	0.5432	0.7341	0.0561	-0.128
Mof_C 	C 	0.6348	0.6671	0.0125	-0.041
Mof_H 	H 	0.6845	0.687	0.9587	0.059
Mof_C 	C 	0.6548	0.5714	0.0462	0.079
Mof_C 	C 	0.588	0.5454	0.128	-0.081
Mof_H 	H 	0.6055	0.4818	0.1538	0.076
Mof_C 	C 	0.7389	0.4971	0.9904	-0.229
Mof_H 	H 	0.797	0.531	0.944	0.106
Mof_H 	H 	0.671	0.453	0.954	0.101
Mof_C 	C 	0.8362	0.4273	0.0428	0.081
Mof_C 	C 	0.9103	0.4566	0.1214	-0.081
Mof_H 	H 	0.893	0.5208	0.1461	0.077
Mof_C 	C 	0.0091	0.3943	0.1646	-0.055
Mof_C 	C 	0.0362	0.3002	0.1285	0.028
Mof_H 	H 	0.1079	0.2587	0.1556	0.042
Mof_C 	C 	0.9573	0.2674	0.0523	-0.134
Mof_C 	C 	0.8574	0.3313	0.011	-0.052
Mof_H 	H 	0.8025	0.3086	0.9598	0.066
Mof_C 	C 	0.4164	0.5748	0.2563	0.3
Mof_C 	C 	0.5237	0.8365	0.0159	0.503
Mof_C 	C 	0.0881	0.4324	0.2479	0.3
Mof_C 	C 	0.9762	0.164	0.0138	0.523
Mof_O 	O 	0.4733	0.50737	0.30444	-0.392
Mof_O 	O 	0.2942	0.61211	0.27484	-0.407
Mof_O 	O 	0.433	0.89286	0.0506	-0.567
Mof_O 	O 	0.6007	0.85902	0.947	-0.526
Mof_O 	O 	0.0297	0.50236	0.29398	-0.371
Mof_O 	O 	0.2079	0.39564	0.27043	-0.404
Mof_O 	O 	0.0846	0.11569	0.03815	-0.587
Mof_O 	O 	0.8802	0.1333	0.95929	-0.552
Mof_Tb	Tb	0.7489	0.99702	0.90763	2.252
Mof_C 	C 	0.9957	0.8887	0.6726	-0.053
Mof_C 	C 	0.9708	0.795	0.6354	0.018
Mof_H 	H 	0.9045	0.7509	0.6639	0.045
Mof_C 	C 	0.0432	0.7659	0.5561	-0.124
Mof_C 	C 	0.1348	0.8329	0.5125	-0.049
Mof_H 	H 	0.1845	0.813	0.4587	0.062
Mof_C 	C 	0.1548	0.9286	0.5462	0.086
Mof_C 	C 	0.088	0.9546	0.628	-0.085
Mof_H 	H 	0.1055	0.0182	0.6538	0.079
Mof_C 	C 	0.2389	0.0029	0.4904	-0.235
Mof_H 	H 	0.297	0.969	0.444	0.109
Mof_H 	H 	0.171	0.047	0.454	0.101
Mof_C 	C 	0.3362	0.0727	0.5428	0.074
Mof_C 	C 	0.4103	0.0434	0.6214	-0.068
Mof_H 	H 	0.393	0.9792	0.6461	0.072
Mof_C 	C 	0.5091	0.1057	0.6646	-0.065
Mof_C 	C 	0.5362	0.1998	0.6285	0.034
Mof_H 	H 	0.6079	0.2413	0.6556	0.039
Mof_C 	C 	0.4573	0.2326	0.5523	-0.143
Mof_C 	C 	0.3574	0.1687	0.511	-0.034
Mof_H 	H 	0.3025	0.1914	0.4598	0.056
Mof_C 	C 	0.9164	0.9252	0.7563	0.299
Mof_C 	C 	0.0237	0.6635	0.5159	0.496
Mof_C 	C 	0.5881	0.0676	0.7479	0.309
Mof_C 	C 	0.4762	0.336	0.5138	0.545
Mof_O 	O 	0.9733	0.99263	0.80444	-0.392
Mof_O 	O 	0.7942	0.88789	0.77484	-0.406
Mof_O 	O 	0.933	0.60714	0.5506	-0.572
Mof_O 	O 	0.1007	0.64098	0.447	-0.523
Mof_O 	O 	0.5297	0.99764	0.79398	-0.375
Mof_O 	O 	0.7079	0.10436	0.77043	-0.403
Mof_O 	O 	0.5846	0.38431	0.53815	-0.595
Mof_O 	O 	0.3802	0.3667	0.45929	-0.569
Mof_Tb	Tb	0.7511	0.49702	0.59237	2.271
Mof_C 	C 	0.5043	0.3887	0.8274	-0.055
Mof_C 	C 	0.5292	0.295	0.8646	0.022
Mof_H 	H 	0.5955	0.2509	0.8361	0.044
Mof_C 	C 	0.4568	0.2659	0.9439	-0.128
Mof_C 	C 	0.3652	0.3329	0.9875	-0.041
Mof_H 	H 	0.3155	0.313	0.0413	0.059
Mof_C 	C 	0.3452	0.4286	0.9538	0.079
Mof_C 	C 	0.412	0.4546	0.872	-0.081
Mof_H 	H 	0.3945	0.5182	0.8462	0.076
Mof_C 	C 	0.2611	0.5029	0.0096	-0.229
Mof_H 	H 	0.203	0.469	0.056	0.106
Mof_H 	H 	0.329	0.547	0.046	0.101
Mof_C 	C 	0.1638	0.5727	0.9572	0.081
Mof_C 	C 	0.0897	0.5434	0.8786	-0.081
Mof_H 	H 	0.107	0.4792	0.8539	0.077
Mof_C 	C 	0.9909	0.6057	0.8354	-0.055
Mof_C 	C 	0.9638	0.6998	0.8715	0.028
Mof_H 	H 	0.8921	0.7413	0.8444	0.042
Mof_C 	C 	0.0427	0.7326	0.9477	-0.134
Mof_C 	C 	0.1426	0.6687	0.989	-0.052
Mof_H 	H 	0.1975	0.6914	0.0402	0.066
Mof_C 	C 	0.5836	0.4252	0.7437	0.3
Mof_C 	C 	0.4763	0.1635	0.9841	0.503
Mof_C 	C 	0.9119	0.5676	0.7521	0.3
Mof_C 	C 	0.0238	0.836	0.9862	0.523
Mof_O 	O 	0.5267	0.49263	0.69556	-0.392
Mof_O 	O 	0.7058	0.38789	0.72516	-0.407
Mof_O 	O 	0.567	0.10714	0.9494	-0.567
Mof_O 	O 	0.3993	0.14098	0.053	-0.526
Mof_O 	O 	0.9703	0.49764	0.70602	-0.371
Mof_O 	O 	0.7921	0.60436	0.72957	-0.404
Mof_O 	O 	0.9154	0.88431	0.96185	-0.587
Mof_O 	O 	0.1198	0.8667	0.04071	-0.552
_end
