data_functionalizedCrystal
_audit_creation_method	'EQeq! by Chris Wilmer'
_symmetry_space_group_name_H-M	'P1'
_symmetry_Int_Tables_number	1
_symmetry_cell_setting	triclinic
loop_
_symmetry_equiv_pos_as_xyz
  x,y,z
_cell_length_a	18.3532
_cell_length_b	18.3532
_cell_length_c	40.667
_cell_angle_alpha	90
_cell_angle_beta	90
_cell_angle_gamma	120
loop_
_atom_site_label
_atom_site_type_symbol
_atom_site_fract_x
_atom_site_fract_y
_atom_site_fract_z
_atom_site_charge
Mof_O 	O 	0.5873	0.0251	0.04367	-0.405
Mof_O 	O 	0.62914	0.10936	0.99942	-0.4
Mof_O 	O 	0.8913	0	0.2112	-0.289
Mof_O 	O 	0.8649	0.8463	0.2785	-0.201
Mof_C 	C 	0.6398	0.0884	0.02845	0.374
Mof_C 	C 	0.7223	0.1447	0.04314	-0.139
Mof_C 	C 	0.7454	0.1243	0.07198	0.067
Mof_H 	H 	0.7091	0.0729	0.0818	0.019
Mof_C 	C 	0.9008	0.6877	0.3583	0.033
Mof_H 	H 	0.9188	0.6491	0.3617	0.016
Mof_C 	C 	0.9264	0.7403	0.3294	-0.087
Mof_H 	H 	0.9625	0.7371	0.3142	0.069
Mof_C 	C 	0.8198	0.0723	0.1255	-0.362
Mof_H 	H 	0.7831	0.0313	0.1109	0.159
Mof_C 	C 	0.8424	0.0476	0.1533	0.342
Mof_H 	H 	0.819	0.9903	0.1573	-0.09
Mof_O 	O 	0.9749	0.5622	0.04367	-0.422
Mof_O 	O 	0.89064	0.51978	0.99942	-0.409
Mof_O 	O 	1.93556e-17	0.8913	0.2112	-0.253
Mof_O 	O 	0.1537	0.0186	0.2785	-0.21
Mof_C 	C 	0.9116	0.5514	0.02845	0.369
Mof_C 	C 	0.8553	0.5776	0.04314	-0.129
Mof_C 	C 	0.8757	0.6211	0.07198	0.041
Mof_H 	H 	0.9271	0.6362	0.0818	0.025
Mof_C 	C 	0.3123	0.2131	0.3583	0.319
Mof_H 	H 	0.3509	0.2697	0.3617	-0.083
Mof_C 	C 	0.2597	0.1861	0.3294	-0.425
Mof_H 	H 	0.2629	0.2254	0.3142	0.196
Mof_C 	C 	0.9277	0.7475	0.1255	-0.252
Mof_H 	H 	0.9687	0.7518	0.1109	0.111
Mof_C 	C 	0.9524	0.7948	0.1533	0.172
Mof_H 	H 	0.0097	0.8287	0.1573	-0.002
Mof_O 	O 	0.4378	0.4127	0.04367	-0.416
Mof_O 	O 	0.48022	0.37086	0.99942	-0.406
Mof_O 	O 	0.1087	0.1087	0.2112	-0.301
Mof_O 	O 	0.9814	0.1351	0.2785	-0.247
Mof_C 	C 	0.4486	0.3602	0.02845	0.381
Mof_C 	C 	0.4224	0.2777	0.04314	-0.157
Mof_C 	C 	0.3789	0.2546	0.07198	0.098
Mof_H 	H 	0.3638	0.2909	0.0818	0.005
Mof_C 	C 	0.7869	0.0992	0.3583	0.053
Mof_H 	H 	0.7303	0.0812	0.3617	0.012
Mof_C 	C 	0.8139	0.0736	0.3294	-0.152
Mof_H 	H 	0.7746	0.0375	0.3142	0.103
Mof_C 	C 	0.2525	0.1802	0.1255	-0.726
Mof_H 	H 	0.2482	0.2169	0.1109	0.282
Mof_C 	C 	0.2052	0.1576	0.1533	0.672
Mof_H 	H 	0.1713	0.181	0.1573	-0.18
Mof_O 	O 	0.4127	0.9749	0.54367	-0.423
Mof_O 	O 	0.37086	0.89064	0.49942	-0.409
Mof_O 	O 	0.1087	0	0.7112	-0.247
Mof_O 	O 	0.1351	0.1537	0.7785	-0.211
Mof_C 	C 	0.3602	0.9116	0.52845	0.375
Mof_C 	C 	0.2777	0.8553	0.54314	-0.143
Mof_C 	C 	0.2546	0.8757	0.57198	0.069
Mof_H 	H 	0.2909	0.9271	0.5818	0.014
Mof_C 	C 	0.0992	0.3123	0.8583	0.234
Mof_H 	H 	0.0812	0.3509	0.8617	-0.051
Mof_C 	C 	0.0736	0.2597	0.8294	-0.354
Mof_H 	H 	0.0375	0.2629	0.8142	0.176
Mof_C 	C 	0.1802	0.9277	0.6255	-0.524
Mof_H 	H 	0.2169	0.9687	0.6109	0.207
Mof_C 	C 	0.1576	0.9524	0.6533	0.44
Mof_H 	H 	0.181	0.0097	0.6573	-0.089
Mof_O 	O 	0.0251	0.4378	0.54367	-0.407
Mof_O 	O 	0.10936	0.48022	0.49942	-0.402
Mof_O 	O 	8.25955e-18	0.1087	0.7112	-0.293
Mof_O 	O 	0.8463	0.9814	0.7785	-0.244
Mof_C 	C 	0.0884	0.4486	0.52845	0.38
Mof_C 	C 	0.1447	0.4224	0.54314	-0.155
Mof_C 	C 	0.1243	0.3789	0.57198	0.098
Mof_H 	H 	0.0729	0.3638	0.5818	0.008
Mof_C 	C 	0.6877	0.7869	0.8583	-0.044
Mof_H 	H 	0.6491	0.7303	0.8617	0.045
Mof_C 	C 	0.7403	0.8139	0.8294	-0.022
Mof_H 	H 	0.7371	0.7746	0.8142	0.05
Mof_C 	C 	0.0723	0.2525	0.6255	-0.641
Mof_H 	H 	0.0313	0.2482	0.6109	0.257
Mof_C 	C 	0.0476	0.2052	0.6533	0.621
Mof_H 	H 	0.9903	0.1713	0.6573	-0.181
Mof_O 	O 	0.5622	0.5873	0.54367	-0.414
Mof_O 	O 	0.51978	0.62914	0.49942	-0.405
Mof_O 	O 	0.8913	0.8913	0.7112	-0.304
Mof_O 	O 	0.0186	0.8649	0.7785	-0.203
Mof_C 	C 	0.5514	0.6398	0.52845	0.368
Mof_C 	C 	0.5776	0.7223	0.54314	-0.127
Mof_C 	C 	0.6211	0.7454	0.57198	0.04
Mof_H 	H 	0.6362	0.7091	0.5818	0.027
Mof_C 	C 	0.2131	0.9008	0.8583	0.215
Mof_H 	H 	0.2697	0.9188	0.8617	-0.048
Mof_C 	C 	0.1861	0.9264	0.8294	-0.29
Mof_H 	H 	0.2254	0.9625	0.8142	0.143
Mof_C 	C 	0.7475	0.8198	0.6255	-0.175
Mof_H 	H 	0.7518	0.7831	0.6109	0.089
Mof_C 	C 	0.7948	0.8424	0.6533	0.125
Mof_H 	H 	0.8287	0.819	0.6573	-0.002
Mof_O 	O 	0.0251	0.5873	0.95633	-0.406
Mof_O 	O 	0.10936	0.62914	0.00058	-0.401
Mof_O 	O 	1.59521e-17	0.8913	0.7888	-0.29
Mof_O 	O 	0.8463	0.8649	0.7215	-0.202
Mof_C 	C 	0.0884	0.6398	0.97155	0.373
Mof_C 	C 	0.1447	0.7223	0.95686	-0.14
Mof_C 	C 	0.1243	0.7454	0.92802	0.067
Mof_H 	H 	0.0729	0.7091	0.9182	0.019
Mof_C 	C 	0.6877	0.9008	0.6417	0.033
Mof_H 	H 	0.6491	0.9188	0.6383	0.016
Mof_C 	C 	0.7403	0.9264	0.6706	-0.087
Mof_H 	H 	0.7371	0.9625	0.6858	0.069
Mof_C 	C 	0.0723	0.8198	0.8745	-0.362
Mof_H 	H 	0.0313	0.7831	0.8891	0.159
Mof_C 	C 	0.0476	0.8424	0.8467	0.342
Mof_H 	H 	0.9903	0.819	0.8427	-0.09
Mof_O 	O 	0.5622	0.9749	0.95633	-0.422
Mof_O 	O 	0.51978	0.89064	0.00058	-0.409
Mof_O 	O 	0.8913	0	0.7888	-0.253
Mof_O 	O 	0.0186	0.1537	0.7215	-0.21
Mof_C 	C 	0.5514	0.9116	0.97155	0.369
Mof_C 	C 	0.5776	0.8553	0.95686	-0.129
Mof_C 	C 	0.6211	0.8757	0.92802	0.041
Mof_H 	H 	0.6362	0.9271	0.9182	0.025
Mof_C 	C 	0.2131	0.3123	0.6417	0.319
Mof_H 	H 	0.2697	0.3509	0.6383	-0.083
Mof_C 	C 	0.1861	0.2597	0.6706	-0.425
Mof_H 	H 	0.2254	0.2629	0.6858	0.196
Mof_C 	C 	0.7475	0.9277	0.8745	-0.252
Mof_H 	H 	0.7518	0.9687	0.8891	0.111
Mof_C 	C 	0.7948	0.9524	0.8467	0.172
Mof_H 	H 	0.8287	0.0097	0.8427	-0.002
Mof_O 	O 	0.4127	0.4378	0.95633	-0.416
Mof_O 	O 	0.37086	0.48022	0.00058	-0.406
Mof_O 	O 	0.1087	0.1087	0.7888	-0.301
Mof_O 	O 	0.1351	0.9814	0.7215	-0.247
Mof_C 	C 	0.3602	0.4486	0.97155	0.381
Mof_C 	C 	0.2777	0.4224	0.95686	-0.157
Mof_C 	C 	0.2546	0.3789	0.92802	0.098
Mof_H 	H 	0.2909	0.3638	0.9182	0.005
Mof_C 	C 	0.0992	0.7869	0.6417	0.053
Mof_H 	H 	0.0812	0.7303	0.6383	0.012
Mof_C 	C 	0.0736	0.8139	0.6706	-0.152
Mof_H 	H 	0.0375	0.7746	0.6858	0.103
Mof_C 	C 	0.1802	0.2525	0.8745	-0.726
Mof_H 	H 	0.2169	0.2482	0.8891	0.282
Mof_C 	C 	0.1576	0.2052	0.8467	0.672
Mof_H 	H 	0.181	0.1713	0.8427	-0.18
Mof_O 	O 	0.9749	0.4127	0.45633	-0.423
Mof_O 	O 	0.89064	0.37086	0.50058	-0.409
Mof_O 	O 	-1.70175e-18	0.1087	0.2888	-0.247
Mof_O 	O 	0.1537	0.1351	0.2215	-0.211
Mof_C 	C 	0.9116	0.3602	0.47155	0.375
Mof_C 	C 	0.8553	0.2777	0.45686	-0.143
Mof_C 	C 	0.8757	0.2546	0.42802	0.069
Mof_H 	H 	0.9271	0.2909	0.4182	0.014
Mof_C 	C 	0.3123	0.0992	0.1417	0.234
Mof_H 	H 	0.3509	0.0812	0.1383	-0.051
Mof_C 	C 	0.2597	0.0736	0.1706	-0.354
Mof_H 	H 	0.2629	0.0375	0.1858	0.176
Mof_C 	C 	0.9277	0.1802	0.3745	-0.524
Mof_H 	H 	0.9687	0.2169	0.3891	0.207
Mof_C 	C 	0.9524	0.1576	0.3467	0.44
Mof_H 	H 	0.0097	0.181	0.3427	-0.089
Mof_O 	O 	0.4378	0.0251	0.45633	-0.407
Mof_O 	O 	0.48022	0.10936	0.50058	-0.402
Mof_O 	O 	0.1087	0	0.2888	-0.293
Mof_O 	O 	0.9814	0.8463	0.2215	-0.244
Mof_C 	C 	0.4486	0.0884	0.47155	0.38
Mof_C 	C 	0.4224	0.1447	0.45686	-0.155
Mof_C 	C 	0.3789	0.1243	0.42802	0.098
Mof_H 	H 	0.3638	0.0729	0.4182	0.008
Mof_C 	C 	0.7869	0.6877	0.1417	-0.044
Mof_H 	H 	0.7303	0.6491	0.1383	0.045
Mof_C 	C 	0.8139	0.7403	0.1706	-0.022
Mof_H 	H 	0.7746	0.7371	0.1858	0.05
Mof_C 	C 	0.2525	0.0723	0.3745	-0.641
Mof_H 	H 	0.2482	0.0313	0.3891	0.257
Mof_C 	C 	0.2052	0.0476	0.3467	0.621
Mof_H 	H 	0.1713	0.9903	0.3427	-0.181
Mof_O 	O 	0.5873	0.5622	0.45633	-0.414
Mof_O 	O 	0.62914	0.51978	0.50058	-0.405
Mof_O 	O 	0.8913	0.8913	0.2888	-0.304
Mof_O 	O 	0.8649	0.0186	0.2215	-0.203
Mof_C 	C 	0.6398	0.5514	0.47155	0.368
Mof_C 	C 	0.7223	0.5776	0.45686	-0.127
Mof_C 	C 	0.7454	0.6211	0.42802	0.04
Mof_H 	H 	0.7091	0.6362	0.4182	0.027
Mof_C 	C 	0.9008	0.2131	0.1417	0.215
Mof_H 	H 	0.9188	0.2697	0.1383	-0.048
Mof_C 	C 	0.9264	0.1861	0.1706	-0.29
Mof_H 	H 	0.9625	0.2254	0.1858	0.143
Mof_C 	C 	0.8198	0.7475	0.3745	-0.175
Mof_H 	H 	0.7831	0.7518	0.3891	0.089
Mof_C 	C 	0.8424	0.7948	0.3467	0.125
Mof_H 	H 	0.819	0.8287	0.3427	-0.002
Mof_O 	O 	0.4127	0.9749	0.95633	-0.423
Mof_O 	O 	0.37086	0.89064	0.00058	-0.409
Mof_O 	O 	0.1087	0	0.7888	-0.248
Mof_O 	O 	0.1351	0.1537	0.7215	-0.211
Mof_C 	C 	0.3602	0.9116	0.97155	0.375
Mof_C 	C 	0.2777	0.8553	0.95686	-0.143
Mof_C 	C 	0.2546	0.8757	0.92802	0.069
Mof_H 	H 	0.2909	0.9271	0.9182	0.014
Mof_C 	C 	0.0992	0.3123	0.6417	0.234
Mof_H 	H 	0.0812	0.3509	0.6383	-0.051
Mof_C 	C 	0.0736	0.2597	0.6706	-0.354
Mof_H 	H 	0.0375	0.2629	0.6858	0.176
Mof_C 	C 	0.1802	0.9277	0.8745	-0.524
Mof_H 	H 	0.2169	0.9687	0.8891	0.207
Mof_C 	C 	0.1576	0.9524	0.8467	0.441
Mof_H 	H 	0.181	0.0097	0.8427	-0.089
Mof_O 	O 	0.0251	0.4378	0.95633	-0.407
Mof_O 	O 	0.10936	0.48022	0.00058	-0.402
Mof_O 	O 	6.36878e-18	0.1087	0.7888	-0.293
Mof_O 	O 	0.8463	0.9814	0.7215	-0.244
Mof_C 	C 	0.0884	0.4486	0.97155	0.38
Mof_C 	C 	0.1447	0.4224	0.95686	-0.155
Mof_C 	C 	0.1243	0.3789	0.92802	0.098
Mof_H 	H 	0.0729	0.3638	0.9182	0.008
Mof_C 	C 	0.6877	0.7869	0.6417	-0.044
Mof_H 	H 	0.6491	0.7303	0.6383	0.045
Mof_C 	C 	0.7403	0.8139	0.6706	-0.021
Mof_H 	H 	0.7371	0.7746	0.6858	0.05
Mof_C 	C 	0.0723	0.2525	0.8745	-0.641
Mof_H 	H 	0.0313	0.2482	0.8891	0.257
Mof_C 	C 	0.0476	0.2052	0.8467	0.621
Mof_H 	H 	0.9903	0.1713	0.8427	-0.181
Mof_O 	O 	0.5622	0.5873	0.95633	-0.414
Mof_O 	O 	0.51978	0.62914	0.00058	-0.405
Mof_O 	O 	0.8913	0.8913	0.7888	-0.304
Mof_O 	O 	0.0186	0.8649	0.7215	-0.203
Mof_C 	C 	0.5514	0.6398	0.97155	0.368
Mof_C 	C 	0.5776	0.7223	0.95686	-0.127
Mof_C 	C 	0.6211	0.7454	0.92802	0.04
Mof_H 	H 	0.6362	0.7091	0.9182	0.027
Mof_C 	C 	0.2131	0.9008	0.6417	0.215
Mof_H 	H 	0.2697	0.9188	0.6383	-0.048
Mof_C 	C 	0.1861	0.9264	0.6706	-0.29
Mof_H 	H 	0.2254	0.9625	0.6858	0.143
Mof_C 	C 	0.7475	0.8198	0.8745	-0.175
Mof_H 	H 	0.7518	0.7831	0.8891	0.089
Mof_C 	C 	0.7948	0.8424	0.8467	0.125
Mof_H 	H 	0.8287	0.819	0.8427	-0.003
Mof_O 	O 	0.5873	0.0251	0.45633	-0.406
Mof_O 	O 	0.62914	0.10936	0.50058	-0.401
Mof_O 	O 	0.8913	0	0.2888	-0.29
Mof_O 	O 	0.8649	0.8463	0.2215	-0.202
Mof_C 	C 	0.6398	0.0884	0.47155	0.373
Mof_C 	C 	0.7223	0.1447	0.45686	-0.139
Mof_C 	C 	0.7454	0.1243	0.42802	0.067
Mof_H 	H 	0.7091	0.0729	0.4182	0.019
Mof_C 	C 	0.9008	0.6877	0.1417	0.033
Mof_H 	H 	0.9188	0.6491	0.1383	0.016
Mof_C 	C 	0.9264	0.7403	0.1706	-0.087
Mof_H 	H 	0.9625	0.7371	0.1858	0.069
Mof_C 	C 	0.8198	0.0723	0.3745	-0.362
Mof_H 	H 	0.7831	0.0313	0.3891	0.159
Mof_C 	C 	0.8424	0.0476	0.3467	0.342
Mof_H 	H 	0.819	0.9903	0.3427	-0.09
Mof_O 	O 	0.9749	0.5622	0.45633	-0.422
Mof_O 	O 	0.89064	0.51978	0.50058	-0.409
Mof_O 	O 	-1.70175e-18	0.8913	0.2888	-0.253
Mof_O 	O 	0.1537	0.0186	0.2215	-0.21
Mof_C 	C 	0.9116	0.5514	0.47155	0.369
Mof_C 	C 	0.8553	0.5776	0.45686	-0.129
Mof_C 	C 	0.8757	0.6211	0.42802	0.041
Mof_H 	H 	0.9271	0.6362	0.4182	0.025
Mof_C 	C 	0.3123	0.2131	0.1417	0.319
Mof_H 	H 	0.3509	0.2697	0.1383	-0.083
Mof_C 	C 	0.2597	0.1861	0.1706	-0.425
Mof_H 	H 	0.2629	0.2254	0.1858	0.196
Mof_C 	C 	0.9277	0.7475	0.3745	-0.252
Mof_H 	H 	0.9687	0.7518	0.3891	0.111
Mof_C 	C 	0.9524	0.7948	0.3467	0.172
Mof_H 	H 	0.0097	0.8287	0.3427	-0.002
Mof_O 	O 	0.4378	0.4127	0.45633	-0.416
Mof_O 	O 	0.48022	0.37086	0.50058	-0.406
Mof_O 	O 	0.1087	0.1087	0.2888	-0.301
Mof_O 	O 	0.9814	0.1351	0.2215	-0.247
Mof_C 	C 	0.4486	0.3602	0.47155	0.381
Mof_C 	C 	0.4224	0.2777	0.45686	-0.157
Mof_C 	C 	0.3789	0.2546	0.42802	0.098
Mof_H 	H 	0.3638	0.2909	0.4182	0.005
Mof_C 	C 	0.7869	0.0992	0.1417	0.053
Mof_H 	H 	0.7303	0.0812	0.1383	0.012
Mof_C 	C 	0.8139	0.0736	0.1706	-0.152
Mof_H 	H 	0.7746	0.0375	0.1858	0.103
Mof_C 	C 	0.2525	0.1802	0.3745	-0.726
Mof_H 	H 	0.2482	0.2169	0.3891	0.282
Mof_C 	C 	0.2052	0.1576	0.3467	0.672
Mof_H 	H 	0.1713	0.181	0.3427	-0.18
Mof_O 	O 	0.9749	0.4127	0.04367	-0.423
Mof_O 	O 	0.89064	0.37086	0.99942	-0.409
Mof_O 	O 	9.77229e-18	0.1087	0.2112	-0.248
Mof_O 	O 	0.1537	0.1351	0.2785	-0.211
Mof_C 	C 	0.9116	0.3602	0.02845	0.375
Mof_C 	C 	0.8553	0.2777	0.04314	-0.143
Mof_C 	C 	0.8757	0.2546	0.07198	0.069
Mof_H 	H 	0.9271	0.2909	0.0818	0.014
Mof_C 	C 	0.3123	0.0992	0.3583	0.234
Mof_H 	H 	0.3509	0.0812	0.3617	-0.051
Mof_C 	C 	0.2597	0.0736	0.3294	-0.354
Mof_H 	H 	0.2629	0.0375	0.3142	0.176
Mof_C 	C 	0.9277	0.1802	0.1255	-0.524
Mof_H 	H 	0.9687	0.2169	0.1109	0.207
Mof_C 	C 	0.9524	0.1576	0.1533	0.441
Mof_H 	H 	0.0097	0.181	0.1573	-0.089
Mof_O 	O 	0.4378	0.0251	0.04367	-0.407
Mof_O 	O 	0.48022	0.10936	0.99942	-0.402
Mof_O 	O 	0.1087	0	0.2112	-0.293
Mof_O 	O 	0.9814	0.8463	0.2785	-0.244
Mof_C 	C 	0.4486	0.0884	0.02845	0.38
Mof_C 	C 	0.4224	0.1447	0.04314	-0.155
Mof_C 	C 	0.3789	0.1243	0.07198	0.098
Mof_H 	H 	0.3638	0.0729	0.0818	0.008
Mof_C 	C 	0.7869	0.6877	0.3583	-0.044
Mof_H 	H 	0.7303	0.6491	0.3617	0.045
Mof_C 	C 	0.8139	0.7403	0.3294	-0.021
Mof_H 	H 	0.7746	0.7371	0.3142	0.05
Mof_C 	C 	0.2525	0.0723	0.1255	-0.641
Mof_H 	H 	0.2482	0.0313	0.1109	0.257
Mof_C 	C 	0.2052	0.0476	0.1533	0.621
Mof_H 	H 	0.1713	0.9903	0.1573	-0.181
Mof_O 	O 	0.5873	0.5622	0.04367	-0.414
Mof_O 	O 	0.62914	0.51978	0.99942	-0.405
Mof_O 	O 	0.8913	0.8913	0.2112	-0.304
Mof_O 	O 	0.8649	0.0186	0.2785	-0.203
Mof_C 	C 	0.6398	0.5514	0.02845	0.368
Mof_C 	C 	0.7223	0.5776	0.04314	-0.127
Mof_C 	C 	0.7454	0.6211	0.07198	0.04
Mof_H 	H 	0.7091	0.6362	0.0818	0.027
Mof_C 	C 	0.9008	0.2131	0.3583	0.215
Mof_H 	H 	0.9188	0.2697	0.3617	-0.048
Mof_C 	C 	0.9264	0.1861	0.3294	-0.29
Mof_H 	H 	0.9625	0.2254	0.3142	0.143
Mof_C 	C 	0.8198	0.7475	0.1255	-0.175
Mof_H 	H 	0.7831	0.7518	0.1109	0.089
Mof_C 	C 	0.8424	0.7948	0.1533	0.125
Mof_H 	H 	0.819	0.8287	0.1573	-0.003
Mof_O 	O 	0.0251	0.5873	0.54367	-0.406
Mof_O 	O 	0.10936	0.62914	0.49942	-0.401
Mof_O 	O 	3.70094e-17	0.8913	0.7112	-0.29
Mof_O 	O 	0.8463	0.8649	0.7785	-0.202
Mof_C 	C 	0.0884	0.6398	0.52845	0.373
Mof_C 	C 	0.1447	0.7223	0.54314	-0.139
Mof_C 	C 	0.1243	0.7454	0.57198	0.067
Mof_H 	H 	0.0729	0.7091	0.5818	0.019
Mof_C 	C 	0.6877	0.9008	0.8583	0.033
Mof_H 	H 	0.6491	0.9188	0.8617	0.016
Mof_C 	C 	0.7403	0.9264	0.8294	-0.087
Mof_H 	H 	0.7371	0.9625	0.8142	0.069
Mof_C 	C 	0.0723	0.8198	0.6255	-0.362
Mof_H 	H 	0.0313	0.7831	0.6109	0.159
Mof_C 	C 	0.0476	0.8424	0.6533	0.342
Mof_H 	H 	0.9903	0.819	0.6573	-0.09
Mof_O 	O 	0.5622	0.9749	0.54367	-0.422
Mof_O 	O 	0.51978	0.89064	0.49942	-0.409
Mof_O 	O 	0.8913	0	0.7112	-0.253
Mof_O 	O 	0.0186	0.1537	0.7785	-0.21
Mof_C 	C 	0.5514	0.9116	0.52845	0.369
Mof_C 	C 	0.5776	0.8553	0.54314	-0.129
Mof_C 	C 	0.6211	0.8757	0.57198	0.041
Mof_H 	H 	0.6362	0.9271	0.5818	0.025
Mof_C 	C 	0.2131	0.3123	0.8583	0.319
Mof_H 	H 	0.2697	0.3509	0.8617	-0.083
Mof_C 	C 	0.1861	0.2597	0.8294	-0.425
Mof_H 	H 	0.2254	0.2629	0.8142	0.196
Mof_C 	C 	0.7475	0.9277	0.6255	-0.252
Mof_H 	H 	0.7518	0.9687	0.6109	0.111
Mof_C 	C 	0.7948	0.9524	0.6533	0.172
Mof_H 	H 	0.8287	0.0097	0.6573	-0.002
Mof_O 	O 	0.4127	0.4378	0.54367	-0.416
Mof_O 	O 	0.37086	0.48022	0.49942	-0.406
Mof_O 	O 	0.1087	0.1087	0.7112	-0.301
Mof_O 	O 	0.1351	0.9814	0.7785	-0.247
Mof_C 	C 	0.3602	0.4486	0.52845	0.381
Mof_C 	C 	0.2777	0.4224	0.54314	-0.157
Mof_C 	C 	0.2546	0.3789	0.57198	0.098
Mof_H 	H 	0.2909	0.3638	0.5818	0.005
Mof_C 	C 	0.0992	0.7869	0.8583	0.053
Mof_H 	H 	0.0812	0.7303	0.8617	0.012
Mof_C 	C 	0.0736	0.8139	0.8294	-0.152
Mof_H 	H 	0.0375	0.7746	0.8142	0.103
Mof_C 	C 	0.1802	0.2525	0.6255	-0.726
Mof_H 	H 	0.2169	0.2482	0.6109	0.282
Mof_C 	C 	0.1576	0.2052	0.6533	0.672
Mof_H 	H 	0.181	0.1713	0.6573	-0.18
Mof_Cu	Cu	0.47568	0.95136	0.02559	0.896
Mof_Cu	Cu	0.04864	0.52432	0.02559	0.912
Mof_Cu	Cu	0.47568	0.52432	0.02559	0.904
Mof_Cu	Cu	0.52432	0.04864	0.52559	0.912
Mof_Cu	Cu	0.95136	0.47568	0.52559	0.896
Mof_Cu	Cu	0.52432	0.47568	0.52559	0.904
Mof_Cu	Cu	0.95136	0.47568	0.97441	0.896
Mof_Cu	Cu	0.52432	0.04864	0.97441	0.912
Mof_Cu	Cu	0.52432	0.47568	0.97441	0.904
Mof_Cu	Cu	0.04864	0.52432	0.47441	0.912
Mof_Cu	Cu	0.47568	0.95136	0.47441	0.896
Mof_Cu	Cu	0.47568	0.52432	0.47441	0.904
Mof_Cu	Cu	0.8853	0.94265	0.25	0.94
Mof_Cu	Cu	0.05735	0.94265	0.25	0.946
Mof_Cu	Cu	0.05735	0.1147	0.25	0.957
Mof_Cu	Cu	0.1147	0.05735	0.75	0.957
Mof_Cu	Cu	0.94265	0.05735	0.75	0.946
Mof_Cu	Cu	0.94265	0.8853	0.75	0.94
Mof_C 	C 	0.7785	0.2215	0.02923	0.081
Mof_H 	H 	0.7639	0.2361	0.0094	0.035
Mof_C 	C 	0.82195	0.17805	0.0872	-0.129
Mof_C 	C 	0.84785	0.15215	0.1184	0.248
Mof_C 	C 	0.89735	0.10265	0.1754	-0.254
Mof_C 	C 	0.92435	0.07565	0.2048	0.522
Mof_C 	C 	0.7785	0.557	0.02923	0.067
Mof_H 	H 	0.7639	0.5278	0.0094	0.039
Mof_C 	C 	0.82195	0.6439	0.0872	-0.087
Mof_C 	C 	0.84785	0.6957	0.1184	0.156
Mof_C 	C 	0.89735	0.7947	0.1754	-0.203
Mof_C 	C 	0.92435	0.8487	0.2048	0.501
Mof_C 	C 	0.443	0.2215	0.02923	0.097
Mof_H 	H 	0.4722	0.2361	0.0094	0.031
Mof_C 	C 	0.3561	0.17805	0.0872	-0.175
Mof_C 	C 	0.3043	0.15215	0.1184	0.348
Mof_C 	C 	0.2053	0.10265	0.1754	-0.322
Mof_C 	C 	0.1513	0.07565	0.2048	0.567
Mof_C 	C 	0.2215	0.7785	0.52923	0.081
Mof_H 	H 	0.2361	0.7639	0.5094	0.035
Mof_C 	C 	0.17805	0.82195	0.5872	-0.129
Mof_C 	C 	0.15215	0.84785	0.6184	0.248
Mof_C 	C 	0.10265	0.89735	0.6754	-0.254
Mof_C 	C 	0.07565	0.92435	0.7048	0.522
Mof_C 	C 	0.2215	0.443	0.52923	0.097
Mof_H 	H 	0.2361	0.4722	0.5094	0.031
Mof_C 	C 	0.17805	0.3561	0.5872	-0.175
Mof_C 	C 	0.15215	0.3043	0.6184	0.348
Mof_C 	C 	0.10265	0.2053	0.6754	-0.322
Mof_C 	C 	0.07565	0.1513	0.7048	0.567
Mof_C 	C 	0.557	0.7785	0.52923	0.067
Mof_H 	H 	0.5278	0.7639	0.5094	0.039
Mof_C 	C 	0.6439	0.82195	0.5872	-0.087
Mof_C 	C 	0.6957	0.84785	0.6184	0.156
Mof_C 	C 	0.7947	0.89735	0.6754	-0.202
Mof_C 	C 	0.8487	0.92435	0.7048	0.501
Mof_C 	C 	0.2215	0.7785	0.97077	0.081
Mof_H 	H 	0.2361	0.7639	0.9906	0.035
Mof_C 	C 	0.17805	0.82195	0.9128	-0.129
Mof_C 	C 	0.15215	0.84785	0.8816	0.248
Mof_C 	C 	0.10265	0.89735	0.8246	-0.254
Mof_C 	C 	0.07565	0.92435	0.7952	0.522
Mof_C 	C 	0.557	0.7785	0.97077	0.067
Mof_H 	H 	0.5278	0.7639	0.9906	0.039
Mof_C 	C 	0.6439	0.82195	0.9128	-0.087
Mof_C 	C 	0.6957	0.84785	0.8816	0.156
Mof_C 	C 	0.7947	0.89735	0.8246	-0.203
Mof_C 	C 	0.8487	0.92435	0.7952	0.501
Mof_C 	C 	0.2215	0.443	0.97077	0.097
Mof_H 	H 	0.2361	0.4722	0.9906	0.031
Mof_C 	C 	0.17805	0.3561	0.9128	-0.175
Mof_C 	C 	0.15215	0.3043	0.8816	0.348
Mof_C 	C 	0.10265	0.2053	0.8246	-0.322
Mof_C 	C 	0.07565	0.1513	0.7952	0.567
Mof_C 	C 	0.7785	0.2215	0.47077	0.081
Mof_H 	H 	0.7639	0.2361	0.4906	0.035
Mof_C 	C 	0.82195	0.17805	0.4128	-0.129
Mof_C 	C 	0.84785	0.15215	0.3816	0.248
Mof_C 	C 	0.89735	0.10265	0.3246	-0.254
Mof_C 	C 	0.92435	0.07565	0.2952	0.522
Mof_C 	C 	0.443	0.2215	0.47077	0.097
Mof_H 	H 	0.4722	0.2361	0.4906	0.031
Mof_C 	C 	0.3561	0.17805	0.4128	-0.175
Mof_C 	C 	0.3043	0.15215	0.3816	0.348
Mof_C 	C 	0.2053	0.10265	0.3246	-0.322
Mof_C 	C 	0.1513	0.07565	0.2952	0.567
Mof_C 	C 	0.7785	0.557	0.47077	0.067
Mof_H 	H 	0.7639	0.5278	0.4906	0.039
Mof_C 	C 	0.82195	0.6439	0.4128	-0.087
Mof_C 	C 	0.84785	0.6957	0.3816	0.156
Mof_C 	C 	0.89735	0.7947	0.3246	-0.202
Mof_C 	C 	0.92435	0.8487	0.2952	0.501
_end
