data_functionalizedCrystal
_audit_creation_method	'EQeq! by Chris Wilmer'
_symmetry_space_group_name_H-M	'P1'
_symmetry_Int_Tables_number	1
_symmetry_cell_setting	triclinic
loop_
_symmetry_equiv_pos_as_xyz
  x,y,z
_cell_length_a	34.5726
_cell_length_b	34.5726
_cell_length_c	34.5726
_cell_angle_alpha	60
_cell_angle_beta	60
_cell_angle_gamma	60
loop_
_atom_site_label
_atom_site_type_symbol
_atom_site_fract_x
_atom_site_fract_y
_atom_site_fract_z
_atom_site_charge
Mof_Cu	Cu	0.7705	0	-0	0.854
Mof_Cu	Cu	0.6936	0	-0	0.844
Mof_Cu	Cu	-1.55628e-17	0.7705	0.2295	0.881
Mof_Cu	Cu	-5.447e-17	0.6936	0.3064	0.872
Mof_Cu	Cu	-6.22514e-17	0.2295	0.7705	0.881
Mof_Cu	Cu	-7.78142e-17	0.3064	0.6936	0.872
Mof_Cu	Cu	0.2295	0	-0	0.849
Mof_Cu	Cu	0.3064	0	-0	0.842
Mof_Cu	Cu	0.7705	-1.55628e-17	0.2295	0.88
Mof_Cu	Cu	0.6936	-1.55628e-17	0.3064	0.871
Mof_Cu	Cu	-1.55628e-17	0.2295	-0	0.849
Mof_Cu	Cu	-0	0.3064	-0	0.842
Mof_Cu	Cu	-0	0.7705	-0	0.853
Mof_Cu	Cu	-0	0.6936	-0	0.843
Mof_Cu	Cu	0.2295	-6.22514e-17	0.7705	0.88
Mof_Cu	Cu	0.3064	-3.11257e-17	0.6936	0.871
Mof_Cu	Cu	0.7705	0.2295	-0	0.88
Mof_Cu	Cu	0.6936	0.3064	-0	0.871
Mof_Cu	Cu	-3.11257e-17	-6.22514e-17	0.7705	0.853
Mof_Cu	Cu	-7.78142e-17	-3.11257e-17	0.6936	0.843
Mof_Cu	Cu	-1.55628e-17	-1.55628e-17	0.2295	0.849
Mof_Cu	Cu	-2.33443e-17	-1.55628e-17	0.3064	0.842
Mof_Cu	Cu	0.2295	0.7705	-0	0.88
Mof_Cu	Cu	0.3064	0.6936	-0	0.871
Mof_H 	H 	0.7356	0.8556	0.0244	0.072
Mof_H 	H 	0.8556	0.7356	0.3844	0.08
Mof_H 	H 	0.0244	0.3844	0.7356	0.064
Mof_H 	H 	0.3844	0.0244	0.8556	0.07
Mof_H 	H 	0.7356	0.0244	0.3844	0.064
Mof_H 	H 	0.8556	0.3844	0.0244	0.07
Mof_H 	H 	0.0244	0.7356	0.8556	0.072
Mof_H 	H 	0.3844	0.8556	0.7356	0.08
Mof_H 	H 	0.7356	0.3844	0.8556	0.08
Mof_H 	H 	0.8556	0.0244	0.7356	0.072
Mof_H 	H 	0.0244	0.8556	0.3844	0.07
Mof_H 	H 	0.3844	0.7356	0.0244	0.064
Mof_H 	H 	0.1444	0.2644	0.9756	0.072
Mof_H 	H 	0.2644	0.1444	0.6156	0.063
Mof_H 	H 	0.6156	0.9756	0.2644	0.079
Mof_H 	H 	0.9756	0.6156	0.1444	0.074
Mof_H 	H 	0.9756	0.2644	0.6156	0.079
Mof_H 	H 	0.6156	0.1444	0.9756	0.074
Mof_H 	H 	0.2644	0.9756	0.1444	0.072
Mof_H 	H 	0.1444	0.6156	0.2644	0.063
Mof_H 	H 	0.6156	0.2644	0.1444	0.063
Mof_H 	H 	0.9756	0.1444	0.2644	0.072
Mof_H 	H 	0.1444	0.9756	0.6156	0.074
Mof_H 	H 	0.2644	0.6156	0.9756	0.079
Mof_H 	H 	0.2644	0.1444	0.9756	0.072
Mof_H 	H 	0.1444	0.2644	0.6156	0.063
Mof_H 	H 	0.9756	0.6156	0.2644	0.079
Mof_H 	H 	0.6156	0.9756	0.1444	0.074
Mof_H 	H 	0.2644	0.9756	0.6156	0.079
Mof_H 	H 	0.1444	0.6156	0.9756	0.074
Mof_H 	H 	0.9756	0.2644	0.1444	0.072
Mof_H 	H 	0.6156	0.1444	0.2644	0.063
Mof_H 	H 	0.2644	0.6156	0.1444	0.063
Mof_H 	H 	0.1444	0.9756	0.2644	0.072
Mof_H 	H 	0.9756	0.1444	0.6156	0.074
Mof_H 	H 	0.6156	0.2644	0.9756	0.079
Mof_H 	H 	0.8556	0.7356	0.0244	0.072
Mof_H 	H 	0.7356	0.8556	0.3844	0.08
Mof_H 	H 	0.3844	0.0244	0.7356	0.064
Mof_H 	H 	0.0244	0.3844	0.8556	0.07
Mof_H 	H 	0.0244	0.7356	0.3844	0.064
Mof_H 	H 	0.3844	0.8556	0.0244	0.07
Mof_H 	H 	0.7356	0.0244	0.8556	0.072
Mof_H 	H 	0.8556	0.3844	0.7356	0.08
Mof_H 	H 	0.3844	0.7356	0.8556	0.08
Mof_H 	H 	0.0244	0.8556	0.7356	0.072
Mof_H 	H 	0.8556	0.0244	0.3844	0.07
Mof_H 	H 	0.7356	0.3844	0.0244	0.064
Mof_H 	H 	0.8567	0.8567	0.0103	0.073
Mof_H 	H 	0.8567	0.8567	0.2763	0.081
Mof_H 	H 	0.0103	0.2763	0.8567	0.064
Mof_H 	H 	0.2763	0.0103	0.8567	0.064
Mof_H 	H 	0.8567	0.0103	0.2763	0.064
Mof_H 	H 	0.8567	0.2763	0.0103	0.064
Mof_H 	H 	0.0103	0.8567	0.8567	0.073
Mof_H 	H 	0.2763	0.8567	0.8567	0.081
Mof_H 	H 	0.8567	0.2763	0.8567	0.081
Mof_H 	H 	0.8567	0.0103	0.8567	0.073
Mof_H 	H 	0.0103	0.8567	0.2763	0.064
Mof_H 	H 	0.2763	0.8567	0.0103	0.064
Mof_H 	H 	0.1433	0.1433	0.9897	0.07
Mof_H 	H 	0.1433	0.1433	0.7237	0.059
Mof_H 	H 	0.7237	0.9897	0.1433	0.078
Mof_H 	H 	0.9897	0.7237	0.1433	0.078
Mof_H 	H 	0.9897	0.1433	0.7237	0.078
Mof_H 	H 	0.7237	0.1433	0.9897	0.078
Mof_H 	H 	0.1433	0.9897	0.1433	0.07
Mof_H 	H 	0.1433	0.7237	0.1433	0.059
Mof_H 	H 	0.7237	0.1433	0.1433	0.059
Mof_H 	H 	0.9897	0.1433	0.1433	0.07
Mof_H 	H 	0.1433	0.9897	0.7237	0.078
Mof_H 	H 	0.1433	0.7237	0.9897	0.078
Mof_H 	H 	0.6116	0.7278	0.049	0.119
Mof_H 	H 	0.7278	0.6116	0.6116	0.127
Mof_H 	H 	0.049	0.6116	0.6116	0.116
Mof_H 	H 	0.6116	0.049	0.7278	0.119
Mof_H 	H 	0.6116	0.049	0.6116	0.116
Mof_H 	H 	0.7278	0.6116	0.049	0.119
Mof_H 	H 	0.049	0.6116	0.7278	0.119
Mof_H 	H 	0.6116	0.7278	0.6116	0.127
Mof_H 	H 	0.6116	0.6116	0.7278	0.127
Mof_H 	H 	0.7278	0.049	0.6116	0.119
Mof_H 	H 	0.049	0.7278	0.6116	0.119
Mof_H 	H 	0.6116	0.6116	0.049	0.116
Mof_H 	H 	0.2722	0.3884	0.951	0.122
Mof_H 	H 	0.3884	0.2722	0.3884	0.114
Mof_H 	H 	0.3884	0.951	0.3884	0.125
Mof_H 	H 	0.951	0.3884	0.2722	0.122
Mof_H 	H 	0.951	0.3884	0.3884	0.125
Mof_H 	H 	0.3884	0.2722	0.951	0.122
Mof_H 	H 	0.3884	0.951	0.2722	0.122
Mof_H 	H 	0.2722	0.3884	0.3884	0.114
Mof_H 	H 	0.3884	0.3884	0.2722	0.114
Mof_H 	H 	0.951	0.2722	0.3884	0.122
Mof_H 	H 	0.2722	0.951	0.3884	0.122
Mof_H 	H 	0.3884	0.3884	0.951	0.125
Mof_C 	C 	0.76916	0.91562	0.01112	0.353
Mof_C 	C 	0.79089	0.85993	0.02223	-0.031
Mof_C 	C 	0.76622	0.83884	0.0266	-0.053
Mof_C 	C 	0.91562	0.76916	0.3041	0.356
Mof_C 	C 	0.85993	0.79089	0.32695	-0.023
Mof_C 	C 	0.83884	0.76622	0.36834	-0.053
Mof_C 	C 	0.01112	0.3041	0.76916	0.357
Mof_C 	C 	0.02223	0.32695	0.79089	-0.041
Mof_C 	C 	0.0266	0.36834	0.76622	-0.049
Mof_C 	C 	0.3041	0.01112	0.91562	0.354
Mof_C 	C 	0.32695	0.02223	0.85993	-0.037
Mof_C 	C 	0.36834	0.0266	0.83884	-0.051
Mof_C 	C 	0.76916	0.01112	0.3041	0.357
Mof_C 	C 	0.79089	0.02223	0.32695	-0.041
Mof_C 	C 	0.76622	0.0266	0.36834	-0.049
Mof_C 	C 	0.91562	0.3041	0.01112	0.354
Mof_C 	C 	0.85993	0.32695	0.02223	-0.037
Mof_C 	C 	0.83884	0.36834	0.0266	-0.051
Mof_C 	C 	0.01112	0.76916	0.91562	0.353
Mof_C 	C 	0.02223	0.79089	0.85993	-0.031
Mof_C 	C 	0.0266	0.76622	0.83884	-0.053
Mof_C 	C 	0.3041	0.91562	0.76916	0.356
Mof_C 	C 	0.32695	0.85993	0.79089	-0.023
Mof_C 	C 	0.36834	0.83884	0.76622	-0.053
Mof_C 	C 	0.76916	0.3041	0.91562	0.356
Mof_C 	C 	0.79089	0.32695	0.85993	-0.023
Mof_C 	C 	0.76622	0.36834	0.83884	-0.053
Mof_C 	C 	0.91562	0.01112	0.76916	0.353
Mof_C 	C 	0.85993	0.02223	0.79089	-0.031
Mof_C 	C 	0.83884	0.0266	0.76622	-0.053
Mof_C 	C 	0.01112	0.91562	0.3041	0.354
Mof_C 	C 	0.02223	0.85993	0.32695	-0.037
Mof_C 	C 	0.0266	0.83884	0.36834	-0.051
Mof_C 	C 	0.3041	0.76916	0.01112	0.357
Mof_C 	C 	0.32695	0.79089	0.02223	-0.041
Mof_C 	C 	0.36834	0.76622	0.0266	-0.049
Mof_C 	C 	0.08438	0.23084	0.98888	0.355
Mof_C 	C 	0.14007	0.20911	0.97777	-0.033
Mof_C 	C 	0.16116	0.23378	0.9734	-0.051
Mof_C 	C 	0.23084	0.08438	0.6959	0.356
Mof_C 	C 	0.20911	0.14007	0.67305	-0.045
Mof_C 	C 	0.23378	0.16116	0.63166	-0.049
Mof_C 	C 	0.6959	0.98888	0.23084	0.356
Mof_C 	C 	0.67305	0.97777	0.20911	-0.025
Mof_C 	C 	0.63166	0.9734	0.23378	-0.053
Mof_C 	C 	0.98888	0.6959	0.08438	0.354
Mof_C 	C 	0.97777	0.67305	0.14007	-0.028
Mof_C 	C 	0.9734	0.63166	0.16116	-0.053
Mof_C 	C 	0.98888	0.23084	0.6959	0.356
Mof_C 	C 	0.97777	0.20911	0.67305	-0.025
Mof_C 	C 	0.9734	0.23378	0.63166	-0.053
Mof_C 	C 	0.6959	0.08438	0.98888	0.354
Mof_C 	C 	0.67305	0.14007	0.97777	-0.028
Mof_C 	C 	0.63166	0.16116	0.9734	-0.053
Mof_C 	C 	0.23084	0.98888	0.08438	0.355
Mof_C 	C 	0.20911	0.97777	0.14007	-0.033
Mof_C 	C 	0.23378	0.9734	0.16116	-0.051
Mof_C 	C 	0.08438	0.6959	0.23084	0.356
Mof_C 	C 	0.14007	0.67305	0.20911	-0.045
Mof_C 	C 	0.16116	0.63166	0.23378	-0.049
Mof_C 	C 	0.6959	0.23084	0.08438	0.356
Mof_C 	C 	0.67305	0.20911	0.14007	-0.045
Mof_C 	C 	0.63166	0.23378	0.16116	-0.049
Mof_C 	C 	0.98888	0.08438	0.23084	0.355
Mof_C 	C 	0.97777	0.14007	0.20911	-0.033
Mof_C 	C 	0.9734	0.16116	0.23378	-0.051
Mof_C 	C 	0.08438	0.98888	0.6959	0.354
Mof_C 	C 	0.14007	0.97777	0.67305	-0.028
Mof_C 	C 	0.16116	0.9734	0.63166	-0.053
Mof_C 	C 	0.23084	0.6959	0.98888	0.356
Mof_C 	C 	0.20911	0.67305	0.97777	-0.025
Mof_C 	C 	0.23378	0.63166	0.9734	-0.053
Mof_C 	C 	0.23084	0.08438	0.98888	0.355
Mof_C 	C 	0.20911	0.14007	0.97777	-0.033
Mof_C 	C 	0.23378	0.16116	0.9734	-0.051
Mof_C 	C 	0.08438	0.23084	0.6959	0.356
Mof_C 	C 	0.14007	0.20911	0.67305	-0.045
Mof_C 	C 	0.16116	0.23378	0.63166	-0.049
Mof_C 	C 	0.98888	0.6959	0.23084	0.356
Mof_C 	C 	0.97777	0.67305	0.20911	-0.025
Mof_C 	C 	0.9734	0.63166	0.23378	-0.053
Mof_C 	C 	0.6959	0.98888	0.08438	0.354
Mof_C 	C 	0.67305	0.97777	0.14007	-0.028
Mof_C 	C 	0.63166	0.9734	0.16116	-0.053
Mof_C 	C 	0.23084	0.98888	0.6959	0.356
Mof_C 	C 	0.20911	0.97777	0.67305	-0.025
Mof_C 	C 	0.23378	0.9734	0.63166	-0.053
Mof_C 	C 	0.08438	0.6959	0.98888	0.354
Mof_C 	C 	0.14007	0.67305	0.97777	-0.028
Mof_C 	C 	0.16116	0.63166	0.9734	-0.053
Mof_C 	C 	0.98888	0.23084	0.08438	0.355
Mof_C 	C 	0.97777	0.20911	0.14007	-0.033
Mof_C 	C 	0.9734	0.23378	0.16116	-0.051
Mof_C 	C 	0.6959	0.08438	0.23084	0.356
Mof_C 	C 	0.67305	0.14007	0.20911	-0.045
Mof_C 	C 	0.63166	0.16116	0.23378	-0.049
Mof_C 	C 	0.23084	0.6959	0.08438	0.356
Mof_C 	C 	0.20911	0.67305	0.14007	-0.045
Mof_C 	C 	0.23378	0.63166	0.16116	-0.049
Mof_C 	C 	0.08438	0.98888	0.23084	0.355
Mof_C 	C 	0.14007	0.97777	0.20911	-0.033
Mof_C 	C 	0.16116	0.9734	0.23378	-0.051
Mof_C 	C 	0.98888	0.08438	0.6959	0.354
Mof_C 	C 	0.97777	0.14007	0.67305	-0.028
Mof_C 	C 	0.9734	0.16116	0.63166	-0.053
Mof_C 	C 	0.6959	0.23084	0.98888	0.356
Mof_C 	C 	0.67305	0.20911	0.97777	-0.025
Mof_C 	C 	0.63166	0.23378	0.9734	-0.053
Mof_C 	C 	0.91562	0.76916	0.01112	0.353
Mof_C 	C 	0.85993	0.79089	0.02223	-0.031
Mof_C 	C 	0.83884	0.76622	0.0266	-0.053
Mof_C 	C 	0.76916	0.91562	0.3041	0.356
Mof_C 	C 	0.79089	0.85993	0.32695	-0.023
Mof_C 	C 	0.76622	0.83884	0.36834	-0.053
Mof_C 	C 	0.3041	0.01112	0.76916	0.357
Mof_C 	C 	0.32695	0.02223	0.79089	-0.041
Mof_C 	C 	0.36834	0.0266	0.76622	-0.049
Mof_C 	C 	0.01112	0.3041	0.91562	0.354
Mof_C 	C 	0.02223	0.32695	0.85993	-0.037
Mof_C 	C 	0.0266	0.36834	0.83884	-0.051
Mof_C 	C 	0.01112	0.76916	0.3041	0.357
Mof_C 	C 	0.02223	0.79089	0.32695	-0.041
Mof_C 	C 	0.0266	0.76622	0.36834	-0.049
Mof_C 	C 	0.3041	0.91562	0.01112	0.354
Mof_C 	C 	0.32695	0.85993	0.02223	-0.037
Mof_C 	C 	0.36834	0.83884	0.0266	-0.051
Mof_C 	C 	0.76916	0.01112	0.91562	0.353
Mof_C 	C 	0.79089	0.02223	0.85993	-0.031
Mof_C 	C 	0.76622	0.0266	0.83884	-0.053
Mof_C 	C 	0.91562	0.3041	0.76916	0.356
Mof_C 	C 	0.85993	0.32695	0.79089	-0.023
Mof_C 	C 	0.83884	0.36834	0.76622	-0.053
Mof_C 	C 	0.3041	0.76916	0.91562	0.356
Mof_C 	C 	0.32695	0.79089	0.85993	-0.023
Mof_C 	C 	0.36834	0.76622	0.83884	-0.053
Mof_C 	C 	0.01112	0.91562	0.76916	0.353
Mof_C 	C 	0.02223	0.85993	0.79089	-0.031
Mof_C 	C 	0.0266	0.83884	0.76622	-0.053
Mof_C 	C 	0.91562	0.01112	0.3041	0.354
Mof_C 	C 	0.85993	0.02223	0.32695	-0.037
Mof_C 	C 	0.83884	0.0266	0.36834	-0.051
Mof_C 	C 	0.76916	0.3041	0.01112	0.357
Mof_C 	C 	0.79089	0.32695	0.02223	-0.041
Mof_C 	C 	0.76622	0.36834	0.0266	-0.049
Mof_C 	C 	0.83908	0.83908	0.01704	-0.024
Mof_C 	C 	0.7879	0.7879	0.0351	0.031
Mof_C 	C 	0.7625	0.7625	0.03718	-0.011
Mof_C 	C 	0.7405	0.7405	0.0451	-0.02
Mof_C 	C 	0.7176	0.7176	0.0456	0.039
Mof_C 	C 	0.6955	0.6955	0.0533	-0.086
Mof_C 	C 	0.6707	0.6707	0.0559	0.175
Mof_C 	C 	0.83908	0.83908	0.3048	-0.023
Mof_C 	C 	0.7879	0.7879	0.3891	0.037
Mof_C 	C 	0.7625	0.7625	0.43782	-0.001
Mof_C 	C 	0.7405	0.7405	0.4739	-0.016
Mof_C 	C 	0.7176	0.7176	0.5192	0.05
Mof_C 	C 	0.6955	0.6955	0.5557	-0.084
Mof_C 	C 	0.6707	0.6707	0.6027	0.184
Mof_C 	C 	0.01704	0.3048	0.83908	-0.02
Mof_C 	C 	0.0351	0.3891	0.7879	0.026
Mof_C 	C 	0.03718	0.43782	0.7625	-0.013
Mof_C 	C 	0.0451	0.4739	0.7405	-0.023
Mof_C 	C 	0.0456	0.5192	0.7176	0.036
Mof_C 	C 	0.0533	0.5557	0.6955	-0.088
Mof_C 	C 	0.0559	0.6027	0.6707	0.174
Mof_C 	C 	0.3048	0.01704	0.83908	-0.02
Mof_C 	C 	0.3891	0.0351	0.7879	0.026
Mof_C 	C 	0.43782	0.03718	0.7625	-0.013
Mof_C 	C 	0.4739	0.0451	0.7405	-0.023
Mof_C 	C 	0.5192	0.0456	0.7176	0.036
Mof_C 	C 	0.5557	0.0533	0.6955	-0.088
Mof_C 	C 	0.6027	0.0559	0.6707	0.174
Mof_C 	C 	0.83908	0.01704	0.3048	-0.02
Mof_C 	C 	0.7879	0.0351	0.3891	0.026
Mof_C 	C 	0.7625	0.03718	0.43782	-0.013
Mof_C 	C 	0.7405	0.0451	0.4739	-0.023
Mof_C 	C 	0.7176	0.0456	0.5192	0.036
Mof_C 	C 	0.6955	0.0533	0.5557	-0.088
Mof_C 	C 	0.6707	0.0559	0.6027	0.174
Mof_C 	C 	0.83908	0.3048	0.01704	-0.02
Mof_C 	C 	0.7879	0.3891	0.0351	0.026
Mof_C 	C 	0.7625	0.43782	0.03718	-0.013
Mof_C 	C 	0.7405	0.4739	0.0451	-0.023
Mof_C 	C 	0.7176	0.5192	0.0456	0.036
Mof_C 	C 	0.6955	0.5557	0.0533	-0.088
Mof_C 	C 	0.6707	0.6027	0.0559	0.174
Mof_C 	C 	0.01704	0.83908	0.83908	-0.024
Mof_C 	C 	0.0351	0.7879	0.7879	0.031
Mof_C 	C 	0.03718	0.7625	0.7625	-0.011
Mof_C 	C 	0.0451	0.7405	0.7405	-0.02
Mof_C 	C 	0.0456	0.7176	0.7176	0.039
Mof_C 	C 	0.0533	0.6955	0.6955	-0.086
Mof_C 	C 	0.0559	0.6707	0.6707	0.175
Mof_C 	C 	0.3048	0.83908	0.83908	-0.023
Mof_C 	C 	0.3891	0.7879	0.7879	0.037
Mof_C 	C 	0.43782	0.7625	0.7625	-0.001
Mof_C 	C 	0.4739	0.7405	0.7405	-0.016
Mof_C 	C 	0.5192	0.7176	0.7176	0.05
Mof_C 	C 	0.5557	0.6955	0.6955	-0.084
Mof_C 	C 	0.6027	0.6707	0.6707	0.184
Mof_C 	C 	0.83908	0.3048	0.83908	-0.023
Mof_C 	C 	0.7879	0.3891	0.7879	0.037
Mof_C 	C 	0.7625	0.43782	0.7625	-0.001
Mof_C 	C 	0.7405	0.4739	0.7405	-0.016
Mof_C 	C 	0.7176	0.5192	0.7176	0.05
Mof_C 	C 	0.6955	0.5557	0.6955	-0.084
Mof_C 	C 	0.6707	0.6027	0.6707	0.184
Mof_C 	C 	0.83908	0.01704	0.83908	-0.024
Mof_C 	C 	0.7879	0.0351	0.7879	0.031
Mof_C 	C 	0.7625	0.03718	0.7625	-0.011
Mof_C 	C 	0.7405	0.0451	0.7405	-0.02
Mof_C 	C 	0.7176	0.0456	0.7176	0.039
Mof_C 	C 	0.6955	0.0533	0.6955	-0.086
Mof_C 	C 	0.6707	0.0559	0.6707	0.175
Mof_C 	C 	0.01704	0.83908	0.3048	-0.02
Mof_C 	C 	0.0351	0.7879	0.3891	0.026
Mof_C 	C 	0.03718	0.7625	0.43782	-0.013
Mof_C 	C 	0.0451	0.7405	0.4739	-0.023
Mof_C 	C 	0.0456	0.7176	0.5192	0.036
Mof_C 	C 	0.0533	0.6955	0.5557	-0.088
Mof_C 	C 	0.0559	0.6707	0.6027	0.174
Mof_C 	C 	0.3048	0.83908	0.01704	-0.02
Mof_C 	C 	0.3891	0.7879	0.0351	0.026
Mof_C 	C 	0.43782	0.7625	0.03718	-0.013
Mof_C 	C 	0.4739	0.7405	0.0451	-0.023
Mof_C 	C 	0.5192	0.7176	0.0456	0.036
Mof_C 	C 	0.5557	0.6955	0.0533	-0.088
Mof_C 	C 	0.6027	0.6707	0.0559	0.174
Mof_C 	C 	0.16092	0.16092	0.98296	-0.021
Mof_C 	C 	0.2121	0.2121	0.9649	0.031
Mof_C 	C 	0.2375	0.2375	0.96282	-0.007
Mof_C 	C 	0.2595	0.2595	0.9549	-0.02
Mof_C 	C 	0.2824	0.2824	0.9544	0.043
Mof_C 	C 	0.3045	0.3045	0.9467	-0.086
Mof_C 	C 	0.3293	0.3293	0.9441	0.18
Mof_C 	C 	0.16092	0.16092	0.6952	-0.018
Mof_C 	C 	0.2121	0.2121	0.6109	0.023
Mof_C 	C 	0.2375	0.2375	0.56218	-0.017
Mof_C 	C 	0.2595	0.2595	0.5261	-0.025
Mof_C 	C 	0.2824	0.2824	0.4808	0.031
Mof_C 	C 	0.3045	0.3045	0.4443	-0.089
Mof_C 	C 	0.3293	0.3293	0.3973	0.17
Mof_C 	C 	0.6952	0.98296	0.16092	-0.023
Mof_C 	C 	0.6109	0.9649	0.2121	0.035
Mof_C 	C 	0.56218	0.96282	0.2375	-0.005
Mof_C 	C 	0.5261	0.9549	0.2595	-0.017
Mof_C 	C 	0.4808	0.9544	0.2824	0.046
Mof_C 	C 	0.4443	0.9467	0.3045	-0.084
Mof_C 	C 	0.3973	0.9441	0.3293	0.181
Mof_C 	C 	0.98296	0.6952	0.16092	-0.023
Mof_C 	C 	0.9649	0.6109	0.2121	0.035
Mof_C 	C 	0.96282	0.56218	0.2375	-0.005
Mof_C 	C 	0.9549	0.5261	0.2595	-0.017
Mof_C 	C 	0.9544	0.4808	0.2824	0.046
Mof_C 	C 	0.9467	0.4443	0.3045	-0.084
Mof_C 	C 	0.9441	0.3973	0.3293	0.181
Mof_C 	C 	0.98296	0.16092	0.6952	-0.023
Mof_C 	C 	0.9649	0.2121	0.6109	0.035
Mof_C 	C 	0.96282	0.2375	0.56218	-0.005
Mof_C 	C 	0.9549	0.2595	0.5261	-0.017
Mof_C 	C 	0.9544	0.2824	0.4808	0.046
Mof_C 	C 	0.9467	0.3045	0.4443	-0.084
Mof_C 	C 	0.9441	0.3293	0.3973	0.181
Mof_C 	C 	0.6952	0.16092	0.98296	-0.023
Mof_C 	C 	0.6109	0.2121	0.9649	0.035
Mof_C 	C 	0.56218	0.2375	0.96282	-0.005
Mof_C 	C 	0.5261	0.2595	0.9549	-0.017
Mof_C 	C 	0.4808	0.2824	0.9544	0.046
Mof_C 	C 	0.4443	0.3045	0.9467	-0.084
Mof_C 	C 	0.3973	0.3293	0.9441	0.181
Mof_C 	C 	0.16092	0.98296	0.16092	-0.021
Mof_C 	C 	0.2121	0.9649	0.2121	0.031
Mof_C 	C 	0.2375	0.96282	0.2375	-0.007
Mof_C 	C 	0.2595	0.9549	0.2595	-0.02
Mof_C 	C 	0.2824	0.9544	0.2824	0.043
Mof_C 	C 	0.3045	0.9467	0.3045	-0.086
Mof_C 	C 	0.3293	0.9441	0.3293	0.18
Mof_C 	C 	0.16092	0.6952	0.16092	-0.018
Mof_C 	C 	0.2121	0.6109	0.2121	0.023
Mof_C 	C 	0.2375	0.56218	0.2375	-0.017
Mof_C 	C 	0.2595	0.5261	0.2595	-0.025
Mof_C 	C 	0.2824	0.4808	0.2824	0.031
Mof_C 	C 	0.3045	0.4443	0.3045	-0.089
Mof_C 	C 	0.3293	0.3973	0.3293	0.17
Mof_C 	C 	0.6952	0.16092	0.16092	-0.018
Mof_C 	C 	0.6109	0.2121	0.2121	0.023
Mof_C 	C 	0.56218	0.2375	0.2375	-0.017
Mof_C 	C 	0.5261	0.2595	0.2595	-0.025
Mof_C 	C 	0.4808	0.2824	0.2824	0.031
Mof_C 	C 	0.4443	0.3045	0.3045	-0.089
Mof_C 	C 	0.3973	0.3293	0.3293	0.17
Mof_C 	C 	0.98296	0.16092	0.16092	-0.021
Mof_C 	C 	0.9649	0.2121	0.2121	0.031
Mof_C 	C 	0.96282	0.2375	0.2375	-0.007
Mof_C 	C 	0.9549	0.2595	0.2595	-0.02
Mof_C 	C 	0.9544	0.2824	0.2824	0.043
Mof_C 	C 	0.9467	0.3045	0.3045	-0.086
Mof_C 	C 	0.9441	0.3293	0.3293	0.18
Mof_C 	C 	0.16092	0.98296	0.6952	-0.023
Mof_C 	C 	0.2121	0.9649	0.6109	0.035
Mof_C 	C 	0.2375	0.96282	0.56218	-0.005
Mof_C 	C 	0.2595	0.9549	0.5261	-0.017
Mof_C 	C 	0.2824	0.9544	0.4808	0.046
Mof_C 	C 	0.3045	0.9467	0.4443	-0.084
Mof_C 	C 	0.3293	0.9441	0.3973	0.181
Mof_C 	C 	0.16092	0.6952	0.98296	-0.023
Mof_C 	C 	0.2121	0.6109	0.9649	0.035
Mof_C 	C 	0.2375	0.56218	0.96282	-0.005
Mof_C 	C 	0.2595	0.5261	0.9549	-0.017
Mof_C 	C 	0.2824	0.4808	0.9544	0.046
Mof_C 	C 	0.3045	0.4443	0.9467	-0.084
Mof_C 	C 	0.3293	0.3973	0.9441	0.181
Mof_C 	C 	0.6259	0.6953	0.0529	-0.234
Mof_C 	C 	0.6953	0.6259	0.6259	-0.236
Mof_C 	C 	0.0529	0.6259	0.6259	-0.233
Mof_C 	C 	0.6259	0.0529	0.6953	-0.234
Mof_C 	C 	0.6259	0.0529	0.6259	-0.233
Mof_C 	C 	0.6953	0.6259	0.0529	-0.234
Mof_C 	C 	0.0529	0.6259	0.6953	-0.234
Mof_C 	C 	0.6259	0.6953	0.6259	-0.236
Mof_C 	C 	0.6259	0.6259	0.6953	-0.236
Mof_C 	C 	0.6953	0.0529	0.6259	-0.234
Mof_C 	C 	0.0529	0.6953	0.6259	-0.234
Mof_C 	C 	0.6259	0.6259	0.0529	-0.233
Mof_C 	C 	0.3047	0.3741	0.9471	-0.235
Mof_C 	C 	0.3741	0.3047	0.3741	-0.232
Mof_C 	C 	0.3741	0.9471	0.3741	-0.235
Mof_C 	C 	0.9471	0.3741	0.3047	-0.235
Mof_C 	C 	0.9471	0.3741	0.3741	-0.235
Mof_C 	C 	0.3741	0.3047	0.9471	-0.235
Mof_C 	C 	0.3741	0.9471	0.3047	-0.235
Mof_C 	C 	0.3047	0.3741	0.3741	-0.232
Mof_C 	C 	0.3741	0.3741	0.3047	-0.232
Mof_C 	C 	0.9471	0.3047	0.3741	-0.235
Mof_C 	C 	0.3047	0.9471	0.3741	-0.235
Mof_C 	C 	0.3741	0.3741	0.9471	-0.235
Mof_O 	O 	0.79238	0.93262	0.01122	-0.404
Mof_O 	O 	0.72792	0.93152	0.01086	-0.395
Mof_O 	O 	0.93262	0.79238	0.26378	-0.39
Mof_O 	O 	0.93152	0.72792	0.3297	-0.379
Mof_O 	O 	0.01122	0.26378	0.79238	-0.435
Mof_O 	O 	0.01086	0.3297	0.72792	-0.424
Mof_O 	O 	0.26378	0.01122	0.93262	-0.41
Mof_O 	O 	0.3297	0.01086	0.93152	-0.396
Mof_O 	O 	0.79238	0.01122	0.26378	-0.435
Mof_O 	O 	0.72792	0.01086	0.3297	-0.424
Mof_O 	O 	0.93262	0.26378	0.01122	-0.41
Mof_O 	O 	0.93152	0.3297	0.01086	-0.396
Mof_O 	O 	0.01122	0.79238	0.93262	-0.404
Mof_O 	O 	0.01086	0.72792	0.93152	-0.395
Mof_O 	O 	0.26378	0.93262	0.79238	-0.39
Mof_O 	O 	0.3297	0.93152	0.72792	-0.379
Mof_O 	O 	0.79238	0.26378	0.93262	-0.39
Mof_O 	O 	0.72792	0.3297	0.93152	-0.379
Mof_O 	O 	0.93262	0.01122	0.79238	-0.404
Mof_O 	O 	0.93152	0.01086	0.72792	-0.395
Mof_O 	O 	0.01122	0.93262	0.26378	-0.41
Mof_O 	O 	0.01086	0.93152	0.3297	-0.396
Mof_O 	O 	0.26378	0.79238	0.01122	-0.435
Mof_O 	O 	0.3297	0.72792	0.01086	-0.424
Mof_O 	O 	0.06738	0.20762	0.98878	-0.407
Mof_O 	O 	0.06848	0.27208	0.98914	-0.394
Mof_O 	O 	0.20762	0.06738	0.73622	-0.437
Mof_O 	O 	0.27208	0.06848	0.6703	-0.425
Mof_O 	O 	0.73622	0.98878	0.20762	-0.392
Mof_O 	O 	0.6703	0.98914	0.27208	-0.379
Mof_O 	O 	0.98878	0.73622	0.06738	-0.402
Mof_O 	O 	0.98914	0.6703	0.06848	-0.393
Mof_O 	O 	0.98878	0.20762	0.73622	-0.392
Mof_O 	O 	0.98914	0.27208	0.6703	-0.379
Mof_O 	O 	0.73622	0.06738	0.98878	-0.402
Mof_O 	O 	0.6703	0.06848	0.98914	-0.393
Mof_O 	O 	0.20762	0.98878	0.06738	-0.407
Mof_O 	O 	0.27208	0.98914	0.06848	-0.394
Mof_O 	O 	0.06738	0.73622	0.20762	-0.437
Mof_O 	O 	0.06848	0.6703	0.27208	-0.425
Mof_O 	O 	0.73622	0.20762	0.06738	-0.437
Mof_O 	O 	0.6703	0.27208	0.06848	-0.425
Mof_O 	O 	0.98878	0.06738	0.20762	-0.407
Mof_O 	O 	0.98914	0.06848	0.27208	-0.394
Mof_O 	O 	0.06738	0.98878	0.73622	-0.402
Mof_O 	O 	0.06848	0.98914	0.6703	-0.393
Mof_O 	O 	0.20762	0.73622	0.98878	-0.392
Mof_O 	O 	0.27208	0.6703	0.98914	-0.379
Mof_O 	O 	0.20762	0.06738	0.98878	-0.407
Mof_O 	O 	0.27208	0.06848	0.98914	-0.394
Mof_O 	O 	0.06738	0.20762	0.73622	-0.437
Mof_O 	O 	0.06848	0.27208	0.6703	-0.425
Mof_O 	O 	0.98878	0.73622	0.20762	-0.392
Mof_O 	O 	0.98914	0.6703	0.27208	-0.379
Mof_O 	O 	0.73622	0.98878	0.06738	-0.402
Mof_O 	O 	0.6703	0.98914	0.06848	-0.393
Mof_O 	O 	0.20762	0.98878	0.73622	-0.392
Mof_O 	O 	0.27208	0.98914	0.6703	-0.379
Mof_O 	O 	0.06738	0.73622	0.98878	-0.402
Mof_O 	O 	0.06848	0.6703	0.98914	-0.393
Mof_O 	O 	0.98878	0.20762	0.06738	-0.407
Mof_O 	O 	0.98914	0.27208	0.06848	-0.394
Mof_O 	O 	0.73622	0.06738	0.20762	-0.437
Mof_O 	O 	0.6703	0.06848	0.27208	-0.425
Mof_O 	O 	0.20762	0.73622	0.06738	-0.437
Mof_O 	O 	0.27208	0.6703	0.06848	-0.425
Mof_O 	O 	0.06738	0.98878	0.20762	-0.407
Mof_O 	O 	0.06848	0.98914	0.27208	-0.394
Mof_O 	O 	0.98878	0.06738	0.73622	-0.402
Mof_O 	O 	0.98914	0.06848	0.6703	-0.393
Mof_O 	O 	0.73622	0.20762	0.98878	-0.392
Mof_O 	O 	0.6703	0.27208	0.98914	-0.379
Mof_O 	O 	0.93262	0.79238	0.01122	-0.404
Mof_O 	O 	0.93152	0.72792	0.01086	-0.395
Mof_O 	O 	0.79238	0.93262	0.26378	-0.39
Mof_O 	O 	0.72792	0.93152	0.3297	-0.379
Mof_O 	O 	0.26378	0.01122	0.79238	-0.435
Mof_O 	O 	0.3297	0.01086	0.72792	-0.424
Mof_O 	O 	0.01122	0.26378	0.93262	-0.41
Mof_O 	O 	0.01086	0.3297	0.93152	-0.396
Mof_O 	O 	0.01122	0.79238	0.26378	-0.435
Mof_O 	O 	0.01086	0.72792	0.3297	-0.424
Mof_O 	O 	0.26378	0.93262	0.01122	-0.41
Mof_O 	O 	0.3297	0.93152	0.01086	-0.396
Mof_O 	O 	0.79238	0.01122	0.93262	-0.404
Mof_O 	O 	0.72792	0.01086	0.93152	-0.395
Mof_O 	O 	0.93262	0.26378	0.79238	-0.39
Mof_O 	O 	0.93152	0.3297	0.72792	-0.379
Mof_O 	O 	0.26378	0.79238	0.93262	-0.39
Mof_O 	O 	0.3297	0.72792	0.93152	-0.379
Mof_O 	O 	0.01122	0.93262	0.79238	-0.404
Mof_O 	O 	0.01086	0.93152	0.72792	-0.395
Mof_O 	O 	0.93262	0.01122	0.26378	-0.41
Mof_O 	O 	0.93152	0.01086	0.3297	-0.396
Mof_O 	O 	0.79238	0.26378	0.01122	-0.435
Mof_O 	O 	0.72792	0.3297	0.01086	-0.424
_end
