data_functionalizedCrystal
_audit_creation_method	'EQeq! by Chris Wilmer'
_symmetry_space_group_name_H-M	'P1'
_symmetry_Int_Tables_number	1
_symmetry_cell_setting	triclinic
loop_
_symmetry_equiv_pos_as_xyz
  x,y,z
_cell_length_a	6.5873
_cell_length_b	12.9396
_cell_length_c	13.0141
_cell_angle_alpha	90
_cell_angle_beta	90.023
_cell_angle_gamma	90
loop_
_atom_site_label
_atom_site_type_symbol
_atom_site_fract_x
_atom_site_fract_y
_atom_site_fract_z
_atom_site_charge
Mof_Zn	Zn	0.20294	0.45775	0.95198	1.225
Mof_F 	F 	0.111	0.5517	0.0603	-0.829
Mof_F 	F 	0.2468	0.9346	0.9356	-0.525
Mof_N 	N 	0.2459	0.3051	0.9748	-0.258
Mof_N 	N 	0.0825	0.2408	0.9788	-0.081
Mof_N 	N 	0.1504	0.1476	0.985	-0.156
Mof_N 	N 	0.3534	0.1459	0.9856	-0.209
Mof_C 	C 	0.4098	0.2441	0.9798	0.25
Mof_N 	N 	0.6039	0.2772	0.9736	-0.364
Mof_H 	H 	0.7017	0.2331	0.9732	0.249
Mof_H 	H 	0.6297	0.3422	0.97	0.176
Mof_N 	N 	0.2448	0.5018	0.8052	-0.26
Mof_N 	N 	0.0811	0.5058	0.7404	-0.093
Mof_N 	N 	0.1521	0.5143	0.6461	-0.178
Mof_N 	N 	0.3536	0.5177	0.6479	-0.222
Mof_C 	C 	0.4066	0.5097	0.744	0.234
Mof_N 	N 	0.6027	0.5079	0.7778	-0.355
Mof_H 	H 	0.7009	0.5121	0.7345	0.225
Mof_H 	H 	0.628	0.5025	0.8424	0.167
Mof_Zn	Zn	0.79706	0.95775	0.54802	1.278
Mof_F 	F 	0.889	0.0517	0.4397	-0.731
Mof_F 	F 	0.7532	0.4346	0.5644	-0.646
Mof_N 	N 	0.7541	0.8051	0.5252	-0.227
Mof_N 	N 	0.9175	0.7408	0.5212	0.003
Mof_N 	N 	0.8496	0.6476	0.515	-0.113
Mof_N 	N 	0.6466	0.6459	0.5144	-0.22
Mof_C 	C 	0.5902	0.7441	0.5202	0.228
Mof_N 	N 	0.3961	0.7772	0.5264	-0.341
Mof_H 	H 	0.2983	0.7331	0.5268	0.164
Mof_H 	H 	0.3703	0.8422	0.53	0.15
Mof_N 	N 	0.7552	0.0018	0.6948	-0.278
Mof_N 	N 	0.9189	0.0058	0.7596	-0.029
Mof_N 	N 	0.8479	0.0143	0.8539	-0.104
Mof_N 	N 	0.6464	0.0177	0.8521	-0.199
Mof_C 	C 	0.5934	0.0097	0.756	0.173
Mof_N 	N 	0.3973	0.0079	0.7222	-0.31
Mof_H 	H 	0.2991	0.0121	0.7655	0.115
Mof_H 	H 	0.372	0.0025	0.6576	0.049
Mof_Zn	Zn	0.79706	0.54225	0.04802	1.19
Mof_F 	F 	0.889	0.4483	0.9397	-0.579
Mof_F 	F 	0.7532	0.0654	0.0644	-0.784
Mof_N 	N 	0.7541	0.6949	0.0252	-0.261
Mof_N 	N 	0.9175	0.7592	0.0212	-0.026
Mof_N 	N 	0.8496	0.8524	0.015	-0.111
Mof_N 	N 	0.6466	0.8541	0.0144	-0.207
Mof_C 	C 	0.5902	0.7559	0.0202	0.17
Mof_N 	N 	0.3961	0.7228	0.0264	-0.321
Mof_H 	H 	0.2983	0.7669	0.0268	0.125
Mof_H 	H 	0.3703	0.6578	0.03	0.08
Mof_N 	N 	0.7552	0.4982	0.1948	-0.262
Mof_N 	N 	0.9189	0.4942	0.2596	-0.016
Mof_N 	N 	0.8479	0.4857	0.3539	-0.122
Mof_N 	N 	0.6464	0.4823	0.3521	-0.217
Mof_C 	C 	0.5934	0.4903	0.256	0.187
Mof_N 	N 	0.3973	0.4921	0.2222	-0.32
Mof_H 	H 	0.2991	0.4879	0.2655	0.137
Mof_H 	H 	0.372	0.4975	0.1576	0.074
Mof_Zn	Zn	0.20294	0.04225	0.45198	1.13
Mof_F 	F 	0.111	0.9483	0.5603	-0.672
Mof_F 	F 	0.2468	0.5654	0.4356	-0.723
Mof_N 	N 	0.2459	0.1949	0.4748	-0.296
Mof_N 	N 	0.0825	0.2592	0.4788	-0.115
Mof_N 	N 	0.1504	0.3524	0.485	-0.184
Mof_N 	N 	0.3534	0.3541	0.4856	-0.228
Mof_C 	C 	0.4098	0.2559	0.4798	0.187
Mof_N 	N 	0.6039	0.2228	0.4736	-0.342
Mof_H 	H 	0.7017	0.2669	0.4732	0.198
Mof_H 	H 	0.6297	0.1578	0.47	0.105
Mof_N 	N 	0.2448	0.9982	0.3052	-0.239
Mof_N 	N 	0.0811	0.9942	0.2404	-0.07
Mof_N 	N 	0.1521	0.9857	0.1461	-0.159
Mof_N 	N 	0.3536	0.9823	0.1479	-0.209
Mof_C 	C 	0.4066	0.9903	0.244	0.252
Mof_N 	N 	0.6027	0.9921	0.2778	-0.364
Mof_H 	H 	0.7009	0.9879	0.2345	0.253
Mof_H 	H 	0.628	0.9975	0.3424	0.19
Mof_Zn	Zn	-0	0	-0	1.069
Mof_Zn	Zn	-1.00085e-19	0.5	0.5	1.18
Mof_Zn	Zn	0.5	0	-0	1.116
Mof_Zn	Zn	0.5	0.5	0.5	1.226
_end
