data_functionalizedCrystal
_audit_creation_method	'EQeq! by Chris Wilmer'
_symmetry_space_group_name_H-M	'P1'
_symmetry_Int_Tables_number	1
_symmetry_cell_setting	triclinic
loop_
_symmetry_equiv_pos_as_xyz
  x,y,z
_cell_length_a	18.448
_cell_length_b	18.448
_cell_length_c	23.939
_cell_angle_alpha	90
_cell_angle_beta	90
_cell_angle_gamma	120
loop_
_atom_site_label
_atom_site_type_symbol
_atom_site_fract_x
_atom_site_fract_y
_atom_site_fract_z
_atom_site_charge
Mof_O 	O 	0.41079	0.97211	0.072	-0.405
Mof_C 	C 	0.2753	0.85486	0.06984	-0.081
Mof_O 	O 	0.37079	0.89006	0.99631	-0.407
Mof_C 	C 	0.3585	0.90991	0.04417	0.359
Mof_C 	C 	0.25274	0.87582	0.12034	-0.031
Mof_H 	H 	0.2906	0.9272	0.138	0.06
Mof_O 	O 	0.02789	0.43868	0.072	-0.405
Mof_C 	C 	0.14514	0.42044	0.06984	-0.081
Mof_O 	O 	0.10994	0.48073	0.99631	-0.407
Mof_C 	C 	0.09009	0.44859	0.04417	0.359
Mof_C 	C 	0.12418	0.37692	0.12034	-0.031
Mof_H 	H 	0.0728	0.3634	0.138	0.06
Mof_O 	O 	0.56132	0.58921	0.072	-0.405
Mof_C 	C 	0.57956	0.7247	0.06984	-0.081
Mof_O 	O 	0.51927	0.62921	0.99631	-0.407
Mof_C 	C 	0.55141	0.6415	0.04417	0.358
Mof_C 	C 	0.62308	0.74726	0.12034	-0.031
Mof_H 	H 	0.6366	0.7094	0.138	0.059
Mof_O 	O 	0.58921	0.02789	0.572	-0.406
Mof_C 	C 	0.7247	0.14514	0.56984	-0.082
Mof_O 	O 	0.62921	0.10994	0.49631	-0.408
Mof_C 	C 	0.6415	0.09009	0.54417	0.357
Mof_C 	C 	0.74726	0.12418	0.62034	-0.032
Mof_H 	H 	0.7094	0.0728	0.638	0.059
Mof_O 	O 	0.97211	0.56132	0.572	-0.406
Mof_C 	C 	0.85486	0.57956	0.56984	-0.082
Mof_O 	O 	0.89006	0.51927	0.49631	-0.408
Mof_C 	C 	0.90991	0.55141	0.54417	0.357
Mof_C 	C 	0.87582	0.62308	0.62034	-0.032
Mof_H 	H 	0.9272	0.6366	0.638	0.059
Mof_O 	O 	0.43868	0.41079	0.572	-0.406
Mof_C 	C 	0.42044	0.2753	0.56984	-0.082
Mof_O 	O 	0.48073	0.37079	0.49631	-0.408
Mof_C 	C 	0.44859	0.3585	0.54417	0.357
Mof_C 	C 	0.37692	0.25274	0.62034	-0.032
Mof_H 	H 	0.3634	0.2906	0.638	0.059
Mof_O 	O 	0.97211	0.41079	0.928	-0.406
Mof_C 	C 	0.85486	0.2753	0.93016	-0.082
Mof_O 	O 	0.89006	0.37079	0.00369	-0.408
Mof_C 	C 	0.90991	0.3585	0.95583	0.358
Mof_C 	C 	0.87582	0.25274	0.87966	-0.032
Mof_H 	H 	0.9272	0.2906	0.862	0.059
Mof_O 	O 	0.43868	0.02789	0.928	-0.406
Mof_C 	C 	0.42044	0.14514	0.93016	-0.082
Mof_O 	O 	0.48073	0.10994	0.00369	-0.408
Mof_C 	C 	0.44859	0.09009	0.95583	0.358
Mof_C 	C 	0.37692	0.12418	0.87966	-0.032
Mof_H 	H 	0.3634	0.0728	0.862	0.059
Mof_O 	O 	0.58921	0.56132	0.928	-0.406
Mof_C 	C 	0.7247	0.57956	0.93016	-0.082
Mof_O 	O 	0.62921	0.51927	0.00369	-0.408
Mof_C 	C 	0.6415	0.55141	0.95583	0.357
Mof_C 	C 	0.74726	0.62308	0.87966	-0.032
Mof_H 	H 	0.7094	0.6366	0.862	0.058
Mof_O 	O 	0.02789	0.58921	0.428	-0.406
Mof_C 	C 	0.14514	0.7247	0.43016	-0.082
Mof_O 	O 	0.10994	0.62921	0.50369	-0.408
Mof_C 	C 	0.09009	0.6415	0.45583	0.357
Mof_C 	C 	0.12418	0.74726	0.37966	-0.032
Mof_H 	H 	0.0728	0.7094	0.362	0.059
Mof_O 	O 	0.56132	0.97211	0.428	-0.406
Mof_C 	C 	0.57956	0.85486	0.43016	-0.082
Mof_O 	O 	0.51927	0.89006	0.50369	-0.408
Mof_C 	C 	0.55141	0.90991	0.45583	0.357
Mof_C 	C 	0.62308	0.87582	0.37966	-0.032
Mof_H 	H 	0.6366	0.9272	0.362	0.059
Mof_O 	O 	0.41079	0.43868	0.428	-0.406
Mof_C 	C 	0.2753	0.42044	0.43016	-0.082
Mof_O 	O 	0.37079	0.48073	0.50369	-0.408
Mof_C 	C 	0.3585	0.44859	0.45583	0.357
Mof_C 	C 	0.25274	0.37692	0.37966	-0.032
Mof_H 	H 	0.2906	0.3634	0.362	0.059
Mof_O 	O 	0.58921	0.02789	0.928	-0.406
Mof_C 	C 	0.7247	0.14514	0.93016	-0.082
Mof_O 	O 	0.62921	0.10994	0.00369	-0.408
Mof_C 	C 	0.6415	0.09009	0.95583	0.358
Mof_C 	C 	0.74726	0.12418	0.87966	-0.032
Mof_H 	H 	0.7094	0.0728	0.862	0.059
Mof_O 	O 	0.97211	0.56132	0.928	-0.406
Mof_C 	C 	0.85486	0.57956	0.93016	-0.082
Mof_O 	O 	0.89006	0.51927	0.00369	-0.408
Mof_C 	C 	0.90991	0.55141	0.95583	0.358
Mof_C 	C 	0.87582	0.62308	0.87966	-0.032
Mof_H 	H 	0.9272	0.6366	0.862	0.059
Mof_O 	O 	0.43868	0.41079	0.928	-0.406
Mof_C 	C 	0.42044	0.2753	0.93016	-0.082
Mof_O 	O 	0.48073	0.37079	0.00369	-0.408
Mof_C 	C 	0.44859	0.3585	0.95583	0.357
Mof_C 	C 	0.37692	0.25274	0.87966	-0.032
Mof_H 	H 	0.3634	0.2906	0.862	0.058
Mof_O 	O 	0.41079	0.97211	0.428	-0.406
Mof_C 	C 	0.2753	0.85486	0.43016	-0.082
Mof_O 	O 	0.37079	0.89006	0.50369	-0.408
Mof_C 	C 	0.3585	0.90991	0.45583	0.357
Mof_C 	C 	0.25274	0.87582	0.37966	-0.032
Mof_H 	H 	0.2906	0.9272	0.362	0.059
Mof_O 	O 	0.02789	0.43868	0.428	-0.406
Mof_C 	C 	0.14514	0.42044	0.43016	-0.082
Mof_O 	O 	0.10994	0.48073	0.50369	-0.408
Mof_C 	C 	0.09009	0.44859	0.45583	0.357
Mof_C 	C 	0.12418	0.37692	0.37966	-0.032
Mof_H 	H 	0.0728	0.3634	0.362	0.059
Mof_O 	O 	0.56132	0.58921	0.428	-0.406
Mof_C 	C 	0.57956	0.7247	0.43016	-0.082
Mof_O 	O 	0.51927	0.62921	0.50369	-0.408
Mof_C 	C 	0.55141	0.6415	0.45583	0.357
Mof_C 	C 	0.62308	0.74726	0.37966	-0.032
Mof_H 	H 	0.6366	0.7094	0.362	0.059
Mof_O 	O 	0.02789	0.58921	0.072	-0.406
Mof_C 	C 	0.14514	0.7247	0.06984	-0.082
Mof_O 	O 	0.10994	0.62921	0.99631	-0.408
Mof_C 	C 	0.09009	0.6415	0.04417	0.358
Mof_C 	C 	0.12418	0.74726	0.12034	-0.032
Mof_H 	H 	0.0728	0.7094	0.138	0.059
Mof_O 	O 	0.56132	0.97211	0.072	-0.406
Mof_C 	C 	0.57956	0.85486	0.06984	-0.082
Mof_O 	O 	0.51927	0.89006	0.99631	-0.408
Mof_C 	C 	0.55141	0.90991	0.04417	0.358
Mof_C 	C 	0.62308	0.87582	0.12034	-0.032
Mof_H 	H 	0.6366	0.9272	0.138	0.059
Mof_O 	O 	0.41079	0.43868	0.072	-0.406
Mof_C 	C 	0.2753	0.42044	0.06984	-0.082
Mof_O 	O 	0.37079	0.48073	0.99631	-0.408
Mof_C 	C 	0.3585	0.44859	0.04417	0.357
Mof_C 	C 	0.25274	0.37692	0.12034	-0.032
Mof_H 	H 	0.2906	0.3634	0.138	0.058
Mof_O 	O 	0.97211	0.41079	0.572	-0.406
Mof_C 	C 	0.85486	0.2753	0.56984	-0.082
Mof_O 	O 	0.89006	0.37079	0.49631	-0.408
Mof_C 	C 	0.90991	0.3585	0.54417	0.357
Mof_C 	C 	0.87582	0.25274	0.62034	-0.032
Mof_H 	H 	0.9272	0.2906	0.638	0.059
Mof_O 	O 	0.43868	0.02789	0.572	-0.406
Mof_C 	C 	0.42044	0.14514	0.56984	-0.082
Mof_O 	O 	0.48073	0.10994	0.49631	-0.408
Mof_C 	C 	0.44859	0.09009	0.54417	0.357
Mof_C 	C 	0.37692	0.12418	0.62034	-0.032
Mof_H 	H 	0.3634	0.0728	0.638	0.059
Mof_O 	O 	0.58921	0.56132	0.572	-0.406
Mof_C 	C 	0.7247	0.57956	0.56984	-0.082
Mof_O 	O 	0.62921	0.51927	0.49631	-0.408
Mof_C 	C 	0.6415	0.55141	0.54417	0.357
Mof_C 	C 	0.74726	0.62308	0.62034	-0.032
Mof_H 	H 	0.7094	0.6366	0.638	0.059
Mof_Cu	Cu	0.52429	0.04858	0.04494	0.905
Mof_Cu	Cu	0.95142	0.47571	0.04494	0.905
Mof_Cu	Cu	0.52429	0.47571	0.04494	0.906
Mof_Cu	Cu	0.47571	0.95142	0.54494	0.906
Mof_Cu	Cu	0.04858	0.52429	0.54494	0.906
Mof_Cu	Cu	0.47571	0.52429	0.54494	0.906
Mof_Cu	Cu	0.04858	0.52429	0.95506	0.905
Mof_Cu	Cu	0.47571	0.95142	0.95506	0.905
Mof_Cu	Cu	0.47571	0.52429	0.95506	0.906
Mof_Cu	Cu	0.95142	0.47571	0.45506	0.906
Mof_Cu	Cu	0.52429	0.04858	0.45506	0.906
Mof_Cu	Cu	0.52429	0.47571	0.45506	0.906
Mof_C 	C 	0.22104	0.77896	0.04469	0.023
Mof_H 	H 	0.2358	0.7642	0.0103	0.053
Mof_H 	H 	0.2307	0.7693	0.2182	0.144
Mof_C 	C 	0.17657	0.82343	0.14508	0.019
Mof_C 	C 	0.15287	0.84713	0.19931	-0.041
Mof_C 	C 	0.10971	0.89029	0.1996	-0.035
Mof_H 	H 	0.0947	0.9053	0.1654	0.047
Mof_C 	C 	0.22104	0.44208	0.04469	0.023
Mof_H 	H 	0.2358	0.4716	0.0103	0.053
Mof_H 	H 	0.2307	0.4614	0.2182	0.144
Mof_C 	C 	0.17657	0.35314	0.14508	0.019
Mof_C 	C 	0.15287	0.30574	0.19931	-0.041
Mof_C 	C 	0.10971	0.21942	0.1996	-0.035
Mof_H 	H 	0.0947	0.1894	0.1654	0.047
Mof_C 	C 	0.55792	0.77896	0.04469	0.023
Mof_H 	H 	0.5284	0.7642	0.0103	0.053
Mof_H 	H 	0.5386	0.7693	0.2182	0.144
Mof_C 	C 	0.64686	0.82343	0.14508	0.019
Mof_C 	C 	0.69426	0.84713	0.19931	-0.041
Mof_C 	C 	0.78058	0.89029	0.1996	-0.035
Mof_H 	H 	0.8106	0.9053	0.1654	0.047
Mof_C 	C 	0.77896	0.22104	0.54469	0.023
Mof_H 	H 	0.7642	0.2358	0.5103	0.053
Mof_H 	H 	0.7693	0.2307	0.7182	0.144
Mof_C 	C 	0.82343	0.17657	0.64508	0.019
Mof_C 	C 	0.84713	0.15287	0.69931	-0.041
Mof_C 	C 	0.89029	0.10971	0.6996	-0.035
Mof_H 	H 	0.9053	0.0947	0.6654	0.047
Mof_C 	C 	0.77896	0.55792	0.54469	0.023
Mof_H 	H 	0.7642	0.5284	0.5103	0.053
Mof_H 	H 	0.7693	0.5386	0.7182	0.144
Mof_C 	C 	0.82343	0.64686	0.64508	0.019
Mof_C 	C 	0.84713	0.69426	0.69931	-0.041
Mof_C 	C 	0.89029	0.78058	0.6996	-0.035
Mof_H 	H 	0.9053	0.8106	0.6654	0.047
Mof_C 	C 	0.44208	0.22104	0.54469	0.023
Mof_H 	H 	0.4716	0.2358	0.5103	0.053
Mof_H 	H 	0.4614	0.2307	0.7182	0.144
Mof_C 	C 	0.35314	0.17657	0.64508	0.019
Mof_C 	C 	0.30574	0.15287	0.69931	-0.041
Mof_C 	C 	0.21942	0.10971	0.6996	-0.035
Mof_H 	H 	0.1894	0.0947	0.6654	0.047
Mof_C 	C 	0.77896	0.22104	0.95531	0.023
Mof_H 	H 	0.7642	0.2358	0.9897	0.053
Mof_H 	H 	0.7693	0.2307	0.7818	0.144
Mof_C 	C 	0.82343	0.17657	0.85492	0.019
Mof_C 	C 	0.84713	0.15287	0.80069	-0.041
Mof_C 	C 	0.89029	0.10971	0.8004	-0.035
Mof_H 	H 	0.9053	0.0947	0.8346	0.047
Mof_C 	C 	0.44208	0.22104	0.95531	0.023
Mof_H 	H 	0.4716	0.2358	0.9897	0.053
Mof_H 	H 	0.4614	0.2307	0.7818	0.144
Mof_C 	C 	0.35314	0.17657	0.85492	0.019
Mof_C 	C 	0.30574	0.15287	0.80069	-0.041
Mof_C 	C 	0.21942	0.10971	0.8004	-0.035
Mof_H 	H 	0.1894	0.0947	0.8346	0.047
Mof_C 	C 	0.77896	0.55792	0.95531	0.023
Mof_H 	H 	0.7642	0.5284	0.9897	0.053
Mof_H 	H 	0.7693	0.5386	0.7818	0.144
Mof_C 	C 	0.82343	0.64686	0.85492	0.019
Mof_C 	C 	0.84713	0.69426	0.80069	-0.041
Mof_C 	C 	0.89029	0.78058	0.8004	-0.035
Mof_H 	H 	0.9053	0.8106	0.8346	0.047
Mof_C 	C 	0.22104	0.77896	0.45531	0.023
Mof_H 	H 	0.2358	0.7642	0.4897	0.053
Mof_H 	H 	0.2307	0.7693	0.2818	0.144
Mof_C 	C 	0.17657	0.82343	0.35492	0.019
Mof_C 	C 	0.15287	0.84713	0.30069	-0.041
Mof_C 	C 	0.10971	0.89029	0.3004	-0.035
Mof_H 	H 	0.0947	0.9053	0.3346	0.047
Mof_C 	C 	0.55792	0.77896	0.45531	0.023
Mof_H 	H 	0.5284	0.7642	0.4897	0.053
Mof_H 	H 	0.5386	0.7693	0.2818	0.144
Mof_C 	C 	0.64686	0.82343	0.35492	0.019
Mof_C 	C 	0.69426	0.84713	0.30069	-0.041
Mof_C 	C 	0.78058	0.89029	0.3004	-0.035
Mof_H 	H 	0.8106	0.9053	0.3346	0.047
Mof_C 	C 	0.22104	0.44208	0.45531	0.023
Mof_H 	H 	0.2358	0.4716	0.4897	0.053
Mof_H 	H 	0.2307	0.4614	0.2818	0.144
Mof_C 	C 	0.17657	0.35314	0.35492	0.019
Mof_C 	C 	0.15287	0.30574	0.30069	-0.041
Mof_C 	C 	0.10971	0.21942	0.3004	-0.035
Mof_H 	H 	0.0947	0.1894	0.3346	0.047
Mof_C 	C 	0.1744	0.8256	0.25	0.101
Mof_N 	N 	0.21692	0.78308	0.25	-0.289
Mof_C 	C 	0.0882	0.9118	0.25	-0.041
Mof_H 	H 	0.0584	0.9416	0.25	0.042
Mof_C 	C 	0.1744	0.3488	0.25	0.101
Mof_N 	N 	0.21692	0.43384	0.25	-0.289
Mof_C 	C 	0.0882	0.1764	0.25	-0.041
Mof_H 	H 	0.0584	0.1168	0.25	0.042
Mof_C 	C 	0.6512	0.8256	0.25	0.101
Mof_N 	N 	0.56616	0.78308	0.25	-0.289
Mof_C 	C 	0.8236	0.9118	0.25	-0.041
Mof_H 	H 	0.8832	0.9416	0.25	0.042
Mof_C 	C 	0.8256	0.1744	0.75	0.101
Mof_N 	N 	0.78308	0.21692	0.75	-0.289
Mof_C 	C 	0.9118	0.0882	0.75	-0.041
Mof_H 	H 	0.9416	0.0584	0.75	0.042
Mof_C 	C 	0.8256	0.6512	0.75	0.101
Mof_N 	N 	0.78308	0.56616	0.75	-0.289
Mof_C 	C 	0.9118	0.8236	0.75	-0.041
Mof_H 	H 	0.9416	0.8832	0.75	0.042
Mof_C 	C 	0.3488	0.1744	0.75	0.101
Mof_N 	N 	0.43384	0.21692	0.75	-0.289
Mof_C 	C 	0.1764	0.0882	0.75	-0.041
Mof_H 	H 	0.1168	0.0584	0.75	0.042
_end
