data_functionalizedCrystal
_audit_creation_method	'EQeq! by Chris Wilmer'
_symmetry_space_group_name_H-M	'P1'
_symmetry_Int_Tables_number	1
_symmetry_cell_setting	triclinic
loop_
_symmetry_equiv_pos_as_xyz
  x,y,z
_cell_length_a	10.721
_cell_length_b	13.018
_cell_length_c	15.183
_cell_angle_alpha	95.599
_cell_angle_beta	108.01
_cell_angle_gamma	104.702
loop_
_atom_site_label
_atom_site_type_symbol
_atom_site_fract_x
_atom_site_fract_y
_atom_site_fract_z
_atom_site_charge
Mof_Zn	Zn	0.58228	0.07958	0.65621	1.214
Mof_Zn	Zn	0.74817	0.36797	0.91608	1.223
Mof_Zn	Zn	0.41831	0.54113	0.83732	1.179
Mof_Zn	Zn	0.41772	0.92042	0.34379	1.215
Mof_Zn	Zn	0.25183	0.63203	0.08392	1.224
Mof_Zn	Zn	0.58169	0.45887	0.16268	1.179
Mof_H 	H 	0.8523	0.4318	0.6658	0.15
Mof_H 	H 	0.6947	0.3778	0.6127	0.149
Mof_H 	H 	0.0585	0.3326	0.859	0.15
Mof_H 	H 	0.1659	0.2983	0.9368	0.13
Mof_H 	H 	0.6368	0.2742	0.4754	0.147
Mof_H 	H 	0.753	0.2486	0.4435	0.152
Mof_H 	H 	0.0511	0.0403	0.3898	0.122
Mof_H 	H 	0.9328	0.0649	0.4193	0.123
Mof_H 	H 	0.263	0.0895	0.61	0.113
Mof_H 	H 	0.2397	0.043	0.5052	0.139
Mof_H 	H 	0.3004	0.194	0.8082	0.157
Mof_H 	H 	0.3258	0.2417	0.9128	0.13
Mof_H 	H 	0.8834	0.6843	0.8157	0.084
Mof_H 	H 	0.0151	0.5944	0.91	-0.003
Mof_H 	H 	0.1597	0.4202	0.4928	0.106
Mof_H 	H 	0.1841	0.6228	0.764	-0.021
Mof_H 	H 	0.0502	0.033	0.8406	0.07
Mof_H 	H 	0.2602	0.865	0.0777	-0.024
Mof_H 	H 	0.335	0.44	0.6336	-0.012
Mof_H 	H 	0.1385	0.9641	0.9883	0.073
Mof_H 	H 	0.0049	0.6068	0.6282	0.1
Mof_H 	H 	0.7281	0.7748	0.8037	0.045
Mof_H 	H 	0.8993	0.1177	0.76	0.01
Mof_H 	H 	0.5858	0.8665	0.7214	-0.001
Mof_H 	H 	0.1477	0.5682	0.3342	0.15
Mof_H 	H 	0.3053	0.6222	0.3873	0.149
Mof_H 	H 	0.9415	0.6674	0.141	0.15
Mof_H 	H 	0.8341	0.7017	0.0632	0.13
Mof_H 	H 	0.3632	0.7258	0.5246	0.147
Mof_H 	H 	0.247	0.7514	0.5565	0.152
Mof_H 	H 	0.9489	0.9597	0.6102	0.122
Mof_H 	H 	0.0672	0.9351	0.5807	0.123
Mof_H 	H 	0.737	0.9105	0.39	0.113
Mof_H 	H 	0.7603	0.957	0.4948	0.139
Mof_H 	H 	0.6996	0.806	0.1918	0.157
Mof_H 	H 	0.6742	0.7583	0.0872	0.13
Mof_H 	H 	0.1166	0.3157	0.1843	0.084
Mof_H 	H 	0.9849	0.4056	0.09	-0.003
Mof_H 	H 	0.8403	0.5798	0.5072	0.106
Mof_H 	H 	0.8159	0.3772	0.236	-0.021
Mof_H 	H 	0.9498	0.967	0.1594	0.07
Mof_H 	H 	0.7398	0.135	0.9223	-0.024
Mof_H 	H 	0.665	0.56	0.3664	-0.012
Mof_H 	H 	0.8615	0.0359	0.0117	0.073
Mof_H 	H 	0.9951	0.3932	0.3718	0.1
Mof_H 	H 	0.2719	0.2252	0.1963	0.045
Mof_H 	H 	0.1007	0.8823	0.24	0.01
Mof_H 	H 	0.4142	0.1335	0.2786	-0.001
Mof_C 	C 	0.7793	0.3637	0.6472	-0.328
Mof_C 	C 	0.7649	0.3258	0.7362	0.436
Mof_C 	C 	0.1282	0.2786	0.727	0.142
Mof_C 	C 	0.0811	0.1906	0.5795	0.162
Mof_C 	C 	0.9308	0.2676	0.6116	0.164
Mof_C 	C 	0.1561	0.3445	0.8903	-0.356
Mof_C 	C 	0.7076	0.2382	0.4896	-0.336
Mof_C 	C 	0.0252	0.0968	0.4198	-0.252
Mof_C 	C 	0.247	0.1068	0.5475	-0.3
Mof_C 	C 	0.639	0.1174	0.4783	0.463
Mof_C 	C 	0.4634	0.325	0.8629	0.491
Mof_C 	C 	0.3239	0.2609	0.8523	-0.396
Mof_C 	C 	0.2203	0.461	0.9416	0.443
Mof_C 	C 	0.3693	0.1969	0.5504	0.394
Mof_C 	C 	0.0218	0.1839	0.3603	0.342
Mof_C 	C 	0.9592	0.7229	0.8684	-0.131
Mof_C 	C 	0.0584	0.5079	0.5449	0.069
Mof_C 	C 	0.0387	0.6693	0.9261	0.075
Mof_C 	C 	0.1616	0.4604	0.5475	-0.146
Mof_C 	C 	0.1779	0.5807	0.7088	0.088
Mof_C 	C 	0.9044	0.8945	0.8336	0.049
Mof_C 	C 	0.9561	0.9981	0.8181	-0.123
Mof_C 	C 	0.1834	0.8289	0.0248	0.08
Mof_C 	C 	0.2674	0.4733	0.6323	0.092
Mof_C 	C 	0.1108	0.8891	0.9712	-0.138
Mof_C 	C 	0.9949	0.8355	0.8908	0.062
Mof_C 	C 	0.0698	0.5712	0.6276	-0.151
Mof_C 	C 	0.7652	0.8446	0.796	-0.11
Mof_C 	C 	0.8643	0.0477	0.7684	0.071
Mof_C 	C 	0.6802	0.9003	0.7461	0.049
Mof_C 	C 	0.2207	0.6363	0.3528	-0.328
Mof_C 	C 	0.2351	0.6742	0.2638	0.436
Mof_C 	C 	0.8718	0.7214	0.273	0.142
Mof_C 	C 	0.9189	0.8094	0.4205	0.162
Mof_C 	C 	0.0692	0.7324	0.3884	0.164
Mof_C 	C 	0.8439	0.6555	0.1097	-0.356
Mof_C 	C 	0.2924	0.7618	0.5104	-0.336
Mof_C 	C 	0.9748	0.9032	0.5802	-0.252
Mof_C 	C 	0.753	0.8932	0.4525	-0.3
Mof_C 	C 	0.361	0.8826	0.5217	0.463
Mof_C 	C 	0.5366	0.675	0.1371	0.491
Mof_C 	C 	0.6761	0.7391	0.1477	-0.396
Mof_C 	C 	0.7797	0.539	0.0584	0.443
Mof_C 	C 	0.6307	0.8031	0.4496	0.394
Mof_C 	C 	0.9782	0.8161	0.6397	0.342
Mof_C 	C 	0.0408	0.2771	0.1316	-0.131
Mof_C 	C 	0.9416	0.4921	0.4551	0.069
Mof_C 	C 	0.9613	0.3307	0.0739	0.075
Mof_C 	C 	0.8384	0.5396	0.4525	-0.146
Mof_C 	C 	0.8221	0.4193	0.2912	0.088
Mof_C 	C 	0.0956	0.1055	0.1664	0.049
Mof_C 	C 	0.0439	0.0019	0.1819	-0.123
Mof_C 	C 	0.8166	0.1711	0.9752	0.08
Mof_C 	C 	0.7326	0.5267	0.3677	0.092
Mof_C 	C 	0.8892	0.1109	0.0288	-0.138
Mof_C 	C 	0.0051	0.1645	0.1092	0.062
Mof_C 	C 	0.9302	0.4288	0.3724	-0.151
Mof_C 	C 	0.2348	0.1554	0.204	-0.11
Mof_C 	C 	0.1357	0.9523	0.2316	0.071
Mof_C 	C 	0.3198	0.0997	0.2539	0.049
Mof_N 	N 	0.0123	0.3077	0.7014	-0.155
Mof_N 	N 	0.8086	0.2902	0.5835	-0.043
Mof_N 	N 	0.1703	0.2226	0.6688	-0.16
Mof_N 	N 	0.9584	0.208	0.5458	-0.151
Mof_N 	N 	0.1167	0.131	0.5169	-0.05
Mof_N 	N 	0.2125	0.3102	0.8202	-0.055
Mof_N 	N 	0.1471	0.7205	0.0034	-0.265
Mof_N 	N 	0.2749	0.5319	0.7116	-0.289
Mof_N 	N 	0.7295	0.0016	0.7322	-0.227
Mof_N 	N 	0.9877	0.6923	0.2986	-0.155
Mof_N 	N 	0.1914	0.7098	0.4165	-0.043
Mof_N 	N 	0.8297	0.7774	0.3312	-0.16
Mof_N 	N 	0.0416	0.792	0.4542	-0.151
Mof_N 	N 	0.8833	0.869	0.4831	-0.05
Mof_N 	N 	0.7875	0.6898	0.1798	-0.055
Mof_N 	N 	0.8529	0.2795	0.9966	-0.265
Mof_N 	N 	0.7251	0.4681	0.2884	-0.289
Mof_N 	N 	0.2705	0.9984	0.2678	-0.227
Mof_O 	O 	0.6594	0.0723	0.5492	-0.469
Mof_O 	O 	0.7838	0.4055	0.8028	-0.474
Mof_O 	O 	0.7365	0.2314	0.7472	-0.473
Mof_O 	O 	0.5689	0.0695	0.3954	-0.483
Mof_O 	O 	0.5545	0.2782	0.8855	-0.518
Mof_O 	O 	0.4943	0.4208	0.8512	-0.578
Mof_O 	O 	0.1752	0.4842	0.0066	-0.493
Mof_O 	O 	0.3059	0.5309	0.9208	-0.55
Mof_O 	O 	0.3508	0.2727	0.5068	-0.245
Mof_O 	O 	0.4879	0.1918	0.5935	-0.436
Mof_O 	O 	0.1342	0.2646	0.3816	-0.225
Mof_O 	O 	0.9188	0.1776	0.2938	-0.272
Mof_O 	O 	0.3406	0.9277	0.4508	-0.469
Mof_O 	O 	0.2162	0.5945	0.1972	-0.474
Mof_O 	O 	0.2635	0.7686	0.2528	-0.473
Mof_O 	O 	0.4311	0.9305	0.6046	-0.483
Mof_O 	O 	0.4455	0.7218	0.1145	-0.518
Mof_O 	O 	0.5057	0.5792	0.1488	-0.578
Mof_O 	O 	0.8248	0.5158	0.9934	-0.493
Mof_O 	O 	0.6941	0.4691	0.0792	-0.55
Mof_O 	O 	0.6492	0.7273	0.4932	-0.245
Mof_O 	O 	0.5121	0.8082	0.4065	-0.436
Mof_O 	O 	0.8658	0.7354	0.6184	-0.225
Mof_O 	O 	0.0812	0.8224	0.7062	-0.272
_end
