data_functionalizedCrystal
_audit_creation_method	'EQeq! by Chris Wilmer'
_symmetry_space_group_name_H-M	'P1'
_symmetry_Int_Tables_number	1
_symmetry_cell_setting	triclinic
loop_
_symmetry_equiv_pos_as_xyz
  x,y,z
_cell_length_a	9.119
_cell_length_b	14.4711
_cell_length_c	14.7355
_cell_angle_alpha	90
_cell_angle_beta	90
_cell_angle_gamma	107.752
loop_
_atom_site_label
_atom_site_type_symbol
_atom_site_fract_x
_atom_site_fract_y
_atom_site_fract_z
_atom_site_charge
Mof_Zn	Zn	0.27724	0.36437	0.34906	1.22
Mof_Zn	Zn	0.18311	0.13419	0.25261	1.216
Mof_Zn	Zn	0.22276	0.13563	0.84906	1.221
Mof_Zn	Zn	0.31689	0.36581	0.75261	1.217
Mof_Zn	Zn	0.72276	0.63563	0.65094	1.221
Mof_Zn	Zn	0.81689	0.86581	0.74739	1.217
Mof_Zn	Zn	0.77724	0.86437	0.15094	1.221
Mof_Zn	Zn	0.68311	0.63419	0.24739	1.217
Mof_H 	H 	0.8581	0.3945	0.298	-0.012
Mof_H 	H 	0.7013	0.1024	0.2779	-0.031
Mof_H 	H 	0.4505	0.1067	0.2861	0.109
Mof_H 	H 	0.2611	0.4107	0.5533	-0.157
Mof_H 	H 	0.6419	0.1055	0.798	-0.012
Mof_H 	H 	0.7987	0.3976	0.7779	-0.032
Mof_H 	H 	0.0495	0.3933	0.7861	0.11
Mof_H 	H 	0.2389	0.0893	0.0533	-0.157
Mof_H 	H 	0.1419	0.6055	0.702	-0.012
Mof_H 	H 	0.2987	0.8976	0.7221	-0.031
Mof_H 	H 	0.5495	0.8933	0.7139	0.109
Mof_H 	H 	0.7389	0.5893	0.4467	-0.157
Mof_H 	H 	0.3581	0.8945	0.202	-0.012
Mof_H 	H 	0.2013	0.6024	0.2221	-0.032
Mof_H 	H 	0.9505	0.6067	0.2139	0.11
Mof_H 	H 	0.7611	0.9107	0.9467	-0.157
Mof_C 	C 	0.4978	0.2546	0.2954	0.338
Mof_C 	C 	0.6243	0.3416	0.2985	-0.301
Mof_C 	C 	0.7746	0.3361	0.2952	0.184
Mof_C 	C 	0.806	0.2484	0.2879	-0.246
Mof_C 	C 	0.6822	0.163	0.2837	0.194
Mof_C 	C 	0.5325	0.1658	0.288	-0.322
Mof_C 	C 	0.6063	0.4413	0.3012	0.433
Mof_C 	C 	0.9675	0.2449	0.2844	0.446
Mof_C 	C 	0.2782	0.3493	0.5499	0.495
Mof_C 	C 	0.0022	0.2454	0.7954	0.339
Mof_C 	C 	0.8757	0.1584	0.7985	-0.301
Mof_C 	C 	0.7254	0.1639	0.7952	0.184
Mof_C 	C 	0.694	0.2516	0.7879	-0.246
Mof_C 	C 	0.8178	0.337	0.7837	0.195
Mof_C 	C 	0.9675	0.3342	0.788	-0.324
Mof_C 	C 	0.8937	0.0587	0.8012	0.434
Mof_C 	C 	0.5325	0.2551	0.7844	0.446
Mof_C 	C 	0.2218	0.1507	0.0499	0.495
Mof_C 	C 	0.5022	0.7454	0.7046	0.338
Mof_C 	C 	0.3757	0.6584	0.7015	-0.301
Mof_C 	C 	0.2254	0.6639	0.7048	0.184
Mof_C 	C 	0.194	0.7516	0.7121	-0.246
Mof_C 	C 	0.3178	0.837	0.7163	0.194
Mof_C 	C 	0.4675	0.8342	0.712	-0.322
Mof_C 	C 	0.3937	0.5587	0.6988	0.433
Mof_C 	C 	0.0325	0.7551	0.7156	0.446
Mof_C 	C 	0.7218	0.6507	0.4501	0.495
Mof_C 	C 	0.9978	0.7546	0.2046	0.339
Mof_C 	C 	0.1243	0.8416	0.2015	-0.301
Mof_C 	C 	0.2746	0.8361	0.2048	0.184
Mof_C 	C 	0.306	0.7484	0.2121	-0.246
Mof_C 	C 	0.1822	0.663	0.2163	0.195
Mof_C 	C 	0.0325	0.6658	0.212	-0.324
Mof_C 	C 	0.1063	0.9413	0.1988	0.434
Mof_C 	C 	0.4675	0.7449	0.2156	0.446
Mof_C 	C 	0.7782	0.8493	0.9501	0.495
Mof_O 	O 	0.3518	0.25264	0.29676	-0.577
Mof_O 	O 	0.4761	0.45465	0.30958	-0.533
Mof_O 	O 	0.7262	0.51226	0.2935	-0.473
Mof_O 	O 	0.0743	0.32437	0.2909	-0.518
Mof_O 	O 	0.9875	0.16245	0.276	-0.5
Mof_O 	O 	0.2804	0.3126	0.473	-0.508
Mof_O 	O 	0.2971	0.3096	0.622	-0.459
Mof_O 	O 	0.1482	0.24736	0.79676	-0.578
Mof_O 	O 	0.0239	0.04535	0.80958	-0.533
Mof_O 	O 	0.7738	0.98774	0.7935	-0.473
Mof_O 	O 	0.4257	0.17563	0.7909	-0.517
Mof_O 	O 	0.5125	0.33755	0.776	-0.5
Mof_O 	O 	0.2196	0.1874	0.973	-0.508
Mof_O 	O 	0.2029	0.1904	0.122	-0.459
Mof_O 	O 	0.6482	0.74736	0.70324	-0.577
Mof_O 	O 	0.5239	0.54535	0.69042	-0.533
Mof_O 	O 	0.2738	0.48774	0.7065	-0.473
Mof_O 	O 	0.9257	0.67563	0.7091	-0.518
Mof_O 	O 	0.0125	0.83755	0.724	-0.5
Mof_O 	O 	0.7196	0.6874	0.527	-0.508
Mof_O 	O 	0.7029	0.6904	0.378	-0.459
Mof_O 	O 	0.8518	0.75264	0.20324	-0.578
Mof_O 	O 	0.9761	0.95465	0.19042	-0.533
Mof_O 	O 	0.2262	0.01226	0.2065	-0.473
Mof_O 	O 	0.5743	0.82437	0.2091	-0.517
Mof_O 	O 	0.4875	0.66245	0.224	-0.5
Mof_O 	O 	0.7804	0.8126	0.027	-0.508
Mof_O 	O 	0.7971	0.8096	0.878	-0.459
_end
