data_functionalizedCrystal
_audit_creation_method	'EQeq! by Chris Wilmer'
_symmetry_space_group_name_H-M	'P1'
_symmetry_Int_Tables_number	1
_symmetry_cell_setting	triclinic
loop_
_symmetry_equiv_pos_as_xyz
  x,y,z
_cell_length_a	9.2275
_cell_length_b	9.771
_cell_length_c	10.699
_cell_angle_alpha	67.81
_cell_angle_beta	84.49
_cell_angle_gamma	61.84
loop_
_atom_site_label
_atom_site_type_symbol
_atom_site_fract_x
_atom_site_fract_y
_atom_site_fract_z
_atom_site_charge
Mof_Ce	Ce	0.72285	0.04384	0.98314	2.312
Mof_Ce	Ce	0.27715	0.95616	0.01686	2.312
Mof_H 	H 	0.1012	0.449	0.133	0.112
Mof_H 	H 	0.0663	0.4607	0.2758	0.108
Mof_H 	H 	0.8801	0.397	0.1302	0.025
Mof_H 	H 	0.8281	0.426	0.2659	0.017
Mof_H 	H 	0.132	0.1619	0.2481	-0.009
Mof_H 	H 	0.0736	0.1889	0.3832	-0.016
Mof_H 	H 	0.8597	0.1269	0.3703	0.159
Mof_H 	H 	0.0333	0.975	0.3792	0.147
Mof_H 	H 	0.3298	0.0967	0.6512	0.146
Mof_H 	H 	0.3833	0.2311	0.5606	0.137
Mof_H 	H 	0.587	0.8812	0.6277	0.005
Mof_H 	H 	0.6328	0.019	0.5315	0.011
Mof_H 	H 	0.8988	0.551	0.867	0.112
Mof_H 	H 	0.9337	0.5393	0.7242	0.108
Mof_H 	H 	0.1199	0.603	0.8698	0.025
Mof_H 	H 	0.1719	0.574	0.7341	0.017
Mof_H 	H 	0.868	0.8381	0.7519	-0.009
Mof_H 	H 	0.9264	0.8111	0.6168	-0.016
Mof_H 	H 	0.1403	0.8731	0.6297	0.159
Mof_H 	H 	0.9667	0.025	0.6208	0.147
Mof_H 	H 	0.6702	0.9033	0.3488	0.146
Mof_H 	H 	0.6167	0.7689	0.4394	0.137
Mof_H 	H 	0.413	0.1188	0.3723	0.005
Mof_H 	H 	0.3672	0.981	0.4685	0.011
Mof_C 	C 	0.906	0.6727	0.1227	0.376
Mof_C 	C 	0.0143	0.4851	0.19	-0.317
Mof_C 	C 	0.9216	0.3842	0.216	-0.057
Mof_C 	C 	0.0358	0.2004	0.2965	0.1
Mof_C 	C 	0.9558	0.0886	0.3218	-0.477
Mof_C 	C 	0.9034	0.0867	0.1931	0.538
Mof_C 	C 	0.5106	0.0945	0.7489	0.505
Mof_C 	C 	0.4238	0.1167	0.6257	-0.424
Mof_C 	C 	0.5417	0.9948	0.5604	0.024
Mof_C 	C 	0.094	0.3273	0.8773	0.376
Mof_C 	C 	0.9857	0.5149	0.81	-0.317
Mof_C 	C 	0.0784	0.6158	0.784	-0.057
Mof_C 	C 	0.9642	0.7996	0.7035	0.1
Mof_C 	C 	0.0442	0.9114	0.6782	-0.477
Mof_C 	C 	0.0966	0.9133	0.8069	0.538
Mof_C 	C 	0.4894	0.9055	0.2511	0.505
Mof_C 	C 	0.5762	0.8833	0.3743	-0.424
Mof_C 	C 	0.4583	0.0052	0.4396	0.024
Mof_O 	O 	0.9215	0.7677	0.1712	-0.487
Mof_O 	O 	0.8071	0.7345	0.0215	-0.484
Mof_O 	O 	0.7571	0.1196	0.1726	-0.592
Mof_O 	O 	0.0082	0.05	0.111	-0.626
Mof_O 	O 	0.6258	0.1339	0.7351	-0.554
Mof_O 	O 	0.4748	0.032	0.866	-0.679
Mof_O 	O 	0.0785	0.2323	0.8288	-0.487
Mof_O 	O 	0.1929	0.2655	0.9785	-0.484
Mof_O 	O 	0.2429	0.8804	0.8274	-0.592
Mof_O 	O 	0.9918	0.95	0.889	-0.626
Mof_O 	O 	0.3742	0.8661	0.2649	-0.554
Mof_O 	O 	0.5252	0.968	0.134	-0.679
_end
