data_functionalizedCrystal
_audit_creation_method	'EQeq! by Chris Wilmer'
_symmetry_space_group_name_H-M	'P1'
_symmetry_Int_Tables_number	1
_symmetry_cell_setting	triclinic
loop_
_symmetry_equiv_pos_as_xyz
  x,y,z
_cell_length_a	9.374
_cell_length_b	21.316
_cell_length_c	17.13
_cell_angle_alpha	90
_cell_angle_beta	118.334
_cell_angle_gamma	90
loop_
_atom_site_label
_atom_site_type_symbol
_atom_site_fract_x
_atom_site_fract_y
_atom_site_fract_z
_atom_site_charge
Mof_N 	N 	0.1813	0.7541	0.1807	-0.178
Mof_C 	C 	0.2757	0.7856	0.2525	0.16
Mof_H 	H 	0.3845	0.7743	0.2826	-0.005
Mof_C 	C 	0.0252	0.7704	0.14	0.138
Mof_H 	H 	0.9542	0.7479	0.09	-0.001
Mof_Cd	Cd	0.72237	0.18701	0.38881	0.437
Mof_Cd	Cd	0.29308	0.99253	0.09029	0.398
Mof_O 	O 	0.4702	0.1335	0.3677	-0.274
Mof_O 	O 	0.4644	0.2104	0.2842	-0.276
Mof_O 	O 	0.3121	0.0777	0.1796	-0.276
Mof_O 	O 	0.1087	0.0132	0.1478	-0.272
Mof_O 	O 	0.9101	0.1181	0.9972	-0.254
Mof_O 	O 	0.7168	0.0707	0.0132	-0.285
Mof_O 	O 	0.9614	0.2851	0.0276	-0.276
Mof_O 	O 	0.7212	0.2484	0.9965	-0.266
Mof_N 	N 	0.8318	0.0924	0.3891	-0.161
Mof_C 	C 	0.7392	0.0452	0.3395	0.091
Mof_H 	H 	0.6272	0.0503	0.3108	0.014
Mof_C 	C 	0.8018	0.9899	0.3292	-0.168
Mof_H 	H 	0.7322	0.9585	0.2939	0.087
Mof_C 	C 	0.9705	0.9799	0.3713	0.111
Mof_C 	C 	0.0636	0.0291	0.4209	-0.157
Mof_H 	H 	0.1758	0.0251	0.4502	0.089
Mof_C 	C 	0.9906	0.0881	0.4288	0.077
Mof_H 	H 	0.0552	0.1216	0.4612	0.014
Mof_C 	C 	0.04	0.9183	0.3573	-0.113
Mof_H 	H 	0.1568	0.9189	0.3938	0.067
Mof_H 	H 	0.9983	0.8838	0.3775	0.076
Mof_C 	C 	0.0027	0.9067	0.267	-0.245
Mof_H 	H 	0.0346	0.9438	0.2465	0.117
Mof_H 	H 	0.8856	0.9038	0.2327	0.103
Mof_C 	C 	0.0702	0.852	0.2421	0.218
Mof_C 	C 	0.9637	0.8192	0.1684	-0.24
Mof_H 	H 	0.8541	0.8294	0.1386	0.12
Mof_C 	C 	0.2269	0.8331	0.2862	-0.264
Mof_H 	H 	0.2995	0.8526	0.3388	0.13
Mof_C 	C 	0.8729	0.2499	0.0447	0.292
Mof_C 	C 	0.9515	0.2106	0.1296	-0.075
Mof_H 	H 	0.9322	0.2345	0.1726	0.062
Mof_C 	C 	0.1314	0.2068	0.1699	-0.089
Mof_H 	H 	0.1762	0.2489	0.1818	0.075
Mof_H 	H 	0.1599	0.1873	0.128	0.092
Mof_C 	C 	0.2068	0.169	0.2565	-0.085
Mof_H 	H 	0.1734	0.19	0.2961	0.064
Mof_C 	C 	0.3932	0.1691	0.3053	0.316
Mof_C 	C 	0.1342	0.1032	0.241	-0.093
Mof_H 	H 	0.1767	0.083	0.2992	0.069
Mof_C 	C 	0.9486	0.1086	0.203	-0.062
Mof_H 	H 	0.9027	0.0667	0.19	0.062
Mof_H 	H 	0.9264	0.1262	0.2483	0.051
Mof_C 	C 	0.8626	0.1483	0.1194	-0.108
Mof_H 	H 	0.7557	0.1587	0.113	0.08
Mof_C 	C 	0.1872	0.0625	0.1842	0.298
Mof_C 	C 	0.8336	0.1111	0.0376	0.319
Mof_N 	N 	0.8187	0.2541	0.3193	-0.18
Mof_C 	C 	0.7243	0.2856	0.2475	0.16
Mof_H 	H 	0.6155	0.2743	0.2174	-0.006
Mof_C 	C 	0.9748	0.2704	0.36	0.139
Mof_H 	H 	0.0458	0.2479	0.41	-0.002
Mof_Cd	Cd	0.27763	0.68701	0.11119	0.436
Mof_Cd	Cd	0.70692	0.49253	0.40971	0.398
Mof_O 	O 	0.5298	0.6335	0.1323	-0.274
Mof_O 	O 	0.5356	0.7104	0.2158	-0.276
Mof_O 	O 	0.6879	0.5777	0.3204	-0.276
Mof_O 	O 	0.8913	0.5132	0.3522	-0.272
Mof_O 	O 	0.0899	0.6181	0.5028	-0.253
Mof_O 	O 	0.2832	0.5707	0.4868	-0.285
Mof_O 	O 	0.0386	0.7851	0.4724	-0.276
Mof_O 	O 	0.2788	0.7484	0.5035	-0.266
Mof_N 	N 	0.1682	0.5924	0.1109	-0.161
Mof_C 	C 	0.2608	0.5452	0.1605	0.09
Mof_H 	H 	0.3728	0.5503	0.1892	0.014
Mof_C 	C 	0.1982	0.4899	0.1708	-0.167
Mof_H 	H 	0.2678	0.4585	0.2061	0.087
Mof_C 	C 	0.0295	0.4799	0.1287	0.109
Mof_C 	C 	0.9364	0.5291	0.0791	-0.156
Mof_H 	H 	0.8242	0.5251	0.0498	0.089
Mof_C 	C 	0.0094	0.5881	0.0712	0.076
Mof_H 	H 	0.9448	0.6216	0.0388	0.014
Mof_C 	C 	0.96	0.4183	0.1427	-0.11
Mof_H 	H 	0.8432	0.4189	0.1062	0.066
Mof_H 	H 	0.0017	0.3838	0.1225	0.074
Mof_C 	C 	0.9973	0.4067	0.233	-0.247
Mof_H 	H 	0.9654	0.4438	0.2535	0.118
Mof_H 	H 	0.1144	0.4038	0.2673	0.103
Mof_C 	C 	0.9298	0.352	0.2579	0.22
Mof_C 	C 	0.0363	0.3192	0.3316	-0.242
Mof_H 	H 	0.1459	0.3294	0.3614	0.121
Mof_C 	C 	0.7731	0.3331	0.2138	-0.265
Mof_H 	H 	0.7005	0.3526	0.1612	0.131
Mof_C 	C 	0.1271	0.7499	0.4553	0.291
Mof_C 	C 	0.0485	0.7106	0.3704	-0.075
Mof_H 	H 	0.0678	0.7345	0.3274	0.062
Mof_C 	C 	0.8686	0.7068	0.3301	-0.088
Mof_H 	H 	0.8238	0.7489	0.3182	0.075
Mof_H 	H 	0.8401	0.6873	0.372	0.092
Mof_C 	C 	0.7932	0.669	0.2435	-0.085
Mof_H 	H 	0.8266	0.69	0.2039	0.064
Mof_C 	C 	0.6068	0.6691	0.1947	0.317
Mof_C 	C 	0.8658	0.6032	0.259	-0.093
Mof_H 	H 	0.8233	0.583	0.2008	0.068
Mof_C 	C 	0.0514	0.6086	0.297	-0.063
Mof_H 	H 	0.0973	0.5667	0.31	0.062
Mof_H 	H 	0.0736	0.6262	0.2517	0.051
Mof_C 	C 	0.1374	0.6483	0.3806	-0.108
Mof_H 	H 	0.2443	0.6587	0.387	0.08
Mof_C 	C 	0.8128	0.5625	0.3158	0.298
Mof_C 	C 	0.1664	0.6111	0.4624	0.318
Mof_N 	N 	0.8187	0.2459	0.8193	-0.179
Mof_C 	C 	0.7243	0.2144	0.7475	0.159
Mof_H 	H 	0.6155	0.2257	0.7174	-0.005
Mof_C 	C 	0.9748	0.2296	0.86	0.138
Mof_H 	H 	0.0458	0.2521	0.91	-0.001
Mof_Cd	Cd	0.27763	0.81299	0.61119	0.437
Mof_Cd	Cd	0.70692	0.00747	0.90971	0.398
Mof_O 	O 	0.5298	0.8665	0.6323	-0.274
Mof_O 	O 	0.5356	0.7896	0.7158	-0.276
Mof_O 	O 	0.6879	0.9223	0.8204	-0.276
Mof_O 	O 	0.8913	0.9868	0.8522	-0.272
Mof_O 	O 	0.0899	0.8819	0.0028	-0.254
Mof_O 	O 	0.2832	0.9293	0.9868	-0.285
Mof_O 	O 	0.0386	0.7149	0.9724	-0.276
Mof_O 	O 	0.2788	0.7516	0.0035	-0.266
Mof_N 	N 	0.1682	0.9076	0.6109	-0.161
Mof_C 	C 	0.2608	0.9548	0.6605	0.091
Mof_H 	H 	0.3728	0.9497	0.6892	0.014
Mof_C 	C 	0.1982	0.0101	0.6708	-0.168
Mof_H 	H 	0.2678	0.0415	0.7061	0.087
Mof_C 	C 	0.0295	0.0201	0.6287	0.111
Mof_C 	C 	0.9364	0.9709	0.5791	-0.157
Mof_H 	H 	0.8242	0.9749	0.5498	0.089
Mof_C 	C 	0.0094	0.9119	0.5712	0.077
Mof_H 	H 	0.9448	0.8784	0.5388	0.014
Mof_C 	C 	0.96	0.0817	0.6427	-0.113
Mof_H 	H 	0.8432	0.0811	0.6062	0.067
Mof_H 	H 	0.0017	0.1162	0.6225	0.076
Mof_C 	C 	0.9973	0.0933	0.733	-0.245
Mof_H 	H 	0.9654	0.0562	0.7535	0.117
Mof_H 	H 	0.1144	0.0962	0.7673	0.103
Mof_C 	C 	0.9298	0.148	0.7579	0.218
Mof_C 	C 	0.0363	0.1808	0.8316	-0.24
Mof_H 	H 	0.1459	0.1706	0.8614	0.12
Mof_C 	C 	0.7731	0.1669	0.7138	-0.264
Mof_H 	H 	0.7005	0.1474	0.6612	0.13
Mof_C 	C 	0.1271	0.7501	0.9553	0.292
Mof_C 	C 	0.0485	0.7894	0.8704	-0.075
Mof_H 	H 	0.0678	0.7655	0.8274	0.062
Mof_C 	C 	0.8686	0.7932	0.8301	-0.089
Mof_H 	H 	0.8238	0.7511	0.8182	0.075
Mof_H 	H 	0.8401	0.8127	0.872	0.092
Mof_C 	C 	0.7932	0.831	0.7435	-0.085
Mof_H 	H 	0.8266	0.81	0.7039	0.064
Mof_C 	C 	0.6068	0.8309	0.6947	0.316
Mof_C 	C 	0.8658	0.8968	0.759	-0.093
Mof_H 	H 	0.8233	0.917	0.7008	0.069
Mof_C 	C 	0.0514	0.8914	0.797	-0.062
Mof_H 	H 	0.0973	0.9333	0.81	0.062
Mof_H 	H 	0.0736	0.8738	0.7517	0.051
Mof_C 	C 	0.1374	0.8517	0.8806	-0.108
Mof_H 	H 	0.2443	0.8413	0.887	0.08
Mof_C 	C 	0.8128	0.9375	0.8158	0.298
Mof_C 	C 	0.1664	0.8889	0.9624	0.319
Mof_N 	N 	0.1813	0.7459	0.6807	-0.18
Mof_C 	C 	0.2757	0.7144	0.7525	0.16
Mof_H 	H 	0.3845	0.7257	0.7826	-0.006
Mof_C 	C 	0.0252	0.7296	0.64	0.139
Mof_H 	H 	0.9542	0.7521	0.59	-0.002
Mof_Cd	Cd	0.72237	0.31299	0.88881	0.436
Mof_Cd	Cd	0.29308	0.50747	0.59029	0.398
Mof_O 	O 	0.4702	0.3665	0.8677	-0.274
Mof_O 	O 	0.4644	0.2896	0.7842	-0.276
Mof_O 	O 	0.3121	0.4223	0.6796	-0.276
Mof_O 	O 	0.1087	0.4868	0.6478	-0.272
Mof_O 	O 	0.9101	0.3819	0.4972	-0.253
Mof_O 	O 	0.7168	0.4293	0.5132	-0.285
Mof_O 	O 	0.9614	0.2149	0.5276	-0.276
Mof_O 	O 	0.7212	0.2516	0.4965	-0.266
Mof_N 	N 	0.8318	0.4076	0.8891	-0.161
Mof_C 	C 	0.7392	0.4548	0.8395	0.09
Mof_H 	H 	0.6272	0.4497	0.8108	0.014
Mof_C 	C 	0.8018	0.5101	0.8292	-0.167
Mof_H 	H 	0.7322	0.5415	0.7939	0.087
Mof_C 	C 	0.9705	0.5201	0.8713	0.109
Mof_C 	C 	0.0636	0.4709	0.9209	-0.156
Mof_H 	H 	0.1758	0.4749	0.9502	0.089
Mof_C 	C 	0.9906	0.4119	0.9288	0.076
Mof_H 	H 	0.0552	0.3784	0.9612	0.014
Mof_C 	C 	0.04	0.5817	0.8573	-0.11
Mof_H 	H 	0.1568	0.5811	0.8938	0.066
Mof_H 	H 	0.9983	0.6162	0.8775	0.074
Mof_C 	C 	0.0027	0.5933	0.767	-0.247
Mof_H 	H 	0.0346	0.5562	0.7465	0.118
Mof_H 	H 	0.8856	0.5962	0.7327	0.103
Mof_C 	C 	0.0702	0.648	0.7421	0.22
Mof_C 	C 	0.9637	0.6808	0.6684	-0.242
Mof_H 	H 	0.8541	0.6706	0.6386	0.121
Mof_C 	C 	0.2269	0.6669	0.7862	-0.265
Mof_H 	H 	0.2995	0.6474	0.8388	0.131
Mof_C 	C 	0.8729	0.2501	0.5447	0.291
Mof_C 	C 	0.9515	0.2894	0.6296	-0.075
Mof_H 	H 	0.9322	0.2655	0.6726	0.062
Mof_C 	C 	0.1314	0.2932	0.6699	-0.088
Mof_H 	H 	0.1762	0.2511	0.6818	0.075
Mof_H 	H 	0.1599	0.3127	0.628	0.092
Mof_C 	C 	0.2068	0.331	0.7565	-0.085
Mof_H 	H 	0.1734	0.31	0.7961	0.064
Mof_C 	C 	0.3932	0.3309	0.8053	0.317
Mof_C 	C 	0.1342	0.3968	0.741	-0.093
Mof_H 	H 	0.1767	0.417	0.7992	0.068
Mof_C 	C 	0.9486	0.3914	0.703	-0.063
Mof_H 	H 	0.9027	0.4333	0.69	0.062
Mof_H 	H 	0.9264	0.3738	0.7483	0.051
Mof_C 	C 	0.8626	0.3517	0.6194	-0.108
Mof_H 	H 	0.7557	0.3413	0.613	0.08
Mof_C 	C 	0.1872	0.4375	0.6842	0.298
Mof_C 	C 	0.8336	0.3889	0.5376	0.318
_end
