data_functionalizedCrystal
_audit_creation_method	'EQeq! by Chris Wilmer'
_symmetry_space_group_name_H-M	'P1'
_symmetry_Int_Tables_number	1
_symmetry_cell_setting	triclinic
loop_
_symmetry_equiv_pos_as_xyz
  x,y,z
_cell_length_a	34.5922
_cell_length_b	14.8141
_cell_length_c	31.4266
_cell_angle_alpha	90
_cell_angle_beta	100.79
_cell_angle_gamma	90
loop_
_atom_site_label
_atom_site_type_symbol
_atom_site_fract_x
_atom_site_fract_y
_atom_site_fract_z
_atom_site_charge
Mof_I 	I 	0.26722	0.24114	0.20894	-0.389
Mof_I 	I 	0.37469	0.16548	0.30299	-0.4
Mof_I 	I 	0.10719	0.26518	0.10146	-0.378
Mof_I 	I 	0.47438	0.34149	0.37269	-0.358
Mof_I 	I 	0.14893	0.40068	0.99042	-0.374
Mof_I 	I 	0.37413	0.26532	0.43776	-0.384
Mof_Zn	Zn	0.12697	0.40559	0.06264	1.164
Mof_Zn	Zn	0.41355	0.37847	0.40357	1.164
Mof_Zn	Zn	0.32891	0.14696	0.22915	1.163
Mof_N 	N 	0.3168	0.0104	0.2222	-0.275
Mof_N 	N 	0.2664	0.6913	0.1876	-0.144
Mof_C 	C 	0.3101	0.5953	0.2499	0.122
Mof_N 	N 	0.4265	0.4838	0.4473	-0.263
Mof_N 	N 	0.4238	0.7212	0.5597	-0.14
Mof_C 	C 	0.2608	0.6056	0.1932	0.111
Mof_N 	N 	0.3767	0.4488	0.3553	-0.269
Mof_C 	C 	0.5164	0.8938	0.5554	0.036
Mof_N 	N 	0.4754	0.7691	0.5258	-0.222
Mof_N 	N 	0.3205	0.6802	0.2471	-0.139
Mof_N 	N 	0.5805	0.0067	0.5576	-0.279
Mof_C 	C 	0.2869	0.9759	0.1944	0.076
Mof_H 	H 	0.2696	0.0158	0.1764	-0.014
Mof_C 	C 	0.297	0.7275	0.2161	0.101
Mof_C 	C 	0.4465	0.7117	0.5301	0.112
Mof_N 	N 	0.1689	0.4718	0.1062	-0.277
Mof_C 	C 	0.3329	0.5422	0.2865	0.034
Mof_C 	C 	0.3509	0.7745	0.6502	0.097
Mof_H 	H 	0.3271	0.7417	0.6487	-0.02
Mof_C 	C 	0.4401	0.6323	0.5011	0.026
Mof_N 	N 	0.4604	0.8502	0.5855	-0.138
Mof_C 	C 	0.5657	0.9938	0.5927	0.071
Mof_H 	H 	0.5766	0.026	0.6183	-0.016
Mof_N 	N 	0.2798	0.553	0.2251	-0.221
Mof_C 	C 	0.407	0.805	0.6196	0.086
Mof_C 	C 	0.3449	0.4086	0.3311	0.05
Mof_H 	H 	0.3373	0.3499	0.3384	-0.005
Mof_C 	C 	0.3041	0.8243	0.216	0.059
Mof_C 	C 	0.482	0.8343	0.5548	0.112
Mof_N 	N 	0.3605	0.833	0.6805	-0.292
Mof_C 	C 	0.3666	0.5811	0.3123	-0.112
Mof_H 	H 	0.3746	0.6408	0.3072	0.089
Mof_C 	C 	0.4314	0.7927	0.5851	0.108
Mof_C 	C 	0.2281	0.5597	0.1624	0.036
Mof_C 	C 	0.3407	0.9518	0.2473	0.059
Mof_H 	H 	0.362	0.9751	0.2678	-0.011
Mof_C 	C 	0.3235	0.4527	0.2958	-0.106
Mof_H 	H 	0.3024	0.4226	0.2776	0.062
Mof_C 	C 	0.3745	0.7575	0.619	-0.143
Mof_H 	H 	0.3672	0.712	0.5978	0.093
Mof_C 	C 	0.4672	0.6052	0.4765	-0.09
Mof_H 	H 	0.4909	0.6387	0.4781	0.053
Mof_C 	C 	0.5654	0.9613	0.5228	0.084
Mof_H 	H 	0.5773	0.968	0.4981	-0.01
Mof_C 	C 	0.2799	0.8851	0.1907	-0.127
Mof_H 	H 	0.2581	0.8636	0.1702	0.081
Mof_C 	C 	0.461	0.5324	0.4502	0.042
Mof_H 	H 	0.4802	0.5146	0.4339	0.001
Mof_C 	C 	0.1818	0.5519	0.0981	0.08
Mof_H 	H 	0.1702	0.5786	0.0713	-0.005
Mof_C 	C 	0.3996	0.5095	0.4701	0.059
Mof_H 	H 	0.3759	0.476	0.4679	-0.01
Mof_C 	C 	0.3356	0.8596	0.2445	-0.116
Mof_H 	H 	0.3538	0.8207	0.2622	0.083
Mof_C 	C 	0.1871	0.434	0.1443	0.07
Mof_H 	H 	0.1785	0.3762	0.1516	-0.003
Mof_C 	C 	0.387	0.5296	0.3449	0.08
Mof_H 	H 	0.4105	0.5543	0.3613	-0.011
Mof_C 	C 	0.4055	0.5842	0.4969	-0.1
Mof_H 	H 	0.3858	0.6025	0.5124	0.073
Mof_C 	C 	0.2108	0.6022	0.125	-0.116
Mof_H 	H 	0.218	0.6615	0.1179	0.085
Mof_C 	C 	0.216	0.4727	0.1714	-0.124
Mof_H 	H 	0.2285	0.4419	0.1968	0.078
Mof_C 	C 	0.5335	0.9044	0.5194	-0.123
Mof_H 	H 	0.5236	0.8735	0.4931	0.068
Mof_C 	C 	0.5344	0.9346	0.5938	-0.113
Mof_H 	H 	0.5258	0.9225	0.6202	0.084
Mof_C 	C 	0.3914	0.882	0.6792	0.112
Mof_H 	H 	0.396	0.9315	0.6987	-0.033
Mof_C 	C 	0.4172	0.869	0.6533	-0.152
Mof_H 	H 	0.4413	0.9012	0.6573	0.095
Mof_H 	H 	0.4891	0.7637	0.505	0.112
Mof_H 	H 	0.273	0.4968	0.2293	0.119
Mof_I 	I 	0.76722	0.74114	0.20894	-0.388
Mof_I 	I 	0.87469	0.66548	0.30299	-0.399
Mof_I 	I 	0.60719	0.76518	0.10146	-0.378
Mof_I 	I 	0.97438	0.84149	0.37269	-0.357
Mof_I 	I 	0.64893	0.90068	0.99042	-0.373
Mof_I 	I 	0.87413	0.76532	0.43776	-0.383
Mof_Zn	Zn	0.62697	0.90559	0.06264	1.165
Mof_Zn	Zn	0.91355	0.87847	0.40357	1.165
Mof_Zn	Zn	0.82891	0.64696	0.22915	1.164
Mof_N 	N 	0.8168	0.5104	0.2222	-0.274
Mof_N 	N 	0.7664	0.1913	0.1876	-0.143
Mof_C 	C 	0.8101	0.0953	0.2499	0.123
Mof_N 	N 	0.9265	0.9838	0.4473	-0.263
Mof_N 	N 	0.9238	0.2212	0.5597	-0.14
Mof_C 	C 	0.7608	0.1056	0.1932	0.111
Mof_N 	N 	0.8767	0.9488	0.3553	-0.269
Mof_C 	C 	0.0164	0.3938	0.5554	0.036
Mof_N 	N 	0.9754	0.2691	0.5258	-0.222
Mof_N 	N 	0.8205	0.1802	0.2471	-0.139
Mof_N 	N 	0.0805	0.5067	0.5576	-0.279
Mof_C 	C 	0.7869	0.4759	0.1944	0.077
Mof_H 	H 	0.7696	0.5158	0.1764	-0.015
Mof_C 	C 	0.797	0.2275	0.2161	0.1
Mof_C 	C 	0.9465	0.2117	0.5301	0.112
Mof_N 	N 	0.6689	0.9718	0.1062	-0.277
Mof_C 	C 	0.8329	0.0422	0.2865	0.034
Mof_C 	C 	0.8509	0.2745	0.6502	0.097
Mof_H 	H 	0.8271	0.2417	0.6487	-0.02
Mof_C 	C 	0.9401	0.1323	0.5011	0.026
Mof_N 	N 	0.9604	0.3502	0.5855	-0.138
Mof_C 	C 	0.0657	0.4938	0.5927	0.071
Mof_H 	H 	0.0766	0.526	0.6183	-0.016
Mof_N 	N 	0.7798	0.053	0.2251	-0.22
Mof_C 	C 	0.907	0.305	0.6196	0.086
Mof_C 	C 	0.8449	0.9086	0.3311	0.051
Mof_H 	H 	0.8373	0.8499	0.3384	-0.005
Mof_C 	C 	0.8041	0.3243	0.216	0.059
Mof_C 	C 	0.982	0.3343	0.5548	0.112
Mof_N 	N 	0.8605	0.333	0.6805	-0.292
Mof_C 	C 	0.8666	0.0811	0.3123	-0.112
Mof_H 	H 	0.8746	0.1408	0.3072	0.089
Mof_C 	C 	0.9314	0.2927	0.5851	0.108
Mof_C 	C 	0.7281	0.0597	0.1624	0.037
Mof_C 	C 	0.8407	0.4518	0.2473	0.06
Mof_H 	H 	0.862	0.4751	0.2678	-0.011
Mof_C 	C 	0.8235	0.9527	0.2958	-0.106
Mof_H 	H 	0.8024	0.9226	0.2776	0.062
Mof_C 	C 	0.8745	0.2575	0.619	-0.143
Mof_H 	H 	0.8672	0.212	0.5978	0.093
Mof_C 	C 	0.9672	0.1052	0.4765	-0.09
Mof_H 	H 	0.9909	0.1387	0.4781	0.053
Mof_C 	C 	0.0654	0.4613	0.5228	0.084
Mof_H 	H 	0.0773	0.468	0.4981	-0.01
Mof_C 	C 	0.7799	0.3851	0.1907	-0.127
Mof_H 	H 	0.7581	0.3636	0.1702	0.081
Mof_C 	C 	0.961	0.0324	0.4502	0.042
Mof_H 	H 	0.9802	0.0146	0.4339	0.001
Mof_C 	C 	0.6818	0.0519	0.0981	0.081
Mof_H 	H 	0.6702	0.0786	0.0713	-0.005
Mof_C 	C 	0.8996	0.0095	0.4701	0.059
Mof_H 	H 	0.8759	0.976	0.4679	-0.01
Mof_C 	C 	0.8356	0.3596	0.2445	-0.116
Mof_H 	H 	0.8538	0.3207	0.2622	0.083
Mof_C 	C 	0.6871	0.934	0.1443	0.07
Mof_H 	H 	0.6785	0.8762	0.1516	-0.003
Mof_C 	C 	0.887	0.0296	0.3449	0.081
Mof_H 	H 	0.9105	0.0543	0.3613	-0.011
Mof_C 	C 	0.9055	0.0842	0.4969	-0.1
Mof_H 	H 	0.8858	0.1025	0.5124	0.073
Mof_C 	C 	0.7108	0.1022	0.125	-0.116
Mof_H 	H 	0.718	0.1615	0.1179	0.086
Mof_C 	C 	0.716	0.9727	0.1714	-0.125
Mof_H 	H 	0.7285	0.9419	0.1968	0.078
Mof_C 	C 	0.0335	0.4044	0.5194	-0.123
Mof_H 	H 	0.0236	0.3735	0.4931	0.068
Mof_C 	C 	0.0344	0.4346	0.5938	-0.113
Mof_H 	H 	0.0258	0.4225	0.6202	0.084
Mof_C 	C 	0.8914	0.382	0.6792	0.112
Mof_H 	H 	0.896	0.4315	0.6987	-0.033
Mof_C 	C 	0.9172	0.369	0.6533	-0.152
Mof_H 	H 	0.9413	0.4012	0.6573	0.095
Mof_H 	H 	0.9891	0.2637	0.505	0.112
Mof_H 	H 	0.773	0.9968	0.2293	0.119
Mof_I 	I 	0.26722	0.75886	0.70894	-0.388
Mof_I 	I 	0.37469	0.83452	0.80299	-0.399
Mof_I 	I 	0.10719	0.73482	0.60146	-0.377
Mof_I 	I 	0.47438	0.65851	0.87269	-0.357
Mof_I 	I 	0.14893	0.59932	0.49042	-0.373
Mof_I 	I 	0.37413	0.73468	0.93776	-0.383
Mof_Zn	Zn	0.12697	0.59441	0.56264	1.165
Mof_Zn	Zn	0.41355	0.62153	0.90357	1.165
Mof_Zn	Zn	0.32891	0.85304	0.72915	1.164
Mof_N 	N 	0.3168	0.9896	0.7222	-0.274
Mof_N 	N 	0.2664	0.3087	0.6876	-0.143
Mof_C 	C 	0.3101	0.4047	0.7499	0.123
Mof_N 	N 	0.4265	0.5162	0.9473	-0.263
Mof_N 	N 	0.4238	0.2788	0.0597	-0.14
Mof_C 	C 	0.2608	0.3944	0.6932	0.111
Mof_N 	N 	0.3767	0.5512	0.8553	-0.269
Mof_C 	C 	0.5164	0.1062	0.0554	0.036
Mof_N 	N 	0.4754	0.2309	0.0258	-0.222
Mof_N 	N 	0.3205	0.3198	0.7471	-0.139
Mof_N 	N 	0.5805	0.9933	0.0576	-0.279
Mof_C 	C 	0.2869	0.0241	0.6944	0.077
Mof_H 	H 	0.2696	0.9842	0.6764	-0.015
Mof_C 	C 	0.297	0.2725	0.7161	0.101
Mof_C 	C 	0.4465	0.2883	0.0301	0.112
Mof_N 	N 	0.1689	0.5282	0.6062	-0.277
Mof_C 	C 	0.3329	0.4578	0.7865	0.034
Mof_C 	C 	0.3509	0.2255	0.1502	0.097
Mof_H 	H 	0.3271	0.2583	0.1487	-0.02
Mof_C 	C 	0.4401	0.3677	0.0011	0.026
Mof_N 	N 	0.4604	0.1498	0.0855	-0.138
Mof_C 	C 	0.5657	0.0062	0.0927	0.072
Mof_H 	H 	0.5766	0.974	0.1183	-0.017
Mof_N 	N 	0.2798	0.447	0.7251	-0.221
Mof_C 	C 	0.407	0.195	0.1196	0.086
Mof_C 	C 	0.3449	0.5914	0.8311	0.05
Mof_H 	H 	0.3373	0.6501	0.8384	-0.005
Mof_C 	C 	0.3041	0.1757	0.716	0.059
Mof_C 	C 	0.482	0.1657	0.0548	0.112
Mof_N 	N 	0.3605	0.167	0.1805	-0.292
Mof_C 	C 	0.3666	0.4189	0.8123	-0.112
Mof_H 	H 	0.3746	0.3592	0.8072	0.089
Mof_C 	C 	0.4314	0.2073	0.0851	0.108
Mof_C 	C 	0.2281	0.4403	0.6624	0.036
Mof_C 	C 	0.3407	0.0482	0.7473	0.059
Mof_H 	H 	0.362	0.0249	0.7678	-0.011
Mof_C 	C 	0.3235	0.5473	0.7958	-0.106
Mof_H 	H 	0.3024	0.5774	0.7776	0.062
Mof_C 	C 	0.3745	0.2425	0.119	-0.143
Mof_H 	H 	0.3672	0.288	0.0978	0.093
Mof_C 	C 	0.4672	0.3948	0.9765	-0.091
Mof_H 	H 	0.4909	0.3613	0.9781	0.053
Mof_C 	C 	0.5654	0.0387	0.0228	0.085
Mof_H 	H 	0.5773	0.032	0.9981	-0.01
Mof_C 	C 	0.2799	0.1149	0.6907	-0.127
Mof_H 	H 	0.2581	0.1364	0.6702	0.081
Mof_C 	C 	0.461	0.4676	0.9502	0.042
Mof_H 	H 	0.4802	0.4854	0.9339	0.001
Mof_C 	C 	0.1818	0.4481	0.5981	0.08
Mof_H 	H 	0.1702	0.4214	0.5713	-0.005
Mof_C 	C 	0.3996	0.4905	0.9701	0.059
Mof_H 	H 	0.3759	0.524	0.9679	-0.01
Mof_C 	C 	0.3356	0.1404	0.7445	-0.116
Mof_H 	H 	0.3538	0.1793	0.7622	0.083
Mof_C 	C 	0.1871	0.566	0.6443	0.07
Mof_H 	H 	0.1785	0.6238	0.6516	-0.003
Mof_C 	C 	0.387	0.4704	0.8449	0.08
Mof_H 	H 	0.4105	0.4457	0.8613	-0.011
Mof_C 	C 	0.4055	0.4158	0.9969	-0.101
Mof_H 	H 	0.3858	0.3975	0.0124	0.073
Mof_C 	C 	0.2108	0.3978	0.625	-0.116
Mof_H 	H 	0.218	0.3385	0.6179	0.085
Mof_C 	C 	0.216	0.5273	0.6714	-0.124
Mof_H 	H 	0.2285	0.5581	0.6968	0.078
Mof_C 	C 	0.5335	0.0956	0.0194	-0.123
Mof_H 	H 	0.5236	0.1265	0.9931	0.068
Mof_C 	C 	0.5344	0.0654	0.0938	-0.113
Mof_H 	H 	0.5258	0.0775	0.1202	0.085
Mof_C 	C 	0.3914	0.118	0.1792	0.112
Mof_H 	H 	0.396	0.0685	0.1987	-0.033
Mof_C 	C 	0.4172	0.131	0.1533	-0.152
Mof_H 	H 	0.4413	0.0988	0.1573	0.095
Mof_H 	H 	0.4891	0.2363	0.005	0.112
Mof_H 	H 	0.273	0.5032	0.7293	0.119
Mof_I 	I 	0.76722	0.25886	0.70894	-0.388
Mof_I 	I 	0.87469	0.33452	0.80299	-0.399
Mof_I 	I 	0.60719	0.23482	0.60146	-0.377
Mof_I 	I 	0.97438	0.15851	0.87269	-0.357
Mof_I 	I 	0.64893	0.09932	0.49042	-0.373
Mof_I 	I 	0.87413	0.23468	0.93776	-0.384
Mof_Zn	Zn	0.62697	0.09441	0.56264	1.165
Mof_Zn	Zn	0.91355	0.12153	0.90357	1.165
Mof_Zn	Zn	0.82891	0.35304	0.72915	1.164
Mof_N 	N 	0.8168	0.4896	0.7222	-0.274
Mof_N 	N 	0.7664	0.8087	0.6876	-0.143
Mof_C 	C 	0.8101	0.9047	0.7499	0.123
Mof_N 	N 	0.9265	0.0162	0.9473	-0.264
Mof_N 	N 	0.9238	0.7788	0.0597	-0.14
Mof_C 	C 	0.7608	0.8944	0.6932	0.111
Mof_N 	N 	0.8767	0.0512	0.8553	-0.269
Mof_C 	C 	0.0164	0.6062	0.0554	0.036
Mof_N 	N 	0.9754	0.7309	0.0258	-0.222
Mof_N 	N 	0.8205	0.8198	0.7471	-0.139
Mof_N 	N 	0.0805	0.4933	0.0576	-0.279
Mof_C 	C 	0.7869	0.5241	0.6944	0.077
Mof_H 	H 	0.7696	0.4842	0.6764	-0.015
Mof_C 	C 	0.797	0.7725	0.7161	0.1
Mof_C 	C 	0.9465	0.7883	0.0301	0.113
Mof_N 	N 	0.6689	0.0282	0.6062	-0.277
Mof_C 	C 	0.8329	0.9578	0.7865	0.034
Mof_C 	C 	0.8509	0.7255	0.1502	0.097
Mof_H 	H 	0.8271	0.7583	0.1487	-0.02
Mof_C 	C 	0.9401	0.8677	0.0011	0.025
Mof_N 	N 	0.9604	0.6498	0.0855	-0.138
Mof_C 	C 	0.0657	0.5062	0.0927	0.071
Mof_H 	H 	0.0766	0.474	0.1183	-0.016
Mof_N 	N 	0.7798	0.947	0.7251	-0.221
Mof_C 	C 	0.907	0.695	0.1196	0.086
Mof_C 	C 	0.8449	0.0914	0.8311	0.051
Mof_H 	H 	0.8373	0.1501	0.8384	-0.005
Mof_C 	C 	0.8041	0.6757	0.716	0.059
Mof_C 	C 	0.982	0.6657	0.0548	0.112
Mof_N 	N 	0.8605	0.667	0.1805	-0.292
Mof_C 	C 	0.8666	0.9189	0.8123	-0.112
Mof_H 	H 	0.8746	0.8592	0.8072	0.089
Mof_C 	C 	0.9314	0.7073	0.0851	0.108
Mof_C 	C 	0.7281	0.9403	0.6624	0.036
Mof_C 	C 	0.8407	0.5482	0.7473	0.06
Mof_H 	H 	0.862	0.5249	0.7678	-0.011
Mof_C 	C 	0.8235	0.0473	0.7958	-0.106
Mof_H 	H 	0.8024	0.0774	0.7776	0.062
Mof_C 	C 	0.8745	0.7425	0.119	-0.143
Mof_H 	H 	0.8672	0.788	0.0978	0.093
Mof_C 	C 	0.9672	0.8948	0.9765	-0.09
Mof_H 	H 	0.9909	0.8613	0.9781	0.053
Mof_C 	C 	0.0654	0.5387	0.0228	0.084
Mof_H 	H 	0.0773	0.532	0.9981	-0.01
Mof_C 	C 	0.7799	0.6149	0.6907	-0.127
Mof_H 	H 	0.7581	0.6364	0.6702	0.081
Mof_C 	C 	0.961	0.9676	0.9502	0.042
Mof_H 	H 	0.9802	0.9854	0.9339	0.001
Mof_C 	C 	0.6818	0.9481	0.5981	0.08
Mof_H 	H 	0.6702	0.9214	0.5713	-0.005
Mof_C 	C 	0.8996	0.9905	0.9701	0.06
Mof_H 	H 	0.8759	0.024	0.9679	-0.01
Mof_C 	C 	0.8356	0.6404	0.7445	-0.116
Mof_H 	H 	0.8538	0.6793	0.7622	0.083
Mof_C 	C 	0.6871	0.066	0.6443	0.07
Mof_H 	H 	0.6785	0.1238	0.6516	-0.003
Mof_C 	C 	0.887	0.9704	0.8449	0.081
Mof_H 	H 	0.9105	0.9457	0.8613	-0.011
Mof_C 	C 	0.9055	0.9158	0.9969	-0.099
Mof_H 	H 	0.8858	0.8975	0.0124	0.073
Mof_C 	C 	0.7108	0.8978	0.625	-0.116
Mof_H 	H 	0.718	0.8385	0.6179	0.086
Mof_C 	C 	0.716	0.0273	0.6714	-0.125
Mof_H 	H 	0.7285	0.0581	0.6968	0.078
Mof_C 	C 	0.0335	0.5956	0.0194	-0.123
Mof_H 	H 	0.0236	0.6265	0.9931	0.068
Mof_C 	C 	0.0344	0.5654	0.0938	-0.113
Mof_H 	H 	0.0258	0.5775	0.1202	0.084
Mof_C 	C 	0.8914	0.618	0.1792	0.112
Mof_H 	H 	0.896	0.5685	0.1987	-0.033
Mof_C 	C 	0.9172	0.631	0.1533	-0.152
Mof_H 	H 	0.9413	0.5988	0.1573	0.095
Mof_H 	H 	0.9891	0.7363	0.005	0.112
Mof_H 	H 	0.773	0.0032	0.7293	0.119
Mof_I 	I 	0.73278	0.24114	0.29106	-0.388
Mof_I 	I 	0.62531	0.16548	0.19701	-0.399
Mof_I 	I 	0.89281	0.26518	0.39854	-0.377
Mof_I 	I 	0.52562	0.34149	0.12731	-0.357
Mof_I 	I 	0.85107	0.40068	0.50958	-0.373
Mof_I 	I 	0.62587	0.26532	0.06224	-0.383
Mof_Zn	Zn	0.87303	0.40559	0.43736	1.165
Mof_Zn	Zn	0.58645	0.37847	0.09643	1.165
Mof_Zn	Zn	0.67109	0.14696	0.27085	1.164
Mof_N 	N 	0.6832	0.0104	0.2778	-0.274
Mof_N 	N 	0.7336	0.6913	0.3124	-0.143
Mof_C 	C 	0.6899	0.5953	0.2501	0.123
Mof_N 	N 	0.5735	0.4838	0.0527	-0.263
Mof_N 	N 	0.5762	0.7212	0.9403	-0.14
Mof_C 	C 	0.7392	0.6056	0.3068	0.111
Mof_N 	N 	0.6233	0.4488	0.1447	-0.269
Mof_C 	C 	0.4836	0.8938	0.9446	0.036
Mof_N 	N 	0.5246	0.7691	0.9742	-0.222
Mof_N 	N 	0.6795	0.6802	0.2529	-0.139
Mof_N 	N 	0.4195	0.0067	0.9424	-0.279
Mof_C 	C 	0.7131	0.9759	0.3056	0.077
Mof_H 	H 	0.7304	0.0158	0.3236	-0.015
Mof_C 	C 	0.703	0.7275	0.2839	0.101
Mof_C 	C 	0.5535	0.7117	0.9699	0.112
Mof_N 	N 	0.8311	0.4718	0.3938	-0.277
Mof_C 	C 	0.6671	0.5422	0.2135	0.034
Mof_C 	C 	0.6491	0.7745	0.8498	0.097
Mof_H 	H 	0.6729	0.7417	0.8513	-0.02
Mof_C 	C 	0.5599	0.6323	0.9989	0.026
Mof_N 	N 	0.5396	0.8502	0.9145	-0.138
Mof_C 	C 	0.4343	0.9938	0.9073	0.072
Mof_H 	H 	0.4234	0.026	0.8817	-0.017
Mof_N 	N 	0.7202	0.553	0.2749	-0.221
Mof_C 	C 	0.593	0.805	0.8804	0.086
Mof_C 	C 	0.6551	0.4086	0.1689	0.05
Mof_H 	H 	0.6627	0.3499	0.1616	-0.005
Mof_C 	C 	0.6959	0.8243	0.284	0.059
Mof_C 	C 	0.518	0.8343	0.9452	0.112
Mof_N 	N 	0.6395	0.833	0.8195	-0.292
Mof_C 	C 	0.6334	0.5811	0.1877	-0.112
Mof_H 	H 	0.6254	0.6408	0.1928	0.089
Mof_C 	C 	0.5686	0.7927	0.9149	0.108
Mof_C 	C 	0.7719	0.5597	0.3376	0.036
Mof_C 	C 	0.6593	0.9518	0.2527	0.059
Mof_H 	H 	0.638	0.9751	0.2322	-0.011
Mof_C 	C 	0.6765	0.4527	0.2042	-0.106
Mof_H 	H 	0.6976	0.4226	0.2224	0.062
Mof_C 	C 	0.6255	0.7575	0.881	-0.143
Mof_H 	H 	0.6328	0.712	0.9022	0.093
Mof_C 	C 	0.5328	0.6052	0.0235	-0.091
Mof_H 	H 	0.5091	0.6387	0.0219	0.053
Mof_C 	C 	0.4346	0.9613	0.9772	0.085
Mof_H 	H 	0.4227	0.968	0.0019	-0.01
Mof_C 	C 	0.7201	0.8851	0.3093	-0.127
Mof_H 	H 	0.7419	0.8636	0.3298	0.081
Mof_C 	C 	0.539	0.5324	0.0498	0.042
Mof_H 	H 	0.5198	0.5146	0.0661	0.001
Mof_C 	C 	0.8182	0.5519	0.4019	0.08
Mof_H 	H 	0.8298	0.5786	0.4287	-0.005
Mof_C 	C 	0.6004	0.5095	0.0299	0.059
Mof_H 	H 	0.6241	0.476	0.0321	-0.01
Mof_C 	C 	0.6644	0.8596	0.2555	-0.116
Mof_H 	H 	0.6462	0.8207	0.2378	0.083
Mof_C 	C 	0.8129	0.434	0.3557	0.07
Mof_H 	H 	0.8215	0.3762	0.3484	-0.003
Mof_C 	C 	0.613	0.5296	0.1551	0.08
Mof_H 	H 	0.5895	0.5543	0.1387	-0.011
Mof_C 	C 	0.5945	0.5842	0.0031	-0.101
Mof_H 	H 	0.6142	0.6025	0.9876	0.073
Mof_C 	C 	0.7892	0.6022	0.375	-0.116
Mof_H 	H 	0.782	0.6615	0.3821	0.085
Mof_C 	C 	0.784	0.4727	0.3286	-0.124
Mof_H 	H 	0.7715	0.4419	0.3032	0.078
Mof_C 	C 	0.4665	0.9044	0.9806	-0.123
Mof_H 	H 	0.4764	0.8735	0.0069	0.068
Mof_C 	C 	0.4656	0.9346	0.9062	-0.113
Mof_H 	H 	0.4742	0.9225	0.8798	0.085
Mof_C 	C 	0.6086	0.882	0.8208	0.112
Mof_H 	H 	0.604	0.9315	0.8013	-0.033
Mof_C 	C 	0.5828	0.869	0.8467	-0.152
Mof_H 	H 	0.5587	0.9012	0.8427	0.095
Mof_H 	H 	0.5109	0.7637	0.995	0.112
Mof_H 	H 	0.727	0.4968	0.2707	0.119
Mof_I 	I 	0.23278	0.74114	0.29106	-0.388
Mof_I 	I 	0.12531	0.66548	0.19701	-0.399
Mof_I 	I 	0.39281	0.76518	0.39854	-0.377
Mof_I 	I 	0.02562	0.84149	0.12731	-0.357
Mof_I 	I 	0.35107	0.90068	0.50958	-0.373
Mof_I 	I 	0.12587	0.76532	0.06224	-0.384
Mof_Zn	Zn	0.37303	0.90559	0.43736	1.165
Mof_Zn	Zn	0.08645	0.87847	0.09643	1.165
Mof_Zn	Zn	0.17109	0.64696	0.27085	1.164
Mof_N 	N 	0.1832	0.5104	0.2778	-0.274
Mof_N 	N 	0.2336	0.1913	0.3124	-0.143
Mof_C 	C 	0.1899	0.0953	0.2501	0.123
Mof_N 	N 	0.0735	0.9838	0.0527	-0.264
Mof_N 	N 	0.0762	0.2212	0.9403	-0.14
Mof_C 	C 	0.2392	0.1056	0.3068	0.111
Mof_N 	N 	0.1233	0.9488	0.1447	-0.269
Mof_C 	C 	0.9836	0.3938	0.9446	0.036
Mof_N 	N 	0.0246	0.2691	0.9742	-0.222
Mof_N 	N 	0.1795	0.1802	0.2529	-0.139
Mof_N 	N 	0.9195	0.5067	0.9424	-0.279
Mof_C 	C 	0.2131	0.4759	0.3056	0.077
Mof_H 	H 	0.2304	0.5158	0.3236	-0.015
Mof_C 	C 	0.203	0.2275	0.2839	0.1
Mof_C 	C 	0.0535	0.2117	0.9699	0.113
Mof_N 	N 	0.3311	0.9718	0.3938	-0.277
Mof_C 	C 	0.1671	0.0422	0.2135	0.034
Mof_C 	C 	0.1491	0.2745	0.8498	0.097
Mof_H 	H 	0.1729	0.2417	0.8513	-0.02
Mof_C 	C 	0.0599	0.1323	0.9989	0.025
Mof_N 	N 	0.0396	0.3502	0.9145	-0.138
Mof_C 	C 	0.9343	0.4938	0.9073	0.071
Mof_H 	H 	0.9234	0.526	0.8817	-0.016
Mof_N 	N 	0.2202	0.053	0.2749	-0.221
Mof_C 	C 	0.093	0.305	0.8804	0.086
Mof_C 	C 	0.1551	0.9086	0.1689	0.051
Mof_H 	H 	0.1627	0.8499	0.1616	-0.005
Mof_C 	C 	0.1959	0.3243	0.284	0.059
Mof_C 	C 	0.018	0.3343	0.9452	0.112
Mof_N 	N 	0.1395	0.333	0.8195	-0.292
Mof_C 	C 	0.1334	0.0811	0.1877	-0.112
Mof_H 	H 	0.1254	0.1408	0.1928	0.089
Mof_C 	C 	0.0686	0.2927	0.9149	0.108
Mof_C 	C 	0.2719	0.0597	0.3376	0.036
Mof_C 	C 	0.1593	0.4518	0.2527	0.06
Mof_H 	H 	0.138	0.4751	0.2322	-0.011
Mof_C 	C 	0.1765	0.9527	0.2042	-0.106
Mof_H 	H 	0.1976	0.9226	0.2224	0.062
Mof_C 	C 	0.1255	0.2575	0.881	-0.143
Mof_H 	H 	0.1328	0.212	0.9022	0.093
Mof_C 	C 	0.0328	0.1052	0.0235	-0.09
Mof_H 	H 	0.0091	0.1387	0.0219	0.053
Mof_C 	C 	0.9346	0.4613	0.9772	0.084
Mof_H 	H 	0.9227	0.468	0.0019	-0.01
Mof_C 	C 	0.2201	0.3851	0.3093	-0.127
Mof_H 	H 	0.2419	0.3636	0.3298	0.081
Mof_C 	C 	0.039	0.0324	0.0498	0.042
Mof_H 	H 	0.0198	0.0146	0.0661	0.001
Mof_C 	C 	0.3182	0.0519	0.4019	0.08
Mof_H 	H 	0.3298	0.0786	0.4287	-0.005
Mof_C 	C 	0.1004	0.0095	0.0299	0.06
Mof_H 	H 	0.1241	0.976	0.0321	-0.01
Mof_C 	C 	0.1644	0.3596	0.2555	-0.116
Mof_H 	H 	0.1462	0.3207	0.2378	0.083
Mof_C 	C 	0.3129	0.934	0.3557	0.07
Mof_H 	H 	0.3215	0.8762	0.3484	-0.003
Mof_C 	C 	0.113	0.0296	0.1551	0.081
Mof_H 	H 	0.0895	0.0543	0.1387	-0.011
Mof_C 	C 	0.0945	0.0842	0.0031	-0.099
Mof_H 	H 	0.1142	0.1025	0.9876	0.073
Mof_C 	C 	0.2892	0.1022	0.375	-0.116
Mof_H 	H 	0.282	0.1615	0.3821	0.086
Mof_C 	C 	0.284	0.9727	0.3286	-0.125
Mof_H 	H 	0.2715	0.9419	0.3032	0.078
Mof_C 	C 	0.9665	0.4044	0.9806	-0.123
Mof_H 	H 	0.9764	0.3735	0.0069	0.068
Mof_C 	C 	0.9656	0.4346	0.9062	-0.113
Mof_H 	H 	0.9742	0.4225	0.8798	0.084
Mof_C 	C 	0.1086	0.382	0.8208	0.112
Mof_H 	H 	0.104	0.4315	0.8013	-0.033
Mof_C 	C 	0.0828	0.369	0.8467	-0.152
Mof_H 	H 	0.0587	0.4012	0.8427	0.095
Mof_H 	H 	0.0109	0.2637	0.995	0.112
Mof_H 	H 	0.227	0.9968	0.2707	0.119
Mof_I 	I 	0.73278	0.75886	0.79106	-0.388
Mof_I 	I 	0.62531	0.83452	0.69701	-0.399
Mof_I 	I 	0.89281	0.73482	0.89854	-0.377
Mof_I 	I 	0.52562	0.65851	0.62731	-0.357
Mof_I 	I 	0.85107	0.59932	0.00958	-0.373
Mof_I 	I 	0.62587	0.73468	0.56224	-0.383
Mof_Zn	Zn	0.87303	0.59441	0.93736	1.165
Mof_Zn	Zn	0.58645	0.62153	0.59643	1.165
Mof_Zn	Zn	0.67109	0.85304	0.77085	1.164
Mof_N 	N 	0.6832	0.9896	0.7778	-0.274
Mof_N 	N 	0.7336	0.3087	0.8124	-0.143
Mof_C 	C 	0.6899	0.4047	0.7501	0.123
Mof_N 	N 	0.5735	0.5162	0.5527	-0.263
Mof_N 	N 	0.5762	0.2788	0.4403	-0.14
Mof_C 	C 	0.7392	0.3944	0.8068	0.111
Mof_N 	N 	0.6233	0.5512	0.6447	-0.269
Mof_C 	C 	0.4836	0.1062	0.4446	0.036
Mof_N 	N 	0.5246	0.2309	0.4742	-0.222
Mof_N 	N 	0.6795	0.3198	0.7529	-0.139
Mof_N 	N 	0.4195	0.9933	0.4424	-0.279
Mof_C 	C 	0.7131	0.0241	0.8056	0.076
Mof_H 	H 	0.7304	0.9842	0.8236	-0.014
Mof_C 	C 	0.703	0.2725	0.7839	0.101
Mof_C 	C 	0.5535	0.2883	0.4699	0.112
Mof_N 	N 	0.8311	0.5282	0.8938	-0.277
Mof_C 	C 	0.6671	0.4578	0.7135	0.034
Mof_C 	C 	0.6491	0.2255	0.3498	0.097
Mof_H 	H 	0.6729	0.2583	0.3513	-0.02
Mof_C 	C 	0.5599	0.3677	0.4989	0.026
Mof_N 	N 	0.5396	0.1498	0.4145	-0.138
Mof_C 	C 	0.4343	0.0062	0.4073	0.071
Mof_H 	H 	0.4234	0.974	0.3817	-0.016
Mof_N 	N 	0.7202	0.447	0.7749	-0.221
Mof_C 	C 	0.593	0.195	0.3804	0.086
Mof_C 	C 	0.6551	0.5914	0.6689	0.05
Mof_H 	H 	0.6627	0.6501	0.6616	-0.005
Mof_C 	C 	0.6959	0.1757	0.784	0.059
Mof_C 	C 	0.518	0.1657	0.4452	0.112
Mof_N 	N 	0.6395	0.167	0.3195	-0.292
Mof_C 	C 	0.6334	0.4189	0.6877	-0.112
Mof_H 	H 	0.6254	0.3592	0.6928	0.089
Mof_C 	C 	0.5686	0.2073	0.4149	0.108
Mof_C 	C 	0.7719	0.4403	0.8376	0.036
Mof_C 	C 	0.6593	0.0482	0.7527	0.059
Mof_H 	H 	0.638	0.0249	0.7322	-0.011
Mof_C 	C 	0.6765	0.5473	0.7042	-0.106
Mof_H 	H 	0.6976	0.5774	0.7224	0.062
Mof_C 	C 	0.6255	0.2425	0.381	-0.143
Mof_H 	H 	0.6328	0.288	0.4022	0.093
Mof_C 	C 	0.5328	0.3948	0.5235	-0.09
Mof_H 	H 	0.5091	0.3613	0.5219	0.053
Mof_C 	C 	0.4346	0.0387	0.4772	0.084
Mof_H 	H 	0.4227	0.032	0.5019	-0.01
Mof_C 	C 	0.7201	0.1149	0.8093	-0.127
Mof_H 	H 	0.7419	0.1364	0.8298	0.081
Mof_C 	C 	0.539	0.4676	0.5498	0.042
Mof_H 	H 	0.5198	0.4854	0.5661	0.001
Mof_C 	C 	0.8182	0.4481	0.9019	0.08
Mof_H 	H 	0.8298	0.4214	0.9287	-0.005
Mof_C 	C 	0.6004	0.4905	0.5299	0.059
Mof_H 	H 	0.6241	0.524	0.5321	-0.01
Mof_C 	C 	0.6644	0.1404	0.7555	-0.116
Mof_H 	H 	0.6462	0.1793	0.7378	0.083
Mof_C 	C 	0.8129	0.566	0.8557	0.07
Mof_H 	H 	0.8215	0.6238	0.8484	-0.003
Mof_C 	C 	0.613	0.4704	0.6551	0.08
Mof_H 	H 	0.5895	0.4457	0.6387	-0.011
Mof_C 	C 	0.5945	0.4158	0.5031	-0.1
Mof_H 	H 	0.6142	0.3975	0.4876	0.073
Mof_C 	C 	0.7892	0.3978	0.875	-0.116
Mof_H 	H 	0.782	0.3385	0.8821	0.085
Mof_C 	C 	0.784	0.5273	0.8286	-0.124
Mof_H 	H 	0.7715	0.5581	0.8032	0.078
Mof_C 	C 	0.4665	0.0956	0.4806	-0.123
Mof_H 	H 	0.4764	0.1265	0.5069	0.068
Mof_C 	C 	0.4656	0.0654	0.4062	-0.113
Mof_H 	H 	0.4742	0.0775	0.3798	0.084
Mof_C 	C 	0.6086	0.118	0.3208	0.112
Mof_H 	H 	0.604	0.0685	0.3013	-0.033
Mof_C 	C 	0.5828	0.131	0.3467	-0.152
Mof_H 	H 	0.5587	0.0988	0.3427	0.095
Mof_H 	H 	0.5109	0.2363	0.495	0.112
Mof_H 	H 	0.727	0.5032	0.7707	0.119
Mof_I 	I 	0.23278	0.25886	0.79106	-0.388
Mof_I 	I 	0.12531	0.33452	0.69701	-0.399
Mof_I 	I 	0.39281	0.23482	0.89854	-0.378
Mof_I 	I 	0.02562	0.15851	0.62731	-0.357
Mof_I 	I 	0.35107	0.09932	0.00958	-0.373
Mof_I 	I 	0.12587	0.23468	0.56224	-0.383
Mof_Zn	Zn	0.37303	0.09441	0.93736	1.165
Mof_Zn	Zn	0.08645	0.12153	0.59643	1.165
Mof_Zn	Zn	0.17109	0.35304	0.77085	1.164
Mof_N 	N 	0.1832	0.4896	0.7778	-0.274
Mof_N 	N 	0.2336	0.8087	0.8124	-0.143
Mof_C 	C 	0.1899	0.9047	0.7501	0.123
Mof_N 	N 	0.0735	0.0162	0.5527	-0.263
Mof_N 	N 	0.0762	0.7788	0.4403	-0.14
Mof_C 	C 	0.2392	0.8944	0.8068	0.111
Mof_N 	N 	0.1233	0.0512	0.6447	-0.269
Mof_C 	C 	0.9836	0.6062	0.4446	0.036
Mof_N 	N 	0.0246	0.7309	0.4742	-0.222
Mof_N 	N 	0.1795	0.8198	0.7529	-0.139
Mof_N 	N 	0.9195	0.4933	0.4424	-0.279
Mof_C 	C 	0.2131	0.5241	0.8056	0.077
Mof_H 	H 	0.2304	0.4842	0.8236	-0.015
Mof_C 	C 	0.203	0.7725	0.7839	0.1
Mof_C 	C 	0.0535	0.7883	0.4699	0.112
Mof_N 	N 	0.3311	0.0282	0.8938	-0.277
Mof_C 	C 	0.1671	0.9578	0.7135	0.034
Mof_C 	C 	0.1491	0.7255	0.3498	0.097
Mof_H 	H 	0.1729	0.7583	0.3513	-0.02
Mof_C 	C 	0.0599	0.8677	0.4989	0.026
Mof_N 	N 	0.0396	0.6498	0.4145	-0.138
Mof_C 	C 	0.9343	0.5062	0.4073	0.071
Mof_H 	H 	0.9234	0.474	0.3817	-0.016
Mof_N 	N 	0.2202	0.947	0.7749	-0.22
Mof_C 	C 	0.093	0.695	0.3804	0.086
Mof_C 	C 	0.1551	0.0914	0.6689	0.051
Mof_H 	H 	0.1627	0.1501	0.6616	-0.005
Mof_C 	C 	0.1959	0.6757	0.784	0.059
Mof_C 	C 	0.018	0.6657	0.4452	0.112
Mof_N 	N 	0.1395	0.667	0.3195	-0.292
Mof_C 	C 	0.1334	0.9189	0.6877	-0.112
Mof_H 	H 	0.1254	0.8592	0.6928	0.089
Mof_C 	C 	0.0686	0.7073	0.4149	0.108
Mof_C 	C 	0.2719	0.9403	0.8376	0.037
Mof_C 	C 	0.1593	0.5482	0.7527	0.06
Mof_H 	H 	0.138	0.5249	0.7322	-0.011
Mof_C 	C 	0.1765	0.0473	0.7042	-0.106
Mof_H 	H 	0.1976	0.0774	0.7224	0.062
Mof_C 	C 	0.1255	0.7425	0.381	-0.143
Mof_H 	H 	0.1328	0.788	0.4022	0.093
Mof_C 	C 	0.0328	0.8948	0.5235	-0.09
Mof_H 	H 	0.0091	0.8613	0.5219	0.053
Mof_C 	C 	0.9346	0.5387	0.4772	0.084
Mof_H 	H 	0.9227	0.532	0.5019	-0.01
Mof_C 	C 	0.2201	0.6149	0.8093	-0.127
Mof_H 	H 	0.2419	0.6364	0.8298	0.081
Mof_C 	C 	0.039	0.9676	0.5498	0.042
Mof_H 	H 	0.0198	0.9854	0.5661	0.001
Mof_C 	C 	0.3182	0.9481	0.9019	0.081
Mof_H 	H 	0.3298	0.9214	0.9287	-0.005
Mof_C 	C 	0.1004	0.9905	0.5299	0.059
Mof_H 	H 	0.1241	0.024	0.5321	-0.01
Mof_C 	C 	0.1644	0.6404	0.7555	-0.116
Mof_H 	H 	0.1462	0.6793	0.7378	0.083
Mof_C 	C 	0.3129	0.066	0.8557	0.07
Mof_H 	H 	0.3215	0.1238	0.8484	-0.003
Mof_C 	C 	0.113	0.9704	0.6551	0.081
Mof_H 	H 	0.0895	0.9457	0.6387	-0.011
Mof_C 	C 	0.0945	0.9158	0.5031	-0.1
Mof_H 	H 	0.1142	0.8975	0.4876	0.073
Mof_C 	C 	0.2892	0.8978	0.875	-0.116
Mof_H 	H 	0.282	0.8385	0.8821	0.086
Mof_C 	C 	0.284	0.0273	0.8286	-0.125
Mof_H 	H 	0.2715	0.0581	0.8032	0.078
Mof_C 	C 	0.9665	0.5956	0.4806	-0.123
Mof_H 	H 	0.9764	0.6265	0.5069	0.068
Mof_C 	C 	0.9656	0.5654	0.4062	-0.113
Mof_H 	H 	0.9742	0.5775	0.3798	0.084
Mof_C 	C 	0.1086	0.618	0.3208	0.112
Mof_H 	H 	0.104	0.5685	0.3013	-0.033
Mof_C 	C 	0.0828	0.631	0.3467	-0.152
Mof_H 	H 	0.0587	0.5988	0.3427	0.095
Mof_H 	H 	0.0109	0.7363	0.495	0.112
Mof_H 	H 	0.227	0.0032	0.7707	0.119
_end
