data_functionalizedCrystal
_audit_creation_method	'EQeq! by Chris Wilmer'
_symmetry_space_group_name_H-M	'P1'
_symmetry_Int_Tables_number	1
_symmetry_cell_setting	triclinic
loop_
_symmetry_equiv_pos_as_xyz
  x,y,z
_cell_length_a	10.66
_cell_length_b	11.377
_cell_length_c	12.509
_cell_angle_alpha	86.24
_cell_angle_beta	81.85
_cell_angle_gamma	89.07
loop_
_atom_site_label
_atom_site_type_symbol
_atom_site_fract_x
_atom_site_fract_y
_atom_site_fract_z
_atom_site_charge
Mof_O 	O 	0.503	0.3228	0.6417	-0.371
Mof_O 	O 	0.3074	0.3886	0.6391	-0.368
Mof_C 	C 	0.3965	0.3169	0.6106	0.316
Mof_Dy	Dy	0.57331	0.51408	0.23813	1.785
Mof_Zn	Zn	0.36811	0.1641	0.20067	1.207
Mof_C 	C 	0.6208	0.8855	0.089	-0.147
Mof_N 	N 	0.3522	0.1265	0.377	-0.216
Mof_C 	C 	0.3011	0.0135	0.5455	-0.101
Mof_H 	H 	0.2756	0.9424	0.5824	0.073
Mof_C 	C 	0.3272	0.1084	0.6019	0.017
Mof_H 	H 	0.3173	0.1021	0.6771	0.036
Mof_C 	C 	0.3818	0.2179	0.4323	-0.005
Mof_C 	C 	0.3687	0.2145	0.5452	-0.054
Mof_C 	C 	0.168	0.3479	0.1471	0.064
Mof_H 	H 	0.237	0.3834	0.1038	-0.012
Mof_C 	C 	0.3134	0.0251	0.4333	0.057
Mof_H 	H 	0.2943	0.9612	0.3959	0.017
Mof_C 	C 	0.0841	0.1951	0.2648	0.054
Mof_H 	H 	0.0946	0.1239	0.3035	0.004
Mof_N 	N 	0.1866	0.245	0.2042	-0.238
Mof_C 	C 	0.9643	0.2448	0.2722	-0.09
Mof_H 	H 	0.8964	0.2077	0.3156	0.075
Mof_C 	C 	0.0511	0.4017	0.151	-0.098
Mof_H 	H 	0.0423	0.4725	0.111	0.08
Mof_O 	O 	0.7227	0.3588	0.2812	-0.382
Mof_N 	N 	0.5399	0.0664	0.1636	-0.23
Mof_C 	C 	0.6598	0.1066	0.1561	0.087
Mof_H 	H 	0.673	0.1806	0.1798	-0.006
Mof_C 	C 	0.8167	0.4077	0.2198	0.266
Mof_C 	C 	0.3814	0.9201	0.1444	0.275
Mof_C 	C 	0.6	0.762	0.0553	0.459
Mof_C 	C 	0.4342	0.3242	0.3619	0.289
Mof_C 	C 	0.5198	0.9576	0.1315	0.017
Mof_C 	C 	0.7436	0.9288	0.0802	0.072
Mof_H 	H 	0.812	0.8833	0.0517	0.01
Mof_C 	C 	0.9461	0.3505	0.2144	0.004
Mof_C 	C 	0.7639	0.0402	0.114	-0.136
Mof_H 	H 	0.8456	0.0698	0.1085	0.086
Mof_O 	O 	0.6079	0.6801	0.126	-0.513
Mof_O 	O 	0.2988	0.9984	0.1748	-0.394
Mof_O 	O 	0.5826	0.7485	0.9589	-0.464
Mof_O 	O 	0.8019	0.5026	0.1641	-0.375
Mof_O 	O 	0.4472	0.3179	0.2591	-0.526
Mof_O 	O 	0.4682	0.4128	0.4048	-0.381
Mof_O 	O 	0.3577	0.8173	0.1251	-0.247
Mof_O 	O 	0.497	0.6772	0.3583	-0.37
Mof_O 	O 	0.6926	0.6114	0.3609	-0.367
Mof_C 	C 	0.6035	0.6831	0.3894	0.317
Mof_Dy	Dy	0.42669	0.48592	0.76187	1.786
Mof_Zn	Zn	0.63189	0.8359	0.79933	1.208
Mof_C 	C 	0.3792	0.1145	0.911	-0.146
Mof_N 	N 	0.6478	0.8735	0.623	-0.215
Mof_C 	C 	0.6989	0.9865	0.4545	-0.1
Mof_H 	H 	0.7244	0.0576	0.4176	0.073
Mof_C 	C 	0.6728	0.8916	0.3981	0.017
Mof_H 	H 	0.6827	0.8979	0.3229	0.036
Mof_C 	C 	0.6182	0.7821	0.5677	-0.005
Mof_C 	C 	0.6313	0.7855	0.4548	-0.054
Mof_C 	C 	0.832	0.6521	0.8529	0.064
Mof_H 	H 	0.763	0.6166	0.8962	-0.012
Mof_C 	C 	0.6866	0.9749	0.5667	0.057
Mof_H 	H 	0.7057	0.0388	0.6041	0.017
Mof_C 	C 	0.9159	0.8049	0.7352	0.054
Mof_H 	H 	0.9054	0.8761	0.6965	0.004
Mof_N 	N 	0.8134	0.755	0.7958	-0.238
Mof_C 	C 	0.0357	0.7552	0.7278	-0.09
Mof_H 	H 	0.1036	0.7923	0.6844	0.075
Mof_C 	C 	0.9489	0.5983	0.849	-0.098
Mof_H 	H 	0.9577	0.5275	0.889	0.08
Mof_O 	O 	0.2773	0.6412	0.7188	-0.382
Mof_N 	N 	0.4601	0.9336	0.8364	-0.23
Mof_C 	C 	0.3402	0.8934	0.8439	0.087
Mof_H 	H 	0.327	0.8194	0.8202	-0.006
Mof_C 	C 	0.1833	0.5923	0.7802	0.266
Mof_C 	C 	0.6186	0.0799	0.8556	0.275
Mof_C 	C 	0.4	0.238	0.9447	0.459
Mof_C 	C 	0.5658	0.6758	0.6381	0.289
Mof_C 	C 	0.4802	0.0424	0.8685	0.017
Mof_C 	C 	0.2564	0.0712	0.9198	0.072
Mof_H 	H 	0.188	0.1167	0.9483	0.01
Mof_C 	C 	0.0539	0.6495	0.7856	0.004
Mof_C 	C 	0.2361	0.9598	0.886	-0.136
Mof_H 	H 	0.1544	0.9302	0.8915	0.086
Mof_O 	O 	0.3921	0.3199	0.874	-0.513
Mof_O 	O 	0.7012	0.0016	0.8252	-0.394
Mof_O 	O 	0.4174	0.2515	0.0411	-0.464
Mof_O 	O 	0.1981	0.4974	0.8359	-0.375
Mof_O 	O 	0.5528	0.6821	0.7409	-0.526
Mof_O 	O 	0.5318	0.5872	0.5952	-0.381
Mof_O 	O 	0.6423	0.1827	0.8749	-0.247
_end
