data_functionalizedCrystal
_audit_creation_method	'EQeq! by Chris Wilmer'
_symmetry_space_group_name_H-M	'P1'
_symmetry_Int_Tables_number	1
_symmetry_cell_setting	triclinic
loop_
_symmetry_equiv_pos_as_xyz
  x,y,z
_cell_length_a	8.814
_cell_length_b	8.814
_cell_length_c	20.567
_cell_angle_alpha	90
_cell_angle_beta	90
_cell_angle_gamma	120
loop_
_atom_site_label
_atom_site_type_symbol
_atom_site_fract_x
_atom_site_fract_y
_atom_site_fract_z
_atom_site_charge
Mof_Cd	Cd	-0	0	-0	0.308
Mof_Cd	Cd	9.12164e-33	0	0.5	0.324
Mof_Cd	Cd	0.33333	0.66667	0.1137	0.27
Mof_C 	C 	0.33333	0.66667	0.222	-0.063
Mof_Cd	Cd	0.66667	0.33333	0.6137	0.273
Mof_C 	C 	0.66667	0.33333	0.722	-0.063
Mof_Cd	Cd	0.66667	0.33333	0.8863	0.276
Mof_C 	C 	0.66667	0.33333	0.778	-0.063
Mof_Cd	Cd	0.33333	0.66667	0.3863	0.273
Mof_C 	C 	0.33333	0.66667	0.278	-0.063
Mof_N 	N 	0.126	0.252	0.0615	-0.144
Mof_C 	C 	0.194	0.388	0.0798	-0.012
Mof_N 	N 	0.748	0.874	0.0615	-0.114
Mof_C 	C 	0.612	0.806	0.0798	0.01
Mof_N 	N 	0.126	0.874	0.0615	-0.127
Mof_C 	C 	0.194	0.806	0.0798	-0
Mof_N 	N 	0.874	0.748	0.5615	-0.113
Mof_C 	C 	0.806	0.612	0.5798	0.014
Mof_N 	N 	0.252	0.126	0.5615	-0.142
Mof_C 	C 	0.388	0.194	0.5798	-0.008
Mof_N 	N 	0.874	0.126	0.5615	-0.127
Mof_C 	C 	0.806	0.194	0.5798	0.003
Mof_N 	N 	0.252	0.126	0.9385	-0.136
Mof_C 	C 	0.388	0.194	0.9202	-0.003
Mof_N 	N 	0.874	0.748	0.9385	-0.107
Mof_C 	C 	0.806	0.612	0.9202	0.019
Mof_N 	N 	0.874	0.126	0.9385	-0.122
Mof_C 	C 	0.806	0.194	0.9202	0.008
Mof_N 	N 	0.748	0.874	0.4385	-0.113
Mof_C 	C 	0.612	0.806	0.4202	0.014
Mof_N 	N 	0.126	0.252	0.4385	-0.142
Mof_C 	C 	0.194	0.388	0.4202	-0.008
Mof_N 	N 	0.126	0.874	0.4385	-0.126
Mof_C 	C 	0.194	0.806	0.4202	0.004
_end
