data_functionalizedCrystal
_audit_creation_method	'EQeq! by Chris Wilmer'
_symmetry_space_group_name_H-M	'P1'
_symmetry_Int_Tables_number	1
_symmetry_cell_setting	triclinic
loop_
_symmetry_equiv_pos_as_xyz
  x,y,z
_cell_length_a	37.7048
_cell_length_b	37.7048
_cell_length_c	37.7048
_cell_angle_alpha	90
_cell_angle_beta	90
_cell_angle_gamma	90
loop_
_atom_site_label
_atom_site_type_symbol
_atom_site_fract_x
_atom_site_fract_y
_atom_site_fract_z
_atom_site_charge
Mof_N 	N 	0.68299	0.46194	0.28527	-0.213
Mof_N 	N 	0.70678	0.46194	0.31211	-0.182
Mof_N 	N 	0.70131	0.43492	0.33377	-0.101
Mof_C 	C 	0.66224	0.43388	0.29014	0.007
Mof_H 	H 	0.6435	0.427	0.2756	0.004
Mof_C 	C 	0.67329	0.41677	0.32053	0.02
Mof_C 	C 	0.65929	0.3845	0.33775	0.064
Mof_C 	C 	0.62944	0.36763	0.32424	-0.13
Mof_H 	H 	0.6186	0.3765	0.3039	0.074
Mof_N 	N 	0.68299	0.96194	0.78527	-0.207
Mof_N 	N 	0.70678	0.96194	0.81211	-0.177
Mof_N 	N 	0.70131	0.93492	0.83377	-0.099
Mof_C 	C 	0.66224	0.93388	0.79014	0.008
Mof_H 	H 	0.6435	0.927	0.7756	0.006
Mof_C 	C 	0.67329	0.91677	0.82053	0.021
Mof_C 	C 	0.65929	0.8845	0.83775	0.066
Mof_C 	C 	0.62944	0.86763	0.82424	-0.13
Mof_H 	H 	0.6186	0.8765	0.8039	0.075
Mof_N 	N 	0.18299	0.46194	0.78527	-0.213
Mof_N 	N 	0.20678	0.46194	0.81211	-0.182
Mof_N 	N 	0.20131	0.43492	0.83377	-0.1
Mof_C 	C 	0.16224	0.43388	0.79014	0.007
Mof_H 	H 	0.1435	0.427	0.7756	0.003
Mof_C 	C 	0.17329	0.41677	0.82053	0.02
Mof_C 	C 	0.15929	0.3845	0.83775	0.064
Mof_C 	C 	0.12944	0.36763	0.82424	-0.13
Mof_H 	H 	0.1186	0.3765	0.8039	0.074
Mof_N 	N 	0.18299	0.96194	0.28527	-0.207
Mof_N 	N 	0.20678	0.96194	0.31211	-0.177
Mof_N 	N 	0.20131	0.93492	0.33377	-0.099
Mof_C 	C 	0.16224	0.93388	0.29014	0.008
Mof_H 	H 	0.1435	0.927	0.2756	0.005
Mof_C 	C 	0.17329	0.91677	0.32053	0.021
Mof_C 	C 	0.15929	0.8845	0.33775	0.064
Mof_C 	C 	0.12944	0.86763	0.32424	-0.13
Mof_H 	H 	0.1186	0.8765	0.3039	0.074
Mof_N 	N 	0.31701	0.53806	0.28527	-0.212
Mof_N 	N 	0.29322	0.53806	0.31211	-0.182
Mof_N 	N 	0.29869	0.56508	0.33377	-0.101
Mof_C 	C 	0.33776	0.56612	0.29014	0.007
Mof_H 	H 	0.3565	0.573	0.2756	0.004
Mof_C 	C 	0.32671	0.58323	0.32053	0.02
Mof_C 	C 	0.34071	0.6155	0.33775	0.064
Mof_C 	C 	0.37056	0.63237	0.32424	-0.13
Mof_H 	H 	0.3814	0.6235	0.3039	0.074
Mof_N 	N 	0.31701	0.03806	0.78527	-0.214
Mof_N 	N 	0.29322	0.03806	0.81211	-0.184
Mof_N 	N 	0.29869	0.06508	0.83377	-0.101
Mof_C 	C 	0.33776	0.06612	0.79014	0.006
Mof_H 	H 	0.3565	0.073	0.7756	0.003
Mof_C 	C 	0.32671	0.08323	0.82053	0.02
Mof_C 	C 	0.34071	0.1155	0.83775	0.064
Mof_C 	C 	0.37056	0.13237	0.82424	-0.13
Mof_H 	H 	0.3814	0.1235	0.8039	0.074
Mof_N 	N 	0.81701	0.53806	0.78527	-0.212
Mof_N 	N 	0.79322	0.53806	0.81211	-0.182
Mof_N 	N 	0.79869	0.56508	0.83377	-0.1
Mof_C 	C 	0.83776	0.56612	0.79014	0.008
Mof_H 	H 	0.8565	0.573	0.7756	0.005
Mof_C 	C 	0.82671	0.58323	0.82053	0.021
Mof_C 	C 	0.84071	0.6155	0.83775	0.065
Mof_C 	C 	0.87056	0.63237	0.82424	-0.13
Mof_H 	H 	0.8814	0.6235	0.8039	0.075
Mof_N 	N 	0.81701	0.03806	0.28527	-0.213
Mof_N 	N 	0.79322	0.03806	0.31211	-0.183
Mof_N 	N 	0.79869	0.06508	0.33377	-0.101
Mof_C 	C 	0.83776	0.06612	0.29014	0.008
Mof_H 	H 	0.8565	0.073	0.2756	0.005
Mof_C 	C 	0.82671	0.08323	0.32053	0.021
Mof_C 	C 	0.84071	0.1155	0.33775	0.065
Mof_C 	C 	0.87056	0.13237	0.32424	-0.129
Mof_H 	H 	0.8814	0.1235	0.3039	0.075
Mof_N 	N 	0.31701	0.46194	0.71473	-0.211
Mof_N 	N 	0.29322	0.46194	0.68789	-0.181
Mof_N 	N 	0.29869	0.43492	0.66623	-0.1
Mof_C 	C 	0.33776	0.43388	0.70986	0.008
Mof_H 	H 	0.3565	0.427	0.7244	0.005
Mof_C 	C 	0.32671	0.41677	0.67947	0.021
Mof_C 	C 	0.34071	0.3845	0.66225	0.065
Mof_C 	C 	0.37056	0.36763	0.67576	-0.129
Mof_H 	H 	0.3814	0.3765	0.6961	0.075
Mof_N 	N 	0.31701	0.96194	0.21473	-0.206
Mof_N 	N 	0.29322	0.96194	0.18789	-0.176
Mof_N 	N 	0.29869	0.93492	0.16623	-0.099
Mof_C 	C 	0.33776	0.93388	0.20986	0.009
Mof_H 	H 	0.3565	0.927	0.2244	0.007
Mof_C 	C 	0.32671	0.91677	0.17947	0.022
Mof_C 	C 	0.34071	0.8845	0.16225	0.065
Mof_C 	C 	0.37056	0.86763	0.17576	-0.129
Mof_H 	H 	0.3814	0.8765	0.1961	0.076
Mof_N 	N 	0.81701	0.46194	0.21473	-0.211
Mof_N 	N 	0.79322	0.46194	0.18789	-0.181
Mof_N 	N 	0.79869	0.43492	0.16623	-0.1
Mof_C 	C 	0.83776	0.43388	0.20986	0.008
Mof_H 	H 	0.8565	0.427	0.2244	0.006
Mof_C 	C 	0.82671	0.41677	0.17947	0.021
Mof_C 	C 	0.84071	0.3845	0.16225	0.065
Mof_C 	C 	0.87056	0.36763	0.17576	-0.129
Mof_H 	H 	0.8814	0.3765	0.1961	0.076
Mof_N 	N 	0.81701	0.96194	0.71473	-0.206
Mof_N 	N 	0.79322	0.96194	0.68789	-0.176
Mof_N 	N 	0.79869	0.93492	0.66623	-0.098
Mof_C 	C 	0.83776	0.93388	0.70986	0.009
Mof_H 	H 	0.8565	0.927	0.7244	0.008
Mof_C 	C 	0.82671	0.91677	0.67947	0.023
Mof_C 	C 	0.84071	0.8845	0.66225	0.067
Mof_C 	C 	0.87056	0.86763	0.67576	-0.129
Mof_H 	H 	0.8814	0.8765	0.6961	0.077
Mof_N 	N 	0.68299	0.53806	0.71473	-0.212
Mof_N 	N 	0.70678	0.53806	0.68789	-0.181
Mof_N 	N 	0.70131	0.56508	0.66623	-0.1
Mof_C 	C 	0.66224	0.56612	0.70986	0.008
Mof_H 	H 	0.6435	0.573	0.7244	0.005
Mof_C 	C 	0.67329	0.58323	0.67947	0.021
Mof_C 	C 	0.65929	0.6155	0.66225	0.065
Mof_C 	C 	0.62944	0.63237	0.67576	-0.129
Mof_H 	H 	0.6186	0.6235	0.6961	0.075
Mof_N 	N 	0.68299	0.03806	0.21473	-0.214
Mof_N 	N 	0.70678	0.03806	0.18789	-0.184
Mof_N 	N 	0.70131	0.06508	0.16623	-0.101
Mof_C 	C 	0.66224	0.06612	0.20986	0.007
Mof_H 	H 	0.6435	0.073	0.2244	0.004
Mof_C 	C 	0.67329	0.08323	0.17947	0.02
Mof_C 	C 	0.65929	0.1155	0.16225	0.063
Mof_C 	C 	0.62944	0.13237	0.17576	-0.129
Mof_H 	H 	0.6186	0.1235	0.1961	0.074
Mof_N 	N 	0.18299	0.53806	0.21473	-0.212
Mof_N 	N 	0.20678	0.53806	0.18789	-0.182
Mof_N 	N 	0.20131	0.56508	0.16623	-0.101
Mof_C 	C 	0.16224	0.56612	0.20986	0.008
Mof_H 	H 	0.1435	0.573	0.2244	0.004
Mof_C 	C 	0.17329	0.58323	0.17947	0.02
Mof_C 	C 	0.15929	0.6155	0.16225	0.064
Mof_C 	C 	0.12944	0.63237	0.17576	-0.129
Mof_H 	H 	0.1186	0.6235	0.1961	0.074
Mof_N 	N 	0.18299	0.03806	0.71473	-0.214
Mof_N 	N 	0.20678	0.03806	0.68789	-0.184
Mof_N 	N 	0.20131	0.06508	0.66623	-0.101
Mof_C 	C 	0.16224	0.06612	0.70986	0.007
Mof_H 	H 	0.1435	0.073	0.7244	0.003
Mof_C 	C 	0.17329	0.08323	0.67947	0.02
Mof_C 	C 	0.15929	0.1155	0.66225	0.063
Mof_C 	C 	0.12944	0.13237	0.67576	-0.129
Mof_H 	H 	0.1186	0.1235	0.6961	0.074
Mof_N 	N 	0.28527	0.68299	0.46194	-0.212
Mof_N 	N 	0.31211	0.70678	0.46194	-0.181
Mof_N 	N 	0.33377	0.70131	0.43492	-0.1
Mof_C 	C 	0.29014	0.66224	0.43388	0.008
Mof_H 	H 	0.2756	0.6435	0.427	0.005
Mof_C 	C 	0.32053	0.67329	0.41677	0.021
Mof_C 	C 	0.33775	0.65929	0.3845	0.065
Mof_C 	C 	0.32424	0.62944	0.36763	-0.129
Mof_H 	H 	0.3039	0.6186	0.3765	0.075
Mof_N 	N 	0.28527	0.18299	0.96194	-0.206
Mof_N 	N 	0.31211	0.20678	0.96194	-0.176
Mof_N 	N 	0.33377	0.20131	0.93492	-0.098
Mof_C 	C 	0.29014	0.16224	0.93388	0.009
Mof_H 	H 	0.2756	0.1435	0.927	0.006
Mof_C 	C 	0.32053	0.17329	0.91677	0.022
Mof_C 	C 	0.33775	0.15929	0.8845	0.065
Mof_C 	C 	0.32424	0.12944	0.86763	-0.129
Mof_H 	H 	0.3039	0.1186	0.8765	0.075
Mof_N 	N 	0.78527	0.68299	0.96194	-0.206
Mof_N 	N 	0.81211	0.70678	0.96194	-0.176
Mof_N 	N 	0.83377	0.70131	0.93492	-0.098
Mof_C 	C 	0.79014	0.66224	0.93388	0.009
Mof_H 	H 	0.7756	0.6435	0.927	0.007
Mof_C 	C 	0.82053	0.67329	0.91677	0.022
Mof_C 	C 	0.83775	0.65929	0.8845	0.067
Mof_C 	C 	0.82424	0.62944	0.86763	-0.129
Mof_H 	H 	0.8039	0.6186	0.8765	0.076
Mof_N 	N 	0.78527	0.18299	0.46194	-0.212
Mof_N 	N 	0.81211	0.20678	0.46194	-0.181
Mof_N 	N 	0.83377	0.20131	0.43492	-0.099
Mof_C 	C 	0.79014	0.16224	0.43388	0.008
Mof_H 	H 	0.7756	0.1435	0.427	0.004
Mof_C 	C 	0.82053	0.17329	0.41677	0.021
Mof_C 	C 	0.83775	0.15929	0.3845	0.065
Mof_C 	C 	0.82424	0.12944	0.36763	-0.129
Mof_H 	H 	0.8039	0.1186	0.3765	0.075
Mof_N 	N 	0.28527	0.31701	0.53806	-0.211
Mof_N 	N 	0.31211	0.29322	0.53806	-0.181
Mof_N 	N 	0.33377	0.29869	0.56508	-0.1
Mof_C 	C 	0.29014	0.33776	0.56612	0.008
Mof_H 	H 	0.2756	0.3565	0.573	0.005
Mof_C 	C 	0.32053	0.32671	0.58323	0.021
Mof_C 	C 	0.33775	0.34071	0.6155	0.065
Mof_C 	C 	0.32424	0.37056	0.63237	-0.129
Mof_H 	H 	0.3039	0.3814	0.6235	0.075
Mof_N 	N 	0.28527	0.81701	0.03806	-0.213
Mof_N 	N 	0.31211	0.79322	0.03806	-0.183
Mof_N 	N 	0.33377	0.79869	0.06508	-0.101
Mof_C 	C 	0.29014	0.83776	0.06612	0.008
Mof_H 	H 	0.2756	0.8565	0.073	0.005
Mof_C 	C 	0.32053	0.82671	0.08323	0.021
Mof_C 	C 	0.33775	0.84071	0.1155	0.065
Mof_C 	C 	0.32424	0.87056	0.13237	-0.129
Mof_H 	H 	0.3039	0.8814	0.1235	0.075
Mof_N 	N 	0.78527	0.31701	0.03806	-0.213
Mof_N 	N 	0.81211	0.29322	0.03806	-0.183
Mof_N 	N 	0.83377	0.29869	0.06508	-0.1
Mof_C 	C 	0.79014	0.33776	0.06612	0.007
Mof_H 	H 	0.7756	0.3565	0.073	0.004
Mof_C 	C 	0.82053	0.32671	0.08323	0.021
Mof_C 	C 	0.83775	0.34071	0.1155	0.065
Mof_C 	C 	0.82424	0.37056	0.13237	-0.129
Mof_H 	H 	0.8039	0.3814	0.1235	0.075
Mof_N 	N 	0.78527	0.81701	0.53806	-0.211
Mof_N 	N 	0.81211	0.79322	0.53806	-0.181
Mof_N 	N 	0.83377	0.79869	0.56508	-0.099
Mof_C 	C 	0.79014	0.83776	0.56612	0.009
Mof_H 	H 	0.7756	0.8565	0.573	0.006
Mof_C 	C 	0.82053	0.82671	0.58323	0.022
Mof_C 	C 	0.83775	0.84071	0.6155	0.066
Mof_C 	C 	0.82424	0.87056	0.63237	-0.129
Mof_H 	H 	0.8039	0.8814	0.6235	0.076
Mof_N 	N 	0.71473	0.31701	0.46194	-0.211
Mof_N 	N 	0.68789	0.29322	0.46194	-0.181
Mof_N 	N 	0.66623	0.29869	0.43492	-0.1
Mof_C 	C 	0.70986	0.33776	0.43388	0.008
Mof_H 	H 	0.7244	0.3565	0.427	0.005
Mof_C 	C 	0.67947	0.32671	0.41677	0.021
Mof_C 	C 	0.66225	0.34071	0.3845	0.065
Mof_C 	C 	0.67576	0.37056	0.36763	-0.129
Mof_H 	H 	0.6961	0.3814	0.3765	0.075
Mof_N 	N 	0.71473	0.81701	0.96194	-0.206
Mof_N 	N 	0.68789	0.79322	0.96194	-0.176
Mof_N 	N 	0.66623	0.79869	0.93492	-0.098
Mof_C 	C 	0.70986	0.83776	0.93388	0.009
Mof_H 	H 	0.7244	0.8565	0.927	0.008
Mof_C 	C 	0.67947	0.82671	0.91677	0.023
Mof_C 	C 	0.66225	0.84071	0.8845	0.067
Mof_C 	C 	0.67576	0.87056	0.86763	-0.129
Mof_H 	H 	0.6961	0.8814	0.8765	0.077
Mof_N 	N 	0.21473	0.31701	0.96194	-0.206
Mof_N 	N 	0.18789	0.29322	0.96194	-0.176
Mof_N 	N 	0.16623	0.29869	0.93492	-0.099
Mof_C 	C 	0.20986	0.33776	0.93388	0.009
Mof_H 	H 	0.2244	0.3565	0.927	0.007
Mof_C 	C 	0.17947	0.32671	0.91677	0.022
Mof_C 	C 	0.16225	0.34071	0.8845	0.065
Mof_C 	C 	0.17576	0.37056	0.86763	-0.129
Mof_H 	H 	0.1961	0.3814	0.8765	0.076
Mof_N 	N 	0.21473	0.81701	0.46194	-0.211
Mof_N 	N 	0.18789	0.79322	0.46194	-0.181
Mof_N 	N 	0.16623	0.79869	0.43492	-0.1
Mof_C 	C 	0.20986	0.83776	0.43388	0.008
Mof_H 	H 	0.2244	0.8565	0.427	0.006
Mof_C 	C 	0.17947	0.82671	0.41677	0.021
Mof_C 	C 	0.16225	0.84071	0.3845	0.065
Mof_C 	C 	0.17576	0.87056	0.36763	-0.129
Mof_H 	H 	0.1961	0.8814	0.3765	0.076
Mof_N 	N 	0.71473	0.68299	0.53806	-0.212
Mof_N 	N 	0.68789	0.70678	0.53806	-0.181
Mof_N 	N 	0.66623	0.70131	0.56508	-0.1
Mof_C 	C 	0.70986	0.66224	0.56612	0.008
Mof_H 	H 	0.7244	0.6435	0.573	0.005
Mof_C 	C 	0.67947	0.67329	0.58323	0.021
Mof_C 	C 	0.66225	0.65929	0.6155	0.065
Mof_C 	C 	0.67576	0.62944	0.63237	-0.129
Mof_H 	H 	0.6961	0.6186	0.6235	0.075
Mof_N 	N 	0.71473	0.18299	0.03806	-0.214
Mof_N 	N 	0.68789	0.20678	0.03806	-0.184
Mof_N 	N 	0.66623	0.20131	0.06508	-0.101
Mof_C 	C 	0.70986	0.16224	0.06612	0.007
Mof_H 	H 	0.7244	0.1435	0.073	0.003
Mof_C 	C 	0.67947	0.17329	0.08323	0.02
Mof_C 	C 	0.66225	0.15929	0.1155	0.063
Mof_C 	C 	0.67576	0.12944	0.13237	-0.129
Mof_H 	H 	0.6961	0.1186	0.1235	0.074
Mof_N 	N 	0.21473	0.68299	0.03806	-0.214
Mof_N 	N 	0.18789	0.70678	0.03806	-0.184
Mof_N 	N 	0.16623	0.70131	0.06508	-0.101
Mof_C 	C 	0.20986	0.66224	0.06612	0.007
Mof_H 	H 	0.2244	0.6435	0.073	0.004
Mof_C 	C 	0.17947	0.67329	0.08323	0.02
Mof_C 	C 	0.16225	0.65929	0.1155	0.063
Mof_C 	C 	0.17576	0.62944	0.13237	-0.129
Mof_H 	H 	0.1961	0.6186	0.1235	0.074
Mof_N 	N 	0.21473	0.18299	0.53806	-0.212
Mof_N 	N 	0.18789	0.20678	0.53806	-0.182
Mof_N 	N 	0.16623	0.20131	0.56508	-0.101
Mof_C 	C 	0.20986	0.16224	0.56612	0.008
Mof_H 	H 	0.2244	0.1435	0.573	0.004
Mof_C 	C 	0.17947	0.17329	0.58323	0.02
Mof_C 	C 	0.16225	0.15929	0.6155	0.064
Mof_C 	C 	0.17576	0.12944	0.63237	-0.129
Mof_H 	H 	0.1961	0.1186	0.6235	0.074
Mof_N 	N 	0.46194	0.28527	0.68299	-0.212
Mof_N 	N 	0.46194	0.31211	0.70678	-0.181
Mof_N 	N 	0.43492	0.33377	0.70131	-0.1
Mof_C 	C 	0.43388	0.29014	0.66224	0.008
Mof_H 	H 	0.427	0.2756	0.6435	0.005
Mof_C 	C 	0.41677	0.32053	0.67329	0.021
Mof_C 	C 	0.3845	0.33775	0.65929	0.065
Mof_C 	C 	0.36763	0.32424	0.62944	-0.129
Mof_H 	H 	0.3765	0.3039	0.6186	0.075
Mof_N 	N 	0.46194	0.78527	0.18299	-0.212
Mof_N 	N 	0.46194	0.81211	0.20678	-0.181
Mof_N 	N 	0.43492	0.83377	0.20131	-0.099
Mof_C 	C 	0.43388	0.79014	0.16224	0.008
Mof_H 	H 	0.427	0.7756	0.1435	0.004
Mof_C 	C 	0.41677	0.82053	0.17329	0.021
Mof_C 	C 	0.3845	0.83775	0.15929	0.065
Mof_C 	C 	0.36763	0.82424	0.12944	-0.129
Mof_H 	H 	0.3765	0.8039	0.1186	0.075
Mof_N 	N 	0.96194	0.28527	0.18299	-0.206
Mof_N 	N 	0.96194	0.31211	0.20678	-0.176
Mof_N 	N 	0.93492	0.33377	0.20131	-0.098
Mof_C 	C 	0.93388	0.29014	0.16224	0.009
Mof_H 	H 	0.927	0.2756	0.1435	0.006
Mof_C 	C 	0.91677	0.32053	0.17329	0.022
Mof_C 	C 	0.8845	0.33775	0.15929	0.065
Mof_C 	C 	0.86763	0.32424	0.12944	-0.129
Mof_H 	H 	0.8765	0.3039	0.1186	0.075
Mof_N 	N 	0.96194	0.78527	0.68299	-0.206
Mof_N 	N 	0.96194	0.81211	0.70678	-0.176
Mof_N 	N 	0.93492	0.83377	0.70131	-0.098
Mof_C 	C 	0.93388	0.79014	0.66224	0.009
Mof_H 	H 	0.927	0.7756	0.6435	0.007
Mof_C 	C 	0.91677	0.82053	0.67329	0.022
Mof_C 	C 	0.8845	0.83775	0.65929	0.067
Mof_C 	C 	0.86763	0.82424	0.62944	-0.129
Mof_H 	H 	0.8765	0.8039	0.6186	0.076
Mof_N 	N 	0.53806	0.28527	0.31701	-0.211
Mof_N 	N 	0.53806	0.31211	0.29322	-0.181
Mof_N 	N 	0.56508	0.33377	0.29869	-0.1
Mof_C 	C 	0.56612	0.29014	0.33776	0.008
Mof_H 	H 	0.573	0.2756	0.3565	0.005
Mof_C 	C 	0.58323	0.32053	0.32671	0.021
Mof_C 	C 	0.6155	0.33775	0.34071	0.065
Mof_C 	C 	0.63237	0.32424	0.37056	-0.129
Mof_H 	H 	0.6235	0.3039	0.3814	0.075
Mof_N 	N 	0.53806	0.78527	0.81701	-0.211
Mof_N 	N 	0.53806	0.81211	0.79322	-0.181
Mof_N 	N 	0.56508	0.83377	0.79869	-0.099
Mof_C 	C 	0.56612	0.79014	0.83776	0.009
Mof_H 	H 	0.573	0.7756	0.8565	0.006
Mof_C 	C 	0.58323	0.82053	0.82671	0.022
Mof_C 	C 	0.6155	0.83775	0.84071	0.066
Mof_C 	C 	0.63237	0.82424	0.87056	-0.129
Mof_H 	H 	0.6235	0.8039	0.8814	0.076
Mof_N 	N 	0.03806	0.28527	0.81701	-0.213
Mof_N 	N 	0.03806	0.31211	0.79322	-0.183
Mof_N 	N 	0.06508	0.33377	0.79869	-0.101
Mof_C 	C 	0.06612	0.29014	0.83776	0.008
Mof_H 	H 	0.073	0.2756	0.8565	0.005
Mof_C 	C 	0.08323	0.32053	0.82671	0.021
Mof_C 	C 	0.1155	0.33775	0.84071	0.065
Mof_C 	C 	0.13237	0.32424	0.87056	-0.129
Mof_H 	H 	0.1235	0.3039	0.8814	0.075
Mof_N 	N 	0.03806	0.78527	0.31701	-0.213
Mof_N 	N 	0.03806	0.81211	0.29322	-0.183
Mof_N 	N 	0.06508	0.83377	0.29869	-0.1
Mof_C 	C 	0.06612	0.79014	0.33776	0.007
Mof_H 	H 	0.073	0.7756	0.3565	0.004
Mof_C 	C 	0.08323	0.82053	0.32671	0.021
Mof_C 	C 	0.1155	0.83775	0.34071	0.065
Mof_C 	C 	0.13237	0.82424	0.37056	-0.129
Mof_H 	H 	0.1235	0.8039	0.3814	0.075
Mof_N 	N 	0.46194	0.71473	0.31701	-0.211
Mof_N 	N 	0.46194	0.68789	0.29322	-0.181
Mof_N 	N 	0.43492	0.66623	0.29869	-0.1
Mof_C 	C 	0.43388	0.70986	0.33776	0.008
Mof_H 	H 	0.427	0.7244	0.3565	0.005
Mof_C 	C 	0.41677	0.67947	0.32671	0.021
Mof_C 	C 	0.3845	0.66225	0.34071	0.065
Mof_C 	C 	0.36763	0.67576	0.37056	-0.129
Mof_H 	H 	0.3765	0.6961	0.3814	0.075
Mof_N 	N 	0.46194	0.21473	0.81701	-0.211
Mof_N 	N 	0.46194	0.18789	0.79322	-0.181
Mof_N 	N 	0.43492	0.16623	0.79869	-0.1
Mof_C 	C 	0.43388	0.20986	0.83776	0.008
Mof_H 	H 	0.427	0.2244	0.8565	0.006
Mof_C 	C 	0.41677	0.17947	0.82671	0.021
Mof_C 	C 	0.3845	0.16225	0.84071	0.065
Mof_C 	C 	0.36763	0.17576	0.87056	-0.129
Mof_H 	H 	0.3765	0.1961	0.8814	0.076
Mof_N 	N 	0.96194	0.71473	0.81701	-0.206
Mof_N 	N 	0.96194	0.68789	0.79322	-0.176
Mof_N 	N 	0.93492	0.66623	0.79869	-0.098
Mof_C 	C 	0.93388	0.70986	0.83776	0.009
Mof_H 	H 	0.927	0.7244	0.8565	0.008
Mof_C 	C 	0.91677	0.67947	0.82671	0.023
Mof_C 	C 	0.8845	0.66225	0.84071	0.067
Mof_C 	C 	0.86763	0.67576	0.87056	-0.129
Mof_H 	H 	0.8765	0.6961	0.8814	0.077
Mof_N 	N 	0.96194	0.21473	0.31701	-0.206
Mof_N 	N 	0.96194	0.18789	0.29322	-0.176
Mof_N 	N 	0.93492	0.16623	0.29869	-0.099
Mof_C 	C 	0.93388	0.20986	0.33776	0.009
Mof_H 	H 	0.927	0.2244	0.3565	0.007
Mof_C 	C 	0.91677	0.17947	0.32671	0.022
Mof_C 	C 	0.8845	0.16225	0.34071	0.065
Mof_C 	C 	0.86763	0.17576	0.37056	-0.129
Mof_H 	H 	0.8765	0.1961	0.3814	0.076
Mof_N 	N 	0.53806	0.71473	0.68299	-0.212
Mof_N 	N 	0.53806	0.68789	0.70678	-0.181
Mof_N 	N 	0.56508	0.66623	0.70131	-0.1
Mof_C 	C 	0.56612	0.70986	0.66224	0.008
Mof_H 	H 	0.573	0.7244	0.6435	0.005
Mof_C 	C 	0.58323	0.67947	0.67329	0.021
Mof_C 	C 	0.6155	0.66225	0.65929	0.065
Mof_C 	C 	0.63237	0.67576	0.62944	-0.129
Mof_H 	H 	0.6235	0.6961	0.6186	0.075
Mof_N 	N 	0.53806	0.21473	0.18299	-0.212
Mof_N 	N 	0.53806	0.18789	0.20678	-0.182
Mof_N 	N 	0.56508	0.16623	0.20131	-0.101
Mof_C 	C 	0.56612	0.20986	0.16224	0.008
Mof_H 	H 	0.573	0.2244	0.1435	0.004
Mof_C 	C 	0.58323	0.17947	0.17329	0.02
Mof_C 	C 	0.6155	0.16225	0.15929	0.064
Mof_C 	C 	0.63237	0.17576	0.12944	-0.129
Mof_H 	H 	0.6235	0.1961	0.1186	0.074
Mof_N 	N 	0.03806	0.71473	0.18299	-0.214
Mof_N 	N 	0.03806	0.68789	0.20678	-0.184
Mof_N 	N 	0.06508	0.66623	0.20131	-0.101
Mof_C 	C 	0.06612	0.70986	0.16224	0.007
Mof_H 	H 	0.073	0.7244	0.1435	0.003
Mof_C 	C 	0.08323	0.67947	0.17329	0.02
Mof_C 	C 	0.1155	0.66225	0.15929	0.063
Mof_C 	C 	0.13237	0.67576	0.12944	-0.129
Mof_H 	H 	0.1235	0.6961	0.1186	0.074
Mof_N 	N 	0.03806	0.21473	0.68299	-0.214
Mof_N 	N 	0.03806	0.18789	0.70678	-0.184
Mof_N 	N 	0.06508	0.16623	0.70131	-0.101
Mof_C 	C 	0.06612	0.20986	0.66224	0.007
Mof_H 	H 	0.073	0.2244	0.6435	0.004
Mof_C 	C 	0.08323	0.17947	0.67329	0.02
Mof_C 	C 	0.1155	0.16225	0.65929	0.063
Mof_C 	C 	0.13237	0.17576	0.62944	-0.129
Mof_H 	H 	0.1235	0.1961	0.6186	0.074
Mof_N 	N 	0.96194	0.18299	0.21473	-0.206
Mof_N 	N 	0.96194	0.20678	0.18789	-0.176
Mof_N 	N 	0.93492	0.20131	0.16623	-0.099
Mof_C 	C 	0.93388	0.16224	0.20986	0.009
Mof_H 	H 	0.927	0.1435	0.2244	0.006
Mof_C 	C 	0.91677	0.17329	0.17947	0.022
Mof_C 	C 	0.8845	0.15929	0.16225	0.065
Mof_C 	C 	0.86763	0.12944	0.17576	-0.129
Mof_H 	H 	0.8765	0.1186	0.1961	0.075
Mof_N 	N 	0.96194	0.68299	0.71473	-0.206
Mof_N 	N 	0.96194	0.70678	0.68789	-0.176
Mof_N 	N 	0.93492	0.70131	0.66623	-0.098
Mof_C 	C 	0.93388	0.66224	0.70986	0.009
Mof_H 	H 	0.927	0.6435	0.7244	0.007
Mof_C 	C 	0.91677	0.67329	0.67947	0.022
Mof_C 	C 	0.8845	0.65929	0.66225	0.066
Mof_C 	C 	0.86763	0.62944	0.67576	-0.129
Mof_H 	H 	0.8765	0.6186	0.6961	0.076
Mof_N 	N 	0.46194	0.18299	0.71473	-0.212
Mof_N 	N 	0.46194	0.20678	0.68789	-0.182
Mof_N 	N 	0.43492	0.20131	0.66623	-0.1
Mof_C 	C 	0.43388	0.16224	0.70986	0.008
Mof_H 	H 	0.427	0.1435	0.7244	0.004
Mof_C 	C 	0.41677	0.17329	0.67947	0.021
Mof_C 	C 	0.3845	0.15929	0.66225	0.064
Mof_C 	C 	0.36763	0.12944	0.67576	-0.129
Mof_H 	H 	0.3765	0.1186	0.6961	0.074
Mof_N 	N 	0.46194	0.68299	0.21473	-0.212
Mof_N 	N 	0.46194	0.70678	0.18789	-0.182
Mof_N 	N 	0.43492	0.70131	0.16623	-0.1
Mof_C 	C 	0.43388	0.66224	0.20986	0.008
Mof_H 	H 	0.427	0.6435	0.2244	0.005
Mof_C 	C 	0.41677	0.67329	0.17947	0.021
Mof_C 	C 	0.3845	0.65929	0.16225	0.064
Mof_C 	C 	0.36763	0.62944	0.17576	-0.129
Mof_H 	H 	0.3765	0.6186	0.1961	0.075
Mof_N 	N 	0.03806	0.81701	0.21473	-0.213
Mof_N 	N 	0.03806	0.79322	0.18789	-0.183
Mof_N 	N 	0.06508	0.79869	0.16623	-0.101
Mof_C 	C 	0.06612	0.83776	0.20986	0.007
Mof_H 	H 	0.073	0.8565	0.2244	0.005
Mof_C 	C 	0.08323	0.82671	0.17947	0.02
Mof_C 	C 	0.1155	0.84071	0.16225	0.064
Mof_C 	C 	0.13237	0.87056	0.17576	-0.129
Mof_H 	H 	0.1235	0.8814	0.1961	0.075
Mof_N 	N 	0.03806	0.31701	0.71473	-0.213
Mof_N 	N 	0.03806	0.29322	0.68789	-0.183
Mof_N 	N 	0.06508	0.29869	0.66623	-0.101
Mof_C 	C 	0.06612	0.33776	0.70986	0.007
Mof_H 	H 	0.073	0.3565	0.7244	0.004
Mof_C 	C 	0.08323	0.32671	0.67947	0.02
Mof_C 	C 	0.1155	0.34071	0.66225	0.064
Mof_C 	C 	0.13237	0.37056	0.67576	-0.129
Mof_H 	H 	0.1235	0.3814	0.6961	0.075
Mof_N 	N 	0.53806	0.81701	0.71473	-0.211
Mof_N 	N 	0.53806	0.79322	0.68789	-0.181
Mof_N 	N 	0.56508	0.79869	0.66623	-0.1
Mof_C 	C 	0.56612	0.83776	0.70986	0.008
Mof_H 	H 	0.573	0.8565	0.7244	0.006
Mof_C 	C 	0.58323	0.82671	0.67947	0.021
Mof_C 	C 	0.6155	0.84071	0.66225	0.066
Mof_C 	C 	0.63237	0.87056	0.67576	-0.129
Mof_H 	H 	0.6235	0.8814	0.6961	0.076
Mof_N 	N 	0.53806	0.31701	0.21473	-0.212
Mof_N 	N 	0.53806	0.29322	0.18789	-0.182
Mof_N 	N 	0.56508	0.29869	0.16623	-0.1
Mof_C 	C 	0.56612	0.33776	0.20986	0.008
Mof_H 	H 	0.573	0.3565	0.2244	0.005
Mof_C 	C 	0.58323	0.32671	0.17947	0.021
Mof_C 	C 	0.6155	0.34071	0.16225	0.064
Mof_C 	C 	0.63237	0.37056	0.17576	-0.129
Mof_H 	H 	0.6235	0.3814	0.1961	0.075
Mof_N 	N 	0.96194	0.81701	0.78527	-0.206
Mof_N 	N 	0.96194	0.79322	0.81211	-0.175
Mof_N 	N 	0.93492	0.79869	0.83377	-0.097
Mof_C 	C 	0.93388	0.83776	0.79014	0.009
Mof_H 	H 	0.927	0.8565	0.7756	0.008
Mof_C 	C 	0.91677	0.82671	0.82053	0.023
Mof_C 	C 	0.8845	0.84071	0.83775	0.067
Mof_C 	C 	0.86763	0.87056	0.82424	-0.129
Mof_H 	H 	0.8765	0.8814	0.8039	0.077
Mof_N 	N 	0.96194	0.31701	0.28527	-0.206
Mof_N 	N 	0.96194	0.29322	0.31211	-0.176
Mof_N 	N 	0.93492	0.29869	0.33377	-0.098
Mof_C 	C 	0.93388	0.33776	0.29014	0.009
Mof_H 	H 	0.927	0.3565	0.2756	0.007
Mof_C 	C 	0.91677	0.32671	0.32053	0.022
Mof_C 	C 	0.8845	0.34071	0.33775	0.066
Mof_C 	C 	0.86763	0.37056	0.32424	-0.129
Mof_H 	H 	0.8765	0.3814	0.3039	0.076
Mof_N 	N 	0.46194	0.81701	0.28527	-0.211
Mof_N 	N 	0.46194	0.79322	0.31211	-0.181
Mof_N 	N 	0.43492	0.79869	0.33377	-0.1
Mof_C 	C 	0.43388	0.83776	0.29014	0.008
Mof_H 	H 	0.427	0.8565	0.2756	0.006
Mof_C 	C 	0.41677	0.82671	0.32053	0.021
Mof_C 	C 	0.3845	0.84071	0.33775	0.066
Mof_C 	C 	0.36763	0.87056	0.32424	-0.129
Mof_H 	H 	0.3765	0.8814	0.3039	0.076
Mof_N 	N 	0.46194	0.31701	0.78527	-0.211
Mof_N 	N 	0.46194	0.29322	0.81211	-0.181
Mof_N 	N 	0.43492	0.29869	0.83377	-0.099
Mof_C 	C 	0.43388	0.33776	0.79014	0.008
Mof_H 	H 	0.427	0.3565	0.7756	0.005
Mof_C 	C 	0.41677	0.32671	0.82053	0.021
Mof_C 	C 	0.3845	0.34071	0.83775	0.066
Mof_C 	C 	0.36763	0.37056	0.82424	-0.129
Mof_H 	H 	0.3765	0.3814	0.8039	0.076
Mof_N 	N 	0.03806	0.18299	0.78527	-0.214
Mof_N 	N 	0.03806	0.20678	0.81211	-0.183
Mof_N 	N 	0.06508	0.20131	0.83377	-0.101
Mof_C 	C 	0.06612	0.16224	0.79014	0.007
Mof_H 	H 	0.073	0.1435	0.7756	0.003
Mof_C 	C 	0.08323	0.17329	0.82053	0.02
Mof_C 	C 	0.1155	0.15929	0.83775	0.064
Mof_C 	C 	0.13237	0.12944	0.82424	-0.129
Mof_H 	H 	0.1235	0.1186	0.8039	0.074
Mof_N 	N 	0.03806	0.68299	0.28527	-0.213
Mof_N 	N 	0.03806	0.70678	0.31211	-0.183
Mof_N 	N 	0.06508	0.70131	0.33377	-0.101
Mof_C 	C 	0.06612	0.66224	0.29014	0.007
Mof_H 	H 	0.073	0.6435	0.2756	0.004
Mof_C 	C 	0.08323	0.67329	0.32053	0.02
Mof_C 	C 	0.1155	0.65929	0.33775	0.064
Mof_C 	C 	0.13237	0.62944	0.32424	-0.129
Mof_H 	H 	0.1235	0.6186	0.3039	0.074
Mof_N 	N 	0.53806	0.18299	0.28527	-0.212
Mof_N 	N 	0.53806	0.20678	0.31211	-0.182
Mof_N 	N 	0.56508	0.20131	0.33377	-0.1
Mof_C 	C 	0.56612	0.16224	0.29014	0.008
Mof_H 	H 	0.573	0.1435	0.2756	0.004
Mof_C 	C 	0.58323	0.17329	0.32053	0.021
Mof_C 	C 	0.6155	0.15929	0.33775	0.064
Mof_C 	C 	0.63237	0.12944	0.32424	-0.129
Mof_H 	H 	0.6235	0.1186	0.3039	0.074
Mof_N 	N 	0.53806	0.68299	0.78527	-0.211
Mof_N 	N 	0.53806	0.70678	0.81211	-0.181
Mof_N 	N 	0.56508	0.70131	0.83377	-0.099
Mof_C 	C 	0.56612	0.66224	0.79014	0.008
Mof_H 	H 	0.573	0.6435	0.7756	0.005
Mof_C 	C 	0.58323	0.67329	0.82053	0.021
Mof_C 	C 	0.6155	0.65929	0.83775	0.066
Mof_C 	C 	0.63237	0.62944	0.82424	-0.129
Mof_H 	H 	0.6235	0.6186	0.8039	0.075
Mof_N 	N 	0.18299	0.78527	0.03806	-0.214
Mof_N 	N 	0.20678	0.81211	0.03806	-0.183
Mof_N 	N 	0.20131	0.83377	0.06508	-0.101
Mof_C 	C 	0.16224	0.79014	0.06612	0.007
Mof_H 	H 	0.1435	0.7756	0.073	0.003
Mof_C 	C 	0.17329	0.82053	0.08323	0.02
Mof_C 	C 	0.15929	0.83775	0.1155	0.064
Mof_C 	C 	0.12944	0.82424	0.13237	-0.129
Mof_H 	H 	0.1186	0.8039	0.1235	0.074
Mof_N 	N 	0.18299	0.28527	0.53806	-0.212
Mof_N 	N 	0.20678	0.31211	0.53806	-0.182
Mof_N 	N 	0.20131	0.33377	0.56508	-0.1
Mof_C 	C 	0.16224	0.29014	0.56612	0.008
Mof_H 	H 	0.1435	0.2756	0.573	0.004
Mof_C 	C 	0.17329	0.32053	0.58323	0.021
Mof_C 	C 	0.15929	0.33775	0.6155	0.064
Mof_C 	C 	0.12944	0.32424	0.63237	-0.129
Mof_H 	H 	0.1186	0.3039	0.6235	0.074
Mof_N 	N 	0.68299	0.78527	0.53806	-0.211
Mof_N 	N 	0.70678	0.81211	0.53806	-0.181
Mof_N 	N 	0.70131	0.83377	0.56508	-0.099
Mof_C 	C 	0.66224	0.79014	0.56612	0.008
Mof_H 	H 	0.6435	0.7756	0.573	0.005
Mof_C 	C 	0.67329	0.82053	0.58323	0.021
Mof_C 	C 	0.65929	0.83775	0.6155	0.066
Mof_C 	C 	0.62944	0.82424	0.63237	-0.129
Mof_H 	H 	0.6186	0.8039	0.6235	0.075
Mof_N 	N 	0.68299	0.28527	0.03806	-0.213
Mof_N 	N 	0.70678	0.31211	0.03806	-0.183
Mof_N 	N 	0.70131	0.33377	0.06508	-0.101
Mof_C 	C 	0.66224	0.29014	0.06612	0.007
Mof_H 	H 	0.6435	0.2756	0.073	0.004
Mof_C 	C 	0.67329	0.32053	0.08323	0.02
Mof_C 	C 	0.65929	0.33775	0.1155	0.064
Mof_C 	C 	0.62944	0.32424	0.13237	-0.129
Mof_H 	H 	0.6186	0.3039	0.1235	0.074
Mof_N 	N 	0.81701	0.78527	0.96194	-0.206
Mof_N 	N 	0.79322	0.81211	0.96194	-0.175
Mof_N 	N 	0.79869	0.83377	0.93492	-0.097
Mof_C 	C 	0.83776	0.79014	0.93388	0.009
Mof_H 	H 	0.8565	0.7756	0.927	0.008
Mof_C 	C 	0.82671	0.82053	0.91677	0.023
Mof_C 	C 	0.84071	0.83775	0.8845	0.067
Mof_C 	C 	0.87056	0.82424	0.86763	-0.129
Mof_H 	H 	0.8814	0.8039	0.8765	0.077
Mof_N 	N 	0.81701	0.28527	0.46194	-0.211
Mof_N 	N 	0.79322	0.31211	0.46194	-0.181
Mof_N 	N 	0.79869	0.33377	0.43492	-0.1
Mof_C 	C 	0.83776	0.29014	0.43388	0.008
Mof_H 	H 	0.8565	0.2756	0.427	0.006
Mof_C 	C 	0.82671	0.32053	0.41677	0.021
Mof_C 	C 	0.84071	0.33775	0.3845	0.066
Mof_C 	C 	0.87056	0.32424	0.36763	-0.129
Mof_H 	H 	0.8814	0.3039	0.3765	0.076
Mof_N 	N 	0.31701	0.78527	0.46194	-0.211
Mof_N 	N 	0.29322	0.81211	0.46194	-0.181
Mof_N 	N 	0.29869	0.83377	0.43492	-0.099
Mof_C 	C 	0.33776	0.79014	0.43388	0.008
Mof_H 	H 	0.3565	0.7756	0.427	0.005
Mof_C 	C 	0.32671	0.82053	0.41677	0.021
Mof_C 	C 	0.34071	0.83775	0.3845	0.066
Mof_C 	C 	0.37056	0.82424	0.36763	-0.129
Mof_H 	H 	0.3814	0.8039	0.3765	0.076
Mof_N 	N 	0.31701	0.28527	0.96194	-0.206
Mof_N 	N 	0.29322	0.31211	0.96194	-0.176
Mof_N 	N 	0.29869	0.33377	0.93492	-0.098
Mof_C 	C 	0.33776	0.29014	0.93388	0.009
Mof_H 	H 	0.3565	0.2756	0.927	0.007
Mof_C 	C 	0.32671	0.32053	0.91677	0.022
Mof_C 	C 	0.34071	0.33775	0.8845	0.066
Mof_C 	C 	0.37056	0.32424	0.86763	-0.129
Mof_H 	H 	0.3814	0.3039	0.8765	0.076
Mof_N 	N 	0.81701	0.21473	0.03806	-0.213
Mof_N 	N 	0.79322	0.18789	0.03806	-0.183
Mof_N 	N 	0.79869	0.16623	0.06508	-0.101
Mof_C 	C 	0.83776	0.20986	0.06612	0.007
Mof_H 	H 	0.8565	0.2244	0.073	0.005
Mof_C 	C 	0.82671	0.17947	0.08323	0.02
Mof_C 	C 	0.84071	0.16225	0.1155	0.064
Mof_C 	C 	0.87056	0.17576	0.13237	-0.129
Mof_H 	H 	0.8814	0.1961	0.1235	0.075
Mof_N 	N 	0.81701	0.71473	0.53806	-0.211
Mof_N 	N 	0.79322	0.68789	0.53806	-0.181
Mof_N 	N 	0.79869	0.66623	0.56508	-0.1
Mof_C 	C 	0.83776	0.70986	0.56612	0.008
Mof_H 	H 	0.8565	0.7244	0.573	0.006
Mof_C 	C 	0.82671	0.67947	0.58323	0.021
Mof_C 	C 	0.84071	0.66225	0.6155	0.066
Mof_C 	C 	0.87056	0.67576	0.63237	-0.129
Mof_H 	H 	0.8814	0.6961	0.6235	0.076
Mof_N 	N 	0.31701	0.21473	0.53806	-0.212
Mof_N 	N 	0.29322	0.18789	0.53806	-0.182
Mof_N 	N 	0.29869	0.16623	0.56508	-0.1
Mof_C 	C 	0.33776	0.20986	0.56612	0.008
Mof_H 	H 	0.3565	0.2244	0.573	0.005
Mof_C 	C 	0.32671	0.17947	0.58323	0.021
Mof_C 	C 	0.34071	0.16225	0.6155	0.064
Mof_C 	C 	0.37056	0.17576	0.63237	-0.129
Mof_H 	H 	0.3814	0.1961	0.6235	0.075
Mof_N 	N 	0.31701	0.71473	0.03806	-0.213
Mof_N 	N 	0.29322	0.68789	0.03806	-0.183
Mof_N 	N 	0.29869	0.66623	0.06508	-0.101
Mof_C 	C 	0.33776	0.70986	0.06612	0.007
Mof_H 	H 	0.3565	0.7244	0.073	0.004
Mof_C 	C 	0.32671	0.67947	0.08323	0.02
Mof_C 	C 	0.34071	0.66225	0.1155	0.064
Mof_C 	C 	0.37056	0.67576	0.13237	-0.129
Mof_H 	H 	0.3814	0.6961	0.1235	0.075
Mof_N 	N 	0.18299	0.21473	0.96194	-0.206
Mof_N 	N 	0.20678	0.18789	0.96194	-0.176
Mof_N 	N 	0.20131	0.16623	0.93492	-0.099
Mof_C 	C 	0.16224	0.20986	0.93388	0.009
Mof_H 	H 	0.1435	0.2244	0.927	0.006
Mof_C 	C 	0.17329	0.17947	0.91677	0.022
Mof_C 	C 	0.15929	0.16225	0.8845	0.065
Mof_C 	C 	0.12944	0.17576	0.86763	-0.129
Mof_H 	H 	0.1186	0.1961	0.8765	0.075
Mof_N 	N 	0.18299	0.71473	0.46194	-0.212
Mof_N 	N 	0.20678	0.68789	0.46194	-0.182
Mof_N 	N 	0.20131	0.66623	0.43492	-0.1
Mof_C 	C 	0.16224	0.70986	0.43388	0.008
Mof_H 	H 	0.1435	0.7244	0.427	0.004
Mof_C 	C 	0.17329	0.67947	0.41677	0.021
Mof_C 	C 	0.15929	0.66225	0.3845	0.064
Mof_C 	C 	0.12944	0.67576	0.36763	-0.129
Mof_H 	H 	0.1186	0.6961	0.3765	0.074
Mof_N 	N 	0.68299	0.21473	0.46194	-0.212
Mof_N 	N 	0.70678	0.18789	0.46194	-0.182
Mof_N 	N 	0.70131	0.16623	0.43492	-0.1
Mof_C 	C 	0.66224	0.20986	0.43388	0.008
Mof_H 	H 	0.6435	0.2244	0.427	0.005
Mof_C 	C 	0.67329	0.17947	0.41677	0.021
Mof_C 	C 	0.65929	0.16225	0.3845	0.064
Mof_C 	C 	0.62944	0.17576	0.36763	-0.129
Mof_H 	H 	0.6186	0.1961	0.3765	0.075
Mof_N 	N 	0.68299	0.71473	0.96194	-0.206
Mof_N 	N 	0.70678	0.68789	0.96194	-0.176
Mof_N 	N 	0.70131	0.66623	0.93492	-0.098
Mof_C 	C 	0.66224	0.70986	0.93388	0.009
Mof_H 	H 	0.6435	0.7244	0.927	0.007
Mof_C 	C 	0.67329	0.67947	0.91677	0.022
Mof_C 	C 	0.65929	0.66225	0.8845	0.066
Mof_C 	C 	0.62944	0.67576	0.86763	-0.129
Mof_H 	H 	0.6186	0.6961	0.8765	0.076
Mof_N 	N 	0.78527	0.96194	0.81701	-0.206
Mof_N 	N 	0.81211	0.96194	0.79322	-0.175
Mof_N 	N 	0.83377	0.93492	0.79869	-0.097
Mof_C 	C 	0.79014	0.93388	0.83776	0.009
Mof_H 	H 	0.7756	0.927	0.8565	0.008
Mof_C 	C 	0.82053	0.91677	0.82671	0.023
Mof_C 	C 	0.83775	0.8845	0.84071	0.067
Mof_C 	C 	0.82424	0.86763	0.87056	-0.129
Mof_H 	H 	0.8039	0.8765	0.8814	0.077
Mof_N 	N 	0.78527	0.46194	0.31701	-0.211
Mof_N 	N 	0.81211	0.46194	0.29322	-0.181
Mof_N 	N 	0.83377	0.43492	0.29869	-0.099
Mof_C 	C 	0.79014	0.43388	0.33776	0.008
Mof_H 	H 	0.7756	0.427	0.3565	0.005
Mof_C 	C 	0.82053	0.41677	0.32671	0.021
Mof_C 	C 	0.83775	0.3845	0.34071	0.066
Mof_C 	C 	0.82424	0.36763	0.37056	-0.129
Mof_H 	H 	0.8039	0.3765	0.3814	0.076
Mof_N 	N 	0.28527	0.96194	0.31701	-0.206
Mof_N 	N 	0.31211	0.96194	0.29322	-0.176
Mof_N 	N 	0.33377	0.93492	0.29869	-0.098
Mof_C 	C 	0.29014	0.93388	0.33776	0.009
Mof_H 	H 	0.2756	0.927	0.3565	0.007
Mof_C 	C 	0.32053	0.91677	0.32671	0.022
Mof_C 	C 	0.33775	0.8845	0.34071	0.066
Mof_C 	C 	0.32424	0.86763	0.37056	-0.129
Mof_H 	H 	0.3039	0.8765	0.3814	0.076
Mof_N 	N 	0.28527	0.46194	0.81701	-0.211
Mof_N 	N 	0.31211	0.46194	0.79322	-0.181
Mof_N 	N 	0.33377	0.43492	0.79869	-0.1
Mof_C 	C 	0.29014	0.43388	0.83776	0.008
Mof_H 	H 	0.2756	0.427	0.8565	0.006
Mof_C 	C 	0.32053	0.41677	0.82671	0.021
Mof_C 	C 	0.33775	0.3845	0.84071	0.066
Mof_C 	C 	0.32424	0.36763	0.87056	-0.129
Mof_H 	H 	0.3039	0.3765	0.8814	0.076
Mof_N 	N 	0.78527	0.03806	0.18299	-0.214
Mof_N 	N 	0.81211	0.03806	0.20678	-0.183
Mof_N 	N 	0.83377	0.06508	0.20131	-0.101
Mof_C 	C 	0.79014	0.06612	0.16224	0.007
Mof_H 	H 	0.7756	0.073	0.1435	0.003
Mof_C 	C 	0.82053	0.08323	0.17329	0.02
Mof_C 	C 	0.83775	0.1155	0.15929	0.064
Mof_C 	C 	0.82424	0.13237	0.12944	-0.129
Mof_H 	H 	0.8039	0.1235	0.1186	0.074
Mof_N 	N 	0.78527	0.53806	0.68299	-0.211
Mof_N 	N 	0.81211	0.53806	0.70678	-0.181
Mof_N 	N 	0.83377	0.56508	0.70131	-0.099
Mof_C 	C 	0.79014	0.56612	0.66224	0.008
Mof_H 	H 	0.7756	0.573	0.6435	0.005
Mof_C 	C 	0.82053	0.58323	0.67329	0.021
Mof_C 	C 	0.83775	0.6155	0.65929	0.066
Mof_C 	C 	0.82424	0.63237	0.62944	-0.129
Mof_H 	H 	0.8039	0.6235	0.6186	0.075
Mof_N 	N 	0.28527	0.03806	0.68299	-0.213
Mof_N 	N 	0.31211	0.03806	0.70678	-0.183
Mof_N 	N 	0.33377	0.06508	0.70131	-0.101
Mof_C 	C 	0.29014	0.06612	0.66224	0.007
Mof_H 	H 	0.2756	0.073	0.6435	0.004
Mof_C 	C 	0.32053	0.08323	0.67329	0.02
Mof_C 	C 	0.33775	0.1155	0.65929	0.064
Mof_C 	C 	0.32424	0.13237	0.62944	-0.129
Mof_H 	H 	0.3039	0.1235	0.6186	0.074
Mof_N 	N 	0.28527	0.53806	0.18299	-0.212
Mof_N 	N 	0.31211	0.53806	0.20678	-0.182
Mof_N 	N 	0.33377	0.56508	0.20131	-0.1
Mof_C 	C 	0.29014	0.56612	0.16224	0.008
Mof_H 	H 	0.2756	0.573	0.1435	0.004
Mof_C 	C 	0.32053	0.58323	0.17329	0.021
Mof_C 	C 	0.33775	0.6155	0.15929	0.064
Mof_C 	C 	0.32424	0.63237	0.12944	-0.129
Mof_H 	H 	0.3039	0.6235	0.1186	0.074
Mof_N 	N 	0.21473	0.96194	0.18299	-0.206
Mof_N 	N 	0.18789	0.96194	0.20678	-0.176
Mof_N 	N 	0.16623	0.93492	0.20131	-0.099
Mof_C 	C 	0.20986	0.93388	0.16224	0.009
Mof_H 	H 	0.2244	0.927	0.1435	0.006
Mof_C 	C 	0.17947	0.91677	0.17329	0.022
Mof_C 	C 	0.16225	0.8845	0.15929	0.065
Mof_C 	C 	0.17576	0.86763	0.12944	-0.129
Mof_H 	H 	0.1961	0.8765	0.1186	0.075
Mof_N 	N 	0.21473	0.46194	0.68299	-0.212
Mof_N 	N 	0.18789	0.46194	0.70678	-0.182
Mof_N 	N 	0.16623	0.43492	0.70131	-0.1
Mof_C 	C 	0.20986	0.43388	0.66224	0.008
Mof_H 	H 	0.2244	0.427	0.6435	0.005
Mof_C 	C 	0.17947	0.41677	0.67329	0.021
Mof_C 	C 	0.16225	0.3845	0.65929	0.064
Mof_C 	C 	0.17576	0.36763	0.62944	-0.129
Mof_H 	H 	0.1961	0.3765	0.6186	0.075
Mof_N 	N 	0.71473	0.96194	0.68299	-0.206
Mof_N 	N 	0.68789	0.96194	0.70678	-0.176
Mof_N 	N 	0.66623	0.93492	0.70131	-0.098
Mof_C 	C 	0.70986	0.93388	0.66224	0.009
Mof_H 	H 	0.7244	0.927	0.6435	0.007
Mof_C 	C 	0.67947	0.91677	0.67329	0.022
Mof_C 	C 	0.66225	0.8845	0.65929	0.066
Mof_C 	C 	0.67576	0.86763	0.62944	-0.129
Mof_H 	H 	0.6961	0.8765	0.6186	0.076
Mof_N 	N 	0.71473	0.46194	0.18299	-0.212
Mof_N 	N 	0.68789	0.46194	0.20678	-0.182
Mof_N 	N 	0.66623	0.43492	0.20131	-0.1
Mof_C 	C 	0.70986	0.43388	0.16224	0.008
Mof_H 	H 	0.7244	0.427	0.1435	0.004
Mof_C 	C 	0.67947	0.41677	0.17329	0.021
Mof_C 	C 	0.66225	0.3845	0.15929	0.064
Mof_C 	C 	0.67576	0.36763	0.12944	-0.129
Mof_H 	H 	0.6961	0.3765	0.1186	0.074
Mof_N 	N 	0.21473	0.03806	0.81701	-0.213
Mof_N 	N 	0.18789	0.03806	0.79322	-0.183
Mof_N 	N 	0.16623	0.06508	0.79869	-0.101
Mof_C 	C 	0.20986	0.06612	0.83776	0.007
Mof_H 	H 	0.2244	0.073	0.8565	0.005
Mof_C 	C 	0.17947	0.08323	0.82671	0.02
Mof_C 	C 	0.16225	0.1155	0.84071	0.064
Mof_C 	C 	0.17576	0.13237	0.87056	-0.129
Mof_H 	H 	0.1961	0.1235	0.8814	0.075
Mof_N 	N 	0.21473	0.53806	0.31701	-0.212
Mof_N 	N 	0.18789	0.53806	0.29322	-0.182
Mof_N 	N 	0.16623	0.56508	0.29869	-0.1
Mof_C 	C 	0.20986	0.56612	0.33776	0.008
Mof_H 	H 	0.2244	0.573	0.3565	0.005
Mof_C 	C 	0.17947	0.58323	0.32671	0.021
Mof_C 	C 	0.16225	0.6155	0.34071	0.064
Mof_C 	C 	0.17576	0.63237	0.37056	-0.129
Mof_H 	H 	0.1961	0.6235	0.3814	0.075
Mof_N 	N 	0.71473	0.03806	0.31701	-0.213
Mof_N 	N 	0.68789	0.03806	0.29322	-0.183
Mof_N 	N 	0.66623	0.06508	0.29869	-0.101
Mof_C 	C 	0.70986	0.06612	0.33776	0.007
Mof_H 	H 	0.7244	0.073	0.3565	0.004
Mof_C 	C 	0.67947	0.08323	0.32671	0.02
Mof_C 	C 	0.66225	0.1155	0.34071	0.064
Mof_C 	C 	0.67576	0.13237	0.37056	-0.129
Mof_H 	H 	0.6961	0.1235	0.3814	0.075
Mof_N 	N 	0.71473	0.53806	0.81701	-0.211
Mof_N 	N 	0.68789	0.53806	0.79322	-0.181
Mof_N 	N 	0.66623	0.56508	0.79869	-0.1
Mof_C 	C 	0.70986	0.56612	0.83776	0.008
Mof_H 	H 	0.7244	0.573	0.8565	0.006
Mof_C 	C 	0.67947	0.58323	0.82671	0.021
Mof_C 	C 	0.66225	0.6155	0.84071	0.066
Mof_C 	C 	0.67576	0.63237	0.87056	-0.129
Mof_H 	H 	0.6961	0.6235	0.8814	0.076
Mof_N 	N 	0.31701	0.53806	0.71473	-0.211
Mof_N 	N 	0.29322	0.53806	0.68789	-0.181
Mof_N 	N 	0.29869	0.56508	0.66623	-0.1
Mof_C 	C 	0.33776	0.56612	0.70986	0.008
Mof_H 	H 	0.3565	0.573	0.7244	0.005
Mof_C 	C 	0.32671	0.58323	0.67947	0.021
Mof_C 	C 	0.34071	0.6155	0.66225	0.065
Mof_C 	C 	0.37056	0.63237	0.67576	-0.129
Mof_H 	H 	0.3814	0.6235	0.6961	0.075
Mof_N 	N 	0.31701	0.03806	0.21473	-0.213
Mof_N 	N 	0.29322	0.03806	0.18789	-0.184
Mof_N 	N 	0.29869	0.06508	0.16623	-0.101
Mof_C 	C 	0.33776	0.06612	0.20986	0.007
Mof_H 	H 	0.3565	0.073	0.2244	0.004
Mof_C 	C 	0.32671	0.08323	0.17947	0.02
Mof_C 	C 	0.34071	0.1155	0.16225	0.063
Mof_C 	C 	0.37056	0.13237	0.17576	-0.129
Mof_H 	H 	0.3814	0.1235	0.1961	0.074
Mof_N 	N 	0.81701	0.53806	0.21473	-0.211
Mof_N 	N 	0.79322	0.53806	0.18789	-0.182
Mof_N 	N 	0.79869	0.56508	0.16623	-0.1
Mof_C 	C 	0.83776	0.56612	0.20986	0.008
Mof_H 	H 	0.8565	0.573	0.2244	0.006
Mof_C 	C 	0.82671	0.58323	0.17947	0.021
Mof_C 	C 	0.84071	0.6155	0.16225	0.065
Mof_C 	C 	0.87056	0.63237	0.17576	-0.129
Mof_H 	H 	0.8814	0.6235	0.1961	0.076
Mof_N 	N 	0.81701	0.03806	0.71473	-0.213
Mof_N 	N 	0.79322	0.03806	0.68789	-0.183
Mof_N 	N 	0.79869	0.06508	0.66623	-0.101
Mof_C 	C 	0.83776	0.06612	0.70986	0.007
Mof_H 	H 	0.8565	0.073	0.7244	0.005
Mof_C 	C 	0.82671	0.08323	0.67947	0.021
Mof_C 	C 	0.84071	0.1155	0.66225	0.065
Mof_C 	C 	0.87056	0.13237	0.67576	-0.129
Mof_H 	H 	0.8814	0.1235	0.6961	0.076
Mof_N 	N 	0.68299	0.46194	0.71473	-0.212
Mof_N 	N 	0.70678	0.46194	0.68789	-0.181
Mof_N 	N 	0.70131	0.43492	0.66623	-0.1
Mof_C 	C 	0.66224	0.43388	0.70986	0.008
Mof_H 	H 	0.6435	0.427	0.7244	0.005
Mof_C 	C 	0.67329	0.41677	0.67947	0.021
Mof_C 	C 	0.65929	0.3845	0.66225	0.065
Mof_C 	C 	0.62944	0.36763	0.67576	-0.129
Mof_H 	H 	0.6186	0.3765	0.6961	0.075
Mof_N 	N 	0.68299	0.96194	0.21473	-0.206
Mof_N 	N 	0.70678	0.96194	0.18789	-0.176
Mof_N 	N 	0.70131	0.93492	0.16623	-0.099
Mof_C 	C 	0.66224	0.93388	0.20986	0.009
Mof_H 	H 	0.6435	0.927	0.2244	0.007
Mof_C 	C 	0.67329	0.91677	0.17947	0.022
Mof_C 	C 	0.65929	0.8845	0.16225	0.065
Mof_C 	C 	0.62944	0.86763	0.17576	-0.129
Mof_H 	H 	0.6186	0.8765	0.1961	0.076
Mof_N 	N 	0.18299	0.46194	0.21473	-0.212
Mof_N 	N 	0.20678	0.46194	0.18789	-0.182
Mof_N 	N 	0.20131	0.43492	0.16623	-0.1
Mof_C 	C 	0.16224	0.43388	0.20986	0.008
Mof_H 	H 	0.1435	0.427	0.2244	0.004
Mof_C 	C 	0.17329	0.41677	0.17947	0.021
Mof_C 	C 	0.15929	0.3845	0.16225	0.064
Mof_C 	C 	0.12944	0.36763	0.17576	-0.129
Mof_H 	H 	0.1186	0.3765	0.1961	0.074
Mof_N 	N 	0.18299	0.96194	0.71473	-0.206
Mof_N 	N 	0.20678	0.96194	0.68789	-0.176
Mof_N 	N 	0.20131	0.93492	0.66623	-0.098
Mof_C 	C 	0.16224	0.93388	0.70986	0.009
Mof_H 	H 	0.1435	0.927	0.7244	0.006
Mof_C 	C 	0.17329	0.91677	0.67947	0.022
Mof_C 	C 	0.15929	0.8845	0.66225	0.065
Mof_C 	C 	0.12944	0.86763	0.67576	-0.129
Mof_H 	H 	0.1186	0.8765	0.6961	0.075
Mof_N 	N 	0.68299	0.53806	0.28527	-0.212
Mof_N 	N 	0.70678	0.53806	0.31211	-0.181
Mof_N 	N 	0.70131	0.56508	0.33377	-0.1
Mof_C 	C 	0.66224	0.56612	0.29014	0.008
Mof_H 	H 	0.6435	0.573	0.2756	0.005
Mof_C 	C 	0.67329	0.58323	0.32053	0.021
Mof_C 	C 	0.65929	0.6155	0.33775	0.065
Mof_C 	C 	0.62944	0.63237	0.32424	-0.129
Mof_H 	H 	0.6186	0.6235	0.3039	0.075
Mof_N 	N 	0.68299	0.03806	0.78527	-0.213
Mof_N 	N 	0.70678	0.03806	0.81211	-0.183
Mof_N 	N 	0.70131	0.06508	0.83377	-0.1
Mof_C 	C 	0.66224	0.06612	0.79014	0.007
Mof_H 	H 	0.6435	0.073	0.7756	0.004
Mof_C 	C 	0.67329	0.08323	0.82053	0.02
Mof_C 	C 	0.65929	0.1155	0.83775	0.065
Mof_C 	C 	0.62944	0.13237	0.82424	-0.129
Mof_H 	H 	0.6186	0.1235	0.8039	0.075
Mof_N 	N 	0.18299	0.53806	0.78527	-0.212
Mof_N 	N 	0.20678	0.53806	0.81211	-0.181
Mof_N 	N 	0.20131	0.56508	0.83377	-0.099
Mof_C 	C 	0.16224	0.56612	0.79014	0.008
Mof_H 	H 	0.1435	0.573	0.7756	0.004
Mof_C 	C 	0.17329	0.58323	0.82053	0.021
Mof_C 	C 	0.15929	0.6155	0.83775	0.065
Mof_C 	C 	0.12944	0.63237	0.82424	-0.129
Mof_H 	H 	0.1186	0.6235	0.8039	0.075
Mof_N 	N 	0.18299	0.03806	0.28527	-0.214
Mof_N 	N 	0.20678	0.03806	0.31211	-0.183
Mof_N 	N 	0.20131	0.06508	0.33377	-0.101
Mof_C 	C 	0.16224	0.06612	0.29014	0.007
Mof_H 	H 	0.1435	0.073	0.2756	0.003
Mof_C 	C 	0.17329	0.08323	0.32053	0.02
Mof_C 	C 	0.15929	0.1155	0.33775	0.063
Mof_C 	C 	0.12944	0.13237	0.32424	-0.129
Mof_H 	H 	0.1186	0.1235	0.3039	0.074
Mof_N 	N 	0.31701	0.46194	0.28527	-0.211
Mof_N 	N 	0.29322	0.46194	0.31211	-0.181
Mof_N 	N 	0.29869	0.43492	0.33377	-0.1
Mof_C 	C 	0.33776	0.43388	0.29014	0.008
Mof_H 	H 	0.3565	0.427	0.2756	0.005
Mof_C 	C 	0.32671	0.41677	0.32053	0.021
Mof_C 	C 	0.34071	0.3845	0.33775	0.065
Mof_C 	C 	0.37056	0.36763	0.32424	-0.129
Mof_H 	H 	0.3814	0.3765	0.3039	0.075
Mof_N 	N 	0.31701	0.96194	0.78527	-0.206
Mof_N 	N 	0.29322	0.96194	0.81211	-0.176
Mof_N 	N 	0.29869	0.93492	0.83377	-0.098
Mof_C 	C 	0.33776	0.93388	0.79014	0.009
Mof_H 	H 	0.3565	0.927	0.7756	0.007
Mof_C 	C 	0.32671	0.91677	0.82053	0.022
Mof_C 	C 	0.34071	0.8845	0.83775	0.067
Mof_C 	C 	0.37056	0.86763	0.82424	-0.129
Mof_H 	H 	0.3814	0.8765	0.8039	0.076
Mof_N 	N 	0.81701	0.46194	0.78527	-0.211
Mof_N 	N 	0.79322	0.46194	0.81211	-0.181
Mof_N 	N 	0.79869	0.43492	0.83377	-0.099
Mof_C 	C 	0.83776	0.43388	0.79014	0.009
Mof_H 	H 	0.8565	0.427	0.7756	0.006
Mof_C 	C 	0.82671	0.41677	0.82053	0.022
Mof_C 	C 	0.84071	0.3845	0.83775	0.066
Mof_C 	C 	0.87056	0.36763	0.82424	-0.129
Mof_H 	H 	0.8814	0.3765	0.8039	0.076
Mof_N 	N 	0.81701	0.96194	0.28527	-0.206
Mof_N 	N 	0.79322	0.96194	0.31211	-0.176
Mof_N 	N 	0.79869	0.93492	0.33377	-0.098
Mof_C 	C 	0.83776	0.93388	0.29014	0.009
Mof_H 	H 	0.8565	0.927	0.2756	0.008
Mof_C 	C 	0.82671	0.91677	0.32053	0.023
Mof_C 	C 	0.84071	0.8845	0.33775	0.067
Mof_C 	C 	0.87056	0.86763	0.32424	-0.129
Mof_H 	H 	0.8814	0.8765	0.3039	0.077
Mof_N 	N 	0.71473	0.31701	0.53806	-0.211
Mof_N 	N 	0.68789	0.29322	0.53806	-0.181
Mof_N 	N 	0.66623	0.29869	0.56508	-0.1
Mof_C 	C 	0.70986	0.33776	0.56612	0.008
Mof_H 	H 	0.7244	0.3565	0.573	0.005
Mof_C 	C 	0.67947	0.32671	0.58323	0.021
Mof_C 	C 	0.66225	0.34071	0.6155	0.065
Mof_C 	C 	0.67576	0.37056	0.63237	-0.129
Mof_H 	H 	0.6961	0.3814	0.6235	0.075
Mof_N 	N 	0.71473	0.81701	0.03806	-0.213
Mof_N 	N 	0.68789	0.79322	0.03806	-0.183
Mof_N 	N 	0.66623	0.79869	0.06508	-0.101
Mof_C 	C 	0.70986	0.83776	0.06612	0.007
Mof_H 	H 	0.7244	0.8565	0.073	0.005
Mof_C 	C 	0.67947	0.82671	0.08323	0.021
Mof_C 	C 	0.66225	0.84071	0.1155	0.065
Mof_C 	C 	0.67576	0.87056	0.13237	-0.129
Mof_H 	H 	0.6961	0.8814	0.1235	0.076
Mof_N 	N 	0.21473	0.31701	0.03806	-0.213
Mof_N 	N 	0.18789	0.29322	0.03806	-0.184
Mof_N 	N 	0.16623	0.29869	0.06508	-0.101
Mof_C 	C 	0.20986	0.33776	0.06612	0.007
Mof_H 	H 	0.2244	0.3565	0.073	0.004
Mof_C 	C 	0.17947	0.32671	0.08323	0.02
Mof_C 	C 	0.16225	0.34071	0.1155	0.063
Mof_C 	C 	0.17576	0.37056	0.13237	-0.129
Mof_H 	H 	0.1961	0.3814	0.1235	0.074
Mof_N 	N 	0.21473	0.81701	0.53806	-0.211
Mof_N 	N 	0.18789	0.79322	0.53806	-0.182
Mof_N 	N 	0.16623	0.79869	0.56508	-0.1
Mof_C 	C 	0.20986	0.83776	0.56612	0.008
Mof_H 	H 	0.2244	0.8565	0.573	0.006
Mof_C 	C 	0.17947	0.82671	0.58323	0.021
Mof_C 	C 	0.16225	0.84071	0.6155	0.065
Mof_C 	C 	0.17576	0.87056	0.63237	-0.129
Mof_H 	H 	0.1961	0.8814	0.6235	0.076
Mof_N 	N 	0.71473	0.68299	0.46194	-0.212
Mof_N 	N 	0.68789	0.70678	0.46194	-0.181
Mof_N 	N 	0.66623	0.70131	0.43492	-0.1
Mof_C 	C 	0.70986	0.66224	0.43388	0.008
Mof_H 	H 	0.7244	0.6435	0.427	0.005
Mof_C 	C 	0.67947	0.67329	0.41677	0.021
Mof_C 	C 	0.66225	0.65929	0.3845	0.065
Mof_C 	C 	0.67576	0.62944	0.36763	-0.129
Mof_H 	H 	0.6961	0.6186	0.3765	0.075
Mof_N 	N 	0.71473	0.18299	0.96194	-0.206
Mof_N 	N 	0.68789	0.20678	0.96194	-0.176
Mof_N 	N 	0.66623	0.20131	0.93492	-0.098
Mof_C 	C 	0.70986	0.16224	0.93388	0.009
Mof_H 	H 	0.7244	0.1435	0.927	0.006
Mof_C 	C 	0.67947	0.17329	0.91677	0.022
Mof_C 	C 	0.66225	0.15929	0.8845	0.065
Mof_C 	C 	0.67576	0.12944	0.86763	-0.129
Mof_H 	H 	0.6961	0.1186	0.8765	0.075
Mof_N 	N 	0.21473	0.68299	0.96194	-0.206
Mof_N 	N 	0.18789	0.70678	0.96194	-0.176
Mof_N 	N 	0.16623	0.70131	0.93492	-0.099
Mof_C 	C 	0.20986	0.66224	0.93388	0.009
Mof_H 	H 	0.2244	0.6435	0.927	0.007
Mof_C 	C 	0.17947	0.67329	0.91677	0.022
Mof_C 	C 	0.16225	0.65929	0.8845	0.065
Mof_C 	C 	0.17576	0.62944	0.86763	-0.129
Mof_H 	H 	0.1961	0.6186	0.8765	0.076
Mof_N 	N 	0.21473	0.18299	0.46194	-0.212
Mof_N 	N 	0.18789	0.20678	0.46194	-0.182
Mof_N 	N 	0.16623	0.20131	0.43492	-0.1
Mof_C 	C 	0.20986	0.16224	0.43388	0.008
Mof_H 	H 	0.2244	0.1435	0.427	0.004
Mof_C 	C 	0.17947	0.17329	0.41677	0.021
Mof_C 	C 	0.16225	0.15929	0.3845	0.064
Mof_C 	C 	0.17576	0.12944	0.36763	-0.129
Mof_H 	H 	0.1961	0.1186	0.3765	0.074
Mof_N 	N 	0.28527	0.68299	0.53806	-0.212
Mof_N 	N 	0.31211	0.70678	0.53806	-0.181
Mof_N 	N 	0.33377	0.70131	0.56508	-0.1
Mof_C 	C 	0.29014	0.66224	0.56612	0.008
Mof_H 	H 	0.2756	0.6435	0.573	0.005
Mof_C 	C 	0.32053	0.67329	0.58323	0.021
Mof_C 	C 	0.33775	0.65929	0.6155	0.065
Mof_C 	C 	0.32424	0.62944	0.63237	-0.129
Mof_H 	H 	0.3039	0.6186	0.6235	0.075
Mof_N 	N 	0.28527	0.18299	0.03806	-0.214
Mof_N 	N 	0.31211	0.20678	0.03806	-0.183
Mof_N 	N 	0.33377	0.20131	0.06508	-0.101
Mof_C 	C 	0.29014	0.16224	0.06612	0.007
Mof_H 	H 	0.2756	0.1435	0.073	0.003
Mof_C 	C 	0.32053	0.17329	0.08323	0.02
Mof_C 	C 	0.33775	0.15929	0.1155	0.063
Mof_C 	C 	0.32424	0.12944	0.13237	-0.129
Mof_H 	H 	0.3039	0.1186	0.1235	0.074
Mof_N 	N 	0.78527	0.68299	0.03806	-0.213
Mof_N 	N 	0.81211	0.70678	0.03806	-0.183
Mof_N 	N 	0.83377	0.70131	0.06508	-0.1
Mof_C 	C 	0.79014	0.66224	0.06612	0.007
Mof_H 	H 	0.7756	0.6435	0.073	0.004
Mof_C 	C 	0.82053	0.67329	0.08323	0.02
Mof_C 	C 	0.83775	0.65929	0.1155	0.065
Mof_C 	C 	0.82424	0.62944	0.13237	-0.129
Mof_H 	H 	0.8039	0.6186	0.1235	0.075
Mof_N 	N 	0.78527	0.18299	0.53806	-0.212
Mof_N 	N 	0.81211	0.20678	0.53806	-0.181
Mof_N 	N 	0.83377	0.20131	0.56508	-0.099
Mof_C 	C 	0.79014	0.16224	0.56612	0.008
Mof_H 	H 	0.7756	0.1435	0.573	0.004
Mof_C 	C 	0.82053	0.17329	0.58323	0.021
Mof_C 	C 	0.83775	0.15929	0.6155	0.065
Mof_C 	C 	0.82424	0.12944	0.63237	-0.129
Mof_H 	H 	0.8039	0.1186	0.6235	0.075
Mof_N 	N 	0.28527	0.31701	0.46194	-0.211
Mof_N 	N 	0.31211	0.29322	0.46194	-0.181
Mof_N 	N 	0.33377	0.29869	0.43492	-0.1
Mof_C 	C 	0.29014	0.33776	0.43388	0.008
Mof_H 	H 	0.2756	0.3565	0.427	0.005
Mof_C 	C 	0.32053	0.32671	0.41677	0.021
Mof_C 	C 	0.33775	0.34071	0.3845	0.065
Mof_C 	C 	0.32424	0.37056	0.36763	-0.129
Mof_H 	H 	0.3039	0.3814	0.3765	0.075
Mof_N 	N 	0.28527	0.81701	0.96194	-0.206
Mof_N 	N 	0.31211	0.79322	0.96194	-0.176
Mof_N 	N 	0.33377	0.79869	0.93492	-0.098
Mof_C 	C 	0.29014	0.83776	0.93388	0.009
Mof_H 	H 	0.2756	0.8565	0.927	0.008
Mof_C 	C 	0.32053	0.82671	0.91677	0.023
Mof_C 	C 	0.33775	0.84071	0.8845	0.067
Mof_C 	C 	0.32424	0.87056	0.86763	-0.129
Mof_H 	H 	0.3039	0.8814	0.8765	0.077
Mof_N 	N 	0.78527	0.31701	0.96194	-0.206
Mof_N 	N 	0.81211	0.29322	0.96194	-0.176
Mof_N 	N 	0.83377	0.29869	0.93492	-0.098
Mof_C 	C 	0.79014	0.33776	0.93388	0.009
Mof_H 	H 	0.7756	0.3565	0.927	0.007
Mof_C 	C 	0.82053	0.32671	0.91677	0.022
Mof_C 	C 	0.83775	0.34071	0.8845	0.067
Mof_C 	C 	0.82424	0.37056	0.86763	-0.129
Mof_H 	H 	0.8039	0.3814	0.8765	0.076
Mof_N 	N 	0.78527	0.81701	0.46194	-0.211
Mof_N 	N 	0.81211	0.79322	0.46194	-0.181
Mof_N 	N 	0.83377	0.79869	0.43492	-0.099
Mof_C 	C 	0.79014	0.83776	0.43388	0.009
Mof_H 	H 	0.7756	0.8565	0.427	0.006
Mof_C 	C 	0.82053	0.82671	0.41677	0.022
Mof_C 	C 	0.83775	0.84071	0.3845	0.066
Mof_C 	C 	0.82424	0.87056	0.36763	-0.129
Mof_H 	H 	0.8039	0.8814	0.3765	0.076
Mof_N 	N 	0.53806	0.71473	0.31701	-0.211
Mof_N 	N 	0.53806	0.68789	0.29322	-0.181
Mof_N 	N 	0.56508	0.66623	0.29869	-0.1
Mof_C 	C 	0.56612	0.70986	0.33776	0.008
Mof_H 	H 	0.573	0.7244	0.3565	0.005
Mof_C 	C 	0.58323	0.67947	0.32671	0.021
Mof_C 	C 	0.6155	0.66225	0.34071	0.065
Mof_C 	C 	0.63237	0.67576	0.37056	-0.129
Mof_H 	H 	0.6235	0.6961	0.3814	0.075
Mof_N 	N 	0.53806	0.21473	0.81701	-0.211
Mof_N 	N 	0.53806	0.18789	0.79322	-0.182
Mof_N 	N 	0.56508	0.16623	0.79869	-0.1
Mof_C 	C 	0.56612	0.20986	0.83776	0.008
Mof_H 	H 	0.573	0.2244	0.8565	0.006
Mof_C 	C 	0.58323	0.17947	0.82671	0.021
Mof_C 	C 	0.6155	0.16225	0.84071	0.065
Mof_C 	C 	0.63237	0.17576	0.87056	-0.129
Mof_H 	H 	0.6235	0.1961	0.8814	0.076
Mof_N 	N 	0.03806	0.71473	0.81701	-0.213
Mof_N 	N 	0.03806	0.68789	0.79322	-0.183
Mof_N 	N 	0.06508	0.66623	0.79869	-0.101
Mof_C 	C 	0.06612	0.70986	0.83776	0.007
Mof_H 	H 	0.073	0.7244	0.8565	0.005
Mof_C 	C 	0.08323	0.67947	0.82671	0.021
Mof_C 	C 	0.1155	0.66225	0.84071	0.065
Mof_C 	C 	0.13237	0.67576	0.87056	-0.129
Mof_H 	H 	0.1235	0.6961	0.8814	0.076
Mof_N 	N 	0.03806	0.21473	0.31701	-0.213
Mof_N 	N 	0.03806	0.18789	0.29322	-0.184
Mof_N 	N 	0.06508	0.16623	0.29869	-0.101
Mof_C 	C 	0.06612	0.20986	0.33776	0.007
Mof_H 	H 	0.073	0.2244	0.3565	0.004
Mof_C 	C 	0.08323	0.17947	0.32671	0.02
Mof_C 	C 	0.1155	0.16225	0.34071	0.063
Mof_C 	C 	0.13237	0.17576	0.37056	-0.129
Mof_H 	H 	0.1235	0.1961	0.3814	0.074
Mof_N 	N 	0.46194	0.71473	0.68299	-0.212
Mof_N 	N 	0.46194	0.68789	0.70678	-0.181
Mof_N 	N 	0.43492	0.66623	0.70131	-0.1
Mof_C 	C 	0.43388	0.70986	0.66224	0.008
Mof_H 	H 	0.427	0.7244	0.6435	0.005
Mof_C 	C 	0.41677	0.67947	0.67329	0.021
Mof_C 	C 	0.3845	0.66225	0.65929	0.065
Mof_C 	C 	0.36763	0.67576	0.62944	-0.129
Mof_H 	H 	0.3765	0.6961	0.6186	0.075
Mof_N 	N 	0.46194	0.21473	0.18299	-0.212
Mof_N 	N 	0.46194	0.18789	0.20678	-0.182
Mof_N 	N 	0.43492	0.16623	0.20131	-0.1
Mof_C 	C 	0.43388	0.20986	0.16224	0.008
Mof_H 	H 	0.427	0.2244	0.1435	0.004
Mof_C 	C 	0.41677	0.17947	0.17329	0.021
Mof_C 	C 	0.3845	0.16225	0.15929	0.064
Mof_C 	C 	0.36763	0.17576	0.12944	-0.129
Mof_H 	H 	0.3765	0.1961	0.1186	0.074
Mof_N 	N 	0.96194	0.71473	0.18299	-0.206
Mof_N 	N 	0.96194	0.68789	0.20678	-0.176
Mof_N 	N 	0.93492	0.66623	0.20131	-0.098
Mof_C 	C 	0.93388	0.70986	0.16224	0.009
Mof_H 	H 	0.927	0.7244	0.1435	0.006
Mof_C 	C 	0.91677	0.67947	0.17329	0.022
Mof_C 	C 	0.8845	0.66225	0.15929	0.065
Mof_C 	C 	0.86763	0.67576	0.12944	-0.129
Mof_H 	H 	0.8765	0.6961	0.1186	0.075
Mof_N 	N 	0.96194	0.21473	0.68299	-0.206
Mof_N 	N 	0.96194	0.18789	0.70678	-0.176
Mof_N 	N 	0.93492	0.16623	0.70131	-0.099
Mof_C 	C 	0.93388	0.20986	0.66224	0.009
Mof_H 	H 	0.927	0.2244	0.6435	0.007
Mof_C 	C 	0.91677	0.17947	0.67329	0.022
Mof_C 	C 	0.8845	0.16225	0.65929	0.065
Mof_C 	C 	0.86763	0.17576	0.62944	-0.129
Mof_H 	H 	0.8765	0.1961	0.6186	0.076
Mof_N 	N 	0.53806	0.28527	0.68299	-0.212
Mof_N 	N 	0.53806	0.31211	0.70678	-0.181
Mof_N 	N 	0.56508	0.33377	0.70131	-0.1
Mof_C 	C 	0.56612	0.29014	0.66224	0.008
Mof_H 	H 	0.573	0.2756	0.6435	0.005
Mof_C 	C 	0.58323	0.32053	0.67329	0.021
Mof_C 	C 	0.6155	0.33775	0.65929	0.065
Mof_C 	C 	0.63237	0.32424	0.62944	-0.129
Mof_H 	H 	0.6235	0.3039	0.6186	0.075
Mof_N 	N 	0.53806	0.78527	0.18299	-0.212
Mof_N 	N 	0.53806	0.81211	0.20678	-0.181
Mof_N 	N 	0.56508	0.83377	0.20131	-0.099
Mof_C 	C 	0.56612	0.79014	0.16224	0.008
Mof_H 	H 	0.573	0.7756	0.1435	0.004
Mof_C 	C 	0.58323	0.82053	0.17329	0.021
Mof_C 	C 	0.6155	0.83775	0.15929	0.065
Mof_C 	C 	0.63237	0.82424	0.12944	-0.129
Mof_H 	H 	0.6235	0.8039	0.1186	0.075
Mof_N 	N 	0.03806	0.28527	0.18299	-0.214
Mof_N 	N 	0.03806	0.31211	0.20678	-0.183
Mof_N 	N 	0.06508	0.33377	0.20131	-0.101
Mof_C 	C 	0.06612	0.29014	0.16224	0.007
Mof_H 	H 	0.073	0.2756	0.1435	0.003
Mof_C 	C 	0.08323	0.32053	0.17329	0.02
Mof_C 	C 	0.1155	0.33775	0.15929	0.063
Mof_C 	C 	0.13237	0.32424	0.12944	-0.129
Mof_H 	H 	0.1235	0.3039	0.1186	0.074
Mof_N 	N 	0.03806	0.78527	0.68299	-0.213
Mof_N 	N 	0.03806	0.81211	0.70678	-0.183
Mof_N 	N 	0.06508	0.83377	0.70131	-0.1
Mof_C 	C 	0.06612	0.79014	0.66224	0.007
Mof_H 	H 	0.073	0.7756	0.6435	0.004
Mof_C 	C 	0.08323	0.82053	0.67329	0.02
Mof_C 	C 	0.1155	0.83775	0.65929	0.065
Mof_C 	C 	0.13237	0.82424	0.62944	-0.129
Mof_H 	H 	0.1235	0.8039	0.6186	0.075
Mof_N 	N 	0.46194	0.28527	0.31701	-0.211
Mof_N 	N 	0.46194	0.31211	0.29322	-0.181
Mof_N 	N 	0.43492	0.33377	0.29869	-0.1
Mof_C 	C 	0.43388	0.29014	0.33776	0.008
Mof_H 	H 	0.427	0.2756	0.3565	0.005
Mof_C 	C 	0.41677	0.32053	0.32671	0.021
Mof_C 	C 	0.3845	0.33775	0.34071	0.065
Mof_C 	C 	0.36763	0.32424	0.37056	-0.129
Mof_H 	H 	0.3765	0.3039	0.3814	0.075
Mof_N 	N 	0.46194	0.78527	0.81701	-0.211
Mof_N 	N 	0.46194	0.81211	0.79322	-0.181
Mof_N 	N 	0.43492	0.83377	0.79869	-0.099
Mof_C 	C 	0.43388	0.79014	0.83776	0.009
Mof_H 	H 	0.427	0.7756	0.8565	0.006
Mof_C 	C 	0.41677	0.82053	0.82671	0.022
Mof_C 	C 	0.3845	0.83775	0.84071	0.066
Mof_C 	C 	0.36763	0.82424	0.87056	-0.129
Mof_H 	H 	0.3765	0.8039	0.8814	0.076
Mof_N 	N 	0.96194	0.28527	0.81701	-0.206
Mof_N 	N 	0.96194	0.31211	0.79322	-0.176
Mof_N 	N 	0.93492	0.33377	0.79869	-0.098
Mof_C 	C 	0.93388	0.29014	0.83776	0.009
Mof_H 	H 	0.927	0.2756	0.8565	0.008
Mof_C 	C 	0.91677	0.32053	0.82671	0.023
Mof_C 	C 	0.8845	0.33775	0.84071	0.067
Mof_C 	C 	0.86763	0.32424	0.87056	-0.129
Mof_H 	H 	0.8765	0.3039	0.8814	0.077
Mof_N 	N 	0.96194	0.78527	0.31701	-0.206
Mof_N 	N 	0.96194	0.81211	0.29322	-0.176
Mof_N 	N 	0.93492	0.83377	0.29869	-0.098
Mof_C 	C 	0.93388	0.79014	0.33776	0.009
Mof_H 	H 	0.927	0.7756	0.3565	0.007
Mof_C 	C 	0.91677	0.82053	0.32671	0.022
Mof_C 	C 	0.8845	0.83775	0.34071	0.067
Mof_C 	C 	0.86763	0.82424	0.37056	-0.129
Mof_H 	H 	0.8765	0.8039	0.3814	0.076
Mof_N 	N 	0.03806	0.81701	0.78527	-0.213
Mof_N 	N 	0.03806	0.79322	0.81211	-0.183
Mof_N 	N 	0.06508	0.79869	0.83377	-0.1
Mof_C 	C 	0.06612	0.83776	0.79014	0.008
Mof_H 	H 	0.073	0.8565	0.7756	0.005
Mof_C 	C 	0.08323	0.82671	0.82053	0.021
Mof_C 	C 	0.1155	0.84071	0.83775	0.065
Mof_C 	C 	0.13237	0.87056	0.82424	-0.129
Mof_H 	H 	0.1235	0.8814	0.8039	0.076
Mof_N 	N 	0.03806	0.31701	0.28527	-0.213
Mof_N 	N 	0.03806	0.29322	0.31211	-0.183
Mof_N 	N 	0.06508	0.29869	0.33377	-0.101
Mof_C 	C 	0.06612	0.33776	0.29014	0.007
Mof_H 	H 	0.073	0.3565	0.2756	0.004
Mof_C 	C 	0.08323	0.32671	0.32053	0.02
Mof_C 	C 	0.1155	0.34071	0.33775	0.064
Mof_C 	C 	0.13237	0.37056	0.32424	-0.129
Mof_H 	H 	0.1235	0.3814	0.3039	0.075
Mof_N 	N 	0.53806	0.81701	0.28527	-0.211
Mof_N 	N 	0.53806	0.79322	0.31211	-0.181
Mof_N 	N 	0.56508	0.79869	0.33377	-0.1
Mof_C 	C 	0.56612	0.83776	0.29014	0.008
Mof_H 	H 	0.573	0.8565	0.2756	0.006
Mof_C 	C 	0.58323	0.82671	0.32053	0.021
Mof_C 	C 	0.6155	0.84071	0.33775	0.066
Mof_C 	C 	0.63237	0.87056	0.32424	-0.129
Mof_H 	H 	0.6235	0.8814	0.3039	0.076
Mof_N 	N 	0.53806	0.31701	0.78527	-0.211
Mof_N 	N 	0.53806	0.29322	0.81211	-0.181
Mof_N 	N 	0.56508	0.29869	0.83377	-0.099
Mof_C 	C 	0.56612	0.33776	0.79014	0.008
Mof_H 	H 	0.573	0.3565	0.7756	0.005
Mof_C 	C 	0.58323	0.32671	0.82053	0.021
Mof_C 	C 	0.6155	0.34071	0.83775	0.066
Mof_C 	C 	0.63237	0.37056	0.82424	-0.129
Mof_H 	H 	0.6235	0.3814	0.8039	0.075
Mof_N 	N 	0.96194	0.18299	0.78527	-0.206
Mof_N 	N 	0.96194	0.20678	0.81211	-0.176
Mof_N 	N 	0.93492	0.20131	0.83377	-0.098
Mof_C 	C 	0.93388	0.16224	0.79014	0.009
Mof_H 	H 	0.927	0.1435	0.7756	0.006
Mof_C 	C 	0.91677	0.17329	0.82053	0.022
Mof_C 	C 	0.8845	0.15929	0.83775	0.066
Mof_C 	C 	0.86763	0.12944	0.82424	-0.129
Mof_H 	H 	0.8765	0.1186	0.8039	0.076
Mof_N 	N 	0.96194	0.68299	0.28527	-0.206
Mof_N 	N 	0.96194	0.70678	0.31211	-0.176
Mof_N 	N 	0.93492	0.70131	0.33377	-0.098
Mof_C 	C 	0.93388	0.66224	0.29014	0.009
Mof_H 	H 	0.927	0.6435	0.2756	0.007
Mof_C 	C 	0.91677	0.67329	0.32053	0.022
Mof_C 	C 	0.8845	0.65929	0.33775	0.066
Mof_C 	C 	0.86763	0.62944	0.32424	-0.129
Mof_H 	H 	0.8765	0.6186	0.3039	0.076
Mof_N 	N 	0.46194	0.18299	0.28527	-0.212
Mof_N 	N 	0.46194	0.20678	0.31211	-0.182
Mof_N 	N 	0.43492	0.20131	0.33377	-0.1
Mof_C 	C 	0.43388	0.16224	0.29014	0.008
Mof_H 	H 	0.427	0.1435	0.2756	0.004
Mof_C 	C 	0.41677	0.17329	0.32053	0.021
Mof_C 	C 	0.3845	0.15929	0.33775	0.064
Mof_C 	C 	0.36763	0.12944	0.32424	-0.129
Mof_H 	H 	0.3765	0.1186	0.3039	0.074
Mof_N 	N 	0.46194	0.68299	0.78527	-0.211
Mof_N 	N 	0.46194	0.70678	0.81211	-0.181
Mof_N 	N 	0.43492	0.70131	0.83377	-0.099
Mof_C 	C 	0.43388	0.66224	0.79014	0.008
Mof_H 	H 	0.427	0.6435	0.7756	0.005
Mof_C 	C 	0.41677	0.67329	0.82053	0.021
Mof_C 	C 	0.3845	0.65929	0.83775	0.066
Mof_C 	C 	0.36763	0.62944	0.82424	-0.129
Mof_H 	H 	0.3765	0.6186	0.8039	0.075
Mof_N 	N 	0.03806	0.18299	0.21473	-0.214
Mof_N 	N 	0.03806	0.20678	0.18789	-0.184
Mof_N 	N 	0.06508	0.20131	0.16623	-0.102
Mof_C 	C 	0.06612	0.16224	0.20986	0.007
Mof_H 	H 	0.073	0.1435	0.2244	0.003
Mof_C 	C 	0.08323	0.17329	0.17947	0.02
Mof_C 	C 	0.1155	0.15929	0.16225	0.063
Mof_C 	C 	0.13237	0.12944	0.17576	-0.129
Mof_H 	H 	0.1235	0.1186	0.1961	0.074
Mof_N 	N 	0.03806	0.68299	0.71473	-0.213
Mof_N 	N 	0.03806	0.70678	0.68789	-0.183
Mof_N 	N 	0.06508	0.70131	0.66623	-0.101
Mof_C 	C 	0.06612	0.66224	0.70986	0.007
Mof_H 	H 	0.073	0.6435	0.7244	0.004
Mof_C 	C 	0.08323	0.67329	0.67947	0.02
Mof_C 	C 	0.1155	0.65929	0.66225	0.064
Mof_C 	C 	0.13237	0.62944	0.67576	-0.129
Mof_H 	H 	0.1235	0.6186	0.6961	0.075
Mof_N 	N 	0.53806	0.18299	0.71473	-0.212
Mof_N 	N 	0.53806	0.20678	0.68789	-0.182
Mof_N 	N 	0.56508	0.20131	0.66623	-0.1
Mof_C 	C 	0.56612	0.16224	0.70986	0.008
Mof_H 	H 	0.573	0.1435	0.7244	0.004
Mof_C 	C 	0.58323	0.17329	0.67947	0.021
Mof_C 	C 	0.6155	0.15929	0.66225	0.064
Mof_C 	C 	0.63237	0.12944	0.67576	-0.129
Mof_H 	H 	0.6235	0.1186	0.6961	0.074
Mof_N 	N 	0.53806	0.68299	0.21473	-0.212
Mof_N 	N 	0.53806	0.70678	0.18789	-0.182
Mof_N 	N 	0.56508	0.70131	0.16623	-0.1
Mof_C 	C 	0.56612	0.66224	0.20986	0.008
Mof_H 	H 	0.573	0.6435	0.2244	0.005
Mof_C 	C 	0.58323	0.67329	0.17947	0.021
Mof_C 	C 	0.6155	0.65929	0.16225	0.064
Mof_C 	C 	0.63237	0.62944	0.17576	-0.129
Mof_H 	H 	0.6235	0.6186	0.1961	0.075
Mof_N 	N 	0.96194	0.81701	0.21473	-0.206
Mof_N 	N 	0.96194	0.79322	0.18789	-0.176
Mof_N 	N 	0.93492	0.79869	0.16623	-0.099
Mof_C 	C 	0.93388	0.83776	0.20986	0.009
Mof_H 	H 	0.927	0.8565	0.2244	0.008
Mof_C 	C 	0.91677	0.82671	0.17947	0.022
Mof_C 	C 	0.8845	0.84071	0.16225	0.066
Mof_C 	C 	0.86763	0.87056	0.17576	-0.129
Mof_H 	H 	0.8765	0.8814	0.1961	0.077
Mof_N 	N 	0.96194	0.31701	0.71473	-0.206
Mof_N 	N 	0.96194	0.29322	0.68789	-0.176
Mof_N 	N 	0.93492	0.29869	0.66623	-0.098
Mof_C 	C 	0.93388	0.33776	0.70986	0.009
Mof_H 	H 	0.927	0.3565	0.7244	0.007
Mof_C 	C 	0.91677	0.32671	0.67947	0.022
Mof_C 	C 	0.8845	0.34071	0.66225	0.066
Mof_C 	C 	0.86763	0.37056	0.67576	-0.129
Mof_H 	H 	0.8765	0.3814	0.6961	0.076
Mof_N 	N 	0.46194	0.81701	0.71473	-0.211
Mof_N 	N 	0.46194	0.79322	0.68789	-0.181
Mof_N 	N 	0.43492	0.79869	0.66623	-0.1
Mof_C 	C 	0.43388	0.83776	0.70986	0.008
Mof_H 	H 	0.427	0.8565	0.7244	0.006
Mof_C 	C 	0.41677	0.82671	0.67947	0.021
Mof_C 	C 	0.3845	0.84071	0.66225	0.066
Mof_C 	C 	0.36763	0.87056	0.67576	-0.129
Mof_H 	H 	0.3765	0.8814	0.6961	0.076
Mof_N 	N 	0.46194	0.31701	0.21473	-0.212
Mof_N 	N 	0.46194	0.29322	0.18789	-0.182
Mof_N 	N 	0.43492	0.29869	0.16623	-0.1
Mof_C 	C 	0.43388	0.33776	0.20986	0.008
Mof_H 	H 	0.427	0.3565	0.2244	0.005
Mof_C 	C 	0.41677	0.32671	0.17947	0.021
Mof_C 	C 	0.3845	0.34071	0.16225	0.064
Mof_C 	C 	0.36763	0.37056	0.17576	-0.129
Mof_H 	H 	0.3765	0.3814	0.1961	0.075
Mof_N 	N 	0.81701	0.21473	0.96194	-0.206
Mof_N 	N 	0.79322	0.18789	0.96194	-0.176
Mof_N 	N 	0.79869	0.16623	0.93492	-0.099
Mof_C 	C 	0.83776	0.20986	0.93388	0.009
Mof_H 	H 	0.8565	0.2244	0.927	0.008
Mof_C 	C 	0.82671	0.17947	0.91677	0.022
Mof_C 	C 	0.84071	0.16225	0.8845	0.066
Mof_C 	C 	0.87056	0.17576	0.86763	-0.129
Mof_H 	H 	0.8814	0.1961	0.8765	0.077
Mof_N 	N 	0.81701	0.71473	0.46194	-0.211
Mof_N 	N 	0.79322	0.68789	0.46194	-0.181
Mof_N 	N 	0.79869	0.66623	0.43492	-0.1
Mof_C 	C 	0.83776	0.70986	0.43388	0.008
Mof_H 	H 	0.8565	0.7244	0.427	0.006
Mof_C 	C 	0.82671	0.67947	0.41677	0.021
Mof_C 	C 	0.84071	0.66225	0.3845	0.066
Mof_C 	C 	0.87056	0.67576	0.36763	-0.129
Mof_H 	H 	0.8814	0.6961	0.3765	0.076
Mof_N 	N 	0.31701	0.21473	0.46194	-0.212
Mof_N 	N 	0.29322	0.18789	0.46194	-0.182
Mof_N 	N 	0.29869	0.16623	0.43492	-0.1
Mof_C 	C 	0.33776	0.20986	0.43388	0.008
Mof_H 	H 	0.3565	0.2244	0.427	0.005
Mof_C 	C 	0.32671	0.17947	0.41677	0.021
Mof_C 	C 	0.34071	0.16225	0.3845	0.064
Mof_C 	C 	0.37056	0.17576	0.36763	-0.129
Mof_H 	H 	0.3814	0.1961	0.3765	0.075
Mof_N 	N 	0.31701	0.71473	0.96194	-0.206
Mof_N 	N 	0.29322	0.68789	0.96194	-0.176
Mof_N 	N 	0.29869	0.66623	0.93492	-0.098
Mof_C 	C 	0.33776	0.70986	0.93388	0.009
Mof_H 	H 	0.3565	0.7244	0.927	0.007
Mof_C 	C 	0.32671	0.67947	0.91677	0.022
Mof_C 	C 	0.34071	0.66225	0.8845	0.066
Mof_C 	C 	0.37056	0.67576	0.86763	-0.129
Mof_H 	H 	0.3814	0.6961	0.8765	0.076
Mof_N 	N 	0.18299	0.21473	0.03806	-0.214
Mof_N 	N 	0.20678	0.18789	0.03806	-0.184
Mof_N 	N 	0.20131	0.16623	0.06508	-0.102
Mof_C 	C 	0.16224	0.20986	0.06612	0.007
Mof_H 	H 	0.1435	0.2244	0.073	0.003
Mof_C 	C 	0.17329	0.17947	0.08323	0.02
Mof_C 	C 	0.15929	0.16225	0.1155	0.063
Mof_C 	C 	0.12944	0.17576	0.13237	-0.129
Mof_H 	H 	0.1186	0.1961	0.1235	0.074
Mof_N 	N 	0.18299	0.71473	0.53806	-0.212
Mof_N 	N 	0.20678	0.68789	0.53806	-0.182
Mof_N 	N 	0.20131	0.66623	0.56508	-0.1
Mof_C 	C 	0.16224	0.70986	0.56612	0.008
Mof_H 	H 	0.1435	0.7244	0.573	0.004
Mof_C 	C 	0.17329	0.67947	0.58323	0.021
Mof_C 	C 	0.15929	0.66225	0.6155	0.064
Mof_C 	C 	0.12944	0.67576	0.63237	-0.129
Mof_H 	H 	0.1186	0.6961	0.6235	0.074
Mof_N 	N 	0.68299	0.21473	0.53806	-0.212
Mof_N 	N 	0.70678	0.18789	0.53806	-0.182
Mof_N 	N 	0.70131	0.16623	0.56508	-0.1
Mof_C 	C 	0.66224	0.20986	0.56612	0.008
Mof_H 	H 	0.6435	0.2244	0.573	0.005
Mof_C 	C 	0.67329	0.17947	0.58323	0.021
Mof_C 	C 	0.65929	0.16225	0.6155	0.064
Mof_C 	C 	0.62944	0.17576	0.63237	-0.129
Mof_H 	H 	0.6186	0.1961	0.6235	0.075
Mof_N 	N 	0.68299	0.71473	0.03806	-0.213
Mof_N 	N 	0.70678	0.68789	0.03806	-0.183
Mof_N 	N 	0.70131	0.66623	0.06508	-0.101
Mof_C 	C 	0.66224	0.70986	0.06612	0.007
Mof_H 	H 	0.6435	0.7244	0.073	0.004
Mof_C 	C 	0.67329	0.67947	0.08323	0.02
Mof_C 	C 	0.65929	0.66225	0.1155	0.064
Mof_C 	C 	0.62944	0.67576	0.13237	-0.129
Mof_H 	H 	0.6186	0.6961	0.1235	0.075
Mof_N 	N 	0.18299	0.78527	0.96194	-0.206
Mof_N 	N 	0.20678	0.81211	0.96194	-0.176
Mof_N 	N 	0.20131	0.83377	0.93492	-0.098
Mof_C 	C 	0.16224	0.79014	0.93388	0.009
Mof_H 	H 	0.1435	0.7756	0.927	0.006
Mof_C 	C 	0.17329	0.82053	0.91677	0.022
Mof_C 	C 	0.15929	0.83775	0.8845	0.066
Mof_C 	C 	0.12944	0.82424	0.86763	-0.129
Mof_H 	H 	0.1186	0.8039	0.8765	0.076
Mof_N 	N 	0.18299	0.28527	0.46194	-0.212
Mof_N 	N 	0.20678	0.31211	0.46194	-0.182
Mof_N 	N 	0.20131	0.33377	0.43492	-0.1
Mof_C 	C 	0.16224	0.29014	0.43388	0.008
Mof_H 	H 	0.1435	0.2756	0.427	0.004
Mof_C 	C 	0.17329	0.32053	0.41677	0.021
Mof_C 	C 	0.15929	0.33775	0.3845	0.064
Mof_C 	C 	0.12944	0.32424	0.36763	-0.129
Mof_H 	H 	0.1186	0.3039	0.3765	0.074
Mof_N 	N 	0.68299	0.78527	0.46194	-0.211
Mof_N 	N 	0.70678	0.81211	0.46194	-0.181
Mof_N 	N 	0.70131	0.83377	0.43492	-0.099
Mof_C 	C 	0.66224	0.79014	0.43388	0.008
Mof_H 	H 	0.6435	0.7756	0.427	0.005
Mof_C 	C 	0.67329	0.82053	0.41677	0.021
Mof_C 	C 	0.65929	0.83775	0.3845	0.066
Mof_C 	C 	0.62944	0.82424	0.36763	-0.129
Mof_H 	H 	0.6186	0.8039	0.3765	0.075
Mof_N 	N 	0.68299	0.28527	0.96194	-0.206
Mof_N 	N 	0.70678	0.31211	0.96194	-0.176
Mof_N 	N 	0.70131	0.33377	0.93492	-0.098
Mof_C 	C 	0.66224	0.29014	0.93388	0.009
Mof_H 	H 	0.6435	0.2756	0.927	0.007
Mof_C 	C 	0.67329	0.32053	0.91677	0.022
Mof_C 	C 	0.65929	0.33775	0.8845	0.066
Mof_C 	C 	0.62944	0.32424	0.86763	-0.129
Mof_H 	H 	0.6186	0.3039	0.8765	0.076
Mof_N 	N 	0.81701	0.78527	0.03806	-0.213
Mof_N 	N 	0.79322	0.81211	0.03806	-0.183
Mof_N 	N 	0.79869	0.83377	0.06508	-0.1
Mof_C 	C 	0.83776	0.79014	0.06612	0.008
Mof_H 	H 	0.8565	0.7756	0.073	0.005
Mof_C 	C 	0.82671	0.82053	0.08323	0.021
Mof_C 	C 	0.84071	0.83775	0.1155	0.065
Mof_C 	C 	0.87056	0.82424	0.13237	-0.129
Mof_H 	H 	0.8814	0.8039	0.1235	0.076
Mof_N 	N 	0.81701	0.28527	0.53806	-0.211
Mof_N 	N 	0.79322	0.31211	0.53806	-0.181
Mof_N 	N 	0.79869	0.33377	0.56508	-0.1
Mof_C 	C 	0.83776	0.29014	0.56612	0.008
Mof_H 	H 	0.8565	0.2756	0.573	0.006
Mof_C 	C 	0.82671	0.32053	0.58323	0.021
Mof_C 	C 	0.84071	0.33775	0.6155	0.066
Mof_C 	C 	0.87056	0.32424	0.63237	-0.129
Mof_H 	H 	0.8814	0.3039	0.6235	0.076
Mof_N 	N 	0.31701	0.78527	0.53806	-0.211
Mof_N 	N 	0.29322	0.81211	0.53806	-0.181
Mof_N 	N 	0.29869	0.83377	0.56508	-0.099
Mof_C 	C 	0.33776	0.79014	0.56612	0.008
Mof_H 	H 	0.3565	0.7756	0.573	0.005
Mof_C 	C 	0.32671	0.82053	0.58323	0.021
Mof_C 	C 	0.34071	0.83775	0.6155	0.066
Mof_C 	C 	0.37056	0.82424	0.63237	-0.129
Mof_H 	H 	0.3814	0.8039	0.6235	0.075
Mof_N 	N 	0.31701	0.28527	0.03806	-0.213
Mof_N 	N 	0.29322	0.31211	0.03806	-0.183
Mof_N 	N 	0.29869	0.33377	0.06508	-0.101
Mof_C 	C 	0.33776	0.29014	0.06612	0.007
Mof_H 	H 	0.3565	0.2756	0.073	0.004
Mof_C 	C 	0.32671	0.32053	0.08323	0.02
Mof_C 	C 	0.34071	0.33775	0.1155	0.064
Mof_C 	C 	0.37056	0.32424	0.13237	-0.129
Mof_H 	H 	0.3814	0.3039	0.1235	0.075
Mof_N 	N 	0.21473	0.03806	0.18299	-0.214
Mof_N 	N 	0.18789	0.03806	0.20678	-0.184
Mof_N 	N 	0.16623	0.06508	0.20131	-0.102
Mof_C 	C 	0.20986	0.06612	0.16224	0.007
Mof_H 	H 	0.2244	0.073	0.1435	0.003
Mof_C 	C 	0.17947	0.08323	0.17329	0.02
Mof_C 	C 	0.16225	0.1155	0.15929	0.063
Mof_C 	C 	0.17576	0.13237	0.12944	-0.129
Mof_H 	H 	0.1961	0.1235	0.1186	0.074
Mof_N 	N 	0.21473	0.53806	0.68299	-0.212
Mof_N 	N 	0.18789	0.53806	0.70678	-0.182
Mof_N 	N 	0.16623	0.56508	0.70131	-0.1
Mof_C 	C 	0.20986	0.56612	0.66224	0.008
Mof_H 	H 	0.2244	0.573	0.6435	0.005
Mof_C 	C 	0.17947	0.58323	0.67329	0.021
Mof_C 	C 	0.16225	0.6155	0.65929	0.064
Mof_C 	C 	0.17576	0.63237	0.62944	-0.129
Mof_H 	H 	0.1961	0.6235	0.6186	0.075
Mof_N 	N 	0.71473	0.03806	0.68299	-0.213
Mof_N 	N 	0.68789	0.03806	0.70678	-0.183
Mof_N 	N 	0.66623	0.06508	0.70131	-0.101
Mof_C 	C 	0.70986	0.06612	0.66224	0.007
Mof_H 	H 	0.7244	0.073	0.6435	0.004
Mof_C 	C 	0.67947	0.08323	0.67329	0.02
Mof_C 	C 	0.66225	0.1155	0.65929	0.064
Mof_C 	C 	0.67576	0.13237	0.62944	-0.129
Mof_H 	H 	0.6961	0.1235	0.6186	0.075
Mof_N 	N 	0.71473	0.53806	0.18299	-0.212
Mof_N 	N 	0.68789	0.53806	0.20678	-0.182
Mof_N 	N 	0.66623	0.56508	0.20131	-0.1
Mof_C 	C 	0.70986	0.56612	0.16224	0.008
Mof_H 	H 	0.7244	0.573	0.1435	0.004
Mof_C 	C 	0.67947	0.58323	0.17329	0.021
Mof_C 	C 	0.66225	0.6155	0.15929	0.064
Mof_C 	C 	0.67576	0.63237	0.12944	-0.129
Mof_H 	H 	0.6961	0.6235	0.1186	0.074
Mof_N 	N 	0.21473	0.96194	0.81701	-0.206
Mof_N 	N 	0.18789	0.96194	0.79322	-0.176
Mof_N 	N 	0.16623	0.93492	0.79869	-0.099
Mof_C 	C 	0.20986	0.93388	0.83776	0.009
Mof_H 	H 	0.2244	0.927	0.8565	0.008
Mof_C 	C 	0.17947	0.91677	0.82671	0.022
Mof_C 	C 	0.16225	0.8845	0.84071	0.066
Mof_C 	C 	0.17576	0.86763	0.87056	-0.129
Mof_H 	H 	0.1961	0.8765	0.8814	0.077
Mof_N 	N 	0.21473	0.46194	0.31701	-0.212
Mof_N 	N 	0.18789	0.46194	0.29322	-0.182
Mof_N 	N 	0.16623	0.43492	0.29869	-0.1
Mof_C 	C 	0.20986	0.43388	0.33776	0.008
Mof_H 	H 	0.2244	0.427	0.3565	0.005
Mof_C 	C 	0.17947	0.41677	0.32671	0.021
Mof_C 	C 	0.16225	0.3845	0.34071	0.064
Mof_C 	C 	0.17576	0.36763	0.37056	-0.129
Mof_H 	H 	0.1961	0.3765	0.3814	0.075
Mof_N 	N 	0.71473	0.96194	0.31701	-0.206
Mof_N 	N 	0.68789	0.96194	0.29322	-0.176
Mof_N 	N 	0.66623	0.93492	0.29869	-0.098
Mof_C 	C 	0.70986	0.93388	0.33776	0.009
Mof_H 	H 	0.7244	0.927	0.3565	0.007
Mof_C 	C 	0.67947	0.91677	0.32671	0.022
Mof_C 	C 	0.66225	0.8845	0.34071	0.066
Mof_C 	C 	0.67576	0.86763	0.37056	-0.129
Mof_H 	H 	0.6961	0.8765	0.3814	0.076
Mof_N 	N 	0.71473	0.46194	0.81701	-0.211
Mof_N 	N 	0.68789	0.46194	0.79322	-0.181
Mof_N 	N 	0.66623	0.43492	0.79869	-0.1
Mof_C 	C 	0.70986	0.43388	0.83776	0.008
Mof_H 	H 	0.7244	0.427	0.8565	0.006
Mof_C 	C 	0.67947	0.41677	0.82671	0.021
Mof_C 	C 	0.66225	0.3845	0.84071	0.066
Mof_C 	C 	0.67576	0.36763	0.87056	-0.129
Mof_H 	H 	0.6961	0.3765	0.8814	0.076
Mof_N 	N 	0.78527	0.03806	0.81701	-0.213
Mof_N 	N 	0.81211	0.03806	0.79322	-0.183
Mof_N 	N 	0.83377	0.06508	0.79869	-0.1
Mof_C 	C 	0.79014	0.06612	0.83776	0.008
Mof_H 	H 	0.7756	0.073	0.8565	0.005
Mof_C 	C 	0.82053	0.08323	0.82671	0.021
Mof_C 	C 	0.83775	0.1155	0.84071	0.065
Mof_C 	C 	0.82424	0.13237	0.87056	-0.129
Mof_H 	H 	0.8039	0.1235	0.8814	0.076
Mof_N 	N 	0.78527	0.53806	0.31701	-0.211
Mof_N 	N 	0.81211	0.53806	0.29322	-0.181
Mof_N 	N 	0.83377	0.56508	0.29869	-0.099
Mof_C 	C 	0.79014	0.56612	0.33776	0.008
Mof_H 	H 	0.7756	0.573	0.3565	0.005
Mof_C 	C 	0.82053	0.58323	0.32671	0.021
Mof_C 	C 	0.83775	0.6155	0.34071	0.066
Mof_C 	C 	0.82424	0.63237	0.37056	-0.129
Mof_H 	H 	0.8039	0.6235	0.3814	0.075
Mof_N 	N 	0.28527	0.03806	0.31701	-0.213
Mof_N 	N 	0.31211	0.03806	0.29322	-0.183
Mof_N 	N 	0.33377	0.06508	0.29869	-0.101
Mof_C 	C 	0.29014	0.06612	0.33776	0.007
Mof_H 	H 	0.2756	0.073	0.3565	0.004
Mof_C 	C 	0.32053	0.08323	0.32671	0.02
Mof_C 	C 	0.33775	0.1155	0.34071	0.064
Mof_C 	C 	0.32424	0.13237	0.37056	-0.129
Mof_H 	H 	0.3039	0.1235	0.3814	0.075
Mof_N 	N 	0.28527	0.53806	0.81701	-0.211
Mof_N 	N 	0.31211	0.53806	0.79322	-0.181
Mof_N 	N 	0.33377	0.56508	0.79869	-0.1
Mof_C 	C 	0.29014	0.56612	0.83776	0.008
Mof_H 	H 	0.2756	0.573	0.8565	0.006
Mof_C 	C 	0.32053	0.58323	0.82671	0.021
Mof_C 	C 	0.33775	0.6155	0.84071	0.066
Mof_C 	C 	0.32424	0.63237	0.87056	-0.129
Mof_H 	H 	0.3039	0.6235	0.8814	0.076
Mof_N 	N 	0.78527	0.96194	0.18299	-0.206
Mof_N 	N 	0.81211	0.96194	0.20678	-0.176
Mof_N 	N 	0.83377	0.93492	0.20131	-0.098
Mof_C 	C 	0.79014	0.93388	0.16224	0.009
Mof_H 	H 	0.7756	0.927	0.1435	0.006
Mof_C 	C 	0.82053	0.91677	0.17329	0.022
Mof_C 	C 	0.83775	0.8845	0.15929	0.066
Mof_C 	C 	0.82424	0.86763	0.12944	-0.129
Mof_H 	H 	0.8039	0.8765	0.1186	0.076
Mof_N 	N 	0.78527	0.46194	0.68299	-0.211
Mof_N 	N 	0.81211	0.46194	0.70678	-0.181
Mof_N 	N 	0.83377	0.43492	0.70131	-0.099
Mof_C 	C 	0.79014	0.43388	0.66224	0.008
Mof_H 	H 	0.7756	0.427	0.6435	0.005
Mof_C 	C 	0.82053	0.41677	0.67329	0.021
Mof_C 	C 	0.83775	0.3845	0.65929	0.066
Mof_C 	C 	0.82424	0.36763	0.62944	-0.129
Mof_H 	H 	0.8039	0.3765	0.6186	0.075
Mof_N 	N 	0.28527	0.96194	0.68299	-0.206
Mof_N 	N 	0.31211	0.96194	0.70678	-0.176
Mof_N 	N 	0.33377	0.93492	0.70131	-0.098
Mof_C 	C 	0.29014	0.93388	0.66224	0.009
Mof_H 	H 	0.2756	0.927	0.6435	0.007
Mof_C 	C 	0.32053	0.91677	0.67329	0.022
Mof_C 	C 	0.33775	0.8845	0.65929	0.066
Mof_C 	C 	0.32424	0.86763	0.62944	-0.129
Mof_H 	H 	0.3039	0.8765	0.6186	0.076
Mof_N 	N 	0.28527	0.46194	0.18299	-0.212
Mof_N 	N 	0.31211	0.46194	0.20678	-0.182
Mof_N 	N 	0.33377	0.43492	0.20131	-0.1
Mof_C 	C 	0.29014	0.43388	0.16224	0.008
Mof_H 	H 	0.2756	0.427	0.1435	0.004
Mof_C 	C 	0.32053	0.41677	0.17329	0.021
Mof_C 	C 	0.33775	0.3845	0.15929	0.064
Mof_C 	C 	0.32424	0.36763	0.12944	-0.129
Mof_H 	H 	0.3039	0.3765	0.1186	0.074
Mof_Co	Co	0.74601	0.5	0.31708	1.106
Mof_Co	Co	0.74601	-7.53495e-33	0.81708	1.099
Mof_Co	Co	0.24601	0.5	0.81708	1.106
Mof_Co	Co	0.24601	0	0.31708	1.099
Mof_Co	Co	0.25399	0.5	0.31708	1.106
Mof_Co	Co	0.25399	-7.53495e-33	0.81708	1.099
Mof_Co	Co	0.75399	0.5	0.81708	1.106
Mof_Co	Co	0.75399	0	0.31708	1.099
Mof_Co	Co	0.25399	0.5	0.68292	1.106
Mof_Co	Co	0.25399	-1.88374e-33	0.18292	1.099
Mof_Co	Co	0.75399	0.5	0.18292	1.105
Mof_Co	Co	0.75399	-7.53495e-33	0.68292	1.099
Mof_Co	Co	0.74601	0.5	0.68292	1.106
Mof_Co	Co	0.74601	-1.88374e-33	0.18292	1.099
Mof_Co	Co	0.24601	0.5	0.18292	1.105
Mof_Co	Co	0.24601	-7.53495e-33	0.68292	1.099
Mof_Co	Co	0.31708	0.74601	0.5	1.106
Mof_Co	Co	0.31708	0.24601	-0	1.099
Mof_Co	Co	0.81708	0.74601	-0	1.099
Mof_Co	Co	0.81708	0.24601	0.5	1.106
Mof_Co	Co	0.31708	0.25399	0.5	1.106
Mof_Co	Co	0.31708	0.75399	-0	1.099
Mof_Co	Co	0.81708	0.25399	-0	1.099
Mof_Co	Co	0.81708	0.75399	0.5	1.106
Mof_Co	Co	0.68292	0.25399	0.5	1.106
Mof_Co	Co	0.68292	0.75399	-0	1.099
Mof_Co	Co	0.18292	0.25399	-0	1.099
Mof_Co	Co	0.18292	0.75399	0.5	1.105
Mof_Co	Co	0.68292	0.74601	0.5	1.106
Mof_Co	Co	0.68292	0.24601	-0	1.099
Mof_Co	Co	0.18292	0.74601	-0	1.099
Mof_Co	Co	0.18292	0.24601	0.5	1.105
Mof_Co	Co	0.5	0.31708	0.74601	1.106
Mof_Co	Co	0.5	0.81708	0.24601	1.106
Mof_Co	Co	9.2239e-34	0.31708	0.24601	1.099
Mof_Co	Co	-4.73786e-33	0.81708	0.74601	1.099
Mof_Co	Co	0.5	0.31708	0.25399	1.106
Mof_Co	Co	0.5	0.81708	0.75399	1.106
Mof_Co	Co	-4.70794e-33	0.31708	0.75399	1.099
Mof_Co	Co	-4.6989e-33	0.81708	0.25399	1.099
Mof_Co	Co	0.5	0.68292	0.25399	1.106
Mof_Co	Co	0.5	0.18292	0.75399	1.105
Mof_Co	Co	1.0362e-32	0.68292	0.75399	1.099
Mof_Co	Co	9.5231e-34	0.18292	0.25399	1.099
Mof_Co	Co	0.5	0.68292	0.74601	1.106
Mof_Co	Co	0.5	0.18292	0.24601	1.105
Mof_Co	Co	9.2239e-34	0.68292	0.24601	1.099
Mof_Co	Co	2.79709e-33	0.18292	0.74601	1.099
Mof_Co	Co	6.8584e-34	0.24601	0.18292	1.099
Mof_Co	Co	1.00955e-32	0.74601	0.68292	1.099
Mof_Co	Co	0.5	0.24601	0.68292	1.105
Mof_Co	Co	0.5	0.74601	0.18292	1.105
Mof_Co	Co	4.45332e-33	0.75399	0.18292	1.099
Mof_Co	Co	-4.97441e-33	0.25399	0.68292	1.099
Mof_Co	Co	0.5	0.75399	0.68292	1.106
Mof_Co	Co	0.5	0.25399	0.18292	1.105
Mof_Co	Co	-1.20063e-32	0.75399	0.81708	1.099
Mof_Co	Co	1.18886e-33	0.25399	0.31708	1.099
Mof_Co	Co	0.5	0.75399	0.31708	1.106
Mof_Co	Co	0.5	0.25399	0.81708	1.106
Mof_Co	Co	3.06356e-33	0.24601	0.81708	1.099
Mof_Co	Co	1.18886e-33	0.74601	0.31708	1.099
Mof_Co	Co	0.5	0.24601	0.31708	1.106
Mof_Co	Co	0.5	0.74601	0.81708	1.106
Mof_Co	Co	0.24601	0.81708	-0	1.099
Mof_Co	Co	0.24601	0.31708	0.5	1.106
Mof_Co	Co	0.74601	0.81708	0.5	1.106
Mof_Co	Co	0.74601	0.31708	-0	1.099
Mof_Co	Co	0.75399	0.81708	-0	1.099
Mof_Co	Co	0.75399	0.31708	0.5	1.106
Mof_Co	Co	0.25399	0.81708	0.5	1.106
Mof_Co	Co	0.25399	0.31708	-0	1.099
Mof_Co	Co	0.75399	0.18292	-0	1.099
Mof_Co	Co	0.75399	0.68292	0.5	1.106
Mof_Co	Co	0.25399	0.18292	0.5	1.105
Mof_Co	Co	0.25399	0.68292	-0	1.099
Mof_Co	Co	0.24601	0.18292	-0	1.099
Mof_Co	Co	0.24601	0.68292	0.5	1.105
Mof_Co	Co	0.74601	0.18292	0.5	1.105
Mof_Co	Co	0.74601	0.68292	-0	1.099
Mof_Co	Co	0.81708	0	0.75399	1.099
Mof_Co	Co	0.81708	0.5	0.25399	1.106
Mof_Co	Co	0.31708	-1.88374e-33	0.25399	1.099
Mof_Co	Co	0.31708	0.5	0.75399	1.106
Mof_Co	Co	0.81708	-1.88374e-33	0.24601	1.099
Mof_Co	Co	0.81708	0.5	0.74601	1.106
Mof_Co	Co	0.31708	0	0.74601	1.099
Mof_Co	Co	0.31708	0.5	0.24601	1.106
Mof_Co	Co	0.18292	-1.88374e-33	0.24601	1.099
Mof_Co	Co	0.18292	0.5	0.74601	1.105
Mof_Co	Co	0.68292	0	0.74601	1.099
Mof_Co	Co	0.68292	0.5	0.24601	1.105
Mof_Co	Co	0.18292	0	0.75399	1.099
Mof_Co	Co	0.18292	0.5	0.25399	1.105
Mof_Co	Co	0.68292	-1.88374e-33	0.25399	1.099
Mof_Co	Co	0.68292	0.5	0.75399	1.106
Mof_Cl	Cl	0.75	0.5	0.25	-0.841
Mof_Cl	Cl	0.25	0.5	0.25	-0.841
Mof_Cl	Cl	0.25	0.5	0.75	-0.841
Mof_Cl	Cl	0.75	0.5	0.75	-0.841
Mof_Cl	Cl	0.25	0.75	0.5	-0.841
Mof_Cl	Cl	0.25	0.25	0.5	-0.841
Mof_Cl	Cl	0.75	0.25	0.5	-0.841
Mof_Cl	Cl	0.75	0.75	0.5	-0.841
Mof_Cl	Cl	0.5	0.25	0.75	-0.841
Mof_Cl	Cl	0.5	0.25	0.25	-0.841
Mof_Cl	Cl	0.5	0.75	0.25	-0.841
Mof_Cl	Cl	0.5	0.75	0.75	-0.841
Mof_Cl	Cl	-2.83013e-33	0.25	0.25	-0.852
Mof_Cl	Cl	-2.83013e-33	0.75	0.25	-0.852
Mof_Cl	Cl	2.81205e-33	0.75	0.75	-0.852
Mof_Cl	Cl	-4.7229e-33	0.25	0.75	-0.852
Mof_Cl	Cl	0.25	0.75	-0	-0.852
Mof_Cl	Cl	0.75	0.75	-0	-0.852
Mof_Cl	Cl	0.75	0.25	-0	-0.852
Mof_Cl	Cl	0.25	0.25	-0	-0.852
Mof_Cl	Cl	0.75	0	0.75	-0.852
Mof_Cl	Cl	0.75	0	0.25	-0.852
Mof_Cl	Cl	0.25	0	0.25	-0.852
Mof_Cl	Cl	0.25	0	0.75	-0.852
_end
