data_functionalizedCrystal
_audit_creation_method	'EQeq! by Chris Wilmer'
_symmetry_space_group_name_H-M	'P1'
_symmetry_Int_Tables_number	1
_symmetry_cell_setting	triclinic
loop_
_symmetry_equiv_pos_as_xyz
  x,y,z
_cell_length_a	8.7407
_cell_length_b	33.9886
_cell_length_c	8.6771
_cell_angle_alpha	90
_cell_angle_beta	107.725
_cell_angle_gamma	90
loop_
_atom_site_label
_atom_site_type_symbol
_atom_site_fract_x
_atom_site_fract_y
_atom_site_fract_z
_atom_site_charge
Mof_Cu	Cu	0.75056	0.20358	0.48505	0.948
Mof_Cu	Cu	0.73979	0.04573	0.49924	0.948
Mof_O 	O 	0.89475	0.15421	0.61392	-0.257
Mof_O 	O 	0.85275	0.09016	0.62874	-0.291
Mof_O 	O 	0.622	0.15999	0.36281	-0.289
Mof_O 	O 	0.61334	0.09481	0.34448	-0.253
Mof_O 	O 	0.62451	0.20661	0.64767	-0.273
Mof_O 	O 	0.5938	0.24885	0.8313	-0.247
Mof_O 	O 	0.87709	0.24604	0.62152	-0.292
Mof_O 	O 	0.8631	0.28759	0.81501	-0.286
Mof_O 	O 	0.90827	0.04046	0.38243	-0.274
Mof_O 	O 	0.0904	0.999	0.3463	-0.248
Mof_O 	O 	0.57127	0.04165	0.6161	-0.281
Mof_O 	O 	0.38	0.99929	0.62764	-0.29
Mof_C 	C 	0.8196	0.12345	0.5647	0.229
Mof_C 	C 	0.6713	0.12595	0.4098	0.231
Mof_C 	C 	0.8146	0.25882	0.7246	0.239
Mof_C 	C 	0.6644	0.23659	0.7379	0.215
Mof_C 	C 	0.0008	0.01101	0.4217	0.229
Mof_C 	C 	0.4857	0.01186	0.5706	0.226
Mof_Cu	Cu	0.24944	0.70358	0.01495	0.943
Mof_Cu	Cu	0.26021	0.54573	0.00076	0.947
Mof_O 	O 	0.10525	0.65421	0.88608	-0.252
Mof_O 	O 	0.14725	0.59016	0.87126	-0.289
Mof_O 	O 	0.378	0.65999	0.13719	-0.29
Mof_O 	O 	0.38666	0.59481	0.15552	-0.253
Mof_O 	O 	0.37549	0.70661	0.85233	-0.266
Mof_O 	O 	0.4062	0.74885	0.6687	-0.242
Mof_O 	O 	0.12291	0.74604	0.87848	-0.283
Mof_O 	O 	0.1369	0.78759	0.68499	-0.281
Mof_O 	O 	0.09173	0.54046	0.11757	-0.279
Mof_O 	O 	0.9096	0.499	0.1537	-0.248
Mof_O 	O 	0.42873	0.54165	0.8839	-0.278
Mof_O 	O 	0.62	0.49929	0.87236	-0.29
Mof_C 	C 	0.1804	0.62345	0.9353	0.24
Mof_C 	C 	0.3287	0.62595	0.0902	0.22
Mof_C 	C 	0.1854	0.75882	0.7754	0.24
Mof_C 	C 	0.3356	0.73659	0.7621	0.216
Mof_C 	C 	0.9992	0.51101	0.0783	0.234
Mof_C 	C 	0.5143	0.51186	0.9294	0.226
Mof_Cu	Cu	0.24944	0.79642	0.51495	0.949
Mof_Cu	Cu	0.26021	0.95427	0.50076	0.949
Mof_O 	O 	0.10525	0.84579	0.38608	-0.257
Mof_O 	O 	0.14725	0.90984	0.37126	-0.291
Mof_O 	O 	0.378	0.84001	0.63719	-0.289
Mof_O 	O 	0.38666	0.90519	0.65552	-0.253
Mof_O 	O 	0.37549	0.79339	0.35233	-0.273
Mof_O 	O 	0.4062	0.75115	0.1687	-0.247
Mof_O 	O 	0.12291	0.75396	0.37848	-0.292
Mof_O 	O 	0.1369	0.71241	0.18499	-0.286
Mof_O 	O 	0.09173	0.95954	0.61757	-0.274
Mof_O 	O 	0.9096	0.001	0.6537	-0.248
Mof_O 	O 	0.42873	0.95835	0.3839	-0.281
Mof_O 	O 	0.62	0.00071	0.37236	-0.29
Mof_C 	C 	0.1804	0.87655	0.4353	0.229
Mof_C 	C 	0.3287	0.87405	0.5902	0.231
Mof_C 	C 	0.1854	0.74118	0.2754	0.239
Mof_C 	C 	0.3356	0.76341	0.2621	0.215
Mof_C 	C 	0.9992	0.98899	0.5783	0.229
Mof_C 	C 	0.5143	0.98814	0.4294	0.226
Mof_Cu	Cu	0.75056	0.29642	0.98505	0.943
Mof_Cu	Cu	0.73979	0.45427	0.99924	0.947
Mof_O 	O 	0.89475	0.34579	0.11392	-0.252
Mof_O 	O 	0.85275	0.40984	0.12874	-0.289
Mof_O 	O 	0.622	0.34001	0.86281	-0.29
Mof_O 	O 	0.61334	0.40519	0.84448	-0.253
Mof_O 	O 	0.62451	0.29339	0.14767	-0.266
Mof_O 	O 	0.5938	0.25115	0.3313	-0.242
Mof_O 	O 	0.87709	0.25396	0.12152	-0.283
Mof_O 	O 	0.8631	0.21241	0.31501	-0.281
Mof_O 	O 	0.90827	0.45954	0.88243	-0.279
Mof_O 	O 	0.0904	0.501	0.8463	-0.248
Mof_O 	O 	0.57127	0.45835	0.1161	-0.278
Mof_O 	O 	0.38	0.50071	0.12764	-0.29
Mof_C 	C 	0.8196	0.37655	0.0647	0.24
Mof_C 	C 	0.6713	0.37405	0.9098	0.22
Mof_C 	C 	0.8146	0.24118	0.2246	0.24
Mof_C 	C 	0.6644	0.26341	0.2379	0.216
Mof_C 	C 	0.0008	0.48899	0.9217	0.234
Mof_C 	C 	0.4857	0.48814	0.0706	0.226
_end
