data_functionalizedCrystal
_audit_creation_method	'EQeq! by Chris Wilmer'
_symmetry_space_group_name_H-M	'P1'
_symmetry_Int_Tables_number	1
_symmetry_cell_setting	triclinic
loop_
_symmetry_equiv_pos_as_xyz
  x,y,z
_cell_length_a	7.0665
_cell_length_b	14.5262
_cell_length_c	16.7109
_cell_angle_alpha	104.066
_cell_angle_beta	102.206
_cell_angle_gamma	90
loop_
_atom_site_label
_atom_site_type_symbol
_atom_site_fract_x
_atom_site_fract_y
_atom_site_fract_z
_atom_site_charge
Mof_Tb	Tb	0.50772	0.96952	0.50268	2.178
Mof_Tb	Tb	0.00504	0.03048	0.49732	2.045
Mof_H 	H 	0.2921	0.527	0.101	0.049
Mof_H 	H 	0.3151	0.4339	0.0332	0.052
Mof_H 	H 	0.8914	0.4957	0.1132	0.007
Mof_H 	H 	0.9145	0.429	0.1758	0.009
Mof_H 	H 	0.3815	0.346	0.1336	0.036
Mof_H 	H 	0.3625	0.4339	0.2072	0.036
Mof_H 	H 	0.9596	0.2867	0.0714	0.13
Mof_H 	H 	0.894	0.3525	0.0096	0.12
Mof_H 	H 	0.5952	0.3412	0.2526	0.149
Mof_H 	H 	0.7974	0.2611	0.3392	-0.011
Mof_H 	H 	0.337	0.1254	0.3708	-0.047
Mof_H 	H 	0.1361	0.2058	0.2862	0.151
Mof_H 	H 	0.2694	0.2087	0.8666	0.096
Mof_H 	H 	0.1257	0.1167	0.7326	0.02
Mof_H 	H 	0.615	0.1278	0.7998	0.02
Mof_H 	H 	0.7568	0.2198	0.9322	0.079
Mof_H 	H 	0.713	0.5633	0.2034	0.167
Mof_H 	H 	0.5619	0.6842	0.2814	-0.039
Mof_H 	H 	0.0792	0.7883	0.4282	-0.07
Mof_H 	H 	0.2303	0.6755	0.342	0.199
Mof_H 	H 	0.1911	0.473	0.899	0.03
Mof_H 	H 	0.2819	0.5661	0.9668	0.029
Mof_H 	H 	0.7782	0.5043	0.8868	0.005
Mof_H 	H 	0.7387	0.571	0.8242	0.007
Mof_H 	H 	0.2479	0.654	0.8664	0.02
Mof_H 	H 	0.1553	0.5661	0.7928	0.021
Mof_H 	H 	0.8882	0.7133	0.9286	0.009
Mof_H 	H 	0.8844	0.6475	0.9904	-0.004
Mof_H 	H 	0.3426	0.6588	0.7474	0.093
Mof_H 	H 	0.4582	0.7389	0.6608	0.032
Mof_H 	H 	0.9662	0.8746	0.6292	0.089
Mof_H 	H 	0.8499	0.7942	0.7138	0.063
Mof_H 	H 	0.4028	0.7913	0.1334	0.16
Mof_H 	H 	0.3931	0.8833	0.2674	-0.044
Mof_H 	H 	0.8152	0.8722	0.2002	-0.05
Mof_H 	H 	0.8246	0.7802	0.0678	0.152
Mof_H 	H 	0.5096	0.4367	0.7966	0.147
Mof_H 	H 	0.2805	0.3158	0.7186	-0.041
Mof_H 	H 	0.651	0.2117	0.5718	-0.069
Mof_H 	H 	0.8883	0.3245	0.658	0.188
Mof_C 	C 	0.12757	0.413	0.10674	-0.003
Mof_C 	C 	0.2226	0.4714	0.0608	-0.009
Mof_C 	C 	0.9845	0.4698	0.1524	0.144
Mof_C 	C 	0.292	0.3795	0.1656	0.028
Mof_C 	C 	0.0058	0.3293	0.0422	-0.155
Mof_C 	C 	0.3458	0.2768	0.2582	0.327
Mof_C 	C 	0.5436	0.297	0.2752	-0.31
Mof_C 	C 	0.664	0.2485	0.3276	0.204
Mof_C 	C 	0.5928	0.1836	0.3624	-0.257
Mof_C 	C 	0.3899	0.1678	0.3468	0.222
Mof_C 	C 	0.2699	0.2155	0.2954	-0.326
Mof_C 	C 	0.0248	0.2238	0.9114	0.145
Mof_C 	C 	0.1371	0.1928	0.8528	-0.162
Mof_C 	C 	0.0511	0.1375	0.7726	0.028
Mof_C 	C 	0.853	0.1137	0.7524	-0.116
Mof_C 	C 	0.7471	0.1444	0.8128	0.07
Mof_C 	C 	0.8314	0.1995	0.8922	-0.125
Mof_C 	C 	0.751	0.0595	0.6664	0.459
Mof_C 	C 	0.9861	0.6086	0.2626	0.455
Mof_C 	C 	0.7875	0.6102	0.2468	-0.382
Mof_C 	C 	0.6961	0.6811	0.295	0.241
Mof_C 	C 	0.807	0.747	0.363	-0.251
Mof_C 	C 	0.0056	0.7446	0.3818	0.229
Mof_C 	C 	0.0958	0.6761	0.3306	-0.421
Mof_C 	C 	0.7082	0.8236	0.4122	0.468
Mof_C 	C 	0.7285	0.1342	0.416	0.481
Mof_C 	C 	0.02083	0.587	0.89326	-0.115
Mof_C 	C 	0.1618	0.5286	0.9392	0.028
Mof_C 	C 	0.8321	0.5302	0.8476	0.132
Mof_C 	C 	0.1264	0.6205	0.8344	0.067
Mof_C 	C 	0.9636	0.6707	0.9578	0.16
Mof_C 	C 	0.0876	0.7232	0.7418	0.139
Mof_C 	C 	0.2684	0.703	0.7248	-0.162
Mof_C 	C 	0.3364	0.7515	0.6724	0.055
Mof_C 	C 	0.2304	0.8164	0.6376	-0.108
Mof_C 	C 	0.0431	0.8322	0.6532	-0.09
Mof_C 	C 	0.9745	0.7845	0.7046	-0.016
Mof_C 	C 	0.1134	0.7762	0.0886	0.303
Mof_C 	C 	0.2843	0.8072	0.1472	-0.325
Mof_C 	C 	0.2785	0.8625	0.2274	0.243
Mof_C 	C 	0.1006	0.8863	0.2476	-0.332
Mof_C 	C 	0.9343	0.8556	0.1872	0.288
Mof_C 	C 	0.9392	0.8005	0.1078	-0.307
Mof_C 	C 	0.0846	0.9405	0.3336	0.485
Mof_C 	C 	0.7235	0.3914	0.7374	0.342
Mof_C 	C 	0.5407	0.3898	0.7532	-0.335
Mof_C 	C 	0.4011	0.3189	0.705	0.225
Mof_C 	C 	0.444	0.253	0.637	-0.292
Mof_C 	C 	0.6238	0.2554	0.6182	0.259
Mof_C 	C 	0.7652	0.3239	0.6694	-0.337
Mof_C 	C 	0.296	0.1764	0.5878	0.48
Mof_C 	C 	0.3125	0.8658	0.584	0.42
Mof_O 	O 	0.83861	0.0409	0.60622	-0.595
Mof_O 	O 	0.5793	0.0345	0.6534	-0.491
Mof_O 	O 	0.90729	0.1567	0.43358	-0.453
Mof_O 	O 	0.66538	0.0665	0.44156	-0.647
Mof_O 	O 	0.80643	0.8894	0.47226	-0.618
Mof_O 	O 	0.52735	0.8247	0.3973	-0.48
Mof_O 	O 	0.21619	0.3179	0.20758	-0.267
Mof_O 	O 	0.09013	0.5445	0.21826	-0.342
Mof_O 	O 	0.12034	0.28	0.98768	-0.2
Mof_O 	O 	0.23239	0.9591	0.39378	-0.634
Mof_O 	O 	0.9259	0.9655	0.3466	-0.463
Mof_O 	O 	0.47371	0.8433	0.56642	-0.476
Mof_O 	O 	0.22382	0.9335	0.55844	-0.651
Mof_O 	O 	0.33417	0.1106	0.52774	-0.636
Mof_O 	O 	0.13005	0.1753	0.6027	-0.493
Mof_O 	O 	0.00861	0.6821	0.79242	-0.239
Mof_O 	O 	0.87187	0.4555	0.78174	-0.258
Mof_O 	O 	0.13266	0.72	0.01232	-0.281
Mof_O 	O 	0.0801	0.5	-0	-0.18
_end
