data_functionalizedCrystal
_audit_creation_method	'EQeq! by Chris Wilmer'
_symmetry_space_group_name_H-M	'P1'
_symmetry_Int_Tables_number	1
_symmetry_cell_setting	triclinic
loop_
_symmetry_equiv_pos_as_xyz
  x,y,z
_cell_length_a	12.002
_cell_length_b	15.372
_cell_length_c	18.018
_cell_angle_alpha	90.15
_cell_angle_beta	96.901
_cell_angle_gamma	92.013
loop_
_atom_site_label
_atom_site_type_symbol
_atom_site_fract_x
_atom_site_fract_y
_atom_site_fract_z
_atom_site_charge
Mof_Y 	Y 	0.30664	0.41735	0.77243	1.277
Mof_Y 	Y 	0.19166	0.21279	0.46725	1.308
Mof_Y 	Y 	0.70413	0.31185	0.46855	1.443
Mof_Y 	Y 	0.4016	0.22809	0.07069	1.245
Mof_Y 	Y 	0.90127	0.26527	0.06999	1.228
Mof_Y 	Y 	0.79283	0.08837	0.76312	1.269
Mof_N 	N 	0.4515	0.2964	0.7601	-0.162
Mof_C 	C 	0.5005	0.2657	0.8238	-0.067
Mof_C 	C 	0.5948	0.2234	0.8301	0.051
Mof_H 	H 	0.6254	0.2058	0.8773	0.023
Mof_N 	N 	0.6489	0.2046	0.7707	-0.159
Mof_C 	C 	0.6089	0.2401	0.7047	-0.082
Mof_C 	C 	0.5053	0.285	0.7005	0.054
Mof_H 	H 	0.4749	0.3069	0.6547	0.022
Mof_C 	C 	0.6746	0.2291	0.6386	0.405
Mof_O 	O 	0.7449	0.1737	0.6487	-0.407
Mof_O 	O 	0.6531	0.2804	0.5864	-0.426
Mof_C 	C 	0.4306	0.2855	0.8889	0.335
Mof_O 	O 	0.3476	0.3298	0.8765	-0.426
Mof_O 	O 	0.4697	0.252	0.9528	-0.391
Mof_N 	N 	0.1448	0.3045	0.7713	-0.167
Mof_C 	C 	0.0982	0.2754	0.7054	-0.061
Mof_C 	C 	0.991	0.2366	0.6964	0.052
Mof_H 	H 	0.958	0.2216	0.6485	0.038
Mof_N 	N 	0.9334	0.2201	0.7547	-0.152
Mof_C 	C 	0.9853	0.2473	0.8234	-0.097
Mof_C 	C 	0.0883	0.2878	0.8284	0.073
Mof_H 	H 	0.1215	0.3052	0.8756	0.016
Mof_C 	C 	0.1693	0.286	0.6435	0.357
Mof_O 	O 	0.2541	0.3395	0.6574	-0.381
Mof_O 	O 	0.1419	0.242	0.5849	-0.409
Mof_C 	C 	0.9213	0.2218	0.8877	0.4
Mof_O 	O 	0.8428	0.1675	0.8747	-0.434
Mof_O 	O 	0.9586	0.254	0.9477	-0.422
Mof_N 	N 	0.0655	0.0769	0.4929	-0.158
Mof_C 	C 	0.0573	0.0146	0.4418	-0.094
Mof_C 	C 	0.9919	0.9383	0.4494	0.06
Mof_H 	H 	0.9885	0.896	0.412	0.019
Mof_C 	C 	0.1231	0.0279	0.3776	0.418
Mof_O 	O 	0.1688	0.1	0.3749	-0.433
Mof_O 	O 	0.1251	0.9655	0.3347	-0.455
Mof_N 	N 	0.1168	0.2782	0.3411	-0.156
Mof_C 	C 	0.0081	0.2946	0.3324	-0.061
Mof_C 	C 	0.9557	0.3173	0.2616	0.056
Mof_H 	H 	0.884	0.3392	0.2582	0.027
Mof_N 	N 	0.0028	0.3094	0.2	-0.154
Mof_C 	C 	0.1086	0.2936	0.207	-0.072
Mof_C 	C 	0.169	0.2811	0.2769	0.047
Mof_H 	H 	0.2462	0.2745	0.2804	0.027
Mof_C 	C 	0.9526	0.2822	0.4009	0.364
Mof_O 	O 	0.0086	0.2507	0.4569	-0.402
Mof_O 	O 	0.8496	0.3058	0.3939	-0.393
Mof_C 	C 	0.1652	0.2706	0.1396	0.371
Mof_O 	O 	0.0989	0.2634	0.0807	-0.42
Mof_O 	O 	0.2682	0.2586	0.1479	-0.429
Mof_N 	N 	0.6216	0.2265	0.3467	-0.164
Mof_C 	C 	0.5102	0.2144	0.3363	-0.07
Mof_C 	C 	0.4507	0.1913	0.268	0.05
Mof_H 	H 	0.3759	0.1721	0.2654	0.021
Mof_N 	N 	0.5008	0.1968	0.206	-0.153
Mof_C 	C 	0.6144	0.2069	0.2161	-0.083
Mof_C 	C 	0.6725	0.2178	0.2845	0.063
Mof_H 	H 	0.7506	0.2194	0.2889	0.015
Mof_C 	C 	0.4502	0.2325	0.4047	0.37
Mof_O 	O 	0.5143	0.2676	0.4596	-0.414
Mof_O 	O 	0.3482	0.2187	0.4001	-0.428
Mof_C 	C 	0.666	0.223	0.1434	0.38
Mof_O 	O 	0.6008	0.2334	0.0846	-0.421
Mof_O 	O 	0.7695	0.2302	0.1512	-0.429
Mof_N 	N 	0.5784	0.4346	0.4955	-0.154
Mof_C 	C 	0.5464	0.4884	0.4369	-0.084
Mof_C 	C 	0.4705	0.5506	0.4428	0.077
Mof_H 	H 	0.4512	0.5853	0.4013	0.021
Mof_C 	C 	0.6033	0.471	0.3687	0.422
Mof_O 	O 	0.652	0.4032	0.3649	-0.421
Mof_O 	O 	0.5965	0.5306	0.3222	-0.437
Mof_N 	N 	0.4707	0.081	0.0241	-0.158
Mof_C 	C 	0.427	0.0096	0.0501	-0.084
Mof_C 	C 	0.4568	0.9278	0.0249	0.059
Mof_H 	H 	0.4242	0.8779	0.0435	0.021
Mof_C 	C 	0.3547	0.0205	0.11	0.357
Mof_O 	O 	0.3308	0.0971	0.123	-0.402
Mof_O 	O 	0.3171	0.9547	0.1431	-0.406
Mof_N 	N 	0.9754	0.4178	0.029	-0.153
Mof_C 	C 	0.9241	0.4884	0.0485	-0.081
Mof_C 	C 	0.947	0.5664	0.0177	0.059
Mof_H 	H 	0.9054	0.6131	0.03	0.023
Mof_C 	C 	0.8394	0.4746	0.1028	0.374
Mof_O 	O 	0.8224	0.3983	0.1206	-0.392
Mof_O 	O 	0.7952	0.5392	0.1269	-0.409
Mof_O 	O 	0.866	0.3513	0.5606	-0.224
Mof_N 	N 	0.8784	0.432	0.5419	0.055
Mof_O 	O 	0.8073	0.4554	0.4877	-0.213
Mof_O 	O 	0.9532	0.4806	0.5738	-0.108
Mof_Y 	Y 	0.69336	0.58265	0.22757	1.278
Mof_Y 	Y 	0.80834	0.78721	0.53275	1.309
Mof_Y 	Y 	0.29587	0.68815	0.53145	1.444
Mof_Y 	Y 	0.5984	0.77191	0.92931	1.246
Mof_Y 	Y 	0.09873	0.73473	0.93001	1.229
Mof_Y 	Y 	0.20717	0.91163	0.23688	1.27
Mof_N 	N 	0.5485	0.7036	0.2399	-0.161
Mof_C 	C 	0.4995	0.7343	0.1762	-0.066
Mof_C 	C 	0.4052	0.7766	0.1699	0.052
Mof_H 	H 	0.3746	0.7942	0.1227	0.024
Mof_N 	N 	0.3511	0.7954	0.2293	-0.158
Mof_C 	C 	0.3911	0.7599	0.2953	-0.081
Mof_C 	C 	0.4947	0.715	0.2995	0.054
Mof_H 	H 	0.5251	0.6931	0.3453	0.022
Mof_C 	C 	0.3254	0.7709	0.3614	0.405
Mof_O 	O 	0.2551	0.8263	0.3513	-0.407
Mof_O 	O 	0.3469	0.7196	0.4136	-0.426
Mof_C 	C 	0.5694	0.7145	0.1111	0.335
Mof_O 	O 	0.6524	0.6702	0.1235	-0.426
Mof_O 	O 	0.5303	0.748	0.0472	-0.391
Mof_N 	N 	0.8552	0.6955	0.2287	-0.167
Mof_C 	C 	0.9018	0.7246	0.2946	-0.061
Mof_C 	C 	0.009	0.7634	0.3036	0.052
Mof_H 	H 	0.042	0.7784	0.3515	0.038
Mof_N 	N 	0.0666	0.7799	0.2453	-0.152
Mof_C 	C 	0.0147	0.7527	0.1766	-0.097
Mof_C 	C 	0.9117	0.7122	0.1716	0.073
Mof_H 	H 	0.8785	0.6948	0.1244	0.016
Mof_C 	C 	0.8307	0.714	0.3565	0.357
Mof_O 	O 	0.7459	0.6605	0.3426	-0.381
Mof_O 	O 	0.8581	0.758	0.4151	-0.409
Mof_C 	C 	0.0787	0.7782	0.1123	0.4
Mof_O 	O 	0.1572	0.8325	0.1253	-0.434
Mof_O 	O 	0.0414	0.746	0.0523	-0.422
Mof_N 	N 	0.9345	0.9231	0.5071	-0.158
Mof_C 	C 	0.9427	0.9854	0.5582	-0.094
Mof_C 	C 	0.0081	0.0617	0.5506	0.06
Mof_H 	H 	0.0115	0.104	0.588	0.019
Mof_C 	C 	0.8769	0.9721	0.6224	0.418
Mof_O 	O 	0.8312	0.9	0.6251	-0.433
Mof_O 	O 	0.8749	0.0345	0.6653	-0.455
Mof_N 	N 	0.8832	0.7218	0.6589	-0.156
Mof_C 	C 	0.9919	0.7054	0.6676	-0.061
Mof_C 	C 	0.0443	0.6827	0.7384	0.056
Mof_H 	H 	0.116	0.6608	0.7418	0.027
Mof_N 	N 	0.9972	0.6906	0.8	-0.154
Mof_C 	C 	0.8914	0.7064	0.793	-0.072
Mof_C 	C 	0.831	0.7189	0.7231	0.047
Mof_H 	H 	0.7538	0.7255	0.7196	0.027
Mof_C 	C 	0.0474	0.7178	0.5991	0.364
Mof_O 	O 	0.9914	0.7493	0.5431	-0.402
Mof_O 	O 	0.1504	0.6942	0.6061	-0.393
Mof_C 	C 	0.8348	0.7294	0.8604	0.371
Mof_O 	O 	0.9011	0.7366	0.9193	-0.42
Mof_O 	O 	0.7318	0.7414	0.8521	-0.429
Mof_N 	N 	0.3784	0.7735	0.6533	-0.164
Mof_C 	C 	0.4898	0.7856	0.6637	-0.07
Mof_C 	C 	0.5493	0.8087	0.732	0.05
Mof_H 	H 	0.6241	0.8279	0.7346	0.021
Mof_N 	N 	0.4992	0.8032	0.794	-0.153
Mof_C 	C 	0.3856	0.7931	0.7839	-0.083
Mof_C 	C 	0.3275	0.7822	0.7155	0.063
Mof_H 	H 	0.2494	0.7806	0.7111	0.015
Mof_C 	C 	0.5498	0.7675	0.5953	0.37
Mof_O 	O 	0.4857	0.7324	0.5404	-0.414
Mof_O 	O 	0.6518	0.7813	0.5999	-0.428
Mof_C 	C 	0.334	0.777	0.8566	0.38
Mof_O 	O 	0.3992	0.7666	0.9154	-0.421
Mof_O 	O 	0.2305	0.7698	0.8488	-0.429
Mof_N 	N 	0.4216	0.5654	0.5045	-0.154
Mof_C 	C 	0.4536	0.5116	0.5631	-0.084
Mof_C 	C 	0.5295	0.4494	0.5572	0.077
Mof_H 	H 	0.5488	0.4147	0.5987	0.021
Mof_C 	C 	0.3967	0.529	0.6313	0.422
Mof_O 	O 	0.348	0.5968	0.6351	-0.421
Mof_O 	O 	0.4035	0.4694	0.6778	-0.437
Mof_N 	N 	0.5293	0.919	0.9759	-0.158
Mof_C 	C 	0.573	0.9904	0.9499	-0.084
Mof_C 	C 	0.5432	0.0722	0.9751	0.059
Mof_H 	H 	0.5758	0.1221	0.9565	0.021
Mof_C 	C 	0.6453	0.9795	0.89	0.357
Mof_O 	O 	0.6692	0.9029	0.877	-0.402
Mof_O 	O 	0.6829	0.0453	0.8569	-0.406
Mof_N 	N 	0.0246	0.5822	0.971	-0.153
Mof_C 	C 	0.0759	0.5116	0.9515	-0.081
Mof_C 	C 	0.053	0.4336	0.9823	0.059
Mof_H 	H 	0.0946	0.3869	0.97	0.023
Mof_C 	C 	0.1606	0.5254	0.8972	0.374
Mof_O 	O 	0.1776	0.6017	0.8794	-0.392
Mof_O 	O 	0.2048	0.4608	0.8731	-0.409
Mof_O 	O 	0.134	0.6487	0.4394	-0.224
Mof_N 	N 	0.1216	0.568	0.4581	0.055
Mof_O 	O 	0.1927	0.5446	0.5123	-0.213
Mof_O 	O 	0.0468	0.5194	0.4262	-0.108
_end
