data_functionalizedCrystal
_audit_creation_method	'EQeq! by Chris Wilmer'
_symmetry_space_group_name_H-M	'P1'
_symmetry_Int_Tables_number	1
_symmetry_cell_setting	triclinic
loop_
_symmetry_equiv_pos_as_xyz
  x,y,z
_cell_length_a	11.36
_cell_length_b	11.799
_cell_length_c	16.35
_cell_angle_alpha	74.017
_cell_angle_beta	82.914
_cell_angle_gamma	63.634
loop_
_atom_site_label
_atom_site_type_symbol
_atom_site_fract_x
_atom_site_fract_y
_atom_site_fract_z
_atom_site_charge
Mof_C 	C 	0.0736	0.711	0.3968	0.386
Mof_C 	C 	0.9456	0.7002	0.3987	-0.127
Mof_C 	C 	0.9485	0.5821	0.4025	0.041
Mof_H 	H 	0.0288	0.5093	0.4049	0.021
Mof_C 	C 	0.831	0.5697	0.403	-0.111
Mof_C 	C 	0.7133	0.679	0.401	-0.008
Mof_H 	H 	0.6349	0.6721	0.4008	0.035
Mof_C 	C 	0.7095	0.8008	0.3993	-0.003
Mof_C 	C 	0.8267	0.809	0.3987	-0.006
Mof_H 	H 	0.8263	0.8881	0.3983	0.043
Mof_C 	C 	0.8282	0.4424	0.4077	0.381
Mof_C 	C 	0.577	0.9122	0.4006	-0.015
Mof_C 	C 	0.4742	0.8824	0.4411	0.019
Mof_H 	H 	0.4912	0.7959	0.4669	0.016
Mof_C 	C 	0.3469	0.9802	0.4434	-0.141
Mof_C 	C 	0.3226	0.1087	0.405	0.075
Mof_H 	H 	0.2374	0.1743	0.4034	0.027
Mof_C 	C 	0.4234	0.1399	0.3694	-0.121
Mof_C 	C 	0.55	0.0415	0.366	0.002
Mof_H 	H 	0.617	0.0637	0.34	0.042
Mof_C 	C 	0.4017	0.2808	0.3345	0.402
Mof_C 	C 	0.2424	0.9396	0.4841	0.409
Mof_C 	C 	0.1499	0.8317	0.7135	0.357
Mof_C 	C 	0.1614	0.8822	0.7862	-0.074
Mof_C 	C 	0.2629	0.8002	0.8431	-0.029
Mof_H 	H 	0.3215	0.72	0.8331	0.06
Mof_C 	C 	0.2804	0.8313	0.9122	0.029
Mof_C 	C 	0.1902	0.9552	0.9281	-0.041
Mof_H 	H 	0.1969	0.9775	0.9771	0.067
Mof_C 	C 	0.0935	0.0398	0.8687	-0.054
Mof_C 	C 	0.0769	0.0028	0.7988	0.017
Mof_H 	H 	0.0087	0.0596	0.7608	0.061
Mof_C 	C 	0.9979	0.1705	0.8819	0.322
Mof_C 	C 	0.3944	0.7405	0.9709	-0.008
Mof_C 	C 	0.5119	0.6645	0.9359	-0.011
Mof_H 	H 	0.5176	0.6756	0.8772	0.054
Mof_C 	C 	0.6205	0.5729	0.9853	-0.089
Mof_C 	C 	0.6101	0.5547	0.0739	0.055
Mof_H 	H 	0.6828	0.497	0.1081	0.032
Mof_C 	C 	0.493	0.6218	0.11	-0.149
Mof_C 	C 	0.3822	0.718	0.0586	0.007
Mof_H 	H 	0.3035	0.7646	0.0836	0.046
Mof_C 	C 	0.7415	0.4895	0.9419	0.362
Mof_C 	C 	0.4761	0.5879	0.2048	0.463
Mof_Zn	Zn	0.07262	0.83244	0.54857	1.221
Mof_Zn	Zn	0.39331	0.61703	0.6401	1.211
Mof_Zn	Zn	0.20368	0.55884	0.24711	1.223
Mof_O 	O 	0.1683	0.6321	0.363	-0.399
Mof_O 	O 	0.9175	0.2461	0.8234	-0.396
Mof_O 	O 	0.9366	0.3491	0.3978	-0.425
Mof_O 	O 	0.7224	0.4359	0.4229	-0.479
Mof_O 	O 	0.5029	0.3011	0.3186	-0.458
Mof_O 	O 	0.2857	0.364	0.3248	-0.436
Mof_O 	O 	0.1243	0.0201	0.4716	-0.488
Mof_O 	O 	0.2732	0.8244	0.5283	-0.494
Mof_O 	O 	0.0795	0.7958	0.4263	-0.404
Mof_O 	O 	0.0083	0.2017	0.9473	-0.22
Mof_O 	O 	0.0533	0.9063	0.6612	-0.384
Mof_O 	O 	0.2295	0.7212	0.7086	-0.444
Mof_O 	O 	0.5796	0.5397	0.2495	-0.601
Mof_H 	H 	0.6423	0.5723	0.2342	0.24
Mof_O 	O 	0.3682	0.6036	0.236	-0.46
Mof_O 	O 	0.8344	0.402	0.9893	-0.236
Mof_O 	O 	0.7368	0.5149	0.8637	-0.412
Mof_C 	C 	0.9264	0.289	0.6032	0.385
Mof_C 	C 	0.0544	0.2998	0.6013	-0.128
Mof_C 	C 	0.0515	0.4179	0.5975	0.04
Mof_H 	H 	0.9712	0.4907	0.5951	0.02
Mof_C 	C 	0.169	0.4303	0.597	-0.112
Mof_C 	C 	0.2867	0.321	0.599	-0.009
Mof_H 	H 	0.3651	0.3279	0.5992	0.035
Mof_C 	C 	0.2905	0.1992	0.6007	-0.003
Mof_C 	C 	0.1733	0.191	0.6013	-0.006
Mof_H 	H 	0.1737	0.1119	0.6017	0.043
Mof_C 	C 	0.1718	0.5576	0.5923	0.381
Mof_C 	C 	0.423	0.0878	0.5994	-0.015
Mof_C 	C 	0.5258	0.1176	0.5589	0.019
Mof_H 	H 	0.5088	0.2041	0.5331	0.016
Mof_C 	C 	0.6531	0.0198	0.5566	-0.141
Mof_C 	C 	0.6774	0.8913	0.595	0.075
Mof_H 	H 	0.7626	0.8257	0.5966	0.027
Mof_C 	C 	0.5766	0.8601	0.6306	-0.121
Mof_C 	C 	0.45	0.9585	0.634	0.002
Mof_H 	H 	0.383	0.9363	0.66	0.042
Mof_C 	C 	0.5983	0.7192	0.6655	0.402
Mof_C 	C 	0.7576	0.0604	0.5159	0.409
Mof_C 	C 	0.8501	0.1683	0.2865	0.357
Mof_C 	C 	0.8386	0.1178	0.2138	-0.074
Mof_C 	C 	0.7371	0.1998	0.1569	-0.029
Mof_H 	H 	0.6785	0.28	0.1669	0.06
Mof_C 	C 	0.7196	0.1687	0.0878	0.029
Mof_C 	C 	0.8098	0.0448	0.0719	-0.041
Mof_H 	H 	0.8031	0.0225	0.0229	0.067
Mof_C 	C 	0.9065	0.9602	0.1313	-0.054
Mof_C 	C 	0.9231	0.9972	0.2012	0.017
Mof_H 	H 	0.9913	0.9404	0.2392	0.061
Mof_C 	C 	0.0021	0.8295	0.1181	0.322
Mof_C 	C 	0.6056	0.2595	0.0291	-0.008
Mof_C 	C 	0.4881	0.3355	0.0641	-0.011
Mof_H 	H 	0.4824	0.3244	0.1228	0.054
Mof_C 	C 	0.3795	0.4271	0.0147	-0.089
Mof_C 	C 	0.3899	0.4453	0.9261	0.055
Mof_H 	H 	0.3172	0.503	0.8919	0.032
Mof_C 	C 	0.507	0.3782	0.89	-0.149
Mof_C 	C 	0.6178	0.282	0.9414	0.007
Mof_H 	H 	0.6965	0.2354	0.9164	0.046
Mof_C 	C 	0.2585	0.5105	0.0581	0.362
Mof_C 	C 	0.5239	0.4121	0.7952	0.463
Mof_Zn	Zn	0.92738	0.16756	0.45143	1.221
Mof_Zn	Zn	0.60669	0.38297	0.3599	1.211
Mof_Zn	Zn	0.79632	0.44116	0.75289	1.223
Mof_O 	O 	0.8317	0.3679	0.637	-0.399
Mof_O 	O 	0.0825	0.7539	0.1766	-0.396
Mof_O 	O 	0.0634	0.6509	0.6022	-0.425
Mof_O 	O 	0.2776	0.5641	0.5771	-0.479
Mof_O 	O 	0.4971	0.6989	0.6814	-0.458
Mof_O 	O 	0.7143	0.636	0.6752	-0.436
Mof_O 	O 	0.8757	0.9799	0.5284	-0.488
Mof_O 	O 	0.7268	0.1756	0.4717	-0.494
Mof_O 	O 	0.9205	0.2042	0.5737	-0.404
Mof_O 	O 	0.9917	0.7983	0.0527	-0.22
Mof_O 	O 	0.9467	0.0937	0.3388	-0.384
Mof_O 	O 	0.7705	0.2788	0.2914	-0.444
Mof_O 	O 	0.4204	0.4603	0.7505	-0.601
Mof_H 	H 	0.3577	0.4277	0.7658	0.24
Mof_O 	O 	0.6318	0.3964	0.764	-0.46
Mof_O 	O 	0.1656	0.598	0.0107	-0.236
Mof_O 	O 	0.2632	0.4851	0.1363	-0.412
_end
