data_functionalizedCrystal
_audit_creation_method	'EQeq! by Chris Wilmer'
_symmetry_space_group_name_H-M	'P1'
_symmetry_Int_Tables_number	1
_symmetry_cell_setting	triclinic
loop_
_symmetry_equiv_pos_as_xyz
  x,y,z
_cell_length_a	18.191
_cell_length_b	17.177
_cell_length_c	13.6923
_cell_angle_alpha	90
_cell_angle_beta	129.741
_cell_angle_gamma	90
loop_
_atom_site_label
_atom_site_type_symbol
_atom_site_fract_x
_atom_site_fract_y
_atom_site_fract_z
_atom_site_charge
Mof_C 	C 	0.3421	0.16623	0.2506	0.35
Mof_C 	C 	0.3378	0.10033	0.3195	-0.069
Mof_C 	C 	0.2609	0.0492	0.2544	-0.03
Mof_H 	H 	0.2089	0.0587	0.1697	0.056
Mof_C 	C 	0.2607	0.9843	0.3143	-0.014
Mof_H 	H 	0.2089	0.9503	0.2691	0.044
Mof_C 	C 	0.3371	0.9696	0.4409	-0.072
Mof_C 	C 	0.4123	0.0218	0.5067	-0.022
Mof_H 	H 	0.463	0.0137	0.5925	0.058
Mof_C 	C 	0.4127	0.086	0.4461	-0.02
Mof_H 	H 	0.4644	0.1201	0.4915	0.053
Mof_C 	C 	0.3416	0.89654	0.5062	0.363
Mof_C 	C 	0.4636	0.3284	0.0222	-0.036
Mof_H 	H 	0.4693	0.2779	0.0032	0.06
Mof_C 	C 	0.4934	0.3903	0.9916	0.012
Mof_H 	H 	0.52	0.3811	0.953	0.033
Mof_C 	C 	0.4845	0.4664	0.0173	-0.063
Mof_C 	C 	0.4432	0.4768	0.074	-0.039
Mof_H 	H 	0.4355	0.5268	0.0924	0.04
Mof_C 	C 	0.4139	0.414	0.1028	-0.004
Mof_H 	H 	0.3851	0.4218	0.1387	0.053
Mof_N 	N 	0.4263	0.34093	0.0797	-0.037
Mof_O 	O 	0.42156	0.20048	0.3103	-0.409
Mof_O 	O 	0.26787	0.18176	0.1399	-0.399
Mof_O 	O 	0.4141	0.88958	0.6212	-0.413
Mof_O 	O 	0.27345	0.84896	0.4395	-0.41
Mof_O 	O 	0.39984	0.28121	0.1134	-0.367
Mof_C 	C 	0.8421	0.66623	0.2506	0.348
Mof_C 	C 	0.8378	0.60033	0.3195	-0.062
Mof_C 	C 	0.7609	0.5492	0.2544	-0.019
Mof_H 	H 	0.7089	0.5587	0.1697	0.055
Mof_C 	C 	0.7607	0.4843	0.3143	-0.02
Mof_H 	H 	0.7089	0.4503	0.2691	0.054
Mof_C 	C 	0.8371	0.4696	0.4409	-0.06
Mof_C 	C 	0.9123	0.5218	0.5067	-0.018
Mof_H 	H 	0.963	0.5137	0.5925	0.076
Mof_C 	C 	0.9127	0.586	0.4461	-0.012
Mof_H 	H 	0.9644	0.6201	0.4915	0.069
Mof_C 	C 	0.8416	0.39654	0.5062	0.359
Mof_C 	C 	0.9636	0.8284	0.0222	-0.093
Mof_H 	H 	0.9693	0.7779	0.0032	0.1
Mof_C 	C 	0.9934	0.8903	0.9916	0.154
Mof_H 	H 	0.02	0.8811	0.953	-0.056
Mof_C 	C 	0.9845	0.9664	0.0173	-0.074
Mof_C 	C 	0.9432	0.9768	0.074	-0.011
Mof_H 	H 	0.9355	0.0268	0.0924	0.039
Mof_C 	C 	0.9139	0.914	0.1028	-0.01
Mof_H 	H 	0.8851	0.9218	0.1387	0.064
Mof_N 	N 	0.9263	0.84093	0.0797	-0.02
Mof_O 	O 	0.92156	0.70048	0.3103	-0.38
Mof_O 	O 	0.76787	0.68176	0.1399	-0.395
Mof_O 	O 	0.9141	0.38958	0.6212	-0.388
Mof_O 	O 	0.77345	0.34896	0.4395	-0.404
Mof_O 	O 	0.89984	0.78121	0.1134	-0.352
Mof_C 	C 	0.6579	0.16623	0.2494	0.334
Mof_C 	C 	0.6622	0.10033	0.1805	-0.021
Mof_C 	C 	0.7391	0.0492	0.2456	-0.075
Mof_H 	H 	0.7911	0.0587	0.3303	0.078
Mof_C 	C 	0.7393	0.9843	0.1857	0.044
Mof_H 	H 	0.7911	0.9503	0.2309	0.039
Mof_C 	C 	0.6629	0.9696	0.0591	-0.153
Mof_C 	C 	0.5877	0.0218	0.9933	0.085
Mof_H 	H 	0.537	0.0137	0.9075	0.024
Mof_C 	C 	0.5873	0.086	0.0539	-0.103
Mof_H 	H 	0.5356	0.1201	0.0085	0.076
Mof_C 	C 	0.6584	0.89654	0.9938	0.418
Mof_C 	C 	0.5364	0.3284	0.4778	0.033
Mof_H 	H 	0.5307	0.2779	0.4968	0.042
Mof_C 	C 	0.5066	0.3903	0.5084	-0.092
Mof_H 	H 	0.48	0.3811	0.547	0.065
Mof_C 	C 	0.5155	0.4664	0.4827	0.037
Mof_C 	C 	0.5568	0.4768	0.426	-0.1
Mof_H 	H 	0.5645	0.5268	0.4076	0.065
Mof_C 	C 	0.5861	0.414	0.3972	0.037
Mof_H 	H 	0.6149	0.4218	0.3613	0.04
Mof_N 	N 	0.5737	0.34093	0.4203	-0.055
Mof_O 	O 	0.57844	0.20048	0.1897	-0.406
Mof_O 	O 	0.73213	0.18176	0.3601	-0.389
Mof_O 	O 	0.5859	0.88958	0.8788	-0.425
Mof_O 	O 	0.72655	0.84896	0.0605	-0.429
Mof_O 	O 	0.60016	0.28121	0.3866	-0.363
Mof_C 	C 	0.1579	0.66623	0.2494	0.338
Mof_C 	C 	0.1622	0.60033	0.1805	-0.033
Mof_C 	C 	0.2391	0.5492	0.2456	-0.073
Mof_H 	H 	0.2911	0.5587	0.3303	0.075
Mof_C 	C 	0.2393	0.4843	0.1857	0.037
Mof_H 	H 	0.2911	0.4503	0.2309	0.032
Mof_C 	C 	0.1629	0.4696	0.0591	-0.156
Mof_C 	C 	0.0877	0.5218	0.9933	0.071
Mof_H 	H 	0.037	0.5137	0.9075	0.011
Mof_C 	C 	0.0873	0.586	0.0539	-0.099
Mof_H 	H 	0.0356	0.6201	0.0085	0.058
Mof_C 	C 	0.1584	0.39654	0.9938	0.417
Mof_C 	C 	0.0364	0.8284	0.4778	0.093
Mof_H 	H 	0.0307	0.7779	0.4968	0.002
Mof_C 	C 	0.0066	0.8903	0.5084	-0.236
Mof_H 	H 	0.98	0.8811	0.547	0.154
Mof_C 	C 	0.0155	0.9664	0.4827	0.051
Mof_C 	C 	0.0568	0.9768	0.426	-0.123
Mof_H 	H 	0.0645	0.0268	0.4076	0.062
Mof_C 	C 	0.0861	0.914	0.3972	0.042
Mof_H 	H 	0.1149	0.9218	0.3613	0.03
Mof_N 	N 	0.0737	0.84093	0.4203	-0.072
Mof_O 	O 	0.07844	0.70048	0.1897	-0.427
Mof_O 	O 	0.23213	0.68176	0.3601	-0.393
Mof_O 	O 	0.0859	0.38958	0.8788	-0.442
Mof_O 	O 	0.22655	0.34896	0.0605	-0.433
Mof_O 	O 	0.10016	0.78121	0.3866	-0.371
Mof_C 	C 	0.6579	0.83377	0.7494	0.351
Mof_C 	C 	0.6622	0.89967	0.6805	-0.067
Mof_C 	C 	0.7391	0.9508	0.7456	-0.016
Mof_H 	H 	0.7911	0.9413	0.8303	0.062
Mof_C 	C 	0.7393	0.0157	0.6857	-0.021
Mof_H 	H 	0.7911	0.0497	0.7309	0.064
Mof_C 	C 	0.6629	0.0304	0.5591	-0.068
Mof_C 	C 	0.5877	0.9782	0.4933	-0.021
Mof_H 	H 	0.537	0.9863	0.4075	0.057
Mof_C 	C 	0.5873	0.914	0.5539	-0.017
Mof_H 	H 	0.5356	0.8799	0.5085	0.051
Mof_C 	C 	0.6584	0.10346	0.4938	0.362
Mof_C 	C 	0.5364	0.6716	0.9778	0.101
Mof_H 	H 	0.5307	0.7221	0.9968	0.023
Mof_C 	C 	0.5066	0.6097	0.0084	-0.197
Mof_H 	H 	0.48	0.6189	0.047	0.098
Mof_C 	C 	0.5155	0.5336	0.9827	0.135
Mof_C 	C 	0.5568	0.5232	0.926	-0.161
Mof_H 	H 	0.5645	0.4732	0.9076	0.091
Mof_C 	C 	0.5861	0.586	0.8972	0.076
Mof_H 	H 	0.6149	0.5782	0.8613	0.027
Mof_N 	N 	0.5737	0.65907	0.9203	-0.072
Mof_O 	O 	0.57844	0.79952	0.6897	-0.408
Mof_O 	O 	0.73213	0.81824	0.8601	-0.386
Mof_O 	O 	0.5859	0.11042	0.3788	-0.415
Mof_O 	O 	0.72655	0.15104	0.5605	-0.404
Mof_O 	O 	0.60016	0.71879	0.8866	-0.358
Mof_C 	C 	0.1579	0.33377	0.7494	0.352
Mof_C 	C 	0.1622	0.39967	0.6805	-0.072
Mof_C 	C 	0.2391	0.4508	0.7456	-0.025
Mof_H 	H 	0.2911	0.4413	0.8303	0.063
Mof_C 	C 	0.2393	0.5157	0.6857	-0.017
Mof_H 	H 	0.2911	0.5497	0.7309	0.054
Mof_C 	C 	0.1629	0.5304	0.5591	-0.078
Mof_C 	C 	0.0877	0.4782	0.4933	-0.025
Mof_H 	H 	0.037	0.4863	0.4075	0.04
Mof_C 	C 	0.0873	0.414	0.5539	-0.024
Mof_H 	H 	0.0356	0.3799	0.5085	0.036
Mof_C 	C 	0.1584	0.60346	0.4938	0.364
Mof_C 	C 	0.0364	0.1716	0.9778	0.152
Mof_H 	H 	0.0307	0.2221	0.9968	-0.014
Mof_C 	C 	0.0066	0.1097	0.0084	-0.327
Mof_H 	H 	0.98	0.1189	0.047	0.18
Mof_C 	C 	0.0155	0.0336	0.9827	0.142
Mof_C 	C 	0.0568	0.0232	0.926	-0.181
Mof_H 	H 	0.0645	0.9732	0.9076	0.086
Mof_C 	C 	0.0861	0.086	0.8972	0.078
Mof_H 	H 	0.1149	0.0782	0.8613	0.017
Mof_N 	N 	0.0737	0.15907	0.9203	-0.088
Mof_O 	O 	0.07844	0.29952	0.6897	-0.429
Mof_O 	O 	0.23213	0.31824	0.8601	-0.389
Mof_O 	O 	0.0859	0.61042	0.3788	-0.432
Mof_O 	O 	0.22655	0.65104	0.5605	-0.409
Mof_O 	O 	0.10016	0.21879	0.8866	-0.366
Mof_C 	C 	0.3421	0.83377	0.7506	0.366
Mof_C 	C 	0.3378	0.89967	0.8195	-0.109
Mof_C 	C 	0.2609	0.9508	0.7544	0.023
Mof_H 	H 	0.2089	0.9413	0.6697	0.042
Mof_C 	C 	0.2607	0.0157	0.8143	-0.075
Mof_H 	H 	0.2089	0.0497	0.7691	0.067
Mof_C 	C 	0.3371	0.0304	0.9409	0.009
Mof_C 	C 	0.4123	0.9782	0.0067	-0.119
Mof_H 	H 	0.463	0.9863	0.0925	0.088
Mof_C 	C 	0.4127	0.914	0.9461	0.057
Mof_H 	H 	0.4644	0.8799	0.9915	0.031
Mof_C 	C 	0.3416	0.10346	0.0062	0.307
Mof_C 	C 	0.4636	0.6716	0.5222	0.032
Mof_H 	H 	0.4693	0.7221	0.5032	0.041
Mof_C 	C 	0.4934	0.6097	0.4916	-0.094
Mof_H 	H 	0.52	0.6189	0.453	0.065
Mof_C 	C 	0.4845	0.5336	0.5173	0.036
Mof_C 	C 	0.4432	0.5232	0.574	-0.101
Mof_H 	H 	0.4355	0.4732	0.5924	0.065
Mof_C 	C 	0.4139	0.586	0.6028	0.035
Mof_H 	H 	0.3851	0.5782	0.6387	0.04
Mof_N 	N 	0.4263	0.65907	0.5797	-0.055
Mof_O 	O 	0.42156	0.79952	0.8103	-0.411
Mof_O 	O 	0.26787	0.81824	0.6399	-0.398
Mof_O 	O 	0.4141	0.11042	0.1212	-0.403
Mof_O 	O 	0.27345	0.15104	0.9395	-0.383
Mof_O 	O 	0.39984	0.71879	0.6134	-0.364
Mof_C 	C 	0.8421	0.33377	0.7506	0.365
Mof_C 	C 	0.8378	0.39967	0.8195	-0.108
Mof_C 	C 	0.7609	0.4508	0.7544	0.035
Mof_H 	H 	0.7089	0.4413	0.6697	0.041
Mof_C 	C 	0.7607	0.5157	0.8143	-0.083
Mof_H 	H 	0.7089	0.5497	0.7691	0.079
Mof_C 	C 	0.8371	0.5304	0.9409	0.029
Mof_C 	C 	0.9123	0.4782	0.0067	-0.129
Mof_H 	H 	0.963	0.4863	0.0925	0.109
Mof_C 	C 	0.9127	0.414	0.9461	0.074
Mof_H 	H 	0.9644	0.3799	0.9915	0.044
Mof_C 	C 	0.8416	0.60346	0.0062	0.299
Mof_C 	C 	0.9636	0.1716	0.5222	-0.025
Mof_H 	H 	0.9693	0.2221	0.5032	0.082
Mof_C 	C 	0.9934	0.1097	0.4916	0.048
Mof_H 	H 	0.02	0.1189	0.453	-0.022
Mof_C 	C 	0.9845	0.0336	0.5173	0.023
Mof_C 	C 	0.9432	0.0232	0.574	-0.079
Mof_H 	H 	0.9355	0.9732	0.5924	0.07
Mof_C 	C 	0.9139	0.086	0.6028	0.032
Mof_H 	H 	0.8851	0.0782	0.6387	0.05
Mof_N 	N 	0.9263	0.15907	0.5797	-0.038
Mof_O 	O 	0.92156	0.29952	0.8103	-0.382
Mof_O 	O 	0.76787	0.31824	0.6399	-0.394
Mof_O 	O 	0.9141	0.61042	0.1212	-0.377
Mof_O 	O 	0.77345	0.65104	0.9395	-0.375
Mof_O 	O 	0.89984	0.21879	0.6134	-0.349
Mof_Co	Co	0.5	0.19734	0.25	1.199
Mof_Co	Co	1.72785e-17	0.69734	0.25	1.175
Mof_Co	Co	0.5	0.80266	0.75	1.2
Mof_Co	Co	6.9114e-17	0.30266	0.75	1.175
Mof_Co	Co	0.25	0.25	-0	1.192
Mof_Co	Co	0.75	0.25	0.5	1.199
Mof_Co	Co	0.75	0.75	-0	1.192
Mof_Co	Co	0.25	0.75	0.5	1.199
_end
