data_functionalizedCrystal
_audit_creation_method	'EQeq! by Chris Wilmer'
_symmetry_space_group_name_H-M	'P1'
_symmetry_Int_Tables_number	1
_symmetry_cell_setting	triclinic
loop_
_symmetry_equiv_pos_as_xyz
  x,y,z
_cell_length_a	5.1161
_cell_length_b	10.8239
_cell_length_c	15.2598
_cell_angle_alpha	82.99
_cell_angle_beta	85.885
_cell_angle_gamma	83.05
loop_
_atom_site_label
_atom_site_type_symbol
_atom_site_fract_x
_atom_site_fract_y
_atom_site_fract_z
_atom_site_charge
Mof_C 	C 	0.9834	0.62876	0.48889	0.008
Mof_H 	H 	0.9708	0.7177	0.4813	0.047
Mof_C 	C 	0.0823	0.56412	0.56694	-0.077
Mof_C 	C 	0.0973	0.43225	0.57818	0.007
Mof_C 	C 	0.1858	0.35482	0.66115	0.086
Mof_C 	C 	0.4109	0.26833	0.65918	-0.15
Mof_H 	H 	0.5025	0.254	0.6043	0.075
Mof_C 	C 	0.5017	0.20282	0.73773	0.069
Mof_H 	H 	0.6586	0.1462	0.7364	0.005
Mof_C 	C 	0.3635	0.22007	0.81785	-0.16
Mof_C 	C 	0.132	0.30211	0.81946	0.102
Mof_H 	H 	0.0325	0.3113	0.8737	0.014
Mof_C 	C 	0.0463	0.37062	0.74161	-0.212
Mof_H 	H 	0.8915	0.4286	0.7433	0.138
Mof_C 	C 	0.4674	0.15452	0.90324	0.382
Mof_C 	C 	0.1684	0.63697	0.63547	0.1
Mof_C 	C 	0.3979	0.59565	0.67927	-0.134
Mof_H 	H 	0.51	0.5251	0.6621	0.087
Mof_C 	C 	0.4635	0.6568	0.74765	0.063
Mof_H 	H 	0.6196	0.6277	0.7776	0.048
Mof_C 	C 	0.3008	0.76137	0.77277	-0.115
Mof_C 	C 	0.0779	0.80704	0.72628	0.026
Mof_H 	H 	0.9705	0.8801	0.7416	0.087
Mof_C 	C 	0.013	0.74548	0.65744	-0.175
Mof_H 	H 	0.8625	0.7773	0.6252	0.123
Mof_C 	C 	0.3548	0.82222	0.8511	0.435
Mof_O 	O 	0.3034	0.14723	0.97079	-0.361
Mof_O 	O 	0.7047	0.1134	0.90431	-0.371
Mof_O 	O 	0.1978	0.90318	0.88093	-0.353
Mof_O 	O 	0.581	0.77941	0.88467	-0.475
Mof_H 	H 	0.6004	0.817	0.9284	0.341
Mof_C 	C 	0.0166	0.37124	0.51111	-0.132
Mof_H 	H 	0.0292	0.2823	0.5187	0.051
Mof_C 	C 	0.9177	0.43588	0.43306	0.051
Mof_C 	C 	0.9027	0.56775	0.42182	-0.029
Mof_C 	C 	0.8142	0.64518	0.33885	0.039
Mof_C 	C 	0.5891	0.73167	0.34082	-0.092
Mof_H 	H 	0.4975	0.746	0.3957	0.069
Mof_C 	C 	0.4983	0.79718	0.26227	0.032
Mof_H 	H 	0.3414	0.8538	0.2636	0.048
Mof_C 	C 	0.6365	0.77993	0.18215	-0.097
Mof_C 	C 	0.868	0.69789	0.18054	0.006
Mof_H 	H 	0.9675	0.6887	0.1263	0.048
Mof_C 	C 	0.9537	0.62938	0.25839	-0.014
Mof_H 	H 	0.1085	0.5714	0.2567	0.01
Mof_C 	C 	0.5326	0.84548	0.09676	0.384
Mof_C 	C 	0.8316	0.36303	0.36453	0.043
Mof_C 	C 	0.6021	0.40435	0.32073	-0.122
Mof_H 	H 	0.49	0.4749	0.3379	0.071
Mof_C 	C 	0.5365	0.3432	0.25235	0.069
Mof_H 	H 	0.3804	0.3723	0.2224	0.017
Mof_C 	C 	0.6992	0.23863	0.22723	-0.176
Mof_C 	C 	0.9221	0.19296	0.27372	0.125
Mof_H 	H 	0.0295	0.1199	0.2584	-0.049
Mof_C 	C 	0.987	0.25452	0.34256	-0.077
Mof_H 	H 	0.1375	0.2227	0.3748	0.022
Mof_C 	C 	0.6452	0.17778	0.1489	0.44
Mof_O 	O 	0.6966	0.85277	0.02921	-0.41
Mof_O 	O 	0.2953	0.8866	0.09569	-0.381
Mof_O 	O 	0.8022	0.09682	0.11907	-0.448
Mof_O 	O 	0.419	0.22059	0.11533	-0.505
Mof_H 	H 	0.3996	0.183	0.0716	0.255
Mof_Ca	Ca	-0	0	-0	1.092
_end
