data_functionalizedCrystal
_audit_creation_method	'EQeq! by Chris Wilmer'
_symmetry_space_group_name_H-M	'P1'
_symmetry_Int_Tables_number	1
_symmetry_cell_setting	triclinic
loop_
_symmetry_equiv_pos_as_xyz
  x,y,z
_cell_length_a	18.605
_cell_length_b	18.605
_cell_length_c	14.904
_cell_angle_alpha	90
_cell_angle_beta	90
_cell_angle_gamma	120
loop_
_atom_site_label
_atom_site_type_symbol
_atom_site_fract_x
_atom_site_fract_y
_atom_site_fract_z
_atom_site_charge
Mof_O 	O 	0.4937	0.9128	0.0829	-0.471
Mof_O 	O 	0.4093	0.9019	0.9322	-0.456
Mof_O 	O 	0.3439	0.7633	0.9378	-0.308
Mof_N 	N 	0.4258	0.769	0.0866	-0.243
Mof_C 	C 	0.465	0.7675	0.1685	0.086
Mof_C 	C 	0.5299	0.7501	0.1677	-0.092
Mof_C 	C 	0.4427	0.8405	0.0537	-0.068
Mof_C 	C 	0.3944	0.8343	0.9674	0.433
Mof_O 	O 	0.0872	0.5809	0.0829	-0.603
Mof_O 	O 	0.0981	0.5074	0.9322	-0.591
Mof_O 	O 	0.2367	0.5806	0.9378	-0.335
Mof_N 	N 	0.231	0.6568	0.0866	-0.248
Mof_C 	C 	0.2325	0.6975	0.1685	0.079
Mof_C 	C 	0.2499	0.7798	0.1677	-0.108
Mof_C 	C 	0.1595	0.6022	0.0537	-0.081
Mof_C 	C 	0.1657	0.5601	0.9674	0.435
Mof_O 	O 	0.4191	0.5063	0.0829	-0.737
Mof_O 	O 	0.4926	0.5907	0.9322	-0.684
Mof_O 	O 	0.4194	0.6561	0.9378	-0.308
Mof_N 	N 	0.3432	0.5742	0.0866	-0.253
Mof_C 	C 	0.3025	0.535	0.1685	0.087
Mof_C 	C 	0.2202	0.4701	0.1677	-0.143
Mof_C 	C 	0.3978	0.5573	0.0537	-0.078
Mof_C 	C 	0.4399	0.6056	0.9674	0.43
Mof_O 	O 	0.5063	0.0872	0.5829	-0.78
Mof_O 	O 	0.5907	0.0981	0.4322	-0.795
Mof_O 	O 	0.6561	0.2367	0.4378	-0.369
Mof_N 	N 	0.5742	0.231	0.5866	-0.254
Mof_C 	C 	0.535	0.2325	0.6685	0.087
Mof_C 	C 	0.4701	0.2499	0.6677	-0.112
Mof_C 	C 	0.5573	0.1595	0.5537	0.097
Mof_C 	C 	0.6056	0.1657	0.4674	0.241
Mof_O 	O 	0.9128	0.4191	0.5829	-0.654
Mof_O 	O 	0.9019	0.4926	0.4322	-0.667
Mof_O 	O 	0.7633	0.4194	0.4378	-0.351
Mof_N 	N 	0.769	0.3432	0.5866	-0.245
Mof_C 	C 	0.7675	0.3025	0.6685	0.092
Mof_C 	C 	0.7501	0.2202	0.6677	-0.074
Mof_C 	C 	0.8405	0.3978	0.5537	0.109
Mof_C 	C 	0.8343	0.4399	0.4674	0.244
Mof_O 	O 	0.5809	0.4937	0.5829	-0.892
Mof_O 	O 	0.5074	0.4093	0.4322	-0.932
Mof_O 	O 	0.5806	0.3439	0.4378	-0.378
Mof_N 	N 	0.6568	0.4258	0.5866	-0.246
Mof_C 	C 	0.6975	0.465	0.6685	0.091
Mof_C 	C 	0.7798	0.5299	0.6677	-0.054
Mof_C 	C 	0.6022	0.4427	0.5537	0.104
Mof_C 	C 	0.5601	0.3944	0.4674	0.247
Mof_O 	O 	0.5063	0.0872	0.9171	-0.573
Mof_O 	O 	0.5907	0.0981	0.0678	-0.625
Mof_O 	O 	0.6561	0.2367	0.0622	-0.393
Mof_N 	N 	0.5742	0.231	0.9134	-0.247
Mof_C 	C 	0.535	0.2325	0.8315	0.084
Mof_C 	C 	0.4701	0.2499	0.8323	-0.055
Mof_C 	C 	0.5573	0.1595	0.9463	0.282
Mof_C 	C 	0.6056	0.1657	0.0326	0.049
Mof_O 	O 	0.9128	0.4191	0.9171	-0.447
Mof_O 	O 	0.9019	0.4926	0.0678	-0.495
Mof_O 	O 	0.7633	0.4194	0.0622	-0.375
Mof_N 	N 	0.769	0.3432	0.9134	-0.239
Mof_C 	C 	0.7675	0.3025	0.8315	0.089
Mof_C 	C 	0.7501	0.2202	0.8323	-0.018
Mof_C 	C 	0.8405	0.3978	0.9463	0.29
Mof_C 	C 	0.8343	0.4399	0.0326	0.054
Mof_O 	O 	0.5809	0.4937	0.9171	-0.68
Mof_O 	O 	0.5074	0.4093	0.0678	-0.758
Mof_O 	O 	0.5806	0.3439	0.0622	-0.401
Mof_N 	N 	0.6568	0.4258	0.9134	-0.24
Mof_C 	C 	0.6975	0.465	0.8315	0.088
Mof_C 	C 	0.7798	0.5299	0.8323	0.002
Mof_C 	C 	0.6022	0.4427	0.9463	0.289
Mof_C 	C 	0.5601	0.3944	0.0326	0.055
Mof_O 	O 	0.4937	0.9128	0.4171	-0.648
Mof_O 	O 	0.4093	0.9019	0.5678	-0.656
Mof_O 	O 	0.3439	0.7633	0.5622	-0.342
Mof_N 	N 	0.4258	0.769	0.4134	-0.244
Mof_C 	C 	0.465	0.7675	0.3315	0.094
Mof_C 	C 	0.5299	0.7501	0.3323	-0.064
Mof_C 	C 	0.4427	0.8405	0.4463	0.114
Mof_C 	C 	0.3944	0.8343	0.5326	0.245
Mof_O 	O 	0.0872	0.5809	0.4171	-0.784
Mof_O 	O 	0.0981	0.5074	0.5678	-0.798
Mof_O 	O 	0.2367	0.5806	0.5622	-0.37
Mof_N 	N 	0.231	0.6568	0.4134	-0.25
Mof_C 	C 	0.2325	0.6975	0.3315	0.086
Mof_C 	C 	0.2499	0.7798	0.3323	-0.081
Mof_C 	C 	0.1595	0.6022	0.4463	0.103
Mof_C 	C 	0.1657	0.5601	0.5326	0.243
Mof_O 	O 	0.4191	0.5063	0.4171	-0.92
Mof_O 	O 	0.4926	0.5907	0.5678	-0.891
Mof_O 	O 	0.4194	0.6561	0.5622	-0.342
Mof_N 	N 	0.3432	0.5742	0.4134	-0.255
Mof_C 	C 	0.3025	0.535	0.3315	0.095
Mof_C 	C 	0.2202	0.4701	0.3323	-0.116
Mof_C 	C 	0.3978	0.5573	0.4463	0.104
Mof_C 	C 	0.4399	0.6056	0.5326	0.24
Mof_Ni	Ni	0.33333	0.66667	0.02	1.005
Mof_Ni	Ni	0.66667	0.33333	0.52	1.079
Mof_Ni	Ni	0.66667	0.33333	0.98	1.163
Mof_Ni	Ni	0.33333	0.66667	0.48	1.08
Mof_C 	C 	0.4342	0.7778	0.25	-0.057
Mof_C 	C 	0.5612	0.7412	0.25	-0.02
Mof_C 	C 	0.2222	0.6564	0.25	-0.082
Mof_C 	C 	0.2588	0.82	0.25	-0.012
Mof_C 	C 	0.3436	0.5658	0.25	-0.082
Mof_C 	C 	0.18	0.4388	0.25	-0.078
Mof_C 	C 	0.5658	0.2222	0.75	-0.078
Mof_C 	C 	0.4388	0.2588	0.75	-0.053
Mof_C 	C 	0.7778	0.3436	0.75	-0.052
Mof_C 	C 	0.7412	0.18	0.75	-0.028
Mof_C 	C 	0.6564	0.4342	0.75	-0.066
Mof_C 	C 	0.82	0.5612	0.75	0.036
Mof_Li	Li	0.5	0	-0	1.812
Mof_Li	Li	-0	0.5	-0	1.823
Mof_Li	Li	0.5	0.5	-0	2.725
Mof_Li	Li	0.5	0	0.5	2.79
Mof_Li	Li	1.84005e-18	0.5	0.5	2.816
Mof_Li	Li	0.5	0.5	0.5	3.728
_end
