data_functionalizedCrystal
_audit_creation_method	'EQeq! by Chris Wilmer'
_symmetry_space_group_name_H-M	'P1'
_symmetry_Int_Tables_number	1
_symmetry_cell_setting	triclinic
loop_
_symmetry_equiv_pos_as_xyz
  x,y,z
_cell_length_a	17.4993
_cell_length_b	30.197
_cell_length_c	30.197
_cell_angle_alpha	85.1839
_cell_angle_beta	73.1568
_cell_angle_gamma	73.1568
loop_
_atom_site_label
_atom_site_type_symbol
_atom_site_fract_x
_atom_site_fract_y
_atom_site_fract_z
_atom_site_charge
Mof_Mn	Mn	0.85265	0.88269	0.03466	1
Mof_Mn	Mn	0.79844	0.00308	0.92026	1.045
Mof_Mn	Mn	0.9891	0.9165	0.14254	1.053
Mof_Mn	Mn	0.27001	0.61731	0.46533	1.001
Mof_Mn	Mn	0.22178	0.49692	0.57974	1.045
Mof_Mn	Mn	0.54814	0.5835	0.35746	1.054
Mof_Mn	Mn	0.88731	0.96534	0.38269	1
Mof_Mn	Mn	0.7187	0.07974	0.50308	1.045
Mof_Mn	Mn	0.13164	0.85746	0.4165	1.054
Mof_Mn	Mn	0.73534	0.53466	0.11732	1.001
Mof_Mn	Mn	0.80152	0.42026	0.99692	1.045
Mof_Mn	Mn	0.9056	0.64254	0.0835	1.054
Mof_Mn	Mn	0.14735	0.11731	0.96533	1
Mof_Mn	Mn	0.20156	0.99692	0.07974	1.045
Mof_Mn	Mn	0.0109	0.0835	0.85746	1.053
Mof_Mn	Mn	0.72999	0.38269	0.53467	1.001
Mof_Mn	Mn	0.77822	0.50308	0.42026	1.046
Mof_Mn	Mn	0.45186	0.4165	0.64254	1.055
Mof_Mn	Mn	0.11269	0.03466	0.61731	1.001
Mof_Mn	Mn	0.2813	0.92026	0.49692	1.046
Mof_Mn	Mn	0.86836	0.14254	0.5835	1.055
Mof_Mn	Mn	0.26465	0.46534	0.88269	1.002
Mof_Mn	Mn	0.19848	0.57974	0.00308	1.046
Mof_Mn	Mn	0.0944	0.35746	0.9165	1.055
Mof_H 	H 	0.6142	0.9025	0.1419	0.123
Mof_H 	H 	0.4825	0.9451	0.1411	-0.032
Mof_H 	H 	0.4578	0.9887	0.0765	0.107
Mof_H 	H 	0.5699	0.9921	0.0137	-0.007
Mof_H 	H 	0.9915	0.9444	0.894	0.115
Mof_H 	H 	0.0511	0.9265	0.9271	0.119
Mof_H 	H 	0.0715	0.8487	0.9055	-0.004
Mof_H 	H 	0.1054	0.879	0.8624	-0.013
Mof_H 	H 	0.9819	0.8891	0.8399	0.119
Mof_H 	H 	0.9502	0.8575	0.8823	0.117
Mof_H 	H 	0.093	0.825	0.8058	-0.043
Mof_H 	H 	0.0628	0.7933	0.8485	-0.041
Mof_H 	H 	0.937	0.8038	0.8272	0.177
Mof_H 	H 	0.9719	0.8328	0.783	0.18
Mof_H 	H 	0.017	0.779	0.787	0.172
Mof_H 	H 	0.7887	0.9286	0.8058	0.131
Mof_H 	H 	0.8526	0.9295	0.7271	-0.035
Mof_H 	H 	0.9408	0.976	0.6976	0.115
Mof_H 	H 	0.9734	0.0168	0.7476	-0.001
Mof_H 	H 	0.877	0.0821	0.0089	0.127
Mof_H 	H 	0.9174	0.1097	0.9649	0.126
Mof_H 	H 	0.7928	0.1576	0.0166	-0.026
Mof_H 	H 	0.7411	0.1274	0.0034	-0.021
Mof_H 	H 	0.8311	0.1813	0.9383	0.138
Mof_H 	H 	0.7779	0.1517	0.9257	0.138
Mof_H 	H 	0.7074	0.2314	0.9852	-0.068
Mof_H 	H 	0.6537	0.2015	0.9735	-0.073
Mof_H 	H 	0.6975	0.2227	0.8951	0.219
Mof_H 	H 	0.6406	0.2654	0.9286	0.219
Mof_H 	H 	0.7392	0.257	0.911	0.223
Mof_H 	H 	0.6453	0.0744	0.9786	-0.004
Mof_H 	H 	0.5438	0.143	0.9758	0.083
Mof_H 	H 	0.6164	0.1324	0.8378	0.084
Mof_H 	H 	0.7181	0.066	0.8438	-0.019
Mof_H 	H 	0.5163	0.2045	0.8735	0.061
Mof_H 	H 	0.4996	0.2121	0.9277	0.059
Mof_H 	H 	0.1206	0.7849	0.1891	0.129
Mof_H 	H 	0.1148	0.7102	0.1808	-0.031
Mof_H 	H 	0.0376	0.6959	0.1351	0.105
Mof_H 	H 	0.9672	0.7569	0.0977	0.008
Mof_H 	H 	0.8217	0.9941	0.0451	0.115
Mof_H 	H 	0.8552	0.0292	0.0662	0.114
Mof_H 	H 	0.7498	0.0302	0.1392	0.01
Mof_H 	H 	0.7175	0.9936	0.1192	0.007
Mof_H 	H 	0.7024	0.0888	0.089	0.109
Mof_H 	H 	0.6884	0.0529	0.0583	0.123
Mof_H 	H 	0.5933	0.0815	0.1467	-0.026
Mof_H 	H 	0.5804	0.0434	0.1176	-0.019
Mof_H 	H 	0.5854	0.1266	0.0646	0.157
Mof_H 	H 	0.5083	0.1362	0.1102	0.155
Mof_H 	H 	0.5161	0.0996	0.0726	0.161
Mof_H 	H 	0.1615	0.2472	0.9076	-0
Mof_H 	H 	0.2768	0.1855	0.9065	0.101
Mof_H 	H 	0.399	0.2767	0.9173	0.087
Mof_H 	H 	0.281	0.3354	0.9176	-0.008
Mof_H 	H 	0.431	0.1609	0.8891	0.07
Mof_H 	H 	0.4153	0.1674	0.943	0.068
Mof_H 	H 	0.1586	0.5975	0.3581	0.123
Mof_H 	H 	0.0687	0.5549	0.3589	-0.032
Mof_H 	H 	0.023	0.5113	0.4235	0.107
Mof_H 	H 	0.0757	0.5079	0.4863	-0.007
Mof_H 	H 	0.3299	0.5556	0.606	0.115
Mof_H 	H 	0.4047	0.5735	0.5729	0.119
Mof_H 	H 	0.3257	0.6513	0.5945	-0.004
Mof_H 	H 	0.3468	0.621	0.6376	-0.013
Mof_H 	H 	0.2109	0.6109	0.6601	0.119
Mof_H 	H 	0.19	0.6425	0.6177	0.117
Mof_H 	H 	0.2238	0.675	0.6942	-0.043
Mof_H 	H 	0.2046	0.7067	0.6515	-0.041
Mof_H 	H 	0.068	0.6962	0.6728	0.177
Mof_H 	H 	0.0877	0.6672	0.717	0.18
Mof_H 	H 	0.083	0.721	0.713	0.172
Mof_H 	H 	0.0231	0.5714	0.6942	0.131
Mof_H 	H 	0.0092	0.5705	0.7729	-0.035
Mof_H 	H 	0.1144	0.524	0.8024	0.115
Mof_H 	H 	0.2378	0.4832	0.7524	-0.002
Mof_H 	H 	0.468	0.4179	0.4911	0.127
Mof_H 	H 	0.492	0.3903	0.5351	0.126
Mof_H 	H 	0.467	0.3424	0.4834	-0.027
Mof_H 	H 	0.3719	0.3726	0.4966	-0.021
Mof_H 	H 	0.4507	0.3187	0.5617	0.138
Mof_H 	H 	0.3553	0.3483	0.5743	0.138
Mof_H 	H 	0.424	0.2686	0.5148	-0.068
Mof_H 	H 	0.3287	0.2985	0.5265	-0.073
Mof_H 	H 	0.3153	0.2773	0.6049	0.219
Mof_H 	H 	0.3346	0.2346	0.5714	0.219
Mof_H 	H 	0.4072	0.243	0.589	0.223
Mof_H 	H 	0.1983	0.4256	0.5214	-0.004
Mof_H 	H 	0.1626	0.357	0.5242	0.083
Mof_H 	H 	0.0866	0.3676	0.6622	0.084
Mof_H 	H 	0.1279	0.434	0.6562	-0.019
Mof_H 	H 	0.0943	0.2955	0.6265	0.06
Mof_H 	H 	0.1394	0.2879	0.5723	0.058
Mof_H 	H 	0.5946	0.7151	0.3109	0.129
Mof_H 	H 	0.5058	0.7898	0.3192	-0.031
Mof_H 	H 	0.3686	0.8041	0.3649	0.106
Mof_H 	H 	0.3218	0.7431	0.4023	0.008
Mof_H 	H 	0.3609	0.5059	0.4549	0.117
Mof_H 	H 	0.4506	0.4708	0.4338	0.115
Mof_H 	H 	0.4192	0.4698	0.3608	0.01
Mof_H 	H 	0.3303	0.5064	0.3808	0.008
Mof_H 	H 	0.3802	0.4112	0.411	0.109
Mof_H 	H 	0.2996	0.4471	0.4417	0.123
Mof_H 	H 	0.3215	0.4185	0.3533	-0.027
Mof_H 	H 	0.2414	0.4566	0.3824	-0.02
Mof_H 	H 	0.2766	0.3734	0.4354	0.157
Mof_H 	H 	0.2547	0.3638	0.3898	0.155
Mof_H 	H 	0.1883	0.4004	0.4274	0.16
Mof_H 	H 	0.8163	0.2528	0.5924	-0
Mof_H 	H 	0.8688	0.3145	0.5935	0.101
Mof_H 	H 	0.093	0.2233	0.5827	0.088
Mof_H 	H 	0.034	0.1646	0.5824	-0.009
Mof_H 	H 	0.981	0.3391	0.6109	0.071
Mof_H 	H 	0.0257	0.3326	0.557	0.069
Mof_H 	H 	0.7561	0.8581	0.4025	0.123
Mof_H 	H 	0.6236	0.8589	0.4451	-0.032
Mof_H 	H 	0.5343	0.9235	0.4887	0.107
Mof_H 	H 	0.5836	0.9863	0.4921	-0.007
Mof_H 	H 	0.8855	0.106	0.4444	0.115
Mof_H 	H 	0.9782	0.0729	0.4265	0.12
Mof_H 	H 	0.977	0.0945	0.3487	-0.004
Mof_H 	H 	0.9678	0.1376	0.379	-0.013
Mof_H 	H 	0.8218	0.1601	0.3891	0.119
Mof_H 	H 	0.8325	0.1177	0.3575	0.117
Mof_H 	H 	0.8988	0.1942	0.325	-0.043
Mof_H 	H 	0.9113	0.1515	0.2933	-0.041
Mof_H 	H 	0.7642	0.1728	0.3038	0.177
Mof_H 	H 	0.7549	0.217	0.3328	0.18
Mof_H 	H 	0.804	0.213	0.279	0.172
Mof_H 	H 	0.5945	0.1942	0.4286	0.131
Mof_H 	H 	0.5797	0.2729	0.4295	-0.035
Mof_H 	H 	0.6384	0.3024	0.476	0.115
Mof_H 	H 	0.721	0.2524	0.5168	-0.002
Mof_H 	H 	0.8859	0.9911	0.5821	0.127
Mof_H 	H 	0.8823	0.0351	0.6097	0.126
Mof_H 	H 	0.8094	0.9834	0.6576	-0.027
Mof_H 	H 	0.7445	0.9966	0.6274	-0.021
Mof_H 	H 	0.7694	0.0617	0.6813	0.138
Mof_H 	H 	0.7036	0.0743	0.6517	0.138
Mof_H 	H 	0.6926	0.0148	0.7314	-0.068
Mof_H 	H 	0.6272	0.0265	0.7015	-0.073
Mof_H 	H 	0.5926	0.1049	0.7227	0.219
Mof_H 	H 	0.5692	0.0714	0.7654	0.219
Mof_H 	H 	0.6502	0.089	0.757	0.223
Mof_H 	H 	0.6239	0.0214	0.5744	-0.004
Mof_H 	H 	0.5196	0.0242	0.643	0.083
Mof_H 	H 	0.4542	0.1622	0.6324	0.084
Mof_H 	H 	0.5619	0.1562	0.566	-0.019
Mof_H 	H 	0.3898	0.1265	0.7045	0.061
Mof_H 	H 	0.4273	0.0723	0.7121	0.059
Mof_H 	H 	0.3097	0.8109	0.2849	0.129
Mof_H 	H 	0.2956	0.8192	0.2102	-0.031
Mof_H 	H 	0.1727	0.8649	0.1959	0.106
Mof_H 	H 	0.0649	0.9023	0.2569	0.008
Mof_H 	H 	0.8668	0.9549	0.4941	0.117
Mof_H 	H 	0.9214	0.9338	0.5292	0.115
Mof_H 	H 	0.889	0.8608	0.5302	0.01
Mof_H 	H 	0.8367	0.8808	0.4936	0.008
Mof_H 	H 	0.7914	0.911	0.5888	0.109
Mof_H 	H 	0.7467	0.9417	0.5529	0.123
Mof_H 	H 	0.74	0.8533	0.5815	-0.027
Mof_H 	H 	0.698	0.8824	0.5434	-0.02
Mof_H 	H 	0.65	0.9354	0.6266	0.157
Mof_H 	H 	0.6185	0.8898	0.6362	0.155
Mof_H 	H 	0.5887	0.9274	0.5996	0.16
Mof_H 	H 	0.0691	0.0924	0.7472	-0
Mof_H 	H 	0.1833	0.0935	0.6855	0.101
Mof_H 	H 	0.3163	0.0827	0.7767	0.088
Mof_H 	H 	0.1986	0.0824	0.8354	-0.008
Mof_H 	H 	0.3201	0.1109	0.6609	0.07
Mof_H 	H 	0.3583	0.057	0.6674	0.068
Mof_H 	H 	0.5167	0.6419	0.0975	0.123
Mof_H 	H 	0.4276	0.6411	0.0549	-0.032
Mof_H 	H 	0.4465	0.5765	0.0113	0.107
Mof_H 	H 	0.562	0.5137	0.0079	-0.007
Mof_H 	H 	0.9359	0.394	0.0556	0.115
Mof_H 	H 	0.9776	0.4271	0.0735	0.119
Mof_H 	H 	0.9202	0.4055	0.1513	-0.004
Mof_H 	H 	0.9844	0.3624	0.121	-0.013
Mof_H 	H 	0.871	0.3399	0.1109	0.119
Mof_H 	H 	0.8077	0.3823	0.1425	0.117
Mof_H 	H 	0.918	0.3058	0.175	-0.043
Mof_H 	H 	0.8561	0.3485	0.2067	-0.041
Mof_H 	H 	0.7408	0.3272	0.1962	0.177
Mof_H 	H 	0.8047	0.283	0.1672	0.18
Mof_H 	H 	0.796	0.287	0.221	0.172
Mof_H 	H 	0.7173	0.3058	0.0714	0.131
Mof_H 	H 	0.7821	0.2271	0.0705	-0.035
Mof_H 	H 	0.9168	0.1976	0.024	0.115
Mof_H 	H 	0.9902	0.2476	0.9832	-0.002
Mof_H 	H 	0.9591	0.5089	0.9179	0.127
Mof_H 	H 	0.0271	0.4649	0.8903	0.125
Mof_H 	H 	0.9504	0.5166	0.8424	-0.026
Mof_H 	H 	0.8685	0.5034	0.8726	-0.021
Mof_H 	H 	0.0124	0.4383	0.8187	0.137
Mof_H 	H 	0.9296	0.4257	0.8483	0.138
Mof_H 	H 	0.9388	0.4852	0.7686	-0.068
Mof_H 	H 	0.8552	0.4735	0.7985	-0.072
Mof_H 	H 	0.9202	0.3951	0.7773	0.219
Mof_H 	H 	0.906	0.4286	0.7346	0.219
Mof_H 	H 	0.9962	0.411	0.743	0.223
Mof_H 	H 	0.7197	0.4786	0.9256	-0.004
Mof_H 	H 	0.6868	0.4758	0.857	0.083
Mof_H 	H 	0.7488	0.3378	0.8676	0.084
Mof_H 	H 	0.7841	0.3438	0.934	-0.019
Mof_H 	H 	0.7208	0.3735	0.7955	0.061
Mof_H 	H 	0.7117	0.4277	0.7879	0.059
Mof_H 	H 	0.9055	0.6891	0.2151	0.128
Mof_H 	H 	0.825	0.6808	0.2898	-0.031
Mof_H 	H 	0.7335	0.6351	0.3041	0.106
Mof_H 	H 	0.7241	0.5977	0.2431	0.008
Mof_H 	H 	0.8158	0.5451	0.0059	0.116
Mof_H 	H 	0.8844	0.5662	0.9708	0.115
Mof_H 	H 	0.78	0.6392	0.9698	0.01
Mof_H 	H 	0.7111	0.6192	0.0064	0.008
Mof_H 	H 	0.7912	0.589	0.9112	0.109
Mof_H 	H 	0.7413	0.5583	0.9471	0.123
Mof_H 	H 	0.6748	0.6467	0.9185	-0.026
Mof_H 	H 	0.6238	0.6176	0.9566	-0.019
Mof_H 	H 	0.712	0.5646	0.8734	0.157
Mof_H 	H 	0.6445	0.6102	0.8638	0.155
Mof_H 	H 	0.6157	0.5726	0.9004	0.16
Mof_H 	H 	0.4087	0.4076	0.7528	-0
Mof_H 	H 	0.4623	0.4065	0.8145	0.101
Mof_H 	H 	0.6757	0.4173	0.7233	0.088
Mof_H 	H 	0.6164	0.4176	0.6646	-0.008
Mof_H 	H 	0.5919	0.3891	0.8391	0.07
Mof_H 	H 	0.5827	0.443	0.8326	0.068
Mof_H 	H 	0.3858	0.0975	0.8581	0.123
Mof_H 	H 	0.5175	0.0549	0.8589	-0.032
Mof_H 	H 	0.5422	0.0113	0.9235	0.107
Mof_H 	H 	0.4301	0.0079	0.9863	-0.007
Mof_H 	H 	0.0085	0.0556	0.106	0.115
Mof_H 	H 	0.9489	0.0735	0.0729	0.119
Mof_H 	H 	0.9285	0.1513	0.0945	-0.004
Mof_H 	H 	0.8946	0.121	0.1376	-0.013
Mof_H 	H 	0.0181	0.1109	0.1601	0.119
Mof_H 	H 	0.0498	0.1425	0.1177	0.117
Mof_H 	H 	0.907	0.175	0.1942	-0.043
Mof_H 	H 	0.9372	0.2067	0.1515	-0.041
Mof_H 	H 	0.063	0.1962	0.1728	0.177
Mof_H 	H 	0.0281	0.1672	0.217	0.18
Mof_H 	H 	0.983	0.221	0.213	0.172
Mof_H 	H 	0.2113	0.0714	0.1942	0.131
Mof_H 	H 	0.1474	0.0705	0.2729	-0.035
Mof_H 	H 	0.0592	0.024	0.3024	0.115
Mof_H 	H 	0.0266	0.9832	0.2524	-0.001
Mof_H 	H 	0.123	0.9179	0.9911	0.127
Mof_H 	H 	0.0826	0.8903	0.0351	0.126
Mof_H 	H 	0.2072	0.8424	0.9834	-0.026
Mof_H 	H 	0.2589	0.8726	0.9966	-0.021
Mof_H 	H 	0.1689	0.8187	0.0617	0.138
Mof_H 	H 	0.2221	0.8483	0.0743	0.138
Mof_H 	H 	0.2926	0.7686	0.0148	-0.068
Mof_H 	H 	0.3463	0.7985	0.0265	-0.073
Mof_H 	H 	0.3025	0.7773	0.1049	0.219
Mof_H 	H 	0.3594	0.7346	0.0714	0.219
Mof_H 	H 	0.2608	0.743	0.089	0.223
Mof_H 	H 	0.3547	0.9256	0.0214	-0.004
Mof_H 	H 	0.4562	0.857	0.0242	0.083
Mof_H 	H 	0.3836	0.8676	0.1622	0.084
Mof_H 	H 	0.2819	0.934	0.1562	-0.019
Mof_H 	H 	0.4837	0.7955	0.1265	0.061
Mof_H 	H 	0.5004	0.7879	0.0723	0.059
Mof_H 	H 	0.8794	0.2151	0.8109	0.129
Mof_H 	H 	0.8852	0.2898	0.8192	-0.031
Mof_H 	H 	0.9624	0.3041	0.8649	0.105
Mof_H 	H 	0.0328	0.2431	0.9023	0.008
Mof_H 	H 	0.1783	0.0059	0.9549	0.115
Mof_H 	H 	0.1448	0.9708	0.9338	0.114
Mof_H 	H 	0.2502	0.9698	0.8608	0.01
Mof_H 	H 	0.2825	0.0064	0.8808	0.007
Mof_H 	H 	0.2976	0.9112	0.911	0.109
Mof_H 	H 	0.3116	0.9471	0.9417	0.123
Mof_H 	H 	0.4067	0.9185	0.8533	-0.026
Mof_H 	H 	0.4196	0.9566	0.8824	-0.019
Mof_H 	H 	0.4146	0.8734	0.9354	0.157
Mof_H 	H 	0.4917	0.8638	0.8898	0.155
Mof_H 	H 	0.4839	0.9004	0.9274	0.161
Mof_H 	H 	0.8385	0.7528	0.0924	-0
Mof_H 	H 	0.7232	0.8145	0.0935	0.101
Mof_H 	H 	0.601	0.7233	0.0827	0.087
Mof_H 	H 	0.719	0.6646	0.0824	-0.008
Mof_H 	H 	0.569	0.8391	0.1109	0.07
Mof_H 	H 	0.5847	0.8326	0.057	0.068
Mof_H 	H 	0.8414	0.4025	0.6419	0.123
Mof_H 	H 	0.9313	0.4451	0.6411	-0.032
Mof_H 	H 	0.977	0.4887	0.5765	0.107
Mof_H 	H 	0.9243	0.4921	0.5137	-0.007
Mof_H 	H 	0.6701	0.4444	0.394	0.115
Mof_H 	H 	0.5953	0.4265	0.4271	0.119
Mof_H 	H 	0.6743	0.3487	0.4055	-0.004
Mof_H 	H 	0.6532	0.379	0.3624	-0.013
Mof_H 	H 	0.7891	0.3891	0.3399	0.119
Mof_H 	H 	0.81	0.3575	0.3823	0.117
Mof_H 	H 	0.7762	0.325	0.3058	-0.043
Mof_H 	H 	0.7954	0.2933	0.3485	-0.041
Mof_H 	H 	0.932	0.3038	0.3272	0.177
Mof_H 	H 	0.9123	0.3328	0.283	0.18
Mof_H 	H 	0.917	0.279	0.287	0.172
Mof_H 	H 	0.9769	0.4286	0.3058	0.131
Mof_H 	H 	0.9908	0.4295	0.2271	-0.035
Mof_H 	H 	0.8856	0.476	0.1976	0.115
Mof_H 	H 	0.7622	0.5168	0.2476	-0.002
Mof_H 	H 	0.532	0.5821	0.5089	0.127
Mof_H 	H 	0.508	0.6097	0.4649	0.126
Mof_H 	H 	0.533	0.6576	0.5166	-0.027
Mof_H 	H 	0.6281	0.6274	0.5034	-0.021
Mof_H 	H 	0.5493	0.6813	0.4383	0.138
Mof_H 	H 	0.6447	0.6517	0.4257	0.138
Mof_H 	H 	0.576	0.7314	0.4852	-0.068
Mof_H 	H 	0.6713	0.7015	0.4735	-0.073
Mof_H 	H 	0.6847	0.7227	0.3951	0.219
Mof_H 	H 	0.6654	0.7654	0.4286	0.219
Mof_H 	H 	0.5928	0.757	0.411	0.223
Mof_H 	H 	0.8017	0.5744	0.4786	-0.004
Mof_H 	H 	0.8374	0.643	0.4758	0.083
Mof_H 	H 	0.9134	0.6324	0.3378	0.084
Mof_H 	H 	0.8721	0.566	0.3438	-0.019
Mof_H 	H 	0.9057	0.7045	0.3735	0.06
Mof_H 	H 	0.8606	0.7121	0.4277	0.058
Mof_H 	H 	0.4054	0.2849	0.6891	0.129
Mof_H 	H 	0.4942	0.2102	0.6808	-0.031
Mof_H 	H 	0.6314	0.1959	0.6351	0.106
Mof_H 	H 	0.6782	0.2569	0.5977	0.008
Mof_H 	H 	0.6391	0.4941	0.5451	0.117
Mof_H 	H 	0.5494	0.5292	0.5662	0.115
Mof_H 	H 	0.5808	0.5302	0.6392	0.01
Mof_H 	H 	0.6697	0.4936	0.6192	0.008
Mof_H 	H 	0.6198	0.5888	0.589	0.109
Mof_H 	H 	0.7004	0.5529	0.5583	0.123
Mof_H 	H 	0.6785	0.5815	0.6467	-0.027
Mof_H 	H 	0.7586	0.5434	0.6176	-0.02
Mof_H 	H 	0.7234	0.6266	0.5646	0.157
Mof_H 	H 	0.7453	0.6362	0.6102	0.155
Mof_H 	H 	0.8117	0.5996	0.5726	0.16
Mof_H 	H 	0.1837	0.7472	0.4076	-0
Mof_H 	H 	0.1312	0.6855	0.4065	0.101
Mof_H 	H 	0.907	0.7767	0.4173	0.088
Mof_H 	H 	0.966	0.8354	0.4176	-0.009
Mof_H 	H 	0.019	0.6609	0.3891	0.071
Mof_H 	H 	0.9743	0.6674	0.443	0.069
Mof_H 	H 	0.2439	0.1419	0.5975	0.123
Mof_H 	H 	0.3764	0.1411	0.5549	-0.032
Mof_H 	H 	0.4657	0.0765	0.5113	0.107
Mof_H 	H 	0.4164	0.0137	0.5079	-0.007
Mof_H 	H 	0.1145	0.894	0.5556	0.115
Mof_H 	H 	0.0218	0.9271	0.5735	0.12
Mof_H 	H 	0.023	0.9055	0.6513	-0.004
Mof_H 	H 	0.0322	0.8624	0.621	-0.013
Mof_H 	H 	0.1782	0.8399	0.6109	0.119
Mof_H 	H 	0.1675	0.8823	0.6425	0.117
Mof_H 	H 	0.1012	0.8058	0.675	-0.043
Mof_H 	H 	0.0887	0.8485	0.7067	-0.041
Mof_H 	H 	0.2358	0.8272	0.6962	0.177
Mof_H 	H 	0.2451	0.783	0.6672	0.18
Mof_H 	H 	0.196	0.787	0.721	0.172
Mof_H 	H 	0.4055	0.8058	0.5714	0.131
Mof_H 	H 	0.4203	0.7271	0.5705	-0.035
Mof_H 	H 	0.3616	0.6976	0.524	0.115
Mof_H 	H 	0.279	0.7476	0.4832	-0.002
Mof_H 	H 	0.1141	0.0089	0.4179	0.127
Mof_H 	H 	0.1177	0.9649	0.3903	0.126
Mof_H 	H 	0.1906	0.0166	0.3424	-0.027
Mof_H 	H 	0.2555	0.0034	0.3726	-0.021
Mof_H 	H 	0.2306	0.9383	0.3187	0.138
Mof_H 	H 	0.2964	0.9257	0.3483	0.138
Mof_H 	H 	0.3074	0.9852	0.2686	-0.068
Mof_H 	H 	0.3728	0.9735	0.2985	-0.073
Mof_H 	H 	0.4074	0.8951	0.2773	0.219
Mof_H 	H 	0.4308	0.9286	0.2346	0.219
Mof_H 	H 	0.3498	0.911	0.243	0.223
Mof_H 	H 	0.3761	0.9786	0.4256	-0.004
Mof_H 	H 	0.4804	0.9758	0.357	0.083
Mof_H 	H 	0.5458	0.8378	0.3676	0.084
Mof_H 	H 	0.4381	0.8438	0.434	-0.019
Mof_H 	H 	0.6102	0.8735	0.2955	0.061
Mof_H 	H 	0.5727	0.9277	0.2879	0.059
Mof_H 	H 	0.6903	0.1891	0.7151	0.129
Mof_H 	H 	0.7044	0.1808	0.7898	-0.031
Mof_H 	H 	0.8273	0.1351	0.8041	0.106
Mof_H 	H 	0.9351	0.0977	0.7431	0.008
Mof_H 	H 	0.1332	0.0451	0.5059	0.117
Mof_H 	H 	0.0786	0.0662	0.4708	0.115
Mof_H 	H 	0.111	0.1392	0.4698	0.01
Mof_H 	H 	0.1633	0.1192	0.5064	0.008
Mof_H 	H 	0.2086	0.089	0.4112	0.109
Mof_H 	H 	0.2533	0.0583	0.4471	0.123
Mof_H 	H 	0.26	0.1467	0.4185	-0.027
Mof_H 	H 	0.302	0.1176	0.4566	-0.02
Mof_H 	H 	0.35	0.0646	0.3734	0.157
Mof_H 	H 	0.3815	0.1102	0.3638	0.155
Mof_H 	H 	0.4113	0.0726	0.4004	0.16
Mof_H 	H 	0.9309	0.9076	0.2528	-0
Mof_H 	H 	0.8167	0.9065	0.3145	0.101
Mof_H 	H 	0.6837	0.9173	0.2233	0.088
Mof_H 	H 	0.8014	0.9176	0.1646	-0.008
Mof_H 	H 	0.6799	0.8891	0.3391	0.07
Mof_H 	H 	0.6417	0.943	0.3326	0.068
Mof_H 	H 	0.4833	0.3581	0.9025	0.123
Mof_H 	H 	0.5724	0.3589	0.9451	-0.032
Mof_H 	H 	0.5535	0.4235	0.9887	0.107
Mof_H 	H 	0.438	0.4863	0.9921	-0.007
Mof_H 	H 	0.0641	0.606	0.9444	0.115
Mof_H 	H 	0.0224	0.5729	0.9265	0.119
Mof_H 	H 	0.0798	0.5945	0.8487	-0.004
Mof_H 	H 	0.0156	0.6376	0.879	-0.013
Mof_H 	H 	0.129	0.6601	0.8891	0.119
Mof_H 	H 	0.1923	0.6177	0.8575	0.117
Mof_H 	H 	0.082	0.6942	0.825	-0.043
Mof_H 	H 	0.1439	0.6515	0.7933	-0.041
Mof_H 	H 	0.2592	0.6728	0.8038	0.177
Mof_H 	H 	0.1953	0.717	0.8328	0.18
Mof_H 	H 	0.204	0.713	0.779	0.172
Mof_H 	H 	0.2827	0.6942	0.9286	0.131
Mof_H 	H 	0.2179	0.7729	0.9295	-0.035
Mof_H 	H 	0.0832	0.8024	0.976	0.115
Mof_H 	H 	0.0098	0.7524	0.0168	-0.002
Mof_H 	H 	0.0409	0.4911	0.0821	0.127
Mof_H 	H 	0.9729	0.5351	0.1097	0.125
Mof_H 	H 	0.0496	0.4834	0.1576	-0.026
Mof_H 	H 	0.1315	0.4966	0.1274	-0.021
Mof_H 	H 	0.9876	0.5617	0.1813	0.137
Mof_H 	H 	0.0704	0.5743	0.1517	0.138
Mof_H 	H 	0.0612	0.5148	0.2314	-0.068
Mof_H 	H 	0.1448	0.5265	0.2015	-0.072
Mof_H 	H 	0.0798	0.6049	0.2227	0.219
Mof_H 	H 	0.094	0.5714	0.2654	0.219
Mof_H 	H 	0.0038	0.589	0.257	0.223
Mof_H 	H 	0.2803	0.5214	0.0744	-0.004
Mof_H 	H 	0.3132	0.5242	0.143	0.083
Mof_H 	H 	0.2512	0.6622	0.1324	0.084
Mof_H 	H 	0.2159	0.6562	0.066	-0.019
Mof_H 	H 	0.2792	0.6265	0.2045	0.061
Mof_H 	H 	0.2883	0.5723	0.2121	0.059
Mof_H 	H 	0.0945	0.3109	0.7849	0.128
Mof_H 	H 	0.175	0.3192	0.7102	-0.031
Mof_H 	H 	0.2665	0.3649	0.6959	0.106
Mof_H 	H 	0.2759	0.4023	0.7569	0.008
Mof_H 	H 	0.1842	0.4549	0.9941	0.116
Mof_H 	H 	0.1156	0.4338	0.0292	0.115
Mof_H 	H 	0.22	0.3608	0.0302	0.01
Mof_H 	H 	0.2889	0.3808	0.9936	0.008
Mof_H 	H 	0.2088	0.411	0.0888	0.109
Mof_H 	H 	0.2587	0.4417	0.0529	0.123
Mof_H 	H 	0.3252	0.3533	0.0815	-0.026
Mof_H 	H 	0.3762	0.3824	0.0434	-0.019
Mof_H 	H 	0.288	0.4354	0.1266	0.157
Mof_H 	H 	0.3555	0.3898	0.1362	0.155
Mof_H 	H 	0.3843	0.4274	0.0996	0.16
Mof_H 	H 	0.5913	0.5924	0.2472	-0
Mof_H 	H 	0.5377	0.5935	0.1855	0.101
Mof_H 	H 	0.3243	0.5827	0.2767	0.088
Mof_H 	H 	0.3836	0.5824	0.3354	-0.008
Mof_H 	H 	0.4081	0.6109	0.1609	0.07
Mof_H 	H 	0.4173	0.557	0.1674	0.068
Mof_C 	C 	0.67458	0.91946	0.07618	0.303
Mof_C 	C 	0.60588	0.92002	0.11522	-0.28
Mof_C 	C 	0.52779	0.94551	0.11471	0.155
Mof_C 	C 	0.51276	0.97198	0.0767	-0.219
Mof_C 	C 	0.57934	0.97331	0.03941	0.143
Mof_C 	C 	0.65984	0.94815	0.03817	-0.249
Mof_C 	C 	0.72699	0.9539	0.99794	0.298
Mof_C 	C 	0.93793	0.91317	0.95303	0.277
Mof_C 	C 	0.01086	0.91852	0.91416	-0.333
Mof_C 	C 	0.05449	0.87475	0.88507	0.124
Mof_C 	C 	0.00033	0.86252	0.85942	-0.316
Mof_C 	C 	0.04348	0.81987	0.82917	0.207
Mof_C 	C 	0.98724	0.80777	0.80435	-0.554
Mof_C 	C 	0.84183	0.97294	0.825	0.32
Mof_C 	C 	0.82598	0.94699	0.79425	-0.295
Mof_C 	C 	0.86353	0.94767	0.74747	0.165
Mof_C 	C 	0.91672	0.9745	0.73006	-0.231
Mof_C 	C 	0.93499	0.99923	0.75979	0.15
Mof_C 	C 	0.89882	0.99927	0.80729	-0.256
Mof_C 	C 	0.92103	0.0273	0.8365	0.302
Mof_C 	C 	0.86121	0.06475	0.94837	0.298
Mof_C 	C 	0.86848	0.09824	0.98	-0.364
Mof_C 	C 	0.79045	0.1392	0.9917	0.165
Mof_C 	C 	0.781	0.17028	0.95032	-0.38
Mof_C 	C 	0.70388	0.2125	0.96094	0.32
Mof_C 	C 	0.69449	0.24187	0.92055	-0.689
Mof_C 	C 	0.6397	0.08677	0.94943	0.107
Mof_C 	C 	0.57897	0.12771	0.94795	-0.188
Mof_C 	C 	0.56972	0.14622	0.90614	0.132
Mof_C 	C 	0.62185	0.12163	0.86747	-0.2
Mof_C 	C 	0.68161	0.08164	0.87134	0.12
Mof_C 	C 	0.50202	0.19012	0.90444	-0.142
Mof_C 	C 	0.04572	0.81742	0.14854	0.312
Mof_C 	C 	0.08861	0.77976	0.17042	-0.28
Mof_C 	C 	0.08532	0.73511	0.16545	0.141
Mof_C 	C 	0.03991	0.72651	0.13847	-0.211
Mof_C 	C 	0.99805	0.76293	0.11657	0.135
Mof_C 	C 	0.99888	0.80874	0.12084	-0.247
Mof_C 	C 	0.95215	0.84524	0.09586	0.297
Mof_C 	C 	0.88641	0.96316	0.09162	0.28
Mof_C 	C 	0.82957	0.00327	0.07379	-0.309
Mof_C 	C 	0.74252	0.01974	0.11082	0.077
Mof_C 	C 	0.6832	0.0608	0.0904	-0.296
Mof_C 	C 	0.6005	0.0712	0.115	0.164
Mof_C 	C 	0.5472	0.1125	0.0879	-0.479
Mof_C 	C 	0.21085	0.25321	0.90949	0.118
Mof_C 	C 	0.27899	0.21616	0.90926	-0.2
Mof_C 	C 	0.35036	0.2241	0.91318	0.133
Mof_C 	C 	0.35051	0.26963	0.91555	-0.191
Mof_C 	C 	0.28022	0.30436	0.9154	0.116
Mof_C 	C 	0.42672	0.18312	0.91264	-0.148
Mof_C 	C 	0.17022	0.58054	0.42382	0.303
Mof_C 	C 	0.14112	0.57998	0.38478	-0.279
Mof_C 	C 	0.08801	0.55449	0.38529	0.154
Mof_C 	C 	0.06144	0.52802	0.4233	-0.218
Mof_C 	C 	0.09206	0.52669	0.46059	0.142
Mof_C 	C 	0.14616	0.55185	0.46183	-0.248
Mof_C 	C 	0.17883	0.5461	0.50206	0.297
Mof_C 	C 	0.30413	0.58683	0.54697	0.277
Mof_C 	C 	0.34354	0.58148	0.58584	-0.333
Mof_C 	C 	0.31431	0.62525	0.61493	0.124
Mof_C 	C 	0.22227	0.63748	0.64058	-0.316
Mof_C 	C 	0.19252	0.68013	0.67083	0.207
Mof_C 	C 	0.09936	0.69223	0.69565	-0.553
Mof_C 	C 	0.13977	0.52706	0.675	0.32
Mof_C 	C 	0.06722	0.55301	0.70575	-0.295
Mof_C 	C 	0.05867	0.55233	0.75253	0.166
Mof_C 	C 	0.12128	0.5255	0.76994	-0.231
Mof_C 	C 	0.19401	0.50077	0.74021	0.15
Mof_C 	C 	0.20538	0.50073	0.69271	-0.256
Mof_C 	C 	0.28483	0.4727	0.6635	0.302
Mof_C 	C 	0.37433	0.43525	0.55163	0.298
Mof_C 	C 	0.44672	0.40176	0.52	-0.363
Mof_C 	C 	0.42135	0.3608	0.5083	0.167
Mof_C 	C 	0.4016	0.32972	0.54968	-0.38
Mof_C 	C 	0.37732	0.2875	0.53906	0.32
Mof_C 	C 	0.35691	0.25813	0.57945	-0.689
Mof_C 	C 	0.1759	0.41323	0.55057	0.107
Mof_C 	C 	0.15463	0.37229	0.55205	-0.187
Mof_C 	C 	0.12208	0.35378	0.59386	0.131
Mof_C 	C 	0.11095	0.37837	0.63253	-0.2
Mof_C 	C 	0.13459	0.41836	0.62866	0.12
Mof_C 	C 	0.09658	0.30988	0.59556	-0.139
Mof_C 	C 	0.51168	0.68258	0.35146	0.312
Mof_C 	C 	0.53879	0.72024	0.32958	-0.28
Mof_C 	C 	0.48588	0.76489	0.33455	0.142
Mof_C 	C 	0.40489	0.77349	0.36153	-0.212
Mof_C 	C 	0.37755	0.73707	0.38343	0.136
Mof_C 	C 	0.42846	0.69126	0.37916	-0.246
Mof_C 	C 	0.39325	0.65476	0.40414	0.297
Mof_C 	C 	0.44119	0.53684	0.40838	0.282
Mof_C 	C 	0.40663	0.49673	0.42621	-0.313
Mof_C 	C 	0.37308	0.48026	0.38918	0.077
Mof_C 	C 	0.3344	0.4392	0.4096	-0.296
Mof_C 	C 	0.2867	0.4288	0.385	0.164
Mof_C 	C 	0.2476	0.3875	0.4121	-0.479
Mof_C 	C 	0.87355	0.24679	0.59051	0.119
Mof_C 	C 	0.90441	0.28384	0.59074	-0.201
Mof_C 	C 	0.98764	0.2759	0.58682	0.136
Mof_C 	C 	0.03569	0.23037	0.58445	-0.194
Mof_C 	C 	0.99998	0.19564	0.5846	0.118
Mof_C 	C 	0.02248	0.31688	0.58736	-0.151
Mof_C 	C 	0.75076	0.92382	0.41946	0.303
Mof_C 	C 	0.7211	0.88478	0.42002	-0.279
Mof_C 	C 	0.6425	0.88529	0.44551	0.154
Mof_C 	C 	0.58946	0.9233	0.47198	-0.218
Mof_C 	C 	0.61875	0.96059	0.47331	0.142
Mof_C 	C 	0.69801	0.96183	0.44815	-0.248
Mof_C 	C 	0.72493	0.00206	0.4539	0.298
Mof_C 	C 	0.89096	0.04697	0.41317	0.277
Mof_C 	C 	0.92502	0.08584	0.41852	-0.333
Mof_C 	C 	0.93956	0.11493	0.37475	0.124
Mof_C 	C 	0.85975	0.14058	0.36252	-0.316
Mof_C 	C 	0.87265	0.17083	0.31987	0.207
Mof_C 	C 	0.79159	0.19565	0.30777	-0.553
Mof_C 	C 	0.66683	0.175	0.47294	0.32
Mof_C 	C 	0.62023	0.20575	0.44699	-0.295
Mof_C 	C 	0.611	0.25253	0.44767	0.166
Mof_C 	C 	0.64678	0.26994	0.4745	-0.231
Mof_C 	C 	0.69478	0.24021	0.49923	0.15
Mof_C 	C 	0.70611	0.19271	0.49927	-0.256
Mof_C 	C 	0.75753	0.1635	0.5273	0.302
Mof_C 	C 	0.80958	0.05163	0.56475	0.298
Mof_C 	C 	0.84848	0.02	0.59824	-0.363
Mof_C 	C 	0.78215	0.0083	0.6392	0.167
Mof_C 	C 	0.73132	0.04968	0.67028	-0.38
Mof_C 	C 	0.66482	0.03906	0.7125	0.321
Mof_C 	C 	0.61504	0.07945	0.74187	-0.689
Mof_C 	C 	0.58913	0.05057	0.58677	0.107
Mof_C 	C 	0.52692	0.05205	0.62771	-0.188
Mof_C 	C 	0.47586	0.09386	0.64622	0.132
Mof_C 	C 	0.48932	0.13253	0.62163	-0.2
Mof_C 	C 	0.55295	0.12866	0.58164	0.12
Mof_C 	C 	0.40646	0.09556	0.69012	-0.142
Mof_C 	C 	0.19426	0.85146	0.31742	0.312
Mof_C 	C 	0.25903	0.82958	0.27976	-0.281
Mof_C 	C 	0.25077	0.83455	0.23511	0.142
Mof_C 	C 	0.17838	0.86153	0.22651	-0.212
Mof_C 	C 	0.11462	0.88343	0.26293	0.136
Mof_C 	C 	0.11972	0.87916	0.30874	-0.247
Mof_C 	C 	0.04801	0.90414	0.34524	0.298
Mof_C 	C 	0.97803	0.90838	0.46316	0.281
Mof_C 	C 	0.90336	0.92621	0.50327	-0.312
Mof_C 	C 	0.85334	0.88918	0.51974	0.077
Mof_C 	C 	0.7736	0.9096	0.5608	-0.296
Mof_C 	C 	0.7155	0.885	0.5712	0.164
Mof_C 	C 	0.6351	0.9121	0.6125	-0.479
Mof_C 	C 	0.12034	0.09051	0.75321	0.118
Mof_C 	C 	0.18825	0.09074	0.71616	-0.2
Mof_C 	C 	0.26354	0.08682	0.7241	0.133
Mof_C 	C 	0.26606	0.08445	0.76963	-0.191
Mof_C 	C 	0.19562	0.0846	0.80436	0.116
Mof_C 	C 	0.33936	0.08736	0.68312	-0.148
Mof_C 	C 	0.59404	0.57618	0.08054	0.303
Mof_C 	C 	0.5259	0.61522	0.07998	-0.279
Mof_C 	C 	0.4733	0.61471	0.05449	0.154
Mof_C 	C 	0.48474	0.5767	0.02802	-0.218
Mof_C 	C 	0.55265	0.53941	0.02669	0.142
Mof_C 	C 	0.60799	0.53817	0.05185	-0.248
Mof_C 	C 	0.68089	0.49794	0.0461	0.297
Mof_C 	C 	0.8511	0.45303	0.08683	0.277
Mof_C 	C 	0.92938	0.41416	0.08148	-0.333
Mof_C 	C 	0.92924	0.38507	0.12525	0.124
Mof_C 	C 	0.86285	0.35942	0.13748	-0.316
Mof_C 	C 	0.86335	0.32917	0.18013	0.207
Mof_C 	C 	0.79501	0.30435	0.19223	-0.553
Mof_C 	C 	0.81477	0.325	0.02706	0.32
Mof_C 	C 	0.77297	0.29425	0.05301	-0.295
Mof_C 	C 	0.8112	0.24747	0.05233	0.166
Mof_C 	C 	0.89122	0.23006	0.0255	-0.231
Mof_C 	C 	0.93422	0.25979	0.00077	0.15
Mof_C 	C 	0.89809	0.30729	0.00073	-0.257
Mof_C 	C 	0.94833	0.3365	0.9727	0.303
Mof_C 	C 	0.92596	0.44837	0.93525	0.297
Mof_C 	C 	0.96672	0.48	0.90176	-0.362
Mof_C 	C 	0.92965	0.4917	0.8608	0.166
Mof_C 	C 	0.95128	0.45032	0.82972	-0.379
Mof_C 	C 	0.91638	0.46094	0.7875	0.32
Mof_C 	C 	0.93636	0.42055	0.75813	-0.688
Mof_C 	C 	0.72647	0.44943	0.91323	0.107
Mof_C 	C 	0.70668	0.44795	0.87229	-0.188
Mof_C 	C 	0.71594	0.40614	0.85378	0.132
Mof_C 	C 	0.74348	0.36747	0.87837	-0.2
Mof_C 	C 	0.76325	0.37134	0.91836	0.12
Mof_C 	C 	0.69214	0.40444	0.80988	-0.142
Mof_C 	C 	0.86314	0.64854	0.18258	0.312
Mof_C 	C 	0.86837	0.67042	0.22024	-0.28
Mof_C 	C 	0.82043	0.66545	0.26489	0.142
Mof_C 	C 	0.76642	0.63847	0.27349	-0.212
Mof_C 	C 	0.76098	0.61657	0.23707	0.136
Mof_C 	C 	0.80762	0.62084	0.19126	-0.246
Mof_C 	C 	0.79739	0.59586	0.15476	0.297
Mof_C 	C 	0.84957	0.59162	0.03684	0.281
Mof_C 	C 	0.83284	0.57379	0.99673	-0.312
Mof_C 	C 	0.76226	0.61082	0.98026	0.077
Mof_C 	C 	0.744	0.5904	0.9392	-0.296
Mof_C 	C 	0.6717	0.615	0.9288	0.164
Mof_C 	C 	0.6597	0.5879	0.8875	-0.479
Mof_C 	C 	0.46406	0.40949	0.74679	0.118
Mof_C 	C 	0.49515	0.40926	0.78384	-0.2
Mof_C 	C 	0.57446	0.41318	0.7759	0.133
Mof_C 	C 	0.62014	0.41555	0.73037	-0.191
Mof_C 	C 	0.58458	0.4154	0.69564	0.116
Mof_C 	C 	0.60984	0.41264	0.81688	-0.148
Mof_C 	C 	0.32542	0.08054	0.92382	0.303
Mof_C 	C 	0.39412	0.07998	0.88478	-0.28
Mof_C 	C 	0.47221	0.05449	0.88529	0.155
Mof_C 	C 	0.48724	0.02802	0.9233	-0.219
Mof_C 	C 	0.42066	0.02669	0.96059	0.143
Mof_C 	C 	0.34016	0.05185	0.96183	-0.249
Mof_C 	C 	0.27301	0.0461	0.00206	0.298
Mof_C 	C 	0.06207	0.08683	0.04697	0.277
Mof_C 	C 	0.98914	0.08148	0.08584	-0.333
Mof_C 	C 	0.94551	0.12525	0.11493	0.124
Mof_C 	C 	0.99967	0.13748	0.14058	-0.316
Mof_C 	C 	0.95652	0.18013	0.17083	0.207
Mof_C 	C 	0.01276	0.19223	0.19565	-0.554
Mof_C 	C 	0.15817	0.02706	0.175	0.32
Mof_C 	C 	0.17402	0.05301	0.20575	-0.295
Mof_C 	C 	0.13647	0.05233	0.25253	0.165
Mof_C 	C 	0.08328	0.0255	0.26994	-0.231
Mof_C 	C 	0.06501	0.00077	0.24021	0.15
Mof_C 	C 	0.10118	0.00073	0.19271	-0.256
Mof_C 	C 	0.07897	0.9727	0.1635	0.302
Mof_C 	C 	0.13879	0.93525	0.05163	0.298
Mof_C 	C 	0.13152	0.90176	0.02	-0.364
Mof_C 	C 	0.20955	0.8608	0.0083	0.165
Mof_C 	C 	0.219	0.82972	0.04968	-0.38
Mof_C 	C 	0.29612	0.7875	0.03906	0.32
Mof_C 	C 	0.30551	0.75813	0.07945	-0.689
Mof_C 	C 	0.3603	0.91323	0.05057	0.107
Mof_C 	C 	0.42103	0.87229	0.05205	-0.188
Mof_C 	C 	0.43028	0.85378	0.09386	0.132
Mof_C 	C 	0.37815	0.87837	0.13253	-0.2
Mof_C 	C 	0.31839	0.91836	0.12866	0.12
Mof_C 	C 	0.49798	0.80988	0.09556	-0.142
Mof_C 	C 	0.95428	0.18258	0.85146	0.312
Mof_C 	C 	0.91139	0.22024	0.82958	-0.28
Mof_C 	C 	0.91468	0.26489	0.83455	0.141
Mof_C 	C 	0.96009	0.27349	0.86153	-0.211
Mof_C 	C 	0.00195	0.23707	0.88343	0.135
Mof_C 	C 	0.00112	0.19126	0.87916	-0.247
Mof_C 	C 	0.04785	0.15476	0.90414	0.297
Mof_C 	C 	0.11359	0.03684	0.90838	0.28
Mof_C 	C 	0.17043	0.99673	0.92621	-0.309
Mof_C 	C 	0.25748	0.98026	0.88918	0.077
Mof_C 	C 	0.3168	0.9392	0.9096	-0.296
Mof_C 	C 	0.3995	0.9288	0.885	0.164
Mof_C 	C 	0.4528	0.8875	0.9121	-0.479
Mof_C 	C 	0.78915	0.74679	0.09051	0.118
Mof_C 	C 	0.72101	0.78384	0.09074	-0.2
Mof_C 	C 	0.64964	0.7759	0.08682	0.133
Mof_C 	C 	0.64949	0.73037	0.08445	-0.191
Mof_C 	C 	0.71978	0.69564	0.0846	0.116
Mof_C 	C 	0.57328	0.81688	0.08736	-0.148
Mof_C 	C 	0.82978	0.41946	0.57618	0.303
Mof_C 	C 	0.85888	0.42002	0.61522	-0.279
Mof_C 	C 	0.91199	0.44551	0.61471	0.154
Mof_C 	C 	0.93856	0.47198	0.5767	-0.218
Mof_C 	C 	0.90794	0.47331	0.53941	0.142
Mof_C 	C 	0.85384	0.44815	0.53817	-0.248
Mof_C 	C 	0.82117	0.4539	0.49794	0.297
Mof_C 	C 	0.69587	0.41317	0.45303	0.277
Mof_C 	C 	0.65646	0.41852	0.41416	-0.333
Mof_C 	C 	0.68569	0.37475	0.38507	0.124
Mof_C 	C 	0.77773	0.36252	0.35942	-0.316
Mof_C 	C 	0.80748	0.31987	0.32917	0.207
Mof_C 	C 	0.90064	0.30777	0.30435	-0.553
Mof_C 	C 	0.86023	0.47294	0.325	0.32
Mof_C 	C 	0.93278	0.44699	0.29425	-0.295
Mof_C 	C 	0.94133	0.44767	0.24747	0.166
Mof_C 	C 	0.87872	0.4745	0.23006	-0.231
Mof_C 	C 	0.80599	0.49923	0.25979	0.15
Mof_C 	C 	0.79462	0.49927	0.30729	-0.256
Mof_C 	C 	0.71517	0.5273	0.3365	0.302
Mof_C 	C 	0.62567	0.56475	0.44837	0.298
Mof_C 	C 	0.55328	0.59824	0.48	-0.363
Mof_C 	C 	0.57865	0.6392	0.4917	0.167
Mof_C 	C 	0.5984	0.67028	0.45032	-0.38
Mof_C 	C 	0.62268	0.7125	0.46094	0.32
Mof_C 	C 	0.64309	0.74187	0.42055	-0.689
Mof_C 	C 	0.8241	0.58677	0.44943	0.107
Mof_C 	C 	0.84537	0.62771	0.44795	-0.187
Mof_C 	C 	0.87792	0.64622	0.40614	0.131
Mof_C 	C 	0.88905	0.62163	0.36747	-0.2
Mof_C 	C 	0.86541	0.58164	0.37134	0.12
Mof_C 	C 	0.90342	0.69012	0.40444	-0.139
Mof_C 	C 	0.48832	0.31742	0.64854	0.312
Mof_C 	C 	0.46121	0.27976	0.67042	-0.28
Mof_C 	C 	0.51412	0.23511	0.66545	0.142
Mof_C 	C 	0.59511	0.22651	0.63847	-0.212
Mof_C 	C 	0.62245	0.26293	0.61657	0.136
Mof_C 	C 	0.57154	0.30874	0.62084	-0.246
Mof_C 	C 	0.60675	0.34524	0.59586	0.297
Mof_C 	C 	0.55881	0.46316	0.59162	0.282
Mof_C 	C 	0.59337	0.50327	0.57379	-0.313
Mof_C 	C 	0.62692	0.51974	0.61082	0.077
Mof_C 	C 	0.6656	0.5608	0.5904	-0.296
Mof_C 	C 	0.7133	0.5712	0.615	0.164
Mof_C 	C 	0.7524	0.6125	0.5879	-0.479
Mof_C 	C 	0.12645	0.75321	0.40949	0.119
Mof_C 	C 	0.09559	0.71616	0.40926	-0.201
Mof_C 	C 	0.01236	0.7241	0.41318	0.136
Mof_C 	C 	0.96431	0.76963	0.41555	-0.194
Mof_C 	C 	2e-05	0.80436	0.4154	0.118
Mof_C 	C 	0.97752	0.68312	0.41264	-0.151
Mof_C 	C 	0.24924	0.07618	0.58054	0.303
Mof_C 	C 	0.2789	0.11522	0.57998	-0.279
Mof_C 	C 	0.3575	0.11471	0.55449	0.154
Mof_C 	C 	0.41054	0.0767	0.52802	-0.218
Mof_C 	C 	0.38125	0.03941	0.52669	0.142
Mof_C 	C 	0.30199	0.03817	0.55185	-0.248
Mof_C 	C 	0.27507	0.99794	0.5461	0.298
Mof_C 	C 	0.10904	0.95303	0.58683	0.277
Mof_C 	C 	0.07498	0.91416	0.58148	-0.333
Mof_C 	C 	0.06044	0.88507	0.62525	0.124
Mof_C 	C 	0.14025	0.85942	0.63748	-0.316
Mof_C 	C 	0.12735	0.82917	0.68013	0.207
Mof_C 	C 	0.20841	0.80435	0.69223	-0.553
Mof_C 	C 	0.33317	0.825	0.52706	0.32
Mof_C 	C 	0.37977	0.79425	0.55301	-0.295
Mof_C 	C 	0.389	0.74747	0.55233	0.166
Mof_C 	C 	0.35322	0.73006	0.5255	-0.231
Mof_C 	C 	0.30522	0.75979	0.50077	0.15
Mof_C 	C 	0.29389	0.80729	0.50073	-0.256
Mof_C 	C 	0.24247	0.8365	0.4727	0.302
Mof_C 	C 	0.19042	0.94837	0.43525	0.298
Mof_C 	C 	0.15152	0.98	0.40176	-0.363
Mof_C 	C 	0.21785	0.9917	0.3608	0.167
Mof_C 	C 	0.26868	0.95032	0.32972	-0.38
Mof_C 	C 	0.33518	0.96094	0.2875	0.321
Mof_C 	C 	0.38496	0.92055	0.25813	-0.689
Mof_C 	C 	0.41087	0.94943	0.41323	0.107
Mof_C 	C 	0.47308	0.94795	0.37229	-0.188
Mof_C 	C 	0.52414	0.90614	0.35378	0.132
Mof_C 	C 	0.51068	0.86747	0.37837	-0.2
Mof_C 	C 	0.44705	0.87134	0.41836	0.12
Mof_C 	C 	0.59354	0.90444	0.30988	-0.142
Mof_C 	C 	0.80574	0.14854	0.68258	0.312
Mof_C 	C 	0.74097	0.17042	0.72024	-0.281
Mof_C 	C 	0.74923	0.16545	0.76489	0.142
Mof_C 	C 	0.82162	0.13847	0.77349	-0.212
Mof_C 	C 	0.88538	0.11657	0.73707	0.136
Mof_C 	C 	0.88028	0.12084	0.69126	-0.247
Mof_C 	C 	0.95199	0.09586	0.65476	0.298
Mof_C 	C 	0.02197	0.09162	0.53684	0.281
Mof_C 	C 	0.09664	0.07379	0.49673	-0.312
Mof_C 	C 	0.14666	0.11082	0.48026	0.077
Mof_C 	C 	0.2264	0.0904	0.4392	-0.296
Mof_C 	C 	0.2845	0.115	0.4288	0.164
Mof_C 	C 	0.3649	0.0879	0.3875	-0.479
Mof_C 	C 	0.87966	0.90949	0.24679	0.118
Mof_C 	C 	0.81175	0.90926	0.28384	-0.2
Mof_C 	C 	0.73646	0.91318	0.2759	0.133
Mof_C 	C 	0.73394	0.91555	0.23037	-0.191
Mof_C 	C 	0.80438	0.9154	0.19564	0.116
Mof_C 	C 	0.66064	0.91264	0.31688	-0.148
Mof_C 	C 	0.40596	0.42382	0.91946	0.303
Mof_C 	C 	0.4741	0.38478	0.92002	-0.279
Mof_C 	C 	0.5267	0.38529	0.94551	0.154
Mof_C 	C 	0.51526	0.4233	0.97198	-0.218
Mof_C 	C 	0.44735	0.46059	0.97331	0.142
Mof_C 	C 	0.39201	0.46183	0.94815	-0.248
Mof_C 	C 	0.31911	0.50206	0.9539	0.297
Mof_C 	C 	0.1489	0.54697	0.91317	0.277
Mof_C 	C 	0.07062	0.58584	0.91852	-0.333
Mof_C 	C 	0.07076	0.61493	0.87475	0.124
Mof_C 	C 	0.13715	0.64058	0.86252	-0.316
Mof_C 	C 	0.13665	0.67083	0.81987	0.207
Mof_C 	C 	0.20499	0.69565	0.80777	-0.553
Mof_C 	C 	0.18523	0.675	0.97294	0.32
Mof_C 	C 	0.22703	0.70575	0.94699	-0.295
Mof_C 	C 	0.1888	0.75253	0.94767	0.166
Mof_C 	C 	0.10878	0.76994	0.9745	-0.231
Mof_C 	C 	0.06578	0.74021	0.99923	0.15
Mof_C 	C 	0.10191	0.69271	0.99927	-0.257
Mof_C 	C 	0.05167	0.6635	0.0273	0.303
Mof_C 	C 	0.07404	0.55163	0.06475	0.297
Mof_C 	C 	0.03328	0.52	0.09824	-0.362
Mof_C 	C 	0.07035	0.5083	0.1392	0.166
Mof_C 	C 	0.04872	0.54968	0.17028	-0.379
Mof_C 	C 	0.08362	0.53906	0.2125	0.32
Mof_C 	C 	0.06364	0.57945	0.24187	-0.688
Mof_C 	C 	0.27353	0.55057	0.08677	0.107
Mof_C 	C 	0.29332	0.55205	0.12771	-0.188
Mof_C 	C 	0.28406	0.59386	0.14622	0.132
Mof_C 	C 	0.25652	0.63253	0.12163	-0.2
Mof_C 	C 	0.23675	0.62866	0.08164	0.12
Mof_C 	C 	0.30786	0.59556	0.19012	-0.142
Mof_C 	C 	0.13686	0.35146	0.81742	0.312
Mof_C 	C 	0.13163	0.32958	0.77976	-0.28
Mof_C 	C 	0.17957	0.33455	0.73511	0.142
Mof_C 	C 	0.23358	0.36153	0.72651	-0.212
Mof_C 	C 	0.23902	0.38343	0.76293	0.136
Mof_C 	C 	0.19238	0.37916	0.80874	-0.246
Mof_C 	C 	0.20261	0.40414	0.84524	0.297
Mof_C 	C 	0.15043	0.40838	0.96316	0.281
Mof_C 	C 	0.16716	0.42621	0.00327	-0.312
Mof_C 	C 	0.23774	0.38918	0.01974	0.077
Mof_C 	C 	0.256	0.4096	0.0608	-0.296
Mof_C 	C 	0.3283	0.385	0.0712	0.164
Mof_C 	C 	0.3403	0.4121	0.1125	-0.479
Mof_C 	C 	0.53594	0.59051	0.25321	0.118
Mof_C 	C 	0.50485	0.59074	0.21616	-0.2
Mof_C 	C 	0.42554	0.58682	0.2241	0.133
Mof_C 	C 	0.37986	0.58445	0.26963	-0.191
Mof_C 	C 	0.41542	0.5846	0.30436	0.116
Mof_C 	C 	0.39016	0.58736	0.18312	-0.148
Mof_N 	N 	0.8049	0.93032	0.99524	-0.251
Mof_N 	N 	0.86412	0.94035	0.95515	-0.202
Mof_N 	N 	0.88258	0.03082	0.88112	-0.25
Mof_N 	N 	0.90336	0.06196	0.90532	-0.208
Mof_N 	N 	0.69084	0.064	0.91102	-0.203
Mof_N 	N 	0.94911	0.88875	0.10125	-0.251
Mof_N 	N 	0.8981	0.92129	0.07759	-0.198
Mof_N 	N 	0.21081	0.2968	0.9122	-0.203
Mof_N 	N 	0.23046	0.56968	0.50476	-0.251
Mof_N 	N 	0.25962	0.55965	0.54485	-0.203
Mof_N 	N 	0.29452	0.46918	0.61888	-0.25
Mof_N 	N 	0.37064	0.43804	0.59468	-0.209
Mof_N 	N 	0.16586	0.436	0.58898	-0.202
Mof_N 	N 	0.43911	0.61125	0.39875	-0.251
Mof_N 	N 	0.39698	0.57871	0.42241	-0.199
Mof_N 	N 	0.91981	0.2032	0.5878	-0.203
Mof_N 	N 	0.80014	0.00476	0.43032	-0.251
Mof_N 	N 	0.81927	0.04485	0.44035	-0.203
Mof_N 	N 	0.7637	0.11888	0.53082	-0.25
Mof_N 	N 	0.80868	0.09468	0.56196	-0.209
Mof_N 	N 	0.60186	0.08898	0.564	-0.203
Mof_N 	N 	0.05036	0.89875	0.38875	-0.251
Mof_N 	N 	0.97569	0.92241	0.42129	-0.199
Mof_N 	N 	0.12301	0.0878	0.7968	-0.203
Mof_N 	N 	0.73522	0.49524	0.06968	-0.251
Mof_N 	N 	0.80447	0.45515	0.05965	-0.203
Mof_N 	N 	0.9134	0.38112	0.96918	-0.25
Mof_N 	N 	0.96532	0.40532	0.93804	-0.208
Mof_N 	N 	0.75484	0.41102	0.936	-0.203
Mof_N 	N 	0.83786	0.60125	0.11125	-0.251
Mof_N 	N 	0.81939	0.57759	0.07871	-0.198
Mof_N 	N 	0.50761	0.4122	0.7032	-0.203
Mof_N 	N 	0.1951	0.06968	0.00476	-0.251
Mof_N 	N 	0.13588	0.05965	0.04485	-0.202
Mof_N 	N 	0.11742	0.96918	0.11888	-0.25
Mof_N 	N 	0.09664	0.93804	0.09468	-0.208
Mof_N 	N 	0.30916	0.936	0.08898	-0.203
Mof_N 	N 	0.05089	0.11125	0.89875	-0.251
Mof_N 	N 	0.1019	0.07871	0.92241	-0.198
Mof_N 	N 	0.78919	0.7032	0.0878	-0.203
Mof_N 	N 	0.76954	0.43032	0.49524	-0.251
Mof_N 	N 	0.74038	0.44035	0.45515	-0.203
Mof_N 	N 	0.70548	0.53082	0.38112	-0.25
Mof_N 	N 	0.62936	0.56196	0.40532	-0.209
Mof_N 	N 	0.83414	0.564	0.41102	-0.202
Mof_N 	N 	0.56089	0.38875	0.60125	-0.251
Mof_N 	N 	0.60302	0.42129	0.57759	-0.199
Mof_N 	N 	0.08019	0.7968	0.4122	-0.203
Mof_N 	N 	0.19986	0.99524	0.56968	-0.251
Mof_N 	N 	0.18073	0.95515	0.55965	-0.203
Mof_N 	N 	0.2363	0.88112	0.46918	-0.25
Mof_N 	N 	0.19132	0.90532	0.43804	-0.209
Mof_N 	N 	0.39814	0.91102	0.436	-0.203
Mof_N 	N 	0.94964	0.10125	0.61125	-0.251
Mof_N 	N 	0.02431	0.07759	0.57871	-0.199
Mof_N 	N 	0.87699	0.9122	0.2032	-0.203
Mof_N 	N 	0.26478	0.50476	0.93032	-0.251
Mof_N 	N 	0.19553	0.54485	0.94035	-0.203
Mof_N 	N 	0.0866	0.61888	0.03082	-0.25
Mof_N 	N 	0.03468	0.59468	0.06196	-0.208
Mof_N 	N 	0.24516	0.58898	0.064	-0.203
Mof_N 	N 	0.16214	0.39875	0.88875	-0.251
Mof_N 	N 	0.18061	0.42241	0.92129	-0.198
Mof_N 	N 	0.49239	0.5878	0.2968	-0.203
Mof_O 	O 	0.7489	0.8924	0.07824	-0.426
Mof_O 	O 	0.70874	0.98231	0.96625	-0.38
Mof_O 	O 	0.95143	0.88099	0.98403	-0.398
Mof_O 	O 	0.80203	0.97066	0.8696	-0.432
Mof_O 	O 	0.97572	0.04885	0.81771	-0.38
Mof_O 	O 	0.80863	0.04077	0.96555	-0.407
Mof_O 	O 	0.0516	0.85892	0.15586	-0.436
Mof_O 	O 	0.9132	0.83421	0.06995	-0.382
Mof_O 	O 	0.91816	0.97158	0.12266	-0.398
Mof_O 	O 	0.21954	0.6076	0.42176	-0.426
Mof_O 	O 	0.1573	0.51769	0.53375	-0.38
Mof_O 	O 	0.31645	0.61901	0.51597	-0.398
Mof_O 	O 	0.14229	0.52934	0.6304	-0.433
Mof_O 	O 	0.34228	0.45115	0.68229	-0.381
Mof_O 	O 	0.31495	0.45923	0.53445	-0.407
Mof_O 	O 	0.56638	0.64108	0.34414	-0.436
Mof_O 	O 	0.31736	0.66579	0.43005	-0.382
Mof_O 	O 	0.5124	0.52842	0.37734	-0.398
Mof_O 	O 	0.82714	0.92176	0.3924	-0.426
Mof_O 	O 	0.67499	0.03375	0.48231	-0.38
Mof_O 	O 	0.93546	0.01597	0.38099	-0.398
Mof_O 	O 	0.67163	0.1304	0.47066	-0.433
Mof_O 	O 	0.79343	0.18229	0.54885	-0.381
Mof_O 	O 	0.77418	0.03445	0.54077	-0.407
Mof_O 	O 	0.20746	0.84414	0.35892	-0.436
Mof_O 	O 	0.98315	0.93005	0.33421	-0.382
Mof_O 	O 	0.04082	0.87734	0.47158	-0.397
Mof_O 	O 	0.6413	0.57824	0.1076	-0.425
Mof_O 	O 	0.69105	0.46625	0.01769	-0.38
Mof_O 	O 	0.83242	0.48403	0.11901	-0.398
Mof_O 	O 	0.77269	0.3696	0.02934	-0.433
Mof_O 	O 	0.02457	0.31771	0.95115	-0.382
Mof_O 	O 	0.8494	0.46555	0.95923	-0.407
Mof_O 	O 	0.91052	0.65586	0.14108	-0.436
Mof_O 	O 	0.74741	0.56995	0.16579	-0.382
Mof_O 	O 	0.88974	0.62266	0.02842	-0.398
Mof_O 	O 	0.2511	0.1076	0.92176	-0.426
Mof_O 	O 	0.29126	0.01769	0.03375	-0.38
Mof_O 	O 	0.04857	0.11901	0.01597	-0.398
Mof_O 	O 	0.19797	0.02934	0.1304	-0.432
Mof_O 	O 	0.02428	0.95115	0.18229	-0.38
Mof_O 	O 	0.19137	0.95923	0.03445	-0.407
Mof_O 	O 	0.9484	0.14108	0.84414	-0.436
Mof_O 	O 	0.0868	0.16579	0.93005	-0.382
Mof_O 	O 	0.08184	0.02842	0.87734	-0.398
Mof_O 	O 	0.78046	0.3924	0.57824	-0.426
Mof_O 	O 	0.8427	0.48231	0.46625	-0.38
Mof_O 	O 	0.68355	0.38099	0.48403	-0.398
Mof_O 	O 	0.85771	0.47066	0.3696	-0.433
Mof_O 	O 	0.65772	0.54885	0.31771	-0.381
Mof_O 	O 	0.68505	0.54077	0.46555	-0.407
Mof_O 	O 	0.43362	0.35892	0.65586	-0.436
Mof_O 	O 	0.68264	0.33421	0.56995	-0.382
Mof_O 	O 	0.4876	0.47158	0.62266	-0.398
Mof_O 	O 	0.17286	0.07824	0.6076	-0.426
Mof_O 	O 	0.32501	0.96625	0.51769	-0.38
Mof_O 	O 	0.06454	0.98403	0.61901	-0.398
Mof_O 	O 	0.32837	0.8696	0.52934	-0.433
Mof_O 	O 	0.20657	0.81771	0.45115	-0.381
Mof_O 	O 	0.22582	0.96555	0.45923	-0.407
Mof_O 	O 	0.79254	0.15586	0.64108	-0.436
Mof_O 	O 	0.01685	0.06995	0.66579	-0.382
Mof_O 	O 	0.95918	0.12266	0.52842	-0.397
Mof_O 	O 	0.3587	0.42176	0.8924	-0.425
Mof_O 	O 	0.30895	0.53375	0.98231	-0.38
Mof_O 	O 	0.16758	0.51597	0.88099	-0.398
Mof_O 	O 	0.22731	0.6304	0.97066	-0.433
Mof_O 	O 	0.97543	0.68229	0.04885	-0.382
Mof_O 	O 	0.1506	0.53445	0.04077	-0.407
Mof_O 	O 	0.08948	0.34414	0.85892	-0.436
Mof_O 	O 	0.25259	0.43005	0.83421	-0.382
Mof_O 	O 	0.11026	0.37734	0.97158	-0.398
_end
