data_functionalizedCrystal
_audit_creation_method	'EQeq! by Chris Wilmer'
_symmetry_space_group_name_H-M	'P1'
_symmetry_Int_Tables_number	1
_symmetry_cell_setting	triclinic
loop_
_symmetry_equiv_pos_as_xyz
  x,y,z
_cell_length_a	22.1408
_cell_length_b	24.5577
_cell_length_c	7.3445
_cell_angle_alpha	90
_cell_angle_beta	90
_cell_angle_gamma	90
loop_
_atom_site_label
_atom_site_type_symbol
_atom_site_fract_x
_atom_site_fract_y
_atom_site_fract_z
_atom_site_charge
Mof_Ce	Ce	0.26041	0.26753	0.78177	2.726
Mof_O 	O 	0.6315	0.7964	0.2505	-0.501
Mof_O 	O 	0.6809	0.7896	0.987	-0.679
Mof_O 	O 	0.8023	0.7859	0.9873	-0.703
Mof_O 	O 	0.8473	0.8057	0.246	-0.493
Mof_O 	O 	0.2649	0.1324	0.3398	-0.527
Mof_O 	O 	0.2611	0.1858	0.5794	-0.784
Mof_N 	N 	0.2419	0.8331	0.4042	-0.152
Mof_C 	C 	0.263	0.1377	0.5118	0.467
Mof_C 	C 	0.0152	0.8233	0.788	-0.018
Mof_C 	C 	0.5738	0.8213	0.792	-0.015
Mof_H 	H 	0.6098	0.8253	0.7285	0.018
Mof_C 	C 	0.907	0.8141	0.784	0.006
Mof_H 	H 	0.8713	0.811	0.7184	-0
Mof_C 	C 	0.4628	0.8208	0.803	-0.033
Mof_C 	C 	0.2381	0.8705	0.264	0.128
Mof_C 	C 	0.6304	0.7985	0.0832	0.315
Mof_C 	C 	0.5747	0.8083	0.9812	0.005
Mof_C 	C 	0.9051	0.8131	0.9719	-0.018
Mof_C 	C 	0.2668	0.0375	0.563	0.107
Mof_H 	H 	0.2745	0.0323	0.4394	0.004
Mof_C 	C 	0.198	0.9153	0.257	-0.129
Mof_H 	H 	0.1678	0.9181	0.3445	0.078
Mof_C 	C 	0.2508	0.9982	0.867	0.084
Mof_C 	C 	0.5183	0.8029	0.075	-0.161
Mof_H 	H 	0.5182	0.7953	0.1989	0.095
Mof_C 	C 	0.2624	0.9925	0.678	-0.16
Mof_H 	H 	0.2672	0.9578	0.6301	0.09
Mof_C 	C 	0.2827	0.9066	0.9812	0.053
Mof_H 	H 	0.3107	0.9032	0.8875	0.021
Mof_C 	C 	0.8487	0.8005	0.0781	0.357
Mof_C 	C 	0.2598	0.0889	0.63	-0.206
Mof_C 	C 	0.2519	0.0962	0.812	0.111
Mof_H 	H 	0.2511	0.1313	0.859	-0.023
Mof_C 	C 	0.2453	0.9525	0.9879	-0.025
Mof_C 	C 	0.9588	0.8188	0.0691	-0.148
Mof_H 	H 	0.9584	0.8192	0.1957	0.086
Mof_C 	C 	0.519	0.828	0.7048	-0.047
Mof_H 	H 	0.5183	0.8372	0.5819	0.051
Mof_C 	C 	0.1252	0.8485	0.774	-0.029
Mof_H 	H 	0.1225	0.8626	0.8907	0.054
Mof_C 	C 	0.4051	0.8241	0.6992	0.03
Mof_C 	C 	0.2958	0.8305	0.5047	0.043
Mof_C 	C 	0.9615	0.8197	0.692	-0.067
Mof_H 	H 	0.9619	0.821	0.5655	0.054
Mof_C 	C 	0.2023	0.9544	0.1266	-0.027
Mof_H 	H 	0.1755	0.9835	0.1298	0.033
Mof_C 	C 	0.0739	0.825	0.6848	0.009
Mof_C 	C 	0.1351	0.8028	0.4216	-0.103
Mof_H 	H 	0.1385	0.7873	0.3066	0.072
Mof_C 	C 	0.2788	0.8663	0.1106	-0.175
Mof_H 	H 	0.3029	0.8355	0.0992	0.091
Mof_C 	C 	0.3571	0.7873	0.7334	-0.098
Mof_H 	H 	0.3614	0.7608	0.8227	0.077
Mof_C 	C 	0.1798	0.8492	0.6768	-0.105
Mof_H 	H 	0.2132	0.8655	0.7313	0.076
Mof_C 	C 	0.2449	0.0514	0.932	-0.106
Mof_H 	H 	0.2362	0.0574	0.0539	0.053
Mof_C 	C 	0.0129	0.824	0.9758	0.073
Mof_H 	H 	0.0486	0.8281	0.0413	-0.017
Mof_C 	C 	0.4637	0.8087	0.9837	0.095
Mof_H 	H 	0.4276	0.8042	0.0466	-0.021
Mof_C 	C 	0.0809	0.8024	0.5114	-0.031
Mof_H 	H 	0.0476	0.7865	0.4551	0.041
Mof_C 	C 	0.3442	0.868	0.468	-0.024
Mof_C 	C 	0.1867	0.8275	0.5071	0.102
Mof_C 	C 	0.3965	0.8641	0.564	-0.018
Mof_C 	C 	0.304	0.7906	0.6352	0.004
Mof_Ce	Ce	0.73959	0.73247	0.78177	2.726
Mof_O 	O 	0.3685	0.2036	0.2505	-0.501
Mof_O 	O 	0.3191	0.2104	0.987	-0.679
Mof_O 	O 	0.1977	0.2141	0.9873	-0.703
Mof_O 	O 	0.1527	0.1943	0.246	-0.493
Mof_O 	O 	0.7351	0.8676	0.3398	-0.527
Mof_O 	O 	0.7389	0.8142	0.5794	-0.784
Mof_N 	N 	0.7581	0.1669	0.4042	-0.152
Mof_C 	C 	0.737	0.8623	0.5118	0.467
Mof_C 	C 	0.9848	0.1767	0.788	-0.018
Mof_C 	C 	0.4262	0.1787	0.792	-0.015
Mof_H 	H 	0.3902	0.1747	0.7285	0.018
Mof_C 	C 	0.093	0.1859	0.784	0.006
Mof_H 	H 	0.1287	0.189	0.7184	-0
Mof_C 	C 	0.5372	0.1792	0.803	-0.033
Mof_C 	C 	0.7619	0.1295	0.264	0.128
Mof_C 	C 	0.3696	0.2015	0.0832	0.315
Mof_C 	C 	0.4253	0.1917	0.9812	0.005
Mof_C 	C 	0.0949	0.1869	0.9719	-0.018
Mof_C 	C 	0.7332	0.9625	0.563	0.107
Mof_H 	H 	0.7255	0.9677	0.4394	0.004
Mof_C 	C 	0.802	0.0847	0.257	-0.129
Mof_H 	H 	0.8322	0.0819	0.3445	0.078
Mof_C 	C 	0.7492	0.0018	0.867	0.084
Mof_C 	C 	0.4817	0.1971	0.075	-0.161
Mof_H 	H 	0.4818	0.2047	0.1989	0.095
Mof_C 	C 	0.7376	0.0075	0.678	-0.16
Mof_H 	H 	0.7328	0.0422	0.6301	0.09
Mof_C 	C 	0.7173	0.0934	0.9812	0.053
Mof_H 	H 	0.6893	0.0968	0.8875	0.021
Mof_C 	C 	0.1513	0.1995	0.0781	0.357
Mof_C 	C 	0.7402	0.9111	0.63	-0.206
Mof_C 	C 	0.7481	0.9038	0.812	0.111
Mof_H 	H 	0.7489	0.8687	0.859	-0.023
Mof_C 	C 	0.7547	0.0475	0.9879	-0.025
Mof_C 	C 	0.0412	0.1812	0.0691	-0.148
Mof_H 	H 	0.0416	0.1808	0.1957	0.086
Mof_C 	C 	0.481	0.172	0.7048	-0.047
Mof_H 	H 	0.4817	0.1628	0.5819	0.051
Mof_C 	C 	0.8748	0.1515	0.774	-0.029
Mof_H 	H 	0.8775	0.1374	0.8907	0.054
Mof_C 	C 	0.5949	0.1759	0.6992	0.03
Mof_C 	C 	0.7042	0.1695	0.5047	0.043
Mof_C 	C 	0.0385	0.1803	0.692	-0.067
Mof_H 	H 	0.0381	0.179	0.5655	0.054
Mof_C 	C 	0.7977	0.0456	0.1266	-0.027
Mof_H 	H 	0.8245	0.0165	0.1298	0.033
Mof_C 	C 	0.9261	0.175	0.6848	0.009
Mof_C 	C 	0.8649	0.1972	0.4216	-0.103
Mof_H 	H 	0.8615	0.2127	0.3066	0.072
Mof_C 	C 	0.7212	0.1337	0.1106	-0.175
Mof_H 	H 	0.6971	0.1645	0.0992	0.091
Mof_C 	C 	0.6429	0.2127	0.7334	-0.098
Mof_H 	H 	0.6386	0.2392	0.8227	0.077
Mof_C 	C 	0.8202	0.1508	0.6768	-0.105
Mof_H 	H 	0.7868	0.1345	0.7313	0.076
Mof_C 	C 	0.7551	0.9486	0.932	-0.106
Mof_H 	H 	0.7638	0.9426	0.0539	0.053
Mof_C 	C 	0.9871	0.176	0.9758	0.073
Mof_H 	H 	0.9514	0.1719	0.0413	-0.017
Mof_C 	C 	0.5363	0.1913	0.9837	0.095
Mof_H 	H 	0.5724	0.1958	0.0466	-0.021
Mof_C 	C 	0.9191	0.1976	0.5114	-0.031
Mof_H 	H 	0.9524	0.2135	0.4551	0.041
Mof_C 	C 	0.6558	0.132	0.468	-0.024
Mof_C 	C 	0.8133	0.1725	0.5071	0.102
Mof_C 	C 	0.6035	0.1359	0.564	-0.018
Mof_C 	C 	0.696	0.2094	0.6352	0.004
Mof_Ce	Ce	0.26041	0.23247	0.28177	2.664
Mof_O 	O 	0.6315	0.7036	0.7505	-0.524
Mof_O 	O 	0.6809	0.7104	0.487	-0.724
Mof_O 	O 	0.8023	0.7141	0.4873	-0.753
Mof_O 	O 	0.8473	0.6943	0.746	-0.516
Mof_O 	O 	0.2649	0.3676	0.8398	-0.495
Mof_O 	O 	0.2611	0.3142	0.0794	-0.782
Mof_N 	N 	0.2419	0.6669	0.9042	-0.107
Mof_C 	C 	0.263	0.3623	0.0118	0.418
Mof_C 	C 	0.0152	0.6767	0.288	0.073
Mof_C 	C 	0.5738	0.6787	0.292	0.106
Mof_H 	H 	0.6098	0.6747	0.2285	-0.028
Mof_C 	C 	0.907	0.6859	0.284	0.137
Mof_H 	H 	0.8713	0.689	0.2184	-0.049
Mof_C 	C 	0.4628	0.6792	0.303	0.08
Mof_C 	C 	0.2381	0.6295	0.764	0.124
Mof_C 	C 	0.6304	0.7015	0.5832	0.428
Mof_C 	C 	0.5747	0.6917	0.4812	-0.169
Mof_C 	C 	0.9051	0.6869	0.4719	-0.2
Mof_C 	C 	0.2668	0.4625	0.063	0.026
Mof_H 	H 	0.2745	0.4677	0.9394	0.054
Mof_C 	C 	0.198	0.5847	0.757	-0.137
Mof_H 	H 	0.1678	0.5819	0.8445	0.092
Mof_C 	C 	0.2508	0.5018	0.367	0.098
Mof_C 	C 	0.5183	0.6971	0.575	0.075
Mof_H 	H 	0.5182	0.7047	0.6989	0.021
Mof_C 	C 	0.2624	0.5075	0.178	-0.134
Mof_H 	H 	0.2672	0.5422	0.1301	0.073
Mof_C 	C 	0.2827	0.5934	0.4812	0.013
Mof_H 	H 	0.3107	0.5968	0.3875	0.029
Mof_C 	C 	0.8487	0.6995	0.5781	0.471
Mof_C 	C 	0.2598	0.4111	0.13	-0.175
Mof_C 	C 	0.2519	0.4038	0.312	0.121
Mof_H 	H 	0.2511	0.3687	0.359	-0.029
Mof_C 	C 	0.2453	0.5475	0.4879	-0.058
Mof_C 	C 	0.9588	0.6812	0.5691	0.094
Mof_H 	H 	0.9584	0.6808	0.6957	0.009
Mof_C 	C 	0.519	0.672	0.2048	-0.158
Mof_H 	H 	0.5183	0.6628	0.0819	0.084
Mof_C 	C 	0.1252	0.6515	0.274	-0.084
Mof_H 	H 	0.1225	0.6374	0.3907	0.061
Mof_C 	C 	0.4051	0.6759	0.1992	-0
Mof_C 	C 	0.2958	0.6695	0.0047	-0.021
Mof_C 	C 	0.9615	0.6803	0.192	-0.178
Mof_H 	H 	0.9619	0.679	0.0655	0.083
Mof_C 	C 	0.2023	0.5456	0.6266	0.021
Mof_H 	H 	0.1755	0.5165	0.6298	0.027
Mof_C 	C 	0.0739	0.675	0.1848	0.043
Mof_C 	C 	0.1351	0.6972	0.9216	0.075
Mof_H 	H 	0.1385	0.7127	0.8066	0.015
Mof_C 	C 	0.2788	0.6337	0.6106	-0.125
Mof_H 	H 	0.3029	0.6645	0.5992	0.082
Mof_C 	C 	0.3571	0.7127	0.2334	-0.094
Mof_H 	H 	0.3614	0.7392	0.3227	0.065
Mof_C 	C 	0.1798	0.6508	0.1768	-0.034
Mof_H 	H 	0.2132	0.6345	0.2313	0.048
Mof_C 	C 	0.2449	0.4486	0.432	-0.173
Mof_H 	H 	0.2362	0.4426	0.5539	0.099
Mof_C 	C 	0.0129	0.676	0.4758	-0.156
Mof_H 	H 	0.0486	0.6719	0.5413	0.084
Mof_C 	C 	0.4637	0.6913	0.4837	-0.149
Mof_H 	H 	0.4276	0.6958	0.5466	0.086
Mof_C 	C 	0.0809	0.6976	0.0114	-0.205
Mof_H 	H 	0.0476	0.7135	0.9551	0.121
Mof_C 	C 	0.3442	0.632	0.968	0.05
Mof_C 	C 	0.1867	0.6725	0.0071	-0.014
Mof_C 	C 	0.3965	0.6359	0.064	-0.057
Mof_C 	C 	0.304	0.7094	0.1352	0.012
Mof_Ce	Ce	0.73959	0.76753	0.28177	2.664
Mof_O 	O 	0.3685	0.2964	0.7505	-0.524
Mof_O 	O 	0.3191	0.2896	0.487	-0.724
Mof_O 	O 	0.1977	0.2859	0.4873	-0.753
Mof_O 	O 	0.1527	0.3057	0.746	-0.516
Mof_O 	O 	0.7351	0.6324	0.8398	-0.495
Mof_O 	O 	0.7389	0.6858	0.0794	-0.782
Mof_N 	N 	0.7581	0.3331	0.9042	-0.107
Mof_C 	C 	0.737	0.6377	0.0118	0.418
Mof_C 	C 	0.9848	0.3233	0.288	0.073
Mof_C 	C 	0.4262	0.3213	0.292	0.106
Mof_H 	H 	0.3902	0.3253	0.2285	-0.028
Mof_C 	C 	0.093	0.3141	0.284	0.137
Mof_H 	H 	0.1287	0.311	0.2184	-0.049
Mof_C 	C 	0.5372	0.3208	0.303	0.08
Mof_C 	C 	0.7619	0.3705	0.764	0.124
Mof_C 	C 	0.3696	0.2985	0.5832	0.428
Mof_C 	C 	0.4253	0.3083	0.4812	-0.169
Mof_C 	C 	0.0949	0.3131	0.4719	-0.2
Mof_C 	C 	0.7332	0.5375	0.063	0.026
Mof_H 	H 	0.7255	0.5323	0.9394	0.054
Mof_C 	C 	0.802	0.4153	0.757	-0.137
Mof_H 	H 	0.8322	0.4181	0.8445	0.092
Mof_C 	C 	0.7492	0.4982	0.367	0.098
Mof_C 	C 	0.4817	0.3029	0.575	0.075
Mof_H 	H 	0.4818	0.2953	0.6989	0.021
Mof_C 	C 	0.7376	0.4925	0.178	-0.134
Mof_H 	H 	0.7328	0.4578	0.1301	0.073
Mof_C 	C 	0.7173	0.4066	0.4812	0.013
Mof_H 	H 	0.6893	0.4032	0.3875	0.029
Mof_C 	C 	0.1513	0.3005	0.5781	0.471
Mof_C 	C 	0.7402	0.5889	0.13	-0.175
Mof_C 	C 	0.7481	0.5962	0.312	0.121
Mof_H 	H 	0.7489	0.6313	0.359	-0.029
Mof_C 	C 	0.7547	0.4525	0.4879	-0.058
Mof_C 	C 	0.0412	0.3188	0.5691	0.094
Mof_H 	H 	0.0416	0.3192	0.6957	0.009
Mof_C 	C 	0.481	0.328	0.2048	-0.158
Mof_H 	H 	0.4817	0.3372	0.0819	0.084
Mof_C 	C 	0.8748	0.3485	0.274	-0.084
Mof_H 	H 	0.8775	0.3626	0.3907	0.061
Mof_C 	C 	0.5949	0.3241	0.1992	-0
Mof_C 	C 	0.7042	0.3305	0.0047	-0.021
Mof_C 	C 	0.0385	0.3197	0.192	-0.178
Mof_H 	H 	0.0381	0.321	0.0655	0.083
Mof_C 	C 	0.7977	0.4544	0.6266	0.021
Mof_H 	H 	0.8245	0.4835	0.6298	0.027
Mof_C 	C 	0.9261	0.325	0.1848	0.043
Mof_C 	C 	0.8649	0.3028	0.9216	0.075
Mof_H 	H 	0.8615	0.2873	0.8066	0.015
Mof_C 	C 	0.7212	0.3663	0.6106	-0.125
Mof_H 	H 	0.6971	0.3355	0.5992	0.082
Mof_C 	C 	0.6429	0.2873	0.2334	-0.094
Mof_H 	H 	0.6386	0.2608	0.3227	0.065
Mof_C 	C 	0.8202	0.3492	0.1768	-0.034
Mof_H 	H 	0.7868	0.3655	0.2313	0.048
Mof_C 	C 	0.7551	0.5514	0.432	-0.173
Mof_H 	H 	0.7638	0.5574	0.5539	0.099
Mof_C 	C 	0.9871	0.324	0.4758	-0.156
Mof_H 	H 	0.9514	0.3281	0.5413	0.084
Mof_C 	C 	0.5363	0.3087	0.4837	-0.149
Mof_H 	H 	0.5724	0.3042	0.5466	0.086
Mof_C 	C 	0.9191	0.3024	0.0114	-0.205
Mof_H 	H 	0.9524	0.2865	0.9551	0.121
Mof_C 	C 	0.6558	0.368	0.968	0.05
Mof_C 	C 	0.8133	0.3275	0.0071	-0.014
Mof_C 	C 	0.6035	0.3641	0.064	-0.057
Mof_C 	C 	0.696	0.2906	0.1352	0.012
_end
