data_functionalizedCrystal
_audit_creation_method	'EQeq! by Chris Wilmer'
_symmetry_space_group_name_H-M	'P1'
_symmetry_Int_Tables_number	1
_symmetry_cell_setting	triclinic
loop_
_symmetry_equiv_pos_as_xyz
  x,y,z
_cell_length_a	12.4042
_cell_length_b	18.9257
_cell_length_c	21.6698
_cell_angle_alpha	67.155
_cell_angle_beta	86.944
_cell_angle_gamma	84.896
loop_
_atom_site_label
_atom_site_type_symbol
_atom_site_fract_x
_atom_site_fract_y
_atom_site_fract_z
_atom_site_charge
Mof_Nd	Nd	0.26036	0.2034	0.26819	1.993
Mof_Nd	Nd	0.25934	0.30456	0.76803	2.073
Mof_O 	O 	0.4131	0.2622	0.2018	-0.575
Mof_O 	O 	0.1734	0.3037	0.17168	-0.603
Mof_O 	O 	0.2854	0.1332	0.19505	-0.694
Mof_O 	O 	0.0793	0.3084	0.8151	-0.604
Mof_O 	O 	0.3103	0.3418	0.85587	-0.489
Mof_O 	O 	0.2777	0.183	0.86538	-0.609
Mof_N 	N 	0.1346	0.2603	0.3446	-0.239
Mof_N 	N 	0.0496	0.2365	0.3877	-0.139
Mof_N 	N 	0.033	0.2814	0.421	-0.308
Mof_N 	N 	0.107	0.3349	0.4019	-0.349
Mof_N 	N 	0.3093	0.3311	0.2754	-0.206
Mof_N 	N 	0.1737	0.0723	0.3461	-0.244
Mof_N 	N 	0.2081	0.0014	0.3922	-0.283
Mof_N 	N 	0.1235	0.9592	0.41	-0.254
Mof_N 	N 	0.0343	0.9979	0.3774	-0.179
Mof_N 	N 	0.0587	0.188	0.2514	-0.233
Mof_N 	N 	0.3644	0.1697	0.381	-0.245
Mof_N 	N 	0.3589	0.1962	0.4303	-0.214
Mof_N 	N 	0.437	0.1598	0.4733	-0.313
Mof_N 	N 	0.496	0.1088	0.452	-0.28
Mof_N 	N 	0.4158	0.0926	0.3004	-0.24
Mof_N 	N 	0.3589	0.4228	0.6851	-0.239
Mof_N 	N 	0.4566	0.4336	0.6513	-0.087
Mof_N 	N 	0.4712	0.5085	0.6228	-0.096
Mof_N 	N 	0.3825	0.5485	0.6374	-0.128
Mof_N 	N 	0.1654	0.4407	0.7411	-0.246
Mof_N 	N 	0.3917	0.2517	0.6921	-0.235
Mof_N 	N 	0.3859	0.2298	0.6393	-0.195
Mof_N 	N 	0.4833	0.2109	0.6222	-0.279
Mof_N 	N 	0.557	0.2201	0.6616	-0.209
Mof_N 	N 	0.464	0.2865	0.7924	-0.218
Mof_N 	N 	0.1437	0.3308	0.6599	-0.253
Mof_N 	N 	0.1142	0.3924	0.6031	-0.265
Mof_N 	N 	0.0691	0.3658	0.5629	-0.335
Mof_N 	N 	0.0687	0.287	0.5926	-0.354
Mof_N 	N 	0.1828	0.188	0.7564	-0.236
Mof_C 	C 	0.1652	0.3201	0.3547	0.06
Mof_C 	C 	0.2547	0.3614	0.3155	-0.077
Mof_C 	C 	0.2858	0.4318	0.3175	0.031
Mof_H 	H 	0.2494	0.4526	0.347	-0.11
Mof_C 	C 	0.3667	0.4678	0.2773	-0.174
Mof_H 	H 	0.3848	0.5157	0.2769	0.076
Mof_C 	C 	0.4246	0.4365	0.2362	0.123
Mof_C 	C 	0.5127	0.4692	0.1957	-0.2
Mof_H 	H 	0.5373	0.5154	0.1956	0.098
Mof_C 	C 	0.5636	0.4343	0.1561	0.11
Mof_H 	H 	0.6224	0.4577	0.1279	-0.027
Mof_C 	C 	0.5317	0.3657	0.156	-0.258
Mof_H 	H 	0.5687	0.3439	0.1273	0.06
Mof_C 	C 	0.4464	0.3281	0.197	0.229
Mof_C 	C 	0.3933	0.367	0.2367	-0.098
Mof_C 	C 	0.0674	0.0677	0.3378	0.045
Mof_C 	C 	0.0026	0.131	0.2905	-0.03
Mof_C 	C 	0.8906	0.1307	0.2886	-0.011
Mof_H 	H 	0.8539	0.0877	0.3177	-0.009
Mof_C 	C 	0.8354	0.1929	0.2444	-0.144
Mof_H 	H 	0.7589	0.1937	0.243	0.057
Mof_C 	C 	0.8884	0.2563	0.2005	0.099
Mof_C 	C 	0.8397	0.3237	0.1537	-0.218
Mof_H 	H 	0.7632	0.3295	0.1495	0.08
Mof_C 	C 	0.9013	0.3814	0.1138	0.117
Mof_H 	H 	0.8662	0.4264	0.0818	-0.035
Mof_C 	C 	0.0134	0.3768	0.118	-0.273
Mof_H 	H 	0.0531	0.4184	0.0896	0.082
Mof_C 	C 	0.0674	0.3112	0.1639	0.2
Mof_C 	C 	0.0034	0.2507	0.2061	-0.124
Mof_C 	C 	0.4489	0.1162	0.3965	0.067
Mof_C 	C 	0.4793	0.0751	0.3527	-0.07
Mof_C 	C 	0.563	0.017	0.3672	-0.207
Mof_H 	H 	0.6234	0.0186	0.3953	-0.02
Mof_C 	C 	0.5835	0.9777	0.3253	-0.179
Mof_H 	H 	0.656	0.9496	0.3263	-0.004
Mof_C 	C 	0.5168	0.9949	0.2696	0.031
Mof_C 	C 	0.5275	0.9556	0.226	-0.183
Mof_H 	H 	0.5817	0.9146	0.2327	0.066
Mof_C 	C 	0.458	0.9778	0.1736	0.093
Mof_H 	H 	0.4656	0.9515	0.144	-0.024
Mof_C 	C 	0.3773	0.0366	0.1617	-0.279
Mof_H 	H 	0.3319	0.05	0.1243	-0.009
Mof_C 	C 	0.3622	0.0763	0.204	0.186
Mof_C 	C 	0.4334	0.0544	0.2582	-0.142
Mof_C 	C 	0.3163	0.4932	0.6749	0.056
Mof_C 	C 	0.2121	0.5047	0.7058	-0.047
Mof_C 	C 	0.1641	0.5774	0.6992	-0.091
Mof_H 	H 	0.1997	0.6224	0.6739	0.011
Mof_C 	C 	0.0677	0.5828	0.7288	-0.116
Mof_H 	H 	0.0354	0.6318	0.7246	0.047
Mof_C 	C 	0.0145	0.5167	0.7659	0.022
Mof_C 	C 	0.915	0.5151	0.7993	-0.13
Mof_H 	H 	0.8779	0.562	0.7975	0.061
Mof_C 	C 	0.87	0.4474	0.8345	0.039
Mof_H 	H 	0.8013	0.4482	0.8559	-0.006
Mof_C 	C 	0.9235	0.3755	0.84	-0.209
Mof_H 	H 	0.8904	0.3291	0.8647	0.026
Mof_C 	C 	0.0232	0.3735	0.8095	0.19
Mof_C 	C 	0.0684	0.4445	0.7708	-0.093
Mof_C 	C 	0.4989	0.2449	0.7028	0.097
Mof_C 	C 	0.5397	0.2626	0.7572	-0.009
Mof_C 	C 	0.6491	0.2573	0.7701	-0.028
Mof_H 	H 	0.7013	0.241	0.7438	-0.031
Mof_C 	C 	0.6815	0.276	0.8216	-0.112
Mof_H 	H 	0.756	0.2712	0.8316	0.021
Mof_C 	C 	0.604	0.302	0.8589	0.069
Mof_C 	C 	0.6291	0.3229	0.9128	-0.162
Mof_H 	H 	0.702	0.3189	0.9259	0.044
Mof_C 	C 	0.5486	0.3484	0.9451	0.067
Mof_H 	H 	0.5662	0.3613	0.9814	-0.059
Mof_C 	C 	0.4398	0.3566	0.9271	-0.275
Mof_H 	H 	0.3858	0.3764	0.9502	-0.006
Mof_C 	C 	0.4109	0.3359	0.8757	0.22
Mof_C 	C 	0.4954	0.307	0.8423	-0.063
Mof_C 	C 	0.1142	0.2686	0.652	0.004
Mof_C 	C 	0.1341	0.1901	0.7033	-0.088
Mof_C 	C 	0.1061	0.1251	0.6941	-0.002
Mof_H 	H 	0.0713	0.13	0.6545	-0.184
Mof_C 	C 	0.1293	0.055	0.7425	-0.169
Mof_H 	H 	0.1121	0.0103	0.7363	0.03
Mof_C 	C 	0.1789	0.0474	0.8021	0.065
Mof_C 	C 	0.2041	0.9782	0.8562	-0.189
Mof_H 	H 	0.1866	0.9311	0.8545	0.043
Mof_C 	C 	0.2534	0.9775	0.9112	0.117
Mof_H 	H 	0.2713	0.9299	0.947	-0.054
Mof_C 	C 	0.2779	0.0461	0.9156	-0.295
Mof_H 	H 	0.3112	0.0442	0.9547	0.061
Mof_C 	C 	0.2548	0.1164	0.8645	0.16
Mof_C 	C 	0.2032	0.1174	0.8068	-0.095
Mof_K 	K 	0.30643	0.2536	0.06544	2.084
Mof_K 	K 	0.1253	0.18489	0.96863	2.34
Mof_K 	K 	0.38755	0.88743	0.43567	2.46
Mof_K 	K 	0.91448	0.20985	0.54283	1.886
Mof_K 	K 	0.97537	0.44792	0.43381	1.927
Mof_K 	K 	0.2477	0.2213	0.5351	0.883
Mof_K 	K 	0.2764	0.2719	0.5108	0.63
Mof_O 	O 	0.3576	0.1659	0.9833	-0.628
Mof_C 	C 	0.4679	0.1365	0.9922	0.319
Mof_H 	H 	0.513	0.1772	0.9906	-0.133
Mof_H 	H 	0.4911	0.1188	0.9563	-0.074
Mof_H 	H 	0.4755	0.0934	0.0356	-0.132
Mof_O 	O 	0.1712	0.3262	0.9549	-0.72
Mof_C 	C 	0.1206	0.3989	0.9485	0.333
Mof_H 	H 	0.0755	0.4193	0.9087	-0.09
Mof_H 	H 	0.1761	0.4344	0.9441	-0.11
Mof_H 	H 	0.0752	0.3931	0.9884	-0.154
Mof_O 	O 	0.2433	0.8093	0.529	-0.695
Mof_C 	C 	0.1929	0.8475	0.5707	-0.087
Mof_O 	O 	0.8182	0.3657	0.5078	-0.766
Mof_C 	C 	0.708	0.356	0.5218	0.519
Mof_H 	H 	0.6684	0.4063	0.5113	-0.188
Mof_H 	H 	0.6809	0.3307	0.4946	-0.244
Mof_H 	H 	0.6975	0.3241	0.5694	-0.248
Mof_O 	O 	0.992	0.0604	0.9952	-0.749
Mof_Nd	Nd	0.73964	0.7966	0.73181	1.993
Mof_Nd	Nd	0.74066	0.69544	0.23197	2.079
Mof_O 	O 	0.5869	0.7378	0.7982	-0.579
Mof_O 	O 	0.8266	0.6963	0.82832	-0.598
Mof_O 	O 	0.7146	0.8668	0.80495	-0.69
Mof_O 	O 	0.9207	0.6916	0.1849	-0.608
Mof_O 	O 	0.6897	0.6582	0.14413	-0.489
Mof_O 	O 	0.7223	0.817	0.13462	-0.605
Mof_N 	N 	0.8654	0.7397	0.6554	-0.236
Mof_N 	N 	0.9504	0.7635	0.6123	-0.132
Mof_N 	N 	0.967	0.7186	0.579	-0.297
Mof_N 	N 	0.893	0.6651	0.5981	-0.342
Mof_N 	N 	0.6907	0.6689	0.7246	-0.207
Mof_N 	N 	0.8263	0.9277	0.6539	-0.242
Mof_N 	N 	0.7919	0.9986	0.6078	-0.265
Mof_N 	N 	0.8765	0.0408	0.59	-0.264
Mof_N 	N 	0.9657	0.0021	0.6226	-0.189
Mof_N 	N 	0.9413	0.812	0.7486	-0.244
Mof_N 	N 	0.6356	0.8303	0.619	-0.245
Mof_N 	N 	0.6411	0.8038	0.5697	-0.215
Mof_N 	N 	0.563	0.8402	0.5267	-0.315
Mof_N 	N 	0.504	0.8912	0.548	-0.28
Mof_N 	N 	0.5842	0.9074	0.6996	-0.243
Mof_N 	N 	0.6411	0.5772	0.3149	-0.24
Mof_N 	N 	0.5434	0.5664	0.3487	-0.087
Mof_N 	N 	0.5288	0.4915	0.3772	-0.096
Mof_N 	N 	0.6175	0.4515	0.3626	-0.129
Mof_N 	N 	0.8346	0.5593	0.2589	-0.24
Mof_N 	N 	0.6083	0.7483	0.3079	-0.236
Mof_N 	N 	0.6141	0.7702	0.3607	-0.196
Mof_N 	N 	0.5167	0.7891	0.3778	-0.282
Mof_N 	N 	0.443	0.7799	0.3384	-0.21
Mof_N 	N 	0.536	0.7135	0.2076	-0.218
Mof_N 	N 	0.8563	0.6692	0.3401	-0.253
Mof_N 	N 	0.8858	0.6076	0.3969	-0.267
Mof_N 	N 	0.9309	0.6342	0.4371	-0.328
Mof_N 	N 	0.9313	0.713	0.4074	-0.348
Mof_N 	N 	0.8172	0.812	0.2436	-0.235
Mof_C 	C 	0.8348	0.6799	0.6453	0.061
Mof_C 	C 	0.7453	0.6386	0.6845	-0.075
Mof_C 	C 	0.7142	0.5682	0.6825	0.029
Mof_H 	H 	0.7506	0.5474	0.653	-0.106
Mof_C 	C 	0.6333	0.5322	0.7227	-0.172
Mof_H 	H 	0.6152	0.4843	0.7231	0.076
Mof_C 	C 	0.5754	0.5635	0.7638	0.123
Mof_C 	C 	0.4873	0.5308	0.8043	-0.2
Mof_H 	H 	0.4627	0.4846	0.8044	0.098
Mof_C 	C 	0.4364	0.5657	0.8439	0.112
Mof_H 	H 	0.3776	0.5423	0.8721	-0.025
Mof_C 	C 	0.4683	0.6343	0.844	-0.258
Mof_H 	H 	0.4313	0.6561	0.8727	0.063
Mof_C 	C 	0.5536	0.6719	0.803	0.23
Mof_C 	C 	0.6067	0.633	0.7633	-0.098
Mof_C 	C 	0.9326	0.9323	0.6622	0.059
Mof_C 	C 	0.9974	0.869	0.7095	0.003
Mof_C 	C 	0.1094	0.8693	0.7114	-0.06
Mof_H 	H 	0.1461	0.9123	0.6823	0.01
Mof_C 	C 	0.1646	0.8071	0.7556	-0.1
Mof_H 	H 	0.2411	0.8063	0.757	0.043
Mof_C 	C 	0.1116	0.7437	0.7995	0.045
Mof_C 	C 	0.1603	0.6763	0.8463	-0.166
Mof_H 	H 	0.2368	0.6705	0.8505	0.065
Mof_C 	C 	0.0987	0.6186	0.8862	0.053
Mof_H 	H 	0.1338	0.5736	0.9182	-0.012
Mof_C 	C 	0.9866	0.6232	0.882	-0.211
Mof_H 	H 	0.9469	0.5816	0.9104	0.07
Mof_C 	C 	0.9326	0.6888	0.8361	0.173
Mof_C 	C 	0.9966	0.7493	0.7939	-0.081
Mof_C 	C 	0.5511	0.8838	0.6035	0.073
Mof_C 	C 	0.5207	0.9249	0.6473	-0.073
Mof_C 	C 	0.437	0.983	0.6328	-0.172
Mof_H 	H 	0.3766	0.9814	0.6047	-0.023
Mof_C 	C 	0.4165	0.0223	0.6747	-0.197
Mof_H 	H 	0.344	0.0504	0.6737	-0.003
Mof_C 	C 	0.4832	0.0051	0.7304	-0.01
Mof_C 	C 	0.4725	0.0444	0.774	-0.141
Mof_H 	H 	0.4183	0.0854	0.7673	0.052
Mof_C 	C 	0.542	0.0222	0.8264	0.018
Mof_H 	H 	0.5344	0.0485	0.856	-0.003
Mof_C 	C 	0.6227	0.9634	0.8383	-0.21
Mof_H 	H 	0.6681	0.95	0.8757	-0.024
Mof_C 	C 	0.6378	0.9237	0.796	0.155
Mof_C 	C 	0.5666	0.9456	0.7418	-0.1
Mof_C 	C 	0.6837	0.5068	0.3251	0.058
Mof_C 	C 	0.7879	0.4953	0.2942	-0.057
Mof_C 	C 	0.8359	0.4226	0.3008	-0.073
Mof_H 	H 	0.8003	0.3776	0.3261	0.004
Mof_C 	C 	0.9323	0.4172	0.2712	-0.148
Mof_H 	H 	0.9646	0.3682	0.2754	0.063
Mof_C 	C 	0.9855	0.4833	0.2341	0.072
Mof_C 	C 	0.085	0.4849	0.2007	-0.192
Mof_H 	H 	0.1221	0.438	0.2025	0.078
Mof_C 	C 	0.13	0.5526	0.1655	0.083
Mof_H 	H 	0.1987	0.5518	0.1441	-0.023
Mof_C 	C 	0.0765	0.6245	0.16	-0.266
Mof_H 	H 	0.1096	0.6709	0.1353	0.04
Mof_C 	C 	0.9768	0.6265	0.1905	0.232
Mof_C 	C 	0.9316	0.5555	0.2292	-0.118
Mof_C 	C 	0.5011	0.7551	0.2972	0.097
Mof_C 	C 	0.4603	0.7374	0.2428	-0.009
Mof_C 	C 	0.3509	0.7427	0.2299	-0.029
Mof_H 	H 	0.2987	0.759	0.2562	-0.032
Mof_C 	C 	0.3185	0.724	0.1784	-0.112
Mof_H 	H 	0.244	0.7288	0.1684	0.018
Mof_C 	C 	0.396	0.698	0.1411	0.067
Mof_C 	C 	0.3709	0.6771	0.0872	-0.163
Mof_H 	H 	0.298	0.6811	0.0741	0.039
Mof_C 	C 	0.4514	0.6516	0.0549	0.064
Mof_H 	H 	0.4338	0.6387	0.0186	-0.068
Mof_C 	C 	0.5602	0.6434	0.0729	-0.28
Mof_H 	H 	0.6142	0.6236	0.0498	-0.016
Mof_C 	C 	0.5891	0.6641	0.1243	0.219
Mof_C 	C 	0.5046	0.693	0.1577	-0.063
Mof_C 	C 	0.8858	0.7314	0.348	0.007
Mof_C 	C 	0.8659	0.8099	0.2967	-0.088
Mof_C 	C 	0.8939	0.8749	0.3059	0.009
Mof_H 	H 	0.9287	0.87	0.3455	-0.179
Mof_C 	C 	0.8707	0.945	0.2575	-0.182
Mof_H 	H 	0.8879	0.9897	0.2637	0.047
Mof_C 	C 	0.8211	0.9526	0.1979	0.096
Mof_C 	C 	0.7959	0.0218	0.1438	-0.216
Mof_H 	H 	0.8134	0.0689	0.1455	0.046
Mof_C 	C 	0.7466	0.0225	0.0888	0.087
Mof_H 	H 	0.7287	0.0701	0.053	-0.054
Mof_C 	C 	0.7221	0.9539	0.0844	-0.26
Mof_H 	H 	0.6888	0.9558	0.0453	0.051
Mof_C 	C 	0.7452	0.8836	0.1355	0.153
Mof_C 	C 	0.7968	0.8826	0.1932	-0.097
Mof_K 	K 	0.69357	0.7464	0.93456	2.202
Mof_K 	K 	0.8747	0.81511	0.03137	2.309
Mof_K 	K 	0.61245	0.11257	0.56433	2.409
Mof_K 	K 	0.08552	0.79015	0.45717	1.841
Mof_K 	K 	0.02463	0.55208	0.56619	1.854
Mof_K 	K 	0.7523	0.7787	0.4649	0.88
Mof_K 	K 	0.7236	0.7281	0.4892	0.655
Mof_O 	O 	0.6424	0.8341	0.0167	-0.627
Mof_C 	C 	0.5321	0.8635	0.0078	0.229
Mof_H 	H 	0.487	0.8228	0.0094	-0.117
Mof_H 	H 	0.5089	0.8812	0.0437	-0.05
Mof_H 	H 	0.5245	0.9066	0.9644	-0.086
Mof_O 	O 	0.8288	0.6738	0.0451	-0.735
Mof_C 	C 	0.8794	0.6011	0.0515	0.345
Mof_H 	H 	0.9245	0.5807	0.0913	-0.09
Mof_H 	H 	0.8239	0.5656	0.0559	-0.118
Mof_H 	H 	0.9248	0.6069	0.0116	-0.165
Mof_O 	O 	0.7567	0.1907	0.471	-0.694
Mof_C 	C 	0.8071	0.1525	0.4293	-0.086
Mof_O 	O 	0.1818	0.6343	0.4922	-0.759
Mof_C 	C 	0.292	0.644	0.4782	0.514
Mof_H 	H 	0.3316	0.5937	0.4887	-0.186
Mof_H 	H 	0.3191	0.6693	0.5054	-0.243
Mof_H 	H 	0.3025	0.6759	0.4306	-0.247
Mof_O 	O 	0.008	0.9396	0.0048	-0.765
Mof_C 	C 	-0	0	-0	0.616
_end
