data_functionalizedCrystal
_audit_creation_method	'EQeq! by Chris Wilmer'
_symmetry_space_group_name_H-M	'P1'
_symmetry_Int_Tables_number	1
_symmetry_cell_setting	triclinic
loop_
_symmetry_equiv_pos_as_xyz
  x,y,z
_cell_length_a	20.3534
_cell_length_b	20.3534
_cell_length_c	13.9824
_cell_angle_alpha	90
_cell_angle_beta	90
_cell_angle_gamma	90
loop_
_atom_site_label
_atom_site_type_symbol
_atom_site_fract_x
_atom_site_fract_y
_atom_site_fract_z
_atom_site_charge
Mof_N 	N 	0.5242	0.3445	0.0754	-0.324
Mof_N 	N 	0.4024	0.481	0.1937	-0.139
Mof_C 	C 	0.5163	0.3968	0.0487	-0.166
Mof_C 	C 	0.4346	0.4876	0.1294	-0.176
Mof_N 	N 	0.0242	0.8445	0.5754	-0.331
Mof_N 	N 	0.9024	0.981	0.6937	-0.13
Mof_C 	C 	0.0163	0.8968	0.5487	-0.129
Mof_C 	C 	0.9346	0.9876	0.6294	-0.071
Mof_N 	N 	0.9758	0.1555	0.5754	-0.325
Mof_N 	N 	0.0976	0.019	0.6937	-0.151
Mof_C 	C 	0.9837	0.1032	0.5487	-0.1
Mof_C 	C 	0.0654	0.0124	0.6294	-0.192
Mof_N 	N 	0.4758	0.6555	0.0754	-0.321
Mof_N 	N 	0.5976	0.519	0.1937	-0.136
Mof_C 	C 	0.4837	0.6032	0.0487	-0.164
Mof_C 	C 	0.5654	0.5124	0.1294	-0.174
Mof_N 	N 	0.6555	0.0242	0.3254	-0.326
Mof_N 	N 	0.519	0.9024	0.4437	-0.133
Mof_C 	C 	0.6032	0.0163	0.2987	-0.168
Mof_C 	C 	0.5124	0.9346	0.3794	-0.131
Mof_N 	N 	0.1555	0.5242	0.8254	-0.32
Mof_N 	N 	0.019	0.4024	0.9437	-0.14
Mof_C 	C 	0.1032	0.5163	0.7987	-0.151
Mof_C 	C 	0.0124	0.4346	0.8794	-0.19
Mof_N 	N 	0.8445	0.4758	0.8254	-0.318
Mof_N 	N 	0.981	0.5976	0.9437	-0.123
Mof_C 	C 	0.8968	0.4837	0.7987	-0.12
Mof_C 	C 	0.9876	0.5654	0.8794	-0.115
Mof_N 	N 	0.3445	0.9758	0.3254	-0.321
Mof_N 	N 	0.481	0.0976	0.4437	-0.141
Mof_C 	C 	0.3968	0.9837	0.2987	-0.111
Mof_C 	C 	0.4876	0.0654	0.3794	-0.182
Mof_N 	N 	0.9758	0.3445	0.6746	-0.319
Mof_N 	N 	0.0976	0.481	0.5563	-0.144
Mof_C 	C 	0.9837	0.3968	0.7013	-0.108
Mof_C 	C 	0.0654	0.4876	0.6206	-0.183
Mof_N 	N 	0.4758	0.8445	0.1746	-0.325
Mof_N 	N 	0.5976	0.981	0.0563	-0.137
Mof_C 	C 	0.4837	0.8968	0.2013	-0.126
Mof_C 	C 	0.5654	0.9876	0.1206	-0.123
Mof_N 	N 	0.5242	0.1555	0.1746	-0.327
Mof_N 	N 	0.4024	0.019	0.0563	-0.154
Mof_C 	C 	0.5163	0.1032	0.2013	-0.157
Mof_C 	C 	0.4346	0.0124	0.1206	-0.198
Mof_N 	N 	0.0242	0.6555	0.6746	-0.324
Mof_N 	N 	0.9024	0.519	0.5563	-0.136
Mof_C 	C 	0.0163	0.6032	0.7013	-0.166
Mof_C 	C 	0.9346	0.5124	0.6206	-0.132
Mof_N 	N 	0.8445	0.0242	0.4246	-0.333
Mof_N 	N 	0.981	0.9024	0.3063	-0.139
Mof_C 	C 	0.8968	0.0163	0.4513	-0.131
Mof_C 	C 	0.9876	0.9346	0.3706	-0.075
Mof_N 	N 	0.3445	0.5242	0.9246	-0.32
Mof_N 	N 	0.481	0.4024	0.8063	-0.138
Mof_C 	C 	0.3968	0.5163	0.9513	-0.124
Mof_C 	C 	0.4876	0.4346	0.8706	-0.151
Mof_N 	N 	0.6555	0.4758	0.9246	-0.317
Mof_N 	N 	0.519	0.5976	0.8063	-0.133
Mof_C 	C 	0.6032	0.4837	0.9513	-0.121
Mof_C 	C 	0.5124	0.5654	0.8706	-0.148
Mof_N 	N 	0.1555	0.9758	0.4246	-0.327
Mof_N 	N 	0.019	0.0976	0.3063	-0.159
Mof_C 	C 	0.1032	0.9837	0.4513	-0.101
Mof_C 	C 	0.0124	0.0654	0.3706	-0.196
Mof_Nb	Nb	0.5	0.5	-0	0.923
Mof_Nb	Nb	1.28788e-33	0	0.5	0.752
Mof_Nb	Nb	0.5	0	0.25	0.887
Mof_Nb	Nb	6.2899e-33	0.5	0.75	0.889
Mof_Zn	Zn	0.52232	0.25	0.125	1.061
Mof_Zn	Zn	0.02232	0.75	0.625	1.063
Mof_Zn	Zn	0.97768	0.25	0.625	1.074
Mof_Zn	Zn	0.47768	0.75	0.125	1.066
Mof_Zn	Zn	0.75	0.02232	0.375	1.061
Mof_Zn	Zn	0.25	0.52232	0.875	1.069
Mof_Zn	Zn	0.75	0.47768	0.875	1.074
Mof_Zn	Zn	0.25	0.97768	0.375	1.072
_end
