data_functionalizedCrystal
_audit_creation_method	'EQeq! by Chris Wilmer'
_symmetry_space_group_name_H-M	'P1'
_symmetry_Int_Tables_number	1
_symmetry_cell_setting	triclinic
loop_
_symmetry_equiv_pos_as_xyz
  x,y,z
_cell_length_a	22.13
_cell_length_b	7.774
_cell_length_c	6.655
_cell_angle_alpha	90
_cell_angle_beta	105.28
_cell_angle_gamma	90
loop_
_atom_site_label
_atom_site_type_symbol
_atom_site_fract_x
_atom_site_fract_y
_atom_site_fract_z
_atom_site_charge
Mof_O 	O 	0.3511	0.373	0.476	-0.359
Mof_O 	O 	0.347	0.315	0.165	-0.403
Mof_O 	O 	0.304	0.182	0.75	-0.062
Mof_O 	O 	0.447	0.334	0.948	-0.404
Mof_C 	C 	0.372	0.4015	0.319	0.228
Mof_C 	C 	0.295	0.1894	0.573	0.095
Mof_O 	O 	0.33	0.211	0.857	-0.351
Mof_O 	O 	0.8511	0.873	0.476	-0.284
Mof_O 	O 	0.847	0.815	0.165	-0.355
Mof_O 	O 	0.804	0.682	0.75	-0.116
Mof_O 	O 	0.947	0.834	0.948	-0.308
Mof_C 	C 	0.872	0.9015	0.319	0.395
Mof_C 	C 	0.795	0.6894	0.573	0.176
Mof_O 	O 	0.83	0.711	0.857	-0.193
Mof_O 	O 	0.6489	0.373	0.524	-0.353
Mof_O 	O 	0.653	0.315	0.835	-0.359
Mof_O 	O 	0.696	0.182	0.25	-0.057
Mof_O 	O 	0.553	0.334	0.052	-0.435
Mof_C 	C 	0.628	0.4015	0.681	0.23
Mof_C 	C 	0.705	0.1894	0.427	0.095
Mof_O 	O 	0.67	0.211	0.143	-0.372
Mof_O 	O 	0.1489	0.873	0.524	-0.278
Mof_O 	O 	0.153	0.815	0.835	-0.312
Mof_O 	O 	0.196	0.682	0.25	-0.11
Mof_O 	O 	0.053	0.834	0.052	-0.355
Mof_C 	C 	0.128	0.9015	0.681	0.392
Mof_C 	C 	0.205	0.6894	0.427	0.174
Mof_O 	O 	0.17	0.711	0.143	-0.218
Mof_O 	O 	0.6489	0.627	0.524	-0.337
Mof_O 	O 	0.653	0.685	0.835	-0.317
Mof_O 	O 	0.696	0.818	0.25	-0.071
Mof_O 	O 	0.553	0.666	0.052	-0.385
Mof_C 	C 	0.628	0.5985	0.681	0.242
Mof_C 	C 	0.705	0.8106	0.427	0.228
Mof_O 	O 	0.67	0.789	0.143	-0.289
Mof_O 	O 	0.1489	0.127	0.524	-0.327
Mof_O 	O 	0.153	0.185	0.835	-0.295
Mof_O 	O 	0.196	0.318	0.25	-0.078
Mof_O 	O 	0.053	0.166	0.052	-0.356
Mof_C 	C 	0.128	0.0985	0.681	0.074
Mof_C 	C 	0.205	0.3106	0.427	0.128
Mof_O 	O 	0.17	0.289	0.143	-0.287
Mof_O 	O 	0.3511	0.627	0.476	-0.344
Mof_O 	O 	0.347	0.685	0.165	-0.362
Mof_O 	O 	0.304	0.818	0.75	-0.075
Mof_O 	O 	0.447	0.666	0.948	-0.353
Mof_C 	C 	0.372	0.5985	0.319	0.241
Mof_C 	C 	0.295	0.8106	0.573	0.227
Mof_O 	O 	0.33	0.789	0.857	-0.268
Mof_O 	O 	0.8511	0.127	0.476	-0.333
Mof_O 	O 	0.847	0.185	0.165	-0.337
Mof_O 	O 	0.804	0.318	0.75	-0.085
Mof_O 	O 	0.947	0.166	0.948	-0.311
Mof_C 	C 	0.872	0.0985	0.319	0.077
Mof_C 	C 	0.795	0.3106	0.573	0.129
Mof_O 	O 	0.83	0.289	0.857	-0.263
Mof_La	La	0.3469	0.5	0.8465	2.387
Mof_La	La	0.8469	0	0.8465	1.91
Mof_La	La	0.6531	0.5	0.1535	2.291
Mof_La	La	0.1531	0	0.1535	1.821
Mof_O 	O 	0.269	0	0.505	-0.356
Mof_O 	O 	0.769	0.5	0.505	-0.269
Mof_O 	O 	0.731	0	0.495	-0.36
Mof_O 	O 	0.231	0.5	0.495	-0.273
Mof_C 	C 	0.5	0.4015	-0	0.236
Mof_C 	C 	-0	0.9015	-0	0.369
Mof_C 	C 	0.5	0.5985	-0	0.229
Mof_C 	C 	-0	0.0985	-0	0.041
_end
