data_functionalizedCrystal
_audit_creation_method	'EQeq! by Chris Wilmer'
_symmetry_space_group_name_H-M	'P1'
_symmetry_Int_Tables_number	1
_symmetry_cell_setting	triclinic
loop_
_symmetry_equiv_pos_as_xyz
  x,y,z
_cell_length_a	16.829
_cell_length_b	14.358
_cell_length_c	11.977
_cell_angle_alpha	90
_cell_angle_beta	118.15
_cell_angle_gamma	90
loop_
_atom_site_label
_atom_site_type_symbol
_atom_site_fract_x
_atom_site_fract_y
_atom_site_fract_z
_atom_site_charge
Mof_Mg	Mg	0.09742	0.1768	0.90281	1.466
Mof_C 	C 	0.41943	0.7924	0.8164	0.486
Mof_C 	C 	0.39392	0.8651	0.8855	-0.156
Mof_C 	C 	0.31118	0.9117	0.8311	0.082
Mof_H 	H 	0.2684	0.8991	0.748	0.005
Mof_C 	C 	0.29331	0.97693	0.9018	-0.111
Mof_C 	C 	0.35764	0.9969	0.0263	-0.022
Mof_H 	H 	0.3457	0.0412	0.0731	0.053
Mof_C 	C 	0.44	0.9499	0.0799	0.024
Mof_C 	C 	0.45685	0.8846	0.0091	0.037
Mof_H 	H 	0.5116	0.8532	0.0452	0.043
Mof_C 	C 	0.20363	0.02616	0.8492	0.386
Mof_C 	C 	0.5143	0.9918	0.2053	1.094
Mof_H 	H 	0.5741	0.981	0.2147	-0.208
Mof_H 	H 	0.5056	0.058	0.2112	-0.312
Mof_O 	O 	0.49527	0.75735	0.8798	-0.583
Mof_O 	O 	0.36655	0.77172	0.70396	-0.51
Mof_O 	O 	0.14021	0.0002	0.7469	-0.345
Mof_O 	O 	0.19804	0.09178	0.9154	-0.521
Mof_H 	H 	0.0341	0.0493	0.7392	0.363
Mof_O 	O 	0.5	0.94141	0.20721	-0.727
Mof_Mg	Mg	0.59742	0.6768	0.90281	1.463
Mof_C 	C 	0.91943	0.2924	0.8164	0.446
Mof_C 	C 	0.89392	0.3651	0.8855	-0.065
Mof_C 	C 	0.81118	0.4117	0.8311	0.022
Mof_H 	H 	0.7684	0.3991	0.748	0.018
Mof_C 	C 	0.79331	0.47693	0.9018	-0.09
Mof_C 	C 	0.85764	0.4969	0.0263	-0.055
Mof_H 	H 	0.8457	0.5412	0.0731	0.047
Mof_C 	C 	0.94	0.4499	0.0799	0.036
Mof_C 	C 	0.95685	0.3846	0.0091	-0.22
Mof_H 	H 	0.0116	0.3532	0.0452	0.184
Mof_C 	C 	0.70363	0.52616	0.8492	0.379
Mof_C 	C 	0.0143	0.4918	0.2053	0.203
Mof_H 	H 	0.0741	0.481	0.2147	0.014
Mof_H 	H 	0.0056	0.558	0.2112	0.034
Mof_O 	O 	0.99527	0.25735	0.8798	-0.642
Mof_O 	O 	0.86655	0.27172	0.70396	-0.526
Mof_O 	O 	0.64021	0.5002	0.7469	-0.364
Mof_O 	O 	0.69804	0.59178	0.9154	-0.528
Mof_H 	H 	0.5341	0.5493	0.7392	0.395
Mof_O 	O 	8.13777e-34	0.44141	0.20721	-0.169
Mof_Mg	Mg	0.90258	0.1768	0.59719	1.456
Mof_C 	C 	0.58057	0.7924	0.6836	0.491
Mof_C 	C 	0.60608	0.8651	0.6145	-0.171
Mof_C 	C 	0.68882	0.9117	0.6689	0.097
Mof_H 	H 	0.7316	0.8991	0.752	-0.01
Mof_C 	C 	0.70669	0.97693	0.5982	-0.137
Mof_C 	C 	0.64236	0.9969	0.4737	-0.001
Mof_H 	H 	0.6543	0.0412	0.4269	0.041
Mof_C 	C 	0.56	0.9499	0.4201	0.011
Mof_C 	C 	0.54315	0.8846	0.4909	0.052
Mof_H 	H 	0.4884	0.8532	0.4548	0.039
Mof_C 	C 	0.79637	0.02616	0.6508	0.399
Mof_C 	C 	0.4857	0.9918	0.2947	1.096
Mof_H 	H 	0.4259	0.981	0.2853	-0.208
Mof_H 	H 	0.4944	0.058	0.2888	-0.313
Mof_O 	O 	0.50473	0.75735	0.6202	-0.585
Mof_O 	O 	0.63345	0.77172	0.79604	-0.515
Mof_O 	O 	0.85979	0.0002	0.7531	-0.383
Mof_O 	O 	0.80196	0.09178	0.5846	-0.544
Mof_H 	H 	0.9659	0.0493	0.7608	0.272
Mof_O 	O 	0.5	0.94141	0.29279	-0.722
Mof_Mg	Mg	0.40258	0.6768	0.59719	1.464
Mof_C 	C 	0.08057	0.2924	0.6836	0.507
Mof_C 	C 	0.10608	0.3651	0.6145	-0.241
Mof_C 	C 	0.18882	0.4117	0.6689	0.131
Mof_H 	H 	0.2316	0.3991	0.752	-0.017
Mof_C 	C 	0.20669	0.47693	0.5982	-0.156
Mof_C 	C 	0.14236	0.4969	0.4737	0.018
Mof_H 	H 	0.1543	0.5412	0.4269	0.042
Mof_C 	C 	0.06	0.4499	0.4201	-0.003
Mof_C 	C 	0.04315	0.3846	0.4909	0.245
Mof_H 	H 	0.9884	0.3532	0.4548	-0.111
Mof_C 	C 	0.29637	0.52616	0.6508	0.404
Mof_C 	C 	0.9857	0.4918	0.2947	0.583
Mof_H 	H 	0.9259	0.481	0.2853	-0.112
Mof_H 	H 	0.9944	0.558	0.2888	-0.234
Mof_O 	O 	0.00473	0.25735	0.6202	-0.545
Mof_O 	O 	0.13345	0.27172	0.79604	-0.508
Mof_O 	O 	0.35979	0.5002	0.7531	-0.369
Mof_O 	O 	0.30196	0.59178	0.5846	-0.53
Mof_H 	H 	0.4659	0.5493	0.7608	0.395
Mof_O 	O 	2.22767e-17	0.44141	0.29279	-0.436
Mof_O 	O 	2.94548e-33	0.08758	0.75	-0.922
Mof_O 	O 	0.5	0.58758	0.75	-1.094
Mof_Mg	Mg	0.90258	0.8232	0.09719	1.456
Mof_C 	C 	0.58057	0.2076	0.1836	0.489
Mof_C 	C 	0.60608	0.1349	0.1145	-0.164
Mof_C 	C 	0.68882	0.0883	0.1689	0.09
Mof_H 	H 	0.7316	0.1009	0.252	-0.008
Mof_C 	C 	0.70669	0.02307	0.0982	-0.128
Mof_C 	C 	0.64236	0.0031	0.9737	-0.014
Mof_H 	H 	0.6543	0.9588	0.9269	0.048
Mof_C 	C 	0.56	0.0501	0.9201	0.018
Mof_C 	C 	0.54315	0.1154	0.9909	0.044
Mof_H 	H 	0.4884	0.1468	0.9548	0.041
Mof_C 	C 	0.79637	0.97384	0.1508	0.394
Mof_C 	C 	0.4857	0.0082	0.7947	1.093
Mof_H 	H 	0.4259	0.019	0.7853	-0.207
Mof_H 	H 	0.4944	0.942	0.7888	-0.311
Mof_O 	O 	0.50473	0.24265	0.1202	-0.584
Mof_O 	O 	0.63345	0.22828	0.29604	-0.515
Mof_O 	O 	0.85979	0.9998	0.2531	-0.383
Mof_O 	O 	0.80196	0.90822	0.0846	-0.545
Mof_H 	H 	0.9659	0.9507	0.2608	0.266
Mof_O 	O 	0.5	0.05859	0.79279	-0.725
Mof_Mg	Mg	0.40258	0.3232	0.09719	1.464
Mof_C 	C 	0.08057	0.7076	0.1836	0.503
Mof_C 	C 	0.10608	0.6349	0.1145	-0.231
Mof_C 	C 	0.18882	0.5883	0.1689	0.124
Mof_H 	H 	0.2316	0.6009	0.252	-0.014
Mof_C 	C 	0.20669	0.52307	0.0982	-0.149
Mof_C 	C 	0.14236	0.5031	0.9737	0.01
Mof_H 	H 	0.1543	0.4588	0.9269	0.044
Mof_C 	C 	0.06	0.5501	0.9201	0.004
Mof_C 	C 	0.04315	0.6154	0.9909	0.228
Mof_H 	H 	0.9884	0.6468	0.9548	-0.101
Mof_C 	C 	0.29637	0.47384	0.1508	0.402
Mof_C 	C 	0.9857	0.5082	0.7947	0.603
Mof_H 	H 	0.9259	0.519	0.7853	-0.115
Mof_H 	H 	0.9944	0.442	0.7888	-0.236
Mof_O 	O 	0.00473	0.74265	0.1202	-0.544
Mof_O 	O 	0.13345	0.72828	0.29604	-0.506
Mof_O 	O 	0.35979	0.4998	0.2531	-0.369
Mof_O 	O 	0.30196	0.40822	0.0846	-0.528
Mof_H 	H 	0.4659	0.4507	0.2608	0.395
Mof_O 	O 	3.11353e-33	0.55859	0.79279	-0.449
Mof_Mg	Mg	0.09742	0.8232	0.40281	1.467
Mof_C 	C 	0.41943	0.2076	0.3164	0.489
Mof_C 	C 	0.39392	0.1349	0.3855	-0.164
Mof_C 	C 	0.31118	0.0883	0.3311	0.09
Mof_H 	H 	0.2684	0.1009	0.248	0.002
Mof_C 	C 	0.29331	0.02307	0.4018	-0.123
Mof_C 	C 	0.35764	0.0031	0.5263	-0.008
Mof_H 	H 	0.3457	0.9588	0.5731	0.046
Mof_C 	C 	0.44	0.0501	0.5799	0.016
Mof_C 	C 	0.45685	0.1154	0.5091	0.047
Mof_H 	H 	0.5116	0.1468	0.5452	0.04
Mof_C 	C 	0.20363	0.97384	0.3492	0.392
Mof_C 	C 	0.5143	0.0082	0.7053	1.092
Mof_H 	H 	0.5741	0.019	0.7147	-0.208
Mof_H 	H 	0.5056	0.942	0.7112	-0.311
Mof_O 	O 	0.49527	0.24265	0.3798	-0.585
Mof_O 	O 	0.36655	0.22828	0.20396	-0.51
Mof_O 	O 	0.14021	0.9998	0.2469	-0.346
Mof_O 	O 	0.19804	0.90822	0.4154	-0.52
Mof_H 	H 	0.0341	0.9507	0.2392	0.361
Mof_O 	O 	0.5	0.05859	0.70721	-0.722
Mof_Mg	Mg	0.59742	0.3232	0.40281	1.463
Mof_C 	C 	0.91943	0.7076	0.3164	0.45
Mof_C 	C 	0.89392	0.6349	0.3855	-0.076
Mof_C 	C 	0.81118	0.5883	0.3311	0.029
Mof_H 	H 	0.7684	0.6009	0.248	0.015
Mof_C 	C 	0.79331	0.52307	0.4018	-0.098
Mof_C 	C 	0.85764	0.5031	0.5263	-0.046
Mof_H 	H 	0.8457	0.4588	0.5731	0.044
Mof_C 	C 	0.94	0.5501	0.5799	0.031
Mof_C 	C 	0.95685	0.6154	0.5091	-0.205
Mof_H 	H 	0.0116	0.6468	0.5452	0.179
Mof_C 	C 	0.70363	0.47384	0.3492	0.382
Mof_C 	C 	0.0143	0.5082	0.7053	0.241
Mof_H 	H 	0.0741	0.519	0.7147	0.004
Mof_H 	H 	0.0056	0.442	0.7112	0.02
Mof_O 	O 	0.99527	0.74265	0.3798	-0.646
Mof_O 	O 	0.86655	0.72828	0.20396	-0.528
Mof_O 	O 	0.64021	0.4998	0.2469	-0.365
Mof_O 	O 	0.69804	0.40822	0.4154	-0.53
Mof_H 	H 	0.5341	0.4507	0.2392	0.395
Mof_O 	O 	2.77743e-33	0.55859	0.70721	-0.19
Mof_O 	O 	1.11384e-17	0.91242	0.25	-0.912
Mof_O 	O 	0.5	0.41242	0.25	-1.094
_end
