data_functionalizedCrystal
_audit_creation_method	'EQeq! by Chris Wilmer'
_symmetry_space_group_name_H-M	'P1'
_symmetry_Int_Tables_number	1
_symmetry_cell_setting	triclinic
loop_
_symmetry_equiv_pos_as_xyz
  x,y,z
_cell_length_a	10.592
_cell_length_b	13.12
_cell_length_c	22.306
_cell_angle_alpha	90
_cell_angle_beta	90
_cell_angle_gamma	100.813
loop_
_atom_site_label
_atom_site_type_symbol
_atom_site_fract_x
_atom_site_fract_y
_atom_site_fract_z
_atom_site_charge
Mof_Zn	Zn	0.77725	0.48448	0.13841	1.212
Mof_Zn	Zn	0.30466	0.9877	0.07078	1.213
Mof_Zn	Zn	0.22275	0.51552	0.63841	1.212
Mof_Zn	Zn	0.69534	0.0123	0.57078	1.217
Mof_H 	H 	0.476	0.7058	0.2408	0.042
Mof_H 	H 	0.3583	0.4915	0.363	0.097
Mof_H 	H 	0.2081	0.5206	0.4305	0.089
Mof_H 	H 	0.0801	0.6185	0.4737	0.028
Mof_H 	H 	0.9772	0.7722	0.4723	0.069
Mof_H 	H 	0.1011	0.9924	0.3493	0.045
Mof_H 	H 	0.6156	0.6232	0.208	-0.008
Mof_H 	H 	0.4658	0.3781	0.3118	0.023
Mof_H 	H 	0.6325	0.332	0.2505	0.024
Mof_H 	H 	0.8804	0.894	0.5143	-0.027
Mof_H 	H 	0.9214	0.0598	0.3711	0.018
Mof_H 	H 	0.7675	0.1234	0.438	0.028
Mof_H 	H 	0.4787	0.1607	0.9378	0.069
Mof_H 	H 	0.3972	0.4349	0.9764	0.089
Mof_H 	H 	0.24	0.5096	0.912	0.052
Mof_H 	H 	0.0946	0.4843	0.8361	0.051
Mof_H 	H 	0.9916	0.3817	0.7497	0.09
Mof_H 	H 	0.0698	0.1033	0.7203	0.039
Mof_H 	H 	0.5967	0.4684	0.0246	-0.02
Mof_H 	H 	0.5425	0.1596	0.04	0.021
Mof_H 	H 	0.688	0.2387	0.1201	0.008
Mof_H 	H 	0.8661	0.0658	0.6847	-0.016
Mof_H 	H 	0.9377	0.3601	0.6383	0.035
Mof_H 	H 	0.7843	0.2713	0.5684	0.011
Mof_H 	H 	0.2937	0.2597	0.2052	0.211
Mof_H 	H 	0.2963	0.3294	0.0912	-0.055
Mof_H 	H 	0.3804	0.376	0.1466	-0.066
Mof_H 	H 	0.2423	0.4813	0.1643	0.105
Mof_H 	H 	0.1556	0.4316	0.1107	0.098
Mof_H 	H 	0.0564	0.3733	0.2783	0.134
Mof_H 	H 	0.1725	0.4596	0.2589	0.148
Mof_H 	H 	0.1923	0.3452	0.2681	0.125
Mof_H 	H 	0.9995	0.1122	0.2093	0.385
Mof_H 	H 	0.0028	0.2035	0.2549	0.396
Mof_H 	H 	0.1222	0.1495	0.2486	0.399
Mof_H 	H 	0.9433	0.2096	0.1316	0.394
Mof_H 	H 	0.0416	0.1367	0.1188	0.394
Mof_H 	H 	0.0633	0.2483	0.0909	0.405
Mof_H 	H 	0.8547	0.8166	0.09	0.179
Mof_H 	H 	0.8323	0.763	0.9722	-0.008
Mof_H 	H 	0.9131	0.8652	0.0003	-0.048
Mof_H 	H 	0.7576	0.9434	0.958	0.077
Mof_H 	H 	0.6565	0.8387	0.9561	0.074
Mof_H 	H 	0.7118	0.0631	0.0585	0.073
Mof_H 	H 	0.8235	0.0148	0.031	0.063
Mof_H 	H 	0.7826	0.9924	0.098	0.046
Mof_H 	H 	0.6826	0.9087	0.1555	0.315
Mof_H 	H 	0.6864	0.7924	0.1699	0.327
Mof_H 	H 	0.5548	0.8261	0.1566	0.31
Mof_H 	H 	0.5742	0.6643	0.0653	0.346
Mof_H 	H 	0.5099	0.7403	0.0266	0.346
Mof_H 	H 	0.4844	0.7314	0.0958	0.335
Mof_H 	H 	0.524	0.2942	0.7408	0.041
Mof_H 	H 	0.6417	0.5085	0.863	0.098
Mof_H 	H 	0.7919	0.4794	0.9305	0.093
Mof_H 	H 	0.9199	0.3815	0.9737	0.034
Mof_H 	H 	0.0228	0.2278	0.9723	0.074
Mof_H 	H 	0.8989	0.0076	0.8493	0.045
Mof_H 	H 	0.3844	0.3768	0.708	-0.008
Mof_H 	H 	0.5342	0.6219	0.8118	0.024
Mof_H 	H 	0.3675	0.668	0.7505	0.025
Mof_H 	H 	0.1196	0.106	0.0143	-0.049
Mof_H 	H 	0.0786	0.9402	0.8711	0.018
Mof_H 	H 	0.2325	0.8766	0.938	0.031
Mof_H 	H 	0.5213	0.8393	0.4378	0.063
Mof_H 	H 	0.6028	0.5651	0.4764	0.078
Mof_H 	H 	0.76	0.4904	0.412	0.047
Mof_H 	H 	0.9054	0.5157	0.3361	0.052
Mof_H 	H 	0.0084	0.6183	0.2497	0.089
Mof_H 	H 	0.9302	0.8967	0.2203	0.039
Mof_H 	H 	0.4033	0.5316	0.5246	-0.015
Mof_H 	H 	0.4575	0.8404	0.54	0.025
Mof_H 	H 	0.312	0.7613	0.6201	0.008
Mof_H 	H 	0.1339	0.9342	0.1847	-0.015
Mof_H 	H 	0.0623	0.6399	0.1383	0.035
Mof_H 	H 	0.2157	0.7287	0.0684	0.007
Mof_H 	H 	0.7063	0.7403	0.7052	0.211
Mof_H 	H 	0.7037	0.6706	0.5912	-0.051
Mof_H 	H 	0.6196	0.624	0.6466	-0.065
Mof_H 	H 	0.7577	0.5187	0.6643	0.106
Mof_H 	H 	0.8444	0.5684	0.6107	0.101
Mof_H 	H 	0.9436	0.6267	0.7783	0.135
Mof_H 	H 	0.8275	0.5404	0.7589	0.149
Mof_H 	H 	0.8077	0.6548	0.7681	0.126
Mof_H 	H 	0.0005	0.8878	0.7093	0.384
Mof_H 	H 	0.9972	0.7965	0.7549	0.397
Mof_H 	H 	0.8778	0.8505	0.7486	0.399
Mof_H 	H 	0.0567	0.7904	0.6316	0.396
Mof_H 	H 	0.9584	0.8633	0.6188	0.397
Mof_H 	H 	0.9367	0.7517	0.5909	0.409
Mof_H 	H 	0.1453	0.1834	0.59	0.165
Mof_H 	H 	0.1677	0.237	0.4722	0.012
Mof_H 	H 	0.0869	0.1348	0.5003	-0.005
Mof_H 	H 	0.2424	0.0566	0.458	0.066
Mof_H 	H 	0.3435	0.1613	0.4561	0.065
Mof_H 	H 	0.2882	0.9369	0.5585	0.08
Mof_H 	H 	0.1765	0.9852	0.531	0.074
Mof_H 	H 	0.2174	0.0076	0.598	0.052
Mof_H 	H 	0.3174	0.0913	0.6555	0.311
Mof_H 	H 	0.3136	0.2076	0.6699	0.323
Mof_H 	H 	0.4452	0.1739	0.6566	0.306
Mof_H 	H 	0.4258	0.3357	0.5653	0.346
Mof_H 	H 	0.4901	0.2597	0.5266	0.351
Mof_H 	H 	0.5156	0.2686	0.5958	0.334
Mof_C 	C 	0.4253	0.6845	0.2742	-0.047
Mof_C 	C 	0.4329	0.5892	0.2988	0.112
Mof_C 	C 	0.3566	0.5562	0.3463	-0.19
Mof_C 	C 	0.2791	0.6152	0.3696	0.118
Mof_C 	C 	0.2064	0.5855	0.4142	-0.144
Mof_C 	C 	0.126	0.6436	0.4396	-0.019
Mof_C 	C 	0.11	0.7415	0.4155	0.026
Mof_C 	C 	0.0281	0.7963	0.4394	-0.131
Mof_C 	C 	0.0227	0.8912	0.4127	0.094
Mof_C 	C 	0.1053	0.9282	0.3661	-0.043
Mof_C 	C 	0.1896	0.7733	0.3703	0.042
Mof_C 	C 	0.2742	0.7079	0.3447	-0.003
Mof_C 	C 	0.6013	0.558	0.2259	0.063
Mof_C 	C 	0.5171	0.421	0.2847	-0.005
Mof_C 	C 	0.6076	0.3963	0.2497	0.007
Mof_C 	C 	0.8708	0.9446	0.4864	0.129
Mof_C 	C 	0.8959	0.0328	0.4087	0.011
Mof_C 	C 	0.8086	0.0681	0.4456	-0.003
Mof_C 	C 	0.4319	0.2121	0.929	-0.057
Mof_C 	C 	0.4452	0.3014	0.9644	0.137
Mof_C 	C 	0.3838	0.3761	0.9522	-0.164
Mof_C 	C 	0.2995	0.3706	0.9047	0.059
Mof_C 	C 	0.2282	0.4482	0.8901	-0.071
Mof_C 	C 	0.1425	0.4333	0.8441	-0.066
Mof_C 	C 	0.1237	0.344	0.8085	0.055
Mof_C 	C 	0.036	0.3295	0.7601	-0.159
Mof_C 	C 	0.0169	0.2396	0.7291	0.128
Mof_C 	C 	0.0844	0.1638	0.743	-0.065
Mof_C 	C 	0.1868	0.2671	0.8207	0.022
Mof_C 	C 	0.2809	0.2783	0.8709	0.034
Mof_C 	C 	0.6042	0.4021	0.037	0.088
Mof_C 	C 	0.5722	0.2302	0.0459	0.009
Mof_C 	C 	0.6535	0.2739	0.0898	-0.009
Mof_C 	C 	0.8653	0.1271	0.664	0.088
Mof_C 	C 	0.9045	0.2893	0.6389	0.004
Mof_C 	C 	0.8206	0.2408	0.6001	-0.02
Mof_C 	C 	0.9643	0.3903	0.1806	0.323
Mof_C 	C 	0.101	0.3647	0.1901	-0.116
Mof_C 	C 	0.1076	0.2489	0.1788	0.74
Mof_C 	C 	0.2491	0.2533	0.1665	-0.6
Mof_C 	C 	0.2945	0.3442	0.1337	0.277
Mof_C 	C 	0.1973	0.4163	0.1474	-0.252
Mof_C 	C 	0.1335	0.388	0.2546	-0.381
Mof_C 	C 	0.053	0.1714	0.2274	-1.228
Mof_C 	C 	0.0323	0.2072	0.1253	-1.261
Mof_C 	C 	0.5321	0.9392	0.0344	0.484
Mof_C 	C 	0.6596	0.9124	0.0397	-0.246
Mof_C 	C 	0.6616	0.8156	0.0758	0.579
Mof_C 	C 	0.7905	0.7795	0.0622	-0.5
Mof_C 	C 	0.8295	0.8199	0.9997	0.174
Mof_C 	C 	0.7208	0.8819	0.9807	-0.121
Mof_C 	C 	0.7523	0.0035	0.0584	-0.165
Mof_C 	C 	0.6446	0.838	0.1467	-0.962
Mof_C 	C 	0.5471	0.7301	0.0649	-1.071
Mof_C 	C 	0.786	0.6679	0.0719	0.519
Mof_C 	C 	0.2785	0.1527	0.1345	0.61
Mof_C 	C 	0.5747	0.3155	0.7742	-0.047
Mof_C 	C 	0.5671	0.4108	0.7988	0.113
Mof_C 	C 	0.6434	0.4438	0.8463	-0.191
Mof_C 	C 	0.7209	0.3848	0.8696	0.12
Mof_C 	C 	0.7936	0.4145	0.9142	-0.143
Mof_C 	C 	0.874	0.3564	0.9396	-0.018
Mof_C 	C 	0.89	0.2585	0.9155	0.028
Mof_C 	C 	0.9719	0.2037	0.9394	-0.131
Mof_C 	C 	0.9773	0.1088	0.9127	0.099
Mof_C 	C 	0.8947	0.0718	0.8661	-0.044
Mof_C 	C 	0.8104	0.2267	0.8703	0.042
Mof_C 	C 	0.7258	0.2921	0.8447	-0.003
Mof_C 	C 	0.3987	0.442	0.7259	0.063
Mof_C 	C 	0.4829	0.579	0.7847	-0.005
Mof_C 	C 	0.3924	0.6037	0.7497	0.007
Mof_C 	C 	0.1292	0.0554	0.9864	0.159
Mof_C 	C 	0.1041	0.9672	0.9087	0.017
Mof_C 	C 	0.1914	0.9319	0.9456	-0.002
Mof_C 	C 	0.5681	0.7879	0.429	-0.049
Mof_C 	C 	0.5548	0.6986	0.4644	0.114
Mof_C 	C 	0.6162	0.6239	0.4522	-0.151
Mof_C 	C 	0.7005	0.6294	0.4047	0.05
Mof_C 	C 	0.7718	0.5518	0.3901	-0.065
Mof_C 	C 	0.8575	0.5667	0.3441	-0.071
Mof_C 	C 	0.8763	0.656	0.3085	0.057
Mof_C 	C 	0.964	0.6705	0.2601	-0.159
Mof_C 	C 	0.9831	0.7604	0.2291	0.128
Mof_C 	C 	0.9156	0.8362	0.243	-0.066
Mof_C 	C 	0.8132	0.7329	0.3207	0.02
Mof_C 	C 	0.7191	0.7217	0.3709	0.037
Mof_C 	C 	0.3958	0.5979	0.537	0.09
Mof_C 	C 	0.4278	0.7698	0.5459	0.01
Mof_C 	C 	0.3465	0.7261	0.5898	-0.007
Mof_C 	C 	0.1347	0.8729	0.164	0.087
Mof_C 	C 	0.0955	0.7107	0.1389	0.003
Mof_C 	C 	0.1794	0.7592	0.1001	-0.021
Mof_C 	C 	0.0357	0.6097	0.6806	0.322
Mof_C 	C 	0.899	0.6353	0.6901	-0.115
Mof_C 	C 	0.8924	0.7511	0.6788	0.741
Mof_C 	C 	0.7509	0.7467	0.6665	-0.599
Mof_C 	C 	0.7055	0.6558	0.6337	0.275
Mof_C 	C 	0.8027	0.5837	0.6474	-0.253
Mof_C 	C 	0.8665	0.612	0.7546	-0.384
Mof_C 	C 	0.947	0.8286	0.7274	-1.228
Mof_C 	C 	0.9677	0.7928	0.6253	-1.266
Mof_C 	C 	0.4679	0.0608	0.5344	0.509
Mof_C 	C 	0.3404	0.0876	0.5397	-0.237
Mof_C 	C 	0.3384	0.1844	0.5758	0.566
Mof_C 	C 	0.2095	0.2205	0.5622	-0.449
Mof_C 	C 	0.1705	0.1801	0.4997	0.084
Mof_C 	C 	0.2792	0.1181	0.4807	-0.108
Mof_C 	C 	0.2477	0.9965	0.5584	-0.181
Mof_C 	C 	0.3554	0.162	0.6467	-0.949
Mof_C 	C 	0.4529	0.2699	0.5649	-1.065
Mof_C 	C 	0.214	0.3321	0.5719	0.501
Mof_C 	C 	0.7215	0.8473	0.6345	0.607
Mof_N 	N 	0.3505	0.7484	0.2948	-0.087
Mof_N 	N 	0.1938	0.8726	0.3438	-0.093
Mof_N 	N 	0.5144	0.5239	0.2724	-0.132
Mof_N 	N 	0.6615	0.4765	0.2118	-0.247
Mof_N 	N 	0.9382	0.9543	0.435	-0.145
Mof_N 	N 	0.7941	0.0058	0.4957	-0.271
Mof_N 	N 	0.347	0.2011	0.8801	-0.087
Mof_N 	N 	0.173	0.172	0.7888	-0.095
Mof_N 	N 	0.5422	0.3091	0.0118	-0.146
Mof_N 	N 	0.6753	0.3793	0.0814	-0.263
Mof_N 	N 	0.9361	0.2207	0.6804	-0.146
Mof_N 	N 	0.7951	0.1327	0.6154	-0.27
Mof_N 	N 	0.6495	0.2516	0.7948	-0.087
Mof_N 	N 	0.8062	0.1274	0.8438	-0.093
Mof_N 	N 	0.4856	0.4761	0.7724	-0.132
Mof_N 	N 	0.3385	0.5235	0.7118	-0.247
Mof_N 	N 	0.0618	0.0457	0.935	-0.151
Mof_N 	N 	0.2059	0.9942	0.9957	-0.268
Mof_N 	N 	0.653	0.7989	0.3801	-0.089
Mof_N 	N 	0.827	0.828	0.2888	-0.094
Mof_N 	N 	0.4578	0.6909	0.5118	-0.135
Mof_N 	N 	0.3247	0.6207	0.5814	-0.262
Mof_N 	N 	0.0639	0.7793	0.1804	-0.146
Mof_N 	N 	0.2049	0.8673	0.1154	-0.272
Mof_O 	O 	0.9523	0.4667	0.1522	-0.484
Mof_O 	O 	0.8688	0.3313	0.2069	-0.342
Mof_O 	O 	0.2795	0.1332	0.0901	-0.636
Mof_O 	O 	0.2924	0.0906	0.1841	-0.363
Mof_O 	O 	0.4835	0.9783	0.0717	-0.555
Mof_O 	O 	0.4627	0.9052	0.9926	-0.363
Mof_O 	O 	0.7843	0.6091	0.0298	-0.393
Mof_O 	O 	0.7809	0.6307	0.1227	-0.538
Mof_O 	O 	0.0477	0.5333	0.6522	-0.482
Mof_O 	O 	0.1312	0.6687	0.7069	-0.341
Mof_O 	O 	0.7205	0.8668	0.5901	-0.631
Mof_O 	O 	0.7076	0.9094	0.6841	-0.362
Mof_O 	O 	0.5165	0.0217	0.5717	-0.56
Mof_O 	O 	0.5373	0.0948	0.4926	-0.387
Mof_O 	O 	0.2157	0.3909	0.5298	-0.38
Mof_O 	O 	0.2191	0.3693	0.6227	-0.532
_end
