data_functionalizedCrystal
_audit_creation_method	'EQeq! by Chris Wilmer'
_symmetry_space_group_name_H-M	'P1'
_symmetry_Int_Tables_number	1
_symmetry_cell_setting	triclinic
loop_
_symmetry_equiv_pos_as_xyz
  x,y,z
_cell_length_a	11.341
_cell_length_b	12.23
_cell_length_c	15.251
_cell_angle_alpha	93.34
_cell_angle_beta	107.371
_cell_angle_gamma	117.031
loop_
_atom_site_label
_atom_site_type_symbol
_atom_site_fract_x
_atom_site_fract_y
_atom_site_fract_z
_atom_site_charge
Mof_Cd	Cd	0.23232	0.29727	0.37193	0.357
Mof_Cd	Cd	0.76768	0.70273	0.62807	0.361
Mof_Cd	Cd	-0	0	-0	0.321
Mof_H 	H 	0.6711	0.6114	0.124	0.139
Mof_H 	H 	0.5224	0.2981	0.3798	0.005
Mof_H 	H 	0.7431	0.3514	0.4521	0.139
Mof_H 	H 	0.3235	0.4391	0.2134	0.027
Mof_H 	H 	0.1739	0.2423	0.5652	0.031
Mof_H 	H 	0.9693	0.3304	0.3518	0.083
Mof_H 	H 	0.8154	0.7669	0.0713	0.062
Mof_H 	H 	0.6987	0.5045	0.2139	0.024
Mof_H 	H 	0.038	0.2507	0.6463	0.045
Mof_H 	H 	0.4049	0.6688	0.9865	0.1
Mof_H 	H 	0.8664	0.3064	0.5811	0.075
Mof_H 	H 	0.6691	0.9285	0.8924	0.037
Mof_H 	H 	0.4479	0.8147	0.896	0.055
Mof_H 	H 	0.3289	0.3886	0.876	0.14
Mof_H 	H 	0.4776	0.7019	0.6202	0.006
Mof_H 	H 	0.2569	0.6486	0.5479	0.14
Mof_H 	H 	0.6765	0.5609	0.7866	0.028
Mof_H 	H 	0.8261	0.7577	0.4348	0.044
Mof_H 	H 	0.0307	0.6696	0.6482	0.09
Mof_H 	H 	0.1846	0.2331	0.9287	0.056
Mof_H 	H 	0.3013	0.4955	0.7861	0.023
Mof_H 	H 	0.962	0.7493	0.3537	0.034
Mof_H 	H 	0.5951	0.3312	0.0135	0.11
Mof_H 	H 	0.1336	0.6936	0.4189	0.093
Mof_H 	H 	0.3309	0.0715	0.1076	0.032
Mof_H 	H 	0.5521	0.1853	0.104	0.04
Mof_C 	C 	0.5187	0.3455	0.3345	0.071
Mof_C 	C 	0.4698	0.6147	0.4479	0.086
Mof_C 	C 	0.6307	0.398	0.3024	-0.111
Mof_C 	C 	0.0201	0.2333	0.1482	0.079
Mof_C 	C 	0.7566	0.3784	0.3331	0.259
Mof_C 	C 	0.6063	0.7021	0.0398	0.122
Mof_C 	C 	0.122	0.0254	0.2361	0.062
Mof_C 	C 	0.4026	0.4288	0.2365	0.074
Mof_C 	C 	0.1031	0.2619	0.5376	0.018
Mof_C 	C 	0.4874	0.5555	0.1281	0.249
Mof_C 	C 	0.8978	0.3227	0.4576	0.131
Mof_C 	C 	0.9825	0.3142	0.4118	-0.046
Mof_C 	C 	0.5086	0.4841	0.2013	-0.11
Mof_C 	C 	0.7399	0.7766	0.0357	-0.058
Mof_C 	C 	0.6243	0.468	0.2357	0.05
Mof_C 	C 	0.0233	0.2681	0.5867	-0.039
Mof_C 	C 	0.4958	0.7171	0.9859	-0.099
Mof_C 	C 	0.9202	0.3001	0.5476	-0.097
Mof_C 	C 	0.6542	0.8715	0.9312	0.027
Mof_C 	C 	0.5212	0.8028	0.9322	-0.022
Mof_C 	C 	0.4813	0.6545	0.6655	0.072
Mof_C 	C 	0.5302	0.3853	0.5521	0.083
Mof_C 	C 	0.3693	0.602	0.6976	-0.112
Mof_C 	C 	0.9799	0.7667	0.8518	0.104
Mof_C 	C 	0.2434	0.6216	0.6669	0.261
Mof_C 	C 	0.3937	0.2979	0.9602	0.155
Mof_C 	C 	0.878	0.9746	0.7639	0.099
Mof_C 	C 	0.5974	0.5712	0.7635	0.075
Mof_C 	C 	0.8969	0.7381	0.4624	-0.004
Mof_C 	C 	0.5126	0.4445	0.8719	0.251
Mof_C 	C 	0.1022	0.6773	0.5424	0.157
Mof_C 	C 	0.0175	0.6858	0.5882	-0.081
Mof_C 	C 	0.4914	0.5159	0.7987	-0.11
Mof_C 	C 	0.2601	0.2234	0.9643	-0.045
Mof_C 	C 	0.3757	0.532	0.7643	0.05
Mof_C 	C 	0.9767	0.7319	0.4133	0.021
Mof_C 	C 	0.5042	0.2829	0.0141	-0.153
Mof_C 	C 	0.0798	0.6999	0.4524	-0.152
Mof_C 	C 	0.3458	0.1285	0.0688	0.004
Mof_C 	C 	0.4788	0.1972	0.0678	0.002
Mof_S 	S 	0.29801	0.55365	0.3949	-0.065
Mof_S 	S 	0.1821	0.0606	0.35197	-0.078
Mof_S 	S 	0.954	0.1969	0.03253	-0.049
Mof_S 	S 	0.70199	0.44635	0.6051	-0.061
Mof_S 	S 	0.8179	0.9394	0.64803	-0.063
Mof_S 	S 	0.046	0.8031	0.96747	-0.043
Mof_N 	N 	0.0826	0.2836	0.4501	-0.127
Mof_N 	N 	0.4058	0.3616	0.3017	-0.153
Mof_N 	N 	0.5896	0.6564	0.4842	-0.154
Mof_N 	N 	0.5981	0.6208	0.1011	-0.248
Mof_N 	N 	0.792	0.351	0.4186	-0.251
Mof_N 	N 	0.7633	0.861	0.9829	-0.106
Mof_N 	N 	0.067	0.262	0.2292	-0.153
Mof_N 	N 	0.0768	0.9959	0.1546	-0.138
Mof_N 	N 	0.9174	0.7164	0.5499	-0.107
Mof_N 	N 	0.5942	0.6384	0.6983	-0.153
Mof_N 	N 	0.4104	0.3436	0.5158	-0.154
Mof_N 	N 	0.4019	0.3792	0.8989	-0.252
Mof_N 	N 	0.208	0.649	0.5814	-0.258
Mof_N 	N 	0.2367	0.139	0.0171	-0.125
Mof_N 	N 	0.933	0.738	0.7708	-0.152
Mof_N 	N 	0.9232	0.0041	0.8454	-0.158
Mof_O 	O 	0.3728	0.5506	0.093	-0.242
Mof_O 	O 	0.8206	0.3872	0.2824	-0.247
Mof_O 	O 	0.6272	0.4494	0.907	-0.232
Mof_O 	O 	0.1794	0.6128	0.7176	-0.251
_end
