data_functionalizedCrystal
_audit_creation_method	'EQeq! by Chris Wilmer'
_symmetry_space_group_name_H-M	'P1'
_symmetry_Int_Tables_number	1
_symmetry_cell_setting	triclinic
loop_
_symmetry_equiv_pos_as_xyz
  x,y,z
_cell_length_a	23.0652
_cell_length_b	6.9731
_cell_length_c	22.4165
_cell_angle_alpha	90
_cell_angle_beta	91.54
_cell_angle_gamma	90
loop_
_atom_site_label
_atom_site_type_symbol
_atom_site_fract_x
_atom_site_fract_y
_atom_site_fract_z
_atom_site_charge
Mof_Ca	Ca	0.5325	0.9524	0.0069	1.375
Mof_P 	P 	0.4086	0.9738	0.0425	0.449
Mof_O 	O 	0.4418	0.7868	0.0308	-0.519
Mof_O 	O 	0.4459	0.141	0.0213	-0.53
Mof_O 	O 	0.3995	0.993	0.1104	-0.213
Mof_C 	C 	0.339	0.971	0.0038	-0.241
Mof_C 	C 	0.2873	0.978	0.0342	0.163
Mof_C 	C 	0.2351	0.996	0.0018	-0.241
Mof_C 	C 	0.2347	0.994	0.939	0.23
Mof_C 	C 	0.2842	0.925	0.9112	-0.161
Mof_C 	C 	0.3379	0.949	0.9416	0.201
Mof_C 	C 	0.1779	0.043	0.0304	0.315
Mof_O 	O 	0.1758	0.07	0.0847	-0.228
Mof_O 	O 	0.1331	0.038	0.998	-0.296
Mof_C 	C 	0.2814	0.867	0.846	0.336
Mof_O 	O 	0.3285	0.865	0.82	-0.205
Mof_O 	O 	0.2361	0.796	0.8245	-0.173
Mof_P 	P 	0.5815	0.4478	0.9868	0.543
Mof_O 	O 	0.6003	0.476	0.9216	-0.181
Mof_O 	O 	0.5414	0.2733	0.9932	-0.442
Mof_O 	O 	0.5494	0.627	0.0072	-0.555
Mof_C 	C 	0.6457	0.407	0.0322	-0.18
Mof_C 	C 	0.6969	0.499	0.0177	0.08
Mof_C 	C 	0.746	0.474	0.055	-0.112
Mof_C 	C 	0.7369	0.432	0.1154	0.111
Mof_C 	C 	0.6865	0.33	0.1293	-0.1
Mof_C 	C 	0.6377	0.353	0.0915	0.078
Mof_C 	C 	0.8057	0.516	0.0317	0.252
Mof_O 	O 	0.8116	0.509	0.9766	-0.167
Mof_O 	O 	0.8471	0.573	0.0635	-0.311
Mof_C 	C 	0.676	0.271	0.1936	0.313
Mof_O 	O 	0.7177	0.296	0.2291	-0.179
Mof_O 	O 	0.6241	0.277	0.2079	-0.213
Mof_Ca	Ca	0.4586	0.4662	0.0314	1.311
Mof_P 	P 	0.5373	0.5919	0.3633	0.404
Mof_O 	O 	0.5701	0.602	0.424	-0.325
Mof_O 	O 	0.5219	0.381	0.3486	-0.201
Mof_O 	O 	0.4828	0.721	0.3633	-0.221
Mof_C 	C 	0.583	0.683	0.3056	-0.108
Mof_C 	C 	0.5579	0.789	0.2595	0.127
Mof_C 	C 	0.5892	0.827	0.2086	-0.143
Mof_C 	C 	0.6502	0.812	0.2126	0.137
Mof_C 	C 	0.6771	0.729	0.2629	-0.127
Mof_C 	C 	0.6421	0.635	0.30401	0.135
Mof_C 	C 	0.5587	0.905	0.153	0.369
Mof_O 	O 	0.5053	0.921	0.1561	-0.278
Mof_O 	O 	0.5845	0.941	0.107	-0.362
Mof_C 	C 	0.7426	0.718	0.2688	0.337
Mof_O 	O 	0.7643	0.663	0.317	-0.196
Mof_O 	O 	0.7735	0.794	0.2308	-0.195
Mof_Ca	Ca	0.45707	0.0808	0.5091	1.393
Mof_P 	P 	0.5823	0.0793	0.5543	0.449
Mof_O 	O 	0.5448	0.258	0.5494	-0.477
Mof_O 	O 	0.5468	0.913	0.5276	-0.534
Mof_O 	O 	0.6013	0.039	0.6199	-0.195
Mof_C 	C 	0.6469	0.106	0.511	-0.123
Mof_C 	C 	0.6959	0.005	0.5314	0.11
Mof_C 	C 	0.7443	0.001	0.4948	-0.145
Mof_C 	C 	0.7335	0.006	0.4329	0.122
Mof_C 	C 	0.6819	0.087	0.4106	-0.108
Mof_C 	C 	0.6356	0.105	0.4492	0.081
Mof_C 	C 	0.8033	0.953	0.5217	0.37
Mof_O 	O 	0.8053	0.902	0.575	-0.25
Mof_O 	O 	0.848	0.961	0.492	-0.357
Mof_C 	C 	0.6725	0.151	0.3464	0.312
Mof_O 	O 	0.622	0.196	0.3314	-0.199
Mof_O 	O 	0.714	0.202	0.3164	-0.175
Mof_P 	P 	0.3991	0.576	0.4939	0.451
Mof_O 	O 	0.3838	0.592	0.4264	-0.208
Mof_O 	O 	0.4343	0.752	0.5139	-0.471
Mof_O 	O 	0.4404	0.407	0.5046	-0.497
Mof_C 	C 	0.3339	0.548	0.5361	-0.128
Mof_C 	C 	0.2807	0.514	0.507	0.113
Mof_C 	C 	0.2311	0.498	0.5403	-0.131
Mof_C 	C 	0.2306	0.593	0.5956	0.127
Mof_C 	C 	0.2822	0.655	0.6231	-0.111
Mof_C 	C 	0.3345	0.612	0.596	0.092
Mof_C 	C 	0.1707	0.435	0.5198	0.352
Mof_O 	O 	0.1526	0.491	0.4706	-0.267
Mof_O 	O 	0.1374	0.407	0.5619	-0.359
Mof_C 	C 	0.2762	0.707	0.6885	0.322
Mof_O 	O 	0.227	0.692	0.7098	-0.172
Mof_O 	O 	0.3214	0.73	0.7185	-0.199
Mof_Ca	Ca	0.5351	0.5912	0.5282	1.412
Mof_P 	P 	0.4789	0.5462	0.85	0.395
Mof_O 	O 	0.4663	0.576	0.9168	-0.279
Mof_O 	O 	0.4851	0.738	0.8166	-0.186
Mof_O 	O 	0.5372	0.433	0.846	-0.162
Mof_C 	C 	0.4244	0.39	0.8166	-0.109
Mof_C 	C 	0.4484	0.247	0.7805	0.116
Mof_C 	C 	0.4199	0.213	0.7248	-0.13
Mof_C 	C 	0.3592	0.222	0.7247	0.126
Mof_C 	C 	0.3289	0.298	0.7736	-0.107
Mof_C 	C 	0.3637	0.399	0.8166	0.114
Mof_C 	C 	0.4587	0.145	0.675	0.358
Mof_O 	O 	0.5105	0.198	0.682	-0.231
Mof_O 	O 	0.4389	0.076	0.6281	-0.341
Mof_C 	C 	0.263	0.294	0.7716	0.317
Mof_O 	O 	0.2334	0.333	0.8156	-0.175
Mof_O 	O 	0.2341	0.234	0.7272	-0.175
Mof_Ca	Ca	0.0325	0.0476	0.0069	1.386
Mof_P 	P 	0.9086	0.0262	0.0425	0.449
Mof_O 	O 	0.9418	0.2132	0.0308	-0.52
Mof_O 	O 	0.9459	0.859	0.0213	-0.532
Mof_O 	O 	0.8995	0.007	0.1104	-0.214
Mof_C 	C 	0.839	0.029	0.0038	-0.239
Mof_C 	C 	0.7873	0.022	0.0342	0.163
Mof_C 	C 	0.7351	0.004	0.0018	-0.24
Mof_C 	C 	0.7347	0.006	0.939	0.229
Mof_C 	C 	0.7842	0.075	0.9112	-0.16
Mof_C 	C 	0.8379	0.051	0.9416	0.199
Mof_C 	C 	0.6779	0.957	0.0304	0.316
Mof_O 	O 	0.6758	0.93	0.0847	-0.228
Mof_O 	O 	0.6331	0.962	0.998	-0.295
Mof_C 	C 	0.7814	0.133	0.846	0.336
Mof_O 	O 	0.8285	0.135	0.82	-0.205
Mof_O 	O 	0.7361	0.204	0.8245	-0.174
Mof_P 	P 	0.0815	0.5522	0.9868	0.543
Mof_O 	O 	0.1003	0.524	0.9216	-0.18
Mof_O 	O 	0.0414	0.7267	0.9932	-0.439
Mof_O 	O 	0.0494	0.373	0.0072	-0.552
Mof_C 	C 	0.1457	0.593	0.0322	-0.18
Mof_C 	C 	0.1969	0.501	0.0177	0.079
Mof_C 	C 	0.246	0.526	0.055	-0.112
Mof_C 	C 	0.2369	0.568	0.1154	0.111
Mof_C 	C 	0.1865	0.67	0.1293	-0.1
Mof_C 	C 	0.1377	0.647	0.0915	0.079
Mof_C 	C 	0.3057	0.484	0.0317	0.25
Mof_O 	O 	0.3116	0.491	0.9766	-0.166
Mof_O 	O 	0.3471	0.427	0.0635	-0.311
Mof_C 	C 	0.176	0.729	0.1936	0.313
Mof_O 	O 	0.2177	0.704	0.2291	-0.179
Mof_O 	O 	0.1241	0.723	0.2079	-0.212
Mof_Ca	Ca	0.9586	0.5338	0.0314	1.302
Mof_P 	P 	0.0373	0.4081	0.3633	0.41
Mof_O 	O 	0.0701	0.398	0.424	-0.325
Mof_O 	O 	0.0219	0.619	0.3486	-0.198
Mof_O 	O 	0.9828	0.279	0.3633	-0.228
Mof_C 	C 	0.083	0.317	0.3056	-0.108
Mof_C 	C 	0.0579	0.211	0.2595	0.129
Mof_C 	C 	0.0892	0.173	0.2086	-0.143
Mof_C 	C 	0.1502	0.188	0.2126	0.137
Mof_C 	C 	0.1771	0.271	0.2629	-0.127
Mof_C 	C 	0.1421	0.365	0.30401	0.135
Mof_C 	C 	0.0587	0.095	0.153	0.369
Mof_O 	O 	0.0053	0.079	0.1561	-0.274
Mof_O 	O 	0.0845	0.059	0.107	-0.362
Mof_C 	C 	0.2426	0.282	0.2688	0.337
Mof_O 	O 	0.2643	0.337	0.317	-0.195
Mof_O 	O 	0.2735	0.206	0.2308	-0.194
Mof_Ca	Ca	0.95707	0.9192	0.5091	1.381
Mof_P 	P 	0.0823	0.9207	0.5543	0.45
Mof_O 	O 	0.0448	0.742	0.5494	-0.474
Mof_O 	O 	0.0468	0.087	0.5276	-0.532
Mof_O 	O 	0.1013	0.961	0.6199	-0.194
Mof_C 	C 	0.1469	0.894	0.511	-0.124
Mof_C 	C 	0.1959	0.995	0.5314	0.11
Mof_C 	C 	0.2443	0.999	0.4948	-0.145
Mof_C 	C 	0.2335	0.994	0.4329	0.122
Mof_C 	C 	0.1819	0.913	0.4106	-0.108
Mof_C 	C 	0.1356	0.895	0.4492	0.083
Mof_C 	C 	0.3033	0.047	0.5217	0.369
Mof_O 	O 	0.3053	0.098	0.575	-0.25
Mof_O 	O 	0.348	0.039	0.492	-0.358
Mof_C 	C 	0.1725	0.849	0.3464	0.312
Mof_O 	O 	0.122	0.804	0.3314	-0.199
Mof_O 	O 	0.214	0.798	0.3164	-0.175
Mof_P 	P 	0.8991	0.424	0.4939	0.451
Mof_O 	O 	0.8838	0.408	0.4264	-0.209
Mof_O 	O 	0.9343	0.248	0.5139	-0.473
Mof_O 	O 	0.9404	0.593	0.5046	-0.5
Mof_C 	C 	0.8339	0.452	0.5361	-0.127
Mof_C 	C 	0.7807	0.486	0.507	0.113
Mof_C 	C 	0.7311	0.502	0.5403	-0.131
Mof_C 	C 	0.7306	0.407	0.5956	0.127
Mof_C 	C 	0.7822	0.345	0.6231	-0.111
Mof_C 	C 	0.8345	0.388	0.596	0.091
Mof_C 	C 	0.6707	0.565	0.5198	0.352
Mof_O 	O 	0.6526	0.509	0.4706	-0.267
Mof_O 	O 	0.6374	0.593	0.5619	-0.358
Mof_C 	C 	0.7762	0.293	0.6885	0.322
Mof_O 	O 	0.727	0.308	0.7098	-0.172
Mof_O 	O 	0.8214	0.27	0.7185	-0.199
Mof_Ca	Ca	0.0351	0.4088	0.5282	1.423
Mof_P 	P 	0.9789	0.4538	0.85	0.389
Mof_O 	O 	0.9663	0.424	0.9168	-0.281
Mof_O 	O 	0.9851	0.262	0.8166	-0.189
Mof_O 	O 	0.0372	0.567	0.846	-0.155
Mof_C 	C 	0.9244	0.61	0.8166	-0.107
Mof_C 	C 	0.9484	0.753	0.7805	0.11
Mof_C 	C 	0.9199	0.787	0.7248	-0.126
Mof_C 	C 	0.8592	0.778	0.7247	0.124
Mof_C 	C 	0.8289	0.702	0.7736	-0.106
Mof_C 	C 	0.8637	0.601	0.8166	0.114
Mof_C 	C 	0.9587	0.855	0.675	0.345
Mof_O 	O 	0.0105	0.802	0.682	-0.219
Mof_O 	O 	0.9389	0.924	0.6281	-0.34
Mof_C 	C 	0.763	0.706	0.7716	0.317
Mof_O 	O 	0.7334	0.667	0.8156	-0.175
Mof_O 	O 	0.7341	0.766	0.7272	-0.175
_end
