data_functionalizedCrystal
_audit_creation_method	'EQeq! by Chris Wilmer'
_symmetry_space_group_name_H-M	'P1'
_symmetry_Int_Tables_number	1
_symmetry_cell_setting	triclinic
loop_
_symmetry_equiv_pos_as_xyz
  x,y,z
_cell_length_a	15.228
_cell_length_b	15.228
_cell_length_c	28.791
_cell_angle_alpha	90
_cell_angle_beta	90
_cell_angle_gamma	90
loop_
_atom_site_label
_atom_site_type_symbol
_atom_site_fract_x
_atom_site_fract_y
_atom_site_fract_z
_atom_site_charge
Mof_O 	O 	0.78109	0.06858	0.42933	-0.768
Mof_O 	O 	0.88158	0.03373	0.37516	-0.651
Mof_O 	O 	0.89678	0.94624	0.54138	-1.29
Mof_C 	C 	0.6785	0.9927	0.28007	0.425
Mof_H 	H 	0.6886	0.9622	0.2526	-0.115
Mof_C 	C 	0.7473	0.0048	0.31068	-0.461
Mof_H 	H 	0.803	0.9841	0.3032	0.245
Mof_C 	C 	0.73345	0.04776	0.35253	0.066
Mof_C 	C 	0.6515	0.0817	0.36121	-0.214
Mof_H 	H 	0.6413	0.1124	0.3886	0.068
Mof_C 	C 	0.5844	0.0708	0.32971	0.173
Mof_H 	H 	0.5298	0.0954	0.336	-0.066
Mof_C 	C 	0.59598	0.02413	0.28885	-0.398
Mof_C 	C 	0.80363	0.05131	0.38818	0.436
Mof_O 	O 	0.28109	0.56858	0.92933	-0.722
Mof_O 	O 	0.38158	0.53373	0.87516	-0.659
Mof_O 	O 	0.39678	0.44624	0.04138	-1.406
Mof_C 	C 	0.1785	0.4927	0.78007	-0.007
Mof_H 	H 	0.1886	0.4622	0.7526	0.017
Mof_C 	C 	0.2473	0.5048	0.81068	-0.006
Mof_H 	H 	0.303	0.4841	0.8032	0.042
Mof_C 	C 	0.23345	0.54776	0.85253	-0.145
Mof_C 	C 	0.1515	0.5817	0.86121	-0.001
Mof_H 	H 	0.1413	0.6124	0.8886	0.022
Mof_C 	C 	0.0844	0.5708	0.82971	-0.02
Mof_H 	H 	0.0298	0.5954	0.836	0.004
Mof_C 	C 	0.09598	0.52413	0.78885	-0.17
Mof_C 	C 	0.30363	0.55131	0.88818	0.518
Mof_O 	O 	0.21891	0.93142	0.42933	-0.788
Mof_O 	O 	0.11842	0.96627	0.37516	-0.674
Mof_O 	O 	0.10322	0.05376	0.54138	-1.387
Mof_C 	C 	0.3215	0.0073	0.28007	-0.584
Mof_H 	H 	0.3114	0.0378	0.2526	0.192
Mof_C 	C 	0.2527	0.9952	0.31068	0.587
Mof_H 	H 	0.197	0.0159	0.3032	-0.223
Mof_C 	C 	0.26655	0.95224	0.35253	-0.465
Mof_C 	C 	0.3485	0.9183	0.36121	0.318
Mof_H 	H 	0.3587	0.8876	0.3886	-0.101
Mof_C 	C 	0.4156	0.9292	0.32971	-0.328
Mof_H 	H 	0.4702	0.9046	0.336	0.131
Mof_C 	C 	0.40402	0.97587	0.28885	0.214
Mof_C 	C 	0.19637	0.94869	0.38818	0.649
Mof_O 	O 	0.71891	0.43142	0.92933	-0.716
Mof_O 	O 	0.61842	0.46627	0.87516	-0.66
Mof_O 	O 	0.60322	0.55376	0.04138	-1.399
Mof_C 	C 	0.8215	0.5073	0.78007	-0.045
Mof_H 	H 	0.8114	0.5378	0.7526	0.036
Mof_C 	C 	0.7527	0.4952	0.81068	0.032
Mof_H 	H 	0.697	0.5159	0.8032	0.033
Mof_C 	C 	0.76655	0.45224	0.85253	-0.162
Mof_C 	C 	0.8485	0.4183	0.86121	0.038
Mof_H 	H 	0.8587	0.3876	0.8886	0.021
Mof_C 	C 	0.9156	0.4292	0.82971	-0.046
Mof_H 	H 	0.9702	0.4046	0.836	0.056
Mof_C 	C 	0.90402	0.47587	0.78885	-0.092
Mof_C 	C 	0.69637	0.44869	0.88818	0.527
Mof_O 	O 	0.93142	0.78109	0.42933	-0.779
Mof_O 	O 	0.96627	0.88158	0.37516	-0.644
Mof_O 	O 	0.05376	0.89678	0.54138	-1.35
Mof_C 	C 	0.0073	0.6785	0.28007	-0.517
Mof_H 	H 	0.0378	0.6886	0.2526	0.178
Mof_C 	C 	0.9952	0.7473	0.31068	0.515
Mof_H 	H 	0.0159	0.803	0.3032	-0.178
Mof_C 	C 	0.95224	0.73345	0.35253	-0.42
Mof_C 	C 	0.9183	0.6515	0.36121	0.279
Mof_H 	H 	0.8876	0.6413	0.3886	-0.085
Mof_C 	C 	0.9292	0.5844	0.32971	-0.288
Mof_H 	H 	0.9046	0.5298	0.336	0.118
Mof_C 	C 	0.97587	0.59598	0.28885	0.173
Mof_C 	C 	0.94869	0.80363	0.38818	0.629
Mof_O 	O 	0.43142	0.28109	0.92933	-0.728
Mof_O 	O 	0.46627	0.38158	0.87516	-0.661
Mof_O 	O 	0.55376	0.39678	0.04138	-1.404
Mof_C 	C 	0.5073	0.1785	0.78007	-0.018
Mof_H 	H 	0.5378	0.1886	0.7526	0.023
Mof_C 	C 	0.4952	0.2473	0.81068	0.003
Mof_H 	H 	0.5159	0.303	0.8032	0.04
Mof_C 	C 	0.45224	0.23345	0.85253	-0.153
Mof_C 	C 	0.4183	0.1515	0.86121	0.006
Mof_H 	H 	0.3876	0.1413	0.8886	0.011
Mof_C 	C 	0.4292	0.0844	0.82971	-0.033
Mof_H 	H 	0.4046	0.0298	0.836	0.002
Mof_C 	C 	0.47587	0.09598	0.78885	-0.156
Mof_C 	C 	0.44869	0.30363	0.88818	0.52
Mof_O 	O 	0.06858	0.21891	0.42933	-0.775
Mof_O 	O 	0.03373	0.11842	0.37516	-0.688
Mof_O 	O 	0.94624	0.10322	0.54138	-1.309
Mof_C 	C 	0.9927	0.3215	0.28007	0.483
Mof_H 	H 	0.9622	0.3114	0.2526	-0.139
Mof_C 	C 	0.0048	0.2527	0.31068	-0.524
Mof_H 	H 	0.9841	0.197	0.3032	0.263
Mof_C 	C 	0.04776	0.26655	0.35253	0.089
Mof_C 	C 	0.0817	0.3485	0.36121	-0.243
Mof_H 	H 	0.1124	0.3587	0.3886	0.075
Mof_C 	C 	0.0708	0.4156	0.32971	0.203
Mof_H 	H 	0.0954	0.4702	0.336	-0.076
Mof_C 	C 	0.02413	0.40402	0.28885	-0.44
Mof_C 	C 	0.05131	0.19637	0.38818	0.429
Mof_O 	O 	0.56858	0.71891	0.92933	-0.712
Mof_O 	O 	0.53373	0.61842	0.87516	-0.659
Mof_O 	O 	0.44624	0.60322	0.04138	-1.401
Mof_C 	C 	0.4927	0.8215	0.78007	-0.053
Mof_H 	H 	0.4622	0.8114	0.7526	0.037
Mof_C 	C 	0.5048	0.7527	0.81068	0.037
Mof_H 	H 	0.4841	0.697	0.8032	0.031
Mof_C 	C 	0.54776	0.76655	0.85253	-0.164
Mof_C 	C 	0.5817	0.8485	0.86121	0.044
Mof_H 	H 	0.6124	0.8587	0.8886	0.026
Mof_C 	C 	0.5708	0.9156	0.82971	-0.053
Mof_H 	H 	0.5954	0.9702	0.836	0.063
Mof_C 	C 	0.52413	0.90402	0.78885	-0.08
Mof_C 	C 	0.55131	0.69637	0.88818	0.529
Mof_O 	O 	0.21891	0.93142	0.57067	-0.788
Mof_O 	O 	0.11842	0.96627	0.62484	-0.672
Mof_O 	O 	0.10322	0.05376	0.45862	-1.387
Mof_C 	C 	0.3215	0.0073	0.71993	-0.578
Mof_H 	H 	0.3114	0.0378	0.7474	0.198
Mof_C 	C 	0.2527	0.9952	0.68932	0.585
Mof_H 	H 	0.197	0.0159	0.6968	-0.217
Mof_C 	C 	0.26655	0.95224	0.64747	-0.462
Mof_C 	C 	0.3485	0.9183	0.63879	0.315
Mof_H 	H 	0.3587	0.8876	0.6114	-0.1
Mof_C 	C 	0.4156	0.9292	0.67029	-0.322
Mof_H 	H 	0.4702	0.9046	0.664	0.129
Mof_C 	C 	0.40402	0.97587	0.71115	0.208
Mof_C 	C 	0.19637	0.94869	0.61182	0.648
Mof_O 	O 	0.71891	0.43142	0.07067	-0.821
Mof_O 	O 	0.61842	0.46627	0.12484	-0.671
Mof_O 	O 	0.60322	0.55376	0.95862	-1.249
Mof_C 	C 	0.8215	0.5073	0.21993	-0.073
Mof_H 	H 	0.8114	0.5378	0.2474	0.043
Mof_C 	C 	0.7527	0.4952	0.18932	0.055
Mof_H 	H 	0.697	0.5159	0.1968	0.021
Mof_C 	C 	0.76655	0.45224	0.14747	-0.21
Mof_C 	C 	0.8485	0.4183	0.13879	0.061
Mof_H 	H 	0.8587	0.3876	0.1114	-0.037
Mof_C 	C 	0.9156	0.4292	0.17029	-0.083
Mof_H 	H 	0.9702	0.4046	0.164	0.046
Mof_C 	C 	0.90402	0.47587	0.21115	-0.075
Mof_C 	C 	0.69637	0.44869	0.11182	0.549
Mof_O 	O 	0.78109	0.06858	0.57067	-0.766
Mof_O 	O 	0.88158	0.03373	0.62484	-0.648
Mof_O 	O 	0.89678	0.94624	0.45862	-1.289
Mof_C 	C 	0.6785	0.9927	0.71993	0.432
Mof_H 	H 	0.6886	0.9622	0.7474	-0.108
Mof_C 	C 	0.7473	0.0048	0.68932	-0.462
Mof_H 	H 	0.803	0.9841	0.6968	0.253
Mof_C 	C 	0.73345	0.04776	0.64747	0.07
Mof_C 	C 	0.6515	0.0817	0.63879	-0.216
Mof_H 	H 	0.6413	0.1124	0.6114	0.069
Mof_C 	C 	0.5844	0.0708	0.67029	0.178
Mof_H 	H 	0.5298	0.0954	0.664	-0.068
Mof_C 	C 	0.59598	0.02413	0.71115	-0.404
Mof_C 	C 	0.80363	0.05131	0.61182	0.435
Mof_O 	O 	0.28109	0.56858	0.07067	-0.827
Mof_O 	O 	0.38158	0.53373	0.12484	-0.67
Mof_O 	O 	0.39678	0.44624	0.95862	-1.257
Mof_C 	C 	0.1785	0.4927	0.21993	-0.035
Mof_H 	H 	0.1886	0.4622	0.2474	0.024
Mof_C 	C 	0.2473	0.5048	0.18932	0.017
Mof_H 	H 	0.303	0.4841	0.1968	0.03
Mof_C 	C 	0.23345	0.54776	0.14747	-0.192
Mof_C 	C 	0.1515	0.5817	0.13879	0.022
Mof_H 	H 	0.1413	0.6124	0.1114	-0.037
Mof_C 	C 	0.0844	0.5708	0.17029	-0.058
Mof_H 	H 	0.0298	0.5954	0.164	-0.007
Mof_C 	C 	0.09598	0.52413	0.21115	-0.154
Mof_C 	C 	0.30363	0.55131	0.11182	0.54
Mof_O 	O 	0.06858	0.21891	0.57067	-0.775
Mof_O 	O 	0.03373	0.11842	0.62484	-0.687
Mof_O 	O 	0.94624	0.10322	0.45862	-1.309
Mof_C 	C 	0.9927	0.3215	0.71993	0.489
Mof_H 	H 	0.9622	0.3114	0.7474	-0.133
Mof_C 	C 	0.0048	0.2527	0.68932	-0.526
Mof_H 	H 	0.9841	0.197	0.6968	0.27
Mof_C 	C 	0.04776	0.26655	0.64747	0.093
Mof_C 	C 	0.0817	0.3485	0.63879	-0.246
Mof_H 	H 	0.1124	0.3587	0.6114	0.076
Mof_C 	C 	0.0708	0.4156	0.67029	0.208
Mof_H 	H 	0.0954	0.4702	0.664	-0.078
Mof_C 	C 	0.02413	0.40402	0.71115	-0.446
Mof_C 	C 	0.05131	0.19637	0.61182	0.428
Mof_O 	O 	0.56858	0.71891	0.07067	-0.817
Mof_O 	O 	0.53373	0.61842	0.12484	-0.671
Mof_O 	O 	0.44624	0.60322	0.95862	-1.252
Mof_C 	C 	0.4927	0.8215	0.21993	-0.081
Mof_H 	H 	0.4622	0.8114	0.2474	0.044
Mof_C 	C 	0.5048	0.7527	0.18932	0.059
Mof_H 	H 	0.4841	0.697	0.1968	0.019
Mof_C 	C 	0.54776	0.76655	0.14747	-0.211
Mof_C 	C 	0.5817	0.8485	0.13879	0.067
Mof_H 	H 	0.6124	0.8587	0.1114	-0.033
Mof_C 	C 	0.5708	0.9156	0.17029	-0.09
Mof_H 	H 	0.5954	0.9702	0.164	0.052
Mof_C 	C 	0.52413	0.90402	0.21115	-0.063
Mof_C 	C 	0.55131	0.69637	0.11182	0.551
Mof_O 	O 	0.93142	0.78109	0.57067	-0.779
Mof_O 	O 	0.96627	0.88158	0.62484	-0.643
Mof_O 	O 	0.05376	0.89678	0.45862	-1.35
Mof_C 	C 	0.0073	0.6785	0.71993	-0.511
Mof_H 	H 	0.0378	0.6886	0.7474	0.184
Mof_C 	C 	0.9952	0.7473	0.68932	0.514
Mof_H 	H 	0.0159	0.803	0.6968	-0.172
Mof_C 	C 	0.95224	0.73345	0.64747	-0.416
Mof_C 	C 	0.9183	0.6515	0.63879	0.276
Mof_H 	H 	0.8876	0.6413	0.6114	-0.084
Mof_C 	C 	0.9292	0.5844	0.67029	-0.282
Mof_H 	H 	0.9046	0.5298	0.664	0.116
Mof_C 	C 	0.97587	0.59598	0.71115	0.167
Mof_C 	C 	0.94869	0.80363	0.61182	0.628
Mof_O 	O 	0.43142	0.28109	0.07067	-0.833
Mof_O 	O 	0.46627	0.38158	0.12484	-0.672
Mof_O 	O 	0.55376	0.39678	0.95862	-1.254
Mof_C 	C 	0.5073	0.1785	0.21993	-0.046
Mof_H 	H 	0.5378	0.1886	0.2474	0.03
Mof_C 	C 	0.4952	0.2473	0.18932	0.026
Mof_H 	H 	0.5159	0.303	0.1968	0.028
Mof_C 	C 	0.45224	0.23345	0.14747	-0.201
Mof_C 	C 	0.4183	0.1515	0.13879	0.03
Mof_H 	H 	0.3876	0.1413	0.1114	-0.047
Mof_C 	C 	0.4292	0.0844	0.17029	-0.07
Mof_H 	H 	0.4046	0.0298	0.164	-0.008
Mof_C 	C 	0.47587	0.09598	0.21115	-0.14
Mof_C 	C 	0.44869	0.30363	0.11182	0.542
Mof_Zr	Zr	0.84321	0.05007	0.5	3.172
Mof_Zr	Zr	0.34321	0.55007	-0	3.15
Mof_Zr	Zr	0.15679	0.94993	0.5	3.184
Mof_Zr	Zr	0.65679	0.44993	-0	3.151
Mof_Zr	Zr	0.94993	0.84321	0.5	3.183
Mof_Zr	Zr	0.44993	0.34321	-0	3.15
Mof_Zr	Zr	0.05007	0.15679	0.5	3.17
Mof_Zr	Zr	0.55007	0.65679	-0	3.151
Mof_Zr	Zr	-4.62327e-33	-7.56202e-33	0.41456	3.195
Mof_Zr	Zr	0.5	0.5	0.91456	3.212
Mof_Zr	Zr	-1.8536e-32	-7.56202e-33	0.58543	3.195
Mof_Zr	Zr	0.5	0.5	0.08544	3.214
Mof_Si	Si	0.5	0	0.25	0.412
Mof_Si	Si	1.31152e-32	0.5	0.25	0.446
Mof_Si	Si	0.5	-1.5124e-32	0.75	0.434
Mof_Si	Si	5.31664e-33	0.5	0.75	0.468
_end
