data_functionalizedCrystal
_audit_creation_method	'EQeq! by Chris Wilmer'
_symmetry_space_group_name_H-M	'P1'
_symmetry_Int_Tables_number	1
_symmetry_cell_setting	triclinic
loop_
_symmetry_equiv_pos_as_xyz
  x,y,z
_cell_length_a	22.7874
_cell_length_b	22.7874
_cell_length_c	22.7874
_cell_angle_alpha	60
_cell_angle_beta	60
_cell_angle_gamma	60
loop_
_atom_site_label
_atom_site_type_symbol
_atom_site_fract_x
_atom_site_fract_y
_atom_site_fract_z
_atom_site_charge
Mof_Ni	Ni	0.125	0.625	0.8662	1.057
Mof_Ni	Ni	0.625	0.125	0.3838	1.057
Mof_Ni	Ni	0.8662	0.3838	0.125	1.057
Mof_Ni	Ni	0.3838	0.8662	0.625	1.058
Mof_Ni	Ni	0.125	0.8662	0.3838	1.057
Mof_Ni	Ni	0.625	0.3838	0.8662	1.058
Mof_Ni	Ni	0.8662	0.125	0.625	1.057
Mof_Ni	Ni	0.3838	0.625	0.125	1.057
Mof_Ni	Ni	0.125	0.3838	0.625	1.057
Mof_Ni	Ni	0.625	0.8662	0.125	1.057
Mof_Ni	Ni	0.8662	0.625	0.3838	1.058
Mof_Ni	Ni	0.3838	0.125	0.8662	1.057
Mof_H 	H 	0.899	0.7512	0.9464	0.037
Mof_H 	H 	0.9867	0.6017	0.9879	-0.049
Mof_H 	H 	0.9464	0.541	0.1072	0.194
Mof_H 	H 	0.0574	0.4258	0.219	0.313
Mof_H 	H 	0.9986	0.4186	0.2084	0.336
Mof_H 	H 	0.9805	0.4841	0.2279	0.342
Mof_H 	H 	0.1468	0.4644	0.1088	0.149
Mof_H 	H 	0.1797	0.5335	0.9899	-0.066
Mof_H 	H 	0.7512	0.899	0.4034	0.033
Mof_H 	H 	0.6017	0.9867	0.4237	-0.057
Mof_H 	H 	0.541	0.9464	0.4054	0.196
Mof_H 	H 	0.4258	0.0574	0.2978	0.316
Mof_H 	H 	0.4186	0.9986	0.3744	0.34
Mof_H 	H 	0.4841	0.9805	0.3075	0.345
Mof_H 	H 	0.4644	0.1468	0.28	0.152
Mof_H 	H 	0.5335	0.1797	0.2969	-0.071
Mof_H 	H 	0.9464	0.4034	0.899	0.034
Mof_H 	H 	0.9879	0.4237	0.9867	-0.052
Mof_H 	H 	0.1072	0.4054	0.9464	0.194
Mof_H 	H 	0.219	0.2978	0.0574	0.313
Mof_H 	H 	0.2084	0.3744	0.9986	0.336
Mof_H 	H 	0.2279	0.3075	0.9805	0.342
Mof_H 	H 	0.1088	0.28	0.1468	0.149
Mof_H 	H 	0.9899	0.2969	0.1797	-0.068
Mof_H 	H 	0.4034	0.9464	0.7512	0.033
Mof_H 	H 	0.4237	0.9879	0.6017	-0.057
Mof_H 	H 	0.4054	0.1072	0.541	0.195
Mof_H 	H 	0.2978	0.219	0.4258	0.309
Mof_H 	H 	0.3744	0.2084	0.4186	0.331
Mof_H 	H 	0.3075	0.2279	0.4841	0.337
Mof_H 	H 	0.28	0.1088	0.4644	0.148
Mof_H 	H 	0.2969	0.9899	0.5335	-0.066
Mof_H 	H 	0.899	0.9464	0.4034	0.034
Mof_H 	H 	0.9867	0.9879	0.4237	-0.052
Mof_H 	H 	0.9464	0.1072	0.4054	0.194
Mof_H 	H 	0.0574	0.219	0.2978	0.313
Mof_H 	H 	0.9986	0.2084	0.3744	0.336
Mof_H 	H 	0.9805	0.2279	0.3075	0.342
Mof_H 	H 	0.1468	0.1088	0.28	0.149
Mof_H 	H 	0.1797	0.9899	0.2969	-0.068
Mof_H 	H 	0.7512	0.4034	0.9464	0.033
Mof_H 	H 	0.6017	0.4237	0.9879	-0.057
Mof_H 	H 	0.541	0.4054	0.1072	0.195
Mof_H 	H 	0.4258	0.2978	0.219	0.309
Mof_H 	H 	0.4186	0.3744	0.2084	0.331
Mof_H 	H 	0.4841	0.3075	0.2279	0.337
Mof_H 	H 	0.4644	0.28	0.1088	0.148
Mof_H 	H 	0.5335	0.2969	0.9899	-0.066
Mof_H 	H 	0.9464	0.899	0.7512	0.036
Mof_H 	H 	0.9879	0.9867	0.6017	-0.05
Mof_H 	H 	0.1072	0.9464	0.541	0.193
Mof_H 	H 	0.219	0.0574	0.4258	0.313
Mof_H 	H 	0.2084	0.9986	0.4186	0.336
Mof_H 	H 	0.2279	0.9805	0.4841	0.342
Mof_H 	H 	0.1088	0.1468	0.4644	0.149
Mof_H 	H 	0.9899	0.1797	0.5335	-0.066
Mof_H 	H 	0.4034	0.7512	0.899	0.033
Mof_H 	H 	0.4237	0.6017	0.9867	-0.057
Mof_H 	H 	0.4054	0.541	0.9464	0.196
Mof_H 	H 	0.2978	0.4258	0.0574	0.316
Mof_H 	H 	0.3744	0.4186	0.9986	0.34
Mof_H 	H 	0.3075	0.4841	0.9805	0.345
Mof_H 	H 	0.28	0.4644	0.1468	0.152
Mof_H 	H 	0.2969	0.5335	0.1797	-0.071
Mof_H 	H 	0.899	0.4034	0.7512	0.033
Mof_H 	H 	0.9867	0.4237	0.6017	-0.057
Mof_H 	H 	0.9464	0.4054	0.541	0.196
Mof_H 	H 	0.0574	0.2978	0.4258	0.316
Mof_H 	H 	0.9986	0.3744	0.4186	0.34
Mof_H 	H 	0.9805	0.3075	0.4841	0.345
Mof_H 	H 	0.1468	0.28	0.4644	0.152
Mof_H 	H 	0.1797	0.2969	0.5335	-0.071
Mof_H 	H 	0.7512	0.9464	0.899	0.036
Mof_H 	H 	0.6017	0.9879	0.9867	-0.05
Mof_H 	H 	0.541	0.1072	0.9464	0.193
Mof_H 	H 	0.4258	0.219	0.0574	0.313
Mof_H 	H 	0.4186	0.2084	0.9986	0.336
Mof_H 	H 	0.4841	0.2279	0.9805	0.342
Mof_H 	H 	0.4644	0.1088	0.1468	0.149
Mof_H 	H 	0.5335	0.9899	0.1797	-0.066
Mof_H 	H 	0.9464	0.7512	0.4034	0.033
Mof_H 	H 	0.9879	0.6017	0.4237	-0.057
Mof_H 	H 	0.1072	0.541	0.4054	0.195
Mof_H 	H 	0.219	0.4258	0.2978	0.309
Mof_H 	H 	0.2084	0.4186	0.3744	0.331
Mof_H 	H 	0.2279	0.4841	0.3075	0.337
Mof_H 	H 	0.1088	0.4644	0.28	0.148
Mof_H 	H 	0.9899	0.5335	0.2969	-0.066
Mof_H 	H 	0.4034	0.899	0.9464	0.034
Mof_H 	H 	0.4237	0.9867	0.9879	-0.052
Mof_H 	H 	0.4054	0.9464	0.1072	0.194
Mof_H 	H 	0.2978	0.0574	0.219	0.313
Mof_H 	H 	0.3744	0.9986	0.2084	0.336
Mof_H 	H 	0.3075	0.9805	0.2279	0.342
Mof_H 	H 	0.28	0.1468	0.1088	0.149
Mof_H 	H 	0.2969	0.1797	0.9899	-0.068
Mof_H 	H 	0.4988	0.351	0.3036	0.031
Mof_H 	H 	0.6483	0.2633	0.2621	-0.063
Mof_H 	H 	0.709	0.3036	0.1428	0.198
Mof_H 	H 	0.8242	0.1926	0.031	0.31
Mof_H 	H 	0.8314	0.2514	0.0416	0.332
Mof_H 	H 	0.7659	0.2695	0.0221	0.337
Mof_H 	H 	0.7856	0.1032	0.1412	0.151
Mof_H 	H 	0.7165	0.0703	0.2601	-0.072
Mof_H 	H 	0.351	0.4988	0.8466	0.031
Mof_H 	H 	0.2633	0.6483	0.8263	-0.064
Mof_H 	H 	0.3036	0.709	0.8446	0.2
Mof_H 	H 	0.1926	0.8242	0.9522	0.314
Mof_H 	H 	0.2514	0.8314	0.8756	0.335
Mof_H 	H 	0.2695	0.7659	0.9425	0.341
Mof_H 	H 	0.1032	0.7856	0.97	0.153
Mof_H 	H 	0.0703	0.7165	0.9531	-0.072
Mof_H 	H 	0.8466	0.3036	0.351	0.031
Mof_H 	H 	0.8263	0.2621	0.2633	-0.063
Mof_H 	H 	0.8446	0.1428	0.3036	0.199
Mof_H 	H 	0.9522	0.031	0.1926	0.311
Mof_H 	H 	0.8756	0.0416	0.2514	0.332
Mof_H 	H 	0.9425	0.0221	0.2695	0.338
Mof_H 	H 	0.97	0.1412	0.1032	0.152
Mof_H 	H 	0.9531	0.2601	0.0703	-0.071
Mof_H 	H 	0.3036	0.8466	0.4988	0.031
Mof_H 	H 	0.2621	0.8263	0.6483	-0.063
Mof_H 	H 	0.1428	0.8446	0.709	0.199
Mof_H 	H 	0.031	0.9522	0.8242	0.311
Mof_H 	H 	0.0416	0.8756	0.8314	0.332
Mof_H 	H 	0.0221	0.9425	0.7659	0.338
Mof_H 	H 	0.1412	0.97	0.7856	0.152
Mof_H 	H 	0.2601	0.9531	0.7165	-0.071
Mof_H 	H 	0.3036	0.351	0.8466	0.031
Mof_H 	H 	0.2621	0.2633	0.8263	-0.063
Mof_H 	H 	0.1428	0.3036	0.8446	0.199
Mof_H 	H 	0.031	0.1926	0.9522	0.311
Mof_H 	H 	0.0416	0.2514	0.8756	0.332
Mof_H 	H 	0.0221	0.2695	0.9425	0.338
Mof_H 	H 	0.1412	0.1032	0.97	0.152
Mof_H 	H 	0.2601	0.0703	0.9531	-0.071
Mof_H 	H 	0.8466	0.4988	0.3036	0.031
Mof_H 	H 	0.8263	0.6483	0.2621	-0.063
Mof_H 	H 	0.8446	0.709	0.1428	0.199
Mof_H 	H 	0.9522	0.8242	0.031	0.311
Mof_H 	H 	0.8756	0.8314	0.0416	0.332
Mof_H 	H 	0.9425	0.7659	0.0221	0.338
Mof_H 	H 	0.97	0.7856	0.1412	0.152
Mof_H 	H 	0.9531	0.7165	0.2601	-0.071
Mof_H 	H 	0.351	0.3036	0.4988	0.031
Mof_H 	H 	0.2633	0.2621	0.6483	-0.063
Mof_H 	H 	0.3036	0.1428	0.709	0.198
Mof_H 	H 	0.1926	0.031	0.8242	0.31
Mof_H 	H 	0.2514	0.0416	0.8314	0.332
Mof_H 	H 	0.2695	0.0221	0.7659	0.337
Mof_H 	H 	0.1032	0.1412	0.7856	0.151
Mof_H 	H 	0.0703	0.2601	0.7165	-0.072
Mof_H 	H 	0.4988	0.8466	0.351	0.031
Mof_H 	H 	0.6483	0.8263	0.2633	-0.064
Mof_H 	H 	0.709	0.8446	0.3036	0.2
Mof_H 	H 	0.8242	0.9522	0.1926	0.314
Mof_H 	H 	0.8314	0.8756	0.2514	0.335
Mof_H 	H 	0.7659	0.9425	0.2695	0.341
Mof_H 	H 	0.7856	0.97	0.1032	0.153
Mof_H 	H 	0.7165	0.9531	0.0703	-0.072
Mof_H 	H 	0.8466	0.351	0.4988	0.031
Mof_H 	H 	0.8263	0.2633	0.6483	-0.064
Mof_H 	H 	0.8446	0.3036	0.709	0.2
Mof_H 	H 	0.9522	0.1926	0.8242	0.314
Mof_H 	H 	0.8756	0.2514	0.8314	0.335
Mof_H 	H 	0.9425	0.2695	0.7659	0.341
Mof_H 	H 	0.97	0.1032	0.7856	0.153
Mof_H 	H 	0.9531	0.0703	0.7165	-0.072
Mof_H 	H 	0.3036	0.4988	0.351	0.031
Mof_H 	H 	0.2621	0.6483	0.2633	-0.063
Mof_H 	H 	0.1428	0.709	0.3036	0.198
Mof_H 	H 	0.031	0.8242	0.1926	0.31
Mof_H 	H 	0.0416	0.8314	0.2514	0.332
Mof_H 	H 	0.0221	0.7659	0.2695	0.337
Mof_H 	H 	0.1412	0.7856	0.1032	0.151
Mof_H 	H 	0.2601	0.7165	0.0703	-0.072
Mof_H 	H 	0.4988	0.3036	0.8466	0.031
Mof_H 	H 	0.6483	0.2621	0.8263	-0.063
Mof_H 	H 	0.709	0.1428	0.8446	0.199
Mof_H 	H 	0.8242	0.031	0.9522	0.311
Mof_H 	H 	0.8314	0.0416	0.8756	0.332
Mof_H 	H 	0.7659	0.0221	0.9425	0.338
Mof_H 	H 	0.7856	0.1412	0.97	0.152
Mof_H 	H 	0.7165	0.2601	0.9531	-0.071
Mof_H 	H 	0.351	0.8466	0.3036	0.031
Mof_H 	H 	0.2633	0.8263	0.2621	-0.063
Mof_H 	H 	0.3036	0.8446	0.1428	0.199
Mof_H 	H 	0.1926	0.9522	0.031	0.311
Mof_H 	H 	0.2514	0.8756	0.0416	0.332
Mof_H 	H 	0.2695	0.9425	0.0221	0.338
Mof_H 	H 	0.1032	0.97	0.1412	0.152
Mof_H 	H 	0.0703	0.9531	0.2601	-0.071
Mof_C 	C 	0.00961	0.76505	0.82445	0.325
Mof_C 	C 	0.93412	0.81694	0.84524	-0.11
Mof_C 	C 	0.88552	0.797	0.9139	0.026
Mof_C 	C 	0.01945	0.57383	0.01263	0.217
Mof_C 	C 	0.9948	0.53696	0.08452	-0.436
Mof_C 	C 	0.0417	0.49364	0.12368	0.499
Mof_C 	C 	0.01739	0.45179	0.20161	-1.053
Mof_C 	C 	0.11273	0.49255	0.08565	-0.429
Mof_C 	C 	0.13264	0.53322	0.01344	0.213
Mof_C 	C 	0.76505	0.00961	0.40089	0.326
Mof_C 	C 	0.81694	0.93412	0.4037	-0.114
Mof_C 	C 	0.797	0.88552	0.40358	0.03
Mof_C 	C 	0.57383	0.01945	0.39409	0.228
Mof_C 	C 	0.53696	0.9948	0.38372	-0.443
Mof_C 	C 	0.49364	0.0417	0.34098	0.505
Mof_C 	C 	0.45179	0.01739	0.32921	-1.064
Mof_C 	C 	0.49255	0.11273	0.30907	-0.437
Mof_C 	C 	0.53322	0.13264	0.3207	0.223
Mof_C 	C 	0.82445	0.40089	0.00961	0.326
Mof_C 	C 	0.84524	0.4037	0.93412	-0.114
Mof_C 	C 	0.9139	0.40358	0.88552	0.029
Mof_C 	C 	0.01263	0.39409	0.01945	0.222
Mof_C 	C 	0.08452	0.38372	0.9948	-0.44
Mof_C 	C 	0.12368	0.34098	0.0417	0.501
Mof_C 	C 	0.20161	0.32921	0.01739	-1.054
Mof_C 	C 	0.08565	0.30907	0.11273	-0.431
Mof_C 	C 	0.01344	0.3207	0.13264	0.216
Mof_C 	C 	0.40089	0.82445	0.76505	0.33
Mof_C 	C 	0.4037	0.84524	0.81694	-0.117
Mof_C 	C 	0.40358	0.9139	0.797	0.03
Mof_C 	C 	0.39409	0.01263	0.57383	0.228
Mof_C 	C 	0.38372	0.08452	0.53696	-0.444
Mof_C 	C 	0.34098	0.12368	0.49364	0.499
Mof_C 	C 	0.32921	0.20161	0.45179	-1.038
Mof_C 	C 	0.30907	0.08565	0.49255	-0.428
Mof_C 	C 	0.3207	0.01344	0.53322	0.212
Mof_C 	C 	0.00961	0.82445	0.40089	0.326
Mof_C 	C 	0.93412	0.84524	0.4037	-0.114
Mof_C 	C 	0.88552	0.9139	0.40358	0.029
Mof_C 	C 	0.01945	0.01263	0.39409	0.222
Mof_C 	C 	0.9948	0.08452	0.38372	-0.44
Mof_C 	C 	0.0417	0.12368	0.34098	0.501
Mof_C 	C 	0.01739	0.20161	0.32921	-1.054
Mof_C 	C 	0.11273	0.08565	0.30907	-0.431
Mof_C 	C 	0.13264	0.01344	0.3207	0.216
Mof_C 	C 	0.76505	0.40089	0.82445	0.33
Mof_C 	C 	0.81694	0.4037	0.84524	-0.117
Mof_C 	C 	0.797	0.40358	0.9139	0.03
Mof_C 	C 	0.57383	0.39409	0.01263	0.228
Mof_C 	C 	0.53696	0.38372	0.08452	-0.444
Mof_C 	C 	0.49364	0.34098	0.12368	0.499
Mof_C 	C 	0.45179	0.32921	0.20161	-1.038
Mof_C 	C 	0.49255	0.30907	0.08565	-0.428
Mof_C 	C 	0.53322	0.3207	0.01344	0.212
Mof_C 	C 	0.82445	0.00961	0.76505	0.325
Mof_C 	C 	0.84524	0.93412	0.81694	-0.11
Mof_C 	C 	0.9139	0.88552	0.797	0.026
Mof_C 	C 	0.01263	0.01945	0.57383	0.217
Mof_C 	C 	0.08452	0.9948	0.53696	-0.436
Mof_C 	C 	0.12368	0.0417	0.49364	0.499
Mof_C 	C 	0.20161	0.01739	0.45179	-1.053
Mof_C 	C 	0.08565	0.11273	0.49255	-0.429
Mof_C 	C 	0.01344	0.13264	0.53322	0.213
Mof_C 	C 	0.40089	0.76505	0.00961	0.326
Mof_C 	C 	0.4037	0.81694	0.93412	-0.114
Mof_C 	C 	0.40358	0.797	0.88552	0.03
Mof_C 	C 	0.39409	0.57383	0.01945	0.228
Mof_C 	C 	0.38372	0.53696	0.9948	-0.443
Mof_C 	C 	0.34098	0.49364	0.0417	0.505
Mof_C 	C 	0.32921	0.45179	0.01739	-1.064
Mof_C 	C 	0.30907	0.49255	0.11273	-0.437
Mof_C 	C 	0.3207	0.53322	0.13264	0.223
Mof_C 	C 	0.00961	0.40089	0.76505	0.326
Mof_C 	C 	0.93412	0.4037	0.81694	-0.114
Mof_C 	C 	0.88552	0.40358	0.797	0.03
Mof_C 	C 	0.01945	0.39409	0.57383	0.228
Mof_C 	C 	0.9948	0.38372	0.53696	-0.443
Mof_C 	C 	0.0417	0.34098	0.49364	0.505
Mof_C 	C 	0.01739	0.32921	0.45179	-1.064
Mof_C 	C 	0.11273	0.30907	0.49255	-0.437
Mof_C 	C 	0.13264	0.3207	0.53322	0.223
Mof_C 	C 	0.76505	0.82445	0.00961	0.325
Mof_C 	C 	0.81694	0.84524	0.93412	-0.11
Mof_C 	C 	0.797	0.9139	0.88552	0.026
Mof_C 	C 	0.57383	0.01263	0.01945	0.217
Mof_C 	C 	0.53696	0.08452	0.9948	-0.436
Mof_C 	C 	0.49364	0.12368	0.0417	0.499
Mof_C 	C 	0.45179	0.20161	0.01739	-1.053
Mof_C 	C 	0.49255	0.08565	0.11273	-0.429
Mof_C 	C 	0.53322	0.01344	0.13264	0.213
Mof_C 	C 	0.82445	0.76505	0.40089	0.33
Mof_C 	C 	0.84524	0.81694	0.4037	-0.117
Mof_C 	C 	0.9139	0.797	0.40358	0.03
Mof_C 	C 	0.01263	0.57383	0.39409	0.228
Mof_C 	C 	0.08452	0.53696	0.38372	-0.444
Mof_C 	C 	0.12368	0.49364	0.34098	0.499
Mof_C 	C 	0.20161	0.45179	0.32921	-1.038
Mof_C 	C 	0.08565	0.49255	0.30907	-0.428
Mof_C 	C 	0.01344	0.53322	0.3207	0.212
Mof_C 	C 	0.40089	0.00961	0.82445	0.326
Mof_C 	C 	0.4037	0.93412	0.84524	-0.114
Mof_C 	C 	0.40358	0.88552	0.9139	0.029
Mof_C 	C 	0.39409	0.01945	0.01263	0.222
Mof_C 	C 	0.38372	0.9948	0.08452	-0.44
Mof_C 	C 	0.34098	0.0417	0.12368	0.501
Mof_C 	C 	0.32921	0.01739	0.20161	-1.054
Mof_C 	C 	0.30907	0.11273	0.08565	-0.431
Mof_C 	C 	0.3207	0.13264	0.01344	0.216
Mof_C 	C 	0.48495	0.24039	0.42555	0.331
Mof_C 	C 	0.43306	0.31588	0.40476	-0.12
Mof_C 	C 	0.453	0.36448	0.3361	0.034
Mof_C 	C 	0.67617	0.23055	0.23737	0.241
Mof_C 	C 	0.71304	0.2552	0.16548	-0.453
Mof_C 	C 	0.75636	0.2083	0.12632	0.505
Mof_C 	C 	0.79821	0.23261	0.04839	-1.043
Mof_C 	C 	0.75745	0.13727	0.16435	-0.436
Mof_C 	C 	0.71678	0.11736	0.23656	0.224
Mof_C 	C 	0.24039	0.48495	0.84911	0.331
Mof_C 	C 	0.31588	0.43306	0.8463	-0.12
Mof_C 	C 	0.36448	0.453	0.84642	0.034
Mof_C 	C 	0.23055	0.67617	0.85591	0.242
Mof_C 	C 	0.2552	0.71304	0.86628	-0.456
Mof_C 	C 	0.2083	0.75636	0.90902	0.51
Mof_C 	C 	0.23261	0.79821	0.92079	-1.052
Mof_C 	C 	0.13727	0.75745	0.94093	-0.439
Mof_C 	C 	0.11736	0.71678	0.9293	0.226
Mof_C 	C 	0.84911	0.42555	0.24039	0.331
Mof_C 	C 	0.8463	0.40476	0.31588	-0.12
Mof_C 	C 	0.84642	0.3361	0.36448	0.034
Mof_C 	C 	0.85591	0.23737	0.23055	0.241
Mof_C 	C 	0.86628	0.16548	0.2552	-0.453
Mof_C 	C 	0.90902	0.12632	0.2083	0.506
Mof_C 	C 	0.92079	0.04839	0.23261	-1.045
Mof_C 	C 	0.94093	0.16435	0.13727	-0.437
Mof_C 	C 	0.9293	0.23656	0.11736	0.224
Mof_C 	C 	0.42555	0.84911	0.48495	0.331
Mof_C 	C 	0.40476	0.8463	0.43306	-0.12
Mof_C 	C 	0.3361	0.84642	0.453	0.034
Mof_C 	C 	0.23737	0.85591	0.67617	0.241
Mof_C 	C 	0.16548	0.86628	0.71304	-0.454
Mof_C 	C 	0.12632	0.90902	0.75636	0.507
Mof_C 	C 	0.04839	0.92079	0.79821	-1.046
Mof_C 	C 	0.16435	0.94093	0.75745	-0.437
Mof_C 	C 	0.23656	0.9293	0.71678	0.224
Mof_C 	C 	0.42555	0.24039	0.84911	0.331
Mof_C 	C 	0.40476	0.31588	0.8463	-0.12
Mof_C 	C 	0.3361	0.36448	0.84642	0.034
Mof_C 	C 	0.23737	0.23055	0.85591	0.241
Mof_C 	C 	0.16548	0.2552	0.86628	-0.453
Mof_C 	C 	0.12632	0.2083	0.90902	0.506
Mof_C 	C 	0.04839	0.23261	0.92079	-1.045
Mof_C 	C 	0.16435	0.13727	0.94093	-0.437
Mof_C 	C 	0.23656	0.11736	0.9293	0.224
Mof_C 	C 	0.84911	0.48495	0.42555	0.331
Mof_C 	C 	0.8463	0.43306	0.40476	-0.12
Mof_C 	C 	0.84642	0.453	0.3361	0.034
Mof_C 	C 	0.85591	0.67617	0.23737	0.241
Mof_C 	C 	0.86628	0.71304	0.16548	-0.454
Mof_C 	C 	0.90902	0.75636	0.12632	0.507
Mof_C 	C 	0.92079	0.79821	0.04839	-1.046
Mof_C 	C 	0.94093	0.75745	0.16435	-0.437
Mof_C 	C 	0.9293	0.71678	0.23656	0.224
Mof_C 	C 	0.24039	0.42555	0.48495	0.331
Mof_C 	C 	0.31588	0.40476	0.43306	-0.12
Mof_C 	C 	0.36448	0.3361	0.453	0.034
Mof_C 	C 	0.23055	0.23737	0.67617	0.241
Mof_C 	C 	0.2552	0.16548	0.71304	-0.453
Mof_C 	C 	0.2083	0.12632	0.75636	0.505
Mof_C 	C 	0.23261	0.04839	0.79821	-1.043
Mof_C 	C 	0.13727	0.16435	0.75745	-0.436
Mof_C 	C 	0.11736	0.23656	0.71678	0.224
Mof_C 	C 	0.48495	0.84911	0.24039	0.331
Mof_C 	C 	0.43306	0.8463	0.31588	-0.12
Mof_C 	C 	0.453	0.84642	0.36448	0.034
Mof_C 	C 	0.67617	0.85591	0.23055	0.242
Mof_C 	C 	0.71304	0.86628	0.2552	-0.456
Mof_C 	C 	0.75636	0.90902	0.2083	0.51
Mof_C 	C 	0.79821	0.92079	0.23261	-1.052
Mof_C 	C 	0.75745	0.94093	0.13727	-0.439
Mof_C 	C 	0.71678	0.9293	0.11736	0.226
Mof_C 	C 	0.84911	0.24039	0.48495	0.331
Mof_C 	C 	0.8463	0.31588	0.43306	-0.12
Mof_C 	C 	0.84642	0.36448	0.453	0.034
Mof_C 	C 	0.85591	0.23055	0.67617	0.242
Mof_C 	C 	0.86628	0.2552	0.71304	-0.456
Mof_C 	C 	0.90902	0.2083	0.75636	0.51
Mof_C 	C 	0.92079	0.23261	0.79821	-1.052
Mof_C 	C 	0.94093	0.13727	0.75745	-0.439
Mof_C 	C 	0.9293	0.11736	0.71678	0.226
Mof_C 	C 	0.42555	0.48495	0.24039	0.331
Mof_C 	C 	0.40476	0.43306	0.31588	-0.12
Mof_C 	C 	0.3361	0.453	0.36448	0.034
Mof_C 	C 	0.23737	0.67617	0.23055	0.241
Mof_C 	C 	0.16548	0.71304	0.2552	-0.453
Mof_C 	C 	0.12632	0.75636	0.2083	0.505
Mof_C 	C 	0.04839	0.79821	0.23261	-1.043
Mof_C 	C 	0.16435	0.75745	0.13727	-0.436
Mof_C 	C 	0.23656	0.71678	0.11736	0.224
Mof_C 	C 	0.48495	0.42555	0.84911	0.331
Mof_C 	C 	0.43306	0.40476	0.8463	-0.12
Mof_C 	C 	0.453	0.3361	0.84642	0.034
Mof_C 	C 	0.67617	0.23737	0.85591	0.241
Mof_C 	C 	0.71304	0.16548	0.86628	-0.454
Mof_C 	C 	0.75636	0.12632	0.90902	0.507
Mof_C 	C 	0.79821	0.04839	0.92079	-1.046
Mof_C 	C 	0.75745	0.16435	0.94093	-0.437
Mof_C 	C 	0.71678	0.23656	0.9293	0.224
Mof_C 	C 	0.24039	0.84911	0.42555	0.331
Mof_C 	C 	0.31588	0.8463	0.40476	-0.12
Mof_C 	C 	0.36448	0.84642	0.3361	0.034
Mof_C 	C 	0.23055	0.85591	0.23737	0.241
Mof_C 	C 	0.2552	0.86628	0.16548	-0.453
Mof_C 	C 	0.2083	0.90902	0.12632	0.506
Mof_C 	C 	0.23261	0.92079	0.04839	-1.045
Mof_C 	C 	0.13727	0.94093	0.16435	-0.437
Mof_C 	C 	0.11736	0.9293	0.23656	0.224
Mof_N 	N 	0.08763	0.57213	0.97589	-0.293
Mof_N 	N 	0.57213	0.08763	0.36435	-0.298
Mof_N 	N 	0.97589	0.36435	0.08763	-0.294
Mof_N 	N 	0.36435	0.97589	0.57213	-0.293
Mof_N 	N 	0.08763	0.97589	0.36435	-0.294
Mof_N 	N 	0.57213	0.36435	0.97589	-0.293
Mof_N 	N 	0.97589	0.08763	0.57213	-0.293
Mof_N 	N 	0.36435	0.57213	0.08763	-0.298
Mof_N 	N 	0.08763	0.36435	0.57213	-0.298
Mof_N 	N 	0.57213	0.97589	0.08763	-0.293
Mof_N 	N 	0.97589	0.57213	0.36435	-0.293
Mof_N 	N 	0.36435	0.08763	0.97589	-0.294
Mof_N 	N 	0.67787	0.16237	0.27411	-0.3
Mof_N 	N 	0.16237	0.67787	0.88565	-0.3
Mof_N 	N 	0.88565	0.27411	0.16237	-0.3
Mof_N 	N 	0.27411	0.88565	0.67787	-0.3
Mof_N 	N 	0.27411	0.16237	0.88565	-0.3
Mof_N 	N 	0.88565	0.67787	0.27411	-0.3
Mof_N 	N 	0.16237	0.27411	0.67787	-0.3
Mof_N 	N 	0.67787	0.88565	0.16237	-0.3
Mof_N 	N 	0.88565	0.16237	0.67787	-0.3
Mof_N 	N 	0.27411	0.67787	0.16237	-0.3
Mof_N 	N 	0.67787	0.27411	0.88565	-0.3
Mof_N 	N 	0.16237	0.88565	0.27411	-0.3
Mof_O 	O 	0.02718	0.70734	0.8728	-0.431
Mof_O 	O 	0.05017	0.78385	0.76069	-0.307
Mof_O 	O 	0.70734	0.02718	0.39268	-0.432
Mof_O 	O 	0.78385	0.05017	0.40529	-0.307
Mof_O 	O 	0.8728	0.39268	0.02718	-0.432
Mof_O 	O 	0.76069	0.40529	0.05017	-0.307
Mof_O 	O 	0.39268	0.8728	0.70734	-0.431
Mof_O 	O 	0.40529	0.76069	0.78385	-0.307
Mof_O 	O 	0.02718	0.8728	0.39268	-0.432
Mof_O 	O 	0.05017	0.76069	0.40529	-0.307
Mof_O 	O 	0.70734	0.39268	0.8728	-0.431
Mof_O 	O 	0.78385	0.40529	0.76069	-0.307
Mof_O 	O 	0.8728	0.02718	0.70734	-0.431
Mof_O 	O 	0.76069	0.05017	0.78385	-0.307
Mof_O 	O 	0.39268	0.70734	0.02718	-0.432
Mof_O 	O 	0.40529	0.78385	0.05017	-0.307
Mof_O 	O 	0.02718	0.39268	0.70734	-0.432
Mof_O 	O 	0.05017	0.40529	0.78385	-0.307
Mof_O 	O 	0.70734	0.8728	0.02718	-0.431
Mof_O 	O 	0.78385	0.76069	0.05017	-0.307
Mof_O 	O 	0.8728	0.70734	0.39268	-0.431
Mof_O 	O 	0.76069	0.78385	0.40529	-0.307
Mof_O 	O 	0.39268	0.02718	0.8728	-0.432
Mof_O 	O 	0.40529	0.05017	0.76069	-0.307
Mof_O 	O 	0.54266	0.22282	0.3772	-0.432
Mof_O 	O 	0.46615	0.19983	0.48931	-0.307
Mof_O 	O 	0.22282	0.54266	0.85732	-0.432
Mof_O 	O 	0.19983	0.46615	0.84471	-0.307
Mof_O 	O 	0.85732	0.3772	0.22282	-0.432
Mof_O 	O 	0.84471	0.48931	0.19983	-0.307
Mof_O 	O 	0.3772	0.85732	0.54266	-0.432
Mof_O 	O 	0.48931	0.84471	0.46615	-0.307
Mof_O 	O 	0.3772	0.22282	0.85732	-0.432
Mof_O 	O 	0.48931	0.19983	0.84471	-0.307
Mof_O 	O 	0.85732	0.54266	0.3772	-0.432
Mof_O 	O 	0.84471	0.46615	0.48931	-0.307
Mof_O 	O 	0.22282	0.3772	0.54266	-0.432
Mof_O 	O 	0.19983	0.48931	0.46615	-0.307
Mof_O 	O 	0.54266	0.85732	0.22282	-0.432
Mof_O 	O 	0.46615	0.84471	0.19983	-0.307
Mof_O 	O 	0.85732	0.22282	0.54266	-0.432
Mof_O 	O 	0.84471	0.19983	0.46615	-0.307
Mof_O 	O 	0.3772	0.54266	0.22282	-0.432
Mof_O 	O 	0.48931	0.46615	0.19983	-0.307
Mof_O 	O 	0.54266	0.3772	0.85732	-0.432
Mof_O 	O 	0.46615	0.48931	0.84471	-0.307
Mof_O 	O 	0.22282	0.85732	0.3772	-0.432
Mof_O 	O 	0.19983	0.84471	0.48931	-0.307
_end
