data_functionalizedCrystal
_audit_creation_method	'EQeq! by Chris Wilmer'
_symmetry_space_group_name_H-M	'P1'
_symmetry_Int_Tables_number	1
_symmetry_cell_setting	triclinic
loop_
_symmetry_equiv_pos_as_xyz
  x,y,z
_cell_length_a	10.441
_cell_length_b	10.441
_cell_length_c	14.13
_cell_angle_alpha	83.1108
_cell_angle_beta	83.1108
_cell_angle_gamma	85.6142
loop_
_atom_site_label
_atom_site_type_symbol
_atom_site_fract_x
_atom_site_fract_y
_atom_site_fract_z
_atom_site_charge
Mof_Eu	Eu	0.7663	0.2337	0.75	1.835
Mof_Eu	Eu	0.2337	0.7663	0.25	1.835
Mof_H 	H 	0.1765	0.2829	0.9695	0.227
Mof_H 	H 	0.7377	0.8041	0.9087	0.022
Mof_H 	H 	0.6828	0.6464	0.9116	0.027
Mof_H 	H 	0.883	0.561	0.8531	0.035
Mof_H 	H 	0.869	0.7154	0.7878	0.032
Mof_H 	H 	0.1895	0.6899	0.8336	0.029
Mof_H 	H 	0.0814	0.6532	0.7569	0.035
Mof_H 	H 	0.2106	0.4646	0.8003	0.056
Mof_H 	H 	0.0496	0.4446	0.854	0.059
Mof_H 	H 	0.2732	0.5196	0.9453	0.024
Mof_H 	H 	0.1146	0.5032	0.9993	0.038
Mof_H 	H 	0.6711	0.6903	0.161	0.004
Mof_H 	H 	0.5765	0.6821	0.0691	0.01
Mof_H 	H 	0.6324	0.905	0.0071	0.113
Mof_H 	H 	0.7084	0.91	0.1108	0.102
Mof_H 	H 	0.9143	0.8823	0.9135	0.007
Mof_H 	H 	0.0314	0.876	0.8132	-0
Mof_H 	H 	0.1169	0.9677	0.9344	0.067
Mof_H 	H 	0.2008	0.8186	0.9172	0.08
Mof_H 	H 	0.7171	0.8235	0.5305	0.228
Mof_H 	H 	0.1959	0.2623	0.5913	0.022
Mof_H 	H 	0.3536	0.3172	0.5884	0.027
Mof_H 	H 	0.439	0.117	0.6469	0.035
Mof_H 	H 	0.2846	0.131	0.7122	0.032
Mof_H 	H 	0.3101	0.8105	0.6664	0.029
Mof_H 	H 	0.3468	0.9186	0.7431	0.035
Mof_H 	H 	0.5354	0.7894	0.6997	0.056
Mof_H 	H 	0.5554	0.9504	0.646	0.059
Mof_H 	H 	0.4804	0.7268	0.5547	0.023
Mof_H 	H 	0.4968	0.8854	0.5007	0.037
Mof_H 	H 	0.3097	0.3289	0.339	0.004
Mof_H 	H 	0.3179	0.4235	0.4309	0.01
Mof_H 	H 	0.095	0.3676	0.4929	0.115
Mof_H 	H 	0.09	0.2916	0.3892	0.102
Mof_H 	H 	0.1177	0.0857	0.5865	0.008
Mof_H 	H 	0.124	0.9686	0.6868	0
Mof_H 	H 	0.0323	0.8831	0.5656	0.066
Mof_H 	H 	0.1814	0.7992	0.5828	0.08
Mof_H 	H 	0.8235	0.7171	0.0305	0.227
Mof_H 	H 	0.2623	0.1959	0.0913	0.022
Mof_H 	H 	0.3172	0.3536	0.0884	0.027
Mof_H 	H 	0.117	0.439	0.1469	0.035
Mof_H 	H 	0.131	0.2846	0.2122	0.032
Mof_H 	H 	0.8105	0.3101	0.1664	0.029
Mof_H 	H 	0.9186	0.3468	0.2431	0.035
Mof_H 	H 	0.7894	0.5354	0.1997	0.056
Mof_H 	H 	0.9504	0.5554	0.146	0.059
Mof_H 	H 	0.7268	0.4804	0.0547	0.024
Mof_H 	H 	0.8854	0.4968	0.0007	0.038
Mof_H 	H 	0.3289	0.3097	0.839	0.004
Mof_H 	H 	0.4235	0.3179	0.9309	0.01
Mof_H 	H 	0.3676	0.095	0.9929	0.113
Mof_H 	H 	0.2916	0.09	0.8892	0.102
Mof_H 	H 	0.0857	0.1177	0.0865	0.007
Mof_H 	H 	0.9686	0.124	0.1868	-0
Mof_H 	H 	0.8831	0.0323	0.0656	0.067
Mof_H 	H 	0.7992	0.1814	0.0828	0.08
Mof_H 	H 	0.2829	0.1765	0.4695	0.228
Mof_H 	H 	0.8041	0.7377	0.4087	0.022
Mof_H 	H 	0.6464	0.6828	0.4116	0.027
Mof_H 	H 	0.561	0.883	0.3531	0.035
Mof_H 	H 	0.7154	0.869	0.2878	0.032
Mof_H 	H 	0.6899	0.1895	0.3336	0.029
Mof_H 	H 	0.6532	0.0814	0.2569	0.035
Mof_H 	H 	0.4646	0.2106	0.3003	0.056
Mof_H 	H 	0.4446	0.0496	0.354	0.059
Mof_H 	H 	0.5196	0.2732	0.4453	0.023
Mof_H 	H 	0.5032	0.1146	0.4993	0.037
Mof_H 	H 	0.6903	0.6711	0.661	0.004
Mof_H 	H 	0.6821	0.5765	0.5691	0.01
Mof_H 	H 	0.905	0.6324	0.5071	0.115
Mof_H 	H 	0.91	0.7084	0.6108	0.102
Mof_H 	H 	0.8823	0.9143	0.4135	0.008
Mof_H 	H 	0.876	0.0314	0.3132	0
Mof_H 	H 	0.9677	0.1169	0.4344	0.066
Mof_H 	H 	0.8186	0.2008	0.4172	0.08
Mof_C 	C 	0.243	0.301	0.076	-0.01
Mof_C 	C 	0.123	0.339	0.145	-0.053
Mof_C 	C 	0.896	0.362	0.174	-0.018
Mof_C 	C 	0.863	0.505	0.149	-0.109
Mof_C 	C 	0.811	0.529	0.055	0.013
Mof_C 	C 	0.34	0.28	0.911	0.081
Mof_C 	C 	0.363	0.133	0.921	-0.307
Mof_C 	C 	0.491	0.095	0.865	0.437
Mof_C 	C 	0.002	0.836	0.881	0.024
Mof_C 	C 	0.105	0.865	0.942	-0.202
Mof_C 	C 	0.081	0.829	0.05	0.301
Mof_C 	C 	0.699	0.757	0.424	-0.009
Mof_C 	C 	0.661	0.877	0.355	-0.054
Mof_C 	C 	0.638	0.104	0.326	-0.02
Mof_C 	C 	0.495	0.137	0.351	-0.109
Mof_C 	C 	0.471	0.189	0.445	0.013
Mof_C 	C 	0.72	0.66	0.589	0.082
Mof_C 	C 	0.867	0.637	0.579	-0.308
Mof_C 	C 	0.905	0.509	0.635	0.44
Mof_C 	C 	0.164	0.998	0.619	0.022
Mof_C 	C 	0.135	0.895	0.558	-0.207
Mof_C 	C 	0.171	0.919	0.45	0.308
Mof_C 	C 	0.757	0.699	0.924	-0.01
Mof_C 	C 	0.877	0.661	0.855	-0.053
Mof_C 	C 	0.104	0.638	0.826	-0.018
Mof_C 	C 	0.137	0.495	0.851	-0.109
Mof_C 	C 	0.189	0.471	0.945	0.013
Mof_C 	C 	0.66	0.72	0.089	0.081
Mof_C 	C 	0.637	0.867	0.079	-0.307
Mof_C 	C 	0.509	0.905	0.135	0.437
Mof_C 	C 	0.998	0.164	0.119	0.024
Mof_C 	C 	0.895	0.135	0.058	-0.202
Mof_C 	C 	0.919	0.171	0.95	0.301
Mof_C 	C 	0.301	0.243	0.576	-0.009
Mof_C 	C 	0.339	0.123	0.645	-0.054
Mof_C 	C 	0.362	0.896	0.674	-0.02
Mof_C 	C 	0.505	0.863	0.649	-0.109
Mof_C 	C 	0.529	0.811	0.555	0.013
Mof_C 	C 	0.28	0.34	0.411	0.082
Mof_C 	C 	0.133	0.363	0.421	-0.308
Mof_C 	C 	0.095	0.491	0.365	0.44
Mof_C 	C 	0.836	0.002	0.381	0.022
Mof_C 	C 	0.865	0.105	0.442	-0.207
Mof_C 	C 	0.829	0.081	0.55	0.308
Mof_N 	N 	0.2237	0.3277	0.974	-0.281
Mof_N 	N 	0.004	0.308	0.113	-0.105
Mof_N 	N 	0.6723	0.7763	0.526	-0.282
Mof_N 	N 	0.692	0.996	0.387	-0.104
Mof_N 	N 	0.7763	0.6723	0.026	-0.281
Mof_N 	N 	0.996	0.692	0.887	-0.105
Mof_N 	N 	0.3277	0.2237	0.474	-0.282
Mof_N 	N 	0.308	0.004	0.613	-0.104
Mof_O 	O 	0.4778	0.0238	0.136	-0.331
Mof_O 	O 	0.558	0.184	0.823	-0.534
Mof_O 	O 	0.9659	0.8019	0.0864	-0.303
Mof_O 	O 	0.186	0.776	0.092	-0.486
Mof_O 	O 	0.9762	0.5222	0.364	-0.334
Mof_O 	O 	0.816	0.442	0.677	-0.534
Mof_O 	O 	0.1981	0.0341	0.4136	-0.305
Mof_O 	O 	0.224	0.814	0.408	-0.486
Mof_O 	O 	0.5222	0.9762	0.864	-0.331
Mof_O 	O 	0.442	0.816	0.177	-0.534
Mof_O 	O 	0.0341	0.1981	0.9136	-0.303
Mof_O 	O 	0.814	0.224	0.908	-0.486
Mof_O 	O 	0.0238	0.4778	0.636	-0.334
Mof_O 	O 	0.184	0.558	0.323	-0.534
Mof_O 	O 	0.8019	0.9659	0.5864	-0.305
Mof_O 	O 	0.776	0.186	0.592	-0.486
_end
