data_functionalizedCrystal
_audit_creation_method	'EQeq! by Chris Wilmer'
_symmetry_space_group_name_H-M	'P1'
_symmetry_Int_Tables_number	1
_symmetry_cell_setting	triclinic
loop_
_symmetry_equiv_pos_as_xyz
  x,y,z
_cell_length_a	13.4027
_cell_length_b	13.4027
_cell_length_c	14.669
_cell_angle_alpha	90
_cell_angle_beta	90
_cell_angle_gamma	120
loop_
_atom_site_label
_atom_site_type_symbol
_atom_site_fract_x
_atom_site_fract_y
_atom_site_fract_z
_atom_site_charge
Mof_Nd	Nd	0.33333	0.66666	0.83111	2.668
Mof_Nd	Nd	0.66667	0.33334	0.66889	2.666
Mof_Nd	Nd	0.66667	0.33334	0.16889	2.657
Mof_Nd	Nd	0.33333	0.66666	0.33111	2.657
Mof_Cu	Cu	-0	0.5	-0	0.873
Mof_Cu	Cu	0.5	0	-0	0.871
Mof_Cu	Cu	0.5	0.5	-0	0.902
Mof_Cu	Cu	0.5	0.5	0.5	0.929
Mof_Cu	Cu	0.5	0	0.5	0.898
Mof_Cu	Cu	3.26202e-17	0.5	0.5	0.9
Mof_H 	H 	0.0404	0.2925	0.9519	0.039
Mof_H 	H 	0.1395	0.32	0.0217	0.001
Mof_H 	H 	0.9752	0.3263	0.0773	0.15
Mof_H 	H 	0.1908	0.4589	0.1268	0.135
Mof_H 	H 	0.0826	0.3973	0.1902	0.113
Mof_H 	H 	0.2521	0.9596	0.9519	0.099
Mof_H 	H 	0.1805	0.8605	0.0217	0.025
Mof_H 	H 	0.3511	0.0248	0.0773	0.029
Mof_H 	H 	0.2681	0.8092	0.1268	0.141
Mof_H 	H 	0.3147	0.9174	0.1902	0.158
Mof_H 	H 	0.7075	0.7479	0.9519	0.091
Mof_H 	H 	0.68	0.8195	0.0217	0.045
Mof_H 	H 	0.6737	0.6489	0.0773	0.096
Mof_H 	H 	0.5411	0.7319	0.1268	0.147
Mof_H 	H 	0.6027	0.6853	0.1902	0.147
Mof_H 	H 	0.7479	0.7075	0.5481	0.138
Mof_H 	H 	0.8195	0.68	0.4783	0.144
Mof_H 	H 	0.6489	0.6737	0.4227	0.097
Mof_H 	H 	0.7319	0.5411	0.3732	0.16
Mof_H 	H 	0.6853	0.6027	0.3098	0.15
Mof_H 	H 	0.2925	0.0404	0.5481	0.088
Mof_H 	H 	0.32	0.1395	0.4783	0.106
Mof_H 	H 	0.3263	0.9752	0.4227	0.153
Mof_H 	H 	0.4589	0.1908	0.3732	0.148
Mof_H 	H 	0.3973	0.0826	0.3098	0.116
Mof_H 	H 	0.9596	0.2521	0.5481	0.145
Mof_H 	H 	0.8605	0.1805	0.4783	0.124
Mof_H 	H 	0.0248	0.3511	0.4227	0.034
Mof_H 	H 	0.8092	0.2681	0.3732	0.154
Mof_H 	H 	0.9174	0.3147	0.3098	0.16
Mof_H 	H 	0.9596	0.7075	0.0481	0.206
Mof_H 	H 	0.8605	0.68	0.9783	0.24
Mof_H 	H 	0.0248	0.6737	0.9227	0.042
Mof_H 	H 	0.8092	0.5411	0.8732	0.171
Mof_H 	H 	0.9174	0.6027	0.8098	0.17
Mof_H 	H 	0.7479	0.0404	0.0481	0.148
Mof_H 	H 	0.8195	0.1395	0.9783	0.224
Mof_H 	H 	0.6489	0.9752	0.9227	0.157
Mof_H 	H 	0.7319	0.1908	0.8732	0.166
Mof_H 	H 	0.6853	0.0826	0.8098	0.127
Mof_H 	H 	0.2925	0.2521	0.0481	0.159
Mof_H 	H 	0.32	0.1805	0.9783	0.211
Mof_H 	H 	0.3263	0.3511	0.9227	0.092
Mof_H 	H 	0.4589	0.2681	0.8732	0.162
Mof_H 	H 	0.3973	0.3147	0.8098	0.139
Mof_H 	H 	0.2521	0.2925	0.4519	0.11
Mof_H 	H 	0.1805	0.32	0.5217	0.107
Mof_H 	H 	0.3511	0.3263	0.5773	0.09
Mof_H 	H 	0.2681	0.4589	0.6268	0.15
Mof_H 	H 	0.3147	0.3973	0.6902	0.137
Mof_H 	H 	0.7075	0.9596	0.4519	0.16
Mof_H 	H 	0.68	0.8605	0.5217	0.144
Mof_H 	H 	0.6737	0.0248	0.5773	0.034
Mof_H 	H 	0.5411	0.8092	0.6268	0.16
Mof_H 	H 	0.6027	0.9174	0.6902	0.169
Mof_H 	H 	0.0404	0.7479	0.4519	0.102
Mof_H 	H 	0.1395	0.8195	0.5217	0.126
Mof_H 	H 	0.9752	0.6489	0.5773	0.153
Mof_H 	H 	0.1908	0.7319	0.6268	0.154
Mof_H 	H 	0.0826	0.6853	0.6902	0.126
Mof_C 	C 	0.1818	0.4531	0.9322	0.344
Mof_C 	C 	0.0982	0.3521	0.9904	-0.071
Mof_C 	C 	0.1142	0.447	0.1376	-0.372
Mof_C 	C 	0.1226	0.5605	0.1572	0.504
Mof_C 	C 	0.2713	0.8182	0.9322	0.369
Mof_C 	C 	0.2539	0.9018	0.9904	-0.113
Mof_C 	C 	0.3328	0.8858	0.1376	-0.391
Mof_C 	C 	0.4379	0.8774	0.1572	0.52
Mof_C 	C 	0.5469	0.7287	0.9322	0.365
Mof_C 	C 	0.6479	0.7461	0.9904	-0.117
Mof_C 	C 	0.553	0.6672	0.1376	-0.391
Mof_C 	C 	0.4395	0.5621	0.1572	0.516
Mof_C 	C 	0.7287	0.5469	0.5678	0.414
Mof_C 	C 	0.7461	0.6479	0.5096	-0.317
Mof_C 	C 	0.6672	0.553	0.3624	-0.401
Mof_C 	C 	0.5621	0.4395	0.3428	0.524
Mof_C 	C 	0.4531	0.1818	0.5678	0.395
Mof_C 	C 	0.3521	0.0982	0.5096	-0.281
Mof_C 	C 	0.447	0.1142	0.3624	-0.382
Mof_C 	C 	0.5605	0.1226	0.3428	0.512
Mof_C 	C 	0.8182	0.2713	0.5678	0.417
Mof_C 	C 	0.9018	0.2539	0.5096	-0.312
Mof_C 	C 	0.8858	0.3328	0.3624	-0.401
Mof_C 	C 	0.8774	0.4379	0.3428	0.527
Mof_C 	C 	0.8182	0.5469	0.0678	0.47
Mof_C 	C 	0.9018	0.6479	0.0096	-0.518
Mof_C 	C 	0.8858	0.553	0.8624	-0.412
Mof_C 	C 	0.8774	0.4395	0.8428	0.535
Mof_C 	C 	0.7287	0.1818	0.0678	0.449
Mof_C 	C 	0.7461	0.0982	0.0096	-0.492
Mof_C 	C 	0.6672	0.1142	0.8624	-0.393
Mof_C 	C 	0.5621	0.1226	0.8428	0.52
Mof_C 	C 	0.4531	0.2713	0.0678	0.455
Mof_C 	C 	0.3521	0.2539	0.0096	-0.499
Mof_C 	C 	0.447	0.3328	0.8624	-0.399
Mof_C 	C 	0.5605	0.4379	0.8428	0.526
Mof_C 	C 	0.2713	0.4531	0.4322	0.404
Mof_C 	C 	0.2539	0.3521	0.4904	-0.293
Mof_C 	C 	0.3328	0.447	0.6376	-0.393
Mof_C 	C 	0.4379	0.5605	0.6572	0.52
Mof_C 	C 	0.5469	0.8182	0.4322	0.422
Mof_C 	C 	0.6479	0.9018	0.4904	-0.325
Mof_C 	C 	0.553	0.8858	0.6376	-0.407
Mof_C 	C 	0.4395	0.8774	0.6572	0.53
Mof_C 	C 	0.1818	0.7287	0.4322	0.401
Mof_C 	C 	0.0982	0.7461	0.4904	-0.294
Mof_C 	C 	0.1142	0.6672	0.6376	-0.388
Mof_C 	C 	0.1226	0.5621	0.6572	0.515
Mof_N 	N 	0.0411	0.3894	0.05801	-0.258
Mof_N 	N 	0.3483	0.9589	0.05801	-0.14
Mof_N 	N 	0.6106	0.6517	0.05801	-0.198
Mof_N 	N 	0.6517	0.6106	0.44199	-0.151
Mof_N 	N 	0.3894	0.0411	0.44199	-0.21
Mof_N 	N 	0.9589	0.3483	0.44199	-0.096
Mof_N 	N 	0.9589	0.6106	0.94199	-0.043
Mof_N 	N 	0.6517	0.0411	0.94199	-0.152
Mof_N 	N 	0.3894	0.3483	0.94199	-0.1
Mof_N 	N 	0.3483	0.3894	0.55801	-0.156
Mof_N 	N 	0.6106	0.9589	0.55801	-0.09
Mof_N 	N 	0.0411	0.6517	0.55801	-0.204
Mof_O 	O 	0.24234	0.43902	0.87592	-0.427
Mof_O 	O 	0.1848	0.5478	0.94309	-0.544
Mof_O 	O 	0.0741	0.598	0.10552	-0.476
Mof_O 	O 	0.1783	0.615	0.22561	-0.601
Mof_O 	O 	0.19668	0.75766	0.87592	-0.429
Mof_O 	O 	0.363	0.8152	0.94309	-0.534
Mof_O 	O 	0.5239	0.9259	0.10552	-0.423
Mof_O 	O 	0.4367	0.8217	0.22561	-0.587
Mof_O 	O 	0.56098	0.80332	0.87592	-0.416
Mof_O 	O 	0.4522	0.637	0.94309	-0.543
Mof_O 	O 	0.402	0.4761	0.10552	-0.459
Mof_O 	O 	0.385	0.5633	0.22561	-0.598
Mof_O 	O 	0.80332	0.56098	0.62408	-0.438
Mof_O 	O 	0.637	0.4522	0.55691	-0.577
Mof_O 	O 	0.4761	0.402	0.39448	-0.451
Mof_O 	O 	0.5633	0.385	0.27439	-0.597
Mof_O 	O 	0.43902	0.24234	0.62408	-0.45
Mof_O 	O 	0.5478	0.1848	0.55691	-0.579
Mof_O 	O 	0.598	0.0741	0.39448	-0.469
Mof_O 	O 	0.615	0.1783	0.27439	-0.601
Mof_O 	O 	0.75766	0.19668	0.62408	-0.451
Mof_O 	O 	0.8152	0.363	0.55691	-0.568
Mof_O 	O 	0.9259	0.5239	0.39448	-0.416
Mof_O 	O 	0.8217	0.4367	0.27439	-0.586
Mof_O 	O 	0.75766	0.56098	0.12408	-0.464
Mof_O 	O 	0.8152	0.4522	0.05691	-0.596
Mof_O 	O 	0.9259	0.402	0.89448	-0.401
Mof_O 	O 	0.8217	0.385	0.77439	-0.59
Mof_O 	O 	0.80332	0.24234	0.12408	-0.463
Mof_O 	O 	0.637	0.1848	0.05691	-0.607
Mof_O 	O 	0.4761	0.0741	0.89448	-0.451
Mof_O 	O 	0.5633	0.1783	0.77439	-0.604
Mof_O 	O 	0.43902	0.19668	0.12408	-0.477
Mof_O 	O 	0.5478	0.363	0.05691	-0.605
Mof_O 	O 	0.598	0.5239	0.89448	-0.427
Mof_O 	O 	0.615	0.4367	0.77439	-0.594
Mof_O 	O 	0.19668	0.43902	0.37592	-0.455
Mof_O 	O 	0.363	0.5478	0.44309	-0.576
Mof_O 	O 	0.5239	0.598	0.60552	-0.446
Mof_O 	O 	0.4367	0.615	0.72561	-0.595
Mof_O 	O 	0.56098	0.75766	0.37592	-0.444
Mof_O 	O 	0.4522	0.8152	0.44309	-0.568
Mof_O 	O 	0.402	0.9259	0.60552	-0.417
Mof_O 	O 	0.385	0.8217	0.72561	-0.59
Mof_O 	O 	0.24234	0.80332	0.37592	-0.441
Mof_O 	O 	0.1848	0.637	0.44309	-0.579
Mof_O 	O 	0.0741	0.4761	0.60552	-0.469
Mof_O 	O 	0.1783	0.5633	0.72561	-0.605
_end
