data_functionalizedCrystal
_audit_creation_method	'EQeq! by Chris Wilmer'
_symmetry_space_group_name_H-M	'P1'
_symmetry_Int_Tables_number	1
_symmetry_cell_setting	triclinic
loop_
_symmetry_equiv_pos_as_xyz
  x,y,z
_cell_length_a	14.7246
_cell_length_b	14.7246
_cell_length_c	10.2236
_cell_angle_alpha	90
_cell_angle_beta	90
_cell_angle_gamma	90
loop_
_atom_site_label
_atom_site_type_symbol
_atom_site_fract_x
_atom_site_fract_y
_atom_site_fract_z
_atom_site_charge
Mof_Li	Li	0.4494	0.1819	0.3637	3.361
Mof_O 	O 	0.39131	0.11764	0.4958	-1.355
Mof_O 	O 	0.3417	0.07351	0.68731	-1.304
Mof_O 	O 	0.08477	0.43701	0.61237	-0.926
Mof_O 	O 	0.07493	0.35931	0.79901	-0.587
Mof_N 	N 	0.20223	0.31331	0.5088	-0.152
Mof_H 	H 	0.188	0.3527	0.451	-0.009
Mof_N 	N 	0.26547	0.25151	0.4806	-0.185
Mof_C 	C 	0.33785	0.12455	0.5898	0.905
Mof_C 	C 	0.26825	0.19772	0.5855	-0.506
Mof_C 	C 	0.20631	0.22502	0.68	0.239
Mof_H 	H 	0.1952	0.1979	0.7606	-0.274
Mof_C 	C 	0.1649	0.30076	0.6287	-0.323
Mof_C 	C 	0.10206	0.37004	0.6835	0.412
Mof_Li	Li	0.5506	0.8181	0.3637	3.465
Mof_O 	O 	0.60869	0.88236	0.4958	-1.349
Mof_O 	O 	0.6583	0.92649	0.68731	-1.41
Mof_O 	O 	0.91523	0.56299	0.61237	-0.863
Mof_O 	O 	0.92507	0.64069	0.79901	-0.5
Mof_N 	N 	0.79777	0.68669	0.5088	-0.152
Mof_H 	H 	0.812	0.6473	0.451	0.006
Mof_N 	N 	0.73453	0.74849	0.4806	-0.174
Mof_C 	C 	0.66215	0.87545	0.5898	0.979
Mof_C 	C 	0.73175	0.80228	0.5855	-0.515
Mof_C 	C 	0.79369	0.77498	0.68	0.258
Mof_H 	H 	0.8048	0.8021	0.7606	-0.272
Mof_C 	C 	0.8351	0.69924	0.6287	-0.286
Mof_C 	C 	0.89794	0.62996	0.6835	0.411
Mof_Li	Li	0.1819	0.5506	0.6363	3.376
Mof_O 	O 	0.11764	0.60869	0.5042	-1.359
Mof_O 	O 	0.07351	0.6583	0.31269	-1.322
Mof_O 	O 	0.43701	0.91523	0.38763	-0.865
Mof_O 	O 	0.35931	0.92507	0.20099	-0.504
Mof_N 	N 	0.31331	0.79777	0.4912	-0.153
Mof_H 	H 	0.3527	0.812	0.549	0.004
Mof_N 	N 	0.25151	0.73453	0.5194	-0.179
Mof_C 	C 	0.12455	0.66215	0.4102	0.916
Mof_C 	C 	0.19772	0.73175	0.4145	-0.495
Mof_C 	C 	0.22502	0.79369	0.32	0.235
Mof_H 	H 	0.1979	0.8048	0.2394	-0.254
Mof_C 	C 	0.30076	0.8351	0.3713	-0.286
Mof_C 	C 	0.37004	0.89794	0.3165	0.407
Mof_Li	Li	0.8181	0.4494	0.6363	3.449
Mof_O 	O 	0.88236	0.39131	0.5042	-1.346
Mof_O 	O 	0.92649	0.3417	0.31269	-1.392
Mof_O 	O 	0.56299	0.08477	0.38763	-0.925
Mof_O 	O 	0.64069	0.07493	0.20099	-0.583
Mof_N 	N 	0.68669	0.20223	0.4912	-0.15
Mof_H 	H 	0.6473	0.188	0.549	-0.008
Mof_N 	N 	0.74849	0.26547	0.5194	-0.18
Mof_C 	C 	0.87545	0.33785	0.4102	0.967
Mof_C 	C 	0.80228	0.26825	0.4145	-0.526
Mof_C 	C 	0.77498	0.20631	0.32	0.262
Mof_H 	H 	0.8021	0.1952	0.2394	-0.291
Mof_C 	C 	0.69924	0.1649	0.3713	-0.324
Mof_C 	C 	0.62996	0.10206	0.3165	0.416
Mof_Li	Li	0.0506	0.6819	0.1363	3.153
Mof_O 	O 	0.10869	0.61764	0.0042	-1.312
Mof_O 	O 	0.1583	0.57351	0.81269	-1.354
Mof_O 	O 	0.41523	0.93701	0.88763	-0.799
Mof_O 	O 	0.42507	0.85931	0.70099	-0.523
Mof_N 	N 	0.29777	0.81331	0.9912	-0.157
Mof_H 	H 	0.312	0.8527	0.049	0.016
Mof_N 	N 	0.23453	0.75151	0.0194	-0.17
Mof_C 	C 	0.16215	0.62455	0.9102	0.914
Mof_C 	C 	0.23175	0.69772	0.9145	-0.497
Mof_C 	C 	0.29369	0.72502	0.82	0.235
Mof_H 	H 	0.3048	0.6979	0.7394	-0.266
Mof_C 	C 	0.3351	0.80076	0.8713	-0.283
Mof_C 	C 	0.39794	0.87004	0.8165	0.399
Mof_Li	Li	0.9494	0.3181	0.1363	3.68
Mof_O 	O 	0.89131	0.38236	0.0042	-1.397
Mof_O 	O 	0.8417	0.42649	0.81269	-1.359
Mof_O 	O 	0.58477	0.06299	0.88763	-0.992
Mof_O 	O 	0.57493	0.14069	0.70099	-0.565
Mof_N 	N 	0.70223	0.18669	0.9912	-0.148
Mof_H 	H 	0.688	0.1473	0.049	-0.02
Mof_N 	N 	0.76547	0.24849	0.0194	-0.19
Mof_C 	C 	0.83785	0.37545	0.9102	0.969
Mof_C 	C 	0.76825	0.30228	0.9145	-0.525
Mof_C 	C 	0.70631	0.27498	0.82	0.262
Mof_H 	H 	0.6952	0.3021	0.7394	-0.28
Mof_C 	C 	0.6649	0.19924	0.8713	-0.327
Mof_C 	C 	0.60206	0.12996	0.8165	0.423
Mof_Li	Li	0.3181	0.0506	0.8637	3.053
Mof_O 	O 	0.38236	0.10869	0.9958	-1.291
Mof_O 	O 	0.42649	0.1583	0.18731	-1.35
Mof_O 	O 	0.06299	0.41523	0.11237	-0.981
Mof_O 	O 	0.14069	0.42507	0.29901	-0.566
Mof_N 	N 	0.18669	0.29777	0.0088	-0.154
Mof_H 	H 	0.1473	0.312	0.951	-0.017
Mof_N 	N 	0.24849	0.23453	0.9806	-0.179
Mof_C 	C 	0.37545	0.16215	0.0898	0.903
Mof_C 	C 	0.30228	0.23175	0.0855	-0.502
Mof_C 	C 	0.27498	0.29369	0.18	0.24
Mof_H 	H 	0.3021	0.3048	0.2606	-0.27
Mof_C 	C 	0.19924	0.3351	0.1287	-0.322
Mof_C 	C 	0.12996	0.39794	0.1835	0.417
Mof_Li	Li	0.6819	0.9494	0.8637	3.78
Mof_O 	O 	0.61764	0.89131	0.9958	-1.418
Mof_O 	O 	0.57351	0.8417	0.18731	-1.362
Mof_O 	O 	0.93701	0.58477	0.11237	-0.809
Mof_O 	O 	0.85931	0.57493	0.29901	-0.523
Mof_N 	N 	0.81331	0.70223	0.0088	-0.151
Mof_H 	H 	0.8527	0.688	0.951	0.013
Mof_N 	N 	0.75151	0.76547	0.9806	-0.181
Mof_C 	C 	0.62455	0.83785	0.0898	0.98
Mof_C 	C 	0.69772	0.76825	0.0855	-0.52
Mof_C 	C 	0.72502	0.70631	0.18	0.257
Mof_H 	H 	0.6979	0.6952	0.2606	-0.276
Mof_C 	C 	0.80076	0.6649	0.1287	-0.289
Mof_C 	C 	0.87004	0.60206	0.1835	0.405
Mof_Sr	Sr	0.5	2.84708e-33	0.59449	1.114
Mof_Sr	Sr	-1.79142e-33	0.5	0.40551	1.113
Mof_Sr	Sr	1.37456e-32	0.5	0.90551	1.108
Mof_Sr	Sr	0.5	0	0.09449	1.107
_end
