data_functionalizedCrystal
_audit_creation_method	'EQeq! by Chris Wilmer'
_symmetry_space_group_name_H-M	'P1'
_symmetry_Int_Tables_number	1
_symmetry_cell_setting	triclinic
loop_
_symmetry_equiv_pos_as_xyz
  x,y,z
_cell_length_a	7.5135
_cell_length_b	37.1568
_cell_length_c	11.1499
_cell_angle_alpha	90
_cell_angle_beta	98.647
_cell_angle_gamma	90
loop_
_atom_site_label
_atom_site_type_symbol
_atom_site_fract_x
_atom_site_fract_y
_atom_site_fract_z
_atom_site_charge
Mof_O 	O 	0.2943	0.15392	0.3852	-0.274
Mof_C 	C 	0.3603	0.1241	0.3526	-0.079
Mof_H 	H 	0.3484	0.1055	0.4131	0.163
Mof_H 	H 	0.4879	0.1275	0.3461	0.06
Mof_H 	H 	0.295	0.1167	0.2737	0.069
Mof_Mn	Mn	0.06554	0.16588	0.47811	0.711
Mof_C 	C 	0.9318	0.02683	0.4141	0.073
Mof_C 	C 	0.908	0.98992	0.3888	-0.07
Mof_H 	H 	0.8455	0.9827	0.3122	0.048
Mof_N 	N 	0.6743	0.03395	0.1279	-0.218
Mof_C 	C 	0.0271	0.03587	0.5278	-0.083
Mof_H 	H 	0.0474	0.0605	0.5478	0.055
Mof_N 	N 	0.9242	0.11976	0.3828	-0.208
Mof_N 	N 	0.9409	0.20219	0.3326	-0.204
Mof_N 	N 	0.1876	0.13076	0.6296	-0.213
Mof_C 	C 	0.7585	0.04473	0.2158	0.119
Mof_N 	N 	0.4682	0.04597	0.8702	-0.213
Mof_C 	C 	0.4357	0.07517	0.8422	0.118
Mof_C 	C 	0.4936	0.13956	0.8967	0.086
Mof_C 	C 	0.5858	0.13107	0.0115	-0.1
Mof_H 	H 	0.594	0.1067	0.037	0.06
Mof_C 	C 	0.6557	0.19399	0.0562	0.039
Mof_C 	C 	0.8913	0.09062	0.3525	0.131
Mof_C 	C 	0.6653	0.15754	0.0888	-0.05
Mof_H 	H 	0.728	0.1508	0.166	0.046
Mof_C 	C 	0.8523	0.21237	0.2465	0.117
Mof_C 	C 	0.2856	0.12077	0.7119	0.121
Mof_C 	C 	0.5641	0.20236	0.9412	-0.043
Mof_H 	H 	0.5564	0.2268	0.9157	0.046
Mof_N 	N 	0.702	0.28715	0.0709	-0.214
Mof_C 	C 	0.4846	0.17611	0.8639	-0.09
Mof_H 	H 	0.4224	0.1829	0.7867	0.059
Mof_C 	C 	0.7242	0.25829	0.1057	0.115
Mof_C 	C 	0.8605	0.05448	0.3258	-0.131
Mof_C 	C 	0.4057	0.1117	0.8147	-0.141
Mof_C 	C 	0.743	0.22192	0.1376	-0.125
Mof_O 	O 	0.3906	0.08106	0.3795	-0.327
Mof_C 	C 	0.4135	0.1718	0.3341	0.03
Mof_H 	H 	0.3791	0.1973	0.3273	0.015
Mof_H 	H 	0.4183	0.162	0.2531	0.017
Mof_H 	H 	0.5322	0.1696	0.3839	0.01
Mof_C 	C 	0.4661	0.065	0.4743	0.222
Mof_H 	H 	0.5127	0.0792	0.5427	-0.044
Mof_C 	C 	0.411	0.0064	0.3854	0.086
Mof_H 	H 	0.3314	0.0202	0.3244	-0.006
Mof_H 	H 	0.3424	0.987	0.4167	-0.122
Mof_H 	H 	0.5096	0.9961	0.3482	0.281
Mof_N 	N 	0.4836	0.0298	0.4833	-0.141
Mof_C 	C 	0.5714	0.0141	0.595	0.041
Mof_H 	H 	0.5983	0.033	0.6565	-0
Mof_H 	H 	0.6837	0.0025	0.5811	0.162
Mof_H 	H 	0.4919	0.9961	0.6234	-0.307
Mof_O 	O 	0.2057	0.65392	0.1148	-0.271
Mof_C 	C 	0.1397	0.6241	0.1474	-0.073
Mof_H 	H 	0.1516	0.6055	0.0869	0.158
Mof_H 	H 	0.0121	0.6275	0.1539	0.056
Mof_H 	H 	0.205	0.6167	0.2263	0.071
Mof_Mn	Mn	0.43446	0.66588	0.02189	0.712
Mof_C 	C 	0.5682	0.52683	0.0859	0.041
Mof_C 	C 	0.592	0.48992	0.1112	-0.049
Mof_H 	H 	0.6545	0.4827	0.1878	0.04
Mof_N 	N 	0.8257	0.53395	0.3721	-0.212
Mof_C 	C 	0.4729	0.53587	0.9722	-0.041
Mof_H 	H 	0.4526	0.5605	0.9522	0.048
Mof_N 	N 	0.5758	0.61976	0.1172	-0.212
Mof_N 	N 	0.5591	0.70219	0.1674	-0.213
Mof_N 	N 	0.3124	0.63076	0.8704	-0.206
Mof_C 	C 	0.7415	0.54473	0.2842	0.118
Mof_N 	N 	0.0318	0.54597	0.6298	-0.217
Mof_C 	C 	0.0643	0.57517	0.6578	0.109
Mof_C 	C 	0.0064	0.63956	0.6033	0.053
Mof_C 	C 	0.9142	0.63107	0.4885	-0.06
Mof_H 	H 	0.906	0.6067	0.463	0.053
Mof_C 	C 	0.8443	0.69399	0.4438	0.062
Mof_C 	C 	0.6087	0.59062	0.1475	0.122
Mof_C 	C 	0.8347	0.65754	0.4112	-0.073
Mof_H 	H 	0.772	0.6508	0.334	0.054
Mof_C 	C 	0.6477	0.71237	0.2535	0.116
Mof_C 	C 	0.2144	0.62077	0.7881	0.118
Mof_C 	C 	0.9359	0.70236	0.5588	-0.066
Mof_H 	H 	0.9436	0.7268	0.5843	0.052
Mof_N 	N 	0.798	0.78715	0.4291	-0.213
Mof_C 	C 	0.0154	0.67611	0.6361	-0.073
Mof_H 	H 	0.0776	0.6829	0.7133	0.054
Mof_C 	C 	0.7758	0.75829	0.3943	0.117
Mof_C 	C 	0.6395	0.55448	0.1742	-0.121
Mof_C 	C 	0.0943	0.6117	0.6853	-0.131
Mof_C 	C 	0.757	0.72192	0.3624	-0.133
Mof_O 	O 	0.1094	0.58106	0.1205	-0.316
Mof_C 	C 	0.0865	0.6718	0.1659	0.013
Mof_H 	H 	0.1209	0.6973	0.1727	0.019
Mof_H 	H 	0.0817	0.662	0.2469	0.022
Mof_H 	H 	0.9678	0.6696	0.1161	0.016
Mof_C 	C 	0.0339	0.565	0.0257	0.182
Mof_H 	H 	0.9873	0.5792	0.9573	-0.017
Mof_C 	C 	0.089	0.5064	0.1146	0.114
Mof_H 	H 	0.1686	0.5202	0.1756	-0.016
Mof_H 	H 	0.1576	0.487	0.0833	-0.179
Mof_H 	H 	0.9904	0.4961	0.1518	0.325
Mof_N 	N 	0.0164	0.5298	0.0167	-0.145
Mof_C 	C 	0.9286	0.5141	0.905	0.033
Mof_H 	H 	0.9017	0.533	0.8435	0.006
Mof_H 	H 	0.8163	0.5025	0.9189	0.125
Mof_H 	H 	0.0081	0.4961	0.8766	-0.26
Mof_O 	O 	0.7057	0.84608	0.6148	-0.269
Mof_C 	C 	0.6397	0.8759	0.6474	-0.083
Mof_H 	H 	0.6516	0.8945	0.5869	0.166
Mof_H 	H 	0.5121	0.8725	0.6539	0.063
Mof_H 	H 	0.705	0.8833	0.7263	0.077
Mof_Mn	Mn	0.93446	0.83412	0.52189	0.727
Mof_C 	C 	0.0682	0.97317	0.5859	0.06
Mof_C 	C 	0.092	0.01008	0.6112	-0.067
Mof_H 	H 	0.1545	0.0173	0.6878	0.045
Mof_N 	N 	0.3257	0.96605	0.8721	-0.21
Mof_C 	C 	0.9729	0.96413	0.4722	-0.061
Mof_H 	H 	0.9526	0.9395	0.4522	0.051
Mof_N 	N 	0.0758	0.88024	0.6172	-0.213
Mof_N 	N 	0.0591	0.79781	0.6674	-0.214
Mof_N 	N 	0.8124	0.86924	0.3704	-0.21
Mof_C 	C 	0.2415	0.95527	0.7842	0.122
Mof_N 	N 	0.5318	0.95403	0.1298	-0.215
Mof_C 	C 	0.5643	0.92483	0.1578	0.103
Mof_C 	C 	0.5064	0.86044	0.1033	0.018
Mof_C 	C 	0.4142	0.86893	0.9885	-0.019
Mof_H 	H 	0.406	0.8933	0.963	0.041
Mof_C 	C 	0.3443	0.80601	0.9438	0.105
Mof_C 	C 	0.1087	0.90938	0.6475	0.126
Mof_C 	C 	0.3347	0.84246	0.9112	-0.106
Mof_H 	H 	0.272	0.8492	0.834	0.065
Mof_C 	C 	0.1477	0.78763	0.7535	0.123
Mof_C 	C 	0.7144	0.87923	0.2881	0.112
Mof_C 	C 	0.4359	0.79764	0.0588	-0.122
Mof_H 	H 	0.4436	0.7732	0.0843	0.065
Mof_N 	N 	0.298	0.71285	0.9291	-0.209
Mof_C 	C 	0.5154	0.82389	0.1361	-0.034
Mof_H 	H 	0.5776	0.8171	0.2133	0.039
Mof_C 	C 	0.2758	0.74171	0.8943	0.127
Mof_C 	C 	0.1395	0.94552	0.6742	-0.128
Mof_C 	C 	0.5943	0.8883	0.1853	-0.119
Mof_C 	C 	0.257	0.77808	0.8624	-0.147
Mof_O 	O 	0.6094	0.91894	0.6205	-0.325
Mof_C 	C 	0.5865	0.8282	0.6659	0.027
Mof_H 	H 	0.6209	0.8027	0.6727	0.018
Mof_H 	H 	0.5817	0.838	0.7469	0.021
Mof_H 	H 	0.4678	0.8304	0.6161	0.009
Mof_C 	C 	0.5339	0.935	0.5257	0.223
Mof_H 	H 	0.4873	0.9208	0.4573	-0.046
Mof_C 	C 	0.589	0.9936	0.6146	0.138
Mof_H 	H 	0.6686	0.9798	0.6756	-0.016
Mof_H 	H 	0.6576	0.013	0.5833	-0.177
Mof_H 	H 	0.4904	0.0039	0.6518	0.279
Mof_N 	N 	0.5164	0.9702	0.5167	-0.145
Mof_C 	C 	0.4286	0.9859	0.405	0.022
Mof_H 	H 	0.4017	0.967	0.3435	-0
Mof_H 	H 	0.3163	0.9975	0.4189	0.136
Mof_H 	H 	0.5081	0.0039	0.3766	-0.284
Mof_O 	O 	0.7943	0.34608	0.8852	-0.278
Mof_C 	C 	0.8603	0.3759	0.8526	-0.092
Mof_H 	H 	0.8484	0.3945	0.9131	0.175
Mof_H 	H 	0.9879	0.3725	0.8461	0.072
Mof_H 	H 	0.795	0.3833	0.7737	0.08
Mof_Mn	Mn	0.56554	0.33412	0.97811	0.734
Mof_C 	C 	0.4318	0.47317	0.9141	0.086
Mof_C 	C 	0.408	0.51008	0.8888	-0.088
Mof_H 	H 	0.3455	0.5173	0.8122	0.054
Mof_N 	N 	0.1743	0.46605	0.6279	-0.219
Mof_C 	C 	0.5271	0.46413	0.0278	-0.096
Mof_H 	H 	0.5474	0.4395	0.0478	0.059
Mof_N 	N 	0.4242	0.38024	0.8828	-0.214
Mof_N 	N 	0.4409	0.29781	0.8326	-0.212
Mof_N 	N 	0.6876	0.36924	0.1296	-0.215
Mof_C 	C 	0.2585	0.45527	0.7158	0.12
Mof_N 	N 	0.9682	0.45403	0.3702	-0.212
Mof_C 	C 	0.9357	0.42483	0.3422	0.119
Mof_C 	C 	0.9936	0.36044	0.3967	0.075
Mof_C 	C 	0.0858	0.36893	0.5115	-0.094
Mof_H 	H 	0.094	0.3933	0.537	0.056
Mof_C 	C 	0.1557	0.30601	0.5562	0.065
Mof_C 	C 	0.3913	0.40938	0.8525	0.129
Mof_C 	C 	0.1653	0.34246	0.5888	-0.067
Mof_H 	H 	0.228	0.3492	0.666	0.049
Mof_C 	C 	0.3523	0.28763	0.7465	0.117
Mof_C 	C 	0.7856	0.37923	0.2119	0.121
Mof_C 	C 	0.0641	0.29764	0.4412	-0.098
Mof_H 	H 	0.0564	0.2732	0.4157	0.056
Mof_N 	N 	0.202	0.21285	0.5709	-0.214
Mof_C 	C 	0.9846	0.32389	0.3639	-0.046
Mof_H 	H 	0.9224	0.3171	0.2867	0.047
Mof_C 	C 	0.2242	0.24171	0.6057	0.116
Mof_C 	C 	0.3605	0.44552	0.8258	-0.138
Mof_C 	C 	0.9057	0.3883	0.3147	-0.136
Mof_C 	C 	0.243	0.27808	0.6376	-0.136
Mof_O 	O 	0.8906	0.41894	0.8795	-0.337
Mof_C 	C 	0.9135	0.3282	0.8341	0.084
Mof_H 	H 	0.8791	0.3027	0.8273	0.006
Mof_H 	H 	0.9183	0.338	0.7531	0.008
Mof_H 	H 	0.0322	0.3304	0.8839	-0.018
Mof_C 	C 	0.9661	0.435	0.9743	0.268
Mof_H 	H 	0.0127	0.4208	0.0427	-0.077
Mof_C 	C 	0.911	0.4936	0.8854	0.108
Mof_H 	H 	0.8314	0.4798	0.8244	-0.005
Mof_H 	H 	0.8424	0.513	0.9167	-0.121
Mof_H 	H 	0.0096	0.5039	0.8482	0.238
Mof_N 	N 	0.9836	0.4702	0.9833	-0.141
Mof_C 	C 	0.0714	0.4859	0.095	0.029
Mof_H 	H 	0.0983	0.467	0.1565	-0.008
Mof_H 	H 	0.1837	0.4975	0.0811	0.174
Mof_H 	H 	0.9919	0.5039	0.1234	-0.332
Mof_Mn	Mn	0.5	0	-0	0.623
Mof_Mn	Mn	1.84711e-17	0.5	0.5	0.628
_end
