data_functionalizedCrystal
_audit_creation_method	'EQeq! by Chris Wilmer'
_symmetry_space_group_name_H-M	'P1'
_symmetry_Int_Tables_number	1
_symmetry_cell_setting	triclinic
loop_
_symmetry_equiv_pos_as_xyz
  x,y,z
_cell_length_a	18.623
_cell_length_b	18.623
_cell_length_c	6.8973
_cell_angle_alpha	90
_cell_angle_beta	90
_cell_angle_gamma	120
loop_
_atom_site_label
_atom_site_type_symbol
_atom_site_fract_x
_atom_site_fract_y
_atom_site_fract_z
_atom_site_charge
Mof_O 	O 	0.4426	0.4113	0.2482	-0.402
Mof_O 	O 	0.5191	0.628	0.0188	-0.403
Mof_C 	C 	0.4494	0.3586	0.1476	0.369
Mof_C 	C 	0.4218	0.2757	0.2368	-0.119
Mof_C 	C 	0.3761	0.2523	0.407	0.049
Mof_H 	H 	0.361	0.2898	0.4718	0.05
Mof_O 	O 	0.2827	0.0813	0.7412	-0.234
Mof_C 	C 	0.2356	0.0485	0.914	-0.078
Mof_H 	H 	0.2302	0.9931	0.9432	0.049
Mof_H 	H 	0.2626	0.0814	0.0263	0.06
Mof_H 	H 	0.1814	0.0392	0.9056	0.055
Mof_O 	O 	0.5887	0.0313	0.2482	-0.403
Mof_O 	O 	0.372	0.8911	0.0188	-0.403
Mof_C 	C 	0.6414	0.0908	0.1476	0.368
Mof_C 	C 	0.7243	0.1461	0.2368	-0.119
Mof_C 	C 	0.7477	0.1238	0.407	0.05
Mof_H 	H 	0.7102	0.0712	0.4718	0.05
Mof_O 	O 	0.9187	0.2014	0.7412	-0.235
Mof_C 	C 	0.9515	0.1871	0.914	-0.071
Mof_H 	H 	0.0069	0.2371	0.9432	0.048
Mof_H 	H 	0.9186	0.1812	0.0263	0.057
Mof_H 	H 	0.9608	0.1422	0.9056	0.054
Mof_O 	O 	0.9687	0.5574	0.2482	-0.403
Mof_O 	O 	0.1089	0.4809	0.0188	-0.403
Mof_C 	C 	0.9092	0.5506	0.1476	0.368
Mof_C 	C 	0.8539	0.5782	0.2368	-0.119
Mof_C 	C 	0.8762	0.6239	0.407	0.049
Mof_H 	H 	0.9288	0.639	0.4718	0.05
Mof_O 	O 	0.7986	0.7173	0.7412	-0.232
Mof_C 	C 	0.8129	0.7644	0.914	-0.087
Mof_H 	H 	0.7629	0.7698	0.9432	0.052
Mof_H 	H 	0.8188	0.7374	0.0263	0.063
Mof_H 	H 	0.8578	0.8186	0.9056	0.058
Mof_O 	O 	0.4113	0.4426	0.7518	-0.403
Mof_O 	O 	0.628	0.5191	0.9812	-0.404
Mof_C 	C 	0.3586	0.4494	0.8524	0.369
Mof_C 	C 	0.2757	0.4218	0.7632	-0.119
Mof_C 	C 	0.2523	0.3761	0.593	0.049
Mof_H 	H 	0.2898	0.361	0.5282	0.05
Mof_O 	O 	0.0813	0.2827	0.2588	-0.234
Mof_C 	C 	0.0485	0.2356	0.086	-0.078
Mof_H 	H 	0.9931	0.2302	0.0568	0.049
Mof_H 	H 	0.0814	0.2626	0.9737	0.06
Mof_H 	H 	0.0392	0.1814	0.0944	0.055
Mof_O 	O 	0.0313	0.5887	0.7518	-0.403
Mof_O 	O 	0.8911	0.372	0.9812	-0.403
Mof_C 	C 	0.0908	0.6414	0.8524	0.368
Mof_C 	C 	0.1461	0.7243	0.7632	-0.119
Mof_C 	C 	0.1238	0.7477	0.593	0.05
Mof_H 	H 	0.0712	0.7102	0.5282	0.05
Mof_O 	O 	0.2014	0.9187	0.2588	-0.235
Mof_C 	C 	0.1871	0.9515	0.086	-0.071
Mof_H 	H 	0.2371	0.0069	0.0568	0.048
Mof_H 	H 	0.1812	0.9186	0.9737	0.057
Mof_H 	H 	0.1422	0.9608	0.0944	0.054
Mof_O 	O 	0.5574	0.9687	0.7518	-0.403
Mof_O 	O 	0.4809	0.1089	0.9812	-0.403
Mof_C 	C 	0.5506	0.9092	0.8524	0.368
Mof_C 	C 	0.5782	0.8539	0.7632	-0.119
Mof_C 	C 	0.6239	0.8762	0.593	0.049
Mof_H 	H 	0.639	0.9288	0.5282	0.05
Mof_O 	O 	0.7173	0.7986	0.2588	-0.232
Mof_C 	C 	0.7644	0.8129	0.086	-0.087
Mof_H 	H 	0.7698	0.7629	0.0568	0.052
Mof_H 	H 	0.7374	0.8188	0.9737	0.063
Mof_H 	H 	0.8186	0.8578	0.0944	0.058
Mof_O 	O 	0.5574	0.5887	0.7518	-0.403
Mof_O 	O 	0.4809	0.372	0.9812	-0.404
Mof_C 	C 	0.5506	0.6414	0.8524	0.369
Mof_C 	C 	0.5782	0.7243	0.7632	-0.119
Mof_C 	C 	0.6239	0.7477	0.593	0.049
Mof_H 	H 	0.639	0.7102	0.5282	0.05
Mof_O 	O 	0.7173	0.9187	0.2588	-0.234
Mof_C 	C 	0.7644	0.9515	0.086	-0.078
Mof_H 	H 	0.7698	0.0069	0.0568	0.049
Mof_H 	H 	0.7374	0.9186	0.9737	0.06
Mof_H 	H 	0.8186	0.9608	0.0944	0.055
Mof_O 	O 	0.4113	0.9687	0.7518	-0.403
Mof_O 	O 	0.628	0.1089	0.9812	-0.403
Mof_C 	C 	0.3586	0.9092	0.8524	0.368
Mof_C 	C 	0.2757	0.8539	0.7632	-0.119
Mof_C 	C 	0.2523	0.8762	0.593	0.05
Mof_H 	H 	0.2898	0.9288	0.5282	0.05
Mof_O 	O 	0.0813	0.7986	0.2588	-0.235
Mof_C 	C 	0.0485	0.8129	0.086	-0.071
Mof_H 	H 	0.9931	0.7629	0.0568	0.048
Mof_H 	H 	0.0814	0.8188	0.9737	0.057
Mof_H 	H 	0.0392	0.8578	0.0944	0.054
Mof_O 	O 	0.0313	0.4426	0.7518	-0.403
Mof_O 	O 	0.8911	0.5191	0.9812	-0.403
Mof_C 	C 	0.0908	0.4494	0.8524	0.368
Mof_C 	C 	0.1461	0.4218	0.7632	-0.119
Mof_C 	C 	0.1238	0.3761	0.593	0.049
Mof_H 	H 	0.0712	0.361	0.5282	0.05
Mof_O 	O 	0.2014	0.2827	0.2588	-0.232
Mof_C 	C 	0.1871	0.2356	0.086	-0.087
Mof_H 	H 	0.2371	0.2302	0.0568	0.052
Mof_H 	H 	0.1812	0.2626	0.9737	0.063
Mof_H 	H 	0.1422	0.1814	0.0944	0.058
Mof_O 	O 	0.5887	0.5574	0.2482	-0.403
Mof_O 	O 	0.372	0.4809	0.0188	-0.404
Mof_C 	C 	0.6414	0.5506	0.1476	0.369
Mof_C 	C 	0.7243	0.5782	0.2368	-0.119
Mof_C 	C 	0.7477	0.6239	0.407	0.049
Mof_H 	H 	0.7102	0.639	0.4718	0.05
Mof_O 	O 	0.9187	0.7173	0.7412	-0.234
Mof_C 	C 	0.9515	0.7644	0.914	-0.078
Mof_H 	H 	0.0069	0.7698	0.9432	0.049
Mof_H 	H 	0.9186	0.7374	0.0263	0.06
Mof_H 	H 	0.9608	0.8186	0.9056	0.055
Mof_O 	O 	0.9687	0.4113	0.2482	-0.403
Mof_O 	O 	0.1089	0.628	0.0188	-0.403
Mof_C 	C 	0.9092	0.3586	0.1476	0.368
Mof_C 	C 	0.8539	0.2757	0.2368	-0.119
Mof_C 	C 	0.8762	0.2523	0.407	0.05
Mof_H 	H 	0.9288	0.2898	0.4718	0.05
Mof_O 	O 	0.7986	0.0813	0.7412	-0.235
Mof_C 	C 	0.8129	0.0485	0.914	-0.071
Mof_H 	H 	0.7629	0.9931	0.9432	0.048
Mof_H 	H 	0.8188	0.0814	0.0263	0.057
Mof_H 	H 	0.8578	0.0392	0.9056	0.054
Mof_O 	O 	0.4426	0.0313	0.2482	-0.403
Mof_O 	O 	0.5191	0.8911	0.0188	-0.403
Mof_C 	C 	0.4494	0.0908	0.1476	0.368
Mof_C 	C 	0.4218	0.1461	0.2368	-0.119
Mof_C 	C 	0.3761	0.1238	0.407	0.049
Mof_H 	H 	0.361	0.0712	0.4718	0.05
Mof_O 	O 	0.2827	0.2014	0.7412	-0.232
Mof_C 	C 	0.2356	0.1871	0.914	-0.087
Mof_H 	H 	0.2302	0.2371	0.9432	0.052
Mof_H 	H 	0.2626	0.1812	0.0263	0.063
Mof_H 	H 	0.1814	0.1422	0.9056	0.058
Mof_Cu	Cu	0.47677	0.52323	0.1554	0.91
Mof_Cu	Cu	0.47677	0.95354	0.1554	0.91
Mof_Cu	Cu	0.04646	0.52323	0.1554	0.91
Mof_Cu	Cu	0.52323	0.47677	0.8446	0.91
Mof_Cu	Cu	0.95354	0.47677	0.8446	0.91
Mof_Cu	Cu	0.52323	0.04646	0.8446	0.91
Mof_C 	C 	0.4429	0.22145	0.1512	0.06
Mof_C 	C 	0.3523	0.17615	0.4872	-0.095
Mof_H 	H 	0.4735	0.23675	0.0294	0.045
Mof_C 	C 	0.3029	0.15145	0.6704	0.289
Mof_C 	C 	0.77855	0.22145	0.1512	0.06
Mof_C 	C 	0.82385	0.17615	0.4872	-0.096
Mof_H 	H 	0.76325	0.23675	0.0294	0.044
Mof_C 	C 	0.84855	0.15145	0.6704	0.291
Mof_C 	C 	0.77855	0.5571	0.1512	0.06
Mof_C 	C 	0.82385	0.6477	0.4872	-0.095
Mof_H 	H 	0.76325	0.5265	0.0294	0.045
Mof_C 	C 	0.84855	0.6971	0.6704	0.289
Mof_C 	C 	0.22145	0.4429	0.8488	0.06
Mof_C 	C 	0.17615	0.3523	0.5128	-0.095
Mof_H 	H 	0.23675	0.4735	0.9706	0.045
Mof_C 	C 	0.15145	0.3029	0.3296	0.289
Mof_C 	C 	0.22145	0.77855	0.8488	0.06
Mof_C 	C 	0.17615	0.82385	0.5128	-0.096
Mof_H 	H 	0.23675	0.76325	0.9706	0.044
Mof_C 	C 	0.15145	0.84855	0.3296	0.291
Mof_C 	C 	0.5571	0.77855	0.8488	0.06
Mof_C 	C 	0.6477	0.82385	0.5128	-0.095
Mof_H 	H 	0.5265	0.76325	0.9706	0.045
Mof_C 	C 	0.6971	0.84855	0.3296	0.289
_end
