data_functionalizedCrystal
_audit_creation_method	'EQeq! by Chris Wilmer'
_symmetry_space_group_name_H-M	'P1'
_symmetry_Int_Tables_number	1
_symmetry_cell_setting	triclinic
loop_
_symmetry_equiv_pos_as_xyz
  x,y,z
_cell_length_a	7.493
_cell_length_b	13.0528
_cell_length_c	14.2584
_cell_angle_alpha	90
_cell_angle_beta	92.055
_cell_angle_gamma	90
loop_
_atom_site_label
_atom_site_type_symbol
_atom_site_fract_x
_atom_site_fract_y
_atom_site_fract_z
_atom_site_charge
Mof_Fe	Fe	0.5	0.5	-0	0.624
Mof_Fe	Fe	-0	0	-0	0.484
Mof_Fe	Fe	3.69528e-33	-4.52835e-33	0.5	0.415
Mof_Fe	Fe	0.5	0.5	0.5	0.524
Mof_Ag	Ag	0.72949	0.24462	0.75932	0.356
Mof_Ag	Ag	0.96395	0.44483	0.78324	0.492
Mof_Ag	Ag	0.77051	0.74462	0.24068	0.363
Mof_Ag	Ag	0.53605	0.94483	0.21676	0.46
Mof_Ag	Ag	0.27051	0.75538	0.24068	0.32
Mof_Ag	Ag	0.03605	0.55517	0.21676	0.333
Mof_Ag	Ag	0.22949	0.25538	0.75932	0.317
Mof_Ag	Ag	0.46395	0.05517	0.78324	0.39
Mof_H 	H 	0.387	0.288	0.005	-0.06
Mof_H 	H 	0.382	0.153	0.113	0.087
Mof_H 	H 	0.478	0.196	0.265	-0.065
Mof_H 	H 	0.541	0.479	0.209	-0.016
Mof_H 	H 	0.113	0.788	0.995	0.01
Mof_H 	H 	0.118	0.653	0.887	0.091
Mof_H 	H 	0.022	0.696	0.735	-0.029
Mof_H 	H 	0.959	0.979	0.791	0.015
Mof_H 	H 	0.613	0.712	0.995	0.002
Mof_H 	H 	0.618	0.847	0.887	0.127
Mof_H 	H 	0.522	0.804	0.735	-0.041
Mof_H 	H 	0.459	0.521	0.791	-0.019
Mof_H 	H 	0.887	0.212	0.005	-0.057
Mof_H 	H 	0.882	0.347	0.113	0.119
Mof_H 	H 	0.978	0.304	0.265	-0.077
Mof_H 	H 	0.041	0.021	0.209	-0.04
Mof_C 	C 	0.6583	0.3427	0.8651	-0.109
Mof_C 	C 	0.1486	0.4467	0.8938	-0.125
Mof_C 	C 	0.4239	0.2942	0.0695	0.123
Mof_C 	C 	0.4215	0.2148	0.1332	-0.245
Mof_C 	C 	0.4708	0.2369	0.2253	0.163
Mof_C 	C 	0.5146	0.4041	0.18737	0.096
Mof_C 	C 	0.8049	0.1508	0.6515	-0.127
Mof_C 	C 	0.8081	0.4802	0.6654	-0.114
Mof_C 	C 	0.8417	0.8427	0.1349	-0.132
Mof_C 	C 	0.3514	0.9467	0.1062	-0.117
Mof_C 	C 	0.0761	0.7942	0.9305	0.104
Mof_C 	C 	0.0785	0.7148	0.8668	-0.189
Mof_C 	C 	0.0292	0.7369	0.7747	0.09
Mof_C 	C 	0.9854	0.9041	0.81263	0.134
Mof_C 	C 	0.6951	0.6508	0.3485	-0.115
Mof_C 	C 	0.6919	0.9802	0.3346	-0.088
Mof_C 	C 	0.3417	0.6573	0.1349	-0.137
Mof_C 	C 	0.8514	0.5533	0.1062	-0.087
Mof_C 	C 	0.5761	0.7058	0.9305	0.137
Mof_C 	C 	0.5785	0.7852	0.8668	-0.227
Mof_C 	C 	0.5292	0.7631	0.7747	0.164
Mof_C 	C 	0.4854	0.5959	0.81263	0.1
Mof_C 	C 	0.1951	0.8492	0.3485	-0.121
Mof_C 	C 	0.1919	0.5198	0.3346	-0.102
Mof_C 	C 	0.1583	0.1573	0.8651	-0.122
Mof_C 	C 	0.6486	0.0533	0.8938	-0.106
Mof_C 	C 	0.9239	0.2058	0.0695	0.149
Mof_C 	C 	0.9215	0.2852	0.1332	-0.277
Mof_C 	C 	0.9708	0.2631	0.2253	0.241
Mof_C 	C 	0.0146	0.0959	0.18737	0.051
Mof_C 	C 	0.3049	0.3492	0.6515	-0.132
Mof_C 	C 	0.3081	0.0198	0.6654	-0.131
Mof_N 	N 	0.609	0.40186	0.91839	-0.144
Mof_N 	N 	0.2722	0.46404	0.94169	-0.136
Mof_N 	N 	0.4732	0.38976	0.09519	-0.222
Mof_N 	N 	0.5162	0.3314	0.25283	-0.169
Mof_N 	N 	0.8536	0.0978	0.59396	-0.146
Mof_N 	N 	0.7128	0.49944	0.6038	-0.15
Mof_N 	N 	0.891	0.90186	0.08161	-0.14
Mof_N 	N 	0.2278	0.96404	0.05831	-0.151
Mof_N 	N 	0.0268	0.88976	0.90481	-0.184
Mof_N 	N 	0.9838	0.8314	0.74717	-0.131
Mof_N 	N 	0.6464	0.5978	0.40604	-0.153
Mof_N 	N 	0.7872	0.99944	0.3962	-0.114
Mof_N 	N 	0.391	0.59814	0.08161	-0.187
Mof_N 	N 	0.7278	0.53596	0.05831	-0.192
Mof_N 	N 	0.5268	0.61024	0.90481	-0.196
Mof_N 	N 	0.4838	0.6686	0.74717	-0.165
Mof_N 	N 	0.1464	0.9022	0.40604	-0.135
Mof_N 	N 	0.2872	0.50056	0.3962	-0.161
Mof_N 	N 	0.109	0.09814	0.91839	-0.148
Mof_N 	N 	0.7722	0.03596	0.94169	-0.133
Mof_N 	N 	0.9732	0.11024	0.09519	-0.193
Mof_N 	N 	0.0162	0.1686	0.25283	-0.2
Mof_N 	N 	0.3536	0.4022	0.59396	-0.16
Mof_N 	N 	0.2128	0.00056	0.6038	-0.164
_end
