data_functionalizedCrystal
_audit_creation_method	'EQeq! by Chris Wilmer'
_symmetry_space_group_name_H-M	'P1'
_symmetry_Int_Tables_number	1
_symmetry_cell_setting	triclinic
loop_
_symmetry_equiv_pos_as_xyz
  x,y,z
_cell_length_a	26.37
_cell_length_b	26.37
_cell_length_c	26.37
_cell_angle_alpha	90
_cell_angle_beta	90
_cell_angle_gamma	90
loop_
_atom_site_label
_atom_site_type_symbol
_atom_site_fract_x
_atom_site_fract_y
_atom_site_fract_z
_atom_site_charge
Mof_O 	O 	0.81682	0.24368	0.55219	-0.393
Mof_O 	O 	0.81682	0.74368	0.05219	-0.407
Mof_O 	O 	0.31682	0.24368	0.05219	-0.416
Mof_O 	O 	0.31682	0.74368	0.55219	-0.395
Mof_O 	O 	0.18318	0.75632	0.55219	-0.401
Mof_O 	O 	0.18318	0.25632	0.05219	-0.421
Mof_O 	O 	0.68318	0.75632	0.05219	-0.413
Mof_O 	O 	0.68318	0.25632	0.55219	-0.399
Mof_O 	O 	0.18318	0.24368	0.44781	-0.404
Mof_O 	O 	0.18318	0.74368	0.94781	-0.367
Mof_O 	O 	0.68318	0.24368	0.94781	-0.366
Mof_O 	O 	0.68318	0.74368	0.44781	-0.394
Mof_O 	O 	0.81682	0.75632	0.44781	-0.39
Mof_O 	O 	0.81682	0.25632	0.94781	-0.361
Mof_O 	O 	0.31682	0.75632	0.94781	-0.363
Mof_O 	O 	0.31682	0.25632	0.44781	-0.399
Mof_O 	O 	0.55219	0.81682	0.24368	-0.392
Mof_O 	O 	0.55219	0.31682	0.74368	-0.394
Mof_O 	O 	0.05219	0.81682	0.74368	-0.406
Mof_O 	O 	0.05219	0.31682	0.24368	-0.415
Mof_O 	O 	0.55219	0.18318	0.75632	-0.4
Mof_O 	O 	0.55219	0.68318	0.25632	-0.398
Mof_O 	O 	0.05219	0.18318	0.25632	-0.42
Mof_O 	O 	0.05219	0.68318	0.75632	-0.412
Mof_O 	O 	0.44781	0.18318	0.24368	-0.403
Mof_O 	O 	0.44781	0.68318	0.74368	-0.394
Mof_O 	O 	0.94781	0.18318	0.74368	-0.367
Mof_O 	O 	0.94781	0.68318	0.24368	-0.366
Mof_O 	O 	0.44781	0.81682	0.75632	-0.39
Mof_O 	O 	0.44781	0.31682	0.25632	-0.399
Mof_O 	O 	0.94781	0.81682	0.25632	-0.361
Mof_O 	O 	0.94781	0.31682	0.75632	-0.363
Mof_O 	O 	0.24368	0.55219	0.81682	-0.392
Mof_O 	O 	0.24368	0.05219	0.31682	-0.415
Mof_O 	O 	0.74368	0.55219	0.31682	-0.394
Mof_O 	O 	0.74368	0.05219	0.81682	-0.406
Mof_O 	O 	0.75632	0.55219	0.18318	-0.4
Mof_O 	O 	0.75632	0.05219	0.68318	-0.412
Mof_O 	O 	0.25632	0.55219	0.68318	-0.398
Mof_O 	O 	0.25632	0.05219	0.18318	-0.42
Mof_O 	O 	0.24368	0.44781	0.18318	-0.403
Mof_O 	O 	0.24368	0.94781	0.68318	-0.366
Mof_O 	O 	0.74368	0.44781	0.68318	-0.394
Mof_O 	O 	0.74368	0.94781	0.18318	-0.367
Mof_O 	O 	0.75632	0.44781	0.81682	-0.39
Mof_O 	O 	0.75632	0.94781	0.31682	-0.363
Mof_O 	O 	0.25632	0.44781	0.31682	-0.399
Mof_O 	O 	0.25632	0.94781	0.81682	-0.361
Mof_O 	O 	0.24368	0.81682	0.44781	-0.392
Mof_O 	O 	0.24368	0.31682	0.94781	-0.366
Mof_O 	O 	0.74368	0.81682	0.94781	-0.357
Mof_O 	O 	0.74368	0.31682	0.44781	-0.394
Mof_O 	O 	0.75632	0.18318	0.44781	-0.4
Mof_O 	O 	0.75632	0.68318	0.94781	-0.363
Mof_O 	O 	0.25632	0.18318	0.94781	-0.372
Mof_O 	O 	0.25632	0.68318	0.44781	-0.398
Mof_O 	O 	0.24368	0.18318	0.55219	-0.403
Mof_O 	O 	0.24368	0.68318	0.05219	-0.414
Mof_O 	O 	0.74368	0.18318	0.05219	-0.416
Mof_O 	O 	0.74368	0.68318	0.55219	-0.394
Mof_O 	O 	0.75632	0.81682	0.55219	-0.389
Mof_O 	O 	0.75632	0.31682	0.05219	-0.412
Mof_O 	O 	0.25632	0.81682	0.05219	-0.41
Mof_O 	O 	0.25632	0.31682	0.55219	-0.399
Mof_O 	O 	0.81682	0.55219	0.75632	-0.389
Mof_O 	O 	0.81682	0.05219	0.25632	-0.41
Mof_O 	O 	0.31682	0.55219	0.25632	-0.399
Mof_O 	O 	0.31682	0.05219	0.75632	-0.412
Mof_O 	O 	0.18318	0.55219	0.24368	-0.403
Mof_O 	O 	0.18318	0.05219	0.74368	-0.416
Mof_O 	O 	0.68318	0.55219	0.74368	-0.394
Mof_O 	O 	0.68318	0.05219	0.24368	-0.414
Mof_O 	O 	0.18318	0.44781	0.75632	-0.4
Mof_O 	O 	0.18318	0.94781	0.25632	-0.372
Mof_O 	O 	0.68318	0.44781	0.25632	-0.398
Mof_O 	O 	0.68318	0.94781	0.75632	-0.363
Mof_O 	O 	0.81682	0.44781	0.24368	-0.392
Mof_O 	O 	0.81682	0.94781	0.74368	-0.357
Mof_O 	O 	0.31682	0.44781	0.74368	-0.394
Mof_O 	O 	0.31682	0.94781	0.24368	-0.366
Mof_O 	O 	0.55219	0.24368	0.18318	-0.403
Mof_O 	O 	0.55219	0.74368	0.68318	-0.394
Mof_O 	O 	0.05219	0.24368	0.68318	-0.414
Mof_O 	O 	0.05219	0.74368	0.18318	-0.416
Mof_O 	O 	0.55219	0.75632	0.81682	-0.389
Mof_O 	O 	0.55219	0.25632	0.31682	-0.399
Mof_O 	O 	0.05219	0.75632	0.31682	-0.412
Mof_O 	O 	0.05219	0.25632	0.81682	-0.41
Mof_O 	O 	0.44781	0.24368	0.81682	-0.392
Mof_O 	O 	0.44781	0.74368	0.31682	-0.394
Mof_O 	O 	0.94781	0.24368	0.31682	-0.366
Mof_O 	O 	0.94781	0.74368	0.81682	-0.357
Mof_O 	O 	0.44781	0.75632	0.18318	-0.4
Mof_O 	O 	0.44781	0.25632	0.68318	-0.398
Mof_O 	O 	0.94781	0.75632	0.68318	-0.363
Mof_O 	O 	0.94781	0.25632	0.18318	-0.372
Mof_O 	O 	0.18318	0.75632	0.44781	-0.4
Mof_O 	O 	0.18318	0.25632	0.94781	-0.372
Mof_O 	O 	0.68318	0.75632	0.94781	-0.363
Mof_O 	O 	0.68318	0.25632	0.44781	-0.398
Mof_O 	O 	0.81682	0.24368	0.44781	-0.392
Mof_O 	O 	0.81682	0.74368	0.94781	-0.357
Mof_O 	O 	0.31682	0.24368	0.94781	-0.366
Mof_O 	O 	0.31682	0.74368	0.44781	-0.394
Mof_O 	O 	0.81682	0.75632	0.55219	-0.389
Mof_O 	O 	0.81682	0.25632	0.05219	-0.41
Mof_O 	O 	0.31682	0.75632	0.05219	-0.412
Mof_O 	O 	0.31682	0.25632	0.55219	-0.399
Mof_O 	O 	0.18318	0.24368	0.55219	-0.403
Mof_O 	O 	0.18318	0.74368	0.05219	-0.416
Mof_O 	O 	0.68318	0.24368	0.05219	-0.414
Mof_O 	O 	0.68318	0.74368	0.55219	-0.394
Mof_O 	O 	0.44781	0.18318	0.75632	-0.4
Mof_O 	O 	0.44781	0.68318	0.25632	-0.398
Mof_O 	O 	0.94781	0.18318	0.25632	-0.372
Mof_O 	O 	0.94781	0.68318	0.75632	-0.363
Mof_O 	O 	0.44781	0.81682	0.24368	-0.392
Mof_O 	O 	0.44781	0.31682	0.74368	-0.394
Mof_O 	O 	0.94781	0.81682	0.74368	-0.357
Mof_O 	O 	0.94781	0.31682	0.24368	-0.366
Mof_O 	O 	0.55219	0.81682	0.75632	-0.389
Mof_O 	O 	0.55219	0.31682	0.25632	-0.399
Mof_O 	O 	0.05219	0.81682	0.25632	-0.41
Mof_O 	O 	0.05219	0.31682	0.75632	-0.412
Mof_O 	O 	0.55219	0.18318	0.24368	-0.403
Mof_O 	O 	0.55219	0.68318	0.74368	-0.394
Mof_O 	O 	0.05219	0.18318	0.74368	-0.416
Mof_O 	O 	0.05219	0.68318	0.24368	-0.414
Mof_O 	O 	0.75632	0.44781	0.18318	-0.4
Mof_O 	O 	0.75632	0.94781	0.68318	-0.363
Mof_O 	O 	0.25632	0.44781	0.68318	-0.398
Mof_O 	O 	0.25632	0.94781	0.18318	-0.372
Mof_O 	O 	0.24368	0.44781	0.81682	-0.392
Mof_O 	O 	0.24368	0.94781	0.31682	-0.366
Mof_O 	O 	0.74368	0.44781	0.31682	-0.394
Mof_O 	O 	0.74368	0.94781	0.81682	-0.357
Mof_O 	O 	0.75632	0.55219	0.81682	-0.389
Mof_O 	O 	0.75632	0.05219	0.31682	-0.412
Mof_O 	O 	0.25632	0.55219	0.31682	-0.399
Mof_O 	O 	0.25632	0.05219	0.81682	-0.41
Mof_O 	O 	0.24368	0.55219	0.18318	-0.403
Mof_O 	O 	0.24368	0.05219	0.68318	-0.414
Mof_O 	O 	0.74368	0.55219	0.68318	-0.394
Mof_O 	O 	0.74368	0.05219	0.18318	-0.416
Mof_O 	O 	0.75632	0.18318	0.55219	-0.4
Mof_O 	O 	0.75632	0.68318	0.05219	-0.412
Mof_O 	O 	0.25632	0.18318	0.05219	-0.42
Mof_O 	O 	0.25632	0.68318	0.55219	-0.398
Mof_O 	O 	0.24368	0.81682	0.55219	-0.392
Mof_O 	O 	0.24368	0.31682	0.05219	-0.415
Mof_O 	O 	0.74368	0.81682	0.05219	-0.406
Mof_O 	O 	0.74368	0.31682	0.55219	-0.394
Mof_O 	O 	0.75632	0.81682	0.44781	-0.39
Mof_O 	O 	0.75632	0.31682	0.94781	-0.363
Mof_O 	O 	0.25632	0.81682	0.94781	-0.361
Mof_O 	O 	0.25632	0.31682	0.44781	-0.399
Mof_O 	O 	0.24368	0.18318	0.44781	-0.403
Mof_O 	O 	0.24368	0.68318	0.94781	-0.366
Mof_O 	O 	0.74368	0.18318	0.94781	-0.367
Mof_O 	O 	0.74368	0.68318	0.44781	-0.394
Mof_O 	O 	0.18318	0.44781	0.24368	-0.403
Mof_O 	O 	0.18318	0.94781	0.74368	-0.367
Mof_O 	O 	0.68318	0.44781	0.74368	-0.394
Mof_O 	O 	0.68318	0.94781	0.24368	-0.366
Mof_O 	O 	0.81682	0.44781	0.75632	-0.39
Mof_O 	O 	0.81682	0.94781	0.25632	-0.361
Mof_O 	O 	0.31682	0.44781	0.25632	-0.399
Mof_O 	O 	0.31682	0.94781	0.75632	-0.363
Mof_O 	O 	0.81682	0.55219	0.24368	-0.392
Mof_O 	O 	0.81682	0.05219	0.74368	-0.406
Mof_O 	O 	0.31682	0.55219	0.74368	-0.394
Mof_O 	O 	0.31682	0.05219	0.24368	-0.415
Mof_O 	O 	0.18318	0.55219	0.75632	-0.4
Mof_O 	O 	0.18318	0.05219	0.25632	-0.42
Mof_O 	O 	0.68318	0.55219	0.25632	-0.398
Mof_O 	O 	0.68318	0.05219	0.75632	-0.412
Mof_O 	O 	0.44781	0.75632	0.81682	-0.39
Mof_O 	O 	0.44781	0.25632	0.31682	-0.399
Mof_O 	O 	0.94781	0.75632	0.31682	-0.363
Mof_O 	O 	0.94781	0.25632	0.81682	-0.361
Mof_O 	O 	0.44781	0.24368	0.18318	-0.403
Mof_O 	O 	0.44781	0.74368	0.68318	-0.394
Mof_O 	O 	0.94781	0.24368	0.68318	-0.366
Mof_O 	O 	0.94781	0.74368	0.18318	-0.367
Mof_O 	O 	0.55219	0.75632	0.18318	-0.4
Mof_O 	O 	0.55219	0.25632	0.68318	-0.398
Mof_O 	O 	0.05219	0.75632	0.68318	-0.412
Mof_O 	O 	0.05219	0.25632	0.18318	-0.42
Mof_O 	O 	0.55219	0.24368	0.81682	-0.392
Mof_O 	O 	0.55219	0.74368	0.31682	-0.394
Mof_O 	O 	0.05219	0.24368	0.31682	-0.415
Mof_O 	O 	0.05219	0.74368	0.81682	-0.406
Mof_Cu	Cu	0.78505	0.28505	0.5	0.908
Mof_Cu	Cu	0.78505	0.78505	-0	0.881
Mof_Cu	Cu	0.21495	0.71495	0.5	0.905
Mof_Cu	Cu	0.21495	0.21495	-0	0.874
Mof_Cu	Cu	0.21495	0.28505	0.5	0.905
Mof_Cu	Cu	0.21495	0.78505	-0	0.878
Mof_Cu	Cu	0.78505	0.71495	0.5	0.908
Mof_Cu	Cu	0.78505	0.21495	-0	0.878
Mof_Cu	Cu	0.5	0.78505	0.28505	0.908
Mof_Cu	Cu	1.39566e-32	0.78505	0.78505	0.881
Mof_Cu	Cu	0.5	0.21495	0.71495	0.905
Mof_Cu	Cu	6.31249e-33	0.21495	0.21495	0.874
Mof_Cu	Cu	0.5	0.21495	0.28505	0.905
Mof_Cu	Cu	1.94631e-32	0.21495	0.78505	0.878
Mof_Cu	Cu	0.5	0.78505	0.71495	0.908
Mof_Cu	Cu	1.73256e-32	0.78505	0.21495	0.878
Mof_Cu	Cu	0.28505	0.5	0.78505	0.908
Mof_Cu	Cu	0.28505	0	0.28505	0.877
Mof_Cu	Cu	0.71495	0.5	0.21495	0.905
Mof_Cu	Cu	0.71495	5.50656e-33	0.71495	0.877
Mof_Cu	Cu	0.28505	0.5	0.21495	0.905
Mof_Cu	Cu	0.28505	5.50656e-33	0.71495	0.877
Mof_Cu	Cu	0.71495	0.5	0.78505	0.908
Mof_Cu	Cu	0.71495	0	0.28505	0.877
Mof_Cu	Cu	0.28505	0.78505	0.5	0.908
Mof_Cu	Cu	0.28505	0.28505	-0	0.877
Mof_Cu	Cu	0.71495	0.21495	0.5	0.905
Mof_Cu	Cu	0.71495	0.71495	-0	0.877
Mof_Cu	Cu	0.28505	0.21495	0.5	0.905
Mof_Cu	Cu	0.28505	0.71495	-0	0.877
Mof_Cu	Cu	0.71495	0.78505	0.5	0.908
Mof_Cu	Cu	0.71495	0.28505	-0	0.877
Mof_Cu	Cu	0.78505	0.5	0.71495	0.908
Mof_Cu	Cu	0.78505	2.75328e-33	0.21495	0.878
Mof_Cu	Cu	0.21495	0.5	0.28505	0.905
Mof_Cu	Cu	0.21495	5.50656e-33	0.78505	0.878
Mof_Cu	Cu	0.21495	0.5	0.71495	0.905
Mof_Cu	Cu	0.21495	2.75328e-33	0.21495	0.874
Mof_Cu	Cu	0.78505	0.5	0.28505	0.908
Mof_Cu	Cu	0.78505	5.50656e-33	0.78505	0.881
Mof_Cu	Cu	0.5	0.28505	0.21495	0.905
Mof_Cu	Cu	8.18719e-33	0.28505	0.71495	0.877
Mof_Cu	Cu	0.5	0.71495	0.78505	0.908
Mof_Cu	Cu	9.3286e-33	0.71495	0.28505	0.877
Mof_Cu	Cu	0.5	0.28505	0.78505	0.908
Mof_Cu	Cu	-1.68451e-33	0.28505	0.28505	0.877
Mof_Cu	Cu	0.5	0.71495	0.21495	0.905
Mof_Cu	Cu	1.36937e-32	0.71495	0.71495	0.877
Mof_C 	C 	0.7966	0.2034	0.57	0.346
Mof_C 	C 	0.8227	0.1773	0.6134	-0.109
Mof_C 	C 	0.7966	0.7034	0.07	0.346
Mof_C 	C 	0.8227	0.6773	0.1134	-0.113
Mof_C 	C 	0.2966	0.2034	0.07	0.349
Mof_C 	C 	0.3227	0.1773	0.1134	-0.128
Mof_C 	C 	0.2966	0.7034	0.57	0.346
Mof_C 	C 	0.3227	0.6773	0.6134	-0.11
Mof_C 	C 	0.2034	0.7966	0.57	0.346
Mof_C 	C 	0.1773	0.8227	0.6134	-0.109
Mof_C 	C 	0.2034	0.2966	0.07	0.349
Mof_C 	C 	0.1773	0.3227	0.1134	-0.128
Mof_C 	C 	0.7034	0.7966	0.07	0.346
Mof_C 	C 	0.6773	0.8227	0.1134	-0.113
Mof_C 	C 	0.7034	0.2966	0.57	0.346
Mof_C 	C 	0.6773	0.3227	0.6134	-0.11
Mof_C 	C 	0.2034	0.2034	0.43	0.349
Mof_C 	C 	0.1773	0.1773	0.3866	-0.123
Mof_C 	C 	0.2034	0.7034	0.93	0.34
Mof_C 	C 	0.1773	0.6773	0.8866	-0.103
Mof_C 	C 	0.7034	0.2034	0.93	0.34
Mof_C 	C 	0.6773	0.1773	0.8866	-0.103
Mof_C 	C 	0.7034	0.7034	0.43	0.345
Mof_C 	C 	0.6773	0.6773	0.3866	-0.109
Mof_C 	C 	0.7966	0.7966	0.43	0.344
Mof_C 	C 	0.8227	0.8227	0.3866	-0.097
Mof_C 	C 	0.7966	0.2966	0.93	0.34
Mof_C 	C 	0.8227	0.3227	0.8866	-0.092
Mof_C 	C 	0.2966	0.7966	0.93	0.34
Mof_C 	C 	0.3227	0.8227	0.8866	-0.092
Mof_C 	C 	0.2966	0.2966	0.43	0.348
Mof_C 	C 	0.3227	0.3227	0.3866	-0.114
Mof_C 	C 	0.57	0.7966	0.2034	0.346
Mof_C 	C 	0.6134	0.8227	0.1773	-0.109
Mof_C 	C 	0.57	0.2966	0.7034	0.346
Mof_C 	C 	0.6134	0.3227	0.6773	-0.11
Mof_C 	C 	0.07	0.7966	0.7034	0.346
Mof_C 	C 	0.1134	0.8227	0.6773	-0.113
Mof_C 	C 	0.07	0.2966	0.2034	0.349
Mof_C 	C 	0.1134	0.3227	0.1773	-0.128
Mof_C 	C 	0.57	0.2034	0.7966	0.346
Mof_C 	C 	0.6134	0.1773	0.8227	-0.109
Mof_C 	C 	0.57	0.7034	0.2966	0.346
Mof_C 	C 	0.6134	0.6773	0.3227	-0.11
Mof_C 	C 	0.07	0.2034	0.2966	0.349
Mof_C 	C 	0.1134	0.1773	0.3227	-0.128
Mof_C 	C 	0.07	0.7034	0.7966	0.346
Mof_C 	C 	0.1134	0.6773	0.8227	-0.113
Mof_C 	C 	0.43	0.2034	0.2034	0.349
Mof_C 	C 	0.3866	0.1773	0.1773	-0.123
Mof_C 	C 	0.43	0.7034	0.7034	0.345
Mof_C 	C 	0.3866	0.6773	0.6773	-0.109
Mof_C 	C 	0.93	0.2034	0.7034	0.34
Mof_C 	C 	0.8866	0.1773	0.6773	-0.103
Mof_C 	C 	0.93	0.7034	0.2034	0.34
Mof_C 	C 	0.8866	0.6773	0.1773	-0.103
Mof_C 	C 	0.43	0.7966	0.7966	0.344
Mof_C 	C 	0.3866	0.8227	0.8227	-0.097
Mof_C 	C 	0.43	0.2966	0.2966	0.348
Mof_C 	C 	0.3866	0.3227	0.3227	-0.114
Mof_C 	C 	0.93	0.7966	0.2966	0.34
Mof_C 	C 	0.8866	0.8227	0.3227	-0.092
Mof_C 	C 	0.93	0.2966	0.7966	0.34
Mof_C 	C 	0.8866	0.3227	0.8227	-0.092
Mof_C 	C 	0.2034	0.57	0.7966	0.346
Mof_C 	C 	0.1773	0.6134	0.8227	-0.109
Mof_C 	C 	0.2034	0.07	0.2966	0.349
Mof_C 	C 	0.1773	0.1134	0.3227	-0.128
Mof_C 	C 	0.7034	0.57	0.2966	0.346
Mof_C 	C 	0.6773	0.6134	0.3227	-0.11
Mof_C 	C 	0.7034	0.07	0.7966	0.346
Mof_C 	C 	0.6773	0.1134	0.8227	-0.113
Mof_C 	C 	0.7966	0.57	0.2034	0.346
Mof_C 	C 	0.8227	0.6134	0.1773	-0.109
Mof_C 	C 	0.7966	0.07	0.7034	0.346
Mof_C 	C 	0.8227	0.1134	0.6773	-0.113
Mof_C 	C 	0.2966	0.57	0.7034	0.346
Mof_C 	C 	0.3227	0.6134	0.6773	-0.11
Mof_C 	C 	0.2966	0.07	0.2034	0.349
Mof_C 	C 	0.3227	0.1134	0.1773	-0.128
Mof_C 	C 	0.2034	0.43	0.2034	0.349
Mof_C 	C 	0.1773	0.3866	0.1773	-0.123
Mof_C 	C 	0.2034	0.93	0.7034	0.34
Mof_C 	C 	0.1773	0.8866	0.6773	-0.103
Mof_C 	C 	0.7034	0.43	0.7034	0.345
Mof_C 	C 	0.6773	0.3866	0.6773	-0.109
Mof_C 	C 	0.7034	0.93	0.2034	0.34
Mof_C 	C 	0.6773	0.8866	0.1773	-0.103
Mof_C 	C 	0.7966	0.43	0.7966	0.344
Mof_C 	C 	0.8227	0.3866	0.8227	-0.097
Mof_C 	C 	0.7966	0.93	0.2966	0.34
Mof_C 	C 	0.8227	0.8866	0.3227	-0.092
Mof_C 	C 	0.2966	0.43	0.2966	0.348
Mof_C 	C 	0.3227	0.3866	0.3227	-0.114
Mof_C 	C 	0.2966	0.93	0.7966	0.34
Mof_C 	C 	0.3227	0.8866	0.8227	-0.092
Mof_C 	C 	0.2034	0.7966	0.43	0.346
Mof_C 	C 	0.1773	0.8227	0.3866	-0.11
Mof_C 	C 	0.2034	0.2966	0.93	0.342
Mof_C 	C 	0.1773	0.3227	0.8866	-0.105
Mof_C 	C 	0.7034	0.7966	0.93	0.338
Mof_C 	C 	0.6773	0.8227	0.8866	-0.089
Mof_C 	C 	0.7034	0.2966	0.43	0.347
Mof_C 	C 	0.6773	0.3227	0.3866	-0.111
Mof_C 	C 	0.7966	0.2034	0.43	0.346
Mof_C 	C 	0.8227	0.1773	0.3866	-0.11
Mof_C 	C 	0.7966	0.7034	0.93	0.338
Mof_C 	C 	0.8227	0.6773	0.8866	-0.089
Mof_C 	C 	0.2966	0.2034	0.93	0.342
Mof_C 	C 	0.3227	0.1773	0.8866	-0.105
Mof_C 	C 	0.2966	0.7034	0.43	0.347
Mof_C 	C 	0.3227	0.6773	0.3866	-0.111
Mof_C 	C 	0.2034	0.2034	0.57	0.348
Mof_C 	C 	0.1773	0.1773	0.6134	-0.122
Mof_C 	C 	0.2034	0.7034	0.07	0.348
Mof_C 	C 	0.1773	0.6773	0.1134	-0.126
Mof_C 	C 	0.7034	0.2034	0.07	0.348
Mof_C 	C 	0.6773	0.1773	0.1134	-0.126
Mof_C 	C 	0.7034	0.7034	0.57	0.345
Mof_C 	C 	0.6773	0.6773	0.6134	-0.108
Mof_C 	C 	0.7966	0.7966	0.57	0.344
Mof_C 	C 	0.8227	0.8227	0.6134	-0.096
Mof_C 	C 	0.7966	0.2966	0.07	0.347
Mof_C 	C 	0.8227	0.3227	0.1134	-0.115
Mof_C 	C 	0.2966	0.7966	0.07	0.347
Mof_C 	C 	0.3227	0.8227	0.1134	-0.115
Mof_C 	C 	0.2966	0.2966	0.57	0.348
Mof_C 	C 	0.3227	0.3227	0.6134	-0.113
Mof_C 	C 	0.7966	0.57	0.7966	0.344
Mof_C 	C 	0.8227	0.6134	0.8227	-0.096
Mof_C 	C 	0.7966	0.07	0.2966	0.347
Mof_C 	C 	0.8227	0.1134	0.3227	-0.115
Mof_C 	C 	0.2966	0.57	0.2966	0.348
Mof_C 	C 	0.3227	0.6134	0.3227	-0.113
Mof_C 	C 	0.2966	0.07	0.7966	0.347
Mof_C 	C 	0.3227	0.1134	0.8227	-0.115
Mof_C 	C 	0.2034	0.57	0.2034	0.348
Mof_C 	C 	0.1773	0.6134	0.1773	-0.122
Mof_C 	C 	0.2034	0.07	0.7034	0.348
Mof_C 	C 	0.1773	0.1134	0.6773	-0.126
Mof_C 	C 	0.7034	0.57	0.7034	0.345
Mof_C 	C 	0.6773	0.6134	0.6773	-0.108
Mof_C 	C 	0.7034	0.07	0.2034	0.348
Mof_C 	C 	0.6773	0.1134	0.1773	-0.126
Mof_C 	C 	0.2034	0.43	0.7966	0.346
Mof_C 	C 	0.1773	0.3866	0.8227	-0.11
Mof_C 	C 	0.2034	0.93	0.2966	0.342
Mof_C 	C 	0.1773	0.8866	0.3227	-0.105
Mof_C 	C 	0.7034	0.43	0.2966	0.347
Mof_C 	C 	0.6773	0.3866	0.3227	-0.111
Mof_C 	C 	0.7034	0.93	0.7966	0.338
Mof_C 	C 	0.6773	0.8866	0.8227	-0.089
Mof_C 	C 	0.7966	0.43	0.2034	0.346
Mof_C 	C 	0.8227	0.3866	0.1773	-0.11
Mof_C 	C 	0.7966	0.93	0.7034	0.338
Mof_C 	C 	0.8227	0.8866	0.6773	-0.089
Mof_C 	C 	0.2966	0.43	0.7034	0.347
Mof_C 	C 	0.3227	0.3866	0.6773	-0.111
Mof_C 	C 	0.2966	0.93	0.2034	0.342
Mof_C 	C 	0.3227	0.8866	0.1773	-0.105
Mof_C 	C 	0.57	0.2034	0.2034	0.348
Mof_C 	C 	0.6134	0.1773	0.1773	-0.122
Mof_C 	C 	0.57	0.7034	0.7034	0.345
Mof_C 	C 	0.6134	0.6773	0.6773	-0.108
Mof_C 	C 	0.07	0.2034	0.7034	0.348
Mof_C 	C 	0.1134	0.1773	0.6773	-0.126
Mof_C 	C 	0.07	0.7034	0.2034	0.348
Mof_C 	C 	0.1134	0.6773	0.1773	-0.126
Mof_C 	C 	0.57	0.7966	0.7966	0.344
Mof_C 	C 	0.6134	0.8227	0.8227	-0.096
Mof_C 	C 	0.57	0.2966	0.2966	0.348
Mof_C 	C 	0.6134	0.3227	0.3227	-0.113
Mof_C 	C 	0.07	0.7966	0.2966	0.347
Mof_C 	C 	0.1134	0.8227	0.3227	-0.115
Mof_C 	C 	0.07	0.2966	0.7966	0.347
Mof_C 	C 	0.1134	0.3227	0.8227	-0.115
Mof_C 	C 	0.43	0.2034	0.7966	0.346
Mof_C 	C 	0.3866	0.1773	0.8227	-0.11
Mof_C 	C 	0.43	0.7034	0.2966	0.347
Mof_C 	C 	0.3866	0.6773	0.3227	-0.111
Mof_C 	C 	0.93	0.2034	0.2966	0.342
Mof_C 	C 	0.8866	0.1773	0.3227	-0.105
Mof_C 	C 	0.93	0.7034	0.7966	0.338
Mof_C 	C 	0.8866	0.6773	0.8227	-0.089
Mof_C 	C 	0.43	0.7966	0.2034	0.346
Mof_C 	C 	0.3866	0.8227	0.1773	-0.11
Mof_C 	C 	0.43	0.2966	0.7034	0.347
Mof_C 	C 	0.3866	0.3227	0.6773	-0.111
Mof_C 	C 	0.93	0.7966	0.7034	0.338
Mof_C 	C 	0.8866	0.8227	0.6773	-0.089
Mof_C 	C 	0.93	0.2966	0.2034	0.342
Mof_C 	C 	0.8866	0.3227	0.1773	-0.105
Mof_C 	C 	0.8013	0.1346	0.6346	0.058
Mof_H 	H 	0.7702	0.1207	0.6207	0.04
Mof_C 	C 	0.3013	0.1346	0.1346	0.066
Mof_H 	H 	0.2702	0.1207	0.1207	0.03
Mof_C 	C 	0.3013	0.6346	0.6346	0.059
Mof_H 	H 	0.2702	0.6207	0.6207	0.043
Mof_C 	C 	0.1987	0.8654	0.6346	0.056
Mof_H 	H 	0.2298	0.8793	0.6207	0.051
Mof_C 	C 	0.6987	0.8654	0.1346	0.057
Mof_H 	H 	0.7298	0.8793	0.1207	0.048
Mof_C 	C 	0.1987	0.1346	0.3654	0.065
Mof_H 	H 	0.2298	0.1207	0.3793	0.036
Mof_C 	C 	0.1987	0.6346	0.8654	0.056
Mof_H 	H 	0.2298	0.6207	0.8793	0.051
Mof_C 	C 	0.6987	0.1346	0.8654	0.057
Mof_H 	H 	0.7298	0.1207	0.8793	0.048
Mof_C 	C 	0.8013	0.8654	0.3654	0.052
Mof_H 	H 	0.7702	0.8793	0.3793	0.054
Mof_C 	C 	0.3013	0.8654	0.8654	0.051
Mof_H 	H 	0.2702	0.8793	0.8793	0.058
Mof_C 	C 	0.6346	0.8013	0.1346	0.058
Mof_H 	H 	0.6207	0.7702	0.1207	0.04
Mof_C 	C 	0.6346	0.3013	0.6346	0.059
Mof_H 	H 	0.6207	0.2702	0.6207	0.043
Mof_C 	C 	0.6346	0.1987	0.8654	0.056
Mof_H 	H 	0.6207	0.2298	0.8793	0.051
Mof_C 	C 	0.6346	0.6987	0.3654	0.058
Mof_H 	H 	0.6207	0.7298	0.3793	0.047
Mof_C 	C 	0.3654	0.1987	0.1346	0.065
Mof_H 	H 	0.3793	0.2298	0.1207	0.036
Mof_C 	C 	0.3654	0.6987	0.6346	0.058
Mof_H 	H 	0.3793	0.7298	0.6207	0.047
Mof_C 	C 	0.8654	0.1987	0.6346	0.056
Mof_H 	H 	0.8793	0.2298	0.6207	0.051
Mof_C 	C 	0.3654	0.8013	0.8654	0.052
Mof_H 	H 	0.3793	0.7702	0.8793	0.054
Mof_C 	C 	0.3654	0.3013	0.3654	0.062
Mof_H 	H 	0.3793	0.2702	0.3793	0.042
Mof_C 	C 	0.8654	0.3013	0.8654	0.051
Mof_H 	H 	0.8793	0.2702	0.8793	0.058
Mof_C 	C 	0.1346	0.6346	0.8013	0.058
Mof_H 	H 	0.1207	0.6207	0.7702	0.04
Mof_C 	C 	0.1346	0.1346	0.3013	0.066
Mof_H 	H 	0.1207	0.1207	0.2702	0.03
Mof_C 	C 	0.6346	0.6346	0.3013	0.059
Mof_H 	H 	0.6207	0.6207	0.2702	0.043
Mof_C 	C 	0.8654	0.6346	0.1987	0.056
Mof_H 	H 	0.8793	0.6207	0.2298	0.051
Mof_C 	C 	0.8654	0.1346	0.6987	0.057
Mof_H 	H 	0.8793	0.1207	0.7298	0.048
Mof_C 	C 	0.1346	0.3654	0.1987	0.065
Mof_H 	H 	0.1207	0.3793	0.2298	0.036
Mof_C 	C 	0.1346	0.8654	0.6987	0.057
Mof_H 	H 	0.1207	0.8793	0.7298	0.048
Mof_C 	C 	0.6346	0.8654	0.1987	0.056
Mof_H 	H 	0.6207	0.8793	0.2298	0.051
Mof_C 	C 	0.8654	0.3654	0.8013	0.052
Mof_H 	H 	0.8793	0.3793	0.7702	0.054
Mof_C 	C 	0.8654	0.8654	0.3013	0.051
Mof_H 	H 	0.8793	0.8793	0.2702	0.058
Mof_C 	C 	0.1346	0.8013	0.3654	0.06
Mof_H 	H 	0.1207	0.7702	0.3793	0.04
Mof_C 	C 	0.1346	0.3013	0.8654	0.059
Mof_H 	H 	0.1207	0.2702	0.8793	0.044
Mof_C 	C 	0.6346	0.8013	0.8654	0.051
Mof_H 	H 	0.6207	0.7702	0.8793	0.055
Mof_C 	C 	0.8654	0.1987	0.3654	0.058
Mof_H 	H 	0.8793	0.2298	0.3793	0.05
Mof_C 	C 	0.8654	0.6987	0.8654	0.049
Mof_H 	H 	0.8793	0.7298	0.8793	0.062
Mof_C 	C 	0.1346	0.1987	0.6346	0.064
Mof_H 	H 	0.1207	0.2298	0.6207	0.036
Mof_C 	C 	0.1346	0.6987	0.1346	0.064
Mof_H 	H 	0.1207	0.7298	0.1207	0.033
Mof_C 	C 	0.6346	0.6987	0.6346	0.057
Mof_H 	H 	0.6207	0.7298	0.6207	0.047
Mof_C 	C 	0.8654	0.8013	0.6346	0.051
Mof_H 	H 	0.8793	0.7702	0.6207	0.055
Mof_C 	C 	0.8654	0.3013	0.1346	0.059
Mof_H 	H 	0.8793	0.2702	0.1207	0.044
Mof_C 	C 	0.8013	0.6346	0.8654	0.051
Mof_H 	H 	0.7702	0.6207	0.8793	0.055
Mof_C 	C 	0.3013	0.6346	0.3654	0.06
Mof_H 	H 	0.2702	0.6207	0.3793	0.043
Mof_C 	C 	0.1987	0.6346	0.1346	0.064
Mof_H 	H 	0.2298	0.6207	0.1207	0.036
Mof_C 	C 	0.6987	0.6346	0.6346	0.057
Mof_H 	H 	0.7298	0.6207	0.6207	0.047
Mof_C 	C 	0.1987	0.3654	0.8654	0.058
Mof_H 	H 	0.2298	0.3793	0.8793	0.05
Mof_C 	C 	0.6987	0.3654	0.3654	0.06
Mof_H 	H 	0.7298	0.3793	0.3793	0.046
Mof_C 	C 	0.6987	0.8654	0.8654	0.049
Mof_H 	H 	0.7298	0.8793	0.8793	0.062
Mof_C 	C 	0.8013	0.3654	0.1346	0.06
Mof_H 	H 	0.7702	0.3793	0.1207	0.04
Mof_C 	C 	0.8013	0.8654	0.6346	0.051
Mof_H 	H 	0.7702	0.8793	0.6207	0.055
Mof_C 	C 	0.3013	0.3654	0.6346	0.06
Mof_H 	H 	0.2702	0.3793	0.6207	0.043
Mof_C 	C 	0.6346	0.1346	0.1987	0.064
Mof_H 	H 	0.6207	0.1207	0.2298	0.036
Mof_C 	C 	0.6346	0.6346	0.6987	0.057
Mof_H 	H 	0.6207	0.6207	0.7298	0.047
Mof_C 	C 	0.6346	0.8654	0.8013	0.051
Mof_H 	H 	0.6207	0.8793	0.7702	0.055
Mof_C 	C 	0.6346	0.3654	0.3013	0.06
Mof_H 	H 	0.6207	0.3793	0.2702	0.043
Mof_C 	C 	0.3654	0.1346	0.8013	0.06
Mof_H 	H 	0.3793	0.1207	0.7702	0.04
Mof_C 	C 	0.3654	0.6346	0.3013	0.06
Mof_H 	H 	0.3793	0.6207	0.2702	0.043
Mof_C 	C 	0.8654	0.6346	0.8013	0.051
Mof_H 	H 	0.8793	0.6207	0.7702	0.055
Mof_C 	C 	0.3654	0.8654	0.1987	0.058
Mof_H 	H 	0.3793	0.8793	0.2298	0.05
Mof_C 	C 	0.3654	0.3654	0.6987	0.06
Mof_H 	H 	0.3793	0.3793	0.7298	0.046
Mof_C 	C 	0.8654	0.8654	0.6987	0.049
Mof_H 	H 	0.8793	0.8793	0.7298	0.062
Mof_C 	C 	0.1987	0.8654	0.3654	0.058
Mof_H 	H 	0.2298	0.8793	0.3793	0.05
Mof_C 	C 	0.8013	0.1346	0.3654	0.06
Mof_H 	H 	0.7702	0.1207	0.3793	0.04
Mof_C 	C 	0.3013	0.1346	0.8654	0.059
Mof_H 	H 	0.2702	0.1207	0.8793	0.044
Mof_C 	C 	0.3013	0.8654	0.1346	0.059
Mof_H 	H 	0.2702	0.8793	0.1207	0.044
Mof_C 	C 	0.1987	0.1346	0.6346	0.064
Mof_H 	H 	0.2298	0.1207	0.6207	0.036
Mof_C 	C 	0.6987	0.1346	0.1346	0.064
Mof_H 	H 	0.7298	0.1207	0.1207	0.033
Mof_C 	C 	0.3654	0.1987	0.8654	0.058
Mof_H 	H 	0.3793	0.2298	0.8793	0.05
Mof_C 	C 	0.3654	0.6987	0.3654	0.06
Mof_H 	H 	0.3793	0.7298	0.3793	0.046
Mof_C 	C 	0.3654	0.8013	0.1346	0.06
Mof_H 	H 	0.3793	0.7702	0.1207	0.04
Mof_C 	C 	0.3654	0.3013	0.6346	0.06
Mof_H 	H 	0.3793	0.2702	0.6207	0.043
Mof_C 	C 	0.6346	0.3013	0.3654	0.06
Mof_H 	H 	0.6207	0.2702	0.3793	0.043
Mof_C 	C 	0.6346	0.1987	0.1346	0.064
Mof_H 	H 	0.6207	0.2298	0.1207	0.036
Mof_C 	C 	0.8654	0.3654	0.1987	0.058
Mof_H 	H 	0.8793	0.3793	0.2298	0.05
Mof_C 	C 	0.1346	0.3654	0.8013	0.06
Mof_H 	H 	0.1207	0.3793	0.7702	0.04
Mof_C 	C 	0.1346	0.8654	0.3013	0.059
Mof_H 	H 	0.1207	0.8793	0.2702	0.044
Mof_C 	C 	0.8654	0.1346	0.3013	0.059
Mof_H 	H 	0.8793	0.1207	0.2702	0.044
Mof_C 	C 	0.1346	0.6346	0.1987	0.064
Mof_H 	H 	0.1207	0.6207	0.2298	0.036
Mof_C 	C 	0.1346	0.1346	0.6987	0.064
Mof_H 	H 	0.1207	0.1207	0.7298	0.033
Mof_C 	C 	0.8654	0.6987	0.1346	0.057
Mof_H 	H 	0.8793	0.7298	0.1207	0.048
Mof_C 	C 	0.1346	0.8013	0.6346	0.058
Mof_H 	H 	0.1207	0.7702	0.6207	0.04
Mof_C 	C 	0.1346	0.3013	0.1346	0.066
Mof_H 	H 	0.1207	0.2702	0.1207	0.03
Mof_C 	C 	0.8654	0.8013	0.3654	0.052
Mof_H 	H 	0.8793	0.7702	0.3793	0.054
Mof_C 	C 	0.1346	0.1987	0.3654	0.065
Mof_H 	H 	0.1207	0.2298	0.3793	0.036
Mof_C 	C 	0.1346	0.6987	0.8654	0.057
Mof_H 	H 	0.1207	0.7298	0.8793	0.048
Mof_C 	C 	0.1987	0.3654	0.1346	0.065
Mof_H 	H 	0.2298	0.3793	0.1207	0.036
Mof_C 	C 	0.6987	0.3654	0.6346	0.058
Mof_H 	H 	0.7298	0.3793	0.6207	0.047
Mof_C 	C 	0.8013	0.3654	0.8654	0.052
Mof_H 	H 	0.7702	0.3793	0.8793	0.054
Mof_C 	C 	0.3013	0.3654	0.3654	0.062
Mof_H 	H 	0.2702	0.3793	0.3793	0.042
Mof_C 	C 	0.8013	0.6346	0.1346	0.058
Mof_H 	H 	0.7702	0.6207	0.1207	0.04
Mof_C 	C 	0.6987	0.6346	0.3654	0.058
Mof_H 	H 	0.7298	0.6207	0.3793	0.047
Mof_C 	C 	0.3654	0.8654	0.8013	0.052
Mof_H 	H 	0.3793	0.8793	0.7702	0.054
Mof_C 	C 	0.3654	0.3654	0.3013	0.062
Mof_H 	H 	0.3793	0.3793	0.2702	0.042
Mof_C 	C 	0.3654	0.1346	0.1987	0.065
Mof_H 	H 	0.3793	0.1207	0.2298	0.036
Mof_C 	C 	0.3654	0.6346	0.6987	0.058
Mof_H 	H 	0.3793	0.6207	0.7298	0.047
Mof_C 	C 	0.6346	0.3654	0.6987	0.058
Mof_H 	H 	0.6207	0.3793	0.7298	0.047
Mof_C 	C 	0.6346	0.1346	0.8013	0.058
Mof_H 	H 	0.6207	0.1207	0.7702	0.04
_end
