data_functionalizedCrystal
_audit_creation_method	'EQeq! by Chris Wilmer'
_symmetry_space_group_name_H-M	'P1'
_symmetry_Int_Tables_number	1
_symmetry_cell_setting	triclinic
loop_
_symmetry_equiv_pos_as_xyz
  x,y,z
_cell_length_a	12.0328
_cell_length_b	12.0328
_cell_length_c	12.0328
_cell_angle_alpha	109.181
_cell_angle_beta	112.062
_cell_angle_gamma	107.208
loop_
_atom_site_label
_atom_site_type_symbol
_atom_site_fract_x
_atom_site_fract_y
_atom_site_fract_z
_atom_site_charge
Mof_H 	H 	0.5793	0.696	0.3903	0.159
Mof_H 	H 	0.747	0.826	0.6776	0.002
Mof_H 	H 	0.6968	0.8888	0.5854	-0.011
Mof_H 	H 	0.5713	0.7971	0.7126	0.048
Mof_H 	H 	0.5301	0.8731	0.633	0.053
Mof_H 	H 	0.2878	0.6276	0.306	0.09
Mof_H 	H 	0.3443	0.7718	0.4249	0.099
Mof_H 	H 	0.4373	0.7383	0.3718	0.087
Mof_H 	H 	0.3233	0.3958	0.3123	0.388
Mof_H 	H 	0.3603	0.4828	0.2463	0.373
Mof_H 	H 	0.4484	0.4155	0.2933	0.386
Mof_H 	H 	0.4634	0.4747	0.5569	0.366
Mof_H 	H 	0.5892	0.4899	0.5401	0.374
Mof_H 	H 	0.5993	0.6115	0.6526	0.37
Mof_C 	C 	0.3031	0.5803	0.5064	0.326
Mof_C 	C 	0.7213	0.6379	0.472	0.467
Mof_C 	C 	0.4199	0.6604	0.4983	-0.178
Mof_C 	C 	0.4891	0.5811	0.456	0.658
Mof_C 	C 	0.6124	0.6818	0.4696	-0.437
Mof_C 	C 	0.6691	0.8131	0.6	0.072
Mof_C 	C 	0.5487	0.7988	0.6271	-0.123
Mof_C 	C 	0.3674	0.7036	0.39	-0.271
Mof_C 	C 	0.3967	0.4573	0.314	-1.19
Mof_C 	C 	0.54	0.5349	0.5613	-1.138
Mof_O 	O 	0.1926	0.475	0.3836	-0.314
Mof_O 	O 	0.3125	0.6	0.6135	-0.331
Mof_O 	O 	0.808	0.658	0.58	-0.372
Mof_O 	O 	0.6893	0.5858	0.3523	-0.367
Mof_H 	H 	0.3057	0.189	0.6097	0.155
Mof_H 	H 	0.1484	0.0694	0.3224	-0.006
Mof_H 	H 	0.3034	0.1114	0.4146	-0.014
Mof_H 	H 	0.0845	0.8587	0.2874	0.044
Mof_H 	H 	0.2401	0.8971	0.367	0.058
Mof_H 	H 	0.3216	0.9818	0.694	0.106
Mof_H 	H 	0.3469	0.9194	0.5751	0.116
Mof_H 	H 	0.3665	0.0655	0.6282	0.107
Mof_H 	H 	0.0835	0.011	0.6877	0.363
Mof_H 	H 	0.2365	0.114	0.7537	0.354
Mof_H 	H 	0.1222	0.1551	0.7067	0.361
Mof_H 	H 	0.9178	0.9065	0.4431	0.349
Mof_H 	H 	0.9498	0.0491	0.4599	0.358
Mof_H 	H 	0.9589	0.9467	0.3474	0.355
Mof_C 	C 	0.0739	0.7967	0.4936	0.27
Mof_C 	C 	0.1659	0.2493	0.528	0.463
Mof_C 	C 	0.1621	0.9216	0.5017	-0.144
Mof_C 	C 	0.1251	0.0331	0.544	0.6
Mof_C 	C 	0.2122	0.1428	0.5304	-0.424
Mof_C 	C 	0.2131	0.0691	0.4	0.076
Mof_C 	C 	0.1717	0.9216	0.3729	-0.142
Mof_C 	C 	0.3136	0.9774	0.61	-0.323
Mof_C 	C 	0.1433	0.0827	0.686	-1.126
Mof_C 	C 	0.9736	0.9787	0.4387	-1.052
Mof_O 	O 	0.0914	0.809	0.6164	-0.306
Mof_O 	O 	0.9865	0.699	0.3865	-0.287
Mof_O 	O 	0.078	0.228	0.42	-0.392
Mof_O 	O 	0.2335	0.337	0.6477	-0.368
Mof_H 	H 	0.6943	0.304	0.8833	0.158
Mof_H 	H 	0.8516	0.174	0.921	0.009
Mof_H 	H 	0.6966	0.1112	0.808	-0.009
Mof_H 	H 	0.9155	0.2029	0.7742	0.06
Mof_H 	H 	0.7599	0.1269	0.657	0.055
Mof_H 	H 	0.6784	0.3724	0.6602	0.088
Mof_H 	H 	0.6531	0.2282	0.5725	0.099
Mof_H 	H 	0.6335	0.2617	0.699	0.084
Mof_H 	H 	0.9165	0.6042	0.9275	0.403
Mof_H 	H 	0.7635	0.5172	0.8775	0.379
Mof_H 	H 	0.8778	0.5845	0.0329	0.399
Mof_H 	H 	0.0822	0.5253	0.9887	0.336
Mof_H 	H 	0.0502	0.5101	0.0993	0.35
Mof_H 	H 	0.0411	0.3885	0.9878	0.337
Mof_C 	C 	0.9261	0.4197	0.7228	0.382
Mof_C 	C 	0.8341	0.3621	0.0834	0.466
Mof_C 	C 	0.8379	0.3396	0.7595	-0.189
Mof_C 	C 	0.8749	0.4189	0.908	0.67
Mof_C 	C 	0.7878	0.3182	0.9306	-0.433
Mof_C 	C 	0.7869	0.1869	0.856	0.071
Mof_C 	C 	0.8283	0.2012	0.7499	-0.117
Mof_C 	C 	0.6864	0.2964	0.6638	-0.261
Mof_C 	C 	0.8567	0.5427	0.9394	-1.212
Mof_C 	C 	0.0264	0.4651	0.0051	-1.092
Mof_O 	O 	0.9086	0.525	0.7176	-0.297
Mof_O 	O 	0.0135	0.4	0.7125	-0.364
Mof_O 	O 	0.922	0.342	0.15	-0.37
Mof_O 	O 	0.7665	0.4142	0.1035	-0.368
Mof_H 	H 	0.4207	0.811	0.1167	0.152
Mof_H 	H 	0.253	0.9306	0.079	0.002
Mof_H 	H 	0.3032	0.8886	0.192	-0.012
Mof_H 	H 	0.4287	0.1413	0.2258	0.05
Mof_H 	H 	0.4699	0.1029	0.343	0.057
Mof_H 	H 	0.7122	0.0182	0.3398	0.104
Mof_H 	H 	0.6557	0.0806	0.4275	0.113
Mof_H 	H 	0.5627	0.9345	0.301	0.098
Mof_H 	H 	0.6767	0.989	0.0725	0.368
Mof_H 	H 	0.6397	0.886	0.1225	0.351
Mof_H 	H 	0.5516	0.8449	0.9671	0.355
Mof_H 	H 	0.5366	0.0935	0.0113	0.333
Mof_H 	H 	0.4108	0.9509	0.9007	0.333
Mof_H 	H 	0.4007	0.0533	0.0122	0.336
Mof_C 	C 	0.6969	0.2033	0.2772	0.323
Mof_C 	C 	0.2787	0.7507	0.9166	0.45
Mof_C 	C 	0.5801	0.0784	0.2405	-0.157
Mof_C 	C 	0.5109	0.9669	0.092	0.608
Mof_C 	C 	0.3876	0.8572	0.0694	-0.407
Mof_C 	C 	0.3309	0.9309	0.144	0.067
Mof_C 	C 	0.4513	0.0784	0.2501	-0.131
Mof_C 	C 	0.6326	0.0226	0.3362	-0.301
Mof_C 	C 	0.6033	0.9173	0.0606	-1.106
Mof_C 	C 	0.46	0.0213	0.9949	-1.031
Mof_O 	O 	0.8074	0.191	0.2824	-0.289
Mof_O 	O 	0.6875	0.301	0.2875	-0.317
Mof_O 	O 	0.192	0.772	0.85	-0.39
Mof_O 	O 	0.3107	0.663	0.8965	-0.368
Mof_Cd	Cd	1.59231e-17	0.33019	0.33019	0.467
Mof_Cd	Cd	-3.18462e-17	0.66981	0.66981	0.459
Mof_Cd	Cd	0.17478	0.5	0.67478	0.46
Mof_Cd	Cd	0.82522	0.5	0.32522	0.475
Mof_O 	O 	-3.18462e-17	0.5	0.5	-0.353
Mof_H 	H 	0.07003	0.57003	0.5	0.13
_end
