data_functionalizedCrystal
_audit_creation_method	'EQeq! by Chris Wilmer'
_symmetry_space_group_name_H-M	'P1'
_symmetry_Int_Tables_number	1
_symmetry_cell_setting	triclinic
loop_
_symmetry_equiv_pos_as_xyz
  x,y,z
_cell_length_a	11.314
_cell_length_b	11.314
_cell_length_c	25.2429
_cell_angle_alpha	90
_cell_angle_beta	90
_cell_angle_gamma	90
loop_
_atom_site_label
_atom_site_type_symbol
_atom_site_fract_x
_atom_site_fract_y
_atom_site_fract_z
_atom_site_charge
Mof_Co	Co	0.09629	0.90371	0.875	1.198
Mof_Co	Co	0.90371	0.09629	0.375	1.198
Mof_Co	Co	0.09629	0.09629	0.625	1.18
Mof_Co	Co	0.90371	0.90371	0.125	1.216
Mof_Co	Co	-0	0.7967	-0	1.163
Mof_Co	Co	-3.62962e-33	0.2033	0.5	1.176
Mof_Co	Co	0.2033	0	0.75	1.176
Mof_Co	Co	0.7967	0	0.25	1.177
Mof_H 	H 	0.0597	0.076	0.0392	0.113
Mof_H 	H 	0.7442	0.919	0.8111	0.061
Mof_H 	H 	0.5503	0.9337	0.7868	0.062
Mof_H 	H 	0.4478	0.8289	0.931	0.052
Mof_H 	H 	0.3119	0.9999	0.9461	0.202
Mof_H 	H 	0.6422	0.8026	0.954	0.064
Mof_H 	H 	0.3983	0.1133	0.0164	0.046
Mof_H 	H 	0.3255	0.2048	0.982	0.084
Mof_H 	H 	0.2067	0.223	0.0526	0.015
Mof_H 	H 	0.2584	0.1075	0.0791	0.02
Mof_H 	H 	0.9403	0.924	0.5392	0.184
Mof_H 	H 	0.2558	0.081	0.3111	0.039
Mof_H 	H 	0.4497	0.0663	0.2868	0.036
Mof_H 	H 	0.5522	0.1711	0.431	0.044
Mof_H 	H 	0.6881	0.0001	0.4461	0.107
Mof_H 	H 	0.3578	0.1974	0.454	0.048
Mof_H 	H 	0.6017	0.8867	0.5164	0.056
Mof_H 	H 	0.6745	0.7952	0.482	0.052
Mof_H 	H 	0.7933	0.777	0.5526	0.044
Mof_H 	H 	0.7416	0.8925	0.5791	0.058
Mof_H 	H 	0.924	0.0597	0.7892	0.142
Mof_H 	H 	0.081	0.7442	0.5611	0.041
Mof_H 	H 	0.0663	0.5503	0.5368	0.036
Mof_H 	H 	0.1711	0.4478	0.681	0.043
Mof_H 	H 	0.0001	0.3119	0.6961	0.107
Mof_H 	H 	0.1974	0.6422	0.704	0.051
Mof_H 	H 	0.8867	0.3983	0.7664	0.056
Mof_H 	H 	0.7952	0.3255	0.732	0.052
Mof_H 	H 	0.777	0.2067	0.8026	0.032
Mof_H 	H 	0.8925	0.2584	0.8291	0.056
Mof_H 	H 	0.076	0.9403	0.2892	0.154
Mof_H 	H 	0.919	0.2558	0.0611	0.056
Mof_H 	H 	0.9337	0.4497	0.0368	0.055
Mof_H 	H 	0.8289	0.5522	0.181	0.048
Mof_H 	H 	0.9999	0.6881	0.1961	0.203
Mof_H 	H 	0.8026	0.3578	0.204	0.055
Mof_H 	H 	0.1133	0.6017	0.2664	0.023
Mof_H 	H 	0.2048	0.6745	0.232	0.037
Mof_H 	H 	0.223	0.7933	0.3026	0.047
Mof_H 	H 	0.1075	0.7416	0.3291	0.037
Mof_H 	H 	0.9403	0.076	0.9608	0.153
Mof_H 	H 	0.2558	0.919	0.1889	0.058
Mof_H 	H 	0.4497	0.9337	0.2132	0.064
Mof_H 	H 	0.5522	0.8289	0.069	0.045
Mof_H 	H 	0.6881	0.9999	0.0539	0.204
Mof_H 	H 	0.3578	0.8026	0.046	0.046
Mof_H 	H 	0.6017	0.1133	0.9836	0.002
Mof_H 	H 	0.6745	0.2048	0.018	-0.009
Mof_H 	H 	0.7933	0.223	0.9474	0.065
Mof_H 	H 	0.7416	0.1075	0.9209	0.051
Mof_H 	H 	0.0597	0.924	0.4608	0.142
Mof_H 	H 	0.7442	0.081	0.6889	0.041
Mof_H 	H 	0.5503	0.0663	0.7132	0.036
Mof_H 	H 	0.4478	0.1711	0.569	0.043
Mof_H 	H 	0.3119	0.0001	0.5539	0.107
Mof_H 	H 	0.6422	0.1974	0.546	0.051
Mof_H 	H 	0.3983	0.8867	0.4836	0.056
Mof_H 	H 	0.3255	0.7952	0.518	0.052
Mof_H 	H 	0.2067	0.777	0.4474	0.031
Mof_H 	H 	0.2584	0.8925	0.4209	0.055
Mof_H 	H 	0.076	0.0597	0.2108	0.112
Mof_H 	H 	0.919	0.7442	0.4389	0.061
Mof_H 	H 	0.9337	0.5503	0.4632	0.063
Mof_H 	H 	0.8289	0.4478	0.319	0.048
Mof_H 	H 	0.9999	0.3119	0.3039	0.204
Mof_H 	H 	0.8026	0.6422	0.296	0.056
Mof_H 	H 	0.1133	0.3983	0.2336	0.023
Mof_H 	H 	0.2048	0.3255	0.268	0.036
Mof_H 	H 	0.223	0.2067	0.1974	0.034
Mof_H 	H 	0.1075	0.2584	0.1709	0.034
Mof_H 	H 	0.924	0.9403	0.7108	0.184
Mof_H 	H 	0.081	0.2558	0.9389	0.043
Mof_H 	H 	0.0663	0.4497	0.9632	0.045
Mof_H 	H 	0.1711	0.5522	0.819	0.045
Mof_H 	H 	0.0001	0.6881	0.8039	0.107
Mof_H 	H 	0.1974	0.3578	0.796	0.048
Mof_H 	H 	0.8867	0.6017	0.7336	0.056
Mof_H 	H 	0.7952	0.6745	0.768	0.053
Mof_H 	H 	0.777	0.7933	0.6974	0.044
Mof_H 	H 	0.8925	0.7416	0.6709	0.058
Mof_C 	C 	0.1634	0.0081	0.9844	0.303
Mof_C 	C 	0.4792	0.8834	0.8555	-0.07
Mof_C 	C 	0.8426	0.8559	0.9035	0.361
Mof_C 	C 	0.3523	0.9029	0.8396	0.369
Mof_C 	C 	0.6849	0.8997	0.8351	-0.024
Mof_C 	C 	0.714	0.8606	0.8864	-0.052
Mof_C 	C 	0.569	0.9091	0.8209	-0.008
Mof_C 	C 	0.5074	0.8451	0.9067	-0.011
Mof_C 	C 	0.6237	0.8318	0.9205	-0.02
Mof_C 	C 	0.3208	0.1323	0.0024	-0.119
Mof_C 	C 	0.2288	0.1413	0.0463	0.01
Mof_C 	C 	0.8366	0.9919	0.4844	0.41
Mof_C 	C 	0.5208	0.1166	0.3555	-0.084
Mof_C 	C 	0.1574	0.1441	0.4035	0.364
Mof_C 	C 	0.6477	0.0971	0.3396	0.365
Mof_C 	C 	0.3151	0.1003	0.3351	-0.031
Mof_C 	C 	0.286	0.1394	0.3864	-0.08
Mof_C 	C 	0.431	0.0909	0.3209	-0.018
Mof_C 	C 	0.4926	0.1549	0.4067	-0.023
Mof_C 	C 	0.3763	0.1682	0.4205	-0.024
Mof_C 	C 	0.6792	0.8677	0.5024	-0.045
Mof_C 	C 	0.7712	0.8587	0.5463	-0.015
Mof_C 	C 	0.9919	0.1634	0.7344	0.403
Mof_C 	C 	0.1166	0.4792	0.6055	-0.086
Mof_C 	C 	0.1441	0.8426	0.6535	0.357
Mof_C 	C 	0.0971	0.3523	0.5896	0.366
Mof_C 	C 	0.1003	0.6849	0.5851	-0.034
Mof_C 	C 	0.1394	0.714	0.6364	-0.072
Mof_C 	C 	0.0909	0.569	0.5709	-0.014
Mof_C 	C 	0.1549	0.5074	0.6567	-0.019
Mof_C 	C 	0.1682	0.6237	0.6705	-0.029
Mof_C 	C 	0.8677	0.3208	0.7524	-0.046
Mof_C 	C 	0.8587	0.2288	0.7963	-0.018
Mof_C 	C 	0.0081	0.8366	0.2344	0.286
Mof_C 	C 	0.8834	0.5208	0.1055	-0.073
Mof_C 	C 	0.8559	0.1574	0.1535	0.37
Mof_C 	C 	0.9029	0.6477	0.0896	0.37
Mof_C 	C 	0.8997	0.3151	0.0851	-0.022
Mof_C 	C 	0.8606	0.286	0.1364	-0.064
Mof_C 	C 	0.9091	0.431	0.0709	-0.011
Mof_C 	C 	0.8451	0.4926	0.1567	-0.016
Mof_C 	C 	0.8318	0.3763	0.1705	-0.017
Mof_C 	C 	0.1323	0.6792	0.2524	-0.018
Mof_C 	C 	0.1413	0.7712	0.2963	-0.031
Mof_C 	C 	0.8366	0.0081	0.0156	0.265
Mof_C 	C 	0.5208	0.8834	0.1445	-0.068
Mof_C 	C 	0.1574	0.8559	0.0965	0.372
Mof_C 	C 	0.6477	0.9029	0.1604	0.367
Mof_C 	C 	0.3151	0.8997	0.1649	-0.017
Mof_C 	C 	0.286	0.8606	0.1136	-0.069
Mof_C 	C 	0.431	0.9091	0.1791	-0.016
Mof_C 	C 	0.4926	0.8451	0.0933	-0.022
Mof_C 	C 	0.3763	0.8318	0.0795	-0.013
Mof_C 	C 	0.6792	0.1323	0.9976	0.078
Mof_C 	C 	0.7712	0.1413	0.9537	-0.074
Mof_C 	C 	0.1634	0.9919	0.5156	0.403
Mof_C 	C 	0.4792	0.1166	0.6445	-0.086
Mof_C 	C 	0.8426	0.1441	0.5965	0.357
Mof_C 	C 	0.3523	0.0971	0.6604	0.366
Mof_C 	C 	0.6849	0.1003	0.6649	-0.034
Mof_C 	C 	0.714	0.1394	0.6136	-0.072
Mof_C 	C 	0.569	0.0909	0.6791	-0.014
Mof_C 	C 	0.5074	0.1549	0.5933	-0.019
Mof_C 	C 	0.6237	0.1682	0.5795	-0.028
Mof_C 	C 	0.3208	0.8677	0.4976	-0.046
Mof_C 	C 	0.2288	0.8587	0.4537	-0.018
Mof_C 	C 	0.0081	0.1634	0.2656	0.28
Mof_C 	C 	0.8834	0.4792	0.3945	-0.07
Mof_C 	C 	0.8559	0.8426	0.3465	0.363
Mof_C 	C 	0.9029	0.3523	0.4104	0.369
Mof_C 	C 	0.8997	0.6849	0.4149	-0.022
Mof_C 	C 	0.8606	0.714	0.3636	-0.056
Mof_C 	C 	0.9091	0.569	0.4291	-0.01
Mof_C 	C 	0.8451	0.5074	0.3433	-0.015
Mof_C 	C 	0.8318	0.6237	0.3295	-0.018
Mof_C 	C 	0.1323	0.3208	0.2476	-0.019
Mof_C 	C 	0.1413	0.2288	0.2037	-0.034
Mof_C 	C 	0.9919	0.8366	0.7656	0.409
Mof_C 	C 	0.1166	0.5208	0.8945	-0.078
Mof_C 	C 	0.1441	0.1574	0.8465	0.365
Mof_C 	C 	0.0971	0.6477	0.9104	0.362
Mof_C 	C 	0.1003	0.3151	0.9149	-0.027
Mof_C 	C 	0.1394	0.286	0.8636	-0.082
Mof_C 	C 	0.0909	0.431	0.9291	-0.021
Mof_C 	C 	0.1549	0.4926	0.8433	-0.025
Mof_C 	C 	0.1682	0.3763	0.8295	-0.022
Mof_C 	C 	0.8677	0.6792	0.7476	-0.045
Mof_C 	C 	0.8587	0.7712	0.7037	-0.015
Mof_N 	N 	0.13	0.0742	0.0263	-0.257
Mof_N 	N 	0.2732	0.0353	0.9707	-0.269
Mof_N 	N 	0.87	0.9258	0.5263	-0.258
Mof_N 	N 	0.7268	0.9647	0.4707	-0.213
Mof_N 	N 	0.9258	0.13	0.7763	-0.255
Mof_N 	N 	0.9647	0.2732	0.7207	-0.212
Mof_N 	N 	0.0742	0.87	0.2763	-0.239
Mof_N 	N 	0.0353	0.7268	0.2207	-0.29
Mof_N 	N 	0.87	0.0742	0.9737	-0.219
Mof_N 	N 	0.7268	0.0353	0.0293	-0.309
Mof_N 	N 	0.13	0.9258	0.4737	-0.255
Mof_N 	N 	0.2732	0.9647	0.5293	-0.212
Mof_N 	N 	0.0742	0.13	0.2237	-0.236
Mof_N 	N 	0.0353	0.2732	0.2793	-0.289
Mof_N 	N 	0.9258	0.87	0.7237	-0.258
Mof_N 	N 	0.9647	0.7268	0.7793	-0.213
Mof_O 	O 	0.9145	0.9107	0.875	-0.37
Mof_O 	O 	0.2758	0.9049	0.8753	-0.423
Mof_O 	O 	0.3337	0.9114	0.7903	-0.385
Mof_O 	O 	0.8643	0.7985	0.945	-0.375
Mof_O 	O 	0.0972	0.9339	0.9613	-0.455
Mof_O 	O 	0.0855	0.0893	0.375	-0.456
Mof_O 	O 	0.7242	0.0951	0.3753	-0.446
Mof_O 	O 	0.6663	0.0886	0.2903	-0.419
Mof_O 	O 	0.1357	0.2015	0.445	-0.431
Mof_O 	O 	0.9028	0.0661	0.4613	-0.526
Mof_O 	O 	0.0893	0.9145	0.625	-0.405
Mof_O 	O 	0.0951	0.2758	0.6253	-0.444
Mof_O 	O 	0.0886	0.3337	0.5403	-0.419
Mof_O 	O 	0.2015	0.8643	0.695	-0.396
Mof_O 	O 	0.0661	0.0972	0.7113	-0.561
Mof_O 	O 	0.9107	0.0855	0.125	-0.421
Mof_O 	O 	0.9049	0.7242	0.1253	-0.427
Mof_O 	O 	0.9114	0.6663	0.0403	-0.395
Mof_O 	O 	0.7985	0.1357	0.195	-0.422
Mof_O 	O 	0.9339	0.9028	0.2113	-0.425
Mof_O 	O 	0.0855	0.9107	0.125	-0.423
Mof_O 	O 	0.7242	0.9049	0.1247	-0.427
Mof_O 	O 	0.6663	0.9114	0.2097	-0.386
Mof_O 	O 	0.1357	0.7985	0.055	-0.431
Mof_O 	O 	0.9028	0.9339	0.0387	-0.426
Mof_O 	O 	0.9145	0.0893	0.625	-0.405
Mof_O 	O 	0.2758	0.0951	0.6247	-0.444
Mof_O 	O 	0.3337	0.0886	0.7097	-0.419
Mof_O 	O 	0.8643	0.2015	0.555	-0.396
Mof_O 	O 	0.0972	0.0661	0.5387	-0.561
Mof_O 	O 	0.9107	0.9145	0.375	-0.371
Mof_O 	O 	0.9049	0.2758	0.3747	-0.424
Mof_O 	O 	0.9114	0.3337	0.4597	-0.385
Mof_O 	O 	0.7985	0.8643	0.305	-0.387
Mof_O 	O 	0.9339	0.0972	0.2887	-0.459
Mof_O 	O 	0.0893	0.0855	0.875	-0.456
Mof_O 	O 	0.0951	0.7242	0.8747	-0.443
Mof_O 	O 	0.0886	0.6663	0.9597	-0.405
Mof_O 	O 	0.2015	0.1357	0.805	-0.431
Mof_O 	O 	0.0661	0.9028	0.7887	-0.526
_end
