data_functionalizedCrystal
_audit_creation_method	'EQeq! by Chris Wilmer'
_symmetry_space_group_name_H-M	'P1'
_symmetry_Int_Tables_number	1
_symmetry_cell_setting	triclinic
loop_
_symmetry_equiv_pos_as_xyz
  x,y,z
_cell_length_a	7.02
_cell_length_b	8.227
_cell_length_c	8.5292
_cell_angle_alpha	113.308
_cell_angle_beta	114.301
_cell_angle_gamma	90
loop_
_atom_site_label
_atom_site_type_symbol
_atom_site_fract_x
_atom_site_fract_y
_atom_site_fract_z
_atom_site_charge
Mof_Co	Co	-1.47184e-17	0.5	0.5	1.066
Mof_Co	Co	0.5	0	0.5	1.116
Mof_H 	H 	0.4013	0.941	0.0846	0.227
Mof_H 	H 	0.3167	0.559	0.9154	0.09
Mof_H 	H 	0.5987	0.059	0.9154	-0.067
Mof_H 	H 	0.6833	0.441	0.0846	0.079
Mof_C 	C 	0.65734	0.15133	0.2723	0.464
Mof_C 	C 	0.49966	0.00982	0.08132	-0.446
Mof_C 	C 	0.38504	0.34867	0.7277	0.404
Mof_C 	C 	0.41834	0.49018	0.91868	-0.266
Mof_C 	C 	0.34266	0.84867	0.7277	0.277
Mof_C 	C 	0.50034	0.99018	0.91868	0.162
Mof_C 	C 	0.61496	0.65133	0.2723	0.338
Mof_C 	C 	0.58166	0.50982	0.08132	-0.025
Mof_O 	O 	0.79344	0.2564	0.27874	-0.378
Mof_O 	O 	0.6442	0.15954	0.41978	-0.458
Mof_O 	O 	0.5147	0.2436	0.72126	-0.446
Mof_O 	O 	0.22442	0.34046	0.58022	-0.509
Mof_O 	O 	0.20656	0.7436	0.72126	-0.453
Mof_O 	O 	0.3558	0.84046	0.58022	-0.417
Mof_O 	O 	0.4853	0.7564	0.27874	-0.403
Mof_O 	O 	0.77558	0.65954	0.41978	-0.355
_end
