data_functionalizedCrystal
_audit_creation_method	'EQeq! by Chris Wilmer'
_symmetry_space_group_name_H-M	'P1'
_symmetry_Int_Tables_number	1
_symmetry_cell_setting	triclinic
loop_
_symmetry_equiv_pos_as_xyz
  x,y,z
_cell_length_a	16.6607
_cell_length_b	16.6607
_cell_length_c	16.6607
_cell_angle_alpha	90
_cell_angle_beta	90
_cell_angle_gamma	90
loop_
_atom_site_label
_atom_site_type_symbol
_atom_site_fract_x
_atom_site_fract_y
_atom_site_fract_z
_atom_site_charge
Mof_O 	O 	0.0907	0.51867	0.80522	-1.674
Mof_O 	O 	0.5907	0.01867	0.30522	-1.734
Mof_O 	O 	0.9093	0.48133	0.80522	-1.268
Mof_O 	O 	0.4093	0.98133	0.30522	-1.163
Mof_O 	O 	0.9093	0.51867	0.19478	-1.198
Mof_O 	O 	0.4093	0.01867	0.69478	-1.855
Mof_O 	O 	0.0907	0.48133	0.19478	-1.595
Mof_O 	O 	0.5907	0.98133	0.69478	-1.229
Mof_O 	O 	0.80522	0.0907	0.51867	-1.673
Mof_O 	O 	0.30522	0.5907	0.01867	-1.733
Mof_O 	O 	0.80522	0.9093	0.48133	-1.267
Mof_O 	O 	0.30522	0.4093	0.98133	-1.162
Mof_O 	O 	0.19478	0.9093	0.51867	-1.197
Mof_O 	O 	0.69478	0.4093	0.01867	-1.854
Mof_O 	O 	0.19478	0.0907	0.48133	-1.595
Mof_O 	O 	0.69478	0.5907	0.98133	-1.229
Mof_O 	O 	0.51867	0.80522	0.0907	-1.673
Mof_O 	O 	0.01867	0.30522	0.5907	-1.733
Mof_O 	O 	0.48133	0.80522	0.9093	-1.267
Mof_O 	O 	0.98133	0.30522	0.4093	-1.162
Mof_O 	O 	0.51867	0.19478	0.9093	-1.197
Mof_O 	O 	0.01867	0.69478	0.4093	-1.854
Mof_O 	O 	0.48133	0.19478	0.0907	-1.595
Mof_O 	O 	0.98133	0.69478	0.5907	-1.229
Mof_O 	O 	0.51867	0.0907	0.80522	-1.673
Mof_O 	O 	0.01867	0.5907	0.30522	-1.733
Mof_O 	O 	0.48133	0.9093	0.80522	-1.267
Mof_O 	O 	0.98133	0.4093	0.30522	-1.162
Mof_O 	O 	0.51867	0.9093	0.19478	-1.197
Mof_O 	O 	0.01867	0.4093	0.69478	-1.854
Mof_O 	O 	0.48133	0.0907	0.19478	-1.595
Mof_O 	O 	0.98133	0.5907	0.69478	-1.229
Mof_O 	O 	0.0907	0.80522	0.51867	-1.673
Mof_O 	O 	0.5907	0.30522	0.01867	-1.733
Mof_O 	O 	0.9093	0.80522	0.48133	-1.267
Mof_O 	O 	0.4093	0.30522	0.98133	-1.162
Mof_O 	O 	0.9093	0.19478	0.51867	-1.197
Mof_O 	O 	0.4093	0.69478	0.01867	-1.854
Mof_O 	O 	0.0907	0.19478	0.48133	-1.595
Mof_O 	O 	0.5907	0.69478	0.98133	-1.229
Mof_O 	O 	0.80522	0.51867	0.0907	-1.673
Mof_O 	O 	0.30522	0.01867	0.5907	-1.733
Mof_O 	O 	0.80522	0.48133	0.9093	-1.267
Mof_O 	O 	0.30522	0.98133	0.4093	-1.162
Mof_O 	O 	0.19478	0.51867	0.9093	-1.197
Mof_O 	O 	0.69478	0.01867	0.4093	-1.854
Mof_O 	O 	0.19478	0.48133	0.0907	-1.595
Mof_O 	O 	0.69478	0.98133	0.5907	-1.229
Mof_Al	Al	5.45847e-33	0.5	-0	-2.634
Mof_Al	Al	0.5	5.45847e-33	0.5	1.304
Mof_Al	Al	7.33317e-33	5.45847e-33	0.5	-2.634
Mof_Al	Al	0.5	0.5	-0	1.304
Mof_Al	Al	0.5	0	-0	-2.634
Mof_Al	Al	1.27916e-32	0.5	0.5	1.304
Mof_Li	Li	8.27052e-33	0.5	0.75	5.914
Mof_Li	Li	3.66658e-33	0.5	0.25	5.312
Mof_Li	Li	0.75	5.45847e-33	0.5	5.914
Mof_Li	Li	0.25	5.45847e-33	0.5	5.312
Mof_Li	Li	0.5	0.75	-0	5.914
Mof_Li	Li	0.5	0.25	-0	5.312
Mof_Li	Li	0.5	0	0.75	5.914
Mof_Li	Li	0.5	2.72923e-33	0.25	5.312
Mof_Li	Li	7.33317e-33	0.75	0.5	5.914
Mof_Li	Li	1.8747e-33	0.25	0.5	5.312
Mof_Li	Li	0.75	0.5	-0	5.914
Mof_Li	Li	0.25	0.5	-0	5.312
Mof_P 	P 	0.12232	0.56584	0.87768	0.805
Mof_O 	O 	0.14416	0.65136	0.85584	-0.299
Mof_O 	O 	0.05691	0.56595	0.94309	0.226
Mof_P 	P 	0.62232	0.06584	0.37768	0.996
Mof_O 	O 	0.64416	0.15136	0.35584	-0.422
Mof_O 	O 	0.55691	0.06595	0.44309	-0.952
Mof_P 	P 	0.87768	0.43416	0.87768	0.831
Mof_O 	O 	0.85584	0.34864	0.85584	-0.133
Mof_O 	O 	0.94309	0.43405	0.94309	0.726
Mof_P 	P 	0.37768	0.93416	0.37768	0.948
Mof_O 	O 	0.35584	0.84864	0.35584	-0.343
Mof_O 	O 	0.44309	0.93405	0.44309	-0.489
Mof_P 	P 	0.87768	0.56584	0.12232	0.805
Mof_O 	O 	0.85584	0.65136	0.14416	-0.299
Mof_O 	O 	0.94309	0.56595	0.05691	0.226
Mof_P 	P 	0.37768	0.06584	0.62232	0.996
Mof_O 	O 	0.35584	0.15136	0.64416	-0.422
Mof_O 	O 	0.44309	0.06595	0.55691	-0.952
Mof_P 	P 	0.12232	0.43416	0.12232	0.782
Mof_O 	O 	0.14416	0.34864	0.14416	-0.631
Mof_O 	O 	0.05691	0.43405	0.05691	-0.331
Mof_P 	P 	0.62232	0.93416	0.62232	1.003
Mof_O 	O 	0.64416	0.84864	0.64416	-0.262
Mof_O 	O 	0.55691	0.93405	0.55691	-0.509
Mof_P 	P 	0.87768	0.12232	0.56584	0.805
Mof_O 	O 	0.85584	0.14416	0.65136	-0.299
Mof_O 	O 	0.94309	0.05691	0.56595	0.226
Mof_P 	P 	0.37768	0.62232	0.06584	0.996
Mof_O 	O 	0.35584	0.64416	0.15136	-0.422
Mof_O 	O 	0.44309	0.55691	0.06595	-0.952
Mof_P 	P 	0.87768	0.87768	0.43416	0.831
Mof_O 	O 	0.85584	0.85584	0.34864	-0.133
Mof_O 	O 	0.94309	0.94309	0.43405	0.726
Mof_P 	P 	0.37768	0.37768	0.93416	0.948
Mof_O 	O 	0.35584	0.35584	0.84864	-0.343
Mof_O 	O 	0.44309	0.44309	0.93405	-0.489
Mof_P 	P 	0.12232	0.87768	0.56584	0.805
Mof_O 	O 	0.14416	0.85584	0.65136	-0.299
Mof_O 	O 	0.05691	0.94309	0.56595	0.226
Mof_P 	P 	0.62232	0.37768	0.06584	0.996
Mof_O 	O 	0.64416	0.35584	0.15136	-0.422
Mof_O 	O 	0.55691	0.44309	0.06595	-0.952
Mof_P 	P 	0.12232	0.12232	0.43416	0.782
Mof_O 	O 	0.14416	0.14416	0.34864	-0.631
Mof_O 	O 	0.05691	0.05691	0.43405	-0.331
Mof_P 	P 	0.62232	0.62232	0.93416	1.003
Mof_O 	O 	0.64416	0.64416	0.84864	-0.262
Mof_O 	O 	0.55691	0.55691	0.93405	-0.509
Mof_P 	P 	0.56584	0.87768	0.12232	0.805
Mof_O 	O 	0.65136	0.85584	0.14416	-0.299
Mof_O 	O 	0.56595	0.94309	0.05691	0.226
Mof_P 	P 	0.06584	0.37768	0.62232	0.996
Mof_O 	O 	0.15136	0.35584	0.64416	-0.422
Mof_O 	O 	0.06595	0.44309	0.55691	-0.952
Mof_P 	P 	0.43416	0.87768	0.87768	0.831
Mof_O 	O 	0.34864	0.85584	0.85584	-0.133
Mof_O 	O 	0.43405	0.94309	0.94309	0.726
Mof_P 	P 	0.93416	0.37768	0.37768	0.948
Mof_O 	O 	0.84864	0.35584	0.35584	-0.343
Mof_O 	O 	0.93405	0.44309	0.44309	-0.489
Mof_P 	P 	0.56584	0.12232	0.87768	0.805
Mof_O 	O 	0.65136	0.14416	0.85584	-0.299
Mof_O 	O 	0.56595	0.05691	0.94309	0.226
Mof_P 	P 	0.06584	0.62232	0.37768	0.996
Mof_O 	O 	0.15136	0.64416	0.35584	-0.422
Mof_O 	O 	0.06595	0.55691	0.44309	-0.952
Mof_P 	P 	0.43416	0.12232	0.12232	0.782
Mof_O 	O 	0.34864	0.14416	0.14416	-0.631
Mof_O 	O 	0.43405	0.05691	0.05691	-0.331
Mof_P 	P 	0.93416	0.62232	0.62232	1.003
Mof_O 	O 	0.84864	0.64416	0.64416	-0.262
Mof_O 	O 	0.93405	0.55691	0.55691	-0.509
_end
