data_functionalizedCrystal
_audit_creation_method	'EQeq! by Chris Wilmer'
_symmetry_space_group_name_H-M	'P1'
_symmetry_Int_Tables_number	1
_symmetry_cell_setting	triclinic
loop_
_symmetry_equiv_pos_as_xyz
  x,y,z
_cell_length_a	16.1925
_cell_length_b	8.6926
_cell_length_c	20.8815
_cell_angle_alpha	90
_cell_angle_beta	94.797
_cell_angle_gamma	90
loop_
_atom_site_label
_atom_site_type_symbol
_atom_site_fract_x
_atom_site_fract_y
_atom_site_fract_z
_atom_site_charge
Mof_Ho	Ho	0.24299	0.22276	0.71292	2.062
Mof_O 	O 	0.1287	0.3598	0.663	-0.487
Mof_O 	O 	0.3672	0.3246	0.7491	-0.58
Mof_O 	O 	0.1783	0.5415	0.8379	-0.55
Mof_O 	O 	0.1788	0.3021	0.8003	-0.543
Mof_O 	O 	0.3619	0.5482	0.7997	-0.566
Mof_O 	O 	0.2138	0.5369	0.7052	-0.552
Mof_N 	N 	0.9857	0.9331	0.4991	-0.102
Mof_N 	N 	0.755	0.4588	0.841	-0.102
Mof_N 	N 	0.7839	0.3605	0.8113	-0.098
Mof_C 	C 	0.1534	0.4954	0.6663	0.414
Mof_C 	C 	0.112	0.611	0.6205	-0.193
Mof_C 	C 	0.1493	0.7518	0.61	0.121
Mof_H 	H 	0.2014	0.773	0.6302	-0.014
Mof_C 	C 	0.1102	0.8602	0.5701	-0.199
Mof_H 	H 	0.1352	0.9548	0.564	0.101
Mof_C 	C 	0.0329	0.8265	0.5391	0.171
Mof_C 	C 	0.997	0.6843	0.5466	-0.201
Mof_H 	H 	0.9467	0.6605	0.5241	0.106
Mof_C 	C 	0.0359	0.5772	0.5878	0.112
Mof_H 	H 	0.0111	0.4823	0.5936	0.004
Mof_C 	C 	0.4	0.4341	0.7811	0.568
Mof_C 	C 	0.4913	0.4282	0.7984	-0.262
Mof_C 	C 	0.5306	0.5411	0.8375	0.184
Mof_H 	H 	0.4993	0.6185	0.8544	-0.015
Mof_C 	C 	0.6147	0.5393	0.8511	-0.261
Mof_H 	H 	0.6398	0.6129	0.8786	0.129
Mof_C 	C 	0.6612	0.4319	0.8252	0.2
Mof_C 	C 	0.6244	0.3142	0.7874	-0.236
Mof_H 	H 	0.6569	0.237	0.7716	0.126
Mof_C 	C 	0.5383	0.3127	0.7734	0.167
Mof_H 	H 	0.513	0.2357	0.7477	-0.018
Mof_C 	C 	0.1429	0.4184	0.8211	0.533
Mof_C 	C 	0.0514	0.4078	0.8254	-0.254
Mof_C 	C 	0.0084	0.5163	0.8585	0.162
Mof_H 	H 	0.0368	0.5945	0.8813	-0.027
Mof_C 	C 	0.9213	0.5067	0.857	-0.238
Mof_H 	H 	0.8925	0.5784	0.8795	0.119
Mof_C 	C 	0.879	0.3937	0.8231	0.193
Mof_C 	C 	0.9221	0.2849	0.7917	-0.246
Mof_H 	H 	0.8934	0.2056	0.7697	0.127
Mof_C 	C 	0.0072	0.2911	0.7922	0.176
Mof_H 	H 	0.0353	0.2171	0.7703	-0.024
Mof_Ho	Ho	0.25701	0.72276	0.78708	2.059
Mof_O 	O 	0.3713	0.8598	0.837	-0.487
Mof_O 	O 	0.1328	0.8246	0.7509	-0.581
Mof_O 	O 	0.3217	0.0415	0.6621	-0.548
Mof_O 	O 	0.3212	0.8021	0.6997	-0.543
Mof_O 	O 	0.1381	0.0482	0.7003	-0.563
Mof_O 	O 	0.2862	0.0369	0.7948	-0.548
Mof_N 	N 	0.5143	0.4331	0.0009	-0.105
Mof_N 	N 	0.745	0.9588	0.659	-0.102
Mof_N 	N 	0.7161	0.8605	0.6887	-0.098
Mof_C 	C 	0.3466	0.9954	0.8337	0.408
Mof_C 	C 	0.388	0.111	0.8795	-0.193
Mof_C 	C 	0.3507	0.2518	0.89	0.124
Mof_H 	H 	0.2986	0.273	0.8698	-0.015
Mof_C 	C 	0.3898	0.3602	0.9299	-0.203
Mof_H 	H 	0.3648	0.4548	0.936	0.103
Mof_C 	C 	0.4671	0.3265	0.9609	0.177
Mof_C 	C 	0.503	0.1843	0.9534	-0.21
Mof_H 	H 	0.5533	0.1605	0.9759	0.109
Mof_C 	C 	0.4641	0.0772	0.9122	0.121
Mof_H 	H 	0.4889	0.9823	0.9064	-0.001
Mof_C 	C 	0.1	0.9341	0.7189	0.564
Mof_C 	C 	0.0087	0.9282	0.7016	-0.266
Mof_C 	C 	0.9694	0.0411	0.6625	0.183
Mof_H 	H 	0.0007	0.1185	0.6456	-0.013
Mof_C 	C 	0.8853	0.0393	0.6489	-0.262
Mof_H 	H 	0.8602	0.1129	0.6214	0.129
Mof_C 	C 	0.8388	0.9319	0.6748	0.201
Mof_C 	C 	0.8756	0.8142	0.7126	-0.239
Mof_H 	H 	0.8431	0.737	0.7284	0.126
Mof_C 	C 	0.9617	0.8127	0.7266	0.171
Mof_H 	H 	0.987	0.7357	0.7523	-0.02
Mof_C 	C 	0.3571	0.9184	0.6789	0.53
Mof_C 	C 	0.4486	0.9078	0.6746	-0.255
Mof_C 	C 	0.4916	0.0163	0.6415	0.164
Mof_H 	H 	0.4632	0.0945	0.6187	-0.027
Mof_C 	C 	0.5787	0.0067	0.643	-0.237
Mof_H 	H 	0.6075	0.0784	0.6205	0.119
Mof_C 	C 	0.621	0.8937	0.6769	0.191
Mof_C 	C 	0.5779	0.7849	0.7083	-0.244
Mof_H 	H 	0.6066	0.7056	0.7303	0.126
Mof_C 	C 	0.4928	0.7911	0.7078	0.174
Mof_H 	H 	0.4647	0.7171	0.7297	-0.024
Mof_Ho	Ho	0.75701	0.77724	0.28708	2.061
Mof_O 	O 	0.8713	0.6402	0.337	-0.488
Mof_O 	O 	0.6328	0.6754	0.2509	-0.581
Mof_O 	O 	0.8217	0.4585	0.1621	-0.551
Mof_O 	O 	0.8212	0.6979	0.1997	-0.543
Mof_O 	O 	0.6381	0.4518	0.2003	-0.566
Mof_O 	O 	0.7862	0.4631	0.2948	-0.552
Mof_N 	N 	0.0143	0.0669	0.5009	-0.102
Mof_N 	N 	0.245	0.5412	0.159	-0.102
Mof_N 	N 	0.2161	0.6395	0.1887	-0.098
Mof_C 	C 	0.8466	0.5046	0.3337	0.414
Mof_C 	C 	0.888	0.389	0.3795	-0.193
Mof_C 	C 	0.8507	0.2482	0.39	0.121
Mof_H 	H 	0.7986	0.227	0.3698	-0.014
Mof_C 	C 	0.8898	0.1398	0.4299	-0.199
Mof_H 	H 	0.8648	0.0452	0.436	0.101
Mof_C 	C 	0.9671	0.1735	0.4609	0.171
Mof_C 	C 	0.003	0.3157	0.4534	-0.201
Mof_H 	H 	0.0533	0.3395	0.4759	0.106
Mof_C 	C 	0.9641	0.4228	0.4122	0.112
Mof_H 	H 	0.9889	0.5177	0.4064	0.004
Mof_C 	C 	0.6	0.5659	0.2189	0.568
Mof_C 	C 	0.5087	0.5718	0.2016	-0.262
Mof_C 	C 	0.4694	0.4589	0.1625	0.184
Mof_H 	H 	0.5007	0.3815	0.1456	-0.015
Mof_C 	C 	0.3853	0.4607	0.1489	-0.261
Mof_H 	H 	0.3602	0.3871	0.1214	0.129
Mof_C 	C 	0.3388	0.5681	0.1748	0.2
Mof_C 	C 	0.3756	0.6858	0.2126	-0.236
Mof_H 	H 	0.3431	0.763	0.2284	0.126
Mof_C 	C 	0.4617	0.6873	0.2266	0.167
Mof_H 	H 	0.487	0.7643	0.2523	-0.018
Mof_C 	C 	0.8571	0.5816	0.1789	0.533
Mof_C 	C 	0.9486	0.5922	0.1746	-0.254
Mof_C 	C 	0.9916	0.4837	0.1415	0.162
Mof_H 	H 	0.9632	0.4055	0.1187	-0.027
Mof_C 	C 	0.0787	0.4933	0.143	-0.238
Mof_H 	H 	0.1075	0.4216	0.1205	0.119
Mof_C 	C 	0.121	0.6063	0.1769	0.193
Mof_C 	C 	0.0779	0.7151	0.2083	-0.246
Mof_H 	H 	0.1066	0.7944	0.2303	0.127
Mof_C 	C 	0.9928	0.7089	0.2078	0.176
Mof_H 	H 	0.9647	0.7829	0.2297	-0.024
Mof_Ho	Ho	0.74299	0.27724	0.21292	2.059
Mof_O 	O 	0.6287	0.1402	0.163	-0.487
Mof_O 	O 	0.8672	0.1754	0.2491	-0.581
Mof_O 	O 	0.6783	0.9585	0.3379	-0.548
Mof_O 	O 	0.6788	0.1979	0.3003	-0.543
Mof_O 	O 	0.8619	0.9518	0.2997	-0.563
Mof_O 	O 	0.7138	0.9631	0.2052	-0.548
Mof_N 	N 	0.4857	0.5669	0.9991	-0.105
Mof_N 	N 	0.255	0.0412	0.341	-0.102
Mof_N 	N 	0.2839	0.1395	0.3113	-0.098
Mof_C 	C 	0.6534	0.0046	0.1663	0.408
Mof_C 	C 	0.612	0.889	0.1205	-0.193
Mof_C 	C 	0.6493	0.7482	0.11	0.124
Mof_H 	H 	0.7014	0.727	0.1302	-0.015
Mof_C 	C 	0.6102	0.6398	0.0701	-0.203
Mof_H 	H 	0.6352	0.5452	0.064	0.103
Mof_C 	C 	0.5329	0.6735	0.0391	0.177
Mof_C 	C 	0.497	0.8157	0.0466	-0.21
Mof_H 	H 	0.4467	0.8395	0.0241	0.109
Mof_C 	C 	0.5359	0.9228	0.0878	0.121
Mof_H 	H 	0.5111	0.0177	0.0936	-0.001
Mof_C 	C 	0.9	0.0659	0.2811	0.564
Mof_C 	C 	0.9913	0.0718	0.2984	-0.266
Mof_C 	C 	0.0306	0.9589	0.3375	0.183
Mof_H 	H 	0.9993	0.8815	0.3544	-0.013
Mof_C 	C 	0.1147	0.9607	0.3511	-0.262
Mof_H 	H 	0.1398	0.8871	0.3786	0.129
Mof_C 	C 	0.1612	0.0681	0.3252	0.201
Mof_C 	C 	0.1244	0.1858	0.2874	-0.239
Mof_H 	H 	0.1569	0.263	0.2716	0.126
Mof_C 	C 	0.0383	0.1873	0.2734	0.171
Mof_H 	H 	0.013	0.2643	0.2477	-0.02
Mof_C 	C 	0.6429	0.0816	0.3211	0.53
Mof_C 	C 	0.5514	0.0922	0.3254	-0.255
Mof_C 	C 	0.5084	0.9837	0.3585	0.164
Mof_H 	H 	0.5368	0.9055	0.3813	-0.027
Mof_C 	C 	0.4213	0.9933	0.357	-0.237
Mof_H 	H 	0.3925	0.9216	0.3795	0.119
Mof_C 	C 	0.379	0.1063	0.3231	0.191
Mof_C 	C 	0.4221	0.2151	0.2917	-0.244
Mof_H 	H 	0.3934	0.2944	0.2697	0.126
Mof_C 	C 	0.5072	0.2089	0.2922	0.174
Mof_H 	H 	0.5353	0.2829	0.2703	-0.024
_end
