data_functionalizedCrystal
_audit_creation_method	'EQeq! by Chris Wilmer'
_symmetry_space_group_name_H-M	'P1'
_symmetry_Int_Tables_number	1
_symmetry_cell_setting	triclinic
loop_
_symmetry_equiv_pos_as_xyz
  x,y,z
_cell_length_a	18.7387
_cell_length_b	18.7387
_cell_length_c	37.4863
_cell_angle_alpha	90
_cell_angle_beta	90
_cell_angle_gamma	120
loop_
_atom_site_label
_atom_site_type_symbol
_atom_site_fract_x
_atom_site_fract_y
_atom_site_fract_z
_atom_site_charge
Mof_C 	C 	0.47021	0.40133	0.58897	-0.011
Mof_H 	H 	0.4211	0.3624	0.5772	0.059
Mof_C 	C 	0.4854	0.38656	0.62322	-0.083
Mof_C 	C 	0.42713	0.30607	0.64074	0.363
Mof_C 	C 	0.5432	0.5672	0.52306	0.133
Mof_H 	H 	0.5683	0.6135	0.5386	0
Mof_N 	N 	0.5741	0.535	0.51275	-0.153
Mof_O 	O 	0.44469	0.29495	0.6718	-0.403
Mof_O 	O 	0.36607	0.25636	0.62271	-0.409
Mof_C 	C 	0.13688	0.73466	0.9223	-0.011
Mof_H 	H 	0.08777	0.69573	0.91053	0.059
Mof_C 	C 	0.15207	0.71989	0.95655	-0.083
Mof_C 	C 	0.0938	0.6394	0.97407	0.364
Mof_C 	C 	0.20987	0.90053	0.85639	0.133
Mof_H 	H 	0.23497	0.94683	0.87193	0
Mof_N 	N 	0.24077	0.86833	0.84608	-0.153
Mof_O 	O 	0.11136	0.62828	0.00513	-0.403
Mof_O 	O 	0.03274	0.58969	0.95604	-0.409
Mof_C 	C 	0.80354	0.068	0.25564	-0.011
Mof_H 	H 	0.75443	0.02907	0.24387	0.059
Mof_C 	C 	0.81873	0.05323	0.28989	-0.082
Mof_C 	C 	0.76046	0.97274	0.30741	0.363
Mof_C 	C 	0.87653	0.23387	0.18973	0.133
Mof_H 	H 	0.90163	0.28017	0.20527	0
Mof_N 	N 	0.90743	0.20167	0.17942	-0.154
Mof_O 	O 	0.77802	0.96162	0.33847	-0.404
Mof_O 	O 	0.6994	0.92303	0.28938	-0.41
Mof_C 	C 	0.59867	0.06888	0.58897	-0.012
Mof_H 	H 	0.6376	0.0587	0.5772	0.058
Mof_C 	C 	0.61344	0.09884	0.62322	-0.084
Mof_C 	C 	0.69393	0.12106	0.64074	0.362
Mof_C 	C 	0.4328	0.976	0.52306	0.132
Mof_H 	H 	0.3865	0.9548	0.5386	-0.001
Mof_N 	N 	0.465	0.0391	0.51275	-0.154
Mof_O 	O 	0.70505	0.14974	0.6718	-0.404
Mof_O 	O 	0.74364	0.10971	0.62271	-0.41
Mof_C 	C 	0.26534	0.40221	0.9223	-0.012
Mof_H 	H 	0.30427	0.39203	0.91053	0.058
Mof_C 	C 	0.28011	0.43217	0.95655	-0.084
Mof_C 	C 	0.3606	0.45439	0.97407	0.362
Mof_C 	C 	0.09947	0.30933	0.85639	0.132
Mof_H 	H 	0.05317	0.28813	0.87193	-0.001
Mof_N 	N 	0.13167	0.37243	0.84608	-0.154
Mof_O 	O 	0.37172	0.48307	0.00513	-0.404
Mof_O 	O 	0.41031	0.44304	0.95604	-0.41
Mof_C 	C 	0.932	0.73555	0.25564	-0.012
Mof_H 	H 	0.97093	0.72537	0.24387	0.058
Mof_C 	C 	0.94677	0.76551	0.28989	-0.083
Mof_C 	C 	0.02726	0.78773	0.30741	0.362
Mof_C 	C 	0.76613	0.64267	0.18973	0.132
Mof_H 	H 	0.71983	0.62147	0.20527	-0.001
Mof_N 	N 	0.79833	0.70577	0.17942	-0.154
Mof_O 	O 	0.03838	0.81641	0.33847	-0.404
Mof_O 	O 	0.07697	0.77638	0.28938	-0.41
Mof_C 	C 	0.93112	0.52979	0.58897	-0.012
Mof_H 	H 	0.9413	0.5789	0.5772	0.058
Mof_C 	C 	0.90116	0.5146	0.62322	-0.084
Mof_C 	C 	0.87894	0.57287	0.64074	0.362
Mof_C 	C 	0.024	0.4568	0.52306	0.132
Mof_H 	H 	0.0452	0.4317	0.5386	-0.001
Mof_N 	N 	0.9609	0.4259	0.51275	-0.154
Mof_O 	O 	0.85026	0.55531	0.6718	-0.404
Mof_O 	O 	0.89029	0.63393	0.62271	-0.41
Mof_C 	C 	0.59779	0.86312	0.9223	-0.012
Mof_H 	H 	0.60797	0.91223	0.91053	0.058
Mof_C 	C 	0.56783	0.84793	0.95655	-0.084
Mof_C 	C 	0.54561	0.9062	0.97407	0.362
Mof_C 	C 	0.69067	0.79013	0.85639	0.132
Mof_H 	H 	0.71187	0.76503	0.87193	-0.001
Mof_N 	N 	0.62757	0.75923	0.84608	-0.154
Mof_O 	O 	0.51693	0.88864	0.00513	-0.404
Mof_O 	O 	0.55696	0.96726	0.95604	-0.41
Mof_C 	C 	0.26445	0.19646	0.25564	-0.012
Mof_H 	H 	0.27463	0.24557	0.24387	0.058
Mof_C 	C 	0.23449	0.18127	0.28989	-0.084
Mof_C 	C 	0.21227	0.23954	0.30741	0.362
Mof_C 	C 	0.35733	0.12347	0.18973	0.132
Mof_H 	H 	0.37853	0.09837	0.20527	-0.001
Mof_N 	N 	0.29423	0.09257	0.17942	-0.154
Mof_O 	O 	0.18359	0.22198	0.33847	-0.404
Mof_O 	O 	0.22362	0.3006	0.28938	-0.41
Mof_C 	C 	0.40133	0.47021	0.41103	-0.012
Mof_H 	H 	0.3624	0.4211	0.4228	0.058
Mof_C 	C 	0.38656	0.4854	0.37678	-0.084
Mof_C 	C 	0.30607	0.42713	0.35926	0.362
Mof_C 	C 	0.5672	0.5432	0.47694	0.132
Mof_H 	H 	0.6135	0.5683	0.4614	-0.001
Mof_N 	N 	0.535	0.5741	0.48725	-0.154
Mof_O 	O 	0.29495	0.44469	0.3282	-0.404
Mof_O 	O 	0.25636	0.36607	0.37729	-0.41
Mof_C 	C 	0.068	0.80354	0.74436	-0.012
Mof_H 	H 	0.02907	0.75443	0.75613	0.058
Mof_C 	C 	0.05323	0.81873	0.71011	-0.083
Mof_C 	C 	0.97274	0.76046	0.69259	0.362
Mof_C 	C 	0.23387	0.87653	0.81027	0.132
Mof_H 	H 	0.28017	0.90163	0.79473	-0.001
Mof_N 	N 	0.20167	0.90743	0.82058	-0.154
Mof_O 	O 	0.96162	0.77802	0.66153	-0.404
Mof_O 	O 	0.92303	0.6994	0.71062	-0.41
Mof_C 	C 	0.73466	0.13688	0.0777	-0.012
Mof_H 	H 	0.69573	0.08777	0.08947	0.058
Mof_C 	C 	0.71989	0.15207	0.04345	-0.084
Mof_C 	C 	0.6394	0.0938	0.02593	0.363
Mof_C 	C 	0.90053	0.20987	0.14361	0.132
Mof_H 	H 	0.94683	0.23497	0.12807	-0.001
Mof_N 	N 	0.86833	0.24077	0.15392	-0.154
Mof_O 	O 	0.62828	0.11136	0.99487	-0.404
Mof_O 	O 	0.58969	0.03274	0.04396	-0.41
Mof_C 	C 	0.06888	0.59867	0.41103	-0.012
Mof_H 	H 	0.0587	0.6376	0.4228	0.058
Mof_C 	C 	0.09884	0.61344	0.37678	-0.084
Mof_C 	C 	0.12106	0.69393	0.35926	0.362
Mof_C 	C 	0.976	0.4328	0.47694	0.132
Mof_H 	H 	0.9548	0.3865	0.4614	-0.001
Mof_N 	N 	0.0391	0.465	0.48725	-0.154
Mof_O 	O 	0.14974	0.70505	0.3282	-0.404
Mof_O 	O 	0.10971	0.74364	0.37729	-0.41
Mof_C 	C 	0.73555	0.932	0.74436	-0.012
Mof_H 	H 	0.72537	0.97093	0.75613	0.058
Mof_C 	C 	0.76551	0.94677	0.71011	-0.083
Mof_C 	C 	0.78773	0.02726	0.69259	0.362
Mof_C 	C 	0.64267	0.76613	0.81027	0.132
Mof_H 	H 	0.62147	0.71983	0.79473	-0.001
Mof_N 	N 	0.70577	0.79833	0.82058	-0.154
Mof_O 	O 	0.81641	0.03838	0.66153	-0.404
Mof_O 	O 	0.77638	0.07697	0.71062	-0.41
Mof_C 	C 	0.40221	0.26534	0.0777	-0.012
Mof_H 	H 	0.39203	0.30427	0.08947	0.058
Mof_C 	C 	0.43217	0.28011	0.04345	-0.084
Mof_C 	C 	0.45439	0.3606	0.02593	0.362
Mof_C 	C 	0.30933	0.09947	0.14361	0.132
Mof_H 	H 	0.28813	0.05317	0.12807	-0.001
Mof_N 	N 	0.37243	0.13167	0.15392	-0.154
Mof_O 	O 	0.48307	0.37172	0.99487	-0.404
Mof_O 	O 	0.44304	0.41031	0.04396	-0.41
Mof_C 	C 	0.52979	0.93112	0.41103	-0.012
Mof_H 	H 	0.5789	0.9413	0.4228	0.058
Mof_C 	C 	0.5146	0.90116	0.37678	-0.084
Mof_C 	C 	0.57287	0.87894	0.35926	0.362
Mof_C 	C 	0.4568	0.024	0.47694	0.132
Mof_H 	H 	0.4317	0.0452	0.4614	-0.001
Mof_N 	N 	0.4259	0.9609	0.48725	-0.154
Mof_O 	O 	0.55531	0.85026	0.3282	-0.404
Mof_O 	O 	0.63393	0.89029	0.37729	-0.41
Mof_C 	C 	0.19646	0.26445	0.74436	-0.012
Mof_H 	H 	0.24557	0.27463	0.75613	0.058
Mof_C 	C 	0.18127	0.23449	0.71011	-0.084
Mof_C 	C 	0.23954	0.21227	0.69259	0.362
Mof_C 	C 	0.12347	0.35733	0.81027	0.132
Mof_H 	H 	0.09837	0.37853	0.79473	-0.001
Mof_N 	N 	0.09257	0.29423	0.82058	-0.154
Mof_O 	O 	0.22198	0.18359	0.66153	-0.404
Mof_O 	O 	0.3006	0.22362	0.71062	-0.41
Mof_C 	C 	0.86312	0.59779	0.0777	-0.012
Mof_H 	H 	0.91223	0.60797	0.08947	0.058
Mof_C 	C 	0.84793	0.56783	0.04345	-0.084
Mof_C 	C 	0.9062	0.54561	0.02593	0.362
Mof_C 	C 	0.79013	0.69067	0.14361	0.132
Mof_H 	H 	0.76503	0.71187	0.12807	-0.001
Mof_N 	N 	0.75923	0.62757	0.15392	-0.154
Mof_O 	O 	0.88864	0.51693	0.99487	-0.404
Mof_O 	O 	0.96726	0.55696	0.04396	-0.41
Mof_C 	C 	0.52979	0.59867	0.41103	-0.012
Mof_H 	H 	0.5789	0.6376	0.4228	0.058
Mof_C 	C 	0.5146	0.61344	0.37678	-0.084
Mof_C 	C 	0.57287	0.69393	0.35926	0.362
Mof_C 	C 	0.4568	0.4328	0.47694	0.132
Mof_H 	H 	0.4317	0.3865	0.4614	-0.001
Mof_N 	N 	0.4259	0.465	0.48725	-0.154
Mof_O 	O 	0.55531	0.70505	0.3282	-0.404
Mof_O 	O 	0.63393	0.74364	0.37729	-0.41
Mof_C 	C 	0.19646	0.932	0.74436	-0.012
Mof_H 	H 	0.24557	0.97093	0.75613	0.058
Mof_C 	C 	0.18127	0.94677	0.71011	-0.083
Mof_C 	C 	0.23954	0.02726	0.69259	0.362
Mof_C 	C 	0.12347	0.76613	0.81027	0.132
Mof_H 	H 	0.09837	0.71983	0.79473	-0.001
Mof_N 	N 	0.09257	0.79833	0.82058	-0.154
Mof_O 	O 	0.22198	0.03838	0.66153	-0.404
Mof_O 	O 	0.3006	0.07697	0.71062	-0.41
Mof_C 	C 	0.86312	0.26534	0.0777	-0.012
Mof_H 	H 	0.91223	0.30427	0.08947	0.058
Mof_C 	C 	0.84793	0.28011	0.04345	-0.084
Mof_C 	C 	0.9062	0.3606	0.02593	0.363
Mof_C 	C 	0.79013	0.09947	0.14361	0.132
Mof_H 	H 	0.76503	0.05317	0.12807	-0.001
Mof_N 	N 	0.75923	0.13167	0.15392	-0.154
Mof_O 	O 	0.88864	0.37172	0.99487	-0.404
Mof_O 	O 	0.96726	0.41031	0.04396	-0.41
Mof_C 	C 	0.40133	0.93112	0.41103	-0.012
Mof_H 	H 	0.3624	0.9413	0.4228	0.058
Mof_C 	C 	0.38656	0.90116	0.37678	-0.084
Mof_C 	C 	0.30607	0.87894	0.35926	0.362
Mof_C 	C 	0.5672	0.024	0.47694	0.132
Mof_H 	H 	0.6135	0.0452	0.4614	-0.001
Mof_N 	N 	0.535	0.9609	0.48725	-0.154
Mof_O 	O 	0.29495	0.85026	0.3282	-0.404
Mof_O 	O 	0.25636	0.89029	0.37729	-0.41
Mof_C 	C 	0.068	0.26445	0.74436	-0.012
Mof_H 	H 	0.02907	0.27463	0.75613	0.058
Mof_C 	C 	0.05323	0.23449	0.71011	-0.083
Mof_C 	C 	0.97274	0.21227	0.69259	0.362
Mof_C 	C 	0.23387	0.35733	0.81027	0.132
Mof_H 	H 	0.28017	0.37853	0.79473	-0.001
Mof_N 	N 	0.20167	0.29423	0.82058	-0.154
Mof_O 	O 	0.96162	0.18359	0.66153	-0.404
Mof_O 	O 	0.92303	0.22362	0.71062	-0.41
Mof_C 	C 	0.73466	0.59779	0.0777	-0.012
Mof_H 	H 	0.69573	0.60797	0.08947	0.058
Mof_C 	C 	0.71989	0.56783	0.04345	-0.084
Mof_C 	C 	0.6394	0.54561	0.02593	0.362
Mof_C 	C 	0.90053	0.69067	0.14361	0.132
Mof_H 	H 	0.94683	0.71187	0.12807	-0.001
Mof_N 	N 	0.86833	0.62757	0.15392	-0.154
Mof_O 	O 	0.62828	0.51693	0.99487	-0.404
Mof_O 	O 	0.58969	0.55696	0.04396	-0.41
Mof_C 	C 	0.06888	0.47021	0.41103	-0.012
Mof_H 	H 	0.0587	0.4211	0.4228	0.058
Mof_C 	C 	0.09884	0.4854	0.37678	-0.084
Mof_C 	C 	0.12106	0.42713	0.35926	0.362
Mof_C 	C 	0.976	0.5432	0.47694	0.132
Mof_H 	H 	0.9548	0.5683	0.4614	-0.001
Mof_N 	N 	0.0391	0.5741	0.48725	-0.154
Mof_O 	O 	0.14974	0.44469	0.3282	-0.404
Mof_O 	O 	0.10971	0.36607	0.37729	-0.41
Mof_C 	C 	0.73555	0.80354	0.74436	-0.012
Mof_H 	H 	0.72537	0.75443	0.75613	0.058
Mof_C 	C 	0.76551	0.81873	0.71011	-0.084
Mof_C 	C 	0.78773	0.76046	0.69259	0.362
Mof_C 	C 	0.64267	0.87653	0.81027	0.132
Mof_H 	H 	0.62147	0.90163	0.79473	-0.001
Mof_N 	N 	0.70577	0.90743	0.82058	-0.154
Mof_O 	O 	0.81641	0.77802	0.66153	-0.404
Mof_O 	O 	0.77638	0.6994	0.71062	-0.41
Mof_C 	C 	0.40221	0.13688	0.0777	-0.012
Mof_H 	H 	0.39203	0.08777	0.08947	0.058
Mof_C 	C 	0.43217	0.15207	0.04345	-0.084
Mof_C 	C 	0.45439	0.0938	0.02593	0.362
Mof_C 	C 	0.30933	0.20987	0.14361	0.132
Mof_H 	H 	0.28813	0.23497	0.12807	-0.001
Mof_N 	N 	0.37243	0.24077	0.15392	-0.154
Mof_O 	O 	0.48307	0.11136	0.99487	-0.404
Mof_O 	O 	0.44304	0.03274	0.04396	-0.41
Mof_C 	C 	0.59867	0.52979	0.58897	-0.012
Mof_H 	H 	0.6376	0.5789	0.5772	0.058
Mof_C 	C 	0.61344	0.5146	0.62322	-0.084
Mof_C 	C 	0.69393	0.57287	0.64074	0.362
Mof_C 	C 	0.4328	0.4568	0.52306	0.132
Mof_H 	H 	0.3865	0.4317	0.5386	-0.001
Mof_N 	N 	0.465	0.4259	0.51275	-0.154
Mof_O 	O 	0.70505	0.55531	0.6718	-0.404
Mof_O 	O 	0.74364	0.63393	0.62271	-0.41
Mof_C 	C 	0.26534	0.86312	0.9223	-0.012
Mof_H 	H 	0.30427	0.91223	0.91053	0.058
Mof_C 	C 	0.28011	0.84793	0.95655	-0.084
Mof_C 	C 	0.3606	0.9062	0.97407	0.363
Mof_C 	C 	0.09947	0.79013	0.85639	0.132
Mof_H 	H 	0.05317	0.76503	0.87193	-0.001
Mof_N 	N 	0.13167	0.75923	0.84608	-0.154
Mof_O 	O 	0.37172	0.88864	0.00513	-0.404
Mof_O 	O 	0.41031	0.96726	0.95604	-0.41
Mof_C 	C 	0.932	0.19646	0.25564	-0.012
Mof_H 	H 	0.97093	0.24557	0.24387	0.058
Mof_C 	C 	0.94677	0.18127	0.28989	-0.083
Mof_C 	C 	0.02726	0.23954	0.30741	0.362
Mof_C 	C 	0.76613	0.12347	0.18973	0.132
Mof_H 	H 	0.71983	0.09837	0.20527	-0.001
Mof_N 	N 	0.79833	0.09257	0.17942	-0.154
Mof_O 	O 	0.03838	0.22198	0.33847	-0.404
Mof_O 	O 	0.07697	0.3006	0.28938	-0.41
Mof_C 	C 	0.93112	0.40133	0.58897	-0.012
Mof_H 	H 	0.9413	0.3624	0.5772	0.058
Mof_C 	C 	0.90116	0.38656	0.62322	-0.084
Mof_C 	C 	0.87894	0.30607	0.64074	0.362
Mof_C 	C 	0.024	0.5672	0.52306	0.132
Mof_H 	H 	0.0452	0.6135	0.5386	-0.001
Mof_N 	N 	0.9609	0.535	0.51275	-0.154
Mof_O 	O 	0.85026	0.29495	0.6718	-0.404
Mof_O 	O 	0.89029	0.25636	0.62271	-0.41
Mof_C 	C 	0.59779	0.73466	0.9223	-0.012
Mof_H 	H 	0.60797	0.69573	0.91053	0.058
Mof_C 	C 	0.56783	0.71989	0.95655	-0.084
Mof_C 	C 	0.54561	0.6394	0.97407	0.362
Mof_C 	C 	0.69067	0.90053	0.85639	0.132
Mof_H 	H 	0.71187	0.94683	0.87193	-0.001
Mof_N 	N 	0.62757	0.86833	0.84608	-0.154
Mof_O 	O 	0.51693	0.62828	0.00513	-0.404
Mof_O 	O 	0.55696	0.58969	0.95604	-0.41
Mof_C 	C 	0.26445	0.068	0.25564	-0.012
Mof_H 	H 	0.27463	0.02907	0.24387	0.058
Mof_C 	C 	0.23449	0.05323	0.28989	-0.083
Mof_C 	C 	0.21227	0.97274	0.30741	0.362
Mof_C 	C 	0.35733	0.23387	0.18973	0.132
Mof_H 	H 	0.37853	0.28017	0.20527	-0.001
Mof_N 	N 	0.29423	0.20167	0.17942	-0.154
Mof_O 	O 	0.18359	0.96162	0.33847	-0.404
Mof_O 	O 	0.22362	0.92303	0.28938	-0.41
Mof_C 	C 	0.47021	0.06888	0.58897	-0.012
Mof_H 	H 	0.4211	0.0587	0.5772	0.058
Mof_C 	C 	0.4854	0.09884	0.62322	-0.084
Mof_C 	C 	0.42713	0.12106	0.64074	0.362
Mof_C 	C 	0.5432	0.976	0.52306	0.132
Mof_H 	H 	0.5683	0.9548	0.5386	-0.001
Mof_N 	N 	0.5741	0.0391	0.51275	-0.154
Mof_O 	O 	0.44469	0.14974	0.6718	-0.404
Mof_O 	O 	0.36607	0.10971	0.62271	-0.41
Mof_C 	C 	0.13688	0.40221	0.9223	-0.012
Mof_H 	H 	0.08777	0.39203	0.91053	0.058
Mof_C 	C 	0.15207	0.43217	0.95655	-0.084
Mof_C 	C 	0.0938	0.45439	0.97407	0.362
Mof_C 	C 	0.20987	0.30933	0.85639	0.132
Mof_H 	H 	0.23497	0.28813	0.87193	-0.001
Mof_N 	N 	0.24077	0.37243	0.84608	-0.154
Mof_O 	O 	0.11136	0.48307	0.00513	-0.404
Mof_O 	O 	0.03274	0.44304	0.95604	-0.41
Mof_C 	C 	0.80354	0.73555	0.25564	-0.012
Mof_H 	H 	0.75443	0.72537	0.24387	0.058
Mof_C 	C 	0.81873	0.76551	0.28989	-0.084
Mof_C 	C 	0.76046	0.78773	0.30741	0.362
Mof_C 	C 	0.87653	0.64267	0.18973	0.132
Mof_H 	H 	0.90163	0.62147	0.20527	-0.001
Mof_N 	N 	0.90743	0.70577	0.17942	-0.154
Mof_O 	O 	0.77802	0.81641	0.33847	-0.404
Mof_O 	O 	0.6994	0.77638	0.28938	-0.41
Mof_C 	C 	0.512	0.488	0.53467	0.032
Mof_C 	C 	0.5267	0.4733	0.57142	0.001
Mof_C 	C 	0.55688	0.44312	0.64049	0.03
Mof_H 	H 	0.5671	0.4329	0.6642	0.053
Mof_C 	C 	0.17867	0.82133	0.868	0.032
Mof_C 	C 	0.19337	0.80663	0.90475	0.001
Mof_C 	C 	0.22355	0.77645	0.97382	0.03
Mof_H 	H 	0.23377	0.76623	0.99753	0.053
Mof_C 	C 	0.84533	0.15467	0.20134	0.032
Mof_C 	C 	0.86003	0.13997	0.23809	0.001
Mof_C 	C 	0.89021	0.10979	0.30716	0.03
Mof_H 	H 	0.90043	0.09957	0.33087	0.053
Mof_C 	C 	0.512	0.024	0.53467	0.032
Mof_C 	C 	0.5267	0.0534	0.57142	0.001
Mof_C 	C 	0.55688	0.11376	0.64049	0.03
Mof_H 	H 	0.5671	0.1342	0.6642	0.053
Mof_C 	C 	0.17867	0.35733	0.868	0.032
Mof_C 	C 	0.19337	0.38673	0.90475	0.001
Mof_C 	C 	0.22355	0.44709	0.97382	0.03
Mof_H 	H 	0.23377	0.46753	0.99753	0.053
Mof_C 	C 	0.84533	0.69067	0.20134	0.032
Mof_C 	C 	0.86003	0.72007	0.23809	0.001
Mof_C 	C 	0.89021	0.78043	0.30716	0.03
Mof_H 	H 	0.90043	0.80087	0.33087	0.053
Mof_C 	C 	0.976	0.488	0.53467	0.032
Mof_C 	C 	0.9466	0.4733	0.57142	0.001
Mof_C 	C 	0.88624	0.44312	0.64049	0.03
Mof_H 	H 	0.8658	0.4329	0.6642	0.053
Mof_C 	C 	0.64267	0.82133	0.868	0.032
Mof_C 	C 	0.61327	0.80663	0.90475	0.001
Mof_C 	C 	0.55291	0.77645	0.97382	0.03
Mof_H 	H 	0.53247	0.76623	0.99753	0.053
Mof_C 	C 	0.30933	0.15467	0.20134	0.032
Mof_C 	C 	0.27993	0.13997	0.23809	0.001
Mof_C 	C 	0.21957	0.10979	0.30716	0.03
Mof_H 	H 	0.19913	0.09957	0.33087	0.053
Mof_C 	C 	0.488	0.512	0.46533	0.032
Mof_C 	C 	0.4733	0.5267	0.42858	0.001
Mof_C 	C 	0.44312	0.55688	0.35951	0.03
Mof_H 	H 	0.4329	0.5671	0.3358	0.053
Mof_C 	C 	0.15467	0.84533	0.79866	0.032
Mof_C 	C 	0.13997	0.86003	0.76191	0.001
Mof_C 	C 	0.10979	0.89021	0.69284	0.03
Mof_H 	H 	0.09957	0.90043	0.66913	0.053
Mof_C 	C 	0.82133	0.17867	0.132	0.032
Mof_C 	C 	0.80663	0.19337	0.09525	0.001
Mof_C 	C 	0.77645	0.22355	0.02618	0.03
Mof_H 	H 	0.76623	0.23377	0.00247	0.053
Mof_C 	C 	0.024	0.512	0.46533	0.032
Mof_C 	C 	0.0534	0.5267	0.42858	0.001
Mof_C 	C 	0.11376	0.55688	0.35951	0.03
Mof_H 	H 	0.1342	0.5671	0.3358	0.053
Mof_C 	C 	0.69067	0.84533	0.79866	0.032
Mof_C 	C 	0.72007	0.86003	0.76191	0.001
Mof_C 	C 	0.78043	0.89021	0.69284	0.03
Mof_H 	H 	0.80087	0.90043	0.66913	0.053
Mof_C 	C 	0.35733	0.17867	0.132	0.032
Mof_C 	C 	0.38673	0.19337	0.09525	0.001
Mof_C 	C 	0.44709	0.22355	0.02618	0.03
Mof_H 	H 	0.46753	0.23377	0.00247	0.053
Mof_C 	C 	0.488	0.976	0.46533	0.032
Mof_C 	C 	0.4733	0.9466	0.42858	0.001
Mof_C 	C 	0.44312	0.88624	0.35951	0.03
Mof_H 	H 	0.4329	0.8658	0.3358	0.053
Mof_C 	C 	0.15467	0.30933	0.79866	0.032
Mof_C 	C 	0.13997	0.27993	0.76191	0.001
Mof_C 	C 	0.10979	0.21957	0.69284	0.03
Mof_H 	H 	0.09957	0.19913	0.66913	0.053
Mof_C 	C 	0.82133	0.64267	0.132	0.032
Mof_C 	C 	0.80663	0.61327	0.09525	0.001
Mof_C 	C 	0.77645	0.55291	0.02618	0.03
Mof_H 	H 	0.76623	0.53247	0.00247	0.053
Mof_Cu	Cu	0.37924	0.18962	0.6961	0.908
Mof_Cu	Cu	0.04591	0.52295	0.02943	0.908
Mof_Cu	Cu	0.71257	0.85629	0.36276	0.908
Mof_Cu	Cu	0.81038	0.18962	0.6961	0.908
Mof_Cu	Cu	0.47705	0.52295	0.02943	0.908
Mof_Cu	Cu	0.14371	0.85629	0.36276	0.908
Mof_Cu	Cu	0.81038	0.62076	0.6961	0.908
Mof_Cu	Cu	0.47705	0.95409	0.02943	0.908
Mof_Cu	Cu	0.14371	0.28743	0.36276	0.908
Mof_Cu	Cu	0.18962	0.37924	0.3039	0.908
Mof_Cu	Cu	0.85629	0.71257	0.63724	0.908
Mof_Cu	Cu	0.52295	0.04591	0.97057	0.908
Mof_Cu	Cu	0.18962	0.81038	0.3039	0.908
Mof_Cu	Cu	0.85629	0.14371	0.63724	0.908
Mof_Cu	Cu	0.52295	0.47705	0.97057	0.908
Mof_Cu	Cu	0.62076	0.81038	0.3039	0.908
Mof_Cu	Cu	0.28743	0.14371	0.63724	0.908
Mof_Cu	Cu	0.95409	0.47705	0.97057	0.908
_end
