data_functionalizedCrystal
_audit_creation_method	'EQeq! by Chris Wilmer'
_symmetry_space_group_name_H-M	'P1'
_symmetry_Int_Tables_number	1
_symmetry_cell_setting	triclinic
loop_
_symmetry_equiv_pos_as_xyz
  x,y,z
_cell_length_a	9.2414
_cell_length_b	10.304
_cell_length_c	12.8291
_cell_angle_alpha	76.388
_cell_angle_beta	69.431
_cell_angle_gamma	86.377
loop_
_atom_site_label
_atom_site_type_symbol
_atom_site_fract_x
_atom_site_fract_y
_atom_site_fract_z
_atom_site_charge
Mof_Dy	Dy	0.45968	0.25111	0.99767	1.935
Mof_O 	O 	0.4603	0.8644	0.1454	-0.547
Mof_O 	O 	0.5885	0.5512	0.1141	-0.518
Mof_O 	O 	0.3371	0.058	0.1244	-0.507
Mof_N 	N 	0.1003	0.854	0.5426	-0.114
Mof_N 	N 	0.3732	0.357	0.5355	-0.115
Mof_C 	C 	0.5075	0.4476	0.1684	0.47
Mof_C 	C 	0.0667	0.959	0.473	0.053
Mof_C 	C 	0.1509	0.9953	0.3559	-0.051
Mof_H 	H 	0.1263	0.0731	0.3091	0.074
Mof_C 	C 	0.4707	0.4606	0.4696	0.045
Mof_C 	C 	0.2198	0.7804	0.4971	0.021
Mof_H 	H 	0.2459	0.7061	0.5465	0.041
Mof_C 	C 	0.5145	0.4933	0.3511	-0.029
Mof_H 	H 	0.5803	0.5686	0.3072	0.056
Mof_C 	C 	0.4607	0.4145	0.2979	-0.111
Mof_C 	C 	0.3632	0.9481	0.1836	0.43
Mof_C 	C 	0.2716	0.9147	0.3096	-0.098
Mof_C 	C 	0.3594	0.3086	0.3648	-0.016
Mof_H 	H 	0.3188	0.2535	0.3313	0.042
Mof_C 	C 	0.3198	0.2863	0.483	0.019
Mof_H 	H 	0.2491	0.215	0.5292	0.038
Mof_C 	C 	0.309	0.807	0.3801	-0.024
Mof_H 	H 	0.3927	0.7519	0.3509	0.044
Mof_O 	O 	0.2255	0.218	0.9587	-0.272
Mof_O 	O 	0.1872	0.3025	0.1027	-0.256
Mof_N 	N 	0.1313	0.2581	0.0429	0.079
Mof_O 	O 	0.9895	0.2533	0.0625	-0.127
Mof_O 	O 	0.462	0.3668	0.1274	-0.566
Mof_Dy	Dy	0.54032	0.74889	0.00233	1.936
Mof_O 	O 	0.5397	0.1356	0.8546	-0.546
Mof_O 	O 	0.4115	0.4488	0.8859	-0.517
Mof_O 	O 	0.6629	0.942	0.8756	-0.506
Mof_N 	N 	0.8997	0.146	0.4574	-0.113
Mof_N 	N 	0.6268	0.643	0.4645	-0.114
Mof_C 	C 	0.4925	0.5524	0.8316	0.471
Mof_C 	C 	0.9333	0.041	0.527	0.054
Mof_C 	C 	0.8491	0.0047	0.6441	-0.051
Mof_H 	H 	0.8737	0.9269	0.6909	0.074
Mof_C 	C 	0.5293	0.5394	0.5304	0.045
Mof_C 	C 	0.7802	0.2196	0.5029	0.021
Mof_H 	H 	0.7541	0.2939	0.4535	0.041
Mof_C 	C 	0.4855	0.5067	0.6489	-0.029
Mof_H 	H 	0.4197	0.4314	0.6928	0.056
Mof_C 	C 	0.5393	0.5855	0.7021	-0.111
Mof_C 	C 	0.6368	0.0519	0.8164	0.43
Mof_C 	C 	0.7284	0.0853	0.6904	-0.098
Mof_C 	C 	0.6406	0.6914	0.6352	-0.016
Mof_H 	H 	0.6812	0.7465	0.6687	0.042
Mof_C 	C 	0.6802	0.7137	0.517	0.019
Mof_H 	H 	0.7509	0.785	0.4708	0.038
Mof_C 	C 	0.691	0.193	0.6199	-0.024
Mof_H 	H 	0.6073	0.2481	0.6491	0.044
Mof_O 	O 	0.7745	0.782	0.0413	-0.272
Mof_O 	O 	0.8128	0.6975	0.8973	-0.256
Mof_N 	N 	0.8687	0.7419	0.9571	0.079
Mof_O 	O 	0.0105	0.7467	0.9375	-0.127
Mof_O 	O 	0.538	0.6332	0.8726	-0.566
_end
