data_functionalizedCrystal
_audit_creation_method	'EQeq! by Chris Wilmer'
_symmetry_space_group_name_H-M	'P1'
_symmetry_Int_Tables_number	1
_symmetry_cell_setting	triclinic
loop_
_symmetry_equiv_pos_as_xyz
  x,y,z
_cell_length_a	8.5466
_cell_length_b	10.1703
_cell_length_c	11.1921
_cell_angle_alpha	65.531
_cell_angle_beta	71.886
_cell_angle_gamma	78.796
loop_
_atom_site_label
_atom_site_type_symbol
_atom_site_fract_x
_atom_site_fract_y
_atom_site_fract_z
_atom_site_charge
Mof_Tb	Tb	0.36688	0.06013	0.84597	1.772
Mof_O 	O 	0.3253	0.2348	0.6328	-0.405
Mof_O 	O 	0.1017	0.1984	0.8057	-0.44
Mof_O 	O 	0.5598	0.9751	0.6764	-0.408
Mof_O 	O 	0.6548	0.1191	0.7366	-0.405
Mof_O 	O 	0.3678	0.2909	0.8569	-0.44
Mof_O 	O 	0.4682	0.1313	0.0225	-0.552
Mof_C 	C 	0.9194	0.4311	0.6346	-0.021
Mof_H 	H 	0.864	0.3853	0.7251	0.042
Mof_C 	C 	0.0832	0.3895	0.5882	-0.053
Mof_C 	C 	0.1624	0.4591	0.4533	-0.027
Mof_H 	H 	0.2726	0.4319	0.4209	0.057
Mof_C 	C 	0.1752	0.268	0.681	0.296
Mof_C 	C 	0.8694	0.9306	0.508	-0.03
Mof_H 	H 	0.7823	0.8843	0.5133	0.053
Mof_C 	C 	0.8446	0.0176	0.5828	-0.06
Mof_C 	C 	0.9759	0.0859	0.5737	-0.034
Mof_H 	H 	0.9593	0.1437	0.6234	0.046
Mof_C 	C 	0.6769	0.0383	0.6695	0.299
Mof_C 	C 	0.459	0.3693	0.1091	-0.02
Mof_H 	H 	0.4313	0.2825	0.182	0.033
Mof_C 	C 	0.4678	0.3833	0.9779	-0.115
Mof_C 	C 	0.5081	0.5145	0.8692	-0.019
Mof_H 	H 	0.513	0.5243	0.7818	0.047
Mof_C 	C 	0.4335	0.2613	0.9514	0.383
Mof_Tb	Tb	0.63312	0.93987	0.15403	1.773
Mof_O 	O 	0.6747	0.7652	0.3672	-0.404
Mof_O 	O 	0.8983	0.8016	0.1943	-0.44
Mof_O 	O 	0.4402	0.0249	0.3236	-0.408
Mof_O 	O 	0.3452	0.8809	0.2634	-0.405
Mof_O 	O 	0.6322	0.7091	0.1431	-0.44
Mof_O 	O 	0.5318	0.8687	0.9775	-0.552
Mof_C 	C 	0.0806	0.5689	0.3654	-0.021
Mof_H 	H 	0.136	0.6147	0.2749	0.042
Mof_C 	C 	0.9168	0.6105	0.4118	-0.053
Mof_C 	C 	0.8376	0.5409	0.5467	-0.027
Mof_H 	H 	0.7274	0.5681	0.5791	0.057
Mof_C 	C 	0.8248	0.732	0.319	0.296
Mof_C 	C 	0.1306	0.0694	0.492	-0.03
Mof_H 	H 	0.2177	0.1157	0.4867	0.053
Mof_C 	C 	0.1554	0.9824	0.4172	-0.06
Mof_C 	C 	0.0241	0.9141	0.4263	-0.034
Mof_H 	H 	0.0407	0.8563	0.3766	0.046
Mof_C 	C 	0.3231	0.9617	0.3305	0.299
Mof_C 	C 	0.541	0.6307	0.8909	-0.02
Mof_H 	H 	0.5687	0.7175	0.818	0.033
Mof_C 	C 	0.5322	0.6167	0.0221	-0.115
Mof_C 	C 	0.4919	0.4855	0.1308	-0.019
Mof_H 	H 	0.487	0.4757	0.2182	0.047
Mof_C 	C 	0.5665	0.7387	0.0486	0.383
_end
