data_functionalizedCrystal
_audit_creation_method	'EQeq! by Chris Wilmer'
_symmetry_space_group_name_H-M	'P1'
_symmetry_Int_Tables_number	1
_symmetry_cell_setting	triclinic
loop_
_symmetry_equiv_pos_as_xyz
  x,y,z
_cell_length_a	24.6579
_cell_length_b	20.65
_cell_length_c	24.9448
_cell_angle_alpha	90
_cell_angle_beta	99.497
_cell_angle_gamma	90
loop_
_atom_site_label
_atom_site_type_symbol
_atom_site_fract_x
_atom_site_fract_y
_atom_site_fract_z
_atom_site_charge
Mof_Tb	Tb	0.78882	0.53595	0.87565	2.248
Mof_Tb	Tb	0.84195	0.37608	0.83584	2.228
Mof_Tb	Tb	0.91347	0.53422	0.80715	1.991
Mof_Tb	Tb	0.77183	0.49444	0.72319	2.339
Mof_Tb	Tb	0.68213	0.45108	0.58448	1.916
Mof_Tb	Tb	0.65775	0.61036	0.65716	2.006
Mof_Tb	Tb	0.61652	0.45177	0.70788	2.044
Mof_O 	O 	0.6191	0.5095	0.6278	-1.012
Mof_H 	H 	0.5875	0.5131	0.6083	0.274
Mof_O 	O 	0.7018	0.4255	0.684	-0.997
Mof_H 	H 	0.71	0.3859	0.69	0.343
Mof_O 	O 	0.7261	0.5371	0.6368	-0.965
Mof_H 	H 	0.7489	0.5559	0.6199	0.348
Mof_O 	O 	0.6822	0.5377	0.7312	-0.996
Mof_H 	H 	0.6811	0.555	0.7619	0.35
Mof_O 	O 	0.8567	0.4519	0.7646	-1.009
Mof_H 	H 	0.8723	0.4328	0.741	0.357
Mof_O 	O 	0.814	0.5644	0.7931	-1.012
Mof_H 	H 	0.8086	0.6043	0.7854	0.344
Mof_O 	O 	0.7654	0.4514	0.8119	-1.031
Mof_H 	H 	0.7344	0.4342	0.8136	0.353
Mof_O 	O 	0.8709	0.4792	0.8712	-1.041
Mof_H 	H 	0.8916	0.4766	0.9019	0.336
Mof_O 	O 	0.6709	0.6324	0.565	-0.562
Mof_O 	O 	0.6719	0.5359	0.5247	-0.598
Mof_O 	O 	0.6747	0.8186	0.2389	-0.425
Mof_O 	O 	0.7415	0.8341	0.1906	-0.484
Mof_O 	O 	0.0301	0.5549	0.1905	-0.602
Mof_O 	O 	0.0719	0.6517	0.1964	-0.514
Mof_O 	O 	0.7696	0.4124	0.5802	-0.563
Mof_O 	O 	0.8146	0.424	0.6641	-0.582
Mof_O 	O 	0.0942	0.1365	0.6576	-0.574
Mof_O 	O 	0.1497	0.1254	0.5974	-0.569
Mof_O 	O 	0.1718	0.4381	0.3234	-0.581
Mof_O 	O 	0.0912	0.4094	0.2729	-0.569
Mof_O 	O 	0.6526	0.0951	0.2932	-0.528
Mof_O 	O 	0.567	0.1164	0.2604	-0.476
Mof_O 	O 	0.6642	0.3424	0.6018	-0.56
Mof_O 	O 	0.6033	0.3509	0.6572	-0.557
Mof_O 	O 	0.2943	0.0916	0.6595	-0.536
Mof_O 	O 	0.2583	0.1098	0.5747	-0.469
Mof_O 	O 	0.5686	0.5338	0.7446	-0.556
Mof_O 	O 	0.5727	0.6174	0.6889	-0.564
Mof_O 	O 	0.2398	0.8059	0.685	-0.437
Mof_O 	O 	0.1886	0.8183	0.7479	-0.474
Mof_O 	O 	0.196	0.6262	0.0793	-0.563
Mof_O 	O 	0.875	0.2735	0.8793	-0.426
Mof_O 	O 	0.9181	0.3621	0.915	-0.454
Mof_C 	C 	0.6828	0.5962	0.5295	0.484
Mof_C 	C 	0.7114	0.6249	0.4848	-0.204
Mof_C 	C 	0.7331	0.584	0.4505	0.102
Mof_H 	H 	0.7313	0.5386	0.4559	-0.019
Mof_C 	C 	0.7572	0.6069	0.4088	-0.158
Mof_H 	H 	0.7729	0.5781	0.3859	0.078
Mof_C 	C 	0.7582	0.6754	0.4003	0.077
Mof_C 	C 	0.7381	0.7171	0.437	-0.155
Mof_H 	H 	0.7409	0.7627	0.4329	0.092
Mof_C 	C 	0.7142	0.6921	0.4789	0.091
Mof_H 	H 	0.6999	0.7201	0.5033	-0.001
Mof_C 	C 	0.779	0.7036	0.3519	-0.003
Mof_C 	C 	0.7457	0.744	0.3187	-0.047
Mof_H 	H 	0.7112	0.7568	0.3276	0.056
Mof_C 	C 	0.7623	0.767	0.2708	-0.057
Mof_C 	C 	0.8129	0.751	0.2583	-0.048
Mof_H 	H 	0.8251	0.7697	0.2276	0.049
Mof_C 	C 	0.8459	0.707	0.2911	-0.003
Mof_C 	C 	0.8299	0.6847	0.3374	-0.067
Mof_H 	H 	0.8532	0.656	0.3603	0.054
Mof_C 	C 	0.7236	0.8101	0.2309	0.269
Mof_C 	C 	0.8985	0.687	0.2723	0.087
Mof_C 	C 	0.9105	0.6199	0.2735	-0.153
Mof_H 	H 	0.8886	0.5906	0.29	0.077
Mof_C 	C 	0.9543	0.5971	0.2505	0.094
Mof_H 	H 	0.9619	0.5521	0.2498	-0.019
Mof_C 	C 	0.9867	0.6413	0.2287	-0.188
Mof_C 	C 	0.9766	0.7066	0.2285	0.094
Mof_H 	H 	0.9994	0.7366	0.2138	0.004
Mof_C 	C 	0.932	0.7263	0.2505	-0.16
Mof_H 	H 	0.9242	0.7713	0.2503	0.085
Mof_C 	C 	0.0341	0.6145	0.201	0.491
Mof_C 	C 	0.8105	0.403	0.6181	0.534
Mof_C 	C 	0.8563	0.3635	0.6039	-0.23
Mof_C 	C 	0.8977	0.3414	0.6453	0.114
Mof_H 	H 	0.8948	0.3474	0.6824	-0.015
Mof_C 	C 	0.9438	0.3099	0.6303	-0.173
Mof_H 	H 	0.9708	0.292	0.6579	0.088
Mof_C 	C 	0.9507	0.3046	0.5762	0.109
Mof_C 	C 	0.908	0.3235	0.5366	-0.176
Mof_H 	H 	0.9102	0.3156	0.4995	0.093
Mof_C 	C 	0.8614	0.3544	0.5501	0.117
Mof_H 	H 	0.8332	0.3691	0.5221	-0.007
Mof_C 	C 	0.002	0.2734	0.5634	-0.052
Mof_C 	C 	0.0322	0.2292	0.5936	0.024
Mof_H 	H 	0.0204	0.2136	0.6256	0.014
Mof_C 	C 	0.081	0.2051	0.5793	-0.146
Mof_C 	C 	0.0986	0.2272	0.5341	0.029
Mof_H 	H 	0.1312	0.21	0.5241	0.028
Mof_C 	C 	0.0706	0.2732	0.5033	-0.052
Mof_C 	C 	0.02	0.2967	0.5161	-0.025
Mof_H 	H 	0.9987	0.3274	0.4933	0.039
Mof_C 	C 	0.1105	0.1486	0.6128	0.473
Mof_C 	C 	0.0875	0.3036	0.4534	0.116
Mof_C 	C 	0.1404	0.3236	0.4532	-0.187
Mof_H 	H 	0.1681	0.3146	0.4836	0.096
Mof_C 	C 	0.154	0.3572	0.4084	0.13
Mof_H 	H 	0.1902	0.3737	0.4096	-0.03
Mof_C 	C 	0.1151	0.3665	0.3624	-0.221
Mof_C 	C 	0.0622	0.3434	0.3609	0.114
Mof_H 	H 	0.0353	0.3493	0.3294	-0.008
Mof_C 	C 	0.0489	0.3114	0.4066	-0.176
Mof_H 	H 	0.0129	0.2946	0.4054	0.092
Mof_C 	C 	0.1281	0.4082	0.3166	0.504
Mof_C 	C 	0.6069	0.1192	0.2982	0.367
Mof_C 	C 	0.6	0.1516	0.3495	-0.137
Mof_C 	C 	0.6421	0.1597	0.3927	0.065
Mof_H 	H 	0.6787	0.1489	0.3888	0.014
Mof_C 	C 	0.6313	0.1834	0.4414	-0.137
Mof_H 	H 	0.661	0.1901	0.4704	0.079
Mof_C 	C 	0.5783	0.1978	0.4493	0.071
Mof_C 	C 	0.5369	0.194	0.4032	-0.129
Mof_H 	H 	0.5008	0.2075	0.4067	0.056
Mof_C 	C 	0.5458	0.1722	0.3545	0.05
Mof_H 	H 	0.5168	0.1706	0.3243	0.019
Mof_C 	C 	0.5655	0.2173	0.5018	-0.043
Mof_C 	C 	0.5995	0.2578	0.538	0.01
Mof_H 	H 	0.6333	0.2723	0.5284	0.015
Mof_C 	C 	0.5859	0.2773	0.5864	-0.151
Mof_C 	C 	0.5367	0.257	0.6006	0.009
Mof_H 	H 	0.5269	0.2713	0.634	0.028
Mof_C 	C 	0.5017	0.2166	0.5675	-0.037
Mof_C 	C 	0.5157	0.1982	0.5176	-0.043
Mof_H 	H 	0.4908	0.172	0.4936	0.04
Mof_C 	C 	0.6211	0.3281	0.6188	0.459
Mof_C 	C 	0.4472	0.1941	0.5821	0.078
Mof_C 	C 	0.4435	0.1798	0.6342	-0.135
Mof_H 	H 	0.4739	0.1859	0.6626	0.082
Mof_C 	C 	0.3925	0.1551	0.6453	0.057
Mof_H 	H 	0.3881	0.1455	0.6816	0.024
Mof_C 	C 	0.3498	0.1452	0.6036	-0.132
Mof_C 	C 	0.3547	0.1622	0.5518	0.057
Mof_H 	H 	0.324	0.1576	0.5235	0.02
Mof_C 	C 	0.403	0.1854	0.54	-0.135
Mof_H 	H 	0.4065	0.1955	0.5036	0.064
Mof_C 	C 	0.2977	0.1148	0.6137	0.347
Mof_C 	C 	0.5496	0.5859	0.7223	0.458
Mof_C 	C 	0.4965	0.6106	0.7372	-0.187
Mof_C 	C 	0.4645	0.5707	0.7624	0.075
Mof_H 	H 	0.4748	0.5266	0.768	0.002
Mof_C 	C 	0.4164	0.5932	0.7806	-0.135
Mof_H 	H 	0.395	0.565	0.7987	0.072
Mof_C 	C 	0.4008	0.6596	0.7709	0.067
Mof_C 	C 	0.4349	0.6986	0.7439	-0.14
Mof_H 	H 	0.4251	0.7428	0.7378	0.083
Mof_C 	C 	0.4809	0.6766	0.7263	0.073
Mof_H 	H 	0.5021	0.7043	0.7073	0.003
Mof_C 	C 	0.3502	0.6841	0.7866	-0.004
Mof_C 	C 	0.3331	0.663	0.8356	-0.063
Mof_H 	H 	0.3556	0.6336	0.8588	0.053
Mof_C 	C 	0.2843	0.6844	0.8501	-0.001
Mof_C 	C 	0.2527	0.7307	0.8176	-0.036
Mof_H 	H 	0.2213	0.7492	0.8292	0.049
Mof_C 	C 	0.2673	0.7488	0.7695	-0.063
Mof_C 	C 	0.3159	0.7275	0.7533	-0.039
Mof_H 	H 	0.3256	0.7421	0.72	0.052
Mof_C 	C 	0.2292	0.7932	0.7316	0.298
Mof_C 	C 	0.2682	0.6619	0.9026	0.07
Mof_C 	C 	0.2775	0.5987	0.9193	-0.135
Mof_H 	H 	0.2967	0.5708	0.8986	0.072
Mof_C 	C 	0.2596	0.5738	0.9663	0.077
Mof_H 	H 	0.2664	0.53	0.9768	0.016
Mof_C 	C 	0.2315	0.6152	0.997	-0.182
Mof_C 	C 	0.22	0.6791	0.9802	0.07
Mof_H 	H 	0.2002	0.7068	0.0004	0.015
Mof_C 	C 	0.2383	0.7016	0.9332	-0.133
Mof_H 	H 	0.2303	0.7449	0.9216	0.075
Mof_C 	C 	0.2115	0.5877	0.0487	0.603
Mof_C 	C 	0.9103	0.3025	0.9149	0.362
Mof_H 	H 	0.9315	0.2773	0.9426	-0.075
Mof_O 	O 	0.1988	0.5253	0.0464	-0.38
Mof_O 	O 	0.2381	0.5368	0.0665	-0.426
Mof_Tb	Tb	0.21118	0.03595	0.62435	2.252
Mof_Tb	Tb	0.15805	0.87608	0.66416	2.229
Mof_Tb	Tb	0.08653	0.03422	0.69285	1.995
Mof_Tb	Tb	0.22817	0.99444	0.77681	2.338
Mof_Tb	Tb	0.31787	0.95108	0.91552	1.912
Mof_Tb	Tb	0.34225	0.11036	0.84284	2.008
Mof_Tb	Tb	0.38348	0.95177	0.79212	2.042
Mof_O 	O 	0.3809	0.0095	0.8722	-1.009
Mof_H 	H 	0.4125	0.0131	0.8917	0.275
Mof_O 	O 	0.2982	0.9255	0.816	-0.996
Mof_H 	H 	0.29	0.8859	0.81	0.344
Mof_O 	O 	0.2739	0.0371	0.8632	-0.962
Mof_H 	H 	0.2511	0.0559	0.8801	0.349
Mof_O 	O 	0.3178	0.0377	0.7688	-0.994
Mof_H 	H 	0.3189	0.055	0.7381	0.351
Mof_O 	O 	0.1433	0.9519	0.7354	-1.008
Mof_H 	H 	0.1277	0.9328	0.759	0.357
Mof_O 	O 	0.186	0.0644	0.7069	-1.012
Mof_H 	H 	0.1914	0.1043	0.7146	0.343
Mof_O 	O 	0.2346	0.9514	0.6881	-1.031
Mof_H 	H 	0.2656	0.9342	0.6864	0.353
Mof_O 	O 	0.1291	0.9792	0.6288	-1.042
Mof_H 	H 	0.1084	0.9766	0.5981	0.337
Mof_O 	O 	0.3291	0.1324	0.935	-0.562
Mof_O 	O 	0.3281	0.0359	0.9753	-0.596
Mof_O 	O 	0.3253	0.3186	0.2611	-0.425
Mof_O 	O 	0.2585	0.3341	0.3094	-0.484
Mof_O 	O 	0.9699	0.0549	0.3095	-0.602
Mof_O 	O 	0.9281	0.1517	0.3036	-0.514
Mof_O 	O 	0.2304	0.9124	0.9198	-0.563
Mof_O 	O 	0.1854	0.924	0.8359	-0.582
Mof_O 	O 	0.9058	0.6365	0.8424	-0.574
Mof_O 	O 	0.8503	0.6254	0.9026	-0.569
Mof_O 	O 	0.8282	0.9381	0.1766	-0.58
Mof_O 	O 	0.9088	0.9094	0.2271	-0.569
Mof_O 	O 	0.3474	0.5951	0.2068	-0.528
Mof_O 	O 	0.433	0.6164	0.2396	-0.477
Mof_O 	O 	0.3358	0.8424	0.8982	-0.56
Mof_O 	O 	0.3967	0.8509	0.8428	-0.557
Mof_O 	O 	0.7057	0.5916	0.8405	-0.536
Mof_O 	O 	0.7417	0.6098	0.9253	-0.469
Mof_O 	O 	0.4314	0.0338	0.7554	-0.555
Mof_O 	O 	0.4273	0.1174	0.8111	-0.564
Mof_O 	O 	0.7602	0.3059	0.815	-0.437
Mof_O 	O 	0.8114	0.3183	0.7521	-0.474
Mof_O 	O 	0.804	0.1262	0.4207	-0.563
Mof_O 	O 	0.125	0.7735	0.6207	-0.427
Mof_O 	O 	0.0819	0.8621	0.585	-0.454
Mof_C 	C 	0.3172	0.0962	0.9705	0.485
Mof_C 	C 	0.2886	0.1249	0.0152	-0.205
Mof_C 	C 	0.2669	0.084	0.0495	0.102
Mof_H 	H 	0.2687	0.0386	0.0441	-0.019
Mof_C 	C 	0.2428	0.1069	0.0912	-0.158
Mof_H 	H 	0.2271	0.0781	0.1141	0.078
Mof_C 	C 	0.2418	0.1754	0.0997	0.076
Mof_C 	C 	0.2619	0.2171	0.063	-0.154
Mof_H 	H 	0.2591	0.2627	0.0671	0.092
Mof_C 	C 	0.2858	0.1921	0.0211	0.088
Mof_H 	H 	0.3001	0.2201	0.9967	0.001
Mof_C 	C 	0.221	0.2036	0.1481	-0.003
Mof_C 	C 	0.2543	0.244	0.1813	-0.047
Mof_H 	H 	0.2888	0.2568	0.1724	0.056
Mof_C 	C 	0.2377	0.267	0.2292	-0.057
Mof_C 	C 	0.1871	0.251	0.2417	-0.048
Mof_H 	H 	0.1749	0.2697	0.2724	0.049
Mof_C 	C 	0.1541	0.207	0.2089	-0.003
Mof_C 	C 	0.1701	0.1847	0.1626	-0.067
Mof_H 	H 	0.1468	0.156	0.1397	0.054
Mof_C 	C 	0.2764	0.3101	0.2691	0.269
Mof_C 	C 	0.1015	0.187	0.2277	0.088
Mof_C 	C 	0.0895	0.1199	0.2265	-0.154
Mof_H 	H 	0.1114	0.0906	0.21	0.077
Mof_C 	C 	0.0457	0.0971	0.2495	0.094
Mof_H 	H 	0.0381	0.0521	0.2502	-0.019
Mof_C 	C 	0.0133	0.1413	0.2713	-0.189
Mof_C 	C 	0.0234	0.2066	0.2715	0.094
Mof_H 	H 	0.0006	0.2366	0.2862	0.003
Mof_C 	C 	0.068	0.2263	0.2495	-0.16
Mof_H 	H 	0.0758	0.2713	0.2497	0.085
Mof_C 	C 	0.9659	0.1145	0.299	0.491
Mof_C 	C 	0.1895	0.903	0.8819	0.534
Mof_C 	C 	0.1437	0.8635	0.8961	-0.231
Mof_C 	C 	0.1023	0.8414	0.8547	0.115
Mof_H 	H 	0.1052	0.8474	0.8176	-0.015
Mof_C 	C 	0.0562	0.8099	0.8697	-0.174
Mof_H 	H 	0.0292	0.792	0.8421	0.089
Mof_C 	C 	0.0493	0.8046	0.9238	0.111
Mof_C 	C 	0.092	0.8235	0.9634	-0.181
Mof_H 	H 	0.0898	0.8156	0.0005	0.096
Mof_C 	C 	0.1386	0.8544	0.9499	0.12
Mof_H 	H 	0.1668	0.8691	0.9779	-0.008
Mof_C 	C 	0.998	0.7734	0.9366	-0.052
Mof_C 	C 	0.9678	0.7292	0.9064	0.024
Mof_H 	H 	0.9796	0.7136	0.8744	0.014
Mof_C 	C 	0.919	0.7051	0.9207	-0.146
Mof_C 	C 	0.9014	0.7272	0.9659	0.029
Mof_H 	H 	0.8688	0.71	0.9759	0.028
Mof_C 	C 	0.9294	0.7732	0.9967	-0.054
Mof_C 	C 	0.98	0.7967	0.9839	-0.028
Mof_H 	H 	0.0013	0.8274	0.0067	0.041
Mof_C 	C 	0.8895	0.6486	0.8872	0.473
Mof_C 	C 	0.9125	0.8036	0.0466	0.118
Mof_C 	C 	0.8596	0.8236	0.0468	-0.188
Mof_H 	H 	0.8319	0.8146	0.0164	0.097
Mof_C 	C 	0.846	0.8572	0.0916	0.131
Mof_H 	H 	0.8098	0.8737	0.0904	-0.03
Mof_C 	C 	0.8849	0.8665	0.1376	-0.221
Mof_C 	C 	0.9378	0.8434	0.1391	0.115
Mof_H 	H 	0.9647	0.8493	0.1706	-0.008
Mof_C 	C 	0.9511	0.8114	0.0934	-0.177
Mof_H 	H 	0.9871	0.7946	0.0946	0.093
Mof_C 	C 	0.8719	0.9082	0.1834	0.504
Mof_C 	C 	0.3931	0.6192	0.2018	0.368
Mof_C 	C 	0.4	0.6516	0.1505	-0.138
Mof_C 	C 	0.3579	0.6597	0.1073	0.066
Mof_H 	H 	0.3213	0.6489	0.1112	0.014
Mof_C 	C 	0.3687	0.6834	0.0586	-0.139
Mof_H 	H 	0.339	0.6901	0.0296	0.08
Mof_C 	C 	0.4217	0.6978	0.0507	0.073
Mof_C 	C 	0.4631	0.694	0.0968	-0.13
Mof_H 	H 	0.4992	0.7075	0.0933	0.057
Mof_C 	C 	0.4542	0.6722	0.1455	0.051
Mof_H 	H 	0.4832	0.6706	0.1757	0.019
Mof_C 	C 	0.4345	0.7173	0.9982	-0.045
Mof_C 	C 	0.4005	0.7578	0.962	0.01
Mof_H 	H 	0.3667	0.7723	0.9716	0.014
Mof_C 	C 	0.4141	0.7773	0.9136	-0.151
Mof_C 	C 	0.4633	0.757	0.8994	0.008
Mof_H 	H 	0.4731	0.7713	0.866	0.028
Mof_C 	C 	0.4983	0.7166	0.9325	-0.037
Mof_C 	C 	0.4843	0.6982	0.9824	-0.045
Mof_H 	H 	0.5092	0.672	0.0064	0.041
Mof_C 	C 	0.3789	0.8281	0.8812	0.459
Mof_C 	C 	0.5528	0.6941	0.9179	0.077
Mof_C 	C 	0.5565	0.6798	0.8658	-0.134
Mof_H 	H 	0.5261	0.6859	0.8374	0.082
Mof_C 	C 	0.6075	0.6551	0.8547	0.056
Mof_H 	H 	0.6119	0.6455	0.8184	0.024
Mof_C 	C 	0.6502	0.6452	0.8964	-0.132
Mof_C 	C 	0.6453	0.6622	0.9482	0.057
Mof_H 	H 	0.676	0.6576	0.9765	0.02
Mof_C 	C 	0.597	0.6854	0.96	-0.135
Mof_H 	H 	0.5935	0.6955	0.9964	0.063
Mof_C 	C 	0.7023	0.6148	0.8863	0.346
Mof_C 	C 	0.4504	0.0859	0.7777	0.458
Mof_C 	C 	0.5035	0.1106	0.7628	-0.186
Mof_C 	C 	0.5355	0.0707	0.7376	0.075
Mof_H 	H 	0.5252	0.0266	0.732	0.003
Mof_C 	C 	0.5836	0.0932	0.7194	-0.135
Mof_H 	H 	0.605	0.065	0.7013	0.072
Mof_C 	C 	0.5992	0.1596	0.7291	0.067
Mof_C 	C 	0.5651	0.1986	0.7561	-0.14
Mof_H 	H 	0.5749	0.2428	0.7622	0.083
Mof_C 	C 	0.5191	0.1766	0.7737	0.073
Mof_H 	H 	0.4979	0.2043	0.7927	0.003
Mof_C 	C 	0.6498	0.1841	0.7134	-0.004
Mof_C 	C 	0.6669	0.163	0.6644	-0.063
Mof_H 	H 	0.6444	0.1336	0.6412	0.053
Mof_C 	C 	0.7157	0.1844	0.6499	-0.001
Mof_C 	C 	0.7473	0.2307	0.6824	-0.036
Mof_H 	H 	0.7787	0.2492	0.6708	0.049
Mof_C 	C 	0.7327	0.2488	0.7305	-0.063
Mof_C 	C 	0.6841	0.2275	0.7467	-0.038
Mof_H 	H 	0.6744	0.2421	0.78	0.052
Mof_C 	C 	0.7708	0.2932	0.7684	0.298
Mof_C 	C 	0.7318	0.1619	0.5974	0.071
Mof_C 	C 	0.7225	0.0987	0.5807	-0.136
Mof_H 	H 	0.7033	0.0708	0.6014	0.073
Mof_C 	C 	0.7404	0.0738	0.5337	0.077
Mof_H 	H 	0.7336	0.03	0.5232	0.016
Mof_C 	C 	0.7685	0.1152	0.503	-0.183
Mof_C 	C 	0.78	0.1791	0.5198	0.073
Mof_H 	H 	0.7998	0.2068	0.4996	0.013
Mof_C 	C 	0.7617	0.2016	0.5668	-0.134
Mof_H 	H 	0.7697	0.2449	0.5784	0.076
Mof_C 	C 	0.7885	0.0877	0.4513	0.603
Mof_C 	C 	0.0897	0.8025	0.5851	0.362
Mof_H 	H 	0.0685	0.7773	0.5574	-0.075
Mof_O 	O 	0.8012	0.0253	0.4536	-0.38
Mof_O 	O 	0.7619	0.0368	0.4335	-0.426
Mof_Tb	Tb	0.21118	0.46405	0.12435	2.249
Mof_Tb	Tb	0.15805	0.62392	0.16416	2.229
Mof_Tb	Tb	0.08653	0.46578	0.19285	1.992
Mof_Tb	Tb	0.22817	0.50556	0.27681	2.34
Mof_Tb	Tb	0.31787	0.54892	0.41552	1.917
Mof_Tb	Tb	0.34225	0.38964	0.34284	2.007
Mof_Tb	Tb	0.38348	0.54823	0.29212	2.045
Mof_O 	O 	0.3809	0.4905	0.3722	-1.011
Mof_H 	H 	0.4125	0.4869	0.3917	0.275
Mof_O 	O 	0.2982	0.5745	0.316	-0.996
Mof_H 	H 	0.29	0.6141	0.31	0.344
Mof_O 	O 	0.2739	0.4629	0.3632	-0.964
Mof_H 	H 	0.2511	0.4441	0.3801	0.349
Mof_O 	O 	0.3178	0.4623	0.2688	-0.995
Mof_H 	H 	0.3189	0.445	0.2381	0.351
Mof_O 	O 	0.1433	0.5481	0.2354	-1.008
Mof_H 	H 	0.1277	0.5672	0.259	0.357
Mof_O 	O 	0.186	0.4356	0.2069	-1.012
Mof_H 	H 	0.1914	0.3957	0.2146	0.344
Mof_O 	O 	0.2346	0.5486	0.1881	-1.031
Mof_H 	H 	0.2656	0.5658	0.1864	0.353
Mof_O 	O 	0.1291	0.5208	0.1288	-1.041
Mof_H 	H 	0.1084	0.5234	0.0981	0.336
Mof_O 	O 	0.3291	0.3676	0.435	-0.562
Mof_O 	O 	0.3281	0.4641	0.4753	-0.598
Mof_O 	O 	0.3253	0.1814	0.7611	-0.425
Mof_O 	O 	0.2585	0.1659	0.8094	-0.484
Mof_O 	O 	0.9699	0.4451	0.8095	-0.602
Mof_O 	O 	0.9281	0.3483	0.8036	-0.514
Mof_O 	O 	0.2304	0.5876	0.4198	-0.563
Mof_O 	O 	0.1854	0.576	0.3359	-0.582
Mof_O 	O 	0.9058	0.8635	0.3424	-0.574
Mof_O 	O 	0.8503	0.8746	0.4026	-0.569
Mof_O 	O 	0.8282	0.5619	0.6766	-0.581
Mof_O 	O 	0.9088	0.5906	0.7271	-0.569
Mof_O 	O 	0.3474	0.9049	0.7068	-0.528
Mof_O 	O 	0.433	0.8836	0.7396	-0.476
Mof_O 	O 	0.3358	0.6576	0.3982	-0.56
Mof_O 	O 	0.3967	0.6491	0.3428	-0.557
Mof_O 	O 	0.7057	0.9084	0.3405	-0.536
Mof_O 	O 	0.7417	0.8902	0.4253	-0.469
Mof_O 	O 	0.4314	0.4662	0.2554	-0.556
Mof_O 	O 	0.4273	0.3826	0.3111	-0.564
Mof_O 	O 	0.7602	0.1941	0.315	-0.437
Mof_O 	O 	0.8114	0.1817	0.2521	-0.474
Mof_O 	O 	0.804	0.3738	0.9207	-0.563
Mof_O 	O 	0.125	0.7265	0.1207	-0.426
Mof_O 	O 	0.0819	0.6379	0.085	-0.454
Mof_C 	C 	0.3172	0.4038	0.4705	0.484
Mof_C 	C 	0.2886	0.3751	0.5152	-0.204
Mof_C 	C 	0.2669	0.416	0.5495	0.102
Mof_H 	H 	0.2687	0.4614	0.5441	-0.019
Mof_C 	C 	0.2428	0.3931	0.5912	-0.158
Mof_H 	H 	0.2271	0.4219	0.6141	0.078
Mof_C 	C 	0.2418	0.3246	0.5997	0.077
Mof_C 	C 	0.2619	0.2829	0.563	-0.155
Mof_H 	H 	0.2591	0.2373	0.5671	0.092
Mof_C 	C 	0.2858	0.3079	0.5211	0.091
Mof_H 	H 	0.3001	0.2799	0.4967	-0.001
Mof_C 	C 	0.221	0.2964	0.6481	-0.003
Mof_C 	C 	0.2543	0.256	0.6813	-0.047
Mof_H 	H 	0.2888	0.2432	0.6724	0.056
Mof_C 	C 	0.2377	0.233	0.7292	-0.057
Mof_C 	C 	0.1871	0.249	0.7417	-0.048
Mof_H 	H 	0.1749	0.2303	0.7724	0.049
Mof_C 	C 	0.1541	0.293	0.7089	-0.003
Mof_C 	C 	0.1701	0.3153	0.6626	-0.067
Mof_H 	H 	0.1468	0.344	0.6397	0.054
Mof_C 	C 	0.2764	0.1899	0.7691	0.269
Mof_C 	C 	0.1015	0.313	0.7277	0.087
Mof_C 	C 	0.0895	0.3801	0.7265	-0.153
Mof_H 	H 	0.1114	0.4094	0.71	0.077
Mof_C 	C 	0.0457	0.4029	0.7495	0.094
Mof_H 	H 	0.0381	0.4479	0.7502	-0.019
Mof_C 	C 	0.0133	0.3587	0.7713	-0.188
Mof_C 	C 	0.0234	0.2934	0.7715	0.094
Mof_H 	H 	0.0006	0.2634	0.7862	0.004
Mof_C 	C 	0.068	0.2737	0.7495	-0.16
Mof_H 	H 	0.0758	0.2287	0.7497	0.085
Mof_C 	C 	0.9659	0.3855	0.799	0.491
Mof_C 	C 	0.1895	0.597	0.3819	0.534
Mof_C 	C 	0.1437	0.6365	0.3961	-0.23
Mof_C 	C 	0.1023	0.6586	0.3547	0.114
Mof_H 	H 	0.1052	0.6526	0.3176	-0.015
Mof_C 	C 	0.0562	0.6901	0.3697	-0.173
Mof_H 	H 	0.0292	0.708	0.3421	0.088
Mof_C 	C 	0.0493	0.6954	0.4238	0.109
Mof_C 	C 	0.092	0.6765	0.4634	-0.176
Mof_H 	H 	0.0898	0.6844	0.5005	0.093
Mof_C 	C 	0.1386	0.6456	0.4499	0.117
Mof_H 	H 	0.1668	0.6309	0.4779	-0.007
Mof_C 	C 	0.998	0.7266	0.4366	-0.052
Mof_C 	C 	0.9678	0.7708	0.4064	0.024
Mof_H 	H 	0.9796	0.7864	0.3744	0.014
Mof_C 	C 	0.919	0.7949	0.4207	-0.146
Mof_C 	C 	0.9014	0.7728	0.4659	0.029
Mof_H 	H 	0.8688	0.79	0.4759	0.028
Mof_C 	C 	0.9294	0.7268	0.4967	-0.052
Mof_C 	C 	0.98	0.7033	0.4839	-0.025
Mof_H 	H 	0.0013	0.6726	0.5067	0.039
Mof_C 	C 	0.8895	0.8514	0.3872	0.473
Mof_C 	C 	0.9125	0.6964	0.5466	0.116
Mof_C 	C 	0.8596	0.6764	0.5468	-0.187
Mof_H 	H 	0.8319	0.6854	0.5164	0.096
Mof_C 	C 	0.846	0.6428	0.5916	0.13
Mof_H 	H 	0.8098	0.6263	0.5904	-0.03
Mof_C 	C 	0.8849	0.6335	0.6376	-0.221
Mof_C 	C 	0.9378	0.6566	0.6391	0.114
Mof_H 	H 	0.9647	0.6507	0.6706	-0.008
Mof_C 	C 	0.9511	0.6886	0.5934	-0.176
Mof_H 	H 	0.9871	0.7054	0.5946	0.092
Mof_C 	C 	0.8719	0.5918	0.6834	0.504
Mof_C 	C 	0.3931	0.8808	0.7018	0.367
Mof_C 	C 	0.4	0.8484	0.6505	-0.137
Mof_C 	C 	0.3579	0.8403	0.6073	0.065
Mof_H 	H 	0.3213	0.8511	0.6112	0.014
Mof_C 	C 	0.3687	0.8166	0.5586	-0.137
Mof_H 	H 	0.339	0.8099	0.5296	0.079
Mof_C 	C 	0.4217	0.8022	0.5507	0.071
Mof_C 	C 	0.4631	0.806	0.5968	-0.129
Mof_H 	H 	0.4992	0.7925	0.5933	0.056
Mof_C 	C 	0.4542	0.8278	0.6455	0.05
Mof_H 	H 	0.4832	0.8294	0.6757	0.019
Mof_C 	C 	0.4345	0.7827	0.4982	-0.043
Mof_C 	C 	0.4005	0.7422	0.462	0.01
Mof_H 	H 	0.3667	0.7277	0.4716	0.015
Mof_C 	C 	0.4141	0.7227	0.4136	-0.151
Mof_C 	C 	0.4633	0.743	0.3994	0.009
Mof_H 	H 	0.4731	0.7287	0.366	0.028
Mof_C 	C 	0.4983	0.7834	0.4325	-0.037
Mof_C 	C 	0.4843	0.8018	0.4824	-0.043
Mof_H 	H 	0.5092	0.828	0.5064	0.04
Mof_C 	C 	0.3789	0.6719	0.3812	0.459
Mof_C 	C 	0.5528	0.8059	0.4179	0.078
Mof_C 	C 	0.5565	0.8202	0.3658	-0.135
Mof_H 	H 	0.5261	0.8141	0.3374	0.082
Mof_C 	C 	0.6075	0.8449	0.3547	0.057
Mof_H 	H 	0.6119	0.8545	0.3184	0.024
Mof_C 	C 	0.6502	0.8548	0.3964	-0.132
Mof_C 	C 	0.6453	0.8378	0.4482	0.057
Mof_H 	H 	0.676	0.8424	0.4765	0.02
Mof_C 	C 	0.597	0.8146	0.46	-0.135
Mof_H 	H 	0.5935	0.8045	0.4964	0.064
Mof_C 	C 	0.7023	0.8852	0.3863	0.347
Mof_C 	C 	0.4504	0.4141	0.2777	0.458
Mof_C 	C 	0.5035	0.3894	0.2628	-0.187
Mof_C 	C 	0.5355	0.4293	0.2376	0.075
Mof_H 	H 	0.5252	0.4734	0.232	0.002
Mof_C 	C 	0.5836	0.4068	0.2194	-0.135
Mof_H 	H 	0.605	0.435	0.2013	0.072
Mof_C 	C 	0.5992	0.3404	0.2291	0.067
Mof_C 	C 	0.5651	0.3014	0.2561	-0.14
Mof_H 	H 	0.5749	0.2572	0.2622	0.083
Mof_C 	C 	0.5191	0.3234	0.2737	0.073
Mof_H 	H 	0.4979	0.2957	0.2927	0.003
Mof_C 	C 	0.6498	0.3159	0.2134	-0.004
Mof_C 	C 	0.6669	0.337	0.1644	-0.063
Mof_H 	H 	0.6444	0.3664	0.1412	0.053
Mof_C 	C 	0.7157	0.3156	0.1499	-0.001
Mof_C 	C 	0.7473	0.2693	0.1824	-0.036
Mof_H 	H 	0.7787	0.2508	0.1708	0.049
Mof_C 	C 	0.7327	0.2512	0.2305	-0.063
Mof_C 	C 	0.6841	0.2725	0.2467	-0.039
Mof_H 	H 	0.6744	0.2579	0.28	0.052
Mof_C 	C 	0.7708	0.2068	0.2684	0.298
Mof_C 	C 	0.7318	0.3381	0.0974	0.07
Mof_C 	C 	0.7225	0.4013	0.0807	-0.135
Mof_H 	H 	0.7033	0.4292	0.1014	0.072
Mof_C 	C 	0.7404	0.4262	0.0337	0.077
Mof_H 	H 	0.7336	0.47	0.0232	0.016
Mof_C 	C 	0.7685	0.3848	0.003	-0.182
Mof_C 	C 	0.78	0.3209	0.0198	0.07
Mof_H 	H 	0.7998	0.2932	0.9996	0.015
Mof_C 	C 	0.7617	0.2984	0.0668	-0.133
Mof_H 	H 	0.7697	0.2551	0.0784	0.075
Mof_C 	C 	0.7885	0.4123	0.9513	0.603
Mof_C 	C 	0.0897	0.6975	0.0851	0.362
Mof_H 	H 	0.0685	0.7227	0.0574	-0.075
Mof_O 	O 	0.8012	0.4747	0.9536	-0.38
Mof_O 	O 	0.7619	0.4632	0.9335	-0.426
Mof_Tb	Tb	0.78882	0.96405	0.37565	2.252
Mof_Tb	Tb	0.84195	0.12392	0.33584	2.229
Mof_Tb	Tb	0.91347	0.96578	0.30715	1.995
Mof_Tb	Tb	0.77183	0.00556	0.22319	2.338
Mof_Tb	Tb	0.68213	0.04892	0.08448	1.912
Mof_Tb	Tb	0.65775	0.88964	0.15716	2.008
Mof_Tb	Tb	0.61652	0.04823	0.20788	2.042
Mof_O 	O 	0.6191	0.9905	0.1278	-1.009
Mof_H 	H 	0.5875	0.9869	0.1083	0.275
Mof_O 	O 	0.7018	0.0745	0.184	-0.996
Mof_H 	H 	0.71	0.1141	0.19	0.344
Mof_O 	O 	0.7261	0.9629	0.1368	-0.962
Mof_H 	H 	0.7489	0.9441	0.1199	0.349
Mof_O 	O 	0.6822	0.9623	0.2312	-0.994
Mof_H 	H 	0.6811	0.945	0.2619	0.351
Mof_O 	O 	0.8567	0.0481	0.2646	-1.008
Mof_H 	H 	0.8723	0.0672	0.241	0.357
Mof_O 	O 	0.814	0.9356	0.2931	-1.012
Mof_H 	H 	0.8086	0.8957	0.2854	0.343
Mof_O 	O 	0.7654	0.0486	0.3119	-1.031
Mof_H 	H 	0.7344	0.0658	0.3136	0.353
Mof_O 	O 	0.8709	0.0208	0.3712	-1.042
Mof_H 	H 	0.8916	0.0234	0.4019	0.337
Mof_O 	O 	0.6709	0.8676	0.065	-0.562
Mof_O 	O 	0.6719	0.9641	0.0247	-0.596
Mof_O 	O 	0.6747	0.6814	0.7389	-0.425
Mof_O 	O 	0.7415	0.6659	0.6906	-0.484
Mof_O 	O 	0.0301	0.9451	0.6905	-0.602
Mof_O 	O 	0.0719	0.8483	0.6964	-0.514
Mof_O 	O 	0.7696	0.0876	0.0802	-0.563
Mof_O 	O 	0.8146	0.076	0.1641	-0.582
Mof_O 	O 	0.0942	0.3635	0.1576	-0.574
Mof_O 	O 	0.1497	0.3746	0.0974	-0.569
Mof_O 	O 	0.1718	0.0619	0.8234	-0.58
Mof_O 	O 	0.0912	0.0906	0.7729	-0.569
Mof_O 	O 	0.6526	0.4049	0.7932	-0.528
Mof_O 	O 	0.567	0.3836	0.7604	-0.477
Mof_O 	O 	0.6642	0.1576	0.1018	-0.56
Mof_O 	O 	0.6033	0.1491	0.1572	-0.557
Mof_O 	O 	0.2943	0.4084	0.1595	-0.536
Mof_O 	O 	0.2583	0.3902	0.0747	-0.469
Mof_O 	O 	0.5686	0.9662	0.2446	-0.555
Mof_O 	O 	0.5727	0.8826	0.1889	-0.564
Mof_O 	O 	0.2398	0.6941	0.185	-0.437
Mof_O 	O 	0.1886	0.6817	0.2479	-0.474
Mof_O 	O 	0.196	0.8738	0.5793	-0.563
Mof_O 	O 	0.875	0.2265	0.3793	-0.427
Mof_O 	O 	0.9181	0.1379	0.415	-0.454
Mof_C 	C 	0.6828	0.9038	0.0295	0.485
Mof_C 	C 	0.7114	0.8751	0.9848	-0.205
Mof_C 	C 	0.7331	0.916	0.9505	0.102
Mof_H 	H 	0.7313	0.9614	0.9559	-0.019
Mof_C 	C 	0.7572	0.8931	0.9088	-0.158
Mof_H 	H 	0.7729	0.9219	0.8859	0.078
Mof_C 	C 	0.7582	0.8246	0.9003	0.076
Mof_C 	C 	0.7381	0.7829	0.937	-0.154
Mof_H 	H 	0.7409	0.7373	0.9329	0.092
Mof_C 	C 	0.7142	0.8079	0.9789	0.088
Mof_H 	H 	0.6999	0.7799	0.0033	0.001
Mof_C 	C 	0.779	0.7964	0.8519	-0.003
Mof_C 	C 	0.7457	0.756	0.8187	-0.047
Mof_H 	H 	0.7112	0.7432	0.8276	0.056
Mof_C 	C 	0.7623	0.733	0.7708	-0.057
Mof_C 	C 	0.8129	0.749	0.7583	-0.048
Mof_H 	H 	0.8251	0.7303	0.7276	0.049
Mof_C 	C 	0.8459	0.793	0.7911	-0.003
Mof_C 	C 	0.8299	0.8153	0.8374	-0.067
Mof_H 	H 	0.8532	0.844	0.8603	0.054
Mof_C 	C 	0.7236	0.6899	0.7309	0.269
Mof_C 	C 	0.8985	0.813	0.7723	0.088
Mof_C 	C 	0.9105	0.8801	0.7735	-0.154
Mof_H 	H 	0.8886	0.9094	0.79	0.077
Mof_C 	C 	0.9543	0.9029	0.7505	0.094
Mof_H 	H 	0.9619	0.9479	0.7498	-0.019
Mof_C 	C 	0.9867	0.8587	0.7287	-0.189
Mof_C 	C 	0.9766	0.7934	0.7285	0.094
Mof_H 	H 	0.9994	0.7634	0.7138	0.003
Mof_C 	C 	0.932	0.7737	0.7505	-0.16
Mof_H 	H 	0.9242	0.7287	0.7503	0.085
Mof_C 	C 	0.0341	0.8855	0.701	0.491
Mof_C 	C 	0.8105	0.097	0.1181	0.534
Mof_C 	C 	0.8563	0.1365	0.1039	-0.231
Mof_C 	C 	0.8977	0.1586	0.1453	0.115
Mof_H 	H 	0.8948	0.1526	0.1824	-0.015
Mof_C 	C 	0.9438	0.1901	0.1303	-0.174
Mof_H 	H 	0.9708	0.208	0.1579	0.089
Mof_C 	C 	0.9507	0.1954	0.0762	0.111
Mof_C 	C 	0.908	0.1765	0.0366	-0.181
Mof_H 	H 	0.9102	0.1844	0.9995	0.096
Mof_C 	C 	0.8614	0.1456	0.0501	0.12
Mof_H 	H 	0.8332	0.1309	0.0221	-0.008
Mof_C 	C 	0.002	0.2266	0.0634	-0.052
Mof_C 	C 	0.0322	0.2708	0.0936	0.024
Mof_H 	H 	0.0204	0.2864	0.1256	0.014
Mof_C 	C 	0.081	0.2949	0.0793	-0.146
Mof_C 	C 	0.0986	0.2728	0.0341	0.029
Mof_H 	H 	0.1312	0.29	0.0241	0.028
Mof_C 	C 	0.0706	0.2268	0.0033	-0.054
Mof_C 	C 	0.02	0.2033	0.0161	-0.028
Mof_H 	H 	0.9987	0.1726	0.9933	0.041
Mof_C 	C 	0.1105	0.3514	0.1128	0.473
Mof_C 	C 	0.0875	0.1964	0.9534	0.118
Mof_C 	C 	0.1404	0.1764	0.9532	-0.188
Mof_H 	H 	0.1681	0.1854	0.9836	0.097
Mof_C 	C 	0.154	0.1428	0.9084	0.131
Mof_H 	H 	0.1902	0.1263	0.9096	-0.03
Mof_C 	C 	0.1151	0.1335	0.8624	-0.221
Mof_C 	C 	0.0622	0.1566	0.8609	0.115
Mof_H 	H 	0.0353	0.1507	0.8294	-0.008
Mof_C 	C 	0.0489	0.1886	0.9066	-0.177
Mof_H 	H 	0.0129	0.2054	0.9054	0.093
Mof_C 	C 	0.1281	0.0918	0.8166	0.504
Mof_C 	C 	0.6069	0.3808	0.7982	0.368
Mof_C 	C 	0.6	0.3484	0.8495	-0.138
Mof_C 	C 	0.6421	0.3403	0.8927	0.066
Mof_H 	H 	0.6787	0.3511	0.8888	0.014
Mof_C 	C 	0.6313	0.3166	0.9414	-0.139
Mof_H 	H 	0.661	0.3099	0.9704	0.08
Mof_C 	C 	0.5783	0.3022	0.9493	0.073
Mof_C 	C 	0.5369	0.306	0.9032	-0.13
Mof_H 	H 	0.5008	0.2925	0.9067	0.057
Mof_C 	C 	0.5458	0.3278	0.8545	0.051
Mof_H 	H 	0.5168	0.3294	0.8243	0.019
Mof_C 	C 	0.5655	0.2827	0.0018	-0.045
Mof_C 	C 	0.5995	0.2422	0.038	0.01
Mof_H 	H 	0.6333	0.2277	0.0284	0.014
Mof_C 	C 	0.5859	0.2227	0.0864	-0.151
Mof_C 	C 	0.5367	0.243	0.1006	0.008
Mof_H 	H 	0.5269	0.2287	0.134	0.028
Mof_C 	C 	0.5017	0.2834	0.0675	-0.037
Mof_C 	C 	0.5157	0.3018	0.0176	-0.045
Mof_H 	H 	0.4908	0.328	0.9936	0.041
Mof_C 	C 	0.6211	0.1719	0.1188	0.459
Mof_C 	C 	0.4472	0.3059	0.0821	0.077
Mof_C 	C 	0.4435	0.3202	0.1342	-0.134
Mof_H 	H 	0.4739	0.3141	0.1626	0.082
Mof_C 	C 	0.3925	0.3449	0.1453	0.056
Mof_H 	H 	0.3881	0.3545	0.1816	0.024
Mof_C 	C 	0.3498	0.3548	0.1036	-0.132
Mof_C 	C 	0.3547	0.3378	0.0518	0.057
Mof_H 	H 	0.324	0.3424	0.0235	0.02
Mof_C 	C 	0.403	0.3146	0.04	-0.135
Mof_H 	H 	0.4065	0.3045	0.0036	0.063
Mof_C 	C 	0.2977	0.3852	0.1137	0.346
Mof_C 	C 	0.5496	0.9141	0.2223	0.458
Mof_C 	C 	0.4965	0.8894	0.2372	-0.186
Mof_C 	C 	0.4645	0.9293	0.2624	0.075
Mof_H 	H 	0.4748	0.9734	0.268	0.003
Mof_C 	C 	0.4164	0.9068	0.2806	-0.135
Mof_H 	H 	0.395	0.935	0.2987	0.072
Mof_C 	C 	0.4008	0.8404	0.2709	0.067
Mof_C 	C 	0.4349	0.8014	0.2439	-0.14
Mof_H 	H 	0.4251	0.7572	0.2378	0.083
Mof_C 	C 	0.4809	0.8234	0.2263	0.073
Mof_H 	H 	0.5021	0.7957	0.2073	0.003
Mof_C 	C 	0.3502	0.8159	0.2866	-0.004
Mof_C 	C 	0.3331	0.837	0.3356	-0.063
Mof_H 	H 	0.3556	0.8664	0.3588	0.053
Mof_C 	C 	0.2843	0.8156	0.3501	-0.001
Mof_C 	C 	0.2527	0.7693	0.3176	-0.036
Mof_H 	H 	0.2213	0.7508	0.3292	0.049
Mof_C 	C 	0.2673	0.7512	0.2695	-0.063
Mof_C 	C 	0.3159	0.7725	0.2533	-0.038
Mof_H 	H 	0.3256	0.7579	0.22	0.052
Mof_C 	C 	0.2292	0.7068	0.2316	0.298
Mof_C 	C 	0.2682	0.8381	0.4026	0.071
Mof_C 	C 	0.2775	0.9013	0.4193	-0.136
Mof_H 	H 	0.2967	0.9292	0.3986	0.073
Mof_C 	C 	0.2596	0.9262	0.4663	0.077
Mof_H 	H 	0.2664	0.97	0.4768	0.016
Mof_C 	C 	0.2315	0.8848	0.497	-0.183
Mof_C 	C 	0.22	0.8209	0.4802	0.073
Mof_H 	H 	0.2002	0.7932	0.5004	0.013
Mof_C 	C 	0.2383	0.7984	0.4332	-0.134
Mof_H 	H 	0.2303	0.7551	0.4216	0.076
Mof_C 	C 	0.2115	0.9123	0.5487	0.603
Mof_C 	C 	0.9103	0.1975	0.4149	0.362
Mof_H 	H 	0.9315	0.2227	0.4426	-0.075
Mof_O 	O 	0.1988	0.9747	0.5464	-0.38
Mof_O 	O 	0.2381	0.9632	0.5665	-0.426
_end
