data_functionalizedCrystal
_audit_creation_method	'EQeq! by Chris Wilmer'
_symmetry_space_group_name_H-M	'P1'
_symmetry_Int_Tables_number	1
_symmetry_cell_setting	triclinic
loop_
_symmetry_equiv_pos_as_xyz
  x,y,z
_cell_length_a	14.208
_cell_length_b	14.095
_cell_length_c	15.117
_cell_angle_alpha	90
_cell_angle_beta	105.31
_cell_angle_gamma	90
loop_
_atom_site_label
_atom_site_type_symbol
_atom_site_fract_x
_atom_site_fract_y
_atom_site_fract_z
_atom_site_charge
Mof_Mn	Mn	0.66975	0.85496	0.15956	0.715
Mof_Mn	Mn	0.75203	0.02415	0.01657	0.722
Mof_O 	O 	0.6411	0.9272	0.0271	-0.628
Mof_H 	H 	0.644	0.894	0.981	0.302
Mof_O 	O 	0.8409	0.0022	0.9229	-0.423
Mof_O 	O 	0.7256	0.8976	0.8603	-0.329
Mof_O 	O 	0.1627	0.6353	0.412	-0.397
Mof_O 	O 	0.0128	0.6339	0.4356	-0.395
Mof_O 	O 	0.4492	0.5784	0.3754	-0.389
Mof_O 	O 	0.3324	0.4917	0.2785	-0.383
Mof_C 	C 	0.4402	0.7698	0.1632	0.03
Mof_C 	C 	0.3465	0.7907	0.1089	0.085
Mof_C 	C 	0.2656	0.7346	0.1106	-0.131
Mof_H 	H 	0.2022	0.7482	0.0728	0.064
Mof_C 	C 	0.2824	0.6592	0.1695	0.028
Mof_H 	H 	0.2301	0.6175	0.1703	0.022
Mof_C 	C 	0.3764	0.6414	0.2298	-0.094
Mof_C 	C 	0.4566	0.6956	0.2271	-0.041
Mof_H 	H 	0.5195	0.6833	0.2664	0.048
Mof_C 	C 	0.3867	0.5636	0.3	0.36
Mof_C 	C 	0.9226	0.8285	0.2186	-0.011
Mof_C 	C 	0.9946	0.8643	0.1787	0.175
Mof_C 	C 	0.0924	0.8367	0.2097	-0.227
Mof_H 	H 	0.1408	0.8612	0.183	0.113
Mof_C 	C 	0.1153	0.7725	0.2806	0.102
Mof_H 	H 	0.1808	0.7514	0.3025	0.011
Mof_C 	C 	0.0437	0.7367	0.3221	-0.181
Mof_C 	C 	0.9467	0.7639	0.2922	0.059
Mof_H 	H 	0.8988	0.7401	0.3199	0.026
Mof_C 	C 	0.0753	0.663	0.396	0.392
Mof_C 	C 	0.802	0.9394	0.8627	0.448
Mof_H 	H 	0.8345	0.9243	0.8171	-0.088
Mof_N 	N 	0.3537	0.8695	0.0581	-0.173
Mof_N 	N 	0.4481	0.8918	0.0797	-0.11
Mof_N 	N 	0.5034	0.8345	0.1415	-0.142
Mof_N 	N 	0.8351	0.8674	0.1716	-0.135
Mof_N 	N 	0.8548	0.9242	0.1087	-0.101
Mof_N 	N 	0.9494	0.9239	0.1102	-0.132
Mof_Mn	Mn	0.33025	0.35496	0.34044	0.695
Mof_Mn	Mn	0.24797	0.52415	0.48343	0.851
Mof_O 	O 	0.3589	0.4272	0.4729	-0.631
Mof_H 	H 	0.356	0.394	0.519	0.255
Mof_O 	O 	0.1591	0.5022	0.5771	-0.459
Mof_O 	O 	0.2744	0.3976	0.6397	-0.348
Mof_O 	O 	0.8373	0.1353	0.088	-0.383
Mof_O 	O 	0.9872	0.1339	0.0644	-0.343
Mof_O 	O 	0.5508	0.0784	0.1246	-0.376
Mof_O 	O 	0.6676	0.9917	0.2215	-0.308
Mof_C 	C 	0.5598	0.2698	0.3368	0.03
Mof_C 	C 	0.6535	0.2907	0.3911	0.084
Mof_C 	C 	0.7344	0.2346	0.3894	-0.123
Mof_H 	H 	0.7978	0.2482	0.4272	0.076
Mof_C 	C 	0.7176	0.1592	0.3305	0.013
Mof_H 	H 	0.7699	0.1175	0.3297	0.026
Mof_C 	C 	0.6236	0.1414	0.2702	-0.075
Mof_C 	C 	0.5434	0.1956	0.2729	-0.057
Mof_H 	H 	0.4805	0.1833	0.2336	0.046
Mof_C 	C 	0.6133	0.0636	0.2	0.282
Mof_C 	C 	0.0774	0.3285	0.2814	0.074
Mof_C 	C 	0.0054	0.3643	0.3213	0.004
Mof_C 	C 	0.9076	0.3367	0.2903	-0.023
Mof_H 	H 	0.8592	0.3612	0.317	0.047
Mof_C 	C 	0.8847	0.2725	0.2194	-0.047
Mof_H 	H 	0.8192	0.2514	0.1975	0.054
Mof_C 	C 	0.9563	0.2367	0.1779	-0.004
Mof_C 	C 	0.0533	0.2639	0.2078	-0.144
Mof_H 	H 	0.1012	0.2401	0.1801	0.067
Mof_C 	C 	0.9247	0.163	0.104	0.322
Mof_C 	C 	0.198	0.4394	0.6373	0.407
Mof_H 	H 	0.1655	0.4243	0.6829	-0.103
Mof_N 	N 	0.6463	0.3695	0.4419	-0.162
Mof_N 	N 	0.5519	0.3918	0.4203	-0.129
Mof_N 	N 	0.4966	0.3345	0.3585	-0.148
Mof_N 	N 	0.1649	0.3674	0.3284	-0.156
Mof_N 	N 	0.1452	0.4242	0.3913	-0.125
Mof_N 	N 	0.0506	0.4239	0.3898	-0.146
Mof_Mn	Mn	0.33025	0.14504	0.84044	0.71
Mof_Mn	Mn	0.24797	0.97585	0.98343	0.953
Mof_O 	O 	0.3589	0.0728	0.9729	-0.548
Mof_H 	H 	0.356	0.106	0.019	0.177
Mof_O 	O 	0.1591	0.9978	0.0771	-0.399
Mof_O 	O 	0.2744	0.1024	0.1397	-0.347
Mof_O 	O 	0.8373	0.3647	0.588	-0.381
Mof_O 	O 	0.9872	0.3661	0.5644	-0.342
Mof_O 	O 	0.5508	0.4216	0.6246	-0.392
Mof_O 	O 	0.6676	0.5083	0.7215	-0.375
Mof_C 	C 	0.5598	0.2302	0.8368	0.029
Mof_C 	C 	0.6535	0.2093	0.8911	0.097
Mof_C 	C 	0.7344	0.2654	0.8894	-0.126
Mof_H 	H 	0.7978	0.2518	0.9272	0.098
Mof_C 	C 	0.7176	0.3408	0.8305	0.034
Mof_H 	H 	0.7699	0.3825	0.8297	0.037
Mof_C 	C 	0.6236	0.3586	0.7702	-0.091
Mof_C 	C 	0.5434	0.3044	0.7729	-0.038
Mof_H 	H 	0.4805	0.3167	0.7336	0.047
Mof_C 	C 	0.6133	0.4364	0.7	0.36
Mof_C 	C 	0.0774	0.1715	0.7814	0.076
Mof_C 	C 	0.0054	0.1357	0.8213	0.011
Mof_C 	C 	0.9076	0.1633	0.7903	-0.024
Mof_H 	H 	0.8592	0.1388	0.817	0.051
Mof_C 	C 	0.8847	0.2275	0.7194	-0.041
Mof_H 	H 	0.8192	0.2486	0.6975	0.056
Mof_C 	C 	0.9563	0.2633	0.6779	-0.004
Mof_C 	C 	0.0533	0.2361	0.7078	-0.136
Mof_H 	H 	0.1012	0.2599	0.6801	0.07
Mof_C 	C 	0.9247	0.337	0.604	0.337
Mof_C 	C 	0.198	0.0606	0.1373	0.309
Mof_H 	H 	0.1655	0.0757	0.1829	-0.086
Mof_N 	N 	0.6463	0.1305	0.9419	-0.138
Mof_N 	N 	0.5519	0.1082	0.9203	-0.107
Mof_N 	N 	0.4966	0.1655	0.8585	-0.143
Mof_N 	N 	0.1649	0.1326	0.8284	-0.156
Mof_N 	N 	0.1452	0.0758	0.8913	-0.131
Mof_N 	N 	0.0506	0.0761	0.8898	-0.13
Mof_Mn	Mn	0.66975	0.64504	0.65956	0.72
Mof_Mn	Mn	0.75203	0.47585	0.51657	0.852
Mof_O 	O 	0.6411	0.5728	0.5271	-0.633
Mof_H 	H 	0.644	0.606	0.481	0.259
Mof_O 	O 	0.8409	0.4978	0.4229	-0.442
Mof_O 	O 	0.7256	0.6024	0.3603	-0.344
Mof_O 	O 	0.1627	0.8647	0.912	-0.386
Mof_O 	O 	0.0128	0.8661	0.9356	-0.346
Mof_O 	O 	0.4492	0.9216	0.8754	-0.353
Mof_O 	O 	0.3324	0.0083	0.7785	-0.424
Mof_C 	C 	0.4402	0.7302	0.6632	0.031
Mof_C 	C 	0.3465	0.7093	0.6089	0.092
Mof_C 	C 	0.2656	0.7654	0.6106	-0.13
Mof_H 	H 	0.2022	0.7518	0.5728	0.078
Mof_C 	C 	0.2824	0.8408	0.6695	0.038
Mof_H 	H 	0.2301	0.8825	0.6703	0.035
Mof_C 	C 	0.3764	0.8586	0.7298	-0.096
Mof_C 	C 	0.4566	0.8044	0.7271	-0.033
Mof_H 	H 	0.5195	0.8167	0.7664	0.052
Mof_C 	C 	0.3867	0.9364	0.8	0.403
Mof_C 	C 	0.9226	0.6715	0.7186	-0.006
Mof_C 	C 	0.9946	0.6357	0.6787	0.172
Mof_C 	C 	0.0924	0.6633	0.7097	-0.224
Mof_H 	H 	0.1408	0.6388	0.683	0.108
Mof_C 	C 	0.1153	0.7275	0.7806	0.1
Mof_H 	H 	0.1808	0.7486	0.8025	0.015
Mof_C 	C 	0.0437	0.7633	0.8221	-0.169
Mof_C 	C 	0.9467	0.7361	0.7922	0.055
Mof_H 	H 	0.8988	0.7599	0.8199	0.032
Mof_C 	C 	0.0753	0.837	0.896	0.388
Mof_C 	C 	0.802	0.5606	0.3627	0.407
Mof_H 	H 	0.8345	0.5757	0.3171	-0.092
Mof_N 	N 	0.3537	0.6305	0.5581	-0.161
Mof_N 	N 	0.4481	0.6082	0.5797	-0.127
Mof_N 	N 	0.5034	0.6655	0.6415	-0.144
Mof_N 	N 	0.8351	0.6326	0.6716	-0.136
Mof_N 	N 	0.8548	0.5758	0.6087	-0.12
Mof_N 	N 	0.9494	0.5761	0.6102	-0.152
Mof_Mn	Mn	0.5	0	-0	0.728
Mof_Mn	Mn	0.5	0.5	0.5	0.895
Mof_Mn	Mn	-0	0	-0	0.672
Mof_Mn	Mn	-1.94675e-17	0.5	0.5	0.834
_end
