data_functionalizedCrystal
_audit_creation_method	'EQeq! by Chris Wilmer'
_symmetry_space_group_name_H-M	'P1'
_symmetry_Int_Tables_number	1
_symmetry_cell_setting	triclinic
loop_
_symmetry_equiv_pos_as_xyz
  x,y,z
_cell_length_a	35.2965
_cell_length_b	35.2965
_cell_length_c	20.9926
_cell_angle_alpha	90
_cell_angle_beta	90
_cell_angle_gamma	120
loop_
_atom_site_label
_atom_site_type_symbol
_atom_site_fract_x
_atom_site_fract_y
_atom_site_fract_z
_atom_site_charge
Mof_O 	O 	0.30244	0.19024	0.23666	-0.412
Mof_O 	O 	0.27809	0.17827	0.1354	-0.411
Mof_C 	C 	0.27822	0.19002	0.19203	0.367
Mof_C 	C 	0.24681	0.20546	0.20869	-0.138
Mof_C 	C 	0.22016	0.20816	0.16198	0.074
Mof_H 	H 	0.2211	0.1995	0.1204	0.015
Mof_C 	C 	0.19212	0.22386	0.17776	-0.166
Mof_H 	H 	0.1744	0.2256	0.1464	0.098
Mof_C 	C 	0.19021	0.23683	0.2388	0.127
Mof_C 	C 	0.21662	0.23354	0.28518	-0.166
Mof_H 	H 	0.2154	0.2418	0.3269	0.089
Mof_C 	C 	0.2448	0.21808	0.26976	0.078
Mof_H 	H 	0.2624	0.2163	0.3012	0.018
Mof_C 	C 	0.16249	0.25629	0.25663	-0.086
Mof_C 	C 	0.18018	0.29324	0.29402	-0.036
Mof_H 	H 	0.2092	0.3054	0.3069	0.042
Mof_H 	H 	0.0574	0.1593	0.2609	-0.096
Mof_H 	H 	0.0398	0.124	0.1602	0.286
Mof_O 	O 	0.96911	0.52357	0.56999	-0.412
Mof_O 	O 	0.94476	0.5116	0.46873	-0.411
Mof_C 	C 	0.94489	0.52335	0.52536	0.367
Mof_C 	C 	0.91348	0.53879	0.54202	-0.138
Mof_C 	C 	0.88683	0.54149	0.49531	0.074
Mof_H 	H 	0.88777	0.53283	0.45373	0.015
Mof_C 	C 	0.85879	0.55719	0.51109	-0.166
Mof_H 	H 	0.84107	0.55893	0.47973	0.098
Mof_C 	C 	0.85688	0.57016	0.57213	0.127
Mof_C 	C 	0.88329	0.56687	0.61851	-0.166
Mof_H 	H 	0.88207	0.57513	0.66023	0.089
Mof_C 	C 	0.91147	0.55141	0.60309	0.078
Mof_H 	H 	0.92907	0.54963	0.63453	0.018
Mof_C 	C 	0.82916	0.58962	0.58996	-0.086
Mof_C 	C 	0.84685	0.62657	0.62735	-0.036
Mof_H 	H 	0.87587	0.63873	0.64023	0.042
Mof_H 	H 	0.72407	0.49263	0.59423	-0.096
Mof_H 	H 	0.70647	0.45733	0.49353	0.286
Mof_O 	O 	0.63577	0.85691	0.90333	-0.412
Mof_O 	O 	0.61142	0.84494	0.80207	-0.411
Mof_C 	C 	0.61155	0.85669	0.8587	0.367
Mof_C 	C 	0.58014	0.87213	0.87536	-0.138
Mof_C 	C 	0.55349	0.87483	0.82865	0.074
Mof_H 	H 	0.55443	0.86617	0.78707	0.015
Mof_C 	C 	0.52545	0.89053	0.84443	-0.166
Mof_H 	H 	0.50773	0.89227	0.81307	0.098
Mof_C 	C 	0.52354	0.9035	0.90547	0.127
Mof_C 	C 	0.54995	0.90021	0.95185	-0.166
Mof_H 	H 	0.54873	0.90847	0.99357	0.089
Mof_C 	C 	0.57813	0.88475	0.93643	0.078
Mof_H 	H 	0.59573	0.88297	0.96787	0.018
Mof_C 	C 	0.49582	0.92296	0.9233	-0.086
Mof_C 	C 	0.51351	0.95991	0.96069	-0.036
Mof_H 	H 	0.54253	0.97207	0.97357	0.042
Mof_H 	H 	0.39073	0.82597	0.92757	-0.096
Mof_H 	H 	0.37313	0.79067	0.82687	0.286
Mof_O 	O 	0.80976	0.1122	0.23666	-0.412
Mof_O 	O 	0.82173	0.09982	0.1354	-0.411
Mof_C 	C 	0.80998	0.0882	0.19203	0.367
Mof_C 	C 	0.79454	0.04135	0.20869	-0.138
Mof_C 	C 	0.79184	0.012	0.16198	0.074
Mof_H 	H 	0.8005	0.0216	0.1204	0.015
Mof_C 	C 	0.77614	0.96826	0.17776	-0.166
Mof_H 	H 	0.7744	0.9488	0.1464	0.098
Mof_C 	C 	0.76317	0.95338	0.2388	0.127
Mof_C 	C 	0.76646	0.98308	0.28518	-0.166
Mof_H 	H 	0.7582	0.9736	0.3269	0.089
Mof_C 	C 	0.78192	0.02672	0.26976	0.078
Mof_H 	H 	0.7837	0.0461	0.3012	0.019
Mof_C 	C 	0.74371	0.9062	0.25663	-0.085
Mof_C 	C 	0.70676	0.88694	0.29402	-0.035
Mof_H 	H 	0.6946	0.9038	0.3069	0.043
Mof_H 	H 	0.8407	0.8981	0.2609	-0.095
Mof_H 	H 	0.876	0.9158	0.1602	0.287
Mof_O 	O 	0.47643	0.44553	0.56999	-0.411
Mof_O 	O 	0.4884	0.43315	0.46873	-0.41
Mof_C 	C 	0.47665	0.42153	0.52536	0.368
Mof_C 	C 	0.46121	0.37468	0.54202	-0.137
Mof_C 	C 	0.45851	0.34533	0.49531	0.075
Mof_H 	H 	0.46717	0.35493	0.45373	0.016
Mof_C 	C 	0.44281	0.30159	0.51109	-0.165
Mof_H 	H 	0.44107	0.28213	0.47973	0.099
Mof_C 	C 	0.42984	0.28671	0.57213	0.128
Mof_C 	C 	0.43313	0.31641	0.61851	-0.165
Mof_H 	H 	0.42487	0.30693	0.66023	0.09
Mof_C 	C 	0.44859	0.36005	0.60309	0.079
Mof_H 	H 	0.45037	0.37943	0.63453	0.019
Mof_C 	C 	0.41038	0.23953	0.58996	-0.085
Mof_C 	C 	0.37343	0.22027	0.62735	-0.035
Mof_H 	H 	0.36127	0.23713	0.64023	0.043
Mof_H 	H 	0.50737	0.23143	0.59423	-0.095
Mof_H 	H 	0.54267	0.24913	0.49353	0.287
Mof_O 	O 	0.14309	0.77887	0.90333	-0.411
Mof_O 	O 	0.15506	0.76649	0.80207	-0.41
Mof_C 	C 	0.14331	0.75487	0.8587	0.368
Mof_C 	C 	0.12787	0.70802	0.87536	-0.137
Mof_C 	C 	0.12517	0.67867	0.82865	0.075
Mof_H 	H 	0.13383	0.68827	0.78707	0.016
Mof_C 	C 	0.10947	0.63493	0.84443	-0.165
Mof_H 	H 	0.10773	0.61547	0.81307	0.099
Mof_C 	C 	0.0965	0.62005	0.90547	0.128
Mof_C 	C 	0.09979	0.64975	0.95185	-0.165
Mof_H 	H 	0.09153	0.64027	0.99357	0.09
Mof_C 	C 	0.11525	0.69339	0.93643	0.079
Mof_H 	H 	0.11703	0.71277	0.96787	0.019
Mof_C 	C 	0.07704	0.57287	0.9233	-0.085
Mof_C 	C 	0.04009	0.55361	0.96069	-0.035
Mof_H 	H 	0.02793	0.57047	0.97357	0.043
Mof_H 	H 	0.17403	0.56477	0.92757	-0.095
Mof_H 	H 	0.20933	0.58247	0.82687	0.287
Mof_O 	O 	0.8878	0.69756	0.23666	-0.411
Mof_O 	O 	0.90018	0.72191	0.1354	-0.41
Mof_C 	C 	0.9118	0.72178	0.19203	0.368
Mof_C 	C 	0.95865	0.75319	0.20869	-0.137
Mof_C 	C 	0.988	0.77984	0.16198	0.074
Mof_H 	H 	0.9784	0.7789	0.1204	0.016
Mof_C 	C 	0.03174	0.80788	0.17776	-0.165
Mof_H 	H 	0.0512	0.8256	0.1464	0.099
Mof_C 	C 	0.04662	0.80979	0.2388	0.127
Mof_C 	C 	0.01692	0.78338	0.28518	-0.165
Mof_H 	H 	0.0264	0.7846	0.3269	0.09
Mof_C 	C 	0.97328	0.7552	0.26976	0.079
Mof_H 	H 	0.9539	0.7376	0.3012	0.019
Mof_C 	C 	0.0938	0.83751	0.25663	-0.085
Mof_C 	C 	0.11306	0.81982	0.29402	-0.035
Mof_H 	H 	0.0962	0.7908	0.3069	0.043
Mof_H 	H 	0.1019	0.9426	0.2609	-0.095
Mof_H 	H 	0.0842	0.9602	0.1602	0.286
Mof_O 	O 	0.55447	0.03089	0.56999	-0.411
Mof_O 	O 	0.56685	0.05524	0.46873	-0.41
Mof_C 	C 	0.57847	0.05511	0.52536	0.368
Mof_C 	C 	0.62532	0.08652	0.54202	-0.137
Mof_C 	C 	0.65467	0.11317	0.49531	0.075
Mof_H 	H 	0.64507	0.11223	0.45373	0.016
Mof_C 	C 	0.69841	0.14121	0.51109	-0.165
Mof_H 	H 	0.71787	0.15893	0.47973	0.099
Mof_C 	C 	0.71329	0.14312	0.57213	0.128
Mof_C 	C 	0.68359	0.11671	0.61851	-0.165
Mof_H 	H 	0.69307	0.11793	0.66023	0.09
Mof_C 	C 	0.63995	0.08853	0.60309	0.079
Mof_H 	H 	0.62057	0.07093	0.63453	0.019
Mof_C 	C 	0.76047	0.17084	0.58996	-0.085
Mof_C 	C 	0.77973	0.15315	0.62735	-0.035
Mof_H 	H 	0.76287	0.12413	0.64023	0.043
Mof_H 	H 	0.76857	0.27593	0.59423	-0.095
Mof_H 	H 	0.75087	0.29353	0.49353	0.287
Mof_O 	O 	0.22113	0.36423	0.90333	-0.411
Mof_O 	O 	0.23351	0.38858	0.80207	-0.41
Mof_C 	C 	0.24513	0.38845	0.8587	0.368
Mof_C 	C 	0.29198	0.41986	0.87536	-0.137
Mof_C 	C 	0.32133	0.44651	0.82865	0.075
Mof_H 	H 	0.31173	0.44557	0.78707	0.016
Mof_C 	C 	0.36507	0.47455	0.84443	-0.165
Mof_H 	H 	0.38453	0.49227	0.81307	0.099
Mof_C 	C 	0.37995	0.47646	0.90547	0.128
Mof_C 	C 	0.35025	0.45005	0.95185	-0.165
Mof_H 	H 	0.35973	0.45127	0.99357	0.09
Mof_C 	C 	0.30661	0.42187	0.93643	0.079
Mof_H 	H 	0.28723	0.40427	0.96787	0.019
Mof_C 	C 	0.42713	0.50418	0.9233	-0.085
Mof_C 	C 	0.44639	0.48649	0.96069	-0.035
Mof_H 	H 	0.42953	0.45747	0.97357	0.043
Mof_H 	H 	0.43523	0.60927	0.92757	-0.095
Mof_H 	H 	0.41753	0.62687	0.82687	0.286
Mof_O 	O 	0.19024	0.30244	0.76334	-0.411
Mof_O 	O 	0.17827	0.27809	0.8646	-0.41
Mof_C 	C 	0.19002	0.27822	0.80797	0.368
Mof_C 	C 	0.20546	0.24681	0.79131	-0.137
Mof_C 	C 	0.20816	0.22016	0.83802	0.075
Mof_H 	H 	0.1995	0.2211	0.8796	0.016
Mof_C 	C 	0.22386	0.19212	0.82224	-0.165
Mof_H 	H 	0.2256	0.1744	0.8536	0.099
Mof_C 	C 	0.23683	0.19021	0.7612	0.128
Mof_C 	C 	0.23354	0.21662	0.71482	-0.165
Mof_H 	H 	0.2418	0.2154	0.6731	0.09
Mof_C 	C 	0.21808	0.2448	0.73024	0.079
Mof_H 	H 	0.2163	0.2624	0.6988	0.019
Mof_C 	C 	0.25629	0.16249	0.74337	-0.085
Mof_C 	C 	0.29324	0.18018	0.70598	-0.035
Mof_H 	H 	0.3054	0.2092	0.6931	0.043
Mof_H 	H 	0.1593	0.0574	0.7391	-0.095
Mof_H 	H 	0.124	0.0398	0.8398	0.287
Mof_O 	O 	0.85691	0.63577	0.09667	-0.411
Mof_O 	O 	0.84494	0.61142	0.19793	-0.41
Mof_C 	C 	0.85669	0.61155	0.1413	0.368
Mof_C 	C 	0.87213	0.58014	0.12464	-0.137
Mof_C 	C 	0.87483	0.55349	0.17135	0.075
Mof_H 	H 	0.86617	0.55443	0.21293	0.016
Mof_C 	C 	0.89053	0.52545	0.15557	-0.165
Mof_H 	H 	0.89227	0.50773	0.18693	0.099
Mof_C 	C 	0.9035	0.52354	0.09453	0.128
Mof_C 	C 	0.90021	0.54995	0.04815	-0.165
Mof_H 	H 	0.90847	0.54873	0.00643	0.09
Mof_C 	C 	0.88475	0.57813	0.06357	0.079
Mof_H 	H 	0.88297	0.59573	0.03213	0.019
Mof_C 	C 	0.92296	0.49582	0.0767	-0.085
Mof_C 	C 	0.95991	0.51351	0.03931	-0.035
Mof_H 	H 	0.97207	0.54253	0.02643	0.043
Mof_H 	H 	0.82597	0.39073	0.07243	-0.095
Mof_H 	H 	0.79067	0.37313	0.17313	0.287
Mof_O 	O 	0.52357	0.96911	0.43001	-0.411
Mof_O 	O 	0.5116	0.94476	0.53127	-0.41
Mof_C 	C 	0.52335	0.94489	0.47464	0.368
Mof_C 	C 	0.53879	0.91348	0.45798	-0.137
Mof_C 	C 	0.54149	0.88683	0.50469	0.075
Mof_H 	H 	0.53283	0.88777	0.54627	0.016
Mof_C 	C 	0.55719	0.85879	0.48891	-0.165
Mof_H 	H 	0.55893	0.84107	0.52027	0.099
Mof_C 	C 	0.57016	0.85688	0.42787	0.128
Mof_C 	C 	0.56687	0.88329	0.38149	-0.165
Mof_H 	H 	0.57513	0.88207	0.33977	0.09
Mof_C 	C 	0.55141	0.91147	0.39691	0.079
Mof_H 	H 	0.54963	0.92907	0.36547	0.019
Mof_C 	C 	0.58962	0.82916	0.41004	-0.085
Mof_C 	C 	0.62657	0.84685	0.37265	-0.035
Mof_H 	H 	0.63873	0.87587	0.35977	0.043
Mof_H 	H 	0.49263	0.72407	0.40577	-0.095
Mof_H 	H 	0.45733	0.70647	0.50647	0.287
Mof_O 	O 	0.1122	0.80976	0.76334	-0.411
Mof_O 	O 	0.09982	0.82173	0.8646	-0.41
Mof_C 	C 	0.0882	0.80998	0.80797	0.368
Mof_C 	C 	0.04135	0.79454	0.79131	-0.137
Mof_C 	C 	0.012	0.79184	0.83802	0.075
Mof_H 	H 	0.0216	0.8005	0.8796	0.016
Mof_C 	C 	0.96826	0.77614	0.82224	-0.165
Mof_H 	H 	0.9488	0.7744	0.8536	0.099
Mof_C 	C 	0.95338	0.76317	0.7612	0.128
Mof_C 	C 	0.98308	0.76646	0.71482	-0.165
Mof_H 	H 	0.9736	0.7582	0.6731	0.09
Mof_C 	C 	0.02672	0.78192	0.73024	0.079
Mof_H 	H 	0.0461	0.7837	0.6988	0.019
Mof_C 	C 	0.9062	0.74371	0.74337	-0.085
Mof_C 	C 	0.88694	0.70676	0.70598	-0.035
Mof_H 	H 	0.9038	0.6946	0.6931	0.043
Mof_H 	H 	0.8981	0.8407	0.7391	-0.095
Mof_H 	H 	0.9158	0.876	0.8398	0.287
Mof_O 	O 	0.77887	0.14309	0.09667	-0.411
Mof_O 	O 	0.76649	0.15506	0.19793	-0.41
Mof_C 	C 	0.75487	0.14331	0.1413	0.368
Mof_C 	C 	0.70802	0.12787	0.12464	-0.137
Mof_C 	C 	0.67867	0.12517	0.17135	0.075
Mof_H 	H 	0.68827	0.13383	0.21293	0.016
Mof_C 	C 	0.63493	0.10947	0.15557	-0.165
Mof_H 	H 	0.61547	0.10773	0.18693	0.099
Mof_C 	C 	0.62005	0.0965	0.09453	0.128
Mof_C 	C 	0.64975	0.09979	0.04815	-0.165
Mof_H 	H 	0.64027	0.09153	0.00643	0.09
Mof_C 	C 	0.69339	0.11525	0.06357	0.079
Mof_H 	H 	0.71277	0.11703	0.03213	0.019
Mof_C 	C 	0.57287	0.07704	0.0767	-0.085
Mof_C 	C 	0.55361	0.04009	0.03931	-0.035
Mof_H 	H 	0.57047	0.02793	0.02643	0.043
Mof_H 	H 	0.56477	0.17403	0.07243	-0.095
Mof_H 	H 	0.58247	0.20933	0.17313	0.287
Mof_O 	O 	0.44553	0.47643	0.43001	-0.411
Mof_O 	O 	0.43315	0.4884	0.53127	-0.41
Mof_C 	C 	0.42153	0.47665	0.47464	0.368
Mof_C 	C 	0.37468	0.46121	0.45798	-0.137
Mof_C 	C 	0.34533	0.45851	0.50469	0.075
Mof_H 	H 	0.35493	0.46717	0.54627	0.016
Mof_C 	C 	0.30159	0.44281	0.48891	-0.165
Mof_H 	H 	0.28213	0.44107	0.52027	0.099
Mof_C 	C 	0.28671	0.42984	0.42787	0.128
Mof_C 	C 	0.31641	0.43313	0.38149	-0.165
Mof_H 	H 	0.30693	0.42487	0.33977	0.09
Mof_C 	C 	0.36005	0.44859	0.39691	0.079
Mof_H 	H 	0.37943	0.45037	0.36547	0.019
Mof_C 	C 	0.23953	0.41038	0.41004	-0.085
Mof_C 	C 	0.22027	0.37343	0.37265	-0.035
Mof_H 	H 	0.23713	0.36127	0.35977	0.043
Mof_H 	H 	0.23143	0.50737	0.40577	-0.095
Mof_H 	H 	0.24913	0.54267	0.50647	0.287
Mof_O 	O 	0.69756	0.8878	0.76334	-0.411
Mof_O 	O 	0.72191	0.90018	0.8646	-0.41
Mof_C 	C 	0.72178	0.9118	0.80797	0.368
Mof_C 	C 	0.75319	0.95865	0.79131	-0.137
Mof_C 	C 	0.77984	0.988	0.83802	0.074
Mof_H 	H 	0.7789	0.9784	0.8796	0.016
Mof_C 	C 	0.80788	0.03174	0.82224	-0.165
Mof_H 	H 	0.8256	0.0512	0.8536	0.099
Mof_C 	C 	0.80979	0.04662	0.7612	0.127
Mof_C 	C 	0.78338	0.01692	0.71482	-0.165
Mof_H 	H 	0.7846	0.0264	0.6731	0.09
Mof_C 	C 	0.7552	0.97328	0.73024	0.079
Mof_H 	H 	0.7376	0.9539	0.6988	0.019
Mof_C 	C 	0.83751	0.0938	0.74337	-0.085
Mof_C 	C 	0.81982	0.11306	0.70598	-0.035
Mof_H 	H 	0.7908	0.0962	0.6931	0.043
Mof_H 	H 	0.9426	0.1019	0.7391	-0.095
Mof_H 	H 	0.9602	0.0842	0.8398	0.286
Mof_O 	O 	0.36423	0.22113	0.09667	-0.411
Mof_O 	O 	0.38858	0.23351	0.19793	-0.41
Mof_C 	C 	0.38845	0.24513	0.1413	0.368
Mof_C 	C 	0.41986	0.29198	0.12464	-0.137
Mof_C 	C 	0.44651	0.32133	0.17135	0.075
Mof_H 	H 	0.44557	0.31173	0.21293	0.016
Mof_C 	C 	0.47455	0.36507	0.15557	-0.165
Mof_H 	H 	0.49227	0.38453	0.18693	0.099
Mof_C 	C 	0.47646	0.37995	0.09453	0.128
Mof_C 	C 	0.45005	0.35025	0.04815	-0.165
Mof_H 	H 	0.45127	0.35973	0.00643	0.09
Mof_C 	C 	0.42187	0.30661	0.06357	0.079
Mof_H 	H 	0.40427	0.28723	0.03213	0.019
Mof_C 	C 	0.50418	0.42713	0.0767	-0.085
Mof_C 	C 	0.48649	0.44639	0.03931	-0.035
Mof_H 	H 	0.45747	0.42953	0.02643	0.043
Mof_H 	H 	0.60927	0.43523	0.07243	-0.095
Mof_H 	H 	0.62687	0.41753	0.17313	0.286
Mof_O 	O 	0.03089	0.55447	0.43001	-0.411
Mof_O 	O 	0.05524	0.56685	0.53127	-0.41
Mof_C 	C 	0.05511	0.57847	0.47464	0.368
Mof_C 	C 	0.08652	0.62532	0.45798	-0.137
Mof_C 	C 	0.11317	0.65467	0.50469	0.075
Mof_H 	H 	0.11223	0.64507	0.54627	0.016
Mof_C 	C 	0.14121	0.69841	0.48891	-0.165
Mof_H 	H 	0.15893	0.71787	0.52027	0.099
Mof_C 	C 	0.14312	0.71329	0.42787	0.128
Mof_C 	C 	0.11671	0.68359	0.38149	-0.165
Mof_H 	H 	0.11793	0.69307	0.33977	0.09
Mof_C 	C 	0.08853	0.63995	0.39691	0.079
Mof_H 	H 	0.07093	0.62057	0.36547	0.019
Mof_C 	C 	0.17084	0.76047	0.41004	-0.085
Mof_C 	C 	0.15315	0.77973	0.37265	-0.035
Mof_H 	H 	0.12413	0.76287	0.35977	0.043
Mof_H 	H 	0.27593	0.76857	0.40577	-0.095
Mof_H 	H 	0.29353	0.75087	0.50647	0.287
Mof_O 	O 	0.69756	0.80976	0.76334	-0.411
Mof_O 	O 	0.72191	0.82173	0.8646	-0.41
Mof_C 	C 	0.72178	0.80998	0.80797	0.368
Mof_C 	C 	0.75319	0.79454	0.79131	-0.137
Mof_C 	C 	0.77984	0.79184	0.83802	0.075
Mof_H 	H 	0.7789	0.8005	0.8796	0.016
Mof_C 	C 	0.80788	0.77614	0.82224	-0.165
Mof_H 	H 	0.8256	0.7744	0.8536	0.099
Mof_C 	C 	0.80979	0.76317	0.7612	0.128
Mof_C 	C 	0.78338	0.76646	0.71482	-0.165
Mof_H 	H 	0.7846	0.7582	0.6731	0.09
Mof_C 	C 	0.7552	0.78192	0.73024	0.079
Mof_H 	H 	0.7376	0.7837	0.6988	0.019
Mof_C 	C 	0.83751	0.74371	0.74337	-0.085
Mof_C 	C 	0.81982	0.70676	0.70598	-0.035
Mof_H 	H 	0.7908	0.6946	0.6931	0.043
Mof_H 	H 	0.9426	0.8407	0.7391	-0.095
Mof_H 	H 	0.9602	0.876	0.8398	0.287
Mof_O 	O 	0.36423	0.14309	0.09667	-0.411
Mof_O 	O 	0.38858	0.15506	0.19793	-0.41
Mof_C 	C 	0.38845	0.14331	0.1413	0.368
Mof_C 	C 	0.41986	0.12787	0.12464	-0.137
Mof_C 	C 	0.44651	0.12517	0.17135	0.075
Mof_H 	H 	0.44557	0.13383	0.21293	0.016
Mof_C 	C 	0.47455	0.10947	0.15557	-0.165
Mof_H 	H 	0.49227	0.10773	0.18693	0.099
Mof_C 	C 	0.47646	0.0965	0.09453	0.128
Mof_C 	C 	0.45005	0.09979	0.04815	-0.165
Mof_H 	H 	0.45127	0.09153	0.00643	0.09
Mof_C 	C 	0.42187	0.11525	0.06357	0.079
Mof_H 	H 	0.40427	0.11703	0.03213	0.019
Mof_C 	C 	0.50418	0.07704	0.0767	-0.085
Mof_C 	C 	0.48649	0.04009	0.03931	-0.035
Mof_H 	H 	0.45747	0.02793	0.02643	0.043
Mof_H 	H 	0.60927	0.17403	0.07243	-0.095
Mof_H 	H 	0.62687	0.20933	0.17313	0.287
Mof_O 	O 	0.03089	0.47643	0.43001	-0.411
Mof_O 	O 	0.05524	0.4884	0.53127	-0.41
Mof_C 	C 	0.05511	0.47665	0.47464	0.368
Mof_C 	C 	0.08652	0.46121	0.45798	-0.137
Mof_C 	C 	0.11317	0.45851	0.50469	0.075
Mof_H 	H 	0.11223	0.46717	0.54627	0.016
Mof_C 	C 	0.14121	0.44281	0.48891	-0.165
Mof_H 	H 	0.15893	0.44107	0.52027	0.099
Mof_C 	C 	0.14312	0.42984	0.42787	0.128
Mof_C 	C 	0.11671	0.43313	0.38149	-0.165
Mof_H 	H 	0.11793	0.42487	0.33977	0.09
Mof_C 	C 	0.08853	0.44859	0.39691	0.079
Mof_H 	H 	0.07093	0.45037	0.36547	0.019
Mof_C 	C 	0.17084	0.41038	0.41004	-0.085
Mof_C 	C 	0.15315	0.37343	0.37265	-0.035
Mof_H 	H 	0.12413	0.36127	0.35977	0.043
Mof_H 	H 	0.27593	0.50737	0.40577	-0.095
Mof_H 	H 	0.29353	0.54267	0.50647	0.287
Mof_O 	O 	0.19024	0.8878	0.76334	-0.411
Mof_O 	O 	0.17827	0.90018	0.8646	-0.41
Mof_C 	C 	0.19002	0.9118	0.80797	0.368
Mof_C 	C 	0.20546	0.95865	0.79131	-0.137
Mof_C 	C 	0.20816	0.988	0.83802	0.075
Mof_H 	H 	0.1995	0.9784	0.8796	0.016
Mof_C 	C 	0.22386	0.03174	0.82224	-0.165
Mof_H 	H 	0.2256	0.0512	0.8536	0.099
Mof_C 	C 	0.23683	0.04662	0.7612	0.128
Mof_C 	C 	0.23354	0.01692	0.71482	-0.165
Mof_H 	H 	0.2418	0.0264	0.6731	0.09
Mof_C 	C 	0.21808	0.97328	0.73024	0.079
Mof_H 	H 	0.2163	0.9539	0.6988	0.019
Mof_C 	C 	0.25629	0.0938	0.74337	-0.085
Mof_C 	C 	0.29324	0.11306	0.70598	-0.035
Mof_H 	H 	0.3054	0.0962	0.6931	0.043
Mof_H 	H 	0.1593	0.1019	0.7391	-0.095
Mof_H 	H 	0.124	0.0842	0.8398	0.287
Mof_O 	O 	0.85691	0.22113	0.09667	-0.411
Mof_O 	O 	0.84494	0.23351	0.19793	-0.41
Mof_C 	C 	0.85669	0.24513	0.1413	0.368
Mof_C 	C 	0.87213	0.29198	0.12464	-0.137
Mof_C 	C 	0.87483	0.32133	0.17135	0.075
Mof_H 	H 	0.86617	0.31173	0.21293	0.016
Mof_C 	C 	0.89053	0.36507	0.15557	-0.165
Mof_H 	H 	0.89227	0.38453	0.18693	0.099
Mof_C 	C 	0.9035	0.37995	0.09453	0.128
Mof_C 	C 	0.90021	0.35025	0.04815	-0.165
Mof_H 	H 	0.90847	0.35973	0.00643	0.09
Mof_C 	C 	0.88475	0.30661	0.06357	0.079
Mof_H 	H 	0.88297	0.28723	0.03213	0.019
Mof_C 	C 	0.92296	0.42713	0.0767	-0.085
Mof_C 	C 	0.95991	0.44639	0.03931	-0.035
Mof_H 	H 	0.97207	0.42953	0.02643	0.043
Mof_H 	H 	0.82597	0.43523	0.07243	-0.095
Mof_H 	H 	0.79067	0.41753	0.17313	0.287
Mof_O 	O 	0.52357	0.55447	0.43001	-0.411
Mof_O 	O 	0.5116	0.56685	0.53127	-0.41
Mof_C 	C 	0.52335	0.57847	0.47464	0.368
Mof_C 	C 	0.53879	0.62532	0.45798	-0.137
Mof_C 	C 	0.54149	0.65467	0.50469	0.075
Mof_H 	H 	0.53283	0.64507	0.54627	0.016
Mof_C 	C 	0.55719	0.69841	0.48891	-0.165
Mof_H 	H 	0.55893	0.71787	0.52027	0.099
Mof_C 	C 	0.57016	0.71329	0.42787	0.128
Mof_C 	C 	0.56687	0.68359	0.38149	-0.165
Mof_H 	H 	0.57513	0.69307	0.33977	0.09
Mof_C 	C 	0.55141	0.63995	0.39691	0.079
Mof_H 	H 	0.54963	0.62057	0.36547	0.019
Mof_C 	C 	0.58962	0.76047	0.41004	-0.085
Mof_C 	C 	0.62657	0.77973	0.37265	-0.035
Mof_H 	H 	0.63873	0.76287	0.35977	0.043
Mof_H 	H 	0.49263	0.76857	0.40577	-0.095
Mof_H 	H 	0.45733	0.75087	0.50647	0.287
Mof_O 	O 	0.1122	0.30244	0.76334	-0.411
Mof_O 	O 	0.09982	0.27809	0.8646	-0.41
Mof_C 	C 	0.0882	0.27822	0.80797	0.368
Mof_C 	C 	0.04135	0.24681	0.79131	-0.137
Mof_C 	C 	0.012	0.22016	0.83802	0.074
Mof_H 	H 	0.0216	0.2211	0.8796	0.016
Mof_C 	C 	0.96826	0.19212	0.82224	-0.165
Mof_H 	H 	0.9488	0.1744	0.8536	0.099
Mof_C 	C 	0.95338	0.19021	0.7612	0.127
Mof_C 	C 	0.98308	0.21662	0.71482	-0.165
Mof_H 	H 	0.9736	0.2154	0.6731	0.09
Mof_C 	C 	0.02672	0.2448	0.73024	0.079
Mof_H 	H 	0.0461	0.2624	0.6988	0.019
Mof_C 	C 	0.9062	0.16249	0.74337	-0.085
Mof_C 	C 	0.88694	0.18018	0.70598	-0.035
Mof_H 	H 	0.9038	0.2092	0.6931	0.043
Mof_H 	H 	0.8981	0.0574	0.7391	-0.095
Mof_H 	H 	0.9158	0.0398	0.8398	0.286
Mof_O 	O 	0.77887	0.63577	0.09667	-0.411
Mof_O 	O 	0.76649	0.61142	0.19793	-0.41
Mof_C 	C 	0.75487	0.61155	0.1413	0.368
Mof_C 	C 	0.70802	0.58014	0.12464	-0.137
Mof_C 	C 	0.67867	0.55349	0.17135	0.075
Mof_H 	H 	0.68827	0.55443	0.21293	0.016
Mof_C 	C 	0.63493	0.52545	0.15557	-0.165
Mof_H 	H 	0.61547	0.50773	0.18693	0.099
Mof_C 	C 	0.62005	0.52354	0.09453	0.128
Mof_C 	C 	0.64975	0.54995	0.04815	-0.165
Mof_H 	H 	0.64027	0.54873	0.00643	0.09
Mof_C 	C 	0.69339	0.57813	0.06357	0.079
Mof_H 	H 	0.71277	0.59573	0.03213	0.019
Mof_C 	C 	0.57287	0.49582	0.0767	-0.085
Mof_C 	C 	0.55361	0.51351	0.03931	-0.035
Mof_H 	H 	0.57047	0.54253	0.02643	0.043
Mof_H 	H 	0.56477	0.39073	0.07243	-0.095
Mof_H 	H 	0.58247	0.37313	0.17313	0.286
Mof_O 	O 	0.44553	0.96911	0.43001	-0.411
Mof_O 	O 	0.43315	0.94476	0.53127	-0.41
Mof_C 	C 	0.42153	0.94489	0.47464	0.368
Mof_C 	C 	0.37468	0.91348	0.45798	-0.137
Mof_C 	C 	0.34533	0.88683	0.50469	0.075
Mof_H 	H 	0.35493	0.88777	0.54627	0.016
Mof_C 	C 	0.30159	0.85879	0.48891	-0.165
Mof_H 	H 	0.28213	0.84107	0.52027	0.099
Mof_C 	C 	0.28671	0.85688	0.42787	0.128
Mof_C 	C 	0.31641	0.88329	0.38149	-0.165
Mof_H 	H 	0.30693	0.88207	0.33977	0.09
Mof_C 	C 	0.36005	0.91147	0.39691	0.079
Mof_H 	H 	0.37943	0.92907	0.36547	0.019
Mof_C 	C 	0.23953	0.82916	0.41004	-0.085
Mof_C 	C 	0.22027	0.84685	0.37265	-0.035
Mof_H 	H 	0.23713	0.87587	0.35977	0.043
Mof_H 	H 	0.23143	0.72407	0.40577	-0.095
Mof_H 	H 	0.24913	0.70647	0.50647	0.287
Mof_O 	O 	0.80976	0.69756	0.23666	-0.411
Mof_O 	O 	0.82173	0.72191	0.1354	-0.41
Mof_C 	C 	0.80998	0.72178	0.19203	0.368
Mof_C 	C 	0.79454	0.75319	0.20869	-0.137
Mof_C 	C 	0.79184	0.77984	0.16198	0.075
Mof_H 	H 	0.8005	0.7789	0.1204	0.016
Mof_C 	C 	0.77614	0.80788	0.17776	-0.165
Mof_H 	H 	0.7744	0.8256	0.1464	0.099
Mof_C 	C 	0.76317	0.80979	0.2388	0.128
Mof_C 	C 	0.76646	0.78338	0.28518	-0.165
Mof_H 	H 	0.7582	0.7846	0.3269	0.09
Mof_C 	C 	0.78192	0.7552	0.26976	0.079
Mof_H 	H 	0.7837	0.7376	0.3012	0.019
Mof_C 	C 	0.74371	0.83751	0.25663	-0.085
Mof_C 	C 	0.70676	0.81982	0.29402	-0.035
Mof_H 	H 	0.6946	0.7908	0.3069	0.043
Mof_H 	H 	0.8407	0.9426	0.2609	-0.095
Mof_H 	H 	0.876	0.9602	0.1602	0.287
Mof_O 	O 	0.47643	0.03089	0.56999	-0.411
Mof_O 	O 	0.4884	0.05524	0.46873	-0.41
Mof_C 	C 	0.47665	0.05511	0.52536	0.368
Mof_C 	C 	0.46121	0.08652	0.54202	-0.137
Mof_C 	C 	0.45851	0.11317	0.49531	0.075
Mof_H 	H 	0.46717	0.11223	0.45373	0.016
Mof_C 	C 	0.44281	0.14121	0.51109	-0.165
Mof_H 	H 	0.44107	0.15893	0.47973	0.099
Mof_C 	C 	0.42984	0.14312	0.57213	0.128
Mof_C 	C 	0.43313	0.11671	0.61851	-0.165
Mof_H 	H 	0.42487	0.11793	0.66023	0.09
Mof_C 	C 	0.44859	0.08853	0.60309	0.079
Mof_H 	H 	0.45037	0.07093	0.63453	0.019
Mof_C 	C 	0.41038	0.17084	0.58996	-0.085
Mof_C 	C 	0.37343	0.15315	0.62735	-0.035
Mof_H 	H 	0.36127	0.12413	0.64023	0.043
Mof_H 	H 	0.50737	0.27593	0.59423	-0.095
Mof_H 	H 	0.54267	0.29353	0.49353	0.287
Mof_O 	O 	0.14309	0.36423	0.90333	-0.411
Mof_O 	O 	0.15506	0.38858	0.80207	-0.41
Mof_C 	C 	0.14331	0.38845	0.8587	0.368
Mof_C 	C 	0.12787	0.41986	0.87536	-0.137
Mof_C 	C 	0.12517	0.44651	0.82865	0.075
Mof_H 	H 	0.13383	0.44557	0.78707	0.016
Mof_C 	C 	0.10947	0.47455	0.84443	-0.165
Mof_H 	H 	0.10773	0.49227	0.81307	0.099
Mof_C 	C 	0.0965	0.47646	0.90547	0.128
Mof_C 	C 	0.09979	0.45005	0.95185	-0.165
Mof_H 	H 	0.09153	0.45127	0.99357	0.09
Mof_C 	C 	0.11525	0.42187	0.93643	0.079
Mof_H 	H 	0.11703	0.40427	0.96787	0.019
Mof_C 	C 	0.07704	0.50418	0.9233	-0.085
Mof_C 	C 	0.04009	0.48649	0.96069	-0.035
Mof_H 	H 	0.02793	0.45747	0.97357	0.043
Mof_H 	H 	0.17403	0.60927	0.92757	-0.095
Mof_H 	H 	0.20933	0.62687	0.82687	0.287
Mof_O 	O 	0.8878	0.19024	0.23666	-0.411
Mof_O 	O 	0.90018	0.17827	0.1354	-0.41
Mof_C 	C 	0.9118	0.19002	0.19203	0.368
Mof_C 	C 	0.95865	0.20546	0.20869	-0.137
Mof_C 	C 	0.988	0.20816	0.16198	0.075
Mof_H 	H 	0.9784	0.1995	0.1204	0.016
Mof_C 	C 	0.03174	0.22386	0.17776	-0.165
Mof_H 	H 	0.0512	0.2256	0.1464	0.099
Mof_C 	C 	0.04662	0.23683	0.2388	0.128
Mof_C 	C 	0.01692	0.23354	0.28518	-0.165
Mof_H 	H 	0.0264	0.2418	0.3269	0.09
Mof_C 	C 	0.97328	0.21808	0.26976	0.079
Mof_H 	H 	0.9539	0.2163	0.3012	0.019
Mof_C 	C 	0.0938	0.25629	0.25663	-0.085
Mof_C 	C 	0.11306	0.29324	0.29402	-0.035
Mof_H 	H 	0.0962	0.3054	0.3069	0.043
Mof_H 	H 	0.1019	0.1593	0.2609	-0.095
Mof_H 	H 	0.0842	0.124	0.1602	0.287
Mof_O 	O 	0.55447	0.52357	0.56999	-0.411
Mof_O 	O 	0.56685	0.5116	0.46873	-0.41
Mof_C 	C 	0.57847	0.52335	0.52536	0.368
Mof_C 	C 	0.62532	0.53879	0.54202	-0.137
Mof_C 	C 	0.65467	0.54149	0.49531	0.075
Mof_H 	H 	0.64507	0.53283	0.45373	0.016
Mof_C 	C 	0.69841	0.55719	0.51109	-0.165
Mof_H 	H 	0.71787	0.55893	0.47973	0.099
Mof_C 	C 	0.71329	0.57016	0.57213	0.128
Mof_C 	C 	0.68359	0.56687	0.61851	-0.165
Mof_H 	H 	0.69307	0.57513	0.66023	0.09
Mof_C 	C 	0.63995	0.55141	0.60309	0.079
Mof_H 	H 	0.62057	0.54963	0.63453	0.019
Mof_C 	C 	0.76047	0.58962	0.58996	-0.085
Mof_C 	C 	0.77973	0.62657	0.62735	-0.035
Mof_H 	H 	0.76287	0.63873	0.64023	0.043
Mof_H 	H 	0.76857	0.49263	0.59423	-0.095
Mof_H 	H 	0.75087	0.45733	0.49353	0.287
Mof_O 	O 	0.22113	0.85691	0.90333	-0.411
Mof_O 	O 	0.23351	0.84494	0.80207	-0.41
Mof_C 	C 	0.24513	0.85669	0.8587	0.368
Mof_C 	C 	0.29198	0.87213	0.87536	-0.137
Mof_C 	C 	0.32133	0.87483	0.82865	0.075
Mof_H 	H 	0.31173	0.86617	0.78707	0.016
Mof_C 	C 	0.36507	0.89053	0.84443	-0.165
Mof_H 	H 	0.38453	0.89227	0.81307	0.099
Mof_C 	C 	0.37995	0.9035	0.90547	0.128
Mof_C 	C 	0.35025	0.90021	0.95185	-0.165
Mof_H 	H 	0.35973	0.90847	0.99357	0.09
Mof_C 	C 	0.30661	0.88475	0.93643	0.079
Mof_H 	H 	0.28723	0.88297	0.96787	0.019
Mof_C 	C 	0.42713	0.92296	0.9233	-0.085
Mof_C 	C 	0.44639	0.95991	0.96069	-0.035
Mof_H 	H 	0.42953	0.97207	0.97357	0.043
Mof_H 	H 	0.43523	0.82597	0.92757	-0.095
Mof_H 	H 	0.41753	0.79067	0.82687	0.287
Mof_O 	O 	0.30244	0.1122	0.23666	-0.411
Mof_O 	O 	0.27809	0.09982	0.1354	-0.41
Mof_C 	C 	0.27822	0.0882	0.19203	0.368
Mof_C 	C 	0.24681	0.04135	0.20869	-0.137
Mof_C 	C 	0.22016	0.012	0.16198	0.074
Mof_H 	H 	0.2211	0.0216	0.1204	0.016
Mof_C 	C 	0.19212	0.96826	0.17776	-0.165
Mof_H 	H 	0.1744	0.9488	0.1464	0.099
Mof_C 	C 	0.19021	0.95338	0.2388	0.127
Mof_C 	C 	0.21662	0.98308	0.28518	-0.165
Mof_H 	H 	0.2154	0.9736	0.3269	0.09
Mof_C 	C 	0.2448	0.02672	0.26976	0.079
Mof_H 	H 	0.2624	0.0461	0.3012	0.019
Mof_C 	C 	0.16249	0.9062	0.25663	-0.085
Mof_C 	C 	0.18018	0.88694	0.29402	-0.035
Mof_H 	H 	0.2092	0.9038	0.3069	0.043
Mof_H 	H 	0.0574	0.8981	0.2609	-0.095
Mof_H 	H 	0.0398	0.9158	0.1602	0.286
Mof_O 	O 	0.96911	0.44553	0.56999	-0.411
Mof_O 	O 	0.94476	0.43315	0.46873	-0.41
Mof_C 	C 	0.94489	0.42153	0.52536	0.368
Mof_C 	C 	0.91348	0.37468	0.54202	-0.137
Mof_C 	C 	0.88683	0.34533	0.49531	0.075
Mof_H 	H 	0.88777	0.35493	0.45373	0.016
Mof_C 	C 	0.85879	0.30159	0.51109	-0.165
Mof_H 	H 	0.84107	0.28213	0.47973	0.099
Mof_C 	C 	0.85688	0.28671	0.57213	0.128
Mof_C 	C 	0.88329	0.31641	0.61851	-0.165
Mof_H 	H 	0.88207	0.30693	0.66023	0.09
Mof_C 	C 	0.91147	0.36005	0.60309	0.079
Mof_H 	H 	0.92907	0.37943	0.63453	0.019
Mof_C 	C 	0.82916	0.23953	0.58996	-0.085
Mof_C 	C 	0.84685	0.22027	0.62735	-0.035
Mof_H 	H 	0.87587	0.23713	0.64023	0.043
Mof_H 	H 	0.72407	0.23143	0.59423	-0.095
Mof_H 	H 	0.70647	0.24913	0.49353	0.287
Mof_O 	O 	0.63577	0.77887	0.90333	-0.411
Mof_O 	O 	0.61142	0.76649	0.80207	-0.41
Mof_C 	C 	0.61155	0.75487	0.8587	0.368
Mof_C 	C 	0.58014	0.70802	0.87536	-0.137
Mof_C 	C 	0.55349	0.67867	0.82865	0.075
Mof_H 	H 	0.55443	0.68827	0.78707	0.016
Mof_C 	C 	0.52545	0.63493	0.84443	-0.165
Mof_H 	H 	0.50773	0.61547	0.81307	0.099
Mof_C 	C 	0.52354	0.62005	0.90547	0.128
Mof_C 	C 	0.54995	0.64975	0.95185	-0.165
Mof_H 	H 	0.54873	0.64027	0.99357	0.09
Mof_C 	C 	0.57813	0.69339	0.93643	0.079
Mof_H 	H 	0.59573	0.71277	0.96787	0.019
Mof_C 	C 	0.49582	0.57287	0.9233	-0.085
Mof_C 	C 	0.51351	0.55361	0.96069	-0.035
Mof_H 	H 	0.54253	0.57047	0.97357	0.043
Mof_H 	H 	0.39073	0.56477	0.92757	-0.095
Mof_H 	H 	0.37313	0.58247	0.82687	0.286
Mof_Cu	Cu	0.31931	0.15965	0.10728	0.903
Mof_Cu	Cu	0.98598	0.49299	0.44061	0.903
Mof_Cu	Cu	0.65264	0.82632	0.77395	0.903
Mof_Cu	Cu	0.84034	0.15966	0.10728	0.903
Mof_Cu	Cu	0.50701	0.49299	0.44061	0.903
Mof_Cu	Cu	0.17368	0.82632	0.77395	0.903
Mof_Cu	Cu	0.84034	0.68069	0.10728	0.903
Mof_Cu	Cu	0.50701	0.01402	0.44061	0.903
Mof_Cu	Cu	0.17368	0.34736	0.77395	0.903
Mof_Cu	Cu	0.15966	0.31931	0.89272	0.903
Mof_Cu	Cu	0.82632	0.65264	0.22605	0.903
Mof_Cu	Cu	0.49299	0.98598	0.55939	0.903
Mof_Cu	Cu	0.15966	0.84034	0.89272	0.903
Mof_Cu	Cu	0.82632	0.17368	0.22605	0.903
Mof_Cu	Cu	0.49299	0.50701	0.55939	0.903
Mof_Cu	Cu	0.68069	0.84034	0.89272	0.903
Mof_Cu	Cu	0.34736	0.17368	0.22605	0.903
Mof_Cu	Cu	0.01402	0.50701	0.55939	0.903
Mof_O 	O 	0.10029	0.20057	0.19953	-0.307
Mof_C 	C 	0.15668	0.31336	0.3136	0.002
Mof_C 	C 	0.11866	0.23732	0.23781	0.167
Mof_C 	C 	0.08044	0.16087	0.2339	0.428
Mof_C 	C 	0.0612	0.1224	0.1865	-0.866
Mof_H 	H 	0.04765	0.0953	0.2096	0.276
Mof_O 	O 	0.76695	0.5339	0.53286	-0.307
Mof_C 	C 	0.82335	0.64669	0.64693	0.001
Mof_C 	C 	0.78533	0.57065	0.57114	0.167
Mof_C 	C 	0.7471	0.4942	0.56723	0.428
Mof_C 	C 	0.72787	0.45573	0.51983	-0.866
Mof_H 	H 	0.71432	0.42863	0.54293	0.276
Mof_O 	O 	0.43362	0.86724	0.8662	-0.307
Mof_C 	C 	0.49001	0.98003	0.98027	0.002
Mof_C 	C 	0.45199	0.90399	0.90448	0.167
Mof_C 	C 	0.41377	0.82754	0.90057	0.428
Mof_C 	C 	0.39453	0.78907	0.85317	-0.866
Mof_H 	H 	0.38098	0.76197	0.87627	0.276
Mof_O 	O 	0.79943	0.89971	0.19953	-0.307
Mof_C 	C 	0.68664	0.84332	0.3136	0.002
Mof_C 	C 	0.76268	0.88134	0.23781	0.167
Mof_C 	C 	0.83913	0.91957	0.2339	0.428
Mof_C 	C 	0.8776	0.9388	0.1865	-0.866
Mof_H 	H 	0.9047	0.95235	0.2096	0.276
Mof_O 	O 	0.4661	0.23305	0.53286	-0.307
Mof_C 	C 	0.35331	0.17665	0.64693	0.001
Mof_C 	C 	0.42935	0.21467	0.57114	0.167
Mof_C 	C 	0.5058	0.2529	0.56723	0.428
Mof_C 	C 	0.54427	0.27213	0.51983	-0.866
Mof_H 	H 	0.57137	0.28568	0.54293	0.276
Mof_O 	O 	0.13276	0.56638	0.8662	-0.307
Mof_C 	C 	0.01997	0.50999	0.98027	0.002
Mof_C 	C 	0.09601	0.54801	0.90448	0.167
Mof_C 	C 	0.17246	0.58623	0.90057	0.428
Mof_C 	C 	0.21093	0.60547	0.85317	-0.866
Mof_H 	H 	0.23803	0.61902	0.87627	0.276
Mof_O 	O 	0.10029	0.89971	0.19953	-0.307
Mof_C 	C 	0.15668	0.84332	0.3136	0.002
Mof_C 	C 	0.11866	0.88134	0.23781	0.167
Mof_C 	C 	0.08044	0.91956	0.2339	0.428
Mof_C 	C 	0.0612	0.9388	0.1865	-0.866
Mof_H 	H 	0.04765	0.95235	0.2096	0.276
Mof_O 	O 	0.76695	0.23305	0.53286	-0.307
Mof_C 	C 	0.82335	0.17665	0.64693	0.001
Mof_C 	C 	0.78533	0.21467	0.57114	0.167
Mof_C 	C 	0.7471	0.2529	0.56723	0.429
Mof_C 	C 	0.72787	0.27213	0.51983	-0.867
Mof_H 	H 	0.71432	0.28568	0.54293	0.276
Mof_O 	O 	0.43362	0.56638	0.8662	-0.307
Mof_C 	C 	0.49001	0.50999	0.98027	0.001
Mof_C 	C 	0.45199	0.54801	0.90448	0.167
Mof_C 	C 	0.41377	0.58623	0.90057	0.427
Mof_C 	C 	0.39453	0.60547	0.85317	-0.865
Mof_H 	H 	0.38098	0.61902	0.87627	0.276
Mof_O 	O 	0.20057	0.10029	0.80047	-0.307
Mof_C 	C 	0.31336	0.15668	0.6864	0.002
Mof_C 	C 	0.23732	0.11866	0.76219	0.167
Mof_C 	C 	0.16087	0.08044	0.7661	0.428
Mof_C 	C 	0.1224	0.0612	0.8135	-0.866
Mof_H 	H 	0.0953	0.04765	0.7904	0.276
Mof_O 	O 	0.86724	0.43362	0.1338	-0.307
Mof_C 	C 	0.98003	0.49001	0.01973	0.002
Mof_C 	C 	0.90399	0.45199	0.09552	0.167
Mof_C 	C 	0.82754	0.41377	0.09943	0.428
Mof_C 	C 	0.78907	0.39453	0.14683	-0.866
Mof_H 	H 	0.76197	0.38098	0.12373	0.276
Mof_O 	O 	0.5339	0.76695	0.46714	-0.307
Mof_C 	C 	0.64669	0.82335	0.35307	0.001
Mof_C 	C 	0.57065	0.78533	0.42886	0.167
Mof_C 	C 	0.4942	0.7471	0.43277	0.428
Mof_C 	C 	0.45573	0.72787	0.48017	-0.866
Mof_H 	H 	0.42863	0.71432	0.45707	0.276
Mof_O 	O 	0.89971	0.79943	0.80047	-0.307
Mof_C 	C 	0.84332	0.68664	0.6864	0.002
Mof_C 	C 	0.88134	0.76268	0.76219	0.167
Mof_C 	C 	0.91956	0.83913	0.7661	0.428
Mof_C 	C 	0.9388	0.8776	0.8135	-0.866
Mof_H 	H 	0.95235	0.9047	0.7904	0.276
Mof_O 	O 	0.56638	0.13276	0.1338	-0.307
Mof_C 	C 	0.50999	0.01997	0.01973	0.002
Mof_C 	C 	0.54801	0.09601	0.09552	0.167
Mof_C 	C 	0.58623	0.17246	0.09943	0.428
Mof_C 	C 	0.60547	0.21093	0.14683	-0.866
Mof_H 	H 	0.61902	0.23803	0.12373	0.276
Mof_O 	O 	0.23305	0.4661	0.46714	-0.307
Mof_C 	C 	0.17665	0.35331	0.35307	0.001
Mof_C 	C 	0.21467	0.42935	0.42886	0.167
Mof_C 	C 	0.2529	0.5058	0.43277	0.428
Mof_C 	C 	0.27213	0.54427	0.48017	-0.866
Mof_H 	H 	0.28568	0.57137	0.45707	0.276
Mof_O 	O 	0.89971	0.10029	0.80047	-0.307
Mof_C 	C 	0.84332	0.15668	0.6864	0.002
Mof_C 	C 	0.88134	0.11866	0.76219	0.167
Mof_C 	C 	0.91956	0.08044	0.7661	0.428
Mof_C 	C 	0.9388	0.0612	0.8135	-0.866
Mof_H 	H 	0.95235	0.04765	0.7904	0.276
Mof_O 	O 	0.56638	0.43362	0.1338	-0.307
Mof_C 	C 	0.50999	0.49001	0.01973	0.001
Mof_C 	C 	0.54801	0.45199	0.09552	0.167
Mof_C 	C 	0.58623	0.41377	0.09943	0.427
Mof_C 	C 	0.60547	0.39453	0.14683	-0.865
Mof_H 	H 	0.61902	0.38098	0.12373	0.276
Mof_O 	O 	0.23305	0.76695	0.46714	-0.307
Mof_C 	C 	0.17665	0.82335	0.35307	0.001
Mof_C 	C 	0.21467	0.78533	0.42886	0.167
Mof_C 	C 	0.2529	0.7471	0.43277	0.429
Mof_C 	C 	0.27213	0.72787	0.48017	-0.867
Mof_H 	H 	0.28568	0.71432	0.45707	0.276
_end
