data_functionalizedCrystal
_audit_creation_method	'EQeq! by Chris Wilmer'
_symmetry_space_group_name_H-M	'P1'
_symmetry_Int_Tables_number	1
_symmetry_cell_setting	triclinic
loop_
_symmetry_equiv_pos_as_xyz
  x,y,z
_cell_length_a	16.0971
_cell_length_b	19.5272
_cell_length_c	14.4098
_cell_angle_alpha	90
_cell_angle_beta	101.346
_cell_angle_gamma	90
loop_
_atom_site_label
_atom_site_type_symbol
_atom_site_fract_x
_atom_site_fract_y
_atom_site_fract_z
_atom_site_charge
Mof_Ag	Ag	0.20507	0.28616	0.12341	0.597
Mof_N 	N 	0.10621	0.38208	0.0817	-0.166
Mof_N 	N 	0.33412	0.3384	0.1165	-0.18
Mof_N 	N 	0.2314	0.30893	0.2883	-0.174
Mof_N 	N 	0.12526	0.20976	0.0331	-0.19
Mof_C 	C 	0.1364	0.44374	0.0656	0.022
Mof_C 	C 	0.042	0.38	0.1285	0.044
Mof_H 	H 	0.1803	0.4458	0.0302	0.014
Mof_C 	C 	0.108	0.5054	0.0972	-0.026
Mof_C 	C 	0.0078	0.4377	0.1602	-0.083
Mof_H 	H 	0.0193	0.3367	0.1402	0.01
Mof_C 	C 	0.0421	0.5002	0.1456	-0.017
Mof_C 	C 	0.1449	0.57117	0.0768	0.023
Mof_H 	H 	0.9613	0.4345	0.1917	0.055
Mof_H 	H 	0.0203	0.5404	0.1691	0.033
Mof_C 	C 	0.0957	0.62982	0.0645	-0.051
Mof_C 	C 	0.2292	0.57707	0.0677	-0.056
Mof_H 	H 	0.0386	0.6277	0.0727	0.049
Mof_C 	C 	0.128	0.69106	0.0406	-0.061
Mof_C 	C 	0.2618	0.63909	0.047	-0.063
Mof_H 	H 	0.2646	0.5377	0.0759	0.044
Mof_H 	H 	0.0923	0.7302	0.0307	0.055
Mof_C 	C 	0.2116	0.69687	0.0307	0.032
Mof_H 	H 	0.3201	0.6422	0.0438	0.05
Mof_C 	C 	0.2447	0.76509	0.0102	-0.031
Mof_C 	C 	0.318	0.78914	0.0848	0.032
Mof_C 	C 	0.207	0.80285	0.935	-0.031
Mof_C 	C 	0.3898	0.8184	0.0632	-0.06
Mof_C 	C 	0.313	0.78048	0.1782	-0.065
Mof_C 	C 	0.225	0.87739	0.9251	0.032
Mof_C 	C 	0.1443	0.77226	0.856	0.031
Mof_C 	C 	0.4558	0.8386	0.1354	-0.058
Mof_H 	H 	0.3941	0.8248	0.9989	0.052
Mof_H 	H 	0.2644	0.7593	0.1936	0.056
Mof_C 	C 	0.3778	0.8021	0.2503	-0.057
Mof_C 	C 	0.2352	0.90425	0.8385	-0.064
Mof_C 	C 	0.2289	0.92189	0.0003	-0.062
Mof_C 	C 	0.1619	0.71084	0.8144	-0.063
Mof_C 	C 	0.0675	0.80399	0.8182	-0.065
Mof_C 	C 	0.4495	0.8314	0.2294	0.026
Mof_H 	H 	0.5059	0.8574	0.1201	0.051
Mof_H 	H 	0.3726	0.7967	0.3144	0.047
Mof_C 	C 	0.2499	0.97274	0.8279	-0.051
Mof_H 	H 	0.2318	0.8745	0.7857	0.056
Mof_H 	H 	0.2216	0.9049	0.0599	0.052
Mof_C 	C 	0.2432	0.99089	0.9895	-0.053
Mof_C 	C 	0.1081	0.68419	0.7361	-0.055
Mof_H 	H 	0.2122	0.6867	0.8406	0.052
Mof_H 	H 	0.0531	0.8456	0.8453	0.051
Mof_C 	C 	0.0119	0.77627	0.742	-0.055
Mof_C 	C 	0.5195	0.8515	0.3086	-0.033
Mof_C 	C 	0.2533	0.01793	0.9032	0.023
Mof_H 	H 	0.258	0.9895	0.7684	0.047
Mof_H 	H 	0.2464	0.0206	0.0424	0.043
Mof_C 	C 	0.0322	0.71655	0.6978	0.02
Mof_H 	H 	0.1232	0.6432	0.7081	0.044
Mof_H 	H 	0.9591	0.7981	0.7194	0.037
Mof_C 	C 	0.6	0.82692	0.3126	0.025
Mof_C 	C 	0.5061	0.8921	0.3825	-0.014
Mof_C 	C 	0.2643	0.09239	0.8906	-0.026
Mof_C 	C 	0.9769	0.68843	0.611	-0.035
Mof_H 	H 	0.6097	0.7997	0.2611	0.011
Mof_H 	H 	0.4517	0.9108	0.3828	0.03
Mof_C 	C 	0.5737	0.905	0.4567	-0.1
Mof_C 	C 	0.226	0.12369	0.8069	0.019
Mof_C 	C 	0.3099	0.1344	0.9599	-0.018
Mof_C 	C 	0.9231	0.73083	0.5489	0.028
Mof_C 	C 	0.98	0.62043	0.5839	-0.007
Mof_C 	C 	0.6506	0.8776	0.4544	0.056
Mof_H 	H 	0.5661	0.9328	0.5085	0.056
Mof_H 	H 	0.1936	0.0957	0.7591	0.018
Mof_H 	H 	0.3373	0.1158	0.0189	0.027
Mof_C 	C 	0.3152	0.2038	0.9423	-0.101
Mof_H 	H 	0.9202	0.7777	0.5655	0.006
Mof_H 	H 	0.0153	0.589	0.6239	0.027
Mof_C 	C 	0.9324	0.59829	0.4997	-0.1
Mof_H 	H 	0.6961	0.8867	0.5059	-0.006
Mof_C 	C 	0.276	0.2298	0.8569	0.053
Mof_H 	H 	0.3459	0.2332	0.9894	0.049
Mof_C 	C 	0.8803	0.64398	0.4434	0.06
Mof_H 	H 	0.9354	0.552	0.4805	0.058
Mof_H 	H 	0.2806	0.2775	0.8458	-0.008
Mof_H 	H 	0.8469	0.6282	0.3856	-0.012
Mof_Ag	Ag	0.79493	0.78616	0.37659	0.596
Mof_N 	N 	0.89379	0.88208	0.4183	-0.167
Mof_N 	N 	0.66588	0.8384	0.3835	-0.181
Mof_N 	N 	0.7686	0.80893	0.2117	-0.175
Mof_N 	N 	0.87474	0.70976	0.4669	-0.191
Mof_C 	C 	0.8636	0.94374	0.4344	0.021
Mof_C 	C 	0.958	0.88	0.3715	0.043
Mof_H 	H 	0.8197	0.9458	0.4698	0.013
Mof_C 	C 	0.892	0.0054	0.4028	-0.027
Mof_C 	C 	0.9922	0.9377	0.3398	-0.084
Mof_H 	H 	0.9807	0.8367	0.3598	0.01
Mof_C 	C 	0.9579	0.0002	0.3544	-0.017
Mof_C 	C 	0.8551	0.07117	0.4232	0.023
Mof_H 	H 	0.0387	0.9345	0.3083	0.055
Mof_H 	H 	0.9797	0.0404	0.3309	0.033
Mof_C 	C 	0.9043	0.12982	0.4355	-0.051
Mof_C 	C 	0.7708	0.07707	0.4323	-0.056
Mof_H 	H 	0.9614	0.1277	0.4273	0.049
Mof_C 	C 	0.872	0.19106	0.4594	-0.061
Mof_C 	C 	0.7382	0.13909	0.453	-0.063
Mof_H 	H 	0.7354	0.0377	0.4241	0.044
Mof_H 	H 	0.9077	0.2302	0.4693	0.055
Mof_C 	C 	0.7884	0.19687	0.4693	0.032
Mof_H 	H 	0.6799	0.1422	0.4562	0.05
Mof_C 	C 	0.7553	0.26509	0.4898	-0.031
Mof_C 	C 	0.682	0.28914	0.4152	0.032
Mof_C 	C 	0.793	0.30285	0.565	-0.031
Mof_C 	C 	0.6102	0.3184	0.4368	-0.061
Mof_C 	C 	0.687	0.28048	0.3218	-0.065
Mof_C 	C 	0.775	0.37739	0.5749	0.034
Mof_C 	C 	0.8557	0.27226	0.644	0.032
Mof_C 	C 	0.5442	0.3386	0.3646	-0.058
Mof_H 	H 	0.6059	0.3248	0.5011	0.052
Mof_H 	H 	0.7356	0.2593	0.3064	0.056
Mof_C 	C 	0.6222	0.3021	0.2497	-0.057
Mof_C 	C 	0.7648	0.40425	0.6615	-0.065
Mof_C 	C 	0.7711	0.42189	0.4997	-0.065
Mof_C 	C 	0.8381	0.21084	0.6856	-0.063
Mof_C 	C 	0.9325	0.30399	0.6818	-0.066
Mof_C 	C 	0.5505	0.3314	0.2706	0.026
Mof_H 	H 	0.4941	0.3574	0.3799	0.051
Mof_H 	H 	0.6274	0.2967	0.1856	0.047
Mof_C 	C 	0.7501	0.47274	0.6721	-0.049
Mof_H 	H 	0.7682	0.3745	0.7143	0.056
Mof_H 	H 	0.7784	0.4049	0.4401	0.053
Mof_C 	C 	0.7568	0.49089	0.5105	-0.05
Mof_C 	C 	0.8919	0.18419	0.7639	-0.055
Mof_H 	H 	0.7878	0.1867	0.6594	0.052
Mof_H 	H 	0.9469	0.3456	0.6547	0.052
Mof_C 	C 	0.9881	0.27627	0.758	-0.055
Mof_C 	C 	0.4805	0.3515	0.1914	-0.033
Mof_C 	C 	0.7467	0.51793	0.5968	0.021
Mof_H 	H 	0.742	0.4895	0.7316	0.047
Mof_H 	H 	0.7536	0.5206	0.4576	0.042
Mof_C 	C 	0.9678	0.21655	0.8022	0.02
Mof_H 	H 	0.8768	0.1432	0.7919	0.044
Mof_H 	H 	0.0409	0.2981	0.7806	0.037
Mof_C 	C 	0.4	0.32692	0.1874	0.025
Mof_C 	C 	0.4939	0.3921	0.1175	-0.014
Mof_C 	C 	0.7357	0.59239	0.6094	-0.025
Mof_C 	C 	0.0231	0.18843	0.889	-0.035
Mof_H 	H 	0.3903	0.2997	0.2389	0.011
Mof_H 	H 	0.5483	0.4108	0.1172	0.03
Mof_C 	C 	0.4263	0.405	0.0433	-0.1
Mof_C 	C 	0.774	0.62369	0.6931	0.019
Mof_C 	C 	0.6901	0.6344	0.5401	-0.019
Mof_C 	C 	0.0769	0.23083	0.9511	0.028
Mof_C 	C 	0.02	0.12043	0.9161	-0.007
Mof_C 	C 	0.3494	0.3776	0.0456	0.056
Mof_H 	H 	0.4339	0.4328	0.9915	0.056
Mof_H 	H 	0.8064	0.5957	0.7409	0.018
Mof_H 	H 	0.6627	0.6158	0.4811	0.028
Mof_C 	C 	0.6848	0.7038	0.5577	-0.1
Mof_H 	H 	0.0798	0.2777	0.9345	0.006
Mof_H 	H 	0.9847	0.089	0.8761	0.027
Mof_C 	C 	0.0676	0.09829	0.0003	-0.1
Mof_H 	H 	0.3039	0.3867	0.9941	-0.006
Mof_C 	C 	0.724	0.7298	0.6431	0.053
Mof_H 	H 	0.6541	0.7332	0.5106	0.049
Mof_C 	C 	0.1197	0.14398	0.0566	0.06
Mof_H 	H 	0.0646	0.052	0.0195	0.058
Mof_H 	H 	0.7194	0.7775	0.6542	-0.008
Mof_H 	H 	0.1531	0.1282	0.1144	-0.012
Mof_Ag	Ag	0.79493	0.71384	0.87659	0.596
Mof_N 	N 	0.89379	0.61792	0.9183	-0.167
Mof_N 	N 	0.66588	0.6616	0.8835	-0.181
Mof_N 	N 	0.7686	0.69107	0.7117	-0.175
Mof_N 	N 	0.87474	0.79024	0.9669	-0.191
Mof_C 	C 	0.8636	0.55626	0.9344	0.021
Mof_C 	C 	0.958	0.62	0.8715	0.043
Mof_H 	H 	0.8197	0.5542	0.9698	0.013
Mof_C 	C 	0.892	0.4946	0.9028	-0.027
Mof_C 	C 	0.9922	0.5623	0.8398	-0.084
Mof_H 	H 	0.9807	0.6633	0.8598	0.01
Mof_C 	C 	0.9579	0.4998	0.8544	-0.017
Mof_C 	C 	0.8551	0.42883	0.9232	0.023
Mof_H 	H 	0.0387	0.5655	0.8083	0.055
Mof_H 	H 	0.9797	0.4596	0.8309	0.033
Mof_C 	C 	0.9043	0.37018	0.9355	-0.051
Mof_C 	C 	0.7708	0.42293	0.9323	-0.056
Mof_H 	H 	0.9614	0.3723	0.9273	0.049
Mof_C 	C 	0.872	0.30894	0.9594	-0.061
Mof_C 	C 	0.7382	0.36091	0.953	-0.063
Mof_H 	H 	0.7354	0.4623	0.9241	0.044
Mof_H 	H 	0.9077	0.2698	0.9693	0.055
Mof_C 	C 	0.7884	0.30313	0.9693	0.032
Mof_H 	H 	0.6799	0.3578	0.9562	0.05
Mof_C 	C 	0.7553	0.23491	0.9898	-0.031
Mof_C 	C 	0.682	0.21086	0.9152	0.032
Mof_C 	C 	0.793	0.19715	0.065	-0.031
Mof_C 	C 	0.6102	0.1816	0.9368	-0.06
Mof_C 	C 	0.687	0.21952	0.8218	-0.065
Mof_C 	C 	0.775	0.12261	0.0749	0.032
Mof_C 	C 	0.8557	0.22774	0.144	0.031
Mof_C 	C 	0.5442	0.1614	0.8646	-0.058
Mof_H 	H 	0.6059	0.1752	0.0011	0.052
Mof_H 	H 	0.7356	0.2407	0.8064	0.056
Mof_C 	C 	0.6222	0.1979	0.7497	-0.057
Mof_C 	C 	0.7648	0.09575	0.1615	-0.064
Mof_C 	C 	0.7711	0.07811	0.9997	-0.062
Mof_C 	C 	0.8381	0.28916	0.1856	-0.063
Mof_C 	C 	0.9325	0.19601	0.1818	-0.065
Mof_C 	C 	0.5505	0.1686	0.7706	0.026
Mof_H 	H 	0.4941	0.1426	0.8799	0.051
Mof_H 	H 	0.6274	0.2033	0.6856	0.047
Mof_C 	C 	0.7501	0.02726	0.1721	-0.051
Mof_H 	H 	0.7682	0.1255	0.2143	0.056
Mof_H 	H 	0.7784	0.0951	0.9401	0.052
Mof_C 	C 	0.7568	0.00911	0.0105	-0.053
Mof_C 	C 	0.8919	0.31581	0.2639	-0.055
Mof_H 	H 	0.7878	0.3133	0.1594	0.052
Mof_H 	H 	0.9469	0.1544	0.1547	0.051
Mof_C 	C 	0.9881	0.22373	0.258	-0.055
Mof_C 	C 	0.4805	0.1485	0.6914	-0.033
Mof_C 	C 	0.7467	0.98207	0.0968	0.023
Mof_H 	H 	0.742	0.0105	0.2316	0.047
Mof_H 	H 	0.7536	0.9794	0.9576	0.043
Mof_C 	C 	0.9678	0.28345	0.3022	0.02
Mof_H 	H 	0.8768	0.3568	0.2919	0.044
Mof_H 	H 	0.0409	0.2019	0.2806	0.037
Mof_C 	C 	0.4	0.17308	0.6874	0.025
Mof_C 	C 	0.4939	0.1079	0.6175	-0.014
Mof_C 	C 	0.7357	0.90761	0.1094	-0.026
Mof_C 	C 	0.0231	0.31157	0.389	-0.035
Mof_H 	H 	0.3903	0.2003	0.7389	0.011
Mof_H 	H 	0.5483	0.0892	0.6172	0.03
Mof_C 	C 	0.4263	0.095	0.5433	-0.1
Mof_C 	C 	0.774	0.87631	0.1931	0.019
Mof_C 	C 	0.6901	0.8656	0.0401	-0.018
Mof_C 	C 	0.0769	0.26917	0.4511	0.028
Mof_C 	C 	0.02	0.37957	0.4161	-0.007
Mof_C 	C 	0.3494	0.1224	0.5456	0.056
Mof_H 	H 	0.4339	0.0672	0.4915	0.056
Mof_H 	H 	0.8064	0.9043	0.2409	0.018
Mof_H 	H 	0.6627	0.8842	0.9811	0.027
Mof_C 	C 	0.6848	0.7962	0.0577	-0.101
Mof_H 	H 	0.0798	0.2223	0.4345	0.006
Mof_H 	H 	0.9847	0.411	0.3761	0.027
Mof_C 	C 	0.0676	0.40171	0.5003	-0.1
Mof_H 	H 	0.3039	0.1133	0.4941	-0.006
Mof_C 	C 	0.724	0.7702	0.1431	0.053
Mof_H 	H 	0.6541	0.7668	0.0106	0.049
Mof_C 	C 	0.1197	0.35602	0.5566	0.06
Mof_H 	H 	0.0646	0.448	0.5195	0.058
Mof_H 	H 	0.7194	0.7225	0.1542	-0.008
Mof_H 	H 	0.1531	0.3718	0.6144	-0.012
Mof_Ag	Ag	0.20507	0.21384	0.62341	0.596
Mof_N 	N 	0.10621	0.11792	0.5817	-0.167
Mof_N 	N 	0.33412	0.1616	0.6165	-0.181
Mof_N 	N 	0.2314	0.19107	0.7883	-0.175
Mof_N 	N 	0.12526	0.29024	0.5331	-0.191
Mof_C 	C 	0.1364	0.05626	0.5656	0.021
Mof_C 	C 	0.042	0.12	0.6285	0.043
Mof_H 	H 	0.1803	0.0542	0.5302	0.013
Mof_C 	C 	0.108	0.9946	0.5972	-0.027
Mof_C 	C 	0.0078	0.0623	0.6602	-0.084
Mof_H 	H 	0.0193	0.1633	0.6402	0.01
Mof_C 	C 	0.0421	0.9998	0.6456	-0.017
Mof_C 	C 	0.1449	0.92883	0.5768	0.023
Mof_H 	H 	0.9613	0.0655	0.6917	0.055
Mof_H 	H 	0.0203	0.9596	0.6691	0.033
Mof_C 	C 	0.0957	0.87018	0.5645	-0.051
Mof_C 	C 	0.2292	0.92293	0.5677	-0.056
Mof_H 	H 	0.0386	0.8723	0.5727	0.049
Mof_C 	C 	0.128	0.80894	0.5406	-0.061
Mof_C 	C 	0.2618	0.86091	0.547	-0.063
Mof_H 	H 	0.2646	0.9623	0.5759	0.044
Mof_H 	H 	0.0923	0.7698	0.5307	0.055
Mof_C 	C 	0.2116	0.80313	0.5307	0.032
Mof_H 	H 	0.3201	0.8578	0.5438	0.05
Mof_C 	C 	0.2447	0.73491	0.5102	-0.031
Mof_C 	C 	0.318	0.71086	0.5848	0.032
Mof_C 	C 	0.207	0.69715	0.435	-0.031
Mof_C 	C 	0.3898	0.6816	0.5632	-0.061
Mof_C 	C 	0.313	0.71952	0.6782	-0.065
Mof_C 	C 	0.225	0.62261	0.4251	0.034
Mof_C 	C 	0.1443	0.72774	0.356	0.032
Mof_C 	C 	0.4558	0.6614	0.6354	-0.058
Mof_H 	H 	0.3941	0.6752	0.4989	0.052
Mof_H 	H 	0.2644	0.7407	0.6936	0.056
Mof_C 	C 	0.3778	0.6979	0.7503	-0.057
Mof_C 	C 	0.2352	0.59575	0.3385	-0.065
Mof_C 	C 	0.2289	0.57811	0.5003	-0.065
Mof_C 	C 	0.1619	0.78916	0.3144	-0.063
Mof_C 	C 	0.0675	0.69601	0.3182	-0.066
Mof_C 	C 	0.4495	0.6686	0.7294	0.026
Mof_H 	H 	0.5059	0.6426	0.6201	0.051
Mof_H 	H 	0.3726	0.7033	0.8144	0.047
Mof_C 	C 	0.2499	0.52726	0.3279	-0.049
Mof_H 	H 	0.2318	0.6255	0.2857	0.056
Mof_H 	H 	0.2216	0.5951	0.5599	0.053
Mof_C 	C 	0.2432	0.50911	0.4895	-0.05
Mof_C 	C 	0.1081	0.81581	0.2361	-0.055
Mof_H 	H 	0.2122	0.8133	0.3406	0.052
Mof_H 	H 	0.0531	0.6544	0.3453	0.052
Mof_C 	C 	0.0119	0.72373	0.242	-0.055
Mof_C 	C 	0.5195	0.6485	0.8086	-0.033
Mof_C 	C 	0.2533	0.48207	0.4032	0.021
Mof_H 	H 	0.258	0.5105	0.2684	0.047
Mof_H 	H 	0.2464	0.4794	0.5424	0.042
Mof_C 	C 	0.0322	0.78345	0.1978	0.02
Mof_H 	H 	0.1232	0.8568	0.2081	0.044
Mof_H 	H 	0.9591	0.7019	0.2194	0.037
Mof_C 	C 	0.6	0.67308	0.8126	0.025
Mof_C 	C 	0.5061	0.6079	0.8825	-0.014
Mof_C 	C 	0.2643	0.40761	0.3906	-0.025
Mof_C 	C 	0.9769	0.81157	0.111	-0.035
Mof_H 	H 	0.6097	0.7003	0.7611	0.011
Mof_H 	H 	0.4517	0.5892	0.8828	0.03
Mof_C 	C 	0.5737	0.595	0.9567	-0.1
Mof_C 	C 	0.226	0.37631	0.3069	0.019
Mof_C 	C 	0.3099	0.3656	0.4599	-0.019
Mof_C 	C 	0.9231	0.76917	0.0489	0.028
Mof_C 	C 	0.98	0.87957	0.0839	-0.007
Mof_C 	C 	0.6506	0.6224	0.9544	0.056
Mof_H 	H 	0.5661	0.5672	0.0085	0.056
Mof_H 	H 	0.1936	0.4043	0.2591	0.018
Mof_H 	H 	0.3373	0.3842	0.5189	0.028
Mof_C 	C 	0.3152	0.2962	0.4423	-0.1
Mof_H 	H 	0.9202	0.7223	0.0655	0.006
Mof_H 	H 	0.0153	0.911	0.1239	0.027
Mof_C 	C 	0.9324	0.90171	0.9997	-0.1
Mof_H 	H 	0.6961	0.6133	0.0059	-0.006
Mof_C 	C 	0.276	0.2702	0.3569	0.053
Mof_H 	H 	0.3459	0.2668	0.4894	0.049
Mof_C 	C 	0.8803	0.85602	0.9434	0.06
Mof_H 	H 	0.9354	0.948	0.9805	0.058
Mof_H 	H 	0.2806	0.2225	0.3458	-0.008
Mof_H 	H 	0.8469	0.8718	0.8856	-0.012
_end
