data_functionalizedCrystal
_audit_creation_method	'EQeq! by Chris Wilmer'
_symmetry_space_group_name_H-M	'P1'
_symmetry_Int_Tables_number	1
_symmetry_cell_setting	triclinic
loop_
_symmetry_equiv_pos_as_xyz
  x,y,z
_cell_length_a	14.1018
_cell_length_b	14.1018
_cell_length_c	14.1018
_cell_angle_alpha	107.535
_cell_angle_beta	107.535
_cell_angle_gamma	113.417
loop_
_atom_site_label
_atom_site_type_symbol
_atom_site_fract_x
_atom_site_fract_y
_atom_site_fract_z
_atom_site_charge
Mof_Mn	Mn	0.5	0.5	-0	0.948
Mof_Zn	Zn	0.90418	0.90418	-0	1.234
Mof_Zn	Zn	0.09582	0.09582	-0	1.244
Mof_H 	H 	0.203	0.5734	0.7764	0.103
Mof_H 	H 	0.5921	0.1525	-0	0.121
Mof_H 	H 	0.5734	0.203	0.7764	0.103
Mof_H 	H 	0.9439	0.3099	-0	-0.016
Mof_H 	H 	0.4079	0.8475	-0	0.118
Mof_H 	H 	0.0561	0.6901	-0	-0.012
Mof_H 	H 	0.6901	0.6901	0.634	0.009
Mof_H 	H 	0.797	0.5734	0.3704	0.066
Mof_H 	H 	0.4266	0.203	0.6296	0.063
Mof_H 	H 	0.6901	0.0561	-0	-0.012
Mof_H 	H 	0.1525	0.5921	-0	0.121
Mof_H 	H 	0.4266	0.797	0.2236	0.076
Mof_H 	H 	0.0561	0.0561	0.366	0.003
Mof_H 	H 	0.8475	0.8475	0.4396	0.109
Mof_H 	H 	0.203	0.4266	0.6296	0.063
Mof_H 	H 	0.5734	0.797	0.3704	0.066
Mof_H 	H 	0.4079	0.4079	0.5604	0.117
Mof_H 	H 	0.797	0.4266	0.2236	0.076
Mof_H 	H 	0.1525	0.1525	0.5604	0.119
Mof_H 	H 	0.5921	0.5921	0.4396	0.112
Mof_H 	H 	0.3099	0.3099	0.366	0.001
Mof_H 	H 	0.3099	0.9439	-0	-0.016
Mof_H 	H 	0.9439	0.9439	0.634	0.005
Mof_H 	H 	0.8475	0.4079	-0	0.118
Mof_C 	C 	0.12784	0.72316	-0	0.164
Mof_C 	C 	0.66386	0.18574	-0	-0.267
Mof_C 	C 	0.7128	0.7128	-0	0.863
Mof_C 	C 	0.1086	0.8914	-0	0.421
Mof_C 	C 	0.752	0.4597	0.2117	-0.111
Mof_C 	C 	0.1086	0.1086	0.2172	0.416
Mof_C 	C 	0.8914	0.8914	0.7828	0.41
Mof_C 	C 	0.87216	0.27684	-0	0.163
Mof_C 	C 	0.1723	0.1723	0.3446	-0.191
Mof_C 	C 	0.709	0.291	-0	0.215
Mof_C 	C 	0.72316	0.72316	0.59532	0.132
Mof_C 	C 	0.18574	0.66386	-0	-0.267
Mof_C 	C 	0.3545	0.6455	-0	-0.251
Mof_C 	C 	0.27684	0.27684	0.40468	0.141
Mof_C 	C 	0.18574	0.18574	0.52188	-0.226
Mof_C 	C 	0.291	0.709	-0	0.215
Mof_C 	C 	0.87216	0.87216	0.59532	0.131
Mof_C 	C 	0.27684	0.87216	-0	0.163
Mof_C 	C 	0.12784	0.12784	0.40468	0.141
Mof_C 	C 	0.8277	0.1723	-0	-0.22
Mof_C 	C 	0.5656	0.6709	0.2365	0.13
Mof_C 	C 	0.66386	0.66386	0.47812	-0.219
Mof_C 	C 	0.752	0.5403	0.2923	-0.082
Mof_C 	C 	0.33614	0.81426	-0	-0.268
Mof_C 	C 	0.81426	0.81426	0.47812	-0.22
Mof_C 	C 	0.709	0.709	0.418	0.174
Mof_C 	C 	0.3545	0.3545	0.709	-0.148
Mof_C 	C 	0.3291	0.4344	0.7635	0.131
Mof_C 	C 	0.33614	0.33614	0.52188	-0.226
Mof_C 	C 	0.4344	0.3291	0.7635	0.131
Mof_C 	C 	0.72316	0.12784	-0	0.164
Mof_C 	C 	0.1723	0.8277	-0	-0.22
Mof_C 	C 	0.5403	0.248	0.7883	-0.134
Mof_C 	C 	0.4597	0.752	0.2117	-0.111
Mof_C 	C 	0.6709	0.5656	0.2365	0.13
Mof_C 	C 	0.5403	0.752	0.2923	-0.082
Mof_C 	C 	0.6455	0.6455	0.291	-0.158
Mof_C 	C 	0.248	0.5403	0.7883	-0.134
Mof_C 	C 	0.248	0.4597	0.7077	-0.06
Mof_C 	C 	0.8277	0.8277	0.6554	-0.179
Mof_C 	C 	0.81426	0.33614	-0	-0.268
Mof_C 	C 	0.6455	0.3545	-0	-0.251
Mof_C 	C 	0.4597	0.248	0.7077	-0.06
Mof_C 	C 	0.6709	0.4344	0.1053	0.162
Mof_C 	C 	0.5656	0.3291	0.8947	0.233
Mof_C 	C 	0.8914	0.1086	-0	0.421
Mof_C 	C 	0.3291	0.5656	0.8947	0.233
Mof_C 	C 	0.291	0.291	0.582	0.179
Mof_C 	C 	0.2872	0.2872	-0	0.864
Mof_C 	C 	0.4344	0.6709	0.1053	0.162
Mof_N 	N 	0.3781	0.5	0.8781	-0.216
Mof_N 	N 	0.6219	0.5	0.1219	-0.233
Mof_N 	N 	0.5	0.6219	0.1219	-0.233
Mof_N 	N 	0.5	0.3781	0.8781	-0.216
Mof_O 	O 	0.01224	0.01224	0.16888	-0.446
Mof_O 	O 	0.84336	0.84336	0.83112	-0.419
Mof_O 	O 	0.15664	0.98776	-0	-0.466
Mof_O 	O 	0.98776	0.98776	0.83112	-0.425
Mof_O 	O 	0.3587	0.3587	-0	-0.632
Mof_O 	O 	0.84336	0.01224	-0	-0.46
Mof_O 	O 	0.221	0.221	-0	-0.754
Mof_O 	O 	0.15664	0.15664	0.16888	-0.45
Mof_O 	O 	0.98776	0.15664	-0	-0.466
Mof_O 	O 	0.779	0.779	-0	-0.764
Mof_O 	O 	0.6413	0.6413	-0	-0.635
Mof_O 	O 	0.01224	0.84336	-0	-0.46
_end
