data_functionalizedCrystal
_audit_creation_method	'EQeq! by Chris Wilmer'
_symmetry_space_group_name_H-M	'P1'
_symmetry_Int_Tables_number	1
_symmetry_cell_setting	triclinic
loop_
_symmetry_equiv_pos_as_xyz
  x,y,z
_cell_length_a	11.395
_cell_length_b	18.663
_cell_length_c	24.329
_cell_angle_alpha	90
_cell_angle_beta	90
_cell_angle_gamma	90
loop_
_atom_site_label
_atom_site_type_symbol
_atom_site_fract_x
_atom_site_fract_y
_atom_site_fract_z
_atom_site_charge
Mof_Co	Co	0.46544	0.69993	0.48074	1.154
Mof_Co	Co	0.46544	0.30007	0.51926	1.153
Mof_Co	Co	0.53456	0.80007	0.98074	1.157
Mof_Co	Co	0.53456	0.19993	0.01926	1.15
Mof_Co	Co	0.46064	0.5	0.5	1.168
Mof_Co	Co	0.53936	0	-0	1.157
Mof_H 	H 	0.4237	0.5249	0.3555	0.033
Mof_H 	H 	0.6335	0.5947	0.3192	0.191
Mof_H 	H 	0.6348	0.5336	0.3644	0.183
Mof_H 	H 	0.5951	0.5158	0.3035	0.181
Mof_H 	H 	0.0932	0.609	0.243	0.034
Mof_H 	H 	0.1298	0.7809	0.1451	0.046
Mof_H 	H 	0.3921	0.7248	0.248	0.044
Mof_H 	H 	0.7642	0.5355	0.2249	0.176
Mof_H 	H 	0.6792	0.5397	0.1734	0.179
Mof_H 	H 	0.8155	0.5277	0.1647	0.183
Mof_H 	H 	0.7641	0.6473	0.1457	0.021
Mof_H 	H 	0.6924	0.8067	0.1566	0.195
Mof_H 	H 	0.718	0.8901	0.1559	0.191
Mof_H 	H 	0.6703	0.8532	0.2101	0.197
Mof_H 	H 	0.5148	0.9131	0.1678	0.03
Mof_H 	H 	0.8748	0.7588	0.5504	0.093
Mof_H 	H 	0.6735	0.7542	0.5485	0.003
Mof_H 	H 	0.6789	0.6538	0.4082	-0.001
Mof_H 	H 	0.8804	0.6584	0.4041	0.08
Mof_H 	H 	0.056	0.732	0.3991	0.08
Mof_H 	H 	0.2601	0.7307	0.4024	0.008
Mof_H 	H 	0.2513	0.6726	0.5556	-0.008
Mof_H 	H 	0.0525	0.681	0.5591	0.087
Mof_H 	H 	0.5022	0.8322	0.413	-0.009
Mof_H 	H 	0.4936	0.9547	0.4175	0.089
Mof_H 	H 	0.4072	0.9372	0.5753	0.085
Mof_H 	H 	0.4187	0.814	0.5668	0.001
Mof_H 	H 	0.2533	0.517	0.4203	0.015
Mof_H 	H 	0.0524	0.5164	0.4187	0.079
Mof_H 	H 	0.8715	0.4407	0.4302	0.077
Mof_H 	H 	0.6705	0.4419	0.4331	0.017
Mof_H 	H 	0.4533	0.6226	0.2742	0.148
Mof_H 	H 	0.9177	0.6402	0.2339	0.134
Mof_H 	H 	0.4939	0.7718	0.1854	0.153
Mof_H 	H 	0.4237	0.4751	0.6445	0.032
Mof_H 	H 	0.6335	0.4053	0.6808	0.189
Mof_H 	H 	0.6348	0.4664	0.6356	0.182
Mof_H 	H 	0.5951	0.4842	0.6965	0.181
Mof_H 	H 	0.0932	0.391	0.757	0.034
Mof_H 	H 	0.1298	0.2191	0.8549	0.045
Mof_H 	H 	0.3921	0.2752	0.752	0.043
Mof_H 	H 	0.7642	0.4645	0.7751	0.177
Mof_H 	H 	0.6792	0.4603	0.8266	0.181
Mof_H 	H 	0.8155	0.4723	0.8353	0.185
Mof_H 	H 	0.7641	0.3527	0.8543	0.021
Mof_H 	H 	0.6924	0.1933	0.8434	0.191
Mof_H 	H 	0.718	0.1099	0.8441	0.179
Mof_H 	H 	0.6703	0.1468	0.7899	0.188
Mof_H 	H 	0.5148	0.0869	0.8322	0.021
Mof_H 	H 	0.8748	0.2412	0.4496	0.092
Mof_H 	H 	0.6735	0.2458	0.4515	0.002
Mof_H 	H 	0.6789	0.3462	0.5918	-0.001
Mof_H 	H 	0.8804	0.3416	0.5959	0.079
Mof_H 	H 	0.056	0.268	0.6009	0.078
Mof_H 	H 	0.2601	0.2693	0.5976	0.007
Mof_H 	H 	0.2513	0.3274	0.4444	-0.008
Mof_H 	H 	0.0525	0.319	0.4409	0.087
Mof_H 	H 	0.5022	0.1678	0.587	-0.003
Mof_H 	H 	0.4936	0.0453	0.5825	0.059
Mof_H 	H 	0.4072	0.0628	0.4247	0.061
Mof_H 	H 	0.4187	0.186	0.4332	0.009
Mof_H 	H 	0.2533	0.483	0.5797	0.015
Mof_H 	H 	0.0524	0.4836	0.5813	0.079
Mof_H 	H 	0.8715	0.5593	0.5698	0.077
Mof_H 	H 	0.6705	0.5581	0.5669	0.017
Mof_H 	H 	0.4533	0.3774	0.7258	0.148
Mof_H 	H 	0.9177	0.3598	0.7661	0.134
Mof_H 	H 	0.4939	0.2282	0.8146	0.152
Mof_H 	H 	0.5763	0.9751	0.8555	0.036
Mof_H 	H 	0.3665	0.9053	0.8192	0.194
Mof_H 	H 	0.3652	0.9664	0.8644	0.191
Mof_H 	H 	0.4049	0.9842	0.8035	0.189
Mof_H 	H 	0.9068	0.891	0.743	0.036
Mof_H 	H 	0.8702	0.7191	0.6451	0.045
Mof_H 	H 	0.6079	0.7752	0.748	0.044
Mof_H 	H 	0.2358	0.9645	0.7249	0.184
Mof_H 	H 	0.3208	0.9603	0.6734	0.187
Mof_H 	H 	0.1845	0.9723	0.6647	0.191
Mof_H 	H 	0.2359	0.8527	0.6457	0.02
Mof_H 	H 	0.3076	0.6933	0.6566	0.193
Mof_H 	H 	0.282	0.6099	0.6559	0.184
Mof_H 	H 	0.3297	0.6468	0.7101	0.192
Mof_H 	H 	0.4852	0.5869	0.6678	0.025
Mof_H 	H 	0.1252	0.7412	0.0504	0.095
Mof_H 	H 	0.3265	0.7458	0.0485	0.003
Mof_H 	H 	0.3211	0.8462	0.9082	-0.001
Mof_H 	H 	0.1196	0.8416	0.9041	0.082
Mof_H 	H 	0.944	0.768	0.8991	0.08
Mof_H 	H 	0.7399	0.7693	0.9024	0.007
Mof_H 	H 	0.7487	0.8274	0.0556	-0.005
Mof_H 	H 	0.9475	0.819	0.0591	0.091
Mof_H 	H 	0.4978	0.6678	0.913	-0.011
Mof_H 	H 	0.5064	0.5453	0.9175	0.085
Mof_H 	H 	0.5928	0.5628	0.0753	0.085
Mof_H 	H 	0.5813	0.686	0.0668	0.002
Mof_H 	H 	0.7467	0.983	0.9203	0.014
Mof_H 	H 	0.9476	0.9836	0.9187	0.075
Mof_H 	H 	0.1285	0.0593	0.9302	0.069
Mof_H 	H 	0.3295	0.0581	0.9331	0.016
Mof_H 	H 	0.5467	0.8774	0.7742	0.149
Mof_H 	H 	0.0823	0.8598	0.7339	0.135
Mof_H 	H 	0.5061	0.7282	0.6854	0.153
Mof_H 	H 	0.5763	0.0249	0.1445	0.028
Mof_H 	H 	0.3665	0.0947	0.1808	0.186
Mof_H 	H 	0.3652	0.0336	0.1356	0.173
Mof_H 	H 	0.4049	0.0158	0.1965	0.173
Mof_H 	H 	0.9068	0.109	0.257	0.032
Mof_H 	H 	0.8702	0.2809	0.3549	0.045
Mof_H 	H 	0.6079	0.2248	0.252	0.043
Mof_H 	H 	0.2358	0.0355	0.2751	0.17
Mof_H 	H 	0.3208	0.0397	0.3266	0.173
Mof_H 	H 	0.1845	0.0277	0.3353	0.176
Mof_H 	H 	0.2359	0.1473	0.3543	0.022
Mof_H 	H 	0.3076	0.3067	0.3434	0.193
Mof_H 	H 	0.282	0.3901	0.3441	0.184
Mof_H 	H 	0.3297	0.3532	0.2899	0.192
Mof_H 	H 	0.4852	0.4131	0.3322	0.025
Mof_H 	H 	0.1252	0.2588	0.9496	0.09
Mof_H 	H 	0.3265	0.2542	0.9515	0.002
Mof_H 	H 	0.3211	0.1538	0.0918	0
Mof_H 	H 	0.1196	0.1584	0.0959	0.077
Mof_H 	H 	0.944	0.232	0.1009	0.077
Mof_H 	H 	0.7399	0.2307	0.0976	0.008
Mof_H 	H 	0.7487	0.1726	0.9444	-0.01
Mof_H 	H 	0.9475	0.181	0.9409	0.083
Mof_H 	H 	0.4978	0.3322	0.087	-0.001
Mof_H 	H 	0.5064	0.4547	0.0825	0.063
Mof_H 	H 	0.5928	0.4372	0.9247	0.061
Mof_H 	H 	0.5813	0.314	0.9332	0.008
Mof_H 	H 	0.7467	0.017	0.0797	0.014
Mof_H 	H 	0.9476	0.0164	0.0813	0.074
Mof_H 	H 	0.1285	0.9407	0.0698	0.074
Mof_H 	H 	0.3295	0.9419	0.0669	0.017
Mof_H 	H 	0.5467	0.1226	0.2258	0.147
Mof_H 	H 	0.0823	0.1402	0.2661	0.133
Mof_H 	H 	0.5061	0.2718	0.3146	0.152
Mof_C 	C 	0.4636	0.6175	0.3977	0.291
Mof_C 	C 	0.4663	0.5699	0.3474	0.066
Mof_C 	C 	0.5943	0.5518	0.3322	-0.502
Mof_C 	C 	0.2926	0.6128	0.2978	0.22
Mof_C 	C 	0.2485	0.66	0.2524	-0.059
Mof_C 	C 	0.1379	0.6484	0.2309	0
Mof_C 	C 	0.0932	0.6938	0.1921	-0.068
Mof_C 	C 	0.1604	0.7503	0.1722	0.001
Mof_C 	C 	0.2745	0.7617	0.1928	-0.063
Mof_C 	C 	0.3169	0.717	0.2333	-0.005
Mof_C 	C 	0.9724	0.6825	0.167	0.239
Mof_C 	C 	0.7568	0.5514	0.1871	-0.512
Mof_C 	C 	0.7751	0.6321	0.1844	0.1
Mof_C 	C 	0.6844	0.672	0.2196	0.219
Mof_C 	C 	0.3461	0.8206	0.1691	0.229
Mof_C 	C 	0.6669	0.853	0.1703	-0.518
Mof_C 	C 	0.5409	0.8671	0.1516	0.072
Mof_C 	C 	0.5363	0.8739	0.0901	0.333
Mof_C 	C 	0.8364	0.7367	0.5208	-0.139
Mof_C 	C 	0.7154	0.7337	0.5192	0.086
Mof_C 	C 	0.7193	0.6758	0.4373	0.08
Mof_C 	C 	0.8402	0.6771	0.4346	-0.134
Mof_C 	C 	0.9003	0.7071	0.4785	0.064
Mof_C 	C 	0.0299	0.707	0.4784	0.06
Mof_C 	C 	0.0942	0.7209	0.4323	-0.125
Mof_C 	C 	0.2176	0.7187	0.4342	0.078
Mof_C 	C 	0.2115	0.6862	0.5234	0.089
Mof_C 	C 	0.0921	0.6899	0.5259	-0.131
Mof_C 	C 	0.4822	0.8536	0.4467	0.093
Mof_C 	C 	0.4782	0.9273	0.4491	-0.157
Mof_C 	C 	0.4515	0.9604	0.4976	0.099
Mof_C 	C 	0.4278	0.9169	0.5413	-0.152
Mof_C 	C 	0.4338	0.8427	0.5358	0.094
Mof_C 	C 	0.2118	0.5098	0.4532	0.07
Mof_C 	C 	0.0917	0.5098	0.4523	-0.124
Mof_C 	C 	0.8326	0.4648	0.4588	-0.114
Mof_C 	C 	0.7122	0.4661	0.4607	0.056
Mof_C 	C 	0.4636	0.3825	0.6023	0.291
Mof_C 	C 	0.4663	0.4301	0.6526	0.065
Mof_C 	C 	0.5943	0.4482	0.6678	-0.501
Mof_C 	C 	0.2926	0.3872	0.7022	0.22
Mof_C 	C 	0.2485	0.34	0.7476	-0.06
Mof_C 	C 	0.1379	0.3516	0.7691	0.001
Mof_C 	C 	0.0932	0.3062	0.8079	-0.069
Mof_C 	C 	0.1604	0.2497	0.8278	0.001
Mof_C 	C 	0.2745	0.2383	0.8072	-0.066
Mof_C 	C 	0.3169	0.283	0.7667	-0.005
Mof_C 	C 	0.9724	0.3175	0.833	0.238
Mof_C 	C 	0.7568	0.4486	0.8129	-0.515
Mof_C 	C 	0.7751	0.3679	0.8156	0.101
Mof_C 	C 	0.6844	0.328	0.7804	0.219
Mof_C 	C 	0.3461	0.1794	0.8309	0.229
Mof_C 	C 	0.6669	0.147	0.8297	-0.506
Mof_C 	C 	0.5409	0.1329	0.8484	0.068
Mof_C 	C 	0.5363	0.1261	0.9099	0.333
Mof_C 	C 	0.8364	0.2633	0.4792	-0.14
Mof_C 	C 	0.7154	0.2663	0.4808	0.084
Mof_C 	C 	0.7193	0.3242	0.5627	0.079
Mof_C 	C 	0.8402	0.3229	0.5654	-0.134
Mof_C 	C 	0.9003	0.2929	0.5215	0.063
Mof_C 	C 	0.0299	0.293	0.5216	0.059
Mof_C 	C 	0.0942	0.2791	0.5677	-0.126
Mof_C 	C 	0.2176	0.2813	0.5658	0.077
Mof_C 	C 	0.2115	0.3138	0.4766	0.089
Mof_C 	C 	0.0921	0.3101	0.4741	-0.131
Mof_C 	C 	0.4822	0.1464	0.5533	0.065
Mof_C 	C 	0.4782	0.0727	0.5509	-0.112
Mof_C 	C 	0.4515	0.0396	0.5024	0.017
Mof_C 	C 	0.4278	0.0831	0.4587	-0.107
Mof_C 	C 	0.4338	0.1573	0.4642	0.067
Mof_C 	C 	0.2118	0.4902	0.5468	0.07
Mof_C 	C 	0.0917	0.4902	0.5477	-0.124
Mof_C 	C 	0.8326	0.5352	0.5412	-0.114
Mof_C 	C 	0.7122	0.5339	0.5393	0.056
Mof_C 	C 	0.5364	0.8825	0.8977	0.288
Mof_C 	C 	0.5337	0.9301	0.8474	0.07
Mof_C 	C 	0.4057	0.9482	0.8322	-0.513
Mof_C 	C 	0.7074	0.8872	0.7978	0.221
Mof_C 	C 	0.7515	0.84	0.7524	-0.059
Mof_C 	C 	0.8621	0.8516	0.7309	0
Mof_C 	C 	0.9068	0.8062	0.6921	-0.068
Mof_C 	C 	0.8396	0.7497	0.6722	0.001
Mof_C 	C 	0.7255	0.7383	0.6928	-0.064
Mof_C 	C 	0.6831	0.783	0.7333	-0.005
Mof_C 	C 	0.0276	0.8175	0.667	0.239
Mof_C 	C 	0.2432	0.9486	0.6871	-0.527
Mof_C 	C 	0.2249	0.8679	0.6844	0.106
Mof_C 	C 	0.3156	0.828	0.7196	0.217
Mof_C 	C 	0.6539	0.6794	0.6691	0.229
Mof_C 	C 	0.3331	0.647	0.6703	-0.511
Mof_C 	C 	0.4591	0.6329	0.6516	0.07
Mof_C 	C 	0.4637	0.6261	0.5901	0.334
Mof_C 	C 	0.1636	0.7633	0.0208	-0.152
Mof_C 	C 	0.2846	0.7663	0.0192	0.079
Mof_C 	C 	0.2807	0.8242	0.9373	0.085
Mof_C 	C 	0.1598	0.8229	0.9346	-0.137
Mof_C 	C 	0.0997	0.7929	0.9785	0.076
Mof_C 	C 	0.9701	0.793	0.9784	0.07
Mof_C 	C 	0.9058	0.7791	0.9323	-0.128
Mof_C 	C 	0.7824	0.7813	0.9342	0.081
Mof_C 	C 	0.7885	0.8138	0.0234	0.083
Mof_C 	C 	0.9079	0.8101	0.0259	-0.141
Mof_C 	C 	0.5178	0.6464	0.9467	0.096
Mof_C 	C 	0.5218	0.5727	0.9491	-0.162
Mof_C 	C 	0.5485	0.5396	0.9976	0.108
Mof_C 	C 	0.5722	0.5831	0.0413	-0.167
Mof_C 	C 	0.5662	0.6573	0.0358	0.086
Mof_C 	C 	0.7882	0.9902	0.9532	0.089
Mof_C 	C 	0.9083	0.9902	0.9523	-0.09
Mof_C 	C 	0.1674	0.0352	0.9588	-0.095
Mof_C 	C 	0.2878	0.0339	0.9607	0.058
Mof_C 	C 	0.5364	0.1175	0.1023	0.292
Mof_C 	C 	0.5337	0.0699	0.1526	0.062
Mof_C 	C 	0.4057	0.0518	0.1678	-0.491
Mof_C 	C 	0.7074	0.1128	0.2022	0.219
Mof_C 	C 	0.7515	0.16	0.2476	-0.061
Mof_C 	C 	0.8621	0.1484	0.2691	0.001
Mof_C 	C 	0.9068	0.1938	0.3079	-0.069
Mof_C 	C 	0.8396	0.2503	0.3278	0.001
Mof_C 	C 	0.7255	0.2617	0.3072	-0.065
Mof_C 	C 	0.6831	0.217	0.2667	-0.005
Mof_C 	C 	0.0276	0.1825	0.333	0.238
Mof_C 	C 	0.2432	0.0514	0.3129	-0.5
Mof_C 	C 	0.2249	0.1321	0.3156	0.095
Mof_C 	C 	0.3156	0.172	0.2804	0.22
Mof_C 	C 	0.6539	0.3206	0.3309	0.229
Mof_C 	C 	0.3331	0.353	0.3297	-0.51
Mof_C 	C 	0.4591	0.3671	0.3484	0.069
Mof_C 	C 	0.4637	0.3739	0.4099	0.334
Mof_C 	C 	0.1636	0.2367	0.9792	-0.125
Mof_C 	C 	0.2846	0.2337	0.9808	0.093
Mof_C 	C 	0.2807	0.1758	0.0627	0.074
Mof_C 	C 	0.1598	0.1771	0.0654	-0.13
Mof_C 	C 	0.0997	0.2071	0.0215	0.051
Mof_C 	C 	0.9701	0.207	0.0216	0.049
Mof_C 	C 	0.9058	0.2209	0.0677	-0.122
Mof_C 	C 	0.7824	0.2187	0.0658	0.074
Mof_C 	C 	0.7885	0.1862	0.9766	0.098
Mof_C 	C 	0.9079	0.1899	0.9741	-0.118
Mof_C 	C 	0.5178	0.3536	0.0533	0.062
Mof_C 	C 	0.5218	0.4273	0.0509	-0.107
Mof_C 	C 	0.5485	0.4604	0.0024	0.007
Mof_C 	C 	0.5722	0.4169	0.9587	-0.092
Mof_C 	C 	0.5662	0.3427	0.9642	0.077
Mof_C 	C 	0.7882	0.0098	0.0468	0.059
Mof_C 	C 	0.9083	0.0098	0.0477	-0.117
Mof_C 	C 	0.1674	0.9648	0.0412	-0.088
Mof_C 	C 	0.2878	0.9661	0.0393	0.066
Mof_C 	C 	0.0271	0.5	0.5	0.056
Mof_C 	C 	0.897	0.5	0.5	0.042
Mof_C 	C 	0.9729	0	-0	0.028
Mof_C 	C 	0.103	0	-0	0.011
Mof_N 	N 	0.41	0.6056	0.3007	-0.225
Mof_N 	N 	0.8953	0.6506	0.2006	-0.234
Mof_N 	N 	0.4647	0.811	0.1718	-0.229
Mof_N 	N 	0.6544	0.7036	0.4785	-0.232
Mof_N 	N 	0.2764	0.7003	0.4792	-0.234
Mof_N 	N 	0.4597	0.8111	0.489	-0.25
Mof_N 	N 	0.41	0.3944	0.6993	-0.225
Mof_N 	N 	0.8953	0.3494	0.7994	-0.234
Mof_N 	N 	0.4647	0.189	0.8282	-0.229
Mof_N 	N 	0.6544	0.2964	0.5215	-0.232
Mof_N 	N 	0.2764	0.2997	0.5208	-0.234
Mof_N 	N 	0.4597	0.1889	0.511	-0.241
Mof_N 	N 	0.59	0.8944	0.8007	-0.225
Mof_N 	N 	0.1047	0.8494	0.7006	-0.235
Mof_N 	N 	0.5353	0.689	0.6718	-0.229
Mof_N 	N 	0.3456	0.7964	0.9785	-0.227
Mof_N 	N 	0.7236	0.7997	0.9792	-0.228
Mof_N 	N 	0.5403	0.6889	0.989	-0.245
Mof_N 	N 	0.59	0.1056	0.1993	-0.225
Mof_N 	N 	0.1047	0.1506	0.2994	-0.234
Mof_N 	N 	0.5353	0.311	0.3282	-0.229
Mof_N 	N 	0.3456	0.2036	0.0215	-0.238
Mof_N 	N 	0.7236	0.2003	0.0208	-0.24
Mof_N 	N 	0.5403	0.3111	0.011	-0.247
Mof_N 	N 	0.2717	0.5	0.5	-0.224
Mof_N 	N 	0.6508	0.5	0.5	-0.223
Mof_N 	N 	0.7283	0	-0	-0.24
Mof_N 	N 	0.3492	0	-0	-0.24
Mof_O 	O 	0.4651	0.59075	0.44555	-0.5
Mof_O 	O 	0.4628	0.68525	0.3927	-0.369
Mof_O 	O 	0.226	0.5854	0.3325	-0.235
Mof_O 	O 	0.7191	0.7069	0.2605	-0.232
Mof_O 	O 	0.5781	0.6647	0.2048	-0.246
Mof_O 	O 	0.9486	0.7017	0.1215	-0.251
Mof_O 	O 	0.5268	0.81713	0.06262	-0.434
Mof_O 	O 	0.5464	0.93568	0.06976	-0.422
Mof_O 	O 	0.3033	0.8737	0.148	-0.245
Mof_O 	O 	0.4651	0.40925	0.55445	-0.5
Mof_O 	O 	0.4628	0.31475	0.6073	-0.371
Mof_O 	O 	0.226	0.4146	0.6675	-0.236
Mof_O 	O 	0.7191	0.2931	0.7395	-0.235
Mof_O 	O 	0.5781	0.3353	0.7952	-0.246
Mof_O 	O 	0.9486	0.2983	0.8785	-0.249
Mof_O 	O 	0.5268	0.18287	0.93738	-0.426
Mof_O 	O 	0.5464	0.06432	0.93024	-0.432
Mof_O 	O 	0.3033	0.1263	0.852	-0.253
Mof_O 	O 	0.5349	0.90925	0.94555	-0.489
Mof_O 	O 	0.5372	0.81475	0.8927	-0.369
Mof_O 	O 	0.774	0.9146	0.8325	-0.233
Mof_O 	O 	0.2809	0.7931	0.7605	-0.233
Mof_O 	O 	0.4219	0.8353	0.7048	-0.245
Mof_O 	O 	0.0514	0.7983	0.6215	-0.249
Mof_O 	O 	0.4732	0.68287	0.56262	-0.431
Mof_O 	O 	0.4536	0.56432	0.56976	-0.432
Mof_O 	O 	0.6967	0.6263	0.648	-0.249
Mof_O 	O 	0.5349	0.09075	0.05445	-0.504
Mof_O 	O 	0.5372	0.18525	0.1073	-0.371
Mof_O 	O 	0.774	0.0854	0.1675	-0.238
Mof_O 	O 	0.2809	0.2069	0.2395	-0.234
Mof_O 	O 	0.4219	0.1647	0.2952	-0.248
Mof_O 	O 	0.0514	0.2017	0.3785	-0.251
Mof_O 	O 	0.4732	0.31713	0.43738	-0.431
Mof_O 	O 	0.4536	0.43568	0.43024	-0.432
Mof_O 	O 	0.6967	0.3737	0.352	-0.249
_end
