data_functionalizedCrystal
_audit_creation_method	'EQeq! by Chris Wilmer'
_symmetry_space_group_name_H-M	'P1'
_symmetry_Int_Tables_number	1
_symmetry_cell_setting	triclinic
loop_
_symmetry_equiv_pos_as_xyz
  x,y,z
_cell_length_a	18.2791
_cell_length_b	18.4914
_cell_length_c	18.4914
_cell_angle_alpha	70.2974
_cell_angle_beta	70.7612
_cell_angle_gamma	109.239
loop_
_atom_site_label
_atom_site_type_symbol
_atom_site_fract_x
_atom_site_fract_y
_atom_site_fract_z
_atom_site_charge
Mof_Zn	Zn	0.44018	0.50591	0.07401	1.214
Mof_Zn	Zn	0.51419	0.07401	0.42008	1.214
Mof_Zn	Zn	0.93427	0.42008	0.50591	1.214
Mof_Zn	Zn	0.98581	0.42008	0.07401	1.214
Mof_Zn	Zn	0.56573	0.50591	0.42008	1.215
Mof_Zn	Zn	0.05982	0.07401	0.50591	1.214
Mof_Zn	Zn	0.55982	0.49409	0.92599	1.215
Mof_Zn	Zn	0.48581	0.92599	0.57992	1.215
Mof_Zn	Zn	0.06573	0.57992	0.49409	1.215
Mof_Zn	Zn	0.01419	0.57992	0.92599	1.215
Mof_Zn	Zn	0.43427	0.49409	0.57992	1.215
Mof_Zn	Zn	0.94018	0.92599	0.49409	1.214
Mof_H 	H 	0.504	0.372	0.2791	0.032
Mof_H 	H 	0.3602	0.2256	0.007	0.022
Mof_H 	H 	0.4193	0.7059	0.3043	0.059
Mof_H 	H 	0.1899	0.5992	0.2459	0.045
Mof_H 	H 	0.1612	0.518	0.1767	0.066
Mof_H 	H 	0.2659	0.4805	0.1134	0.008
Mof_H 	H 	0.5162	0.6583	0.245	0.029
Mof_H 	H 	0.29	0.6712	0.2963	0.047
Mof_H 	H 	0.486	0.5786	0.1755	0.071
Mof_H 	H 	0.7831	0.2791	0.3489	0.032
Mof_H 	H 	0.3672	0.007	0.7674	0.022
Mof_H 	H 	0.7236	0.3043	0.9898	0.06
Mof_H 	H 	0.4358	0.2459	0.1549	0.045
Mof_H 	H 	0.3379	0.1767	0.3053	0.066
Mof_H 	H 	0.3793	0.1134	0.4061	0.008
Mof_H 	H 	0.7612	0.245	0.0967	0.028
Mof_H 	H 	0.5863	0.2963	0.0325	0.046
Mof_H 	H 	0.6615	0.1755	0.2459	0.071
Mof_H 	H 	0.132	0.3489	0.372	0.031
Mof_H 	H 	0.1346	0.7674	0.2256	0.022
Mof_H 	H 	0.7134	0.9898	0.7059	0.055
Mof_H 	H 	0.5907	0.1549	0.5992	0.045
Mof_H 	H 	0.6432	0.3053	0.518	0.066
Mof_H 	H 	0.7854	0.4061	0.4805	0.008
Mof_H 	H 	0.8579	0.0967	0.6583	0.031
Mof_H 	H 	0.6188	0.0325	0.6712	0.049
Mof_H 	H 	0.9074	0.2459	0.5786	0.07
Mof_H 	H 	0.7169	0.3489	0.2791	0.032
Mof_H 	H 	0.1328	0.7674	0.007	0.023
Mof_H 	H 	0.7764	0.9898	0.3043	0.055
Mof_H 	H 	0.0642	0.1549	0.2459	0.046
Mof_H 	H 	0.1621	0.3053	0.1767	0.065
Mof_H 	H 	0.1207	0.4061	0.1134	0.009
Mof_H 	H 	0.7388	0.0967	0.245	0.031
Mof_H 	H 	0.9137	0.0325	0.2963	0.05
Mof_H 	H 	0.8385	0.2459	0.1755	0.07
Mof_H 	H 	0.368	0.372	0.3489	0.032
Mof_H 	H 	0.3654	0.2256	0.7674	0.022
Mof_H 	H 	0.7866	0.7059	0.9898	0.059
Mof_H 	H 	0.9093	0.5992	0.1549	0.044
Mof_H 	H 	0.8568	0.518	0.3053	0.066
Mof_H 	H 	0.7146	0.4805	0.4061	0.008
Mof_H 	H 	0.6421	0.6583	0.0967	0.029
Mof_H 	H 	0.8812	0.6712	0.0325	0.047
Mof_H 	H 	0.5926	0.5786	0.2459	0.071
Mof_H 	H 	0.996	0.2791	0.372	0.032
Mof_H 	H 	0.1398	0.007	0.2256	0.022
Mof_H 	H 	0.0807	0.3043	0.7059	0.057
Mof_H 	H 	0.3101	0.2459	0.5992	0.045
Mof_H 	H 	0.3388	0.1767	0.518	0.066
Mof_H 	H 	0.2341	0.1134	0.4805	0.008
Mof_H 	H 	0.9838	0.245	0.6583	0.033
Mof_H 	H 	0.21	0.2963	0.6712	0.048
Mof_H 	H 	0.014	0.1755	0.5786	0.069
Mof_H 	H 	0.496	0.628	0.7209	0.032
Mof_H 	H 	0.6398	0.7744	0.993	0.022
Mof_H 	H 	0.5807	0.2941	0.6957	0.059
Mof_H 	H 	0.8101	0.4008	0.7541	0.045
Mof_H 	H 	0.8388	0.482	0.8233	0.066
Mof_H 	H 	0.7341	0.5195	0.8866	0.008
Mof_H 	H 	0.4838	0.3417	0.755	0.029
Mof_H 	H 	0.71	0.3288	0.7037	0.047
Mof_H 	H 	0.514	0.4214	0.8245	0.071
Mof_H 	H 	0.2169	0.7209	0.6511	0.032
Mof_H 	H 	0.6328	0.993	0.2326	0.022
Mof_H 	H 	0.2764	0.6957	0.0102	0.06
Mof_H 	H 	0.5642	0.7541	0.8451	0.045
Mof_H 	H 	0.6621	0.8233	0.6947	0.066
Mof_H 	H 	0.6207	0.8866	0.5939	0.008
Mof_H 	H 	0.2388	0.755	0.9033	0.028
Mof_H 	H 	0.4137	0.7037	0.9675	0.046
Mof_H 	H 	0.3385	0.8245	0.7541	0.071
Mof_H 	H 	0.868	0.6511	0.628	0.031
Mof_H 	H 	0.8654	0.2326	0.7744	0.022
Mof_H 	H 	0.2866	0.0102	0.2941	0.055
Mof_H 	H 	0.4093	0.8451	0.4008	0.045
Mof_H 	H 	0.3568	0.6947	0.482	0.066
Mof_H 	H 	0.2146	0.5939	0.5195	0.008
Mof_H 	H 	0.1421	0.9033	0.3417	0.031
Mof_H 	H 	0.3812	0.9675	0.3288	0.049
Mof_H 	H 	0.0926	0.7541	0.4214	0.07
Mof_H 	H 	0.2831	0.6511	0.7209	0.032
Mof_H 	H 	0.8672	0.2326	0.993	0.023
Mof_H 	H 	0.2236	0.0102	0.6957	0.055
Mof_H 	H 	0.9358	0.8451	0.7541	0.046
Mof_H 	H 	0.8379	0.6947	0.8233	0.065
Mof_H 	H 	0.8793	0.5939	0.8866	0.009
Mof_H 	H 	0.2612	0.9033	0.755	0.031
Mof_H 	H 	0.0863	0.9675	0.7037	0.05
Mof_H 	H 	0.1615	0.7541	0.8245	0.07
Mof_H 	H 	0.632	0.628	0.6511	0.032
Mof_H 	H 	0.6346	0.7744	0.2326	0.022
Mof_H 	H 	0.2134	0.2941	0.0102	0.059
Mof_H 	H 	0.0907	0.4008	0.8451	0.044
Mof_H 	H 	0.1432	0.482	0.6947	0.066
Mof_H 	H 	0.2854	0.5195	0.5939	0.008
Mof_H 	H 	0.3579	0.3417	0.9033	0.029
Mof_H 	H 	0.1188	0.3288	0.9675	0.047
Mof_H 	H 	0.4074	0.4214	0.7541	0.071
Mof_H 	H 	0.004	0.7209	0.628	0.032
Mof_H 	H 	0.8602	0.993	0.7744	0.022
Mof_H 	H 	0.9193	0.6957	0.2941	0.057
Mof_H 	H 	0.6899	0.7541	0.4008	0.045
Mof_H 	H 	0.6612	0.8233	0.482	0.066
Mof_H 	H 	0.7659	0.8866	0.5195	0.008
Mof_H 	H 	0.0162	0.755	0.3417	0.033
Mof_H 	H 	0.79	0.7037	0.3288	0.048
Mof_H 	H 	0.986	0.8245	0.4214	0.069
Mof_H 	H 	0.7265	0.4765	0.047	0.031
Mof_H 	H 	0.5719	0.3219	0.3562	0.07
Mof_H 	H 	0.7735	0.047	0.4765	0.032
Mof_H 	H 	0.9281	0.3562	0.3219	0.07
Mof_H 	H 	0.25	0.4765	0.4765	0.031
Mof_H 	H 	0.25	0.3219	0.3219	0.07
Mof_H 	H 	0.2735	0.5235	0.953	0.031
Mof_H 	H 	0.4281	0.6781	0.6438	0.07
Mof_H 	H 	0.2265	0.953	0.5235	0.032
Mof_H 	H 	0.0719	0.6438	0.6781	0.07
Mof_H 	H 	0.75	0.5235	0.5235	0.031
Mof_H 	H 	0.75	0.6781	0.6781	0.07
Mof_H 	H 	0.25	0.23205	0.23205	0.029
Mof_H 	H 	0.25	0.0776	0.0776	0.067
Mof_H 	H 	0.48205	0.23205	0.5359	0.029
Mof_H 	H 	0.3276	0.0776	0.8448	0.068
Mof_H 	H 	0.01795	0.5359	0.23205	0.029
Mof_H 	H 	0.1724	0.8448	0.0776	0.069
Mof_H 	H 	0.75	0.76795	0.76795	0.029
Mof_H 	H 	0.75	0.9224	0.9224	0.067
Mof_H 	H 	0.51795	0.76795	0.4641	0.029
Mof_H 	H 	0.6724	0.9224	0.1552	0.068
Mof_H 	H 	0.98205	0.4641	0.76795	0.029
Mof_H 	H 	0.8276	0.1552	0.9224	0.069
Mof_C 	C 	0.56098	0.45122	0.10563	0.388
Mof_C 	C 	0.60736	0.42588	0.15559	-0.122
Mof_C 	C 	0.56252	0.38219	0.24756	0.048
Mof_C 	C 	0.38001	0.3401	0.06882	0.398
Mof_C 	C 	0.31335	0.244	0.11207	-0.141
Mof_C 	C 	0.31488	0.19728	0.06673	0.053
Mof_C 	C 	0.40552	0.67293	0.27628	-0.067
Mof_C 	C 	0.2312	0.58214	0.22128	-0.017
Mof_C 	C 	0.2145	0.53512	0.18011	-0.084
Mof_C 	C 	0.27746	0.51237	0.14293	0.048
Mof_C 	C 	0.46371	0.6446	0.24021	0.023
Mof_C 	C 	0.30946	0.60554	0.22746	-0.016
Mof_C 	C 	0.32968	0.65303	0.27084	-0.025
Mof_C 	C 	0.36941	0.57876	0.19009	0.094
Mof_C 	C 	0.44641	0.59793	0.19855	-0.128
Mof_C 	C 	0.66661	0.10563	0.44315	0.388
Mof_C 	C 	0.76295	0.15559	0.41853	-0.122
Mof_C 	C 	0.81008	0.24756	0.37025	0.048
Mof_C 	C 	0.44883	0.06882	0.59108	0.398
Mof_C 	C 	0.42542	0.11207	0.64393	-0.141
Mof_C 	C 	0.38161	0.06673	0.73599	0.053
Mof_C 	C 	0.6818	0.27628	0.05079	-0.069
Mof_C 	C 	0.45248	0.22128	0.19658	-0.017
Mof_C 	C 	0.39461	0.18011	0.28477	-0.085
Mof_C 	C 	0.42039	0.14293	0.3447	0.048
Mof_C 	C 	0.70392	0.24021	0.11519	0.025
Mof_C 	C 	0.53692	0.22746	0.167	-0.017
Mof_C 	C 	0.60052	0.27084	0.07613	-0.024
Mof_C 	C 	0.5595	0.19009	0.23115	0.094
Mof_C 	C 	0.64496	0.19855	0.20352	-0.129
Mof_C 	C 	0.10976	0.44315	0.45122	0.388
Mof_C 	C 	0.18148	0.41853	0.42588	-0.122
Mof_C 	C 	0.18033	0.37025	0.38219	0.048
Mof_C 	C 	0.03991	0.59108	0.3401	0.399
Mof_C 	C 	0.06935	0.64393	0.244	-0.142
Mof_C 	C 	0.1176	0.73599	0.19728	0.054
Mof_C 	C 	0.73259	0.05079	0.67293	-0.06
Mof_C 	C 	0.64906	0.19658	0.58214	-0.019
Mof_C 	C 	0.67938	0.28477	0.53512	-0.083
Mof_C 	C 	0.76509	0.3447	0.51237	0.048
Mof_C 	C 	0.81911	0.11519	0.6446	0.019
Mof_C 	C 	0.70392	0.167	0.60554	-0.013
Mof_C 	C 	0.67665	0.07613	0.65303	-0.029
Mof_C 	C 	0.79065	0.23115	0.57876	0.092
Mof_C 	C 	0.84848	0.20352	0.59793	-0.125
Mof_C 	C 	0.83339	0.44315	0.10563	0.388
Mof_C 	C 	0.73705	0.41853	0.15559	-0.122
Mof_C 	C 	0.68992	0.37025	0.24756	0.048
Mof_C 	C 	0.05117	0.59108	0.06882	0.4
Mof_C 	C 	0.07458	0.64393	0.11207	-0.142
Mof_C 	C 	0.11839	0.73599	0.06673	0.054
Mof_C 	C 	0.8182	0.05079	0.27628	-0.059
Mof_C 	C 	0.04752	0.19658	0.22128	-0.023
Mof_C 	C 	0.10539	0.28477	0.18011	-0.081
Mof_C 	C 	0.07961	0.3447	0.14293	0.047
Mof_C 	C 	0.79608	0.11519	0.24021	0.018
Mof_C 	C 	0.96308	0.167	0.22746	-0.01
Mof_C 	C 	0.89948	0.07613	0.27084	-0.031
Mof_C 	C 	0.9405	0.23115	0.19009	0.092
Mof_C 	C 	0.85504	0.20352	0.19855	-0.125
Mof_C 	C 	0.39024	0.45122	0.44315	0.388
Mof_C 	C 	0.31852	0.42588	0.41853	-0.122
Mof_C 	C 	0.31967	0.38219	0.37025	0.048
Mof_C 	C 	0.46009	0.3401	0.59108	0.398
Mof_C 	C 	0.43065	0.244	0.64393	-0.141
Mof_C 	C 	0.3824	0.19728	0.73599	0.053
Mof_C 	C 	0.76741	0.67293	0.05079	-0.067
Mof_C 	C 	0.85094	0.58214	0.19658	-0.017
Mof_C 	C 	0.82062	0.53512	0.28477	-0.084
Mof_C 	C 	0.73491	0.51237	0.3447	0.048
Mof_C 	C 	0.68089	0.6446	0.11519	0.023
Mof_C 	C 	0.79608	0.60554	0.167	-0.016
Mof_C 	C 	0.82335	0.65303	0.07613	-0.025
Mof_C 	C 	0.70935	0.57876	0.23115	0.094
Mof_C 	C 	0.65152	0.59793	0.20352	-0.128
Mof_C 	C 	0.93902	0.10563	0.45122	0.391
Mof_C 	C 	0.89264	0.15559	0.42588	-0.122
Mof_C 	C 	0.93748	0.24756	0.38219	0.049
Mof_C 	C 	0.11999	0.06882	0.3401	0.393
Mof_C 	C 	0.18665	0.11207	0.244	-0.14
Mof_C 	C 	0.18512	0.06673	0.19728	0.052
Mof_C 	C 	0.09448	0.27628	0.67293	-0.063
Mof_C 	C 	0.2688	0.22128	0.58214	-0.019
Mof_C 	C 	0.2855	0.18011	0.53512	-0.083
Mof_C 	C 	0.22254	0.14293	0.51237	0.048
Mof_C 	C 	0.03629	0.24021	0.6446	0.016
Mof_C 	C 	0.19054	0.22746	0.60554	-0.014
Mof_C 	C 	0.17032	0.27084	0.65303	-0.028
Mof_C 	C 	0.13059	0.19009	0.57876	0.091
Mof_C 	C 	0.05359	0.19855	0.59793	-0.124
Mof_C 	C 	0.43902	0.54878	0.89437	0.388
Mof_C 	C 	0.39264	0.57412	0.84441	-0.122
Mof_C 	C 	0.43748	0.61781	0.75244	0.048
Mof_C 	C 	0.61999	0.6599	0.93118	0.398
Mof_C 	C 	0.68665	0.756	0.88793	-0.141
Mof_C 	C 	0.68512	0.80272	0.93327	0.053
Mof_C 	C 	0.59448	0.32707	0.72372	-0.067
Mof_C 	C 	0.7688	0.41786	0.77872	-0.017
Mof_C 	C 	0.7855	0.46488	0.81989	-0.084
Mof_C 	C 	0.72254	0.48763	0.85707	0.048
Mof_C 	C 	0.53629	0.3554	0.75979	0.023
Mof_C 	C 	0.69054	0.39446	0.77254	-0.016
Mof_C 	C 	0.67032	0.34697	0.72916	-0.025
Mof_C 	C 	0.63059	0.42124	0.80991	0.094
Mof_C 	C 	0.55359	0.40207	0.80145	-0.128
Mof_C 	C 	0.33339	0.89437	0.55685	0.388
Mof_C 	C 	0.23705	0.84441	0.58147	-0.122
Mof_C 	C 	0.18992	0.75244	0.62975	0.048
Mof_C 	C 	0.55117	0.93118	0.40892	0.398
Mof_C 	C 	0.57458	0.88793	0.35607	-0.141
Mof_C 	C 	0.61839	0.93327	0.26401	0.053
Mof_C 	C 	0.3182	0.72372	0.94921	-0.069
Mof_C 	C 	0.54752	0.77872	0.80342	-0.017
Mof_C 	C 	0.60539	0.81989	0.71523	-0.085
Mof_C 	C 	0.57961	0.85707	0.6553	0.048
Mof_C 	C 	0.29608	0.75979	0.88481	0.025
Mof_C 	C 	0.46308	0.77254	0.833	-0.017
Mof_C 	C 	0.39948	0.72916	0.92387	-0.024
Mof_C 	C 	0.4405	0.80991	0.76885	0.094
Mof_C 	C 	0.35504	0.80145	0.79648	-0.129
Mof_C 	C 	0.89024	0.55685	0.54878	0.388
Mof_C 	C 	0.81852	0.58147	0.57412	-0.122
Mof_C 	C 	0.81967	0.62975	0.61781	0.048
Mof_C 	C 	0.96009	0.40892	0.6599	0.399
Mof_C 	C 	0.93065	0.35607	0.756	-0.142
Mof_C 	C 	0.8824	0.26401	0.80272	0.054
Mof_C 	C 	0.26741	0.94921	0.32707	-0.06
Mof_C 	C 	0.35094	0.80342	0.41786	-0.019
Mof_C 	C 	0.32062	0.71523	0.46488	-0.083
Mof_C 	C 	0.23491	0.6553	0.48763	0.048
Mof_C 	C 	0.18089	0.88481	0.3554	0.019
Mof_C 	C 	0.29608	0.833	0.39446	-0.013
Mof_C 	C 	0.32335	0.92387	0.34697	-0.029
Mof_C 	C 	0.20935	0.76885	0.42124	0.092
Mof_C 	C 	0.15152	0.79648	0.40207	-0.125
Mof_C 	C 	0.16661	0.55685	0.89437	0.388
Mof_C 	C 	0.26295	0.58147	0.84441	-0.122
Mof_C 	C 	0.31008	0.62975	0.75244	0.048
Mof_C 	C 	0.94883	0.40892	0.93118	0.4
Mof_C 	C 	0.92542	0.35607	0.88793	-0.142
Mof_C 	C 	0.88161	0.26401	0.93327	0.054
Mof_C 	C 	0.1818	0.94921	0.72372	-0.059
Mof_C 	C 	0.95248	0.80342	0.77872	-0.023
Mof_C 	C 	0.89461	0.71523	0.81989	-0.081
Mof_C 	C 	0.92039	0.6553	0.85707	0.047
Mof_C 	C 	0.20392	0.88481	0.75979	0.018
Mof_C 	C 	0.03692	0.833	0.77254	-0.01
Mof_C 	C 	0.10052	0.92387	0.72916	-0.031
Mof_C 	C 	0.0595	0.76885	0.80991	0.092
Mof_C 	C 	0.14496	0.79648	0.80145	-0.125
Mof_C 	C 	0.60976	0.54878	0.55685	0.388
Mof_C 	C 	0.68148	0.57412	0.58147	-0.122
Mof_C 	C 	0.68033	0.61781	0.62975	0.048
Mof_C 	C 	0.53991	0.6599	0.40892	0.398
Mof_C 	C 	0.56935	0.756	0.35607	-0.141
Mof_C 	C 	0.6176	0.80272	0.26401	0.053
Mof_C 	C 	0.23259	0.32707	0.94921	-0.067
Mof_C 	C 	0.14906	0.41786	0.80342	-0.017
Mof_C 	C 	0.17938	0.46488	0.71523	-0.084
Mof_C 	C 	0.26509	0.48763	0.6553	0.048
Mof_C 	C 	0.31911	0.3554	0.88481	0.023
Mof_C 	C 	0.20392	0.39446	0.833	-0.016
Mof_C 	C 	0.17665	0.34697	0.92387	-0.025
Mof_C 	C 	0.29065	0.42124	0.76885	0.094
Mof_C 	C 	0.34848	0.40207	0.79648	-0.128
Mof_C 	C 	0.06098	0.89437	0.54878	0.391
Mof_C 	C 	0.10736	0.84441	0.57412	-0.122
Mof_C 	C 	0.06252	0.75244	0.61781	0.049
Mof_C 	C 	0.88001	0.93118	0.6599	0.393
Mof_C 	C 	0.81335	0.88793	0.756	-0.14
Mof_C 	C 	0.81488	0.93327	0.80272	0.052
Mof_C 	C 	0.90552	0.72372	0.32707	-0.063
Mof_C 	C 	0.7312	0.77872	0.41786	-0.019
Mof_C 	C 	0.7145	0.81989	0.46488	-0.083
Mof_C 	C 	0.77746	0.85707	0.48763	0.048
Mof_C 	C 	0.96371	0.75979	0.3554	0.016
Mof_C 	C 	0.80946	0.77254	0.39446	-0.014
Mof_C 	C 	0.82968	0.72916	0.34697	-0.028
Mof_C 	C 	0.86941	0.80991	0.42124	0.091
Mof_C 	C 	0.94641	0.80145	0.40207	-0.124
Mof_C 	C 	0.69513	0.44513	0.10974	0.066
Mof_C 	C 	0.60333	0.35333	0.29334	-0.109
Mof_C 	C 	0.80487	0.10974	0.44513	0.066
Mof_C 	C 	0.89667	0.29334	0.35333	-0.109
Mof_C 	C 	0.25	0.44513	0.44513	0.066
Mof_C 	C 	0.25	0.35333	0.35333	-0.109
Mof_C 	C 	0.30487	0.55487	0.89026	0.066
Mof_C 	C 	0.39667	0.64667	0.70666	-0.109
Mof_C 	C 	0.19513	0.89026	0.55487	0.066
Mof_C 	C 	0.10333	0.70666	0.64667	-0.109
Mof_C 	C 	0.75	0.55487	0.55487	0.066
Mof_C 	C 	0.75	0.64667	0.64667	-0.109
Mof_C 	C 	0.25	0.20065	0.20065	0.069
Mof_C 	C 	0.25	0.10901	0.10901	-0.117
Mof_C 	C 	0.45065	0.20065	0.5987	0.07
Mof_C 	C 	0.35901	0.10901	0.78198	-0.118
Mof_C 	C 	0.04935	0.5987	0.20065	0.07
Mof_C 	C 	0.14099	0.78198	0.10901	-0.118
Mof_C 	C 	0.75	0.79935	0.79935	0.069
Mof_C 	C 	0.75	0.89099	0.89099	-0.117
Mof_C 	C 	0.54935	0.79935	0.4013	0.07
Mof_C 	C 	0.64099	0.89099	0.21802	-0.118
Mof_C 	C 	0.95065	0.4013	0.79935	0.07
Mof_C 	C 	0.85901	0.21802	0.89099	-0.118
Mof_N 	N 	0.3523	0.53292	0.1468	-0.246
Mof_N 	N 	0.4991	0.1468	0.32028	-0.246
Mof_N 	N 	0.81938	0.32028	0.53292	-0.245
Mof_N 	N 	0.0009	0.32028	0.1468	-0.245
Mof_N 	N 	0.68062	0.53292	0.32028	-0.246
Mof_N 	N 	0.1477	0.1468	0.53292	-0.246
Mof_N 	N 	0.6477	0.46708	0.8532	-0.246
Mof_N 	N 	0.5009	0.8532	0.67972	-0.246
Mof_N 	N 	0.18062	0.67972	0.46708	-0.245
Mof_N 	N 	0.9991	0.67972	0.8532	-0.245
Mof_N 	N 	0.31938	0.46708	0.67972	-0.246
Mof_N 	N 	0.8523	0.8532	0.46708	-0.246
Mof_O 	O 	0.49687	0.46105	0.14366	-0.453
Mof_O 	O 	0.36098	0.37984	0.10868	-0.47
Mof_O 	O 	0.58932	0.46029	0.02947	-0.459
Mof_O 	O 	0.44988	0.37209	0.99749	-0.471
Mof_O 	O 	0.64053	0.14366	0.39529	-0.453
Mof_O 	O 	0.46966	0.10868	0.51148	-0.47
Mof_O 	O 	0.61879	0.02947	0.51024	-0.458
Mof_O 	O 	0.44737	0.99749	0.63042	-0.472
Mof_O 	O 	0.03582	0.39529	0.46105	-0.454
Mof_O 	O 	0.98114	0.51148	0.37984	-0.47
Mof_O 	O 	0.12903	0.51024	0.46029	-0.459
Mof_O 	O 	0.07779	0.63042	0.37209	-0.472
Mof_O 	O 	0.85947	0.39529	0.14366	-0.453
Mof_O 	O 	0.03034	0.51148	0.10868	-0.47
Mof_O 	O 	0.88121	0.51024	0.02947	-0.459
Mof_O 	O 	0.05263	0.63042	0.99749	-0.472
Mof_O 	O 	0.46418	0.46105	0.39529	-0.453
Mof_O 	O 	0.51886	0.37984	0.51148	-0.47
Mof_O 	O 	0.37097	0.46029	0.51024	-0.458
Mof_O 	O 	0.42221	0.37209	0.63042	-0.472
Mof_O 	O 	0.00313	0.14366	0.46105	-0.456
Mof_O 	O 	0.13902	0.10868	0.37984	-0.469
Mof_O 	O 	0.91068	0.02947	0.46029	-0.458
Mof_O 	O 	0.05012	0.99749	0.37209	-0.467
Mof_O 	O 	0.50313	0.53895	0.85634	-0.453
Mof_O 	O 	0.63902	0.62016	0.89132	-0.47
Mof_O 	O 	0.41068	0.53971	0.97053	-0.459
Mof_O 	O 	0.55012	0.62791	0.00251	-0.471
Mof_O 	O 	0.35947	0.85634	0.60471	-0.453
Mof_O 	O 	0.53034	0.89132	0.48852	-0.47
Mof_O 	O 	0.38121	0.97053	0.48976	-0.458
Mof_O 	O 	0.55263	0.00251	0.36958	-0.472
Mof_O 	O 	0.96418	0.60471	0.53895	-0.454
Mof_O 	O 	0.01886	0.48852	0.62016	-0.47
Mof_O 	O 	0.87097	0.48976	0.53971	-0.459
Mof_O 	O 	0.92221	0.36958	0.62791	-0.472
Mof_O 	O 	0.14053	0.60471	0.85634	-0.453
Mof_O 	O 	0.96966	0.48852	0.89132	-0.47
Mof_O 	O 	0.11879	0.48976	0.97053	-0.459
Mof_O 	O 	0.94737	0.36958	0.00251	-0.472
Mof_O 	O 	0.53582	0.53895	0.60471	-0.453
Mof_O 	O 	0.48114	0.62016	0.48852	-0.47
Mof_O 	O 	0.62903	0.53971	0.48976	-0.458
Mof_O 	O 	0.57779	0.62791	0.36958	-0.472
Mof_O 	O 	0.99687	0.85634	0.53895	-0.456
Mof_O 	O 	0.86098	0.89132	0.62016	-0.469
Mof_O 	O 	0.08932	0.97053	0.53971	-0.458
Mof_O 	O 	0.94988	0.00251	0.62791	-0.467
_end
