data_functionalizedCrystal
_audit_creation_method	'EQeq! by Chris Wilmer'
_symmetry_space_group_name_H-M	'P1'
_symmetry_Int_Tables_number	1
_symmetry_cell_setting	triclinic
loop_
_symmetry_equiv_pos_as_xyz
  x,y,z
_cell_length_a	31.717
_cell_length_b	9.4333
_cell_length_c	18.1739
_cell_angle_alpha	90
_cell_angle_beta	119.894
_cell_angle_gamma	90
loop_
_atom_site_label
_atom_site_type_symbol
_atom_site_fract_x
_atom_site_fract_y
_atom_site_fract_z
_atom_site_charge
Mof_Co	Co	0.12372	0.81464	0.39208	1.15
Mof_O 	O 	0.1392	0.7112	0.31065	-0.444
Mof_O 	O 	0.22078	0.7076	0.37307	-0.424
Mof_O 	O 	0.20767	0.39891	0.01773	-0.423
Mof_O 	O 	0.12833	0.3522	0.96592	-0.395
Mof_O 	O 	0.1433	0.0258	0.36644	-0.391
Mof_O 	O 	0.1948	0.89902	0.47516	-0.507
Mof_N 	N 	0.04677	0.805	0.30252	-0.184
Mof_C 	C 	0.17882	0.6836	0.3134	0.378
Mof_C 	C 	0.1752	0.6135	0.23579	-0.089
Mof_C 	C 	0.13241	0.549	0.1753	-0.011
Mof_H 	H 	0.1046	0.5498	0.1821	0.036
Mof_C 	C 	0.21559	0.6093	0.22518	-0.009
Mof_H 	H 	0.2452	0.6517	0.2665	0.047
Mof_C 	C 	0.16911	0.4055	0.01985	0.305
Mof_C 	C 	0.17036	0.4816	0.09382	-0.065
Mof_C 	C 	0.21317	0.5439	0.15484	-0.03
Mof_H 	H 	0.2411	0.5417	0.1485	0.056
Mof_C 	C 	0.13024	0.4834	0.105	-0.034
Mof_H 	H 	0.1009	0.4393	0.0642	0.033
Mof_C 	C 	0.18347	0.0147	0.43338	0.318
Mof_C 	C 	0.21786	0.1369	0.46752	-0.074
Mof_C 	C 	0.21258	0.2523	0.41596	-0.012
Mof_H 	H 	0.1869	0.2539	0.3587	0.047
Mof_C 	C 	0.25508	0.1346	0.5516	-0.017
Mof_H 	H 	0.2584	0.0561	0.5868	0.049
Mof_C 	C 	0.01999	0.7382	0.34131	-0.056
Mof_H 	H 	0.0241	0.7964	0.3898	0.027
Mof_H 	H 	0.0337	0.6431	0.3631	0.04
Mof_C 	C 	0.03426	0.7247	0.22382	-0.054
Mof_H 	H 	0.0426	0.6235	0.238	0.043
Mof_H 	H 	0.0537	0.7613	0.199	0.04
Mof_C 	C 	0.02803	0.9516	0.27694	-0.055
Mof_H 	H 	0.0419	0.9936	0.2437	0.037
Mof_H 	H 	0.0384	0.0104	0.3282	0.021
Mof_Co	Co	0.62372	0.31464	0.39208	1.149
Mof_O 	O 	0.6392	0.2112	0.31065	-0.446
Mof_O 	O 	0.72078	0.2076	0.37307	-0.425
Mof_O 	O 	0.70767	0.89891	0.01773	-0.424
Mof_O 	O 	0.62833	0.8522	0.96592	-0.395
Mof_O 	O 	0.6433	0.5258	0.36644	-0.391
Mof_O 	O 	0.6948	0.39902	0.47516	-0.508
Mof_N 	N 	0.54677	0.305	0.30252	-0.183
Mof_C 	C 	0.67882	0.1836	0.3134	0.378
Mof_C 	C 	0.6752	0.1135	0.23579	-0.089
Mof_C 	C 	0.63241	0.049	0.1753	-0.012
Mof_H 	H 	0.6046	0.0498	0.1821	0.036
Mof_C 	C 	0.71559	0.1093	0.22518	-0.009
Mof_H 	H 	0.7452	0.1517	0.2665	0.047
Mof_C 	C 	0.66911	0.9055	0.01985	0.305
Mof_C 	C 	0.67036	0.9816	0.09382	-0.064
Mof_C 	C 	0.71317	0.0439	0.15484	-0.032
Mof_H 	H 	0.7411	0.0417	0.1485	0.056
Mof_C 	C 	0.63024	0.9834	0.105	-0.033
Mof_H 	H 	0.6009	0.9393	0.0642	0.033
Mof_C 	C 	0.68347	0.5147	0.43338	0.32
Mof_C 	C 	0.71786	0.6369	0.46752	-0.074
Mof_C 	C 	0.71258	0.7523	0.41596	-0.012
Mof_H 	H 	0.6869	0.7539	0.3587	0.047
Mof_C 	C 	0.75508	0.6346	0.5516	-0.017
Mof_H 	H 	0.7584	0.5561	0.5868	0.049
Mof_C 	C 	0.51999	0.2382	0.34131	-0.059
Mof_H 	H 	0.5241	0.2964	0.3898	0.027
Mof_H 	H 	0.5337	0.1431	0.3631	0.04
Mof_C 	C 	0.53426	0.2247	0.22382	-0.057
Mof_H 	H 	0.5426	0.1235	0.238	0.044
Mof_H 	H 	0.5537	0.2613	0.199	0.041
Mof_C 	C 	0.52803	0.4516	0.27694	-0.059
Mof_H 	H 	0.5419	0.4936	0.2437	0.037
Mof_H 	H 	0.5384	0.5104	0.3282	0.022
Mof_Co	Co	0.87628	0.81464	0.10792	1.147
Mof_O 	O 	0.8608	0.7112	0.18935	-0.446
Mof_O 	O 	0.77922	0.7076	0.12693	-0.434
Mof_O 	O 	0.79233	0.39891	0.48227	-0.422
Mof_O 	O 	0.87167	0.3522	0.53408	-0.444
Mof_O 	O 	0.8567	0.0258	0.13356	-0.404
Mof_O 	O 	0.8052	0.89902	0.02484	-0.536
Mof_N 	N 	0.95323	0.805	0.19748	-0.184
Mof_C 	C 	0.82118	0.6836	0.1866	0.377
Mof_C 	C 	0.8248	0.6135	0.26421	-0.085
Mof_C 	C 	0.86759	0.549	0.3247	-0.014
Mof_H 	H 	0.8954	0.5498	0.3179	0.04
Mof_C 	C 	0.78441	0.6093	0.27482	-0.014
Mof_H 	H 	0.7548	0.6517	0.2335	0.046
Mof_C 	C 	0.83089	0.4055	0.48015	0.366
Mof_C 	C 	0.82964	0.4816	0.40618	-0.077
Mof_C 	C 	0.78683	0.5439	0.34516	-0.018
Mof_H 	H 	0.7589	0.5417	0.3515	0.052
Mof_C 	C 	0.86976	0.4834	0.395	-0.02
Mof_H 	H 	0.8991	0.4393	0.4358	0.043
Mof_C 	C 	0.81653	0.0147	0.06662	0.36
Mof_C 	C 	0.78214	0.1369	0.03248	-0.204
Mof_C 	C 	0.78742	0.2523	0.08404	0.098
Mof_H 	H 	0.8131	0.2539	0.1413	0.009
Mof_C 	C 	0.74492	0.1346	0.9484	0.137
Mof_H 	H 	0.7416	0.0561	0.9132	0.009
Mof_C 	C 	0.98001	0.7382	0.15869	-0.056
Mof_H 	H 	0.9759	0.7964	0.1102	0.019
Mof_H 	H 	0.9663	0.6431	0.1369	0.034
Mof_C 	C 	0.96574	0.7247	0.27618	-0.057
Mof_H 	H 	0.9574	0.6235	0.262	0.044
Mof_H 	H 	0.9463	0.7613	0.301	0.044
Mof_C 	C 	0.97197	0.9516	0.22306	-0.059
Mof_H 	H 	0.9581	0.9936	0.2563	0.04
Mof_H 	H 	0.9616	0.0104	0.1718	0.017
Mof_Co	Co	0.37628	0.31464	0.10792	1.146
Mof_O 	O 	0.3608	0.2112	0.18935	-0.446
Mof_O 	O 	0.27922	0.2076	0.12693	-0.434
Mof_O 	O 	0.29233	0.89891	0.48227	-0.421
Mof_O 	O 	0.37167	0.8522	0.53408	-0.444
Mof_O 	O 	0.3567	0.5258	0.13356	-0.404
Mof_O 	O 	0.3052	0.39902	0.02484	-0.537
Mof_N 	N 	0.45323	0.305	0.19748	-0.184
Mof_C 	C 	0.32118	0.1836	0.1866	0.377
Mof_C 	C 	0.3248	0.1135	0.26421	-0.085
Mof_C 	C 	0.36759	0.049	0.3247	-0.015
Mof_H 	H 	0.3954	0.0498	0.3179	0.041
Mof_C 	C 	0.28441	0.1093	0.27482	-0.014
Mof_H 	H 	0.2548	0.1517	0.2335	0.046
Mof_C 	C 	0.33089	0.9055	0.48015	0.366
Mof_C 	C 	0.32964	0.9816	0.40618	-0.076
Mof_C 	C 	0.28683	0.0439	0.34516	-0.02
Mof_H 	H 	0.2589	0.0417	0.3515	0.052
Mof_C 	C 	0.36976	0.9834	0.395	-0.019
Mof_H 	H 	0.3991	0.9393	0.4358	0.043
Mof_C 	C 	0.31653	0.5147	0.06662	0.361
Mof_C 	C 	0.28214	0.6369	0.03248	-0.205
Mof_C 	C 	0.28742	0.7523	0.08404	0.099
Mof_H 	H 	0.3131	0.7539	0.1413	0.01
Mof_C 	C 	0.24492	0.6346	0.9484	0.139
Mof_H 	H 	0.2416	0.5561	0.9132	0.009
Mof_C 	C 	0.48001	0.2382	0.15869	-0.054
Mof_H 	H 	0.4759	0.2964	0.1102	0.018
Mof_H 	H 	0.4663	0.1431	0.1369	0.034
Mof_C 	C 	0.46574	0.2247	0.27618	-0.054
Mof_H 	H 	0.4574	0.1235	0.262	0.044
Mof_H 	H 	0.4463	0.2613	0.301	0.044
Mof_C 	C 	0.47197	0.4516	0.22306	-0.057
Mof_H 	H 	0.4581	0.4936	0.2563	0.04
Mof_H 	H 	0.4616	0.5104	0.1718	0.018
Mof_Co	Co	0.87628	0.18536	0.60792	1.149
Mof_O 	O 	0.8608	0.2888	0.68935	-0.443
Mof_O 	O 	0.77922	0.2924	0.62693	-0.424
Mof_O 	O 	0.79233	0.60109	0.98227	-0.413
Mof_O 	O 	0.87167	0.6478	0.03408	-0.492
Mof_O 	O 	0.8567	0.9742	0.63356	-0.387
Mof_O 	O 	0.8052	0.10098	0.52484	-0.509
Mof_N 	N 	0.95323	0.195	0.69748	-0.182
Mof_C 	C 	0.82118	0.3164	0.6866	0.376
Mof_C 	C 	0.8248	0.3865	0.76421	-0.076
Mof_C 	C 	0.86759	0.451	0.8247	-0.019
Mof_H 	H 	0.8954	0.4502	0.8179	0.047
Mof_C 	C 	0.78441	0.3907	0.77482	-0.021
Mof_H 	H 	0.7548	0.3483	0.7335	0.052
Mof_C 	C 	0.83089	0.5945	0.98015	0.426
Mof_C 	C 	0.82964	0.5184	0.90618	-0.09
Mof_C 	C 	0.78683	0.4561	0.84516	-0.004
Mof_H 	H 	0.7589	0.4583	0.8515	0.049
Mof_C 	C 	0.86976	0.5166	0.895	-0.005
Mof_H 	H 	0.8991	0.5607	0.9358	0.052
Mof_C 	C 	0.81653	0.9853	0.56662	0.32
Mof_C 	C 	0.78214	0.8631	0.53248	-0.072
Mof_C 	C 	0.78742	0.7477	0.58404	-0.014
Mof_H 	H 	0.8131	0.7461	0.6413	0.05
Mof_C 	C 	0.74492	0.8654	0.4484	-0.019
Mof_H 	H 	0.7416	0.9439	0.4132	0.05
Mof_C 	C 	0.98001	0.2618	0.65869	-0.061
Mof_H 	H 	0.9759	0.2036	0.6102	0.027
Mof_H 	H 	0.9663	0.3569	0.6369	0.041
Mof_C 	C 	0.96574	0.2753	0.77618	-0.056
Mof_H 	H 	0.9574	0.3765	0.762	0.047
Mof_H 	H 	0.9463	0.2387	0.801	0.047
Mof_C 	C 	0.97197	0.0484	0.72306	-0.063
Mof_H 	H 	0.9581	0.0064	0.7563	0.043
Mof_H 	H 	0.9616	0.9896	0.6718	0.025
Mof_Co	Co	0.37628	0.68536	0.60792	1.149
Mof_O 	O 	0.3608	0.7888	0.68935	-0.442
Mof_O 	O 	0.27922	0.7924	0.62693	-0.424
Mof_O 	O 	0.29233	0.10109	0.98227	-0.413
Mof_O 	O 	0.37167	0.1478	0.03408	-0.492
Mof_O 	O 	0.3567	0.4742	0.63356	-0.388
Mof_O 	O 	0.3052	0.60098	0.52484	-0.508
Mof_N 	N 	0.45323	0.695	0.69748	-0.183
Mof_C 	C 	0.32118	0.8164	0.6866	0.376
Mof_C 	C 	0.3248	0.8865	0.76421	-0.076
Mof_C 	C 	0.36759	0.951	0.8247	-0.017
Mof_H 	H 	0.3954	0.9502	0.8179	0.046
Mof_C 	C 	0.28441	0.8907	0.77482	-0.021
Mof_H 	H 	0.2548	0.8483	0.7335	0.052
Mof_C 	C 	0.33089	0.0945	0.98015	0.426
Mof_C 	C 	0.32964	0.0184	0.90618	-0.091
Mof_C 	C 	0.28683	0.9561	0.84516	-0.002
Mof_H 	H 	0.2589	0.9583	0.8515	0.049
Mof_C 	C 	0.36976	0.0166	0.895	-0.007
Mof_H 	H 	0.3991	0.0607	0.9358	0.052
Mof_C 	C 	0.31653	0.4853	0.56662	0.319
Mof_C 	C 	0.28214	0.3631	0.53248	-0.071
Mof_C 	C 	0.28742	0.2477	0.58404	-0.014
Mof_H 	H 	0.3131	0.2461	0.6413	0.05
Mof_C 	C 	0.24492	0.3654	0.4484	-0.019
Mof_H 	H 	0.2416	0.4439	0.4132	0.05
Mof_C 	C 	0.48001	0.7618	0.65869	-0.058
Mof_H 	H 	0.4759	0.7036	0.6102	0.027
Mof_H 	H 	0.4663	0.8569	0.6369	0.041
Mof_C 	C 	0.46574	0.7753	0.77618	-0.053
Mof_H 	H 	0.4574	0.8765	0.762	0.047
Mof_H 	H 	0.4463	0.7387	0.801	0.047
Mof_C 	C 	0.47197	0.5484	0.72306	-0.059
Mof_H 	H 	0.4581	0.5064	0.7563	0.043
Mof_H 	H 	0.4616	0.4896	0.6718	0.023
Mof_Co	Co	0.12372	0.18536	0.89208	1.151
Mof_O 	O 	0.1392	0.2888	0.81065	-0.441
Mof_O 	O 	0.22078	0.2924	0.87307	-0.408
Mof_O 	O 	0.20767	0.60109	0.51773	-0.422
Mof_O 	O 	0.12833	0.6478	0.46592	-0.444
Mof_O 	O 	0.1433	0.9742	0.86644	-0.374
Mof_O 	O 	0.1948	0.10098	0.97516	-0.474
Mof_N 	N 	0.04677	0.195	0.80252	-0.182
Mof_C 	C 	0.17882	0.3164	0.8134	0.374
Mof_C 	C 	0.1752	0.3865	0.73579	-0.078
Mof_C 	C 	0.13241	0.451	0.6753	-0.018
Mof_H 	H 	0.1046	0.4502	0.6821	0.043
Mof_C 	C 	0.21559	0.3907	0.72518	-0.017
Mof_H 	H 	0.2452	0.3483	0.7665	0.053
Mof_C 	C 	0.16911	0.5945	0.51985	0.367
Mof_C 	C 	0.17036	0.5184	0.59382	-0.079
Mof_C 	C 	0.21317	0.4561	0.65484	-0.015
Mof_H 	H 	0.2411	0.4583	0.6485	0.052
Mof_C 	C 	0.13024	0.5166	0.605	-0.017
Mof_H 	H 	0.1009	0.5607	0.5642	0.042
Mof_C 	C 	0.18347	0.9853	0.93338	0.277
Mof_C 	C 	0.21786	0.8631	0.96752	0.061
Mof_C 	C 	0.21258	0.7477	0.91596	-0.125
Mof_H 	H 	0.1869	0.7461	0.8587	0.088
Mof_C 	C 	0.25508	0.8654	0.0516	-0.175
Mof_H 	H 	0.2584	0.9439	0.0868	0.092
Mof_C 	C 	0.01999	0.2618	0.84131	-0.06
Mof_H 	H 	0.0241	0.2036	0.8898	0.036
Mof_H 	H 	0.0337	0.3569	0.8631	0.047
Mof_C 	C 	0.03426	0.2753	0.72382	-0.053
Mof_H 	H 	0.0426	0.3765	0.738	0.046
Mof_H 	H 	0.0537	0.2387	0.699	0.043
Mof_C 	C 	0.02803	0.0484	0.77694	-0.059
Mof_H 	H 	0.0419	0.0064	0.7437	0.041
Mof_H 	H 	0.0384	0.9896	0.8282	0.029
Mof_Co	Co	0.62372	0.68536	0.89208	1.152
Mof_O 	O 	0.6392	0.7888	0.81065	-0.44
Mof_O 	O 	0.72078	0.7924	0.87307	-0.408
Mof_O 	O 	0.70767	0.10109	0.51773	-0.422
Mof_O 	O 	0.62833	0.1478	0.46592	-0.445
Mof_O 	O 	0.6433	0.4742	0.86644	-0.375
Mof_O 	O 	0.6948	0.60098	0.97516	-0.473
Mof_N 	N 	0.54677	0.695	0.80252	-0.181
Mof_C 	C 	0.67882	0.8164	0.8134	0.374
Mof_C 	C 	0.6752	0.8865	0.73579	-0.078
Mof_C 	C 	0.63241	0.951	0.6753	-0.016
Mof_H 	H 	0.6046	0.9502	0.6821	0.042
Mof_C 	C 	0.71559	0.8907	0.72518	-0.017
Mof_H 	H 	0.7452	0.8483	0.7665	0.053
Mof_C 	C 	0.66911	0.0945	0.51985	0.367
Mof_C 	C 	0.67036	0.0184	0.59382	-0.08
Mof_C 	C 	0.71317	0.9561	0.65484	-0.013
Mof_H 	H 	0.7411	0.9583	0.6485	0.052
Mof_C 	C 	0.63024	0.0166	0.605	-0.019
Mof_H 	H 	0.6009	0.0607	0.5642	0.042
Mof_C 	C 	0.68347	0.4853	0.93338	0.276
Mof_C 	C 	0.71786	0.3631	0.96752	0.061
Mof_C 	C 	0.71258	0.2477	0.91596	-0.125
Mof_H 	H 	0.6869	0.2461	0.8587	0.088
Mof_C 	C 	0.75508	0.3654	0.0516	-0.175
Mof_H 	H 	0.7584	0.4439	0.0868	0.091
Mof_C 	C 	0.51999	0.7618	0.84131	-0.063
Mof_H 	H 	0.5241	0.7036	0.8898	0.036
Mof_H 	H 	0.5337	0.8569	0.8631	0.047
Mof_C 	C 	0.53426	0.7753	0.72382	-0.056
Mof_H 	H 	0.5426	0.8765	0.738	0.046
Mof_H 	H 	0.5537	0.7387	0.699	0.044
Mof_C 	C 	0.52803	0.5484	0.77694	-0.06
Mof_H 	H 	0.5419	0.5064	0.7437	0.041
Mof_H 	H 	0.5384	0.4896	0.8282	0.028
Mof_Co	Co	0.25	0.75	0.5	1.204
Mof_Co	Co	0.75	0.75	-0	1.183
Mof_Co	Co	0.75	0.25	0.5	1.204
Mof_Co	Co	0.25	0.25	-0	1.183
_end
