data_functionalizedCrystal
_audit_creation_method	'EQeq! by Chris Wilmer'
_symmetry_space_group_name_H-M	'P1'
_symmetry_Int_Tables_number	1
_symmetry_cell_setting	triclinic
loop_
_symmetry_equiv_pos_as_xyz
  x,y,z
_cell_length_a	12.004
_cell_length_b	13.943
_cell_length_c	22.746
_cell_angle_alpha	95.776
_cell_angle_beta	105.206
_cell_angle_gamma	104.265
loop_
_atom_site_label
_atom_site_type_symbol
_atom_site_fract_x
_atom_site_fract_y
_atom_site_fract_z
_atom_site_charge
Mof_Na	Na	0.7095	0.3019	0.1568	1.182
Mof_Na	Na	0.2905	0.6981	0.8432	1.182
Mof_Ag	Ag	0.51577	0.43971	0.08261	0.278
Mof_Ag	Ag	0.85482	0.48531	0.14588	0.073
Mof_Ag	Ag	0.97386	0.65029	0.30352	0.494
Mof_Ag	Ag	0.39794	0.61872	0.1742	0.511
Mof_Ag	Ag	0.18636	0.92569	0.55895	0.469
Mof_Ag	Ag	0.3166	0.32941	0.93402	0.409
Mof_Ag	Ag	0.15134	0.16354	0.99843	0.394
Mof_Ag	Ag	0.48423	0.56029	0.91739	0.277
Mof_Ag	Ag	0.14518	0.51469	0.85412	0.072
Mof_Ag	Ag	0.02614	0.34971	0.69648	0.493
Mof_Ag	Ag	0.60206	0.38128	0.8258	0.51
Mof_Ag	Ag	0.81364	0.07431	0.44105	0.468
Mof_Ag	Ag	0.6834	0.67059	0.06598	0.408
Mof_Ag	Ag	0.84866	0.83646	0.00157	0.394
Mof_H 	H 	0.215	0.7929	0.3428	0.044
Mof_H 	H 	0.3528	0.8711	0.4326	-0.009
Mof_H 	H 	0.5727	0.7282	0.3969	0.012
Mof_H 	H 	0.4333	0.6468	0.3047	0.03
Mof_H 	H 	0.8371	0.5909	0.5175	0.063
Mof_H 	H 	0.6986	0.4451	0.5095	0
Mof_H 	H 	0.9341	0.4687	0.3813	0.043
Mof_H 	H 	0.7848	0.3279	0.3704	-0.069
Mof_H 	H 	0.8169	0.7247	0.3631	0.059
Mof_H 	H 	0.8468	0.8687	0.431	-0.036
Mof_H 	H 	0.5762	0.824	0.2414	0.045
Mof_H 	H 	0.6582	0.9745	0.3065	-0.048
Mof_H 	H 	0.7588	0.252	0.9178	0.062
Mof_H 	H 	0.9023	0.1652	0.9197	-0.028
Mof_H 	H 	0.1297	0.3602	0.0583	-0.048
Mof_H 	H 	0.998	0.4529	0.0589	0.078
Mof_H 	H 	0.5439	0.0245	0.9118	0.036
Mof_H 	H 	0.6355	0.8923	0.914	-0.056
Mof_H 	H 	0.746	0.1331	0.0846	-0.043
Mof_H 	H 	0.8185	0.0033	0.0892	-0.041
Mof_H 	H 	0.785	0.2071	0.6572	0.044
Mof_H 	H 	0.6472	0.1289	0.5674	-0.009
Mof_H 	H 	0.4273	0.2718	0.6031	0.012
Mof_H 	H 	0.5667	0.3532	0.6953	0.03
Mof_H 	H 	0.1629	0.4091	0.4825	0.063
Mof_H 	H 	0.3014	0.5549	0.4905	0
Mof_H 	H 	0.0659	0.5313	0.6187	0.043
Mof_H 	H 	0.2152	0.6721	0.6296	-0.069
Mof_H 	H 	0.1831	0.2753	0.6369	0.059
Mof_H 	H 	0.1532	0.1313	0.569	-0.036
Mof_H 	H 	0.4238	0.176	0.7586	0.045
Mof_H 	H 	0.3418	0.0255	0.6935	-0.048
Mof_H 	H 	0.2412	0.748	0.0822	0.062
Mof_H 	H 	0.0977	0.8348	0.0803	-0.028
Mof_H 	H 	0.8703	0.6398	0.9417	-0.048
Mof_H 	H 	0.002	0.5471	0.9411	0.078
Mof_H 	H 	0.4561	0.9755	0.0882	0.036
Mof_H 	H 	0.3645	0.1077	0.086	-0.056
Mof_H 	H 	0.254	0.8669	0.9154	-0.043
Mof_H 	H 	0.1815	0.9967	0.9108	-0.041
Mof_C 	C 	0.2149	0.6591	0.2575	0.078
Mof_C 	C 	0.3048	0.713	0.3152	0.013
Mof_C 	C 	0.288	0.7776	0.3529	-0.125
Mof_C 	C 	0.372	0.825	0.4072	0.068
Mof_C 	C 	0.499	0.7418	0.3862	0.039
Mof_C 	C 	0.4159	0.6927	0.331	-0.104
Mof_C 	C 	0.9857	0.6474	0.4511	0.082
Mof_C 	C 	0.9	0.5475	0.4453	0.052
Mof_C 	C 	0.827	0.5365	0.4874	-0.132
Mof_C 	C 	0.748	0.452	0.4837	0.061
Mof_C 	C 	0.8846	0.467	0.4067	-0.176
Mof_C 	C 	0.799	0.3808	0.4023	0.119
Mof_C 	C 	0.6875	0.6747	0.2455	0.065
Mof_C 	C 	0.7063	0.7602	0.2915	0.02
Mof_C 	C 	0.78	0.7735	0.3502	-0.151
Mof_C 	C 	0.7989	0.8613	0.3904	0.095
Mof_C 	C 	0.641	0.8347	0.2768	-0.149
Mof_C 	C 	0.683	0.9193	0.3184	0.085
Mof_C 	C 	0.7789	0.4238	0.9901	0.087
Mof_C 	C 	0.8648	0.3595	0.9853	0.051
Mof_C 	C 	0.835	0.2763	0.9463	-0.143
Mof_C 	C 	0.922	0.2238	0.9484	0.062
Mof_C 	C 	0.0545	0.3375	0.0287	0.096
Mof_C 	C 	0.9771	0.3944	0.03	-0.181
Mof_C 	C 	0.576	0.1758	0.003	0.095
Mof_C 	C 	0.637	0.0912	0.9982	0.002
Mof_C 	C 	0.602	0.0215	0.947	-0.111
Mof_C 	C 	0.658	0.9428	0.9484	0.043
Mof_C 	C 	0.721	0.0832	0.0497	-0.091
Mof_C 	C 	0.768	0.01	0.0518	0.039
Mof_C 	C 	0.7851	0.3409	0.7425	0.078
Mof_C 	C 	0.6952	0.287	0.6848	0.013
Mof_C 	C 	0.712	0.2224	0.6471	-0.125
Mof_C 	C 	0.628	0.175	0.5928	0.068
Mof_C 	C 	0.501	0.2582	0.6138	0.039
Mof_C 	C 	0.5841	0.3073	0.669	-0.104
Mof_C 	C 	0.0143	0.3526	0.5489	0.082
Mof_C 	C 	0.1	0.4525	0.5547	0.052
Mof_C 	C 	0.173	0.4635	0.5126	-0.132
Mof_C 	C 	0.252	0.548	0.5163	0.061
Mof_C 	C 	0.1154	0.533	0.5933	-0.176
Mof_C 	C 	0.201	0.6192	0.5977	0.119
Mof_C 	C 	0.3125	0.3253	0.7545	0.065
Mof_C 	C 	0.2937	0.2398	0.7085	0.02
Mof_C 	C 	0.22	0.2265	0.6498	-0.151
Mof_C 	C 	0.2011	0.1387	0.6096	0.095
Mof_C 	C 	0.359	0.1653	0.7232	-0.149
Mof_C 	C 	0.317	0.0807	0.6816	0.085
Mof_C 	C 	0.2211	0.5762	0.0099	0.087
Mof_C 	C 	0.1352	0.6405	0.0147	0.051
Mof_C 	C 	0.165	0.7237	0.0537	-0.143
Mof_C 	C 	0.078	0.7762	0.0516	0.062
Mof_C 	C 	0.9455	0.6625	0.9713	0.096
Mof_C 	C 	0.0229	0.6056	0.97	-0.181
Mof_C 	C 	0.424	0.8242	0.997	0.095
Mof_C 	C 	0.363	0.9088	0.0018	0.002
Mof_C 	C 	0.398	0.9785	0.053	-0.111
Mof_C 	C 	0.342	0.0572	0.0516	0.043
Mof_C 	C 	0.279	0.9168	0.9503	-0.091
Mof_C 	C 	0.232	0.99	0.9482	0.039
Mof_N 	N 	0.2424	0.6196	0.2067	-0.166
Mof_N 	N 	0.1337	0.572	0.164	-0.084
Mof_N 	N 	0.0481	0.583	0.1896	-0.104
Mof_N 	N 	0.4772	0.8104	0.4263	-0.143
Mof_N 	N 	0.0259	0.6856	0.4062	-0.159
Mof_N 	N 	0.1005	0.7765	0.4339	-0.078
Mof_N 	N 	0.0971	0.7929	0.4911	-0.127
Mof_N 	N 	0.0222	0.7135	0.5043	-0.113
Mof_N 	N 	0.7389	0.3692	0.4385	-0.159
Mof_N 	N 	0.7774	0.6315	0.2428	-0.165
Mof_N 	N 	0.734	0.5614	0.1927	-0.149
Mof_N 	N 	0.621	0.5595	0.1661	-0.153
Mof_N 	N 	0.5899	0.6309	0.1976	-0.178
Mof_N 	N 	0.7553	0.9319	0.3754	-0.221
Mof_N 	N 	0.7826	0.4814	0.0391	-0.146
Mof_N 	N 	0.698	0.5215	0.0215	-0.13
Mof_N 	N 	0.6386	0.4901	0.9657	-0.126
Mof_N 	N 	0.6882	0.4227	0.9406	-0.148
Mof_N 	N 	0.0339	0.2543	0.99	-0.225
Mof_N 	N 	0.6008	0.2482	0.0516	-0.261
Mof_N 	N 	0.5294	0.3027	0.0306	-0.138
Mof_N 	N 	0.4603	0.2661	0.9742	-0.131
Mof_N 	N 	0.492	0.1859	0.9528	-0.118
Mof_N 	N 	0.746	0.9418	0.001	-0.202
Mof_N 	N 	0.0985	0.6339	0.2459	-0.166
Mof_N 	N 	0.7576	0.3804	0.7933	-0.166
Mof_N 	N 	0.8663	0.428	0.836	-0.084
Mof_N 	N 	0.9519	0.417	0.8104	-0.104
Mof_N 	N 	0.5228	0.1896	0.5737	-0.143
Mof_N 	N 	0.9741	0.3144	0.5938	-0.159
Mof_N 	N 	0.8995	0.2235	0.5661	-0.078
Mof_N 	N 	0.9029	0.2071	0.5089	-0.127
Mof_N 	N 	0.9778	0.2865	0.4957	-0.113
Mof_N 	N 	0.2611	0.6308	0.5615	-0.159
Mof_N 	N 	0.2226	0.3685	0.7572	-0.165
Mof_N 	N 	0.266	0.4386	0.8073	-0.149
Mof_N 	N 	0.379	0.4405	0.8339	-0.153
Mof_N 	N 	0.4101	0.3691	0.8024	-0.178
Mof_N 	N 	0.2447	0.0681	0.6246	-0.221
Mof_N 	N 	0.2174	0.5186	0.9609	-0.146
Mof_N 	N 	0.302	0.4785	0.9785	-0.13
Mof_N 	N 	0.3614	0.5099	0.0343	-0.126
Mof_N 	N 	0.3118	0.5773	0.0594	-0.148
Mof_N 	N 	0.9661	0.7457	0.01	-0.225
Mof_N 	N 	0.3992	0.7518	0.9484	-0.261
Mof_N 	N 	0.4706	0.6973	0.9694	-0.138
Mof_N 	N 	0.5397	0.7339	0.0258	-0.131
Mof_N 	N 	0.508	0.8141	0.0472	-0.118
Mof_N 	N 	0.254	0.0582	0.999	-0.202
Mof_N 	N 	0.9015	0.3661	0.7541	-0.166
_end
