data_functionalizedCrystal
_audit_creation_method	'EQeq! by Chris Wilmer'
_symmetry_space_group_name_H-M	'P1'
_symmetry_Int_Tables_number	1
_symmetry_cell_setting	triclinic
loop_
_symmetry_equiv_pos_as_xyz
  x,y,z
_cell_length_a	9.0968
_cell_length_b	9.6763
_cell_length_c	11.5065
_cell_angle_alpha	106.914
_cell_angle_beta	93.967
_cell_angle_gamma	108.27
loop_
_atom_site_label
_atom_site_type_symbol
_atom_site_fract_x
_atom_site_fract_y
_atom_site_fract_z
_atom_site_charge
Mof_Eu	Eu	0.27846	0.02824	0.99159	2.182
Mof_O 	O 	0.419	0.8872	0.0472	-0.661
Mof_O 	O 	0.9128	0.2279	0.0793	-0.514
Mof_O 	O 	0.1209	0.9889	0.7914	-0.43
Mof_O 	O 	0.1344	0.181	0.0457	-0.635
Mof_O 	O 	0.5732	0.7603	0.0771	-0.498
Mof_O 	O 	0.3041	0.8842	0.786	-0.455
Mof_C 	C 	0.0124	0.836	0.534	0.122
Mof_C 	C 	0.1819	0.6923	0.5381	0.1
Mof_C 	C 	0.126	0.6094	0.4136	-0.208
Mof_C 	C 	0.2867	0.5004	0.0686	0.042
Mof_C 	C 	0.1235	0.8067	0.5988	-0.164
Mof_N 	N 	0.0881	0.5524	0.1449	-0.038
Mof_N 	N 	0.1897	0.6891	0.1446	-0.084
Mof_C 	C 	0.0579	0.2697	0.0757	0.497
Mof_C 	C 	0.144	0.4362	0.0987	-0.109
Mof_C 	C 	0.3104	0.655	0.0981	-0.077
Mof_C 	C 	0.0155	0.6432	0.3462	0.167
Mof_C 	C 	0.9587	0.5585	0.211	-0.144
Mof_C 	C 	0.1879	0.9	0.7315	0.351
Mof_C 	C 	0.9588	0.7566	0.4082	-0.234
Mof_C 	C 	0.4423	0.7748	0.0737	0.418
Mof_H 	H 	0.187	0.556	0.383	0.11
Mof_H 	H 	0.258	0.648	0.575	-0.002
Mof_H 	H 	0.925	0.865	0.583	-0.011
Mof_H 	H 	0.898	0.784	0.358	0.109
Mof_H 	H 	0.872	0.462	0.194	0.088
Mof_H 	H 	0.89	0.622	0.18	0.059
Mof_H 	H 	0.352	0.445	0.034	0.019
Mof_Eu	Eu	0.72154	0.97176	0.00841	2.182
Mof_O 	O 	0.581	0.1128	0.9528	-0.661
Mof_O 	O 	0.0872	0.7721	0.9207	-0.514
Mof_O 	O 	0.8791	0.0111	0.2086	-0.43
Mof_O 	O 	0.8656	0.819	0.9543	-0.635
Mof_O 	O 	0.4268	0.2397	0.9229	-0.498
Mof_O 	O 	0.6959	0.1158	0.214	-0.455
Mof_C 	C 	0.9876	0.164	0.466	0.122
Mof_C 	C 	0.8181	0.3077	0.4619	0.1
Mof_C 	C 	0.874	0.3906	0.5864	-0.208
Mof_C 	C 	0.7133	0.4996	0.9314	0.042
Mof_C 	C 	0.8765	0.1933	0.4012	-0.164
Mof_N 	N 	0.9119	0.4476	0.8551	-0.038
Mof_N 	N 	0.8103	0.3109	0.8554	-0.084
Mof_C 	C 	0.9421	0.7303	0.9243	0.497
Mof_C 	C 	0.856	0.5638	0.9013	-0.109
Mof_C 	C 	0.6896	0.345	0.9019	-0.077
Mof_C 	C 	0.9845	0.3568	0.6538	0.167
Mof_C 	C 	0.0413	0.4415	0.789	-0.144
Mof_C 	C 	0.8121	0.1	0.2685	0.351
Mof_C 	C 	0.0412	0.2434	0.5918	-0.234
Mof_C 	C 	0.5577	0.2252	0.9263	0.418
Mof_H 	H 	0.813	0.444	0.617	0.11
Mof_H 	H 	0.742	0.352	0.425	-0.002
Mof_H 	H 	0.075	0.135	0.417	-0.011
Mof_H 	H 	0.102	0.216	0.642	0.109
Mof_H 	H 	0.128	0.538	0.806	0.088
Mof_H 	H 	0.11	0.378	0.82	0.059
Mof_H 	H 	0.648	0.555	0.966	0.019
_end
