data_functionalizedCrystal
_audit_creation_method	'EQeq! by Chris Wilmer'
_symmetry_space_group_name_H-M	'P1'
_symmetry_Int_Tables_number	1
_symmetry_cell_setting	triclinic
loop_
_symmetry_equiv_pos_as_xyz
  x,y,z
_cell_length_a	17.3974
_cell_length_b	11.6453
_cell_length_c	18.375
_cell_angle_alpha	90
_cell_angle_beta	110.319
_cell_angle_gamma	90
loop_
_atom_site_label
_atom_site_type_symbol
_atom_site_fract_x
_atom_site_fract_y
_atom_site_fract_z
_atom_site_charge
Mof_Gd	Gd	0.99877	0.58356	0.59425	1.798
Mof_Gd	Gd	0.50253	0.93123	0.39947	1.829
Mof_S 	S 	0.75579	0.79396	0.38899	0.077
Mof_S 	S 	0.74986	0.70412	0.58934	0.068
Mof_S 	S 	0.73507	0.22755	0.44019	0.082
Mof_O 	O 	0.59578	0.9194	0.33596	-0.504
Mof_O 	O 	0.88271	0.3148	0.41234	-0.448
Mof_C 	C 	0.8833	0.6117	0.7057	0.467
Mof_O 	O 	0.6055	0.8118	0.48312	-0.459
Mof_O 	O 	0.91653	0.6801	0.4791	-0.488
Mof_C 	C 	0.7981	0.339	0.4874	-0.124
Mof_C 	C 	0.813	0.6928	0.6845	-0.161
Mof_C 	C 	0.6088	0.1633	0.4932	0.472
Mof_C 	C 	0.8061	0.745	0.2766	-0.013
Mof_H 	H 	0.8363	0.7146	0.2482	0.044
Mof_C 	C 	0.7899	0.7649	0.7325	0.011
Mof_H 	H 	0.8173	0.77	0.7857	0.033
Mof_O 	O 	0.59683	0.9637	0.21825	-0.519
Mof_O 	O 	0.57689	0.9325	0.56289	-0.522
Mof_C 	C 	0.6202	0.853	0.55	0.417
Mof_O 	O 	0.5903	0.0909	0.4395	-0.478
Mof_O 	O 	0.91952	0.4463	0.50394	-0.531
Mof_C 	C 	0.691	0.8061	0.6134	-0.124
Mof_C 	C 	0.6759	0.2445	0.4978	-0.146
Mof_C 	C 	0.7737	0.3879	0.5426	-0.015
Mof_H 	H 	0.7997	0.4502	0.5727	0.049
Mof_C 	C 	0.8962	0.6616	0.4079	0.45
Mof_O 	O 	0.57757	0.1744	0.54478	-0.506
Mof_C 	C 	0.8254	0.7276	0.355	-0.129
Mof_C 	C 	0.702	0.8461	0.2975	-0.162
Mof_C 	C 	0.7361	0.8137	0.2438	0.014
Mof_H 	H 	0.7153	0.8347	0.1918	0.017
Mof_C 	C 	0.7038	0.3326	0.549	0.015
Mof_H 	H 	0.6794	0.3544	0.5846	0.027
Mof_C 	C 	0.7198	0.8305	0.6914	-0.015
Mof_H 	H 	0.6959	0.884	0.7146	0.049
Mof_O 	O 	0.89851	0.5653	0.64898	-0.494
Mof_O 	O 	0.92125	0.592	0.77493	-0.493
Mof_O 	O 	0.9293	0.5925	0.37504	-0.462
Mof_C 	C 	0.6258	0.9137	0.2832	0.471
Mof_C 	C 	0.8701	0.3684	0.4666	0.404
Mof_Gd	Gd	0.00123	0.58356	0.90575	1.786
Mof_Gd	Gd	0.49747	0.93123	0.10053	1.828
Mof_S 	S 	0.24421	0.79396	0.11101	0.078
Mof_S 	S 	0.25014	0.70412	0.91066	0.068
Mof_S 	S 	0.26493	0.22755	0.05981	0.082
Mof_O 	O 	0.40422	0.9194	0.16404	-0.504
Mof_O 	O 	0.11729	0.3148	0.08766	-0.447
Mof_C 	C 	0.1167	0.6117	0.7943	0.467
Mof_O 	O 	0.3945	0.8118	0.01688	-0.459
Mof_O 	O 	0.08347	0.6801	0.0209	-0.484
Mof_C 	C 	0.2019	0.339	0.0126	-0.121
Mof_C 	C 	0.187	0.6928	0.8155	-0.161
Mof_C 	C 	0.3912	0.1633	0.0068	0.473
Mof_C 	C 	0.1939	0.745	0.2234	-0.013
Mof_H 	H 	0.1637	0.7146	0.2518	0.045
Mof_C 	C 	0.2101	0.7649	0.7675	0.011
Mof_H 	H 	0.1827	0.77	0.7143	0.033
Mof_O 	O 	0.40317	0.9637	0.28175	-0.519
Mof_O 	O 	0.42311	0.9325	0.93711	-0.522
Mof_C 	C 	0.3798	0.853	0.95	0.416
Mof_O 	O 	0.4097	0.0909	0.0605	-0.478
Mof_O 	O 	0.08048	0.4463	0.99606	-0.535
Mof_C 	C 	0.309	0.8061	0.8866	-0.123
Mof_C 	C 	0.3241	0.2445	0.0022	-0.144
Mof_C 	C 	0.2263	0.3879	0.9574	-0.019
Mof_H 	H 	0.2003	0.4502	0.9273	0.05
Mof_C 	C 	0.1038	0.6616	0.0921	0.449
Mof_O 	O 	0.42243	0.1744	0.95522	-0.507
Mof_C 	C 	0.1746	0.7276	0.145	-0.128
Mof_C 	C 	0.298	0.8461	0.2025	-0.162
Mof_C 	C 	0.2639	0.8137	0.2562	0.015
Mof_H 	H 	0.2847	0.8347	0.3082	0.018
Mof_C 	C 	0.2962	0.3326	0.951	0.013
Mof_H 	H 	0.3206	0.3544	0.9154	0.028
Mof_C 	C 	0.2802	0.8305	0.8086	-0.016
Mof_H 	H 	0.3041	0.884	0.7854	0.049
Mof_O 	O 	0.10149	0.5653	0.85102	-0.494
Mof_O 	O 	0.07875	0.592	0.72507	-0.496
Mof_O 	O 	0.0707	0.5925	0.12496	-0.458
Mof_C 	C 	0.3742	0.9137	0.2168	0.471
Mof_C 	C 	0.1299	0.3684	0.0334	0.407
Mof_Gd	Gd	0.00123	0.41644	0.40574	1.799
Mof_Gd	Gd	0.49747	0.06877	0.60053	1.83
Mof_S 	S 	0.24421	0.20604	0.61101	0.078
Mof_S 	S 	0.25014	0.29588	0.41066	0.069
Mof_S 	S 	0.26493	0.77245	0.55981	0.082
Mof_O 	O 	0.40422	0.0806	0.66404	-0.504
Mof_O 	O 	0.11729	0.6852	0.58766	-0.448
Mof_C 	C 	0.1167	0.3883	0.2943	0.467
Mof_O 	O 	0.3945	0.1882	0.51688	-0.459
Mof_O 	O 	0.08347	0.3199	0.5209	-0.488
Mof_C 	C 	0.2019	0.661	0.5126	-0.124
Mof_C 	C 	0.187	0.3072	0.3155	-0.161
Mof_C 	C 	0.3912	0.8367	0.5068	0.472
Mof_C 	C 	0.1939	0.255	0.7234	-0.013
Mof_H 	H 	0.1637	0.2854	0.7518	0.044
Mof_C 	C 	0.2101	0.2351	0.2675	0.011
Mof_H 	H 	0.1827	0.23	0.2143	0.033
Mof_O 	O 	0.40317	0.0363	0.78175	-0.519
Mof_O 	O 	0.42311	0.0675	0.43711	-0.522
Mof_C 	C 	0.3798	0.147	0.45	0.417
Mof_O 	O 	0.4097	0.9091	0.5605	-0.478
Mof_O 	O 	0.08048	0.5537	0.49606	-0.531
Mof_C 	C 	0.309	0.1939	0.3866	-0.124
Mof_C 	C 	0.3241	0.7555	0.5022	-0.146
Mof_C 	C 	0.2263	0.6121	0.4574	-0.015
Mof_H 	H 	0.2003	0.5498	0.4273	0.049
Mof_C 	C 	0.1038	0.3384	0.5921	0.45
Mof_O 	O 	0.42243	0.8256	0.45522	-0.506
Mof_C 	C 	0.1746	0.2724	0.645	-0.129
Mof_C 	C 	0.298	0.1539	0.7025	-0.162
Mof_C 	C 	0.2639	0.1863	0.7562	0.014
Mof_H 	H 	0.2847	0.1653	0.8082	0.017
Mof_C 	C 	0.2962	0.6674	0.451	0.015
Mof_H 	H 	0.3206	0.6456	0.4154	0.027
Mof_C 	C 	0.2802	0.1695	0.3086	-0.015
Mof_H 	H 	0.3041	0.116	0.2854	0.049
Mof_O 	O 	0.10149	0.4347	0.35102	-0.494
Mof_O 	O 	0.07875	0.408	0.22507	-0.493
Mof_O 	O 	0.0707	0.4075	0.62496	-0.462
Mof_C 	C 	0.3742	0.0863	0.7168	0.471
Mof_C 	C 	0.1299	0.6316	0.5334	0.404
Mof_Gd	Gd	0.99877	0.41644	0.09425	1.786
Mof_Gd	Gd	0.50253	0.06877	0.89947	1.828
Mof_S 	S 	0.75579	0.20604	0.88899	0.078
Mof_S 	S 	0.74986	0.29588	0.08934	0.068
Mof_S 	S 	0.73507	0.77245	0.94019	0.082
Mof_O 	O 	0.59578	0.0806	0.83596	-0.504
Mof_O 	O 	0.88271	0.6852	0.91234	-0.447
Mof_C 	C 	0.8833	0.3883	0.2057	0.467
Mof_O 	O 	0.6055	0.1882	0.98312	-0.459
Mof_O 	O 	0.91653	0.3199	0.9791	-0.484
Mof_C 	C 	0.7981	0.661	0.9874	-0.121
Mof_C 	C 	0.813	0.3072	0.1845	-0.161
Mof_C 	C 	0.6088	0.8367	0.9932	0.473
Mof_C 	C 	0.8061	0.255	0.7766	-0.013
Mof_H 	H 	0.8363	0.2854	0.7482	0.045
Mof_C 	C 	0.7899	0.2351	0.2325	0.011
Mof_H 	H 	0.8173	0.23	0.2857	0.033
Mof_O 	O 	0.59683	0.0363	0.71825	-0.519
Mof_O 	O 	0.57689	0.0675	0.06289	-0.522
Mof_C 	C 	0.6202	0.147	0.05	0.416
Mof_O 	O 	0.5903	0.9091	0.9395	-0.478
Mof_O 	O 	0.91952	0.5537	0.00394	-0.535
Mof_C 	C 	0.691	0.1939	0.1134	-0.123
Mof_C 	C 	0.6759	0.7555	0.9978	-0.144
Mof_C 	C 	0.7737	0.6121	0.0426	-0.019
Mof_H 	H 	0.7997	0.5498	0.0727	0.05
Mof_C 	C 	0.8962	0.3384	0.9079	0.449
Mof_O 	O 	0.57757	0.8256	0.04478	-0.507
Mof_C 	C 	0.8254	0.2724	0.855	-0.128
Mof_C 	C 	0.702	0.1539	0.7975	-0.162
Mof_C 	C 	0.7361	0.1863	0.7438	0.015
Mof_H 	H 	0.7153	0.1653	0.6918	0.018
Mof_C 	C 	0.7038	0.6674	0.049	0.013
Mof_H 	H 	0.6794	0.6456	0.0846	0.028
Mof_C 	C 	0.7198	0.1695	0.1914	-0.016
Mof_H 	H 	0.6959	0.116	0.2146	0.049
Mof_O 	O 	0.89851	0.4347	0.14898	-0.494
Mof_O 	O 	0.92125	0.408	0.27493	-0.496
Mof_O 	O 	0.9293	0.4075	0.87504	-0.458
Mof_C 	C 	0.6258	0.0863	0.7832	0.471
Mof_C 	C 	0.8701	0.6316	0.9666	0.407
_end
