data_functionalizedCrystal
_audit_creation_method	'EQeq! by Chris Wilmer'
_symmetry_space_group_name_H-M	'P1'
_symmetry_Int_Tables_number	1
_symmetry_cell_setting	triclinic
loop_
_symmetry_equiv_pos_as_xyz
  x,y,z
_cell_length_a	35.067
_cell_length_b	24.035
_cell_length_c	26.081
_cell_angle_alpha	90
_cell_angle_beta	132.068
_cell_angle_gamma	90
loop_
_atom_site_label
_atom_site_type_symbol
_atom_site_fract_x
_atom_site_fract_y
_atom_site_fract_z
_atom_site_charge
Mof_Gd	Gd	0.40547	0.23478	0.39978	1.684
Mof_Gd	Gd	0.24023	0.26517	0.26238	1.678
Mof_O 	O 	0.3572	0.1769	0.4092	-0.495
Mof_O 	O 	0.2728	0.1917	0.3402	-0.503
Mof_O 	O 	0.3432	0.7975	0.7859	-0.478
Mof_O 	O 	0.2551	0.8008	0.7144	-0.475
Mof_O 	O 	0.3728	0.3103	0.327	-0.486
Mof_O 	O 	0.2858	0.3186	0.245	-0.489
Mof_O 	O 	0.3863	0.7043	0.9513	-0.532
Mof_O 	O 	0.3032	0.6955	0.8668	-0.482
Mof_O 	O 	0.4409	0.1438	0.4066	-0.41
Mof_O 	O 	0.453	0.2108	0.367	-0.467
Mof_O 	O 	0.6967	0.8506	0.2488	-0.399
Mof_O 	O 	0.6991	0.784	0.3125	-0.358
Mof_C 	C 	0.3124	0.1656	0.3845	0.518
Mof_C 	C 	0.3108	0.1208	0.4231	-0.242
Mof_C 	C 	0.3019	0.8507	0.6879	-0.178
Mof_C 	C 	0.2674	0.1145	0.4133	0.149
Mof_H 	H 	0.23898	0.13709	0.38176	-0.013
Mof_C 	C 	0.3493	0.0834	0.4655	0.17
Mof_H 	H 	0.37908	0.08744	0.47288	-0.022
Mof_C 	C 	0.2656	0.0747	0.4504	-0.212
Mof_H 	H 	0.23723	0.07469	0.44642	0.108
Mof_C 	C 	0.3474	0.0421	0.4965	-0.215
Mof_H 	H 	0.37395	0.01628	0.52182	0.108
Mof_C 	C 	0.302	0.0364	0.4912	0.131
Mof_C 	C 	0.303	0.9955	0.5302	-0.051
Mof_C 	C 	0.3002	0.9616	0.5607	-0.036
Mof_C 	C 	0.2535	0.9083	0.5833	-0.183
Mof_H 	H 	0.22199	0.92222	0.54396	0.095
Mof_C 	C 	0.3444	0.9022	0.658	-0.174
Mof_H 	H 	0.37481	0.911	0.66869	0.095
Mof_C 	C 	0.2979	0.9227	0.5984	0.116
Mof_C 	C 	0.2561	0.8732	0.6267	0.102
Mof_H 	H 	0.2255	0.86339	0.61505	-0.003
Mof_C 	C 	0.345	0.8677	0.7023	0.101
Mof_H 	H 	0.37659	0.85612	0.74352	0.013
Mof_C 	C 	0.3022	0.8122	0.7344	0.441
Mof_C 	C 	0.331	0.3316	0.2713	0.493
Mof_C 	C 	0.3368	0.3703	0.2338	-0.273
Mof_C 	C 	0.2928	0.3925	0.173	0.16
Mof_H 	H 	0.26101	0.38211	0.15761	-0.019
Mof_C 	C 	0.3806	0.388	0.252	0.215
Mof_H 	H 	0.41068	0.37385	0.29331	-0.039
Mof_C 	C 	0.2948	0.4317	0.1328	-0.242
Mof_H 	H 	0.26551	0.45037	0.09547	0.119
Mof_C 	C 	0.3861	0.4228	0.219	-0.257
Mof_H 	H 	0.41804	0.43594	0.23707	0.117
Mof_C 	C 	0.3377	0.4395	0.15	0.158
Mof_C 	C 	0.3483	0.4825	0.117	-0.04
Mof_C 	C 	0.347	0.5138	0.0803	-0.062
Mof_C 	C 	0.3449	0.5559	0.0397	0.159
Mof_C 	C 	0.3025	0.5681	0.975	-0.243
Mof_H 	H 	0.27251	0.54822	0.954	0.12
Mof_C 	C 	0.3908	0.5832	0.0684	-0.227
Mof_H 	H 	0.4211	0.57326	0.1122	0.106
Mof_C 	C 	0.3024	0.6094	0.938	0.177
Mof_H 	H 	0.27163	0.61951	0.89484	-0.016
Mof_C 	C 	0.3916	0.6244	0.0324	0.167
Mof_H 	H 	0.42164	0.6445	0.05373	-0.029
Mof_C 	C 	0.3477	0.6362	0.9644	-0.273
Mof_C 	C 	0.348	0.6805	0.9279	0.534
Mof_C 	C 	0.4613	0.1654	0.3848	0.392
Mof_C 	C 	0.4831	0.1202	0.3687	-0.143
Mof_C 	C 	0.5058	0.1385	0.343	0.055
Mof_H 	H 	0.50309	0.17593	0.33143	0.019
Mof_C 	C 	0.4863	0.0669	0.3814	0.069
Mof_H 	H 	0.47164	0.05471	0.39863	0.019
Mof_C 	C 	0.5313	0.104	0.333	-0.141
Mof_H 	H 	0.54889	0.11802	0.32043	0.08
Mof_C 	C 	0.5099	0.026	0.3716	-0.145
Mof_H 	H 	0.51212	0.98884	0.38338	0.079
Mof_C 	C 	0.5302	0.0459	0.3422	0.082
Mof_C 	C 	0.5599	0.0114	0.3353	-0.039
Mof_C 	C 	0.5795	0.978	0.3255	-0.021
Mof_C 	C 	0.6035	0.9396	0.3116	0.06
Mof_C 	C 	0.6218	0.8896	0.3444	-0.103
Mof_H 	H 	0.61534	0.87794	0.372	0.07
Mof_C 	C 	0.6169	0.9588	0.2737	-0.107
Mof_H 	H 	0.60953	0.99517	0.25732	0.074
Mof_C 	C 	0.6505	0.8552	0.3369	0.002
Mof_H 	H 	0.66354	0.82115	0.3594	0.044
Mof_C 	C 	0.6408	0.9229	0.2616	0.014
Mof_H 	H 	0.64439	0.93267	0.23051	0.036
Mof_C 	C 	0.6586	0.8745	0.2944	-0.065
Mof_C 	C 	0.6854	0.8314	0.2821	0.264
Mof_Gd	Gd	0.90547	0.73478	0.39978	1.683
Mof_Gd	Gd	0.74023	0.76517	0.26238	1.677
Mof_O 	O 	0.8572	0.6769	0.4092	-0.496
Mof_O 	O 	0.7728	0.6917	0.3402	-0.504
Mof_O 	O 	0.8432	0.2975	0.7859	-0.479
Mof_O 	O 	0.7551	0.3008	0.7144	-0.476
Mof_O 	O 	0.8728	0.8103	0.327	-0.487
Mof_O 	O 	0.7858	0.8186	0.245	-0.49
Mof_O 	O 	0.8863	0.2043	0.9513	-0.532
Mof_O 	O 	0.8032	0.1955	0.8668	-0.482
Mof_O 	O 	0.9409	0.6438	0.4066	-0.41
Mof_O 	O 	0.953	0.7108	0.367	-0.467
Mof_O 	O 	0.1967	0.3506	0.2488	-0.399
Mof_O 	O 	0.1991	0.284	0.3125	-0.358
Mof_C 	C 	0.8124	0.6656	0.3845	0.518
Mof_C 	C 	0.8108	0.6208	0.4231	-0.242
Mof_C 	C 	0.8019	0.3507	0.6879	-0.178
Mof_C 	C 	0.7674	0.6145	0.4133	0.149
Mof_H 	H 	0.73898	0.63709	0.38176	-0.013
Mof_C 	C 	0.8493	0.5834	0.4655	0.17
Mof_H 	H 	0.87908	0.58744	0.47288	-0.022
Mof_C 	C 	0.7656	0.5747	0.4504	-0.212
Mof_H 	H 	0.73723	0.57469	0.44642	0.108
Mof_C 	C 	0.8474	0.5421	0.4965	-0.215
Mof_H 	H 	0.87395	0.51628	0.52182	0.108
Mof_C 	C 	0.802	0.5364	0.4912	0.131
Mof_C 	C 	0.803	0.4955	0.5302	-0.051
Mof_C 	C 	0.8002	0.4616	0.5607	-0.036
Mof_C 	C 	0.7535	0.4083	0.5833	-0.183
Mof_H 	H 	0.72199	0.42222	0.54396	0.095
Mof_C 	C 	0.8444	0.4022	0.658	-0.174
Mof_H 	H 	0.87481	0.411	0.66869	0.095
Mof_C 	C 	0.7979	0.4227	0.5984	0.116
Mof_C 	C 	0.7561	0.3732	0.6267	0.102
Mof_H 	H 	0.7255	0.36339	0.61505	-0.003
Mof_C 	C 	0.845	0.3677	0.7023	0.101
Mof_H 	H 	0.87659	0.35612	0.74352	0.013
Mof_C 	C 	0.8022	0.3122	0.7344	0.441
Mof_C 	C 	0.831	0.8316	0.2713	0.493
Mof_C 	C 	0.8368	0.8703	0.2338	-0.273
Mof_C 	C 	0.7928	0.8925	0.173	0.16
Mof_H 	H 	0.76101	0.88211	0.15761	-0.019
Mof_C 	C 	0.8806	0.888	0.252	0.215
Mof_H 	H 	0.91068	0.87385	0.29331	-0.039
Mof_C 	C 	0.7948	0.9317	0.1328	-0.242
Mof_H 	H 	0.76551	0.95037	0.09547	0.119
Mof_C 	C 	0.8861	0.9228	0.219	-0.257
Mof_H 	H 	0.91804	0.93594	0.23707	0.117
Mof_C 	C 	0.8377	0.9395	0.15	0.158
Mof_C 	C 	0.8483	0.9825	0.117	-0.04
Mof_C 	C 	0.847	0.0138	0.0803	-0.062
Mof_C 	C 	0.8449	0.0559	0.0397	0.16
Mof_C 	C 	0.8025	0.0681	0.975	-0.244
Mof_H 	H 	0.77251	0.04822	0.954	0.12
Mof_C 	C 	0.8908	0.0832	0.0684	-0.228
Mof_H 	H 	0.9211	0.07326	0.1122	0.106
Mof_C 	C 	0.8024	0.1094	0.938	0.178
Mof_H 	H 	0.77163	0.11951	0.89484	-0.016
Mof_C 	C 	0.8916	0.1244	0.0324	0.168
Mof_H 	H 	0.92164	0.1445	0.05373	-0.029
Mof_C 	C 	0.8477	0.1362	0.9644	-0.274
Mof_C 	C 	0.848	0.1805	0.9279	0.534
Mof_C 	C 	0.9613	0.6654	0.3848	0.392
Mof_C 	C 	0.9831	0.6202	0.3687	-0.143
Mof_C 	C 	0.0058	0.6385	0.343	0.055
Mof_H 	H 	0.00309	0.67593	0.33143	0.019
Mof_C 	C 	0.9863	0.5669	0.3814	0.069
Mof_H 	H 	0.97164	0.55471	0.39863	0.019
Mof_C 	C 	0.0313	0.604	0.333	-0.141
Mof_H 	H 	0.04889	0.61802	0.32043	0.08
Mof_C 	C 	0.0099	0.526	0.3716	-0.145
Mof_H 	H 	0.01212	0.48884	0.38338	0.079
Mof_C 	C 	0.0302	0.5459	0.3422	0.082
Mof_C 	C 	0.0599	0.5114	0.3353	-0.04
Mof_C 	C 	0.0795	0.478	0.3255	-0.02
Mof_C 	C 	0.1035	0.4396	0.3116	0.06
Mof_C 	C 	0.1218	0.3896	0.3444	-0.103
Mof_H 	H 	0.11534	0.37794	0.372	0.07
Mof_C 	C 	0.1169	0.4588	0.2737	-0.107
Mof_H 	H 	0.10953	0.49517	0.25732	0.074
Mof_C 	C 	0.1505	0.3552	0.3369	0.002
Mof_H 	H 	0.16354	0.32115	0.3594	0.044
Mof_C 	C 	0.1408	0.4229	0.2616	0.014
Mof_H 	H 	0.14439	0.43267	0.23051	0.037
Mof_C 	C 	0.1586	0.3745	0.2944	-0.065
Mof_C 	C 	0.1854	0.3314	0.2821	0.264
Mof_Gd	Gd	0.40547	0.76522	0.89978	1.683
Mof_Gd	Gd	0.24023	0.73483	0.76238	1.677
Mof_O 	O 	0.3572	0.8231	0.9092	-0.496
Mof_O 	O 	0.2728	0.8083	0.8402	-0.504
Mof_O 	O 	0.3432	0.2025	0.2859	-0.479
Mof_O 	O 	0.2551	0.1992	0.2144	-0.476
Mof_O 	O 	0.3728	0.6897	0.827	-0.487
Mof_O 	O 	0.2858	0.6814	0.745	-0.49
Mof_O 	O 	0.3863	0.2957	0.4513	-0.532
Mof_O 	O 	0.3032	0.3045	0.3668	-0.482
Mof_O 	O 	0.4409	0.8562	0.9066	-0.41
Mof_O 	O 	0.453	0.7892	0.867	-0.466
Mof_O 	O 	0.6967	0.1494	0.7488	-0.399
Mof_O 	O 	0.6991	0.216	0.8125	-0.359
Mof_C 	C 	0.3124	0.8344	0.8845	0.518
Mof_C 	C 	0.3108	0.8792	0.9231	-0.242
Mof_C 	C 	0.3019	0.1493	0.1879	-0.178
Mof_C 	C 	0.2674	0.8855	0.9133	0.149
Mof_H 	H 	0.23898	0.86291	0.88176	-0.013
Mof_C 	C 	0.3493	0.9166	0.9655	0.169
Mof_H 	H 	0.37908	0.91256	0.97288	-0.022
Mof_C 	C 	0.2656	0.9253	0.9504	-0.211
Mof_H 	H 	0.23723	0.92531	0.94642	0.108
Mof_C 	C 	0.3474	0.9579	0.9965	-0.213
Mof_H 	H 	0.37395	0.98372	0.02182	0.107
Mof_C 	C 	0.302	0.9636	0.9912	0.13
Mof_C 	C 	0.303	0.0045	0.0302	-0.051
Mof_C 	C 	0.3002	0.0384	0.0607	-0.036
Mof_C 	C 	0.2535	0.0917	0.0833	-0.183
Mof_H 	H 	0.22199	0.07778	0.04396	0.095
Mof_C 	C 	0.3444	0.0978	0.158	-0.174
Mof_H 	H 	0.37481	0.089	0.16869	0.095
Mof_C 	C 	0.2979	0.0773	0.0984	0.116
Mof_C 	C 	0.2561	0.1268	0.1267	0.102
Mof_H 	H 	0.2255	0.13661	0.11505	-0.003
Mof_C 	C 	0.345	0.1323	0.2023	0.101
Mof_H 	H 	0.37659	0.14388	0.24352	0.013
Mof_C 	C 	0.3022	0.1878	0.2344	0.441
Mof_C 	C 	0.331	0.6684	0.7713	0.493
Mof_C 	C 	0.3368	0.6297	0.7338	-0.273
Mof_C 	C 	0.2928	0.6075	0.673	0.16
Mof_H 	H 	0.26101	0.61789	0.65761	-0.019
Mof_C 	C 	0.3806	0.612	0.752	0.215
Mof_H 	H 	0.41068	0.62615	0.79331	-0.039
Mof_C 	C 	0.2948	0.5683	0.6328	-0.242
Mof_H 	H 	0.26551	0.54963	0.59547	0.119
Mof_C 	C 	0.3861	0.5772	0.719	-0.257
Mof_H 	H 	0.41804	0.56406	0.73707	0.117
Mof_C 	C 	0.3377	0.5605	0.65	0.158
Mof_C 	C 	0.3483	0.5175	0.617	-0.04
Mof_C 	C 	0.347	0.4862	0.5803	-0.062
Mof_C 	C 	0.3449	0.4441	0.5397	0.159
Mof_C 	C 	0.3025	0.4319	0.475	-0.243
Mof_H 	H 	0.27251	0.45178	0.454	0.12
Mof_C 	C 	0.3908	0.4168	0.5684	-0.227
Mof_H 	H 	0.4211	0.42674	0.6122	0.106
Mof_C 	C 	0.3024	0.3906	0.438	0.177
Mof_H 	H 	0.27163	0.38049	0.39484	-0.016
Mof_C 	C 	0.3916	0.3756	0.5324	0.167
Mof_H 	H 	0.42164	0.3555	0.55373	-0.029
Mof_C 	C 	0.3477	0.3638	0.4644	-0.273
Mof_C 	C 	0.348	0.3195	0.4279	0.534
Mof_C 	C 	0.4613	0.8346	0.8848	0.392
Mof_C 	C 	0.4831	0.8798	0.8687	-0.142
Mof_C 	C 	0.5058	0.8615	0.843	0.055
Mof_H 	H 	0.50309	0.82407	0.83143	0.019
Mof_C 	C 	0.4863	0.9331	0.8814	0.068
Mof_H 	H 	0.47164	0.94529	0.89863	0.019
Mof_C 	C 	0.5313	0.896	0.833	-0.14
Mof_H 	H 	0.54889	0.88198	0.82043	0.08
Mof_C 	C 	0.5099	0.974	0.8716	-0.144
Mof_H 	H 	0.51212	0.01116	0.88338	0.079
Mof_C 	C 	0.5302	0.9541	0.8422	0.081
Mof_C 	C 	0.5599	0.9886	0.8353	-0.039
Mof_C 	C 	0.5795	0.022	0.8255	-0.021
Mof_C 	C 	0.6035	0.0604	0.8116	0.061
Mof_C 	C 	0.6218	0.1104	0.8444	-0.103
Mof_H 	H 	0.61534	0.12206	0.872	0.07
Mof_C 	C 	0.6169	0.0412	0.7737	-0.108
Mof_H 	H 	0.60953	0.00483	0.75732	0.074
Mof_C 	C 	0.6505	0.1448	0.8369	0.002
Mof_H 	H 	0.66354	0.17885	0.8594	0.044
Mof_C 	C 	0.6408	0.0771	0.7616	0.014
Mof_H 	H 	0.64439	0.06733	0.73051	0.036
Mof_C 	C 	0.6586	0.1255	0.7944	-0.065
Mof_C 	C 	0.6854	0.1686	0.7821	0.264
Mof_Gd	Gd	0.90547	0.26522	0.89978	1.683
Mof_Gd	Gd	0.74023	0.23483	0.76238	1.677
Mof_O 	O 	0.8572	0.3231	0.9092	-0.496
Mof_O 	O 	0.7728	0.3083	0.8402	-0.504
Mof_O 	O 	0.8432	0.7025	0.2859	-0.479
Mof_O 	O 	0.7551	0.6992	0.2144	-0.476
Mof_O 	O 	0.8728	0.1897	0.827	-0.487
Mof_O 	O 	0.7858	0.1814	0.745	-0.49
Mof_O 	O 	0.8863	0.7957	0.4513	-0.532
Mof_O 	O 	0.8032	0.8045	0.3668	-0.482
Mof_O 	O 	0.9409	0.3562	0.9066	-0.41
Mof_O 	O 	0.953	0.2892	0.867	-0.466
Mof_O 	O 	0.1967	0.6494	0.7488	-0.399
Mof_O 	O 	0.1991	0.716	0.8125	-0.358
Mof_C 	C 	0.8124	0.3344	0.8845	0.518
Mof_C 	C 	0.8108	0.3792	0.9231	-0.242
Mof_C 	C 	0.8019	0.6493	0.1879	-0.178
Mof_C 	C 	0.7674	0.3855	0.9133	0.149
Mof_H 	H 	0.73898	0.36291	0.88176	-0.013
Mof_C 	C 	0.8493	0.4166	0.9655	0.17
Mof_H 	H 	0.87908	0.41256	0.97288	-0.022
Mof_C 	C 	0.7656	0.4253	0.9504	-0.212
Mof_H 	H 	0.73723	0.42531	0.94642	0.108
Mof_C 	C 	0.8474	0.4579	0.9965	-0.215
Mof_H 	H 	0.87395	0.48372	0.02182	0.108
Mof_C 	C 	0.802	0.4636	0.9912	0.131
Mof_C 	C 	0.803	0.5045	0.0302	-0.051
Mof_C 	C 	0.8002	0.5384	0.0607	-0.036
Mof_C 	C 	0.7535	0.5917	0.0833	-0.183
Mof_H 	H 	0.72199	0.57778	0.04396	0.095
Mof_C 	C 	0.8444	0.5978	0.158	-0.174
Mof_H 	H 	0.87481	0.589	0.16869	0.095
Mof_C 	C 	0.7979	0.5773	0.0984	0.116
Mof_C 	C 	0.7561	0.6268	0.1267	0.102
Mof_H 	H 	0.7255	0.63661	0.11505	-0.003
Mof_C 	C 	0.845	0.6323	0.2023	0.101
Mof_H 	H 	0.87659	0.64388	0.24352	0.013
Mof_C 	C 	0.8022	0.6878	0.2344	0.441
Mof_C 	C 	0.831	0.1684	0.7713	0.493
Mof_C 	C 	0.8368	0.1297	0.7338	-0.273
Mof_C 	C 	0.7928	0.1075	0.673	0.16
Mof_H 	H 	0.76101	0.11789	0.65761	-0.019
Mof_C 	C 	0.8806	0.112	0.752	0.215
Mof_H 	H 	0.91068	0.12615	0.79331	-0.039
Mof_C 	C 	0.7948	0.0683	0.6328	-0.242
Mof_H 	H 	0.76551	0.04963	0.59547	0.119
Mof_C 	C 	0.8861	0.0772	0.719	-0.257
Mof_H 	H 	0.91804	0.06406	0.73707	0.117
Mof_C 	C 	0.8377	0.0605	0.65	0.158
Mof_C 	C 	0.8483	0.0175	0.617	-0.04
Mof_C 	C 	0.847	0.9862	0.5803	-0.062
Mof_C 	C 	0.8449	0.9441	0.5397	0.159
Mof_C 	C 	0.8025	0.9319	0.475	-0.243
Mof_H 	H 	0.77251	0.95178	0.454	0.12
Mof_C 	C 	0.8908	0.9168	0.5684	-0.227
Mof_H 	H 	0.9211	0.92674	0.6122	0.106
Mof_C 	C 	0.8024	0.8906	0.438	0.177
Mof_H 	H 	0.77163	0.88049	0.39484	-0.016
Mof_C 	C 	0.8916	0.8756	0.5324	0.167
Mof_H 	H 	0.92164	0.8555	0.55373	-0.029
Mof_C 	C 	0.8477	0.8638	0.4644	-0.273
Mof_C 	C 	0.848	0.8195	0.4279	0.534
Mof_C 	C 	0.9613	0.3346	0.8848	0.392
Mof_C 	C 	0.9831	0.3798	0.8687	-0.143
Mof_C 	C 	0.0058	0.3615	0.843	0.055
Mof_H 	H 	0.00309	0.32407	0.83143	0.019
Mof_C 	C 	0.9863	0.4331	0.8814	0.069
Mof_H 	H 	0.97164	0.44529	0.89863	0.019
Mof_C 	C 	0.0313	0.396	0.833	-0.141
Mof_H 	H 	0.04889	0.38198	0.82043	0.08
Mof_C 	C 	0.0099	0.474	0.8716	-0.145
Mof_H 	H 	0.01212	0.51116	0.88338	0.079
Mof_C 	C 	0.0302	0.4541	0.8422	0.082
Mof_C 	C 	0.0599	0.4886	0.8353	-0.04
Mof_C 	C 	0.0795	0.522	0.8255	-0.02
Mof_C 	C 	0.1035	0.5604	0.8116	0.06
Mof_C 	C 	0.1218	0.6104	0.8444	-0.103
Mof_H 	H 	0.11534	0.62206	0.872	0.07
Mof_C 	C 	0.1169	0.5412	0.7737	-0.107
Mof_H 	H 	0.10953	0.50483	0.75732	0.074
Mof_C 	C 	0.1505	0.6448	0.8369	0.002
Mof_H 	H 	0.16354	0.67885	0.8594	0.044
Mof_C 	C 	0.1408	0.5771	0.7616	0.014
Mof_H 	H 	0.14439	0.56733	0.73051	0.037
Mof_C 	C 	0.1586	0.6255	0.7944	-0.065
Mof_C 	C 	0.1854	0.6686	0.7821	0.264
Mof_Gd	Gd	0.59453	0.23478	0.10022	1.683
Mof_Gd	Gd	0.75977	0.26517	0.23762	1.677
Mof_O 	O 	0.6428	0.1769	0.0908	-0.496
Mof_O 	O 	0.7272	0.1917	0.1598	-0.504
Mof_O 	O 	0.6568	0.7975	0.7141	-0.479
Mof_O 	O 	0.7449	0.8008	0.7856	-0.476
Mof_O 	O 	0.6272	0.3103	0.173	-0.487
Mof_O 	O 	0.7142	0.3186	0.255	-0.49
Mof_O 	O 	0.6137	0.7043	0.5487	-0.532
Mof_O 	O 	0.6968	0.6955	0.6332	-0.482
Mof_O 	O 	0.5591	0.1438	0.0934	-0.41
Mof_O 	O 	0.547	0.2108	0.133	-0.466
Mof_O 	O 	0.3033	0.8506	0.2512	-0.399
Mof_O 	O 	0.3009	0.784	0.1875	-0.359
Mof_C 	C 	0.6876	0.1656	0.1155	0.518
Mof_C 	C 	0.6892	0.1208	0.0769	-0.242
Mof_C 	C 	0.6981	0.8507	0.8121	-0.178
Mof_C 	C 	0.7326	0.1145	0.0867	0.149
Mof_H 	H 	0.76102	0.13709	0.11824	-0.013
Mof_C 	C 	0.6507	0.0834	0.0345	0.169
Mof_H 	H 	0.62092	0.08744	0.02712	-0.022
Mof_C 	C 	0.7344	0.0747	0.0496	-0.211
Mof_H 	H 	0.76277	0.07469	0.05358	0.108
Mof_C 	C 	0.6526	0.0421	0.0035	-0.213
Mof_H 	H 	0.62605	0.01628	0.97818	0.107
Mof_C 	C 	0.698	0.0364	0.0088	0.13
Mof_C 	C 	0.697	0.9955	0.9698	-0.051
Mof_C 	C 	0.6998	0.9616	0.9393	-0.036
Mof_C 	C 	0.7465	0.9083	0.9167	-0.183
Mof_H 	H 	0.77801	0.92222	0.95604	0.095
Mof_C 	C 	0.6556	0.9022	0.842	-0.174
Mof_H 	H 	0.62519	0.911	0.83131	0.095
Mof_C 	C 	0.7021	0.9227	0.9016	0.116
Mof_C 	C 	0.7439	0.8732	0.8733	0.102
Mof_H 	H 	0.7745	0.86339	0.88495	-0.003
Mof_C 	C 	0.655	0.8677	0.7977	0.101
Mof_H 	H 	0.62341	0.85612	0.75648	0.013
Mof_C 	C 	0.6978	0.8122	0.7656	0.441
Mof_C 	C 	0.669	0.3316	0.2287	0.493
Mof_C 	C 	0.6632	0.3703	0.2662	-0.273
Mof_C 	C 	0.7072	0.3925	0.327	0.16
Mof_H 	H 	0.73899	0.38211	0.34239	-0.019
Mof_C 	C 	0.6194	0.388	0.248	0.215
Mof_H 	H 	0.58932	0.37385	0.20669	-0.039
Mof_C 	C 	0.7052	0.4317	0.3672	-0.242
Mof_H 	H 	0.73449	0.45037	0.40453	0.119
Mof_C 	C 	0.6139	0.4228	0.281	-0.257
Mof_H 	H 	0.58196	0.43594	0.26293	0.117
Mof_C 	C 	0.6623	0.4395	0.35	0.158
Mof_C 	C 	0.6517	0.4825	0.383	-0.04
Mof_C 	C 	0.653	0.5138	0.4197	-0.062
Mof_C 	C 	0.6551	0.5559	0.4603	0.159
Mof_C 	C 	0.6975	0.5681	0.525	-0.243
Mof_H 	H 	0.72749	0.54822	0.546	0.12
Mof_C 	C 	0.6092	0.5832	0.4316	-0.227
Mof_H 	H 	0.5789	0.57326	0.3878	0.106
Mof_C 	C 	0.6976	0.6094	0.562	0.177
Mof_H 	H 	0.72837	0.61951	0.60516	-0.016
Mof_C 	C 	0.6084	0.6244	0.4676	0.167
Mof_H 	H 	0.57836	0.6445	0.44627	-0.029
Mof_C 	C 	0.6523	0.6362	0.5356	-0.273
Mof_C 	C 	0.652	0.6805	0.5721	0.534
Mof_C 	C 	0.5387	0.1654	0.1152	0.392
Mof_C 	C 	0.5169	0.1202	0.1313	-0.142
Mof_C 	C 	0.4942	0.1385	0.157	0.055
Mof_H 	H 	0.49691	0.17593	0.16857	0.019
Mof_C 	C 	0.5137	0.0669	0.1186	0.068
Mof_H 	H 	0.52836	0.05471	0.10137	0.019
Mof_C 	C 	0.4687	0.104	0.167	-0.14
Mof_H 	H 	0.45111	0.11802	0.17957	0.08
Mof_C 	C 	0.4901	0.026	0.1284	-0.144
Mof_H 	H 	0.48788	0.98884	0.11662	0.079
Mof_C 	C 	0.4698	0.0459	0.1578	0.081
Mof_C 	C 	0.4401	0.0114	0.1647	-0.039
Mof_C 	C 	0.4205	0.978	0.1745	-0.021
Mof_C 	C 	0.3965	0.9396	0.1884	0.061
Mof_C 	C 	0.3782	0.8896	0.1556	-0.103
Mof_H 	H 	0.38466	0.87794	0.128	0.07
Mof_C 	C 	0.3831	0.9588	0.2263	-0.108
Mof_H 	H 	0.39047	0.99517	0.24268	0.074
Mof_C 	C 	0.3495	0.8552	0.1631	0.002
Mof_H 	H 	0.33646	0.82115	0.1406	0.044
Mof_C 	C 	0.3592	0.9229	0.2384	0.014
Mof_H 	H 	0.35561	0.93267	0.26949	0.036
Mof_C 	C 	0.3414	0.8745	0.2056	-0.065
Mof_C 	C 	0.3146	0.8314	0.2179	0.264
Mof_Gd	Gd	0.09453	0.73478	0.10022	1.683
Mof_Gd	Gd	0.25977	0.76517	0.23762	1.677
Mof_O 	O 	0.1428	0.6769	0.0908	-0.496
Mof_O 	O 	0.2272	0.6917	0.1598	-0.504
Mof_O 	O 	0.1568	0.2975	0.7141	-0.479
Mof_O 	O 	0.2449	0.3008	0.7856	-0.476
Mof_O 	O 	0.1272	0.8103	0.173	-0.487
Mof_O 	O 	0.2142	0.8186	0.255	-0.49
Mof_O 	O 	0.1137	0.2043	0.5487	-0.532
Mof_O 	O 	0.1968	0.1955	0.6332	-0.482
Mof_O 	O 	0.0591	0.6438	0.0934	-0.41
Mof_O 	O 	0.047	0.7108	0.133	-0.466
Mof_O 	O 	0.8033	0.3506	0.2512	-0.399
Mof_O 	O 	0.8009	0.284	0.1875	-0.358
Mof_C 	C 	0.1876	0.6656	0.1155	0.518
Mof_C 	C 	0.1892	0.6208	0.0769	-0.242
Mof_C 	C 	0.1981	0.3507	0.8121	-0.178
Mof_C 	C 	0.2326	0.6145	0.0867	0.149
Mof_H 	H 	0.26102	0.63709	0.11824	-0.013
Mof_C 	C 	0.1507	0.5834	0.0345	0.17
Mof_H 	H 	0.12092	0.58744	0.02712	-0.022
Mof_C 	C 	0.2344	0.5747	0.0496	-0.212
Mof_H 	H 	0.26277	0.57469	0.05358	0.108
Mof_C 	C 	0.1526	0.5421	0.0035	-0.215
Mof_H 	H 	0.12605	0.51628	0.97818	0.108
Mof_C 	C 	0.198	0.5364	0.0088	0.131
Mof_C 	C 	0.197	0.4955	0.9698	-0.051
Mof_C 	C 	0.1998	0.4616	0.9393	-0.036
Mof_C 	C 	0.2465	0.4083	0.9167	-0.183
Mof_H 	H 	0.27801	0.42222	0.95604	0.095
Mof_C 	C 	0.1556	0.4022	0.842	-0.174
Mof_H 	H 	0.12519	0.411	0.83131	0.095
Mof_C 	C 	0.2021	0.4227	0.9016	0.116
Mof_C 	C 	0.2439	0.3732	0.8733	0.102
Mof_H 	H 	0.2745	0.36339	0.88495	-0.003
Mof_C 	C 	0.155	0.3677	0.7977	0.101
Mof_H 	H 	0.12341	0.35612	0.75648	0.013
Mof_C 	C 	0.1978	0.3122	0.7656	0.441
Mof_C 	C 	0.169	0.8316	0.2287	0.493
Mof_C 	C 	0.1632	0.8703	0.2662	-0.273
Mof_C 	C 	0.2072	0.8925	0.327	0.16
Mof_H 	H 	0.23899	0.88211	0.34239	-0.019
Mof_C 	C 	0.1194	0.888	0.248	0.215
Mof_H 	H 	0.08932	0.87385	0.20669	-0.039
Mof_C 	C 	0.2052	0.9317	0.3672	-0.242
Mof_H 	H 	0.23449	0.95037	0.40453	0.119
Mof_C 	C 	0.1139	0.9228	0.281	-0.257
Mof_H 	H 	0.08196	0.93594	0.26293	0.117
Mof_C 	C 	0.1623	0.9395	0.35	0.158
Mof_C 	C 	0.1517	0.9825	0.383	-0.04
Mof_C 	C 	0.153	0.0138	0.4197	-0.062
Mof_C 	C 	0.1551	0.0559	0.4603	0.159
Mof_C 	C 	0.1975	0.0681	0.525	-0.243
Mof_H 	H 	0.22749	0.04822	0.546	0.12
Mof_C 	C 	0.1092	0.0832	0.4316	-0.227
Mof_H 	H 	0.0789	0.07326	0.3878	0.106
Mof_C 	C 	0.1976	0.1094	0.562	0.177
Mof_H 	H 	0.22837	0.11951	0.60516	-0.016
Mof_C 	C 	0.1084	0.1244	0.4676	0.167
Mof_H 	H 	0.07836	0.1445	0.44627	-0.029
Mof_C 	C 	0.1523	0.1362	0.5356	-0.273
Mof_C 	C 	0.152	0.1805	0.5721	0.534
Mof_C 	C 	0.0387	0.6654	0.1152	0.392
Mof_C 	C 	0.0169	0.6202	0.1313	-0.143
Mof_C 	C 	0.9942	0.6385	0.157	0.055
Mof_H 	H 	0.99691	0.67593	0.16857	0.019
Mof_C 	C 	0.0137	0.5669	0.1186	0.069
Mof_H 	H 	0.02836	0.55471	0.10137	0.019
Mof_C 	C 	0.9687	0.604	0.167	-0.141
Mof_H 	H 	0.95111	0.61802	0.17957	0.08
Mof_C 	C 	0.9901	0.526	0.1284	-0.145
Mof_H 	H 	0.98788	0.48884	0.11662	0.079
Mof_C 	C 	0.9698	0.5459	0.1578	0.082
Mof_C 	C 	0.9401	0.5114	0.1647	-0.04
Mof_C 	C 	0.9205	0.478	0.1745	-0.02
Mof_C 	C 	0.8965	0.4396	0.1884	0.06
Mof_C 	C 	0.8782	0.3896	0.1556	-0.103
Mof_H 	H 	0.88466	0.37794	0.128	0.07
Mof_C 	C 	0.8831	0.4588	0.2263	-0.107
Mof_H 	H 	0.89047	0.49517	0.24268	0.074
Mof_C 	C 	0.8495	0.3552	0.1631	0.002
Mof_H 	H 	0.83646	0.32115	0.1406	0.044
Mof_C 	C 	0.8592	0.4229	0.2384	0.014
Mof_H 	H 	0.85561	0.43267	0.26949	0.037
Mof_C 	C 	0.8414	0.3745	0.2056	-0.065
Mof_C 	C 	0.8146	0.3314	0.2179	0.264
Mof_Gd	Gd	0.59453	0.76522	0.60022	1.683
Mof_Gd	Gd	0.75977	0.73483	0.73762	1.677
Mof_O 	O 	0.6428	0.8231	0.5908	-0.496
Mof_O 	O 	0.7272	0.8083	0.6598	-0.504
Mof_O 	O 	0.6568	0.2025	0.2141	-0.479
Mof_O 	O 	0.7449	0.1992	0.2856	-0.476
Mof_O 	O 	0.6272	0.6897	0.673	-0.487
Mof_O 	O 	0.7142	0.6814	0.755	-0.49
Mof_O 	O 	0.6137	0.2957	0.0487	-0.532
Mof_O 	O 	0.6968	0.3045	0.1332	-0.482
Mof_O 	O 	0.5591	0.8562	0.5934	-0.41
Mof_O 	O 	0.547	0.7892	0.633	-0.467
Mof_O 	O 	0.3033	0.1494	0.7512	-0.399
Mof_O 	O 	0.3009	0.216	0.6875	-0.358
Mof_C 	C 	0.6876	0.8344	0.6155	0.518
Mof_C 	C 	0.6892	0.8792	0.5769	-0.242
Mof_C 	C 	0.6981	0.1493	0.3121	-0.178
Mof_C 	C 	0.7326	0.8855	0.5867	0.149
Mof_H 	H 	0.76102	0.86291	0.61824	-0.013
Mof_C 	C 	0.6507	0.9166	0.5345	0.17
Mof_H 	H 	0.62092	0.91256	0.52712	-0.022
Mof_C 	C 	0.7344	0.9253	0.5496	-0.212
Mof_H 	H 	0.76277	0.92531	0.55358	0.108
Mof_C 	C 	0.6526	0.9579	0.5035	-0.215
Mof_H 	H 	0.62605	0.98372	0.47818	0.108
Mof_C 	C 	0.698	0.9636	0.5088	0.131
Mof_C 	C 	0.697	0.0045	0.4698	-0.051
Mof_C 	C 	0.6998	0.0384	0.4393	-0.036
Mof_C 	C 	0.7465	0.0917	0.4167	-0.183
Mof_H 	H 	0.77801	0.07778	0.45604	0.095
Mof_C 	C 	0.6556	0.0978	0.342	-0.174
Mof_H 	H 	0.62519	0.089	0.33131	0.095
Mof_C 	C 	0.7021	0.0773	0.4016	0.116
Mof_C 	C 	0.7439	0.1268	0.3733	0.102
Mof_H 	H 	0.7745	0.13661	0.38495	-0.003
Mof_C 	C 	0.655	0.1323	0.2977	0.101
Mof_H 	H 	0.62341	0.14388	0.25648	0.013
Mof_C 	C 	0.6978	0.1878	0.2656	0.441
Mof_C 	C 	0.669	0.6684	0.7287	0.493
Mof_C 	C 	0.6632	0.6297	0.7662	-0.273
Mof_C 	C 	0.7072	0.6075	0.827	0.16
Mof_H 	H 	0.73899	0.61789	0.84239	-0.019
Mof_C 	C 	0.6194	0.612	0.748	0.215
Mof_H 	H 	0.58932	0.62615	0.70669	-0.039
Mof_C 	C 	0.7052	0.5683	0.8672	-0.242
Mof_H 	H 	0.73449	0.54963	0.90453	0.119
Mof_C 	C 	0.6139	0.5772	0.781	-0.257
Mof_H 	H 	0.58196	0.56406	0.76293	0.117
Mof_C 	C 	0.6623	0.5605	0.85	0.158
Mof_C 	C 	0.6517	0.5175	0.883	-0.04
Mof_C 	C 	0.653	0.4862	0.9197	-0.062
Mof_C 	C 	0.6551	0.4441	0.9603	0.159
Mof_C 	C 	0.6975	0.4319	0.025	-0.243
Mof_H 	H 	0.72749	0.45178	0.046	0.12
Mof_C 	C 	0.6092	0.4168	0.9316	-0.227
Mof_H 	H 	0.5789	0.42674	0.8878	0.106
Mof_C 	C 	0.6976	0.3906	0.062	0.177
Mof_H 	H 	0.72837	0.38049	0.10516	-0.016
Mof_C 	C 	0.6084	0.3756	0.9676	0.167
Mof_H 	H 	0.57836	0.3555	0.94627	-0.029
Mof_C 	C 	0.6523	0.3638	0.0356	-0.273
Mof_C 	C 	0.652	0.3195	0.0721	0.534
Mof_C 	C 	0.5387	0.8346	0.6152	0.392
Mof_C 	C 	0.5169	0.8798	0.6313	-0.143
Mof_C 	C 	0.4942	0.8615	0.657	0.055
Mof_H 	H 	0.49691	0.82407	0.66857	0.019
Mof_C 	C 	0.5137	0.9331	0.6186	0.069
Mof_H 	H 	0.52836	0.94529	0.60137	0.019
Mof_C 	C 	0.4687	0.896	0.667	-0.141
Mof_H 	H 	0.45111	0.88198	0.67957	0.08
Mof_C 	C 	0.4901	0.974	0.6284	-0.145
Mof_H 	H 	0.48788	0.01116	0.61662	0.079
Mof_C 	C 	0.4698	0.9541	0.6578	0.082
Mof_C 	C 	0.4401	0.9886	0.6647	-0.039
Mof_C 	C 	0.4205	0.022	0.6745	-0.021
Mof_C 	C 	0.3965	0.0604	0.6884	0.06
Mof_C 	C 	0.3782	0.1104	0.6556	-0.103
Mof_H 	H 	0.38466	0.12206	0.628	0.07
Mof_C 	C 	0.3831	0.0412	0.7263	-0.107
Mof_H 	H 	0.39047	0.00483	0.74268	0.074
Mof_C 	C 	0.3495	0.1448	0.6631	0.002
Mof_H 	H 	0.33646	0.17885	0.6406	0.044
Mof_C 	C 	0.3592	0.0771	0.7384	0.014
Mof_H 	H 	0.35561	0.06733	0.76949	0.036
Mof_C 	C 	0.3414	0.1255	0.7056	-0.065
Mof_C 	C 	0.3146	0.1686	0.7179	0.264
Mof_Gd	Gd	0.09453	0.26522	0.60022	1.683
Mof_Gd	Gd	0.25977	0.23483	0.73762	1.677
Mof_O 	O 	0.1428	0.3231	0.5908	-0.496
Mof_O 	O 	0.2272	0.3083	0.6598	-0.504
Mof_O 	O 	0.1568	0.7025	0.2141	-0.479
Mof_O 	O 	0.2449	0.6992	0.2856	-0.476
Mof_O 	O 	0.1272	0.1897	0.673	-0.487
Mof_O 	O 	0.2142	0.1814	0.755	-0.49
Mof_O 	O 	0.1137	0.7957	0.0487	-0.532
Mof_O 	O 	0.1968	0.8045	0.1332	-0.482
Mof_O 	O 	0.0591	0.3562	0.5934	-0.41
Mof_O 	O 	0.047	0.2892	0.633	-0.467
Mof_O 	O 	0.8033	0.6494	0.7512	-0.399
Mof_O 	O 	0.8009	0.716	0.6875	-0.358
Mof_C 	C 	0.1876	0.3344	0.6155	0.518
Mof_C 	C 	0.1892	0.3792	0.5769	-0.242
Mof_C 	C 	0.1981	0.6493	0.3121	-0.178
Mof_C 	C 	0.2326	0.3855	0.5867	0.149
Mof_H 	H 	0.26102	0.36291	0.61824	-0.013
Mof_C 	C 	0.1507	0.4166	0.5345	0.17
Mof_H 	H 	0.12092	0.41256	0.52712	-0.022
Mof_C 	C 	0.2344	0.4253	0.5496	-0.212
Mof_H 	H 	0.26277	0.42531	0.55358	0.108
Mof_C 	C 	0.1526	0.4579	0.5035	-0.215
Mof_H 	H 	0.12605	0.48372	0.47818	0.108
Mof_C 	C 	0.198	0.4636	0.5088	0.131
Mof_C 	C 	0.197	0.5045	0.4698	-0.051
Mof_C 	C 	0.1998	0.5384	0.4393	-0.036
Mof_C 	C 	0.2465	0.5917	0.4167	-0.183
Mof_H 	H 	0.27801	0.57778	0.45604	0.095
Mof_C 	C 	0.1556	0.5978	0.342	-0.174
Mof_H 	H 	0.12519	0.589	0.33131	0.095
Mof_C 	C 	0.2021	0.5773	0.4016	0.116
Mof_C 	C 	0.2439	0.6268	0.3733	0.102
Mof_H 	H 	0.2745	0.63661	0.38495	-0.003
Mof_C 	C 	0.155	0.6323	0.2977	0.101
Mof_H 	H 	0.12341	0.64388	0.25648	0.013
Mof_C 	C 	0.1978	0.6878	0.2656	0.441
Mof_C 	C 	0.169	0.1684	0.7287	0.493
Mof_C 	C 	0.1632	0.1297	0.7662	-0.273
Mof_C 	C 	0.2072	0.1075	0.827	0.16
Mof_H 	H 	0.23899	0.11789	0.84239	-0.019
Mof_C 	C 	0.1194	0.112	0.748	0.215
Mof_H 	H 	0.08932	0.12615	0.70669	-0.039
Mof_C 	C 	0.2052	0.0683	0.8672	-0.242
Mof_H 	H 	0.23449	0.04963	0.90453	0.119
Mof_C 	C 	0.1139	0.0772	0.781	-0.257
Mof_H 	H 	0.08196	0.06406	0.76293	0.117
Mof_C 	C 	0.1623	0.0605	0.85	0.158
Mof_C 	C 	0.1517	0.0175	0.883	-0.04
Mof_C 	C 	0.153	0.9862	0.9197	-0.062
Mof_C 	C 	0.1551	0.9441	0.9603	0.16
Mof_C 	C 	0.1975	0.9319	0.025	-0.244
Mof_H 	H 	0.22749	0.95178	0.046	0.12
Mof_C 	C 	0.1092	0.9168	0.9316	-0.228
Mof_H 	H 	0.0789	0.92674	0.8878	0.106
Mof_C 	C 	0.1976	0.8906	0.062	0.178
Mof_H 	H 	0.22837	0.88049	0.10516	-0.016
Mof_C 	C 	0.1084	0.8756	0.9676	0.168
Mof_H 	H 	0.07836	0.8555	0.94627	-0.029
Mof_C 	C 	0.1523	0.8638	0.0356	-0.274
Mof_C 	C 	0.152	0.8195	0.0721	0.534
Mof_C 	C 	0.0387	0.3346	0.6152	0.392
Mof_C 	C 	0.0169	0.3798	0.6313	-0.143
Mof_C 	C 	0.9942	0.3615	0.657	0.055
Mof_H 	H 	0.99691	0.32407	0.66857	0.019
Mof_C 	C 	0.0137	0.4331	0.6186	0.069
Mof_H 	H 	0.02836	0.44529	0.60137	0.019
Mof_C 	C 	0.9687	0.396	0.667	-0.141
Mof_H 	H 	0.95111	0.38198	0.67957	0.08
Mof_C 	C 	0.9901	0.474	0.6284	-0.145
Mof_H 	H 	0.98788	0.51116	0.61662	0.079
Mof_C 	C 	0.9698	0.4541	0.6578	0.082
Mof_C 	C 	0.9401	0.4886	0.6647	-0.04
Mof_C 	C 	0.9205	0.522	0.6745	-0.02
Mof_C 	C 	0.8965	0.5604	0.6884	0.06
Mof_C 	C 	0.8782	0.6104	0.6556	-0.103
Mof_H 	H 	0.88466	0.62206	0.628	0.07
Mof_C 	C 	0.8831	0.5412	0.7263	-0.107
Mof_H 	H 	0.89047	0.50483	0.74268	0.074
Mof_C 	C 	0.8495	0.6448	0.6631	0.002
Mof_H 	H 	0.83646	0.67885	0.6406	0.044
Mof_C 	C 	0.8592	0.5771	0.7384	0.014
Mof_H 	H 	0.85561	0.56733	0.76949	0.037
Mof_C 	C 	0.8414	0.6255	0.7056	-0.065
Mof_C 	C 	0.8146	0.6686	0.7179	0.264
_end
