data_functionalizedCrystal
_audit_creation_method	'EQeq! by Chris Wilmer'
_symmetry_space_group_name_H-M	'P1'
_symmetry_Int_Tables_number	1
_symmetry_cell_setting	triclinic
loop_
_symmetry_equiv_pos_as_xyz
  x,y,z
_cell_length_a	19.7205
_cell_length_b	19.7205
_cell_length_c	22.9816
_cell_angle_alpha	90
_cell_angle_beta	90
_cell_angle_gamma	120
loop_
_atom_site_label
_atom_site_type_symbol
_atom_site_fract_x
_atom_site_fract_y
_atom_site_fract_z
_atom_site_charge
Mof_Cd	Cd	0.54984	0.86636	0.10229	0.286
Mof_Cd	Cd	0.53286	0.91442	0.93812	0.272
Mof_S 	S 	0.4997	0.79964	0.00374	-0.118
Mof_S 	S 	0.67407	0.99724	0.08359	-0.125
Mof_S 	S 	0.44629	0.8902	0.14813	-0.127
Mof_C 	C 	0.5583	0.7608	0.9842	0.011
Mof_C 	C 	0.5207	0.6801	0.977	-0.01
Mof_C 	C 	0.5609	0.6456	0.953	0.002
Mof_C 	C 	0.6386	0.6918	0.9362	-0.005
Mof_C 	C 	0.6761	0.7726	0.9433	0.006
Mof_C 	C 	0.636	0.8071	0.9673	-0.026
Mof_C 	C 	0.7386	0.8766	0.2196	-0.016
Mof_C 	C 	0.8083	0.9106	0.231	0.005
Mof_C 	C 	0.8509	0.9326	0.1898	-0.003
Mof_C 	C 	0.7186	0.034	0.152	0.016
Mof_C 	C 	0.7997	0.0708	0.1553	-0.007
Mof_C 	C 	0.8375	0.1042	0.2074	0.005
Mof_C 	C 	0.7942	0.1007	0.2562	-0.004
Mof_C 	C 	0.713	0.0639	0.2528	0.008
Mof_C 	C 	0.6752	0.0306	0.2007	-0.025
Mof_C 	C 	0.9096	0.1431	0.2233	-0.003
Mof_C 	C 	0.3711	0.8032	0.1833	0.017
Mof_C 	C 	0.2922	0.7778	0.1748	-0.023
Mof_C 	C 	0.2356	0.7116	0.2036	0.007
Mof_C 	C 	0.2579	0.6709	0.241	-0.003
Mof_C 	C 	0.3368	0.6963	0.2496	-0.001
Mof_C 	C 	0.3934	0.7625	0.2208	-0.023
Mof_C 	C 	0.1451	0.6806	0.1921	-0.001
Mof_S 	S 	0.6025	0.7785	0.1485	-0.06
Mof_Cd	Cd	0.13364	0.68348	0.76896	0.285
Mof_Cd	Cd	0.08558	0.61844	0.60479	0.28
Mof_S 	S 	0.20036	0.70006	0.67041	-0.126
Mof_S 	S 	0.00276	0.67683	0.75026	-0.114
Mof_S 	S 	0.1098	0.55609	0.8148	-0.125
Mof_C 	C 	0.2392	0.7975	0.65087	0.014
Mof_C 	C 	0.3199	0.8406	0.64367	-0.009
Mof_C 	C 	0.3544	0.9153	0.61967	0.002
Mof_C 	C 	0.3082	0.9468	0.60287	-0.006
Mof_C 	C 	0.2274	0.9035	0.60997	0.006
Mof_C 	C 	0.1929	0.8289	0.63397	-0.025
Mof_C 	C 	0.1234	0.862	0.88627	-0.016
Mof_C 	C 	0.0894	0.8977	0.89767	0.005
Mof_C 	C 	0.0674	0.9183	0.85647	0
Mof_C 	C 	0.966	0.6846	0.81867	0.008
Mof_C 	C 	0.9292	0.7289	0.82197	-0.009
Mof_C 	C 	0.8958	0.7333	0.87407	0.005
Mof_C 	C 	0.8993	0.6935	0.92287	-0.006
Mof_C 	C 	0.9361	0.6491	0.91947	0.005
Mof_C 	C 	0.9694	0.6446	0.86737	-0.027
Mof_C 	C 	0.8569	0.7665	0.88997	-0.004
Mof_C 	C 	0.1968	0.5679	0.84997	0.016
Mof_C 	C 	0.2222	0.5144	0.84147	-0.023
Mof_C 	C 	0.2884	0.524	0.87027	0.007
Mof_C 	C 	0.3291	0.587	0.90767	-0.004
Mof_C 	C 	0.3037	0.6405	0.91627	-0.002
Mof_C 	C 	0.2375	0.6309	0.88747	-0.023
Mof_C 	C 	0.3194	0.4645	0.85877	-0.003
Mof_S 	S 	0.2215	0.824	0.81517	-0.063
Mof_Cd	Cd	0.31652	0.45016	0.43562	0.285
Mof_Cd	Cd	0.38156	0.46714	0.27145	0.278
Mof_S 	S 	0.29994	0.5003	0.33707	-0.126
Mof_S 	S 	0.32317	0.32593	0.41692	-0.12
Mof_S 	S 	0.44391	0.55371	0.48146	-0.126
Mof_C 	C 	0.2025	0.4417	0.31753	0.015
Mof_C 	C 	0.1594	0.4793	0.31033	-0.009
Mof_C 	C 	0.0847	0.4391	0.28633	0.004
Mof_C 	C 	0.0532	0.3614	0.26953	-0.003
Mof_C 	C 	0.0965	0.3239	0.27663	0.008
Mof_C 	C 	0.1711	0.364	0.30063	-0.025
Mof_C 	C 	0.138	0.2614	0.55293	-0.016
Mof_C 	C 	0.1023	0.1917	0.56433	0.008
Mof_C 	C 	0.0817	0.1491	0.52313	-0.001
Mof_C 	C 	0.3154	0.2814	0.48533	0.012
Mof_C 	C 	0.2711	0.2003	0.48863	-0.007
Mof_C 	C 	0.2667	0.1625	0.54073	0.003
Mof_C 	C 	0.3065	0.2058	0.58953	-0.003
Mof_C 	C 	0.3509	0.287	0.58613	0.007
Mof_C 	C 	0.3554	0.3248	0.53403	-0.025
Mof_C 	C 	0.2335	0.0904	0.55663	0.001
Mof_C 	C 	0.4321	0.6289	0.51663	0.017
Mof_C 	C 	0.4856	0.7078	0.50813	-0.023
Mof_C 	C 	0.476	0.7644	0.53693	0.008
Mof_C 	C 	0.413	0.7421	0.57433	-0.004
Mof_C 	C 	0.3595	0.6632	0.58293	-0.001
Mof_C 	C 	0.3691	0.6066	0.55413	-0.023
Mof_C 	C 	0.5355	0.8549	0.52543	-0.004
Mof_S 	S 	0.176	0.3975	0.48183	-0.061
Mof_Cd	Cd	0.45016	0.13364	0.10229	0.285
Mof_Cd	Cd	0.46714	0.08558	0.93812	0.276
Mof_S 	S 	0.5003	0.20036	0.00374	-0.119
Mof_S 	S 	0.32593	0.00276	0.08359	-0.112
Mof_S 	S 	0.55371	0.1098	0.14813	-0.124
Mof_C 	C 	0.4417	0.2392	0.9842	0.01
Mof_C 	C 	0.4793	0.3199	0.977	-0.01
Mof_C 	C 	0.4391	0.3544	0.953	0.002
Mof_C 	C 	0.3614	0.3082	0.9362	-0.005
Mof_C 	C 	0.3239	0.2274	0.9433	0.006
Mof_C 	C 	0.364	0.1929	0.9673	-0.025
Mof_C 	C 	0.2614	0.1234	0.2196	-0.015
Mof_C 	C 	0.1917	0.0894	0.231	0.007
Mof_C 	C 	0.1491	0.0674	0.1898	0.001
Mof_C 	C 	0.2814	0.966	0.152	0.007
Mof_C 	C 	0.2003	0.9292	0.1553	-0.007
Mof_C 	C 	0.1625	0.8958	0.2074	0.003
Mof_C 	C 	0.2058	0.8993	0.2562	-0.004
Mof_C 	C 	0.287	0.9361	0.2528	0.005
Mof_C 	C 	0.3248	0.9694	0.2007	-0.026
Mof_C 	C 	0.0904	0.8569	0.2233	-0
Mof_C 	C 	0.6289	0.1968	0.1833	0.016
Mof_C 	C 	0.7078	0.2222	0.1748	-0.022
Mof_C 	C 	0.7644	0.2884	0.2036	0.008
Mof_C 	C 	0.7421	0.3291	0.241	-0.004
Mof_C 	C 	0.6632	0.3037	0.2496	-0.001
Mof_C 	C 	0.6066	0.2375	0.2208	-0.023
Mof_C 	C 	0.8549	0.3194	0.1921	-0.004
Mof_S 	S 	0.3975	0.2215	0.1485	-0.062
Mof_Cd	Cd	0.86636	0.31652	0.76896	0.284
Mof_Cd	Cd	0.91442	0.38156	0.60479	0.274
Mof_S 	S 	0.79964	0.29994	0.67041	-0.126
Mof_S 	S 	0.99724	0.32317	0.75026	-0.127
Mof_S 	S 	0.8902	0.44391	0.8148	-0.128
Mof_C 	C 	0.7608	0.2025	0.65087	0.015
Mof_C 	C 	0.6801	0.1594	0.64367	-0.009
Mof_C 	C 	0.6456	0.0847	0.61967	0.004
Mof_C 	C 	0.6918	0.0532	0.60287	-0.003
Mof_C 	C 	0.7726	0.0965	0.60997	0.007
Mof_C 	C 	0.8071	0.1711	0.63397	-0.026
Mof_C 	C 	0.8766	0.138	0.88627	-0.017
Mof_C 	C 	0.9106	0.1023	0.89767	0.006
Mof_C 	C 	0.9326	0.0817	0.85647	-0.003
Mof_C 	C 	0.034	0.3154	0.81867	0.016
Mof_C 	C 	0.0708	0.2711	0.82197	-0.007
Mof_C 	C 	0.1042	0.2667	0.87407	0.005
Mof_C 	C 	0.1007	0.3065	0.92287	-0.005
Mof_C 	C 	0.0639	0.3509	0.91947	0.007
Mof_C 	C 	0.0306	0.3554	0.86737	-0.025
Mof_C 	C 	0.1431	0.2335	0.88997	-0.001
Mof_C 	C 	0.8032	0.4321	0.84997	0.017
Mof_C 	C 	0.7778	0.4856	0.84147	-0.023
Mof_C 	C 	0.7116	0.476	0.87027	0.008
Mof_C 	C 	0.6709	0.413	0.90767	-0.005
Mof_C 	C 	0.6963	0.3595	0.91627	-0.002
Mof_C 	C 	0.7625	0.3691	0.88747	-0.024
Mof_C 	C 	0.6806	0.5355	0.85877	-0.003
Mof_S 	S 	0.7785	0.176	0.81517	-0.06
Mof_Cd	Cd	0.68348	0.54984	0.43562	0.285
Mof_Cd	Cd	0.61844	0.53286	0.27145	0.278
Mof_S 	S 	0.70006	0.4997	0.33707	-0.126
Mof_S 	S 	0.67683	0.67407	0.41692	-0.121
Mof_S 	S 	0.55609	0.44629	0.48146	-0.126
Mof_C 	C 	0.7975	0.5583	0.31753	0.014
Mof_C 	C 	0.8406	0.5207	0.31033	-0.009
Mof_C 	C 	0.9153	0.5609	0.28633	0.002
Mof_C 	C 	0.9468	0.6386	0.26953	-0.006
Mof_C 	C 	0.9035	0.6761	0.27663	0.006
Mof_C 	C 	0.8289	0.636	0.30063	-0.025
Mof_C 	C 	0.862	0.7386	0.55293	-0.016
Mof_C 	C 	0.8977	0.8083	0.56433	0.005
Mof_C 	C 	0.9183	0.8509	0.52313	-0.002
Mof_C 	C 	0.6846	0.7186	0.48533	0.012
Mof_C 	C 	0.7289	0.7997	0.48863	-0.009
Mof_C 	C 	0.7333	0.8375	0.54073	0.005
Mof_C 	C 	0.6935	0.7942	0.58953	-0.005
Mof_C 	C 	0.6491	0.713	0.58613	0.007
Mof_C 	C 	0.6446	0.6752	0.53403	-0.026
Mof_C 	C 	0.7665	0.9096	0.55663	-0.004
Mof_C 	C 	0.5679	0.3711	0.51663	0.017
Mof_C 	C 	0.5144	0.2922	0.50813	-0.023
Mof_C 	C 	0.524	0.2356	0.53693	0.007
Mof_C 	C 	0.587	0.2579	0.57433	-0.003
Mof_C 	C 	0.6405	0.3368	0.58293	-0.001
Mof_C 	C 	0.6309	0.3934	0.55413	-0.023
Mof_C 	C 	0.4645	0.1451	0.52543	-0.002
Mof_S 	S 	0.824	0.6025	0.48183	-0.063
Mof_Cd	Cd	0.86636	0.54984	0.56438	0.284
Mof_Cd	Cd	0.91442	0.53286	0.72855	0.274
Mof_S 	S 	0.79964	0.4997	0.66293	-0.126
Mof_S 	S 	0.99724	0.67407	0.58308	-0.127
Mof_S 	S 	0.8902	0.44629	0.51854	-0.128
Mof_C 	C 	0.7608	0.5583	0.68247	0.015
Mof_C 	C 	0.6801	0.5207	0.68967	-0.009
Mof_C 	C 	0.6456	0.5609	0.71367	0.003
Mof_C 	C 	0.6918	0.6386	0.73047	-0.004
Mof_C 	C 	0.7726	0.6761	0.72337	0.006
Mof_C 	C 	0.8071	0.636	0.69937	-0.026
Mof_C 	C 	0.8766	0.7386	0.44707	-0.017
Mof_C 	C 	0.9106	0.8083	0.43567	0.006
Mof_C 	C 	0.9326	0.8509	0.47687	-0.004
Mof_C 	C 	0.034	0.7186	0.51467	0.016
Mof_C 	C 	0.0708	0.7997	0.51137	-0.008
Mof_C 	C 	0.1042	0.8375	0.45927	0.005
Mof_C 	C 	0.1007	0.7942	0.41047	-0.004
Mof_C 	C 	0.0639	0.713	0.41387	0.008
Mof_C 	C 	0.0306	0.6752	0.46597	-0.025
Mof_C 	C 	0.1431	0.9096	0.44337	-0.003
Mof_C 	C 	0.8032	0.3711	0.48337	0.017
Mof_C 	C 	0.7778	0.2922	0.49187	-0.023
Mof_C 	C 	0.7116	0.2356	0.46307	0.007
Mof_C 	C 	0.6709	0.2579	0.42567	-0.003
Mof_C 	C 	0.6963	0.3368	0.41707	-0.001
Mof_C 	C 	0.7625	0.3934	0.44587	-0.023
Mof_C 	C 	0.6806	0.1451	0.47457	-0.002
Mof_S 	S 	0.7785	0.6025	0.51817	-0.061
Mof_Cd	Cd	0.68348	0.13364	0.89771	0.285
Mof_Cd	Cd	0.61844	0.08558	0.06188	0.282
Mof_S 	S 	0.70006	0.20036	0.99626	-0.133
Mof_S 	S 	0.67683	0.00276	0.91641	-0.116
Mof_S 	S 	0.55609	0.1098	0.85187	-0.125
Mof_C 	C 	0.7975	0.2392	0.0158	0.019
Mof_C 	C 	0.8406	0.3199	0.023	-0.009
Mof_C 	C 	0.9153	0.3544	0.047	0.003
Mof_C 	C 	0.9468	0.3082	0.0638	-0.006
Mof_C 	C 	0.9035	0.2274	0.0567	0.007
Mof_C 	C 	0.8289	0.1929	0.0327	-0.024
Mof_C 	C 	0.862	0.1234	0.7804	-0.016
Mof_C 	C 	0.8977	0.0894	0.769	0.006
Mof_C 	C 	0.9183	0.0674	0.8102	-0.001
Mof_C 	C 	0.6846	0.966	0.848	0.009
Mof_C 	C 	0.7289	0.9292	0.8447	-0.009
Mof_C 	C 	0.7333	0.8958	0.7926	0.004
Mof_C 	C 	0.6935	0.8993	0.7438	-0.005
Mof_C 	C 	0.6491	0.9361	0.7472	0.006
Mof_C 	C 	0.6446	0.9694	0.7993	-0.027
Mof_C 	C 	0.7665	0.8569	0.7767	-0.003
Mof_C 	C 	0.5679	0.1968	0.8167	0.016
Mof_C 	C 	0.5144	0.2222	0.8252	-0.023
Mof_C 	C 	0.524	0.2884	0.7964	0.007
Mof_C 	C 	0.587	0.3291	0.759	-0.004
Mof_C 	C 	0.6405	0.3037	0.7504	-0.001
Mof_C 	C 	0.6309	0.2375	0.7792	-0.023
Mof_C 	C 	0.4645	0.3194	0.8079	-0.003
Mof_S 	S 	0.824	0.2215	0.8515	-0.065
Mof_Cd	Cd	0.45016	0.31652	0.23104	0.285
Mof_Cd	Cd	0.46714	0.38156	0.39521	0.278
Mof_S 	S 	0.5003	0.29994	0.32959	-0.126
Mof_S 	S 	0.32593	0.32317	0.24974	-0.12
Mof_S 	S 	0.55371	0.44391	0.1852	-0.125
Mof_C 	C 	0.4417	0.2025	0.34913	0.015
Mof_C 	C 	0.4793	0.1594	0.35633	-0.009
Mof_C 	C 	0.4391	0.0847	0.38033	0.004
Mof_C 	C 	0.3614	0.0532	0.39713	-0.003
Mof_C 	C 	0.3239	0.0965	0.39003	0.008
Mof_C 	C 	0.364	0.1711	0.36603	-0.025
Mof_C 	C 	0.2614	0.138	0.11373	-0.016
Mof_C 	C 	0.1917	0.1023	0.10233	0.01
Mof_C 	C 	0.1491	0.0817	0.14353	-0.002
Mof_C 	C 	0.2814	0.3154	0.18133	0.012
Mof_C 	C 	0.2003	0.2711	0.17803	-0.006
Mof_C 	C 	0.1625	0.2667	0.12593	0.002
Mof_C 	C 	0.2058	0.3065	0.07713	-0.002
Mof_C 	C 	0.287	0.3509	0.08053	0.008
Mof_C 	C 	0.3248	0.3554	0.13263	-0.025
Mof_C 	C 	0.0904	0.2335	0.11003	0.003
Mof_C 	C 	0.6289	0.4321	0.15003	0.017
Mof_C 	C 	0.7078	0.4856	0.15853	-0.023
Mof_C 	C 	0.7644	0.476	0.12973	0.008
Mof_C 	C 	0.7421	0.413	0.09233	-0.003
Mof_C 	C 	0.6632	0.3595	0.08373	0
Mof_C 	C 	0.6066	0.3691	0.11253	-0.023
Mof_C 	C 	0.8549	0.5355	0.14123	-0.003
Mof_S 	S 	0.3975	0.176	0.18483	-0.062
Mof_Cd	Cd	0.13364	0.45016	0.56438	0.285
Mof_Cd	Cd	0.08558	0.46714	0.72855	0.28
Mof_S 	S 	0.20036	0.5003	0.66293	-0.126
Mof_S 	S 	0.00276	0.32593	0.58308	-0.113
Mof_S 	S 	0.1098	0.55371	0.51854	-0.124
Mof_C 	C 	0.2392	0.4417	0.68247	0.014
Mof_C 	C 	0.3199	0.4793	0.68967	-0.009
Mof_C 	C 	0.3544	0.4391	0.71367	0.003
Mof_C 	C 	0.3082	0.3614	0.73047	-0.004
Mof_C 	C 	0.2274	0.3239	0.72337	0.007
Mof_C 	C 	0.1929	0.364	0.69937	-0.024
Mof_C 	C 	0.1234	0.2614	0.44707	-0.016
Mof_C 	C 	0.0894	0.1917	0.43567	0.008
Mof_C 	C 	0.0674	0.1491	0.47687	0
Mof_C 	C 	0.966	0.2814	0.51467	0.008
Mof_C 	C 	0.9292	0.2003	0.51137	-0.008
Mof_C 	C 	0.8958	0.1625	0.45927	0.003
Mof_C 	C 	0.8993	0.2058	0.41047	-0.004
Mof_C 	C 	0.9361	0.287	0.41387	0.006
Mof_C 	C 	0.9694	0.3248	0.46597	-0.026
Mof_C 	C 	0.8569	0.0904	0.44337	-0
Mof_C 	C 	0.1968	0.6289	0.48337	0.016
Mof_C 	C 	0.2222	0.7078	0.49187	-0.023
Mof_C 	C 	0.2884	0.7644	0.46307	0.008
Mof_C 	C 	0.3291	0.7421	0.42567	-0.004
Mof_C 	C 	0.3037	0.6632	0.41707	-0.001
Mof_C 	C 	0.2375	0.6066	0.44587	-0.023
Mof_C 	C 	0.3194	0.8549	0.47457	-0.004
Mof_S 	S 	0.2215	0.3975	0.51817	-0.063
Mof_Cd	Cd	0.31652	0.86636	0.89771	0.284
Mof_Cd	Cd	0.38156	0.91442	0.06188	0.276
Mof_S 	S 	0.29994	0.79964	0.99626	-0.133
Mof_S 	S 	0.32317	0.99724	0.91641	-0.128
Mof_S 	S 	0.44391	0.8902	0.85187	-0.128
Mof_C 	C 	0.2025	0.7608	0.0158	0.019
Mof_C 	C 	0.1594	0.6801	0.023	-0.008
Mof_C 	C 	0.0847	0.6456	0.047	0.005
Mof_C 	C 	0.0532	0.6918	0.0638	-0.002
Mof_C 	C 	0.0965	0.7726	0.0567	0.008
Mof_C 	C 	0.1711	0.8071	0.0327	-0.025
Mof_C 	C 	0.138	0.8766	0.7804	-0.017
Mof_C 	C 	0.1023	0.9106	0.769	0.008
Mof_C 	C 	0.0817	0.9326	0.8102	-0.004
Mof_C 	C 	0.3154	0.034	0.848	0.016
Mof_C 	C 	0.2711	0.0708	0.8447	-0.007
Mof_C 	C 	0.2667	0.1042	0.7926	0.004
Mof_C 	C 	0.3065	0.1007	0.7438	-0.004
Mof_C 	C 	0.3509	0.0639	0.7472	0.008
Mof_C 	C 	0.3554	0.0306	0.7993	-0.025
Mof_C 	C 	0.2335	0.1431	0.7767	-0
Mof_C 	C 	0.4321	0.8032	0.8167	0.017
Mof_C 	C 	0.4856	0.7778	0.8252	-0.023
Mof_C 	C 	0.476	0.7116	0.7964	0.008
Mof_C 	C 	0.413	0.6709	0.759	-0.004
Mof_C 	C 	0.3595	0.6963	0.7504	-0.001
Mof_C 	C 	0.3691	0.7625	0.7792	-0.023
Mof_C 	C 	0.5355	0.6806	0.8079	-0.003
Mof_S 	S 	0.176	0.7785	0.8515	-0.061
Mof_Cd	Cd	0.54984	0.68348	0.23104	0.285
Mof_Cd	Cd	0.53286	0.61844	0.39521	0.278
Mof_S 	S 	0.4997	0.70006	0.32959	-0.126
Mof_S 	S 	0.67407	0.67683	0.24974	-0.121
Mof_S 	S 	0.44629	0.55609	0.1852	-0.125
Mof_C 	C 	0.5583	0.7975	0.34913	0.014
Mof_C 	C 	0.5207	0.8406	0.35633	-0.009
Mof_C 	C 	0.5609	0.9153	0.38033	0.002
Mof_C 	C 	0.6386	0.9468	0.39713	-0.006
Mof_C 	C 	0.6761	0.9035	0.39003	0.006
Mof_C 	C 	0.636	0.8289	0.36603	-0.025
Mof_C 	C 	0.7386	0.862	0.11373	-0.015
Mof_C 	C 	0.8083	0.8977	0.10233	0.006
Mof_C 	C 	0.8509	0.9183	0.14353	-0.003
Mof_C 	C 	0.7186	0.6846	0.18133	0.012
Mof_C 	C 	0.7997	0.7289	0.17803	-0.008
Mof_C 	C 	0.8375	0.7333	0.12593	0.004
Mof_C 	C 	0.7942	0.6935	0.07713	-0.004
Mof_C 	C 	0.713	0.6491	0.08053	0.008
Mof_C 	C 	0.6752	0.6446	0.13263	-0.026
Mof_C 	C 	0.9096	0.7665	0.11003	-0.003
Mof_C 	C 	0.3711	0.5679	0.15003	0.017
Mof_C 	C 	0.2922	0.5144	0.15853	-0.022
Mof_C 	C 	0.2356	0.524	0.12973	0.007
Mof_C 	C 	0.2579	0.587	0.09233	-0.002
Mof_C 	C 	0.3368	0.6405	0.08373	-0
Mof_C 	C 	0.3934	0.6309	0.11253	-0.023
Mof_C 	C 	0.1451	0.4645	0.14123	-0.001
Mof_S 	S 	0.6025	0.824	0.18483	-0.064
Mof_S 	S 	0.5	0	-0	-0.255
Mof_S 	S 	2.23596e-17	0.5	0.66667	-0.26
Mof_S 	S 	0.5	0.5	0.33333	-0.265
Mof_C 	C 	0.7013	0.85065	0.16667	0.015
Mof_C 	C 	0.14935	0.85065	0.83333	0.016
Mof_C 	C 	0.14935	0.2987	0.5	0.016
Mof_C 	C 	0.2987	0.14935	0.16667	0.016
Mof_C 	C 	0.85065	0.14935	0.83333	0.016
Mof_C 	C 	0.85065	0.7013	0.5	0.015
_end
