data_functionalizedCrystal
_audit_creation_method	'EQeq! by Chris Wilmer'
_symmetry_space_group_name_H-M	'P1'
_symmetry_Int_Tables_number	1
_symmetry_cell_setting	triclinic
loop_
_symmetry_equiv_pos_as_xyz
  x,y,z
_cell_length_a	21.759
_cell_length_b	13.8214
_cell_length_c	14.2237
_cell_angle_alpha	90
_cell_angle_beta	98.849
_cell_angle_gamma	90
loop_
_atom_site_label
_atom_site_type_symbol
_atom_site_fract_x
_atom_site_fract_y
_atom_site_fract_z
_atom_site_charge
Mof_P 	P 	0.05959	0.12051	0.01465	1.826
Mof_P 	P 	0.17164	0.78464	0.89409	1.66
Mof_P 	P 	0.26241	0.11092	0.06219	1.827
Mof_P 	P 	0.15797	0.11435	0.70493	1.769
Mof_Al	Al	0.16167	0.20348	0.90892	7.464
Mof_Al	Al	0.08374	0.89973	0.00792	6.825
Mof_Al	Al	0.24608	0.8914	0.05953	6.63
Mof_Al	Al	0.16015	0.10872	0.19667	7.246
Mof_F 	F 	0.16788	0.9553	0.0268	-2.226
Mof_O 	O 	0.22897	0.8374	0.945	-2.001
Mof_O 	O 	0.06186	0.018	0.9752	-2.121
Mof_O 	O 	0.22339	0.1355	0.9663	-2.293
Mof_O 	O 	0.11318	0.8129	0.9352	-1.956
Mof_O 	O 	0.22535	0.1317	0.1424	-2.288
Mof_O 	O 	0.09876	0.1272	0.6326	-1.972
Mof_O 	O 	0.99282	0.1541	0.0104	-1.782
Mof_O 	O 	0.28447	0.0057	0.0636	-1.833
Mof_O 	O 	0.15195	0.1788	0.7893	-2.188
Mof_O 	O 	0.32118	0.17338	0.0764	-2.125
Mof_O 	O 	0.18042	0.6747	0.9055	-1.676
Mof_O 	O 	0.09318	0.1886	0.9551	-2.199
Mof_O 	O 	0.16196	0.8085	0.7881	-2.153
Mof_O 	O 	0.21551	0.1449	0.6634	-1.942
Mof_O 	O 	0.09222	0.1252	0.1172	-2.282
Mof_O 	O 	0.16478	0.009	0.74	-2.278
Mof_P 	P 	0.55959	0.62051	0.01465	1.904
Mof_P 	P 	0.67164	0.28464	0.89409	1.673
Mof_P 	P 	0.76241	0.61092	0.06219	1.849
Mof_P 	P 	0.65797	0.61435	0.70493	1.771
Mof_Al	Al	0.66167	0.70348	0.90892	7.48
Mof_Al	Al	0.58374	0.39973	0.00792	7.078
Mof_Al	Al	0.74608	0.3914	0.05953	6.708
Mof_Al	Al	0.66015	0.60872	0.19667	7.283
Mof_F 	F 	0.66788	0.4553	0.0268	-2.253
Mof_O 	O 	0.72897	0.3374	0.945	-2.034
Mof_O 	O 	0.56186	0.518	0.9752	-2.206
Mof_O 	O 	0.72339	0.6355	0.9663	-2.316
Mof_O 	O 	0.61318	0.3129	0.9352	-2.022
Mof_O 	O 	0.72535	0.6317	0.1424	-2.298
Mof_O 	O 	0.59876	0.6272	0.6326	-1.974
Mof_O 	O 	0.49282	0.6541	0.0104	-1.86
Mof_O 	O 	0.78447	0.5057	0.0636	-1.845
Mof_O 	O 	0.65195	0.6788	0.7893	-2.193
Mof_O 	O 	0.82118	0.67338	0.0764	-2.119
Mof_O 	O 	0.68042	0.1747	0.9055	-1.67
Mof_O 	O 	0.59318	0.6886	0.9551	-2.227
Mof_O 	O 	0.66196	0.3085	0.7881	-2.157
Mof_O 	O 	0.71551	0.6449	0.6634	-1.944
Mof_O 	O 	0.59222	0.6252	0.1172	-2.297
Mof_O 	O 	0.66478	0.509	0.74	-2.28
Mof_P 	P 	0.94041	0.12051	0.48535	1.892
Mof_P 	P 	0.82836	0.78464	0.60591	1.669
Mof_P 	P 	0.73759	0.11092	0.43781	1.839
Mof_P 	P 	0.84203	0.11435	0.79507	1.761
Mof_Al	Al	0.83833	0.20348	0.59108	7.468
Mof_Al	Al	0.91626	0.89973	0.49208	7.027
Mof_Al	Al	0.75392	0.8914	0.44047	6.668
Mof_Al	Al	0.83985	0.10872	0.30333	7.273
Mof_F 	F 	0.83212	0.9553	0.4732	-2.248
Mof_O 	O 	0.77103	0.8374	0.555	-2.02
Mof_O 	O 	0.93814	0.018	0.5248	-2.193
Mof_O 	O 	0.77661	0.1355	0.5337	-2.305
Mof_O 	O 	0.88682	0.8129	0.5648	-2.01
Mof_O 	O 	0.77465	0.1317	0.3576	-2.294
Mof_O 	O 	0.90124	0.1272	0.8674	-1.94
Mof_O 	O 	0.00718	0.1541	0.4896	-1.853
Mof_O 	O 	0.71553	0.0057	0.4364	-1.841
Mof_O 	O 	0.84805	0.1788	0.7107	-2.191
Mof_O 	O 	0.67882	0.17338	0.4236	-2.125
Mof_O 	O 	0.81958	0.6747	0.5945	-1.676
Mof_O 	O 	0.90682	0.1886	0.5449	-2.224
Mof_O 	O 	0.83804	0.8085	0.7119	-2.152
Mof_O 	O 	0.78449	0.1449	0.8366	-1.933
Mof_O 	O 	0.90778	0.1252	0.3828	-2.292
Mof_O 	O 	0.83522	0.009	0.76	-2.273
Mof_P 	P 	0.44041	0.62051	0.48535	1.893
Mof_P 	P 	0.32836	0.28464	0.60591	1.671
Mof_P 	P 	0.23759	0.61092	0.43781	1.839
Mof_P 	P 	0.34203	0.61435	0.79507	1.775
Mof_Al	Al	0.33833	0.70348	0.59108	7.48
Mof_Al	Al	0.41626	0.39973	0.49208	7.033
Mof_Al	Al	0.25392	0.3914	0.44047	6.67
Mof_Al	Al	0.33985	0.60872	0.30333	7.274
Mof_F 	F 	0.33212	0.4553	0.4732	-2.248
Mof_O 	O 	0.27103	0.3374	0.555	-2.02
Mof_O 	O 	0.43814	0.518	0.5248	-2.192
Mof_O 	O 	0.27661	0.6355	0.5337	-2.307
Mof_O 	O 	0.38682	0.3129	0.5648	-2.01
Mof_O 	O 	0.27465	0.6317	0.3576	-2.295
Mof_O 	O 	0.40124	0.6272	0.8674	-1.983
Mof_O 	O 	0.50718	0.6541	0.4896	-1.851
Mof_O 	O 	0.21553	0.5057	0.4364	-1.842
Mof_O 	O 	0.34805	0.6788	0.7107	-2.192
Mof_O 	O 	0.17882	0.67338	0.4236	-2.124
Mof_O 	O 	0.31958	0.1747	0.5945	-1.675
Mof_O 	O 	0.40682	0.6886	0.5449	-2.224
Mof_O 	O 	0.33804	0.3085	0.7119	-2.158
Mof_O 	O 	0.28449	0.6449	0.8366	-1.951
Mof_O 	O 	0.40778	0.6252	0.3828	-2.294
Mof_O 	O 	0.33522	0.509	0.76	-2.282
Mof_P 	P 	0.94041	0.87949	0.98535	1.827
Mof_P 	P 	0.82836	0.21536	0.10591	1.661
Mof_P 	P 	0.73759	0.88908	0.93781	1.828
Mof_P 	P 	0.84203	0.88565	0.29507	1.77
Mof_Al	Al	0.83833	0.79652	0.09108	7.465
Mof_Al	Al	0.91626	0.10027	0.99208	6.826
Mof_Al	Al	0.75392	0.1086	0.94047	6.63
Mof_Al	Al	0.83985	0.89128	0.80333	7.246
Mof_F 	F 	0.83212	0.0447	0.9732	-2.226
Mof_O 	O 	0.77103	0.1626	0.055	-2.001
Mof_O 	O 	0.93814	0.982	0.0248	-2.121
Mof_O 	O 	0.77661	0.8645	0.0337	-2.293
Mof_O 	O 	0.88682	0.1871	0.0648	-1.956
Mof_O 	O 	0.77465	0.8683	0.8576	-2.288
Mof_O 	O 	0.90124	0.8728	0.3674	-1.972
Mof_O 	O 	0.00718	0.8459	0.9896	-1.782
Mof_O 	O 	0.71553	0.9943	0.9364	-1.833
Mof_O 	O 	0.84805	0.8212	0.2107	-2.188
Mof_O 	O 	0.67882	0.82662	0.9236	-2.125
Mof_O 	O 	0.81958	0.3253	0.0945	-1.676
Mof_O 	O 	0.90682	0.8114	0.0449	-2.199
Mof_O 	O 	0.83804	0.1915	0.2119	-2.153
Mof_O 	O 	0.78449	0.8551	0.3366	-1.942
Mof_O 	O 	0.90778	0.8748	0.8828	-2.282
Mof_O 	O 	0.83522	0.991	0.26	-2.278
Mof_P 	P 	0.44041	0.37949	0.98535	1.904
Mof_P 	P 	0.32836	0.71536	0.10591	1.673
Mof_P 	P 	0.23759	0.38908	0.93781	1.849
Mof_P 	P 	0.34203	0.38565	0.29507	1.771
Mof_Al	Al	0.33833	0.29652	0.09108	7.48
Mof_Al	Al	0.41626	0.60027	0.99208	7.078
Mof_Al	Al	0.25392	0.6086	0.94047	6.708
Mof_Al	Al	0.33985	0.39128	0.80333	7.283
Mof_F 	F 	0.33212	0.5447	0.9732	-2.253
Mof_O 	O 	0.27103	0.6626	0.055	-2.034
Mof_O 	O 	0.43814	0.482	0.0248	-2.206
Mof_O 	O 	0.27661	0.3645	0.0337	-2.316
Mof_O 	O 	0.38682	0.6871	0.0648	-2.022
Mof_O 	O 	0.27465	0.3683	0.8576	-2.298
Mof_O 	O 	0.40124	0.3728	0.3674	-1.974
Mof_O 	O 	0.50718	0.3459	0.9896	-1.86
Mof_O 	O 	0.21553	0.4943	0.9364	-1.845
Mof_O 	O 	0.34805	0.3212	0.2107	-2.193
Mof_O 	O 	0.17882	0.32662	0.9236	-2.119
Mof_O 	O 	0.31958	0.8253	0.0945	-1.67
Mof_O 	O 	0.40682	0.3114	0.0449	-2.227
Mof_O 	O 	0.33804	0.6915	0.2119	-2.157
Mof_O 	O 	0.28449	0.3551	0.3366	-1.944
Mof_O 	O 	0.40778	0.3748	0.8828	-2.297
Mof_O 	O 	0.33522	0.491	0.26	-2.28
Mof_P 	P 	0.05959	0.87949	0.51465	1.892
Mof_P 	P 	0.17164	0.21536	0.39409	1.669
Mof_P 	P 	0.26241	0.88908	0.56219	1.839
Mof_P 	P 	0.15797	0.88565	0.20493	1.761
Mof_Al	Al	0.16167	0.79652	0.40892	7.468
Mof_Al	Al	0.08374	0.10027	0.50792	7.027
Mof_Al	Al	0.24608	0.1086	0.55953	6.668
Mof_Al	Al	0.16015	0.89128	0.69667	7.273
Mof_F 	F 	0.16788	0.0447	0.5268	-2.248
Mof_O 	O 	0.22897	0.1626	0.445	-2.02
Mof_O 	O 	0.06186	0.982	0.4752	-2.193
Mof_O 	O 	0.22339	0.8645	0.4663	-2.305
Mof_O 	O 	0.11318	0.1871	0.4352	-2.01
Mof_O 	O 	0.22535	0.8683	0.6424	-2.294
Mof_O 	O 	0.09876	0.8728	0.1326	-1.94
Mof_O 	O 	0.99282	0.8459	0.5104	-1.853
Mof_O 	O 	0.28447	0.9943	0.5636	-1.841
Mof_O 	O 	0.15195	0.8212	0.2893	-2.191
Mof_O 	O 	0.32118	0.82662	0.5764	-2.125
Mof_O 	O 	0.18042	0.3253	0.4055	-1.676
Mof_O 	O 	0.09318	0.8114	0.4551	-2.224
Mof_O 	O 	0.16196	0.1915	0.2881	-2.152
Mof_O 	O 	0.21551	0.8551	0.1634	-1.933
Mof_O 	O 	0.09222	0.8748	0.6172	-2.292
Mof_O 	O 	0.16478	0.991	0.24	-2.273
Mof_P 	P 	0.55959	0.37949	0.51465	1.893
Mof_P 	P 	0.67164	0.71536	0.39409	1.671
Mof_P 	P 	0.76241	0.38908	0.56219	1.839
Mof_P 	P 	0.65797	0.38565	0.20493	1.775
Mof_Al	Al	0.66167	0.29652	0.40892	7.48
Mof_Al	Al	0.58374	0.60027	0.50792	7.033
Mof_Al	Al	0.74608	0.6086	0.55953	6.67
Mof_Al	Al	0.66015	0.39128	0.69667	7.274
Mof_F 	F 	0.66788	0.5447	0.5268	-2.248
Mof_O 	O 	0.72897	0.6626	0.445	-2.02
Mof_O 	O 	0.56186	0.482	0.4752	-2.192
Mof_O 	O 	0.72339	0.3645	0.4663	-2.307
Mof_O 	O 	0.61318	0.6871	0.4352	-2.01
Mof_O 	O 	0.72535	0.3683	0.6424	-2.295
Mof_O 	O 	0.59876	0.3728	0.1326	-1.983
Mof_O 	O 	0.49282	0.3459	0.5104	-1.851
Mof_O 	O 	0.78447	0.4943	0.5636	-1.842
Mof_O 	O 	0.65195	0.3212	0.2893	-2.192
Mof_O 	O 	0.82118	0.32662	0.5764	-2.124
Mof_O 	O 	0.68042	0.8253	0.4055	-1.675
Mof_O 	O 	0.59318	0.3114	0.4551	-2.224
Mof_O 	O 	0.66196	0.6915	0.2881	-2.158
Mof_O 	O 	0.71551	0.3551	0.1634	-1.951
Mof_O 	O 	0.59222	0.3748	0.6172	-2.294
Mof_O 	O 	0.66478	0.491	0.24	-2.282
_end
