data_functionalizedCrystal
_audit_creation_method	'EQeq! by Chris Wilmer'
_symmetry_space_group_name_H-M	'P1'
_symmetry_Int_Tables_number	1
_symmetry_cell_setting	triclinic
loop_
_symmetry_equiv_pos_as_xyz
  x,y,z
_cell_length_a	10.9467
_cell_length_b	28.691
_cell_length_c	23.1432
_cell_angle_alpha	90
_cell_angle_beta	102.238
_cell_angle_gamma	90
loop_
_atom_site_label
_atom_site_type_symbol
_atom_site_fract_x
_atom_site_fract_y
_atom_site_fract_z
_atom_site_charge
Mof_Co	Co	0.07624	0.5459	0.03726	1.182
Mof_O 	O 	0.2625	0.55123	0.05961	-0.443
Mof_O 	O 	0.0516	0.57471	0.95486	-0.721
Mof_O 	O 	0.8862	0.51999	0.02032	-0.508
Mof_O 	O 	0.9114	0.49555	0.88971	-0.464
Mof_O 	O 	0.5184	0.89378	0.56858	-0.438
Mof_C 	C 	0.3453	0.56525	0.0335	0.362
Mof_Co	Co	0.17178	0.62975	0.95133	1.164
Mof_C 	C 	0.4737	0.54442	0.05437	-0.056
Mof_O 	O 	0.3302	0.59331	0.99103	-0.427
Mof_C 	C 	0.5711	0.55685	0.0278	-0.003
Mof_C 	C 	0.4892	0.50893	0.0972	-0.104
Mof_H 	H 	0.56	0.5809	0.9989	0.061
Mof_C 	C 	0.6858	0.5338	0.0437	-0.066
Mof_C 	C 	0.6035	0.4865	0.1127	0.152
Mof_H 	H 	0.4221	0.5004	0.1152	0.079
Mof_C 	C 	0.7864	0.54415	0.0108	0.357
Mof_C 	C 	0.7026	0.49921	0.0867	-0.092
Mof_O 	O 	0.6262	0.44914	0.1508	-0.223
Mof_O 	O 	0.7627	0.57624	0.97294	-0.45
Mof_H 	H 	0.7814	0.4843	0.0984	0.053
Mof_C 	C 	0.5211	0.42773	0.1692	-0.031
Mof_Co	Co	0.87691	0.58988	0.92095	1.171
Mof_H 	H 	0.4531	0.4216	0.1344	0.047
Mof_H 	H 	0.4886	0.4488	0.1964	0.05
Mof_C 	C 	0.5649	0.3827	0.2001	0.043
Mof_O 	O 	0.8374	0.65555	0.91189	-0.458
Mof_O 	O 	0.8165	0.55802	0.84483	-0.448
Mof_H 	H 	0.6341	0.3892	0.2343	0.021
Mof_H 	H 	0.5975	0.362	0.1726	0.022
Mof_C 	C 	0.4598	0.358	0.2215	-0.432
Mof_H 	H 	0.0752	0.5499	0.9289	0.149
Mof_C 	C 	0.8358	0.51387	0.8478	0.345
Mof_C 	C 	0.9199	0.68546	0.9085	0.354
Mof_H 	H 	0.4914	0.3289	0.2414	0.147
Mof_H 	H 	0.4284	0.3782	0.2493	0.153
Mof_H 	H 	0.3919	0.351	0.1877	0.153
Mof_O 	O 	0.0311	0.67684	0.90637	-0.442
Mof_O 	O 	0.6329	0.84297	0.5284	-0.425
Mof_C 	C 	0.7665	0.48594	0.7972	-0.069
Mof_C 	C 	0.88	0.7356	0.9071	-0.06
Mof_C 	C 	0.6858	0.50829	0.752	0.003
Mof_C 	C 	0.7833	0.43736	0.7959	-0.106
Mof_C 	C 	0.969	0.76982	0.9257	-0.006
Mof_C 	C 	0.7543	0.74696	0.8896	-0.086
Mof_Co	Co	0.5593	0.54503	0.47127	1.19
Mof_Co	Co	0.73211	0.6297	0.55921	1.194
Mof_H 	H 	0.6756	0.5411	0.7532	0.046
Mof_C 	C 	0.6196	0.48297	0.7046	-0.07
Mof_C 	C 	0.7199	0.41249	0.7468	0.146
Mof_H 	H 	0.8366	0.4218	0.8279	0.07
Mof_H 	H 	0.0549	0.7618	0.9378	0.049
Mof_C 	C 	0.9313	0.81573	0.9265	-0.054
Mof_C 	C 	0.7186	0.7936	0.8897	0.135
Mof_H 	H 	0.6934	0.7233	0.8776	0.072
Mof_O 	O 	0.7285	0.5517	0.45245	-0.435
Mof_O 	O 	0.8568	0.59319	0.52237	-0.402
Mof_C 	C 	0.5346	0.5087	0.6557	0.358
Mof_C 	C 	0.6377	0.43527	0.7007	-0.104
Mof_O 	O 	0.7309	0.36552	0.73945	-0.227
Mof_C 	C 	0.0229	0.85345	0.9501	0.33
Mof_C 	C 	0.8066	0.82798	0.9076	-0.089
Mof_O 	O 	0.5925	0.80211	0.8724	-0.145
Mof_C 	C 	0.8346	0.5667	0.4787	0.345
Mof_O 	O 	0.5121	0.5515	0.66654	-0.454
Mof_O 	O 	0.4917	0.48997	0.60807	-0.465
Mof_H 	H 	0.5951	0.4183	0.6672	0.081
Mof_C 	C 	0.8093	0.34037	0.7867	-0.019
Mof_O 	O 	0.1312	0.84236	0.97829	-0.411
Mof_O 	O 	0.9807	0.89449	0.94154	-0.435
Mof_H 	H 	0.7821	0.8598	0.907	0.081
Mof_C 	C 	0.5536	0.8499	0.8601	-0.453
Mof_C 	C 	0.9426	0.54907	0.4539	-0.055
Mof_O 	O 	0.3797	0.52187	0.48447	-0.535
Mof_Co	Co	0.4671	0.58587	0.59241	1.174
Mof_H 	H 	0.7755	0.3424	0.8231	0.038
Mof_H 	H 	0.8949	0.3535	0.7952	0.027
Mof_C 	C 	0.8116	0.2896	0.7667	0.044
Mof_H 	H 	0.5987	0.8638	0.8315	0.161
Mof_H 	H 	0.5723	0.8685	0.8969	0.164
Mof_C 	C 	0.4144	0.8497	0.8346	0.775
Mof_C 	C 	0.064	0.5578	0.484	-0.007
Mof_C 	C 	0.9185	0.52226	0.4027	-0.115
Mof_O 	O 	0.3074	0.57582	0.5375	-0.459
Mof_O 	O 	0.4388	0.65189	0.60528	-0.446
Mof_H 	H 	0.8415	0.2885	0.7292	0.022
Mof_H 	H 	0.8719	0.272	0.7967	0.014
Mof_C 	C 	0.6857	0.2663	0.7575	-0.432
Mof_C 	C 	0.3314	0.8337	0.8657	-1.211
Mof_C 	C 	0.1626	0.5399	0.4622	-0.073
Mof_H 	H 	0.0793	0.5758	0.5192	0.066
Mof_C 	C 	0.0164	0.5054	0.3805	0.156
Mof_H 	H 	0.8349	0.5157	0.3832	0.081
Mof_C 	C 	0.2929	0.54645	0.497	0.382
Mof_C 	C 	0.5188	0.68352	0.6026	0.349
Mof_H 	H 	0.6928	0.234	0.7448	0.151
Mof_H 	H 	0.6563	0.2665	0.7947	0.159
Mof_H 	H 	0.626	0.2831	0.7271	0.163
Mof_H 	H 	0.2465	0.8365	0.8417	0.36
Mof_H 	H 	0.3493	0.8009	0.876	0.384
Mof_H 	H 	0.3383	0.8521	0.9019	0.374
Mof_C 	C 	0.1407	0.515	0.409	-0.09
Mof_O 	O 	0.0053	0.47767	0.331	-0.198
Mof_O 	O 	0.6286	0.67703	0.59823	-0.432
Mof_C 	C 	0.4728	0.73292	0.6046	-0.039
Mof_H 	H 	0.2084	0.5048	0.3925	0.072
Mof_C 	C 	0.8808	0.4696	0.2959	-0.035
Mof_C 	C 	0.5329	0.76837	0.5812	-0.027
Mof_C 	C 	0.3691	0.742	0.6281	-0.113
Mof_H 	H 	0.825	0.4601	0.3223	0.046
Mof_H 	H 	0.884	0.4437	0.268	0.051
Mof_C 	C 	0.8269	0.5125	0.2613	0.041
Mof_H 	H 	0.603	0.7618	0.5643	0.069
Mof_C 	C 	0.4896	0.81364	0.5827	-0.037
Mof_C 	C 	0.3256	0.7873	0.628	0.162
Mof_H 	H 	0.3283	0.7175	0.6442	0.089
Mof_H 	H 	0.8108	0.5366	0.2894	0.003
Mof_H 	H 	0.7458	0.5042	0.2354	0.019
Mof_C 	C 	0.9123	0.5331	0.2233	-0.424
Mof_C 	C 	0.5532	0.85337	0.558	0.334
Mof_C 	C 	0.3871	0.82328	0.6067	-0.124
Mof_O 	O 	0.2195	0.79302	0.6507	-0.218
Mof_H 	H 	0.8723	0.5605	0.2022	0.14
Mof_H 	H 	0.9922	0.5421	0.2487	0.155
Mof_H 	H 	0.9271	0.5097	0.1946	0.156
Mof_H 	H 	0.359	0.8545	0.6084	0.082
Mof_C 	C 	0.1501	0.8418	0.6366	0.074
Mof_H 	H 	0.1984	0.8664	0.6613	0.05
Mof_H 	H 	0.1445	0.85	0.5946	0.026
Mof_C 	C 	0.0203	0.8391	0.6491	0.011
Mof_C 	C 	0.9256	0.8151	0.5979	-0.38
Mof_H 	H 	0.9906	0.8709	0.6551	0.008
Mof_H 	H 	0.0237	0.8214	0.6861	0.011
Mof_H 	H 	0.8429	0.8141	0.6078	0.237
Mof_H 	H 	0.9206	0.8328	0.5613	0.166
Mof_H 	H 	0.9536	0.7833	0.5924	0.227
Mof_O 	O 	0.298	0.68084	0.93974	-0.443
Mof_H 	H 	0.3	0.7086	0.958	0.215
Mof_O 	O 	0.6103	0.57424	0.55483	-0.695
Mof_H 	H 	0.66	0.5494	0.5796	0.158
Mof_O 	O 	0.8248	0.60123	0.6417	-0.426
Mof_H 	H 	0.826	0.608	0.6795	0.206
Mof_O 	O 	0.8679	0.6846	0.5746	-0.15
Mof_C 	C 	0.3746	0.8235	0.7847	-1.168
Mof_H 	H 	0.2835	0.8259	0.7721	0.355
Mof_H 	H 	0.4137	0.8351	0.7531	0.349
Mof_H 	H 	0.398	0.7909	0.7931	0.369
Mof_C 	C 	0.0996	0.8326	0.7051	0.058
Mof_H 	H 	0.132	0.816	0.7427	-0.024
Mof_H 	H 	0.0278	0.8148	0.6823	0.008
Mof_C 	C 	0.1994	0.8363	0.6704	-0.076
Mof_H 	H 	0.173	0.8577	0.6366	-0.041
Mof_H 	H 	0.2772	0.8485	0.6957	0.016
Mof_C 	C 	0.058	0.8811	0.7178	-0.473
Mof_H 	H 	0.992	0.8789	0.7406	0.169
Mof_H 	H 	0.1289	0.8985	0.7406	0.148
Mof_H 	H 	0.0251	0.8973	0.6805	0.165
Mof_O 	O 	0.8453	0.7873	0.5776	-0.257
Mof_O 	O 	0.89	0.6711	0.549	-0.127
Mof_Co	Co	0.42376	0.0459	0.46274	1.181
Mof_O 	O 	0.2375	0.05123	0.44039	-0.444
Mof_O 	O 	0.4484	0.07471	0.54514	-0.722
Mof_O 	O 	0.6138	0.01999	0.47968	-0.509
Mof_O 	O 	0.5886	0.99555	0.61029	-0.464
Mof_O 	O 	0.9816	0.39378	0.93142	-0.438
Mof_C 	C 	0.1547	0.06525	0.4665	0.362
Mof_Co	Co	0.32822	0.12975	0.54867	1.164
Mof_C 	C 	0.0263	0.04442	0.44563	-0.056
Mof_O 	O 	0.1698	0.09331	0.50897	-0.426
Mof_C 	C 	0.9289	0.05685	0.4722	-0.003
Mof_C 	C 	0.0108	0.00893	0.4028	-0.104
Mof_H 	H 	0.94	0.0809	0.5011	0.061
Mof_C 	C 	0.8142	0.0338	0.4563	-0.066
Mof_C 	C 	0.8965	0.9865	0.3873	0.152
Mof_H 	H 	0.0779	0.0004	0.3848	0.079
Mof_C 	C 	0.7136	0.04415	0.4892	0.357
Mof_C 	C 	0.7974	0.99921	0.4133	-0.091
Mof_O 	O 	0.8738	0.94914	0.3492	-0.222
Mof_O 	O 	0.7373	0.07624	0.52706	-0.451
Mof_H 	H 	0.7186	0.9843	0.4016	0.052
Mof_C 	C 	0.9789	0.92773	0.3308	-0.032
Mof_Co	Co	0.62309	0.08988	0.57905	1.171
Mof_H 	H 	0.0469	0.9216	0.3656	0.048
Mof_H 	H 	0.0114	0.9488	0.3036	0.05
Mof_C 	C 	0.9351	0.8827	0.2999	0.043
Mof_O 	O 	0.6626	0.15555	0.58811	-0.458
Mof_O 	O 	0.6835	0.05802	0.65517	-0.448
Mof_H 	H 	0.8659	0.8892	0.2657	0.021
Mof_H 	H 	0.9025	0.862	0.3274	0.022
Mof_C 	C 	0.0402	0.858	0.2785	-0.431
Mof_H 	H 	0.4248	0.0499	0.5711	0.149
Mof_C 	C 	0.6642	0.01387	0.6522	0.345
Mof_C 	C 	0.5801	0.18546	0.5915	0.353
Mof_H 	H 	0.0086	0.8289	0.2586	0.147
Mof_H 	H 	0.0716	0.8782	0.2507	0.153
Mof_H 	H 	0.1081	0.851	0.3123	0.152
Mof_O 	O 	0.4689	0.17684	0.59363	-0.442
Mof_O 	O 	0.8671	0.34297	0.9716	-0.425
Mof_C 	C 	0.7335	0.98594	0.7028	-0.069
Mof_C 	C 	0.62	0.2356	0.5929	-0.06
Mof_C 	C 	0.8142	0.00829	0.748	0.003
Mof_C 	C 	0.7167	0.93736	0.7041	-0.106
Mof_C 	C 	0.531	0.26982	0.5743	-0.006
Mof_C 	C 	0.7457	0.24696	0.6104	-0.086
Mof_Co	Co	0.9407	0.04503	0.02873	1.19
Mof_Co	Co	0.76789	0.1297	0.94079	1.194
Mof_H 	H 	0.8244	0.0411	0.7468	0.046
Mof_C 	C 	0.8804	0.98297	0.7954	-0.069
Mof_C 	C 	0.7801	0.91249	0.7532	0.146
Mof_H 	H 	0.6634	0.9218	0.6721	0.07
Mof_H 	H 	0.4451	0.2618	0.5622	0.049
Mof_C 	C 	0.5687	0.31573	0.5735	-0.055
Mof_C 	C 	0.7814	0.2936	0.6103	0.135
Mof_H 	H 	0.8066	0.2233	0.6224	0.073
Mof_O 	O 	0.7715	0.0517	0.04755	-0.435
Mof_O 	O 	0.6432	0.09319	0.97763	-0.402
Mof_C 	C 	0.9654	0.0087	0.8443	0.359
Mof_C 	C 	0.8623	0.93527	0.7993	-0.104
Mof_O 	O 	0.7691	0.86552	0.76055	-0.227
Mof_C 	C 	0.4771	0.35345	0.5499	0.331
Mof_C 	C 	0.6934	0.32798	0.5924	-0.089
Mof_O 	O 	0.9075	0.30211	0.6276	-0.145
Mof_C 	C 	0.6654	0.0667	0.0213	0.344
Mof_O 	O 	0.9879	0.0515	0.83346	-0.453
Mof_O 	O 	0.0083	0.98997	0.89193	-0.466
Mof_H 	H 	0.9049	0.9183	0.8328	0.081
Mof_C 	C 	0.6907	0.84037	0.7133	-0.019
Mof_O 	O 	0.3688	0.34236	0.52171	-0.411
Mof_O 	O 	0.5193	0.39449	0.55846	-0.436
Mof_H 	H 	0.7179	0.3598	0.593	0.081
Mof_C 	C 	0.9464	0.3499	0.6399	-0.451
Mof_C 	C 	0.5574	0.04907	0.0461	-0.054
Mof_O 	O 	0.1203	0.02187	0.01553	-0.534
Mof_Co	Co	0.0329	0.08587	0.90759	1.174
Mof_H 	H 	0.7245	0.8424	0.6769	0.038
Mof_H 	H 	0.6051	0.8535	0.7048	0.026
Mof_C 	C 	0.6884	0.7896	0.7333	0.044
Mof_H 	H 	0.9013	0.3638	0.6685	0.161
Mof_H 	H 	0.9277	0.3685	0.6031	0.164
Mof_C 	C 	0.0856	0.3497	0.6654	0.773
Mof_C 	C 	0.436	0.0578	0.016	-0.007
Mof_C 	C 	0.5815	0.02226	0.0973	-0.115
Mof_O 	O 	0.1926	0.07582	0.9625	-0.46
Mof_O 	O 	0.0612	0.15189	0.89472	-0.447
Mof_H 	H 	0.6585	0.7885	0.7708	0.021
Mof_H 	H 	0.6281	0.772	0.7033	0.014
Mof_C 	C 	0.8143	0.7663	0.7425	-0.432
Mof_C 	C 	0.1686	0.3337	0.6343	-1.209
Mof_C 	C 	0.3374	0.0399	0.0378	-0.074
Mof_H 	H 	0.4207	0.0758	0.9808	0.066
Mof_C 	C 	0.4836	0.0054	0.1195	0.155
Mof_H 	H 	0.6651	0.0157	0.1168	0.081
Mof_C 	C 	0.2071	0.04645	0.003	0.383
Mof_C 	C 	0.9812	0.18352	0.8974	0.352
Mof_H 	H 	0.8072	0.734	0.7552	0.151
Mof_H 	H 	0.8437	0.7665	0.7053	0.159
Mof_H 	H 	0.874	0.7831	0.7729	0.163
Mof_H 	H 	0.2535	0.3365	0.6583	0.36
Mof_H 	H 	0.1507	0.3009	0.624	0.383
Mof_H 	H 	0.1617	0.3521	0.5981	0.374
Mof_C 	C 	0.3593	0.015	0.091	-0.09
Mof_O 	O 	0.4947	0.97767	0.169	-0.198
Mof_O 	O 	0.8714	0.17703	0.90177	-0.433
Mof_C 	C 	0.0272	0.23292	0.8954	-0.044
Mof_H 	H 	0.2916	0.0048	0.1075	0.072
Mof_C 	C 	0.6192	0.9696	0.2041	-0.035
Mof_C 	C 	0.9671	0.26837	0.9188	-0.021
Mof_C 	C 	0.1309	0.242	0.8719	-0.11
Mof_H 	H 	0.675	0.9601	0.1777	0.046
Mof_H 	H 	0.616	0.9437	0.232	0.051
Mof_C 	C 	0.6731	0.0125	0.2387	0.041
Mof_H 	H 	0.897	0.2618	0.9357	0.067
Mof_C 	C 	0.0104	0.31364	0.9173	-0.042
Mof_C 	C 	0.1744	0.2873	0.872	0.16
Mof_H 	H 	0.1717	0.2175	0.8558	0.088
Mof_H 	H 	0.6892	0.0366	0.2106	0.003
Mof_H 	H 	0.7542	0.0042	0.2646	0.019
Mof_C 	C 	0.5877	0.0331	0.2767	-0.424
Mof_C 	C 	0.9468	0.35337	0.942	0.336
Mof_C 	C 	0.1129	0.32328	0.8933	-0.121
Mof_O 	O 	0.2805	0.29302	0.8493	-0.217
Mof_H 	H 	0.6277	0.0605	0.2978	0.14
Mof_H 	H 	0.5078	0.0421	0.2513	0.155
Mof_H 	H 	0.5729	0.0097	0.3054	0.156
Mof_H 	H 	0.141	0.3545	0.8916	0.08
Mof_C 	C 	0.3499	0.3418	0.8634	0.074
Mof_H 	H 	0.3016	0.3664	0.8387	0.05
Mof_H 	H 	0.3555	0.35	0.9054	0.026
Mof_C 	C 	0.4797	0.3391	0.8509	0.012
Mof_C 	C 	0.5744	0.3151	0.9021	-0.381
Mof_H 	H 	0.5094	0.3709	0.8449	0.008
Mof_H 	H 	0.4763	0.3214	0.8139	0.011
Mof_H 	H 	0.6571	0.3141	0.8922	0.237
Mof_H 	H 	0.5794	0.3328	0.9387	0.166
Mof_H 	H 	0.5464	0.2833	0.9076	0.228
Mof_O 	O 	0.202	0.18084	0.56026	-0.443
Mof_H 	H 	0.2	0.2086	0.542	0.215
Mof_O 	O 	0.8897	0.07424	0.94517	-0.694
Mof_H 	H 	0.84	0.0494	0.9204	0.158
Mof_O 	O 	0.6752	0.10123	0.8583	-0.426
Mof_H 	H 	0.674	0.108	0.8205	0.206
Mof_O 	O 	0.6321	0.1846	0.9254	-0.15
Mof_C 	C 	0.1254	0.3235	0.7153	-1.166
Mof_H 	H 	0.2165	0.3259	0.7279	0.354
Mof_H 	H 	0.0863	0.3351	0.7469	0.348
Mof_H 	H 	0.102	0.2909	0.7069	0.369
Mof_C 	C 	0.4004	0.3326	0.7949	0.057
Mof_H 	H 	0.368	0.316	0.7573	-0.024
Mof_H 	H 	0.4722	0.3148	0.8177	0.008
Mof_C 	C 	0.3006	0.3363	0.8296	-0.076
Mof_H 	H 	0.327	0.3577	0.8634	-0.041
Mof_H 	H 	0.2228	0.3485	0.8043	0.016
Mof_C 	C 	0.442	0.3811	0.7822	-0.472
Mof_H 	H 	0.508	0.3789	0.7594	0.168
Mof_H 	H 	0.3711	0.3985	0.7594	0.148
Mof_H 	H 	0.4749	0.3973	0.8195	0.165
Mof_O 	O 	0.6547	0.2873	0.9224	-0.257
Mof_O 	O 	0.61	0.1711	0.951	-0.127
Mof_Co	Co	0.92376	0.4541	0.96274	1.181
Mof_O 	O 	0.7375	0.44877	0.94039	-0.444
Mof_O 	O 	0.9484	0.42529	0.04514	-0.722
Mof_O 	O 	0.1138	0.48001	0.97968	-0.509
Mof_O 	O 	0.0886	0.50445	0.11029	-0.464
Mof_O 	O 	0.4816	0.10622	0.43142	-0.438
Mof_C 	C 	0.6547	0.43475	0.9665	0.362
Mof_Co	Co	0.82822	0.37025	0.04867	1.164
Mof_C 	C 	0.5263	0.45558	0.94563	-0.056
Mof_O 	O 	0.6698	0.40669	0.00897	-0.427
Mof_C 	C 	0.4289	0.44315	0.9722	-0.003
Mof_C 	C 	0.5108	0.49107	0.9028	-0.104
Mof_H 	H 	0.44	0.4191	0.0011	0.061
Mof_C 	C 	0.3142	0.4662	0.9563	-0.066
Mof_C 	C 	0.3965	0.5135	0.8873	0.152
Mof_H 	H 	0.5779	0.4996	0.8848	0.079
Mof_C 	C 	0.2136	0.45585	0.9892	0.357
Mof_C 	C 	0.2974	0.50079	0.9133	-0.092
Mof_O 	O 	0.3738	0.55086	0.8492	-0.223
Mof_O 	O 	0.2373	0.42376	0.02706	-0.45
Mof_H 	H 	0.2186	0.5157	0.9016	0.053
Mof_C 	C 	0.4789	0.57227	0.8308	-0.031
Mof_Co	Co	0.12309	0.41012	0.07905	1.171
Mof_H 	H 	0.5469	0.5784	0.8656	0.047
Mof_H 	H 	0.5114	0.5512	0.8036	0.05
Mof_C 	C 	0.4351	0.6173	0.7999	0.043
Mof_O 	O 	0.1626	0.34445	0.08811	-0.458
Mof_O 	O 	0.1835	0.44198	0.15517	-0.448
Mof_H 	H 	0.3659	0.6108	0.7657	0.021
Mof_H 	H 	0.4025	0.638	0.8274	0.022
Mof_C 	C 	0.5402	0.642	0.7785	-0.432
Mof_H 	H 	0.9248	0.4501	0.0711	0.149
Mof_C 	C 	0.1642	0.48613	0.1522	0.345
Mof_C 	C 	0.0801	0.31454	0.0915	0.354
Mof_H 	H 	0.5086	0.6711	0.7586	0.147
Mof_H 	H 	0.5716	0.6218	0.7507	0.153
Mof_H 	H 	0.6081	0.649	0.8123	0.153
Mof_O 	O 	0.9689	0.32316	0.09363	-0.442
Mof_O 	O 	0.3671	0.15703	0.4716	-0.425
Mof_C 	C 	0.2335	0.51406	0.2028	-0.069
Mof_C 	C 	0.12	0.2644	0.0929	-0.06
Mof_C 	C 	0.3142	0.49171	0.248	0.003
Mof_C 	C 	0.2167	0.56264	0.2041	-0.106
Mof_C 	C 	0.031	0.23018	0.0743	-0.006
Mof_C 	C 	0.2457	0.25304	0.1104	-0.086
Mof_Co	Co	0.4407	0.45497	0.52873	1.19
Mof_Co	Co	0.26789	0.3703	0.44079	1.194
Mof_H 	H 	0.3244	0.4589	0.2468	0.046
Mof_C 	C 	0.3804	0.51703	0.2954	-0.07
Mof_C 	C 	0.2801	0.58751	0.2532	0.146
Mof_H 	H 	0.1634	0.5782	0.1721	0.07
Mof_H 	H 	0.9451	0.2382	0.0622	0.049
Mof_C 	C 	0.0687	0.18427	0.0735	-0.054
Mof_C 	C 	0.2814	0.2064	0.1103	0.135
Mof_H 	H 	0.3066	0.2767	0.1224	0.072
Mof_O 	O 	0.2715	0.4483	0.54755	-0.435
Mof_O 	O 	0.1432	0.40681	0.47763	-0.402
Mof_C 	C 	0.4654	0.4913	0.3443	0.358
Mof_C 	C 	0.3623	0.56473	0.2993	-0.104
Mof_O 	O 	0.2691	0.63448	0.26055	-0.227
Mof_C 	C 	0.9771	0.14655	0.0499	0.33
Mof_C 	C 	0.1934	0.17202	0.0924	-0.089
Mof_O 	O 	0.4075	0.19789	0.1276	-0.145
Mof_C 	C 	0.1654	0.4333	0.5213	0.345
Mof_O 	O 	0.4879	0.4485	0.33346	-0.454
Mof_O 	O 	0.5083	0.51003	0.39193	-0.465
Mof_H 	H 	0.4049	0.5817	0.3328	0.081
Mof_C 	C 	0.1907	0.65963	0.2133	-0.019
Mof_O 	O 	0.8688	0.15764	0.02171	-0.411
Mof_O 	O 	0.0193	0.10551	0.05846	-0.435
Mof_H 	H 	0.2179	0.1402	0.093	0.081
Mof_C 	C 	0.4464	0.1501	0.1399	-0.453
Mof_C 	C 	0.0574	0.45093	0.5461	-0.055
Mof_O 	O 	0.6203	0.47813	0.51553	-0.535
Mof_Co	Co	0.5329	0.41413	0.40759	1.174
Mof_H 	H 	0.2245	0.6576	0.1769	0.038
Mof_H 	H 	0.1051	0.6465	0.2048	0.027
Mof_C 	C 	0.1884	0.7104	0.2333	0.044
Mof_H 	H 	0.4013	0.1362	0.1685	0.161
Mof_H 	H 	0.4277	0.1315	0.1031	0.164
Mof_C 	C 	0.5856	0.1503	0.1654	0.775
Mof_C 	C 	0.936	0.4422	0.516	-0.007
Mof_C 	C 	0.0815	0.47774	0.5973	-0.115
Mof_O 	O 	0.6926	0.42418	0.4625	-0.459
Mof_O 	O 	0.5612	0.34811	0.39472	-0.446
Mof_H 	H 	0.1585	0.7115	0.2708	0.022
Mof_H 	H 	0.1281	0.728	0.2033	0.014
Mof_C 	C 	0.3143	0.7337	0.2425	-0.432
Mof_C 	C 	0.6686	0.1663	0.1343	-1.211
Mof_C 	C 	0.8374	0.4601	0.5378	-0.073
Mof_H 	H 	0.9207	0.4242	0.4808	0.066
Mof_C 	C 	0.9836	0.4946	0.6195	0.156
Mof_H 	H 	0.1651	0.4843	0.6168	0.081
Mof_C 	C 	0.7071	0.45355	0.503	0.382
Mof_C 	C 	0.4812	0.31648	0.3974	0.349
Mof_H 	H 	0.3072	0.766	0.2552	0.151
Mof_H 	H 	0.3437	0.7335	0.2053	0.159
Mof_H 	H 	0.374	0.7169	0.2729	0.163
Mof_H 	H 	0.7535	0.1635	0.1583	0.36
Mof_H 	H 	0.6507	0.1991	0.124	0.384
Mof_H 	H 	0.6617	0.1479	0.0981	0.374
Mof_C 	C 	0.8593	0.485	0.591	-0.09
Mof_O 	O 	0.9947	0.52233	0.669	-0.198
Mof_O 	O 	0.3714	0.32297	0.40177	-0.432
Mof_C 	C 	0.5272	0.26708	0.3954	-0.039
Mof_H 	H 	0.7916	0.4952	0.6075	0.072
Mof_C 	C 	0.1192	0.5304	0.7041	-0.035
Mof_C 	C 	0.4671	0.23163	0.4188	-0.027
Mof_C 	C 	0.6309	0.258	0.3719	-0.113
Mof_H 	H 	0.175	0.5399	0.6777	0.046
Mof_H 	H 	0.116	0.5563	0.732	0.051
Mof_C 	C 	0.1731	0.4875	0.7387	0.041
Mof_H 	H 	0.397	0.2382	0.4357	0.069
Mof_C 	C 	0.5104	0.18636	0.4173	-0.037
Mof_C 	C 	0.6744	0.2127	0.372	0.162
Mof_H 	H 	0.6717	0.2825	0.3558	0.089
Mof_H 	H 	0.1892	0.4634	0.7106	0.003
Mof_H 	H 	0.2542	0.4958	0.7646	0.019
Mof_C 	C 	0.0877	0.4669	0.7767	-0.424
Mof_C 	C 	0.4468	0.14663	0.442	0.334
Mof_C 	C 	0.6129	0.17672	0.3933	-0.124
Mof_O 	O 	0.7805	0.20698	0.3493	-0.218
Mof_H 	H 	0.1277	0.4395	0.7978	0.14
Mof_H 	H 	0.0078	0.4579	0.7513	0.155
Mof_H 	H 	0.0729	0.4903	0.8054	0.156
Mof_H 	H 	0.641	0.1455	0.3916	0.082
Mof_C 	C 	0.8499	0.1582	0.3634	0.074
Mof_H 	H 	0.8016	0.1336	0.3387	0.05
Mof_H 	H 	0.8555	0.15	0.4054	0.026
Mof_C 	C 	0.9797	0.1609	0.3509	0.011
Mof_C 	C 	0.0744	0.1849	0.4021	-0.38
Mof_H 	H 	0.0094	0.1291	0.3449	0.008
Mof_H 	H 	0.9763	0.1786	0.3139	0.011
Mof_H 	H 	0.1571	0.1859	0.3922	0.237
Mof_H 	H 	0.0794	0.1672	0.4387	0.166
Mof_H 	H 	0.0464	0.2167	0.4076	0.227
Mof_O 	O 	0.702	0.31916	0.06026	-0.443
Mof_H 	H 	0.7	0.2914	0.042	0.215
Mof_O 	O 	0.3897	0.42576	0.44517	-0.695
Mof_H 	H 	0.34	0.4506	0.4204	0.158
Mof_O 	O 	0.1752	0.39877	0.3583	-0.426
Mof_H 	H 	0.174	0.392	0.3205	0.206
Mof_O 	O 	0.1321	0.3154	0.4254	-0.15
Mof_C 	C 	0.6254	0.1765	0.2153	-1.168
Mof_H 	H 	0.7165	0.1741	0.2279	0.355
Mof_H 	H 	0.5863	0.1649	0.2469	0.349
Mof_H 	H 	0.602	0.2091	0.2069	0.369
Mof_C 	C 	0.9004	0.1674	0.2949	0.058
Mof_H 	H 	0.868	0.184	0.2573	-0.024
Mof_H 	H 	0.9722	0.1852	0.3177	0.008
Mof_C 	C 	0.8006	0.1637	0.3296	-0.076
Mof_H 	H 	0.827	0.1423	0.3634	-0.041
Mof_H 	H 	0.7228	0.1515	0.3043	0.016
Mof_C 	C 	0.942	0.1189	0.2822	-0.473
Mof_H 	H 	0.008	0.1211	0.2594	0.169
Mof_H 	H 	0.8711	0.1015	0.2594	0.148
Mof_H 	H 	0.9749	0.1027	0.3195	0.165
Mof_O 	O 	0.1547	0.2127	0.4224	-0.257
Mof_O 	O 	0.11	0.3289	0.451	-0.127
Mof_Co	Co	0.57624	0.9541	0.53726	1.181
Mof_O 	O 	0.7625	0.94877	0.55961	-0.444
Mof_O 	O 	0.5516	0.92529	0.45486	-0.722
Mof_O 	O 	0.3862	0.98001	0.52032	-0.509
Mof_O 	O 	0.4114	0.00445	0.38971	-0.464
Mof_O 	O 	0.0184	0.60622	0.06858	-0.438
Mof_C 	C 	0.8453	0.93475	0.5335	0.362
Mof_Co	Co	0.67178	0.87025	0.45133	1.164
Mof_C 	C 	0.9737	0.95558	0.55437	-0.056
Mof_O 	O 	0.8302	0.90669	0.49103	-0.426
Mof_C 	C 	0.0711	0.94315	0.5278	-0.003
Mof_C 	C 	0.9892	0.99107	0.5972	-0.104
Mof_H 	H 	0.06	0.9191	0.4989	0.061
Mof_C 	C 	0.1858	0.9662	0.5437	-0.066
Mof_C 	C 	0.1035	0.0135	0.6127	0.152
Mof_H 	H 	0.9221	0.9996	0.6152	0.079
Mof_C 	C 	0.2864	0.95585	0.5108	0.357
Mof_C 	C 	0.2026	0.00079	0.5867	-0.091
Mof_O 	O 	0.1262	0.05086	0.6508	-0.222
Mof_O 	O 	0.2627	0.92376	0.47294	-0.451
Mof_H 	H 	0.2814	0.0157	0.5984	0.052
Mof_C 	C 	0.0211	0.07227	0.6692	-0.032
Mof_Co	Co	0.37691	0.91012	0.42095	1.171
Mof_H 	H 	0.9531	0.0784	0.6344	0.048
Mof_H 	H 	0.9886	0.0512	0.6964	0.05
Mof_C 	C 	0.0649	0.1173	0.7001	0.043
Mof_O 	O 	0.3374	0.84445	0.41189	-0.458
Mof_O 	O 	0.3165	0.94198	0.34483	-0.448
Mof_H 	H 	0.1341	0.1108	0.7343	0.021
Mof_H 	H 	0.0975	0.138	0.6726	0.022
Mof_C 	C 	0.9598	0.142	0.7215	-0.431
Mof_H 	H 	0.5752	0.9501	0.4289	0.149
Mof_C 	C 	0.3358	0.98613	0.3478	0.345
Mof_C 	C 	0.4199	0.81454	0.4085	0.353
Mof_H 	H 	0.9914	0.1711	0.7414	0.147
Mof_H 	H 	0.9284	0.1218	0.7493	0.153
Mof_H 	H 	0.8919	0.149	0.6877	0.152
Mof_O 	O 	0.5311	0.82316	0.40637	-0.442
Mof_O 	O 	0.1329	0.65703	0.0284	-0.425
Mof_C 	C 	0.2665	0.01406	0.2972	-0.069
Mof_C 	C 	0.38	0.7644	0.4071	-0.06
Mof_C 	C 	0.1858	0.99171	0.252	0.003
Mof_C 	C 	0.2833	0.06264	0.2959	-0.106
Mof_C 	C 	0.469	0.73018	0.4257	-0.006
Mof_C 	C 	0.2543	0.75304	0.3896	-0.086
Mof_Co	Co	0.0593	0.95497	0.97127	1.19
Mof_Co	Co	0.23211	0.8703	0.05921	1.194
Mof_H 	H 	0.1756	0.9589	0.2532	0.046
Mof_C 	C 	0.1196	0.01703	0.2046	-0.069
Mof_C 	C 	0.2199	0.08751	0.2468	0.146
Mof_H 	H 	0.3366	0.0782	0.3279	0.07
Mof_H 	H 	0.5549	0.7382	0.4378	0.049
Mof_C 	C 	0.4313	0.68427	0.4265	-0.055
Mof_C 	C 	0.2186	0.7064	0.3897	0.135
Mof_H 	H 	0.1934	0.7767	0.3776	0.073
Mof_O 	O 	0.2285	0.9483	0.95245	-0.435
Mof_O 	O 	0.3568	0.90681	0.02237	-0.402
Mof_C 	C 	0.0346	0.9913	0.1557	0.359
Mof_C 	C 	0.1377	0.06473	0.2007	-0.104
Mof_O 	O 	0.2309	0.13448	0.23945	-0.227
Mof_C 	C 	0.5229	0.64655	0.4501	0.331
Mof_C 	C 	0.3066	0.67202	0.4076	-0.089
Mof_O 	O 	0.0925	0.69789	0.3724	-0.145
Mof_C 	C 	0.3346	0.9333	0.9787	0.344
Mof_O 	O 	0.0121	0.9485	0.16654	-0.453
Mof_O 	O 	0.9917	0.01003	0.10807	-0.466
Mof_H 	H 	0.0951	0.0817	0.1672	0.081
Mof_C 	C 	0.3093	0.15963	0.2867	-0.019
Mof_O 	O 	0.6312	0.65764	0.47829	-0.411
Mof_O 	O 	0.4807	0.60551	0.44154	-0.436
Mof_H 	H 	0.2821	0.6402	0.407	0.081
Mof_C 	C 	0.0536	0.6501	0.3601	-0.451
Mof_C 	C 	0.4426	0.95093	0.9539	-0.054
Mof_O 	O 	0.8797	0.97813	0.98447	-0.534
Mof_Co	Co	0.9671	0.91413	0.09241	1.174
Mof_H 	H 	0.2755	0.1576	0.3231	0.038
Mof_H 	H 	0.3949	0.1465	0.2952	0.026
Mof_C 	C 	0.3116	0.2104	0.2667	0.044
Mof_H 	H 	0.0987	0.6362	0.3315	0.161
Mof_H 	H 	0.0723	0.6315	0.3969	0.164
Mof_C 	C 	0.9144	0.6503	0.3346	0.773
Mof_C 	C 	0.564	0.9422	0.984	-0.007
Mof_C 	C 	0.4185	0.97774	0.9027	-0.115
Mof_O 	O 	0.8074	0.92418	0.0375	-0.46
Mof_O 	O 	0.9388	0.84811	0.10528	-0.447
Mof_H 	H 	0.3415	0.2115	0.2292	0.021
Mof_H 	H 	0.3719	0.228	0.2967	0.014
Mof_C 	C 	0.1857	0.2337	0.2575	-0.432
Mof_C 	C 	0.8314	0.6663	0.3657	-1.209
Mof_C 	C 	0.6626	0.9601	0.9622	-0.074
Mof_H 	H 	0.5793	0.9242	0.0192	0.066
Mof_C 	C 	0.5164	0.9946	0.8805	0.155
Mof_H 	H 	0.3349	0.9843	0.8832	0.081
Mof_C 	C 	0.7929	0.95355	0.997	0.383
Mof_C 	C 	0.0188	0.81648	0.1026	0.352
Mof_H 	H 	0.1928	0.266	0.2448	0.151
Mof_H 	H 	0.1563	0.2335	0.2947	0.159
Mof_H 	H 	0.126	0.2169	0.2271	0.163
Mof_H 	H 	0.7465	0.6635	0.3417	0.36
Mof_H 	H 	0.8493	0.6991	0.376	0.383
Mof_H 	H 	0.8383	0.6479	0.4019	0.374
Mof_C 	C 	0.6407	0.985	0.909	-0.09
Mof_O 	O 	0.5053	0.02233	0.831	-0.198
Mof_O 	O 	0.1286	0.82297	0.09823	-0.433
Mof_C 	C 	0.9728	0.76708	0.1046	-0.044
Mof_H 	H 	0.7084	0.9952	0.8925	0.072
Mof_C 	C 	0.3808	0.0304	0.7959	-0.035
Mof_C 	C 	0.0329	0.73163	0.0812	-0.021
Mof_C 	C 	0.8691	0.758	0.1281	-0.11
Mof_H 	H 	0.325	0.0399	0.8223	0.046
Mof_H 	H 	0.384	0.0563	0.768	0.051
Mof_C 	C 	0.3269	0.9875	0.7613	0.041
Mof_H 	H 	0.103	0.7382	0.0643	0.067
Mof_C 	C 	0.9896	0.68636	0.0827	-0.042
Mof_C 	C 	0.8256	0.7127	0.128	0.16
Mof_H 	H 	0.8283	0.7825	0.1442	0.088
Mof_H 	H 	0.3108	0.9634	0.7894	0.003
Mof_H 	H 	0.2458	0.9958	0.7354	0.019
Mof_C 	C 	0.4123	0.9669	0.7233	-0.424
Mof_C 	C 	0.0532	0.64663	0.058	0.336
Mof_C 	C 	0.8871	0.67672	0.1067	-0.121
Mof_O 	O 	0.7195	0.70698	0.1507	-0.217
Mof_H 	H 	0.3723	0.9395	0.7022	0.14
Mof_H 	H 	0.4922	0.9579	0.7487	0.155
Mof_H 	H 	0.4271	0.9903	0.6946	0.156
Mof_H 	H 	0.859	0.6455	0.1084	0.08
Mof_C 	C 	0.6501	0.6582	0.1366	0.074
Mof_H 	H 	0.6984	0.6336	0.1613	0.05
Mof_H 	H 	0.6445	0.65	0.0946	0.026
Mof_C 	C 	0.5203	0.6609	0.1491	0.012
Mof_C 	C 	0.4256	0.6849	0.0979	-0.381
Mof_H 	H 	0.4906	0.6291	0.1551	0.008
Mof_H 	H 	0.5237	0.6786	0.1861	0.011
Mof_H 	H 	0.3429	0.6859	0.1078	0.237
Mof_H 	H 	0.4206	0.6672	0.0613	0.166
Mof_H 	H 	0.4536	0.7167	0.0924	0.228
Mof_O 	O 	0.798	0.81916	0.43974	-0.443
Mof_H 	H 	0.8	0.7914	0.458	0.215
Mof_O 	O 	0.1103	0.92576	0.05483	-0.694
Mof_H 	H 	0.16	0.9506	0.0796	0.158
Mof_O 	O 	0.3248	0.89877	0.1417	-0.426
Mof_H 	H 	0.326	0.892	0.1795	0.206
Mof_O 	O 	0.3679	0.8154	0.0746	-0.15
Mof_C 	C 	0.8746	0.6765	0.2847	-1.166
Mof_H 	H 	0.7835	0.6741	0.2721	0.354
Mof_H 	H 	0.9137	0.6649	0.2531	0.348
Mof_H 	H 	0.898	0.7091	0.2931	0.369
Mof_C 	C 	0.5996	0.6674	0.2051	0.057
Mof_H 	H 	0.632	0.684	0.2427	-0.024
Mof_H 	H 	0.5278	0.6852	0.1823	0.008
Mof_C 	C 	0.6994	0.6637	0.1704	-0.076
Mof_H 	H 	0.673	0.6423	0.1366	-0.041
Mof_H 	H 	0.7772	0.6515	0.1957	0.016
Mof_C 	C 	0.558	0.6189	0.2178	-0.472
Mof_H 	H 	0.492	0.6211	0.2406	0.168
Mof_H 	H 	0.6289	0.6015	0.2406	0.148
Mof_H 	H 	0.5251	0.6027	0.1805	0.165
Mof_O 	O 	0.3453	0.7127	0.0776	-0.257
Mof_O 	O 	0.39	0.8289	0.049	-0.127
_end
