data_functionalizedCrystal
_audit_creation_method	'EQeq! by Chris Wilmer'
_symmetry_space_group_name_H-M	'P1'
_symmetry_Int_Tables_number	1
_symmetry_cell_setting	triclinic
loop_
_symmetry_equiv_pos_as_xyz
  x,y,z
_cell_length_a	27.59
_cell_length_b	27.59
_cell_length_c	21.891
_cell_angle_alpha	90
_cell_angle_beta	90
_cell_angle_gamma	120
loop_
_atom_site_label
_atom_site_type_symbol
_atom_site_fract_x
_atom_site_fract_y
_atom_site_fract_z
_atom_site_charge
Mof_Zn	Zn	0.88055	0.54806	0.47334	1.175
Mof_Zn	Zn	0.66751	0.54801	0.47338	1.175
Mof_N 	N 	0.5988	0.4822	0.5061	-0.312
Mof_N 	N 	0.6665	0.5306	0.2825	-0.312
Mof_N 	N 	0.5178	0.4009	0.5062	-0.312
Mof_N 	N 	0.8178	0.5537	0.5069	-0.258
Mof_N 	N 	0.6666	0.5309	0.384	-0.311
Mof_N 	N 	0.7357	0.5531	0.5071	-0.269
Mof_C 	C 	0.5551	0.445	0.4759	0.212
Mof_C 	C 	0.7822	0.5612	0.483	-0.231
Mof_C 	C 	0.666	0.4843	0.3033	-0.009
Mof_H 	H 	0.6648	0.4557	0.2782	-0.012
Mof_C 	C 	0.6667	0.5576	0.3334	0.215
Mof_C 	C 	0.5246	0.4239	0.5653	0.063
Mof_C 	C 	0.5763	0.4747	0.5645	0.082
Mof_C 	C 	0.7328	0.5117	0.5545	-0.007
Mof_H 	H 	0.7016	0.4893	0.58	0.043
Mof_C 	C 	0.4938	0.404	0.6178	-0.175
Mof_H 	H 	0.4587	0.3703	0.6173	0.097
Mof_C 	C 	0.5968	0.5067	0.6179	-0.185
Mof_H 	H 	0.6303	0.542	0.618	0.112
Mof_C 	C 	0.5644	0.4834	0.6718	0.161
Mof_C 	C 	0.5152	0.4342	0.6723	0.147
Mof_C 	C 	0.7786	0.512	0.5544	-0.028
Mof_H 	H 	0.7874	0.4896	0.58	0.046
Mof_C 	C 	0.7992	0.598	0.4282	-0.476
Mof_H 	H 	0.8398	0.6236	0.4293	0.168
Mof_H 	H 	0.7799	0.6196	0.4283	0.16
Mof_H 	H 	0.7894	0.575	0.3912	0.128
Mof_C 	C 	0.6675	0.4846	0.3632	-0.022
Mof_H 	H 	0.6691	0.4572	0.388	-0.007
Mof_C 	C 	0.6665	0.6137	0.3335	-0.641
Mof_H 	H 	0.7031	0.6439	0.3198	0.21
Mof_H 	H 	0.6591	0.6217	0.3749	0.188
Mof_H 	H 	0.6374	0.6109	0.3058	0.212
Mof_Cl	Cl	0.5932	0.5196	0.7389	-0.473
Mof_N 	N 	0.0471	0.6612	0.5068	-0.304
Mof_N 	N 	0.9534	0.6138	0.4937	-0.3
Mof_C 	C 	0.9999	0.6137	0.5003	0.109
Mof_H 	H 	1.44002e-17	0.5793	0.5004	-0.067
Mof_C 	C 	0.035	0.779	0.4385	0.127
Mof_C 	C 	0.977	0.7512	0.4349	0.081
Mof_C 	C 	0.9455	0.6969	0.4571	0.143
Mof_C 	C 	0.9722	0.6704	0.4829	-0.114
Mof_C 	C 	0.0302	0.6982	0.4866	-0.228
Mof_C 	C 	0.0617	0.7525	0.4643	0.121
Mof_Cl	Cl	0.064	0.8499	0.419	-0.186
Mof_Cl	Cl	0.9028	0.7051	0.6867	-1.477
Mof_C 	C 	0.7705	0.5916	0.5541	-0.12
Mof_C 	C 	0.8207	0.5914	0.5534	-0.072
Mof_C 	C 	0.7618	0.6253	0.6001	0.682
Mof_C 	C 	0.5315	0.4678	0.4269	-0.575
Mof_H 	H 	0.5123	0.4854	0.4468	0.173
Mof_H 	H 	0.505	0.437	0.4009	0.158
Mof_H 	H 	0.5623	0.4957	0.4018	0.158
Mof_C 	C 	0.6013	0.4455	0.5515	-0.058
Mof_H 	H 	0.6325	0.4544	0.5771	0.048
Mof_C 	C 	0.5546	0.3989	0.5518	-0.039
Mof_H 	H 	0.5457	0.3681	0.5779	0.04
Mof_C 	C 	0.7713	0.544	0.473	0.385
Mof_C 	C 	0.8645	0.6273	0.5992	0.601
Mof_C 	C 	0.8023	0.6555	0.6378	0.95
Mof_C 	C 	0.7562	0.7005	0.4751	-0.086
Mof_C 	C 	0.6985	0.6705	0.4835	0.252
Mof_C 	C 	0.6686	0.6985	0.4888	0.124
Mof_C 	C 	0.6964	0.7566	0.4859	-0.163
Mof_C 	C 	0.754	0.7867	0.4775	-0.149
Mof_C 	C 	0.7839	0.7586	0.4722	0.155
Mof_C 	C 	0.8525	0.6569	0.6366	0.114
Mof_C 	C 	0.692	0.752	0.462	0.065
Mof_C 	C 	0.7379	0.7842	0.427	0.239
Mof_C 	C 	0.749	0.691	0.456	0.034
Mof_C 	C 	0.7753	0.751	0.438	0.159
Mof_C 	C 	0.698	0.756	0.519	-0.031
Mof_C 	C 	0.763	0.7841	0.5275	0.217
Mof_C 	C 	0.758	0.699	0.51	-0.091
Mof_Cl	Cl	0.7925	0.8552	0.474	0.051
Mof_Cl	Cl	0.8533	0.7969	0.46	-0.181
Mof_Cl	Cl	0.8411	0.7829	0.404	0.164
Mof_Cl	Cl	0.7851	0.8497	0.418	-0.189
Mof_Cl	Cl	0.8562	0.7907	0.531	0.061
Mof_Cl	Cl	0.7805	0.8403	0.598	0.272
Mof_Cl	Cl	0.7966	0.8534	0.547	-0.231
Mof_C 	C 	0.7894	0.7535	0.521	-0.105
Mof_Cl	Cl	0.4796	0.4066	0.7388	-0.54
Mof_Cl	Cl	0.8644	0.6291	0.6464	-0.92
Mof_Zn	Zn	0.54722	0.88139	0.80667	1.174
Mof_Zn	Zn	0.33418	0.88134	0.80671	1.174
Mof_N 	N 	0.26547	0.81553	0.83943	-0.313
Mof_N 	N 	0.33317	0.86393	0.61583	-0.313
Mof_N 	N 	0.18447	0.73423	0.83953	-0.313
Mof_N 	N 	0.48447	0.88703	0.84023	-0.259
Mof_N 	N 	0.33327	0.86423	0.71733	-0.312
Mof_N 	N 	0.40237	0.88643	0.84043	-0.269
Mof_C 	C 	0.22177	0.77833	0.80923	0.212
Mof_C 	C 	0.44887	0.89453	0.81633	-0.231
Mof_C 	C 	0.33267	0.81763	0.63663	-0.009
Mof_H 	H 	0.33147	0.78903	0.61153	-0.012
Mof_C 	C 	0.33337	0.89093	0.66673	0.215
Mof_C 	C 	0.19127	0.75723	0.89863	0.062
Mof_C 	C 	0.24297	0.80803	0.89783	0.081
Mof_C 	C 	0.39947	0.84503	0.88783	-0.007
Mof_H 	H 	0.36827	0.82263	0.91333	0.043
Mof_C 	C 	0.16047	0.73733	0.95113	-0.171
Mof_H 	H 	0.12537	0.70363	0.95063	0.097
Mof_C 	C 	0.26347	0.84003	0.95123	-0.181
Mof_H 	H 	0.29697	0.87533	0.95133	0.111
Mof_C 	C 	0.23107	0.81673	0.00513	0.157
Mof_C 	C 	0.18187	0.76753	0.00563	0.143
Mof_C 	C 	0.44527	0.84533	0.88773	-0.028
Mof_H 	H 	0.45407	0.82293	0.91333	0.047
Mof_C 	C 	0.46587	0.93133	0.76153	-0.476
Mof_H 	H 	0.50647	0.95693	0.76263	0.168
Mof_H 	H 	0.44657	0.95293	0.76163	0.161
Mof_H 	H 	0.45607	0.90833	0.72453	0.128
Mof_C 	C 	0.33417	0.81793	0.69653	-0.022
Mof_H 	H 	0.33577	0.79053	0.72133	-0.007
Mof_C 	C 	0.33317	0.94703	0.66683	-0.642
Mof_H 	H 	0.36977	0.97723	0.65313	0.21
Mof_H 	H 	0.32577	0.95503	0.70823	0.189
Mof_H 	H 	0.30407	0.94423	0.63913	0.212
Mof_Cl	Cl	0.25987	0.85293	0.07223	-0.475
Mof_N 	N 	0.71377	0.99453	0.84013	-0.304
Mof_N 	N 	0.62007	0.94713	0.82703	-0.301
Mof_C 	C 	0.66657	0.94703	0.83363	0.112
Mof_H 	H 	0.66667	0.91263	0.83373	-0.069
Mof_C 	C 	0.70167	0.11233	0.77183	0.126
Mof_C 	C 	0.64367	0.08453	0.76823	0.074
Mof_C 	C 	0.61217	0.03023	0.79043	0.141
Mof_C 	C 	0.63887	0.00373	0.81623	-0.106
Mof_C 	C 	0.69687	0.03153	0.81993	-0.221
Mof_C 	C 	0.72837	0.08583	0.79763	0.123
Mof_Cl	Cl	0.73067	0.18323	0.75233	-0.185
Mof_Cl	Cl	0.56947	0.03843	0.02003	-1.47
Mof_C 	C 	0.43717	0.92493	0.88743	-0.12
Mof_C 	C 	0.48737	0.92473	0.88673	-0.072
Mof_C 	C 	0.42847	0.95863	0.93343	0.681
Mof_C 	C 	0.19817	0.80113	0.76023	-0.575
Mof_H 	H 	0.17897	0.81873	0.78013	0.173
Mof_H 	H 	0.17167	0.77033	0.73423	0.158
Mof_H 	H 	0.22897	0.82903	0.73513	0.158
Mof_C 	C 	0.26797	0.77883	0.88483	-0.058
Mof_H 	H 	0.29917	0.78773	0.91043	0.048
Mof_C 	C 	0.22127	0.73223	0.88513	-0.038
Mof_H 	H 	0.21237	0.70143	0.91123	0.04
Mof_C 	C 	0.43797	0.87733	0.80633	0.385
Mof_C 	C 	0.53117	0.96063	0.93253	0.602
Mof_C 	C 	0.46897	0.98883	0.97113	0.944
Mof_C 	C 	0.42287	0.03383	0.80843	-0.086
Mof_C 	C 	0.36517	0.00383	0.81683	0.253
Mof_C 	C 	0.33527	0.03183	0.82213	0.125
Mof_C 	C 	0.36307	0.08993	0.81923	-0.163
Mof_C 	C 	0.42067	0.12003	0.81083	-0.147
Mof_C 	C 	0.45057	0.09193	0.80553	0.157
Mof_C 	C 	0.51917	0.99023	0.96993	0.118
Mof_C 	C 	0.35867	0.08533	0.79533	0.065
Mof_C 	C 	0.40457	0.11753	0.76033	0.238
Mof_C 	C 	0.41567	0.02433	0.78933	0.034
Mof_C 	C 	0.44197	0.08433	0.77133	0.157
Mof_C 	C 	0.36467	0.08933	0.85233	-0.031
Mof_C 	C 	0.42967	0.11743	0.86083	0.213
Mof_C 	C 	0.42467	0.03233	0.84333	-0.091
Mof_Cl	Cl	0.45917	0.18853	0.80733	0.051
Mof_Cl	Cl	0.51997	0.13023	0.79333	-0.182
Mof_Cl	Cl	0.50777	0.11623	0.73733	0.164
Mof_Cl	Cl	0.45177	0.18303	0.75133	-0.189
Mof_Cl	Cl	0.52287	0.12403	0.86433	0.062
Mof_Cl	Cl	0.44717	0.17363	0.93133	0.27
Mof_Cl	Cl	0.46327	0.18673	0.88033	-0.23
Mof_C 	C 	0.45607	0.08683	0.85433	-0.105
Mof_Cl	Cl	0.14627	0.73993	0.07213	-0.541
Mof_Cl	Cl	0.53107	0.96243	0.97973	-0.921
Mof_Zn	Zn	0.21388	0.21473	0.14001	1.174
Mof_Zn	Zn	0.00084	0.21468	0.14005	1.173
Mof_N 	N 	0.93213	0.14887	0.17277	-0.313
Mof_N 	N 	0.99983	0.19727	0.94917	-0.312
Mof_N 	N 	0.85113	0.06757	0.17287	-0.312
Mof_N 	N 	0.15113	0.22037	0.17357	-0.259
Mof_N 	N 	0.99993	0.19757	0.05067	-0.309
Mof_N 	N 	0.06903	0.21977	0.17377	-0.269
Mof_C 	C 	0.88843	0.11167	0.14257	0.214
Mof_C 	C 	0.11553	0.22787	0.14967	-0.231
Mof_C 	C 	0.99933	0.15097	0.96997	-0.014
Mof_H 	H 	0.99813	0.12237	0.94487	-0.011
Mof_C 	C 	3e-05	0.22427	7e-05	0.209
Mof_C 	C 	0.85793	0.09057	0.23197	0.063
Mof_C 	C 	0.90963	0.14137	0.23117	0.082
Mof_C 	C 	0.06613	0.17837	0.22117	-0.007
Mof_H 	H 	0.03493	0.15597	0.24667	0.043
Mof_C 	C 	0.82713	0.07067	0.28447	-0.175
Mof_H 	H 	0.79203	0.03697	0.28397	0.098
Mof_C 	C 	0.93013	0.17337	0.28457	-0.185
Mof_H 	H 	0.96363	0.20867	0.28467	0.112
Mof_C 	C 	0.89773	0.15007	0.33847	0.161
Mof_C 	C 	0.84853	0.10087	0.33897	0.147
Mof_C 	C 	0.11193	0.17867	0.22107	-0.028
Mof_H 	H 	0.12073	0.15627	0.24667	0.047
Mof_C 	C 	0.13253	0.26467	0.09487	-0.476
Mof_H 	H 	0.17313	0.29027	0.09597	0.167
Mof_H 	H 	0.11323	0.28627	0.09497	0.16
Mof_H 	H 	0.12273	0.24167	0.05787	0.128
Mof_C 	C 	0.00083	0.15127	0.02987	-0.02
Mof_H 	H 	0.00243	0.12387	0.05467	-0.007
Mof_C 	C 	0.99983	0.28037	0.00017	-0.62
Mof_H 	H 	0.03643	0.31057	0.98647	0.204
Mof_H 	H 	0.99243	0.28837	0.04157	0.183
Mof_H 	H 	0.97073	0.27757	0.97247	0.203
Mof_Cl	Cl	0.92653	0.18627	0.40557	-0.473
Mof_N 	N 	0.38043	0.32787	0.17347	-0.304
Mof_N 	N 	0.28673	0.28047	0.16037	-0.301
Mof_C 	C 	0.33323	0.28037	0.16697	0.112
Mof_H 	H 	0.33333	0.24597	0.16707	-0.069
Mof_C 	C 	0.36833	0.44567	0.10517	0.126
Mof_C 	C 	0.31033	0.41787	0.10157	0.079
Mof_C 	C 	0.27883	0.36357	0.12377	0.143
Mof_C 	C 	0.30553	0.33707	0.14957	-0.114
Mof_C 	C 	0.36353	0.36487	0.15327	-0.23
Mof_C 	C 	0.39503	0.41917	0.13097	0.122
Mof_Cl	Cl	0.39733	0.51657	0.08567	-0.186
Mof_Cl	Cl	0.23613	0.37177	0.35337	-1.476
Mof_C 	C 	0.10383	0.25827	0.22077	-0.12
Mof_C 	C 	0.15403	0.25807	0.22007	-0.072
Mof_C 	C 	0.09513	0.29197	0.26677	0.681
Mof_C 	C 	0.86483	0.13447	0.09357	-0.578
Mof_H 	H 	0.84563	0.15207	0.11347	0.174
Mof_H 	H 	0.83833	0.10367	0.06757	0.16
Mof_H 	H 	0.89563	0.16237	0.06847	0.159
Mof_C 	C 	0.93463	0.11217	0.21817	-0.058
Mof_H 	H 	0.96583	0.12107	0.24377	0.049
Mof_C 	C 	0.88793	0.06557	0.21847	-0.038
Mof_H 	H 	0.87903	0.03477	0.24457	0.041
Mof_C 	C 	0.10463	0.21067	0.13967	0.385
Mof_C 	C 	0.19783	0.29397	0.26587	0.601
Mof_C 	C 	0.13563	0.32217	0.30447	0.95
Mof_C 	C 	0.08953	0.36717	0.14177	-0.087
Mof_C 	C 	0.03183	0.33717	0.15017	0.249
Mof_C 	C 	0.00193	0.36517	0.15547	0.122
Mof_C 	C 	0.02973	0.42327	0.15257	-0.163
Mof_C 	C 	0.08733	0.45337	0.14417	-0.151
Mof_C 	C 	0.11723	0.42527	0.13887	0.152
Mof_C 	C 	0.18583	0.32357	0.30327	0.114
Mof_C 	C 	0.02533	0.41867	0.12867	0.065
Mof_C 	C 	0.07123	0.45087	0.09367	0.239
Mof_C 	C 	0.08233	0.35767	0.12267	0.036
Mof_C 	C 	0.10863	0.41767	0.10467	0.161
Mof_C 	C 	0.03133	0.42267	0.18567	-0.031
Mof_C 	C 	0.09633	0.45077	0.19417	0.221
Mof_C 	C 	0.09133	0.36567	0.17667	-0.092
Mof_Cl	Cl	0.12583	0.52187	0.14067	0.052
Mof_Cl	Cl	0.18663	0.46357	0.12667	-0.181
Mof_Cl	Cl	0.17443	0.44957	0.07067	0.163
Mof_Cl	Cl	0.11843	0.51637	0.08467	-0.191
Mof_Cl	Cl	0.18953	0.45737	0.19767	0.061
Mof_Cl	Cl	0.11383	0.50697	0.26467	0.272
Mof_Cl	Cl	0.12993	0.52007	0.21367	-0.232
Mof_C 	C 	0.12273	0.42017	0.18767	-0.104
Mof_Cl	Cl	0.81293	0.07327	0.40547	-0.541
Mof_Cl	Cl	0.19773	0.29577	0.31307	-0.919
Mof_Zn	Zn	0.45194	0.33249	0.47334	1.174
Mof_Zn	Zn	0.45199	0.1195	0.47338	1.174
Mof_N 	N 	0.5178	0.1166	0.5061	-0.314
Mof_N 	N 	0.4694	0.1359	0.2825	-0.313
Mof_N 	N 	0.5991	0.1169	0.5062	-0.313
Mof_N 	N 	0.4463	0.2641	0.5069	-0.259
Mof_N 	N 	0.4691	0.1357	0.384	-0.312
Mof_N 	N 	0.4469	0.1826	0.5071	-0.269
Mof_C 	C 	0.555	0.1101	0.4759	0.212
Mof_C 	C 	0.4388	0.221	0.483	-0.231
Mof_C 	C 	0.5157	0.1817	0.3033	-0.009
Mof_H 	H 	0.5443	0.2091	0.2782	-0.012
Mof_C 	C 	0.4424	0.1091	0.3334	0.215
Mof_C 	C 	0.5761	0.1007	0.5653	0.063
Mof_C 	C 	0.5253	0.1016	0.5645	0.082
Mof_C 	C 	0.4883	0.2211	0.5545	-0.007
Mof_H 	H 	0.5107	0.2123	0.58	0.043
Mof_C 	C 	0.596	0.0898	0.6178	-0.175
Mof_H 	H 	0.6297	0.0884	0.6173	0.097
Mof_C 	C 	0.4933	0.0901	0.6179	-0.185
Mof_H 	H 	0.458	0.0883	0.618	0.112
Mof_C 	C 	0.5166	0.081	0.6718	0.161
Mof_C 	C 	0.5658	0.081	0.6723	0.146
Mof_C 	C 	0.488	0.2666	0.5544	-0.028
Mof_H 	H 	0.5104	0.2978	0.58	0.046
Mof_C 	C 	0.402	0.2012	0.4282	-0.476
Mof_H 	H 	0.3764	0.2162	0.4293	0.168
Mof_H 	H 	0.3804	0.1603	0.4283	0.16
Mof_H 	H 	0.425	0.2144	0.3912	0.128
Mof_C 	C 	0.5154	0.1829	0.3632	-0.022
Mof_H 	H 	0.5428	0.2119	0.388	-0.007
Mof_C 	C 	0.3863	0.0528	0.3335	-0.643
Mof_H 	H 	0.3561	0.0592	0.3198	0.21
Mof_H 	H 	0.3783	0.0374	0.3749	0.189
Mof_H 	H 	0.3891	0.0265	0.3058	0.213
Mof_Cl	Cl	0.4804	0.0736	0.7389	-0.473
Mof_N 	N 	0.3388	0.3859	0.5068	-0.304
Mof_N 	N 	0.3862	0.3396	0.4937	-0.301
Mof_C 	C 	0.3863	0.3862	0.5003	0.112
Mof_H 	H 	0.4207	0.4207	0.5004	-0.069
Mof_C 	C 	0.221	0.256	0.4385	0.126
Mof_C 	C 	0.2488	0.2258	0.4349	0.078
Mof_C 	C 	0.3031	0.2486	0.4571	0.142
Mof_C 	C 	0.3296	0.3018	0.4829	-0.113
Mof_C 	C 	0.3018	0.332	0.4866	-0.229
Mof_C 	C 	0.2475	0.3092	0.4643	0.122
Mof_Cl	Cl	0.1501	0.2141	0.419	-0.186
Mof_Cl	Cl	0.2949	0.1977	0.6867	-1.473
Mof_C 	C 	0.4084	0.1789	0.5541	-0.12
Mof_C 	C 	0.4086	0.2293	0.5534	-0.072
Mof_C 	C 	0.3747	0.1365	0.6001	0.681
Mof_C 	C 	0.5322	0.0637	0.4269	-0.576
Mof_H 	H 	0.5146	0.0269	0.4468	0.174
Mof_H 	H 	0.563	0.068	0.4009	0.158
Mof_H 	H 	0.5043	0.0666	0.4018	0.158
Mof_C 	C 	0.5545	0.1558	0.5515	-0.058
Mof_H 	H 	0.5456	0.1781	0.5771	0.048
Mof_C 	C 	0.6011	0.1557	0.5518	-0.039
Mof_H 	H 	0.6319	0.1776	0.5779	0.04
Mof_C 	C 	0.456	0.2273	0.473	0.385
Mof_C 	C 	0.3727	0.2372	0.5992	0.601
Mof_C 	C 	0.3445	0.1468	0.6378	0.946
Mof_C 	C 	0.2995	0.0557	0.4751	-0.086
Mof_C 	C 	0.3295	0.028	0.4835	0.252
Mof_C 	C 	0.3015	0.9701	0.4888	0.124
Mof_C 	C 	0.2434	0.9398	0.4859	-0.163
Mof_C 	C 	0.2133	0.9673	0.4775	-0.148
Mof_C 	C 	0.2414	0.0253	0.4722	0.156
Mof_C 	C 	0.3431	0.1956	0.6366	0.116
Mof_C 	C 	0.248	0.94	0.462	0.065
Mof_C 	C 	0.2158	0.9537	0.427	0.238
Mof_C 	C 	0.309	0.058	0.456	0.034
Mof_C 	C 	0.249	0.0243	0.438	0.158
Mof_C 	C 	0.244	0.942	0.519	-0.031
Mof_C 	C 	0.2159	0.9789	0.5275	0.214
Mof_C 	C 	0.301	0.059	0.51	-0.09
Mof_Cl	Cl	0.1448	0.9373	0.474	0.051
Mof_Cl	Cl	0.2031	0.0564	0.46	-0.181
Mof_Cl	Cl	0.2171	0.0582	0.404	0.165
Mof_Cl	Cl	0.1503	0.9354	0.418	-0.189
Mof_Cl	Cl	0.2093	0.0655	0.531	0.062
Mof_Cl	Cl	0.1597	0.9402	0.598	0.272
Mof_Cl	Cl	0.1466	0.9432	0.547	-0.23
Mof_C 	C 	0.2465	0.0359	0.521	-0.105
Mof_Cl	Cl	0.5934	0.073	0.7388	-0.539
Mof_Cl	Cl	0.3709	0.2353	0.6464	-0.92
Mof_Zn	Zn	0.11861	0.66582	0.80667	1.174
Mof_Zn	Zn	0.11866	0.45283	0.80671	1.174
Mof_N 	N 	0.18447	0.44993	0.83943	-0.313
Mof_N 	N 	0.13607	0.46923	0.61583	-0.313
Mof_N 	N 	0.26577	0.45023	0.83953	-0.313
Mof_N 	N 	0.11297	0.59743	0.84023	-0.259
Mof_N 	N 	0.13577	0.46903	0.71733	-0.312
Mof_N 	N 	0.11357	0.51593	0.84043	-0.269
Mof_C 	C 	0.22167	0.44343	0.80923	0.212
Mof_C 	C 	0.10547	0.55433	0.81633	-0.231
Mof_C 	C 	0.18237	0.51503	0.63663	-0.009
Mof_H 	H 	0.21097	0.54243	0.61153	-0.012
Mof_C 	C 	0.10907	0.44243	0.66673	0.216
Mof_C 	C 	0.24277	0.43403	0.89863	0.063
Mof_C 	C 	0.19197	0.43493	0.89783	0.081
Mof_C 	C 	0.15497	0.55443	0.88783	-0.007
Mof_H 	H 	0.17737	0.54563	0.91333	0.043
Mof_C 	C 	0.26267	0.42313	0.95113	-0.174
Mof_H 	H 	0.29637	0.42173	0.95063	0.097
Mof_C 	C 	0.15997	0.42343	0.95123	-0.183
Mof_H 	H 	0.12467	0.42163	0.95133	0.112
Mof_C 	C 	0.18327	0.41433	0.00513	0.159
Mof_C 	C 	0.23247	0.41433	0.00563	0.146
Mof_C 	C 	0.15467	0.59993	0.88773	-0.028
Mof_H 	H 	0.17707	0.63113	0.91333	0.047
Mof_C 	C 	0.06867	0.53453	0.76153	-0.477
Mof_H 	H 	0.04307	0.54953	0.76263	0.169
Mof_H 	H 	0.04707	0.49363	0.76163	0.161
Mof_H 	H 	0.09167	0.54773	0.72453	0.129
Mof_C 	C 	0.18207	0.51623	0.69653	-0.022
Mof_H 	H 	0.20947	0.54523	0.72133	-0.007
Mof_C 	C 	0.05297	0.38613	0.66683	-0.643
Mof_H 	H 	0.02277	0.39253	0.65313	0.211
Mof_H 	H 	0.04497	0.37073	0.70823	0.189
Mof_H 	H 	0.05577	0.35983	0.63913	0.213
Mof_Cl	Cl	0.14707	0.40693	0.07223	-0.474
Mof_N 	N 	0.00547	0.71923	0.84013	-0.302
Mof_N 	N 	0.05287	0.67293	0.82703	-0.3
Mof_C 	C 	0.05297	0.71953	0.83363	0.112
Mof_H 	H 	0.08737	0.75403	0.83373	-0.069
Mof_C 	C 	0.88767	0.58933	0.77183	0.125
Mof_C 	C 	0.91547	0.55913	0.76823	0.073
Mof_C 	C 	0.96977	0.58193	0.79043	0.143
Mof_C 	C 	0.99627	0.63513	0.81623	-0.116
Mof_C 	C 	0.96847	0.66533	0.81993	-0.232
Mof_C 	C 	0.91417	0.64253	0.79763	0.125
Mof_Cl	Cl	0.81677	0.54743	0.75233	-0.185
Mof_Cl	Cl	0.96157	0.53103	0.02003	-1.477
Mof_C 	C 	0.07507	0.51223	0.88743	-0.12
Mof_C 	C 	0.07527	0.56263	0.88673	-0.071
Mof_C 	C 	0.04137	0.46983	0.93343	0.682
Mof_C 	C 	0.19887	0.39703	0.76023	-0.575
Mof_H 	H 	0.18127	0.36023	0.78013	0.173
Mof_H 	H 	0.22967	0.40133	0.73423	0.158
Mof_H 	H 	0.17097	0.39993	0.73513	0.158
Mof_C 	C 	0.22117	0.48913	0.88483	-0.058
Mof_H 	H 	0.21227	0.51143	0.91043	0.048
Mof_C 	C 	0.26777	0.48903	0.88513	-0.039
Mof_H 	H 	0.29857	0.51093	0.91123	0.04
Mof_C 	C 	0.12267	0.56063	0.80633	0.385
Mof_C 	C 	0.03937	0.57053	0.93253	0.602
Mof_C 	C 	0.01117	0.48013	0.97113	0.952
Mof_C 	C 	0.96617	0.38903	0.80843	-0.087
Mof_C 	C 	0.99617	0.36133	0.81683	0.252
Mof_C 	C 	0.96817	0.30343	0.82213	0.124
Mof_C 	C 	0.91007	0.27313	0.81923	-0.164
Mof_C 	C 	0.87997	0.30063	0.81083	-0.148
Mof_C 	C 	0.90807	0.35863	0.80553	0.157
Mof_C 	C 	0.00977	0.52893	0.96993	0.114
Mof_C 	C 	0.91467	0.27333	0.79533	0.066
Mof_C 	C 	0.88247	0.28703	0.76033	0.239
Mof_C 	C 	0.97567	0.39133	0.78933	0.035
Mof_C 	C 	0.91567	0.35763	0.77133	0.156
Mof_C 	C 	0.91067	0.27533	0.85233	-0.032
Mof_C 	C 	0.88257	0.31223	0.86083	0.215
Mof_C 	C 	0.96767	0.39233	0.84333	-0.092
Mof_Cl	Cl	0.81147	0.27063	0.80733	0.051
Mof_Cl	Cl	0.86977	0.38973	0.79333	-0.182
Mof_Cl	Cl	0.88377	0.39153	0.73733	0.165
Mof_Cl	Cl	0.81697	0.26873	0.75133	-0.189
Mof_Cl	Cl	0.87597	0.39883	0.86433	0.062
Mof_Cl	Cl	0.82637	0.27353	0.93133	0.272
Mof_Cl	Cl	0.81327	0.27653	0.88033	-0.231
Mof_C 	C 	0.91317	0.36923	0.85433	-0.104
Mof_Cl	Cl	0.26007	0.40633	0.07213	-0.541
Mof_Cl	Cl	0.03757	0.56863	0.97973	-0.917
Mof_Zn	Zn	0.78527	0.99916	0.14001	1.173
Mof_Zn	Zn	0.78532	0.78617	0.14005	1.174
Mof_N 	N 	0.85113	0.78327	0.17277	-0.314
Mof_N 	N 	0.80273	0.80257	0.94917	-0.312
Mof_N 	N 	0.93243	0.78357	0.17287	-0.313
Mof_N 	N 	0.77963	0.93077	0.17357	-0.259
Mof_N 	N 	0.80243	0.80237	0.05067	-0.312
Mof_N 	N 	0.78023	0.84927	0.17377	-0.269
Mof_C 	C 	0.88833	0.77677	0.14257	0.213
Mof_C 	C 	0.77213	0.88767	0.14967	-0.231
Mof_C 	C 	0.84903	0.84837	0.96997	-0.009
Mof_H 	H 	0.87763	0.87577	0.94487	-0.012
Mof_C 	C 	0.77573	0.77577	7e-05	0.215
Mof_C 	C 	0.90943	0.76737	0.23197	0.063
Mof_C 	C 	0.85863	0.76827	0.23117	0.082
Mof_C 	C 	0.82163	0.88777	0.22117	-0.007
Mof_H 	H 	0.84403	0.87897	0.24667	0.043
Mof_C 	C 	0.92933	0.75647	0.28447	-0.176
Mof_H 	H 	0.96303	0.75507	0.28397	0.097
Mof_C 	C 	0.82663	0.75677	0.28457	-0.185
Mof_H 	H 	0.79133	0.75497	0.28467	0.112
Mof_C 	C 	0.84993	0.74767	0.33847	0.16
Mof_C 	C 	0.89913	0.74767	0.33897	0.147
Mof_C 	C 	0.82133	0.93327	0.22107	-0.028
Mof_H 	H 	0.84373	0.96447	0.24667	0.046
Mof_C 	C 	0.73533	0.86787	0.09487	-0.476
Mof_H 	H 	0.70973	0.88287	0.09597	0.167
Mof_H 	H 	0.71373	0.82697	0.09497	0.16
Mof_H 	H 	0.75833	0.88107	0.05787	0.128
Mof_C 	C 	0.84873	0.84957	0.02987	-0.023
Mof_H 	H 	0.87613	0.87857	0.05467	-0.007
Mof_C 	C 	0.71963	0.71947	0.00017	-0.642
Mof_H 	H 	0.68943	0.72587	0.98647	0.21
Mof_H 	H 	0.71163	0.70407	0.04157	0.189
Mof_H 	H 	0.72243	0.69317	0.97247	0.212
Mof_Cl	Cl	0.81373	0.74027	0.40557	-0.473
Mof_N 	N 	0.67213	0.05257	0.17347	-0.303
Mof_N 	N 	0.71953	0.00627	0.16037	-0.299
Mof_C 	C 	0.71963	0.05287	0.16697	0.112
Mof_H 	H 	0.75403	0.08737	0.16707	-0.069
Mof_C 	C 	0.55433	0.92267	0.10517	0.125
Mof_C 	C 	0.58213	0.89247	0.10157	0.079
Mof_C 	C 	0.63643	0.91527	0.12377	0.144
Mof_C 	C 	0.66293	0.96847	0.14957	-0.116
Mof_C 	C 	0.63513	0.99867	0.15327	-0.233
Mof_C 	C 	0.58083	0.97587	0.13097	0.124
Mof_Cl	Cl	0.48343	0.88077	0.08567	-0.187
Mof_Cl	Cl	0.62823	0.86437	0.35337	-1.474
Mof_C 	C 	0.74173	0.84557	0.22077	-0.12
Mof_C 	C 	0.74193	0.89597	0.22007	-0.072
Mof_C 	C 	0.70803	0.80317	0.26677	0.681
Mof_C 	C 	0.86553	0.73037	0.09357	-0.576
Mof_H 	H 	0.84793	0.69357	0.11347	0.174
Mof_H 	H 	0.89633	0.73467	0.06757	0.158
Mof_H 	H 	0.83763	0.73327	0.06847	0.158
Mof_C 	C 	0.88783	0.82247	0.21817	-0.058
Mof_H 	H 	0.87893	0.84477	0.24377	0.048
Mof_C 	C 	0.93443	0.82237	0.21847	-0.039
Mof_H 	H 	0.96523	0.84427	0.24457	0.04
Mof_C 	C 	0.78933	0.89397	0.13967	0.385
Mof_C 	C 	0.70603	0.90387	0.26587	0.601
Mof_C 	C 	0.67783	0.81347	0.30447	0.946
Mof_C 	C 	0.63283	0.72237	0.14177	-0.086
Mof_C 	C 	0.66283	0.69467	0.15017	0.251
Mof_C 	C 	0.63483	0.63677	0.15547	0.123
Mof_C 	C 	0.57673	0.60647	0.15257	-0.163
Mof_C 	C 	0.54663	0.63397	0.14417	-0.149
Mof_C 	C 	0.57473	0.69197	0.13887	0.154
Mof_C 	C 	0.67643	0.86227	0.30327	0.117
Mof_C 	C 	0.58133	0.60667	0.12867	0.065
Mof_C 	C 	0.54913	0.62037	0.09367	0.239
Mof_C 	C 	0.64233	0.72467	0.12267	0.034
Mof_C 	C 	0.58233	0.69097	0.10467	0.159
Mof_C 	C 	0.57733	0.60867	0.18567	-0.031
Mof_C 	C 	0.54923	0.64557	0.19417	0.218
Mof_C 	C 	0.63433	0.72567	0.17667	-0.091
Mof_Cl	Cl	0.47813	0.60397	0.14067	0.052
Mof_Cl	Cl	0.53643	0.72307	0.12667	-0.181
Mof_Cl	Cl	0.55043	0.72487	0.07067	0.163
Mof_Cl	Cl	0.48363	0.60207	0.08467	-0.19
Mof_Cl	Cl	0.54263	0.73217	0.19767	0.061
Mof_Cl	Cl	0.49303	0.60687	0.26467	0.271
Mof_Cl	Cl	0.47993	0.60987	0.21367	-0.231
Mof_C 	C 	0.57983	0.70257	0.18767	-0.104
Mof_Cl	Cl	0.92673	0.73967	0.40547	-0.542
Mof_Cl	Cl	0.70423	0.90197	0.31307	-0.921
Mof_Zn	Zn	0.66751	0.11945	0.47334	1.174
Mof_Zn	Zn	0.8805	0.33249	0.47338	1.174
Mof_N 	N 	0.8834	0.4012	0.5061	-0.314
Mof_N 	N 	0.8641	0.3335	0.2825	-0.313
Mof_N 	N 	0.8831	0.4822	0.5062	-0.313
Mof_N 	N 	0.7359	0.1822	0.5069	-0.259
Mof_N 	N 	0.8643	0.3334	0.384	-0.312
Mof_N 	N 	0.8174	0.2643	0.5071	-0.269
Mof_C 	C 	0.8899	0.4449	0.4759	0.212
Mof_C 	C 	0.779	0.2178	0.483	-0.231
Mof_C 	C 	0.8183	0.334	0.3033	-0.009
Mof_H 	H 	0.7909	0.3352	0.2782	-0.012
Mof_C 	C 	0.8909	0.3333	0.3334	0.215
Mof_C 	C 	0.8993	0.4754	0.5653	0.063
Mof_C 	C 	0.8984	0.4237	0.5645	0.082
Mof_C 	C 	0.7789	0.2672	0.5545	-0.007
Mof_H 	H 	0.7877	0.2984	0.58	0.043
Mof_C 	C 	0.9102	0.5062	0.6178	-0.175
Mof_H 	H 	0.9116	0.5413	0.6173	0.097
Mof_C 	C 	0.9099	0.4032	0.6179	-0.185
Mof_H 	H 	0.9117	0.3697	0.618	0.112
Mof_C 	C 	0.919	0.4356	0.6718	0.16
Mof_C 	C 	0.919	0.4848	0.6723	0.146
Mof_C 	C 	0.7334	0.2214	0.5544	-0.028
Mof_H 	H 	0.7022	0.2126	0.58	0.046
Mof_C 	C 	0.7988	0.2008	0.4282	-0.476
Mof_H 	H 	0.7838	0.1602	0.4293	0.168
Mof_H 	H 	0.8397	0.2201	0.4283	0.16
Mof_H 	H 	0.7856	0.2106	0.3912	0.128
Mof_C 	C 	0.8171	0.3325	0.3632	-0.022
Mof_H 	H 	0.7881	0.3309	0.388	-0.007
Mof_C 	C 	0.9472	0.3335	0.3335	-0.642
Mof_H 	H 	0.9408	0.2969	0.3198	0.21
Mof_H 	H 	0.9626	0.3409	0.3749	0.189
Mof_H 	H 	0.9735	0.3626	0.3058	0.212
Mof_Cl	Cl	0.9264	0.4068	0.7389	-0.474
Mof_N 	N 	0.6141	0.9529	0.5068	-0.305
Mof_N 	N 	0.6604	0.0466	0.4937	-0.301
Mof_C 	C 	0.6138	0.0001	0.5003	0.113
Mof_H 	H 	0.5793	0	0.5004	-0.069
Mof_C 	C 	0.744	0.965	0.4385	0.125
Mof_C 	C 	0.7742	0.023	0.4349	0.076
Mof_C 	C 	0.7514	0.0545	0.4571	0.142
Mof_C 	C 	0.6982	0.0278	0.4829	-0.114
Mof_C 	C 	0.668	0.9698	0.4866	-0.231
Mof_C 	C 	0.6908	0.9383	0.4643	0.123
Mof_Cl	Cl	0.7859	0.936	0.419	-0.186
Mof_Cl	Cl	0.8023	0.0972	0.6867	-1.476
Mof_C 	C 	0.8211	0.2295	0.5541	-0.121
Mof_C 	C 	0.7707	0.1793	0.5534	-0.072
Mof_C 	C 	0.8635	0.2382	0.6001	0.682
Mof_C 	C 	0.9363	0.4685	0.4269	-0.575
Mof_H 	H 	0.9731	0.4877	0.4468	0.173
Mof_H 	H 	0.932	0.495	0.4009	0.158
Mof_H 	H 	0.9334	0.4377	0.4018	0.158
Mof_C 	C 	0.8442	0.3987	0.5515	-0.058
Mof_H 	H 	0.8219	0.3675	0.5771	0.048
Mof_C 	C 	0.8443	0.4454	0.5518	-0.038
Mof_H 	H 	0.8224	0.4543	0.5779	0.04
Mof_C 	C 	0.7727	0.2287	0.473	0.385
Mof_C 	C 	0.7628	0.1355	0.5992	0.601
Mof_C 	C 	0.8532	0.1977	0.6378	0.95
Mof_C 	C 	0.9443	0.2438	0.4751	-0.086
Mof_C 	C 	0.972	0.3015	0.4835	0.252
Mof_C 	C 	0.0299	0.3314	0.4888	0.126
Mof_C 	C 	0.0602	0.3036	0.4859	-0.164
Mof_C 	C 	0.0327	0.246	0.4775	-0.15
Mof_C 	C 	0.9747	0.2161	0.4722	0.154
Mof_C 	C 	0.8044	0.1475	0.6366	0.114
Mof_C 	C 	0.06	0.308	0.462	0.065
Mof_C 	C 	0.0463	0.2621	0.427	0.24
Mof_C 	C 	0.942	0.251	0.456	0.034
Mof_C 	C 	0.9757	0.2247	0.438	0.159
Mof_C 	C 	0.058	0.302	0.519	-0.031
Mof_C 	C 	0.0211	0.237	0.5275	0.219
Mof_C 	C 	0.941	0.242	0.51	-0.09
Mof_Cl	Cl	0.0627	0.2075	0.474	0.052
Mof_Cl	Cl	0.9436	0.1467	0.46	-0.181
Mof_Cl	Cl	0.9418	0.1589	0.404	0.164
Mof_Cl	Cl	0.0646	0.2149	0.418	-0.189
Mof_Cl	Cl	0.9345	0.1438	0.531	0.061
Mof_Cl	Cl	0.0598	0.2195	0.598	0.273
Mof_Cl	Cl	0.0568	0.2034	0.547	-0.232
Mof_C 	C 	0.9641	0.2106	0.521	-0.105
Mof_Cl	Cl	0.927	0.5204	0.7388	-0.542
Mof_Cl	Cl	0.7647	0.1356	0.6464	-0.919
Mof_Zn	Zn	0.33418	0.45278	0.80667	1.174
Mof_Zn	Zn	0.54717	0.66582	0.80671	1.174
Mof_N 	N 	0.55007	0.73453	0.83943	-0.313
Mof_N 	N 	0.53077	0.66683	0.61583	-0.313
Mof_N 	N 	0.54977	0.81553	0.83953	-0.313
Mof_N 	N 	0.40257	0.51553	0.84023	-0.259
Mof_N 	N 	0.53097	0.66673	0.71733	-0.312
Mof_N 	N 	0.48407	0.59763	0.84043	-0.269
Mof_C 	C 	0.55657	0.77823	0.80923	0.212
Mof_C 	C 	0.44567	0.55113	0.81633	-0.231
Mof_C 	C 	0.48497	0.66733	0.63663	-0.009
Mof_H 	H 	0.45757	0.66853	0.61153	-0.012
Mof_C 	C 	0.55757	0.66663	0.66673	0.215
Mof_C 	C 	0.56597	0.80873	0.89863	0.063
Mof_C 	C 	0.56507	0.75703	0.89783	0.082
Mof_C 	C 	0.44557	0.60053	0.88783	-0.007
Mof_H 	H 	0.45437	0.63173	0.91333	0.043
Mof_C 	C 	0.57687	0.83953	0.95113	-0.173
Mof_H 	H 	0.57827	0.87463	0.95063	0.097
Mof_C 	C 	0.57657	0.73653	0.95123	-0.184
Mof_H 	H 	0.57837	0.70303	0.95133	0.112
Mof_C 	C 	0.58567	0.76893	0.00513	0.16
Mof_C 	C 	0.58567	0.81813	0.00563	0.145
Mof_C 	C 	0.40007	0.55473	0.88773	-0.028
Mof_H 	H 	0.36887	0.54593	0.91333	0.046
Mof_C 	C 	0.46547	0.53413	0.76153	-0.476
Mof_H 	H 	0.45047	0.49353	0.76263	0.168
Mof_H 	H 	0.50637	0.55343	0.76163	0.16
Mof_H 	H 	0.45227	0.54393	0.72453	0.128
Mof_C 	C 	0.48377	0.66583	0.69653	-0.022
Mof_H 	H 	0.45477	0.66423	0.72133	-0.007
Mof_C 	C 	0.61387	0.66683	0.66683	-0.641
Mof_H 	H 	0.60747	0.63023	0.65313	0.21
Mof_H 	H 	0.62927	0.67423	0.70823	0.188
Mof_H 	H 	0.64017	0.69593	0.63913	0.212
Mof_Cl	Cl	0.59307	0.74013	0.07223	-0.473
Mof_N 	N 	0.28077	0.28623	0.84013	-0.304
Mof_N 	N 	0.32707	0.37993	0.82703	-0.301
Mof_C 	C 	0.28047	0.33343	0.83363	0.112
Mof_H 	H 	0.24597	0.33333	0.83373	-0.069
Mof_C 	C 	0.41067	0.29833	0.77183	0.126
Mof_C 	C 	0.44087	0.35633	0.76823	0.077
Mof_C 	C 	0.41807	0.38783	0.79043	0.142
Mof_C 	C 	0.36487	0.36113	0.81623	-0.112
Mof_C 	C 	0.33467	0.30313	0.81993	-0.228
Mof_C 	C 	0.35747	0.27163	0.79763	0.123
Mof_Cl	Cl	0.45257	0.26933	0.75233	-0.186
Mof_Cl	Cl	0.46897	0.43053	0.02003	-1.471
Mof_C 	C 	0.48777	0.56283	0.88743	-0.12
Mof_C 	C 	0.43737	0.51263	0.88673	-0.072
Mof_C 	C 	0.53017	0.57153	0.93343	0.68
Mof_C 	C 	0.60297	0.80183	0.76023	-0.575
Mof_H 	H 	0.63977	0.82103	0.78013	0.173
Mof_H 	H 	0.59867	0.82833	0.73423	0.158
Mof_H 	H 	0.60007	0.77103	0.73513	0.158
Mof_C 	C 	0.51087	0.73203	0.88483	-0.058
Mof_H 	H 	0.48857	0.70083	0.91043	0.048
Mof_C 	C 	0.51097	0.77873	0.88513	-0.038
Mof_H 	H 	0.48907	0.78763	0.91123	0.04
Mof_C 	C 	0.43937	0.56203	0.80633	0.385
Mof_C 	C 	0.42947	0.46883	0.93253	0.601
Mof_C 	C 	0.51987	0.53103	0.97113	0.944
Mof_C 	C 	0.61097	0.57713	0.80843	-0.086
Mof_C 	C 	0.63867	0.63483	0.81683	0.253
Mof_C 	C 	0.69657	0.66473	0.82213	0.125
Mof_C 	C 	0.72687	0.63693	0.81923	-0.163
Mof_C 	C 	0.69937	0.57933	0.81083	-0.148
Mof_C 	C 	0.64137	0.54943	0.80553	0.155
Mof_C 	C 	0.47107	0.48083	0.96993	0.118
Mof_C 	C 	0.72667	0.64133	0.79533	0.065
Mof_C 	C 	0.71297	0.59543	0.76033	0.239
Mof_C 	C 	0.60867	0.58433	0.78933	0.034
Mof_C 	C 	0.64237	0.55803	0.77133	0.158
Mof_C 	C 	0.72467	0.63533	0.85233	-0.031
Mof_C 	C 	0.68777	0.57033	0.86083	0.215
Mof_C 	C 	0.60767	0.57533	0.84333	-0.09
Mof_Cl	Cl	0.72937	0.54083	0.80733	0.051
Mof_Cl	Cl	0.61027	0.48003	0.79333	-0.181
Mof_Cl	Cl	0.60847	0.49223	0.73733	0.164
Mof_Cl	Cl	0.73127	0.54823	0.75133	-0.189
Mof_Cl	Cl	0.60117	0.47713	0.86433	0.062
Mof_Cl	Cl	0.72647	0.55283	0.93133	0.271
Mof_Cl	Cl	0.72347	0.53673	0.88033	-0.23
Mof_C 	C 	0.63077	0.54393	0.85433	-0.105
Mof_Cl	Cl	0.59367	0.85373	0.07213	-0.541
Mof_Cl	Cl	0.43137	0.46893	0.97973	-0.922
Mof_Zn	Zn	0.00084	0.78612	0.14001	1.174
Mof_Zn	Zn	0.21383	0.99916	0.14005	1.172
Mof_N 	N 	0.21673	0.06787	0.17277	-0.313
Mof_N 	N 	0.19743	0.00017	0.94917	-0.311
Mof_N 	N 	0.21643	0.14887	0.17287	-0.313
Mof_N 	N 	0.06923	0.84887	0.17357	-0.259
Mof_N 	N 	0.19763	7e-05	0.05067	-0.306
Mof_N 	N 	0.15073	0.93097	0.17377	-0.269
Mof_C 	C 	0.22323	0.11157	0.14257	0.213
Mof_C 	C 	0.11233	0.88447	0.14967	-0.231
Mof_C 	C 	0.15163	0.00067	0.96997	-0.002
Mof_H 	H 	0.12423	0.00187	0.94487	-0.014
Mof_C 	C 	0.22423	0.99997	7e-05	0.204
Mof_C 	C 	0.23263	0.14207	0.23197	0.063
Mof_C 	C 	0.23173	0.09037	0.23117	0.082
Mof_C 	C 	0.11223	0.93387	0.22117	-0.007
Mof_H 	H 	0.12103	0.96507	0.24667	0.042
Mof_C 	C 	0.24353	0.17287	0.28447	-0.175
Mof_H 	H 	0.24493	0.20797	0.28397	0.097
Mof_C 	C 	0.24323	0.06987	0.28457	-0.185
Mof_H 	H 	0.24503	0.03637	0.28467	0.113
Mof_C 	C 	0.25233	0.10227	0.33847	0.161
Mof_C 	C 	0.25233	0.15147	0.33897	0.147
Mof_C 	C 	0.06673	0.88807	0.22107	-0.028
Mof_H 	H 	0.03553	0.87927	0.24667	0.046
Mof_C 	C 	0.13213	0.86747	0.09487	-0.475
Mof_H 	H 	0.11713	0.82687	0.09597	0.167
Mof_H 	H 	0.17303	0.88677	0.09497	0.159
Mof_H 	H 	0.11893	0.87727	0.05787	0.127
Mof_C 	C 	0.15043	0.99917	0.02987	-0.032
Mof_H 	H 	0.12143	0.99757	0.05467	-0.005
Mof_C 	C 	0.28053	0.00017	0.00017	-0.627
Mof_H 	H 	0.27413	0.96357	0.98647	0.207
Mof_H 	H 	0.29593	0.00757	0.04157	0.185
Mof_H 	H 	0.30683	0.02927	0.97247	0.207
Mof_Cl	Cl	0.25973	0.07347	0.40557	-0.474
Mof_N 	N 	0.94743	0.61957	0.17347	-0.304
Mof_N 	N 	0.99373	0.71327	0.16037	-0.3
Mof_C 	C 	0.94713	0.66677	0.16697	0.112
Mof_H 	H 	0.91263	0.66667	0.16707	-0.069
Mof_C 	C 	0.07733	0.63167	0.10517	0.125
Mof_C 	C 	0.10753	0.68967	0.10157	0.081
Mof_C 	C 	0.08473	0.72117	0.12377	0.143
Mof_C 	C 	0.03153	0.69447	0.14957	-0.113
Mof_C 	C 	0.00133	0.63647	0.15327	-0.229
Mof_C 	C 	0.02413	0.60497	0.13097	0.122
Mof_Cl	Cl	0.11923	0.60267	0.08567	-0.188
Mof_Cl	Cl	0.13563	0.76387	0.35337	-1.476
Mof_C 	C 	0.15443	0.89617	0.22077	-0.121
Mof_C 	C 	0.10403	0.84597	0.22007	-0.071
Mof_C 	C 	0.19683	0.90487	0.26677	0.681
Mof_C 	C 	0.26963	0.13517	0.09357	-0.576
Mof_H 	H 	0.30643	0.15437	0.11347	0.174
Mof_H 	H 	0.26533	0.16167	0.06757	0.158
Mof_H 	H 	0.26673	0.10437	0.06847	0.159
Mof_C 	C 	0.17753	0.06537	0.21817	-0.058
Mof_H 	H 	0.15523	0.03417	0.24377	0.049
Mof_C 	C 	0.17763	0.11207	0.21847	-0.038
Mof_H 	H 	0.15573	0.12097	0.24457	0.04
Mof_C 	C 	0.10603	0.89537	0.13967	0.385
Mof_C 	C 	0.09613	0.80217	0.26587	0.601
Mof_C 	C 	0.18653	0.86437	0.30447	0.951
Mof_C 	C 	0.27763	0.91047	0.14177	-0.087
Mof_C 	C 	0.30533	0.96817	0.15017	0.245
Mof_C 	C 	0.36323	0.99807	0.15547	0.119
Mof_C 	C 	0.39353	0.97027	0.15257	-0.164
Mof_C 	C 	0.36603	0.91267	0.14417	-0.152
Mof_C 	C 	0.30803	0.88277	0.13887	0.151
Mof_C 	C 	0.13773	0.81417	0.30327	0.113
Mof_C 	C 	0.39333	0.97467	0.12867	0.066
Mof_C 	C 	0.37963	0.92877	0.09367	0.238
Mof_C 	C 	0.27533	0.91767	0.12267	0.037
Mof_C 	C 	0.30903	0.89137	0.10467	0.162
Mof_C 	C 	0.39133	0.96867	0.18567	-0.031
Mof_C 	C 	0.35443	0.90367	0.19417	0.224
Mof_C 	C 	0.27433	0.90867	0.17667	-0.093
Mof_Cl	Cl	0.39603	0.87417	0.14067	0.053
Mof_Cl	Cl	0.27693	0.81337	0.12667	-0.181
Mof_Cl	Cl	0.27513	0.82557	0.07067	0.164
Mof_Cl	Cl	0.39793	0.88157	0.08467	-0.192
Mof_Cl	Cl	0.26783	0.81047	0.19767	0.061
Mof_Cl	Cl	0.39313	0.88617	0.26467	0.274
Mof_Cl	Cl	0.39013	0.87007	0.21367	-0.233
Mof_C 	C 	0.29743	0.87727	0.18767	-0.103
Mof_Cl	Cl	0.26033	0.18707	0.40547	-0.541
Mof_Cl	Cl	0.09803	0.80227	0.31307	-0.918
Mof_Zn	Zn	0.11945	0.45194	0.52666	1.174
Mof_Zn	Zn	0.33249	0.45199	0.52662	1.174
Mof_N 	N 	0.4012	0.5178	0.4939	-0.313
Mof_N 	N 	0.3335	0.4694	0.7175	-0.313
Mof_N 	N 	0.4822	0.5991	0.4938	-0.313
Mof_N 	N 	0.1822	0.4463	0.4931	-0.259
Mof_N 	N 	0.3334	0.4691	0.616	-0.312
Mof_N 	N 	0.2643	0.4469	0.4929	-0.269
Mof_C 	C 	0.4449	0.555	0.5241	0.212
Mof_C 	C 	0.2178	0.4388	0.517	-0.231
Mof_C 	C 	0.334	0.5157	0.6967	-0.009
Mof_H 	H 	0.3352	0.5443	0.7218	-0.012
Mof_C 	C 	0.3333	0.4424	0.6666	0.215
Mof_C 	C 	0.4754	0.5761	0.4347	0.063
Mof_C 	C 	0.4237	0.5253	0.4355	0.082
Mof_C 	C 	0.2672	0.4883	0.4455	-0.007
Mof_H 	H 	0.2984	0.5107	0.42	0.043
Mof_C 	C 	0.5062	0.596	0.3822	-0.175
Mof_H 	H 	0.5413	0.6297	0.3827	0.097
Mof_C 	C 	0.4032	0.4933	0.3821	-0.185
Mof_H 	H 	0.3697	0.458	0.382	0.112
Mof_C 	C 	0.4356	0.5166	0.3282	0.161
Mof_C 	C 	0.4848	0.5658	0.3277	0.147
Mof_C 	C 	0.2214	0.488	0.4456	-0.028
Mof_H 	H 	0.2126	0.5104	0.42	0.046
Mof_C 	C 	0.2008	0.402	0.5718	-0.476
Mof_H 	H 	0.1602	0.3764	0.5707	0.168
Mof_H 	H 	0.2201	0.3804	0.5717	0.16
Mof_H 	H 	0.2106	0.425	0.6088	0.128
Mof_C 	C 	0.3325	0.5154	0.6368	-0.022
Mof_H 	H 	0.3309	0.5428	0.612	-0.007
Mof_C 	C 	0.3335	0.3863	0.6665	-0.641
Mof_H 	H 	0.2969	0.3561	0.6802	0.21
Mof_H 	H 	0.3409	0.3783	0.6251	0.188
Mof_H 	H 	0.3626	0.3891	0.6942	0.212
Mof_Cl	Cl	0.4068	0.4804	0.2611	-0.473
Mof_N 	N 	0.9529	0.3388	0.4932	-0.305
Mof_N 	N 	0.0466	0.3862	0.5063	-0.301
Mof_C 	C 	0.0001	0.3863	0.4997	0.113
Mof_H 	H 	-1.70337e-17	0.4207	0.4996	-0.069
Mof_C 	C 	0.965	0.221	0.5615	0.125
Mof_C 	C 	0.023	0.2488	0.5651	0.078
Mof_C 	C 	0.0545	0.3031	0.5429	0.142
Mof_C 	C 	0.0278	0.3296	0.5171	-0.114
Mof_C 	C 	0.9698	0.3018	0.5134	-0.23
Mof_C 	C 	0.9383	0.2475	0.5357	0.123
Mof_Cl	Cl	0.936	0.1501	0.581	-0.186
Mof_Cl	Cl	0.0972	0.2949	0.3133	-1.476
Mof_C 	C 	0.2295	0.4084	0.4459	-0.12
Mof_C 	C 	0.1793	0.4086	0.4466	-0.072
Mof_C 	C 	0.2382	0.3747	0.3999	0.682
Mof_C 	C 	0.4685	0.5322	0.5731	-0.575
Mof_H 	H 	0.4877	0.5146	0.5532	0.173
Mof_H 	H 	0.495	0.563	0.5991	0.158
Mof_H 	H 	0.4377	0.5043	0.5982	0.158
Mof_C 	C 	0.3987	0.5545	0.4485	-0.058
Mof_H 	H 	0.3675	0.5456	0.4229	0.048
Mof_C 	C 	0.4454	0.6011	0.4482	-0.039
Mof_H 	H 	0.4543	0.6319	0.4221	0.04
Mof_C 	C 	0.2287	0.456	0.527	0.385
Mof_C 	C 	0.1355	0.3727	0.4008	0.601
Mof_C 	C 	0.1977	0.3445	0.3622	0.95
Mof_C 	C 	0.2438	0.2995	0.5249	-0.086
Mof_C 	C 	0.3015	0.3295	0.5165	0.252
Mof_C 	C 	0.3314	0.3015	0.5112	0.124
Mof_C 	C 	0.3036	0.2434	0.5141	-0.163
Mof_C 	C 	0.246	0.2133	0.5225	-0.149
Mof_C 	C 	0.2161	0.2414	0.5278	0.155
Mof_C 	C 	0.1475	0.3431	0.3634	0.114
Mof_C 	C 	0.308	0.248	0.538	0.065
Mof_C 	C 	0.2621	0.2158	0.573	0.239
Mof_C 	C 	0.251	0.309	0.544	0.034
Mof_C 	C 	0.2247	0.249	0.562	0.159
Mof_C 	C 	0.302	0.244	0.481	-0.031
Mof_C 	C 	0.237	0.2159	0.4725	0.217
Mof_C 	C 	0.242	0.301	0.49	-0.091
Mof_Cl	Cl	0.2075	0.1448	0.526	0.052
Mof_Cl	Cl	0.1467	0.2031	0.54	-0.181
Mof_Cl	Cl	0.1589	0.2171	0.596	0.164
Mof_Cl	Cl	0.2149	0.1503	0.582	-0.189
Mof_Cl	Cl	0.1438	0.2093	0.469	0.061
Mof_Cl	Cl	0.2195	0.1597	0.402	0.272
Mof_Cl	Cl	0.2034	0.1466	0.453	-0.231
Mof_C 	C 	0.2106	0.2465	0.479	-0.105
Mof_Cl	Cl	0.5204	0.5934	0.2612	-0.54
Mof_Cl	Cl	0.1356	0.3709	0.3536	-0.919
Mof_Zn	Zn	0.78612	0.78527	0.85999	1.174
Mof_Zn	Zn	0.99916	0.78532	0.85995	1.172
Mof_N 	N 	0.06787	0.85113	0.82723	-0.313
Mof_N 	N 	0.00017	0.80273	0.05083	-0.311
Mof_N 	N 	0.14887	0.93243	0.82713	-0.313
Mof_N 	N 	0.84887	0.77963	0.82643	-0.259
Mof_N 	N 	7e-05	0.80243	0.94933	-0.305
Mof_N 	N 	0.93097	0.78023	0.82623	-0.269
Mof_C 	C 	0.11157	0.88833	0.85743	0.214
Mof_C 	C 	0.88447	0.77213	0.85033	-0.231
Mof_C 	C 	0.00067	0.84903	0.03003	-0.009
Mof_H 	H 	0.00187	0.87763	0.05513	-0.012
Mof_C 	C 	0.99997	0.77573	0.99993	0.202
Mof_C 	C 	0.14207	0.90943	0.76803	0.063
Mof_C 	C 	0.09037	0.85863	0.76883	0.082
Mof_C 	C 	0.93387	0.82163	0.77883	-0.007
Mof_H 	H 	0.96507	0.84403	0.75333	0.042
Mof_C 	C 	0.17287	0.92933	0.71553	-0.175
Mof_H 	H 	0.20797	0.96303	0.71603	0.097
Mof_C 	C 	0.06987	0.82663	0.71543	-0.185
Mof_H 	H 	0.03637	0.79133	0.71533	0.113
Mof_C 	C 	0.10227	0.84993	0.66153	0.161
Mof_C 	C 	0.15147	0.89913	0.66103	0.147
Mof_C 	C 	0.88807	0.82133	0.77893	-0.028
Mof_H 	H 	0.87927	0.84373	0.75333	0.046
Mof_C 	C 	0.86747	0.73533	0.90513	-0.475
Mof_H 	H 	0.82687	0.70973	0.90403	0.167
Mof_H 	H 	0.88677	0.71373	0.90503	0.16
Mof_H 	H 	0.87727	0.75833	0.94213	0.128
Mof_C 	C 	0.99917	0.84873	0.97013	-0.026
Mof_H 	H 	0.99757	0.87613	0.94533	-0.006
Mof_C 	C 	0.00017	0.71963	0.99983	-0.608
Mof_H 	H 	0.96357	0.68943	0.01353	0.2
Mof_H 	H 	0.00757	0.71163	0.95843	0.18
Mof_H 	H 	0.02927	0.72243	0.02753	0.2
Mof_Cl	Cl	0.07347	0.81373	0.59443	-0.473
Mof_N 	N 	0.61957	0.67213	0.82653	-0.304
Mof_N 	N 	0.71327	0.71953	0.83963	-0.301
Mof_C 	C 	0.66677	0.71963	0.83303	0.112
Mof_H 	H 	0.66667	0.75403	0.83293	-0.069
Mof_C 	C 	0.63167	0.55433	0.89483	0.126
Mof_C 	C 	0.68967	0.58213	0.89843	0.079
Mof_C 	C 	0.72117	0.63643	0.87623	0.143
Mof_C 	C 	0.69447	0.66293	0.85043	-0.114
Mof_C 	C 	0.63647	0.63513	0.84673	-0.23
Mof_C 	C 	0.60497	0.58083	0.86903	0.122
Mof_Cl	Cl	0.60267	0.48343	0.91433	-0.186
Mof_Cl	Cl	0.76387	0.62823	0.64663	-1.476
Mof_C 	C 	0.89617	0.74173	0.77923	-0.121
Mof_C 	C 	0.84597	0.74193	0.77993	-0.072
Mof_C 	C 	0.90487	0.70803	0.73323	0.681
Mof_C 	C 	0.13517	0.86553	0.90643	-0.578
Mof_H 	H 	0.15437	0.84793	0.88653	0.174
Mof_H 	H 	0.16167	0.89633	0.93243	0.16
Mof_H 	H 	0.10437	0.83763	0.93153	0.16
Mof_C 	C 	0.06537	0.88783	0.78183	-0.058
Mof_H 	H 	0.03417	0.87893	0.75623	0.049
Mof_C 	C 	0.11207	0.93443	0.78153	-0.038
Mof_H 	H 	0.12097	0.96523	0.75543	0.041
Mof_C 	C 	0.89537	0.78933	0.86033	0.385
Mof_C 	C 	0.80217	0.70603	0.73413	0.601
Mof_C 	C 	0.86437	0.67783	0.69553	0.95
Mof_C 	C 	0.91047	0.63283	0.85823	-0.088
Mof_C 	C 	0.96817	0.66283	0.84983	0.253
Mof_C 	C 	0.99807	0.63483	0.84453	0.125
Mof_C 	C 	0.97027	0.57673	0.84743	-0.165
Mof_C 	C 	0.91267	0.54663	0.85583	-0.152
Mof_C 	C 	0.88277	0.57473	0.86113	0.151
Mof_C 	C 	0.81417	0.67643	0.69673	0.114
Mof_C 	C 	0.97467	0.58133	0.87133	0.065
Mof_C 	C 	0.92877	0.54913	0.90633	0.239
Mof_C 	C 	0.91767	0.64233	0.87733	0.036
Mof_C 	C 	0.89137	0.58233	0.89533	0.162
Mof_C 	C 	0.96867	0.57733	0.81433	-0.031
Mof_C 	C 	0.90367	0.54923	0.80583	0.223
Mof_C 	C 	0.90867	0.63433	0.82333	-0.092
Mof_Cl	Cl	0.87417	0.47813	0.85933	0.053
Mof_Cl	Cl	0.81337	0.53643	0.87333	-0.181
Mof_Cl	Cl	0.82557	0.55043	0.92933	0.163
Mof_Cl	Cl	0.88157	0.48363	0.91533	-0.191
Mof_Cl	Cl	0.81047	0.54263	0.80233	0.061
Mof_Cl	Cl	0.88617	0.49303	0.73533	0.274
Mof_Cl	Cl	0.87007	0.47993	0.78633	-0.233
Mof_C 	C 	0.87727	0.57983	0.81233	-0.104
Mof_Cl	Cl	0.18707	0.92673	0.59453	-0.541
Mof_Cl	Cl	0.80227	0.70423	0.68693	-0.919
Mof_Zn	Zn	0.45278	0.11861	0.19333	1.174
Mof_Zn	Zn	0.66582	0.11866	0.19329	1.174
Mof_N 	N 	0.73453	0.18447	0.16057	-0.313
Mof_N 	N 	0.66683	0.13607	0.38417	-0.313
Mof_N 	N 	0.81553	0.26577	0.16047	-0.313
Mof_N 	N 	0.51553	0.11297	0.15977	-0.259
Mof_N 	N 	0.66673	0.13577	0.28267	-0.312
Mof_N 	N 	0.59763	0.11357	0.15957	-0.269
Mof_C 	C 	0.77823	0.22167	0.19077	0.212
Mof_C 	C 	0.55113	0.10547	0.18367	-0.231
Mof_C 	C 	0.66733	0.18237	0.36337	-0.009
Mof_H 	H 	0.66853	0.21097	0.38847	-0.012
Mof_C 	C 	0.66663	0.10907	0.33327	0.216
Mof_C 	C 	0.80873	0.24277	0.10137	0.062
Mof_C 	C 	0.75703	0.19197	0.10217	0.081
Mof_C 	C 	0.60053	0.15497	0.11217	-0.007
Mof_H 	H 	0.63173	0.17737	0.08667	0.043
Mof_C 	C 	0.83953	0.26267	0.04887	-0.171
Mof_H 	H 	0.87463	0.29637	0.04937	0.096
Mof_C 	C 	0.73653	0.15997	0.04877	-0.181
Mof_H 	H 	0.70303	0.12467	0.04867	0.112
Mof_C 	C 	0.76893	0.18327	0.99487	0.157
Mof_C 	C 	0.81813	0.23247	0.99437	0.143
Mof_C 	C 	0.55473	0.15467	0.11227	-0.028
Mof_H 	H 	0.54593	0.17707	0.08667	0.047
Mof_C 	C 	0.53413	0.06867	0.23847	-0.477
Mof_H 	H 	0.49353	0.04307	0.23737	0.169
Mof_H 	H 	0.55343	0.04707	0.23837	0.161
Mof_H 	H 	0.54393	0.09167	0.27547	0.129
Mof_C 	C 	0.66583	0.18207	0.30347	-0.022
Mof_H 	H 	0.66423	0.20947	0.27867	-0.007
Mof_C 	C 	0.66683	0.05297	0.33317	-0.643
Mof_H 	H 	0.63023	0.02277	0.34687	0.211
Mof_H 	H 	0.67423	0.04497	0.29177	0.189
Mof_H 	H 	0.69593	0.05577	0.36087	0.213
Mof_Cl	Cl	0.74013	0.14707	0.92777	-0.475
Mof_N 	N 	0.28623	0.00547	0.15987	-0.302
Mof_N 	N 	0.37993	0.05287	0.17297	-0.3
Mof_C 	C 	0.33343	0.05297	0.16637	0.112
Mof_H 	H 	0.33333	0.08737	0.16627	-0.069
Mof_C 	C 	0.29833	0.88767	0.22817	0.125
Mof_C 	C 	0.35633	0.91547	0.23177	0.072
Mof_C 	C 	0.38783	0.96977	0.20957	0.142
Mof_C 	C 	0.36113	0.99627	0.18377	-0.109
Mof_C 	C 	0.30313	0.96847	0.18007	-0.225
Mof_C 	C 	0.27163	0.91417	0.20237	0.124
Mof_Cl	Cl	0.26933	0.81677	0.24767	-0.185
Mof_Cl	Cl	0.43053	0.96157	0.97997	-1.47
Mof_C 	C 	0.56283	0.07507	0.11257	-0.12
Mof_C 	C 	0.51263	0.07527	0.11327	-0.071
Mof_C 	C 	0.57153	0.04137	0.06657	0.68
Mof_C 	C 	0.80183	0.19887	0.23977	-0.575
Mof_H 	H 	0.82103	0.18127	0.21987	0.173
Mof_H 	H 	0.82833	0.22967	0.26577	0.158
Mof_H 	H 	0.77103	0.17097	0.26487	0.158
Mof_C 	C 	0.73203	0.22117	0.11517	-0.058
Mof_H 	H 	0.70083	0.21227	0.08957	0.048
Mof_C 	C 	0.77873	0.26777	0.11487	-0.038
Mof_H 	H 	0.78763	0.29857	0.08877	0.04
Mof_C 	C 	0.56203	0.12267	0.19367	0.385
Mof_C 	C 	0.46883	0.03937	0.06747	0.601
Mof_C 	C 	0.53103	0.01117	0.02887	0.945
Mof_C 	C 	0.57713	0.96617	0.19157	-0.088
Mof_C 	C 	0.63483	0.99617	0.18317	0.253
Mof_C 	C 	0.66473	0.96817	0.17787	0.125
Mof_C 	C 	0.63693	0.91007	0.18077	-0.164
Mof_C 	C 	0.57933	0.87997	0.18917	-0.148
Mof_C 	C 	0.54943	0.90807	0.19447	0.157
Mof_C 	C 	0.48083	0.00977	0.03007	0.119
Mof_C 	C 	0.64133	0.91467	0.20467	0.065
Mof_C 	C 	0.59543	0.88247	0.23967	0.238
Mof_C 	C 	0.58433	0.97567	0.21067	0.035
Mof_C 	C 	0.55803	0.91567	0.22867	0.157
Mof_C 	C 	0.63533	0.91067	0.14767	-0.032
Mof_C 	C 	0.57033	0.88257	0.13917	0.215
Mof_C 	C 	0.57533	0.96767	0.15667	-0.092
Mof_Cl	Cl	0.54083	0.81147	0.19267	0.051
Mof_Cl	Cl	0.48003	0.86977	0.20667	-0.182
Mof_Cl	Cl	0.49223	0.88377	0.26267	0.165
Mof_Cl	Cl	0.54823	0.81697	0.24867	-0.189
Mof_Cl	Cl	0.47713	0.87597	0.13567	0.062
Mof_Cl	Cl	0.55283	0.82637	0.06867	0.271
Mof_Cl	Cl	0.53673	0.81327	0.11967	-0.231
Mof_C 	C 	0.54393	0.91317	0.14567	-0.104
Mof_Cl	Cl	0.85373	0.26007	0.92787	-0.541
Mof_Cl	Cl	0.46893	0.03757	0.02027	-0.921
Mof_Zn	Zn	0.54806	0.66751	0.52666	1.174
Mof_Zn	Zn	0.54801	0.8805	0.52662	1.173
Mof_N 	N 	0.4822	0.8834	0.4939	-0.314
Mof_N 	N 	0.5306	0.8641	0.7175	-0.313
Mof_N 	N 	0.4009	0.8831	0.4938	-0.313
Mof_N 	N 	0.5537	0.7359	0.4931	-0.259
Mof_N 	N 	0.5309	0.8643	0.616	-0.312
Mof_N 	N 	0.5531	0.8174	0.4929	-0.269
Mof_C 	C 	0.445	0.8899	0.5241	0.212
Mof_C 	C 	0.5612	0.779	0.517	-0.231
Mof_C 	C 	0.4843	0.8183	0.6967	-0.009
Mof_H 	H 	0.4557	0.7909	0.7218	-0.012
Mof_C 	C 	0.5576	0.8909	0.6666	0.215
Mof_C 	C 	0.4239	0.8993	0.4347	0.063
Mof_C 	C 	0.4747	0.8984	0.4355	0.082
Mof_C 	C 	0.5117	0.7789	0.4455	-0.007
Mof_H 	H 	0.4893	0.7877	0.42	0.043
Mof_C 	C 	0.404	0.9102	0.3822	-0.175
Mof_H 	H 	0.3703	0.9116	0.3827	0.097
Mof_C 	C 	0.5067	0.9099	0.3821	-0.185
Mof_H 	H 	0.542	0.9117	0.382	0.112
Mof_C 	C 	0.4834	0.919	0.3282	0.161
Mof_C 	C 	0.4342	0.919	0.3277	0.146
Mof_C 	C 	0.512	0.7334	0.4456	-0.028
Mof_H 	H 	0.4896	0.7022	0.42	0.046
Mof_C 	C 	0.598	0.7988	0.5718	-0.476
Mof_H 	H 	0.6236	0.7838	0.5707	0.168
Mof_H 	H 	0.6196	0.8397	0.5717	0.16
Mof_H 	H 	0.575	0.7856	0.6088	0.128
Mof_C 	C 	0.4846	0.8171	0.6368	-0.022
Mof_H 	H 	0.4572	0.7881	0.612	-0.007
Mof_C 	C 	0.6137	0.9472	0.6665	-0.641
Mof_H 	H 	0.6439	0.9408	0.6802	0.21
Mof_H 	H 	0.6217	0.9626	0.6251	0.188
Mof_H 	H 	0.6109	0.9735	0.6942	0.212
Mof_Cl	Cl	0.5196	0.9264	0.2611	-0.474
Mof_N 	N 	0.6612	0.6141	0.4932	-0.304
Mof_N 	N 	0.6138	0.6604	0.5063	-0.301
Mof_C 	C 	0.6137	0.6138	0.4997	0.112
Mof_H 	H 	0.5793	0.5793	0.4996	-0.069
Mof_C 	C 	0.779	0.744	0.5615	0.126
Mof_C 	C 	0.7512	0.7742	0.5651	0.078
Mof_C 	C 	0.6969	0.7514	0.5429	0.142
Mof_C 	C 	0.6704	0.6982	0.5171	-0.113
Mof_C 	C 	0.6982	0.668	0.5134	-0.229
Mof_C 	C 	0.7525	0.6908	0.5357	0.122
Mof_Cl	Cl	0.8499	0.7859	0.581	-0.186
Mof_Cl	Cl	0.7051	0.8023	0.3133	-1.473
Mof_C 	C 	0.5916	0.8211	0.4459	-0.12
Mof_C 	C 	0.5914	0.7707	0.4466	-0.071
Mof_C 	C 	0.6253	0.8635	0.3999	0.681
Mof_C 	C 	0.4678	0.9363	0.5731	-0.575
Mof_H 	H 	0.4854	0.9731	0.5532	0.173
Mof_H 	H 	0.437	0.932	0.5991	0.158
Mof_H 	H 	0.4957	0.9334	0.5982	0.158
Mof_C 	C 	0.4455	0.8442	0.4485	-0.058
Mof_H 	H 	0.4544	0.8219	0.4229	0.048
Mof_C 	C 	0.3989	0.8443	0.4482	-0.038
Mof_H 	H 	0.3681	0.8224	0.4221	0.04
Mof_C 	C 	0.544	0.7727	0.527	0.385
Mof_C 	C 	0.6273	0.7628	0.4008	0.601
Mof_C 	C 	0.6555	0.8532	0.3622	0.947
Mof_C 	C 	0.7005	0.9443	0.5249	-0.087
Mof_C 	C 	0.6705	0.972	0.5165	0.252
Mof_C 	C 	0.6985	0.0299	0.5112	0.126
Mof_C 	C 	0.7566	0.0602	0.5141	-0.164
Mof_C 	C 	0.7867	0.0327	0.5225	-0.151
Mof_C 	C 	0.7586	0.9747	0.5278	0.153
Mof_C 	C 	0.6569	0.8044	0.3634	0.116
Mof_C 	C 	0.752	0.06	0.538	0.064
Mof_C 	C 	0.7842	0.0463	0.573	0.241
Mof_C 	C 	0.691	0.942	0.544	0.034
Mof_C 	C 	0.751	0.9757	0.562	0.16
Mof_C 	C 	0.756	0.058	0.481	-0.03
Mof_C 	C 	0.7841	0.0211	0.4725	0.221
Mof_C 	C 	0.699	0.941	0.49	-0.091
Mof_Cl	Cl	0.8552	0.0627	0.526	0.053
Mof_Cl	Cl	0.7969	0.9436	0.54	-0.181
Mof_Cl	Cl	0.7829	0.9418	0.596	0.164
Mof_Cl	Cl	0.8497	0.0646	0.582	-0.19
Mof_Cl	Cl	0.7907	0.9345	0.469	0.061
Mof_Cl	Cl	0.8403	0.0598	0.402	0.273
Mof_Cl	Cl	0.8534	0.0568	0.453	-0.232
Mof_C 	C 	0.7535	0.9641	0.479	-0.105
Mof_Cl	Cl	0.4066	0.927	0.2612	-0.541
Mof_Cl	Cl	0.6291	0.7647	0.3536	-0.92
Mof_Zn	Zn	0.21473	0.00084	0.85999	1.174
Mof_Zn	Zn	0.21468	0.21383	0.85995	1.174
Mof_N 	N 	0.14887	0.21673	0.82723	-0.314
Mof_N 	N 	0.19727	0.19743	0.05083	-0.312
Mof_N 	N 	0.06757	0.21643	0.82713	-0.312
Mof_N 	N 	0.22037	0.06923	0.82643	-0.259
Mof_N 	N 	0.19757	0.19763	0.94933	-0.312
Mof_N 	N 	0.21977	0.15073	0.82623	-0.269
Mof_C 	C 	0.11167	0.22323	0.85743	0.213
Mof_C 	C 	0.22787	0.11233	0.85033	-0.231
Mof_C 	C 	0.15097	0.15163	0.03003	-0.009
Mof_H 	H 	0.12237	0.12423	0.05513	-0.011
Mof_C 	C 	0.22427	0.22423	0.99993	0.215
Mof_C 	C 	0.09057	0.23263	0.76803	0.063
Mof_C 	C 	0.14137	0.23173	0.76883	0.081
Mof_C 	C 	0.17837	0.11223	0.77883	-0.007
Mof_H 	H 	0.15597	0.12103	0.75333	0.043
Mof_C 	C 	0.07067	0.24353	0.71553	-0.175
Mof_H 	H 	0.03697	0.24493	0.71603	0.098
Mof_C 	C 	0.17337	0.24323	0.71543	-0.185
Mof_H 	H 	0.20867	0.24503	0.71533	0.112
Mof_C 	C 	0.15007	0.25233	0.66153	0.161
Mof_C 	C 	0.10087	0.25233	0.66103	0.147
Mof_C 	C 	0.17867	0.06673	0.77893	-0.028
Mof_H 	H 	0.15627	0.03553	0.75333	0.046
Mof_C 	C 	0.26467	0.13213	0.90513	-0.476
Mof_H 	H 	0.29027	0.11713	0.90403	0.168
Mof_H 	H 	0.28627	0.17303	0.90503	0.16
Mof_H 	H 	0.24167	0.11893	0.94213	0.128
Mof_C 	C 	0.15127	0.15043	0.97013	-0.023
Mof_H 	H 	0.12387	0.12143	0.94533	-0.007
Mof_C 	C 	0.28037	0.28053	0.99983	-0.642
Mof_H 	H 	0.31057	0.27413	0.01353	0.21
Mof_H 	H 	0.28837	0.29593	0.95843	0.189
Mof_H 	H 	0.27757	0.30683	0.02753	0.212
Mof_Cl	Cl	0.18627	0.25973	0.59443	-0.473
Mof_N 	N 	0.32787	0.94743	0.82653	-0.304
Mof_N 	N 	0.28047	0.99373	0.83963	-0.3
Mof_C 	C 	0.28037	0.94713	0.83303	0.112
Mof_H 	H 	0.24597	0.91263	0.83293	-0.069
Mof_C 	C 	0.44567	0.07733	0.89483	0.126
Mof_C 	C 	0.41787	0.10753	0.89843	0.08
Mof_C 	C 	0.36357	0.08473	0.87623	0.143
Mof_C 	C 	0.33707	0.03153	0.85043	-0.114
Mof_C 	C 	0.36487	0.00133	0.84673	-0.231
Mof_C 	C 	0.41917	0.02413	0.86903	0.122
Mof_Cl	Cl	0.51657	0.11923	0.91433	-0.187
Mof_Cl	Cl	0.37177	0.13563	0.64663	-1.473
Mof_C 	C 	0.25827	0.15443	0.77923	-0.12
Mof_C 	C 	0.25807	0.10403	0.77993	-0.072
Mof_C 	C 	0.29197	0.19683	0.73323	0.681
Mof_C 	C 	0.13447	0.26963	0.90643	-0.576
Mof_H 	H 	0.15207	0.30643	0.88653	0.174
Mof_H 	H 	0.10367	0.26533	0.93243	0.159
Mof_H 	H 	0.16237	0.26673	0.93153	0.158
Mof_C 	C 	0.11217	0.17753	0.78183	-0.058
Mof_H 	H 	0.12107	0.15523	0.75623	0.048
Mof_C 	C 	0.06557	0.17763	0.78153	-0.039
Mof_H 	H 	0.03477	0.15573	0.75543	0.041
Mof_C 	C 	0.21067	0.10603	0.86033	0.385
Mof_C 	C 	0.29397	0.09613	0.73413	0.601
Mof_C 	C 	0.32217	0.18653	0.69553	0.946
Mof_C 	C 	0.36717	0.27763	0.85823	-0.086
Mof_C 	C 	0.33717	0.30533	0.84983	0.251
Mof_C 	C 	0.36517	0.36323	0.84453	0.123
Mof_C 	C 	0.42327	0.39353	0.84743	-0.163
Mof_C 	C 	0.45337	0.36603	0.85583	-0.149
Mof_C 	C 	0.42527	0.30803	0.86113	0.154
Mof_C 	C 	0.32357	0.13773	0.69673	0.117
Mof_C 	C 	0.41867	0.39333	0.87133	0.065
Mof_C 	C 	0.45087	0.37963	0.90633	0.239
Mof_C 	C 	0.35767	0.27533	0.87733	0.035
Mof_C 	C 	0.41767	0.30903	0.89533	0.159
Mof_C 	C 	0.42267	0.39133	0.81433	-0.031
Mof_C 	C 	0.45077	0.35443	0.80583	0.218
Mof_C 	C 	0.36567	0.27433	0.82333	-0.091
Mof_Cl	Cl	0.52187	0.39603	0.85933	0.052
Mof_Cl	Cl	0.46357	0.27693	0.87333	-0.181
Mof_Cl	Cl	0.44957	0.27513	0.92933	0.163
Mof_Cl	Cl	0.51637	0.39793	0.91533	-0.19
Mof_Cl	Cl	0.45737	0.26783	0.80233	0.061
Mof_Cl	Cl	0.50697	0.39313	0.73533	0.272
Mof_Cl	Cl	0.52007	0.39013	0.78633	-0.231
Mof_C 	C 	0.42017	0.29743	0.81233	-0.104
Mof_Cl	Cl	0.07327	0.26033	0.59453	-0.542
Mof_Cl	Cl	0.29577	0.09803	0.68693	-0.92
Mof_Zn	Zn	0.88139	0.33418	0.19333	1.174
Mof_Zn	Zn	0.88134	0.54717	0.19329	1.174
Mof_N 	N 	0.81553	0.55007	0.16057	-0.313
Mof_N 	N 	0.86393	0.53077	0.38417	-0.313
Mof_N 	N 	0.73423	0.54977	0.16047	-0.313
Mof_N 	N 	0.88703	0.40257	0.15977	-0.259
Mof_N 	N 	0.86423	0.53097	0.28267	-0.312
Mof_N 	N 	0.88643	0.48407	0.15957	-0.269
Mof_C 	C 	0.77833	0.55657	0.19077	0.212
Mof_C 	C 	0.89453	0.44567	0.18367	-0.231
Mof_C 	C 	0.81763	0.48497	0.36337	-0.009
Mof_H 	H 	0.78903	0.45757	0.38847	-0.012
Mof_C 	C 	0.89093	0.55757	0.33327	0.215
Mof_C 	C 	0.75723	0.56597	0.10137	0.063
Mof_C 	C 	0.80803	0.56507	0.10217	0.081
Mof_C 	C 	0.84503	0.44557	0.11217	-0.007
Mof_H 	H 	0.82263	0.45437	0.08667	0.043
Mof_C 	C 	0.73733	0.57687	0.04887	-0.174
Mof_H 	H 	0.70363	0.57827	0.04937	0.097
Mof_C 	C 	0.84003	0.57657	0.04877	-0.183
Mof_H 	H 	0.87533	0.57837	0.04867	0.112
Mof_C 	C 	0.81673	0.58567	0.99487	0.159
Mof_C 	C 	0.76753	0.58567	0.99437	0.146
Mof_C 	C 	0.84533	0.40007	0.11227	-0.028
Mof_H 	H 	0.82293	0.36887	0.08667	0.047
Mof_C 	C 	0.93133	0.46547	0.23847	-0.476
Mof_H 	H 	0.95693	0.45047	0.23737	0.168
Mof_H 	H 	0.95293	0.50637	0.23837	0.16
Mof_H 	H 	0.90833	0.45227	0.27547	0.128
Mof_C 	C 	0.81793	0.48377	0.30347	-0.022
Mof_H 	H 	0.79053	0.45477	0.27867	-0.007
Mof_C 	C 	0.94703	0.61387	0.33317	-0.642
Mof_H 	H 	0.97723	0.60747	0.34687	0.21
Mof_H 	H 	0.95503	0.62927	0.29177	0.189
Mof_H 	H 	0.94423	0.64017	0.36087	0.212
Mof_Cl	Cl	0.85293	0.59307	0.92777	-0.474
Mof_N 	N 	0.99453	0.28077	0.15987	-0.303
Mof_N 	N 	0.94713	0.32707	0.17297	-0.3
Mof_C 	C 	0.94703	0.28047	0.16637	0.112
Mof_H 	H 	0.91263	0.24597	0.16627	-0.069
Mof_C 	C 	0.11233	0.41067	0.22817	0.126
Mof_C 	C 	0.08453	0.44087	0.23177	0.074
Mof_C 	C 	0.03023	0.41807	0.20957	0.142
Mof_C 	C 	0.00373	0.36487	0.18377	-0.112
Mof_C 	C 	0.03153	0.33467	0.18007	-0.228
Mof_C 	C 	0.08583	0.35747	0.20237	0.123
Mof_Cl	Cl	0.18323	0.45257	0.24767	-0.185
Mof_Cl	Cl	0.03843	0.46897	0.97997	-1.476
Mof_C 	C 	0.92493	0.48777	0.11257	-0.12
Mof_C 	C 	0.92473	0.43737	0.11327	-0.071
Mof_C 	C 	0.95863	0.53017	0.06657	0.682
Mof_C 	C 	0.80113	0.60297	0.23977	-0.575
Mof_H 	H 	0.81873	0.63977	0.21987	0.173
Mof_H 	H 	0.77033	0.59867	0.26577	0.158
Mof_H 	H 	0.82903	0.60007	0.26487	0.158
Mof_C 	C 	0.77883	0.51087	0.11517	-0.058
Mof_H 	H 	0.78773	0.48857	0.08957	0.048
Mof_C 	C 	0.73223	0.51097	0.11487	-0.039
Mof_H 	H 	0.70143	0.48907	0.08877	0.04
Mof_C 	C 	0.87733	0.43937	0.19367	0.385
Mof_C 	C 	0.96063	0.42947	0.06747	0.602
Mof_C 	C 	0.98883	0.51987	0.02887	0.951
Mof_C 	C 	0.03383	0.61097	0.19157	-0.086
Mof_C 	C 	0.00383	0.63867	0.18317	0.251
Mof_C 	C 	0.03183	0.69657	0.17787	0.124
Mof_C 	C 	0.08993	0.72687	0.18077	-0.163
Mof_C 	C 	0.12003	0.69937	0.18917	-0.147
Mof_C 	C 	0.09193	0.64137	0.19447	0.157
Mof_C 	C 	0.99023	0.47107	0.03007	0.112
Mof_C 	C 	0.08533	0.72667	0.20467	0.065
Mof_C 	C 	0.11753	0.71297	0.23967	0.239
Mof_C 	C 	0.02433	0.60867	0.21067	0.034
Mof_C 	C 	0.08433	0.64237	0.22867	0.156
Mof_C 	C 	0.08933	0.72467	0.14767	-0.032
Mof_C 	C 	0.11743	0.68777	0.13917	0.213
Mof_C 	C 	0.03233	0.60767	0.15667	-0.091
Mof_Cl	Cl	0.18853	0.72937	0.19267	0.051
Mof_Cl	Cl	0.13023	0.61027	0.20667	-0.182
Mof_Cl	Cl	0.11623	0.60847	0.26267	0.164
Mof_Cl	Cl	0.18303	0.73127	0.24867	-0.189
Mof_Cl	Cl	0.12403	0.60117	0.13567	0.062
Mof_Cl	Cl	0.17363	0.72647	0.06867	0.271
Mof_Cl	Cl	0.18673	0.72347	0.11967	-0.23
Mof_C 	C 	0.08683	0.63077	0.14567	-0.105
Mof_Cl	Cl	0.73993	0.59367	0.92787	-0.541
Mof_Cl	Cl	0.96243	0.43137	0.02027	-0.918
Mof_Zn	Zn	0.33249	0.88055	0.52666	1.174
Mof_Zn	Zn	0.1195	0.66751	0.52662	1.174
Mof_N 	N 	0.1166	0.5988	0.4939	-0.314
Mof_N 	N 	0.1359	0.6665	0.7175	-0.313
Mof_N 	N 	0.1169	0.5178	0.4938	-0.313
Mof_N 	N 	0.2641	0.8178	0.4931	-0.259
Mof_N 	N 	0.1357	0.6666	0.616	-0.312
Mof_N 	N 	0.1826	0.7357	0.4929	-0.269
Mof_C 	C 	0.1101	0.5551	0.5241	0.212
Mof_C 	C 	0.221	0.7822	0.517	-0.231
Mof_C 	C 	0.1817	0.666	0.6967	-0.009
Mof_H 	H 	0.2091	0.6648	0.7218	-0.012
Mof_C 	C 	0.1091	0.6667	0.6666	0.216
Mof_C 	C 	0.1007	0.5246	0.4347	0.063
Mof_C 	C 	0.1016	0.5763	0.4355	0.082
Mof_C 	C 	0.2211	0.7328	0.4455	-0.007
Mof_H 	H 	0.2123	0.7016	0.42	0.043
Mof_C 	C 	0.0898	0.4938	0.3822	-0.175
Mof_H 	H 	0.0884	0.4587	0.3827	0.097
Mof_C 	C 	0.0901	0.5968	0.3821	-0.185
Mof_H 	H 	0.0883	0.6303	0.382	0.112
Mof_C 	C 	0.081	0.5644	0.3282	0.161
Mof_C 	C 	0.081	0.5152	0.3277	0.146
Mof_C 	C 	0.2666	0.7786	0.4456	-0.028
Mof_H 	H 	0.2978	0.7874	0.42	0.046
Mof_C 	C 	0.2012	0.7992	0.5718	-0.476
Mof_H 	H 	0.2162	0.8398	0.5707	0.168
Mof_H 	H 	0.1603	0.7799	0.5717	0.16
Mof_H 	H 	0.2144	0.7894	0.6088	0.128
Mof_C 	C 	0.1829	0.6675	0.6368	-0.022
Mof_H 	H 	0.2119	0.6691	0.612	-0.007
Mof_C 	C 	0.0528	0.6665	0.6665	-0.643
Mof_H 	H 	0.0592	0.7031	0.6802	0.211
Mof_H 	H 	0.0374	0.6591	0.6251	0.19
Mof_H 	H 	0.0265	0.6374	0.6942	0.213
Mof_Cl	Cl	0.0736	0.5932	0.2611	-0.473
Mof_N 	N 	0.3859	0.0471	0.4932	-0.304
Mof_N 	N 	0.3396	0.9534	0.5063	-0.3
Mof_C 	C 	0.3862	0.9999	0.4997	0.109
Mof_H 	H 	0.4207	0	0.4996	-0.067
Mof_C 	C 	0.256	0.035	0.5615	0.127
Mof_C 	C 	0.2258	0.977	0.5651	0.08
Mof_C 	C 	0.2486	0.9455	0.5429	0.143
Mof_C 	C 	0.3018	0.9722	0.5171	-0.114
Mof_C 	C 	0.332	0.0302	0.5134	-0.228
Mof_C 	C 	0.3092	0.0617	0.5357	0.122
Mof_Cl	Cl	0.2141	0.064	0.581	-0.186
Mof_Cl	Cl	0.1977	0.9028	0.3133	-1.477
Mof_C 	C 	0.1789	0.7705	0.4459	-0.12
Mof_C 	C 	0.2293	0.8207	0.4466	-0.072
Mof_C 	C 	0.1365	0.7618	0.3999	0.682
Mof_C 	C 	0.0637	0.5315	0.5731	-0.576
Mof_H 	H 	0.0269	0.5123	0.5532	0.174
Mof_H 	H 	0.068	0.505	0.5991	0.158
Mof_H 	H 	0.0666	0.5623	0.5982	0.158
Mof_C 	C 	0.1558	0.6013	0.4485	-0.058
Mof_H 	H 	0.1781	0.6325	0.4229	0.048
Mof_C 	C 	0.1557	0.5546	0.4482	-0.039
Mof_H 	H 	0.1776	0.5457	0.4221	0.04
Mof_C 	C 	0.2273	0.7713	0.527	0.385
Mof_C 	C 	0.2372	0.8645	0.4008	0.601
Mof_C 	C 	0.1468	0.8023	0.3622	0.95
Mof_C 	C 	0.0557	0.7562	0.5249	-0.085
Mof_C 	C 	0.028	0.6985	0.5165	0.252
Mof_C 	C 	0.9701	0.6686	0.5112	0.123
Mof_C 	C 	0.9398	0.6964	0.5141	-0.163
Mof_C 	C 	0.9673	0.754	0.5225	-0.147
Mof_C 	C 	0.0253	0.7839	0.5278	0.157
Mof_C 	C 	0.1956	0.8525	0.3634	0.114
Mof_C 	C 	0.94	0.692	0.538	0.065
Mof_C 	C 	0.9537	0.7379	0.573	0.237
Mof_C 	C 	0.058	0.749	0.544	0.033
Mof_C 	C 	0.0243	0.7753	0.562	0.158
Mof_C 	C 	0.942	0.698	0.481	-0.032
Mof_C 	C 	0.9789	0.763	0.4725	0.212
Mof_C 	C 	0.059	0.758	0.49	-0.09
Mof_Cl	Cl	0.9373	0.7925	0.526	0.051
Mof_Cl	Cl	0.0564	0.8533	0.54	-0.182
Mof_Cl	Cl	0.0582	0.8411	0.596	0.165
Mof_Cl	Cl	0.9354	0.7851	0.582	-0.189
Mof_Cl	Cl	0.0655	0.8562	0.469	0.062
Mof_Cl	Cl	0.9402	0.7805	0.402	0.271
Mof_Cl	Cl	0.9432	0.7966	0.453	-0.23
Mof_C 	C 	0.0359	0.7894	0.479	-0.105
Mof_Cl	Cl	0.073	0.4796	0.2612	-0.54
Mof_Cl	Cl	0.2353	0.8644	0.3536	-0.919
Mof_Zn	Zn	0.99916	0.21388	0.85999	1.173
Mof_Zn	Zn	0.78617	0.00084	0.85995	1.173
Mof_N 	N 	0.78327	0.93213	0.82723	-0.313
Mof_N 	N 	0.80257	0.99983	0.05083	-0.313
Mof_N 	N 	0.78357	0.85113	0.82713	-0.313
Mof_N 	N 	0.93077	0.15113	0.82643	-0.259
Mof_N 	N 	0.80237	0.99993	0.94933	-0.309
Mof_N 	N 	0.84927	0.06903	0.82623	-0.269
Mof_C 	C 	0.77677	0.88843	0.85743	0.213
Mof_C 	C 	0.88767	0.11553	0.85033	-0.231
Mof_C 	C 	0.84837	0.99933	0.03003	-0.007
Mof_H 	H 	0.87577	0.99813	0.05513	-0.013
Mof_C 	C 	0.77577	3e-05	0.99993	0.211
Mof_C 	C 	0.76737	0.85793	0.76803	0.063
Mof_C 	C 	0.76827	0.90963	0.76883	0.082
Mof_C 	C 	0.88777	0.06613	0.77883	-0.007
Mof_H 	H 	0.87897	0.03493	0.75333	0.043
Mof_C 	C 	0.75647	0.82713	0.71553	-0.175
Mof_H 	H 	0.75507	0.79203	0.71603	0.097
Mof_C 	C 	0.75677	0.93013	0.71543	-0.185
Mof_H 	H 	0.75497	0.96363	0.71533	0.112
Mof_C 	C 	0.74767	0.89773	0.66153	0.161
Mof_C 	C 	0.74767	0.84853	0.66103	0.147
Mof_C 	C 	0.93327	0.11193	0.77893	-0.028
Mof_H 	H 	0.96447	0.12073	0.75333	0.046
Mof_C 	C 	0.86787	0.13253	0.90513	-0.475
Mof_H 	H 	0.88287	0.17313	0.90403	0.167
Mof_H 	H 	0.82697	0.11323	0.90503	0.159
Mof_H 	H 	0.88107	0.12273	0.94213	0.127
Mof_C 	C 	0.84957	0.00083	0.97013	-0.026
Mof_H 	H 	0.87857	0.00243	0.94533	-0.006
Mof_C 	C 	0.71947	0.99983	0.99983	-0.639
Mof_H 	H 	0.72587	0.03643	0.01353	0.211
Mof_H 	H 	0.70407	0.99243	0.95843	0.188
Mof_H 	H 	0.69317	0.97073	0.02753	0.21
Mof_Cl	Cl	0.74027	0.92653	0.59443	-0.474
Mof_N 	N 	0.05257	0.38043	0.82653	-0.303
Mof_N 	N 	0.00627	0.28673	0.83963	-0.299
Mof_C 	C 	0.05287	0.33323	0.83303	0.112
Mof_H 	H 	0.08737	0.33333	0.83293	-0.069
Mof_C 	C 	0.92267	0.36833	0.89483	0.124
Mof_C 	C 	0.89247	0.31033	0.89843	0.079
Mof_C 	C 	0.91527	0.27883	0.87623	0.143
Mof_C 	C 	0.96847	0.30553	0.85043	-0.115
Mof_C 	C 	0.99867	0.36353	0.84673	-0.231
Mof_C 	C 	0.97587	0.39503	0.86903	0.123
Mof_Cl	Cl	0.88077	0.39733	0.91433	-0.188
Mof_Cl	Cl	0.86437	0.23613	0.64663	-1.477
Mof_C 	C 	0.84557	0.10383	0.77923	-0.12
Mof_C 	C 	0.89597	0.15403	0.77993	-0.072
Mof_C 	C 	0.80317	0.09513	0.73323	0.681
Mof_C 	C 	0.73037	0.86483	0.90643	-0.576
Mof_H 	H 	0.69357	0.84563	0.88653	0.173
Mof_H 	H 	0.73467	0.83833	0.93243	0.158
Mof_H 	H 	0.73327	0.89563	0.93153	0.158
Mof_C 	C 	0.82247	0.93463	0.78183	-0.058
Mof_H 	H 	0.84477	0.96583	0.75623	0.048
Mof_C 	C 	0.82237	0.88793	0.78153	-0.039
Mof_H 	H 	0.84427	0.87903	0.75543	0.04
Mof_C 	C 	0.89397	0.10463	0.86033	0.385
Mof_C 	C 	0.90387	0.19783	0.73413	0.601
Mof_C 	C 	0.81347	0.13563	0.69553	0.95
Mof_C 	C 	0.72237	0.08953	0.85823	-0.086
Mof_C 	C 	0.69467	0.03183	0.84983	0.242
Mof_C 	C 	0.63677	0.00193	0.84453	0.116
Mof_C 	C 	0.60647	0.02973	0.84743	-0.162
Mof_C 	C 	0.63397	0.08733	0.85583	-0.152
Mof_C 	C 	0.69197	0.11723	0.86113	0.152
Mof_C 	C 	0.86227	0.18583	0.69673	0.114
Mof_C 	C 	0.60667	0.02533	0.87133	0.066
Mof_C 	C 	0.62037	0.07123	0.90633	0.239
Mof_C 	C 	0.72467	0.08233	0.87733	0.037
Mof_C 	C 	0.69097	0.10863	0.89533	0.161
Mof_C 	C 	0.60867	0.03133	0.81433	-0.031
Mof_C 	C 	0.64557	0.09633	0.80583	0.222
Mof_C 	C 	0.72567	0.09133	0.82333	-0.093
Mof_Cl	Cl	0.60397	0.12583	0.85933	0.053
Mof_Cl	Cl	0.72307	0.18663	0.87333	-0.181
Mof_Cl	Cl	0.72487	0.17443	0.92933	0.164
Mof_Cl	Cl	0.60207	0.11843	0.91533	-0.191
Mof_Cl	Cl	0.73217	0.18953	0.80233	0.061
Mof_Cl	Cl	0.60687	0.11383	0.73533	0.272
Mof_Cl	Cl	0.60987	0.12993	0.78633	-0.232
Mof_C 	C 	0.70257	0.12273	0.81233	-0.103
Mof_Cl	Cl	0.73967	0.81293	0.59453	-0.541
Mof_Cl	Cl	0.90197	0.19773	0.68693	-0.92
Mof_Zn	Zn	0.66582	0.54722	0.19333	1.174
Mof_Zn	Zn	0.45283	0.33418	0.19329	1.174
Mof_N 	N 	0.44993	0.26547	0.16057	-0.313
Mof_N 	N 	0.46923	0.33317	0.38417	-0.313
Mof_N 	N 	0.45023	0.18447	0.16047	-0.313
Mof_N 	N 	0.59743	0.48447	0.15977	-0.259
Mof_N 	N 	0.46903	0.33327	0.28267	-0.312
Mof_N 	N 	0.51593	0.40237	0.15957	-0.269
Mof_C 	C 	0.44343	0.22177	0.19077	0.212
Mof_C 	C 	0.55433	0.44887	0.18367	-0.231
Mof_C 	C 	0.51503	0.33267	0.36337	-0.009
Mof_H 	H 	0.54243	0.33147	0.38847	-0.012
Mof_C 	C 	0.44243	0.33337	0.33327	0.215
Mof_C 	C 	0.43403	0.19127	0.10137	0.063
Mof_C 	C 	0.43493	0.24297	0.10217	0.082
Mof_C 	C 	0.55443	0.39947	0.11217	-0.007
Mof_H 	H 	0.54563	0.36827	0.08667	0.043
Mof_C 	C 	0.42313	0.16047	0.04887	-0.174
Mof_H 	H 	0.42173	0.12537	0.04937	0.097
Mof_C 	C 	0.42343	0.26347	0.04877	-0.184
Mof_H 	H 	0.42163	0.29697	0.04867	0.112
Mof_C 	C 	0.41433	0.23107	0.99487	0.16
Mof_C 	C 	0.41433	0.18187	0.99437	0.145
Mof_C 	C 	0.59993	0.44527	0.11227	-0.028
Mof_H 	H 	0.63113	0.45407	0.08667	0.046
Mof_C 	C 	0.53453	0.46587	0.23847	-0.476
Mof_H 	H 	0.54953	0.50647	0.23737	0.168
Mof_H 	H 	0.49363	0.44657	0.23837	0.16
Mof_H 	H 	0.54773	0.45607	0.27547	0.128
Mof_C 	C 	0.51623	0.33417	0.30347	-0.022
Mof_H 	H 	0.54523	0.33577	0.27867	-0.007
Mof_C 	C 	0.38613	0.33317	0.33317	-0.641
Mof_H 	H 	0.39253	0.36977	0.34687	0.21
Mof_H 	H 	0.37073	0.32577	0.29177	0.188
Mof_H 	H 	0.35983	0.30407	0.36087	0.212
Mof_Cl	Cl	0.40693	0.25987	0.92777	-0.473
Mof_N 	N 	0.71923	0.71377	0.15987	-0.304
Mof_N 	N 	0.67293	0.62007	0.17297	-0.301
Mof_C 	C 	0.71953	0.66657	0.16637	0.112
Mof_H 	H 	0.75403	0.66667	0.16627	-0.069
Mof_C 	C 	0.58933	0.70167	0.22817	0.126
Mof_C 	C 	0.55913	0.64367	0.23177	0.077
Mof_C 	C 	0.58193	0.61217	0.20957	0.142
Mof_C 	C 	0.63513	0.63887	0.18377	-0.112
Mof_C 	C 	0.66533	0.69687	0.18007	-0.228
Mof_C 	C 	0.64253	0.72837	0.20237	0.123
Mof_Cl	Cl	0.54743	0.73067	0.24767	-0.186
Mof_Cl	Cl	0.53103	0.56947	0.97997	-1.471
Mof_C 	C 	0.51223	0.43717	0.11257	-0.12
Mof_C 	C 	0.56263	0.48737	0.11327	-0.072
Mof_C 	C 	0.46983	0.42847	0.06657	0.68
Mof_C 	C 	0.39703	0.19817	0.23977	-0.575
Mof_H 	H 	0.36023	0.17897	0.21987	0.173
Mof_H 	H 	0.40133	0.17167	0.26577	0.158
Mof_H 	H 	0.39993	0.22897	0.26487	0.158
Mof_C 	C 	0.48913	0.26797	0.11517	-0.058
Mof_H 	H 	0.51143	0.29917	0.08957	0.048
Mof_C 	C 	0.48903	0.22127	0.11487	-0.038
Mof_H 	H 	0.51093	0.21237	0.08877	0.04
Mof_C 	C 	0.56063	0.43797	0.19367	0.385
Mof_C 	C 	0.57053	0.53117	0.06747	0.601
Mof_C 	C 	0.48013	0.46897	0.02887	0.944
Mof_C 	C 	0.38903	0.42287	0.19157	-0.086
Mof_C 	C 	0.36133	0.36517	0.18317	0.253
Mof_C 	C 	0.30343	0.33527	0.17787	0.125
Mof_C 	C 	0.27313	0.36307	0.18077	-0.163
Mof_C 	C 	0.30063	0.42067	0.18917	-0.148
Mof_C 	C 	0.35863	0.45057	0.19447	0.155
Mof_C 	C 	0.52893	0.51917	0.03007	0.118
Mof_C 	C 	0.27333	0.35867	0.20467	0.065
Mof_C 	C 	0.28703	0.40457	0.23967	0.239
Mof_C 	C 	0.39133	0.41567	0.21067	0.034
Mof_C 	C 	0.35763	0.44197	0.22867	0.158
Mof_C 	C 	0.27533	0.36467	0.14767	-0.031
Mof_C 	C 	0.31223	0.42967	0.13917	0.215
Mof_C 	C 	0.39233	0.42467	0.15667	-0.09
Mof_Cl	Cl	0.27063	0.45917	0.19267	0.051
Mof_Cl	Cl	0.38973	0.51997	0.20667	-0.181
Mof_Cl	Cl	0.39153	0.50777	0.26267	0.164
Mof_Cl	Cl	0.26873	0.45177	0.24867	-0.189
Mof_Cl	Cl	0.39883	0.52287	0.13567	0.062
Mof_Cl	Cl	0.27353	0.44717	0.06867	0.271
Mof_Cl	Cl	0.27653	0.46327	0.11967	-0.23
Mof_C 	C 	0.36923	0.45607	0.14567	-0.105
Mof_Cl	Cl	0.40633	0.14627	0.92787	-0.541
Mof_Cl	Cl	0.56863	0.53107	0.02027	-0.922
_end
