data_functionalizedCrystal
_audit_creation_method	'EQeq! by Chris Wilmer'
_symmetry_space_group_name_H-M	'P1'
_symmetry_Int_Tables_number	1
_symmetry_cell_setting	triclinic
loop_
_symmetry_equiv_pos_as_xyz
  x,y,z
_cell_length_a	9.7882
_cell_length_b	12.6679
_cell_length_c	17.4524
_cell_angle_alpha	90
_cell_angle_beta	90
_cell_angle_gamma	105.57
loop_
_atom_site_label
_atom_site_type_symbol
_atom_site_fract_x
_atom_site_fract_y
_atom_site_fract_z
_atom_site_charge
Mof_Mn	Mn	0.1329	0.88753	0.89169	0.538
Mof_Mn	Mn	0.3671	0.61247	0.39169	0.541
Mof_Mn	Mn	0.8671	0.11247	0.10831	0.538
Mof_Mn	Mn	0.6329	0.38753	0.60831	0.541
Mof_Re	Re	0.38089	0.58261	0.96033	0.223
Mof_Re	Re	0.66015	0.62068	0.98419	0.228
Mof_Re	Re	0.52226	0.44863	0.9	0.227
Mof_Re	Re	0.11911	0.91739	0.46033	0.221
Mof_Re	Re	0.83985	0.87932	0.48419	0.23
Mof_Re	Re	0.97774	0.05137	0.4	0.223
Mof_Re	Re	0.61911	0.41739	0.03967	0.223
Mof_Re	Re	0.33985	0.37932	0.01581	0.228
Mof_Re	Re	0.47774	0.55137	0.1	0.227
Mof_Re	Re	0.88089	0.08261	0.53967	0.221
Mof_Re	Re	0.16015	0.12068	0.51581	0.23
Mof_Re	Re	0.02226	0.94863	0.6	0.223
Mof_Te	Te	0.5641	0.65354	0.84454	-0.118
Mof_Te	Te	0.51952	0.75637	0.0447	-0.142
Mof_Te	Te	0.19571	0.51373	0.07531	-0.107
Mof_Te	Te	0.24004	0.40897	0.87593	-0.112
Mof_Te	Te	0.9359	0.84646	0.34454	-0.115
Mof_Te	Te	0.98048	0.74363	0.5447	-0.141
Mof_Te	Te	0.30429	0.98627	0.57531	-0.108
Mof_Te	Te	0.25996	0.09103	0.37593	-0.109
Mof_Te	Te	0.4359	0.34646	0.15546	-0.118
Mof_Te	Te	0.48048	0.24363	0.9553	-0.142
Mof_Te	Te	0.80429	0.48627	0.92469	-0.107
Mof_Te	Te	0.75996	0.59103	0.12407	-0.112
Mof_Te	Te	0.0641	0.15354	0.65546	-0.115
Mof_Te	Te	0.01952	0.25637	0.4553	-0.141
Mof_Te	Te	0.69571	0.01373	0.42469	-0.108
Mof_Te	Te	0.74004	0.90897	0.62407	-0.109
Mof_C 	C 	0.8343	0.7507	0.9623	-0.07
Mof_C 	C 	0.2512	0.6759	0.9167	-0.06
Mof_C 	C 	0.5463	0.3984	0.7893	-0.07
Mof_C 	C 	0.6657	0.7493	0.4623	-0.071
Mof_C 	C 	0.2488	0.8241	0.4167	-0.06
Mof_C 	C 	0.9537	0.1016	0.2893	-0.071
Mof_C 	C 	0.1657	0.2493	0.0377	-0.07
Mof_C 	C 	0.7488	0.3241	0.0833	-0.06
Mof_C 	C 	0.4537	0.6016	0.2107	-0.07
Mof_C 	C 	0.3343	0.2507	0.5377	-0.071
Mof_C 	C 	0.7512	0.1759	0.5833	-0.06
Mof_C 	C 	0.0463	0.8984	0.7107	-0.071
Mof_N 	N 	0.9312	0.8252	0.9495	-0.182
Mof_N 	N 	0.1883	0.7323	0.8962	-0.177
Mof_N 	N 	0.5641	0.3752	0.7259	-0.179
Mof_N 	N 	0.5688	0.6748	0.4495	-0.183
Mof_N 	N 	0.3117	0.7677	0.3962	-0.177
Mof_N 	N 	0.9359	0.1248	0.2259	-0.179
Mof_N 	N 	0.0688	0.1748	0.0505	-0.182
Mof_N 	N 	0.8117	0.2677	0.1038	-0.177
Mof_N 	N 	0.4359	0.6248	0.2741	-0.179
Mof_N 	N 	0.4312	0.3252	0.5505	-0.183
Mof_N 	N 	0.6883	0.2323	0.6038	-0.177
Mof_N 	N 	0.0641	0.8752	0.7741	-0.179
_end
