data_functionalizedCrystal
_audit_creation_method	'EQeq! by Chris Wilmer'
_symmetry_space_group_name_H-M	'P1'
_symmetry_Int_Tables_number	1
_symmetry_cell_setting	triclinic
loop_
_symmetry_equiv_pos_as_xyz
  x,y,z
_cell_length_a	29.03
_cell_length_b	29.03
_cell_length_c	29.03
_cell_angle_alpha	90
_cell_angle_beta	90
_cell_angle_gamma	90
loop_
_atom_site_label
_atom_site_type_symbol
_atom_site_fract_x
_atom_site_fract_y
_atom_site_fract_z
_atom_site_charge
Mof_N 	N 	0.41998	0.04672	0.54607	-0.181
Mof_N 	N 	0.39669	0.08853	0.55031	-0.114
Mof_C 	C 	0.36407	0.17904	0.57732	-0.038
Mof_C 	C 	0.34837	0.22177	0.59283	-0.057
Mof_H 	H 	0.34678	0.16303	0.54838	-0.003
Mof_H 	H 	0.31959	0.23558	0.57408	0
Mof_Cu	Cu	0.40181	-4.12733e-33	0.5	0.843
Mof_Cl	Cl	0.32443	-4.12733e-33	0.5	-0.583
Mof_Cl	Cl	0.5	-4.12733e-33	0.5	-0.439
Mof_Cu	Cu	0.21573	0.1346	0.5	0.666
Mof_C 	C 	0.41606	0.11077	0.58394	0.045
Mof_C 	C 	0.40088	0.15694	0.59912	-0.038
Mof_C 	C 	0.36889	0.24429	0.63111	-0.023
Mof_C 	C 	0.34955	0.28918	0.65045	-0.029
Mof_C 	C 	0.3689	0.31025	0.68975	-0.085
Mof_H 	H 	0.39919	0.29584	0.70416	0.036
_end
