data_functionalizedCrystal
_audit_creation_method	'EQeq! by Chris Wilmer'
_symmetry_space_group_name_H-M	'P1'
_symmetry_Int_Tables_number	1
_symmetry_cell_setting	triclinic
loop_
_symmetry_equiv_pos_as_xyz
  x,y,z
_cell_length_a	11.1834
_cell_length_b	32.9829
_cell_length_c	32.9829
_cell_angle_alpha	88.353
_cell_angle_beta	80.2393
_cell_angle_gamma	80.2393
loop_
_atom_site_label
_atom_site_type_symbol
_atom_site_fract_x
_atom_site_fract_y
_atom_site_fract_z
_atom_site_charge
Mof_Sm	Sm	0.31814	0.97477	0.17363	2.057
Mof_Sm	Sm	0.81794	0.972	0.17079	2.019
Mof_Sm	Sm	0.96654	0.52523	0.32637	2.054
Mof_Sm	Sm	0.46073	0.528	0.3292	2.019
Mof_Sm	Sm	0.49177	0.82637	0.47477	2.057
Mof_Sm	Sm	0.98872	0.82921	0.47201	2.013
Mof_Sm	Sm	0.29291	0.67363	0.02523	2.058
Mof_Sm	Sm	0.78994	0.67079	0.028	2.019
Mof_Sm	Sm	0.68186	0.02523	0.82637	2.057
Mof_Sm	Sm	0.18207	0.028	0.8292	2.019
Mof_Sm	Sm	0.03346	0.47477	0.67363	2.054
Mof_Sm	Sm	0.53928	0.472	0.67079	2.018
Mof_Sm	Sm	0.50823	0.17363	0.52523	2.056
Mof_Sm	Sm	0.01128	0.17079	0.52799	2.012
Mof_Sm	Sm	0.70709	0.32637	0.97477	2.057
Mof_Sm	Sm	0.21006	0.32921	0.97201	2.018
Mof_Co	Co	0.71162	0.87094	0.96391	1.117
Mof_Co	Co	0.04646	0.62906	0.5361	1.118
Mof_Co	Co	0.67553	0.03609	0.37094	1.117
Mof_Co	Co	0.58256	0.46391	0.12905	1.117
Mof_Co	Co	0.28838	0.12906	0.0361	1.117
Mof_Co	Co	0.95354	0.37094	0.46391	1.118
Mof_Co	Co	0.32448	0.96391	0.62905	1.117
Mof_Co	Co	0.41744	0.53609	0.87095	1.117
Mof_H 	H 	0.1682	0.1271	0.2095	0.029
Mof_H 	H 	0.3504	0.1484	0.18	0.091
Mof_H 	H 	0.4167	0.1394	0.111	-0.002
Mof_H 	H 	0.054	0.1143	0.9987	-0.02
Mof_H 	H 	0.9367	0.0631	0.0063	0.098
Mof_H 	H 	0.9467	0.0194	0.063	-0.017
Mof_H 	H 	0.6981	0.0262	0.0378	-0.001
Mof_H 	H 	0.6557	0.0271	0.9719	0.095
Mof_H 	H 	0.6346	0.9673	0.9427	-0.026
Mof_H 	H 	0.7574	0.7987	0.0279	-0.022
Mof_H 	H 	0.6596	0.788	0.0938	0.094
Mof_H 	H 	0.5489	0.8431	0.1317	0.017
Mof_H 	H 	0.1145	0.8461	0.1375	0.022
Mof_H 	H 	0.2595	0.7863	0.1417	0.09
Mof_H 	H 	0.2802	0.7635	0.2081	0.019
Mof_H 	H 	0.9601	0.8663	0.3647	-0.021
Mof_H 	H 	0.0157	0.9273	0.3717	0.111
Mof_H 	H 	0.1067	0.9584	0.3136	-0.005
Mof_H 	H 	0.3752	0.9556	0.2894	-0.017
Mof_H 	H 	0.3223	0.9613	0.3597	0.096
Mof_H 	H 	0.4246	0.9991	0.3945	-0.023
Mof_H 	H 	0.8451	0.0864	0.3122	-0.003
Mof_H 	H 	0.8253	0.1284	0.257	0.092
Mof_H 	H 	0.6677	0.125	0.2208	0.029
Mof_H 	H 	0.0048	0.3729	0.2905	0.029
Mof_H 	H 	0.1788	0.3516	0.32	0.091
Mof_H 	H 	0.1671	0.3606	0.389	-0.002
Mof_H 	H 	0.667	0.3857	0.5013	-0.021
Mof_H 	H 	0.5061	0.4369	0.4937	0.098
Mof_H 	H 	0.5291	0.4806	0.437	-0.017
Mof_H 	H 	0.2621	0.4738	0.4622	-0.001
Mof_H 	H 	0.1547	0.4729	0.5281	0.095
Mof_H 	H 	0.0446	0.5327	0.5573	-0.026
Mof_H 	H 	0.084	0.7013	0.4721	-0.021
Mof_H 	H 	0.0414	0.712	0.4062	0.094
Mof_H 	H 	0.0237	0.6569	0.3683	0.018
Mof_H 	H 	0.5981	0.6539	0.3625	0.021
Mof_H 	H 	0.6875	0.7137	0.3583	0.09
Mof_H 	H 	0.7518	0.7365	0.2919	0.019
Mof_H 	H 	0.6911	0.6337	0.1353	-0.018
Mof_H 	H 	0.8147	0.5727	0.1283	0.109
Mof_H 	H 	0.8787	0.5416	0.1864	-0.004
Mof_H 	H 	0.1202	0.5444	0.2106	-0.017
Mof_H 	H 	0.1433	0.5387	0.1403	0.097
Mof_H 	H 	0.3182	0.5009	0.1055	-0.023
Mof_H 	H 	0.7437	0.4136	0.1878	-0.003
Mof_H 	H 	0.7107	0.3716	0.243	0.092
Mof_H 	H 	0.5135	0.375	0.2792	0.029
Mof_H 	H 	0.3777	0.7905	0.6271	0.029
Mof_H 	H 	0.5304	0.82	0.6484	0.091
Mof_H 	H 	0.5277	0.889	0.6394	-0.003
Mof_H 	H 	0.0527	0.0013	0.6143	-0.022
Mof_H 	H 	0.943	0.9937	0.5631	0.098
Mof_H 	H 	0.0097	0.937	0.5194	-0.017
Mof_H 	H 	0.7359	0.9622	0.5262	-0.001
Mof_H 	H 	0.6276	0.0281	0.5271	0.095
Mof_H 	H 	0.5773	0.0573	0.4673	-0.026
Mof_H 	H 	0.7853	0.9721	0.2987	-0.022
Mof_H 	H 	0.7534	0.9062	0.288	0.093
Mof_H 	H 	0.6806	0.8683	0.3431	0.017
Mof_H 	H 	0.252	0.8625	0.3461	0.021
Mof_H 	H 	0.4012	0.8583	0.2863	0.09
Mof_H 	H 	0.4883	0.7919	0.2635	0.019
Mof_H 	H 	0.3248	0.6353	0.3663	-0.018
Mof_H 	H 	0.3874	0.6283	0.4273	0.109
Mof_H 	H 	0.4203	0.6864	0.4584	-0.004
Mof_H 	H 	0.6646	0.7106	0.4556	-0.017
Mof_H 	H 	0.682	0.6403	0.4613	0.096
Mof_H 	H 	0.8191	0.6055	0.4991	-0.024
Mof_H 	H 	0.1573	0.6878	0.5864	-0.002
Mof_H 	H 	0.0823	0.743	0.6284	0.091
Mof_H 	H 	0.8885	0.7792	0.625	0.031
Mof_H 	H 	0.2953	0.7095	0.8729	0.029
Mof_H 	H 	0.4988	0.68	0.8516	0.091
Mof_H 	H 	0.5561	0.611	0.8606	-0.002
Mof_H 	H 	0.1683	0.4987	0.8857	-0.021
Mof_H 	H 	0.9998	0.5063	0.9369	0.099
Mof_H 	H 	0.9661	0.563	0.9806	-0.018
Mof_H 	H 	0.7243	0.5378	0.9738	-0.001
Mof_H 	H 	0.6828	0.4719	0.9729	0.095
Mof_H 	H 	0.6019	0.4427	0.0327	-0.026
Mof_H 	H 	0.5561	0.5279	0.2013	-0.022
Mof_H 	H 	0.4476	0.5938	0.212	0.094
Mof_H 	H 	0.392	0.6317	0.1569	0.017
Mof_H 	H 	0.9606	0.6375	0.1539	0.023
Mof_H 	H 	0.0458	0.6417	0.2137	0.09
Mof_H 	H 	0.0437	0.7081	0.2365	0.019
Mof_H 	H 	0.8264	0.8647	0.1337	-0.018
Mof_H 	H 	0.943	0.8717	0.0727	0.109
Mof_H 	H 	0.0651	0.8136	0.0416	-0.004
Mof_H 	H 	0.3308	0.7894	0.0444	-0.017
Mof_H 	H 	0.2836	0.8597	0.0387	0.096
Mof_H 	H 	0.4237	0.8945	0.0009	-0.023
Mof_H 	H 	0.9315	0.8122	0.9136	-0.003
Mof_H 	H 	0.9537	0.757	0.8716	0.092
Mof_H 	H 	0.7927	0.7208	0.875	0.029
Mof_H 	H 	0.8318	0.8729	0.7905	0.029
Mof_H 	H 	0.6496	0.8516	0.82	0.091
Mof_H 	H 	0.5833	0.8606	0.889	-0.002
Mof_H 	H 	0.946	0.8857	0.0013	-0.02
Mof_H 	H 	0.0633	0.9369	0.9937	0.098
Mof_H 	H 	0.0533	0.9806	0.937	-0.017
Mof_H 	H 	0.3019	0.9738	0.9622	-0.001
Mof_H 	H 	0.3443	0.9729	0.0281	0.095
Mof_H 	H 	0.3654	0.0327	0.0573	-0.026
Mof_H 	H 	0.2426	0.2013	0.9721	-0.022
Mof_H 	H 	0.3404	0.212	0.9062	0.094
Mof_H 	H 	0.4511	0.1569	0.8683	0.017
Mof_H 	H 	0.8855	0.1539	0.8625	0.022
Mof_H 	H 	0.7405	0.2137	0.8583	0.09
Mof_H 	H 	0.7198	0.2365	0.7919	0.019
Mof_H 	H 	0.0399	0.1337	0.6353	-0.021
Mof_H 	H 	0.9843	0.0727	0.6283	0.111
Mof_H 	H 	0.8933	0.0416	0.6864	-0.005
Mof_H 	H 	0.6248	0.0444	0.7106	-0.017
Mof_H 	H 	0.6777	0.0387	0.6403	0.096
Mof_H 	H 	0.5754	0.0009	0.6055	-0.023
Mof_H 	H 	0.1549	0.9136	0.6878	-0.003
Mof_H 	H 	0.1747	0.8716	0.743	0.092
Mof_H 	H 	0.3323	0.875	0.7792	0.029
Mof_H 	H 	0.9952	0.6271	0.7095	0.029
Mof_H 	H 	0.8212	0.6484	0.68	0.091
Mof_H 	H 	0.8329	0.6394	0.611	-0.002
Mof_H 	H 	0.333	0.6143	0.4987	-0.021
Mof_H 	H 	0.4939	0.5631	0.5063	0.098
Mof_H 	H 	0.4709	0.5194	0.563	-0.017
Mof_H 	H 	0.7379	0.5262	0.5378	-0.001
Mof_H 	H 	0.8453	0.5271	0.4719	0.095
Mof_H 	H 	0.9554	0.4673	0.4427	-0.026
Mof_H 	H 	0.916	0.2987	0.5279	-0.021
Mof_H 	H 	0.9586	0.288	0.5938	0.094
Mof_H 	H 	0.9763	0.3431	0.6317	0.018
Mof_H 	H 	0.4019	0.3461	0.6375	0.021
Mof_H 	H 	0.3125	0.2863	0.6417	0.09
Mof_H 	H 	0.2482	0.2635	0.7081	0.019
Mof_H 	H 	0.3089	0.3663	0.8647	-0.018
Mof_H 	H 	0.1853	0.4273	0.8717	0.109
Mof_H 	H 	0.1213	0.4584	0.8136	-0.004
Mof_H 	H 	0.8798	0.4556	0.7894	-0.017
Mof_H 	H 	0.8567	0.4613	0.8597	0.097
Mof_H 	H 	0.6818	0.4991	0.8945	-0.023
Mof_H 	H 	0.2563	0.5864	0.8122	-0.003
Mof_H 	H 	0.2893	0.6284	0.757	0.092
Mof_H 	H 	0.4865	0.625	0.7208	0.029
Mof_H 	H 	0.6223	0.2095	0.3729	0.029
Mof_H 	H 	0.4696	0.18	0.3516	0.091
Mof_H 	H 	0.4723	0.111	0.3606	-0.003
Mof_H 	H 	0.9473	0.9987	0.3857	-0.022
Mof_H 	H 	0.057	0.0063	0.4369	0.098
Mof_H 	H 	0.9903	0.063	0.4806	-0.017
Mof_H 	H 	0.2641	0.0378	0.4738	-0.001
Mof_H 	H 	0.3724	0.9719	0.4729	0.095
Mof_H 	H 	0.4227	0.9427	0.5327	-0.026
Mof_H 	H 	0.2147	0.0279	0.7013	-0.022
Mof_H 	H 	0.2466	0.0938	0.712	0.093
Mof_H 	H 	0.3194	0.1317	0.6569	0.017
Mof_H 	H 	0.748	0.1375	0.6539	0.021
Mof_H 	H 	0.5988	0.1417	0.7137	0.09
Mof_H 	H 	0.5117	0.2081	0.7365	0.019
Mof_H 	H 	0.6752	0.3647	0.6337	-0.018
Mof_H 	H 	0.6126	0.3717	0.5727	0.109
Mof_H 	H 	0.5797	0.3136	0.5416	-0.004
Mof_H 	H 	0.3354	0.2894	0.5444	-0.017
Mof_H 	H 	0.318	0.3597	0.5387	0.096
Mof_H 	H 	0.1809	0.3945	0.5009	-0.024
Mof_H 	H 	0.8427	0.3122	0.4136	-0.002
Mof_H 	H 	0.9177	0.257	0.3716	0.091
Mof_H 	H 	0.1115	0.2208	0.375	0.031
Mof_H 	H 	0.7047	0.2905	0.1271	0.029
Mof_H 	H 	0.5012	0.32	0.1484	0.091
Mof_H 	H 	0.4439	0.389	0.1394	-0.002
Mof_H 	H 	0.8317	0.5013	0.1143	-0.021
Mof_H 	H 	0.0002	0.4937	0.0631	0.099
Mof_H 	H 	0.0339	0.437	0.0194	-0.018
Mof_H 	H 	0.2757	0.4622	0.0262	-0.001
Mof_H 	H 	0.3172	0.5281	0.0271	0.095
Mof_H 	H 	0.3981	0.5573	0.9673	-0.026
Mof_H 	H 	0.4439	0.4721	0.7987	-0.022
Mof_H 	H 	0.5524	0.4062	0.788	0.094
Mof_H 	H 	0.608	0.3683	0.8431	0.017
Mof_H 	H 	0.0394	0.3625	0.8461	0.023
Mof_H 	H 	0.9542	0.3583	0.7863	0.09
Mof_H 	H 	0.9563	0.2919	0.7635	0.019
Mof_H 	H 	0.1736	0.1353	0.8663	-0.018
Mof_H 	H 	0.057	0.1283	0.9273	0.109
Mof_H 	H 	0.9349	0.1864	0.9584	-0.004
Mof_H 	H 	0.6692	0.2106	0.9556	-0.017
Mof_H 	H 	0.7164	0.1403	0.9613	0.096
Mof_H 	H 	0.5763	0.1055	0.9991	-0.023
Mof_H 	H 	0.0685	0.1878	0.0864	-0.003
Mof_H 	H 	0.0463	0.243	0.1284	0.092
Mof_H 	H 	0.2073	0.2792	0.125	0.029
Mof_C 	C 	0.01196	0.09109	0.17819	0.313
Mof_C 	C 	0.13064	0.10529	0.15783	-0.109
Mof_C 	C 	0.19673	0.12347	0.18147	0.044
Mof_C 	C 	0.30495	0.1363	0.164	-0.13
Mof_C 	C 	0.34364	0.13084	0.12288	0.074
Mof_C 	C 	0.17709	0.10011	0.11611	0.043
Mof_C 	C 	0.11275	0.08385	0.08525	0.102
Mof_C 	C 	0.052	0.09819	0.02241	0.114
Mof_C 	C 	0.98415	0.06712	0.02598	-0.189
Mof_C 	C 	0.98879	0.04163	0.06019	0.132
Mof_C 	C 	0.05592	0.04915	0.09001	-0.223
Mof_C 	C 	0.07363	0.01792	0.12322	0.551
Mof_C 	C 	0.73291	0.96475	0.09023	0.351
Mof_C 	C 	0.68947	0.96604	0.04902	-0.129
Mof_C 	C 	0.68497	0.00225	0.02621	0.081
Mof_C 	C 	0.66143	0.0028	0.98694	-0.167
Mof_C 	C 	0.64648	0.96712	0.96992	0.111
Mof_C 	C 	0.66371	0.93176	0.03082	0.07
Mof_C 	C 	0.65536	0.89171	0.05117	0.053
Mof_C 	C 	0.71522	0.82116	0.0438	0.099
Mof_C 	C 	0.65563	0.81445	0.08309	-0.152
Mof_C 	C 	0.59106	0.84729	0.10559	0.068
Mof_C 	C 	0.58717	0.88675	0.09031	-0.124
Mof_C 	C 	0.49888	0.92156	0.11348	0.337
Mof_C 	C 	0.98605	0.89987	0.19283	0.371
Mof_C 	C 	0.08332	0.86162	0.19774	-0.133
Mof_C 	C 	0.1356	0.8376	0.1628	0.061
Mof_C 	C 	0.2182	0.8012	0.165	-0.133
Mof_C 	C 	0.2338	0.7892	0.2048	0.083
Mof_C 	C 	0.1189	0.84813	0.23367	0.093
Mof_C 	C 	0.083	0.87313	0.27187	0.096
Mof_C 	C 	0.0007	0.8778	0.3414	0.133
Mof_C 	C 	0.0316	0.91445	0.34615	-0.188
Mof_C 	C 	0.0876	0.93225	0.31195	0.093
Mof_C 	C 	0.11678	0.91112	0.27392	-0.144
Mof_C 	C 	0.18744	0.9304	0.23852	0.359
Mof_C 	C 	0.53822	0.98848	0.23688	0.553
Mof_C 	C 	0.49239	0.99654	0.28228	-0.216
Mof_C 	C 	0.41041	0.97312	0.30366	0.135
Mof_C 	C 	0.38115	0.97565	0.34545	-0.198
Mof_C 	C 	0.43942	0.99941	0.36595	0.115
Mof_C 	C 	0.53899	0.02349	0.30513	0.099
Mof_C 	C 	0.61747	0.05453	0.28793	0.048
Mof_C 	C 	0.78253	0.08461	0.29733	0.082
Mof_C 	C 	0.77124	0.1099	0.26462	-0.132
Mof_C 	C 	0.67807	0.10757	0.24309	0.048
Mof_C 	C 	0.599	0.07938	0.25422	-0.106
Mof_C 	C 	0.49596	0.07841	0.22947	0.316
Mof_C 	C 	0.78124	0.40891	0.32181	0.314
Mof_C 	C 	0.89376	0.39471	0.34217	-0.109
Mof_C 	C 	0.00167	0.37653	0.31853	0.044
Mof_C 	C 	0.10525	0.3637	0.336	-0.129
Mof_C 	C 	0.09736	0.36916	0.37712	0.074
Mof_C 	C 	0.89331	0.39989	0.38389	0.043
Mof_C 	C 	0.78185	0.41615	0.41475	0.102
Mof_C 	C 	0.6726	0.40181	0.47759	0.116
Mof_C 	C 	0.57725	0.43288	0.47402	-0.19
Mof_C 	C 	0.59061	0.45837	0.43981	0.132
Mof_C 	C 	0.69508	0.45085	0.40999	-0.222
Mof_C 	C 	0.71477	0.48208	0.37678	0.551
Mof_C 	C 	0.28789	0.53525	0.40977	0.351
Mof_C 	C 	0.20453	0.53396	0.45098	-0.128
Mof_C 	C 	0.21343	0.49775	0.47379	0.08
Mof_C 	C 	0.15117	0.4972	0.51306	-0.166
Mof_C 	C 	0.08352	0.53288	0.53008	0.11
Mof_C 	C 	0.12629	0.56824	0.46918	0.07
Mof_C 	C 	0.09824	0.60829	0.44883	0.054
Mof_C 	C 	0.08018	0.67884	0.4562	0.1
Mof_C 	C 	0.05317	0.68555	0.41691	-0.152
Mof_C 	C 	0.04394	0.65271	0.39441	0.069
Mof_C 	C 	0.06423	0.61325	0.40969	-0.124
Mof_C 	C 	0.03392	0.57844	0.38652	0.339
Mof_C 	C 	0.57875	0.60013	0.30717	0.374
Mof_C 	C 	0.64268	0.63838	0.30226	-0.135
Mof_C 	C 	0.636	0.6624	0.3372	0.062
Mof_C 	C 	0.6844	0.6988	0.335	-0.134
Mof_C 	C 	0.7278	0.7108	0.2952	0.083
Mof_C 	C 	0.7007	0.65187	0.26633	0.093
Mof_C 	C 	0.728	0.62687	0.22813	0.095
Mof_C 	C 	0.7199	0.6222	0.1586	0.127
Mof_C 	C 	0.7922	0.58555	0.15385	-0.184
Mof_C 	C 	0.8318	0.56775	0.18805	0.091
Mof_C 	C 	0.80182	0.58888	0.22608	-0.144
Mof_C 	C 	0.85636	0.5696	0.26148	0.358
Mof_C 	C 	0.26358	0.51152	0.26312	0.553
Mof_C 	C 	0.27121	0.50346	0.21772	-0.216
Mof_C 	C 	0.18719	0.52688	0.19634	0.135
Mof_C 	C 	0.20225	0.52435	0.15455	-0.198
Mof_C 	C 	0.30478	0.50059	0.13405	0.115
Mof_C 	C 	0.36761	0.47651	0.19487	0.099
Mof_C 	C 	0.45993	0.44547	0.21207	0.048
Mof_C 	C 	0.66447	0.41539	0.20267	0.082
Mof_C 	C 	0.64576	0.3901	0.23538	-0.132
Mof_C 	C 	0.52873	0.39243	0.25691	0.047
Mof_C 	C 	0.4326	0.42062	0.24578	-0.106
Mof_C 	C 	0.30384	0.42159	0.27053	0.316
Mof_C 	C 	0.19015	0.82181	0.59109	0.314
Mof_C 	C 	0.28847	0.84217	0.60529	-0.109
Mof_C 	C 	0.3782	0.81853	0.62347	0.044
Mof_C 	C 	0.46895	0.836	0.6363	-0.13
Mof_C 	C 	0.46652	0.87712	0.63084	0.074
Mof_C 	C 	0.2932	0.88389	0.60011	0.043
Mof_C 	C 	0.198	0.91475	0.58385	0.102
Mof_C 	C 	0.07441	0.97759	0.59819	0.116
Mof_C 	C 	0.01013	0.97402	0.56712	-0.191
Mof_C 	C 	0.04898	0.93981	0.54163	0.132
Mof_C 	C 	0.14593	0.90999	0.54915	-0.222
Mof_C 	C 	0.19685	0.87678	0.51792	0.55
Mof_C 	C 	0.82314	0.90977	0.46475	0.351
Mof_C 	C 	0.73849	0.95098	0.46604	-0.129
Mof_C 	C 	0.71118	0.97379	0.50225	0.08
Mof_C 	C 	0.64837	0.01306	0.5028	-0.166
Mof_C 	C 	0.6164	0.03008	0.46712	0.11
Mof_C 	C 	0.69453	0.96918	0.43176	0.07
Mof_C 	C 	0.70653	0.94883	0.39171	0.053
Mof_C 	C 	0.75902	0.9562	0.32116	0.099
Mof_C 	C 	0.73872	0.91691	0.31445	-0.152
Mof_C 	C 	0.69665	0.89441	0.34729	0.068
Mof_C 	C 	0.67748	0.90969	0.38675	-0.124
Mof_C 	C 	0.61236	0.88652	0.42156	0.337
Mof_C 	C 	0.17888	0.80717	0.39987	0.373
Mof_C 	C 	0.28106	0.80226	0.36162	-0.135
Mof_C 	C 	0.2984	0.8372	0.3376	0.062
Mof_C 	C 	0.3832	0.835	0.3012	-0.134
Mof_C 	C 	0.4386	0.7952	0.2892	0.083
Mof_C 	C 	0.35257	0.76633	0.34813	0.093
Mof_C 	C 	0.35487	0.72813	0.37313	0.095
Mof_C 	C 	0.3421	0.6586	0.3778	0.127
Mof_C 	C 	0.37775	0.65385	0.41445	-0.184
Mof_C 	C 	0.39955	0.68805	0.43225	0.091
Mof_C 	C 	0.3907	0.72608	0.41112	-0.143
Mof_C 	C 	0.42596	0.76148	0.4304	0.358
Mof_C 	C 	0.7751	0.76312	0.48848	0.553
Mof_C 	C 	0.77467	0.71772	0.49654	-0.217
Mof_C 	C 	0.71407	0.69634	0.47312	0.135
Mof_C 	C 	0.7266	0.65455	0.47565	-0.198
Mof_C 	C 	0.80537	0.63405	0.49941	0.115
Mof_C 	C 	0.84412	0.69487	0.52349	0.1
Mof_C 	C 	0.9054	0.71207	0.55453	0.046
Mof_C 	C 	0.07986	0.70267	0.58461	0.08
Mof_C 	C 	0.03586	0.73538	0.6099	-0.127
Mof_C 	C 	0.92116	0.75691	0.60757	0.043
Mof_C 	C 	0.85322	0.74578	0.57938	-0.104
Mof_C 	C 	0.72543	0.77053	0.57841	0.316
Mof_C 	C 	0.10305	0.67819	0.90891	0.314
Mof_C 	C 	0.23593	0.65783	0.89471	-0.109
Mof_C 	C 	0.3202	0.68147	0.87653	0.044
Mof_C 	C 	0.44125	0.664	0.8637	-0.129
Mof_C 	C 	0.47448	0.62288	0.86916	0.074
Mof_C 	C 	0.2772	0.61611	0.89989	0.043
Mof_C 	C 	0.1966	0.58525	0.91615	0.103
Mof_C 	C 	0.15019	0.52241	0.90181	0.117
Mof_C 	C 	0.05127	0.52598	0.93288	-0.193
Mof_C 	C 	0.03042	0.56019	0.95837	0.135
Mof_C 	C 	0.10507	0.59001	0.95085	-0.224
Mof_C 	C 	0.09155	0.62322	0.98208	0.553
Mof_C 	C 	0.69766	0.59023	0.03525	0.351
Mof_C 	C 	0.65551	0.54902	0.03396	-0.128
Mof_C 	C 	0.68722	0.52621	0.99775	0.08
Mof_C 	C 	0.66423	0.48694	0.9972	-0.166
Mof_C 	C 	0.6136	0.46992	0.03288	0.11
Mof_C 	C 	0.59547	0.53082	0.06824	0.07
Mof_C 	C 	0.54707	0.55117	0.10829	0.053
Mof_C 	C 	0.53638	0.5438	0.17884	0.099
Mof_C 	C 	0.47008	0.58309	0.18555	-0.152
Mof_C 	C 	0.43835	0.60559	0.15271	0.068
Mof_C 	C 	0.47392	0.59031	0.11325	-0.124
Mof_C 	C 	0.42044	0.61348	0.07844	0.337
Mof_C 	C 	0.88592	0.69283	0.10013	0.373
Mof_C 	C 	0.94494	0.69774	0.13838	-0.134
Mof_C 	C 	0.9732	0.6628	0.1624	0.057
Mof_C 	C 	0.0194	0.665	0.1988	-0.13
Mof_C 	C 	0.023	0.7048	0.2108	0.085
Mof_C 	C 	0.96703	0.73367	0.15187	0.093
Mof_C 	C 	0.95613	0.77187	0.12687	0.093
Mof_C 	C 	0.8785	0.8414	0.1222	0.128
Mof_C 	C 	0.94605	0.84615	0.08555	-0.187
Mof_C 	C 	0.01985	0.81195	0.06775	0.093
Mof_C 	C 	0.0279	0.77392	0.08888	-0.142
Mof_C 	C 	0.11784	0.73852	0.0696	0.358
Mof_C 	C 	0.5267	0.73688	0.01152	0.553
Mof_C 	C 	0.48893	0.78228	0.00346	-0.216
Mof_C 	C 	0.38353	0.80366	0.02688	0.135
Mof_C 	C 	0.3568	0.84545	0.02435	-0.198
Mof_C 	C 	0.43883	0.86595	0.00059	0.115
Mof_C 	C 	0.56248	0.80513	0.97651	0.099
Mof_C 	C 	0.672	0.78793	0.94547	0.048
Mof_C 	C 	0.86714	0.79733	0.91539	0.082
Mof_C 	C 	0.88114	0.76462	0.8901	-0.132
Mof_C 	C 	0.78564	0.74309	0.89243	0.047
Mof_C 	C 	0.67838	0.75422	0.92062	-0.106
Mof_C 	C 	0.57437	0.72947	0.92159	0.316
Mof_C 	C 	0.98804	0.90891	0.82181	0.313
Mof_C 	C 	0.86936	0.89471	0.84217	-0.109
Mof_C 	C 	0.80327	0.87653	0.81853	0.044
Mof_C 	C 	0.69505	0.8637	0.836	-0.13
Mof_C 	C 	0.65636	0.86916	0.87712	0.074
Mof_C 	C 	0.82291	0.89989	0.88389	0.043
Mof_C 	C 	0.88725	0.91615	0.91475	0.102
Mof_C 	C 	0.948	0.90181	0.97759	0.114
Mof_C 	C 	0.01585	0.93288	0.97402	-0.189
Mof_C 	C 	0.01121	0.95837	0.93981	0.132
Mof_C 	C 	0.94408	0.95085	0.90999	-0.223
Mof_C 	C 	0.92637	0.98208	0.87678	0.551
Mof_C 	C 	0.26709	0.03525	0.90977	0.351
Mof_C 	C 	0.31053	0.03396	0.95098	-0.129
Mof_C 	C 	0.31503	0.99775	0.97379	0.081
Mof_C 	C 	0.33857	0.9972	0.01306	-0.167
Mof_C 	C 	0.35352	0.03288	0.03008	0.111
Mof_C 	C 	0.33629	0.06824	0.96918	0.07
Mof_C 	C 	0.34464	0.10829	0.94883	0.053
Mof_C 	C 	0.28478	0.17884	0.9562	0.099
Mof_C 	C 	0.34437	0.18555	0.91691	-0.152
Mof_C 	C 	0.40894	0.15271	0.89441	0.068
Mof_C 	C 	0.41283	0.11325	0.90969	-0.124
Mof_C 	C 	0.50112	0.07844	0.88652	0.337
Mof_C 	C 	0.01395	0.10013	0.80717	0.371
Mof_C 	C 	0.91668	0.13838	0.80226	-0.133
Mof_C 	C 	0.8644	0.1624	0.8372	0.061
Mof_C 	C 	0.7818	0.1988	0.835	-0.133
Mof_C 	C 	0.7662	0.2108	0.7952	0.083
Mof_C 	C 	0.8811	0.15187	0.76633	0.093
Mof_C 	C 	0.917	0.12687	0.72813	0.096
Mof_C 	C 	0.9993	0.1222	0.6586	0.133
Mof_C 	C 	0.9684	0.08555	0.65385	-0.188
Mof_C 	C 	0.9124	0.06775	0.68805	0.093
Mof_C 	C 	0.88322	0.08888	0.72608	-0.144
Mof_C 	C 	0.81256	0.0696	0.76148	0.359
Mof_C 	C 	0.46178	0.01152	0.76312	0.553
Mof_C 	C 	0.50761	0.00346	0.71772	-0.216
Mof_C 	C 	0.58959	0.02688	0.69634	0.135
Mof_C 	C 	0.61885	0.02435	0.65455	-0.198
Mof_C 	C 	0.56058	0.00059	0.63405	0.115
Mof_C 	C 	0.46101	0.97651	0.69487	0.099
Mof_C 	C 	0.38253	0.94547	0.71207	0.048
Mof_C 	C 	0.21747	0.91539	0.70267	0.082
Mof_C 	C 	0.22876	0.8901	0.73538	-0.132
Mof_C 	C 	0.32193	0.89243	0.75691	0.047
Mof_C 	C 	0.401	0.92062	0.74578	-0.106
Mof_C 	C 	0.50404	0.92159	0.77053	0.316
Mof_C 	C 	0.21876	0.59109	0.67819	0.314
Mof_C 	C 	0.10624	0.60529	0.65783	-0.109
Mof_C 	C 	0.99833	0.62347	0.68147	0.044
Mof_C 	C 	0.89475	0.6363	0.664	-0.129
Mof_C 	C 	0.90264	0.63084	0.62288	0.074
Mof_C 	C 	0.10669	0.60011	0.61611	0.043
Mof_C 	C 	0.21815	0.58385	0.58525	0.102
Mof_C 	C 	0.3274	0.59819	0.52241	0.116
Mof_C 	C 	0.42275	0.56712	0.52598	-0.191
Mof_C 	C 	0.40939	0.54163	0.56019	0.132
Mof_C 	C 	0.30492	0.54915	0.59001	-0.222
Mof_C 	C 	0.28523	0.51792	0.62322	0.551
Mof_C 	C 	0.71211	0.46475	0.59023	0.351
Mof_C 	C 	0.79547	0.46604	0.54902	-0.128
Mof_C 	C 	0.78657	0.50225	0.52621	0.08
Mof_C 	C 	0.84883	0.5028	0.48694	-0.166
Mof_C 	C 	0.91648	0.46712	0.46992	0.11
Mof_C 	C 	0.87371	0.43176	0.53082	0.07
Mof_C 	C 	0.90176	0.39171	0.55117	0.054
Mof_C 	C 	0.91982	0.32116	0.5438	0.1
Mof_C 	C 	0.94683	0.31445	0.58309	-0.152
Mof_C 	C 	0.95606	0.34729	0.60559	0.069
Mof_C 	C 	0.93577	0.38675	0.59031	-0.124
Mof_C 	C 	0.96608	0.42156	0.61348	0.339
Mof_C 	C 	0.42125	0.39987	0.69283	0.374
Mof_C 	C 	0.35732	0.36162	0.69774	-0.135
Mof_C 	C 	0.364	0.3376	0.6628	0.062
Mof_C 	C 	0.3156	0.3012	0.665	-0.134
Mof_C 	C 	0.2722	0.2892	0.7048	0.083
Mof_C 	C 	0.2993	0.34813	0.73367	0.093
Mof_C 	C 	0.272	0.37313	0.77187	0.095
Mof_C 	C 	0.2801	0.3778	0.8414	0.127
Mof_C 	C 	0.2078	0.41445	0.84615	-0.184
Mof_C 	C 	0.1682	0.43225	0.81195	0.091
Mof_C 	C 	0.19818	0.41112	0.77392	-0.144
Mof_C 	C 	0.14364	0.4304	0.73852	0.358
Mof_C 	C 	0.73642	0.48848	0.73688	0.553
Mof_C 	C 	0.72879	0.49654	0.78228	-0.216
Mof_C 	C 	0.81281	0.47312	0.80366	0.135
Mof_C 	C 	0.79775	0.47565	0.84545	-0.198
Mof_C 	C 	0.69522	0.49941	0.86595	0.115
Mof_C 	C 	0.63239	0.52349	0.80513	0.099
Mof_C 	C 	0.54007	0.55453	0.78793	0.048
Mof_C 	C 	0.33553	0.58461	0.79733	0.082
Mof_C 	C 	0.35424	0.6099	0.76462	-0.132
Mof_C 	C 	0.47127	0.60757	0.74309	0.047
Mof_C 	C 	0.5674	0.57938	0.75422	-0.106
Mof_C 	C 	0.69616	0.57841	0.72947	0.316
Mof_C 	C 	0.80985	0.17819	0.40891	0.314
Mof_C 	C 	0.71153	0.15783	0.39471	-0.109
Mof_C 	C 	0.6218	0.18147	0.37653	0.044
Mof_C 	C 	0.53105	0.164	0.3637	-0.13
Mof_C 	C 	0.53348	0.12288	0.36916	0.074
Mof_C 	C 	0.7068	0.11611	0.39989	0.043
Mof_C 	C 	0.802	0.08525	0.41615	0.102
Mof_C 	C 	0.92559	0.02241	0.40181	0.116
Mof_C 	C 	0.98987	0.02598	0.43288	-0.191
Mof_C 	C 	0.95102	0.06019	0.45837	0.132
Mof_C 	C 	0.85407	0.09001	0.45085	-0.222
Mof_C 	C 	0.80315	0.12322	0.48208	0.55
Mof_C 	C 	0.17686	0.09023	0.53525	0.351
Mof_C 	C 	0.26151	0.04902	0.53396	-0.129
Mof_C 	C 	0.28882	0.02621	0.49775	0.08
Mof_C 	C 	0.35163	0.98694	0.4972	-0.166
Mof_C 	C 	0.3836	0.96992	0.53288	0.11
Mof_C 	C 	0.30547	0.03082	0.56824	0.07
Mof_C 	C 	0.29347	0.05117	0.60829	0.053
Mof_C 	C 	0.24098	0.0438	0.67884	0.099
Mof_C 	C 	0.26128	0.08309	0.68555	-0.152
Mof_C 	C 	0.30335	0.10559	0.65271	0.068
Mof_C 	C 	0.32252	0.09031	0.61325	-0.124
Mof_C 	C 	0.38764	0.11348	0.57844	0.337
Mof_C 	C 	0.82112	0.19283	0.60013	0.373
Mof_C 	C 	0.71894	0.19774	0.63838	-0.135
Mof_C 	C 	0.7016	0.1628	0.6624	0.062
Mof_C 	C 	0.6168	0.165	0.6988	-0.134
Mof_C 	C 	0.5614	0.2048	0.7108	0.083
Mof_C 	C 	0.64743	0.23367	0.65187	0.093
Mof_C 	C 	0.64513	0.27187	0.62687	0.095
Mof_C 	C 	0.6579	0.3414	0.6222	0.127
Mof_C 	C 	0.62225	0.34615	0.58555	-0.184
Mof_C 	C 	0.60045	0.31195	0.56775	0.091
Mof_C 	C 	0.6093	0.27392	0.58888	-0.143
Mof_C 	C 	0.57404	0.23852	0.5696	0.358
Mof_C 	C 	0.2249	0.23688	0.51152	0.553
Mof_C 	C 	0.22533	0.28228	0.50346	-0.217
Mof_C 	C 	0.28593	0.30366	0.52688	0.135
Mof_C 	C 	0.2734	0.34545	0.52435	-0.198
Mof_C 	C 	0.19463	0.36595	0.50059	0.115
Mof_C 	C 	0.15588	0.30513	0.47651	0.1
Mof_C 	C 	0.0946	0.28793	0.44547	0.046
Mof_C 	C 	0.92014	0.29733	0.41539	0.08
Mof_C 	C 	0.96414	0.26462	0.3901	-0.127
Mof_C 	C 	0.07884	0.24309	0.39243	0.043
Mof_C 	C 	0.14678	0.25422	0.42062	-0.104
Mof_C 	C 	0.27457	0.22947	0.42159	0.316
Mof_C 	C 	0.89695	0.32181	0.09109	0.314
Mof_C 	C 	0.76407	0.34217	0.10529	-0.109
Mof_C 	C 	0.6798	0.31853	0.12347	0.044
Mof_C 	C 	0.55875	0.336	0.1363	-0.129
Mof_C 	C 	0.52552	0.37712	0.13084	0.074
Mof_C 	C 	0.7228	0.38389	0.10011	0.043
Mof_C 	C 	0.8034	0.41475	0.08385	0.103
Mof_C 	C 	0.84981	0.47759	0.09819	0.117
Mof_C 	C 	0.94873	0.47402	0.06712	-0.193
Mof_C 	C 	0.96958	0.43981	0.04163	0.135
Mof_C 	C 	0.89493	0.40999	0.04915	-0.224
Mof_C 	C 	0.90845	0.37678	0.01792	0.553
Mof_C 	C 	0.30234	0.40977	0.96475	0.351
Mof_C 	C 	0.34449	0.45098	0.96604	-0.128
Mof_C 	C 	0.31278	0.47379	0.00225	0.08
Mof_C 	C 	0.33577	0.51306	0.0028	-0.166
Mof_C 	C 	0.3864	0.53008	0.96712	0.11
Mof_C 	C 	0.40453	0.46918	0.93176	0.07
Mof_C 	C 	0.45293	0.44883	0.89171	0.053
Mof_C 	C 	0.46362	0.4562	0.82116	0.099
Mof_C 	C 	0.52992	0.41691	0.81445	-0.152
Mof_C 	C 	0.56165	0.39441	0.84729	0.068
Mof_C 	C 	0.52608	0.40969	0.88675	-0.124
Mof_C 	C 	0.57956	0.38652	0.92156	0.337
Mof_C 	C 	0.11408	0.30717	0.89987	0.373
Mof_C 	C 	0.05506	0.30226	0.86162	-0.134
Mof_C 	C 	0.0268	0.3372	0.8376	0.057
Mof_C 	C 	0.9806	0.335	0.8012	-0.13
Mof_C 	C 	0.977	0.2952	0.7892	0.085
Mof_C 	C 	0.03297	0.26633	0.84813	0.093
Mof_C 	C 	0.04387	0.22813	0.87313	0.093
Mof_C 	C 	0.1215	0.1586	0.8778	0.128
Mof_C 	C 	0.05395	0.15385	0.91445	-0.187
Mof_C 	C 	0.98015	0.18805	0.93225	0.093
Mof_C 	C 	0.9721	0.22608	0.91112	-0.142
Mof_C 	C 	0.88216	0.26148	0.9304	0.358
Mof_C 	C 	0.4733	0.26312	0.98848	0.553
Mof_C 	C 	0.51107	0.21772	0.99654	-0.216
Mof_C 	C 	0.61647	0.19634	0.97312	0.135
Mof_C 	C 	0.6432	0.15455	0.97565	-0.198
Mof_C 	C 	0.56117	0.13405	0.99941	0.115
Mof_C 	C 	0.43752	0.19487	0.02349	0.099
Mof_C 	C 	0.328	0.21207	0.05453	0.048
Mof_C 	C 	0.13286	0.20267	0.08461	0.082
Mof_C 	C 	0.11886	0.23538	0.1099	-0.132
Mof_C 	C 	0.21436	0.25691	0.10757	0.047
Mof_C 	C 	0.32162	0.24578	0.07938	-0.106
Mof_C 	C 	0.42563	0.27053	0.07841	0.316
Mof_N 	N 	0.70835	0.05722	0.30948	-0.244
Mof_N 	N 	0.51719	0.02332	0.3467	-0.248
Mof_N 	N 	0.0223	0.85555	0.30605	-0.133
Mof_N 	N 	0.18771	0.81148	0.2385	-0.124
Mof_N 	N 	0.11537	0.10678	0.05088	-0.25
Mof_N 	N 	0.28097	0.11367	0.09879	-0.247
Mof_N 	N 	0.6484	0.93194	0.99106	-0.242
Mof_N 	N 	0.71431	0.85865	0.02793	-0.242
Mof_N 	N 	0.57505	0.44278	0.19052	-0.244
Mof_N 	N 	0.38721	0.47668	0.1533	-0.248
Mof_N 	N 	0.6839	0.64445	0.19395	-0.133
Mof_N 	N 	0.73769	0.68852	0.2615	-0.124
Mof_N 	N 	0.77303	0.39322	0.44912	-0.25
Mof_N 	N 	0.99343	0.38633	0.40121	-0.246
Mof_N 	N 	0.0714	0.56806	0.50894	-0.242
Mof_N 	N 	0.10089	0.64135	0.47207	-0.242
Mof_N 	N 	0.01783	0.69052	0.55722	-0.242
Mof_N 	N 	0.86389	0.6533	0.52332	-0.249
Mof_N 	N 	0.32835	0.69395	0.35555	-0.132
Mof_N 	N 	0.42621	0.7615	0.31148	-0.124
Mof_N 	N 	0.16625	0.94912	0.60678	-0.25
Mof_N 	N 	0.37976	0.90121	0.61367	-0.247
Mof_N 	N 	0.63946	0.00894	0.43194	-0.242
Mof_N 	N 	0.74224	0.97207	0.35865	-0.242
Mof_N 	N 	0.76557	0.80948	0.94278	-0.244
Mof_N 	N 	0.54051	0.8467	0.97668	-0.248
Mof_N 	N 	0.87785	0.80605	0.14445	-0.133
Mof_N 	N 	0.99919	0.7385	0.18852	-0.126
Mof_N 	N 	0.22215	0.55088	0.89322	-0.25
Mof_N 	N 	0.39464	0.59879	0.88633	-0.247
Mof_N 	N 	0.58034	0.49106	0.06806	-0.242
Mof_N 	N 	0.57296	0.52793	0.14135	-0.242
Mof_N 	N 	0.29165	0.94278	0.69052	-0.244
Mof_N 	N 	0.48281	0.97668	0.6533	-0.248
Mof_N 	N 	0.9777	0.14445	0.69395	-0.133
Mof_N 	N 	0.81229	0.18852	0.7615	-0.124
Mof_N 	N 	0.88463	0.89322	0.94912	-0.25
Mof_N 	N 	0.71903	0.88633	0.90121	-0.247
Mof_N 	N 	0.3516	0.06806	0.00894	-0.242
Mof_N 	N 	0.28569	0.14135	0.97207	-0.242
Mof_N 	N 	0.42495	0.55722	0.80948	-0.244
Mof_N 	N 	0.61279	0.52332	0.8467	-0.248
Mof_N 	N 	0.3161	0.35555	0.80605	-0.133
Mof_N 	N 	0.26231	0.31148	0.7385	-0.124
Mof_N 	N 	0.22697	0.60678	0.55088	-0.25
Mof_N 	N 	0.00657	0.61367	0.59879	-0.246
Mof_N 	N 	0.9286	0.43194	0.49106	-0.242
Mof_N 	N 	0.89911	0.35865	0.52793	-0.242
Mof_N 	N 	0.98217	0.30948	0.44278	-0.242
Mof_N 	N 	0.13611	0.3467	0.47668	-0.249
Mof_N 	N 	0.67165	0.30605	0.64445	-0.132
Mof_N 	N 	0.57379	0.2385	0.68852	-0.124
Mof_N 	N 	0.83375	0.05088	0.39322	-0.25
Mof_N 	N 	0.62024	0.09879	0.38633	-0.247
Mof_N 	N 	0.36054	0.99106	0.56806	-0.242
Mof_N 	N 	0.25776	0.02793	0.64135	-0.242
Mof_N 	N 	0.23443	0.19052	0.05722	-0.244
Mof_N 	N 	0.45949	0.1533	0.02332	-0.248
Mof_N 	N 	0.12215	0.19395	0.85555	-0.133
Mof_N 	N 	0.00081	0.2615	0.81148	-0.126
Mof_N 	N 	0.77785	0.44912	0.10678	-0.25
Mof_N 	N 	0.60536	0.40121	0.11367	-0.247
Mof_N 	N 	0.41966	0.50894	0.93194	-0.242
Mof_N 	N 	0.42704	0.47207	0.85865	-0.242
Mof_O 	O 	0.92012	0.09988	0.16088	-0.264
Mof_O 	O 	0.01645	0.07143	0.21087	-0.285
Mof_O 	O 	0.99129	0.99629	0.13293	-0.57
Mof_O 	O 	0.17186	0.01462	0.13726	-0.585
Mof_O 	O 	0.13476	0.96232	0.22296	-0.481
Mof_O 	O 	0.2964	0.91611	0.22569	-0.42
Mof_O 	O 	0.44268	0.94936	0.09508	-0.397
Mof_O 	O 	0.48562	0.91923	0.15253	-0.469
Mof_O 	O 	0.46603	0.97745	0.21649	-0.582
Mof_O 	O 	0.64796	0.99229	0.22419	-0.581
Mof_O 	O 	0.83419	0.94411	0.09351	-0.396
Mof_O 	O 	0.66905	0.98615	0.11955	-0.465
Mof_O 	O 	0.90461	0.91304	0.22214	-0.417
Mof_O 	O 	0.99057	0.91492	0.15874	-0.479
Mof_O 	O 	0.39068	0.0783	0.24954	-0.265
Mof_O 	O 	0.52626	0.07698	0.1915	-0.288
Mof_O 	O 	0.68088	0.40012	0.33912	-0.265
Mof_O 	O 	0.79875	0.42857	0.28913	-0.284
Mof_O 	O 	0.62051	0.50371	0.36707	-0.569
Mof_O 	O 	0.82374	0.48538	0.36274	-0.584
Mof_O 	O 	0.82004	0.53768	0.27704	-0.481
Mof_O 	O 	0.9382	0.58389	0.27431	-0.42
Mof_O 	O 	0.98712	0.55064	0.40492	-0.398
Mof_O 	O 	0.05738	0.58077	0.34747	-0.468
Mof_O 	O 	0.15997	0.52255	0.28351	-0.581
Mof_O 	O 	0.36444	0.50771	0.27581	-0.581
Mof_O 	O 	0.37181	0.55589	0.40649	-0.396
Mof_O 	O 	0.27475	0.51385	0.38045	-0.465
Mof_O 	O 	0.53979	0.58696	0.27786	-0.417
Mof_O 	O 	0.56423	0.58508	0.34126	-0.479
Mof_O 	O 	0.21852	0.4217	0.25046	-0.265
Mof_O 	O 	0.29474	0.42302	0.3085	-0.288
Mof_O 	O 	0.081	0.83912	0.59988	-0.264
Mof_O 	O 	0.22732	0.78913	0.57143	-0.284
Mof_O 	O 	0.12422	0.86707	0.49629	-0.568
Mof_O 	O 	0.30912	0.86274	0.51462	-0.585
Mof_O 	O 	0.35772	0.77704	0.46232	-0.481
Mof_O 	O 	0.52209	0.77431	0.41611	-0.42
Mof_O 	O 	0.53776	0.90492	0.44936	-0.397
Mof_O 	O 	0.63815	0.84747	0.41923	-0.469
Mof_O 	O 	0.68252	0.78351	0.47745	-0.582
Mof_O 	O 	0.87215	0.77581	0.49229	-0.581
Mof_O 	O 	0.9277	0.90649	0.44411	-0.396
Mof_O 	O 	0.7886	0.88045	0.48615	-0.465
Mof_O 	O 	0.12675	0.77786	0.41304	-0.416
Mof_O 	O 	0.14931	0.84126	0.41492	-0.478
Mof_O 	O 	0.64022	0.75046	0.5783	-0.265
Mof_O 	O 	0.71776	0.8085	0.57698	-0.288
Mof_O 	O 	0.02	0.66088	0.90012	-0.265
Mof_O 	O 	0.08788	0.71087	0.92857	-0.284
Mof_O 	O 	0.98758	0.63293	0.00371	-0.57
Mof_O 	O 	0.18648	0.63726	0.98538	-0.585
Mof_O 	O 	0.09708	0.72296	0.03768	-0.48
Mof_O 	O 	0.21251	0.72569	0.08389	-0.419
Mof_O 	O 	0.39204	0.59508	0.05064	-0.397
Mof_O 	O 	0.40485	0.65253	0.08077	-0.469
Mof_O 	O 	0.44348	0.71649	0.02255	-0.582
Mof_O 	O 	0.64025	0.72419	0.00771	-0.581
Mof_O 	O 	0.7783	0.59351	0.05589	-0.396
Mof_O 	O 	0.6552	0.61955	0.01385	-0.465
Mof_O 	O 	0.81765	0.72214	0.08696	-0.417
Mof_O 	O 	0.90549	0.65874	0.08508	-0.479
Mof_O 	O 	0.46898	0.74954	0.9217	-0.265
Mof_O 	O 	0.60324	0.6915	0.92302	-0.288
Mof_O 	O 	0.07988	0.90012	0.83912	-0.264
Mof_O 	O 	0.98355	0.92857	0.78913	-0.285
Mof_O 	O 	0.00871	0.00371	0.86707	-0.57
Mof_O 	O 	0.82814	0.98538	0.86274	-0.585
Mof_O 	O 	0.86524	0.03768	0.77704	-0.481
Mof_O 	O 	0.7036	0.08389	0.77431	-0.42
Mof_O 	O 	0.55732	0.05064	0.90492	-0.397
Mof_O 	O 	0.51438	0.08077	0.84747	-0.469
Mof_O 	O 	0.53397	0.02255	0.78351	-0.582
Mof_O 	O 	0.35204	0.00771	0.77581	-0.581
Mof_O 	O 	0.16581	0.05589	0.90649	-0.396
Mof_O 	O 	0.33095	0.01385	0.88045	-0.465
Mof_O 	O 	0.09539	0.08696	0.77786	-0.417
Mof_O 	O 	0.00943	0.08508	0.84126	-0.479
Mof_O 	O 	0.60932	0.9217	0.75046	-0.265
Mof_O 	O 	0.47374	0.92302	0.8085	-0.288
Mof_O 	O 	0.31912	0.59988	0.66088	-0.265
Mof_O 	O 	0.20125	0.57143	0.71087	-0.284
Mof_O 	O 	0.37949	0.49629	0.63293	-0.569
Mof_O 	O 	0.17626	0.51462	0.63726	-0.584
Mof_O 	O 	0.17996	0.46232	0.72296	-0.481
Mof_O 	O 	0.0618	0.41611	0.72569	-0.42
Mof_O 	O 	0.01288	0.44936	0.59508	-0.398
Mof_O 	O 	0.94262	0.41923	0.65253	-0.468
Mof_O 	O 	0.84003	0.47745	0.71649	-0.581
Mof_O 	O 	0.63556	0.49229	0.72419	-0.581
Mof_O 	O 	0.62819	0.44411	0.59351	-0.396
Mof_O 	O 	0.72525	0.48615	0.61955	-0.465
Mof_O 	O 	0.46021	0.41304	0.72214	-0.417
Mof_O 	O 	0.43577	0.41492	0.65874	-0.479
Mof_O 	O 	0.78148	0.5783	0.74954	-0.265
Mof_O 	O 	0.70526	0.57698	0.6915	-0.288
Mof_O 	O 	0.919	0.16088	0.40012	-0.265
Mof_O 	O 	0.77268	0.21087	0.42857	-0.284
Mof_O 	O 	0.87578	0.13293	0.50371	-0.568
Mof_O 	O 	0.69088	0.13726	0.48538	-0.585
Mof_O 	O 	0.64228	0.22296	0.53768	-0.481
Mof_O 	O 	0.47791	0.22569	0.58389	-0.42
Mof_O 	O 	0.46224	0.09508	0.55064	-0.397
Mof_O 	O 	0.36185	0.15253	0.58077	-0.469
Mof_O 	O 	0.31748	0.21649	0.52255	-0.582
Mof_O 	O 	0.12785	0.22419	0.50771	-0.581
Mof_O 	O 	0.0723	0.09351	0.55589	-0.396
Mof_O 	O 	0.2114	0.11955	0.51385	-0.465
Mof_O 	O 	0.87325	0.22214	0.58696	-0.416
Mof_O 	O 	0.85069	0.15874	0.58508	-0.478
Mof_O 	O 	0.35978	0.24954	0.4217	-0.265
Mof_O 	O 	0.28224	0.1915	0.42302	-0.288
Mof_O 	O 	0.98	0.33912	0.09988	-0.265
Mof_O 	O 	0.91212	0.28913	0.07143	-0.284
Mof_O 	O 	0.01242	0.36707	0.99629	-0.57
Mof_O 	O 	0.81352	0.36274	0.01462	-0.585
Mof_O 	O 	0.90292	0.27704	0.96232	-0.48
Mof_O 	O 	0.78749	0.27431	0.91611	-0.419
Mof_O 	O 	0.60796	0.40492	0.94936	-0.397
Mof_O 	O 	0.59515	0.34747	0.91923	-0.469
Mof_O 	O 	0.55652	0.28351	0.97745	-0.582
Mof_O 	O 	0.35975	0.27581	0.99229	-0.581
Mof_O 	O 	0.2217	0.40649	0.94411	-0.396
Mof_O 	O 	0.3448	0.38045	0.98615	-0.465
Mof_O 	O 	0.18235	0.27786	0.91304	-0.417
Mof_O 	O 	0.09451	0.34126	0.91492	-0.479
Mof_O 	O 	0.53102	0.25046	0.0783	-0.265
Mof_O 	O 	0.39676	0.3085	0.07698	-0.288
_end
