data_functionalizedCrystal
_audit_creation_method	'EQeq! by Chris Wilmer'
_symmetry_space_group_name_H-M	'P1'
_symmetry_Int_Tables_number	1
_symmetry_cell_setting	triclinic
loop_
_symmetry_equiv_pos_as_xyz
  x,y,z
_cell_length_a	26.1174
_cell_length_b	26.1174
_cell_length_c	19.491
_cell_angle_alpha	90
_cell_angle_beta	90
_cell_angle_gamma	120
loop_
_atom_site_label
_atom_site_type_symbol
_atom_site_fract_x
_atom_site_fract_y
_atom_site_fract_z
_atom_site_charge
Mof_Zn	Zn	0.43548	0.33209	0.5963	1.197
Mof_C 	C 	0.358	0.3264	0.7115	0.022
Mof_H 	H 	0.33	0.3287	0.6827	0.03
Mof_N 	N 	0.4049	0.3224	0.6909	-0.272
Mof_O 	O 	0.5082	0.3215	0.6939	-0.194
Mof_C 	C 	0.5622	0.3828	0.54	0.819
Mof_H 	H 	0.5564	0.3458	0.5246	-0.279
Mof_N 	N 	0.5179	0.3938	0.5671	0.343
Mof_C 	C 	0.549	0.3979	0.524	-0.973
Mof_H 	H 	0.5371	0.3642	0.4957	0.237
Mof_N 	N 	0.5108	0.4086	0.5878	-0.651
Mof_O 	O 	0.5478	0.5347	0.622	-0.06
Mof_O 	O 	0.5578	0.5225	0.6744	-0.085
Mof_N 	N 	0.4316	0.2602	0.5607	-0.28
Mof_C 	C 	0.43	0.2416	0.4962	0.043
Mof_C 	C 	0.4268	0.2682	0.4341	0.017
Mof_H 	H 	0.4249	0.3036	0.4336	0.038
Mof_C 	C 	0.4266	0.24	0.3751	-0.182
Mof_H 	H 	0.4264	0.2574	0.3323	0.484
Mof_N 	N 	0.441	0.281	0.319	-0.415
Mof_O 	O 	0.4258	0.319	0.316	-0.014
Mof_N 	N 	0.3765	0.3384	0.5404	-0.267
Mof_C 	C 	0.3197	0.2977	0.5248	0.051
Mof_C 	C 	0.2856	0.2392	0.5516	-0.057
Mof_H 	H 	0.3008	0.2236	0.5848	0.046
Mof_C 	C 	0.2313	0.2083	0.527	-0.058
Mof_H 	H 	0.2061	0.1697	0.5445	0.189
Mof_N 	N 	0.1982	0.1375	0.558	-0.121
Mof_O 	O 	0.1433	0.1169	0.5204	-0.048
Mof_Zn	Zn	0.66791	0.10339	0.5963	1.198
Mof_C 	C 	0.6736	0.0316	0.7115	0.023
Mof_H 	H 	0.6713	0.0013	0.6827	0.03
Mof_N 	N 	0.6776	0.0825	0.6909	-0.271
Mof_O 	O 	0.6785	0.1867	0.6939	-0.193
Mof_C 	C 	0.6172	0.1794	0.54	0.815
Mof_H 	H 	0.6542	0.2106	0.5246	-0.276
Mof_N 	N 	0.6062	0.1241	0.5671	0.341
Mof_C 	C 	0.6021	0.1511	0.524	-0.968
Mof_H 	H 	0.6358	0.1729	0.4957	0.236
Mof_N 	N 	0.5914	0.1022	0.5878	-0.648
Mof_O 	O 	0.4653	0.0131	0.622	-0.061
Mof_O 	O 	0.4775	0.0353	0.6744	-0.085
Mof_N 	N 	0.7398	0.1714	0.5607	-0.28
Mof_C 	C 	0.7584	0.1884	0.4962	0.042
Mof_C 	C 	0.7318	0.1586	0.4341	0.017
Mof_H 	H 	0.6964	0.1213	0.4336	0.037
Mof_C 	C 	0.76	0.1866	0.3751	-0.182
Mof_H 	H 	0.7426	0.169	0.3323	0.485
Mof_N 	N 	0.719	0.16	0.319	-0.416
Mof_O 	O 	0.681	0.1068	0.316	-0.015
Mof_N 	N 	0.6616	0.0381	0.5404	-0.265
Mof_C 	C 	0.7023	0.022	0.5248	0.043
Mof_C 	C 	0.7608	0.0464	0.5516	-0.047
Mof_H 	H 	0.7764	0.0772	0.5848	0.043
Mof_C 	C 	0.7917	0.023	0.527	-0.072
Mof_H 	H 	0.8303	0.0364	0.5445	0.195
Mof_N 	N 	0.8625	0.0607	0.558	-0.124
Mof_O 	O 	0.8831	0.0264	0.5204	-0.049
Mof_Zn	Zn	0.89661	0.56452	0.5963	1.198
Mof_C 	C 	0.9684	0.642	0.7115	0.023
Mof_H 	H 	0.9987	0.67	0.6827	0.032
Mof_N 	N 	0.9175	0.5951	0.6909	-0.271
Mof_O 	O 	0.8133	0.4918	0.6939	-0.193
Mof_C 	C 	0.8206	0.4378	0.54	0.834
Mof_H 	H 	0.7894	0.4436	0.5246	-0.284
Mof_N 	N 	0.8759	0.4821	0.5671	0.35
Mof_C 	C 	0.8489	0.451	0.524	-0.989
Mof_H 	H 	0.8271	0.4629	0.4957	0.241
Mof_N 	N 	0.8978	0.4892	0.5878	-0.657
Mof_O 	O 	0.9869	0.4522	0.622	-0.058
Mof_O 	O 	0.9647	0.4422	0.6744	-0.084
Mof_N 	N 	0.8286	0.5684	0.5607	-0.28
Mof_C 	C 	0.8116	0.57	0.4962	0.045
Mof_C 	C 	0.8414	0.5732	0.4341	0.013
Mof_H 	H 	0.8787	0.5751	0.4336	0.04
Mof_C 	C 	0.8134	0.5734	0.3751	-0.175
Mof_H 	H 	0.831	0.5736	0.3323	0.48
Mof_N 	N 	0.84	0.559	0.319	-0.413
Mof_O 	O 	0.8932	0.5742	0.316	-0.013
Mof_N 	N 	0.9619	0.6235	0.5404	-0.266
Mof_C 	C 	0.978	0.6803	0.5248	0.065
Mof_C 	C 	0.9536	0.7144	0.5516	-0.074
Mof_H 	H 	0.9228	0.6992	0.5848	0.052
Mof_C 	C 	0.977	0.7687	0.527	-0.033
Mof_H 	H 	0.9636	0.7939	0.5445	0.178
Mof_N 	N 	0.9393	0.8018	0.558	-0.116
Mof_O 	O 	0.9736	0.8567	0.5204	-0.044
Mof_Zn	Zn	0.56452	0.66791	0.0963	1.198
Mof_C 	C 	0.642	0.6736	0.2115	0.023
Mof_H 	H 	0.67	0.6713	0.1827	0.031
Mof_N 	N 	0.5951	0.6776	0.1909	-0.27
Mof_O 	O 	0.4918	0.6785	0.1939	-0.203
Mof_C 	C 	0.4378	0.6172	0.04	1.093
Mof_H 	H 	0.4436	0.6542	0.0246	-0.374
Mof_N 	N 	0.4821	0.6062	0.0671	0.466
Mof_C 	C 	0.451	0.6021	0.024	-1.268
Mof_H 	H 	0.4629	0.6358	0.9957	0.292
Mof_N 	N 	0.4892	0.5914	0.0878	-0.762
Mof_O 	O 	0.4522	0.4653	0.122	-0.054
Mof_O 	O 	0.4422	0.4775	0.1744	-0.085
Mof_N 	N 	0.5684	0.7398	0.0607	-0.277
Mof_C 	C 	0.57	0.7584	0.9962	0.036
Mof_C 	C 	0.5732	0.7318	0.9341	0.019
Mof_H 	H 	0.5751	0.6964	0.9336	0.037
Mof_C 	C 	0.5734	0.76	0.8751	-0.184
Mof_H 	H 	0.5736	0.7426	0.8323	0.485
Mof_N 	N 	0.559	0.719	0.819	-0.416
Mof_O 	O 	0.5742	0.681	0.816	-0.012
Mof_N 	N 	0.6235	0.6616	0.0404	-0.269
Mof_C 	C 	0.6803	0.7023	0.0248	0.073
Mof_C 	C 	0.7144	0.7608	0.0516	-0.084
Mof_H 	H 	0.6992	0.7764	0.0848	0.056
Mof_C 	C 	0.7687	0.7917	0.027	-0.018
Mof_H 	H 	0.7939	0.8303	0.0445	0.172
Mof_N 	N 	0.8018	0.8625	0.058	-0.113
Mof_O 	O 	0.8567	0.8831	0.0204	-0.041
Mof_Zn	Zn	0.33209	0.89661	0.0963	1.198
Mof_C 	C 	0.3264	0.9684	0.2115	0.023
Mof_H 	H 	0.3287	0.9987	0.1827	0.032
Mof_N 	N 	0.3224	0.9175	0.1909	-0.27
Mof_O 	O 	0.3215	0.8133	0.1939	-0.204
Mof_C 	C 	0.3828	0.8206	0.04	1.127
Mof_H 	H 	0.3458	0.7894	0.0246	-0.386
Mof_N 	N 	0.3938	0.8759	0.0671	0.481
Mof_C 	C 	0.3979	0.8489	0.024	-1.305
Mof_H 	H 	0.3642	0.8271	0.9957	0.299
Mof_N 	N 	0.4086	0.8978	0.0878	-0.776
Mof_O 	O 	0.5347	0.9869	0.122	-0.052
Mof_O 	O 	0.5225	0.9647	0.1744	-0.085
Mof_N 	N 	0.2602	0.8286	0.0607	-0.276
Mof_C 	C 	0.2416	0.8116	0.9962	0.037
Mof_C 	C 	0.2682	0.8414	0.9341	0.016
Mof_H 	H 	0.3036	0.8787	0.9336	0.038
Mof_C 	C 	0.24	0.8134	0.8751	-0.178
Mof_H 	H 	0.2574	0.831	0.8323	0.481
Mof_N 	N 	0.281	0.84	0.819	-0.413
Mof_O 	O 	0.319	0.8932	0.816	-0.013
Mof_N 	N 	0.3384	0.9619	0.0404	-0.268
Mof_C 	C 	0.2977	0.978	0.0248	0.082
Mof_C 	C 	0.2392	0.9536	0.0516	-0.094
Mof_H 	H 	0.2236	0.9228	0.0848	0.059
Mof_C 	C 	0.2083	0.977	0.027	-0.003
Mof_H 	H 	0.1697	0.9636	0.0445	0.165
Mof_N 	N 	0.1375	0.9393	0.058	-0.111
Mof_O 	O 	0.1169	0.9736	0.0204	-0.04
Mof_Zn	Zn	0.10339	0.43548	0.0963	1.198
Mof_C 	C 	0.0316	0.358	0.2115	0.022
Mof_H 	H 	0.0013	0.33	0.1827	0.03
Mof_N 	N 	0.0825	0.4049	0.1909	-0.27
Mof_O 	O 	0.1867	0.5082	0.1939	-0.203
Mof_C 	C 	0.1794	0.5622	0.04	1.104
Mof_H 	H 	0.2106	0.5564	0.0246	-0.378
Mof_N 	N 	0.1241	0.5179	0.0671	0.471
Mof_C 	C 	0.1511	0.549	0.024	-1.281
Mof_H 	H 	0.1729	0.5371	0.9957	0.293
Mof_N 	N 	0.1022	0.5108	0.0878	-0.767
Mof_O 	O 	0.0131	0.5478	0.122	-0.055
Mof_O 	O 	0.0353	0.5578	0.1744	-0.085
Mof_N 	N 	0.1714	0.4316	0.0607	-0.277
Mof_C 	C 	0.1884	0.43	0.9962	0.037
Mof_C 	C 	0.1586	0.4268	0.9341	0.016
Mof_H 	H 	0.1213	0.4249	0.9336	0.037
Mof_C 	C 	0.1866	0.4266	0.8751	-0.178
Mof_H 	H 	0.169	0.4264	0.8323	0.48
Mof_N 	N 	0.16	0.441	0.819	-0.412
Mof_O 	O 	0.1068	0.4258	0.816	-0.015
Mof_N 	N 	0.0381	0.3765	0.0404	-0.266
Mof_C 	C 	0.022	0.3197	0.0248	0.058
Mof_C 	C 	0.0464	0.2856	0.0516	-0.065
Mof_H 	H 	0.0772	0.3008	0.0848	0.049
Mof_C 	C 	0.023	0.2313	0.027	-0.046
Mof_H 	H 	0.0364	0.2061	0.0445	0.184
Mof_N 	N 	0.0607	0.1982	0.058	-0.119
Mof_O 	O 	0.0264	0.1433	0.0204	-0.046
Mof_Zn	Zn	0.33209	0.43548	0.4037	1.198
Mof_C 	C 	0.3264	0.358	0.2885	0.023
Mof_H 	H 	0.3287	0.33	0.3173	0.031
Mof_N 	N 	0.3224	0.4049	0.3091	-0.27
Mof_O 	O 	0.3215	0.5082	0.3061	-0.196
Mof_C 	C 	0.3828	0.5622	0.46	0.837
Mof_H 	H 	0.3458	0.5564	0.4754	-0.285
Mof_N 	N 	0.3938	0.5179	0.4329	0.351
Mof_C 	C 	0.3979	0.549	0.476	-0.992
Mof_H 	H 	0.3642	0.5371	0.5043	0.242
Mof_N 	N 	0.4086	0.5108	0.4122	-0.658
Mof_O 	O 	0.5347	0.5478	0.378	-0.06
Mof_O 	O 	0.5225	0.5578	0.3256	-0.086
Mof_N 	N 	0.2602	0.4316	0.4393	-0.28
Mof_C 	C 	0.2416	0.43	0.5038	0.043
Mof_C 	C 	0.2682	0.4268	0.5659	0.017
Mof_H 	H 	0.3036	0.4249	0.5664	0.038
Mof_C 	C 	0.24	0.4266	0.6249	-0.182
Mof_H 	H 	0.2574	0.4264	0.6677	0.484
Mof_N 	N 	0.281	0.441	0.681	-0.415
Mof_O 	O 	0.319	0.4258	0.684	-0.013
Mof_N 	N 	0.3384	0.3765	0.4596	-0.267
Mof_C 	C 	0.2977	0.3197	0.4752	0.051
Mof_C 	C 	0.2392	0.2856	0.4484	-0.057
Mof_H 	H 	0.2236	0.3008	0.4152	0.046
Mof_C 	C 	0.2083	0.2313	0.473	-0.058
Mof_H 	H 	0.1697	0.2061	0.4555	0.189
Mof_N 	N 	0.1375	0.1982	0.442	-0.121
Mof_O 	O 	0.1169	0.1433	0.4796	-0.048
Mof_Zn	Zn	0.10339	0.66791	0.4037	1.198
Mof_C 	C 	0.0316	0.6736	0.2885	0.023
Mof_H 	H 	0.0013	0.6713	0.3173	0.03
Mof_N 	N 	0.0825	0.6776	0.3091	-0.27
Mof_O 	O 	0.1867	0.6785	0.3061	-0.196
Mof_C 	C 	0.1794	0.6172	0.46	0.829
Mof_H 	H 	0.2106	0.6542	0.4754	-0.282
Mof_N 	N 	0.1241	0.6062	0.4329	0.347
Mof_C 	C 	0.1511	0.6021	0.476	-0.983
Mof_H 	H 	0.1729	0.6358	0.5043	0.24
Mof_N 	N 	0.1022	0.5914	0.4122	-0.655
Mof_O 	O 	0.0131	0.4653	0.378	-0.061
Mof_O 	O 	0.0353	0.4775	0.3256	-0.086
Mof_N 	N 	0.1714	0.7398	0.4393	-0.28
Mof_C 	C 	0.1884	0.7584	0.5038	0.043
Mof_C 	C 	0.1586	0.7318	0.5659	0.016
Mof_H 	H 	0.1213	0.6964	0.5664	0.038
Mof_C 	C 	0.1866	0.76	0.6249	-0.18
Mof_H 	H 	0.169	0.7426	0.6677	0.482
Mof_N 	N 	0.16	0.719	0.681	-0.414
Mof_O 	O 	0.1068	0.681	0.684	-0.016
Mof_N 	N 	0.0381	0.6616	0.4596	-0.264
Mof_C 	C 	0.022	0.7023	0.4752	0.037
Mof_C 	C 	0.0464	0.7608	0.4484	-0.04
Mof_H 	H 	0.0772	0.7764	0.4152	0.04
Mof_C 	C 	0.023	0.7917	0.473	-0.083
Mof_H 	H 	0.0364	0.8303	0.4555	0.2
Mof_N 	N 	0.0607	0.8625	0.442	-0.126
Mof_O 	O 	0.0264	0.8831	0.4796	-0.05
Mof_Zn	Zn	0.56452	0.89661	0.4037	1.198
Mof_C 	C 	0.642	0.9684	0.2885	0.023
Mof_H 	H 	0.67	0.9987	0.3173	0.032
Mof_N 	N 	0.5951	0.9175	0.3091	-0.27
Mof_O 	O 	0.4918	0.8133	0.3061	-0.197
Mof_C 	C 	0.4378	0.8206	0.46	0.845
Mof_H 	H 	0.4436	0.7894	0.4754	-0.288
Mof_N 	N 	0.4821	0.8759	0.4329	0.355
Mof_C 	C 	0.451	0.8489	0.476	-1.001
Mof_H 	H 	0.4629	0.8271	0.5043	0.244
Mof_N 	N 	0.4892	0.8978	0.4122	-0.661
Mof_O 	O 	0.4522	0.9869	0.378	-0.058
Mof_O 	O 	0.4422	0.9647	0.3256	-0.085
Mof_N 	N 	0.5684	0.8286	0.4393	-0.28
Mof_C 	C 	0.57	0.8116	0.5038	0.044
Mof_C 	C 	0.5732	0.8414	0.5659	0.014
Mof_H 	H 	0.5751	0.8787	0.5664	0.039
Mof_C 	C 	0.5734	0.8134	0.6249	-0.176
Mof_H 	H 	0.5736	0.831	0.6677	0.481
Mof_N 	N 	0.559	0.84	0.681	-0.413
Mof_O 	O 	0.5742	0.8932	0.684	-0.013
Mof_N 	N 	0.6235	0.9619	0.4596	-0.266
Mof_C 	C 	0.6803	0.978	0.4752	0.059
Mof_C 	C 	0.7144	0.9536	0.4484	-0.067
Mof_H 	H 	0.6992	0.9228	0.4152	0.049
Mof_C 	C 	0.7687	0.977	0.473	-0.044
Mof_H 	H 	0.7939	0.9636	0.4555	0.183
Mof_N 	N 	0.8018	0.9393	0.442	-0.118
Mof_O 	O 	0.8567	0.9736	0.4796	-0.045
Mof_Zn	Zn	0.66791	0.56452	0.9037	1.197
Mof_C 	C 	0.6736	0.642	0.7885	0.023
Mof_H 	H 	0.6713	0.67	0.8173	0.031
Mof_N 	N 	0.6776	0.5951	0.8091	-0.271
Mof_O 	O 	0.6785	0.4918	0.8061	-0.187
Mof_C 	C 	0.6172	0.4378	0.96	0.586
Mof_H 	H 	0.6542	0.4436	0.9754	-0.197
Mof_N 	N 	0.6062	0.4821	0.9329	0.238
Mof_C 	C 	0.6021	0.451	0.976	-0.72
Mof_H 	H 	0.6358	0.4629	0.0043	0.191
Mof_N 	N 	0.5914	0.4892	0.9122	-0.555
Mof_O 	O 	0.4653	0.4522	0.878	-0.066
Mof_O 	O 	0.4775	0.4422	0.8256	-0.085
Mof_N 	N 	0.7398	0.5684	0.9393	-0.283
Mof_C 	C 	0.7584	0.57	0.0038	0.048
Mof_C 	C 	0.7318	0.5732	0.0659	0.017
Mof_H 	H 	0.6964	0.5751	0.0664	0.037
Mof_C 	C 	0.76	0.5734	0.1249	-0.183
Mof_H 	H 	0.7426	0.5736	0.1677	0.486
Mof_N 	N 	0.719	0.559	0.181	-0.417
Mof_O 	O 	0.681	0.5742	0.184	-0.014
Mof_N 	N 	0.6616	0.6235	0.9596	-0.269
Mof_C 	C 	0.7023	0.6803	0.9752	0.028
Mof_C 	C 	0.7608	0.7144	0.9484	-0.03
Mof_H 	H 	0.7764	0.6992	0.9152	0.036
Mof_C 	C 	0.7917	0.7687	0.973	-0.098
Mof_H 	H 	0.8303	0.7939	0.9555	0.206
Mof_N 	N 	0.8625	0.8018	0.942	-0.129
Mof_O 	O 	0.8831	0.8567	0.9796	-0.052
Mof_Zn	Zn	0.89661	0.33209	0.9037	1.198
Mof_C 	C 	0.9684	0.3264	0.7885	0.023
Mof_H 	H 	0.9987	0.3287	0.8173	0.032
Mof_N 	N 	0.9175	0.3224	0.8091	-0.27
Mof_O 	O 	0.8133	0.3215	0.8061	-0.188
Mof_C 	C 	0.8206	0.3828	0.96	0.623
Mof_H 	H 	0.7894	0.3458	0.9754	-0.21
Mof_N 	N 	0.8759	0.3938	0.9329	0.255
Mof_C 	C 	0.8489	0.3979	0.976	-0.76
Mof_H 	H 	0.8271	0.3642	0.0043	0.199
Mof_N 	N 	0.8978	0.4086	0.9122	-0.57
Mof_O 	O 	0.9869	0.5347	0.878	-0.062
Mof_O 	O 	0.9647	0.5225	0.8256	-0.085
Mof_N 	N 	0.8286	0.2602	0.9393	-0.282
Mof_C 	C 	0.8116	0.2416	0.0038	0.048
Mof_C 	C 	0.8414	0.2682	0.0659	0.015
Mof_H 	H 	0.8787	0.3036	0.0664	0.039
Mof_C 	C 	0.8134	0.24	0.1249	-0.179
Mof_H 	H 	0.831	0.2574	0.1677	0.483
Mof_N 	N 	0.84	0.281	0.181	-0.415
Mof_O 	O 	0.8932	0.319	0.184	-0.013
Mof_N 	N 	0.9619	0.3384	0.9596	-0.268
Mof_C 	C 	0.978	0.2977	0.9752	0.044
Mof_C 	C 	0.9536	0.2392	0.9484	-0.049
Mof_H 	H 	0.9228	0.2236	0.9152	0.043
Mof_C 	C 	0.977	0.2083	0.973	-0.07
Mof_H 	H 	0.9636	0.1697	0.9555	0.194
Mof_N 	N 	0.9393	0.1375	0.942	-0.123
Mof_O 	O 	0.9736	0.1169	0.9796	-0.048
Mof_Zn	Zn	0.43548	0.10339	0.9037	1.197
Mof_C 	C 	0.358	0.0316	0.7885	0.023
Mof_H 	H 	0.33	0.0013	0.8173	0.03
Mof_N 	N 	0.4049	0.0825	0.8091	-0.271
Mof_O 	O 	0.5082	0.1867	0.8061	-0.187
Mof_C 	C 	0.5622	0.1794	0.96	0.609
Mof_H 	H 	0.5564	0.2106	0.9754	-0.205
Mof_N 	N 	0.5179	0.1241	0.9329	0.248
Mof_C 	C 	0.549	0.1511	0.976	-0.746
Mof_H 	H 	0.5371	0.1729	0.0043	0.195
Mof_N 	N 	0.5108	0.1022	0.9122	-0.565
Mof_O 	O 	0.5478	0.0131	0.878	-0.065
Mof_O 	O 	0.5578	0.0353	0.8256	-0.086
Mof_N 	N 	0.4316	0.1714	0.9393	-0.283
Mof_C 	C 	0.43	0.1884	0.0038	0.049
Mof_C 	C 	0.4268	0.1586	0.0659	0.013
Mof_H 	H 	0.4249	0.1213	0.0664	0.038
Mof_C 	C 	0.4266	0.1866	0.1249	-0.178
Mof_H 	H 	0.4264	0.169	0.1677	0.481
Mof_N 	N 	0.441	0.16	0.181	-0.413
Mof_O 	O 	0.4258	0.1068	0.184	-0.016
Mof_N 	N 	0.3765	0.0381	0.9596	-0.266
Mof_C 	C 	0.3197	0.022	0.9752	0.021
Mof_C 	C 	0.2856	0.0464	0.9484	-0.019
Mof_H 	H 	0.3008	0.0772	0.9152	0.033
Mof_C 	C 	0.2313	0.023	0.973	-0.113
Mof_H 	H 	0.2061	0.0364	0.9555	0.213
Mof_N 	N 	0.1982	0.0607	0.942	-0.132
Mof_O 	O 	0.1433	0.0264	0.9796	-0.055
Mof_Zn	Zn	0.56452	0.66791	0.4037	1.198
Mof_C 	C 	0.642	0.6736	0.2885	0.023
Mof_H 	H 	0.67	0.6713	0.3173	0.031
Mof_N 	N 	0.5951	0.6776	0.3091	-0.27
Mof_O 	O 	0.4918	0.6785	0.3061	-0.196
Mof_C 	C 	0.4378	0.6172	0.46	0.837
Mof_H 	H 	0.4436	0.6542	0.4754	-0.285
Mof_N 	N 	0.4821	0.6062	0.4329	0.351
Mof_C 	C 	0.451	0.6021	0.476	-0.992
Mof_H 	H 	0.4629	0.6358	0.5043	0.242
Mof_N 	N 	0.4892	0.5914	0.4122	-0.658
Mof_O 	O 	0.4522	0.4653	0.378	-0.06
Mof_O 	O 	0.4422	0.4775	0.3256	-0.086
Mof_N 	N 	0.5684	0.7398	0.4393	-0.28
Mof_C 	C 	0.57	0.7584	0.5038	0.042
Mof_C 	C 	0.5732	0.7318	0.5659	0.018
Mof_H 	H 	0.5751	0.6964	0.5664	0.038
Mof_C 	C 	0.5734	0.76	0.6249	-0.183
Mof_H 	H 	0.5736	0.7426	0.6677	0.485
Mof_N 	N 	0.559	0.719	0.681	-0.416
Mof_O 	O 	0.5742	0.681	0.684	-0.013
Mof_N 	N 	0.6235	0.6616	0.4596	-0.267
Mof_C 	C 	0.6803	0.7023	0.4752	0.051
Mof_C 	C 	0.7144	0.7608	0.4484	-0.057
Mof_H 	H 	0.6992	0.7764	0.4152	0.046
Mof_C 	C 	0.7687	0.7917	0.473	-0.058
Mof_H 	H 	0.7939	0.8303	0.4555	0.189
Mof_N 	N 	0.8018	0.8625	0.442	-0.121
Mof_O 	O 	0.8567	0.8831	0.4796	-0.046
Mof_Zn	Zn	0.33209	0.89661	0.4037	1.198
Mof_C 	C 	0.3264	0.9684	0.2885	0.023
Mof_H 	H 	0.3287	0.9987	0.3173	0.031
Mof_N 	N 	0.3224	0.9175	0.3091	-0.27
Mof_O 	O 	0.3215	0.8133	0.3061	-0.197
Mof_C 	C 	0.3828	0.8206	0.46	0.845
Mof_H 	H 	0.3458	0.7894	0.4754	-0.288
Mof_N 	N 	0.3938	0.8759	0.4329	0.355
Mof_C 	C 	0.3979	0.8489	0.476	-1.001
Mof_H 	H 	0.3642	0.8271	0.5043	0.244
Mof_N 	N 	0.4086	0.8978	0.4122	-0.661
Mof_O 	O 	0.5347	0.9869	0.378	-0.058
Mof_O 	O 	0.5225	0.9647	0.3256	-0.085
Mof_N 	N 	0.2602	0.8286	0.4393	-0.28
Mof_C 	C 	0.2416	0.8116	0.5038	0.044
Mof_C 	C 	0.2682	0.8414	0.5659	0.015
Mof_H 	H 	0.3036	0.8787	0.5664	0.039
Mof_C 	C 	0.24	0.8134	0.6249	-0.179
Mof_H 	H 	0.2574	0.831	0.6677	0.482
Mof_N 	N 	0.281	0.84	0.681	-0.414
Mof_O 	O 	0.319	0.8932	0.684	-0.013
Mof_N 	N 	0.3384	0.9619	0.4596	-0.266
Mof_C 	C 	0.2977	0.978	0.4752	0.058
Mof_C 	C 	0.2392	0.9536	0.4484	-0.065
Mof_H 	H 	0.2236	0.9228	0.4152	0.049
Mof_C 	C 	0.2083	0.977	0.473	-0.046
Mof_H 	H 	0.1697	0.9636	0.4555	0.184
Mof_N 	N 	0.1375	0.9393	0.442	-0.119
Mof_O 	O 	0.1169	0.9736	0.4796	-0.046
Mof_Zn	Zn	0.10339	0.43548	0.4037	1.198
Mof_C 	C 	0.0316	0.358	0.2885	0.023
Mof_H 	H 	0.0013	0.33	0.3173	0.03
Mof_N 	N 	0.0825	0.4049	0.3091	-0.27
Mof_O 	O 	0.1867	0.5082	0.3061	-0.196
Mof_C 	C 	0.1794	0.5622	0.46	0.829
Mof_H 	H 	0.2106	0.5564	0.4754	-0.282
Mof_N 	N 	0.1241	0.5179	0.4329	0.347
Mof_C 	C 	0.1511	0.549	0.476	-0.983
Mof_H 	H 	0.1729	0.5371	0.5043	0.24
Mof_N 	N 	0.1022	0.5108	0.4122	-0.655
Mof_O 	O 	0.0131	0.5478	0.378	-0.061
Mof_O 	O 	0.0353	0.5578	0.3256	-0.086
Mof_N 	N 	0.1714	0.4316	0.4393	-0.28
Mof_C 	C 	0.1884	0.43	0.5038	0.044
Mof_C 	C 	0.1586	0.4268	0.5659	0.014
Mof_H 	H 	0.1213	0.4249	0.5664	0.038
Mof_C 	C 	0.1866	0.4266	0.6249	-0.177
Mof_H 	H 	0.169	0.4264	0.6677	0.48
Mof_N 	N 	0.16	0.441	0.681	-0.413
Mof_O 	O 	0.1068	0.4258	0.684	-0.016
Mof_N 	N 	0.0381	0.3765	0.4596	-0.264
Mof_C 	C 	0.022	0.3197	0.4752	0.038
Mof_C 	C 	0.0464	0.2856	0.4484	-0.041
Mof_H 	H 	0.0772	0.3008	0.4152	0.04
Mof_C 	C 	0.023	0.2313	0.473	-0.081
Mof_H 	H 	0.0364	0.2061	0.4555	0.199
Mof_N 	N 	0.0607	0.1982	0.442	-0.126
Mof_O 	O 	0.0264	0.1433	0.4796	-0.051
Mof_Zn	Zn	0.43548	0.33209	0.9037	1.197
Mof_C 	C 	0.358	0.3264	0.7885	0.023
Mof_H 	H 	0.33	0.3287	0.8173	0.03
Mof_N 	N 	0.4049	0.3224	0.8091	-0.271
Mof_O 	O 	0.5082	0.3215	0.8061	-0.187
Mof_C 	C 	0.5622	0.3828	0.96	0.586
Mof_H 	H 	0.5564	0.3458	0.9754	-0.197
Mof_N 	N 	0.5179	0.3938	0.9329	0.238
Mof_C 	C 	0.549	0.3979	0.976	-0.72
Mof_H 	H 	0.5371	0.3642	0.0043	0.191
Mof_N 	N 	0.5108	0.4086	0.9122	-0.555
Mof_O 	O 	0.5478	0.5347	0.878	-0.066
Mof_O 	O 	0.5578	0.5225	0.8256	-0.085
Mof_N 	N 	0.4316	0.2602	0.9393	-0.283
Mof_C 	C 	0.43	0.2416	0.0038	0.048
Mof_C 	C 	0.4268	0.2682	0.0659	0.016
Mof_H 	H 	0.4249	0.3036	0.0664	0.037
Mof_C 	C 	0.4266	0.24	0.1249	-0.182
Mof_H 	H 	0.4264	0.2574	0.1677	0.485
Mof_N 	N 	0.441	0.281	0.181	-0.416
Mof_O 	O 	0.4258	0.319	0.184	-0.015
Mof_N 	N 	0.3765	0.3384	0.9596	-0.269
Mof_C 	C 	0.3197	0.2977	0.9752	0.029
Mof_C 	C 	0.2856	0.2392	0.9484	-0.031
Mof_H 	H 	0.3008	0.2236	0.9152	0.037
Mof_C 	C 	0.2313	0.2083	0.973	-0.097
Mof_H 	H 	0.2061	0.1697	0.9555	0.206
Mof_N 	N 	0.1982	0.1375	0.942	-0.129
Mof_O 	O 	0.1433	0.1169	0.9796	-0.053
Mof_Zn	Zn	0.66791	0.10339	0.9037	1.197
Mof_C 	C 	0.6736	0.0316	0.7885	0.023
Mof_H 	H 	0.6713	0.0013	0.8173	0.03
Mof_N 	N 	0.6776	0.0825	0.8091	-0.271
Mof_O 	O 	0.6785	0.1867	0.8061	-0.187
Mof_C 	C 	0.6172	0.1794	0.96	0.61
Mof_H 	H 	0.6542	0.2106	0.9754	-0.205
Mof_N 	N 	0.6062	0.1241	0.9329	0.248
Mof_C 	C 	0.6021	0.1511	0.976	-0.746
Mof_H 	H 	0.6358	0.1729	0.0043	0.195
Mof_N 	N 	0.5914	0.1022	0.9122	-0.565
Mof_O 	O 	0.4653	0.0131	0.878	-0.065
Mof_O 	O 	0.4775	0.0353	0.8256	-0.086
Mof_N 	N 	0.7398	0.1714	0.9393	-0.282
Mof_C 	C 	0.7584	0.1884	0.0038	0.047
Mof_C 	C 	0.7318	0.1586	0.0659	0.016
Mof_H 	H 	0.6964	0.1213	0.0664	0.037
Mof_C 	C 	0.76	0.1866	0.1249	-0.181
Mof_H 	H 	0.7426	0.169	0.1677	0.484
Mof_N 	N 	0.719	0.16	0.181	-0.415
Mof_O 	O 	0.681	0.1068	0.184	-0.016
Mof_N 	N 	0.6616	0.0381	0.9596	-0.266
Mof_C 	C 	0.7023	0.022	0.9752	0.023
Mof_C 	C 	0.7608	0.0464	0.9484	-0.023
Mof_H 	H 	0.7764	0.0772	0.9152	0.034
Mof_C 	C 	0.7917	0.023	0.973	-0.107
Mof_H 	H 	0.8303	0.0364	0.9555	0.21
Mof_N 	N 	0.8625	0.0607	0.942	-0.13
Mof_O 	O 	0.8831	0.0264	0.9796	-0.053
Mof_Zn	Zn	0.89661	0.56452	0.9037	1.197
Mof_C 	C 	0.9684	0.642	0.7885	0.024
Mof_H 	H 	0.9987	0.67	0.8173	0.032
Mof_N 	N 	0.9175	0.5951	0.8091	-0.27
Mof_O 	O 	0.8133	0.4918	0.8061	-0.188
Mof_C 	C 	0.8206	0.4378	0.96	0.622
Mof_H 	H 	0.7894	0.4436	0.9754	-0.21
Mof_N 	N 	0.8759	0.4821	0.9329	0.254
Mof_C 	C 	0.8489	0.451	0.976	-0.76
Mof_H 	H 	0.8271	0.4629	0.0043	0.199
Mof_N 	N 	0.8978	0.4892	0.9122	-0.57
Mof_O 	O 	0.9869	0.4522	0.878	-0.062
Mof_O 	O 	0.9647	0.4422	0.8256	-0.085
Mof_N 	N 	0.8286	0.5684	0.9393	-0.283
Mof_C 	C 	0.8116	0.57	0.0038	0.05
Mof_C 	C 	0.8414	0.5732	0.0659	0.013
Mof_H 	H 	0.8787	0.5751	0.0664	0.039
Mof_C 	C 	0.8134	0.5734	0.1249	-0.176
Mof_H 	H 	0.831	0.5736	0.1677	0.481
Mof_N 	N 	0.84	0.559	0.181	-0.414
Mof_O 	O 	0.8932	0.5742	0.184	-0.013
Mof_N 	N 	0.9619	0.6235	0.9596	-0.268
Mof_C 	C 	0.978	0.6803	0.9752	0.041
Mof_C 	C 	0.9536	0.7144	0.9484	-0.044
Mof_H 	H 	0.9228	0.6992	0.9152	0.041
Mof_C 	C 	0.977	0.7687	0.973	-0.077
Mof_H 	H 	0.9636	0.7939	0.9555	0.197
Mof_N 	N 	0.9393	0.8018	0.942	-0.125
Mof_O 	O 	0.9736	0.8567	0.9796	-0.049
Mof_Zn	Zn	0.66791	0.56452	0.5963	1.198
Mof_C 	C 	0.6736	0.642	0.7115	0.023
Mof_H 	H 	0.6713	0.67	0.6827	0.031
Mof_N 	N 	0.6776	0.5951	0.6909	-0.271
Mof_O 	O 	0.6785	0.4918	0.6939	-0.193
Mof_C 	C 	0.6172	0.4378	0.54	0.82
Mof_H 	H 	0.6542	0.4436	0.5246	-0.278
Mof_N 	N 	0.6062	0.4821	0.5671	0.343
Mof_C 	C 	0.6021	0.451	0.524	-0.973
Mof_H 	H 	0.6358	0.4629	0.4957	0.237
Mof_N 	N 	0.5914	0.4892	0.5878	-0.651
Mof_O 	O 	0.4653	0.4522	0.622	-0.06
Mof_O 	O 	0.4775	0.4422	0.6744	-0.085
Mof_N 	N 	0.7398	0.5684	0.5607	-0.28
Mof_C 	C 	0.7584	0.57	0.4962	0.042
Mof_C 	C 	0.7318	0.5732	0.4341	0.019
Mof_H 	H 	0.6964	0.5751	0.4336	0.037
Mof_C 	C 	0.76	0.5734	0.3751	-0.184
Mof_H 	H 	0.7426	0.5736	0.3323	0.487
Mof_N 	N 	0.719	0.559	0.319	-0.417
Mof_O 	O 	0.681	0.5742	0.316	-0.013
Mof_N 	N 	0.6616	0.6235	0.5404	-0.267
Mof_C 	C 	0.7023	0.6803	0.5248	0.051
Mof_C 	C 	0.7608	0.7144	0.5516	-0.057
Mof_H 	H 	0.7764	0.6992	0.5848	0.046
Mof_C 	C 	0.7917	0.7687	0.527	-0.058
Mof_H 	H 	0.8303	0.7939	0.5445	0.189
Mof_N 	N 	0.8625	0.8018	0.558	-0.121
Mof_O 	O 	0.8831	0.8567	0.5204	-0.046
Mof_Zn	Zn	0.89661	0.33209	0.5963	1.198
Mof_C 	C 	0.9684	0.3264	0.7115	0.023
Mof_H 	H 	0.9987	0.3287	0.6827	0.032
Mof_N 	N 	0.9175	0.3224	0.6909	-0.271
Mof_O 	O 	0.8133	0.3215	0.6939	-0.193
Mof_C 	C 	0.8206	0.3828	0.54	0.834
Mof_H 	H 	0.7894	0.3458	0.5246	-0.284
Mof_N 	N 	0.8759	0.3938	0.5671	0.35
Mof_C 	C 	0.8489	0.3979	0.524	-0.989
Mof_H 	H 	0.8271	0.3642	0.4957	0.241
Mof_N 	N 	0.8978	0.4086	0.5878	-0.657
Mof_O 	O 	0.9869	0.5347	0.622	-0.058
Mof_O 	O 	0.9647	0.5225	0.6744	-0.084
Mof_N 	N 	0.8286	0.2602	0.5607	-0.28
Mof_C 	C 	0.8116	0.2416	0.4962	0.044
Mof_C 	C 	0.8414	0.2682	0.4341	0.014
Mof_H 	H 	0.8787	0.3036	0.4336	0.039
Mof_C 	C 	0.8134	0.24	0.3751	-0.177
Mof_H 	H 	0.831	0.2574	0.3323	0.481
Mof_N 	N 	0.84	0.281	0.319	-0.414
Mof_O 	O 	0.8932	0.319	0.316	-0.013
Mof_N 	N 	0.9619	0.3384	0.5404	-0.266
Mof_C 	C 	0.978	0.2977	0.5248	0.064
Mof_C 	C 	0.9536	0.2392	0.5516	-0.073
Mof_H 	H 	0.9228	0.2236	0.5848	0.051
Mof_C 	C 	0.977	0.2083	0.527	-0.035
Mof_H 	H 	0.9636	0.1697	0.5445	0.179
Mof_N 	N 	0.9393	0.1375	0.558	-0.117
Mof_O 	O 	0.9736	0.1169	0.5204	-0.044
Mof_Zn	Zn	0.43548	0.10339	0.5963	1.198
Mof_C 	C 	0.358	0.0316	0.7115	0.023
Mof_H 	H 	0.33	0.0013	0.6827	0.03
Mof_N 	N 	0.4049	0.0825	0.6909	-0.271
Mof_O 	O 	0.5082	0.1867	0.6939	-0.193
Mof_C 	C 	0.5622	0.1794	0.54	0.815
Mof_H 	H 	0.5564	0.2106	0.5246	-0.276
Mof_N 	N 	0.5179	0.1241	0.5671	0.341
Mof_C 	C 	0.549	0.1511	0.524	-0.968
Mof_H 	H 	0.5371	0.1729	0.4957	0.236
Mof_N 	N 	0.5108	0.1022	0.5878	-0.648
Mof_O 	O 	0.5478	0.0131	0.622	-0.061
Mof_O 	O 	0.5578	0.0353	0.6744	-0.085
Mof_N 	N 	0.4316	0.1714	0.5607	-0.28
Mof_C 	C 	0.43	0.1884	0.4962	0.044
Mof_C 	C 	0.4268	0.1586	0.4341	0.015
Mof_H 	H 	0.4249	0.1213	0.4336	0.038
Mof_C 	C 	0.4266	0.1866	0.3751	-0.178
Mof_H 	H 	0.4264	0.169	0.3323	0.481
Mof_N 	N 	0.441	0.16	0.319	-0.413
Mof_O 	O 	0.4258	0.1068	0.316	-0.015
Mof_N 	N 	0.3765	0.0381	0.5404	-0.265
Mof_C 	C 	0.3197	0.022	0.5248	0.044
Mof_C 	C 	0.2856	0.0464	0.5516	-0.048
Mof_H 	H 	0.3008	0.0772	0.5848	0.043
Mof_C 	C 	0.2313	0.023	0.527	-0.071
Mof_H 	H 	0.2061	0.0364	0.5445	0.194
Mof_N 	N 	0.1982	0.0607	0.558	-0.124
Mof_O 	O 	0.1433	0.0264	0.5204	-0.049
Mof_Zn	Zn	0.33209	0.43548	0.0963	1.198
Mof_C 	C 	0.3264	0.358	0.2115	0.023
Mof_H 	H 	0.3287	0.33	0.1827	0.031
Mof_N 	N 	0.3224	0.4049	0.1909	-0.27
Mof_O 	O 	0.3215	0.5082	0.1939	-0.203
Mof_C 	C 	0.3828	0.5622	0.04	1.093
Mof_H 	H 	0.3458	0.5564	0.0246	-0.374
Mof_N 	N 	0.3938	0.5179	0.0671	0.466
Mof_C 	C 	0.3979	0.549	0.024	-1.268
Mof_H 	H 	0.3642	0.5371	0.9957	0.292
Mof_N 	N 	0.4086	0.5108	0.0878	-0.762
Mof_O 	O 	0.5347	0.5478	0.122	-0.054
Mof_O 	O 	0.5225	0.5578	0.1744	-0.085
Mof_N 	N 	0.2602	0.4316	0.0607	-0.277
Mof_C 	C 	0.2416	0.43	0.9962	0.037
Mof_C 	C 	0.2682	0.4268	0.9341	0.018
Mof_H 	H 	0.3036	0.4249	0.9336	0.037
Mof_C 	C 	0.24	0.4266	0.8751	-0.181
Mof_H 	H 	0.2574	0.4264	0.8323	0.483
Mof_N 	N 	0.281	0.441	0.819	-0.415
Mof_O 	O 	0.319	0.4258	0.816	-0.013
Mof_N 	N 	0.3384	0.3765	0.0404	-0.269
Mof_C 	C 	0.2977	0.3197	0.0248	0.073
Mof_C 	C 	0.2392	0.2856	0.0516	-0.083
Mof_H 	H 	0.2236	0.3008	0.0848	0.055
Mof_C 	C 	0.2083	0.2313	0.027	-0.019
Mof_H 	H 	0.1697	0.2061	0.0445	0.172
Mof_N 	N 	0.1375	0.1982	0.058	-0.114
Mof_O 	O 	0.1169	0.1433	0.0204	-0.043
Mof_Zn	Zn	0.10339	0.66791	0.0963	1.198
Mof_C 	C 	0.0316	0.6736	0.2115	0.023
Mof_H 	H 	0.0013	0.6713	0.1827	0.03
Mof_N 	N 	0.0825	0.6776	0.1909	-0.27
Mof_O 	O 	0.1867	0.6785	0.1939	-0.203
Mof_C 	C 	0.1794	0.6172	0.04	1.105
Mof_H 	H 	0.2106	0.6542	0.0246	-0.378
Mof_N 	N 	0.1241	0.6062	0.0671	0.471
Mof_C 	C 	0.1511	0.6021	0.024	-1.281
Mof_H 	H 	0.1729	0.6358	0.9957	0.293
Mof_N 	N 	0.1022	0.5914	0.0878	-0.767
Mof_O 	O 	0.0131	0.4653	0.122	-0.055
Mof_O 	O 	0.0353	0.4775	0.1744	-0.085
Mof_N 	N 	0.1714	0.7398	0.0607	-0.276
Mof_C 	C 	0.1884	0.7584	0.9962	0.035
Mof_C 	C 	0.1586	0.7318	0.9341	0.018
Mof_H 	H 	0.1213	0.6964	0.9336	0.036
Mof_C 	C 	0.1866	0.76	0.8751	-0.182
Mof_H 	H 	0.169	0.7426	0.8323	0.483
Mof_N 	N 	0.16	0.719	0.819	-0.414
Mof_O 	O 	0.1068	0.681	0.816	-0.015
Mof_N 	N 	0.0381	0.6616	0.0404	-0.267
Mof_C 	C 	0.022	0.7023	0.0248	0.062
Mof_C 	C 	0.0464	0.7608	0.0516	-0.069
Mof_H 	H 	0.0772	0.7764	0.0848	0.051
Mof_C 	C 	0.023	0.7917	0.027	-0.039
Mof_H 	H 	0.0364	0.8303	0.0445	0.181
Mof_N 	N 	0.0607	0.8625	0.058	-0.117
Mof_O 	O 	0.0264	0.8831	0.0204	-0.044
Mof_Zn	Zn	0.56452	0.89661	0.0963	1.198
Mof_C 	C 	0.642	0.9684	0.2115	0.023
Mof_H 	H 	0.67	0.9987	0.1827	0.032
Mof_N 	N 	0.5951	0.9175	0.1909	-0.27
Mof_O 	O 	0.4918	0.8133	0.1939	-0.204
Mof_C 	C 	0.4378	0.8206	0.04	1.126
Mof_H 	H 	0.4436	0.7894	0.0246	-0.386
Mof_N 	N 	0.4821	0.8759	0.0671	0.481
Mof_C 	C 	0.451	0.8489	0.024	-1.305
Mof_H 	H 	0.4629	0.8271	0.9957	0.299
Mof_N 	N 	0.4892	0.8978	0.0878	-0.776
Mof_O 	O 	0.4522	0.9869	0.122	-0.052
Mof_O 	O 	0.4422	0.9647	0.1744	-0.085
Mof_N 	N 	0.5684	0.8286	0.0607	-0.277
Mof_C 	C 	0.57	0.8116	0.9962	0.038
Mof_C 	C 	0.5732	0.8414	0.9341	0.014
Mof_H 	H 	0.5751	0.8787	0.9336	0.039
Mof_C 	C 	0.5734	0.8134	0.8751	-0.175
Mof_H 	H 	0.5736	0.831	0.8323	0.48
Mof_N 	N 	0.559	0.84	0.819	-0.412
Mof_O 	O 	0.5742	0.8932	0.816	-0.012
Mof_N 	N 	0.6235	0.9619	0.0404	-0.267
Mof_C 	C 	0.6803	0.978	0.0248	0.079
Mof_C 	C 	0.7144	0.9536	0.0516	-0.09
Mof_H 	H 	0.6992	0.9228	0.0848	0.058
Mof_C 	C 	0.7687	0.977	0.027	-0.008
Mof_H 	H 	0.7939	0.9636	0.0445	0.168
Mof_N 	N 	0.8018	0.9393	0.058	-0.112
Mof_O 	O 	0.8567	0.9736	0.0204	-0.04
Mof_C 	C 	0.4295	0.3202	0.75	0.156
Mof_N 	N 	0.4868	0.3226	0.75	-0.018
Mof_C 	C 	0.6798	0.1093	0.75	0.155
Mof_N 	N 	0.6774	0.1642	0.75	-0.018
Mof_C 	C 	0.8907	0.5705	0.75	0.156
Mof_N 	N 	0.8358	0.5132	0.75	-0.018
Mof_C 	C 	0.5705	0.6798	0.25	0.154
Mof_N 	N 	0.5132	0.6774	0.25	-0.016
Mof_C 	C 	0.3202	0.8907	0.25	0.154
Mof_N 	N 	0.3226	0.8358	0.25	-0.016
Mof_C 	C 	0.1093	0.4295	0.25	0.154
Mof_N 	N 	0.1642	0.4868	0.25	-0.016
Mof_C 	C 	0.3202	0.4295	0.25	0.154
Mof_N 	N 	0.3226	0.4868	0.25	-0.016
Mof_C 	C 	0.1093	0.6798	0.25	0.154
Mof_N 	N 	0.1642	0.6774	0.25	-0.016
Mof_C 	C 	0.5705	0.8907	0.25	0.154
Mof_N 	N 	0.5132	0.8358	0.25	-0.016
Mof_C 	C 	0.6798	0.5705	0.75	0.156
Mof_N 	N 	0.6774	0.5132	0.75	-0.018
Mof_C 	C 	0.8907	0.3202	0.75	0.155
Mof_N 	N 	0.8358	0.3226	0.75	-0.018
Mof_C 	C 	0.4295	0.1093	0.75	0.155
Mof_N 	N 	0.4868	0.1642	0.75	-0.018
Mof_C 	C 	0.5511	0.4489	0.576	0.144
Mof_C 	C 	0.545	0.455	0.6	0.593
Mof_N 	N 	0.5249	0.4751	0.658	-0.005
Mof_N 	N 	0.518	0.482	0.6104	-0.111
Mof_C 	C 	0.5511	0.1022	0.576	0.144
Mof_C 	C 	0.545	0.09	0.6	0.591
Mof_N 	N 	0.5249	0.0498	0.658	-0.005
Mof_N 	N 	0.518	0.036	0.6104	-0.11
Mof_C 	C 	0.8978	0.4489	0.576	0.144
Mof_C 	C 	0.91	0.455	0.6	0.6
Mof_N 	N 	0.9502	0.4751	0.658	-0.006
Mof_N 	N 	0.964	0.482	0.6104	-0.112
Mof_C 	C 	0.4489	0.5511	0.076	0.142
Mof_C 	C 	0.455	0.545	0.1	0.707
Mof_N 	N 	0.4751	0.5249	0.158	-0.014
Mof_N 	N 	0.482	0.518	0.1104	-0.128
Mof_C 	C 	0.4489	0.8978	0.076	0.141
Mof_C 	C 	0.455	0.91	0.1	0.722
Mof_N 	N 	0.4751	0.9502	0.158	-0.015
Mof_N 	N 	0.482	0.964	0.1104	-0.131
Mof_C 	C 	0.1022	0.5511	0.076	0.142
Mof_C 	C 	0.09	0.545	0.1	0.711
Mof_N 	N 	0.0498	0.5249	0.158	-0.014
Mof_N 	N 	0.036	0.518	0.1104	-0.129
Mof_C 	C 	0.4489	0.5511	0.424	0.143
Mof_C 	C 	0.455	0.545	0.4	0.601
Mof_N 	N 	0.4751	0.5249	0.342	-0.006
Mof_N 	N 	0.482	0.518	0.3896	-0.112
Mof_C 	C 	0.1022	0.5511	0.424	0.144
Mof_C 	C 	0.09	0.545	0.4	0.597
Mof_N 	N 	0.0498	0.5249	0.342	-0.005
Mof_N 	N 	0.036	0.518	0.3896	-0.111
Mof_C 	C 	0.4489	0.8978	0.424	0.143
Mof_C 	C 	0.455	0.91	0.4	0.604
Mof_N 	N 	0.4751	0.9502	0.342	-0.006
Mof_N 	N 	0.482	0.964	0.3896	-0.113
Mof_C 	C 	0.5511	0.4489	0.924	0.146
Mof_C 	C 	0.545	0.455	0.9	0.495
Mof_N 	N 	0.5249	0.4751	0.842	0.002
Mof_N 	N 	0.518	0.482	0.8896	-0.096
Mof_C 	C 	0.8978	0.4489	0.924	0.146
Mof_C 	C 	0.91	0.455	0.9	0.511
Mof_N 	N 	0.9502	0.4751	0.842	0.001
Mof_N 	N 	0.964	0.482	0.8896	-0.098
Mof_C 	C 	0.5511	0.1022	0.924	0.146
Mof_C 	C 	0.545	0.09	0.9	0.505
Mof_N 	N 	0.5249	0.0498	0.842	0.002
Mof_N 	N 	0.518	0.036	0.8896	-0.097
Mof_C 	C 	0.4327	0.21635	0.6001	0.065
Mof_H 	H 	0.4341	0.21705	0.6488	-0.004
Mof_O 	O 	0.219	0.1095	0.595	-0.056
Mof_C 	C 	0.78365	0.21635	0.6001	0.065
Mof_H 	H 	0.78295	0.21705	0.6488	-0.004
Mof_O 	O 	0.8905	0.1095	0.595	-0.056
Mof_C 	C 	0.78365	0.5673	0.6001	0.065
Mof_H 	H 	0.78295	0.5659	0.6488	-0.004
Mof_O 	O 	0.8905	0.781	0.595	-0.057
Mof_C 	C 	0.5673	0.78365	0.1001	0.064
Mof_H 	H 	0.5659	0.78295	0.1488	-0.005
Mof_O 	O 	0.781	0.8905	0.095	-0.059
Mof_C 	C 	0.21635	0.78365	0.1001	0.064
Mof_H 	H 	0.21705	0.78295	0.1488	-0.005
Mof_O 	O 	0.1095	0.8905	0.095	-0.059
Mof_C 	C 	0.21635	0.4327	0.1001	0.064
Mof_H 	H 	0.21705	0.4341	0.1488	-0.005
Mof_O 	O 	0.1095	0.219	0.095	-0.058
Mof_C 	C 	0.21635	0.4327	0.3999	0.064
Mof_H 	H 	0.21705	0.4341	0.3512	-0.004
Mof_O 	O 	0.1095	0.219	0.405	-0.055
Mof_C 	C 	0.21635	0.78365	0.3999	0.064
Mof_H 	H 	0.21705	0.78295	0.3512	-0.004
Mof_O 	O 	0.1095	0.8905	0.405	-0.055
Mof_C 	C 	0.5673	0.78365	0.3999	0.064
Mof_H 	H 	0.5659	0.78295	0.3512	-0.004
Mof_O 	O 	0.781	0.8905	0.405	-0.056
Mof_C 	C 	0.78365	0.5673	0.8999	0.065
Mof_H 	H 	0.78295	0.5659	0.8512	-0.004
Mof_O 	O 	0.8905	0.781	0.905	-0.053
Mof_C 	C 	0.78365	0.21635	0.8999	0.065
Mof_H 	H 	0.78295	0.21705	0.8512	-0.004
Mof_O 	O 	0.8905	0.1095	0.905	-0.053
Mof_C 	C 	0.4327	0.21635	0.8999	0.065
Mof_H 	H 	0.4341	0.21705	0.8512	-0.004
Mof_O 	O 	0.219	0.1095	0.905	-0.053
Mof_O 	O 	0.48	0.29	0.25	0.007
Mof_O 	O 	0.71	0.19	0.25	0.006
Mof_O 	O 	0.81	0.52	0.25	0.007
Mof_O 	O 	0.52	0.71	0.75	0.008
Mof_O 	O 	0.29	0.81	0.75	0.008
Mof_O 	O 	0.19	0.48	0.75	0.007
Mof_O 	O 	0.29	0.48	0.75	0.008
Mof_O 	O 	0.19	0.71	0.75	0.008
Mof_O 	O 	0.52	0.81	0.75	0.008
Mof_O 	O 	0.71	0.52	0.25	0.007
Mof_O 	O 	0.81	0.29	0.25	0.007
Mof_O 	O 	0.48	0.19	0.25	0.006
Mof_C 	C 	0.3879	0.3879	0.5	0.063
Mof_H 	H 	0.4243	0.4243	0.5	0.032
Mof_C 	C 	0.6121	0	0.5	0.06
Mof_H 	H 	0.5757	0	0.5	0.032
Mof_C 	C 	1.12285e-16	0.6121	0.5	0.058
Mof_H 	H 	3.32939e-17	0.5757	0.5	0.032
Mof_C 	C 	0.6121	0.6121	-0	0.072
Mof_H 	H 	0.5757	0.5757	-0	0.032
Mof_C 	C 	0.3879	0	-0	0.066
Mof_H 	H 	0.4243	0	-0	0.033
Mof_C 	C 	-0	0.3879	-0	0.067
Mof_H 	H 	-0	0.4243	-0	0.033
Mof_C 	C 	0.6121	0.6121	0.5	0.063
Mof_H 	H 	0.5757	0.5757	0.5	0.032
Mof_C 	C 	0.3879	0	0.5	0.06
Mof_H 	H 	0.4243	0	0.5	0.032
Mof_C 	C 	3.32939e-17	0.3879	0.5	0.058
Mof_H 	H 	3.32939e-17	0.4243	0.5	0.032
Mof_C 	C 	0.3879	0.3879	-0	0.071
Mof_H 	H 	0.4243	0.4243	-0	0.032
Mof_C 	C 	0.6121	0	-0	0.065
Mof_H 	H 	0.5757	0	-0	0.033
Mof_C 	C 	7.89906e-17	0.6121	-0	0.067
Mof_H 	H 	-0	0.5757	-0	0.033
_end
