data_functionalizedCrystal
_audit_creation_method	'EQeq! by Chris Wilmer'
_symmetry_space_group_name_H-M	'P1'
_symmetry_Int_Tables_number	1
_symmetry_cell_setting	triclinic
loop_
_symmetry_equiv_pos_as_xyz
  x,y,z
_cell_length_a	37.232
_cell_length_b	37.232
_cell_length_c	37.232
_cell_angle_alpha	91.0381
_cell_angle_beta	91.0381
_cell_angle_gamma	164.529
loop_
_atom_site_label
_atom_site_type_symbol
_atom_site_fract_x
_atom_site_fract_y
_atom_site_fract_z
_atom_site_charge
Mof_Zn	Zn	0.45209	0.35673	0.97055	1.238
Mof_Zn	Zn	0.53832	0.28045	0.97509	1.253
Mof_Zn	Zn	0.74832	0.40949	0.01819	1.244
Mof_P 	P 	0.74133	0.31895	0.00748	0.677
Mof_P 	P 	0.57031	0.39328	0.95137	0.323
Mof_P 	P 	0.1533	0.10293	0.96071	0.268
Mof_P 	P 	0.78045	0.47183	0.9452	0.316
Mof_P 	P 	0.52887	0.24237	0.05031	0.313
Mof_O 	O 	0.80843	0.35477	0.03778	-1.663
Mof_O 	O 	0.58366	0.16175	0.01484	-1.751
Mof_O 	O 	0.77246	0.38499	0.03391	-0.399
Mof_O 	O 	0.45896	0.31256	0.96704	-0.392
Mof_O 	O 	0.66332	0.47862	0.99021	-0.395
Mof_O 	O 	0.48564	0.27409	0.95413	-0.391
Mof_O 	O 	0.28369	0.20801	0.94746	-0.411
Mof_O 	O 	0.10162	0.01818	0.98076	-0.436
Mof_O 	O 	0.05744	0.00345	0.9217	-0.383
Mof_O 	O 	0.77122	0.42918	0.97142	-0.475
Mof_O 	O 	0.72114	0.44437	0.97219	-0.431
Mof_O 	O 	0.94228	0.63539	0.95874	-0.39
Mof_O 	O 	0.51662	0.26359	0.02222	-0.434
Mof_O 	O 	0.36666	0.07619	0.04416	-0.406
Mof_O 	O 	0.8774	0.67505	0.9611	-0.423
Mof_O 	O 	0.81068	0.6766	0.9707	-0.417
Mof_O 	O 	0.57144	0.25346	0.02122	-0.433
Mof_N 	N 	0.56306	0.48762	0.8334	-0.222
Mof_N 	N 	0.40486	0.03316	0.07684	-0.216
Mof_C 	C 	0.51807	0.40738	0.83768	-0.013
Mof_C 	C 	0.41595	0.03469	0.1151	-0.004
Mof_C 	C 	0.41342	0.06603	0.13911	-0.082
Mof_C 	C 	0.59419	0.41649	0.8467	-0.142
Mof_C 	C 	0.42724	0.06935	0.17918	-0.064
Mof_C 	C 	0.64016	0.49968	0.8445	-0.058
Mof_C 	C 	0.42322	0.09891	0.20358	-0.04
Mof_C 	C 	0.4416	0.10654	0.24345	-0.151
Mof_H 	H 	0.89053	0.66261	0.96919	0.174
Mof_H 	H 	0.90033	0.7695	0.96376	0.17
Mof_H 	H 	0.47831	0.42265	0.82889	0.107
Mof_H 	H 	0.61648	0.54045	0.81108	0.101
Mof_H 	H 	0.39543	0.00052	0.06111	0.065
Mof_H 	H 	0.49223	0.13099	0.07188	0.094
Mof_H 	H 	0.45067	0.33363	0.81279	0.031
Mof_H 	H 	0.45856	0.34906	0.86095	0.033
Mof_H 	H 	0.51288	0.11355	0.12289	0.029
Mof_H 	H 	0.33011	0.93399	0.11934	0.016
Mof_H 	H 	0.31601	0.98661	0.13162	0.026
Mof_H 	H 	0.49854	0.1661	0.13459	0.037
Mof_H 	H 	0.53866	0.35378	0.82026	0.047
Mof_H 	H 	0.52683	0.34885	0.86801	0.048
Mof_H 	H 	0.68434	0.48597	0.8535	0.05
Mof_H 	H 	0.52482	0.14901	0.18661	0.027
Mof_H 	H 	0.3425	0.96942	0.18349	0.023
Mof_H 	H 	0.70361	0.56293	0.82216	0.034
Mof_H 	H 	0.70343	0.5685	0.87038	0.045
Mof_H 	H 	0.32393	0.01704	0.19699	0.023
Mof_H 	H 	0.50544	0.19706	0.19892	0.026
Mof_H 	H 	0.36124	0.00989	0.24869	0.051
Mof_H 	H 	0.43435	0.12404	0.26055	0.048
Mof_H 	H 	0.54281	0.19164	0.25104	0.052
Mof_H 	H 	0.69863	0.7676	0.14329	0.102
Mof_H 	H 	0.89668	0.24943	0.93038	0.08
Mof_Zn	Zn	0.38613	0.48143	0.02946	1.237
Mof_Zn	Zn	0.30548	0.56327	0.02493	1.252
Mof_Zn	Zn	0.39133	0.73009	0.98182	1.247
Mof_P 	P 	0.31149	0.7338	0.99252	0.678
Mof_P 	P 	0.44198	0.61893	0.04868	0.325
Mof_P 	P 	0.14228	0.19257	0.03929	0.266
Mof_P 	P 	0.52675	0.83529	0.05481	0.319
Mof_P 	P 	0.19216	0.4786	0.9497	0.313
Mof_O 	O 	0.31712	0.77073	0.96223	-1.669
Mof_O 	O 	0.14695	0.56881	0.98517	-1.716
Mof_O 	O 	0.35119	0.73859	0.96608	-0.401
Mof_O 	O 	0.34561	0.49195	0.03295	-0.395
Mof_O 	O 	0.48871	0.67335	0.00987	-0.4
Mof_O 	O 	0.32004	0.53151	0.04589	-0.393
Mof_O 	O 	0.2604	0.33607	0.05253	-0.411
Mof_O 	O 	0.03736	0.1207	0.01922	-0.442
Mof_O 	O 	0.08173	0.13565	0.07829	-0.385
Mof_O 	O 	0.45785	0.7998	0.02858	-0.482
Mof_O 	O 	0.47229	0.74897	0.02784	-0.436
Mof_O 	O 	0.67672	0.98352	0.04124	-0.399
Mof_O 	O 	0.24152	0.49447	0.97778	-0.429
Mof_O 	O 	0.03214	0.32252	0.95585	-0.413
Mof_O 	O 	0.7141	0.91648	0.03899	-0.428
Mof_O 	O 	0.70634	0.84046	0.02959	-0.421
Mof_O 	O 	0.23229	0.55021	0.9788	-0.43
Mof_N 	N 	0.65434	0.73	0.16679	-0.223
Mof_N 	N 	0.95653	0.32815	0.92313	-0.209
Mof_C 	C 	0.56977	0.68065	0.16246	-0.013
Mof_C 	C 	0.91977	0.30092	0.88487	-0.005
Mof_C 	C 	0.9269	0.27415	0.8609	-0.072
Mof_C 	C 	0.56964	0.74751	0.15315	-0.142
Mof_C 	C 	0.89029	0.24799	0.82082	-0.072
Mof_C 	C 	0.65501	0.79565	0.15536	-0.059
Mof_C 	C 	0.89509	0.21917	0.79647	-0.036
Mof_C 	C 	0.86326	0.19805	0.75657	-0.152
Mof_H 	H 	0.69392	0.92183	0.03077	0.169
Mof_H 	H 	0.80618	0.93711	0.0365	0.168
Mof_H 	H 	0.59402	0.64993	0.1715	0.107
Mof_H 	H 	0.72983	0.80617	0.18902	0.101
Mof_H 	H 	0.93965	0.3345	0.93885	0.073
Mof_H 	H 	0.05932	0.42048	0.92809	0.084
Mof_H 	H 	0.52141	0.63877	0.18741	0.03
Mof_H 	H 	0.48778	0.59738	0.1393	0.033
Mof_H 	H 	0.9909	0.39008	0.87705	0.036
Mof_H 	H 	0.81486	0.2109	0.88063	0.018
Mof_H 	H 	0.8548	0.18412	0.86841	0.031
Mof_H 	H 	0.0314	0.36365	0.86544	0.028
Mof_H 	H 	0.53402	0.71917	0.17964	0.046
Mof_H 	H 	0.48028	0.65835	0.13198	0.048
Mof_H 	H 	0.63211	0.8306	0.14612	0.05
Mof_H 	H 	0.96276	0.33829	0.81336	0.032
Mof_H 	H 	0.78619	0.15915	0.81648	0.032
Mof_H 	H 	0.74103	0.88194	0.17756	0.034
Mof_H 	H 	0.69734	0.83233	0.12941	0.046
Mof_H 	H 	0.81941	0.1262	0.80304	0.023
Mof_H 	H 	0.99768	0.30573	0.80118	0.026
Mof_H 	H 	0.76159	0.11277	0.75127	0.052
Mof_H 	H 	0.86337	0.1734	0.7395	0.047
Mof_H 	H 	0.94114	0.29193	0.749	0.052
Mof_H 	H 	0.62467	0.5558	0.85686	0.102
Mof_H 	H 	0.31891	0.9661	0.06963	0.077
Mof_Zn	Zn	0.10677	0.63626	0.40471	1.235
Mof_Zn	Zn	0.0305	0.55539	0.24217	1.249
Mof_Zn	Zn	0.15941	0.64122	0.16124	1.244
Mof_P 	P 	0.06907	0.56155	0.07768	0.643
Mof_P 	P 	0.14327	0.69189	0.323	0.321
Mof_P 	P 	0.85298	0.39232	0.44973	0.27
Mof_P 	P 	0.22176	0.77656	0.19144	0.308
Mof_P 	P 	0.99249	0.44214	0.21356	0.343
Mof_O 	O 	0.10476	0.56689	0.04642	-1.632
Mof_O 	O 	0.91187	0.397	0.07819	-1.725
Mof_O 	O 	0.13494	0.60101	0.11261	-0.405
Mof_O 	O 	0.0626	0.59558	0.35367	-0.399
Mof_O 	O 	0.22859	0.73835	0.31535	-0.397
Mof_O 	O 	0.02405	0.56988	0.2885	-0.401
Mof_O 	O 	0.95802	0.51059	0.42439	-0.402
Mof_O 	O 	0.7682	0.28747	0.41666	-0.435
Mof_O 	O 	0.75347	0.33182	0.44609	-0.382
Mof_O 	O 	0.17907	0.70764	0.15804	-0.486
Mof_O 	O 	0.19446	0.72225	0.2233	-0.437
Mof_O 	O 	0.3853	0.92655	0.19312	-0.407
Mof_O 	O 	0.01369	0.49143	0.24703	-0.45
Mof_O 	O 	0.82632	0.28211	0.20959	-0.407
Mof_O 	O 	0.42513	0.96402	0.29776	-0.436
Mof_O 	O 	0.42665	0.95582	0.36602	-0.43
Mof_O 	O 	0.00353	0.48229	0.18209	-0.454
Mof_N 	N 	0.23778	0.90446	0.42433	-0.22
Mof_N 	N 	0.78322	0.20637	0.12829	-0.218
Mof_C 	C 	0.15735	0.81972	0.38913	-0.015
Mof_C 	C 	0.78473	0.16959	0.1189	0
Mof_C 	C 	0.81604	0.17704	0.15288	-0.088
Mof_C 	C 	0.16611	0.81927	0.32211	-0.14
Mof_C 	C 	0.81957	0.14045	0.14258	-0.066
Mof_C 	C 	0.24948	0.90486	0.35931	-0.059
Mof_C 	C 	0.84909	0.14577	0.1763	-0.04
Mof_C 	C 	0.85702	0.11376	0.16577	-0.15
Mof_H 	H 	0.41258	0.9434	0.27218	0.167
Mof_H 	H 	0.51947	0.05563	0.36925	0.172
Mof_H 	H 	0.17291	0.8442	0.44413	0.102
Mof_H 	H 	0.29075	0.97972	0.42367	0.089
Mof_H 	H 	0.75062	0.18941	0.10501	0.07
Mof_H 	H 	0.88106	0.3092	0.13872	0.1
Mof_H 	H 	0.08382	0.77111	0.38273	0.025
Mof_H 	H 	0.09878	0.73793	0.39041	0.029
Mof_H 	H 	0.86362	0.24059	0.10086	0.032
Mof_H 	H 	0.68403	0.06459	0.10406	0.015
Mof_H 	H 	0.73655	0.10513	0.17083	0.033
Mof_H 	H 	0.91604	0.28164	0.16781	0.041
Mof_H 	H 	0.1036	0.78322	0.3149	0.037
Mof_H 	H 	0.09826	0.73017	0.32191	0.042
Mof_H 	H 	0.23546	0.88172	0.30143	0.04
Mof_H 	H 	0.89936	0.21272	0.12472	0.03
Mof_H 	H 	0.71974	0.03621	0.1274	0.028
Mof_H 	H 	0.31302	0.99066	0.35903	0.023
Mof_H 	H 	0.31804	0.9475	0.3649	0.039
Mof_H 	H 	0.76705	0.07039	0.19365	0.023
Mof_H 	H 	0.94712	0.24856	0.19223	0.026
Mof_H 	H 	0.76041	0.01178	0.14954	0.048
Mof_H 	H 	0.87471	0.11448	0.19061	0.044
Mof_H 	H 	0.9421	0.1912	0.14966	0.05
Mof_H 	H 	0.51721	0.87414	0.56895	0.101
Mof_H 	H 	0.99955	0.56933	0.85294	0.099
Mof_Zn	Zn	0.23147	0.70204	0.59531	1.237
Mof_Zn	Zn	0.31322	0.7883	0.75782	1.253
Mof_Zn	Zn	0.48012	0.99823	0.83877	1.247
Mof_P 	P 	0.48391	0.99135	0.92234	0.689
Mof_P 	P 	0.36889	0.82022	0.67699	0.323
Mof_P 	P 	0.94252	0.40326	0.55031	0.273
Mof_P 	P 	0.58513	0.03028	0.80854	0.315
Mof_P 	P 	0.22861	0.77891	0.78648	0.311
Mof_O 	O 	0.52063	0.05839	0.95359	-1.669
Mof_O 	O 	0.31887	0.83367	0.92184	-1.751
Mof_O 	O 	0.48865	0.02248	0.88741	-0.409
Mof_O 	O 	0.24198	0.70908	0.64636	-0.395
Mof_O 	O 	0.42339	0.91352	0.6847	-0.401
Mof_O 	O 	0.28142	0.73555	0.7115	-0.392
Mof_O 	O 	0.08601	0.53352	0.57569	-0.415
Mof_O 	O 	0.87058	0.35139	0.58334	-0.435
Mof_O 	O 	0.88568	0.3074	0.55394	-0.383
Mof_O 	O 	0.54972	0.02107	0.84196	-0.484
Mof_O 	O 	0.4989	0.97108	0.77672	-0.432
Mof_O 	O 	0.73348	0.19216	0.80687	-0.406
Mof_O 	O 	0.24439	0.7666	0.75299	-0.435
Mof_O 	O 	0.07253	0.6167	0.79044	-0.418
Mof_O 	O 	0.66648	0.12751	0.70241	-0.43
Mof_O 	O 	0.59048	0.06093	0.63417	-0.416
Mof_O 	O 	0.30022	0.82141	0.81795	-0.431
Mof_N 	N 	0.47971	0.81311	0.57559	-0.222
Mof_N 	N 	0.07834	0.65551	0.87171	-0.23
Mof_C 	C 	0.43062	0.76824	0.61086	-0.013
Mof_C 	C 	0.05078	0.66624	0.88108	-0.014
Mof_C 	C 	0.02405	0.66335	0.8471	-0.145
Mof_C 	C 	0.49789	0.84468	0.67785	-0.142
Mof_C 	C 	0.99755	0.67698	0.85738	-0.003
Mof_C 	C 	0.54576	0.89045	0.64059	-0.059
Mof_C 	C 	0.96884	0.67245	0.82365	-0.039
Mof_C 	C 	0.94701	0.69056	0.83416	-0.118
Mof_H 	H 	0.67163	0.14088	0.72795	0.168
Mof_H 	H 	0.68715	0.15067	0.63099	0.164
Mof_H 	H 	0.39953	0.72826	0.55586	0.106
Mof_H 	H 	0.5559	0.8671	0.57618	0.1
Mof_H 	H 	0.08518	0.64673	0.89502	0.066
Mof_H 	H 	0.17052	0.74275	0.86117	0.095
Mof_H 	H 	0.38891	0.70153	0.6173	0.03
Mof_H 	H 	0.34728	0.70804	0.60967	0.033
Mof_H 	H 	0.13978	0.76316	0.89912	0.029
Mof_H 	H 	0.96064	0.58037	0.89594	0.038
Mof_H 	H 	0.93421	0.5659	0.82917	0.06
Mof_H 	H 	0.11368	0.74842	0.83215	0.047
Mof_H 	H 	0.46959	0.78985	0.68507	0.046
Mof_H 	H 	0.40877	0.77671	0.67815	0.047
Mof_H 	H 	0.58112	0.93487	0.69847	0.048
Mof_H 	H 	0.08768	0.77468	0.87521	0
Mof_H 	H 	0.90857	0.59237	0.87259	0.021
Mof_H 	H 	0.6321	0.95462	0.64077	0.032
Mof_H 	H 	0.58227	0.95295	0.63498	0.044
Mof_H 	H 	0.87619	0.57307	0.80632	0.027
Mof_H 	H 	0.05568	0.75458	0.80771	0.012
Mof_H 	H 	0.8614	0.61025	0.85044	0.047
Mof_H 	H 	0.92251	0.68302	0.80931	0.045
Mof_H 	H 	0.04053	0.7918	0.85021	0.029
Mof_H 	H 	0.30584	0.94906	0.43094	0.095
Mof_H 	H 	0.71613	0.14661	0.14714	0.079
Mof_Zn	Zn	0.86376	0.39325	0.59531	1.238
Mof_Zn	Zn	0.94465	0.46955	0.75784	1.259
Mof_Zn	Zn	0.85874	0.34053	0.8388	1.248
Mof_P 	P 	0.93857	0.43105	0.92237	0.688
Mof_P 	P 	0.8081	0.35671	0.67701	0.325
Mof_P 	P 	0.10764	0.64699	0.55029	0.257
Mof_P 	P 	0.72339	0.27816	0.80858	0.318
Mof_P 	P 	0.05795	0.50762	0.78648	0.309
Mof_O 	O 	0.93307	0.39525	0.95365	-1.618
Mof_O 	O 	0.10313	0.58827	0.92189	-1.765
Mof_O 	O 	0.89893	0.36499	0.88745	-0.399
Mof_O 	O 	0.90441	0.43738	0.64635	-0.388
Mof_O 	O 	0.76165	0.27142	0.68467	-0.396
Mof_O 	O 	0.93012	0.47596	0.71151	-0.384
Mof_O 	O 	0.98947	0.54204	0.57566	-0.4
Mof_O 	O 	0.21257	0.73182	0.58334	-0.439
Mof_O 	O 	0.16816	0.74651	0.55393	-0.388
Mof_O 	O 	0.79234	0.32089	0.84199	-0.478
Mof_O 	O 	0.77784	0.30564	0.77672	-0.43
Mof_O 	O 	0.5734	0.1146	0.80685	-0.408
Mof_O 	O 	0.00863	0.48639	0.75299	-0.44
Mof_O 	O 	0.21796	0.67379	0.79043	-0.407
Mof_O 	O 	0.53606	0.07496	0.70228	-0.428
Mof_O 	O 	0.5442	0.07341	0.63402	-0.409
Mof_O 	O 	0.01779	0.49656	0.81795	-0.441
Mof_N 	N 	0.59578	0.26238	0.57558	-0.224
Mof_N 	N 	0.29361	0.71675	0.87172	-0.217
Mof_C 	C 	0.68034	0.34267	0.61081	-0.012
Mof_C 	C 	0.33041	0.71526	0.88111	-0.001
Mof_C 	C 	0.32297	0.68396	0.84714	-0.087
Mof_C 	C 	0.68038	0.33365	0.67784	-0.142
Mof_C 	C 	0.35969	0.68056	0.85745	-0.067
Mof_C 	C 	0.59496	0.25042	0.64062	-0.059
Mof_C 	C 	0.35434	0.65098	0.82373	-0.039
Mof_C 	C 	0.38658	0.6433	0.83427	-0.151
Mof_H 	H 	0.55665	0.0875	0.72787	0.168
Mof_H 	H 	0.44438	0.98053	0.63077	0.153
Mof_H 	H 	0.65619	0.32733	0.55579	0.108
Mof_H 	H 	0.52057	0.20947	0.57618	0.106
Mof_H 	H 	0.31062	0.7494	0.89499	0.07
Mof_H 	H 	0.19078	0.61891	0.86129	0.092
Mof_H 	H 	0.72907	0.41631	0.61718	0.032
Mof_H 	H 	0.76204	0.40112	0.60961	0.035
Mof_H 	H 	0.25943	0.63639	0.89916	0.027
Mof_H 	H 	0.43541	0.81596	0.89595	0.021
Mof_H 	H 	0.39484	0.76341	0.82918	0.036
Mof_H 	H 	0.21836	0.58392	0.83222	0.036
Mof_H 	H 	0.71661	0.39633	0.68502	0.048
Mof_H 	H 	0.76934	0.40132	0.67811	0.051
Mof_H 	H 	0.61774	0.2642	0.69852	0.05
Mof_H 	H 	0.28752	0.60085	0.87533	0.027
Mof_H 	H 	0.46397	0.78046	0.8726	0.032
Mof_H 	H 	0.50929	0.18706	0.64083	0.037
Mof_H 	H 	0.55212	0.18169	0.63506	0.048
Mof_H 	H 	0.42956	0.73289	0.80635	0.025
Mof_H 	H 	0.25148	0.55286	0.80784	0.025
Mof_H 	H 	0.48863	0.74002	0.85047	0.052
Mof_H 	H 	0.38584	0.62558	0.80943	0.047
Mof_H 	H 	0.3093	0.55833	0.85041	0.051
Mof_H 	H 	0.62562	0.98242	0.43095	0.1
Mof_H 	H 	0.93064	0.50041	0.14708	0.088
Mof_Zn	Zn	0.79798	0.26856	0.40471	1.238
Mof_Zn	Zn	0.71175	0.18682	0.24218	1.254
Mof_Zn	Zn	0.50177	0.01991	0.1612	1.243
Mof_P 	P 	0.50879	0.0162	0.07764	0.667
Mof_P 	P 	0.67983	0.13118	0.32303	0.324
Mof_P 	P 	0.09678	0.55752	0.44971	0.26
Mof_P 	P 	0.46964	0.91481	0.19144	0.321
Mof_P 	P 	0.72118	0.27148	0.21351	0.314
Mof_O 	O 	0.44159	0.97929	0.04636	-1.661
Mof_O 	O 	0.66641	0.1812	0.0781	-1.753
Mof_O 	O 	0.47745	0.01129	0.11256	-0.406
Mof_O 	O 	0.79098	0.25809	0.35366	-0.389
Mof_O 	O 	0.58653	0.07668	0.31532	-0.395
Mof_O 	O 	0.76449	0.21864	0.28852	-0.389
Mof_O 	O 	0.96646	0.41397	0.42435	-0.405
Mof_O 	O 	0.14859	0.62939	0.41665	-0.439
Mof_O 	O 	0.19261	0.61433	0.44609	-0.384
Mof_O 	O 	0.47888	0.95026	0.15802	-0.476
Mof_O 	O 	0.52893	0.0011	0.22329	-0.439
Mof_O 	O 	0.30782	0.76654	0.19317	-0.41
Mof_O 	O 	0.73339	0.25562	0.247	-0.428
Mof_O 	O 	0.88341	0.42755	0.20956	-0.395
Mof_O 	O 	0.37259	0.83361	0.2976	-0.433
Mof_O 	O 	0.43921	0.90962	0.36586	-0.422
Mof_O 	O 	0.6786	0.19979	0.18204	-0.43
Mof_N 	N 	0.68654	0.01981	0.42427	-0.219
Mof_N 	N 	0.8445	0.42164	0.1283	-0.219
Mof_C 	C 	0.73165	0.0692	0.38905	-0.013
Mof_C 	C 	0.83374	0.44917	0.11893	0
Mof_C 	C 	0.83664	0.47591	0.15292	-0.087
Mof_C 	C 	0.6556	0.00254	0.32206	-0.146
Mof_C 	C 	0.82305	0.50244	0.14264	-0.067
Mof_C 	C 	0.60959	0.95441	0.35929	-0.056
Mof_C 	C 	0.82758	0.53117	0.17638	-0.038
Mof_C 	C 	0.80948	0.553	0.16587	-0.153
Mof_H 	H 	0.3591	0.82834	0.27207	0.167
Mof_H 	H 	0.34946	0.81297	0.36908	0.165
Mof_H 	H 	0.77129	0.0998	0.44403	0.106
Mof_H 	H 	0.63238	0.94347	0.42359	0.099
Mof_H 	H 	0.8534	0.41492	0.10499	0.075
Mof_H 	H 	0.75724	0.32943	0.13882	0.095
Mof_H 	H 	0.79808	0.11061	0.38255	0.029
Mof_H 	H 	0.79219	0.15282	0.39035	0.033
Mof_H 	H 	0.73683	0.36019	0.10089	0.029
Mof_H 	H 	0.9196	0.5393	0.10407	0.026
Mof_H 	H 	0.9341	0.56574	0.17085	0.041
Mof_H 	H 	0.75158	0.38628	0.16787	0.039
Mof_H 	H 	0.71005	0.03044	0.31479	0.046
Mof_H 	H 	0.72399	0.092	0.32186	0.049
Mof_H 	H 	0.56556	0.91961	0.30143	0.05
Mof_H 	H 	0.72535	0.41231	0.12482	0.028
Mof_H 	H 	0.90767	0.59142	0.12743	0.038
Mof_H 	H 	0.54503	0.86775	0.35902	0.032
Mof_H 	H 	0.54742	0.91825	0.36495	0.044
Mof_H 	H 	0.92695	0.6238	0.19371	0.03
Mof_H 	H 	0.74544	0.44432	0.19232	0.026
Mof_H 	H 	0.88977	0.63859	0.14958	0.059
Mof_H 	H 	0.81705	0.57752	0.19072	0.05
Mof_H 	H 	0.70823	0.45948	0.14983	0.052
Mof_H 	H 	0.55114	0.19427	0.569	0.106
Mof_H 	H 	0.35335	0.78382	0.85285	0.081
Mof_Zn	Zn	0.01855	0.11382	0.97054	1.238
Mof_Zn	Zn	0.93682	0.1946	0.97511	1.256
Mof_Zn	Zn	0.77002	0.10875	0.01816	1.243
Mof_P 	P 	0.76621	0.18852	0.00753	0.666
Mof_P 	P 	0.88121	0.05815	0.9514	0.317
Mof_P 	P 	0.30756	0.35784	0.96072	0.27
Mof_P 	P 	0.66488	0.97339	0.94519	0.338
Mof_P 	P 	0.02146	0.30789	0.05034	0.298
Mof_O 	O 	0.72947	0.18304	0.03784	-1.669
Mof_O 	O 	0.93124	0.35303	0.01486	-1.693
Mof_O 	O 	0.76154	0.14889	0.03391	-0.403
Mof_O 	O 	0.0083	0.15461	0.96703	-0.391
Mof_O 	O 	0.82716	0.01173	0.99026	-0.401
Mof_O 	O 	0.96861	0.18007	0.95416	-0.391
Mof_O 	O 	0.1638	0.23933	0.94746	-0.409
Mof_O 	O 	0.37904	0.46244	0.98076	-0.434
Mof_O 	O 	0.36442	0.41836	0.92172	-0.383
Mof_O 	O 	0.70035	0.04228	0.97141	-0.49
Mof_O 	O 	0.75112	0.0278	0.97219	-0.443
Mof_O 	O 	0.51661	0.82342	0.95875	-0.406
Mof_O 	O 	0.00561	0.25856	0.02224	-0.441
Mof_O 	O 	0.17754	0.46792	0.0442	-0.409
Mof_O 	O 	0.58398	0.78623	0.96113	-0.428
Mof_O 	O 	0.66009	0.79407	0.97082	-0.414
Mof_O 	O 	0.94989	0.2678	0.02124	-0.421
Mof_N 	N 	0.76988	0.84555	0.83314	-0.224
Mof_N 	N 	0.17196	0.54359	0.07689	-0.217
Mof_C 	C 	0.81934	0.93021	0.83752	-0.001
Mof_C 	C 	0.19918	0.58033	0.11516	-0.001
Mof_C 	C 	0.22593	0.57318	0.13913	-0.088
Mof_C 	C 	0.75267	0.93053	0.84692	-0.127
Mof_C 	C 	0.252	0.60971	0.17921	-0.066
Mof_C 	C 	0.7044	0.84505	0.84465	-0.066
Mof_C 	C 	0.28079	0.60488	0.20355	-0.04
Mof_C 	C 	0.3018	0.63659	0.24345	-0.15
Mof_H 	H 	0.5787	0.80653	0.96923	0.171
Mof_H 	H 	0.56345	0.69428	0.96381	0.165
Mof_H 	H 	0.84991	0.90582	0.82842	0.106
Mof_H 	H 	0.69373	0.77011	0.81091	0.1
Mof_H 	H 	0.16552	0.56038	0.06118	0.066
Mof_H 	H 	0.07965	0.44081	0.07193	0.087
Mof_H 	H 	0.86129	0.97865	0.81259	0.028
Mof_H 	H 	0.90258	0.01213	0.86069	0.023
Mof_H 	H 	0.10999	0.50917	0.12298	0.023
Mof_H 	H 	0.2892	0.68524	0.11941	0.019
Mof_H 	H 	0.31597	0.64529	0.13163	0.036
Mof_H 	H 	0.13643	0.46868	0.13457	0.034
Mof_H 	H 	0.7811	0.96627	0.82045	0.045
Mof_H 	H 	0.8418	0.01982	0.8681	0.039
Mof_H 	H 	0.66961	0.8681	0.85396	0.046
Mof_H 	H 	0.16167	0.5372	0.18666	0.023
Mof_H 	H 	0.34083	0.7138	0.18356	0.031
Mof_H 	H 	0.61813	0.75909	0.82244	0.034
Mof_H 	H 	0.66766	0.80263	0.87059	0.047
Mof_H 	H 	0.37381	0.68062	0.19699	0.026
Mof_H 	H 	0.19426	0.5023	0.19882	0.023
Mof_H 	H 	0.38706	0.73825	0.24877	0.051
Mof_H 	H 	0.3264	0.63643	0.26052	0.047
Mof_H 	H 	0.20789	0.55867	0.251	0.048
Mof_H 	H 	0.94418	0.87529	0.1431	0.118
Mof_H 	H 	0.53397	0.18114	0.93038	0.081
Mof_Zn	Zn	0.14328	0.04792	0.02945	1.236
Mof_Zn	Zn	0.21951	0.96166	0.02491	1.247
Mof_Zn	Zn	0.09061	0.75182	0.98184	1.242
Mof_P 	P 	0.18112	0.75877	0.99251	0.673
Mof_P 	P 	0.10679	0.92976	0.04868	0.295
Mof_P 	P 	0.39706	0.3467	0.03927	0.266
Mof_P 	P 	0.02835	0.71975	0.05484	0.29
Mof_P 	P 	0.25756	0.97107	0.94968	0.305
Mof_O 	O 	0.14531	0.69169	0.96218	-1.675
Mof_O 	O 	0.33835	0.91648	0.98519	-1.743
Mof_O 	O 	0.11504	0.72762	0.96609	-0.409
Mof_O 	O 	0.1874	0.041	0.03295	-0.385
Mof_O 	O 	0.02129	0.83657	0.00986	-0.418
Mof_O 	O 	0.22595	0.01441	0.0459	-0.381
Mof_O 	O 	0.29205	0.21635	0.05252	-0.411
Mof_O 	O 	0.48187	0.39842	0.01922	-0.439
Mof_O 	O 	0.49656	0.44258	0.07827	-0.383
Mof_O 	O 	0.07094	0.72893	0.0286	-0.493
Mof_O 	O 	0.05563	0.77888	0.02782	-0.447
Mof_O 	O 	0.86479	0.55787	0.04132	-0.39
Mof_O 	O 	0.23638	0.98338	0.97778	-0.436
Mof_O 	O 	0.42373	0.13328	0.95582	-0.404
Mof_O 	O 	0.82483	0.62244	0.03895	-0.425
Mof_O 	O 	0.82336	0.68922	0.02947	-0.415
Mof_O 	O 	0.24655	0.9286	0.97879	-0.43
Mof_N 	N 	0.01232	0.93686	0.16656	-0.26
Mof_N 	N 	0.46688	0.09516	0.92316	-0.218
Mof_C 	C 	0.09256	0.98186	0.1623	-0.055
Mof_C 	C 	0.46533	0.08406	0.8849	-0.001
Mof_C 	C 	0.43399	0.08658	0.86088	-0.089
Mof_C 	C 	0.08345	0.90573	0.15329	-0.12
Mof_C 	C 	0.43059	0.07268	0.82082	-0.061
Mof_C 	C 	0.00026	0.85976	0.15547	-0.121
Mof_C 	C 	0.40104	0.07673	0.79643	-0.03
Mof_C 	C 	0.39328	0.05823	0.75656	-0.136
Mof_H 	H 	0.83726	0.60932	0.03079	0.171
Mof_H 	H 	0.73044	0.59949	0.03638	0.163
Mof_H 	H 	0.07729	0.02161	0.17108	0.122
Mof_H 	H 	0.95944	0.8834	0.18887	0.119
Mof_H 	H 	0.49948	0.10454	0.93889	0.069
Mof_H 	H 	0.36906	0.00781	0.92812	0.094
Mof_H 	H 	0.16626	0.0492	0.1872	0.051
Mof_H 	H 	0.15095	0.04143	0.13903	0.052
Mof_H 	H 	0.38644	0.98711	0.87711	0.03
Mof_H 	H 	0.56604	0.1699	0.88065	0.019
Mof_H 	H 	0.51341	0.184	0.86837	0.036
Mof_H 	H 	0.33394	0.00149	0.86541	0.041
Mof_H 	H 	0.14612	0.96122	0.17974	0.028
Mof_H 	H 	0.15113	0.97313	0.13199	0.032
Mof_H 	H 	0.01397	0.81558	0.14649	0.03
Mof_H 	H 	0.35087	0.97507	0.81338	0.021
Mof_H 	H 	0.53047	0.15738	0.81648	0.03
Mof_H 	H 	0.93695	0.79626	0.17779	0.061
Mof_H 	H 	0.93149	0.79654	0.12958	0.074
Mof_H 	H 	0.48299	0.17607	0.80301	0.024
Mof_H 	H 	0.30294	0.99457	0.80111	0.013
Mof_H 	H 	0.48988	0.13852	0.75129	0.05
Mof_H 	H 	0.3758	0.0655	0.73946	0.049
Mof_H 	H 	0.30814	0.95699	0.74898	0.038
Mof_H 	H 	0.73223	0.80119	0.85663	0.102
Mof_H 	H 	0.25071	0.60348	0.06963	0.079
Mof_Zn	Zn	0.29794	0.8933	0.52946	1.234
Mof_Zn	Zn	0.21166	0.96952	0.52491	1.246
Mof_Zn	Zn	0.0018	0.84061	0.48183	1.238
Mof_P 	P 	0.00872	0.93106	0.49251	0.619
Mof_P 	P 	0.17974	0.85676	0.54864	0.319
Mof_P 	P 	0.59676	0.14712	0.53929	0.271
Mof_P 	P 	0.96968	0.77828	0.55482	0.323
Mof_P 	P 	0.22109	0.00757	0.44968	0.361
Mof_O 	O 	0.94159	0.89521	0.46219	-1.633
Mof_O 	O 	0.16648	0.08835	0.48519	-1.728
Mof_O 	O 	0.97761	0.86504	0.46607	-0.391
Mof_O 	O 	0.29112	0.93751	0.53298	-0.403
Mof_O 	O 	0.08675	0.77143	0.50979	-0.405
Mof_O 	O 	0.2644	0.97594	0.54588	-0.406
Mof_O 	O 	0.46633	0.04198	0.55253	-0.401
Mof_O 	O 	0.64839	0.23185	0.51924	-0.435
Mof_O 	O 	0.69259	0.24658	0.5783	-0.383
Mof_O 	O 	0.97888	0.8209	0.52859	-0.479
Mof_O 	O 	0.02888	0.80563	0.52781	-0.45
Mof_O 	O 	0.80782	0.61472	0.54129	-0.407
Mof_O 	O 	0.2334	0.9864	0.47777	-0.463
Mof_O 	O 	0.38329	0.17375	0.45581	-0.405
Mof_O 	O 	0.87253	0.57486	0.53889	-0.428
Mof_O 	O 	0.93929	0.57335	0.52927	-0.412
Mof_O 	O 	0.17862	0.99656	0.47879	-0.471
Mof_N 	N 	0.1869	0.76235	0.66659	-0.222
Mof_N 	N 	0.34516	0.21688	0.42315	-0.219
Mof_C 	C 	0.23191	0.84259	0.66231	-0.013
Mof_C 	C 	0.33407	0.21533	0.38489	0.001
Mof_C 	C 	0.3366	0.184	0.36088	-0.088
Mof_C 	C 	0.15579	0.8335	0.65327	-0.139
Mof_C 	C 	0.32272	0.18062	0.32081	-0.066
Mof_C 	C 	0.10982	0.75031	0.65548	-0.061
Mof_C 	C 	0.32675	0.15107	0.29642	-0.039
Mof_C 	C 	0.30827	0.14333	0.25655	-0.151
Mof_H 	H 	0.85955	0.58745	0.5308	0.17
Mof_H 	H 	0.84963	0.48048	0.53621	0.164
Mof_H 	H 	0.27165	0.82732	0.67111	0.104
Mof_H 	H 	0.13348	0.70953	0.68891	0.096
Mof_H 	H 	0.35452	0.24945	0.43887	0.071
Mof_H 	H 	0.25783	0.11906	0.42811	0.103
Mof_H 	H 	0.29928	0.91633	0.6872	0.026
Mof_H 	H 	0.29144	0.90094	0.63904	0.028
Mof_H 	H 	0.23713	0.13646	0.3771	0.033
Mof_H 	H 	0.4199	0.31604	0.38064	0.018
Mof_H 	H 	0.43401	0.26343	0.36836	0.036
Mof_H 	H 	0.2515	0.08395	0.3654	0.044
Mof_H 	H 	0.21132	0.89621	0.67971	0.038
Mof_H 	H 	0.22316	0.90114	0.63197	0.04
Mof_H 	H 	0.06564	0.76402	0.64646	0.04
Mof_H 	H 	0.22511	0.10092	0.31337	0.032
Mof_H 	H 	0.40741	0.28051	0.31648	0.031
Mof_H 	H 	0.04636	0.68705	0.67781	0.028
Mof_H 	H 	0.04656	0.68149	0.6296	0.04
Mof_H 	H 	0.42608	0.233	0.303	0.025
Mof_H 	H 	0.24459	0.05296	0.30109	0.03
Mof_H 	H 	0.38858	0.23995	0.25129	0.052
Mof_H 	H 	0.31554	0.12586	0.23944	0.049
Mof_H 	H 	0.20703	0.0582	0.24897	0.054
Mof_H 	H 	0.05136	0.48239	0.3567	0.098
Mof_H 	H 	0.8534	0.00063	0.56963	0.081
Mof_Zn	Zn	0.36387	0.76857	0.47056	1.238
Mof_Zn	Zn	0.44447	0.68666	0.47508	1.253
Mof_Zn	Zn	0.35873	0.51999	0.51814	1.245
Mof_P 	P 	0.43843	0.51614	0.50749	0.676
Mof_P 	P 	0.30808	0.63113	0.45132	0.324
Mof_P 	P 	0.60777	0.05747	0.46072	0.274
Mof_P 	P 	0.22329	0.41475	0.44516	0.316
Mof_P 	P 	0.5578	0.77138	0.55032	0.313
Mof_O 	O 	0.43299	0.47942	0.53781	-1.667
Mof_O 	O 	0.60298	0.6812	0.51482	-1.747
Mof_O 	O 	0.39891	0.51153	0.53388	-0.401
Mof_O 	O 	0.40448	0.75814	0.46705	-0.393
Mof_O 	O 	0.26138	0.57675	0.49014	-0.397
Mof_O 	O 	0.42999	0.71851	0.45411	-0.392
Mof_O 	O 	0.48955	0.91391	0.44747	-0.415
Mof_O 	O 	0.71265	0.12929	0.48078	-0.436
Mof_O 	O 	0.66831	0.11439	0.42172	-0.382
Mof_O 	O 	0.29226	0.45031	0.47139	-0.479
Mof_O 	O 	0.27765	0.50095	0.47216	-0.434
Mof_O 	O 	0.07332	0.26649	0.45873	-0.4
Mof_O 	O 	0.50846	0.75551	0.52222	-0.433
Mof_O 	O 	0.71785	0.92749	0.54419	-0.41
Mof_O 	O 	0.03597	0.3336	0.46103	-0.431
Mof_O 	O 	0.04363	0.40953	0.47045	-0.42
Mof_O 	O 	0.51775	0.69984	0.52122	-0.431
Mof_N 	N 	0.09564	0.51997	0.3332	-0.221
Mof_N 	N 	0.79351	0.92188	0.57689	-0.219
Mof_C 	C 	0.18023	0.56934	0.33754	-0.015
Mof_C 	C 	0.83025	0.94911	0.61516	-0.001
Mof_C 	C 	0.82313	0.97588	0.63913	-0.092
Mof_C 	C 	0.18041	0.50253	0.34688	-0.143
Mof_C 	C 	0.85962	0.00193	0.67921	-0.058
Mof_C 	C 	0.09502	0.45437	0.34466	-0.058
Mof_C 	C 	0.85482	0.03076	0.70355	-0.04
Mof_C 	C 	0.88649	0.05173	0.74344	-0.151
Mof_H 	H 	0.05613	0.32822	0.46923	0.17
Mof_H 	H 	0.94381	0.31284	0.4635	0.163
Mof_H 	H 	0.15594	0.60002	0.32847	0.105
Mof_H 	H 	0.02014	0.44378	0.31097	0.095
Mof_H 	H 	0.81033	0.91547	0.56118	0.068
Mof_H 	H 	0.69072	0.82958	0.57194	0.095
Mof_H 	H 	0.22858	0.61121	0.31259	0.03
Mof_H 	H 	0.26223	0.65263	0.36069	0.033
Mof_H 	H 	0.75911	0.85993	0.62298	0.028
Mof_H 	H 	0.93516	0.03912	0.61941	0.015
Mof_H 	H 	0.89526	0.06594	0.63163	0.034
Mof_H 	H 	0.71863	0.88639	0.63456	0.039
Mof_H 	H 	0.21603	0.53087	0.32039	0.046
Mof_H 	H 	0.26978	0.59171	0.36804	0.048
Mof_H 	H 	0.11796	0.41945	0.35392	0.048
Mof_H 	H 	0.78708	0.91157	0.68667	0.024
Mof_H 	H 	0.96369	0.09072	0.68357	0.023
Mof_H 	H 	0.00899	0.36806	0.32247	0.029
Mof_H 	H 	0.05271	0.41772	0.37062	0.043
Mof_H 	H 	0.93061	0.12381	0.69699	0.022
Mof_H 	H 	0.75227	0.94426	0.69881	0.027
Mof_H 	H 	0.98815	0.13698	0.74878	0.045
Mof_H 	H 	0.88634	0.07635	0.76052	0.045
Mof_H 	H 	0.80855	0.95781	0.751	0.052
Mof_H 	H 	0.1253	0.69417	0.64314	0.098
Mof_H 	H 	0.43116	0.284	0.43038	0.081
Mof_Zn	Zn	0.64324	0.61376	0.09529	1.238
Mof_Zn	Zn	0.7195	0.69461	0.25783	1.254
Mof_Zn	Zn	0.59048	0.60869	0.33878	1.245
Mof_P 	P 	0.68099	0.68852	0.42233	0.673
Mof_P 	P 	0.6067	0.55808	0.17699	0.324
Mof_P 	P 	0.89697	0.85762	0.05028	0.267
Mof_P 	P 	0.52817	0.4734	0.30857	0.316
Mof_P 	P 	0.75753	0.80787	0.28646	0.314
Mof_O 	O 	0.64518	0.68299	0.45361	-1.668
Mof_O 	O 	0.83823	0.8531	0.42189	-1.73
Mof_O 	O 	0.61488	0.64883	0.38739	-0.403
Mof_O 	O 	0.68735	0.65439	0.14634	-0.392
Mof_O 	O 	0.52136	0.51158	0.18464	-0.397
Mof_O 	O 	0.72593	0.6801	0.21149	-0.389
Mof_O 	O 	0.79203	0.73945	0.07564	-0.41
Mof_O 	O 	0.98182	0.96256	0.08332	-0.436
Mof_O 	O 	0.9965	0.91815	0.05391	-0.379
Mof_O 	O 	0.57081	0.54226	0.34198	-0.481
Mof_O 	O 	0.55562	0.52784	0.27672	-0.434
Mof_O 	O 	0.36462	0.32341	0.30685	-0.405
Mof_O 	O 	0.73631	0.75855	0.25299	-0.431
Mof_O 	O 	0.9237	0.96788	0.29041	-0.411
Mof_O 	O 	0.32492	0.28602	0.20226	-0.431
Mof_O 	O 	0.32342	0.2942	0.13399	-0.42
Mof_O 	O 	0.74651	0.76775	0.31793	-0.432
Mof_N 	N 	0.51224	0.34557	0.07566	-0.222
Mof_N 	N 	0.96674	0.04358	0.3717	-0.226
Mof_C 	C 	0.59266	0.4303	0.11086	-0.013
Mof_C 	C 	0.96525	0.08038	0.38109	-0.026
Mof_C 	C 	0.93395	0.07294	0.34712	-0.1
Mof_C 	C 	0.5839	0.43072	0.17789	-0.142
Mof_C 	C 	0.9305	0.10961	0.35741	-0.085
Mof_C 	C 	0.50053	0.34514	0.14069	-0.059
Mof_C 	C 	0.90098	0.1043	0.3237	-0.035
Mof_C 	C 	0.89315	0.13641	0.33423	-0.153
Mof_H 	H 	0.33737	0.30654	0.22784	0.169
Mof_H 	H 	0.23055	0.19437	0.13074	0.164
Mof_H 	H 	0.57711	0.40584	0.05586	0.106
Mof_H 	H 	0.45928	0.27032	0.07632	0.101
Mof_H 	H 	0.99938	0.06058	0.39498	0.06
Mof_H 	H 	0.8689	0.94076	0.36127	0.096
Mof_H 	H 	0.66619	0.4789	0.11726	0.032
Mof_H 	H 	0.65124	0.51208	0.1096	0.034
Mof_H 	H 	0.88638	0.0094	0.39914	0.034
Mof_H 	H 	0.06597	0.18539	0.39593	0.036
Mof_H 	H 	0.01344	0.14484	0.32917	0.046
Mof_H 	H 	0.83395	0.96834	0.33218	0.043
Mof_H 	H 	0.6464	0.46676	0.18509	0.047
Mof_H 	H 	0.65176	0.51982	0.17809	0.048
Mof_H 	H 	0.51456	0.36827	0.19857	0.048
Mof_H 	H 	0.85074	0.03737	0.37528	0.031
Mof_H 	H 	0.03036	0.21386	0.37258	0.043
Mof_H 	H 	0.43699	0.25934	0.14096	0.035
Mof_H 	H 	0.43197	0.3025	0.1351	0.045
Mof_H 	H 	0.98297	0.17962	0.30634	0.017
Mof_H 	H 	0.8029	0.00148	0.30778	0.024
Mof_H 	H 	0.98979	0.2384	0.35045	0.046
Mof_H 	H 	0.87546	0.13569	0.30939	0.046
Mof_H 	H 	0.80811	0.05903	0.35034	0.051
Mof_H 	H 	0.23283	0.37588	0.93105	0.102
Mof_H 	H 	0.7504	0.6806	0.64707	0.081
Mof_Zn	Zn	0.51852	0.54794	0.90469	1.238
Mof_Zn	Zn	0.4368	0.46173	0.74217	1.253
Mof_Zn	Zn	0.26987	0.25174	0.6612	1.246
Mof_P 	P 	0.26609	0.25866	0.57762	0.682
Mof_P 	P 	0.38108	0.42975	0.82301	0.324
Mof_P 	P 	0.80743	0.8467	0.94969	0.27
Mof_P 	P 	0.1648	0.21963	0.69144	0.32
Mof_P 	P 	0.52142	0.47112	0.7135	0.313
Mof_O 	O 	0.22928	0.19156	0.54637	-1.664
Mof_O 	O 	0.43114	0.41634	0.57811	-1.757
Mof_O 	O 	0.26135	0.22753	0.61256	-0.398
Mof_O 	O 	0.50798	0.54088	0.85363	-0.393
Mof_O 	O 	0.32659	0.33646	0.81528	-0.397
Mof_O 	O 	0.46857	0.51445	0.7885	-0.392
Mof_O 	O 	0.66396	0.71645	0.92429	-0.41
Mof_O 	O 	0.87941	0.89861	0.91665	-0.436
Mof_O 	O 	0.86426	0.94255	0.94608	-0.379
Mof_O 	O 	0.20021	0.22883	0.65802	-0.476
Mof_O 	O 	0.25107	0.27889	0.72327	-0.433
Mof_O 	O 	0.01651	0.0578	0.69316	-0.393
Mof_O 	O 	0.50563	0.48342	0.74699	-0.432
Mof_O 	O 	0.67747	0.63334	0.70954	-0.407
Mof_O 	O 	0.08349	0.12248	0.79757	-0.428
Mof_O 	O 	0.15955	0.18914	0.86583	-0.419
Mof_O 	O 	0.44973	0.42855	0.68203	-0.431
Mof_N 	N 	0.27035	0.43693	0.92442	-0.223
Mof_N 	N 	0.67162	0.59444	0.6283	-0.218
Mof_C 	C 	0.31938	0.48176	0.88915	-0.013
Mof_C 	C 	0.69918	0.58371	0.61892	-0
Mof_C 	C 	0.72593	0.58662	0.65291	-0.088
Mof_C 	C 	0.25202	0.40527	0.82215	-0.142
Mof_C 	C 	0.75248	0.57306	0.64264	-0.067
Mof_C 	C 	0.2042	0.35953	0.85942	-0.059
Mof_C 	C 	0.78119	0.57756	0.67637	-0.038
Mof_C 	C 	0.80308	0.55952	0.66586	-0.152
Mof_H 	H 	0.07827	0.10906	0.77203	0.171
Mof_H 	H 	0.06291	0.09939	0.86905	0.167
Mof_H 	H 	0.35055	0.52179	0.94416	0.107
Mof_H 	H 	0.19418	0.38298	0.92385	0.1
Mof_H 	H 	0.66485	0.6033	0.60499	0.07
Mof_H 	H 	0.57942	0.50719	0.63883	0.094
Mof_H 	H 	0.36114	0.54851	0.88272	0.03
Mof_H 	H 	0.40269	0.54192	0.89032	0.033
Mof_H 	H 	0.61019	0.48679	0.60089	0.028
Mof_H 	H 	0.7893	0.66957	0.60407	0.017
Mof_H 	H 	0.81576	0.68408	0.67084	0.035
Mof_H 	H 	0.63628	0.50154	0.66786	0.038
Mof_H 	H 	0.28033	0.4601	0.81494	0.046
Mof_H 	H 	0.34113	0.47321	0.82184	0.048
Mof_H 	H 	0.16877	0.31506	0.80153	0.05
Mof_H 	H 	0.66238	0.47538	0.62481	0.028
Mof_H 	H 	0.84147	0.65769	0.62743	0.03
Mof_H 	H 	0.11789	0.29541	0.85925	0.033
Mof_H 	H 	0.16763	0.29698	0.86502	0.045
Mof_H 	H 	0.87379	0.67691	0.69371	0.025
Mof_H 	H 	0.69431	0.49539	0.6923	0.026
Mof_H 	H 	0.88871	0.63985	0.64958	0.054
Mof_H 	H 	0.82759	0.56708	0.69071	0.05
Mof_H 	H 	0.70959	0.45829	0.64981	0.052
Mof_H 	H 	0.44418	0.30097	0.06906	0.102
Mof_H 	H 	0.03379	0.1033	0.35283	0.093
Mof_Zn	Zn	0.88625	0.85675	0.9047	1.238
Mof_Zn	Zn	0.80534	0.78045	0.74216	1.253
Mof_Zn	Zn	0.89116	0.90936	0.66123	1.242
Mof_P 	P 	0.81141	0.81892	0.57766	0.671
Mof_P 	P 	0.94186	0.89323	0.82298	0.324
Mof_P 	P 	0.64231	0.60297	0.94971	0.27
Mof_P 	P 	0.02651	0.97172	0.69142	0.27
Mof_P 	P 	0.69208	0.74242	0.71354	0.312
Mof_O 	O 	0.81691	0.85476	0.5464	-1.669
Mof_O 	O 	0.64685	0.66172	0.57815	-1.752
Mof_O 	O 	0.8509	0.88482	0.61258	-0.406
Mof_O 	O 	0.84558	0.81259	0.85365	-0.393
Mof_O 	O 	0.98828	0.97852	0.81533	-0.401
Mof_O 	O 	0.8198	0.77397	0.78849	-0.392
Mof_O 	O 	0.76054	0.70798	0.92436	-0.41
Mof_O 	O 	0.53741	0.51814	0.91665	-0.437
Mof_O 	O 	0.58183	0.50348	0.94607	-0.383
Mof_O 	O 	0.95761	0.92905	0.65802	-0.477
Mof_O 	O 	0.97221	0.94441	0.72329	-0.43
Mof_O 	O 	0.17651	0.13526	0.69311	-0.388
Mof_O 	O 	0.74133	0.76358	0.74702	-0.434
Mof_O 	O 	0.53206	0.57626	0.70958	-0.408
Mof_O 	O 	0.21392	0.17503	0.79772	-0.429
Mof_O 	O 	0.20584	0.17667	0.86599	-0.418
Mof_O 	O 	0.73225	0.75349	0.68207	-0.432
Mof_N 	N 	0.15425	0.98764	0.92441	-0.238
Mof_N 	N 	0.45631	0.53317	0.62828	-0.218
Mof_C 	C 	0.06966	0.90733	0.88918	-0.028
Mof_C 	C 	0.41952	0.53468	0.61888	-0
Mof_C 	C 	0.42696	0.56598	0.65285	-0.087
Mof_C 	C 	0.06956	0.91631	0.82216	-0.151
Mof_C 	C 	0.39034	0.56946	0.64254	-0.067
Mof_C 	C 	0.15501	0.99956	0.85937	-0.102
Mof_C 	C 	0.39568	0.59903	0.67626	-0.039
Mof_C 	C 	0.36352	0.6068	0.66573	-0.151
Mof_H 	H 	0.19333	0.1625	0.77214	0.17
Mof_H 	H 	0.30566	0.2695	0.86921	0.164
Mof_H 	H 	0.09386	0.9227	0.94419	0.1
Mof_H 	H 	0.22947	0.04056	0.92379	0.111
Mof_H 	H 	0.43936	0.50059	0.605	0.07
Mof_H 	H 	0.55914	0.63101	0.63871	0.095
Mof_H 	H 	0.02092	0.83368	0.88281	0.026
Mof_H 	H 	0.98797	0.84889	0.89039	0.048
Mof_H 	H 	0.49052	0.61355	0.60084	0.029
Mof_H 	H 	0.31453	0.43398	0.60404	0.02
Mof_H 	H 	0.35507	0.48651	0.67081	0.036
Mof_H 	H 	0.53158	0.666	0.66778	0.038
Mof_H 	H 	0.03331	0.85362	0.81498	0.04
Mof_H 	H 	0.98059	0.84864	0.82191	0.06
Mof_H 	H 	0.13218	0.98575	0.80148	0.036
Mof_H 	H 	0.46256	0.64921	0.62467	0.027
Mof_H 	H 	0.28608	0.46961	0.62738	0.032
Mof_H 	H 	0.24068	0.06293	0.85915	0.054
Mof_H 	H 	0.19784	0.06828	0.86494	0.063
Mof_H 	H 	0.32041	0.51709	0.69363	0.026
Mof_H 	H 	0.49852	0.69712	0.69216	0.026
Mof_H 	H 	0.26147	0.51009	0.64952	0.052
Mof_H 	H 	0.36429	0.62454	0.69057	0.047
Mof_H 	H 	0.44083	0.69178	0.64959	0.051
Mof_H 	H 	0.12441	0.26761	0.06905	0.101
Mof_H 	H 	0.8193	0.74953	0.35293	0.08
Mof_Zn	Zn	0.952	0.98142	0.09527	1.239
Mof_Zn	Zn	0.03827	0.06318	0.25781	1.261
Mof_Zn	Zn	0.24821	0.23009	0.33878	1.246
Mof_P 	P 	0.2413	0.23387	0.42233	0.673
Mof_P 	P 	0.07013	0.11878	0.17696	0.329
Mof_P 	P 	0.65316	0.69242	0.05028	0.266
Mof_P 	P 	0.28028	0.33513	0.30853	0.317
Mof_P 	P 	0.02887	0.97857	0.28647	0.264
Mof_O 	O 	0.30836	0.27064	0.45361	-1.667
Mof_O 	O 	0.08355	0.06878	0.42185	-1.708
Mof_O 	O 	0.27244	0.2386	0.38742	-0.401
Mof_O 	O 	0.95898	0.99188	0.14632	-0.392
Mof_O 	O 	0.16342	0.17327	0.18467	-0.395
Mof_O 	O 	0.98547	0.03132	0.21147	-0.406
Mof_O 	O 	0.78352	0.83601	0.07563	-0.409
Mof_O 	O 	0.60141	0.6206	0.08334	-0.437
Mof_O 	O 	0.55732	0.63558	0.05392	-0.384
Mof_O 	O 	0.27101	0.29967	0.34196	-0.48
Mof_O 	O 	0.2211	0.24891	0.27671	-0.43
Mof_O 	O 	0.44216	0.48347	0.30684	-0.409
Mof_O 	O 	0.01655	0.99431	0.25298	-0.457
Mof_O 	O 	0.86665	0.82248	0.29043	-0.394
Mof_O 	O 	0.37743	0.41639	0.20238	-0.432
Mof_O 	O 	0.31082	0.34036	0.13413	-0.42
Mof_O 	O 	0.07137	0.05019	0.31793	-0.407
Mof_N 	N 	0.0635	0.23024	0.07574	-0.224
Mof_N 	N 	0.90544	0.8283	0.37171	-0.221
Mof_C 	C 	0.01839	0.18083	0.11096	-0.013
Mof_C 	C 	0.91622	0.80079	0.38108	0.028
Mof_C 	C 	0.91334	0.77407	0.34709	-0.102
Mof_C 	C 	0.09443	0.24747	0.17794	-0.141
Mof_C 	C 	0.92701	0.74762	0.35737	-0.039
Mof_C 	C 	0.14044	0.29562	0.14071	-0.06
Mof_C 	C 	0.92247	0.71888	0.32363	-0.027
Mof_C 	C 	0.94067	0.69715	0.33414	-0.123
Mof_H 	H 	0.39082	0.42156	0.22791	0.168
Mof_H 	H 	0.40055	0.43701	0.13094	0.165
Mof_H 	H 	0.97875	0.15025	0.05598	0.105
Mof_H 	H 	0.11767	0.30659	0.07643	0.099
Mof_H 	H 	0.89662	0.8351	0.39502	0.069
Mof_H 	H 	0.99269	0.92051	0.36118	0.092
Mof_H 	H 	0.95194	0.1394	0.11746	0.028
Mof_H 	H 	0.95785	0.09722	0.10965	0.028
Mof_H 	H 	0.01316	0.8898	0.39911	-0
Mof_H 	H 	0.83038	0.71067	0.39594	0.013
Mof_H 	H 	0.81588	0.68422	0.32916	0.038
Mof_H 	H 	0.99839	0.86369	0.33214	0.044
Mof_H 	H 	0.03996	0.21956	0.18522	0.044
Mof_H 	H 	0.02605	0.15803	0.17814	0.047
Mof_H 	H 	0.18447	0.33041	0.19857	0.047
Mof_H 	H 	0.02473	0.83777	0.37519	0.001
Mof_H 	H 	0.84243	0.65865	0.37258	0.026
Mof_H 	H 	0.20499	0.38227	0.14099	0.032
Mof_H 	H 	0.20262	0.33178	0.13505	0.045
Mof_H 	H 	0.82307	0.6262	0.30631	0.023
Mof_H 	H 	0.00456	0.80569	0.30768	0.001
Mof_H 	H 	0.86039	0.61156	0.35043	0.048
Mof_H 	H 	0.93313	0.67265	0.3093	0.047
Mof_H 	H 	0.04193	0.79069	0.35019	0.028
Mof_H 	H 	0.1989	0.05575	0.93099	0.111
Mof_H 	H 	0.39655	0.46609	0.64714	0.081
Mof_Zn	Zn	0.73148	0.13621	0.52946	1.238
Mof_Zn	Zn	0.81318	0.0554	0.52489	1.254
Mof_Zn	Zn	0.98003	0.14128	0.4818	1.239
Mof_P 	P 	0.9838	0.06153	0.4925	0.651
Mof_P 	P 	0.86885	0.19191	0.5486	0.322
Mof_P 	P 	0.4425	0.89221	0.53929	0.26
Mof_P 	P 	0.08517	0.27663	0.55478	0.329
Mof_P 	P 	0.7285	0.94205	0.44967	0.312
Mof_O 	O 	0.02073	0.06714	0.46226	-1.615
Mof_O 	O 	0.81877	0.89693	0.48514	-1.752
Mof_O 	O 	0.98866	0.1013	0.46607	-0.412
Mof_O 	O 	0.74182	0.09552	0.53297	-0.39
Mof_O 	O 	0.92292	0.23834	0.50975	-0.401
Mof_O 	O 	0.78134	0.0699	0.54582	-0.39
Mof_O 	O 	0.58622	0.01065	0.55254	-0.403
Mof_O 	O 	0.37096	0.78755	0.51924	-0.437
Mof_O 	O 	0.38564	0.83171	0.5783	-0.385
Mof_O 	O 	0.04972	0.20777	0.52855	-0.468
Mof_O 	O 	0.99889	0.22221	0.5278	-0.45
Mof_O 	O 	0.23347	0.42665	0.54123	-0.408
Mof_O 	O 	0.74442	0.99146	0.47774	-0.434
Mof_O 	O 	0.57245	0.78204	0.45584	-0.408
Mof_O 	O 	0.16611	0.46384	0.53888	-0.431
Mof_O 	O 	0.0899	0.45591	0.52924	-0.42
Mof_O 	O 	0.80013	0.98222	0.47879	-0.433
Mof_N 	N 	0.98008	0.40443	0.66685	-0.215
Mof_N 	N 	0.57806	0.70643	0.42311	-0.218
Mof_C 	C 	0.93065	0.31978	0.66248	-0.013
Mof_C 	C 	0.55083	0.66969	0.38485	-0
Mof_C 	C 	0.52409	0.67684	0.36088	-0.088
Mof_C 	C 	0.99736	0.3195	0.6531	-0.151
Mof_C 	C 	0.49797	0.64028	0.32079	-0.066
Mof_C 	C 	0.0456	0.40496	0.65536	-0.057
Mof_C 	C 	0.4692	0.64513	0.29645	-0.039
Mof_C 	C 	0.44813	0.61336	0.25655	-0.151
Mof_H 	H 	0.17144	0.4436	0.53079	0.169
Mof_H 	H 	0.18655	0.55571	0.5362	0.164
Mof_H 	H 	0.90004	0.34414	0.67156	0.108
Mof_H 	H 	0.05622	0.47985	0.68909	0.095
Mof_H 	H 	0.58441	0.68955	0.43883	0.069
Mof_H 	H 	0.67038	0.80921	0.42807	0.094
Mof_H 	H 	0.8887	0.27135	0.68742	0.031
Mof_H 	H 	0.84741	0.23785	0.63931	0.034
Mof_H 	H 	0.64002	0.74084	0.37702	0.029
Mof_H 	H 	0.46082	0.56478	0.3806	0.018
Mof_H 	H 	0.43407	0.60476	0.36838	0.035
Mof_H 	H 	0.61361	0.78136	0.36543	0.039
Mof_H 	H 	0.96894	0.28378	0.67958	0.047
Mof_H 	H 	0.90823	0.2302	0.63192	0.049
Mof_H 	H 	0.08042	0.38194	0.64607	0.052
Mof_H 	H 	0.58828	0.71276	0.31334	0.027
Mof_H 	H 	0.40913	0.53618	0.31644	0.031
Mof_H 	H 	0.13186	0.49092	0.67757	0.031
Mof_H 	H 	0.08235	0.44738	0.62943	0.044
Mof_H 	H 	0.37621	0.56943	0.30302	0.025
Mof_H 	H 	0.55575	0.74772	0.30118	0.027
Mof_H 	H 	0.36284	0.51168	0.25124	0.051
Mof_H 	H 	0.4235	0.61349	0.23948	0.047
Mof_H 	H 	0.54201	0.69124	0.24899	0.051
Mof_H 	H 	0.80582	0.37471	0.35692	0.105
Mof_H 	H 	0.21611	0.06893	0.56961	0.088
Mof_Zn	Zn	0.60672	0.2021	0.47055	1.239
Mof_Zn	Zn	0.53046	0.28833	0.47508	1.254
Mof_Zn	Zn	0.65944	0.49826	0.51817	1.245
Mof_P 	P 	0.56895	0.49134	0.50749	0.677
Mof_P 	P 	0.64328	0.32032	0.45132	0.325
Mof_P 	P 	0.35297	0.90334	0.46072	0.255
Mof_P 	P 	0.72181	0.53043	0.4452	0.317
Mof_P 	P 	0.49239	0.27889	0.55031	0.314
Mof_O 	O 	0.60472	0.55838	0.53778	-1.674
Mof_O 	O 	0.41177	0.33367	0.51485	-1.752
Mof_O 	O 	0.63491	0.52235	0.53388	-0.402
Mof_O 	O 	0.56266	0.20907	0.46704	-0.387
Mof_O 	O 	0.72875	0.41348	0.49014	-0.397
Mof_O 	O 	0.52409	0.23564	0.45411	-0.385
Mof_O 	O 	0.45793	0.03365	0.44747	-0.398
Mof_O 	O 	0.26811	0.85154	0.48077	-0.441
Mof_O 	O 	0.25348	0.80746	0.42171	-0.386
Mof_O 	O 	0.67921	0.52123	0.47143	-0.48
Mof_O 	O 	0.69436	0.47113	0.47219	-0.433
Mof_O 	O 	0.88537	0.69226	0.45874	-0.402
Mof_O 	O 	0.51359	0.26662	0.52221	-0.427
Mof_O 	O 	0.32622	0.11669	0.54415	-0.391
Mof_O 	O 	0.92515	0.62755	0.46103	-0.424
Mof_O 	O 	0.92661	0.56077	0.47049	-0.404
Mof_O 	O 	0.50346	0.32144	0.52121	-0.429
Mof_N 	N 	0.73768	0.31313	0.33346	-0.223
Mof_N 	N 	0.28317	0.15488	0.57683	-0.219
Mof_C 	C 	0.65744	0.26813	0.3377	-0.012
Mof_C 	C 	0.28469	0.16596	0.61509	0
Mof_C 	C 	0.31601	0.16341	0.63909	-0.087
Mof_C 	C 	0.66655	0.34427	0.34668	-0.142
Mof_C 	C 	0.31934	0.17723	0.67916	-0.067
Mof_C 	C 	0.74974	0.39023	0.34452	-0.059
Mof_C 	C 	0.3489	0.17321	0.70356	-0.038
Mof_C 	C 	0.35652	0.19158	0.74343	-0.152
Mof_H 	H 	0.91276	0.64071	0.4692	0.17
Mof_H 	H 	0.01957	0.65049	0.46361	0.15
Mof_H 	H 	0.67271	0.22837	0.32895	0.108
Mof_H 	H 	0.79055	0.36656	0.31114	0.105
Mof_H 	H 	0.2505	0.14542	0.5611	0.075
Mof_H 	H 	0.38101	0.24227	0.57187	0.096
Mof_H 	H 	0.58375	0.20079	0.3128	0.032
Mof_H 	H 	0.59904	0.20856	0.36096	0.035
Mof_H 	H 	0.36355	0.26288	0.62288	0.029
Mof_H 	H 	0.18399	0.08013	0.61933	0.025
Mof_H 	H 	0.2366	0.06601	0.6316	0.04
Mof_H 	H 	0.41609	0.24854	0.63457	0.039
Mof_H 	H 	0.6039	0.28878	0.32023	0.048
Mof_H 	H 	0.59887	0.27687	0.36798	0.051
Mof_H 	H 	0.73603	0.43442	0.35348	0.05
Mof_H 	H 	0.399	0.27481	0.6866	0.028
Mof_H 	H 	0.21941	0.09249	0.68347	0.037
Mof_H 	H 	0.81306	0.45373	0.3222	0.038
Mof_H 	H 	0.8185	0.45345	0.37041	0.049
Mof_H 	H 	0.26701	0.07391	0.69696	0.029
Mof_H 	H 	0.44704	0.25541	0.6989	0.026
Mof_H 	H 	0.25988	0.11123	0.74868	0.057
Mof_H 	H 	0.374	0.18431	0.76053	0.05
Mof_H 	H 	0.44163	0.29279	0.75103	0.052
Mof_H 	H 	0.01774	0.44878	0.64336	0.096
Mof_H 	H 	0.49935	0.64659	0.43037	0.08
Mof_Ga	Ga	0.77157	0.27153	0.04321	8.687
Mof_Ga	Ga	0.22852	0.72849	0.95682	8.705
Mof_Ga	Ga	0.02168	0.47841	-0	8.442
Mof_Ga	Ga	0.47831	0.02149	0.99999	8.673
Mof_Ga	Ga	0.97833	0.97838	0.45679	8.529
Mof_Ga	Ga	0.52157	0.52158	0.54321	8.707
Mof_Ga	Ga	0.7284	0.77165	0.49999	8.69
Mof_Ga	Ga	0.27155	0.22836	0.5	8.701
Mof_Zn	Zn	0.83697	0.66294	4e-05	1.304
Mof_Zn	Zn	0.66326	0.83722	0.0001	1.301
Mof_Zn	Zn	0.41293	0.91284	0.32602	1.301
Mof_Zn	Zn	0.5872	0.08712	0.67401	1.302
Mof_Zn	Zn	0.91306	0.58709	0.49994	1.304
Mof_Zn	Zn	0.08681	0.41284	0.49992	1.302
Mof_Zn	Zn	0.33705	0.33711	0.17397	1.301
Mof_Zn	Zn	0.16278	0.16287	0.82599	1.303
Mof_F 	F 	0.62504	0.13705	0.01202	-2.976
Mof_F 	F 	0.12506	0.61298	0.98796	-2.945
Mof_F 	F 	0.88698	0.37492	0.01203	-2.929
Mof_F 	F 	0.36302	0.87502	0.98797	-2.976
Mof_F 	F 	0.12496	0.11294	0.48794	-2.944
Mof_F 	F 	0.62495	0.63707	0.51202	-2.979
Mof_F 	F 	0.86294	0.87495	0.48799	-2.956
Mof_F 	F 	0.38699	0.37499	0.512	-2.979
_end
