data_functionalizedCrystal
_audit_creation_method	'EQeq! by Chris Wilmer'
_symmetry_space_group_name_H-M	'P1'
_symmetry_Int_Tables_number	1
_symmetry_cell_setting	triclinic
loop_
_symmetry_equiv_pos_as_xyz
  x,y,z
_cell_length_a	8.995
_cell_length_b	8.995
_cell_length_c	8.995
_cell_angle_alpha	60
_cell_angle_beta	60
_cell_angle_gamma	60
loop_
_atom_site_label
_atom_site_type_symbol
_atom_site_fract_x
_atom_site_fract_y
_atom_site_fract_z
_atom_site_charge
Mof_Cd	Cd	0.125	0.625	0.625	0.292
Mof_Cd	Cd	0.875	0.375	0.375	0.292
Mof_C 	C 	0.02654	0.92038	0.52654	-0.073
Mof_C 	C 	0.42038	0.52654	0.52654	-0.073
Mof_C 	C 	0.02654	0.52654	0.52654	-0.073
Mof_C 	C 	0.02654	0.52654	0.92038	-0.073
Mof_C 	C 	0.57962	0.47346	0.47346	-0.073
Mof_C 	C 	0.97346	0.07962	0.47346	-0.073
Mof_C 	C 	0.97346	0.47346	0.47346	-0.073
Mof_C 	C 	0.97346	0.47346	0.07962	-0.073
_end
