data_functionalizedCrystal
_audit_creation_method	'EQeq! by Chris Wilmer'
_symmetry_space_group_name_H-M	'P1'
_symmetry_Int_Tables_number	1
_symmetry_cell_setting	triclinic
loop_
_symmetry_equiv_pos_as_xyz
  x,y,z
_cell_length_a	18.7958
_cell_length_b	8.2622
_cell_length_c	18.855
_cell_angle_alpha	90
_cell_angle_beta	90
_cell_angle_gamma	90
loop_
_atom_site_label
_atom_site_type_symbol
_atom_site_fract_x
_atom_site_fract_y
_atom_site_fract_z
_atom_site_charge
Mof_Ni	Ni	0.06364	0.98636	0.24743	1.115
Mof_P 	P 	0.97321	0.7984	0.36017	0.446
Mof_P 	P 	0.9589	0.1629	0.34609	0.44
Mof_O 	O 	0.94	0.6399	0.338	-0.344
Mof_O 	O 	0.9641	0.8154	0.4408	-0.342
Mof_O 	O 	0.0498	0.8262	0.336	-0.405
Mof_O 	O 	0.9118	0.2985	0.3197	-0.357
Mof_O 	O 	0.0345	0.1694	0.3155	-0.449
Mof_O 	O 	0.959	0.1597	0.4267	-0.355
Mof_O 	O 	0.94958	0.954	0.24127	-0.416
Mof_H 	H 	0.9393	0.8627	0.2232	0.247
Mof_N 	N 	0.6712	0.0386	0.23347	-0.228
Mof_C 	C 	0.92517	0.9631	0.31462	-0.011
Mof_C 	C 	0.84451	0.9404	0.32209	-0.064
Mof_H 	H 	0.8421	0.0352	0.3514	0.039
Mof_H 	H 	0.8257	0.8764	0.3603	0.06
Mof_C 	C 	0.79429	0.0189	0.26917	-0.029
Mof_C 	C 	0.81403	0.1187	0.21329	-0.033
Mof_H 	H 	0.863	0.1471	0.2059	0.067
Mof_C 	C 	0.76085	0.1769	0.1679	-0.07
Mof_H 	H 	0.7734	0.2448	0.1285	0.046
Mof_C 	C 	0.69032	0.137	0.17971	0.031
Mof_H 	H 	0.6543	0.1803	0.149	0.008
Mof_C 	C 	0.72272	0.9819	0.2766	0.07
Mof_H 	H 	0.709	0.9117	0.3148	0.023
Mof_Ni	Ni	0.43636	0.01364	0.74743	1.104
Mof_P 	P 	0.52679	0.2016	0.86017	0.394
Mof_P 	P 	0.5411	0.8371	0.84609	0.412
Mof_O 	O 	0.56	0.3601	0.838	-0.339
Mof_O 	O 	0.5359	0.1846	0.9408	-0.337
Mof_O 	O 	0.4502	0.1738	0.836	-0.364
Mof_O 	O 	0.5882	0.7015	0.8197	-0.356
Mof_O 	O 	0.4655	0.8306	0.8155	-0.387
Mof_O 	O 	0.541	0.8403	0.9267	-0.325
Mof_O 	O 	0.55042	0.046	0.74127	-0.476
Mof_H 	H 	0.5607	0.1373	0.7232	0.259
Mof_N 	N 	0.8288	0.9614	0.73347	-0.152
Mof_C 	C 	0.57483	0.0369	0.81462	0.014
Mof_C 	C 	0.65549	0.0596	0.82209	-0.313
Mof_H 	H 	0.6579	0.9648	0.8514	0.144
Mof_H 	H 	0.6743	0.1236	0.8603	0.128
Mof_C 	C 	0.70571	0.9811	0.76917	0.2
Mof_C 	C 	0.68597	0.8813	0.71329	-0.153
Mof_H 	H 	0.637	0.8529	0.7059	0.12
Mof_C 	C 	0.73915	0.8231	0.6679	0.022
Mof_H 	H 	0.7266	0.7552	0.6285	0.034
Mof_C 	C 	0.80968	0.863	0.67971	-0.006
Mof_H 	H 	0.8457	0.8197	0.649	0.04
Mof_C 	C 	0.77728	0.0181	0.7766	-0.138
Mof_H 	H 	0.791	0.0883	0.8148	0.081
Mof_Ni	Ni	0.93636	0.48636	0.25257	1.125
Mof_P 	P 	0.02679	0.2984	0.13983	0.356
Mof_P 	P 	0.0411	0.6629	0.15391	0.364
Mof_O 	O 	0.06	0.1399	0.162	-0.374
Mof_O 	O 	0.0359	0.3154	0.0592	-0.415
Mof_O 	O 	0.9502	0.3262	0.164	-0.335
Mof_O 	O 	0.0882	0.7985	0.1803	-0.362
Mof_O 	O 	0.9655	0.6694	0.1845	-0.361
Mof_O 	O 	0.041	0.6597	0.0733	-0.405
Mof_O 	O 	0.05042	0.454	0.25873	-0.481
Mof_H 	H 	0.0607	0.3627	0.2768	0.255
Mof_N 	N 	0.3288	0.5386	0.26653	-0.194
Mof_C 	C 	0.07483	0.4631	0.18538	-0
Mof_C 	C 	0.15549	0.4404	0.17791	-0.169
Mof_H 	H 	0.1579	0.5352	0.1486	0.079
Mof_H 	H 	0.1743	0.3764	0.1397	0.075
Mof_C 	C 	0.20571	0.5189	0.23083	0.071
Mof_C 	C 	0.18597	0.6187	0.28671	-0.082
Mof_H 	H 	0.137	0.6471	0.2941	0.088
Mof_C 	C 	0.23915	0.6769	0.3321	-0.03
Mof_H 	H 	0.2266	0.7448	0.3715	0.049
Mof_C 	C 	0.30968	0.637	0.32029	0.017
Mof_H 	H 	0.3457	0.6803	0.351	0.027
Mof_C 	C 	0.27728	0.4819	0.2234	-0.025
Mof_H 	H 	0.291	0.4117	0.1852	0.041
Mof_Ni	Ni	0.56364	0.51364	0.75257	1.116
Mof_P 	P 	0.47321	0.7016	0.63983	0.399
Mof_P 	P 	0.4589	0.3371	0.65391	0.406
Mof_O 	O 	0.44	0.8601	0.662	-0.336
Mof_O 	O 	0.4641	0.6846	0.5592	-0.369
Mof_O 	O 	0.5498	0.6738	0.664	-0.366
Mof_O 	O 	0.4118	0.2015	0.6803	-0.367
Mof_O 	O 	0.5345	0.3306	0.6845	-0.403
Mof_O 	O 	0.459	0.3403	0.5733	-0.375
Mof_O 	O 	0.44958	0.546	0.75873	-0.455
Mof_H 	H 	0.4393	0.6373	0.7768	0.256
Mof_N 	N 	0.1712	0.4614	0.76653	-0.192
Mof_C 	C 	0.42517	0.5369	0.68538	-0.001
Mof_C 	C 	0.34451	0.5596	0.67791	-0.174
Mof_H 	H 	0.3421	0.4648	0.6486	0.083
Mof_H 	H 	0.3257	0.6236	0.6397	0.086
Mof_C 	C 	0.29429	0.4811	0.73083	0.075
Mof_C 	C 	0.31403	0.3813	0.78671	-0.083
Mof_H 	H 	0.363	0.3529	0.7941	0.093
Mof_C 	C 	0.26085	0.3231	0.8321	-0.027
Mof_H 	H 	0.2734	0.2552	0.8715	0.055
Mof_C 	C 	0.19032	0.363	0.82029	0.02
Mof_H 	H 	0.1543	0.3197	0.851	0.03
Mof_C 	C 	0.22272	0.5181	0.7234	-0.026
Mof_H 	H 	0.209	0.5883	0.6852	0.046
Mof_Ni	Ni	0.93636	0.01364	0.75257	1.113
Mof_P 	P 	0.02679	0.2016	0.63983	0.353
Mof_P 	P 	0.0411	0.8371	0.65391	0.37
Mof_O 	O 	0.06	0.3601	0.662	-0.354
Mof_O 	O 	0.0359	0.1846	0.5592	-0.39
Mof_O 	O 	0.9502	0.1738	0.664	-0.332
Mof_O 	O 	0.0882	0.7015	0.6803	-0.364
Mof_O 	O 	0.9655	0.8306	0.6845	-0.351
Mof_O 	O 	0.041	0.8403	0.5733	-0.376
Mof_O 	O 	0.05042	0.046	0.75873	-0.497
Mof_H 	H 	0.0607	0.1373	0.7768	0.261
Mof_N 	N 	0.3288	0.9614	0.76653	-0.155
Mof_C 	C 	0.07483	0.0369	0.68538	0.012
Mof_C 	C 	0.15549	0.0596	0.67791	-0.293
Mof_H 	H 	0.1579	0.9648	0.6486	0.132
Mof_H 	H 	0.1743	0.1236	0.6397	0.113
Mof_C 	C 	0.20571	0.9811	0.73083	0.185
Mof_C 	C 	0.18597	0.8813	0.78671	-0.141
Mof_H 	H 	0.137	0.8529	0.7941	0.116
Mof_C 	C 	0.23915	0.8231	0.8321	0.016
Mof_H 	H 	0.2266	0.7552	0.8715	0.047
Mof_C 	C 	0.30968	0.863	0.82029	0.001
Mof_H 	H 	0.3457	0.8197	0.851	0.045
Mof_C 	C 	0.27728	0.0181	0.7234	-0.128
Mof_H 	H 	0.291	0.0883	0.6852	0.073
Mof_Ni	Ni	0.56364	0.98636	0.25257	1.127
Mof_P 	P 	0.47321	0.7984	0.13983	0.403
Mof_P 	P 	0.4589	0.1629	0.15391	0.4
Mof_O 	O 	0.44	0.6399	0.162	-0.357
Mof_O 	O 	0.4641	0.8154	0.0592	-0.391
Mof_O 	O 	0.5498	0.8262	0.164	-0.369
Mof_O 	O 	0.4118	0.2985	0.1803	-0.365
Mof_O 	O 	0.5345	0.1694	0.1845	-0.413
Mof_O 	O 	0.459	0.1597	0.0733	-0.4
Mof_O 	O 	0.44958	0.954	0.25873	-0.439
Mof_H 	H 	0.4393	0.8627	0.2768	0.249
Mof_N 	N 	0.1712	0.0386	0.26653	-0.227
Mof_C 	C 	0.42517	0.9631	0.18538	-0.011
Mof_C 	C 	0.34451	0.9404	0.17791	-0.059
Mof_H 	H 	0.3421	0.0352	0.1486	0.034
Mof_H 	H 	0.3257	0.8764	0.1397	0.05
Mof_C 	C 	0.29429	0.0189	0.23083	-0.03
Mof_C 	C 	0.31403	0.1187	0.28671	-0.029
Mof_H 	H 	0.363	0.1471	0.2941	0.066
Mof_C 	C 	0.26085	0.1769	0.3321	-0.07
Mof_H 	H 	0.2734	0.2448	0.3715	0.056
Mof_C 	C 	0.19032	0.137	0.32029	0.035
Mof_H 	H 	0.1543	0.1803	0.351	0.013
Mof_C 	C 	0.22272	0.9819	0.2234	0.068
Mof_H 	H 	0.209	0.9117	0.1852	0.017
Mof_Ni	Ni	0.06364	0.51364	0.74743	1.106
Mof_P 	P 	0.97321	0.7016	0.86017	0.441
Mof_P 	P 	0.9589	0.3371	0.84609	0.445
Mof_O 	O 	0.94	0.8601	0.838	-0.32
Mof_O 	O 	0.9641	0.6846	0.9408	-0.306
Mof_O 	O 	0.0498	0.6738	0.836	-0.397
Mof_O 	O 	0.9118	0.2015	0.8197	-0.359
Mof_O 	O 	0.0345	0.3306	0.8155	-0.438
Mof_O 	O 	0.959	0.3403	0.9267	-0.317
Mof_O 	O 	0.94958	0.546	0.74127	-0.433
Mof_H 	H 	0.9393	0.6373	0.7232	0.254
Mof_N 	N 	0.6712	0.4614	0.73347	-0.191
Mof_C 	C 	0.92517	0.5369	0.81462	0.002
Mof_C 	C 	0.84451	0.5596	0.82209	-0.188
Mof_H 	H 	0.8421	0.4648	0.8514	0.092
Mof_H 	H 	0.8257	0.6236	0.8603	0.099
Mof_C 	C 	0.79429	0.4811	0.76917	0.084
Mof_C 	C 	0.81403	0.3813	0.71329	-0.092
Mof_H 	H 	0.863	0.3529	0.7059	0.095
Mof_C 	C 	0.76085	0.3231	0.6679	-0.025
Mof_H 	H 	0.7734	0.2552	0.6285	0.043
Mof_C 	C 	0.69032	0.363	0.67971	0.014
Mof_H 	H 	0.6543	0.3197	0.649	0.024
Mof_C 	C 	0.72272	0.5181	0.7766	-0.03
Mof_H 	H 	0.709	0.5883	0.8148	0.053
Mof_Ni	Ni	0.43636	0.48636	0.24743	1.115
Mof_P 	P 	0.52679	0.2984	0.36017	0.399
Mof_P 	P 	0.5411	0.6629	0.34609	0.406
Mof_O 	O 	0.56	0.1399	0.338	-0.36
Mof_O 	O 	0.5359	0.3154	0.4408	-0.376
Mof_O 	O 	0.4502	0.3262	0.336	-0.37
Mof_O 	O 	0.5882	0.7985	0.3197	-0.354
Mof_O 	O 	0.4655	0.6694	0.3155	-0.4
Mof_O 	O 	0.541	0.6597	0.4267	-0.368
Mof_O 	O 	0.55042	0.454	0.24127	-0.458
Mof_H 	H 	0.5607	0.3627	0.2232	0.252
Mof_N 	N 	0.8288	0.5386	0.23347	-0.193
Mof_C 	C 	0.57483	0.4631	0.31462	-0
Mof_C 	C 	0.65549	0.4404	0.32209	-0.18
Mof_H 	H 	0.6579	0.5352	0.3514	0.087
Mof_H 	H 	0.6743	0.3764	0.3603	0.086
Mof_C 	C 	0.70571	0.5189	0.26917	0.078
Mof_C 	C 	0.68597	0.6187	0.21329	-0.09
Mof_H 	H 	0.637	0.6471	0.2059	0.09
Mof_C 	C 	0.73915	0.6769	0.1679	-0.027
Mof_H 	H 	0.7266	0.7448	0.1285	0.038
Mof_C 	C 	0.80968	0.637	0.17971	0.012
Mof_H 	H 	0.8457	0.6803	0.149	0.023
Mof_C 	C 	0.77728	0.4819	0.2766	-0.029
Mof_H 	H 	0.791	0.4117	0.3148	0.048
Mof_Ni	Ni	1.8806e-33	0	0.5	1.051
Mof_Ni	Ni	0.5	0	-0	1.039
Mof_Ni	Ni	-0	0.5	-0	1.025
Mof_Ni	Ni	0.5	0.5	0.5	1.086
_end
