data_functionalizedCrystal
_audit_creation_method	'EQeq! by Chris Wilmer'
_symmetry_space_group_name_H-M	'P1'
_symmetry_Int_Tables_number	1
_symmetry_cell_setting	triclinic
loop_
_symmetry_equiv_pos_as_xyz
  x,y,z
_cell_length_a	13.939
_cell_length_b	8.334
_cell_length_c	12.856
_cell_angle_alpha	90
_cell_angle_beta	90
_cell_angle_gamma	90
loop_
_atom_site_label
_atom_site_type_symbol
_atom_site_fract_x
_atom_site_fract_y
_atom_site_fract_z
_atom_site_charge
Mof_C 	C 	0.23649	0.88237	0.1662	0.007
Mof_H 	H 	0.194	0.9332	0.1212	0.011
Mof_C 	C 	0.33424	0.91393	0.15736	-0.004
Mof_H 	H 	0.3557	0.9856	0.107	0.008
Mof_C 	C 	0.36326	0.74186	0.29245	-0.042
Mof_H 	H 	0.4057	0.691	0.3374	0.02
Mof_C 	C 	0.26513	0.71148	0.30182	0.087
Mof_N 	N 	0.20209	0.78094	0.23759	-0.167
Mof_N 	N 	0.39777	0.84251	0.2203	-0.164
Mof_C 	C 	0.22685	0.60564	0.38702	-0.201
Mof_H 	H 	0.1943	0.6725	0.4377	0.074
Mof_H 	H 	0.2806	0.5547	0.4218	0.085
Mof_C 	C 	0.22649	0.30813	0.28183	-0.233
Mof_H 	H 	0.19	0.2278	0.2442	0.081
Mof_H 	H 	0.2673	0.364	0.2326	0.084
Mof_C 	C 	0.287	0.22858	0.36334	0.167
Mof_C 	C 	0.38034	0.28022	0.38258	-0.217
Mof_H 	H 	0.4094	0.3549	0.339	0.088
Mof_C 	C 	0.42954	0.21843	0.46807	0.103
Mof_H 	H 	0.4914	0.255	0.481	-0.026
Mof_C 	C 	0.30417	0.05187	0.50966	0.109
Mof_H 	H 	0.279	0.9706	0.5511	-0.03
Mof_C 	C 	0.24934	0.10842	0.4273	-0.209
Mof_H 	H 	0.1885	0.067	0.4149	0.095
Mof_N 	N 	0.39187	0.10906	0.53232	-0.207
Mof_S 	S 	0.1445	0.45084	0.34383	-0.073
Mof_Ag	Ag	0.05638	0.60369	0.20247	0.548
Mof_C 	C 	0.76351	0.11763	0.6662	0.007
Mof_H 	H 	0.806	0.0668	0.6212	0.011
Mof_C 	C 	0.66576	0.08607	0.65736	-0.004
Mof_H 	H 	0.6443	0.0144	0.607	0.009
Mof_C 	C 	0.63674	0.25814	0.79245	-0.043
Mof_H 	H 	0.5943	0.309	0.8374	0.021
Mof_C 	C 	0.73487	0.28852	0.80182	0.088
Mof_N 	N 	0.79791	0.21906	0.73759	-0.167
Mof_N 	N 	0.60223	0.15749	0.7203	-0.164
Mof_C 	C 	0.77315	0.39436	0.88702	-0.202
Mof_H 	H 	0.8057	0.3275	0.9377	0.075
Mof_H 	H 	0.7194	0.4453	0.9218	0.086
Mof_C 	C 	0.77351	0.69187	0.78183	-0.232
Mof_H 	H 	0.81	0.7722	0.7442	0.081
Mof_H 	H 	0.7327	0.636	0.7326	0.085
Mof_C 	C 	0.713	0.77142	0.86334	0.164
Mof_C 	C 	0.61966	0.71978	0.88258	-0.217
Mof_H 	H 	0.5906	0.6451	0.839	0.089
Mof_C 	C 	0.57046	0.78157	0.96807	0.109
Mof_H 	H 	0.5086	0.745	0.981	-0.027
Mof_C 	C 	0.69583	0.94813	0.00966	0.098
Mof_H 	H 	0.721	0.0294	0.0511	-0.027
Mof_C 	C 	0.75066	0.89158	0.9273	-0.197
Mof_H 	H 	0.8115	0.933	0.9149	0.092
Mof_N 	N 	0.60813	0.89094	0.03232	-0.209
Mof_S 	S 	0.8555	0.54916	0.84383	-0.072
Mof_Ag	Ag	0.94362	0.39631	0.70247	0.551
Mof_C 	C 	0.73649	0.61763	0.1662	0.007
Mof_H 	H 	0.694	0.5668	0.1212	0.01
Mof_C 	C 	0.83424	0.58607	0.15736	-0.005
Mof_H 	H 	0.8557	0.5144	0.107	0.008
Mof_C 	C 	0.86326	0.75814	0.29245	-0.043
Mof_H 	H 	0.9057	0.809	0.3374	0.02
Mof_C 	C 	0.76513	0.78852	0.30182	0.087
Mof_N 	N 	0.70209	0.71906	0.23759	-0.167
Mof_N 	N 	0.89777	0.65749	0.2203	-0.164
Mof_C 	C 	0.72685	0.89436	0.38702	-0.201
Mof_H 	H 	0.6943	0.8275	0.4377	0.074
Mof_H 	H 	0.7806	0.9453	0.4218	0.085
Mof_C 	C 	0.72649	0.19187	0.28183	-0.233
Mof_H 	H 	0.69	0.2722	0.2442	0.081
Mof_H 	H 	0.7673	0.136	0.2326	0.084
Mof_C 	C 	0.787	0.27142	0.36334	0.167
Mof_C 	C 	0.88034	0.21978	0.38258	-0.217
Mof_H 	H 	0.9094	0.1451	0.339	0.089
Mof_C 	C 	0.92954	0.28157	0.46807	0.103
Mof_H 	H 	0.9914	0.245	0.481	-0.026
Mof_C 	C 	0.80417	0.44813	0.50966	0.111
Mof_H 	H 	0.779	0.5294	0.5511	-0.031
Mof_C 	C 	0.74934	0.39158	0.4273	-0.21
Mof_H 	H 	0.6885	0.433	0.4149	0.095
Mof_N 	N 	0.89187	0.39094	0.53232	-0.207
Mof_S 	S 	0.6445	0.04916	0.34383	-0.073
Mof_Ag	Ag	0.55638	0.89631	0.20247	0.549
Mof_C 	C 	0.26351	0.38237	0.6662	0.007
Mof_H 	H 	0.306	0.4332	0.6212	0.012
Mof_C 	C 	0.16576	0.41393	0.65736	-0.004
Mof_H 	H 	0.1443	0.4856	0.607	0.009
Mof_C 	C 	0.13674	0.24186	0.79245	-0.043
Mof_H 	H 	0.0943	0.191	0.8374	0.021
Mof_C 	C 	0.23487	0.21148	0.80182	0.088
Mof_N 	N 	0.29791	0.28094	0.73759	-0.167
Mof_N 	N 	0.10223	0.34251	0.7203	-0.164
Mof_C 	C 	0.27315	0.10564	0.88702	-0.204
Mof_H 	H 	0.3057	0.1725	0.9377	0.076
Mof_H 	H 	0.2194	0.0547	0.9218	0.087
Mof_C 	C 	0.27351	0.80813	0.78183	-0.232
Mof_H 	H 	0.31	0.7278	0.7442	0.081
Mof_H 	H 	0.2327	0.864	0.7326	0.085
Mof_C 	C 	0.213	0.72858	0.86334	0.165
Mof_C 	C 	0.11966	0.78022	0.88258	-0.217
Mof_H 	H 	0.0906	0.8549	0.839	0.089
Mof_C 	C 	0.07046	0.71843	0.96807	0.11
Mof_H 	H 	0.0086	0.755	0.981	-0.026
Mof_C 	C 	0.19583	0.55187	0.00966	0.098
Mof_H 	H 	0.221	0.4706	0.0511	-0.028
Mof_C 	C 	0.25066	0.60842	0.9273	-0.197
Mof_H 	H 	0.3115	0.567	0.9149	0.092
Mof_N 	N 	0.10813	0.60906	0.03232	-0.21
Mof_S 	S 	0.3555	0.95084	0.84383	-0.07
Mof_Ag	Ag	0.44362	0.10369	0.70247	0.55
_end
