data_functionalizedCrystal
_audit_creation_method	'EQeq! by Chris Wilmer'
_symmetry_space_group_name_H-M	'P1'
_symmetry_Int_Tables_number	1
_symmetry_cell_setting	triclinic
loop_
_symmetry_equiv_pos_as_xyz
  x,y,z
_cell_length_a	12.2813
_cell_length_b	27.3205
_cell_length_c	16.465
_cell_angle_alpha	90
_cell_angle_beta	102.863
_cell_angle_gamma	90
loop_
_atom_site_label
_atom_site_type_symbol
_atom_site_fract_x
_atom_site_fract_y
_atom_site_fract_z
_atom_site_charge
Mof_Zn	Zn	0.05712	0.55143	0.00272	1.177
Mof_Zn	Zn	0.23132	0.46497	0.01287	1.22
Mof_C 	C 	0.2728	0.55537	0.9348	0.435
Mof_C 	C 	0.3341	0.58394	0.881	-0.216
Mof_C 	C 	0.44	0.56984	0.8737	0.172
Mof_H 	H 	0.4752	0.5425	0.9044	-0.006
Mof_C 	C 	0.4947	0.59529	0.8217	-0.287
Mof_H 	H 	0.5672	0.5857	0.8167	0.149
Mof_C 	C 	0.4419	0.63484	0.7776	0.306
Mof_C 	C 	0.3382	0.6504	0.7856	-0.287
Mof_H 	H 	0.3041	0.6781	0.7556	0.136
Mof_C 	C 	0.2841	0.6249	0.8379	0.165
Mof_H 	H 	0.2128	0.6355	0.8444	-0.02
Mof_C 	C 	0.2305	0.51046	0.1627	0.423
Mof_C 	C 	0.2616	0.51853	0.2552	-0.221
Mof_C 	C 	0.3547	0.4955	0.3049	0.172
Mof_H 	H 	0.3983	0.4735	0.2806	-0.012
Mof_C 	C 	0.3833	0.505	0.3897	-0.294
Mof_H 	H 	0.4466	0.4896	0.4238	0.148
Mof_C 	C 	0.3193	0.5366	0.4239	0.315
Mof_C 	C 	0.2274	0.5588	0.3772	-0.294
Mof_H 	H 	0.1835	0.5801	0.4025	0.14
Mof_C 	C 	0.1986	0.5501	0.292	0.17
Mof_H 	H 	0.1351	0.5658	0.2588	-0.015
Mof_C 	C 	0.7573	0.8662	0.5365	0.365
Mof_C 	C 	0.7087	0.81572	0.5165	-0.186
Mof_C 	C 	0.5998	0.8099	0.4713	0.148
Mof_H 	H 	0.5549	0.8378	0.4529	0.004
Mof_C 	C 	0.5566	0.7633	0.4529	-0.27
Mof_H 	H 	0.4815	0.7592	0.4231	0.136
Mof_C 	C 	0.6223	0.7236	0.4779	0.298
Mof_C 	C 	0.732	0.7287	0.522	-0.268
Mof_H 	H 	0.7776	0.7007	0.5377	0.13
Mof_C 	C 	0.7741	0.7753	0.5427	0.142
Mof_H 	H 	0.8479	0.7793	0.575	-0.008
Mof_C 	C 	0.4833	0.64285	0.6447	0.41
Mof_C 	C 	0.4207	0.60183	0.6164	-0.438
Mof_H 	H 	0.3844	0.5838	0.6521	0.195
Mof_C 	C 	0.4122	0.58762	0.534	0.403
Mof_C 	C 	0.465	0.61297	0.4811	-0.435
Mof_H 	H 	0.4589	0.6028	0.4251	0.197
Mof_C 	C 	0.5276	0.65396	0.5129	0.41
Mof_C 	C 	0.537	0.66985	0.5935	-0.441
Mof_H 	H 	0.5788	0.6983	0.6135	0.198
Mof_O 	O 	0.187	0.57485	0.9502	-0.503
Mof_O 	O 	0.3127	0.51418	0.9596	-0.473
Mof_O 	O 	0.4961	0.6607	0.7246	-0.335
Mof_O 	O 	0.1549	0.53653	0.1219	-0.513
Mof_O 	O 	0.2842	0.47794	0.1334	-0.494
Mof_O 	O 	0.3491	0.54615	0.5101	-0.337
Mof_O 	O 	0.8454	0.87044	0.5897	-0.325
Mof_O 	O 	0.7029	0.90107	0.4951	-0.464
Mof_O 	O 	0.5796	0.67666	0.457	-0.33
Mof_O 	O 	0.0773	0.4794	0.96065	-0.689
Mof_Zn	Zn	0.94288	0.05143	0.49728	1.178
Mof_Zn	Zn	0.76868	0.96497	0.48713	1.22
Mof_C 	C 	0.7272	0.05537	0.5652	0.434
Mof_C 	C 	0.6659	0.08394	0.619	-0.218
Mof_C 	C 	0.56	0.06984	0.6263	0.173
Mof_H 	H 	0.5248	0.0425	0.5956	-0.006
Mof_C 	C 	0.5053	0.09529	0.6783	-0.288
Mof_H 	H 	0.4328	0.0857	0.6833	0.149
Mof_C 	C 	0.5581	0.13484	0.7224	0.306
Mof_C 	C 	0.6618	0.1504	0.7144	-0.287
Mof_H 	H 	0.6959	0.1781	0.7444	0.135
Mof_C 	C 	0.7159	0.1249	0.6621	0.165
Mof_H 	H 	0.7872	0.1355	0.6556	-0.021
Mof_C 	C 	0.7695	0.01046	0.3373	0.422
Mof_C 	C 	0.7384	0.01853	0.2448	-0.219
Mof_C 	C 	0.6453	0.9955	0.1951	0.17
Mof_H 	H 	0.6017	0.9735	0.2194	-0.012
Mof_C 	C 	0.6167	0.005	0.1103	-0.293
Mof_H 	H 	0.5534	0.9896	0.0762	0.148
Mof_C 	C 	0.6807	0.0366	0.0761	0.317
Mof_C 	C 	0.7726	0.0588	0.1228	-0.294
Mof_H 	H 	0.8165	0.0801	0.0975	0.142
Mof_C 	C 	0.8014	0.0501	0.208	0.17
Mof_H 	H 	0.8649	0.0658	0.2412	-0.014
Mof_C 	C 	0.2427	0.3662	0.9635	0.367
Mof_C 	C 	0.2913	0.31572	0.9835	-0.182
Mof_C 	C 	0.4002	0.3099	0.0287	0.143
Mof_H 	H 	0.4451	0.3378	0.0471	0.005
Mof_C 	C 	0.4434	0.2633	0.0471	-0.266
Mof_H 	H 	0.5185	0.2592	0.0769	0.135
Mof_C 	C 	0.3777	0.2236	0.0221	0.293
Mof_C 	C 	0.268	0.2287	0.978	-0.263
Mof_H 	H 	0.2224	0.2007	0.9623	0.13
Mof_C 	C 	0.2259	0.2753	0.9573	0.139
Mof_H 	H 	0.1521	0.2793	0.925	-0.006
Mof_C 	C 	0.5167	0.14285	0.8553	0.408
Mof_C 	C 	0.5793	0.10183	0.8836	-0.436
Mof_H 	H 	0.6156	0.0838	0.8479	0.194
Mof_C 	C 	0.5878	0.08762	0.966	0.4
Mof_C 	C 	0.535	0.11297	0.0189	-0.431
Mof_H 	H 	0.5411	0.1028	0.0749	0.196
Mof_C 	C 	0.4724	0.15396	0.9871	0.407
Mof_C 	C 	0.463	0.16985	0.9065	-0.439
Mof_H 	H 	0.4212	0.1983	0.8865	0.197
Mof_O 	O 	0.813	0.07485	0.5498	-0.505
Mof_O 	O 	0.6873	0.01418	0.5404	-0.475
Mof_O 	O 	0.5039	0.1607	0.7754	-0.334
Mof_O 	O 	0.8451	0.03653	0.3781	-0.511
Mof_O 	O 	0.7158	0.97794	0.3666	-0.493
Mof_O 	O 	0.6509	0.04615	0.9899	-0.339
Mof_O 	O 	0.1546	0.37044	0.9103	-0.324
Mof_O 	O 	0.2971	0.40107	0.0049	-0.467
Mof_O 	O 	0.4204	0.17666	0.043	-0.329
Mof_O 	O 	0.9227	0.9794	0.53935	-0.692
Mof_Zn	Zn	0.94288	0.44857	0.99728	1.176
Mof_Zn	Zn	0.76868	0.53503	0.98713	1.219
Mof_C 	C 	0.7272	0.44463	0.0652	0.434
Mof_C 	C 	0.6659	0.41606	0.119	-0.217
Mof_C 	C 	0.56	0.43016	0.1263	0.172
Mof_H 	H 	0.5248	0.4575	0.0956	-0.006
Mof_C 	C 	0.5053	0.40471	0.1783	-0.287
Mof_H 	H 	0.4328	0.4143	0.1833	0.149
Mof_C 	C 	0.5581	0.36516	0.2224	0.306
Mof_C 	C 	0.6618	0.3496	0.2144	-0.287
Mof_H 	H 	0.6959	0.3219	0.2444	0.136
Mof_C 	C 	0.7159	0.3751	0.1621	0.165
Mof_H 	H 	0.7872	0.3645	0.1556	-0.02
Mof_C 	C 	0.7695	0.48954	0.8373	0.423
Mof_C 	C 	0.7384	0.48147	0.7448	-0.221
Mof_C 	C 	0.6453	0.5045	0.6951	0.172
Mof_H 	H 	0.6017	0.5265	0.7194	-0.012
Mof_C 	C 	0.6167	0.495	0.6103	-0.294
Mof_H 	H 	0.5534	0.5104	0.5762	0.148
Mof_C 	C 	0.6807	0.4634	0.5761	0.315
Mof_C 	C 	0.7726	0.4412	0.6228	-0.294
Mof_H 	H 	0.8165	0.4199	0.5975	0.14
Mof_C 	C 	0.8014	0.4499	0.708	0.17
Mof_H 	H 	0.8649	0.4342	0.7412	-0.015
Mof_C 	C 	0.2427	0.1338	0.4635	0.365
Mof_C 	C 	0.2913	0.18428	0.4835	-0.186
Mof_C 	C 	0.4002	0.1901	0.5287	0.148
Mof_H 	H 	0.4451	0.1622	0.5471	0.004
Mof_C 	C 	0.4434	0.2367	0.5471	-0.27
Mof_H 	H 	0.5185	0.2408	0.5769	0.136
Mof_C 	C 	0.3777	0.2764	0.5221	0.298
Mof_C 	C 	0.268	0.2713	0.478	-0.268
Mof_H 	H 	0.2224	0.2993	0.4623	0.13
Mof_C 	C 	0.2259	0.2247	0.4573	0.142
Mof_H 	H 	0.1521	0.2207	0.425	-0.008
Mof_C 	C 	0.5167	0.35715	0.3553	0.41
Mof_C 	C 	0.5793	0.39817	0.3836	-0.438
Mof_H 	H 	0.6156	0.4162	0.3479	0.195
Mof_C 	C 	0.5878	0.41238	0.466	0.403
Mof_C 	C 	0.535	0.38703	0.5189	-0.435
Mof_H 	H 	0.5411	0.3972	0.5749	0.197
Mof_C 	C 	0.4724	0.34604	0.4871	0.41
Mof_C 	C 	0.463	0.33015	0.4065	-0.441
Mof_H 	H 	0.4212	0.3017	0.3865	0.198
Mof_O 	O 	0.813	0.42515	0.0498	-0.503
Mof_O 	O 	0.6873	0.48582	0.0404	-0.473
Mof_O 	O 	0.5039	0.3393	0.2754	-0.335
Mof_O 	O 	0.8451	0.46347	0.8781	-0.513
Mof_O 	O 	0.7158	0.52206	0.8666	-0.494
Mof_O 	O 	0.6509	0.45385	0.4899	-0.337
Mof_O 	O 	0.1546	0.12956	0.4103	-0.325
Mof_O 	O 	0.2971	0.09893	0.5049	-0.464
Mof_O 	O 	0.4204	0.32334	0.543	-0.33
Mof_O 	O 	0.9227	0.5206	0.03935	-0.689
Mof_Zn	Zn	0.05712	0.94857	0.50272	1.178
Mof_Zn	Zn	0.23132	0.03503	0.51287	1.22
Mof_C 	C 	0.2728	0.94463	0.4348	0.434
Mof_C 	C 	0.3341	0.91606	0.381	-0.218
Mof_C 	C 	0.44	0.93016	0.3737	0.173
Mof_H 	H 	0.4752	0.9575	0.4044	-0.006
Mof_C 	C 	0.4947	0.90471	0.3217	-0.288
Mof_H 	H 	0.5672	0.9143	0.3167	0.149
Mof_C 	C 	0.4419	0.86516	0.2776	0.306
Mof_C 	C 	0.3382	0.8496	0.2856	-0.287
Mof_H 	H 	0.3041	0.8219	0.2556	0.135
Mof_C 	C 	0.2841	0.8751	0.3379	0.165
Mof_H 	H 	0.2128	0.8645	0.3444	-0.021
Mof_C 	C 	0.2305	0.98954	0.6627	0.422
Mof_C 	C 	0.2616	0.98147	0.7552	-0.219
Mof_C 	C 	0.3547	0.0045	0.8049	0.17
Mof_H 	H 	0.3983	0.0265	0.7806	-0.012
Mof_C 	C 	0.3833	0.995	0.8897	-0.293
Mof_H 	H 	0.4466	0.0104	0.9238	0.148
Mof_C 	C 	0.3193	0.9634	0.9239	0.317
Mof_C 	C 	0.2274	0.9412	0.8772	-0.294
Mof_H 	H 	0.1835	0.9199	0.9025	0.142
Mof_C 	C 	0.1986	0.9499	0.792	0.17
Mof_H 	H 	0.1351	0.9342	0.7588	-0.014
Mof_C 	C 	0.7573	0.6338	0.0365	0.367
Mof_C 	C 	0.7087	0.68428	0.0165	-0.182
Mof_C 	C 	0.5998	0.6901	0.9713	0.143
Mof_H 	H 	0.5549	0.6622	0.9529	0.005
Mof_C 	C 	0.5566	0.7367	0.9529	-0.266
Mof_H 	H 	0.4815	0.7408	0.9231	0.135
Mof_C 	C 	0.6223	0.7764	0.9779	0.293
Mof_C 	C 	0.732	0.7713	0.022	-0.263
Mof_H 	H 	0.7776	0.7993	0.0377	0.13
Mof_C 	C 	0.7741	0.7247	0.0427	0.139
Mof_H 	H 	0.8479	0.7207	0.075	-0.006
Mof_C 	C 	0.4833	0.85715	0.1447	0.408
Mof_C 	C 	0.4207	0.89817	0.1164	-0.436
Mof_H 	H 	0.3844	0.9162	0.1521	0.194
Mof_C 	C 	0.4122	0.91238	0.034	0.4
Mof_C 	C 	0.465	0.88703	0.9811	-0.431
Mof_H 	H 	0.4589	0.8972	0.9251	0.196
Mof_C 	C 	0.5276	0.84604	0.0129	0.407
Mof_C 	C 	0.537	0.83015	0.0935	-0.439
Mof_H 	H 	0.5788	0.8017	0.1135	0.197
Mof_O 	O 	0.187	0.92515	0.4502	-0.505
Mof_O 	O 	0.3127	0.98582	0.4596	-0.475
Mof_O 	O 	0.4961	0.8393	0.2246	-0.334
Mof_O 	O 	0.1549	0.96347	0.6219	-0.511
Mof_O 	O 	0.2842	0.02206	0.6334	-0.493
Mof_O 	O 	0.3491	0.95385	0.0101	-0.339
Mof_O 	O 	0.8454	0.62956	0.0897	-0.324
Mof_O 	O 	0.7029	0.59893	0.9951	-0.467
Mof_O 	O 	0.5796	0.82334	0.957	-0.329
Mof_O 	O 	0.0773	0.0206	0.46065	-0.692
_end
