data_functionalizedCrystal
_audit_creation_method	'EQeq! by Chris Wilmer'
_symmetry_space_group_name_H-M	'P1'
_symmetry_Int_Tables_number	1
_symmetry_cell_setting	triclinic
loop_
_symmetry_equiv_pos_as_xyz
  x,y,z
_cell_length_a	16.7567
_cell_length_b	16.7567
_cell_length_c	13.1924
_cell_angle_alpha	103.601
_cell_angle_beta	103.601
_cell_angle_gamma	109.546
loop_
_atom_site_label
_atom_site_type_symbol
_atom_site_fract_x
_atom_site_fract_y
_atom_site_fract_z
_atom_site_charge
Mof_Ag	Ag	0.76728	0.10284	0.79648	0.508
Mof_Ag	Ag	0.49344	0.54674	0.88529	0.5
Mof_C 	C 	0.4099	0.0369	0.6251	-0.138
Mof_H 	H 	0.395	0.9818	0.6425	0.103
Mof_H 	H 	0.3732	0.0218	0.5488	0.081
Mof_C 	C 	0.5671	0.0541	0.6993	0.088
Mof_H 	H 	0.556	0.021	0.7459	0.013
Mof_C 	C 	0.5455	0.1191	0.578	-0.028
Mof_H 	H 	0.5195	0.1401	0.5258	0.064
Mof_C 	C 	0.6313	0.1297	0.6118	0.034
Mof_H 	H 	0.6751	0.1607	0.5862	0.005
Mof_C 	C 	0.2019	0.9199	0.5184	0.08
Mof_H 	H 	0.2227	0.8817	0.5465	0.003
Mof_C 	C 	0.1324	0.968	0.4133	0.007
Mof_H 	H 	0.094	0.9712	0.3522	0.001
Mof_C 	C 	0.1808	0.037	0.5112	-0.022
Mof_H 	H 	0.1829	0.0949	0.5283	0.033
Mof_C 	C 	0.2876	0.0532	0.6911	-0.135
Mof_H 	H 	0.2853	0.0103	0.7297	0.082
Mof_H 	H 	0.2675	0.0959	0.7281	0.079
Mof_C 	C 	0.3847	0.1037	0.7027	0.084
Mof_C 	C 	0.4	0.1842	0.6651	-0.131
Mof_H 	H 	0.4613	0.2057	0.6643	0.081
Mof_H 	H 	0.3605	0.1623	0.5886	0.077
Mof_C 	C 	0.3135	0.2707	0.7405	-0.004
Mof_H 	H 	0.2576	0.2232	0.7196	0.028
Mof_C 	C 	0.3349	0.3587	0.7919	-0.01
Mof_H 	H 	0.296	0.3824	0.813	0.026
Mof_C 	C 	0.4531	0.3477	0.767	0.082
Mof_H 	H 	0.5119	0.3617	0.7676	-0.018
Mof_C 	C 	0.3734	0.2428	0.024	0.014
Mof_H 	H 	0.3354	0.2486	0.064	0.015
Mof_C 	C 	0.3607	0.1679	0.9487	0.002
Mof_H 	H 	0.3133	0.1117	0.9268	0.03
Mof_C 	C 	0.485	0.2762	0.9632	0.097
Mof_H 	H 	0.5379	0.3073	0.9521	0.003
Mof_C 	C 	0.449	0.1294	0.8242	0.027
Mof_C 	C 	0.5252	0.2308	0.339	0.257
Mof_C 	C 	0.5544	0.2508	0.263	-0.105
Mof_C 	C 	0.5923	0.2107	0.209	0.017
Mof_C 	C 	0.6283	0.1389	0.2543	0.258
Mof_N 	N 	0.5042	0.0718	0.6343	-0.097
Mof_N 	N 	0.6462	0.0898	0.6878	-0.204
Mof_N 	N 	0.1475	0.8939	0.4166	-0.213
Mof_N 	N 	0.2253	0.0053	0.5787	-0.107
Mof_N 	N 	0.3881	0.2645	0.725	-0.111
Mof_N 	N 	0.424	0.4074	0.8076	-0.217
Mof_N 	N 	0.4506	0.31	0.0336	-0.192
Mof_N 	N 	0.4292	0.1884	0.9101	-0.119
Mof_O 	O 	0.5626	0.3098	0.4379	-0.225
Mof_O 	O 	0.4563	0.1717	0.3499	-0.231
Mof_O 	O 	0.6564	0.1632	0.3572	-0.245
Mof_O 	O 	0.5788	0.0632	0.176	-0.225
Mof_Ag	Ag	0.89716	0.23272	0.70352	0.507
Mof_Ag	Ag	0.45326	0.50656	0.61471	0.499
Mof_C 	C 	0.9631	0.5901	0.8749	-0.139
Mof_H 	H 	0.0182	0.605	0.8575	0.102
Mof_H 	H 	0.9782	0.6268	0.9512	0.081
Mof_C 	C 	0.9459	0.4329	0.8007	0.088
Mof_H 	H 	0.979	0.444	0.7541	0.013
Mof_C 	C 	0.8809	0.4545	0.922	-0.028
Mof_H 	H 	0.8599	0.4805	0.9742	0.063
Mof_C 	C 	0.8703	0.3687	0.8882	0.034
Mof_H 	H 	0.8393	0.3249	0.9138	0.005
Mof_C 	C 	0.0801	0.7981	0.9816	0.081
Mof_H 	H 	0.1183	0.7773	0.9535	0.003
Mof_C 	C 	0.032	0.8676	0.0867	0.006
Mof_H 	H 	0.0288	0.906	0.1478	0.002
Mof_C 	C 	0.963	0.8192	0.9888	-0.021
Mof_H 	H 	0.9051	0.8171	0.9717	0.033
Mof_C 	C 	0.9468	0.7124	0.8089	-0.134
Mof_H 	H 	0.9897	0.7147	0.7703	0.082
Mof_H 	H 	0.9041	0.7325	0.7719	0.079
Mof_C 	C 	0.8963	0.6153	0.7973	0.084
Mof_C 	C 	0.8158	0.6	0.8349	-0.131
Mof_H 	H 	0.7943	0.5387	0.8357	0.081
Mof_H 	H 	0.8377	0.6395	0.9114	0.077
Mof_C 	C 	0.7293	0.6865	0.7595	-0.004
Mof_H 	H 	0.7768	0.7424	0.7804	0.028
Mof_C 	C 	0.6413	0.6651	0.7081	-0.01
Mof_H 	H 	0.6176	0.704	0.687	0.026
Mof_C 	C 	0.6523	0.5469	0.733	0.082
Mof_H 	H 	0.6383	0.4881	0.7324	-0.018
Mof_C 	C 	0.7572	0.6266	0.476	0.013
Mof_H 	H 	0.7514	0.6646	0.436	0.016
Mof_C 	C 	0.8321	0.6393	0.5513	0.003
Mof_H 	H 	0.8883	0.6867	0.5732	0.03
Mof_C 	C 	0.7238	0.515	0.5368	0.098
Mof_H 	H 	0.6927	0.4621	0.5479	0.003
Mof_C 	C 	0.8706	0.551	0.6758	0.027
Mof_C 	C 	0.7692	0.4748	0.161	0.257
Mof_C 	C 	0.7492	0.4456	0.237	-0.105
Mof_C 	C 	0.7893	0.4077	0.291	0.017
Mof_C 	C 	0.8611	0.3717	0.2457	0.258
Mof_N 	N 	0.9282	0.4958	0.8657	-0.097
Mof_N 	N 	0.9102	0.3538	0.8122	-0.204
Mof_N 	N 	0.1061	0.8525	0.0834	-0.213
Mof_N 	N 	0.9947	0.7747	0.9213	-0.108
Mof_N 	N 	0.7355	0.6119	0.775	-0.111
Mof_N 	N 	0.5926	0.576	0.6924	-0.217
Mof_N 	N 	0.69	0.5494	0.4664	-0.193
Mof_N 	N 	0.8116	0.5708	0.5899	-0.119
Mof_O 	O 	0.6902	0.4374	0.0621	-0.224
Mof_O 	O 	0.8283	0.5437	0.1501	-0.231
Mof_O 	O 	0.8368	0.3436	0.1428	-0.245
Mof_O 	O 	0.9368	0.4212	0.324	-0.226
Mof_Ag	Ag	0.23272	0.89716	0.20352	0.507
Mof_Ag	Ag	0.50656	0.45326	0.11471	0.499
Mof_C 	C 	0.5901	0.9631	0.3749	-0.139
Mof_H 	H 	0.605	0.0182	0.3575	0.102
Mof_H 	H 	0.6268	0.9782	0.4512	0.081
Mof_C 	C 	0.4329	0.9459	0.3007	0.088
Mof_H 	H 	0.444	0.979	0.2541	0.013
Mof_C 	C 	0.4545	0.8809	0.422	-0.028
Mof_H 	H 	0.4805	0.8599	0.4742	0.064
Mof_C 	C 	0.3687	0.8703	0.3882	0.034
Mof_H 	H 	0.3249	0.8393	0.4138	0.005
Mof_C 	C 	0.7981	0.0801	0.4816	0.08
Mof_H 	H 	0.7773	0.1183	0.4535	0.003
Mof_C 	C 	0.8676	0.032	0.5867	0.007
Mof_H 	H 	0.906	0.0288	0.6478	0.001
Mof_C 	C 	0.8192	0.963	0.4888	-0.022
Mof_H 	H 	0.8171	0.9051	0.4717	0.033
Mof_C 	C 	0.7124	0.9468	0.3089	-0.135
Mof_H 	H 	0.7147	0.9897	0.2703	0.082
Mof_H 	H 	0.7325	0.9041	0.2719	0.079
Mof_C 	C 	0.6153	0.8963	0.2973	0.084
Mof_C 	C 	0.6	0.8158	0.3349	-0.131
Mof_H 	H 	0.5387	0.7943	0.3357	0.081
Mof_H 	H 	0.6395	0.8377	0.4114	0.077
Mof_C 	C 	0.6865	0.7293	0.2595	-0.004
Mof_H 	H 	0.7424	0.7768	0.2804	0.028
Mof_C 	C 	0.6651	0.6413	0.2081	-0.01
Mof_H 	H 	0.704	0.6176	0.187	0.026
Mof_C 	C 	0.5469	0.6523	0.233	0.082
Mof_H 	H 	0.4881	0.6383	0.2324	-0.018
Mof_C 	C 	0.6266	0.7572	0.976	0.014
Mof_H 	H 	0.6646	0.7514	0.936	0.015
Mof_C 	C 	0.6393	0.8321	0.0513	0.002
Mof_H 	H 	0.6867	0.8883	0.0732	0.03
Mof_C 	C 	0.515	0.7238	0.0368	0.097
Mof_H 	H 	0.4621	0.6927	0.0479	0.003
Mof_C 	C 	0.551	0.8706	0.1758	0.027
Mof_C 	C 	0.4748	0.7692	0.661	0.257
Mof_C 	C 	0.4456	0.7492	0.737	-0.105
Mof_C 	C 	0.4077	0.7893	0.791	0.017
Mof_C 	C 	0.3717	0.8611	0.7457	0.258
Mof_N 	N 	0.4958	0.9282	0.3657	-0.097
Mof_N 	N 	0.3538	0.9102	0.3122	-0.204
Mof_N 	N 	0.8525	0.1061	0.5834	-0.213
Mof_N 	N 	0.7747	0.9947	0.4213	-0.107
Mof_N 	N 	0.6119	0.7355	0.275	-0.111
Mof_N 	N 	0.576	0.5926	0.1924	-0.217
Mof_N 	N 	0.5494	0.69	0.9664	-0.192
Mof_N 	N 	0.5708	0.8116	0.0899	-0.119
Mof_O 	O 	0.4374	0.6902	0.5621	-0.225
Mof_O 	O 	0.5437	0.8283	0.6501	-0.231
Mof_O 	O 	0.3436	0.8368	0.6428	-0.245
Mof_O 	O 	0.4212	0.9368	0.824	-0.225
Mof_Ag	Ag	0.10284	0.76728	0.29648	0.507
Mof_Ag	Ag	0.54674	0.49344	0.38529	0.499
Mof_C 	C 	0.0369	0.4099	0.1251	-0.139
Mof_H 	H 	0.9818	0.395	0.1425	0.102
Mof_H 	H 	0.0218	0.3732	0.0488	0.081
Mof_C 	C 	0.0541	0.5671	0.1993	0.088
Mof_H 	H 	0.021	0.556	0.2459	0.013
Mof_C 	C 	0.1191	0.5455	0.078	-0.028
Mof_H 	H 	0.1401	0.5195	0.0258	0.063
Mof_C 	C 	0.1297	0.6313	0.1118	0.034
Mof_H 	H 	0.1607	0.6751	0.0862	0.005
Mof_C 	C 	0.9199	0.2019	0.0184	0.081
Mof_H 	H 	0.8817	0.2227	0.0465	0.003
Mof_C 	C 	0.968	0.1324	0.9133	0.006
Mof_H 	H 	0.9712	0.094	0.8522	0.002
Mof_C 	C 	0.037	0.1808	0.0112	-0.021
Mof_H 	H 	0.0949	0.1829	0.0283	0.033
Mof_C 	C 	0.0532	0.2876	0.1911	-0.134
Mof_H 	H 	0.0103	0.2853	0.2297	0.082
Mof_H 	H 	0.0959	0.2675	0.2281	0.079
Mof_C 	C 	0.1037	0.3847	0.2027	0.084
Mof_C 	C 	0.1842	0.4	0.1651	-0.131
Mof_H 	H 	0.2057	0.4613	0.1643	0.081
Mof_H 	H 	0.1623	0.3605	0.0886	0.077
Mof_C 	C 	0.2707	0.3135	0.2405	-0.004
Mof_H 	H 	0.2232	0.2576	0.2196	0.028
Mof_C 	C 	0.3587	0.3349	0.2919	-0.01
Mof_H 	H 	0.3824	0.296	0.313	0.026
Mof_C 	C 	0.3477	0.4531	0.267	0.082
Mof_H 	H 	0.3617	0.5119	0.2676	-0.018
Mof_C 	C 	0.2428	0.3734	0.524	0.013
Mof_H 	H 	0.2486	0.3354	0.564	0.016
Mof_C 	C 	0.1679	0.3607	0.4487	0.003
Mof_H 	H 	0.1117	0.3133	0.4268	0.03
Mof_C 	C 	0.2762	0.485	0.4632	0.098
Mof_H 	H 	0.3073	0.5379	0.4521	0.003
Mof_C 	C 	0.1294	0.449	0.3242	0.027
Mof_C 	C 	0.2308	0.5252	0.839	0.257
Mof_C 	C 	0.2508	0.5544	0.763	-0.105
Mof_C 	C 	0.2107	0.5923	0.709	0.017
Mof_C 	C 	0.1389	0.6283	0.7543	0.258
Mof_N 	N 	0.0718	0.5042	0.1343	-0.097
Mof_N 	N 	0.0898	0.6462	0.1878	-0.204
Mof_N 	N 	0.8939	0.1475	0.9166	-0.213
Mof_N 	N 	0.0053	0.2253	0.0787	-0.108
Mof_N 	N 	0.2645	0.3881	0.225	-0.111
Mof_N 	N 	0.4074	0.424	0.3076	-0.217
Mof_N 	N 	0.31	0.4506	0.5336	-0.193
Mof_N 	N 	0.1884	0.4292	0.4101	-0.119
Mof_O 	O 	0.3098	0.5626	0.9379	-0.224
Mof_O 	O 	0.1717	0.4563	0.8499	-0.231
Mof_O 	O 	0.1632	0.6564	0.8572	-0.245
Mof_O 	O 	0.0632	0.5788	0.676	-0.226
_end
