data_functionalizedCrystal
_audit_creation_method	'EQeq! by Chris Wilmer'
_symmetry_space_group_name_H-M	'P1'
_symmetry_Int_Tables_number	1
_symmetry_cell_setting	triclinic
loop_
_symmetry_equiv_pos_as_xyz
  x,y,z
_cell_length_a	14.724
_cell_length_b	8.561
_cell_length_c	13.267
_cell_angle_alpha	90
_cell_angle_beta	104.11
_cell_angle_gamma	90
loop_
_atom_site_label
_atom_site_type_symbol
_atom_site_fract_x
_atom_site_fract_y
_atom_site_fract_z
_atom_site_charge
Mof_N 	N 	0.2037	0.1374	0.3467	-0.497
Mof_N 	N 	0.2951	0.3394	0.1333	-0.481
Mof_N 	N 	0.1262	0.9334	0.5094	-0.515
Mof_N 	N 	0.3732	0.9348	0.4855	-0.519
Mof_C 	C 	0.2722	0.1998	0.2915	-0.023
Mof_C 	C 	0.2275	0.2662	0.1848	-0.015
Mof_C 	C 	0.0424	0.0319	0.4831	-0.024
Mof_C 	C 	0.4558	0.0357	0.5098	-0.02
Mof_Li	Li	0.2483	0.0401	0.493	2.279
Mof_H 	H 	0.175	0.045	0.312	-0.013
Mof_H 	H 	0.161	0.214	0.343	0.062
Mof_H 	H 	0.324	0.427	0.168	-0.014
Mof_H 	H 	0.34	0.264	0.134	0.06
Mof_H 	H 	0.14	0.899	0.573	0.043
Mof_H 	H 	0.112	0.835	0.477	0.037
Mof_H 	H 	0.388	0.845	0.522	0.054
Mof_H 	H 	0.361	0.895	0.421	0.032
Mof_H 	H 	0.315	0.291	0.339	-0.058
Mof_H 	H 	0.314	0.105	0.287	-0.048
Mof_H 	H 	0.191	0.177	0.14	-0.055
Mof_H 	H 	0.185	0.355	0.19	-0.052
Mof_H 	H 	0.44	0.146	0.474	-0.064
Mof_H 	H 	0.472	0.062	0.586	-0.044
Mof_H 	H 	0.058	0.142	0.51	-0.067
Mof_H 	H 	0.02	0.045	0.403	-0.047
Mof_N 	N 	0.7963	0.6374	0.1533	-0.497
Mof_N 	N 	0.7049	0.8394	0.3667	-0.484
Mof_N 	N 	0.8738	0.4334	0.9906	-0.506
Mof_N 	N 	0.6268	0.4348	0.0145	-0.521
Mof_C 	C 	0.7278	0.6998	0.2085	-0.025
Mof_C 	C 	0.7725	0.7662	0.3152	-0.015
Mof_C 	C 	0.9576	0.5319	0.0169	-0.036
Mof_C 	C 	0.5442	0.5357	0.9902	-0.017
Mof_Li	Li	0.7517	0.5401	0.007	2.269
Mof_H 	H 	0.825	0.545	0.188	-0.013
Mof_H 	H 	0.839	0.714	0.157	0.06
Mof_H 	H 	0.676	0.927	0.332	-0.016
Mof_H 	H 	0.66	0.764	0.366	0.059
Mof_H 	H 	0.86	0.399	0.927	0.043
Mof_H 	H 	0.888	0.335	0.023	0.031
Mof_H 	H 	0.612	0.345	0.978	0.057
Mof_H 	H 	0.639	0.395	0.079	0.032
Mof_H 	H 	0.685	0.791	0.161	-0.058
Mof_H 	H 	0.686	0.605	0.213	-0.048
Mof_H 	H 	0.809	0.677	0.36	-0.057
Mof_H 	H 	0.815	0.855	0.31	-0.054
Mof_H 	H 	0.56	0.646	0.026	-0.065
Mof_H 	H 	0.528	0.562	0.914	-0.045
Mof_H 	H 	0.942	0.642	0.99	-0.056
Mof_H 	H 	0.98	0.545	0.097	-0.046
Mof_N 	N 	0.7963	0.8626	0.6533	-0.498
Mof_N 	N 	0.7049	0.6606	0.8667	-0.482
Mof_N 	N 	0.8738	0.0666	0.4906	-0.516
Mof_N 	N 	0.6268	0.0652	0.5145	-0.52
Mof_C 	C 	0.7278	0.8002	0.7085	-0.024
Mof_C 	C 	0.7725	0.7338	0.8152	-0.016
Mof_C 	C 	0.9576	0.9681	0.5169	-0.024
Mof_C 	C 	0.5442	0.9643	0.4902	-0.02
Mof_Li	Li	0.7517	0.9599	0.507	2.279
Mof_H 	H 	0.825	0.955	0.688	-0.013
Mof_H 	H 	0.839	0.786	0.657	0.062
Mof_H 	H 	0.676	0.573	0.832	-0.014
Mof_H 	H 	0.66	0.736	0.866	0.06
Mof_H 	H 	0.86	0.101	0.427	0.043
Mof_H 	H 	0.888	0.165	0.523	0.037
Mof_H 	H 	0.612	0.155	0.478	0.054
Mof_H 	H 	0.639	0.105	0.579	0.032
Mof_H 	H 	0.685	0.709	0.661	-0.058
Mof_H 	H 	0.686	0.895	0.713	-0.048
Mof_H 	H 	0.809	0.823	0.86	-0.055
Mof_H 	H 	0.815	0.645	0.81	-0.052
Mof_H 	H 	0.56	0.854	0.526	-0.064
Mof_H 	H 	0.528	0.938	0.414	-0.044
Mof_H 	H 	0.942	0.858	0.49	-0.067
Mof_H 	H 	0.98	0.955	0.597	-0.047
Mof_N 	N 	0.2037	0.3626	0.8467	-0.497
Mof_N 	N 	0.2951	0.1606	0.6333	-0.484
Mof_N 	N 	0.1262	0.5666	0.0094	-0.506
Mof_N 	N 	0.3732	0.5652	0.9855	-0.521
Mof_C 	C 	0.2722	0.3002	0.7915	-0.025
Mof_C 	C 	0.2275	0.2338	0.6848	-0.015
Mof_C 	C 	0.0424	0.4681	0.9831	-0.036
Mof_C 	C 	0.4558	0.4643	0.0098	-0.017
Mof_Li	Li	0.2483	0.4599	0.993	2.269
Mof_H 	H 	0.175	0.455	0.812	-0.013
Mof_H 	H 	0.161	0.286	0.843	0.06
Mof_H 	H 	0.324	0.073	0.668	-0.016
Mof_H 	H 	0.34	0.236	0.634	0.059
Mof_H 	H 	0.14	0.601	0.073	0.043
Mof_H 	H 	0.112	0.665	0.977	0.031
Mof_H 	H 	0.388	0.655	0.022	0.057
Mof_H 	H 	0.361	0.605	0.921	0.032
Mof_H 	H 	0.315	0.209	0.839	-0.058
Mof_H 	H 	0.314	0.395	0.787	-0.048
Mof_H 	H 	0.191	0.323	0.64	-0.057
Mof_H 	H 	0.185	0.145	0.69	-0.054
Mof_H 	H 	0.44	0.354	0.974	-0.065
Mof_H 	H 	0.472	0.438	0.086	-0.045
Mof_H 	H 	0.058	0.358	0.01	-0.056
Mof_H 	H 	0.02	0.455	0.903	-0.046
_end
