data_functionalizedCrystal
_audit_creation_method	'EQeq! by Chris Wilmer'
_symmetry_space_group_name_H-M	'P1'
_symmetry_Int_Tables_number	1
_symmetry_cell_setting	triclinic
loop_
_symmetry_equiv_pos_as_xyz
  x,y,z
_cell_length_a	15.2451
_cell_length_b	26.7998
_cell_length_c	31.3225
_cell_angle_alpha	90
_cell_angle_beta	90
_cell_angle_gamma	90
loop_
_atom_site_label
_atom_site_type_symbol
_atom_site_fract_x
_atom_site_fract_y
_atom_site_fract_z
_atom_site_charge
Mof_O 	O 	0.2623	0.4114	0.02959	-0.511
Mof_O 	O 	0.3961	0.43618	0.01764	-0.555
Mof_O 	O 	0.2383	0.58759	0.85133	-0.503
Mof_O 	O 	0.1038	0.5674	0.86729	-0.506
Mof_N 	N 	0.4309	0.5005	0.9552	-0.358
Mof_H 	H 	0.4476	0.4807	0.9766	0.397
Mof_H 	H 	0.4587	0.4905	0.9316	0.119
Mof_C 	C 	0.315	0.4385	0.00899	0.343
Mof_C 	C 	0.2828	0.4718	0.97473	-0.121
Mof_C 	C 	0.3409	0.4984	0.9494	0.032
Mof_C 	C 	0.306	0.5277	0.9169	-0.054
Mof_H 	H 	0.3451	0.5458	0.899	0.043
Mof_C 	C 	0.2177	0.5317	0.90944	-0.029
Mof_C 	C 	0.185	0.56389	0.87403	0.304
Mof_C 	C 	0.1606	0.5045	0.9341	-0.044
Mof_H 	H 	0.0992	0.5059	0.929	0.049
Mof_C 	C 	0.1944	0.4746	0.9671	-0.015
Mof_H 	H 	0.1551	0.456	0.9845	0.038
Mof_C 	C 	0.1622	0.4915	0.9257	-0.007
Mof_H 	H 	0.1051	0.4854	0.9147	0.021
Mof_C 	C 	0.1974	0.4629	0.958	0.017
Mof_H 	H 	0.1635	0.4363	0.9695	0.018
Mof_N 	N 	0.4197	0.5226	0.9718	0.004
Mof_H 	H 	0.4434	0.4952	0.9828	-0.219
Mof_H 	H 	0.4526	0.5326	0.9501	0.145
Mof_C 	C 	0.3358	0.5117	0.9581	0.088
Mof_C 	C 	0.3016	0.5414	0.9249	-0.039
Mof_H 	H 	0.3354	0.5678	0.9131	0.048
Mof_O 	O 	0.2623	0.9114	0.52959	-0.51
Mof_O 	O 	0.3961	0.93618	0.51764	-0.554
Mof_O 	O 	0.2383	0.08759	0.35133	-0.502
Mof_O 	O 	0.1038	0.0674	0.36729	-0.505
Mof_N 	N 	0.4309	0.0005	0.4552	-0.357
Mof_H 	H 	0.4476	0.9807	0.4766	0.398
Mof_H 	H 	0.4587	0.9905	0.4316	0.12
Mof_C 	C 	0.315	0.9385	0.50899	0.344
Mof_C 	C 	0.2828	0.9718	0.47473	-0.12
Mof_C 	C 	0.3409	0.9984	0.4494	0.033
Mof_C 	C 	0.306	0.0277	0.4169	-0.053
Mof_H 	H 	0.3451	0.0458	0.399	0.044
Mof_C 	C 	0.2177	0.0317	0.40944	-0.028
Mof_C 	C 	0.185	0.06389	0.37403	0.305
Mof_C 	C 	0.1606	0.0045	0.4341	-0.043
Mof_H 	H 	0.0992	0.0059	0.429	0.05
Mof_C 	C 	0.1944	0.9746	0.4671	-0.014
Mof_H 	H 	0.1551	0.956	0.4845	0.038
Mof_C 	C 	0.1622	0.9915	0.4257	-0.007
Mof_H 	H 	0.1051	0.9854	0.4147	0.021
Mof_C 	C 	0.1974	0.9629	0.458	0.017
Mof_H 	H 	0.1635	0.9363	0.4695	0.018
Mof_N 	N 	0.4197	0.0226	0.4718	0.004
Mof_H 	H 	0.4434	0.9952	0.4828	-0.219
Mof_H 	H 	0.4526	0.0326	0.4501	0.145
Mof_C 	C 	0.3358	0.0117	0.4581	0.088
Mof_C 	C 	0.3016	0.0414	0.4249	-0.039
Mof_H 	H 	0.3354	0.0678	0.4131	0.048
Mof_O 	O 	0.7623	0.4114	0.52959	-0.51
Mof_O 	O 	0.8961	0.43618	0.51764	-0.554
Mof_O 	O 	0.7383	0.58759	0.35133	-0.502
Mof_O 	O 	0.6038	0.5674	0.36729	-0.505
Mof_N 	N 	0.9309	0.5005	0.4552	-0.357
Mof_H 	H 	0.9476	0.4807	0.4766	0.398
Mof_H 	H 	0.9587	0.4905	0.4316	0.12
Mof_C 	C 	0.815	0.4385	0.50899	0.344
Mof_C 	C 	0.7828	0.4718	0.47473	-0.12
Mof_C 	C 	0.8409	0.4984	0.4494	0.033
Mof_C 	C 	0.806	0.5277	0.4169	-0.053
Mof_H 	H 	0.8451	0.5458	0.399	0.044
Mof_C 	C 	0.7177	0.5317	0.40944	-0.028
Mof_C 	C 	0.685	0.56389	0.37403	0.305
Mof_C 	C 	0.6606	0.5045	0.4341	-0.043
Mof_H 	H 	0.5992	0.5059	0.429	0.05
Mof_C 	C 	0.6944	0.4746	0.4671	-0.014
Mof_H 	H 	0.6551	0.456	0.4845	0.039
Mof_C 	C 	0.6622	0.4915	0.4257	-0.007
Mof_H 	H 	0.6051	0.4854	0.4147	0.021
Mof_C 	C 	0.6974	0.4629	0.458	0.017
Mof_H 	H 	0.6635	0.4363	0.4695	0.018
Mof_N 	N 	0.9197	0.5226	0.4718	0.004
Mof_H 	H 	0.9434	0.4952	0.4828	-0.219
Mof_H 	H 	0.9526	0.5326	0.4501	0.145
Mof_C 	C 	0.8358	0.5117	0.4581	0.088
Mof_C 	C 	0.8016	0.5414	0.4249	-0.039
Mof_H 	H 	0.8354	0.5678	0.4131	0.048
Mof_O 	O 	0.7623	0.9114	0.02959	-0.51
Mof_O 	O 	0.8961	0.93618	0.01764	-0.554
Mof_O 	O 	0.7383	0.08759	0.85133	-0.502
Mof_O 	O 	0.6038	0.0674	0.86729	-0.505
Mof_N 	N 	0.9309	0.0005	0.9552	-0.356
Mof_H 	H 	0.9476	0.9807	0.9766	0.397
Mof_H 	H 	0.9587	0.9905	0.9316	0.12
Mof_C 	C 	0.815	0.9385	0.00899	0.344
Mof_C 	C 	0.7828	0.9718	0.97473	-0.121
Mof_C 	C 	0.8409	0.9984	0.9494	0.035
Mof_C 	C 	0.806	0.0277	0.9169	-0.052
Mof_H 	H 	0.8451	0.0458	0.899	0.044
Mof_C 	C 	0.7177	0.0317	0.90944	-0.028
Mof_C 	C 	0.685	0.06389	0.87403	0.305
Mof_C 	C 	0.6606	0.0045	0.9341	-0.044
Mof_H 	H 	0.5992	0.0059	0.929	0.051
Mof_C 	C 	0.6944	0.9746	0.9671	-0.014
Mof_H 	H 	0.6551	0.956	0.9845	0.038
Mof_C 	C 	0.6622	0.9915	0.9257	-0.006
Mof_H 	H 	0.6051	0.9854	0.9147	0.021
Mof_C 	C 	0.6974	0.9629	0.958	0.017
Mof_H 	H 	0.6635	0.9363	0.9695	0.018
Mof_N 	N 	0.9197	0.0226	0.9718	0.004
Mof_H 	H 	0.9434	0.9952	0.9828	-0.218
Mof_H 	H 	0.9526	0.0326	0.9501	0.145
Mof_C 	C 	0.8358	0.0117	0.9581	0.086
Mof_C 	C 	0.8016	0.0414	0.9249	-0.039
Mof_H 	H 	0.8354	0.0678	0.9131	0.048
Mof_O 	O 	0.4877	0.3386	0.02959	-0.51
Mof_O 	O 	0.3539	0.31382	0.01764	-0.554
Mof_O 	O 	0.5117	0.16241	0.85133	-0.502
Mof_O 	O 	0.6462	0.1826	0.86729	-0.505
Mof_N 	N 	0.3191	0.2495	0.9552	-0.357
Mof_H 	H 	0.3024	0.2693	0.9766	0.398
Mof_H 	H 	0.2913	0.2595	0.9316	0.12
Mof_C 	C 	0.435	0.3115	0.00899	0.344
Mof_C 	C 	0.4672	0.2782	0.97473	-0.12
Mof_C 	C 	0.4091	0.2516	0.9494	0.033
Mof_C 	C 	0.444	0.2223	0.9169	-0.053
Mof_H 	H 	0.4049	0.2042	0.899	0.044
Mof_C 	C 	0.5323	0.2183	0.90944	-0.028
Mof_C 	C 	0.565	0.18611	0.87403	0.305
Mof_C 	C 	0.5894	0.2455	0.9341	-0.043
Mof_H 	H 	0.6508	0.2441	0.929	0.05
Mof_C 	C 	0.5556	0.2754	0.9671	-0.014
Mof_H 	H 	0.5949	0.294	0.9845	0.039
Mof_C 	C 	0.5878	0.2585	0.9257	-0.007
Mof_H 	H 	0.6449	0.2646	0.9147	0.021
Mof_C 	C 	0.5526	0.2871	0.958	0.017
Mof_H 	H 	0.5865	0.3137	0.9695	0.018
Mof_N 	N 	0.3303	0.2274	0.9718	0.004
Mof_H 	H 	0.3066	0.2548	0.9828	-0.219
Mof_H 	H 	0.2974	0.2174	0.9501	0.145
Mof_C 	C 	0.4142	0.2383	0.9581	0.088
Mof_C 	C 	0.4484	0.2086	0.9249	-0.039
Mof_H 	H 	0.4146	0.1822	0.9131	0.048
Mof_O 	O 	0.4877	0.8386	0.52959	-0.51
Mof_O 	O 	0.3539	0.81382	0.51764	-0.554
Mof_O 	O 	0.5117	0.66241	0.35133	-0.502
Mof_O 	O 	0.6462	0.6826	0.36729	-0.505
Mof_N 	N 	0.3191	0.7495	0.4552	-0.357
Mof_H 	H 	0.3024	0.7693	0.4766	0.398
Mof_H 	H 	0.2913	0.7595	0.4316	0.12
Mof_C 	C 	0.435	0.8115	0.50899	0.344
Mof_C 	C 	0.4672	0.7782	0.47473	-0.12
Mof_C 	C 	0.4091	0.7516	0.4494	0.033
Mof_C 	C 	0.444	0.7223	0.4169	-0.053
Mof_H 	H 	0.4049	0.7042	0.399	0.044
Mof_C 	C 	0.5323	0.7183	0.40944	-0.028
Mof_C 	C 	0.565	0.68611	0.37403	0.305
Mof_C 	C 	0.5894	0.7455	0.4341	-0.043
Mof_H 	H 	0.6508	0.7441	0.429	0.05
Mof_C 	C 	0.5556	0.7754	0.4671	-0.014
Mof_H 	H 	0.5949	0.794	0.4845	0.039
Mof_C 	C 	0.5878	0.7585	0.4257	-0.007
Mof_H 	H 	0.6449	0.7646	0.4147	0.021
Mof_C 	C 	0.5526	0.7871	0.458	0.017
Mof_H 	H 	0.5865	0.8137	0.4695	0.018
Mof_N 	N 	0.3303	0.7274	0.4718	0.004
Mof_H 	H 	0.3066	0.7548	0.4828	-0.219
Mof_H 	H 	0.2974	0.7174	0.4501	0.145
Mof_C 	C 	0.4142	0.7383	0.4581	0.088
Mof_C 	C 	0.4484	0.7086	0.4249	-0.039
Mof_H 	H 	0.4146	0.6822	0.4131	0.048
Mof_O 	O 	0.9877	0.3386	0.52959	-0.51
Mof_O 	O 	0.8539	0.31382	0.51764	-0.554
Mof_O 	O 	0.0117	0.16241	0.35133	-0.503
Mof_O 	O 	0.1462	0.1826	0.36729	-0.505
Mof_N 	N 	0.8191	0.2495	0.4552	-0.357
Mof_H 	H 	0.8024	0.2693	0.4766	0.398
Mof_H 	H 	0.7913	0.2595	0.4316	0.12
Mof_C 	C 	0.935	0.3115	0.50899	0.344
Mof_C 	C 	0.9672	0.2782	0.47473	-0.12
Mof_C 	C 	0.9091	0.2516	0.4494	0.033
Mof_C 	C 	0.944	0.2223	0.4169	-0.053
Mof_H 	H 	0.9049	0.2042	0.399	0.044
Mof_C 	C 	0.0323	0.2183	0.40944	-0.028
Mof_C 	C 	0.065	0.18611	0.37403	0.305
Mof_C 	C 	0.0894	0.2455	0.4341	-0.043
Mof_H 	H 	0.1508	0.2441	0.429	0.05
Mof_C 	C 	0.0556	0.2754	0.4671	-0.014
Mof_H 	H 	0.0949	0.294	0.4845	0.039
Mof_C 	C 	0.0878	0.2585	0.4257	-0.007
Mof_H 	H 	0.1449	0.2646	0.4147	0.021
Mof_C 	C 	0.0526	0.2871	0.458	0.017
Mof_H 	H 	0.0865	0.3137	0.4695	0.018
Mof_N 	N 	0.8303	0.2274	0.4718	0.004
Mof_H 	H 	0.8066	0.2548	0.4828	-0.219
Mof_H 	H 	0.7974	0.2174	0.4501	0.145
Mof_C 	C 	0.9142	0.2383	0.4581	0.088
Mof_C 	C 	0.9484	0.2086	0.4249	-0.039
Mof_H 	H 	0.9146	0.1822	0.4131	0.048
Mof_O 	O 	0.9877	0.8386	0.02959	-0.51
Mof_O 	O 	0.8539	0.81382	0.01764	-0.554
Mof_O 	O 	0.0117	0.66241	0.85133	-0.502
Mof_O 	O 	0.1462	0.6826	0.86729	-0.505
Mof_N 	N 	0.8191	0.7495	0.9552	-0.357
Mof_H 	H 	0.8024	0.7693	0.9766	0.398
Mof_H 	H 	0.7913	0.7595	0.9316	0.12
Mof_C 	C 	0.935	0.8115	0.00899	0.344
Mof_C 	C 	0.9672	0.7782	0.97473	-0.121
Mof_C 	C 	0.9091	0.7516	0.9494	0.033
Mof_C 	C 	0.944	0.7223	0.9169	-0.053
Mof_H 	H 	0.9049	0.7042	0.899	0.044
Mof_C 	C 	0.0323	0.7183	0.90944	-0.028
Mof_C 	C 	0.065	0.68611	0.87403	0.305
Mof_C 	C 	0.0894	0.7455	0.9341	-0.043
Mof_H 	H 	0.1508	0.7441	0.929	0.05
Mof_C 	C 	0.0556	0.7754	0.9671	-0.014
Mof_H 	H 	0.0949	0.794	0.9845	0.038
Mof_C 	C 	0.0878	0.7585	0.9257	-0.007
Mof_H 	H 	0.1449	0.7646	0.9147	0.021
Mof_C 	C 	0.0526	0.7871	0.958	0.017
Mof_H 	H 	0.0865	0.8137	0.9695	0.018
Mof_N 	N 	0.8303	0.7274	0.9718	0.004
Mof_H 	H 	0.8066	0.7548	0.9828	-0.22
Mof_H 	H 	0.7974	0.7174	0.9501	0.145
Mof_C 	C 	0.9142	0.7383	0.9581	0.088
Mof_C 	C 	0.9484	0.7086	0.9249	-0.039
Mof_H 	H 	0.9146	0.6822	0.9131	0.048
Mof_O 	O 	0.5123	0.5886	0.27959	-0.51
Mof_O 	O 	0.6461	0.56382	0.26764	-0.554
Mof_O 	O 	0.4883	0.41241	0.10133	-0.502
Mof_O 	O 	0.3538	0.4326	0.11729	-0.505
Mof_N 	N 	0.6809	0.4995	0.2052	-0.357
Mof_H 	H 	0.6976	0.5193	0.2266	0.398
Mof_H 	H 	0.7087	0.5095	0.1816	0.12
Mof_C 	C 	0.565	0.5615	0.25899	0.344
Mof_C 	C 	0.5328	0.5282	0.22473	-0.12
Mof_C 	C 	0.5909	0.5016	0.1994	0.033
Mof_C 	C 	0.556	0.4723	0.1669	-0.053
Mof_H 	H 	0.5951	0.4542	0.149	0.044
Mof_C 	C 	0.4677	0.4683	0.15944	-0.028
Mof_C 	C 	0.435	0.43611	0.12403	0.305
Mof_C 	C 	0.4106	0.4955	0.1841	-0.043
Mof_H 	H 	0.3492	0.4941	0.179	0.05
Mof_C 	C 	0.4444	0.5254	0.2171	-0.014
Mof_H 	H 	0.4051	0.544	0.2345	0.039
Mof_C 	C 	0.4122	0.5085	0.1757	-0.007
Mof_H 	H 	0.3551	0.5146	0.1647	0.021
Mof_C 	C 	0.4474	0.5371	0.208	0.017
Mof_H 	H 	0.4135	0.5637	0.2195	0.018
Mof_N 	N 	0.6697	0.4774	0.2218	0.004
Mof_H 	H 	0.6934	0.5048	0.2328	-0.219
Mof_H 	H 	0.7026	0.4674	0.2001	0.145
Mof_C 	C 	0.5858	0.4883	0.2081	0.088
Mof_C 	C 	0.5516	0.4586	0.1749	-0.039
Mof_H 	H 	0.5854	0.4322	0.1631	0.048
Mof_O 	O 	0.5123	0.0886	0.77959	-0.51
Mof_O 	O 	0.6461	0.06382	0.76764	-0.554
Mof_O 	O 	0.4883	0.91241	0.60133	-0.502
Mof_O 	O 	0.3538	0.9326	0.61729	-0.505
Mof_N 	N 	0.6809	0.9995	0.7052	-0.357
Mof_H 	H 	0.6976	0.0193	0.7266	0.398
Mof_H 	H 	0.7087	0.0095	0.6816	0.12
Mof_C 	C 	0.565	0.0615	0.75899	0.344
Mof_C 	C 	0.5328	0.0282	0.72473	-0.12
Mof_C 	C 	0.5909	0.0016	0.6994	0.032
Mof_C 	C 	0.556	0.9723	0.6669	-0.053
Mof_H 	H 	0.5951	0.9542	0.649	0.044
Mof_C 	C 	0.4677	0.9683	0.65944	-0.028
Mof_C 	C 	0.435	0.93611	0.62403	0.305
Mof_C 	C 	0.4106	0.9955	0.6841	-0.043
Mof_H 	H 	0.3492	0.9941	0.679	0.05
Mof_C 	C 	0.4444	0.0254	0.7171	-0.014
Mof_H 	H 	0.4051	0.044	0.7345	0.039
Mof_C 	C 	0.4122	0.0085	0.6757	-0.007
Mof_H 	H 	0.3551	0.0146	0.6647	0.021
Mof_C 	C 	0.4474	0.0371	0.708	0.017
Mof_H 	H 	0.4135	0.0637	0.7195	0.018
Mof_N 	N 	0.6697	0.9774	0.7218	0.004
Mof_H 	H 	0.6934	0.0048	0.7328	-0.219
Mof_H 	H 	0.7026	0.9674	0.7001	0.145
Mof_C 	C 	0.5858	0.9883	0.7081	0.088
Mof_C 	C 	0.5516	0.9586	0.6749	-0.039
Mof_H 	H 	0.5854	0.9322	0.6631	0.048
Mof_O 	O 	0.0123	0.5886	0.77959	-0.51
Mof_O 	O 	0.1461	0.56382	0.76764	-0.554
Mof_O 	O 	0.9883	0.41241	0.60133	-0.502
Mof_O 	O 	0.8538	0.4326	0.61729	-0.505
Mof_N 	N 	0.1809	0.4995	0.7052	-0.357
Mof_H 	H 	0.1976	0.5193	0.7266	0.398
Mof_H 	H 	0.2087	0.5095	0.6816	0.12
Mof_C 	C 	0.065	0.5615	0.75899	0.344
Mof_C 	C 	0.0328	0.5282	0.72473	-0.12
Mof_C 	C 	0.0909	0.5016	0.6994	0.033
Mof_C 	C 	0.056	0.4723	0.6669	-0.053
Mof_H 	H 	0.0951	0.4542	0.649	0.044
Mof_C 	C 	0.9677	0.4683	0.65944	-0.028
Mof_C 	C 	0.935	0.43611	0.62403	0.305
Mof_C 	C 	0.9106	0.4955	0.6841	-0.043
Mof_H 	H 	0.8492	0.4941	0.679	0.05
Mof_C 	C 	0.9444	0.5254	0.7171	-0.014
Mof_H 	H 	0.9051	0.544	0.7345	0.039
Mof_C 	C 	0.9122	0.5085	0.6757	-0.007
Mof_H 	H 	0.8551	0.5146	0.6647	0.021
Mof_C 	C 	0.9474	0.5371	0.708	0.017
Mof_H 	H 	0.9135	0.5637	0.7195	0.018
Mof_N 	N 	0.1697	0.4774	0.7218	0.004
Mof_H 	H 	0.1934	0.5048	0.7328	-0.219
Mof_H 	H 	0.2026	0.4674	0.7001	0.145
Mof_C 	C 	0.0858	0.4883	0.7081	0.088
Mof_C 	C 	0.0516	0.4586	0.6749	-0.039
Mof_H 	H 	0.0854	0.4322	0.6631	0.048
Mof_O 	O 	0.0123	0.0886	0.27959	-0.51
Mof_O 	O 	0.1461	0.06382	0.26764	-0.554
Mof_O 	O 	0.9883	0.91241	0.10133	-0.502
Mof_O 	O 	0.8538	0.9326	0.11729	-0.505
Mof_N 	N 	0.1809	0.9995	0.2052	-0.356
Mof_H 	H 	0.1976	0.0193	0.2266	0.397
Mof_H 	H 	0.2087	0.0095	0.1816	0.12
Mof_C 	C 	0.065	0.0615	0.25899	0.344
Mof_C 	C 	0.0328	0.0282	0.22473	-0.121
Mof_C 	C 	0.0909	0.0016	0.1994	0.034
Mof_C 	C 	0.056	0.9723	0.1669	-0.052
Mof_H 	H 	0.0951	0.9542	0.149	0.044
Mof_C 	C 	0.9677	0.9683	0.15944	-0.028
Mof_C 	C 	0.935	0.93611	0.12403	0.305
Mof_C 	C 	0.9106	0.9955	0.1841	-0.044
Mof_H 	H 	0.8492	0.9941	0.179	0.05
Mof_C 	C 	0.9444	0.0254	0.2171	-0.014
Mof_H 	H 	0.9051	0.044	0.2345	0.039
Mof_C 	C 	0.9122	0.0085	0.1757	-0.007
Mof_H 	H 	0.8551	0.0146	0.1647	0.021
Mof_C 	C 	0.9474	0.0371	0.208	0.017
Mof_H 	H 	0.9135	0.0637	0.2195	0.018
Mof_N 	N 	0.1697	0.9774	0.2218	0.004
Mof_H 	H 	0.1934	0.0048	0.2328	-0.218
Mof_H 	H 	0.2026	0.9674	0.2001	0.145
Mof_C 	C 	0.0858	0.9883	0.2081	0.086
Mof_C 	C 	0.0516	0.9586	0.1749	-0.039
Mof_H 	H 	0.0854	0.9322	0.1631	0.048
Mof_O 	O 	0.7377	0.6614	0.27959	-0.51
Mof_O 	O 	0.6039	0.68618	0.26764	-0.554
Mof_O 	O 	0.7617	0.83759	0.10133	-0.502
Mof_O 	O 	0.8962	0.8174	0.11729	-0.505
Mof_N 	N 	0.5691	0.7505	0.2052	-0.357
Mof_H 	H 	0.5524	0.7307	0.2266	0.398
Mof_H 	H 	0.5413	0.7405	0.1816	0.12
Mof_C 	C 	0.685	0.6885	0.25899	0.344
Mof_C 	C 	0.7172	0.7218	0.22473	-0.12
Mof_C 	C 	0.6591	0.7484	0.1994	0.033
Mof_C 	C 	0.694	0.7777	0.1669	-0.053
Mof_H 	H 	0.6549	0.7958	0.149	0.044
Mof_C 	C 	0.7823	0.7817	0.15944	-0.028
Mof_C 	C 	0.815	0.81389	0.12403	0.305
Mof_C 	C 	0.8394	0.7545	0.1841	-0.043
Mof_H 	H 	0.9008	0.7559	0.179	0.05
Mof_C 	C 	0.8056	0.7246	0.2171	-0.014
Mof_H 	H 	0.8449	0.706	0.2345	0.039
Mof_C 	C 	0.8378	0.7415	0.1757	-0.007
Mof_H 	H 	0.8949	0.7354	0.1647	0.021
Mof_C 	C 	0.8026	0.7129	0.208	0.017
Mof_H 	H 	0.8365	0.6863	0.2195	0.018
Mof_N 	N 	0.5803	0.7726	0.2218	0.004
Mof_H 	H 	0.5566	0.7452	0.2328	-0.219
Mof_H 	H 	0.5474	0.7826	0.2001	0.145
Mof_C 	C 	0.6642	0.7617	0.2081	0.088
Mof_C 	C 	0.6984	0.7914	0.1749	-0.039
Mof_H 	H 	0.6646	0.8178	0.1631	0.048
Mof_O 	O 	0.7377	0.1614	0.77959	-0.51
Mof_O 	O 	0.6039	0.18618	0.76764	-0.554
Mof_O 	O 	0.7617	0.33759	0.60133	-0.502
Mof_O 	O 	0.8962	0.3174	0.61729	-0.505
Mof_N 	N 	0.5691	0.2505	0.7052	-0.357
Mof_H 	H 	0.5524	0.2307	0.7266	0.398
Mof_H 	H 	0.5413	0.2405	0.6816	0.12
Mof_C 	C 	0.685	0.1885	0.75899	0.344
Mof_C 	C 	0.7172	0.2218	0.72473	-0.12
Mof_C 	C 	0.6591	0.2484	0.6994	0.033
Mof_C 	C 	0.694	0.2777	0.6669	-0.053
Mof_H 	H 	0.6549	0.2958	0.649	0.044
Mof_C 	C 	0.7823	0.2817	0.65944	-0.028
Mof_C 	C 	0.815	0.31389	0.62403	0.305
Mof_C 	C 	0.8394	0.2545	0.6841	-0.043
Mof_H 	H 	0.9008	0.2559	0.679	0.05
Mof_C 	C 	0.8056	0.2246	0.7171	-0.014
Mof_H 	H 	0.8449	0.206	0.7345	0.039
Mof_C 	C 	0.8378	0.2415	0.6757	-0.007
Mof_H 	H 	0.8949	0.2354	0.6647	0.021
Mof_C 	C 	0.8026	0.2129	0.708	0.017
Mof_H 	H 	0.8365	0.1863	0.7195	0.018
Mof_N 	N 	0.5803	0.2726	0.7218	0.004
Mof_H 	H 	0.5566	0.2452	0.7328	-0.219
Mof_H 	H 	0.5474	0.2826	0.7001	0.145
Mof_C 	C 	0.6642	0.2617	0.7081	0.088
Mof_C 	C 	0.6984	0.2914	0.6749	-0.039
Mof_H 	H 	0.6646	0.3178	0.6631	0.048
Mof_O 	O 	0.2377	0.6614	0.77959	-0.51
Mof_O 	O 	0.1039	0.68618	0.76764	-0.554
Mof_O 	O 	0.2617	0.83759	0.60133	-0.502
Mof_O 	O 	0.3962	0.8174	0.61729	-0.505
Mof_N 	N 	0.0691	0.7505	0.7052	-0.357
Mof_H 	H 	0.0524	0.7307	0.7266	0.398
Mof_H 	H 	0.0413	0.7405	0.6816	0.12
Mof_C 	C 	0.185	0.6885	0.75899	0.344
Mof_C 	C 	0.2172	0.7218	0.72473	-0.12
Mof_C 	C 	0.1591	0.7484	0.6994	0.033
Mof_C 	C 	0.194	0.7777	0.6669	-0.053
Mof_H 	H 	0.1549	0.7958	0.649	0.044
Mof_C 	C 	0.2823	0.7817	0.65944	-0.028
Mof_C 	C 	0.315	0.81389	0.62403	0.305
Mof_C 	C 	0.3394	0.7545	0.6841	-0.043
Mof_H 	H 	0.4008	0.7559	0.679	0.05
Mof_C 	C 	0.3056	0.7246	0.7171	-0.014
Mof_H 	H 	0.3449	0.706	0.7345	0.039
Mof_C 	C 	0.3378	0.7415	0.6757	-0.007
Mof_H 	H 	0.3949	0.7354	0.6647	0.021
Mof_C 	C 	0.3026	0.7129	0.708	0.017
Mof_H 	H 	0.3365	0.6863	0.7195	0.018
Mof_N 	N 	0.0803	0.7726	0.7218	0.004
Mof_H 	H 	0.0566	0.7452	0.7328	-0.219
Mof_H 	H 	0.0474	0.7826	0.7001	0.145
Mof_C 	C 	0.1642	0.7617	0.7081	0.088
Mof_C 	C 	0.1984	0.7914	0.6749	-0.039
Mof_H 	H 	0.1646	0.8178	0.6631	0.048
Mof_O 	O 	0.2377	0.1614	0.27959	-0.51
Mof_O 	O 	0.1039	0.18618	0.26764	-0.554
Mof_O 	O 	0.2617	0.33759	0.10133	-0.502
Mof_O 	O 	0.3962	0.3174	0.11729	-0.505
Mof_N 	N 	0.0691	0.2505	0.2052	-0.357
Mof_H 	H 	0.0524	0.2307	0.2266	0.398
Mof_H 	H 	0.0413	0.2405	0.1816	0.12
Mof_C 	C 	0.185	0.1885	0.25899	0.344
Mof_C 	C 	0.2172	0.2218	0.22473	-0.12
Mof_C 	C 	0.1591	0.2484	0.1994	0.033
Mof_C 	C 	0.194	0.2777	0.1669	-0.053
Mof_H 	H 	0.1549	0.2958	0.149	0.044
Mof_C 	C 	0.2823	0.2817	0.15944	-0.028
Mof_C 	C 	0.315	0.31389	0.12403	0.305
Mof_C 	C 	0.3394	0.2545	0.1841	-0.043
Mof_H 	H 	0.4008	0.2559	0.179	0.05
Mof_C 	C 	0.3056	0.2246	0.2171	-0.014
Mof_H 	H 	0.3449	0.206	0.2345	0.039
Mof_C 	C 	0.3378	0.2415	0.1757	-0.007
Mof_H 	H 	0.3949	0.2354	0.1647	0.021
Mof_C 	C 	0.3026	0.2129	0.208	0.017
Mof_H 	H 	0.3365	0.1863	0.2195	0.018
Mof_N 	N 	0.0803	0.2726	0.2218	0.004
Mof_H 	H 	0.0566	0.2452	0.2328	-0.22
Mof_H 	H 	0.0474	0.2826	0.2001	0.145
Mof_C 	C 	0.1642	0.2617	0.2081	0.088
Mof_C 	C 	0.1984	0.2914	0.1749	-0.039
Mof_H 	H 	0.1646	0.3178	0.1631	0.048
Mof_In	In	0.375	0.375	0.06555	2.556
Mof_In	In	0.375	0.875	0.56555	2.556
Mof_In	In	0.875	0.375	0.56555	2.556
Mof_In	In	0.875	0.875	0.06555	2.556
Mof_In	In	0.625	0.625	0.31555	2.556
Mof_In	In	0.625	0.125	0.81555	2.556
Mof_In	In	0.125	0.625	0.81555	2.556
Mof_In	In	0.125	0.125	0.31555	2.556
Mof_O 	O 	0.4877	0.4114	0.72041	-0.51
Mof_O 	O 	0.3539	0.43618	0.73236	-0.554
Mof_O 	O 	0.5117	0.58759	0.89867	-0.502
Mof_O 	O 	0.6462	0.5674	0.88271	-0.505
Mof_N 	N 	0.3191	0.5005	0.7948	-0.357
Mof_H 	H 	0.3024	0.4807	0.7734	0.398
Mof_H 	H 	0.2913	0.4905	0.8184	0.12
Mof_C 	C 	0.435	0.4385	0.74101	0.344
Mof_C 	C 	0.4672	0.4718	0.77527	-0.12
Mof_C 	C 	0.4091	0.4984	0.8006	0.033
Mof_C 	C 	0.444	0.5277	0.8331	-0.053
Mof_H 	H 	0.4049	0.5458	0.851	0.044
Mof_C 	C 	0.5323	0.5317	0.84056	-0.028
Mof_C 	C 	0.565	0.56389	0.87597	0.305
Mof_C 	C 	0.5894	0.5045	0.8159	-0.043
Mof_H 	H 	0.6508	0.5059	0.821	0.05
Mof_C 	C 	0.5556	0.4746	0.7829	-0.014
Mof_H 	H 	0.5949	0.456	0.7655	0.039
Mof_C 	C 	0.5878	0.4915	0.8243	-0.007
Mof_H 	H 	0.6449	0.4854	0.8353	0.021
Mof_C 	C 	0.5526	0.4629	0.792	0.017
Mof_H 	H 	0.5865	0.4363	0.7805	0.018
Mof_N 	N 	0.3303	0.5226	0.7782	0.004
Mof_H 	H 	0.3066	0.4952	0.7672	-0.219
Mof_H 	H 	0.2974	0.5326	0.7999	0.145
Mof_C 	C 	0.4142	0.5117	0.7919	0.088
Mof_C 	C 	0.4484	0.5414	0.8251	-0.039
Mof_H 	H 	0.4146	0.5678	0.8369	0.048
Mof_O 	O 	0.4877	0.9114	0.22041	-0.51
Mof_O 	O 	0.3539	0.93618	0.23236	-0.554
Mof_O 	O 	0.5117	0.08759	0.39867	-0.502
Mof_O 	O 	0.6462	0.0674	0.38271	-0.505
Mof_N 	N 	0.3191	0.0005	0.2948	-0.357
Mof_H 	H 	0.3024	0.9807	0.2734	0.398
Mof_H 	H 	0.2913	0.9905	0.3184	0.12
Mof_C 	C 	0.435	0.9385	0.24101	0.344
Mof_C 	C 	0.4672	0.9718	0.27527	-0.12
Mof_C 	C 	0.4091	0.9984	0.3006	0.032
Mof_C 	C 	0.444	0.0277	0.3331	-0.053
Mof_H 	H 	0.4049	0.0458	0.351	0.044
Mof_C 	C 	0.5323	0.0317	0.34056	-0.028
Mof_C 	C 	0.565	0.06389	0.37597	0.305
Mof_C 	C 	0.5894	0.0045	0.3159	-0.043
Mof_H 	H 	0.6508	0.0059	0.321	0.05
Mof_C 	C 	0.5556	0.9746	0.2829	-0.014
Mof_H 	H 	0.5949	0.956	0.2655	0.039
Mof_C 	C 	0.5878	0.9915	0.3243	-0.007
Mof_H 	H 	0.6449	0.9854	0.3353	0.021
Mof_C 	C 	0.5526	0.9629	0.292	0.017
Mof_H 	H 	0.5865	0.9363	0.2805	0.018
Mof_N 	N 	0.3303	0.0226	0.2782	0.004
Mof_H 	H 	0.3066	0.9952	0.2672	-0.219
Mof_H 	H 	0.2974	0.0326	0.2999	0.145
Mof_C 	C 	0.4142	0.0117	0.2919	0.088
Mof_C 	C 	0.4484	0.0414	0.3251	-0.039
Mof_H 	H 	0.4146	0.0678	0.3369	0.048
Mof_O 	O 	0.9877	0.4114	0.22041	-0.51
Mof_O 	O 	0.8539	0.43618	0.23236	-0.554
Mof_O 	O 	0.0117	0.58759	0.39867	-0.502
Mof_O 	O 	0.1462	0.5674	0.38271	-0.505
Mof_N 	N 	0.8191	0.5005	0.2948	-0.357
Mof_H 	H 	0.8024	0.4807	0.2734	0.398
Mof_H 	H 	0.7913	0.4905	0.3184	0.12
Mof_C 	C 	0.935	0.4385	0.24101	0.344
Mof_C 	C 	0.9672	0.4718	0.27527	-0.12
Mof_C 	C 	0.9091	0.4984	0.3006	0.033
Mof_C 	C 	0.944	0.5277	0.3331	-0.053
Mof_H 	H 	0.9049	0.5458	0.351	0.044
Mof_C 	C 	0.0323	0.5317	0.34056	-0.028
Mof_C 	C 	0.065	0.56389	0.37597	0.305
Mof_C 	C 	0.0894	0.5045	0.3159	-0.043
Mof_H 	H 	0.1508	0.5059	0.321	0.05
Mof_C 	C 	0.0556	0.4746	0.2829	-0.014
Mof_H 	H 	0.0949	0.456	0.2655	0.039
Mof_C 	C 	0.0878	0.4915	0.3243	-0.007
Mof_H 	H 	0.1449	0.4854	0.3353	0.021
Mof_C 	C 	0.0526	0.4629	0.292	0.017
Mof_H 	H 	0.0865	0.4363	0.2805	0.018
Mof_N 	N 	0.8303	0.5226	0.2782	0.004
Mof_H 	H 	0.8066	0.4952	0.2672	-0.219
Mof_H 	H 	0.7974	0.5326	0.2999	0.145
Mof_C 	C 	0.9142	0.5117	0.2919	0.088
Mof_C 	C 	0.9484	0.5414	0.3251	-0.039
Mof_H 	H 	0.9146	0.5678	0.3369	0.048
Mof_O 	O 	0.9877	0.9114	0.72041	-0.51
Mof_O 	O 	0.8539	0.93618	0.73236	-0.554
Mof_O 	O 	0.0117	0.08759	0.89867	-0.502
Mof_O 	O 	0.1462	0.0674	0.88271	-0.505
Mof_N 	N 	0.8191	0.0005	0.7948	-0.356
Mof_H 	H 	0.8024	0.9807	0.7734	0.397
Mof_H 	H 	0.7913	0.9905	0.8184	0.12
Mof_C 	C 	0.935	0.9385	0.74101	0.344
Mof_C 	C 	0.9672	0.9718	0.77527	-0.121
Mof_C 	C 	0.9091	0.9984	0.8006	0.034
Mof_C 	C 	0.944	0.0277	0.8331	-0.052
Mof_H 	H 	0.9049	0.0458	0.851	0.044
Mof_C 	C 	0.0323	0.0317	0.84056	-0.028
Mof_C 	C 	0.065	0.06389	0.87597	0.305
Mof_C 	C 	0.0894	0.0045	0.8159	-0.044
Mof_H 	H 	0.1508	0.0059	0.821	0.05
Mof_C 	C 	0.0556	0.9746	0.7829	-0.014
Mof_H 	H 	0.0949	0.956	0.7655	0.039
Mof_C 	C 	0.0878	0.9915	0.8243	-0.007
Mof_H 	H 	0.1449	0.9854	0.8353	0.021
Mof_C 	C 	0.0526	0.9629	0.792	0.017
Mof_H 	H 	0.0865	0.9363	0.7805	0.018
Mof_N 	N 	0.8303	0.0226	0.7782	0.004
Mof_H 	H 	0.8066	0.9952	0.7672	-0.218
Mof_H 	H 	0.7974	0.0326	0.7999	0.145
Mof_C 	C 	0.9142	0.0117	0.7919	0.086
Mof_C 	C 	0.9484	0.0414	0.8251	-0.039
Mof_H 	H 	0.9146	0.0678	0.8369	0.048
Mof_O 	O 	0.2623	0.3386	0.72041	-0.51
Mof_O 	O 	0.3961	0.31382	0.73236	-0.554
Mof_O 	O 	0.2383	0.16241	0.89867	-0.502
Mof_O 	O 	0.1038	0.1826	0.88271	-0.505
Mof_N 	N 	0.4309	0.2495	0.7948	-0.357
Mof_H 	H 	0.4476	0.2693	0.7734	0.398
Mof_H 	H 	0.4587	0.2595	0.8184	0.12
Mof_C 	C 	0.315	0.3115	0.74101	0.344
Mof_C 	C 	0.2828	0.2782	0.77527	-0.12
Mof_C 	C 	0.3409	0.2516	0.8006	0.033
Mof_C 	C 	0.306	0.2223	0.8331	-0.053
Mof_H 	H 	0.3451	0.2042	0.851	0.044
Mof_C 	C 	0.2177	0.2183	0.84056	-0.028
Mof_C 	C 	0.185	0.18611	0.87597	0.305
Mof_C 	C 	0.1606	0.2455	0.8159	-0.043
Mof_H 	H 	0.0992	0.2441	0.821	0.05
Mof_C 	C 	0.1944	0.2754	0.7829	-0.014
Mof_H 	H 	0.1551	0.294	0.7655	0.039
Mof_C 	C 	0.1622	0.2585	0.8243	-0.007
Mof_H 	H 	0.1051	0.2646	0.8353	0.021
Mof_C 	C 	0.1974	0.2871	0.792	0.017
Mof_H 	H 	0.1635	0.3137	0.7805	0.018
Mof_N 	N 	0.4197	0.2274	0.7782	0.004
Mof_H 	H 	0.4434	0.2548	0.7672	-0.219
Mof_H 	H 	0.4526	0.2174	0.7999	0.145
Mof_C 	C 	0.3358	0.2383	0.7919	0.088
Mof_C 	C 	0.3016	0.2086	0.8251	-0.039
Mof_H 	H 	0.3354	0.1822	0.8369	0.048
Mof_O 	O 	0.2623	0.8386	0.22041	-0.51
Mof_O 	O 	0.3961	0.81382	0.23236	-0.554
Mof_O 	O 	0.2383	0.66241	0.39867	-0.502
Mof_O 	O 	0.1038	0.6826	0.38271	-0.505
Mof_N 	N 	0.4309	0.7495	0.2948	-0.357
Mof_H 	H 	0.4476	0.7693	0.2734	0.398
Mof_H 	H 	0.4587	0.7595	0.3184	0.12
Mof_C 	C 	0.315	0.8115	0.24101	0.344
Mof_C 	C 	0.2828	0.7782	0.27527	-0.12
Mof_C 	C 	0.3409	0.7516	0.3006	0.033
Mof_C 	C 	0.306	0.7223	0.3331	-0.053
Mof_H 	H 	0.3451	0.7042	0.351	0.044
Mof_C 	C 	0.2177	0.7183	0.34056	-0.028
Mof_C 	C 	0.185	0.68611	0.37597	0.305
Mof_C 	C 	0.1606	0.7455	0.3159	-0.043
Mof_H 	H 	0.0992	0.7441	0.321	0.05
Mof_C 	C 	0.1944	0.7754	0.2829	-0.014
Mof_H 	H 	0.1551	0.794	0.2655	0.039
Mof_C 	C 	0.1622	0.7585	0.3243	-0.007
Mof_H 	H 	0.1051	0.7646	0.3353	0.021
Mof_C 	C 	0.1974	0.7871	0.292	0.017
Mof_H 	H 	0.1635	0.8137	0.2805	0.018
Mof_N 	N 	0.4197	0.7274	0.2782	0.004
Mof_H 	H 	0.4434	0.7548	0.2672	-0.219
Mof_H 	H 	0.4526	0.7174	0.2999	0.145
Mof_C 	C 	0.3358	0.7383	0.2919	0.088
Mof_C 	C 	0.3016	0.7086	0.3251	-0.039
Mof_H 	H 	0.3354	0.6822	0.3369	0.048
Mof_O 	O 	0.7623	0.3386	0.22041	-0.51
Mof_O 	O 	0.8961	0.31382	0.23236	-0.554
Mof_O 	O 	0.7383	0.16241	0.39867	-0.502
Mof_O 	O 	0.6038	0.1826	0.38271	-0.505
Mof_N 	N 	0.9309	0.2495	0.2948	-0.357
Mof_H 	H 	0.9476	0.2693	0.2734	0.398
Mof_H 	H 	0.9587	0.2595	0.3184	0.12
Mof_C 	C 	0.815	0.3115	0.24101	0.344
Mof_C 	C 	0.7828	0.2782	0.27527	-0.12
Mof_C 	C 	0.8409	0.2516	0.3006	0.033
Mof_C 	C 	0.806	0.2223	0.3331	-0.053
Mof_H 	H 	0.8451	0.2042	0.351	0.044
Mof_C 	C 	0.7177	0.2183	0.34056	-0.028
Mof_C 	C 	0.685	0.18611	0.37597	0.305
Mof_C 	C 	0.6606	0.2455	0.3159	-0.043
Mof_H 	H 	0.5992	0.2441	0.321	0.05
Mof_C 	C 	0.6944	0.2754	0.2829	-0.014
Mof_H 	H 	0.6551	0.294	0.2655	0.039
Mof_C 	C 	0.6622	0.2585	0.3243	-0.007
Mof_H 	H 	0.6051	0.2646	0.3353	0.021
Mof_C 	C 	0.6974	0.2871	0.292	0.017
Mof_H 	H 	0.6635	0.3137	0.2805	0.018
Mof_N 	N 	0.9197	0.2274	0.2782	0.004
Mof_H 	H 	0.9434	0.2548	0.2672	-0.219
Mof_H 	H 	0.9526	0.2174	0.2999	0.145
Mof_C 	C 	0.8358	0.2383	0.2919	0.088
Mof_C 	C 	0.8016	0.2086	0.3251	-0.039
Mof_H 	H 	0.8354	0.1822	0.3369	0.048
Mof_O 	O 	0.7623	0.8386	0.72041	-0.51
Mof_O 	O 	0.8961	0.81382	0.73236	-0.554
Mof_O 	O 	0.7383	0.66241	0.89867	-0.502
Mof_O 	O 	0.6038	0.6826	0.88271	-0.505
Mof_N 	N 	0.9309	0.7495	0.7948	-0.357
Mof_H 	H 	0.9476	0.7693	0.7734	0.398
Mof_H 	H 	0.9587	0.7595	0.8184	0.12
Mof_C 	C 	0.815	0.8115	0.74101	0.344
Mof_C 	C 	0.7828	0.7782	0.77527	-0.12
Mof_C 	C 	0.8409	0.7516	0.8006	0.033
Mof_C 	C 	0.806	0.7223	0.8331	-0.053
Mof_H 	H 	0.8451	0.7042	0.851	0.044
Mof_C 	C 	0.7177	0.7183	0.84056	-0.028
Mof_C 	C 	0.685	0.68611	0.87597	0.305
Mof_C 	C 	0.6606	0.7455	0.8159	-0.043
Mof_H 	H 	0.5992	0.7441	0.821	0.05
Mof_C 	C 	0.6944	0.7754	0.7829	-0.014
Mof_H 	H 	0.6551	0.794	0.7655	0.039
Mof_C 	C 	0.6622	0.7585	0.8243	-0.007
Mof_H 	H 	0.6051	0.7646	0.8353	0.021
Mof_C 	C 	0.6974	0.7871	0.792	0.017
Mof_H 	H 	0.6635	0.8137	0.7805	0.018
Mof_N 	N 	0.9197	0.7274	0.7782	0.004
Mof_H 	H 	0.9434	0.7548	0.7672	-0.22
Mof_H 	H 	0.9526	0.7174	0.7999	0.145
Mof_C 	C 	0.8358	0.7383	0.7919	0.088
Mof_C 	C 	0.8016	0.7086	0.8251	-0.039
Mof_H 	H 	0.8354	0.6822	0.8369	0.048
Mof_O 	O 	0.7377	0.5886	0.97041	-0.51
Mof_O 	O 	0.6039	0.56382	0.98236	-0.554
Mof_O 	O 	0.7617	0.41241	0.14867	-0.502
Mof_O 	O 	0.8962	0.4326	0.13271	-0.505
Mof_N 	N 	0.5691	0.4995	0.0448	-0.357
Mof_H 	H 	0.5524	0.5193	0.0234	0.398
Mof_H 	H 	0.5413	0.5095	0.0684	0.12
Mof_C 	C 	0.685	0.5615	0.99101	0.344
Mof_C 	C 	0.7172	0.5282	0.02527	-0.12
Mof_C 	C 	0.6591	0.5016	0.0506	0.033
Mof_C 	C 	0.694	0.4723	0.0831	-0.053
Mof_H 	H 	0.6549	0.4542	0.101	0.044
Mof_C 	C 	0.7823	0.4683	0.09056	-0.028
Mof_C 	C 	0.815	0.43611	0.12597	0.305
Mof_C 	C 	0.8394	0.4955	0.0659	-0.043
Mof_H 	H 	0.9008	0.4941	0.071	0.05
Mof_C 	C 	0.8056	0.5254	0.0329	-0.014
Mof_H 	H 	0.8449	0.544	0.0155	0.039
Mof_C 	C 	0.8378	0.5085	0.0743	-0.007
Mof_H 	H 	0.8949	0.5146	0.0853	0.021
Mof_C 	C 	0.8026	0.5371	0.042	0.017
Mof_H 	H 	0.8365	0.5637	0.0305	0.018
Mof_N 	N 	0.5803	0.4774	0.0282	0.004
Mof_H 	H 	0.5566	0.5048	0.0172	-0.219
Mof_H 	H 	0.5474	0.4674	0.0499	0.145
Mof_C 	C 	0.6642	0.4883	0.0419	0.088
Mof_C 	C 	0.6984	0.4586	0.0751	-0.039
Mof_H 	H 	0.6646	0.4322	0.0869	0.048
Mof_O 	O 	0.7377	0.0886	0.47041	-0.51
Mof_O 	O 	0.6039	0.06382	0.48236	-0.554
Mof_O 	O 	0.7617	0.91241	0.64867	-0.502
Mof_O 	O 	0.8962	0.9326	0.63271	-0.505
Mof_N 	N 	0.5691	0.9995	0.5448	-0.357
Mof_H 	H 	0.5524	0.0193	0.5234	0.398
Mof_H 	H 	0.5413	0.0095	0.5684	0.12
Mof_C 	C 	0.685	0.0615	0.49101	0.344
Mof_C 	C 	0.7172	0.0282	0.52527	-0.12
Mof_C 	C 	0.6591	0.0016	0.5506	0.033
Mof_C 	C 	0.694	0.9723	0.5831	-0.053
Mof_H 	H 	0.6549	0.9542	0.601	0.044
Mof_C 	C 	0.7823	0.9683	0.59056	-0.028
Mof_C 	C 	0.815	0.93611	0.62597	0.305
Mof_C 	C 	0.8394	0.9955	0.5659	-0.043
Mof_H 	H 	0.9008	0.9941	0.571	0.05
Mof_C 	C 	0.8056	0.0254	0.5329	-0.014
Mof_H 	H 	0.8449	0.044	0.5155	0.038
Mof_C 	C 	0.8378	0.0085	0.5743	-0.007
Mof_H 	H 	0.8949	0.0146	0.5853	0.021
Mof_C 	C 	0.8026	0.0371	0.542	0.017
Mof_H 	H 	0.8365	0.0637	0.5305	0.018
Mof_N 	N 	0.5803	0.9774	0.5282	0.004
Mof_H 	H 	0.5566	0.0048	0.5172	-0.219
Mof_H 	H 	0.5474	0.9674	0.5499	0.145
Mof_C 	C 	0.6642	0.9883	0.5419	0.088
Mof_C 	C 	0.6984	0.9586	0.5751	-0.039
Mof_H 	H 	0.6646	0.9322	0.5869	0.048
Mof_O 	O 	0.2377	0.5886	0.47041	-0.51
Mof_O 	O 	0.1039	0.56382	0.48236	-0.554
Mof_O 	O 	0.2617	0.41241	0.64867	-0.502
Mof_O 	O 	0.3962	0.4326	0.63271	-0.505
Mof_N 	N 	0.0691	0.4995	0.5448	-0.357
Mof_H 	H 	0.0524	0.5193	0.5234	0.398
Mof_H 	H 	0.0413	0.5095	0.5684	0.12
Mof_C 	C 	0.185	0.5615	0.49101	0.344
Mof_C 	C 	0.2172	0.5282	0.52527	-0.12
Mof_C 	C 	0.1591	0.5016	0.5506	0.033
Mof_C 	C 	0.194	0.4723	0.5831	-0.053
Mof_H 	H 	0.1549	0.4542	0.601	0.044
Mof_C 	C 	0.2823	0.4683	0.59056	-0.028
Mof_C 	C 	0.315	0.43611	0.62597	0.305
Mof_C 	C 	0.3394	0.4955	0.5659	-0.043
Mof_H 	H 	0.4008	0.4941	0.571	0.05
Mof_C 	C 	0.3056	0.5254	0.5329	-0.014
Mof_H 	H 	0.3449	0.544	0.5155	0.039
Mof_C 	C 	0.3378	0.5085	0.5743	-0.007
Mof_H 	H 	0.3949	0.5146	0.5853	0.021
Mof_C 	C 	0.3026	0.5371	0.542	0.017
Mof_H 	H 	0.3365	0.5637	0.5305	0.018
Mof_N 	N 	0.0803	0.4774	0.5282	0.004
Mof_H 	H 	0.0566	0.5048	0.5172	-0.219
Mof_H 	H 	0.0474	0.4674	0.5499	0.145
Mof_C 	C 	0.1642	0.4883	0.5419	0.088
Mof_C 	C 	0.1984	0.4586	0.5751	-0.039
Mof_H 	H 	0.1646	0.4322	0.5869	0.048
Mof_O 	O 	0.2377	0.0886	0.97041	-0.51
Mof_O 	O 	0.1039	0.06382	0.98236	-0.554
Mof_O 	O 	0.2617	0.91241	0.14867	-0.502
Mof_O 	O 	0.3962	0.9326	0.13271	-0.505
Mof_N 	N 	0.0691	0.9995	0.0448	-0.356
Mof_H 	H 	0.0524	0.0193	0.0234	0.397
Mof_H 	H 	0.0413	0.0095	0.0684	0.12
Mof_C 	C 	0.185	0.0615	0.99101	0.344
Mof_C 	C 	0.2172	0.0282	0.02527	-0.121
Mof_C 	C 	0.1591	0.0016	0.0506	0.035
Mof_C 	C 	0.194	0.9723	0.0831	-0.052
Mof_H 	H 	0.1549	0.9542	0.101	0.044
Mof_C 	C 	0.2823	0.9683	0.09056	-0.028
Mof_C 	C 	0.315	0.93611	0.12597	0.305
Mof_C 	C 	0.3394	0.9955	0.0659	-0.044
Mof_H 	H 	0.4008	0.9941	0.071	0.051
Mof_C 	C 	0.3056	0.0254	0.0329	-0.014
Mof_H 	H 	0.3449	0.044	0.0155	0.038
Mof_C 	C 	0.3378	0.0085	0.0743	-0.006
Mof_H 	H 	0.3949	0.0146	0.0853	0.021
Mof_C 	C 	0.3026	0.0371	0.042	0.017
Mof_H 	H 	0.3365	0.0637	0.0305	0.018
Mof_N 	N 	0.0803	0.9774	0.0282	0.004
Mof_H 	H 	0.0566	0.0048	0.0172	-0.218
Mof_H 	H 	0.0474	0.9674	0.0499	0.145
Mof_C 	C 	0.1642	0.9883	0.0419	0.086
Mof_C 	C 	0.1984	0.9586	0.0751	-0.039
Mof_H 	H 	0.1646	0.9322	0.0869	0.048
Mof_O 	O 	0.5123	0.6614	0.97041	-0.51
Mof_O 	O 	0.6461	0.68618	0.98236	-0.554
Mof_O 	O 	0.4883	0.83759	0.14867	-0.502
Mof_O 	O 	0.3538	0.8174	0.13271	-0.505
Mof_N 	N 	0.6809	0.7505	0.0448	-0.357
Mof_H 	H 	0.6976	0.7307	0.0234	0.398
Mof_H 	H 	0.7087	0.7405	0.0684	0.12
Mof_C 	C 	0.565	0.6885	0.99101	0.344
Mof_C 	C 	0.5328	0.7218	0.02527	-0.12
Mof_C 	C 	0.5909	0.7484	0.0506	0.033
Mof_C 	C 	0.556	0.7777	0.0831	-0.053
Mof_H 	H 	0.5951	0.7958	0.101	0.044
Mof_C 	C 	0.4677	0.7817	0.09056	-0.028
Mof_C 	C 	0.435	0.81389	0.12597	0.305
Mof_C 	C 	0.4106	0.7545	0.0659	-0.043
Mof_H 	H 	0.3492	0.7559	0.071	0.05
Mof_C 	C 	0.4444	0.7246	0.0329	-0.014
Mof_H 	H 	0.4051	0.706	0.0155	0.039
Mof_C 	C 	0.4122	0.7415	0.0743	-0.007
Mof_H 	H 	0.3551	0.7354	0.0853	0.021
Mof_C 	C 	0.4474	0.7129	0.042	0.017
Mof_H 	H 	0.4135	0.6863	0.0305	0.018
Mof_N 	N 	0.6697	0.7726	0.0282	0.004
Mof_H 	H 	0.6934	0.7452	0.0172	-0.219
Mof_H 	H 	0.7026	0.7826	0.0499	0.145
Mof_C 	C 	0.5858	0.7617	0.0419	0.088
Mof_C 	C 	0.5516	0.7914	0.0751	-0.039
Mof_H 	H 	0.5854	0.8178	0.0869	0.048
Mof_O 	O 	0.5123	0.1614	0.47041	-0.51
Mof_O 	O 	0.6461	0.18618	0.48236	-0.554
Mof_O 	O 	0.4883	0.33759	0.64867	-0.502
Mof_O 	O 	0.3538	0.3174	0.63271	-0.505
Mof_N 	N 	0.6809	0.2505	0.5448	-0.357
Mof_H 	H 	0.6976	0.2307	0.5234	0.398
Mof_H 	H 	0.7087	0.2405	0.5684	0.12
Mof_C 	C 	0.565	0.1885	0.49101	0.344
Mof_C 	C 	0.5328	0.2218	0.52527	-0.12
Mof_C 	C 	0.5909	0.2484	0.5506	0.033
Mof_C 	C 	0.556	0.2777	0.5831	-0.053
Mof_H 	H 	0.5951	0.2958	0.601	0.044
Mof_C 	C 	0.4677	0.2817	0.59056	-0.028
Mof_C 	C 	0.435	0.31389	0.62597	0.305
Mof_C 	C 	0.4106	0.2545	0.5659	-0.043
Mof_H 	H 	0.3492	0.2559	0.571	0.05
Mof_C 	C 	0.4444	0.2246	0.5329	-0.014
Mof_H 	H 	0.4051	0.206	0.5155	0.039
Mof_C 	C 	0.4122	0.2415	0.5743	-0.007
Mof_H 	H 	0.3551	0.2354	0.5853	0.021
Mof_C 	C 	0.4474	0.2129	0.542	0.017
Mof_H 	H 	0.4135	0.1863	0.5305	0.018
Mof_N 	N 	0.6697	0.2726	0.5282	0.004
Mof_H 	H 	0.6934	0.2452	0.5172	-0.219
Mof_H 	H 	0.7026	0.2826	0.5499	0.145
Mof_C 	C 	0.5858	0.2617	0.5419	0.088
Mof_C 	C 	0.5516	0.2914	0.5751	-0.039
Mof_H 	H 	0.5854	0.3178	0.5869	0.048
Mof_O 	O 	0.0123	0.6614	0.47041	-0.51
Mof_O 	O 	0.1461	0.68618	0.48236	-0.554
Mof_O 	O 	0.9883	0.83759	0.64867	-0.503
Mof_O 	O 	0.8538	0.8174	0.63271	-0.505
Mof_N 	N 	0.1809	0.7505	0.5448	-0.357
Mof_H 	H 	0.1976	0.7307	0.5234	0.398
Mof_H 	H 	0.2087	0.7405	0.5684	0.12
Mof_C 	C 	0.065	0.6885	0.49101	0.344
Mof_C 	C 	0.0328	0.7218	0.52527	-0.12
Mof_C 	C 	0.0909	0.7484	0.5506	0.033
Mof_C 	C 	0.056	0.7777	0.5831	-0.053
Mof_H 	H 	0.0951	0.7958	0.601	0.044
Mof_C 	C 	0.9677	0.7817	0.59056	-0.028
Mof_C 	C 	0.935	0.81389	0.62597	0.305
Mof_C 	C 	0.9106	0.7545	0.5659	-0.043
Mof_H 	H 	0.8492	0.7559	0.571	0.05
Mof_C 	C 	0.9444	0.7246	0.5329	-0.014
Mof_H 	H 	0.9051	0.706	0.5155	0.039
Mof_C 	C 	0.9122	0.7415	0.5743	-0.007
Mof_H 	H 	0.8551	0.7354	0.5853	0.021
Mof_C 	C 	0.9474	0.7129	0.542	0.017
Mof_H 	H 	0.9135	0.6863	0.5305	0.018
Mof_N 	N 	0.1697	0.7726	0.5282	0.004
Mof_H 	H 	0.1934	0.7452	0.5172	-0.219
Mof_H 	H 	0.2026	0.7826	0.5499	0.145
Mof_C 	C 	0.0858	0.7617	0.5419	0.088
Mof_C 	C 	0.0516	0.7914	0.5751	-0.039
Mof_H 	H 	0.0854	0.8178	0.5869	0.048
Mof_O 	O 	0.0123	0.1614	0.97041	-0.51
Mof_O 	O 	0.1461	0.18618	0.98236	-0.554
Mof_O 	O 	0.9883	0.33759	0.14867	-0.502
Mof_O 	O 	0.8538	0.3174	0.13271	-0.505
Mof_N 	N 	0.1809	0.2505	0.0448	-0.357
Mof_H 	H 	0.1976	0.2307	0.0234	0.398
Mof_H 	H 	0.2087	0.2405	0.0684	0.12
Mof_C 	C 	0.065	0.1885	0.99101	0.344
Mof_C 	C 	0.0328	0.2218	0.02527	-0.121
Mof_C 	C 	0.0909	0.2484	0.0506	0.033
Mof_C 	C 	0.056	0.2777	0.0831	-0.053
Mof_H 	H 	0.0951	0.2958	0.101	0.044
Mof_C 	C 	0.9677	0.2817	0.09056	-0.028
Mof_C 	C 	0.935	0.31389	0.12597	0.305
Mof_C 	C 	0.9106	0.2545	0.0659	-0.043
Mof_H 	H 	0.8492	0.2559	0.071	0.05
Mof_C 	C 	0.9444	0.2246	0.0329	-0.014
Mof_H 	H 	0.9051	0.206	0.0155	0.038
Mof_C 	C 	0.9122	0.2415	0.0743	-0.007
Mof_H 	H 	0.8551	0.2354	0.0853	0.021
Mof_C 	C 	0.9474	0.2129	0.042	0.017
Mof_H 	H 	0.9135	0.1863	0.0305	0.018
Mof_N 	N 	0.1697	0.2726	0.0282	0.004
Mof_H 	H 	0.1934	0.2452	0.0172	-0.22
Mof_H 	H 	0.2026	0.2826	0.0499	0.145
Mof_C 	C 	0.0858	0.2617	0.0419	0.088
Mof_C 	C 	0.0516	0.2914	0.0751	-0.039
Mof_H 	H 	0.0854	0.3178	0.0869	0.048
Mof_In	In	0.375	0.375	0.68445	2.556
Mof_In	In	0.375	0.875	0.18445	2.556
Mof_In	In	0.875	0.375	0.18445	2.556
Mof_In	In	0.875	0.875	0.68445	2.556
Mof_In	In	0.625	0.625	0.93445	2.556
Mof_In	In	0.625	0.125	0.43445	2.556
Mof_In	In	0.125	0.625	0.43445	2.556
Mof_In	In	0.125	0.125	0.93445	2.556
_end
