data_functionalizedCrystal
_audit_creation_method	'EQeq! by Chris Wilmer'
_symmetry_space_group_name_H-M	'P1'
_symmetry_Int_Tables_number	1
_symmetry_cell_setting	triclinic
loop_
_symmetry_equiv_pos_as_xyz
  x,y,z
_cell_length_a	26.4938
_cell_length_b	14.5214
_cell_length_c	25.6071
_cell_angle_alpha	90
_cell_angle_beta	114.285
_cell_angle_gamma	90
loop_
_atom_site_label
_atom_site_type_symbol
_atom_site_fract_x
_atom_site_fract_y
_atom_site_fract_z
_atom_site_charge
Mof_Nd	Nd	0.21414	0.86739	0.31003	2.794
Mof_Nd	Nd	0.16455	0.08841	0.19715	2.629
Mof_O 	O 	0.128	0.9409	0.2334	-0.677
Mof_O 	O 	0.2187	0.0535	0.3	-0.702
Mof_O 	O 	0.2832	0.371	0.2812	-0.676
Mof_C 	C 	0.3012	0.3059	0.3714	-0.305
Mof_O 	O 	0.0824	0.0703	0.2236	-0.513
Mof_O 	O 	0.2672	0.9868	0.3831	-0.529
Mof_O 	O 	0.0848	0.9257	0.6003	-0.463
Mof_O 	O 	0.262	0.7735	0.3963	-0.612
Mof_H 	H 	0.2415	0.7654	0.4126	0.323
Mof_O 	O 	0.1589	0.852	0.6046	-0.439
Mof_O 	O 	0.1768	0.7756	0.4252	-0.329
Mof_O 	O 	0.3296	0.2222	0.2231	-0.629
Mof_O 	O 	0.3063	0.8358	0.3195	-0.61
Mof_C 	C 	0.1532	0.8486	0.403	0.432
Mof_C 	C 	0.2532	0.0576	0.3537	0.485
Mof_C 	C 	0.2765	0.2215	0.3461	0.231
Mof_H 	H 	0.2597	0.2161	0.3064	-0.073
Mof_C 	C 	0.0426	0.9337	0.243	-0.232
Mof_O 	O 	0.1559	0.8854	0.3594	-0.589
Mof_C 	C 	0.277	0.1473	0.3798	-0.281
Mof_C 	C 	0.1292	0.873	0.4865	0.05
Mof_H 	H 	0.1539	0.826	0.5051	0.054
Mof_C 	C 	0.1011	0.9188	0.5153	-0.09
Mof_C 	C 	0.1142	0.8973	0.5764	0.32
Mof_C 	C 	0.1206	0.8969	0.431	-0.142
Mof_C 	C 	0.0871	0.9867	0.2336	0.454
Mof_C 	C 	0.0838	0.9674	0.4041	0.061
Mof_H 	H 	0.0786	0.9855	0.3674	0.018
Mof_C 	C 	0.0411	0.8385	0.2441	0.185
Mof_H 	H 	0.0697	0.8058	0.2406	-0.038
Mof_C 	C 	0.0544	0.0115	0.4313	-0.119
Mof_H 	H 	0.0287	0.0569	0.4121	0.081
Mof_O 	O 	0.2577	0.1379	0.2179	-0.635
Mof_O 	O 	0.3546	0.7431	0.2874	-0.61
Mof_O 	O 	0.3173	0.4612	0.3564	-0.582
Mof_C 	C 	0.3573	0.9059	0.2724	-0.344
Mof_C 	C 	0.3433	0.0627	0.2403	-0.345
Mof_C 	C 	0.3078	0.1473	0.2263	0.608
Mof_C 	C 	0.3285	0.9853	0.2627	0.315
Mof_H 	H 	0.2977	0.9884	0.2714	-0.13
Mof_C 	C 	0.3009	0.3843	0.3344	0.585
Mof_C 	C 	0.3266	0.3119	0.4301	0.203
Mof_H 	H 	0.344	0.3663	0.4474	-0.027
Mof_C 	C 	0.3381	0.823	0.2948	0.587
Mof_C 	C 	0.4038	0.899	0.2605	0.228
Mof_H 	H 	0.4235	0.8442	0.2663	-0.041
Mof_C 	C 	0.0636	0.9879	0.4864	0.041
Mof_H 	H 	0.0444	0.0185	0.5046	0.032
Mof_C 	C 	0.3912	0.0594	0.2302	0.228
Mof_H 	H 	0.4036	0.1112	0.2176	-0.043
Mof_C 	C 	0.302	0.1566	0.4386	0.194
Mof_H 	H 	0.3022	0.1068	0.4616	-0.021
Mof_C 	C 	0.4198	0.9766	0.2395	-0.289
Mof_H 	H 	0.4508	0.973	0.2314	0.127
Mof_C 	C 	0.3262	0.2372	0.4638	-0.266
Mof_H 	H 	0.3425	0.2422	0.5035	0.126
Mof_Nd	Nd	0.71414	0.36739	0.31003	2.792
Mof_Nd	Nd	0.66455	0.58841	0.19715	2.629
Mof_O 	O 	0.628	0.4409	0.2334	-0.678
Mof_O 	O 	0.7187	0.5535	0.3	-0.703
Mof_O 	O 	0.7832	0.871	0.2812	-0.677
Mof_C 	C 	0.8012	0.8059	0.3714	-0.306
Mof_O 	O 	0.5824	0.5703	0.2236	-0.514
Mof_O 	O 	0.7672	0.4868	0.3831	-0.53
Mof_O 	O 	0.5848	0.4257	0.6003	-0.464
Mof_O 	O 	0.762	0.2735	0.3963	-0.612
Mof_H 	H 	0.7415	0.2654	0.4126	0.322
Mof_O 	O 	0.6589	0.352	0.6046	-0.44
Mof_O 	O 	0.6768	0.2756	0.4252	-0.33
Mof_O 	O 	0.8296	0.7222	0.2231	-0.631
Mof_O 	O 	0.8063	0.3358	0.3195	-0.611
Mof_C 	C 	0.6532	0.3486	0.403	0.431
Mof_C 	C 	0.7532	0.5576	0.3537	0.485
Mof_C 	C 	0.7765	0.7215	0.3461	0.231
Mof_H 	H 	0.7597	0.7161	0.3064	-0.073
Mof_C 	C 	0.5426	0.4337	0.243	-0.231
Mof_O 	O 	0.6559	0.3854	0.3594	-0.589
Mof_C 	C 	0.777	0.6473	0.3798	-0.281
Mof_C 	C 	0.6292	0.373	0.4865	0.05
Mof_H 	H 	0.6539	0.326	0.5051	0.054
Mof_C 	C 	0.6011	0.4188	0.5153	-0.09
Mof_C 	C 	0.6142	0.3973	0.5764	0.32
Mof_C 	C 	0.6206	0.3969	0.431	-0.142
Mof_C 	C 	0.5871	0.4867	0.2336	0.453
Mof_C 	C 	0.5838	0.4674	0.4041	0.061
Mof_H 	H 	0.5786	0.4855	0.3674	0.018
Mof_C 	C 	0.5411	0.3385	0.2441	0.184
Mof_H 	H 	0.5697	0.3058	0.2406	-0.037
Mof_C 	C 	0.5544	0.5115	0.4313	-0.119
Mof_H 	H 	0.5287	0.5569	0.4121	0.081
Mof_O 	O 	0.7577	0.6379	0.2179	-0.635
Mof_O 	O 	0.8546	0.2431	0.2874	-0.61
Mof_O 	O 	0.8173	0.9612	0.3564	-0.582
Mof_C 	C 	0.8573	0.4059	0.2724	-0.344
Mof_C 	C 	0.8433	0.5627	0.2403	-0.345
Mof_C 	C 	0.8078	0.6473	0.2263	0.608
Mof_C 	C 	0.8285	0.4853	0.2627	0.314
Mof_H 	H 	0.7977	0.4884	0.2714	-0.13
Mof_C 	C 	0.8009	0.8843	0.3344	0.585
Mof_C 	C 	0.8266	0.8119	0.4301	0.203
Mof_H 	H 	0.844	0.8663	0.4474	-0.027
Mof_C 	C 	0.8381	0.323	0.2948	0.587
Mof_C 	C 	0.9038	0.399	0.2605	0.228
Mof_H 	H 	0.9235	0.3442	0.2663	-0.041
Mof_C 	C 	0.5636	0.4879	0.4864	0.041
Mof_H 	H 	0.5444	0.5185	0.5046	0.032
Mof_C 	C 	0.8912	0.5594	0.2302	0.229
Mof_H 	H 	0.9036	0.6112	0.2176	-0.043
Mof_C 	C 	0.802	0.6566	0.4386	0.194
Mof_H 	H 	0.8022	0.6068	0.4616	-0.021
Mof_C 	C 	0.9198	0.4766	0.2395	-0.29
Mof_H 	H 	0.9508	0.473	0.2314	0.127
Mof_C 	C 	0.8262	0.7372	0.4638	-0.266
Mof_H 	H 	0.8425	0.7422	0.5035	0.126
Mof_Nd	Nd	0.78586	0.86739	0.18997	2.793
Mof_Nd	Nd	0.83545	0.08841	0.30285	2.628
Mof_O 	O 	0.872	0.9409	0.2666	-0.678
Mof_O 	O 	0.7813	0.0535	0.2	-0.704
Mof_O 	O 	0.7168	0.371	0.2188	-0.677
Mof_C 	C 	0.6988	0.3059	0.1286	-0.307
Mof_O 	O 	0.9176	0.0703	0.2764	-0.514
Mof_O 	O 	0.7328	0.9868	0.1169	-0.529
Mof_O 	O 	0.9152	0.9257	0.8997	-0.465
Mof_O 	O 	0.738	0.7735	0.1037	-0.613
Mof_H 	H 	0.7585	0.7654	0.0874	0.322
Mof_O 	O 	0.8411	0.852	0.8954	-0.44
Mof_O 	O 	0.8232	0.7756	0.0748	-0.331
Mof_O 	O 	0.6704	0.2222	0.2769	-0.63
Mof_O 	O 	0.6937	0.8358	0.1805	-0.611
Mof_C 	C 	0.8468	0.8486	0.097	0.432
Mof_C 	C 	0.7468	0.0576	0.1463	0.485
Mof_C 	C 	0.7235	0.2215	0.1539	0.232
Mof_H 	H 	0.7403	0.2161	0.1936	-0.073
Mof_C 	C 	0.9574	0.9337	0.257	-0.232
Mof_O 	O 	0.8441	0.8854	0.1406	-0.589
Mof_C 	C 	0.723	0.1473	0.1202	-0.282
Mof_C 	C 	0.8708	0.873	0.0135	0.052
Mof_H 	H 	0.8461	0.826	0.9949	0.053
Mof_C 	C 	0.8989	0.9188	0.9847	-0.093
Mof_C 	C 	0.8858	0.8973	0.9236	0.321
Mof_C 	C 	0.8794	0.8969	0.069	-0.144
Mof_C 	C 	0.9129	0.9867	0.2664	0.454
Mof_C 	C 	0.9162	0.9674	0.0959	0.065
Mof_H 	H 	0.9214	0.9855	0.1326	0.017
Mof_C 	C 	0.9589	0.8385	0.2559	0.185
Mof_H 	H 	0.9303	0.8058	0.2594	-0.038
Mof_C 	C 	0.9456	0.0115	0.0687	-0.124
Mof_H 	H 	0.9713	0.0569	0.0879	0.083
Mof_O 	O 	0.7423	0.1379	0.2821	-0.635
Mof_O 	O 	0.6454	0.7431	0.2126	-0.61
Mof_O 	O 	0.6827	0.4612	0.1436	-0.583
Mof_C 	C 	0.6427	0.9059	0.2276	-0.344
Mof_C 	C 	0.6567	0.0627	0.2597	-0.345
Mof_C 	C 	0.6922	0.1473	0.2737	0.608
Mof_C 	C 	0.6715	0.9853	0.2373	0.315
Mof_H 	H 	0.7023	0.9884	0.2286	-0.13
Mof_C 	C 	0.6991	0.3843	0.1656	0.585
Mof_C 	C 	0.6734	0.3119	0.0699	0.204
Mof_H 	H 	0.656	0.3663	0.0526	-0.028
Mof_C 	C 	0.6619	0.823	0.2052	0.587
Mof_C 	C 	0.5962	0.899	0.2395	0.228
Mof_H 	H 	0.5765	0.8442	0.2337	-0.041
Mof_C 	C 	0.9364	0.9879	0.0136	0.045
Mof_H 	H 	0.9556	0.0185	0.9954	0.031
Mof_C 	C 	0.6088	0.0594	0.2698	0.228
Mof_H 	H 	0.5964	0.1112	0.2824	-0.043
Mof_C 	C 	0.698	0.1566	0.0614	0.195
Mof_H 	H 	0.6978	0.1068	0.0384	-0.022
Mof_C 	C 	0.5802	0.9766	0.2605	-0.289
Mof_H 	H 	0.5492	0.973	0.2686	0.127
Mof_C 	C 	0.6738	0.2372	0.0362	-0.268
Mof_H 	H 	0.6575	0.2422	0.9965	0.127
Mof_Nd	Nd	0.28586	0.36739	0.18997	2.792
Mof_Nd	Nd	0.33545	0.58841	0.30285	2.629
Mof_O 	O 	0.372	0.4409	0.2666	-0.678
Mof_O 	O 	0.2813	0.5535	0.2	-0.703
Mof_O 	O 	0.2168	0.871	0.2188	-0.677
Mof_C 	C 	0.1988	0.8059	0.1286	-0.305
Mof_O 	O 	0.4176	0.5703	0.2764	-0.514
Mof_O 	O 	0.2328	0.4868	0.1169	-0.53
Mof_O 	O 	0.4152	0.4257	0.8997	-0.464
Mof_O 	O 	0.238	0.2735	0.1037	-0.612
Mof_H 	H 	0.2585	0.2654	0.0874	0.322
Mof_O 	O 	0.3411	0.352	0.8954	-0.44
Mof_O 	O 	0.3232	0.2756	0.0748	-0.331
Mof_O 	O 	0.1704	0.7222	0.2769	-0.63
Mof_O 	O 	0.1937	0.3358	0.1805	-0.611
Mof_C 	C 	0.3468	0.3486	0.097	0.431
Mof_C 	C 	0.2468	0.5576	0.1463	0.485
Mof_C 	C 	0.2235	0.7215	0.1539	0.23
Mof_H 	H 	0.2403	0.7161	0.1936	-0.072
Mof_C 	C 	0.4574	0.4337	0.257	-0.231
Mof_O 	O 	0.3441	0.3854	0.1406	-0.589
Mof_C 	C 	0.223	0.6473	0.1202	-0.28
Mof_C 	C 	0.3708	0.373	0.0135	0.049
Mof_H 	H 	0.3461	0.326	0.9949	0.054
Mof_C 	C 	0.3989	0.4188	0.9847	-0.09
Mof_C 	C 	0.3858	0.3973	0.9236	0.32
Mof_C 	C 	0.3794	0.3969	0.069	-0.141
Mof_C 	C 	0.4129	0.4867	0.2664	0.453
Mof_C 	C 	0.4162	0.4674	0.0959	0.061
Mof_H 	H 	0.4214	0.4855	0.1326	0.018
Mof_C 	C 	0.4589	0.3385	0.2559	0.184
Mof_H 	H 	0.4303	0.3058	0.2594	-0.037
Mof_C 	C 	0.4456	0.5115	0.0687	-0.119
Mof_H 	H 	0.4713	0.5569	0.0879	0.081
Mof_O 	O 	0.2423	0.6379	0.2821	-0.635
Mof_O 	O 	0.1454	0.2431	0.2126	-0.61
Mof_O 	O 	0.1827	0.9612	0.1436	-0.582
Mof_C 	C 	0.1427	0.4059	0.2276	-0.344
Mof_C 	C 	0.1567	0.5627	0.2597	-0.345
Mof_C 	C 	0.1922	0.6473	0.2737	0.608
Mof_C 	C 	0.1715	0.4853	0.2373	0.314
Mof_H 	H 	0.2023	0.4884	0.2286	-0.13
Mof_C 	C 	0.1991	0.8843	0.1656	0.585
Mof_C 	C 	0.1734	0.8119	0.0699	0.201
Mof_H 	H 	0.156	0.8663	0.0526	-0.026
Mof_C 	C 	0.1619	0.323	0.2052	0.587
Mof_C 	C 	0.0962	0.399	0.2395	0.228
Mof_H 	H 	0.0765	0.3442	0.2337	-0.041
Mof_C 	C 	0.4364	0.4879	0.0136	0.041
Mof_H 	H 	0.4556	0.5185	0.9954	0.032
Mof_C 	C 	0.1088	0.5594	0.2698	0.229
Mof_H 	H 	0.0964	0.6112	0.2824	-0.043
Mof_C 	C 	0.198	0.6566	0.0614	0.192
Mof_H 	H 	0.1978	0.6068	0.0384	-0.02
Mof_C 	C 	0.0802	0.4766	0.2605	-0.29
Mof_H 	H 	0.0492	0.473	0.2686	0.127
Mof_C 	C 	0.1738	0.7372	0.0362	-0.262
Mof_H 	H 	0.1575	0.7422	0.9965	0.124
Mof_Nd	Nd	0.78586	0.13261	0.68997	2.793
Mof_Nd	Nd	0.83545	0.91159	0.80285	2.628
Mof_O 	O 	0.872	0.0591	0.7666	-0.678
Mof_O 	O 	0.7813	0.9465	0.7	-0.703
Mof_O 	O 	0.7168	0.629	0.7188	-0.677
Mof_C 	C 	0.6988	0.6941	0.6286	-0.306
Mof_O 	O 	0.9176	0.9297	0.7764	-0.514
Mof_O 	O 	0.7328	0.0132	0.6169	-0.53
Mof_O 	O 	0.9152	0.0743	0.3997	-0.464
Mof_O 	O 	0.738	0.2265	0.6037	-0.613
Mof_H 	H 	0.7585	0.2346	0.5874	0.322
Mof_O 	O 	0.8411	0.148	0.3954	-0.44
Mof_O 	O 	0.8232	0.2244	0.5748	-0.33
Mof_O 	O 	0.6704	0.7778	0.7769	-0.63
Mof_O 	O 	0.6937	0.1642	0.6805	-0.611
Mof_C 	C 	0.8468	0.1514	0.597	0.432
Mof_C 	C 	0.7468	0.9424	0.6463	0.485
Mof_C 	C 	0.7235	0.7785	0.6539	0.231
Mof_H 	H 	0.7403	0.7839	0.6936	-0.073
Mof_C 	C 	0.9574	0.0663	0.757	-0.232
Mof_O 	O 	0.8441	0.1146	0.6406	-0.589
Mof_C 	C 	0.723	0.8527	0.6202	-0.281
Mof_C 	C 	0.8708	0.127	0.5135	0.05
Mof_H 	H 	0.8461	0.174	0.4949	0.054
Mof_C 	C 	0.8989	0.0812	0.4847	-0.09
Mof_C 	C 	0.8858	0.1027	0.4236	0.32
Mof_C 	C 	0.8794	0.1031	0.569	-0.142
Mof_C 	C 	0.9129	0.0133	0.7664	0.454
Mof_C 	C 	0.9162	0.0326	0.5959	0.061
Mof_H 	H 	0.9214	0.0145	0.6326	0.018
Mof_C 	C 	0.9589	0.1615	0.7559	0.186
Mof_H 	H 	0.9303	0.1942	0.7594	-0.038
Mof_C 	C 	0.9456	0.9885	0.5687	-0.119
Mof_H 	H 	0.9713	0.9431	0.5879	0.081
Mof_O 	O 	0.7423	0.8621	0.7821	-0.635
Mof_O 	O 	0.6454	0.2569	0.7126	-0.61
Mof_O 	O 	0.6827	0.5388	0.6436	-0.582
Mof_C 	C 	0.6427	0.0941	0.7276	-0.344
Mof_C 	C 	0.6567	0.9373	0.7597	-0.345
Mof_C 	C 	0.6922	0.8527	0.7737	0.608
Mof_C 	C 	0.6715	0.0147	0.7373	0.315
Mof_H 	H 	0.7023	0.0116	0.7286	-0.13
Mof_C 	C 	0.6991	0.6157	0.6656	0.585
Mof_C 	C 	0.6734	0.6881	0.5699	0.203
Mof_H 	H 	0.656	0.6337	0.5526	-0.027
Mof_C 	C 	0.6619	0.177	0.7052	0.587
Mof_C 	C 	0.5962	0.101	0.7395	0.228
Mof_H 	H 	0.5765	0.1558	0.7337	-0.041
Mof_C 	C 	0.9364	0.0121	0.5136	0.041
Mof_H 	H 	0.9556	0.9815	0.4954	0.032
Mof_C 	C 	0.6088	0.9406	0.7698	0.228
Mof_H 	H 	0.5964	0.8888	0.7824	-0.043
Mof_C 	C 	0.698	0.8434	0.5614	0.194
Mof_H 	H 	0.6978	0.8932	0.5384	-0.021
Mof_C 	C 	0.5802	0.0234	0.7605	-0.289
Mof_H 	H 	0.5492	0.027	0.7686	0.127
Mof_C 	C 	0.6738	0.7628	0.5362	-0.266
Mof_H 	H 	0.6575	0.7578	0.4965	0.126
Mof_Nd	Nd	0.28586	0.63261	0.68997	2.792
Mof_Nd	Nd	0.33545	0.41159	0.80285	2.629
Mof_O 	O 	0.372	0.5591	0.7666	-0.678
Mof_O 	O 	0.2813	0.4465	0.7	-0.703
Mof_O 	O 	0.2168	0.129	0.7188	-0.677
Mof_C 	C 	0.1988	0.1941	0.6286	-0.306
Mof_O 	O 	0.4176	0.4297	0.7764	-0.514
Mof_O 	O 	0.2328	0.5132	0.6169	-0.53
Mof_O 	O 	0.4152	0.5743	0.3997	-0.464
Mof_O 	O 	0.238	0.7265	0.6037	-0.612
Mof_H 	H 	0.2585	0.7346	0.5874	0.322
Mof_O 	O 	0.3411	0.648	0.3954	-0.44
Mof_O 	O 	0.3232	0.7244	0.5748	-0.33
Mof_O 	O 	0.1704	0.2778	0.7769	-0.631
Mof_O 	O 	0.1937	0.6642	0.6805	-0.611
Mof_C 	C 	0.3468	0.6514	0.597	0.431
Mof_C 	C 	0.2468	0.4424	0.6463	0.485
Mof_C 	C 	0.2235	0.2785	0.6539	0.231
Mof_H 	H 	0.2403	0.2839	0.6936	-0.073
Mof_C 	C 	0.4574	0.5663	0.757	-0.231
Mof_O 	O 	0.3441	0.6146	0.6406	-0.589
Mof_C 	C 	0.223	0.3527	0.6202	-0.281
Mof_C 	C 	0.3708	0.627	0.5135	0.05
Mof_H 	H 	0.3461	0.674	0.4949	0.054
Mof_C 	C 	0.3989	0.5812	0.4847	-0.09
Mof_C 	C 	0.3858	0.6027	0.4236	0.32
Mof_C 	C 	0.3794	0.6031	0.569	-0.142
Mof_C 	C 	0.4129	0.5133	0.7664	0.453
Mof_C 	C 	0.4162	0.5326	0.5959	0.061
Mof_H 	H 	0.4214	0.5145	0.6326	0.018
Mof_C 	C 	0.4589	0.6615	0.7559	0.184
Mof_H 	H 	0.4303	0.6942	0.7594	-0.037
Mof_C 	C 	0.4456	0.4885	0.5687	-0.119
Mof_H 	H 	0.4713	0.4431	0.5879	0.081
Mof_O 	O 	0.2423	0.3621	0.7821	-0.635
Mof_O 	O 	0.1454	0.7569	0.7126	-0.61
Mof_O 	O 	0.1827	0.0388	0.6436	-0.582
Mof_C 	C 	0.1427	0.5941	0.7276	-0.344
Mof_C 	C 	0.1567	0.4373	0.7597	-0.345
Mof_C 	C 	0.1922	0.3527	0.7737	0.608
Mof_C 	C 	0.1715	0.5147	0.7373	0.314
Mof_H 	H 	0.2023	0.5116	0.7286	-0.13
Mof_C 	C 	0.1991	0.1157	0.6656	0.585
Mof_C 	C 	0.1734	0.1881	0.5699	0.203
Mof_H 	H 	0.156	0.1337	0.5526	-0.027
Mof_C 	C 	0.1619	0.677	0.7052	0.587
Mof_C 	C 	0.0962	0.601	0.7395	0.228
Mof_H 	H 	0.0765	0.6558	0.7337	-0.041
Mof_C 	C 	0.4364	0.5121	0.5136	0.041
Mof_H 	H 	0.4556	0.4815	0.4954	0.032
Mof_C 	C 	0.1088	0.4406	0.7698	0.229
Mof_H 	H 	0.0964	0.3888	0.7824	-0.043
Mof_C 	C 	0.198	0.3434	0.5614	0.194
Mof_H 	H 	0.1978	0.3932	0.5384	-0.021
Mof_C 	C 	0.0802	0.5234	0.7605	-0.29
Mof_H 	H 	0.0492	0.527	0.7686	0.127
Mof_C 	C 	0.1738	0.2628	0.5362	-0.266
Mof_H 	H 	0.1575	0.2578	0.4965	0.126
Mof_Nd	Nd	0.21414	0.13261	0.81003	2.793
Mof_Nd	Nd	0.16455	0.91159	0.69715	2.628
Mof_O 	O 	0.128	0.0591	0.7334	-0.678
Mof_O 	O 	0.2187	0.9465	0.8	-0.704
Mof_O 	O 	0.2832	0.629	0.7812	-0.677
Mof_C 	C 	0.3012	0.6941	0.8714	-0.307
Mof_O 	O 	0.0824	0.9297	0.7236	-0.514
Mof_O 	O 	0.2672	0.0132	0.8831	-0.529
Mof_O 	O 	0.0848	0.0743	0.1003	-0.465
Mof_O 	O 	0.262	0.2265	0.8963	-0.613
Mof_H 	H 	0.2415	0.2346	0.9126	0.322
Mof_O 	O 	0.1589	0.148	0.1046	-0.441
Mof_O 	O 	0.1768	0.2244	0.9252	-0.331
Mof_O 	O 	0.3296	0.7778	0.7231	-0.63
Mof_O 	O 	0.3063	0.1642	0.8195	-0.611
Mof_C 	C 	0.1532	0.1514	0.903	0.432
Mof_C 	C 	0.2532	0.9424	0.8537	0.485
Mof_C 	C 	0.2765	0.7785	0.8461	0.232
Mof_H 	H 	0.2597	0.7839	0.8064	-0.073
Mof_C 	C 	0.0426	0.0663	0.743	-0.233
Mof_O 	O 	0.1559	0.1146	0.8594	-0.589
Mof_C 	C 	0.277	0.8527	0.8798	-0.282
Mof_C 	C 	0.1292	0.127	0.9865	0.052
Mof_H 	H 	0.1539	0.174	0.0051	0.053
Mof_C 	C 	0.1011	0.0812	0.0153	-0.093
Mof_C 	C 	0.1142	0.1027	0.0764	0.321
Mof_C 	C 	0.1206	0.1031	0.931	-0.144
Mof_C 	C 	0.0871	0.0133	0.7336	0.455
Mof_C 	C 	0.0838	0.0326	0.9041	0.065
Mof_H 	H 	0.0786	0.0145	0.8674	0.017
Mof_C 	C 	0.0411	0.1615	0.7441	0.185
Mof_H 	H 	0.0697	0.1942	0.7406	-0.038
Mof_C 	C 	0.0544	0.9885	0.9313	-0.124
Mof_H 	H 	0.0287	0.9431	0.9121	0.083
Mof_O 	O 	0.2577	0.8621	0.7179	-0.635
Mof_O 	O 	0.3546	0.2569	0.7874	-0.61
Mof_O 	O 	0.3173	0.5388	0.8564	-0.583
Mof_C 	C 	0.3573	0.0941	0.7724	-0.344
Mof_C 	C 	0.3433	0.9373	0.7403	-0.345
Mof_C 	C 	0.3078	0.8527	0.7263	0.608
Mof_C 	C 	0.3285	0.0147	0.7627	0.315
Mof_H 	H 	0.2977	0.0116	0.7714	-0.13
Mof_C 	C 	0.3009	0.6157	0.8344	0.585
Mof_C 	C 	0.3266	0.6881	0.9301	0.204
Mof_H 	H 	0.344	0.6337	0.9474	-0.028
Mof_C 	C 	0.3381	0.177	0.7948	0.587
Mof_C 	C 	0.4038	0.101	0.7605	0.228
Mof_H 	H 	0.4235	0.1558	0.7663	-0.041
Mof_C 	C 	0.0636	0.0121	0.9864	0.045
Mof_H 	H 	0.0444	0.9815	0.0046	0.031
Mof_C 	C 	0.3912	0.9406	0.7302	0.228
Mof_H 	H 	0.4036	0.8888	0.7176	-0.043
Mof_C 	C 	0.302	0.8434	0.9386	0.195
Mof_H 	H 	0.3022	0.8932	0.9616	-0.022
Mof_C 	C 	0.4198	0.0234	0.7395	-0.289
Mof_H 	H 	0.4508	0.027	0.7314	0.127
Mof_C 	C 	0.3262	0.7628	0.9638	-0.269
Mof_H 	H 	0.3425	0.7578	0.0035	0.127
Mof_Nd	Nd	0.71414	0.63261	0.81003	2.792
Mof_Nd	Nd	0.66455	0.41159	0.69715	2.629
Mof_O 	O 	0.628	0.5591	0.7334	-0.678
Mof_O 	O 	0.7187	0.4465	0.8	-0.703
Mof_O 	O 	0.7832	0.129	0.7812	-0.677
Mof_C 	C 	0.8012	0.1941	0.8714	-0.305
Mof_O 	O 	0.5824	0.4297	0.7236	-0.514
Mof_O 	O 	0.7672	0.5132	0.8831	-0.53
Mof_O 	O 	0.5848	0.5743	0.1003	-0.464
Mof_O 	O 	0.762	0.7265	0.8963	-0.612
Mof_H 	H 	0.7415	0.7346	0.9126	0.322
Mof_O 	O 	0.6589	0.648	0.1046	-0.44
Mof_O 	O 	0.6768	0.7244	0.9252	-0.331
Mof_O 	O 	0.8296	0.2778	0.7231	-0.63
Mof_O 	O 	0.8063	0.6642	0.8195	-0.611
Mof_C 	C 	0.6532	0.6514	0.903	0.431
Mof_C 	C 	0.7532	0.4424	0.8537	0.485
Mof_C 	C 	0.7765	0.2785	0.8461	0.23
Mof_H 	H 	0.7597	0.2839	0.8064	-0.072
Mof_C 	C 	0.5426	0.5663	0.743	-0.231
Mof_O 	O 	0.6559	0.6146	0.8594	-0.589
Mof_C 	C 	0.777	0.3527	0.8798	-0.28
Mof_C 	C 	0.6292	0.627	0.9865	0.049
Mof_H 	H 	0.6539	0.674	0.0051	0.054
Mof_C 	C 	0.6011	0.5812	0.0153	-0.09
Mof_C 	C 	0.6142	0.6027	0.0764	0.32
Mof_C 	C 	0.6206	0.6031	0.931	-0.141
Mof_C 	C 	0.5871	0.5133	0.7336	0.453
Mof_C 	C 	0.5838	0.5326	0.9041	0.061
Mof_H 	H 	0.5786	0.5145	0.8674	0.018
Mof_C 	C 	0.5411	0.6615	0.7441	0.184
Mof_H 	H 	0.5697	0.6942	0.7406	-0.037
Mof_C 	C 	0.5544	0.4885	0.9313	-0.119
Mof_H 	H 	0.5287	0.4431	0.9121	0.081
Mof_O 	O 	0.7577	0.3621	0.7179	-0.635
Mof_O 	O 	0.8546	0.7569	0.7874	-0.61
Mof_O 	O 	0.8173	0.0388	0.8564	-0.582
Mof_C 	C 	0.8573	0.5941	0.7724	-0.344
Mof_C 	C 	0.8433	0.4373	0.7403	-0.345
Mof_C 	C 	0.8078	0.3527	0.7263	0.608
Mof_C 	C 	0.8285	0.5147	0.7627	0.314
Mof_H 	H 	0.7977	0.5116	0.7714	-0.13
Mof_C 	C 	0.8009	0.1157	0.8344	0.585
Mof_C 	C 	0.8266	0.1881	0.9301	0.201
Mof_H 	H 	0.844	0.1337	0.9474	-0.026
Mof_C 	C 	0.8381	0.677	0.7948	0.587
Mof_C 	C 	0.9038	0.601	0.7605	0.228
Mof_H 	H 	0.9235	0.6558	0.7663	-0.041
Mof_C 	C 	0.5636	0.5121	0.9864	0.041
Mof_H 	H 	0.5444	0.4815	0.0046	0.032
Mof_C 	C 	0.8912	0.4406	0.7302	0.229
Mof_H 	H 	0.9036	0.3888	0.7176	-0.043
Mof_C 	C 	0.802	0.3434	0.9386	0.192
Mof_H 	H 	0.8022	0.3932	0.9616	-0.02
Mof_C 	C 	0.9198	0.5234	0.7395	-0.29
Mof_H 	H 	0.9508	0.527	0.7314	0.128
Mof_C 	C 	0.8262	0.2628	0.9638	-0.262
Mof_H 	H 	0.8425	0.2578	0.0035	0.124
Mof_C 	C 	-1.266e-17	0.9798	0.25	0.15
Mof_H 	H 	-1.266e-17	0.0439	0.25	-0.001
Mof_C 	C 	1.27859e-33	0.7906	0.25	-0.264
Mof_H 	H 	-1.266e-17	0.7266	0.25	0.125
Mof_C 	C 	0.5	0.4798	0.25	0.148
Mof_H 	H 	0.5	0.5439	0.25	0
Mof_C 	C 	0.5	0.2906	0.25	-0.262
Mof_H 	H 	0.5	0.2266	0.25	0.124
Mof_C 	C 	-5.06402e-17	0.0202	0.75	0.15
Mof_H 	H 	-5.06402e-17	0.9561	0.75	-0.001
Mof_C 	C 	-5.06402e-17	0.2094	0.75	-0.265
Mof_H 	H 	-5.06402e-17	0.2734	0.75	0.125
Mof_C 	C 	0.5	0.5202	0.75	0.148
Mof_H 	H 	0.5	0.4561	0.75	0
Mof_C 	C 	0.5	0.7094	0.75	-0.262
Mof_H 	H 	0.5	0.7734	0.75	0.124
_end
