data_functionalizedCrystal
_audit_creation_method	'EQeq! by Chris Wilmer'
_symmetry_space_group_name_H-M	'P1'
_symmetry_Int_Tables_number	1
_symmetry_cell_setting	triclinic
loop_
_symmetry_equiv_pos_as_xyz
  x,y,z
_cell_length_a	37.318
_cell_length_b	37.293
_cell_length_c	26.388
_cell_angle_alpha	90
_cell_angle_beta	134.988
_cell_angle_gamma	90
loop_
_atom_site_label
_atom_site_type_symbol
_atom_site_fract_x
_atom_site_fract_y
_atom_site_fract_z
_atom_site_charge
Mof_N 	N 	0.21001	0.21014	8e-05	-0.295
Mof_C 	C 	0.18871	0.18888	0.9999	0.158
Mof_N 	N 	0.21007	0.21001	0.42034	-0.266
Mof_C 	C 	0.18891	0.18878	0.378	0.11
Mof_S 	S 	0.81936	0.51688	0.3197	-0.039
Mof_N 	N 	0.44394	0.45951	0.44394	-0.233
Mof_C 	C 	0.4125	0.453	0.3731	-0.012
Mof_H 	H 	0.4141	0.4682	0.3459	0.018
Mof_C 	C 	0.378	0.4251	0.3387	-0.017
Mof_H 	H 	0.3563	0.4217	0.2887	0.036
Mof_C 	C 	0.37524	0.40308	0.37518	0.031
Mof_C 	C 	0.4076	0.4081	0.4481	-0.111
Mof_H 	H 	0.4055	0.3928	0.4748	0.069
Mof_C 	C 	0.4433	0.4356	0.4822	0.063
Mof_H 	H 	0.4675	0.4377	0.5329	-0.007
Mof_C 	C 	0.33965	0.3725	0.33962	0.104
Mof_N 	N 	0.32659	0.35904	0.28227	-0.148
Mof_C 	C 	0.29701	0.3305	0.2546	0.106
Mof_N 	N 	0.28237	0.31437	0.28251	-0.148
Mof_C 	C 	0.29737	0.33024	0.3397	0.109
Mof_N 	N 	0.32679	0.35875	0.37148	-0.149
Mof_N 	N 	0.263	0.27789	0.08191	-0.235
Mof_C 	C 	0.2683	0.2583	0.1305	0.097
Mof_H 	H 	0.2667	0.2329	0.1277	-0.02
Mof_C 	C 	0.2761	0.2759	0.1848	-0.153
Mof_H 	H 	0.2756	0.2627	0.2151	0.081
Mof_C 	C 	0.28452	0.31274	0.19394	0.024
Mof_C 	C 	0.2838	0.3301	0.1499	-0.001
Mof_H 	H 	0.2912	0.355	0.1569	0.029
Mof_C 	C 	0.2729	0.3133	0.094	-0.03
Mof_H 	H 	0.2723	0.327	0.063	0.016
Mof_N 	N 	0.26276	0.27805	0.44402	-0.229
Mof_C 	C 	0.2733	0.3135	0.4532	-0.056
Mof_H 	H 	0.2739	0.327	0.4844	0.031
Mof_C 	C 	0.2834	0.3307	0.4168	0.026
Mof_H 	H 	0.2892	0.3558	0.4222	0.022
Mof_C 	C 	0.2848	0.31252	0.37549	0.02
Mof_C 	C 	0.2752	0.2752	0.3667	-0.159
Mof_H 	H 	0.2743	0.2619	0.3351	0.083
Mof_C 	C 	0.2673	0.2583	0.4044	0.102
Mof_H 	H 	0.2649	0.2329	0.4033	-0.021
Mof_N 	N 	0.18124	0.27818	0.44384	-0.231
Mof_C 	C 	0.1411	0.2745	0.3741	-0.065
Mof_H 	H 	0.1438	0.26	0.3473	0.032
Mof_C 	C 	0.094	0.2915	0.3378	0.047
Mof_H 	H 	0.0656	0.2879	0.2879	0.012
Mof_C 	C 	0.09043	0.31257	0.37488	0.024
Mof_C 	C 	0.1322	0.3169	0.448	-0.157
Mof_H 	H 	0.1303	0.3325	0.4745	0.083
Mof_C 	C 	0.1775	0.2982	0.4829	0.112
Mof_H 	H 	0.2053	0.2997	0.5335	-0.025
Mof_C 	C 	0.0423	0.33048	0.33936	0.098
Mof_N 	N 	0.9999	0.31445	0.28214	-0.143
Mof_C 	C 	0.95787	0.33052	0.25518	0.106
Mof_N 	N 	0.95561	0.35902	0.2823	-0.15
Mof_C 	C 	0.99993	0.37278	0.33925	0.112
Mof_N 	N 	0.04416	0.35892	0.37069	-0.153
Mof_C 	C 	0.8243	0.2975	0.1304	0.075
Mof_H 	H 	0.7974	0.2978	0.1276	-0.011
Mof_C 	C 	0.8693	0.3175	0.1856	-0.134
Mof_H 	H 	0.8713	0.3336	0.2154	0.076
Mof_C 	C 	0.90943	0.31261	0.19375	0.034
Mof_C 	C 	0.9046	0.2909	0.1483	0.008
Mof_H 	H 	0.9326	0.2875	0.1541	0.027
Mof_C 	C 	0.86	0.2739	0.0941	-0.032
Mof_H 	H 	0.8581	0.2585	0.0636	0.017
Mof_N 	N 	0.8189	0.27795	0.08182	-0.235
Mof_C 	C 	0.0392	0.4539	0.4515	-0.065
Mof_H 	H 	0.0679	0.4692	0.4822	0.032
Mof_C 	C 	0.0387	0.4255	0.415	0.036
Mof_H 	H 	0.0661	0.4228	0.4194	0.016
Mof_C 	C 	0.99989	0.40304	0.3748	0.036
Mof_C 	C 	0.9593	0.4081	0.3676	-0.142
Mof_H 	H 	0.9305	0.3929	0.3374	0.078
Mof_C 	C 	0.9615	0.4354	0.4047	0.096
Mof_H 	H 	0.9354	0.4375	0.4031	-0.019
Mof_N 	N 	0.99988	0.45935	0.44328	-0.227
Mof_S 	S 	0.1429	0.15988	0.319	-0.043
Mof_S 	S 	0.1431	0.15956	0.9669	0.025
Mof_C 	C 	0.4425	0.4352	0.4041	0.055
Mof_H 	H 	0.467	0.4371	0.4024	-0.006
Mof_C 	C 	0.408	0.4085	0.3667	-0.096
Mof_H 	H 	0.4059	0.3938	0.3353	0.062
Mof_C 	C 	0.3781	0.4249	0.4172	0.003
Mof_H 	H 	0.3562	0.4214	0.4236	0.029
Mof_C 	C 	0.4126	0.4526	0.4519	-0.024
Mof_H 	H 	0.4145	0.4676	0.4829	0.021
Mof_C 	C 	0.2347	0.2738	0.0946	-0.06
Mof_H 	H 	0.2063	0.2583	0.0644	0.025
Mof_C 	C 	0.2445	0.2911	0.1496	0.048
Mof_H 	H 	0.2227	0.2875	0.156	0.012
Mof_C 	C 	0.3162	0.3173	0.1842	-0.106
Mof_H 	H 	0.3445	0.333	0.214	0.066
Mof_C 	C 	0.3054	0.2981	0.1296	0.066
Mof_H 	H 	0.3287	0.2991	0.1256	-0.01
Mof_C 	C 	0.3056	0.2982	0.4823	0.088
Mof_H 	H 	0.3286	0.2997	0.5329	-0.016
Mof_C 	C 	0.3163	0.3166	0.448	-0.129
Mof_H 	H 	0.345	0.3319	0.4746	0.074
Mof_C 	C 	0.2443	0.2912	0.3385	0.056
Mof_H 	H 	0.2223	0.2882	0.2884	0.011
Mof_C 	C 	0.2347	0.2733	0.3749	-0.064
Mof_H 	H 	0.207	0.2571	0.3488	0.031
Mof_C 	C 	0.1374	0.2593	0.4036	0.107
Mof_H 	H 	0.1383	0.234	0.4008	-0.023
Mof_C 	C 	0.0913	0.276	0.3664	-0.156
Mof_H 	H 	0.0607	0.2625	0.3357	0.08
Mof_C 	C 	0.1333	0.3311	0.4159	0.054
Mof_H 	H 	0.1328	0.3563	0.4207	0.012
Mof_C 	C 	0.1799	0.3135	0.4527	-0.077
Mof_H 	H 	0.2106	0.3268	0.4841	0.037
Mof_C 	C 	0.821	0.3127	0.0936	-0.038
Mof_H 	H 	0.7904	0.3261	0.0619	0.018
Mof_C 	C 	0.8649	0.3303	0.149	0.022
Mof_H 	H 	0.864	0.3551	0.156	0.022
Mof_C 	C 	0.9091	0.2768	0.1838	-0.121
Mof_H 	H 	0.94	0.2638	0.2133	0.073
Mof_C 	C 	0.8631	0.2592	0.1301	0.07
Mof_H 	H 	0.8625	0.2338	0.1271	-0.01
Mof_C 	C 	0.039	0.4356	0.4818	0.102
Mof_H 	H 	0.0654	0.4374	0.5325	-0.022
Mof_C 	C 	0.0404	0.4091	0.4475	-0.158
Mof_H 	H 	0.0698	0.3946	0.4741	0.082
Mof_C 	C 	0.9603	0.4249	0.3385	0.03
Mof_H 	H 	0.9317	0.4214	0.2886	0.02
Mof_C 	C 	0.9609	0.4529	0.3739	-0.048
Mof_H 	H 	0.9321	0.4681	0.3472	0.028
Mof_S 	S 	0.1753	0.15967	0.319	-0.04
Mof_S 	S 	0.1756	0.15991	0.0327	-0.125
Mof_N 	N 	0.71001	0.71014	8e-05	-0.297
Mof_C 	C 	0.68871	0.68888	0.9999	0.158
Mof_N 	N 	0.71007	0.71001	0.42034	-0.267
Mof_C 	C 	0.68891	0.68878	0.378	0.109
Mof_S 	S 	0.31936	0.01688	0.3197	-0.05
Mof_N 	N 	0.94394	0.95951	0.44394	-0.231
Mof_C 	C 	0.9125	0.953	0.3731	-0.014
Mof_H 	H 	0.9141	0.9682	0.3459	0.02
Mof_C 	C 	0.878	0.9251	0.3387	-0.017
Mof_H 	H 	0.8563	0.9217	0.2887	0.036
Mof_C 	C 	0.87524	0.90308	0.37518	0.03
Mof_C 	C 	0.9076	0.9081	0.4481	-0.111
Mof_H 	H 	0.9055	0.8928	0.4748	0.069
Mof_C 	C 	0.9433	0.9356	0.4822	0.063
Mof_H 	H 	0.9675	0.9377	0.5329	-0.005
Mof_C 	C 	0.83965	0.8725	0.33962	0.104
Mof_N 	N 	0.82659	0.85904	0.28227	-0.149
Mof_C 	C 	0.79701	0.8305	0.2546	0.105
Mof_N 	N 	0.78237	0.81437	0.28251	-0.149
Mof_C 	C 	0.79737	0.83024	0.3397	0.108
Mof_N 	N 	0.82679	0.85875	0.37148	-0.149
Mof_N 	N 	0.763	0.77789	0.08191	-0.235
Mof_C 	C 	0.7683	0.7583	0.1305	0.098
Mof_H 	H 	0.7667	0.7329	0.1277	-0.02
Mof_C 	C 	0.7761	0.7759	0.1848	-0.153
Mof_H 	H 	0.7756	0.7627	0.2151	0.082
Mof_C 	C 	0.78452	0.81274	0.19394	0.024
Mof_C 	C 	0.7838	0.8301	0.1499	-0.001
Mof_H 	H 	0.7912	0.855	0.1569	0.03
Mof_C 	C 	0.7729	0.8133	0.094	-0.03
Mof_H 	H 	0.7723	0.827	0.063	0.017
Mof_N 	N 	0.76276	0.77805	0.44402	-0.229
Mof_C 	C 	0.7733	0.8135	0.4532	-0.056
Mof_H 	H 	0.7739	0.827	0.4844	0.031
Mof_C 	C 	0.7834	0.8307	0.4168	0.026
Mof_H 	H 	0.7892	0.8558	0.4222	0.023
Mof_C 	C 	0.7848	0.81252	0.37549	0.02
Mof_C 	C 	0.7752	0.7752	0.3667	-0.16
Mof_H 	H 	0.7743	0.7619	0.3351	0.083
Mof_C 	C 	0.7673	0.7583	0.4044	0.103
Mof_H 	H 	0.7649	0.7329	0.4033	-0.021
Mof_N 	N 	0.68124	0.77818	0.44384	-0.231
Mof_C 	C 	0.6411	0.7745	0.3741	-0.064
Mof_H 	H 	0.6438	0.76	0.3473	0.033
Mof_C 	C 	0.594	0.7915	0.3378	0.047
Mof_H 	H 	0.5656	0.7879	0.2879	0.014
Mof_C 	C 	0.59043	0.81257	0.37488	0.023
Mof_C 	C 	0.6322	0.8169	0.448	-0.156
Mof_H 	H 	0.6303	0.8325	0.4745	0.083
Mof_C 	C 	0.6775	0.7982	0.4829	0.111
Mof_H 	H 	0.7053	0.7997	0.5335	-0.024
Mof_C 	C 	0.5423	0.83048	0.33936	0.107
Mof_N 	N 	0.4999	0.81445	0.28214	-0.149
Mof_C 	C 	0.45787	0.83052	0.25518	0.104
Mof_N 	N 	0.45561	0.85902	0.2823	-0.15
Mof_C 	C 	0.49993	0.87278	0.33925	0.107
Mof_N 	N 	0.54416	0.85892	0.37069	-0.15
Mof_C 	C 	0.3243	0.7975	0.1304	0.075
Mof_H 	H 	0.2974	0.7978	0.1276	-0.011
Mof_C 	C 	0.3693	0.8175	0.1856	-0.133
Mof_H 	H 	0.3713	0.8336	0.2154	0.075
Mof_C 	C 	0.40943	0.81261	0.19375	0.033
Mof_C 	C 	0.4046	0.7909	0.1483	0.009
Mof_H 	H 	0.4326	0.7875	0.1541	0.025
Mof_C 	C 	0.36	0.7739	0.0941	-0.032
Mof_H 	H 	0.3581	0.7585	0.0636	0.017
Mof_N 	N 	0.3189	0.77795	0.08182	-0.235
Mof_C 	C 	0.5392	0.9539	0.4515	-0.056
Mof_H 	H 	0.5679	0.9692	0.4822	0.032
Mof_C 	C 	0.5387	0.9255	0.415	0.038
Mof_H 	H 	0.5661	0.9228	0.4194	0.018
Mof_C 	C 	0.49989	0.90304	0.3748	0.025
Mof_C 	C 	0.4593	0.9081	0.3676	-0.137
Mof_H 	H 	0.4305	0.8929	0.3374	0.076
Mof_C 	C 	0.4615	0.9354	0.4047	0.09
Mof_H 	H 	0.4354	0.9375	0.4031	-0.018
Mof_N 	N 	0.49988	0.95935	0.44328	-0.232
Mof_S 	S 	0.6429	0.65988	0.319	-0.039
Mof_S 	S 	0.6431	0.65956	0.9669	0.029
Mof_C 	C 	0.9425	0.9352	0.4041	0.056
Mof_H 	H 	0.967	0.9371	0.4024	-0.002
Mof_C 	C 	0.908	0.9085	0.3667	-0.095
Mof_H 	H 	0.9059	0.8938	0.3353	0.063
Mof_C 	C 	0.8781	0.9249	0.4172	0.003
Mof_H 	H 	0.8562	0.9214	0.4236	0.03
Mof_C 	C 	0.9126	0.9526	0.4519	-0.025
Mof_H 	H 	0.9145	0.9676	0.4829	0.023
Mof_C 	C 	0.7347	0.7738	0.0946	-0.06
Mof_H 	H 	0.7063	0.7583	0.0644	0.026
Mof_C 	C 	0.7445	0.7911	0.1496	0.048
Mof_H 	H 	0.7227	0.7875	0.156	0.013
Mof_C 	C 	0.8162	0.8173	0.1842	-0.106
Mof_H 	H 	0.8445	0.833	0.214	0.067
Mof_C 	C 	0.8054	0.7981	0.1296	0.066
Mof_H 	H 	0.8287	0.7991	0.1256	-0.009
Mof_C 	C 	0.8056	0.7982	0.4823	0.088
Mof_H 	H 	0.8286	0.7997	0.5329	-0.016
Mof_C 	C 	0.8163	0.8166	0.448	-0.129
Mof_H 	H 	0.845	0.8319	0.4746	0.075
Mof_C 	C 	0.7443	0.7912	0.3385	0.056
Mof_H 	H 	0.7223	0.7882	0.2884	0.011
Mof_C 	C 	0.7347	0.7733	0.3749	-0.064
Mof_H 	H 	0.707	0.7571	0.3488	0.031
Mof_C 	C 	0.6374	0.7593	0.4036	0.106
Mof_H 	H 	0.6383	0.734	0.4008	-0.023
Mof_C 	C 	0.5913	0.776	0.3664	-0.155
Mof_H 	H 	0.5607	0.7625	0.3357	0.082
Mof_C 	C 	0.6333	0.8311	0.4159	0.054
Mof_H 	H 	0.6328	0.8563	0.4207	0.013
Mof_C 	C 	0.6799	0.8135	0.4527	-0.076
Mof_H 	H 	0.7106	0.8268	0.4841	0.037
Mof_C 	C 	0.321	0.8127	0.0936	-0.038
Mof_H 	H 	0.2904	0.8261	0.0619	0.018
Mof_C 	C 	0.3649	0.8303	0.149	0.022
Mof_H 	H 	0.364	0.8551	0.156	0.022
Mof_C 	C 	0.4091	0.7768	0.1838	-0.12
Mof_H 	H 	0.44	0.7638	0.2133	0.071
Mof_C 	C 	0.3631	0.7592	0.1301	0.07
Mof_H 	H 	0.3625	0.7338	0.1271	-0.01
Mof_C 	C 	0.539	0.9356	0.4818	0.098
Mof_H 	H 	0.5654	0.9374	0.5325	-0.02
Mof_C 	C 	0.5404	0.9091	0.4475	-0.146
Mof_H 	H 	0.5698	0.8946	0.4741	0.08
Mof_C 	C 	0.4603	0.9249	0.3385	0.029
Mof_H 	H 	0.4317	0.9214	0.2886	0.02
Mof_C 	C 	0.4609	0.9529	0.3739	-0.046
Mof_H 	H 	0.4321	0.9681	0.3472	0.028
Mof_S 	S 	0.6753	0.65967	0.319	-0.039
Mof_S 	S 	0.6756	0.65991	0.0327	-0.126
Mof_N 	N 	0.78999	0.21014	0.99992	-0.232
Mof_C 	C 	0.81129	0.18888	0.0001	0.058
Mof_N 	N 	0.78993	0.21001	0.57966	-0.266
Mof_C 	C 	0.81109	0.18878	0.622	0.108
Mof_S 	S 	0.18064	0.51688	0.6803	-0.036
Mof_N 	N 	0.55606	0.45951	0.55606	-0.234
Mof_C 	C 	0.5875	0.453	0.6269	-0.011
Mof_H 	H 	0.5859	0.4682	0.6541	0.018
Mof_C 	C 	0.622	0.4251	0.6613	-0.017
Mof_H 	H 	0.6437	0.4217	0.7113	0.038
Mof_C 	C 	0.62476	0.40308	0.62482	0.031
Mof_C 	C 	0.5924	0.4081	0.5519	-0.112
Mof_H 	H 	0.5945	0.3928	0.5252	0.068
Mof_C 	C 	0.5567	0.4356	0.5178	0.061
Mof_H 	H 	0.5325	0.4377	0.4671	-0.008
Mof_C 	C 	0.66035	0.3725	0.66038	0.105
Mof_N 	N 	0.67341	0.35904	0.71773	-0.149
Mof_C 	C 	0.70299	0.3305	0.7454	0.107
Mof_N 	N 	0.71763	0.31437	0.71749	-0.148
Mof_C 	C 	0.70263	0.33024	0.6603	0.11
Mof_N 	N 	0.67321	0.35875	0.62852	-0.149
Mof_N 	N 	0.737	0.27789	0.91809	-0.226
Mof_C 	C 	0.7317	0.2583	0.8695	0.09
Mof_H 	H 	0.7333	0.2329	0.8723	-0.016
Mof_C 	C 	0.7239	0.2759	0.8152	-0.151
Mof_H 	H 	0.7244	0.2627	0.7849	0.082
Mof_C 	C 	0.71548	0.31274	0.80606	0.025
Mof_C 	C 	0.7162	0.3301	0.8501	0.001
Mof_H 	H 	0.7088	0.355	0.8431	0.034
Mof_C 	C 	0.7271	0.3133	0.906	-0.021
Mof_H 	H 	0.7277	0.327	0.937	0.026
Mof_N 	N 	0.73724	0.27805	0.55598	-0.23
Mof_C 	C 	0.7267	0.3135	0.5468	-0.054
Mof_H 	H 	0.7261	0.327	0.5156	0.031
Mof_C 	C 	0.7166	0.3307	0.5832	0.026
Mof_H 	H 	0.7108	0.3558	0.5778	0.023
Mof_C 	C 	0.7152	0.31252	0.62451	0.021
Mof_C 	C 	0.7248	0.2752	0.6333	-0.16
Mof_H 	H 	0.7257	0.2619	0.6649	0.084
Mof_C 	C 	0.7327	0.2583	0.5956	0.101
Mof_H 	H 	0.7351	0.2329	0.5967	-0.02
Mof_N 	N 	0.81876	0.27818	0.55616	-0.231
Mof_C 	C 	0.8589	0.2745	0.6259	-0.062
Mof_H 	H 	0.8562	0.26	0.6527	0.034
Mof_C 	C 	0.906	0.2915	0.6622	0.047
Mof_H 	H 	0.9344	0.2879	0.7121	0.019
Mof_C 	C 	0.90957	0.31257	0.62512	0.022
Mof_C 	C 	0.8678	0.3169	0.552	-0.155
Mof_H 	H 	0.8697	0.3325	0.5255	0.083
Mof_C 	C 	0.8225	0.2982	0.5171	0.109
Mof_H 	H 	0.7947	0.2997	0.4665	-0.024
Mof_C 	C 	0.9577	0.33048	0.66064	0.116
Mof_N 	N 	0.0001	0.31445	0.71786	-0.155
Mof_C 	C 	0.04213	0.33052	0.74482	0.105
Mof_N 	N 	0.04439	0.35902	0.7177	-0.149
Mof_C 	C 	7e-05	0.37278	0.66075	0.102
Mof_N 	N 	0.95584	0.35892	0.62931	-0.146
Mof_C 	C 	0.1757	0.2975	0.8696	0.066
Mof_H 	H 	0.2026	0.2978	0.8724	-0.007
Mof_C 	C 	0.1307	0.3175	0.8144	-0.13
Mof_H 	H 	0.1287	0.3336	0.7846	0.074
Mof_C 	C 	0.09057	0.31261	0.80625	0.034
Mof_C 	C 	0.0954	0.2909	0.8517	0.009
Mof_H 	H 	0.0674	0.2875	0.8459	0.028
Mof_C 	C 	0.14	0.2739	0.9059	-0.024
Mof_H 	H 	0.1419	0.2585	0.9364	0.026
Mof_N 	N 	0.1811	0.27795	0.91818	-0.227
Mof_C 	C 	0.9608	0.4539	0.5485	-0.045
Mof_H 	H 	0.9321	0.4692	0.5178	0.028
Mof_C 	C 	0.9613	0.4255	0.585	0.039
Mof_H 	H 	0.9339	0.4228	0.5806	0.02
Mof_C 	C 	0.00011	0.40304	0.6252	0.013
Mof_C 	C 	0.0407	0.4081	0.6324	-0.133
Mof_H 	H 	0.0695	0.3929	0.6626	0.075
Mof_C 	C 	0.0385	0.4354	0.5953	0.084
Mof_H 	H 	0.0646	0.4375	0.5969	-0.016
Mof_N 	N 	0.00012	0.45935	0.55672	-0.238
Mof_S 	S 	0.8571	0.15988	0.681	-0.032
Mof_S 	S 	0.8569	0.15956	0.0331	-0.101
Mof_C 	C 	0.5575	0.4352	0.5959	0.055
Mof_H 	H 	0.533	0.4371	0.5976	-0.005
Mof_C 	C 	0.592	0.4085	0.6333	-0.096
Mof_H 	H 	0.5941	0.3938	0.6647	0.063
Mof_C 	C 	0.6219	0.4249	0.5828	0.003
Mof_H 	H 	0.6438	0.4214	0.5764	0.031
Mof_C 	C 	0.5874	0.4526	0.5481	-0.022
Mof_H 	H 	0.5855	0.4676	0.5171	0.021
Mof_C 	C 	0.7653	0.2738	0.9054	-0.051
Mof_H 	H 	0.7937	0.2583	0.9356	0.036
Mof_C 	C 	0.7555	0.2911	0.8504	0.048
Mof_H 	H 	0.7773	0.2875	0.844	0.018
Mof_C 	C 	0.6838	0.3173	0.8158	-0.107
Mof_H 	H 	0.6555	0.333	0.786	0.067
Mof_C 	C 	0.6946	0.2981	0.8704	0.06
Mof_H 	H 	0.6713	0.2991	0.8744	-0.006
Mof_C 	C 	0.6944	0.2982	0.5177	0.086
Mof_H 	H 	0.6714	0.2997	0.4671	-0.016
Mof_C 	C 	0.6837	0.3166	0.552	-0.129
Mof_H 	H 	0.655	0.3319	0.5254	0.074
Mof_C 	C 	0.7557	0.2912	0.6615	0.056
Mof_H 	H 	0.7777	0.2882	0.7116	0.015
Mof_C 	C 	0.7653	0.2733	0.6251	-0.062
Mof_H 	H 	0.793	0.2571	0.6512	0.033
Mof_C 	C 	0.8626	0.2593	0.5964	0.104
Mof_H 	H 	0.8617	0.234	0.5992	-0.021
Mof_C 	C 	0.9087	0.276	0.6336	-0.154
Mof_H 	H 	0.9393	0.2625	0.6643	0.084
Mof_C 	C 	0.8667	0.3311	0.5841	0.054
Mof_H 	H 	0.8672	0.3563	0.5793	0.014
Mof_C 	C 	0.8201	0.3135	0.5473	-0.074
Mof_H 	H 	0.7894	0.3268	0.5159	0.037
Mof_C 	C 	0.179	0.3127	0.9064	-0.029
Mof_H 	H 	0.2096	0.3261	0.9381	0.028
Mof_C 	C 	0.1351	0.3303	0.851	0.02
Mof_H 	H 	0.136	0.3551	0.844	0.027
Mof_C 	C 	0.0909	0.2768	0.8162	-0.12
Mof_H 	H 	0.06	0.2638	0.7867	0.07
Mof_C 	C 	0.1369	0.2592	0.8699	0.063
Mof_H 	H 	0.1375	0.2338	0.8729	-0.007
Mof_C 	C 	0.961	0.4356	0.5182	0.094
Mof_H 	H 	0.9346	0.4374	0.4675	-0.018
Mof_C 	C 	0.9596	0.4091	0.5525	-0.135
Mof_H 	H 	0.9302	0.3946	0.5259	0.077
Mof_C 	C 	0.0397	0.4249	0.6615	0.027
Mof_H 	H 	0.0683	0.4214	0.7114	0.023
Mof_C 	C 	0.0391	0.4529	0.6261	-0.044
Mof_H 	H 	0.0679	0.4681	0.6528	0.027
Mof_S 	S 	0.8247	0.15967	0.681	-0.035
Mof_S 	S 	0.8244	0.15991	0.9673	0.05
Mof_N 	N 	0.28999	0.71014	0.99992	-0.232
Mof_C 	C 	0.31129	0.68888	0.0001	0.058
Mof_N 	N 	0.28993	0.71001	0.57966	-0.266
Mof_C 	C 	0.31109	0.68878	0.622	0.108
Mof_S 	S 	0.68064	0.01688	0.6803	-0.044
Mof_N 	N 	0.05606	0.95951	0.55606	-0.234
Mof_C 	C 	0.0875	0.953	0.6269	-0.01
Mof_H 	H 	0.0859	0.9682	0.6541	0.018
Mof_C 	C 	0.122	0.9251	0.6613	-0.017
Mof_H 	H 	0.1437	0.9217	0.7113	0.038
Mof_C 	C 	0.12476	0.90308	0.62482	0.031
Mof_C 	C 	0.0924	0.9081	0.5519	-0.113
Mof_H 	H 	0.0945	0.8928	0.5252	0.067
Mof_C 	C 	0.0567	0.9356	0.5178	0.059
Mof_H 	H 	0.0325	0.9377	0.4671	-0.01
Mof_C 	C 	0.16035	0.8725	0.66038	0.104
Mof_N 	N 	0.17341	0.85904	0.71773	-0.149
Mof_C 	C 	0.20299	0.8305	0.7454	0.107
Mof_N 	N 	0.21763	0.81437	0.71749	-0.149
Mof_C 	C 	0.20263	0.83024	0.6603	0.109
Mof_N 	N 	0.17321	0.85875	0.62852	-0.149
Mof_N 	N 	0.237	0.77789	0.91809	-0.226
Mof_C 	C 	0.2317	0.7583	0.8695	0.089
Mof_H 	H 	0.2333	0.7329	0.8723	-0.016
Mof_C 	C 	0.2239	0.7759	0.8152	-0.151
Mof_H 	H 	0.2244	0.7627	0.7849	0.081
Mof_C 	C 	0.21548	0.81274	0.80606	0.025
Mof_C 	C 	0.2162	0.8301	0.8501	0
Mof_H 	H 	0.2088	0.855	0.8431	0.034
Mof_C 	C 	0.2271	0.8133	0.906	-0.021
Mof_H 	H 	0.2277	0.827	0.937	0.026
Mof_N 	N 	0.23724	0.77805	0.55598	-0.23
Mof_C 	C 	0.2267	0.8135	0.5468	-0.053
Mof_H 	H 	0.2261	0.827	0.5156	0.031
Mof_C 	C 	0.2166	0.8307	0.5832	0.026
Mof_H 	H 	0.2108	0.8558	0.5778	0.023
Mof_C 	C 	0.2152	0.81252	0.62451	0.021
Mof_C 	C 	0.2248	0.7752	0.6333	-0.16
Mof_H 	H 	0.2257	0.7619	0.6649	0.084
Mof_C 	C 	0.2327	0.7583	0.5956	0.101
Mof_H 	H 	0.2351	0.7329	0.5967	-0.02
Mof_N 	N 	0.31876	0.77818	0.55616	-0.231
Mof_C 	C 	0.3589	0.7745	0.6259	-0.062
Mof_H 	H 	0.3562	0.76	0.6527	0.034
Mof_C 	C 	0.406	0.7915	0.6622	0.047
Mof_H 	H 	0.4344	0.7879	0.7121	0.017
Mof_C 	C 	0.40957	0.81257	0.62512	0.023
Mof_C 	C 	0.3678	0.8169	0.552	-0.156
Mof_H 	H 	0.3697	0.8325	0.5255	0.083
Mof_C 	C 	0.3225	0.7982	0.5171	0.11
Mof_H 	H 	0.2947	0.7997	0.4665	-0.024
Mof_C 	C 	0.4577	0.83048	0.66064	0.108
Mof_N 	N 	0.5001	0.81445	0.71786	-0.149
Mof_C 	C 	0.54213	0.83052	0.74482	0.106
Mof_N 	N 	0.54439	0.85902	0.7177	-0.149
Mof_C 	C 	0.50007	0.87278	0.66075	0.108
Mof_N 	N 	0.45584	0.85892	0.62931	-0.15
Mof_C 	C 	0.6757	0.7975	0.8696	0.066
Mof_H 	H 	0.7026	0.7978	0.8724	-0.007
Mof_C 	C 	0.6307	0.8175	0.8144	-0.13
Mof_H 	H 	0.6287	0.8336	0.7846	0.075
Mof_C 	C 	0.59057	0.81261	0.80625	0.035
Mof_C 	C 	0.5954	0.7909	0.8517	0.009
Mof_H 	H 	0.5674	0.7875	0.8459	0.03
Mof_C 	C 	0.64	0.7739	0.9059	-0.023
Mof_H 	H 	0.6419	0.7585	0.9364	0.026
Mof_N 	N 	0.6811	0.77795	0.91818	-0.227
Mof_C 	C 	0.4608	0.9539	0.5485	-0.054
Mof_H 	H 	0.4321	0.9692	0.5178	0.031
Mof_C 	C 	0.4613	0.9255	0.585	0.037
Mof_H 	H 	0.4339	0.9228	0.5806	0.019
Mof_C 	C 	0.50011	0.90304	0.6252	0.025
Mof_C 	C 	0.5407	0.9081	0.6324	-0.138
Mof_H 	H 	0.5695	0.8929	0.6626	0.077
Mof_C 	C 	0.5385	0.9354	0.5953	0.089
Mof_H 	H 	0.5646	0.9375	0.5969	-0.017
Mof_N 	N 	0.50012	0.95935	0.55672	-0.232
Mof_S 	S 	0.3571	0.65988	0.681	-0.035
Mof_S 	S 	0.3569	0.65956	0.0331	-0.104
Mof_C 	C 	0.0575	0.9352	0.5959	0.053
Mof_H 	H 	0.033	0.9371	0.5976	-0.008
Mof_C 	C 	0.092	0.9085	0.6333	-0.097
Mof_H 	H 	0.0941	0.8938	0.6647	0.062
Mof_C 	C 	0.1219	0.9249	0.5828	0.003
Mof_H 	H 	0.1438	0.9214	0.5764	0.031
Mof_C 	C 	0.0874	0.9526	0.5481	-0.021
Mof_H 	H 	0.0855	0.9676	0.5171	0.021
Mof_C 	C 	0.2653	0.7738	0.9054	-0.051
Mof_H 	H 	0.2937	0.7583	0.9356	0.035
Mof_C 	C 	0.2555	0.7911	0.8504	0.047
Mof_H 	H 	0.2773	0.7875	0.844	0.018
Mof_C 	C 	0.1838	0.8173	0.8158	-0.106
Mof_H 	H 	0.1555	0.833	0.786	0.066
Mof_C 	C 	0.1946	0.7981	0.8704	0.059
Mof_H 	H 	0.1713	0.7991	0.8744	-0.006
Mof_C 	C 	0.1944	0.7982	0.5177	0.086
Mof_H 	H 	0.1714	0.7997	0.4671	-0.016
Mof_C 	C 	0.1837	0.8166	0.552	-0.129
Mof_H 	H 	0.155	0.8319	0.5254	0.074
Mof_C 	C 	0.2557	0.7912	0.6615	0.056
Mof_H 	H 	0.2777	0.7882	0.7116	0.014
Mof_C 	C 	0.2653	0.7733	0.6251	-0.062
Mof_H 	H 	0.293	0.7571	0.6512	0.032
Mof_C 	C 	0.3626	0.7593	0.5964	0.105
Mof_H 	H 	0.3617	0.734	0.5992	-0.022
Mof_C 	C 	0.4087	0.776	0.6336	-0.155
Mof_H 	H 	0.4393	0.7625	0.6643	0.083
Mof_C 	C 	0.3667	0.8311	0.5841	0.053
Mof_H 	H 	0.3672	0.8563	0.5793	0.014
Mof_C 	C 	0.3201	0.8135	0.5473	-0.074
Mof_H 	H 	0.2894	0.8268	0.5159	0.037
Mof_C 	C 	0.679	0.8127	0.9064	-0.029
Mof_H 	H 	0.7096	0.8261	0.9381	0.028
Mof_C 	C 	0.6351	0.8303	0.851	0.021
Mof_H 	H 	0.636	0.8551	0.844	0.027
Mof_C 	C 	0.5909	0.7768	0.8162	-0.12
Mof_H 	H 	0.56	0.7638	0.7867	0.071
Mof_C 	C 	0.6369	0.7592	0.8699	0.064
Mof_H 	H 	0.6375	0.7338	0.8729	-0.007
Mof_C 	C 	0.461	0.9356	0.5182	0.097
Mof_H 	H 	0.4346	0.9374	0.4675	-0.02
Mof_C 	C 	0.4596	0.9091	0.5525	-0.146
Mof_H 	H 	0.4302	0.8946	0.5259	0.079
Mof_C 	C 	0.5397	0.9249	0.6615	0.029
Mof_H 	H 	0.5683	0.9214	0.7114	0.023
Mof_C 	C 	0.5391	0.9529	0.6261	-0.045
Mof_H 	H 	0.5679	0.9681	0.6528	0.029
Mof_S 	S 	0.3247	0.65967	0.681	-0.036
Mof_S 	S 	0.3244	0.65991	0.9673	0.052
Mof_N 	N 	0.78999	0.78986	0.99992	-0.232
Mof_C 	C 	0.81129	0.81112	0.0001	0.058
Mof_N 	N 	0.78993	0.78999	0.57966	-0.266
Mof_C 	C 	0.81109	0.81122	0.622	0.108
Mof_S 	S 	0.18064	0.48312	0.6803	-0.036
Mof_N 	N 	0.55606	0.54049	0.55606	-0.234
Mof_C 	C 	0.5875	0.547	0.6269	-0.011
Mof_H 	H 	0.5859	0.5318	0.6541	0.018
Mof_C 	C 	0.622	0.5749	0.6613	-0.017
Mof_H 	H 	0.6437	0.5783	0.7113	0.038
Mof_C 	C 	0.62476	0.59692	0.62482	0.031
Mof_C 	C 	0.5924	0.5919	0.5519	-0.112
Mof_H 	H 	0.5945	0.6072	0.5252	0.068
Mof_C 	C 	0.5567	0.5644	0.5178	0.061
Mof_H 	H 	0.5325	0.5623	0.4671	-0.008
Mof_C 	C 	0.66035	0.6275	0.66038	0.105
Mof_N 	N 	0.67341	0.64096	0.71773	-0.149
Mof_C 	C 	0.70299	0.6695	0.7454	0.107
Mof_N 	N 	0.71763	0.68563	0.71749	-0.148
Mof_C 	C 	0.70263	0.66976	0.6603	0.11
Mof_N 	N 	0.67321	0.64125	0.62852	-0.149
Mof_N 	N 	0.737	0.72211	0.91809	-0.226
Mof_C 	C 	0.7317	0.7417	0.8695	0.09
Mof_H 	H 	0.7333	0.7671	0.8723	-0.016
Mof_C 	C 	0.7239	0.7241	0.8152	-0.151
Mof_H 	H 	0.7244	0.7373	0.7849	0.082
Mof_C 	C 	0.71548	0.68726	0.80606	0.025
Mof_C 	C 	0.7162	0.6699	0.8501	0.001
Mof_H 	H 	0.7088	0.645	0.8431	0.034
Mof_C 	C 	0.7271	0.6867	0.906	-0.021
Mof_H 	H 	0.7277	0.673	0.937	0.026
Mof_N 	N 	0.73724	0.72195	0.55598	-0.23
Mof_C 	C 	0.7267	0.6865	0.5468	-0.054
Mof_H 	H 	0.7261	0.673	0.5156	0.031
Mof_C 	C 	0.7166	0.6693	0.5832	0.026
Mof_H 	H 	0.7108	0.6442	0.5778	0.023
Mof_C 	C 	0.7152	0.68748	0.62451	0.021
Mof_C 	C 	0.7248	0.7248	0.6333	-0.16
Mof_H 	H 	0.7257	0.7381	0.6649	0.084
Mof_C 	C 	0.7327	0.7417	0.5956	0.101
Mof_H 	H 	0.7351	0.7671	0.5967	-0.02
Mof_N 	N 	0.81876	0.72182	0.55616	-0.231
Mof_C 	C 	0.8589	0.7255	0.6259	-0.062
Mof_H 	H 	0.8562	0.74	0.6527	0.034
Mof_C 	C 	0.906	0.7085	0.6622	0.047
Mof_H 	H 	0.9344	0.7121	0.7121	0.019
Mof_C 	C 	0.90957	0.68743	0.62512	0.022
Mof_C 	C 	0.8678	0.6831	0.552	-0.155
Mof_H 	H 	0.8697	0.6675	0.5255	0.083
Mof_C 	C 	0.8225	0.7018	0.5171	0.109
Mof_H 	H 	0.7947	0.7003	0.4665	-0.024
Mof_C 	C 	0.9577	0.66952	0.66064	0.116
Mof_N 	N 	0.0001	0.68555	0.71786	-0.155
Mof_C 	C 	0.04213	0.66948	0.74482	0.105
Mof_N 	N 	0.04439	0.64098	0.7177	-0.149
Mof_C 	C 	7e-05	0.62722	0.66075	0.102
Mof_N 	N 	0.95584	0.64108	0.62931	-0.146
Mof_C 	C 	0.1757	0.7025	0.8696	0.066
Mof_H 	H 	0.2026	0.7022	0.8724	-0.007
Mof_C 	C 	0.1307	0.6825	0.8144	-0.13
Mof_H 	H 	0.1287	0.6664	0.7846	0.074
Mof_C 	C 	0.09057	0.68739	0.80625	0.034
Mof_C 	C 	0.0954	0.7091	0.8517	0.009
Mof_H 	H 	0.0674	0.7125	0.8459	0.028
Mof_C 	C 	0.14	0.7261	0.9059	-0.024
Mof_H 	H 	0.1419	0.7415	0.9364	0.026
Mof_N 	N 	0.1811	0.72205	0.91818	-0.227
Mof_C 	C 	0.9608	0.5461	0.5485	-0.045
Mof_H 	H 	0.9321	0.5308	0.5178	0.028
Mof_C 	C 	0.9613	0.5745	0.585	0.039
Mof_H 	H 	0.9339	0.5772	0.5806	0.02
Mof_C 	C 	0.00011	0.59696	0.6252	0.014
Mof_C 	C 	0.0407	0.5919	0.6324	-0.133
Mof_H 	H 	0.0695	0.6071	0.6626	0.075
Mof_C 	C 	0.0385	0.5646	0.5953	0.084
Mof_H 	H 	0.0646	0.5625	0.5969	-0.016
Mof_N 	N 	0.00012	0.54065	0.55672	-0.238
Mof_S 	S 	0.8571	0.84012	0.681	-0.031
Mof_S 	S 	0.8569	0.84044	0.0331	-0.1
Mof_C 	C 	0.5575	0.5648	0.5959	0.054
Mof_H 	H 	0.533	0.5629	0.5976	-0.005
Mof_C 	C 	0.592	0.5915	0.6333	-0.096
Mof_H 	H 	0.5941	0.6062	0.6647	0.063
Mof_C 	C 	0.6219	0.5751	0.5828	0.003
Mof_H 	H 	0.6438	0.5786	0.5764	0.031
Mof_C 	C 	0.5874	0.5474	0.5481	-0.022
Mof_H 	H 	0.5855	0.5324	0.5171	0.021
Mof_C 	C 	0.7653	0.7262	0.9054	-0.051
Mof_H 	H 	0.7937	0.7417	0.9356	0.036
Mof_C 	C 	0.7555	0.7089	0.8504	0.048
Mof_H 	H 	0.7773	0.7125	0.844	0.018
Mof_C 	C 	0.6838	0.6827	0.8158	-0.107
Mof_H 	H 	0.6555	0.667	0.786	0.067
Mof_C 	C 	0.6946	0.7019	0.8704	0.06
Mof_H 	H 	0.6713	0.7009	0.8744	-0.006
Mof_C 	C 	0.6944	0.7018	0.5177	0.086
Mof_H 	H 	0.6714	0.7003	0.4671	-0.016
Mof_C 	C 	0.6837	0.6834	0.552	-0.129
Mof_H 	H 	0.655	0.6681	0.5254	0.074
Mof_C 	C 	0.7557	0.7088	0.6615	0.056
Mof_H 	H 	0.7777	0.7118	0.7116	0.015
Mof_C 	C 	0.7653	0.7267	0.6251	-0.062
Mof_H 	H 	0.793	0.7429	0.6512	0.033
Mof_C 	C 	0.8626	0.7407	0.5964	0.104
Mof_H 	H 	0.8617	0.766	0.5992	-0.021
Mof_C 	C 	0.9087	0.724	0.6336	-0.154
Mof_H 	H 	0.9393	0.7375	0.6643	0.084
Mof_C 	C 	0.8667	0.6689	0.5841	0.054
Mof_H 	H 	0.8672	0.6437	0.5793	0.014
Mof_C 	C 	0.8201	0.6865	0.5473	-0.074
Mof_H 	H 	0.7894	0.6732	0.5159	0.037
Mof_C 	C 	0.179	0.6873	0.9064	-0.029
Mof_H 	H 	0.2096	0.6739	0.9381	0.028
Mof_C 	C 	0.1351	0.6697	0.851	0.02
Mof_H 	H 	0.136	0.6449	0.844	0.027
Mof_C 	C 	0.0909	0.7232	0.8162	-0.12
Mof_H 	H 	0.06	0.7362	0.7867	0.07
Mof_C 	C 	0.1369	0.7408	0.8699	0.063
Mof_H 	H 	0.1375	0.7662	0.8729	-0.007
Mof_C 	C 	0.961	0.5644	0.5182	0.094
Mof_H 	H 	0.9346	0.5626	0.4675	-0.018
Mof_C 	C 	0.9596	0.5909	0.5525	-0.135
Mof_H 	H 	0.9302	0.6054	0.5259	0.077
Mof_C 	C 	0.0397	0.5751	0.6615	0.027
Mof_H 	H 	0.0683	0.5786	0.7114	0.023
Mof_C 	C 	0.0391	0.5471	0.6261	-0.044
Mof_H 	H 	0.0679	0.5319	0.6528	0.027
Mof_S 	S 	0.8247	0.84033	0.681	-0.035
Mof_S 	S 	0.8244	0.84009	0.9673	0.051
Mof_N 	N 	0.28999	0.28986	0.99992	-0.232
Mof_C 	C 	0.31129	0.31112	0.0001	0.058
Mof_N 	N 	0.28993	0.28999	0.57966	-0.266
Mof_C 	C 	0.31109	0.31122	0.622	0.108
Mof_S 	S 	0.68064	0.98312	0.6803	-0.025
Mof_N 	N 	0.05606	0.04049	0.55606	-0.235
Mof_C 	C 	0.0875	0.047	0.6269	-0.01
Mof_H 	H 	0.0859	0.0318	0.6541	0.016
Mof_C 	C 	0.122	0.0749	0.6613	-0.018
Mof_H 	H 	0.1437	0.0783	0.7113	0.038
Mof_C 	C 	0.12476	0.09692	0.62482	0.031
Mof_C 	C 	0.0924	0.0919	0.5519	-0.112
Mof_H 	H 	0.0945	0.1072	0.5252	0.067
Mof_C 	C 	0.0567	0.0644	0.5178	0.06
Mof_H 	H 	0.0325	0.0623	0.4671	-0.011
Mof_C 	C 	0.16035	0.1275	0.66038	0.104
Mof_N 	N 	0.17341	0.14096	0.71773	-0.149
Mof_C 	C 	0.20299	0.1695	0.7454	0.107
Mof_N 	N 	0.21763	0.18563	0.71749	-0.149
Mof_C 	C 	0.20263	0.16976	0.6603	0.109
Mof_N 	N 	0.17321	0.14125	0.62852	-0.149
Mof_N 	N 	0.237	0.22211	0.91809	-0.226
Mof_C 	C 	0.2317	0.2417	0.8695	0.09
Mof_H 	H 	0.2333	0.2671	0.8723	-0.016
Mof_C 	C 	0.2239	0.2241	0.8152	-0.151
Mof_H 	H 	0.2244	0.2373	0.7849	0.081
Mof_C 	C 	0.21548	0.18726	0.80606	0.025
Mof_C 	C 	0.2162	0.1699	0.8501	0
Mof_H 	H 	0.2088	0.145	0.8431	0.033
Mof_C 	C 	0.2271	0.1867	0.906	-0.021
Mof_H 	H 	0.2277	0.173	0.937	0.026
Mof_N 	N 	0.23724	0.22195	0.55598	-0.23
Mof_C 	C 	0.2267	0.1865	0.5468	-0.054
Mof_H 	H 	0.2261	0.173	0.5156	0.03
Mof_C 	C 	0.2166	0.1693	0.5832	0.026
Mof_H 	H 	0.2108	0.1442	0.5778	0.023
Mof_C 	C 	0.2152	0.18748	0.62451	0.02
Mof_C 	C 	0.2248	0.2248	0.6333	-0.16
Mof_H 	H 	0.2257	0.2381	0.6649	0.084
Mof_C 	C 	0.2327	0.2417	0.5956	0.101
Mof_H 	H 	0.2351	0.2671	0.5967	-0.02
Mof_N 	N 	0.31876	0.22182	0.55616	-0.231
Mof_C 	C 	0.3589	0.2255	0.6259	-0.062
Mof_H 	H 	0.3562	0.24	0.6527	0.034
Mof_C 	C 	0.406	0.2085	0.6622	0.047
Mof_H 	H 	0.4344	0.2121	0.7121	0.017
Mof_C 	C 	0.40957	0.18743	0.62512	0.023
Mof_C 	C 	0.3678	0.1831	0.552	-0.156
Mof_H 	H 	0.3697	0.1675	0.5255	0.083
Mof_C 	C 	0.3225	0.2018	0.5171	0.11
Mof_H 	H 	0.2947	0.2003	0.4665	-0.024
Mof_C 	C 	0.4577	0.16952	0.66064	0.108
Mof_N 	N 	0.5001	0.18555	0.71786	-0.149
Mof_C 	C 	0.54213	0.16948	0.74482	0.106
Mof_N 	N 	0.54439	0.14098	0.7177	-0.149
Mof_C 	C 	0.50007	0.12722	0.66075	0.108
Mof_N 	N 	0.45584	0.14108	0.62931	-0.15
Mof_C 	C 	0.6757	0.2025	0.8696	0.067
Mof_H 	H 	0.7026	0.2022	0.8724	-0.007
Mof_C 	C 	0.6307	0.1825	0.8144	-0.13
Mof_H 	H 	0.6287	0.1664	0.7846	0.075
Mof_C 	C 	0.59057	0.18739	0.80625	0.035
Mof_C 	C 	0.5954	0.2091	0.8517	0.009
Mof_H 	H 	0.5674	0.2125	0.8459	0.03
Mof_C 	C 	0.64	0.2261	0.9059	-0.024
Mof_H 	H 	0.6419	0.2415	0.9364	0.026
Mof_N 	N 	0.6811	0.22205	0.91818	-0.227
Mof_C 	C 	0.4608	0.0461	0.5485	-0.055
Mof_H 	H 	0.4321	0.0308	0.5178	0.03
Mof_C 	C 	0.4613	0.0745	0.585	0.037
Mof_H 	H 	0.4339	0.0772	0.5806	0.018
Mof_C 	C 	0.50011	0.09696	0.6252	0.025
Mof_C 	C 	0.5407	0.0919	0.6324	-0.137
Mof_H 	H 	0.5695	0.1071	0.6626	0.077
Mof_C 	C 	0.5385	0.0646	0.5953	0.09
Mof_H 	H 	0.5646	0.0625	0.5969	-0.018
Mof_N 	N 	0.50012	0.04065	0.55672	-0.233
Mof_S 	S 	0.3571	0.34012	0.681	-0.035
Mof_S 	S 	0.3569	0.34044	0.0331	-0.104
Mof_C 	C 	0.0575	0.0648	0.5959	0.053
Mof_H 	H 	0.033	0.0629	0.5976	-0.008
Mof_C 	C 	0.092	0.0915	0.6333	-0.096
Mof_H 	H 	0.0941	0.1062	0.6647	0.062
Mof_C 	C 	0.1219	0.0751	0.5828	0.002
Mof_H 	H 	0.1438	0.0786	0.5764	0.03
Mof_C 	C 	0.0874	0.0474	0.5481	-0.021
Mof_H 	H 	0.0855	0.0324	0.5171	0.019
Mof_C 	C 	0.2653	0.2262	0.9054	-0.051
Mof_H 	H 	0.2937	0.2417	0.9356	0.035
Mof_C 	C 	0.2555	0.2089	0.8504	0.048
Mof_H 	H 	0.2773	0.2125	0.844	0.018
Mof_C 	C 	0.1838	0.1827	0.8158	-0.106
Mof_H 	H 	0.1555	0.167	0.786	0.066
Mof_C 	C 	0.1946	0.2019	0.8704	0.06
Mof_H 	H 	0.1713	0.2009	0.8744	-0.006
Mof_C 	C 	0.1944	0.2018	0.5177	0.086
Mof_H 	H 	0.1714	0.2003	0.4671	-0.016
Mof_C 	C 	0.1837	0.1834	0.552	-0.129
Mof_H 	H 	0.155	0.1681	0.5254	0.073
Mof_C 	C 	0.2557	0.2088	0.6615	0.056
Mof_H 	H 	0.2777	0.2118	0.7116	0.014
Mof_C 	C 	0.2653	0.2267	0.6251	-0.062
Mof_H 	H 	0.293	0.2429	0.6512	0.032
Mof_C 	C 	0.3626	0.2407	0.5964	0.105
Mof_H 	H 	0.3617	0.266	0.5992	-0.022
Mof_C 	C 	0.4087	0.224	0.6336	-0.155
Mof_H 	H 	0.4393	0.2375	0.6643	0.083
Mof_C 	C 	0.3667	0.1689	0.5841	0.053
Mof_H 	H 	0.3672	0.1437	0.5793	0.014
Mof_C 	C 	0.3201	0.1865	0.5473	-0.074
Mof_H 	H 	0.2894	0.1732	0.5159	0.037
Mof_C 	C 	0.679	0.1873	0.9064	-0.029
Mof_H 	H 	0.7096	0.1739	0.9381	0.028
Mof_C 	C 	0.6351	0.1697	0.851	0.021
Mof_H 	H 	0.636	0.1449	0.844	0.027
Mof_C 	C 	0.5909	0.2232	0.8162	-0.12
Mof_H 	H 	0.56	0.2362	0.7867	0.071
Mof_C 	C 	0.6369	0.2408	0.8699	0.064
Mof_H 	H 	0.6375	0.2662	0.8729	-0.007
Mof_C 	C 	0.461	0.0644	0.5182	0.098
Mof_H 	H 	0.4346	0.0626	0.4675	-0.02
Mof_C 	C 	0.4596	0.0909	0.5525	-0.146
Mof_H 	H 	0.4302	0.1054	0.5259	0.079
Mof_C 	C 	0.5397	0.0751	0.6615	0.028
Mof_H 	H 	0.5683	0.0786	0.7114	0.023
Mof_C 	C 	0.5391	0.0471	0.6261	-0.046
Mof_H 	H 	0.5679	0.0319	0.6528	0.028
Mof_S 	S 	0.3247	0.34033	0.681	-0.036
Mof_S 	S 	0.3244	0.34009	0.9673	0.052
Mof_N 	N 	0.21001	0.78986	8e-05	-0.296
Mof_C 	C 	0.18871	0.81112	0.9999	0.157
Mof_N 	N 	0.21007	0.78999	0.42034	-0.267
Mof_C 	C 	0.18891	0.81122	0.378	0.109
Mof_S 	S 	0.81936	0.48312	0.3197	-0.04
Mof_N 	N 	0.44394	0.54049	0.44394	-0.234
Mof_C 	C 	0.4125	0.547	0.3731	-0.013
Mof_H 	H 	0.4141	0.5318	0.3459	0.017
Mof_C 	C 	0.378	0.5749	0.3387	-0.018
Mof_H 	H 	0.3563	0.5783	0.2887	0.035
Mof_C 	C 	0.37524	0.59692	0.37518	0.03
Mof_C 	C 	0.4076	0.5919	0.4481	-0.112
Mof_H 	H 	0.4055	0.6072	0.4748	0.068
Mof_C 	C 	0.4433	0.5644	0.4822	0.062
Mof_H 	H 	0.4675	0.5623	0.5329	-0.008
Mof_C 	C 	0.33965	0.6275	0.33962	0.103
Mof_N 	N 	0.32659	0.64096	0.28227	-0.149
Mof_C 	C 	0.29701	0.6695	0.2546	0.105
Mof_N 	N 	0.28237	0.68563	0.28251	-0.149
Mof_C 	C 	0.29737	0.66976	0.3397	0.108
Mof_N 	N 	0.32679	0.64125	0.37148	-0.149
Mof_N 	N 	0.263	0.72211	0.08191	-0.235
Mof_C 	C 	0.2683	0.7417	0.1305	0.097
Mof_H 	H 	0.2667	0.7671	0.1277	-0.02
Mof_C 	C 	0.2761	0.7241	0.1848	-0.153
Mof_H 	H 	0.2756	0.7373	0.2151	0.081
Mof_C 	C 	0.28452	0.68726	0.19394	0.024
Mof_C 	C 	0.2838	0.6699	0.1499	-0.001
Mof_H 	H 	0.2912	0.645	0.1569	0.029
Mof_C 	C 	0.2729	0.6867	0.094	-0.03
Mof_H 	H 	0.2723	0.673	0.063	0.016
Mof_N 	N 	0.26276	0.72195	0.44402	-0.229
Mof_C 	C 	0.2733	0.6865	0.4532	-0.056
Mof_H 	H 	0.2739	0.673	0.4844	0.031
Mof_C 	C 	0.2834	0.6693	0.4168	0.026
Mof_H 	H 	0.2892	0.6442	0.4222	0.022
Mof_C 	C 	0.2848	0.68748	0.37549	0.02
Mof_C 	C 	0.2752	0.7248	0.3667	-0.159
Mof_H 	H 	0.2743	0.7381	0.3351	0.083
Mof_C 	C 	0.2673	0.7417	0.4044	0.102
Mof_H 	H 	0.2649	0.7671	0.4033	-0.021
Mof_N 	N 	0.18124	0.72182	0.44384	-0.231
Mof_C 	C 	0.1411	0.7255	0.3741	-0.065
Mof_H 	H 	0.1438	0.74	0.3473	0.032
Mof_C 	C 	0.094	0.7085	0.3378	0.047
Mof_H 	H 	0.0656	0.7121	0.2879	0.012
Mof_C 	C 	0.09043	0.68743	0.37488	0.024
Mof_C 	C 	0.1322	0.6831	0.448	-0.157
Mof_H 	H 	0.1303	0.6675	0.4745	0.083
Mof_C 	C 	0.1775	0.7018	0.4829	0.112
Mof_H 	H 	0.2053	0.7003	0.5335	-0.025
Mof_C 	C 	0.0423	0.66952	0.33936	0.098
Mof_N 	N 	0.9999	0.68555	0.28214	-0.143
Mof_C 	C 	0.95787	0.66948	0.25518	0.106
Mof_N 	N 	0.95561	0.64098	0.2823	-0.15
Mof_C 	C 	0.99993	0.62722	0.33925	0.112
Mof_N 	N 	0.04416	0.64108	0.37069	-0.153
Mof_C 	C 	0.8243	0.7025	0.1304	0.075
Mof_H 	H 	0.7974	0.7022	0.1276	-0.011
Mof_C 	C 	0.8693	0.6825	0.1856	-0.134
Mof_H 	H 	0.8713	0.6664	0.2154	0.076
Mof_C 	C 	0.90943	0.68739	0.19375	0.034
Mof_C 	C 	0.9046	0.7091	0.1483	0.008
Mof_H 	H 	0.9326	0.7125	0.1541	0.027
Mof_C 	C 	0.86	0.7261	0.0941	-0.032
Mof_H 	H 	0.8581	0.7415	0.0636	0.017
Mof_N 	N 	0.8189	0.72205	0.08182	-0.235
Mof_C 	C 	0.0392	0.5461	0.4515	-0.065
Mof_H 	H 	0.0679	0.5308	0.4822	0.032
Mof_C 	C 	0.0387	0.5745	0.415	0.036
Mof_H 	H 	0.0661	0.5772	0.4194	0.016
Mof_C 	C 	0.99989	0.59696	0.3748	0.036
Mof_C 	C 	0.9593	0.5919	0.3676	-0.142
Mof_H 	H 	0.9305	0.6071	0.3374	0.078
Mof_C 	C 	0.9615	0.5646	0.4047	0.096
Mof_H 	H 	0.9354	0.5625	0.4031	-0.019
Mof_N 	N 	0.99988	0.54065	0.44328	-0.227
Mof_S 	S 	0.1429	0.84012	0.319	-0.042
Mof_S 	S 	0.1431	0.84044	0.9669	0.026
Mof_C 	C 	0.4425	0.5648	0.4041	0.055
Mof_H 	H 	0.467	0.5629	0.4024	-0.006
Mof_C 	C 	0.408	0.5915	0.3667	-0.096
Mof_H 	H 	0.4059	0.6062	0.3353	0.062
Mof_C 	C 	0.3781	0.5751	0.4172	0.003
Mof_H 	H 	0.3562	0.5786	0.4236	0.029
Mof_C 	C 	0.4126	0.5474	0.4519	-0.024
Mof_H 	H 	0.4145	0.5324	0.4829	0.021
Mof_C 	C 	0.2347	0.7262	0.0946	-0.06
Mof_H 	H 	0.2063	0.7417	0.0644	0.025
Mof_C 	C 	0.2445	0.7089	0.1496	0.048
Mof_H 	H 	0.2227	0.7125	0.156	0.012
Mof_C 	C 	0.3162	0.6827	0.1842	-0.106
Mof_H 	H 	0.3445	0.667	0.214	0.066
Mof_C 	C 	0.3054	0.7019	0.1296	0.066
Mof_H 	H 	0.3287	0.7009	0.1256	-0.01
Mof_C 	C 	0.3056	0.7018	0.4823	0.088
Mof_H 	H 	0.3286	0.7003	0.5329	-0.016
Mof_C 	C 	0.3163	0.6834	0.448	-0.129
Mof_H 	H 	0.345	0.6681	0.4746	0.074
Mof_C 	C 	0.2443	0.7088	0.3385	0.056
Mof_H 	H 	0.2223	0.7118	0.2884	0.011
Mof_C 	C 	0.2347	0.7267	0.3749	-0.064
Mof_H 	H 	0.207	0.7429	0.3488	0.031
Mof_C 	C 	0.1374	0.7407	0.4036	0.107
Mof_H 	H 	0.1383	0.766	0.4008	-0.023
Mof_C 	C 	0.0913	0.724	0.3664	-0.156
Mof_H 	H 	0.0607	0.7375	0.3357	0.08
Mof_C 	C 	0.1333	0.6689	0.4159	0.054
Mof_H 	H 	0.1328	0.6437	0.4207	0.012
Mof_C 	C 	0.1799	0.6865	0.4527	-0.077
Mof_H 	H 	0.2106	0.6732	0.4841	0.037
Mof_C 	C 	0.821	0.6873	0.0936	-0.038
Mof_H 	H 	0.7904	0.6739	0.0619	0.018
Mof_C 	C 	0.8649	0.6697	0.149	0.022
Mof_H 	H 	0.864	0.6449	0.156	0.022
Mof_C 	C 	0.9091	0.7232	0.1838	-0.121
Mof_H 	H 	0.94	0.7362	0.2133	0.073
Mof_C 	C 	0.8631	0.7408	0.1301	0.07
Mof_H 	H 	0.8625	0.7662	0.1271	-0.01
Mof_C 	C 	0.039	0.5644	0.4818	0.102
Mof_H 	H 	0.0654	0.5626	0.5325	-0.022
Mof_C 	C 	0.0404	0.5909	0.4475	-0.158
Mof_H 	H 	0.0698	0.6054	0.4741	0.082
Mof_C 	C 	0.9603	0.5751	0.3385	0.03
Mof_H 	H 	0.9317	0.5786	0.2886	0.02
Mof_C 	C 	0.9609	0.5471	0.3739	-0.048
Mof_H 	H 	0.9321	0.5319	0.3472	0.028
Mof_S 	S 	0.1753	0.84033	0.319	-0.04
Mof_S 	S 	0.1756	0.84009	0.0327	-0.124
Mof_N 	N 	0.71001	0.28986	8e-05	-0.297
Mof_C 	C 	0.68871	0.31112	0.9999	0.158
Mof_N 	N 	0.71007	0.28999	0.42034	-0.267
Mof_C 	C 	0.68891	0.31122	0.378	0.109
Mof_S 	S 	0.31936	0.98312	0.3197	-0.03
Mof_N 	N 	0.94394	0.04049	0.44394	-0.232
Mof_C 	C 	0.9125	0.047	0.3731	-0.014
Mof_H 	H 	0.9141	0.0318	0.3459	0.018
Mof_C 	C 	0.878	0.0749	0.3387	-0.018
Mof_H 	H 	0.8563	0.0783	0.2887	0.035
Mof_C 	C 	0.87524	0.09692	0.37518	0.03
Mof_C 	C 	0.9076	0.0919	0.4481	-0.111
Mof_H 	H 	0.9055	0.1072	0.4748	0.069
Mof_C 	C 	0.9433	0.0644	0.4822	0.063
Mof_H 	H 	0.9675	0.0623	0.5329	-0.006
Mof_C 	C 	0.83965	0.1275	0.33962	0.104
Mof_N 	N 	0.82659	0.14096	0.28227	-0.149
Mof_C 	C 	0.79701	0.1695	0.2546	0.105
Mof_N 	N 	0.78237	0.18563	0.28251	-0.149
Mof_C 	C 	0.79737	0.16976	0.3397	0.108
Mof_N 	N 	0.82679	0.14125	0.37148	-0.149
Mof_N 	N 	0.763	0.22211	0.08191	-0.235
Mof_C 	C 	0.7683	0.2417	0.1305	0.098
Mof_H 	H 	0.7667	0.2671	0.1277	-0.02
Mof_C 	C 	0.7761	0.2241	0.1848	-0.153
Mof_H 	H 	0.7756	0.2373	0.2151	0.082
Mof_C 	C 	0.78452	0.18726	0.19394	0.024
Mof_C 	C 	0.7838	0.1699	0.1499	-0.001
Mof_H 	H 	0.7912	0.145	0.1569	0.029
Mof_C 	C 	0.7729	0.1867	0.094	-0.03
Mof_H 	H 	0.7723	0.173	0.063	0.017
Mof_N 	N 	0.76276	0.22195	0.44402	-0.229
Mof_C 	C 	0.7733	0.1865	0.4532	-0.056
Mof_H 	H 	0.7739	0.173	0.4844	0.031
Mof_C 	C 	0.7834	0.1693	0.4168	0.026
Mof_H 	H 	0.7892	0.1442	0.4222	0.022
Mof_C 	C 	0.7848	0.18748	0.37549	0.02
Mof_C 	C 	0.7752	0.2248	0.3667	-0.159
Mof_H 	H 	0.7743	0.2381	0.3351	0.083
Mof_C 	C 	0.7673	0.2417	0.4044	0.103
Mof_H 	H 	0.7649	0.2671	0.4033	-0.021
Mof_N 	N 	0.68124	0.22182	0.44384	-0.231
Mof_C 	C 	0.6411	0.2255	0.3741	-0.064
Mof_H 	H 	0.6438	0.24	0.3473	0.033
Mof_C 	C 	0.594	0.2085	0.3378	0.047
Mof_H 	H 	0.5656	0.2121	0.2879	0.014
Mof_C 	C 	0.59043	0.18743	0.37488	0.022
Mof_C 	C 	0.6322	0.1831	0.448	-0.156
Mof_H 	H 	0.6303	0.1675	0.4745	0.083
Mof_C 	C 	0.6775	0.2018	0.4829	0.111
Mof_H 	H 	0.7053	0.2003	0.5335	-0.024
Mof_C 	C 	0.5423	0.16952	0.33936	0.107
Mof_N 	N 	0.4999	0.18555	0.28214	-0.149
Mof_C 	C 	0.45787	0.16948	0.25518	0.104
Mof_N 	N 	0.45561	0.14098	0.2823	-0.15
Mof_C 	C 	0.49993	0.12722	0.33925	0.106
Mof_N 	N 	0.54416	0.14108	0.37069	-0.15
Mof_C 	C 	0.3243	0.2025	0.1304	0.075
Mof_H 	H 	0.2974	0.2022	0.1276	-0.012
Mof_C 	C 	0.3693	0.1825	0.1856	-0.133
Mof_H 	H 	0.3713	0.1664	0.2154	0.075
Mof_C 	C 	0.40943	0.18739	0.19375	0.033
Mof_C 	C 	0.4046	0.2091	0.1483	0.009
Mof_H 	H 	0.4326	0.2125	0.1541	0.025
Mof_C 	C 	0.36	0.2261	0.0941	-0.032
Mof_H 	H 	0.3581	0.2415	0.0636	0.017
Mof_N 	N 	0.3189	0.22205	0.08182	-0.235
Mof_C 	C 	0.5392	0.0461	0.4515	-0.057
Mof_H 	H 	0.5679	0.0308	0.4822	0.03
Mof_C 	C 	0.5387	0.0745	0.415	0.037
Mof_H 	H 	0.5661	0.0772	0.4194	0.017
Mof_C 	C 	0.49989	0.09696	0.3748	0.024
Mof_C 	C 	0.4593	0.0919	0.3676	-0.137
Mof_H 	H 	0.4305	0.1071	0.3374	0.076
Mof_C 	C 	0.4615	0.0646	0.4047	0.091
Mof_H 	H 	0.4354	0.0625	0.4031	-0.018
Mof_N 	N 	0.49988	0.04065	0.44328	-0.233
Mof_S 	S 	0.6429	0.34012	0.319	-0.039
Mof_S 	S 	0.6431	0.34044	0.9669	0.029
Mof_C 	C 	0.9425	0.0648	0.4041	0.056
Mof_H 	H 	0.967	0.0629	0.4024	-0.003
Mof_C 	C 	0.908	0.0915	0.3667	-0.095
Mof_H 	H 	0.9059	0.1062	0.3353	0.063
Mof_C 	C 	0.8781	0.0751	0.4172	0.002
Mof_H 	H 	0.8562	0.0786	0.4236	0.03
Mof_C 	C 	0.9126	0.0474	0.4519	-0.025
Mof_H 	H 	0.9145	0.0324	0.4829	0.021
Mof_C 	C 	0.7347	0.2262	0.0946	-0.06
Mof_H 	H 	0.7063	0.2417	0.0644	0.026
Mof_C 	C 	0.7445	0.2089	0.1496	0.048
Mof_H 	H 	0.7227	0.2125	0.156	0.013
Mof_C 	C 	0.8162	0.1827	0.1842	-0.106
Mof_H 	H 	0.8445	0.167	0.214	0.067
Mof_C 	C 	0.8054	0.2019	0.1296	0.066
Mof_H 	H 	0.8287	0.2009	0.1256	-0.01
Mof_C 	C 	0.8056	0.2018	0.4823	0.088
Mof_H 	H 	0.8286	0.2003	0.5329	-0.016
Mof_C 	C 	0.8163	0.1834	0.448	-0.129
Mof_H 	H 	0.845	0.1681	0.4746	0.075
Mof_C 	C 	0.7443	0.2088	0.3385	0.056
Mof_H 	H 	0.7223	0.2118	0.2884	0.011
Mof_C 	C 	0.7347	0.2267	0.3749	-0.064
Mof_H 	H 	0.707	0.2429	0.3488	0.031
Mof_C 	C 	0.6374	0.2407	0.4036	0.106
Mof_H 	H 	0.6383	0.266	0.4008	-0.023
Mof_C 	C 	0.5913	0.224	0.3664	-0.155
Mof_H 	H 	0.5607	0.2375	0.3357	0.082
Mof_C 	C 	0.6333	0.1689	0.4159	0.054
Mof_H 	H 	0.6328	0.1437	0.4207	0.013
Mof_C 	C 	0.6799	0.1865	0.4527	-0.076
Mof_H 	H 	0.7106	0.1732	0.4841	0.037
Mof_C 	C 	0.321	0.1873	0.0936	-0.038
Mof_H 	H 	0.2904	0.1739	0.0619	0.018
Mof_C 	C 	0.3649	0.1697	0.149	0.022
Mof_H 	H 	0.364	0.1449	0.156	0.021
Mof_C 	C 	0.4091	0.2232	0.1838	-0.12
Mof_H 	H 	0.44	0.2362	0.2133	0.071
Mof_C 	C 	0.3631	0.2408	0.1301	0.07
Mof_H 	H 	0.3625	0.2662	0.1271	-0.011
Mof_C 	C 	0.539	0.0644	0.4818	0.099
Mof_H 	H 	0.5654	0.0626	0.5325	-0.02
Mof_C 	C 	0.5404	0.0909	0.4475	-0.146
Mof_H 	H 	0.5698	0.1054	0.4741	0.079
Mof_C 	C 	0.4603	0.0751	0.3385	0.028
Mof_H 	H 	0.4317	0.0786	0.2886	0.02
Mof_C 	C 	0.4609	0.0471	0.3739	-0.047
Mof_H 	H 	0.4321	0.0319	0.3472	0.027
Mof_S 	S 	0.6753	0.34033	0.319	-0.039
Mof_S 	S 	0.6756	0.34009	0.0327	-0.126
Mof_Co	Co	0.5	0.5	0.5	1.128
Mof_Co	Co	2.26278e-33	0	0.5	1.123
Mof_N 	N 	0.50014	0.5	0.42102	-0.272
Mof_C 	C 	0.5002	0.5	0.3794	0.115
Mof_N 	N 	0.92081	0.5	0.4209	-0.271
Mof_C 	C 	0.8793	0.5	0.3796	0.115
Mof_S 	S 	0.49968	0.5	0.31813	-0.075
Mof_N 	N 	0.00014	-3.88761e-33	0.42102	-0.273
Mof_C 	C 	0.0002	-3.88761e-33	0.3794	0.101
Mof_N 	N 	0.42081	0	0.4209	-0.273
Mof_C 	C 	0.3793	0	0.3796	0.113
Mof_S 	S 	0.99968	0	0.31813	-0.062
Mof_N 	N 	0.49986	0.5	0.57898	-0.272
Mof_C 	C 	0.4998	0.5	0.6206	0.114
Mof_N 	N 	0.07919	0.5	0.5791	-0.273
Mof_C 	C 	0.1207	0.5	0.6204	0.115
Mof_S 	S 	0.50032	0.5	0.68187	-0.066
Mof_N 	N 	0.99986	0	0.57898	-0.273
Mof_C 	C 	0.9998	0	0.6206	0.127
Mof_N 	N 	0.57919	0	0.5791	-0.273
Mof_C 	C 	0.6207	0	0.6204	0.112
Mof_S 	S 	0.00032	0	0.68187	-0.083
Mof_Co	Co	0.25	0.25	-0	1.114
Mof_Co	Co	0.75	0.25	-0	1.114
Mof_Co	Co	0.75	0.75	-0	1.114
Mof_Co	Co	0.25	0.75	-0	1.114
Mof_Co	Co	0.25	0.25	0.5	1.125
Mof_Co	Co	0.75	0.25	0.5	1.125
Mof_Co	Co	0.75	0.75	0.5	1.125
Mof_Co	Co	0.25	0.75	0.5	1.125
Mof_Co	Co	2.26278e-33	0.5	0.5	1.122
Mof_Co	Co	0.5	0	0.5	1.125
_end
