data_functionalizedCrystal
_audit_creation_method	'EQeq! by Chris Wilmer'
_symmetry_space_group_name_H-M	'P1'
_symmetry_Int_Tables_number	1
_symmetry_cell_setting	triclinic
loop_
_symmetry_equiv_pos_as_xyz
  x,y,z
_cell_length_a	22.4941
_cell_length_b	11.1377
_cell_length_c	9.8101
_cell_angle_alpha	90
_cell_angle_beta	103.1
_cell_angle_gamma	90
loop_
_atom_site_label
_atom_site_type_symbol
_atom_site_fract_x
_atom_site_fract_y
_atom_site_fract_z
_atom_site_charge
Mof_Cd	Cd	0.39214	0.08592	0.07167	0.459
Mof_P 	P 	0.45423	0.1332	0.40657	0.424
Mof_O 	O 	0.43986	0.0333	0.2975	-0.289
Mof_O 	O 	0.4295	0.1017	0.5352	-0.291
Mof_O 	O 	0.52073	0.1691	0.4503	-0.287
Mof_O 	O 	0.20556	0.4645	0.0284	-0.295
Mof_O 	O 	0.16699	0.3322	0.1487	-0.278
Mof_N 	N 	0.36294	0.24725	0.20846	-0.08
Mof_C 	C 	0.41714	0.26884	0.32337	-0.226
Mof_H 	H 	0.4464	0.314	0.287	0.103
Mof_H 	H 	0.4051	0.3172	0.3935	0.104
Mof_C 	C 	0.30954	0.20413	0.26099	-0.079
Mof_H 	H 	0.322	0.1364	0.3213	0.07
Mof_H 	H 	0.2786	0.177	0.1828	0.064
Mof_C 	C 	0.28189	0.29832	0.34078	-0.072
Mof_H 	H 	0.3104	0.3167	0.427	0.055
Mof_H 	H 	0.2456	0.2664	0.3633	0.063
Mof_C 	C 	0.26594	0.41363	0.25533	-0.111
Mof_H 	H 	0.257	0.474	0.3177	0.074
Mof_C 	C 	0.32094	0.45747	0.2025	-0.079
Mof_H 	H 	0.3524	0.4834	0.2803	0.053
Mof_H 	H 	0.3092	0.5248	0.1412	0.06
Mof_C 	C 	0.34548	0.35755	0.12423	-0.071
Mof_H 	H 	0.3149	0.3373	0.0421	0.065
Mof_H 	H 	0.3805	0.387	0.0941	0.051
Mof_C 	C 	0.20914	0.40098	0.13533	0.304
Mof_Cd	Cd	0.89214	0.58592	0.07167	0.464
Mof_P 	P 	0.95423	0.6332	0.40657	0.445
Mof_O 	O 	0.93986	0.5333	0.2975	-0.282
Mof_O 	O 	0.9295	0.6017	0.5352	-0.284
Mof_O 	O 	0.02073	0.6691	0.4503	-0.307
Mof_O 	O 	0.70556	0.9645	0.0284	-0.294
Mof_O 	O 	0.66699	0.8322	0.1487	-0.277
Mof_N 	N 	0.86294	0.74725	0.20846	-0.079
Mof_C 	C 	0.91714	0.76884	0.32337	-0.234
Mof_H 	H 	0.9464	0.814	0.287	0.113
Mof_H 	H 	0.9051	0.8172	0.3935	0.11
Mof_C 	C 	0.80954	0.70413	0.26099	-0.08
Mof_H 	H 	0.822	0.6364	0.3213	0.07
Mof_H 	H 	0.7786	0.677	0.1828	0.065
Mof_C 	C 	0.78189	0.79832	0.34078	-0.071
Mof_H 	H 	0.8104	0.8167	0.427	0.056
Mof_H 	H 	0.7456	0.7664	0.3633	0.062
Mof_C 	C 	0.76594	0.91363	0.25533	-0.112
Mof_H 	H 	0.757	0.974	0.3177	0.075
Mof_C 	C 	0.82094	0.95747	0.2025	-0.074
Mof_H 	H 	0.8524	0.9834	0.2803	0.053
Mof_H 	H 	0.8092	0.0248	0.1412	0.058
Mof_C 	C 	0.84548	0.85755	0.12423	-0.075
Mof_H 	H 	0.8149	0.8373	0.0421	0.067
Mof_H 	H 	0.8805	0.887	0.0941	0.056
Mof_C 	C 	0.70914	0.90098	0.13533	0.304
Mof_Cd	Cd	0.60786	0.08592	0.42833	0.459
Mof_P 	P 	0.54577	0.1332	0.09343	0.422
Mof_O 	O 	0.56014	0.0333	0.2025	-0.29
Mof_O 	O 	0.5705	0.1017	0.9648	-0.29
Mof_O 	O 	0.47927	0.1691	0.0497	-0.288
Mof_O 	O 	0.79444	0.4645	0.4716	-0.295
Mof_O 	O 	0.83301	0.3322	0.3513	-0.276
Mof_N 	N 	0.63706	0.24725	0.29154	-0.08
Mof_C 	C 	0.58286	0.26884	0.17663	-0.226
Mof_H 	H 	0.5536	0.314	0.213	0.103
Mof_H 	H 	0.5949	0.3172	0.1065	0.104
Mof_C 	C 	0.69046	0.20413	0.23901	-0.079
Mof_H 	H 	0.678	0.1364	0.1787	0.07
Mof_H 	H 	0.7214	0.177	0.3172	0.065
Mof_C 	C 	0.71811	0.29832	0.15922	-0.073
Mof_H 	H 	0.6896	0.3167	0.073	0.055
Mof_H 	H 	0.7544	0.2664	0.1367	0.063
Mof_C 	C 	0.73406	0.41363	0.24467	-0.11
Mof_H 	H 	0.743	0.474	0.1823	0.074
Mof_C 	C 	0.67906	0.45747	0.2975	-0.079
Mof_H 	H 	0.6476	0.4834	0.2197	0.053
Mof_H 	H 	0.6908	0.5248	0.3588	0.06
Mof_C 	C 	0.65452	0.35755	0.37577	-0.071
Mof_H 	H 	0.6851	0.3373	0.4579	0.065
Mof_H 	H 	0.6195	0.387	0.4059	0.051
Mof_C 	C 	0.79086	0.40098	0.36467	0.303
Mof_Cd	Cd	0.10786	0.58592	0.42833	0.458
Mof_P 	P 	0.04577	0.6332	0.09343	0.4
Mof_O 	O 	0.06014	0.5333	0.2025	-0.29
Mof_O 	O 	0.0705	0.6017	0.9648	-0.291
Mof_O 	O 	0.97927	0.6691	0.0497	-0.263
Mof_O 	O 	0.29444	0.9645	0.4716	-0.295
Mof_O 	O 	0.33301	0.8322	0.3513	-0.278
Mof_N 	N 	0.13706	0.74725	0.29154	-0.081
Mof_C 	C 	0.08286	0.76884	0.17663	-0.22
Mof_H 	H 	0.0536	0.814	0.213	0.094
Mof_H 	H 	0.0949	0.8172	0.1065	0.1
Mof_C 	C 	0.19046	0.70413	0.23901	-0.079
Mof_H 	H 	0.178	0.6364	0.1787	0.071
Mof_H 	H 	0.2214	0.677	0.3172	0.065
Mof_C 	C 	0.21811	0.79832	0.15922	-0.071
Mof_H 	H 	0.1896	0.8167	0.073	0.055
Mof_H 	H 	0.2544	0.7664	0.1367	0.063
Mof_C 	C 	0.23406	0.91363	0.24467	-0.112
Mof_H 	H 	0.243	0.974	0.1823	0.075
Mof_C 	C 	0.17906	0.95747	0.2975	-0.077
Mof_H 	H 	0.1476	0.9834	0.2197	0.051
Mof_H 	H 	0.1908	0.0248	0.3588	0.058
Mof_C 	C 	0.15452	0.85755	0.37577	-0.071
Mof_H 	H 	0.1851	0.8373	0.4579	0.065
Mof_H 	H 	0.1195	0.887	0.4059	0.049
Mof_C 	C 	0.29086	0.90098	0.36467	0.304
Mof_Cd	Cd	0.60786	0.91408	0.92833	0.458
Mof_P 	P 	0.54577	0.8668	0.59343	0.423
Mof_O 	O 	0.56014	0.9667	0.7025	-0.29
Mof_O 	O 	0.5705	0.8983	0.4648	-0.291
Mof_O 	O 	0.47927	0.8309	0.5497	-0.287
Mof_O 	O 	0.79444	0.5355	0.9716	-0.296
Mof_O 	O 	0.83301	0.6678	0.8513	-0.277
Mof_N 	N 	0.63706	0.75275	0.79154	-0.08
Mof_C 	C 	0.58286	0.73116	0.67663	-0.226
Mof_H 	H 	0.5536	0.686	0.713	0.103
Mof_H 	H 	0.5949	0.6828	0.6065	0.104
Mof_C 	C 	0.69046	0.79587	0.73901	-0.078
Mof_H 	H 	0.678	0.8636	0.6787	0.07
Mof_H 	H 	0.7214	0.823	0.8172	0.064
Mof_C 	C 	0.71811	0.70168	0.65922	-0.073
Mof_H 	H 	0.6896	0.6833	0.573	0.055
Mof_H 	H 	0.7544	0.7336	0.6367	0.063
Mof_C 	C 	0.73406	0.58637	0.74467	-0.11
Mof_H 	H 	0.743	0.526	0.6823	0.074
Mof_C 	C 	0.67906	0.54253	0.7975	-0.079
Mof_H 	H 	0.6476	0.5166	0.7197	0.053
Mof_H 	H 	0.6908	0.4752	0.8588	0.06
Mof_C 	C 	0.65452	0.64245	0.87577	-0.071
Mof_H 	H 	0.6851	0.6627	0.9579	0.065
Mof_H 	H 	0.6195	0.613	0.9059	0.051
Mof_C 	C 	0.79086	0.59902	0.86467	0.303
Mof_Cd	Cd	0.10786	0.41408	0.92833	0.459
Mof_P 	P 	0.04577	0.3668	0.59343	0.4
Mof_O 	O 	0.06014	0.4667	0.7025	-0.29
Mof_O 	O 	0.0705	0.3983	0.4648	-0.291
Mof_O 	O 	0.97927	0.3309	0.5497	-0.264
Mof_O 	O 	0.29444	0.0355	0.9716	-0.294
Mof_O 	O 	0.33301	0.1678	0.8513	-0.278
Mof_N 	N 	0.13706	0.25275	0.79154	-0.081
Mof_C 	C 	0.08286	0.23116	0.67663	-0.22
Mof_H 	H 	0.0536	0.186	0.713	0.094
Mof_H 	H 	0.0949	0.1828	0.6065	0.1
Mof_C 	C 	0.19046	0.29587	0.73901	-0.08
Mof_H 	H 	0.178	0.3636	0.6787	0.071
Mof_H 	H 	0.2214	0.323	0.8172	0.065
Mof_C 	C 	0.21811	0.20168	0.65922	-0.07
Mof_H 	H 	0.1896	0.1833	0.573	0.054
Mof_H 	H 	0.2544	0.2336	0.6367	0.062
Mof_C 	C 	0.23406	0.08637	0.74467	-0.114
Mof_H 	H 	0.243	0.026	0.6823	0.075
Mof_C 	C 	0.17906	0.04253	0.7975	-0.073
Mof_H 	H 	0.1476	0.0166	0.7197	0.05
Mof_H 	H 	0.1908	0.9752	0.8588	0.056
Mof_C 	C 	0.15452	0.14245	0.87577	-0.074
Mof_H 	H 	0.1851	0.1627	0.9579	0.066
Mof_H 	H 	0.1195	0.113	0.9059	0.05
Mof_C 	C 	0.29086	0.09902	0.86467	0.304
Mof_Cd	Cd	0.39214	0.91408	0.57167	0.459
Mof_P 	P 	0.45423	0.8668	0.90657	0.421
Mof_O 	O 	0.43986	0.9667	0.7975	-0.29
Mof_O 	O 	0.4295	0.8983	0.0352	-0.29
Mof_O 	O 	0.52073	0.8309	0.9503	-0.288
Mof_O 	O 	0.20556	0.5355	0.5284	-0.295
Mof_O 	O 	0.16699	0.6678	0.6487	-0.278
Mof_N 	N 	0.36294	0.75275	0.70846	-0.08
Mof_C 	C 	0.41714	0.73116	0.82337	-0.226
Mof_H 	H 	0.4464	0.686	0.787	0.103
Mof_H 	H 	0.4051	0.6828	0.8935	0.104
Mof_C 	C 	0.30954	0.79587	0.76099	-0.079
Mof_H 	H 	0.322	0.8636	0.8213	0.07
Mof_H 	H 	0.2786	0.823	0.6828	0.065
Mof_C 	C 	0.28189	0.70168	0.84078	-0.072
Mof_H 	H 	0.3104	0.6833	0.927	0.055
Mof_H 	H 	0.2456	0.7336	0.8633	0.062
Mof_C 	C 	0.26594	0.58637	0.75533	-0.111
Mof_H 	H 	0.257	0.526	0.8177	0.074
Mof_C 	C 	0.32094	0.54253	0.7025	-0.078
Mof_H 	H 	0.3524	0.5166	0.7803	0.053
Mof_H 	H 	0.3092	0.4752	0.6412	0.06
Mof_C 	C 	0.34548	0.64245	0.62423	-0.072
Mof_H 	H 	0.3149	0.6627	0.5421	0.065
Mof_H 	H 	0.3805	0.613	0.5941	0.052
Mof_C 	C 	0.20914	0.59902	0.63533	0.304
Mof_Cd	Cd	0.89214	0.41408	0.57167	0.463
Mof_P 	P 	0.95423	0.3668	0.90657	0.443
Mof_O 	O 	0.93986	0.4667	0.7975	-0.282
Mof_O 	O 	0.9295	0.3983	0.0352	-0.284
Mof_O 	O 	0.02073	0.3309	0.9503	-0.306
Mof_O 	O 	0.70556	0.0355	0.5284	-0.295
Mof_O 	O 	0.66699	0.1678	0.6487	-0.278
Mof_N 	N 	0.86294	0.25275	0.70846	-0.079
Mof_C 	C 	0.91714	0.23116	0.82337	-0.233
Mof_H 	H 	0.9464	0.186	0.787	0.113
Mof_H 	H 	0.9051	0.1828	0.8935	0.11
Mof_C 	C 	0.80954	0.29587	0.76099	-0.079
Mof_H 	H 	0.822	0.3636	0.8213	0.07
Mof_H 	H 	0.7786	0.323	0.6828	0.065
Mof_C 	C 	0.78189	0.20168	0.84078	-0.072
Mof_H 	H 	0.8104	0.1833	0.927	0.056
Mof_H 	H 	0.7456	0.2336	0.8633	0.063
Mof_C 	C 	0.76594	0.08637	0.75533	-0.111
Mof_H 	H 	0.757	0.026	0.8177	0.075
Mof_C 	C 	0.82094	0.04253	0.7025	-0.078
Mof_H 	H 	0.8524	0.0166	0.7803	0.054
Mof_H 	H 	0.8092	0.9752	0.6412	0.06
Mof_C 	C 	0.84548	0.14245	0.62423	-0.073
Mof_H 	H 	0.8149	0.1627	0.5421	0.066
Mof_H 	H 	0.8805	0.113	0.5941	0.055
Mof_C 	C 	0.70914	0.09902	0.63533	0.304
Mof_Cd	Cd	0.5	0.88001	0.25	0.421
Mof_Cd	Cd	5.0145e-34	0.38001	0.25	0.394
Mof_Cd	Cd	0.5	0.11999	0.75	0.421
Mof_Cd	Cd	1.50435e-33	0.61999	0.75	0.394
_end
