data_functionalizedCrystal
_audit_creation_method	'EQeq! by Chris Wilmer'
_symmetry_space_group_name_H-M	'P1'
_symmetry_Int_Tables_number	1
_symmetry_cell_setting	triclinic
loop_
_symmetry_equiv_pos_as_xyz
  x,y,z
_cell_length_a	12.2342
_cell_length_b	13.9583
_cell_length_c	19.6064
_cell_angle_alpha	83.8179
_cell_angle_beta	75.7751
_cell_angle_gamma	64.0082
loop_
_atom_site_label
_atom_site_type_symbol
_atom_site_fract_x
_atom_site_fract_y
_atom_site_fract_z
_atom_site_charge
Mof_Cu	Cu	0.69679	0.44396	0.96223	0.878
Mof_Cu	Cu	0.85925	0.44396	0.53777	0.878
Mof_Cu	Cu	0.30321	0.55604	0.03777	0.879
Mof_Cu	Cu	0.14075	0.55604	0.46223	0.879
Mof_H 	H 	0.6214	0.7566	0.8719	0.027
Mof_H 	H 	0.5425	0.9316	0.8316	0.084
Mof_H 	H 	0.1988	0.9398	0.8664	0.075
Mof_H 	H 	0.2778	0.7642	0.9083	0.004
Mof_H 	H 	0.9777	0.3834	0.769	0.066
Mof_H 	H 	0.8566	0.4696	0.6863	0.006
Mof_H 	H 	0.091	0.2466	0.5456	-0.007
Mof_H 	H 	0.2126	0.157	0.6251	0.092
Mof_H 	H 	0.331	0.412	0.8084	0.087
Mof_H 	H 	0.3359	0.5292	0.8823	0.004
Mof_H 	H 	0.1934	0.4084	0.0489	-0.009
Mof_H 	H 	0.1804	0.2892	0.982	0.078
Mof_H 	H 	0.622	0.7566	0.6281	0.026
Mof_H 	H 	0.5259	0.9316	0.6684	0.084
Mof_H 	H 	0.8614	0.9398	0.6336	0.075
Mof_H 	H 	0.958	0.7642	0.5917	0.004
Mof_H 	H 	0.6389	0.3834	0.731	0.068
Mof_H 	H 	0.6738	0.4696	0.8137	0.005
Mof_H 	H 	0.6624	0.2466	0.9544	-0.007
Mof_H 	H 	0.6304	0.157	0.8749	0.092
Mof_H 	H 	0.257	0.412	0.6916	0.087
Mof_H 	H 	0.1349	0.5292	0.6177	0.004
Mof_H 	H 	0.3982	0.4084	0.4511	-0.008
Mof_H 	H 	0.5304	0.2892	0.518	0.077
Mof_H 	H 	0.3786	0.2434	0.1281	0.027
Mof_H 	H 	0.4575	0.0684	0.1684	0.084
Mof_H 	H 	0.8012	0.0602	0.1336	0.075
Mof_H 	H 	0.7222	0.2358	0.0917	0.004
Mof_H 	H 	0.0223	0.6166	0.231	0.066
Mof_H 	H 	0.1434	0.5304	0.3137	0.006
Mof_H 	H 	0.909	0.7534	0.4544	-0.007
Mof_H 	H 	0.7874	0.843	0.3749	0.092
Mof_H 	H 	0.669	0.588	0.1916	0.087
Mof_H 	H 	0.6641	0.4708	0.1177	0.004
Mof_H 	H 	0.8066	0.5916	0.9511	-0.009
Mof_H 	H 	0.8196	0.7108	0.018	0.078
Mof_H 	H 	0.378	0.2434	0.3719	0.026
Mof_H 	H 	0.4741	0.0684	0.3316	0.084
Mof_H 	H 	0.1386	0.0602	0.3664	0.075
Mof_H 	H 	0.042	0.2358	0.4083	0.004
Mof_H 	H 	0.3611	0.6166	0.269	0.068
Mof_H 	H 	0.3262	0.5304	0.1863	0.005
Mof_H 	H 	0.3376	0.7534	0.0456	-0.007
Mof_H 	H 	0.3696	0.843	0.1251	0.092
Mof_H 	H 	0.743	0.588	0.3084	0.087
Mof_H 	H 	0.8651	0.4708	0.3823	0.004
Mof_H 	H 	0.6018	0.5916	0.5489	-0.008
Mof_H 	H 	0.4696	0.7108	0.482	0.077
Mof_C 	C 	0.50413	0.63034	0.9218	0.387
Mof_C 	C 	0.45607	0.74306	0.8934	-0.139
Mof_C 	C 	0.5355	0.7938	0.871	0.064
Mof_C 	C 	0.4882	0.8978	0.8476	-0.123
Mof_C 	C 	0.36297	0.95366	0.847	0.072
Mof_C 	C 	0.2843	0.9032	0.8682	-0.125
Mof_C 	C 	0.332	0.798	0.8924	0.062
Mof_C 	C 	0.3091	0.0684	0.8261	0.002
Mof_C 	C 	0.2427	0.106	0.7734	-0.053
Mof_C 	C 	0.1892	0.2148	0.7585	0.044
Mof_C 	C 	0.25986	0.25228	0.8454	0.04
Mof_C 	C 	0.3197	0.1438	0.861	-0.05
Mof_C 	C 	0.4095	0.1102	0.9049	0.09
Mof_C 	C 	0.2531	0.0252	0.728	0.085
Mof_C 	C 	0.11128	0.26324	0.7043	0.069
Mof_C 	C 	0.0029	0.355	0.7229	-0.119
Mof_C 	C 	0.9304	0.4058	0.6736	0.058
Mof_C 	C 	0.06733	0.27534	0.5915	0.079
Mof_C 	C 	0.14098	0.22224	0.6384	-0.135
Mof_C 	C 	0.2589	0.3354	0.8873	0.074
Mof_C 	C 	0.3032	0.4086	0.8579	-0.137
Mof_C 	C 	0.3063	0.4778	0.9028	0.085
Mof_C 	C 	0.2234	0.4078	0.9994	0.082
Mof_C 	C 	0.2153	0.3366	0.9601	-0.138
Mof_C 	C 	0.86553	0.63034	0.5782	0.387
Mof_C 	C 	0.80087	0.74306	0.6066	-0.139
Mof_C 	C 	0.6707	0.7938	0.629	0.065
Mof_C 	C 	0.614	0.8978	0.6524	-0.124
Mof_C 	C 	0.68337	0.95366	0.653	0.073
Mof_C 	C 	0.8125	0.9032	0.6318	-0.126
Mof_C 	C 	0.87	0.798	0.6076	0.062
Mof_C 	C 	0.6225	0.0684	0.6739	0.001
Mof_C 	C 	0.6513	0.106	0.7266	-0.052
Mof_C 	C 	0.596	0.2148	0.7415	0.043
Mof_C 	C 	0.48786	0.25228	0.6546	0.04
Mof_C 	C 	0.5365	0.1438	0.639	-0.05
Mof_C 	C 	0.4803	0.1102	0.5951	0.09
Mof_C 	C 	0.7217	0.0252	0.772	0.083
Mof_C 	C 	0.62548	0.26324	0.7957	0.07
Mof_C 	C 	0.6421	0.355	0.7771	-0.122
Mof_C 	C 	0.6638	0.4058	0.8264	0.06
Mof_C 	C 	0.65733	0.27534	0.9085	0.079
Mof_C 	C 	0.63678	0.22224	0.8616	-0.136
Mof_C 	C 	0.4057	0.3354	0.6127	0.074
Mof_C 	C 	0.2882	0.4086	0.6421	-0.137
Mof_C 	C 	0.2159	0.4778	0.5972	0.084
Mof_C 	C 	0.3688	0.4078	0.5006	0.08
Mof_C 	C 	0.4481	0.3366	0.5399	-0.137
Mof_C 	C 	0.49587	0.36966	0.0782	0.387
Mof_C 	C 	0.54393	0.25694	0.1066	-0.139
Mof_C 	C 	0.4645	0.2062	0.129	0.064
Mof_C 	C 	0.5118	0.1022	0.1524	-0.123
Mof_C 	C 	0.63703	0.04634	0.153	0.072
Mof_C 	C 	0.7157	0.0968	0.1318	-0.125
Mof_C 	C 	0.668	0.202	0.1076	0.062
Mof_C 	C 	0.6909	0.9316	0.1739	0.002
Mof_C 	C 	0.7573	0.894	0.2266	-0.053
Mof_C 	C 	0.8108	0.7852	0.2415	0.044
Mof_C 	C 	0.74014	0.74772	0.1546	0.04
Mof_C 	C 	0.6803	0.8562	0.139	-0.05
Mof_C 	C 	0.5905	0.8898	0.0951	0.09
Mof_C 	C 	0.7469	0.9748	0.272	0.085
Mof_C 	C 	0.88872	0.73676	0.2957	0.069
Mof_C 	C 	0.9971	0.645	0.2771	-0.119
Mof_C 	C 	0.0696	0.5942	0.3264	0.058
Mof_C 	C 	0.93267	0.72466	0.4085	0.079
Mof_C 	C 	0.85902	0.77776	0.3616	-0.135
Mof_C 	C 	0.7411	0.6646	0.1127	0.074
Mof_C 	C 	0.6968	0.5914	0.1421	-0.137
Mof_C 	C 	0.6937	0.5222	0.0972	0.085
Mof_C 	C 	0.7766	0.5922	0.0006	0.082
Mof_C 	C 	0.7847	0.6634	0.0399	-0.138
Mof_C 	C 	0.13447	0.36966	0.4218	0.387
Mof_C 	C 	0.19913	0.25694	0.3934	-0.139
Mof_C 	C 	0.3293	0.2062	0.371	0.065
Mof_C 	C 	0.386	0.1022	0.3476	-0.124
Mof_C 	C 	0.31663	0.04634	0.347	0.073
Mof_C 	C 	0.1875	0.0968	0.3682	-0.126
Mof_C 	C 	0.13	0.202	0.3924	0.062
Mof_C 	C 	0.3775	0.9316	0.3261	0.001
Mof_C 	C 	0.3487	0.894	0.2734	-0.052
Mof_C 	C 	0.404	0.7852	0.2585	0.043
Mof_C 	C 	0.51214	0.74772	0.3454	0.04
Mof_C 	C 	0.4635	0.8562	0.361	-0.05
Mof_C 	C 	0.5197	0.8898	0.4049	0.09
Mof_C 	C 	0.2783	0.9748	0.228	0.083
Mof_C 	C 	0.37452	0.73676	0.2043	0.07
Mof_C 	C 	0.3579	0.645	0.2229	-0.122
Mof_C 	C 	0.3362	0.5942	0.1736	0.06
Mof_C 	C 	0.34267	0.72466	0.0915	0.079
Mof_C 	C 	0.36322	0.77776	0.1384	-0.136
Mof_C 	C 	0.5943	0.6646	0.3873	0.074
Mof_C 	C 	0.7118	0.5914	0.3579	-0.137
Mof_C 	C 	0.7841	0.5222	0.4028	0.084
Mof_C 	C 	0.6312	0.5922	0.4994	0.08
Mof_C 	C 	0.5519	0.6634	0.4601	-0.137
Mof_N 	N 	0.19959	0.28622	0.79298	-0.124
Mof_N 	N 	0.4705	0.0918	0.9443	-0.12
Mof_N 	N 	0.2565	0.9634	0.6933	-0.127
Mof_N 	N 	0.96369	0.36562	0.60773	-0.23
Mof_N 	N 	0.27116	0.47648	0.9715	-0.233
Mof_N 	N 	0.51419	0.28622	0.70702	-0.124
Mof_N 	N 	0.4377	0.0918	0.5557	-0.12
Mof_N 	N 	0.7801	0.9634	0.8067	-0.126
Mof_N 	N 	0.67069	0.36562	0.89227	-0.23
Mof_N 	N 	0.25236	0.47648	0.5285	-0.233
Mof_N 	N 	0.80041	0.71378	0.20702	-0.124
Mof_N 	N 	0.5295	0.9082	0.0557	-0.12
Mof_N 	N 	0.7435	0.0366	0.3067	-0.127
Mof_N 	N 	0.03631	0.63438	0.39227	-0.23
Mof_N 	N 	0.72884	0.52352	0.0285	-0.233
Mof_N 	N 	0.48581	0.71378	0.29298	-0.124
Mof_N 	N 	0.5623	0.9082	0.4443	-0.12
Mof_N 	N 	0.2199	0.0366	0.1933	-0.126
Mof_N 	N 	0.32931	0.63438	0.10773	-0.23
Mof_N 	N 	0.74764	0.52352	0.4715	-0.233
Mof_O 	O 	0.62127	0.58206	0.91576	-0.411
Mof_O 	O 	0.42951	0.59298	0.94915	-0.412
Mof_O 	O 	0.79667	0.58206	0.58424	-0.411
Mof_O 	O 	0.97751	0.59298	0.55085	-0.412
Mof_O 	O 	0.37873	0.41794	0.08424	-0.411
Mof_O 	O 	0.57049	0.40702	0.05085	-0.412
Mof_O 	O 	0.20333	0.41794	0.41576	-0.411
Mof_O 	O 	0.02249	0.40702	0.44915	-0.412
_end
