data_functionalizedCrystal
_audit_creation_method	'EQeq! by Chris Wilmer'
_symmetry_space_group_name_H-M	'P1'
_symmetry_Int_Tables_number	1
_symmetry_cell_setting	triclinic
loop_
_symmetry_equiv_pos_as_xyz
  x,y,z
_cell_length_a	3.4926
_cell_length_b	9.828
_cell_length_c	17.185
_cell_angle_alpha	90
_cell_angle_beta	93.753
_cell_angle_gamma	90
loop_
_atom_site_label
_atom_site_type_symbol
_atom_site_fract_x
_atom_site_fract_y
_atom_site_fract_z
_atom_site_charge
Mof_Cu	Cu	0.58112	0.24095	0.72802	0.931
Mof_Cu	Cu	0.1293	0.45535	0.60664	0.866
Mof_Cu	Cu	0.08112	0.75905	0.22802	0.908
Mof_Cu	Cu	0.6293	0.54465	0.10664	0.891
Mof_H 	H 	0.6109	0.783	0.7158	0.048
Mof_H 	H 	0.9461	0.5425	0.897	0.025
Mof_H 	H 	0.088	0.9502	0.9128	0.063
Mof_H 	H 	0.1109	0.217	0.2158	0.036
Mof_H 	H 	0.4461	0.4575	0.397	0.045
Mof_H 	H 	0.588	0.0498	0.4128	0.064
Mof_C 	C 	0.8395	0.8871	0.8089	-0.008
Mof_C 	C 	0.717	0.7735	0.7666	0.022
Mof_C 	C 	0.752	0.6455	0.8004	-0.118
Mof_C 	C 	0.919	0.629	0.8754	0.107
Mof_C 	C 	0.047	0.7432	0.9182	-0.124
Mof_C 	C 	0.0053	0.8736	0.8847	-0.053
Mof_C 	C 	0.77	0.0252	0.7755	0.27
Mof_C 	C 	0.608	0.5254	0.7526	0.365
Mof_C 	C 	0.239	0.731	0.9987	0.241
Mof_C 	C 	0.3395	0.1129	0.3089	-0.077
Mof_C 	C 	0.217	0.2265	0.2666	0.02
Mof_C 	C 	0.252	0.3545	0.3004	-0.088
Mof_C 	C 	0.419	0.371	0.3754	0.028
Mof_C 	C 	0.547	0.2568	0.4182	-0.085
Mof_C 	C 	0.5053	0.1264	0.3847	0.024
Mof_C 	C 	0.27	0.9748	0.2755	0.29
Mof_C 	C 	0.108	0.4746	0.2526	0.267
Mof_C 	C 	0.739	0.269	0.4987	0.328
Mof_O 	O 	0.5811	0.0402	0.7104	-0.338
Mof_O 	O 	0.8866	0.1317	0.8122	-0.332
Mof_O 	O 	0.6302	0.409	0.7856	-0.413
Mof_O 	O 	0.1382	0.2878	0.6631	-0.52
Mof_O 	O 	0.4932	0.5461	0.6833	-0.476
Mof_O 	O 	0.2489	0.6092	0.027	-0.416
Mof_O 	O 	0.3765	0.8318	0.0319	-0.191
Mof_O 	O 	0.0811	0.9598	0.2104	-0.354
Mof_O 	O 	0.3866	0.8683	0.3122	-0.349
Mof_O 	O 	0.1302	0.591	0.2856	-0.405
Mof_O 	O 	0.6382	0.7122	0.1631	-0.459
Mof_O 	O 	0.9932	0.4539	0.1833	-0.385
Mof_O 	O 	0.7489	0.3908	0.527	-0.421
Mof_O 	O 	0.8765	0.1682	0.5319	-0.227
_end
