data_functionalizedCrystal
_audit_creation_method	'EQeq! by Chris Wilmer'
_symmetry_space_group_name_H-M	'P1'
_symmetry_Int_Tables_number	1
_symmetry_cell_setting	triclinic
loop_
_symmetry_equiv_pos_as_xyz
  x,y,z
_cell_length_a	26.87
_cell_length_b	12.316
_cell_length_c	21.468
_cell_angle_alpha	90
_cell_angle_beta	90
_cell_angle_gamma	90
loop_
_atom_site_label
_atom_site_type_symbol
_atom_site_fract_x
_atom_site_fract_y
_atom_site_fract_z
_atom_site_charge
Mof_Ag	Ag	0.77426	0.90506	0.24578	0.686
Mof_S 	S 	0.55127	0.2661	0.31858	0.039
Mof_S 	S 	0.55258	0.2885	0.18219	-0.054
Mof_S 	S 	0.56247	0.5514	0.19672	-0.022
Mof_S 	S 	0.56417	0.5281	0.33315	0.102
Mof_S 	S 	0.58253	0.0539	0.16245	-0.146
Mof_S 	S 	0.58168	0.0279	0.31248	-0.142
Mof_S 	S 	0.59267	0.788	0.20267	-0.023
Mof_S 	S 	0.59283	0.76	0.35476	0.051
Mof_F 	F 	0.4945	0.3624	0.45	-0.472
Mof_O 	O 	0.5204	0.1317	0.4436	-0.287
Mof_N 	N 	0.717	0.0128	0.1921	-0.234
Mof_N 	N 	0.6903	0.2667	0.3036	-0.228
Mof_N 	N 	0.6964	0.5484	0.2041	-0.232
Mof_N 	N 	0.7255	0.7941	0.3076	-0.217
Mof_C 	C 	0.5572	0.3541	0.2546	-0.002
Mof_C 	C 	0.5719	0.1632	0.2128	0.004
Mof_C 	C 	0.572	0.1534	0.2753	-0.018
Mof_C 	C 	0.5623	0.4631	0.2605	-0.025
Mof_C 	C 	0.5831	0.6639	0.2406	0.002
Mof_C 	C 	0.5835	0.653	0.3025	-0.033
Mof_C 	C 	0.6207	0.1129	0.1012	0.014
Mof_C 	C 	0.6703	0.1561	0.1256	-0.291
Mof_C 	C 	0.6969	0.0759	0.1631	0.148
Mof_C 	C 	0.6224	0.0611	0.3771	-0.031
Mof_C 	C 	0.676	0.0814	0.3584	-0.255
Mof_C 	C 	0.6835	0.1859	0.3266	0.152
Mof_C 	C 	0.6267	0.7506	0.1332	-0.047
Mof_C 	C 	0.681	0.7261	0.1423	-0.251
Mof_C 	C 	0.6898	0.6251	0.1776	0.142
Mof_C 	C 	0.6356	0.7012	0.4103	-0.12
Mof_C 	C 	0.6831	0.6567	0.3813	-0.208
Mof_C 	C 	0.7073	0.7351	0.3405	0.132
Mof_H 	H 	0.6272	0.0587	0.0707	-0.005
Mof_H 	H 	0.6028	0.171	0.0826	0.001
Mof_H 	H 	0.6905	0.1759	0.0911	0.099
Mof_H 	H 	0.664	0.2184	0.1505	0.108
Mof_H 	H 	0.6101	0.1247	0.3968	0.062
Mof_H 	H 	0.6218	0.0024	0.4058	0.03
Mof_H 	H 	0.696	0.0803	0.3949	0.094
Mof_H 	H 	0.6862	0.0248	0.3312	0.092
Mof_H 	H 	0.6114	0.6877	0.1161	0.036
Mof_H 	H 	0.6241	0.8089	0.1044	0.032
Mof_H 	H 	0.6963	0.7194	0.1026	0.091
Mof_H 	H 	0.6958	0.7848	0.1643	0.096
Mof_H 	H 	0.6445	0.7556	0.4396	0.079
Mof_H 	H 	0.6191	0.6435	0.4311	0.107
Mof_H 	H 	0.7056	0.6377	0.4138	0.082
Mof_H 	H 	0.6751	0.5937	0.3578	0.086
Mof_Ag	Ag	0.22574	0.09494	0.24578	0.589
Mof_S 	S 	0.44873	0.7339	0.31858	0.045
Mof_S 	S 	0.44742	0.7115	0.18219	-0.048
Mof_S 	S 	0.43753	0.4486	0.19672	-0.023
Mof_S 	S 	0.43583	0.4719	0.33315	0.101
Mof_S 	S 	0.41747	0.9461	0.16245	-0.103
Mof_S 	S 	0.41832	0.9721	0.31248	-0.097
Mof_S 	S 	0.40733	0.212	0.20267	-0.056
Mof_S 	S 	0.40717	0.24	0.35476	0.025
Mof_F 	F 	0.5055	0.6376	0.45	-0.472
Mof_O 	O 	0.4796	0.8683	0.4436	-0.273
Mof_N 	N 	0.283	0.9872	0.1921	-0.205
Mof_N 	N 	0.3097	0.7333	0.3036	-0.229
Mof_N 	N 	0.3036	0.4516	0.2041	-0.232
Mof_N 	N 	0.2745	0.2059	0.3076	-0.219
Mof_C 	C 	0.4428	0.6459	0.2546	-0.004
Mof_C 	C 	0.4281	0.8368	0.2128	0.001
Mof_C 	C 	0.428	0.8466	0.2753	-0.02
Mof_C 	C 	0.4377	0.5369	0.2605	-0.024
Mof_C 	C 	0.4169	0.3361	0.2406	0.005
Mof_C 	C 	0.4165	0.347	0.3025	-0.031
Mof_C 	C 	0.3793	0.8871	0.1012	-0.009
Mof_C 	C 	0.3297	0.8439	0.1256	-0.272
Mof_C 	C 	0.3031	0.9241	0.1631	0.149
Mof_C 	C 	0.3776	0.9389	0.3771	-0.041
Mof_C 	C 	0.324	0.9186	0.3584	-0.263
Mof_C 	C 	0.3165	0.8141	0.3266	0.158
Mof_C 	C 	0.3733	0.2494	0.1332	-0.033
Mof_C 	C 	0.319	0.2739	0.1423	-0.256
Mof_C 	C 	0.3102	0.3749	0.1776	0.144
Mof_C 	C 	0.3644	0.2988	0.4103	-0.109
Mof_C 	C 	0.3169	0.3433	0.3813	-0.213
Mof_C 	C 	0.2927	0.2649	0.3405	0.124
Mof_H 	H 	0.3728	0.9413	0.0707	0.015
Mof_H 	H 	0.3972	0.829	0.0826	0.011
Mof_H 	H 	0.3095	0.8241	0.0911	0.096
Mof_H 	H 	0.336	0.7816	0.1505	0.102
Mof_H 	H 	0.3899	0.8753	0.3968	0.068
Mof_H 	H 	0.3782	0.9976	0.4058	0.051
Mof_H 	H 	0.304	0.9197	0.3949	0.106
Mof_H 	H 	0.3138	0.9752	0.3312	0.111
Mof_H 	H 	0.3886	0.3123	0.1161	0.03
Mof_H 	H 	0.3759	0.1911	0.1044	0.014
Mof_H 	H 	0.3037	0.2806	0.1026	0.088
Mof_H 	H 	0.3042	0.2152	0.1643	0.09
Mof_H 	H 	0.3555	0.2444	0.4396	0.067
Mof_H 	H 	0.3809	0.3565	0.4311	0.103
Mof_H 	H 	0.2944	0.3623	0.4138	0.081
Mof_H 	H 	0.3249	0.4063	0.3578	0.088
Mof_Ag	Ag	0.72574	0.40506	0.25422	0.639
Mof_S 	S 	0.94873	0.7661	0.18142	0.062
Mof_S 	S 	0.94742	0.7885	0.31781	-0.025
Mof_S 	S 	0.93753	0.0514	0.30328	-0.048
Mof_S 	S 	0.93583	0.0281	0.16685	0.067
Mof_S 	S 	0.91747	0.5539	0.33755	-0.116
Mof_S 	S 	0.91832	0.5279	0.18752	-0.114
Mof_S 	S 	0.90733	0.288	0.29733	-0.031
Mof_S 	S 	0.90717	0.26	0.14524	0.044
Mof_F 	F 	0.0055	0.8624	0.05	-0.495
Mof_O 	O 	0.9796	0.6317	0.0564	-0.24
Mof_N 	N 	0.783	0.5128	0.3079	-0.22
Mof_N 	N 	0.8097	0.7667	0.1964	-0.23
Mof_N 	N 	0.8036	0.0484	0.2959	-0.245
Mof_N 	N 	0.7745	0.2941	0.1924	-0.217
Mof_C 	C 	0.9428	0.8541	0.2454	-0.016
Mof_C 	C 	0.9281	0.6632	0.2872	0
Mof_C 	C 	0.928	0.6534	0.2247	-0.02
Mof_C 	C 	0.9377	0.9631	0.2395	0.028
Mof_C 	C 	0.9169	0.1639	0.2594	0.006
Mof_C 	C 	0.9165	0.153	0.1975	-0.028
Mof_C 	C 	0.8793	0.6129	0.3988	-0.005
Mof_C 	C 	0.8297	0.6561	0.3744	-0.28
Mof_C 	C 	0.8031	0.5759	0.3369	0.149
Mof_C 	C 	0.8776	0.5611	0.1229	-0.038
Mof_C 	C 	0.824	0.5814	0.1416	-0.257
Mof_C 	C 	0.8165	0.6859	0.1734	0.156
Mof_C 	C 	0.8733	0.2506	0.3668	-0.045
Mof_C 	C 	0.819	0.2261	0.3577	-0.253
Mof_C 	C 	0.8102	0.1251	0.3224	0.142
Mof_C 	C 	0.8644	0.2012	0.0897	-0.119
Mof_C 	C 	0.8169	0.1567	0.1187	-0.2
Mof_C 	C 	0.7927	0.2351	0.1595	0.122
Mof_H 	H 	0.8728	0.5587	0.4293	0.012
Mof_H 	H 	0.8972	0.671	0.4174	0.015
Mof_H 	H 	0.8095	0.6759	0.4089	0.102
Mof_H 	H 	0.836	0.7184	0.3495	0.107
Mof_H 	H 	0.8899	0.6247	0.1032	0.064
Mof_H 	H 	0.8782	0.5024	0.0942	0.04
Mof_H 	H 	0.804	0.5803	0.1051	0.097
Mof_H 	H 	0.8138	0.5248	0.1688	0.1
Mof_H 	H 	0.8886	0.1877	0.3839	0.037
Mof_H 	H 	0.8759	0.3089	0.3956	0.028
Mof_H 	H 	0.8037	0.2194	0.3974	0.091
Mof_H 	H 	0.8042	0.2848	0.3357	0.093
Mof_H 	H 	0.8555	0.2556	0.0604	0.071
Mof_H 	H 	0.8809	0.1435	0.0689	0.102
Mof_H 	H 	0.7944	0.1377	0.0862	0.072
Mof_H 	H 	0.8249	0.0937	0.1422	0.077
Mof_Ag	Ag	0.27426	0.59494	0.25422	0.641
Mof_S 	S 	0.05127	0.2339	0.18142	0.019
Mof_S 	S 	0.05258	0.2115	0.31781	-0.074
Mof_S 	S 	0.06247	0.9486	0.30328	0.013
Mof_S 	S 	0.06417	0.9719	0.16685	0.137
Mof_S 	S 	0.08253	0.4461	0.33755	-0.136
Mof_S 	S 	0.08168	0.4721	0.18752	-0.13
Mof_S 	S 	0.09267	0.712	0.29733	-0.045
Mof_S 	S 	0.09283	0.74	0.14524	0.03
Mof_F 	F 	0.9945	0.1376	0.05	-0.448
Mof_O 	O 	0.0204	0.3683	0.0564	-0.318
Mof_N 	N 	0.217	0.4872	0.3079	-0.22
Mof_N 	N 	0.1903	0.2333	0.1964	-0.227
Mof_N 	N 	0.1964	0.9516	0.2959	-0.218
Mof_N 	N 	0.2255	0.7059	0.1924	-0.219
Mof_C 	C 	0.0572	0.1459	0.2454	0.011
Mof_C 	C 	0.0719	0.3368	0.2872	0.004
Mof_C 	C 	0.072	0.3466	0.2247	-0.018
Mof_C 	C 	0.0623	0.0369	0.2395	-0.082
Mof_C 	C 	0.0831	0.8361	0.2594	-0.001
Mof_C 	C 	0.0835	0.847	0.1975	-0.035
Mof_C 	C 	0.1207	0.3871	0.3988	0.007
Mof_C 	C 	0.1703	0.3439	0.3744	-0.284
Mof_C 	C 	0.1969	0.4241	0.3369	0.151
Mof_C 	C 	0.1224	0.4389	0.1229	-0.03
Mof_C 	C 	0.176	0.4186	0.1416	-0.259
Mof_C 	C 	0.1835	0.3141	0.1734	0.152
Mof_C 	C 	0.1267	0.7494	0.3668	-0.038
Mof_C 	C 	0.181	0.7739	0.3577	-0.255
Mof_C 	C 	0.1898	0.8749	0.3224	0.147
Mof_C 	C 	0.1356	0.7988	0.0897	-0.103
Mof_C 	C 	0.1831	0.8433	0.1187	-0.223
Mof_C 	C 	0.2073	0.7649	0.1595	0.133
Mof_H 	H 	0.1272	0.4413	0.4293	0.005
Mof_H 	H 	0.1028	0.329	0.4174	0.003
Mof_H 	H 	0.1905	0.3241	0.4089	0.099
Mof_H 	H 	0.164	0.2816	0.3495	0.106
Mof_H 	H 	0.1101	0.3753	0.1032	0.061
Mof_H 	H 	0.1218	0.4976	0.0942	0.036
Mof_H 	H 	0.196	0.4197	0.1051	0.096
Mof_H 	H 	0.1862	0.4752	0.1688	0.101
Mof_H 	H 	0.1114	0.8123	0.3839	0.035
Mof_H 	H 	0.1241	0.6911	0.3956	0.024
Mof_H 	H 	0.1963	0.7806	0.3974	0.095
Mof_H 	H 	0.1958	0.7152	0.3357	0.094
Mof_H 	H 	0.1445	0.7444	0.0604	0.065
Mof_H 	H 	0.1191	0.8565	0.0689	0.1
Mof_H 	H 	0.2056	0.8623	0.0862	0.086
Mof_H 	H 	0.1751	0.9063	0.1422	0.096
Mof_Ag	Ag	0.22574	0.09494	0.75422	0.591
Mof_S 	S 	0.44873	0.7339	0.68142	0.045
Mof_S 	S 	0.44742	0.7115	0.81781	-0.043
Mof_S 	S 	0.43753	0.4486	0.80328	-0.018
Mof_S 	S 	0.43583	0.4719	0.66685	0.101
Mof_S 	S 	0.41747	0.9461	0.83755	-0.101
Mof_S 	S 	0.41832	0.9721	0.68752	-0.097
Mof_S 	S 	0.40733	0.212	0.79733	-0.054
Mof_S 	S 	0.40717	0.24	0.64524	0.025
Mof_F 	F 	0.5055	0.6376	0.55	-0.472
Mof_O 	O 	0.4796	0.8683	0.5564	-0.273
Mof_N 	N 	0.283	0.9872	0.8079	-0.205
Mof_N 	N 	0.3097	0.7333	0.6964	-0.229
Mof_N 	N 	0.3036	0.4516	0.7959	-0.232
Mof_N 	N 	0.2745	0.2059	0.6924	-0.219
Mof_C 	C 	0.4428	0.6459	0.7454	-0.005
Mof_C 	C 	0.4281	0.8368	0.7872	0
Mof_C 	C 	0.428	0.8466	0.7247	-0.02
Mof_C 	C 	0.4377	0.5369	0.7395	-0.025
Mof_C 	C 	0.4169	0.3361	0.7594	0.004
Mof_C 	C 	0.4165	0.347	0.6975	-0.031
Mof_C 	C 	0.3793	0.8871	0.8988	-0.015
Mof_C 	C 	0.3297	0.8439	0.8744	-0.272
Mof_C 	C 	0.3031	0.9241	0.8369	0.152
Mof_C 	C 	0.3776	0.9389	0.6229	-0.041
Mof_C 	C 	0.324	0.9186	0.6416	-0.263
Mof_C 	C 	0.3165	0.8141	0.6734	0.158
Mof_C 	C 	0.3733	0.2494	0.8668	-0.036
Mof_C 	C 	0.319	0.2739	0.8577	-0.258
Mof_C 	C 	0.3102	0.3749	0.8224	0.147
Mof_C 	C 	0.3644	0.2988	0.5897	-0.109
Mof_C 	C 	0.3169	0.3433	0.6187	-0.213
Mof_C 	C 	0.2927	0.2649	0.6595	0.124
Mof_H 	H 	0.3728	0.9413	0.9293	0.024
Mof_H 	H 	0.3972	0.829	0.9174	0.019
Mof_H 	H 	0.3095	0.8241	0.9089	0.102
Mof_H 	H 	0.336	0.7816	0.8495	0.104
Mof_H 	H 	0.3899	0.8753	0.6032	0.068
Mof_H 	H 	0.3782	0.9976	0.5942	0.051
Mof_H 	H 	0.304	0.9197	0.6051	0.106
Mof_H 	H 	0.3138	0.9752	0.6688	0.111
Mof_H 	H 	0.3886	0.3123	0.8839	0.036
Mof_H 	H 	0.3759	0.1911	0.8956	0.02
Mof_H 	H 	0.3037	0.2806	0.8974	0.095
Mof_H 	H 	0.3042	0.2152	0.8357	0.092
Mof_H 	H 	0.3555	0.2444	0.5604	0.067
Mof_H 	H 	0.3809	0.3565	0.5689	0.103
Mof_H 	H 	0.2944	0.3623	0.5862	0.081
Mof_H 	H 	0.3249	0.4063	0.6422	0.088
Mof_Ag	Ag	0.77426	0.90506	0.75422	0.69
Mof_S 	S 	0.55127	0.2661	0.68142	0.04
Mof_S 	S 	0.55258	0.2885	0.81781	-0.048
Mof_S 	S 	0.56247	0.5514	0.80328	-0.016
Mof_S 	S 	0.56417	0.5281	0.66685	0.102
Mof_S 	S 	0.58253	0.0539	0.83755	-0.144
Mof_S 	S 	0.58168	0.0279	0.68752	-0.142
Mof_S 	S 	0.59267	0.788	0.79733	-0.02
Mof_S 	S 	0.59283	0.76	0.64524	0.051
Mof_F 	F 	0.4945	0.3624	0.55	-0.472
Mof_O 	O 	0.5204	0.1317	0.5564	-0.287
Mof_N 	N 	0.717	0.0128	0.8079	-0.234
Mof_N 	N 	0.6903	0.2667	0.6964	-0.228
Mof_N 	N 	0.6964	0.5484	0.7959	-0.232
Mof_N 	N 	0.7255	0.7941	0.6924	-0.218
Mof_C 	C 	0.5572	0.3541	0.7454	-0.003
Mof_C 	C 	0.5719	0.1632	0.7872	0.002
Mof_C 	C 	0.572	0.1534	0.7247	-0.018
Mof_C 	C 	0.5623	0.4631	0.7395	-0.025
Mof_C 	C 	0.5831	0.6639	0.7594	0
Mof_C 	C 	0.5835	0.653	0.6975	-0.033
Mof_C 	C 	0.6207	0.1129	0.8988	0.008
Mof_C 	C 	0.6703	0.1561	0.8744	-0.29
Mof_C 	C 	0.6969	0.0759	0.8369	0.151
Mof_C 	C 	0.6224	0.0611	0.6229	-0.031
Mof_C 	C 	0.676	0.0814	0.6416	-0.255
Mof_C 	C 	0.6835	0.1859	0.6734	0.152
Mof_C 	C 	0.6267	0.7506	0.8668	-0.051
Mof_C 	C 	0.681	0.7261	0.8577	-0.252
Mof_C 	C 	0.6898	0.6251	0.8224	0.145
Mof_C 	C 	0.6356	0.7012	0.5897	-0.12
Mof_C 	C 	0.6831	0.6567	0.6187	-0.208
Mof_C 	C 	0.7073	0.7351	0.6595	0.132
Mof_H 	H 	0.6272	0.0587	0.9293	0.005
Mof_H 	H 	0.6028	0.171	0.9174	0.009
Mof_H 	H 	0.6905	0.1759	0.9089	0.105
Mof_H 	H 	0.664	0.2184	0.8495	0.11
Mof_H 	H 	0.6101	0.1247	0.6032	0.062
Mof_H 	H 	0.6218	0.0024	0.5942	0.03
Mof_H 	H 	0.696	0.0803	0.6051	0.094
Mof_H 	H 	0.6862	0.0248	0.6688	0.092
Mof_H 	H 	0.6114	0.6877	0.8839	0.042
Mof_H 	H 	0.6241	0.8089	0.8956	0.038
Mof_H 	H 	0.6963	0.7194	0.8974	0.098
Mof_H 	H 	0.6958	0.7848	0.8357	0.097
Mof_H 	H 	0.6445	0.7556	0.5604	0.079
Mof_H 	H 	0.6191	0.6435	0.5689	0.107
Mof_H 	H 	0.7056	0.6377	0.5862	0.082
Mof_H 	H 	0.6751	0.5937	0.6422	0.086
Mof_Ag	Ag	0.27426	0.59494	0.74578	0.643
Mof_S 	S 	0.05127	0.2339	0.81858	0.021
Mof_S 	S 	0.05258	0.2115	0.68219	-0.074
Mof_S 	S 	0.06247	0.9486	0.69672	0.012
Mof_S 	S 	0.06417	0.9719	0.83315	0.141
Mof_S 	S 	0.08253	0.4461	0.66245	-0.136
Mof_S 	S 	0.08168	0.4721	0.81248	-0.129
Mof_S 	S 	0.09267	0.712	0.70267	-0.046
Mof_S 	S 	0.09283	0.74	0.85476	0.035
Mof_F 	F 	0.9945	0.1376	0.95	-0.434
Mof_O 	O 	0.0204	0.3683	0.9436	-0.304
Mof_N 	N 	0.217	0.4872	0.6921	-0.22
Mof_N 	N 	0.1903	0.2333	0.8036	-0.227
Mof_N 	N 	0.1964	0.9516	0.7041	-0.218
Mof_N 	N 	0.2255	0.7059	0.8076	-0.219
Mof_C 	C 	0.0572	0.1459	0.7546	0.011
Mof_C 	C 	0.0719	0.3368	0.7128	0.004
Mof_C 	C 	0.072	0.3466	0.7753	-0.018
Mof_C 	C 	0.0623	0.0369	0.7605	-0.083
Mof_C 	C 	0.0831	0.8361	0.7406	-0
Mof_C 	C 	0.0835	0.847	0.8025	-0.037
Mof_C 	C 	0.1207	0.3871	0.6012	0.007
Mof_C 	C 	0.1703	0.3439	0.6256	-0.284
Mof_C 	C 	0.1969	0.4241	0.6631	0.151
Mof_C 	C 	0.1224	0.4389	0.8771	-0.034
Mof_C 	C 	0.176	0.4186	0.8584	-0.26
Mof_C 	C 	0.1835	0.3141	0.8266	0.154
Mof_C 	C 	0.1267	0.7494	0.6332	-0.038
Mof_C 	C 	0.181	0.7739	0.6423	-0.255
Mof_C 	C 	0.1898	0.8749	0.6776	0.147
Mof_C 	C 	0.1356	0.7988	0.9103	-0.112
Mof_C 	C 	0.1831	0.8433	0.8813	-0.22
Mof_C 	C 	0.2073	0.7649	0.8405	0.135
Mof_H 	H 	0.1272	0.4413	0.5707	0.005
Mof_H 	H 	0.1028	0.329	0.5826	0.003
Mof_H 	H 	0.1905	0.3241	0.5911	0.099
Mof_H 	H 	0.164	0.2816	0.6505	0.106
Mof_H 	H 	0.1101	0.3753	0.8968	0.066
Mof_H 	H 	0.1218	0.4976	0.9058	0.042
Mof_H 	H 	0.196	0.4197	0.8949	0.102
Mof_H 	H 	0.1862	0.4752	0.8312	0.102
Mof_H 	H 	0.1114	0.8123	0.6161	0.034
Mof_H 	H 	0.1241	0.6911	0.6044	0.024
Mof_H 	H 	0.1963	0.7806	0.6026	0.095
Mof_H 	H 	0.1958	0.7152	0.6643	0.094
Mof_H 	H 	0.1445	0.7444	0.9396	0.077
Mof_H 	H 	0.1191	0.8565	0.9311	0.11
Mof_H 	H 	0.2056	0.8623	0.9138	0.091
Mof_H 	H 	0.1751	0.9063	0.8578	0.097
Mof_Ag	Ag	0.72574	0.40506	0.74578	0.641
Mof_S 	S 	0.94873	0.7661	0.81858	0.065
Mof_S 	S 	0.94742	0.7885	0.68219	-0.025
Mof_S 	S 	0.93753	0.0514	0.69672	-0.048
Mof_S 	S 	0.93583	0.0281	0.83315	0.071
Mof_S 	S 	0.91747	0.5539	0.66245	-0.117
Mof_S 	S 	0.91832	0.5279	0.81248	-0.114
Mof_S 	S 	0.90733	0.288	0.70267	-0.031
Mof_S 	S 	0.90717	0.26	0.85476	0.05
Mof_F 	F 	0.0055	0.8624	0.95	-0.482
Mof_O 	O 	0.9796	0.6317	0.9436	-0.226
Mof_N 	N 	0.783	0.5128	0.6921	-0.22
Mof_N 	N 	0.8097	0.7667	0.8036	-0.23
Mof_N 	N 	0.8036	0.0484	0.7041	-0.245
Mof_N 	N 	0.7745	0.2941	0.8076	-0.217
Mof_C 	C 	0.9428	0.8541	0.7546	-0.017
Mof_C 	C 	0.9281	0.6632	0.7128	0.001
Mof_C 	C 	0.928	0.6534	0.7753	-0.021
Mof_C 	C 	0.9377	0.9631	0.7605	0.028
Mof_C 	C 	0.9169	0.1639	0.7406	0.007
Mof_C 	C 	0.9165	0.153	0.8025	-0.03
Mof_C 	C 	0.8793	0.6129	0.6012	-0.005
Mof_C 	C 	0.8297	0.6561	0.6256	-0.28
Mof_C 	C 	0.8031	0.5759	0.6631	0.149
Mof_C 	C 	0.8776	0.5611	0.8771	-0.041
Mof_C 	C 	0.824	0.5814	0.8584	-0.258
Mof_C 	C 	0.8165	0.6859	0.8266	0.159
Mof_C 	C 	0.8733	0.2506	0.6332	-0.045
Mof_C 	C 	0.819	0.2261	0.6423	-0.253
Mof_C 	C 	0.8102	0.1251	0.6776	0.142
Mof_C 	C 	0.8644	0.2012	0.9103	-0.129
Mof_C 	C 	0.8169	0.1567	0.8813	-0.197
Mof_C 	C 	0.7927	0.2351	0.8405	0.123
Mof_H 	H 	0.8728	0.5587	0.5707	0.012
Mof_H 	H 	0.8972	0.671	0.5826	0.015
Mof_H 	H 	0.8095	0.6759	0.5911	0.102
Mof_H 	H 	0.836	0.7184	0.6505	0.107
Mof_H 	H 	0.8899	0.6247	0.8968	0.07
Mof_H 	H 	0.8782	0.5024	0.9058	0.046
Mof_H 	H 	0.804	0.5803	0.8949	0.103
Mof_H 	H 	0.8138	0.5248	0.8312	0.101
Mof_H 	H 	0.8886	0.1877	0.6161	0.037
Mof_H 	H 	0.8759	0.3089	0.6044	0.028
Mof_H 	H 	0.8037	0.2194	0.6026	0.091
Mof_H 	H 	0.8042	0.2848	0.6643	0.093
Mof_H 	H 	0.8555	0.2556	0.9396	0.083
Mof_H 	H 	0.8809	0.1435	0.9311	0.112
Mof_H 	H 	0.7944	0.1377	0.9138	0.077
Mof_H 	H 	0.8249	0.0937	0.8578	0.078
Mof_Ag	Ag	0.5	-1.77661e-33	0.11794	0.363
Mof_Ag	Ag	0.5	0	0.36794	0.641
Mof_Ag	Ag	-2.40871e-33	0.5	0.38206	0.379
Mof_Ag	Ag	2.17221e-33	0.5	0.13206	0.648
Mof_Ag	Ag	0.5	0	0.88206	0.381
Mof_Ag	Ag	0.5	-1.42129e-32	0.63206	0.641
Mof_Ag	Ag	5.40432e-33	0.5	0.61794	0.379
Mof_Ag	Ag	2.60001e-33	0.5	0.86794	0.653
Mof_S 	S 	0.49667	0.1687	0.5	0.37
Mof_F 	F 	0.5605	0.3279	0.5	-0.473
Mof_O 	O 	0.4433	0.1624	0.5	-0.246
Mof_C 	C 	0.5115	0.314	0.5	0.814
Mof_S 	S 	0.50333	0.8313	0.5	0.371
Mof_F 	F 	0.4395	0.6721	0.5	-0.472
Mof_O 	O 	0.5567	0.8376	0.5	-0.228
Mof_C 	C 	0.4885	0.686	0.5	0.813
Mof_S 	S 	0.00333	0.6687	-0	0.251
Mof_F 	F 	0.9395	0.8279	-0	-0.478
Mof_O 	O 	0.0567	0.6624	-0	-0.225
Mof_C 	C 	0.9885	0.814	-0	0.87
Mof_S 	S 	0.99667	0.3313	-0	0.45
Mof_F 	F 	0.0605	0.1721	-0	-0.477
Mof_O 	O 	0.9433	0.3376	-0	-0.258
Mof_C 	C 	0.0115	0.186	-0	0.729
_end
