data_functionalizedCrystal
_audit_creation_method	'EQeq! by Chris Wilmer'
_symmetry_space_group_name_H-M	'P1'
_symmetry_Int_Tables_number	1
_symmetry_cell_setting	triclinic
loop_
_symmetry_equiv_pos_as_xyz
  x,y,z
_cell_length_a	5.2133
_cell_length_b	18.414
_cell_length_c	28.517
_cell_angle_alpha	90
_cell_angle_beta	90
_cell_angle_gamma	90
loop_
_atom_site_label
_atom_site_type_symbol
_atom_site_fract_x
_atom_site_fract_y
_atom_site_fract_z
_atom_site_charge
Mof_Cd	Cd	0.10212	0.67025	0.65991	0.446
Mof_Cd	Cd	0.60212	0.32975	0.34009	0.44
Mof_Cd	Cd	0.10212	0.17025	0.84009	0.445
Mof_Cd	Cd	0.60212	0.82975	0.15991	0.44
Mof_H 	H 	0.3069	0.3291	0.8181	0.173
Mof_H 	H 	0.5635	0.3715	0.8269	0.159
Mof_H 	H 	0.1554	0.3097	0.7365	0.077
Mof_H 	H 	0.1453	0.3527	0.6607	0.061
Mof_H 	H 	0.7884	0.4635	0.6829	0.081
Mof_H 	H 	0.807	0.4198	0.7584	0.074
Mof_H 	H 	0.615	0.457	0.6037	0.177
Mof_H 	H 	0.3769	0.407	0.5944	0.158
Mof_H 	H 	0.3445	0.5429	0.7319	0.022
Mof_H 	H 	0.7155	0.6429	0.7566	0.02
Mof_H 	H 	0.5754	0.5685	0.8336	0.039
Mof_H 	H 	0.7618	0.5048	0.8468	0.035
Mof_H 	H 	0.4557	0.7365	0.8735	0.202
Mof_H 	H 	0.6461	0.7328	0.831	0.21
Mof_H 	H 	0.4648	0.667	0.8418	0.218
Mof_H 	H 	0.6924	0.8065	0.9028	0.188
Mof_H 	H 	0.6477	0.7902	0.9561	0.2
Mof_H 	H 	0.9134	0.82	0.939	0.196
Mof_H 	H 	0.9783	0.462	0.9003	0.178
Mof_H 	H 	0.2245	0.4905	0.8747	0.196
Mof_H 	H 	0.2283	0.4782	0.9291	0.179
Mof_H 	H 	0.4837	0.5898	0.9738	0.191
Mof_H 	H 	0.2752	0.5923	0.0134	0.194
Mof_H 	H 	0.2967	0.524	0.9808	0.177
Mof_H 	H 	0.1835	0.7753	0.9838	0.037
Mof_H 	H 	0.3046	0.7051	0.0057	0.047
Mof_H 	H 	0.9684	0.8318	0.0555	0.01
Mof_H 	H 	0.5894	0.6665	0.1013	-0.003
Mof_H 	H 	0.8069	0.6709	0.1819	0.179
Mof_H 	H 	0.0635	0.6285	0.1731	0.174
Mof_H 	H 	0.6554	0.6903	0.2635	0.078
Mof_H 	H 	0.6453	0.6473	0.3393	0.059
Mof_H 	H 	0.2884	0.5365	0.3171	0.082
Mof_H 	H 	0.307	0.5802	0.2416	0.076
Mof_H 	H 	0.115	0.543	0.3963	0.188
Mof_H 	H 	0.8769	0.593	0.4056	0.16
Mof_H 	H 	0.8445	0.4571	0.2681	0.02
Mof_H 	H 	0.2155	0.3571	0.2434	0.02
Mof_H 	H 	0.0754	0.4315	0.1664	0.05
Mof_H 	H 	0.2618	0.4952	0.1532	0.044
Mof_H 	H 	0.9557	0.2635	0.1265	0.156
Mof_H 	H 	0.1461	0.2672	0.169	0.175
Mof_H 	H 	0.9648	0.333	0.1582	0.172
Mof_H 	H 	0.1924	0.1935	0.0972	0.212
Mof_H 	H 	0.1477	0.2098	0.0439	0.223
Mof_H 	H 	0.4134	0.18	0.061	0.218
Mof_H 	H 	0.4783	0.538	0.0997	0.186
Mof_H 	H 	0.7245	0.5095	0.1253	0.195
Mof_H 	H 	0.7283	0.5218	0.0709	0.178
Mof_H 	H 	0.9837	0.4102	0.0262	0.193
Mof_H 	H 	0.7752	0.4077	0.9866	0.196
Mof_H 	H 	0.7967	0.476	0.0192	0.179
Mof_H 	H 	0.6835	0.2247	0.0162	0.028
Mof_H 	H 	0.8046	0.2949	0.9943	0.04
Mof_H 	H 	0.4684	0.1682	0.9445	0.011
Mof_H 	H 	0.0894	0.3335	0.8987	-0
Mof_H 	H 	0.3069	0.8291	0.6819	0.174
Mof_H 	H 	0.5635	0.8715	0.6731	0.16
Mof_H 	H 	0.1554	0.8097	0.7635	0.078
Mof_H 	H 	0.1453	0.8527	0.8393	0.062
Mof_H 	H 	0.7884	0.9635	0.8171	0.082
Mof_H 	H 	0.807	0.9198	0.7416	0.075
Mof_H 	H 	0.615	0.957	0.8963	0.177
Mof_H 	H 	0.3769	0.907	0.9056	0.159
Mof_H 	H 	0.3445	0.0429	0.7681	0.022
Mof_H 	H 	0.7155	0.1429	0.7434	0.019
Mof_H 	H 	0.5754	0.0685	0.6664	0.039
Mof_H 	H 	0.7618	0.0048	0.6532	0.036
Mof_H 	H 	0.4557	0.2365	0.6265	0.201
Mof_H 	H 	0.6461	0.2328	0.669	0.209
Mof_H 	H 	0.4648	0.167	0.6582	0.217
Mof_H 	H 	0.6924	0.3065	0.5972	0.189
Mof_H 	H 	0.6477	0.2902	0.5439	0.201
Mof_H 	H 	0.9134	0.32	0.561	0.197
Mof_H 	H 	0.9783	0.962	0.5997	0.176
Mof_H 	H 	0.2245	0.9905	0.6253	0.195
Mof_H 	H 	0.2283	0.9782	0.5709	0.177
Mof_H 	H 	0.4837	0.0898	0.5262	0.192
Mof_H 	H 	0.2752	0.0923	0.4866	0.195
Mof_H 	H 	0.2967	0.024	0.5192	0.178
Mof_H 	H 	0.1835	0.2753	0.5162	0.036
Mof_H 	H 	0.3046	0.2051	0.4943	0.047
Mof_H 	H 	0.9684	0.3318	0.4445	0.01
Mof_H 	H 	0.5894	0.1665	0.3987	-0.003
Mof_H 	H 	0.8069	0.1709	0.3181	0.179
Mof_H 	H 	0.0635	0.1285	0.3269	0.173
Mof_H 	H 	0.6554	0.1903	0.2365	0.078
Mof_H 	H 	0.6453	0.1473	0.1607	0.06
Mof_H 	H 	0.2884	0.0365	0.1829	0.082
Mof_H 	H 	0.307	0.0802	0.2584	0.076
Mof_H 	H 	0.115	0.043	0.1037	0.187
Mof_H 	H 	0.8769	0.093	0.0944	0.16
Mof_H 	H 	0.8445	0.9571	0.2319	0.02
Mof_H 	H 	0.2155	0.8571	0.2566	0.02
Mof_H 	H 	0.0754	0.9315	0.3336	0.05
Mof_H 	H 	0.2618	0.9952	0.3468	0.044
Mof_H 	H 	0.9557	0.7635	0.3735	0.154
Mof_H 	H 	0.1461	0.7672	0.331	0.173
Mof_H 	H 	0.9648	0.833	0.3418	0.17
Mof_H 	H 	0.1924	0.6935	0.4028	0.213
Mof_H 	H 	0.1477	0.7098	0.4561	0.223
Mof_H 	H 	0.4134	0.68	0.439	0.219
Mof_H 	H 	0.4783	0.038	0.4003	0.186
Mof_H 	H 	0.7245	0.0095	0.3747	0.195
Mof_H 	H 	0.7283	0.0218	0.4291	0.178
Mof_H 	H 	0.9837	0.9102	0.4738	0.193
Mof_H 	H 	0.7752	0.9077	0.5134	0.196
Mof_H 	H 	0.7967	0.976	0.4808	0.18
Mof_H 	H 	0.6835	0.7247	0.4838	0.028
Mof_H 	H 	0.8046	0.7949	0.5057	0.04
Mof_H 	H 	0.4684	0.6682	0.5555	0.011
Mof_H 	H 	0.0894	0.8335	0.6013	-0
Mof_C 	C 	0.6248	0.2637	0.8119	0.413
Mof_C 	C 	0.4819	0.3353	0.8072	-0.44
Mof_C 	C 	0.4789	0.3621	0.7562	0.151
Mof_C 	C 	0.2829	0.3411	0.726	-0.106
Mof_C 	C 	0.2776	0.3669	0.6806	-0.111
Mof_C 	C 	0.4673	0.4141	0.6637	0.159
Mof_C 	C 	0.6597	0.4326	0.6935	-0.115
Mof_C 	C 	0.6705	0.4069	0.7392	-0.101
Mof_C 	C 	0.4451	0.4443	0.6149	-0.452
Mof_C 	C 	0.2729	0.5114	0.6122	0.426
Mof_C 	C 	0.1951	0.5579	0.7469	0.097
Mof_C 	C 	0.8572	0.6125	0.7593	0.078
Mof_C 	C 	0.7537	0.5561	0.839	-0.037
Mof_C 	C 	0.8556	0.6005	0.8801	-0.094
Mof_C 	C 	0.7702	0.6725	0.8873	0.101
Mof_C 	C 	0.565	0.7052	0.8554	-0.606
Mof_C 	C 	0.8643	0.7129	0.9239	0.082
Mof_C 	C 	0.771	0.7893	0.9311	-0.577
Mof_C 	C 	0.0427	0.6821	0.9542	-0.066
Mof_C 	C 	0.1243	0.6101	0.9481	0.082
Mof_C 	C 	0.0375	0.57	0.9105	0.104
Mof_C 	C 	0.125	0.4933	0.903	-0.549
Mof_C 	C 	0.312	0.5759	0.9821	-0.559
Mof_C 	C 	0.1458	0.7266	0.9947	-0.044
Mof_C 	C 	0.9035	0.7852	0.0599	0.088
Mof_C 	C 	0.7011	0.6955	0.0841	0.081
Mof_C 	C 	0.1248	0.7363	0.1881	0.427
Mof_C 	C 	0.9819	0.6647	0.1928	-0.468
Mof_C 	C 	0.9789	0.6379	0.2438	0.15
Mof_C 	C 	0.7829	0.6589	0.274	-0.11
Mof_C 	C 	0.7776	0.6331	0.3194	-0.108
Mof_C 	C 	0.9673	0.5859	0.3363	0.151
Mof_C 	C 	0.1597	0.5674	0.3065	-0.104
Mof_C 	C 	0.1705	0.5931	0.2608	-0.097
Mof_C 	C 	0.9451	0.5557	0.3851	-0.466
Mof_C 	C 	0.7729	0.4886	0.3878	0.429
Mof_C 	C 	0.6951	0.4421	0.2531	0.095
Mof_C 	C 	0.3572	0.3875	0.2407	0.088
Mof_C 	C 	0.2537	0.4439	0.161	-0.057
Mof_C 	C 	0.3556	0.3995	0.1199	-0.055
Mof_C 	C 	0.2702	0.3275	0.1127	0.047
Mof_C 	C 	0.065	0.2948	0.1446	-0.477
Mof_C 	C 	0.3643	0.2871	0.0761	0.136
Mof_C 	C 	0.271	0.2107	0.0689	-0.641
Mof_C 	C 	0.5427	0.3179	0.0458	-0.1
Mof_C 	C 	0.6243	0.3899	0.0519	0.102
Mof_C 	C 	0.5375	0.43	0.0895	0.078
Mof_C 	C 	0.625	0.5067	0.097	-0.554
Mof_C 	C 	0.812	0.4241	0.0179	-0.574
Mof_C 	C 	0.6458	0.2734	0.0053	-0.032
Mof_C 	C 	0.4035	0.2148	0.9401	0.09
Mof_C 	C 	0.2011	0.3045	0.9159	0.083
Mof_C 	C 	0.6248	0.7637	0.6881	0.414
Mof_C 	C 	0.4819	0.8353	0.6928	-0.441
Mof_C 	C 	0.4789	0.8621	0.7438	0.152
Mof_C 	C 	0.2829	0.8411	0.774	-0.106
Mof_C 	C 	0.2776	0.8669	0.8194	-0.111
Mof_C 	C 	0.4673	0.9141	0.8363	0.159
Mof_C 	C 	0.6597	0.9326	0.8065	-0.115
Mof_C 	C 	0.6705	0.9069	0.7608	-0.101
Mof_C 	C 	0.4451	0.9443	0.8851	-0.451
Mof_C 	C 	0.2729	0.0114	0.8878	0.425
Mof_C 	C 	0.1951	0.0579	0.7531	0.096
Mof_C 	C 	0.8572	0.1125	0.7407	0.079
Mof_C 	C 	0.7537	0.0561	0.661	-0.038
Mof_C 	C 	0.8556	0.1005	0.6199	-0.091
Mof_C 	C 	0.7702	0.1725	0.6127	0.098
Mof_C 	C 	0.565	0.2052	0.6446	-0.603
Mof_C 	C 	0.8643	0.2129	0.5761	0.085
Mof_C 	C 	0.771	0.2893	0.5689	-0.58
Mof_C 	C 	0.0427	0.1821	0.5458	-0.069
Mof_C 	C 	0.1243	0.1101	0.5519	0.085
Mof_C 	C 	0.0375	0.07	0.5895	0.099
Mof_C 	C 	0.125	0.9933	0.597	-0.542
Mof_C 	C 	0.312	0.0759	0.5179	-0.562
Mof_C 	C 	0.1458	0.2266	0.5053	-0.043
Mof_C 	C 	0.9035	0.2852	0.4401	0.088
Mof_C 	C 	0.7011	0.1955	0.4159	0.082
Mof_C 	C 	0.1248	0.2363	0.3119	0.426
Mof_C 	C 	0.9819	0.1647	0.3072	-0.466
Mof_C 	C 	0.9789	0.1379	0.2562	0.15
Mof_C 	C 	0.7829	0.1589	0.226	-0.11
Mof_C 	C 	0.7776	0.1331	0.1806	-0.108
Mof_C 	C 	0.9673	0.0859	0.1637	0.151
Mof_C 	C 	0.1597	0.0674	0.1935	-0.105
Mof_C 	C 	0.1705	0.0931	0.2392	-0.097
Mof_C 	C 	0.9451	0.0557	0.1149	-0.465
Mof_C 	C 	0.7729	0.9886	0.1122	0.429
Mof_C 	C 	0.6951	0.9421	0.2469	0.095
Mof_C 	C 	0.3572	0.8875	0.2593	0.088
Mof_C 	C 	0.2537	0.9439	0.339	-0.057
Mof_C 	C 	0.3556	0.8995	0.3801	-0.054
Mof_C 	C 	0.2702	0.8275	0.3873	0.045
Mof_C 	C 	0.065	0.7948	0.3554	-0.471
Mof_C 	C 	0.3643	0.7871	0.4239	0.138
Mof_C 	C 	0.271	0.7107	0.4311	-0.643
Mof_C 	C 	0.5427	0.8179	0.4542	-0.101
Mof_C 	C 	0.6243	0.8899	0.4481	0.103
Mof_C 	C 	0.5375	0.93	0.4105	0.078
Mof_C 	C 	0.625	0.0067	0.403	-0.554
Mof_C 	C 	0.812	0.9241	0.4821	-0.575
Mof_C 	C 	0.6458	0.7734	0.4947	-0.031
Mof_C 	C 	0.4035	0.7148	0.5599	0.09
Mof_C 	C 	0.2011	0.8045	0.5841	0.083
Mof_N 	N 	0.7403	0.7671	0.09378	-0.151
Mof_N 	N 	0.9607	0.7302	0.0338	-0.099
Mof_N 	N 	0.8327	0.6711	0.0489	-0.113
Mof_N 	N 	0.9029	0.5695	0.7959	-0.096
Mof_N 	N 	0.1282	0.5327	0.78794	-0.103
Mof_N 	N 	0.0366	0.6066	0.72749	-0.143
Mof_N 	N 	0.2403	0.2329	0.90622	-0.15
Mof_N 	N 	0.4607	0.2698	0.9662	-0.098
Mof_N 	N 	0.3327	0.3289	0.9511	-0.11
Mof_N 	N 	0.4029	0.4305	0.2041	-0.091
Mof_N 	N 	0.6282	0.4673	0.21206	-0.108
Mof_N 	N 	0.5366	0.3934	0.27251	-0.148
Mof_N 	N 	0.7403	0.2671	0.40622	-0.151
Mof_N 	N 	0.9607	0.2302	0.4662	-0.099
Mof_N 	N 	0.8327	0.1711	0.4511	-0.113
Mof_N 	N 	0.9029	0.0695	0.7041	-0.096
Mof_N 	N 	0.1282	0.0327	0.71206	-0.104
Mof_N 	N 	0.0366	0.1066	0.77251	-0.143
Mof_N 	N 	0.2403	0.7329	0.59378	-0.15
Mof_N 	N 	0.4607	0.7698	0.5338	-0.098
Mof_N 	N 	0.3327	0.8289	0.5489	-0.11
Mof_N 	N 	0.4029	0.9305	0.2959	-0.091
Mof_N 	N 	0.6282	0.9673	0.28794	-0.108
Mof_N 	N 	0.5366	0.8934	0.22749	-0.148
Mof_O 	O 	0.0838	0.5082	0.5862	-0.299
Mof_O 	O 	0.3284	0.5643	0.63747	-0.306
Mof_O 	O 	0.8609	0.2676	0.819	-0.337
Mof_O 	O 	0.5005	0.205	0.8082	-0.31
Mof_O 	O 	0.5838	0.4918	0.4138	-0.303
Mof_O 	O 	0.8284	0.4357	0.36253	-0.309
Mof_O 	O 	0.3609	0.7324	0.181	-0.335
Mof_O 	O 	0.0005	0.795	0.1918	-0.307
Mof_O 	O 	0.0838	0.0082	0.9138	-0.299
Mof_O 	O 	0.3284	0.0643	0.86253	-0.306
Mof_O 	O 	0.8609	0.7676	0.681	-0.337
Mof_O 	O 	0.5005	0.705	0.6918	-0.31
Mof_O 	O 	0.5838	0.9918	0.0862	-0.303
Mof_O 	O 	0.8284	0.9357	0.13747	-0.309
Mof_O 	O 	0.3609	0.2324	0.319	-0.335
Mof_O 	O 	0.0005	0.295	0.3082	-0.307
_end
