data_functionalizedCrystal
_audit_creation_method	'EQeq! by Chris Wilmer'
_symmetry_space_group_name_H-M	'P1'
_symmetry_Int_Tables_number	1
_symmetry_cell_setting	triclinic
loop_
_symmetry_equiv_pos_as_xyz
  x,y,z
_cell_length_a	13.854
_cell_length_b	11.411
_cell_length_c	17.71
_cell_angle_alpha	90
_cell_angle_beta	128.109
_cell_angle_gamma	90
loop_
_atom_site_label
_atom_site_type_symbol
_atom_site_fract_x
_atom_site_fract_y
_atom_site_fract_z
_atom_site_charge
Mof_Ni	Ni	0.87858	0.27598	0.69859	1.119
Mof_O 	O 	0.9253	0.1385	0.118	-0.328
Mof_O 	O 	0.0881	0.0848	0.1286	-0.4
Mof_O 	O 	0.9169	0.306	0.3251	-0.307
Mof_O 	O 	0.0756	0.3848	0.4637	-0.384
Mof_O 	O 	0.8529	0.1187	0.6275	-0.339
Mof_O 	O 	0.7081	0.0019	0.511	-0.236
Mof_O 	O 	0.821	0.4316	0.7256	-0.317
Mof_O 	O 	0.6527	0.5307	0.6783	-0.203
Mof_N 	N 	0.0608	0.225	0.289	-0.227
Mof_N 	N 	0.6985	0.266	0.606	-0.208
Mof_C 	C 	0.0397	0.1288	0.1617	0.235
Mof_C 	C 	0.0287	0.3273	0.3886	0.238
Mof_C 	C 	0.7425	0.0889	0.5627	0.284
Mof_C 	C 	0.7054	0.4449	0.6735	0.27
Mof_C 	C 	0.1217	0.1797	0.2605	0.005
Mof_C 	C 	0.2502	0.185	0.3209	-0.059
Mof_H 	H 	0.2948	0.1537	0.3011	0.067
Mof_C 	C 	0.3117	0.2379	0.4117	0.042
Mof_C 	C 	0.2421	0.2922	0.4351	-0.057
Mof_H 	H 	0.2812	0.3348	0.4933	0.072
Mof_C 	C 	0.1151	0.2825	0.3715	0.006
Mof_C 	C 	0.6473	0.1723	0.5472	-0.006
Mof_C 	C 	0.5221	0.1624	0.4826	-0.057
Mof_H 	H 	0.4864	0.0963	0.4412	0.059
Mof_C 	C 	0.447	0.2487	0.4773	0.034
Mof_C 	C 	0.5033	0.3466	0.5385	-0.055
Mof_H 	H 	0.4549	0.4083	0.5355	0.07
Mof_C 	C 	0.6307	0.3515	0.6034	0.001
Mof_Ni	Ni	0.12142	0.77598	0.80141	1.101
Mof_O 	O 	0.0747	0.6385	0.382	-0.443
Mof_O 	O 	0.9119	0.5848	0.3714	-0.38
Mof_O 	O 	0.0831	0.806	0.1749	-0.433
Mof_O 	O 	0.9244	0.8848	0.0363	-0.377
Mof_O 	O 	0.1471	0.6187	0.8725	-0.357
Mof_O 	O 	0.2919	0.5019	0.989	-0.207
Mof_O 	O 	0.179	0.9316	0.7744	-0.346
Mof_O 	O 	0.3473	0.0307	0.8217	-0.26
Mof_N 	N 	0.9392	0.725	0.211	-0.167
Mof_N 	N 	0.3015	0.766	0.894	-0.206
Mof_C 	C 	0.9603	0.6288	0.3383	0.413
Mof_C 	C 	0.9713	0.8273	0.1114	0.421
Mof_C 	C 	0.2575	0.5889	0.9373	0.279
Mof_C 	C 	0.2946	0.9449	0.8265	0.337
Mof_C 	C 	0.8783	0.6797	0.2395	-0.016
Mof_C 	C 	0.7498	0.685	0.1791	-0.025
Mof_H 	H 	0.7052	0.6537	0.1989	0.067
Mof_C 	C 	0.6883	0.7379	0.0883	0.035
Mof_C 	C 	0.7579	0.7922	0.0649	-0.024
Mof_H 	H 	0.7188	0.8348	0.0067	0.061
Mof_C 	C 	0.8849	0.7825	0.1285	-0.019
Mof_C 	C 	0.3527	0.6723	0.9528	0.045
Mof_C 	C 	0.4779	0.6624	0.0174	-0.105
Mof_H 	H 	0.5136	0.5963	0.0588	0.076
Mof_C 	C 	0.553	0.7487	0.0227	0.019
Mof_C 	C 	0.4967	0.8466	0.9615	-0.005
Mof_H 	H 	0.5451	0.9083	0.9645	0.08
Mof_C 	C 	0.3693	0.8515	0.8966	-0.013
Mof_Ni	Ni	0.12142	0.72402	0.30141	1.1
Mof_O 	O 	0.0747	0.8615	0.882	-0.421
Mof_O 	O 	0.9119	0.9152	0.8714	-0.348
Mof_O 	O 	0.0831	0.694	0.6749	-0.434
Mof_O 	O 	0.9244	0.6152	0.5363	-0.383
Mof_O 	O 	0.1471	0.8813	0.3725	-0.352
Mof_O 	O 	0.2919	0.9981	0.489	-0.2
Mof_O 	O 	0.179	0.5684	0.2744	-0.352
Mof_O 	O 	0.3473	0.4693	0.3217	-0.219
Mof_N 	N 	0.9392	0.775	0.711	-0.168
Mof_N 	N 	0.3015	0.734	0.394	-0.207
Mof_C 	C 	0.9603	0.8712	0.8383	0.402
Mof_C 	C 	0.9713	0.6727	0.6114	0.42
Mof_C 	C 	0.2575	0.9111	0.4373	0.289
Mof_C 	C 	0.2946	0.5551	0.3265	0.277
Mof_C 	C 	0.8783	0.8203	0.7395	-0.006
Mof_C 	C 	0.7498	0.815	0.6791	-0.024
Mof_H 	H 	0.7052	0.8463	0.6989	0.075
Mof_C 	C 	0.6883	0.7621	0.5883	0.036
Mof_C 	C 	0.7579	0.7078	0.5649	-0.02
Mof_H 	H 	0.7188	0.6652	0.5067	0.065
Mof_C 	C 	0.8849	0.7175	0.6285	-0.019
Mof_C 	C 	0.3527	0.8277	0.4528	0.009
Mof_C 	C 	0.4779	0.8376	0.5174	-0.061
Mof_H 	H 	0.5136	0.9037	0.5588	0.083
Mof_C 	C 	0.553	0.7513	0.5227	0.051
Mof_C 	C 	0.4967	0.6534	0.4615	-0.058
Mof_H 	H 	0.5451	0.5917	0.4645	0.071
Mof_C 	C 	0.3693	0.6485	0.3966	0.001
Mof_Ni	Ni	0.87858	0.22402	0.19859	1.119
Mof_O 	O 	0.9253	0.3615	0.618	-0.316
Mof_O 	O 	0.0881	0.4152	0.6286	-0.378
Mof_O 	O 	0.9169	0.194	0.8251	-0.309
Mof_O 	O 	0.0756	0.1152	0.9637	-0.374
Mof_O 	O 	0.8529	0.3813	0.1275	-0.333
Mof_O 	O 	0.7081	0.4981	0.011	-0.229
Mof_O 	O 	0.821	0.0684	0.2256	-0.32
Mof_O 	O 	0.6527	0.9693	0.1783	-0.157
Mof_N 	N 	0.0608	0.275	0.789	-0.225
Mof_N 	N 	0.6985	0.234	0.106	-0.209
Mof_C 	C 	0.0397	0.3712	0.6617	0.238
Mof_C 	C 	0.0287	0.1727	0.8886	0.242
Mof_C 	C 	0.7425	0.4111	0.0627	0.293
Mof_C 	C 	0.7054	0.0551	0.1735	0.204
Mof_C 	C 	0.1217	0.3203	0.7605	0.012
Mof_C 	C 	0.2502	0.315	0.8209	-0.054
Mof_H 	H 	0.2948	0.3463	0.8011	0.075
Mof_C 	C 	0.3117	0.2621	0.9117	0.04
Mof_C 	C 	0.2421	0.2078	0.9351	-0.051
Mof_H 	H 	0.2812	0.1652	0.9933	0.078
Mof_C 	C 	0.1151	0.2175	0.8715	0.007
Mof_C 	C 	0.6473	0.3277	0.0472	-0.043
Mof_C 	C 	0.5221	0.3376	0.9826	-0.016
Mof_H 	H 	0.4864	0.4037	0.9412	0.066
Mof_C 	C 	0.447	0.2513	0.9773	0.072
Mof_C 	C 	0.5033	0.1534	0.0385	-0.117
Mof_H 	H 	0.4549	0.0917	0.0355	0.061
Mof_C 	C 	0.6307	0.1485	0.1034	0.017
Mof_Ni	Ni	-0	0	-0	1.047
Mof_Ni	Ni	-5.16069e-17	0.5	0.5	1.083
_end
