data_functionalizedCrystal
_audit_creation_method	'EQeq! by Chris Wilmer'
_symmetry_space_group_name_H-M	'P1'
_symmetry_Int_Tables_number	1
_symmetry_cell_setting	triclinic
loop_
_symmetry_equiv_pos_as_xyz
  x,y,z
_cell_length_a	10.6761
_cell_length_b	16.1012
_cell_length_c	18.0131
_cell_angle_alpha	103.521
_cell_angle_beta	106.261
_cell_angle_gamma	108.668
loop_
_atom_site_label
_atom_site_type_symbol
_atom_site_fract_x
_atom_site_fract_y
_atom_site_fract_z
_atom_site_charge
Mof_Mn	Mn	0.4896	0.16574	0.16687	0.659
Mof_Mn	Mn	0.5	0.5	0.5	0.646
Mof_Mn	Mn	0.5104	0.83426	0.83313	0.659
Mof_H 	H 	0.6719	0.9782	0.3369	0.108
Mof_H 	H 	0.6689	0.4541	0.0873	0.103
Mof_H 	H 	0.7438	0.7987	0.9528	0.007
Mof_H 	H 	0.3403	0.6898	0.3302	0.114
Mof_H 	H 	0.3218	0.5732	0.3885	-0.009
Mof_H 	H 	0.3311	0.5459	0.9127	0.103
Mof_H 	H 	0.2303	0.1943	0.551	0.108
Mof_H 	H 	0.762	0.6934	0.0208	0.101
Mof_H 	H 	0.6897	0.0926	0.2746	-0.002
Mof_H 	H 	0.3151	0.6491	0.8405	-0.004
Mof_H 	H 	0.6597	0.3102	0.6698	0.114
Mof_H 	H 	0.2472	0.3116	0.4914	-0
Mof_H 	H 	0.3103	0.9074	0.7254	-0.002
Mof_H 	H 	0.238	0.3066	0.9792	0.101
Mof_H 	H 	0.6782	0.4268	0.6115	-0.009
Mof_H 	H 	0.6849	0.3509	0.1595	-0.004
Mof_H 	H 	0.7697	0.8057	0.449	0.108
Mof_H 	H 	0.7528	0.6884	0.5086	-0
Mof_H 	H 	0.7586	0.1315	0.7739	0.101
Mof_H 	H 	0.2568	0.9829	0.1659	-0.001
Mof_H 	H 	0.2414	0.8685	0.2261	0.101
Mof_H 	H 	0.7432	0.0171	0.8341	-0.001
Mof_H 	H 	0.2562	0.2013	0.0472	0.007
Mof_H 	H 	0.3281	0.0218	0.6631	0.108
Mof_W 	W 	0.03855	0.21714	0.23215	0.536
Mof_W 	W 	0.96145	0.78286	0.76785	0.536
Mof_C 	C 	0.4564	0.9133	0.2872	0.167
Mof_C 	C 	0.0773	0.127	0.302	-0.032
Mof_C 	C 	0.6709	0.6849	0.9848	-0.164
Mof_C 	C 	0.6601	0.747	0.9442	0.085
Mof_C 	C 	0.5524	0.7556	0.3853	0.184
Mof_C 	C 	0.9672	0.7585	0.8788	-0.045
Mof_C 	C 	0.6793	0.7581	0.4375	-0.184
Mof_C 	C 	0.3399	0.253	0.0558	0.085
Mof_C 	C 	0.5943	0.341	0.122	0.086
Mof_C 	C 	0.2357	0.3255	0.3322	-0.024
Mof_C 	C 	0.5436	0.0867	0.7128	0.167
Mof_C 	C 	0.6675	0.0856	0.7638	-0.173
Mof_C 	C 	0.0246	0.7524	0.6629	-0.04
Mof_C 	C 	0.6585	0.0181	0.7997	0.088
Mof_C 	C 	0.3325	0.9144	0.2362	-0.173
Mof_C 	C 	0.3207	0.2419	0.5625	-0.184
Mof_C 	C 	0.9227	0.873	0.698	-0.032
Mof_C 	C 	0.0205	0.3485	0.2484	-0.042
Mof_C 	C 	0.585	0.4033	0.0798	-0.164
Mof_C 	C 	0.5875	0.9789	0.3017	-0.176
Mof_C 	C 	0.9357	0.0744	0.143	-0.03
Mof_C 	C 	0.4238	0.6895	0.3667	-0.195
Mof_C 	C 	0.2051	0.1879	0.2051	-0.033
Mof_C 	C 	0.4131	0.6204	0.401	0.093
Mof_C 	C 	0.4125	0.0211	0.6983	-0.176
Mof_C 	C 	0.5983	0.0474	0.2649	0.092
Mof_C 	C 	0.6688	0.6884	0.4723	0.098
Mof_C 	C 	0.9795	0.6515	0.7516	-0.042
Mof_C 	C 	0.5869	0.3796	0.599	0.093
Mof_C 	C 	0.5485	0.6103	0.9728	0.15
Mof_C 	C 	0.415	0.5967	0.9202	-0.164
Mof_C 	C 	0.5762	0.3105	0.6333	-0.195
Mof_C 	C 	0.3312	0.3116	0.5277	0.098
Mof_C 	C 	0.1861	0.8199	0.8184	-0.031
Mof_C 	C 	0.4515	0.3897	0.0272	0.15
Mof_C 	C 	0.0328	0.2415	0.1212	-0.045
Mof_C 	C 	0.4057	0.659	0.878	0.086
Mof_C 	C 	0.3291	0.3151	0.0152	-0.164
Mof_C 	C 	0.0643	0.9256	0.857	-0.03
Mof_C 	C 	0.7949	0.8121	0.7949	-0.033
Mof_C 	C 	0.8139	0.1801	0.1816	-0.031
Mof_C 	C 	0.3415	0.9819	0.2003	0.088
Mof_C 	C 	0.4017	0.9526	0.7351	0.092
Mof_C 	C 	0.7643	0.6745	0.6678	-0.024
Mof_C 	C 	0.4476	0.2444	0.6147	0.184
Mof_C 	C 	0.9754	0.2476	0.3371	-0.04
Mof_N 	N 	0.692	0.1621	0.1584	-0.166
Mof_N 	N 	0.0357	0.2541	0.0598	-0.088
Mof_N 	N 	0.3013	0.1771	0.1896	-0.163
Mof_N 	N 	0.9643	0.7459	0.9402	-0.088
Mof_N 	N 	0.5545	0.1606	0.6797	-0.1
Mof_N 	N 	0.524	0.9513	0.7853	-0.196
Mof_N 	N 	0.8789	0.0008	0.0912	-0.096
Mof_N 	N 	0.4455	0.8394	0.3203	-0.1
Mof_N 	N 	0.3362	0.3825	0.388	-0.171
Mof_N 	N 	0.5614	0.5403	0.0149	-0.094
Mof_N 	N 	0.9474	0.2659	0.3955	-0.096
Mof_N 	N 	0.4744	0.2661	0.1097	-0.202
Mof_N 	N 	0.9039	0.92	0.6608	-0.089
Mof_N 	N 	0.6638	0.6175	0.612	-0.171
Mof_N 	N 	0.5697	0.8298	0.3548	-0.104
Mof_N 	N 	0.1211	0.9992	0.9088	-0.096
Mof_N 	N 	0.4386	0.4597	0.9851	-0.094
Mof_N 	N 	0.0214	0.4222	0.2556	-0.092
Mof_N 	N 	0.4303	0.1702	0.6452	-0.104
Mof_N 	N 	0.476	0.0487	0.2147	-0.196
Mof_N 	N 	0.0961	0.08	0.3392	-0.089
Mof_N 	N 	0.0526	0.7341	0.6045	-0.096
Mof_N 	N 	0.308	0.8379	0.8416	-0.166
Mof_N 	N 	0.5256	0.7339	0.8903	-0.202
Mof_N 	N 	0.5368	0.62	0.454	-0.197
Mof_N 	N 	0.9786	0.5778	0.7444	-0.092
Mof_N 	N 	0.6987	0.8229	0.8104	-0.163
Mof_N 	N 	0.4632	0.38	0.546	-0.197
_end
