data_functionalizedCrystal
_audit_creation_method	'EQeq! by Chris Wilmer'
_symmetry_space_group_name_H-M	'P1'
_symmetry_Int_Tables_number	1
_symmetry_cell_setting	triclinic
loop_
_symmetry_equiv_pos_as_xyz
  x,y,z
_cell_length_a	19.329
_cell_length_b	20.088
_cell_length_c	12.12
_cell_angle_alpha	90
_cell_angle_beta	90
_cell_angle_gamma	90
loop_
_atom_site_label
_atom_site_type_symbol
_atom_site_fract_x
_atom_site_fract_y
_atom_site_fract_z
_atom_site_charge
Mof_C 	C 	0.7879	0.1053	0.3449	0.513
Mof_C 	C 	0.711	0.0056	0.3864	0.525
Mof_C 	C 	0.7949	0.9591	0.548	-0.221
Mof_H 	H 	0.8247	0.943	0.602	0.232
Mof_C 	C 	0.7727	0.0426	0.4084	-0.375
Mof_C 	C 	0.8121	0.0174	0.4941	0.515
Mof_C 	C 	0.6966	0.9498	0.4435	-0.253
Mof_H 	H 	0.6564	0.9267	0.4258	0.194
Mof_C 	C 	0.974	0.1933	0.3761	-0.26
Mof_H 	H 	0.9498	0.1533	0.3711	0.18
Mof_C 	C 	0.0449	0.1924	0.3823	0.556
Mof_C 	C 	0.3596	0.202	0.7727	0.449
Mof_C 	C 	0.8604	0.2971	0.6159	-0.228
Mof_H 	H 	0.8852	0.3299	0.5789	0.193
Mof_C 	C 	0.2917	0.2959	0.8844	0.036
Mof_H 	H 	0.2691	0.3299	0.9219	0.042
Mof_C 	C 	0.7879	0.2957	0.7259	0.028
Mof_Co	Co	0.70744	0.83564	0.61457	1.163
Mof_F 	F 	0.8726	0.045	0.524	-0.433
Mof_F 	F 	0.4027	0.1567	0.7253	-0.426
Mof_F 	F 	0.0751	0.1343	0.39	-0.454
Mof_N 	N 	0.7376	0.9253	0.5259	-0.082
Mof_O 	O 	0.7626	0.1099	0.2523	-0.435
Mof_O 	O 	0.8273	0.1472	0.3918	-0.452
Mof_O 	O 	0.8198	0.1946	0.9583	-0.451
Mof_O 	O 	0.1901	0.1948	0.3971	-0.427
Mof_F 	F 	0.165	0.0261	0.186	-0.45
Mof_C 	C 	0.7121	0.8947	0.8449	0.513
Mof_C 	C 	0.789	0.9944	0.8864	0.518
Mof_C 	C 	0.7051	0.0409	0.048	-0.218
Mof_H 	H 	0.6753	0.057	0.102	0.232
Mof_C 	C 	0.7273	0.9574	0.9084	-0.369
Mof_C 	C 	0.6879	0.9826	0.9941	0.509
Mof_C 	C 	0.8034	0.0502	0.9435	-0.242
Mof_H 	H 	0.8436	0.0733	0.9258	0.191
Mof_C 	C 	0.526	0.8067	0.8761	-0.26
Mof_H 	H 	0.5502	0.8467	0.8711	0.18
Mof_C 	C 	0.4551	0.8076	0.8823	0.556
Mof_C 	C 	0.1404	0.798	0.2727	0.449
Mof_C 	C 	0.6396	0.7029	0.1159	-0.228
Mof_H 	H 	0.6148	0.6701	0.0789	0.194
Mof_C 	C 	0.2083	0.7041	0.3844	0.036
Mof_H 	H 	0.2309	0.6701	0.4219	0.042
Mof_C 	C 	0.7121	0.7043	0.2259	0.028
Mof_Co	Co	0.79256	0.16436	0.11457	1.162
Mof_F 	F 	0.6274	0.955	0.024	-0.429
Mof_F 	F 	0.0973	0.8433	0.2253	-0.426
Mof_F 	F 	0.4249	0.8657	0.89	-0.455
Mof_N 	N 	0.7624	0.0747	0.0259	-0.086
Mof_O 	O 	0.7374	0.8901	0.7523	-0.435
Mof_O 	O 	0.6727	0.8528	0.8918	-0.452
Mof_O 	O 	0.6802	0.8054	0.4583	-0.452
Mof_O 	O 	0.3099	0.8052	0.8971	-0.427
Mof_F 	F 	0.335	0.9739	0.686	-0.451
Mof_C 	C 	0.2121	0.6053	0.6551	0.514
Mof_C 	C 	0.289	0.5056	0.6136	0.527
Mof_C 	C 	0.2051	0.4591	0.452	-0.22
Mof_H 	H 	0.1753	0.443	0.398	0.233
Mof_C 	C 	0.2273	0.5426	0.5916	-0.373
Mof_C 	C 	0.1879	0.5174	0.5059	0.516
Mof_C 	C 	0.3034	0.4498	0.5565	-0.254
Mof_H 	H 	0.3436	0.4267	0.5742	0.194
Mof_C 	C 	0.026	0.6933	0.6239	-0.26
Mof_H 	H 	0.0502	0.6533	0.6289	0.18
Mof_C 	C 	0.9551	0.6924	0.6177	0.556
Mof_C 	C 	0.6404	0.702	0.2273	0.449
Mof_C 	C 	0.1396	0.7971	0.3841	-0.228
Mof_H 	H 	0.1148	0.8299	0.4211	0.193
Mof_C 	C 	0.7083	0.7959	0.1156	0.036
Mof_H 	H 	0.7309	0.8299	0.0781	0.043
Mof_C 	C 	0.2121	0.7957	0.2741	0.029
Mof_Co	Co	0.29256	0.33564	0.38543	1.163
Mof_F 	F 	0.1274	0.545	0.476	-0.433
Mof_F 	F 	0.5973	0.6567	0.2747	-0.426
Mof_F 	F 	0.9249	0.6343	0.61	-0.454
Mof_N 	N 	0.2624	0.4253	0.4741	-0.082
Mof_O 	O 	0.2374	0.6099	0.7477	-0.435
Mof_O 	O 	0.1727	0.6472	0.6082	-0.452
Mof_O 	O 	0.1802	0.6946	0.0417	-0.451
Mof_O 	O 	0.8099	0.6948	0.6029	-0.427
Mof_F 	F 	0.835	0.5261	0.814	-0.451
Mof_C 	C 	0.2879	0.3947	0.1551	0.514
Mof_C 	C 	0.211	0.4944	0.1136	0.526
Mof_C 	C 	0.2949	0.5409	0.952	-0.22
Mof_H 	H 	0.3247	0.557	0.898	0.234
Mof_C 	C 	0.2727	0.4574	0.0916	-0.373
Mof_C 	C 	0.3121	0.4826	0.0059	0.516
Mof_C 	C 	0.1966	0.5502	0.0565	-0.253
Mof_H 	H 	0.1564	0.5733	0.0742	0.194
Mof_C 	C 	0.474	0.3067	0.1239	-0.26
Mof_H 	H 	0.4498	0.3467	0.1289	0.18
Mof_C 	C 	0.5449	0.3076	0.1177	0.556
Mof_C 	C 	0.8596	0.298	0.7273	0.449
Mof_C 	C 	0.3604	0.2029	0.8841	-0.228
Mof_H 	H 	0.3852	0.1701	0.9211	0.194
Mof_C 	C 	0.7917	0.2041	0.6156	0.036
Mof_H 	H 	0.7691	0.1701	0.5781	0.043
Mof_C 	C 	0.2879	0.2043	0.7741	0.028
Mof_Co	Co	0.20744	0.66436	0.88543	1.163
Mof_F 	F 	0.3726	0.455	0.976	-0.433
Mof_F 	F 	0.9027	0.3433	0.7747	-0.426
Mof_F 	F 	0.5751	0.3657	0.11	-0.454
Mof_N 	N 	0.2376	0.5747	0.9741	-0.082
Mof_O 	O 	0.2626	0.3901	0.2477	-0.435
Mof_O 	O 	0.3273	0.3528	0.1082	-0.452
Mof_O 	O 	0.3198	0.3054	0.5417	-0.452
Mof_O 	O 	0.6901	0.3052	0.1029	-0.427
Mof_F 	F 	0.665	0.4739	0.314	-0.45
Mof_C 	C 	0.2121	0.8947	0.6551	0.514
Mof_C 	C 	0.289	0.9944	0.6136	0.526
Mof_C 	C 	0.2051	0.0409	0.452	-0.22
Mof_H 	H 	0.1753	0.057	0.398	0.233
Mof_C 	C 	0.2273	0.9574	0.5916	-0.374
Mof_C 	C 	0.1879	0.9826	0.5059	0.516
Mof_C 	C 	0.3034	0.0502	0.5565	-0.253
Mof_H 	H 	0.3436	0.0733	0.5742	0.194
Mof_C 	C 	0.026	0.8067	0.6239	-0.26
Mof_H 	H 	0.0502	0.8467	0.6289	0.18
Mof_C 	C 	0.9551	0.8076	0.6177	0.556
Mof_C 	C 	0.6404	0.798	0.2273	0.449
Mof_C 	C 	0.1396	0.7029	0.3841	-0.228
Mof_H 	H 	0.1148	0.6701	0.4211	0.193
Mof_C 	C 	0.7083	0.7041	0.1156	0.036
Mof_H 	H 	0.7309	0.6701	0.0781	0.042
Mof_C 	C 	0.2121	0.7043	0.2741	0.028
Mof_Co	Co	0.29256	0.16436	0.38543	1.163
Mof_F 	F 	0.1274	0.955	0.476	-0.433
Mof_F 	F 	0.5973	0.8433	0.2747	-0.426
Mof_F 	F 	0.9249	0.8657	0.61	-0.454
Mof_N 	N 	0.2624	0.0747	0.4741	-0.082
Mof_O 	O 	0.2374	0.8901	0.7477	-0.435
Mof_O 	O 	0.1727	0.8528	0.6082	-0.452
Mof_O 	O 	0.1802	0.8054	0.0417	-0.451
Mof_O 	O 	0.8099	0.8052	0.6029	-0.427
Mof_F 	F 	0.835	0.9739	0.814	-0.45
Mof_C 	C 	0.2879	0.1053	0.1551	0.513
Mof_C 	C 	0.211	0.0056	0.1136	0.518
Mof_C 	C 	0.2949	0.9591	0.952	-0.218
Mof_H 	H 	0.3247	0.943	0.898	0.232
Mof_C 	C 	0.2727	0.0426	0.0916	-0.369
Mof_C 	C 	0.3121	0.0174	0.0059	0.509
Mof_C 	C 	0.1966	0.9498	0.0565	-0.242
Mof_H 	H 	0.1564	0.9267	0.0742	0.191
Mof_C 	C 	0.474	0.1933	0.1239	-0.26
Mof_H 	H 	0.4498	0.1533	0.1289	0.18
Mof_C 	C 	0.5449	0.1924	0.1177	0.556
Mof_C 	C 	0.8596	0.202	0.7273	0.449
Mof_C 	C 	0.3604	0.2971	0.8841	-0.228
Mof_H 	H 	0.3852	0.3299	0.9211	0.194
Mof_C 	C 	0.7917	0.2959	0.6156	0.036
Mof_H 	H 	0.7691	0.3299	0.5781	0.042
Mof_C 	C 	0.2879	0.2957	0.7741	0.028
Mof_Co	Co	0.20744	0.83564	0.88543	1.162
Mof_F 	F 	0.3726	0.045	0.976	-0.429
Mof_F 	F 	0.9027	0.1567	0.7747	-0.426
Mof_F 	F 	0.5751	0.1343	0.11	-0.455
Mof_N 	N 	0.2376	0.9253	0.9741	-0.086
Mof_O 	O 	0.2626	0.1099	0.2477	-0.435
Mof_O 	O 	0.3273	0.1472	0.1082	-0.452
Mof_O 	O 	0.3198	0.1946	0.5417	-0.452
Mof_O 	O 	0.6901	0.1948	0.1029	-0.427
Mof_F 	F 	0.665	0.0261	0.314	-0.451
Mof_C 	C 	0.7879	0.3947	0.3449	0.514
Mof_C 	C 	0.711	0.4944	0.3864	0.527
Mof_C 	C 	0.7949	0.5409	0.548	-0.22
Mof_H 	H 	0.8247	0.557	0.602	0.233
Mof_C 	C 	0.7727	0.4574	0.4084	-0.373
Mof_C 	C 	0.8121	0.4826	0.4941	0.516
Mof_C 	C 	0.6966	0.5502	0.4435	-0.254
Mof_H 	H 	0.6564	0.5733	0.4258	0.194
Mof_C 	C 	0.974	0.3067	0.3761	-0.26
Mof_H 	H 	0.9498	0.3467	0.3711	0.18
Mof_C 	C 	0.0449	0.3076	0.3823	0.556
Mof_C 	C 	0.3596	0.298	0.7727	0.449
Mof_C 	C 	0.8604	0.2029	0.6159	-0.228
Mof_H 	H 	0.8852	0.1701	0.5789	0.193
Mof_C 	C 	0.2917	0.2041	0.8844	0.036
Mof_H 	H 	0.2691	0.1701	0.9219	0.043
Mof_C 	C 	0.7879	0.2043	0.7259	0.029
Mof_Co	Co	0.70744	0.66436	0.61457	1.163
Mof_F 	F 	0.8726	0.455	0.524	-0.433
Mof_F 	F 	0.4027	0.3433	0.7253	-0.426
Mof_F 	F 	0.0751	0.3657	0.39	-0.454
Mof_N 	N 	0.7376	0.5747	0.5259	-0.082
Mof_O 	O 	0.7626	0.3901	0.2523	-0.435
Mof_O 	O 	0.8273	0.3528	0.3918	-0.452
Mof_O 	O 	0.8198	0.3054	0.9583	-0.451
Mof_O 	O 	0.1901	0.3052	0.3971	-0.427
Mof_F 	F 	0.165	0.4739	0.186	-0.451
Mof_C 	C 	0.7121	0.6053	0.8449	0.514
Mof_C 	C 	0.789	0.5056	0.8864	0.526
Mof_C 	C 	0.7051	0.4591	0.048	-0.22
Mof_H 	H 	0.6753	0.443	0.102	0.234
Mof_C 	C 	0.7273	0.5426	0.9084	-0.373
Mof_C 	C 	0.6879	0.5174	0.9941	0.516
Mof_C 	C 	0.8034	0.4498	0.9435	-0.253
Mof_H 	H 	0.8436	0.4267	0.9258	0.194
Mof_C 	C 	0.526	0.6933	0.8761	-0.26
Mof_H 	H 	0.5502	0.6533	0.8711	0.18
Mof_C 	C 	0.4551	0.6924	0.8823	0.556
Mof_C 	C 	0.1404	0.702	0.2727	0.449
Mof_C 	C 	0.6396	0.7971	0.1159	-0.228
Mof_H 	H 	0.6148	0.8299	0.0789	0.194
Mof_C 	C 	0.2083	0.7959	0.3844	0.036
Mof_H 	H 	0.2309	0.8299	0.4219	0.043
Mof_C 	C 	0.7121	0.7957	0.2259	0.028
Mof_Co	Co	0.79256	0.33564	0.11457	1.163
Mof_F 	F 	0.6274	0.545	0.024	-0.433
Mof_F 	F 	0.0973	0.6567	0.2253	-0.426
Mof_F 	F 	0.4249	0.6343	0.89	-0.454
Mof_N 	N 	0.7624	0.4253	0.0259	-0.082
Mof_O 	O 	0.7374	0.6099	0.7523	-0.435
Mof_O 	O 	0.6727	0.6472	0.8918	-0.452
Mof_O 	O 	0.6802	0.6946	0.4583	-0.452
Mof_O 	O 	0.3099	0.6948	0.8971	-0.427
Mof_F 	F 	0.335	0.5261	0.686	-0.45
Mof_C 	C 	0.0822	0.25	0.3893	-0.398
Mof_C 	C 	0.8203	0.25	0.9138	0.547
Mof_C 	C 	0.1637	0.25	0.3945	0.539
Mof_C 	C 	0.8241	0.25	0.7879	-0.362
Mof_Co	Co	0.82688	0.25	0.37047	1.135
Mof_N 	N 	0.8264	0.25	0.5548	-0.133
Mof_N 	N 	0.9396	0.25	0.377	-0.093
Mof_O 	O 	0.8258	0.25	0.1983	-0.603
Mof_C 	C 	0.4178	0.75	0.8893	-0.398
Mof_C 	C 	0.6797	0.75	0.4138	0.547
Mof_C 	C 	0.3363	0.75	0.8945	0.539
Mof_C 	C 	0.6759	0.75	0.2879	-0.363
Mof_Co	Co	0.67312	0.75	0.87047	1.135
Mof_N 	N 	0.6736	0.75	0.0548	-0.133
Mof_N 	N 	0.5604	0.75	0.877	-0.093
Mof_O 	O 	0.6742	0.75	0.6983	-0.603
Mof_C 	C 	0.9178	0.75	0.6107	-0.398
Mof_C 	C 	0.1797	0.75	0.0862	0.547
Mof_C 	C 	0.8363	0.75	0.6055	0.539
Mof_C 	C 	0.1759	0.75	0.2121	-0.362
Mof_Co	Co	0.17312	0.75	0.62953	1.135
Mof_N 	N 	0.1736	0.75	0.4452	-0.133
Mof_N 	N 	0.0604	0.75	0.623	-0.093
Mof_O 	O 	0.1742	0.75	0.8017	-0.603
Mof_C 	C 	0.5822	0.25	0.1107	-0.398
Mof_C 	C 	0.3203	0.25	0.5862	0.547
Mof_C 	C 	0.6637	0.25	0.1055	0.539
Mof_C 	C 	0.3241	0.25	0.7121	-0.363
Mof_Co	Co	0.32688	0.25	0.12953	1.135
Mof_N 	N 	0.3264	0.25	0.9452	-0.133
Mof_N 	N 	0.4396	0.25	0.123	-0.093
Mof_O 	O 	0.3258	0.25	0.3017	-0.603
_end
