data_functionalizedCrystal
_audit_creation_method	'EQeq! by Chris Wilmer'
_symmetry_space_group_name_H-M	'P1'
_symmetry_Int_Tables_number	1
_symmetry_cell_setting	triclinic
loop_
_symmetry_equiv_pos_as_xyz
  x,y,z
_cell_length_a	9.5741
_cell_length_b	14.5044
_cell_length_c	13.7329
_cell_angle_alpha	90
_cell_angle_beta	100.582
_cell_angle_gamma	90
loop_
_atom_site_label
_atom_site_type_symbol
_atom_site_fract_x
_atom_site_fract_y
_atom_site_fract_z
_atom_site_charge
Mof_Zn	Zn	0.46232	0.64207	0.36047	1.246
Mof_O 	O 	0.4587	0.77785	0.374	-0.382
Mof_O 	O 	0.5682	0.1197	0.2827	-0.401
Mof_O 	O 	0.332	0.5604	0.4167	-0.393
Mof_C 	C 	0.1019	0.5436	0.4545	-0.025
Mof_C 	C 	0.2065	0.5922	0.4019	0.324
Mof_C 	C 	0.9573	0.5564	0.42	-0.011
Mof_H 	H 	0.9283	0.5955	0.3664	0.078
Mof_O 	O 	0.1677	0.6571	0.3471	-0.268
Mof_O 	O 	0.6495	0.605	0.4379	-0.386
Mof_O 	O 	0.3431	0.1495	0.2943	-0.249
Mof_C 	C 	0.7022	0.5287	0.417	0.319
Mof_C 	C 	0.4864	0.9041	0.4849	-0.018
Mof_C 	C 	0.4719	0.8028	0.4664	0.299
Mof_C 	C 	0.461	0.1173	0.3251	0.336
Mof_C 	C 	0.4698	0.9649	0.4045	-0.015
Mof_H 	H 	0.4479	0.9417	0.3404	0.085
Mof_O 	O 	0.6362	0.4703	0.3582	-0.245
Mof_O 	O 	0.4721	0.7489	0.5355	-0.246
Mof_C 	C 	0.855	0.5128	0.463	-0.02
Mof_C 	C 	0.4857	0.0604	0.4193	-0.025
Mof_Zn	Zn	0.53768	0.14207	0.13953	1.245
Mof_O 	O 	0.5413	0.27785	0.126	-0.383
Mof_O 	O 	0.4318	0.6197	0.2173	-0.4
Mof_O 	O 	0.668	0.0604	0.0833	-0.393
Mof_C 	C 	0.8981	0.0436	0.0455	-0.025
Mof_C 	C 	0.7935	0.0922	0.0981	0.323
Mof_C 	C 	0.0427	0.0564	0.08	-0.012
Mof_H 	H 	0.0717	0.0955	0.1336	0.079
Mof_O 	O 	0.8323	0.1571	0.1529	-0.269
Mof_O 	O 	0.3505	0.105	0.0621	-0.386
Mof_O 	O 	0.6569	0.6495	0.2057	-0.249
Mof_C 	C 	0.2978	0.0287	0.083	0.316
Mof_C 	C 	0.5136	0.4041	0.0151	-0.018
Mof_C 	C 	0.5281	0.3028	0.0336	0.296
Mof_C 	C 	0.539	0.6173	0.1749	0.336
Mof_C 	C 	0.5302	0.4649	0.0955	-0.016
Mof_H 	H 	0.5521	0.4417	0.1596	0.084
Mof_O 	O 	0.3638	0.9703	0.1418	-0.241
Mof_O 	O 	0.5279	0.2489	0.9645	-0.244
Mof_C 	C 	0.145	0.0128	0.037	-0.021
Mof_C 	C 	0.5143	0.5604	0.0807	-0.024
Mof_Zn	Zn	0.53768	0.35793	0.63953	1.245
Mof_O 	O 	0.5413	0.22215	0.626	-0.383
Mof_O 	O 	0.4318	0.8803	0.7173	-0.401
Mof_O 	O 	0.668	0.4396	0.5833	-0.393
Mof_C 	C 	0.8981	0.4564	0.5455	-0.025
Mof_C 	C 	0.7935	0.4078	0.5981	0.324
Mof_C 	C 	0.0427	0.4436	0.58	-0.011
Mof_H 	H 	0.0717	0.4045	0.6336	0.078
Mof_O 	O 	0.8323	0.3429	0.6529	-0.268
Mof_O 	O 	0.3505	0.395	0.5621	-0.386
Mof_O 	O 	0.6569	0.8505	0.7057	-0.249
Mof_C 	C 	0.2978	0.4713	0.583	0.319
Mof_C 	C 	0.5136	0.0959	0.5151	-0.018
Mof_C 	C 	0.5281	0.1972	0.5336	0.299
Mof_C 	C 	0.539	0.8827	0.6749	0.336
Mof_C 	C 	0.5302	0.0351	0.5955	-0.015
Mof_H 	H 	0.5521	0.0583	0.6596	0.085
Mof_O 	O 	0.3638	0.5297	0.6418	-0.245
Mof_O 	O 	0.5279	0.2511	0.4645	-0.246
Mof_C 	C 	0.145	0.4872	0.537	-0.02
Mof_C 	C 	0.5143	0.9396	0.5807	-0.025
Mof_Zn	Zn	0.46232	0.85793	0.86047	1.245
Mof_O 	O 	0.4587	0.72215	0.874	-0.383
Mof_O 	O 	0.5682	0.3803	0.7827	-0.4
Mof_O 	O 	0.332	0.9396	0.9167	-0.393
Mof_C 	C 	0.1019	0.9564	0.9545	-0.025
Mof_C 	C 	0.2065	0.9078	0.9019	0.323
Mof_C 	C 	0.9573	0.9436	0.92	-0.012
Mof_H 	H 	0.9283	0.9045	0.8664	0.079
Mof_O 	O 	0.1677	0.8429	0.8471	-0.269
Mof_O 	O 	0.6495	0.895	0.9379	-0.386
Mof_O 	O 	0.3431	0.3505	0.7943	-0.249
Mof_C 	C 	0.7022	0.9713	0.917	0.316
Mof_C 	C 	0.4864	0.5959	0.9849	-0.018
Mof_C 	C 	0.4719	0.6972	0.9664	0.296
Mof_C 	C 	0.461	0.3827	0.8251	0.336
Mof_C 	C 	0.4698	0.5351	0.9045	-0.016
Mof_H 	H 	0.4479	0.5583	0.8404	0.084
Mof_O 	O 	0.6362	0.0297	0.8582	-0.241
Mof_O 	O 	0.4721	0.7511	0.0355	-0.244
Mof_C 	C 	0.855	0.9872	0.963	-0.021
Mof_C 	C 	0.4857	0.4396	0.9193	-0.024
_end
