data_functionalizedCrystal
_audit_creation_method	'EQeq! by Chris Wilmer'
_symmetry_space_group_name_H-M	'P1'
_symmetry_Int_Tables_number	1
_symmetry_cell_setting	triclinic
loop_
_symmetry_equiv_pos_as_xyz
  x,y,z
_cell_length_a	8.9042
_cell_length_b	12.8056
_cell_length_c	12.8056
_cell_angle_alpha	65.2022
_cell_angle_beta	76.5981
_cell_angle_gamma	103.402
loop_
_atom_site_label
_atom_site_type_symbol
_atom_site_fract_x
_atom_site_fract_y
_atom_site_fract_z
_atom_site_charge
Mof_Cu	Cu	0.73851	0.58044	0.47156	0.875
Mof_Cu	Cu	0.15807	0.948	0.58044	0.874
Mof_Cu	Cu	0.21007	0.47156	0.948	0.873
Mof_Cu	Cu	0.26149	0.41956	0.52844	0.875
Mof_Cu	Cu	0.78993	0.52844	0.052	0.874
Mof_Cu	Cu	0.84193	0.052	0.41956	0.875
Mof_H 	H 	0.8234	0.2732	0.4458	0.135
Mof_H 	H 	0.384	0.4873	0.1626	0.134
Mof_H 	H 	0.7308	0.5542	0.719	0.135
Mof_H 	H 	0.8967	0.3501	0.4873	0.135
Mof_H 	H 	0.5466	0.1626	0.3501	0.135
Mof_H 	H 	0.616	0.5127	0.8374	0.134
Mof_H 	H 	0.4534	0.8374	0.6499	0.135
Mof_H 	H 	0.1033	0.6499	0.5127	0.135
Mof_H 	H 	0.5502	0.281	0.2732	0.134
Mof_H 	H 	0.1766	0.7268	0.5542	0.135
Mof_H 	H 	0.2692	0.4458	0.281	0.135
Mof_H 	H 	0.4498	0.719	0.7268	0.134
Mof_C 	C 	0.2762	0.4605	0.721	0.001
Mof_C 	C 	0.9972	0.721	0.8185	0.005
Mof_C 	C 	0.3065	0.155	0.5976	0.276
Mof_C 	C 	0.2399	0.724	0.7543	0.188
Mof_C 	C 	0.6935	0.845	0.4024	0.276
Mof_C 	C 	0.0028	0.279	0.1815	0.005
Mof_C 	C 	0.0058	0.2457	0.4783	0.192
Mof_C 	C 	0.5159	0.5217	0.724	0.188
Mof_C 	C 	0.1515	0.2474	0.155	0.275
Mof_C 	C 	0.8485	0.7526	0.845	0.275
Mof_C 	C 	0.1843	0.1815	0.5395	0
Mof_C 	C 	0.9041	0.5976	0.2474	0.271
Mof_C 	C 	0.7238	0.5395	0.279	0.001
Mof_C 	C 	0.8157	0.8185	0.4605	0
Mof_C 	C 	0.4841	0.4783	0.276	0.188
Mof_C 	C 	0.7601	0.276	0.2457	0.188
Mof_C 	C 	0.9942	0.7543	0.5217	0.192
Mof_C 	C 	0.0959	0.4024	0.7526	0.271
Mof_N 	N 	0.64674	0.51671	0.20689	-0.227
Mof_N 	N 	0.59784	0.24018	0.31686	-0.323
Mof_N 	N 	0.35326	0.48329	0.79311	-0.227
Mof_N 	N 	0.13003	0.2764	0.51671	-0.227
Mof_N 	N 	0.01206	0.85888	0.5253	-0.22
Mof_N 	N 	0.98794	0.14112	0.4747	-0.22
Mof_N 	N 	0.85363	0.20689	0.2764	-0.229
Mof_N 	N 	0.99555	0.61487	0.89942	-0.176
Mof_N 	N 	0.46264	0.4747	0.38418	-0.217
Mof_N 	N 	0.38068	0.48571	0.61487	-0.179
Mof_N 	N 	0.00445	0.38513	0.10058	-0.176
Mof_N 	N 	0.53736	0.5253	0.61582	-0.217
Mof_N 	N 	0.14637	0.79311	0.7236	-0.229
Mof_N 	N 	0.10503	0.10058	0.51429	-0.177
Mof_N 	N 	0.35766	0.44296	0.24018	-0.323
Mof_N 	N 	0.15318	0.61582	0.85888	-0.22
Mof_N 	N 	0.86997	0.7236	0.48329	-0.227
Mof_N 	N 	0.0853	0.68314	0.55704	-0.325
Mof_N 	N 	0.84682	0.38418	0.14112	-0.22
Mof_N 	N 	0.89497	0.89942	0.48571	-0.177
Mof_N 	N 	0.40216	0.75982	0.68314	-0.323
Mof_N 	N 	0.9147	0.31686	0.44296	-0.325
Mof_N 	N 	0.64234	0.55704	0.75982	-0.323
Mof_N 	N 	0.61932	0.51429	0.38513	-0.179
Mof_O 	O 	0.06365	0.38393	0.66798	-0.377
Mof_O 	O 	0.99546	0.37494	0.85276	-0.283
Mof_O 	O 	0.84822	0.85276	0.7723	-0.285
Mof_O 	O 	0.93635	0.61607	0.33202	-0.377
Mof_O 	O 	0.32028	0.05191	0.61607	-0.376
Mof_O 	O 	0.15178	0.14724	0.2277	-0.285
Mof_O 	O 	0.62052	0.7723	0.37494	-0.287
Mof_O 	O 	0.37948	0.2277	0.62506	-0.287
Mof_O 	O 	0.73163	0.66798	0.94809	-0.376
Mof_O 	O 	0.00454	0.62506	0.14724	-0.283
Mof_O 	O 	0.67972	0.94809	0.38393	-0.376
Mof_O 	O 	0.26837	0.33202	0.05191	-0.376
_end
