data_functionalizedCrystal
_audit_creation_method	'EQeq! by Chris Wilmer'
_symmetry_space_group_name_H-M	'P1'
_symmetry_Int_Tables_number	1
_symmetry_cell_setting	triclinic
loop_
_symmetry_equiv_pos_as_xyz
  x,y,z
_cell_length_a	20.5158
_cell_length_b	10.0012
_cell_length_c	21.5145
_cell_angle_alpha	90
_cell_angle_beta	99.156
_cell_angle_gamma	90
loop_
_atom_site_label
_atom_site_type_symbol
_atom_site_fract_x
_atom_site_fract_y
_atom_site_fract_z
_atom_site_charge
Mof_Th	Th	0.14813	0.69528	0.41576	0.044
Mof_Th	Th	0.35952	0.70347	0.60121	0.041
Mof_O 	O 	0.2644	0.789	0.9217	-0.159
Mof_O 	O 	0.1652	0.6172	0.5215	-0.164
Mof_O 	O 	0.1095	0.6153	0.8407	-0.174
Mof_O 	O 	0.2466	0.6412	0.6015	-0.166
Mof_O 	O 	0.9468	0.384	0.6655	-0.169
Mof_O 	O 	0.3538	0.4727	0.601	-0.16
Mof_C 	C 	0.2205	0.1487	0.4553	-0.017
Mof_H 	H 	0.1965	0.1031	0.4215	0.089
Mof_O 	O 	0.1726	0.765	0.8072	-0.168
Mof_C 	C 	0.2858	0.1464	0.5587	-0.017
Mof_H 	H 	0.3053	0.0992	0.5941	0.09
Mof_O 	O 	0.189	0.8838	0.4786	-0.153
Mof_O 	O 	0.2855	0.8657	0.5436	-0.156
Mof_O 	O 	0.348	0.8529	0.9921	-0.165
Mof_C 	C 	0.1404	0.6048	0.6242	-0.026
Mof_O 	O 	0.1879	0.4844	0.3967	-0.162
Mof_O 	O 	0.364	0.8894	0.6714	-0.16
Mof_C 	C 	0.2274	0.287	0.4527	-0.023
Mof_C 	C 	0.3188	0.8457	0.937	0.273
Mof_C 	C 	0.2494	0.079	0.5085	-0.019
Mof_O 	O 	0.5333	0.11	0.9274	-0.17
Mof_O 	O 	0.9441	0.4694	0.5711	-0.174
Mof_O 	O 	0.5333	0.1552	0.8279	-0.165
Mof_C 	C 	0.1872	0.6237	0.5793	0.278
Mof_C 	C 	0.0782	0.5468	0.6039	-0.009
Mof_H 	H 	0.0643	0.5281	0.5615	0.086
Mof_O 	O 	0.3474	0.2941	0.661	-0.196
Mof_C 	C 	0.4119	0.9737	0.9025	-0.021
Mof_H 	H 	0.4313	0.9822	0.9444	0.089
Mof_O 	O 	0.1778	0.2948	0.3464	-0.196
Mof_C 	C 	0.2931	0.2843	0.5564	-0.02
Mof_C 	C 	0.1583	0.6435	0.6867	-0.007
Mof_H 	H 	0.1983	0.6866	0.6996	0.085
Mof_O 	O 	0.26	0.9244	0.6949	-0.173
Mof_C 	C 	0.4427	0.0277	0.8549	-0.021
Mof_C 	C 	0.0377	0.5179	0.6484	-0.03
Mof_C 	C 	0.4158	0.0048	0.792	-0.018
Mof_H 	H 	0.4384	0.033	0.7602	0.088
Mof_C 	C 	0.1336	0.6653	0.7969	0.284
Mof_C 	C 	0.2418	0.9323	0.5108	0.271
Mof_C 	C 	0.1159	0.6174	0.7301	-0.027
Mof_C 	C 	0.323	0.8908	0.8246	-0.028
Mof_H 	H 	0.2826	0.8475	0.8148	0.099
Mof_C 	C 	0.3522	0.9073	0.887	-0.015
Mof_C 	C 	0.264	0.3546	0.5038	-0.019
Mof_H 	H 	0.2687	0.4469	0.5024	0.094
Mof_C 	C 	0.3554	0.9402	0.7766	-0.005
Mof_C 	C 	0.0566	0.5494	0.711	-0.004
Mof_H 	H 	0.03	0.5256	0.7404	0.081
Mof_C 	C 	0.195	0.3585	0.3941	0.286
Mof_C 	C 	0.973	0.453	0.6271	0.278
Mof_C 	C 	0.3236	0.9149	0.7095	0.253
Mof_C 	C 	0.3336	0.3548	0.6115	0.281
Mof_C 	C 	0.506	0.101	0.8708	0.273
Mof_Th	Th	0.85187	0.19528	0.08424	0.043
Mof_Th	Th	0.64048	0.20347	0.89879	0.04
Mof_O 	O 	0.7356	0.289	0.5783	-0.16
Mof_O 	O 	0.8348	0.1172	0.9785	-0.165
Mof_O 	O 	0.8905	0.1153	0.6593	-0.175
Mof_O 	O 	0.7534	0.1412	0.8985	-0.167
Mof_O 	O 	0.0532	0.884	0.8345	-0.17
Mof_O 	O 	0.6462	0.9727	0.899	-0.161
Mof_C 	C 	0.7795	0.6487	0.0447	-0.016
Mof_H 	H 	0.8035	0.6031	0.0785	0.089
Mof_O 	O 	0.8274	0.265	0.6928	-0.168
Mof_C 	C 	0.7142	0.6464	0.9413	-0.017
Mof_H 	H 	0.6947	0.5992	0.9059	0.09
Mof_O 	O 	0.811	0.3838	0.0214	-0.153
Mof_O 	O 	0.7145	0.3657	0.9564	-0.156
Mof_O 	O 	0.652	0.3529	0.5079	-0.165
Mof_C 	C 	0.8596	0.1048	0.8758	-0.027
Mof_O 	O 	0.8121	0.9844	0.1033	-0.162
Mof_O 	O 	0.636	0.3894	0.8286	-0.16
Mof_C 	C 	0.7726	0.787	0.0473	-0.023
Mof_C 	C 	0.6812	0.3457	0.563	0.273
Mof_C 	C 	0.7506	0.579	0.9915	-0.019
Mof_O 	O 	0.4667	0.61	0.5726	-0.17
Mof_O 	O 	0.0559	0.9694	0.9289	-0.174
Mof_O 	O 	0.4667	0.6552	0.6721	-0.165
Mof_C 	C 	0.8128	0.1237	0.9207	0.278
Mof_C 	C 	0.9218	0.0468	0.8961	-0.009
Mof_H 	H 	0.9357	0.0281	0.9385	0.085
Mof_O 	O 	0.6526	0.7941	0.839	-0.196
Mof_C 	C 	0.5881	0.4737	0.5975	-0.021
Mof_H 	H 	0.5687	0.4822	0.5556	0.089
Mof_O 	O 	0.8222	0.7948	0.1536	-0.196
Mof_C 	C 	0.7069	0.7843	0.9436	-0.02
Mof_C 	C 	0.8417	0.1435	0.8133	-0.006
Mof_H 	H 	0.8017	0.1866	0.8004	0.085
Mof_O 	O 	0.74	0.4244	0.8051	-0.173
Mof_C 	C 	0.5573	0.5277	0.6451	-0.021
Mof_C 	C 	0.9623	0.0179	0.8516	-0.032
Mof_C 	C 	0.5842	0.5048	0.708	-0.018
Mof_H 	H 	0.5616	0.533	0.7398	0.088
Mof_C 	C 	0.8664	0.1653	0.7031	0.284
Mof_C 	C 	0.7582	0.4323	0.9892	0.27
Mof_C 	C 	0.8841	0.1174	0.7699	-0.028
Mof_C 	C 	0.677	0.3908	0.6754	-0.028
Mof_H 	H 	0.7174	0.3475	0.6852	0.099
Mof_C 	C 	0.6478	0.4073	0.613	-0.015
Mof_C 	C 	0.736	0.8546	0.9962	-0.019
Mof_H 	H 	0.7313	0.9469	0.9976	0.095
Mof_C 	C 	0.6446	0.4402	0.7234	-0.005
Mof_C 	C 	0.9434	0.0494	0.789	-0.004
Mof_H 	H 	0.97	0.0256	0.7596	0.081
Mof_C 	C 	0.805	0.8585	0.1059	0.286
Mof_C 	C 	0.027	0.953	0.8729	0.279
Mof_C 	C 	0.6764	0.4149	0.7905	0.253
Mof_C 	C 	0.6664	0.8548	0.8885	0.281
Mof_C 	C 	0.494	0.601	0.6292	0.273
Mof_Th	Th	0.85187	0.30472	0.58424	0.043
Mof_Th	Th	0.64048	0.29653	0.39879	0.04
Mof_O 	O 	0.7356	0.211	0.0783	-0.16
Mof_O 	O 	0.8348	0.3828	0.4785	-0.165
Mof_O 	O 	0.8905	0.3847	0.1593	-0.175
Mof_O 	O 	0.7534	0.3588	0.3985	-0.167
Mof_O 	O 	0.0532	0.616	0.3345	-0.17
Mof_O 	O 	0.6462	0.5273	0.399	-0.161
Mof_C 	C 	0.7795	0.8513	0.5447	-0.017
Mof_H 	H 	0.8035	0.8969	0.5785	0.089
Mof_O 	O 	0.8274	0.235	0.1928	-0.168
Mof_C 	C 	0.7142	0.8536	0.4413	-0.017
Mof_H 	H 	0.6947	0.9008	0.4059	0.09
Mof_O 	O 	0.811	0.1162	0.5214	-0.153
Mof_O 	O 	0.7145	0.1343	0.4564	-0.156
Mof_O 	O 	0.652	0.1471	0.0079	-0.165
Mof_C 	C 	0.8596	0.3952	0.3758	-0.026
Mof_O 	O 	0.8121	0.5156	0.6033	-0.162
Mof_O 	O 	0.636	0.1106	0.3286	-0.16
Mof_C 	C 	0.7726	0.713	0.5473	-0.023
Mof_C 	C 	0.6812	0.1543	0.063	0.273
Mof_C 	C 	0.7506	0.921	0.4915	-0.019
Mof_O 	O 	0.4667	0.89	0.0726	-0.17
Mof_O 	O 	0.0559	0.5306	0.4289	-0.174
Mof_O 	O 	0.4667	0.8448	0.1721	-0.165
Mof_C 	C 	0.8128	0.3763	0.4207	0.278
Mof_C 	C 	0.9218	0.4532	0.3961	-0.009
Mof_H 	H 	0.9357	0.4719	0.4385	0.086
Mof_O 	O 	0.6526	0.7059	0.339	-0.196
Mof_C 	C 	0.5881	0.0263	0.0975	-0.021
Mof_H 	H 	0.5687	0.0178	0.0556	0.089
Mof_O 	O 	0.8222	0.7052	0.6536	-0.196
Mof_C 	C 	0.7069	0.7157	0.4436	-0.02
Mof_C 	C 	0.8417	0.3565	0.3133	-0.007
Mof_H 	H 	0.8017	0.3134	0.3004	0.085
Mof_O 	O 	0.74	0.0756	0.3051	-0.173
Mof_C 	C 	0.5573	0.9723	0.1451	-0.021
Mof_C 	C 	0.9623	0.4821	0.3516	-0.03
Mof_C 	C 	0.5842	0.9952	0.208	-0.018
Mof_H 	H 	0.5616	0.967	0.2398	0.088
Mof_C 	C 	0.8664	0.3347	0.2031	0.284
Mof_C 	C 	0.7582	0.0677	0.4892	0.271
Mof_C 	C 	0.8841	0.3826	0.2699	-0.027
Mof_C 	C 	0.677	0.1092	0.1754	-0.028
Mof_H 	H 	0.7174	0.1525	0.1852	0.099
Mof_C 	C 	0.6478	0.0927	0.113	-0.015
Mof_C 	C 	0.736	0.6454	0.4962	-0.019
Mof_H 	H 	0.7313	0.5531	0.4976	0.094
Mof_C 	C 	0.6446	0.0598	0.2234	-0.005
Mof_C 	C 	0.9434	0.4506	0.289	-0.004
Mof_H 	H 	0.97	0.4744	0.2596	0.081
Mof_C 	C 	0.805	0.6415	0.6059	0.286
Mof_C 	C 	0.027	0.547	0.3729	0.278
Mof_C 	C 	0.6764	0.0851	0.2905	0.253
Mof_C 	C 	0.6664	0.6452	0.3885	0.281
Mof_C 	C 	0.494	0.899	0.1292	0.273
Mof_Th	Th	0.14813	0.80472	0.91576	0.043
Mof_Th	Th	0.35952	0.79653	0.10121	0.04
Mof_O 	O 	0.2644	0.711	0.4217	-0.16
Mof_O 	O 	0.1652	0.8828	0.0215	-0.165
Mof_O 	O 	0.1095	0.8847	0.3407	-0.175
Mof_O 	O 	0.2466	0.8588	0.1015	-0.167
Mof_O 	O 	0.9468	0.116	0.1655	-0.17
Mof_O 	O 	0.3538	0.0273	0.101	-0.161
Mof_C 	C 	0.2205	0.3513	0.9553	-0.016
Mof_H 	H 	0.1965	0.3969	0.9215	0.089
Mof_O 	O 	0.1726	0.735	0.3072	-0.168
Mof_C 	C 	0.2858	0.3536	0.0587	-0.017
Mof_H 	H 	0.3053	0.4008	0.0941	0.09
Mof_O 	O 	0.189	0.6162	0.9786	-0.153
Mof_O 	O 	0.2855	0.6343	0.0436	-0.156
Mof_O 	O 	0.348	0.6471	0.4921	-0.165
Mof_C 	C 	0.1404	0.8952	0.1242	-0.027
Mof_O 	O 	0.1879	0.0156	0.8967	-0.162
Mof_O 	O 	0.364	0.6106	0.1714	-0.16
Mof_C 	C 	0.2274	0.213	0.9527	-0.023
Mof_C 	C 	0.3188	0.6543	0.437	0.273
Mof_C 	C 	0.2494	0.421	0.0085	-0.019
Mof_O 	O 	0.5333	0.39	0.4274	-0.17
Mof_O 	O 	0.9441	0.0306	0.0711	-0.174
Mof_O 	O 	0.5333	0.3448	0.3279	-0.165
Mof_C 	C 	0.1872	0.8763	0.0793	0.278
Mof_C 	C 	0.0782	0.9532	0.1039	-0.009
Mof_H 	H 	0.0643	0.9719	0.0615	0.085
Mof_O 	O 	0.3474	0.2059	0.161	-0.196
Mof_C 	C 	0.4119	0.5263	0.4025	-0.021
Mof_H 	H 	0.4313	0.5178	0.4444	0.089
Mof_O 	O 	0.1778	0.2052	0.8464	-0.196
Mof_C 	C 	0.2931	0.2157	0.0564	-0.02
Mof_C 	C 	0.1583	0.8565	0.1867	-0.006
Mof_H 	H 	0.1983	0.8134	0.1996	0.085
Mof_O 	O 	0.26	0.5756	0.1949	-0.173
Mof_C 	C 	0.4427	0.4723	0.3549	-0.021
Mof_C 	C 	0.0377	0.9821	0.1484	-0.032
Mof_C 	C 	0.4158	0.4952	0.292	-0.018
Mof_H 	H 	0.4384	0.467	0.2602	0.088
Mof_C 	C 	0.1336	0.8347	0.2969	0.284
Mof_C 	C 	0.2418	0.5677	0.0108	0.27
Mof_C 	C 	0.1159	0.8826	0.2301	-0.028
Mof_C 	C 	0.323	0.6092	0.3246	-0.028
Mof_H 	H 	0.2826	0.6525	0.3148	0.099
Mof_C 	C 	0.3522	0.5927	0.387	-0.015
Mof_C 	C 	0.264	0.1454	0.0038	-0.019
Mof_H 	H 	0.2687	0.0531	0.0024	0.095
Mof_C 	C 	0.3554	0.5598	0.2766	-0.005
Mof_C 	C 	0.0566	0.9506	0.211	-0.004
Mof_H 	H 	0.03	0.9744	0.2404	0.081
Mof_C 	C 	0.195	0.1415	0.8941	0.286
Mof_C 	C 	0.973	0.047	0.1271	0.279
Mof_C 	C 	0.3236	0.5851	0.2095	0.253
Mof_C 	C 	0.3336	0.1452	0.1115	0.281
Mof_C 	C 	0.506	0.399	0.3708	0.273
_end
