data_functionalizedCrystal
_audit_creation_method	'EQeq! by Chris Wilmer'
_symmetry_space_group_name_H-M	'P1'
_symmetry_Int_Tables_number	1
_symmetry_cell_setting	triclinic
loop_
_symmetry_equiv_pos_as_xyz
  x,y,z
_cell_length_a	39.7112
_cell_length_b	34.5319
_cell_length_c	8.2613
_cell_angle_alpha	90
_cell_angle_beta	90
_cell_angle_gamma	90
loop_
_atom_site_label
_atom_site_type_symbol
_atom_site_fract_x
_atom_site_fract_y
_atom_site_fract_z
_atom_site_charge
Mof_I 	I 	0.06201	0.1808	0.14553	-0.388
Mof_I 	I 	0.07776	0.24774	0.5897	-0.386
Mof_Zn	Zn	0.07138	0.24589	0.2851	1.161
Mof_I 	I 	0.21233	0.20721	0.8026	0.118
Mof_N 	N 	0.1099	0.2734	0.1573	-0.264
Mof_N 	N 	0.2839	0.4664	0.9601	-0.27
Mof_C 	C 	0.1442	0.329	0.1008	-0.143
Mof_H 	H 	0.1523	0.3531	0.133	0.099
Mof_C 	C 	0.1204	0.2578	0.0154	0.011
Mof_H 	H 	0.1125	0.2334	0.9871	0.032
Mof_C 	C 	0.1216	0.3087	0.1968	0.081
Mof_H 	H 	0.1142	0.3201	0.2927	-0.013
Mof_N 	N 	0.1968	0.3618	0.9052	-0.128
Mof_N 	N 	0.1826	0.316	0.6996	-0.148
Mof_C 	C 	0.1793	0.3312	0.845	0.083
Mof_C 	C 	0.2413	0.4084	0.8571	0.103
Mof_C 	C 	0.2817	0.4578	0.8051	0.089
Mof_H 	H 	0.2946	0.4718	0.7318	-0.017
Mof_C 	C 	0.2422	0.4183	0.0187	-0.17
Mof_H 	H 	0.2283	0.4061	0.0936	0.11
Mof_N 	N 	0.2269	0.2827	0.1476	-0.273
Mof_C 	C 	0.142	0.2761	0.9115	-0.092
Mof_H 	H 	0.1482	0.2646	0.8142	0.08
Mof_C 	C 	0.2645	0.447	0.0655	0.078
Mof_H 	H 	0.266	0.4531	0.1749	-0.017
Mof_C 	C 	0.1546	0.3125	0.955	0.063
Mof_N 	N 	0.2254	0.3622	0.6522	-0.132
Mof_C 	C 	0.2061	0.3323	0.6085	0.09
Mof_C 	C 	0.2605	0.4282	0.7454	-0.158
Mof_H 	H 	0.2597	0.4222	0.6357	0.096
Mof_C 	C 	0.1975	0.281	0.398	-0.139
Mof_H 	H 	0.1823	0.2682	0.465	0.08
Mof_C 	C 	0.2195	0.3759	0.7986	0.084
Mof_C 	C 	0.2124	0.3156	0.4485	0.057
Mof_C 	C 	0.2343	0.3334	0.3388	-0.122
Mof_H 	H 	0.2448	0.3566	0.3664	0.09
Mof_C 	C 	0.2054	0.2661	0.2477	0.083
Mof_H 	H 	0.195	0.2432	0.2154	-0.022
Mof_C 	C 	0.2404	0.3168	0.1899	0.064
Mof_H 	H 	0.2543	0.3296	0.1167	-0.006
Mof_I 	I 	0.2039	0.1955	0.8567	-0.457
Mof_I 	I 	0.06201	0.6808	0.64553	-0.367
Mof_I 	I 	0.07776	0.74774	0.0897	-0.401
Mof_Zn	Zn	0.07138	0.74589	0.7851	1.165
Mof_I 	I 	0.21233	0.70721	0.3026	0.11
Mof_N 	N 	0.1099	0.7734	0.6573	-0.269
Mof_N 	N 	0.2839	0.9664	0.4601	-0.275
Mof_C 	C 	0.1442	0.829	0.6008	-0.129
Mof_H 	H 	0.1523	0.8531	0.633	0.099
Mof_C 	C 	0.1204	0.7578	0.5154	0.071
Mof_H 	H 	0.1125	0.7334	0.4871	0.001
Mof_C 	C 	0.1216	0.8087	0.6968	0.079
Mof_H 	H 	0.1142	0.8201	0.7927	-0.009
Mof_N 	N 	0.1968	0.8618	0.4052	-0.133
Mof_N 	N 	0.1826	0.816	0.1996	-0.147
Mof_C 	C 	0.1793	0.8312	0.345	0.079
Mof_C 	C 	0.2413	0.9084	0.3571	0.078
Mof_C 	C 	0.2817	0.9578	0.3051	0.081
Mof_H 	H 	0.2946	0.9718	0.2318	-0.015
Mof_C 	C 	0.2422	0.9183	0.5187	-0.144
Mof_H 	H 	0.2283	0.9061	0.5936	0.105
Mof_N 	N 	0.2269	0.7827	0.6476	-0.272
Mof_C 	C 	0.142	0.7761	0.4115	-0.133
Mof_H 	H 	0.1482	0.7646	0.3142	0.091
Mof_C 	C 	0.2645	0.947	0.5655	0.086
Mof_H 	H 	0.266	0.9531	0.6749	-0.014
Mof_C 	C 	0.1546	0.8125	0.455	0.058
Mof_N 	N 	0.2254	0.8622	0.1522	-0.133
Mof_C 	C 	0.2061	0.8323	0.1085	0.069
Mof_C 	C 	0.2605	0.9282	0.2454	-0.147
Mof_H 	H 	0.2597	0.9222	0.1357	0.088
Mof_C 	C 	0.1975	0.781	0.898	-0.152
Mof_H 	H 	0.1823	0.7682	0.965	0.09
Mof_C 	C 	0.2195	0.8759	0.2986	0.087
Mof_C 	C 	0.2124	0.8156	0.9485	0.083
Mof_C 	C 	0.2343	0.8334	0.8388	-0.135
Mof_H 	H 	0.2448	0.8566	0.8664	0.099
Mof_C 	C 	0.2054	0.7661	0.7477	0.092
Mof_H 	H 	0.195	0.7432	0.7154	-0.021
Mof_C 	C 	0.2404	0.8168	0.6899	0.073
Mof_H 	H 	0.2543	0.8296	0.6167	-0.004
Mof_I 	I 	0.2039	0.6955	0.3567	-0.462
Mof_I 	I 	0.56201	0.1808	0.64553	-0.366
Mof_I 	I 	0.57776	0.24774	0.0897	-0.4
Mof_Zn	Zn	0.57138	0.24589	0.7851	1.165
Mof_I 	I 	0.71233	0.20721	0.3026	0.11
Mof_N 	N 	0.6099	0.2734	0.6573	-0.269
Mof_N 	N 	0.7839	0.4664	0.4601	-0.278
Mof_C 	C 	0.6442	0.329	0.6008	-0.129
Mof_H 	H 	0.6523	0.3531	0.633	0.099
Mof_C 	C 	0.6204	0.2578	0.5154	0.071
Mof_H 	H 	0.6125	0.2334	0.4871	0.001
Mof_C 	C 	0.6216	0.3087	0.6968	0.08
Mof_H 	H 	0.6142	0.3201	0.7927	-0.009
Mof_N 	N 	0.6968	0.3618	0.4052	-0.133
Mof_N 	N 	0.6826	0.316	0.1996	-0.147
Mof_C 	C 	0.6793	0.3312	0.345	0.079
Mof_C 	C 	0.7413	0.4084	0.3571	0.078
Mof_C 	C 	0.7817	0.4578	0.3051	0.081
Mof_H 	H 	0.7946	0.4718	0.2318	-0.017
Mof_C 	C 	0.7422	0.4183	0.5187	-0.145
Mof_H 	H 	0.7283	0.4061	0.5936	0.105
Mof_N 	N 	0.7269	0.2827	0.6476	-0.272
Mof_C 	C 	0.642	0.2761	0.4115	-0.133
Mof_H 	H 	0.6482	0.2646	0.3142	0.091
Mof_C 	C 	0.7645	0.447	0.5655	0.085
Mof_H 	H 	0.766	0.4531	0.6749	-0.017
Mof_C 	C 	0.6546	0.3125	0.455	0.058
Mof_N 	N 	0.7254	0.3622	0.1522	-0.133
Mof_C 	C 	0.7061	0.3323	0.1085	0.069
Mof_C 	C 	0.7605	0.4282	0.2454	-0.148
Mof_H 	H 	0.7597	0.4222	0.1357	0.087
Mof_C 	C 	0.6975	0.281	0.898	-0.152
Mof_H 	H 	0.6823	0.2682	0.965	0.09
Mof_C 	C 	0.7195	0.3759	0.2986	0.087
Mof_C 	C 	0.7124	0.3156	0.9485	0.083
Mof_C 	C 	0.7343	0.3334	0.8388	-0.135
Mof_H 	H 	0.7448	0.3566	0.8664	0.099
Mof_C 	C 	0.7054	0.2661	0.7477	0.092
Mof_H 	H 	0.695	0.2432	0.7154	-0.021
Mof_C 	C 	0.7404	0.3168	0.6899	0.073
Mof_H 	H 	0.7543	0.3296	0.6167	-0.004
Mof_I 	I 	0.7039	0.1955	0.3567	-0.462
Mof_I 	I 	0.56201	0.6808	0.14553	-0.386
Mof_I 	I 	0.57776	0.74774	0.5897	-0.384
Mof_Zn	Zn	0.57138	0.74589	0.2851	1.162
Mof_I 	I 	0.71233	0.70721	0.8026	0.119
Mof_N 	N 	0.6099	0.7734	0.1573	-0.263
Mof_N 	N 	0.7839	0.9664	0.9601	-0.267
Mof_C 	C 	0.6442	0.829	0.1008	-0.142
Mof_H 	H 	0.6523	0.8531	0.133	0.1
Mof_C 	C 	0.6204	0.7578	0.0154	0.013
Mof_H 	H 	0.6125	0.7334	0.9871	0.031
Mof_C 	C 	0.6216	0.8087	0.1968	0.081
Mof_H 	H 	0.6142	0.8201	0.2927	-0.013
Mof_N 	N 	0.6968	0.8618	0.9052	-0.128
Mof_N 	N 	0.6826	0.816	0.6996	-0.148
Mof_C 	C 	0.6793	0.8312	0.845	0.083
Mof_C 	C 	0.7413	0.9084	0.8571	0.102
Mof_C 	C 	0.7817	0.9578	0.8051	0.089
Mof_H 	H 	0.7946	0.9718	0.7318	-0.014
Mof_C 	C 	0.7422	0.9183	0.0187	-0.169
Mof_H 	H 	0.7283	0.9061	0.0936	0.11
Mof_N 	N 	0.7269	0.7827	0.1476	-0.273
Mof_C 	C 	0.642	0.7761	0.9115	-0.092
Mof_H 	H 	0.6482	0.7646	0.8142	0.08
Mof_C 	C 	0.7645	0.947	0.0655	0.078
Mof_H 	H 	0.766	0.9531	0.1749	-0.015
Mof_C 	C 	0.6546	0.8125	0.955	0.063
Mof_N 	N 	0.7254	0.8622	0.6522	-0.132
Mof_C 	C 	0.7061	0.8323	0.6085	0.09
Mof_C 	C 	0.7605	0.9282	0.7454	-0.157
Mof_H 	H 	0.7597	0.9222	0.6357	0.096
Mof_C 	C 	0.6975	0.781	0.398	-0.139
Mof_H 	H 	0.6823	0.7682	0.465	0.08
Mof_C 	C 	0.7195	0.8759	0.7986	0.084
Mof_C 	C 	0.7124	0.8156	0.4485	0.057
Mof_C 	C 	0.7343	0.8334	0.3388	-0.123
Mof_H 	H 	0.7448	0.8566	0.3664	0.09
Mof_C 	C 	0.7054	0.7661	0.2477	0.083
Mof_H 	H 	0.695	0.7432	0.2154	-0.022
Mof_C 	C 	0.7404	0.8168	0.1899	0.064
Mof_H 	H 	0.7543	0.8296	0.1167	-0.006
Mof_I 	I 	0.7039	0.6955	0.8567	-0.457
Mof_I 	I 	0.93799	0.8192	0.14553	-0.384
Mof_I 	I 	0.92224	0.75226	0.5897	-0.382
Mof_Zn	Zn	0.92862	0.75411	0.2851	1.162
Mof_I 	I 	0.78767	0.79279	0.8026	0.119
Mof_N 	N 	0.8901	0.7266	0.1573	-0.263
Mof_N 	N 	0.7161	0.5336	0.9601	-0.269
Mof_C 	C 	0.8558	0.671	0.1008	-0.142
Mof_H 	H 	0.8477	0.6469	0.133	0.1
Mof_C 	C 	0.8796	0.7422	0.0154	0.013
Mof_H 	H 	0.8875	0.7666	0.9871	0.031
Mof_C 	C 	0.8784	0.6913	0.1968	0.081
Mof_H 	H 	0.8858	0.6799	0.2927	-0.013
Mof_N 	N 	0.8032	0.6382	0.9052	-0.128
Mof_N 	N 	0.8174	0.684	0.6996	-0.148
Mof_C 	C 	0.8207	0.6688	0.845	0.083
Mof_C 	C 	0.7587	0.5916	0.8571	0.103
Mof_C 	C 	0.7183	0.5422	0.8051	0.089
Mof_H 	H 	0.7054	0.5282	0.7318	-0.017
Mof_C 	C 	0.7578	0.5817	0.0187	-0.17
Mof_H 	H 	0.7717	0.5939	0.0936	0.11
Mof_N 	N 	0.7731	0.7173	0.1476	-0.273
Mof_C 	C 	0.858	0.7239	0.9115	-0.092
Mof_H 	H 	0.8518	0.7354	0.8142	0.08
Mof_C 	C 	0.7355	0.553	0.0655	0.078
Mof_H 	H 	0.734	0.5469	0.1749	-0.017
Mof_C 	C 	0.8454	0.6875	0.955	0.063
Mof_N 	N 	0.7746	0.6378	0.6522	-0.132
Mof_C 	C 	0.7939	0.6677	0.6085	0.09
Mof_C 	C 	0.7395	0.5718	0.7454	-0.158
Mof_H 	H 	0.7403	0.5778	0.6357	0.096
Mof_C 	C 	0.8025	0.719	0.398	-0.139
Mof_H 	H 	0.8177	0.7318	0.465	0.08
Mof_C 	C 	0.7805	0.6241	0.7986	0.084
Mof_C 	C 	0.7876	0.6844	0.4485	0.057
Mof_C 	C 	0.7657	0.6666	0.3388	-0.122
Mof_H 	H 	0.7552	0.6434	0.3664	0.09
Mof_C 	C 	0.7946	0.7339	0.2477	0.083
Mof_H 	H 	0.805	0.7568	0.2154	-0.022
Mof_C 	C 	0.7596	0.6832	0.1899	0.064
Mof_H 	H 	0.7457	0.6704	0.1167	-0.006
Mof_I 	I 	0.7961	0.8045	0.8567	-0.457
Mof_I 	I 	0.93799	0.3192	0.64553	-0.364
Mof_I 	I 	0.92224	0.25226	0.0897	-0.399
Mof_Zn	Zn	0.92862	0.25411	0.7851	1.165
Mof_I 	I 	0.78767	0.29279	0.3026	0.11
Mof_N 	N 	0.8901	0.2266	0.6573	-0.269
Mof_N 	N 	0.7161	0.0336	0.4601	-0.28
Mof_C 	C 	0.8558	0.171	0.6008	-0.129
Mof_H 	H 	0.8477	0.1469	0.633	0.099
Mof_C 	C 	0.8796	0.2422	0.5154	0.071
Mof_H 	H 	0.8875	0.2666	0.4871	0.001
Mof_C 	C 	0.8784	0.1913	0.6968	0.08
Mof_H 	H 	0.8858	0.1799	0.7927	-0.009
Mof_N 	N 	0.8032	0.1382	0.4052	-0.133
Mof_N 	N 	0.8174	0.184	0.1996	-0.147
Mof_C 	C 	0.8207	0.1688	0.345	0.079
Mof_C 	C 	0.7587	0.0916	0.3571	0.079
Mof_C 	C 	0.7183	0.0422	0.3051	0.081
Mof_H 	H 	0.7054	0.0282	0.2318	-0.02
Mof_C 	C 	0.7578	0.0817	0.5187	-0.146
Mof_H 	H 	0.7717	0.0939	0.5936	0.105
Mof_N 	N 	0.7731	0.2173	0.6476	-0.272
Mof_C 	C 	0.858	0.2239	0.4115	-0.133
Mof_H 	H 	0.8518	0.2354	0.3142	0.091
Mof_C 	C 	0.7355	0.053	0.5655	0.085
Mof_H 	H 	0.734	0.0469	0.6749	-0.019
Mof_C 	C 	0.8454	0.1875	0.455	0.058
Mof_N 	N 	0.7746	0.1378	0.1522	-0.133
Mof_C 	C 	0.7939	0.1677	0.1085	0.069
Mof_C 	C 	0.7395	0.0718	0.2454	-0.149
Mof_H 	H 	0.7403	0.0778	0.1357	0.087
Mof_C 	C 	0.8025	0.219	0.898	-0.152
Mof_H 	H 	0.8177	0.2318	0.965	0.09
Mof_C 	C 	0.7805	0.1241	0.2986	0.087
Mof_C 	C 	0.7876	0.1844	0.9485	0.083
Mof_C 	C 	0.7657	0.1666	0.8388	-0.135
Mof_H 	H 	0.7552	0.1434	0.8664	0.098
Mof_C 	C 	0.7946	0.2339	0.7477	0.092
Mof_H 	H 	0.805	0.2568	0.7154	-0.021
Mof_C 	C 	0.7596	0.1832	0.6899	0.073
Mof_H 	H 	0.7457	0.1704	0.6167	-0.004
Mof_I 	I 	0.7961	0.3045	0.3567	-0.462
Mof_I 	I 	0.43799	0.8192	0.64553	-0.366
Mof_I 	I 	0.42224	0.75226	0.0897	-0.4
Mof_Zn	Zn	0.42862	0.75411	0.7851	1.165
Mof_I 	I 	0.28767	0.79279	0.3026	0.11
Mof_N 	N 	0.3901	0.7266	0.6573	-0.269
Mof_N 	N 	0.2161	0.5336	0.4601	-0.278
Mof_C 	C 	0.3558	0.671	0.6008	-0.129
Mof_H 	H 	0.3477	0.6469	0.633	0.099
Mof_C 	C 	0.3796	0.7422	0.5154	0.071
Mof_H 	H 	0.3875	0.7666	0.4871	0.001
Mof_C 	C 	0.3784	0.6913	0.6968	0.08
Mof_H 	H 	0.3858	0.6799	0.7927	-0.009
Mof_N 	N 	0.3032	0.6382	0.4052	-0.133
Mof_N 	N 	0.3174	0.684	0.1996	-0.147
Mof_C 	C 	0.3207	0.6688	0.345	0.079
Mof_C 	C 	0.2587	0.5916	0.3571	0.078
Mof_C 	C 	0.2183	0.5422	0.3051	0.081
Mof_H 	H 	0.2054	0.5282	0.2318	-0.017
Mof_C 	C 	0.2578	0.5817	0.5187	-0.145
Mof_H 	H 	0.2717	0.5939	0.5936	0.105
Mof_N 	N 	0.2731	0.7173	0.6476	-0.272
Mof_C 	C 	0.358	0.7239	0.4115	-0.133
Mof_H 	H 	0.3518	0.7354	0.3142	0.091
Mof_C 	C 	0.2355	0.553	0.5655	0.085
Mof_H 	H 	0.234	0.5469	0.6749	-0.017
Mof_C 	C 	0.3454	0.6875	0.455	0.058
Mof_N 	N 	0.2746	0.6378	0.1522	-0.133
Mof_C 	C 	0.2939	0.6677	0.1085	0.069
Mof_C 	C 	0.2395	0.5718	0.2454	-0.148
Mof_H 	H 	0.2403	0.5778	0.1357	0.087
Mof_C 	C 	0.3025	0.719	0.898	-0.152
Mof_H 	H 	0.3177	0.7318	0.965	0.09
Mof_C 	C 	0.2805	0.6241	0.2986	0.087
Mof_C 	C 	0.2876	0.6844	0.9485	0.083
Mof_C 	C 	0.2657	0.6666	0.8388	-0.135
Mof_H 	H 	0.2552	0.6434	0.8664	0.099
Mof_C 	C 	0.2946	0.7339	0.7477	0.092
Mof_H 	H 	0.305	0.7568	0.7154	-0.021
Mof_C 	C 	0.2596	0.6832	0.6899	0.073
Mof_H 	H 	0.2457	0.6704	0.6167	-0.004
Mof_I 	I 	0.2961	0.8045	0.3567	-0.462
Mof_I 	I 	0.43799	0.3192	0.14553	-0.385
Mof_I 	I 	0.42224	0.25226	0.5897	-0.383
Mof_Zn	Zn	0.42862	0.25411	0.2851	1.162
Mof_I 	I 	0.28767	0.29279	0.8026	0.119
Mof_N 	N 	0.3901	0.2266	0.1573	-0.263
Mof_N 	N 	0.2161	0.0336	0.9601	-0.272
Mof_C 	C 	0.3558	0.171	0.1008	-0.142
Mof_H 	H 	0.3477	0.1469	0.133	0.1
Mof_C 	C 	0.3796	0.2422	0.0154	0.012
Mof_H 	H 	0.3875	0.2666	0.9871	0.032
Mof_C 	C 	0.3784	0.1913	0.1968	0.081
Mof_H 	H 	0.3858	0.1799	0.2927	-0.013
Mof_N 	N 	0.3032	0.1382	0.9052	-0.128
Mof_N 	N 	0.3174	0.184	0.6996	-0.148
Mof_C 	C 	0.3207	0.1688	0.845	0.083
Mof_C 	C 	0.2587	0.0916	0.8571	0.103
Mof_C 	C 	0.2183	0.0422	0.8051	0.089
Mof_H 	H 	0.2054	0.0282	0.7318	-0.019
Mof_C 	C 	0.2578	0.0817	0.0187	-0.171
Mof_H 	H 	0.2717	0.0939	0.0936	0.11
Mof_N 	N 	0.2731	0.2173	0.1476	-0.273
Mof_C 	C 	0.358	0.2239	0.9115	-0.092
Mof_H 	H 	0.3518	0.2354	0.8142	0.08
Mof_C 	C 	0.2355	0.053	0.0655	0.078
Mof_H 	H 	0.234	0.0469	0.1749	-0.019
Mof_C 	C 	0.3454	0.1875	0.955	0.063
Mof_N 	N 	0.2746	0.1378	0.6522	-0.132
Mof_C 	C 	0.2939	0.1677	0.6085	0.09
Mof_C 	C 	0.2395	0.0718	0.7454	-0.159
Mof_H 	H 	0.2403	0.0778	0.6357	0.096
Mof_C 	C 	0.3025	0.219	0.398	-0.139
Mof_H 	H 	0.3177	0.2318	0.465	0.08
Mof_C 	C 	0.2805	0.1241	0.7986	0.084
Mof_C 	C 	0.2876	0.1844	0.4485	0.057
Mof_C 	C 	0.2657	0.1666	0.3388	-0.122
Mof_H 	H 	0.2552	0.1434	0.3664	0.09
Mof_C 	C 	0.2946	0.2339	0.2477	0.083
Mof_H 	H 	0.305	0.2568	0.2154	-0.022
Mof_C 	C 	0.2596	0.1832	0.1899	0.064
Mof_H 	H 	0.2457	0.1704	0.1167	-0.006
Mof_I 	I 	0.2961	0.3045	0.8567	-0.457
Mof_I 	I 	0.31201	0.0692	0.39553	-0.376
Mof_I 	I 	0.32776	0.00226	0.8397	-0.381
Mof_Zn	Zn	0.32138	0.00411	0.5351	1.16
Mof_I 	I 	0.46233	0.04279	0.0526	0.111
Mof_N 	N 	0.3599	0.9766	0.4073	-0.273
Mof_N 	N 	0.5339	0.7836	0.2101	-0.263
Mof_C 	C 	0.3942	0.921	0.3508	-0.137
Mof_H 	H 	0.4023	0.8969	0.383	0.102
Mof_C 	C 	0.3704	0.9922	0.2654	0.095
Mof_H 	H 	0.3625	0.0166	0.2371	-0.014
Mof_C 	C 	0.3716	0.9413	0.4468	0.084
Mof_H 	H 	0.3642	0.9299	0.5427	-0.012
Mof_N 	N 	0.4468	0.8882	0.1552	-0.131
Mof_N 	N 	0.4326	0.934	0.9496	-0.135
Mof_C 	C 	0.4293	0.9188	0.095	0.064
Mof_C 	C 	0.4913	0.8416	0.1071	0.037
Mof_C 	C 	0.5317	0.7922	0.0551	0.009
Mof_H 	H 	0.5446	0.7782	0.9818	0.021
Mof_C 	C 	0.4922	0.8317	0.2687	-0.117
Mof_H 	H 	0.4783	0.8439	0.3436	0.096
Mof_N 	N 	0.4769	0.9673	0.3976	-0.271
Mof_C 	C 	0.392	0.9739	0.1615	-0.149
Mof_H 	H 	0.3982	0.9854	0.0642	0.097
Mof_C 	C 	0.5145	0.803	0.3155	0.067
Mof_H 	H 	0.516	0.7969	0.4249	-0.011
Mof_C 	C 	0.4046	0.9375	0.205	0.069
Mof_N 	N 	0.4754	0.8878	0.9022	-0.125
Mof_C 	C 	0.4561	0.9177	0.8585	0.091
Mof_C 	C 	0.5105	0.8218	0.9954	-0.071
Mof_H 	H 	0.5097	0.8278	0.8857	0.068
Mof_C 	C 	0.4475	0.969	0.648	-0.151
Mof_H 	H 	0.4323	0.9818	0.715	0.09
Mof_C 	C 	0.4695	0.8741	0.0486	0.087
Mof_C 	C 	0.4624	0.9344	0.6985	0.065
Mof_C 	C 	0.4843	0.9166	0.5888	-0.126
Mof_H 	H 	0.4948	0.8934	0.6164	0.093
Mof_C 	C 	0.4554	0.9839	0.4977	0.108
Mof_H 	H 	0.445	0.0068	0.4654	-0.033
Mof_C 	C 	0.4904	0.9332	0.4399	0.069
Mof_H 	H 	0.5043	0.9204	0.3667	-0.002
Mof_I 	I 	0.4539	0.0545	0.1067	-0.474
Mof_I 	I 	0.31201	0.5692	0.89553	-0.358
Mof_I 	I 	0.32776	0.50226	0.3397	-0.391
Mof_Zn	Zn	0.32138	0.50411	0.0351	1.156
Mof_I 	I 	0.46233	0.54279	0.5526	0.109
Mof_N 	N 	0.3599	0.4766	0.9073	-0.275
Mof_N 	N 	0.5339	0.2836	0.7101	-0.277
Mof_C 	C 	0.3942	0.421	0.8508	-0.151
Mof_H 	H 	0.4023	0.3969	0.883	0.111
Mof_C 	C 	0.3704	0.4922	0.7654	0.077
Mof_H 	H 	0.3625	0.5166	0.7371	-0
Mof_C 	C 	0.3716	0.4413	0.9468	0.119
Mof_H 	H 	0.3642	0.4299	0.0427	-0.037
Mof_N 	N 	0.4468	0.3882	0.6552	-0.132
Mof_N 	N 	0.4326	0.434	0.4496	-0.146
Mof_C 	C 	0.4293	0.4188	0.595	0.077
Mof_C 	C 	0.4913	0.3416	0.6071	0.08
Mof_C 	C 	0.5317	0.2922	0.5551	0.082
Mof_H 	H 	0.5446	0.2782	0.4818	-0.015
Mof_C 	C 	0.4922	0.3317	0.7687	-0.145
Mof_H 	H 	0.4783	0.3439	0.8436	0.109
Mof_N 	N 	0.4769	0.4673	0.8976	-0.281
Mof_C 	C 	0.392	0.4739	0.6615	-0.141
Mof_H 	H 	0.3982	0.4854	0.5642	0.095
Mof_C 	C 	0.5145	0.303	0.8155	0.087
Mof_H 	H 	0.516	0.2969	0.9249	-0.013
Mof_C 	C 	0.4046	0.4375	0.705	0.07
Mof_N 	N 	0.4754	0.3878	0.4022	-0.131
Mof_C 	C 	0.4561	0.4177	0.3585	0.08
Mof_C 	C 	0.5105	0.3218	0.4954	-0.148
Mof_H 	H 	0.5097	0.3278	0.3857	0.091
Mof_C 	C 	0.4475	0.469	0.148	-0.186
Mof_H 	H 	0.4323	0.4818	0.215	0.093
Mof_C 	C 	0.4695	0.3741	0.5486	0.088
Mof_C 	C 	0.4624	0.4344	0.1985	0.084
Mof_C 	C 	0.4843	0.4166	0.0888	-0.168
Mof_H 	H 	0.4948	0.3934	0.1164	0.102
Mof_C 	C 	0.4554	0.4839	0.9977	0.124
Mof_H 	H 	0.445	0.5068	0.9654	-0.03
Mof_C 	C 	0.4904	0.4332	0.9399	0.104
Mof_H 	H 	0.5043	0.4204	0.8667	-0.013
Mof_I 	I 	0.4539	0.5545	0.6067	-0.457
Mof_I 	I 	0.81201	0.0692	0.89553	-0.36
Mof_I 	I 	0.82776	0.00226	0.3397	-0.401
Mof_Zn	Zn	0.82138	0.00411	0.0351	1.154
Mof_I 	I 	0.96233	0.04279	0.5526	0.11
Mof_N 	N 	0.8599	0.9766	0.9073	-0.276
Mof_N 	N 	0.0339	0.7836	0.7101	-0.276
Mof_C 	C 	0.8942	0.921	0.8508	-0.155
Mof_H 	H 	0.9023	0.8969	0.883	0.112
Mof_C 	C 	0.8704	0.9922	0.7654	0.1
Mof_H 	H 	0.8625	0.0166	0.7371	-0.013
Mof_C 	C 	0.8716	0.9413	0.9468	0.122
Mof_H 	H 	0.8642	0.9299	0.0427	-0.036
Mof_N 	N 	0.9468	0.8882	0.6552	-0.131
Mof_N 	N 	0.9326	0.934	0.4496	-0.144
Mof_C 	C 	0.9293	0.9188	0.595	0.076
Mof_C 	C 	0.9913	0.8416	0.6071	0.085
Mof_C 	C 	0.0317	0.7922	0.5551	0.083
Mof_H 	H 	0.0446	0.7782	0.4818	-0.016
Mof_C 	C 	0.9922	0.8317	0.7687	-0.138
Mof_H 	H 	0.9783	0.8439	0.8436	0.107
Mof_N 	N 	0.9769	0.9673	0.8976	-0.285
Mof_C 	C 	0.892	0.9739	0.6615	-0.153
Mof_H 	H 	0.8982	0.9854	0.5642	0.103
Mof_C 	C 	0.0145	0.803	0.8155	0.079
Mof_H 	H 	0.016	0.7969	0.9249	-0.012
Mof_C 	C 	0.9046	0.9375	0.705	0.076
Mof_N 	N 	0.9754	0.8878	0.4022	-0.13
Mof_C 	C 	0.9561	0.9177	0.3585	0.078
Mof_C 	C 	0.0105	0.8218	0.4954	-0.155
Mof_H 	H 	0.0097	0.8278	0.3857	0.092
Mof_C 	C 	0.9475	0.969	0.148	-0.2
Mof_H 	H 	0.9323	0.9818	0.215	0.101
Mof_C 	C 	0.9695	0.8741	0.5486	0.088
Mof_C 	C 	0.9624	0.9344	0.1985	0.094
Mof_C 	C 	0.9843	0.9166	0.0888	-0.179
Mof_H 	H 	0.9948	0.8934	0.1164	0.108
Mof_C 	C 	0.9554	0.9839	0.9977	0.149
Mof_H 	H 	0.945	0.0068	0.9654	-0.044
Mof_C 	C 	0.9904	0.9332	0.9399	0.121
Mof_H 	H 	0.0043	0.9204	0.8667	-0.022
Mof_I 	I 	0.9539	0.0545	0.6067	-0.459
Mof_I 	I 	0.81201	0.5692	0.39553	-0.374
Mof_I 	I 	0.82776	0.50226	0.8397	-0.372
Mof_Zn	Zn	0.82138	0.50411	0.5351	1.162
Mof_I 	I 	0.96233	0.54279	0.0526	0.108
Mof_N 	N 	0.8599	0.4766	0.4073	-0.271
Mof_N 	N 	0.0339	0.2836	0.2101	-0.262
Mof_C 	C 	0.8942	0.421	0.3508	-0.132
Mof_H 	H 	0.9023	0.3969	0.383	0.1
Mof_C 	C 	0.8704	0.4922	0.2654	0.072
Mof_H 	H 	0.8625	0.5166	0.2371	-0.001
Mof_C 	C 	0.8716	0.4413	0.4468	0.081
Mof_H 	H 	0.8642	0.4299	0.5427	-0.012
Mof_N 	N 	0.9468	0.3882	0.1552	-0.131
Mof_N 	N 	0.9326	0.434	0.9496	-0.136
Mof_C 	C 	0.9293	0.4188	0.095	0.066
Mof_C 	C 	0.9913	0.3416	0.1071	0.041
Mof_C 	C 	0.0317	0.2922	0.0551	0.009
Mof_H 	H 	0.0446	0.2782	0.9818	0.02
Mof_C 	C 	0.9922	0.3317	0.2687	-0.11
Mof_H 	H 	0.9783	0.3439	0.3436	0.094
Mof_N 	N 	0.9769	0.4673	0.3976	-0.27
Mof_C 	C 	0.892	0.4739	0.1615	-0.137
Mof_H 	H 	0.8982	0.4854	0.0642	0.09
Mof_C 	C 	0.0145	0.303	0.3155	0.059
Mof_H 	H 	0.016	0.2969	0.4249	-0.01
Mof_C 	C 	0.9046	0.4375	0.205	0.062
Mof_N 	N 	0.9754	0.3878	0.9022	-0.124
Mof_C 	C 	0.9561	0.4177	0.8585	0.092
Mof_C 	C 	0.0105	0.3218	0.9954	-0.077
Mof_H 	H 	0.0097	0.3278	0.8857	0.069
Mof_C 	C 	0.9475	0.469	0.648	-0.141
Mof_H 	H 	0.9323	0.4818	0.715	0.084
Mof_C 	C 	0.9695	0.3741	0.0486	0.086
Mof_C 	C 	0.9624	0.4344	0.6985	0.063
Mof_C 	C 	0.9843	0.4166	0.5888	-0.128
Mof_H 	H 	0.9948	0.3934	0.6164	0.095
Mof_C 	C 	0.9554	0.4839	0.4977	0.087
Mof_H 	H 	0.945	0.5068	0.4654	-0.019
Mof_C 	C 	0.9904	0.4332	0.4399	0.079
Mof_H 	H 	0.0043	0.4204	0.3667	-0.01
Mof_I 	I 	0.9539	0.5545	0.1067	-0.461
Mof_I 	I 	0.18799	0.4308	0.39553	-0.374
Mof_I 	I 	0.17224	0.49774	0.8397	-0.372
Mof_Zn	Zn	0.17862	0.49589	0.5351	1.162
Mof_I 	I 	0.03767	0.45721	0.0526	0.11
Mof_N 	N 	0.1401	0.5234	0.4073	-0.271
Mof_N 	N 	0.9661	0.7164	0.2101	-0.263
Mof_C 	C 	0.1058	0.579	0.3508	-0.132
Mof_H 	H 	0.0977	0.6031	0.383	0.1
Mof_C 	C 	0.1296	0.5078	0.2654	0.072
Mof_H 	H 	0.1375	0.4834	0.2371	-0.001
Mof_C 	C 	0.1284	0.5587	0.4468	0.081
Mof_H 	H 	0.1358	0.5701	0.5427	-0.012
Mof_N 	N 	0.0532	0.6118	0.1552	-0.132
Mof_N 	N 	0.0674	0.566	0.9496	-0.137
Mof_C 	C 	0.0707	0.5812	0.095	0.066
Mof_C 	C 	0.0087	0.6584	0.1071	0.033
Mof_C 	C 	0.9683	0.7078	0.0551	0.008
Mof_H 	H 	0.9554	0.7218	0.9818	0.021
Mof_C 	C 	0.0078	0.6683	0.2687	-0.124
Mof_H 	H 	0.0217	0.6561	0.3436	0.097
Mof_N 	N 	0.0231	0.5327	0.3976	-0.267
Mof_C 	C 	0.108	0.5261	0.1615	-0.137
Mof_H 	H 	0.1018	0.5146	0.0642	0.09
Mof_C 	C 	0.9855	0.697	0.3155	0.075
Mof_H 	H 	0.984	0.7031	0.4249	-0.013
Mof_C 	C 	0.0954	0.5625	0.205	0.063
Mof_N 	N 	0.0246	0.6122	0.9022	-0.127
Mof_C 	C 	0.0439	0.5823	0.8585	0.093
Mof_C 	C 	0.9895	0.6782	0.9954	-0.064
Mof_H 	H 	0.9903	0.6722	0.8857	0.068
Mof_C 	C 	0.0525	0.531	0.648	-0.136
Mof_H 	H 	0.0677	0.5182	0.715	0.081
Mof_C 	C 	0.0305	0.6259	0.0486	0.086
Mof_C 	C 	0.0376	0.5656	0.6985	0.055
Mof_C 	C 	0.0157	0.5834	0.5888	-0.114
Mof_H 	H 	0.0052	0.6066	0.6164	0.087
Mof_C 	C 	0.0446	0.5161	0.4977	0.082
Mof_H 	H 	0.055	0.4932	0.4654	-0.019
Mof_C 	C 	0.0096	0.5668	0.4399	0.052
Mof_H 	H 	0.9957	0.5796	0.3667	0.007
Mof_I 	I 	0.0461	0.4455	0.1067	-0.47
Mof_I 	I 	0.18799	0.9308	0.89553	-0.355
Mof_I 	I 	0.17224	0.99774	0.3397	-0.381
Mof_Zn	Zn	0.17862	0.99589	0.0351	1.159
Mof_I 	I 	0.03767	0.95721	0.5526	0.107
Mof_N 	N 	0.1401	0.0234	0.9073	-0.273
Mof_N 	N 	0.9661	0.2164	0.7101	-0.277
Mof_C 	C 	0.1058	0.079	0.8508	-0.146
Mof_H 	H 	0.0977	0.1031	0.883	0.109
Mof_C 	C 	0.1296	0.0078	0.7654	0.054
Mof_H 	H 	0.1375	0.9834	0.7371	0.013
Mof_C 	C 	0.1284	0.0587	0.9468	0.116
Mof_H 	H 	0.1358	0.0701	0.0427	-0.037
Mof_N 	N 	0.0532	0.1118	0.6552	-0.132
Mof_N 	N 	0.0674	0.066	0.4496	-0.147
Mof_C 	C 	0.0707	0.0812	0.595	0.078
Mof_C 	C 	0.0087	0.1584	0.6071	0.076
Mof_C 	C 	0.9683	0.2078	0.5551	0.08
Mof_H 	H 	0.9554	0.2218	0.4818	-0.014
Mof_C 	C 	0.0078	0.1683	0.7687	-0.152
Mof_H 	H 	0.0217	0.1561	0.8436	0.11
Mof_N 	N 	0.0231	0.0327	0.8976	-0.276
Mof_C 	C 	0.108	0.0261	0.6615	-0.129
Mof_H 	H 	0.1018	0.0146	0.5642	0.088
Mof_C 	C 	0.9855	0.197	0.8155	0.095
Mof_H 	H 	0.984	0.2031	0.9249	-0.014
Mof_C 	C 	0.0954	0.0625	0.705	0.064
Mof_N 	N 	0.0246	0.1122	0.4022	-0.133
Mof_C 	C 	0.0439	0.0823	0.3585	0.082
Mof_C 	C 	0.9895	0.1782	0.4954	-0.141
Mof_H 	H 	0.9903	0.1722	0.3857	0.091
Mof_C 	C 	0.0525	0.031	0.148	-0.171
Mof_H 	H 	0.0677	0.0182	0.215	0.085
Mof_C 	C 	0.0305	0.1259	0.5486	0.088
Mof_C 	C 	0.0376	0.0656	0.1985	0.074
Mof_C 	C 	0.0157	0.0834	0.0888	-0.157
Mof_H 	H 	0.0052	0.1066	0.1164	0.097
Mof_C 	C 	0.0446	0.0161	0.9977	0.099
Mof_H 	H 	0.055	0.9932	0.9654	-0.016
Mof_C 	C 	0.0096	0.0668	0.9399	0.088
Mof_H 	H 	0.9957	0.0796	0.8667	-0.003
Mof_I 	I 	0.0461	0.9455	0.6067	-0.45
Mof_I 	I 	0.68799	0.4308	0.89553	-0.358
Mof_I 	I 	0.67224	0.49774	0.3397	-0.391
Mof_Zn	Zn	0.67862	0.49589	0.0351	1.156
Mof_I 	I 	0.53767	0.45721	0.5526	0.109
Mof_N 	N 	0.6401	0.5234	0.9073	-0.275
Mof_N 	N 	0.4661	0.7164	0.7101	-0.277
Mof_C 	C 	0.6058	0.579	0.8508	-0.151
Mof_H 	H 	0.5977	0.6031	0.883	0.111
Mof_C 	C 	0.6296	0.5078	0.7654	0.077
Mof_H 	H 	0.6375	0.4834	0.7371	-0
Mof_C 	C 	0.6284	0.5587	0.9468	0.119
Mof_H 	H 	0.6358	0.5701	0.0427	-0.037
Mof_N 	N 	0.5532	0.6118	0.6552	-0.132
Mof_N 	N 	0.5674	0.566	0.4496	-0.146
Mof_C 	C 	0.5707	0.5812	0.595	0.077
Mof_C 	C 	0.5087	0.6584	0.6071	0.08
Mof_C 	C 	0.4683	0.7078	0.5551	0.082
Mof_H 	H 	0.4554	0.7218	0.4818	-0.015
Mof_C 	C 	0.5078	0.6683	0.7687	-0.145
Mof_H 	H 	0.5217	0.6561	0.8436	0.109
Mof_N 	N 	0.5231	0.5327	0.8976	-0.281
Mof_C 	C 	0.608	0.5261	0.6615	-0.141
Mof_H 	H 	0.6018	0.5146	0.5642	0.095
Mof_C 	C 	0.4855	0.697	0.8155	0.087
Mof_H 	H 	0.484	0.7031	0.9249	-0.013
Mof_C 	C 	0.5954	0.5625	0.705	0.07
Mof_N 	N 	0.5246	0.6122	0.4022	-0.131
Mof_C 	C 	0.5439	0.5823	0.3585	0.08
Mof_C 	C 	0.4895	0.6782	0.4954	-0.148
Mof_H 	H 	0.4903	0.6722	0.3857	0.091
Mof_C 	C 	0.5525	0.531	0.148	-0.186
Mof_H 	H 	0.5677	0.5182	0.215	0.093
Mof_C 	C 	0.5305	0.6259	0.5486	0.088
Mof_C 	C 	0.5376	0.5656	0.1985	0.084
Mof_C 	C 	0.5157	0.5834	0.0888	-0.168
Mof_H 	H 	0.5052	0.6066	0.1164	0.102
Mof_C 	C 	0.5446	0.5161	0.9977	0.124
Mof_H 	H 	0.555	0.4932	0.9654	-0.03
Mof_C 	C 	0.5096	0.5668	0.9399	0.104
Mof_H 	H 	0.4957	0.5796	0.8667	-0.013
Mof_I 	I 	0.5461	0.4455	0.6067	-0.457
Mof_I 	I 	0.68799	0.9308	0.39553	-0.371
Mof_I 	I 	0.67224	0.99774	0.8397	-0.362
Mof_Zn	Zn	0.67862	0.99589	0.5351	1.165
Mof_I 	I 	0.53767	0.95721	0.0526	0.105
Mof_N 	N 	0.6401	0.0234	0.4073	-0.269
Mof_N 	N 	0.4661	0.2164	0.2101	-0.263
Mof_C 	C 	0.6058	0.079	0.3508	-0.128
Mof_H 	H 	0.5977	0.1031	0.383	0.099
Mof_C 	C 	0.6296	0.0078	0.2654	0.049
Mof_H 	H 	0.6375	0.9834	0.2371	0.012
Mof_C 	C 	0.6284	0.0587	0.4468	0.078
Mof_H 	H 	0.6358	0.0701	0.5427	-0.012
Mof_N 	N 	0.5532	0.1118	0.1552	-0.132
Mof_N 	N 	0.5674	0.066	0.9496	-0.138
Mof_C 	C 	0.5707	0.0812	0.095	0.067
Mof_C 	C 	0.5087	0.1584	0.1071	0.037
Mof_C 	C 	0.4683	0.2078	0.0551	0.009
Mof_H 	H 	0.4554	0.2218	0.9818	0.021
Mof_C 	C 	0.5078	0.1683	0.2687	-0.117
Mof_H 	H 	0.5217	0.1561	0.3436	0.096
Mof_N 	N 	0.5231	0.0327	0.3976	-0.266
Mof_C 	C 	0.608	0.0261	0.1615	-0.125
Mof_H 	H 	0.6018	0.0146	0.0642	0.083
Mof_C 	C 	0.4855	0.197	0.3155	0.067
Mof_H 	H 	0.484	0.2031	0.4249	-0.011
Mof_C 	C 	0.5954	0.0625	0.205	0.056
Mof_N 	N 	0.5246	0.1122	0.9022	-0.126
Mof_C 	C 	0.5439	0.0823	0.8585	0.094
Mof_C 	C 	0.4895	0.1782	0.9954	-0.07
Mof_H 	H 	0.4903	0.1722	0.8857	0.068
Mof_C 	C 	0.5525	0.031	0.648	-0.126
Mof_H 	H 	0.5677	0.0182	0.715	0.076
Mof_C 	C 	0.5305	0.1259	0.0486	0.086
Mof_C 	C 	0.5376	0.0656	0.6985	0.052
Mof_C 	C 	0.5157	0.0834	0.5888	-0.117
Mof_H 	H 	0.5052	0.1066	0.6164	0.09
Mof_C 	C 	0.5446	0.0161	0.4977	0.061
Mof_H 	H 	0.555	0.9932	0.4654	-0.005
Mof_C 	C 	0.5096	0.0668	0.4399	0.062
Mof_H 	H 	0.4957	0.0796	0.3667	-0
Mof_I 	I 	0.5461	0.9455	0.1067	-0.456
Mof_Zn	Zn	0.25	0.25	0.9631	1.148
Mof_Zn	Zn	0.25	0.75	0.4631	1.145
Mof_Zn	Zn	0.75	0.75	0.9631	1.148
Mof_Zn	Zn	0.75	0.25	0.4631	1.145
Mof_Zn	Zn	0.5	5.57068e-34	0.2131	1.142
Mof_Zn	Zn	0.5	0.5	0.7131	1.145
Mof_Zn	Zn	-3.73326e-33	0.5	0.2131	1.143
Mof_Zn	Zn	5.56221e-34	0	0.7131	1.141
_end
