data_functionalizedCrystal
_audit_creation_method	'EQeq! by Chris Wilmer'
_symmetry_space_group_name_H-M	'P1'
_symmetry_Int_Tables_number	1
_symmetry_cell_setting	triclinic
loop_
_symmetry_equiv_pos_as_xyz
  x,y,z
_cell_length_a	6.6676
_cell_length_b	17.1107
_cell_length_c	17.8062
_cell_angle_alpha	74.836
_cell_angle_beta	79.209
_cell_angle_gamma	78.7648
loop_
_atom_site_label
_atom_site_type_symbol
_atom_site_fract_x
_atom_site_fract_y
_atom_site_fract_z
_atom_site_charge
Mof_Cu	Cu	0.557	0.85217	0.35313	0.888
Mof_Cu	Cu	0.51433	0.81693	0.18043	0.886
Mof_Cu	Cu	0.7623	0.64783	0.14687	0.888
Mof_Cu	Cu	0.51169	0.68307	0.31957	0.886
Mof_Cu	Cu	0.443	0.14783	0.64687	0.887
Mof_Cu	Cu	0.48567	0.18307	0.81957	0.885
Mof_Cu	Cu	0.2377	0.35217	0.85313	0.887
Mof_Cu	Cu	0.48831	0.31693	0.68043	0.885
Mof_H 	H 	0.4821	0.064	0.0578	0.041
Mof_H 	H 	0.3547	0.2929	0.0905	0.043
Mof_H 	H 	0.4329	0.104	0.274	0.042
Mof_H 	H 	0.8958	0.9509	0.3135	-0.006
Mof_H 	H 	0.0766	0.014	0.3688	0.09
Mof_H 	H 	0.7675	0.9245	0.5783	0.093
Mof_H 	H 	0.5864	0.8671	0.5177	0.021
Mof_H 	H 	0.6039	0.436	0.4422	0.041
Mof_H 	H 	0.7381	0.2071	0.4095	0.043
Mof_H 	H 	0.8109	0.396	0.226	0.042
Mof_H 	H 	0.1602	0.5491	0.1865	-0.005
Mof_H 	H 	0.4594	0.486	0.1312	0.089
Mof_H 	H 	0.2703	0.5755	0.9217	0.093
Mof_H 	H 	0.9712	0.6329	0.9823	0.021
Mof_H 	H 	0.5179	0.936	0.9422	0.041
Mof_H 	H 	0.6453	0.7071	0.9095	0.043
Mof_H 	H 	0.5671	0.896	0.726	0.042
Mof_H 	H 	0.1042	0.0491	0.6865	-0.006
Mof_H 	H 	0.9234	0.986	0.6312	0.09
Mof_H 	H 	0.2325	0.0755	0.4217	0.093
Mof_H 	H 	0.4136	0.1329	0.4823	0.021
Mof_H 	H 	0.3961	0.564	0.5578	0.041
Mof_H 	H 	0.2619	0.7929	0.5905	0.043
Mof_H 	H 	0.1891	0.604	0.774	0.042
Mof_H 	H 	0.8398	0.4509	0.8135	-0.005
Mof_H 	H 	0.5406	0.514	0.8688	0.089
Mof_H 	H 	0.7297	0.4245	0.0783	0.093
Mof_H 	H 	0.0288	0.3671	0.0177	0.021
Mof_C 	C 	0.465	0.0696	0.1718	-0.122
Mof_C 	C 	0.4576	0.0998	0.091	0.061
Mof_C 	C 	0.4132	0.1837	0.0611	-0.122
Mof_C 	C 	0.3803	0.2368	0.111	0.061
Mof_C 	C 	0.3851	0.2071	0.1899	-0.089
Mof_C 	C 	0.4282	0.124	0.2204	0.063
Mof_C 	C 	0.5087	0.9784	0.2042	0.386
Mof_C 	C 	0.4021	0.2156	0.9754	0.373
Mof_C 	C 	0.3354	0.2678	0.2418	0.31
Mof_C 	C 	0.8677	0.9459	0.3675	0.081
Mof_C 	C 	0.977	0.984	0.4006	-0.134
Mof_C 	C 	0.9428	0.9792	0.481	0.062
Mof_C 	C 	0.7946	0.9319	0.5239	-0.133
Mof_C 	C 	0.6882	0.8965	0.4869	0.084
Mof_C 	C 	0.7064	0.4304	0.3282	-0.122
Mof_C 	C 	0.6484	0.4002	0.409	0.062
Mof_C 	C 	0.658	0.3163	0.4389	-0.122
Mof_C 	C 	0.7281	0.2632	0.389	0.061
Mof_C 	C 	0.7821	0.2929	0.3101	-0.089
Mof_C 	C 	0.7726	0.376	0.2796	0.064
Mof_C 	C 	0.6913	0.5216	0.2958	0.386
Mof_C 	C 	0.5931	0.2844	0.5246	0.374
Mof_C 	C 	0.845	0.2322	0.2582	0.31
Mof_C 	C 	0.1811	0.5541	0.1325	0.081
Mof_C 	C 	0.3616	0.516	0.0994	-0.133
Mof_C 	C 	0.403	0.5208	0.019	0.062
Mof_C 	C 	0.2504	0.5681	0.9761	-0.134
Mof_C 	C 	0.0716	0.6035	0.0131	0.085
Mof_C 	C 	0.535	0.9304	0.8282	-0.122
Mof_C 	C 	0.5424	0.9002	0.909	0.061
Mof_C 	C 	0.5868	0.8163	0.9389	-0.122
Mof_C 	C 	0.6197	0.7632	0.889	0.061
Mof_C 	C 	0.6149	0.7929	0.8101	-0.089
Mof_C 	C 	0.5718	0.876	0.7796	0.063
Mof_C 	C 	0.4913	0.0216	0.7958	0.386
Mof_C 	C 	0.5979	0.7844	0.0246	0.373
Mof_C 	C 	0.6646	0.7322	0.7582	0.31
Mof_C 	C 	0.1323	0.0541	0.6325	0.081
Mof_C 	C 	0.023	0.016	0.5994	-0.134
Mof_C 	C 	0.0572	0.0208	0.519	0.062
Mof_C 	C 	0.2054	0.0681	0.4761	-0.133
Mof_C 	C 	0.3118	0.1035	0.5131	0.084
Mof_C 	C 	0.2936	0.5696	0.6718	-0.122
Mof_C 	C 	0.3516	0.5998	0.591	0.062
Mof_C 	C 	0.342	0.6837	0.5611	-0.122
Mof_C 	C 	0.2719	0.7368	0.611	0.061
Mof_C 	C 	0.2179	0.7071	0.6899	-0.089
Mof_C 	C 	0.2274	0.624	0.7204	0.064
Mof_C 	C 	0.3087	0.4784	0.7042	0.386
Mof_C 	C 	0.4069	0.7156	0.4754	0.374
Mof_C 	C 	0.155	0.7678	0.7418	0.31
Mof_C 	C 	0.8189	0.4459	0.8675	0.081
Mof_C 	C 	0.6384	0.484	0.9006	-0.133
Mof_C 	C 	0.597	0.4792	0.981	0.062
Mof_C 	C 	0.7496	0.4319	0.0239	-0.134
Mof_C 	C 	0.9284	0.3965	0.9869	0.085
Mof_N 	N 	0.7195	0.901	0.4094	-0.225
Mof_N 	N 	0.0299	0.599	0.0906	-0.225
Mof_N 	N 	0.2805	0.099	0.5906	-0.225
Mof_N 	N 	0.9701	0.401	0.9094	-0.225
Mof_O 	O 	0.5373	0.9562	0.2756	-0.432
Mof_O 	O 	0.50782	0.93296	0.1606	-0.435
Mof_O 	O 	0.46868	0.16664	0.9312	-0.426
Mof_O 	O 	0.31696	0.28868	0.9542	-0.428
Mof_O 	O 	0.3151	0.3407	0.2145	-0.242
Mof_O 	O 	0.3106	0.2329	0.3173	-0.221
Mof_O 	O 	0.4195	0.8024	0.2946	-0.571
Mof_O 	O 	0.7691	0.5438	0.2244	-0.432
Mof_O 	O 	0.60138	0.56704	0.3394	-0.435
Mof_O 	O 	0.56652	0.33336	0.5688	-0.426
Mof_O 	O 	0.55984	0.21132	0.5458	-0.428
Mof_O 	O 	0.8703	0.1593	0.2855	-0.242
Mof_O 	O 	0.8608	0.2671	0.1827	-0.221
Mof_O 	O 	0.5165	0.6976	0.2054	-0.571
Mof_O 	O 	0.4627	0.0438	0.7244	-0.432
Mof_O 	O 	0.49218	0.06704	0.8394	-0.435
Mof_O 	O 	0.53132	0.83336	0.0688	-0.426
Mof_O 	O 	0.68304	0.71132	0.0458	-0.428
Mof_O 	O 	0.6849	0.6593	0.7855	-0.242
Mof_O 	O 	0.6894	0.7671	0.6827	-0.221
Mof_O 	O 	0.5805	0.1976	0.7054	-0.571
Mof_O 	O 	0.2309	0.4562	0.7756	-0.432
Mof_O 	O 	0.39862	0.43296	0.6606	-0.435
Mof_O 	O 	0.43348	0.66664	0.4312	-0.426
Mof_O 	O 	0.44016	0.78868	0.4542	-0.428
Mof_O 	O 	0.1297	0.8407	0.7145	-0.242
Mof_O 	O 	0.1392	0.7329	0.8173	-0.221
Mof_O 	O 	0.4835	0.3024	0.7946	-0.571
_end
