data_functionalizedCrystal
_audit_creation_method	'EQeq! by Chris Wilmer'
_symmetry_space_group_name_H-M	'P1'
_symmetry_Int_Tables_number	1
_symmetry_cell_setting	triclinic
loop_
_symmetry_equiv_pos_as_xyz
  x,y,z
_cell_length_a	12.3919
_cell_length_b	12.3919
_cell_length_c	7.9043
_cell_angle_alpha	90
_cell_angle_beta	90
_cell_angle_gamma	90
loop_
_atom_site_label
_atom_site_type_symbol
_atom_site_fract_x
_atom_site_fract_y
_atom_site_fract_z
_atom_site_charge
Mof_Cu	Cu	0.51429	0.82313	0.80505	0.891
Mof_C 	C 	0.6637	0.6451	0.7227	0.206
Mof_C 	C 	0.6752	0.6185	0.9088	-0.35
Mof_H 	H 	0.7194	0.5543	0.9198	0.136
Mof_H 	H 	0.6044	0.6017	0.954	0.133
Mof_C 	C 	0.7251	0.7082	0.0155	0.143
Mof_H 	H 	0.7336	0.6848	0.1319	-0.01
Mof_H 	H 	0.7955	0.728	0.9714	0.007
Mof_C 	C 	0.6808	0.8839	0.127	0.2
Mof_H 	H 	0.7588	0.8891	0.1339	-0.024
Mof_H 	H 	0.6536	0.8652	0.2383	-0.013
Mof_C 	C 	0.6348	0.9902	0.0731	-0.408
Mof_H 	H 	0.6589	0.0458	0.1509	0.136
Mof_H 	H 	0.6621	0.0081	0.9616	0.158
Mof_C 	C 	0.5153	0.9897	0.0685	0.193
Mof_N 	N 	0.6001	0.7241	0.6669	-0.207
Mof_N 	N 	0.6073	0.7237	0.4965	-0.054
Mof_N 	N 	0.6737	0.6461	0.4526	-0.066
Mof_N 	N 	0.7083	0.5982	0.5946	-0.215
Mof_N 	N 	0.4548	0.9211	0.9768	-0.204
Mof_N 	N 	0.35	0.9454	0.0057	-0.061
Mof_N 	N 	0.3422	0.0231	0.1134	-0.058
Mof_N 	N 	0.4472	0.0524	0.1585	-0.213
Mof_O 	O 	0.651	0.8	0.0061	-0.324
Mof_Cu	Cu	0.48571	0.17687	0.30505	0.889
Mof_C 	C 	0.3363	0.3549	0.2227	0.211
Mof_C 	C 	0.3248	0.3815	0.4088	-0.376
Mof_H 	H 	0.2806	0.4457	0.4198	0.141
Mof_H 	H 	0.3956	0.3983	0.454	0.137
Mof_C 	C 	0.2749	0.2918	0.5155	0.18
Mof_H 	H 	0.2664	0.3152	0.6319	-0.019
Mof_H 	H 	0.2045	0.272	0.4714	-0.011
Mof_C 	C 	0.3192	0.1161	0.627	0.198
Mof_H 	H 	0.2412	0.1109	0.6339	-0.021
Mof_H 	H 	0.3464	0.1348	0.7383	-0.011
Mof_C 	C 	0.3652	0.0098	0.5731	-0.399
Mof_H 	H 	0.3411	0.9542	0.6509	0.138
Mof_H 	H 	0.3379	0.9919	0.4616	0.151
Mof_C 	C 	0.4847	0.0103	0.5685	0.197
Mof_N 	N 	0.3999	0.2759	0.1669	-0.213
Mof_N 	N 	0.3927	0.2763	0.9965	-0.049
Mof_N 	N 	0.3263	0.3539	0.9526	-0.061
Mof_N 	N 	0.2917	0.4018	0.0946	-0.221
Mof_N 	N 	0.5452	0.0789	0.4768	-0.212
Mof_N 	N 	0.65	0.0546	0.5057	-0.057
Mof_N 	N 	0.6578	0.9769	0.6134	-0.054
Mof_N 	N 	0.5528	0.9476	0.6585	-0.21
Mof_O 	O 	0.349	0.2	0.5061	-0.325
Mof_Cu	Cu	0.17687	0.51429	0.05505	0.886
Mof_C 	C 	0.3549	0.6637	0.9727	0.225
Mof_C 	C 	0.3815	0.6752	0.1588	-0.392
Mof_H 	H 	0.4457	0.7194	0.1698	0.144
Mof_H 	H 	0.3983	0.6044	0.204	0.141
Mof_C 	C 	0.2918	0.7251	0.2655	0.188
Mof_H 	H 	0.3152	0.7336	0.3819	-0.022
Mof_H 	H 	0.272	0.7955	0.2214	-0.014
Mof_C 	C 	0.1161	0.6808	0.377	0.196
Mof_H 	H 	0.1109	0.7588	0.3839	-0.022
Mof_H 	H 	0.1348	0.6536	0.4883	-0.012
Mof_C 	C 	0.0098	0.6348	0.3231	-0.393
Mof_H 	H 	0.9542	0.6589	0.4009	0.134
Mof_H 	H 	0.9919	0.6621	0.2116	0.146
Mof_C 	C 	0.0103	0.5153	0.3185	0.195
Mof_N 	N 	0.2759	0.6001	0.9169	-0.208
Mof_N 	N 	0.2763	0.6073	0.7465	-0.054
Mof_N 	N 	0.3539	0.6737	0.7026	-0.065
Mof_N 	N 	0.4018	0.7083	0.8446	-0.218
Mof_N 	N 	0.0789	0.4548	0.2268	-0.213
Mof_N 	N 	0.0546	0.35	0.2557	-0.058
Mof_N 	N 	0.9769	0.3422	0.3634	-0.056
Mof_N 	N 	0.9476	0.4472	0.4085	-0.211
Mof_O 	O 	0.2	0.651	0.2561	-0.327
Mof_Cu	Cu	0.82313	0.48571	0.55505	0.89
Mof_C 	C 	0.6451	0.3363	0.4727	0.212
Mof_C 	C 	0.6185	0.3248	0.6588	-0.375
Mof_H 	H 	0.5543	0.2806	0.6698	0.142
Mof_H 	H 	0.6017	0.3956	0.704	0.138
Mof_C 	C 	0.7082	0.2749	0.7655	0.179
Mof_H 	H 	0.6848	0.2664	0.8819	-0.017
Mof_H 	H 	0.728	0.2045	0.7214	-0.01
Mof_C 	C 	0.8839	0.3192	0.877	0.195
Mof_H 	H 	0.8891	0.2412	0.8839	-0.02
Mof_H 	H 	0.8652	0.3464	0.9883	-0.009
Mof_C 	C 	0.9902	0.3652	0.8231	-0.396
Mof_H 	H 	0.0458	0.3411	0.9009	0.138
Mof_H 	H 	0.0081	0.3379	0.7116	0.15
Mof_C 	C 	0.9897	0.4847	0.8185	0.197
Mof_N 	N 	0.7241	0.3999	0.4169	-0.21
Mof_N 	N 	0.7237	0.3927	0.2465	-0.056
Mof_N 	N 	0.6461	0.3263	0.2026	-0.068
Mof_N 	N 	0.5982	0.2917	0.3446	-0.217
Mof_N 	N 	0.9211	0.5452	0.7268	-0.212
Mof_N 	N 	0.9454	0.65	0.7557	-0.056
Mof_N 	N 	0.0231	0.6578	0.8634	-0.053
Mof_N 	N 	0.0524	0.5528	0.9085	-0.208
Mof_O 	O 	0.8	0.349	0.7561	-0.323
_end
