data_functionalizedCrystal
_audit_creation_method	'EQeq! by Chris Wilmer'
_symmetry_space_group_name_H-M	'P1'
_symmetry_Int_Tables_number	1
_symmetry_cell_setting	triclinic
loop_
_symmetry_equiv_pos_as_xyz
  x,y,z
_cell_length_a	16.2078
_cell_length_b	8.7082
_cell_length_c	20.8775
_cell_angle_alpha	90
_cell_angle_beta	94.748
_cell_angle_gamma	90
loop_
_atom_site_label
_atom_site_type_symbol
_atom_site_fract_x
_atom_site_fract_y
_atom_site_fract_z
_atom_site_charge
Mof_Dy	Dy	0.24272	0.22225	0.71269	2.15
Mof_O 	O 	0.1276	0.3581	0.6627	-0.492
Mof_O 	O 	0.3674	0.3226	0.7488	-0.592
Mof_O 	O 	0.1793	0.5396	0.8389	-0.566
Mof_O 	O 	0.1785	0.3015	0.801	-0.558
Mof_O 	O 	0.3621	0.5473	0.7994	-0.583
Mof_O 	O 	0.2129	0.5355	0.7054	-0.562
Mof_N 	N 	0.9852	0.9342	0.4995	-0.1
Mof_N 	N 	0.7557	0.458	0.8411	-0.1
Mof_N 	N 	0.7838	0.3609	0.8109	-0.098
Mof_C 	C 	0.1528	0.4948	0.6654	0.398
Mof_C 	C 	0.111	0.6104	0.6205	-0.181
Mof_C 	C 	0.1488	0.7509	0.6098	0.109
Mof_H 	H 	0.2008	0.7718	0.6301	-0.013
Mof_C 	C 	0.1103	0.859	0.5698	-0.184
Mof_H 	H 	0.1358	0.9528	0.5634	0.094
Mof_C 	C 	0.0322	0.8264	0.5387	0.155
Mof_C 	C 	0.9955	0.6824	0.5473	-0.182
Mof_H 	H 	0.9443	0.6598	0.5258	0.098
Mof_C 	C 	0.0349	0.5747	0.5872	0.097
Mof_H 	H 	0.011	0.4787	0.5921	0.009
Mof_C 	C 	0.3999	0.4339	0.7807	0.566
Mof_C 	C 	0.4922	0.426	0.7974	-0.251
Mof_C 	C 	0.5309	0.5388	0.8371	0.162
Mof_H 	H 	0.4992	0.6146	0.8546	-0.008
Mof_C 	C 	0.6165	0.5385	0.8506	-0.241
Mof_H 	H 	0.642	0.6121	0.8778	0.122
Mof_C 	C 	0.6618	0.4299	0.8238	0.19
Mof_C 	C 	0.6258	0.3125	0.786	-0.229
Mof_H 	H 	0.658	0.2356	0.7698	0.123
Mof_C 	C 	0.5386	0.3133	0.7729	0.161
Mof_H 	H 	0.513	0.2366	0.7474	-0.016
Mof_C 	C 	0.1433	0.4173	0.8222	0.544
Mof_C 	C 	0.0516	0.4073	0.8261	-0.26
Mof_C 	C 	0.0098	0.5181	0.8592	0.157
Mof_H 	H 	0.0386	0.5952	0.8824	-0.027
Mof_C 	C 	0.9214	0.51	0.8566	-0.235
Mof_H 	H 	0.8922	0.5835	0.8778	0.117
Mof_C 	C 	0.8797	0.3952	0.8233	0.197
Mof_C 	C 	0.9216	0.2886	0.7926	-0.255
Mof_H 	H 	0.8926	0.2099	0.7707	0.129
Mof_C 	C 	0.0079	0.2933	0.7929	0.183
Mof_H 	H 	0.0356	0.2193	0.7707	-0.028
Mof_Dy	Dy	0.25728	0.72225	0.78731	2.148
Mof_O 	O 	0.3724	0.8581	0.8373	-0.49
Mof_O 	O 	0.1326	0.8226	0.7512	-0.592
Mof_O 	O 	0.3207	0.0396	0.6611	-0.563
Mof_O 	O 	0.3215	0.8015	0.699	-0.558
Mof_O 	O 	0.1379	0.0473	0.7006	-0.58
Mof_O 	O 	0.2871	0.0355	0.7946	-0.558
Mof_N 	N 	0.5148	0.4342	0.0005	-0.102
Mof_N 	N 	0.7443	0.958	0.6589	-0.1
Mof_N 	N 	0.7162	0.8609	0.6891	-0.098
Mof_C 	C 	0.3472	0.9948	0.8346	0.392
Mof_C 	C 	0.389	0.1104	0.8795	-0.181
Mof_C 	C 	0.3512	0.2509	0.8902	0.111
Mof_H 	H 	0.2992	0.2718	0.8699	-0.013
Mof_C 	C 	0.3897	0.359	0.9302	-0.187
Mof_H 	H 	0.3642	0.4528	0.9366	0.096
Mof_C 	C 	0.4678	0.3264	0.9613	0.161
Mof_C 	C 	0.5045	0.1824	0.9527	-0.191
Mof_H 	H 	0.5557	0.1598	0.9742	0.101
Mof_C 	C 	0.4651	0.0747	0.9128	0.106
Mof_H 	H 	0.489	0.9787	0.9079	0.004
Mof_C 	C 	0.1001	0.9339	0.7193	0.562
Mof_C 	C 	0.0078	0.926	0.7026	-0.255
Mof_C 	C 	0.9691	0.0388	0.6629	0.162
Mof_H 	H 	0.0008	0.1146	0.6454	-0.006
Mof_C 	C 	0.8835	0.0385	0.6494	-0.242
Mof_H 	H 	0.858	0.1121	0.6222	0.122
Mof_C 	C 	0.8382	0.9299	0.6762	0.191
Mof_C 	C 	0.8742	0.8125	0.714	-0.232
Mof_H 	H 	0.842	0.7356	0.7302	0.124
Mof_C 	C 	0.9614	0.8133	0.7271	0.166
Mof_H 	H 	0.987	0.7366	0.7526	-0.018
Mof_C 	C 	0.3567	0.9173	0.6778	0.541
Mof_C 	C 	0.4484	0.9073	0.6739	-0.261
Mof_C 	C 	0.4902	0.0181	0.6408	0.159
Mof_H 	H 	0.4614	0.0952	0.6176	-0.027
Mof_C 	C 	0.5786	0.01	0.6434	-0.234
Mof_H 	H 	0.6078	0.0835	0.6222	0.117
Mof_C 	C 	0.6203	0.8952	0.6767	0.195
Mof_C 	C 	0.5784	0.7886	0.7074	-0.253
Mof_H 	H 	0.6074	0.7099	0.7293	0.129
Mof_C 	C 	0.4921	0.7933	0.7071	0.181
Mof_H 	H 	0.4644	0.7193	0.7293	-0.028
Mof_Dy	Dy	0.75728	0.77775	0.28731	2.151
Mof_O 	O 	0.8724	0.6419	0.3373	-0.491
Mof_O 	O 	0.6326	0.6774	0.2512	-0.592
Mof_O 	O 	0.8207	0.4604	0.1611	-0.566
Mof_O 	O 	0.8215	0.6985	0.199	-0.558
Mof_O 	O 	0.6379	0.4527	0.2006	-0.583
Mof_O 	O 	0.7871	0.4645	0.2946	-0.562
Mof_N 	N 	0.0148	0.0658	0.5005	-0.1
Mof_N 	N 	0.2443	0.542	0.1589	-0.1
Mof_N 	N 	0.2162	0.6391	0.1891	-0.098
Mof_C 	C 	0.8472	0.5052	0.3346	0.398
Mof_C 	C 	0.889	0.3896	0.3795	-0.181
Mof_C 	C 	0.8512	0.2491	0.3902	0.109
Mof_H 	H 	0.7992	0.2282	0.3699	-0.013
Mof_C 	C 	0.8897	0.141	0.4302	-0.184
Mof_H 	H 	0.8642	0.0472	0.4366	0.094
Mof_C 	C 	0.9678	0.1736	0.4613	0.155
Mof_C 	C 	0.0045	0.3176	0.4527	-0.182
Mof_H 	H 	0.0557	0.3402	0.4742	0.098
Mof_C 	C 	0.9651	0.4253	0.4128	0.097
Mof_H 	H 	0.989	0.5213	0.4079	0.009
Mof_C 	C 	0.6001	0.5661	0.2193	0.566
Mof_C 	C 	0.5078	0.574	0.2026	-0.251
Mof_C 	C 	0.4691	0.4612	0.1629	0.162
Mof_H 	H 	0.5008	0.3854	0.1454	-0.008
Mof_C 	C 	0.3835	0.4615	0.1494	-0.241
Mof_H 	H 	0.358	0.3879	0.1222	0.122
Mof_C 	C 	0.3382	0.5701	0.1762	0.19
Mof_C 	C 	0.3742	0.6875	0.214	-0.229
Mof_H 	H 	0.342	0.7644	0.2302	0.123
Mof_C 	C 	0.4614	0.6867	0.2271	0.161
Mof_H 	H 	0.487	0.7634	0.2526	-0.016
Mof_C 	C 	0.8567	0.5827	0.1778	0.544
Mof_C 	C 	0.9484	0.5927	0.1739	-0.26
Mof_C 	C 	0.9902	0.4819	0.1408	0.157
Mof_H 	H 	0.9614	0.4048	0.1176	-0.027
Mof_C 	C 	0.0786	0.49	0.1434	-0.235
Mof_H 	H 	0.1078	0.4165	0.1222	0.117
Mof_C 	C 	0.1203	0.6048	0.1767	0.197
Mof_C 	C 	0.0784	0.7114	0.2074	-0.255
Mof_H 	H 	0.1074	0.7901	0.2293	0.129
Mof_C 	C 	0.9921	0.7067	0.2071	0.183
Mof_H 	H 	0.9644	0.7807	0.2293	-0.028
Mof_Dy	Dy	0.74272	0.27775	0.21269	2.148
Mof_O 	O 	0.6276	0.1419	0.1627	-0.49
Mof_O 	O 	0.8674	0.1774	0.2488	-0.592
Mof_O 	O 	0.6793	0.9604	0.3389	-0.563
Mof_O 	O 	0.6785	0.1985	0.301	-0.558
Mof_O 	O 	0.8621	0.9527	0.2994	-0.58
Mof_O 	O 	0.7129	0.9645	0.2054	-0.558
Mof_N 	N 	0.4852	0.5658	0.9995	-0.102
Mof_N 	N 	0.2557	0.042	0.3411	-0.1
Mof_N 	N 	0.2838	0.1391	0.3109	-0.098
Mof_C 	C 	0.6528	0.0052	0.1654	0.392
Mof_C 	C 	0.611	0.8896	0.1205	-0.181
Mof_C 	C 	0.6488	0.7491	0.1098	0.111
Mof_H 	H 	0.7008	0.7282	0.1301	-0.013
Mof_C 	C 	0.6103	0.641	0.0698	-0.187
Mof_H 	H 	0.6358	0.5472	0.0634	0.096
Mof_C 	C 	0.5322	0.6736	0.0387	0.161
Mof_C 	C 	0.4955	0.8176	0.0473	-0.191
Mof_H 	H 	0.4443	0.8402	0.0258	0.101
Mof_C 	C 	0.5349	0.9253	0.0872	0.106
Mof_H 	H 	0.511	0.0213	0.0921	0.004
Mof_C 	C 	0.8999	0.0661	0.2807	0.562
Mof_C 	C 	0.9922	0.074	0.2974	-0.255
Mof_C 	C 	0.0309	0.9612	0.3371	0.162
Mof_H 	H 	0.9992	0.8854	0.3546	-0.006
Mof_C 	C 	0.1165	0.9615	0.3506	-0.242
Mof_H 	H 	0.142	0.8879	0.3778	0.122
Mof_C 	C 	0.1618	0.0701	0.3238	0.191
Mof_C 	C 	0.1258	0.1875	0.286	-0.232
Mof_H 	H 	0.158	0.2644	0.2698	0.124
Mof_C 	C 	0.0386	0.1867	0.2729	0.166
Mof_H 	H 	0.013	0.2634	0.2474	-0.018
Mof_C 	C 	0.6433	0.0827	0.3222	0.541
Mof_C 	C 	0.5516	0.0927	0.3261	-0.261
Mof_C 	C 	0.5098	0.9819	0.3592	0.159
Mof_H 	H 	0.5386	0.9048	0.3824	-0.027
Mof_C 	C 	0.4214	0.99	0.3566	-0.234
Mof_H 	H 	0.3922	0.9165	0.3778	0.117
Mof_C 	C 	0.3797	0.1048	0.3233	0.195
Mof_C 	C 	0.4216	0.2114	0.2926	-0.253
Mof_H 	H 	0.3926	0.2901	0.2707	0.129
Mof_C 	C 	0.5079	0.2067	0.2929	0.181
Mof_H 	H 	0.5356	0.2807	0.2707	-0.028
_end
