data_functionalizedCrystal
_audit_creation_method	'EQeq! by Chris Wilmer'
_symmetry_space_group_name_H-M	'P1'
_symmetry_Int_Tables_number	1
_symmetry_cell_setting	triclinic
loop_
_symmetry_equiv_pos_as_xyz
  x,y,z
_cell_length_a	13.707
_cell_length_b	27.449
_cell_length_c	45.248
_cell_angle_alpha	90
_cell_angle_beta	90
_cell_angle_gamma	90
loop_
_atom_site_label
_atom_site_type_symbol
_atom_site_fract_x
_atom_site_fract_y
_atom_site_fract_z
_atom_site_charge
Mof_Zn	Zn	0.34517	0.25636	0.81469	1.167
Mof_Zn	Zn	0.13577	0.47171	0.91583	1.166
Mof_Zn	Zn	0.33709	0.4461	0.07703	1.165
Mof_Zn	Zn	0.65483	0.24364	0.31469	1.167
Mof_Zn	Zn	0.86423	0.02829	0.41583	1.166
Mof_Zn	Zn	0.66291	0.0539	0.57703	1.165
Mof_Zn	Zn	0.84517	0.74364	0.68531	1.167
Mof_Zn	Zn	0.63577	0.52829	0.58417	1.166
Mof_Zn	Zn	0.83709	0.5539	0.42297	1.165
Mof_Zn	Zn	0.15483	0.75636	0.18531	1.167
Mof_Zn	Zn	0.36423	0.97171	0.08417	1.166
Mof_Zn	Zn	0.16291	0.9461	0.92297	1.165
Mof_H 	H 	0.9853	0.4125	0.884	-0.004
Mof_H 	H 	0.831	0.382	0.8907	0.095
Mof_H 	H 	0.9892	0.4646	0.9653	-0.004
Mof_H 	H 	0.8332	0.4362	0.9737	0.089
Mof_H 	H 	0.5355	0.4607	0.0522	-0.015
Mof_H 	H 	0.6267	0.4405	0.0105	0.092
Mof_H 	H 	0.2994	0.4064	0.016	-0.007
Mof_H 	H 	0.3836	0.3841	0.9739	0.079
Mof_H 	H 	0.3086	0.3105	0.8692	-0.015
Mof_H 	H 	0.3882	0.3441	0.9085	0.089
Mof_H 	H 	0.5554	0.2849	0.8289	-0.017
Mof_H 	H 	0.6405	0.3242	0.8659	0.088
Mof_H 	H 	0.4617	0.1984	0.7712	-0.002
Mof_H 	H 	0.5217	0.2061	0.7236	0.083
Mof_H 	H 	0.4027	0.3378	0.7749	-0.014
Mof_H 	H 	0.4659	0.3503	0.7285	0.082
Mof_H 	H 	0.5786	0.4917	0.6444	-0.012
Mof_H 	H 	0.5536	0.4201	0.6697	0.083
Mof_H 	H 	0.6235	0.4225	0.5703	-0.011
Mof_H 	H 	0.6006	0.3483	0.5931	0.082
Mof_H 	H 	0.6543	0.161	0.5662	-0.017
Mof_H 	H 	0.6264	0.2327	0.5908	0.08
Mof_H 	H 	0.576	0.0839	0.6356	-0.007
Mof_H 	H 	0.5451	0.1539	0.6626	0.078
Mof_H 	H 	0.0147	0.0875	0.384	-0.005
Mof_H 	H 	0.169	0.118	0.3907	0.094
Mof_H 	H 	0.0108	0.0354	0.4653	-0.004
Mof_H 	H 	0.1668	0.0638	0.4737	0.089
Mof_H 	H 	0.4645	0.0393	0.5522	-0.015
Mof_H 	H 	0.3733	0.0595	0.5105	0.092
Mof_H 	H 	0.7006	0.0936	0.516	-0.007
Mof_H 	H 	0.6164	0.1159	0.4739	0.079
Mof_H 	H 	0.6914	0.1895	0.3692	-0.015
Mof_H 	H 	0.6118	0.1559	0.4085	0.089
Mof_H 	H 	0.4446	0.2151	0.3289	-0.017
Mof_H 	H 	0.3595	0.1758	0.3659	0.088
Mof_H 	H 	0.5383	0.3016	0.2712	-0.002
Mof_H 	H 	0.4783	0.2939	0.2236	0.083
Mof_H 	H 	0.5973	0.1622	0.2749	-0.014
Mof_H 	H 	0.5341	0.1497	0.2285	0.082
Mof_H 	H 	0.4214	0.0083	0.1444	-0.012
Mof_H 	H 	0.4464	0.0799	0.1697	0.083
Mof_H 	H 	0.3765	0.0775	0.0703	-0.011
Mof_H 	H 	0.3994	0.1517	0.0931	0.083
Mof_H 	H 	0.3457	0.339	0.0662	-0.017
Mof_H 	H 	0.3736	0.2673	0.0908	0.08
Mof_H 	H 	0.424	0.4161	0.1356	-0.007
Mof_H 	H 	0.4549	0.3461	0.1626	0.078
Mof_H 	H 	0.4853	0.5875	0.616	-0.005
Mof_H 	H 	0.331	0.618	0.6093	0.094
Mof_H 	H 	0.4892	0.5354	0.5347	-0.004
Mof_H 	H 	0.3332	0.5638	0.5263	0.089
Mof_H 	H 	0.0355	0.5393	0.4478	-0.015
Mof_H 	H 	0.1267	0.5595	0.4895	0.092
Mof_H 	H 	0.7994	0.5936	0.484	-0.007
Mof_H 	H 	0.8836	0.6159	0.5261	0.079
Mof_H 	H 	0.8086	0.6895	0.6308	-0.014
Mof_H 	H 	0.8882	0.6559	0.5915	0.088
Mof_H 	H 	0.0554	0.7151	0.6711	-0.017
Mof_H 	H 	0.1405	0.6758	0.6341	0.088
Mof_H 	H 	0.9617	0.8016	0.7288	-0.001
Mof_H 	H 	0.0217	0.7939	0.7764	0.082
Mof_H 	H 	0.9027	0.6622	0.7251	-0.014
Mof_H 	H 	0.9659	0.6497	0.7715	0.082
Mof_H 	H 	0.0786	0.5083	0.8556	-0.012
Mof_H 	H 	0.0536	0.5799	0.8303	0.082
Mof_H 	H 	0.1235	0.5775	0.9297	-0.011
Mof_H 	H 	0.1006	0.6517	0.9069	0.082
Mof_H 	H 	0.1543	0.839	0.9338	-0.017
Mof_H 	H 	0.1264	0.7673	0.9092	0.08
Mof_H 	H 	0.076	0.9161	0.8644	-0.007
Mof_H 	H 	0.0451	0.8461	0.8374	0.078
Mof_H 	H 	0.5147	0.9125	0.116	-0.005
Mof_H 	H 	0.669	0.882	0.1093	0.094
Mof_H 	H 	0.5108	0.9646	0.0347	-0.004
Mof_H 	H 	0.6668	0.9362	0.0263	0.089
Mof_H 	H 	0.9645	0.9607	0.9478	-0.015
Mof_H 	H 	0.8733	0.9405	0.9895	0.092
Mof_H 	H 	0.2006	0.9064	0.984	-0.007
Mof_H 	H 	0.1164	0.8841	0.0261	0.079
Mof_H 	H 	0.1914	0.8105	0.1308	-0.015
Mof_H 	H 	0.1118	0.8441	0.0915	0.089
Mof_H 	H 	0.9446	0.7849	0.1711	-0.017
Mof_H 	H 	0.8595	0.8242	0.1341	0.088
Mof_H 	H 	0.0383	0.6984	0.2288	-0.002
Mof_H 	H 	0.9783	0.7061	0.2764	0.083
Mof_H 	H 	0.0973	0.8378	0.2251	-0.014
Mof_H 	H 	0.0341	0.8503	0.2715	0.082
Mof_H 	H 	0.9214	0.9917	0.3556	-0.012
Mof_H 	H 	0.9464	0.9201	0.3303	0.083
Mof_H 	H 	0.8765	0.9225	0.4297	-0.011
Mof_H 	H 	0.8994	0.8483	0.4069	0.083
Mof_H 	H 	0.8457	0.661	0.4338	-0.017
Mof_H 	H 	0.8736	0.7327	0.4092	0.08
Mof_H 	H 	0.924	0.5839	0.3644	-0.007
Mof_H 	H 	0.9549	0.6539	0.3374	0.078
Mof_C 	C 	0.9539	0.4174	0.90253	0.068
Mof_C 	C 	0.8622	0.3992	0.90628	-0.124
Mof_C 	C 	0.9561	0.4479	0.94988	0.071
Mof_C 	C 	0.8635	0.4309	0.95509	-0.128
Mof_C 	C 	0.8147	0.4061	0.93317	0.052
Mof_C 	C 	0.7125	0.3908	0.93623	0.097
Mof_C 	C 	0.5043	0.4448	0.03608	0.076
Mof_C 	C 	0.5594	0.4324	0.01141	-0.128
Mof_C 	C 	0.3673	0.4131	0.01495	0.072
Mof_C 	C 	0.4167	0.3994	0.98986	-0.12
Mof_C 	C 	0.5156	0.4085	0.98842	0.057
Mof_C 	C 	0.5715	0.3938	0.96174	0.101
Mof_C 	C 	0.3779	0.3117	0.86883	0.087
Mof_C 	C 	0.4244	0.3323	0.8921	-0.132
Mof_C 	C 	0.5205	0.2977	0.84531	0.087
Mof_C 	C 	0.5719	0.32	0.86747	-0.137
Mof_C 	C 	0.5232	0.3361	0.89183	0.076
Mof_C 	C 	0.5753	0.3585	0.91707	0.101
Mof_C 	C 	0.4606	0.2295	0.76193	0.069
Mof_C 	C 	0.4973	0.2338	0.73378	-0.119
Mof_C 	C 	0.4271	0.3106	0.76417	0.076
Mof_C 	C 	0.4638	0.3183	0.7366	-0.124
Mof_C 	C 	0.498	0.279	0.72055	0.055
Mof_C 	C 	0.5288	0.2833	0.68916	0.104
Mof_C 	C 	0.5838	0.4618	0.63393	0.079
Mof_C 	C 	0.5686	0.4193	0.64921	-0.123
Mof_C 	C 	0.61	0.4218	0.59086	0.077
Mof_C 	C 	0.5961	0.3775	0.6043	-0.118
Mof_C 	C 	0.5755	0.3755	0.63433	0.057
Mof_C 	C 	0.5637	0.3281	0.64908	0.101
Mof_C 	C 	0.6324	0.1598	0.58616	0.075
Mof_C 	C 	0.6158	0.2025	0.6005	-0.121
Mof_C 	C 	0.5867	0.1147	0.62666	0.06
Mof_C 	C 	0.5679	0.1561	0.64279	-0.112
Mof_C 	C 	0.5832	0.2015	0.62954	0.05
Mof_C 	C 	0.5658	0.2466	0.64684	0.107
Mof_C 	C 	0.0461	0.0826	0.40253	0.069
Mof_C 	C 	0.1378	0.1008	0.40628	-0.125
Mof_C 	C 	0.0439	0.0521	0.44988	0.072
Mof_C 	C 	0.1365	0.0691	0.45509	-0.129
Mof_C 	C 	0.1853	0.0939	0.43317	0.052
Mof_C 	C 	0.2875	0.1092	0.43623	0.097
Mof_C 	C 	0.4957	0.0552	0.53608	0.076
Mof_C 	C 	0.4406	0.0676	0.51141	-0.128
Mof_C 	C 	0.6327	0.0869	0.51495	0.072
Mof_C 	C 	0.5833	0.1006	0.48986	-0.12
Mof_C 	C 	0.4844	0.0915	0.48842	0.057
Mof_C 	C 	0.4285	0.1062	0.46174	0.101
Mof_C 	C 	0.6221	0.1883	0.36883	0.087
Mof_C 	C 	0.5756	0.1677	0.3921	-0.132
Mof_C 	C 	0.4795	0.2023	0.34531	0.087
Mof_C 	C 	0.4281	0.18	0.36747	-0.137
Mof_C 	C 	0.4768	0.1639	0.39183	0.076
Mof_C 	C 	0.4247	0.1415	0.41707	0.101
Mof_C 	C 	0.5394	0.2705	0.26193	0.069
Mof_C 	C 	0.5027	0.2662	0.23378	-0.119
Mof_C 	C 	0.5729	0.1894	0.26417	0.076
Mof_C 	C 	0.5362	0.1817	0.2366	-0.124
Mof_C 	C 	0.502	0.221	0.22055	0.055
Mof_C 	C 	0.4712	0.2167	0.18916	0.104
Mof_C 	C 	0.4162	0.0382	0.13393	0.079
Mof_C 	C 	0.4314	0.0807	0.14921	-0.123
Mof_C 	C 	0.39	0.0782	0.09086	0.077
Mof_C 	C 	0.4039	0.1225	0.1043	-0.118
Mof_C 	C 	0.4245	0.1245	0.13433	0.057
Mof_C 	C 	0.4363	0.1719	0.14908	0.101
Mof_C 	C 	0.3676	0.3402	0.08616	0.075
Mof_C 	C 	0.3842	0.2975	0.1005	-0.121
Mof_C 	C 	0.4133	0.3853	0.12666	0.06
Mof_C 	C 	0.4321	0.3439	0.14279	-0.112
Mof_C 	C 	0.4168	0.2985	0.12954	0.05
Mof_C 	C 	0.4342	0.2534	0.14684	0.107
Mof_C 	C 	0.4539	0.5826	0.59747	0.068
Mof_C 	C 	0.3622	0.6008	0.59372	-0.124
Mof_C 	C 	0.4561	0.5521	0.55012	0.071
Mof_C 	C 	0.3635	0.5691	0.54491	-0.128
Mof_C 	C 	0.3147	0.5939	0.56683	0.052
Mof_C 	C 	0.2125	0.6092	0.56377	0.097
Mof_C 	C 	0.0043	0.5552	0.46392	0.076
Mof_C 	C 	0.0594	0.5676	0.48859	-0.128
Mof_C 	C 	0.8673	0.5869	0.48505	0.072
Mof_C 	C 	0.9167	0.6006	0.51014	-0.119
Mof_C 	C 	0.0156	0.5915	0.51158	0.057
Mof_C 	C 	0.0715	0.6062	0.53826	0.101
Mof_C 	C 	0.8779	0.6883	0.63117	0.086
Mof_C 	C 	0.9244	0.6677	0.6079	-0.132
Mof_C 	C 	0.0205	0.7023	0.65469	0.086
Mof_C 	C 	0.0719	0.68	0.63253	-0.137
Mof_C 	C 	0.0232	0.6639	0.60817	0.076
Mof_C 	C 	0.0753	0.6415	0.58293	0.102
Mof_C 	C 	0.9606	0.7705	0.73807	0.068
Mof_C 	C 	0.9973	0.7662	0.76622	-0.118
Mof_C 	C 	0.9271	0.6894	0.73583	0.076
Mof_C 	C 	0.9638	0.6817	0.7634	-0.124
Mof_C 	C 	0.998	0.721	0.77945	0.055
Mof_C 	C 	0.0288	0.7167	0.81084	0.104
Mof_C 	C 	0.0838	0.5382	0.86607	0.079
Mof_C 	C 	0.0686	0.5807	0.85079	-0.123
Mof_C 	C 	0.11	0.5782	0.90914	0.077
Mof_C 	C 	0.0961	0.6225	0.8957	-0.118
Mof_C 	C 	0.0755	0.6245	0.86567	0.057
Mof_C 	C 	0.0637	0.6719	0.85092	0.101
Mof_C 	C 	0.1324	0.8402	0.91384	0.075
Mof_C 	C 	0.1158	0.7975	0.8995	-0.121
Mof_C 	C 	0.0867	0.8853	0.87334	0.059
Mof_C 	C 	0.0679	0.8439	0.85721	-0.112
Mof_C 	C 	0.0832	0.7985	0.87046	0.05
Mof_C 	C 	0.0658	0.7534	0.85316	0.107
Mof_C 	C 	0.5461	0.9174	0.09747	0.068
Mof_C 	C 	0.6378	0.8992	0.09372	-0.124
Mof_C 	C 	0.5439	0.9479	0.05012	0.071
Mof_C 	C 	0.6365	0.9309	0.04491	-0.128
Mof_C 	C 	0.6853	0.9061	0.06683	0.052
Mof_C 	C 	0.7875	0.8908	0.06377	0.097
Mof_C 	C 	0.9957	0.9448	0.96392	0.077
Mof_C 	C 	0.9406	0.9324	0.98859	-0.129
Mof_C 	C 	0.1327	0.9131	0.98505	0.073
Mof_C 	C 	0.0833	0.8994	0.01014	-0.121
Mof_C 	C 	0.9844	0.9085	0.01158	0.058
Mof_C 	C 	0.9285	0.8938	0.03826	0.101
Mof_C 	C 	0.1221	0.8117	0.13117	0.087
Mof_C 	C 	0.0756	0.8323	0.1079	-0.133
Mof_C 	C 	0.9795	0.7977	0.15469	0.087
Mof_C 	C 	0.9281	0.82	0.13253	-0.138
Mof_C 	C 	0.9768	0.8361	0.10817	0.077
Mof_C 	C 	0.9247	0.8585	0.08293	0.101
Mof_C 	C 	0.0394	0.7295	0.23807	0.069
Mof_C 	C 	0.0027	0.7338	0.26622	-0.119
Mof_C 	C 	0.0729	0.8106	0.23583	0.076
Mof_C 	C 	0.0362	0.8183	0.2634	-0.124
Mof_C 	C 	0.002	0.779	0.27945	0.055
Mof_C 	C 	0.9712	0.7833	0.31084	0.104
Mof_C 	C 	0.9162	0.9618	0.36607	0.079
Mof_C 	C 	0.9314	0.9193	0.35079	-0.123
Mof_C 	C 	0.89	0.9218	0.40914	0.077
Mof_C 	C 	0.9039	0.8775	0.3957	-0.118
Mof_C 	C 	0.9245	0.8755	0.36567	0.057
Mof_C 	C 	0.9363	0.8281	0.35092	0.101
Mof_C 	C 	0.8676	0.6598	0.41384	0.075
Mof_C 	C 	0.8842	0.7025	0.3995	-0.121
Mof_C 	C 	0.9133	0.6147	0.37334	0.06
Mof_C 	C 	0.9321	0.6561	0.35721	-0.112
Mof_C 	C 	0.9168	0.7015	0.37046	0.05
Mof_C 	C 	0.9342	0.7466	0.35316	0.107
Mof_I 	I 	0.34265	0.16668	0.82787	-0.376
Mof_I 	I 	0.18477	0.30111	0.80719	-0.374
Mof_I 	I 	0.2197	0.42	0.8774	-0.371
Mof_I 	I 	0.21165	0.49163	0.96581	-0.393
Mof_I 	I 	0.15551	0.43315	0.06872	-0.384
Mof_I 	I 	0.41835	0.51564	0.10439	-0.364
Mof_I 	I 	0.65735	0.33332	0.32787	-0.376
Mof_I 	I 	0.81523	0.19889	0.30719	-0.374
Mof_I 	I 	0.7803	0.08	0.3774	-0.372
Mof_I 	I 	0.78835	0.00837	0.46581	-0.393
Mof_I 	I 	0.84449	0.06685	0.56872	-0.385
Mof_I 	I 	0.58165	0.98436	0.60439	-0.364
Mof_I 	I 	0.84265	0.83332	0.67213	-0.376
Mof_I 	I 	0.68477	0.69889	0.69281	-0.374
Mof_I 	I 	0.7197	0.58	0.6226	-0.371
Mof_I 	I 	0.71165	0.50837	0.53419	-0.393
Mof_I 	I 	0.65551	0.56685	0.43128	-0.384
Mof_I 	I 	0.91835	0.48436	0.39561	-0.364
Mof_I 	I 	0.15735	0.66668	0.17213	-0.376
Mof_I 	I 	0.31523	0.80111	0.19281	-0.374
Mof_I 	I 	0.2803	0.92	0.1226	-0.372
Mof_I 	I 	0.28835	0.99163	0.03419	-0.393
Mof_I 	I 	0.34449	0.93315	0.93128	-0.384
Mof_I 	I 	0.08165	0.01564	0.89561	-0.364
Mof_N 	N 	0.0018	0.4418	0.92382	-0.276
Mof_N 	N 	0.4096	0.4352	0.03792	-0.276
Mof_N 	N 	0.4236	0.2932	0.8457	-0.283
Mof_N 	N 	0.6658	0.4049	0.9609	-0.143
Mof_N 	N 	0.5226	0.3712	0.94057	-0.138
Mof_N 	N 	0.6717	0.3668	0.91404	-0.133
Mof_N 	N 	0.4237	0.267	0.77674	-0.277
Mof_N 	N 	0.6054	0.4635	0.60542	-0.275
Mof_N 	N 	0.6195	0.1163	0.59868	-0.273
Mof_N 	N 	0.5393	0.3277	0.67797	-0.139
Mof_N 	N 	0.5773	0.2887	0.63262	-0.141
Mof_N 	N 	0.5419	0.2417	0.67483	-0.143
Mof_N 	N 	0.9982	0.0582	0.42382	-0.276
Mof_N 	N 	0.5904	0.0648	0.53792	-0.276
Mof_N 	N 	0.5764	0.2068	0.3457	-0.283
Mof_N 	N 	0.3342	0.0951	0.4609	-0.143
Mof_N 	N 	0.4774	0.1288	0.44057	-0.138
Mof_N 	N 	0.3283	0.1332	0.41404	-0.133
Mof_N 	N 	0.5763	0.233	0.27674	-0.277
Mof_N 	N 	0.3946	0.0365	0.10542	-0.275
Mof_N 	N 	0.3805	0.3837	0.09868	-0.273
Mof_N 	N 	0.4607	0.1723	0.17797	-0.139
Mof_N 	N 	0.4227	0.2113	0.13262	-0.141
Mof_N 	N 	0.4581	0.2583	0.17483	-0.143
Mof_N 	N 	0.5018	0.5582	0.57618	-0.275
Mof_N 	N 	0.9096	0.5648	0.46208	-0.276
Mof_N 	N 	0.9236	0.7068	0.6543	-0.282
Mof_N 	N 	0.1658	0.5951	0.5391	-0.143
Mof_N 	N 	0.0226	0.6288	0.55943	-0.138
Mof_N 	N 	0.1717	0.6332	0.58596	-0.133
Mof_N 	N 	0.9237	0.733	0.72326	-0.276
Mof_N 	N 	0.1054	0.5365	0.89458	-0.275
Mof_N 	N 	0.1195	0.8837	0.90132	-0.273
Mof_N 	N 	0.0393	0.6723	0.82203	-0.139
Mof_N 	N 	0.0773	0.7113	0.86738	-0.141
Mof_N 	N 	0.0419	0.7583	0.82517	-0.143
Mof_N 	N 	0.4982	0.9418	0.07618	-0.275
Mof_N 	N 	0.0904	0.9352	0.96208	-0.277
Mof_N 	N 	0.0764	0.7932	0.1543	-0.283
Mof_N 	N 	0.8342	0.9049	0.0391	-0.143
Mof_N 	N 	0.9774	0.8712	0.05943	-0.138
Mof_N 	N 	0.8283	0.8668	0.08596	-0.133
Mof_N 	N 	0.0763	0.767	0.22326	-0.277
Mof_N 	N 	0.8946	0.9635	0.39458	-0.274
Mof_N 	N 	0.8805	0.6163	0.40132	-0.273
Mof_N 	N 	0.9607	0.8277	0.32203	-0.139
Mof_N 	N 	0.9227	0.7887	0.36738	-0.141
Mof_N 	N 	0.9581	0.7417	0.32517	-0.143
Mof_Zn	Zn	0.65483	0.74364	0.18531	1.166
Mof_Zn	Zn	0.86423	0.52829	0.08417	1.165
Mof_Zn	Zn	0.66291	0.5539	0.92297	1.164
Mof_Zn	Zn	0.34517	0.75636	0.68531	1.166
Mof_Zn	Zn	0.13577	0.97171	0.58417	1.165
Mof_Zn	Zn	0.33709	0.9461	0.42297	1.164
Mof_Zn	Zn	0.15483	0.25636	0.31469	1.166
Mof_Zn	Zn	0.36423	0.47171	0.41583	1.165
Mof_Zn	Zn	0.16291	0.4461	0.57703	1.164
Mof_Zn	Zn	0.84517	0.24364	0.81469	1.166
Mof_Zn	Zn	0.63577	0.02829	0.91583	1.165
Mof_Zn	Zn	0.83709	0.0539	0.07703	1.164
Mof_H 	H 	0.0147	0.5875	0.116	-0.005
Mof_H 	H 	0.169	0.618	0.1093	0.094
Mof_H 	H 	0.0108	0.5354	0.0347	-0.004
Mof_H 	H 	0.1668	0.5638	0.0263	0.089
Mof_H 	H 	0.4645	0.5393	0.9478	-0.015
Mof_H 	H 	0.3733	0.5595	0.9895	0.092
Mof_H 	H 	0.7006	0.5936	0.984	-0.007
Mof_H 	H 	0.6164	0.6159	0.0261	0.079
Mof_H 	H 	0.6914	0.6895	0.1308	-0.015
Mof_H 	H 	0.6118	0.6559	0.0915	0.089
Mof_H 	H 	0.4446	0.7151	0.1711	-0.017
Mof_H 	H 	0.3595	0.6758	0.1341	0.088
Mof_H 	H 	0.5383	0.8016	0.2288	-0.002
Mof_H 	H 	0.4783	0.7939	0.2764	0.083
Mof_H 	H 	0.5973	0.6622	0.2251	-0.014
Mof_H 	H 	0.5341	0.6497	0.2715	0.082
Mof_H 	H 	0.4214	0.5083	0.3556	-0.012
Mof_H 	H 	0.4464	0.5799	0.3303	0.083
Mof_H 	H 	0.3765	0.5775	0.4297	-0.011
Mof_H 	H 	0.3994	0.6517	0.4069	0.082
Mof_H 	H 	0.3457	0.839	0.4338	-0.017
Mof_H 	H 	0.3736	0.7673	0.4092	0.08
Mof_H 	H 	0.424	0.9161	0.3644	-0.007
Mof_H 	H 	0.4549	0.8461	0.3374	0.078
Mof_H 	H 	0.9853	0.9125	0.616	-0.005
Mof_H 	H 	0.831	0.882	0.6093	0.094
Mof_H 	H 	0.9892	0.9646	0.5347	-0.004
Mof_H 	H 	0.8332	0.9362	0.5263	0.089
Mof_H 	H 	0.5355	0.9607	0.4478	-0.015
Mof_H 	H 	0.6267	0.9405	0.4895	0.092
Mof_H 	H 	0.2994	0.9064	0.484	-0.007
Mof_H 	H 	0.3836	0.8841	0.5261	0.079
Mof_H 	H 	0.3086	0.8105	0.6308	-0.015
Mof_H 	H 	0.3882	0.8441	0.5915	0.089
Mof_H 	H 	0.5554	0.7849	0.6711	-0.017
Mof_H 	H 	0.6405	0.8242	0.6341	0.088
Mof_H 	H 	0.4617	0.6984	0.7288	-0.002
Mof_H 	H 	0.5217	0.7061	0.7764	0.083
Mof_H 	H 	0.4027	0.8378	0.7251	-0.014
Mof_H 	H 	0.4659	0.8503	0.7715	0.082
Mof_H 	H 	0.5786	0.9917	0.8556	-0.012
Mof_H 	H 	0.5536	0.9201	0.8303	0.083
Mof_H 	H 	0.6235	0.9225	0.9297	-0.011
Mof_H 	H 	0.6006	0.8483	0.9069	0.083
Mof_H 	H 	0.6543	0.661	0.9338	-0.017
Mof_H 	H 	0.6264	0.7327	0.9092	0.08
Mof_H 	H 	0.576	0.5839	0.8644	-0.007
Mof_H 	H 	0.5451	0.6539	0.8374	0.078
Mof_H 	H 	0.5147	0.4125	0.384	-0.005
Mof_H 	H 	0.669	0.382	0.3907	0.094
Mof_H 	H 	0.5108	0.4646	0.4653	-0.004
Mof_H 	H 	0.6668	0.4362	0.4737	0.089
Mof_H 	H 	0.9645	0.4607	0.5522	-0.015
Mof_H 	H 	0.8733	0.4405	0.5105	0.092
Mof_H 	H 	0.2006	0.4064	0.516	-0.007
Mof_H 	H 	0.1164	0.3841	0.4739	0.079
Mof_H 	H 	0.1914	0.3105	0.3692	-0.014
Mof_H 	H 	0.1118	0.3441	0.4085	0.088
Mof_H 	H 	0.9446	0.2849	0.3289	-0.017
Mof_H 	H 	0.8595	0.3242	0.3659	0.088
Mof_H 	H 	0.0383	0.1984	0.2712	-0.001
Mof_H 	H 	0.9783	0.2061	0.2236	0.082
Mof_H 	H 	0.0973	0.3378	0.2749	-0.014
Mof_H 	H 	0.0341	0.3503	0.2285	0.082
Mof_H 	H 	0.9214	0.4917	0.1444	-0.012
Mof_H 	H 	0.9464	0.4201	0.1697	0.082
Mof_H 	H 	0.8765	0.4225	0.0703	-0.011
Mof_H 	H 	0.8994	0.3483	0.0931	0.082
Mof_H 	H 	0.8457	0.161	0.0662	-0.017
Mof_H 	H 	0.8736	0.2327	0.0908	0.08
Mof_H 	H 	0.924	0.0839	0.1356	-0.007
Mof_H 	H 	0.9549	0.1539	0.1626	0.078
Mof_H 	H 	0.4853	0.0875	0.884	-0.005
Mof_H 	H 	0.331	0.118	0.8907	0.094
Mof_H 	H 	0.4892	0.0354	0.9653	-0.004
Mof_H 	H 	0.3332	0.0638	0.9737	0.089
Mof_H 	H 	0.0355	0.0393	0.0522	-0.015
Mof_H 	H 	0.1267	0.0595	0.0105	0.092
Mof_H 	H 	0.7994	0.0936	0.016	-0.007
Mof_H 	H 	0.8836	0.1159	0.9739	0.079
Mof_H 	H 	0.8086	0.1895	0.8692	-0.015
Mof_H 	H 	0.8882	0.1559	0.9085	0.089
Mof_H 	H 	0.0554	0.2151	0.8289	-0.017
Mof_H 	H 	0.1405	0.1758	0.8659	0.088
Mof_H 	H 	0.9617	0.3016	0.7712	-0.002
Mof_H 	H 	0.0217	0.2939	0.7236	0.083
Mof_H 	H 	0.9027	0.1622	0.7749	-0.014
Mof_H 	H 	0.9659	0.1497	0.7285	0.082
Mof_H 	H 	0.0786	0.0083	0.6444	-0.012
Mof_H 	H 	0.0536	0.0799	0.6697	0.083
Mof_H 	H 	0.1235	0.0775	0.5703	-0.011
Mof_H 	H 	0.1006	0.1517	0.5931	0.083
Mof_H 	H 	0.1543	0.339	0.5662	-0.017
Mof_H 	H 	0.1264	0.2673	0.5908	0.08
Mof_H 	H 	0.076	0.4161	0.6356	-0.007
Mof_H 	H 	0.0451	0.3461	0.6626	0.078
Mof_C 	C 	0.0461	0.5826	0.09747	0.068
Mof_C 	C 	0.1378	0.6008	0.09372	-0.124
Mof_C 	C 	0.0439	0.5521	0.05012	0.071
Mof_C 	C 	0.1365	0.5691	0.04491	-0.128
Mof_C 	C 	0.1853	0.5939	0.06683	0.052
Mof_C 	C 	0.2875	0.6092	0.06377	0.097
Mof_C 	C 	0.4957	0.5552	0.96392	0.076
Mof_C 	C 	0.4406	0.5676	0.98859	-0.128
Mof_C 	C 	0.6327	0.5869	0.98505	0.072
Mof_C 	C 	0.5833	0.6006	0.01014	-0.12
Mof_C 	C 	0.4844	0.5915	0.01158	0.057
Mof_C 	C 	0.4285	0.6062	0.03826	0.101
Mof_C 	C 	0.6221	0.6883	0.13117	0.087
Mof_C 	C 	0.5756	0.6677	0.1079	-0.132
Mof_C 	C 	0.4795	0.7023	0.15469	0.087
Mof_C 	C 	0.4281	0.68	0.13253	-0.137
Mof_C 	C 	0.4768	0.6639	0.10817	0.076
Mof_C 	C 	0.4247	0.6415	0.08293	0.101
Mof_C 	C 	0.5394	0.7705	0.23807	0.069
Mof_C 	C 	0.5027	0.7662	0.26622	-0.119
Mof_C 	C 	0.5729	0.6894	0.23583	0.076
Mof_C 	C 	0.5362	0.6817	0.2634	-0.124
Mof_C 	C 	0.502	0.721	0.27945	0.055
Mof_C 	C 	0.4712	0.7167	0.31084	0.104
Mof_C 	C 	0.4162	0.5382	0.36607	0.079
Mof_C 	C 	0.4314	0.5807	0.35079	-0.123
Mof_C 	C 	0.39	0.5782	0.40914	0.077
Mof_C 	C 	0.4039	0.6225	0.3957	-0.118
Mof_C 	C 	0.4245	0.6245	0.36567	0.057
Mof_C 	C 	0.4363	0.6719	0.35092	0.101
Mof_C 	C 	0.3676	0.8402	0.41384	0.075
Mof_C 	C 	0.3842	0.7975	0.3995	-0.121
Mof_C 	C 	0.4133	0.8853	0.37334	0.06
Mof_C 	C 	0.4321	0.8439	0.35721	-0.112
Mof_C 	C 	0.4168	0.7985	0.37046	0.05
Mof_C 	C 	0.4342	0.7534	0.35316	0.107
Mof_C 	C 	0.9539	0.9174	0.59747	0.069
Mof_C 	C 	0.8622	0.8992	0.59372	-0.125
Mof_C 	C 	0.9561	0.9479	0.55012	0.072
Mof_C 	C 	0.8635	0.9309	0.54491	-0.129
Mof_C 	C 	0.8147	0.9061	0.56683	0.052
Mof_C 	C 	0.7125	0.8908	0.56377	0.097
Mof_C 	C 	0.5043	0.9448	0.46392	0.076
Mof_C 	C 	0.5594	0.9324	0.48859	-0.128
Mof_C 	C 	0.3673	0.9131	0.48505	0.072
Mof_C 	C 	0.4167	0.8994	0.51014	-0.12
Mof_C 	C 	0.5156	0.9085	0.51158	0.057
Mof_C 	C 	0.5715	0.8938	0.53826	0.101
Mof_C 	C 	0.3779	0.8117	0.63117	0.087
Mof_C 	C 	0.4244	0.8323	0.6079	-0.132
Mof_C 	C 	0.5205	0.7977	0.65469	0.087
Mof_C 	C 	0.5719	0.82	0.63253	-0.137
Mof_C 	C 	0.5232	0.8361	0.60817	0.076
Mof_C 	C 	0.5753	0.8585	0.58293	0.101
Mof_C 	C 	0.4606	0.7295	0.73807	0.069
Mof_C 	C 	0.4973	0.7338	0.76622	-0.119
Mof_C 	C 	0.4271	0.8106	0.73583	0.076
Mof_C 	C 	0.4638	0.8183	0.7634	-0.124
Mof_C 	C 	0.498	0.779	0.77945	0.055
Mof_C 	C 	0.5288	0.7833	0.81084	0.104
Mof_C 	C 	0.5838	0.9618	0.86607	0.079
Mof_C 	C 	0.5686	0.9193	0.85079	-0.123
Mof_C 	C 	0.61	0.9218	0.90914	0.077
Mof_C 	C 	0.5961	0.8775	0.8957	-0.118
Mof_C 	C 	0.5755	0.8755	0.86567	0.057
Mof_C 	C 	0.5637	0.8281	0.85092	0.101
Mof_C 	C 	0.6324	0.6598	0.91384	0.075
Mof_C 	C 	0.6158	0.7025	0.8995	-0.121
Mof_C 	C 	0.5867	0.6147	0.87334	0.06
Mof_C 	C 	0.5679	0.6561	0.85721	-0.112
Mof_C 	C 	0.5832	0.7015	0.87046	0.05
Mof_C 	C 	0.5658	0.7466	0.85316	0.107
Mof_C 	C 	0.5461	0.4174	0.40253	0.068
Mof_C 	C 	0.6378	0.3992	0.40628	-0.124
Mof_C 	C 	0.5439	0.4479	0.44988	0.071
Mof_C 	C 	0.6365	0.4309	0.45509	-0.128
Mof_C 	C 	0.6853	0.4061	0.43317	0.052
Mof_C 	C 	0.7875	0.3908	0.43623	0.097
Mof_C 	C 	0.9957	0.4448	0.53608	0.076
Mof_C 	C 	0.9406	0.4324	0.51141	-0.128
Mof_C 	C 	0.1327	0.4131	0.51495	0.072
Mof_C 	C 	0.0833	0.3994	0.48986	-0.119
Mof_C 	C 	0.9844	0.4085	0.48842	0.057
Mof_C 	C 	0.9285	0.3938	0.46174	0.101
Mof_C 	C 	0.1221	0.3117	0.36883	0.086
Mof_C 	C 	0.0756	0.3323	0.3921	-0.132
Mof_C 	C 	0.9795	0.2977	0.34531	0.086
Mof_C 	C 	0.9281	0.32	0.36747	-0.137
Mof_C 	C 	0.9768	0.3361	0.39183	0.076
Mof_C 	C 	0.9247	0.3585	0.41707	0.102
Mof_C 	C 	0.0394	0.2295	0.26193	0.068
Mof_C 	C 	0.0027	0.2338	0.23378	-0.118
Mof_C 	C 	0.0729	0.3106	0.26417	0.076
Mof_C 	C 	0.0362	0.3183	0.2366	-0.124
Mof_C 	C 	0.002	0.279	0.22055	0.055
Mof_C 	C 	0.9712	0.2833	0.18916	0.104
Mof_C 	C 	0.9162	0.4618	0.13393	0.079
Mof_C 	C 	0.9314	0.4193	0.14921	-0.123
Mof_C 	C 	0.89	0.4218	0.09086	0.077
Mof_C 	C 	0.9039	0.3775	0.1043	-0.118
Mof_C 	C 	0.9245	0.3755	0.13433	0.057
Mof_C 	C 	0.9363	0.3281	0.14908	0.101
Mof_C 	C 	0.8676	0.1598	0.08616	0.075
Mof_C 	C 	0.8842	0.2025	0.1005	-0.121
Mof_C 	C 	0.9133	0.1147	0.12666	0.059
Mof_C 	C 	0.9321	0.1561	0.14279	-0.112
Mof_C 	C 	0.9168	0.2015	0.12954	0.05
Mof_C 	C 	0.9342	0.2466	0.14684	0.107
Mof_C 	C 	0.4539	0.0826	0.90253	0.068
Mof_C 	C 	0.3622	0.1008	0.90628	-0.124
Mof_C 	C 	0.4561	0.0521	0.94988	0.071
Mof_C 	C 	0.3635	0.0691	0.95509	-0.128
Mof_C 	C 	0.3147	0.0939	0.93317	0.052
Mof_C 	C 	0.2125	0.1092	0.93623	0.097
Mof_C 	C 	0.0043	0.0552	0.03608	0.077
Mof_C 	C 	0.0594	0.0676	0.01141	-0.129
Mof_C 	C 	0.8673	0.0869	0.01495	0.073
Mof_C 	C 	0.9167	0.1006	0.98986	-0.121
Mof_C 	C 	0.0156	0.0915	0.98842	0.058
Mof_C 	C 	0.0715	0.1062	0.96174	0.101
Mof_C 	C 	0.8779	0.1883	0.86883	0.087
Mof_C 	C 	0.9244	0.1677	0.8921	-0.133
Mof_C 	C 	0.0205	0.2023	0.84531	0.087
Mof_C 	C 	0.0719	0.18	0.86747	-0.138
Mof_C 	C 	0.0232	0.1639	0.89183	0.077
Mof_C 	C 	0.0753	0.1415	0.91707	0.101
Mof_C 	C 	0.9606	0.2705	0.76193	0.069
Mof_C 	C 	0.9973	0.2662	0.73378	-0.119
Mof_C 	C 	0.9271	0.1894	0.76417	0.076
Mof_C 	C 	0.9638	0.1817	0.7366	-0.124
Mof_C 	C 	0.998	0.221	0.72055	0.055
Mof_C 	C 	0.0288	0.2167	0.68916	0.104
Mof_C 	C 	0.0838	0.0382	0.63393	0.079
Mof_C 	C 	0.0686	0.0807	0.64921	-0.123
Mof_C 	C 	0.11	0.0782	0.59086	0.077
Mof_C 	C 	0.0961	0.1225	0.6043	-0.118
Mof_C 	C 	0.0755	0.1245	0.63433	0.057
Mof_C 	C 	0.0637	0.1719	0.64908	0.101
Mof_C 	C 	0.1324	0.3402	0.58616	0.075
Mof_C 	C 	0.1158	0.2975	0.6005	-0.121
Mof_C 	C 	0.0867	0.3853	0.62666	0.06
Mof_C 	C 	0.0679	0.3439	0.64279	-0.112
Mof_C 	C 	0.0832	0.2985	0.62954	0.05
Mof_C 	C 	0.0658	0.2534	0.64684	0.107
Mof_I 	I 	0.65735	0.83332	0.17213	-0.376
Mof_I 	I 	0.81523	0.69889	0.19281	-0.374
Mof_I 	I 	0.7803	0.58	0.1226	-0.371
Mof_I 	I 	0.78835	0.50837	0.03419	-0.393
Mof_I 	I 	0.84449	0.56685	0.93128	-0.384
Mof_I 	I 	0.58165	0.48436	0.89561	-0.364
Mof_I 	I 	0.34265	0.66668	0.67213	-0.376
Mof_I 	I 	0.18477	0.80111	0.69281	-0.374
Mof_I 	I 	0.2197	0.92	0.6226	-0.372
Mof_I 	I 	0.21165	0.99163	0.53419	-0.393
Mof_I 	I 	0.15551	0.93315	0.43128	-0.385
Mof_I 	I 	0.41835	0.01564	0.39561	-0.364
Mof_I 	I 	0.15735	0.16668	0.32787	-0.376
Mof_I 	I 	0.31523	0.30111	0.30719	-0.374
Mof_I 	I 	0.2803	0.42	0.3774	-0.371
Mof_I 	I 	0.28835	0.49163	0.46581	-0.393
Mof_I 	I 	0.34449	0.43315	0.56872	-0.384
Mof_I 	I 	0.08165	0.51564	0.60439	-0.364
Mof_I 	I 	0.84265	0.33332	0.82787	-0.376
Mof_I 	I 	0.68477	0.19889	0.80719	-0.374
Mof_I 	I 	0.7197	0.08	0.8774	-0.372
Mof_I 	I 	0.71165	0.00837	0.96581	-0.393
Mof_I 	I 	0.65551	0.06685	0.06872	-0.384
Mof_I 	I 	0.91835	0.98436	0.10439	-0.364
Mof_N 	N 	0.9982	0.5582	0.07618	-0.276
Mof_N 	N 	0.5904	0.5648	0.96208	-0.276
Mof_N 	N 	0.5764	0.7068	0.1543	-0.283
Mof_N 	N 	0.3342	0.5951	0.0391	-0.143
Mof_N 	N 	0.4774	0.6288	0.05943	-0.138
Mof_N 	N 	0.3283	0.6332	0.08596	-0.133
Mof_N 	N 	0.5763	0.733	0.22326	-0.277
Mof_N 	N 	0.3946	0.5365	0.39458	-0.275
Mof_N 	N 	0.3805	0.8837	0.40132	-0.273
Mof_N 	N 	0.4607	0.6723	0.32203	-0.139
Mof_N 	N 	0.4227	0.7113	0.36738	-0.141
Mof_N 	N 	0.4581	0.7583	0.32517	-0.143
Mof_N 	N 	0.0018	0.9418	0.57618	-0.276
Mof_N 	N 	0.4096	0.9352	0.46208	-0.276
Mof_N 	N 	0.4236	0.7932	0.6543	-0.283
Mof_N 	N 	0.6658	0.9049	0.5391	-0.143
Mof_N 	N 	0.5226	0.8712	0.55943	-0.138
Mof_N 	N 	0.6717	0.8668	0.58596	-0.133
Mof_N 	N 	0.4237	0.767	0.72326	-0.277
Mof_N 	N 	0.6054	0.9635	0.89458	-0.275
Mof_N 	N 	0.6195	0.6163	0.90132	-0.273
Mof_N 	N 	0.5393	0.8277	0.82203	-0.139
Mof_N 	N 	0.5773	0.7887	0.86738	-0.141
Mof_N 	N 	0.5419	0.7417	0.82517	-0.143
Mof_N 	N 	0.4982	0.4418	0.42382	-0.275
Mof_N 	N 	0.0904	0.4352	0.53792	-0.276
Mof_N 	N 	0.0764	0.2932	0.3457	-0.282
Mof_N 	N 	0.8342	0.4049	0.4609	-0.143
Mof_N 	N 	0.9774	0.3712	0.44057	-0.138
Mof_N 	N 	0.8283	0.3668	0.41404	-0.133
Mof_N 	N 	0.0763	0.267	0.27674	-0.276
Mof_N 	N 	0.8946	0.4635	0.10542	-0.275
Mof_N 	N 	0.8805	0.1163	0.09868	-0.273
Mof_N 	N 	0.9607	0.3277	0.17797	-0.139
Mof_N 	N 	0.9227	0.2887	0.13262	-0.141
Mof_N 	N 	0.9581	0.2417	0.17483	-0.143
Mof_N 	N 	0.5018	0.0582	0.92382	-0.275
Mof_N 	N 	0.9096	0.0648	0.03792	-0.277
Mof_N 	N 	0.9236	0.2068	0.8457	-0.283
Mof_N 	N 	0.1658	0.0951	0.9609	-0.143
Mof_N 	N 	0.0226	0.1288	0.94057	-0.138
Mof_N 	N 	0.1717	0.1332	0.91404	-0.133
Mof_N 	N 	0.9237	0.233	0.77674	-0.277
Mof_N 	N 	0.1054	0.0365	0.60542	-0.274
Mof_N 	N 	0.1195	0.3837	0.59868	-0.273
Mof_N 	N 	0.0393	0.1723	0.67797	-0.139
Mof_N 	N 	0.0773	0.2113	0.63262	-0.141
Mof_N 	N 	0.0419	0.2583	0.67483	-0.143
_end
