data_functionalizedCrystal
_audit_creation_method	'EQeq! by Chris Wilmer'
_symmetry_space_group_name_H-M	'P1'
_symmetry_Int_Tables_number	1
_symmetry_cell_setting	triclinic
loop_
_symmetry_equiv_pos_as_xyz
  x,y,z
_cell_length_a	12.6331
_cell_length_b	7.3937
_cell_length_c	10.9623
_cell_angle_alpha	90
_cell_angle_beta	109.51
_cell_angle_gamma	90
loop_
_atom_site_label
_atom_site_type_symbol
_atom_site_fract_x
_atom_site_fract_y
_atom_site_fract_z
_atom_site_charge
Mof_H 	H 	0.0195	0.2297	0.6102	0.117
Mof_C 	C 	0.0543	0.3405	0.84531	0.163
Mof_C 	C 	0.0119	0.3392	0.5664	-0.314
Mof_N 	N 	0.0602	0.2058	0.90083	-0.258
Mof_H 	H 	0.9805	0.2297	0.3898	-0.018
Mof_C 	C 	0.9457	0.3405	0.15469	0.105
Mof_C 	C 	0.9881	0.3392	0.4336	0.169
Mof_N 	N 	0.9398	0.2058	0.09917	-0.275
Mof_H 	H 	0.9805	0.7703	0.3898	0.006
Mof_C 	C 	0.9457	0.6595	0.15469	0.116
Mof_C 	C 	0.9881	0.6608	0.4336	0.17
Mof_N 	N 	0.9398	0.7942	0.09917	-0.245
Mof_H 	H 	0.0195	0.7703	0.6102	0.141
Mof_C 	C 	0.0543	0.6595	0.84531	0.173
Mof_C 	C 	0.0119	0.6608	0.5664	-0.309
Mof_N 	N 	0.0602	0.7942	0.90083	-0.228
Mof_Zn	Zn	-0	0	-0	1.12
Mof_H 	H 	0.75	1.30776e-32	0.9626	0.011
Mof_H 	H 	0.5759	1.30776e-32	0.8101	0.098
Mof_H 	H 	0.722	0	0.538	0.079
Mof_H 	H 	0.8962	0	0.7006	-0.01
Mof_C 	C 	0.7445	1.30776e-32	0.8758	0.104
Mof_C 	C 	0.6391	1.30776e-32	0.7845	-0.167
Mof_C 	C 	0.6269	0	0.6546	0.109
Mof_C 	C 	0.5108	1.30776e-32	0.562	-0.063
Mof_C 	C 	0.7259	0	0.6242	-0.158
Mof_C 	C 	0.8312	0	0.7225	0.088
Mof_N 	N 	0.8393	0	0.848	-0.232
Mof_H 	H 	0.25	8.17349e-34	0.0374	-0.069
Mof_H 	H 	0.4241	3.26939e-33	0.1899	0.071
Mof_H 	H 	0.278	6.53879e-33	0.462	0.08
Mof_H 	H 	0.1038	6.53879e-33	0.2994	-0.053
Mof_C 	C 	0.2555	0	0.1242	0.089
Mof_C 	C 	0.3609	3.26939e-33	0.2155	-0.191
Mof_C 	C 	0.3731	6.53879e-33	0.3454	0.106
Mof_C 	C 	0.4892	6.53879e-33	0.438	-0.07
Mof_C 	C 	0.2741	6.53879e-33	0.3758	-0.177
Mof_C 	C 	0.1688	6.53879e-33	0.2775	0.075
Mof_N 	N 	0.1607	0	0.152	-0.292
Mof_C 	C 	0.0474	0.5	0.7772	-0.203
Mof_C 	C 	0.0247	0.5	0.6356	0.229
Mof_C 	C 	0.9526	0.5	0.2228	-0.08
Mof_C 	C 	0.9753	0.5	0.3644	-0.074
Mof_H 	H 	0.43661	0	0.59917	0.037
Mof_H 	H 	0.56339	6.53879e-33	0.40083	0.03
_end
