data_functionalizedCrystal
_audit_creation_method	'EQeq! by Chris Wilmer'
_symmetry_space_group_name_H-M	'P1'
_symmetry_Int_Tables_number	1
_symmetry_cell_setting	triclinic
loop_
_symmetry_equiv_pos_as_xyz
  x,y,z
_cell_length_a	7.2075
_cell_length_b	10.7562
_cell_length_c	17.218
_cell_angle_alpha	97.072
_cell_angle_beta	90
_cell_angle_gamma	90
loop_
_atom_site_label
_atom_site_type_symbol
_atom_site_fract_x
_atom_site_fract_y
_atom_site_fract_z
_atom_site_charge
Mof_Eu	Eu	0.48036	0.32562	0.75305	2.29
Mof_Eu	Eu	0.98036	0.17438	0.74695	2.261
Mof_Eu	Eu	0.51964	0.67438	0.24695	2.289
Mof_Eu	Eu	0.01964	0.82562	0.25305	2.26
Mof_H 	H 	0.5424	0.6716	0.5596	0.284
Mof_H 	H 	0.6839	0.4925	0.0195	0.054
Mof_H 	H 	0.1477	0.6652	0.4505	0.041
Mof_H 	H 	0.0424	0.8284	0.9404	0.278
Mof_H 	H 	0.1839	0.0075	0.4805	0.055
Mof_H 	H 	0.6477	0.8348	0.0495	0.042
Mof_H 	H 	0.4576	0.3284	0.4404	0.284
Mof_H 	H 	0.3161	0.5075	0.9805	0.054
Mof_H 	H 	0.8523	0.3348	0.5495	0.041
Mof_H 	H 	0.9576	0.1716	0.0596	0.278
Mof_H 	H 	0.8161	0.9925	0.5195	0.055
Mof_H 	H 	0.3523	0.1652	0.9505	0.042
Mof_C 	C 	0.1718	0.416	0.8519	0.369
Mof_C 	C 	0.7495	0.4054	0.8746	0.396
Mof_C 	C 	0.8825	0.4519	0.9381	-0.082
Mof_C 	C 	0.0746	0.4576	0.9271	-0.051
Mof_C 	C 	0.8114	0.4952	0.0114	0.011
Mof_C 	C 	0.1485	0.3921	0.6338	0.483
Mof_C 	C 	0.0709	0.4527	0.5667	-0.099
Mof_C 	C 	0.3182	0.6225	0.5781	0.372
Mof_C 	C 	0.1579	0.5526	0.5367	-0.045
Mof_C 	C 	0.0878	0.5992	0.4702	0.016
Mof_C 	C 	0.6718	0.084	0.6481	0.371
Mof_C 	C 	0.2495	0.0946	0.6254	0.395
Mof_C 	C 	0.3825	0.0481	0.5619	-0.076
Mof_C 	C 	0.5746	0.0424	0.5729	-0.06
Mof_C 	C 	0.3114	0.0048	0.4886	0.012
Mof_C 	C 	0.6485	0.1079	0.8662	0.486
Mof_C 	C 	0.5709	0.0473	0.9333	-0.107
Mof_C 	C 	0.8182	0.8775	0.9219	0.369
Mof_C 	C 	0.6579	0.9474	0.9633	-0.04
Mof_C 	C 	0.5878	0.9008	0.0298	0.019
Mof_C 	C 	0.8282	0.584	0.1481	0.369
Mof_C 	C 	0.2505	0.5946	0.1254	0.396
Mof_C 	C 	0.1175	0.5481	0.0619	-0.082
Mof_C 	C 	0.9254	0.5424	0.0729	-0.051
Mof_C 	C 	0.1886	0.5048	0.9886	0.011
Mof_C 	C 	0.8515	0.6079	0.3662	0.483
Mof_C 	C 	0.9291	0.5473	0.4333	-0.099
Mof_C 	C 	0.6818	0.3775	0.4219	0.372
Mof_C 	C 	0.8421	0.4474	0.4633	-0.045
Mof_C 	C 	0.9122	0.4008	0.5298	0.016
Mof_C 	C 	0.3282	0.916	0.3519	0.371
Mof_C 	C 	0.7505	0.9054	0.3746	0.395
Mof_C 	C 	0.6175	0.9519	0.4381	-0.076
Mof_C 	C 	0.4254	0.9576	0.4271	-0.06
Mof_C 	C 	0.6886	0.9952	0.5114	0.012
Mof_C 	C 	0.3515	0.8921	0.1338	0.486
Mof_C 	C 	0.4291	0.9527	0.0667	-0.107
Mof_C 	C 	0.1818	0.1225	0.0781	0.369
Mof_C 	C 	0.3421	0.0526	0.0367	-0.04
Mof_C 	C 	0.4122	0.0992	0.9702	0.019
Mof_O 	O 	0.5803	0.4178	0.8865	-0.468
Mof_O 	O 	0.3155	0.6536	0.6492	-0.283
Mof_O 	O 	0.4516	0.6483	0.533	-0.477
Mof_O 	O 	0.1924	0.2974	0.8302	-0.646
Mof_O 	O 	0.8112	0.3562	0.808	-0.635
Mof_O 	O 	0.2519	0.4937	0.8155	-0.426
Mof_O 	O 	0.3216	0.3885	0.6424	-0.537
Mof_O 	O 	0.0323	0.3444	0.6758	-0.553
Mof_O 	O 	0.0803	0.0822	0.6135	-0.46
Mof_O 	O 	0.8155	0.8464	0.8508	-0.28
Mof_O 	O 	0.9516	0.8517	0.967	-0.468
Mof_O 	O 	0.6924	0.2026	0.6698	-0.651
Mof_O 	O 	0.3112	0.1438	0.692	-0.631
Mof_O 	O 	0.7519	0.0063	0.6845	-0.429
Mof_O 	O 	0.8216	0.1115	0.8576	-0.539
Mof_O 	O 	0.5323	0.1556	0.8242	-0.56
Mof_O 	O 	0.4197	0.5822	0.1135	-0.468
Mof_O 	O 	0.6845	0.3464	0.3508	-0.283
Mof_O 	O 	0.5484	0.3517	0.467	-0.477
Mof_O 	O 	0.8076	0.7026	0.1698	-0.646
Mof_O 	O 	0.1888	0.6438	0.192	-0.635
Mof_O 	O 	0.7481	0.5063	0.1845	-0.426
Mof_O 	O 	0.6784	0.6115	0.3576	-0.537
Mof_O 	O 	0.9677	0.6556	0.3242	-0.553
Mof_O 	O 	0.9197	0.9178	0.3865	-0.46
Mof_O 	O 	0.1845	0.1536	0.1492	-0.28
Mof_O 	O 	0.0484	0.1483	0.033	-0.468
Mof_O 	O 	0.3076	0.7974	0.3302	-0.651
Mof_O 	O 	0.6888	0.8562	0.308	-0.631
Mof_O 	O 	0.2481	0.9937	0.3155	-0.429
Mof_O 	O 	0.1784	0.8885	0.1424	-0.539
Mof_O 	O 	0.4677	0.8444	0.1758	-0.56
_end
