data_functionalizedCrystal
_audit_creation_method	'EQeq! by Chris Wilmer'
_symmetry_space_group_name_H-M	'P1'
_symmetry_Int_Tables_number	1
_symmetry_cell_setting	triclinic
loop_
_symmetry_equiv_pos_as_xyz
  x,y,z
_cell_length_a	17.1471
_cell_length_b	17.1471
_cell_length_c	17.1471
_cell_angle_alpha	62.0553
_cell_angle_beta	74.592
_cell_angle_gamma	105.408
loop_
_atom_site_label
_atom_site_type_symbol
_atom_site_fract_x
_atom_site_fract_y
_atom_site_fract_z
_atom_site_charge
Mof_Zn	Zn	0.12833	0.95184	0.42721	1.235
Mof_Zn	Zn	0.87167	0.44446	0.17649	1.233
Mof_Zn	Zn	0.5	0.6829	0.49094	1.216
Mof_Zn	Zn	0.82616	0.50906	0.99094	1.215
Mof_Zn	Zn	0.62095	0.57279	0.55554	1.233
Mof_Zn	Zn	0.37905	0.82351	0.04816	1.233
Mof_Zn	Zn	0.62095	0.94446	0.92721	1.234
Mof_Zn	Zn	0.87167	0.32351	0.05554	1.234
Mof_Zn	Zn	0.37905	0.45184	0.67649	1.233
Mof_Zn	Zn	0.5	0.00906	0.8171	1.214
Mof_Zn	Zn	0.12833	0.07279	0.54816	1.232
Mof_Zn	Zn	0.17384	0.1829	0.3171	1.216
Mof_H 	H 	0.3957	0.1781	0.8648	0.037
Mof_H 	H 	0.8484	0.8413	0.4681	0.042
Mof_H 	H 	0.6906	0.5319	0.3165	0.04
Mof_H 	H 	0.3007	0.9476	0.7397	0.039
Mof_H 	H 	0.9571	0.2395	0.3648	0.033
Mof_H 	H 	0.8484	0.0319	0.6587	0.039
Mof_H 	H 	0.3094	0.9929	0.1587	0.047
Mof_H 	H 	0.3957	0.6352	0.3219	0.033
Mof_H 	H 	0.6993	0.1469	0.5404	0.037
Mof_H 	H 	0.6873	0.4476	0.8531	0.037
Mof_H 	H 	0.6043	0.7395	0.2176	0.033
Mof_H 	H 	0.0429	0.7824	0.8219	0.034
Mof_H 	H 	0.6873	0.6469	0.0524	0.038
Mof_H 	H 	0.1516	0.4929	0.8165	0.041
Mof_H 	H 	0.3127	0.2603	0.0404	0.037
Mof_H 	H 	0.3094	0.3413	0.5071	0.04
Mof_H 	H 	0.9571	0.1352	0.2605	0.035
Mof_H 	H 	0.6043	0.2824	0.7605	0.032
Mof_H 	H 	0.3127	0.4596	0.2397	0.037
Mof_H 	H 	0.6993	0.9596	0.3531	0.037
Mof_H 	H 	0.6906	0.1835	0.9681	0.038
Mof_H 	H 	0.1516	0.6835	0.0071	0.043
Mof_H 	H 	0.0429	0.6781	0.7176	0.033
Mof_H 	H 	0.3007	0.7603	0.5524	0.037
Mof_C 	C 	0.6776	0.6444	0.1098	0.068
Mof_C 	C 	0.3554	0.2313	0.9411	-0.11
Mof_C 	C 	0.7542	0.9668	0.3556	0.069
Mof_C 	C 	0.1724	0.8759	0.7687	-0.11
Mof_C 	C 	0.1812	0.9595	0.6725	0.343
Mof_C 	C 	0.6269	0.6989	0.209	0.069
Mof_C 	C 	0.6213	0.123	0.8743	0.388
Mof_C 	C 	0.6425	0.2169	0.867	-0.134
Mof_C 	C 	0.2392	0.8202	0.8764	-0.121
Mof_C 	C 	0.3034	0.1236	0.1156	-0.119
Mof_C 	C 	0.6425	0.633	0.2831	-0.133
Mof_C 	C 	0.9973	0.623	0.9983	0.377
Mof_C 	C 	0.0921	0.6641	0.709	0.067
Mof_C 	C 	0.8276	0.2035	0.4411	-0.111
Mof_C 	C 	0.0027	0.1257	0.4956	0.388
Mof_C 	C 	0.2577	0.0983	0.2186	0.398
Mof_C 	C 	0.3575	0.0744	0.0095	-0.112
Mof_C 	C 	0.1724	0.7313	0.6241	-0.11
Mof_C 	C 	0.8188	0.1463	0.2217	0.336
Mof_C 	C 	0.8431	0.8962	0.4253	0.067
Mof_C 	C 	0.368	0.6463	0.1725	0.337
Mof_C 	C 	0.3787	0.0017	0.9956	0.367
Mof_C 	C 	0.2392	0.6236	0.6798	-0.123
Mof_C 	C 	0.8431	0.0747	0.6038	0.07
Mof_C 	C 	0.0027	0.0044	0.3743	0.378
Mof_C 	C 	0.1812	0.8275	0.5405	0.336
Mof_C 	C 	0.6776	0.3902	0.8556	0.066
Mof_C 	C 	0.3575	0.4905	0.4256	-0.134
Mof_C 	C 	0.632	0.7783	0.0405	0.34
Mof_C 	C 	0.3215	0.3962	0.4469	0.072
Mof_C 	C 	0.3169	0.5983	0.6594	0.399
Mof_C 	C 	0.8188	0.2783	0.3537	0.337
Mof_C 	C 	0.1569	0.5531	0.7684	0.07
Mof_C 	C 	0.3731	0.572	0.3359	0.068
Mof_C 	C 	0.0921	0.791	0.8359	0.065
Mof_C 	C 	0.368	0.3275	0.8537	0.336
Mof_C 	C 	0.632	0.4595	0.7217	0.337
Mof_C 	C 	0.0839	0.5744	0.7831	-0.131
Mof_C 	C 	0.3731	0.1641	0.928	0.053
Mof_C 	C 	0.6966	0.581	0.1798	-0.124
Mof_C 	C 	0.2577	0.2814	0.4017	0.4
Mof_C 	C 	0.7423	0.5237	0.1594	0.4
Mof_C 	C 	0.6785	0.2316	0.9253	0.07
Mof_C 	C 	0.1569	0.7316	0.9469	0.066
Mof_C 	C 	0.3224	0.4668	0.2874	0.067
Mof_C 	C 	0.3787	0.5044	0.4983	0.388
Mof_C 	C 	0.2458	0.8902	0.7874	0.066
Mof_C 	C 	0.3554	0.5589	0.2687	-0.111
Mof_C 	C 	0.7542	0.1444	0.5332	0.066
Mof_C 	C 	0.9079	0.1989	0.428	0.068
Mof_C 	C 	0.6831	0.0237	0.7186	0.392
Mof_C 	C 	0.3034	0.3844	0.3764	-0.124
Mof_C 	C 	0.9973	0.5017	0.877	0.386
Mof_C 	C 	0.7608	0.081	0.6156	-0.123
Mof_C 	C 	0.9079	0.072	0.3011	0.061
Mof_C 	C 	0.7608	0.8844	0.419	-0.122
Mof_C 	C 	0.3169	0.8406	0.9017	0.399
Mof_C 	C 	0.3215	0.0531	0.1038	0.058
Mof_C 	C 	0.7423	0.3406	0.9763	0.391
Mof_C 	C 	0.6831	0.7814	0.4763	0.399
Mof_C 	C 	0.2458	0.7126	0.6098	0.066
Mof_C 	C 	0.3224	0.2126	0.0332	0.069
Mof_C 	C 	0.6213	0.6257	0.377	0.388
Mof_C 	C 	0.9161	0.9905	0.367	-0.123
Mof_C 	C 	0.9161	0.133	0.5095	-0.134
Mof_C 	C 	0.6966	0.3202	0.919	-0.123
Mof_C 	C 	0.0839	0.7169	0.9256	-0.126
Mof_C 	C 	0.6446	0.3759	0.7965	-0.111
Mof_C 	C 	0.6785	0.5747	0.2684	0.072
Mof_C 	C 	0.6446	0.7035	0.1241	-0.112
Mof_C 	C 	0.8276	0.0589	0.2965	-0.111
Mof_C 	C 	0.6269	0.291	0.8011	0.068
Mof_O 	O 	0.4022	0.5907	0.4799	-0.468
Mof_O 	O 	0.0706	0.1885	0.4093	-0.468
Mof_O 	O 	0.2666	0.2779	0.3287	-0.443
Mof_O 	O 	0.2553	0.8989	0.48	-0.294
Mof_O 	O 	0.5	0.8901	0.9391	-0.659
Mof_O 	O 	0.0706	0.0907	0.3115	-0.466
Mof_O 	O 	0.1071	0.9635	0.6736	-0.444
Mof_O 	O 	0.8292	0.3901	0.1099	-0.658
Mof_O 	O 	0.6371	0.4635	0.6436	-0.445
Mof_O 	O 	0.4022	0.0201	0.9093	-0.466
Mof_O 	O 	0.3789	0.6436	0.1011	-0.295
Mof_O 	O 	0.5	0.5609	0.6099	-0.66
Mof_O 	O 	0.6328	0.5635	0.4425	-0.469
Mof_O 	O 	0.5978	0.6885	0.3821	-0.468
Mof_O 	O 	0.3672	0.4307	0.5753	-0.469
Mof_O 	O 	0.6211	0.52	0.7353	-0.296
Mof_O 	O 	0.9294	0.5201	0.8821	-0.469
Mof_O 	O 	0.1708	0.0609	0.4391	-0.662
Mof_O 	O 	0.3629	0.3264	0.7807	-0.446
Mof_O 	O 	0.7878	0.4976	0.205	-0.461
Mof_O 	O 	0.6371	0.8564	0.0365	-0.444
Mof_O 	O 	0.7026	0.9976	0.7902	-0.455
Mof_O 	O 	0.1071	0.8264	0.5365	-0.445
Mof_O 	O 	0.3934	0.9047	0.8287	-0.441
Mof_O 	O 	0.2553	0.02	0.6011	-0.302
Mof_O 	O 	0.2974	0.5072	0.705	-0.462
Mof_O 	O 	0.9294	0.6179	0.9799	-0.468
Mof_O 	O 	0.006	0.0635	0.5693	-0.471
Mof_O 	O 	0.3934	0.6713	0.5953	-0.443
Mof_O 	O 	0.7334	0.5113	0.0953	-0.441
Mof_O 	O 	0.8929	0.3564	0.2807	-0.445
Mof_O 	O 	0.3629	0.7193	0.1736	-0.445
Mof_O 	O 	0.7447	0.2647	0.3564	-0.296
Mof_O 	O 	0.7878	0.295	0.0024	-0.454
Mof_O 	O 	0.7026	0.7098	0.5024	-0.461
Mof_O 	O 	0.2666	0.1713	0.2221	-0.443
Mof_O 	O 	0.5978	0.1179	0.8115	-0.47
Mof_O 	O 	0.7447	0.1436	0.2353	-0.296
Mof_O 	O 	0.6066	0.7779	0.4887	-0.443
Mof_O 	O 	0.6211	0.7647	0.98	-0.299
Mof_O 	O 	0.3789	0.3989	0.8564	-0.297
Mof_O 	O 	0.6066	0.0113	0.7221	-0.444
Mof_O 	O 	0.2974	0.795	0.9928	-0.461
Mof_O 	O 	0.994	0.4247	0.9425	-0.473
Mof_O 	O 	0.3672	0.9247	0.0693	-0.459
Mof_O 	O 	0.7334	0.4047	0.9887	-0.443
Mof_O 	O 	0.006	0.9307	0.4365	-0.464
Mof_O 	O 	0.6328	0.0575	0.9365	-0.474
Mof_O 	O 	0.994	0.5575	0.0753	-0.462
Mof_O 	O 	0.2122	0.2098	0.4928	-0.462
Mof_O 	O 	0.2122	0.0072	0.2902	-0.463
Mof_O 	O 	0.8929	0.2193	0.1436	-0.444
_end
