data_functionalizedCrystal
_audit_creation_method	'EQeq! by Chris Wilmer'
_symmetry_space_group_name_H-M	'P1'
_symmetry_Int_Tables_number	1
_symmetry_cell_setting	triclinic
loop_
_symmetry_equiv_pos_as_xyz
  x,y,z
_cell_length_a	11.8062
_cell_length_b	12.2694
_cell_length_c	19.4114
_cell_angle_alpha	94.0237
_cell_angle_beta	90
_cell_angle_gamma	118.759
loop_
_atom_site_label
_atom_site_type_symbol
_atom_site_fract_x
_atom_site_fract_y
_atom_site_fract_z
_atom_site_charge
Mof_Na	Na	0.40269	0	0.75	2.317
Mof_Na	Na	0.59731	0	0.25	2.309
Mof_Co	Co	0.37492	0.75248	0.83831	1.169
Mof_Co	Co	0.62244	0.24752	0.66169	1.155
Mof_Co	Co	0.62508	0.24752	0.16169	1.155
Mof_Co	Co	0.37756	0.75248	0.33831	1.169
Mof_H 	H 	0.3712	0.036	0.9798	-0.128
Mof_H 	H 	0.2606	0.775	0.1149	0.021
Mof_H 	H 	0.1169	0.6286	0.0325	0.091
Mof_H 	H 	0.9827	0.3848	0.8119	0.021
Mof_H 	H 	0.7917	0.5792	0.8288	0.024
Mof_H 	H 	0.9535	0.7272	0.9024	0.072
Mof_H 	H 	0.3352	0.964	0.5202	0.12
Mof_H 	H 	0.4856	0.225	0.3851	-0.033
Mof_H 	H 	0.4883	0.3714	0.4675	0.108
Mof_H 	H 	0.5979	0.6152	0.6881	0.033
Mof_H 	H 	0.2125	0.4208	0.6712	0.027
Mof_H 	H 	0.2263	0.2728	0.5976	0.054
Mof_H 	H 	0.6288	0.964	0.0202	0.117
Mof_H 	H 	0.7394	0.225	0.8851	-0.035
Mof_H 	H 	0.8831	0.3714	0.9675	0.109
Mof_H 	H 	0.0173	0.6152	0.1881	0.033
Mof_H 	H 	0.2083	0.4208	0.1712	0.028
Mof_H 	H 	0.0465	0.2728	0.0976	0.052
Mof_H 	H 	0.6648	0.036	0.4798	-0.137
Mof_H 	H 	0.5144	0.775	0.6149	0.013
Mof_H 	H 	0.5117	0.6286	0.5325	0.097
Mof_H 	H 	0.4021	0.3848	0.3119	0.021
Mof_H 	H 	0.7875	0.5792	0.3288	0.026
Mof_H 	H 	0.7737	0.7272	0.4024	0.068
Mof_C 	C 	0.16281	0.74122	0.95488	0.068
Mof_C 	C 	0.23995	0.8645	0.93883	-0.209
Mof_C 	C 	0.32233	0.95326	0.9899	0.259
Mof_C 	C 	0.33227	0.91994	0.05542	-0.095
Mof_C 	C 	0.25523	0.79806	0.07091	0.057
Mof_C 	C 	0.16989	0.70978	0.02113	-0.124
Mof_C 	C 	0.06599	0.64558	0.90351	0.057
Mof_C 	C 	0.07454	0.54108	0.87649	-0.145
Mof_C 	C 	0.97681	0.45362	0.83076	0.055
Mof_C 	C 	0.87114	0.46728	0.81297	-0.13
Mof_C 	C 	0.8627	0.5696	0.8403	0.045
Mof_C 	C 	0.95962	0.65784	0.8847	-0.122
Mof_C 	C 	0.24744	0.90188	0.86591	0.368
Mof_C 	C 	0.42919	0.01298	0.10963	0.242
Mof_C 	C 	0.18485	0.5185	0.89529	0.356
Mof_C 	C 	0.76748	0.37656	0.76188	0.335
Mof_C 	C 	0.42159	0.25878	0.54512	0.07
Mof_C 	C 	0.37545	0.1355	0.56117	-0.14
Mof_C 	C 	0.36907	0.04674	0.5101	-0.053
Mof_C 	C 	0.41233	0.08006	0.44458	-0.31
Mof_C 	C 	0.45717	0.20194	0.42909	0.161
Mof_C 	C 	0.46011	0.29022	0.47887	-0.182
Mof_C 	C 	0.42041	0.35442	0.59649	0.039
Mof_C 	C 	0.53346	0.45892	0.62351	-0.141
Mof_C 	C 	0.52319	0.54638	0.66924	0.054
Mof_C 	C 	0.40386	0.53272	0.68703	-0.119
Mof_C 	C 	0.2931	0.4304	0.6597	0.028
Mof_C 	C 	0.30178	0.34216	0.6153	-0.099
Mof_C 	C 	0.34556	0.09812	0.63409	0.327
Mof_C 	C 	0.41621	0.98702	0.39037	0.73
Mof_C 	C 	0.66635	0.4815	0.60471	0.353
Mof_C 	C 	0.39092	0.62344	0.73812	0.327
Mof_C 	C 	0.83719	0.25878	0.04512	0.08
Mof_C 	C 	0.76005	0.1355	0.06117	-0.147
Mof_C 	C 	0.67767	0.04674	0.0101	-0.044
Mof_C 	C 	0.66773	0.08006	0.94458	-0.315
Mof_C 	C 	0.74477	0.20194	0.92909	0.167
Mof_C 	C 	0.83011	0.29022	0.97887	-0.194
Mof_C 	C 	0.93401	0.35442	0.09649	0.03
Mof_C 	C 	0.92546	0.45892	0.12351	-0.146
Mof_C 	C 	0.02319	0.54638	0.16924	0.062
Mof_C 	C 	0.12886	0.53272	0.18703	-0.119
Mof_C 	C 	0.1373	0.4304	0.1597	0.025
Mof_C 	C 	0.04038	0.34216	0.1153	-0.087
Mof_C 	C 	0.75256	0.09812	0.13409	0.329
Mof_C 	C 	0.57081	0.98702	0.89037	0.725
Mof_C 	C 	0.81515	0.4815	0.10471	0.354
Mof_C 	C 	0.23252	0.62344	0.23812	0.328
Mof_C 	C 	0.57841	0.74122	0.45488	0.089
Mof_C 	C 	0.62455	0.8645	0.43883	-0.225
Mof_C 	C 	0.63093	0.95326	0.4899	0.286
Mof_C 	C 	0.58767	0.91994	0.55542	-0.12
Mof_C 	C 	0.54283	0.79806	0.57091	0.077
Mof_C 	C 	0.53989	0.70978	0.52113	-0.15
Mof_C 	C 	0.57959	0.64558	0.40351	0.041
Mof_C 	C 	0.46654	0.54108	0.37649	-0.147
Mof_C 	C 	0.47681	0.45362	0.33076	0.062
Mof_C 	C 	0.59614	0.46728	0.31297	-0.128
Mof_C 	C 	0.7069	0.5696	0.3403	0.039
Mof_C 	C 	0.69822	0.65784	0.3847	-0.104
Mof_C 	C 	0.65444	0.90188	0.36591	0.374
Mof_C 	C 	0.58379	0.01298	0.60963	0.253
Mof_C 	C 	0.33365	0.5185	0.39529	0.356
Mof_C 	C 	0.60908	0.37656	0.26188	0.334
Mof_O 	O 	0.23738	0.99336	0.85316	-0.373
Mof_O 	O 	0.26938	0.83526	0.81933	-0.682
Mof_O 	O 	0.48898	0.12556	0.09442	-0.446
Mof_O 	O 	0.4459	0.976	0.16391	-0.504
Mof_O 	O 	0.29966	0.60884	0.89626	-0.417
Mof_O 	O 	0.15789	0.41318	0.90923	-0.278
Mof_O 	O 	0.66519	0.38058	0.75517	-0.403
Mof_O 	O 	0.78837	0.30074	0.72583	-0.431
Mof_O 	O 	0.24402	0.00664	0.64684	-0.482
Mof_O 	O 	0.43412	0.16474	0.68067	-0.712
Mof_O 	O 	0.36342	0.87444	0.40558	-0.536
Mof_O 	O 	0.4699	0.024	0.33609	-0.829
Mof_O 	O 	0.69082	0.39116	0.60374	-0.417
Mof_O 	O 	0.74471	0.58682	0.59077	-0.265
Mof_O 	O 	0.28461	0.61942	0.74483	-0.397
Mof_O 	O 	0.48763	0.69926	0.77417	-0.41
Mof_O 	O 	0.76262	0.00664	0.14684	-0.484
Mof_O 	O 	0.73062	0.16474	0.18067	-0.712
Mof_O 	O 	0.51102	0.87444	0.90558	-0.538
Mof_O 	O 	0.5541	0.024	0.83609	-0.827
Mof_O 	O 	0.70034	0.39116	0.10374	-0.416
Mof_O 	O 	0.84211	0.58682	0.09077	-0.267
Mof_O 	O 	0.33481	0.61942	0.24483	-0.397
Mof_O 	O 	0.21163	0.69926	0.27417	-0.409
Mof_O 	O 	0.75598	0.99336	0.35316	-0.376
Mof_O 	O 	0.56588	0.83526	0.31933	-0.683
Mof_O 	O 	0.63658	0.12556	0.59442	-0.45
Mof_O 	O 	0.5301	0.976	0.66391	-0.51
Mof_O 	O 	0.30918	0.60884	0.39626	-0.415
Mof_O 	O 	0.25529	0.41318	0.40923	-0.279
Mof_O 	O 	0.71539	0.38058	0.25517	-0.403
Mof_O 	O 	0.51237	0.30074	0.22583	-0.431
Mof_H 	H 	0.3034	0.374	0.9381	0.036
Mof_H 	H 	0.5585	0.2756	0.8701	0.002
Mof_H 	H 	0.5639	0.2798	0.9957	0.041
Mof_H 	H 	0.3191	0.3658	0.8103	0.13
Mof_H 	H 	0.4609	0.4046	0.7893	0.138
Mof_H 	H 	0.355	0.2636	0.7824	0.089
Mof_H 	H 	0.4654	0.3652	0.0937	-0.055
Mof_H 	H 	0.3711	0.4134	0.0704	-0.054
Mof_H 	H 	0.2612	0.2398	0.1312	0.268
Mof_H 	H 	0.205	0.21	0.0549	0.267
Mof_H 	H 	0.2992	0.1618	0.078	0.271
Mof_C 	C 	0.3676	0.3506	0.93687	0.076
Mof_C 	C 	0.50831	0.29602	0.89971	-0.008
Mof_C 	C 	0.5117	0.2984	0.96845	0.011
Mof_C 	C 	0.3855	0.3418	0.8094	-0.306
Mof_C 	C 	0.39098	0.34536	0.06387	0.321
Mof_C 	C 	0.2793	0.229	0.0837	-0.822
Mof_N 	N 	0.41838	0.32876	0.88039	-0.094
Mof_N 	N 	0.4232	0.3338	0.99129	-0.163
Mof_H 	H 	0.9294	0.626	0.5619	0.027
Mof_H 	H 	0.2829	0.7244	0.6299	0.008
Mof_H 	H 	0.2841	0.7202	0.5043	0.045
Mof_H 	H 	0.9533	0.6342	0.6897	0.129
Mof_H 	H 	0.0563	0.5954	0.7107	0.135
Mof_H 	H 	0.0914	0.7364	0.7176	0.109
Mof_H 	H 	0.1002	0.6348	0.4063	-0.082
Mof_H 	H 	0.9577	0.5866	0.4296	-0.089
Mof_H 	H 	0.0214	0.7602	0.3688	0.337
Mof_H 	H 	0.995	0.79	0.4451	0.333
Mof_H 	H 	0.1374	0.8382	0.422	0.354
Mof_C 	C 	0.017	0.6494	0.56313	0.112
Mof_C 	C 	0.21229	0.70398	0.60029	0.007
Mof_C 	C 	0.2133	0.7016	0.53155	0.021
Mof_C 	C 	0.0437	0.6582	0.6906	-0.291
Mof_C 	C 	0.04562	0.65464	0.43613	0.422
Mof_C 	C 	0.0503	0.771	0.4163	-0.977
Mof_N 	N 	0.08962	0.67124	0.61961	-0.093
Mof_N 	N 	0.0894	0.6662	0.50871	-0.175
Mof_H 	H 	0.6966	0.626	0.0619	0.039
Mof_H 	H 	0.4415	0.7244	0.1299	0.009
Mof_H 	H 	0.4361	0.7202	0.0043	0.046
Mof_H 	H 	0.6809	0.6342	0.1897	0.144
Mof_H 	H 	0.5391	0.5954	0.2107	0.143
Mof_H 	H 	0.645	0.7364	0.2176	0.117
Mof_H 	H 	0.5346	0.6348	0.9063	-0.078
Mof_H 	H 	0.6289	0.5866	0.9296	-0.08
Mof_H 	H 	0.7388	0.7602	0.8688	0.336
Mof_H 	H 	0.795	0.79	0.9451	0.339
Mof_H 	H 	0.7008	0.8382	0.922	0.354
Mof_C 	C 	0.6324	0.6494	0.06313	0.094
Mof_C 	C 	0.49169	0.70398	0.10029	0.005
Mof_C 	C 	0.4883	0.7016	0.03155	0.021
Mof_C 	C 	0.6145	0.6582	0.1906	-0.323
Mof_C 	C 	0.60902	0.65464	0.93613	0.403
Mof_C 	C 	0.7207	0.771	0.9163	-0.985
Mof_N 	N 	0.58162	0.67124	0.11961	-0.086
Mof_N 	N 	0.5768	0.6662	0.00871	-0.168
Mof_H 	H 	0.0706	0.374	0.4381	0.047
Mof_H 	H 	0.7171	0.2756	0.3701	0.002
Mof_H 	H 	0.7159	0.2798	0.4957	0.043
Mof_H 	H 	0.0467	0.3658	0.3103	0.142
Mof_H 	H 	0.9437	0.4046	0.2893	0.144
Mof_H 	H 	0.9086	0.2636	0.2824	0.095
Mof_H 	H 	0.8998	0.3652	0.5937	-0.051
Mof_H 	H 	0.0423	0.4134	0.5704	-0.045
Mof_H 	H 	0.9786	0.2398	0.6312	0.266
Mof_H 	H 	0.005	0.21	0.5549	0.27
Mof_H 	H 	0.8626	0.1618	0.578	0.27
Mof_C 	C 	0.983	0.3506	0.43687	0.06
Mof_C 	C 	0.78771	0.29602	0.39971	-0.009
Mof_C 	C 	0.7867	0.2984	0.46845	0.012
Mof_C 	C 	0.9563	0.3418	0.3094	-0.333
Mof_C 	C 	0.95438	0.34536	0.56387	0.302
Mof_C 	C 	0.9497	0.229	0.5837	-0.823
Mof_N 	N 	0.91038	0.32876	0.38039	-0.089
Mof_N 	N 	0.9106	0.3338	0.49129	-0.157
_end
