data_functionalizedCrystal
_audit_creation_method	'EQeq! by Chris Wilmer'
_symmetry_space_group_name_H-M	'P1'
_symmetry_Int_Tables_number	1
_symmetry_cell_setting	triclinic
loop_
_symmetry_equiv_pos_as_xyz
  x,y,z
_cell_length_a	6.6425
_cell_length_b	16.387
_cell_length_c	13.3679
_cell_angle_alpha	90
_cell_angle_beta	90
_cell_angle_gamma	90
loop_
_atom_site_label
_atom_site_type_symbol
_atom_site_fract_x
_atom_site_fract_y
_atom_site_fract_z
_atom_site_charge
Mof_C 	C 	0.18443	0.534	0.5327	0.159
Mof_O 	O 	0.1619	0.66567	0.6593	-1.465
Mof_N 	N 	0.369	0.432	0.435	-0.087
Mof_C 	C 	0.68443	0.034	0.0327	0.156
Mof_O 	O 	0.6619	0.16567	0.1593	-1.457
Mof_N 	N 	0.869	0.932	0.935	-0.099
Mof_C 	C 	0.81557	0.966	0.5327	0.137
Mof_O 	O 	0.8381	0.83433	0.6593	-1.479
Mof_N 	N 	0.631	0.068	0.435	-0.086
Mof_C 	C 	0.31557	0.466	0.0327	0.162
Mof_O 	O 	0.3381	0.33433	0.1593	-1.457
Mof_N 	N 	0.131	0.568	0.935	-0.076
Mof_C 	C 	0.81557	0.034	0.4673	0.137
Mof_O 	O 	0.8381	0.16567	0.3407	-1.479
Mof_N 	N 	0.631	0.932	0.565	-0.086
Mof_C 	C 	0.31557	0.534	0.9673	0.162
Mof_O 	O 	0.3381	0.66567	0.8407	-1.457
Mof_N 	N 	0.131	0.432	0.065	-0.076
Mof_C 	C 	0.18443	0.466	0.4673	0.16
Mof_O 	O 	0.1619	0.33433	0.3407	-1.464
Mof_N 	N 	0.369	0.568	0.565	-0.086
Mof_C 	C 	0.68443	0.966	0.9673	0.157
Mof_O 	O 	0.6619	0.83433	0.8407	-1.457
Mof_N 	N 	0.869	0.068	0.065	-0.099
Mof_C 	C 	0.81557	0.466	0.4673	0.137
Mof_O 	O 	0.8381	0.33433	0.3407	-1.479
Mof_N 	N 	0.631	0.568	0.565	-0.086
Mof_C 	C 	0.31557	0.966	0.9673	0.162
Mof_O 	O 	0.3381	0.83433	0.8407	-1.457
Mof_N 	N 	0.131	0.068	0.065	-0.076
Mof_C 	C 	0.18443	0.034	0.4673	0.16
Mof_O 	O 	0.1619	0.16567	0.3407	-1.464
Mof_N 	N 	0.369	0.932	0.565	-0.086
Mof_C 	C 	0.68443	0.534	0.9673	0.157
Mof_O 	O 	0.6619	0.66567	0.8407	-1.457
Mof_N 	N 	0.869	0.432	0.065	-0.099
Mof_C 	C 	0.18443	0.966	0.5327	0.16
Mof_O 	O 	0.1619	0.83433	0.6593	-1.464
Mof_N 	N 	0.369	0.068	0.435	-0.086
Mof_C 	C 	0.68443	0.466	0.0327	0.157
Mof_O 	O 	0.6619	0.33433	0.1593	-1.457
Mof_N 	N 	0.869	0.568	0.935	-0.099
Mof_C 	C 	0.81557	0.534	0.5327	0.137
Mof_O 	O 	0.8381	0.66567	0.6593	-1.479
Mof_N 	N 	0.631	0.432	0.435	-0.086
Mof_C 	C 	0.31557	0.034	0.0327	0.162
Mof_O 	O 	0.3381	0.16567	0.1593	-1.457
Mof_N 	N 	0.131	0.932	0.935	-0.076
Mof_Al	Al	0.25	0.25	0.25	5.987
Mof_Al	Al	0.75	0.25	0.25	5.929
Mof_Al	Al	0.75	0.75	0.75	5.929
Mof_Al	Al	0.25	0.75	0.75	5.987
Mof_O 	O 	1.42159e-33	0.25	0.1884	-2.084
Mof_O 	O 	0.5	0.75	0.6884	-2.102
Mof_O 	O 	2.34723e-32	0.75	0.8116	-2.084
Mof_O 	O 	0.5	0.25	0.3116	-2.102
Mof_C 	C 	4.26552e-33	0.568	0.5653	-0.426
Mof_C 	C 	-3.91589e-33	0.6359	0.6306	1.315
Mof_C 	C 	0.5	0.068	0.0653	-0.449
Mof_C 	C 	0.5	0.1359	0.1306	1.284
Mof_C 	C 	-3.0431e-32	0.932	0.5653	-0.426
Mof_C 	C 	-3.86124e-32	0.8641	0.6306	1.315
Mof_C 	C 	0.5	0.432	0.0653	-0.449
Mof_C 	C 	0.5	0.3641	0.1306	1.284
Mof_C 	C 	-1.40682e-32	0.068	0.4347	-0.426
Mof_C 	C 	2.78734e-33	0.1359	0.3694	1.315
Mof_C 	C 	0.5	0.568	0.9347	-0.449
Mof_C 	C 	0.5	0.6359	0.8694	1.284
Mof_C 	C 	-1.40682e-32	0.432	0.4347	-0.426
Mof_C 	C 	-5.88679e-33	0.3641	0.3694	1.315
Mof_C 	C 	0.5	0.932	0.9347	-0.449
Mof_C 	C 	0.5	0.8641	0.8694	1.284
_end
