data_functionalizedCrystal
_audit_creation_method	'EQeq! by Chris Wilmer'
_symmetry_space_group_name_H-M	'P1'
_symmetry_Int_Tables_number	1
_symmetry_cell_setting	triclinic
loop_
_symmetry_equiv_pos_as_xyz
  x,y,z
_cell_length_a	20.499
_cell_length_b	23.556
_cell_length_c	29.823
_cell_angle_alpha	90
_cell_angle_beta	90
_cell_angle_gamma	90
loop_
_atom_site_label
_atom_site_type_symbol
_atom_site_fract_x
_atom_site_fract_y
_atom_site_fract_z
_atom_site_charge
Mof_La	La	0.90653	0.52825	0.68469	2.168
Mof_La	La	0.62053	0.30589	0.05053	1.863
Mof_La	La	0.00417	0.26952	0.85308	1.567
Mof_La	La	0.09347	0.97175	0.18469	2.162
Mof_La	La	0.37947	0.19411	0.55053	1.864
Mof_La	La	0.99583	0.23048	0.35308	1.562
Mof_La	La	0.40653	0.47175	0.81531	2.166
Mof_La	La	0.12053	0.69411	0.44947	1.864
Mof_La	La	0.50417	0.73048	0.64692	1.563
Mof_La	La	0.59347	0.02825	0.31531	2.165
Mof_La	La	0.87947	0.80589	0.94947	1.863
Mof_La	La	0.49583	0.76952	0.14692	1.563
Mof_La	La	0.09347	0.47175	0.31531	2.167
Mof_La	La	0.37947	0.69411	0.94947	1.863
Mof_La	La	0.99583	0.73048	0.14692	1.567
Mof_La	La	0.90653	0.02825	0.81531	2.162
Mof_La	La	0.62053	0.80589	0.44947	1.864
Mof_La	La	0.00417	0.76952	0.64692	1.562
Mof_La	La	0.59347	0.52825	0.18469	2.166
Mof_La	La	0.87947	0.30589	0.55053	1.864
Mof_La	La	0.49583	0.26952	0.35308	1.563
Mof_La	La	0.40653	0.97175	0.68469	2.165
Mof_La	La	0.12053	0.19411	0.05053	1.863
Mof_La	La	0.50417	0.23048	0.85308	1.563
Mof_H 	H 	0.8608	0.2462	0.976	0.028
Mof_H 	H 	0.8206	0.2002	0.9124	0.004
Mof_H 	H 	0.1481	0.579	0.8111	0.047
Mof_H 	H 	0.1006	0.4869	0.8105	0.046
Mof_H 	H 	0.7138	0.2127	0.8911	0.042
Mof_H 	H 	0.6328	0.4919	0.59	0.031
Mof_H 	H 	0.7156	0.4247	0.5822	0.031
Mof_H 	H 	0.6519	0.5739	0.6294	0.025
Mof_H 	H 	0.1044	0.6507	0.7661	0.028
Mof_H 	H 	0.1392	0.2538	0.476	0.028
Mof_H 	H 	0.1794	0.2998	0.4124	0.004
Mof_H 	H 	0.8519	0.921	0.3111	0.048
Mof_H 	H 	0.8994	0.0131	0.3105	0.044
Mof_H 	H 	0.2862	0.2873	0.3911	0.042
Mof_H 	H 	0.3672	0.0081	0.09	0.031
Mof_H 	H 	0.2844	0.0753	0.0822	0.031
Mof_H 	H 	0.3481	0.9261	0.1294	0.026
Mof_H 	H 	0.8956	0.8493	0.2661	0.028
Mof_H 	H 	0.3608	0.7538	0.524	0.028
Mof_H 	H 	0.3206	0.7998	0.5876	0.004
Mof_H 	H 	0.6481	0.421	0.6889	0.047
Mof_H 	H 	0.6006	0.5131	0.6895	0.046
Mof_H 	H 	0.2138	0.7873	0.6089	0.042
Mof_H 	H 	0.1328	0.5081	0.91	0.031
Mof_H 	H 	0.2156	0.5753	0.9178	0.031
Mof_H 	H 	0.1519	0.4261	0.8706	0.025
Mof_H 	H 	0.6044	0.3493	0.7339	0.028
Mof_H 	H 	0.6392	0.7462	0.024	0.028
Mof_H 	H 	0.6794	0.7002	0.0876	0.004
Mof_H 	H 	0.3519	0.079	0.1889	0.047
Mof_H 	H 	0.3994	0.9869	0.1895	0.046
Mof_H 	H 	0.7862	0.7127	0.1089	0.042
Mof_H 	H 	0.8672	0.9919	0.41	0.03
Mof_H 	H 	0.7844	0.9247	0.4178	0.032
Mof_H 	H 	0.8481	0.0739	0.3706	0.027
Mof_H 	H 	0.3956	0.1507	0.2339	0.028
Mof_H 	H 	0.1392	0.7538	0.024	0.028
Mof_H 	H 	0.1794	0.7998	0.0876	0.004
Mof_H 	H 	0.8519	0.421	0.1889	0.047
Mof_H 	H 	0.8994	0.5131	0.1895	0.046
Mof_H 	H 	0.2862	0.7873	0.1089	0.042
Mof_H 	H 	0.3672	0.5081	0.41	0.031
Mof_H 	H 	0.2844	0.5753	0.4178	0.031
Mof_H 	H 	0.3481	0.4261	0.3706	0.025
Mof_H 	H 	0.8956	0.3493	0.2339	0.028
Mof_H 	H 	0.8608	0.7462	0.524	0.028
Mof_H 	H 	0.8206	0.7002	0.5876	0.004
Mof_H 	H 	0.1481	0.079	0.6889	0.048
Mof_H 	H 	0.1006	0.9869	0.6895	0.044
Mof_H 	H 	0.7138	0.7127	0.6089	0.042
Mof_H 	H 	0.6328	0.9919	0.91	0.031
Mof_H 	H 	0.7156	0.9247	0.9178	0.031
Mof_H 	H 	0.6519	0.0739	0.8706	0.026
Mof_H 	H 	0.1044	0.1507	0.7339	0.028
Mof_H 	H 	0.6392	0.2462	0.476	0.028
Mof_H 	H 	0.6794	0.2002	0.4124	0.004
Mof_H 	H 	0.3519	0.579	0.3111	0.047
Mof_H 	H 	0.3994	0.4869	0.3105	0.046
Mof_H 	H 	0.7862	0.2127	0.3911	0.042
Mof_H 	H 	0.8672	0.4919	0.09	0.031
Mof_H 	H 	0.7844	0.4247	0.0822	0.031
Mof_H 	H 	0.8481	0.5739	0.1294	0.025
Mof_H 	H 	0.3956	0.6507	0.2661	0.028
Mof_H 	H 	0.3608	0.2538	0.976	0.028
Mof_H 	H 	0.3206	0.2998	0.9124	0.004
Mof_H 	H 	0.6481	0.921	0.8111	0.047
Mof_H 	H 	0.6006	0.0131	0.8105	0.046
Mof_H 	H 	0.2138	0.2873	0.8911	0.042
Mof_H 	H 	0.1328	0.0081	0.59	0.03
Mof_H 	H 	0.2156	0.0753	0.5822	0.032
Mof_H 	H 	0.1519	0.9261	0.6294	0.027
Mof_H 	H 	0.6044	0.8493	0.7661	0.028
Mof_W 	W 	0.87021	0.40304	0.86749	1.301
Mof_W 	W 	0.93433	0.52319	0.90072	1
Mof_W 	W 	0.66184	0.62945	0.90844	1.012
Mof_W 	W 	0.84985	0.59963	0.80816	1.018
Mof_W 	W 	0.84814	0.44539	0.97073	1.027
Mof_W 	W 	0.59715	0.49119	0.86955	1.31
Mof_W 	W 	0.81952	0.6394	0.92614	1.332
Mof_W 	W 	0.69306	0.58056	0.79207	1.017
Mof_W 	W 	0.69335	0.38319	0.84647	1.032
Mof_W 	W 	0.79272	0.47765	0.77482	1.274
Mof_W 	W 	0.67242	0.42321	0.95039	1.331
Mof_W 	W 	0.72974	0.56167	0.99332	1.018
Mof_W 	W 	0.12979	0.09696	0.36749	1.301
Mof_W 	W 	0.06567	0.97681	0.40072	0.996
Mof_W 	W 	0.33816	0.87055	0.40844	1.012
Mof_W 	W 	0.15015	0.90037	0.30816	1.017
Mof_W 	W 	0.15186	0.05461	0.47073	1.029
Mof_W 	W 	0.40285	0.00881	0.36955	1.31
Mof_W 	W 	0.18048	0.8606	0.42614	1.332
Mof_W 	W 	0.30694	0.91945	0.29207	1.017
Mof_W 	W 	0.30665	0.11681	0.34647	1.033
Mof_W 	W 	0.20728	0.02235	0.27482	1.275
Mof_W 	W 	0.32758	0.07679	0.45039	1.331
Mof_W 	W 	0.27026	0.93833	0.49332	1.018
Mof_W 	W 	0.37021	0.59696	0.63251	1.301
Mof_W 	W 	0.43433	0.47681	0.59929	0.999
Mof_W 	W 	0.16184	0.37055	0.59156	1.012
Mof_W 	W 	0.34985	0.40037	0.69184	1.017
Mof_W 	W 	0.34814	0.55461	0.52927	1.028
Mof_W 	W 	0.09715	0.50881	0.63045	1.31
Mof_W 	W 	0.31952	0.3606	0.57386	1.332
Mof_W 	W 	0.19306	0.41945	0.70793	1.017
Mof_W 	W 	0.19335	0.61681	0.65353	1.032
Mof_W 	W 	0.29272	0.52235	0.72518	1.274
Mof_W 	W 	0.17242	0.57679	0.54961	1.331
Mof_W 	W 	0.22974	0.43833	0.50668	1.018
Mof_W 	W 	0.62979	0.90304	0.13251	1.301
Mof_W 	W 	0.56567	0.02319	0.09929	0.998
Mof_W 	W 	0.83816	0.12945	0.09156	1.012
Mof_W 	W 	0.65015	0.09963	0.19184	1.017
Mof_W 	W 	0.65186	0.94539	0.02928	1.029
Mof_W 	W 	0.90285	0.99119	0.13045	1.313
Mof_W 	W 	0.68048	0.1394	0.07386	1.332
Mof_W 	W 	0.80694	0.08056	0.20793	1.017
Mof_W 	W 	0.80665	0.88319	0.15353	1.033
Mof_W 	W 	0.70728	0.97765	0.22518	1.276
Mof_W 	W 	0.82758	0.92321	0.04961	1.331
Mof_W 	W 	0.77026	0.06167	0.00668	1.016
Mof_W 	W 	0.12979	0.59696	0.13251	1.301
Mof_W 	W 	0.06567	0.47681	0.09929	1
Mof_W 	W 	0.33816	0.37055	0.09156	1.012
Mof_W 	W 	0.15015	0.40037	0.19184	1.018
Mof_W 	W 	0.15186	0.55461	0.02928	1.027
Mof_W 	W 	0.40285	0.50881	0.13045	1.31
Mof_W 	W 	0.18048	0.3606	0.07386	1.332
Mof_W 	W 	0.30694	0.41945	0.20793	1.017
Mof_W 	W 	0.30665	0.61681	0.15353	1.032
Mof_W 	W 	0.20728	0.52235	0.22518	1.274
Mof_W 	W 	0.32758	0.57679	0.04961	1.331
Mof_W 	W 	0.27026	0.43833	0.00668	1.018
Mof_W 	W 	0.87021	0.90304	0.63251	1.301
Mof_W 	W 	0.93433	0.02319	0.59929	0.996
Mof_W 	W 	0.66184	0.12945	0.59156	1.012
Mof_W 	W 	0.84985	0.09963	0.69184	1.017
Mof_W 	W 	0.84814	0.94539	0.52927	1.029
Mof_W 	W 	0.59715	0.99119	0.63045	1.31
Mof_W 	W 	0.81952	0.1394	0.57386	1.332
Mof_W 	W 	0.69306	0.08056	0.70793	1.017
Mof_W 	W 	0.69335	0.88319	0.65353	1.033
Mof_W 	W 	0.79272	0.97765	0.72518	1.275
Mof_W 	W 	0.67242	0.92321	0.54961	1.331
Mof_W 	W 	0.72974	0.06167	0.50668	1.018
Mof_W 	W 	0.62979	0.40304	0.36749	1.301
Mof_W 	W 	0.56567	0.52319	0.40072	0.999
Mof_W 	W 	0.83816	0.62945	0.40844	1.012
Mof_W 	W 	0.65015	0.59963	0.30816	1.017
Mof_W 	W 	0.65186	0.44539	0.47073	1.028
Mof_W 	W 	0.90285	0.49119	0.36955	1.31
Mof_W 	W 	0.68048	0.6394	0.42614	1.332
Mof_W 	W 	0.80694	0.58056	0.29207	1.017
Mof_W 	W 	0.80665	0.38319	0.34647	1.032
Mof_W 	W 	0.70728	0.47765	0.27482	1.274
Mof_W 	W 	0.82758	0.42321	0.45039	1.331
Mof_W 	W 	0.77026	0.56167	0.49332	1.018
Mof_W 	W 	0.37021	0.09696	0.86749	1.301
Mof_W 	W 	0.43433	0.97681	0.90072	0.998
Mof_W 	W 	0.16184	0.87055	0.90844	1.012
Mof_W 	W 	0.34985	0.90037	0.80816	1.017
Mof_W 	W 	0.34814	0.05461	0.97073	1.029
Mof_W 	W 	0.09715	0.00881	0.86955	1.313
Mof_W 	W 	0.31952	0.8606	0.92614	1.332
Mof_W 	W 	0.19306	0.91945	0.79207	1.017
Mof_W 	W 	0.19335	0.11681	0.84647	1.033
Mof_W 	W 	0.29272	0.02235	0.77482	1.276
Mof_W 	W 	0.17242	0.07679	0.95039	1.331
Mof_W 	W 	0.22974	0.93833	0.99332	1.016
Mof_C 	C 	0.8164	0.2437	0.9702	-0.051
Mof_C 	C 	0.7922	0.2198	0.9311	-0.028
Mof_C 	C 	0.1121	0.5716	0.793	-0.04
Mof_C 	C 	0.084	0.5164	0.79318	-0.032
Mof_C 	C 	0.7288	0.2241	0.9191	-0.029
Mof_C 	C 	0.7899	0.2869	0.042	0.276
Mof_C 	C 	0.6734	0.498	0.6031	-0.068
Mof_C 	C 	0.6865	0.2473	0.95232	-0.051
Mof_C 	C 	0.7703	0.2634	0.99944	0
Mof_C 	C 	0.7222	0.4577	0.59868	-0.012
Mof_C 	C 	0.0313	0.5099	0.76612	-0.028
Mof_C 	C 	0.7458	0.5554	0.64681	-0.063
Mof_C 	C 	0.8412	0.4291	0.61586	0.438
Mof_C 	C 	0.6846	0.5467	0.62668	-0.011
Mof_C 	C 	0.0869	0.6143	0.7665	-0.035
Mof_C 	C 	0.7679	0.6074	0.67047	0.35
Mof_C 	C 	0.7818	0.4685	0.62	-0.068
Mof_C 	C 	0.0006	0.4554	0.75996	0.291
Mof_C 	C 	0.0049	0.6427	0.70757	0.373
Mof_C 	C 	0.6134	0.2511	0.94416	0.455
Mof_C 	C 	0.0352	0.5997	0.74124	-0.032
Mof_C 	C 	0.1836	0.2563	0.4702	-0.051
Mof_C 	C 	0.2078	0.2802	0.4311	-0.028
Mof_C 	C 	0.8879	0.9284	0.293	-0.042
Mof_C 	C 	0.916	0.9836	0.29318	-0.029
Mof_C 	C 	0.2712	0.2759	0.4191	-0.029
Mof_C 	C 	0.2101	0.2131	0.542	0.276
Mof_C 	C 	0.3266	0.002	0.1031	-0.067
Mof_C 	C 	0.3135	0.2527	0.45232	-0.051
Mof_C 	C 	0.2297	0.2366	0.49944	0
Mof_C 	C 	0.2778	0.0423	0.09868	-0.013
Mof_C 	C 	0.9687	0.9901	0.26612	-0.026
Mof_C 	C 	0.2542	0.9446	0.14681	-0.063
Mof_C 	C 	0.1588	0.0709	0.11586	0.438
Mof_C 	C 	0.3154	0.9533	0.12668	-0.012
Mof_C 	C 	0.9131	0.8857	0.2665	-0.033
Mof_C 	C 	0.2321	0.8926	0.17047	0.35
Mof_C 	C 	0.2182	0.0315	0.12	-0.067
Mof_C 	C 	0.9994	0.0446	0.25996	0.286
Mof_C 	C 	0.9951	0.8573	0.20757	0.376
Mof_C 	C 	0.3866	0.2489	0.44416	0.455
Mof_C 	C 	0.9648	0.9003	0.24124	-0.033
Mof_C 	C 	0.3164	0.7563	0.5298	-0.051
Mof_C 	C 	0.2922	0.7802	0.5689	-0.029
Mof_C 	C 	0.6121	0.4284	0.707	-0.04
Mof_C 	C 	0.584	0.4836	0.70682	-0.033
Mof_C 	C 	0.2288	0.7759	0.5809	-0.029
Mof_C 	C 	0.2899	0.7131	0.458	0.276
Mof_C 	C 	0.1734	0.502	0.8969	-0.068
Mof_C 	C 	0.1865	0.7527	0.54768	-0.051
Mof_C 	C 	0.2703	0.7366	0.50056	-0
Mof_C 	C 	0.2222	0.5423	0.90132	-0.012
Mof_C 	C 	0.5313	0.4901	0.73388	-0.028
Mof_C 	C 	0.2458	0.4446	0.85319	-0.063
Mof_C 	C 	0.3412	0.5709	0.88414	0.438
Mof_C 	C 	0.1846	0.4533	0.87332	-0.011
Mof_C 	C 	0.5869	0.3857	0.7335	-0.035
Mof_C 	C 	0.2679	0.3926	0.82953	0.35
Mof_C 	C 	0.2818	0.5315	0.88	-0.068
Mof_C 	C 	0.5006	0.5446	0.74004	0.29
Mof_C 	C 	0.5049	0.3573	0.79243	0.373
Mof_C 	C 	0.1134	0.7489	0.55584	0.455
Mof_C 	C 	0.5352	0.4003	0.75876	-0.032
Mof_C 	C 	0.6836	0.7437	0.0298	-0.051
Mof_C 	C 	0.7078	0.7198	0.0689	-0.028
Mof_C 	C 	0.3879	0.0716	0.207	-0.04
Mof_C 	C 	0.416	0.0164	0.20682	-0.032
Mof_C 	C 	0.7712	0.7241	0.0809	-0.03
Mof_C 	C 	0.7101	0.7869	0.958	0.276
Mof_C 	C 	0.8266	0.998	0.3969	-0.064
Mof_C 	C 	0.8135	0.7473	0.04768	-0.051
Mof_C 	C 	0.7297	0.7634	0.00056	0.001
Mof_C 	C 	0.7778	0.9577	0.40132	-0.015
Mof_C 	C 	0.4687	0.0099	0.23388	-0.028
Mof_C 	C 	0.7542	0.0554	0.35319	-0.062
Mof_C 	C 	0.6588	0.9291	0.38414	0.438
Mof_C 	C 	0.8154	0.0467	0.37332	-0.015
Mof_C 	C 	0.4131	0.1143	0.2335	-0.035
Mof_C 	C 	0.7321	0.1074	0.32953	0.349
Mof_C 	C 	0.7182	0.9685	0.38	-0.066
Mof_C 	C 	0.4994	0.9554	0.24004	0.29
Mof_C 	C 	0.4951	0.1427	0.29243	0.373
Mof_C 	C 	0.8866	0.7511	0.05584	0.455
Mof_C 	C 	0.4648	0.0997	0.25876	-0.032
Mof_C 	C 	0.1836	0.7563	0.0298	-0.051
Mof_C 	C 	0.2078	0.7802	0.0689	-0.028
Mof_C 	C 	0.8879	0.4284	0.207	-0.04
Mof_C 	C 	0.916	0.4836	0.20682	-0.032
Mof_C 	C 	0.2712	0.7759	0.0809	-0.029
Mof_C 	C 	0.2101	0.7131	0.958	0.276
Mof_C 	C 	0.3266	0.502	0.3969	-0.068
Mof_C 	C 	0.3135	0.7527	0.04768	-0.051
Mof_C 	C 	0.2297	0.7366	0.00056	0
Mof_C 	C 	0.2778	0.5423	0.40132	-0.012
Mof_C 	C 	0.9687	0.4901	0.23388	-0.028
Mof_C 	C 	0.2542	0.4446	0.35319	-0.063
Mof_C 	C 	0.1588	0.5709	0.38414	0.438
Mof_C 	C 	0.3154	0.4533	0.37332	-0.011
Mof_C 	C 	0.9131	0.3857	0.2335	-0.035
Mof_C 	C 	0.2321	0.3926	0.32953	0.35
Mof_C 	C 	0.2182	0.5315	0.38	-0.068
Mof_C 	C 	0.9994	0.5446	0.24004	0.291
Mof_C 	C 	0.9951	0.3573	0.29243	0.373
Mof_C 	C 	0.3866	0.7489	0.05584	0.455
Mof_C 	C 	0.9648	0.4003	0.25876	-0.032
Mof_C 	C 	0.8164	0.7437	0.5298	-0.051
Mof_C 	C 	0.7922	0.7198	0.5689	-0.028
Mof_C 	C 	0.1121	0.0716	0.707	-0.042
Mof_C 	C 	0.084	0.0164	0.70682	-0.029
Mof_C 	C 	0.7288	0.7241	0.5809	-0.029
Mof_C 	C 	0.7899	0.7869	0.458	0.276
Mof_C 	C 	0.6734	0.998	0.8969	-0.067
Mof_C 	C 	0.6865	0.7473	0.54768	-0.051
Mof_C 	C 	0.7703	0.7634	0.50056	0
Mof_C 	C 	0.7222	0.9577	0.90132	-0.013
Mof_C 	C 	0.0313	0.0099	0.73388	-0.026
Mof_C 	C 	0.7458	0.0554	0.85319	-0.063
Mof_C 	C 	0.8412	0.9291	0.88414	0.438
Mof_C 	C 	0.6846	0.0467	0.87332	-0.012
Mof_C 	C 	0.0869	0.1143	0.7335	-0.033
Mof_C 	C 	0.7679	0.1074	0.82953	0.35
Mof_C 	C 	0.7818	0.9685	0.88	-0.067
Mof_C 	C 	0.0006	0.9554	0.74004	0.286
Mof_C 	C 	0.0049	0.1427	0.79243	0.376
Mof_C 	C 	0.6134	0.7511	0.55584	0.455
Mof_C 	C 	0.0352	0.0997	0.75876	-0.033
Mof_C 	C 	0.6836	0.2437	0.4702	-0.051
Mof_C 	C 	0.7078	0.2198	0.4311	-0.029
Mof_C 	C 	0.3879	0.5716	0.293	-0.04
Mof_C 	C 	0.416	0.5164	0.29318	-0.033
Mof_C 	C 	0.7712	0.2241	0.4191	-0.029
Mof_C 	C 	0.7101	0.2869	0.542	0.276
Mof_C 	C 	0.8266	0.498	0.1031	-0.068
Mof_C 	C 	0.8135	0.2473	0.45232	-0.051
Mof_C 	C 	0.7297	0.2634	0.49944	-0
Mof_C 	C 	0.7778	0.4577	0.09868	-0.012
Mof_C 	C 	0.4687	0.5099	0.26612	-0.028
Mof_C 	C 	0.7542	0.5554	0.14681	-0.063
Mof_C 	C 	0.6588	0.4291	0.11586	0.438
Mof_C 	C 	0.8154	0.5467	0.12668	-0.011
Mof_C 	C 	0.4131	0.6143	0.2665	-0.035
Mof_C 	C 	0.7321	0.6074	0.17047	0.35
Mof_C 	C 	0.7182	0.4685	0.12	-0.068
Mof_C 	C 	0.4994	0.4554	0.25996	0.29
Mof_C 	C 	0.4951	0.6427	0.20757	0.373
Mof_C 	C 	0.8866	0.2511	0.44416	0.455
Mof_C 	C 	0.4648	0.5997	0.24124	-0.032
Mof_C 	C 	0.3164	0.2563	0.9702	-0.051
Mof_C 	C 	0.2922	0.2802	0.9311	-0.028
Mof_C 	C 	0.6121	0.9284	0.793	-0.04
Mof_C 	C 	0.584	0.9836	0.79318	-0.032
Mof_C 	C 	0.2288	0.2759	0.9191	-0.03
Mof_C 	C 	0.2899	0.2131	0.042	0.276
Mof_C 	C 	0.1734	0.002	0.6031	-0.064
Mof_C 	C 	0.1865	0.2527	0.95232	-0.051
Mof_C 	C 	0.2703	0.2366	0.99944	0.001
Mof_C 	C 	0.2222	0.0423	0.59868	-0.015
Mof_C 	C 	0.5313	0.9901	0.76612	-0.028
Mof_C 	C 	0.2458	0.9446	0.64681	-0.062
Mof_C 	C 	0.3412	0.0709	0.61586	0.438
Mof_C 	C 	0.1846	0.9533	0.62668	-0.015
Mof_C 	C 	0.5869	0.8857	0.7665	-0.035
Mof_C 	C 	0.2679	0.8926	0.67047	0.349
Mof_C 	C 	0.2818	0.0315	0.62	-0.066
Mof_C 	C 	0.5006	0.0446	0.75996	0.29
Mof_C 	C 	0.5049	0.8573	0.70757	0.373
Mof_C 	C 	0.1134	0.2489	0.94416	0.455
Mof_C 	C 	0.5352	0.9003	0.74124	-0.032
Mof_N 	N 	0.00698	0.5512	0.73957	-0.196
Mof_N 	N 	0.7938	0.51486	0.64365	-0.203
Mof_N 	N 	0.7084	0.2661	0.99175	-0.175
Mof_N 	N 	0.99302	0.9488	0.23957	-0.196
Mof_N 	N 	0.2062	0.98514	0.14365	-0.203
Mof_N 	N 	0.2916	0.2339	0.49175	-0.175
Mof_N 	N 	0.50698	0.4488	0.76043	-0.196
Mof_N 	N 	0.2938	0.48514	0.85635	-0.203
Mof_N 	N 	0.2084	0.7339	0.50825	-0.175
Mof_N 	N 	0.49302	0.0512	0.26043	-0.196
Mof_N 	N 	0.7062	0.01486	0.35635	-0.204
Mof_N 	N 	0.7916	0.7661	0.00825	-0.175
Mof_N 	N 	0.99302	0.4488	0.26043	-0.196
Mof_N 	N 	0.2062	0.48514	0.35635	-0.203
Mof_N 	N 	0.2916	0.7339	0.00825	-0.175
Mof_N 	N 	0.00698	0.0512	0.76043	-0.196
Mof_N 	N 	0.7938	0.01486	0.85635	-0.203
Mof_N 	N 	0.7084	0.7661	0.50825	-0.175
Mof_N 	N 	0.49302	0.5512	0.23957	-0.196
Mof_N 	N 	0.7062	0.51486	0.14365	-0.203
Mof_N 	N 	0.7916	0.2661	0.49175	-0.175
Mof_N 	N 	0.50698	0.9488	0.73957	-0.196
Mof_N 	N 	0.2938	0.98514	0.64365	-0.204
Mof_N 	N 	0.2084	0.2339	0.99175	-0.175
Mof_O 	O 	0.74727	0.57107	0.91917	-0.344
Mof_O 	O 	0.83759	0.47874	0.90013	-0.356
Mof_O 	O 	0.61165	0.55872	0.89912	-0.488
Mof_O 	O 	0.69771	0.46615	0.88717	-0.371
Mof_O 	O 	0.88514	0.58681	0.9298	-0.473
Mof_O 	O 	0.92546	0.48673	0.96011	-0.441
Mof_O 	O 	0.725	0.52711	0.74939	-0.453
Mof_O 	O 	0.85768	0.54139	0.76365	-0.591
Mof_O 	O 	0.85594	0.44487	0.81294	-0.476
Mof_O 	O 	0.89161	0.44224	0.63704	-0.515
Mof_O 	O 	0.73273	0.67707	0.9179	-0.455
Mof_O 	O 	0.51492	0.4942	0.85465	-0.569
Mof_O 	O 	0.79084	0.6217	0.98701	-0.455
Mof_O 	O 	0.78538	0.37656	0.86354	-0.477
Mof_O 	O 	0.67225	0.36323	0.90639	-0.477
Mof_O 	O 	0.81706	0.45026	0.72296	-0.471
Mof_O 	O 	0.63595	0.52576	0.81744	-0.462
Mof_O 	O 	0.95101	0.45172	0.87455	-0.444
Mof_O 	O 	0.67799	0.4967	0.97874	-0.47
Mof_O 	O 	0.73213	0.42668	0.7973	-0.47
Mof_O 	O 	0.77031	0.62802	0.78207	-0.431
Mof_O 	O 	0.80215	0.50977	0.9926	-0.444
Mof_O 	O 	0.63914	0.38362	0.99318	-0.566
Mof_O 	O 	0.76094	0.41295	0.96134	-0.471
Mof_O 	O 	0.8612	0.70125	0.93976	-0.591
Mof_O 	O 	0.91579	0.3444	0.84923	-0.567
Mof_O 	O 	0.5937	0.2365	0.9068	-0.526
Mof_O 	O 	0.8527	0.2899	0.05029	-0.273
Mof_O 	O 	0.8359	0.3888	0.59043	-0.512
Mof_O 	O 	0.7477	0.3049	0.07011	-0.363
Mof_O 	O 	0.6128	0.41736	0.83743	-0.465
Mof_O 	O 	0.959	0.44588	0.72936	-0.404
Mof_O 	O 	0.90862	0.55759	0.84664	-0.452
Mof_O 	O 	0.58936	0.44701	0.9234	-0.491
Mof_O 	O 	0.5797	0.2692	0.97509	-0.514
Mof_O 	O 	0.82341	0.6104	0.68427	-0.468
Mof_O 	O 	0.8782	0.38641	0.93075	-0.472
Mof_O 	O 	0.66083	0.61116	0.97156	-0.45
Mof_O 	O 	0.7762	0.53598	0.82674	-0.372
Mof_O 	O 	0.67924	0.6255	0.84629	-0.446
Mof_O 	O 	0.72454	0.64656	0.674	-0.293
Mof_O 	O 	0.0284	0.6919	0.70455	-0.485
Mof_O 	O 	0.9576	0.62425	0.68471	-0.529
Mof_O 	O 	0.02052	0.41335	0.78641	-0.28
Mof_O 	O 	0.82629	0.63936	0.86389	-0.484
Mof_O 	O 	0.25273	0.92893	0.41917	-0.345
Mof_O 	O 	0.16241	0.02126	0.40013	-0.355
Mof_O 	O 	0.38835	0.94128	0.39912	-0.488
Mof_O 	O 	0.30229	0.03385	0.38717	-0.371
Mof_O 	O 	0.11486	0.91319	0.4298	-0.473
Mof_O 	O 	0.07454	0.01327	0.46011	-0.44
Mof_O 	O 	0.275	0.97289	0.24939	-0.453
Mof_O 	O 	0.14232	0.95861	0.26365	-0.591
Mof_O 	O 	0.14406	0.05513	0.31294	-0.476
Mof_O 	O 	0.10839	0.05776	0.13704	-0.515
Mof_O 	O 	0.26727	0.82293	0.4179	-0.455
Mof_O 	O 	0.48508	0.0058	0.35465	-0.569
Mof_O 	O 	0.20916	0.8783	0.48701	-0.455
Mof_O 	O 	0.21462	0.12344	0.36354	-0.477
Mof_O 	O 	0.32775	0.13677	0.40639	-0.477
Mof_O 	O 	0.18294	0.04974	0.22296	-0.471
Mof_O 	O 	0.36405	0.97424	0.31744	-0.463
Mof_O 	O 	0.04899	0.04828	0.37455	-0.442
Mof_O 	O 	0.32201	0.0033	0.47874	-0.469
Mof_O 	O 	0.26787	0.07332	0.2973	-0.47
Mof_O 	O 	0.22969	0.87198	0.28207	-0.431
Mof_O 	O 	0.19785	0.99023	0.4926	-0.445
Mof_O 	O 	0.36086	0.11638	0.49318	-0.566
Mof_O 	O 	0.23906	0.08705	0.46134	-0.471
Mof_O 	O 	0.1388	0.79875	0.43976	-0.592
Mof_O 	O 	0.08421	0.1556	0.34923	-0.566
Mof_O 	O 	0.4063	0.2635	0.4068	-0.526
Mof_O 	O 	0.1473	0.2101	0.55029	-0.272
Mof_O 	O 	0.1641	0.1112	0.09043	-0.512
Mof_O 	O 	0.2523	0.1951	0.57011	-0.363
Mof_O 	O 	0.3872	0.08264	0.33743	-0.465
Mof_O 	O 	0.041	0.05412	0.22936	-0.401
Mof_O 	O 	0.09138	0.94241	0.34664	-0.452
Mof_O 	O 	0.41064	0.05299	0.4234	-0.491
Mof_O 	O 	0.4203	0.2308	0.47509	-0.514
Mof_O 	O 	0.17659	0.8896	0.18427	-0.468
Mof_O 	O 	0.1218	0.11359	0.43075	-0.472
Mof_O 	O 	0.33917	0.88884	0.47156	-0.45
Mof_O 	O 	0.2238	0.96402	0.32674	-0.373
Mof_O 	O 	0.32076	0.8745	0.34629	-0.446
Mof_O 	O 	0.27546	0.85344	0.174	-0.293
Mof_O 	O 	0.9716	0.8081	0.20455	-0.486
Mof_O 	O 	0.0424	0.87575	0.18471	-0.531
Mof_O 	O 	0.97948	0.08665	0.28641	-0.28
Mof_O 	O 	0.17371	0.86064	0.36389	-0.484
Mof_O 	O 	0.24727	0.42893	0.58083	-0.344
Mof_O 	O 	0.33759	0.52126	0.59987	-0.356
Mof_O 	O 	0.11165	0.44128	0.60088	-0.488
Mof_O 	O 	0.19771	0.53385	0.61283	-0.371
Mof_O 	O 	0.38514	0.41319	0.5702	-0.473
Mof_O 	O 	0.42546	0.51327	0.53989	-0.441
Mof_O 	O 	0.225	0.47289	0.75061	-0.453
Mof_O 	O 	0.35768	0.45861	0.73635	-0.591
Mof_O 	O 	0.35594	0.55513	0.68706	-0.476
Mof_O 	O 	0.39161	0.55776	0.86296	-0.515
Mof_O 	O 	0.23273	0.32293	0.5821	-0.455
Mof_O 	O 	0.01492	0.5058	0.64535	-0.569
Mof_O 	O 	0.29084	0.3783	0.51299	-0.455
Mof_O 	O 	0.28538	0.62344	0.63646	-0.477
Mof_O 	O 	0.17225	0.63677	0.59361	-0.477
Mof_O 	O 	0.31706	0.54974	0.77704	-0.471
Mof_O 	O 	0.13595	0.47424	0.68256	-0.462
Mof_O 	O 	0.45101	0.54828	0.62545	-0.444
Mof_O 	O 	0.17799	0.5033	0.52126	-0.47
Mof_O 	O 	0.23213	0.57332	0.7027	-0.47
Mof_O 	O 	0.27031	0.37198	0.71793	-0.431
Mof_O 	O 	0.30215	0.49023	0.5074	-0.444
Mof_O 	O 	0.13914	0.61638	0.50682	-0.566
Mof_O 	O 	0.26094	0.58705	0.53866	-0.471
Mof_O 	O 	0.3612	0.29875	0.56024	-0.591
Mof_O 	O 	0.41579	0.6556	0.65077	-0.567
Mof_O 	O 	0.0937	0.7635	0.5932	-0.526
Mof_O 	O 	0.3527	0.7101	0.44971	-0.272
Mof_O 	O 	0.3359	0.6112	0.90957	-0.512
Mof_O 	O 	0.2477	0.6951	0.42989	-0.363
Mof_O 	O 	0.1128	0.58264	0.66257	-0.465
Mof_O 	O 	0.459	0.55412	0.77064	-0.404
Mof_O 	O 	0.40862	0.44241	0.65336	-0.452
Mof_O 	O 	0.08936	0.55299	0.5766	-0.491
Mof_O 	O 	0.0797	0.7308	0.52491	-0.514
Mof_O 	O 	0.32341	0.3896	0.81573	-0.468
Mof_O 	O 	0.3782	0.61359	0.56925	-0.472
Mof_O 	O 	0.16083	0.38884	0.52844	-0.45
Mof_O 	O 	0.2762	0.46402	0.67326	-0.372
Mof_O 	O 	0.17924	0.3745	0.65371	-0.445
Mof_O 	O 	0.22454	0.35344	0.826	-0.294
Mof_O 	O 	0.5284	0.3081	0.79545	-0.485
Mof_O 	O 	0.4576	0.37575	0.81529	-0.53
Mof_O 	O 	0.52052	0.58665	0.71359	-0.28
Mof_O 	O 	0.32629	0.36064	0.63611	-0.484
Mof_O 	O 	0.75273	0.07107	0.08083	-0.345
Mof_O 	O 	0.66241	0.97874	0.09987	-0.355
Mof_O 	O 	0.88835	0.05872	0.10088	-0.49
Mof_O 	O 	0.80229	0.96615	0.11283	-0.37
Mof_O 	O 	0.61486	0.08681	0.0702	-0.473
Mof_O 	O 	0.57454	0.98673	0.03989	-0.441
Mof_O 	O 	0.775	0.02711	0.25061	-0.454
Mof_O 	O 	0.64232	0.04139	0.23635	-0.591
Mof_O 	O 	0.64406	0.94487	0.18706	-0.476
Mof_O 	O 	0.60839	0.94224	0.36296	-0.515
Mof_O 	O 	0.76727	0.17707	0.0821	-0.455
Mof_O 	O 	0.98508	0.9942	0.14535	-0.568
Mof_O 	O 	0.70916	0.1217	0.01299	-0.455
Mof_O 	O 	0.71462	0.87656	0.13646	-0.477
Mof_O 	O 	0.82775	0.86323	0.09361	-0.477
Mof_O 	O 	0.68294	0.95026	0.27704	-0.471
Mof_O 	O 	0.86405	0.02576	0.18256	-0.464
Mof_O 	O 	0.54899	0.95172	0.12545	-0.443
Mof_O 	O 	0.82201	0.9967	0.02126	-0.468
Mof_O 	O 	0.76787	0.92668	0.2027	-0.47
Mof_O 	O 	0.72969	0.12802	0.21793	-0.431
Mof_O 	O 	0.69785	0.00977	0.0074	-0.445
Mof_O 	O 	0.86086	0.88362	0.00682	-0.565
Mof_O 	O 	0.73906	0.91295	0.03866	-0.471
Mof_O 	O 	0.6388	0.20125	0.06024	-0.592
Mof_O 	O 	0.58421	0.8444	0.15077	-0.567
Mof_O 	O 	0.9063	0.7365	0.0932	-0.527
Mof_O 	O 	0.6473	0.7899	0.94971	-0.273
Mof_O 	O 	0.6641	0.8888	0.40957	-0.511
Mof_O 	O 	0.7523	0.8049	0.92989	-0.363
Mof_O 	O 	0.8872	0.91736	0.16257	-0.465
Mof_O 	O 	0.541	0.94588	0.27064	-0.403
Mof_O 	O 	0.59138	0.05759	0.15336	-0.452
Mof_O 	O 	0.91064	0.94701	0.0766	-0.491
Mof_O 	O 	0.9203	0.7692	0.02491	-0.514
Mof_O 	O 	0.67659	0.1104	0.31573	-0.468
Mof_O 	O 	0.6218	0.88641	0.06925	-0.472
Mof_O 	O 	0.83917	0.11116	0.02844	-0.45
Mof_O 	O 	0.7238	0.03598	0.17326	-0.373
Mof_O 	O 	0.82076	0.1255	0.15371	-0.446
Mof_O 	O 	0.77546	0.14656	0.326	-0.293
Mof_O 	O 	0.4716	0.1919	0.29545	-0.485
Mof_O 	O 	0.5424	0.12425	0.31529	-0.53
Mof_O 	O 	0.47948	0.91335	0.21359	-0.28
Mof_O 	O 	0.67371	0.13936	0.13611	-0.484
Mof_O 	O 	0.25273	0.42893	0.08083	-0.344
Mof_O 	O 	0.16241	0.52126	0.09987	-0.356
Mof_O 	O 	0.38835	0.44128	0.10088	-0.488
Mof_O 	O 	0.30229	0.53385	0.11283	-0.371
Mof_O 	O 	0.11486	0.41319	0.0702	-0.473
Mof_O 	O 	0.07454	0.51327	0.03989	-0.441
Mof_O 	O 	0.275	0.47289	0.25061	-0.453
Mof_O 	O 	0.14232	0.45861	0.23635	-0.591
Mof_O 	O 	0.14406	0.55513	0.18706	-0.476
Mof_O 	O 	0.10839	0.55776	0.36296	-0.515
Mof_O 	O 	0.26727	0.32293	0.0821	-0.455
Mof_O 	O 	0.48508	0.5058	0.14535	-0.569
Mof_O 	O 	0.20916	0.3783	0.01299	-0.455
Mof_O 	O 	0.21462	0.62344	0.13646	-0.477
Mof_O 	O 	0.32775	0.63677	0.09361	-0.477
Mof_O 	O 	0.18294	0.54974	0.27704	-0.471
Mof_O 	O 	0.36405	0.47424	0.18256	-0.462
Mof_O 	O 	0.04899	0.54828	0.12545	-0.444
Mof_O 	O 	0.32201	0.5033	0.02126	-0.47
Mof_O 	O 	0.26787	0.57332	0.2027	-0.47
Mof_O 	O 	0.22969	0.37198	0.21793	-0.431
Mof_O 	O 	0.19785	0.49023	0.0074	-0.444
Mof_O 	O 	0.36086	0.61638	0.00682	-0.566
Mof_O 	O 	0.23906	0.58705	0.03866	-0.471
Mof_O 	O 	0.1388	0.29875	0.06024	-0.591
Mof_O 	O 	0.08421	0.6556	0.15077	-0.567
Mof_O 	O 	0.4063	0.7635	0.0932	-0.526
Mof_O 	O 	0.1473	0.7101	0.94971	-0.273
Mof_O 	O 	0.1641	0.6112	0.40957	-0.512
Mof_O 	O 	0.2523	0.6951	0.92989	-0.363
Mof_O 	O 	0.3872	0.58264	0.16257	-0.465
Mof_O 	O 	0.041	0.55412	0.27064	-0.404
Mof_O 	O 	0.09138	0.44241	0.15336	-0.452
Mof_O 	O 	0.41064	0.55299	0.0766	-0.491
Mof_O 	O 	0.4203	0.7308	0.02491	-0.514
Mof_O 	O 	0.17659	0.3896	0.31573	-0.468
Mof_O 	O 	0.1218	0.61359	0.06925	-0.472
Mof_O 	O 	0.33917	0.38884	0.02844	-0.45
Mof_O 	O 	0.2238	0.46402	0.17326	-0.372
Mof_O 	O 	0.32076	0.3745	0.15371	-0.446
Mof_O 	O 	0.27546	0.35344	0.326	-0.293
Mof_O 	O 	0.9716	0.3081	0.29545	-0.485
Mof_O 	O 	0.0424	0.37575	0.31529	-0.529
Mof_O 	O 	0.97948	0.58665	0.21359	-0.28
Mof_O 	O 	0.17371	0.36064	0.13611	-0.484
Mof_O 	O 	0.74727	0.07107	0.58083	-0.345
Mof_O 	O 	0.83759	0.97874	0.59987	-0.355
Mof_O 	O 	0.61165	0.05872	0.60088	-0.488
Mof_O 	O 	0.69771	0.96615	0.61283	-0.371
Mof_O 	O 	0.88514	0.08681	0.5702	-0.473
Mof_O 	O 	0.92546	0.98673	0.53989	-0.44
Mof_O 	O 	0.725	0.02711	0.75061	-0.453
Mof_O 	O 	0.85768	0.04139	0.73635	-0.591
Mof_O 	O 	0.85594	0.94487	0.68706	-0.476
Mof_O 	O 	0.89161	0.94224	0.86296	-0.515
Mof_O 	O 	0.73273	0.17707	0.5821	-0.455
Mof_O 	O 	0.51492	0.9942	0.64535	-0.569
Mof_O 	O 	0.79084	0.1217	0.51299	-0.455
Mof_O 	O 	0.78538	0.87656	0.63646	-0.477
Mof_O 	O 	0.67225	0.86323	0.59361	-0.477
Mof_O 	O 	0.81706	0.95026	0.77704	-0.471
Mof_O 	O 	0.63595	0.02576	0.68256	-0.463
Mof_O 	O 	0.95101	0.95172	0.62545	-0.442
Mof_O 	O 	0.67799	0.9967	0.52126	-0.469
Mof_O 	O 	0.73213	0.92668	0.7027	-0.47
Mof_O 	O 	0.77031	0.12802	0.71793	-0.431
Mof_O 	O 	0.80215	0.00977	0.5074	-0.445
Mof_O 	O 	0.63914	0.88362	0.50682	-0.566
Mof_O 	O 	0.76094	0.91295	0.53866	-0.471
Mof_O 	O 	0.8612	0.20125	0.56024	-0.592
Mof_O 	O 	0.91579	0.8444	0.65077	-0.566
Mof_O 	O 	0.5937	0.7365	0.5932	-0.526
Mof_O 	O 	0.8527	0.7899	0.44971	-0.272
Mof_O 	O 	0.8359	0.8888	0.90957	-0.512
Mof_O 	O 	0.7477	0.8049	0.42989	-0.363
Mof_O 	O 	0.6128	0.91736	0.66257	-0.465
Mof_O 	O 	0.959	0.94588	0.77064	-0.401
Mof_O 	O 	0.90862	0.05759	0.65336	-0.452
Mof_O 	O 	0.58936	0.94701	0.5766	-0.491
Mof_O 	O 	0.5797	0.7692	0.52491	-0.514
Mof_O 	O 	0.82341	0.1104	0.81573	-0.468
Mof_O 	O 	0.8782	0.88641	0.56925	-0.472
Mof_O 	O 	0.66083	0.11116	0.52844	-0.45
Mof_O 	O 	0.7762	0.03598	0.67326	-0.373
Mof_O 	O 	0.67924	0.1255	0.65371	-0.446
Mof_O 	O 	0.72454	0.14656	0.826	-0.293
Mof_O 	O 	0.0284	0.1919	0.79545	-0.486
Mof_O 	O 	0.9576	0.12425	0.81529	-0.531
Mof_O 	O 	0.02052	0.91335	0.71359	-0.28
Mof_O 	O 	0.82629	0.13936	0.63611	-0.484
Mof_O 	O 	0.75273	0.57107	0.41917	-0.344
Mof_O 	O 	0.66241	0.47874	0.40013	-0.356
Mof_O 	O 	0.88835	0.55872	0.39912	-0.488
Mof_O 	O 	0.80229	0.46615	0.38717	-0.371
Mof_O 	O 	0.61486	0.58681	0.4298	-0.473
Mof_O 	O 	0.57454	0.48673	0.46011	-0.441
Mof_O 	O 	0.775	0.52711	0.24939	-0.453
Mof_O 	O 	0.64232	0.54139	0.26365	-0.591
Mof_O 	O 	0.64406	0.44487	0.31294	-0.476
Mof_O 	O 	0.60839	0.44224	0.13704	-0.515
Mof_O 	O 	0.76727	0.67707	0.4179	-0.455
Mof_O 	O 	0.98508	0.4942	0.35465	-0.569
Mof_O 	O 	0.70916	0.6217	0.48701	-0.455
Mof_O 	O 	0.71462	0.37656	0.36354	-0.477
Mof_O 	O 	0.82775	0.36323	0.40639	-0.477
Mof_O 	O 	0.68294	0.45026	0.22296	-0.471
Mof_O 	O 	0.86405	0.52576	0.31744	-0.462
Mof_O 	O 	0.54899	0.45172	0.37455	-0.444
Mof_O 	O 	0.82201	0.4967	0.47874	-0.47
Mof_O 	O 	0.76787	0.42668	0.2973	-0.47
Mof_O 	O 	0.72969	0.62802	0.28207	-0.431
Mof_O 	O 	0.69785	0.50977	0.4926	-0.444
Mof_O 	O 	0.86086	0.38362	0.49318	-0.566
Mof_O 	O 	0.73906	0.41295	0.46134	-0.471
Mof_O 	O 	0.6388	0.70125	0.43976	-0.591
Mof_O 	O 	0.58421	0.3444	0.34923	-0.567
Mof_O 	O 	0.9063	0.2365	0.4068	-0.526
Mof_O 	O 	0.6473	0.2899	0.55029	-0.272
Mof_O 	O 	0.6641	0.3888	0.09043	-0.512
Mof_O 	O 	0.7523	0.3049	0.57011	-0.363
Mof_O 	O 	0.8872	0.41736	0.33743	-0.465
Mof_O 	O 	0.541	0.44588	0.22936	-0.404
Mof_O 	O 	0.59138	0.55759	0.34664	-0.452
Mof_O 	O 	0.91064	0.44701	0.4234	-0.491
Mof_O 	O 	0.9203	0.2692	0.47509	-0.514
Mof_O 	O 	0.67659	0.6104	0.18427	-0.468
Mof_O 	O 	0.6218	0.38641	0.43075	-0.472
Mof_O 	O 	0.83917	0.61116	0.47156	-0.45
Mof_O 	O 	0.7238	0.53598	0.32674	-0.372
Mof_O 	O 	0.82076	0.6255	0.34629	-0.446
Mof_O 	O 	0.77546	0.64656	0.174	-0.294
Mof_O 	O 	0.4716	0.6919	0.20455	-0.485
Mof_O 	O 	0.5424	0.62425	0.18471	-0.53
Mof_O 	O 	0.47948	0.41335	0.28641	-0.28
Mof_O 	O 	0.67371	0.63936	0.36389	-0.484
Mof_O 	O 	0.24727	0.92893	0.91917	-0.345
Mof_O 	O 	0.33759	0.02126	0.90013	-0.355
Mof_O 	O 	0.11165	0.94128	0.89912	-0.49
Mof_O 	O 	0.19771	0.03385	0.88717	-0.37
Mof_O 	O 	0.38514	0.91319	0.9298	-0.473
Mof_O 	O 	0.42546	0.01327	0.96011	-0.441
Mof_O 	O 	0.225	0.97289	0.74939	-0.454
Mof_O 	O 	0.35768	0.95861	0.76365	-0.591
Mof_O 	O 	0.35594	0.05513	0.81294	-0.476
Mof_O 	O 	0.39161	0.05776	0.63704	-0.515
Mof_O 	O 	0.23273	0.82293	0.9179	-0.455
Mof_O 	O 	0.01492	0.0058	0.85465	-0.568
Mof_O 	O 	0.29084	0.8783	0.98701	-0.455
Mof_O 	O 	0.28538	0.12344	0.86354	-0.477
Mof_O 	O 	0.17225	0.13677	0.90639	-0.477
Mof_O 	O 	0.31706	0.04974	0.72296	-0.471
Mof_O 	O 	0.13595	0.97424	0.81744	-0.464
Mof_O 	O 	0.45101	0.04828	0.87455	-0.443
Mof_O 	O 	0.17799	0.0033	0.97874	-0.468
Mof_O 	O 	0.23213	0.07332	0.7973	-0.47
Mof_O 	O 	0.27031	0.87198	0.78207	-0.431
Mof_O 	O 	0.30215	0.99023	0.9926	-0.445
Mof_O 	O 	0.13914	0.11638	0.99318	-0.565
Mof_O 	O 	0.26094	0.08705	0.96134	-0.471
Mof_O 	O 	0.3612	0.79875	0.93976	-0.592
Mof_O 	O 	0.41579	0.1556	0.84923	-0.567
Mof_O 	O 	0.0937	0.2635	0.9068	-0.527
Mof_O 	O 	0.3527	0.2101	0.05029	-0.273
Mof_O 	O 	0.3359	0.1112	0.59043	-0.511
Mof_O 	O 	0.2477	0.1951	0.07011	-0.363
Mof_O 	O 	0.1128	0.08264	0.83743	-0.465
Mof_O 	O 	0.459	0.05412	0.72936	-0.403
Mof_O 	O 	0.40862	0.94241	0.84664	-0.452
Mof_O 	O 	0.08936	0.05299	0.9234	-0.491
Mof_O 	O 	0.0797	0.2308	0.97509	-0.514
Mof_O 	O 	0.32341	0.8896	0.68427	-0.468
Mof_O 	O 	0.3782	0.11359	0.93075	-0.472
Mof_O 	O 	0.16083	0.88884	0.97156	-0.45
Mof_O 	O 	0.2762	0.96402	0.82674	-0.373
Mof_O 	O 	0.17924	0.8745	0.84629	-0.446
Mof_O 	O 	0.22454	0.85344	0.674	-0.293
Mof_O 	O 	0.5284	0.8081	0.70455	-0.485
Mof_O 	O 	0.4576	0.87575	0.68471	-0.53
Mof_O 	O 	0.52052	0.08665	0.78641	-0.28
Mof_O 	O 	0.32629	0.86064	0.86389	-0.484
_end
