data_functionalizedCrystal
_audit_creation_method	'EQeq! by Chris Wilmer'
_symmetry_space_group_name_H-M	'P1'
_symmetry_Int_Tables_number	1
_symmetry_cell_setting	triclinic
loop_
_symmetry_equiv_pos_as_xyz
  x,y,z
_cell_length_a	16.8446
_cell_length_b	15.1638
_cell_length_c	8.3702
_cell_angle_alpha	90
_cell_angle_beta	116.29
_cell_angle_gamma	90
loop_
_atom_site_label
_atom_site_type_symbol
_atom_site_fract_x
_atom_site_fract_y
_atom_site_fract_z
_atom_site_charge
Mof_C 	C 	0.12487	0.9412	0.5896	0.366
Mof_C 	C 	0.20569	0.8927	0.7234	-0.136
Mof_C 	C 	0.23	0.8111	0.685	0.067
Mof_H 	H 	0.1977	0.7861	0.5732	0.019
Mof_C 	C 	0.302	0.7665	0.8116	-0.143
Mof_H 	H 	0.3174	0.7117	0.7843	0.09
Mof_C 	C 	0.35163	0.80289	0.9796	0.082
Mof_C 	C 	0.3264	0.8847	0.0163	-0.13
Mof_H 	H 	0.3587	0.91	0.1279	0.079
Mof_C 	C 	0.2543	0.9291	0.89	0.052
Mof_H 	H 	0.2384	0.9838	0.9173	0.021
Mof_C 	C 	0.43352	0.66472	0.1223	0.023
Mof_H 	H 	0.3881	0.6335	0.0324	0.019
Mof_C 	C 	0.42978	0.75636	0.1189	-0.027
Mof_O 	O 	0.08836	0.90945	0.4335	-0.472
Mof_O 	O 	0.10011	0.00924	0.6374	-0.448
Mof_C 	C 	0.62487	0.4412	0.5896	0.359
Mof_C 	C 	0.70569	0.3927	0.7234	-0.117
Mof_C 	C 	0.73	0.3111	0.685	0.048
Mof_H 	H 	0.6977	0.2861	0.5732	0.032
Mof_C 	C 	0.802	0.2665	0.8116	-0.109
Mof_H 	H 	0.8174	0.2117	0.7843	0.083
Mof_C 	C 	0.85163	0.30289	0.9796	0.049
Mof_C 	C 	0.8264	0.3847	0.0163	-0.097
Mof_H 	H 	0.8587	0.41	0.1279	0.086
Mof_C 	C 	0.7543	0.4291	0.89	0.035
Mof_H 	H 	0.7384	0.4838	0.9173	0.031
Mof_C 	C 	0.93352	0.16472	0.1223	0.074
Mof_H 	H 	0.8881	0.1335	0.0324	0.011
Mof_C 	C 	0.92978	0.25636	0.1189	0.083
Mof_O 	O 	0.58836	0.40945	0.4335	-0.45
Mof_O 	O 	0.60011	0.50924	0.6374	-0.432
Mof_C 	C 	0.87513	0.9412	0.9104	0.354
Mof_C 	C 	0.79431	0.8927	0.7766	-0.125
Mof_C 	C 	0.77	0.8111	0.815	0.063
Mof_H 	H 	0.8023	0.7861	0.9268	0.031
Mof_C 	C 	0.698	0.7665	0.6884	-0.14
Mof_H 	H 	0.6826	0.7117	0.7157	0.091
Mof_C 	C 	0.64837	0.80289	0.5204	0.086
Mof_C 	C 	0.6736	0.8847	0.4837	-0.135
Mof_H 	H 	0.6413	0.91	0.3721	0.08
Mof_C 	C 	0.7457	0.9291	0.61	0.052
Mof_H 	H 	0.7616	0.9838	0.5827	0.023
Mof_C 	C 	0.56648	0.66472	0.3777	0.024
Mof_H 	H 	0.6119	0.6335	0.4676	0.018
Mof_C 	C 	0.57022	0.75636	0.3811	-0.029
Mof_O 	O 	0.91164	0.90945	0.0665	-0.41
Mof_O 	O 	0.89989	0.00924	0.8626	-0.401
Mof_C 	C 	0.37513	0.4412	0.9104	0.359
Mof_C 	C 	0.29431	0.3927	0.7766	-0.125
Mof_C 	C 	0.27	0.3111	0.815	0.051
Mof_H 	H 	0.3023	0.2861	0.9268	0.028
Mof_C 	C 	0.198	0.2665	0.6884	-0.125
Mof_H 	H 	0.1826	0.2117	0.7157	0.08
Mof_C 	C 	0.14837	0.30289	0.5204	0.054
Mof_C 	C 	0.1736	0.3847	0.4837	-0.118
Mof_H 	H 	0.1413	0.41	0.3721	0.066
Mof_C 	C 	0.2457	0.4291	0.61	0.039
Mof_H 	H 	0.2616	0.4838	0.5827	0.024
Mof_C 	C 	0.06648	0.16472	0.3777	-0.017
Mof_H 	H 	0.1119	0.1335	0.4676	0.028
Mof_C 	C 	0.07022	0.25636	0.3811	0.018
Mof_O 	O 	0.41164	0.40945	0.0665	-0.45
Mof_O 	O 	0.39989	0.50924	0.8626	-0.434
Mof_Zn	Zn	7.41369e-18	0.98363	0.25	1.201
Mof_Zn	Zn	0.5	0.48363	0.25	1.223
Mof_C 	C 	0.5	0.8013	0.25	-0.036
Mof_H 	H 	0.5	0.8627	0.25	0.043
Mof_N 	N 	0.5	0.6193	0.25	-0.239
Mof_C 	C 	7.41369e-18	0.3013	0.25	-0.186
Mof_H 	H 	6.72075e-34	0.3627	0.25	0.067
Mof_N 	N 	7.41369e-18	0.1193	0.25	-0.282
Mof_C 	C 	0.87513	0.0588	0.4104	0.361
Mof_C 	C 	0.79431	0.1073	0.2766	-0.129
Mof_C 	C 	0.77	0.1889	0.315	0.067
Mof_H 	H 	0.8023	0.2139	0.4268	0.031
Mof_C 	C 	0.698	0.2335	0.1884	-0.144
Mof_H 	H 	0.6826	0.2883	0.2157	0.093
Mof_C 	C 	0.64837	0.19711	0.0204	0.091
Mof_C 	C 	0.6736	0.1153	0.9837	-0.142
Mof_H 	H 	0.6413	0.09	0.8721	0.083
Mof_C 	C 	0.7457	0.0709	0.11	0.058
Mof_H 	H 	0.7616	0.0162	0.0827	0.021
Mof_C 	C 	0.56648	0.33528	0.8777	0.026
Mof_H 	H 	0.6119	0.3665	0.9676	0.017
Mof_C 	C 	0.57022	0.24364	0.8811	-0.034
Mof_O 	O 	0.91164	0.09055	0.5665	-0.415
Mof_O 	O 	0.89989	0.99076	0.3626	-0.402
Mof_C 	C 	0.37513	0.5588	0.4104	0.362
Mof_C 	C 	0.29431	0.6073	0.2766	-0.13
Mof_C 	C 	0.27	0.6889	0.315	0.058
Mof_H 	H 	0.3023	0.7139	0.4268	0.026
Mof_C 	C 	0.198	0.7335	0.1884	-0.132
Mof_H 	H 	0.1826	0.7883	0.2157	0.083
Mof_C 	C 	0.14837	0.69711	0.0204	0.064
Mof_C 	C 	0.1736	0.6153	0.9837	-0.129
Mof_H 	H 	0.1413	0.59	0.8721	0.069
Mof_C 	C 	0.2457	0.5709	0.11	0.048
Mof_H 	H 	0.2616	0.5162	0.0827	0.021
Mof_C 	C 	0.06648	0.83528	0.8777	-0.014
Mof_H 	H 	0.1119	0.8665	0.9676	0.026
Mof_C 	C 	0.07022	0.74364	0.8811	0.01
Mof_O 	O 	0.41164	0.59055	0.5665	-0.452
Mof_O 	O 	0.39989	0.49076	0.3626	-0.434
Mof_C 	C 	0.12487	0.0588	0.0896	0.368
Mof_C 	C 	0.20569	0.1073	0.2234	-0.143
Mof_C 	C 	0.23	0.1889	0.185	0.075
Mof_H 	H 	0.1977	0.2139	0.0732	0.016
Mof_C 	C 	0.302	0.2335	0.3116	-0.151
Mof_H 	H 	0.3174	0.2883	0.2843	0.093
Mof_C 	C 	0.35163	0.19711	0.4796	0.094
Mof_C 	C 	0.3264	0.1153	0.5163	-0.144
Mof_H 	H 	0.3587	0.09	0.6279	0.084
Mof_C 	C 	0.2543	0.0709	0.39	0.064
Mof_H 	H 	0.2384	0.0162	0.4173	0.018
Mof_C 	C 	0.43352	0.33528	0.6223	0.027
Mof_H 	H 	0.3881	0.3665	0.5324	0.017
Mof_C 	C 	0.42978	0.24364	0.6189	-0.034
Mof_O 	O 	0.08836	0.09055	0.9335	-0.472
Mof_O 	O 	0.10011	0.99076	0.1374	-0.448
Mof_C 	C 	0.62487	0.5588	0.0896	0.363
Mof_C 	C 	0.70569	0.6073	0.2234	-0.124
Mof_C 	C 	0.73	0.6889	0.185	0.056
Mof_H 	H 	0.6977	0.7139	0.0732	0.029
Mof_C 	C 	0.802	0.7335	0.3116	-0.119
Mof_H 	H 	0.8174	0.7883	0.2843	0.087
Mof_C 	C 	0.85163	0.69711	0.4796	0.062
Mof_C 	C 	0.8264	0.6153	0.5163	-0.111
Mof_H 	H 	0.8587	0.59	0.6279	0.09
Mof_C 	C 	0.7543	0.5709	0.39	0.047
Mof_H 	H 	0.7384	0.5162	0.4173	0.028
Mof_C 	C 	0.93352	0.83528	0.6223	0.078
Mof_H 	H 	0.8881	0.8665	0.5324	0.009
Mof_C 	C 	0.92978	0.74364	0.6189	0.074
Mof_O 	O 	0.58836	0.59055	0.9335	-0.452
Mof_O 	O 	0.60011	0.49076	0.1374	-0.433
Mof_Zn	Zn	2.01622e-33	0.01637	0.75	1.201
Mof_Zn	Zn	0.5	0.51637	0.75	1.223
Mof_C 	C 	0.5	0.1987	0.75	-0.031
Mof_H 	H 	0.5	0.1373	0.75	0.041
Mof_N 	N 	0.5	0.3807	0.75	-0.24
Mof_C 	C 	-2.96548e-17	0.6987	0.75	-0.179
Mof_H 	H 	-2.96548e-17	0.6373	0.75	0.064
Mof_N 	N 	-2.96548e-17	0.8807	0.75	-0.284
_end
