data_functionalizedCrystal
_audit_creation_method	'EQeq! by Chris Wilmer'
_symmetry_space_group_name_H-M	'P1'
_symmetry_Int_Tables_number	1
_symmetry_cell_setting	triclinic
loop_
_symmetry_equiv_pos_as_xyz
  x,y,z
_cell_length_a	31.37
_cell_length_b	31.37
_cell_length_c	7.8467
_cell_angle_alpha	90
_cell_angle_beta	90
_cell_angle_gamma	90
loop_
_atom_site_label
_atom_site_type_symbol
_atom_site_fract_x
_atom_site_fract_y
_atom_site_fract_z
_atom_site_charge
Mof_Ag	Ag	0.8139	0.79947	0.92353	0.563
Mof_N 	N 	0.75126	0.72461	0.4862	-0.201
Mof_N 	N 	0.8985	0.73337	0.2317	-0.095
Mof_N 	N 	0.93303	0.75465	0.1682	-0.093
Mof_N 	N 	0.88425	0.80214	0.2315	-0.166
Mof_N 	N 	0.00853	0.88563	0.9432	-0.203
Mof_N 	N 	0.83095	0.84852	0.1408	-0.217
Mof_C 	C 	0.80955	0.71238	0.3003	-0.148
Mof_H 	H 	0.8228	0.6947	0.2214	0.076
Mof_C 	C 	0.77243	0.70055	0.3729	0.086
Mof_H 	H 	0.7609	0.6743	0.3429	-0.015
Mof_C 	C 	0.76859	0.76199	0.525	0.085
Mof_H 	H 	0.7542	0.7794	0.6018	-0.034
Mof_C 	C 	0.80637	0.7764	0.4587	-0.149
Mof_H 	H 	0.8173	0.8028	0.4907	0.065
Mof_C 	C 	0.82787	0.7512	0.344	0.055
Mof_C 	C 	0.86923	0.76181	0.2695	0.073
Mof_C 	C 	0.92423	0.79558	0.1669	0.088
Mof_C 	C 	0.95247	0.82765	0.0938	0.062
Mof_C 	C 	0.9961	0.82084	0.0964	-0.138
Mof_H 	H 	0.0073	0.7967	0.149	0.101
Mof_C 	C 	0.02266	0.84995	0.0207	0.098
Mof_H 	H 	0.0519	0.8448	0.0229	-0.009
Mof_C 	C 	0.96662	0.89173	0.9414	0.085
Mof_H 	H 	0.9562	0.9161	0.8884	-0.02
Mof_C 	C 	0.93771	0.86422	0.013	-0.134
Mof_H 	H 	0.9087	0.87	0.0075	0.07
Mof_C 	C 	0.86215	0.84191	0.2503	0.181
Mof_C 	C 	0.87489	0.87022	0.3725	-0.238
Mof_H 	H 	0.8973	0.8641	0.4463	0.117
Mof_C 	C 	0.85297	0.90833	0.3814	0.129
Mof_H 	H 	0.8601	0.9285	0.4635	-0.028
Mof_C 	C 	0.82096	0.91611	0.2696	-0.212
Mof_H 	H 	0.8063	0.9419	0.2727	0.09
Mof_C 	C 	0.81049	0.88571	0.1526	0.114
Mof_H 	H 	0.7881	0.8911	0.0779	-0.032
Mof_Ag	Ag	0.3139	0.29947	0.42353	0.569
Mof_N 	N 	0.25126	0.22461	0.9862	-0.195
Mof_N 	N 	0.3985	0.23337	0.7317	-0.095
Mof_N 	N 	0.43303	0.25465	0.6682	-0.093
Mof_N 	N 	0.38425	0.30214	0.7315	-0.166
Mof_N 	N 	0.50853	0.38563	0.4432	-0.202
Mof_N 	N 	0.33095	0.34852	0.6408	-0.218
Mof_C 	C 	0.30955	0.21238	0.8003	-0.142
Mof_H 	H 	0.3228	0.1947	0.7214	0.073
Mof_C 	C 	0.27243	0.20055	0.8729	0.082
Mof_H 	H 	0.2609	0.1743	0.8429	-0.014
Mof_C 	C 	0.26859	0.26199	0.025	0.068
Mof_H 	H 	0.2542	0.2794	0.1018	-0.029
Mof_C 	C 	0.30637	0.2764	0.9587	-0.134
Mof_H 	H 	0.3173	0.3028	0.9907	0.061
Mof_C 	C 	0.32787	0.2512	0.844	0.048
Mof_C 	C 	0.36923	0.26181	0.7695	0.075
Mof_C 	C 	0.42423	0.29558	0.6669	0.087
Mof_C 	C 	0.45247	0.32765	0.5938	0.064
Mof_C 	C 	0.4961	0.32084	0.5964	-0.139
Mof_H 	H 	0.5073	0.2967	0.649	0.101
Mof_C 	C 	0.52266	0.34995	0.5207	0.094
Mof_H 	H 	0.5519	0.3448	0.5229	-0.009
Mof_C 	C 	0.46662	0.39173	0.4414	0.093
Mof_H 	H 	0.4562	0.4161	0.3884	-0.023
Mof_C 	C 	0.43771	0.36422	0.513	-0.143
Mof_H 	H 	0.4087	0.37	0.5075	0.072
Mof_C 	C 	0.36215	0.34191	0.7503	0.181
Mof_C 	C 	0.37489	0.37022	0.8725	-0.239
Mof_H 	H 	0.3973	0.3641	0.9463	0.118
Mof_C 	C 	0.35297	0.40833	0.8814	0.13
Mof_H 	H 	0.3601	0.4285	0.9635	-0.028
Mof_C 	C 	0.32096	0.41611	0.7696	-0.213
Mof_H 	H 	0.3063	0.4419	0.7727	0.09
Mof_C 	C 	0.31049	0.38571	0.6526	0.114
Mof_H 	H 	0.2881	0.3911	0.5779	-0.033
Mof_Ag	Ag	0.6861	0.20053	0.42353	0.569
Mof_N 	N 	0.74874	0.27539	0.9862	-0.195
Mof_N 	N 	0.6015	0.26663	0.7317	-0.095
Mof_N 	N 	0.56697	0.24535	0.6682	-0.093
Mof_N 	N 	0.61575	0.19786	0.7315	-0.166
Mof_N 	N 	0.49147	0.11437	0.4432	-0.202
Mof_N 	N 	0.66905	0.15148	0.6408	-0.218
Mof_C 	C 	0.69045	0.28762	0.8003	-0.142
Mof_H 	H 	0.6772	0.3053	0.7214	0.073
Mof_C 	C 	0.72757	0.29945	0.8729	0.082
Mof_H 	H 	0.7391	0.3257	0.8429	-0.014
Mof_C 	C 	0.73141	0.23801	0.025	0.068
Mof_H 	H 	0.7458	0.2206	0.1018	-0.029
Mof_C 	C 	0.69363	0.2236	0.9587	-0.134
Mof_H 	H 	0.6827	0.1972	0.9907	0.061
Mof_C 	C 	0.67213	0.2488	0.844	0.048
Mof_C 	C 	0.63077	0.23819	0.7695	0.075
Mof_C 	C 	0.57577	0.20442	0.6669	0.087
Mof_C 	C 	0.54753	0.17235	0.5938	0.064
Mof_C 	C 	0.5039	0.17916	0.5964	-0.139
Mof_H 	H 	0.4927	0.2033	0.649	0.101
Mof_C 	C 	0.47734	0.15005	0.5207	0.094
Mof_H 	H 	0.4481	0.1552	0.5229	-0.009
Mof_C 	C 	0.53338	0.10827	0.4414	0.093
Mof_H 	H 	0.5438	0.0839	0.3884	-0.023
Mof_C 	C 	0.56229	0.13578	0.513	-0.143
Mof_H 	H 	0.5913	0.13	0.5075	0.072
Mof_C 	C 	0.63785	0.15809	0.7503	0.181
Mof_C 	C 	0.62511	0.12978	0.8725	-0.239
Mof_H 	H 	0.6027	0.1359	0.9463	0.118
Mof_C 	C 	0.64703	0.09167	0.8814	0.13
Mof_H 	H 	0.6399	0.0715	0.9635	-0.028
Mof_C 	C 	0.67904	0.08389	0.7696	-0.213
Mof_H 	H 	0.6937	0.0581	0.7727	0.09
Mof_C 	C 	0.68951	0.11429	0.6526	0.114
Mof_H 	H 	0.7119	0.1089	0.5779	-0.033
Mof_Ag	Ag	0.1861	0.70053	0.92353	0.562
Mof_N 	N 	0.24874	0.77539	0.4862	-0.202
Mof_N 	N 	0.1015	0.76663	0.2317	-0.095
Mof_N 	N 	0.06697	0.74535	0.1682	-0.093
Mof_N 	N 	0.11575	0.69786	0.2315	-0.166
Mof_N 	N 	0.99147	0.61437	0.9432	-0.203
Mof_N 	N 	0.16905	0.65148	0.1408	-0.217
Mof_C 	C 	0.19045	0.78762	0.3003	-0.148
Mof_H 	H 	0.1772	0.8053	0.2214	0.076
Mof_C 	C 	0.22757	0.79945	0.3729	0.086
Mof_H 	H 	0.2391	0.8257	0.3429	-0.015
Mof_C 	C 	0.23141	0.73801	0.525	0.085
Mof_H 	H 	0.2458	0.7206	0.6018	-0.034
Mof_C 	C 	0.19363	0.7236	0.4587	-0.149
Mof_H 	H 	0.1827	0.6972	0.4907	0.065
Mof_C 	C 	0.17213	0.7488	0.344	0.055
Mof_C 	C 	0.13077	0.73819	0.2695	0.073
Mof_C 	C 	0.07577	0.70442	0.1669	0.088
Mof_C 	C 	0.04753	0.67235	0.0938	0.062
Mof_C 	C 	0.0039	0.67916	0.0964	-0.139
Mof_H 	H 	0.9927	0.7033	0.149	0.101
Mof_C 	C 	0.97734	0.65005	0.0207	0.098
Mof_H 	H 	0.9481	0.6552	0.0229	-0.009
Mof_C 	C 	0.03338	0.60827	0.9414	0.085
Mof_H 	H 	0.0438	0.5839	0.8884	-0.02
Mof_C 	C 	0.06229	0.63578	0.013	-0.134
Mof_H 	H 	0.0913	0.63	0.0075	0.071
Mof_C 	C 	0.13785	0.65809	0.2503	0.181
Mof_C 	C 	0.12511	0.62978	0.3725	-0.238
Mof_H 	H 	0.1027	0.6359	0.4463	0.117
Mof_C 	C 	0.14703	0.59167	0.3814	0.129
Mof_H 	H 	0.1399	0.5715	0.4635	-0.028
Mof_C 	C 	0.17904	0.58389	0.2696	-0.212
Mof_H 	H 	0.1937	0.5581	0.2727	0.09
Mof_C 	C 	0.18951	0.61429	0.1526	0.114
Mof_H 	H 	0.2119	0.6089	0.0779	-0.032
Mof_Ag	Ag	0.95053	0.0639	0.17353	0.568
Mof_N 	N 	0.02539	0.00126	0.7362	-0.201
Mof_N 	N 	0.01663	0.1485	0.4817	-0.095
Mof_N 	N 	0.99535	0.18303	0.4182	-0.094
Mof_N 	N 	0.94786	0.13425	0.4815	-0.166
Mof_N 	N 	0.86437	0.25853	0.1932	-0.202
Mof_N 	N 	0.90148	0.08095	0.3908	-0.218
Mof_C 	C 	0.03762	0.05955	0.5503	-0.147
Mof_H 	H 	0.0553	0.0728	0.4714	0.075
Mof_C 	C 	0.04945	0.02243	0.6229	0.085
Mof_H 	H 	0.0757	0.0109	0.5929	-0.015
Mof_C 	C 	0.98801	0.01859	0.775	0.085
Mof_H 	H 	0.9706	0.0042	0.8518	-0.033
Mof_C 	C 	0.9736	0.05637	0.7087	-0.149
Mof_H 	H 	0.9472	0.0673	0.7407	0.065
Mof_C 	C 	0.9988	0.07787	0.594	0.054
Mof_C 	C 	0.98819	0.11923	0.5195	0.072
Mof_C 	C 	0.95442	0.17423	0.4169	0.086
Mof_C 	C 	0.92235	0.20247	0.3438	0.064
Mof_C 	C 	0.92916	0.2461	0.3464	-0.139
Mof_H 	H 	0.9533	0.2573	0.399	0.101
Mof_C 	C 	0.90005	0.27266	0.2707	0.093
Mof_H 	H 	0.9052	0.3019	0.2729	-0.01
Mof_C 	C 	0.85827	0.21662	0.1914	0.093
Mof_H 	H 	0.8339	0.2062	0.1384	-0.023
Mof_C 	C 	0.88578	0.18771	0.263	-0.143
Mof_H 	H 	0.88	0.1587	0.2575	0.072
Mof_C 	C 	0.90809	0.11215	0.5003	0.18
Mof_C 	C 	0.87978	0.12489	0.6225	-0.238
Mof_H 	H 	0.8859	0.1473	0.6963	0.117
Mof_C 	C 	0.84167	0.10297	0.6314	0.129
Mof_H 	H 	0.8215	0.1101	0.7135	-0.028
Mof_C 	C 	0.83389	0.07096	0.5196	-0.212
Mof_H 	H 	0.8081	0.0563	0.5227	0.09
Mof_C 	C 	0.86429	0.06049	0.4026	0.114
Mof_H 	H 	0.8589	0.0381	0.3279	-0.033
Mof_Ag	Ag	0.45053	0.5639	0.67353	0.569
Mof_N 	N 	0.52539	0.50126	0.2362	-0.201
Mof_N 	N 	0.51663	0.6485	0.9817	-0.098
Mof_N 	N 	0.49535	0.68303	0.9182	-0.094
Mof_N 	N 	0.44786	0.63425	0.9815	-0.169
Mof_N 	N 	0.36437	0.75853	0.6932	-0.202
Mof_N 	N 	0.40148	0.58095	0.8908	-0.219
Mof_C 	C 	0.53762	0.55955	0.0503	-0.142
Mof_H 	H 	0.5553	0.5728	0.9714	0.072
Mof_C 	C 	0.54945	0.52243	0.1229	0.082
Mof_H 	H 	0.5757	0.5109	0.0929	-0.014
Mof_C 	C 	0.48801	0.51859	0.275	0.083
Mof_H 	H 	0.4706	0.5042	0.3518	-0.033
Mof_C 	C 	0.4736	0.55637	0.2087	-0.146
Mof_H 	H 	0.4472	0.5673	0.2407	0.064
Mof_C 	C 	0.4988	0.57787	0.094	0.05
Mof_C 	C 	0.48819	0.61923	0.0195	0.077
Mof_C 	C 	0.45442	0.67423	0.9169	0.086
Mof_C 	C 	0.42235	0.70247	0.8438	0.063
Mof_C 	C 	0.42916	0.7461	0.8464	-0.139
Mof_H 	H 	0.4533	0.7573	0.899	0.1
Mof_C 	C 	0.40005	0.77266	0.7707	0.094
Mof_H 	H 	0.4052	0.8019	0.7729	-0.009
Mof_C 	C 	0.35827	0.71662	0.6914	0.093
Mof_H 	H 	0.3339	0.7062	0.6384	-0.023
Mof_C 	C 	0.38578	0.68771	0.763	-0.143
Mof_H 	H 	0.38	0.6587	0.7575	0.072
Mof_C 	C 	0.40809	0.61215	0.0003	0.184
Mof_C 	C 	0.37978	0.62489	0.1225	-0.239
Mof_H 	H 	0.3859	0.6473	0.1963	0.118
Mof_C 	C 	0.34167	0.60297	0.1314	0.128
Mof_H 	H 	0.3215	0.6101	0.2135	-0.028
Mof_C 	C 	0.33389	0.57096	0.0196	-0.209
Mof_H 	H 	0.3081	0.5563	0.0227	0.089
Mof_C 	C 	0.36429	0.56049	0.9026	0.11
Mof_H 	H 	0.3589	0.5381	0.8279	-0.032
Mof_Ag	Ag	0.54947	0.9361	0.67353	0.569
Mof_N 	N 	0.47461	0.99874	0.2362	-0.201
Mof_N 	N 	0.48337	0.8515	0.9817	-0.098
Mof_N 	N 	0.50465	0.81697	0.9182	-0.094
Mof_N 	N 	0.55214	0.86575	0.9815	-0.169
Mof_N 	N 	0.63563	0.74147	0.6932	-0.202
Mof_N 	N 	0.59852	0.91905	0.8908	-0.219
Mof_C 	C 	0.46238	0.94045	0.0503	-0.141
Mof_H 	H 	0.4447	0.9272	0.9714	0.071
Mof_C 	C 	0.45055	0.97757	0.1229	0.082
Mof_H 	H 	0.4243	0.9891	0.0929	-0.014
Mof_C 	C 	0.51199	0.98141	0.275	0.083
Mof_H 	H 	0.5294	0.9958	0.3518	-0.033
Mof_C 	C 	0.5264	0.94363	0.2087	-0.146
Mof_H 	H 	0.5528	0.9327	0.2407	0.064
Mof_C 	C 	0.5012	0.92213	0.094	0.05
Mof_C 	C 	0.51181	0.88077	0.0195	0.078
Mof_C 	C 	0.54558	0.82577	0.9169	0.086
Mof_C 	C 	0.57765	0.79753	0.8438	0.063
Mof_C 	C 	0.57084	0.7539	0.8464	-0.139
Mof_H 	H 	0.5467	0.7427	0.899	0.1
Mof_C 	C 	0.59995	0.72734	0.7707	0.094
Mof_H 	H 	0.5948	0.6981	0.7729	-0.009
Mof_C 	C 	0.64173	0.78338	0.6914	0.093
Mof_H 	H 	0.6661	0.7938	0.6384	-0.023
Mof_C 	C 	0.61422	0.81229	0.763	-0.143
Mof_H 	H 	0.62	0.8413	0.7575	0.072
Mof_C 	C 	0.59191	0.88785	0.0003	0.184
Mof_C 	C 	0.62022	0.87511	0.1225	-0.239
Mof_H 	H 	0.6141	0.8527	0.1963	0.118
Mof_C 	C 	0.65833	0.89703	0.1314	0.128
Mof_H 	H 	0.6785	0.8899	0.2135	-0.028
Mof_C 	C 	0.66611	0.92904	0.0196	-0.208
Mof_H 	H 	0.6919	0.9437	0.0227	0.089
Mof_C 	C 	0.63571	0.93951	0.9026	0.11
Mof_H 	H 	0.6411	0.9619	0.8279	-0.032
Mof_Ag	Ag	0.04947	0.4361	0.17353	0.569
Mof_N 	N 	0.97461	0.49874	0.7362	-0.202
Mof_N 	N 	0.98337	0.3515	0.4817	-0.095
Mof_N 	N 	0.00465	0.31697	0.4182	-0.094
Mof_N 	N 	0.05214	0.36575	0.4815	-0.166
Mof_N 	N 	0.13563	0.24147	0.1932	-0.202
Mof_N 	N 	0.09852	0.41905	0.3908	-0.218
Mof_C 	C 	0.96238	0.44045	0.5503	-0.148
Mof_H 	H 	0.9447	0.4272	0.4714	0.075
Mof_C 	C 	0.95055	0.47757	0.6229	0.085
Mof_H 	H 	0.9243	0.4891	0.5929	-0.016
Mof_C 	C 	0.01199	0.48141	0.775	0.085
Mof_H 	H 	0.0294	0.4958	0.8518	-0.034
Mof_C 	C 	0.0264	0.44363	0.7087	-0.149
Mof_H 	H 	0.0528	0.4327	0.7407	0.065
Mof_C 	C 	0.0012	0.42213	0.594	0.054
Mof_C 	C 	0.01181	0.38077	0.5195	0.072
Mof_C 	C 	0.04558	0.32577	0.4169	0.086
Mof_C 	C 	0.07765	0.29753	0.3438	0.064
Mof_C 	C 	0.07084	0.2539	0.3464	-0.139
Mof_H 	H 	0.0467	0.2427	0.399	0.101
Mof_C 	C 	0.09995	0.22734	0.2707	0.093
Mof_H 	H 	0.0948	0.1981	0.2729	-0.01
Mof_C 	C 	0.14173	0.28338	0.1914	0.093
Mof_H 	H 	0.1661	0.2938	0.1384	-0.023
Mof_C 	C 	0.11422	0.31229	0.263	-0.143
Mof_H 	H 	0.12	0.3413	0.2575	0.072
Mof_C 	C 	0.09191	0.38785	0.5003	0.18
Mof_C 	C 	0.12022	0.37511	0.6225	-0.238
Mof_H 	H 	0.1141	0.3527	0.6963	0.117
Mof_C 	C 	0.15833	0.39703	0.6314	0.129
Mof_H 	H 	0.1785	0.3899	0.7135	-0.028
Mof_C 	C 	0.16611	0.42904	0.5196	-0.212
Mof_H 	H 	0.1919	0.4437	0.5227	0.09
Mof_C 	C 	0.13571	0.43951	0.4026	0.114
Mof_H 	H 	0.1411	0.4619	0.3279	-0.033
Mof_Ag	Ag	0.1861	0.20053	0.07647	0.562
Mof_N 	N 	0.24874	0.27539	0.5138	-0.202
Mof_N 	N 	0.1015	0.26663	0.7683	-0.095
Mof_N 	N 	0.06697	0.24535	0.8318	-0.093
Mof_N 	N 	0.11575	0.19786	0.7685	-0.166
Mof_N 	N 	0.99147	0.11437	0.0568	-0.203
Mof_N 	N 	0.16905	0.15148	0.8592	-0.217
Mof_C 	C 	0.19045	0.28762	0.6997	-0.148
Mof_H 	H 	0.1772	0.3053	0.7786	0.076
Mof_C 	C 	0.22757	0.29945	0.6271	0.086
Mof_H 	H 	0.2391	0.3257	0.6571	-0.015
Mof_C 	C 	0.23141	0.23801	0.475	0.085
Mof_H 	H 	0.2458	0.2206	0.3982	-0.034
Mof_C 	C 	0.19363	0.2236	0.5413	-0.149
Mof_H 	H 	0.1827	0.1972	0.5093	0.065
Mof_C 	C 	0.17213	0.2488	0.656	0.055
Mof_C 	C 	0.13077	0.23819	0.7305	0.073
Mof_C 	C 	0.07577	0.20442	0.8331	0.088
Mof_C 	C 	0.04753	0.17235	0.9062	0.062
Mof_C 	C 	0.0039	0.17916	0.9036	-0.138
Mof_H 	H 	0.9927	0.2033	0.851	0.101
Mof_C 	C 	0.97734	0.15005	0.9793	0.098
Mof_H 	H 	0.9481	0.1552	0.9771	-0.009
Mof_C 	C 	0.03338	0.10827	0.0586	0.085
Mof_H 	H 	0.0438	0.0839	0.1116	-0.02
Mof_C 	C 	0.06229	0.13578	0.987	-0.134
Mof_H 	H 	0.0913	0.13	0.9925	0.07
Mof_C 	C 	0.13785	0.15809	0.7497	0.181
Mof_C 	C 	0.12511	0.12978	0.6275	-0.238
Mof_H 	H 	0.1027	0.1359	0.5537	0.117
Mof_C 	C 	0.14703	0.09167	0.6186	0.129
Mof_H 	H 	0.1399	0.0715	0.5365	-0.028
Mof_C 	C 	0.17904	0.08389	0.7304	-0.212
Mof_H 	H 	0.1937	0.0581	0.7273	0.09
Mof_C 	C 	0.18951	0.11429	0.8474	0.114
Mof_H 	H 	0.2119	0.1089	0.9221	-0.032
Mof_Ag	Ag	0.6861	0.70053	0.57647	0.569
Mof_N 	N 	0.74874	0.77539	0.0138	-0.195
Mof_N 	N 	0.6015	0.76663	0.2683	-0.095
Mof_N 	N 	0.56697	0.74535	0.3318	-0.093
Mof_N 	N 	0.61575	0.69786	0.2685	-0.166
Mof_N 	N 	0.49147	0.61437	0.5568	-0.202
Mof_N 	N 	0.66905	0.65148	0.3592	-0.218
Mof_C 	C 	0.69045	0.78762	0.1997	-0.142
Mof_H 	H 	0.6772	0.8053	0.2786	0.073
Mof_C 	C 	0.72757	0.79945	0.1271	0.082
Mof_H 	H 	0.7391	0.8257	0.1571	-0.014
Mof_C 	C 	0.73141	0.73801	0.975	0.068
Mof_H 	H 	0.7458	0.7206	0.8982	-0.029
Mof_C 	C 	0.69363	0.7236	0.0413	-0.134
Mof_H 	H 	0.6827	0.6972	0.0093	0.061
Mof_C 	C 	0.67213	0.7488	0.156	0.048
Mof_C 	C 	0.63077	0.73819	0.2305	0.075
Mof_C 	C 	0.57577	0.70442	0.3331	0.087
Mof_C 	C 	0.54753	0.67235	0.4062	0.064
Mof_C 	C 	0.5039	0.67916	0.4036	-0.139
Mof_H 	H 	0.4927	0.7033	0.351	0.101
Mof_C 	C 	0.47734	0.65005	0.4793	0.094
Mof_H 	H 	0.4481	0.6552	0.4771	-0.009
Mof_C 	C 	0.53338	0.60827	0.5586	0.093
Mof_H 	H 	0.5438	0.5839	0.6116	-0.023
Mof_C 	C 	0.56229	0.63578	0.487	-0.143
Mof_H 	H 	0.5913	0.63	0.4925	0.072
Mof_C 	C 	0.63785	0.65809	0.2497	0.181
Mof_C 	C 	0.62511	0.62978	0.1275	-0.239
Mof_H 	H 	0.6027	0.6359	0.0537	0.118
Mof_C 	C 	0.64703	0.59167	0.1186	0.13
Mof_H 	H 	0.6399	0.5715	0.0365	-0.028
Mof_C 	C 	0.67904	0.58389	0.2304	-0.213
Mof_H 	H 	0.6937	0.5581	0.2273	0.09
Mof_C 	C 	0.68951	0.61429	0.3474	0.114
Mof_H 	H 	0.7119	0.6089	0.4221	-0.033
Mof_Ag	Ag	0.3139	0.79947	0.57647	0.569
Mof_N 	N 	0.25126	0.72461	0.0138	-0.195
Mof_N 	N 	0.3985	0.73337	0.2683	-0.095
Mof_N 	N 	0.43303	0.75465	0.3318	-0.093
Mof_N 	N 	0.38425	0.80214	0.2685	-0.166
Mof_N 	N 	0.50853	0.88563	0.5568	-0.202
Mof_N 	N 	0.33095	0.84852	0.3592	-0.218
Mof_C 	C 	0.30955	0.71238	0.1997	-0.142
Mof_H 	H 	0.3228	0.6947	0.2786	0.073
Mof_C 	C 	0.27243	0.70055	0.1271	0.082
Mof_H 	H 	0.2609	0.6743	0.1571	-0.014
Mof_C 	C 	0.26859	0.76199	0.975	0.068
Mof_H 	H 	0.2542	0.7794	0.8982	-0.029
Mof_C 	C 	0.30637	0.7764	0.0413	-0.134
Mof_H 	H 	0.3173	0.8028	0.0093	0.061
Mof_C 	C 	0.32787	0.7512	0.156	0.048
Mof_C 	C 	0.36923	0.76181	0.2305	0.075
Mof_C 	C 	0.42423	0.79558	0.3331	0.087
Mof_C 	C 	0.45247	0.82765	0.4062	0.064
Mof_C 	C 	0.4961	0.82084	0.4036	-0.139
Mof_H 	H 	0.5073	0.7967	0.351	0.101
Mof_C 	C 	0.52266	0.84995	0.4793	0.094
Mof_H 	H 	0.5519	0.8448	0.4771	-0.009
Mof_C 	C 	0.46662	0.89173	0.5586	0.093
Mof_H 	H 	0.4562	0.9161	0.6116	-0.023
Mof_C 	C 	0.43771	0.86422	0.487	-0.143
Mof_H 	H 	0.4087	0.87	0.4925	0.072
Mof_C 	C 	0.36215	0.84191	0.2497	0.181
Mof_C 	C 	0.37489	0.87022	0.1275	-0.239
Mof_H 	H 	0.3973	0.8641	0.0537	0.118
Mof_C 	C 	0.35297	0.90833	0.1186	0.13
Mof_H 	H 	0.3601	0.9285	0.0365	-0.028
Mof_C 	C 	0.32096	0.91611	0.2304	-0.213
Mof_H 	H 	0.3063	0.9419	0.2273	0.09
Mof_C 	C 	0.31049	0.88571	0.3474	0.114
Mof_H 	H 	0.2881	0.8911	0.4221	-0.033
Mof_Ag	Ag	0.8139	0.29947	0.07647	0.562
Mof_N 	N 	0.75126	0.22461	0.5138	-0.202
Mof_N 	N 	0.8985	0.23337	0.7683	-0.095
Mof_N 	N 	0.93303	0.25465	0.8318	-0.093
Mof_N 	N 	0.88425	0.30214	0.7685	-0.166
Mof_N 	N 	0.00853	0.38563	0.0568	-0.203
Mof_N 	N 	0.83095	0.34852	0.8592	-0.217
Mof_C 	C 	0.80955	0.21238	0.6997	-0.148
Mof_H 	H 	0.8228	0.1947	0.7786	0.076
Mof_C 	C 	0.77243	0.20055	0.6271	0.086
Mof_H 	H 	0.7609	0.1743	0.6571	-0.015
Mof_C 	C 	0.76859	0.26199	0.475	0.085
Mof_H 	H 	0.7542	0.2794	0.3982	-0.034
Mof_C 	C 	0.80637	0.2764	0.5413	-0.149
Mof_H 	H 	0.8173	0.3028	0.5093	0.065
Mof_C 	C 	0.82787	0.2512	0.656	0.055
Mof_C 	C 	0.86923	0.26181	0.7305	0.073
Mof_C 	C 	0.92423	0.29558	0.8331	0.088
Mof_C 	C 	0.95247	0.32765	0.9062	0.062
Mof_C 	C 	0.9961	0.32084	0.9036	-0.139
Mof_H 	H 	0.0073	0.2967	0.851	0.101
Mof_C 	C 	0.02266	0.34995	0.9793	0.098
Mof_H 	H 	0.0519	0.3448	0.9771	-0.009
Mof_C 	C 	0.96662	0.39173	0.0586	0.085
Mof_H 	H 	0.9562	0.4161	0.1116	-0.02
Mof_C 	C 	0.93771	0.36422	0.987	-0.134
Mof_H 	H 	0.9087	0.37	0.9925	0.071
Mof_C 	C 	0.86215	0.34191	0.7497	0.181
Mof_C 	C 	0.87489	0.37022	0.6275	-0.238
Mof_H 	H 	0.8973	0.3641	0.5537	0.117
Mof_C 	C 	0.85297	0.40833	0.6186	0.129
Mof_H 	H 	0.8601	0.4285	0.5365	-0.028
Mof_C 	C 	0.82096	0.41611	0.7304	-0.212
Mof_H 	H 	0.8063	0.4419	0.7273	0.09
Mof_C 	C 	0.81049	0.38571	0.8474	0.114
Mof_H 	H 	0.7881	0.3911	0.9221	-0.032
Mof_Ag	Ag	0.04947	0.9361	0.82647	0.568
Mof_N 	N 	0.97461	0.99874	0.2638	-0.201
Mof_N 	N 	0.98337	0.8515	0.5183	-0.095
Mof_N 	N 	0.00465	0.81697	0.5818	-0.094
Mof_N 	N 	0.05214	0.86575	0.5185	-0.166
Mof_N 	N 	0.13563	0.74147	0.8068	-0.202
Mof_N 	N 	0.09852	0.91905	0.6092	-0.218
Mof_C 	C 	0.96238	0.94045	0.4497	-0.147
Mof_H 	H 	0.9447	0.9272	0.5286	0.075
Mof_C 	C 	0.95055	0.97757	0.3771	0.085
Mof_H 	H 	0.9243	0.9891	0.4071	-0.015
Mof_C 	C 	0.01199	0.98141	0.225	0.085
Mof_H 	H 	0.0294	0.9958	0.1482	-0.033
Mof_C 	C 	0.0264	0.94363	0.2913	-0.149
Mof_H 	H 	0.0528	0.9327	0.2593	0.065
Mof_C 	C 	0.0012	0.92213	0.406	0.054
Mof_C 	C 	0.01181	0.88077	0.4805	0.072
Mof_C 	C 	0.04558	0.82577	0.5831	0.086
Mof_C 	C 	0.07765	0.79753	0.6562	0.064
Mof_C 	C 	0.07084	0.7539	0.6536	-0.139
Mof_H 	H 	0.0467	0.7427	0.601	0.101
Mof_C 	C 	0.09995	0.72734	0.7293	0.093
Mof_H 	H 	0.0948	0.6981	0.7271	-0.01
Mof_C 	C 	0.14173	0.78338	0.8086	0.093
Mof_H 	H 	0.1661	0.7938	0.8616	-0.023
Mof_C 	C 	0.11422	0.81229	0.737	-0.143
Mof_H 	H 	0.12	0.8413	0.7425	0.072
Mof_C 	C 	0.09191	0.88785	0.4997	0.18
Mof_C 	C 	0.12022	0.87511	0.3775	-0.238
Mof_H 	H 	0.1141	0.8527	0.3037	0.117
Mof_C 	C 	0.15833	0.89703	0.3686	0.129
Mof_H 	H 	0.1785	0.8899	0.2865	-0.028
Mof_C 	C 	0.16611	0.92904	0.4804	-0.212
Mof_H 	H 	0.1919	0.9437	0.4773	0.09
Mof_C 	C 	0.13571	0.93951	0.5974	0.114
Mof_H 	H 	0.1411	0.9619	0.6721	-0.033
Mof_Ag	Ag	0.54947	0.4361	0.32647	0.569
Mof_N 	N 	0.47461	0.49874	0.7638	-0.201
Mof_N 	N 	0.48337	0.3515	0.0183	-0.098
Mof_N 	N 	0.50465	0.31697	0.0818	-0.094
Mof_N 	N 	0.55214	0.36575	0.0185	-0.169
Mof_N 	N 	0.63563	0.24147	0.3068	-0.202
Mof_N 	N 	0.59852	0.41905	0.1092	-0.219
Mof_C 	C 	0.46238	0.44045	0.9497	-0.142
Mof_H 	H 	0.4447	0.4272	0.0286	0.072
Mof_C 	C 	0.45055	0.47757	0.8771	0.082
Mof_H 	H 	0.4243	0.4891	0.9071	-0.014
Mof_C 	C 	0.51199	0.48141	0.725	0.083
Mof_H 	H 	0.5294	0.4958	0.6482	-0.033
Mof_C 	C 	0.5264	0.44363	0.7913	-0.146
Mof_H 	H 	0.5528	0.4327	0.7593	0.064
Mof_C 	C 	0.5012	0.42213	0.906	0.05
Mof_C 	C 	0.51181	0.38077	0.9805	0.077
Mof_C 	C 	0.54558	0.32577	0.0831	0.086
Mof_C 	C 	0.57765	0.29753	0.1562	0.063
Mof_C 	C 	0.57084	0.2539	0.1536	-0.139
Mof_H 	H 	0.5467	0.2427	0.101	0.1
Mof_C 	C 	0.59995	0.22734	0.2293	0.094
Mof_H 	H 	0.5948	0.1981	0.2271	-0.009
Mof_C 	C 	0.64173	0.28338	0.3086	0.093
Mof_H 	H 	0.6661	0.2938	0.3616	-0.023
Mof_C 	C 	0.61422	0.31229	0.237	-0.143
Mof_H 	H 	0.62	0.3413	0.2425	0.072
Mof_C 	C 	0.59191	0.38785	0.9997	0.184
Mof_C 	C 	0.62022	0.37511	0.8775	-0.239
Mof_H 	H 	0.6141	0.3527	0.8037	0.118
Mof_C 	C 	0.65833	0.39703	0.8686	0.128
Mof_H 	H 	0.6785	0.3899	0.7865	-0.028
Mof_C 	C 	0.66611	0.42904	0.9804	-0.209
Mof_H 	H 	0.6919	0.4437	0.9773	0.089
Mof_C 	C 	0.63571	0.43951	0.0974	0.11
Mof_H 	H 	0.6411	0.4619	0.1721	-0.032
Mof_Ag	Ag	0.45053	0.0639	0.32647	0.569
Mof_N 	N 	0.52539	0.00126	0.7638	-0.201
Mof_N 	N 	0.51663	0.1485	0.0183	-0.098
Mof_N 	N 	0.49535	0.18303	0.0818	-0.094
Mof_N 	N 	0.44786	0.13425	0.0185	-0.169
Mof_N 	N 	0.36437	0.25853	0.3068	-0.202
Mof_N 	N 	0.40148	0.08095	0.1092	-0.219
Mof_C 	C 	0.53762	0.05955	0.9497	-0.141
Mof_H 	H 	0.5553	0.0728	0.0286	0.071
Mof_C 	C 	0.54945	0.02243	0.8771	0.082
Mof_H 	H 	0.5757	0.0109	0.9071	-0.014
Mof_C 	C 	0.48801	0.01859	0.725	0.083
Mof_H 	H 	0.4706	0.0042	0.6482	-0.033
Mof_C 	C 	0.4736	0.05637	0.7913	-0.146
Mof_H 	H 	0.4472	0.0673	0.7593	0.064
Mof_C 	C 	0.4988	0.07787	0.906	0.05
Mof_C 	C 	0.48819	0.11923	0.9805	0.078
Mof_C 	C 	0.45442	0.17423	0.0831	0.086
Mof_C 	C 	0.42235	0.20247	0.1562	0.063
Mof_C 	C 	0.42916	0.2461	0.1536	-0.139
Mof_H 	H 	0.4533	0.2573	0.101	0.1
Mof_C 	C 	0.40005	0.27266	0.2293	0.094
Mof_H 	H 	0.4052	0.3019	0.2271	-0.009
Mof_C 	C 	0.35827	0.21662	0.3086	0.093
Mof_H 	H 	0.3339	0.2062	0.3616	-0.023
Mof_C 	C 	0.38578	0.18771	0.237	-0.143
Mof_H 	H 	0.38	0.1587	0.2425	0.072
Mof_C 	C 	0.40809	0.11215	0.9997	0.184
Mof_C 	C 	0.37978	0.12489	0.8775	-0.239
Mof_H 	H 	0.3859	0.1473	0.8037	0.118
Mof_C 	C 	0.34167	0.10297	0.8686	0.128
Mof_H 	H 	0.3215	0.1101	0.7865	-0.028
Mof_C 	C 	0.33389	0.07096	0.9804	-0.208
Mof_H 	H 	0.3081	0.0563	0.9773	0.089
Mof_C 	C 	0.36429	0.06049	0.0974	0.11
Mof_H 	H 	0.3589	0.0381	0.1721	-0.032
Mof_Ag	Ag	0.95053	0.5639	0.82647	0.569
Mof_N 	N 	0.02539	0.50126	0.2638	-0.202
Mof_N 	N 	0.01663	0.6485	0.5183	-0.095
Mof_N 	N 	0.99535	0.68303	0.5818	-0.094
Mof_N 	N 	0.94786	0.63425	0.5185	-0.166
Mof_N 	N 	0.86437	0.75853	0.8068	-0.202
Mof_N 	N 	0.90148	0.58095	0.6092	-0.218
Mof_C 	C 	0.03762	0.55955	0.4497	-0.148
Mof_H 	H 	0.0553	0.5728	0.5286	0.075
Mof_C 	C 	0.04945	0.52243	0.3771	0.085
Mof_H 	H 	0.0757	0.5109	0.4071	-0.016
Mof_C 	C 	0.98801	0.51859	0.225	0.085
Mof_H 	H 	0.9706	0.5042	0.1482	-0.034
Mof_C 	C 	0.9736	0.55637	0.2913	-0.149
Mof_H 	H 	0.9472	0.5673	0.2593	0.065
Mof_C 	C 	0.9988	0.57787	0.406	0.054
Mof_C 	C 	0.98819	0.61923	0.4805	0.072
Mof_C 	C 	0.95442	0.67423	0.5831	0.086
Mof_C 	C 	0.92235	0.70247	0.6562	0.064
Mof_C 	C 	0.92916	0.7461	0.6536	-0.139
Mof_H 	H 	0.9533	0.7573	0.601	0.101
Mof_C 	C 	0.90005	0.77266	0.7293	0.093
Mof_H 	H 	0.9052	0.8019	0.7271	-0.01
Mof_C 	C 	0.85827	0.71662	0.8086	0.093
Mof_H 	H 	0.8339	0.7062	0.8616	-0.023
Mof_C 	C 	0.88578	0.68771	0.737	-0.143
Mof_H 	H 	0.88	0.6587	0.7425	0.072
Mof_C 	C 	0.90809	0.61215	0.4997	0.18
Mof_C 	C 	0.87978	0.62489	0.3775	-0.238
Mof_H 	H 	0.8859	0.6473	0.3037	0.117
Mof_C 	C 	0.84167	0.60297	0.3686	0.129
Mof_H 	H 	0.8215	0.6101	0.2865	-0.028
Mof_C 	C 	0.83389	0.57096	0.4804	-0.212
Mof_H 	H 	0.8081	0.5563	0.4773	0.09
Mof_C 	C 	0.86429	0.56049	0.5974	0.114
Mof_H 	H 	0.8589	0.5381	0.6721	-0.033
_end
