data_functionalizedCrystal
_audit_creation_method	'EQeq! by Chris Wilmer'
_symmetry_space_group_name_H-M	'P1'
_symmetry_Int_Tables_number	1
_symmetry_cell_setting	triclinic
loop_
_symmetry_equiv_pos_as_xyz
  x,y,z
_cell_length_a	22.975
_cell_length_b	22.975
_cell_length_c	34.298
_cell_angle_alpha	90
_cell_angle_beta	90
_cell_angle_gamma	90
loop_
_atom_site_label
_atom_site_type_symbol
_atom_site_fract_x
_atom_site_fract_y
_atom_site_fract_z
_atom_site_charge
Mof_N 	N 	0.2326	0.0877	0.63622	-0.2
Mof_C 	C 	0.2143	0.1207	0.6653	0.098
Mof_H 	H 	0.2425	0.1436	0.6785	-0.022
Mof_C 	C 	0.1585	0.1245	0.6779	-0.168
Mof_H 	H 	0.1486	0.149	0.6992	0.084
Mof_C 	C 	0.1158	0.0917	0.6589	0.1
Mof_C 	C 	0.1347	0.0559	0.6289	-0.165
Mof_H 	H 	0.1077	0.0319	0.6155	0.083
Mof_C 	C 	0.1927	0.0551	0.6187	0.094
Mof_H 	H 	0.2048	0.0301	0.5982	-0.013
Mof_C 	C 	0.0548	0.0937	0.67088	-0.038
Mof_C 	C 	0.0321	0.0987	0.70768	-0.03
Mof_C 	C 	0.0658	0.0989	0.74514	0.11
Mof_C 	C 	0.0888	0.049	0.7586	-0.177
Mof_H 	H 	0.0848	0.014	0.7442	0.087
Mof_C 	C 	0.1177	0.0492	0.7931	0.094
Mof_H 	H 	0.1338	0.0134	0.8018	-0.017
Mof_N 	N 	0.1254	0.0965	0.81602	-0.214
Mof_C 	C 	0.1036	0.1451	0.80152	0.1
Mof_H 	H 	0.1087	0.1801	0.8159	-0.028
Mof_C 	C 	0.0738	0.1478	0.7668	-0.179
Mof_H 	H 	0.0589	0.184	0.7578	0.08
Mof_N 	N 	0.7326	0.5877	0.13622	-0.2
Mof_C 	C 	0.7143	0.6207	0.1653	0.098
Mof_H 	H 	0.7425	0.6436	0.1785	-0.022
Mof_C 	C 	0.6585	0.6245	0.1779	-0.168
Mof_H 	H 	0.6486	0.649	0.1992	0.084
Mof_C 	C 	0.6158	0.5917	0.1589	0.1
Mof_C 	C 	0.6347	0.5559	0.1289	-0.165
Mof_H 	H 	0.6077	0.5319	0.1155	0.083
Mof_C 	C 	0.6927	0.5551	0.1187	0.094
Mof_H 	H 	0.7048	0.5301	0.0982	-0.013
Mof_C 	C 	0.5548	0.5937	0.17088	-0.037
Mof_C 	C 	0.5321	0.5987	0.20768	-0.031
Mof_C 	C 	0.5658	0.5989	0.24514	0.11
Mof_C 	C 	0.5888	0.549	0.2586	-0.177
Mof_H 	H 	0.5848	0.514	0.2442	0.087
Mof_C 	C 	0.6177	0.5492	0.2931	0.094
Mof_H 	H 	0.6338	0.5134	0.3018	-0.017
Mof_N 	N 	0.6254	0.5965	0.31602	-0.214
Mof_C 	C 	0.6036	0.6451	0.30152	0.1
Mof_H 	H 	0.6087	0.6801	0.3159	-0.028
Mof_C 	C 	0.5738	0.6478	0.2668	-0.179
Mof_H 	H 	0.5589	0.684	0.2578	0.08
Mof_N 	N 	0.2674	0.9123	0.13622	-0.2
Mof_C 	C 	0.2857	0.8793	0.1653	0.098
Mof_H 	H 	0.2575	0.8564	0.1785	-0.022
Mof_C 	C 	0.3415	0.8755	0.1779	-0.168
Mof_H 	H 	0.3514	0.851	0.1992	0.084
Mof_C 	C 	0.3842	0.9083	0.1589	0.1
Mof_C 	C 	0.3653	0.9441	0.1289	-0.165
Mof_H 	H 	0.3923	0.9681	0.1155	0.083
Mof_C 	C 	0.3073	0.9449	0.1187	0.094
Mof_H 	H 	0.2952	0.9699	0.0982	-0.013
Mof_C 	C 	0.4452	0.9063	0.17088	-0.037
Mof_C 	C 	0.4679	0.9013	0.20768	-0.031
Mof_C 	C 	0.4342	0.9011	0.24514	0.111
Mof_C 	C 	0.4112	0.951	0.2586	-0.176
Mof_H 	H 	0.4152	0.986	0.2442	0.088
Mof_C 	C 	0.3823	0.9508	0.2931	0.095
Mof_H 	H 	0.3662	0.9866	0.3018	-0.016
Mof_N 	N 	0.3746	0.9035	0.31602	-0.213
Mof_C 	C 	0.3964	0.8549	0.30152	0.101
Mof_H 	H 	0.3913	0.8199	0.3159	-0.027
Mof_C 	C 	0.4262	0.8522	0.2668	-0.178
Mof_H 	H 	0.4411	0.816	0.2578	0.081
Mof_N 	N 	0.7674	0.4123	0.63622	-0.199
Mof_C 	C 	0.7857	0.3793	0.6653	0.099
Mof_H 	H 	0.7575	0.3564	0.6785	-0.021
Mof_C 	C 	0.8415	0.3755	0.6779	-0.167
Mof_H 	H 	0.8514	0.351	0.6992	0.085
Mof_C 	C 	0.8842	0.4083	0.6589	0.101
Mof_C 	C 	0.8653	0.4441	0.6289	-0.164
Mof_H 	H 	0.8923	0.4681	0.6155	0.084
Mof_C 	C 	0.8073	0.4449	0.6187	0.095
Mof_H 	H 	0.7952	0.4699	0.5982	-0.012
Mof_C 	C 	0.9452	0.4063	0.67088	-0.037
Mof_C 	C 	0.9679	0.4013	0.70768	-0.03
Mof_C 	C 	0.9342	0.4011	0.74514	0.111
Mof_C 	C 	0.9112	0.451	0.7586	-0.176
Mof_H 	H 	0.9152	0.486	0.7442	0.088
Mof_C 	C 	0.8823	0.4508	0.7931	0.095
Mof_H 	H 	0.8662	0.4866	0.8018	-0.016
Mof_N 	N 	0.8746	0.4035	0.81602	-0.213
Mof_C 	C 	0.8964	0.3549	0.80152	0.101
Mof_H 	H 	0.8913	0.3199	0.8159	-0.027
Mof_C 	C 	0.9262	0.3522	0.7668	-0.178
Mof_H 	H 	0.9411	0.316	0.7578	0.081
Mof_N 	N 	0.1623	0.9826	0.88622	-0.199
Mof_C 	C 	0.1293	0.9643	0.9153	0.099
Mof_H 	H 	0.1064	0.9925	0.9285	-0.021
Mof_C 	C 	0.1255	0.9085	0.9279	-0.167
Mof_H 	H 	0.101	0.8986	0.9492	0.085
Mof_C 	C 	0.1583	0.8658	0.9089	0.101
Mof_C 	C 	0.1941	0.8847	0.8789	-0.164
Mof_H 	H 	0.2181	0.8577	0.8655	0.084
Mof_C 	C 	0.1949	0.9427	0.8687	0.095
Mof_H 	H 	0.2199	0.9548	0.8482	-0.012
Mof_C 	C 	0.1563	0.8048	0.92088	-0.036
Mof_C 	C 	0.1513	0.7821	0.95768	-0.03
Mof_C 	C 	0.1511	0.8158	0.99514	0.111
Mof_C 	C 	0.201	0.8388	0.0086	-0.176
Mof_H 	H 	0.236	0.8348	0.9942	0.088
Mof_C 	C 	0.2008	0.8677	0.0431	0.095
Mof_H 	H 	0.2366	0.8838	0.0518	-0.016
Mof_N 	N 	0.1535	0.8754	0.06602	-0.213
Mof_C 	C 	0.1049	0.8536	0.05152	0.101
Mof_H 	H 	0.0699	0.8587	0.0659	-0.027
Mof_C 	C 	0.1022	0.8238	0.0168	-0.178
Mof_H 	H 	0.066	0.8089	0.0078	0.081
Mof_N 	N 	0.6623	0.4826	0.38622	-0.199
Mof_C 	C 	0.6293	0.4643	0.4153	0.099
Mof_H 	H 	0.6064	0.4925	0.4285	-0.021
Mof_C 	C 	0.6255	0.4085	0.4279	-0.167
Mof_H 	H 	0.601	0.3986	0.4492	0.085
Mof_C 	C 	0.6583	0.3658	0.4089	0.101
Mof_C 	C 	0.6941	0.3847	0.3789	-0.164
Mof_H 	H 	0.7181	0.3577	0.3655	0.084
Mof_C 	C 	0.6949	0.4427	0.3687	0.095
Mof_H 	H 	0.7199	0.4548	0.3482	-0.012
Mof_C 	C 	0.6563	0.3048	0.42088	-0.036
Mof_C 	C 	0.6513	0.2821	0.45768	-0.03
Mof_C 	C 	0.6511	0.3158	0.49514	0.111
Mof_C 	C 	0.701	0.3388	0.5086	-0.176
Mof_H 	H 	0.736	0.3348	0.4942	0.088
Mof_C 	C 	0.7008	0.3677	0.5431	0.095
Mof_H 	H 	0.7366	0.3838	0.5518	-0.016
Mof_N 	N 	0.6535	0.3754	0.56602	-0.213
Mof_C 	C 	0.6049	0.3536	0.55152	0.101
Mof_H 	H 	0.5699	0.3587	0.5659	-0.027
Mof_C 	C 	0.6022	0.3238	0.5168	-0.178
Mof_H 	H 	0.566	0.3089	0.5078	0.081
Mof_N 	N 	0.3377	0.0174	0.38622	-0.199
Mof_C 	C 	0.3707	0.0357	0.4153	0.099
Mof_H 	H 	0.3936	0.0075	0.4285	-0.021
Mof_C 	C 	0.3745	0.0915	0.4279	-0.167
Mof_H 	H 	0.399	0.1014	0.4492	0.085
Mof_C 	C 	0.3417	0.1342	0.4089	0.101
Mof_C 	C 	0.3059	0.1153	0.3789	-0.164
Mof_H 	H 	0.2819	0.1423	0.3655	0.084
Mof_C 	C 	0.3051	0.0573	0.3687	0.095
Mof_H 	H 	0.2801	0.0452	0.3482	-0.012
Mof_C 	C 	0.3437	0.1952	0.42088	-0.036
Mof_C 	C 	0.3487	0.2179	0.45768	-0.03
Mof_C 	C 	0.3489	0.1842	0.49514	0.111
Mof_C 	C 	0.299	0.1612	0.5086	-0.176
Mof_H 	H 	0.264	0.1652	0.4942	0.088
Mof_C 	C 	0.2992	0.1323	0.5431	0.095
Mof_H 	H 	0.2634	0.1162	0.5518	-0.016
Mof_N 	N 	0.3465	0.1246	0.56602	-0.213
Mof_C 	C 	0.3951	0.1464	0.55152	0.101
Mof_H 	H 	0.4301	0.1413	0.5659	-0.027
Mof_C 	C 	0.3978	0.1762	0.5168	-0.178
Mof_H 	H 	0.434	0.1911	0.5078	0.081
Mof_N 	N 	0.8377	0.5174	0.88622	-0.199
Mof_C 	C 	0.8707	0.5357	0.9153	0.099
Mof_H 	H 	0.8936	0.5075	0.9285	-0.022
Mof_C 	C 	0.8745	0.5915	0.9279	-0.167
Mof_H 	H 	0.899	0.6014	0.9492	0.085
Mof_C 	C 	0.8417	0.6342	0.9089	0.101
Mof_C 	C 	0.8059	0.6153	0.8789	-0.164
Mof_H 	H 	0.7819	0.6423	0.8655	0.084
Mof_C 	C 	0.8051	0.5573	0.8687	0.095
Mof_H 	H 	0.7801	0.5452	0.8482	-0.012
Mof_C 	C 	0.8437	0.6952	0.92088	-0.036
Mof_C 	C 	0.8487	0.7179	0.95768	-0.03
Mof_C 	C 	0.8489	0.6842	0.99514	0.111
Mof_C 	C 	0.799	0.6612	0.0086	-0.176
Mof_H 	H 	0.764	0.6652	0.9942	0.088
Mof_C 	C 	0.7992	0.6323	0.0431	0.095
Mof_H 	H 	0.7634	0.6162	0.0518	-0.016
Mof_N 	N 	0.8465	0.6246	0.06602	-0.213
Mof_C 	C 	0.8951	0.6464	0.05152	0.101
Mof_H 	H 	0.9301	0.6413	0.0659	-0.027
Mof_C 	C 	0.8978	0.6762	0.0168	-0.178
Mof_H 	H 	0.934	0.6911	0.0078	0.081
Mof_N 	N 	0.2674	0.0877	0.86378	-0.199
Mof_C 	C 	0.2857	0.1207	0.8347	0.099
Mof_H 	H 	0.2575	0.1436	0.8215	-0.021
Mof_C 	C 	0.3415	0.1245	0.8221	-0.167
Mof_H 	H 	0.3514	0.149	0.8008	0.085
Mof_C 	C 	0.3842	0.0917	0.8411	0.101
Mof_C 	C 	0.3653	0.0559	0.8711	-0.164
Mof_H 	H 	0.3923	0.0319	0.8845	0.084
Mof_C 	C 	0.3073	0.0551	0.8813	0.095
Mof_H 	H 	0.2952	0.0301	0.9018	-0.012
Mof_C 	C 	0.4452	0.0937	0.82912	-0.036
Mof_C 	C 	0.4679	0.0987	0.79232	-0.03
Mof_C 	C 	0.4342	0.0989	0.75486	0.111
Mof_C 	C 	0.4112	0.049	0.7414	-0.176
Mof_H 	H 	0.4152	0.014	0.7558	0.088
Mof_C 	C 	0.3823	0.0492	0.7069	0.095
Mof_H 	H 	0.3662	0.0134	0.6982	-0.016
Mof_N 	N 	0.3746	0.0965	0.68398	-0.213
Mof_C 	C 	0.3964	0.1451	0.69848	0.101
Mof_H 	H 	0.3913	0.1801	0.6841	-0.027
Mof_C 	C 	0.4262	0.1478	0.7332	-0.178
Mof_H 	H 	0.4411	0.184	0.7422	0.081
Mof_N 	N 	0.7674	0.5877	0.36378	-0.199
Mof_C 	C 	0.7857	0.6207	0.3347	0.099
Mof_H 	H 	0.7575	0.6436	0.3215	-0.021
Mof_C 	C 	0.8415	0.6245	0.3221	-0.167
Mof_H 	H 	0.8514	0.649	0.3008	0.085
Mof_C 	C 	0.8842	0.5917	0.3411	0.101
Mof_C 	C 	0.8653	0.5559	0.3711	-0.164
Mof_H 	H 	0.8923	0.5319	0.3845	0.084
Mof_C 	C 	0.8073	0.5551	0.3813	0.095
Mof_H 	H 	0.7952	0.5301	0.4018	-0.012
Mof_C 	C 	0.9452	0.5937	0.32912	-0.037
Mof_C 	C 	0.9679	0.5987	0.29232	-0.03
Mof_C 	C 	0.9342	0.5989	0.25486	0.111
Mof_C 	C 	0.9112	0.549	0.2414	-0.176
Mof_H 	H 	0.9152	0.514	0.2558	0.088
Mof_C 	C 	0.8823	0.5492	0.2069	0.095
Mof_H 	H 	0.8662	0.5134	0.1982	-0.016
Mof_N 	N 	0.8746	0.5965	0.18398	-0.213
Mof_C 	C 	0.8964	0.6451	0.19848	0.101
Mof_H 	H 	0.8913	0.6801	0.1841	-0.027
Mof_C 	C 	0.9262	0.6478	0.2332	-0.178
Mof_H 	H 	0.9411	0.684	0.2422	0.081
Mof_N 	N 	0.2326	0.9123	0.36378	-0.199
Mof_C 	C 	0.2143	0.8793	0.3347	0.099
Mof_H 	H 	0.2425	0.8564	0.3215	-0.021
Mof_C 	C 	0.1585	0.8755	0.3221	-0.167
Mof_H 	H 	0.1486	0.851	0.3008	0.085
Mof_C 	C 	0.1158	0.9083	0.3411	0.101
Mof_C 	C 	0.1347	0.9441	0.3711	-0.164
Mof_H 	H 	0.1077	0.9681	0.3845	0.084
Mof_C 	C 	0.1927	0.9449	0.3813	0.095
Mof_H 	H 	0.2048	0.9699	0.4018	-0.012
Mof_C 	C 	0.0548	0.9063	0.32912	-0.037
Mof_C 	C 	0.0321	0.9013	0.29232	-0.029
Mof_C 	C 	0.0658	0.9011	0.25486	0.111
Mof_C 	C 	0.0888	0.951	0.2414	-0.176
Mof_H 	H 	0.0848	0.986	0.2558	0.088
Mof_C 	C 	0.1177	0.9508	0.2069	0.095
Mof_H 	H 	0.1338	0.9866	0.1982	-0.016
Mof_N 	N 	0.1254	0.9035	0.18398	-0.213
Mof_C 	C 	0.1036	0.8549	0.19848	0.101
Mof_H 	H 	0.1087	0.8199	0.1841	-0.027
Mof_C 	C 	0.0738	0.8522	0.2332	-0.178
Mof_H 	H 	0.0589	0.816	0.2422	0.081
Mof_N 	N 	0.7326	0.4123	0.86378	-0.199
Mof_C 	C 	0.7143	0.3793	0.8347	0.099
Mof_H 	H 	0.7425	0.3564	0.8215	-0.021
Mof_C 	C 	0.6585	0.3755	0.8221	-0.167
Mof_H 	H 	0.6486	0.351	0.8008	0.085
Mof_C 	C 	0.6158	0.4083	0.8411	0.101
Mof_C 	C 	0.6347	0.4441	0.8711	-0.164
Mof_H 	H 	0.6077	0.4681	0.8845	0.084
Mof_C 	C 	0.6927	0.4449	0.8813	0.095
Mof_H 	H 	0.7048	0.4699	0.9018	-0.012
Mof_C 	C 	0.5548	0.4063	0.82912	-0.036
Mof_C 	C 	0.5321	0.4013	0.79232	-0.03
Mof_C 	C 	0.5658	0.4011	0.75486	0.111
Mof_C 	C 	0.5888	0.451	0.7414	-0.176
Mof_H 	H 	0.5848	0.486	0.7558	0.088
Mof_C 	C 	0.6177	0.4508	0.7069	0.095
Mof_H 	H 	0.6338	0.4866	0.6982	-0.016
Mof_N 	N 	0.6254	0.4035	0.68398	-0.213
Mof_C 	C 	0.6036	0.3549	0.69848	0.101
Mof_H 	H 	0.6087	0.3199	0.6841	-0.027
Mof_C 	C 	0.5738	0.3522	0.7332	-0.178
Mof_H 	H 	0.5589	0.316	0.7422	0.081
Mof_N 	N 	0.3377	0.9826	0.61378	-0.199
Mof_C 	C 	0.3707	0.9643	0.5847	0.099
Mof_H 	H 	0.3936	0.9925	0.5715	-0.021
Mof_C 	C 	0.3745	0.9085	0.5721	-0.167
Mof_H 	H 	0.399	0.8986	0.5508	0.085
Mof_C 	C 	0.3417	0.8658	0.5911	0.101
Mof_C 	C 	0.3059	0.8847	0.6211	-0.164
Mof_H 	H 	0.2819	0.8577	0.6345	0.084
Mof_C 	C 	0.3051	0.9427	0.6313	0.095
Mof_H 	H 	0.2801	0.9548	0.6518	-0.012
Mof_C 	C 	0.3437	0.8048	0.57912	-0.036
Mof_C 	C 	0.3487	0.7821	0.54232	-0.03
Mof_C 	C 	0.3489	0.8158	0.50486	0.111
Mof_C 	C 	0.299	0.8388	0.4914	-0.176
Mof_H 	H 	0.264	0.8348	0.5058	0.088
Mof_C 	C 	0.2992	0.8677	0.4569	0.095
Mof_H 	H 	0.2634	0.8838	0.4482	-0.016
Mof_N 	N 	0.3465	0.8754	0.43398	-0.213
Mof_C 	C 	0.3951	0.8536	0.44848	0.101
Mof_H 	H 	0.4301	0.8587	0.4341	-0.027
Mof_C 	C 	0.3978	0.8238	0.4832	-0.178
Mof_H 	H 	0.434	0.8089	0.4922	0.081
Mof_N 	N 	0.8377	0.4826	0.11378	-0.199
Mof_C 	C 	0.8707	0.4643	0.0847	0.099
Mof_H 	H 	0.8936	0.4925	0.0715	-0.022
Mof_C 	C 	0.8745	0.4085	0.0721	-0.167
Mof_H 	H 	0.899	0.3986	0.0508	0.085
Mof_C 	C 	0.8417	0.3658	0.0911	0.101
Mof_C 	C 	0.8059	0.3847	0.1211	-0.164
Mof_H 	H 	0.7819	0.3577	0.1345	0.084
Mof_C 	C 	0.8051	0.4427	0.1313	0.095
Mof_H 	H 	0.7801	0.4548	0.1518	-0.012
Mof_C 	C 	0.8437	0.3048	0.07912	-0.036
Mof_C 	C 	0.8487	0.2821	0.04232	-0.03
Mof_C 	C 	0.8489	0.3158	0.00486	0.111
Mof_C 	C 	0.799	0.3388	0.9914	-0.176
Mof_H 	H 	0.764	0.3348	0.0058	0.088
Mof_C 	C 	0.7992	0.3677	0.9569	0.095
Mof_H 	H 	0.7634	0.3838	0.9482	-0.016
Mof_N 	N 	0.8465	0.3754	0.93398	-0.213
Mof_C 	C 	0.8951	0.3536	0.94848	0.101
Mof_H 	H 	0.9301	0.3587	0.9341	-0.027
Mof_C 	C 	0.8978	0.3238	0.9832	-0.178
Mof_H 	H 	0.934	0.3089	0.9922	0.081
Mof_N 	N 	0.1623	0.0174	0.11378	-0.199
Mof_C 	C 	0.1293	0.0357	0.0847	0.099
Mof_H 	H 	0.1064	0.0075	0.0715	-0.021
Mof_C 	C 	0.1255	0.0915	0.0721	-0.167
Mof_H 	H 	0.101	0.1014	0.0508	0.085
Mof_C 	C 	0.1583	0.1342	0.0911	0.101
Mof_C 	C 	0.1941	0.1153	0.1211	-0.164
Mof_H 	H 	0.2181	0.1423	0.1345	0.084
Mof_C 	C 	0.1949	0.0573	0.1313	0.095
Mof_H 	H 	0.2199	0.0452	0.1518	-0.012
Mof_C 	C 	0.1563	0.1952	0.07912	-0.036
Mof_C 	C 	0.1513	0.2179	0.04232	-0.03
Mof_C 	C 	0.1511	0.1842	0.00486	0.111
Mof_C 	C 	0.201	0.1612	0.9914	-0.176
Mof_H 	H 	0.236	0.1652	0.0058	0.088
Mof_C 	C 	0.2008	0.1323	0.9569	0.095
Mof_H 	H 	0.2366	0.1162	0.9482	-0.016
Mof_N 	N 	0.1535	0.1246	0.93398	-0.213
Mof_C 	C 	0.1049	0.1464	0.94848	0.101
Mof_H 	H 	0.0699	0.1413	0.9341	-0.027
Mof_C 	C 	0.1022	0.1762	0.9832	-0.178
Mof_H 	H 	0.066	0.1911	0.9922	0.081
Mof_N 	N 	0.6623	0.5174	0.61378	-0.199
Mof_C 	C 	0.6293	0.5357	0.5847	0.099
Mof_H 	H 	0.6064	0.5075	0.5715	-0.021
Mof_C 	C 	0.6255	0.5915	0.5721	-0.167
Mof_H 	H 	0.601	0.6014	0.5508	0.085
Mof_C 	C 	0.6583	0.6342	0.5911	0.101
Mof_C 	C 	0.6941	0.6153	0.6211	-0.164
Mof_H 	H 	0.7181	0.6423	0.6345	0.084
Mof_C 	C 	0.6949	0.5573	0.6313	0.095
Mof_H 	H 	0.7199	0.5452	0.6518	-0.012
Mof_C 	C 	0.6563	0.6952	0.57912	-0.036
Mof_C 	C 	0.6513	0.7179	0.54232	-0.03
Mof_C 	C 	0.6511	0.6842	0.50486	0.111
Mof_C 	C 	0.701	0.6612	0.4914	-0.176
Mof_H 	H 	0.736	0.6652	0.5058	0.088
Mof_C 	C 	0.7008	0.6323	0.4569	0.095
Mof_H 	H 	0.7366	0.6162	0.4482	-0.016
Mof_N 	N 	0.6535	0.6246	0.43398	-0.213
Mof_C 	C 	0.6049	0.6464	0.44848	0.101
Mof_H 	H 	0.5699	0.6413	0.4341	-0.027
Mof_C 	C 	0.6022	0.6762	0.4832	-0.178
Mof_H 	H 	0.566	0.6911	0.4922	0.081
Mof_N 	N 	0.7674	0.9123	0.36378	-0.199
Mof_C 	C 	0.7857	0.8793	0.3347	0.099
Mof_H 	H 	0.7575	0.8564	0.3215	-0.021
Mof_C 	C 	0.8415	0.8755	0.3221	-0.167
Mof_H 	H 	0.8514	0.851	0.3008	0.085
Mof_C 	C 	0.8842	0.9083	0.3411	0.101
Mof_C 	C 	0.8653	0.9441	0.3711	-0.164
Mof_H 	H 	0.8923	0.9681	0.3845	0.084
Mof_C 	C 	0.8073	0.9449	0.3813	0.095
Mof_H 	H 	0.7952	0.9699	0.4018	-0.012
Mof_C 	C 	0.9452	0.9063	0.32912	-0.037
Mof_C 	C 	0.9679	0.9013	0.29232	-0.03
Mof_C 	C 	0.9342	0.9011	0.25486	0.111
Mof_C 	C 	0.9112	0.951	0.2414	-0.176
Mof_H 	H 	0.9152	0.986	0.2558	0.088
Mof_C 	C 	0.8823	0.9508	0.2069	0.095
Mof_H 	H 	0.8662	0.9866	0.1982	-0.016
Mof_N 	N 	0.8746	0.9035	0.18398	-0.213
Mof_C 	C 	0.8964	0.8549	0.19848	0.101
Mof_H 	H 	0.8913	0.8199	0.1841	-0.027
Mof_C 	C 	0.9262	0.8522	0.2332	-0.178
Mof_H 	H 	0.9411	0.816	0.2422	0.081
Mof_N 	N 	0.2674	0.4123	0.86378	-0.199
Mof_C 	C 	0.2857	0.3793	0.8347	0.099
Mof_H 	H 	0.2575	0.3564	0.8215	-0.021
Mof_C 	C 	0.3415	0.3755	0.8221	-0.167
Mof_H 	H 	0.3514	0.351	0.8008	0.085
Mof_C 	C 	0.3842	0.4083	0.8411	0.101
Mof_C 	C 	0.3653	0.4441	0.8711	-0.164
Mof_H 	H 	0.3923	0.4681	0.8845	0.084
Mof_C 	C 	0.3073	0.4449	0.8813	0.095
Mof_H 	H 	0.2952	0.4699	0.9018	-0.012
Mof_C 	C 	0.4452	0.4063	0.82912	-0.036
Mof_C 	C 	0.4679	0.4013	0.79232	-0.03
Mof_C 	C 	0.4342	0.4011	0.75486	0.111
Mof_C 	C 	0.4112	0.451	0.7414	-0.176
Mof_H 	H 	0.4152	0.486	0.7558	0.088
Mof_C 	C 	0.3823	0.4508	0.7069	0.095
Mof_H 	H 	0.3662	0.4866	0.6982	-0.016
Mof_N 	N 	0.3746	0.4035	0.68398	-0.213
Mof_C 	C 	0.3964	0.3549	0.69848	0.101
Mof_H 	H 	0.3913	0.3199	0.6841	-0.027
Mof_C 	C 	0.4262	0.3522	0.7332	-0.178
Mof_H 	H 	0.4411	0.316	0.7422	0.081
Mof_N 	N 	0.7326	0.0877	0.86378	-0.199
Mof_C 	C 	0.7143	0.1207	0.8347	0.099
Mof_H 	H 	0.7425	0.1436	0.8215	-0.021
Mof_C 	C 	0.6585	0.1245	0.8221	-0.167
Mof_H 	H 	0.6486	0.149	0.8008	0.085
Mof_C 	C 	0.6158	0.0917	0.8411	0.101
Mof_C 	C 	0.6347	0.0559	0.8711	-0.164
Mof_H 	H 	0.6077	0.0319	0.8845	0.084
Mof_C 	C 	0.6927	0.0551	0.8813	0.095
Mof_H 	H 	0.7048	0.0301	0.9018	-0.012
Mof_C 	C 	0.5548	0.0937	0.82912	-0.036
Mof_C 	C 	0.5321	0.0987	0.79232	-0.03
Mof_C 	C 	0.5658	0.0989	0.75486	0.111
Mof_C 	C 	0.5888	0.049	0.7414	-0.176
Mof_H 	H 	0.5848	0.014	0.7558	0.088
Mof_C 	C 	0.6177	0.0492	0.7069	0.095
Mof_H 	H 	0.6338	0.0134	0.6982	-0.016
Mof_N 	N 	0.6254	0.0965	0.68398	-0.213
Mof_C 	C 	0.6036	0.1451	0.69848	0.101
Mof_H 	H 	0.6087	0.1801	0.6841	-0.027
Mof_C 	C 	0.5738	0.1478	0.7332	-0.178
Mof_H 	H 	0.5589	0.184	0.7422	0.081
Mof_N 	N 	0.2326	0.5877	0.36378	-0.199
Mof_C 	C 	0.2143	0.6207	0.3347	0.099
Mof_H 	H 	0.2425	0.6436	0.3215	-0.021
Mof_C 	C 	0.1585	0.6245	0.3221	-0.167
Mof_H 	H 	0.1486	0.649	0.3008	0.085
Mof_C 	C 	0.1158	0.5917	0.3411	0.101
Mof_C 	C 	0.1347	0.5559	0.3711	-0.164
Mof_H 	H 	0.1077	0.5319	0.3845	0.084
Mof_C 	C 	0.1927	0.5551	0.3813	0.095
Mof_H 	H 	0.2048	0.5301	0.4018	-0.012
Mof_C 	C 	0.0548	0.5937	0.32912	-0.037
Mof_C 	C 	0.0321	0.5987	0.29232	-0.029
Mof_C 	C 	0.0658	0.5989	0.25486	0.111
Mof_C 	C 	0.0888	0.549	0.2414	-0.176
Mof_H 	H 	0.0848	0.514	0.2558	0.088
Mof_C 	C 	0.1177	0.5492	0.2069	0.095
Mof_H 	H 	0.1338	0.5134	0.1982	-0.016
Mof_N 	N 	0.1254	0.5965	0.18398	-0.213
Mof_C 	C 	0.1036	0.6451	0.19848	0.101
Mof_H 	H 	0.1087	0.6801	0.1841	-0.027
Mof_C 	C 	0.0738	0.6478	0.2332	-0.178
Mof_H 	H 	0.0589	0.684	0.2422	0.081
Mof_N 	N 	0.8377	0.0174	0.11378	-0.199
Mof_C 	C 	0.8707	0.0357	0.0847	0.099
Mof_H 	H 	0.8936	0.0075	0.0715	-0.022
Mof_C 	C 	0.8745	0.0915	0.0721	-0.167
Mof_H 	H 	0.899	0.1014	0.0508	0.085
Mof_C 	C 	0.8417	0.1342	0.0911	0.101
Mof_C 	C 	0.8059	0.1153	0.1211	-0.164
Mof_H 	H 	0.7819	0.1423	0.1345	0.084
Mof_C 	C 	0.8051	0.0573	0.1313	0.095
Mof_H 	H 	0.7801	0.0452	0.1518	-0.012
Mof_C 	C 	0.8437	0.1952	0.07912	-0.036
Mof_C 	C 	0.8487	0.2179	0.04232	-0.03
Mof_C 	C 	0.8489	0.1842	0.00486	0.111
Mof_C 	C 	0.799	0.1612	0.9914	-0.176
Mof_H 	H 	0.764	0.1652	0.0058	0.088
Mof_C 	C 	0.7992	0.1323	0.9569	0.095
Mof_H 	H 	0.7634	0.1162	0.9482	-0.016
Mof_N 	N 	0.8465	0.1246	0.93398	-0.213
Mof_C 	C 	0.8951	0.1464	0.94848	0.101
Mof_H 	H 	0.9301	0.1413	0.9341	-0.027
Mof_C 	C 	0.8978	0.1762	0.9832	-0.178
Mof_H 	H 	0.934	0.1911	0.9922	0.081
Mof_N 	N 	0.3377	0.5174	0.61378	-0.199
Mof_C 	C 	0.3707	0.5357	0.5847	0.099
Mof_H 	H 	0.3936	0.5075	0.5715	-0.021
Mof_C 	C 	0.3745	0.5915	0.5721	-0.167
Mof_H 	H 	0.399	0.6014	0.5508	0.085
Mof_C 	C 	0.3417	0.6342	0.5911	0.101
Mof_C 	C 	0.3059	0.6153	0.6211	-0.164
Mof_H 	H 	0.2819	0.6423	0.6345	0.084
Mof_C 	C 	0.3051	0.5573	0.6313	0.095
Mof_H 	H 	0.2801	0.5452	0.6518	-0.012
Mof_C 	C 	0.3437	0.6952	0.57912	-0.036
Mof_C 	C 	0.3487	0.7179	0.54232	-0.03
Mof_C 	C 	0.3489	0.6842	0.50486	0.111
Mof_C 	C 	0.299	0.6612	0.4914	-0.176
Mof_H 	H 	0.264	0.6652	0.5058	0.088
Mof_C 	C 	0.2992	0.6323	0.4569	0.095
Mof_H 	H 	0.2634	0.6162	0.4482	-0.016
Mof_N 	N 	0.3465	0.6246	0.43398	-0.213
Mof_C 	C 	0.3951	0.6464	0.44848	0.101
Mof_H 	H 	0.4301	0.6413	0.4341	-0.027
Mof_C 	C 	0.3978	0.6762	0.4832	-0.178
Mof_H 	H 	0.434	0.6911	0.4922	0.081
Mof_N 	N 	0.6623	0.9826	0.61378	-0.199
Mof_C 	C 	0.6293	0.9643	0.5847	0.099
Mof_H 	H 	0.6064	0.9925	0.5715	-0.021
Mof_C 	C 	0.6255	0.9085	0.5721	-0.167
Mof_H 	H 	0.601	0.8986	0.5508	0.085
Mof_C 	C 	0.6583	0.8658	0.5911	0.101
Mof_C 	C 	0.6941	0.8847	0.6211	-0.164
Mof_H 	H 	0.7181	0.8577	0.6345	0.084
Mof_C 	C 	0.6949	0.9427	0.6313	0.095
Mof_H 	H 	0.7199	0.9548	0.6518	-0.012
Mof_C 	C 	0.6563	0.8048	0.57912	-0.036
Mof_C 	C 	0.6513	0.7821	0.54232	-0.03
Mof_C 	C 	0.6511	0.8158	0.50486	0.111
Mof_C 	C 	0.701	0.8388	0.4914	-0.176
Mof_H 	H 	0.736	0.8348	0.5058	0.088
Mof_C 	C 	0.7008	0.8677	0.4569	0.095
Mof_H 	H 	0.7366	0.8838	0.4482	-0.016
Mof_N 	N 	0.6535	0.8754	0.43398	-0.213
Mof_C 	C 	0.6049	0.8536	0.44848	0.101
Mof_H 	H 	0.5699	0.8587	0.4341	-0.027
Mof_C 	C 	0.6022	0.8238	0.4832	-0.178
Mof_H 	H 	0.566	0.8089	0.4922	0.081
Mof_N 	N 	0.1623	0.4826	0.11378	-0.199
Mof_C 	C 	0.1293	0.4643	0.0847	0.099
Mof_H 	H 	0.1064	0.4925	0.0715	-0.021
Mof_C 	C 	0.1255	0.4085	0.0721	-0.167
Mof_H 	H 	0.101	0.3986	0.0508	0.085
Mof_C 	C 	0.1583	0.3658	0.0911	0.101
Mof_C 	C 	0.1941	0.3847	0.1211	-0.164
Mof_H 	H 	0.2181	0.3577	0.1345	0.084
Mof_C 	C 	0.1949	0.4427	0.1313	0.095
Mof_H 	H 	0.2199	0.4548	0.1518	-0.012
Mof_C 	C 	0.1563	0.3048	0.07912	-0.036
Mof_C 	C 	0.1513	0.2821	0.04232	-0.03
Mof_C 	C 	0.1511	0.3158	0.00486	0.111
Mof_C 	C 	0.201	0.3388	0.9914	-0.176
Mof_H 	H 	0.236	0.3348	0.0058	0.088
Mof_C 	C 	0.2008	0.3677	0.9569	0.095
Mof_H 	H 	0.2366	0.3838	0.9482	-0.016
Mof_N 	N 	0.1535	0.3754	0.93398	-0.213
Mof_C 	C 	0.1049	0.3536	0.94848	0.101
Mof_H 	H 	0.0699	0.3587	0.9341	-0.027
Mof_C 	C 	0.1022	0.3238	0.9832	-0.178
Mof_H 	H 	0.066	0.3089	0.9922	0.081
Mof_N 	N 	0.7326	0.9123	0.13622	-0.199
Mof_C 	C 	0.7143	0.8793	0.1653	0.099
Mof_H 	H 	0.7425	0.8564	0.1785	-0.021
Mof_C 	C 	0.6585	0.8755	0.1779	-0.167
Mof_H 	H 	0.6486	0.851	0.1992	0.085
Mof_C 	C 	0.6158	0.9083	0.1589	0.101
Mof_C 	C 	0.6347	0.9441	0.1289	-0.164
Mof_H 	H 	0.6077	0.9681	0.1155	0.084
Mof_C 	C 	0.6927	0.9449	0.1187	0.095
Mof_H 	H 	0.7048	0.9699	0.0982	-0.012
Mof_C 	C 	0.5548	0.9063	0.17088	-0.036
Mof_C 	C 	0.5321	0.9013	0.20768	-0.03
Mof_C 	C 	0.5658	0.9011	0.24514	0.111
Mof_C 	C 	0.5888	0.951	0.2586	-0.176
Mof_H 	H 	0.5848	0.986	0.2442	0.088
Mof_C 	C 	0.6177	0.9508	0.2931	0.095
Mof_H 	H 	0.6338	0.9866	0.3018	-0.016
Mof_N 	N 	0.6254	0.9035	0.31602	-0.213
Mof_C 	C 	0.6036	0.8549	0.30152	0.101
Mof_H 	H 	0.6087	0.8199	0.3159	-0.027
Mof_C 	C 	0.5738	0.8522	0.2668	-0.178
Mof_H 	H 	0.5589	0.816	0.2578	0.081
Mof_N 	N 	0.2326	0.4123	0.63622	-0.199
Mof_C 	C 	0.2143	0.3793	0.6653	0.099
Mof_H 	H 	0.2425	0.3564	0.6785	-0.021
Mof_C 	C 	0.1585	0.3755	0.6779	-0.167
Mof_H 	H 	0.1486	0.351	0.6992	0.085
Mof_C 	C 	0.1158	0.4083	0.6589	0.101
Mof_C 	C 	0.1347	0.4441	0.6289	-0.164
Mof_H 	H 	0.1077	0.4681	0.6155	0.084
Mof_C 	C 	0.1927	0.4449	0.6187	0.095
Mof_H 	H 	0.2048	0.4699	0.5982	-0.012
Mof_C 	C 	0.0548	0.4063	0.67088	-0.037
Mof_C 	C 	0.0321	0.4013	0.70768	-0.029
Mof_C 	C 	0.0658	0.4011	0.74514	0.111
Mof_C 	C 	0.0888	0.451	0.7586	-0.176
Mof_H 	H 	0.0848	0.486	0.7442	0.088
Mof_C 	C 	0.1177	0.4508	0.7931	0.095
Mof_H 	H 	0.1338	0.4866	0.8018	-0.016
Mof_N 	N 	0.1254	0.4035	0.81602	-0.213
Mof_C 	C 	0.1036	0.3549	0.80152	0.101
Mof_H 	H 	0.1087	0.3199	0.8159	-0.027
Mof_C 	C 	0.0738	0.3522	0.7668	-0.178
Mof_H 	H 	0.0589	0.316	0.7578	0.081
Mof_N 	N 	0.7674	0.0877	0.63622	-0.199
Mof_C 	C 	0.7857	0.1207	0.6653	0.099
Mof_H 	H 	0.7575	0.1436	0.6785	-0.021
Mof_C 	C 	0.8415	0.1245	0.6779	-0.167
Mof_H 	H 	0.8514	0.149	0.6992	0.085
Mof_C 	C 	0.8842	0.0917	0.6589	0.101
Mof_C 	C 	0.8653	0.0559	0.6289	-0.164
Mof_H 	H 	0.8923	0.0319	0.6155	0.084
Mof_C 	C 	0.8073	0.0551	0.6187	0.095
Mof_H 	H 	0.7952	0.0301	0.5982	-0.012
Mof_C 	C 	0.9452	0.0937	0.67088	-0.037
Mof_C 	C 	0.9679	0.0987	0.70768	-0.03
Mof_C 	C 	0.9342	0.0989	0.74514	0.111
Mof_C 	C 	0.9112	0.049	0.7586	-0.176
Mof_H 	H 	0.9152	0.014	0.7442	0.088
Mof_C 	C 	0.8823	0.0492	0.7931	0.095
Mof_H 	H 	0.8662	0.0134	0.8018	-0.016
Mof_N 	N 	0.8746	0.0965	0.81602	-0.213
Mof_C 	C 	0.8964	0.1451	0.80152	0.101
Mof_H 	H 	0.8913	0.1801	0.8159	-0.027
Mof_C 	C 	0.9262	0.1478	0.7668	-0.178
Mof_H 	H 	0.9411	0.184	0.7578	0.081
Mof_N 	N 	0.2674	0.5877	0.13622	-0.199
Mof_C 	C 	0.2857	0.6207	0.1653	0.099
Mof_H 	H 	0.2575	0.6436	0.1785	-0.021
Mof_C 	C 	0.3415	0.6245	0.1779	-0.167
Mof_H 	H 	0.3514	0.649	0.1992	0.085
Mof_C 	C 	0.3842	0.5917	0.1589	0.101
Mof_C 	C 	0.3653	0.5559	0.1289	-0.164
Mof_H 	H 	0.3923	0.5319	0.1155	0.084
Mof_C 	C 	0.3073	0.5551	0.1187	0.095
Mof_H 	H 	0.2952	0.5301	0.0982	-0.012
Mof_C 	C 	0.4452	0.5937	0.17088	-0.036
Mof_C 	C 	0.4679	0.5987	0.20768	-0.03
Mof_C 	C 	0.4342	0.5989	0.24514	0.111
Mof_C 	C 	0.4112	0.549	0.2586	-0.176
Mof_H 	H 	0.4152	0.514	0.2442	0.088
Mof_C 	C 	0.3823	0.5492	0.2931	0.095
Mof_H 	H 	0.3662	0.5134	0.3018	-0.016
Mof_N 	N 	0.3746	0.5965	0.31602	-0.213
Mof_C 	C 	0.3964	0.6451	0.30152	0.101
Mof_H 	H 	0.3913	0.6801	0.3159	-0.027
Mof_C 	C 	0.4262	0.6478	0.2668	-0.178
Mof_H 	H 	0.4411	0.684	0.2578	0.081
Mof_N 	N 	0.6623	0.0174	0.38622	-0.199
Mof_C 	C 	0.6293	0.0357	0.4153	0.099
Mof_H 	H 	0.6064	0.0075	0.4285	-0.021
Mof_C 	C 	0.6255	0.0915	0.4279	-0.167
Mof_H 	H 	0.601	0.1014	0.4492	0.085
Mof_C 	C 	0.6583	0.1342	0.4089	0.101
Mof_C 	C 	0.6941	0.1153	0.3789	-0.164
Mof_H 	H 	0.7181	0.1423	0.3655	0.084
Mof_C 	C 	0.6949	0.0573	0.3687	0.095
Mof_H 	H 	0.7199	0.0452	0.3482	-0.012
Mof_C 	C 	0.6563	0.1952	0.42088	-0.036
Mof_C 	C 	0.6513	0.2179	0.45768	-0.03
Mof_C 	C 	0.6511	0.1842	0.49514	0.111
Mof_C 	C 	0.701	0.1612	0.5086	-0.176
Mof_H 	H 	0.736	0.1652	0.4942	0.088
Mof_C 	C 	0.7008	0.1323	0.5431	0.095
Mof_H 	H 	0.7366	0.1162	0.5518	-0.016
Mof_N 	N 	0.6535	0.1246	0.56602	-0.213
Mof_C 	C 	0.6049	0.1464	0.55152	0.101
Mof_H 	H 	0.5699	0.1413	0.5659	-0.027
Mof_C 	C 	0.6022	0.1762	0.5168	-0.178
Mof_H 	H 	0.566	0.1911	0.5078	0.081
Mof_N 	N 	0.1623	0.5174	0.88622	-0.199
Mof_C 	C 	0.1293	0.5357	0.9153	0.099
Mof_H 	H 	0.1064	0.5075	0.9285	-0.021
Mof_C 	C 	0.1255	0.5915	0.9279	-0.167
Mof_H 	H 	0.101	0.6014	0.9492	0.085
Mof_C 	C 	0.1583	0.6342	0.9089	0.101
Mof_C 	C 	0.1941	0.6153	0.8789	-0.164
Mof_H 	H 	0.2181	0.6423	0.8655	0.084
Mof_C 	C 	0.1949	0.5573	0.8687	0.095
Mof_H 	H 	0.2199	0.5452	0.8482	-0.012
Mof_C 	C 	0.1563	0.6952	0.92088	-0.036
Mof_C 	C 	0.1513	0.7179	0.95768	-0.03
Mof_C 	C 	0.1511	0.6842	0.99514	0.111
Mof_C 	C 	0.201	0.6612	0.0086	-0.176
Mof_H 	H 	0.236	0.6652	0.9942	0.088
Mof_C 	C 	0.2008	0.6323	0.0431	0.095
Mof_H 	H 	0.2366	0.6162	0.0518	-0.016
Mof_N 	N 	0.1535	0.6246	0.06602	-0.213
Mof_C 	C 	0.1049	0.6464	0.05152	0.101
Mof_H 	H 	0.0699	0.6413	0.0659	-0.027
Mof_C 	C 	0.1022	0.6762	0.0168	-0.178
Mof_H 	H 	0.066	0.6911	0.0078	0.081
Mof_N 	N 	0.8377	0.9826	0.88622	-0.199
Mof_C 	C 	0.8707	0.9643	0.9153	0.099
Mof_H 	H 	0.8936	0.9925	0.9285	-0.022
Mof_C 	C 	0.8745	0.9085	0.9279	-0.167
Mof_H 	H 	0.899	0.8986	0.9492	0.085
Mof_C 	C 	0.8417	0.8658	0.9089	0.101
Mof_C 	C 	0.8059	0.8847	0.8789	-0.164
Mof_H 	H 	0.7819	0.8577	0.8655	0.084
Mof_C 	C 	0.8051	0.9427	0.8687	0.095
Mof_H 	H 	0.7801	0.9548	0.8482	-0.012
Mof_C 	C 	0.8437	0.8048	0.92088	-0.036
Mof_C 	C 	0.8487	0.7821	0.95768	-0.03
Mof_C 	C 	0.8489	0.8158	0.99514	0.111
Mof_C 	C 	0.799	0.8388	0.0086	-0.176
Mof_H 	H 	0.764	0.8348	0.9942	0.088
Mof_C 	C 	0.7992	0.8677	0.0431	0.095
Mof_H 	H 	0.7634	0.8838	0.0518	-0.016
Mof_N 	N 	0.8465	0.8754	0.06602	-0.213
Mof_C 	C 	0.8951	0.8536	0.05152	0.101
Mof_H 	H 	0.9301	0.8587	0.0659	-0.027
Mof_C 	C 	0.8978	0.8238	0.0168	-0.178
Mof_H 	H 	0.934	0.8089	0.0078	0.081
Mof_N 	N 	0.3377	0.4826	0.38622	-0.199
Mof_C 	C 	0.3707	0.4643	0.4153	0.099
Mof_H 	H 	0.3936	0.4925	0.4285	-0.021
Mof_C 	C 	0.3745	0.4085	0.4279	-0.167
Mof_H 	H 	0.399	0.3986	0.4492	0.085
Mof_C 	C 	0.3417	0.3658	0.4089	0.101
Mof_C 	C 	0.3059	0.3847	0.3789	-0.164
Mof_H 	H 	0.2819	0.3577	0.3655	0.084
Mof_C 	C 	0.3051	0.4427	0.3687	0.095
Mof_H 	H 	0.2801	0.4548	0.3482	-0.012
Mof_C 	C 	0.3437	0.3048	0.42088	-0.036
Mof_C 	C 	0.3487	0.2821	0.45768	-0.03
Mof_C 	C 	0.3489	0.3158	0.49514	0.111
Mof_C 	C 	0.299	0.3388	0.5086	-0.176
Mof_H 	H 	0.264	0.3348	0.4942	0.088
Mof_C 	C 	0.2992	0.3677	0.5431	0.095
Mof_H 	H 	0.2634	0.3838	0.5518	-0.016
Mof_N 	N 	0.3465	0.3754	0.56602	-0.213
Mof_C 	C 	0.3951	0.3536	0.55152	0.101
Mof_H 	H 	0.4301	0.3587	0.5659	-0.027
Mof_C 	C 	0.3978	0.3238	0.5168	-0.178
Mof_H 	H 	0.434	0.3089	0.5078	0.081
Mof_Ag	Ag	0.33474	0.08474	0.625	0.611
Mof_Ag	Ag	0.83474	0.58474	0.125	0.611
Mof_Ag	Ag	0.16526	0.91526	0.125	0.611
Mof_Ag	Ag	0.66526	0.41526	0.625	0.611
Mof_Ag	Ag	0.16526	0.08474	0.875	0.611
Mof_Ag	Ag	0.66526	0.58474	0.375	0.611
Mof_Ag	Ag	0.33474	0.91526	0.375	0.611
Mof_Ag	Ag	0.83474	0.41526	0.875	0.611
Mof_Ag	Ag	0.66526	0.91526	0.375	0.611
Mof_Ag	Ag	0.16526	0.41526	0.875	0.611
Mof_Ag	Ag	0.83474	0.08474	0.875	0.611
Mof_Ag	Ag	0.33474	0.58474	0.375	0.611
Mof_Ag	Ag	0.83474	0.91526	0.125	0.611
Mof_Ag	Ag	0.33474	0.41526	0.625	0.611
Mof_Ag	Ag	0.66526	0.08474	0.625	0.611
Mof_Ag	Ag	0.16526	0.58474	0.125	0.611
Mof_S 	S 	-7.59363e-33	0.08912	0.63623	-0.009
Mof_S 	S 	0.5	0.58912	0.13623	-0.009
Mof_S 	S 	0.5	0.91088	0.13623	-0.009
Mof_S 	S 	-1.87484e-32	0.41088	0.63623	-0.009
Mof_S 	S 	0.16088	0.75	0.88623	-0.009
Mof_S 	S 	0.33912	0.25	0.38623	-0.009
Mof_S 	S 	0.5	0.08912	0.86377	-0.009
Mof_S 	S 	-9.11866e-33	0.58912	0.36377	-0.009
Mof_S 	S 	-3.54127e-33	0.91088	0.36377	-0.009
Mof_S 	S 	0.5	0.41088	0.86377	-0.009
Mof_S 	S 	0.33912	0.75	0.61377	-0.009
Mof_S 	S 	0.16088	0.25	0.11377	-0.009
Mof_S 	S 	0.83912	0.25	0.11377	-0.009
Mof_S 	S 	0.66088	0.75	0.61377	-0.009
Mof_S 	S 	0.66088	0.25	0.38623	-0.009
Mof_S 	S 	0.83912	0.75	0.88623	-0.009
_end
