data_functionalizedCrystal
_audit_creation_method	'EQeq! by Chris Wilmer'
_symmetry_space_group_name_H-M	'P1'
_symmetry_Int_Tables_number	1
_symmetry_cell_setting	triclinic
loop_
_symmetry_equiv_pos_as_xyz
  x,y,z
_cell_length_a	18.373
_cell_length_b	11.523
_cell_length_c	11.034
_cell_angle_alpha	90
_cell_angle_beta	94.251
_cell_angle_gamma	90
loop_
_atom_site_label
_atom_site_type_symbol
_atom_site_fract_x
_atom_site_fract_y
_atom_site_fract_z
_atom_site_charge
Mof_Co	Co	0.0753	0.93022	0.99285	1.112
Mof_C 	C 	0.128	0.7522	0.1658	0.37
Mof_C 	C 	0.1954	0.6876	0.221	-0.102
Mof_C 	C 	0.2004	0.6651	0.3469	0.043
Mof_H 	H 	0.1614	0.6881	0.3936	0.006
Mof_C 	C 	0.2595	0.6114	0.4035	-0.154
Mof_H 	H 	0.2633	0.5973	0.4886	0.064
Mof_C 	C 	0.3131	0.5791	0.3311	0.084
Mof_C 	C 	0.3105	0.6019	0.2085	0.029
Mof_C 	C 	0.2498	0.6591	0.1495	-0.047
Mof_H 	H 	0.2472	0.6765	0.0651	0.052
Mof_N 	N 	0.3771	0.5238	0.3615	-0.224
Mof_N 	N 	0.4115	0.5131	0.26	-0.191
Mof_N 	N 	0.3728	0.5595	0.1661	-0.214
Mof_O 	O 	0.9796	0.9136	0.0676	-0.78
Mof_H 	H 	0.9575	0.8572	0.038	0.296
Mof_O 	O 	0.0777	0.7672	0.2335	-0.476
Mof_O 	O 	0.1303	0.7862	0.057	-0.47
Mof_Co	Co	0.5753	0.43022	0.99285	1.136
Mof_C 	C 	0.628	0.2522	0.1658	0.369
Mof_C 	C 	0.6954	0.1876	0.221	-0.093
Mof_C 	C 	0.7004	0.1651	0.3469	0.041
Mof_H 	H 	0.6614	0.1881	0.3936	0.015
Mof_C 	C 	0.7595	0.1114	0.4035	-0.147
Mof_H 	H 	0.7633	0.0973	0.4886	0.066
Mof_C 	C 	0.8131	0.0791	0.3311	0.084
Mof_C 	C 	0.8105	0.1019	0.2085	0.035
Mof_C 	C 	0.7498	0.1591	0.1495	-0.047
Mof_H 	H 	0.7472	0.1765	0.0651	0.054
Mof_N 	N 	0.8771	0.0238	0.3615	-0.215
Mof_N 	N 	0.9115	0.0131	0.26	-0.167
Mof_N 	N 	0.8728	0.0595	0.1661	-0.21
Mof_O 	O 	0.4796	0.4136	0.0676	-0.855
Mof_H 	H 	0.4575	0.3572	0.038	0.297
Mof_O 	O 	0.5777	0.2672	0.2335	-0.447
Mof_O 	O 	0.6303	0.2862	0.057	-0.456
Mof_Co	Co	0.9247	0.93022	0.50715	1.158
Mof_C 	C 	0.872	0.7522	0.3342	0.362
Mof_C 	C 	0.8046	0.6876	0.279	-0.081
Mof_C 	C 	0.7996	0.6651	0.1531	0.035
Mof_H 	H 	0.8386	0.6881	0.1064	0.026
Mof_C 	C 	0.7405	0.6114	0.0965	-0.141
Mof_H 	H 	0.7367	0.5973	0.0114	0.065
Mof_C 	C 	0.6869	0.5791	0.1689	0.08
Mof_C 	C 	0.6895	0.6019	0.2915	0.037
Mof_C 	C 	0.7502	0.6591	0.3505	-0.054
Mof_H 	H 	0.7528	0.6765	0.4349	0.06
Mof_N 	N 	0.6229	0.5238	0.1385	-0.223
Mof_N 	N 	0.5885	0.5131	0.24	-0.191
Mof_N 	N 	0.6272	0.5595	0.3339	-0.214
Mof_O 	O 	0.0204	0.9136	0.4324	-0.91
Mof_H 	H 	0.0425	0.8572	0.462	0.295
Mof_O 	O 	0.9223	0.7672	0.2665	-0.4
Mof_O 	O 	0.8697	0.7862	0.443	-0.434
Mof_Co	Co	0.4247	0.43022	0.50715	1.134
Mof_C 	C 	0.372	0.2522	0.3342	0.368
Mof_C 	C 	0.3046	0.1876	0.279	-0.094
Mof_C 	C 	0.2996	0.1651	0.1531	0.039
Mof_H 	H 	0.3386	0.1881	0.1064	0.015
Mof_C 	C 	0.2405	0.1114	0.0965	-0.15
Mof_H 	H 	0.2367	0.0973	0.0114	0.065
Mof_C 	C 	0.1869	0.0791	0.1689	0.08
Mof_C 	C 	0.1895	0.1019	0.2915	0.029
Mof_C 	C 	0.2502	0.1591	0.3505	-0.051
Mof_H 	H 	0.2528	0.1765	0.4349	0.055
Mof_N 	N 	0.1229	0.0238	0.1385	-0.23
Mof_N 	N 	0.0885	0.0131	0.24	-0.205
Mof_N 	N 	0.1272	0.0595	0.3339	-0.219
Mof_O 	O 	0.5204	0.4136	0.4324	-0.853
Mof_H 	H 	0.5425	0.3572	0.462	0.297
Mof_O 	O 	0.4223	0.2672	0.2665	-0.447
Mof_O 	O 	0.3697	0.2862	0.443	-0.455
Mof_Co	Co	0.9247	0.06978	0.00715	1.154
Mof_C 	C 	0.872	0.2478	0.8342	0.361
Mof_C 	C 	0.8046	0.3124	0.779	-0.079
Mof_C 	C 	0.7996	0.3349	0.6531	0.035
Mof_H 	H 	0.8386	0.3119	0.6064	0.027
Mof_C 	C 	0.7405	0.3886	0.5965	-0.14
Mof_H 	H 	0.7367	0.4027	0.5114	0.066
Mof_C 	C 	0.6869	0.4209	0.6689	0.08
Mof_C 	C 	0.6895	0.3981	0.7915	0.038
Mof_C 	C 	0.7502	0.3409	0.8505	-0.054
Mof_H 	H 	0.7528	0.3235	0.9349	0.062
Mof_N 	N 	0.6229	0.4762	0.6385	-0.222
Mof_N 	N 	0.5885	0.4869	0.74	-0.191
Mof_N 	N 	0.6272	0.4405	0.8339	-0.214
Mof_O 	O 	0.0204	0.0864	0.9324	-0.907
Mof_H 	H 	0.0425	0.1428	0.962	0.296
Mof_O 	O 	0.9223	0.2328	0.7665	-0.398
Mof_O 	O 	0.8697	0.2138	0.943	-0.43
Mof_Co	Co	0.4247	0.56978	0.00715	1.133
Mof_C 	C 	0.372	0.7478	0.8342	0.368
Mof_C 	C 	0.3046	0.8124	0.779	-0.093
Mof_C 	C 	0.2996	0.8349	0.6531	0.04
Mof_H 	H 	0.3386	0.8119	0.6064	0.015
Mof_C 	C 	0.2405	0.8886	0.5965	-0.15
Mof_H 	H 	0.2367	0.9027	0.5114	0.066
Mof_C 	C 	0.1869	0.9209	0.6689	0.081
Mof_C 	C 	0.1895	0.8981	0.7915	0.029
Mof_C 	C 	0.2502	0.8409	0.8505	-0.051
Mof_H 	H 	0.2528	0.8235	0.9349	0.056
Mof_N 	N 	0.1229	0.9762	0.6385	-0.23
Mof_N 	N 	0.0885	0.9869	0.74	-0.205
Mof_N 	N 	0.1272	0.9405	0.8339	-0.219
Mof_O 	O 	0.5204	0.5864	0.9324	-0.852
Mof_H 	H 	0.5425	0.6428	0.962	0.298
Mof_O 	O 	0.4223	0.7328	0.7665	-0.446
Mof_O 	O 	0.3697	0.7138	0.943	-0.453
Mof_Co	Co	0.0753	0.06978	0.49285	1.111
Mof_C 	C 	0.128	0.2478	0.6658	0.37
Mof_C 	C 	0.1954	0.3124	0.721	-0.102
Mof_C 	C 	0.2004	0.3349	0.8469	0.044
Mof_H 	H 	0.1614	0.3119	0.8936	0.007
Mof_C 	C 	0.2595	0.3886	0.9035	-0.154
Mof_H 	H 	0.2633	0.4027	0.9886	0.066
Mof_C 	C 	0.3131	0.4209	0.8311	0.084
Mof_C 	C 	0.3105	0.3981	0.7085	0.03
Mof_C 	C 	0.2498	0.3409	0.6495	-0.046
Mof_H 	H 	0.2472	0.3235	0.5651	0.052
Mof_N 	N 	0.3771	0.4762	0.8615	-0.223
Mof_N 	N 	0.4115	0.4869	0.76	-0.191
Mof_N 	N 	0.3728	0.4405	0.6661	-0.214
Mof_O 	O 	0.9796	0.0864	0.5676	-0.778
Mof_H 	H 	0.9575	0.1428	0.538	0.297
Mof_O 	O 	0.0777	0.2328	0.7335	-0.476
Mof_O 	O 	0.1303	0.2138	0.557	-0.471
Mof_Co	Co	0.5753	0.56978	0.49285	1.134
Mof_C 	C 	0.628	0.7478	0.6658	0.369
Mof_C 	C 	0.6954	0.8124	0.721	-0.092
Mof_C 	C 	0.7004	0.8349	0.8469	0.041
Mof_H 	H 	0.6614	0.8119	0.8936	0.016
Mof_C 	C 	0.7595	0.8886	0.9035	-0.146
Mof_H 	H 	0.7633	0.9027	0.9886	0.067
Mof_C 	C 	0.8131	0.9209	0.8311	0.084
Mof_C 	C 	0.8105	0.8981	0.7085	0.036
Mof_C 	C 	0.7498	0.8409	0.6495	-0.048
Mof_H 	H 	0.7472	0.8235	0.5651	0.056
Mof_N 	N 	0.8771	0.9762	0.8615	-0.215
Mof_N 	N 	0.9115	0.9869	0.76	-0.167
Mof_N 	N 	0.8728	0.9405	0.6661	-0.209
Mof_O 	O 	0.4796	0.5864	0.5676	-0.854
Mof_H 	H 	0.4575	0.6428	0.538	0.297
Mof_O 	O 	0.5777	0.7328	0.7335	-0.446
Mof_O 	O 	0.6303	0.7138	0.557	-0.454
Mof_Co	Co	6.04658e-34	0.89567	0.25	1.113
Mof_Co	Co	0.5	0.39567	0.25	1.161
Mof_Co	Co	1.81397e-33	0.10433	0.75	1.112
Mof_Co	Co	0.5	0.60433	0.75	1.162
_end
