data_functionalizedCrystal
_audit_creation_method	'EQeq! by Chris Wilmer'
_symmetry_space_group_name_H-M	'P1'
_symmetry_Int_Tables_number	1
_symmetry_cell_setting	triclinic
loop_
_symmetry_equiv_pos_as_xyz
  x,y,z
_cell_length_a	21.7025
_cell_length_b	10.0356
_cell_length_c	14.0343
_cell_angle_alpha	90
_cell_angle_beta	91.711
_cell_angle_gamma	90
loop_
_atom_site_label
_atom_site_type_symbol
_atom_site_fract_x
_atom_site_fract_y
_atom_site_fract_z
_atom_site_charge
Mof_Ho	Ho	0.7591	0.56538	0.2717	1.984
Mof_Ho	Ho	0.74939	0.75242	0.027	2.144
Mof_O 	O 	0.71838	0.5382	0.11361	-0.635
Mof_O 	O 	0.65035	0.517	0.2993	-0.516
Mof_O 	O 	0.69847	0.6272	0.40959	-0.681
Mof_O 	O 	0.81002	0.7629	0.86172	-0.581
Mof_O 	O 	0.28741	0.2642	0.2777	-0.62
Mof_O 	O 	0.80809	0.455	0.39878	-0.577
Mof_O 	O 	0.81111	0.5669	0.5346	-0.6
Mof_O 	O 	0.30999	0.4037	0.3873	-0.548
Mof_O 	O 	0.78404	0.5769	0.92857	-0.521
Mof_O 	O 	0.65671	0.6333	0.0099	-0.533
Mof_O 	O 	0.13967	0.4876	0.78532	-0.514
Mof_O 	O 	0.17742	0.3219	0.86466	-0.656
Mof_C 	C 	0.64874	0.5754	0.3765	0.552
Mof_C 	C 	0.5913	0.5876	0.4336	-0.49
Mof_H 	H 	0.5876	0.6813	0.4547	0.176
Mof_H 	H 	0.5966	0.5319	0.4915	0.174
Mof_C 	C 	0.53161	0.5481	0.3832	0.172
Mof_C 	C 	0.48822	0.6423	0.3566	-0.12
Mof_H 	H 	0.4963	0.7337	0.3695	0.068
Mof_C 	C 	0.51788	0.4158	0.3648	-0.107
Mof_H 	H 	0.5468	0.3487	0.3829	0.065
Mof_C 	C 	0.82818	0.4757	0.4817	0.621
Mof_C 	C 	0.87797	0.3841	0.522	-0.51
Mof_H 	H 	0.871	0.3677	0.5904	0.17
Mof_H 	H 	0.8761	0.2974	0.4884	0.173
Mof_C 	C 	0.94097	0.4461	0.5107	0.166
Mof_C 	C 	0.98335	0.4507	0.5869	-0.111
Mof_H 	H 	0.972	0.4173	0.6473	0.068
Mof_C 	C 	0.9584	0.4969	0.4235	-0.113
Mof_H 	H 	0.93	0.4957	0.3707	0.08
Mof_C 	C 	0.13514	0.4075	0.8516	0.554
Mof_C 	C 	0.08297	0.4078	0.9183	-0.495
Mof_H 	H 	0.0793	0.3172	0.9455	0.164
Mof_H 	H 	0.0937	0.4689	0.9717	0.162
Mof_C 	C 	0.02059	0.448	0.8772	0.189
Mof_C 	C 	0.97549	0.3536	0.8628	-0.141
Mof_H 	H 	0.9849	0.2626	0.8749	0.077
Mof_C 	C 	0.80821	0.6373	0.8609	0.491
Mof_C 	C 	0.83705	0.5594	0.7821	-0.421
Mof_H 	H 	0.8381	0.6145	0.7236	0.15
Mof_H 	H 	0.8122	0.4787	0.7677	0.138
Mof_C 	C 	0.90212	0.5194	0.8127	0.12
Mof_C 	C 	0.94761	0.6143	0.8248	-0.08
Mof_H 	H 	0.9385	0.7051	0.8114	0.058
Mof_C 	C 	0.91703	0.3877	0.8312	-0.079
Mof_H 	H 	0.8867	0.3203	0.822	0.047
Mof_C 	C 	0.0065	0.5788	0.8564	-0.131
Mof_H 	H 	0.0374	0.6454	0.8637	0.076
Mof_C 	C 	0.66695	0.5423	0.0681	0.525
Mof_C 	C 	0.62002	0.4353	0.0836	-0.472
Mof_H 	H 	0.6349	0.3511	0.0556	0.152
Mof_H 	H 	0.6162	0.421	0.1529	0.165
Mof_C 	C 	0.55768	0.4667	0.0409	0.169
Mof_C 	C 	0.54366	0.4413	0.9452	-0.098
Mof_H 	H 	0.5737	0.4006	0.9068	0.058
Mof_C 	C 	0.513	0.5259	0.0947	-0.114
Mof_H 	H 	0.5215	0.5442	0.1602	0.072
Mof_C 	C 	0.31709	0.3624	0.3053	0.59
Mof_C 	C 	0.36011	0.4349	0.2417	-0.502
Mof_H 	H 	0.3392	0.5156	0.2162	0.162
Mof_H 	H 	0.3697	0.3769	0.187	0.172
Mof_C 	C 	0.41967	0.4754	0.2924	0.166
Mof_C 	C 	0.46268	0.3797	0.3204	-0.109
Mof_H 	H 	0.4541	0.2882	0.3089	0.065
Mof_C 	C 	0.43322	0.6067	0.3115	-0.105
Mof_H 	H 	0.4043	0.6739	0.2935	0.053
Mof_Ho	Ho	0.2409	0.06538	0.2283	1.983
Mof_Ho	Ho	0.25061	0.25242	0.473	2.143
Mof_O 	O 	0.28162	0.0382	0.38639	-0.636
Mof_O 	O 	0.34965	0.017	0.2007	-0.517
Mof_O 	O 	0.30153	0.1272	0.09041	-0.682
Mof_O 	O 	0.18998	0.2629	0.63828	-0.582
Mof_O 	O 	0.71259	0.7642	0.2223	-0.62
Mof_O 	O 	0.19191	0.955	0.10122	-0.577
Mof_O 	O 	0.18889	0.0669	0.9654	-0.601
Mof_O 	O 	0.69001	0.9037	0.1127	-0.549
Mof_O 	O 	0.21596	0.0769	0.57143	-0.521
Mof_O 	O 	0.34329	0.1333	0.4901	-0.533
Mof_O 	O 	0.86033	0.9876	0.71468	-0.514
Mof_O 	O 	0.82258	0.8219	0.63534	-0.656
Mof_C 	C 	0.35126	0.0754	0.1235	0.552
Mof_C 	C 	0.4087	0.0876	0.0664	-0.491
Mof_H 	H 	0.4124	0.1813	0.0453	0.176
Mof_H 	H 	0.4034	0.0319	0.0085	0.175
Mof_C 	C 	0.46839	0.0481	0.1168	0.174
Mof_C 	C 	0.51178	0.1423	0.1434	-0.121
Mof_H 	H 	0.5037	0.2337	0.1305	0.068
Mof_C 	C 	0.48212	0.9158	0.1352	-0.109
Mof_H 	H 	0.4532	0.8487	0.1171	0.065
Mof_C 	C 	0.17182	0.9757	0.0183	0.622
Mof_C 	C 	0.12203	0.8841	0.978	-0.51
Mof_H 	H 	0.129	0.8677	0.9096	0.17
Mof_H 	H 	0.1239	0.7974	0.0116	0.174
Mof_C 	C 	0.05903	0.9461	0.9893	0.167
Mof_C 	C 	0.01665	0.9507	0.9131	-0.111
Mof_H 	H 	0.028	0.9173	0.8527	0.068
Mof_C 	C 	0.0416	0.9969	0.0765	-0.113
Mof_H 	H 	0.07	0.9957	0.1293	0.08
Mof_C 	C 	0.86486	0.9075	0.6484	0.554
Mof_C 	C 	0.91703	0.9078	0.5817	-0.495
Mof_H 	H 	0.9207	0.8172	0.5545	0.164
Mof_H 	H 	0.9063	0.9689	0.5283	0.162
Mof_C 	C 	0.97941	0.948	0.6228	0.189
Mof_C 	C 	0.02451	0.8536	0.6372	-0.142
Mof_H 	H 	0.0151	0.7626	0.6251	0.077
Mof_C 	C 	0.19179	0.1373	0.6391	0.491
Mof_C 	C 	0.16295	0.0594	0.7179	-0.422
Mof_H 	H 	0.1619	0.1145	0.7764	0.15
Mof_H 	H 	0.1878	0.9787	0.7323	0.138
Mof_C 	C 	0.09788	0.0194	0.6873	0.119
Mof_C 	C 	0.05239	0.1143	0.6752	-0.081
Mof_H 	H 	0.0615	0.2051	0.6886	0.058
Mof_C 	C 	0.08297	0.8877	0.6688	-0.079
Mof_H 	H 	0.1133	0.8203	0.678	0.047
Mof_C 	C 	0.9935	0.0788	0.6436	-0.13
Mof_H 	H 	0.9626	0.1454	0.6363	0.075
Mof_C 	C 	0.33305	0.0423	0.4319	0.525
Mof_C 	C 	0.37998	0.9353	0.4164	-0.472
Mof_H 	H 	0.3651	0.8511	0.4444	0.151
Mof_H 	H 	0.3838	0.921	0.3471	0.165
Mof_C 	C 	0.44232	0.9667	0.4591	0.168
Mof_C 	C 	0.45634	0.9413	0.5548	-0.099
Mof_H 	H 	0.4263	0.9006	0.5932	0.058
Mof_C 	C 	0.487	0.0259	0.4053	-0.114
Mof_H 	H 	0.4785	0.0442	0.3398	0.072
Mof_C 	C 	0.68291	0.8624	0.1947	0.59
Mof_C 	C 	0.63989	0.9349	0.2583	-0.501
Mof_H 	H 	0.6608	0.0156	0.2838	0.162
Mof_H 	H 	0.6303	0.8769	0.313	0.172
Mof_C 	C 	0.58033	0.9754	0.2076	0.164
Mof_C 	C 	0.53732	0.8797	0.1796	-0.108
Mof_H 	H 	0.5459	0.7882	0.1911	0.064
Mof_C 	C 	0.56678	0.1067	0.1885	-0.104
Mof_H 	H 	0.5957	0.1739	0.2065	0.053
Mof_Ho	Ho	0.2409	0.43462	0.7283	1.983
Mof_Ho	Ho	0.25061	0.24758	0.973	2.143
Mof_O 	O 	0.28162	0.4618	0.88639	-0.636
Mof_O 	O 	0.34965	0.483	0.7007	-0.517
Mof_O 	O 	0.30153	0.3728	0.59041	-0.682
Mof_O 	O 	0.18998	0.2371	0.13828	-0.582
Mof_O 	O 	0.71259	0.7358	0.7223	-0.62
Mof_O 	O 	0.19191	0.545	0.60122	-0.577
Mof_O 	O 	0.18889	0.4331	0.4654	-0.6
Mof_O 	O 	0.69001	0.5963	0.6127	-0.548
Mof_O 	O 	0.21596	0.4231	0.07143	-0.521
Mof_O 	O 	0.34329	0.3667	0.9901	-0.533
Mof_O 	O 	0.86033	0.5124	0.21468	-0.514
Mof_O 	O 	0.82258	0.6781	0.13534	-0.656
Mof_C 	C 	0.35126	0.4246	0.6235	0.552
Mof_C 	C 	0.4087	0.4124	0.5664	-0.49
Mof_H 	H 	0.4124	0.3187	0.5453	0.176
Mof_H 	H 	0.4034	0.4681	0.5085	0.174
Mof_C 	C 	0.46839	0.4519	0.6168	0.172
Mof_C 	C 	0.51178	0.3577	0.6434	-0.12
Mof_H 	H 	0.5037	0.2663	0.6305	0.068
Mof_C 	C 	0.48212	0.5842	0.6352	-0.107
Mof_H 	H 	0.4532	0.6513	0.6171	0.065
Mof_C 	C 	0.17182	0.5243	0.5183	0.621
Mof_C 	C 	0.12203	0.6159	0.478	-0.51
Mof_H 	H 	0.129	0.6323	0.4096	0.17
Mof_H 	H 	0.1239	0.7026	0.5116	0.173
Mof_C 	C 	0.05903	0.5539	0.4893	0.166
Mof_C 	C 	0.01665	0.5493	0.4131	-0.111
Mof_H 	H 	0.028	0.5827	0.3527	0.068
Mof_C 	C 	0.0416	0.5031	0.5765	-0.113
Mof_H 	H 	0.07	0.5043	0.6293	0.08
Mof_C 	C 	0.86486	0.5925	0.1484	0.554
Mof_C 	C 	0.91703	0.5922	0.0817	-0.495
Mof_H 	H 	0.9207	0.6828	0.0545	0.164
Mof_H 	H 	0.9063	0.5311	0.0283	0.162
Mof_C 	C 	0.97941	0.552	0.1228	0.189
Mof_C 	C 	0.02451	0.6464	0.1372	-0.141
Mof_H 	H 	0.0151	0.7374	0.1251	0.077
Mof_C 	C 	0.19179	0.3627	0.1391	0.491
Mof_C 	C 	0.16295	0.4406	0.2179	-0.421
Mof_H 	H 	0.1619	0.3855	0.2764	0.15
Mof_H 	H 	0.1878	0.5213	0.2323	0.138
Mof_C 	C 	0.09788	0.4806	0.1873	0.12
Mof_C 	C 	0.05239	0.3857	0.1752	-0.08
Mof_H 	H 	0.0615	0.2949	0.1886	0.058
Mof_C 	C 	0.08297	0.6123	0.1688	-0.079
Mof_H 	H 	0.1133	0.6797	0.178	0.047
Mof_C 	C 	0.9935	0.4212	0.1436	-0.131
Mof_H 	H 	0.9626	0.3546	0.1363	0.076
Mof_C 	C 	0.33305	0.4577	0.9319	0.525
Mof_C 	C 	0.37998	0.5647	0.9164	-0.472
Mof_H 	H 	0.3651	0.6489	0.9444	0.152
Mof_H 	H 	0.3838	0.579	0.8471	0.165
Mof_C 	C 	0.44232	0.5333	0.9591	0.169
Mof_C 	C 	0.45634	0.5587	0.0548	-0.098
Mof_H 	H 	0.4263	0.5994	0.0932	0.058
Mof_C 	C 	0.487	0.4741	0.9053	-0.114
Mof_H 	H 	0.4785	0.4558	0.8398	0.072
Mof_C 	C 	0.68291	0.6376	0.6947	0.59
Mof_C 	C 	0.63989	0.5651	0.7583	-0.502
Mof_H 	H 	0.6608	0.4844	0.7838	0.162
Mof_H 	H 	0.6303	0.6231	0.813	0.172
Mof_C 	C 	0.58033	0.5246	0.7076	0.166
Mof_C 	C 	0.53732	0.6203	0.6796	-0.109
Mof_H 	H 	0.5459	0.7118	0.6911	0.065
Mof_C 	C 	0.56678	0.3933	0.6885	-0.105
Mof_H 	H 	0.5957	0.3261	0.7065	0.053
Mof_Ho	Ho	0.7591	0.93462	0.7717	1.983
Mof_Ho	Ho	0.74939	0.74758	0.527	2.143
Mof_O 	O 	0.71838	0.9618	0.61361	-0.636
Mof_O 	O 	0.65035	0.983	0.7993	-0.517
Mof_O 	O 	0.69847	0.8728	0.90959	-0.682
Mof_O 	O 	0.81002	0.7371	0.36172	-0.582
Mof_O 	O 	0.28741	0.2358	0.7777	-0.62
Mof_O 	O 	0.80809	0.045	0.89878	-0.577
Mof_O 	O 	0.81111	0.9331	0.0346	-0.601
Mof_O 	O 	0.30999	0.0963	0.8873	-0.549
Mof_O 	O 	0.78404	0.9231	0.42857	-0.521
Mof_O 	O 	0.65671	0.8667	0.5099	-0.533
Mof_O 	O 	0.13967	0.0124	0.28532	-0.514
Mof_O 	O 	0.17742	0.1781	0.36466	-0.656
Mof_C 	C 	0.64874	0.9246	0.8765	0.552
Mof_C 	C 	0.5913	0.9124	0.9336	-0.491
Mof_H 	H 	0.5876	0.8187	0.9547	0.176
Mof_H 	H 	0.5966	0.9681	0.9915	0.175
Mof_C 	C 	0.53161	0.9519	0.8832	0.174
Mof_C 	C 	0.48822	0.8577	0.8566	-0.121
Mof_H 	H 	0.4963	0.7663	0.8695	0.068
Mof_C 	C 	0.51788	0.0842	0.8648	-0.109
Mof_H 	H 	0.5468	0.1513	0.8829	0.065
Mof_C 	C 	0.82818	0.0243	0.9817	0.622
Mof_C 	C 	0.87797	0.1159	0.022	-0.51
Mof_H 	H 	0.871	0.1323	0.0904	0.17
Mof_H 	H 	0.8761	0.2026	0.9884	0.174
Mof_C 	C 	0.94097	0.0539	0.0107	0.167
Mof_C 	C 	0.98335	0.0493	0.0869	-0.111
Mof_H 	H 	0.972	0.0827	0.1473	0.068
Mof_C 	C 	0.9584	0.0031	0.9235	-0.113
Mof_H 	H 	0.93	0.0043	0.8707	0.08
Mof_C 	C 	0.13514	0.0925	0.3516	0.554
Mof_C 	C 	0.08297	0.0922	0.4183	-0.495
Mof_H 	H 	0.0793	0.1828	0.4455	0.164
Mof_H 	H 	0.0937	0.0311	0.4717	0.162
Mof_C 	C 	0.02059	0.052	0.3772	0.189
Mof_C 	C 	0.97549	0.1464	0.3628	-0.142
Mof_H 	H 	0.9849	0.2374	0.3749	0.077
Mof_C 	C 	0.80821	0.8627	0.3609	0.491
Mof_C 	C 	0.83705	0.9406	0.2821	-0.422
Mof_H 	H 	0.8381	0.8855	0.2236	0.15
Mof_H 	H 	0.8122	0.0213	0.2677	0.138
Mof_C 	C 	0.90212	0.9806	0.3127	0.119
Mof_C 	C 	0.94761	0.8857	0.3248	-0.081
Mof_H 	H 	0.9385	0.7949	0.3114	0.058
Mof_C 	C 	0.91703	0.1123	0.3312	-0.079
Mof_H 	H 	0.8867	0.1797	0.322	0.047
Mof_C 	C 	0.0065	0.9212	0.3564	-0.13
Mof_H 	H 	0.0374	0.8546	0.3637	0.075
Mof_C 	C 	0.66695	0.9577	0.5681	0.525
Mof_C 	C 	0.62002	0.0647	0.5836	-0.472
Mof_H 	H 	0.6349	0.1489	0.5556	0.151
Mof_H 	H 	0.6162	0.079	0.6529	0.165
Mof_C 	C 	0.55768	0.0333	0.5409	0.168
Mof_C 	C 	0.54366	0.0587	0.4452	-0.099
Mof_H 	H 	0.5737	0.0994	0.4068	0.058
Mof_C 	C 	0.513	0.9741	0.5947	-0.114
Mof_H 	H 	0.5215	0.9558	0.6602	0.072
Mof_C 	C 	0.31709	0.1376	0.8053	0.59
Mof_C 	C 	0.36011	0.0651	0.7417	-0.501
Mof_H 	H 	0.3392	0.9844	0.7162	0.162
Mof_H 	H 	0.3697	0.1231	0.687	0.172
Mof_C 	C 	0.41967	0.0246	0.7924	0.164
Mof_C 	C 	0.46268	0.1203	0.8204	-0.108
Mof_H 	H 	0.4541	0.2118	0.8089	0.064
Mof_C 	C 	0.43322	0.8933	0.8115	-0.104
Mof_H 	H 	0.4043	0.8261	0.7935	0.053
_end
