data_functionalizedCrystal
_audit_creation_method	'EQeq! by Chris Wilmer'
_symmetry_space_group_name_H-M	'P1'
_symmetry_Int_Tables_number	1
_symmetry_cell_setting	triclinic
loop_
_symmetry_equiv_pos_as_xyz
  x,y,z
_cell_length_a	9.2713
_cell_length_b	14.453
_cell_length_c	9.996
_cell_angle_alpha	90
_cell_angle_beta	116.16
_cell_angle_gamma	90
loop_
_atom_site_label
_atom_site_type_symbol
_atom_site_fract_x
_atom_site_fract_y
_atom_site_fract_z
_atom_site_charge
Mof_H 	H 	0.433	0.416	0.52	-0.094
Mof_H 	H 	0.775	0.296	0.955	-0.094
Mof_H 	H 	0.048	0.224	0.959	-0.118
Mof_H 	H 	0.057	0.194	0.456	-0.112
Mof_H 	H 	0.995	0.38	0.888	-0.147
Mof_In	In	0.27157	0.35405	0.76791	3.132
Mof_In	In	0.00805	0.46119	0.25249	3.125
Mof_In	In	0.24713	0.06013	0.25239	3.169
Mof_O 	O 	0.123	0.4416	0.1142	-0.734
Mof_O 	O 	0.2688	0.128	0.074	-0.726
Mof_O 	O 	0.0219	0.3804	0.6281	-0.735
Mof_O 	O 	0.7862	0.4852	0.5797	-0.692
Mof_O 	O 	0.0056	0.5414	0.8821	-0.714
Mof_O 	O 	0.0622	0.324	0.3288	-0.759
Mof_O 	O 	0.23	0.2366	0.8665	-0.727
Mof_O 	O 	0.4985	0.5711	0.6002	-0.623
Mof_O 	O 	0.3269	0.4793	0.6901	-0.716
Mof_O 	O 	0.0471	0.1013	0.8107	-0.684
Mof_O 	O 	0.2265	0.5194	0.417	-0.679
Mof_O 	O 	0.5221	0.335	0.9055	-0.68
Mof_O 	O 	0.2788	0.2769	0.5861	-0.697
Mof_O 	O 	0.2428	0.187	0.3607	-0.702
Mof_O 	O 	0.7688	0.4144	0.0932	-0.659
Mof_O 	O 	0.6946	0.4305	0.8162	-0.736
Mof_O 	O 	0.8822	0.4698	0.3863	-0.696
Mof_O 	O 	0.2445	0.4387	0.9354	-0.638
Mof_P 	P 	0.37159	0.49554	0.56205	0.614
Mof_P 	P 	0.68945	0.37141	0.93744	0.673
Mof_P 	P 	0.14641	0.17077	0.92754	0.713
Mof_P 	P 	0.15709	0.24615	0.42857	0.71
Mof_P 	P 	0.08821	0.45113	0.95159	0.641
Mof_P 	P 	0.93385	0.4695	0.55297	0.811
Mof_H 	H 	0.0112	0.524	0.6076	-0.261
Mof_H 	H 	0.567	0.916	0.48	-0.091
Mof_H 	H 	0.225	0.796	0.045	-0.097
Mof_H 	H 	0.952	0.724	0.041	-0.115
Mof_H 	H 	0.943	0.694	0.544	-0.111
Mof_H 	H 	0.005	0.88	0.112	-0.143
Mof_In	In	0.72843	0.85405	0.23209	3.098
Mof_In	In	0.99195	0.96119	0.74751	2.935
Mof_In	In	0.75287	0.56013	0.74761	3.065
Mof_O 	O 	0.877	0.9416	0.8858	-0.719
Mof_O 	O 	0.7312	0.628	0.926	-0.73
Mof_O 	O 	0.9781	0.8804	0.3719	-0.722
Mof_O 	O 	0.2138	0.9852	0.4203	-0.724
Mof_O 	O 	0.9944	0.0414	0.1179	-0.653
Mof_O 	O 	0.9378	0.824	0.6712	-0.733
Mof_O 	O 	0.77	0.7366	0.1335	-0.728
Mof_O 	O 	0.5015	0.0711	0.3998	-0.577
Mof_O 	O 	0.6731	0.9793	0.3099	-0.724
Mof_O 	O 	0.9529	0.6013	0.1893	-0.725
Mof_O 	O 	0.7735	0.0194	0.583	-0.572
Mof_O 	O 	0.4779	0.835	0.0945	-0.682
Mof_O 	O 	0.7212	0.7769	0.4139	-0.695
Mof_O 	O 	0.7572	0.687	0.6393	-0.69
Mof_O 	O 	0.2312	0.9144	0.9068	-0.649
Mof_O 	O 	0.3054	0.9305	0.1838	-0.769
Mof_O 	O 	0.1178	0.9698	0.6137	-0.677
Mof_O 	O 	0.7555	0.9387	0.0646	-0.644
Mof_P 	P 	0.62841	0.99554	0.43795	0.511
Mof_P 	P 	0.31055	0.87141	0.06256	0.668
Mof_P 	P 	0.85359	0.67077	0.07246	0.717
Mof_P 	P 	0.84291	0.74615	0.57143	0.698
Mof_P 	P 	0.91179	0.95113	0.04841	0.577
Mof_P 	P 	0.06615	0.9695	0.44703	0.711
Mof_H 	H 	0.9888	0.024	0.3924	-0.175
_end
