data_functionalizedCrystal
_audit_creation_method	'EQeq! by Chris Wilmer'
_symmetry_space_group_name_H-M	'P1'
_symmetry_Int_Tables_number	1
_symmetry_cell_setting	triclinic
loop_
_symmetry_equiv_pos_as_xyz
  x,y,z
_cell_length_a	13.864
_cell_length_b	13.8737
_cell_length_c	21.1162
_cell_angle_alpha	90
_cell_angle_beta	102.531
_cell_angle_gamma	90
loop_
_atom_site_label
_atom_site_type_symbol
_atom_site_fract_x
_atom_site_fract_y
_atom_site_fract_z
_atom_site_charge
Mof_Ni	Ni	0.28957	0.21753	0.75773	1.068
Mof_S 	S 	0.3565	0.8947	0.6959	-0.037
Mof_S 	S 	0.245	0.5569	0.7873	0.031
Mof_S 	S 	0.3769	0.9218	0.6724	-0.015
Mof_S 	S 	0.1904	0.539	0.7494	0.314
Mof_S 	S 	0.1811	0.5295	0.7861	-0.419
Mof_N 	N 	0.4317	0.2171	0.8187	-0.245
Mof_N 	N 	0.7294	0.2398	0.0026	-0.075
Mof_N 	N 	0.8261	0.2259	0.0379	-0.075
Mof_N 	N 	0.1465	0.2847	0.196	-0.248
Mof_N 	N 	0.2309	0.1576	0.8345	-0.249
Mof_N 	N 	0.0177	0.026	0.9773	-0.076
Mof_N 	N 	0.3474	0.2757	0.6809	-0.246
Mof_N 	N 	0.4901	0.485	0.5299	-0.075
Mof_N 	N 	0.3129	0.0821	0.7274	-0.263
Mof_N 	N 	0.2637	0.3538	0.7864	-0.266
Mof_C 	C 	0.5068	0.171	0.8031	0.101
Mof_H 	H 	0.4967	0.1408	0.7623	-0.017
Mof_C 	C 	0.5989	0.165	0.8435	-0.171
Mof_H 	H 	0.65	0.1314	0.8303	0.082
Mof_C 	C 	0.6153	0.2087	0.9034	0.118
Mof_C 	C 	0.538	0.2582	0.9206	-0.163
Mof_H 	H 	0.5466	0.2891	0.961	0.097
Mof_C 	C 	0.4486	0.2612	0.8772	0.09
Mof_H 	H 	0.3965	0.2956	0.8887	-0.012
Mof_C 	C 	0.7135	0.2027	0.9473	-0.041
Mof_H 	H 	0.765	0.1706	0.9335	0.053
Mof_C 	C 	0.8576	0.2919	0.075	-0.047
Mof_H 	H 	0.8168	0.3452	0.0776	0.067
Mof_C 	C 	0.1088	0.2084	0.1599	0.112
Mof_H 	H 	0.1475	0.1523	0.1625	-0.022
Mof_C 	C 	0.018	0.2079	0.1199	-0.181
Mof_H 	H 	0.9954	0.1528	0.0952	0.107
Mof_C 	C 	0.9581	0.2895	0.1156	0.133
Mof_C 	C 	0.9964	0.3666	0.1536	-0.19
Mof_H 	H 	0.9583	0.4227	0.153	0.113
Mof_C 	C 	0.0896	0.3628	0.1922	0.113
Mof_H 	H 	0.1142	0.4173	0.217	-0.016
Mof_C 	C 	0.1548	0.1943	0.8515	0.103
Mof_H 	H 	0.1289	0.2532	0.8334	-0.013
Mof_C 	C 	0.1083	0.1459	0.8985	-0.187
Mof_H 	H 	0.0522	0.1716	0.9107	0.103
Mof_C 	C 	0.1495	0.063	0.9234	0.149
Mof_C 	C 	0.229	0.0256	0.9084	-0.21
Mof_H 	H 	0.2588	0.9693	0.9283	0.114
Mof_C 	C 	0.2656	0.074	0.862	0.117
Mof_H 	H 	0.3196	0.0461	0.8484	-0.017
Mof_C 	C 	0.1031	0.0102	0.9724	-0.052
Mof_H 	H 	0.1407	0.9642	0.9998	0.061
Mof_C 	C 	0.3227	0.2393	0.6215	0.099
Mof_H 	H 	0.2837	0.1834	0.6145	-0.013
Mof_C 	C 	0.3527	0.2811	0.5693	-0.173
Mof_H 	H 	0.3334	0.2542	0.5276	0.091
Mof_C 	C 	0.4108	0.3624	0.579	0.119
Mof_C 	C 	0.4383	0.399	0.6415	-0.173
Mof_H 	H 	0.4789	0.4538	0.6501	0.097
Mof_C 	C 	0.4053	0.354	0.69	0.097
Mof_H 	H 	0.4241	0.3792	0.7322	-0.017
Mof_C 	C 	0.4413	0.4083	0.5235	-0.044
Mof_H 	H 	0.4238	0.3793	0.4823	0.059
Mof_C 	C 	0.3334	0.0108	0.7103	0.111
Mof_C 	C 	0.2449	0.434	0.7846	0.132
Mof_Ni	Ni	0.71043	0.71753	0.74227	1.067
Mof_S 	S 	0.6435	0.3947	0.8041	-0.038
Mof_S 	S 	0.755	0.0569	0.7127	0.032
Mof_S 	S 	0.6231	0.4218	0.8276	-0.015
Mof_S 	S 	0.8096	0.039	0.7506	0.318
Mof_S 	S 	0.8189	0.0295	0.7139	-0.426
Mof_N 	N 	0.5683	0.7171	0.6813	-0.245
Mof_N 	N 	0.2706	0.7398	0.4974	-0.075
Mof_N 	N 	0.1739	0.7259	0.4621	-0.075
Mof_N 	N 	0.8535	0.7847	0.304	-0.249
Mof_N 	N 	0.7691	0.6576	0.6655	-0.25
Mof_N 	N 	0.9823	0.526	0.5227	-0.076
Mof_N 	N 	0.6526	0.7757	0.8191	-0.246
Mof_N 	N 	0.5099	0.985	0.9701	-0.075
Mof_N 	N 	0.6871	0.5821	0.7726	-0.263
Mof_N 	N 	0.7363	0.8538	0.7136	-0.266
Mof_C 	C 	0.4932	0.671	0.6969	0.101
Mof_H 	H 	0.5033	0.6408	0.7377	-0.017
Mof_C 	C 	0.4011	0.665	0.6565	-0.171
Mof_H 	H 	0.35	0.6314	0.6697	0.082
Mof_C 	C 	0.3847	0.7087	0.5966	0.119
Mof_C 	C 	0.462	0.7582	0.5794	-0.164
Mof_H 	H 	0.4534	0.7891	0.539	0.097
Mof_C 	C 	0.5514	0.7612	0.6228	0.09
Mof_H 	H 	0.6035	0.7956	0.6113	-0.012
Mof_C 	C 	0.2865	0.7027	0.5527	-0.041
Mof_H 	H 	0.235	0.6706	0.5665	0.053
Mof_C 	C 	0.1424	0.7919	0.425	-0.048
Mof_H 	H 	0.1832	0.8452	0.4224	0.068
Mof_C 	C 	0.8912	0.7084	0.3401	0.113
Mof_H 	H 	0.8525	0.6523	0.3375	-0.023
Mof_C 	C 	0.982	0.7079	0.3801	-0.183
Mof_H 	H 	0.0046	0.6528	0.4048	0.108
Mof_C 	C 	0.0419	0.7895	0.3844	0.134
Mof_C 	C 	0.0036	0.8666	0.3464	-0.192
Mof_H 	H 	0.0417	0.9227	0.347	0.113
Mof_C 	C 	0.9104	0.8628	0.3078	0.114
Mof_H 	H 	0.8858	0.9173	0.283	-0.016
Mof_C 	C 	0.8452	0.6943	0.6485	0.104
Mof_H 	H 	0.8711	0.7532	0.6666	-0.013
Mof_C 	C 	0.8917	0.6459	0.6015	-0.189
Mof_H 	H 	0.9478	0.6716	0.5893	0.104
Mof_C 	C 	0.8505	0.563	0.5766	0.152
Mof_C 	C 	0.771	0.5256	0.5916	-0.214
Mof_H 	H 	0.7412	0.4693	0.5717	0.116
Mof_C 	C 	0.7344	0.574	0.638	0.119
Mof_H 	H 	0.6804	0.5461	0.6516	-0.018
Mof_C 	C 	0.8969	0.5102	0.5276	-0.055
Mof_H 	H 	0.8593	0.4642	0.5002	0.063
Mof_C 	C 	0.6773	0.7393	0.8785	0.099
Mof_H 	H 	0.7163	0.6834	0.8855	-0.013
Mof_C 	C 	0.6473	0.7811	0.9307	-0.173
Mof_H 	H 	0.6666	0.7542	0.9724	0.091
Mof_C 	C 	0.5892	0.8624	0.921	0.119
Mof_C 	C 	0.5617	0.899	0.8585	-0.173
Mof_H 	H 	0.5211	0.9538	0.8499	0.097
Mof_C 	C 	0.5947	0.854	0.81	0.097
Mof_H 	H 	0.5759	0.8792	0.7678	-0.017
Mof_C 	C 	0.5587	0.9083	0.9765	-0.044
Mof_H 	H 	0.5762	0.8793	0.0177	0.06
Mof_C 	C 	0.6666	0.5108	0.7897	0.111
Mof_C 	C 	0.7551	0.934	0.7154	0.133
Mof_Ni	Ni	0.71043	0.78247	0.24227	1.067
Mof_S 	S 	0.6435	0.1053	0.3041	-0.038
Mof_S 	S 	0.755	0.4431	0.2127	0.03
Mof_S 	S 	0.6231	0.0782	0.3276	-0.016
Mof_S 	S 	0.8096	0.461	0.2506	0.314
Mof_S 	S 	0.8189	0.4705	0.2139	-0.419
Mof_N 	N 	0.5683	0.7829	0.1813	-0.245
Mof_N 	N 	0.2706	0.7602	0.9974	-0.075
Mof_N 	N 	0.1739	0.7741	0.9621	-0.075
Mof_N 	N 	0.8535	0.7153	0.804	-0.248
Mof_N 	N 	0.7691	0.8424	0.1655	-0.249
Mof_N 	N 	0.9823	0.974	0.0227	-0.076
Mof_N 	N 	0.6526	0.7243	0.3191	-0.246
Mof_N 	N 	0.5099	0.515	0.4701	-0.075
Mof_N 	N 	0.6871	0.9179	0.2726	-0.263
Mof_N 	N 	0.7363	0.6462	0.2136	-0.266
Mof_C 	C 	0.4932	0.829	0.1969	0.101
Mof_H 	H 	0.5033	0.8592	0.2377	-0.017
Mof_C 	C 	0.4011	0.835	0.1565	-0.171
Mof_H 	H 	0.35	0.8686	0.1697	0.082
Mof_C 	C 	0.3847	0.7913	0.0966	0.118
Mof_C 	C 	0.462	0.7418	0.0794	-0.163
Mof_H 	H 	0.4534	0.7109	0.039	0.097
Mof_C 	C 	0.5514	0.7388	0.1228	0.09
Mof_H 	H 	0.6035	0.7044	0.1113	-0.012
Mof_C 	C 	0.2865	0.7973	0.0527	-0.041
Mof_H 	H 	0.235	0.8294	0.0665	0.053
Mof_C 	C 	0.1424	0.7081	0.925	-0.047
Mof_H 	H 	0.1832	0.6548	0.9224	0.067
Mof_C 	C 	0.8912	0.7916	0.8401	0.112
Mof_H 	H 	0.8525	0.8477	0.8375	-0.022
Mof_C 	C 	0.982	0.7921	0.8801	-0.181
Mof_H 	H 	0.0046	0.8472	0.9048	0.107
Mof_C 	C 	0.0419	0.7105	0.8844	0.133
Mof_C 	C 	0.0036	0.6334	0.8464	-0.19
Mof_H 	H 	0.0417	0.5773	0.847	0.113
Mof_C 	C 	0.9104	0.6372	0.8078	0.113
Mof_H 	H 	0.8858	0.5827	0.783	-0.016
Mof_C 	C 	0.8452	0.8057	0.1485	0.103
Mof_H 	H 	0.8711	0.7468	0.1666	-0.013
Mof_C 	C 	0.8917	0.8541	0.1015	-0.187
Mof_H 	H 	0.9478	0.8284	0.0893	0.103
Mof_C 	C 	0.8505	0.937	0.0766	0.149
Mof_C 	C 	0.771	0.9744	0.0916	-0.21
Mof_H 	H 	0.7412	0.0307	0.0717	0.114
Mof_C 	C 	0.7344	0.926	0.138	0.117
Mof_H 	H 	0.6804	0.9539	0.1516	-0.017
Mof_C 	C 	0.8969	0.9898	0.0276	-0.052
Mof_H 	H 	0.8593	0.0358	0.0002	0.061
Mof_C 	C 	0.6773	0.7607	0.3785	0.099
Mof_H 	H 	0.7163	0.8166	0.3855	-0.013
Mof_C 	C 	0.6473	0.7189	0.4307	-0.173
Mof_H 	H 	0.6666	0.7458	0.4724	0.091
Mof_C 	C 	0.5892	0.6376	0.421	0.119
Mof_C 	C 	0.5617	0.601	0.3585	-0.173
Mof_H 	H 	0.5211	0.5462	0.3499	0.097
Mof_C 	C 	0.5947	0.646	0.31	0.097
Mof_H 	H 	0.5759	0.6208	0.2678	-0.017
Mof_C 	C 	0.5587	0.5917	0.4765	-0.044
Mof_H 	H 	0.5762	0.6207	0.5177	0.059
Mof_C 	C 	0.6666	0.9892	0.2897	0.111
Mof_C 	C 	0.7551	0.566	0.2154	0.132
Mof_Ni	Ni	0.28957	0.28247	0.25773	1.067
Mof_S 	S 	0.3565	0.6053	0.1959	-0.038
Mof_S 	S 	0.245	0.9431	0.2873	0.032
Mof_S 	S 	0.3769	0.5782	0.1724	-0.015
Mof_S 	S 	0.1904	0.961	0.2494	0.318
Mof_S 	S 	0.1811	0.9705	0.2861	-0.426
Mof_N 	N 	0.4317	0.2829	0.3187	-0.245
Mof_N 	N 	0.7294	0.2602	0.5026	-0.075
Mof_N 	N 	0.8261	0.2741	0.5379	-0.075
Mof_N 	N 	0.1465	0.2153	0.696	-0.249
Mof_N 	N 	0.2309	0.3424	0.3345	-0.25
Mof_N 	N 	0.0177	0.474	0.4773	-0.076
Mof_N 	N 	0.3474	0.2243	0.1809	-0.246
Mof_N 	N 	0.4901	0.015	0.0299	-0.075
Mof_N 	N 	0.3129	0.4179	0.2274	-0.263
Mof_N 	N 	0.2637	0.1462	0.2864	-0.266
Mof_C 	C 	0.5068	0.329	0.3031	0.101
Mof_H 	H 	0.4967	0.3592	0.2623	-0.017
Mof_C 	C 	0.5989	0.335	0.3435	-0.171
Mof_H 	H 	0.65	0.3686	0.3303	0.082
Mof_C 	C 	0.6153	0.2913	0.4034	0.119
Mof_C 	C 	0.538	0.2418	0.4206	-0.164
Mof_H 	H 	0.5466	0.2109	0.461	0.097
Mof_C 	C 	0.4486	0.2388	0.3772	0.09
Mof_H 	H 	0.3965	0.2044	0.3887	-0.012
Mof_C 	C 	0.7135	0.2973	0.4473	-0.041
Mof_H 	H 	0.765	0.3294	0.4335	0.053
Mof_C 	C 	0.8576	0.2081	0.575	-0.048
Mof_H 	H 	0.8168	0.1548	0.5776	0.068
Mof_C 	C 	0.1088	0.2916	0.6599	0.113
Mof_H 	H 	0.1475	0.3477	0.6625	-0.023
Mof_C 	C 	0.018	0.2921	0.6199	-0.183
Mof_H 	H 	0.9954	0.3472	0.5952	0.108
Mof_C 	C 	0.9581	0.2105	0.6156	0.134
Mof_C 	C 	0.9964	0.1334	0.6536	-0.192
Mof_H 	H 	0.9583	0.0773	0.653	0.113
Mof_C 	C 	0.0896	0.1372	0.6922	0.114
Mof_H 	H 	0.1142	0.0827	0.717	-0.016
Mof_C 	C 	0.1548	0.3057	0.3515	0.104
Mof_H 	H 	0.1289	0.2468	0.3334	-0.013
Mof_C 	C 	0.1083	0.3541	0.3985	-0.189
Mof_H 	H 	0.0522	0.3284	0.4107	0.104
Mof_C 	C 	0.1495	0.437	0.4234	0.152
Mof_C 	C 	0.229	0.4744	0.4084	-0.214
Mof_H 	H 	0.2588	0.5307	0.4283	0.116
Mof_C 	C 	0.2656	0.426	0.362	0.119
Mof_H 	H 	0.3196	0.4539	0.3484	-0.018
Mof_C 	C 	0.1031	0.4898	0.4724	-0.055
Mof_H 	H 	0.1407	0.5358	0.4998	0.063
Mof_C 	C 	0.3227	0.2607	0.1215	0.099
Mof_H 	H 	0.2837	0.3166	0.1145	-0.013
Mof_C 	C 	0.3527	0.2189	0.0693	-0.173
Mof_H 	H 	0.3334	0.2458	0.0276	0.091
Mof_C 	C 	0.4108	0.1376	0.079	0.119
Mof_C 	C 	0.4383	0.101	0.1415	-0.173
Mof_H 	H 	0.4789	0.0462	0.1501	0.097
Mof_C 	C 	0.4053	0.146	0.19	0.097
Mof_H 	H 	0.4241	0.1208	0.2322	-0.017
Mof_C 	C 	0.4413	0.0917	0.0235	-0.044
Mof_H 	H 	0.4238	0.1207	0.9823	0.06
Mof_C 	C 	0.3334	0.4892	0.2103	0.111
Mof_C 	C 	0.2449	0.066	0.2846	0.133
_end
