data_functionalizedCrystal
_audit_creation_method	'EQeq! by Chris Wilmer'
_symmetry_space_group_name_H-M	'P1'
_symmetry_Int_Tables_number	1
_symmetry_cell_setting	triclinic
loop_
_symmetry_equiv_pos_as_xyz
  x,y,z
_cell_length_a	13.2925
_cell_length_b	13.66
_cell_length_c	9.5631
_cell_angle_alpha	90
_cell_angle_beta	126.84
_cell_angle_gamma	90
loop_
_atom_site_label
_atom_site_type_symbol
_atom_site_fract_x
_atom_site_fract_y
_atom_site_fract_z
_atom_site_charge
Mof_Zn	Zn	0.1664	0.35645	0.8701	1.142
Mof_N 	N 	0.4941	0.2004	0.2089	-0.305
Mof_N 	N 	0.3125	0.2682	0.0207	-0.285
Mof_N 	N 	0.1807	0.465	0.7382	-0.332
Mof_N 	N 	0.1763	0.5677	0.5622	-0.31
Mof_N 	N 	0.261	0.5983	0.7296	-0.097
Mof_N 	N 	0.4023	0.1303	0.1369	-0.089
Mof_N 	N 	0.2629	0.5378	0.8348	-0.122
Mof_C 	C 	0.033	0.4232	0.4223	-1.141
Mof_H 	H 	0.0143	0.3673	0.4639	0.312
Mof_H 	H 	0.0652	0.4017	0.3606	0.334
Mof_H 	H 	0.9577	0.4606	0.3451	0.384
Mof_C 	C 	0.4356	0.2833	0.1323	0.316
Mof_C 	C 	0.1277	0.4845	0.5718	0.369
Mof_N 	N 	0.2957	0.1707	0.0261	-0.069
Mof_C 	C 	0.4983	0.3816	0.172	-0.87
Mof_H 	H 	0.4359	0.4308	0.1025	0.273
Mof_H 	H 	0.5572	0.3802	0.1451	0.267
Mof_H 	H 	0.5418	0.3964	0.2936	0.265
Mof_Zn	Zn	0.6664	0.85645	0.8701	1.148
Mof_N 	N 	0.9941	0.7004	0.2089	-0.262
Mof_N 	N 	0.8125	0.7682	0.0207	-0.256
Mof_N 	N 	0.6807	0.965	0.7382	-0.316
Mof_N 	N 	0.6763	0.0677	0.5622	-0.289
Mof_N 	N 	0.761	0.0983	0.7296	-0.087
Mof_N 	N 	0.9023	0.6303	0.1369	-0.082
Mof_N 	N 	0.7629	0.0378	0.8348	-0.107
Mof_C 	C 	0.533	0.9232	0.4223	-0.9
Mof_H 	H 	0.5143	0.8673	0.4639	0.259
Mof_H 	H 	0.5652	0.9017	0.3606	0.277
Mof_H 	H 	0.4577	0.9606	0.3451	0.279
Mof_C 	C 	0.9356	0.7833	0.1323	0.198
Mof_C 	C 	0.6277	0.9845	0.5718	0.32
Mof_N 	N 	0.7957	0.6707	0.0261	-0.067
Mof_C 	C 	0.9983	0.8816	0.172	-0.337
Mof_H 	H 	0.9359	0.9308	0.1025	0.13
Mof_H 	H 	0.0572	0.8802	0.1451	0.075
Mof_H 	H 	0.0418	0.8964	0.2936	0.072
Mof_Zn	Zn	0.1664	0.64355	0.3701	1.165
Mof_N 	N 	0.4941	0.7996	0.7089	-0.315
Mof_N 	N 	0.3125	0.7318	0.5207	-0.301
Mof_N 	N 	0.1807	0.535	0.2382	-0.333
Mof_N 	N 	0.1763	0.4323	0.0622	-0.301
Mof_N 	N 	0.261	0.4017	0.2296	-0.083
Mof_N 	N 	0.4023	0.8697	0.6369	-0.107
Mof_N 	N 	0.2629	0.4622	0.3348	-0.099
Mof_C 	C 	0.033	0.5768	0.9223	-1.301
Mof_H 	H 	0.0143	0.6327	0.9639	0.323
Mof_H 	H 	0.0652	0.5983	0.8606	0.359
Mof_H 	H 	0.9577	0.5394	0.8451	0.403
Mof_C 	C 	0.4356	0.7167	0.6323	0.27
Mof_C 	C 	0.1277	0.5155	0.0718	0.477
Mof_N 	N 	0.2957	0.8293	0.5261	-0.094
Mof_C 	C 	0.4983	0.6184	0.672	-0.768
Mof_H 	H 	0.4359	0.5692	0.6025	0.217
Mof_H 	H 	0.5572	0.6198	0.6451	0.211
Mof_H 	H 	0.5418	0.6036	0.7936	0.211
Mof_Zn	Zn	0.6664	0.14355	0.3701	1.175
Mof_N 	N 	0.9941	0.2996	0.7089	-0.274
Mof_N 	N 	0.8125	0.2318	0.5207	-0.275
Mof_N 	N 	0.6807	0.035	0.2382	-0.314
Mof_N 	N 	0.6763	0.9323	0.0622	-0.282
Mof_N 	N 	0.761	0.9017	0.2296	-0.073
Mof_N 	N 	0.9023	0.3697	0.6369	-0.1
Mof_N 	N 	0.7629	0.9622	0.3348	-0.086
Mof_C 	C 	0.533	0.0768	0.9223	-1.081
Mof_H 	H 	0.5143	0.1327	0.9639	0.277
Mof_H 	H 	0.5652	0.0983	0.8606	0.307
Mof_H 	H 	0.4577	0.0394	0.8451	0.308
Mof_C 	C 	0.9356	0.2167	0.6323	0.163
Mof_C 	C 	0.6277	0.0155	0.0718	0.435
Mof_N 	N 	0.7957	0.3293	0.5261	-0.093
Mof_C 	C 	0.9983	0.1184	0.672	-0.283
Mof_H 	H 	0.9359	0.0692	0.6025	0.089
Mof_H 	H 	0.0572	0.1198	0.6451	0.038
Mof_H 	H 	0.0418	0.1036	0.7936	0.038
_end
