data_functionalizedCrystal
_audit_creation_method	'EQeq! by Chris Wilmer'
_symmetry_space_group_name_H-M	'P1'
_symmetry_Int_Tables_number	1
_symmetry_cell_setting	triclinic
loop_
_symmetry_equiv_pos_as_xyz
  x,y,z
_cell_length_a	27.9293
_cell_length_b	27.9293
_cell_length_c	27.9293
_cell_angle_alpha	90
_cell_angle_beta	90
_cell_angle_gamma	90
loop_
_atom_site_label
_atom_site_type_symbol
_atom_site_fract_x
_atom_site_fract_y
_atom_site_fract_z
_atom_site_charge
Mof_C 	C 	0.54334	0.00484	0.60106	0.002
Mof_C 	C 	0.49952	0.00315	0.62539	-0.063
Mof_C 	C 	0.45589	0.00241	0.60077	-0.008
Mof_C 	C 	0.45576	0.0029	0.55005	0.012
Mof_C 	C 	0.49985	0.00461	0.52472	-0.011
Mof_C 	C 	0.54381	0.00557	0.5503	-0.004
Mof_C 	C 	0.58701	0.00612	0.52444	-0.044
Mof_C 	C 	0.58718	0.00594	0.47453	-0.042
Mof_C 	C 	0.54415	0.00535	0.44839	-0.003
Mof_C 	C 	0.49999	0.00473	0.47369	-0.009
Mof_C 	C 	0.41276	0.00111	0.52404	-0.093
Mof_C 	C 	0.41287	0.00101	0.47414	-0.092
Mof_C 	C 	0.45598	0.00338	0.44814	0.013
Mof_C 	C 	0.45641	0.00305	0.3973	-0.003
Mof_C 	C 	0.50039	0.00286	0.37309	-0.064
Mof_C 	C 	0.54408	0.00415	0.39765	0.005
Mof_H 	H 	0.62124	0.00617	0.5426	0.033
Mof_H 	H 	0.62152	0.00584	0.45659	0.033
Mof_H 	H 	0.37852	0.99925	0.54212	0.1
Mof_H 	H 	0.37866	0.99839	0.45621	0.102
Mof_H 	H 	0.49935	0.0027	0.66423	0.035
Mof_H 	H 	0.50066	0.00241	0.33425	0.037
Mof_C 	C 	0.54297	0.60715	0.99764	0.008
Mof_C 	C 	0.49915	0.63149	0.99767	-0.07
Mof_C 	C 	0.4554	0.60705	0.99679	0.008
Mof_C 	C 	0.45517	0.5563	0.99677	-0.003
Mof_C 	C 	0.49925	0.5309	0.99729	-0.008
Mof_C 	C 	0.5433	0.55637	0.99744	-0.004
Mof_C 	C 	0.5864	0.53038	0.99828	-0.045
Mof_C 	C 	0.58644	0.48055	0.99794	-0.04
Mof_C 	C 	0.54337	0.45449	0.99837	-0.012
Mof_C 	C 	0.49929	0.47989	0.9981	0.001
Mof_C 	C 	0.4121	0.53026	0.99713	-0.045
Mof_C 	C 	0.41214	0.48042	0.99722	-0.036
Mof_C 	C 	0.45524	0.45443	0.99823	-0.017
Mof_C 	C 	0.45554	0.40367	0.99843	0.027
Mof_C 	C 	0.49936	0.37931	0.99792	-0.077
Mof_C 	C 	0.54313	0.40372	0.99817	0.012
Mof_H 	H 	0.62072	0.54824	0.99926	0.032
Mof_H 	H 	0.6208	0.46273	0.99733	0.027
Mof_H 	H 	0.37775	0.54811	0.99747	0.036
Mof_H 	H 	0.37782	0.46253	0.99632	0.029
Mof_H 	H 	0.4991	0.67034	0.99765	0.036
Mof_H 	H 	0.49939	0.34046	0.99808	0.042
Mof_C 	C 	0.00139	0.40355	0.45466	-0.031
Mof_C 	C 	0.0015	0.37925	0.4985	-0.01
Mof_C 	C 	0.00106	0.4037	0.54227	-0.049
Mof_C 	C 	0.00104	0.45447	0.54244	0.037
Mof_C 	C 	0.00045	0.47983	0.49834	-0.01
Mof_C 	C 	0.00099	0.45433	0.45431	0.03
Mof_C 	C 	0.00288	0.48029	0.41123	-0.035
Mof_C 	C 	0.00274	0.53013	0.41115	-0.039
Mof_C 	C 	0.00085	0.55621	0.45416	0.037
Mof_C 	C 	0.00051	0.53085	0.49827	-0.009
Mof_C 	C 	0.00341	0.48055	0.58543	-0.041
Mof_C 	C 	0.00367	0.53039	0.58535	-0.035
Mof_C 	C 	0.00142	0.55636	0.54229	0.029
Mof_C 	C 	0.00186	0.60713	0.54195	-0.03
Mof_C 	C 	0.00181	0.63143	0.49809	-0.01
Mof_C 	C 	0.00108	0.60697	0.45434	-0.047
Mof_H 	H 	0.00524	0.46238	0.37699	0.061
Mof_H 	H 	0.00498	0.54796	0.37686	0.063
Mof_H 	H 	0.00597	0.46272	0.6197	0.06
Mof_H 	H 	0.00641	0.54829	0.61957	0.058
Mof_H 	H 	0.00138	0.3404	0.49855	0.045
Mof_H 	H 	0.00179	0.67028	0.49802	0.049
Mof_O 	O 	0.87784	0.00611	0.9363	-0.649
Mof_O 	O 	0.12063	0.00397	0.93517	-0.633
Mof_O 	O 	0.99768	0.0678	0.87695	-0.659
Mof_O 	O 	0.00104	0.94269	0.87706	-0.544
Mof_O 	O 	0.00074	0.88383	0.93542	-0.57
Mof_O 	O 	0.99713	0.1267	0.93524	-0.646
Mof_O 	O 	0.06187	0.00346	0.87663	-0.608
Mof_O 	O 	0.93613	0.00754	0.87727	-0.65
Mof_Zr	Zr	0.99919	0.00533	0.91992	3.189
Mof_O 	O 	0.0469	0.9577	0.95052	-1.322
Mof_O 	O 	0.9516	0.05289	0.95091	-1.386
Mof_C 	C 	0.89152	0.00758	0.89156	0.475
Mof_C 	C 	0.10659	0.00286	0.89054	0.459
Mof_C 	C 	0.9966	0.11261	0.89049	0.476
Mof_C 	C 	0.00179	0.89787	0.89068	0.433
Mof_H 	H 	0.0668	0.07311	0.93035	0.429
Mof_O 	O 	0.04633	0.05263	0.95094	-1.663
Mof_H 	H 	0.93174	0.93756	0.93081	0.409
Mof_O 	O 	0.95226	0.95806	0.95132	-1.695
Mof_O 	O 	0.12107	0.00707	0.06019	-0.597
Mof_O 	O 	0.8785	0.00282	0.06159	-0.612
Mof_O 	O 	0.06233	0.12681	0.99994	-0.666
Mof_O 	O 	0.06253	0.88399	0.99609	-0.607
Mof_O 	O 	0.93658	0.88382	4e-05	-0.592
Mof_O 	O 	0.93628	0.12663	0.99699	-0.645
Mof_O 	O 	0.00202	0.06807	0.11951	-0.573
Mof_O 	O 	0.99868	0.94295	0.11969	-0.625
Mof_O 	O 	0.00088	0.12689	0.06115	-0.53
Mof_O 	O 	0.99787	0.88401	0.06142	-0.617
Mof_O 	O 	0.12062	0.06795	0.99928	-0.69
Mof_O 	O 	0.87816	0.06762	0.99729	-0.638
Mof_O 	O 	0.87833	0.94265	0.00036	-0.56
Mof_O 	O 	0.12075	0.94296	0.99634	-0.611
Mof_O 	O 	0.06313	0.00721	0.11931	-0.602
Mof_O 	O 	0.93728	0.00451	0.12011	-0.648
Mof_Zr	Zr	0.07771	0.00543	0.99793	3.195
Mof_Zr	Zr	0.92122	0.00513	0.99868	3.191
Mof_Zr	Zr	0.99933	0.08392	0.99828	3.189
Mof_Zr	Zr	0.99952	0.92675	0.99833	3.187
Mof_Zr	Zr	0.99991	0.00545	0.0767	3.19
Mof_O 	O 	0.95221	0.95763	0.04623	-1.327
Mof_O 	O 	0.04724	0.05312	0.04565	-1.319
Mof_C 	C 	0.10783	0.00792	0.1051	0.443
Mof_C 	C 	0.89255	0.0029	0.10626	0.466
Mof_C 	C 	0.10709	0.11276	0.00038	0.58
Mof_C 	C 	0.10725	0.89813	0.99537	0.461
Mof_C 	C 	0.89183	0.89781	0.00089	0.472
Mof_C 	C 	0.89154	0.1125	0.9965	0.457
Mof_C 	C 	0.00232	0.11288	0.10589	0.433
Mof_C 	C 	0.99757	0.89812	0.10616	0.467
Mof_H 	H 	0.93203	0.07292	0.06625	0.423
Mof_O 	O 	0.9525	0.05247	0.04565	-1.683
Mof_H 	H 	0.06749	0.93773	0.06567	0.443
Mof_O 	O 	0.04685	0.95819	0.04525	-1.597
Mof_C 	C 	0.33111	0.0051	0.30727	-0.045
Mof_C 	C 	0.36378	0.96712	0.30451	0.018
Mof_C 	C 	0.40395	0.96608	0.33447	0.018
Mof_C 	C 	0.41196	0.00293	0.36779	-0.048
Mof_C 	C 	0.37911	0.04101	0.3704	-0.038
Mof_C 	C 	0.33881	0.04195	0.34047	-0.033
Mof_C 	C 	0.29082	0.00686	0.27478	-0
Mof_C 	C 	0.25797	0.00791	0.24654	-0.043
Mof_C 	C 	0.21991	0.00865	0.21144	0.053
Mof_C 	C 	0.23106	0.00471	0.16276	-0.083
Mof_C 	C 	0.19467	0.00477	0.12835	0.04
Mof_C 	C 	0.14626	0.00869	0.142	-0.118
Mof_C 	C 	0.13532	0.0128	0.19108	0.039
Mof_C 	C 	0.17191	0.01281	0.22551	-0.083
Mof_H 	H 	0.35851	0.93858	0.27877	0.048
Mof_H 	H 	0.42907	0.93669	0.33142	0.046
Mof_H 	H 	0.38504	0.07024	0.39518	0.037
Mof_H 	H 	0.31405	0.07171	0.34279	0.038
Mof_H 	H 	0.26798	0.00138	0.15133	0.051
Mof_H 	H 	0.20458	0.00139	0.09102	0.045
Mof_H 	H 	0.09853	0.01598	0.20291	0.041
Mof_H 	H 	0.16274	0.0159	0.26307	0.051
Mof_C 	C 	0.66921	0.00358	0.30755	-0.044
Mof_C 	C 	0.64143	0.96211	0.31281	0.016
Mof_C 	C 	0.60134	0.96211	0.34295	0.019
Mof_C 	C 	0.5887	0.00348	0.36859	-0.049
Mof_C 	C 	0.61687	0.04488	0.36369	-0.033
Mof_C 	C 	0.6569	0.04491	0.33333	-0.036
Mof_C 	C 	0.7093	0.00389	0.27464	-0.015
Mof_C 	C 	0.74227	0.00366	0.24646	-0.035
Mof_C 	C 	0.78112	0.00295	0.2121	-0.005
Mof_C 	C 	0.78675	0.96373	0.18122	-0.026
Mof_C 	C 	0.82327	0.96361	0.14679	0.111
Mof_C 	C 	0.85512	0.00233	0.14344	-0.189
Mof_C 	C 	0.8499	0.04126	0.17481	0.053
Mof_C 	C 	0.81284	0.04175	0.2087	-0.079
Mof_H 	H 	0.65038	0.92993	0.29309	0.044
Mof_H 	H 	0.57984	0.92998	0.34599	0.044
Mof_H 	H 	0.6073	0.07731	0.38267	0.037
Mof_H 	H 	0.67784	0.07734	0.32945	0.036
Mof_H 	H 	0.7627	0.93339	0.18353	0.058
Mof_H 	H 	0.82692	0.9332	0.12298	0.038
Mof_H 	H 	0.87374	0.07176	0.17222	0.014
Mof_H 	H 	0.80868	0.07253	0.23193	0.045
Mof_C 	C 	0.66832	0.00737	0.69093	-0.047
Mof_C 	C 	0.64111	0.96545	0.68645	0.015
Mof_C 	C 	0.60096	0.96445	0.65647	0.018
Mof_C 	C 	0.58775	0.00527	0.63029	-0.05
Mof_C 	C 	0.61533	0.04713	0.63444	-0.035
Mof_C 	C 	0.65542	0.04817	0.66463	-0.037
Mof_C 	C 	0.70845	0.00869	0.72362	-0.019
Mof_C 	C 	0.74142	0.00905	0.75171	-0.041
Mof_C 	C 	0.78012	0.00859	0.78609	-0.008
Mof_C 	C 	0.7868	0.96856	0.81561	-0.032
Mof_C 	C 	0.82323	0.96834	0.85003	0.105
Mof_C 	C 	0.85386	0.00786	0.85477	-0.201
Mof_C 	C 	0.84763	0.0477	0.82478	0.059
Mof_C 	C 	0.81064	0.04821	0.79083	-0.084
Mof_H 	H 	0.65059	0.93369	0.70661	0.039
Mof_H 	H 	0.57992	0.93197	0.65392	0.042
Mof_H 	H 	0.60529	0.07911	0.61495	0.036
Mof_H 	H 	0.67595	0.08091	0.66795	0.033
Mof_H 	H 	0.76368	0.9376	0.8122	0.048
Mof_H 	H 	0.82783	0.9372	0.87272	0.008
Mof_H 	H 	0.8707	0.07867	0.82837	0.028
Mof_H 	H 	0.80564	0.07957	0.76855	0.045
Mof_C 	C 	0.33055	0.00027	0.69023	-0.107
Mof_C 	C 	0.35139	0.95722	0.67488	0.037
Mof_C 	C 	0.39158	0.95785	0.64479	0.002
Mof_C 	C 	0.41127	0.00155	0.62963	-0.042
Mof_C 	C 	0.39003	0.04457	0.64457	-0.049
Mof_C 	C 	0.34988	0.04393	0.67467	-0.014
Mof_C 	C 	0.2904	0.99981	0.72306	0.053
Mof_C 	C 	0.25729	0.9999	0.75106	0.032
Mof_C 	C 	0.2182	0.0006	0.78513	-0.067
Mof_C 	C 	0.19528	0.95795	0.79858	-0.005
Mof_C 	C 	0.15823	0.9587	0.83249	0.094
Mof_C 	C 	0.14398	0.00208	0.85345	-0.177
Mof_C 	C 	0.1668	0.04471	0.83987	0.041
Mof_C 	C 	0.2036	0.04399	0.80577	-0.055
Mof_H 	H 	0.33698	0.9232	0.6867	0.03
Mof_H 	H 	0.40779	0.92435	0.63388	0.045
Mof_H 	H 	0.40505	0.07858	0.63352	0.039
Mof_H 	H 	0.33433	0.07749	0.68634	0.024
Mof_H 	H 	0.2063	0.9241	0.78317	0.043
Mof_H 	H 	0.14116	0.92545	0.84289	0.035
Mof_H 	H 	0.15622	0.07846	0.8558	0.021
Mof_H 	H 	0.22092	0.07723	0.79578	0.036
Mof_C 	C 	0.32999	0.31447	0.00106	0.135
Mof_C 	C 	0.33886	0.34634	0.03881	-0.106
Mof_C 	C 	0.37933	0.376	0.03778	0.086
Mof_C 	C 	0.4111	0.37436	0.99876	-0.103
Mof_C 	C 	0.40196	0.34233	0.96108	0.029
Mof_C 	C 	0.36163	0.31267	0.96219	-0.164
Mof_C 	C 	0.28956	0.2823	0.00263	-0.018
Mof_C 	C 	0.25667	0.25419	0.00315	-0.01
Mof_C 	C 	0.21869	0.21912	0.00288	0.122
Mof_C 	C 	0.17147	0.23212	0.01379	-0.088
Mof_C 	C 	0.13493	0.19768	0.01289	0.064
Mof_C 	C 	0.14528	0.14971	0.0013	-0.088
Mof_C 	C 	0.19289	0.13712	0.9905	0.001
Mof_C 	C 	0.22918	0.17156	0.99119	-0.15
Mof_H 	H 	0.31488	0.34783	0.06926	0.07
Mof_H 	H 	0.3862	0.39985	0.06757	0.031
Mof_H 	H 	0.42631	0.34011	0.93098	0.019
Mof_H 	H 	0.35542	0.28793	0.93297	0.058
Mof_H 	H 	0.16288	0.26881	0.02297	0.075
Mof_H 	H 	0.09874	0.2085	0.02164	0.067
Mof_H 	H 	0.20214	0.10066	0.98107	0.035
Mof_H 	H 	0.2655	0.16105	0.98248	0.049
Mof_C 	C 	0.32983	0.69618	0.99432	-0.045
Mof_C 	C 	0.36078	0.69695	0.03378	0.021
Mof_C 	C 	0.40111	0.66729	0.03482	0.027
Mof_C 	C 	0.41091	0.63626	0.99649	-0.054
Mof_C 	C 	0.37979	0.63554	0.95693	-0.031
Mof_C 	C 	0.33935	0.66525	0.95595	-0.035
Mof_C 	C 	0.28949	0.72847	0.99282	-0.012
Mof_C 	C 	0.25666	0.75666	0.99239	-0.029
Mof_C 	C 	0.21871	0.79177	0.99282	-0.01
Mof_C 	C 	0.22842	0.83838	0.00842	-0.014
Mof_C 	C 	0.19217	0.87287	0.00908	0.107
Mof_C 	C 	0.14539	0.86121	0.99442	-0.177
Mof_C 	C 	0.13576	0.8142	0.979	0.051
Mof_C 	C 	0.17228	0.77975	0.97804	-0.07
Mof_H 	H 	0.35405	0.72093	0.06352	0.048
Mof_H 	H 	0.42495	0.66875	0.06537	0.045
Mof_H 	H 	0.38718	0.61243	0.92669	0.038
Mof_H 	H 	0.3159	0.66454	0.92506	0.04
Mof_H 	H 	0.26409	0.84809	0.02019	0.065
Mof_H 	H 	0.20069	0.90857	0.02162	0.058
Mof_H 	H 	0.1002	0.80423	0.96719	0.048
Mof_H 	H 	0.16432	0.74383	0.96577	0.053
Mof_C 	C 	0.66866	0.69619	0.99881	-0.053
Mof_C 	C 	0.63633	0.69733	0.03713	0.023
Mof_C 	C 	0.59594	0.66775	0.03696	0.024
Mof_C 	C 	0.5874	0.63647	0.99852	-0.055
Mof_C 	C 	0.61981	0.63554	0.96001	-0.034
Mof_C 	C 	0.66035	0.66511	0.96027	-0.035
Mof_C 	C 	0.70917	0.7283	0.99853	-0.01
Mof_C 	C 	0.74212	0.75635	0.99885	-0.05
Mof_C 	C 	0.78015	0.79136	0.99964	0.016
Mof_C 	C 	0.76875	0.84011	0.00092	-0.02
Mof_C 	C 	0.80504	0.87453	0.00173	0.055
Mof_C 	C 	0.85358	0.86082	0.00124	-0.157
Mof_C 	C 	0.86478	0.81164	0.00017	0.21
Mof_C 	C 	0.82827	0.77718	0.99937	-0.189
Mof_H 	H 	0.64207	0.7215	0.06692	0.045
Mof_H 	H 	0.57107	0.66944	0.06667	0.045
Mof_H 	H 	0.61341	0.61228	0.92964	0.036
Mof_H 	H 	0.68485	0.66416	0.93022	0.033
Mof_H 	H 	0.73168	0.85158	0.00121	0.066
Mof_H 	H 	0.79494	0.91196	0.00253	0.065
Mof_H 	H 	0.90169	0.79977	0.99971	-0.052
Mof_H 	H 	0.83758	0.73954	0.99845	0.061
Mof_C 	C 	0.66877	0.31462	0.99762	-0.057
Mof_C 	C 	0.63681	0.31375	0.959	-0.034
Mof_C 	C 	0.59645	0.34338	0.95896	-0.034
Mof_C 	C 	0.5876	0.37447	0.99749	-0.057
Mof_C 	C 	0.61969	0.37518	0.03627	0.024
Mof_C 	C 	0.66019	0.34555	0.03622	0.024
Mof_C 	C 	0.70918	0.28237	0.99814	-0.005
Mof_C 	C 	0.74203	0.25421	0.99802	-0.055
Mof_C 	C 	0.77998	0.21911	0.99746	0.052
Mof_C 	C 	0.7685	0.17036	0.99652	-0.093
Mof_C 	C 	0.80475	0.13586	0.99588	0.042
Mof_C 	C 	0.85331	0.14952	0.99618	-0.138
Mof_C 	C 	0.86457	0.19868	0.99692	0.04
Mof_C 	C 	0.82813	0.23321	0.99756	-0.095
Mof_H 	H 	0.64278	0.28971	0.92914	0.033
Mof_H 	H 	0.57184	0.34186	0.92903	0.034
Mof_H 	H 	0.61304	0.3983	0.0667	0.045
Mof_H 	H 	0.68442	0.34631	0.0665	0.042
Mof_H 	H 	0.73142	0.15895	0.99634	0.042
Mof_H 	H 	0.79461	0.09845	0.99531	0.029
Mof_H 	H 	0.90149	0.21052	0.99721	0.021
Mof_H 	H 	0.8375	0.27084	0.99821	0.039
Mof_C 	C 	0.0023	0.31416	0.32917	0.097
Mof_C 	C 	0.96418	0.34586	0.33708	-0.116
Mof_C 	C 	0.96406	0.37559	0.37751	-0.124
Mof_C 	C 	0.00228	0.37419	0.41024	0.097
Mof_C 	C 	0.04035	0.34235	0.40205	-0.052
Mof_C 	C 	0.04039	0.31263	0.36175	-0.047
Mof_C 	C 	0.00186	0.28195	0.28873	-0.001
Mof_C 	C 	0.00208	0.25392	0.25577	-0.018
Mof_C 	C 	0.00288	0.21911	0.21754	0.131
Mof_C 	C 	0.98908	0.23173	0.17099	-0.151
Mof_C 	C 	0.9895	0.19743	0.13434	-0.038
Mof_C 	C 	0.00342	0.14993	0.14392	-0.028
Mof_C 	C 	0.01749	0.13775	0.19076	0.035
Mof_C 	C 	0.01732	0.1721	0.22718	-0.084
Mof_H 	H 	0.93433	0.34717	0.31235	0.041
Mof_H 	H 	0.93398	0.3993	0.3836	0.037
Mof_H 	H 	0.06988	0.34033	0.42712	0.046
Mof_H 	H 	0.0699	0.28804	0.35628	0.048
Mof_H 	H 	0.97771	0.26796	0.16308	0.055
Mof_H 	H 	0.97815	0.20787	0.09876	0.049
Mof_H 	H 	0.02879	0.10165	0.1993	0.053
Mof_H 	H 	0.02829	0.1619	0.26297	0.062
Mof_C 	C 	0.99831	0.31465	0.66796	-0.134
Mof_C 	C 	0.96119	0.34739	0.65962	0.04
Mof_C 	C 	0.96233	0.37703	0.61915	-0.201
Mof_C 	C 	0.00083	0.3745	0.58681	0.156
Mof_C 	C 	0.03794	0.34166	0.59547	-0.129
Mof_C 	C 	0.03671	0.31202	0.63582	0.112
Mof_C 	C 	0.99645	0.28241	0.70833	0.002
Mof_C 	C 	0.99558	0.25425	0.74117	-0.057
Mof_C 	C 	0.9954	0.21911	0.77908	-0.025
Mof_C 	C 	0.98159	0.2315	0.82571	-0.084
Mof_C 	C 	0.982	0.19699	0.8622	0.053
Mof_C 	C 	0.99594	0.14956	0.85235	-0.218
Mof_C 	C 	0.00959	0.13754	0.80534	0.126
Mof_C 	C 	0.00944	0.17206	0.76913	-0.011
Mof_H 	H 	0.93111	0.34955	0.68401	0.008
Mof_H 	H 	0.93297	0.40152	0.61269	0.055
Mof_H 	H 	0.06766	0.33877	0.57073	0.065
Mof_H 	H 	0.06546	0.28663	0.64163	0.018
Mof_H 	H 	0.97053	0.26777	0.83387	0.038
Mof_H 	H 	0.97102	0.2073	0.89793	0.025
Mof_H 	H 	0.02095	0.10151	0.79659	0.039
Mof_H 	H 	0.02043	0.16204	0.73329	0.055
Mof_C 	C 	0.00281	0.69655	0.66744	0.097
Mof_C 	C 	0.96495	0.66449	0.65979	-0.117
Mof_C 	C 	0.96483	0.63477	0.61936	-0.124
Mof_C 	C 	0.00281	0.63651	0.58637	0.097
Mof_C 	C 	0.04064	0.66871	0.59431	-0.051
Mof_C 	C 	0.04066	0.69844	0.6346	-0.046
Mof_C 	C 	0.00231	0.72878	0.70787	-0.001
Mof_C 	C 	0.00243	0.75681	0.74084	-0.019
Mof_C 	C 	0.00306	0.79161	0.77908	0.132
Mof_C 	C 	0.98833	0.77917	0.82541	-0.156
Mof_C 	C 	0.98851	0.81348	0.86205	-0.042
Mof_C 	C 	0.00307	0.86082	0.85267	-0.03
Mof_C 	C 	0.01809	0.87282	0.80609	0.036
Mof_C 	C 	0.01819	0.83846	0.76969	-0.082
Mof_H 	H 	0.93527	0.66291	0.68472	0.038
Mof_H 	H 	0.93492	0.61079	0.61347	0.036
Mof_H 	H 	0.06998	0.671	0.56905	0.048
Mof_H 	H 	0.06997	0.72331	0.63987	0.051
Mof_H 	H 	0.97641	0.74307	0.83313	0.044
Mof_H 	H 	0.97644	0.8032	0.89744	0.029
Mof_H 	H 	0.02997	0.90879	0.79778	0.067
Mof_H 	H 	0.0299	0.84851	0.7341	0.07
Mof_C 	C 	0.9985	0.69602	0.32866	-0.125
Mof_C 	C 	0.96094	0.66389	0.33739	0.041
Mof_C 	C 	0.96201	0.63422	0.37784	-0.195
Mof_C 	C 	0.00086	0.63616	0.4098	0.153
Mof_C 	C 	0.03842	0.66837	0.40076	-0.123
Mof_C 	C 	0.03728	0.69801	0.36041	0.111
Mof_C 	C 	0.99677	0.7283	0.28832	0.009
Mof_C 	C 	0.99605	0.75649	0.25549	-0.046
Mof_C 	C 	0.99607	0.79163	0.21758	-0.017
Mof_C 	C 	0.98207	0.77933	0.17098	-0.074
Mof_C 	C 	0.98264	0.81382	0.13449	0.055
Mof_C 	C 	0.99692	0.86116	0.1443	-0.196
Mof_C 	C 	0.01077	0.8731	0.19126	0.124
Mof_C 	C 	0.01047	0.83858	0.22749	-0.004
Mof_H 	H 	0.93058	0.66223	0.31331	0.016
Mof_H 	H 	0.93234	0.6102	0.38461	0.057
Mof_H 	H 	0.06843	0.67077	0.4252	0.068
Mof_H 	H 	0.06638	0.72292	0.35429	0.026
Mof_H 	H 	0.97071	0.74314	0.16286	0.051
Mof_H 	H 	0.97146	0.80359	0.0988	0.044
Mof_H 	H 	0.02238	0.90906	0.19998	0.057
Mof_H 	H 	0.02159	0.84853	0.2633	0.066
_end
