data_functionalizedCrystal
_audit_creation_method	'EQeq! by Chris Wilmer'
_symmetry_space_group_name_H-M	'P1'
_symmetry_Int_Tables_number	1
_symmetry_cell_setting	triclinic
loop_
_symmetry_equiv_pos_as_xyz
  x,y,z
_cell_length_a	16.9915
_cell_length_b	24.799
_cell_length_c	6.7833
_cell_angle_alpha	90
_cell_angle_beta	95.784
_cell_angle_gamma	90
loop_
_atom_site_label
_atom_site_type_symbol
_atom_site_fract_x
_atom_site_fract_y
_atom_site_fract_z
_atom_site_charge
Mof_Pr	Pr	0.23071	0.66213	0.3824	2.825
Mof_Ag	Ag	0.7294	0.77129	0.50981	0.402
Mof_Ag	Ag	0.73488	0.51054	0.5966	0.453
Mof_N 	N 	0.85087	0.52911	0.4992	-0.196
Mof_N 	N 	0.85567	0.77221	0.5008	-0.183
Mof_N 	N 	0.61316	0.53713	0.6248	-0.184
Mof_N 	N 	0.60317	0.77207	0.5167	-0.184
Mof_O 	O 	0.1147	0.60646	0.3979	-0.591
Mof_O 	O 	0.08681	0.55666	0.126	-0.322
Mof_O 	O 	0.13823	0.73028	0.458	-0.672
Mof_O 	O 	0.14559	0.81468	0.5687	-0.589
Mof_O 	O 	0.3344	0.60208	0.5271	-0.604
Mof_O 	O 	0.34975	0.58336	0.8509	-0.361
Mof_O 	O 	0.31686	0.73056	0.5489	-0.664
Mof_O 	O 	0.32798	0.8156	0.6545	-0.614
Mof_O 	O 	0.24082	0.57809	0.1624	-0.923
Mof_H 	H 	0.2392	0.5468	0.2129	0.318
Mof_H 	H 	0.2457	0.5816	0.0395	0.385
Mof_C 	C 	0.0711	0.57562	0.2865	0.412
Mof_C 	C 	0.9922	0.56064	0.3586	-0.068
Mof_C 	C 	0.9735	0.57669	0.5445	-0.049
Mof_H 	H 	0.0083	0.5982	0.6246	0.046
Mof_C 	C 	0.9029	0.56045	0.6091	0.033
Mof_H 	H 	0.8908	0.5716	0.7334	-0.004
Mof_C 	C 	0.8698	0.51363	0.3207	0.051
Mof_H 	H 	0.8347	0.4915	0.244	-0.022
Mof_C 	C 	0.9386	0.52885	0.2455	-0.074
Mof_H 	H 	0.9489	0.5178	0.1196	0.07
Mof_C 	C 	0.10834	0.77273	0.5136	0.545
Mof_C 	C 	0.01968	0.7732	0.5079	-0.155
Mof_C 	C 	0.9772	0.82071	0.5106	0
Mof_H 	H 	0.0034	0.8537	0.516	0.031
Mof_C 	C 	0.8967	0.81897	0.5054	0.001
Mof_H 	H 	0.869	0.8513	0.505	-0
Mof_C 	C 	0.8968	0.72614	0.4974	0.006
Mof_H 	H 	0.8695	0.6936	0.4939	-0.004
Mof_C 	C 	0.9776	0.72515	0.499	0.008
Mof_H 	H 	0.004	0.6924	0.4941	0.022
Mof_C 	C 	0.3733	0.58667	0.6838	0.408
Mof_C 	C 	0.4584	0.57084	0.6651	-0.084
Mof_C 	C 	0.506	0.54937	0.8219	-0.054
Mof_H 	H 	0.487	0.5462	0.9453	0.048
Mof_C 	C 	0.5815	0.53262	0.7967	0.027
Mof_H 	H 	0.6119	0.5174	0.9043	0
Mof_C 	C 	0.5677	0.55959	0.4728	0.027
Mof_H 	H 	0.5891	0.5642	0.3529	-0.004
Mof_C 	C 	0.491	0.57614	0.4861	-0.042
Mof_H 	H 	0.4613	0.5907	0.3763	0.047
Mof_C 	C 	0.35459	0.77296	0.5869	0.551
Mof_C 	C 	0.44112	0.7729	0.5531	-0.155
Mof_C 	C 	0.483	0.82057	0.5425	-0.006
Mof_H 	H 	0.4575	0.8536	0.5488	0.039
Mof_C 	C 	0.5626	0.81848	0.5227	0.004
Mof_H 	H 	0.5898	0.8508	0.5128	0
Mof_C 	C 	0.5619	0.72601	0.5248	0.003
Mof_H 	H 	0.5886	0.6934	0.5194	-0.002
Mof_C 	C 	0.4818	0.72512	0.5406	0.012
Mof_H 	H 	0.4552	0.6924	0.5428	0.018
Mof_Pr	Pr	0.76929	0.16213	0.1176	2.811
Mof_Ag	Ag	0.2706	0.27129	0.99019	0.409
Mof_Ag	Ag	0.26512	0.01054	0.9034	0.453
Mof_N 	N 	0.14913	0.02911	0.0008	-0.194
Mof_N 	N 	0.14433	0.27221	0.9992	-0.183
Mof_N 	N 	0.38684	0.03713	0.8752	-0.184
Mof_N 	N 	0.39683	0.27207	0.9833	-0.184
Mof_O 	O 	0.8853	0.10646	0.1021	-0.59
Mof_O 	O 	0.91319	0.05666	0.374	-0.322
Mof_O 	O 	0.86177	0.23028	0.042	-0.678
Mof_O 	O 	0.85441	0.31468	0.9313	-0.591
Mof_O 	O 	0.6656	0.10208	0.9729	-0.598
Mof_O 	O 	0.65025	0.08336	0.6491	-0.357
Mof_O 	O 	0.68314	0.23056	0.9511	-0.658
Mof_O 	O 	0.67202	0.3156	0.8455	-0.613
Mof_O 	O 	0.75918	0.07809	0.3376	-0.921
Mof_H 	H 	0.7608	0.0468	0.2871	0.317
Mof_H 	H 	0.7543	0.0816	0.4605	0.384
Mof_C 	C 	0.9289	0.07562	0.2135	0.41
Mof_C 	C 	0.0078	0.06064	0.1414	-0.065
Mof_C 	C 	0.0265	0.07669	0.9555	-0.052
Mof_H 	H 	0.9917	0.0982	0.8754	0.051
Mof_C 	C 	0.0971	0.06045	0.8909	0.034
Mof_H 	H 	0.1092	0.0716	0.7666	-0.003
Mof_C 	C 	0.1302	0.01363	0.1793	0.051
Mof_H 	H 	0.1653	0.9915	0.256	-0.02
Mof_C 	C 	0.0614	0.02885	0.2545	-0.075
Mof_H 	H 	0.0511	0.0178	0.3804	0.071
Mof_C 	C 	0.89166	0.27273	0.9864	0.552
Mof_C 	C 	0.98032	0.2732	0.9921	-0.146
Mof_C 	C 	0.0228	0.32071	0.9894	-0.009
Mof_H 	H 	0.9966	0.3537	0.984	0.036
Mof_C 	C 	0.1033	0.31897	0.9946	0.006
Mof_H 	H 	0.131	0.3513	0.995	-0.002
Mof_C 	C 	0.1032	0.22614	0.0026	0.005
Mof_H 	H 	0.1305	0.1936	0.0061	-0.004
Mof_C 	C 	0.0224	0.22515	0.001	0.003
Mof_H 	H 	0.996	0.1924	0.0059	0.022
Mof_C 	C 	0.6267	0.08667	0.8162	0.405
Mof_C 	C 	0.5416	0.07084	0.8349	-0.077
Mof_C 	C 	0.494	0.04937	0.6781	-0.058
Mof_H 	H 	0.513	0.0462	0.5547	0.05
Mof_C 	C 	0.4185	0.03262	0.7033	0.031
Mof_H 	H 	0.3881	0.0174	0.5957	-0.001
Mof_C 	C 	0.4323	0.05959	0.0272	0.03
Mof_H 	H 	0.4109	0.0642	0.1471	-0.005
Mof_C 	C 	0.509	0.07614	0.0139	-0.05
Mof_H 	H 	0.5387	0.0907	0.1237	0.048
Mof_C 	C 	0.64541	0.27296	0.9131	0.551
Mof_C 	C 	0.55888	0.2729	0.9469	-0.151
Mof_C 	C 	0.517	0.32057	0.9575	-0.006
Mof_H 	H 	0.5425	0.3536	0.9512	0.041
Mof_C 	C 	0.4374	0.31848	0.9773	0.006
Mof_H 	H 	0.4102	0.3508	0.9872	0
Mof_C 	C 	0.4381	0.22601	0.9752	0.005
Mof_H 	H 	0.4114	0.1934	0.9806	-0.001
Mof_C 	C 	0.5182	0.22512	0.9594	0.012
Mof_H 	H 	0.5448	0.1924	0.9572	0.02
Mof_Pr	Pr	0.76929	0.33787	0.6176	2.826
Mof_Ag	Ag	0.2706	0.22871	0.49019	0.403
Mof_Ag	Ag	0.26512	0.48946	0.4034	0.454
Mof_N 	N 	0.14913	0.47089	0.5008	-0.195
Mof_N 	N 	0.14433	0.22779	0.4992	-0.183
Mof_N 	N 	0.38684	0.46287	0.3752	-0.184
Mof_N 	N 	0.39683	0.22793	0.4833	-0.184
Mof_O 	O 	0.8853	0.39354	0.6021	-0.591
Mof_O 	O 	0.91319	0.44334	0.874	-0.322
Mof_O 	O 	0.86177	0.26972	0.542	-0.672
Mof_O 	O 	0.85441	0.18532	0.4313	-0.589
Mof_O 	O 	0.6656	0.39792	0.4729	-0.604
Mof_O 	O 	0.65025	0.41664	0.1491	-0.361
Mof_O 	O 	0.68314	0.26944	0.4511	-0.664
Mof_O 	O 	0.67202	0.1844	0.3455	-0.614
Mof_O 	O 	0.75918	0.42191	0.8376	-0.923
Mof_H 	H 	0.7608	0.4532	0.7871	0.318
Mof_H 	H 	0.7543	0.4184	0.9605	0.385
Mof_C 	C 	0.9289	0.42438	0.7135	0.412
Mof_C 	C 	0.0078	0.43936	0.6414	-0.068
Mof_C 	C 	0.0265	0.42331	0.4555	-0.049
Mof_H 	H 	0.9917	0.4018	0.3754	0.046
Mof_C 	C 	0.0971	0.43955	0.3909	0.033
Mof_H 	H 	0.1092	0.4284	0.2666	-0.004
Mof_C 	C 	0.1302	0.48637	0.6793	0.051
Mof_H 	H 	0.1653	0.5085	0.756	-0.022
Mof_C 	C 	0.0614	0.47115	0.7545	-0.074
Mof_H 	H 	0.0511	0.4822	0.8804	0.07
Mof_C 	C 	0.89166	0.22727	0.4864	0.545
Mof_C 	C 	0.98032	0.2268	0.4921	-0.155
Mof_C 	C 	0.0228	0.17929	0.4894	0
Mof_H 	H 	0.9966	0.1463	0.484	0.031
Mof_C 	C 	0.1033	0.18103	0.4946	0.001
Mof_H 	H 	0.131	0.1487	0.495	-0
Mof_C 	C 	0.1032	0.27386	0.5026	0.006
Mof_H 	H 	0.1305	0.3064	0.5061	-0.004
Mof_C 	C 	0.0224	0.27485	0.501	0.008
Mof_H 	H 	0.996	0.3076	0.5059	0.022
Mof_C 	C 	0.6267	0.41333	0.3162	0.408
Mof_C 	C 	0.5416	0.42916	0.3349	-0.084
Mof_C 	C 	0.494	0.45063	0.1781	-0.054
Mof_H 	H 	0.513	0.4538	0.0547	0.048
Mof_C 	C 	0.4185	0.46738	0.2033	0.027
Mof_H 	H 	0.3881	0.4826	0.0957	0
Mof_C 	C 	0.4323	0.44041	0.5272	0.027
Mof_H 	H 	0.4109	0.4358	0.6471	-0.004
Mof_C 	C 	0.509	0.42386	0.5139	-0.042
Mof_H 	H 	0.5387	0.4093	0.6237	0.047
Mof_C 	C 	0.64541	0.22704	0.4131	0.551
Mof_C 	C 	0.55888	0.2271	0.4469	-0.155
Mof_C 	C 	0.517	0.17943	0.4575	-0.006
Mof_H 	H 	0.5425	0.1464	0.4512	0.039
Mof_C 	C 	0.4374	0.18152	0.4773	0.004
Mof_H 	H 	0.4102	0.1492	0.4872	0
Mof_C 	C 	0.4381	0.27399	0.4752	0.003
Mof_H 	H 	0.4114	0.3066	0.4806	-0.002
Mof_C 	C 	0.5182	0.27488	0.4594	0.012
Mof_H 	H 	0.5448	0.3076	0.4572	0.018
Mof_Pr	Pr	0.23071	0.83787	0.8824	2.811
Mof_Ag	Ag	0.7294	0.72871	0.00981	0.409
Mof_Ag	Ag	0.73488	0.98946	0.0966	0.453
Mof_N 	N 	0.85087	0.97089	0.9992	-0.194
Mof_N 	N 	0.85567	0.72779	0.0008	-0.183
Mof_N 	N 	0.61316	0.96287	0.1248	-0.184
Mof_N 	N 	0.60317	0.72793	0.0167	-0.184
Mof_O 	O 	0.1147	0.89354	0.8979	-0.59
Mof_O 	O 	0.08681	0.94334	0.626	-0.322
Mof_O 	O 	0.13823	0.76972	0.958	-0.678
Mof_O 	O 	0.14559	0.68532	0.0687	-0.591
Mof_O 	O 	0.3344	0.89792	0.0271	-0.598
Mof_O 	O 	0.34975	0.91664	0.3509	-0.357
Mof_O 	O 	0.31686	0.76944	0.0489	-0.658
Mof_O 	O 	0.32798	0.6844	0.1545	-0.613
Mof_O 	O 	0.24082	0.92191	0.6624	-0.921
Mof_H 	H 	0.2392	0.9532	0.7129	0.317
Mof_H 	H 	0.2457	0.9184	0.5395	0.384
Mof_C 	C 	0.0711	0.92438	0.7865	0.41
Mof_C 	C 	0.9922	0.93936	0.8586	-0.065
Mof_C 	C 	0.9735	0.92331	0.0445	-0.052
Mof_H 	H 	0.0083	0.9018	0.1246	0.051
Mof_C 	C 	0.9029	0.93955	0.1091	0.034
Mof_H 	H 	0.8908	0.9284	0.2334	-0.003
Mof_C 	C 	0.8698	0.98637	0.8207	0.051
Mof_H 	H 	0.8347	0.0085	0.744	-0.02
Mof_C 	C 	0.9386	0.97115	0.7455	-0.075
Mof_H 	H 	0.9489	0.9822	0.6196	0.071
Mof_C 	C 	0.10834	0.72727	0.0136	0.552
Mof_C 	C 	0.01968	0.7268	0.0079	-0.146
Mof_C 	C 	0.9772	0.67929	0.0106	-0.009
Mof_H 	H 	0.0034	0.6463	0.016	0.036
Mof_C 	C 	0.8967	0.68103	0.0054	0.006
Mof_H 	H 	0.869	0.6487	0.005	-0.002
Mof_C 	C 	0.8968	0.77386	0.9974	0.005
Mof_H 	H 	0.8695	0.8064	0.9939	-0.004
Mof_C 	C 	0.9776	0.77485	0.999	0.003
Mof_H 	H 	0.004	0.8076	0.9941	0.022
Mof_C 	C 	0.3733	0.91333	0.1838	0.405
Mof_C 	C 	0.4584	0.92916	0.1651	-0.077
Mof_C 	C 	0.506	0.95063	0.3219	-0.058
Mof_H 	H 	0.487	0.9538	0.4453	0.05
Mof_C 	C 	0.5815	0.96738	0.2967	0.031
Mof_H 	H 	0.6119	0.9826	0.4043	-0.001
Mof_C 	C 	0.5677	0.94041	0.9728	0.03
Mof_H 	H 	0.5891	0.9358	0.8529	-0.005
Mof_C 	C 	0.491	0.92386	0.9861	-0.05
Mof_H 	H 	0.4613	0.9093	0.8763	0.048
Mof_C 	C 	0.35459	0.72704	0.0869	0.551
Mof_C 	C 	0.44112	0.7271	0.0531	-0.151
Mof_C 	C 	0.483	0.67943	0.0425	-0.006
Mof_H 	H 	0.4575	0.6464	0.0488	0.041
Mof_C 	C 	0.5626	0.68152	0.0227	0.006
Mof_H 	H 	0.5898	0.6492	0.0128	0
Mof_C 	C 	0.5619	0.77399	0.0248	0.005
Mof_H 	H 	0.5886	0.8066	0.0194	-0.001
Mof_C 	C 	0.4818	0.77488	0.0406	0.012
Mof_H 	H 	0.4552	0.8076	0.0428	0.02
_end
