data_functionalizedCrystal
_audit_creation_method	'EQeq! by Chris Wilmer'
_symmetry_space_group_name_H-M	'P1'
_symmetry_Int_Tables_number	1
_symmetry_cell_setting	triclinic
loop_
_symmetry_equiv_pos_as_xyz
  x,y,z
_cell_length_a	9.8035
_cell_length_b	10.9423
_cell_length_c	19.4289
_cell_angle_alpha	85.596
_cell_angle_beta	75.686
_cell_angle_gamma	63.622
loop_
_atom_site_label
_atom_site_type_symbol
_atom_site_fract_x
_atom_site_fract_y
_atom_site_fract_z
_atom_site_charge
Mof_Nd	Nd	0.71004	0.02729	0.50041	2.453
Mof_Nd	Nd	0.24949	0.4803	0.99082	2.438
Mof_S 	S 	0.299	0.5263	0.46973	0.069
Mof_S 	S 	0.3377	0.2228	0.76153	0.07
Mof_S 	S 	0.7044	0.9836	0.96794	0.094
Mof_O 	O 	0.533	0.1132	0.6192	-0.551
Mof_O 	O 	0.4923	0.2792	0.9885	-0.612
Mof_O 	O 	0.2342	0.3412	0.9039	-0.584
Mof_O 	O 	0.3145	0.1695	0.4483	-0.613
Mof_O 	O 	0.9808	0.884	0.4364	-0.61
Mof_O 	O 	0.1988	0.8151	0.4759	-0.631
Mof_O 	O 	0.0888	0.642	0.9193	-0.607
Mof_O 	O 	0.4821	0.2306	0.48	-0.581
Mof_O 	O 	0.9865	0.371	0.9269	-0.62
Mof_O 	O 	0.8368	0.6816	0.9422	-0.576
Mof_C 	C 	0.1019	0.7933	0.4533	0.504
Mof_C 	C 	0.9443	0.7194	0.9325	0.519
Mof_C 	C 	0.0579	0.5928	0.4188	0.01
Mof_H 	H 	0.9678	0.6439	0.4025	0.013
Mof_C 	C 	0.1555	0.2688	0.8172	-0.178
Mof_C 	C 	0.8971	0.8685	0.9365	-0.18
Mof_C 	C 	0.4021	0.112	0.626	0.511
Mof_C 	C 	0.631	0.2581	0.9841	0.526
Mof_C 	C 	0.129	0.4488	0.4196	0.005
Mof_H 	H 	0.0915	0.3941	0.404	0.014
Mof_C 	C 	0.2603	0.3993	0.4463	-0.167
Mof_C 	C 	0.1363	0.6491	0.4446	-0.182
Mof_C 	C 	0.3608	0.2546	0.4594	0.515
Mof_C 	C 	0.2869	0.1672	0.6963	-0.16
Mof_C 	C 	0.1353	0.183	0.7171	-0.005
Mof_H 	H 	0.088	0.1571	0.6888	0.013
Mof_C 	C 	0.7545	0.1173	0.9617	-0.175
Mof_C 	C 	0.0589	0.2428	0.7863	0.015
Mof_H 	H 	0.9555	0.2622	0.8083	0.001
Mof_C 	C 	0.1218	0.3324	0.8882	0.531
Mof_O 	O 	0.6722	0.3458	0.9967	-0.665
Mof_C 	C 	0.9937	0.932	0.9209	0.051
Mof_H 	H 	0.1015	0.8861	0.9026	-0.004
Mof_C 	C 	0.9126	0.0744	0.9354	-0.018
Mof_H 	H 	0.9607	0.1324	0.928	0.03
Mof_O 	O 	0.3625	0.0662	0.5824	-0.659
Mof_Nd	Nd	0.28996	0.97271	0.49959	2.452
Mof_Nd	Nd	0.75051	0.5197	0.00918	2.437
Mof_S 	S 	0.701	0.4737	0.53027	0.068
Mof_S 	S 	0.6623	0.7772	0.23847	0.069
Mof_S 	S 	0.2956	0.0164	0.03206	0.093
Mof_O 	O 	0.467	0.8868	0.3808	-0.552
Mof_O 	O 	0.5077	0.7208	0.0115	-0.613
Mof_O 	O 	0.7658	0.6588	0.0961	-0.585
Mof_O 	O 	0.6855	0.8305	0.5517	-0.613
Mof_O 	O 	0.0192	0.116	0.5636	-0.61
Mof_O 	O 	0.8012	0.1849	0.5241	-0.631
Mof_O 	O 	0.9112	0.358	0.0807	-0.607
Mof_O 	O 	0.5179	0.7694	0.52	-0.581
Mof_O 	O 	0.0135	0.629	0.0731	-0.62
Mof_O 	O 	0.1632	0.3184	0.0578	-0.576
Mof_C 	C 	0.8981	0.2067	0.5467	0.504
Mof_C 	C 	0.0557	0.2806	0.0675	0.519
Mof_C 	C 	0.9421	0.4072	0.5812	0.01
Mof_H 	H 	0.0322	0.3561	0.5975	0.013
Mof_C 	C 	0.8445	0.7312	0.1828	-0.178
Mof_C 	C 	0.1029	0.1315	0.0635	-0.18
Mof_C 	C 	0.5979	0.888	0.374	0.511
Mof_C 	C 	0.369	0.7419	0.0159	0.526
Mof_C 	C 	0.871	0.5512	0.5804	0.005
Mof_H 	H 	0.9085	0.6059	0.596	0.014
Mof_C 	C 	0.7397	0.6007	0.5537	-0.167
Mof_C 	C 	0.8637	0.3509	0.5554	-0.182
Mof_C 	C 	0.6392	0.7454	0.5406	0.515
Mof_C 	C 	0.7131	0.8328	0.3037	-0.16
Mof_C 	C 	0.8647	0.817	0.2829	-0.005
Mof_H 	H 	0.912	0.8429	0.3112	0.013
Mof_C 	C 	0.2455	0.8827	0.0383	-0.175
Mof_C 	C 	0.9411	0.7572	0.2137	0.015
Mof_H 	H 	0.0445	0.7378	0.1917	0.001
Mof_C 	C 	0.8782	0.6676	0.1118	0.531
Mof_O 	O 	0.3278	0.6542	0.0033	-0.665
Mof_C 	C 	0.0063	0.068	0.0791	0.051
Mof_H 	H 	0.8985	0.1139	0.0974	-0.004
Mof_C 	C 	0.0874	0.9256	0.0646	-0.018
Mof_H 	H 	0.0393	0.8676	0.072	0.03
Mof_O 	O 	0.6375	0.9338	0.4176	-0.659
_end
