data_functionalizedCrystal
_audit_creation_method	'EQeq! by Chris Wilmer'
_symmetry_space_group_name_H-M	'P1'
_symmetry_Int_Tables_number	1
_symmetry_cell_setting	triclinic
loop_
_symmetry_equiv_pos_as_xyz
  x,y,z
_cell_length_a	11.9807
_cell_length_b	5.2345
_cell_length_c	21.796
_cell_angle_alpha	90
_cell_angle_beta	99.274
_cell_angle_gamma	90
loop_
_atom_site_label
_atom_site_type_symbol
_atom_site_fract_x
_atom_site_fract_y
_atom_site_fract_z
_atom_site_charge
Mof_Na	Na	0.5893	0.694	0.0291	2.065
Mof_Na	Na	0.3229	0.723	0.0685	2.386
Mof_Na	Na	0.1104	0.17	0.968	2.09
Mof_Na	Na	0.1576	0.776	0.1897	2.942
Mof_O 	O 	0.4875	0.99	0.0722	-0.944
Mof_O 	O 	0.2605	0.897	0.9681	-1.113
Mof_O 	O 	0.2546	0.475	0.966	-1.061
Mof_O 	O 	0.4678	0.42	0.077	-1.08
Mof_O 	O 	0.2105	0.479	0.1254	-1.184
Mof_N 	N 	0.374	0.316	0.2531	-0.27
Mof_H 	H 	0.3855	0.1661	0.2715	0.072
Mof_O 	O 	0.334	0.73	0.2654	-0.54
Mof_O 	O 	0.2533	0.043	0.1315	-1.227
Mof_N 	N 	0.2348	0.493	0.7709	-0.257
Mof_H 	H 	0.2319	0.646	0.7541	0.169
Mof_O 	O 	0.0203	0.308	0.0518	-1.07
Mof_H 	H 	0.0799	0.3537	0.0871	0.094
Mof_H 	H 	0.9781	0.1612	0.0653	-0.01
Mof_C 	C 	0.318	0.402	0.5477	-0.019
Mof_C 	C 	0.249	0.701	0.9393	0.611
Mof_C 	C 	0.396	0.282	0.3905	-0.056
Mof_H 	H 	0.4395	0.1601	0.3724	0.105
Mof_C 	C 	0.327	0.42	0.4811	0.021
Mof_C 	C 	0.4784	0.208	0.1007	0.398
Mof_C 	C 	0.283	0.345	0.6741	-0.064
Mof_C 	C 	0.348	0.511	0.2856	0.197
Mof_C 	C 	0.479	0.184	0.171	-0.246
Mof_H 	H 	0.4709	0.0026	0.1822	-0.042
Mof_H 	H 	0.5522	0.2474	0.1939	0.064
Mof_C 	C 	0.344	0.468	0.3537	-0.107
Mof_C 	C 	0.225	0.719	0.8685	-0.461
Mof_H 	H 	0.2902	0.8066	0.8545	0.152
Mof_H 	H 	0.158	0.8286	0.8566	0.107
Mof_C 	C 	0.385	0.336	0.1882	-0.123
Mof_H 	H 	0.4028	0.519	0.181	-0.069
Mof_C 	C 	0.266	0.292	0.7374	0.225
Mof_O 	O 	0.308	0.074	0.766	-0.18
Mof_C 	C 	0.389	0.259	0.4516	-0.088
Mof_H 	H 	0.4298	0.1245	0.4747	0.048
Mof_O 	O 	0.025	0.366	0.8776	-0.904
Mof_C 	C 	0.277	0.635	0.3834	0.03
Mof_H 	H 	0.2353	0.7647	0.3594	-0.031
Mof_C 	C 	0.27	0.275	0.1433	0.454
Mof_C 	C 	0.27	0.618	0.445	-0.112
Mof_H 	H 	0.2272	0.7401	0.4636	0.068
Mof_C 	C 	0.206	0.466	0.8336	0.107
Mof_H 	H 	0.2468	0.3217	0.8572	-0.126
Mof_O 	O 	0.005	0.449	0.7752	-0.624
Mof_C 	C 	0.277	0.596	0.582	0.562
Mof_H 	H 	0.2585	0.7539	0.5613	-0.148
Mof_C 	C 	0.329	0.149	0.642	1.582
Mof_H 	H 	0.3522	0.9957	0.6632	-0.305
Mof_C 	C 	0.26	0.578	0.644	1.012
Mof_H 	H 	0.2331	0.7201	0.6642	-0.285
Mof_C 	C 	0.342	0.169	0.579	2.171
Mof_H 	H 	0.3677	0.0265	0.558	-0.699
Mof_C 	C 	0.071	0.433	0.8261	0.255
Mof_C 	C 	0.392	0.252	0.589	-2.17
Mof_H 	H 	0.4549	0.1712	0.5757	0.668
Mof_C 	C 	0.228	0.522	0.57	-0.582
Mof_H 	H 	0.1809	0.6368	0.5438	0.175
Mof_C 	C 	0.206	0.475	0.63	-1.094
Mof_H 	H 	0.1375	0.5336	0.6413	0.341
Mof_C 	C 	0.372	0.22	0.65	-1.798
Mof_H 	H 	0.4206	0.1147	0.6771	0.504
Mof_O 	O 	0.246	0.082	0.755	-0.259
Mof_Na	Na	0.4107	0.194	0.9709	1.357
Mof_Na	Na	0.6771	0.223	0.9315	1.584
Mof_Na	Na	0.8896	0.67	0.032	2.572
Mof_Na	Na	0.8424	0.276	0.8103	2.341
Mof_O 	O 	0.5125	0.49	0.9278	-0.996
Mof_O 	O 	0.7395	0.397	0.0319	-1.281
Mof_O 	O 	0.7454	0.975	0.034	-0.998
Mof_O 	O 	0.5322	0.92	0.923	-0.867
Mof_O 	O 	0.7895	0.979	0.8746	-0.854
Mof_N 	N 	0.626	0.816	0.7469	-0.139
Mof_H 	H 	0.6145	0.6661	0.7285	0.077
Mof_O 	O 	0.666	0.23	0.7346	-0.45
Mof_O 	O 	0.7467	0.543	0.8685	-0.938
Mof_N 	N 	0.7652	0.993	0.2291	-0.137
Mof_H 	H 	0.7681	0.146	0.2459	0.007
Mof_O 	O 	0.9797	0.808	0.9482	-0.998
Mof_H 	H 	0.9201	0.8537	0.9129	0.155
Mof_H 	H 	0.0219	0.6612	0.9347	0.084
Mof_C 	C 	0.682	0.902	0.4523	0.348
Mof_C 	C 	0.751	0.201	0.0607	0.493
Mof_C 	C 	0.604	0.782	0.6095	-0.382
Mof_H 	H 	0.5605	0.6601	0.6276	0.215
Mof_C 	C 	0.673	0.92	0.5189	-0.092
Mof_C 	C 	0.5216	0.708	0.8993	0.564
Mof_C 	C 	0.717	0.845	0.3259	-0.133
Mof_C 	C 	0.652	0.011	0.7144	-0.245
Mof_C 	C 	0.521	0.684	0.829	-0.481
Mof_H 	H 	0.5291	0.5026	0.8178	0.105
Mof_H 	H 	0.4478	0.7474	0.8061	0.195
Mof_C 	C 	0.656	0.968	0.6463	0.505
Mof_C 	C 	0.775	0.219	0.1315	-0.603
Mof_H 	H 	0.7098	0.3066	0.1455	0.107
Mof_H 	H 	0.842	0.3286	0.1434	0.04
Mof_C 	C 	0.615	0.836	0.8118	0.263
Mof_H 	H 	0.5972	0.019	0.819	-0.283
Mof_C 	C 	0.734	0.792	0.2626	0.29
Mof_O 	O 	0.692	0.574	0.234	-0.062
Mof_C 	C 	0.611	0.759	0.5484	0.209
Mof_H 	H 	0.5702	0.6245	0.5253	-0.017
Mof_O 	O 	0.975	0.866	0.1224	-0.943
Mof_C 	C 	0.723	0.135	0.6166	-0.468
Mof_H 	H 	0.7647	0.2647	0.6406	0.104
Mof_C 	C 	0.73	0.775	0.8567	0.333
Mof_C 	C 	0.73	0.118	0.555	0.012
Mof_H 	H 	0.7728	0.2401	0.5364	-0.04
Mof_C 	C 	0.794	0.966	0.1664	0.25
Mof_H 	H 	0.7532	0.8217	0.1428	-0.156
Mof_O 	O 	0.995	0.949	0.2248	-0.661
Mof_C 	C 	0.723	0.096	0.418	-0.888
Mof_H 	H 	0.7415	0.2539	0.4387	0.217
Mof_C 	C 	0.671	0.649	0.358	2.588
Mof_H 	H 	0.6478	0.4957	0.3368	-0.771
Mof_C 	C 	0.74	0.078	0.356	0.73
Mof_H 	H 	0.7669	0.2201	0.3358	-0.251
Mof_C 	C 	0.658	0.669	0.421	3.694
Mof_H 	H 	0.6323	0.5265	0.442	-1.091
Mof_C 	C 	0.929	0.933	0.1739	0.276
Mof_C 	C 	0.608	0.752	0.411	-3.876
Mof_H 	H 	0.5451	0.6712	0.4243	1.252
Mof_C 	C 	0.772	0.022	0.43	0.428
Mof_H 	H 	0.8191	0.1368	0.4562	-0.19
Mof_C 	C 	0.794	0.975	0.37	-0.464
Mof_H 	H 	0.8625	0.0336	0.3587	-0.012
Mof_C 	C 	0.628	0.72	0.35	-2.532
Mof_H 	H 	0.5794	0.6147	0.3229	0.868
Mof_O 	O 	0.754	0.582	0.245	-0.291
_end
