data_functionalizedCrystal
_audit_creation_method	'EQeq! by Chris Wilmer'
_symmetry_space_group_name_H-M	'P1'
_symmetry_Int_Tables_number	1
_symmetry_cell_setting	triclinic
loop_
_symmetry_equiv_pos_as_xyz
  x,y,z
_cell_length_a	15.802
_cell_length_b	23.455
_cell_length_c	18.506
_cell_angle_alpha	90
_cell_angle_beta	105.896
_cell_angle_gamma	90
loop_
_atom_site_label
_atom_site_type_symbol
_atom_site_fract_x
_atom_site_fract_y
_atom_site_fract_z
_atom_site_charge
Mof_Mn	Mn	0.60168	0.56996	0.84232	0.553
Mof_Mn	Mn	0.1007	0.7096	0.90401	0.543
Mof_N 	N 	0.5603	0.6417	0.7585	-0.189
Mof_N 	N 	0.4818	0.7148	0.7024	-0.164
Mof_N 	N 	0.1583	0.772	0.8379	-0.198
Mof_N 	N 	0.2324	0.8011	0.7591	-0.165
Mof_N 	N 	0.2098	0.8774	0.4145	-0.199
Mof_N 	N 	0.2857	0.8322	0.5151	-0.165
Mof_N 	N 	0.4891	0.5122	0.7885	-0.196
Mof_N 	N 	0.3533	0.4809	0.7429	-0.164
Mof_N 	N 	0.0611	0.6478	0.807	-0.191
Mof_N 	N 	0.0792	0.5718	0.7423	-0.167
Mof_N 	N 	0.0588	0.361	0.4689	-0.197
Mof_N 	N 	0.087	0.4303	0.5523	-0.155
Mof_C 	C 	0.3867	0.7766	0.6109	-0.275
Mof_H 	H 	0.4192	0.7688	0.5771	0.124
Mof_C 	C 	0.4107	0.7535	0.6826	0.224
Mof_C 	C 	0.3632	0.7648	0.733	-0.287
Mof_H 	H 	0.3818	0.7509	0.7819	0.127
Mof_C 	C 	0.2881	0.797	0.7102	0.22
Mof_C 	C 	0.2615	0.8214	0.639	-0.279
Mof_H 	H 	0.2108	0.8434	0.6243	0.124
Mof_C 	C 	0.3132	0.8117	0.5907	0.216
Mof_C 	C 	0.5424	0.7015	0.6635	0
Mof_H 	H 	0.5491	0.7197	0.6207	0.012
Mof_C 	C 	0.5894	0.6578	0.6991	0.003
Mof_H 	H 	0.6357	0.6406	0.6852	0.006
Mof_C 	C 	0.4974	0.6769	0.7599	0.109
Mof_H 	H 	0.4666	0.6762	0.7961	-0.03
Mof_C 	C 	0.3101	0.8113	0.4545	0.004
Mof_H 	H 	0.351	0.7826	0.4554	0.013
Mof_C 	C 	0.2649	0.8393	0.3947	-0.001
Mof_H 	H 	0.2698	0.834	0.3462	0.012
Mof_C 	C 	0.2201	0.8686	0.4848	0.112
Mof_H 	H 	0.1856	0.8857	0.512	-0.038
Mof_C 	C 	0.2193	0.7601	0.8049	0.107
Mof_H 	H 	0.2508	0.7261	0.8126	-0.027
Mof_C 	C 	0.1746	0.8436	0.7632	-0.005
Mof_H 	H 	0.1669	0.8783	0.7379	0.016
Mof_C 	C 	0.1311	0.8245	0.8117	-0
Mof_H 	H 	0.0875	0.845	0.8255	0.001
Mof_C 	C 	0.2199	0.4529	0.6498	-0.27
Mof_H 	H 	0.2517	0.4277	0.6286	0.121
Mof_C 	C 	0.2601	0.4841	0.7141	0.217
Mof_C 	C 	0.2138	0.5207	0.7464	-0.283
Mof_H 	H 	0.2414	0.5393	0.791	0.125
Mof_C 	C 	0.1256	0.5296	0.7122	0.218
Mof_C 	C 	0.082	0.4996	0.6484	-0.274
Mof_H 	H 	0.0222	0.5052	0.6263	0.124
Mof_C 	C 	0.1295	0.4613	0.6184	0.21
Mof_C 	C 	0.4066	0.5242	0.7771	0.104
Mof_H 	H 	0.3861	0.5586	0.7909	-0.026
Mof_C 	C 	0.4908	0.4579	0.7609	-0.009
Mof_H 	H 	0.5415	0.4374	0.762	0.008
Mof_C 	C 	0.409	0.4389	0.7324	0.002
Mof_H 	H 	0.3927	0.4038	0.7096	0.016
Mof_C 	C 	0.1165	0.6101	0.7953	0.11
Mof_H 	H 	0.176	0.6098	0.8211	-0.031
Mof_C 	C 	0.983	0.6334	0.7588	0.014
Mof_H 	H 	0.9305	0.6529	0.754	0.007
Mof_C 	C 	0.9915	0.5866	0.7183	0.002
Mof_H 	H 	0.9475	0.5683	0.6819	0.02
Mof_C 	C 	0.1121	0.3785	0.5336	0.092
Mof_H 	H 	0.16	0.358	0.5621	-0.028
Mof_C 	C 	0.9983	0.4042	0.4463	0.037
Mof_H 	H 	0.9531	0.4043	0.4018	0.008
Mof_C 	C 	0.0142	0.4467	0.4984	-0.031
Mof_H 	H 	0.9819	0.48	0.4973	0.039
Mof_Mn	Mn	0.10168	0.06996	0.84232	0.546
Mof_Mn	Mn	0.6007	0.2096	0.90401	0.546
Mof_N 	N 	0.0603	0.1417	0.7585	-0.195
Mof_N 	N 	0.9818	0.2148	0.7024	-0.163
Mof_N 	N 	0.6583	0.272	0.8379	-0.199
Mof_N 	N 	0.7324	0.3011	0.7591	-0.166
Mof_N 	N 	0.7098	0.3774	0.4145	-0.2
Mof_N 	N 	0.7857	0.3322	0.5151	-0.166
Mof_N 	N 	0.9891	0.0122	0.7885	-0.197
Mof_N 	N 	0.8533	0.9809	0.7429	-0.163
Mof_N 	N 	0.5611	0.1478	0.807	-0.188
Mof_N 	N 	0.5792	0.0718	0.7423	-0.163
Mof_N 	N 	0.5588	0.861	0.4689	-0.19
Mof_N 	N 	0.587	0.9303	0.5523	-0.161
Mof_C 	C 	0.8867	0.2766	0.6109	-0.276
Mof_H 	H 	0.9192	0.2688	0.5771	0.126
Mof_C 	C 	0.9107	0.2535	0.6826	0.226
Mof_C 	C 	0.8632	0.2648	0.733	-0.288
Mof_H 	H 	0.8818	0.2509	0.7819	0.128
Mof_C 	C 	0.7881	0.297	0.7102	0.221
Mof_C 	C 	0.7615	0.3214	0.639	-0.279
Mof_H 	H 	0.7108	0.3434	0.6243	0.125
Mof_C 	C 	0.8132	0.3117	0.5907	0.218
Mof_C 	C 	0.0424	0.2015	0.6635	-0.01
Mof_H 	H 	0.0491	0.2197	0.6207	0.013
Mof_C 	C 	0.0894	0.1578	0.6991	0.006
Mof_H 	H 	0.1357	0.1406	0.6852	0.004
Mof_C 	C 	0.9974	0.1769	0.7599	0.119
Mof_H 	H 	0.9666	0.1762	0.7961	-0.032
Mof_C 	C 	0.8101	0.3113	0.4545	0.005
Mof_H 	H 	0.851	0.2826	0.4554	0.014
Mof_C 	C 	0.7649	0.3393	0.3947	0
Mof_H 	H 	0.7698	0.334	0.3462	0.013
Mof_C 	C 	0.7201	0.3686	0.4848	0.113
Mof_H 	H 	0.6856	0.3857	0.512	-0.037
Mof_C 	C 	0.7193	0.2601	0.8049	0.108
Mof_H 	H 	0.7508	0.2261	0.8126	-0.026
Mof_C 	C 	0.6746	0.3436	0.7632	-0.004
Mof_H 	H 	0.6669	0.3783	0.7379	0.016
Mof_C 	C 	0.6311	0.3245	0.8117	0
Mof_H 	H 	0.5875	0.345	0.8255	0.003
Mof_C 	C 	0.7199	0.9529	0.6498	-0.271
Mof_H 	H 	0.7517	0.9277	0.6286	0.123
Mof_C 	C 	0.7601	0.9841	0.7141	0.218
Mof_C 	C 	0.7138	0.0207	0.7464	-0.284
Mof_H 	H 	0.7414	0.0393	0.791	0.126
Mof_C 	C 	0.6256	0.0296	0.7122	0.22
Mof_C 	C 	0.582	0.9996	0.6484	-0.276
Mof_H 	H 	0.5222	0.0052	0.6263	0.127
Mof_C 	C 	0.6295	0.9613	0.6184	0.214
Mof_C 	C 	0.9066	0.0242	0.7771	0.105
Mof_H 	H 	0.8861	0.0586	0.7909	-0.025
Mof_C 	C 	0.9908	0.9579	0.7609	0.01
Mof_H 	H 	0.0415	0.9374	0.762	-0.003
Mof_C 	C 	0.909	0.9389	0.7324	-0.007
Mof_H 	H 	0.8927	0.9038	0.7096	0.021
Mof_C 	C 	0.6165	0.1101	0.7953	0.112
Mof_H 	H 	0.676	0.1098	0.8211	-0.031
Mof_C 	C 	0.483	0.1334	0.7588	0.008
Mof_H 	H 	0.4305	0.1529	0.754	0.008
Mof_C 	C 	0.4915	0.0866	0.7183	-0.003
Mof_H 	H 	0.4475	0.0683	0.6819	0.02
Mof_C 	C 	0.6121	0.8785	0.5336	0.094
Mof_H 	H 	0.66	0.858	0.5621	-0.028
Mof_C 	C 	0.4983	0.9042	0.4463	0.004
Mof_H 	H 	0.4531	0.9043	0.4018	0.018
Mof_C 	C 	0.5142	0.9467	0.4984	0.006
Mof_H 	H 	0.4819	0.98	0.4973	0.02
Mof_Mn	Mn	0.60168	0.43004	0.34232	0.56
Mof_Mn	Mn	0.1007	0.2904	0.40401	0.552
Mof_N 	N 	0.5603	0.3583	0.2585	-0.19
Mof_N 	N 	0.4818	0.2852	0.2024	-0.165
Mof_N 	N 	0.1583	0.228	0.3379	-0.198
Mof_N 	N 	0.2324	0.1989	0.2591	-0.166
Mof_N 	N 	0.2098	0.1226	0.9145	-0.192
Mof_N 	N 	0.2857	0.1678	0.0151	-0.139
Mof_N 	N 	0.4891	0.4878	0.2885	-0.197
Mof_N 	N 	0.3533	0.5191	0.2429	-0.164
Mof_N 	N 	0.0611	0.3522	0.307	-0.193
Mof_N 	N 	0.0792	0.4282	0.2423	-0.167
Mof_N 	N 	0.0588	0.639	0.9689	-0.209
Mof_N 	N 	0.087	0.5697	0.0523	-0.148
Mof_C 	C 	0.3867	0.2234	0.1109	-0.273
Mof_H 	H 	0.4192	0.2312	0.0771	0.128
Mof_C 	C 	0.4107	0.2465	0.1826	0.225
Mof_C 	C 	0.3632	0.2352	0.233	-0.286
Mof_H 	H 	0.3818	0.2491	0.2819	0.128
Mof_C 	C 	0.2881	0.203	0.2102	0.221
Mof_C 	C 	0.2615	0.1786	0.139	-0.276
Mof_H 	H 	0.2108	0.1566	0.1243	0.125
Mof_C 	C 	0.3132	0.1883	0.0907	0.216
Mof_C 	C 	0.5424	0.2985	0.1635	0.001
Mof_H 	H 	0.5491	0.2803	0.1207	0.015
Mof_C 	C 	0.5894	0.3422	0.1991	0.005
Mof_H 	H 	0.6357	0.3594	0.1852	0.008
Mof_C 	C 	0.4974	0.3231	0.2599	0.11
Mof_H 	H 	0.4666	0.3238	0.2961	-0.029
Mof_C 	C 	0.3101	0.1887	0.9545	-0.019
Mof_H 	H 	0.351	0.2174	0.9554	0.016
Mof_C 	C 	0.2649	0.1607	0.8947	0.009
Mof_H 	H 	0.2698	0.166	0.8462	0.008
Mof_C 	C 	0.2201	0.1314	0.9848	0.056
Mof_H 	H 	0.1856	0.1143	0.012	-0.005
Mof_C 	C 	0.2193	0.2399	0.3049	0.109
Mof_H 	H 	0.2508	0.2739	0.3126	-0.026
Mof_C 	C 	0.1746	0.1564	0.2632	-0.004
Mof_H 	H 	0.1669	0.1217	0.2379	0.017
Mof_C 	C 	0.1311	0.1755	0.3117	0.001
Mof_H 	H 	0.0875	0.155	0.3255	0.003
Mof_C 	C 	0.2199	0.5471	0.1498	-0.271
Mof_H 	H 	0.2517	0.5723	0.1286	0.124
Mof_C 	C 	0.2601	0.5159	0.2141	0.22
Mof_C 	C 	0.2138	0.4793	0.2464	-0.284
Mof_H 	H 	0.2414	0.4607	0.291	0.127
Mof_C 	C 	0.1256	0.4704	0.2122	0.22
Mof_C 	C 	0.082	0.5004	0.1484	-0.275
Mof_H 	H 	0.0222	0.4948	0.1263	0.128
Mof_C 	C 	0.1295	0.5387	0.1184	0.214
Mof_C 	C 	0.4066	0.4758	0.2771	0.106
Mof_H 	H 	0.3861	0.4414	0.2909	-0.025
Mof_C 	C 	0.4908	0.5421	0.2609	-0.007
Mof_H 	H 	0.5415	0.5626	0.262	0.009
Mof_C 	C 	0.409	0.5611	0.2324	0.003
Mof_H 	H 	0.3927	0.5962	0.2096	0.018
Mof_C 	C 	0.1165	0.3899	0.2953	0.111
Mof_H 	H 	0.176	0.3902	0.3211	-0.029
Mof_C 	C 	0.983	0.3666	0.2588	0.015
Mof_H 	H 	0.9305	0.3471	0.254	0.008
Mof_C 	C 	0.9915	0.4134	0.2183	0.003
Mof_H 	H 	0.9475	0.4317	0.1819	0.022
Mof_C 	C 	0.1121	0.6215	0.0336	0.113
Mof_H 	H 	0.16	0.642	0.0621	-0.031
Mof_C 	C 	0.9983	0.5958	0.9463	0.042
Mof_H 	H 	0.9531	0.5957	0.9018	0.005
Mof_C 	C 	0.0142	0.5533	0.9984	-0.053
Mof_H 	H 	0.9819	0.52	0.9973	0.04
Mof_Mn	Mn	0.10168	0.93004	0.34232	0.554
Mof_Mn	Mn	0.6007	0.7904	0.40401	0.556
Mof_N 	N 	0.0603	0.8583	0.2585	-0.195
Mof_N 	N 	0.9818	0.7852	0.2024	-0.162
Mof_N 	N 	0.6583	0.728	0.3379	-0.198
Mof_N 	N 	0.7324	0.6989	0.2591	-0.166
Mof_N 	N 	0.7098	0.6226	0.9145	-0.193
Mof_N 	N 	0.7857	0.6678	0.0151	-0.139
Mof_N 	N 	0.9891	0.9878	0.2885	-0.197
Mof_N 	N 	0.8533	0.0191	0.2429	-0.163
Mof_N 	N 	0.5611	0.8522	0.307	-0.188
Mof_N 	N 	0.5792	0.9282	0.2423	-0.163
Mof_N 	N 	0.5588	0.139	0.9689	-0.202
Mof_N 	N 	0.587	0.0697	0.0523	-0.153
Mof_C 	C 	0.8867	0.7234	0.1109	-0.274
Mof_H 	H 	0.9192	0.7312	0.0771	0.13
Mof_C 	C 	0.9107	0.7465	0.1826	0.227
Mof_C 	C 	0.8632	0.7352	0.233	-0.287
Mof_H 	H 	0.8818	0.7491	0.2819	0.129
Mof_C 	C 	0.7881	0.703	0.2102	0.223
Mof_C 	C 	0.7615	0.6786	0.139	-0.277
Mof_H 	H 	0.7108	0.6566	0.1243	0.126
Mof_C 	C 	0.8132	0.6883	0.0907	0.218
Mof_C 	C 	0.0424	0.7985	0.1635	-0.009
Mof_H 	H 	0.0491	0.7803	0.1207	0.016
Mof_C 	C 	0.0894	0.8422	0.1991	0.007
Mof_H 	H 	0.1357	0.8594	0.1852	0.006
Mof_C 	C 	0.9974	0.8231	0.2599	0.12
Mof_H 	H 	0.9666	0.8238	0.2961	-0.03
Mof_C 	C 	0.8101	0.6887	0.9545	-0.018
Mof_H 	H 	0.851	0.7174	0.9554	0.017
Mof_C 	C 	0.7649	0.6607	0.8947	0.01
Mof_H 	H 	0.7698	0.666	0.8462	0.009
Mof_C 	C 	0.7201	0.6314	0.9848	0.058
Mof_H 	H 	0.6856	0.6143	0.012	-0.005
Mof_C 	C 	0.7193	0.7399	0.3049	0.11
Mof_H 	H 	0.7508	0.7739	0.3126	-0.025
Mof_C 	C 	0.6746	0.6564	0.2632	-0.003
Mof_H 	H 	0.6669	0.6217	0.2379	0.018
Mof_C 	C 	0.6311	0.6755	0.3117	0.001
Mof_H 	H 	0.5875	0.655	0.3255	0.004
Mof_C 	C 	0.7199	0.0471	0.1498	-0.272
Mof_H 	H 	0.7517	0.0723	0.1286	0.125
Mof_C 	C 	0.7601	0.0159	0.2141	0.222
Mof_C 	C 	0.7138	0.9793	0.2464	-0.285
Mof_H 	H 	0.7414	0.9607	0.291	0.128
Mof_C 	C 	0.6256	0.9704	0.2122	0.222
Mof_C 	C 	0.582	0.0004	0.1484	-0.274
Mof_H 	H 	0.5222	0.9948	0.1263	0.13
Mof_C 	C 	0.6295	0.0387	0.1184	0.217
Mof_C 	C 	0.9066	0.9758	0.2771	0.106
Mof_H 	H 	0.8861	0.9414	0.2909	-0.024
Mof_C 	C 	0.9908	0.0421	0.2609	0.013
Mof_H 	H 	0.0415	0.0626	0.262	-0.003
Mof_C 	C 	0.909	0.0611	0.2324	-0.006
Mof_H 	H 	0.8927	0.0962	0.2096	0.023
Mof_C 	C 	0.6165	0.8899	0.2953	0.113
Mof_H 	H 	0.676	0.8902	0.3211	-0.029
Mof_C 	C 	0.483	0.8666	0.2588	0.009
Mof_H 	H 	0.4305	0.8471	0.254	0.009
Mof_C 	C 	0.4915	0.9134	0.2183	-0.002
Mof_H 	H 	0.4475	0.9317	0.1819	0.022
Mof_C 	C 	0.6121	0.1215	0.0336	0.116
Mof_H 	H 	0.66	0.142	0.0621	-0.031
Mof_C 	C 	0.4983	0.0958	0.9463	0.01
Mof_H 	H 	0.4531	0.0957	0.9018	0.015
Mof_C 	C 	0.5142	0.0533	0.9984	-0.017
Mof_H 	H 	0.4819	0.02	0.9973	0.022
_end
