data_functionalizedCrystal
_audit_creation_method	'EQeq! by Chris Wilmer'
_symmetry_space_group_name_H-M	'P1'
_symmetry_Int_Tables_number	1
_symmetry_cell_setting	triclinic
loop_
_symmetry_equiv_pos_as_xyz
  x,y,z
_cell_length_a	13.6257
_cell_length_b	25.2675
_cell_length_c	16.8185
_cell_angle_alpha	90
_cell_angle_beta	105.815
_cell_angle_gamma	90
loop_
_atom_site_label
_atom_site_type_symbol
_atom_site_fract_x
_atom_site_fract_y
_atom_site_fract_z
_atom_site_charge
Mof_Co	Co	0.10481	0.28176	0.09094	1.155
Mof_Co	Co	0.25295	0.24425	0.26047	1.168
Mof_O 	O 	0.74006	0.20592	0.7141	-0.264
Mof_O 	O 	0.6358	0.17792	0.13712	-0.261
Mof_O 	O 	0.16714	0.21257	0.13306	-0.528
Mof_O 	O 	0.00394	0.20045	0.1249	-0.356
Mof_O 	O 	0.13573	0.96147	0.10044	-0.298
Mof_O 	O 	0.96634	0.82404	0.34638	-0.479
Mof_O 	O 	0.85975	0.79601	0.22813	-0.472
Mof_O 	O 	0.35007	0.17504	0.26578	-0.382
Mof_O 	O 	0.21001	0.17393	0.3065	-0.393
Mof_O 	O 	0.36134	0.94045	0.41064	-0.31
Mof_O 	O 	0.77273	0.82277	0.41311	-0.47
Mof_O 	O 	0.66672	0.78853	0.29831	-0.473
Mof_N 	N 	0.02207	0.27599	0.97153	-0.271
Mof_N 	N 	0.87264	0.26282	0.72019	-0.271
Mof_H 	H 	0.8986	0.2832	0.6886	0.159
Mof_N 	N 	0.47511	0.20411	0.13235	-0.268
Mof_H 	H 	0.4332	0.2089	0.1634	0.147
Mof_N 	N 	0.33595	0.23303	0.88117	-0.244
Mof_C 	C 	0.94278	0.24257	0.94537	0.112
Mof_H 	H 	0.9237	0.2214	0.9855	-0.013
Mof_C 	C 	0.88767	0.23721	0.86392	-0.222
Mof_H 	H 	0.8317	0.2134	0.8487	0.127
Mof_C 	C 	0.91587	0.2675	0.80419	0.224
Mof_C 	C 	0.99723	0.30292	0.83084	-0.226
Mof_H 	H 	0.0174	0.3248	0.7922	0.123
Mof_C 	C 	0.04758	0.30571	0.91348	0.118
Mof_H 	H 	0.103	0.3297	0.9306	-0.012
Mof_C 	C 	0.79338	0.23004	0.67939	0.301
Mof_C 	C 	0.78296	0.22752	0.58776	-0.282
Mof_H 	H 	0.8514	0.2215	0.5796	0.112
Mof_H 	H 	0.7583	0.2623	0.563	0.121
Mof_C 	C 	0.7114	0.18485	0.54162	-0.005
Mof_H 	H 	0.6417	0.1913	0.5467	0.047
Mof_H 	H 	0.7343	0.1498	0.5662	0.05
Mof_C 	C 	0.71	0.18485	0.45056	-0.098
Mof_H 	H 	0.781	0.1816	0.4466	0.058
Mof_H 	H 	0.683	0.2193	0.4259	0.056
Mof_C 	C 	0.6462	0.14051	0.40001	-0.144
Mof_H 	H 	0.5751	0.1435	0.4036	0.076
Mof_H 	H 	0.6733	0.106	0.424	0.076
Mof_C 	C 	0.6464	0.14209	0.30878	0.037
Mof_H 	H 	0.7176	0.1408	0.3051	0.028
Mof_H 	H 	0.6103	0.1106	0.2801	0.024
Mof_C 	C 	0.5948	0.19196	0.26599	-0.313
Mof_H 	H 	0.5299	0.1973	0.2807	0.13
Mof_H 	H 	0.6392	0.2228	0.2869	0.133
Mof_C 	C 	0.57265	0.19009	0.17318	0.307
Mof_C 	C 	0.43332	0.21187	0.04739	0.221
Mof_C 	C 	0.48904	0.21481	0.98915	-0.22
Mof_H 	H 	0.5608	0.2096	0.0049	0.123
Mof_C 	C 	0.43691	0.22544	0.90787	0.126
Mof_H 	H 	0.4752	0.2275	0.8685	-0.018
Mof_C 	C 	0.28357	0.22969	0.93783	0.123
Mof_H 	H 	0.2119	0.2351	0.9204	-0.015
Mof_C 	C 	0.32805	0.21878	0.01995	-0.223
Mof_H 	H 	0.2874	0.216	0.0575	0.106
Mof_C 	C 	0.08936	0.18146	0.1296	0.344
Mof_C 	C 	0.10511	0.12352	0.12658	-0.185
Mof_C 	C 	0.02857	0.08992	0.13649	0.137
Mof_H 	H 	0.9694	0.1044	0.1478	-0.002
Mof_C 	C 	0.0376	0.03571	0.13002	-0.253
Mof_H 	H 	0.9858	0.0128	0.138	0.125
Mof_C 	C 	0.12329	0.01517	0.11173	0.275
Mof_C 	C 	0.20082	0.04796	0.10141	-0.245
Mof_H 	H 	0.2592	0.0335	0.0889	0.129
Mof_C 	C 	0.19138	0.10212	0.10964	0.13
Mof_H 	H 	0.2444	0.1249	0.1037	0
Mof_C 	C 	0.08461	0.9277	0.14149	0.289
Mof_C 	C 	0.9995	0.90087	0.09653	-0.27
Mof_H 	H 	0.9749	0.9057	0.0385	0.138
Mof_C 	C 	0.9502	0.86671	0.13773	0.156
Mof_H 	H 	0.8915	0.8479	0.1075	-0.011
Mof_C 	C 	0.98587	0.85979	0.22266	-0.205
Mof_C 	C 	0.0725	0.88723	0.26634	0.158
Mof_H 	H 	0.0978	0.8825	0.3244	-0.005
Mof_C 	C 	0.122	0.92137	0.22578	-0.269
Mof_H 	H 	0.181	0.9402	0.2556	0.136
Mof_C 	C 	0.93306	0.82387	0.26823	0.416
Mof_C 	C 	0.28816	0.15044	0.29633	0.326
Mof_C 	C 	0.30645	0.09407	0.32209	-0.164
Mof_C 	C 	0.24012	0.06797	0.35925	0.12
Mof_H 	H 	0.1811	0.0857	0.3653	0.005
Mof_C 	C 	0.25961	0.01667	0.38732	-0.24
Mof_H 	H 	0.2145	0.9991	0.4128	0.121
Mof_C 	C 	0.34629	0.99083	0.37785	0.267
Mof_C 	C 	0.41131	0.01538	0.33878	-0.252
Mof_H 	H 	0.4688	0.9971	0.3307	0.12
Mof_C 	C 	0.39084	0.06729	0.31156	0.119
Mof_H 	H 	0.4354	0.0846	0.2853	0.001
Mof_C 	C 	0.44246	0.91091	0.39756	0.298
Mof_C 	C 	0.43	0.88445	0.3242	-0.281
Mof_H 	H 	0.3679	0.8873	0.2816	0.145
Mof_C 	C 	0.5091	0.85362	0.3133	0.171
Mof_H 	H 	0.5013	0.8349	0.2629	-0.012
Mof_C 	C 	0.59973	0.84975	0.3752	-0.215
Mof_C 	C 	0.6093	0.87564	0.4494	0.164
Mof_H 	H 	0.6706	0.8724	0.4927	-0.008
Mof_C 	C 	0.5299	0.90637	0.46102	-0.281
Mof_H 	H 	0.536	0.924	0.5121	0.137
Mof_C 	C 	0.68617	0.81806	0.36138	0.416
Mof_Co	Co	0.89519	0.78176	0.40906	1.156
Mof_Co	Co	0.74705	0.74425	0.23953	1.168
Mof_O 	O 	0.25994	0.70592	0.7859	-0.264
Mof_O 	O 	0.3642	0.67792	0.36288	-0.261
Mof_O 	O 	0.83286	0.71257	0.36694	-0.527
Mof_O 	O 	0.99606	0.70045	0.3751	-0.356
Mof_O 	O 	0.86427	0.46147	0.39956	-0.299
Mof_O 	O 	0.03366	0.32404	0.15362	-0.479
Mof_O 	O 	0.14025	0.29601	0.27187	-0.472
Mof_O 	O 	0.64993	0.67504	0.23422	-0.382
Mof_O 	O 	0.78999	0.67393	0.1935	-0.393
Mof_O 	O 	0.63866	0.44045	0.08936	-0.31
Mof_O 	O 	0.22727	0.32277	0.08689	-0.471
Mof_O 	O 	0.33328	0.28853	0.20169	-0.473
Mof_N 	N 	0.97793	0.77599	0.52847	-0.271
Mof_N 	N 	0.12736	0.76282	0.77981	-0.271
Mof_H 	H 	0.1014	0.7832	0.8114	0.159
Mof_N 	N 	0.52489	0.70411	0.36765	-0.268
Mof_H 	H 	0.5668	0.7089	0.3366	0.147
Mof_N 	N 	0.66405	0.73303	0.61883	-0.244
Mof_C 	C 	0.05722	0.74257	0.55463	0.112
Mof_H 	H 	0.0763	0.7214	0.5145	-0.013
Mof_C 	C 	0.11233	0.73721	0.63608	-0.222
Mof_H 	H 	0.1683	0.7134	0.6513	0.127
Mof_C 	C 	0.08413	0.7675	0.69581	0.224
Mof_C 	C 	0.00277	0.80292	0.66916	-0.225
Mof_H 	H 	0.9826	0.8248	0.7078	0.122
Mof_C 	C 	0.95242	0.80571	0.58652	0.117
Mof_H 	H 	0.897	0.8297	0.5694	-0.012
Mof_C 	C 	0.20662	0.73004	0.82061	0.301
Mof_C 	C 	0.21704	0.72752	0.91224	-0.282
Mof_H 	H 	0.1486	0.7215	0.9204	0.112
Mof_H 	H 	0.2417	0.7623	0.937	0.121
Mof_C 	C 	0.2886	0.68485	0.95838	-0.005
Mof_H 	H 	0.3583	0.6913	0.9533	0.047
Mof_H 	H 	0.2657	0.6498	0.9338	0.05
Mof_C 	C 	0.29	0.68485	0.04944	-0.098
Mof_H 	H 	0.219	0.6816	0.0534	0.058
Mof_H 	H 	0.317	0.7193	0.0741	0.056
Mof_C 	C 	0.3538	0.64051	0.09999	-0.144
Mof_H 	H 	0.4249	0.6435	0.0964	0.076
Mof_H 	H 	0.3267	0.606	0.076	0.076
Mof_C 	C 	0.3536	0.64209	0.19122	0.037
Mof_H 	H 	0.2824	0.6408	0.1949	0.028
Mof_H 	H 	0.3897	0.6106	0.2199	0.024
Mof_C 	C 	0.4052	0.69196	0.23401	-0.313
Mof_H 	H 	0.4701	0.6973	0.2193	0.13
Mof_H 	H 	0.3608	0.7228	0.2131	0.133
Mof_C 	C 	0.42735	0.69009	0.32682	0.307
Mof_C 	C 	0.56668	0.71187	0.45261	0.222
Mof_C 	C 	0.51096	0.71481	0.51085	-0.222
Mof_H 	H 	0.4392	0.7096	0.4951	0.124
Mof_C 	C 	0.56309	0.72544	0.59213	0.126
Mof_H 	H 	0.5248	0.7275	0.6315	-0.018
Mof_C 	C 	0.71643	0.72969	0.56217	0.122
Mof_H 	H 	0.7881	0.7351	0.5796	-0.015
Mof_C 	C 	0.67195	0.71878	0.48005	-0.223
Mof_H 	H 	0.7126	0.716	0.4425	0.106
Mof_C 	C 	0.91064	0.68146	0.3704	0.344
Mof_C 	C 	0.89489	0.62352	0.37342	-0.185
Mof_C 	C 	0.97143	0.58992	0.36351	0.138
Mof_H 	H 	0.0306	0.6044	0.3522	-0.002
Mof_C 	C 	0.9624	0.53571	0.36998	-0.254
Mof_H 	H 	0.0142	0.5128	0.362	0.126
Mof_C 	C 	0.87671	0.51517	0.38827	0.276
Mof_C 	C 	0.79918	0.54796	0.39859	-0.246
Mof_H 	H 	0.7408	0.5335	0.4111	0.129
Mof_C 	C 	0.80862	0.60212	0.39036	0.13
Mof_H 	H 	0.7556	0.6249	0.3963	0
Mof_C 	C 	0.91539	0.4277	0.35851	0.291
Mof_C 	C 	0.0005	0.40087	0.40347	-0.274
Mof_H 	H 	0.0251	0.4057	0.4615	0.139
Mof_C 	C 	0.0498	0.36671	0.36227	0.159
Mof_H 	H 	0.1085	0.3479	0.3925	-0.012
Mof_C 	C 	0.01413	0.35979	0.27734	-0.208
Mof_C 	C 	0.9275	0.38723	0.23366	0.161
Mof_H 	H 	0.9022	0.3825	0.1756	-0.006
Mof_C 	C 	0.878	0.42137	0.27422	-0.271
Mof_H 	H 	0.819	0.4402	0.2444	0.136
Mof_C 	C 	0.06694	0.32387	0.23177	0.417
Mof_C 	C 	0.71184	0.65044	0.20367	0.326
Mof_C 	C 	0.69355	0.59407	0.17791	-0.165
Mof_C 	C 	0.75988	0.56797	0.14075	0.12
Mof_H 	H 	0.8189	0.5857	0.1347	0.005
Mof_C 	C 	0.74039	0.51667	0.11268	-0.242
Mof_H 	H 	0.7855	0.4991	0.0872	0.122
Mof_C 	C 	0.65371	0.49083	0.12215	0.268
Mof_C 	C 	0.58869	0.51538	0.16122	-0.252
Mof_H 	H 	0.5312	0.4971	0.1693	0.12
Mof_C 	C 	0.60916	0.56729	0.18844	0.119
Mof_H 	H 	0.5646	0.5846	0.2147	0.001
Mof_C 	C 	0.55754	0.41091	0.10244	0.298
Mof_C 	C 	0.57	0.38445	0.1758	-0.282
Mof_H 	H 	0.6321	0.3873	0.2184	0.145
Mof_C 	C 	0.4909	0.35362	0.1867	0.171
Mof_H 	H 	0.4987	0.3349	0.2371	-0.012
Mof_C 	C 	0.40027	0.34975	0.1248	-0.216
Mof_C 	C 	0.3907	0.37564	0.0506	0.165
Mof_H 	H 	0.3294	0.3724	0.0073	-0.008
Mof_C 	C 	0.4701	0.40637	0.03898	-0.282
Mof_H 	H 	0.464	0.424	0.9879	0.138
Mof_C 	C 	0.31383	0.31806	0.13862	0.416
Mof_Co	Co	0.89519	0.71824	0.90906	1.155
Mof_Co	Co	0.74705	0.75575	0.73953	1.168
Mof_O 	O 	0.25994	0.79408	0.2859	-0.264
Mof_O 	O 	0.3642	0.82208	0.86288	-0.261
Mof_O 	O 	0.83286	0.78743	0.86694	-0.528
Mof_O 	O 	0.99606	0.79955	0.8751	-0.356
Mof_O 	O 	0.86427	0.03853	0.89956	-0.298
Mof_O 	O 	0.03366	0.17596	0.65362	-0.479
Mof_O 	O 	0.14025	0.20399	0.77187	-0.472
Mof_O 	O 	0.64993	0.82496	0.73422	-0.382
Mof_O 	O 	0.78999	0.82607	0.6935	-0.393
Mof_O 	O 	0.63866	0.05955	0.58936	-0.31
Mof_O 	O 	0.22727	0.17723	0.58689	-0.47
Mof_O 	O 	0.33328	0.21147	0.70169	-0.473
Mof_N 	N 	0.97793	0.72401	0.02847	-0.271
Mof_N 	N 	0.12736	0.73718	0.27981	-0.271
Mof_H 	H 	0.1014	0.7168	0.3114	0.159
Mof_N 	N 	0.52489	0.79589	0.86765	-0.268
Mof_H 	H 	0.5668	0.7911	0.8366	0.147
Mof_N 	N 	0.66405	0.76697	0.11883	-0.244
Mof_C 	C 	0.05722	0.75743	0.05463	0.112
Mof_H 	H 	0.0763	0.7786	0.0145	-0.013
Mof_C 	C 	0.11233	0.76279	0.13608	-0.222
Mof_H 	H 	0.1683	0.7866	0.1513	0.127
Mof_C 	C 	0.08413	0.7325	0.19581	0.224
Mof_C 	C 	0.00277	0.69708	0.16916	-0.226
Mof_H 	H 	0.9826	0.6752	0.2078	0.123
Mof_C 	C 	0.95242	0.69429	0.08652	0.118
Mof_H 	H 	0.897	0.6703	0.0694	-0.012
Mof_C 	C 	0.20662	0.76996	0.32061	0.301
Mof_C 	C 	0.21704	0.77248	0.41224	-0.282
Mof_H 	H 	0.1486	0.7785	0.4204	0.112
Mof_H 	H 	0.2417	0.7377	0.437	0.121
Mof_C 	C 	0.2886	0.81515	0.45838	-0.005
Mof_H 	H 	0.3583	0.8087	0.4533	0.047
Mof_H 	H 	0.2657	0.8502	0.4338	0.05
Mof_C 	C 	0.29	0.81515	0.54944	-0.098
Mof_H 	H 	0.219	0.8184	0.5534	0.058
Mof_H 	H 	0.317	0.7807	0.5741	0.056
Mof_C 	C 	0.3538	0.85949	0.59999	-0.144
Mof_H 	H 	0.4249	0.8565	0.5964	0.076
Mof_H 	H 	0.3267	0.894	0.576	0.076
Mof_C 	C 	0.3536	0.85791	0.69122	0.037
Mof_H 	H 	0.2824	0.8592	0.6949	0.028
Mof_H 	H 	0.3897	0.8894	0.7199	0.024
Mof_C 	C 	0.4052	0.80804	0.73401	-0.313
Mof_H 	H 	0.4701	0.8027	0.7193	0.13
Mof_H 	H 	0.3608	0.7772	0.7131	0.133
Mof_C 	C 	0.42735	0.80991	0.82682	0.307
Mof_C 	C 	0.56668	0.78813	0.95261	0.221
Mof_C 	C 	0.51096	0.78519	0.01085	-0.22
Mof_H 	H 	0.4392	0.7904	0.9951	0.123
Mof_C 	C 	0.56309	0.77456	0.09213	0.126
Mof_H 	H 	0.5248	0.7725	0.1315	-0.018
Mof_C 	C 	0.71643	0.77031	0.06217	0.123
Mof_H 	H 	0.7881	0.7649	0.0796	-0.015
Mof_C 	C 	0.67195	0.78122	0.98005	-0.223
Mof_H 	H 	0.7126	0.784	0.9425	0.106
Mof_C 	C 	0.91064	0.81854	0.8704	0.344
Mof_C 	C 	0.89489	0.87648	0.87342	-0.185
Mof_C 	C 	0.97143	0.91008	0.86351	0.137
Mof_H 	H 	0.0306	0.8956	0.8522	-0.002
Mof_C 	C 	0.9624	0.96429	0.86998	-0.253
Mof_H 	H 	0.0142	0.9872	0.862	0.125
Mof_C 	C 	0.87671	0.98483	0.88827	0.275
Mof_C 	C 	0.79918	0.95204	0.89859	-0.245
Mof_H 	H 	0.7408	0.9665	0.9111	0.129
Mof_C 	C 	0.80862	0.89788	0.89036	0.13
Mof_H 	H 	0.7556	0.8751	0.8963	0
Mof_C 	C 	0.91539	0.0723	0.85851	0.289
Mof_C 	C 	0.0005	0.09913	0.90347	-0.27
Mof_H 	H 	0.0251	0.0943	0.9615	0.138
Mof_C 	C 	0.0498	0.13329	0.86227	0.156
Mof_H 	H 	0.1085	0.1521	0.8925	-0.011
Mof_C 	C 	0.01413	0.14021	0.77734	-0.205
Mof_C 	C 	0.9275	0.11277	0.73366	0.158
Mof_H 	H 	0.9022	0.1175	0.6756	-0.005
Mof_C 	C 	0.878	0.07863	0.77422	-0.269
Mof_H 	H 	0.819	0.0598	0.7444	0.136
Mof_C 	C 	0.06694	0.17613	0.73177	0.416
Mof_C 	C 	0.71184	0.84956	0.70367	0.326
Mof_C 	C 	0.69355	0.90593	0.67791	-0.164
Mof_C 	C 	0.75988	0.93203	0.64075	0.12
Mof_H 	H 	0.8189	0.9143	0.6347	0.005
Mof_C 	C 	0.74039	0.98333	0.61268	-0.24
Mof_H 	H 	0.7855	0.0009	0.5872	0.121
Mof_C 	C 	0.65371	0.00917	0.62215	0.267
Mof_C 	C 	0.58869	0.98462	0.66122	-0.252
Mof_H 	H 	0.5312	0.0029	0.6693	0.12
Mof_C 	C 	0.60916	0.93271	0.68844	0.119
Mof_H 	H 	0.5646	0.9154	0.7147	0.001
Mof_C 	C 	0.55754	0.08909	0.60244	0.298
Mof_C 	C 	0.57	0.11555	0.6758	-0.281
Mof_H 	H 	0.6321	0.1127	0.7184	0.145
Mof_C 	C 	0.4909	0.14638	0.6867	0.171
Mof_H 	H 	0.4987	0.1651	0.7371	-0.012
Mof_C 	C 	0.40027	0.15025	0.6248	-0.215
Mof_C 	C 	0.3907	0.12436	0.5506	0.164
Mof_H 	H 	0.3294	0.1276	0.5073	-0.008
Mof_C 	C 	0.4701	0.09363	0.53898	-0.281
Mof_H 	H 	0.464	0.076	0.4879	0.137
Mof_C 	C 	0.31383	0.18194	0.63862	0.416
Mof_Co	Co	0.10481	0.21824	0.59094	1.156
Mof_Co	Co	0.25295	0.25575	0.76047	1.168
Mof_O 	O 	0.74006	0.29408	0.2141	-0.264
Mof_O 	O 	0.6358	0.32208	0.63712	-0.261
Mof_O 	O 	0.16714	0.28743	0.63306	-0.527
Mof_O 	O 	0.00394	0.29955	0.6249	-0.356
Mof_O 	O 	0.13573	0.53853	0.60044	-0.299
Mof_O 	O 	0.96634	0.67596	0.84638	-0.479
Mof_O 	O 	0.85975	0.70399	0.72813	-0.472
Mof_O 	O 	0.35007	0.32496	0.76578	-0.382
Mof_O 	O 	0.21001	0.32607	0.8065	-0.393
Mof_O 	O 	0.36134	0.55955	0.91064	-0.31
Mof_O 	O 	0.77273	0.67723	0.91311	-0.471
Mof_O 	O 	0.66672	0.71147	0.79831	-0.473
Mof_N 	N 	0.02207	0.22401	0.47153	-0.271
Mof_N 	N 	0.87264	0.23718	0.22019	-0.271
Mof_H 	H 	0.8986	0.2168	0.1886	0.159
Mof_N 	N 	0.47511	0.29589	0.63235	-0.268
Mof_H 	H 	0.4332	0.2911	0.6634	0.147
Mof_N 	N 	0.33595	0.26697	0.38117	-0.244
Mof_C 	C 	0.94278	0.25743	0.44537	0.112
Mof_H 	H 	0.9237	0.2786	0.4855	-0.013
Mof_C 	C 	0.88767	0.26279	0.36392	-0.222
Mof_H 	H 	0.8317	0.2866	0.3487	0.127
Mof_C 	C 	0.91587	0.2325	0.30419	0.224
Mof_C 	C 	0.99723	0.19708	0.33084	-0.225
Mof_H 	H 	0.0174	0.1752	0.2922	0.122
Mof_C 	C 	0.04758	0.19429	0.41348	0.117
Mof_H 	H 	0.103	0.1703	0.4306	-0.012
Mof_C 	C 	0.79338	0.26996	0.17939	0.301
Mof_C 	C 	0.78296	0.27248	0.08776	-0.282
Mof_H 	H 	0.8514	0.2785	0.0796	0.112
Mof_H 	H 	0.7583	0.2377	0.063	0.121
Mof_C 	C 	0.7114	0.31515	0.04162	-0.005
Mof_H 	H 	0.6417	0.3087	0.0467	0.047
Mof_H 	H 	0.7343	0.3502	0.0662	0.05
Mof_C 	C 	0.71	0.31515	0.95056	-0.098
Mof_H 	H 	0.781	0.3184	0.9466	0.058
Mof_H 	H 	0.683	0.2807	0.9259	0.056
Mof_C 	C 	0.6462	0.35949	0.90001	-0.144
Mof_H 	H 	0.5751	0.3565	0.9036	0.076
Mof_H 	H 	0.6733	0.394	0.924	0.076
Mof_C 	C 	0.6464	0.35791	0.80878	0.037
Mof_H 	H 	0.7176	0.3592	0.8051	0.028
Mof_H 	H 	0.6103	0.3894	0.7801	0.024
Mof_C 	C 	0.5948	0.30804	0.76599	-0.313
Mof_H 	H 	0.5299	0.3027	0.7807	0.13
Mof_H 	H 	0.6392	0.2772	0.7869	0.133
Mof_C 	C 	0.57265	0.30991	0.67318	0.307
Mof_C 	C 	0.43332	0.28813	0.54739	0.222
Mof_C 	C 	0.48904	0.28519	0.48915	-0.222
Mof_H 	H 	0.5608	0.2904	0.5049	0.124
Mof_C 	C 	0.43691	0.27456	0.40787	0.126
Mof_H 	H 	0.4752	0.2725	0.3685	-0.018
Mof_C 	C 	0.28357	0.27031	0.43783	0.122
Mof_H 	H 	0.2119	0.2649	0.4204	-0.015
Mof_C 	C 	0.32805	0.28122	0.51995	-0.223
Mof_H 	H 	0.2874	0.284	0.5575	0.106
Mof_C 	C 	0.08936	0.31854	0.6296	0.344
Mof_C 	C 	0.10511	0.37648	0.62658	-0.185
Mof_C 	C 	0.02857	0.41008	0.63649	0.138
Mof_H 	H 	0.9694	0.3956	0.6478	-0.002
Mof_C 	C 	0.0376	0.46429	0.63002	-0.254
Mof_H 	H 	0.9858	0.4872	0.638	0.126
Mof_C 	C 	0.12329	0.48483	0.61173	0.276
Mof_C 	C 	0.20082	0.45204	0.60141	-0.246
Mof_H 	H 	0.2592	0.4665	0.5889	0.129
Mof_C 	C 	0.19138	0.39788	0.60964	0.13
Mof_H 	H 	0.2444	0.3751	0.6037	0
Mof_C 	C 	0.08461	0.5723	0.64149	0.291
Mof_C 	C 	0.9995	0.59913	0.59653	-0.274
Mof_H 	H 	0.9749	0.5943	0.5385	0.139
Mof_C 	C 	0.9502	0.63329	0.63773	0.159
Mof_H 	H 	0.8915	0.6521	0.6075	-0.012
Mof_C 	C 	0.98587	0.64021	0.72266	-0.208
Mof_C 	C 	0.0725	0.61277	0.76634	0.161
Mof_H 	H 	0.0978	0.6175	0.8244	-0.006
Mof_C 	C 	0.122	0.57863	0.72578	-0.271
Mof_H 	H 	0.181	0.5598	0.7556	0.136
Mof_C 	C 	0.93306	0.67613	0.76823	0.417
Mof_C 	C 	0.28816	0.34956	0.79633	0.326
Mof_C 	C 	0.30645	0.40593	0.82209	-0.165
Mof_C 	C 	0.24012	0.43203	0.85925	0.12
Mof_H 	H 	0.1811	0.4143	0.8653	0.005
Mof_C 	C 	0.25961	0.48333	0.88732	-0.242
Mof_H 	H 	0.2145	0.5009	0.9128	0.122
Mof_C 	C 	0.34629	0.50917	0.87785	0.268
Mof_C 	C 	0.41131	0.48462	0.83878	-0.252
Mof_H 	H 	0.4688	0.5029	0.8307	0.12
Mof_C 	C 	0.39084	0.43271	0.81156	0.119
Mof_H 	H 	0.4354	0.4154	0.7853	0.001
Mof_C 	C 	0.44246	0.58909	0.89756	0.298
Mof_C 	C 	0.43	0.61555	0.8242	-0.282
Mof_H 	H 	0.3679	0.6127	0.7816	0.145
Mof_C 	C 	0.5091	0.64638	0.8133	0.171
Mof_H 	H 	0.5013	0.6651	0.7629	-0.012
Mof_C 	C 	0.59973	0.65025	0.8752	-0.216
Mof_C 	C 	0.6093	0.62436	0.9494	0.165
Mof_H 	H 	0.6706	0.6276	0.9927	-0.008
Mof_C 	C 	0.5299	0.59363	0.96102	-0.282
Mof_H 	H 	0.536	0.576	0.0121	0.138
Mof_C 	C 	0.68617	0.68194	0.86138	0.416
_end
