data_functionalizedCrystal
_audit_creation_method	'EQeq! by Chris Wilmer'
_symmetry_space_group_name_H-M	'P1'
_symmetry_Int_Tables_number	1
_symmetry_cell_setting	triclinic
loop_
_symmetry_equiv_pos_as_xyz
  x,y,z
_cell_length_a	34.9032
_cell_length_b	14.8011
_cell_length_c	31.0811
_cell_angle_alpha	90
_cell_angle_beta	101.564
_cell_angle_gamma	90
loop_
_atom_site_label
_atom_site_type_symbol
_atom_site_fract_x
_atom_site_fract_y
_atom_site_fract_z
_atom_site_charge
Mof_Zn	Zn	0.3739	0.90015	0.43819	1.163
Mof_Zn	Zn	0.169	0.3585	0.7661	0.593
Mof_I 	I 	0.22939	0.2636	0.7894	-0.022
Mof_I 	I 	0.12268	0.3416	0.69375	-0.323
Mof_Zn	Zn	0.08014	0.8697	0.0921	0.57
Mof_I 	I 	0.02446	0.84796	0.12888	-0.246
Mof_I 	I 	0.11672	0.7569	0.05498	-0.139
Mof_I 	I 	0.39537	0.7642	0.39886	-0.247
Mof_I 	I 	0.35571	0.9134	0.51258	-0.196
Mof_N 	N 	0.13898	0.3407	0.818	-0.285
Mof_C 	C 	0.1068	0.388	0.8167	0.082
Mof_H 	H 	0.1	0.4333	0.7948	-0.022
Mof_C 	C 	0.0824	0.374	0.8463	-0.126
Mof_H 	H 	0.0586	0.4069	0.8434	0.084
Mof_C 	C 	0.09236	0.3132	0.8794	0.068
Mof_C 	C 	0.1271	0.2663	0.8812	-0.123
Mof_H 	H 	0.1353	0.223	0.9037	0.084
Mof_C 	C 	0.1493	0.2821	0.8508	0.074
Mof_H 	H 	0.1733	0.2501	0.853	-0.016
Mof_N 	N 	0.06851	0.9816	0.04747	-0.283
Mof_C 	C 	0.03721	0.0335	0.04607	0.073
Mof_H 	H 	0.0186	0.0169	0.0631	-0.011
Mof_C 	C 	0.03083	0.1108	0.0207	-0.119
Mof_H 	H 	0.0085	0.1473	0.0209	0.07
Mof_C 	C 	0.05727	0.1343	0.99497	0.048
Mof_C 	C 	0.0901	0.0799	0.9957	-0.116
Mof_H 	H 	0.1091	0.0943	0.9789	0.078
Mof_C 	C 	0.0936	0.0028	0.0226	0.066
Mof_H 	H 	0.1152	0.9639	0.0229	-0.022
Mof_N 	N 	0.92049	0.5125	0.94153	-0.28
Mof_C 	C 	0.9339	0.4989	0.9061	0.086
Mof_H 	H 	0.9213	0.5276	0.8797	-0.022
Mof_C 	C 	0.9661	0.4435	0.9053	-0.133
Mof_H 	H 	0.9755	0.435	0.8789	0.088
Mof_C 	C 	0.98378	0.4018	0.94311	0.058
Mof_C 	C 	0.96748	0.4102	0.9794	-0.131
Mof_H 	H 	0.9778	0.3776	0.0055	0.079
Mof_C 	C 	0.93561	0.4668	0.9775	0.079
Mof_H 	H 	0.9243	0.4731	0.0027	-0.01
Mof_C 	C 	0.06766	0.297	0.91174	0.101
Mof_N 	N 	0.07468	0.2249	0.93756	-0.136
Mof_C 	C 	0.05198	0.2162	0.96687	0.089
Mof_N 	N 	0.0234	0.274	0.97197	-0.149
Mof_C 	C 	0.01773	0.3409	0.94272	0.091
Mof_N 	N 	0.03828	0.3562	0.91212	-0.135
Mof_N 	N 	0.12194	0.9419	0.13974	-0.288
Mof_C 	C 	0.1159	0.0276	0.1465	0.085
Mof_H 	H 	0.0951	0.0573	0.1272	-0.014
Mof_C 	C 	0.1381	0.0769	0.1803	-0.134
Mof_H 	H 	0.1333	0.1395	0.1834	0.097
Mof_C 	C 	0.16705	0.0344	0.20886	0.071
Mof_C 	C 	0.17317	0.9449	0.2023	-0.14
Mof_H 	H 	0.1929	0.913	0.2219	0.077
Mof_C 	C 	0.1506	0.901	0.1671	0.079
Mof_H 	H 	0.1558	0.8392	0.1623	-0.023
Mof_N 	N 	0.33098	0.9653	0.39343	-0.275
Mof_C 	C 	0.3234	0.0511	0.3987	0.074
Mof_H 	H 	0.3387	0.0826	0.4228	-0.007
Mof_C 	C 	0.29409	0.0982	0.3705	-0.122
Mof_H 	H 	0.2896	0.1605	0.375	0.082
Mof_C 	C 	0.27174	0.052	0.33584	0.045
Mof_C 	C 	0.2798	0.961	0.3302	-0.124
Mof_H 	H 	0.2652	0.9276	0.3064	0.089
Mof_C 	C 	0.3092	0.9207	0.3597	0.067
Mof_H 	H 	0.3143	0.8585	0.3561	-0.004
Mof_N 	N 	0.18378	0.503	0.2756	-0.284
Mof_C 	C 	0.2135	0.4696	0.3031	0.081
Mof_H 	H 	0.2306	0.5101	0.3214	-0.019
Mof_C 	C 	0.2214	0.3774	0.3071	-0.128
Mof_H 	H 	0.2432	0.3558	0.3281	0.079
Mof_C 	C 	0.19749	0.3187	0.2804	0.06
Mof_C 	C 	0.1654	0.3541	0.2517	-0.122
Mof_H 	H 	0.1476	0.3152	0.2333	0.083
Mof_C 	C 	0.1595	0.4463	0.2503	0.068
Mof_H 	H 	0.1375	0.4701	0.2307	-0.017
Mof_C 	C 	0.19064	0.0866	0.24567	0.096
Mof_N 	N 	0.21967	0.0446	0.27261	-0.142
Mof_C 	C 	0.23968	0.097	0.30461	0.086
Mof_N 	N 	0.23353	0.1848	0.30981	-0.143
Mof_C 	C 	0.20463	0.2194	0.2799	0.103
Mof_N 	N 	0.18138	0.1737	0.24832	-0.135
Mof_Zn	Zn	0.1762	0.3602	0.7762	0.613
Mof_I 	I 	0.2395	0.2788	0.8043	-0.35
Mof_I 	I 	0.1322	0.333	0.7003	-0.061
Mof_Zn	Zn	0.0874	0.8834	0.0895	0.627
Mof_I 	I 	0.0264	0.8466	0.1212	-0.081
Mof_I 	I 	0.1245	0.7702	0.0524	-0.212
Mof_I 	I 	0.3858	0.7561	0.4065	-0.114
Mof_I 	I 	0.34952	0.8913	0.50789	-0.145
Mof_Zn	Zn	0.8739	0.40015	0.43819	1.162
Mof_Zn	Zn	0.669	0.8585	0.7661	0.592
Mof_I 	I 	0.72939	0.7636	0.7894	-0.023
Mof_I 	I 	0.62268	0.8416	0.69375	-0.324
Mof_Zn	Zn	0.58014	0.3697	0.0921	0.569
Mof_I 	I 	0.52446	0.34796	0.12888	-0.247
Mof_I 	I 	0.61672	0.2569	0.05498	-0.14
Mof_I 	I 	0.89537	0.2642	0.39886	-0.248
Mof_I 	I 	0.85571	0.4134	0.51258	-0.197
Mof_N 	N 	0.63898	0.8407	0.818	-0.286
Mof_C 	C 	0.6068	0.888	0.8167	0.081
Mof_H 	H 	0.6	0.9333	0.7948	-0.023
Mof_C 	C 	0.5824	0.874	0.8463	-0.126
Mof_H 	H 	0.5586	0.9069	0.8434	0.084
Mof_C 	C 	0.59236	0.8132	0.8794	0.068
Mof_C 	C 	0.6271	0.7663	0.8812	-0.123
Mof_H 	H 	0.6353	0.723	0.9037	0.084
Mof_C 	C 	0.6493	0.7821	0.8508	0.074
Mof_H 	H 	0.6733	0.7501	0.853	-0.016
Mof_N 	N 	0.56851	0.4816	0.04747	-0.283
Mof_C 	C 	0.53721	0.5335	0.04607	0.073
Mof_H 	H 	0.5186	0.5169	0.0631	-0.011
Mof_C 	C 	0.53083	0.6108	0.0207	-0.119
Mof_H 	H 	0.5085	0.6473	0.0209	0.07
Mof_C 	C 	0.55727	0.6343	0.99497	0.048
Mof_C 	C 	0.5901	0.5799	0.9957	-0.116
Mof_H 	H 	0.6091	0.5943	0.9789	0.078
Mof_C 	C 	0.5936	0.5028	0.0226	0.066
Mof_H 	H 	0.6152	0.4639	0.0229	-0.022
Mof_N 	N 	0.42049	0.0125	0.94153	-0.28
Mof_C 	C 	0.4339	0.9989	0.9061	0.087
Mof_H 	H 	0.4213	0.0276	0.8797	-0.022
Mof_C 	C 	0.4661	0.9435	0.9053	-0.133
Mof_H 	H 	0.4755	0.935	0.8789	0.088
Mof_C 	C 	0.48378	0.9018	0.94311	0.058
Mof_C 	C 	0.46748	0.9102	0.9794	-0.131
Mof_H 	H 	0.4778	0.8776	0.0055	0.079
Mof_C 	C 	0.43561	0.9668	0.9775	0.079
Mof_H 	H 	0.4243	0.9731	0.0027	-0.011
Mof_C 	C 	0.56766	0.797	0.91174	0.101
Mof_N 	N 	0.57468	0.7249	0.93756	-0.136
Mof_C 	C 	0.55198	0.7162	0.96687	0.089
Mof_N 	N 	0.5234	0.774	0.97197	-0.149
Mof_C 	C 	0.51773	0.8409	0.94272	0.091
Mof_N 	N 	0.53828	0.8562	0.91212	-0.135
Mof_N 	N 	0.62194	0.4419	0.13974	-0.288
Mof_C 	C 	0.6159	0.5276	0.1465	0.085
Mof_H 	H 	0.5951	0.5573	0.1272	-0.014
Mof_C 	C 	0.6381	0.5769	0.1803	-0.134
Mof_H 	H 	0.6333	0.6395	0.1834	0.097
Mof_C 	C 	0.66705	0.5344	0.20886	0.071
Mof_C 	C 	0.67317	0.4449	0.2023	-0.14
Mof_H 	H 	0.6929	0.413	0.2219	0.077
Mof_C 	C 	0.6506	0.401	0.1671	0.079
Mof_H 	H 	0.6558	0.3392	0.1623	-0.023
Mof_N 	N 	0.83098	0.4653	0.39343	-0.275
Mof_C 	C 	0.8234	0.5511	0.3987	0.074
Mof_H 	H 	0.8387	0.5826	0.4228	-0.007
Mof_C 	C 	0.79409	0.5982	0.3705	-0.122
Mof_H 	H 	0.7896	0.6605	0.375	0.082
Mof_C 	C 	0.77174	0.552	0.33584	0.045
Mof_C 	C 	0.7798	0.461	0.3302	-0.124
Mof_H 	H 	0.7652	0.4276	0.3064	0.089
Mof_C 	C 	0.8092	0.4207	0.3597	0.067
Mof_H 	H 	0.8143	0.3585	0.3561	-0.004
Mof_N 	N 	0.68378	0.003	0.2756	-0.284
Mof_C 	C 	0.7135	0.9696	0.3031	0.081
Mof_H 	H 	0.7306	0.0101	0.3214	-0.019
Mof_C 	C 	0.7214	0.8774	0.3071	-0.128
Mof_H 	H 	0.7432	0.8558	0.3281	0.079
Mof_C 	C 	0.69749	0.8187	0.2804	0.06
Mof_C 	C 	0.6654	0.8541	0.2517	-0.121
Mof_H 	H 	0.6476	0.8152	0.2333	0.083
Mof_C 	C 	0.6595	0.9463	0.2503	0.068
Mof_H 	H 	0.6375	0.9701	0.2307	-0.017
Mof_C 	C 	0.69064	0.5866	0.24567	0.096
Mof_N 	N 	0.71967	0.5446	0.27261	-0.142
Mof_C 	C 	0.73968	0.597	0.30461	0.086
Mof_N 	N 	0.73353	0.6848	0.30981	-0.143
Mof_C 	C 	0.70463	0.7194	0.2799	0.103
Mof_N 	N 	0.68138	0.6737	0.24832	-0.135
Mof_Zn	Zn	0.6762	0.8602	0.7762	0.613
Mof_I 	I 	0.7395	0.7788	0.8043	-0.35
Mof_I 	I 	0.6322	0.833	0.7003	-0.061
Mof_Zn	Zn	0.5874	0.3834	0.0895	0.627
Mof_I 	I 	0.5264	0.3466	0.1212	-0.081
Mof_I 	I 	0.6245	0.2702	0.0524	-0.212
Mof_I 	I 	0.8858	0.2561	0.4065	-0.114
Mof_I 	I 	0.84952	0.3913	0.50789	-0.145
Mof_Zn	Zn	0.3739	0.09985	0.93819	1.162
Mof_Zn	Zn	0.169	0.6415	0.2661	0.592
Mof_I 	I 	0.22939	0.7364	0.2894	-0.023
Mof_I 	I 	0.12268	0.6584	0.19375	-0.324
Mof_Zn	Zn	0.08014	0.1303	0.5921	0.569
Mof_I 	I 	0.02446	0.15204	0.62888	-0.247
Mof_I 	I 	0.11672	0.2431	0.55498	-0.14
Mof_I 	I 	0.39537	0.2358	0.89886	-0.248
Mof_I 	I 	0.35571	0.0866	0.01258	-0.197
Mof_N 	N 	0.13898	0.6593	0.318	-0.286
Mof_C 	C 	0.1068	0.612	0.3167	0.081
Mof_H 	H 	0.1	0.5667	0.2948	-0.023
Mof_C 	C 	0.0824	0.626	0.3463	-0.126
Mof_H 	H 	0.0586	0.5931	0.3434	0.084
Mof_C 	C 	0.09236	0.6868	0.3794	0.068
Mof_C 	C 	0.1271	0.7337	0.3812	-0.123
Mof_H 	H 	0.1353	0.777	0.4037	0.084
Mof_C 	C 	0.1493	0.7179	0.3508	0.074
Mof_H 	H 	0.1733	0.7499	0.353	-0.016
Mof_N 	N 	0.06851	0.0184	0.54747	-0.283
Mof_C 	C 	0.03721	0.9665	0.54607	0.073
Mof_H 	H 	0.0186	0.9831	0.5631	-0.011
Mof_C 	C 	0.03083	0.8892	0.5207	-0.119
Mof_H 	H 	0.0085	0.8527	0.5209	0.07
Mof_C 	C 	0.05727	0.8657	0.49497	0.048
Mof_C 	C 	0.0901	0.9201	0.4957	-0.116
Mof_H 	H 	0.1091	0.9057	0.4789	0.078
Mof_C 	C 	0.0936	0.9972	0.5226	0.066
Mof_H 	H 	0.1152	0.0361	0.5229	-0.022
Mof_N 	N 	0.92049	0.4875	0.44153	-0.28
Mof_C 	C 	0.9339	0.5011	0.4061	0.086
Mof_H 	H 	0.9213	0.4724	0.3797	-0.022
Mof_C 	C 	0.9661	0.5565	0.4053	-0.133
Mof_H 	H 	0.9755	0.565	0.3789	0.088
Mof_C 	C 	0.98378	0.5982	0.44311	0.058
Mof_C 	C 	0.96748	0.5898	0.4794	-0.131
Mof_H 	H 	0.9778	0.6224	0.5055	0.079
Mof_C 	C 	0.93561	0.5332	0.4775	0.079
Mof_H 	H 	0.9243	0.5269	0.5027	-0.01
Mof_C 	C 	0.06766	0.703	0.41174	0.101
Mof_N 	N 	0.07468	0.7751	0.43756	-0.136
Mof_C 	C 	0.05198	0.7838	0.46687	0.089
Mof_N 	N 	0.0234	0.726	0.47197	-0.149
Mof_C 	C 	0.01773	0.6591	0.44272	0.091
Mof_N 	N 	0.03828	0.6438	0.41212	-0.135
Mof_N 	N 	0.12194	0.0581	0.63974	-0.288
Mof_C 	C 	0.1159	0.9724	0.6465	0.085
Mof_H 	H 	0.0951	0.9427	0.6272	-0.014
Mof_C 	C 	0.1381	0.9231	0.6803	-0.134
Mof_H 	H 	0.1333	0.8605	0.6834	0.097
Mof_C 	C 	0.16705	0.9656	0.70886	0.071
Mof_C 	C 	0.17317	0.0551	0.7023	-0.14
Mof_H 	H 	0.1929	0.087	0.7219	0.077
Mof_C 	C 	0.1506	0.099	0.6671	0.079
Mof_H 	H 	0.1558	0.1608	0.6623	-0.023
Mof_N 	N 	0.33098	0.0347	0.89343	-0.275
Mof_C 	C 	0.3234	0.9489	0.8987	0.074
Mof_H 	H 	0.3387	0.9174	0.9228	-0.007
Mof_C 	C 	0.29409	0.9018	0.8705	-0.122
Mof_H 	H 	0.2896	0.8395	0.875	0.082
Mof_C 	C 	0.27174	0.948	0.83584	0.045
Mof_C 	C 	0.2798	0.039	0.8302	-0.124
Mof_H 	H 	0.2652	0.0724	0.8064	0.089
Mof_C 	C 	0.3092	0.0793	0.8597	0.067
Mof_H 	H 	0.3143	0.1415	0.8561	-0.004
Mof_N 	N 	0.18378	0.497	0.7756	-0.284
Mof_C 	C 	0.2135	0.5304	0.8031	0.081
Mof_H 	H 	0.2306	0.4899	0.8214	-0.019
Mof_C 	C 	0.2214	0.6226	0.8071	-0.128
Mof_H 	H 	0.2432	0.6442	0.8281	0.079
Mof_C 	C 	0.19749	0.6813	0.7804	0.06
Mof_C 	C 	0.1654	0.6459	0.7517	-0.122
Mof_H 	H 	0.1476	0.6848	0.7333	0.083
Mof_C 	C 	0.1595	0.5537	0.7503	0.068
Mof_H 	H 	0.1375	0.5299	0.7307	-0.017
Mof_C 	C 	0.19064	0.9134	0.74567	0.096
Mof_N 	N 	0.21967	0.9554	0.77261	-0.142
Mof_C 	C 	0.23968	0.903	0.80461	0.086
Mof_N 	N 	0.23353	0.8152	0.80981	-0.143
Mof_C 	C 	0.20463	0.7806	0.7799	0.103
Mof_N 	N 	0.18138	0.8263	0.74832	-0.135
Mof_Zn	Zn	0.1762	0.6398	0.2762	0.613
Mof_I 	I 	0.2395	0.7212	0.3043	-0.35
Mof_I 	I 	0.1322	0.667	0.2003	-0.061
Mof_Zn	Zn	0.0874	0.1166	0.5895	0.627
Mof_I 	I 	0.0264	0.1534	0.6212	-0.081
Mof_I 	I 	0.1245	0.2298	0.5524	-0.212
Mof_I 	I 	0.3858	0.2439	0.9065	-0.114
Mof_I 	I 	0.34952	0.1087	0.00789	-0.145
Mof_Zn	Zn	0.8739	0.59985	0.93819	1.162
Mof_Zn	Zn	0.669	0.1415	0.2661	0.592
Mof_I 	I 	0.72939	0.2364	0.2894	-0.023
Mof_I 	I 	0.62268	0.1584	0.19375	-0.324
Mof_Zn	Zn	0.58014	0.6303	0.5921	0.569
Mof_I 	I 	0.52446	0.65204	0.62888	-0.247
Mof_I 	I 	0.61672	0.7431	0.55498	-0.14
Mof_I 	I 	0.89537	0.7358	0.89886	-0.248
Mof_I 	I 	0.85571	0.5866	0.01258	-0.197
Mof_N 	N 	0.63898	0.1593	0.318	-0.286
Mof_C 	C 	0.6068	0.112	0.3167	0.081
Mof_H 	H 	0.6	0.0667	0.2948	-0.023
Mof_C 	C 	0.5824	0.126	0.3463	-0.126
Mof_H 	H 	0.5586	0.0931	0.3434	0.084
Mof_C 	C 	0.59236	0.1868	0.3794	0.068
Mof_C 	C 	0.6271	0.2337	0.3812	-0.123
Mof_H 	H 	0.6353	0.277	0.4037	0.084
Mof_C 	C 	0.6493	0.2179	0.3508	0.074
Mof_H 	H 	0.6733	0.2499	0.353	-0.016
Mof_N 	N 	0.56851	0.5184	0.54747	-0.283
Mof_C 	C 	0.53721	0.4665	0.54607	0.073
Mof_H 	H 	0.5186	0.4831	0.5631	-0.011
Mof_C 	C 	0.53083	0.3892	0.5207	-0.119
Mof_H 	H 	0.5085	0.3527	0.5209	0.07
Mof_C 	C 	0.55727	0.3657	0.49497	0.048
Mof_C 	C 	0.5901	0.4201	0.4957	-0.116
Mof_H 	H 	0.6091	0.4057	0.4789	0.078
Mof_C 	C 	0.5936	0.4972	0.5226	0.066
Mof_H 	H 	0.6152	0.5361	0.5229	-0.022
Mof_N 	N 	0.42049	0.9875	0.44153	-0.28
Mof_C 	C 	0.4339	0.0011	0.4061	0.086
Mof_H 	H 	0.4213	0.9724	0.3797	-0.022
Mof_C 	C 	0.4661	0.0565	0.4053	-0.133
Mof_H 	H 	0.4755	0.065	0.3789	0.088
Mof_C 	C 	0.48378	0.0982	0.44311	0.058
Mof_C 	C 	0.46748	0.0898	0.4794	-0.131
Mof_H 	H 	0.4778	0.1224	0.5055	0.079
Mof_C 	C 	0.43561	0.0332	0.4775	0.079
Mof_H 	H 	0.4243	0.0269	0.5027	-0.01
Mof_C 	C 	0.56766	0.203	0.41174	0.101
Mof_N 	N 	0.57468	0.2751	0.43756	-0.136
Mof_C 	C 	0.55198	0.2838	0.46687	0.089
Mof_N 	N 	0.5234	0.226	0.47197	-0.149
Mof_C 	C 	0.51773	0.1591	0.44272	0.091
Mof_N 	N 	0.53828	0.1438	0.41212	-0.135
Mof_N 	N 	0.62194	0.5581	0.63974	-0.288
Mof_C 	C 	0.6159	0.4724	0.6465	0.085
Mof_H 	H 	0.5951	0.4427	0.6272	-0.014
Mof_C 	C 	0.6381	0.4231	0.6803	-0.134
Mof_H 	H 	0.6333	0.3605	0.6834	0.097
Mof_C 	C 	0.66705	0.4656	0.70886	0.071
Mof_C 	C 	0.67317	0.5551	0.7023	-0.14
Mof_H 	H 	0.6929	0.587	0.7219	0.077
Mof_C 	C 	0.6506	0.599	0.6671	0.079
Mof_H 	H 	0.6558	0.6608	0.6623	-0.023
Mof_N 	N 	0.83098	0.5347	0.89343	-0.275
Mof_C 	C 	0.8234	0.4489	0.8987	0.074
Mof_H 	H 	0.8387	0.4174	0.9228	-0.007
Mof_C 	C 	0.79409	0.4018	0.8705	-0.122
Mof_H 	H 	0.7896	0.3395	0.875	0.082
Mof_C 	C 	0.77174	0.448	0.83584	0.045
Mof_C 	C 	0.7798	0.539	0.8302	-0.124
Mof_H 	H 	0.7652	0.5724	0.8064	0.089
Mof_C 	C 	0.8092	0.5793	0.8597	0.067
Mof_H 	H 	0.8143	0.6415	0.8561	-0.004
Mof_N 	N 	0.68378	0.997	0.7756	-0.284
Mof_C 	C 	0.7135	0.0304	0.8031	0.081
Mof_H 	H 	0.7306	0.9899	0.8214	-0.019
Mof_C 	C 	0.7214	0.1226	0.8071	-0.128
Mof_H 	H 	0.7432	0.1442	0.8281	0.079
Mof_C 	C 	0.69749	0.1813	0.7804	0.06
Mof_C 	C 	0.6654	0.1459	0.7517	-0.121
Mof_H 	H 	0.6476	0.1848	0.7333	0.083
Mof_C 	C 	0.6595	0.0537	0.7503	0.068
Mof_H 	H 	0.6375	0.0299	0.7307	-0.017
Mof_C 	C 	0.69064	0.4134	0.74567	0.096
Mof_N 	N 	0.71967	0.4554	0.77261	-0.142
Mof_C 	C 	0.73968	0.403	0.80461	0.086
Mof_N 	N 	0.73353	0.3152	0.80981	-0.143
Mof_C 	C 	0.70463	0.2806	0.7799	0.103
Mof_N 	N 	0.68138	0.3263	0.74832	-0.135
Mof_Zn	Zn	0.6762	0.1398	0.2762	0.613
Mof_I 	I 	0.7395	0.2212	0.3043	-0.35
Mof_I 	I 	0.6322	0.167	0.2003	-0.061
Mof_Zn	Zn	0.5874	0.6166	0.5895	0.627
Mof_I 	I 	0.5264	0.6534	0.6212	-0.081
Mof_I 	I 	0.6245	0.7298	0.5524	-0.212
Mof_I 	I 	0.8858	0.7439	0.9065	-0.114
Mof_I 	I 	0.84952	0.6087	0.00789	-0.145
Mof_Zn	Zn	0.6261	0.90015	0.06181	1.162
Mof_Zn	Zn	0.831	0.3585	0.7339	0.592
Mof_I 	I 	0.77061	0.2636	0.7106	-0.023
Mof_I 	I 	0.87732	0.3416	0.80625	-0.324
Mof_Zn	Zn	0.91986	0.8697	0.4079	0.569
Mof_I 	I 	0.97554	0.84796	0.37112	-0.247
Mof_I 	I 	0.88328	0.7569	0.44502	-0.14
Mof_I 	I 	0.60463	0.7642	0.10114	-0.248
Mof_I 	I 	0.64429	0.9134	0.98742	-0.197
Mof_N 	N 	0.86102	0.3407	0.682	-0.286
Mof_C 	C 	0.8932	0.388	0.6833	0.081
Mof_H 	H 	0.9	0.4333	0.7052	-0.023
Mof_C 	C 	0.9176	0.374	0.6537	-0.126
Mof_H 	H 	0.9414	0.4069	0.6566	0.084
Mof_C 	C 	0.90764	0.3132	0.6206	0.068
Mof_C 	C 	0.8729	0.2663	0.6188	-0.123
Mof_H 	H 	0.8647	0.223	0.5963	0.084
Mof_C 	C 	0.8507	0.2821	0.6492	0.074
Mof_H 	H 	0.8267	0.2501	0.647	-0.016
Mof_N 	N 	0.93149	0.9816	0.45253	-0.283
Mof_C 	C 	0.96279	0.0335	0.45393	0.073
Mof_H 	H 	0.9814	0.0169	0.4369	-0.011
Mof_C 	C 	0.96917	0.1108	0.4793	-0.119
Mof_H 	H 	0.9915	0.1473	0.4791	0.07
Mof_C 	C 	0.94273	0.1343	0.50503	0.048
Mof_C 	C 	0.9099	0.0799	0.5043	-0.116
Mof_H 	H 	0.8909	0.0943	0.5211	0.078
Mof_C 	C 	0.9064	0.0028	0.4774	0.066
Mof_H 	H 	0.8848	0.9639	0.4771	-0.022
Mof_N 	N 	0.07951	0.5125	0.55847	-0.28
Mof_C 	C 	0.0661	0.4989	0.5939	0.086
Mof_H 	H 	0.0787	0.5276	0.6203	-0.022
Mof_C 	C 	0.0339	0.4435	0.5947	-0.133
Mof_H 	H 	0.0245	0.435	0.6211	0.088
Mof_C 	C 	0.01622	0.4018	0.55689	0.058
Mof_C 	C 	0.03252	0.4102	0.5206	-0.131
Mof_H 	H 	0.0222	0.3776	0.4945	0.079
Mof_C 	C 	0.06439	0.4668	0.5225	0.079
Mof_H 	H 	0.0757	0.4731	0.4973	-0.01
Mof_C 	C 	0.93234	0.297	0.58826	0.101
Mof_N 	N 	0.92532	0.2249	0.56244	-0.136
Mof_C 	C 	0.94802	0.2162	0.53313	0.089
Mof_N 	N 	0.9766	0.274	0.52803	-0.149
Mof_C 	C 	0.98227	0.3409	0.55728	0.091
Mof_N 	N 	0.96172	0.3562	0.58788	-0.135
Mof_N 	N 	0.87806	0.9419	0.36026	-0.288
Mof_C 	C 	0.8841	0.0276	0.3535	0.085
Mof_H 	H 	0.9049	0.0573	0.3728	-0.014
Mof_C 	C 	0.8619	0.0769	0.3197	-0.134
Mof_H 	H 	0.8667	0.1395	0.3166	0.097
Mof_C 	C 	0.83295	0.0344	0.29114	0.071
Mof_C 	C 	0.82683	0.9449	0.2977	-0.14
Mof_H 	H 	0.8071	0.913	0.2781	0.077
Mof_C 	C 	0.8494	0.901	0.3329	0.079
Mof_H 	H 	0.8442	0.8392	0.3377	-0.023
Mof_N 	N 	0.66902	0.9653	0.10657	-0.275
Mof_C 	C 	0.6766	0.0511	0.1013	0.074
Mof_H 	H 	0.6613	0.0826	0.0772	-0.007
Mof_C 	C 	0.70591	0.0982	0.1295	-0.122
Mof_H 	H 	0.7104	0.1605	0.125	0.082
Mof_C 	C 	0.72826	0.052	0.16416	0.045
Mof_C 	C 	0.7202	0.961	0.1698	-0.124
Mof_H 	H 	0.7348	0.9276	0.1936	0.089
Mof_C 	C 	0.6908	0.9207	0.1403	0.067
Mof_H 	H 	0.6857	0.8585	0.1439	-0.004
Mof_N 	N 	0.81622	0.503	0.2244	-0.284
Mof_C 	C 	0.7865	0.4696	0.1969	0.081
Mof_H 	H 	0.7694	0.5101	0.1786	-0.019
Mof_C 	C 	0.7786	0.3774	0.1929	-0.128
Mof_H 	H 	0.7568	0.3558	0.1719	0.079
Mof_C 	C 	0.80251	0.3187	0.2196	0.06
Mof_C 	C 	0.8346	0.3541	0.2483	-0.122
Mof_H 	H 	0.8524	0.3152	0.2667	0.083
Mof_C 	C 	0.8405	0.4463	0.2497	0.068
Mof_H 	H 	0.8625	0.4701	0.2693	-0.017
Mof_C 	C 	0.80936	0.0866	0.25433	0.096
Mof_N 	N 	0.78033	0.0446	0.22739	-0.142
Mof_C 	C 	0.76032	0.097	0.19539	0.086
Mof_N 	N 	0.76647	0.1848	0.19019	-0.143
Mof_C 	C 	0.79537	0.2194	0.2201	0.103
Mof_N 	N 	0.81862	0.1737	0.25168	-0.135
Mof_Zn	Zn	0.8238	0.3602	0.7238	0.613
Mof_I 	I 	0.7605	0.2788	0.6957	-0.35
Mof_I 	I 	0.8678	0.333	0.7997	-0.061
Mof_Zn	Zn	0.9126	0.8834	0.4105	0.627
Mof_I 	I 	0.9736	0.8466	0.3788	-0.081
Mof_I 	I 	0.8755	0.7702	0.4476	-0.212
Mof_I 	I 	0.6142	0.7561	0.0935	-0.114
Mof_I 	I 	0.65048	0.8913	0.99211	-0.145
Mof_Zn	Zn	0.1261	0.40015	0.06181	1.162
Mof_Zn	Zn	0.331	0.8585	0.7339	0.592
Mof_I 	I 	0.27061	0.7636	0.7106	-0.023
Mof_I 	I 	0.37732	0.8416	0.80625	-0.324
Mof_Zn	Zn	0.41986	0.3697	0.4079	0.569
Mof_I 	I 	0.47554	0.34796	0.37112	-0.247
Mof_I 	I 	0.38328	0.2569	0.44502	-0.14
Mof_I 	I 	0.10463	0.2642	0.10114	-0.248
Mof_I 	I 	0.14429	0.4134	0.98742	-0.197
Mof_N 	N 	0.36102	0.8407	0.682	-0.286
Mof_C 	C 	0.3932	0.888	0.6833	0.081
Mof_H 	H 	0.4	0.9333	0.7052	-0.023
Mof_C 	C 	0.4176	0.874	0.6537	-0.126
Mof_H 	H 	0.4414	0.9069	0.6566	0.084
Mof_C 	C 	0.40764	0.8132	0.6206	0.068
Mof_C 	C 	0.3729	0.7663	0.6188	-0.123
Mof_H 	H 	0.3647	0.723	0.5963	0.084
Mof_C 	C 	0.3507	0.7821	0.6492	0.074
Mof_H 	H 	0.3267	0.7501	0.647	-0.016
Mof_N 	N 	0.43149	0.4816	0.45253	-0.283
Mof_C 	C 	0.46279	0.5335	0.45393	0.073
Mof_H 	H 	0.4814	0.5169	0.4369	-0.011
Mof_C 	C 	0.46917	0.6108	0.4793	-0.119
Mof_H 	H 	0.4915	0.6473	0.4791	0.07
Mof_C 	C 	0.44273	0.6343	0.50503	0.048
Mof_C 	C 	0.4099	0.5799	0.5043	-0.116
Mof_H 	H 	0.3909	0.5943	0.5211	0.078
Mof_C 	C 	0.4064	0.5028	0.4774	0.066
Mof_H 	H 	0.3848	0.4639	0.4771	-0.022
Mof_N 	N 	0.57951	0.0125	0.55847	-0.28
Mof_C 	C 	0.5661	0.9989	0.5939	0.086
Mof_H 	H 	0.5787	0.0276	0.6203	-0.022
Mof_C 	C 	0.5339	0.9435	0.5947	-0.133
Mof_H 	H 	0.5245	0.935	0.6211	0.088
Mof_C 	C 	0.51622	0.9018	0.55689	0.058
Mof_C 	C 	0.53252	0.9102	0.5206	-0.131
Mof_H 	H 	0.5222	0.8776	0.4945	0.079
Mof_C 	C 	0.56439	0.9668	0.5225	0.079
Mof_H 	H 	0.5757	0.9731	0.4973	-0.01
Mof_C 	C 	0.43234	0.797	0.58826	0.101
Mof_N 	N 	0.42532	0.7249	0.56244	-0.136
Mof_C 	C 	0.44802	0.7162	0.53313	0.089
Mof_N 	N 	0.4766	0.774	0.52803	-0.149
Mof_C 	C 	0.48227	0.8409	0.55728	0.091
Mof_N 	N 	0.46172	0.8562	0.58788	-0.135
Mof_N 	N 	0.37806	0.4419	0.36026	-0.288
Mof_C 	C 	0.3841	0.5276	0.3535	0.085
Mof_H 	H 	0.4049	0.5573	0.3728	-0.014
Mof_C 	C 	0.3619	0.5769	0.3197	-0.134
Mof_H 	H 	0.3667	0.6395	0.3166	0.097
Mof_C 	C 	0.33295	0.5344	0.29114	0.071
Mof_C 	C 	0.32683	0.4449	0.2977	-0.14
Mof_H 	H 	0.3071	0.413	0.2781	0.077
Mof_C 	C 	0.3494	0.401	0.3329	0.079
Mof_H 	H 	0.3442	0.3392	0.3377	-0.023
Mof_N 	N 	0.16902	0.4653	0.10657	-0.275
Mof_C 	C 	0.1766	0.5511	0.1013	0.074
Mof_H 	H 	0.1613	0.5826	0.0772	-0.007
Mof_C 	C 	0.20591	0.5982	0.1295	-0.122
Mof_H 	H 	0.2104	0.6605	0.125	0.082
Mof_C 	C 	0.22826	0.552	0.16416	0.045
Mof_C 	C 	0.2202	0.461	0.1698	-0.124
Mof_H 	H 	0.2348	0.4276	0.1936	0.089
Mof_C 	C 	0.1908	0.4207	0.1403	0.067
Mof_H 	H 	0.1857	0.3585	0.1439	-0.004
Mof_N 	N 	0.31622	0.003	0.2244	-0.284
Mof_C 	C 	0.2865	0.9696	0.1969	0.081
Mof_H 	H 	0.2694	0.0101	0.1786	-0.019
Mof_C 	C 	0.2786	0.8774	0.1929	-0.128
Mof_H 	H 	0.2568	0.8558	0.1719	0.079
Mof_C 	C 	0.30251	0.8187	0.2196	0.06
Mof_C 	C 	0.3346	0.8541	0.2483	-0.121
Mof_H 	H 	0.3524	0.8152	0.2667	0.083
Mof_C 	C 	0.3405	0.9463	0.2497	0.068
Mof_H 	H 	0.3625	0.9701	0.2693	-0.017
Mof_C 	C 	0.30936	0.5866	0.25433	0.096
Mof_N 	N 	0.28033	0.5446	0.22739	-0.142
Mof_C 	C 	0.26032	0.597	0.19539	0.086
Mof_N 	N 	0.26647	0.6848	0.19019	-0.143
Mof_C 	C 	0.29537	0.7194	0.2201	0.103
Mof_N 	N 	0.31862	0.6737	0.25168	-0.135
Mof_Zn	Zn	0.3238	0.8602	0.7238	0.613
Mof_I 	I 	0.2605	0.7788	0.6957	-0.35
Mof_I 	I 	0.3678	0.833	0.7997	-0.061
Mof_Zn	Zn	0.4126	0.3834	0.4105	0.627
Mof_I 	I 	0.4736	0.3466	0.3788	-0.081
Mof_I 	I 	0.3755	0.2702	0.4476	-0.212
Mof_I 	I 	0.1142	0.2561	0.0935	-0.114
Mof_I 	I 	0.15048	0.3913	0.99211	-0.145
Mof_Zn	Zn	0.6261	0.09985	0.56181	1.162
Mof_Zn	Zn	0.831	0.6415	0.2339	0.592
Mof_I 	I 	0.77061	0.7364	0.2106	-0.023
Mof_I 	I 	0.87732	0.6584	0.30625	-0.324
Mof_Zn	Zn	0.91986	0.1303	0.9079	0.569
Mof_I 	I 	0.97554	0.15204	0.87112	-0.247
Mof_I 	I 	0.88328	0.2431	0.94502	-0.14
Mof_I 	I 	0.60463	0.2358	0.60114	-0.248
Mof_I 	I 	0.64429	0.0866	0.48742	-0.197
Mof_N 	N 	0.86102	0.6593	0.182	-0.286
Mof_C 	C 	0.8932	0.612	0.1833	0.081
Mof_H 	H 	0.9	0.5667	0.2052	-0.023
Mof_C 	C 	0.9176	0.626	0.1537	-0.126
Mof_H 	H 	0.9414	0.5931	0.1566	0.084
Mof_C 	C 	0.90764	0.6868	0.1206	0.068
Mof_C 	C 	0.8729	0.7337	0.1188	-0.123
Mof_H 	H 	0.8647	0.777	0.0963	0.084
Mof_C 	C 	0.8507	0.7179	0.1492	0.074
Mof_H 	H 	0.8267	0.7499	0.147	-0.016
Mof_N 	N 	0.93149	0.0184	0.95253	-0.283
Mof_C 	C 	0.96279	0.9665	0.95393	0.073
Mof_H 	H 	0.9814	0.9831	0.9369	-0.011
Mof_C 	C 	0.96917	0.8892	0.9793	-0.119
Mof_H 	H 	0.9915	0.8527	0.9791	0.07
Mof_C 	C 	0.94273	0.8657	0.00503	0.048
Mof_C 	C 	0.9099	0.9201	0.0043	-0.116
Mof_H 	H 	0.8909	0.9057	0.0211	0.078
Mof_C 	C 	0.9064	0.9972	0.9774	0.066
Mof_H 	H 	0.8848	0.0361	0.9771	-0.022
Mof_N 	N 	0.07951	0.4875	0.05847	-0.28
Mof_C 	C 	0.0661	0.5011	0.0939	0.086
Mof_H 	H 	0.0787	0.4724	0.1203	-0.022
Mof_C 	C 	0.0339	0.5565	0.0947	-0.133
Mof_H 	H 	0.0245	0.565	0.1211	0.088
Mof_C 	C 	0.01622	0.5982	0.05689	0.058
Mof_C 	C 	0.03252	0.5898	0.0206	-0.131
Mof_H 	H 	0.0222	0.6224	0.9945	0.079
Mof_C 	C 	0.06439	0.5332	0.0225	0.079
Mof_H 	H 	0.0757	0.5269	0.9973	-0.01
Mof_C 	C 	0.93234	0.703	0.08826	0.101
Mof_N 	N 	0.92532	0.7751	0.06244	-0.136
Mof_C 	C 	0.94802	0.7838	0.03313	0.089
Mof_N 	N 	0.9766	0.726	0.02803	-0.149
Mof_C 	C 	0.98227	0.6591	0.05728	0.091
Mof_N 	N 	0.96172	0.6438	0.08788	-0.135
Mof_N 	N 	0.87806	0.0581	0.86026	-0.288
Mof_C 	C 	0.8841	0.9724	0.8535	0.085
Mof_H 	H 	0.9049	0.9427	0.8728	-0.014
Mof_C 	C 	0.8619	0.9231	0.8197	-0.134
Mof_H 	H 	0.8667	0.8605	0.8166	0.097
Mof_C 	C 	0.83295	0.9656	0.79114	0.071
Mof_C 	C 	0.82683	0.0551	0.7977	-0.14
Mof_H 	H 	0.8071	0.087	0.7781	0.077
Mof_C 	C 	0.8494	0.099	0.8329	0.079
Mof_H 	H 	0.8442	0.1608	0.8377	-0.023
Mof_N 	N 	0.66902	0.0347	0.60657	-0.275
Mof_C 	C 	0.6766	0.9489	0.6013	0.074
Mof_H 	H 	0.6613	0.9174	0.5772	-0.007
Mof_C 	C 	0.70591	0.9018	0.6295	-0.122
Mof_H 	H 	0.7104	0.8395	0.625	0.082
Mof_C 	C 	0.72826	0.948	0.66416	0.045
Mof_C 	C 	0.7202	0.039	0.6698	-0.124
Mof_H 	H 	0.7348	0.0724	0.6936	0.089
Mof_C 	C 	0.6908	0.0793	0.6403	0.067
Mof_H 	H 	0.6857	0.1415	0.6439	-0.004
Mof_N 	N 	0.81622	0.497	0.7244	-0.284
Mof_C 	C 	0.7865	0.5304	0.6969	0.081
Mof_H 	H 	0.7694	0.4899	0.6786	-0.019
Mof_C 	C 	0.7786	0.6226	0.6929	-0.128
Mof_H 	H 	0.7568	0.6442	0.6719	0.079
Mof_C 	C 	0.80251	0.6813	0.7196	0.06
Mof_C 	C 	0.8346	0.6459	0.7483	-0.122
Mof_H 	H 	0.8524	0.6848	0.7667	0.083
Mof_C 	C 	0.8405	0.5537	0.7497	0.068
Mof_H 	H 	0.8625	0.5299	0.7693	-0.017
Mof_C 	C 	0.80936	0.9134	0.75433	0.096
Mof_N 	N 	0.78033	0.9554	0.72739	-0.142
Mof_C 	C 	0.76032	0.903	0.69539	0.086
Mof_N 	N 	0.76647	0.8152	0.69019	-0.143
Mof_C 	C 	0.79537	0.7806	0.7201	0.103
Mof_N 	N 	0.81862	0.8263	0.75168	-0.135
Mof_Zn	Zn	0.8238	0.6398	0.2238	0.613
Mof_I 	I 	0.7605	0.7212	0.1957	-0.35
Mof_I 	I 	0.8678	0.667	0.2997	-0.061
Mof_Zn	Zn	0.9126	0.1166	0.9105	0.627
Mof_I 	I 	0.9736	0.1534	0.8788	-0.081
Mof_I 	I 	0.8755	0.2298	0.9476	-0.212
Mof_I 	I 	0.6142	0.2439	0.5935	-0.114
Mof_I 	I 	0.65048	0.1087	0.49211	-0.145
Mof_Zn	Zn	0.1261	0.59985	0.56181	1.162
Mof_Zn	Zn	0.331	0.1415	0.2339	0.592
Mof_I 	I 	0.27061	0.2364	0.2106	-0.023
Mof_I 	I 	0.37732	0.1584	0.30625	-0.324
Mof_Zn	Zn	0.41986	0.6303	0.9079	0.569
Mof_I 	I 	0.47554	0.65204	0.87112	-0.247
Mof_I 	I 	0.38328	0.7431	0.94502	-0.14
Mof_I 	I 	0.10463	0.7358	0.60114	-0.248
Mof_I 	I 	0.14429	0.5866	0.48742	-0.197
Mof_N 	N 	0.36102	0.1593	0.182	-0.286
Mof_C 	C 	0.3932	0.112	0.1833	0.081
Mof_H 	H 	0.4	0.0667	0.2052	-0.023
Mof_C 	C 	0.4176	0.126	0.1537	-0.126
Mof_H 	H 	0.4414	0.0931	0.1566	0.084
Mof_C 	C 	0.40764	0.1868	0.1206	0.068
Mof_C 	C 	0.3729	0.2337	0.1188	-0.123
Mof_H 	H 	0.3647	0.277	0.0963	0.084
Mof_C 	C 	0.3507	0.2179	0.1492	0.074
Mof_H 	H 	0.3267	0.2499	0.147	-0.016
Mof_N 	N 	0.43149	0.5184	0.95253	-0.283
Mof_C 	C 	0.46279	0.4665	0.95393	0.073
Mof_H 	H 	0.4814	0.4831	0.9369	-0.011
Mof_C 	C 	0.46917	0.3892	0.9793	-0.119
Mof_H 	H 	0.4915	0.3527	0.9791	0.07
Mof_C 	C 	0.44273	0.3657	0.00503	0.048
Mof_C 	C 	0.4099	0.4201	0.0043	-0.116
Mof_H 	H 	0.3909	0.4057	0.0211	0.078
Mof_C 	C 	0.4064	0.4972	0.9774	0.066
Mof_H 	H 	0.3848	0.5361	0.9771	-0.022
Mof_N 	N 	0.57951	0.9875	0.05847	-0.28
Mof_C 	C 	0.5661	0.0011	0.0939	0.087
Mof_H 	H 	0.5787	0.9724	0.1203	-0.022
Mof_C 	C 	0.5339	0.0565	0.0947	-0.133
Mof_H 	H 	0.5245	0.065	0.1211	0.088
Mof_C 	C 	0.51622	0.0982	0.05689	0.058
Mof_C 	C 	0.53252	0.0898	0.0206	-0.131
Mof_H 	H 	0.5222	0.1224	0.9945	0.079
Mof_C 	C 	0.56439	0.0332	0.0225	0.079
Mof_H 	H 	0.5757	0.0269	0.9973	-0.011
Mof_C 	C 	0.43234	0.203	0.08826	0.101
Mof_N 	N 	0.42532	0.2751	0.06244	-0.136
Mof_C 	C 	0.44802	0.2838	0.03313	0.089
Mof_N 	N 	0.4766	0.226	0.02803	-0.149
Mof_C 	C 	0.48227	0.1591	0.05728	0.091
Mof_N 	N 	0.46172	0.1438	0.08788	-0.135
Mof_N 	N 	0.37806	0.5581	0.86026	-0.288
Mof_C 	C 	0.3841	0.4724	0.8535	0.085
Mof_H 	H 	0.4049	0.4427	0.8728	-0.014
Mof_C 	C 	0.3619	0.4231	0.8197	-0.134
Mof_H 	H 	0.3667	0.3605	0.8166	0.097
Mof_C 	C 	0.33295	0.4656	0.79114	0.071
Mof_C 	C 	0.32683	0.5551	0.7977	-0.14
Mof_H 	H 	0.3071	0.587	0.7781	0.077
Mof_C 	C 	0.3494	0.599	0.8329	0.079
Mof_H 	H 	0.3442	0.6608	0.8377	-0.023
Mof_N 	N 	0.16902	0.5347	0.60657	-0.275
Mof_C 	C 	0.1766	0.4489	0.6013	0.074
Mof_H 	H 	0.1613	0.4174	0.5772	-0.007
Mof_C 	C 	0.20591	0.4018	0.6295	-0.122
Mof_H 	H 	0.2104	0.3395	0.625	0.082
Mof_C 	C 	0.22826	0.448	0.66416	0.045
Mof_C 	C 	0.2202	0.539	0.6698	-0.124
Mof_H 	H 	0.2348	0.5724	0.6936	0.089
Mof_C 	C 	0.1908	0.5793	0.6403	0.067
Mof_H 	H 	0.1857	0.6415	0.6439	-0.004
Mof_N 	N 	0.31622	0.997	0.7244	-0.284
Mof_C 	C 	0.2865	0.0304	0.6969	0.081
Mof_H 	H 	0.2694	0.9899	0.6786	-0.019
Mof_C 	C 	0.2786	0.1226	0.6929	-0.128
Mof_H 	H 	0.2568	0.1442	0.6719	0.079
Mof_C 	C 	0.30251	0.1813	0.7196	0.06
Mof_C 	C 	0.3346	0.1459	0.7483	-0.121
Mof_H 	H 	0.3524	0.1848	0.7667	0.083
Mof_C 	C 	0.3405	0.0537	0.7497	0.068
Mof_H 	H 	0.3625	0.0299	0.7693	-0.017
Mof_C 	C 	0.30936	0.4134	0.75433	0.096
Mof_N 	N 	0.28033	0.4554	0.72739	-0.142
Mof_C 	C 	0.26032	0.403	0.69539	0.086
Mof_N 	N 	0.26647	0.3152	0.69019	-0.143
Mof_C 	C 	0.29537	0.2806	0.7201	0.103
Mof_N 	N 	0.31862	0.3263	0.75168	-0.135
Mof_Zn	Zn	0.3238	0.1398	0.2238	0.613
Mof_I 	I 	0.2605	0.2212	0.1957	-0.35
Mof_I 	I 	0.3678	0.167	0.2997	-0.061
Mof_Zn	Zn	0.4126	0.6166	0.9105	0.627
Mof_I 	I 	0.4736	0.6534	0.8788	-0.081
Mof_I 	I 	0.3755	0.7298	0.9476	-0.212
Mof_I 	I 	0.1142	0.7439	0.5935	-0.114
Mof_I 	I 	0.15048	0.6087	0.49211	-0.145
_end
