data_functionalizedCrystal
_audit_creation_method	'EQeq! by Chris Wilmer'
_symmetry_space_group_name_H-M	'P1'
_symmetry_Int_Tables_number	1
_symmetry_cell_setting	triclinic
loop_
_symmetry_equiv_pos_as_xyz
  x,y,z
_cell_length_a	10.9268
_cell_length_b	17.775
_cell_length_c	16.874
_cell_angle_alpha	90.211
_cell_angle_beta	90
_cell_angle_gamma	90
loop_
_atom_site_label
_atom_site_type_symbol
_atom_site_fract_x
_atom_site_fract_y
_atom_site_fract_z
_atom_site_charge
Mof_Eu	Eu	0.59065	0.83086	0.40776	2.434
Mof_Eu	Eu	0.03898	0.33237	0.9738	2.018
Mof_Eu	Eu	0.396	0.82926	0.62467	2.392
Mof_Eu	Eu	0.604	0.82926	0.12467	2.402
Mof_Eu	Eu	0.14122	0.3256	0.26085	2.391
Mof_Eu	Eu	0.40935	0.83086	0.90776	2.195
Mof_Eu	Eu	0.96102	0.33237	0.4738	2.236
Mof_Eu	Eu	0.85878	0.3256	0.76085	2.363
Mof_H 	H 	0.7453	0.0081	0.0706	0.001
Mof_H 	H 	0.6168	0.6367	0.8178	0.042
Mof_H 	H 	0.834	0.1351	0.0581	0.009
Mof_H 	H 	0.4322	0.7868	0.2691	0.22
Mof_H 	H 	0.5678	0.7868	0.7691	0.214
Mof_H 	H 	0.715	0.5104	0.8012	0.008
Mof_H 	H 	0.8734	0.5442	0.4905	0.027
Mof_H 	H 	0.7749	0.6674	0.4759	-0.008
Mof_H 	H 	0.3832	0.6367	0.3178	0.031
Mof_H 	H 	0.395	0.0244	0.2137	0.047
Mof_H 	H 	0.218	0.1655	0.9129	-0.018
Mof_H 	H 	0.4327	0.8741	0.2689	0.213
Mof_H 	H 	0.2251	0.6674	0.9759	-0.131
Mof_H 	H 	0.285	0.5104	0.3012	0.014
Mof_H 	H 	0.1266	0.5442	0.9905	-0.094
Mof_H 	H 	0.3434	0.0493	0.8941	0.02
Mof_H 	H 	0.6967	0.1494	0.728	0.006
Mof_H 	H 	0.3033	0.1494	0.228	0.009
Mof_H 	H 	0.9123	0.5139	0.1557	0.058
Mof_H 	H 	0.0877	0.5139	0.6557	0.04
Mof_H 	H 	0.166	0.1351	0.5581	0.03
Mof_H 	H 	0.782	0.1655	0.4129	0.009
Mof_H 	H 	0.8063	0.6374	0.1407	0.036
Mof_H 	H 	0.2547	0.0081	0.5706	0.026
Mof_H 	H 	0.1937	0.6374	0.6407	0.016
Mof_H 	H 	0.5673	0.8741	0.7689	0.207
Mof_H 	H 	0.605	0.0244	0.7137	0.047
Mof_H 	H 	0.6566	0.0493	0.3941	0.039
Mof_C 	C 	0.0658	0.2202	0.7922	0.44
Mof_C 	C 	0.7832	0.1362	0.3671	0.01
Mof_C 	C 	0.1824	0.4517	0.1169	0.549
Mof_C 	C 	0.305	0.7074	0.7702	0.497
Mof_C 	C 	0.1464	0.5108	0.7699	-0.14
Mof_C 	C 	0.705	0.119	0.6834	0.03
Mof_C 	C 	0.2168	0.1362	0.8671	0.004
Mof_C 	C 	0.6516	0.7206	0.9566	0.339
Mof_C 	C 	0.2785	0.5402	0.3465	0.015
Mof_C 	C 	0.3027	0.9552	0.7627	0.528
Mof_C 	C 	0.21	0.1106	0.5185	0.016
Mof_C 	C 	0.346	0.0465	0.175	-0.012
Mof_C 	C 	0.295	0.119	0.1834	0.033
Mof_C 	C 	0.7833	0.5214	0.9108	-0.161
Mof_C 	C 	0.79	0.1106	0.0185	0.142
Mof_C 	C 	0.8176	0.4517	0.6169	0.537
Mof_C 	C 	0.8151	0.5634	0.5253	0.002
Mof_C 	C 	0.672	0.6488	0.5734	-0.168
Mof_C 	C 	0.8133	0.2122	0.9133	0.564
Mof_C 	C 	0.681	0.0126	0.6072	-0.113
Mof_C 	C 	0.1849	0.5634	0.0253	0.161
Mof_C 	C 	0.2432	0.6341	0.0167	0.177
Mof_C 	C 	0.851	0.1532	0.302	-0.143
Mof_C 	C 	0.3655	0.9384	0.0792	0.454
Mof_C 	C 	0.5901	0.7157	0.5827	0.502
Mof_C 	C 	0.1311	0.5381	0.6958	-0.011
Mof_C 	C 	0.9342	0.2202	0.2922	0.452
Mof_C 	C 	0.695	0.7074	0.2702	0.507
Mof_C 	C 	0.319	0.0126	0.1072	-0.113
Mof_C 	C 	0.8084	0.6102	0.1877	0.031
Mof_C 	C 	0.3274	0.0179	0.4636	-0.124
Mof_C 	C 	0.7427	0.0326	0.2854	-0.135
Mof_C 	C 	0.1867	0.2122	0.4133	0.538
Mof_C 	C 	0.6649	0.6139	0.8563	-0.032
Mof_C 	C 	0.6896	0.645	0.9264	-0.112
Mof_C 	C 	0.6973	0.9552	0.2627	0.542
Mof_C 	C 	0.8536	0.5108	0.2699	-0.142
Mof_C 	C 	0.149	0.1532	0.802	-0.146
Mof_C 	C 	0.7572	0.6328	0.2534	-0.16
Mof_C 	C 	0.7568	0.6341	0.5167	0.021
Mof_C 	C 	0.7215	0.5402	0.8465	0.02
Mof_C 	C 	0.2167	0.5214	0.4108	-0.166
Mof_C 	C 	0.1515	0.4494	0.4254	0.49
Mof_C 	C 	0.6046	0.9467	0.9553	0.311
Mof_C 	C 	0.3954	0.9467	0.4553	0.427
Mof_C 	C 	0.2573	0.0326	0.7854	-0.133
Mof_C 	C 	0.1692	0.212	0.0976	0.539
Mof_C 	C 	0.7363	0.0381	0.026	0.11
Mof_C 	C 	0.7131	0.0676	0.3576	-0.004
Mof_C 	C 	0.8485	0.4494	0.9254	0.482
Mof_C 	C 	0.3351	0.6139	0.3563	0.007
Mof_C 	C 	0.7704	0.1388	0.615	-0.182
Mof_C 	C 	0.3484	0.7206	0.4566	0.506
Mof_C 	C 	0.2637	0.0381	0.526	-0.002
Mof_C 	C 	0.4099	0.7157	0.0827	0.514
Mof_C 	C 	0.2321	0.1392	0.4448	-0.168
Mof_C 	C 	0.2869	0.0676	0.8576	-0.019
Mof_C 	C 	0.6726	0.0179	0.9636	-0.228
Mof_C 	C 	0.6345	0.9384	0.5792	0.456
Mof_C 	C 	0.654	0.0465	0.675	-0.019
Mof_C 	C 	0.7749	0.5278	0.5907	-0.173
Mof_C 	C 	0.2296	0.1388	0.115	-0.176
Mof_C 	C 	0.0948	0.439	0.8007	0.471
Mof_C 	C 	0.1916	0.6102	0.6877	0.024
Mof_C 	C 	0.2428	0.6328	0.7534	-0.158
Mof_C 	C 	0.328	0.6488	0.0734	-0.2
Mof_C 	C 	0.3104	0.645	0.4264	-0.16
Mof_C 	C 	0.9052	0.439	0.3007	0.48
Mof_C 	C 	0.2251	0.5278	0.0907	-0.212
Mof_C 	C 	0.7679	0.1392	0.9448	-0.297
Mof_C 	C 	0.8308	0.212	0.5976	0.549
Mof_C 	C 	0.8689	0.5381	0.1958	-0.003
Mof_S 	S 	0.2259	0.56954	0.8296	0.037
Mof_S 	S 	0.6699	0.57844	0.64296	0.075
Mof_S 	S 	0.3222	0.08172	0.3896	0.086
Mof_S 	S 	0.7723	0.06773	0.5484	0.083
Mof_S 	S 	0.2228	0.58766	0.4849	0.074
Mof_S 	S 	0.8382	0.08538	0.2297	0.081
Mof_S 	S 	0.3301	0.57844	0.14296	0.112
Mof_S 	S 	0.2277	0.06773	0.0484	0.152
Mof_S 	S 	0.1618	0.08538	0.7297	0.068
Mof_S 	S 	0.7741	0.56954	0.3296	0.066
Mof_S 	S 	0.6778	0.08172	0.8896	0.107
Mof_S 	S 	0.7772	0.58766	0.9849	-0.023
Mof_O 	O 	0.4858	0.8303	0.2695	-0.674
Mof_O 	O 	0.6702	0.942	0.1957	-0.606
Mof_O 	O 	0.6914	0.9107	0.3207	-0.631
Mof_O 	O 	0.1511	0.3998	0.3726	-0.681
Mof_O 	O 	0.4521	0.9357	0.3877	-0.514
Mof_O 	O 	0.2029	0.4326	0.1875	-0.584
Mof_O 	O 	0.0921	0.4412	0.4893	-0.519
Mof_O 	O 	0.3526	0.7193	0.8356	-0.565
Mof_O 	O 	0.1081	0.4256	0.8715	-0.525
Mof_O 	O 	0.9486	0.2629	0.3512	-0.629
Mof_O 	O 	0.8919	0.4256	0.3715	-0.533
Mof_O 	O 	0.5938	0.7609	0.9075	-0.533
Mof_O 	O 	0.4163	0.8977	0.1263	-0.567
Mof_O 	O 	0.8746	0.4112	0.5692	-0.619
Mof_O 	O 	0.2082	0.2268	0.3431	-0.613
Mof_O 	O 	0.8489	0.3998	0.8726	-0.674
Mof_O 	O 	0.0128	0.2289	0.7276	-0.507
Mof_O 	O 	0.7072	0.7564	0.2138	-0.612
Mof_O 	O 	0.7918	0.2268	0.8431	-0.622
Mof_O 	O 	0.5996	0.8997	0.0088	-0.548
Mof_O 	O 	0.6474	0.7193	0.3356	-0.578
Mof_O 	O 	0.536	0.7234	0.6452	-0.538
Mof_O 	O 	0.7971	0.4326	0.6875	-0.588
Mof_O 	O 	0.4062	0.7609	0.4075	-0.57
Mof_O 	O 	0.9596	0.3972	0.2494	-0.553
Mof_O 	O 	0.0514	0.2629	0.8512	-0.612
Mof_O 	O 	0.5479	0.9357	0.8877	-0.486
Mof_O 	O 	0.0404	0.3972	0.7494	-0.554
Mof_O 	O 	0.5837	0.8977	0.6263	-0.576
Mof_O 	O 	0.464	0.7234	0.1452	-0.536
Mof_O 	O 	0.1071	0.2189	0.0409	-0.507
Mof_O 	O 	0.3397	0.9221	0.0059	-0.472
Mof_O 	O 	0.2011	0.2648	0.1464	-0.612
Mof_O 	O 	0.6737	0.7375	0.0266	-0.444
Mof_O 	O 	0.8688	0.2525	0.9627	-0.615
Mof_O 	O 	0.7989	0.2648	0.6464	-0.632
Mof_O 	O 	0.9872	0.2289	0.2276	-0.507
Mof_O 	O 	0.5142	0.8303	0.7695	-0.657
Mof_O 	O 	0.4123	0.7613	0.0256	-0.592
Mof_O 	O 	0.3298	0.942	0.6957	-0.607
Mof_O 	O 	0.5877	0.7613	0.5256	-0.666
Mof_O 	O 	0.1312	0.2525	0.4627	-0.592
Mof_O 	O 	0.9079	0.4412	0.9893	-0.536
Mof_O 	O 	0.3263	0.7375	0.5266	-0.568
Mof_O 	O 	0.2928	0.7564	0.7138	-0.611
Mof_O 	O 	0.4004	0.8997	0.5088	-0.665
Mof_O 	O 	0.6603	0.9221	0.5059	-0.553
Mof_O 	O 	0.3086	0.9107	0.8207	-0.617
Mof_O 	O 	0.8929	0.2189	0.5409	-0.591
Mof_O 	O 	0.1254	0.4112	0.0692	-0.541
_end
