data_functionalizedCrystal
_audit_creation_method	'EQeq! by Chris Wilmer'
_symmetry_space_group_name_H-M	'P1'
_symmetry_Int_Tables_number	1
_symmetry_cell_setting	triclinic
loop_
_symmetry_equiv_pos_as_xyz
  x,y,z
_cell_length_a	10.241
_cell_length_b	13.769
_cell_length_c	13.326
_cell_angle_alpha	90
_cell_angle_beta	90.768
_cell_angle_gamma	90
loop_
_atom_site_label
_atom_site_type_symbol
_atom_site_fract_x
_atom_site_fract_y
_atom_site_fract_z
_atom_site_charge
Mof_Cd	Cd	0.14404	0.42412	0.06183	0.494
Mof_O 	O 	0.62268	0.54692	0.92271	-0.239
Mof_O 	O 	0.71302	0.65649	0.82574	-0.241
Mof_O 	O 	0.01745	0.64862	0.85162	-0.257
Mof_O 	O 	0.43765	0.83245	0.57318	-0.248
Mof_O 	O 	0.12753	0.54545	0.94673	-0.275
Mof_O 	O 	0.23048	0.7938	0.5591	-0.228
Mof_C 	C 	0.3497	0.73074	0.69893	-0.054
Mof_C 	C 	0.2462	0.64335	0.83316	-0.06
Mof_C 	C 	0.4811	0.64542	0.82233	-0.05
Mof_C 	C 	0.1216	0.61041	0.88138	0.321
Mof_C 	C 	0.2373	0.70098	0.74706	0.01
Mof_H 	H 	0.1559	0.7194	0.722	0.071
Mof_C 	C 	0.6141	0.61455	0.85938	0.295
Mof_C 	C 	0.3681	0.61487	0.8697	0.009
Mof_H 	H 	0.3741	0.5752	0.9261	0.075
Mof_C 	C 	0.4711	0.70474	0.73775	0.006
Mof_H 	H 	0.5464	0.7271	0.7071	0.07
Mof_C 	C 	0.3378	0.79026	0.60425	0.299
Mof_Cd	Cd	0.35597	0.92412	0.43817	0.497
Mof_O 	O 	0.87732	0.04692	0.57729	-0.239
Mof_O 	O 	0.78698	0.15649	0.67426	-0.24
Mof_O 	O 	0.48255	0.14862	0.64838	-0.258
Mof_O 	O 	0.06235	0.33245	0.92682	-0.246
Mof_O 	O 	0.37247	0.04545	0.55327	-0.276
Mof_O 	O 	0.26952	0.2938	0.9409	-0.227
Mof_C 	C 	0.1503	0.23074	0.80107	-0.056
Mof_C 	C 	0.2538	0.14335	0.66684	-0.062
Mof_C 	C 	0.0189	0.14542	0.67767	-0.05
Mof_C 	C 	0.3784	0.11041	0.61862	0.322
Mof_C 	C 	0.2627	0.20098	0.75294	0.011
Mof_H 	H 	0.3441	0.2194	0.778	0.07
Mof_C 	C 	0.8859	0.11455	0.64062	0.294
Mof_C 	C 	0.1319	0.11487	0.6303	0.01
Mof_H 	H 	0.1259	0.0752	0.5739	0.074
Mof_C 	C 	0.0289	0.20474	0.76225	0.011
Mof_H 	H 	0.9536	0.2271	0.7929	0.067
Mof_C 	C 	0.1622	0.29026	0.89575	0.3
Mof_Cd	Cd	0.85597	0.57588	0.93817	0.494
Mof_O 	O 	0.37732	0.45308	0.07729	-0.239
Mof_O 	O 	0.28698	0.34351	0.17426	-0.241
Mof_O 	O 	0.98255	0.35138	0.14838	-0.257
Mof_O 	O 	0.56235	0.16755	0.42682	-0.248
Mof_O 	O 	0.87247	0.45455	0.05327	-0.275
Mof_O 	O 	0.76952	0.2062	0.4409	-0.228
Mof_C 	C 	0.6503	0.26926	0.30107	-0.054
Mof_C 	C 	0.7538	0.35665	0.16684	-0.06
Mof_C 	C 	0.5189	0.35458	0.17767	-0.05
Mof_C 	C 	0.8784	0.38959	0.11862	0.321
Mof_C 	C 	0.7627	0.29902	0.25294	0.01
Mof_H 	H 	0.8441	0.2806	0.278	0.071
Mof_C 	C 	0.3859	0.38545	0.14062	0.295
Mof_C 	C 	0.6319	0.38513	0.1303	0.009
Mof_H 	H 	0.6259	0.4248	0.0739	0.075
Mof_C 	C 	0.5289	0.29526	0.26225	0.006
Mof_H 	H 	0.4536	0.2729	0.2929	0.07
Mof_C 	C 	0.6622	0.20974	0.39575	0.299
Mof_Cd	Cd	0.64404	0.07588	0.56183	0.497
Mof_O 	O 	0.12268	0.95308	0.42271	-0.239
Mof_O 	O 	0.21302	0.84351	0.32574	-0.24
Mof_O 	O 	0.51745	0.85138	0.35162	-0.258
Mof_O 	O 	0.93765	0.66755	0.07318	-0.246
Mof_O 	O 	0.62753	0.95455	0.44673	-0.276
Mof_O 	O 	0.73048	0.7062	0.0591	-0.227
Mof_C 	C 	0.8497	0.76926	0.19893	-0.056
Mof_C 	C 	0.7462	0.85665	0.33316	-0.062
Mof_C 	C 	0.9811	0.85458	0.32233	-0.05
Mof_C 	C 	0.6216	0.88959	0.38138	0.322
Mof_C 	C 	0.7373	0.79902	0.24706	0.011
Mof_H 	H 	0.6559	0.7806	0.222	0.07
Mof_C 	C 	0.1141	0.88545	0.35938	0.294
Mof_C 	C 	0.8681	0.88513	0.3697	0.01
Mof_H 	H 	0.8741	0.9248	0.4261	0.074
Mof_C 	C 	0.9711	0.79526	0.23775	0.011
Mof_H 	H 	0.0464	0.7729	0.2071	0.067
Mof_C 	C 	0.8378	0.70974	0.10425	0.3
_end
