data_functionalizedCrystal
_audit_creation_method	'EQeq! by Chris Wilmer'
_symmetry_space_group_name_H-M	'P1'
_symmetry_Int_Tables_number	1
_symmetry_cell_setting	triclinic
loop_
_symmetry_equiv_pos_as_xyz
  x,y,z
_cell_length_a	10.2031
_cell_length_b	11.4588
_cell_length_c	17.5346
_cell_angle_alpha	90
_cell_angle_beta	90
_cell_angle_gamma	109.874
loop_
_atom_site_label
_atom_site_type_symbol
_atom_site_fract_x
_atom_site_fract_y
_atom_site_fract_z
_atom_site_charge
Mof_Eu	Eu	0.4906	0.31895	0.99272	2.494
Mof_Eu	Eu	0.5094	0.18105	0.49272	2.492
Mof_Eu	Eu	0.5094	0.68105	0.00728	2.494
Mof_Eu	Eu	0.4906	0.81895	0.50728	2.492
Mof_H 	H 	0.4008	0.3654	0.7149	0.065
Mof_H 	H 	0.4484	0.4633	0.5986	0.049
Mof_H 	H 	0.645	0.7834	0.6979	0.048
Mof_H 	H 	0.5891	0.6943	0.8166	0.03
Mof_H 	H 	0.0184	0.2114	0.0086	0.075
Mof_H 	H 	0.7808	0.1536	0.0262	0.069
Mof_H 	H 	0.8254	0.4723	0.1255	0.036
Mof_H 	H 	0.0632	0.5389	0.107	0.052
Mof_H 	H 	0.5992	0.1346	0.2149	0.061
Mof_H 	H 	0.5516	0.0367	0.0986	0.054
Mof_H 	H 	0.355	0.7166	0.1979	0.049
Mof_H 	H 	0.4109	0.8057	0.3166	0.028
Mof_H 	H 	0.9816	0.2886	0.5086	0.07
Mof_H 	H 	0.2192	0.3464	0.5262	0.07
Mof_H 	H 	0.1746	0.0277	0.6255	0.034
Mof_H 	H 	0.9368	0.9611	0.607	0.057
Mof_H 	H 	0.5992	0.6346	0.2851	0.065
Mof_H 	H 	0.5516	0.5367	0.4014	0.049
Mof_H 	H 	0.355	0.2166	0.3021	0.048
Mof_H 	H 	0.4109	0.3057	0.1834	0.03
Mof_H 	H 	0.9816	0.7886	0.9914	0.075
Mof_H 	H 	0.2192	0.8464	0.9738	0.069
Mof_H 	H 	0.1746	0.5277	0.8745	0.036
Mof_H 	H 	0.9368	0.4611	0.893	0.052
Mof_H 	H 	0.4008	0.8654	0.7851	0.061
Mof_H 	H 	0.4484	0.9633	0.9014	0.054
Mof_H 	H 	0.645	0.2834	0.8021	0.049
Mof_H 	H 	0.5891	0.1943	0.6834	0.028
Mof_H 	H 	0.0184	0.7114	0.4914	0.07
Mof_H 	H 	0.7808	0.6536	0.4738	0.07
Mof_H 	H 	0.8254	0.9723	0.3745	0.034
Mof_H 	H 	0.0632	0.0389	0.393	0.057
Mof_C 	C 	0.462	0.4575	0.856	0.459
Mof_C 	C 	0.4914	0.52	0.7789	-0.106
Mof_C 	C 	0.4491	0.4502	0.7122	-0.015
Mof_C 	C 	0.4796	0.5086	0.643	0.034
Mof_C 	C 	0.5947	0.6991	0.7019	0.008
Mof_C 	C 	0.5628	0.6459	0.7729	0.009
Mof_C 	C 	0.2229	0.4266	0.0382	0.493
Mof_C 	C 	0.0697	0.3831	0.0545	-0.106
Mof_C 	C 	0.9811	0.2664	0.0314	-0.01
Mof_C 	C 	0.839	0.2316	0.0418	0.013
Mof_C 	C 	0.8657	0.4214	0.1004	0.013
Mof_C 	C 	0.008	0.4606	0.0902	-0.011
Mof_C 	C 	0.538	0.0425	0.356	0.462
Mof_C 	C 	0.5086	0.98	0.2789	-0.113
Mof_C 	C 	0.5509	0.0498	0.2122	-0.004
Mof_C 	C 	0.5204	0.9914	0.143	0.023
Mof_C 	C 	0.4053	0.8009	0.2019	0.005
Mof_C 	C 	0.4372	0.8541	0.2729	0.013
Mof_C 	C 	0.7771	0.0734	0.5382	0.491
Mof_C 	C 	0.9303	0.1169	0.5545	-0.108
Mof_C 	C 	0.0189	0.2336	0.5314	-0.002
Mof_C 	C 	0.161	0.2684	0.5418	0.009
Mof_C 	C 	0.1343	0.0786	0.6004	0.019
Mof_C 	C 	0.992	0.0394	0.5902	-0.019
Mof_C 	C 	0.538	0.5425	0.144	0.459
Mof_C 	C 	0.5086	0.48	0.2211	-0.106
Mof_C 	C 	0.5509	0.5498	0.2878	-0.015
Mof_C 	C 	0.5204	0.4914	0.357	0.034
Mof_C 	C 	0.4053	0.3009	0.2981	0.008
Mof_C 	C 	0.4372	0.3541	0.2271	0.009
Mof_C 	C 	0.7771	0.5734	0.9618	0.493
Mof_C 	C 	0.9303	0.6169	0.9455	-0.106
Mof_C 	C 	0.0189	0.7336	0.9686	-0.01
Mof_C 	C 	0.161	0.7684	0.9582	0.013
Mof_C 	C 	0.1343	0.5786	0.8996	0.013
Mof_C 	C 	0.992	0.5394	0.9098	-0.011
Mof_C 	C 	0.462	0.9575	0.644	0.462
Mof_C 	C 	0.4914	0.02	0.7211	-0.113
Mof_C 	C 	0.4491	0.9502	0.7878	-0.004
Mof_C 	C 	0.4796	0.0086	0.857	0.023
Mof_C 	C 	0.5947	0.1991	0.7981	0.005
Mof_C 	C 	0.5628	0.1459	0.7271	0.013
Mof_C 	C 	0.2229	0.9266	0.4618	0.491
Mof_C 	C 	0.0697	0.8831	0.4455	-0.108
Mof_C 	C 	0.9811	0.7664	0.4686	-0.002
Mof_C 	C 	0.839	0.7316	0.4582	0.009
Mof_C 	C 	0.8657	0.9214	0.3996	0.019
Mof_C 	C 	0.008	0.9606	0.4098	-0.019
Mof_N 	N 	0.2682	0.0909	0.0319	0.074
Mof_N 	N 	0.554	0.6305	0.6381	-0.037
Mof_N 	N 	0.7853	0.3108	0.0746	-0.045
Mof_N 	N 	0.7318	0.4091	0.5319	0.072
Mof_N 	N 	0.446	0.8695	0.1381	-0.034
Mof_N 	N 	0.2147	0.1892	0.5746	-0.045
Mof_N 	N 	0.7318	0.9091	0.9681	0.074
Mof_N 	N 	0.446	0.3695	0.3619	-0.037
Mof_N 	N 	0.2147	0.6892	0.9254	-0.045
Mof_N 	N 	0.2682	0.5909	0.4681	0.072
Mof_N 	N 	0.554	0.1305	0.8619	-0.034
Mof_N 	N 	0.7853	0.8108	0.4254	-0.045
Mof_O 	O 	0.353	0.1553	0.082	-0.321
Mof_O 	O 	0.2964	0.1184	0.9631	-0.296
Mof_O 	O 	0.4392	0.3435	0.859	-0.502
Mof_O 	O 	0.4745	0.5227	0.9148	-0.66
Mof_O 	O 	0.5876	0.683	0.5707	-0.353
Mof_O 	O 	0.2714	0.3463	0.0151	-0.541
Mof_O 	O 	0.2897	0.5409	0.0477	-0.551
Mof_O 	O 	0.6463	0.2745	0.0821	-0.356
Mof_O 	O 	0.1682	0.0051	0.049	-0.105
Mof_O 	O 	0.647	0.3447	0.582	-0.321
Mof_O 	O 	0.7036	0.3816	0.4631	-0.295
Mof_O 	O 	0.5608	0.1565	0.359	-0.503
Mof_O 	O 	0.5255	0.9773	0.4148	-0.661
Mof_O 	O 	0.4124	0.817	0.0707	-0.354
Mof_O 	O 	0.7286	0.1537	0.5151	-0.542
Mof_O 	O 	0.7103	0.9591	0.5477	-0.551
Mof_O 	O 	0.3537	0.2255	0.5821	-0.356
Mof_O 	O 	0.8318	0.4949	0.549	-0.107
Mof_O 	O 	0.647	0.8447	0.918	-0.321
Mof_O 	O 	0.7036	0.8816	0.0369	-0.296
Mof_O 	O 	0.5608	0.6565	0.141	-0.502
Mof_O 	O 	0.5255	0.4773	0.0852	-0.66
Mof_O 	O 	0.4124	0.317	0.4293	-0.353
Mof_O 	O 	0.7286	0.6537	0.9849	-0.541
Mof_O 	O 	0.7103	0.4591	0.9523	-0.551
Mof_O 	O 	0.3537	0.7255	0.9179	-0.356
Mof_O 	O 	0.8318	0.9949	0.951	-0.105
Mof_O 	O 	0.353	0.6553	0.418	-0.321
Mof_O 	O 	0.2964	0.6184	0.5369	-0.295
Mof_O 	O 	0.4392	0.8435	0.641	-0.503
Mof_O 	O 	0.4745	0.0227	0.5852	-0.661
Mof_O 	O 	0.5876	0.183	0.9293	-0.354
Mof_O 	O 	0.2714	0.8463	0.4849	-0.542
Mof_O 	O 	0.2897	0.0409	0.4523	-0.551
Mof_O 	O 	0.6463	0.7745	0.4179	-0.356
Mof_O 	O 	0.1682	0.5051	0.451	-0.107
_end
