data_functionalizedCrystal
_audit_creation_method	'EQeq! by Chris Wilmer'
_symmetry_space_group_name_H-M	'P1'
_symmetry_Int_Tables_number	1
_symmetry_cell_setting	triclinic
loop_
_symmetry_equiv_pos_as_xyz
  x,y,z
_cell_length_a	31.019
_cell_length_b	7.1857
_cell_length_c	8.103
_cell_angle_alpha	90
_cell_angle_beta	96.038
_cell_angle_gamma	90
loop_
_atom_site_label
_atom_site_type_symbol
_atom_site_fract_x
_atom_site_fract_y
_atom_site_fract_z
_atom_site_charge
Mof_Mo	Mo	0.13035	0.982	0.05151	0.347
Mof_Mn	Mn	0.14778	0.4797	0.5588	0.396
Mof_C 	C 	0.0753	0.813	0.067	-0.157
Mof_C 	C 	0.0767	0.164	0.994	0.044
Mof_C 	C 	0.1393	0.182	0.861	-0.154
Mof_C 	C 	0.1366	0.179	0.256	-0.148
Mof_C 	C 	0.1477	0.795	0.258	-0.379
Mof_C 	C 	0.1465	0.803	0.856	-0.304
Mof_C 	C 	0.2007	0.013	0.083	-0.095
Mof_N 	N 	0.0469	0.705	0.0653	-0.196
Mof_N 	N 	0.0489	0.268	0.976	-0.19
Mof_N 	N 	0.142	0.286	0.755	-0.231
Mof_N 	N 	0.1562	0.275	0.3665	-0.287
Mof_N 	N 	0.1392	0.691	0.364	-0.208
Mof_N 	N 	0.1572	0.704	0.7557	-0.253
Mof_N 	N 	0.237	0.951	0.1006	-0.52
Mof_K 	K 	0.19472	0.4826	0.0913	2.185
Mof_Mo	Mo	0.63035	0.482	0.05151	0.948
Mof_Mn	Mn	0.64778	0.9797	0.5588	0.221
Mof_C 	C 	0.5753	0.313	0.067	-0.148
Mof_C 	C 	0.5767	0.664	0.994	-0.142
Mof_C 	C 	0.6393	0.682	0.861	-0.29
Mof_C 	C 	0.6366	0.679	0.256	-0.286
Mof_C 	C 	0.6477	0.295	0.258	-0.297
Mof_C 	C 	0.6465	0.303	0.856	-0.249
Mof_C 	C 	0.7007	0.513	0.083	-0.376
Mof_N 	N 	0.5469	0.205	0.0653	-0.084
Mof_N 	N 	0.5489	0.768	0.976	-0.155
Mof_N 	N 	0.642	0.786	0.755	-0.199
Mof_N 	N 	0.6562	0.775	0.3665	-0.253
Mof_N 	N 	0.6392	0.191	0.364	-0.103
Mof_N 	N 	0.6572	0.204	0.7557	-0.144
Mof_N 	N 	0.737	0.451	0.1006	-0.368
Mof_K 	K 	0.69472	0.9826	0.0913	1.528
Mof_Mo	Mo	0.86965	0.982	0.94849	0.44
Mof_Mn	Mn	0.85222	0.4797	0.4412	0.386
Mof_C 	C 	0.9247	0.813	0.933	-0.149
Mof_C 	C 	0.9233	0.164	0.006	0.001
Mof_C 	C 	0.8607	0.182	0.139	-0.196
Mof_C 	C 	0.8634	0.179	0.744	-0.157
Mof_C 	C 	0.8523	0.795	0.742	-0.4
Mof_C 	C 	0.8535	0.803	0.144	-0.353
Mof_C 	C 	0.7993	0.013	0.917	-0.1
Mof_N 	N 	0.9531	0.705	0.9347	-0.179
Mof_N 	N 	0.9511	0.268	0.024	-0.189
Mof_N 	N 	0.858	0.286	0.245	-0.226
Mof_N 	N 	0.8438	0.275	0.6335	-0.289
Mof_N 	N 	0.8608	0.691	0.636	-0.205
Mof_N 	N 	0.8428	0.704	0.2443	-0.249
Mof_N 	N 	0.763	0.951	0.8994	-0.503
Mof_K 	K 	0.80528	0.4826	0.9087	2.323
Mof_Mo	Mo	0.36965	0.482	0.94849	1.034
Mof_Mn	Mn	0.35222	0.9797	0.4412	0.21
Mof_C 	C 	0.4247	0.313	0.933	-0.143
Mof_C 	C 	0.4233	0.664	0.006	-0.185
Mof_C 	C 	0.3607	0.682	0.139	-0.331
Mof_C 	C 	0.3634	0.679	0.744	-0.295
Mof_C 	C 	0.3523	0.295	0.742	-0.317
Mof_C 	C 	0.3535	0.303	0.144	-0.295
Mof_C 	C 	0.2993	0.513	0.917	-0.38
Mof_N 	N 	0.4531	0.205	0.9347	-0.073
Mof_N 	N 	0.4511	0.768	0.024	-0.159
Mof_N 	N 	0.358	0.786	0.245	-0.195
Mof_N 	N 	0.3438	0.775	0.6335	-0.255
Mof_N 	N 	0.3608	0.191	0.636	-0.1
Mof_N 	N 	0.3428	0.204	0.2443	-0.141
Mof_N 	N 	0.263	0.451	0.8994	-0.35
Mof_K 	K 	0.30528	0.9826	0.9087	1.661
Mof_Mn	Mn	8.78423e-34	0.4866	-0	0.548
Mof_Mn	Mn	0.5	0.9866	-0	0.358
_end
