data_functionalizedCrystal
_audit_creation_method	'EQeq! by Chris Wilmer'
_symmetry_space_group_name_H-M	'P1'
_symmetry_Int_Tables_number	1
_symmetry_cell_setting	triclinic
loop_
_symmetry_equiv_pos_as_xyz
  x,y,z
_cell_length_a	10.239
_cell_length_b	12.191
_cell_length_c	13.91
_cell_angle_alpha	94.6
_cell_angle_beta	93.75
_cell_angle_gamma	99.87
loop_
_atom_site_label
_atom_site_type_symbol
_atom_site_fract_x
_atom_site_fract_y
_atom_site_fract_z
_atom_site_charge
Mof_Zn	Zn	0.26108	0.69619	0.46048	1.219
Mof_Zn	Zn	0.22202	0.51909	0.22825	1.22
Mof_H 	H 	0.0944	0.6945	0.9332	0.074
Mof_H 	H 	0.3381	0.8564	0.0724	0.046
Mof_H 	H 	0.0766	0.7012	0.6122	0.001
Mof_H 	H 	0.3799	0.5138	0.8967	0.085
Mof_H 	H 	0.8665	0.5694	0.4722	0.052
Mof_H 	H 	0.5272	0.7313	0.1977	0.077
Mof_H 	H 	0.358	0.463	0.0507	-0.001
Mof_H 	H 	0.6408	0.8041	0.0744	0.035
Mof_H 	H 	0.1375	0.0692	0.4633	0.064
Mof_H 	H 	0.868	0.8089	0.0744	0.04
Mof_H 	H 	0.9795	0.7346	0.1918	0.072
Mof_H 	H 	0.3201	0.1808	0.0987	0.08
Mof_H 	H 	0.0613	0.6661	0.7703	0.081
Mof_H 	H 	0.4522	0.6764	0.6286	-0.004
Mof_H 	H 	0.1613	0.242	0.4024	0.052
Mof_H 	H 	0.6427	0.578	0.4795	0.044
Mof_H 	H 	0.4456	0.6384	0.7861	0.1
Mof_H 	H 	0.3638	0.0285	0.0115	0.031
Mof_H 	H 	0.0816	0.6394	0.0853	-0.003
Mof_H 	H 	0.2711	0.8363	0.2249	0.058
Mof_C 	C 	0.2328	0.1987	0.2769	-0.099
Mof_C 	C 	0.3722	0.673	0.6573	0.09
Mof_C 	C 	0.6822	0.6805	0.2707	0.056
Mof_C 	C 	0.3687	0.6494	0.7517	-0.146
Mof_C 	C 	0.1412	0.6655	0.7423	-0.133
Mof_C 	C 	0.6855	0.7746	0.1238	-0.017
Mof_C 	C 	0.8867	0.6287	0.3428	-0.095
Mof_C 	C 	0.1956	0.8821	0.403	0.324
Mof_C 	C 	0.8882	0.7311	0.193	-0.073
Mof_C 	C 	0.8218	0.7762	0.1233	-0.029
Mof_C 	C 	0.1441	0.6148	0.0473	0.075
Mof_C 	C 	0.2522	0.9999	0.2593	0.032
Mof_C 	C 	0.2412	0.6113	0.8963	0.06
Mof_C 	C 	0.3353	0.0216	0.0732	-0.007
Mof_C 	C 	0.8212	0.6785	0.268	0.046
Mof_C 	C 	0.8208	0.5953	0.4212	-0.022
Mof_C 	C 	0.3093	0.1125	0.1252	-0.097
Mof_C 	C 	0.1713	0.0777	0.4033	-0.029
Mof_C 	C 	0.6853	0.5998	0.4253	-0.003
Mof_C 	C 	0.3185	0.5415	0.934	-0.137
Mof_C 	C 	0.4671	0.625	0.3551	0.41
Mof_C 	C 	0.2068	0.9884	0.3528	-0.073
Mof_C 	C 	0.2654	0.1054	0.2205	0.053
Mof_C 	C 	0.6176	0.7296	0.1967	-0.09
Mof_C 	C 	0.3205	0.918	0.1099	-0.046
Mof_C 	C 	0.2803	0.906	0.2009	-0.06
Mof_C 	C 	0.2506	0.6419	0.7962	0.064
Mof_C 	C 	0.0268	0.6062	0.3379	0.388
Mof_C 	C 	0.1504	0.6479	0.9555	-0.14
Mof_C 	C 	0.2447	0.3129	0.2445	0.321
Mof_C 	C 	0.6151	0.6357	0.3505	-0.117
Mof_C 	C 	0.185	0.1821	0.366	-0.004
Mof_C 	C 	0.3055	0.5118	0.0275	0.081
Mof_C 	C 	0.1516	0.6879	0.6476	0.083
Mof_N 	N 	0.2222	0.5494	0.0854	-0.26
Mof_N 	N 	0.2651	0.6914	0.6042	-0.269
Mof_O 	O 	0.0913	0.598	0.4162	-0.491
Mof_O 	O 	0.3237	0.3484	0.1843	-0.348
Mof_O 	O 	0.2926	0.8281	0.3931	-0.458
Mof_O 	O 	0.3954	0.6041	0.2769	-0.511
Mof_O 	O 	0.1054	0.8534	0.4524	-0.324
Mof_O 	O 	0.4236	0.633	0.4371	-0.486
Mof_O 	O 	0.0694	0.5938	0.256	-0.487
Mof_O 	O 	0.1753	0.3784	0.2835	-0.456
Mof_Zn	Zn	0.77798	0.48091	0.77175	1.221
Mof_Zn	Zn	0.73892	0.30381	0.53952	1.22
Mof_H 	H 	0.9056	0.3055	0.0668	0.074
Mof_H 	H 	0.6799	0.8192	0.9013	0.08
Mof_H 	H 	0.8625	0.9308	0.5367	0.064
Mof_H 	H 	0.3592	0.1959	0.9256	0.035
Mof_H 	H 	0.6201	0.4862	0.1033	0.085
Mof_H 	H 	0.0205	0.2654	0.8082	0.072
Mof_H 	H 	0.642	0.537	0.9493	-0.001
Mof_H 	H 	0.132	0.1911	0.9256	0.04
Mof_H 	H 	0.3573	0.422	0.5205	0.044
Mof_H 	H 	0.7289	0.1637	0.7751	0.058
Mof_H 	H 	0.9387	0.3339	0.2297	0.081
Mof_H 	H 	0.6362	0.9715	0.9885	0.031
Mof_H 	H 	0.9184	0.3606	0.9147	-0.003
Mof_H 	H 	0.5544	0.3616	0.2139	0.1
Mof_H 	H 	0.4728	0.2687	0.8023	0.077
Mof_H 	H 	0.8387	0.758	0.5976	0.052
Mof_H 	H 	0.1335	0.4306	0.5278	0.052
Mof_H 	H 	0.5478	0.3236	0.3714	-0.004
Mof_H 	H 	0.9234	0.2988	0.3878	0.001
Mof_H 	H 	0.6619	0.1436	0.9276	0.046
Mof_C 	C 	0.1792	0.4047	0.5788	-0.022
Mof_C 	C 	0.7932	0.0116	0.6472	-0.073
Mof_C 	C 	0.5329	0.375	0.6449	0.41
Mof_C 	C 	0.8588	0.3345	0.2577	-0.133
Mof_C 	C 	0.7478	0.0001	0.7407	0.032
Mof_C 	C 	0.6313	0.3506	0.2483	-0.146
Mof_C 	C 	0.8287	0.9223	0.5967	-0.029
Mof_C 	C 	0.6278	0.327	0.3427	0.09
Mof_C 	C 	0.3849	0.3643	0.6495	-0.117
Mof_C 	C 	0.1133	0.3713	0.6572	-0.095
Mof_C 	C 	0.815	0.8179	0.634	-0.004
Mof_C 	C 	0.3178	0.3195	0.7293	0.056
Mof_C 	C 	0.7588	0.3887	0.1037	0.06
Mof_C 	C 	0.3145	0.2254	0.8762	-0.017
Mof_C 	C 	0.7553	0.6871	0.7555	0.321
Mof_C 	C 	0.8496	0.3521	0.0445	-0.14
Mof_C 	C 	0.7672	0.8013	0.7231	-0.099
Mof_C 	C 	0.1118	0.2689	0.807	-0.073
Mof_C 	C 	0.7346	0.8946	0.7795	0.053
Mof_C 	C 	0.3824	0.2704	0.8033	-0.09
Mof_C 	C 	0.7197	0.094	0.7991	-0.06
Mof_C 	C 	0.8484	0.3121	0.3524	0.083
Mof_C 	C 	0.8044	0.1179	0.597	0.324
Mof_C 	C 	0.1788	0.3215	0.732	0.046
Mof_C 	C 	0.6795	0.082	0.8901	-0.046
Mof_C 	C 	0.6945	0.4882	0.9725	0.081
Mof_C 	C 	0.6647	0.9784	0.9268	-0.007
Mof_C 	C 	0.6907	0.8875	0.8748	-0.097
Mof_C 	C 	0.8559	0.3852	0.9527	0.075
Mof_C 	C 	0.3147	0.4002	0.5747	-0.003
Mof_C 	C 	0.1782	0.2238	0.8767	-0.029
Mof_C 	C 	0.9732	0.3938	0.6621	0.388
Mof_C 	C 	0.6815	0.4585	0.066	-0.137
Mof_C 	C 	0.7494	0.3581	0.2038	0.064
Mof_N 	N 	0.7778	0.4506	0.9146	-0.26
Mof_N 	N 	0.7349	0.3086	0.3958	-0.269
Mof_O 	O 	0.9306	0.4062	0.744	-0.487
Mof_O 	O 	0.7074	0.1719	0.6069	-0.458
Mof_O 	O 	0.6046	0.3959	0.7231	-0.511
Mof_O 	O 	0.6763	0.6516	0.8157	-0.348
Mof_O 	O 	0.9087	0.402	0.5838	-0.491
Mof_O 	O 	0.8247	0.6216	0.7165	-0.456
Mof_O 	O 	0.5764	0.367	0.5629	-0.486
Mof_O 	O 	0.8946	0.1466	0.5476	-0.324
_end
