data_functionalizedCrystal
_audit_creation_method	'EQeq! by Chris Wilmer'
_symmetry_space_group_name_H-M	'P1'
_symmetry_Int_Tables_number	1
_symmetry_cell_setting	triclinic
loop_
_symmetry_equiv_pos_as_xyz
  x,y,z
_cell_length_a	10.0124
_cell_length_b	14.1908
_cell_length_c	21.6482
_cell_angle_alpha	90
_cell_angle_beta	102.265
_cell_angle_gamma	90
loop_
_atom_site_label
_atom_site_type_symbol
_atom_site_fract_x
_atom_site_fract_y
_atom_site_fract_z
_atom_site_charge
Mof_Cu	Cu	0.06252	0.66638	0.94015	0.821
Mof_Cu	Cu	0.87468	0.49449	0.94807	0.867
Mof_Cu	Cu	0.93748	0.66638	0.55985	0.822
Mof_Cu	Cu	0.12532	0.49449	0.55193	0.866
Mof_Cu	Cu	0.93748	0.33362	0.05985	0.822
Mof_Cu	Cu	0.12532	0.50551	0.05193	0.868
Mof_Cu	Cu	0.06252	0.33362	0.44015	0.823
Mof_Cu	Cu	0.87468	0.50551	0.44807	0.867
Mof_H 	H 	0.9366	0.626	0.025	0.14
Mof_H 	H 	0.9084	0.3574	0.8458	-0.07
Mof_H 	H 	0.434	0.0063	0.8333	0.024
Mof_H 	H 	0.5448	0.9319	0.8242	0.017
Mof_H 	H 	0.4102	0.8911	0.8997	0.128
Mof_H 	H 	0.6492	0.1269	0.7456	0.028
Mof_H 	H 	0.6999	0.0508	0.7984	0.024
Mof_H 	H 	0.8069	0.2226	0.8007	0.134
Mof_H 	H 	0.0689	0.6917	0.806	-0.053
Mof_H 	H 	0.1747	0.7821	0.7429	0.141
Mof_H 	H 	0.2933	0.8015	0.9578	-0.064
Mof_H 	H 	0.5133	0.2614	0.8988	0.128
Mof_H 	H 	0.6237	0.3952	0.9398	-0.067
Mof_H 	H 	0.6443	0.7589	0.8229	0.41
Mof_H 	H 	0.5734	0.6601	0.8113	0.386
Mof_H 	H 	0.5659	0.7177	0.8722	0.395
Mof_H 	H 	0.0634	0.626	0.475	0.142
Mof_H 	H 	0.0916	0.3574	0.6542	-0.07
Mof_H 	H 	0.566	0.0063	0.6667	0.024
Mof_H 	H 	0.4552	0.9319	0.6758	0.017
Mof_H 	H 	0.5898	0.8911	0.6003	0.127
Mof_H 	H 	0.3508	0.1269	0.7544	0.028
Mof_H 	H 	0.3001	0.0508	0.7016	0.024
Mof_H 	H 	0.1931	0.2226	0.6993	0.133
Mof_H 	H 	0.9311	0.6917	0.694	-0.052
Mof_H 	H 	0.8253	0.7821	0.7571	0.142
Mof_H 	H 	0.7067	0.8015	0.5422	-0.063
Mof_H 	H 	0.4867	0.2614	0.6012	0.128
Mof_H 	H 	0.3763	0.3952	0.5602	-0.067
Mof_H 	H 	0.3557	0.7589	0.6771	0.41
Mof_H 	H 	0.4266	0.6601	0.6887	0.386
Mof_H 	H 	0.4341	0.7177	0.6278	0.395
Mof_H 	H 	0.0634	0.374	0.975	0.14
Mof_H 	H 	0.0916	0.6426	0.1542	-0.07
Mof_H 	H 	0.566	0.9937	0.1667	0.024
Mof_H 	H 	0.4552	0.0681	0.1758	0.017
Mof_H 	H 	0.5898	0.1089	0.1003	0.128
Mof_H 	H 	0.3508	0.8731	0.2544	0.028
Mof_H 	H 	0.3001	0.9492	0.2016	0.024
Mof_H 	H 	0.1931	0.7774	0.1993	0.134
Mof_H 	H 	0.9311	0.3083	0.194	-0.053
Mof_H 	H 	0.8253	0.2179	0.2571	0.141
Mof_H 	H 	0.7067	0.1985	0.0422	-0.064
Mof_H 	H 	0.4867	0.7386	0.1012	0.128
Mof_H 	H 	0.3763	0.6048	0.0602	-0.067
Mof_H 	H 	0.3557	0.2411	0.1771	0.41
Mof_H 	H 	0.4266	0.3399	0.1887	0.386
Mof_H 	H 	0.4341	0.2823	0.1278	0.395
Mof_H 	H 	0.9366	0.374	0.525	0.142
Mof_H 	H 	0.9084	0.6426	0.3458	-0.07
Mof_H 	H 	0.434	0.9937	0.3333	0.024
Mof_H 	H 	0.5448	0.0681	0.3242	0.017
Mof_H 	H 	0.4102	0.1089	0.3997	0.127
Mof_H 	H 	0.6492	0.8731	0.2456	0.028
Mof_H 	H 	0.6999	0.9492	0.2984	0.024
Mof_H 	H 	0.8069	0.7774	0.3007	0.133
Mof_H 	H 	0.0689	0.3083	0.306	-0.052
Mof_H 	H 	0.1747	0.2179	0.2429	0.142
Mof_H 	H 	0.2933	0.1985	0.4578	-0.063
Mof_H 	H 	0.5133	0.7386	0.3988	0.128
Mof_H 	H 	0.6237	0.6048	0.4398	-0.067
Mof_H 	H 	0.6443	0.2411	0.3229	0.41
Mof_H 	H 	0.5734	0.3399	0.3113	0.386
Mof_H 	H 	0.5659	0.2823	0.3722	0.395
Mof_C 	C 	0.8286	0.3368	0.8571	0.163
Mof_C 	C 	0.3027	0.849	0.81473	0.292
Mof_C 	C 	0.4648	0.9665	0.80271	0.047
Mof_C 	C 	0.3393	0.8523	0.87956	-0.315
Mof_C 	C 	0.6225	0.0891	0.7783	0.047
Mof_C 	C 	0.7684	0.2561	0.82948	-0.318
Mof_C 	C 	0.7511	0.656	0.87735	0.697
Mof_C 	C 	0.137	0.7334	0.82492	0.157
Mof_C 	C 	0.2001	0.7871	0.78671	-0.304
Mof_C 	C 	0.6499	0.2257	0.84537	0.305
Mof_C 	C 	0.2696	0.7975	0.91391	0.15
Mof_C 	C 	0.5944	0.2793	0.8876	-0.299
Mof_C 	C 	0.6618	0.3589	0.9123	0.142
Mof_C 	C 	0.6221	0.7024	0.8428	-1.246
Mof_C 	C 	0.1714	0.3368	0.6429	0.163
Mof_C 	C 	0.6973	0.849	0.68527	0.292
Mof_C 	C 	0.5352	0.9665	0.69729	0.047
Mof_C 	C 	0.6607	0.8523	0.62044	-0.315
Mof_C 	C 	0.3775	0.0891	0.7217	0.047
Mof_C 	C 	0.2316	0.2561	0.67052	-0.318
Mof_C 	C 	0.2489	0.656	0.62265	0.697
Mof_C 	C 	0.863	0.7334	0.67508	0.157
Mof_C 	C 	0.7999	0.7871	0.71329	-0.303
Mof_C 	C 	0.3501	0.2257	0.65463	0.304
Mof_C 	C 	0.7304	0.7975	0.58609	0.15
Mof_C 	C 	0.4056	0.2793	0.6124	-0.299
Mof_C 	C 	0.3382	0.3589	0.5877	0.142
Mof_C 	C 	0.3779	0.7024	0.6572	-1.246
Mof_C 	C 	0.1714	0.6632	0.1429	0.163
Mof_C 	C 	0.6973	0.151	0.18527	0.292
Mof_C 	C 	0.5352	0.0335	0.19729	0.047
Mof_C 	C 	0.6607	0.1477	0.12044	-0.315
Mof_C 	C 	0.3775	0.9109	0.2217	0.047
Mof_C 	C 	0.2316	0.7439	0.17052	-0.318
Mof_C 	C 	0.2489	0.344	0.12265	0.697
Mof_C 	C 	0.863	0.2666	0.17508	0.157
Mof_C 	C 	0.7999	0.2129	0.21329	-0.304
Mof_C 	C 	0.3501	0.7743	0.15463	0.305
Mof_C 	C 	0.7304	0.2025	0.08609	0.15
Mof_C 	C 	0.4056	0.7207	0.1124	-0.299
Mof_C 	C 	0.3382	0.6411	0.0877	0.142
Mof_C 	C 	0.3779	0.2976	0.1572	-1.246
Mof_C 	C 	0.8286	0.6632	0.3571	0.163
Mof_C 	C 	0.3027	0.151	0.31473	0.292
Mof_C 	C 	0.4648	0.0335	0.30271	0.047
Mof_C 	C 	0.3393	0.1477	0.37956	-0.315
Mof_C 	C 	0.6225	0.9109	0.2783	0.047
Mof_C 	C 	0.7684	0.7439	0.32948	-0.318
Mof_C 	C 	0.7511	0.344	0.37735	0.697
Mof_C 	C 	0.137	0.2666	0.32492	0.157
Mof_C 	C 	0.2001	0.2129	0.28671	-0.303
Mof_C 	C 	0.6499	0.7743	0.34537	0.304
Mof_C 	C 	0.2696	0.2025	0.41391	0.15
Mof_C 	C 	0.5944	0.7207	0.3876	-0.299
Mof_C 	C 	0.6618	0.6411	0.4123	0.142
Mof_C 	C 	0.6221	0.2976	0.3428	-1.246
Mof_C 	C 	0.5	0.0265	0.75	-0.02
Mof_C 	C 	0.5	0.9735	0.25	-0.02
Mof_N 	N 	0.7796	0.3872	0.89887	-0.284
Mof_N 	N 	0.1688	0.7382	0.88793	-0.291
Mof_N 	N 	0.2204	0.3872	0.60113	-0.284
Mof_N 	N 	0.8312	0.7382	0.61207	-0.29
Mof_N 	N 	0.2204	0.6128	0.10113	-0.284
Mof_N 	N 	0.8312	0.2618	0.11207	-0.291
Mof_N 	N 	0.7796	0.6128	0.39887	-0.284
Mof_N 	N 	0.1688	0.2618	0.38793	-0.29
Mof_O 	O 	0.9877	0.5888	0.99965	-0.698
Mof_O 	O 	0.3584	0.90219	0.77467	-0.277
Mof_O 	O 	0.5787	0.14794	0.82368	-0.272
Mof_O 	O 	0.735	0.57967	0.90647	-0.546
Mof_O 	O 	0.8617	0.6929	0.87586	-0.53
Mof_O 	O 	0.0123	0.5888	0.50035	-0.701
Mof_O 	O 	0.6416	0.90219	0.72533	-0.277
Mof_O 	O 	0.4213	0.14794	0.67632	-0.272
Mof_O 	O 	0.265	0.57967	0.59353	-0.546
Mof_O 	O 	0.1383	0.6929	0.62414	-0.531
Mof_O 	O 	0.0123	0.4112	0.00035	-0.698
Mof_O 	O 	0.6416	0.09781	0.22533	-0.277
Mof_O 	O 	0.4213	0.85206	0.17632	-0.272
Mof_O 	O 	0.265	0.42033	0.09353	-0.546
Mof_O 	O 	0.1383	0.3071	0.12414	-0.53
Mof_O 	O 	0.9877	0.4112	0.49965	-0.701
Mof_O 	O 	0.3584	0.09781	0.27467	-0.277
Mof_O 	O 	0.5787	0.85206	0.32368	-0.272
Mof_O 	O 	0.735	0.42033	0.40647	-0.546
Mof_O 	O 	0.8617	0.3071	0.37586	-0.531
_end
