data_functionalizedCrystal
_audit_creation_method	'EQeq! by Chris Wilmer'
_symmetry_space_group_name_H-M	'P1'
_symmetry_Int_Tables_number	1
_symmetry_cell_setting	triclinic
loop_
_symmetry_equiv_pos_as_xyz
  x,y,z
_cell_length_a	19.4687
_cell_length_b	19.4687
_cell_length_c	26.3746
_cell_angle_alpha	90
_cell_angle_beta	90
_cell_angle_gamma	90
loop_
_atom_site_label
_atom_site_type_symbol
_atom_site_fract_x
_atom_site_fract_y
_atom_site_fract_z
_atom_site_charge
Mof_Gd	Gd	0.55614	0.55614	0.30236	1.371
Mof_Gd	Gd	0.94386	0.94386	0.30236	1.37
Mof_Gd	Gd	0.94386	0.55614	0.80236	1.375
Mof_Gd	Gd	0.55614	0.94386	0.80236	1.374
Mof_Gd	Gd	0.44386	0.05614	0.19764	1.365
Mof_Gd	Gd	0.05614	0.44386	0.19764	1.365
Mof_Gd	Gd	0.05614	0.05614	0.69764	1.37
Mof_Gd	Gd	0.44386	0.44386	0.69764	1.37
Mof_Cd	Cd	0.4674	0.4674	0.19573	0.458
Mof_Cd	Cd	0.0326	0.0326	0.19573	0.457
Mof_Cd	Cd	0.0326	0.4674	0.69573	0.46
Mof_Cd	Cd	0.4674	0.0326	0.69573	0.46
Mof_Cd	Cd	0.5326	0.9674	0.30427	0.46
Mof_Cd	Cd	0.9674	0.5326	0.30427	0.46
Mof_Cd	Cd	0.9674	0.9674	0.80427	0.46
Mof_Cd	Cd	0.5326	0.5326	0.80427	0.461
Mof_Cd	Cd	0.25	0.75	-0	0.499
Mof_Cd	Cd	0.75	0.25	0.5	0.515
Mof_Cd	Cd	0.75	0.25	-0	0.499
Mof_Cd	Cd	0.25	0.75	0.5	0.515
Mof_H 	H 	0.4081	0.8688	0.1356	-0.002
Mof_H 	H 	0.4099	0.6655	0.1161	0.028
Mof_H 	H 	0.5118	0.7482	0.2317	-0.001
Mof_H 	H 	0.0919	0.6312	0.1356	-0.002
Mof_H 	H 	0.0901	0.8345	0.1161	0.028
Mof_H 	H 	0.9882	0.7518	0.2317	-0.002
Mof_H 	H 	0.6312	0.4081	0.6356	-0
Mof_H 	H 	0.8345	0.4099	0.6161	0.03
Mof_H 	H 	0.7518	0.5118	0.7317	0
Mof_H 	H 	0.8688	0.0919	0.6356	-0.001
Mof_H 	H 	0.6655	0.0901	0.6161	0.03
Mof_H 	H 	0.7482	0.9882	0.7317	-0.002
Mof_H 	H 	0.5919	0.3688	0.3644	-0
Mof_H 	H 	0.5901	0.1655	0.3839	0.03
Mof_H 	H 	0.4882	0.2482	0.2683	-0.001
Mof_H 	H 	0.9081	0.1312	0.3644	-0.001
Mof_H 	H 	0.9099	0.3345	0.3839	0.03
Mof_H 	H 	0.0118	0.2518	0.2683	-0.002
Mof_H 	H 	0.3688	0.9081	0.8644	0.001
Mof_H 	H 	0.1655	0.9099	0.8839	0.032
Mof_H 	H 	0.2482	0.0118	0.7683	0
Mof_H 	H 	0.1312	0.5919	0.8644	0.001
Mof_H 	H 	0.3345	0.5901	0.8839	0.032
Mof_H 	H 	0.2518	0.4882	0.7683	0
Mof_H 	H 	0.5919	0.1312	0.8644	0.001
Mof_H 	H 	0.5901	0.3345	0.8839	0.032
Mof_H 	H 	0.4882	0.2518	0.7683	0
Mof_H 	H 	0.9081	0.3688	0.8644	0.001
Mof_H 	H 	0.9099	0.1655	0.8839	0.032
Mof_H 	H 	0.0118	0.2482	0.7683	0
Mof_H 	H 	0.3688	0.5919	0.3644	-0
Mof_H 	H 	0.1655	0.5901	0.3839	0.03
Mof_H 	H 	0.2482	0.4882	0.2683	-0.001
Mof_H 	H 	0.1312	0.9081	0.3644	-0.001
Mof_H 	H 	0.3345	0.9099	0.3839	0.03
Mof_H 	H 	0.2518	0.0118	0.2683	-0.002
Mof_H 	H 	0.4081	0.6312	0.6356	-0
Mof_H 	H 	0.4099	0.8345	0.6161	0.03
Mof_H 	H 	0.5118	0.7518	0.7317	0
Mof_H 	H 	0.0919	0.8688	0.6356	-0.001
Mof_H 	H 	0.0901	0.6655	0.6161	0.03
Mof_H 	H 	0.9882	0.7482	0.7317	-0.002
Mof_H 	H 	0.6312	0.0919	0.1356	-0.002
Mof_H 	H 	0.8345	0.0901	0.1161	0.028
Mof_H 	H 	0.7518	0.9882	0.2317	-0.002
Mof_H 	H 	0.8688	0.4081	0.1356	-0.002
Mof_H 	H 	0.6655	0.4099	0.1161	0.028
Mof_H 	H 	0.7482	0.5118	0.2317	-0.001
Mof_C 	C 	0.4834	0.6253	0.1941	0.437
Mof_C 	C 	0.4216	0.8252	0.146	0.101
Mof_C 	C 	0.4231	0.7042	0.1344	0.1
Mof_C 	C 	0.4008	0.768	0.1189	-0.146
Mof_C 	C 	0.4829	0.8803	0.2191	0.411
Mof_C 	C 	0.3518	0.7754	0.0757	0.326
Mof_C 	C 	0.4625	0.8176	0.1886	-0.179
Mof_C 	C 	0.4642	0.6965	0.1759	-0.182
Mof_C 	C 	0.484	0.7533	0.2033	0.118
Mof_C 	C 	0.0166	0.8747	0.1941	0.438
Mof_C 	C 	0.0784	0.6748	0.146	0.101
Mof_C 	C 	0.0769	0.7958	0.1344	0.1
Mof_C 	C 	0.0992	0.732	0.1189	-0.146
Mof_C 	C 	0.0171	0.6197	0.2191	0.411
Mof_C 	C 	0.1482	0.7246	0.0757	0.326
Mof_C 	C 	0.0375	0.6824	0.1886	-0.18
Mof_C 	C 	0.0358	0.8035	0.1759	-0.182
Mof_C 	C 	0.016	0.7467	0.2033	0.12
Mof_C 	C 	0.8747	0.4834	0.6941	0.437
Mof_C 	C 	0.6748	0.4216	0.646	0.1
Mof_C 	C 	0.7958	0.4231	0.6344	0.098
Mof_C 	C 	0.732	0.4008	0.6189	-0.143
Mof_C 	C 	0.6197	0.4829	0.7191	0.41
Mof_C 	C 	0.7246	0.3518	0.5757	0.325
Mof_C 	C 	0.6824	0.4625	0.6886	-0.177
Mof_C 	C 	0.8035	0.4642	0.6759	-0.18
Mof_C 	C 	0.7467	0.484	0.7033	0.117
Mof_C 	C 	0.6253	0.0166	0.6941	0.438
Mof_C 	C 	0.8252	0.0784	0.646	0.101
Mof_C 	C 	0.7042	0.0769	0.6344	0.1
Mof_C 	C 	0.768	0.0992	0.6189	-0.144
Mof_C 	C 	0.8803	0.0171	0.7191	0.413
Mof_C 	C 	0.7754	0.1482	0.5757	0.325
Mof_C 	C 	0.8176	0.0375	0.6886	-0.179
Mof_C 	C 	0.6965	0.0358	0.6759	-0.182
Mof_C 	C 	0.7533	0.016	0.7033	0.121
Mof_C 	C 	0.5166	0.1253	0.3059	0.437
Mof_C 	C 	0.5784	0.3252	0.354	0.1
Mof_C 	C 	0.5769	0.2042	0.3656	0.099
Mof_C 	C 	0.5992	0.268	0.3811	-0.143
Mof_C 	C 	0.5171	0.3803	0.2809	0.411
Mof_C 	C 	0.6482	0.2754	0.4243	0.325
Mof_C 	C 	0.5375	0.3176	0.3114	-0.178
Mof_C 	C 	0.5358	0.1965	0.3241	-0.18
Mof_C 	C 	0.516	0.2533	0.2967	0.118
Mof_C 	C 	0.9834	0.3747	0.3059	0.438
Mof_C 	C 	0.9216	0.1748	0.354	0.101
Mof_C 	C 	0.9231	0.2958	0.3656	0.1
Mof_C 	C 	0.9008	0.232	0.3811	-0.144
Mof_C 	C 	0.9829	0.1197	0.2809	0.412
Mof_C 	C 	0.8518	0.2246	0.4243	0.325
Mof_C 	C 	0.9625	0.1824	0.3114	-0.179
Mof_C 	C 	0.9642	0.3035	0.3241	-0.181
Mof_C 	C 	0.984	0.2467	0.2967	0.12
Mof_C 	C 	0.1253	0.9834	0.8059	0.437
Mof_C 	C 	0.3252	0.9216	0.854	0.098
Mof_C 	C 	0.2042	0.9231	0.8656	0.097
Mof_C 	C 	0.268	0.9008	0.8811	-0.14
Mof_C 	C 	0.3803	0.9829	0.7809	0.411
Mof_C 	C 	0.2754	0.8518	0.9243	0.323
Mof_C 	C 	0.3176	0.9625	0.8114	-0.176
Mof_C 	C 	0.1965	0.9642	0.8241	-0.178
Mof_C 	C 	0.2533	0.984	0.7967	0.117
Mof_C 	C 	0.3747	0.5166	0.8059	0.436
Mof_C 	C 	0.1748	0.5784	0.854	0.098
Mof_C 	C 	0.2958	0.5769	0.8656	0.097
Mof_C 	C 	0.232	0.5992	0.8811	-0.14
Mof_C 	C 	0.1197	0.5171	0.7809	0.41
Mof_C 	C 	0.2246	0.6482	0.9243	0.323
Mof_C 	C 	0.1824	0.5375	0.8114	-0.176
Mof_C 	C 	0.3035	0.5358	0.8241	-0.178
Mof_C 	C 	0.2467	0.516	0.7967	0.116
Mof_C 	C 	0.5166	0.3747	0.8059	0.436
Mof_C 	C 	0.5784	0.1748	0.854	0.098
Mof_C 	C 	0.5769	0.2958	0.8656	0.097
Mof_C 	C 	0.5992	0.232	0.8811	-0.14
Mof_C 	C 	0.5171	0.1197	0.7809	0.41
Mof_C 	C 	0.6482	0.2246	0.9243	0.323
Mof_C 	C 	0.5375	0.1824	0.8114	-0.176
Mof_C 	C 	0.5358	0.3035	0.8241	-0.178
Mof_C 	C 	0.516	0.2467	0.7967	0.116
Mof_C 	C 	0.9834	0.1253	0.8059	0.437
Mof_C 	C 	0.9216	0.3252	0.854	0.098
Mof_C 	C 	0.9231	0.2042	0.8656	0.097
Mof_C 	C 	0.9008	0.268	0.8811	-0.14
Mof_C 	C 	0.9829	0.3803	0.7809	0.411
Mof_C 	C 	0.8518	0.2754	0.9243	0.323
Mof_C 	C 	0.9625	0.3176	0.8114	-0.176
Mof_C 	C 	0.9642	0.1965	0.8241	-0.178
Mof_C 	C 	0.984	0.2533	0.7967	0.117
Mof_C 	C 	0.1253	0.5166	0.3059	0.437
Mof_C 	C 	0.3252	0.5784	0.354	0.1
Mof_C 	C 	0.2042	0.5769	0.3656	0.099
Mof_C 	C 	0.268	0.5992	0.3811	-0.143
Mof_C 	C 	0.3803	0.5171	0.2809	0.411
Mof_C 	C 	0.2754	0.6482	0.4243	0.325
Mof_C 	C 	0.3176	0.5375	0.3114	-0.178
Mof_C 	C 	0.1965	0.5358	0.3241	-0.18
Mof_C 	C 	0.2533	0.516	0.2967	0.118
Mof_C 	C 	0.3747	0.9834	0.3059	0.438
Mof_C 	C 	0.1748	0.9216	0.354	0.101
Mof_C 	C 	0.2958	0.9231	0.3656	0.1
Mof_C 	C 	0.232	0.9008	0.3811	-0.144
Mof_C 	C 	0.1197	0.9829	0.2809	0.412
Mof_C 	C 	0.2246	0.8518	0.4243	0.325
Mof_C 	C 	0.1824	0.9625	0.3114	-0.179
Mof_C 	C 	0.3035	0.9642	0.3241	-0.181
Mof_C 	C 	0.2467	0.984	0.2967	0.12
Mof_C 	C 	0.4834	0.8747	0.6941	0.437
Mof_C 	C 	0.4216	0.6748	0.646	0.1
Mof_C 	C 	0.4231	0.7958	0.6344	0.098
Mof_C 	C 	0.4008	0.732	0.6189	-0.143
Mof_C 	C 	0.4829	0.6197	0.7191	0.41
Mof_C 	C 	0.3518	0.7246	0.5757	0.325
Mof_C 	C 	0.4625	0.6824	0.6886	-0.177
Mof_C 	C 	0.4642	0.8035	0.6759	-0.18
Mof_C 	C 	0.484	0.7467	0.7033	0.117
Mof_C 	C 	0.0166	0.6253	0.6941	0.438
Mof_C 	C 	0.0784	0.8252	0.646	0.101
Mof_C 	C 	0.0769	0.7042	0.6344	0.1
Mof_C 	C 	0.0992	0.768	0.6189	-0.144
Mof_C 	C 	0.0171	0.8803	0.7191	0.413
Mof_C 	C 	0.1482	0.7754	0.5757	0.325
Mof_C 	C 	0.0375	0.8176	0.6886	-0.179
Mof_C 	C 	0.0358	0.6965	0.6759	-0.182
Mof_C 	C 	0.016	0.7533	0.7033	0.121
Mof_C 	C 	0.8747	0.0166	0.1941	0.438
Mof_C 	C 	0.6748	0.0784	0.146	0.101
Mof_C 	C 	0.7958	0.0769	0.1344	0.1
Mof_C 	C 	0.732	0.0992	0.1189	-0.146
Mof_C 	C 	0.6197	0.0171	0.2191	0.411
Mof_C 	C 	0.7246	0.1482	0.0757	0.326
Mof_C 	C 	0.6824	0.0375	0.1886	-0.18
Mof_C 	C 	0.8035	0.0358	0.1759	-0.182
Mof_C 	C 	0.7467	0.016	0.2033	0.12
Mof_C 	C 	0.6253	0.4834	0.1941	0.437
Mof_C 	C 	0.8252	0.4216	0.146	0.101
Mof_C 	C 	0.7042	0.4231	0.1344	0.1
Mof_C 	C 	0.768	0.4008	0.1189	-0.146
Mof_C 	C 	0.8803	0.4829	0.2191	0.411
Mof_C 	C 	0.7754	0.3518	0.0757	0.326
Mof_C 	C 	0.8176	0.4625	0.1886	-0.179
Mof_C 	C 	0.6965	0.4642	0.1759	-0.182
Mof_C 	C 	0.7533	0.484	0.2033	0.118
Mof_O 	O 	0.4608	0.5756	0.1693	-0.322
Mof_O 	O 	0.5181	0.62	0.2326	-0.454
Mof_O 	O 	0.3351	0.7206	0.0516	-0.266
Mof_O 	O 	0.4615	0.9373	0.2056	-0.447
Mof_O 	O 	0.517	0.8697	0.2593	-0.315
Mof_O 	O 	0.3285	0.8318	0.0641	-0.265
Mof_O 	O 	0.0392	0.9244	0.1693	-0.322
Mof_O 	O 	0.9819	0.88	0.2326	-0.455
Mof_O 	O 	0.1649	0.7794	0.0516	-0.266
Mof_O 	O 	0.0385	0.5627	0.2056	-0.447
Mof_O 	O 	0.983	0.6303	0.2593	-0.315
Mof_O 	O 	0.1715	0.6682	0.0641	-0.265
Mof_O 	O 	0.9244	0.4608	0.6693	-0.321
Mof_O 	O 	0.88	0.5181	0.7326	-0.454
Mof_O 	O 	0.7794	0.3351	0.5516	-0.263
Mof_O 	O 	0.5627	0.4615	0.7056	-0.447
Mof_O 	O 	0.6303	0.517	0.7593	-0.314
Mof_O 	O 	0.6682	0.3285	0.5641	-0.261
Mof_O 	O 	0.5756	0.0392	0.6693	-0.321
Mof_O 	O 	0.62	0.9819	0.7326	-0.455
Mof_O 	O 	0.7206	0.1649	0.5516	-0.263
Mof_O 	O 	0.9373	0.0385	0.7056	-0.447
Mof_O 	O 	0.8697	0.983	0.7593	-0.315
Mof_O 	O 	0.8318	0.1715	0.5641	-0.261
Mof_O 	O 	0.5392	0.0756	0.3307	-0.32
Mof_O 	O 	0.4819	0.12	0.2674	-0.454
Mof_O 	O 	0.6649	0.2206	0.4484	-0.263
Mof_O 	O 	0.5385	0.4373	0.2944	-0.447
Mof_O 	O 	0.483	0.3697	0.2407	-0.315
Mof_O 	O 	0.6715	0.3318	0.4359	-0.261
Mof_O 	O 	0.9608	0.4244	0.3307	-0.321
Mof_O 	O 	0.0181	0.38	0.2674	-0.454
Mof_O 	O 	0.8351	0.2794	0.4484	-0.263
Mof_O 	O 	0.9615	0.0627	0.2944	-0.447
Mof_O 	O 	0.017	0.1303	0.2407	-0.316
Mof_O 	O 	0.8285	0.1682	0.4359	-0.261
Mof_O 	O 	0.0756	0.9608	0.8307	-0.319
Mof_O 	O 	0.12	0.0181	0.7674	-0.454
Mof_O 	O 	0.2206	0.8351	0.9484	-0.255
Mof_O 	O 	0.4373	0.9615	0.7944	-0.447
Mof_O 	O 	0.3697	0.017	0.7407	-0.314
Mof_O 	O 	0.3318	0.8285	0.9359	-0.255
Mof_O 	O 	0.4244	0.5392	0.8307	-0.319
Mof_O 	O 	0.38	0.4819	0.7674	-0.454
Mof_O 	O 	0.2794	0.6649	0.9484	-0.255
Mof_O 	O 	0.0627	0.5385	0.7944	-0.446
Mof_O 	O 	0.1303	0.483	0.7407	-0.314
Mof_O 	O 	0.1682	0.6715	0.9359	-0.255
Mof_O 	O 	0.5392	0.4244	0.8307	-0.319
Mof_O 	O 	0.4819	0.38	0.7674	-0.454
Mof_O 	O 	0.6649	0.2794	0.9484	-0.255
Mof_O 	O 	0.5385	0.0627	0.7944	-0.446
Mof_O 	O 	0.483	0.1303	0.7407	-0.314
Mof_O 	O 	0.6715	0.1682	0.9359	-0.255
Mof_O 	O 	0.9608	0.0756	0.8307	-0.319
Mof_O 	O 	0.0181	0.12	0.7674	-0.454
Mof_O 	O 	0.8351	0.2206	0.9484	-0.255
Mof_O 	O 	0.9615	0.4373	0.7944	-0.447
Mof_O 	O 	0.017	0.3697	0.7407	-0.314
Mof_O 	O 	0.8285	0.3318	0.9359	-0.255
Mof_O 	O 	0.0756	0.5392	0.3307	-0.32
Mof_O 	O 	0.12	0.4819	0.2674	-0.454
Mof_O 	O 	0.2206	0.6649	0.4484	-0.263
Mof_O 	O 	0.4373	0.5385	0.2944	-0.447
Mof_O 	O 	0.3697	0.483	0.2407	-0.315
Mof_O 	O 	0.3318	0.6715	0.4359	-0.261
Mof_O 	O 	0.4244	0.9608	0.3307	-0.321
Mof_O 	O 	0.38	0.0181	0.2674	-0.454
Mof_O 	O 	0.2794	0.8351	0.4484	-0.263
Mof_O 	O 	0.0627	0.9615	0.2944	-0.447
Mof_O 	O 	0.1303	0.017	0.2407	-0.316
Mof_O 	O 	0.1682	0.8285	0.4359	-0.261
Mof_O 	O 	0.4608	0.9244	0.6693	-0.321
Mof_O 	O 	0.5181	0.88	0.7326	-0.454
Mof_O 	O 	0.3351	0.7794	0.5516	-0.263
Mof_O 	O 	0.4615	0.5627	0.7056	-0.447
Mof_O 	O 	0.517	0.6303	0.7593	-0.314
Mof_O 	O 	0.3285	0.6682	0.5641	-0.261
Mof_O 	O 	0.0392	0.5756	0.6693	-0.321
Mof_O 	O 	0.9819	0.62	0.7326	-0.455
Mof_O 	O 	0.1649	0.7206	0.5516	-0.263
Mof_O 	O 	0.0385	0.9373	0.7056	-0.447
Mof_O 	O 	0.983	0.8697	0.7593	-0.315
Mof_O 	O 	0.1715	0.8318	0.5641	-0.261
Mof_O 	O 	0.9244	0.0392	0.1693	-0.322
Mof_O 	O 	0.88	0.9819	0.2326	-0.455
Mof_O 	O 	0.7794	0.1649	0.0516	-0.266
Mof_O 	O 	0.5627	0.0385	0.2056	-0.447
Mof_O 	O 	0.6303	0.983	0.2593	-0.315
Mof_O 	O 	0.6682	0.1715	0.0641	-0.265
Mof_O 	O 	0.5756	0.4608	0.1693	-0.322
Mof_O 	O 	0.62	0.5181	0.2326	-0.454
Mof_O 	O 	0.7206	0.3351	0.0516	-0.266
Mof_O 	O 	0.9373	0.4615	0.2056	-0.447
Mof_O 	O 	0.8697	0.517	0.2593	-0.315
Mof_O 	O 	0.8318	0.3285	0.0641	-0.265
_end
