data_functionalizedCrystal
_audit_creation_method	'EQeq! by Chris Wilmer'
_symmetry_space_group_name_H-M	'P1'
_symmetry_Int_Tables_number	1
_symmetry_cell_setting	triclinic
loop_
_symmetry_equiv_pos_as_xyz
  x,y,z
_cell_length_a	18.577
_cell_length_b	20.125
_cell_length_c	20.895
_cell_angle_alpha	90
_cell_angle_beta	90
_cell_angle_gamma	90
loop_
_atom_site_label
_atom_site_type_symbol
_atom_site_fract_x
_atom_site_fract_y
_atom_site_fract_z
_atom_site_charge
Mof_Ni	Ni	0.45031	0.35797	0.18708	1.076
Mof_Ni	Ni	0.28036	0.99185	0.01287	1.106
Mof_Ni	Ni	0.04969	0.64203	0.68708	1.076
Mof_Ni	Ni	0.21964	0.00815	0.51287	1.107
Mof_Ni	Ni	0.54969	0.85797	0.31292	1.076
Mof_Ni	Ni	0.71964	0.49185	0.48713	1.107
Mof_Ni	Ni	0.95031	0.14203	0.81292	1.075
Mof_Ni	Ni	0.78036	0.50815	0.98713	1.107
Mof_Mo	Mo	0.33176	0.20593	0.17892	1.625
Mof_Mo	Mo	0.31307	0.20953	0.34137	1.152
Mof_Mo	Mo	0.36517	0.06216	0.40137	1.647
Mof_Mo	Mo	0.3925	0.95398	0.27591	1.68
Mof_Mo	Mo	0.40896	0.05861	0.1374	1.708
Mof_Mo	Mo	0.16824	0.79407	0.67892	1.624
Mof_Mo	Mo	0.18693	0.79047	0.84137	1.152
Mof_Mo	Mo	0.13483	0.93784	0.90137	1.645
Mof_Mo	Mo	0.1075	0.04602	0.77591	1.681
Mof_Mo	Mo	0.09104	0.94139	0.6374	1.705
Mof_Mo	Mo	0.66824	0.70593	0.32108	1.624
Mof_Mo	Mo	0.68693	0.70953	0.15863	1.152
Mof_Mo	Mo	0.63483	0.56216	0.09863	1.647
Mof_Mo	Mo	0.6075	0.45398	0.22409	1.68
Mof_Mo	Mo	0.59104	0.55861	0.3626	1.708
Mof_Mo	Mo	0.83176	0.29407	0.82108	1.624
Mof_Mo	Mo	0.81307	0.29047	0.65863	1.151
Mof_Mo	Mo	0.86517	0.43784	0.59863	1.646
Mof_Mo	Mo	0.8925	0.54602	0.72409	1.68
Mof_Mo	Mo	0.90896	0.44139	0.8626	1.708
Mof_P 	P 	0.26864	0.0687	0.25561	0.615
Mof_P 	P 	0.46039	0.1227	0.27653	0.601
Mof_P 	P 	0.23136	0.9313	0.75561	0.613
Mof_P 	P 	0.03961	0.8773	0.77653	0.6
Mof_P 	P 	0.73136	0.5687	0.24439	0.614
Mof_P 	P 	0.53961	0.6227	0.22347	0.601
Mof_P 	P 	0.76864	0.4313	0.74439	0.614
Mof_P 	P 	0.96039	0.3773	0.72347	0.6
Mof_H 	H 	0.3147	0.3642	0.0938	-0.028
Mof_H 	H 	0.4792	0.4748	0.0821	-0.041
Mof_H 	H 	0.3848	0.5207	0.9434	0.08
Mof_H 	H 	0.445	0.5505	0.9877	0.056
Mof_H 	H 	0.2878	0.5913	0.9293	0.067
Mof_H 	H 	0.2117	0.6713	0.9637	-0.006
Mof_H 	H 	0.3164	0.6798	0.1325	0.047
Mof_H 	H 	0.3909	0.5967	0.0928	0.08
Mof_H 	H 	0.1829	0.7205	0.116	0.071
Mof_H 	H 	0.1623	0.7367	0.045	0.05
Mof_H 	H 	0.2919	0.9164	0.1532	-0.023
Mof_H 	H 	0.2382	0.8393	0.9946	-0.028
Mof_H 	H 	0.5021	0.2109	0.1429	0.002
Mof_H 	H 	0.5964	0.3737	0.098	-0.024
Mof_H 	H 	0.659	0.1568	0.0669	0.059
Mof_H 	H 	0.5828	0.1288	0.0851	0.038
Mof_H 	H 	0.6862	0.1874	0.9561	0.03
Mof_H 	H 	0.6655	0.1645	0.85	0.05
Mof_H 	H 	0.4611	0.1164	0.8927	0.087
Mof_H 	H 	0.4883	0.1216	0.0006	0.012
Mof_H 	H 	0.5878	0.1028	0.7747	0.077
Mof_H 	H 	0.5458	0.1702	0.771	0.079
Mof_H 	H 	0.3278	0.0911	0.7461	-0.009
Mof_H 	H 	0.4937	0.9934	0.7887	-0.005
Mof_H 	H 	0.9534	0.5256	0.9839	-0.059
Mof_H 	H 	0.8268	0.5902	0.1171	0.001
Mof_H 	H 	0.0701	0.5893	0.0172	0.047
Mof_H 	H 	0.0517	0.6535	0.0557	0.057
Mof_H 	H 	0.1396	0.5048	0.0664	0.044
Mof_H 	H 	0.2287	0.4908	0.1405	0.083
Mof_H 	H 	0.1458	0.6317	0.2459	0.069
Mof_H 	H 	0.0563	0.6455	0.174	0.047
Mof_H 	H 	0.2935	0.5918	0.2324	0.083
Mof_H 	H 	0.2399	0.5698	0.2857	0.08
Mof_H 	H 	0.408	0.5057	0.2332	0.015
Mof_H 	H 	0.2891	0.3501	0.2504	-0.039
Mof_H 	H 	0.2628	0.0615	0.8731	-0.004
Mof_H 	H 	0.3235	0.1501	0.0252	-0.03
Mof_H 	H 	0.2733	0.2783	0.9203	0.07
Mof_H 	H 	0.3048	0.27	0.9894	0.05
Mof_H 	H 	0.4312	0.2867	0.0055	0.05
Mof_H 	H 	0.537	0.3354	0.9708	0.067
Mof_H 	H 	0.4723	0.3062	0.7921	0.057
Mof_H 	H 	0.3677	0.2617	0.827	0.058
Mof_H 	H 	0.5834	0.3609	0.8069	0.086
Mof_H 	H 	0.6216	0.3134	0.8555	0.058
Mof_H 	H 	0.7123	0.3753	0.9173	-0.038
Mof_H 	H 	0.6197	0.549	0.9305	-0.026
Mof_H 	H 	0.3713	0.9844	0.765	0.185
Mof_H 	H 	0.1853	0.6358	0.5938	-0.028
Mof_H 	H 	0.0208	0.5252	0.5821	-0.041
Mof_H 	H 	0.1152	0.4793	0.4434	0.081
Mof_H 	H 	0.055	0.4495	0.4877	0.056
Mof_H 	H 	0.2122	0.4087	0.4293	0.067
Mof_H 	H 	0.2883	0.3287	0.4637	-0.006
Mof_H 	H 	0.1836	0.3202	0.6325	0.047
Mof_H 	H 	0.1091	0.4033	0.5928	0.081
Mof_H 	H 	0.3171	0.2795	0.616	0.071
Mof_H 	H 	0.3377	0.2633	0.545	0.05
Mof_H 	H 	0.2081	0.0836	0.6532	-0.022
Mof_H 	H 	0.2618	0.1607	0.4946	-0.029
Mof_H 	H 	0.9979	0.7891	0.6429	0.002
Mof_H 	H 	0.9036	0.6263	0.598	-0.024
Mof_H 	H 	0.841	0.8432	0.5669	0.059
Mof_H 	H 	0.9172	0.8712	0.5851	0.039
Mof_H 	H 	0.8138	0.8126	0.4561	0.031
Mof_H 	H 	0.8345	0.8355	0.35	0.049
Mof_H 	H 	0.0389	0.8836	0.3927	0.084
Mof_H 	H 	0.0117	0.8784	0.5006	0.011
Mof_H 	H 	0.9122	0.8972	0.2747	0.077
Mof_H 	H 	0.9542	0.8298	0.271	0.079
Mof_H 	H 	0.1722	0.9089	0.2461	-0.01
Mof_H 	H 	0.0063	0.0066	0.2887	-0.003
Mof_H 	H 	0.5466	0.4744	0.4839	-0.057
Mof_H 	H 	0.6732	0.4098	0.6171	0
Mof_H 	H 	0.4299	0.4107	0.5172	0.047
Mof_H 	H 	0.4483	0.3465	0.5557	0.057
Mof_H 	H 	0.3604	0.4952	0.5664	0.044
Mof_H 	H 	0.2713	0.5092	0.6405	0.083
Mof_H 	H 	0.3542	0.3683	0.7459	0.069
Mof_H 	H 	0.4437	0.3545	0.674	0.047
Mof_H 	H 	0.2065	0.4082	0.7324	0.083
Mof_H 	H 	0.2601	0.4302	0.7857	0.08
Mof_H 	H 	0.092	0.4943	0.7332	0.016
Mof_H 	H 	0.2109	0.6499	0.7504	-0.039
Mof_H 	H 	0.2372	0.9385	0.3731	-0.005
Mof_H 	H 	0.1765	0.8499	0.5252	-0.029
Mof_H 	H 	0.2267	0.7217	0.4203	0.07
Mof_H 	H 	0.1952	0.73	0.4894	0.05
Mof_H 	H 	0.0688	0.7133	0.5055	0.051
Mof_H 	H 	0.963	0.6646	0.4708	0.067
Mof_H 	H 	0.0277	0.6938	0.2921	0.057
Mof_H 	H 	0.1323	0.7383	0.327	0.058
Mof_H 	H 	0.9166	0.6391	0.3069	0.087
Mof_H 	H 	0.8784	0.6866	0.3555	0.058
Mof_H 	H 	0.7877	0.6247	0.4173	-0.038
Mof_H 	H 	0.8803	0.451	0.4305	-0.026
Mof_H 	H 	0.1287	0.0156	0.265	0.186
Mof_H 	H 	0.6853	0.8642	0.4062	-0.028
Mof_H 	H 	0.5208	0.9748	0.4179	-0.041
Mof_H 	H 	0.6152	0.0207	0.5566	0.081
Mof_H 	H 	0.555	0.0505	0.5123	0.057
Mof_H 	H 	0.7122	0.0913	0.5707	0.067
Mof_H 	H 	0.7883	0.1713	0.5363	-0.006
Mof_H 	H 	0.6836	0.1798	0.3675	0.047
Mof_H 	H 	0.6091	0.0967	0.4072	0.081
Mof_H 	H 	0.8171	0.2205	0.384	0.071
Mof_H 	H 	0.8377	0.2367	0.455	0.05
Mof_H 	H 	0.7081	0.4164	0.3468	-0.023
Mof_H 	H 	0.7618	0.3393	0.5054	-0.029
Mof_H 	H 	0.4979	0.7109	0.3571	0.002
Mof_H 	H 	0.4036	0.8737	0.402	-0.024
Mof_H 	H 	0.341	0.6568	0.4331	0.059
Mof_H 	H 	0.4172	0.6288	0.4149	0.038
Mof_H 	H 	0.3138	0.6874	0.5439	0.031
Mof_H 	H 	0.3345	0.6645	0.65	0.05
Mof_H 	H 	0.5389	0.6164	0.6073	0.086
Mof_H 	H 	0.5117	0.6216	0.4994	0.013
Mof_H 	H 	0.4122	0.6028	0.7253	0.077
Mof_H 	H 	0.4542	0.6702	0.729	0.079
Mof_H 	H 	0.6722	0.5911	0.7539	-0.009
Mof_H 	H 	0.5063	0.4934	0.7113	-0.005
Mof_H 	H 	0.0466	0.0256	0.5161	-0.056
Mof_H 	H 	0.1732	0.0902	0.3829	0.001
Mof_H 	H 	0.9299	0.0893	0.4828	0.045
Mof_H 	H 	0.9483	0.1535	0.4443	0.055
Mof_H 	H 	0.8604	0.0048	0.4336	0.038
Mof_H 	H 	0.7713	0.9908	0.3595	0.091
Mof_H 	H 	0.8542	0.1317	0.2541	0.074
Mof_H 	H 	0.9437	0.1455	0.326	0.042
Mof_H 	H 	0.7065	0.0918	0.2676	0.085
Mof_H 	H 	0.7601	0.0698	0.2143	0.082
Mof_H 	H 	0.592	0.0057	0.2668	0.014
Mof_H 	H 	0.7109	0.8501	0.2496	-0.039
Mof_H 	H 	0.7372	0.5615	0.6269	-0.004
Mof_H 	H 	0.6765	0.6501	0.4748	-0.029
Mof_H 	H 	0.7267	0.7783	0.5797	0.07
Mof_H 	H 	0.6952	0.77	0.5106	0.05
Mof_H 	H 	0.5688	0.7867	0.4945	0.051
Mof_H 	H 	0.463	0.8354	0.5292	0.067
Mof_H 	H 	0.5277	0.8062	0.7079	0.057
Mof_H 	H 	0.6323	0.7617	0.673	0.058
Mof_H 	H 	0.4166	0.8609	0.6931	0.086
Mof_H 	H 	0.3784	0.8134	0.6445	0.057
Mof_H 	H 	0.2877	0.8753	0.5827	-0.038
Mof_H 	H 	0.3803	0.049	0.5695	-0.026
Mof_H 	H 	0.6287	0.4844	0.735	0.185
Mof_H 	H 	0.8147	0.1358	0.9062	-0.028
Mof_H 	H 	0.9792	0.0252	0.9179	-0.043
Mof_H 	H 	0.8848	0.9793	0.0566	0.08
Mof_H 	H 	0.945	0.9495	0.0123	0.056
Mof_H 	H 	0.7878	0.9087	0.0707	0.066
Mof_H 	H 	0.7117	0.8287	0.0363	-0.005
Mof_H 	H 	0.8164	0.8202	0.8675	0.048
Mof_H 	H 	0.8909	0.9033	0.9072	0.079
Mof_H 	H 	0.6829	0.7795	0.884	0.072
Mof_H 	H 	0.6623	0.7633	0.955	0.05
Mof_H 	H 	0.7919	0.5836	0.8468	-0.023
Mof_H 	H 	0.7382	0.6607	0.0054	-0.028
Mof_H 	H 	0.0021	0.2891	0.8571	0.003
Mof_H 	H 	0.0964	0.1263	0.902	-0.024
Mof_H 	H 	0.159	0.3432	0.9331	0.058
Mof_H 	H 	0.0828	0.3712	0.9149	0.037
Mof_H 	H 	0.1862	0.3126	0.0439	0.029
Mof_H 	H 	0.1655	0.3355	0.15	0.05
Mof_H 	H 	0.9611	0.3836	0.1073	0.088
Mof_H 	H 	0.9883	0.3784	0.9994	0.011
Mof_H 	H 	0.0878	0.3972	0.2253	0.078
Mof_H 	H 	0.0458	0.3298	0.229	0.08
Mof_H 	H 	0.8278	0.4089	0.2539	-0.009
Mof_H 	H 	0.9937	0.5066	0.2113	-0.005
Mof_H 	H 	0.4534	0.9744	0.0161	-0.057
Mof_H 	H 	0.3268	0.9098	0.8829	0
Mof_H 	H 	0.5701	0.9107	0.9828	0.049
Mof_H 	H 	0.5517	0.8465	0.9443	0.059
Mof_H 	H 	0.6396	0.9952	0.9336	0.049
Mof_H 	H 	0.7287	0.0092	0.8595	0.078
Mof_H 	H 	0.6458	0.8683	0.7541	0.066
Mof_H 	H 	0.5563	0.8545	0.826	0.051
Mof_H 	H 	0.7935	0.9082	0.7676	0.081
Mof_H 	H 	0.7399	0.9302	0.7143	0.079
Mof_H 	H 	0.908	0.9943	0.7668	0.018
Mof_H 	H 	0.7891	0.1499	0.7496	-0.039
Mof_H 	H 	0.7628	0.4385	0.1269	-0.004
Mof_H 	H 	0.8235	0.3499	0.9748	-0.03
Mof_H 	H 	0.7733	0.2217	0.0797	0.07
Mof_H 	H 	0.8048	0.23	0.0106	0.049
Mof_H 	H 	0.9312	0.2133	0.9945	0.048
Mof_H 	H 	0.037	0.1646	0.0292	0.067
Mof_H 	H 	0.9723	0.1938	0.2079	0.058
Mof_H 	H 	0.8677	0.2383	0.173	0.057
Mof_H 	H 	0.0834	0.1391	0.1931	0.087
Mof_H 	H 	0.1216	0.1866	0.1445	0.058
Mof_H 	H 	0.2123	0.1247	0.0827	-0.038
Mof_H 	H 	0.1197	0.951	0.0695	-0.026
Mof_H 	H 	0.8713	0.5156	0.235	0.185
Mof_C 	C 	0.3472	0.3958	0.0791	0.118
Mof_C 	C 	0.4354	0.4543	0.0734	0.118
Mof_C 	C 	0.3963	0.5331	0.9871	-0.143
Mof_C 	C 	0.3451	0.5855	0.0094	0.109
Mof_C 	C 	0.2929	0.6087	0.9703	-0.136
Mof_C 	C 	0.2484	0.6564	0.9904	-0.014
Mof_C 	C 	0.2567	0.6844	0.0518	0.015
Mof_C 	C 	0.3098	0.6624	0.0917	-0.026
Mof_C 	C 	0.3536	0.6124	0.0673	-0.12
Mof_C 	C 	0.202	0.7353	0.0752	-0.105
Mof_C 	C 	0.2723	0.8875	0.1231	0.109
Mof_C 	C 	0.2447	0.8477	0.038	0.1
Mof_C 	C 	0.5326	0.2423	0.1247	0.088
Mof_C 	C 	0.5843	0.3289	0.0995	0.093
Mof_C 	C 	0.6077	0.1629	0.0608	-0.088
Mof_C 	C 	0.5901	0.1557	0.9919	0.019
Mof_C 	C 	0.642	0.1699	0.9439	-0.033
Mof_C 	C 	0.6293	0.1586	0.8802	-0.108
Mof_C 	C 	0.5591	0.1375	0.8614	0.098
Mof_C 	C 	0.5075	0.1273	0.9057	-0.116
Mof_C 	C 	0.5232	0.1331	0.9707	-0.018
Mof_C 	C 	0.5474	0.1273	0.7922	-0.141
Mof_C 	C 	0.3757	0.0818	0.7553	0.158
Mof_C 	C 	0.4622	0.028	0.7795	0.144
Mof_C 	C 	0.9351	0.5479	0.0194	0.119
Mof_C 	C 	0.868	0.5833	0.0926	0.087
Mof_C 	C 	0.0501	0.6054	0.0572	-0.101
Mof_C 	C 	0.0979	0.5833	0.1094	0.039
Mof_C 	C 	0.1433	0.533	0.1015	-0.037
Mof_C 	C 	0.1946	0.5243	0.1459	-0.111
Mof_C 	C 	0.1973	0.5624	0.1968	0.109
Mof_C 	C 	0.1455	0.6073	0.2081	-0.119
Mof_C 	C 	0.0942	0.6166	0.1656	-0.034
Mof_C 	C 	0.259	0.5578	0.244	-0.152
Mof_C 	C 	0.3693	0.4769	0.2386	0.066
Mof_C 	C 	0.3033	0.3944	0.2504	0.105
Mof_C 	C 	0.2761	0.0946	0.9017	0.113
Mof_C 	C 	0.3082	0.1413	0.9837	0.107
Mof_C 	C 	0.3109	0.2568	0.945	-0.103
Mof_C 	C 	0.3841	0.2823	0.9215	0.051
Mof_C 	C 	0.4376	0.2954	0.9622	-0.056
Mof_C 	C 	0.5028	0.3217	0.9412	-0.073
Mof_C 	C 	0.517	0.3278	0.8758	0.075
Mof_C 	C 	0.4638	0.3047	0.836	-0.081
Mof_C 	C 	0.4002	0.2799	0.856	-0.054
Mof_C 	C 	0.5877	0.3499	0.8519	-0.126
Mof_C 	C 	0.6798	0.4103	0.9141	0.11
Mof_C 	C 	0.629	0.5048	0.9205	0.091
Mof_C 	C 	0.1528	0.6042	0.5791	0.118
Mof_C 	C 	0.0646	0.5457	0.5734	0.118
Mof_C 	C 	0.1037	0.4669	0.4871	-0.145
Mof_C 	C 	0.1549	0.4145	0.5094	0.111
Mof_C 	C 	0.2071	0.3913	0.4703	-0.138
Mof_C 	C 	0.2516	0.3436	0.4904	-0.014
Mof_C 	C 	0.2433	0.3156	0.5518	0.015
Mof_C 	C 	0.1902	0.3376	0.5917	-0.025
Mof_C 	C 	0.1464	0.3876	0.5673	-0.121
Mof_C 	C 	0.298	0.2647	0.5752	-0.105
Mof_C 	C 	0.2277	0.1125	0.6231	0.109
Mof_C 	C 	0.2553	0.1523	0.538	0.101
Mof_C 	C 	0.9674	0.7577	0.6247	0.088
Mof_C 	C 	0.9157	0.6711	0.5995	0.093
Mof_C 	C 	0.8923	0.8371	0.5608	-0.089
Mof_C 	C 	0.9099	0.8443	0.4919	0.02
Mof_C 	C 	0.858	0.8301	0.4439	-0.034
Mof_C 	C 	0.8707	0.8414	0.3802	-0.106
Mof_C 	C 	0.9409	0.8625	0.3614	0.095
Mof_C 	C 	0.9925	0.8727	0.4057	-0.111
Mof_C 	C 	0.9768	0.8669	0.4707	-0.018
Mof_C 	C 	0.9526	0.8727	0.2922	-0.138
Mof_C 	C 	0.1243	0.9182	0.2553	0.158
Mof_C 	C 	0.0378	0.972	0.2795	0.141
Mof_C 	C 	0.5649	0.4521	0.5194	0.117
Mof_C 	C 	0.632	0.4167	0.5926	0.087
Mof_C 	C 	0.4499	0.3946	0.5572	-0.1
Mof_C 	C 	0.4021	0.4167	0.6094	0.039
Mof_C 	C 	0.3567	0.467	0.6015	-0.037
Mof_C 	C 	0.3054	0.4757	0.6459	-0.111
Mof_C 	C 	0.3027	0.4376	0.6968	0.109
Mof_C 	C 	0.3545	0.3927	0.7081	-0.119
Mof_C 	C 	0.4058	0.3834	0.6656	-0.034
Mof_C 	C 	0.241	0.4422	0.744	-0.152
Mof_C 	C 	0.1307	0.5231	0.7386	0.066
Mof_C 	C 	0.1967	0.6056	0.7504	0.105
Mof_C 	C 	0.2239	0.9054	0.4017	0.113
Mof_C 	C 	0.1918	0.8587	0.4837	0.105
Mof_C 	C 	0.1891	0.7432	0.445	-0.104
Mof_C 	C 	0.1159	0.7177	0.4215	0.052
Mof_C 	C 	0.0624	0.7046	0.4622	-0.059
Mof_C 	C 	0.9972	0.6783	0.4412	-0.072
Mof_C 	C 	0.983	0.6722	0.3758	0.075
Mof_C 	C 	0.0362	0.6953	0.336	-0.082
Mof_C 	C 	0.0998	0.7201	0.356	-0.054
Mof_C 	C 	0.9123	0.6501	0.3519	-0.126
Mof_C 	C 	0.8202	0.5897	0.4141	0.11
Mof_C 	C 	0.871	0.4952	0.4205	0.091
Mof_C 	C 	0.6528	0.8958	0.4209	0.118
Mof_C 	C 	0.5646	0.9543	0.4266	0.118
Mof_C 	C 	0.6037	0.0331	0.5129	-0.146
Mof_C 	C 	0.6549	0.0855	0.4906	0.111
Mof_C 	C 	0.7071	0.1087	0.5297	-0.138
Mof_C 	C 	0.7516	0.1564	0.5096	-0.014
Mof_C 	C 	0.7433	0.1844	0.4482	0.015
Mof_C 	C 	0.6902	0.1624	0.4083	-0.025
Mof_C 	C 	0.6464	0.1124	0.4327	-0.121
Mof_C 	C 	0.798	0.2353	0.4248	-0.105
Mof_C 	C 	0.7277	0.3875	0.3769	0.109
Mof_C 	C 	0.7553	0.3477	0.462	0.101
Mof_C 	C 	0.4674	0.7423	0.3753	0.088
Mof_C 	C 	0.4157	0.8289	0.4005	0.093
Mof_C 	C 	0.3923	0.6629	0.4392	-0.089
Mof_C 	C 	0.4099	0.6557	0.5081	0.02
Mof_C 	C 	0.358	0.6699	0.5561	-0.033
Mof_C 	C 	0.3707	0.6586	0.6198	-0.108
Mof_C 	C 	0.4409	0.6375	0.6386	0.097
Mof_C 	C 	0.4925	0.6273	0.5943	-0.115
Mof_C 	C 	0.4768	0.6331	0.5293	-0.019
Mof_C 	C 	0.4526	0.6273	0.7078	-0.141
Mof_C 	C 	0.6243	0.5818	0.7447	0.158
Mof_C 	C 	0.5378	0.528	0.7205	0.145
Mof_C 	C 	0.0649	0.0479	0.4806	0.118
Mof_C 	C 	0.132	0.0833	0.4074	0.088
Mof_C 	C 	0.9499	0.1054	0.4428	-0.094
Mof_C 	C 	0.9021	0.0833	0.3906	0.026
Mof_C 	C 	0.8567	0.033	0.3985	-0.021
Mof_C 	C 	0.8054	0.0243	0.3541	-0.13
Mof_C 	C 	0.8027	0.0624	0.3032	0.123
Mof_C 	C 	0.8545	0.1073	0.2919	-0.134
Mof_C 	C 	0.9058	0.1166	0.3344	-0.019
Mof_C 	C 	0.741	0.0578	0.256	-0.161
Mof_C 	C 	0.6307	0.9769	0.2614	0.067
Mof_C 	C 	0.6967	0.8944	0.2496	0.105
Mof_C 	C 	0.7239	0.5946	0.5983	0.113
Mof_C 	C 	0.6918	0.6413	0.5163	0.105
Mof_C 	C 	0.6891	0.7568	0.555	-0.104
Mof_C 	C 	0.6159	0.7823	0.5785	0.052
Mof_C 	C 	0.5624	0.7954	0.5378	-0.058
Mof_C 	C 	0.4972	0.8217	0.5588	-0.072
Mof_C 	C 	0.483	0.8278	0.6242	0.074
Mof_C 	C 	0.5362	0.8047	0.664	-0.08
Mof_C 	C 	0.5998	0.7799	0.644	-0.055
Mof_C 	C 	0.4123	0.8499	0.6481	-0.125
Mof_C 	C 	0.3202	0.9103	0.5859	0.11
Mof_C 	C 	0.371	0.0048	0.5795	0.092
Mof_C 	C 	0.8472	0.1042	0.9209	0.118
Mof_C 	C 	0.9354	0.0457	0.9266	0.118
Mof_C 	C 	0.8963	0.9669	0.0129	-0.138
Mof_C 	C 	0.8451	0.9145	0.9906	0.105
Mof_C 	C 	0.7929	0.8913	0.0297	-0.132
Mof_C 	C 	0.7484	0.8436	0.0096	-0.017
Mof_C 	C 	0.7567	0.8156	0.9482	0.017
Mof_C 	C 	0.8098	0.8376	0.9083	-0.028
Mof_C 	C 	0.8536	0.8876	0.9327	-0.116
Mof_C 	C 	0.702	0.7647	0.9248	-0.106
Mof_C 	C 	0.7723	0.6125	0.8769	0.109
Mof_C 	C 	0.7447	0.6523	0.962	0.1
Mof_C 	C 	0.0326	0.2577	0.8753	0.089
Mof_C 	C 	0.0843	0.1711	0.9005	0.093
Mof_C 	C 	0.1077	0.3371	0.9392	-0.085
Mof_C 	C 	0.0901	0.3443	0.0081	0.016
Mof_C 	C 	0.142	0.3301	0.0561	-0.03
Mof_C 	C 	0.1293	0.3414	0.1198	-0.11
Mof_C 	C 	0.0591	0.3625	0.1386	0.1
Mof_C 	C 	0.0075	0.3727	0.0943	-0.119
Mof_C 	C 	0.0232	0.3669	0.0293	-0.015
Mof_C 	C 	0.0474	0.3727	0.2078	-0.143
Mof_C 	C 	0.8757	0.4182	0.2447	0.158
Mof_C 	C 	0.9622	0.472	0.2205	0.145
Mof_C 	C 	0.4351	0.9521	0.9806	0.117
Mof_C 	C 	0.368	0.9167	0.9074	0.087
Mof_C 	C 	0.5501	0.8946	0.9428	-0.105
Mof_C 	C 	0.5979	0.9167	0.8906	0.048
Mof_C 	C 	0.6433	0.967	0.8985	-0.049
Mof_C 	C 	0.6946	0.9757	0.8541	-0.097
Mof_C 	C 	0.6973	0.9376	0.8032	0.099
Mof_C 	C 	0.6455	0.8927	0.7919	-0.108
Mof_C 	C 	0.5942	0.8834	0.8344	-0.044
Mof_C 	C 	0.759	0.9422	0.756	-0.145
Mof_C 	C 	0.8693	0.0231	0.7614	0.062
Mof_C 	C 	0.8033	0.1056	0.7496	0.105
Mof_C 	C 	0.7761	0.4054	0.0983	0.113
Mof_C 	C 	0.8082	0.3587	0.0163	0.107
Mof_C 	C 	0.8109	0.2432	0.055	-0.102
Mof_C 	C 	0.8841	0.2177	0.0785	0.049
Mof_C 	C 	0.9376	0.2046	0.0378	-0.054
Mof_C 	C 	0.0028	0.1783	0.0588	-0.075
Mof_C 	C 	0.017	0.1722	0.1242	0.077
Mof_C 	C 	0.9638	0.1953	0.164	-0.084
Mof_C 	C 	0.9002	0.2201	0.144	-0.052
Mof_C 	C 	0.0877	0.1501	0.1481	-0.127
Mof_C 	C 	0.1798	0.0897	0.0859	0.11
Mof_C 	C 	0.129	0.9952	0.0795	0.089
Mof_N 	N 	0.411	0.4023	0.1046	-0.248
Mof_N 	N 	0.3311	0.4359	0.032	-0.105
Mof_N 	N 	0.3918	0.4733	0.0292	-0.093
Mof_N 	N 	0.2684	0.9046	0.061	-0.25
Mof_N 	N 	0.2479	0.8293	0.1402	-0.112
Mof_N 	N 	0.2311	0.8043	0.0831	-0.094
Mof_N 	N 	0.5294	0.3066	0.1344	-0.259
Mof_N 	N 	0.6208	0.2832	0.0671	-0.1
Mof_N 	N 	0.5863	0.2293	0.0845	-0.089
Mof_N 	N 	0.3962	0.0204	0.7663	-0.256
Mof_N 	N 	0.4223	0.1284	0.7573	-0.112
Mof_N 	N 	0.4805	0.091	0.7784	-0.093
Mof_N 	N 	0.8692	0.5471	0.0367	-0.242
Mof_N 	N 	0.9319	0.6069	0.1074	-0.099
Mof_N 	N 	0.9746	0.5853	0.0598	-0.094
Mof_N 	N 	0.3707	0.411	0.2348	-0.249
Mof_N 	N 	0.2582	0.4404	0.2653	-0.113
Mof_N 	N 	0.2997	0.4938	0.2519	-0.077
Mof_N 	N 	0.2905	0.0803	0.9621	-0.245
Mof_N 	N 	0.2808	0.1567	0.8832	-0.108
Mof_N 	N 	0.3015	0.1851	0.9404	-0.095
Mof_N 	N 	0.6898	0.4724	0.9376	-0.238
Mof_N 	N 	0.5834	0.466	0.8874	-0.093
Mof_N 	N 	0.6169	0.4077	0.8862	-0.085
Mof_N 	N 	0.089	0.5977	0.6046	-0.248
Mof_N 	N 	0.1689	0.5641	0.532	-0.104
Mof_N 	N 	0.1082	0.5267	0.5292	-0.092
Mof_N 	N 	0.2316	0.0954	0.561	-0.25
Mof_N 	N 	0.2521	0.1707	0.6402	-0.112
Mof_N 	N 	0.2689	0.1957	0.5831	-0.094
Mof_N 	N 	0.9706	0.6934	0.6344	-0.259
Mof_N 	N 	0.8792	0.7168	0.5671	-0.1
Mof_N 	N 	0.9137	0.7707	0.5845	-0.089
Mof_N 	N 	0.1038	0.9796	0.2663	-0.257
Mof_N 	N 	0.0777	0.8716	0.2573	-0.112
Mof_N 	N 	0.0195	0.909	0.2784	-0.093
Mof_N 	N 	0.6308	0.4529	0.5367	-0.242
Mof_N 	N 	0.5681	0.3931	0.6074	-0.1
Mof_N 	N 	0.5254	0.4147	0.5598	-0.095
Mof_N 	N 	0.1293	0.589	0.7348	-0.249
Mof_N 	N 	0.2418	0.5596	0.7653	-0.113
Mof_N 	N 	0.2003	0.5062	0.7519	-0.077
Mof_N 	N 	0.2095	0.9197	0.4621	-0.245
Mof_N 	N 	0.2192	0.8433	0.3832	-0.108
Mof_N 	N 	0.1985	0.8149	0.4404	-0.095
Mof_N 	N 	0.8102	0.5276	0.4376	-0.238
Mof_N 	N 	0.9166	0.534	0.3874	-0.094
Mof_N 	N 	0.8831	0.5923	0.3862	-0.085
Mof_N 	N 	0.589	0.9023	0.3954	-0.248
Mof_N 	N 	0.6689	0.9359	0.468	-0.104
Mof_N 	N 	0.6082	0.9733	0.4708	-0.092
Mof_N 	N 	0.7316	0.4046	0.439	-0.25
Mof_N 	N 	0.7521	0.3293	0.3598	-0.112
Mof_N 	N 	0.7689	0.3043	0.4169	-0.094
Mof_N 	N 	0.4706	0.8066	0.3656	-0.259
Mof_N 	N 	0.3792	0.7832	0.4329	-0.1
Mof_N 	N 	0.4137	0.7293	0.4155	-0.089
Mof_N 	N 	0.6038	0.5204	0.7337	-0.256
Mof_N 	N 	0.5777	0.6284	0.7427	-0.112
Mof_N 	N 	0.5195	0.591	0.7216	-0.093
Mof_N 	N 	0.1308	0.0471	0.4633	-0.241
Mof_N 	N 	0.0681	0.1069	0.3926	-0.099
Mof_N 	N 	0.0254	0.0853	0.4402	-0.095
Mof_N 	N 	0.6293	0.911	0.2652	-0.249
Mof_N 	N 	0.7418	0.9404	0.2347	-0.113
Mof_N 	N 	0.7003	0.9938	0.2481	-0.076
Mof_N 	N 	0.7095	0.5803	0.5379	-0.245
Mof_N 	N 	0.7192	0.6567	0.6168	-0.108
Mof_N 	N 	0.6985	0.6851	0.5596	-0.095
Mof_N 	N 	0.3102	0.9724	0.5624	-0.238
Mof_N 	N 	0.4166	0.966	0.6126	-0.094
Mof_N 	N 	0.3831	0.9077	0.6138	-0.085
Mof_N 	N 	0.911	0.0977	0.8954	-0.249
Mof_N 	N 	0.8311	0.0641	0.968	-0.105
Mof_N 	N 	0.8918	0.0267	0.9708	-0.094
Mof_N 	N 	0.7684	0.5954	0.939	-0.25
Mof_N 	N 	0.7479	0.6707	0.8598	-0.112
Mof_N 	N 	0.7311	0.6957	0.9169	-0.094
Mof_N 	N 	0.0294	0.1934	0.8656	-0.258
Mof_N 	N 	0.1208	0.2168	0.9329	-0.099
Mof_N 	N 	0.0863	0.2707	0.9155	-0.089
Mof_N 	N 	0.8962	0.4796	0.2337	-0.256
Mof_N 	N 	0.9223	0.3716	0.2427	-0.112
Mof_N 	N 	0.9805	0.409	0.2216	-0.092
Mof_N 	N 	0.3692	0.9529	0.9633	-0.242
Mof_N 	N 	0.4319	0.8931	0.8926	-0.1
Mof_N 	N 	0.4746	0.9147	0.9402	-0.094
Mof_N 	N 	0.8707	0.089	0.7652	-0.249
Mof_N 	N 	0.7582	0.0596	0.7347	-0.113
Mof_N 	N 	0.7997	0.0062	0.7481	-0.078
Mof_N 	N 	0.7905	0.4197	0.0379	-0.245
Mof_N 	N 	0.7808	0.3433	0.1168	-0.108
Mof_N 	N 	0.8015	0.3149	0.0596	-0.095
Mof_N 	N 	0.1898	0.0276	0.0624	-0.237
Mof_N 	N 	0.0834	0.034	0.1126	-0.093
Mof_N 	N 	0.1169	0.0923	0.1138	-0.085
Mof_O 	O 	0.3798	0.2789	0.1748	-0.67
Mof_O 	O 	0.396	0.1533	0.1281	-0.679
Mof_O 	O 	0.2782	0.2215	0.2546	-0.642
Mof_O 	O 	0.41	0.1823	0.2717	-0.462
Mof_O 	O 	0.3087	0.1015	0.2002	-0.526
Mof_O 	O 	0.3667	0.1577	0.4011	-0.646
Mof_O 	O 	0.2893	0.1011	0.3194	-0.476
Mof_O 	O 	0.2881	0.0485	0.4454	-0.654
Mof_O 	O 	0.3629	0.9785	0.3593	-0.694
Mof_O 	O 	0.48	0.9344	0.2948	-0.687
Mof_O 	O 	0.4262	0.0652	0.3116	-0.521
Mof_O 	O 	0.4809	0.1003	0.2085	-0.454
Mof_O 	O 	0.2838	0.996	0.2566	-0.443
Mof_O 	O 	0.4071	0.985	0.1911	-0.746
Mof_O 	O 	0.3452	0.0324	0.0835	-0.671
Mof_O 	O 	0.5293	0.1433	0.311	-0.286
Mof_O 	O 	0.1874	0.0802	0.2431	-0.283
Mof_O 	O 	0.1202	0.7211	0.6748	-0.67
Mof_O 	O 	0.104	0.8467	0.6281	-0.678
Mof_O 	O 	0.2218	0.7785	0.7546	-0.642
Mof_O 	O 	0.09	0.8177	0.7717	-0.462
Mof_O 	O 	0.1913	0.8985	0.7002	-0.526
Mof_O 	O 	0.1333	0.8423	0.9011	-0.645
Mof_O 	O 	0.2107	0.8989	0.8194	-0.476
Mof_O 	O 	0.2119	0.9515	0.9454	-0.654
Mof_O 	O 	0.1371	0.0215	0.8593	-0.693
Mof_O 	O 	0.02	0.0656	0.7948	-0.686
Mof_O 	O 	0.0738	0.9348	0.8116	-0.521
Mof_O 	O 	0.0191	0.8997	0.7085	-0.454
Mof_O 	O 	0.2162	0.004	0.7566	-0.442
Mof_O 	O 	0.0929	0.015	0.6911	-0.744
Mof_O 	O 	0.1548	0.9676	0.5835	-0.672
Mof_O 	O 	0.9707	0.8567	0.811	-0.285
Mof_O 	O 	0.3126	0.9198	0.7431	-0.283
Mof_O 	O 	0.6202	0.7789	0.3252	-0.67
Mof_O 	O 	0.604	0.6533	0.3719	-0.679
Mof_O 	O 	0.7218	0.7215	0.2454	-0.642
Mof_O 	O 	0.59	0.6823	0.2283	-0.462
Mof_O 	O 	0.6913	0.6015	0.2998	-0.526
Mof_O 	O 	0.6333	0.6577	0.0989	-0.645
Mof_O 	O 	0.7107	0.6011	0.1806	-0.476
Mof_O 	O 	0.7119	0.5485	0.0546	-0.654
Mof_O 	O 	0.6371	0.4785	0.1407	-0.694
Mof_O 	O 	0.52	0.4344	0.2052	-0.687
Mof_O 	O 	0.5738	0.5652	0.1884	-0.521
Mof_O 	O 	0.5191	0.6003	0.2915	-0.454
Mof_O 	O 	0.7162	0.496	0.2434	-0.443
Mof_O 	O 	0.5929	0.485	0.3089	-0.746
Mof_O 	O 	0.6548	0.5324	0.4165	-0.671
Mof_O 	O 	0.4707	0.6433	0.189	-0.286
Mof_O 	O 	0.8126	0.5802	0.2569	-0.283
Mof_O 	O 	0.8798	0.2211	0.8252	-0.67
Mof_O 	O 	0.896	0.3467	0.8719	-0.679
Mof_O 	O 	0.7782	0.2785	0.7454	-0.642
Mof_O 	O 	0.91	0.3177	0.7283	-0.462
Mof_O 	O 	0.8087	0.3985	0.7998	-0.526
Mof_O 	O 	0.8667	0.3423	0.5989	-0.646
Mof_O 	O 	0.7893	0.3989	0.6806	-0.476
Mof_O 	O 	0.7881	0.4515	0.5546	-0.654
Mof_O 	O 	0.8629	0.5215	0.6407	-0.694
Mof_O 	O 	0.98	0.5656	0.7052	-0.688
Mof_O 	O 	0.9262	0.4348	0.6884	-0.521
Mof_O 	O 	0.9809	0.3997	0.7915	-0.454
Mof_O 	O 	0.7838	0.504	0.7434	-0.443
Mof_O 	O 	0.9071	0.515	0.8089	-0.746
Mof_O 	O 	0.8452	0.4676	0.9165	-0.671
Mof_O 	O 	0.0293	0.3567	0.689	-0.285
Mof_O 	O 	0.6874	0.4198	0.7569	-0.283
_end
