data_functionalizedCrystal
_audit_creation_method	'EQeq! by Chris Wilmer'
_symmetry_space_group_name_H-M	'P1'
_symmetry_Int_Tables_number	1
_symmetry_cell_setting	triclinic
loop_
_symmetry_equiv_pos_as_xyz
  x,y,z
_cell_length_a	9.9602
_cell_length_b	17.0086
_cell_length_c	12.2279
_cell_angle_alpha	90
_cell_angle_beta	96.947
_cell_angle_gamma	90
loop_
_atom_site_label
_atom_site_type_symbol
_atom_site_fract_x
_atom_site_fract_y
_atom_site_fract_z
_atom_site_charge
Mof_C 	C 	0.3349	0.0574	0.2174	0.314
Mof_C 	C 	0.8331	0.117	0.2386	0.276
Mof_C 	C 	0.583	0.0883	0.2339	-0.031
Mof_H 	H 	0.597	0.0386	0.2014	0.067
Mof_C 	C 	0.4536	0.1109	0.2536	-0.032
Mof_C 	C 	0.693	0.1394	0.2624	-0.024
Mof_C 	C 	0.432	0.1824	0.3018	-0.094
Mof_H 	H 	0.3433	0.1979	0.3138	0.078
Mof_C 	C 	0.6724	0.2111	0.3116	-0.099
Mof_H 	H 	0.7458	0.246	0.3309	0.082
Mof_C 	C 	0.5417	0.2311	0.3325	0.112
Mof_C 	C 	0.5928	0.2557	0.5803	-0.713
Mof_H 	H 	0.6917	0.2565	0.5946	0.25
Mof_H 	H 	0.5627	0.2039	0.5519	0.244
Mof_H 	H 	0.5544	0.2662	0.649	0.246
Mof_C 	C 	0.5469	0.3166	0.4983	0.3
Mof_C 	C 	0.4801	0.376	0.3431	0.081
Mof_C 	C 	0.4424	0.3972	0.2269	0.095
Mof_C 	C 	0.3845	0.3671	0.0476	0.072
Mof_H 	H 	0.3743	0.3298	0.9894	0.022
Mof_C 	C 	0.3583	0.4449	0.0235	-0.135
Mof_H 	H 	0.3248	0.4612	0.951	0.085
Mof_C 	C 	0.3822	0.4984	0.1078	0.089
Mof_H 	H 	0.3669	0.5527	0.0931	0.007
Mof_N 	N 	0.5205	0.30412	0.3875	-0.181
Mof_N 	N 	0.5221	0.39128	0.5194	-0.221
Mof_N 	N 	0.4795	0.42836	0.4209	-0.157
Mof_N 	N 	0.4268	0.47502	0.2107	-0.214
Mof_N 	N 	0.4244	0.3419	0.1511	-0.131
Mof_O 	O 	0.3522	0.985	0.2158	-0.26
Mof_O 	O 	0.2241	0.09235	0.1929	-0.394
Mof_O 	O 	0.8438	0.05952	0.1723	-0.351
Mof_O 	O 	0.932	0.15455	0.2837	-0.296
Mof_Cu	Cu	0.45556	0.5485	0.3414	0.914
Mof_C 	C 	0.1651	0.5574	0.2826	0.318
Mof_C 	C 	0.6669	0.617	0.2614	0.277
Mof_C 	C 	0.917	0.5883	0.2661	-0.03
Mof_H 	H 	0.903	0.5386	0.2986	0.068
Mof_C 	C 	0.0464	0.6109	0.2464	-0.033
Mof_C 	C 	0.807	0.6394	0.2376	-0.025
Mof_C 	C 	0.068	0.6824	0.1982	-0.09
Mof_H 	H 	0.1567	0.6979	0.1862	0.078
Mof_C 	C 	0.8276	0.7111	0.1884	-0.098
Mof_H 	H 	0.7542	0.746	0.1691	0.081
Mof_C 	C 	0.9583	0.7311	0.1675	0.109
Mof_C 	C 	0.9072	0.7557	0.9197	-0.713
Mof_H 	H 	0.8083	0.7565	0.9054	0.249
Mof_H 	H 	0.9373	0.7039	0.9481	0.243
Mof_H 	H 	0.9456	0.7662	0.851	0.245
Mof_C 	C 	0.9531	0.8166	0.0017	0.3
Mof_C 	C 	0.0199	0.876	0.1569	0.083
Mof_C 	C 	0.0576	0.8972	0.2731	0.095
Mof_C 	C 	0.1155	0.8671	0.4524	0.075
Mof_H 	H 	0.1257	0.8298	0.5106	0.021
Mof_C 	C 	0.1417	0.9449	0.4765	-0.14
Mof_H 	H 	0.1752	0.9612	0.549	0.087
Mof_C 	C 	0.1178	0.9984	0.3922	0.098
Mof_H 	H 	0.1331	0.0527	0.4069	0.001
Mof_N 	N 	0.9795	0.80412	0.1125	-0.182
Mof_N 	N 	0.9779	0.89128	0.9806	-0.224
Mof_N 	N 	0.0205	0.92836	0.0791	-0.155
Mof_N 	N 	0.0732	0.97502	0.2893	-0.214
Mof_N 	N 	0.0756	0.8419	0.3489	-0.131
Mof_O 	O 	0.1478	0.485	0.2842	-0.263
Mof_O 	O 	0.2759	0.59235	0.3071	-0.394
Mof_O 	O 	0.6562	0.55952	0.3277	-0.352
Mof_O 	O 	0.568	0.65455	0.2163	-0.298
Mof_Cu	Cu	0.04444	0.0485	0.1586	0.911
Mof_C 	C 	0.6651	0.9426	0.7826	0.315
Mof_C 	C 	0.1669	0.883	0.7614	0.277
Mof_C 	C 	0.417	0.9117	0.7661	-0.03
Mof_H 	H 	0.403	0.9614	0.7986	0.068
Mof_C 	C 	0.5464	0.8891	0.7464	-0.032
Mof_C 	C 	0.307	0.8606	0.7376	-0.024
Mof_C 	C 	0.568	0.8176	0.6982	-0.094
Mof_H 	H 	0.6567	0.8021	0.6862	0.078
Mof_C 	C 	0.3276	0.7889	0.6884	-0.099
Mof_H 	H 	0.2542	0.754	0.6691	0.082
Mof_C 	C 	0.4583	0.7689	0.6675	0.112
Mof_C 	C 	0.4072	0.7443	0.4197	-0.713
Mof_H 	H 	0.3083	0.7435	0.4054	0.25
Mof_H 	H 	0.4373	0.7961	0.4481	0.244
Mof_H 	H 	0.4456	0.7338	0.351	0.246
Mof_C 	C 	0.4531	0.6834	0.5017	0.3
Mof_C 	C 	0.5199	0.624	0.6569	0.081
Mof_C 	C 	0.5576	0.6028	0.7731	0.095
Mof_C 	C 	0.6155	0.6329	0.9524	0.072
Mof_H 	H 	0.6257	0.6702	0.0106	0.022
Mof_C 	C 	0.6417	0.5551	0.9765	-0.135
Mof_H 	H 	0.6752	0.5388	0.049	0.085
Mof_C 	C 	0.6178	0.5016	0.8922	0.089
Mof_H 	H 	0.6331	0.4473	0.9069	0.007
Mof_N 	N 	0.4795	0.69588	0.6125	-0.181
Mof_N 	N 	0.4779	0.60872	0.4806	-0.221
Mof_N 	N 	0.5205	0.57164	0.5791	-0.157
Mof_N 	N 	0.5732	0.52498	0.7893	-0.214
Mof_N 	N 	0.5756	0.6581	0.8489	-0.131
Mof_O 	O 	0.6478	0.015	0.7842	-0.26
Mof_O 	O 	0.7759	0.90765	0.8071	-0.394
Mof_O 	O 	0.1562	0.94048	0.8277	-0.351
Mof_O 	O 	0.068	0.84545	0.7163	-0.296
Mof_Cu	Cu	0.54444	0.4515	0.6586	0.914
Mof_C 	C 	0.8349	0.4426	0.7174	0.318
Mof_C 	C 	0.3331	0.383	0.7386	0.277
Mof_C 	C 	0.083	0.4117	0.7339	-0.03
Mof_H 	H 	0.097	0.4614	0.7014	0.068
Mof_C 	C 	0.9536	0.3891	0.7536	-0.033
Mof_C 	C 	0.193	0.3606	0.7624	-0.025
Mof_C 	C 	0.932	0.3176	0.8018	-0.09
Mof_H 	H 	0.8433	0.3021	0.8138	0.078
Mof_C 	C 	0.1724	0.2889	0.8116	-0.098
Mof_H 	H 	0.2458	0.254	0.8309	0.081
Mof_C 	C 	0.0417	0.2689	0.8325	0.109
Mof_C 	C 	0.0928	0.2443	0.0803	-0.713
Mof_H 	H 	0.1917	0.2435	0.0946	0.249
Mof_H 	H 	0.0627	0.2961	0.0519	0.243
Mof_H 	H 	0.0544	0.2338	0.149	0.245
Mof_C 	C 	0.0469	0.1834	0.9983	0.3
Mof_C 	C 	0.9801	0.124	0.8431	0.083
Mof_C 	C 	0.9424	0.1028	0.7269	0.095
Mof_C 	C 	0.8845	0.1329	0.5476	0.075
Mof_H 	H 	0.8743	0.1702	0.4894	0.021
Mof_C 	C 	0.8583	0.0551	0.5235	-0.14
Mof_H 	H 	0.8248	0.0388	0.451	0.087
Mof_C 	C 	0.8822	0.0016	0.6078	0.098
Mof_H 	H 	0.8669	0.9473	0.5931	0.001
Mof_N 	N 	0.0205	0.19588	0.8875	-0.182
Mof_N 	N 	0.0221	0.10872	0.0194	-0.224
Mof_N 	N 	0.9795	0.07164	0.9209	-0.155
Mof_N 	N 	0.9268	0.02498	0.7107	-0.214
Mof_N 	N 	0.9244	0.1581	0.6511	-0.131
Mof_O 	O 	0.8522	0.515	0.7158	-0.263
Mof_O 	O 	0.7241	0.40765	0.6929	-0.394
Mof_O 	O 	0.3438	0.44048	0.6723	-0.352
Mof_O 	O 	0.432	0.34545	0.7837	-0.298
Mof_Cu	Cu	0.95556	0.9515	0.8414	0.911
_end
