data_functionalizedCrystal
_audit_creation_method	'EQeq! by Chris Wilmer'
_symmetry_space_group_name_H-M	'P1'
_symmetry_Int_Tables_number	1
_symmetry_cell_setting	triclinic
loop_
_symmetry_equiv_pos_as_xyz
  x,y,z
_cell_length_a	18.927
_cell_length_b	18.927
_cell_length_c	24.693
_cell_angle_alpha	90
_cell_angle_beta	90
_cell_angle_gamma	120
loop_
_atom_site_label
_atom_site_type_symbol
_atom_site_fract_x
_atom_site_fract_y
_atom_site_fract_z
_atom_site_charge
Mof_Fe	Fe	0.31929	0.53847	0.70848	1.116
Mof_O 	O 	0.3543	0.5064	0.64501	-0.608
Mof_O 	O 	0.3764	0.5038	0.7621	-0.536
Mof_O 	O 	0.2145	0.4288	0.7126	-0.531
Mof_O 	O 	0.2564	0.5858	0.67002	-0.477
Mof_O 	O 	0.4201	0.6515	0.7097	-0.513
Mof_O 	O 	0.2796	0.5738	0.7727	-0.475
Mof_Fe	Fe	0.36354	0.41098	0.64721	1.123
Mof_Fe	Fe	0.37943	0.57017	0.58114	1.124
Mof_C 	C 	0.4264	0.4793	0.757	0.722
Mof_C 	C 	0.2074	0.3603	0.7083	0.713
Mof_C 	C 	0.2442	0.5937	0.6207	0.717
Mof_C 	C 	0.457	0.6967	0.6692	0.748
Mof_C 	C 	0.2463	0.5513	0.8183	0.72
Mof_O 	O 	0.38	0.3141	0.6456	-0.466
Mof_O 	O 	0.4351	0.4467	0.7144	-0.505
Mof_O 	O 	0.2629	0.3464	0.6925	-0.526
Mof_O 	O 	0.2946	0.3633	0.5795	-0.523
Mof_O 	O 	0.4701	0.4589	0.6044	-0.474
Mof_O 	O 	0.2751	0.5764	0.58111	-0.507
Mof_O 	O 	0.437	0.677	0.6208	-0.547
Mof_O 	O 	0.3211	0.4728	0.5308	-0.474
Mof_O 	O 	0.4894	0.5778	0.5711	-0.521
Mof_O 	O 	0.2284	0.5982	0.8439	-0.474
Mof_C 	C 	0.4768	0.4869	0.8053	-1.244
Mof_C 	C 	0.1298	0.2873	0.7251	-1.169
Mof_C 	C 	0.1893	0.6284	0.6091	-1.276
Mof_C 	C 	0.5277	0.7788	0.6806	-1.286
Mof_C 	C 	0.2241	0.4699	0.8415	-1.255
Mof_C 	C 	0.3493	0.2393	0.6525	0.687
Mof_C 	C 	0.2848	0.3962	0.5387	0.723
Mof_C 	C 	0.5137	0.5278	0.5825	0.73
Mof_H 	H 	0.5127	0.4664	0.7968	0.371
Mof_H 	H 	0.5084	0.5432	0.8157	0.379
Mof_H 	H 	0.4417	0.456	0.8347	0.384
Mof_H 	H 	0.1336	0.2391	0.7194	0.342
Mof_H 	H 	0.12	0.2917	0.7628	0.329
Mof_H 	H 	0.0856	0.2839	0.704	0.337
Mof_H 	H 	0.1703	0.6386	0.6426	0.458
Mof_H 	H 	0.2191	0.6785	0.5893	0.406
Mof_H 	H 	0.1435	0.59	0.588	0.392
Mof_H 	H 	0.5363	0.7858	0.719	0.393
Mof_H 	H 	0.5757	0.7838	0.6636	0.378
Mof_H 	H 	0.517	0.8198	0.6665	0.415
Mof_H 	H 	0.1994	0.464	0.8764	0.395
Mof_H 	H 	0.1863	0.4276	0.8178	0.379
Mof_H 	H 	0.2724	0.4657	0.8452	0.387
Mof_O 	O 	0.3922	0.2073	0.6545	-0.465
Mof_C 	C 	0.255	0.1867	0.65	-1.104
Mof_C 	C 	0.2279	0.342	0.4948	-1.25
Mof_C 	C 	0.6003	0.553	0.5693	-1.289
Mof_Fe	Fe	0.3902	0.09962	0.66128	1.114
Mof_H 	H 	0.232	0.2218	0.6486	0.354
Mof_H 	H 	0.2393	0.153	0.6182	0.336
Mof_H 	H 	0.2354	0.1528	0.6816	0.344
Mof_H 	H 	0.2261	0.3752	0.466	0.43
Mof_H 	H 	0.2473	0.3074	0.481	0.393
Mof_H 	H 	0.1742	0.3091	0.5096	0.376
Mof_H 	H 	0.6264	0.6061	0.553	0.385
Mof_H 	H 	0.6286	0.5545	0.6019	0.419
Mof_H 	H 	0.6013	0.5144	0.5445	0.432
Mof_O 	O 	0.2968	0.0665	0.7138	-0.5
Mof_O 	O 	0.4868	0.1586	0.6085	-0.484
Mof_O 	O 	0.4674	0.1516	0.7241	-0.513
Mof_O 	O 	0.2519	0.9365	0.7373	-0.494
Mof_C 	C 	0.2575	0.0052	0.7446	0.652
Mof_C 	C 	0.5361	0.1397	0.5889	0.745
Mof_C 	C 	0.5252	0.1421	0.7401	0.739
Mof_O 	O 	0.541	0.078	0.6036	-0.528
Mof_O 	O 	0.5451	0.0936	0.7204	-0.532
Mof_C 	C 	0.2109	0.0142	0.7907	-1.12
Mof_C 	C 	0.5948	0.1955	0.5468	-1.339
Mof_C 	C 	0.5739	0.1967	0.7863	-1.291
Mof_H 	H 	0.2207	0.0691	0.7915	0.332
Mof_H 	H 	0.1537	0.9769	0.7858	0.322
Mof_H 	H 	0.2287	0.0024	0.8242	0.326
Mof_H 	H 	0.629	0.1744	0.5351	0.402
Mof_H 	H 	0.5649	0.1988	0.5165	0.439
Mof_H 	H 	0.6279	0.2488	0.5621	0.456
Mof_H 	H 	0.5511	0.23	0.7967	0.401
Mof_H 	H 	0.5721	0.1639	0.8165	0.409
Mof_H 	H 	0.6295	0.231	0.7751	0.422
Mof_O 	O 	0.5993	0.9979	0.6529	-0.381
Mof_H 	H 	0.6376	0.9997	0.672	0.122
Mof_H 	H 	0.61	0.995	0.6198	0.149
Mof_Fe	Fe	0.46153	0.78082	0.37515	1.117
Mof_O 	O 	0.4936	0.8479	0.31168	-0.608
Mof_O 	O 	0.4962	0.8726	0.42877	-0.531
Mof_O 	O 	0.5712	0.7857	0.37927	-0.531
Mof_O 	O 	0.4142	0.6706	0.33669	-0.476
Mof_O 	O 	0.3485	0.7686	0.37637	-0.512
Mof_O 	O 	0.4262	0.7058	0.43937	-0.474
Mof_Fe	Fe	0.58902	0.95256	0.31388	1.134
Mof_Fe	Fe	0.42983	0.80926	0.24781	1.126
Mof_C 	C 	0.5207	0.9471	0.42367	0.711
Mof_C 	C 	0.6397	0.8471	0.37497	0.718
Mof_C 	C 	0.4063	0.6505	0.28737	0.717
Mof_C 	C 	0.3033	0.7603	0.33587	0.747
Mof_C 	C 	0.4487	0.695	0.48497	0.722
Mof_O 	O 	0.6859	0.0659	0.31227	-0.47
Mof_O 	O 	0.5533	0.9884	0.38107	-0.498
Mof_O 	O 	0.6536	0.9165	0.35917	-0.526
Mof_O 	O 	0.6367	0.9313	0.24617	-0.521
Mof_O 	O 	0.5411	0.0112	0.27107	-0.491
Mof_O 	O 	0.4236	0.6987	0.24778	-0.507
Mof_O 	O 	0.323	0.76	0.28747	-0.547
Mof_O 	O 	0.5272	0.8483	0.19747	-0.474
Mof_O 	O 	0.4222	0.9116	0.23777	-0.526
Mof_O 	O 	0.4018	0.6302	0.51057	-0.474
Mof_C 	C 	0.5131	0.9899	0.47197	-1.204
Mof_C 	C 	0.7127	0.8425	0.39177	-1.184
Mof_C 	C 	0.3716	0.5609	0.27577	-1.277
Mof_C 	C 	0.2212	0.7489	0.34727	-1.283
Mof_C 	C 	0.5301	0.7542	0.50817	-1.259
Mof_C 	C 	0.7607	0.11	0.31917	0.688
Mof_C 	C 	0.6038	0.8886	0.20537	0.726
Mof_C 	C 	0.4722	0.9859	0.24917	0.759
Mof_H 	H 	0.5336	0.0463	0.46347	0.354
Mof_H 	H 	0.4568	0.9652	0.48237	0.369
Mof_H 	H 	0.544	0.9857	0.50137	0.375
Mof_H 	H 	0.7609	0.8945	0.38607	0.35
Mof_H 	H 	0.7083	0.8283	0.42947	0.336
Mof_H 	H 	0.7161	0.8017	0.37067	0.344
Mof_H 	H 	0.3614	0.5317	0.30927	0.459
Mof_H 	H 	0.3215	0.5406	0.25597	0.406
Mof_H 	H 	0.41	0.5535	0.25467	0.393
Mof_H 	H 	0.2142	0.7505	0.38567	0.391
Mof_H 	H 	0.2162	0.7919	0.33027	0.376
Mof_H 	H 	0.1802	0.6972	0.33317	0.413
Mof_H 	H 	0.536	0.7354	0.54307	0.398
Mof_H 	H 	0.5724	0.7587	0.48447	0.381
Mof_H 	H 	0.5343	0.8067	0.51187	0.389
Mof_O 	O 	0.7927	0.1849	0.32117	-0.466
Mof_C 	C 	0.8133	0.0683	0.31667	-1.104
Mof_C 	C 	0.658	0.8859	0.16147	-1.258
Mof_C 	C 	0.447	0.0473	0.23597	-1.328
Mof_Fe	Fe	0.90038	0.29058	0.32795	1.119
Mof_H 	H 	0.7782	0.0102	0.31527	0.351
Mof_H 	H 	0.847	0.0863	0.28487	0.336
Mof_H 	H 	0.8472	0.0826	0.34827	0.344
Mof_H 	H 	0.6248	0.8509	0.13267	0.433
Mof_H 	H 	0.6926	0.9399	0.14767	0.398
Mof_H 	H 	0.6909	0.8651	0.17627	0.38
Mof_H 	H 	0.3939	0.0203	0.21967	0.393
Mof_H 	H 	0.4455	0.0741	0.26857	0.429
Mof_H 	H 	0.4856	0.0869	0.21117	0.443
Mof_O 	O 	0.9335	0.2303	0.38047	-0.498
Mof_O 	O 	0.8414	0.3282	0.27517	-0.484
Mof_O 	O 	0.8484	0.3158	0.39077	-0.513
Mof_O 	O 	0.0635	0.3154	0.40397	-0.501
Mof_C 	C 	0.9948	0.2523	0.41127	0.655
Mof_C 	C 	0.8603	0.3964	0.25557	0.745
Mof_C 	C 	0.8579	0.3831	0.40677	0.74
Mof_O 	O 	0.922	0.463	0.27027	-0.523
Mof_O 	O 	0.9064	0.4515	0.38707	-0.528
Mof_C 	C 	0.9858	0.1967	0.45737	-1.075
Mof_C 	C 	0.8045	0.3993	0.21347	-1.339
Mof_C 	C 	0.8033	0.3772	0.45297	-1.29
Mof_H 	H 	0.9309	0.1516	0.45817	0.32
Mof_H 	H 	0.0231	0.1768	0.45247	0.3
Mof_H 	H 	0.9976	0.2263	0.49087	0.317
Mof_H 	H 	0.8256	0.4546	0.20177	0.402
Mof_H 	H 	0.8012	0.3661	0.18317	0.439
Mof_H 	H 	0.7512	0.3791	0.22877	0.456
Mof_H 	H 	0.77	0.3211	0.46337	0.4
Mof_H 	H 	0.8361	0.4082	0.48317	0.409
Mof_H 	H 	0.769	0.3985	0.44177	0.422
Mof_O 	O 	0.0021	0.6014	0.31957	-0.32
Mof_H 	H 	0.0003	0.6379	0.33867	0.146
Mof_H 	H 	0.005	0.615	0.28647	0.122
Mof_Fe	Fe	0.21918	0.68071	0.04181	1.116
Mof_O 	O 	0.1521	0.6457	0.97834	-0.603
Mof_O 	O 	0.1274	0.6236	0.09543	-0.538
Mof_O 	O 	0.2143	0.7855	0.04593	-0.531
Mof_O 	O 	0.3294	0.7436	0.00335	-0.482
Mof_O 	O 	0.2314	0.5799	0.04303	-0.517
Mof_O 	O 	0.2942	0.7204	0.10603	-0.474
Mof_Fe	Fe	0.04744	0.63646	0.98054	1.118
Mof_Fe	Fe	0.19074	0.62057	0.91447	1.124
Mof_C 	C 	0.0529	0.5736	0.09033	0.731
Mof_C 	C 	0.1529	0.7926	0.04163	0.716
Mof_C 	C 	0.3495	0.7558	0.95403	0.728
Mof_C 	C 	0.2397	0.543	0.00253	0.758
Mof_C 	C 	0.305	0.7537	0.15163	0.722
Mof_O 	O 	0.9341	0.62	0.97893	-0.457
Mof_O 	O 	0.0116	0.5649	0.04773	-0.513
Mof_O 	O 	0.0835	0.7371	0.02583	-0.53
Mof_O 	O 	0.0687	0.7054	0.91283	-0.525
Mof_O 	O 	0.9888	0.5299	0.93773	-0.455
Mof_O 	O 	0.3013	0.7249	0.91444	-0.509
Mof_O 	O 	0.24	0.563	0.95413	-0.547
Mof_O 	O 	0.1517	0.6789	0.86413	-0.474
Mof_O 	O 	0.0884	0.5106	0.90443	-0.514
Mof_O 	O 	0.3698	0.7716	0.17723	-0.473
Mof_C 	C 	0.0101	0.5232	0.13863	-1.274
Mof_C 	C 	0.1575	0.8702	0.05843	-1.179
Mof_C 	C 	0.4391	0.8107	0.94243	-1.291
Mof_C 	C 	0.2511	0.4723	0.01393	-1.348
Mof_C 	C 	0.2458	0.7759	0.17483	-1.259
Mof_C 	C 	0.89	0.6507	0.98583	0.681
Mof_C 	C 	0.1114	0.7152	0.87203	0.722
Mof_C 	C 	0.0141	0.4863	0.91583	0.7
Mof_H 	H 	0.9537	0.4873	0.13013	0.384
Mof_H 	H 	0.0348	0.4916	0.14903	0.387
Mof_H 	H 	0.0143	0.5583	0.16803	0.393
Mof_H 	H 	0.1055	0.8664	0.05273	0.345
Mof_H 	H 	0.1717	0.88	0.09613	0.334
Mof_H 	H 	0.1983	0.9144	0.03733	0.343
Mof_H 	H 	0.4683	0.8297	0.97593	0.466
Mof_H 	H 	0.4594	0.7809	0.92263	0.411
Mof_H 	H 	0.4465	0.8565	0.92133	0.398
Mof_H 	H 	0.2495	0.4637	0.05233	0.409
Mof_H 	H 	0.2081	0.4243	0.99693	0.398
Mof_H 	H 	0.3028	0.483	0.99983	0.437
Mof_H 	H 	0.2646	0.8006	0.20973	0.398
Mof_H 	H 	0.2413	0.8137	0.15113	0.381
Mof_H 	H 	0.1933	0.7276	0.17853	0.388
Mof_O 	O 	0.8151	0.6078	0.98783	-0.461
Mof_C 	C 	0.9317	0.745	0.98333	-1.073
Mof_C 	C 	0.1141	0.7721	0.82813	-1.249
Mof_C 	C 	0.9527	0.3997	0.90263	-1.247
Mof_Fe	Fe	0.70942	0.6098	0.99461	1.128
Mof_H 	H 	0.9898	0.768	0.98193	0.351
Mof_H 	H 	0.9137	0.7607	0.95153	0.33
Mof_H 	H 	0.9174	0.7646	0.01493	0.331
Mof_H 	H 	0.1491	0.7739	0.79933	0.43
Mof_H 	H 	0.0601	0.7527	0.81433	0.39
Mof_H 	H 	0.1349	0.8258	0.84293	0.377
Mof_H 	H 	0.9797	0.3736	0.88633	0.375
Mof_H 	H 	0.9259	0.3714	0.93523	0.409
Mof_H 	H 	0.9131	0.3987	0.87783	0.421
Mof_O 	O 	0.7697	0.7032	0.04713	-0.504
Mof_O 	O 	0.6718	0.5132	0.94183	-0.483
Mof_O 	O 	0.6842	0.5326	0.05743	-0.518
Mof_O 	O 	0.6846	0.7481	0.07063	-0.498
Mof_C 	C 	0.7477	0.7425	0.07793	0.657
Mof_C 	C 	0.6036	0.4639	0.92223	0.746
Mof_C 	C 	0.6169	0.4748	0.07343	0.741
Mof_O 	O 	0.537	0.459	0.93693	-0.522
Mof_O 	O 	0.5485	0.4549	0.05373	-0.533
Mof_C 	C 	0.8033	0.7891	0.12403	-1.108
Mof_C 	C 	0.6007	0.4052	0.88013	-1.339
Mof_C 	C 	0.6228	0.4261	0.11963	-1.293
Mof_H 	H 	0.8484	0.7793	0.12483	0.331
Mof_H 	H 	0.8232	0.8463	0.11913	0.316
Mof_H 	H 	0.7737	0.7713	0.15753	0.325
Mof_H 	H 	0.5454	0.371	0.86843	0.403
Mof_H 	H 	0.6339	0.4351	0.84983	0.439
Mof_H 	H 	0.6209	0.3721	0.89543	0.457
Mof_H 	H 	0.6789	0.4489	0.13003	0.401
Mof_H 	H 	0.5918	0.4279	0.14983	0.41
Mof_H 	H 	0.6015	0.3705	0.10843	0.422
Mof_O 	O 	0.3986	0.4007	0.98623	-0.471
Mof_H 	H 	0.3621	0.3624	0.00533	0.191
Mof_H 	H 	0.385	0.39	0.95313	0.189
Mof_Fe	Fe	0.53847	0.31929	0.29152	1.117
Mof_O 	O 	0.5064	0.3543	0.35499	-0.607
Mof_O 	O 	0.5038	0.3764	0.2379	-0.535
Mof_O 	O 	0.4288	0.2145	0.2874	-0.53
Mof_O 	O 	0.5858	0.2564	0.32998	-0.476
Mof_O 	O 	0.6515	0.4201	0.2903	-0.512
Mof_O 	O 	0.5738	0.2796	0.2273	-0.474
Mof_Fe	Fe	0.41098	0.36354	0.35279	1.124
Mof_Fe	Fe	0.57017	0.37943	0.41886	1.124
Mof_C 	C 	0.4793	0.4264	0.243	0.723
Mof_C 	C 	0.3603	0.2074	0.2917	0.712
Mof_C 	C 	0.5937	0.2442	0.3793	0.717
Mof_C 	C 	0.6967	0.457	0.3308	0.748
Mof_C 	C 	0.5513	0.2463	0.1817	0.72
Mof_O 	O 	0.3141	0.38	0.3544	-0.466
Mof_O 	O 	0.4467	0.4351	0.2856	-0.505
Mof_O 	O 	0.3464	0.2629	0.3075	-0.526
Mof_O 	O 	0.3633	0.2946	0.4205	-0.523
Mof_O 	O 	0.4589	0.4701	0.3956	-0.474
Mof_O 	O 	0.5764	0.2751	0.41889	-0.507
Mof_O 	O 	0.677	0.437	0.3792	-0.547
Mof_O 	O 	0.4728	0.3211	0.4692	-0.474
Mof_O 	O 	0.5778	0.4894	0.4289	-0.521
Mof_O 	O 	0.5982	0.2284	0.1561	-0.474
Mof_C 	C 	0.4869	0.4768	0.1947	-1.247
Mof_C 	C 	0.2873	0.1298	0.2749	-1.169
Mof_C 	C 	0.6284	0.1893	0.3909	-1.276
Mof_C 	C 	0.7788	0.5277	0.3194	-1.286
Mof_C 	C 	0.4699	0.2241	0.1585	-1.255
Mof_C 	C 	0.2393	0.3493	0.3475	0.687
Mof_C 	C 	0.3962	0.2848	0.4613	0.723
Mof_C 	C 	0.5278	0.5137	0.4175	0.73
Mof_H 	H 	0.4664	0.5127	0.2032	0.372
Mof_H 	H 	0.5432	0.5084	0.1843	0.38
Mof_H 	H 	0.456	0.4417	0.1653	0.386
Mof_H 	H 	0.2391	0.1336	0.2806	0.341
Mof_H 	H 	0.2917	0.12	0.2372	0.328
Mof_H 	H 	0.2839	0.0856	0.296	0.336
Mof_H 	H 	0.6386	0.1703	0.3574	0.458
Mof_H 	H 	0.6785	0.2191	0.4107	0.406
Mof_H 	H 	0.59	0.1435	0.412	0.392
Mof_H 	H 	0.7858	0.5363	0.281	0.393
Mof_H 	H 	0.7838	0.5757	0.3364	0.378
Mof_H 	H 	0.8198	0.517	0.3335	0.415
Mof_H 	H 	0.464	0.1994	0.1236	0.395
Mof_H 	H 	0.4276	0.1863	0.1822	0.379
Mof_H 	H 	0.4657	0.2724	0.1548	0.387
Mof_O 	O 	0.2073	0.3922	0.3455	-0.465
Mof_C 	C 	0.1867	0.255	0.35	-1.104
Mof_C 	C 	0.342	0.2279	0.5052	-1.25
Mof_C 	C 	0.553	0.6003	0.4307	-1.289
Mof_Fe	Fe	0.09962	0.3902	0.33872	1.114
Mof_H 	H 	0.2218	0.232	0.3514	0.354
Mof_H 	H 	0.153	0.2393	0.3818	0.336
Mof_H 	H 	0.1528	0.2354	0.3184	0.343
Mof_H 	H 	0.3752	0.2261	0.534	0.43
Mof_H 	H 	0.3074	0.2473	0.519	0.393
Mof_H 	H 	0.3091	0.1742	0.4904	0.376
Mof_H 	H 	0.6061	0.6264	0.447	0.385
Mof_H 	H 	0.5545	0.6286	0.3981	0.419
Mof_H 	H 	0.5144	0.6013	0.4555	0.432
Mof_O 	O 	0.0665	0.2968	0.2862	-0.5
Mof_O 	O 	0.1586	0.4868	0.3915	-0.484
Mof_O 	O 	0.1516	0.4674	0.2759	-0.513
Mof_O 	O 	0.9365	0.2519	0.2627	-0.493
Mof_C 	C 	0.0052	0.2575	0.2554	0.65
Mof_C 	C 	0.1397	0.5361	0.4111	0.745
Mof_C 	C 	0.1421	0.5252	0.2599	0.739
Mof_O 	O 	0.078	0.541	0.3964	-0.528
Mof_O 	O 	0.0936	0.5451	0.2796	-0.532
Mof_C 	C 	0.0142	0.2109	0.2093	-1.115
Mof_C 	C 	0.1955	0.5948	0.4532	-1.339
Mof_C 	C 	0.1967	0.5739	0.2137	-1.29
Mof_H 	H 	0.0691	0.2207	0.2085	0.329
Mof_H 	H 	0.9769	0.1537	0.2142	0.32
Mof_H 	H 	0.0024	0.2287	0.1758	0.323
Mof_H 	H 	0.1744	0.629	0.4649	0.402
Mof_H 	H 	0.1988	0.5649	0.4835	0.439
Mof_H 	H 	0.2488	0.6279	0.4379	0.456
Mof_H 	H 	0.23	0.5511	0.2033	0.4
Mof_H 	H 	0.1639	0.5721	0.1835	0.408
Mof_H 	H 	0.231	0.6295	0.2249	0.422
Mof_O 	O 	0.9979	0.5993	0.3471	-0.381
Mof_H 	H 	0.9997	0.6376	0.328	0.122
Mof_H 	H 	0.995	0.61	0.3802	0.149
Mof_Fe	Fe	0.78082	0.46153	0.62485	1.117
Mof_O 	O 	0.8479	0.4936	0.68832	-0.608
Mof_O 	O 	0.8726	0.4962	0.57123	-0.531
Mof_O 	O 	0.7857	0.5712	0.62073	-0.531
Mof_O 	O 	0.6706	0.4142	0.66331	-0.476
Mof_O 	O 	0.7686	0.3485	0.62363	-0.512
Mof_O 	O 	0.7058	0.4262	0.56063	-0.474
Mof_Fe	Fe	0.95256	0.58902	0.68612	1.134
Mof_Fe	Fe	0.80926	0.42983	0.75219	1.126
Mof_C 	C 	0.9471	0.5207	0.57633	0.711
Mof_C 	C 	0.8471	0.6397	0.62503	0.718
Mof_C 	C 	0.6505	0.4063	0.71263	0.717
Mof_C 	C 	0.7603	0.3033	0.66413	0.747
Mof_C 	C 	0.695	0.4487	0.51503	0.722
Mof_O 	O 	0.0659	0.6859	0.68773	-0.47
Mof_O 	O 	0.9884	0.5533	0.61893	-0.498
Mof_O 	O 	0.9165	0.6536	0.64083	-0.526
Mof_O 	O 	0.9313	0.6367	0.75383	-0.521
Mof_O 	O 	0.0112	0.5411	0.72893	-0.49
Mof_O 	O 	0.6987	0.4236	0.75222	-0.507
Mof_O 	O 	0.76	0.323	0.71253	-0.547
Mof_O 	O 	0.8483	0.5272	0.80253	-0.474
Mof_O 	O 	0.9116	0.4222	0.76223	-0.526
Mof_O 	O 	0.6302	0.4018	0.48943	-0.474
Mof_C 	C 	0.9899	0.5131	0.52803	-1.204
Mof_C 	C 	0.8425	0.7127	0.60823	-1.184
Mof_C 	C 	0.5609	0.3716	0.72423	-1.278
Mof_C 	C 	0.7489	0.2212	0.65273	-1.283
Mof_C 	C 	0.7542	0.5301	0.49183	-1.259
Mof_C 	C 	0.11	0.7607	0.68083	0.688
Mof_C 	C 	0.8886	0.6038	0.79463	0.726
Mof_C 	C 	0.9859	0.4722	0.75083	0.759
Mof_H 	H 	0.0463	0.5336	0.53653	0.354
Mof_H 	H 	0.9652	0.4568	0.51763	0.369
Mof_H 	H 	0.9857	0.544	0.49863	0.375
Mof_H 	H 	0.8945	0.7609	0.61393	0.35
Mof_H 	H 	0.8283	0.7083	0.57053	0.336
Mof_H 	H 	0.8017	0.7161	0.62933	0.344
Mof_H 	H 	0.5317	0.3614	0.69073	0.459
Mof_H 	H 	0.5406	0.3215	0.74403	0.406
Mof_H 	H 	0.5535	0.41	0.74533	0.393
Mof_H 	H 	0.7505	0.2142	0.61433	0.391
Mof_H 	H 	0.7919	0.2162	0.66973	0.376
Mof_H 	H 	0.6972	0.1802	0.66683	0.413
Mof_H 	H 	0.7354	0.536	0.45693	0.398
Mof_H 	H 	0.7587	0.5724	0.51553	0.381
Mof_H 	H 	0.8067	0.5343	0.48813	0.389
Mof_O 	O 	0.1849	0.7927	0.67883	-0.466
Mof_C 	C 	0.0683	0.8133	0.68333	-1.105
Mof_C 	C 	0.8859	0.658	0.83853	-1.258
Mof_C 	C 	0.0473	0.447	0.76403	-1.327
Mof_Fe	Fe	0.29058	0.90038	0.67205	1.119
Mof_H 	H 	0.0102	0.7782	0.68473	0.351
Mof_H 	H 	0.0863	0.847	0.71513	0.336
Mof_H 	H 	0.0826	0.8472	0.65173	0.344
Mof_H 	H 	0.8509	0.6248	0.86733	0.433
Mof_H 	H 	0.9399	0.6926	0.85233	0.398
Mof_H 	H 	0.8651	0.6909	0.82373	0.381
Mof_H 	H 	0.0203	0.3939	0.78033	0.393
Mof_H 	H 	0.0741	0.4455	0.73143	0.429
Mof_H 	H 	0.0869	0.4856	0.78883	0.443
Mof_O 	O 	0.2303	0.9335	0.61953	-0.498
Mof_O 	O 	0.3282	0.8414	0.72483	-0.484
Mof_O 	O 	0.3158	0.8484	0.60923	-0.513
Mof_O 	O 	0.3154	0.0635	0.59603	-0.501
Mof_C 	C 	0.2523	0.9948	0.58873	0.655
Mof_C 	C 	0.3964	0.8603	0.74443	0.745
Mof_C 	C 	0.3831	0.8579	0.59323	0.74
Mof_O 	O 	0.463	0.922	0.72973	-0.523
Mof_O 	O 	0.4515	0.9064	0.61293	-0.528
Mof_C 	C 	0.1967	0.9858	0.54263	-1.074
Mof_C 	C 	0.3993	0.8045	0.78653	-1.34
Mof_C 	C 	0.3772	0.8033	0.54703	-1.29
Mof_H 	H 	0.1516	0.9309	0.54183	0.32
Mof_H 	H 	0.1768	0.0231	0.54753	0.3
Mof_H 	H 	0.2263	0.9976	0.50913	0.317
Mof_H 	H 	0.4546	0.8256	0.79823	0.403
Mof_H 	H 	0.3661	0.8012	0.81683	0.44
Mof_H 	H 	0.3791	0.7512	0.77123	0.456
Mof_H 	H 	0.3211	0.77	0.53663	0.401
Mof_H 	H 	0.4082	0.8361	0.51683	0.409
Mof_H 	H 	0.3985	0.769	0.55823	0.422
Mof_O 	O 	0.6014	0.0021	0.68043	-0.32
Mof_H 	H 	0.6379	0.0003	0.66133	0.146
Mof_H 	H 	0.615	0.005	0.71353	0.122
Mof_Fe	Fe	0.68071	0.21918	0.95819	1.124
Mof_O 	O 	0.6457	0.1521	0.02166	-0.61
Mof_O 	O 	0.6236	0.1274	0.90457	-0.536
Mof_O 	O 	0.7855	0.2143	0.95407	-0.529
Mof_O 	O 	0.7436	0.3294	0.99665	-0.463
Mof_O 	O 	0.5799	0.2314	0.95697	-0.506
Mof_O 	O 	0.7204	0.2942	0.89397	-0.475
Mof_Fe	Fe	0.63646	0.04744	0.01946	1.102
Mof_Fe	Fe	0.62057	0.19074	0.08553	1.12
Mof_C 	C 	0.5736	0.0529	0.90967	0.73
Mof_C 	C 	0.7926	0.1529	0.95837	0.718
Mof_C 	C 	0.7558	0.3495	0.04597	0.698
Mof_C 	C 	0.543	0.2397	0.99747	0.731
Mof_C 	C 	0.7537	0.305	0.84837	0.723
Mof_O 	O 	0.62	0.9341	0.02107	-0.465
Mof_O 	O 	0.5649	0.0116	0.95227	-0.503
Mof_O 	O 	0.7371	0.0835	0.97417	-0.521
Mof_O 	O 	0.7054	0.0687	0.08717	-0.525
Mof_O 	O 	0.5299	0.9888	0.06227	-0.455
Mof_O 	O 	0.7249	0.3013	0.08556	-0.503
Mof_O 	O 	0.563	0.24	0.04587	-0.547
Mof_O 	O 	0.6789	0.1517	0.13587	-0.474
Mof_O 	O 	0.5106	0.0884	0.09557	-0.514
Mof_O 	O 	0.7716	0.3698	0.82277	-0.473
Mof_C 	C 	0.5232	0.0101	0.86137	-1.271
Mof_C 	C 	0.8702	0.1575	0.94157	-1.184
Mof_C 	C 	0.8107	0.4391	0.05757	-1.255
Mof_C 	C 	0.4723	0.2511	0.98607	-1.191
Mof_C 	C 	0.7759	0.2458	0.82517	-1.26
Mof_C 	C 	0.6507	0.89	0.01417	0.696
Mof_C 	C 	0.7152	0.1114	0.12797	0.72
Mof_C 	C 	0.4863	0.0141	0.08417	0.696
Mof_H 	H 	0.4873	0.9537	0.86987	0.383
Mof_H 	H 	0.4916	0.0348	0.85097	0.387
Mof_H 	H 	0.5583	0.0143	0.83197	0.392
Mof_H 	H 	0.8664	0.1055	0.94727	0.348
Mof_H 	H 	0.88	0.1717	0.90387	0.336
Mof_H 	H 	0.9144	0.1983	0.96267	0.346
Mof_H 	H 	0.8297	0.4683	0.02407	0.449
Mof_H 	H 	0.7809	0.4594	0.07737	0.399
Mof_H 	H 	0.8565	0.4465	0.07867	0.386
Mof_H 	H 	0.4637	0.2495	0.94767	0.365
Mof_H 	H 	0.4243	0.2081	0.00307	0.342
Mof_H 	H 	0.483	0.3028	0.00017	0.379
Mof_H 	H 	0.8006	0.2646	0.79027	0.398
Mof_H 	H 	0.8137	0.2413	0.84887	0.382
Mof_H 	H 	0.7276	0.1933	0.82147	0.389
Mof_O 	O 	0.6078	0.8151	0.01217	-0.47
Mof_C 	C 	0.745	0.9317	0.01667	-1.144
Mof_C 	C 	0.7721	0.1141	0.17187	-1.246
Mof_C 	C 	0.3997	0.9527	0.09737	-1.241
Mof_Fe	Fe	0.6098	0.70942	0.00539	1.108
Mof_H 	H 	0.768	0.9898	0.01807	0.368
Mof_H 	H 	0.7607	0.9137	0.04847	0.349
Mof_H 	H 	0.7646	0.9174	0.98507	0.362
Mof_H 	H 	0.7739	0.1491	0.20067	0.429
Mof_H 	H 	0.7527	0.0601	0.18567	0.389
Mof_H 	H 	0.8258	0.1349	0.15707	0.375
Mof_H 	H 	0.3736	0.9797	0.11367	0.374
Mof_H 	H 	0.3714	0.9259	0.06477	0.406
Mof_H 	H 	0.3987	0.9131	0.12217	0.419
Mof_O 	O 	0.7032	0.7697	0.95287	-0.496
Mof_O 	O 	0.5132	0.6718	0.05817	-0.484
Mof_O 	O 	0.5326	0.6842	0.94257	-0.509
Mof_O 	O 	0.7481	0.6846	0.92937	-0.498
Mof_C 	C 	0.7425	0.7477	0.92207	0.657
Mof_C 	C 	0.4639	0.6036	0.07777	0.744
Mof_C 	C 	0.4748	0.6169	0.92657	0.738
Mof_O 	O 	0.459	0.537	0.06307	-0.527
Mof_O 	O 	0.4549	0.5485	0.94627	-0.528
Mof_C 	C 	0.7891	0.8033	0.87597	-1.109
Mof_C 	C 	0.4052	0.6007	0.11987	-1.338
Mof_C 	C 	0.4261	0.6228	0.88037	-1.289
Mof_H 	H 	0.7793	0.8484	0.87517	0.331
Mof_H 	H 	0.8463	0.8232	0.88087	0.318
Mof_H 	H 	0.7713	0.7737	0.84247	0.326
Mof_H 	H 	0.371	0.5454	0.13157	0.401
Mof_H 	H 	0.4351	0.6339	0.15017	0.439
Mof_H 	H 	0.3721	0.6209	0.10457	0.455
Mof_H 	H 	0.4489	0.6789	0.86997	0.4
Mof_H 	H 	0.4279	0.5918	0.85017	0.408
Mof_H 	H 	0.3705	0.6015	0.89157	0.421
Mof_O 	O 	0.4007	0.3986	0.01377	-0.229
Mof_H 	H 	0.3624	0.3621	0.99467	0.076
Mof_H 	H 	0.39	0.385	0.04687	0.08
Mof_O 	O 	0.3915	1.31808e-32	0.66667	-0.608
Mof_Fe	Fe	0.4924	1.31808e-32	0.66667	1.112
Mof_O 	O 	6.10405e-18	0.3915	0.33333	-0.608
Mof_Fe	Fe	-2.35765e-17	0.4924	0.33333	1.112
Mof_O 	O 	0.6085	0.6085	-0	-0.609
Mof_Fe	Fe	0.5076	0.5076	-0	1.111
_end
