data_functionalizedCrystal
_audit_creation_method	'EQeq! by Chris Wilmer'
_symmetry_space_group_name_H-M	'P1'
_symmetry_Int_Tables_number	1
_symmetry_cell_setting	triclinic
loop_
_symmetry_equiv_pos_as_xyz
  x,y,z
_cell_length_a	13.361
_cell_length_b	13.789
_cell_length_c	14.017
_cell_angle_alpha	90
_cell_angle_beta	90
_cell_angle_gamma	90
loop_
_atom_site_label
_atom_site_type_symbol
_atom_site_fract_x
_atom_site_fract_y
_atom_site_fract_z
_atom_site_charge
Mof_Co	Co	0.37314	0.24059	0.98491	1.185
Mof_Co	Co	0.37204	0.27507	0.73757	1.183
Mof_Co	Co	0.56481	0.25931	0.35827	1.184
Mof_Co	Co	0.25806	0.37372	0.34276	1.175
Mof_Co	Co	0.27641	0.13222	0.37807	1.176
Mof_P 	P 	0.3928	0.239	0.2163	0.517
Mof_P 	P 	0.3873	0.2821	0.5065	0.53
Mof_P 	P 	0.25663	0.1112	0.8325	0.538
Mof_P 	P 	0.24011	0.39223	0.8842	0.527
Mof_P 	P 	0.56951	0.2584	0.862	0.532
Mof_O 	O 	0.398	0.2014	0.1133	-0.414
Mof_O 	O 	0.3808	0.1527	0.2852	-0.466
Mof_O 	O 	0.4904	0.2925	0.2411	-0.417
Mof_O 	O 	0.3033	0.3081	0.226	-0.446
Mof_O 	O 	0.3874	0.3194	0.6078	-0.399
Mof_O 	O 	0.309	0.2008	0.4973	-0.44
Mof_O 	O 	0.493	0.2464	0.4798	-0.421
Mof_O 	O 	0.3593	0.3674	0.4418	-0.449
Mof_O 	O 	0.3416	0.1294	0.9024	-0.45
Mof_O 	O 	0.2693	0.1743	0.7435	-0.432
Mof_O 	O 	0.1555	0.131	0.8782	-0.429
Mof_O 	O 	0.2619	0.006	0.7981	-0.392
Mof_O 	O 	0.2615	0.3321	0.9749	-0.425
Mof_O 	O 	0.3273	0.3858	0.8141	-0.445
Mof_O 	O 	0.1429	0.3571	0.8359	-0.427
Mof_O 	O 	0.2258	0.4973	0.9165	-0.39
Mof_O 	O 	0.5049	0.2915	0.9443	-0.415
Mof_O 	O 	0.5068	0.2364	0.7734	-0.425
Mof_O 	O 	0.6276	0.1666	0.8906	-0.427
Mof_O 	O 	0.641	0.3417	0.8367	-0.428
Mof_Co	Co	0.62686	0.75941	0.98491	1.184
Mof_Co	Co	0.62796	0.72493	0.73757	1.182
Mof_Co	Co	0.43519	0.74069	0.35827	1.184
Mof_Co	Co	0.74194	0.62628	0.34276	1.175
Mof_Co	Co	0.72359	0.86778	0.37807	1.176
Mof_P 	P 	0.6072	0.761	0.2163	0.517
Mof_P 	P 	0.6127	0.7179	0.5065	0.53
Mof_P 	P 	0.74337	0.8888	0.8325	0.538
Mof_P 	P 	0.75989	0.60777	0.8842	0.527
Mof_P 	P 	0.43049	0.7416	0.862	0.532
Mof_O 	O 	0.602	0.7986	0.1133	-0.414
Mof_O 	O 	0.6192	0.8473	0.2852	-0.466
Mof_O 	O 	0.5096	0.7075	0.2411	-0.417
Mof_O 	O 	0.6967	0.6919	0.226	-0.446
Mof_O 	O 	0.6126	0.6806	0.6078	-0.399
Mof_O 	O 	0.691	0.7992	0.4973	-0.44
Mof_O 	O 	0.507	0.7536	0.4798	-0.421
Mof_O 	O 	0.6407	0.6326	0.4418	-0.449
Mof_O 	O 	0.6584	0.8706	0.9024	-0.45
Mof_O 	O 	0.7307	0.8257	0.7435	-0.432
Mof_O 	O 	0.8445	0.869	0.8782	-0.429
Mof_O 	O 	0.7381	0.994	0.7981	-0.392
Mof_O 	O 	0.7385	0.6679	0.9749	-0.425
Mof_O 	O 	0.6727	0.6142	0.8141	-0.445
Mof_O 	O 	0.8571	0.6429	0.8359	-0.427
Mof_O 	O 	0.7742	0.5027	0.9165	-0.39
Mof_O 	O 	0.4951	0.7085	0.9443	-0.415
Mof_O 	O 	0.4932	0.7636	0.7734	-0.425
Mof_O 	O 	0.3724	0.8334	0.8906	-0.427
Mof_O 	O 	0.359	0.6583	0.8367	-0.428
Mof_Co	Co	0.87314	0.25941	0.48491	1.18
Mof_Co	Co	0.87204	0.22493	0.23757	1.181
Mof_Co	Co	0.06481	0.24069	0.85827	1.184
Mof_Co	Co	0.75806	0.12628	0.84276	1.175
Mof_Co	Co	0.77641	0.36778	0.87807	1.177
Mof_P 	P 	0.8928	0.261	0.7163	0.517
Mof_P 	P 	0.8873	0.2179	0.0065	0.493
Mof_P 	P 	0.75663	0.3888	0.3325	0.538
Mof_P 	P 	0.74011	0.10777	0.3842	0.527
Mof_P 	P 	0.06951	0.2416	0.362	0.532
Mof_O 	O 	0.898	0.2986	0.6133	-0.404
Mof_O 	O 	0.8808	0.3473	0.7852	-0.464
Mof_O 	O 	0.9904	0.2075	0.7411	-0.414
Mof_O 	O 	0.8033	0.1919	0.726	-0.442
Mof_O 	O 	0.8874	0.1806	0.1078	-0.401
Mof_O 	O 	0.809	0.2992	0.9973	-0.424
Mof_O 	O 	0.993	0.2536	0.9798	-0.406
Mof_O 	O 	0.8593	0.1326	0.9418	-0.435
Mof_O 	O 	0.8416	0.3706	0.4024	-0.453
Mof_O 	O 	0.7693	0.3257	0.2435	-0.435
Mof_O 	O 	0.6555	0.369	0.3782	-0.431
Mof_O 	O 	0.7619	0.494	0.2981	-0.395
Mof_O 	O 	0.7615	0.1679	0.4749	-0.43
Mof_O 	O 	0.8273	0.1142	0.3141	-0.447
Mof_O 	O 	0.6429	0.1429	0.3359	-0.429
Mof_O 	O 	0.7258	0.0027	0.4165	-0.394
Mof_O 	O 	0.0049	0.2085	0.4443	-0.42
Mof_O 	O 	0.0068	0.2636	0.2734	-0.428
Mof_O 	O 	0.1276	0.3334	0.3906	-0.43
Mof_O 	O 	0.141	0.1583	0.3367	-0.431
Mof_Co	Co	0.12686	0.74059	0.48491	1.18
Mof_Co	Co	0.12796	0.77507	0.23757	1.181
Mof_Co	Co	0.93519	0.75931	0.85827	1.184
Mof_Co	Co	0.24194	0.87372	0.84276	1.175
Mof_Co	Co	0.22359	0.63222	0.87807	1.177
Mof_P 	P 	0.1072	0.739	0.7163	0.517
Mof_P 	P 	0.1127	0.7821	0.0065	0.493
Mof_P 	P 	0.24337	0.6112	0.3325	0.538
Mof_P 	P 	0.25989	0.89223	0.3842	0.527
Mof_P 	P 	0.93049	0.7584	0.362	0.532
Mof_O 	O 	0.102	0.7014	0.6133	-0.404
Mof_O 	O 	0.1192	0.6527	0.7852	-0.464
Mof_O 	O 	0.0096	0.7925	0.7411	-0.414
Mof_O 	O 	0.1967	0.8081	0.726	-0.442
Mof_O 	O 	0.1126	0.8194	0.1078	-0.401
Mof_O 	O 	0.191	0.7008	0.9973	-0.424
Mof_O 	O 	0.007	0.7464	0.9798	-0.406
Mof_O 	O 	0.1407	0.8674	0.9418	-0.435
Mof_O 	O 	0.1584	0.6294	0.4024	-0.453
Mof_O 	O 	0.2307	0.6743	0.2435	-0.435
Mof_O 	O 	0.3445	0.631	0.3782	-0.431
Mof_O 	O 	0.2381	0.506	0.2981	-0.395
Mof_O 	O 	0.2385	0.8321	0.4749	-0.43
Mof_O 	O 	0.1727	0.8858	0.3141	-0.447
Mof_O 	O 	0.3571	0.8571	0.3359	-0.429
Mof_O 	O 	0.2742	0.9973	0.4165	-0.394
Mof_O 	O 	0.9951	0.7915	0.4443	-0.42
Mof_O 	O 	0.9932	0.7364	0.2734	-0.428
Mof_O 	O 	0.8724	0.6666	0.3906	-0.43
Mof_O 	O 	0.859	0.8417	0.3367	-0.431
_end
