data_functionalizedCrystal
_audit_creation_method	'EQeq! by Chris Wilmer'
_symmetry_space_group_name_H-M	'P1'
_symmetry_Int_Tables_number	1
_symmetry_cell_setting	triclinic
loop_
_symmetry_equiv_pos_as_xyz
  x,y,z
_cell_length_a	44.5993
_cell_length_b	44.5993
_cell_length_c	44.5993
_cell_angle_alpha	90
_cell_angle_beta	90
_cell_angle_gamma	90
loop_
_atom_site_label
_atom_site_type_symbol
_atom_site_fract_x
_atom_site_fract_y
_atom_site_fract_z
_atom_site_charge
Mof_O 	O 	0.15135	0.10802	0.03108	-0.4
Mof_O 	O 	0.1869	0.14347	0.03101	-0.396
Mof_C 	C 	0.21623	0.11636	0.07836	-0.002
Mof_H 	H 	0.2253	0.1327	0.0692	0.071
Mof_C 	C 	0.19003	0.10476	0.06677	-0.078
Mof_C 	C 	0.17511	0.12013	0.04084	0.36
Mof_N 	N 	0.27022	0.10595	0.14066	-0.081
Mof_N 	N 	0.29273	0.12504	0.1452	-0.137
Mof_O 	O 	0.15135	0.60802	0.53108	-0.4
Mof_O 	O 	0.1869	0.64347	0.53101	-0.396
Mof_C 	C 	0.21623	0.61636	0.57836	-0.004
Mof_H 	H 	0.2253	0.6327	0.5692	0.071
Mof_C 	C 	0.19003	0.60476	0.56677	-0.078
Mof_C 	C 	0.17511	0.62013	0.54084	0.359
Mof_N 	N 	0.27022	0.60595	0.64066	-0.081
Mof_N 	N 	0.29273	0.62504	0.6452	-0.137
Mof_O 	O 	0.65135	0.10802	0.53108	-0.4
Mof_O 	O 	0.6869	0.14347	0.53101	-0.396
Mof_C 	C 	0.71623	0.11636	0.57836	-0.004
Mof_H 	H 	0.7253	0.1327	0.5692	0.071
Mof_C 	C 	0.69003	0.10476	0.56677	-0.078
Mof_C 	C 	0.67511	0.12013	0.54084	0.359
Mof_N 	N 	0.77022	0.10595	0.64066	-0.081
Mof_N 	N 	0.79273	0.12504	0.6452	-0.137
Mof_O 	O 	0.65135	0.60802	0.03108	-0.401
Mof_O 	O 	0.6869	0.64347	0.03101	-0.397
Mof_C 	C 	0.71623	0.61636	0.07836	-0.004
Mof_H 	H 	0.7253	0.6327	0.0692	0.071
Mof_C 	C 	0.69003	0.60476	0.06677	-0.078
Mof_C 	C 	0.67511	0.62013	0.04084	0.359
Mof_N 	N 	0.77022	0.60595	0.14066	-0.081
Mof_N 	N 	0.79273	0.62504	0.1452	-0.137
Mof_O 	O 	0.84865	0.89198	0.03108	-0.4
Mof_O 	O 	0.8131	0.85653	0.03101	-0.397
Mof_C 	C 	0.78377	0.88364	0.07836	-0.004
Mof_H 	H 	0.7747	0.8673	0.0692	0.071
Mof_C 	C 	0.80997	0.89524	0.06677	-0.078
Mof_C 	C 	0.82489	0.87987	0.04084	0.359
Mof_N 	N 	0.72978	0.89405	0.14066	-0.08
Mof_N 	N 	0.70727	0.87496	0.1452	-0.137
Mof_O 	O 	0.84865	0.39198	0.53108	-0.4
Mof_O 	O 	0.8131	0.35653	0.53101	-0.396
Mof_C 	C 	0.78377	0.38364	0.57836	-0.004
Mof_H 	H 	0.7747	0.3673	0.5692	0.071
Mof_C 	C 	0.80997	0.39524	0.56677	-0.077
Mof_C 	C 	0.82489	0.37987	0.54084	0.359
Mof_N 	N 	0.72978	0.39405	0.64066	-0.081
Mof_N 	N 	0.70727	0.37496	0.6452	-0.137
Mof_O 	O 	0.34865	0.89198	0.53108	-0.399
Mof_O 	O 	0.3131	0.85653	0.53101	-0.396
Mof_C 	C 	0.28377	0.88364	0.57836	-0.004
Mof_H 	H 	0.2747	0.8673	0.5692	0.071
Mof_C 	C 	0.30997	0.89524	0.56677	-0.077
Mof_C 	C 	0.32489	0.87987	0.54084	0.359
Mof_N 	N 	0.22978	0.89405	0.64066	-0.08
Mof_N 	N 	0.20727	0.87496	0.6452	-0.137
Mof_O 	O 	0.34865	0.39198	0.03108	-0.401
Mof_O 	O 	0.3131	0.35653	0.03101	-0.397
Mof_C 	C 	0.28377	0.38364	0.07836	-0.004
Mof_H 	H 	0.2747	0.3673	0.0692	0.071
Mof_C 	C 	0.30997	0.39524	0.06677	-0.078
Mof_C 	C 	0.32489	0.37987	0.04084	0.359
Mof_N 	N 	0.22978	0.39405	0.14066	-0.081
Mof_N 	N 	0.20727	0.37496	0.1452	-0.137
Mof_O 	O 	0.84865	0.10802	0.96892	-0.398
Mof_O 	O 	0.8131	0.14347	0.96899	-0.394
Mof_C 	C 	0.78377	0.11636	0.92164	-0.004
Mof_H 	H 	0.7747	0.1327	0.9308	0.071
Mof_C 	C 	0.80997	0.10476	0.93323	-0.077
Mof_C 	C 	0.82489	0.12013	0.95916	0.358
Mof_N 	N 	0.72978	0.10595	0.85934	-0.081
Mof_N 	N 	0.70727	0.12504	0.8548	-0.137
Mof_O 	O 	0.84865	0.60802	0.46892	-0.4
Mof_O 	O 	0.8131	0.64347	0.46899	-0.396
Mof_C 	C 	0.78377	0.61636	0.42164	-0.004
Mof_H 	H 	0.7747	0.6327	0.4308	0.071
Mof_C 	C 	0.80997	0.60476	0.43323	-0.078
Mof_C 	C 	0.82489	0.62013	0.45916	0.359
Mof_N 	N 	0.72978	0.60595	0.35934	-0.081
Mof_N 	N 	0.70727	0.62504	0.3548	-0.137
Mof_O 	O 	0.34865	0.10802	0.46892	-0.4
Mof_O 	O 	0.3131	0.14347	0.46899	-0.396
Mof_C 	C 	0.28377	0.11636	0.42164	-0.004
Mof_H 	H 	0.2747	0.1327	0.4308	0.071
Mof_C 	C 	0.30997	0.10476	0.43323	-0.078
Mof_C 	C 	0.32489	0.12013	0.45916	0.359
Mof_N 	N 	0.22978	0.10595	0.35934	-0.081
Mof_N 	N 	0.20727	0.12504	0.3548	-0.137
Mof_O 	O 	0.34865	0.60802	0.96892	-0.398
Mof_O 	O 	0.3131	0.64347	0.96899	-0.394
Mof_C 	C 	0.28377	0.61636	0.92164	-0.004
Mof_H 	H 	0.2747	0.6327	0.9308	0.072
Mof_C 	C 	0.30997	0.60476	0.93323	-0.077
Mof_C 	C 	0.32489	0.62013	0.95916	0.358
Mof_N 	N 	0.22978	0.60595	0.85934	-0.081
Mof_N 	N 	0.20727	0.62504	0.8548	-0.137
Mof_O 	O 	0.15135	0.89198	0.96892	-0.397
Mof_O 	O 	0.1869	0.85653	0.96899	-0.394
Mof_C 	C 	0.21623	0.88364	0.92164	-0.004
Mof_H 	H 	0.2253	0.8673	0.9308	0.072
Mof_C 	C 	0.19003	0.89524	0.93323	-0.076
Mof_C 	C 	0.17511	0.87987	0.95916	0.358
Mof_N 	N 	0.27022	0.89405	0.85934	-0.08
Mof_N 	N 	0.29273	0.87496	0.8548	-0.137
Mof_O 	O 	0.15135	0.39198	0.46892	-0.4
Mof_O 	O 	0.1869	0.35653	0.46899	-0.396
Mof_C 	C 	0.21623	0.38364	0.42164	-0.004
Mof_H 	H 	0.2253	0.3673	0.4308	0.071
Mof_C 	C 	0.19003	0.39524	0.43323	-0.078
Mof_C 	C 	0.17511	0.37987	0.45916	0.359
Mof_N 	N 	0.27022	0.39405	0.35934	-0.081
Mof_N 	N 	0.29273	0.37496	0.3548	-0.137
Mof_O 	O 	0.65135	0.89198	0.46892	-0.399
Mof_O 	O 	0.6869	0.85653	0.46899	-0.396
Mof_C 	C 	0.71623	0.88364	0.42164	-0.004
Mof_H 	H 	0.7253	0.8673	0.4308	0.071
Mof_C 	C 	0.69003	0.89524	0.43323	-0.077
Mof_C 	C 	0.67511	0.87987	0.45916	0.359
Mof_N 	N 	0.77022	0.89405	0.35934	-0.08
Mof_N 	N 	0.79273	0.87496	0.3548	-0.137
Mof_O 	O 	0.65135	0.39198	0.96892	-0.398
Mof_O 	O 	0.6869	0.35653	0.96899	-0.394
Mof_C 	C 	0.71623	0.38364	0.92164	-0.004
Mof_H 	H 	0.7253	0.3673	0.9308	0.072
Mof_C 	C 	0.69003	0.39524	0.93323	-0.077
Mof_C 	C 	0.67511	0.37987	0.95916	0.358
Mof_N 	N 	0.77022	0.39405	0.85934	-0.081
Mof_N 	N 	0.79273	0.37496	0.8548	-0.137
Mof_O 	O 	0.03108	0.15135	0.10802	-0.401
Mof_O 	O 	0.03101	0.1869	0.14347	-0.397
Mof_C 	C 	0.07836	0.21623	0.11636	-0.003
Mof_H 	H 	0.0692	0.2253	0.1327	0.07
Mof_C 	C 	0.06677	0.19003	0.10476	-0.079
Mof_C 	C 	0.04084	0.17511	0.12013	0.359
Mof_N 	N 	0.14066	0.27022	0.10595	-0.081
Mof_N 	N 	0.1452	0.29273	0.12504	-0.137
Mof_O 	O 	0.03108	0.65135	0.60802	-0.401
Mof_O 	O 	0.03101	0.6869	0.64347	-0.397
Mof_C 	C 	0.07836	0.71623	0.61636	-0.004
Mof_H 	H 	0.0692	0.7253	0.6327	0.071
Mof_C 	C 	0.06677	0.69003	0.60476	-0.078
Mof_C 	C 	0.04084	0.67511	0.62013	0.359
Mof_N 	N 	0.14066	0.77022	0.60595	-0.081
Mof_N 	N 	0.1452	0.79273	0.62504	-0.137
Mof_O 	O 	0.53108	0.15135	0.60802	-0.4
Mof_O 	O 	0.53101	0.1869	0.64347	-0.396
Mof_C 	C 	0.57836	0.21623	0.61636	-0.004
Mof_H 	H 	0.5692	0.2253	0.6327	0.071
Mof_C 	C 	0.56677	0.19003	0.60476	-0.078
Mof_C 	C 	0.54084	0.17511	0.62013	0.359
Mof_N 	N 	0.64066	0.27022	0.60595	-0.081
Mof_N 	N 	0.6452	0.29273	0.62504	-0.137
Mof_O 	O 	0.53108	0.65135	0.10802	-0.4
Mof_O 	O 	0.53101	0.6869	0.14347	-0.396
Mof_C 	C 	0.57836	0.71623	0.11636	-0.004
Mof_H 	H 	0.5692	0.7253	0.1327	0.071
Mof_C 	C 	0.56677	0.69003	0.10476	-0.078
Mof_C 	C 	0.54084	0.67511	0.12013	0.359
Mof_N 	N 	0.64066	0.77022	0.10595	-0.081
Mof_N 	N 	0.6452	0.79273	0.12504	-0.137
Mof_O 	O 	0.03108	0.84865	0.89198	-0.4
Mof_O 	O 	0.03101	0.8131	0.85653	-0.397
Mof_C 	C 	0.07836	0.78377	0.88364	-0.004
Mof_H 	H 	0.0692	0.7747	0.8673	0.071
Mof_C 	C 	0.06677	0.80997	0.89524	-0.078
Mof_C 	C 	0.04084	0.82489	0.87987	0.359
Mof_N 	N 	0.14066	0.72978	0.89405	-0.08
Mof_N 	N 	0.1452	0.70727	0.87496	-0.137
Mof_O 	O 	0.03108	0.34865	0.39198	-0.401
Mof_O 	O 	0.03101	0.3131	0.35653	-0.397
Mof_C 	C 	0.07836	0.28377	0.38364	-0.004
Mof_H 	H 	0.0692	0.2747	0.3673	0.071
Mof_C 	C 	0.06677	0.30997	0.39524	-0.078
Mof_C 	C 	0.04084	0.32489	0.37987	0.359
Mof_N 	N 	0.14066	0.22978	0.39405	-0.081
Mof_N 	N 	0.1452	0.20727	0.37496	-0.137
Mof_O 	O 	0.53108	0.84865	0.39198	-0.4
Mof_O 	O 	0.53101	0.8131	0.35653	-0.396
Mof_C 	C 	0.57836	0.78377	0.38364	-0.004
Mof_H 	H 	0.5692	0.7747	0.3673	0.071
Mof_C 	C 	0.56677	0.80997	0.39524	-0.077
Mof_C 	C 	0.54084	0.82489	0.37987	0.359
Mof_N 	N 	0.64066	0.72978	0.39405	-0.081
Mof_N 	N 	0.6452	0.70727	0.37496	-0.137
Mof_O 	O 	0.53108	0.34865	0.89198	-0.399
Mof_O 	O 	0.53101	0.3131	0.85653	-0.396
Mof_C 	C 	0.57836	0.28377	0.88364	-0.004
Mof_H 	H 	0.5692	0.2747	0.8673	0.071
Mof_C 	C 	0.56677	0.30997	0.89524	-0.077
Mof_C 	C 	0.54084	0.32489	0.87987	0.359
Mof_N 	N 	0.64066	0.22978	0.89405	-0.08
Mof_N 	N 	0.6452	0.20727	0.87496	-0.137
Mof_O 	O 	0.96892	0.84865	0.10802	-0.398
Mof_O 	O 	0.96899	0.8131	0.14347	-0.394
Mof_C 	C 	0.92164	0.78377	0.11636	-0.004
Mof_H 	H 	0.9308	0.7747	0.1327	0.071
Mof_C 	C 	0.93323	0.80997	0.10476	-0.077
Mof_C 	C 	0.95916	0.82489	0.12013	0.358
Mof_N 	N 	0.85934	0.72978	0.10595	-0.081
Mof_N 	N 	0.8548	0.70727	0.12504	-0.137
Mof_O 	O 	0.96892	0.34865	0.60802	-0.398
Mof_O 	O 	0.96899	0.3131	0.64347	-0.394
Mof_C 	C 	0.92164	0.28377	0.61636	-0.004
Mof_H 	H 	0.9308	0.2747	0.6327	0.072
Mof_C 	C 	0.93323	0.30997	0.60476	-0.077
Mof_C 	C 	0.95916	0.32489	0.62013	0.358
Mof_N 	N 	0.85934	0.22978	0.60595	-0.081
Mof_N 	N 	0.8548	0.20727	0.62504	-0.137
Mof_O 	O 	0.46892	0.84865	0.60802	-0.4
Mof_O 	O 	0.46899	0.8131	0.64347	-0.396
Mof_C 	C 	0.42164	0.78377	0.61636	-0.004
Mof_H 	H 	0.4308	0.7747	0.6327	0.071
Mof_C 	C 	0.43323	0.80997	0.60476	-0.078
Mof_C 	C 	0.45916	0.82489	0.62013	0.359
Mof_N 	N 	0.35934	0.72978	0.60595	-0.081
Mof_N 	N 	0.3548	0.70727	0.62504	-0.137
Mof_O 	O 	0.46892	0.34865	0.10802	-0.4
Mof_O 	O 	0.46899	0.3131	0.14347	-0.396
Mof_C 	C 	0.42164	0.28377	0.11636	-0.004
Mof_H 	H 	0.4308	0.2747	0.1327	0.071
Mof_C 	C 	0.43323	0.30997	0.10476	-0.078
Mof_C 	C 	0.45916	0.32489	0.12013	0.359
Mof_N 	N 	0.35934	0.22978	0.10595	-0.081
Mof_N 	N 	0.3548	0.20727	0.12504	-0.137
Mof_O 	O 	0.96892	0.15135	0.89198	-0.397
Mof_O 	O 	0.96899	0.1869	0.85653	-0.394
Mof_C 	C 	0.92164	0.21623	0.88364	-0.004
Mof_H 	H 	0.9308	0.2253	0.8673	0.072
Mof_C 	C 	0.93323	0.19003	0.89524	-0.076
Mof_C 	C 	0.95916	0.17511	0.87987	0.358
Mof_N 	N 	0.85934	0.27022	0.89405	-0.08
Mof_N 	N 	0.8548	0.29273	0.87496	-0.137
Mof_O 	O 	0.96892	0.65135	0.39198	-0.398
Mof_O 	O 	0.96899	0.6869	0.35653	-0.394
Mof_C 	C 	0.92164	0.71623	0.38364	-0.004
Mof_H 	H 	0.9308	0.7253	0.3673	0.072
Mof_C 	C 	0.93323	0.69003	0.39524	-0.077
Mof_C 	C 	0.95916	0.67511	0.37987	0.358
Mof_N 	N 	0.85934	0.77022	0.39405	-0.081
Mof_N 	N 	0.8548	0.79273	0.37496	-0.137
Mof_O 	O 	0.46892	0.15135	0.39198	-0.4
Mof_O 	O 	0.46899	0.1869	0.35653	-0.396
Mof_C 	C 	0.42164	0.21623	0.38364	-0.004
Mof_H 	H 	0.4308	0.2253	0.3673	0.071
Mof_C 	C 	0.43323	0.19003	0.39524	-0.078
Mof_C 	C 	0.45916	0.17511	0.37987	0.359
Mof_N 	N 	0.35934	0.27022	0.39405	-0.081
Mof_N 	N 	0.3548	0.29273	0.37496	-0.137
Mof_O 	O 	0.46892	0.65135	0.89198	-0.399
Mof_O 	O 	0.46899	0.6869	0.85653	-0.396
Mof_C 	C 	0.42164	0.71623	0.88364	-0.004
Mof_H 	H 	0.4308	0.7253	0.8673	0.071
Mof_C 	C 	0.43323	0.69003	0.89524	-0.077
Mof_C 	C 	0.45916	0.67511	0.87987	0.359
Mof_N 	N 	0.35934	0.77022	0.89405	-0.08
Mof_N 	N 	0.3548	0.79273	0.87496	-0.137
Mof_O 	O 	0.10802	0.03108	0.15135	-0.401
Mof_O 	O 	0.14347	0.03101	0.1869	-0.397
Mof_C 	C 	0.11636	0.07836	0.21623	-0.003
Mof_H 	H 	0.1327	0.0692	0.2253	0.07
Mof_C 	C 	0.10476	0.06677	0.19003	-0.079
Mof_C 	C 	0.12013	0.04084	0.17511	0.359
Mof_N 	N 	0.10595	0.14066	0.27022	-0.081
Mof_N 	N 	0.12504	0.1452	0.29273	-0.137
Mof_O 	O 	0.10802	0.53108	0.65135	-0.4
Mof_O 	O 	0.14347	0.53101	0.6869	-0.396
Mof_C 	C 	0.11636	0.57836	0.71623	-0.004
Mof_H 	H 	0.1327	0.5692	0.7253	0.071
Mof_C 	C 	0.10476	0.56677	0.69003	-0.078
Mof_C 	C 	0.12013	0.54084	0.67511	0.359
Mof_N 	N 	0.10595	0.64066	0.77022	-0.081
Mof_N 	N 	0.12504	0.6452	0.79273	-0.137
Mof_O 	O 	0.60802	0.03108	0.65135	-0.401
Mof_O 	O 	0.64347	0.03101	0.6869	-0.397
Mof_C 	C 	0.61636	0.07836	0.71623	-0.004
Mof_H 	H 	0.6327	0.0692	0.7253	0.071
Mof_C 	C 	0.60476	0.06677	0.69003	-0.078
Mof_C 	C 	0.62013	0.04084	0.67511	0.359
Mof_N 	N 	0.60595	0.14066	0.77022	-0.081
Mof_N 	N 	0.62504	0.1452	0.79273	-0.137
Mof_O 	O 	0.60802	0.53108	0.15135	-0.4
Mof_O 	O 	0.64347	0.53101	0.1869	-0.396
Mof_C 	C 	0.61636	0.57836	0.21623	-0.004
Mof_H 	H 	0.6327	0.5692	0.2253	0.071
Mof_C 	C 	0.60476	0.56677	0.19003	-0.078
Mof_C 	C 	0.62013	0.54084	0.17511	0.359
Mof_N 	N 	0.60595	0.64066	0.27022	-0.081
Mof_N 	N 	0.62504	0.6452	0.29273	-0.137
Mof_O 	O 	0.89198	0.03108	0.84865	-0.4
Mof_O 	O 	0.85653	0.03101	0.8131	-0.397
Mof_C 	C 	0.88364	0.07836	0.78377	-0.004
Mof_H 	H 	0.8673	0.0692	0.7747	0.071
Mof_C 	C 	0.89524	0.06677	0.80997	-0.078
Mof_C 	C 	0.87987	0.04084	0.82489	0.359
Mof_N 	N 	0.89405	0.14066	0.72978	-0.08
Mof_N 	N 	0.87496	0.1452	0.70727	-0.137
Mof_O 	O 	0.89198	0.53108	0.34865	-0.399
Mof_O 	O 	0.85653	0.53101	0.3131	-0.396
Mof_C 	C 	0.88364	0.57836	0.28377	-0.004
Mof_H 	H 	0.8673	0.5692	0.2747	0.071
Mof_C 	C 	0.89524	0.56677	0.30997	-0.077
Mof_C 	C 	0.87987	0.54084	0.32489	0.359
Mof_N 	N 	0.89405	0.64066	0.22978	-0.08
Mof_N 	N 	0.87496	0.6452	0.20727	-0.137
Mof_O 	O 	0.39198	0.03108	0.34865	-0.401
Mof_O 	O 	0.35653	0.03101	0.3131	-0.397
Mof_C 	C 	0.38364	0.07836	0.28377	-0.004
Mof_H 	H 	0.3673	0.0692	0.2747	0.071
Mof_C 	C 	0.39524	0.06677	0.30997	-0.078
Mof_C 	C 	0.37987	0.04084	0.32489	0.359
Mof_N 	N 	0.39405	0.14066	0.22978	-0.081
Mof_N 	N 	0.37496	0.1452	0.20727	-0.137
Mof_O 	O 	0.39198	0.53108	0.84865	-0.4
Mof_O 	O 	0.35653	0.53101	0.8131	-0.396
Mof_C 	C 	0.38364	0.57836	0.78377	-0.004
Mof_H 	H 	0.3673	0.5692	0.7747	0.071
Mof_C 	C 	0.39524	0.56677	0.80997	-0.077
Mof_C 	C 	0.37987	0.54084	0.82489	0.359
Mof_N 	N 	0.39405	0.64066	0.72978	-0.081
Mof_N 	N 	0.37496	0.6452	0.70727	-0.137
Mof_O 	O 	0.10802	0.96892	0.84865	-0.398
Mof_O 	O 	0.14347	0.96899	0.8131	-0.394
Mof_C 	C 	0.11636	0.92164	0.78377	-0.004
Mof_H 	H 	0.1327	0.9308	0.7747	0.071
Mof_C 	C 	0.10476	0.93323	0.80997	-0.077
Mof_C 	C 	0.12013	0.95916	0.82489	0.358
Mof_N 	N 	0.10595	0.85934	0.72978	-0.081
Mof_N 	N 	0.12504	0.8548	0.70727	-0.137
Mof_O 	O 	0.10802	0.46892	0.34865	-0.4
Mof_O 	O 	0.14347	0.46899	0.3131	-0.396
Mof_C 	C 	0.11636	0.42164	0.28377	-0.004
Mof_H 	H 	0.1327	0.4308	0.2747	0.071
Mof_C 	C 	0.10476	0.43323	0.30997	-0.078
Mof_C 	C 	0.12013	0.45916	0.32489	0.359
Mof_N 	N 	0.10595	0.35934	0.22978	-0.081
Mof_N 	N 	0.12504	0.3548	0.20727	-0.137
Mof_O 	O 	0.60802	0.96892	0.34865	-0.398
Mof_O 	O 	0.64347	0.96899	0.3131	-0.394
Mof_C 	C 	0.61636	0.92164	0.28377	-0.004
Mof_H 	H 	0.6327	0.9308	0.2747	0.072
Mof_C 	C 	0.60476	0.93323	0.30997	-0.077
Mof_C 	C 	0.62013	0.95916	0.32489	0.358
Mof_N 	N 	0.60595	0.85934	0.22978	-0.081
Mof_N 	N 	0.62504	0.8548	0.20727	-0.137
Mof_O 	O 	0.60802	0.46892	0.84865	-0.4
Mof_O 	O 	0.64347	0.46899	0.8131	-0.396
Mof_C 	C 	0.61636	0.42164	0.78377	-0.004
Mof_H 	H 	0.6327	0.4308	0.7747	0.071
Mof_C 	C 	0.60476	0.43323	0.80997	-0.078
Mof_C 	C 	0.62013	0.45916	0.82489	0.359
Mof_N 	N 	0.60595	0.35934	0.72978	-0.081
Mof_N 	N 	0.62504	0.3548	0.70727	-0.137
Mof_O 	O 	0.89198	0.96892	0.15135	-0.397
Mof_O 	O 	0.85653	0.96899	0.1869	-0.394
Mof_C 	C 	0.88364	0.92164	0.21623	-0.004
Mof_H 	H 	0.8673	0.9308	0.2253	0.072
Mof_C 	C 	0.89524	0.93323	0.19003	-0.076
Mof_C 	C 	0.87987	0.95916	0.17511	0.358
Mof_N 	N 	0.89405	0.85934	0.27022	-0.08
Mof_N 	N 	0.87496	0.8548	0.29273	-0.137
Mof_O 	O 	0.89198	0.46892	0.65135	-0.399
Mof_O 	O 	0.85653	0.46899	0.6869	-0.396
Mof_C 	C 	0.88364	0.42164	0.71623	-0.004
Mof_H 	H 	0.8673	0.4308	0.7253	0.071
Mof_C 	C 	0.89524	0.43323	0.69003	-0.077
Mof_C 	C 	0.87987	0.45916	0.67511	0.359
Mof_N 	N 	0.89405	0.35934	0.77022	-0.08
Mof_N 	N 	0.87496	0.3548	0.79273	-0.137
Mof_O 	O 	0.39198	0.96892	0.65135	-0.398
Mof_O 	O 	0.35653	0.96899	0.6869	-0.394
Mof_C 	C 	0.38364	0.92164	0.71623	-0.004
Mof_H 	H 	0.3673	0.9308	0.7253	0.072
Mof_C 	C 	0.39524	0.93323	0.69003	-0.077
Mof_C 	C 	0.37987	0.95916	0.67511	0.358
Mof_N 	N 	0.39405	0.85934	0.77022	-0.081
Mof_N 	N 	0.37496	0.8548	0.79273	-0.137
Mof_O 	O 	0.39198	0.46892	0.15135	-0.4
Mof_O 	O 	0.35653	0.46899	0.1869	-0.396
Mof_C 	C 	0.38364	0.42164	0.21623	-0.004
Mof_H 	H 	0.3673	0.4308	0.2253	0.071
Mof_C 	C 	0.39524	0.43323	0.19003	-0.078
Mof_C 	C 	0.37987	0.45916	0.17511	0.359
Mof_N 	N 	0.39405	0.35934	0.27022	-0.081
Mof_N 	N 	0.37496	0.3548	0.29273	-0.137
Mof_O 	O 	0.10802	0.15135	0.96892	-0.398
Mof_O 	O 	0.14347	0.1869	0.96899	-0.394
Mof_C 	C 	0.11636	0.21623	0.92164	-0.004
Mof_H 	H 	0.1327	0.2253	0.9308	0.071
Mof_C 	C 	0.10476	0.19003	0.93323	-0.077
Mof_C 	C 	0.12013	0.17511	0.95916	0.358
Mof_N 	N 	0.10595	0.27022	0.85934	-0.081
Mof_N 	N 	0.12504	0.29273	0.8548	-0.137
Mof_O 	O 	0.10802	0.65135	0.46892	-0.4
Mof_O 	O 	0.14347	0.6869	0.46899	-0.396
Mof_C 	C 	0.11636	0.71623	0.42164	-0.004
Mof_H 	H 	0.1327	0.7253	0.4308	0.071
Mof_C 	C 	0.10476	0.69003	0.43323	-0.078
Mof_C 	C 	0.12013	0.67511	0.45916	0.359
Mof_N 	N 	0.10595	0.77022	0.35934	-0.081
Mof_N 	N 	0.12504	0.79273	0.3548	-0.137
Mof_O 	O 	0.60802	0.15135	0.46892	-0.4
Mof_O 	O 	0.64347	0.1869	0.46899	-0.396
Mof_C 	C 	0.61636	0.21623	0.42164	-0.004
Mof_H 	H 	0.6327	0.2253	0.4308	0.071
Mof_C 	C 	0.60476	0.19003	0.43323	-0.078
Mof_C 	C 	0.62013	0.17511	0.45916	0.359
Mof_N 	N 	0.60595	0.27022	0.35934	-0.081
Mof_N 	N 	0.62504	0.29273	0.3548	-0.137
Mof_O 	O 	0.60802	0.65135	0.96892	-0.398
Mof_O 	O 	0.64347	0.6869	0.96899	-0.394
Mof_C 	C 	0.61636	0.71623	0.92164	-0.004
Mof_H 	H 	0.6327	0.7253	0.9308	0.072
Mof_C 	C 	0.60476	0.69003	0.93323	-0.077
Mof_C 	C 	0.62013	0.67511	0.95916	0.358
Mof_N 	N 	0.60595	0.77022	0.85934	-0.081
Mof_N 	N 	0.62504	0.79273	0.8548	-0.137
Mof_O 	O 	0.89198	0.84865	0.96892	-0.397
Mof_O 	O 	0.85653	0.8131	0.96899	-0.394
Mof_C 	C 	0.88364	0.78377	0.92164	-0.005
Mof_H 	H 	0.8673	0.7747	0.9308	0.072
Mof_C 	C 	0.89524	0.80997	0.93323	-0.076
Mof_C 	C 	0.87987	0.82489	0.95916	0.358
Mof_N 	N 	0.89405	0.72978	0.85934	-0.08
Mof_N 	N 	0.87496	0.70727	0.8548	-0.137
Mof_O 	O 	0.89198	0.34865	0.46892	-0.399
Mof_O 	O 	0.85653	0.3131	0.46899	-0.396
Mof_C 	C 	0.88364	0.28377	0.42164	-0.004
Mof_H 	H 	0.8673	0.2747	0.4308	0.071
Mof_C 	C 	0.89524	0.30997	0.43323	-0.077
Mof_C 	C 	0.87987	0.32489	0.45916	0.359
Mof_N 	N 	0.89405	0.22978	0.35934	-0.08
Mof_N 	N 	0.87496	0.20727	0.3548	-0.137
Mof_O 	O 	0.39198	0.84865	0.46892	-0.4
Mof_O 	O 	0.35653	0.8131	0.46899	-0.396
Mof_C 	C 	0.38364	0.78377	0.42164	-0.004
Mof_H 	H 	0.3673	0.7747	0.4308	0.071
Mof_C 	C 	0.39524	0.80997	0.43323	-0.077
Mof_C 	C 	0.37987	0.82489	0.45916	0.359
Mof_N 	N 	0.39405	0.72978	0.35934	-0.081
Mof_N 	N 	0.37496	0.70727	0.3548	-0.137
Mof_O 	O 	0.39198	0.34865	0.96892	-0.398
Mof_O 	O 	0.35653	0.3131	0.96899	-0.394
Mof_C 	C 	0.38364	0.28377	0.92164	-0.004
Mof_H 	H 	0.3673	0.2747	0.9308	0.072
Mof_C 	C 	0.39524	0.30997	0.93323	-0.077
Mof_C 	C 	0.37987	0.32489	0.95916	0.358
Mof_N 	N 	0.39405	0.22978	0.85934	-0.081
Mof_N 	N 	0.37496	0.20727	0.8548	-0.137
Mof_O 	O 	0.10802	0.84865	0.03108	-0.401
Mof_O 	O 	0.14347	0.8131	0.03101	-0.397
Mof_C 	C 	0.11636	0.78377	0.07836	-0.003
Mof_H 	H 	0.1327	0.7747	0.0692	0.07
Mof_C 	C 	0.10476	0.80997	0.06677	-0.079
Mof_C 	C 	0.12013	0.82489	0.04084	0.359
Mof_N 	N 	0.10595	0.72978	0.14066	-0.081
Mof_N 	N 	0.12504	0.70727	0.1452	-0.137
Mof_O 	O 	0.10802	0.34865	0.53108	-0.4
Mof_O 	O 	0.14347	0.3131	0.53101	-0.396
Mof_C 	C 	0.11636	0.28377	0.57836	-0.004
Mof_H 	H 	0.1327	0.2747	0.5692	0.071
Mof_C 	C 	0.10476	0.30997	0.56677	-0.078
Mof_C 	C 	0.12013	0.32489	0.54084	0.359
Mof_N 	N 	0.10595	0.22978	0.64066	-0.081
Mof_N 	N 	0.12504	0.20727	0.6452	-0.137
Mof_O 	O 	0.60802	0.84865	0.53108	-0.4
Mof_O 	O 	0.64347	0.8131	0.53101	-0.396
Mof_C 	C 	0.61636	0.78377	0.57836	-0.004
Mof_H 	H 	0.6327	0.7747	0.5692	0.071
Mof_C 	C 	0.60476	0.80997	0.56677	-0.078
Mof_C 	C 	0.62013	0.82489	0.54084	0.359
Mof_N 	N 	0.60595	0.72978	0.64066	-0.081
Mof_N 	N 	0.62504	0.70727	0.6452	-0.137
Mof_O 	O 	0.60802	0.34865	0.03108	-0.401
Mof_O 	O 	0.64347	0.3131	0.03101	-0.397
Mof_C 	C 	0.61636	0.28377	0.07836	-0.004
Mof_H 	H 	0.6327	0.2747	0.0692	0.071
Mof_C 	C 	0.60476	0.30997	0.06677	-0.078
Mof_C 	C 	0.62013	0.32489	0.04084	0.359
Mof_N 	N 	0.60595	0.22978	0.14066	-0.081
Mof_N 	N 	0.62504	0.20727	0.1452	-0.137
Mof_O 	O 	0.89198	0.15135	0.03108	-0.401
Mof_O 	O 	0.85653	0.1869	0.03101	-0.397
Mof_C 	C 	0.88364	0.21623	0.07836	-0.004
Mof_H 	H 	0.8673	0.2253	0.0692	0.071
Mof_C 	C 	0.89524	0.19003	0.06677	-0.078
Mof_C 	C 	0.87987	0.17511	0.04084	0.359
Mof_N 	N 	0.89405	0.27022	0.14066	-0.08
Mof_N 	N 	0.87496	0.29273	0.1452	-0.137
Mof_O 	O 	0.89198	0.65135	0.53108	-0.399
Mof_O 	O 	0.85653	0.6869	0.53101	-0.396
Mof_C 	C 	0.88364	0.71623	0.57836	-0.004
Mof_H 	H 	0.8673	0.7253	0.5692	0.071
Mof_C 	C 	0.89524	0.69003	0.56677	-0.077
Mof_C 	C 	0.87987	0.67511	0.54084	0.359
Mof_N 	N 	0.89405	0.77022	0.64066	-0.08
Mof_N 	N 	0.87496	0.79273	0.6452	-0.137
Mof_O 	O 	0.39198	0.15135	0.53108	-0.4
Mof_O 	O 	0.35653	0.1869	0.53101	-0.396
Mof_C 	C 	0.38364	0.21623	0.57836	-0.004
Mof_H 	H 	0.3673	0.2253	0.5692	0.071
Mof_C 	C 	0.39524	0.19003	0.56677	-0.078
Mof_C 	C 	0.37987	0.17511	0.54084	0.359
Mof_N 	N 	0.39405	0.27022	0.64066	-0.081
Mof_N 	N 	0.37496	0.29273	0.6452	-0.137
Mof_O 	O 	0.39198	0.65135	0.03108	-0.401
Mof_O 	O 	0.35653	0.6869	0.03101	-0.397
Mof_C 	C 	0.38364	0.71623	0.07836	-0.004
Mof_H 	H 	0.3673	0.7253	0.0692	0.071
Mof_C 	C 	0.39524	0.69003	0.06677	-0.078
Mof_C 	C 	0.37987	0.67511	0.04084	0.359
Mof_N 	N 	0.39405	0.77022	0.14066	-0.081
Mof_N 	N 	0.37496	0.79273	0.1452	-0.137
Mof_O 	O 	0.15135	0.03108	0.89198	-0.401
Mof_O 	O 	0.1869	0.03101	0.85653	-0.397
Mof_C 	C 	0.21623	0.07836	0.88364	-0.004
Mof_H 	H 	0.2253	0.0692	0.8673	0.071
Mof_C 	C 	0.19003	0.06677	0.89524	-0.078
Mof_C 	C 	0.17511	0.04084	0.87987	0.359
Mof_N 	N 	0.27022	0.14066	0.89405	-0.08
Mof_N 	N 	0.29273	0.1452	0.87496	-0.137
Mof_O 	O 	0.15135	0.53108	0.39198	-0.4
Mof_O 	O 	0.1869	0.53101	0.35653	-0.396
Mof_C 	C 	0.21623	0.57836	0.38364	-0.004
Mof_H 	H 	0.2253	0.5692	0.3673	0.071
Mof_C 	C 	0.19003	0.56677	0.39524	-0.078
Mof_C 	C 	0.17511	0.54084	0.37987	0.359
Mof_N 	N 	0.27022	0.64066	0.39405	-0.081
Mof_N 	N 	0.29273	0.6452	0.37496	-0.137
Mof_O 	O 	0.65135	0.03108	0.39198	-0.401
Mof_O 	O 	0.6869	0.03101	0.35653	-0.397
Mof_C 	C 	0.71623	0.07836	0.38364	-0.004
Mof_H 	H 	0.7253	0.0692	0.3673	0.071
Mof_C 	C 	0.69003	0.06677	0.39524	-0.078
Mof_C 	C 	0.67511	0.04084	0.37987	0.359
Mof_N 	N 	0.77022	0.14066	0.39405	-0.081
Mof_N 	N 	0.79273	0.1452	0.37496	-0.137
Mof_O 	O 	0.65135	0.53108	0.89198	-0.399
Mof_O 	O 	0.6869	0.53101	0.85653	-0.396
Mof_C 	C 	0.71623	0.57836	0.88364	-0.004
Mof_H 	H 	0.7253	0.5692	0.8673	0.071
Mof_C 	C 	0.69003	0.56677	0.89524	-0.077
Mof_C 	C 	0.67511	0.54084	0.87987	0.359
Mof_N 	N 	0.77022	0.64066	0.89405	-0.08
Mof_N 	N 	0.79273	0.6452	0.87496	-0.137
Mof_O 	O 	0.84865	0.03108	0.10802	-0.401
Mof_O 	O 	0.8131	0.03101	0.14347	-0.397
Mof_C 	C 	0.78377	0.07836	0.11636	-0.003
Mof_H 	H 	0.7747	0.0692	0.1327	0.07
Mof_C 	C 	0.80997	0.06677	0.10476	-0.079
Mof_C 	C 	0.82489	0.04084	0.12013	0.359
Mof_N 	N 	0.72978	0.14066	0.10595	-0.081
Mof_N 	N 	0.70727	0.1452	0.12504	-0.137
Mof_O 	O 	0.84865	0.53108	0.60802	-0.4
Mof_O 	O 	0.8131	0.53101	0.64347	-0.396
Mof_C 	C 	0.78377	0.57836	0.61636	-0.004
Mof_H 	H 	0.7747	0.5692	0.6327	0.071
Mof_C 	C 	0.80997	0.56677	0.60476	-0.078
Mof_C 	C 	0.82489	0.54084	0.62013	0.359
Mof_N 	N 	0.72978	0.64066	0.60595	-0.081
Mof_N 	N 	0.70727	0.6452	0.62504	-0.137
Mof_O 	O 	0.34865	0.03108	0.60802	-0.401
Mof_O 	O 	0.3131	0.03101	0.64347	-0.397
Mof_C 	C 	0.28377	0.07836	0.61636	-0.004
Mof_H 	H 	0.2747	0.0692	0.6327	0.071
Mof_C 	C 	0.30997	0.06677	0.60476	-0.078
Mof_C 	C 	0.32489	0.04084	0.62013	0.359
Mof_N 	N 	0.22978	0.14066	0.60595	-0.081
Mof_N 	N 	0.20727	0.1452	0.62504	-0.137
Mof_O 	O 	0.34865	0.53108	0.10802	-0.4
Mof_O 	O 	0.3131	0.53101	0.14347	-0.396
Mof_C 	C 	0.28377	0.57836	0.11636	-0.004
Mof_H 	H 	0.2747	0.5692	0.1327	0.071
Mof_C 	C 	0.30997	0.56677	0.10476	-0.078
Mof_C 	C 	0.32489	0.54084	0.12013	0.359
Mof_N 	N 	0.22978	0.64066	0.10595	-0.081
Mof_N 	N 	0.20727	0.6452	0.12504	-0.137
Mof_O 	O 	0.84865	0.96892	0.89198	-0.397
Mof_O 	O 	0.8131	0.96899	0.85653	-0.394
Mof_C 	C 	0.78377	0.92164	0.88364	-0.005
Mof_H 	H 	0.7747	0.9308	0.8673	0.072
Mof_C 	C 	0.80997	0.93323	0.89524	-0.076
Mof_C 	C 	0.82489	0.95916	0.87987	0.358
Mof_N 	N 	0.72978	0.85934	0.89405	-0.08
Mof_N 	N 	0.70727	0.8548	0.87496	-0.137
Mof_O 	O 	0.84865	0.46892	0.39198	-0.4
Mof_O 	O 	0.8131	0.46899	0.35653	-0.396
Mof_C 	C 	0.78377	0.42164	0.38364	-0.004
Mof_H 	H 	0.7747	0.4308	0.3673	0.071
Mof_C 	C 	0.80997	0.43323	0.39524	-0.077
Mof_C 	C 	0.82489	0.45916	0.37987	0.359
Mof_N 	N 	0.72978	0.35934	0.39405	-0.081
Mof_N 	N 	0.70727	0.3548	0.37496	-0.137
Mof_O 	O 	0.34865	0.96892	0.39198	-0.398
Mof_O 	O 	0.3131	0.96899	0.35653	-0.394
Mof_C 	C 	0.28377	0.92164	0.38364	-0.004
Mof_H 	H 	0.2747	0.9308	0.3673	0.072
Mof_C 	C 	0.30997	0.93323	0.39524	-0.077
Mof_C 	C 	0.32489	0.95916	0.37987	0.358
Mof_N 	N 	0.22978	0.85934	0.39405	-0.081
Mof_N 	N 	0.20727	0.8548	0.37496	-0.137
Mof_O 	O 	0.34865	0.46892	0.89198	-0.399
Mof_O 	O 	0.3131	0.46899	0.85653	-0.396
Mof_C 	C 	0.28377	0.42164	0.88364	-0.004
Mof_H 	H 	0.2747	0.4308	0.8673	0.071
Mof_C 	C 	0.30997	0.43323	0.89524	-0.077
Mof_C 	C 	0.32489	0.45916	0.87987	0.359
Mof_N 	N 	0.22978	0.35934	0.89405	-0.08
Mof_N 	N 	0.20727	0.3548	0.87496	-0.137
Mof_O 	O 	0.15135	0.96892	0.10802	-0.398
Mof_O 	O 	0.1869	0.96899	0.14347	-0.394
Mof_C 	C 	0.21623	0.92164	0.11636	-0.004
Mof_H 	H 	0.2253	0.9308	0.1327	0.071
Mof_C 	C 	0.19003	0.93323	0.10476	-0.077
Mof_C 	C 	0.17511	0.95916	0.12013	0.358
Mof_N 	N 	0.27022	0.85934	0.10595	-0.081
Mof_N 	N 	0.29273	0.8548	0.12504	-0.137
Mof_O 	O 	0.15135	0.46892	0.60802	-0.4
Mof_O 	O 	0.1869	0.46899	0.64347	-0.396
Mof_C 	C 	0.21623	0.42164	0.61636	-0.004
Mof_H 	H 	0.2253	0.4308	0.6327	0.071
Mof_C 	C 	0.19003	0.43323	0.60476	-0.078
Mof_C 	C 	0.17511	0.45916	0.62013	0.359
Mof_N 	N 	0.27022	0.35934	0.60595	-0.081
Mof_N 	N 	0.29273	0.3548	0.62504	-0.137
Mof_O 	O 	0.65135	0.96892	0.60802	-0.398
Mof_O 	O 	0.6869	0.96899	0.64347	-0.394
Mof_C 	C 	0.71623	0.92164	0.61636	-0.004
Mof_H 	H 	0.7253	0.9308	0.6327	0.072
Mof_C 	C 	0.69003	0.93323	0.60476	-0.077
Mof_C 	C 	0.67511	0.95916	0.62013	0.358
Mof_N 	N 	0.77022	0.85934	0.60595	-0.081
Mof_N 	N 	0.79273	0.8548	0.62504	-0.137
Mof_O 	O 	0.65135	0.46892	0.10802	-0.4
Mof_O 	O 	0.6869	0.46899	0.14347	-0.396
Mof_C 	C 	0.71623	0.42164	0.11636	-0.004
Mof_H 	H 	0.7253	0.4308	0.1327	0.071
Mof_C 	C 	0.69003	0.43323	0.10476	-0.078
Mof_C 	C 	0.67511	0.45916	0.12013	0.359
Mof_N 	N 	0.77022	0.35934	0.10595	-0.081
Mof_N 	N 	0.79273	0.3548	0.12504	-0.137
Mof_O 	O 	0.03108	0.10802	0.84865	-0.401
Mof_O 	O 	0.03101	0.14347	0.8131	-0.397
Mof_C 	C 	0.07836	0.11636	0.78377	-0.003
Mof_H 	H 	0.0692	0.1327	0.7747	0.07
Mof_C 	C 	0.06677	0.10476	0.80997	-0.079
Mof_C 	C 	0.04084	0.12013	0.82489	0.359
Mof_N 	N 	0.14066	0.10595	0.72978	-0.081
Mof_N 	N 	0.1452	0.12504	0.70727	-0.137
Mof_O 	O 	0.03108	0.60802	0.34865	-0.401
Mof_O 	O 	0.03101	0.64347	0.3131	-0.397
Mof_C 	C 	0.07836	0.61636	0.28377	-0.004
Mof_H 	H 	0.0692	0.6327	0.2747	0.071
Mof_C 	C 	0.06677	0.60476	0.30997	-0.078
Mof_C 	C 	0.04084	0.62013	0.32489	0.359
Mof_N 	N 	0.14066	0.60595	0.22978	-0.081
Mof_N 	N 	0.1452	0.62504	0.20727	-0.137
Mof_O 	O 	0.53108	0.10802	0.34865	-0.4
Mof_O 	O 	0.53101	0.14347	0.3131	-0.396
Mof_C 	C 	0.57836	0.11636	0.28377	-0.004
Mof_H 	H 	0.5692	0.1327	0.2747	0.071
Mof_C 	C 	0.56677	0.10476	0.30997	-0.078
Mof_C 	C 	0.54084	0.12013	0.32489	0.359
Mof_N 	N 	0.64066	0.10595	0.22978	-0.081
Mof_N 	N 	0.6452	0.12504	0.20727	-0.137
Mof_O 	O 	0.53108	0.60802	0.84865	-0.4
Mof_O 	O 	0.53101	0.64347	0.8131	-0.396
Mof_C 	C 	0.57836	0.61636	0.78377	-0.004
Mof_H 	H 	0.5692	0.6327	0.7747	0.071
Mof_C 	C 	0.56677	0.60476	0.80997	-0.078
Mof_C 	C 	0.54084	0.62013	0.82489	0.359
Mof_N 	N 	0.64066	0.60595	0.72978	-0.081
Mof_N 	N 	0.6452	0.62504	0.70727	-0.137
Mof_O 	O 	0.03108	0.89198	0.15135	-0.401
Mof_O 	O 	0.03101	0.85653	0.1869	-0.397
Mof_C 	C 	0.07836	0.88364	0.21623	-0.004
Mof_H 	H 	0.0692	0.8673	0.2253	0.071
Mof_C 	C 	0.06677	0.89524	0.19003	-0.078
Mof_C 	C 	0.04084	0.87987	0.17511	0.359
Mof_N 	N 	0.14066	0.89405	0.27022	-0.08
Mof_N 	N 	0.1452	0.87496	0.29273	-0.137
Mof_O 	O 	0.03108	0.39198	0.65135	-0.401
Mof_O 	O 	0.03101	0.35653	0.6869	-0.397
Mof_C 	C 	0.07836	0.38364	0.71623	-0.004
Mof_H 	H 	0.0692	0.3673	0.7253	0.071
Mof_C 	C 	0.06677	0.39524	0.69003	-0.078
Mof_C 	C 	0.04084	0.37987	0.67511	0.359
Mof_N 	N 	0.14066	0.39405	0.77022	-0.081
Mof_N 	N 	0.1452	0.37496	0.79273	-0.137
Mof_O 	O 	0.53108	0.89198	0.65135	-0.399
Mof_O 	O 	0.53101	0.85653	0.6869	-0.396
Mof_C 	C 	0.57836	0.88364	0.71623	-0.004
Mof_H 	H 	0.5692	0.8673	0.7253	0.071
Mof_C 	C 	0.56677	0.89524	0.69003	-0.077
Mof_C 	C 	0.54084	0.87987	0.67511	0.359
Mof_N 	N 	0.64066	0.89405	0.77022	-0.08
Mof_N 	N 	0.6452	0.87496	0.79273	-0.137
Mof_O 	O 	0.53108	0.39198	0.15135	-0.4
Mof_O 	O 	0.53101	0.35653	0.1869	-0.396
Mof_C 	C 	0.57836	0.38364	0.21623	-0.004
Mof_H 	H 	0.5692	0.3673	0.2253	0.071
Mof_C 	C 	0.56677	0.39524	0.19003	-0.078
Mof_C 	C 	0.54084	0.37987	0.17511	0.359
Mof_N 	N 	0.64066	0.39405	0.27022	-0.081
Mof_N 	N 	0.6452	0.37496	0.29273	-0.137
Mof_O 	O 	0.96892	0.10802	0.15135	-0.398
Mof_O 	O 	0.96899	0.14347	0.1869	-0.394
Mof_C 	C 	0.92164	0.11636	0.21623	-0.004
Mof_H 	H 	0.9308	0.1327	0.2253	0.071
Mof_C 	C 	0.93323	0.10476	0.19003	-0.077
Mof_C 	C 	0.95916	0.12013	0.17511	0.358
Mof_N 	N 	0.85934	0.10595	0.27022	-0.081
Mof_N 	N 	0.8548	0.12504	0.29273	-0.137
Mof_O 	O 	0.96892	0.60802	0.65135	-0.398
Mof_O 	O 	0.96899	0.64347	0.6869	-0.394
Mof_C 	C 	0.92164	0.61636	0.71623	-0.004
Mof_H 	H 	0.9308	0.6327	0.7253	0.072
Mof_C 	C 	0.93323	0.60476	0.69003	-0.077
Mof_C 	C 	0.95916	0.62013	0.67511	0.358
Mof_N 	N 	0.85934	0.60595	0.77022	-0.081
Mof_N 	N 	0.8548	0.62504	0.79273	-0.137
Mof_O 	O 	0.46892	0.10802	0.65135	-0.4
Mof_O 	O 	0.46899	0.14347	0.6869	-0.396
Mof_C 	C 	0.42164	0.11636	0.71623	-0.004
Mof_H 	H 	0.4308	0.1327	0.7253	0.071
Mof_C 	C 	0.43323	0.10476	0.69003	-0.078
Mof_C 	C 	0.45916	0.12013	0.67511	0.359
Mof_N 	N 	0.35934	0.10595	0.77022	-0.081
Mof_N 	N 	0.3548	0.12504	0.79273	-0.137
Mof_O 	O 	0.46892	0.60802	0.15135	-0.4
Mof_O 	O 	0.46899	0.64347	0.1869	-0.396
Mof_C 	C 	0.42164	0.61636	0.21623	-0.004
Mof_H 	H 	0.4308	0.6327	0.2253	0.071
Mof_C 	C 	0.43323	0.60476	0.19003	-0.078
Mof_C 	C 	0.45916	0.62013	0.17511	0.359
Mof_N 	N 	0.35934	0.60595	0.27022	-0.081
Mof_N 	N 	0.3548	0.62504	0.29273	-0.137
Mof_O 	O 	0.96892	0.89198	0.84865	-0.397
Mof_O 	O 	0.96899	0.85653	0.8131	-0.394
Mof_C 	C 	0.92164	0.88364	0.78377	-0.005
Mof_H 	H 	0.9308	0.8673	0.7747	0.072
Mof_C 	C 	0.93323	0.89524	0.80997	-0.076
Mof_C 	C 	0.95916	0.87987	0.82489	0.358
Mof_N 	N 	0.85934	0.89405	0.72978	-0.08
Mof_N 	N 	0.8548	0.87496	0.70727	-0.137
Mof_O 	O 	0.96892	0.39198	0.34865	-0.398
Mof_O 	O 	0.96899	0.35653	0.3131	-0.394
Mof_C 	C 	0.92164	0.38364	0.28377	-0.004
Mof_H 	H 	0.9308	0.3673	0.2747	0.072
Mof_C 	C 	0.93323	0.39524	0.30997	-0.077
Mof_C 	C 	0.95916	0.37987	0.32489	0.358
Mof_N 	N 	0.85934	0.39405	0.22978	-0.081
Mof_N 	N 	0.8548	0.37496	0.20727	-0.137
Mof_O 	O 	0.46892	0.89198	0.34865	-0.399
Mof_O 	O 	0.46899	0.85653	0.3131	-0.396
Mof_C 	C 	0.42164	0.88364	0.28377	-0.004
Mof_H 	H 	0.4308	0.8673	0.2747	0.071
Mof_C 	C 	0.43323	0.89524	0.30997	-0.077
Mof_C 	C 	0.45916	0.87987	0.32489	0.359
Mof_N 	N 	0.35934	0.89405	0.22978	-0.08
Mof_N 	N 	0.3548	0.87496	0.20727	-0.137
Mof_O 	O 	0.46892	0.39198	0.84865	-0.4
Mof_O 	O 	0.46899	0.35653	0.8131	-0.396
Mof_C 	C 	0.42164	0.38364	0.78377	-0.004
Mof_H 	H 	0.4308	0.3673	0.7747	0.071
Mof_C 	C 	0.43323	0.39524	0.80997	-0.077
Mof_C 	C 	0.45916	0.37987	0.82489	0.359
Mof_N 	N 	0.35934	0.39405	0.72978	-0.081
Mof_N 	N 	0.3548	0.37496	0.70727	-0.137
Mof_O 	O 	0.84865	0.89198	0.96892	-0.397
Mof_O 	O 	0.8131	0.85653	0.96899	-0.394
Mof_C 	C 	0.78377	0.88364	0.92164	-0.005
Mof_H 	H 	0.7747	0.8673	0.9308	0.072
Mof_C 	C 	0.80997	0.89524	0.93323	-0.076
Mof_C 	C 	0.82489	0.87987	0.95916	0.358
Mof_N 	N 	0.72978	0.89405	0.85934	-0.08
Mof_N 	N 	0.70727	0.87496	0.8548	-0.137
Mof_O 	O 	0.84865	0.39198	0.46892	-0.4
Mof_O 	O 	0.8131	0.35653	0.46899	-0.396
Mof_C 	C 	0.78377	0.38364	0.42164	-0.004
Mof_H 	H 	0.7747	0.3673	0.4308	0.071
Mof_C 	C 	0.80997	0.39524	0.43323	-0.077
Mof_C 	C 	0.82489	0.37987	0.45916	0.359
Mof_N 	N 	0.72978	0.39405	0.35934	-0.081
Mof_N 	N 	0.70727	0.37496	0.3548	-0.137
Mof_O 	O 	0.34865	0.89198	0.46892	-0.399
Mof_O 	O 	0.3131	0.85653	0.46899	-0.396
Mof_C 	C 	0.28377	0.88364	0.42164	-0.004
Mof_H 	H 	0.2747	0.8673	0.4308	0.071
Mof_C 	C 	0.30997	0.89524	0.43323	-0.077
Mof_C 	C 	0.32489	0.87987	0.45916	0.359
Mof_N 	N 	0.22978	0.89405	0.35934	-0.08
Mof_N 	N 	0.20727	0.87496	0.3548	-0.137
Mof_O 	O 	0.34865	0.39198	0.96892	-0.398
Mof_O 	O 	0.3131	0.35653	0.96899	-0.394
Mof_C 	C 	0.28377	0.38364	0.92164	-0.004
Mof_H 	H 	0.2747	0.3673	0.9308	0.072
Mof_C 	C 	0.30997	0.39524	0.93323	-0.077
Mof_C 	C 	0.32489	0.37987	0.95916	0.358
Mof_N 	N 	0.22978	0.39405	0.85934	-0.081
Mof_N 	N 	0.20727	0.37496	0.8548	-0.137
Mof_O 	O 	0.15135	0.10802	0.96892	-0.398
Mof_O 	O 	0.1869	0.14347	0.96899	-0.394
Mof_C 	C 	0.21623	0.11636	0.92164	-0.004
Mof_H 	H 	0.2253	0.1327	0.9308	0.071
Mof_C 	C 	0.19003	0.10476	0.93323	-0.077
Mof_C 	C 	0.17511	0.12013	0.95916	0.358
Mof_N 	N 	0.27022	0.10595	0.85934	-0.081
Mof_N 	N 	0.29273	0.12504	0.8548	-0.137
Mof_O 	O 	0.15135	0.60802	0.46892	-0.4
Mof_O 	O 	0.1869	0.64347	0.46899	-0.396
Mof_C 	C 	0.21623	0.61636	0.42164	-0.004
Mof_H 	H 	0.2253	0.6327	0.4308	0.071
Mof_C 	C 	0.19003	0.60476	0.43323	-0.078
Mof_C 	C 	0.17511	0.62013	0.45916	0.359
Mof_N 	N 	0.27022	0.60595	0.35934	-0.081
Mof_N 	N 	0.29273	0.62504	0.3548	-0.137
Mof_O 	O 	0.65135	0.10802	0.46892	-0.4
Mof_O 	O 	0.6869	0.14347	0.46899	-0.396
Mof_C 	C 	0.71623	0.11636	0.42164	-0.004
Mof_H 	H 	0.7253	0.1327	0.4308	0.071
Mof_C 	C 	0.69003	0.10476	0.43323	-0.078
Mof_C 	C 	0.67511	0.12013	0.45916	0.359
Mof_N 	N 	0.77022	0.10595	0.35934	-0.081
Mof_N 	N 	0.79273	0.12504	0.3548	-0.137
Mof_O 	O 	0.65135	0.60802	0.96892	-0.398
Mof_O 	O 	0.6869	0.64347	0.96899	-0.394
Mof_C 	C 	0.71623	0.61636	0.92164	-0.004
Mof_H 	H 	0.7253	0.6327	0.9308	0.072
Mof_C 	C 	0.69003	0.60476	0.93323	-0.077
Mof_C 	C 	0.67511	0.62013	0.95916	0.358
Mof_N 	N 	0.77022	0.60595	0.85934	-0.081
Mof_N 	N 	0.79273	0.62504	0.8548	-0.137
Mof_O 	O 	0.15135	0.89198	0.03108	-0.401
Mof_O 	O 	0.1869	0.85653	0.03101	-0.397
Mof_C 	C 	0.21623	0.88364	0.07836	-0.004
Mof_H 	H 	0.2253	0.8673	0.0692	0.071
Mof_C 	C 	0.19003	0.89524	0.06677	-0.078
Mof_C 	C 	0.17511	0.87987	0.04084	0.359
Mof_N 	N 	0.27022	0.89405	0.14066	-0.08
Mof_N 	N 	0.29273	0.87496	0.1452	-0.137
Mof_O 	O 	0.15135	0.39198	0.53108	-0.4
Mof_O 	O 	0.1869	0.35653	0.53101	-0.396
Mof_C 	C 	0.21623	0.38364	0.57836	-0.004
Mof_H 	H 	0.2253	0.3673	0.5692	0.071
Mof_C 	C 	0.19003	0.39524	0.56677	-0.078
Mof_C 	C 	0.17511	0.37987	0.54084	0.359
Mof_N 	N 	0.27022	0.39405	0.64066	-0.081
Mof_N 	N 	0.29273	0.37496	0.6452	-0.137
Mof_O 	O 	0.65135	0.89198	0.53108	-0.399
Mof_O 	O 	0.6869	0.85653	0.53101	-0.396
Mof_C 	C 	0.71623	0.88364	0.57836	-0.004
Mof_H 	H 	0.7253	0.8673	0.5692	0.071
Mof_C 	C 	0.69003	0.89524	0.56677	-0.077
Mof_C 	C 	0.67511	0.87987	0.54084	0.359
Mof_N 	N 	0.77022	0.89405	0.64066	-0.08
Mof_N 	N 	0.79273	0.87496	0.6452	-0.137
Mof_O 	O 	0.65135	0.39198	0.03108	-0.401
Mof_O 	O 	0.6869	0.35653	0.03101	-0.397
Mof_C 	C 	0.71623	0.38364	0.07836	-0.004
Mof_H 	H 	0.7253	0.3673	0.0692	0.071
Mof_C 	C 	0.69003	0.39524	0.06677	-0.078
Mof_C 	C 	0.67511	0.37987	0.04084	0.359
Mof_N 	N 	0.77022	0.39405	0.14066	-0.081
Mof_N 	N 	0.79273	0.37496	0.1452	-0.137
Mof_O 	O 	0.84865	0.10802	0.03108	-0.401
Mof_O 	O 	0.8131	0.14347	0.03101	-0.397
Mof_C 	C 	0.78377	0.11636	0.07836	-0.003
Mof_H 	H 	0.7747	0.1327	0.0692	0.07
Mof_C 	C 	0.80997	0.10476	0.06677	-0.079
Mof_C 	C 	0.82489	0.12013	0.04084	0.359
Mof_N 	N 	0.72978	0.10595	0.14066	-0.081
Mof_N 	N 	0.70727	0.12504	0.1452	-0.137
Mof_O 	O 	0.84865	0.60802	0.53108	-0.4
Mof_O 	O 	0.8131	0.64347	0.53101	-0.396
Mof_C 	C 	0.78377	0.61636	0.57836	-0.004
Mof_H 	H 	0.7747	0.6327	0.5692	0.071
Mof_C 	C 	0.80997	0.60476	0.56677	-0.078
Mof_C 	C 	0.82489	0.62013	0.54084	0.359
Mof_N 	N 	0.72978	0.60595	0.64066	-0.081
Mof_N 	N 	0.70727	0.62504	0.6452	-0.137
Mof_O 	O 	0.34865	0.10802	0.53108	-0.4
Mof_O 	O 	0.3131	0.14347	0.53101	-0.396
Mof_C 	C 	0.28377	0.11636	0.57836	-0.004
Mof_H 	H 	0.2747	0.1327	0.5692	0.071
Mof_C 	C 	0.30997	0.10476	0.56677	-0.078
Mof_C 	C 	0.32489	0.12013	0.54084	0.359
Mof_N 	N 	0.22978	0.10595	0.64066	-0.081
Mof_N 	N 	0.20727	0.12504	0.6452	-0.137
Mof_O 	O 	0.34865	0.60802	0.03108	-0.401
Mof_O 	O 	0.3131	0.64347	0.03101	-0.397
Mof_C 	C 	0.28377	0.61636	0.07836	-0.004
Mof_H 	H 	0.2747	0.6327	0.0692	0.071
Mof_C 	C 	0.30997	0.60476	0.06677	-0.078
Mof_C 	C 	0.32489	0.62013	0.04084	0.359
Mof_N 	N 	0.22978	0.60595	0.14066	-0.081
Mof_N 	N 	0.20727	0.62504	0.1452	-0.137
Mof_O 	O 	0.96892	0.84865	0.89198	-0.397
Mof_O 	O 	0.96899	0.8131	0.85653	-0.394
Mof_C 	C 	0.92164	0.78377	0.88364	-0.005
Mof_H 	H 	0.9308	0.7747	0.8673	0.072
Mof_C 	C 	0.93323	0.80997	0.89524	-0.076
Mof_C 	C 	0.95916	0.82489	0.87987	0.358
Mof_N 	N 	0.85934	0.72978	0.89405	-0.08
Mof_N 	N 	0.8548	0.70727	0.87496	-0.137
Mof_O 	O 	0.96892	0.34865	0.39198	-0.398
Mof_O 	O 	0.96899	0.3131	0.35653	-0.394
Mof_C 	C 	0.92164	0.28377	0.38364	-0.004
Mof_H 	H 	0.9308	0.2747	0.3673	0.072
Mof_C 	C 	0.93323	0.30997	0.39524	-0.077
Mof_C 	C 	0.95916	0.32489	0.37987	0.358
Mof_N 	N 	0.85934	0.22978	0.39405	-0.081
Mof_N 	N 	0.8548	0.20727	0.37496	-0.137
Mof_O 	O 	0.46892	0.84865	0.39198	-0.4
Mof_O 	O 	0.46899	0.8131	0.35653	-0.396
Mof_C 	C 	0.42164	0.78377	0.38364	-0.004
Mof_H 	H 	0.4308	0.7747	0.3673	0.071
Mof_C 	C 	0.43323	0.80997	0.39524	-0.077
Mof_C 	C 	0.45916	0.82489	0.37987	0.359
Mof_N 	N 	0.35934	0.72978	0.39405	-0.081
Mof_N 	N 	0.3548	0.70727	0.37496	-0.137
Mof_O 	O 	0.46892	0.34865	0.89198	-0.399
Mof_O 	O 	0.46899	0.3131	0.85653	-0.396
Mof_C 	C 	0.42164	0.28377	0.88364	-0.004
Mof_H 	H 	0.4308	0.2747	0.8673	0.071
Mof_C 	C 	0.43323	0.30997	0.89524	-0.077
Mof_C 	C 	0.45916	0.32489	0.87987	0.359
Mof_N 	N 	0.35934	0.22978	0.89405	-0.08
Mof_N 	N 	0.3548	0.20727	0.87496	-0.137
Mof_O 	O 	0.96892	0.15135	0.10802	-0.398
Mof_O 	O 	0.96899	0.1869	0.14347	-0.394
Mof_C 	C 	0.92164	0.21623	0.11636	-0.004
Mof_H 	H 	0.9308	0.2253	0.1327	0.071
Mof_C 	C 	0.93323	0.19003	0.10476	-0.077
Mof_C 	C 	0.95916	0.17511	0.12013	0.358
Mof_N 	N 	0.85934	0.27022	0.10595	-0.081
Mof_N 	N 	0.8548	0.29273	0.12504	-0.137
Mof_O 	O 	0.96892	0.65135	0.60802	-0.398
Mof_O 	O 	0.96899	0.6869	0.64347	-0.394
Mof_C 	C 	0.92164	0.71623	0.61636	-0.004
Mof_H 	H 	0.9308	0.7253	0.6327	0.072
Mof_C 	C 	0.93323	0.69003	0.60476	-0.077
Mof_C 	C 	0.95916	0.67511	0.62013	0.358
Mof_N 	N 	0.85934	0.77022	0.60595	-0.081
Mof_N 	N 	0.8548	0.79273	0.62504	-0.137
Mof_O 	O 	0.46892	0.15135	0.60802	-0.4
Mof_O 	O 	0.46899	0.1869	0.64347	-0.396
Mof_C 	C 	0.42164	0.21623	0.61636	-0.004
Mof_H 	H 	0.4308	0.2253	0.6327	0.071
Mof_C 	C 	0.43323	0.19003	0.60476	-0.078
Mof_C 	C 	0.45916	0.17511	0.62013	0.359
Mof_N 	N 	0.35934	0.27022	0.60595	-0.081
Mof_N 	N 	0.3548	0.29273	0.62504	-0.137
Mof_O 	O 	0.46892	0.65135	0.10802	-0.4
Mof_O 	O 	0.46899	0.6869	0.14347	-0.396
Mof_C 	C 	0.42164	0.71623	0.11636	-0.004
Mof_H 	H 	0.4308	0.7253	0.1327	0.071
Mof_C 	C 	0.43323	0.69003	0.10476	-0.078
Mof_C 	C 	0.45916	0.67511	0.12013	0.359
Mof_N 	N 	0.35934	0.77022	0.10595	-0.081
Mof_N 	N 	0.3548	0.79273	0.12504	-0.137
Mof_O 	O 	0.03108	0.15135	0.89198	-0.401
Mof_O 	O 	0.03101	0.1869	0.85653	-0.397
Mof_C 	C 	0.07836	0.21623	0.88364	-0.004
Mof_H 	H 	0.0692	0.2253	0.8673	0.071
Mof_C 	C 	0.06677	0.19003	0.89524	-0.078
Mof_C 	C 	0.04084	0.17511	0.87987	0.359
Mof_N 	N 	0.14066	0.27022	0.89405	-0.08
Mof_N 	N 	0.1452	0.29273	0.87496	-0.137
Mof_O 	O 	0.03108	0.65135	0.39198	-0.401
Mof_O 	O 	0.03101	0.6869	0.35653	-0.397
Mof_C 	C 	0.07836	0.71623	0.38364	-0.004
Mof_H 	H 	0.0692	0.7253	0.3673	0.071
Mof_C 	C 	0.06677	0.69003	0.39524	-0.078
Mof_C 	C 	0.04084	0.67511	0.37987	0.359
Mof_N 	N 	0.14066	0.77022	0.39405	-0.081
Mof_N 	N 	0.1452	0.79273	0.37496	-0.137
Mof_O 	O 	0.53108	0.15135	0.39198	-0.4
Mof_O 	O 	0.53101	0.1869	0.35653	-0.396
Mof_C 	C 	0.57836	0.21623	0.38364	-0.004
Mof_H 	H 	0.5692	0.2253	0.3673	0.071
Mof_C 	C 	0.56677	0.19003	0.39524	-0.078
Mof_C 	C 	0.54084	0.17511	0.37987	0.359
Mof_N 	N 	0.64066	0.27022	0.39405	-0.081
Mof_N 	N 	0.6452	0.29273	0.37496	-0.137
Mof_O 	O 	0.53108	0.65135	0.89198	-0.399
Mof_O 	O 	0.53101	0.6869	0.85653	-0.396
Mof_C 	C 	0.57836	0.71623	0.88364	-0.004
Mof_H 	H 	0.5692	0.7253	0.8673	0.071
Mof_C 	C 	0.56677	0.69003	0.89524	-0.077
Mof_C 	C 	0.54084	0.67511	0.87987	0.359
Mof_N 	N 	0.64066	0.77022	0.89405	-0.08
Mof_N 	N 	0.6452	0.79273	0.87496	-0.137
Mof_O 	O 	0.03108	0.84865	0.10802	-0.401
Mof_O 	O 	0.03101	0.8131	0.14347	-0.397
Mof_C 	C 	0.07836	0.78377	0.11636	-0.003
Mof_H 	H 	0.0692	0.7747	0.1327	0.07
Mof_C 	C 	0.06677	0.80997	0.10476	-0.079
Mof_C 	C 	0.04084	0.82489	0.12013	0.359
Mof_N 	N 	0.14066	0.72978	0.10595	-0.081
Mof_N 	N 	0.1452	0.70727	0.12504	-0.137
Mof_O 	O 	0.03108	0.34865	0.60802	-0.401
Mof_O 	O 	0.03101	0.3131	0.64347	-0.397
Mof_C 	C 	0.07836	0.28377	0.61636	-0.004
Mof_H 	H 	0.0692	0.2747	0.6327	0.071
Mof_C 	C 	0.06677	0.30997	0.60476	-0.078
Mof_C 	C 	0.04084	0.32489	0.62013	0.359
Mof_N 	N 	0.14066	0.22978	0.60595	-0.081
Mof_N 	N 	0.1452	0.20727	0.62504	-0.137
Mof_O 	O 	0.53108	0.84865	0.60802	-0.4
Mof_O 	O 	0.53101	0.8131	0.64347	-0.396
Mof_C 	C 	0.57836	0.78377	0.61636	-0.004
Mof_H 	H 	0.5692	0.7747	0.6327	0.071
Mof_C 	C 	0.56677	0.80997	0.60476	-0.078
Mof_C 	C 	0.54084	0.82489	0.62013	0.359
Mof_N 	N 	0.64066	0.72978	0.60595	-0.081
Mof_N 	N 	0.6452	0.70727	0.62504	-0.137
Mof_O 	O 	0.53108	0.34865	0.10802	-0.4
Mof_O 	O 	0.53101	0.3131	0.14347	-0.396
Mof_C 	C 	0.57836	0.28377	0.11636	-0.004
Mof_H 	H 	0.5692	0.2747	0.1327	0.071
Mof_C 	C 	0.56677	0.30997	0.10476	-0.078
Mof_C 	C 	0.54084	0.32489	0.12013	0.359
Mof_N 	N 	0.64066	0.22978	0.10595	-0.081
Mof_N 	N 	0.6452	0.20727	0.12504	-0.137
Mof_O 	O 	0.89198	0.96892	0.84865	-0.397
Mof_O 	O 	0.85653	0.96899	0.8131	-0.394
Mof_C 	C 	0.88364	0.92164	0.78377	-0.005
Mof_H 	H 	0.8673	0.9308	0.7747	0.072
Mof_C 	C 	0.89524	0.93323	0.80997	-0.076
Mof_C 	C 	0.87987	0.95916	0.82489	0.358
Mof_N 	N 	0.89405	0.85934	0.72978	-0.08
Mof_N 	N 	0.87496	0.8548	0.70727	-0.137
Mof_O 	O 	0.89198	0.46892	0.34865	-0.399
Mof_O 	O 	0.85653	0.46899	0.3131	-0.396
Mof_C 	C 	0.88364	0.42164	0.28377	-0.004
Mof_H 	H 	0.8673	0.4308	0.2747	0.071
Mof_C 	C 	0.89524	0.43323	0.30997	-0.077
Mof_C 	C 	0.87987	0.45916	0.32489	0.359
Mof_N 	N 	0.89405	0.35934	0.22978	-0.08
Mof_N 	N 	0.87496	0.3548	0.20727	-0.137
Mof_O 	O 	0.39198	0.96892	0.34865	-0.398
Mof_O 	O 	0.35653	0.96899	0.3131	-0.394
Mof_C 	C 	0.38364	0.92164	0.28377	-0.004
Mof_H 	H 	0.3673	0.9308	0.2747	0.072
Mof_C 	C 	0.39524	0.93323	0.30997	-0.077
Mof_C 	C 	0.37987	0.95916	0.32489	0.358
Mof_N 	N 	0.39405	0.85934	0.22978	-0.081
Mof_N 	N 	0.37496	0.8548	0.20727	-0.137
Mof_O 	O 	0.39198	0.46892	0.84865	-0.4
Mof_O 	O 	0.35653	0.46899	0.8131	-0.396
Mof_C 	C 	0.38364	0.42164	0.78377	-0.004
Mof_H 	H 	0.3673	0.4308	0.7747	0.071
Mof_C 	C 	0.39524	0.43323	0.80997	-0.077
Mof_C 	C 	0.37987	0.45916	0.82489	0.359
Mof_N 	N 	0.39405	0.35934	0.72978	-0.081
Mof_N 	N 	0.37496	0.3548	0.70727	-0.137
Mof_O 	O 	0.10802	0.96892	0.15135	-0.398
Mof_O 	O 	0.14347	0.96899	0.1869	-0.394
Mof_C 	C 	0.11636	0.92164	0.21623	-0.004
Mof_H 	H 	0.1327	0.9308	0.2253	0.071
Mof_C 	C 	0.10476	0.93323	0.19003	-0.077
Mof_C 	C 	0.12013	0.95916	0.17511	0.358
Mof_N 	N 	0.10595	0.85934	0.27022	-0.081
Mof_N 	N 	0.12504	0.8548	0.29273	-0.137
Mof_O 	O 	0.10802	0.46892	0.65135	-0.4
Mof_O 	O 	0.14347	0.46899	0.6869	-0.396
Mof_C 	C 	0.11636	0.42164	0.71623	-0.004
Mof_H 	H 	0.1327	0.4308	0.7253	0.071
Mof_C 	C 	0.10476	0.43323	0.69003	-0.078
Mof_C 	C 	0.12013	0.45916	0.67511	0.359
Mof_N 	N 	0.10595	0.35934	0.77022	-0.081
Mof_N 	N 	0.12504	0.3548	0.79273	-0.137
Mof_O 	O 	0.60802	0.96892	0.65135	-0.398
Mof_O 	O 	0.64347	0.96899	0.6869	-0.394
Mof_C 	C 	0.61636	0.92164	0.71623	-0.004
Mof_H 	H 	0.6327	0.9308	0.7253	0.072
Mof_C 	C 	0.60476	0.93323	0.69003	-0.077
Mof_C 	C 	0.62013	0.95916	0.67511	0.358
Mof_N 	N 	0.60595	0.85934	0.77022	-0.081
Mof_N 	N 	0.62504	0.8548	0.79273	-0.137
Mof_O 	O 	0.60802	0.46892	0.15135	-0.4
Mof_O 	O 	0.64347	0.46899	0.1869	-0.396
Mof_C 	C 	0.61636	0.42164	0.21623	-0.004
Mof_H 	H 	0.6327	0.4308	0.2253	0.071
Mof_C 	C 	0.60476	0.43323	0.19003	-0.078
Mof_C 	C 	0.62013	0.45916	0.17511	0.359
Mof_N 	N 	0.60595	0.35934	0.27022	-0.081
Mof_N 	N 	0.62504	0.3548	0.29273	-0.137
Mof_O 	O 	0.89198	0.03108	0.15135	-0.401
Mof_O 	O 	0.85653	0.03101	0.1869	-0.397
Mof_C 	C 	0.88364	0.07836	0.21623	-0.004
Mof_H 	H 	0.8673	0.0692	0.2253	0.071
Mof_C 	C 	0.89524	0.06677	0.19003	-0.078
Mof_C 	C 	0.87987	0.04084	0.17511	0.359
Mof_N 	N 	0.89405	0.14066	0.27022	-0.08
Mof_N 	N 	0.87496	0.1452	0.29273	-0.137
Mof_O 	O 	0.89198	0.53108	0.65135	-0.399
Mof_O 	O 	0.85653	0.53101	0.6869	-0.396
Mof_C 	C 	0.88364	0.57836	0.71623	-0.004
Mof_H 	H 	0.8673	0.5692	0.7253	0.071
Mof_C 	C 	0.89524	0.56677	0.69003	-0.077
Mof_C 	C 	0.87987	0.54084	0.67511	0.359
Mof_N 	N 	0.89405	0.64066	0.77022	-0.08
Mof_N 	N 	0.87496	0.6452	0.79273	-0.137
Mof_O 	O 	0.39198	0.03108	0.65135	-0.401
Mof_O 	O 	0.35653	0.03101	0.6869	-0.397
Mof_C 	C 	0.38364	0.07836	0.71623	-0.004
Mof_H 	H 	0.3673	0.0692	0.7253	0.071
Mof_C 	C 	0.39524	0.06677	0.69003	-0.078
Mof_C 	C 	0.37987	0.04084	0.67511	0.359
Mof_N 	N 	0.39405	0.14066	0.77022	-0.081
Mof_N 	N 	0.37496	0.1452	0.79273	-0.137
Mof_O 	O 	0.39198	0.53108	0.15135	-0.4
Mof_O 	O 	0.35653	0.53101	0.1869	-0.396
Mof_C 	C 	0.38364	0.57836	0.21623	-0.004
Mof_H 	H 	0.3673	0.5692	0.2253	0.071
Mof_C 	C 	0.39524	0.56677	0.19003	-0.078
Mof_C 	C 	0.37987	0.54084	0.17511	0.359
Mof_N 	N 	0.39405	0.64066	0.27022	-0.081
Mof_N 	N 	0.37496	0.6452	0.29273	-0.137
Mof_O 	O 	0.10802	0.03108	0.84865	-0.401
Mof_O 	O 	0.14347	0.03101	0.8131	-0.397
Mof_C 	C 	0.11636	0.07836	0.78377	-0.003
Mof_H 	H 	0.1327	0.0692	0.7747	0.07
Mof_C 	C 	0.10476	0.06677	0.80997	-0.079
Mof_C 	C 	0.12013	0.04084	0.82489	0.359
Mof_N 	N 	0.10595	0.14066	0.72978	-0.081
Mof_N 	N 	0.12504	0.1452	0.70727	-0.137
Mof_O 	O 	0.10802	0.53108	0.34865	-0.4
Mof_O 	O 	0.14347	0.53101	0.3131	-0.396
Mof_C 	C 	0.11636	0.57836	0.28377	-0.004
Mof_H 	H 	0.1327	0.5692	0.2747	0.071
Mof_C 	C 	0.10476	0.56677	0.30997	-0.078
Mof_C 	C 	0.12013	0.54084	0.32489	0.359
Mof_N 	N 	0.10595	0.64066	0.22978	-0.081
Mof_N 	N 	0.12504	0.6452	0.20727	-0.137
Mof_O 	O 	0.60802	0.03108	0.34865	-0.401
Mof_O 	O 	0.64347	0.03101	0.3131	-0.397
Mof_C 	C 	0.61636	0.07836	0.28377	-0.004
Mof_H 	H 	0.6327	0.0692	0.2747	0.071
Mof_C 	C 	0.60476	0.06677	0.30997	-0.078
Mof_C 	C 	0.62013	0.04084	0.32489	0.359
Mof_N 	N 	0.60595	0.14066	0.22978	-0.081
Mof_N 	N 	0.62504	0.1452	0.20727	-0.137
Mof_O 	O 	0.60802	0.53108	0.84865	-0.4
Mof_O 	O 	0.64347	0.53101	0.8131	-0.396
Mof_C 	C 	0.61636	0.57836	0.78377	-0.004
Mof_H 	H 	0.6327	0.5692	0.7747	0.071
Mof_C 	C 	0.60476	0.56677	0.80997	-0.078
Mof_C 	C 	0.62013	0.54084	0.82489	0.359
Mof_N 	N 	0.60595	0.64066	0.72978	-0.081
Mof_N 	N 	0.62504	0.6452	0.70727	-0.137
Mof_O 	O 	0.89198	0.84865	0.03108	-0.4
Mof_O 	O 	0.85653	0.8131	0.03101	-0.397
Mof_C 	C 	0.88364	0.78377	0.07836	-0.004
Mof_H 	H 	0.8673	0.7747	0.0692	0.071
Mof_C 	C 	0.89524	0.80997	0.06677	-0.078
Mof_C 	C 	0.87987	0.82489	0.04084	0.359
Mof_N 	N 	0.89405	0.72978	0.14066	-0.08
Mof_N 	N 	0.87496	0.70727	0.1452	-0.137
Mof_O 	O 	0.89198	0.34865	0.53108	-0.399
Mof_O 	O 	0.85653	0.3131	0.53101	-0.396
Mof_C 	C 	0.88364	0.28377	0.57836	-0.004
Mof_H 	H 	0.8673	0.2747	0.5692	0.071
Mof_C 	C 	0.89524	0.30997	0.56677	-0.077
Mof_C 	C 	0.87987	0.32489	0.54084	0.359
Mof_N 	N 	0.89405	0.22978	0.64066	-0.08
Mof_N 	N 	0.87496	0.20727	0.6452	-0.137
Mof_O 	O 	0.39198	0.84865	0.53108	-0.4
Mof_O 	O 	0.35653	0.8131	0.53101	-0.396
Mof_C 	C 	0.38364	0.78377	0.57836	-0.004
Mof_H 	H 	0.3673	0.7747	0.5692	0.071
Mof_C 	C 	0.39524	0.80997	0.56677	-0.077
Mof_C 	C 	0.37987	0.82489	0.54084	0.359
Mof_N 	N 	0.39405	0.72978	0.64066	-0.081
Mof_N 	N 	0.37496	0.70727	0.6452	-0.137
Mof_O 	O 	0.39198	0.34865	0.03108	-0.401
Mof_O 	O 	0.35653	0.3131	0.03101	-0.397
Mof_C 	C 	0.38364	0.28377	0.07836	-0.004
Mof_H 	H 	0.3673	0.2747	0.0692	0.071
Mof_C 	C 	0.39524	0.30997	0.06677	-0.078
Mof_C 	C 	0.37987	0.32489	0.04084	0.359
Mof_N 	N 	0.39405	0.22978	0.14066	-0.081
Mof_N 	N 	0.37496	0.20727	0.1452	-0.137
Mof_O 	O 	0.10802	0.15135	0.03108	-0.401
Mof_O 	O 	0.14347	0.1869	0.03101	-0.397
Mof_C 	C 	0.11636	0.21623	0.07836	-0.003
Mof_H 	H 	0.1327	0.2253	0.0692	0.07
Mof_C 	C 	0.10476	0.19003	0.06677	-0.079
Mof_C 	C 	0.12013	0.17511	0.04084	0.359
Mof_N 	N 	0.10595	0.27022	0.14066	-0.081
Mof_N 	N 	0.12504	0.29273	0.1452	-0.137
Mof_O 	O 	0.10802	0.65135	0.53108	-0.4
Mof_O 	O 	0.14347	0.6869	0.53101	-0.396
Mof_C 	C 	0.11636	0.71623	0.57836	-0.004
Mof_H 	H 	0.1327	0.7253	0.5692	0.071
Mof_C 	C 	0.10476	0.69003	0.56677	-0.078
Mof_C 	C 	0.12013	0.67511	0.54084	0.359
Mof_N 	N 	0.10595	0.77022	0.64066	-0.081
Mof_N 	N 	0.12504	0.79273	0.6452	-0.137
Mof_O 	O 	0.60802	0.15135	0.53108	-0.4
Mof_O 	O 	0.64347	0.1869	0.53101	-0.396
Mof_C 	C 	0.61636	0.21623	0.57836	-0.004
Mof_H 	H 	0.6327	0.2253	0.5692	0.071
Mof_C 	C 	0.60476	0.19003	0.56677	-0.078
Mof_C 	C 	0.62013	0.17511	0.54084	0.359
Mof_N 	N 	0.60595	0.27022	0.64066	-0.081
Mof_N 	N 	0.62504	0.29273	0.6452	-0.137
Mof_O 	O 	0.60802	0.65135	0.03108	-0.401
Mof_O 	O 	0.64347	0.6869	0.03101	-0.397
Mof_C 	C 	0.61636	0.71623	0.07836	-0.004
Mof_H 	H 	0.6327	0.7253	0.0692	0.071
Mof_C 	C 	0.60476	0.69003	0.06677	-0.078
Mof_C 	C 	0.62013	0.67511	0.04084	0.359
Mof_N 	N 	0.60595	0.77022	0.14066	-0.081
Mof_N 	N 	0.62504	0.79273	0.1452	-0.137
Mof_O 	O 	0.89198	0.15135	0.96892	-0.397
Mof_O 	O 	0.85653	0.1869	0.96899	-0.394
Mof_C 	C 	0.88364	0.21623	0.92164	-0.004
Mof_H 	H 	0.8673	0.2253	0.9308	0.072
Mof_C 	C 	0.89524	0.19003	0.93323	-0.076
Mof_C 	C 	0.87987	0.17511	0.95916	0.358
Mof_N 	N 	0.89405	0.27022	0.85934	-0.08
Mof_N 	N 	0.87496	0.29273	0.8548	-0.137
Mof_O 	O 	0.89198	0.65135	0.46892	-0.399
Mof_O 	O 	0.85653	0.6869	0.46899	-0.396
Mof_C 	C 	0.88364	0.71623	0.42164	-0.004
Mof_H 	H 	0.8673	0.7253	0.4308	0.071
Mof_C 	C 	0.89524	0.69003	0.43323	-0.077
Mof_C 	C 	0.87987	0.67511	0.45916	0.359
Mof_N 	N 	0.89405	0.77022	0.35934	-0.08
Mof_N 	N 	0.87496	0.79273	0.3548	-0.137
Mof_O 	O 	0.39198	0.15135	0.46892	-0.4
Mof_O 	O 	0.35653	0.1869	0.46899	-0.396
Mof_C 	C 	0.38364	0.21623	0.42164	-0.004
Mof_H 	H 	0.3673	0.2253	0.4308	0.071
Mof_C 	C 	0.39524	0.19003	0.43323	-0.078
Mof_C 	C 	0.37987	0.17511	0.45916	0.359
Mof_N 	N 	0.39405	0.27022	0.35934	-0.081
Mof_N 	N 	0.37496	0.29273	0.3548	-0.137
Mof_O 	O 	0.39198	0.65135	0.96892	-0.398
Mof_O 	O 	0.35653	0.6869	0.96899	-0.394
Mof_C 	C 	0.38364	0.71623	0.92164	-0.004
Mof_H 	H 	0.3673	0.7253	0.9308	0.072
Mof_C 	C 	0.39524	0.69003	0.93323	-0.077
Mof_C 	C 	0.37987	0.67511	0.95916	0.358
Mof_N 	N 	0.39405	0.77022	0.85934	-0.081
Mof_N 	N 	0.37496	0.79273	0.8548	-0.137
Mof_O 	O 	0.10802	0.84865	0.96892	-0.398
Mof_O 	O 	0.14347	0.8131	0.96899	-0.394
Mof_C 	C 	0.11636	0.78377	0.92164	-0.004
Mof_H 	H 	0.1327	0.7747	0.9308	0.071
Mof_C 	C 	0.10476	0.80997	0.93323	-0.077
Mof_C 	C 	0.12013	0.82489	0.95916	0.358
Mof_N 	N 	0.10595	0.72978	0.85934	-0.081
Mof_N 	N 	0.12504	0.70727	0.8548	-0.137
Mof_O 	O 	0.10802	0.34865	0.46892	-0.4
Mof_O 	O 	0.14347	0.3131	0.46899	-0.396
Mof_C 	C 	0.11636	0.28377	0.42164	-0.004
Mof_H 	H 	0.1327	0.2747	0.4308	0.071
Mof_C 	C 	0.10476	0.30997	0.43323	-0.078
Mof_C 	C 	0.12013	0.32489	0.45916	0.359
Mof_N 	N 	0.10595	0.22978	0.35934	-0.081
Mof_N 	N 	0.12504	0.20727	0.3548	-0.137
Mof_O 	O 	0.60802	0.84865	0.46892	-0.4
Mof_O 	O 	0.64347	0.8131	0.46899	-0.396
Mof_C 	C 	0.61636	0.78377	0.42164	-0.004
Mof_H 	H 	0.6327	0.7747	0.4308	0.071
Mof_C 	C 	0.60476	0.80997	0.43323	-0.078
Mof_C 	C 	0.62013	0.82489	0.45916	0.359
Mof_N 	N 	0.60595	0.72978	0.35934	-0.081
Mof_N 	N 	0.62504	0.70727	0.3548	-0.137
Mof_O 	O 	0.60802	0.34865	0.96892	-0.398
Mof_O 	O 	0.64347	0.3131	0.96899	-0.394
Mof_C 	C 	0.61636	0.28377	0.92164	-0.004
Mof_H 	H 	0.6327	0.2747	0.9308	0.072
Mof_C 	C 	0.60476	0.30997	0.93323	-0.077
Mof_C 	C 	0.62013	0.32489	0.95916	0.358
Mof_N 	N 	0.60595	0.22978	0.85934	-0.081
Mof_N 	N 	0.62504	0.20727	0.8548	-0.137
Mof_O 	O 	0.84865	0.96892	0.10802	-0.398
Mof_O 	O 	0.8131	0.96899	0.14347	-0.394
Mof_C 	C 	0.78377	0.92164	0.11636	-0.004
Mof_H 	H 	0.7747	0.9308	0.1327	0.071
Mof_C 	C 	0.80997	0.93323	0.10476	-0.077
Mof_C 	C 	0.82489	0.95916	0.12013	0.358
Mof_N 	N 	0.72978	0.85934	0.10595	-0.081
Mof_N 	N 	0.70727	0.8548	0.12504	-0.137
Mof_O 	O 	0.84865	0.46892	0.60802	-0.4
Mof_O 	O 	0.8131	0.46899	0.64347	-0.396
Mof_C 	C 	0.78377	0.42164	0.61636	-0.004
Mof_H 	H 	0.7747	0.4308	0.6327	0.071
Mof_C 	C 	0.80997	0.43323	0.60476	-0.078
Mof_C 	C 	0.82489	0.45916	0.62013	0.359
Mof_N 	N 	0.72978	0.35934	0.60595	-0.081
Mof_N 	N 	0.70727	0.3548	0.62504	-0.137
Mof_O 	O 	0.34865	0.96892	0.60802	-0.398
Mof_O 	O 	0.3131	0.96899	0.64347	-0.394
Mof_C 	C 	0.28377	0.92164	0.61636	-0.004
Mof_H 	H 	0.2747	0.9308	0.6327	0.072
Mof_C 	C 	0.30997	0.93323	0.60476	-0.077
Mof_C 	C 	0.32489	0.95916	0.62013	0.358
Mof_N 	N 	0.22978	0.85934	0.60595	-0.081
Mof_N 	N 	0.20727	0.8548	0.62504	-0.137
Mof_O 	O 	0.34865	0.46892	0.10802	-0.4
Mof_O 	O 	0.3131	0.46899	0.14347	-0.396
Mof_C 	C 	0.28377	0.42164	0.11636	-0.004
Mof_H 	H 	0.2747	0.4308	0.1327	0.071
Mof_C 	C 	0.30997	0.43323	0.10476	-0.078
Mof_C 	C 	0.32489	0.45916	0.12013	0.359
Mof_N 	N 	0.22978	0.35934	0.10595	-0.081
Mof_N 	N 	0.20727	0.3548	0.12504	-0.137
Mof_O 	O 	0.15135	0.96892	0.89198	-0.397
Mof_O 	O 	0.1869	0.96899	0.85653	-0.394
Mof_C 	C 	0.21623	0.92164	0.88364	-0.004
Mof_H 	H 	0.2253	0.9308	0.8673	0.072
Mof_C 	C 	0.19003	0.93323	0.89524	-0.076
Mof_C 	C 	0.17511	0.95916	0.87987	0.358
Mof_N 	N 	0.27022	0.85934	0.89405	-0.08
Mof_N 	N 	0.29273	0.8548	0.87496	-0.137
Mof_O 	O 	0.15135	0.46892	0.39198	-0.4
Mof_O 	O 	0.1869	0.46899	0.35653	-0.396
Mof_C 	C 	0.21623	0.42164	0.38364	-0.004
Mof_H 	H 	0.2253	0.4308	0.3673	0.071
Mof_C 	C 	0.19003	0.43323	0.39524	-0.078
Mof_C 	C 	0.17511	0.45916	0.37987	0.359
Mof_N 	N 	0.27022	0.35934	0.39405	-0.081
Mof_N 	N 	0.29273	0.3548	0.37496	-0.137
Mof_O 	O 	0.65135	0.96892	0.39198	-0.398
Mof_O 	O 	0.6869	0.96899	0.35653	-0.394
Mof_C 	C 	0.71623	0.92164	0.38364	-0.004
Mof_H 	H 	0.7253	0.9308	0.3673	0.072
Mof_C 	C 	0.69003	0.93323	0.39524	-0.077
Mof_C 	C 	0.67511	0.95916	0.37987	0.358
Mof_N 	N 	0.77022	0.85934	0.39405	-0.081
Mof_N 	N 	0.79273	0.8548	0.37496	-0.137
Mof_O 	O 	0.65135	0.46892	0.89198	-0.399
Mof_O 	O 	0.6869	0.46899	0.85653	-0.396
Mof_C 	C 	0.71623	0.42164	0.88364	-0.004
Mof_H 	H 	0.7253	0.4308	0.8673	0.071
Mof_C 	C 	0.69003	0.43323	0.89524	-0.077
Mof_C 	C 	0.67511	0.45916	0.87987	0.359
Mof_N 	N 	0.77022	0.35934	0.89405	-0.08
Mof_N 	N 	0.79273	0.3548	0.87496	-0.137
Mof_O 	O 	0.15135	0.03108	0.10802	-0.401
Mof_O 	O 	0.1869	0.03101	0.14347	-0.397
Mof_C 	C 	0.21623	0.07836	0.11636	-0.003
Mof_H 	H 	0.2253	0.0692	0.1327	0.07
Mof_C 	C 	0.19003	0.06677	0.10476	-0.079
Mof_C 	C 	0.17511	0.04084	0.12013	0.359
Mof_N 	N 	0.27022	0.14066	0.10595	-0.081
Mof_N 	N 	0.29273	0.1452	0.12504	-0.137
Mof_O 	O 	0.15135	0.53108	0.60802	-0.4
Mof_O 	O 	0.1869	0.53101	0.64347	-0.396
Mof_C 	C 	0.21623	0.57836	0.61636	-0.004
Mof_H 	H 	0.2253	0.5692	0.6327	0.071
Mof_C 	C 	0.19003	0.56677	0.60476	-0.078
Mof_C 	C 	0.17511	0.54084	0.62013	0.359
Mof_N 	N 	0.27022	0.64066	0.60595	-0.081
Mof_N 	N 	0.29273	0.6452	0.62504	-0.137
Mof_O 	O 	0.65135	0.03108	0.60802	-0.401
Mof_O 	O 	0.6869	0.03101	0.64347	-0.397
Mof_C 	C 	0.71623	0.07836	0.61636	-0.004
Mof_H 	H 	0.7253	0.0692	0.6327	0.071
Mof_C 	C 	0.69003	0.06677	0.60476	-0.078
Mof_C 	C 	0.67511	0.04084	0.62013	0.359
Mof_N 	N 	0.77022	0.14066	0.60595	-0.081
Mof_N 	N 	0.79273	0.1452	0.62504	-0.137
Mof_O 	O 	0.65135	0.53108	0.10802	-0.4
Mof_O 	O 	0.6869	0.53101	0.14347	-0.396
Mof_C 	C 	0.71623	0.57836	0.11636	-0.004
Mof_H 	H 	0.7253	0.5692	0.1327	0.071
Mof_C 	C 	0.69003	0.56677	0.10476	-0.078
Mof_C 	C 	0.67511	0.54084	0.12013	0.359
Mof_N 	N 	0.77022	0.64066	0.10595	-0.081
Mof_N 	N 	0.79273	0.6452	0.12504	-0.137
Mof_O 	O 	0.84865	0.03108	0.89198	-0.4
Mof_O 	O 	0.8131	0.03101	0.85653	-0.397
Mof_C 	C 	0.78377	0.07836	0.88364	-0.004
Mof_H 	H 	0.7747	0.0692	0.8673	0.071
Mof_C 	C 	0.80997	0.06677	0.89524	-0.078
Mof_C 	C 	0.82489	0.04084	0.87987	0.359
Mof_N 	N 	0.72978	0.14066	0.89405	-0.08
Mof_N 	N 	0.70727	0.1452	0.87496	-0.137
Mof_O 	O 	0.84865	0.53108	0.39198	-0.4
Mof_O 	O 	0.8131	0.53101	0.35653	-0.396
Mof_C 	C 	0.78377	0.57836	0.38364	-0.004
Mof_H 	H 	0.7747	0.5692	0.3673	0.071
Mof_C 	C 	0.80997	0.56677	0.39524	-0.077
Mof_C 	C 	0.82489	0.54084	0.37987	0.359
Mof_N 	N 	0.72978	0.64066	0.39405	-0.081
Mof_N 	N 	0.70727	0.6452	0.37496	-0.137
Mof_O 	O 	0.34865	0.03108	0.39198	-0.401
Mof_O 	O 	0.3131	0.03101	0.35653	-0.397
Mof_C 	C 	0.28377	0.07836	0.38364	-0.004
Mof_H 	H 	0.2747	0.0692	0.3673	0.071
Mof_C 	C 	0.30997	0.06677	0.39524	-0.078
Mof_C 	C 	0.32489	0.04084	0.37987	0.359
Mof_N 	N 	0.22978	0.14066	0.39405	-0.081
Mof_N 	N 	0.20727	0.1452	0.37496	-0.137
Mof_O 	O 	0.34865	0.53108	0.89198	-0.399
Mof_O 	O 	0.3131	0.53101	0.85653	-0.396
Mof_C 	C 	0.28377	0.57836	0.88364	-0.004
Mof_H 	H 	0.2747	0.5692	0.8673	0.071
Mof_C 	C 	0.30997	0.56677	0.89524	-0.077
Mof_C 	C 	0.32489	0.54084	0.87987	0.359
Mof_N 	N 	0.22978	0.64066	0.89405	-0.08
Mof_N 	N 	0.20727	0.6452	0.87496	-0.137
Mof_O 	O 	0.96892	0.89198	0.15135	-0.397
Mof_O 	O 	0.96899	0.85653	0.1869	-0.394
Mof_C 	C 	0.92164	0.88364	0.21623	-0.004
Mof_H 	H 	0.9308	0.8673	0.2253	0.072
Mof_C 	C 	0.93323	0.89524	0.19003	-0.076
Mof_C 	C 	0.95916	0.87987	0.17511	0.358
Mof_N 	N 	0.85934	0.89405	0.27022	-0.08
Mof_N 	N 	0.8548	0.87496	0.29273	-0.137
Mof_O 	O 	0.96892	0.39198	0.65135	-0.398
Mof_O 	O 	0.96899	0.35653	0.6869	-0.394
Mof_C 	C 	0.92164	0.38364	0.71623	-0.004
Mof_H 	H 	0.9308	0.3673	0.7253	0.072
Mof_C 	C 	0.93323	0.39524	0.69003	-0.077
Mof_C 	C 	0.95916	0.37987	0.67511	0.358
Mof_N 	N 	0.85934	0.39405	0.77022	-0.081
Mof_N 	N 	0.8548	0.37496	0.79273	-0.137
Mof_O 	O 	0.46892	0.89198	0.65135	-0.399
Mof_O 	O 	0.46899	0.85653	0.6869	-0.396
Mof_C 	C 	0.42164	0.88364	0.71623	-0.004
Mof_H 	H 	0.4308	0.8673	0.7253	0.071
Mof_C 	C 	0.43323	0.89524	0.69003	-0.077
Mof_C 	C 	0.45916	0.87987	0.67511	0.359
Mof_N 	N 	0.35934	0.89405	0.77022	-0.08
Mof_N 	N 	0.3548	0.87496	0.79273	-0.137
Mof_O 	O 	0.46892	0.39198	0.15135	-0.4
Mof_O 	O 	0.46899	0.35653	0.1869	-0.396
Mof_C 	C 	0.42164	0.38364	0.21623	-0.004
Mof_H 	H 	0.4308	0.3673	0.2253	0.071
Mof_C 	C 	0.43323	0.39524	0.19003	-0.078
Mof_C 	C 	0.45916	0.37987	0.17511	0.359
Mof_N 	N 	0.35934	0.39405	0.27022	-0.081
Mof_N 	N 	0.3548	0.37496	0.29273	-0.137
Mof_O 	O 	0.96892	0.10802	0.84865	-0.398
Mof_O 	O 	0.96899	0.14347	0.8131	-0.394
Mof_C 	C 	0.92164	0.11636	0.78377	-0.004
Mof_H 	H 	0.9308	0.1327	0.7747	0.071
Mof_C 	C 	0.93323	0.10476	0.80997	-0.077
Mof_C 	C 	0.95916	0.12013	0.82489	0.358
Mof_N 	N 	0.85934	0.10595	0.72978	-0.081
Mof_N 	N 	0.8548	0.12504	0.70727	-0.137
Mof_O 	O 	0.96892	0.60802	0.34865	-0.398
Mof_O 	O 	0.96899	0.64347	0.3131	-0.394
Mof_C 	C 	0.92164	0.61636	0.28377	-0.004
Mof_H 	H 	0.9308	0.6327	0.2747	0.072
Mof_C 	C 	0.93323	0.60476	0.30997	-0.077
Mof_C 	C 	0.95916	0.62013	0.32489	0.358
Mof_N 	N 	0.85934	0.60595	0.22978	-0.081
Mof_N 	N 	0.8548	0.62504	0.20727	-0.137
Mof_O 	O 	0.46892	0.10802	0.34865	-0.4
Mof_O 	O 	0.46899	0.14347	0.3131	-0.396
Mof_C 	C 	0.42164	0.11636	0.28377	-0.004
Mof_H 	H 	0.4308	0.1327	0.2747	0.071
Mof_C 	C 	0.43323	0.10476	0.30997	-0.078
Mof_C 	C 	0.45916	0.12013	0.32489	0.359
Mof_N 	N 	0.35934	0.10595	0.22978	-0.081
Mof_N 	N 	0.3548	0.12504	0.20727	-0.137
Mof_O 	O 	0.46892	0.60802	0.84865	-0.4
Mof_O 	O 	0.46899	0.64347	0.8131	-0.396
Mof_C 	C 	0.42164	0.61636	0.78377	-0.004
Mof_H 	H 	0.4308	0.6327	0.7747	0.071
Mof_C 	C 	0.43323	0.60476	0.80997	-0.078
Mof_C 	C 	0.45916	0.62013	0.82489	0.359
Mof_N 	N 	0.35934	0.60595	0.72978	-0.081
Mof_N 	N 	0.3548	0.62504	0.70727	-0.137
Mof_O 	O 	0.03108	0.89198	0.84865	-0.4
Mof_O 	O 	0.03101	0.85653	0.8131	-0.397
Mof_C 	C 	0.07836	0.88364	0.78377	-0.004
Mof_H 	H 	0.0692	0.8673	0.7747	0.071
Mof_C 	C 	0.06677	0.89524	0.80997	-0.078
Mof_C 	C 	0.04084	0.87987	0.82489	0.359
Mof_N 	N 	0.14066	0.89405	0.72978	-0.08
Mof_N 	N 	0.1452	0.87496	0.70727	-0.137
Mof_O 	O 	0.03108	0.39198	0.34865	-0.401
Mof_O 	O 	0.03101	0.35653	0.3131	-0.397
Mof_C 	C 	0.07836	0.38364	0.28377	-0.004
Mof_H 	H 	0.0692	0.3673	0.2747	0.071
Mof_C 	C 	0.06677	0.39524	0.30997	-0.078
Mof_C 	C 	0.04084	0.37987	0.32489	0.359
Mof_N 	N 	0.14066	0.39405	0.22978	-0.081
Mof_N 	N 	0.1452	0.37496	0.20727	-0.137
Mof_O 	O 	0.53108	0.89198	0.34865	-0.399
Mof_O 	O 	0.53101	0.85653	0.3131	-0.396
Mof_C 	C 	0.57836	0.88364	0.28377	-0.004
Mof_H 	H 	0.5692	0.8673	0.2747	0.071
Mof_C 	C 	0.56677	0.89524	0.30997	-0.077
Mof_C 	C 	0.54084	0.87987	0.32489	0.359
Mof_N 	N 	0.64066	0.89405	0.22978	-0.08
Mof_N 	N 	0.6452	0.87496	0.20727	-0.137
Mof_O 	O 	0.53108	0.39198	0.84865	-0.4
Mof_O 	O 	0.53101	0.35653	0.8131	-0.396
Mof_C 	C 	0.57836	0.38364	0.78377	-0.004
Mof_H 	H 	0.5692	0.3673	0.7747	0.071
Mof_C 	C 	0.56677	0.39524	0.80997	-0.077
Mof_C 	C 	0.54084	0.37987	0.82489	0.359
Mof_N 	N 	0.64066	0.39405	0.72978	-0.081
Mof_N 	N 	0.6452	0.37496	0.70727	-0.137
Mof_O 	O 	0.03108	0.10802	0.15135	-0.401
Mof_O 	O 	0.03101	0.14347	0.1869	-0.397
Mof_C 	C 	0.07836	0.11636	0.21623	-0.003
Mof_H 	H 	0.0692	0.1327	0.2253	0.07
Mof_C 	C 	0.06677	0.10476	0.19003	-0.079
Mof_C 	C 	0.04084	0.12013	0.17511	0.359
Mof_N 	N 	0.14066	0.10595	0.27022	-0.081
Mof_N 	N 	0.1452	0.12504	0.29273	-0.137
Mof_O 	O 	0.03108	0.60802	0.65135	-0.401
Mof_O 	O 	0.03101	0.64347	0.6869	-0.397
Mof_C 	C 	0.07836	0.61636	0.71623	-0.004
Mof_H 	H 	0.0692	0.6327	0.7253	0.071
Mof_C 	C 	0.06677	0.60476	0.69003	-0.078
Mof_C 	C 	0.04084	0.62013	0.67511	0.359
Mof_N 	N 	0.14066	0.60595	0.77022	-0.081
Mof_N 	N 	0.1452	0.62504	0.79273	-0.137
Mof_O 	O 	0.53108	0.10802	0.65135	-0.4
Mof_O 	O 	0.53101	0.14347	0.6869	-0.396
Mof_C 	C 	0.57836	0.11636	0.71623	-0.004
Mof_H 	H 	0.5692	0.1327	0.7253	0.071
Mof_C 	C 	0.56677	0.10476	0.69003	-0.078
Mof_C 	C 	0.54084	0.12013	0.67511	0.359
Mof_N 	N 	0.64066	0.10595	0.77022	-0.081
Mof_N 	N 	0.6452	0.12504	0.79273	-0.137
Mof_O 	O 	0.53108	0.60802	0.15135	-0.4
Mof_O 	O 	0.53101	0.64347	0.1869	-0.396
Mof_C 	C 	0.57836	0.61636	0.21623	-0.004
Mof_H 	H 	0.5692	0.6327	0.2253	0.071
Mof_C 	C 	0.56677	0.60476	0.19003	-0.078
Mof_C 	C 	0.54084	0.62013	0.17511	0.359
Mof_N 	N 	0.64066	0.60595	0.27022	-0.081
Mof_N 	N 	0.6452	0.62504	0.29273	-0.137
Mof_Cu	Cu	0.3238	0.12316	0.1762	0.915
Mof_O 	O 	0.2935	0.1014	0.2065	-0.155
Mof_O 	O 	0.349	0.0872	0.151	-0.143
Mof_O 	O 	0.31	0.0835	0.19	-0.163
Mof_O 	O 	0.3655	0.1098	0.1345	-0.071
Mof_Cu	Cu	0.3238	0.62316	0.6762	0.915
Mof_O 	O 	0.2935	0.6014	0.7065	-0.155
Mof_O 	O 	0.349	0.5872	0.651	-0.142
Mof_O 	O 	0.31	0.5835	0.69	-0.162
Mof_O 	O 	0.3655	0.6098	0.6345	-0.071
Mof_Cu	Cu	0.6762	0.87684	0.1762	0.915
Mof_O 	O 	0.7065	0.8986	0.2065	-0.154
Mof_O 	O 	0.651	0.9128	0.151	-0.142
Mof_O 	O 	0.69	0.9165	0.19	-0.161
Mof_O 	O 	0.6345	0.8902	0.1345	-0.071
Mof_Cu	Cu	0.6762	0.37684	0.6762	0.915
Mof_O 	O 	0.7065	0.3986	0.7065	-0.155
Mof_O 	O 	0.651	0.4128	0.651	-0.142
Mof_O 	O 	0.69	0.4165	0.69	-0.162
Mof_O 	O 	0.6345	0.3902	0.6345	-0.071
Mof_Cu	Cu	0.1762	0.37684	0.1762	0.915
Mof_O 	O 	0.2065	0.3986	0.2065	-0.155
Mof_O 	O 	0.151	0.4128	0.151	-0.143
Mof_O 	O 	0.19	0.4165	0.19	-0.162
Mof_O 	O 	0.1345	0.3902	0.1345	-0.071
Mof_Cu	Cu	0.6762	0.12316	0.8238	0.915
Mof_O 	O 	0.7065	0.1014	0.7935	-0.155
Mof_O 	O 	0.651	0.0872	0.849	-0.143
Mof_O 	O 	0.69	0.0835	0.81	-0.162
Mof_O 	O 	0.6345	0.1098	0.8655	-0.071
Mof_Cu	Cu	0.6762	0.62316	0.3238	0.915
Mof_O 	O 	0.7065	0.6014	0.2935	-0.155
Mof_O 	O 	0.651	0.5872	0.349	-0.142
Mof_O 	O 	0.69	0.5835	0.31	-0.162
Mof_O 	O 	0.6345	0.6098	0.3655	-0.071
Mof_Cu	Cu	0.1762	0.12316	0.3238	0.915
Mof_O 	O 	0.2065	0.1014	0.2935	-0.155
Mof_O 	O 	0.151	0.0872	0.349	-0.143
Mof_O 	O 	0.19	0.0835	0.31	-0.163
Mof_O 	O 	0.1345	0.1098	0.3655	-0.071
Mof_Cu	Cu	0.3238	0.87684	0.8238	0.915
Mof_O 	O 	0.2935	0.8986	0.7935	-0.155
Mof_O 	O 	0.349	0.9128	0.849	-0.141
Mof_O 	O 	0.31	0.9165	0.81	-0.161
Mof_O 	O 	0.3655	0.8902	0.8655	-0.071
Mof_Cu	Cu	0.3238	0.37684	0.3238	0.915
Mof_O 	O 	0.2935	0.3986	0.2935	-0.155
Mof_O 	O 	0.349	0.4128	0.349	-0.142
Mof_O 	O 	0.31	0.4165	0.31	-0.162
Mof_O 	O 	0.3655	0.3902	0.3655	-0.071
Mof_Cu	Cu	0.1762	0.3238	0.12316	0.915
Mof_O 	O 	0.2065	0.2935	0.1014	-0.155
Mof_O 	O 	0.151	0.349	0.0872	-0.143
Mof_O 	O 	0.19	0.31	0.0835	-0.163
Mof_O 	O 	0.1345	0.3655	0.1098	-0.071
Mof_Cu	Cu	0.1762	0.8238	0.62316	0.915
Mof_O 	O 	0.2065	0.7935	0.6014	-0.155
Mof_O 	O 	0.151	0.849	0.5872	-0.142
Mof_O 	O 	0.19	0.81	0.5835	-0.162
Mof_O 	O 	0.1345	0.8655	0.6098	-0.071
Mof_Cu	Cu	0.1762	0.6762	0.87684	0.915
Mof_O 	O 	0.2065	0.7065	0.8986	-0.154
Mof_O 	O 	0.151	0.651	0.9128	-0.142
Mof_O 	O 	0.19	0.69	0.9165	-0.161
Mof_O 	O 	0.1345	0.6345	0.8902	-0.071
Mof_Cu	Cu	0.1762	0.1762	0.37684	0.915
Mof_O 	O 	0.2065	0.2065	0.3986	-0.155
Mof_O 	O 	0.151	0.151	0.4128	-0.143
Mof_O 	O 	0.19	0.19	0.4165	-0.162
Mof_O 	O 	0.1345	0.1345	0.3902	-0.071
Mof_Cu	Cu	0.8238	0.6762	0.12316	0.915
Mof_O 	O 	0.7935	0.7065	0.1014	-0.155
Mof_O 	O 	0.849	0.651	0.0872	-0.143
Mof_O 	O 	0.81	0.69	0.0835	-0.162
Mof_O 	O 	0.8655	0.6345	0.1098	-0.071
Mof_Cu	Cu	0.8238	0.1762	0.62316	0.915
Mof_O 	O 	0.7935	0.2065	0.6014	-0.155
Mof_O 	O 	0.849	0.151	0.5872	-0.142
Mof_O 	O 	0.81	0.19	0.5835	-0.162
Mof_O 	O 	0.8655	0.1345	0.6098	-0.071
Mof_Cu	Cu	0.3238	0.1762	0.12316	0.915
Mof_O 	O 	0.2935	0.2065	0.1014	-0.155
Mof_O 	O 	0.349	0.151	0.0872	-0.143
Mof_O 	O 	0.31	0.19	0.0835	-0.163
Mof_O 	O 	0.3655	0.1345	0.1098	-0.071
Mof_Cu	Cu	0.8238	0.3238	0.87684	0.915
Mof_O 	O 	0.7935	0.2935	0.8986	-0.155
Mof_O 	O 	0.849	0.349	0.9128	-0.141
Mof_O 	O 	0.81	0.31	0.9165	-0.161
Mof_O 	O 	0.8655	0.3655	0.8902	-0.071
Mof_Cu	Cu	0.8238	0.8238	0.37684	0.915
Mof_O 	O 	0.7935	0.7935	0.3986	-0.155
Mof_O 	O 	0.849	0.849	0.4128	-0.142
Mof_O 	O 	0.81	0.81	0.4165	-0.162
Mof_O 	O 	0.8655	0.8655	0.3902	-0.071
Mof_Cu	Cu	0.3238	0.3238	0.37684	0.915
Mof_O 	O 	0.2935	0.2935	0.3986	-0.155
Mof_O 	O 	0.349	0.349	0.4128	-0.142
Mof_O 	O 	0.31	0.31	0.4165	-0.162
Mof_O 	O 	0.3655	0.3655	0.3902	-0.071
Mof_Cu	Cu	0.12316	0.1762	0.3238	0.915
Mof_O 	O 	0.1014	0.2065	0.2935	-0.155
Mof_O 	O 	0.0872	0.151	0.349	-0.143
Mof_O 	O 	0.0835	0.19	0.31	-0.163
Mof_O 	O 	0.1098	0.1345	0.3655	-0.071
Mof_Cu	Cu	0.62316	0.1762	0.8238	0.915
Mof_O 	O 	0.6014	0.2065	0.7935	-0.155
Mof_O 	O 	0.5872	0.151	0.849	-0.142
Mof_O 	O 	0.5835	0.19	0.81	-0.162
Mof_O 	O 	0.6098	0.1345	0.8655	-0.071
Mof_Cu	Cu	0.87684	0.1762	0.6762	0.915
Mof_O 	O 	0.8986	0.2065	0.7065	-0.154
Mof_O 	O 	0.9128	0.151	0.651	-0.142
Mof_O 	O 	0.9165	0.19	0.69	-0.161
Mof_O 	O 	0.8902	0.1345	0.6345	-0.071
Mof_Cu	Cu	0.37684	0.1762	0.1762	0.915
Mof_O 	O 	0.3986	0.2065	0.2065	-0.155
Mof_O 	O 	0.4128	0.151	0.151	-0.143
Mof_O 	O 	0.4165	0.19	0.19	-0.162
Mof_O 	O 	0.3902	0.1345	0.1345	-0.071
Mof_Cu	Cu	0.12316	0.8238	0.6762	0.915
Mof_O 	O 	0.1014	0.7935	0.7065	-0.155
Mof_O 	O 	0.0872	0.849	0.651	-0.143
Mof_O 	O 	0.0835	0.81	0.69	-0.162
Mof_O 	O 	0.1098	0.8655	0.6345	-0.071
Mof_Cu	Cu	0.12316	0.3238	0.1762	0.915
Mof_O 	O 	0.1014	0.2935	0.2065	-0.155
Mof_O 	O 	0.0872	0.349	0.151	-0.143
Mof_O 	O 	0.0835	0.31	0.19	-0.163
Mof_O 	O 	0.1098	0.3655	0.1345	-0.071
Mof_Cu	Cu	0.62316	0.8238	0.1762	0.915
Mof_O 	O 	0.6014	0.7935	0.2065	-0.155
Mof_O 	O 	0.5872	0.849	0.151	-0.142
Mof_O 	O 	0.5835	0.81	0.19	-0.162
Mof_O 	O 	0.6098	0.8655	0.1345	-0.071
Mof_Cu	Cu	0.87684	0.8238	0.3238	0.915
Mof_O 	O 	0.8986	0.7935	0.2935	-0.155
Mof_O 	O 	0.9128	0.849	0.349	-0.141
Mof_O 	O 	0.9165	0.81	0.31	-0.161
Mof_O 	O 	0.8902	0.8655	0.3655	-0.071
Mof_Cu	Cu	0.37684	0.8238	0.8238	0.915
Mof_O 	O 	0.3986	0.7935	0.7935	-0.155
Mof_O 	O 	0.4128	0.849	0.849	-0.142
Mof_O 	O 	0.4165	0.81	0.81	-0.162
Mof_O 	O 	0.3902	0.8655	0.8655	-0.071
Mof_Cu	Cu	0.37684	0.3238	0.3238	0.915
Mof_O 	O 	0.3986	0.2935	0.2935	-0.155
Mof_O 	O 	0.4128	0.349	0.349	-0.142
Mof_O 	O 	0.4165	0.31	0.31	-0.162
Mof_O 	O 	0.3902	0.3655	0.3655	-0.071
Mof_Cu	Cu	0.12316	0.3238	0.8238	0.915
Mof_O 	O 	0.1014	0.2935	0.7935	-0.155
Mof_O 	O 	0.0872	0.349	0.849	-0.143
Mof_O 	O 	0.0835	0.31	0.81	-0.162
Mof_O 	O 	0.1098	0.3655	0.8655	-0.071
Mof_Cu	Cu	0.62316	0.3238	0.3238	0.915
Mof_O 	O 	0.6014	0.2935	0.2935	-0.155
Mof_O 	O 	0.5872	0.349	0.349	-0.142
Mof_O 	O 	0.5835	0.31	0.31	-0.162
Mof_O 	O 	0.6098	0.3655	0.3655	-0.071
Mof_Cu	Cu	0.87684	0.6762	0.8238	0.915
Mof_O 	O 	0.8986	0.7065	0.7935	-0.155
Mof_O 	O 	0.9128	0.651	0.849	-0.141
Mof_O 	O 	0.9165	0.69	0.81	-0.161
Mof_O 	O 	0.8902	0.6345	0.8655	-0.071
Mof_Cu	Cu	0.87684	0.1762	0.3238	0.915
Mof_O 	O 	0.8986	0.2065	0.2935	-0.154
Mof_O 	O 	0.9128	0.151	0.349	-0.142
Mof_O 	O 	0.9165	0.19	0.31	-0.161
Mof_O 	O 	0.8902	0.1345	0.3655	-0.071
Mof_Cu	Cu	0.37684	0.6762	0.3238	0.915
Mof_O 	O 	0.3986	0.7065	0.2935	-0.155
Mof_O 	O 	0.4128	0.651	0.349	-0.142
Mof_O 	O 	0.4165	0.69	0.31	-0.162
Mof_O 	O 	0.3902	0.6345	0.3655	-0.071
Mof_Cu	Cu	0.12316	0.6762	0.1762	0.915
Mof_O 	O 	0.1014	0.7065	0.2065	-0.155
Mof_O 	O 	0.0872	0.651	0.151	-0.143
Mof_O 	O 	0.0835	0.69	0.19	-0.163
Mof_O 	O 	0.1098	0.6345	0.1345	-0.071
Mof_Cu	Cu	0.62316	0.6762	0.6762	0.915
Mof_O 	O 	0.6014	0.7065	0.7065	-0.155
Mof_O 	O 	0.5872	0.651	0.651	-0.142
Mof_O 	O 	0.5835	0.69	0.69	-0.162
Mof_O 	O 	0.6098	0.6345	0.6345	-0.071
Mof_Cu	Cu	0.62316	0.1762	0.1762	0.915
Mof_O 	O 	0.6014	0.2065	0.2065	-0.155
Mof_O 	O 	0.5872	0.151	0.151	-0.143
Mof_O 	O 	0.5835	0.19	0.19	-0.162
Mof_O 	O 	0.6098	0.1345	0.1345	-0.071
Mof_Cu	Cu	0.87684	0.3238	0.1762	0.915
Mof_O 	O 	0.8986	0.2935	0.2065	-0.154
Mof_O 	O 	0.9128	0.349	0.151	-0.142
Mof_O 	O 	0.9165	0.31	0.19	-0.161
Mof_O 	O 	0.8902	0.3655	0.1345	-0.071
Mof_Cu	Cu	0.37684	0.3238	0.6762	0.915
Mof_O 	O 	0.3986	0.2935	0.7065	-0.155
Mof_O 	O 	0.4128	0.349	0.651	-0.142
Mof_O 	O 	0.4165	0.31	0.69	-0.162
Mof_O 	O 	0.3902	0.3655	0.6345	-0.071
Mof_Cu	Cu	0.3238	0.1762	0.87684	0.915
Mof_O 	O 	0.2935	0.2065	0.8986	-0.154
Mof_O 	O 	0.349	0.151	0.9128	-0.142
Mof_O 	O 	0.31	0.19	0.9165	-0.161
Mof_O 	O 	0.3655	0.1345	0.8902	-0.071
Mof_Cu	Cu	0.3238	0.6762	0.37684	0.915
Mof_O 	O 	0.2935	0.7065	0.3986	-0.155
Mof_O 	O 	0.349	0.651	0.4128	-0.142
Mof_O 	O 	0.31	0.69	0.4165	-0.162
Mof_O 	O 	0.3655	0.6345	0.3902	-0.071
Mof_Cu	Cu	0.6762	0.1762	0.12316	0.915
Mof_O 	O 	0.7065	0.2065	0.1014	-0.155
Mof_O 	O 	0.651	0.151	0.0872	-0.143
Mof_O 	O 	0.69	0.19	0.0835	-0.163
Mof_O 	O 	0.6345	0.1345	0.1098	-0.071
Mof_Cu	Cu	0.6762	0.6762	0.62316	0.915
Mof_O 	O 	0.7065	0.7065	0.6014	-0.155
Mof_O 	O 	0.651	0.651	0.5872	-0.142
Mof_O 	O 	0.69	0.69	0.5835	-0.162
Mof_O 	O 	0.6345	0.6345	0.6098	-0.071
Mof_Cu	Cu	0.1762	0.1762	0.62316	0.915
Mof_O 	O 	0.2065	0.2065	0.6014	-0.155
Mof_O 	O 	0.151	0.151	0.5872	-0.143
Mof_O 	O 	0.19	0.19	0.5835	-0.162
Mof_O 	O 	0.1345	0.1345	0.6098	-0.071
Mof_Cu	Cu	0.6762	0.8238	0.87684	0.915
Mof_O 	O 	0.7065	0.7935	0.8986	-0.155
Mof_O 	O 	0.651	0.849	0.9128	-0.141
Mof_O 	O 	0.69	0.81	0.9165	-0.161
Mof_O 	O 	0.6345	0.8655	0.8902	-0.071
Mof_Cu	Cu	0.6762	0.3238	0.37684	0.915
Mof_O 	O 	0.7065	0.2935	0.3986	-0.155
Mof_O 	O 	0.651	0.349	0.4128	-0.142
Mof_O 	O 	0.69	0.31	0.4165	-0.162
Mof_O 	O 	0.6345	0.3655	0.3902	-0.071
Mof_Cu	Cu	0.1762	0.3238	0.87684	0.915
Mof_O 	O 	0.2065	0.2935	0.8986	-0.154
Mof_O 	O 	0.151	0.349	0.9128	-0.142
Mof_O 	O 	0.19	0.31	0.9165	-0.161
Mof_O 	O 	0.1345	0.3655	0.8902	-0.071
Mof_Cu	Cu	0.3238	0.8238	0.12316	0.915
Mof_O 	O 	0.2935	0.7935	0.1014	-0.155
Mof_O 	O 	0.349	0.849	0.0872	-0.143
Mof_O 	O 	0.31	0.81	0.0835	-0.162
Mof_O 	O 	0.3655	0.8655	0.1098	-0.071
Mof_Cu	Cu	0.3238	0.3238	0.62316	0.915
Mof_O 	O 	0.2935	0.2935	0.6014	-0.155
Mof_O 	O 	0.349	0.349	0.5872	-0.142
Mof_O 	O 	0.31	0.31	0.5835	-0.162
Mof_O 	O 	0.3655	0.3655	0.6098	-0.071
Mof_Cu	Cu	0.1762	0.12316	0.6762	0.915
Mof_O 	O 	0.2065	0.1014	0.7065	-0.155
Mof_O 	O 	0.151	0.0872	0.651	-0.143
Mof_O 	O 	0.19	0.0835	0.69	-0.163
Mof_O 	O 	0.1345	0.1098	0.6345	-0.071
Mof_Cu	Cu	0.1762	0.62316	0.1762	0.915
Mof_O 	O 	0.2065	0.6014	0.2065	-0.155
Mof_O 	O 	0.151	0.5872	0.151	-0.143
Mof_O 	O 	0.19	0.5835	0.19	-0.162
Mof_O 	O 	0.1345	0.6098	0.1345	-0.071
Mof_Cu	Cu	0.1762	0.87684	0.3238	0.915
Mof_O 	O 	0.2065	0.8986	0.2935	-0.154
Mof_O 	O 	0.151	0.9128	0.349	-0.142
Mof_O 	O 	0.19	0.9165	0.31	-0.161
Mof_O 	O 	0.1345	0.8902	0.3655	-0.071
Mof_Cu	Cu	0.1762	0.37684	0.8238	0.915
Mof_O 	O 	0.2065	0.3986	0.7935	-0.155
Mof_O 	O 	0.151	0.4128	0.849	-0.142
Mof_O 	O 	0.19	0.4165	0.81	-0.162
Mof_O 	O 	0.1345	0.3902	0.8655	-0.071
Mof_Cu	Cu	0.8238	0.12316	0.3238	0.915
Mof_O 	O 	0.7935	0.1014	0.2935	-0.155
Mof_O 	O 	0.849	0.0872	0.349	-0.143
Mof_O 	O 	0.81	0.0835	0.31	-0.162
Mof_O 	O 	0.8655	0.1098	0.3655	-0.071
Mof_Cu	Cu	0.8238	0.62316	0.8238	0.915
Mof_O 	O 	0.7935	0.6014	0.7935	-0.155
Mof_O 	O 	0.849	0.5872	0.849	-0.142
Mof_O 	O 	0.81	0.5835	0.81	-0.162
Mof_O 	O 	0.8655	0.6098	0.8655	-0.071
Mof_Cu	Cu	0.3238	0.62316	0.3238	0.915
Mof_O 	O 	0.2935	0.6014	0.2935	-0.155
Mof_O 	O 	0.349	0.5872	0.349	-0.142
Mof_O 	O 	0.31	0.5835	0.31	-0.162
Mof_O 	O 	0.3655	0.6098	0.3655	-0.071
Mof_Cu	Cu	0.8238	0.87684	0.6762	0.915
Mof_O 	O 	0.7935	0.8986	0.7065	-0.155
Mof_O 	O 	0.849	0.9128	0.651	-0.141
Mof_O 	O 	0.81	0.9165	0.69	-0.161
Mof_O 	O 	0.8655	0.8902	0.6345	-0.071
Mof_Cu	Cu	0.8238	0.37684	0.1762	0.915
Mof_O 	O 	0.7935	0.3986	0.2065	-0.155
Mof_O 	O 	0.849	0.4128	0.151	-0.142
Mof_O 	O 	0.81	0.4165	0.19	-0.162
Mof_O 	O 	0.8655	0.3902	0.1345	-0.071
Mof_Cu	Cu	0.3238	0.87684	0.1762	0.915
Mof_O 	O 	0.2935	0.8986	0.2065	-0.154
Mof_O 	O 	0.349	0.9128	0.151	-0.142
Mof_O 	O 	0.31	0.9165	0.19	-0.161
Mof_O 	O 	0.3655	0.8902	0.1345	-0.071
Mof_Cu	Cu	0.6762	0.87684	0.8238	0.915
Mof_O 	O 	0.7065	0.8986	0.7935	-0.155
Mof_O 	O 	0.651	0.9128	0.849	-0.141
Mof_O 	O 	0.69	0.9165	0.81	-0.161
Mof_O 	O 	0.6345	0.8902	0.8655	-0.071
Mof_Cu	Cu	0.6762	0.37684	0.3238	0.915
Mof_O 	O 	0.7065	0.3986	0.2935	-0.155
Mof_O 	O 	0.651	0.4128	0.349	-0.142
Mof_O 	O 	0.69	0.4165	0.31	-0.162
Mof_O 	O 	0.6345	0.3902	0.3655	-0.071
Mof_Cu	Cu	0.3238	0.12316	0.8238	0.915
Mof_O 	O 	0.2935	0.1014	0.7935	-0.155
Mof_O 	O 	0.349	0.0872	0.849	-0.143
Mof_O 	O 	0.31	0.0835	0.81	-0.162
Mof_O 	O 	0.3655	0.1098	0.8655	-0.071
Mof_Cu	Cu	0.3238	0.37684	0.6762	0.915
Mof_O 	O 	0.2935	0.3986	0.7065	-0.155
Mof_O 	O 	0.349	0.4128	0.651	-0.142
Mof_O 	O 	0.31	0.4165	0.69	-0.162
Mof_O 	O 	0.3655	0.3902	0.6345	-0.071
Mof_Cu	Cu	0.6762	0.12316	0.1762	0.915
Mof_O 	O 	0.7065	0.1014	0.2065	-0.155
Mof_O 	O 	0.651	0.0872	0.151	-0.143
Mof_O 	O 	0.69	0.0835	0.19	-0.163
Mof_O 	O 	0.6345	0.1098	0.1345	-0.071
Mof_Cu	Cu	0.6762	0.62316	0.6762	0.915
Mof_O 	O 	0.7065	0.6014	0.7065	-0.155
Mof_O 	O 	0.651	0.5872	0.651	-0.142
Mof_O 	O 	0.69	0.5835	0.69	-0.162
Mof_O 	O 	0.6345	0.6098	0.6345	-0.071
Mof_Cu	Cu	0.8238	0.6762	0.87684	0.915
Mof_O 	O 	0.7935	0.7065	0.8986	-0.155
Mof_O 	O 	0.849	0.651	0.9128	-0.141
Mof_O 	O 	0.81	0.69	0.9165	-0.161
Mof_O 	O 	0.8655	0.6345	0.8902	-0.071
Mof_Cu	Cu	0.8238	0.1762	0.37684	0.915
Mof_O 	O 	0.7935	0.2065	0.3986	-0.155
Mof_O 	O 	0.849	0.151	0.4128	-0.142
Mof_O 	O 	0.81	0.19	0.4165	-0.162
Mof_O 	O 	0.8655	0.1345	0.3902	-0.071
Mof_Cu	Cu	0.8238	0.3238	0.12316	0.915
Mof_O 	O 	0.7935	0.2935	0.1014	-0.155
Mof_O 	O 	0.849	0.349	0.0872	-0.143
Mof_O 	O 	0.81	0.31	0.0835	-0.162
Mof_O 	O 	0.8655	0.3655	0.1098	-0.071
Mof_Cu	Cu	0.8238	0.8238	0.62316	0.915
Mof_O 	O 	0.7935	0.7935	0.6014	-0.155
Mof_O 	O 	0.849	0.849	0.5872	-0.142
Mof_O 	O 	0.81	0.81	0.5835	-0.162
Mof_O 	O 	0.8655	0.8655	0.6098	-0.071
Mof_Cu	Cu	0.1762	0.8238	0.37684	0.915
Mof_O 	O 	0.2065	0.7935	0.3986	-0.155
Mof_O 	O 	0.151	0.849	0.4128	-0.142
Mof_O 	O 	0.19	0.81	0.4165	-0.162
Mof_O 	O 	0.1345	0.8655	0.3902	-0.071
Mof_Cu	Cu	0.1762	0.6762	0.12316	0.915
Mof_O 	O 	0.2065	0.7065	0.1014	-0.155
Mof_O 	O 	0.151	0.651	0.0872	-0.143
Mof_O 	O 	0.19	0.69	0.0835	-0.163
Mof_O 	O 	0.1345	0.6345	0.1098	-0.071
Mof_Cu	Cu	0.87684	0.8238	0.6762	0.915
Mof_O 	O 	0.8986	0.7935	0.7065	-0.155
Mof_O 	O 	0.9128	0.849	0.651	-0.141
Mof_O 	O 	0.9165	0.81	0.69	-0.161
Mof_O 	O 	0.8902	0.8655	0.6345	-0.071
Mof_Cu	Cu	0.37684	0.8238	0.1762	0.915
Mof_O 	O 	0.3986	0.7935	0.2065	-0.155
Mof_O 	O 	0.4128	0.849	0.151	-0.142
Mof_O 	O 	0.4165	0.81	0.19	-0.162
Mof_O 	O 	0.3902	0.8655	0.1345	-0.071
Mof_Cu	Cu	0.12316	0.8238	0.3238	0.915
Mof_O 	O 	0.1014	0.7935	0.2935	-0.155
Mof_O 	O 	0.0872	0.849	0.349	-0.143
Mof_O 	O 	0.0835	0.81	0.31	-0.162
Mof_O 	O 	0.1098	0.8655	0.3655	-0.071
Mof_Cu	Cu	0.62316	0.8238	0.8238	0.915
Mof_O 	O 	0.6014	0.7935	0.7935	-0.155
Mof_O 	O 	0.5872	0.849	0.849	-0.142
Mof_O 	O 	0.5835	0.81	0.81	-0.162
Mof_O 	O 	0.6098	0.8655	0.8655	-0.071
Mof_Cu	Cu	0.37684	0.1762	0.8238	0.915
Mof_O 	O 	0.3986	0.2065	0.7935	-0.155
Mof_O 	O 	0.4128	0.151	0.849	-0.142
Mof_O 	O 	0.4165	0.19	0.81	-0.162
Mof_O 	O 	0.3902	0.1345	0.8655	-0.071
Mof_Cu	Cu	0.12316	0.1762	0.6762	0.915
Mof_O 	O 	0.1014	0.2065	0.7065	-0.155
Mof_O 	O 	0.0872	0.151	0.651	-0.143
Mof_O 	O 	0.0835	0.19	0.69	-0.163
Mof_O 	O 	0.1098	0.1345	0.6345	-0.071
Mof_Cu	Cu	0.87684	0.6762	0.1762	0.915
Mof_O 	O 	0.8986	0.7065	0.2065	-0.154
Mof_O 	O 	0.9128	0.651	0.151	-0.142
Mof_O 	O 	0.9165	0.69	0.19	-0.161
Mof_O 	O 	0.8902	0.6345	0.1345	-0.071
Mof_Cu	Cu	0.37684	0.6762	0.6762	0.915
Mof_O 	O 	0.3986	0.7065	0.7065	-0.155
Mof_O 	O 	0.4128	0.651	0.651	-0.142
Mof_O 	O 	0.4165	0.69	0.69	-0.162
Mof_O 	O 	0.3902	0.6345	0.6345	-0.071
Mof_Cu	Cu	0.62316	0.3238	0.6762	0.915
Mof_O 	O 	0.6014	0.2935	0.7065	-0.155
Mof_O 	O 	0.5872	0.349	0.651	-0.142
Mof_O 	O 	0.5835	0.31	0.69	-0.162
Mof_O 	O 	0.6098	0.3655	0.6345	-0.071
Mof_Cu	Cu	0.87684	0.3238	0.8238	0.915
Mof_O 	O 	0.8986	0.2935	0.7935	-0.155
Mof_O 	O 	0.9128	0.349	0.849	-0.141
Mof_O 	O 	0.9165	0.31	0.81	-0.161
Mof_O 	O 	0.8902	0.3655	0.8655	-0.071
Mof_Cu	Cu	0.12316	0.6762	0.8238	0.915
Mof_O 	O 	0.1014	0.7065	0.7935	-0.155
Mof_O 	O 	0.0872	0.651	0.849	-0.143
Mof_O 	O 	0.0835	0.69	0.81	-0.162
Mof_O 	O 	0.1098	0.6345	0.8655	-0.071
Mof_Cu	Cu	0.62316	0.6762	0.3238	0.915
Mof_O 	O 	0.6014	0.7065	0.2935	-0.155
Mof_O 	O 	0.5872	0.651	0.349	-0.142
Mof_O 	O 	0.5835	0.69	0.31	-0.162
Mof_O 	O 	0.6098	0.6345	0.3655	-0.071
Mof_Cu	Cu	0.6762	0.8238	0.12316	0.915
Mof_O 	O 	0.7065	0.7935	0.1014	-0.155
Mof_O 	O 	0.651	0.849	0.0872	-0.143
Mof_O 	O 	0.69	0.81	0.0835	-0.162
Mof_O 	O 	0.6345	0.8655	0.1098	-0.071
Mof_Cu	Cu	0.6762	0.3238	0.62316	0.915
Mof_O 	O 	0.7065	0.2935	0.6014	-0.155
Mof_O 	O 	0.651	0.349	0.5872	-0.142
Mof_O 	O 	0.69	0.31	0.5835	-0.162
Mof_O 	O 	0.6345	0.3655	0.6098	-0.071
Mof_Cu	Cu	0.3238	0.8238	0.87684	0.915
Mof_O 	O 	0.2935	0.7935	0.8986	-0.155
Mof_O 	O 	0.349	0.849	0.9128	-0.141
Mof_O 	O 	0.31	0.81	0.9165	-0.161
Mof_O 	O 	0.3655	0.8655	0.8902	-0.071
Mof_Cu	Cu	0.3238	0.6762	0.62316	0.915
Mof_O 	O 	0.2935	0.7065	0.6014	-0.155
Mof_O 	O 	0.349	0.651	0.5872	-0.142
Mof_O 	O 	0.31	0.69	0.5835	-0.162
Mof_O 	O 	0.3655	0.6345	0.6098	-0.071
Mof_Cu	Cu	0.6762	0.1762	0.87684	0.915
Mof_O 	O 	0.7065	0.2065	0.8986	-0.154
Mof_O 	O 	0.651	0.151	0.9128	-0.142
Mof_O 	O 	0.69	0.19	0.9165	-0.161
Mof_O 	O 	0.6345	0.1345	0.8902	-0.071
Mof_Cu	Cu	0.6762	0.6762	0.37684	0.915
Mof_O 	O 	0.7065	0.7065	0.3986	-0.155
Mof_O 	O 	0.651	0.651	0.4128	-0.142
Mof_O 	O 	0.69	0.69	0.4165	-0.162
Mof_O 	O 	0.6345	0.6345	0.3902	-0.071
Mof_Cu	Cu	0.8238	0.87684	0.3238	0.915
Mof_O 	O 	0.7935	0.8986	0.2935	-0.155
Mof_O 	O 	0.849	0.9128	0.349	-0.141
Mof_O 	O 	0.81	0.9165	0.31	-0.161
Mof_O 	O 	0.8655	0.8902	0.3655	-0.071
Mof_Cu	Cu	0.8238	0.37684	0.8238	0.915
Mof_O 	O 	0.7935	0.3986	0.7935	-0.155
Mof_O 	O 	0.849	0.4128	0.849	-0.142
Mof_O 	O 	0.81	0.4165	0.81	-0.162
Mof_O 	O 	0.8655	0.3902	0.8655	-0.071
Mof_Cu	Cu	0.8238	0.12316	0.6762	0.915
Mof_O 	O 	0.7935	0.1014	0.7065	-0.155
Mof_O 	O 	0.849	0.0872	0.651	-0.143
Mof_O 	O 	0.81	0.0835	0.69	-0.162
Mof_O 	O 	0.8655	0.1098	0.6345	-0.071
Mof_Cu	Cu	0.8238	0.62316	0.1762	0.915
Mof_O 	O 	0.7935	0.6014	0.2065	-0.155
Mof_O 	O 	0.849	0.5872	0.151	-0.142
Mof_O 	O 	0.81	0.5835	0.19	-0.162
Mof_O 	O 	0.8655	0.6098	0.1345	-0.071
Mof_Cu	Cu	0.1762	0.87684	0.6762	0.915
Mof_O 	O 	0.2065	0.8986	0.7065	-0.154
Mof_O 	O 	0.151	0.9128	0.651	-0.142
Mof_O 	O 	0.19	0.9165	0.69	-0.161
Mof_O 	O 	0.1345	0.8902	0.6345	-0.071
Mof_Cu	Cu	0.1762	0.62316	0.8238	0.915
Mof_O 	O 	0.2065	0.6014	0.7935	-0.155
Mof_O 	O 	0.151	0.5872	0.849	-0.142
Mof_O 	O 	0.19	0.5835	0.81	-0.162
Mof_O 	O 	0.1345	0.6098	0.8655	-0.071
Mof_O 	O 	0.3348	0.1652	0.1652	-0.525
Mof_O 	O 	0.3348	0.6652	0.6652	-0.525
Mof_O 	O 	0.6652	0.8348	0.1652	-0.525
Mof_O 	O 	0.6652	0.3348	0.6652	-0.525
Mof_O 	O 	0.1652	0.3348	0.1652	-0.525
Mof_O 	O 	0.6652	0.1652	0.8348	-0.525
Mof_O 	O 	0.6652	0.6652	0.3348	-0.525
Mof_O 	O 	0.1652	0.1652	0.3348	-0.525
Mof_O 	O 	0.3348	0.8348	0.8348	-0.525
Mof_O 	O 	0.3348	0.3348	0.3348	-0.525
Mof_O 	O 	0.1652	0.6652	0.8348	-0.525
Mof_O 	O 	0.8348	0.6652	0.1652	-0.525
Mof_O 	O 	0.8348	0.3348	0.8348	-0.525
Mof_O 	O 	0.8348	0.1652	0.6652	-0.525
Mof_O 	O 	0.1652	0.8348	0.6652	-0.525
Mof_O 	O 	0.8348	0.8348	0.3348	-0.525
Mof_O 	O 	0.1652	0.3348	0.8348	-0.525
Mof_O 	O 	0.8348	0.6652	0.8348	-0.525
Mof_O 	O 	0.8348	0.1652	0.3348	-0.525
Mof_O 	O 	0.3348	0.1652	0.8348	-0.525
Mof_O 	O 	0.1652	0.6652	0.1652	-0.525
Mof_O 	O 	0.8348	0.3348	0.1652	-0.525
Mof_O 	O 	0.3348	0.3348	0.6652	-0.525
Mof_O 	O 	0.3348	0.6652	0.3348	-0.525
Mof_O 	O 	0.6652	0.1652	0.1652	-0.525
Mof_O 	O 	0.6652	0.6652	0.6652	-0.525
Mof_O 	O 	0.6652	0.8348	0.8348	-0.525
Mof_O 	O 	0.6652	0.3348	0.3348	-0.525
Mof_O 	O 	0.1652	0.8348	0.3348	-0.525
Mof_O 	O 	0.3348	0.8348	0.1652	-0.525
Mof_O 	O 	0.1652	0.1652	0.6652	-0.525
Mof_O 	O 	0.8348	0.8348	0.6652	-0.525
Mof_Cu	Cu	0.16854	0.16854	-0	0.91
Mof_Cu	Cu	0.12652	0.12652	-0	0.904
Mof_Cu	Cu	0.16854	0.66854	0.5	0.912
Mof_Cu	Cu	0.12652	0.62652	0.5	0.906
Mof_Cu	Cu	0.66854	0.16854	0.5	0.912
Mof_Cu	Cu	0.62652	0.12652	0.5	0.906
Mof_Cu	Cu	0.66854	0.66854	-0	0.91
Mof_Cu	Cu	0.62652	0.62652	-0	0.904
Mof_Cu	Cu	0.83146	0.83146	-0	0.91
Mof_Cu	Cu	0.87348	0.87348	-0	0.904
Mof_Cu	Cu	0.83146	0.33146	0.5	0.912
Mof_Cu	Cu	0.87348	0.37348	0.5	0.906
Mof_Cu	Cu	0.33146	0.83146	0.5	0.912
Mof_Cu	Cu	0.37348	0.87348	0.5	0.906
Mof_Cu	Cu	0.33146	0.33146	-0	0.91
Mof_Cu	Cu	0.37348	0.37348	-0	0.904
Mof_Cu	Cu	0.83146	0.16854	-0	0.91
Mof_Cu	Cu	0.87348	0.12652	-0	0.904
Mof_Cu	Cu	0.83146	0.66854	0.5	0.912
Mof_Cu	Cu	0.87348	0.62652	0.5	0.906
Mof_Cu	Cu	0.33146	0.16854	0.5	0.912
Mof_Cu	Cu	0.37348	0.12652	0.5	0.906
Mof_Cu	Cu	0.33146	0.66854	-0	0.91
Mof_Cu	Cu	0.37348	0.62652	-0	0.904
Mof_Cu	Cu	0.16854	0.83146	-0	0.91
Mof_Cu	Cu	0.12652	0.87348	-0	0.904
Mof_Cu	Cu	0.16854	0.33146	0.5	0.912
Mof_Cu	Cu	0.12652	0.37348	0.5	0.906
Mof_Cu	Cu	0.66854	0.83146	0.5	0.912
Mof_Cu	Cu	0.62652	0.87348	0.5	0.906
Mof_Cu	Cu	0.66854	0.33146	-0	0.91
Mof_Cu	Cu	0.62652	0.37348	-0	0.904
Mof_Cu	Cu	6.31924e-34	0.16854	0.16854	0.91
Mof_Cu	Cu	2.75081e-33	0.12652	0.12652	0.904
Mof_Cu	Cu	-1.1152e-32	0.66854	0.66854	0.91
Mof_Cu	Cu	1.14548e-32	0.62652	0.62652	0.904
Mof_Cu	Cu	0.5	0.16854	0.66854	0.912
Mof_Cu	Cu	0.5	0.12652	0.62652	0.906
Mof_Cu	Cu	0.5	0.66854	0.16854	0.912
Mof_Cu	Cu	0.5	0.62652	0.12652	0.906
Mof_Cu	Cu	3.11748e-33	0.83146	0.83146	0.91
Mof_Cu	Cu	3.27503e-33	0.87348	0.87348	0.904
Mof_Cu	Cu	-5.58655e-33	0.33146	0.33146	0.91
Mof_Cu	Cu	1.40033e-33	0.37348	0.37348	0.904
Mof_Cu	Cu	0.5	0.83146	0.33146	0.912
Mof_Cu	Cu	0.5	0.87348	0.37348	0.906
Mof_Cu	Cu	0.5	0.33146	0.83146	0.912
Mof_Cu	Cu	0.5	0.37348	0.87348	0.906
Mof_Cu	Cu	6.31924e-34	0.83146	0.16854	0.91
Mof_Cu	Cu	3.88903e-33	0.87348	0.12652	0.904
Mof_Cu	Cu	2.50662e-33	0.33146	0.66854	0.91
Mof_Cu	Cu	1.14548e-32	0.37348	0.62652	0.904
Mof_Cu	Cu	0.5	0.83146	0.66854	0.912
Mof_Cu	Cu	0.5	0.87348	0.62652	0.906
Mof_Cu	Cu	0.5	0.33146	0.16854	0.912
Mof_Cu	Cu	0.5	0.37348	0.12652	0.906
Mof_Cu	Cu	3.11748e-33	0.16854	0.83146	0.91
Mof_Cu	Cu	3.27503e-33	0.12652	0.87348	0.904
Mof_Cu	Cu	3.51922e-33	0.66854	0.33146	0.91
Mof_Cu	Cu	1.05061e-32	0.62652	0.37348	0.904
Mof_Cu	Cu	0.5	0.16854	0.33146	0.912
Mof_Cu	Cu	0.5	0.12652	0.37348	0.906
Mof_Cu	Cu	0.5	0.66854	0.83146	0.912
Mof_Cu	Cu	0.5	0.62652	0.87348	0.906
Mof_Cu	Cu	0.16854	0	0.16854	0.91
Mof_Cu	Cu	0.12652	1.13822e-33	0.12652	0.904
Mof_Cu	Cu	0.16854	0.5	0.66854	0.912
Mof_Cu	Cu	0.12652	0.5	0.62652	0.906
Mof_Cu	Cu	0.66854	-4.55288e-33	0.66854	0.91
Mof_Cu	Cu	0.62652	4.55288e-33	0.62652	0.904
Mof_Cu	Cu	0.66854	0.5	0.16854	0.912
Mof_Cu	Cu	0.62652	0.5	0.12652	0.906
Mof_Cu	Cu	0.83146	0	0.83146	0.91
Mof_Cu	Cu	0.87348	0	0.87348	0.904
Mof_Cu	Cu	0.83146	0.5	0.33146	0.912
Mof_Cu	Cu	0.87348	0.5	0.37348	0.906
Mof_Cu	Cu	0.33146	-2.27644e-33	0.33146	0.91
Mof_Cu	Cu	0.37348	0	0.37348	0.904
Mof_Cu	Cu	0.33146	0.5	0.83146	0.912
Mof_Cu	Cu	0.37348	0.5	0.87348	0.906
Mof_Cu	Cu	0.16854	0	0.83146	0.91
Mof_Cu	Cu	0.12652	0	0.87348	0.904
Mof_Cu	Cu	0.16854	0.5	0.33146	0.912
Mof_Cu	Cu	0.12652	0.5	0.37348	0.906
Mof_Cu	Cu	0.66854	-2.27644e-33	0.33146	0.91
Mof_Cu	Cu	0.62652	0	0.37348	0.904
Mof_Cu	Cu	0.66854	0.5	0.83146	0.912
Mof_Cu	Cu	0.62652	0.5	0.87348	0.906
Mof_Cu	Cu	0.83146	0	0.16854	0.91
Mof_Cu	Cu	0.87348	1.13822e-33	0.12652	0.904
Mof_Cu	Cu	0.83146	0.5	0.66854	0.912
Mof_Cu	Cu	0.87348	0.5	0.62652	0.906
Mof_Cu	Cu	0.33146	-4.55288e-33	0.66854	0.91
Mof_Cu	Cu	0.37348	4.55288e-33	0.62652	0.904
Mof_Cu	Cu	0.33146	0.5	0.16854	0.912
Mof_Cu	Cu	0.37348	0.5	0.12652	0.906
Mof_C 	C 	0.2571	0.1168	0.1168	0.139
Mof_C 	C 	0.22913	0.10368	0.10368	-0.014
Mof_C 	C 	0.17726	0.07999	0.07999	0.031
Mof_H 	H 	0.1597	0.0721	0.0721	0.054
Mof_C 	C 	0.2571	0.6168	0.6168	0.139
Mof_C 	C 	0.22913	0.60368	0.60368	-0.013
Mof_C 	C 	0.17726	0.57999	0.57999	0.03
Mof_H 	H 	0.1597	0.5721	0.5721	0.055
Mof_C 	C 	0.7571	0.1168	0.6168	0.139
Mof_C 	C 	0.72913	0.10368	0.60368	-0.014
Mof_C 	C 	0.67726	0.07999	0.57999	0.03
Mof_H 	H 	0.6597	0.0721	0.5721	0.055
Mof_C 	C 	0.7571	0.6168	0.1168	0.139
Mof_C 	C 	0.72913	0.60368	0.10368	-0.014
Mof_C 	C 	0.67726	0.57999	0.07999	0.03
Mof_H 	H 	0.6597	0.5721	0.0721	0.055
Mof_C 	C 	0.7429	0.8832	0.1168	0.139
Mof_C 	C 	0.77087	0.89632	0.10368	-0.013
Mof_C 	C 	0.82274	0.92001	0.07999	0.03
Mof_H 	H 	0.8403	0.9279	0.0721	0.056
Mof_C 	C 	0.7429	0.3832	0.6168	0.139
Mof_C 	C 	0.77087	0.39632	0.60368	-0.013
Mof_C 	C 	0.82274	0.42001	0.57999	0.03
Mof_H 	H 	0.8403	0.4279	0.5721	0.056
Mof_C 	C 	0.2429	0.8832	0.6168	0.139
Mof_C 	C 	0.27087	0.89632	0.60368	-0.013
Mof_C 	C 	0.32274	0.92001	0.57999	0.03
Mof_H 	H 	0.3403	0.9279	0.5721	0.056
Mof_C 	C 	0.2429	0.3832	0.1168	0.139
Mof_C 	C 	0.27087	0.39632	0.10368	-0.014
Mof_C 	C 	0.32274	0.42001	0.07999	0.03
Mof_H 	H 	0.3403	0.4279	0.0721	0.055
Mof_C 	C 	0.7429	0.1168	0.8832	0.139
Mof_C 	C 	0.77087	0.10368	0.89632	-0.013
Mof_C 	C 	0.82274	0.07999	0.92001	0.03
Mof_H 	H 	0.8403	0.0721	0.9279	0.056
Mof_C 	C 	0.7429	0.6168	0.3832	0.139
Mof_C 	C 	0.77087	0.60368	0.39632	-0.013
Mof_C 	C 	0.82274	0.57999	0.42001	0.03
Mof_H 	H 	0.8403	0.5721	0.4279	0.056
Mof_C 	C 	0.2429	0.1168	0.3832	0.139
Mof_C 	C 	0.27087	0.10368	0.39632	-0.014
Mof_C 	C 	0.32274	0.07999	0.42001	0.03
Mof_H 	H 	0.3403	0.0721	0.4279	0.055
Mof_C 	C 	0.2429	0.6168	0.8832	0.139
Mof_C 	C 	0.27087	0.60368	0.89632	-0.013
Mof_C 	C 	0.32274	0.57999	0.92001	0.03
Mof_H 	H 	0.3403	0.5721	0.9279	0.056
Mof_C 	C 	0.2571	0.8832	0.8832	0.139
Mof_C 	C 	0.22913	0.89632	0.89632	-0.012
Mof_C 	C 	0.17726	0.92001	0.92001	0.029
Mof_H 	H 	0.1597	0.9279	0.9279	0.056
Mof_C 	C 	0.2571	0.3832	0.3832	0.139
Mof_C 	C 	0.22913	0.39632	0.39632	-0.013
Mof_C 	C 	0.17726	0.42001	0.42001	0.03
Mof_H 	H 	0.1597	0.4279	0.4279	0.055
Mof_C 	C 	0.7571	0.8832	0.3832	0.139
Mof_C 	C 	0.72913	0.89632	0.39632	-0.013
Mof_C 	C 	0.67726	0.92001	0.42001	0.03
Mof_H 	H 	0.6597	0.9279	0.4279	0.056
Mof_C 	C 	0.7571	0.3832	0.8832	0.139
Mof_C 	C 	0.72913	0.39632	0.89632	-0.013
Mof_C 	C 	0.67726	0.42001	0.92001	0.03
Mof_H 	H 	0.6597	0.4279	0.9279	0.056
Mof_C 	C 	0.1168	0.2571	0.1168	0.139
Mof_C 	C 	0.10368	0.22913	0.10368	-0.014
Mof_C 	C 	0.07999	0.17726	0.07999	0.031
Mof_H 	H 	0.0721	0.1597	0.0721	0.054
Mof_C 	C 	0.1168	0.7571	0.6168	0.139
Mof_C 	C 	0.10368	0.72913	0.60368	-0.014
Mof_C 	C 	0.07999	0.67726	0.57999	0.03
Mof_H 	H 	0.0721	0.6597	0.5721	0.055
Mof_C 	C 	0.6168	0.2571	0.6168	0.139
Mof_C 	C 	0.60368	0.22913	0.60368	-0.013
Mof_C 	C 	0.57999	0.17726	0.57999	0.03
Mof_H 	H 	0.5721	0.1597	0.5721	0.055
Mof_C 	C 	0.6168	0.7571	0.1168	0.139
Mof_C 	C 	0.60368	0.72913	0.10368	-0.014
Mof_C 	C 	0.57999	0.67726	0.07999	0.03
Mof_H 	H 	0.5721	0.6597	0.0721	0.055
Mof_C 	C 	0.1168	0.7429	0.8832	0.139
Mof_C 	C 	0.10368	0.77087	0.89632	-0.013
Mof_C 	C 	0.07999	0.82274	0.92001	0.03
Mof_H 	H 	0.0721	0.8403	0.9279	0.056
Mof_C 	C 	0.1168	0.2429	0.3832	0.139
Mof_C 	C 	0.10368	0.27087	0.39632	-0.014
Mof_C 	C 	0.07999	0.32274	0.42001	0.03
Mof_H 	H 	0.0721	0.3403	0.4279	0.055
Mof_C 	C 	0.6168	0.7429	0.3832	0.139
Mof_C 	C 	0.60368	0.77087	0.39632	-0.013
Mof_C 	C 	0.57999	0.82274	0.42001	0.03
Mof_H 	H 	0.5721	0.8403	0.4279	0.056
Mof_C 	C 	0.6168	0.2429	0.8832	0.139
Mof_C 	C 	0.60368	0.27087	0.89632	-0.013
Mof_C 	C 	0.57999	0.32274	0.92001	0.03
Mof_H 	H 	0.5721	0.3403	0.9279	0.056
Mof_C 	C 	0.8832	0.7429	0.1168	0.139
Mof_C 	C 	0.89632	0.77087	0.10368	-0.013
Mof_C 	C 	0.92001	0.82274	0.07999	0.03
Mof_H 	H 	0.9279	0.8403	0.0721	0.056
Mof_C 	C 	0.8832	0.2429	0.6168	0.139
Mof_C 	C 	0.89632	0.27087	0.60368	-0.013
Mof_C 	C 	0.92001	0.32274	0.57999	0.03
Mof_H 	H 	0.9279	0.3403	0.5721	0.056
Mof_C 	C 	0.3832	0.7429	0.6168	0.139
Mof_C 	C 	0.39632	0.77087	0.60368	-0.013
Mof_C 	C 	0.42001	0.82274	0.57999	0.03
Mof_H 	H 	0.4279	0.8403	0.5721	0.056
Mof_C 	C 	0.3832	0.2429	0.1168	0.139
Mof_C 	C 	0.39632	0.27087	0.10368	-0.014
Mof_C 	C 	0.42001	0.32274	0.07999	0.03
Mof_H 	H 	0.4279	0.3403	0.0721	0.055
Mof_C 	C 	0.8832	0.2571	0.8832	0.139
Mof_C 	C 	0.89632	0.22913	0.89632	-0.012
Mof_C 	C 	0.92001	0.17726	0.92001	0.029
Mof_H 	H 	0.9279	0.1597	0.9279	0.056
Mof_C 	C 	0.8832	0.7571	0.3832	0.139
Mof_C 	C 	0.89632	0.72913	0.39632	-0.013
Mof_C 	C 	0.92001	0.67726	0.42001	0.03
Mof_H 	H 	0.9279	0.6597	0.4279	0.056
Mof_C 	C 	0.3832	0.2571	0.3832	0.139
Mof_C 	C 	0.39632	0.22913	0.39632	-0.013
Mof_C 	C 	0.42001	0.17726	0.42001	0.03
Mof_H 	H 	0.4279	0.1597	0.4279	0.055
Mof_C 	C 	0.3832	0.7571	0.8832	0.139
Mof_C 	C 	0.39632	0.72913	0.89632	-0.013
Mof_C 	C 	0.42001	0.67726	0.92001	0.03
Mof_H 	H 	0.4279	0.6597	0.9279	0.056
Mof_C 	C 	0.1168	0.1168	0.2571	0.139
Mof_C 	C 	0.10368	0.10368	0.22913	-0.014
Mof_C 	C 	0.07999	0.07999	0.17726	0.031
Mof_H 	H 	0.0721	0.0721	0.1597	0.054
Mof_C 	C 	0.1168	0.6168	0.7571	0.139
Mof_C 	C 	0.10368	0.60368	0.72913	-0.014
Mof_C 	C 	0.07999	0.57999	0.67726	0.03
Mof_H 	H 	0.0721	0.5721	0.6597	0.055
Mof_C 	C 	0.6168	0.1168	0.7571	0.139
Mof_C 	C 	0.60368	0.10368	0.72913	-0.014
Mof_C 	C 	0.57999	0.07999	0.67726	0.03
Mof_H 	H 	0.5721	0.0721	0.6597	0.055
Mof_C 	C 	0.6168	0.6168	0.2571	0.139
Mof_C 	C 	0.60368	0.60368	0.22913	-0.013
Mof_C 	C 	0.57999	0.57999	0.17726	0.03
Mof_H 	H 	0.5721	0.5721	0.1597	0.055
Mof_C 	C 	0.8832	0.1168	0.7429	0.139
Mof_C 	C 	0.89632	0.10368	0.77087	-0.013
Mof_C 	C 	0.92001	0.07999	0.82274	0.03
Mof_H 	H 	0.9279	0.0721	0.8403	0.056
Mof_C 	C 	0.8832	0.6168	0.2429	0.139
Mof_C 	C 	0.89632	0.60368	0.27087	-0.013
Mof_C 	C 	0.92001	0.57999	0.32274	0.03
Mof_H 	H 	0.9279	0.5721	0.3403	0.056
Mof_C 	C 	0.3832	0.1168	0.2429	0.139
Mof_C 	C 	0.39632	0.10368	0.27087	-0.014
Mof_C 	C 	0.42001	0.07999	0.32274	0.03
Mof_H 	H 	0.4279	0.0721	0.3403	0.055
Mof_C 	C 	0.3832	0.6168	0.7429	0.139
Mof_C 	C 	0.39632	0.60368	0.77087	-0.013
Mof_C 	C 	0.42001	0.57999	0.82274	0.03
Mof_H 	H 	0.4279	0.5721	0.8403	0.056
Mof_C 	C 	0.1168	0.8832	0.7429	0.139
Mof_C 	C 	0.10368	0.89632	0.77087	-0.013
Mof_C 	C 	0.07999	0.92001	0.82274	0.03
Mof_H 	H 	0.0721	0.9279	0.8403	0.056
Mof_C 	C 	0.1168	0.3832	0.2429	0.139
Mof_C 	C 	0.10368	0.39632	0.27087	-0.014
Mof_C 	C 	0.07999	0.42001	0.32274	0.03
Mof_H 	H 	0.0721	0.4279	0.3403	0.055
Mof_C 	C 	0.6168	0.8832	0.2429	0.139
Mof_C 	C 	0.60368	0.89632	0.27087	-0.013
Mof_C 	C 	0.57999	0.92001	0.32274	0.03
Mof_H 	H 	0.5721	0.9279	0.3403	0.056
Mof_C 	C 	0.6168	0.3832	0.7429	0.139
Mof_C 	C 	0.60368	0.39632	0.77087	-0.013
Mof_C 	C 	0.57999	0.42001	0.82274	0.03
Mof_H 	H 	0.5721	0.4279	0.8403	0.056
Mof_C 	C 	0.8832	0.8832	0.2571	0.139
Mof_C 	C 	0.89632	0.89632	0.22913	-0.012
Mof_C 	C 	0.92001	0.92001	0.17726	0.029
Mof_H 	H 	0.9279	0.9279	0.1597	0.056
Mof_C 	C 	0.8832	0.3832	0.7571	0.139
Mof_C 	C 	0.89632	0.39632	0.72913	-0.013
Mof_C 	C 	0.92001	0.42001	0.67726	0.03
Mof_H 	H 	0.9279	0.4279	0.6597	0.056
Mof_C 	C 	0.3832	0.8832	0.7571	0.139
Mof_C 	C 	0.39632	0.89632	0.72913	-0.013
Mof_C 	C 	0.42001	0.92001	0.67726	0.03
Mof_H 	H 	0.4279	0.9279	0.6597	0.056
Mof_C 	C 	0.3832	0.3832	0.2571	0.139
Mof_C 	C 	0.39632	0.39632	0.22913	-0.013
Mof_C 	C 	0.42001	0.42001	0.17726	0.03
Mof_H 	H 	0.4279	0.4279	0.1597	0.055
Mof_C 	C 	0.1168	0.2571	0.8832	0.139
Mof_C 	C 	0.10368	0.22913	0.89632	-0.013
Mof_C 	C 	0.07999	0.17726	0.92001	0.03
Mof_H 	H 	0.0721	0.1597	0.9279	0.055
Mof_C 	C 	0.1168	0.7571	0.3832	0.139
Mof_C 	C 	0.10368	0.72913	0.39632	-0.014
Mof_C 	C 	0.07999	0.67726	0.42001	0.03
Mof_H 	H 	0.0721	0.6597	0.4279	0.055
Mof_C 	C 	0.6168	0.2571	0.3832	0.139
Mof_C 	C 	0.60368	0.22913	0.39632	-0.013
Mof_C 	C 	0.57999	0.17726	0.42001	0.03
Mof_H 	H 	0.5721	0.1597	0.4279	0.055
Mof_C 	C 	0.6168	0.7571	0.8832	0.139
Mof_C 	C 	0.60368	0.72913	0.89632	-0.013
Mof_C 	C 	0.57999	0.67726	0.92001	0.03
Mof_H 	H 	0.5721	0.6597	0.9279	0.056
Mof_C 	C 	0.8832	0.7429	0.8832	0.139
Mof_C 	C 	0.89632	0.77087	0.89632	-0.012
Mof_C 	C 	0.92001	0.82274	0.92001	0.029
Mof_H 	H 	0.9279	0.8403	0.9279	0.057
Mof_C 	C 	0.8832	0.2429	0.3832	0.139
Mof_C 	C 	0.89632	0.27087	0.39632	-0.013
Mof_C 	C 	0.92001	0.32274	0.42001	0.03
Mof_H 	H 	0.9279	0.3403	0.4279	0.056
Mof_C 	C 	0.3832	0.7429	0.3832	0.139
Mof_C 	C 	0.39632	0.77087	0.39632	-0.013
Mof_C 	C 	0.42001	0.82274	0.42001	0.03
Mof_H 	H 	0.4279	0.8403	0.4279	0.056
Mof_C 	C 	0.3832	0.2429	0.8832	0.139
Mof_C 	C 	0.39632	0.27087	0.89632	-0.013
Mof_C 	C 	0.42001	0.32274	0.92001	0.03
Mof_H 	H 	0.4279	0.3403	0.9279	0.056
Mof_C 	C 	0.1168	0.7429	0.1168	0.139
Mof_C 	C 	0.10368	0.77087	0.10368	-0.014
Mof_C 	C 	0.07999	0.82274	0.07999	0.031
Mof_H 	H 	0.0721	0.8403	0.0721	0.055
Mof_C 	C 	0.1168	0.2429	0.6168	0.139
Mof_C 	C 	0.10368	0.27087	0.60368	-0.014
Mof_C 	C 	0.07999	0.32274	0.57999	0.03
Mof_H 	H 	0.0721	0.3403	0.5721	0.055
Mof_C 	C 	0.6168	0.7429	0.6168	0.139
Mof_C 	C 	0.60368	0.77087	0.60368	-0.013
Mof_C 	C 	0.57999	0.82274	0.57999	0.03
Mof_H 	H 	0.5721	0.8403	0.5721	0.056
Mof_C 	C 	0.6168	0.2429	0.1168	0.139
Mof_C 	C 	0.60368	0.27087	0.10368	-0.014
Mof_C 	C 	0.57999	0.32274	0.07999	0.03
Mof_H 	H 	0.5721	0.3403	0.0721	0.055
Mof_C 	C 	0.8832	0.2571	0.1168	0.139
Mof_C 	C 	0.89632	0.22913	0.10368	-0.013
Mof_C 	C 	0.92001	0.17726	0.07999	0.03
Mof_H 	H 	0.9279	0.1597	0.0721	0.055
Mof_C 	C 	0.8832	0.7571	0.6168	0.139
Mof_C 	C 	0.89632	0.72913	0.60368	-0.013
Mof_C 	C 	0.92001	0.67726	0.57999	0.03
Mof_H 	H 	0.9279	0.6597	0.5721	0.056
Mof_C 	C 	0.3832	0.2571	0.6168	0.139
Mof_C 	C 	0.39632	0.22913	0.60368	-0.013
Mof_C 	C 	0.42001	0.17726	0.57999	0.03
Mof_H 	H 	0.4279	0.1597	0.5721	0.055
Mof_C 	C 	0.3832	0.7571	0.1168	0.139
Mof_C 	C 	0.39632	0.72913	0.10368	-0.014
Mof_C 	C 	0.42001	0.67726	0.07999	0.03
Mof_H 	H 	0.4279	0.6597	0.0721	0.055
Mof_C 	C 	0.2571	0.1168	0.8832	0.139
Mof_C 	C 	0.22913	0.10368	0.89632	-0.013
Mof_C 	C 	0.17726	0.07999	0.92001	0.03
Mof_H 	H 	0.1597	0.0721	0.9279	0.055
Mof_C 	C 	0.2571	0.6168	0.3832	0.139
Mof_C 	C 	0.22913	0.60368	0.39632	-0.013
Mof_C 	C 	0.17726	0.57999	0.42001	0.03
Mof_H 	H 	0.1597	0.5721	0.4279	0.055
Mof_C 	C 	0.7571	0.1168	0.3832	0.139
Mof_C 	C 	0.72913	0.10368	0.39632	-0.014
Mof_C 	C 	0.67726	0.07999	0.42001	0.03
Mof_H 	H 	0.6597	0.0721	0.4279	0.055
Mof_C 	C 	0.7571	0.6168	0.8832	0.139
Mof_C 	C 	0.72913	0.60368	0.89632	-0.013
Mof_C 	C 	0.67726	0.57999	0.92001	0.03
Mof_H 	H 	0.6597	0.5721	0.9279	0.056
Mof_C 	C 	0.7429	0.1168	0.1168	0.139
Mof_C 	C 	0.77087	0.10368	0.10368	-0.014
Mof_C 	C 	0.82274	0.07999	0.07999	0.031
Mof_H 	H 	0.8403	0.0721	0.0721	0.055
Mof_C 	C 	0.7429	0.6168	0.6168	0.139
Mof_C 	C 	0.77087	0.60368	0.60368	-0.013
Mof_C 	C 	0.82274	0.57999	0.57999	0.03
Mof_H 	H 	0.8403	0.5721	0.5721	0.056
Mof_C 	C 	0.2429	0.1168	0.6168	0.139
Mof_C 	C 	0.27087	0.10368	0.60368	-0.014
Mof_C 	C 	0.32274	0.07999	0.57999	0.03
Mof_H 	H 	0.3403	0.0721	0.5721	0.055
Mof_C 	C 	0.2429	0.6168	0.1168	0.139
Mof_C 	C 	0.27087	0.60368	0.10368	-0.014
Mof_C 	C 	0.32274	0.57999	0.07999	0.03
Mof_H 	H 	0.3403	0.5721	0.0721	0.055
Mof_C 	C 	0.7429	0.8832	0.8832	0.139
Mof_C 	C 	0.77087	0.89632	0.89632	-0.012
Mof_C 	C 	0.82274	0.92001	0.92001	0.029
Mof_H 	H 	0.8403	0.9279	0.9279	0.057
Mof_C 	C 	0.7429	0.3832	0.3832	0.139
Mof_C 	C 	0.77087	0.39632	0.39632	-0.013
Mof_C 	C 	0.82274	0.42001	0.42001	0.03
Mof_H 	H 	0.8403	0.4279	0.4279	0.056
Mof_C 	C 	0.2429	0.8832	0.3832	0.139
Mof_C 	C 	0.27087	0.89632	0.39632	-0.013
Mof_C 	C 	0.32274	0.92001	0.42001	0.03
Mof_H 	H 	0.3403	0.9279	0.4279	0.056
Mof_C 	C 	0.2429	0.3832	0.8832	0.139
Mof_C 	C 	0.27087	0.39632	0.89632	-0.013
Mof_C 	C 	0.32274	0.42001	0.92001	0.03
Mof_H 	H 	0.3403	0.4279	0.9279	0.056
Mof_C 	C 	0.2571	0.8832	0.1168	0.139
Mof_C 	C 	0.22913	0.89632	0.10368	-0.013
Mof_C 	C 	0.17726	0.92001	0.07999	0.03
Mof_H 	H 	0.1597	0.9279	0.0721	0.055
Mof_C 	C 	0.2571	0.3832	0.6168	0.139
Mof_C 	C 	0.22913	0.39632	0.60368	-0.013
Mof_C 	C 	0.17726	0.42001	0.57999	0.03
Mof_H 	H 	0.1597	0.4279	0.5721	0.055
Mof_C 	C 	0.7571	0.8832	0.6168	0.139
Mof_C 	C 	0.72913	0.89632	0.60368	-0.013
Mof_C 	C 	0.67726	0.92001	0.57999	0.03
Mof_H 	H 	0.6597	0.9279	0.5721	0.056
Mof_C 	C 	0.7571	0.3832	0.1168	0.139
Mof_C 	C 	0.72913	0.39632	0.10368	-0.014
Mof_C 	C 	0.67726	0.42001	0.07999	0.03
Mof_H 	H 	0.6597	0.4279	0.0721	0.055
Mof_C 	C 	0.1168	0.1168	0.7429	0.139
Mof_C 	C 	0.10368	0.10368	0.77087	-0.014
Mof_C 	C 	0.07999	0.07999	0.82274	0.031
Mof_H 	H 	0.0721	0.0721	0.8403	0.055
Mof_C 	C 	0.1168	0.6168	0.2429	0.139
Mof_C 	C 	0.10368	0.60368	0.27087	-0.014
Mof_C 	C 	0.07999	0.57999	0.32274	0.03
Mof_H 	H 	0.0721	0.5721	0.3403	0.055
Mof_C 	C 	0.6168	0.1168	0.2429	0.139
Mof_C 	C 	0.60368	0.10368	0.27087	-0.014
Mof_C 	C 	0.57999	0.07999	0.32274	0.03
Mof_H 	H 	0.5721	0.0721	0.3403	0.055
Mof_C 	C 	0.6168	0.6168	0.7429	0.139
Mof_C 	C 	0.60368	0.60368	0.77087	-0.013
Mof_C 	C 	0.57999	0.57999	0.82274	0.03
Mof_H 	H 	0.5721	0.5721	0.8403	0.056
Mof_C 	C 	0.1168	0.8832	0.2571	0.139
Mof_C 	C 	0.10368	0.89632	0.22913	-0.013
Mof_C 	C 	0.07999	0.92001	0.17726	0.03
Mof_H 	H 	0.0721	0.9279	0.1597	0.055
Mof_C 	C 	0.1168	0.3832	0.7571	0.139
Mof_C 	C 	0.10368	0.39632	0.72913	-0.014
Mof_C 	C 	0.07999	0.42001	0.67726	0.03
Mof_H 	H 	0.0721	0.4279	0.6597	0.055
Mof_C 	C 	0.6168	0.8832	0.7571	0.139
Mof_C 	C 	0.60368	0.89632	0.72913	-0.013
Mof_C 	C 	0.57999	0.92001	0.67726	0.03
Mof_H 	H 	0.5721	0.9279	0.6597	0.056
Mof_C 	C 	0.6168	0.3832	0.2571	0.139
Mof_C 	C 	0.60368	0.39632	0.22913	-0.013
Mof_C 	C 	0.57999	0.42001	0.17726	0.03
Mof_H 	H 	0.5721	0.4279	0.1597	0.055
Mof_C 	C 	0.8832	0.1168	0.2571	0.139
Mof_C 	C 	0.89632	0.10368	0.22913	-0.013
Mof_C 	C 	0.92001	0.07999	0.17726	0.03
Mof_H 	H 	0.9279	0.0721	0.1597	0.055
Mof_C 	C 	0.8832	0.6168	0.7571	0.139
Mof_C 	C 	0.89632	0.60368	0.72913	-0.013
Mof_C 	C 	0.92001	0.57999	0.67726	0.03
Mof_H 	H 	0.9279	0.5721	0.6597	0.056
Mof_C 	C 	0.3832	0.1168	0.7571	0.139
Mof_C 	C 	0.39632	0.10368	0.72913	-0.014
Mof_C 	C 	0.42001	0.07999	0.67726	0.03
Mof_H 	H 	0.4279	0.0721	0.6597	0.055
Mof_C 	C 	0.3832	0.6168	0.2571	0.139
Mof_C 	C 	0.39632	0.60368	0.22913	-0.013
Mof_C 	C 	0.42001	0.57999	0.17726	0.03
Mof_H 	H 	0.4279	0.5721	0.1597	0.055
Mof_C 	C 	0.8832	0.8832	0.7429	0.139
Mof_C 	C 	0.89632	0.89632	0.77087	-0.012
Mof_C 	C 	0.92001	0.92001	0.82274	0.029
Mof_H 	H 	0.9279	0.9279	0.8403	0.057
Mof_C 	C 	0.8832	0.3832	0.2429	0.139
Mof_C 	C 	0.89632	0.39632	0.27087	-0.013
Mof_C 	C 	0.92001	0.42001	0.32274	0.03
Mof_H 	H 	0.9279	0.4279	0.3403	0.056
Mof_C 	C 	0.3832	0.8832	0.2429	0.139
Mof_C 	C 	0.39632	0.89632	0.27087	-0.013
Mof_C 	C 	0.42001	0.92001	0.32274	0.03
Mof_H 	H 	0.4279	0.9279	0.3403	0.056
Mof_C 	C 	0.3832	0.3832	0.7429	0.139
Mof_C 	C 	0.39632	0.39632	0.77087	-0.013
Mof_C 	C 	0.42001	0.42001	0.82274	0.03
Mof_H 	H 	0.4279	0.4279	0.8403	0.056
_end
