data_functionalizedCrystal
_audit_creation_method	'EQeq! by Chris Wilmer'
_symmetry_space_group_name_H-M	'P1'
_symmetry_Int_Tables_number	1
_symmetry_cell_setting	triclinic
loop_
_symmetry_equiv_pos_as_xyz
  x,y,z
_cell_length_a	7.951
_cell_length_b	16.819
_cell_length_c	15.189
_cell_angle_alpha	90
_cell_angle_beta	104.29
_cell_angle_gamma	90
loop_
_atom_site_label
_atom_site_type_symbol
_atom_site_fract_x
_atom_site_fract_y
_atom_site_fract_z
_atom_site_charge
Mof_Mo	Mo	0.18692	0.66443	0.33848	0.952
Mof_Mn	Mn	0.3283	0.5605	0.69242	0.589
Mof_N 	N 	0.2785	0.5934	0.5494	-0.148
Mof_N 	N 	0.4809	0.5347	0.3085	-0.155
Mof_N 	N 	0.1083	0.4764	0.6702	-0.148
Mof_N 	N 	0.1947	0.8316	0.2291	-0.148
Mof_N 	N 	0.9953	0.629	0.1243	-0.153
Mof_N 	N 	0.5374	0.7647	0.4412	-0.162
Mof_N 	N 	0.9381	0.7789	0.4299	-0.151
Mof_C 	C 	0.2487	0.6178	0.4762	-0.126
Mof_C 	C 	0.3757	0.5792	0.3154	-0.145
Mof_C 	C 	0.0061	0.4274	0.6648	-0.134
Mof_C 	C 	0.1943	0.7712	0.2646	-0.156
Mof_C 	C 	0.064	0.6409	0.199	-0.156
Mof_C 	C 	0.4145	0.7301	0.4079	-0.14
Mof_C 	C 	0.02	0.739	0.3949	-0.148
Mof_Mn	Mn	0.77584	0.67735	0.01643	0.527
Mof_Mo	Mo	0.81308	0.16443	0.16152	0.95
Mof_Mn	Mn	0.6717	0.0605	0.80758	0.586
Mof_N 	N 	0.7215	0.0934	0.9506	-0.15
Mof_N 	N 	0.5191	0.0347	0.1915	-0.154
Mof_N 	N 	0.8917	0.9764	0.8298	-0.147
Mof_N 	N 	0.8053	0.3316	0.2709	-0.148
Mof_N 	N 	0.0047	0.129	0.3757	-0.152
Mof_N 	N 	0.4626	0.2647	0.0588	-0.161
Mof_N 	N 	0.0619	0.2789	0.0701	-0.149
Mof_C 	C 	0.7513	0.1178	0.0238	-0.123
Mof_C 	C 	0.6243	0.0792	0.1846	-0.144
Mof_C 	C 	0.9939	0.9274	0.8352	-0.131
Mof_C 	C 	0.8057	0.2712	0.2354	-0.156
Mof_C 	C 	0.936	0.1409	0.301	-0.158
Mof_C 	C 	0.5855	0.2301	0.0921	-0.139
Mof_C 	C 	0.98	0.239	0.1051	-0.149
Mof_Mn	Mn	0.22416	0.17735	0.48357	0.528
Mof_Mo	Mo	0.81308	0.33557	0.66152	0.951
Mof_Mn	Mn	0.6717	0.4395	0.30758	0.588
Mof_N 	N 	0.7215	0.4066	0.4506	-0.148
Mof_N 	N 	0.5191	0.4653	0.6915	-0.155
Mof_N 	N 	0.8917	0.5236	0.3298	-0.148
Mof_N 	N 	0.8053	0.1684	0.7709	-0.148
Mof_N 	N 	0.0047	0.371	0.8757	-0.153
Mof_N 	N 	0.4626	0.2353	0.5588	-0.162
Mof_N 	N 	0.0619	0.2211	0.5701	-0.151
Mof_C 	C 	0.7513	0.3822	0.5238	-0.126
Mof_C 	C 	0.6243	0.4208	0.6846	-0.145
Mof_C 	C 	0.9939	0.5726	0.3352	-0.134
Mof_C 	C 	0.8057	0.2288	0.7354	-0.156
Mof_C 	C 	0.936	0.3591	0.801	-0.156
Mof_C 	C 	0.5855	0.2699	0.5921	-0.14
Mof_C 	C 	0.98	0.261	0.6051	-0.148
Mof_Mn	Mn	0.22416	0.32265	0.98357	0.527
Mof_Mo	Mo	0.18692	0.83557	0.83848	0.95
Mof_Mn	Mn	0.3283	0.9395	0.19242	0.586
Mof_N 	N 	0.2785	0.9066	0.0494	-0.15
Mof_N 	N 	0.4809	0.9653	0.8085	-0.154
Mof_N 	N 	0.1083	0.0236	0.1702	-0.147
Mof_N 	N 	0.1947	0.6684	0.7291	-0.148
Mof_N 	N 	0.9953	0.871	0.6243	-0.152
Mof_N 	N 	0.5374	0.7353	0.9412	-0.161
Mof_N 	N 	0.9381	0.7211	0.9299	-0.149
Mof_C 	C 	0.2487	0.8822	0.9762	-0.123
Mof_C 	C 	0.3757	0.9208	0.8154	-0.144
Mof_C 	C 	0.0061	0.0726	0.1648	-0.131
Mof_C 	C 	0.1943	0.7288	0.7646	-0.156
Mof_C 	C 	0.064	0.8591	0.699	-0.158
Mof_C 	C 	0.4145	0.7699	0.9079	-0.139
Mof_C 	C 	0.02	0.761	0.8949	-0.149
Mof_Mn	Mn	0.77584	0.82265	0.51643	0.528
_end
