data_functionalizedCrystal
_audit_creation_method	'EQeq! by Chris Wilmer'
_symmetry_space_group_name_H-M	'P1'
_symmetry_Int_Tables_number	1
_symmetry_cell_setting	triclinic
loop_
_symmetry_equiv_pos_as_xyz
  x,y,z
_cell_length_a	17.353
_cell_length_b	30.453
_cell_length_c	17.511
_cell_angle_alpha	90
_cell_angle_beta	119.547
_cell_angle_gamma	90
loop_
_atom_site_label
_atom_site_type_symbol
_atom_site_fract_x
_atom_site_fract_y
_atom_site_fract_z
_atom_site_charge
Mof_C 	C 	0.8417	0.8436	0.2325	0.422
Mof_C 	C 	0.8961	0.7734	0.2938	0.071
Mof_H 	H 	0.9379	0.789	0.3422	0.008
Mof_C 	C 	0.8356	0.794	0.2237	-0.183
Mof_C 	C 	0.6066	0.84416	0.2643	0.528
Mof_C 	C 	0.6034	0.7961	0.2628	-0.187
Mof_C 	C 	0.6202	0.77204	0.3416	0.048
Mof_H 	H 	0.6309	0.7873	0.3919	0.01
Mof_C 	C 	0.3398	0.84576	0.2358	0.623
Mof_C 	C 	0.4074	0.7742	0.305	0.097
Mof_H 	H 	0.4524	0.789	0.3525	-0.004
Mof_C 	C 	0.3468	0.79662	0.2408	-0.232
Mof_C 	C 	0.1043	0.84481	0.2671	0.568
Mof_C 	C 	0.1069	0.7952	0.2696	-0.229
Mof_C 	C 	0.1169	0.7717	0.3477	0.076
Mof_H 	H 	0.1231	0.7872	0.3962	-0.001
Mof_C 	C 	0.8477	0.9911	0.1905	0.326
Mof_C 	C 	0.7715	0.01525	0.1195	0.007
Mof_C 	C 	0.7807	0.05059	0.0747	-0.128
Mof_H 	H 	0.8364	0.0627	0.0934	0.059
Mof_C 	C 	0.708	0.0677	0.0031	0.095
Mof_H 	H 	0.7137	0.0899	0.9696	-0.033
Mof_C 	C 	0.6243	0.0506	0.9819	-0.224
Mof_C 	C 	0.62281	0.0186	0.039	0.132
Mof_H 	H 	0.5681	0.0113	0.0332	-0.032
Mof_C 	C 	0.5404	0.066	0.9043	0.502
Mof_C 	C 	0.8644	0.9376	0.4022	0.511
Mof_C 	C 	0.8536	0.95329	0.4778	-0.203
Mof_C 	C 	0.7943	0.9346	0.5003	0.069
Mof_H 	H 	0.7582	0.9113	0.4683	-0.016
Mof_C 	C 	0.7906	0.9521	0.5735	-0.093
Mof_H 	H 	0.7525	0.9398	0.5907	0.046
Mof_C 	C 	0.8437	0.9876	0.6196	-0.031
Mof_C 	C 	0.9121	0.98715	0.5353	0.128
Mof_H 	H 	0.9572	0.9973	0.5258	-0.03
Mof_C 	C 	0.8362	0.0092	0.6897	0.338
Mof_C 	C 	0.6617	0.9903	0.3108	0.351
Mof_C 	C 	0.6551	0.0158	0.3815	-0.003
Mof_C 	C 	0.7036	0.0508	0.4215	-0.127
Mof_H 	H 	0.7384	0.0644	0.4016	0.063
Mof_C 	C 	0.7003	0.0666	0.4964	0.107
Mof_H 	H 	0.7386	0.089	0.5297	-0.026
Mof_C 	C 	0.6426	0.0499	0.5206	-0.249
Mof_C 	C 	0.5896	0.01393	0.4682	0.133
Mof_H 	H 	0.5478	0.0025	0.4812	-0.035
Mof_C 	C 	0.6391	0.06597	0.5971	0.545
Mof_C 	C 	0.3484	0.98716	0.1883	0.371
Mof_C 	C 	0.2704	0.0114	0.1223	-0.006
Mof_C 	C 	0.2793	0.05042	0.0755	-0.15
Mof_H 	H 	0.3335	0.0641	0.0937	0.068
Mof_C 	C 	0.2039	0.06462	0.005	0.15
Mof_H 	H 	0.2086	0.0876	0.9724	-0.043
Mof_C 	C 	0.1218	0.048	0.978	-0.267
Mof_C 	C 	0.1218	0.01342	0.0327	0.146
Mof_H 	H 	0.0675	0.0039	0.0252	-0.036
Mof_C 	C 	0.0388	0.0631	0.9066	0.506
Mof_N 	N 	0.6951	0.99767	0.1012	-0.27
Mof_N 	N 	0.9048	0.00368	0.5979	-0.25
Mof_N 	N 	0.5958	0.99532	0.401	-0.27
Mof_N 	N 	0.195	0.99393	0.0941	-0.263
Mof_Nd	Nd	0.99433	0.92855	0.30436	2.431
Mof_Nd	Nd	0.6902	0.92928	0.19402	2.527
Mof_Nd	Nd	0.49622	0.9281	0.30522	2.52
Mof_Nd	Nd	0.18938	0.92687	0.19359	2.6
Mof_O 	O 	0.9065	0.85998	0.3025	-0.498
Mof_O 	O 	0.7839	0.86543	0.1703	-0.493
Mof_O 	O 	0.6321	0.86363	0.2157	-0.603
Mof_O 	O 	0.5917	0.86374	0.3186	-0.559
Mof_O 	O 	0.4116	0.86314	0.2843	-0.635
Mof_O 	O 	0.2686	0.86092	0.1846	-0.62
Mof_O 	O 	0.125	0.86143	0.2166	-0.61
Mof_O 	O 	0.0928	0.86592	0.3224	-0.581
Mof_O 	O 	0.9294	0.00261	0.2167	-0.425
Mof_O 	O 	0.8331	0.95479	0.2156	-0.681
Mof_O 	O 	0.5412	0.08757	0.8448	-0.576
Mof_O 	O 	0.4655	0.0558	0.9016	-0.58
Mof_O 	O 	0.9283	0.9489	0.3963	-0.589
Mof_O 	O 	0.7969	0.91466	0.3459	-0.555
Mof_O 	O 	0.8804	0.04692	0.7159	-0.653
Mof_O 	O 	0.7875	0.99879	0.7198	-0.451
Mof_O 	O 	0.7119	0.00392	0.2829	-0.436
Mof_O 	O 	0.6209	0.95479	0.2826	-0.681
Mof_O 	O 	0.7008	0.08621	0.6554	-0.596
Mof_O 	O 	0.571	0.05349	0.6041	-0.579
Mof_O 	O 	0.4254	0.00036	0.2109	-0.455
Mof_O 	O 	0.3308	0.95298	0.2146	-0.699
Mof_O 	O 	0.0472	0.0867	0.8476	-0.547
Mof_O 	O 	0.9666	0.05487	0.9025	-0.6
Mof_C 	C 	0.2755	0.77073	0.1708	0.148
Mof_C 	C 	0.7748	0.7709	0.1484	0.133
Mof_C 	C 	0.5985	0.77249	0.1887	0.107
Mof_C 	C 	0.1021	0.772	0.2048	0.164
Mof_H 	H 	0.2287	0.7854	0.1247	-0.021
Mof_H 	H 	0.7345	0.7862	0.0986	-0.021
Mof_H 	H 	0.5953	0.7878	0.1412	-0.01
Mof_H 	H 	0.0984	0.7866	0.1565	-0.025
Mof_N 	N 	0.7748	0.7291	0.1484	-0.19
Mof_N 	N 	0.5985	0.72751	0.1887	-0.164
Mof_N 	N 	0.2755	0.72927	0.1708	-0.183
Mof_N 	N 	0.1021	0.728	0.2048	-0.184
Mof_C 	C 	0.1583	0.3436	0.7675	0.423
Mof_C 	C 	0.1039	0.2734	0.7062	0.072
Mof_H 	H 	0.0621	0.289	0.6578	0.009
Mof_C 	C 	0.1644	0.294	0.7763	-0.182
Mof_C 	C 	0.3934	0.34416	0.7357	0.529
Mof_C 	C 	0.3966	0.2961	0.7372	-0.187
Mof_C 	C 	0.3798	0.27204	0.6584	0.048
Mof_H 	H 	0.3691	0.2873	0.6081	0.01
Mof_C 	C 	0.6602	0.34576	0.7642	0.623
Mof_C 	C 	0.5926	0.2742	0.695	0.097
Mof_H 	H 	0.5476	0.289	0.6475	-0.004
Mof_C 	C 	0.6532	0.29662	0.7592	-0.232
Mof_C 	C 	0.8957	0.34481	0.7329	0.569
Mof_C 	C 	0.8931	0.2952	0.7304	-0.229
Mof_C 	C 	0.8831	0.2717	0.6523	0.077
Mof_H 	H 	0.8769	0.2872	0.6038	-0.001
Mof_C 	C 	0.1523	0.4911	0.8095	0.335
Mof_C 	C 	0.2285	0.51525	0.8805	-0.003
Mof_C 	C 	0.2193	0.55059	0.9253	-0.118
Mof_H 	H 	0.1636	0.5627	0.9066	0.055
Mof_C 	C 	0.292	0.5677	0.9969	0.083
Mof_H 	H 	0.2863	0.5899	0.0304	-0.029
Mof_C 	C 	0.3757	0.5506	0.0181	-0.215
Mof_C 	C 	0.37719	0.5186	0.961	0.124
Mof_H 	H 	0.4319	0.5113	0.9668	-0.03
Mof_C 	C 	0.4596	0.566	0.0957	0.5
Mof_C 	C 	0.1356	0.4376	0.5978	0.512
Mof_C 	C 	0.1464	0.45329	0.5222	-0.204
Mof_C 	C 	0.2057	0.4346	0.4997	0.071
Mof_H 	H 	0.2418	0.4113	0.5317	-0.016
Mof_C 	C 	0.2094	0.4521	0.4265	-0.095
Mof_H 	H 	0.2475	0.4398	0.4093	0.047
Mof_C 	C 	0.1563	0.4876	0.3804	-0.027
Mof_C 	C 	0.0879	0.48715	0.4647	0.131
Mof_H 	H 	0.0428	0.4973	0.4742	-0.031
Mof_C 	C 	0.1638	0.5092	0.3103	0.335
Mof_C 	C 	0.3383	0.4903	0.6892	0.356
Mof_C 	C 	0.3449	0.5158	0.6185	-0.007
Mof_C 	C 	0.2964	0.5508	0.5785	-0.124
Mof_H 	H 	0.2616	0.5644	0.5984	0.061
Mof_C 	C 	0.2997	0.5666	0.5036	0.106
Mof_H 	H 	0.2614	0.589	0.4703	-0.026
Mof_C 	C 	0.3574	0.5499	0.4794	-0.248
Mof_C 	C 	0.4104	0.51393	0.5318	0.132
Mof_H 	H 	0.4522	0.5025	0.5188	-0.034
Mof_C 	C 	0.3609	0.56597	0.4029	0.545
Mof_C 	C 	0.6516	0.48716	0.8117	0.373
Mof_C 	C 	0.7296	0.5114	0.8777	-0.007
Mof_C 	C 	0.7207	0.55042	0.9245	-0.145
Mof_H 	H 	0.6665	0.5641	0.9063	0.067
Mof_C 	C 	0.7961	0.56462	0.995	0.142
Mof_H 	H 	0.7914	0.5876	0.0276	-0.04
Mof_C 	C 	0.8782	0.548	0.022	-0.261
Mof_C 	C 	0.8782	0.51342	0.9673	0.143
Mof_H 	H 	0.9325	0.5039	0.9748	-0.035
Mof_C 	C 	0.9612	0.5631	0.0934	0.507
Mof_N 	N 	0.3049	0.49767	0.8988	-0.265
Mof_N 	N 	0.0952	0.50368	0.4021	-0.253
Mof_N 	N 	0.4042	0.49532	0.599	-0.269
Mof_N 	N 	0.805	0.49393	0.9059	-0.262
Mof_Nd	Nd	0.00567	0.42855	0.69564	2.437
Mof_Nd	Nd	0.3098	0.42928	0.80598	2.529
Mof_Nd	Nd	0.50378	0.4281	0.69478	2.521
Mof_Nd	Nd	0.81062	0.42687	0.80641	2.6
Mof_O 	O 	0.0935	0.35998	0.6975	-0.498
Mof_O 	O 	0.2161	0.36543	0.8297	-0.493
Mof_O 	O 	0.3679	0.36363	0.7843	-0.603
Mof_O 	O 	0.4083	0.36374	0.6814	-0.559
Mof_O 	O 	0.5884	0.36314	0.7157	-0.635
Mof_O 	O 	0.7314	0.36092	0.8154	-0.62
Mof_O 	O 	0.875	0.36143	0.7834	-0.61
Mof_O 	O 	0.9072	0.36592	0.6776	-0.583
Mof_O 	O 	0.0706	0.50261	0.7833	-0.43
Mof_O 	O 	0.1669	0.45479	0.7844	-0.683
Mof_O 	O 	0.4588	0.58757	0.1552	-0.575
Mof_O 	O 	0.5345	0.5558	0.0984	-0.579
Mof_O 	O 	0.0717	0.4489	0.6037	-0.59
Mof_O 	O 	0.2031	0.41466	0.6541	-0.556
Mof_O 	O 	0.1196	0.54692	0.2841	-0.653
Mof_O 	O 	0.2125	0.49879	0.2802	-0.449
Mof_O 	O 	0.2881	0.50392	0.7171	-0.439
Mof_O 	O 	0.3791	0.45479	0.7174	-0.682
Mof_O 	O 	0.2992	0.58621	0.3446	-0.596
Mof_O 	O 	0.429	0.55349	0.3959	-0.579
Mof_O 	O 	0.5746	0.50036	0.7891	-0.456
Mof_O 	O 	0.6692	0.45298	0.7854	-0.699
Mof_O 	O 	0.9528	0.5867	0.1524	-0.547
Mof_O 	O 	0.0334	0.55487	0.0975	-0.601
Mof_C 	C 	0.7245	0.27073	0.8292	0.148
Mof_C 	C 	0.2252	0.2709	0.8516	0.133
Mof_C 	C 	0.4015	0.27249	0.8113	0.107
Mof_C 	C 	0.8979	0.272	0.7952	0.164
Mof_H 	H 	0.7713	0.2854	0.8753	-0.021
Mof_H 	H 	0.2655	0.2862	0.9014	-0.021
Mof_H 	H 	0.4047	0.2878	0.8588	-0.01
Mof_H 	H 	0.9016	0.2866	0.8435	-0.025
Mof_N 	N 	0.2252	0.2291	0.8516	-0.19
Mof_N 	N 	0.4015	0.22751	0.8113	-0.164
Mof_N 	N 	0.7245	0.22927	0.8292	-0.183
Mof_N 	N 	0.8979	0.228	0.7952	-0.184
Mof_C 	C 	0.1583	0.1564	0.7675	0.364
Mof_C 	C 	0.1039	0.2266	0.7062	-0.099
Mof_H 	H 	0.0621	0.211	0.6578	0.067
Mof_C 	C 	0.1644	0.206	0.7763	-0.004
Mof_C 	C 	0.3934	0.15584	0.7357	0.485
Mof_C 	C 	0.3966	0.2039	0.7372	-0.065
Mof_C 	C 	0.3798	0.22796	0.6584	-0.056
Mof_H 	H 	0.3691	0.2127	0.6081	0.045
Mof_C 	C 	0.6602	0.15424	0.7642	0.562
Mof_C 	C 	0.5926	0.2258	0.695	-0.057
Mof_H 	H 	0.5476	0.211	0.6475	0.048
Mof_C 	C 	0.6532	0.20338	0.7592	-0.065
Mof_C 	C 	0.8957	0.15519	0.7329	0.498
Mof_C 	C 	0.8931	0.2048	0.7304	-0.034
Mof_C 	C 	0.8831	0.2283	0.6523	-0.091
Mof_H 	H 	0.8769	0.2128	0.6038	0.056
Mof_C 	C 	0.1523	0.0089	0.8095	0.326
Mof_C 	C 	0.2285	0.98475	0.8805	0.007
Mof_C 	C 	0.2193	0.94941	0.9253	-0.128
Mof_H 	H 	0.1636	0.9373	0.9066	0.059
Mof_C 	C 	0.292	0.9323	0.9969	0.095
Mof_H 	H 	0.2863	0.9101	0.0304	-0.033
Mof_C 	C 	0.3757	0.9494	0.0181	-0.224
Mof_C 	C 	0.37719	0.9814	0.961	0.132
Mof_H 	H 	0.4319	0.9887	0.9668	-0.032
Mof_C 	C 	0.4596	0.934	0.0957	0.503
Mof_C 	C 	0.1356	0.0624	0.5978	0.51
Mof_C 	C 	0.1464	0.04671	0.5222	-0.203
Mof_C 	C 	0.2057	0.0654	0.4997	0.069
Mof_H 	H 	0.2418	0.0887	0.5317	-0.016
Mof_C 	C 	0.2094	0.0479	0.4265	-0.093
Mof_H 	H 	0.2475	0.0602	0.4093	0.046
Mof_C 	C 	0.1563	0.0124	0.3804	-0.031
Mof_C 	C 	0.0879	0.01285	0.4647	0.128
Mof_H 	H 	0.0428	0.0027	0.4742	-0.03
Mof_C 	C 	0.1638	0.9908	0.3103	0.338
Mof_C 	C 	0.3383	0.0097	0.6892	0.351
Mof_C 	C 	0.3449	0.9842	0.6185	-0.003
Mof_C 	C 	0.2964	0.9492	0.5785	-0.127
Mof_H 	H 	0.2616	0.9356	0.5984	0.063
Mof_C 	C 	0.2997	0.9334	0.5036	0.108
Mof_H 	H 	0.2614	0.911	0.4703	-0.026
Mof_C 	C 	0.3574	0.9501	0.4794	-0.249
Mof_C 	C 	0.4104	0.98607	0.5318	0.133
Mof_H 	H 	0.4522	0.9975	0.5188	-0.035
Mof_C 	C 	0.3609	0.93403	0.4029	0.546
Mof_C 	C 	0.6516	0.01284	0.8117	0.371
Mof_C 	C 	0.7296	0.9886	0.8777	-0.005
Mof_C 	C 	0.7207	0.94958	0.9245	-0.15
Mof_H 	H 	0.6665	0.9359	0.9063	0.069
Mof_C 	C 	0.7961	0.93538	0.995	0.15
Mof_H 	H 	0.7914	0.9124	0.0276	-0.042
Mof_C 	C 	0.8782	0.952	0.022	-0.267
Mof_C 	C 	0.8782	0.98658	0.9673	0.146
Mof_H 	H 	0.9325	0.9961	0.9748	-0.036
Mof_C 	C 	0.9612	0.9369	0.0934	0.507
Mof_N 	N 	0.3049	0.00233	0.8988	-0.27
Mof_N 	N 	0.0952	0.99632	0.4021	-0.251
Mof_N 	N 	0.4042	0.00468	0.599	-0.27
Mof_N 	N 	0.805	0.00607	0.9059	-0.262
Mof_Nd	Nd	0.00567	0.07145	0.69564	2.423
Mof_Nd	Nd	0.3098	0.07072	0.80598	2.518
Mof_Nd	Nd	0.50378	0.0719	0.69478	2.512
Mof_Nd	Nd	0.81062	0.07313	0.80641	2.588
Mof_O 	O 	0.0935	0.14002	0.6975	-0.485
Mof_O 	O 	0.2161	0.13457	0.8297	-0.478
Mof_O 	O 	0.3679	0.13637	0.7843	-0.59
Mof_O 	O 	0.4083	0.13626	0.6814	-0.549
Mof_O 	O 	0.5884	0.13686	0.7157	-0.62
Mof_O 	O 	0.7314	0.13908	0.8154	-0.603
Mof_O 	O 	0.875	0.13857	0.7834	-0.591
Mof_O 	O 	0.9072	0.13408	0.6776	-0.564
Mof_O 	O 	0.0706	0.99739	0.7833	-0.424
Mof_O 	O 	0.1669	0.04521	0.7844	-0.679
Mof_O 	O 	0.4588	0.91243	0.1552	-0.577
Mof_O 	O 	0.5345	0.9442	0.0984	-0.581
Mof_O 	O 	0.0717	0.0511	0.6037	-0.589
Mof_O 	O 	0.2031	0.08534	0.6541	-0.554
Mof_O 	O 	0.1196	0.95308	0.2841	-0.654
Mof_O 	O 	0.2125	0.00121	0.2802	-0.452
Mof_O 	O 	0.2881	0.99608	0.7171	-0.436
Mof_O 	O 	0.3791	0.04521	0.7174	-0.68
Mof_O 	O 	0.2992	0.91379	0.3446	-0.597
Mof_O 	O 	0.429	0.94651	0.3959	-0.58
Mof_O 	O 	0.5746	0.99964	0.7891	-0.454
Mof_O 	O 	0.6692	0.04702	0.7854	-0.697
Mof_O 	O 	0.9528	0.9133	0.1524	-0.548
Mof_O 	O 	0.0334	0.94513	0.0975	-0.601
Mof_H 	H 	0.7713	0.2146	0.8753	0.1
Mof_H 	H 	0.2655	0.2138	0.9014	0.096
Mof_H 	H 	0.4047	0.2122	0.8588	0.094
Mof_H 	H 	0.9016	0.2134	0.8435	0.101
Mof_C 	C 	0.8417	0.6564	0.2325	0.364
Mof_C 	C 	0.8961	0.7266	0.2938	-0.099
Mof_H 	H 	0.9379	0.711	0.3422	0.067
Mof_C 	C 	0.8356	0.706	0.2237	-0.004
Mof_C 	C 	0.6066	0.65584	0.2643	0.485
Mof_C 	C 	0.6034	0.7039	0.2628	-0.065
Mof_C 	C 	0.6202	0.72796	0.3416	-0.056
Mof_H 	H 	0.6309	0.7127	0.3919	0.045
Mof_C 	C 	0.3398	0.65424	0.2358	0.562
Mof_C 	C 	0.4074	0.7258	0.305	-0.057
Mof_H 	H 	0.4524	0.711	0.3525	0.048
Mof_C 	C 	0.3468	0.70338	0.2408	-0.065
Mof_C 	C 	0.1043	0.65519	0.2671	0.498
Mof_C 	C 	0.1069	0.7048	0.2696	-0.034
Mof_C 	C 	0.1169	0.7283	0.3477	-0.091
Mof_H 	H 	0.1231	0.7128	0.3962	0.055
Mof_C 	C 	0.8477	0.5089	0.1905	0.334
Mof_C 	C 	0.7715	0.48475	0.1195	-0.003
Mof_C 	C 	0.7807	0.44941	0.0747	-0.118
Mof_H 	H 	0.8364	0.4373	0.0934	0.056
Mof_C 	C 	0.708	0.4323	0.0031	0.083
Mof_H 	H 	0.7137	0.4101	0.9696	-0.028
Mof_C 	C 	0.6243	0.4494	0.9819	-0.215
Mof_C 	C 	0.62281	0.4814	0.039	0.124
Mof_H 	H 	0.5681	0.4887	0.0332	-0.03
Mof_C 	C 	0.5404	0.434	0.9043	0.501
Mof_C 	C 	0.8644	0.5624	0.4022	0.511
Mof_C 	C 	0.8536	0.54671	0.4778	-0.204
Mof_C 	C 	0.7943	0.5654	0.5003	0.071
Mof_H 	H 	0.7582	0.5887	0.4683	-0.017
Mof_C 	C 	0.7906	0.5479	0.5735	-0.095
Mof_H 	H 	0.7525	0.5602	0.5907	0.047
Mof_C 	C 	0.8437	0.5124	0.6196	-0.027
Mof_C 	C 	0.9121	0.51285	0.5353	0.131
Mof_H 	H 	0.9572	0.5027	0.5258	-0.031
Mof_C 	C 	0.8362	0.4908	0.6897	0.335
Mof_C 	C 	0.6617	0.5097	0.3108	0.355
Mof_C 	C 	0.6551	0.4842	0.3815	-0.007
Mof_C 	C 	0.7036	0.4492	0.4215	-0.124
Mof_H 	H 	0.7384	0.4356	0.4016	0.062
Mof_C 	C 	0.7003	0.4334	0.4964	0.106
Mof_H 	H 	0.7386	0.411	0.5297	-0.025
Mof_C 	C 	0.6426	0.4501	0.5206	-0.248
Mof_C 	C 	0.5896	0.48607	0.4682	0.132
Mof_H 	H 	0.5478	0.4975	0.4812	-0.034
Mof_C 	C 	0.6391	0.43403	0.5971	0.546
Mof_C 	C 	0.3484	0.51284	0.1883	0.373
Mof_C 	C 	0.2704	0.4886	0.1223	-0.007
Mof_C 	C 	0.2793	0.44958	0.0755	-0.145
Mof_H 	H 	0.3335	0.4359	0.0937	0.067
Mof_C 	C 	0.2039	0.43538	0.005	0.142
Mof_H 	H 	0.2086	0.4124	0.9724	-0.039
Mof_C 	C 	0.1218	0.452	0.978	-0.261
Mof_C 	C 	0.1218	0.48658	0.0327	0.143
Mof_H 	H 	0.0675	0.4961	0.0252	-0.035
Mof_C 	C 	0.0388	0.4369	0.9066	0.508
Mof_N 	N 	0.6951	0.50233	0.1012	-0.265
Mof_N 	N 	0.9048	0.49632	0.5979	-0.254
Mof_N 	N 	0.5958	0.50468	0.401	-0.268
Mof_N 	N 	0.195	0.50607	0.0941	-0.262
Mof_Nd	Nd	0.99433	0.57145	0.30436	2.429
Mof_Nd	Nd	0.6902	0.57072	0.19402	2.521
Mof_Nd	Nd	0.49622	0.5719	0.30522	2.512
Mof_Nd	Nd	0.18938	0.57313	0.19359	2.587
Mof_O 	O 	0.9065	0.64002	0.3025	-0.486
Mof_O 	O 	0.7839	0.63457	0.1703	-0.478
Mof_O 	O 	0.6321	0.63637	0.2157	-0.591
Mof_O 	O 	0.5917	0.63626	0.3186	-0.549
Mof_O 	O 	0.4116	0.63686	0.2843	-0.62
Mof_O 	O 	0.2686	0.63908	0.1846	-0.603
Mof_O 	O 	0.125	0.63857	0.2166	-0.591
Mof_O 	O 	0.0928	0.63408	0.3224	-0.565
Mof_O 	O 	0.9294	0.49739	0.2167	-0.429
Mof_O 	O 	0.8331	0.54521	0.2156	-0.682
Mof_O 	O 	0.5412	0.41243	0.8448	-0.576
Mof_O 	O 	0.4655	0.4442	0.9016	-0.58
Mof_O 	O 	0.9283	0.5511	0.3963	-0.589
Mof_O 	O 	0.7969	0.58534	0.3459	-0.555
Mof_O 	O 	0.8804	0.45308	0.7159	-0.655
Mof_O 	O 	0.7875	0.50121	0.7198	-0.45
Mof_O 	O 	0.7119	0.49608	0.2829	-0.438
Mof_O 	O 	0.6209	0.54521	0.2826	-0.681
Mof_O 	O 	0.7008	0.41379	0.6554	-0.597
Mof_O 	O 	0.571	0.44651	0.6041	-0.58
Mof_O 	O 	0.4254	0.49964	0.2109	-0.455
Mof_O 	O 	0.3308	0.54702	0.2146	-0.697
Mof_O 	O 	0.0472	0.4133	0.8476	-0.548
Mof_O 	O 	0.9666	0.44513	0.9025	-0.602
Mof_H 	H 	0.2287	0.7146	0.1247	0.1
Mof_H 	H 	0.7345	0.7138	0.0986	0.096
Mof_H 	H 	0.5953	0.7122	0.1412	0.094
Mof_H 	H 	0.0984	0.7134	0.1565	0.101
_end
