data_functionalizedCrystal
_audit_creation_method	'EQeq! by Chris Wilmer'
_symmetry_space_group_name_H-M	'P1'
_symmetry_Int_Tables_number	1
_symmetry_cell_setting	triclinic
loop_
_symmetry_equiv_pos_as_xyz
  x,y,z
_cell_length_a	8.1331
_cell_length_b	14.6556
_cell_length_c	16.8257
_cell_angle_alpha	90
_cell_angle_beta	90
_cell_angle_gamma	90
loop_
_atom_site_label
_atom_site_type_symbol
_atom_site_fract_x
_atom_site_fract_y
_atom_site_fract_z
_atom_site_charge
Mof_Zn	Zn	0.56025	0.47249	0.95475	1.23
Mof_S 	S 	0.16898	0.13599	0.21019	0.545
Mof_O 	O 	0.4679	0.38246	0.03073	-0.412
Mof_O 	O 	0.4271	0.51686	0.08373	-0.326
Mof_O 	O 	0.0248	0.4278	0.39049	-0.432
Mof_O 	O 	0.2267	0.52606	0.36863	-0.297
Mof_O 	O 	0.1367	0.12159	0.12585	-0.426
Mof_O 	O 	0.3135	0.08923	0.23653	-0.261
Mof_O 	O 	0.0254	0.12088	0.25922	-0.268
Mof_N 	N 	0.7819	0.50984	0.9956	-0.253
Mof_N 	N 	0.9723	0.5556	0.0776	-0.213
Mof_H 	H 	0.0205	0.5778	0.1187	0.167
Mof_C 	C 	0.3333	0.38743	0.15514	-0.085
Mof_C 	C 	0.2891	0.43733	0.22199	0.033
Mof_H 	H 	0.3176	0.4987	0.2251	0.065
Mof_C 	C 	0.2041	0.39773	0.28354	-0.083
Mof_C 	C 	0.1634	0.30549	0.27956	0.043
Mof_H 	H 	0.104	0.2782	0.3204	0.049
Mof_C 	C 	0.2124	0.25449	0.21395	-0.097
Mof_C 	C 	0.2954	0.29475	0.15237	0.047
Mof_H 	H 	0.3266	0.2601	0.1086	0.052
Mof_C 	C 	0.4143	0.4327	0.08611	0.319
Mof_C 	C 	0.152	0.45601	0.353	0.33
Mof_C 	C 	0.8128	0.5482	0.0662	0.139
Mof_H 	H 	0.7328	0.567	0.1022	0.004
Mof_C 	C 	0.9311	0.4944	0.9627	0.001
Mof_H 	H 	0.9467	0.4685	0.9128	0.054
Mof_C 	C 	0.049	0.52	0.0089	0.042
Mof_H 	H 	0.1613	0.5158	0.999	0.037
Mof_Zn	Zn	0.93975	0.52751	0.45475	1.228
Mof_S 	S 	0.33102	0.86401	0.71019	0.544
Mof_O 	O 	0.0321	0.61754	0.53073	-0.413
Mof_O 	O 	0.0729	0.48314	0.58373	-0.326
Mof_O 	O 	0.4752	0.5722	0.89049	-0.433
Mof_O 	O 	0.2733	0.47394	0.86863	-0.297
Mof_O 	O 	0.3633	0.87841	0.62585	-0.426
Mof_O 	O 	0.1865	0.91077	0.73653	-0.261
Mof_O 	O 	0.4746	0.87912	0.75922	-0.269
Mof_N 	N 	0.7181	0.49016	0.4956	-0.253
Mof_N 	N 	0.5277	0.4444	0.5776	-0.213
Mof_H 	H 	0.4795	0.4222	0.6187	0.167
Mof_C 	C 	0.1667	0.61257	0.65514	-0.085
Mof_C 	C 	0.2109	0.56267	0.72199	0.033
Mof_H 	H 	0.1824	0.5013	0.7251	0.066
Mof_C 	C 	0.2959	0.60227	0.78354	-0.083
Mof_C 	C 	0.3366	0.69451	0.77956	0.044
Mof_H 	H 	0.396	0.7218	0.8204	0.049
Mof_C 	C 	0.2876	0.74551	0.71395	-0.097
Mof_C 	C 	0.2046	0.70525	0.65237	0.047
Mof_H 	H 	0.1734	0.7399	0.6086	0.052
Mof_C 	C 	0.0857	0.5673	0.58611	0.319
Mof_C 	C 	0.348	0.54399	0.853	0.33
Mof_C 	C 	0.6872	0.4518	0.5662	0.138
Mof_H 	H 	0.7672	0.433	0.6022	0.003
Mof_C 	C 	0.5689	0.5056	0.4627	0.002
Mof_H 	H 	0.5533	0.5315	0.4128	0.055
Mof_C 	C 	0.451	0.48	0.5089	0.042
Mof_H 	H 	0.3387	0.4842	0.499	0.036
Mof_Zn	Zn	0.43975	0.97249	0.54525	1.228
Mof_S 	S 	0.83102	0.63599	0.28981	0.544
Mof_O 	O 	0.5321	0.88246	0.46927	-0.414
Mof_O 	O 	0.5729	0.01686	0.41627	-0.326
Mof_O 	O 	0.9752	0.9278	0.10951	-0.433
Mof_O 	O 	0.7733	0.02606	0.13137	-0.297
Mof_O 	O 	0.8633	0.62159	0.37415	-0.427
Mof_O 	O 	0.6865	0.58923	0.26347	-0.261
Mof_O 	O 	0.9746	0.62088	0.24078	-0.269
Mof_N 	N 	0.2181	0.00984	0.5044	-0.252
Mof_N 	N 	0.0277	0.0556	0.4224	-0.211
Mof_H 	H 	0.9795	0.0778	0.3813	0.166
Mof_C 	C 	0.6667	0.88743	0.34486	-0.085
Mof_C 	C 	0.7109	0.93733	0.27801	0.033
Mof_H 	H 	0.6824	0.9987	0.2749	0.065
Mof_C 	C 	0.7959	0.89773	0.21646	-0.083
Mof_C 	C 	0.8366	0.80549	0.22044	0.043
Mof_H 	H 	0.896	0.7782	0.1796	0.049
Mof_C 	C 	0.7876	0.75449	0.28605	-0.097
Mof_C 	C 	0.7046	0.79475	0.34763	0.047
Mof_H 	H 	0.6734	0.7601	0.3914	0.052
Mof_C 	C 	0.5857	0.9327	0.41389	0.318
Mof_C 	C 	0.848	0.95601	0.147	0.33
Mof_C 	C 	0.1872	0.0482	0.4338	0.138
Mof_H 	H 	0.2672	0.067	0.3978	0.004
Mof_C 	C 	0.0689	0.9944	0.5373	0.004
Mof_H 	H 	0.0533	0.9685	0.5872	0.054
Mof_C 	C 	0.951	0.02	0.4911	0.039
Mof_H 	H 	0.8387	0.0158	0.501	0.037
Mof_Zn	Zn	0.06025	0.02751	0.04525	1.228
Mof_S 	S 	0.66898	0.36401	0.78981	0.545
Mof_O 	O 	0.9679	0.11754	0.96927	-0.414
Mof_O 	O 	0.9271	0.98314	0.91627	-0.33
Mof_O 	O 	0.5248	0.0722	0.60951	-0.433
Mof_O 	O 	0.7267	0.97394	0.63137	-0.299
Mof_O 	O 	0.6367	0.37841	0.87415	-0.426
Mof_O 	O 	0.8135	0.41077	0.76347	-0.262
Mof_O 	O 	0.5254	0.37912	0.74078	-0.268
Mof_N 	N 	0.2819	0.99016	0.0044	-0.252
Mof_N 	N 	0.4723	0.9444	0.9224	-0.211
Mof_H 	H 	0.5205	0.9222	0.8813	0.167
Mof_C 	C 	0.8333	0.11257	0.84486	-0.087
Mof_C 	C 	0.7891	0.06267	0.77801	0.035
Mof_H 	H 	0.8176	0.0013	0.7749	0.066
Mof_C 	C 	0.7041	0.10227	0.71646	-0.084
Mof_C 	C 	0.6634	0.19451	0.72044	0.045
Mof_H 	H 	0.604	0.2218	0.6796	0.048
Mof_C 	C 	0.7124	0.24551	0.78605	-0.097
Mof_C 	C 	0.7954	0.20525	0.84763	0.048
Mof_H 	H 	0.8266	0.2399	0.8914	0.052
Mof_C 	C 	0.9143	0.0673	0.91389	0.323
Mof_C 	C 	0.652	0.04399	0.647	0.332
Mof_C 	C 	0.3128	0.9518	0.9338	0.136
Mof_H 	H 	0.2328	0.933	0.8978	0.004
Mof_C 	C 	0.4311	0.0056	0.0373	0.008
Mof_H 	H 	0.4467	0.0315	0.0872	0.053
Mof_C 	C 	0.549	0.98	0.9911	0.034
Mof_H 	H 	0.6613	0.9842	0.001	0.04
_end
