data_functionalizedCrystal
_audit_creation_method	'EQeq! by Chris Wilmer'
_symmetry_space_group_name_H-M	'P1'
_symmetry_Int_Tables_number	1
_symmetry_cell_setting	triclinic
loop_
_symmetry_equiv_pos_as_xyz
  x,y,z
_cell_length_a	14.299
_cell_length_b	19.031
_cell_length_c	19.3194
_cell_angle_alpha	119.507
_cell_angle_beta	90
_cell_angle_gamma	90
loop_
_atom_site_label
_atom_site_type_symbol
_atom_site_fract_x
_atom_site_fract_y
_atom_site_fract_z
_atom_site_charge
Mof_Co	Co	0.66661	0.67211	0.7662	1.034
Mof_Co	Co	0.66661	0.82789	0.2338	1.034
Mof_Co	Co	0.83339	0.09409	0.7662	1.033
Mof_Co	Co	0.83339	0.40591	0.2338	1.034
Mof_Co	Co	0.33339	0.32789	0.2338	1.034
Mof_Co	Co	0.33339	0.17211	0.7662	1.034
Mof_Co	Co	0.16661	0.90591	0.2338	1.034
Mof_Co	Co	0.16661	0.59409	0.7662	1.035
Mof_H 	H 	0.7014	0.8188	0.7438	-0.026
Mof_H 	H 	0.6264	0.9315	0.7578	0.042
Mof_H 	H 	0.4649	0.935	0.7588	0.022
Mof_H 	H 	0.4644	0.7152	0.737	-0.024
Mof_H 	H 	0.3142	0.7796	0.7468	0.008
Mof_H 	H 	0.6287	0.6319	0.5934	-0.012
Mof_H 	H 	0.6168	0.5251	0.4672	0.047
Mof_H 	H 	0.6148	0.395	0.4474	0.039
Mof_H 	H 	0.6436	0.4886	0.6826	-0.013
Mof_H 	H 	0.6352	0.3468	0.6064	0.046
Mof_H 	H 	0.8333	0.7359	0.8874	-0.039
Mof_H 	H 	0.8731	0.8453	0.0076	0.046
Mof_H 	H 	0.7668	0.9496	0.0718	0.036
Mof_H 	H 	0.5864	0.8252	0.896	0.003
Mof_H 	H 	0.6033	0.0079	0.0732	0.04
Mof_H 	H 	0.7014	0.6812	0.2562	-0.026
Mof_H 	H 	0.6264	0.5685	0.2422	0.042
Mof_H 	H 	0.4649	0.565	0.2412	0.022
Mof_H 	H 	0.4644	0.7848	0.263	-0.024
Mof_H 	H 	0.3142	0.7204	0.2532	0.008
Mof_H 	H 	0.6287	0.8681	0.4066	-0.012
Mof_H 	H 	0.6168	0.9749	0.5328	0.047
Mof_H 	H 	0.6148	0.105	0.5526	0.039
Mof_H 	H 	0.6436	0.0114	0.3174	-0.013
Mof_H 	H 	0.6352	0.1532	0.3936	0.046
Mof_H 	H 	0.8333	0.7641	0.1126	-0.041
Mof_H 	H 	0.8731	0.6547	0.9924	0.051
Mof_H 	H 	0.7668	0.5504	0.9282	0.032
Mof_H 	H 	0.5864	0.6748	0.104	0.001
Mof_H 	H 	0.6033	0.4921	0.9268	0.036
Mof_H 	H 	0.7986	0.925	0.7438	-0.025
Mof_H 	H 	0.8736	0.8263	0.7578	0.04
Mof_H 	H 	0.0351	0.8238	0.7588	0.023
Mof_H 	H 	0.0356	0.0218	0.737	-0.022
Mof_H 	H 	0.1858	0.9672	0.7468	0.008
Mof_H 	H 	0.8713	0.9615	0.5934	-0.009
Mof_H 	H 	0.8832	0.9421	0.4672	0.044
Mof_H 	H 	0.8852	0.0524	0.4474	0.041
Mof_H 	H 	0.8564	0.194	0.6826	-0.012
Mof_H 	H 	0.8648	0.2596	0.6064	0.047
Mof_H 	H 	0.6667	0.1515	0.8874	-0.043
Mof_H 	H 	0.6269	0.1623	0.0076	0.054
Mof_H 	H 	0.7332	0.1222	0.0718	0.029
Mof_H 	H 	0.9136	0.0708	0.896	-0.001
Mof_H 	H 	0.8967	0.0653	0.0732	0.034
Mof_H 	H 	0.7986	0.575	0.2562	-0.025
Mof_H 	H 	0.8736	0.6737	0.2422	0.041
Mof_H 	H 	0.0351	0.6762	0.2412	0.022
Mof_H 	H 	0.0356	0.4782	0.263	-0.024
Mof_H 	H 	0.1858	0.5328	0.2532	0.008
Mof_H 	H 	0.8713	0.5385	0.4066	-0.012
Mof_H 	H 	0.8832	0.5579	0.5328	0.047
Mof_H 	H 	0.8852	0.4476	0.5526	0.039
Mof_H 	H 	0.8564	0.306	0.3174	-0.013
Mof_H 	H 	0.8648	0.2404	0.3936	0.046
Mof_H 	H 	0.6667	0.3485	0.1126	-0.04
Mof_H 	H 	0.6269	0.3377	0.9924	0.048
Mof_H 	H 	0.7332	0.3778	0.9282	0.035
Mof_H 	H 	0.9136	0.4292	0.104	0.002
Mof_H 	H 	0.8967	0.4347	0.9268	0.037
Mof_H 	H 	0.2986	0.1812	0.2562	-0.026
Mof_H 	H 	0.3736	0.0685	0.2422	0.042
Mof_H 	H 	0.5351	0.065	0.2412	0.022
Mof_H 	H 	0.5356	0.2848	0.263	-0.024
Mof_H 	H 	0.6858	0.2204	0.2532	0.008
Mof_H 	H 	0.3713	0.3681	0.4066	-0.012
Mof_H 	H 	0.3832	0.4749	0.5328	0.047
Mof_H 	H 	0.3852	0.605	0.5526	0.039
Mof_H 	H 	0.3564	0.5114	0.3174	-0.013
Mof_H 	H 	0.3648	0.6532	0.3936	0.046
Mof_H 	H 	0.1667	0.2641	0.1126	-0.039
Mof_H 	H 	0.1269	0.1547	0.9924	0.046
Mof_H 	H 	0.2332	0.0504	0.9282	0.036
Mof_H 	H 	0.4136	0.1748	0.104	0.003
Mof_H 	H 	0.3967	0.9921	0.9268	0.04
Mof_H 	H 	0.2986	0.3188	0.7438	-0.026
Mof_H 	H 	0.3736	0.4315	0.7578	0.042
Mof_H 	H 	0.5351	0.435	0.7588	0.022
Mof_H 	H 	0.5356	0.2152	0.737	-0.024
Mof_H 	H 	0.6858	0.2796	0.7468	0.008
Mof_H 	H 	0.3713	0.1319	0.5934	-0.012
Mof_H 	H 	0.3832	0.0251	0.4672	0.047
Mof_H 	H 	0.3852	0.895	0.4474	0.039
Mof_H 	H 	0.3564	0.9886	0.6826	-0.013
Mof_H 	H 	0.3648	0.8468	0.6064	0.046
Mof_H 	H 	0.1667	0.2359	0.8874	-0.041
Mof_H 	H 	0.1269	0.3453	0.0076	0.051
Mof_H 	H 	0.2332	0.4496	0.0718	0.032
Mof_H 	H 	0.4136	0.3252	0.896	0.001
Mof_H 	H 	0.3967	0.5079	0.0732	0.036
Mof_H 	H 	0.2014	0.075	0.2562	-0.025
Mof_H 	H 	0.1264	0.1737	0.2422	0.04
Mof_H 	H 	0.9649	0.1762	0.2412	0.023
Mof_H 	H 	0.9644	0.9782	0.263	-0.022
Mof_H 	H 	0.8142	0.0328	0.2532	0.008
Mof_H 	H 	0.1287	0.0385	0.4066	-0.009
Mof_H 	H 	0.1168	0.0579	0.5328	0.044
Mof_H 	H 	0.1148	0.9476	0.5526	0.041
Mof_H 	H 	0.1436	0.806	0.3174	-0.012
Mof_H 	H 	0.1352	0.7404	0.3936	0.047
Mof_H 	H 	0.3333	0.8485	0.1126	-0.043
Mof_H 	H 	0.3731	0.8377	0.9924	0.054
Mof_H 	H 	0.2668	0.8778	0.9282	0.029
Mof_H 	H 	0.0864	0.9292	0.104	-0.001
Mof_H 	H 	0.1033	0.9347	0.9268	0.034
Mof_H 	H 	0.2014	0.425	0.7438	-0.025
Mof_H 	H 	0.1264	0.3263	0.7578	0.041
Mof_H 	H 	0.9649	0.3238	0.7588	0.022
Mof_H 	H 	0.9644	0.5218	0.737	-0.024
Mof_H 	H 	0.8142	0.4672	0.7468	0.008
Mof_H 	H 	0.1287	0.4615	0.5934	-0.012
Mof_H 	H 	0.1168	0.4421	0.4672	0.047
Mof_H 	H 	0.1148	0.5524	0.4474	0.039
Mof_H 	H 	0.1436	0.694	0.6826	-0.013
Mof_H 	H 	0.1352	0.7596	0.6064	0.046
Mof_H 	H 	0.3333	0.6515	0.8874	-0.04
Mof_H 	H 	0.3731	0.6623	0.0076	0.048
Mof_H 	H 	0.2668	0.6222	0.0718	0.035
Mof_H 	H 	0.0864	0.5708	0.896	0.002
Mof_H 	H 	0.1033	0.5653	0.0732	0.037
Mof_C 	C 	0.6364	0.82023	0.74586	0.054
Mof_C 	C 	0.5919	0.88806	0.75332	-0.098
Mof_C 	C 	0.4964	0.89007	0.75398	-0.007
Mof_C 	C 	0.4471	0.82431	0.74728	-0.031
Mof_C 	C 	0.4974	0.75933	0.7413	0.021
Mof_C 	C 	0.3453	0.82331	0.74848	0.023
Mof_C 	C 	0.6293	0.57986	0.58632	0.038
Mof_C 	C 	0.6215	0.51597	0.51014	-0.087
Mof_C 	C 	0.6208	0.43906	0.49832	-0.027
Mof_C 	C 	0.6292	0.42803	0.56394	-0.008
Mof_C 	C 	0.6377	0.49598	0.63864	-0.002
Mof_C 	C 	0.629	0.34921	0.55962	0.009
Mof_C 	C 	0.7899	0.77715	0.9135	0.043
Mof_C 	C 	0.8147	0.84296	0.98532	-0.087
Mof_C 	C 	0.7517	0.90485	0.0233	-0.044
Mof_C 	C 	0.6658	0.90013	0.98886	-0.009
Mof_C 	C 	0.6455	0.83037	0.91814	0.004
Mof_C 	C 	0.5968	0.96568	0.02136	-0.006
Mof_C 	C 	0.6364	0.67977	0.25414	0.054
Mof_C 	C 	0.5919	0.61194	0.24668	-0.098
Mof_C 	C 	0.4964	0.60993	0.24602	-0.007
Mof_C 	C 	0.4471	0.67569	0.25272	-0.031
Mof_C 	C 	0.4974	0.74067	0.2587	0.021
Mof_C 	C 	0.3453	0.67669	0.25152	0.023
Mof_C 	C 	0.6293	0.92014	0.41368	0.038
Mof_C 	C 	0.6215	0.98403	0.48986	-0.087
Mof_C 	C 	0.6208	0.06094	0.50168	-0.028
Mof_C 	C 	0.6292	0.07197	0.43606	-0.008
Mof_C 	C 	0.6377	0.00402	0.36136	-0.002
Mof_C 	C 	0.629	0.15079	0.44038	0.009
Mof_C 	C 	0.7899	0.72285	0.0865	0.048
Mof_C 	C 	0.8147	0.65704	0.01468	-0.098
Mof_C 	C 	0.7517	0.59515	0.9767	-0.032
Mof_C 	C 	0.6658	0.59987	0.01114	-0.018
Mof_C 	C 	0.6455	0.66963	0.08186	0.009
Mof_C 	C 	0.5968	0.53432	0.97864	0.003
Mof_C 	C 	0.8636	0.92563	0.74586	0.052
Mof_C 	C 	0.9081	0.86526	0.75332	-0.094
Mof_C 	C 	0.0036	0.86391	0.75398	-0.01
Mof_C 	C 	0.0529	0.92297	0.74728	-0.028
Mof_C 	C 	0.0026	0.98197	0.7413	0.017
Mof_C 	C 	0.1547	0.92517	0.74848	0.022
Mof_C 	C 	0.8707	0.00646	0.58632	0.03
Mof_C 	C 	0.8785	0.99417	0.51014	-0.078
Mof_C 	C 	0.8792	0.05926	0.49832	-0.033
Mof_C 	C 	0.8708	0.13591	0.56394	-0.005
Mof_C 	C 	0.8623	0.14266	0.63864	-0.004
Mof_C 	C 	0.871	0.21041	0.55962	0.008
Mof_C 	C 	0.7101	0.13635	0.9135	0.053
Mof_C 	C 	0.6853	0.14236	0.98532	-0.107
Mof_C 	C 	0.7483	0.11845	0.0233	-0.022
Mof_C 	C 	0.8342	0.08873	0.98886	-0.026
Mof_C 	C 	0.8545	0.08777	0.91814	0.013
Mof_C 	C 	0.9032	0.05568	0.02136	0.009
Mof_C 	C 	0.8636	0.57437	0.25414	0.053
Mof_C 	C 	0.9081	0.63474	0.24668	-0.096
Mof_C 	C 	0.0036	0.63609	0.24602	-0.008
Mof_C 	C 	0.0529	0.57703	0.25272	-0.03
Mof_C 	C 	0.0026	0.51803	0.2587	0.02
Mof_C 	C 	0.1547	0.57483	0.25152	0.023
Mof_C 	C 	0.8707	0.49354	0.41368	0.038
Mof_C 	C 	0.8785	0.50583	0.48986	-0.087
Mof_C 	C 	0.8792	0.44074	0.50168	-0.027
Mof_C 	C 	0.8708	0.36409	0.43606	-0.008
Mof_C 	C 	0.8623	0.35734	0.36136	-0.002
Mof_C 	C 	0.871	0.28959	0.44038	0.009
Mof_C 	C 	0.7101	0.36365	0.0865	0.045
Mof_C 	C 	0.6853	0.35764	0.01468	-0.092
Mof_C 	C 	0.7483	0.38155	0.9767	-0.038
Mof_C 	C 	0.8342	0.41127	0.01114	-0.014
Mof_C 	C 	0.8545	0.41223	0.08186	0.007
Mof_C 	C 	0.9032	0.44432	0.97864	-0
Mof_C 	C 	0.3636	0.17977	0.25414	0.054
Mof_C 	C 	0.4081	0.11194	0.24668	-0.098
Mof_C 	C 	0.5036	0.10993	0.24602	-0.007
Mof_C 	C 	0.5529	0.17569	0.25272	-0.031
Mof_C 	C 	0.5026	0.24067	0.2587	0.021
Mof_C 	C 	0.6547	0.17669	0.25152	0.023
Mof_C 	C 	0.3707	0.42014	0.41368	0.038
Mof_C 	C 	0.3785	0.48403	0.48986	-0.087
Mof_C 	C 	0.3792	0.56094	0.50168	-0.027
Mof_C 	C 	0.3708	0.57197	0.43606	-0.008
Mof_C 	C 	0.3623	0.50402	0.36136	-0.002
Mof_C 	C 	0.371	0.65079	0.44038	0.009
Mof_C 	C 	0.2101	0.22285	0.0865	0.043
Mof_C 	C 	0.1853	0.15704	0.01468	-0.087
Mof_C 	C 	0.2483	0.09515	0.9767	-0.044
Mof_C 	C 	0.3342	0.09987	0.01114	-0.009
Mof_C 	C 	0.3545	0.16963	0.08186	0.004
Mof_C 	C 	0.4032	0.03432	0.97864	-0.006
Mof_C 	C 	0.3636	0.32023	0.74586	0.054
Mof_C 	C 	0.4081	0.38806	0.75332	-0.098
Mof_C 	C 	0.5036	0.39007	0.75398	-0.007
Mof_C 	C 	0.5529	0.32431	0.74728	-0.031
Mof_C 	C 	0.5026	0.25933	0.7413	0.021
Mof_C 	C 	0.6547	0.32331	0.74848	0.023
Mof_C 	C 	0.3707	0.07986	0.58632	0.038
Mof_C 	C 	0.3785	0.01597	0.51014	-0.087
Mof_C 	C 	0.3792	0.93906	0.49832	-0.028
Mof_C 	C 	0.3708	0.92803	0.56394	-0.008
Mof_C 	C 	0.3623	0.99598	0.63864	-0.002
Mof_C 	C 	0.371	0.84921	0.55962	0.009
Mof_C 	C 	0.2101	0.27715	0.9135	0.048
Mof_C 	C 	0.1853	0.34296	0.98532	-0.098
Mof_C 	C 	0.2483	0.40485	0.0233	-0.032
Mof_C 	C 	0.3342	0.40013	0.98886	-0.018
Mof_C 	C 	0.3545	0.33037	0.91814	0.009
Mof_C 	C 	0.4032	0.46568	0.02136	0.003
Mof_C 	C 	0.1364	0.07437	0.25414	0.052
Mof_C 	C 	0.0919	0.13474	0.24668	-0.094
Mof_C 	C 	0.9964	0.13609	0.24602	-0.01
Mof_C 	C 	0.9471	0.07703	0.25272	-0.028
Mof_C 	C 	0.9974	0.01803	0.2587	0.017
Mof_C 	C 	0.8453	0.07483	0.25152	0.022
Mof_C 	C 	0.1293	0.99354	0.41368	0.03
Mof_C 	C 	0.1215	0.00583	0.48986	-0.078
Mof_C 	C 	0.1208	0.94074	0.50168	-0.033
Mof_C 	C 	0.1292	0.86409	0.43606	-0.005
Mof_C 	C 	0.1377	0.85734	0.36136	-0.004
Mof_C 	C 	0.129	0.78959	0.44038	0.008
Mof_C 	C 	0.2899	0.86365	0.0865	0.053
Mof_C 	C 	0.3147	0.85764	0.01468	-0.107
Mof_C 	C 	0.2517	0.88155	0.9767	-0.022
Mof_C 	C 	0.1658	0.91127	0.01114	-0.026
Mof_C 	C 	0.1455	0.91223	0.08186	0.013
Mof_C 	C 	0.0968	0.94432	0.97864	0.009
Mof_C 	C 	0.1364	0.42563	0.74586	0.053
Mof_C 	C 	0.0919	0.36526	0.75332	-0.096
Mof_C 	C 	0.9964	0.36391	0.75398	-0.008
Mof_C 	C 	0.9471	0.42297	0.74728	-0.03
Mof_C 	C 	0.9974	0.48197	0.7413	0.02
Mof_C 	C 	0.8453	0.42517	0.74848	0.023
Mof_C 	C 	0.1293	0.50646	0.58632	0.038
Mof_C 	C 	0.1215	0.49417	0.51014	-0.087
Mof_C 	C 	0.1208	0.55926	0.49832	-0.027
Mof_C 	C 	0.1292	0.63591	0.56394	-0.008
Mof_C 	C 	0.1377	0.64266	0.63864	-0.002
Mof_C 	C 	0.129	0.71041	0.55962	0.009
Mof_C 	C 	0.2899	0.63635	0.9135	0.045
Mof_C 	C 	0.3147	0.64236	0.98532	-0.092
Mof_C 	C 	0.2517	0.61845	0.0233	-0.038
Mof_C 	C 	0.1658	0.58873	0.98886	-0.014
Mof_C 	C 	0.1455	0.58777	0.91814	0.007
Mof_C 	C 	0.0968	0.55568	0.02136	-0
Mof_N 	N 	0.59159	0.75674	0.74144	-0.248
Mof_N 	N 	0.2987	0.88156	0.7518	-0.099
Mof_N 	N 	0.6377	0.57147	0.65076	-0.259
Mof_N 	N 	0.6207	0.28438	0.49474	-0.083
Mof_N 	N 	0.7066	0.77034	0.88032	-0.259
Mof_N 	N 	0.5283	0.96556	0.97942	-0.087
Mof_N 	N 	0.59159	0.74326	0.25856	-0.248
Mof_N 	N 	0.2987	0.61844	0.2482	-0.099
Mof_N 	N 	0.6377	0.92853	0.34924	-0.259
Mof_N 	N 	0.6207	0.21562	0.50526	-0.083
Mof_N 	N 	0.7066	0.72966	0.11968	-0.261
Mof_N 	N 	0.5283	0.53444	0.02058	-0.089
Mof_N 	N 	0.90841	0.9847	0.74144	-0.246
Mof_N 	N 	0.2013	0.87024	0.7518	-0.099
Mof_N 	N 	0.8623	0.07929	0.65076	-0.258
Mof_N 	N 	0.8793	0.21036	0.49474	-0.083
Mof_N 	N 	0.7934	0.10998	0.88032	-0.263
Mof_N 	N 	0.9717	0.01386	0.97942	-0.091
Mof_N 	N 	0.90841	0.5153	0.25856	-0.247
Mof_N 	N 	0.2013	0.62976	0.2482	-0.099
Mof_N 	N 	0.8623	0.42071	0.34924	-0.259
Mof_N 	N 	0.8793	0.28964	0.50526	-0.083
Mof_N 	N 	0.7934	0.39002	0.11968	-0.26
Mof_N 	N 	0.9717	0.48614	0.02058	-0.088
Mof_N 	N 	0.40841	0.24326	0.25856	-0.248
Mof_N 	N 	0.7013	0.11844	0.2482	-0.099
Mof_N 	N 	0.3623	0.42853	0.34924	-0.259
Mof_N 	N 	0.3793	0.71562	0.50526	-0.083
Mof_N 	N 	0.2934	0.22966	0.11968	-0.259
Mof_N 	N 	0.4717	0.03444	0.02058	-0.087
Mof_N 	N 	0.40841	0.25674	0.74144	-0.248
Mof_N 	N 	0.7013	0.38156	0.7518	-0.099
Mof_N 	N 	0.3623	0.07147	0.65076	-0.259
Mof_N 	N 	0.3793	0.78438	0.49474	-0.083
Mof_N 	N 	0.2934	0.27034	0.88032	-0.261
Mof_N 	N 	0.4717	0.46556	0.97942	-0.089
Mof_N 	N 	0.09159	0.0153	0.25856	-0.246
Mof_N 	N 	0.7987	0.12976	0.2482	-0.099
Mof_N 	N 	0.1377	0.92071	0.34924	-0.258
Mof_N 	N 	0.1207	0.78964	0.50526	-0.083
Mof_N 	N 	0.2066	0.89002	0.11968	-0.263
Mof_N 	N 	0.0283	0.98614	0.02058	-0.091
Mof_N 	N 	0.09159	0.4847	0.74144	-0.247
Mof_N 	N 	0.7987	0.37024	0.7518	-0.099
Mof_N 	N 	0.1377	0.57929	0.65076	-0.259
Mof_N 	N 	0.1207	0.71036	0.49474	-0.083
Mof_N 	N 	0.2066	0.60998	0.88032	-0.26
Mof_N 	N 	0.0283	0.51386	0.97942	-0.088
_end
