data_functionalizedCrystal
_audit_creation_method	'EQeq! by Chris Wilmer'
_symmetry_space_group_name_H-M	'P1'
_symmetry_Int_Tables_number	1
_symmetry_cell_setting	triclinic
loop_
_symmetry_equiv_pos_as_xyz
  x,y,z
_cell_length_a	32.2214
_cell_length_b	32.2214
_cell_length_c	35.9941
_cell_angle_alpha	63.4107
_cell_angle_beta	63.4107
_cell_angle_gamma	60
loop_
_atom_site_label
_atom_site_type_symbol
_atom_site_fract_x
_atom_site_fract_y
_atom_site_fract_z
_atom_site_charge
Mof_Mg	Mg	0.54218	0.08577	0.70912	1.461
Mof_Mg	Mg	0.08577	0.66293	0.70912	1.461
Mof_Mg	Mg	0.66293	0.54218	0.70912	1.461
Mof_Mg	Mg	0.95782	0.83707	0.79088	1.461
Mof_Mg	Mg	0.41423	0.95782	0.79088	1.461
Mof_Mg	Mg	0.83707	0.41423	0.79088	1.461
Mof_Mg	Mg	0.45782	0.91423	0.29088	1.461
Mof_Mg	Mg	0.91423	0.33707	0.29088	1.461
Mof_Mg	Mg	0.33707	0.45782	0.29088	1.461
Mof_Mg	Mg	0.04218	0.16293	0.20912	1.461
Mof_Mg	Mg	0.58577	0.04218	0.20912	1.461
Mof_Mg	Mg	0.16293	0.58577	0.20912	1.461
Mof_In	In	0.44076	0.05317	0.79884	2.664
Mof_In	In	0.05317	0.70723	0.79884	2.664
Mof_In	In	0.70723	0.44076	0.79884	2.664
Mof_In	In	0.05924	0.79277	0.70115	2.664
Mof_In	In	0.44684	0.05924	0.70115	2.664
Mof_In	In	0.79277	0.44683	0.70116	2.663
Mof_In	In	0.55924	0.94683	0.20116	2.663
Mof_In	In	0.94684	0.29277	0.20115	2.663
Mof_In	In	0.29277	0.55924	0.20115	2.664
Mof_In	In	0.94076	0.20723	0.29884	2.663
Mof_In	In	0.55316	0.94076	0.29885	2.663
Mof_In	In	0.20723	0.55316	0.29885	2.664
Mof_H 	H 	0.6495	0.7467	0.8158	0.052
Mof_H 	H 	0.7074	0.8603	0.769	0.081
Mof_H 	H 	0.5928	0.8164	0.8482	0.089
Mof_H 	H 	0.6521	0.9426	0.751	-0.009
Mof_H 	H 	0.5382	0.8984	0.8314	0.002
Mof_H 	H 	0.3045	0.7078	0.1413	0.016
Mof_H 	H 	0.3929	0.6393	0.2169	0.014
Mof_H 	H 	0.3413	0.7665	0.1023	0.077
Mof_H 	H 	0.4309	0.6963	0.1773	0.076
Mof_H 	H 	0.4394	0.8521	0.2277	-0.021
Mof_H 	H 	0.5418	0.8894	0.1185	0
Mof_H 	H 	0.429	0.7716	0.1605	0.053
Mof_H 	H 	0.4189	0.823	0.192	0.086
Mof_H 	H 	0.5201	0.863	0.0825	0.091
Mof_H 	H 	0.4146	0.9382	0.0066	0.09
Mof_H 	H 	0.4656	0.8761	0.0519	0.053
Mof_H 	H 	0.4022	0.7952	0.0537	0.052
Mof_H 	H 	0.4397	0.8193	0.9802	0.086
Mof_H 	H 	0.4387	0.867	0.9097	-0.014
Mof_H 	H 	0.4121	0.9866	0.9373	-0.001
Mof_H 	H 	0.7467	0.788	0.8158	0.052
Mof_H 	H 	0.8603	0.6633	0.769	0.081
Mof_H 	H 	0.8164	0.7426	0.8482	0.089
Mof_H 	H 	0.9426	0.6543	0.751	-0.009
Mof_H 	H 	0.8984	0.732	0.8314	0.002
Mof_H 	H 	0.7078	0.8464	0.1413	0.016
Mof_H 	H 	0.6393	0.7509	0.2169	0.014
Mof_H 	H 	0.7665	0.7899	0.1023	0.077
Mof_H 	H 	0.6963	0.6955	0.1773	0.076
Mof_H 	H 	0.8521	0.4808	0.2277	-0.021
Mof_H 	H 	0.8894	0.4503	0.1185	0
Mof_H 	H 	0.7716	0.6389	0.1605	0.054
Mof_H 	H 	0.823	0.5661	0.192	0.086
Mof_H 	H 	0.863	0.5344	0.0825	0.091
Mof_H 	H 	0.9382	0.6406	0.0066	0.09
Mof_H 	H 	0.8761	0.6064	0.0519	0.053
Mof_H 	H 	0.7952	0.7489	0.0537	0.052
Mof_H 	H 	0.8193	0.7608	0.9802	0.086
Mof_H 	H 	0.867	0.7846	0.9097	-0.013
Mof_H 	H 	0.9866	0.664	0.9373	-0.001
Mof_H 	H 	0.788	0.6495	0.8158	0.052
Mof_H 	H 	0.6633	0.7074	0.769	0.081
Mof_H 	H 	0.7426	0.5928	0.8482	0.089
Mof_H 	H 	0.6543	0.6521	0.751	-0.009
Mof_H 	H 	0.732	0.5382	0.8314	0.002
Mof_H 	H 	0.8464	0.3045	0.1413	0.016
Mof_H 	H 	0.7509	0.3929	0.2169	0.014
Mof_H 	H 	0.7899	0.3413	0.1023	0.077
Mof_H 	H 	0.6955	0.4309	0.1773	0.076
Mof_H 	H 	0.4808	0.4394	0.2277	-0.021
Mof_H 	H 	0.4503	0.5418	0.1185	0
Mof_H 	H 	0.6389	0.429	0.1605	0.053
Mof_H 	H 	0.5661	0.4189	0.192	0.086
Mof_H 	H 	0.5344	0.5201	0.0825	0.091
Mof_H 	H 	0.6406	0.4146	0.0066	0.091
Mof_H 	H 	0.6064	0.4656	0.0519	0.053
Mof_H 	H 	0.7489	0.4022	0.0537	0.052
Mof_H 	H 	0.7608	0.4397	0.9802	0.087
Mof_H 	H 	0.7846	0.4387	0.9097	-0.014
Mof_H 	H 	0.664	0.4121	0.9373	-0.001
Mof_H 	H 	0.8505	0.712	0.6842	0.052
Mof_H 	H 	0.7926	0.8367	0.731	0.081
Mof_H 	H 	0.9072	0.7574	0.6518	0.089
Mof_H 	H 	0.8479	0.8457	0.749	-0.009
Mof_H 	H 	0.9618	0.768	0.6686	0.002
Mof_H 	H 	0.1955	0.6536	0.3587	0.016
Mof_H 	H 	0.1071	0.7491	0.2831	0.014
Mof_H 	H 	0.1587	0.7101	0.3977	0.077
Mof_H 	H 	0.0691	0.8045	0.3227	0.076
Mof_H 	H 	0.0606	0.0192	0.2723	-0.02
Mof_H 	H 	0.9582	0.0497	0.3815	0.001
Mof_H 	H 	0.071	0.8611	0.3395	0.054
Mof_H 	H 	0.0811	0.9339	0.308	0.086
Mof_H 	H 	0.9799	0.9656	0.4175	0.09
Mof_H 	H 	0.0854	0.8594	0.4934	0.091
Mof_H 	H 	0.0344	0.8936	0.4481	0.053
Mof_H 	H 	0.0978	0.7511	0.4463	0.052
Mof_H 	H 	0.0603	0.7392	0.5198	0.087
Mof_H 	H 	0.0613	0.7154	0.5903	-0.014
Mof_H 	H 	0.0879	0.836	0.5627	-0.001
Mof_H 	H 	0.7533	0.8505	0.6842	0.052
Mof_H 	H 	0.6397	0.7926	0.731	0.081
Mof_H 	H 	0.6836	0.9072	0.6518	0.089
Mof_H 	H 	0.5574	0.8479	0.749	-0.009
Mof_H 	H 	0.6016	0.9618	0.6686	0.002
Mof_H 	H 	0.7922	0.1955	0.3587	0.016
Mof_H 	H 	0.8607	0.1071	0.2831	0.013
Mof_H 	H 	0.7335	0.1587	0.3977	0.077
Mof_H 	H 	0.8037	0.0691	0.3227	0.076
Mof_H 	H 	0.6479	0.0606	0.2723	-0.021
Mof_H 	H 	0.6106	0.9582	0.3815	0
Mof_H 	H 	0.7284	0.071	0.3395	0.053
Mof_H 	H 	0.677	0.0811	0.308	0.086
Mof_H 	H 	0.637	0.9799	0.4175	0.091
Mof_H 	H 	0.5618	0.0854	0.4934	0.091
Mof_H 	H 	0.6239	0.0344	0.4481	0.053
Mof_H 	H 	0.7048	0.0978	0.4463	0.052
Mof_H 	H 	0.6807	0.0603	0.5198	0.087
Mof_H 	H 	0.633	0.0613	0.5903	-0.014
Mof_H 	H 	0.5134	0.0879	0.5627	-0.001
Mof_H 	H 	0.712	0.7533	0.6842	0.052
Mof_H 	H 	0.8367	0.6397	0.731	0.081
Mof_H 	H 	0.7574	0.6836	0.6518	0.089
Mof_H 	H 	0.8457	0.5574	0.749	-0.009
Mof_H 	H 	0.768	0.6016	0.6686	0.002
Mof_H 	H 	0.6536	0.7922	0.3587	0.016
Mof_H 	H 	0.7491	0.8607	0.2831	0.014
Mof_H 	H 	0.7101	0.7335	0.3977	0.077
Mof_H 	H 	0.8045	0.8037	0.3227	0.076
Mof_H 	H 	0.0192	0.6479	0.2723	-0.021
Mof_H 	H 	0.0497	0.6106	0.3815	0
Mof_H 	H 	0.8611	0.7284	0.3395	0.053
Mof_H 	H 	0.9339	0.677	0.308	0.086
Mof_H 	H 	0.9656	0.637	0.4175	0.091
Mof_H 	H 	0.8594	0.5618	0.4934	0.091
Mof_H 	H 	0.8936	0.6239	0.4481	0.053
Mof_H 	H 	0.7511	0.7048	0.4463	0.052
Mof_H 	H 	0.7392	0.6807	0.5198	0.087
Mof_H 	H 	0.7154	0.633	0.5903	-0.014
Mof_H 	H 	0.836	0.5134	0.5627	-0.001
Mof_H 	H 	0.3505	0.2533	0.1842	0.052
Mof_H 	H 	0.2926	0.1397	0.231	0.081
Mof_H 	H 	0.4072	0.1836	0.1518	0.089
Mof_H 	H 	0.3479	0.0574	0.249	-0.009
Mof_H 	H 	0.4618	0.1016	0.1686	0.002
Mof_H 	H 	0.6955	0.2922	0.8587	0.016
Mof_H 	H 	0.6071	0.3607	0.7831	0.014
Mof_H 	H 	0.6587	0.2335	0.8977	0.077
Mof_H 	H 	0.5691	0.3037	0.8227	0.076
Mof_H 	H 	0.5606	0.1479	0.7723	-0.021
Mof_H 	H 	0.4582	0.1106	0.8815	0
Mof_H 	H 	0.571	0.2284	0.8395	0.053
Mof_H 	H 	0.5811	0.177	0.808	0.086
Mof_H 	H 	0.4799	0.137	0.9175	0.091
Mof_H 	H 	0.5854	0.0618	0.9934	0.09
Mof_H 	H 	0.5344	0.1239	0.9481	0.053
Mof_H 	H 	0.5978	0.2048	0.9463	0.052
Mof_H 	H 	0.5603	0.1807	0.0198	0.086
Mof_H 	H 	0.5613	0.133	0.0903	-0.014
Mof_H 	H 	0.5879	0.0134	0.0627	-0.001
Mof_H 	H 	0.2533	0.212	0.1842	0.052
Mof_H 	H 	0.1397	0.3367	0.231	0.081
Mof_H 	H 	0.1836	0.2574	0.1518	0.089
Mof_H 	H 	0.0574	0.3457	0.249	-0.009
Mof_H 	H 	0.1016	0.268	0.1686	0.002
Mof_H 	H 	0.2922	0.1536	0.8587	0.016
Mof_H 	H 	0.3607	0.2491	0.7831	0.014
Mof_H 	H 	0.2335	0.2101	0.8977	0.077
Mof_H 	H 	0.3037	0.3045	0.8227	0.076
Mof_H 	H 	0.1479	0.5192	0.7723	-0.021
Mof_H 	H 	0.1106	0.5497	0.8815	0
Mof_H 	H 	0.2284	0.3611	0.8395	0.054
Mof_H 	H 	0.177	0.4339	0.808	0.086
Mof_H 	H 	0.137	0.4656	0.9175	0.091
Mof_H 	H 	0.0618	0.3594	0.9934	0.09
Mof_H 	H 	0.1239	0.3936	0.9481	0.053
Mof_H 	H 	0.2048	0.2511	0.9463	0.052
Mof_H 	H 	0.1807	0.2392	0.0198	0.086
Mof_H 	H 	0.133	0.2154	0.0903	-0.013
Mof_H 	H 	0.0134	0.336	0.0627	-0.001
Mof_H 	H 	0.212	0.3505	0.1842	0.052
Mof_H 	H 	0.3367	0.2926	0.231	0.081
Mof_H 	H 	0.2574	0.4072	0.1518	0.089
Mof_H 	H 	0.3457	0.3479	0.249	-0.009
Mof_H 	H 	0.268	0.4618	0.1686	0.002
Mof_H 	H 	0.1536	0.6955	0.8587	0.016
Mof_H 	H 	0.2491	0.6071	0.7831	0.014
Mof_H 	H 	0.2101	0.6587	0.8977	0.077
Mof_H 	H 	0.3045	0.5691	0.8227	0.076
Mof_H 	H 	0.5192	0.5606	0.7723	-0.021
Mof_H 	H 	0.5497	0.4582	0.8815	0
Mof_H 	H 	0.3611	0.571	0.8395	0.053
Mof_H 	H 	0.4339	0.5811	0.808	0.086
Mof_H 	H 	0.4656	0.4799	0.9175	0.091
Mof_H 	H 	0.3594	0.5854	0.9934	0.091
Mof_H 	H 	0.3936	0.5344	0.9481	0.053
Mof_H 	H 	0.2511	0.5978	0.9463	0.052
Mof_H 	H 	0.2392	0.5603	0.0198	0.087
Mof_H 	H 	0.2154	0.5613	0.0903	-0.014
Mof_H 	H 	0.336	0.5879	0.0627	-0.001
Mof_H 	H 	0.1495	0.288	0.3158	0.052
Mof_H 	H 	0.2074	0.1633	0.269	0.081
Mof_H 	H 	0.0928	0.2426	0.3482	0.089
Mof_H 	H 	0.1521	0.1543	0.251	-0.009
Mof_H 	H 	0.0382	0.232	0.3314	0.002
Mof_H 	H 	0.8045	0.3464	0.6413	0.016
Mof_H 	H 	0.8929	0.2509	0.7169	0.014
Mof_H 	H 	0.8413	0.2899	0.6023	0.077
Mof_H 	H 	0.9309	0.1955	0.6773	0.076
Mof_H 	H 	0.9394	0.9808	0.7277	-0.02
Mof_H 	H 	0.0418	0.9503	0.6185	0.001
Mof_H 	H 	0.929	0.1389	0.6605	0.054
Mof_H 	H 	0.9189	0.0661	0.692	0.086
Mof_H 	H 	0.0201	0.0344	0.5825	0.09
Mof_H 	H 	0.9146	0.1406	0.5066	0.091
Mof_H 	H 	0.9656	0.1064	0.5519	0.053
Mof_H 	H 	0.9022	0.2489	0.5537	0.052
Mof_H 	H 	0.9397	0.2608	0.4802	0.087
Mof_H 	H 	0.9387	0.2846	0.4097	-0.014
Mof_H 	H 	0.9121	0.164	0.4373	-0.001
Mof_H 	H 	0.2467	0.1495	0.3158	0.052
Mof_H 	H 	0.3603	0.2074	0.269	0.081
Mof_H 	H 	0.3164	0.0928	0.3482	0.089
Mof_H 	H 	0.4426	0.1521	0.251	-0.009
Mof_H 	H 	0.3984	0.0382	0.3314	0.002
Mof_H 	H 	0.2078	0.8045	0.6413	0.016
Mof_H 	H 	0.1393	0.8929	0.7169	0.013
Mof_H 	H 	0.2665	0.8413	0.6023	0.077
Mof_H 	H 	0.1963	0.9309	0.6773	0.076
Mof_H 	H 	0.3521	0.9394	0.7277	-0.021
Mof_H 	H 	0.3894	0.0418	0.6185	0
Mof_H 	H 	0.2716	0.929	0.6605	0.053
Mof_H 	H 	0.323	0.9189	0.692	0.086
Mof_H 	H 	0.363	0.0201	0.5825	0.091
Mof_H 	H 	0.4382	0.9146	0.5066	0.091
Mof_H 	H 	0.3761	0.9656	0.5519	0.053
Mof_H 	H 	0.2952	0.9022	0.5537	0.052
Mof_H 	H 	0.3193	0.9397	0.4802	0.087
Mof_H 	H 	0.367	0.9387	0.4097	-0.014
Mof_H 	H 	0.4866	0.9121	0.4373	-0.001
Mof_H 	H 	0.288	0.2467	0.3158	0.052
Mof_H 	H 	0.1633	0.3603	0.269	0.081
Mof_H 	H 	0.2426	0.3164	0.3482	0.089
Mof_H 	H 	0.1543	0.4426	0.251	-0.009
Mof_H 	H 	0.232	0.3984	0.3314	0.002
Mof_H 	H 	0.3464	0.2078	0.6413	0.016
Mof_H 	H 	0.2509	0.1393	0.7169	0.014
Mof_H 	H 	0.2899	0.2665	0.6023	0.077
Mof_H 	H 	0.1955	0.1963	0.6773	0.076
Mof_H 	H 	0.9808	0.3521	0.7277	-0.021
Mof_H 	H 	0.9503	0.3894	0.6185	0
Mof_H 	H 	0.1389	0.2716	0.6605	0.053
Mof_H 	H 	0.0661	0.323	0.692	0.086
Mof_H 	H 	0.0344	0.363	0.5825	0.091
Mof_H 	H 	0.1406	0.4382	0.5066	0.091
Mof_H 	H 	0.1064	0.3761	0.5519	0.053
Mof_H 	H 	0.2489	0.2952	0.5537	0.052
Mof_H 	H 	0.2608	0.3193	0.4802	0.087
Mof_H 	H 	0.2846	0.367	0.4097	-0.014
Mof_H 	H 	0.164	0.4866	0.4373	-0.001
Mof_C 	C 	0.69283	0.77677	0.81511	0.005
Mof_C 	C 	0.68172	0.73876	0.81541	-0.074
Mof_C 	C 	0.67311	0.86767	0.78139	-0.165
Mof_C 	C 	0.60521	0.84133	0.82864	-0.177
Mof_C 	C 	0.589	0.92846	0.78901	-0.218
Mof_C 	C 	0.63996	0.91731	0.77056	0.112
Mof_C 	C 	0.5526	0.98081	0.77608	0.544
Mof_C 	C 	0.57233	0.89065	0.81832	0.126
Mof_C 	C 	0.65587	0.82924	0.8101	0.094
Mof_C 	C 	0.32944	0.70555	0.14928	0.077
Mof_C 	C 	0.32227	0.62833	0.20889	0.396
Mof_C 	C 	0.34428	0.66804	0.18336	-0.144
Mof_C 	C 	0.38219	0.66528	0.19353	0.066
Mof_C 	C 	0.35185	0.74102	0.12585	-0.147
Mof_C 	C 	0.411	0.77803	0.111	0.012
Mof_C 	C 	0.38779	0.73978	0.13593	0.074
Mof_C 	C 	0.40462	0.69966	0.17034	-0.14
Mof_C 	C 	0.49034	0.8757	0.17646	-0.219
Mof_C 	C 	0.45516	0.85491	0.19842	0.12
Mof_C 	C 	0.51604	0.87727	0.13308	0.124
Mof_C 	C 	0.50084	0.89659	0.19989	0.536
Mof_C 	C 	0.42967	0.78917	0.13179	-0.08
Mof_C 	C 	0.44275	0.83757	0.17685	-0.179
Mof_C 	C 	0.44999	0.82694	0.10983	0.002
Mof_C 	C 	0.46573	0.84216	0.13311	0.098
Mof_C 	C 	0.5033	0.86117	0.1116	-0.181
Mof_C 	C 	0.41939	0.92354	0.98713	-0.183
Mof_C 	C 	0.43123	0.84178	0.04551	0.001
Mof_C 	C 	0.45138	0.85206	0.06696	-0.075
Mof_C 	C 	0.42233	0.96324	0.87082	0.506
Mof_C 	C 	0.41331	0.80383	0.06807	-0.078
Mof_C 	C 	0.42803	0.8737	0.00081	0.099
Mof_C 	C 	0.43447	0.85295	0.97159	-0.177
Mof_C 	C 	0.43326	0.8817	0.92935	0.11
Mof_C 	C 	0.42398	0.93194	0.91669	-0.207
Mof_C 	C 	0.41762	0.9529	0.94564	0.122
Mof_C 	C 	0.77677	0.71529	0.81511	0.005
Mof_C 	C 	0.73876	0.76411	0.81541	-0.074
Mof_C 	C 	0.86767	0.67783	0.78139	-0.165
Mof_C 	C 	0.84133	0.72482	0.82864	-0.177
Mof_C 	C 	0.92846	0.69353	0.78901	-0.218
Mof_C 	C 	0.91731	0.67217	0.77056	0.112
Mof_C 	C 	0.98081	0.69051	0.77608	0.544
Mof_C 	C 	0.89065	0.7187	0.81832	0.126
Mof_C 	C 	0.82924	0.70479	0.8101	0.094
Mof_C 	C 	0.70555	0.81573	0.14928	0.077
Mof_C 	C 	0.62833	0.84051	0.20889	0.396
Mof_C 	C 	0.66804	0.80432	0.18336	-0.144
Mof_C 	C 	0.66528	0.759	0.19353	0.066
Mof_C 	C 	0.74102	0.78128	0.12585	-0.147
Mof_C 	C 	0.77803	0.69997	0.111	0.012
Mof_C 	C 	0.73978	0.7365	0.13593	0.074
Mof_C 	C 	0.69966	0.72538	0.17034	-0.14
Mof_C 	C 	0.8757	0.4575	0.17646	-0.219
Mof_C 	C 	0.85491	0.49151	0.19842	0.12
Mof_C 	C 	0.87727	0.47361	0.13308	0.124
Mof_C 	C 	0.89659	0.40268	0.19989	0.536
Mof_C 	C 	0.78917	0.64937	0.13179	-0.08
Mof_C 	C 	0.83757	0.54283	0.17685	-0.179
Mof_C 	C 	0.82694	0.61324	0.10983	0.002
Mof_C 	C 	0.84216	0.559	0.13311	0.098
Mof_C 	C 	0.86117	0.52393	0.1116	-0.181
Mof_C 	C 	0.92354	0.66994	0.98713	-0.182
Mof_C 	C 	0.84178	0.68148	0.04551	0.001
Mof_C 	C 	0.85206	0.6296	0.06696	-0.075
Mof_C 	C 	0.96324	0.74361	0.87082	0.506
Mof_C 	C 	0.80383	0.71479	0.06807	-0.078
Mof_C 	C 	0.8737	0.69746	0.00081	0.099
Mof_C 	C 	0.85295	0.74099	0.97159	-0.176
Mof_C 	C 	0.8817	0.75569	0.92935	0.109
Mof_C 	C 	0.93194	0.72739	0.91669	-0.207
Mof_C 	C 	0.9529	0.68384	0.94564	0.122
Mof_C 	C 	0.71529	0.69283	0.81511	0.005
Mof_C 	C 	0.76411	0.68172	0.81541	-0.074
Mof_C 	C 	0.67783	0.67311	0.78139	-0.165
Mof_C 	C 	0.72482	0.60521	0.82864	-0.177
Mof_C 	C 	0.69353	0.589	0.78901	-0.218
Mof_C 	C 	0.67217	0.63996	0.77056	0.112
Mof_C 	C 	0.69051	0.5526	0.77608	0.544
Mof_C 	C 	0.7187	0.57233	0.81832	0.126
Mof_C 	C 	0.70479	0.65587	0.8101	0.094
Mof_C 	C 	0.81573	0.32944	0.14928	0.077
Mof_C 	C 	0.84051	0.32227	0.20889	0.396
Mof_C 	C 	0.80432	0.34428	0.18336	-0.144
Mof_C 	C 	0.759	0.38219	0.19353	0.066
Mof_C 	C 	0.78128	0.35185	0.12585	-0.147
Mof_C 	C 	0.69997	0.411	0.111	0.011
Mof_C 	C 	0.7365	0.38779	0.13593	0.074
Mof_C 	C 	0.72538	0.40462	0.17034	-0.14
Mof_C 	C 	0.4575	0.49034	0.17646	-0.219
Mof_C 	C 	0.49151	0.45516	0.19842	0.12
Mof_C 	C 	0.47361	0.51604	0.13308	0.124
Mof_C 	C 	0.40268	0.50084	0.19989	0.536
Mof_C 	C 	0.64937	0.42967	0.13179	-0.08
Mof_C 	C 	0.54283	0.44275	0.17685	-0.179
Mof_C 	C 	0.61324	0.44999	0.10983	0.002
Mof_C 	C 	0.559	0.46573	0.13311	0.098
Mof_C 	C 	0.52393	0.5033	0.1116	-0.181
Mof_C 	C 	0.66994	0.41939	0.98713	-0.183
Mof_C 	C 	0.68148	0.43123	0.04551	0
Mof_C 	C 	0.6296	0.45138	0.06696	-0.075
Mof_C 	C 	0.74361	0.42233	0.87082	0.506
Mof_C 	C 	0.71479	0.41331	0.06807	-0.078
Mof_C 	C 	0.69746	0.42803	0.00081	0.1
Mof_C 	C 	0.74099	0.43447	0.97159	-0.178
Mof_C 	C 	0.75569	0.43326	0.92935	0.11
Mof_C 	C 	0.72739	0.42398	0.91669	-0.208
Mof_C 	C 	0.68384	0.41762	0.94564	0.123
Mof_C 	C 	0.80717	0.78471	0.68489	0.005
Mof_C 	C 	0.81828	0.73589	0.68459	-0.074
Mof_C 	C 	0.82689	0.82217	0.71861	-0.165
Mof_C 	C 	0.89479	0.77518	0.67136	-0.177
Mof_C 	C 	0.911	0.80647	0.71099	-0.218
Mof_C 	C 	0.86004	0.82783	0.72944	0.112
Mof_C 	C 	0.9474	0.80949	0.72392	0.544
Mof_C 	C 	0.92767	0.7813	0.68168	0.126
Mof_C 	C 	0.84413	0.79521	0.6899	0.094
Mof_C 	C 	0.17056	0.68427	0.35072	0.077
Mof_C 	C 	0.17773	0.65949	0.29111	0.396
Mof_C 	C 	0.15572	0.69568	0.31664	-0.144
Mof_C 	C 	0.11781	0.741	0.30647	0.066
Mof_C 	C 	0.14815	0.71872	0.37415	-0.147
Mof_C 	C 	0.089	0.80003	0.389	0.012
Mof_C 	C 	0.11221	0.7635	0.36407	0.074
Mof_C 	C 	0.09538	0.77462	0.32966	-0.14
Mof_C 	C 	0.00966	0.0425	0.32354	-0.216
Mof_C 	C 	0.04484	0.00849	0.30158	0.119
Mof_C 	C 	0.98396	0.02639	0.36692	0.12
Mof_C 	C 	0.99916	0.09732	0.30011	0.533
Mof_C 	C 	0.07033	0.85063	0.36821	-0.08
Mof_C 	C 	0.05725	0.95717	0.32315	-0.178
Mof_C 	C 	0.05001	0.88676	0.39017	0.003
Mof_C 	C 	0.03427	0.941	0.36689	0.096
Mof_C 	C 	0.9967	0.97607	0.3884	-0.178
Mof_C 	C 	0.08061	0.83006	0.51287	-0.184
Mof_C 	C 	0.06877	0.81852	0.45449	0.001
Mof_C 	C 	0.04862	0.8704	0.43304	-0.076
Mof_C 	C 	0.07767	0.75639	0.62918	0.506
Mof_C 	C 	0.08669	0.78521	0.43193	-0.078
Mof_C 	C 	0.07197	0.80254	0.49919	0.1
Mof_C 	C 	0.06553	0.75901	0.52841	-0.178
Mof_C 	C 	0.06674	0.74431	0.57065	0.11
Mof_C 	C 	0.07602	0.77261	0.58331	-0.208
Mof_C 	C 	0.08238	0.81616	0.55436	0.123
Mof_C 	C 	0.72323	0.80717	0.68489	0.005
Mof_C 	C 	0.76124	0.81828	0.68459	-0.074
Mof_C 	C 	0.63233	0.82689	0.71861	-0.165
Mof_C 	C 	0.65867	0.89479	0.67136	-0.177
Mof_C 	C 	0.57154	0.911	0.71099	-0.218
Mof_C 	C 	0.58269	0.86004	0.72944	0.112
Mof_C 	C 	0.51919	0.9474	0.72392	0.544
Mof_C 	C 	0.60935	0.92767	0.68168	0.126
Mof_C 	C 	0.67076	0.84413	0.6899	0.094
Mof_C 	C 	0.79445	0.17056	0.35072	0.077
Mof_C 	C 	0.87167	0.17773	0.29111	0.396
Mof_C 	C 	0.83196	0.15572	0.31664	-0.144
Mof_C 	C 	0.83472	0.11781	0.30647	0.066
Mof_C 	C 	0.75898	0.14815	0.37415	-0.147
Mof_C 	C 	0.72197	0.089	0.389	0.011
Mof_C 	C 	0.76022	0.11221	0.36407	0.074
Mof_C 	C 	0.80034	0.09538	0.32966	-0.14
Mof_C 	C 	0.6243	0.00966	0.32354	-0.219
Mof_C 	C 	0.64509	0.04484	0.30158	0.121
Mof_C 	C 	0.62273	0.98396	0.36692	0.124
Mof_C 	C 	0.60341	0.99916	0.30011	0.536
Mof_C 	C 	0.71083	0.07033	0.36821	-0.08
Mof_C 	C 	0.66243	0.05725	0.32315	-0.179
Mof_C 	C 	0.67306	0.05001	0.39017	0.002
Mof_C 	C 	0.65784	0.03427	0.36689	0.098
Mof_C 	C 	0.63883	0.9967	0.3884	-0.181
Mof_C 	C 	0.57646	0.08061	0.51287	-0.184
Mof_C 	C 	0.65822	0.06877	0.45449	0
Mof_C 	C 	0.64794	0.04862	0.43304	-0.075
Mof_C 	C 	0.53676	0.07767	0.62918	0.506
Mof_C 	C 	0.69617	0.08669	0.43193	-0.078
Mof_C 	C 	0.6263	0.07197	0.49919	0.1
Mof_C 	C 	0.64705	0.06553	0.52841	-0.178
Mof_C 	C 	0.6183	0.06674	0.57065	0.111
Mof_C 	C 	0.56806	0.07602	0.58331	-0.208
Mof_C 	C 	0.5471	0.08238	0.55436	0.123
Mof_C 	C 	0.78471	0.72323	0.68489	0.005
Mof_C 	C 	0.73589	0.76124	0.68459	-0.074
Mof_C 	C 	0.82217	0.63233	0.71861	-0.165
Mof_C 	C 	0.77518	0.65867	0.67136	-0.177
Mof_C 	C 	0.80647	0.57154	0.71099	-0.218
Mof_C 	C 	0.82783	0.58269	0.72944	0.112
Mof_C 	C 	0.80949	0.51919	0.72392	0.544
Mof_C 	C 	0.7813	0.60935	0.68168	0.126
Mof_C 	C 	0.79521	0.67076	0.6899	0.094
Mof_C 	C 	0.68427	0.79445	0.35072	0.077
Mof_C 	C 	0.65949	0.87167	0.29111	0.396
Mof_C 	C 	0.69568	0.83196	0.31664	-0.144
Mof_C 	C 	0.741	0.83472	0.30647	0.066
Mof_C 	C 	0.71872	0.75898	0.37415	-0.147
Mof_C 	C 	0.80003	0.72197	0.389	0.011
Mof_C 	C 	0.7635	0.76022	0.36407	0.074
Mof_C 	C 	0.77462	0.80034	0.32966	-0.14
Mof_C 	C 	0.0425	0.6243	0.32354	-0.219
Mof_C 	C 	0.00849	0.64509	0.30158	0.12
Mof_C 	C 	0.02639	0.62273	0.36692	0.124
Mof_C 	C 	0.09732	0.60341	0.30011	0.536
Mof_C 	C 	0.85063	0.71083	0.36821	-0.08
Mof_C 	C 	0.95717	0.66243	0.32315	-0.179
Mof_C 	C 	0.88676	0.67306	0.39017	0.002
Mof_C 	C 	0.941	0.65784	0.36689	0.098
Mof_C 	C 	0.97607	0.63883	0.3884	-0.181
Mof_C 	C 	0.83006	0.57646	0.51287	-0.184
Mof_C 	C 	0.81852	0.65822	0.45449	0
Mof_C 	C 	0.8704	0.64794	0.43304	-0.075
Mof_C 	C 	0.75639	0.53676	0.62918	0.506
Mof_C 	C 	0.78521	0.69617	0.43193	-0.078
Mof_C 	C 	0.80254	0.6263	0.49919	0.1
Mof_C 	C 	0.75901	0.64705	0.52841	-0.178
Mof_C 	C 	0.74431	0.6183	0.57065	0.111
Mof_C 	C 	0.77261	0.56806	0.58331	-0.208
Mof_C 	C 	0.81616	0.5471	0.55436	0.123
Mof_C 	C 	0.30717	0.22323	0.18489	0.005
Mof_C 	C 	0.31828	0.26124	0.18459	-0.074
Mof_C 	C 	0.32689	0.13233	0.21861	-0.165
Mof_C 	C 	0.39479	0.15867	0.17136	-0.177
Mof_C 	C 	0.411	0.07154	0.21099	-0.218
Mof_C 	C 	0.36004	0.08269	0.22944	0.112
Mof_C 	C 	0.4474	0.01919	0.22392	0.544
Mof_C 	C 	0.42767	0.10935	0.18168	0.126
Mof_C 	C 	0.34413	0.17076	0.1899	0.094
Mof_C 	C 	0.67056	0.29445	0.85072	0.077
Mof_C 	C 	0.67773	0.37167	0.79111	0.396
Mof_C 	C 	0.65572	0.33196	0.81664	-0.144
Mof_C 	C 	0.61781	0.33472	0.80647	0.066
Mof_C 	C 	0.64815	0.25898	0.87415	-0.147
Mof_C 	C 	0.589	0.22197	0.889	0.012
Mof_C 	C 	0.61221	0.26022	0.86407	0.074
Mof_C 	C 	0.59538	0.30034	0.82966	-0.14
Mof_C 	C 	0.50966	0.1243	0.82354	-0.219
Mof_C 	C 	0.54484	0.14509	0.80158	0.12
Mof_C 	C 	0.48396	0.12273	0.86692	0.124
Mof_C 	C 	0.49916	0.10341	0.80011	0.536
Mof_C 	C 	0.57033	0.21083	0.86821	-0.08
Mof_C 	C 	0.55725	0.16243	0.82315	-0.179
Mof_C 	C 	0.55001	0.17306	0.89017	0.002
Mof_C 	C 	0.53427	0.15784	0.86689	0.098
Mof_C 	C 	0.4967	0.13883	0.8884	-0.181
Mof_C 	C 	0.58061	0.07646	0.01287	-0.183
Mof_C 	C 	0.56877	0.15822	0.95449	0.001
Mof_C 	C 	0.54862	0.14794	0.93304	-0.075
Mof_C 	C 	0.57767	0.03676	0.12918	0.506
Mof_C 	C 	0.58669	0.19617	0.93193	-0.078
Mof_C 	C 	0.57197	0.1263	0.99919	0.099
Mof_C 	C 	0.56553	0.14705	0.02841	-0.177
Mof_C 	C 	0.56674	0.1183	0.07065	0.11
Mof_C 	C 	0.57602	0.06806	0.08331	-0.207
Mof_C 	C 	0.58238	0.0471	0.05436	0.122
Mof_C 	C 	0.22323	0.28471	0.18489	0.005
Mof_C 	C 	0.26124	0.23589	0.18459	-0.074
Mof_C 	C 	0.13233	0.32217	0.21861	-0.165
Mof_C 	C 	0.15867	0.27518	0.17136	-0.177
Mof_C 	C 	0.07154	0.30647	0.21099	-0.218
Mof_C 	C 	0.08269	0.32783	0.22944	0.112
Mof_C 	C 	0.01919	0.30949	0.22392	0.544
Mof_C 	C 	0.10935	0.2813	0.18168	0.126
Mof_C 	C 	0.17076	0.29521	0.1899	0.094
Mof_C 	C 	0.29445	0.18427	0.85072	0.077
Mof_C 	C 	0.37167	0.15949	0.79111	0.396
Mof_C 	C 	0.33196	0.19568	0.81664	-0.144
Mof_C 	C 	0.33472	0.241	0.80647	0.066
Mof_C 	C 	0.25898	0.21872	0.87415	-0.147
Mof_C 	C 	0.22197	0.30003	0.889	0.012
Mof_C 	C 	0.26022	0.2635	0.86407	0.074
Mof_C 	C 	0.30034	0.27462	0.82966	-0.14
Mof_C 	C 	0.1243	0.5425	0.82354	-0.219
Mof_C 	C 	0.14509	0.50849	0.80158	0.12
Mof_C 	C 	0.12273	0.52639	0.86692	0.124
Mof_C 	C 	0.10341	0.59732	0.80011	0.536
Mof_C 	C 	0.21083	0.35063	0.86821	-0.08
Mof_C 	C 	0.16243	0.45717	0.82315	-0.179
Mof_C 	C 	0.17306	0.38676	0.89017	0.002
Mof_C 	C 	0.15784	0.441	0.86689	0.098
Mof_C 	C 	0.13883	0.47607	0.8884	-0.181
Mof_C 	C 	0.07646	0.33006	0.01287	-0.182
Mof_C 	C 	0.15822	0.31852	0.95449	0.001
Mof_C 	C 	0.14794	0.3704	0.93304	-0.075
Mof_C 	C 	0.03676	0.25639	0.12918	0.506
Mof_C 	C 	0.19617	0.28521	0.93193	-0.078
Mof_C 	C 	0.1263	0.30254	0.99919	0.099
Mof_C 	C 	0.14705	0.25901	0.02841	-0.176
Mof_C 	C 	0.1183	0.24431	0.07065	0.11
Mof_C 	C 	0.06806	0.27261	0.08331	-0.207
Mof_C 	C 	0.0471	0.31616	0.05436	0.122
Mof_C 	C 	0.28471	0.30717	0.18489	0.005
Mof_C 	C 	0.23589	0.31828	0.18459	-0.074
Mof_C 	C 	0.32217	0.32689	0.21861	-0.165
Mof_C 	C 	0.27518	0.39479	0.17136	-0.177
Mof_C 	C 	0.30647	0.411	0.21099	-0.218
Mof_C 	C 	0.32783	0.36004	0.22944	0.112
Mof_C 	C 	0.30949	0.4474	0.22392	0.544
Mof_C 	C 	0.2813	0.42767	0.18168	0.126
Mof_C 	C 	0.29521	0.34413	0.1899	0.094
Mof_C 	C 	0.18427	0.67056	0.85072	0.077
Mof_C 	C 	0.15949	0.67773	0.79111	0.396
Mof_C 	C 	0.19568	0.65572	0.81664	-0.144
Mof_C 	C 	0.241	0.61781	0.80647	0.066
Mof_C 	C 	0.21872	0.64815	0.87415	-0.147
Mof_C 	C 	0.30003	0.589	0.889	0.011
Mof_C 	C 	0.2635	0.61221	0.86407	0.074
Mof_C 	C 	0.27462	0.59538	0.82966	-0.14
Mof_C 	C 	0.5425	0.50966	0.82354	-0.219
Mof_C 	C 	0.50849	0.54484	0.80158	0.12
Mof_C 	C 	0.52639	0.48396	0.86692	0.124
Mof_C 	C 	0.59732	0.49916	0.80011	0.536
Mof_C 	C 	0.35063	0.57033	0.86821	-0.08
Mof_C 	C 	0.45717	0.55725	0.82315	-0.179
Mof_C 	C 	0.38676	0.55001	0.89017	0.002
Mof_C 	C 	0.441	0.53427	0.86689	0.098
Mof_C 	C 	0.47607	0.4967	0.8884	-0.181
Mof_C 	C 	0.33006	0.58061	0.01287	-0.184
Mof_C 	C 	0.31852	0.56877	0.95449	0
Mof_C 	C 	0.3704	0.54862	0.93304	-0.075
Mof_C 	C 	0.25639	0.57767	0.12918	0.506
Mof_C 	C 	0.28521	0.58669	0.93193	-0.078
Mof_C 	C 	0.30254	0.57197	0.99919	0.1
Mof_C 	C 	0.25901	0.56553	0.02841	-0.178
Mof_C 	C 	0.24431	0.56674	0.07065	0.11
Mof_C 	C 	0.27261	0.57602	0.08331	-0.208
Mof_C 	C 	0.31616	0.58238	0.05436	0.123
Mof_C 	C 	0.19283	0.21529	0.31511	0.005
Mof_C 	C 	0.18172	0.26411	0.31541	-0.074
Mof_C 	C 	0.17311	0.17783	0.28139	-0.165
Mof_C 	C 	0.10521	0.22482	0.32864	-0.177
Mof_C 	C 	0.089	0.19353	0.28901	-0.218
Mof_C 	C 	0.13996	0.17217	0.27056	0.112
Mof_C 	C 	0.0526	0.19051	0.27608	0.544
Mof_C 	C 	0.07233	0.2187	0.31832	0.126
Mof_C 	C 	0.15587	0.20479	0.3101	0.094
Mof_C 	C 	0.82944	0.31573	0.64928	0.077
Mof_C 	C 	0.82227	0.34051	0.70889	0.396
Mof_C 	C 	0.84428	0.30432	0.68336	-0.144
Mof_C 	C 	0.88219	0.259	0.69353	0.066
Mof_C 	C 	0.85185	0.28128	0.62585	-0.147
Mof_C 	C 	0.911	0.19997	0.611	0.012
Mof_C 	C 	0.88779	0.2365	0.63593	0.074
Mof_C 	C 	0.90462	0.22538	0.67034	-0.14
Mof_C 	C 	0.99034	0.9575	0.67646	-0.216
Mof_C 	C 	0.95516	0.99151	0.69842	0.119
Mof_C 	C 	0.01604	0.97361	0.63308	0.12
Mof_C 	C 	0.00084	0.90268	0.69989	0.534
Mof_C 	C 	0.92967	0.14937	0.63179	-0.08
Mof_C 	C 	0.94275	0.04283	0.67685	-0.178
Mof_C 	C 	0.94999	0.11324	0.60983	0.003
Mof_C 	C 	0.96573	0.059	0.63311	0.096
Mof_C 	C 	0.0033	0.02393	0.6116	-0.178
Mof_C 	C 	0.91939	0.16994	0.48713	-0.184
Mof_C 	C 	0.93123	0.18148	0.54551	0.001
Mof_C 	C 	0.95138	0.1296	0.56696	-0.076
Mof_C 	C 	0.92233	0.24361	0.37082	0.506
Mof_C 	C 	0.91331	0.21479	0.56807	-0.078
Mof_C 	C 	0.92803	0.19746	0.50081	0.1
Mof_C 	C 	0.93447	0.24099	0.47159	-0.178
Mof_C 	C 	0.93326	0.25569	0.42935	0.11
Mof_C 	C 	0.92398	0.22739	0.41669	-0.208
Mof_C 	C 	0.91762	0.18384	0.44564	0.123
Mof_C 	C 	0.27677	0.19283	0.31511	0.005
Mof_C 	C 	0.23876	0.18172	0.31541	-0.074
Mof_C 	C 	0.36767	0.17311	0.28139	-0.165
Mof_C 	C 	0.34133	0.10521	0.32864	-0.177
Mof_C 	C 	0.42846	0.089	0.28901	-0.218
Mof_C 	C 	0.41731	0.13996	0.27056	0.112
Mof_C 	C 	0.48081	0.0526	0.27608	0.544
Mof_C 	C 	0.39065	0.07233	0.31832	0.126
Mof_C 	C 	0.32924	0.15587	0.3101	0.094
Mof_C 	C 	0.20555	0.82944	0.64928	0.077
Mof_C 	C 	0.12833	0.82227	0.70889	0.396
Mof_C 	C 	0.16804	0.84428	0.68336	-0.144
Mof_C 	C 	0.16528	0.88219	0.69353	0.067
Mof_C 	C 	0.24102	0.85185	0.62585	-0.147
Mof_C 	C 	0.27803	0.911	0.611	0.011
Mof_C 	C 	0.23978	0.88779	0.63593	0.074
Mof_C 	C 	0.19966	0.90462	0.67034	-0.14
Mof_C 	C 	0.3757	0.99034	0.67646	-0.219
Mof_C 	C 	0.35491	0.95516	0.69842	0.121
Mof_C 	C 	0.37727	0.01604	0.63308	0.124
Mof_C 	C 	0.39659	0.00084	0.69989	0.536
Mof_C 	C 	0.28917	0.92967	0.63179	-0.08
Mof_C 	C 	0.33757	0.94275	0.67685	-0.179
Mof_C 	C 	0.32694	0.94999	0.60983	0.002
Mof_C 	C 	0.34216	0.96573	0.63311	0.098
Mof_C 	C 	0.36117	0.0033	0.6116	-0.181
Mof_C 	C 	0.42354	0.91939	0.48713	-0.184
Mof_C 	C 	0.34178	0.93123	0.54551	0
Mof_C 	C 	0.35206	0.95138	0.56696	-0.075
Mof_C 	C 	0.46324	0.92233	0.37082	0.506
Mof_C 	C 	0.30383	0.91331	0.56807	-0.078
Mof_C 	C 	0.3737	0.92803	0.50081	0.1
Mof_C 	C 	0.35295	0.93447	0.47159	-0.178
Mof_C 	C 	0.3817	0.93326	0.42935	0.111
Mof_C 	C 	0.43194	0.92398	0.41669	-0.208
Mof_C 	C 	0.4529	0.91762	0.44564	0.123
Mof_C 	C 	0.21529	0.27677	0.31511	0.005
Mof_C 	C 	0.26411	0.23876	0.31541	-0.074
Mof_C 	C 	0.17783	0.36767	0.28139	-0.165
Mof_C 	C 	0.22482	0.34133	0.32864	-0.177
Mof_C 	C 	0.19353	0.42846	0.28901	-0.218
Mof_C 	C 	0.17217	0.41731	0.27056	0.112
Mof_C 	C 	0.19051	0.48081	0.27608	0.544
Mof_C 	C 	0.2187	0.39065	0.31832	0.126
Mof_C 	C 	0.20479	0.32924	0.3101	0.094
Mof_C 	C 	0.31573	0.20555	0.64928	0.077
Mof_C 	C 	0.34051	0.12833	0.70889	0.396
Mof_C 	C 	0.30432	0.16804	0.68336	-0.144
Mof_C 	C 	0.259	0.16528	0.69353	0.066
Mof_C 	C 	0.28128	0.24102	0.62585	-0.147
Mof_C 	C 	0.19997	0.27803	0.611	0.011
Mof_C 	C 	0.2365	0.23978	0.63593	0.074
Mof_C 	C 	0.22538	0.19966	0.67034	-0.14
Mof_C 	C 	0.9575	0.3757	0.67646	-0.219
Mof_C 	C 	0.99151	0.35491	0.69842	0.12
Mof_C 	C 	0.97361	0.37727	0.63308	0.124
Mof_C 	C 	0.90268	0.39659	0.69989	0.536
Mof_C 	C 	0.14937	0.28917	0.63179	-0.08
Mof_C 	C 	0.04283	0.33757	0.67685	-0.179
Mof_C 	C 	0.11324	0.32694	0.60983	0.002
Mof_C 	C 	0.059	0.34216	0.63311	0.098
Mof_C 	C 	0.02393	0.36117	0.6116	-0.181
Mof_C 	C 	0.16994	0.42354	0.48713	-0.184
Mof_C 	C 	0.18148	0.34178	0.54551	0
Mof_C 	C 	0.1296	0.35206	0.56696	-0.075
Mof_C 	C 	0.24361	0.46324	0.37082	0.506
Mof_C 	C 	0.21479	0.30383	0.56807	-0.078
Mof_C 	C 	0.19746	0.3737	0.50081	0.1
Mof_C 	C 	0.24099	0.35295	0.47159	-0.178
Mof_C 	C 	0.25569	0.3817	0.42935	0.111
Mof_C 	C 	0.22739	0.43194	0.41669	-0.208
Mof_C 	C 	0.18384	0.4529	0.44564	0.123
Mof_O 	O 	0.50742	0.98883	0.7996	-0.72
Mof_O 	O 	0.56846	0.01184	0.74359	-0.587
Mof_O 	O 	0.33078	0.59879	0.24375	-0.331
Mof_O 	O 	0.29536	0.62832	0.19065	-0.616
Mof_O 	O 	0.47728	0.89358	0.23802	-0.618
Mof_O 	O 	0.53449	0.91605	0.17679	-0.659
Mof_O 	O 	0.41362	0.00954	0.86218	-0.66
Mof_O 	O 	0.43007	0.94221	0.84538	-0.598
Mof_O 	O 	0.41079	0.03125	0.76996	-0.989
Mof_O 	O 	0.98883	0.70415	0.7996	-0.719
Mof_O 	O 	0.01184	0.67611	0.74359	-0.587
Mof_O 	O 	0.59879	0.82668	0.24375	-0.331
Mof_O 	O 	0.62832	0.88567	0.19065	-0.616
Mof_O 	O 	0.89358	0.39112	0.23802	-0.618
Mof_O 	O 	0.91605	0.37267	0.17679	-0.659
Mof_O 	O 	0.00954	0.71466	0.86218	-0.661
Mof_O 	O 	0.94221	0.78234	0.84538	-0.597
Mof_O 	O 	0.03125	0.788	0.76996	-0.989
Mof_O 	O 	0.70415	0.50742	0.7996	-0.72
Mof_O 	O 	0.67611	0.56846	0.74359	-0.587
Mof_O 	O 	0.82668	0.33078	0.24375	-0.331
Mof_O 	O 	0.88567	0.29536	0.19065	-0.616
Mof_O 	O 	0.39112	0.47728	0.23802	-0.618
Mof_O 	O 	0.37267	0.53449	0.17679	-0.659
Mof_O 	O 	0.71466	0.41362	0.86218	-0.66
Mof_O 	O 	0.78234	0.43007	0.84538	-0.598
Mof_O 	O 	0.788	0.41079	0.76996	-0.989
Mof_O 	O 	0.99258	0.79585	0.7004	-0.719
Mof_O 	O 	0.93154	0.82389	0.75641	-0.587
Mof_O 	O 	0.16922	0.67332	0.25625	-0.331
Mof_O 	O 	0.20464	0.61433	0.30935	-0.616
Mof_O 	O 	0.02272	0.10888	0.26198	-0.617
Mof_O 	O 	0.96551	0.12733	0.32321	-0.659
Mof_O 	O 	0.08638	0.78534	0.63782	-0.661
Mof_O 	O 	0.06993	0.71766	0.65462	-0.598
Mof_O 	O 	0.08921	0.712	0.73004	-0.989
Mof_O 	O 	0.51117	0.99258	0.7004	-0.72
Mof_O 	O 	0.48816	0.93154	0.75641	-0.587
Mof_O 	O 	0.90121	0.16922	0.25625	-0.331
Mof_O 	O 	0.87168	0.20464	0.30935	-0.616
Mof_O 	O 	0.60642	0.02272	0.26198	-0.618
Mof_O 	O 	0.58395	0.96551	0.32321	-0.66
Mof_O 	O 	0.49046	0.08638	0.63782	-0.661
Mof_O 	O 	0.55779	0.06993	0.65462	-0.598
Mof_O 	O 	0.46875	0.08921	0.73004	-0.989
Mof_O 	O 	0.79585	0.51117	0.7004	-0.72
Mof_O 	O 	0.82389	0.48816	0.75641	-0.587
Mof_O 	O 	0.67332	0.90121	0.25625	-0.331
Mof_O 	O 	0.61433	0.87168	0.30935	-0.616
Mof_O 	O 	0.10888	0.60642	0.26198	-0.618
Mof_O 	O 	0.12733	0.58395	0.32321	-0.659
Mof_O 	O 	0.78534	0.49046	0.63782	-0.66
Mof_O 	O 	0.71766	0.55779	0.65462	-0.598
Mof_O 	O 	0.712	0.46875	0.73004	-0.989
Mof_O 	O 	0.49258	0.01117	0.2004	-0.72
Mof_O 	O 	0.43154	0.98816	0.25641	-0.587
Mof_O 	O 	0.66922	0.40121	0.75625	-0.331
Mof_O 	O 	0.70464	0.37168	0.80935	-0.616
Mof_O 	O 	0.52272	0.10642	0.76198	-0.618
Mof_O 	O 	0.46551	0.08395	0.82321	-0.659
Mof_O 	O 	0.58638	0.99046	0.13782	-0.66
Mof_O 	O 	0.56993	0.05779	0.15462	-0.598
Mof_O 	O 	0.58921	0.96875	0.23004	-0.989
Mof_O 	O 	0.01117	0.29585	0.2004	-0.72
Mof_O 	O 	0.98816	0.32389	0.25641	-0.587
Mof_O 	O 	0.40121	0.17332	0.75625	-0.331
Mof_O 	O 	0.37168	0.11433	0.80935	-0.616
Mof_O 	O 	0.10642	0.60888	0.76198	-0.618
Mof_O 	O 	0.08395	0.62733	0.82321	-0.659
Mof_O 	O 	0.99046	0.28534	0.13782	-0.661
Mof_O 	O 	0.05779	0.21766	0.15462	-0.598
Mof_O 	O 	0.96875	0.212	0.23004	-0.989
Mof_O 	O 	0.29585	0.49258	0.2004	-0.72
Mof_O 	O 	0.32389	0.43154	0.25641	-0.587
Mof_O 	O 	0.17332	0.66922	0.75625	-0.331
Mof_O 	O 	0.11433	0.70464	0.80935	-0.616
Mof_O 	O 	0.60888	0.52272	0.76198	-0.618
Mof_O 	O 	0.62733	0.46551	0.82321	-0.659
Mof_O 	O 	0.28534	0.58638	0.13782	-0.661
Mof_O 	O 	0.21766	0.56993	0.15462	-0.598
Mof_O 	O 	0.212	0.58921	0.23004	-0.989
Mof_O 	O 	0.00742	0.20415	0.2996	-0.719
Mof_O 	O 	0.06846	0.17611	0.24359	-0.587
Mof_O 	O 	0.83078	0.32668	0.74375	-0.331
Mof_O 	O 	0.79536	0.38567	0.69065	-0.616
Mof_O 	O 	0.97728	0.89112	0.73802	-0.617
Mof_O 	O 	0.03449	0.87267	0.67679	-0.659
Mof_O 	O 	0.91362	0.21466	0.36218	-0.66
Mof_O 	O 	0.93007	0.28234	0.34538	-0.598
Mof_O 	O 	0.91079	0.288	0.26996	-0.989
Mof_O 	O 	0.48883	0.00742	0.2996	-0.72
Mof_O 	O 	0.51184	0.06846	0.24359	-0.587
Mof_O 	O 	0.09879	0.83078	0.74375	-0.331
Mof_O 	O 	0.12832	0.79536	0.69065	-0.616
Mof_O 	O 	0.39358	0.97728	0.73802	-0.618
Mof_O 	O 	0.41605	0.03449	0.67679	-0.66
Mof_O 	O 	0.50954	0.91362	0.36218	-0.661
Mof_O 	O 	0.44221	0.93007	0.34538	-0.598
Mof_O 	O 	0.53125	0.91079	0.26996	-0.989
Mof_O 	O 	0.20415	0.48883	0.2996	-0.72
Mof_O 	O 	0.17611	0.51184	0.24359	-0.587
Mof_O 	O 	0.32668	0.09879	0.74375	-0.331
Mof_O 	O 	0.38567	0.12832	0.69065	-0.616
Mof_O 	O 	0.89112	0.39358	0.73802	-0.618
Mof_O 	O 	0.87267	0.41605	0.67679	-0.659
Mof_O 	O 	0.21466	0.50954	0.36218	-0.661
Mof_O 	O 	0.28234	0.44221	0.34538	-0.598
Mof_O 	O 	0.288	0.53125	0.26996	-0.989
_end
