data_functionalizedCrystal
_audit_creation_method	'EQeq! by Chris Wilmer'
_symmetry_space_group_name_H-M	'P1'
_symmetry_Int_Tables_number	1
_symmetry_cell_setting	triclinic
loop_
_symmetry_equiv_pos_as_xyz
  x,y,z
_cell_length_a	26.1377
_cell_length_b	6.7464
_cell_length_c	25.0235
_cell_angle_alpha	90
_cell_angle_beta	105.916
_cell_angle_gamma	90
loop_
_atom_site_label
_atom_site_type_symbol
_atom_site_fract_x
_atom_site_fract_y
_atom_site_fract_z
_atom_site_charge
Mof_Zn	Zn	0.93497	0.88555	0.96576	1.22
Mof_O 	O 	0.91944	0.0527	0.90059	-0.456
Mof_O 	O 	0.91544	0.7677	0.85589	-0.319
Mof_O 	O 	0.99658	0.7518	0.52194	-0.505
Mof_O 	O 	0.92966	0.9461	0.52834	-0.483
Mof_C 	C 	0.91441	0.0659	0.8052	-0.086
Mof_C 	C 	0.90256	0.2649	0.80158	0.018
Mof_H 	H 	0.8932	0.3272	0.8307	0.045
Mof_C 	C 	0.90442	0.3733	0.75554	-0.088
Mof_H 	H 	0.8957	0.5072	0.7538	0.07
Mof_C 	C 	0.91904	0.287	0.7117	0.024
Mof_C 	C 	0.93051	0.0848	0.7153	-0.083
Mof_H 	H 	0.9402	0.0222	0.6864	0.063
Mof_C 	C 	0.92776	0.9764	0.76112	0.006
Mof_H 	H 	0.935	0.8412	0.7624	0.038
Mof_C 	C 	0.91623	0.9496	0.8569	0.317
Mof_C 	C 	0.92515	0.4083	0.66408	0.065
Mof_C 	C 	0.89514	0.5787	0.64731	-0.134
Mof_H 	H 	0.8682	0.6112	0.6635	0.077
Mof_C 	C 	0.90502	0.7004	0.60676	0.067
Mof_H 	H 	0.8847	0.8141	0.596	0.02
Mof_C 	C 	0.94488	0.6549	0.58189	-0.148
Mof_C 	C 	0.97319	0.4804	0.59672	0.064
Mof_H 	H 	0.9993	0.4456	0.5796	0.02
Mof_C 	C 	0.96303	0.3586	0.63651	-0.131
Mof_H 	H 	0.9818	0.2405	0.6453	0.082
Mof_C 	C 	0.95826	0.7931	0.54157	0.397
Mof_N 	N 	0.88107	0.679	0.9724	-0.274
Mof_C 	C 	0.84896	0.7095	0.00519	0.101
Mof_H 	H 	0.8525	0.8267	0.0254	-0.01
Mof_C 	C 	0.81119	0.5757	0.01018	-0.178
Mof_H 	H 	0.7897	0.6027	0.0334	0.093
Mof_C 	C 	0.80502	0.3998	0.98052	0.126
Mof_C 	C 	0.83928	0.3674	0.94746	-0.181
Mof_H 	H 	0.8371	0.2503	0.9274	0.093
Mof_C 	C 	0.87601	0.5078	0.9446	0.109
Mof_H 	H 	0.8985	0.4832	0.9223	-0.007
Mof_C 	C 	0.76581	0.2472	0.9836	-0.09
Mof_H 	H 	0.7631	0.1376	0.9605	0.059
Mof_Zn	Zn	0.43497	0.38555	0.96576	1.22
Mof_O 	O 	0.41944	0.5527	0.90059	-0.462
Mof_O 	O 	0.41544	0.2677	0.85589	-0.322
Mof_O 	O 	0.49658	0.2518	0.52194	-0.505
Mof_O 	O 	0.42966	0.4461	0.52834	-0.482
Mof_C 	C 	0.41441	0.5659	0.8052	-0.109
Mof_C 	C 	0.40256	0.7649	0.80158	0.041
Mof_H 	H 	0.3932	0.8272	0.8307	0.037
Mof_C 	C 	0.40442	0.8733	0.75554	-0.113
Mof_H 	H 	0.3957	0.0072	0.7538	0.081
Mof_C 	C 	0.41904	0.787	0.7117	0.044
Mof_C 	C 	0.43051	0.5848	0.7153	-0.107
Mof_H 	H 	0.4402	0.5222	0.6864	0.071
Mof_C 	C 	0.42776	0.4764	0.76112	0.034
Mof_H 	H 	0.435	0.3412	0.7624	0.029
Mof_C 	C 	0.41623	0.4496	0.8569	0.33
Mof_C 	C 	0.42515	0.9083	0.66408	0.049
Mof_C 	C 	0.39514	0.0787	0.64731	-0.119
Mof_H 	H 	0.3682	0.1112	0.6635	0.072
Mof_C 	C 	0.40502	0.2004	0.60676	0.056
Mof_H 	H 	0.3847	0.3141	0.596	0.024
Mof_C 	C 	0.44488	0.1549	0.58189	-0.138
Mof_C 	C 	0.47319	0.9804	0.59672	0.051
Mof_H 	H 	0.4993	0.9456	0.5796	0.024
Mof_C 	C 	0.46303	0.8586	0.63651	-0.118
Mof_H 	H 	0.4818	0.7405	0.6453	0.077
Mof_C 	C 	0.45826	0.2931	0.54157	0.394
Mof_N 	N 	0.38107	0.179	0.9724	-0.274
Mof_C 	C 	0.34896	0.2095	0.00519	0.101
Mof_H 	H 	0.3525	0.3267	0.0254	-0.011
Mof_C 	C 	0.31119	0.0757	0.01018	-0.183
Mof_H 	H 	0.2897	0.1027	0.0334	0.093
Mof_C 	C 	0.30502	0.8998	0.98052	0.131
Mof_C 	C 	0.33928	0.8674	0.94746	-0.186
Mof_H 	H 	0.3371	0.7503	0.9274	0.094
Mof_C 	C 	0.37601	0.0078	0.9446	0.115
Mof_H 	H 	0.3985	0.9832	0.9223	-0.009
Mof_C 	C 	0.26581	0.7472	0.9836	-0.092
Mof_H 	H 	0.2631	0.6376	0.9605	0.059
Mof_Zn	Zn	0.06503	0.88555	0.53424	1.22
Mof_O 	O 	0.08056	0.0527	0.59941	-0.457
Mof_O 	O 	0.08456	0.7677	0.64411	-0.319
Mof_O 	O 	0.00342	0.7518	0.97806	-0.505
Mof_O 	O 	0.07034	0.9461	0.97166	-0.482
Mof_C 	C 	0.08559	0.0659	0.6948	-0.086
Mof_C 	C 	0.09744	0.2649	0.69842	0.019
Mof_H 	H 	0.1068	0.3272	0.6693	0.045
Mof_C 	C 	0.09558	0.3733	0.74446	-0.088
Mof_H 	H 	0.1043	0.5072	0.7462	0.07
Mof_C 	C 	0.08096	0.287	0.7883	0.024
Mof_C 	C 	0.06949	0.0848	0.7847	-0.083
Mof_H 	H 	0.0598	0.0222	0.8136	0.063
Mof_C 	C 	0.07224	0.9764	0.73888	0.006
Mof_H 	H 	0.065	0.8412	0.7376	0.038
Mof_C 	C 	0.08377	0.9496	0.6431	0.317
Mof_C 	C 	0.07485	0.4083	0.83592	0.066
Mof_C 	C 	0.10486	0.5787	0.85269	-0.134
Mof_H 	H 	0.1318	0.6112	0.8365	0.077
Mof_C 	C 	0.09498	0.7004	0.89324	0.067
Mof_H 	H 	0.1153	0.8141	0.904	0.02
Mof_C 	C 	0.05512	0.6549	0.91811	-0.148
Mof_C 	C 	0.02681	0.4804	0.90328	0.064
Mof_H 	H 	0.0007	0.4456	0.9204	0.021
Mof_C 	C 	0.03697	0.3586	0.86349	-0.131
Mof_H 	H 	0.0182	0.2405	0.8547	0.083
Mof_C 	C 	0.04174	0.7931	0.95843	0.397
Mof_N 	N 	0.11893	0.679	0.5276	-0.273
Mof_C 	C 	0.15104	0.7095	0.49481	0.1
Mof_H 	H 	0.1475	0.8267	0.4746	-0.01
Mof_C 	C 	0.18881	0.5757	0.48982	-0.179
Mof_H 	H 	0.2103	0.6027	0.4666	0.093
Mof_C 	C 	0.19498	0.3998	0.51948	0.127
Mof_C 	C 	0.16072	0.3674	0.55254	-0.181
Mof_H 	H 	0.1629	0.2503	0.5726	0.093
Mof_C 	C 	0.12399	0.5078	0.5554	0.109
Mof_H 	H 	0.1015	0.4832	0.5777	-0.007
Mof_C 	C 	0.23419	0.2472	0.5164	-0.09
Mof_H 	H 	0.2369	0.1376	0.5395	0.059
Mof_Zn	Zn	0.56503	0.38555	0.53424	1.22
Mof_O 	O 	0.58056	0.5527	0.59941	-0.462
Mof_O 	O 	0.58456	0.2677	0.64411	-0.322
Mof_O 	O 	0.50342	0.2518	0.97806	-0.505
Mof_O 	O 	0.57034	0.4461	0.97166	-0.482
Mof_C 	C 	0.58559	0.5659	0.6948	-0.109
Mof_C 	C 	0.59744	0.7649	0.69842	0.041
Mof_H 	H 	0.6068	0.8272	0.6693	0.037
Mof_C 	C 	0.59558	0.8733	0.74446	-0.113
Mof_H 	H 	0.6043	0.0072	0.7462	0.081
Mof_C 	C 	0.58096	0.787	0.7883	0.044
Mof_C 	C 	0.56949	0.5848	0.7847	-0.108
Mof_H 	H 	0.5598	0.5222	0.8136	0.071
Mof_C 	C 	0.57224	0.4764	0.73888	0.034
Mof_H 	H 	0.565	0.3412	0.7376	0.029
Mof_C 	C 	0.58377	0.4496	0.6431	0.33
Mof_C 	C 	0.57485	0.9083	0.83592	0.048
Mof_C 	C 	0.60486	0.0787	0.85269	-0.117
Mof_H 	H 	0.6318	0.1112	0.8365	0.072
Mof_C 	C 	0.59498	0.2004	0.89324	0.055
Mof_H 	H 	0.6153	0.3141	0.904	0.024
Mof_C 	C 	0.55512	0.1549	0.91811	-0.137
Mof_C 	C 	0.52681	0.9804	0.90328	0.05
Mof_H 	H 	0.5007	0.9456	0.9204	0.025
Mof_C 	C 	0.53697	0.8586	0.86349	-0.117
Mof_H 	H 	0.5182	0.7405	0.8547	0.077
Mof_C 	C 	0.54174	0.2931	0.95843	0.394
Mof_N 	N 	0.61893	0.179	0.5276	-0.274
Mof_C 	C 	0.65104	0.2095	0.49481	0.101
Mof_H 	H 	0.6475	0.3267	0.4746	-0.011
Mof_C 	C 	0.68881	0.0757	0.48982	-0.182
Mof_H 	H 	0.7103	0.1027	0.4666	0.093
Mof_C 	C 	0.69498	0.8998	0.51948	0.13
Mof_C 	C 	0.66072	0.8674	0.55254	-0.184
Mof_H 	H 	0.6629	0.7503	0.5726	0.094
Mof_C 	C 	0.62399	0.0078	0.5554	0.112
Mof_H 	H 	0.6015	0.9832	0.5777	-0.008
Mof_C 	C 	0.73419	0.7472	0.5164	-0.091
Mof_H 	H 	0.7369	0.6376	0.5395	0.059
Mof_Zn	Zn	0.06503	0.11445	0.03424	1.219
Mof_O 	O 	0.08056	0.9473	0.09941	-0.457
Mof_O 	O 	0.08456	0.2323	0.14411	-0.32
Mof_O 	O 	0.00342	0.2482	0.47806	-0.506
Mof_O 	O 	0.07034	0.0539	0.47166	-0.483
Mof_C 	C 	0.08559	0.9341	0.1948	-0.086
Mof_C 	C 	0.09744	0.7351	0.19842	0.018
Mof_H 	H 	0.1068	0.6728	0.1693	0.045
Mof_C 	C 	0.09558	0.6267	0.24446	-0.088
Mof_H 	H 	0.1043	0.4928	0.2462	0.07
Mof_C 	C 	0.08096	0.713	0.2883	0.024
Mof_C 	C 	0.06949	0.9152	0.2847	-0.083
Mof_H 	H 	0.0598	0.9778	0.3136	0.063
Mof_C 	C 	0.07224	0.0236	0.23888	0.006
Mof_H 	H 	0.065	0.1588	0.2376	0.038
Mof_C 	C 	0.08377	0.0504	0.1431	0.317
Mof_C 	C 	0.07485	0.5917	0.33592	0.065
Mof_C 	C 	0.10486	0.4213	0.35269	-0.134
Mof_H 	H 	0.1318	0.3888	0.3365	0.077
Mof_C 	C 	0.09498	0.2996	0.39324	0.067
Mof_H 	H 	0.1153	0.1859	0.404	0.02
Mof_C 	C 	0.05512	0.3451	0.41811	-0.148
Mof_C 	C 	0.02681	0.5196	0.40328	0.064
Mof_H 	H 	0.0007	0.5544	0.4204	0.02
Mof_C 	C 	0.03697	0.6414	0.36349	-0.131
Mof_H 	H 	0.0182	0.7595	0.3547	0.082
Mof_C 	C 	0.04174	0.2069	0.45843	0.397
Mof_N 	N 	0.11893	0.321	0.0276	-0.274
Mof_C 	C 	0.15104	0.2905	0.99481	0.101
Mof_H 	H 	0.1475	0.1733	0.9746	-0.01
Mof_C 	C 	0.18881	0.4243	0.98982	-0.178
Mof_H 	H 	0.2103	0.3973	0.9666	0.093
Mof_C 	C 	0.19498	0.6002	0.01948	0.126
Mof_C 	C 	0.16072	0.6326	0.05254	-0.181
Mof_H 	H 	0.1629	0.7497	0.0726	0.093
Mof_C 	C 	0.12399	0.4922	0.0554	0.109
Mof_H 	H 	0.1015	0.5168	0.0777	-0.007
Mof_C 	C 	0.23419	0.7528	0.0164	-0.09
Mof_H 	H 	0.2369	0.8624	0.0395	0.059
Mof_Zn	Zn	0.56503	0.61445	0.03424	1.22
Mof_O 	O 	0.58056	0.4473	0.09941	-0.462
Mof_O 	O 	0.58456	0.7323	0.14411	-0.322
Mof_O 	O 	0.50342	0.7482	0.47806	-0.505
Mof_O 	O 	0.57034	0.5539	0.47166	-0.482
Mof_C 	C 	0.58559	0.4341	0.1948	-0.109
Mof_C 	C 	0.59744	0.2351	0.19842	0.041
Mof_H 	H 	0.6068	0.1728	0.1693	0.037
Mof_C 	C 	0.59558	0.1267	0.24446	-0.113
Mof_H 	H 	0.6043	0.9928	0.2462	0.081
Mof_C 	C 	0.58096	0.213	0.2883	0.044
Mof_C 	C 	0.56949	0.4152	0.2847	-0.107
Mof_H 	H 	0.5598	0.4778	0.3136	0.071
Mof_C 	C 	0.57224	0.5236	0.23888	0.034
Mof_H 	H 	0.565	0.6588	0.2376	0.029
Mof_C 	C 	0.58377	0.5504	0.1431	0.33
Mof_C 	C 	0.57485	0.0917	0.33592	0.049
Mof_C 	C 	0.60486	0.9213	0.35269	-0.119
Mof_H 	H 	0.6318	0.8888	0.3365	0.072
Mof_C 	C 	0.59498	0.7996	0.39324	0.056
Mof_H 	H 	0.6153	0.6859	0.404	0.024
Mof_C 	C 	0.55512	0.8451	0.41811	-0.138
Mof_C 	C 	0.52681	0.0196	0.40328	0.051
Mof_H 	H 	0.5007	0.0544	0.4204	0.024
Mof_C 	C 	0.53697	0.1414	0.36349	-0.118
Mof_H 	H 	0.5182	0.2595	0.3547	0.077
Mof_C 	C 	0.54174	0.7069	0.45843	0.394
Mof_N 	N 	0.61893	0.821	0.0276	-0.274
Mof_C 	C 	0.65104	0.7905	0.99481	0.101
Mof_H 	H 	0.6475	0.6733	0.9746	-0.011
Mof_C 	C 	0.68881	0.9243	0.98982	-0.183
Mof_H 	H 	0.7103	0.8973	0.9666	0.093
Mof_C 	C 	0.69498	0.1002	0.01948	0.131
Mof_C 	C 	0.66072	0.1326	0.05254	-0.186
Mof_H 	H 	0.6629	0.2497	0.0726	0.094
Mof_C 	C 	0.62399	0.9922	0.0554	0.115
Mof_H 	H 	0.6015	0.0168	0.0777	-0.009
Mof_C 	C 	0.73419	0.2528	0.0164	-0.092
Mof_H 	H 	0.7369	0.3624	0.0395	0.059
Mof_Zn	Zn	0.93497	0.11445	0.46576	1.22
Mof_O 	O 	0.91944	0.9473	0.40059	-0.457
Mof_O 	O 	0.91544	0.2323	0.35589	-0.319
Mof_O 	O 	0.99658	0.2482	0.02194	-0.505
Mof_O 	O 	0.92966	0.0539	0.02834	-0.482
Mof_C 	C 	0.91441	0.9341	0.3052	-0.086
Mof_C 	C 	0.90256	0.7351	0.30158	0.019
Mof_H 	H 	0.8932	0.6728	0.3307	0.045
Mof_C 	C 	0.90442	0.6267	0.25554	-0.088
Mof_H 	H 	0.8957	0.4928	0.2538	0.07
Mof_C 	C 	0.91904	0.713	0.2117	0.024
Mof_C 	C 	0.93051	0.9152	0.2153	-0.083
Mof_H 	H 	0.9402	0.9778	0.1864	0.063
Mof_C 	C 	0.92776	0.0236	0.26112	0.006
Mof_H 	H 	0.935	0.1588	0.2624	0.038
Mof_C 	C 	0.91623	0.0504	0.3569	0.317
Mof_C 	C 	0.92515	0.5917	0.16408	0.066
Mof_C 	C 	0.89514	0.4213	0.14731	-0.134
Mof_H 	H 	0.8682	0.3888	0.1635	0.077
Mof_C 	C 	0.90502	0.2996	0.10676	0.067
Mof_H 	H 	0.8847	0.1859	0.096	0.02
Mof_C 	C 	0.94488	0.3451	0.08189	-0.148
Mof_C 	C 	0.97319	0.5196	0.09672	0.064
Mof_H 	H 	0.9993	0.5544	0.0796	0.021
Mof_C 	C 	0.96303	0.6414	0.13651	-0.131
Mof_H 	H 	0.9818	0.7595	0.1453	0.083
Mof_C 	C 	0.95826	0.2069	0.04157	0.397
Mof_N 	N 	0.88107	0.321	0.4724	-0.273
Mof_C 	C 	0.84896	0.2905	0.50519	0.1
Mof_H 	H 	0.8525	0.1733	0.5254	-0.01
Mof_C 	C 	0.81119	0.4243	0.51018	-0.179
Mof_H 	H 	0.7897	0.3973	0.5334	0.093
Mof_C 	C 	0.80502	0.6002	0.48052	0.127
Mof_C 	C 	0.83928	0.6326	0.44746	-0.181
Mof_H 	H 	0.8371	0.7497	0.4274	0.093
Mof_C 	C 	0.87601	0.4922	0.4446	0.109
Mof_H 	H 	0.8985	0.5168	0.4223	-0.007
Mof_C 	C 	0.76581	0.7528	0.4836	-0.09
Mof_H 	H 	0.7631	0.8624	0.4605	0.059
Mof_Zn	Zn	0.43497	0.61445	0.46576	1.22
Mof_O 	O 	0.41944	0.4473	0.40059	-0.462
Mof_O 	O 	0.41544	0.7323	0.35589	-0.322
Mof_O 	O 	0.49658	0.7482	0.02194	-0.505
Mof_O 	O 	0.42966	0.5539	0.02834	-0.482
Mof_C 	C 	0.41441	0.4341	0.3052	-0.109
Mof_C 	C 	0.40256	0.2351	0.30158	0.041
Mof_H 	H 	0.3932	0.1728	0.3307	0.037
Mof_C 	C 	0.40442	0.1267	0.25554	-0.113
Mof_H 	H 	0.3957	0.9928	0.2538	0.081
Mof_C 	C 	0.41904	0.213	0.2117	0.044
Mof_C 	C 	0.43051	0.4152	0.2153	-0.108
Mof_H 	H 	0.4402	0.4778	0.1864	0.071
Mof_C 	C 	0.42776	0.5236	0.26112	0.034
Mof_H 	H 	0.435	0.6588	0.2624	0.029
Mof_C 	C 	0.41623	0.5504	0.3569	0.33
Mof_C 	C 	0.42515	0.0917	0.16408	0.048
Mof_C 	C 	0.39514	0.9213	0.14731	-0.117
Mof_H 	H 	0.3682	0.8888	0.1635	0.072
Mof_C 	C 	0.40502	0.7996	0.10676	0.055
Mof_H 	H 	0.3847	0.6859	0.096	0.024
Mof_C 	C 	0.44488	0.8451	0.08189	-0.137
Mof_C 	C 	0.47319	0.0196	0.09672	0.05
Mof_H 	H 	0.4993	0.0544	0.0796	0.025
Mof_C 	C 	0.46303	0.1414	0.13651	-0.117
Mof_H 	H 	0.4818	0.2595	0.1453	0.077
Mof_C 	C 	0.45826	0.7069	0.04157	0.394
Mof_N 	N 	0.38107	0.821	0.4724	-0.274
Mof_C 	C 	0.34896	0.7905	0.50519	0.101
Mof_H 	H 	0.3525	0.6733	0.5254	-0.011
Mof_C 	C 	0.31119	0.9243	0.51018	-0.182
Mof_H 	H 	0.2897	0.8973	0.5334	0.093
Mof_C 	C 	0.30502	0.1002	0.48052	0.13
Mof_C 	C 	0.33928	0.1326	0.44746	-0.184
Mof_H 	H 	0.3371	0.2497	0.4274	0.094
Mof_C 	C 	0.37601	0.9922	0.4446	0.112
Mof_H 	H 	0.3985	0.0168	0.4223	-0.008
Mof_C 	C 	0.26581	0.2528	0.4836	-0.091
Mof_H 	H 	0.2631	0.3624	0.4605	0.059
_end
