data_functionalizedCrystal
_audit_creation_method	'EQeq! by Chris Wilmer'
_symmetry_space_group_name_H-M	'P1'
_symmetry_Int_Tables_number	1
_symmetry_cell_setting	triclinic
loop_
_symmetry_equiv_pos_as_xyz
  x,y,z
_cell_length_a	18.7529
_cell_length_b	18.7529
_cell_length_c	18.7425
_cell_angle_alpha	90
_cell_angle_beta	90
_cell_angle_gamma	120
loop_
_atom_site_label
_atom_site_type_symbol
_atom_site_fract_x
_atom_site_fract_y
_atom_site_fract_z
_atom_site_charge
Mof_O 	O 	0.8161	0.3671	0.1806	-0.411
Mof_O 	O 	0.7874	0.4608	0.1734	-0.491
Mof_C 	C 	0.8227	0.4281	0.1509	0.516
Mof_C 	C 	0.9003	0.4785	0.1041	-0.15
Mof_C 	C 	0.977	0.5202	0.1338	0.058
Mof_C 	C 	0.0483	0.5479	0.0866	-0.016
Mof_C 	C 	0.0398	0.5621	0.0146	-0.006
Mof_C 	C 	0.8905	0.4757	0.0315	0.05
Mof_O 	O 	0.6329	0.449	0.1806	-0.412
Mof_O 	O 	0.5392	0.3266	0.1734	-0.492
Mof_C 	C 	0.5719	0.3946	0.1509	0.516
Mof_C 	C 	0.5215	0.4218	0.1041	-0.15
Mof_C 	C 	0.4798	0.4568	0.1338	0.058
Mof_C 	C 	0.4521	0.5004	0.0866	-0.016
Mof_C 	C 	0.4379	0.4777	0.0146	-0.006
Mof_C 	C 	0.5243	0.4148	0.0315	0.05
Mof_O 	O 	0.551	0.1839	0.1806	-0.412
Mof_O 	O 	0.6734	0.2126	0.1734	-0.492
Mof_C 	C 	0.6054	0.1773	0.1509	0.516
Mof_C 	C 	0.5782	0.0997	0.1041	-0.149
Mof_C 	C 	0.5432	0.023	0.1338	0.058
Mof_C 	C 	0.4996	0.9517	0.0866	-0.016
Mof_C 	C 	0.5223	0.9602	0.0146	-0.006
Mof_C 	C 	0.5852	0.1095	0.0315	0.05
Mof_O 	O 	0.8161	0.3671	0.3194	-0.412
Mof_O 	O 	0.7874	0.4608	0.3266	-0.492
Mof_C 	C 	0.8227	0.4281	0.3491	0.516
Mof_C 	C 	0.9003	0.4785	0.3959	-0.15
Mof_C 	C 	0.977	0.5202	0.3662	0.058
Mof_C 	C 	0.0483	0.5479	0.4134	-0.016
Mof_C 	C 	0.0398	0.5621	0.4854	-0.006
Mof_C 	C 	0.8905	0.4757	0.4685	0.05
Mof_O 	O 	0.6329	0.449	0.3194	-0.412
Mof_O 	O 	0.5392	0.3266	0.3266	-0.492
Mof_C 	C 	0.5719	0.3946	0.3491	0.516
Mof_C 	C 	0.5215	0.4218	0.3959	-0.15
Mof_C 	C 	0.4798	0.4568	0.3662	0.058
Mof_C 	C 	0.4521	0.5004	0.4134	-0.016
Mof_C 	C 	0.4379	0.4777	0.4854	-0.006
Mof_C 	C 	0.5243	0.4148	0.4685	0.05
Mof_O 	O 	0.551	0.1839	0.3194	-0.412
Mof_O 	O 	0.6734	0.2126	0.3266	-0.492
Mof_C 	C 	0.6054	0.1773	0.3491	0.516
Mof_C 	C 	0.5782	0.0997	0.3959	-0.15
Mof_C 	C 	0.5432	0.023	0.3662	0.058
Mof_C 	C 	0.4996	0.9517	0.4134	-0.016
Mof_C 	C 	0.5223	0.9602	0.4854	-0.006
Mof_C 	C 	0.5852	0.1095	0.4685	0.05
Mof_O 	O 	0.3671	0.8161	0.8194	-0.412
Mof_O 	O 	0.4608	0.7874	0.8266	-0.492
Mof_C 	C 	0.4281	0.8227	0.8491	0.516
Mof_C 	C 	0.4785	0.9003	0.8959	-0.15
Mof_C 	C 	0.5202	0.977	0.8662	0.058
Mof_C 	C 	0.5479	0.0483	0.9134	-0.016
Mof_C 	C 	0.5621	0.0398	0.9854	-0.006
Mof_C 	C 	0.4757	0.8905	0.9685	0.05
Mof_O 	O 	0.449	0.6329	0.8194	-0.412
Mof_O 	O 	0.3266	0.5392	0.8266	-0.492
Mof_C 	C 	0.3946	0.5719	0.8491	0.516
Mof_C 	C 	0.4218	0.5215	0.8959	-0.15
Mof_C 	C 	0.4568	0.4798	0.8662	0.058
Mof_C 	C 	0.5004	0.4521	0.9134	-0.016
Mof_C 	C 	0.4777	0.4379	0.9854	-0.006
Mof_C 	C 	0.4148	0.5243	0.9685	0.05
Mof_O 	O 	0.1839	0.551	0.8194	-0.412
Mof_O 	O 	0.2126	0.6734	0.8266	-0.492
Mof_C 	C 	0.1773	0.6054	0.8491	0.516
Mof_C 	C 	0.0997	0.5782	0.8959	-0.149
Mof_C 	C 	0.023	0.5432	0.8662	0.058
Mof_C 	C 	0.9517	0.4996	0.9134	-0.016
Mof_C 	C 	0.9602	0.5223	0.9854	-0.006
Mof_C 	C 	0.1095	0.5852	0.9685	0.05
Mof_O 	O 	0.3671	0.8161	0.6806	-0.412
Mof_O 	O 	0.4608	0.7874	0.6734	-0.492
Mof_C 	C 	0.4281	0.8227	0.6509	0.516
Mof_C 	C 	0.4785	0.9003	0.6041	-0.15
Mof_C 	C 	0.5202	0.977	0.6338	0.058
Mof_C 	C 	0.5479	0.0483	0.5866	-0.016
Mof_C 	C 	0.5621	0.0398	0.5146	-0.006
Mof_C 	C 	0.4757	0.8905	0.5315	0.05
Mof_O 	O 	0.449	0.6329	0.6806	-0.412
Mof_O 	O 	0.3266	0.5392	0.6734	-0.492
Mof_C 	C 	0.3946	0.5719	0.6509	0.516
Mof_C 	C 	0.4218	0.5215	0.6041	-0.15
Mof_C 	C 	0.4568	0.4798	0.6338	0.058
Mof_C 	C 	0.5004	0.4521	0.5866	-0.016
Mof_C 	C 	0.4777	0.4379	0.5146	-0.006
Mof_C 	C 	0.4148	0.5243	0.5315	0.05
Mof_O 	O 	0.1839	0.551	0.6806	-0.412
Mof_O 	O 	0.2126	0.6734	0.6734	-0.492
Mof_C 	C 	0.1773	0.6054	0.6509	0.516
Mof_C 	C 	0.0997	0.5782	0.6041	-0.15
Mof_C 	C 	0.023	0.5432	0.6338	0.058
Mof_C 	C 	0.9517	0.4996	0.5866	-0.016
Mof_C 	C 	0.9602	0.5223	0.5146	-0.006
Mof_C 	C 	0.1095	0.5852	0.5315	0.05
Mof_Fe	Fe	0.7345	0.2759	0.25	1.049
Mof_Fe	Fe	0.7241	0.4586	0.25	1.049
Mof_Fe	Fe	0.5414	0.2655	0.25	1.049
Mof_Fe	Fe	0.2759	0.7345	0.75	1.049
Mof_Fe	Fe	0.4586	0.7241	0.75	1.049
Mof_Fe	Fe	0.2655	0.5414	0.75	1.049
Mof_O 	O 	0.66667	0.33333	0.25	-0.437
Mof_O 	O 	0.33333	0.66667	0.75	-0.437
_end
