data_functionalizedCrystal
_audit_creation_method	'EQeq! by Chris Wilmer'
_symmetry_space_group_name_H-M	'P1'
_symmetry_Int_Tables_number	1
_symmetry_cell_setting	triclinic
loop_
_symmetry_equiv_pos_as_xyz
  x,y,z
_cell_length_a	19.835
_cell_length_b	23.936
_cell_length_c	13.841
_cell_angle_alpha	90
_cell_angle_beta	122.48
_cell_angle_gamma	90
loop_
_atom_site_label
_atom_site_type_symbol
_atom_site_fract_x
_atom_site_fract_y
_atom_site_fract_z
_atom_site_charge
Mof_Cd	Cd	0.66669	0.89254	0.94603	0.388
Mof_O 	O 	0.5712	0.9473	0.7983	0.003
Mof_C 	C 	0.7368	0.7728	0.5716	0.101
Mof_N 	N 	0.6957	0.7921	0.4641	-0.083
Mof_N 	N 	0.7909	0.7316	0.6092	-0.08
Mof_N 	N 	0.6896	0.8471	0.8094	-0.135
Mof_C 	C 	0.6593	0.8681	0.7067	0.072
Mof_H 	H 	0.6262	0.9001	0.6867	0.074
Mof_C 	C 	0.6726	0.8463	0.6251	-0.105
Mof_H 	H 	0.6492	0.863	0.5517	0.083
Mof_C 	C 	0.7211	0.7992	0.6541	0.058
Mof_C 	C 	0.7533	0.7769	0.7619	-0.11
Mof_H 	H 	0.7864	0.7447	0.7844	0.082
Mof_C 	C 	0.7367	0.802	0.8377	0.066
Mof_H 	H 	0.7597	0.7866	0.9122	0.005
Mof_N 	N 	0.5995	0.8198	0.9625	-0.156
Mof_C 	C 	0.5646	0.8237	0.0224	0.091
Mof_H 	H 	0.5691	0.8575	0.0612	0.02
Mof_C 	C 	0.5223	0.7799	0.0295	-0.119
Mof_H 	H 	0.4961	0.7844	0.0698	0.092
Mof_C 	C 	0.5182	0.7297	0.9779	0.062
Mof_C 	C 	0.5547	0.7253	0.9172	-0.123
Mof_H 	H 	0.5533	0.6912	0.8811	0.079
Mof_C 	C 	0.5939	0.7718	0.91	0.067
Mof_H 	H 	0.6175	0.7692	0.866	0.011
Mof_N 	N 	0.4548	0.5881	0.9701	-0.086
Mof_N 	N 	0.4987	0.6309	0.9766	-0.087
Mof_C 	C 	0.4734	0.6817	0.9817	0.089
Mof_N 	N 	0.4125	0.6926	0.9947	-0.079
Mof_N 	N 	0.368	0.65	0.9873	-0.079
Mof_C 	C 	0.3888	0.5994	0.9705	0.087
Mof_N 	N 	0.2429	0.4641	0.9454	-0.157
Mof_C 	C 	0.2181	0.5165	0.9367	0.082
Mof_H 	H 	0.1671	0.523	0.9253	0.02
Mof_C 	C 	0.263	0.5618	0.9434	-0.13
Mof_H 	H 	0.2441	0.5988	0.9385	0.093
Mof_C 	C 	0.3368	0.5521	0.9576	0.068
Mof_C 	C 	0.3622	0.4977	0.964	-0.128
Mof_H 	H 	0.4119	0.4899	0.9719	0.092
Mof_C 	C 	0.3128	0.4548	0.9584	0.082
Mof_H 	H 	0.3303	0.4173	0.9643	0.01
Mof_O 	O 	0.5522	0.9528	0.845	-0.125
Mof_O 	O 	0.524	0.8898	0.7257	-1.181
Mof_Cd	Cd	0.16669	0.39254	0.94603	0.374
Mof_O 	O 	0.0712	0.4473	0.7983	-0.057
Mof_C 	C 	0.2368	0.2728	0.5716	0.099
Mof_N 	N 	0.1957	0.2921	0.4641	-0.085
Mof_N 	N 	0.2909	0.2316	0.6092	-0.081
Mof_N 	N 	0.1896	0.3471	0.8094	-0.144
Mof_C 	C 	0.1593	0.3681	0.7067	0.075
Mof_H 	H 	0.1262	0.4001	0.6867	0.042
Mof_C 	C 	0.1726	0.3463	0.6251	-0.115
Mof_H 	H 	0.1492	0.363	0.5517	0.08
Mof_C 	C 	0.2211	0.2992	0.6541	0.059
Mof_C 	C 	0.2533	0.2769	0.7619	-0.115
Mof_H 	H 	0.2864	0.2447	0.7844	0.082
Mof_C 	C 	0.2367	0.302	0.8377	0.067
Mof_H 	H 	0.2597	0.2866	0.9122	0.004
Mof_N 	N 	0.0995	0.3198	0.9625	-0.159
Mof_C 	C 	0.0646	0.3237	0.0224	0.101
Mof_H 	H 	0.0691	0.3575	0.0612	0.003
Mof_C 	C 	0.0223	0.2799	0.0295	-0.163
Mof_H 	H 	0.9961	0.2844	0.0698	0.121
Mof_C 	C 	0.0182	0.2297	0.9779	0.049
Mof_C 	C 	0.0547	0.2253	0.9172	-0.123
Mof_H 	H 	0.0533	0.1912	0.8811	0.072
Mof_C 	C 	0.0939	0.2718	0.91	0.07
Mof_H 	H 	0.1175	0.2692	0.866	0.01
Mof_N 	N 	0.9548	0.0881	0.9701	-0.081
Mof_N 	N 	0.9987	0.1309	0.9766	-0.082
Mof_C 	C 	0.9734	0.1817	0.9817	0.11
Mof_N 	N 	0.9125	0.1926	0.9947	-0.08
Mof_N 	N 	0.868	0.15	0.9873	-0.077
Mof_C 	C 	0.8888	0.0994	0.9705	0.089
Mof_N 	N 	0.7429	0.9641	0.9454	-0.156
Mof_C 	C 	0.7181	0.0165	0.9367	0.084
Mof_H 	H 	0.6671	0.023	0.9253	0.024
Mof_C 	C 	0.763	0.0618	0.9434	-0.129
Mof_H 	H 	0.7441	0.0988	0.9385	0.095
Mof_C 	C 	0.8368	0.0521	0.9576	0.071
Mof_C 	C 	0.8622	0.9977	0.964	-0.127
Mof_H 	H 	0.9119	0.9899	0.9719	0.098
Mof_C 	C 	0.8128	0.9548	0.9584	0.085
Mof_H 	H 	0.8303	0.9173	0.9643	0.012
Mof_O 	O 	0.0522	0.4528	0.845	-0.113
Mof_O 	O 	0.024	0.3898	0.7257	-0.446
Mof_Cd	Cd	0.33331	0.89254	0.55397	0.388
Mof_O 	O 	0.4288	0.9473	0.7017	0.004
Mof_C 	C 	0.2632	0.7728	0.9284	0.097
Mof_N 	N 	0.3043	0.7921	0.0359	-0.081
Mof_N 	N 	0.2091	0.7316	0.8908	-0.082
Mof_N 	N 	0.3104	0.8471	0.6906	-0.135
Mof_C 	C 	0.3407	0.8681	0.7933	0.071
Mof_H 	H 	0.3738	0.9001	0.8133	0.074
Mof_C 	C 	0.3274	0.8463	0.8749	-0.106
Mof_H 	H 	0.3508	0.863	0.9483	0.082
Mof_C 	C 	0.2789	0.7992	0.8459	0.057
Mof_C 	C 	0.2467	0.7769	0.7381	-0.111
Mof_H 	H 	0.2136	0.7447	0.7156	0.081
Mof_C 	C 	0.2633	0.802	0.6623	0.065
Mof_H 	H 	0.2403	0.7866	0.5878	0.006
Mof_N 	N 	0.4005	0.8198	0.5375	-0.155
Mof_C 	C 	0.4354	0.8237	0.4776	0.089
Mof_H 	H 	0.4309	0.8575	0.4388	0.019
Mof_C 	C 	0.4777	0.7799	0.4705	-0.124
Mof_H 	H 	0.5039	0.7844	0.4302	0.092
Mof_C 	C 	0.4818	0.7297	0.5221	0.066
Mof_C 	C 	0.4453	0.7253	0.5828	-0.125
Mof_H 	H 	0.4467	0.6912	0.6189	0.08
Mof_C 	C 	0.4061	0.7718	0.59	0.068
Mof_H 	H 	0.3825	0.7692	0.634	0.011
Mof_N 	N 	0.5452	0.5881	0.5299	-0.085
Mof_N 	N 	0.5013	0.6309	0.5234	-0.086
Mof_C 	C 	0.5266	0.6817	0.5183	0.089
Mof_N 	N 	0.5875	0.6926	0.5053	-0.079
Mof_N 	N 	0.632	0.65	0.5127	-0.078
Mof_C 	C 	0.6112	0.5994	0.5295	0.088
Mof_N 	N 	0.7571	0.4641	0.5546	-0.156
Mof_C 	C 	0.7819	0.5165	0.5633	0.082
Mof_H 	H 	0.8329	0.523	0.5747	0.025
Mof_C 	C 	0.737	0.5618	0.5566	-0.129
Mof_H 	H 	0.7559	0.5988	0.5615	0.095
Mof_C 	C 	0.6632	0.5521	0.5424	0.068
Mof_C 	C 	0.6378	0.4977	0.536	-0.127
Mof_H 	H 	0.5881	0.4899	0.5281	0.093
Mof_C 	C 	0.6872	0.4548	0.5416	0.083
Mof_H 	H 	0.6697	0.4173	0.5357	0.01
Mof_O 	O 	0.4478	0.9528	0.655	-0.124
Mof_O 	O 	0.476	0.8898	0.7743	-1.182
Mof_Cd	Cd	0.83331	0.39254	0.55397	0.38
Mof_O 	O 	0.9288	0.4473	0.7017	-0.058
Mof_C 	C 	0.7632	0.2728	0.9284	0.097
Mof_N 	N 	0.8043	0.2921	0.0359	-0.08
Mof_N 	N 	0.7091	0.2316	0.8908	-0.081
Mof_N 	N 	0.8104	0.3471	0.6906	-0.143
Mof_C 	C 	0.8407	0.3681	0.7933	0.078
Mof_H 	H 	0.8738	0.4001	0.8133	0.046
Mof_C 	C 	0.8274	0.3463	0.8749	-0.113
Mof_H 	H 	0.8508	0.363	0.9483	0.084
Mof_C 	C 	0.7789	0.2992	0.8459	0.062
Mof_C 	C 	0.7467	0.2769	0.7381	-0.114
Mof_H 	H 	0.7136	0.2447	0.7156	0.083
Mof_C 	C 	0.7633	0.302	0.6623	0.069
Mof_H 	H 	0.7403	0.2866	0.5878	0.005
Mof_N 	N 	0.9005	0.3198	0.5375	-0.149
Mof_C 	C 	0.9354	0.3237	0.4776	0.065
Mof_H 	H 	0.9309	0.3575	0.4388	0.026
Mof_C 	C 	0.9777	0.2799	0.4705	-0.076
Mof_H 	H 	0.0039	0.2844	0.4302	0.058
Mof_C 	C 	0.9818	0.2297	0.5221	0.077
Mof_C 	C 	0.9453	0.2253	0.5828	-0.125
Mof_H 	H 	0.9467	0.1912	0.6189	0.088
Mof_C 	C 	0.9061	0.2718	0.59	0.077
Mof_H 	H 	0.8825	0.2692	0.634	0.013
Mof_N 	N 	0.0452	0.0881	0.5299	-0.09
Mof_N 	N 	0.0013	0.1309	0.5234	-0.092
Mof_C 	C 	0.0266	0.1817	0.5183	0.069
Mof_N 	N 	0.0875	0.1926	0.5053	-0.079
Mof_N 	N 	0.132	0.15	0.5127	-0.08
Mof_C 	C 	0.1112	0.0994	0.5295	0.086
Mof_N 	N 	0.2571	0.9641	0.5546	-0.156
Mof_C 	C 	0.2819	0.0165	0.5633	0.082
Mof_H 	H 	0.3329	0.023	0.5747	0.025
Mof_C 	C 	0.237	0.0618	0.5566	-0.128
Mof_H 	H 	0.2559	0.0988	0.5615	0.094
Mof_C 	C 	0.1632	0.0521	0.5424	0.066
Mof_C 	C 	0.1378	0.9977	0.536	-0.127
Mof_H 	H 	0.0881	0.9899	0.5281	0.087
Mof_C 	C 	0.1872	0.9548	0.5416	0.081
Mof_H 	H 	0.1697	0.9173	0.5357	0.008
Mof_O 	O 	0.9478	0.4528	0.655	-0.087
Mof_O 	O 	0.976	0.3898	0.7743	-0.404
Mof_Cd	Cd	0.33331	0.10746	0.05397	0.39
Mof_O 	O 	0.4288	0.0527	0.2017	0.003
Mof_C 	C 	0.2632	0.2272	0.4284	0.101
Mof_N 	N 	0.3043	0.2079	0.5359	-0.083
Mof_N 	N 	0.2091	0.2684	0.3908	-0.082
Mof_N 	N 	0.3104	0.1529	0.1906	-0.135
Mof_C 	C 	0.3407	0.1319	0.2933	0.071
Mof_H 	H 	0.3738	0.0999	0.3133	0.074
Mof_C 	C 	0.3274	0.1537	0.3749	-0.105
Mof_H 	H 	0.3508	0.137	0.4483	0.083
Mof_C 	C 	0.2789	0.2008	0.3459	0.056
Mof_C 	C 	0.2467	0.2231	0.2381	-0.11
Mof_H 	H 	0.2136	0.2553	0.2156	0.081
Mof_C 	C 	0.2633	0.198	0.1623	0.065
Mof_H 	H 	0.2403	0.2134	0.0878	0.007
Mof_N 	N 	0.4005	0.1802	0.0375	-0.154
Mof_C 	C 	0.4354	0.1763	0.9776	0.087
Mof_H 	H 	0.4309	0.1425	0.9388	0.019
Mof_C 	C 	0.4777	0.2201	0.9705	-0.129
Mof_H 	H 	0.5039	0.2156	0.9302	0.093
Mof_C 	C 	0.4818	0.2703	0.0221	0.071
Mof_C 	C 	0.4453	0.2747	0.0828	-0.127
Mof_H 	H 	0.4467	0.3088	0.1189	0.081
Mof_C 	C 	0.4061	0.2282	0.09	0.07
Mof_H 	H 	0.3825	0.2308	0.134	0.01
Mof_N 	N 	0.5452	0.4119	0.0299	-0.085
Mof_N 	N 	0.5013	0.3691	0.0234	-0.085
Mof_C 	C 	0.5266	0.3183	0.0183	0.088
Mof_N 	N 	0.5875	0.3074	0.0053	-0.078
Mof_N 	N 	0.632	0.35	0.0127	-0.078
Mof_C 	C 	0.6112	0.4006	0.0295	0.088
Mof_N 	N 	0.7571	0.5359	0.0546	-0.156
Mof_C 	C 	0.7819	0.4835	0.0633	0.083
Mof_H 	H 	0.8329	0.477	0.0747	0.025
Mof_C 	C 	0.737	0.4382	0.0566	-0.128
Mof_H 	H 	0.7559	0.4012	0.0615	0.095
Mof_C 	C 	0.6632	0.4479	0.0424	0.069
Mof_C 	C 	0.6378	0.5023	0.036	-0.127
Mof_H 	H 	0.5881	0.5101	0.0281	0.094
Mof_C 	C 	0.6872	0.5452	0.0416	0.083
Mof_H 	H 	0.6697	0.5827	0.0357	0.011
Mof_O 	O 	0.4478	0.0472	0.155	-0.124
Mof_O 	O 	0.476	0.1102	0.2743	-1.176
Mof_Cd	Cd	0.83331	0.60746	0.05397	0.381
Mof_O 	O 	0.9288	0.5527	0.2017	-0.056
Mof_C 	C 	0.7632	0.7272	0.4284	0.1
Mof_N 	N 	0.8043	0.7079	0.5359	-0.082
Mof_N 	N 	0.7091	0.7684	0.3908	-0.081
Mof_N 	N 	0.8104	0.6529	0.1906	-0.143
Mof_C 	C 	0.8407	0.6319	0.2933	0.078
Mof_H 	H 	0.8738	0.5999	0.3133	0.047
Mof_C 	C 	0.8274	0.6537	0.3749	-0.112
Mof_H 	H 	0.8508	0.637	0.4483	0.085
Mof_C 	C 	0.7789	0.7008	0.3459	0.061
Mof_C 	C 	0.7467	0.7231	0.2381	-0.113
Mof_H 	H 	0.7136	0.7553	0.2156	0.083
Mof_C 	C 	0.7633	0.698	0.1623	0.069
Mof_H 	H 	0.7403	0.7134	0.0878	0.006
Mof_N 	N 	0.9005	0.6802	0.0375	-0.148
Mof_C 	C 	0.9354	0.6763	0.9776	0.063
Mof_H 	H 	0.9309	0.6425	0.9388	0.026
Mof_C 	C 	0.9777	0.7201	0.9705	-0.079
Mof_H 	H 	0.0039	0.7156	0.9302	0.057
Mof_C 	C 	0.9818	0.7703	0.0221	0.078
Mof_C 	C 	0.9453	0.7747	0.0828	-0.125
Mof_H 	H 	0.9467	0.8088	0.1189	0.088
Mof_C 	C 	0.9061	0.7282	0.09	0.078
Mof_H 	H 	0.8825	0.7308	0.134	0.013
Mof_N 	N 	0.0452	0.9119	0.0299	-0.089
Mof_N 	N 	0.0013	0.8691	0.0234	-0.091
Mof_C 	C 	0.0266	0.8183	0.0183	0.07
Mof_N 	N 	0.0875	0.8074	0.0053	-0.078
Mof_N 	N 	0.132	0.85	0.0127	-0.079
Mof_C 	C 	0.1112	0.9006	0.0295	0.087
Mof_N 	N 	0.2571	0.0359	0.0546	-0.155
Mof_C 	C 	0.2819	0.9835	0.0633	0.082
Mof_H 	H 	0.3329	0.977	0.0747	0.025
Mof_C 	C 	0.237	0.9382	0.0566	-0.128
Mof_H 	H 	0.2559	0.9012	0.0615	0.094
Mof_C 	C 	0.1632	0.9479	0.0424	0.066
Mof_C 	C 	0.1378	0.0023	0.036	-0.126
Mof_H 	H 	0.0881	0.0101	0.0281	0.088
Mof_C 	C 	0.1872	0.0452	0.0416	0.081
Mof_H 	H 	0.1697	0.0827	0.0357	0.009
Mof_O 	O 	0.9478	0.5472	0.155	-0.088
Mof_O 	O 	0.976	0.6102	0.2743	-0.42
Mof_Cd	Cd	0.66669	0.10746	0.44603	0.39
Mof_O 	O 	0.5712	0.0527	0.2983	0.004
Mof_C 	C 	0.7368	0.2272	0.0716	0.105
Mof_N 	N 	0.6957	0.2079	0.9641	-0.085
Mof_N 	N 	0.7909	0.2684	0.1092	-0.08
Mof_N 	N 	0.6896	0.1529	0.3094	-0.135
Mof_C 	C 	0.6593	0.1319	0.2067	0.072
Mof_H 	H 	0.6262	0.0999	0.1867	0.075
Mof_C 	C 	0.6726	0.1537	0.1251	-0.104
Mof_H 	H 	0.6492	0.137	0.0517	0.084
Mof_C 	C 	0.7211	0.2008	0.1541	0.057
Mof_C 	C 	0.7533	0.2231	0.2619	-0.109
Mof_H 	H 	0.7864	0.2553	0.2844	0.082
Mof_C 	C 	0.7367	0.198	0.3377	0.066
Mof_H 	H 	0.7597	0.2134	0.4122	0.006
Mof_N 	N 	0.5995	0.1802	0.4625	-0.155
Mof_C 	C 	0.5646	0.1763	0.5224	0.089
Mof_H 	H 	0.5691	0.1425	0.5612	0.019
Mof_C 	C 	0.5223	0.2201	0.5295	-0.124
Mof_H 	H 	0.4961	0.2156	0.5698	0.092
Mof_C 	C 	0.5182	0.2703	0.4779	0.067
Mof_C 	C 	0.5547	0.2747	0.4172	-0.125
Mof_H 	H 	0.5533	0.3088	0.3811	0.08
Mof_C 	C 	0.5939	0.2282	0.41	0.069
Mof_H 	H 	0.6175	0.2308	0.366	0.011
Mof_N 	N 	0.4548	0.4119	0.4701	-0.085
Mof_N 	N 	0.4987	0.3691	0.4766	-0.086
Mof_C 	C 	0.4734	0.3183	0.4817	0.089
Mof_N 	N 	0.4125	0.3074	0.4947	-0.079
Mof_N 	N 	0.368	0.35	0.4873	-0.078
Mof_C 	C 	0.3888	0.4006	0.4705	0.087
Mof_N 	N 	0.2429	0.5359	0.4454	-0.157
Mof_C 	C 	0.2181	0.4835	0.4367	0.082
Mof_H 	H 	0.1671	0.477	0.4253	0.02
Mof_C 	C 	0.263	0.4382	0.4434	-0.13
Mof_H 	H 	0.2441	0.4012	0.4385	0.093
Mof_C 	C 	0.3368	0.4479	0.4576	0.069
Mof_C 	C 	0.3622	0.5023	0.464	-0.128
Mof_H 	H 	0.4119	0.5101	0.4719	0.093
Mof_C 	C 	0.3128	0.5452	0.4584	0.082
Mof_H 	H 	0.3303	0.5827	0.4643	0.01
Mof_O 	O 	0.5522	0.0472	0.345	-0.124
Mof_O 	O 	0.524	0.1102	0.2257	-1.176
Mof_Cd	Cd	0.16669	0.60746	0.44603	0.376
Mof_O 	O 	0.0712	0.5527	0.2983	-0.056
Mof_C 	C 	0.2368	0.7272	0.0716	0.103
Mof_N 	N 	0.1957	0.7079	0.9641	-0.087
Mof_N 	N 	0.2909	0.7684	0.1092	-0.081
Mof_N 	N 	0.1896	0.6529	0.3094	-0.143
Mof_C 	C 	0.1593	0.6319	0.2067	0.075
Mof_H 	H 	0.1262	0.5999	0.1867	0.044
Mof_C 	C 	0.1726	0.6537	0.1251	-0.114
Mof_H 	H 	0.1492	0.637	0.0517	0.082
Mof_C 	C 	0.2211	0.7008	0.1541	0.059
Mof_C 	C 	0.2533	0.7231	0.2619	-0.114
Mof_H 	H 	0.2864	0.7553	0.2844	0.082
Mof_C 	C 	0.2367	0.698	0.3377	0.067
Mof_H 	H 	0.2597	0.7134	0.4122	0.005
Mof_N 	N 	0.0995	0.6802	0.4625	-0.158
Mof_C 	C 	0.0646	0.6763	0.5224	0.101
Mof_H 	H 	0.0691	0.6425	0.5612	0.002
Mof_C 	C 	0.0223	0.7201	0.5295	-0.172
Mof_H 	H 	0.9961	0.7156	0.5698	0.124
Mof_C 	C 	0.0182	0.7703	0.4779	0.057
Mof_C 	C 	0.0547	0.7747	0.4172	-0.127
Mof_H 	H 	0.0533	0.8088	0.3811	0.074
Mof_C 	C 	0.0939	0.7282	0.41	0.072
Mof_H 	H 	0.1175	0.7308	0.366	0.01
Mof_N 	N 	0.9548	0.9119	0.4701	-0.081
Mof_N 	N 	0.9987	0.8691	0.4766	-0.081
Mof_C 	C 	0.9734	0.8183	0.4817	0.108
Mof_N 	N 	0.9125	0.8074	0.4947	-0.079
Mof_N 	N 	0.868	0.85	0.4873	-0.077
Mof_C 	C 	0.8888	0.9006	0.4705	0.089
Mof_N 	N 	0.7429	0.0359	0.4454	-0.156
Mof_C 	C 	0.7181	0.9835	0.4367	0.084
Mof_H 	H 	0.6671	0.977	0.4253	0.024
Mof_C 	C 	0.763	0.9382	0.4434	-0.129
Mof_H 	H 	0.7441	0.9012	0.4385	0.095
Mof_C 	C 	0.8368	0.9479	0.4576	0.072
Mof_C 	C 	0.8622	0.0023	0.464	-0.128
Mof_H 	H 	0.9119	0.0101	0.4719	0.099
Mof_C 	C 	0.8128	0.0452	0.4584	0.086
Mof_H 	H 	0.8303	0.0827	0.4643	0.012
Mof_O 	O 	0.0522	0.5472	0.345	-0.113
Mof_O 	O 	0.024	0.6102	0.2257	-0.46
Mof_N 	N 	0.5	0.9279	0.75	0.3
Mof_O 	O 	0.5	0.8779	0.75	1.642
Mof_N 	N 	8.20339e-17	0.4279	0.75	0.141
Mof_O 	O 	8.20339e-17	0.3779	0.75	0.49
Mof_N 	N 	0.5	0.0721	0.25	0.299
Mof_O 	O 	0.5	0.1221	0.25	1.634
Mof_N 	N 	2.05085e-17	0.5721	0.25	0.144
Mof_O 	O 	2.05085e-17	0.6221	0.25	0.514
_end
