data_functionalizedCrystal
_audit_creation_method	'EQeq! by Chris Wilmer'
_symmetry_space_group_name_H-M	'P1'
_symmetry_Int_Tables_number	1
_symmetry_cell_setting	triclinic
loop_
_symmetry_equiv_pos_as_xyz
  x,y,z
_cell_length_a	10.148
_cell_length_b	10.8845
_cell_length_c	13.8261
_cell_angle_alpha	78.76
_cell_angle_beta	79.305
_cell_angle_gamma	86.222
loop_
_atom_site_label
_atom_site_type_symbol
_atom_site_fract_x
_atom_site_fract_y
_atom_site_fract_z
_atom_site_charge
Mof_Gd	Gd	0.67955	0.07683	0.20374	1.645
Mof_Gd	Gd	0.32045	0.92317	0.79626	1.681
Mof_Mn	Mn	-4.8298e-18	0.5	-0	0.648
Mof_H 	H 	0.6528	0.6689	0.4225	0.102
Mof_H 	H 	0.6718	0.3306	0.3473	0.074
Mof_H 	H 	0.7159	0.6397	0.1328	0.034
Mof_H 	H 	0.6444	0.5443	0.7539	0.083
Mof_H 	H 	0.6343	0.4275	0.9111	0.038
Mof_H 	H 	0.6481	0.1185	0.809	0.023
Mof_H 	H 	0.6549	0.2256	0.6493	0.065
Mof_H 	H 	0.1749	0.0856	0.2194	0.052
Mof_H 	H 	0.9131	0.1588	0.4586	0.139
Mof_H 	H 	0.3066	0.1485	0.4614	0.114
Mof_H 	H 	0.9899	0.5192	0.6264	0.116
Mof_H 	H 	0.9828	0.5878	0.7726	0.006
Mof_H 	H 	0.9691	0.2476	0.9239	0.004
Mof_H 	H 	0.987	0.1673	0.7802	0.076
Mof_H 	H 	0.621	0.3538	0.517	0.141
Mof_H 	H 	0.1242	0.1584	0.6157	0.155
Mof_H 	H 	0.3472	0.3311	0.5775	0.103
Mof_H 	H 	0.3282	0.6694	0.6527	0.075
Mof_H 	H 	0.2841	0.3603	0.8672	0.046
Mof_H 	H 	0.3556	0.4557	0.2461	0.08
Mof_H 	H 	0.3657	0.5725	0.0889	0.01
Mof_H 	H 	0.3519	0.8815	0.191	0.013
Mof_H 	H 	0.3451	0.7744	0.3507	0.066
Mof_H 	H 	0.8251	0.9144	0.7806	0.074
Mof_H 	H 	0.0869	0.8412	0.5414	0.075
Mof_H 	H 	0.6934	0.8515	0.5386	0.111
Mof_H 	H 	0.0101	0.4808	0.3736	0.106
Mof_H 	H 	0.0172	0.4122	0.2274	-0.013
Mof_H 	H 	0.0309	0.7524	0.0761	-0.034
Mof_H 	H 	0.013	0.8327	0.2198	0.063
Mof_H 	H 	0.379	0.6462	0.483	0.141
Mof_H 	H 	0.8758	0.8416	0.3843	0.16
Mof_C 	C 	0.6861	0.8134	0.2472	0.318
Mof_C 	C 	0.6834	0.6745	0.2732	-0.046
Mof_C 	C 	0.6646	0.6192	0.3738	-0.099
Mof_C 	C 	0.6631	0.49	0.4018	0.139
Mof_C 	C 	0.6772	0.4172	0.3287	-0.073
Mof_C 	C 	0.6993	0.4722	0.2276	-0.095
Mof_C 	C 	0.7018	0.602	0.2002	0.016
Mof_C 	C 	0.729	0.3945	0.1482	0.421
Mof_C 	C 	0.6668	0.4811	0.5799	0.228
Mof_C 	C 	0.653	0.3989	0.682	0.007
Mof_C 	C 	0.6454	0.4573	0.7631	-0.086
Mof_C 	C 	0.6394	0.3865	0.8574	0.058
Mof_C 	C 	0.647	0.2056	0.7976	0.061
Mof_C 	C 	0.6521	0.2691	0.7013	-0.089
Mof_C 	C 	0.4055	0.0977	0.2848	0.296
Mof_C 	C 	0.2623	0.1134	0.3321	-0.011
Mof_C 	C 	0.1579	0.1028	0.284	-0.049
Mof_C 	C 	0.0262	0.118	0.3325	-0.022
Mof_C 	C 	0.001	0.1478	0.4269	-0.181
Mof_C 	C 	0.106	0.1614	0.4743	0.183
Mof_C 	C 	0.236	0.1422	0.4284	-0.134
Mof_C 	C 	0.9085	0.1063	0.2839	0.305
Mof_C 	C 	0.9959	0.2926	0.5893	0.228
Mof_C 	C 	0.9919	0.3349	0.6866	0.031
Mof_C 	C 	0.9885	0.4618	0.686	-0.118
Mof_C 	C 	0.9831	0.502	0.7742	0.093
Mof_C 	C 	0.9766	0.3028	0.8627	0.088
Mof_C 	C 	0.9854	0.2535	0.777	-0.113
Mof_C 	C 	0.3139	0.1866	0.7528	0.309
Mof_C 	C 	0.3166	0.3255	0.7268	-0.043
Mof_C 	C 	0.3354	0.3808	0.6262	-0.109
Mof_C 	C 	0.3369	0.51	0.5982	0.139
Mof_C 	C 	0.3228	0.5828	0.6713	-0.083
Mof_C 	C 	0.3007	0.5278	0.7724	-0.089
Mof_C 	C 	0.2982	0.398	0.7998	0.002
Mof_C 	C 	0.271	0.6055	0.8518	0.414
Mof_C 	C 	0.3332	0.5189	0.4201	0.226
Mof_C 	C 	0.347	0.6011	0.318	0.01
Mof_C 	C 	0.3546	0.5427	0.2369	-0.094
Mof_C 	C 	0.3606	0.6135	0.1426	0.061
Mof_C 	C 	0.353	0.7944	0.2024	0.062
Mof_C 	C 	0.3479	0.7309	0.2987	-0.093
Mof_C 	C 	0.5945	0.9023	0.7152	0.294
Mof_C 	C 	0.7377	0.8866	0.6679	-0.009
Mof_C 	C 	0.8421	0.8972	0.716	-0.054
Mof_C 	C 	0.9738	0.882	0.6675	0.003
Mof_C 	C 	0.999	0.8522	0.5731	-0.077
Mof_C 	C 	0.894	0.8386	0.5257	0.158
Mof_C 	C 	0.764	0.8578	0.5716	-0.12
Mof_C 	C 	0.0915	0.8937	0.7161	0.26
Mof_C 	C 	0.0041	0.7074	0.4107	0.177
Mof_C 	C 	0.0081	0.6651	0.3134	0.036
Mof_C 	C 	0.0115	0.5382	0.314	-0.132
Mof_C 	C 	0.0169	0.498	0.2258	0.088
Mof_C 	C 	0.0234	0.6972	0.1373	0.085
Mof_C 	C 	0.0146	0.7465	0.223	-0.132
Mof_N 	N 	0.6465	0.43	0.5031	-0.239
Mof_N 	N 	0.6406	0.2611	0.8757	-0.123
Mof_N 	N 	0.0823	0.1978	0.5696	-0.264
Mof_N 	N 	0.9781	0.425	0.8628	-0.172
Mof_N 	N 	0.3535	0.57	0.4969	-0.24
Mof_N 	N 	0.3594	0.7389	0.1243	-0.142
Mof_N 	N 	0.9177	0.8022	0.4304	-0.226
Mof_N 	N 	0.0219	0.575	0.1372	-0.2
Mof_O 	O 	0.6729	0.8695	0.1611	-0.413
Mof_O 	O 	0.7041	0.8749	0.3107	-0.391
Mof_O 	O 	0.8005	0.4374	0.0669	-0.398
Mof_O 	O 	0.6784	0.2876	0.167	-0.489
Mof_O 	O 	0.6944	0.5891	0.571	-0.229
Mof_O 	O 	0.4386	0.0974	0.1924	-0.396
Mof_O 	O 	0.496	0.0858	0.3373	-0.378
Mof_O 	O 	0.9253	0.0932	0.1929	-0.396
Mof_O 	O 	0.7921	0.1112	0.3337	-0.379
Mof_O 	O 	0.9245	0.3475	0.5306	-0.218
Mof_O 	O 	0.3271	0.1305	0.8389	-0.403
Mof_O 	O 	0.2959	0.1251	0.6893	-0.398
Mof_O 	O 	0.1995	0.5626	0.9331	-0.366
Mof_O 	O 	0.3216	0.7124	0.833	-0.476
Mof_O 	O 	0.3056	0.4109	0.429	-0.234
Mof_O 	O 	0.5614	0.9026	0.8076	-0.378
Mof_O 	O 	0.504	0.9142	0.6627	-0.379
Mof_O 	O 	0.0747	0.9068	0.8071	-0.392
Mof_O 	O 	0.2079	0.8888	0.6663	-0.375
Mof_O 	O 	0.0755	0.6525	0.4694	-0.223
_end
