data_functionalizedCrystal
_audit_creation_method	'EQeq! by Chris Wilmer'
_symmetry_space_group_name_H-M	'P1'
_symmetry_Int_Tables_number	1
_symmetry_cell_setting	triclinic
loop_
_symmetry_equiv_pos_as_xyz
  x,y,z
_cell_length_a	7.705
_cell_length_b	11.9893
_cell_length_c	12.1828
_cell_angle_alpha	112.143
_cell_angle_beta	89.979
_cell_angle_gamma	99.58
loop_
_atom_site_label
_atom_site_type_symbol
_atom_site_fract_x
_atom_site_fract_y
_atom_site_fract_z
_atom_site_charge
Mof_Gd	Gd	0.9924	0.14628	0.85478	1.699
Mof_Gd	Gd	0.4923	0.14571	0.75328	1.733
Mof_C 	C 	0.641	0.137	0.018	0.508
Mof_C 	C 	0.772	0.183	0.223	-0.208
Mof_H 	H 	0.7428	0.2136	0.3056	0.088
Mof_H 	H 	0.8599	0.2463	0.2135	0.088
Mof_C 	C 	0.852	0.074	0.201	0.369
Mof_C 	C 	0.641	0.926	0.646	0.457
Mof_C 	C 	0.719	0.812	0.591	-0.256
Mof_H 	H 	0.6331	0.7484	0.5338	0.106
Mof_H 	H 	0.7485	0.7836	0.652	0.107
Mof_C 	C 	0.758	0.529	0.138	-0.305
Mof_H 	H 	0.8857	0.5497	0.1503	0.124
Mof_H 	H 	0.7157	0.4814	0.1848	0.118
Mof_C 	C 	0.684	0.642	0.179	0.425
Mof_C 	C 	0.856	0.859	0.419	0.511
Mof_C 	C 	0.898	0.838	0.524	-0.337
Mof_H 	H 	0.9777	0.9084	0.5784	0.133
Mof_H 	H 	0.9567	0.7676	0.5023	0.128
Mof_C 	C 	0.706	0.451	0.004	-0.19
Mof_H 	H 	0.5829	0.412	0.9955	0.071
Mof_H 	H 	0.7175	0.5045	0.9607	0.091
Mof_C 	C 	0.816	0.356	0.953	0.357
Mof_O 	O 	0.776	0.2735	0.8462	-0.547
Mof_O 	O 	0.956	0.352	0.004	-0.4
Mof_O 	O 	0.759	0.977	0.209	-0.514
Mof_O 	O 	0.012	0.066	0.171	-0.403
Mof_O 	O 	0.54	0.646	0.241	-0.408
Mof_O 	O 	0.722	0.725	0.1443	-0.574
Mof_O 	O 	0.509	0.149	0.973	-0.452
Mof_O 	O 	0.775	0.099	0.976	-0.501
Mof_O 	O 	0.988	0.845	0.351	-0.439
Mof_O 	O 	0.724	0.89	0.399	-0.515
Mof_O 	O 	0.733	0.019	0.725	-0.552
Mof_O 	O 	0.489	0.93	0.621	-0.451
Mof_C 	C 	0.606	0.167	0.145	-0.296
Mof_H 	H 	0.518	0.1017	0.1518	0.122
Mof_H 	H 	0.5572	0.2416	0.175	0.115
Mof_Gd	Gd	0.0076	0.85372	0.14522	1.698
Mof_Gd	Gd	0.5077	0.85429	0.24672	1.732
Mof_C 	C 	0.359	0.863	0.982	0.507
Mof_C 	C 	0.228	0.817	0.777	-0.209
Mof_H 	H 	0.2572	0.7864	0.6944	0.088
Mof_H 	H 	0.1401	0.7537	0.7865	0.088
Mof_C 	C 	0.148	0.926	0.799	0.369
Mof_C 	C 	0.359	0.074	0.354	0.457
Mof_C 	C 	0.281	0.188	0.409	-0.256
Mof_H 	H 	0.3669	0.2516	0.4662	0.106
Mof_H 	H 	0.2515	0.2164	0.348	0.107
Mof_C 	C 	0.242	0.471	0.862	-0.305
Mof_H 	H 	0.1143	0.4503	0.8497	0.124
Mof_H 	H 	0.2843	0.5186	0.8152	0.118
Mof_C 	C 	0.316	0.358	0.821	0.425
Mof_C 	C 	0.144	0.141	0.581	0.511
Mof_C 	C 	0.102	0.162	0.476	-0.337
Mof_H 	H 	0.0223	0.0916	0.4216	0.133
Mof_H 	H 	0.0433	0.2324	0.4977	0.128
Mof_C 	C 	0.294	0.549	0.996	-0.19
Mof_H 	H 	0.4171	0.588	0.0045	0.071
Mof_H 	H 	0.2825	0.4955	0.0393	0.091
Mof_C 	C 	0.184	0.644	0.047	0.357
Mof_O 	O 	0.224	0.7265	0.1538	-0.547
Mof_O 	O 	0.044	0.648	0.996	-0.4
Mof_O 	O 	0.241	0.023	0.791	-0.514
Mof_O 	O 	0.988	0.934	0.829	-0.403
Mof_O 	O 	0.46	0.354	0.759	-0.408
Mof_O 	O 	0.278	0.275	0.8557	-0.574
Mof_O 	O 	0.491	0.851	0.027	-0.452
Mof_O 	O 	0.225	0.901	0.024	-0.501
Mof_O 	O 	0.012	0.155	0.649	-0.439
Mof_O 	O 	0.276	0.11	0.601	-0.515
Mof_O 	O 	0.267	0.981	0.275	-0.552
Mof_O 	O 	0.511	0.07	0.379	-0.451
Mof_C 	C 	0.394	0.833	0.855	-0.296
Mof_H 	H 	0.482	0.8983	0.8482	0.122
Mof_H 	H 	0.4428	0.7584	0.825	0.115
_end
