data_functionalizedCrystal
_audit_creation_method	'EQeq! by Chris Wilmer'
_symmetry_space_group_name_H-M	'P1'
_symmetry_Int_Tables_number	1
_symmetry_cell_setting	triclinic
loop_
_symmetry_equiv_pos_as_xyz
  x,y,z
_cell_length_a	33.2737
_cell_length_b	9.8531
_cell_length_c	18.218
_cell_angle_alpha	90
_cell_angle_beta	90
_cell_angle_gamma	90
loop_
_atom_site_label
_atom_site_type_symbol
_atom_site_fract_x
_atom_site_fract_y
_atom_site_fract_z
_atom_site_charge
Mof_Zn	Zn	0.5965	0.44929	0.49513	1.234
Mof_C 	C 	0.67388	0.3914	0.4925	0.349
Mof_C 	C 	0.71329	0.3173	0.4962	-0.074
Mof_C 	C 	0.749	0.3868	0.4963	-0.005
Mof_H 	H 	0.7486	0.4812	0.4964	0.057
Mof_C 	C 	0.71467	0.1791	0.4961	-0.006
Mof_H 	H 	0.6909	0.1293	0.4959	0.049
Mof_C 	C 	0.5467	0.2366	0.4611	0.289
Mof_C 	C 	0.52136	0.1161	0.4809	0.038
Mof_C 	C 	0.51956	0.0065	0.4333	-0.173
Mof_H 	H 	0.5327	0.0107	0.3883	0.099
Mof_C 	C 	0.49839	0.8908	0.4521	0.137
Mof_H 	H 	0.4974	0.8177	0.4199	0.01
Mof_C 	C 	0.55704	0.5913	0.37813	0.391
Mof_C 	C 	0.55955	0.6659	0.3062	-0.073
Mof_C 	C 	0.59604	0.7129	0.2796	-0.014
Mof_H 	H 	0.6195	0.6972	0.3059	0.064
Mof_C 	C 	0.52461	0.6904	0.2665	-0.013
Mof_H 	H 	0.5	0.6602	0.2844	0.059
Mof_C 	C 	0.59751	0.7826	0.2141	-0.011
Mof_H 	H 	0.6221	0.8137	0.1966	0.061
Mof_C 	C 	0.52628	0.7591	0.2009	-0.015
Mof_H 	H 	0.5028	0.7736	0.1743	0.065
Mof_C 	C 	0.56275	0.8073	0.17391	-0.072
Mof_C 	C 	0.56399	0.8814	0.10276	0.38
Mof_O 	O 	0.64277	0.3264	0.50291	-0.438
Mof_O 	O 	0.67347	0.5131	0.4788	-0.305
Mof_O 	O 	0.5465	0.3378	0.50741	-0.52
Mof_O 	O 	0.56736	0.2365	0.40584	-0.295
Mof_O 	O 	0.5903	0.5619	0.40781	-0.461
Mof_O 	O 	0.52308	0.5652	0.4022	-0.453
Mof_O 	O 	0.59542	0.9502	0.08965	-0.439
Mof_O 	O 	0.53485	0.8706	0.06079	-0.461
Mof_Zn	Zn	0.9035	0.05071	0.49513	1.22
Mof_C 	C 	0.82612	0.1086	0.4925	0.279
Mof_C 	C 	0.78671	0.1827	0.4962	-0.038
Mof_C 	C 	0.751	0.1132	0.4963	-0.041
Mof_H 	H 	0.7514	0.0188	0.4964	0.053
Mof_C 	C 	0.78533	0.3209	0.4961	-0.037
Mof_H 	H 	0.8091	0.3707	0.4959	0.069
Mof_C 	C 	0.9533	0.2634	0.4611	0.353
Mof_C 	C 	0.97864	0.3839	0.4809	-0.118
Mof_C 	C 	0.98044	0.4935	0.4333	0.08
Mof_H 	H 	0.9673	0.4893	0.3883	0.03
Mof_C 	C 	0.00161	0.6092	0.4521	-0.117
Mof_H 	H 	0.0026	0.6823	0.4199	0.084
Mof_C 	C 	0.94296	0.9087	0.37813	0.401
Mof_C 	C 	0.94045	0.8341	0.3062	-0.101
Mof_C 	C 	0.90396	0.7871	0.2796	0.013
Mof_H 	H 	0.8805	0.8028	0.3059	0.056
Mof_C 	C 	0.97539	0.8096	0.2665	0.066
Mof_H 	H 	2.69706e-33	0.8398	0.2844	0.016
Mof_C 	C 	0.90249	0.7174	0.2141	-0.034
Mof_H 	H 	0.8779	0.6863	0.1966	0.066
Mof_C 	C 	0.97372	0.7409	0.2009	-0.06
Mof_H 	H 	0.9972	0.7264	0.1743	0.089
Mof_C 	C 	0.93725	0.6927	0.17391	-0.047
Mof_C 	C 	0.93601	0.6186	0.10276	0.372
Mof_O 	O 	0.85723	0.1736	0.50291	-0.425
Mof_O 	O 	0.82653	0.9869	0.4788	-0.251
Mof_O 	O 	0.9535	0.1622	0.50741	-0.538
Mof_O 	O 	0.93264	0.2635	0.40584	-0.31
Mof_O 	O 	0.9097	0.9381	0.40781	-0.446
Mof_O 	O 	0.97692	0.9348	0.4022	-0.427
Mof_O 	O 	0.90458	0.5498	0.08965	-0.452
Mof_O 	O 	0.96515	0.6294	0.06079	-0.456
Mof_Zn	Zn	0.4035	0.94929	0.00487	1.231
Mof_C 	C 	0.32612	0.8914	0.0075	0.33
Mof_C 	C 	0.28671	0.8173	0.0038	-0.062
Mof_C 	C 	0.251	0.8868	0.0037	-0.011
Mof_H 	H 	0.2514	0.9812	0.0036	0.063
Mof_C 	C 	0.28533	0.6791	0.0039	-0.013
Mof_H 	H 	0.3091	0.6293	0.0041	0.052
Mof_C 	C 	0.4533	0.7366	0.0389	0.308
Mof_C 	C 	0.47864	0.6161	0.0191	-0.151
Mof_C 	C 	0.48044	0.5065	0.0667	0.068
Mof_H 	H 	0.4673	0.5107	0.1117	0.028
Mof_C 	C 	0.50161	0.3908	0.0479	-0.139
Mof_H 	H 	0.5026	0.3177	0.0801	0.093
Mof_C 	C 	0.44296	0.0913	0.12187	0.392
Mof_C 	C 	0.44045	0.1659	0.1938	-0.084
Mof_C 	C 	0.40396	0.2129	0.2204	-0.011
Mof_H 	H 	0.3805	0.1972	0.1941	0.057
Mof_C 	C 	0.47539	0.1904	0.2335	-0.011
Mof_H 	H 	0.5	0.1602	0.2156	0.048
Mof_C 	C 	0.40249	0.2826	0.2859	-0.018
Mof_H 	H 	0.3779	0.3137	0.3034	0.059
Mof_C 	C 	0.47372	0.2591	0.2991	-0.023
Mof_H 	H 	0.4972	0.2736	0.3257	0.061
Mof_C 	C 	0.43725	0.3073	0.32609	-0.072
Mof_C 	C 	0.43601	0.3814	0.39724	0.377
Mof_O 	O 	0.35723	0.8264	0.99709	-0.375
Mof_O 	O 	0.32653	0.0131	0.0212	-0.334
Mof_O 	O 	0.4535	0.8378	0.99259	-0.473
Mof_O 	O 	0.43264	0.7365	0.09416	-0.293
Mof_O 	O 	0.4097	0.0619	0.09219	-0.482
Mof_O 	O 	0.47692	0.0652	0.0978	-0.475
Mof_O 	O 	0.40458	0.4502	0.41035	-0.443
Mof_O 	O 	0.46515	0.3706	0.43921	-0.461
Mof_Zn	Zn	0.0965	0.55071	0.00487	1.219
Mof_C 	C 	0.17388	0.6086	0.0075	0.288
Mof_C 	C 	0.21329	0.6827	0.0038	-0.042
Mof_C 	C 	0.249	0.6132	0.0037	-0.032
Mof_H 	H 	0.2486	0.5188	0.0036	0.06
Mof_C 	C 	0.21467	0.8209	0.0039	-0.032
Mof_H 	H 	0.1909	0.8707	0.0041	0.063
Mof_C 	C 	0.0467	0.7634	0.0389	0.326
Mof_C 	C 	0.02136	0.8839	0.0191	-0.203
Mof_C 	C 	0.01956	0.9935	0.0667	0.128
Mof_H 	H 	0.0327	0.9893	0.1117	0.012
Mof_C 	C 	0.99839	0.1092	0.0479	-0.192
Mof_H 	H 	0.9974	0.1823	0.0801	0.116
Mof_C 	C 	0.05704	0.4087	0.12187	0.39
Mof_C 	C 	0.05955	0.3341	0.1938	-0.08
Mof_C 	C 	0.09604	0.2871	0.2204	-0.018
Mof_H 	H 	0.1195	0.3028	0.1941	0.059
Mof_C 	C 	0.02461	0.3096	0.2335	-0.02
Mof_H 	H 	1.49921e-33	0.3398	0.2156	0.047
Mof_C 	C 	0.09751	0.2174	0.2859	-0.011
Mof_H 	H 	0.1221	0.1863	0.3034	0.055
Mof_C 	C 	0.02628	0.2409	0.2991	-0.017
Mof_H 	H 	0.0028	0.2264	0.3257	0.048
Mof_C 	C 	0.06275	0.1927	0.32609	-0.083
Mof_C 	C 	0.06399	0.1186	0.39724	0.38
Mof_O 	O 	0.14277	0.6736	0.99709	-0.369
Mof_O 	O 	0.17347	0.4869	0.0212	-0.304
Mof_O 	O 	0.0465	0.6622	0.99259	-0.492
Mof_O 	O 	0.06736	0.7635	0.09416	-0.304
Mof_O 	O 	0.0903	0.4381	0.09219	-0.473
Mof_O 	O 	0.02308	0.4348	0.0978	-0.475
Mof_O 	O 	0.09542	0.0498	0.41035	-0.46
Mof_O 	O 	0.03485	0.1294	0.43921	-0.476
Mof_Zn	Zn	0.4035	0.55071	0.50487	1.235
Mof_C 	C 	0.32612	0.6086	0.5075	0.345
Mof_C 	C 	0.28671	0.6827	0.5038	-0.05
Mof_C 	C 	0.251	0.6132	0.5037	-0.026
Mof_H 	H 	0.2514	0.5188	0.5036	0.064
Mof_C 	C 	0.28533	0.8209	0.5039	-0.024
Mof_H 	H 	0.3091	0.8707	0.5041	0.072
Mof_C 	C 	0.4533	0.7634	0.5389	0.363
Mof_C 	C 	0.47864	0.8839	0.5191	-0.156
Mof_C 	C 	0.48044	0.9935	0.5667	0.141
Mof_H 	H 	0.4673	0.9893	0.6117	0.016
Mof_C 	C 	0.50161	0.1092	0.5479	-0.176
Mof_H 	H 	0.5026	0.1823	0.5801	0.105
Mof_C 	C 	0.44296	0.4087	0.62187	0.39
Mof_C 	C 	0.44045	0.3341	0.6938	-0.076
Mof_C 	C 	0.40396	0.2871	0.7204	-0.015
Mof_H 	H 	0.3805	0.3028	0.6941	0.062
Mof_C 	C 	0.47539	0.3096	0.7335	-0.017
Mof_H 	H 	0.5	0.3398	0.7156	0.054
Mof_C 	C 	0.40249	0.2174	0.7859	-0.013
Mof_H 	H 	0.3779	0.1863	0.8034	0.061
Mof_C 	C 	0.47372	0.2409	0.7991	-0.018
Mof_H 	H 	0.4972	0.2264	0.8257	0.056
Mof_C 	C 	0.43725	0.1927	0.82609	-0.075
Mof_C 	C 	0.43601	0.1186	0.89724	0.375
Mof_O 	O 	0.35723	0.6736	0.49709	-0.428
Mof_O 	O 	0.32653	0.4869	0.5212	-0.307
Mof_O 	O 	0.4535	0.6622	0.49259	-0.533
Mof_O 	O 	0.43264	0.7635	0.59416	-0.302
Mof_O 	O 	0.4097	0.4381	0.59219	-0.462
Mof_O 	O 	0.47692	0.4348	0.5978	-0.458
Mof_O 	O 	0.40458	0.0498	0.91035	-0.444
Mof_O 	O 	0.46515	0.1294	0.93921	-0.453
Mof_Zn	Zn	0.0965	0.94929	0.50487	1.247
Mof_C 	C 	0.17388	0.8914	0.5075	0.395
Mof_C 	C 	0.21329	0.8173	0.5038	-0.075
Mof_C 	C 	0.249	0.8868	0.5037	0
Mof_H 	H 	0.2486	0.9812	0.5036	0.067
Mof_C 	C 	0.21467	0.6791	0.5039	-0.001
Mof_H 	H 	0.1909	0.6293	0.5041	0.058
Mof_C 	C 	0.0467	0.7366	0.5389	0.299
Mof_C 	C 	0.02136	0.6161	0.5191	0.001
Mof_C 	C 	0.01956	0.5065	0.5667	-0.112
Mof_H 	H 	0.0327	0.5107	0.6117	0.086
Mof_C 	C 	0.99839	0.3908	0.5479	0.076
Mof_H 	H 	0.9974	0.3177	0.5801	0.033
Mof_C 	C 	0.05704	0.0913	0.62187	0.394
Mof_C 	C 	0.05955	0.1659	0.6938	-0.087
Mof_C 	C 	0.09604	0.2129	0.7204	-0.008
Mof_H 	H 	0.1195	0.1972	0.6941	0.059
Mof_C 	C 	0.02461	0.1904	0.7335	-0.011
Mof_H 	H 	5.69548e-33	0.1602	0.7156	0.042
Mof_C 	C 	0.09751	0.2826	0.7859	-0.02
Mof_H 	H 	0.1221	0.3137	0.8034	0.065
Mof_C 	C 	0.02628	0.2591	0.7991	-0.026
Mof_H 	H 	0.0028	0.2736	0.8257	0.055
Mof_C 	C 	0.06275	0.3073	0.82609	-0.068
Mof_C 	C 	0.06399	0.3814	0.89724	0.374
Mof_O 	O 	0.14277	0.8264	0.49709	-0.437
Mof_O 	O 	0.17347	0.0131	0.5212	-0.345
Mof_O 	O 	0.0465	0.8378	0.49259	-0.511
Mof_O 	O 	0.06736	0.7365	0.59416	-0.285
Mof_O 	O 	0.0903	0.0619	0.59219	-0.475
Mof_O 	O 	0.02308	0.0652	0.5978	-0.478
Mof_O 	O 	0.09542	0.4502	0.91035	-0.428
Mof_O 	O 	0.03485	0.3706	0.93921	-0.451
Mof_Zn	Zn	0.5965	0.05071	0.99513	1.233
Mof_C 	C 	0.67388	0.1086	0.9925	0.322
Mof_C 	C 	0.71329	0.1827	0.9962	-0.044
Mof_C 	C 	0.749	0.1132	0.9963	-0.036
Mof_H 	H 	0.7486	0.0188	0.9964	0.056
Mof_C 	C 	0.71467	0.3209	0.9961	-0.03
Mof_H 	H 	0.6909	0.3707	0.9959	0.076
Mof_C 	C 	0.5467	0.2634	0.9611	0.337
Mof_C 	C 	0.52136	0.3839	0.9809	0.035
Mof_C 	C 	0.51956	0.4935	0.9333	-0.101
Mof_H 	H 	0.5327	0.4893	0.8883	0.088
Mof_C 	C 	0.49839	0.6092	0.9521	0.101
Mof_H 	H 	0.4974	0.6823	0.9199	0.023
Mof_C 	C 	0.55704	0.9087	0.87813	0.386
Mof_C 	C 	0.55955	0.8341	0.8062	-0.061
Mof_C 	C 	0.59604	0.7871	0.7796	-0.02
Mof_H 	H 	0.6195	0.8028	0.8059	0.071
Mof_C 	C 	0.52461	0.8096	0.7665	-0.021
Mof_H 	H 	0.5	0.8398	0.7844	0.067
Mof_C 	C 	0.59751	0.7174	0.7141	-0.003
Mof_H 	H 	0.6221	0.6863	0.6966	0.061
Mof_C 	C 	0.52628	0.7409	0.7009	-0.007
Mof_H 	H 	0.5028	0.7264	0.6743	0.06
Mof_C 	C 	0.56275	0.6927	0.67391	-0.077
Mof_C 	C 	0.56399	0.6186	0.60276	0.382
Mof_O 	O 	0.64277	0.1736	0.00291	-0.472
Mof_O 	O 	0.67347	0.9869	0.9788	-0.249
Mof_O 	O 	0.5465	0.1622	0.00741	-0.568
Mof_O 	O 	0.56736	0.2635	0.90584	-0.304
Mof_O 	O 	0.5903	0.9381	0.90781	-0.433
Mof_O 	O 	0.52308	0.9348	0.9022	-0.424
Mof_O 	O 	0.59542	0.5498	0.58965	-0.443
Mof_O 	O 	0.53485	0.6294	0.56079	-0.459
Mof_Zn	Zn	0.9035	0.44929	0.99513	1.249
Mof_C 	C 	0.82612	0.3914	0.9925	0.399
Mof_C 	C 	0.78671	0.3173	0.9962	-0.081
Mof_C 	C 	0.751	0.3868	0.9963	0.003
Mof_H 	H 	0.7514	0.4812	0.9964	0.062
Mof_C 	C 	0.78533	0.1791	0.9961	0.004
Mof_H 	H 	0.8091	0.1293	0.9959	0.055
Mof_C 	C 	0.9533	0.2366	0.9611	0.32
Mof_C 	C 	0.97864	0.1161	0.9809	0.076
Mof_C 	C 	0.98044	0.0065	0.9333	-0.18
Mof_H 	H 	0.9673	0.0107	0.8883	0.107
Mof_C 	C 	0.00161	0.8908	0.9521	0.184
Mof_H 	H 	0.0026	0.8177	0.9199	-0.007
Mof_C 	C 	0.94296	0.5913	0.87813	0.404
Mof_C 	C 	0.94045	0.6659	0.8062	-0.105
Mof_C 	C 	0.90396	0.7129	0.7796	0.021
Mof_H 	H 	0.8805	0.6972	0.8059	0.057
Mof_C 	C 	0.97539	0.6904	0.7665	0.068
Mof_H 	H 	-2.61618e-33	0.6602	0.7844	0.017
Mof_C 	C 	0.90249	0.7826	0.7141	-0.04
Mof_H 	H 	0.8779	0.8137	0.6966	0.077
Mof_C 	C 	0.97372	0.7591	0.7009	-0.064
Mof_H 	H 	0.9972	0.7736	0.6743	0.093
Mof_C 	C 	0.93725	0.8073	0.67391	-0.034
Mof_C 	C 	0.93601	0.8814	0.60276	0.366
Mof_O 	O 	0.85723	0.3264	0.00291	-0.486
Mof_O 	O 	0.82653	0.5131	0.9788	-0.306
Mof_O 	O 	0.9535	0.3378	0.00741	-0.547
Mof_O 	O 	0.93264	0.2365	0.90584	-0.292
Mof_O 	O 	0.9097	0.5619	0.90781	-0.452
Mof_O 	O 	0.97692	0.5652	0.9022	-0.432
Mof_O 	O 	0.90458	0.9502	0.58965	-0.418
Mof_O 	O 	0.96515	0.8706	0.56079	-0.433
Mof_Zn	Zn	0.5	0.5	0.5	1.236
Mof_Zn	Zn	1.02643e-33	0	0.5	1.217
Mof_Zn	Zn	0.5	0	-0	1.213
Mof_Zn	Zn	-0	0.5	-0	1.217
_end
