data_functionalizedCrystal
_audit_creation_method	'EQeq! by Chris Wilmer'
_symmetry_space_group_name_H-M	'P1'
_symmetry_Int_Tables_number	1
_symmetry_cell_setting	triclinic
loop_
_symmetry_equiv_pos_as_xyz
  x,y,z
_cell_length_a	9.7561
_cell_length_b	10.2852
_cell_length_c	11.0465
_cell_angle_alpha	95.127
_cell_angle_beta	95.109
_cell_angle_gamma	105.974
loop_
_atom_site_label
_atom_site_type_symbol
_atom_site_fract_x
_atom_site_fract_y
_atom_site_fract_z
_atom_site_charge
Mof_U 	U 	0.33279	0.38788	0.36936	0.014
Mof_U 	U 	0.135	0.17206	0.82735	0.026
Mof_P 	P 	0.0542	0.1834	0.1452	0.391
Mof_P 	P 	0.6327	0.5413	0.2904	0.389
Mof_O 	O 	0.0338	0.1647	0.007	-0.155
Mof_O 	O 	0.2069	0.2656	0.1964	-0.149
Mof_O 	O 	0.011	0.0491	0.2004	-0.139
Mof_O 	O 	0.1128	0.2735	0.4365	-0.159
Mof_O 	O 	0.8918	0.1886	0.4798	-0.161
Mof_O 	O 	0.6944	0.6868	0.2735	-0.146
Mof_O 	O 	0.4884	0.4715	0.2121	-0.164
Mof_O 	O 	0.6025	0.5214	0.4224	-0.145
Mof_O 	O 	0.6467	0.406	0.9381	-0.433
Mof_H 	H 	0.6526	0.4465	0.8772	0.317
Mof_O 	O 	0.7361	0.61	0.0417	-0.202
Mof_C 	C 	0.9407	0.2864	0.1911	-0.013
Mof_C 	C 	0.8722	0.3414	0.0997	-0.002
Mof_H 	H 	0.8857	0.3234	0.0183	0.077
Mof_C 	C 	0.7832	0.4237	0.1301	-0.05
Mof_C 	C 	0.7536	0.4459	0.2503	0.012
Mof_C 	C 	0.8248	0.3852	0.3415	-0.028
Mof_H 	H 	0.8073	0.3979	0.4225	0.087
Mof_C 	C 	0.9154	0.3112	0.3138	-0.011
Mof_C 	C 	0.9802	0.257	0.4181	0.273
Mof_C 	C 	0.7214	0.4868	0.0315	0.368
Mof_U 	U 	0.66721	0.61212	0.63064	0.015
Mof_U 	U 	0.865	0.82794	0.17265	0.027
Mof_P 	P 	0.9458	0.8166	0.8548	0.392
Mof_P 	P 	0.3673	0.4587	0.7096	0.39
Mof_O 	O 	0.9662	0.8353	0.993	-0.154
Mof_O 	O 	0.7931	0.7344	0.8036	-0.148
Mof_O 	O 	0.989	0.9509	0.7996	-0.139
Mof_O 	O 	0.8872	0.7265	0.5635	-0.159
Mof_O 	O 	0.1082	0.8114	0.5202	-0.161
Mof_O 	O 	0.3056	0.3132	0.7265	-0.146
Mof_O 	O 	0.5116	0.5285	0.7879	-0.164
Mof_O 	O 	0.3975	0.4786	0.5776	-0.145
Mof_O 	O 	0.3533	0.594	0.0619	-0.433
Mof_H 	H 	0.3474	0.5535	0.1228	0.317
Mof_O 	O 	0.2639	0.39	0.9583	-0.202
Mof_C 	C 	0.0593	0.7136	0.8089	-0.013
Mof_C 	C 	0.1278	0.6586	0.9003	-0.002
Mof_H 	H 	0.1143	0.6766	0.9817	0.077
Mof_C 	C 	0.2168	0.5763	0.8699	-0.05
Mof_C 	C 	0.2464	0.5541	0.7497	0.012
Mof_C 	C 	0.1752	0.6148	0.6585	-0.028
Mof_H 	H 	0.1927	0.6021	0.5775	0.087
Mof_C 	C 	0.0846	0.6888	0.6862	-0.011
Mof_C 	C 	0.0198	0.743	0.5819	0.273
Mof_C 	C 	0.2786	0.5132	0.9685	0.368
_end
