data_functionalizedCrystal
_audit_creation_method	'EQeq! by Chris Wilmer'
_symmetry_space_group_name_H-M	'P1'
_symmetry_Int_Tables_number	1
_symmetry_cell_setting	triclinic
loop_
_symmetry_equiv_pos_as_xyz
  x,y,z
_cell_length_a	9.6189
_cell_length_b	10.639
_cell_length_c	10.986
_cell_angle_alpha	79.523
_cell_angle_beta	64.995
_cell_angle_gamma	70.574
loop_
_atom_site_label
_atom_site_type_symbol
_atom_site_fract_x
_atom_site_fract_y
_atom_site_fract_z
_atom_site_charge
Mof_Cu	Cu	0.65174	0.15708	0.54579	0.874
Mof_Cu	Cu	0.34826	0.84292	0.45421	0.87
Mof_Cu	Cu	-5.55251e-17	0.5	0.5	0.89
Mof_Mo	Mo	0.35329	0.20841	0.40615	1.537
Mof_Mo	Mo	0.64671	0.79159	0.59385	1.544
Mof_H 	H 	0.5611	0.2098	0.8338	-0.035
Mof_H 	H 	0.3637	0.2032	0.041	0.032
Mof_H 	H 	0.2141	0.1135	0.2283	0.05
Mof_H 	H 	0.0034	0.1217	0.4285	-0.093
Mof_H 	H 	0.7083	0.2011	0.2519	-0.053
Mof_H 	H 	0.9104	0.1925	0.0469	0.068
Mof_H 	H 	0.1393	0.0808	0.8739	0.072
Mof_H 	H 	0.3491	0.0793	0.6736	-0.042
Mof_H 	H 	0.2351	0.4798	0.825	0.046
Mof_H 	H 	0.2297	0.481	0.6191	-0.032
Mof_H 	H 	0.767	0.5215	0.9882	0.043
Mof_H 	H 	0.772	0.5293	0.7786	-0.056
Mof_H 	H 	0.4389	0.7902	0.1662	-0.049
Mof_H 	H 	0.6363	0.7968	0.959	0.056
Mof_H 	H 	0.7859	0.8865	0.7717	0.002
Mof_H 	H 	0.9966	0.8783	0.5715	0.017
Mof_H 	H 	0.2917	0.7989	0.7481	-0.056
Mof_H 	H 	0.0896	0.8075	0.9531	0.077
Mof_H 	H 	0.8607	0.9192	0.1261	0.082
Mof_H 	H 	0.6509	0.9207	0.3264	-0.042
Mof_H 	H 	0.7649	0.5202	0.175	0.085
Mof_H 	H 	0.7703	0.519	0.3809	-0.053
Mof_H 	H 	0.233	0.4785	0.0118	0.089
Mof_H 	H 	0.228	0.4707	0.2214	-0.07
Mof_C 	C 	0.4745	0.1833	0.8421	0.054
Mof_C 	C 	0.3555	0.1812	0.9666	-0.122
Mof_C 	C 	0.2239	0.1466	0.9813	0.053
Mof_C 	C 	0.0883	0.1518	0.1126	0.04
Mof_C 	C 	0.1118	0.1313	0.2303	-0.207
Mof_C 	C 	0.9842	0.137	0.3501	0.161
Mof_C 	C 	0.812	0.183	0.247	0.101
Mof_C 	C 	0.9324	0.1782	0.1238	-0.14
Mof_C 	C 	0.2245	0.1077	0.8683	-0.169
Mof_C 	C 	0.3499	0.1087	0.748	0.09
Mof_C 	C 	0.139	0.489	0.8183	-0.099
Mof_C 	C 	0.1346	0.491	0.6949	0.062
Mof_C 	C 	0.0004	0.5005	0.9326	-0.031
Mof_C 	C 	0.8633	0.5145	0.9141	-0.088
Mof_C 	C 	0.867	0.5182	0.7882	0.085
Mof_C 	C 	0.5255	0.8167	0.1579	0.073
Mof_C 	C 	0.6445	0.8188	0.0334	-0.162
Mof_C 	C 	0.7761	0.8534	0.0187	0.06
Mof_C 	C 	0.9117	0.8482	0.8874	0.058
Mof_C 	C 	0.8882	0.8687	0.7697	-0.057
Mof_C 	C 	0.0158	0.863	0.6499	-0.047
Mof_C 	C 	0.188	0.817	0.753	0.108
Mof_C 	C 	0.0676	0.8218	0.8762	-0.189
Mof_C 	C 	0.7755	0.8923	0.1317	-0.173
Mof_C 	C 	0.6501	0.8913	0.252	0.095
Mof_C 	C 	0.861	0.511	0.1817	-0.209
Mof_C 	C 	0.8654	0.509	0.3051	0.13
Mof_C 	C 	0.9996	0.4995	0.0674	0.165
Mof_C 	C 	0.1367	0.4855	0.0859	-0.244
Mof_C 	C 	0.133	0.4818	0.2118	0.104
Mof_N 	N 	0.4731	0.1493	0.7319	-0.249
Mof_N 	N 	0.8346	0.163	0.3619	-0.255
Mof_N 	N 	0.0007	0.5065	0.679	-0.254
Mof_N 	N 	0.5269	0.8507	0.2681	-0.255
Mof_N 	N 	0.1654	0.837	0.6381	-0.226
Mof_N 	N 	0.9993	0.4935	0.321	-0.243
Mof_O 	O 	0.4979	0.2085	0.4648	-0.651
Mof_O 	O 	0.2934	0.0658	0.4658	-0.623
Mof_O 	O 	0.1886	0.3492	0.4602	-0.67
Mof_O 	O 	0.5021	0.7915	0.5352	-0.652
Mof_O 	O 	0.7066	0.9342	0.5342	-0.62
Mof_O 	O 	0.8114	0.6508	0.5398	-0.657
_end
