data_functionalizedCrystal
_audit_creation_method	'EQeq! by Chris Wilmer'
_symmetry_space_group_name_H-M	'P1'
_symmetry_Int_Tables_number	1
_symmetry_cell_setting	triclinic
loop_
_symmetry_equiv_pos_as_xyz
  x,y,z
_cell_length_a	9.899
_cell_length_b	10.362
_cell_length_c	13.18
_cell_angle_alpha	68.87
_cell_angle_beta	70.65
_cell_angle_gamma	80.77
loop_
_atom_site_label
_atom_site_type_symbol
_atom_site_fract_x
_atom_site_fract_y
_atom_site_fract_z
_atom_site_charge
Mof_Cd	Cd	0.01405	0.30815	0.76365	0.487
Mof_O 	O 	0.1164	0.2049	0.9058	-0.277
Mof_O 	O 	0.285	0.3196	0.7581	-0.233
Mof_O 	O 	0.7795	0.2848	0.8005	-0.249
Mof_O 	O 	0.8129	0.151	0.9651	-0.243
Mof_O 	O 	0.0876	0.1537	0.6774	-0.274
Mof_O 	O 	0.0449	0.9638	0.8318	-0.246
Mof_O 	O 	0.9919	0.5286	0.7749	-0.211
Mof_O 	O 	0.0778	0.507	0.6058	-0.236
Mof_C 	C 	0.3428	0.2066	0.9324	0.034
Mof_C 	C 	0.4871	0.229	0.8838	-0.075
Mof_H 	H 	0.5237	0.2721	0.8056	0.092
Mof_C 	C 	0.5778	0.1867	0.9521	0.031
Mof_C 	C 	0.5214	0.1235	0.0695	-0.145
Mof_H 	H 	0.5823	0.0936	0.115	0.101
Mof_C 	C 	0.376	0.105	0.1188	0.114
Mof_C 	C 	0.2865	0.1483	0.0492	-0.147
Mof_H 	H 	0.1882	0.1379	0.0814	0.098
Mof_C 	C 	0.2439	0.2473	0.8585	0.275
Mof_C 	C 	0.7339	0.2081	0.9019	0.274
Mof_C 	C 	0.3159	0.0409	0.2395	-0.078
Mof_C 	C 	0.2587	0.9867	0.3393	0.049
Mof_C 	C 	0.1021	0.942	0.6484	-0.024
Mof_C 	C 	0.0627	0.8055	0.6922	-0.03
Mof_H 	H 	0.0198	0.7655	0.77	0.072
Mof_C 	C 	0.0872	0.7281	0.62	-0.021
Mof_C 	C 	0.1509	0.7871	0.5034	-0.052
Mof_H 	H 	0.1668	0.7355	0.4552	0.083
Mof_C 	C 	0.1907	0.9244	0.4594	0.015
Mof_C 	C 	0.1638	0.9997	0.5326	-0.019
Mof_H 	H 	0.1881	0.0919	0.5028	0.053
Mof_C 	C 	0.0756	0.0271	0.7264	0.269
Mof_C 	C 	0.0507	0.5786	0.6698	0.254
Mof_Cd	Cd	0.98595	0.69185	0.23635	0.531
Mof_O 	O 	0.8836	0.7951	0.0942	-0.282
Mof_O 	O 	0.715	0.6804	0.2419	-0.24
Mof_O 	O 	0.2205	0.7152	0.1995	-0.279
Mof_O 	O 	0.1871	0.849	0.0349	-0.282
Mof_O 	O 	0.9124	0.8463	0.3226	-0.274
Mof_O 	O 	0.9551	0.0362	0.1682	-0.277
Mof_O 	O 	0.0081	0.4714	0.2251	-0.285
Mof_O 	O 	0.9222	0.493	0.3942	-0.239
Mof_C 	C 	0.6572	0.7934	0.0676	-0.082
Mof_C 	C 	0.5129	0.771	0.1162	0.027
Mof_H 	H 	0.4763	0.7279	0.1944	0.058
Mof_C 	C 	0.4222	0.8133	0.0479	-0.09
Mof_C 	C 	0.4786	0.8765	0.9305	0.01
Mof_H 	H 	0.4177	0.9064	0.885	0.063
Mof_C 	C 	0.624	0.895	0.8812	-0.001
Mof_C 	C 	0.7135	0.8517	0.9508	0.005
Mof_H 	H 	0.8118	0.8621	0.9186	0.071
Mof_C 	C 	0.7561	0.7527	0.1415	0.311
Mof_C 	C 	0.2661	0.7919	0.0981	0.319
Mof_C 	C 	0.6841	0.9591	0.7605	0.041
Mof_C 	C 	0.7413	0.0133	0.6607	-0.046
Mof_C 	C 	0.8979	0.058	0.3516	-0.027
Mof_C 	C 	0.9373	0.1945	0.3078	-0.025
Mof_H 	H 	0.9802	0.2345	0.23	0.079
Mof_C 	C 	0.9128	0.2719	0.38	-0.019
Mof_C 	C 	0.8491	0.2129	0.4966	-0.076
Mof_H 	H 	0.8332	0.2645	0.5448	0.097
Mof_C 	C 	0.8093	0.0756	0.5406	0.081
Mof_C 	C 	0.8362	0.0003	0.4674	-0.096
Mof_H 	H 	0.8119	0.9081	0.4972	0.104
Mof_C 	C 	0.9244	0.9729	0.2736	0.327
Mof_C 	C 	0.9493	0.4214	0.3302	0.315
Mof_Cd	Cd	-0	0	-0	0.44
_end
