data_functionalizedCrystal
_audit_creation_method	'EQeq! by Chris Wilmer'
_symmetry_space_group_name_H-M	'P1'
_symmetry_Int_Tables_number	1
_symmetry_cell_setting	triclinic
loop_
_symmetry_equiv_pos_as_xyz
  x,y,z
_cell_length_a	18.295
_cell_length_b	10.8482
_cell_length_c	17.3984
_cell_angle_alpha	90
_cell_angle_beta	101.395
_cell_angle_gamma	90
loop_
_atom_site_label
_atom_site_type_symbol
_atom_site_fract_x
_atom_site_fract_y
_atom_site_fract_z
_atom_site_charge
Mof_Yb	Yb	0.48898	0.40159	0.10204	1.873
Mof_C 	C 	0.6134	0.6078	0.083	0.471
Mof_O 	O 	0.5632	0.3429	0.0212	-0.524
Mof_O 	O 	0.5834	0.423	0.9087	-0.463
Mof_O 	O 	0.5757	0.5494	0.1251	-0.5
Mof_O 	O 	0.9259	0.8938	0.1972	-0.533
Mof_O 	O 	0.915	0.8085	0.3104	-0.492
Mof_C 	C 	0.8198	0.7699	0.199	-0.141
Mof_C 	C 	0.6033	0.36	0.9704	0.446
Mof_C 	C 	0.8919	0.8273	0.2385	0.456
Mof_C 	C 	0.72	0.295	0.9254	-0.013
Mof_H 	H 	0.6996	0.3258	0.8745	0.046
Mof_O 	O 	0.5966	0.6197	0.0099	-0.539
Mof_C 	C 	0.6849	0.6661	0.124	-0.118
Mof_C 	C 	0.7171	0.7607	0.0877	-0.012
Mof_H 	H 	0.6933	0.7894	0.0374	0.028
Mof_C 	C 	0.72	0.6237	0.1981	-0.012
Mof_H 	H 	0.6979	0.5597	0.223	0.047
Mof_C 	C 	0.6794	0.3027	0.9853	-0.11
Mof_C 	C 	0.787	0.6751	0.2351	-0
Mof_H 	H 	0.8109	0.6458	0.2853	0.032
Mof_C 	C 	0.7837	0.8126	0.1253	-0.004
Mof_H 	H 	0.8052	0.8779	0.1009	0.023
Mof_C 	C 	0.7097	0.2579	0.0593	-0.012
Mof_H 	H 	0.682	0.2636	0.0999	0.045
Mof_Yb	Yb	0.98898	0.90159	0.10204	1.847
Mof_C 	C 	0.1134	0.1078	0.083	0.466
Mof_O 	O 	0.0632	0.8429	0.0212	-0.518
Mof_O 	O 	0.0834	0.923	0.9087	-0.461
Mof_O 	O 	0.0757	0.0494	0.1251	-0.492
Mof_O 	O 	0.4259	0.3938	0.1972	-0.534
Mof_O 	O 	0.415	0.3085	0.3104	-0.491
Mof_C 	C 	0.3198	0.2699	0.199	-0.142
Mof_C 	C 	0.1033	0.86	0.9704	0.441
Mof_C 	C 	0.3919	0.3273	0.2385	0.458
Mof_C 	C 	0.22	0.795	0.9254	-0.009
Mof_H 	H 	0.1996	0.8258	0.8745	0.045
Mof_O 	O 	0.0966	0.1197	0.0099	-0.528
Mof_C 	C 	0.1849	0.1661	0.124	-0.113
Mof_C 	C 	0.2171	0.2607	0.0877	-0.014
Mof_H 	H 	0.1933	0.2894	0.0374	0.032
Mof_C 	C 	0.22	0.1237	0.1981	-0.014
Mof_H 	H 	0.1979	0.0597	0.223	0.048
Mof_C 	C 	0.1794	0.8027	0.9853	-0.114
Mof_C 	C 	0.287	0.1751	0.2351	0.002
Mof_H 	H 	0.3109	0.1458	0.2853	0.032
Mof_C 	C 	0.2837	0.3126	0.1253	-0.001
Mof_H 	H 	0.3052	0.3779	0.1009	0.025
Mof_C 	C 	0.2097	0.7579	0.0593	-0.007
Mof_H 	H 	0.182	0.7636	0.0999	0.044
Mof_Yb	Yb	0.51102	0.40159	0.39796	1.87
Mof_C 	C 	0.3866	0.6078	0.417	0.469
Mof_O 	O 	0.4368	0.3429	0.4788	-0.525
Mof_O 	O 	0.4166	0.423	0.5913	-0.464
Mof_O 	O 	0.4243	0.5494	0.3749	-0.5
Mof_O 	O 	0.0741	0.8938	0.3028	-0.533
Mof_O 	O 	0.085	0.8085	0.1896	-0.487
Mof_C 	C 	0.1802	0.7699	0.301	-0.14
Mof_C 	C 	0.3967	0.36	0.5296	0.447
Mof_C 	C 	0.1081	0.8273	0.2615	0.456
Mof_C 	C 	0.28	0.295	0.5746	-0.011
Mof_H 	H 	0.3004	0.3258	0.6255	0.045
Mof_O 	O 	0.4034	0.6197	0.4901	-0.537
Mof_C 	C 	0.3151	0.6661	0.376	-0.117
Mof_C 	C 	0.2829	0.7607	0.4123	-0.012
Mof_H 	H 	0.3067	0.7894	0.4626	0.03
Mof_C 	C 	0.28	0.6237	0.3019	-0.012
Mof_H 	H 	0.3021	0.5597	0.277	0.047
Mof_C 	C 	0.3206	0.3027	0.5147	-0.112
Mof_C 	C 	0.213	0.6751	0.2649	-0
Mof_H 	H 	0.1891	0.6458	0.2147	0.033
Mof_C 	C 	0.2163	0.8126	0.3747	-0.003
Mof_H 	H 	0.1948	0.8779	0.3991	0.024
Mof_C 	C 	0.2903	0.2579	0.4407	-0.01
Mof_H 	H 	0.318	0.2636	0.4001	0.044
Mof_Yb	Yb	0.01102	0.90159	0.39796	1.876
Mof_C 	C 	0.8866	0.1078	0.417	0.47
Mof_O 	O 	0.9368	0.8429	0.4788	-0.526
Mof_O 	O 	0.9166	0.923	0.5913	-0.464
Mof_O 	O 	0.9243	0.0494	0.3749	-0.5
Mof_O 	O 	0.5741	0.3938	0.3028	-0.534
Mof_O 	O 	0.585	0.3085	0.1896	-0.491
Mof_C 	C 	0.6802	0.2699	0.301	-0.141
Mof_C 	C 	0.8967	0.86	0.5296	0.448
Mof_C 	C 	0.6081	0.3273	0.2615	0.457
Mof_C 	C 	0.78	0.795	0.5746	-0.011
Mof_H 	H 	0.8004	0.8258	0.6255	0.046
Mof_O 	O 	0.9034	0.1197	0.4901	-0.538
Mof_C 	C 	0.8151	0.1661	0.376	-0.117
Mof_C 	C 	0.7829	0.2607	0.4123	-0.012
Mof_H 	H 	0.8067	0.2894	0.4626	0.03
Mof_C 	C 	0.78	0.1237	0.3019	-0.013
Mof_H 	H 	0.8021	0.0597	0.277	0.048
Mof_C 	C 	0.8206	0.8027	0.5147	-0.112
Mof_C 	C 	0.713	0.1751	0.2649	0
Mof_H 	H 	0.6891	0.1458	0.2147	0.032
Mof_C 	C 	0.7163	0.3126	0.3747	-0.003
Mof_H 	H 	0.6948	0.3779	0.3991	0.025
Mof_C 	C 	0.7903	0.7579	0.4407	-0.01
Mof_H 	H 	0.818	0.7636	0.4001	0.044
Mof_Yb	Yb	0.51102	0.59841	0.89796	1.872
Mof_C 	C 	0.3866	0.3922	0.917	0.47
Mof_O 	O 	0.4368	0.6571	0.9788	-0.525
Mof_O 	O 	0.4166	0.577	0.0913	-0.464
Mof_O 	O 	0.4243	0.4506	0.8749	-0.5
Mof_O 	O 	0.0741	0.1062	0.8028	-0.533
Mof_O 	O 	0.085	0.1915	0.6896	-0.492
Mof_C 	C 	0.1802	0.2301	0.801	-0.141
Mof_C 	C 	0.3967	0.64	0.0296	0.446
Mof_C 	C 	0.1081	0.1727	0.7615	0.456
Mof_C 	C 	0.28	0.705	0.0746	-0.013
Mof_H 	H 	0.3004	0.6742	0.1255	0.046
Mof_O 	O 	0.4034	0.3803	0.9901	-0.539
Mof_C 	C 	0.3151	0.3339	0.876	-0.118
Mof_C 	C 	0.2829	0.2393	0.9123	-0.012
Mof_H 	H 	0.3067	0.2106	0.9626	0.028
Mof_C 	C 	0.28	0.3763	0.8019	-0.012
Mof_H 	H 	0.3021	0.4403	0.777	0.047
Mof_C 	C 	0.3206	0.6973	0.0147	-0.11
Mof_C 	C 	0.213	0.3249	0.7649	-0
Mof_H 	H 	0.1891	0.3542	0.7147	0.032
Mof_C 	C 	0.2163	0.1874	0.8747	-0.004
Mof_H 	H 	0.1948	0.1221	0.8991	0.023
Mof_C 	C 	0.2903	0.7421	0.9407	-0.012
Mof_H 	H 	0.318	0.7364	0.9001	0.045
Mof_Yb	Yb	0.01102	0.09841	0.89796	1.847
Mof_C 	C 	0.8866	0.8922	0.917	0.466
Mof_O 	O 	0.9368	0.1571	0.9788	-0.518
Mof_O 	O 	0.9166	0.077	0.0913	-0.461
Mof_O 	O 	0.9243	0.9506	0.8749	-0.492
Mof_O 	O 	0.5741	0.6062	0.8028	-0.534
Mof_O 	O 	0.585	0.6915	0.6896	-0.491
Mof_C 	C 	0.6802	0.7301	0.801	-0.142
Mof_C 	C 	0.8967	0.14	0.0296	0.441
Mof_C 	C 	0.6081	0.6727	0.7615	0.458
Mof_C 	C 	0.78	0.205	0.0746	-0.009
Mof_H 	H 	0.8004	0.1742	0.1255	0.045
Mof_O 	O 	0.9034	0.8803	0.9901	-0.528
Mof_C 	C 	0.8151	0.8339	0.876	-0.113
Mof_C 	C 	0.7829	0.7393	0.9123	-0.014
Mof_H 	H 	0.8067	0.7106	0.9626	0.032
Mof_C 	C 	0.78	0.8763	0.8019	-0.014
Mof_H 	H 	0.8021	0.9403	0.777	0.048
Mof_C 	C 	0.8206	0.1973	0.0147	-0.114
Mof_C 	C 	0.713	0.8249	0.7649	0.002
Mof_H 	H 	0.6891	0.8542	0.7147	0.032
Mof_C 	C 	0.7163	0.6874	0.8747	-0.001
Mof_H 	H 	0.6948	0.6221	0.8991	0.025
Mof_C 	C 	0.7903	0.2421	0.9407	-0.007
Mof_H 	H 	0.818	0.2364	0.9001	0.044
Mof_Yb	Yb	0.48898	0.59841	0.60204	1.87
Mof_C 	C 	0.6134	0.3922	0.583	0.469
Mof_O 	O 	0.5632	0.6571	0.5212	-0.525
Mof_O 	O 	0.5834	0.577	0.4087	-0.464
Mof_O 	O 	0.5757	0.4506	0.6251	-0.5
Mof_O 	O 	0.9259	0.1062	0.6972	-0.533
Mof_O 	O 	0.915	0.1915	0.8104	-0.487
Mof_C 	C 	0.8198	0.2301	0.699	-0.14
Mof_C 	C 	0.6033	0.64	0.4704	0.447
Mof_C 	C 	0.8919	0.1727	0.7385	0.456
Mof_C 	C 	0.72	0.705	0.4254	-0.011
Mof_H 	H 	0.6996	0.6742	0.3745	0.045
Mof_O 	O 	0.5966	0.3803	0.5099	-0.537
Mof_C 	C 	0.6849	0.3339	0.624	-0.117
Mof_C 	C 	0.7171	0.2393	0.5877	-0.012
Mof_H 	H 	0.6933	0.2106	0.5374	0.03
Mof_C 	C 	0.72	0.3763	0.6981	-0.012
Mof_H 	H 	0.6979	0.4403	0.723	0.047
Mof_C 	C 	0.6794	0.6973	0.4853	-0.112
Mof_C 	C 	0.787	0.3249	0.7351	-0
Mof_H 	H 	0.8109	0.3542	0.7853	0.033
Mof_C 	C 	0.7837	0.1874	0.6253	-0.003
Mof_H 	H 	0.8052	0.1221	0.6009	0.024
Mof_C 	C 	0.7097	0.7421	0.5593	-0.01
Mof_H 	H 	0.682	0.7364	0.5999	0.044
Mof_Yb	Yb	0.98898	0.09841	0.60204	1.876
Mof_C 	C 	0.1134	0.8922	0.583	0.47
Mof_O 	O 	0.0632	0.1571	0.5212	-0.526
Mof_O 	O 	0.0834	0.077	0.4087	-0.464
Mof_O 	O 	0.0757	0.9506	0.6251	-0.5
Mof_O 	O 	0.4259	0.6062	0.6972	-0.534
Mof_O 	O 	0.415	0.6915	0.8104	-0.491
Mof_C 	C 	0.3198	0.7301	0.699	-0.141
Mof_C 	C 	0.1033	0.14	0.4704	0.448
Mof_C 	C 	0.3919	0.6727	0.7385	0.457
Mof_C 	C 	0.22	0.205	0.4254	-0.011
Mof_H 	H 	0.1996	0.1742	0.3745	0.046
Mof_O 	O 	0.0966	0.8803	0.5099	-0.538
Mof_C 	C 	0.1849	0.8339	0.624	-0.117
Mof_C 	C 	0.2171	0.7393	0.5877	-0.012
Mof_H 	H 	0.1933	0.7106	0.5374	0.03
Mof_C 	C 	0.22	0.8763	0.6981	-0.013
Mof_H 	H 	0.1979	0.9403	0.723	0.048
Mof_C 	C 	0.1794	0.1973	0.4853	-0.112
Mof_C 	C 	0.287	0.8249	0.7351	0
Mof_H 	H 	0.3109	0.8542	0.7853	0.032
Mof_C 	C 	0.2837	0.6874	0.6253	-0.003
Mof_H 	H 	0.3052	0.6221	0.6009	0.025
Mof_C 	C 	0.2097	0.2421	0.5593	-0.01
Mof_H 	H 	0.182	0.2364	0.5999	0.044
_end
