data_functionalizedCrystal
_audit_creation_method	'EQeq! by Chris Wilmer'
_symmetry_space_group_name_H-M	'P1'
_symmetry_Int_Tables_number	1
_symmetry_cell_setting	triclinic
loop_
_symmetry_equiv_pos_as_xyz
  x,y,z
_cell_length_a	19.3474
_cell_length_b	43.6051
_cell_length_c	43.6051
_cell_angle_alpha	90
_cell_angle_beta	90
_cell_angle_gamma	90
loop_
_atom_site_label
_atom_site_type_symbol
_atom_site_fract_x
_atom_site_fract_y
_atom_site_fract_z
_atom_site_charge
Mof_Pr	Pr	0.78697	0.47303	0.87578	2.712
Mof_Pr	Pr	0.77837	0.45455	0.76615	2.755
Mof_Pr	Pr	0.63558	0.39537	0.83636	2.792
Mof_Pr	Pr	0.58426	0.50062	0.81754	2.816
Mof_Pr	Pr	0.16054	0.7374	0.69689	2.809
Mof_Pr	Pr	0.78697	0.02697	0.62422	2.712
Mof_Pr	Pr	0.77837	0.04545	0.73385	2.754
Mof_Pr	Pr	0.63558	0.10463	0.66364	2.791
Mof_Pr	Pr	0.58426	0.99938	0.68246	2.815
Mof_Pr	Pr	0.16054	0.7626	0.80311	2.808
Mof_Pr	Pr	0.28697	0.12422	0.97303	2.711
Mof_Pr	Pr	0.27837	0.23385	0.95455	2.754
Mof_Pr	Pr	0.13558	0.16364	0.89537	2.791
Mof_Pr	Pr	0.08426	0.18246	0.00062	2.815
Mof_Pr	Pr	0.66054	0.30311	0.2374	2.808
Mof_Pr	Pr	0.28697	0.37578	0.52697	2.711
Mof_Pr	Pr	0.27837	0.26615	0.54545	2.754
Mof_Pr	Pr	0.13558	0.33636	0.60463	2.791
Mof_Pr	Pr	0.08426	0.31754	0.49938	2.815
Mof_Pr	Pr	0.66054	0.19689	0.2626	2.808
Mof_Pr	Pr	0.21303	0.52697	0.12422	2.711
Mof_Pr	Pr	0.22163	0.54545	0.23385	2.754
Mof_Pr	Pr	0.36442	0.60463	0.16364	2.791
Mof_Pr	Pr	0.41574	0.49938	0.18246	2.815
Mof_Pr	Pr	0.83946	0.2626	0.30311	2.808
Mof_Pr	Pr	0.21303	0.97303	0.37578	2.711
Mof_Pr	Pr	0.22163	0.95455	0.26615	2.754
Mof_Pr	Pr	0.36442	0.89537	0.33636	2.791
Mof_Pr	Pr	0.41574	0.00062	0.31754	2.815
Mof_Pr	Pr	0.83946	0.2374	0.19689	2.808
Mof_Pr	Pr	0.71303	0.87578	0.02697	2.711
Mof_Pr	Pr	0.72163	0.76615	0.04545	2.754
Mof_Pr	Pr	0.86442	0.83636	0.10463	2.791
Mof_Pr	Pr	0.91574	0.81754	0.99938	2.815
Mof_Pr	Pr	0.33946	0.69689	0.7626	2.808
Mof_Pr	Pr	0.71303	0.62422	0.47303	2.711
Mof_Pr	Pr	0.72163	0.73385	0.45455	2.754
Mof_Pr	Pr	0.86442	0.66364	0.39537	2.791
Mof_Pr	Pr	0.91574	0.68246	0.50062	2.815
Mof_Pr	Pr	0.33946	0.80311	0.7374	2.808
Mof_Sb	Sb	0.65787	0.42518	0.91535	0.54
Mof_Sb	Sb	0.61704	0.50555	0.90196	0.555
Mof_Sb	Sb	0.7243	0.54877	0.84861	0.542
Mof_Sb	Sb	0.87091	0.51312	0.81131	0.555
Mof_Sb	Sb	0.91022	0.43342	0.82472	0.542
Mof_Sb	Sb	0.80388	0.38847	0.87674	0.542
Mof_Sb	Sb	0.50495	0.44605	0.87254	0.535
Mof_Sb	Sb	0.71779	0.5342	0.76693	0.549
Mof_Sb	Sb	0.7971	0.37484	0.79521	0.527
Mof_Sb	Sb	0.60571	0.47397	0.73787	0.528
Mof_Sb	Sb	0.64252	0.3939	0.75168	0.564
Mof_Sb	Sb	0.49669	0.43116	0.79059	0.547
Mof_Sb	Sb	0.18496	0.65802	0.72994	0.556
Mof_Sb	Sb	0.18323	0.6794	0.81039	0.548
Mof_Sb	Sb	0.05117	0.70949	0.75852	0.54
Mof_Sb	Sb	0.65787	0.07482	0.58465	0.54
Mof_Sb	Sb	0.61704	0.99445	0.59804	0.555
Mof_Sb	Sb	0.7243	0.95123	0.65139	0.542
Mof_Sb	Sb	0.87091	0.98688	0.68869	0.555
Mof_Sb	Sb	0.91022	0.06658	0.67528	0.542
Mof_Sb	Sb	0.80388	0.11153	0.62326	0.542
Mof_Sb	Sb	0.50495	0.05395	0.62746	0.535
Mof_Sb	Sb	0.71779	0.9658	0.73307	0.549
Mof_Sb	Sb	0.7971	0.12516	0.70479	0.527
Mof_Sb	Sb	0.60571	0.02603	0.76213	0.528
Mof_Sb	Sb	0.64252	0.1061	0.74832	0.564
Mof_Sb	Sb	0.49669	0.06884	0.70941	0.547
Mof_Sb	Sb	0.18496	0.84198	0.77006	0.556
Mof_Sb	Sb	0.18323	0.8206	0.68961	0.548
Mof_Sb	Sb	0.05117	0.79051	0.74148	0.54
Mof_Sb	Sb	0.15787	0.08465	0.92518	0.541
Mof_Sb	Sb	0.11704	0.09804	0.00555	0.554
Mof_Sb	Sb	0.2243	0.15139	0.04877	0.542
Mof_Sb	Sb	0.37091	0.18869	0.01312	0.555
Mof_Sb	Sb	0.41022	0.17528	0.93342	0.542
Mof_Sb	Sb	0.30388	0.12326	0.88847	0.543
Mof_Sb	Sb	0.00495	0.12746	0.94605	0.535
Mof_Sb	Sb	0.21779	0.23307	0.0342	0.549
Mof_Sb	Sb	0.2971	0.20479	0.87484	0.528
Mof_Sb	Sb	0.10571	0.26213	0.97397	0.528
Mof_Sb	Sb	0.14252	0.24832	0.8939	0.564
Mof_Sb	Sb	0.99669	0.20941	0.93116	0.546
Mof_Sb	Sb	0.68496	0.27006	0.15802	0.556
Mof_Sb	Sb	0.68323	0.18961	0.1794	0.548
Mof_Sb	Sb	0.55117	0.24148	0.20949	0.54
Mof_Sb	Sb	0.15787	0.41535	0.57482	0.54
Mof_Sb	Sb	0.11704	0.40196	0.49445	0.555
Mof_Sb	Sb	0.2243	0.34861	0.45123	0.542
Mof_Sb	Sb	0.37091	0.31131	0.48688	0.555
Mof_Sb	Sb	0.41022	0.32472	0.56658	0.542
Mof_Sb	Sb	0.30388	0.37674	0.61153	0.543
Mof_Sb	Sb	0.00495	0.37254	0.55395	0.535
Mof_Sb	Sb	0.21779	0.26693	0.4658	0.549
Mof_Sb	Sb	0.2971	0.29521	0.62516	0.528
Mof_Sb	Sb	0.10571	0.23787	0.52603	0.528
Mof_Sb	Sb	0.14252	0.25168	0.6061	0.564
Mof_Sb	Sb	0.99669	0.29059	0.56884	0.547
Mof_Sb	Sb	0.68496	0.22994	0.34198	0.556
Mof_Sb	Sb	0.68323	0.31039	0.3206	0.548
Mof_Sb	Sb	0.55117	0.25852	0.29051	0.54
Mof_Sb	Sb	0.34213	0.57482	0.08465	0.54
Mof_Sb	Sb	0.38296	0.49445	0.09804	0.555
Mof_Sb	Sb	0.2757	0.45123	0.15139	0.542
Mof_Sb	Sb	0.12909	0.48688	0.18869	0.555
Mof_Sb	Sb	0.08978	0.56658	0.17528	0.542
Mof_Sb	Sb	0.19612	0.61153	0.12326	0.542
Mof_Sb	Sb	0.49505	0.55395	0.12746	0.535
Mof_Sb	Sb	0.28221	0.4658	0.23307	0.549
Mof_Sb	Sb	0.2029	0.62516	0.20479	0.527
Mof_Sb	Sb	0.39429	0.52603	0.26213	0.528
Mof_Sb	Sb	0.35748	0.6061	0.24832	0.564
Mof_Sb	Sb	0.50331	0.56884	0.20941	0.547
Mof_Sb	Sb	0.81504	0.34198	0.27006	0.556
Mof_Sb	Sb	0.81677	0.3206	0.18961	0.548
Mof_Sb	Sb	0.94883	0.29051	0.24148	0.54
Mof_Sb	Sb	0.34213	0.92518	0.41535	0.54
Mof_Sb	Sb	0.38296	0.00555	0.40196	0.555
Mof_Sb	Sb	0.2757	0.04877	0.34861	0.542
Mof_Sb	Sb	0.12909	0.01312	0.31131	0.555
Mof_Sb	Sb	0.08978	0.93342	0.32472	0.542
Mof_Sb	Sb	0.19612	0.88847	0.37674	0.542
Mof_Sb	Sb	0.49505	0.94605	0.37254	0.535
Mof_Sb	Sb	0.28221	0.0342	0.26693	0.549
Mof_Sb	Sb	0.2029	0.87484	0.29521	0.527
Mof_Sb	Sb	0.39429	0.97397	0.23787	0.528
Mof_Sb	Sb	0.35748	0.8939	0.25168	0.564
Mof_Sb	Sb	0.50331	0.93116	0.29059	0.547
Mof_Sb	Sb	0.81504	0.15802	0.22994	0.556
Mof_Sb	Sb	0.81677	0.1794	0.31039	0.548
Mof_Sb	Sb	0.94883	0.20949	0.25852	0.54
Mof_Sb	Sb	0.84213	0.91535	0.07482	0.541
Mof_Sb	Sb	0.88296	0.90196	0.99445	0.554
Mof_Sb	Sb	0.7757	0.84861	0.95123	0.542
Mof_Sb	Sb	0.62909	0.81131	0.98688	0.555
Mof_Sb	Sb	0.58978	0.82472	0.06658	0.542
Mof_Sb	Sb	0.69612	0.87674	0.11153	0.543
Mof_Sb	Sb	0.99505	0.87254	0.05395	0.535
Mof_Sb	Sb	0.78221	0.76693	0.9658	0.549
Mof_Sb	Sb	0.7029	0.79521	0.12516	0.528
Mof_Sb	Sb	0.89429	0.73787	0.02603	0.528
Mof_Sb	Sb	0.85748	0.75168	0.1061	0.564
Mof_Sb	Sb	0.00331	0.79059	0.06884	0.546
Mof_Sb	Sb	0.31504	0.72994	0.84198	0.556
Mof_Sb	Sb	0.31677	0.81039	0.8206	0.548
Mof_Sb	Sb	0.44883	0.75852	0.79051	0.54
Mof_Sb	Sb	0.84213	0.58465	0.42518	0.54
Mof_Sb	Sb	0.88296	0.59804	0.50555	0.555
Mof_Sb	Sb	0.7757	0.65139	0.54877	0.542
Mof_Sb	Sb	0.62909	0.68869	0.51312	0.555
Mof_Sb	Sb	0.58978	0.67528	0.43342	0.542
Mof_Sb	Sb	0.69612	0.62326	0.38847	0.543
Mof_Sb	Sb	0.99505	0.62746	0.44605	0.535
Mof_Sb	Sb	0.78221	0.73307	0.5342	0.549
Mof_Sb	Sb	0.7029	0.70479	0.37484	0.528
Mof_Sb	Sb	0.89429	0.76213	0.47397	0.528
Mof_Sb	Sb	0.85748	0.74832	0.3939	0.564
Mof_Sb	Sb	0.00331	0.70941	0.43116	0.547
Mof_Sb	Sb	0.31504	0.77006	0.65802	0.556
Mof_Sb	Sb	0.31677	0.68961	0.6794	0.548
Mof_Sb	Sb	0.44883	0.74148	0.70949	0.54
Mof_H 	H 	0.4285	0.5303	0.7562	0.032
Mof_H 	H 	0.3357	0.5613	0.7423	0.032
Mof_H 	H 	0.4633	0.6007	0.9047	0.046
Mof_H 	H 	0.3783	0.6385	0.8885	0.029
Mof_H 	H 	0.0114	0.3914	0.6654	0.044
Mof_H 	H 	0.94	0.414	0.7053	0.049
Mof_H 	H 	0.4285	0.9697	0.7438	0.032
Mof_H 	H 	0.3357	0.9387	0.7577	0.032
Mof_H 	H 	0.4633	0.8993	0.5953	0.046
Mof_H 	H 	0.3783	0.8615	0.6115	0.029
Mof_H 	H 	0.0114	0.1086	0.8346	0.044
Mof_H 	H 	0.94	0.086	0.7947	0.049
Mof_H 	H 	0.9285	0.2438	0.0303	0.032
Mof_H 	H 	0.8357	0.2577	0.0613	0.032
Mof_H 	H 	0.9633	0.0953	0.1007	0.046
Mof_H 	H 	0.8783	0.1115	0.1385	0.028
Mof_H 	H 	0.5114	0.3346	0.8914	0.044
Mof_H 	H 	0.44	0.2947	0.914	0.049
Mof_H 	H 	0.9285	0.2562	0.4697	0.032
Mof_H 	H 	0.8357	0.2423	0.4387	0.032
Mof_H 	H 	0.9633	0.4047	0.3993	0.046
Mof_H 	H 	0.8783	0.3885	0.3615	0.029
Mof_H 	H 	0.5114	0.1654	0.6086	0.044
Mof_H 	H 	0.44	0.2053	0.586	0.049
Mof_H 	H 	0.5715	0.4697	0.2438	0.032
Mof_H 	H 	0.6643	0.4387	0.2577	0.032
Mof_H 	H 	0.5367	0.3993	0.0953	0.046
Mof_H 	H 	0.6217	0.3615	0.1115	0.029
Mof_H 	H 	0.9886	0.6086	0.3346	0.044
Mof_H 	H 	0.06	0.586	0.2947	0.049
Mof_H 	H 	0.5715	0.0303	0.2562	0.032
Mof_H 	H 	0.6643	0.0613	0.2423	0.032
Mof_H 	H 	0.5367	0.1007	0.4047	0.046
Mof_H 	H 	0.6217	0.1385	0.3885	0.029
Mof_H 	H 	0.9886	0.8914	0.1654	0.044
Mof_H 	H 	0.06	0.914	0.2053	0.049
Mof_H 	H 	0.0715	0.7562	0.9697	0.032
Mof_H 	H 	0.1643	0.7423	0.9387	0.032
Mof_H 	H 	0.0367	0.9047	0.8993	0.046
Mof_H 	H 	0.1217	0.8885	0.8615	0.028
Mof_H 	H 	0.4886	0.6654	0.1086	0.044
Mof_H 	H 	0.56	0.7053	0.086	0.049
Mof_H 	H 	0.0715	0.7438	0.5303	0.032
Mof_H 	H 	0.1643	0.7577	0.5613	0.032
Mof_H 	H 	0.0367	0.5953	0.6007	0.046
Mof_H 	H 	0.1217	0.6115	0.6385	0.029
Mof_H 	H 	0.4886	0.8346	0.3914	0.044
Mof_H 	H 	0.56	0.7947	0.414	0.049
Mof_C 	C 	0.5566	0.5566	0.7599	0.468
Mof_C 	C 	0.4901	0.5684	0.7533	-0.171
Mof_C 	C 	0.4315	0.5512	0.7522	0.009
Mof_C 	C 	0.3797	0.5695	0.7446	0.028
Mof_C 	C 	0.3894	0.6006	0.7399	-0.194
Mof_C 	C 	0.3435	0.6245	0.7325	0.519
Mof_C 	C 	0.5291	0.5617	0.8597	0.474
Mof_C 	C 	0.4765	0.5873	0.8592	-0.126
Mof_C 	C 	0.4504	0.604	0.8844	-0.018
Mof_C 	C 	0.4023	0.6261	0.8748	0.027
Mof_C 	C 	0.3935	0.6279	0.8443	-0.165
Mof_C 	C 	0.3507	0.6502	0.8282	0.478
Mof_C 	C 	0.9615	0.3473	0.6262	0.482
Mof_C 	C 	0.9329	0.3644	0.6518	-0.154
Mof_C 	C 	0.9657	0.3857	0.6688	0.017
Mof_C 	C 	0.9247	0.3987	0.6921	0.005
Mof_C 	C 	0.8605	0.3864	0.6933	-0.137
Mof_C 	C 	0.8046	0.3937	0.7156	0.479
Mof_C 	C 	0.5566	0.9434	0.7401	0.468
Mof_C 	C 	0.4901	0.9316	0.7467	-0.171
Mof_C 	C 	0.4315	0.9488	0.7478	0.009
Mof_C 	C 	0.3797	0.9305	0.7554	0.028
Mof_C 	C 	0.3894	0.8994	0.7601	-0.194
Mof_C 	C 	0.3435	0.8755	0.7675	0.519
Mof_C 	C 	0.5291	0.9383	0.6403	0.474
Mof_C 	C 	0.4765	0.9127	0.6408	-0.126
Mof_C 	C 	0.4504	0.896	0.6156	-0.018
Mof_C 	C 	0.4023	0.8739	0.6252	0.027
Mof_C 	C 	0.3935	0.8721	0.6557	-0.165
Mof_C 	C 	0.3507	0.8498	0.6718	0.478
Mof_C 	C 	0.9615	0.1527	0.8738	0.481
Mof_C 	C 	0.9329	0.1356	0.8482	-0.154
Mof_C 	C 	0.9657	0.1143	0.8312	0.017
Mof_C 	C 	0.9247	0.1013	0.8079	0.005
Mof_C 	C 	0.8605	0.1136	0.8067	-0.137
Mof_C 	C 	0.8046	0.1063	0.7844	0.479
Mof_C 	C 	0.0566	0.2401	0.0566	0.468
Mof_C 	C 	0.9901	0.2467	0.0684	-0.171
Mof_C 	C 	0.9315	0.2478	0.0512	0.009
Mof_C 	C 	0.8797	0.2554	0.0695	0.028
Mof_C 	C 	0.8894	0.2601	0.1006	-0.194
Mof_C 	C 	0.8435	0.2675	0.1245	0.519
Mof_C 	C 	0.0291	0.1403	0.0617	0.473
Mof_C 	C 	0.9765	0.1408	0.0873	-0.126
Mof_C 	C 	0.9504	0.1156	0.104	-0.018
Mof_C 	C 	0.9023	0.1252	0.1261	0.027
Mof_C 	C 	0.8935	0.1557	0.1279	-0.165
Mof_C 	C 	0.8507	0.1718	0.1502	0.478
Mof_C 	C 	0.4615	0.3738	0.8473	0.482
Mof_C 	C 	0.4329	0.3482	0.8644	-0.154
Mof_C 	C 	0.4657	0.3312	0.8857	0.018
Mof_C 	C 	0.4247	0.3079	0.8987	0.004
Mof_C 	C 	0.3605	0.3067	0.8864	-0.136
Mof_C 	C 	0.3046	0.2844	0.8937	0.479
Mof_C 	C 	0.0566	0.2599	0.4434	0.468
Mof_C 	C 	0.9901	0.2533	0.4316	-0.171
Mof_C 	C 	0.9315	0.2522	0.4488	0.009
Mof_C 	C 	0.8797	0.2446	0.4305	0.028
Mof_C 	C 	0.8894	0.2399	0.3994	-0.194
Mof_C 	C 	0.8435	0.2325	0.3755	0.519
Mof_C 	C 	0.0291	0.3597	0.4383	0.474
Mof_C 	C 	0.9765	0.3592	0.4127	-0.126
Mof_C 	C 	0.9504	0.3844	0.396	-0.018
Mof_C 	C 	0.9023	0.3748	0.3739	0.027
Mof_C 	C 	0.8935	0.3443	0.3721	-0.165
Mof_C 	C 	0.8507	0.3282	0.3498	0.478
Mof_C 	C 	0.4615	0.1262	0.6527	0.482
Mof_C 	C 	0.4329	0.1518	0.6356	-0.154
Mof_C 	C 	0.4657	0.1688	0.6143	0.018
Mof_C 	C 	0.4247	0.1921	0.6013	0.004
Mof_C 	C 	0.3605	0.1933	0.6136	-0.136
Mof_C 	C 	0.3046	0.2156	0.6063	0.479
Mof_C 	C 	0.4434	0.4434	0.2401	0.468
Mof_C 	C 	0.5099	0.4316	0.2467	-0.171
Mof_C 	C 	0.5685	0.4488	0.2478	0.009
Mof_C 	C 	0.6203	0.4305	0.2554	0.028
Mof_C 	C 	0.6106	0.3994	0.2601	-0.194
Mof_C 	C 	0.6565	0.3755	0.2675	0.519
Mof_C 	C 	0.4709	0.4383	0.1403	0.474
Mof_C 	C 	0.5235	0.4127	0.1408	-0.126
Mof_C 	C 	0.5496	0.396	0.1156	-0.018
Mof_C 	C 	0.5977	0.3739	0.1252	0.027
Mof_C 	C 	0.6065	0.3721	0.1557	-0.165
Mof_C 	C 	0.6493	0.3498	0.1718	0.478
Mof_C 	C 	0.0385	0.6527	0.3738	0.482
Mof_C 	C 	0.0671	0.6356	0.3482	-0.154
Mof_C 	C 	0.0343	0.6143	0.3312	0.017
Mof_C 	C 	0.0753	0.6013	0.3079	0.005
Mof_C 	C 	0.1395	0.6136	0.3067	-0.137
Mof_C 	C 	0.1954	0.6063	0.2844	0.479
Mof_C 	C 	0.4434	0.0566	0.2599	0.468
Mof_C 	C 	0.5099	0.0684	0.2533	-0.171
Mof_C 	C 	0.5685	0.0512	0.2522	0.009
Mof_C 	C 	0.6203	0.0695	0.2446	0.028
Mof_C 	C 	0.6106	0.1006	0.2399	-0.194
Mof_C 	C 	0.6565	0.1245	0.2325	0.519
Mof_C 	C 	0.4709	0.0617	0.3597	0.474
Mof_C 	C 	0.5235	0.0873	0.3592	-0.126
Mof_C 	C 	0.5496	0.104	0.3844	-0.018
Mof_C 	C 	0.5977	0.1261	0.3748	0.027
Mof_C 	C 	0.6065	0.1279	0.3443	-0.165
Mof_C 	C 	0.6493	0.1502	0.3282	0.478
Mof_C 	C 	0.0385	0.8473	0.1262	0.481
Mof_C 	C 	0.0671	0.8644	0.1518	-0.154
Mof_C 	C 	0.0343	0.8857	0.1688	0.017
Mof_C 	C 	0.0753	0.8987	0.1921	0.005
Mof_C 	C 	0.1395	0.8864	0.1933	-0.137
Mof_C 	C 	0.1954	0.8937	0.2156	0.479
Mof_C 	C 	0.9434	0.7599	0.9434	0.468
Mof_C 	C 	0.0099	0.7533	0.9316	-0.171
Mof_C 	C 	0.0685	0.7522	0.9488	0.009
Mof_C 	C 	0.1203	0.7446	0.9305	0.028
Mof_C 	C 	0.1106	0.7399	0.8994	-0.194
Mof_C 	C 	0.1565	0.7325	0.8755	0.519
Mof_C 	C 	0.9709	0.8597	0.9383	0.473
Mof_C 	C 	0.0235	0.8592	0.9127	-0.126
Mof_C 	C 	0.0496	0.8844	0.896	-0.018
Mof_C 	C 	0.0977	0.8748	0.8739	0.027
Mof_C 	C 	0.1065	0.8443	0.8721	-0.165
Mof_C 	C 	0.1493	0.8282	0.8498	0.478
Mof_C 	C 	0.5385	0.6262	0.1527	0.482
Mof_C 	C 	0.5671	0.6518	0.1356	-0.154
Mof_C 	C 	0.5343	0.6688	0.1143	0.018
Mof_C 	C 	0.5753	0.6921	0.1013	0.004
Mof_C 	C 	0.6395	0.6933	0.1136	-0.136
Mof_C 	C 	0.6954	0.7156	0.1063	0.479
Mof_C 	C 	0.9434	0.7401	0.5566	0.468
Mof_C 	C 	0.0099	0.7467	0.5684	-0.171
Mof_C 	C 	0.0685	0.7478	0.5512	0.009
Mof_C 	C 	0.1203	0.7554	0.5695	0.028
Mof_C 	C 	0.1106	0.7601	0.6006	-0.194
Mof_C 	C 	0.1565	0.7675	0.6245	0.519
Mof_C 	C 	0.9709	0.6403	0.5617	0.474
Mof_C 	C 	0.0235	0.6408	0.5873	-0.126
Mof_C 	C 	0.0496	0.6156	0.604	-0.018
Mof_C 	C 	0.0977	0.6252	0.6261	0.027
Mof_C 	C 	0.1065	0.6557	0.6279	-0.165
Mof_C 	C 	0.1493	0.6718	0.6502	0.478
Mof_C 	C 	0.5385	0.8738	0.3473	0.482
Mof_C 	C 	0.5671	0.8482	0.3644	-0.154
Mof_C 	C 	0.5343	0.8312	0.3857	0.018
Mof_C 	C 	0.5753	0.8079	0.3987	0.004
Mof_C 	C 	0.6395	0.8067	0.3864	-0.136
Mof_C 	C 	0.6954	0.7844	0.3937	0.479
Mof_S 	S 	0.8489	0.35956	0.66485	0.088
Mof_S 	S 	0.4415	0.60082	0.82582	0.106
Mof_S 	S 	0.4751	0.60577	0.7447	0.126
Mof_S 	S 	0.8489	0.14044	0.83515	0.088
Mof_S 	S 	0.4415	0.89918	0.67418	0.106
Mof_S 	S 	0.4751	0.89423	0.7553	0.126
Mof_S 	S 	0.3489	0.33515	0.85956	0.088
Mof_S 	S 	0.9415	0.17418	0.10082	0.106
Mof_S 	S 	0.9751	0.2553	0.10577	0.126
Mof_S 	S 	0.3489	0.16485	0.64044	0.088
Mof_S 	S 	0.9415	0.32582	0.39918	0.106
Mof_S 	S 	0.9751	0.2447	0.39423	0.126
Mof_S 	S 	0.1511	0.64044	0.33515	0.088
Mof_S 	S 	0.5585	0.39918	0.17418	0.106
Mof_S 	S 	0.5249	0.39423	0.2553	0.126
Mof_S 	S 	0.1511	0.85956	0.16485	0.088
Mof_S 	S 	0.5585	0.10082	0.32582	0.106
Mof_S 	S 	0.5249	0.10577	0.2447	0.126
Mof_S 	S 	0.6511	0.66485	0.14044	0.088
Mof_S 	S 	0.0585	0.82582	0.89918	0.106
Mof_S 	S 	0.0249	0.7447	0.89423	0.126
Mof_S 	S 	0.6511	0.83515	0.35956	0.088
Mof_S 	S 	0.0585	0.67418	0.60082	0.106
Mof_S 	S 	0.0249	0.7553	0.60577	0.126
Mof_Cl	Cl	0.6959	0.4557	0.8249	-1.165
Mof_Cl	Cl	0.932	0.4891	0.87733	-0.548
Mof_Cl	Cl	0.8206	0.44175	0.93208	-0.551
Mof_Cl	Cl	0.7718	0.52798	0.91515	-0.54
Mof_Cl	Cl	0.9308	0.47015	0.76217	-0.533
Mof_Cl	Cl	0.7613	0.48767	0.70872	-0.558
Mof_Cl	Cl	0.649	0.3393	0.80004	-0.558
Mof_Cl	Cl	0.6637	0.35446	0.89013	-0.541
Mof_Cl	Cl	0.4305	0.48913	0.82093	-0.54
Mof_Cl	Cl	0.003	0.73514	0.69686	-0.529
Mof_Cl	Cl	0.6959	0.0443	0.6751	-1.165
Mof_Cl	Cl	0.932	0.0109	0.62267	-0.548
Mof_Cl	Cl	0.8206	0.05825	0.56792	-0.55
Mof_Cl	Cl	0.7718	0.97202	0.58485	-0.539
Mof_Cl	Cl	0.9308	0.02985	0.73783	-0.533
Mof_Cl	Cl	0.7613	0.01233	0.79128	-0.558
Mof_Cl	Cl	0.649	0.1607	0.69996	-0.558
Mof_Cl	Cl	0.6637	0.14554	0.60987	-0.541
Mof_Cl	Cl	0.4305	0.01087	0.67907	-0.54
Mof_Cl	Cl	0.003	0.76486	0.80314	-0.529
Mof_Cl	Cl	0.1959	0.1751	0.9557	-1.165
Mof_Cl	Cl	0.432	0.12267	0.9891	-0.548
Mof_Cl	Cl	0.3206	0.06792	0.94175	-0.55
Mof_Cl	Cl	0.2718	0.08485	0.02798	-0.539
Mof_Cl	Cl	0.4308	0.23783	0.97015	-0.532
Mof_Cl	Cl	0.2613	0.29128	0.98767	-0.558
Mof_Cl	Cl	0.149	0.19996	0.8393	-0.558
Mof_Cl	Cl	0.1637	0.10987	0.85446	-0.541
Mof_Cl	Cl	0.9305	0.17907	0.98913	-0.54
Mof_Cl	Cl	0.503	0.30314	0.23514	-0.529
Mof_Cl	Cl	0.1959	0.3249	0.5443	-1.165
Mof_Cl	Cl	0.432	0.37733	0.5109	-0.548
Mof_Cl	Cl	0.3206	0.43208	0.55825	-0.55
Mof_Cl	Cl	0.2718	0.41515	0.47202	-0.539
Mof_Cl	Cl	0.4308	0.26217	0.52985	-0.532
Mof_Cl	Cl	0.2613	0.20872	0.51233	-0.558
Mof_Cl	Cl	0.149	0.30004	0.6607	-0.558
Mof_Cl	Cl	0.1637	0.39013	0.64554	-0.541
Mof_Cl	Cl	0.9305	0.32093	0.51087	-0.54
Mof_Cl	Cl	0.503	0.19686	0.26486	-0.529
Mof_Cl	Cl	0.3041	0.5443	0.1751	-1.165
Mof_Cl	Cl	0.068	0.5109	0.12267	-0.548
Mof_Cl	Cl	0.1794	0.55825	0.06792	-0.551
Mof_Cl	Cl	0.2282	0.47202	0.08485	-0.54
Mof_Cl	Cl	0.0692	0.52985	0.23783	-0.533
Mof_Cl	Cl	0.2387	0.51233	0.29128	-0.558
Mof_Cl	Cl	0.351	0.6607	0.19996	-0.558
Mof_Cl	Cl	0.3363	0.64554	0.10987	-0.541
Mof_Cl	Cl	0.5695	0.51087	0.17907	-0.54
Mof_Cl	Cl	0.997	0.26486	0.30314	-0.529
Mof_Cl	Cl	0.3041	0.9557	0.3249	-1.165
Mof_Cl	Cl	0.068	0.9891	0.37733	-0.548
Mof_Cl	Cl	0.1794	0.94175	0.43208	-0.55
Mof_Cl	Cl	0.2282	0.02798	0.41515	-0.539
Mof_Cl	Cl	0.0692	0.97015	0.26217	-0.533
Mof_Cl	Cl	0.2387	0.98767	0.20872	-0.558
Mof_Cl	Cl	0.351	0.8393	0.30004	-0.558
Mof_Cl	Cl	0.3363	0.85446	0.39013	-0.541
Mof_Cl	Cl	0.5695	0.98913	0.32093	-0.54
Mof_Cl	Cl	0.997	0.23514	0.19686	-0.529
Mof_Cl	Cl	0.8041	0.8249	0.0443	-1.165
Mof_Cl	Cl	0.568	0.87733	0.0109	-0.548
Mof_Cl	Cl	0.6794	0.93208	0.05825	-0.55
Mof_Cl	Cl	0.7282	0.91515	0.97202	-0.539
Mof_Cl	Cl	0.5692	0.76217	0.02985	-0.532
Mof_Cl	Cl	0.7387	0.70872	0.01233	-0.558
Mof_Cl	Cl	0.851	0.80004	0.1607	-0.558
Mof_Cl	Cl	0.8363	0.89013	0.14554	-0.541
Mof_Cl	Cl	0.0695	0.82093	0.01087	-0.54
Mof_Cl	Cl	0.497	0.69686	0.76486	-0.529
Mof_Cl	Cl	0.8041	0.6751	0.4557	-1.165
Mof_Cl	Cl	0.568	0.62267	0.4891	-0.548
Mof_Cl	Cl	0.6794	0.56792	0.44175	-0.55
Mof_Cl	Cl	0.7282	0.58485	0.52798	-0.539
Mof_Cl	Cl	0.5692	0.73783	0.47015	-0.532
Mof_Cl	Cl	0.7387	0.79128	0.48767	-0.558
Mof_Cl	Cl	0.851	0.69996	0.3393	-0.558
Mof_Cl	Cl	0.8363	0.60987	0.35446	-0.541
Mof_Cl	Cl	0.0695	0.67907	0.48913	-0.54
Mof_Cl	Cl	0.497	0.80314	0.73514	-0.529
Mof_Cl	Cl	0.25	0.75	0.75	-1.196
Mof_Cl	Cl	0.75	0.25	0.25	-1.196
Mof_O 	O 	0.6687	0.5134	0.863	-0.579
Mof_O 	O 	0.8019	0.5203	0.8444	-0.543
Mof_O 	O 	0.8481	0.4697	0.8208	-0.578
Mof_O 	O 	0.8517	0.4261	0.8619	-0.538
Mof_O 	O 	0.7254	0.4178	0.8815	-0.575
Mof_O 	O 	0.6788	0.4684	0.9051	-0.551
Mof_O 	O 	0.5526	0.4856	0.8718	-0.538
Mof_O 	O 	0.6822	0.5369	0.8093	-0.545
Mof_O 	O 	0.8005	0.5091	0.7794	-0.548
Mof_O 	O 	0.8451	0.415	0.7953	-0.543
Mof_O 	O 	0.7584	0.3792	0.837	-0.553
Mof_O 	O 	0.5874	0.4212	0.883	-0.546
Mof_O 	O 	0.5431	0.4408	0.8301	-0.593
Mof_O 	O 	0.6727	0.4929	0.7678	-0.598
Mof_O 	O 	0.7164	0.4002	0.7824	-0.569
Mof_O 	O 	0.5783	0.4035	0.7861	-0.551
Mof_O 	O 	0.5504	0.467	0.7753	-0.567
Mof_O 	O 	0.6644	0.4371	0.742	-0.522
Mof_O 	O 	0.2503	0.689	0.7141	-0.572
Mof_O 	O 	0.1187	0.694	0.7284	-0.561
Mof_O 	O 	0.1183	0.7101	0.7932	-0.549
Mof_O 	O 	0.2267	0.6695	0.7708	-0.548
Mof_O 	O 	0.5605	0.5303	0.7682	-0.554
Mof_O 	O 	0.6078	0.5744	0.7568	-0.327
Mof_O 	O 	0.2815	0.619	0.7267	-0.362
Mof_O 	O 	0.3633	0.6505	0.7332	-0.601
Mof_O 	O 	0.5543	0.5558	0.8842	-0.374
Mof_O 	O 	0.5393	0.5487	0.8346	-0.603
Mof_O 	O 	0.3044	0.6629	0.8417	-0.374
Mof_O 	O 	0.3646	0.6569	0.8011	-0.568
Mof_O 	O 	0.0256	0.3446	0.6258	-0.617
Mof_O 	O 	0.9217	0.3347	0.6076	-0.341
Mof_O 	O 	0.8161	0.4178	0.7306	-0.609
Mof_O 	O 	0.7526	0.3781	0.7168	-0.36
Mof_O 	O 	0.6687	0.9866	0.637	-0.579
Mof_O 	O 	0.8019	0.9797	0.6556	-0.543
Mof_O 	O 	0.8481	0.0303	0.6792	-0.578
Mof_O 	O 	0.8517	0.0739	0.6381	-0.538
Mof_O 	O 	0.7254	0.0822	0.6185	-0.575
Mof_O 	O 	0.6788	0.0316	0.5949	-0.551
Mof_O 	O 	0.5526	0.0144	0.6282	-0.538
Mof_O 	O 	0.6822	0.9631	0.6907	-0.545
Mof_O 	O 	0.8005	0.9909	0.7206	-0.548
Mof_O 	O 	0.8451	0.085	0.7047	-0.543
Mof_O 	O 	0.7584	0.1208	0.663	-0.553
Mof_O 	O 	0.5874	0.0788	0.617	-0.546
Mof_O 	O 	0.5431	0.0592	0.6699	-0.593
Mof_O 	O 	0.6727	0.0071	0.7322	-0.598
Mof_O 	O 	0.7164	0.0998	0.7176	-0.569
Mof_O 	O 	0.5783	0.0965	0.7139	-0.551
Mof_O 	O 	0.5504	0.033	0.7247	-0.567
Mof_O 	O 	0.6644	0.0629	0.758	-0.522
Mof_O 	O 	0.2503	0.811	0.7859	-0.572
Mof_O 	O 	0.1187	0.806	0.7716	-0.561
Mof_O 	O 	0.1183	0.7899	0.7068	-0.549
Mof_O 	O 	0.2267	0.8305	0.7292	-0.548
Mof_O 	O 	0.5605	0.9697	0.7318	-0.554
Mof_O 	O 	0.6078	0.9256	0.7432	-0.327
Mof_O 	O 	0.2815	0.881	0.7733	-0.362
Mof_O 	O 	0.3633	0.8495	0.7668	-0.601
Mof_O 	O 	0.5543	0.9442	0.6158	-0.374
Mof_O 	O 	0.5393	0.9513	0.6654	-0.603
Mof_O 	O 	0.3044	0.8371	0.6583	-0.374
Mof_O 	O 	0.3646	0.8431	0.6989	-0.568
Mof_O 	O 	0.0256	0.1554	0.8742	-0.617
Mof_O 	O 	0.9217	0.1653	0.8924	-0.341
Mof_O 	O 	0.8161	0.0822	0.7694	-0.609
Mof_O 	O 	0.7526	0.1219	0.7832	-0.36
Mof_O 	O 	0.1687	0.137	0.0134	-0.579
Mof_O 	O 	0.3019	0.1556	0.0203	-0.543
Mof_O 	O 	0.3481	0.1792	0.9697	-0.578
Mof_O 	O 	0.3517	0.1381	0.9261	-0.538
Mof_O 	O 	0.2254	0.1185	0.9178	-0.575
Mof_O 	O 	0.1788	0.0949	0.9684	-0.551
Mof_O 	O 	0.0526	0.1282	0.9856	-0.538
Mof_O 	O 	0.1822	0.1907	0.0369	-0.545
Mof_O 	O 	0.3005	0.2206	0.0091	-0.548
Mof_O 	O 	0.3451	0.2047	0.915	-0.543
Mof_O 	O 	0.2584	0.163	0.8792	-0.553
Mof_O 	O 	0.0874	0.117	0.9212	-0.546
Mof_O 	O 	0.0431	0.1699	0.9408	-0.593
Mof_O 	O 	0.1727	0.2322	0.9929	-0.598
Mof_O 	O 	0.2164	0.2176	0.9002	-0.569
Mof_O 	O 	0.0783	0.2139	0.9035	-0.551
Mof_O 	O 	0.0504	0.2247	0.967	-0.566
Mof_O 	O 	0.1644	0.258	0.9371	-0.522
Mof_O 	O 	0.7503	0.2859	0.189	-0.572
Mof_O 	O 	0.6187	0.2716	0.194	-0.561
Mof_O 	O 	0.6183	0.2068	0.2101	-0.549
Mof_O 	O 	0.7267	0.2292	0.1695	-0.548
Mof_O 	O 	0.0605	0.2318	0.0303	-0.554
Mof_O 	O 	0.1078	0.2432	0.0744	-0.327
Mof_O 	O 	0.7815	0.2733	0.119	-0.362
Mof_O 	O 	0.8633	0.2668	0.1505	-0.601
Mof_O 	O 	0.0543	0.1158	0.0558	-0.374
Mof_O 	O 	0.0393	0.1654	0.0487	-0.603
Mof_O 	O 	0.8044	0.1583	0.1629	-0.374
Mof_O 	O 	0.8646	0.1989	0.1569	-0.568
Mof_O 	O 	0.5256	0.3742	0.8446	-0.617
Mof_O 	O 	0.4217	0.3924	0.8347	-0.342
Mof_O 	O 	0.3161	0.2694	0.9178	-0.609
Mof_O 	O 	0.2526	0.2832	0.8781	-0.36
Mof_O 	O 	0.1687	0.363	0.4866	-0.579
Mof_O 	O 	0.3019	0.3444	0.4797	-0.543
Mof_O 	O 	0.3481	0.3208	0.5303	-0.578
Mof_O 	O 	0.3517	0.3619	0.5739	-0.538
Mof_O 	O 	0.2254	0.3815	0.5822	-0.575
Mof_O 	O 	0.1788	0.4051	0.5316	-0.551
Mof_O 	O 	0.0526	0.3718	0.5144	-0.538
Mof_O 	O 	0.1822	0.3093	0.4631	-0.545
Mof_O 	O 	0.3005	0.2794	0.4909	-0.548
Mof_O 	O 	0.3451	0.2953	0.585	-0.543
Mof_O 	O 	0.2584	0.337	0.6208	-0.553
Mof_O 	O 	0.0874	0.383	0.5788	-0.546
Mof_O 	O 	0.0431	0.3301	0.5592	-0.593
Mof_O 	O 	0.1727	0.2678	0.5071	-0.598
Mof_O 	O 	0.2164	0.2824	0.5998	-0.569
Mof_O 	O 	0.0783	0.2861	0.5965	-0.551
Mof_O 	O 	0.0504	0.2753	0.533	-0.567
Mof_O 	O 	0.1644	0.242	0.5629	-0.522
Mof_O 	O 	0.7503	0.2141	0.311	-0.572
Mof_O 	O 	0.6187	0.2284	0.306	-0.561
Mof_O 	O 	0.6183	0.2932	0.2899	-0.549
Mof_O 	O 	0.7267	0.2708	0.3305	-0.548
Mof_O 	O 	0.0605	0.2682	0.4697	-0.554
Mof_O 	O 	0.1078	0.2568	0.4256	-0.327
Mof_O 	O 	0.7815	0.2267	0.381	-0.362
Mof_O 	O 	0.8633	0.2332	0.3495	-0.601
Mof_O 	O 	0.0543	0.3842	0.4442	-0.374
Mof_O 	O 	0.0393	0.3346	0.4513	-0.603
Mof_O 	O 	0.8044	0.3417	0.3371	-0.374
Mof_O 	O 	0.8646	0.3011	0.3431	-0.568
Mof_O 	O 	0.5256	0.1258	0.6554	-0.617
Mof_O 	O 	0.4217	0.1076	0.6653	-0.342
Mof_O 	O 	0.3161	0.2306	0.5822	-0.609
Mof_O 	O 	0.2526	0.2168	0.6219	-0.36
Mof_O 	O 	0.3313	0.4866	0.137	-0.579
Mof_O 	O 	0.1981	0.4797	0.1556	-0.543
Mof_O 	O 	0.1519	0.5303	0.1792	-0.578
Mof_O 	O 	0.1483	0.5739	0.1381	-0.538
Mof_O 	O 	0.2746	0.5822	0.1185	-0.575
Mof_O 	O 	0.3212	0.5316	0.0949	-0.551
Mof_O 	O 	0.4474	0.5144	0.1282	-0.538
Mof_O 	O 	0.3178	0.4631	0.1907	-0.545
Mof_O 	O 	0.1995	0.4909	0.2206	-0.548
Mof_O 	O 	0.1549	0.585	0.2047	-0.543
Mof_O 	O 	0.2416	0.6208	0.163	-0.553
Mof_O 	O 	0.4126	0.5788	0.117	-0.546
Mof_O 	O 	0.4569	0.5592	0.1699	-0.593
Mof_O 	O 	0.3273	0.5071	0.2322	-0.598
Mof_O 	O 	0.2836	0.5998	0.2176	-0.569
Mof_O 	O 	0.4217	0.5965	0.2139	-0.551
Mof_O 	O 	0.4496	0.533	0.2247	-0.567
Mof_O 	O 	0.3356	0.5629	0.258	-0.522
Mof_O 	O 	0.7497	0.311	0.2859	-0.572
Mof_O 	O 	0.8813	0.306	0.2716	-0.561
Mof_O 	O 	0.8817	0.2899	0.2068	-0.549
Mof_O 	O 	0.7733	0.3305	0.2292	-0.548
Mof_O 	O 	0.4395	0.4697	0.2318	-0.554
Mof_O 	O 	0.3922	0.4256	0.2432	-0.327
Mof_O 	O 	0.7185	0.381	0.2733	-0.362
Mof_O 	O 	0.6367	0.3495	0.2668	-0.601
Mof_O 	O 	0.4457	0.4442	0.1158	-0.374
Mof_O 	O 	0.4607	0.4513	0.1654	-0.603
Mof_O 	O 	0.6956	0.3371	0.1583	-0.374
Mof_O 	O 	0.6354	0.3431	0.1989	-0.568
Mof_O 	O 	0.9744	0.6554	0.3742	-0.617
Mof_O 	O 	0.0783	0.6653	0.3924	-0.341
Mof_O 	O 	0.1839	0.5822	0.2694	-0.609
Mof_O 	O 	0.2474	0.6219	0.2832	-0.36
Mof_O 	O 	0.3313	0.0134	0.363	-0.579
Mof_O 	O 	0.1981	0.0203	0.3444	-0.543
Mof_O 	O 	0.1519	0.9697	0.3208	-0.578
Mof_O 	O 	0.1483	0.9261	0.3619	-0.538
Mof_O 	O 	0.2746	0.9178	0.3815	-0.575
Mof_O 	O 	0.3212	0.9684	0.4051	-0.551
Mof_O 	O 	0.4474	0.9856	0.3718	-0.538
Mof_O 	O 	0.3178	0.0369	0.3093	-0.545
Mof_O 	O 	0.1995	0.0091	0.2794	-0.548
Mof_O 	O 	0.1549	0.915	0.2953	-0.543
Mof_O 	O 	0.2416	0.8792	0.337	-0.553
Mof_O 	O 	0.4126	0.9212	0.383	-0.546
Mof_O 	O 	0.4569	0.9408	0.3301	-0.593
Mof_O 	O 	0.3273	0.9929	0.2678	-0.598
Mof_O 	O 	0.2836	0.9002	0.2824	-0.569
Mof_O 	O 	0.4217	0.9035	0.2861	-0.551
Mof_O 	O 	0.4496	0.967	0.2753	-0.567
Mof_O 	O 	0.3356	0.9371	0.242	-0.522
Mof_O 	O 	0.7497	0.189	0.2141	-0.572
Mof_O 	O 	0.8813	0.194	0.2284	-0.561
Mof_O 	O 	0.8817	0.2101	0.2932	-0.549
Mof_O 	O 	0.7733	0.1695	0.2708	-0.548
Mof_O 	O 	0.4395	0.0303	0.2682	-0.554
Mof_O 	O 	0.3922	0.0744	0.2568	-0.327
Mof_O 	O 	0.7185	0.119	0.2267	-0.362
Mof_O 	O 	0.6367	0.1505	0.2332	-0.601
Mof_O 	O 	0.4457	0.0558	0.3842	-0.374
Mof_O 	O 	0.4607	0.0487	0.3346	-0.603
Mof_O 	O 	0.6956	0.1629	0.3417	-0.374
Mof_O 	O 	0.6354	0.1569	0.3011	-0.568
Mof_O 	O 	0.9744	0.8446	0.1258	-0.617
Mof_O 	O 	0.0783	0.8347	0.1076	-0.341
Mof_O 	O 	0.1839	0.9178	0.2306	-0.609
Mof_O 	O 	0.2474	0.8781	0.2168	-0.36
Mof_O 	O 	0.8313	0.863	0.9866	-0.579
Mof_O 	O 	0.6981	0.8444	0.9797	-0.543
Mof_O 	O 	0.6519	0.8208	0.0303	-0.578
Mof_O 	O 	0.6483	0.8619	0.0739	-0.538
Mof_O 	O 	0.7746	0.8815	0.0822	-0.575
Mof_O 	O 	0.8212	0.9051	0.0316	-0.551
Mof_O 	O 	0.9474	0.8718	0.0144	-0.538
Mof_O 	O 	0.8178	0.8093	0.9631	-0.545
Mof_O 	O 	0.6995	0.7794	0.9909	-0.548
Mof_O 	O 	0.6549	0.7953	0.085	-0.543
Mof_O 	O 	0.7416	0.837	0.1208	-0.553
Mof_O 	O 	0.9126	0.883	0.0788	-0.546
Mof_O 	O 	0.9569	0.8301	0.0592	-0.593
Mof_O 	O 	0.8273	0.7678	0.0071	-0.598
Mof_O 	O 	0.7836	0.7824	0.0998	-0.569
Mof_O 	O 	0.9217	0.7861	0.0965	-0.551
Mof_O 	O 	0.9496	0.7753	0.033	-0.566
Mof_O 	O 	0.8356	0.742	0.0629	-0.522
Mof_O 	O 	0.2497	0.7141	0.811	-0.572
Mof_O 	O 	0.3813	0.7284	0.806	-0.561
Mof_O 	O 	0.3817	0.7932	0.7899	-0.549
Mof_O 	O 	0.2733	0.7708	0.8305	-0.548
Mof_O 	O 	0.9395	0.7682	0.9697	-0.554
Mof_O 	O 	0.8922	0.7568	0.9256	-0.327
Mof_O 	O 	0.2185	0.7267	0.881	-0.362
Mof_O 	O 	0.1367	0.7332	0.8495	-0.601
Mof_O 	O 	0.9457	0.8842	0.9442	-0.374
Mof_O 	O 	0.9607	0.8346	0.9513	-0.603
Mof_O 	O 	0.1956	0.8417	0.8371	-0.374
Mof_O 	O 	0.1354	0.8011	0.8431	-0.568
Mof_O 	O 	0.4744	0.6258	0.1554	-0.617
Mof_O 	O 	0.5783	0.6076	0.1653	-0.342
Mof_O 	O 	0.6839	0.7306	0.0822	-0.609
Mof_O 	O 	0.7474	0.7168	0.1219	-0.36
Mof_O 	O 	0.8313	0.637	0.5134	-0.579
Mof_O 	O 	0.6981	0.6556	0.5203	-0.543
Mof_O 	O 	0.6519	0.6792	0.4697	-0.578
Mof_O 	O 	0.6483	0.6381	0.4261	-0.538
Mof_O 	O 	0.7746	0.6185	0.4178	-0.575
Mof_O 	O 	0.8212	0.5949	0.4684	-0.551
Mof_O 	O 	0.9474	0.6282	0.4856	-0.538
Mof_O 	O 	0.8178	0.6907	0.5369	-0.545
Mof_O 	O 	0.6995	0.7206	0.5091	-0.548
Mof_O 	O 	0.6549	0.7047	0.415	-0.543
Mof_O 	O 	0.7416	0.663	0.3792	-0.553
Mof_O 	O 	0.9126	0.617	0.4212	-0.546
Mof_O 	O 	0.9569	0.6699	0.4408	-0.593
Mof_O 	O 	0.8273	0.7322	0.4929	-0.598
Mof_O 	O 	0.7836	0.7176	0.4002	-0.569
Mof_O 	O 	0.9217	0.7139	0.4035	-0.551
Mof_O 	O 	0.9496	0.7247	0.467	-0.567
Mof_O 	O 	0.8356	0.758	0.4371	-0.522
Mof_O 	O 	0.2497	0.7859	0.689	-0.572
Mof_O 	O 	0.3813	0.7716	0.694	-0.561
Mof_O 	O 	0.3817	0.7068	0.7101	-0.549
Mof_O 	O 	0.2733	0.7292	0.6695	-0.548
Mof_O 	O 	0.9395	0.7318	0.5303	-0.554
Mof_O 	O 	0.8922	0.7432	0.5744	-0.327
Mof_O 	O 	0.2185	0.7733	0.619	-0.362
Mof_O 	O 	0.1367	0.7668	0.6505	-0.601
Mof_O 	O 	0.9457	0.6158	0.5558	-0.374
Mof_O 	O 	0.9607	0.6654	0.5487	-0.603
Mof_O 	O 	0.1956	0.6583	0.6629	-0.374
Mof_O 	O 	0.1354	0.6989	0.6569	-0.568
Mof_O 	O 	0.4744	0.8742	0.3446	-0.617
Mof_O 	O 	0.5783	0.8924	0.3347	-0.342
Mof_O 	O 	0.6839	0.7694	0.4178	-0.609
Mof_O 	O 	0.7474	0.7832	0.3781	-0.36
Mof_O 	O 	0.0965	0.75	0.75	-0.612
Mof_O 	O 	0.5965	0.25	0.25	-0.612
Mof_O 	O 	0.9035	0.25	0.25	-0.612
Mof_O 	O 	0.4035	0.75	0.75	-0.612
_end
