data_functionalizedCrystal
_audit_creation_method	'EQeq! by Chris Wilmer'
_symmetry_space_group_name_H-M	'P1'
_symmetry_Int_Tables_number	1
_symmetry_cell_setting	triclinic
loop_
_symmetry_equiv_pos_as_xyz
  x,y,z
_cell_length_a	17.0712
_cell_length_b	16.981
_cell_length_c	20.3832
_cell_angle_alpha	90
_cell_angle_beta	108.073
_cell_angle_gamma	90
loop_
_atom_site_label
_atom_site_type_symbol
_atom_site_fract_x
_atom_site_fract_y
_atom_site_fract_z
_atom_site_charge
Mof_Eu	Eu	0.49446	0.06227	0.58259	2.064
Mof_C 	C 	0.5128	0.3093	0.6388	-0.023
Mof_C 	C 	0.4421	0.3528	0.6261	-0.077
Mof_H 	H 	0.3911	0.3303	0.6035	0.066
Mof_C 	C 	0.4475	0.4306	0.6473	0.04
Mof_C 	C 	0.5886	0.4212	0.6951	0.052
Mof_H 	H 	0.6386	0.4444	0.719	-0.008
Mof_C 	C 	0.5887	0.3445	0.6722	-0.086
Mof_H 	H 	0.6378	0.3172	0.6788	0.063
Mof_C 	C 	0.3734	0.4821	0.6344	0.012
Mof_C 	C 	0.3011	0.4687	0.5818	-0.025
Mof_H 	H 	0.2969	0.4252	0.5532	0.047
Mof_C 	C 	0.236	0.5184	0.5713	-0.11
Mof_C 	C 	0.2451	0.5862	0.6123	-0.039
Mof_H 	H 	0.2024	0.6225	0.605	0.025
Mof_C 	C 	0.3184	0.5979	0.6634	0.016
Mof_H 	H 	0.3248	0.6426	0.6908	0.003
Mof_C 	C 	0.5481	0.6528	0.6366	0.017
Mof_H 	H 	0.5612	0.6041	0.622	0.008
Mof_C 	C 	0.5496	0.7186	0.5971	-0.025
Mof_H 	H 	0.5622	0.7144	0.556	0.051
Mof_C 	C 	0.5319	0.7901	0.6203	-0.108
Mof_C 	C 	0.5117	0.7952	0.6813	-0.022
Mof_H 	H 	0.4989	0.8435	0.697	0.021
Mof_C 	C 	0.5113	0.7279	0.7175	0.017
Mof_C 	C 	0.5277	0.8643	0.578	0.468
Mof_C 	C 	0.1549	0.4999	0.5176	0.431
Mof_C 	C 	0.5092	0.2242	0.6196	0.298
Mof_N 	N 	0.5196	0.4634	0.6844	-0.232
Mof_N 	N 	0.3811	0.5469	0.675	-0.233
Mof_N 	N 	0.5284	0.6567	0.6958	-0.236
Mof_O 	O 	0.571	0.1899	0.6121	-0.442
Mof_O 	O 	0.4421	0.1883	0.6108	-0.453
Mof_O 	O 	0.1551	0.457	0.4673	-0.479
Mof_O 	O 	0.0898	0.5257	0.5252	-0.646
Mof_O 	O 	0.5116	0.9269	0.6049	-0.577
Mof_O 	O 	0.5405	0.8589	0.5208	-0.494
Mof_Eu	Eu	0.99446	0.56227	0.58259	2.16
Mof_C 	C 	0.0128	0.8093	0.6388	-0.062
Mof_C 	C 	0.9421	0.8528	0.6261	-0.031
Mof_H 	H 	0.8911	0.8303	0.6035	0.055
Mof_C 	C 	0.9475	0.9306	0.6473	0.056
Mof_C 	C 	0.0886	0.9212	0.6951	0.039
Mof_H 	H 	0.1386	0.9444	0.719	-0.005
Mof_C 	C 	0.0887	0.8445	0.6722	-0.072
Mof_H 	H 	0.1378	0.8172	0.6788	0.056
Mof_C 	C 	0.8734	0.9821	0.6344	0.016
Mof_C 	C 	0.8011	0.9687	0.5818	-0.027
Mof_H 	H 	0.7969	0.9252	0.5532	0.049
Mof_C 	C 	0.736	0.0184	0.5713	-0.101
Mof_C 	C 	0.7451	0.0862	0.6123	-0.042
Mof_H 	H 	0.7024	0.1225	0.605	0.031
Mof_C 	C 	0.8184	0.0979	0.6634	0.021
Mof_H 	H 	0.8248	0.1426	0.6908	0.006
Mof_C 	C 	0.0481	0.1528	0.6366	0.024
Mof_H 	H 	0.0612	0.1041	0.622	-0
Mof_C 	C 	0.0496	0.2186	0.5971	-0.047
Mof_H 	H 	0.0622	0.2144	0.556	0.053
Mof_C 	C 	0.0319	0.2901	0.6203	-0.082
Mof_C 	C 	0.0117	0.2952	0.6813	-0.101
Mof_H 	H 	0.9989	0.3435	0.697	0.078
Mof_C 	C 	0.0113	0.2279	0.7175	0.021
Mof_C 	C 	0.0277	0.3643	0.578	0.457
Mof_C 	C 	0.6549	0.9999	0.5176	0.424
Mof_C 	C 	0.0092	0.7242	0.6196	0.27
Mof_N 	N 	0.0196	0.9634	0.6844	-0.247
Mof_N 	N 	0.8811	0.0469	0.675	-0.227
Mof_N 	N 	0.0284	0.1567	0.6958	-0.245
Mof_O 	O 	0.071	0.6899	0.6121	-0.454
Mof_O 	O 	0.9421	0.6883	0.6108	-0.434
Mof_O 	O 	0.6551	0.957	0.4673	-0.481
Mof_O 	O 	0.5898	0.0257	0.5252	-0.626
Mof_O 	O 	0.0116	0.4269	0.6049	-0.603
Mof_O 	O 	0.0405	0.3589	0.5208	-0.493
Mof_Eu	Eu	0.50554	0.06227	0.91741	2.062
Mof_C 	C 	0.4872	0.3093	0.8612	-0.023
Mof_C 	C 	0.5579	0.3528	0.8739	-0.075
Mof_H 	H 	0.6089	0.3303	0.8965	0.067
Mof_C 	C 	0.5525	0.4306	0.8527	0.04
Mof_C 	C 	0.4114	0.4212	0.8049	0.052
Mof_H 	H 	0.3614	0.4444	0.781	-0.01
Mof_C 	C 	0.4113	0.3445	0.8278	-0.085
Mof_H 	H 	0.3622	0.3172	0.8212	0.061
Mof_C 	C 	0.6266	0.4821	0.8656	0.016
Mof_C 	C 	0.6989	0.4687	0.9182	-0.032
Mof_H 	H 	0.7031	0.4252	0.9468	0.05
Mof_C 	C 	0.764	0.5184	0.9287	-0.095
Mof_C 	C 	0.7549	0.5862	0.8877	-0.046
Mof_H 	H 	0.7976	0.6225	0.895	0.036
Mof_C 	C 	0.6816	0.5979	0.8366	0.023
Mof_H 	H 	0.6752	0.6426	0.8092	0.003
Mof_C 	C 	0.4519	0.6528	0.8634	0.016
Mof_H 	H 	0.4388	0.6041	0.878	0.007
Mof_C 	C 	0.4504	0.7186	0.9029	-0.025
Mof_H 	H 	0.4378	0.7144	0.944	0.05
Mof_C 	C 	0.4681	0.7901	0.8797	-0.109
Mof_C 	C 	0.4883	0.7952	0.8187	-0.022
Mof_H 	H 	0.5011	0.8435	0.803	0.022
Mof_C 	C 	0.4887	0.7279	0.7825	0.017
Mof_C 	C 	0.4723	0.8643	0.922	0.468
Mof_C 	C 	0.8451	0.4999	0.9824	0.419
Mof_C 	C 	0.4908	0.2242	0.8804	0.298
Mof_N 	N 	0.4804	0.4634	0.8156	-0.232
Mof_N 	N 	0.6189	0.5469	0.825	-0.235
Mof_N 	N 	0.4716	0.6567	0.8042	-0.236
Mof_O 	O 	0.429	0.1899	0.8879	-0.443
Mof_O 	O 	0.5579	0.1883	0.8892	-0.452
Mof_O 	O 	0.8449	0.457	0.0327	-0.486
Mof_O 	O 	0.9102	0.5257	0.9748	-0.603
Mof_O 	O 	0.4884	0.9269	0.8951	-0.576
Mof_O 	O 	0.4595	0.8589	0.9792	-0.495
Mof_Eu	Eu	0.00554	0.56227	0.91741	1.961
Mof_C 	C 	0.9872	0.8093	0.8612	0.021
Mof_C 	C 	0.0579	0.8528	0.8739	-0.125
Mof_H 	H 	0.1089	0.8303	0.8965	0.079
Mof_C 	C 	0.0525	0.9306	0.8527	0.027
Mof_C 	C 	0.9114	0.9212	0.8049	0.067
Mof_H 	H 	0.8614	0.9444	0.781	-0.012
Mof_C 	C 	0.9113	0.8445	0.8278	-0.1
Mof_H 	H 	0.8622	0.8172	0.8212	0.069
Mof_C 	C 	0.1266	0.9821	0.8656	0.011
Mof_C 	C 	0.1989	0.9687	0.9182	-0.025
Mof_H 	H 	0.2031	0.9252	0.9468	0.045
Mof_C 	C 	0.264	0.0184	0.9287	-0.109
Mof_C 	C 	0.2549	0.0862	0.8877	-0.041
Mof_H 	H 	0.2976	0.1225	0.895	0.028
Mof_C 	C 	0.1816	0.0979	0.8366	0.015
Mof_H 	H 	0.1752	0.1426	0.8092	0.001
Mof_C 	C 	0.9519	0.1528	0.8634	0.009
Mof_H 	H 	0.9388	0.1041	0.878	0.016
Mof_C 	C 	0.9504	0.2186	0.9029	-0.003
Mof_H 	H 	0.9378	0.2144	0.944	0.048
Mof_C 	C 	0.9681	0.2901	0.8797	-0.135
Mof_C 	C 	0.9883	0.2952	0.8187	0.059
Mof_H 	H 	0.0011	0.3435	0.803	-0.036
Mof_C 	C 	0.9887	0.2279	0.7825	0.013
Mof_C 	C 	0.9723	0.3643	0.922	0.478
Mof_C 	C 	0.3451	0.9999	0.9824	0.426
Mof_C 	C 	0.9908	0.7242	0.8804	0.329
Mof_N 	N 	0.9804	0.9634	0.8156	-0.214
Mof_N 	N 	0.1189	0.0469	0.825	-0.239
Mof_N 	N 	0.9716	0.1567	0.8042	-0.224
Mof_O 	O 	0.929	0.6899	0.8879	-0.429
Mof_O 	O 	0.0579	0.6883	0.8892	-0.473
Mof_O 	O 	0.3449	0.957	0.0327	-0.482
Mof_O 	O 	0.4102	0.0257	0.9748	-0.629
Mof_O 	O 	0.9884	0.4269	0.8951	-0.548
Mof_O 	O 	0.9595	0.3589	0.9792	-0.493
Mof_Eu	Eu	0.50554	0.93773	0.41741	2.065
Mof_C 	C 	0.4872	0.6907	0.3612	-0.023
Mof_C 	C 	0.5579	0.6472	0.3739	-0.075
Mof_H 	H 	0.6089	0.6697	0.3965	0.067
Mof_C 	C 	0.5525	0.5694	0.3527	0.04
Mof_C 	C 	0.4114	0.5788	0.3049	0.052
Mof_H 	H 	0.3614	0.5556	0.281	-0.009
Mof_C 	C 	0.4113	0.6555	0.3278	-0.085
Mof_H 	H 	0.3622	0.6828	0.3212	0.061
Mof_C 	C 	0.6266	0.5179	0.3656	0.016
Mof_C 	C 	0.6989	0.5313	0.4182	-0.032
Mof_H 	H 	0.7031	0.5748	0.4468	0.05
Mof_C 	C 	0.764	0.4816	0.4287	-0.095
Mof_C 	C 	0.7549	0.4138	0.3877	-0.046
Mof_H 	H 	0.7976	0.3775	0.395	0.036
Mof_C 	C 	0.6816	0.4021	0.3366	0.022
Mof_H 	H 	0.6752	0.3574	0.3092	0.003
Mof_C 	C 	0.4519	0.3472	0.3634	0.017
Mof_H 	H 	0.4388	0.3959	0.378	0.007
Mof_C 	C 	0.4504	0.2814	0.4029	-0.025
Mof_H 	H 	0.4378	0.2856	0.444	0.05
Mof_C 	C 	0.4681	0.2099	0.3797	-0.108
Mof_C 	C 	0.4883	0.2048	0.3187	-0.022
Mof_H 	H 	0.5011	0.1565	0.303	0.022
Mof_C 	C 	0.4887	0.2721	0.2825	0.017
Mof_C 	C 	0.4723	0.1357	0.422	0.468
Mof_C 	C 	0.8451	0.5001	0.4824	0.417
Mof_C 	C 	0.4908	0.7758	0.3804	0.298
Mof_N 	N 	0.4804	0.5366	0.3156	-0.232
Mof_N 	N 	0.6189	0.4531	0.325	-0.235
Mof_N 	N 	0.4716	0.3433	0.3042	-0.236
Mof_O 	O 	0.429	0.8101	0.3879	-0.443
Mof_O 	O 	0.5579	0.8117	0.3892	-0.452
Mof_O 	O 	0.8449	0.543	0.5327	-0.484
Mof_O 	O 	0.9102	0.4743	0.4748	-0.608
Mof_O 	O 	0.4884	0.0731	0.3951	-0.577
Mof_O 	O 	0.4595	0.1411	0.4792	-0.494
Mof_Eu	Eu	0.00554	0.43773	0.41741	1.983
Mof_C 	C 	0.9872	0.1907	0.3612	0.015
Mof_C 	C 	0.0579	0.1472	0.3739	-0.117
Mof_H 	H 	0.1089	0.1697	0.3965	0.078
Mof_C 	C 	0.0525	0.0694	0.3527	0.029
Mof_C 	C 	0.9114	0.0788	0.3049	0.065
Mof_H 	H 	0.8614	0.0556	0.281	-0.011
Mof_C 	C 	0.9113	0.1555	0.3278	-0.098
Mof_H 	H 	0.8622	0.1828	0.3212	0.068
Mof_C 	C 	0.1266	0.0179	0.3656	0.013
Mof_C 	C 	0.1989	0.0313	0.4182	-0.029
Mof_H 	H 	0.2031	0.0748	0.4468	0.047
Mof_C 	C 	0.264	0.9816	0.4287	-0.104
Mof_C 	C 	0.2549	0.9138	0.3877	-0.043
Mof_H 	H 	0.2976	0.8775	0.395	0.03
Mof_C 	C 	0.1816	0.9021	0.3366	0.017
Mof_H 	H 	0.1752	0.8574	0.3092	0.001
Mof_C 	C 	0.9519	0.8472	0.3634	0.011
Mof_H 	H 	0.9388	0.8959	0.378	0.015
Mof_C 	C 	0.9504	0.7814	0.4029	-0.006
Mof_H 	H 	0.9378	0.7856	0.444	0.049
Mof_C 	C 	0.9681	0.7099	0.3797	-0.131
Mof_C 	C 	0.9883	0.7048	0.3187	0.046
Mof_H 	H 	0.0011	0.6565	0.303	-0.026
Mof_C 	C 	0.9887	0.7721	0.2825	0.014
Mof_C 	C 	0.9723	0.6357	0.422	0.478
Mof_C 	C 	0.3451	0.0001	0.4824	0.424
Mof_C 	C 	0.9908	0.2758	0.3804	0.325
Mof_N 	N 	0.9804	0.0366	0.3156	-0.216
Mof_N 	N 	0.1189	0.9531	0.325	-0.238
Mof_N 	N 	0.9716	0.8433	0.3042	-0.226
Mof_O 	O 	0.929	0.3101	0.3879	-0.431
Mof_O 	O 	0.0579	0.3117	0.3892	-0.47
Mof_O 	O 	0.3449	0.043	0.5327	-0.482
Mof_O 	O 	0.4102	0.9743	0.4748	-0.626
Mof_O 	O 	0.9884	0.5731	0.3951	-0.554
Mof_O 	O 	0.9595	0.6411	0.4792	-0.496
Mof_Eu	Eu	0.49446	0.93773	0.08259	2.065
Mof_C 	C 	0.5128	0.6907	0.1388	-0.022
Mof_C 	C 	0.4421	0.6472	0.1261	-0.076
Mof_H 	H 	0.3911	0.6697	0.1035	0.067
Mof_C 	C 	0.4475	0.5694	0.1473	0.041
Mof_C 	C 	0.5886	0.5788	0.1951	0.053
Mof_H 	H 	0.6386	0.5556	0.219	-0.008
Mof_C 	C 	0.5887	0.6555	0.1722	-0.085
Mof_H 	H 	0.6378	0.6828	0.1788	0.063
Mof_C 	C 	0.3734	0.5179	0.1344	0.012
Mof_C 	C 	0.3011	0.5313	0.0818	-0.024
Mof_H 	H 	0.2969	0.5748	0.0532	0.047
Mof_C 	C 	0.236	0.4816	0.0713	-0.11
Mof_C 	C 	0.2451	0.4138	0.1123	-0.038
Mof_H 	H 	0.2024	0.3775	0.105	0.025
Mof_C 	C 	0.3184	0.4021	0.1634	0.016
Mof_H 	H 	0.3248	0.3574	0.1908	0.004
Mof_C 	C 	0.5481	0.3472	0.1366	0.017
Mof_H 	H 	0.5612	0.3959	0.122	0.008
Mof_C 	C 	0.5496	0.2814	0.0971	-0.025
Mof_H 	H 	0.5622	0.2856	0.056	0.051
Mof_C 	C 	0.5319	0.2099	0.1203	-0.108
Mof_C 	C 	0.5117	0.2048	0.1813	-0.022
Mof_H 	H 	0.4989	0.1565	0.197	0.022
Mof_C 	C 	0.5113	0.2721	0.2175	0.017
Mof_C 	C 	0.5277	0.1357	0.078	0.467
Mof_C 	C 	0.1549	0.5001	0.0176	0.436
Mof_C 	C 	0.5092	0.7758	0.1196	0.298
Mof_N 	N 	0.5196	0.5366	0.1844	-0.232
Mof_N 	N 	0.3811	0.4531	0.175	-0.233
Mof_N 	N 	0.5284	0.3433	0.1958	-0.236
Mof_O 	O 	0.571	0.8101	0.1121	-0.442
Mof_O 	O 	0.4421	0.8117	0.1108	-0.453
Mof_O 	O 	0.1551	0.543	0.9673	-0.483
Mof_O 	O 	0.0898	0.4743	0.0252	-0.641
Mof_O 	O 	0.5116	0.0731	0.1049	-0.576
Mof_O 	O 	0.5405	0.1411	0.0208	-0.493
Mof_Eu	Eu	0.99446	0.43773	0.08259	2.139
Mof_C 	C 	0.0128	0.1907	0.1388	-0.055
Mof_C 	C 	0.9421	0.1472	0.1261	-0.039
Mof_H 	H 	0.8911	0.1697	0.1035	0.057
Mof_C 	C 	0.9475	0.0694	0.1473	0.054
Mof_C 	C 	0.0886	0.0788	0.1951	0.042
Mof_H 	H 	0.1386	0.0556	0.219	-0.005
Mof_C 	C 	0.0887	0.1555	0.1722	-0.075
Mof_H 	H 	0.1378	0.1828	0.1788	0.057
Mof_C 	C 	0.8734	0.0179	0.1344	0.015
Mof_C 	C 	0.8011	0.0313	0.0818	-0.022
Mof_H 	H 	0.7969	0.0748	0.0532	0.047
Mof_C 	C 	0.736	0.9816	0.0713	-0.109
Mof_C 	C 	0.7451	0.9138	0.1123	-0.038
Mof_H 	H 	0.7024	0.8775	0.105	0.029
Mof_C 	C 	0.8184	0.9021	0.1634	0.018
Mof_H 	H 	0.8248	0.8574	0.1908	0.006
Mof_C 	C 	0.0481	0.8472	0.1366	0.023
Mof_H 	H 	0.0612	0.8959	0.122	0.001
Mof_C 	C 	0.0496	0.7814	0.0971	-0.044
Mof_H 	H 	0.0622	0.7856	0.056	0.053
Mof_C 	C 	0.0319	0.7099	0.1203	-0.086
Mof_C 	C 	0.0117	0.7048	0.1813	-0.087
Mof_H 	H 	0.9989	0.6565	0.197	0.067
Mof_C 	C 	0.0113	0.7721	0.2175	0.021
Mof_C 	C 	0.0277	0.6357	0.078	0.456
Mof_C 	C 	0.6549	0.0001	0.0176	0.431
Mof_C 	C 	0.0092	0.2758	0.1196	0.276
Mof_N 	N 	0.0196	0.0366	0.1844	-0.245
Mof_N 	N 	0.8811	0.9531	0.175	-0.228
Mof_N 	N 	0.0284	0.8433	0.1958	-0.244
Mof_O 	O 	0.071	0.3101	0.1121	-0.452
Mof_O 	O 	0.9421	0.3117	0.1108	-0.437
Mof_O 	O 	0.6551	0.043	0.9673	-0.483
Mof_O 	O 	0.5898	0.9743	0.0252	-0.629
Mof_O 	O 	0.0116	0.5731	0.1049	-0.597
Mof_O 	O 	0.0405	0.6411	0.0208	-0.488
Mof_Zn	Zn	0.5	0.55994	0.75	1.181
Mof_Zn	Zn	4.04776e-17	0.05994	0.75	1.171
Mof_Zn	Zn	0.5	0.44006	0.25	1.181
Mof_Zn	Zn	1.46642e-33	0.94006	0.25	1.173
_end
