data_functionalizedCrystal
_audit_creation_method	'EQeq! by Chris Wilmer'
_symmetry_space_group_name_H-M	'P1'
_symmetry_Int_Tables_number	1
_symmetry_cell_setting	triclinic
loop_
_symmetry_equiv_pos_as_xyz
  x,y,z
_cell_length_a	13.9325
_cell_length_b	26.873
_cell_length_c	27.147
_cell_angle_alpha	90
_cell_angle_beta	90
_cell_angle_gamma	90
loop_
_atom_site_label
_atom_site_type_symbol
_atom_site_fract_x
_atom_site_fract_y
_atom_site_fract_z
_atom_site_charge
Mof_Cd	Cd	0.30793	0.62932	0.04194	0.322
Mof_Cd	Cd	0.90765	0.7838	0.86201	0.292
Mof_Ti	Ti	0.68726	0.44401	0.78086	1.361
Mof_Ti	Ti	0.55557	0.52149	0.69699	1.357
Mof_O 	O 	0.6632	0.37657	0.7681	-0.516
Mof_O 	O 	0.7768	0.4287	0.8325	-0.509
Mof_O 	O 	0.5953	0.51	0.6318	-0.516
Mof_O 	O 	0.4591	0.5716	0.6799	-0.489
Mof_O 	O 	0.622	0.4727	0.7286	-0.693
Mof_O 	O 	0.7675	0.8253	0.8895	-0.407
Mof_O 	O 	0.6445	0.8214	0.935	-0.342
Mof_N 	N 	0.7683	0.5145	0.7837	-0.243
Mof_H 	H 	0.7312	0.5392	0.7638	0.03
Mof_N 	N 	0.8089	0.4311	0.7272	-0.223
Mof_H 	H 	0.8566	0.4086	0.7434	0.071
Mof_N 	N 	0.6825	0.1838	0.5223	-0.165
Mof_N 	N 	0.1875	0.5842	0.0016	-0.165
Mof_N 	N 	0.4449	0.4624	0.6773	-0.225
Mof_H 	H 	0.4004	0.4773	0.6524	0.071
Mof_N 	N 	0.4616	0.517	0.7627	-0.237
Mof_H 	H 	0.4949	0.4958	0.7877	0.031
Mof_N 	N 	0.6109	0.2775	0.422	-0.171
Mof_N 	N 	0.04	0.7397	0.8295	-0.171
Mof_C 	C 	0.8625	0.5102	0.7607	0.011
Mof_H 	H 	0.9052	0.4927	0.7847	0.026
Mof_C 	C 	0.8589	0.4792	0.7152	0.009
Mof_H 	H 	0.8184	0.4972	0.6906	0.002
Mof_C 	C 	0.962	0.4716	0.6915	-0.127
Mof_H 	H 	0.0038	0.4541	0.7153	0.052
Mof_H 	H 	0.956	0.4503	0.6618	0.044
Mof_C 	C 	0.0087	0.5207	0.6771	-0.065
Mof_H 	H 	0.9713	0.5374	0.6509	0.022
Mof_H 	H 	0.0749	0.5152	0.6651	0.024
Mof_C 	C 	0.0092	0.553	0.7254	-0.085
Mof_H 	H 	0.0518	0.5368	0.7498	0.046
Mof_H 	H 	0.0373	0.586	0.7176	0.038
Mof_C 	C 	0.9095	0.5612	0.7495	-0.116
Mof_H 	H 	0.9168	0.5804	0.7804	0.054
Mof_H 	H 	0.8679	0.5805	0.7269	0.036
Mof_C 	C 	0.7757	0.4063	0.6811	-0.003
Mof_H 	H 	0.8323	0.3998	0.6601	0.017
Mof_H 	H 	0.7335	0.4297	0.6631	0.027
Mof_C 	C 	0.6678	0.34471	0.73025	0.307
Mof_C 	C 	0.6174	0.3001	0.73205	-0.284
Mof_C 	C 	0.62	0.26769	0.6922	0.095
Mof_H 	H 	0.5856	0.2372	0.6934	-0.022
Mof_C 	C 	0.6729	0.27989	0.65048	-0.102
Mof_C 	C 	0.7233	0.3245	0.64868	0.033
Mof_H 	H 	0.7595	0.3328	0.6202	0.012
Mof_C 	C 	0.7208	0.3569	0.6886	-0.137
Mof_C 	C 	0.5558	0.2863	0.7775	0.519
Mof_C 	C 	0.4752	0.3251	0.7856	-0.742
Mof_H 	H 	0.5038	0.3573	0.7944	0.224
Mof_H 	H 	0.4331	0.3139	0.8123	0.212
Mof_H 	H 	0.4378	0.3287	0.7552	0.224
Mof_C 	C 	0.6196	0.2843	0.8242	-0.77
Mof_H 	H 	0.6603	0.2546	0.8229	0.231
Mof_H 	H 	0.5787	0.2829	0.8535	0.214
Mof_H 	H 	0.66	0.3141	0.8256	0.239
Mof_C 	C 	0.5022	0.2351	0.7724	-0.752
Mof_H 	H 	0.4449	0.2394	0.7519	0.22
Mof_H 	H 	0.4831	0.2233	0.8052	0.215
Mof_H 	H 	0.545	0.2107	0.7571	0.239
Mof_C 	C 	0.6769	0.2468	0.6062	0.124
Mof_C 	C 	0.7421	0.251	0.57	-0.175
Mof_H 	H 	0.7904	0.2757	0.5733	0.084
Mof_C 	C 	0.7432	0.2222	0.5296	0.098
Mof_H 	H 	0.7892	0.2293	0.5047	0.01
Mof_C 	C 	0.6146	0.1791	0.5585	0.084
Mof_H 	H 	0.5667	0.1543	0.5546	-0.017
Mof_C 	C 	0.612	0.2078	0.5994	-0.167
Mof_H 	H 	0.5651	0.2014	0.624	0.072
Mof_C 	C 	0.7699	0.5332	0.8339	0.016
Mof_H 	H 	0.7052	0.5302	0.8488	-0.03
Mof_H 	H 	0.7885	0.5687	0.8341	0.009
Mof_C 	C 	0.8416	0.50312	0.8637	-0.154
Mof_C 	C 	0.8404	0.45141	0.8628	0.302
Mof_C 	C 	0.9076	0.42463	0.8898	-0.33
Mof_C 	C 	0.9761	0.44957	0.9177	0.109
Mof_H 	H 	0.0221	0.4313	0.9361	-0.041
Mof_C 	C 	0.9773	0.5013	0.9186	-0.121
Mof_C 	C 	0.91	0.52806	0.8916	0.035
Mof_H 	H 	0.9109	0.5634	0.8922	0.013
Mof_C 	C 	0.9119	0.3659	0.8875	0.681
Mof_C 	C 	0.9249	0.3485	0.8333	-0.889
Mof_H 	H 	0.8631	0.3502	0.8162	0.282
Mof_H 	H 	0.9487	0.3142	0.8328	0.256
Mof_H 	H 	0.9712	0.3703	0.8167	0.272
Mof_C 	C 	0.8187	0.3472	0.9075	-0.964
Mof_H 	H 	0.8143	0.3553	0.9426	0.271
Mof_H 	H 	0.8151	0.3111	0.9031	0.274
Mof_H 	H 	0.7656	0.3631	0.8897	0.29
Mof_C 	C 	0.9992	0.3457	0.9131	-0.937
Mof_H 	H 	0.0538	0.3679	0.9071	0.278
Mof_H 	H 	0.0138	0.3125	0.9002	0.264
Mof_H 	H 	0.9868	0.3436	0.9486	0.264
Mof_C 	C 	0.0513	0.5282	0.9491	0.131
Mof_C 	C 	0.0835	0.5731	0.9327	-0.174
Mof_H 	H 	0.0599	0.5863	0.9026	0.084
Mof_C 	C 	0.1519	0.6002	0.9606	0.096
Mof_H 	H 	0.1726	0.6316	0.9485	0.004
Mof_C 	C 	0.1505	0.5405	0.019	0.088
Mof_H 	H 	0.1717	0.5283	0.05	-0.019
Mof_C 	C 	0.0838	0.5137	0.9931	-0.183
Mof_H 	H 	0.0597	0.4838	0.007	0.072
Mof_C 	C 	0.3874	0.4476	0.7195	0.04
Mof_H 	H 	0.4262	0.4236	0.7394	-0.004
Mof_C 	C 	0.369	0.4929	0.7509	-0.004
Mof_H 	H 	0.3287	0.5169	0.7318	0.029
Mof_C 	C 	0.3136	0.4776	0.7984	-0.105
Mof_H 	H 	0.3532	0.4546	0.8184	0.034
Mof_H 	H 	0.2991	0.5074	0.8185	0.049
Mof_C 	C 	0.2202	0.4519	0.7827	-0.092
Mof_H 	H 	0.1834	0.4426	0.8125	0.034
Mof_H 	H 	0.1808	0.4757	0.7636	0.046
Mof_C 	C 	0.2375	0.4066	0.7524	-0.045
Mof_H 	H 	0.1756	0.3914	0.7427	0.016
Mof_H 	H 	0.2744	0.3818	0.7717	0.016
Mof_C 	C 	0.2952	0.4223	0.7056	-0.158
Mof_H 	H 	0.3094	0.3924	0.6856	0.064
Mof_H 	H 	0.2557	0.4452	0.6854	0.062
Mof_C 	C 	0.4919	0.4188	0.6539	-0.007
Mof_H 	H 	0.4419	0.3937	0.6466	0.026
Mof_H 	H 	0.5366	0.4039	0.6781	0.028
Mof_C 	C 	0.6084	0.39669	0.52939	-0.106
Mof_C 	C 	0.5532	0.39123	0.57171	0.035
Mof_H 	H 	0.5189	0.3612	0.5773	0.028
Mof_C 	C 	0.5483	0.42969	0.60586	-0.132
Mof_C 	C 	0.5985	0.47361	0.59768	0.315
Mof_C 	C 	0.6537	0.47907	0.55536	-0.31
Mof_C 	C 	0.6586	0.4406	0.52121	0.114
Mof_H 	H 	0.6963	0.4443	0.4923	-0.025
Mof_C 	C 	0.7105	0.5274	0.5457	0.59
Mof_C 	C 	0.7677	0.526	0.4966	-0.829
Mof_H 	H 	0.8172	0.5002	0.4985	0.247
Mof_H 	H 	0.7981	0.5584	0.491	0.235
Mof_H 	H 	0.7239	0.5186	0.4694	0.26
Mof_C 	C 	0.6476	0.5735	0.5451	-0.85
Mof_H 	H 	0.6061	0.5727	0.516	0.254
Mof_H 	H 	0.6881	0.6032	0.5441	0.236
Mof_H 	H 	0.6078	0.5741	0.5749	0.261
Mof_C 	C 	0.7863	0.5361	0.5867	-0.803
Mof_H 	H 	0.7541	0.5382	0.6187	0.247
Mof_H 	H 	0.8206	0.5673	0.5802	0.228
Mof_H 	H 	0.8321	0.5085	0.587	0.244
Mof_C 	C 	0.6107	0.3552	0.4933	0.132
Mof_C 	C 	0.5452	0.3174	0.4936	-0.181
Mof_H 	H 	0.4965	0.3176	0.5181	0.113
Mof_C 	C 	0.5466	0.2789	0.4598	0.097
Mof_H 	H 	0.5014	0.2527	0.4631	-0.01
Mof_C 	C 	0.6713	0.3146	0.4205	0.103
Mof_H 	H 	0.7147	0.3157	0.3935	-0.023
Mof_C 	C 	0.6775	0.3524	0.4551	-0.179
Mof_H 	H 	0.7272	0.3765	0.4528	0.077
Mof_C 	C 	0.4509	0.5672	0.7839	0.001
Mof_H 	H 	0.515	0.583	0.7865	-0.025
Mof_H 	H 	0.4239	0.5645	0.8175	0.014
Mof_C 	C 	0.3865	0.59971	0.75305	-0.136
Mof_C 	C 	0.3923	0.60012	0.70194	0.272
Mof_C 	C 	0.3278	0.6283	0.6746	-0.256
Mof_C 	C 	0.2575	0.6561	0.69838	0.07
Mof_H 	H 	0.2134	0.6753	0.6797	-0.021
Mof_C 	C 	0.2517	0.6556	0.74949	-0.094
Mof_C 	C 	0.3163	0.6275	0.77683	0.014
Mof_H 	H 	0.3123	0.6272	0.8118	0.019
Mof_C 	C 	0.334	0.6271	0.618	0.456
Mof_C 	C 	0.3173	0.5724	0.5994	-0.711
Mof_H 	H 	0.3668	0.5505	0.6132	0.235
Mof_H 	H 	0.321	0.5716	0.5633	0.212
Mof_H 	H 	0.2538	0.5609	0.61	0.218
Mof_C 	C 	0.4305	0.6512	0.6	-0.683
Mof_H 	H 	0.4364	0.6848	0.6138	0.193
Mof_H 	H 	0.4307	0.6531	0.564	0.191
Mof_H 	H 	0.4847	0.6308	0.6111	0.205
Mof_C 	C 	0.2509	0.66	0.5959	-0.676
Mof_H 	H 	0.1888	0.6451	0.6042	0.2
Mof_H 	H 	0.2578	0.6618	0.56	0.19
Mof_H 	H 	0.2545	0.6936	0.6098	0.193
Mof_C 	C 	0.1776	0.685	0.7755	0.102
Mof_C 	C 	0.1346	0.6672	0.8187	-0.163
Mof_H 	H 	0.1542	0.6361	0.8319	0.079
Mof_C 	C 	0.0655	0.6939	0.8418	0.088
Mof_H 	H 	0.033	0.6787	0.8687	-0.002
Mof_C 	C 	0.0824	0.7583	0.7886	0.079
Mof_H 	H 	0.0651	0.7908	0.7779	-0.021
Mof_C 	C 	0.1478	0.7328	0.7624	-0.162
Mof_H 	H 	0.1748	0.7478	0.7339	0.064
Mof_C 	C 	0.6861	0.8119	0.8965	0.499
Mof_C 	C 	0.6317	0.7803	0.8545	-0.706
Mof_H 	H 	0.6605	0.7875	0.8224	0.208
Mof_H 	H 	0.5637	0.7895	0.854	0.227
Mof_H 	H 	0.6379	0.7447	0.8617	0.217
Mof_Cd	Cd	0.19207	0.37068	0.54194	0.323
Mof_Cd	Cd	0.59235	0.2162	0.36201	0.293
Mof_Ti	Ti	0.81274	0.55599	0.28086	1.361
Mof_Ti	Ti	0.94443	0.47851	0.19699	1.356
Mof_O 	O 	0.8368	0.62343	0.2681	-0.516
Mof_O 	O 	0.7232	0.5713	0.3325	-0.509
Mof_O 	O 	0.9047	0.49	0.1318	-0.516
Mof_O 	O 	0.0409	0.4284	0.1799	-0.488
Mof_O 	O 	0.878	0.5273	0.2286	-0.693
Mof_O 	O 	0.7325	0.1747	0.3895	-0.407
Mof_O 	O 	0.8555	0.1786	0.435	-0.342
Mof_N 	N 	0.7317	0.4855	0.2837	-0.243
Mof_H 	H 	0.7688	0.4608	0.2638	0.03
Mof_N 	N 	0.6911	0.5689	0.2272	-0.223
Mof_H 	H 	0.6434	0.5914	0.2434	0.071
Mof_N 	N 	0.8175	0.8162	0.0223	-0.165
Mof_N 	N 	0.3125	0.4158	0.5016	-0.165
Mof_N 	N 	0.0551	0.5376	0.1773	-0.225
Mof_H 	H 	0.0996	0.5227	0.1524	0.071
Mof_N 	N 	0.0384	0.483	0.2627	-0.237
Mof_H 	H 	0.0051	0.5042	0.2877	0.031
Mof_N 	N 	0.8891	0.7225	0.922	-0.171
Mof_N 	N 	0.46	0.2603	0.3295	-0.171
Mof_C 	C 	0.6375	0.4898	0.2607	0.011
Mof_H 	H 	0.5948	0.5073	0.2847	0.026
Mof_C 	C 	0.6411	0.5208	0.2152	0.009
Mof_H 	H 	0.6816	0.5028	0.1906	0.002
Mof_C 	C 	0.538	0.5284	0.1915	-0.126
Mof_H 	H 	0.4962	0.5459	0.2153	0.051
Mof_H 	H 	0.544	0.5497	0.1618	0.044
Mof_C 	C 	0.4913	0.4793	0.1771	-0.065
Mof_H 	H 	0.5287	0.4626	0.1509	0.022
Mof_H 	H 	0.4251	0.4848	0.1651	0.024
Mof_C 	C 	0.4908	0.447	0.2254	-0.085
Mof_H 	H 	0.4482	0.4632	0.2498	0.046
Mof_H 	H 	0.4627	0.414	0.2176	0.038
Mof_C 	C 	0.5905	0.4388	0.2495	-0.117
Mof_H 	H 	0.5832	0.4196	0.2804	0.054
Mof_H 	H 	0.6321	0.4195	0.2269	0.036
Mof_C 	C 	0.7243	0.5937	0.1811	-0.003
Mof_H 	H 	0.6677	0.6002	0.1601	0.017
Mof_H 	H 	0.7665	0.5703	0.1631	0.027
Mof_C 	C 	0.8322	0.65529	0.23025	0.307
Mof_C 	C 	0.8826	0.6999	0.23205	-0.284
Mof_C 	C 	0.88	0.73231	0.1922	0.095
Mof_H 	H 	0.9144	0.7628	0.1934	-0.022
Mof_C 	C 	0.8271	0.72011	0.15048	-0.102
Mof_C 	C 	0.7767	0.6755	0.14868	0.033
Mof_H 	H 	0.7405	0.6672	0.1202	0.012
Mof_C 	C 	0.7792	0.6431	0.1886	-0.137
Mof_C 	C 	0.9442	0.7137	0.2775	0.519
Mof_C 	C 	0.0248	0.6749	0.2856	-0.741
Mof_H 	H 	0.9962	0.6427	0.2944	0.224
Mof_H 	H 	0.0669	0.6861	0.3123	0.212
Mof_H 	H 	0.0622	0.6713	0.2552	0.224
Mof_C 	C 	0.8804	0.7157	0.3242	-0.769
Mof_H 	H 	0.8397	0.7454	0.3229	0.231
Mof_H 	H 	0.9213	0.7171	0.3535	0.214
Mof_H 	H 	0.84	0.6859	0.3256	0.239
Mof_C 	C 	0.9978	0.7649	0.2724	-0.753
Mof_H 	H 	0.0551	0.7606	0.2519	0.22
Mof_H 	H 	0.0169	0.7767	0.3052	0.215
Mof_H 	H 	0.955	0.7893	0.2571	0.239
Mof_C 	C 	0.8231	0.7532	0.1062	0.124
Mof_C 	C 	0.7579	0.749	0.07	-0.175
Mof_H 	H 	0.7096	0.7243	0.0733	0.084
Mof_C 	C 	0.7568	0.7778	0.0296	0.098
Mof_H 	H 	0.7108	0.7707	0.0047	0.01
Mof_C 	C 	0.8854	0.8209	0.0585	0.084
Mof_H 	H 	0.9333	0.8457	0.0546	-0.017
Mof_C 	C 	0.888	0.7922	0.0994	-0.167
Mof_H 	H 	0.9349	0.7986	0.124	0.072
Mof_C 	C 	0.7301	0.4668	0.3339	0.016
Mof_H 	H 	0.7948	0.4698	0.3488	-0.03
Mof_H 	H 	0.7115	0.4313	0.3341	0.009
Mof_C 	C 	0.6584	0.49688	0.3637	-0.154
Mof_C 	C 	0.6596	0.54859	0.3628	0.302
Mof_C 	C 	0.5924	0.57537	0.3898	-0.33
Mof_C 	C 	0.5239	0.55043	0.4177	0.109
Mof_H 	H 	0.4779	0.5687	0.4361	-0.041
Mof_C 	C 	0.5227	0.4987	0.4186	-0.121
Mof_C 	C 	0.59	0.47194	0.3916	0.035
Mof_H 	H 	0.5891	0.4366	0.3922	0.013
Mof_C 	C 	0.5881	0.6341	0.3875	0.682
Mof_C 	C 	0.5751	0.6515	0.3333	-0.889
Mof_H 	H 	0.6369	0.6498	0.3162	0.282
Mof_H 	H 	0.5513	0.6858	0.3328	0.256
Mof_H 	H 	0.5288	0.6297	0.3167	0.272
Mof_C 	C 	0.6813	0.6528	0.4075	-0.965
Mof_H 	H 	0.6857	0.6447	0.4426	0.272
Mof_H 	H 	0.6849	0.6889	0.4031	0.274
Mof_H 	H 	0.7344	0.6369	0.3897	0.29
Mof_C 	C 	0.5008	0.6543	0.4131	-0.939
Mof_H 	H 	0.4462	0.6321	0.4071	0.279
Mof_H 	H 	0.4862	0.6875	0.4002	0.265
Mof_H 	H 	0.5132	0.6564	0.4486	0.264
Mof_C 	C 	0.4487	0.4718	0.4491	0.13
Mof_C 	C 	0.4165	0.4269	0.4327	-0.174
Mof_H 	H 	0.4401	0.4137	0.4026	0.084
Mof_C 	C 	0.3481	0.3998	0.4606	0.096
Mof_H 	H 	0.3274	0.3684	0.4485	0.004
Mof_C 	C 	0.3495	0.4595	0.519	0.087
Mof_H 	H 	0.3283	0.4717	0.55	-0.019
Mof_C 	C 	0.4162	0.4863	0.4931	-0.182
Mof_H 	H 	0.4403	0.5162	0.507	0.071
Mof_C 	C 	0.1126	0.5524	0.2195	0.04
Mof_H 	H 	0.0738	0.5764	0.2394	-0.003
Mof_C 	C 	0.131	0.5071	0.2509	-0.004
Mof_H 	H 	0.1713	0.4831	0.2318	0.029
Mof_C 	C 	0.1864	0.5224	0.2984	-0.105
Mof_H 	H 	0.1468	0.5454	0.3184	0.034
Mof_H 	H 	0.2009	0.4926	0.3185	0.049
Mof_C 	C 	0.2798	0.5481	0.2827	-0.092
Mof_H 	H 	0.3166	0.5574	0.3125	0.034
Mof_H 	H 	0.3192	0.5243	0.2636	0.046
Mof_C 	C 	0.2625	0.5934	0.2524	-0.045
Mof_H 	H 	0.3244	0.6086	0.2427	0.016
Mof_H 	H 	0.2256	0.6182	0.2717	0.016
Mof_C 	C 	0.2048	0.5777	0.2056	-0.158
Mof_H 	H 	0.1906	0.6076	0.1856	0.064
Mof_H 	H 	0.2443	0.5548	0.1854	0.062
Mof_C 	C 	0.0081	0.5812	0.1539	-0.006
Mof_H 	H 	0.0581	0.6063	0.1466	0.026
Mof_H 	H 	0.9634	0.5961	0.1781	0.028
Mof_C 	C 	0.8916	0.60331	0.02939	-0.106
Mof_C 	C 	0.9468	0.60877	0.07171	0.035
Mof_H 	H 	0.9811	0.6388	0.0773	0.027
Mof_C 	C 	0.9517	0.57031	0.10586	-0.133
Mof_C 	C 	0.9015	0.52639	0.09768	0.315
Mof_C 	C 	0.8463	0.52093	0.05536	-0.31
Mof_C 	C 	0.8414	0.5594	0.02121	0.114
Mof_H 	H 	0.8037	0.5557	0.9923	-0.025
Mof_C 	C 	0.7895	0.4726	0.0457	0.59
Mof_C 	C 	0.7323	0.474	0.9966	-0.829
Mof_H 	H 	0.6828	0.4998	0.9985	0.247
Mof_H 	H 	0.7019	0.4416	0.991	0.235
Mof_H 	H 	0.7761	0.4814	0.9694	0.26
Mof_C 	C 	0.8524	0.4265	0.0451	-0.849
Mof_H 	H 	0.8939	0.4273	0.016	0.254
Mof_H 	H 	0.8119	0.3968	0.0441	0.236
Mof_H 	H 	0.8922	0.4259	0.0749	0.261
Mof_C 	C 	0.7137	0.4639	0.0867	-0.802
Mof_H 	H 	0.7459	0.4618	0.1187	0.247
Mof_H 	H 	0.6794	0.4327	0.0802	0.228
Mof_H 	H 	0.6679	0.4915	0.087	0.244
Mof_C 	C 	0.8893	0.6448	0.9933	0.133
Mof_C 	C 	0.9548	0.6826	0.9936	-0.181
Mof_H 	H 	0.0035	0.6824	0.0181	0.113
Mof_C 	C 	0.9534	0.7211	0.9598	0.097
Mof_H 	H 	0.9986	0.7473	0.9631	-0.01
Mof_C 	C 	0.8287	0.6854	0.9205	0.103
Mof_H 	H 	0.7853	0.6843	0.8935	-0.023
Mof_C 	C 	0.8225	0.6476	0.9551	-0.179
Mof_H 	H 	0.7728	0.6235	0.9528	0.077
Mof_C 	C 	0.0491	0.4328	0.2839	0.001
Mof_H 	H 	0.985	0.417	0.2865	-0.026
Mof_H 	H 	0.0761	0.4355	0.3175	0.013
Mof_C 	C 	0.1135	0.40029	0.25305	-0.136
Mof_C 	C 	0.1077	0.39988	0.20194	0.272
Mof_C 	C 	0.1722	0.3717	0.1746	-0.256
Mof_C 	C 	0.2425	0.3439	0.19838	0.07
Mof_H 	H 	0.2866	0.3247	0.1797	-0.021
Mof_C 	C 	0.2483	0.3444	0.24949	-0.094
Mof_C 	C 	0.1837	0.3725	0.27683	0.014
Mof_H 	H 	0.1877	0.3728	0.3118	0.018
Mof_C 	C 	0.166	0.3729	0.118	0.457
Mof_C 	C 	0.1827	0.4276	0.0994	-0.712
Mof_H 	H 	0.1332	0.4495	0.1132	0.235
Mof_H 	H 	0.179	0.4284	0.0633	0.212
Mof_H 	H 	0.2462	0.4391	0.11	0.218
Mof_C 	C 	0.0695	0.3488	0.1	-0.684
Mof_H 	H 	0.0636	0.3152	0.1138	0.193
Mof_H 	H 	0.0693	0.3469	0.064	0.191
Mof_H 	H 	0.0153	0.3692	0.1111	0.205
Mof_C 	C 	0.2491	0.34	0.0959	-0.677
Mof_H 	H 	0.3112	0.3549	0.1042	0.2
Mof_H 	H 	0.2422	0.3382	0.06	0.19
Mof_H 	H 	0.2455	0.3064	0.1098	0.193
Mof_C 	C 	0.3224	0.315	0.2755	0.102
Mof_C 	C 	0.3654	0.3328	0.3187	-0.163
Mof_H 	H 	0.3458	0.3639	0.3319	0.079
Mof_C 	C 	0.4345	0.3061	0.3418	0.088
Mof_H 	H 	0.467	0.3213	0.3687	-0.002
Mof_C 	C 	0.4176	0.2417	0.2886	0.079
Mof_H 	H 	0.4349	0.2092	0.2779	-0.02
Mof_C 	C 	0.3522	0.2672	0.2624	-0.162
Mof_H 	H 	0.3252	0.2522	0.2339	0.064
Mof_C 	C 	0.8139	0.1881	0.3965	0.499
Mof_C 	C 	0.8683	0.2197	0.3545	-0.706
Mof_H 	H 	0.8395	0.2125	0.3224	0.208
Mof_H 	H 	0.9363	0.2105	0.354	0.227
Mof_H 	H 	0.8621	0.2553	0.3617	0.217
Mof_Cd	Cd	0.69207	0.12932	0.45806	0.323
Mof_Cd	Cd	0.09235	0.2838	0.63799	0.293
Mof_Ti	Ti	0.31274	0.94401	0.71914	1.361
Mof_Ti	Ti	0.44443	0.02149	0.80301	1.356
Mof_O 	O 	0.3368	0.87657	0.7319	-0.516
Mof_O 	O 	0.2232	0.9287	0.6675	-0.509
Mof_O 	O 	0.4047	0.01	0.8682	-0.516
Mof_O 	O 	0.5409	0.0716	0.8201	-0.489
Mof_O 	O 	0.378	0.9727	0.7714	-0.693
Mof_O 	O 	0.2325	0.3253	0.6105	-0.407
Mof_O 	O 	0.3555	0.3214	0.565	-0.342
Mof_N 	N 	0.2317	0.0145	0.7163	-0.243
Mof_H 	H 	0.2688	0.0392	0.7362	0.03
Mof_N 	N 	0.1911	0.9311	0.7728	-0.223
Mof_H 	H 	0.1434	0.9086	0.7566	0.071
Mof_N 	N 	0.3175	0.6838	0.9777	-0.165
Mof_N 	N 	0.8125	0.0842	0.4984	-0.165
Mof_N 	N 	0.5551	0.9624	0.8227	-0.225
Mof_H 	H 	0.5996	0.9773	0.8476	0.071
Mof_N 	N 	0.5384	0.017	0.7373	-0.237
Mof_H 	H 	0.5051	0.9958	0.7123	0.031
Mof_N 	N 	0.3891	0.7775	0.078	-0.171
Mof_N 	N 	0.96	0.2397	0.6705	-0.171
Mof_C 	C 	0.1375	0.0102	0.7393	0.011
Mof_H 	H 	0.0948	0.9927	0.7153	0.026
Mof_C 	C 	0.1411	0.9792	0.7848	0.009
Mof_H 	H 	0.1816	0.9972	0.8094	0.002
Mof_C 	C 	0.038	0.9716	0.8085	-0.127
Mof_H 	H 	0.9962	0.9541	0.7847	0.052
Mof_H 	H 	0.044	0.9503	0.8382	0.045
Mof_C 	C 	0.9913	0.0207	0.8229	-0.064
Mof_H 	H 	0.0287	0.0374	0.8491	0.021
Mof_H 	H 	0.9251	0.0152	0.8349	0.023
Mof_C 	C 	0.9908	0.053	0.7746	-0.085
Mof_H 	H 	0.9482	0.0368	0.7502	0.046
Mof_H 	H 	0.9627	0.086	0.7824	0.038
Mof_C 	C 	0.0905	0.0612	0.7505	-0.116
Mof_H 	H 	0.0832	0.0804	0.7196	0.054
Mof_H 	H 	0.1321	0.0805	0.7731	0.036
Mof_C 	C 	0.2243	0.9063	0.8189	-0.003
Mof_H 	H 	0.1677	0.8998	0.8399	0.017
Mof_H 	H 	0.2665	0.9297	0.8369	0.027
Mof_C 	C 	0.3322	0.84471	0.76975	0.307
Mof_C 	C 	0.3826	0.8001	0.76795	-0.284
Mof_C 	C 	0.38	0.76769	0.8078	0.095
Mof_H 	H 	0.4144	0.7372	0.8066	-0.022
Mof_C 	C 	0.3271	0.77989	0.84952	-0.102
Mof_C 	C 	0.2767	0.8245	0.85132	0.033
Mof_H 	H 	0.2405	0.8328	0.8798	0.012
Mof_C 	C 	0.2792	0.8569	0.8114	-0.137
Mof_C 	C 	0.4442	0.7863	0.7225	0.519
Mof_C 	C 	0.5248	0.8251	0.7144	-0.742
Mof_H 	H 	0.4962	0.8573	0.7056	0.224
Mof_H 	H 	0.5669	0.8139	0.6877	0.212
Mof_H 	H 	0.5622	0.8287	0.7448	0.224
Mof_C 	C 	0.3804	0.7843	0.6758	-0.77
Mof_H 	H 	0.3397	0.7546	0.6771	0.231
Mof_H 	H 	0.4213	0.7829	0.6465	0.214
Mof_H 	H 	0.34	0.8141	0.6744	0.239
Mof_C 	C 	0.4978	0.7351	0.7276	-0.752
Mof_H 	H 	0.5551	0.7394	0.7481	0.22
Mof_H 	H 	0.5169	0.7233	0.6948	0.215
Mof_H 	H 	0.455	0.7107	0.7429	0.239
Mof_C 	C 	0.3231	0.7468	0.8938	0.124
Mof_C 	C 	0.2579	0.751	0.93	-0.175
Mof_H 	H 	0.2096	0.7757	0.9267	0.084
Mof_C 	C 	0.2568	0.7222	0.9704	0.098
Mof_H 	H 	0.2108	0.7293	0.9953	0.01
Mof_C 	C 	0.3854	0.6791	0.9415	0.084
Mof_H 	H 	0.4333	0.6543	0.9454	-0.017
Mof_C 	C 	0.388	0.7078	0.9006	-0.167
Mof_H 	H 	0.4349	0.7014	0.876	0.072
Mof_C 	C 	0.2301	0.0332	0.6661	0.016
Mof_H 	H 	0.2948	0.0302	0.6512	-0.03
Mof_H 	H 	0.2115	0.0687	0.6659	0.009
Mof_C 	C 	0.1584	0.00312	0.6363	-0.154
Mof_C 	C 	0.1596	0.95141	0.6372	0.302
Mof_C 	C 	0.0924	0.92463	0.6102	-0.329
Mof_C 	C 	0.0239	0.94957	0.5823	0.108
Mof_H 	H 	0.9779	0.9313	0.5639	-0.041
Mof_C 	C 	0.0227	0.0013	0.5814	-0.12
Mof_C 	C 	0.09	0.02806	0.6084	0.034
Mof_H 	H 	0.0891	0.0634	0.6078	0.013
Mof_C 	C 	0.0881	0.8659	0.6125	0.682
Mof_C 	C 	0.0751	0.8485	0.6667	-0.889
Mof_H 	H 	0.1369	0.8502	0.6838	0.282
Mof_H 	H 	0.0513	0.8142	0.6672	0.256
Mof_H 	H 	0.0288	0.8703	0.6833	0.272
Mof_C 	C 	0.1813	0.8472	0.5925	-0.965
Mof_H 	H 	0.1857	0.8553	0.5574	0.272
Mof_H 	H 	0.1849	0.8111	0.5969	0.274
Mof_H 	H 	0.2344	0.8631	0.6103	0.29
Mof_C 	C 	0.0008	0.8457	0.5869	-0.939
Mof_H 	H 	0.9462	0.8679	0.5929	0.279
Mof_H 	H 	0.9862	0.8125	0.5998	0.264
Mof_H 	H 	0.0132	0.8436	0.5514	0.264
Mof_C 	C 	0.9487	0.0282	0.5509	0.13
Mof_C 	C 	0.9165	0.0731	0.5673	-0.174
Mof_H 	H 	0.9401	0.0863	0.5974	0.084
Mof_C 	C 	0.8481	0.1002	0.5394	0.096
Mof_H 	H 	0.8274	0.1316	0.5515	0.004
Mof_C 	C 	0.8495	0.0405	0.481	0.087
Mof_H 	H 	0.8283	0.0283	0.45	-0.019
Mof_C 	C 	0.9162	0.0137	0.5069	-0.182
Mof_H 	H 	0.9403	0.9838	0.493	0.071
Mof_C 	C 	0.6126	0.9476	0.7805	0.04
Mof_H 	H 	0.5738	0.9236	0.7606	-0.004
Mof_C 	C 	0.631	0.9929	0.7491	-0.004
Mof_H 	H 	0.6713	0.0169	0.7682	0.029
Mof_C 	C 	0.6864	0.9776	0.7016	-0.105
Mof_H 	H 	0.6468	0.9546	0.6816	0.034
Mof_H 	H 	0.7009	0.0074	0.6815	0.049
Mof_C 	C 	0.7798	0.9519	0.7173	-0.093
Mof_H 	H 	0.8166	0.9426	0.6875	0.034
Mof_H 	H 	0.8192	0.9757	0.7364	0.047
Mof_C 	C 	0.7625	0.9066	0.7476	-0.045
Mof_H 	H 	0.8244	0.8914	0.7573	0.016
Mof_H 	H 	0.7256	0.8818	0.7283	0.016
Mof_C 	C 	0.7048	0.9223	0.7944	-0.158
Mof_H 	H 	0.6906	0.8924	0.8144	0.064
Mof_H 	H 	0.7443	0.9452	0.8146	0.062
Mof_C 	C 	0.5081	0.9188	0.8461	-0.007
Mof_H 	H 	0.5581	0.8937	0.8534	0.026
Mof_H 	H 	0.4634	0.9039	0.8219	0.028
Mof_C 	C 	0.3916	0.89669	0.97061	-0.105
Mof_C 	C 	0.4468	0.89123	0.92829	0.035
Mof_H 	H 	0.4811	0.8612	0.9227	0.028
Mof_C 	C 	0.4517	0.92969	0.89414	-0.132
Mof_C 	C 	0.4015	0.97361	0.90232	0.315
Mof_C 	C 	0.3463	0.97907	0.94464	-0.31
Mof_C 	C 	0.3414	0.9406	0.97879	0.114
Mof_H 	H 	0.3037	0.9443	0.0077	-0.025
Mof_C 	C 	0.2895	0.0274	0.9543	0.59
Mof_C 	C 	0.2323	0.026	0.0034	-0.829
Mof_H 	H 	0.1828	0.0002	0.0015	0.247
Mof_H 	H 	0.2019	0.0584	0.009	0.235
Mof_H 	H 	0.2761	0.0186	0.0306	0.26
Mof_C 	C 	0.3524	0.0735	0.9549	-0.849
Mof_H 	H 	0.3939	0.0727	0.984	0.254
Mof_H 	H 	0.3119	0.1032	0.9559	0.236
Mof_H 	H 	0.3922	0.0741	0.9251	0.261
Mof_C 	C 	0.2137	0.0361	0.9133	-0.802
Mof_H 	H 	0.2459	0.0382	0.8813	0.247
Mof_H 	H 	0.1794	0.0673	0.9198	0.228
Mof_H 	H 	0.1679	0.0085	0.913	0.244
Mof_C 	C 	0.3893	0.8552	0.0067	0.132
Mof_C 	C 	0.4548	0.8174	0.0064	-0.181
Mof_H 	H 	0.5035	0.8176	0.9819	0.113
Mof_C 	C 	0.4534	0.7789	0.0402	0.097
Mof_H 	H 	0.4986	0.7527	0.0369	-0.01
Mof_C 	C 	0.3287	0.8146	0.0795	0.103
Mof_H 	H 	0.2853	0.8157	0.1065	-0.023
Mof_C 	C 	0.3225	0.8524	0.0449	-0.179
Mof_H 	H 	0.2728	0.8765	0.0472	0.077
Mof_C 	C 	0.5491	0.0672	0.7161	0.001
Mof_H 	H 	0.485	0.083	0.7135	-0.025
Mof_H 	H 	0.5761	0.0645	0.6825	0.014
Mof_C 	C 	0.6135	0.09971	0.74695	-0.136
Mof_C 	C 	0.6077	0.10012	0.79806	0.272
Mof_C 	C 	0.6722	0.1283	0.8254	-0.256
Mof_C 	C 	0.7425	0.1561	0.80162	0.07
Mof_H 	H 	0.7866	0.1753	0.8203	-0.021
Mof_C 	C 	0.7483	0.1556	0.75051	-0.094
Mof_C 	C 	0.6837	0.1275	0.72317	0.014
Mof_H 	H 	0.6877	0.1272	0.6882	0.019
Mof_C 	C 	0.666	0.1271	0.882	0.456
Mof_C 	C 	0.6827	0.0724	0.9006	-0.711
Mof_H 	H 	0.6332	0.0505	0.8868	0.235
Mof_H 	H 	0.679	0.0716	0.9367	0.212
Mof_H 	H 	0.7462	0.0609	0.89	0.218
Mof_C 	C 	0.5695	0.1512	0.9	-0.683
Mof_H 	H 	0.5636	0.1848	0.8862	0.192
Mof_H 	H 	0.5693	0.1531	0.936	0.191
Mof_H 	H 	0.5153	0.1308	0.8889	0.205
Mof_C 	C 	0.7491	0.16	0.9041	-0.676
Mof_H 	H 	0.8112	0.1451	0.8958	0.2
Mof_H 	H 	0.7422	0.1618	0.94	0.19
Mof_H 	H 	0.7455	0.1936	0.8902	0.193
Mof_C 	C 	0.8224	0.185	0.7245	0.102
Mof_C 	C 	0.8654	0.1672	0.6813	-0.163
Mof_H 	H 	0.8458	0.1361	0.6681	0.079
Mof_C 	C 	0.9345	0.1939	0.6582	0.088
Mof_H 	H 	0.967	0.1787	0.6313	-0.002
Mof_C 	C 	0.9176	0.2583	0.7114	0.079
Mof_H 	H 	0.9349	0.2908	0.7221	-0.02
Mof_C 	C 	0.8522	0.2328	0.7376	-0.162
Mof_H 	H 	0.8252	0.2478	0.7661	0.064
Mof_C 	C 	0.3139	0.3119	0.6035	0.499
Mof_C 	C 	0.3683	0.2803	0.6455	-0.706
Mof_H 	H 	0.3395	0.2875	0.6776	0.208
Mof_H 	H 	0.4363	0.2895	0.646	0.227
Mof_H 	H 	0.3621	0.2447	0.6383	0.217
Mof_Cd	Cd	0.80793	0.87068	0.95806	0.323
Mof_Cd	Cd	0.40765	0.7162	0.13799	0.293
Mof_Ti	Ti	0.18726	0.05599	0.21914	1.361
Mof_Ti	Ti	0.05557	0.97851	0.30301	1.356
Mof_O 	O 	0.1632	0.12343	0.2319	-0.516
Mof_O 	O 	0.2768	0.0713	0.1675	-0.509
Mof_O 	O 	0.0953	0.99	0.3682	-0.516
Mof_O 	O 	0.9591	0.9284	0.3201	-0.489
Mof_O 	O 	0.122	0.0273	0.2714	-0.693
Mof_O 	O 	0.2675	0.6747	0.1105	-0.407
Mof_O 	O 	0.1445	0.6786	0.065	-0.342
Mof_N 	N 	0.2683	0.9855	0.2163	-0.243
Mof_H 	H 	0.2312	0.9608	0.2362	0.03
Mof_N 	N 	0.3089	0.0689	0.2728	-0.223
Mof_H 	H 	0.3566	0.0914	0.2566	0.071
Mof_N 	N 	0.1825	0.3162	0.4777	-0.165
Mof_N 	N 	0.6875	0.9158	0.9984	-0.165
Mof_N 	N 	0.9449	0.0376	0.3227	-0.225
Mof_H 	H 	0.9004	0.0227	0.3476	0.071
Mof_N 	N 	0.9616	0.983	0.2373	-0.237
Mof_H 	H 	0.9949	0.0042	0.2123	0.031
Mof_N 	N 	0.1109	0.2225	0.578	-0.171
Mof_N 	N 	0.54	0.7603	0.1705	-0.171
Mof_C 	C 	0.3625	0.9898	0.2393	0.011
Mof_H 	H 	0.4052	0.0073	0.2153	0.026
Mof_C 	C 	0.3589	0.0208	0.2848	0.009
Mof_H 	H 	0.3184	0.0028	0.3094	0.002
Mof_C 	C 	0.462	0.0284	0.3085	-0.126
Mof_H 	H 	0.5038	0.0459	0.2847	0.051
Mof_H 	H 	0.456	0.0497	0.3382	0.044
Mof_C 	C 	0.5087	0.9793	0.3229	-0.065
Mof_H 	H 	0.4713	0.9626	0.3491	0.022
Mof_H 	H 	0.5749	0.9848	0.3349	0.024
Mof_C 	C 	0.5092	0.947	0.2746	-0.085
Mof_H 	H 	0.5518	0.9632	0.2502	0.046
Mof_H 	H 	0.5373	0.914	0.2824	0.038
Mof_C 	C 	0.4095	0.9388	0.2505	-0.116
Mof_H 	H 	0.4168	0.9196	0.2196	0.054
Mof_H 	H 	0.3679	0.9195	0.2731	0.036
Mof_C 	C 	0.2757	0.0937	0.3189	-0.003
Mof_H 	H 	0.3323	0.1002	0.3399	0.017
Mof_H 	H 	0.2335	0.0703	0.3369	0.027
Mof_C 	C 	0.1678	0.15529	0.26975	0.307
Mof_C 	C 	0.1174	0.1999	0.26795	-0.284
Mof_C 	C 	0.12	0.23231	0.3078	0.095
Mof_H 	H 	0.0856	0.2628	0.3066	-0.022
Mof_C 	C 	0.1729	0.22011	0.34952	-0.102
Mof_C 	C 	0.2233	0.1755	0.35132	0.033
Mof_H 	H 	0.2595	0.1672	0.3798	0.012
Mof_C 	C 	0.2208	0.1431	0.3114	-0.137
Mof_C 	C 	0.0558	0.2137	0.2225	0.519
Mof_C 	C 	0.9752	0.1749	0.2144	-0.743
Mof_H 	H 	0.0038	0.1427	0.2056	0.225
Mof_H 	H 	0.9331	0.1861	0.1877	0.212
Mof_H 	H 	0.9378	0.1713	0.2448	0.224
Mof_C 	C 	0.1196	0.2157	0.1758	-0.769
Mof_H 	H 	0.1603	0.2454	0.1771	0.231
Mof_H 	H 	0.0787	0.2171	0.1465	0.214
Mof_H 	H 	0.16	0.1859	0.1744	0.239
Mof_C 	C 	0.0022	0.2649	0.2276	-0.75
Mof_H 	H 	0.9449	0.2606	0.2481	0.219
Mof_H 	H 	0.9831	0.2767	0.1948	0.214
Mof_H 	H 	0.045	0.2893	0.2429	0.238
Mof_C 	C 	0.1769	0.2532	0.3938	0.124
Mof_C 	C 	0.2421	0.249	0.43	-0.175
Mof_H 	H 	0.2904	0.2243	0.4267	0.084
Mof_C 	C 	0.2432	0.2778	0.4704	0.098
Mof_H 	H 	0.2892	0.2707	0.4953	0.01
Mof_C 	C 	0.1146	0.3209	0.4415	0.084
Mof_H 	H 	0.0667	0.3457	0.4454	-0.017
Mof_C 	C 	0.112	0.2922	0.4006	-0.167
Mof_H 	H 	0.0651	0.2986	0.376	0.072
Mof_C 	C 	0.2699	0.9668	0.1661	0.016
Mof_H 	H 	0.2052	0.9698	0.1512	-0.03
Mof_H 	H 	0.2885	0.9313	0.1659	0.009
Mof_C 	C 	0.3416	0.99688	0.1363	-0.155
Mof_C 	C 	0.3404	0.04859	0.1372	0.303
Mof_C 	C 	0.4076	0.07537	0.1102	-0.33
Mof_C 	C 	0.4761	0.05043	0.0823	0.109
Mof_H 	H 	0.5221	0.0687	0.0639	-0.041
Mof_C 	C 	0.4773	0.9987	0.0814	-0.121
Mof_C 	C 	0.41	0.97194	0.1084	0.035
Mof_H 	H 	0.4109	0.9366	0.1078	0.013
Mof_C 	C 	0.4119	0.1341	0.1125	0.682
Mof_C 	C 	0.4249	0.1515	0.1667	-0.889
Mof_H 	H 	0.3631	0.1498	0.1838	0.282
Mof_H 	H 	0.4487	0.1858	0.1672	0.257
Mof_H 	H 	0.4712	0.1297	0.1833	0.272
Mof_C 	C 	0.3187	0.1528	0.0925	-0.965
Mof_H 	H 	0.3143	0.1447	0.0574	0.272
Mof_H 	H 	0.3151	0.1889	0.0969	0.275
Mof_H 	H 	0.2656	0.1369	0.1103	0.29
Mof_C 	C 	0.4992	0.1543	0.0869	-0.939
Mof_H 	H 	0.5538	0.1321	0.0929	0.279
Mof_H 	H 	0.5138	0.1875	0.0998	0.265
Mof_H 	H 	0.4868	0.1564	0.0514	0.264
Mof_C 	C 	0.5513	0.9718	0.0509	0.13
Mof_C 	C 	0.5835	0.9269	0.0673	-0.174
Mof_H 	H 	0.5599	0.9137	0.0974	0.084
Mof_C 	C 	0.6519	0.8998	0.0394	0.096
Mof_H 	H 	0.6726	0.8684	0.0515	0.004
Mof_C 	C 	0.6505	0.9595	0.981	0.088
Mof_H 	H 	0.6717	0.9717	0.95	-0.019
Mof_C 	C 	0.5838	0.9863	0.0069	-0.183
Mof_H 	H 	0.5597	0.0162	0.993	0.071
Mof_C 	C 	0.8874	0.0524	0.2805	0.04
Mof_H 	H 	0.9262	0.0764	0.2606	-0.004
Mof_C 	C 	0.869	0.0071	0.2491	-0.004
Mof_H 	H 	0.8287	0.9831	0.2682	0.029
Mof_C 	C 	0.8136	0.0224	0.2016	-0.105
Mof_H 	H 	0.8532	0.0454	0.1816	0.034
Mof_H 	H 	0.7991	0.9926	0.1815	0.049
Mof_C 	C 	0.7202	0.0481	0.2173	-0.092
Mof_H 	H 	0.6834	0.0574	0.1875	0.034
Mof_H 	H 	0.6808	0.0243	0.2364	0.046
Mof_C 	C 	0.7375	0.0934	0.2476	-0.045
Mof_H 	H 	0.6756	0.1086	0.2573	0.016
Mof_H 	H 	0.7744	0.1182	0.2283	0.016
Mof_C 	C 	0.7952	0.0777	0.2944	-0.158
Mof_H 	H 	0.8094	0.1076	0.3144	0.064
Mof_H 	H 	0.7557	0.0548	0.3146	0.062
Mof_C 	C 	0.9919	0.0812	0.3461	-0.008
Mof_H 	H 	0.9419	0.1063	0.3534	0.026
Mof_H 	H 	0.0366	0.0961	0.3219	0.029
Mof_C 	C 	0.1084	0.10331	0.47061	-0.105
Mof_C 	C 	0.0532	0.10877	0.42829	0.034
Mof_H 	H 	0.0189	0.1388	0.4227	0.028
Mof_C 	C 	0.0483	0.07031	0.39414	-0.131
Mof_C 	C 	0.0985	0.02639	0.40232	0.315
Mof_C 	C 	0.1537	0.02093	0.44464	-0.31
Mof_C 	C 	0.1586	0.0594	0.47879	0.114
Mof_H 	H 	0.1963	0.0557	0.5077	-0.025
Mof_C 	C 	0.2105	0.9726	0.4543	0.59
Mof_C 	C 	0.2677	0.974	0.5034	-0.829
Mof_H 	H 	0.3172	0.9998	0.5015	0.247
Mof_H 	H 	0.2981	0.9416	0.509	0.235
Mof_H 	H 	0.2239	0.9814	0.5306	0.26
Mof_C 	C 	0.1476	0.9265	0.4549	-0.85
Mof_H 	H 	0.1061	0.9273	0.484	0.254
Mof_H 	H 	0.1881	0.8968	0.4559	0.236
Mof_H 	H 	0.1078	0.9259	0.4251	0.261
Mof_C 	C 	0.2863	0.9639	0.4133	-0.803
Mof_H 	H 	0.2541	0.9618	0.3813	0.247
Mof_H 	H 	0.3206	0.9327	0.4198	0.228
Mof_H 	H 	0.3321	0.9915	0.413	0.244
Mof_C 	C 	0.1107	0.1448	0.5067	0.132
Mof_C 	C 	0.0452	0.1826	0.5064	-0.181
Mof_H 	H 	0.9965	0.1824	0.4819	0.112
Mof_C 	C 	0.0466	0.2211	0.5402	0.097
Mof_H 	H 	0.0014	0.2473	0.5369	-0.009
Mof_C 	C 	0.1713	0.1854	0.5795	0.102
Mof_H 	H 	0.2147	0.1843	0.6065	-0.023
Mof_C 	C 	0.1775	0.1476	0.5449	-0.178
Mof_H 	H 	0.2272	0.1235	0.5472	0.077
Mof_C 	C 	0.9509	0.9328	0.2161	0.001
Mof_H 	H 	0.015	0.917	0.2135	-0.025
Mof_H 	H 	0.9239	0.9355	0.1825	0.014
Mof_C 	C 	0.8865	0.90029	0.24695	-0.136
Mof_C 	C 	0.8923	0.89988	0.29806	0.272
Mof_C 	C 	0.8278	0.8717	0.3254	-0.256
Mof_C 	C 	0.7575	0.8439	0.30162	0.07
Mof_H 	H 	0.7134	0.8247	0.3203	-0.021
Mof_C 	C 	0.7517	0.8444	0.25051	-0.094
Mof_C 	C 	0.8163	0.8725	0.22317	0.014
Mof_H 	H 	0.8123	0.8728	0.1882	0.019
Mof_C 	C 	0.834	0.8729	0.382	0.456
Mof_C 	C 	0.8173	0.9276	0.4006	-0.712
Mof_H 	H 	0.8668	0.9495	0.3868	0.235
Mof_H 	H 	0.821	0.9284	0.4367	0.212
Mof_H 	H 	0.7538	0.9391	0.39	0.218
Mof_C 	C 	0.9305	0.8488	0.4	-0.683
Mof_H 	H 	0.9364	0.8152	0.3862	0.192
Mof_H 	H 	0.9307	0.8469	0.436	0.191
Mof_H 	H 	0.9847	0.8692	0.3889	0.205
Mof_C 	C 	0.7509	0.84	0.4041	-0.676
Mof_H 	H 	0.6888	0.8549	0.3958	0.2
Mof_H 	H 	0.7578	0.8382	0.44	0.19
Mof_H 	H 	0.7545	0.8064	0.3902	0.193
Mof_C 	C 	0.6776	0.815	0.2245	0.102
Mof_C 	C 	0.6346	0.8328	0.1813	-0.163
Mof_H 	H 	0.6542	0.8639	0.1681	0.079
Mof_C 	C 	0.5655	0.8061	0.1582	0.088
Mof_H 	H 	0.533	0.8213	0.1313	-0.002
Mof_C 	C 	0.5824	0.7417	0.2114	0.079
Mof_H 	H 	0.5651	0.7092	0.2221	-0.02
Mof_C 	C 	0.6478	0.7672	0.2376	-0.162
Mof_H 	H 	0.6748	0.7522	0.2661	0.064
Mof_C 	C 	0.1861	0.6881	0.1035	0.499
Mof_C 	C 	0.1317	0.7197	0.1455	-0.706
Mof_H 	H 	0.1605	0.7125	0.1776	0.208
Mof_H 	H 	0.0637	0.7105	0.146	0.227
Mof_H 	H 	0.1379	0.7553	0.1383	0.217
_end
