data_functionalizedCrystal
_audit_creation_method	'EQeq! by Chris Wilmer'
_symmetry_space_group_name_H-M	'P1'
_symmetry_Int_Tables_number	1
_symmetry_cell_setting	triclinic
loop_
_symmetry_equiv_pos_as_xyz
  x,y,z
_cell_length_a	16.7186
_cell_length_b	16.7186
_cell_length_c	16.7186
_cell_angle_alpha	109.471
_cell_angle_beta	109.471
_cell_angle_gamma	109.471
loop_
_atom_site_label
_atom_site_type_symbol
_atom_site_fract_x
_atom_site_fract_y
_atom_site_fract_z
_atom_site_charge
Mof_Be	Be	0.625	0.375	0.25	0.808
Mof_Be	Be	0.875	0.125	0.75	0.808
Mof_Be	Be	0.25	0.875	0.625	0.808
Mof_Be	Be	0.75	0.625	0.875	0.808
Mof_Be	Be	0.375	0.75	0.125	0.809
Mof_Be	Be	0.125	0.25	0.375	0.809
Mof_H 	H 	0.6622	0.5135	0.0171	0.068
Mof_H 	H 	0.9964	0.6451	0.4829	0.068
Mof_H 	H 	0.5036	0.9865	0.6487	0.068
Mof_H 	H 	0.8378	0.8549	0.8513	0.068
Mof_H 	H 	0.1487	0.5036	0.4865	0.068
Mof_H 	H 	0.3513	0.8378	0.3549	0.068
Mof_H 	H 	0.5171	0.6622	0.0135	0.068
Mof_H 	H 	0.9829	0.9964	0.1451	0.068
Mof_H 	H 	0.6451	0.9829	0.4964	0.068
Mof_H 	H 	0.5135	0.5171	0.1622	0.068
Mof_H 	H 	0.8549	0.3513	0.3378	0.068
Mof_H 	H 	0.9865	0.1487	0.0036	0.068
Mof_H 	H 	0.1451	0.4964	0.9829	0.068
Mof_H 	H 	0.0135	0.1622	0.5171	0.068
Mof_H 	H 	0.3549	0.3378	0.3513	0.068
Mof_H 	H 	0.4865	0.0036	0.1487	0.068
Mof_H 	H 	0.1622	0.0171	0.5135	0.068
Mof_H 	H 	0.4964	0.4829	0.6451	0.068
Mof_H 	H 	0.0036	0.6487	0.9865	0.068
Mof_H 	H 	0.3378	0.8513	0.8549	0.068
Mof_H 	H 	0.6487	0.4865	0.5036	0.068
Mof_H 	H 	0.8513	0.3549	0.8378	0.068
Mof_H 	H 	0.0171	0.0135	0.6622	0.069
Mof_H 	H 	0.4829	0.1451	0.9964	0.068
Mof_C 	C 	0.62319	0.53418	0.03629	0.046
Mof_C 	C 	0.59299	0.50583	0.09542	-0.085
Mof_C 	C 	0.627	0.4449	0.1317	0.382
Mof_C 	C 	0.99789	0.5869	0.46371	0.047
Mof_C 	C 	0.91041	0.49757	0.40458	-0.085
Mof_C 	C 	0.8132	0.4953	0.3683	0.382
Mof_C 	C 	0.50211	0.96582	0.58901	0.045
Mof_C 	C 	0.58959	0.99417	0.58716	-0.084
Mof_C 	C 	0.6868	0.0551	0.6821	0.382
Mof_C 	C 	0.87681	0.9131	0.91099	0.047
Mof_C 	C 	0.90701	0.00243	0.91284	-0.087
Mof_C 	C 	0.873	0.0047	0.8179	0.383
Mof_C 	C 	0.08901	0.50211	0.46582	0.046
Mof_C 	C 	0.08716	0.58959	0.49417	-0.086
Mof_C 	C 	0.1821	0.6868	0.5551	0.382
Mof_C 	C 	0.41099	0.87681	0.4131	0.046
Mof_C 	C 	0.41284	0.90701	0.50243	-0.085
Mof_C 	C 	0.3179	0.873	0.5047	0.382
Mof_C 	C 	0.53629	0.62319	0.03418	0.046
Mof_C 	C 	0.59542	0.59299	0.00583	-0.084
Mof_C 	C 	0.6317	0.627	0.9449	0.382
Mof_C 	C 	0.96371	0.99789	0.0869	0.048
Mof_C 	C 	0.90458	0.91041	0.99757	-0.086
Mof_C 	C 	0.8683	0.8132	0.9953	0.382
Mof_C 	C 	0.5869	0.96371	0.49789	0.045
Mof_C 	C 	0.49757	0.90458	0.41041	-0.085
Mof_C 	C 	0.4953	0.8683	0.3132	0.382
Mof_C 	C 	0.53418	0.53629	0.12319	0.046
Mof_C 	C 	0.50583	0.59542	0.09299	-0.085
Mof_C 	C 	0.4449	0.6317	0.127	0.382
Mof_C 	C 	0.9131	0.41099	0.37681	0.047
Mof_C 	C 	0.00243	0.41284	0.40701	-0.085
Mof_C 	C 	0.0047	0.3179	0.373	0.382
Mof_C 	C 	0.96582	0.08901	0.00211	0.048
Mof_C 	C 	0.99417	0.08716	0.08959	-0.086
Mof_C 	C 	0.0551	0.1821	0.1868	0.382
Mof_C 	C 	0.0869	0.49789	0.96371	0.047
Mof_C 	C 	0.99757	0.41041	0.90458	-0.085
Mof_C 	C 	0.9953	0.3132	0.8683	0.381
Mof_C 	C 	0.03418	0.12319	0.53629	0.045
Mof_C 	C 	0.00583	0.09299	0.59542	-0.084
Mof_C 	C 	0.9449	0.127	0.6317	0.382
Mof_C 	C 	0.4131	0.37681	0.41099	0.046
Mof_C 	C 	0.50243	0.40701	0.41284	-0.085
Mof_C 	C 	0.5047	0.373	0.3179	0.382
Mof_C 	C 	0.46582	0.00211	0.08901	0.047
Mof_C 	C 	0.49417	0.08959	0.08716	-0.086
Mof_C 	C 	0.5551	0.1868	0.1821	0.383
Mof_C 	C 	0.12319	0.03629	0.53418	0.045
Mof_C 	C 	0.09299	0.09542	0.50583	-0.084
Mof_C 	C 	0.127	0.1317	0.4449	0.382
Mof_C 	C 	0.49789	0.46371	0.5869	0.046
Mof_C 	C 	0.41041	0.40458	0.49757	-0.085
Mof_C 	C 	0.3132	0.3683	0.4953	0.382
Mof_C 	C 	0.00211	0.58901	0.96582	0.047
Mof_C 	C 	0.08959	0.58716	0.99417	-0.084
Mof_C 	C 	0.1868	0.6821	0.0551	0.381
Mof_C 	C 	0.37681	0.91099	0.9131	0.047
Mof_C 	C 	0.40701	0.91284	0.00243	-0.086
Mof_C 	C 	0.373	0.8179	0.0047	0.382
Mof_C 	C 	0.58901	0.46582	0.50211	0.046
Mof_C 	C 	0.58716	0.49417	0.58959	-0.085
Mof_C 	C 	0.6821	0.5551	0.6868	0.382
Mof_C 	C 	0.91099	0.4131	0.87681	0.046
Mof_C 	C 	0.91284	0.50243	0.90701	-0.086
Mof_C 	C 	0.8179	0.5047	0.873	0.383
Mof_C 	C 	0.03629	0.03418	0.62319	0.045
Mof_C 	C 	0.09542	0.00583	0.59299	-0.083
Mof_C 	C 	0.1317	0.9449	0.627	0.381
Mof_C 	C 	0.46371	0.0869	0.99789	0.047
Mof_C 	C 	0.40458	0.99757	0.91041	-0.085
Mof_C 	C 	0.3683	0.9953	0.8132	0.382
Mof_O 	O 	0.60125	0.43072	0.19045	-0.381
Mof_O 	O 	0.6712	0.4109	0.0981	-0.232
Mof_O 	O 	0.74027	0.4108	0.30955	-0.382
Mof_O 	O 	0.8128	0.5731	0.4019	-0.232
Mof_O 	O 	0.75973	0.06928	0.67053	-0.381
Mof_O 	O 	0.6872	0.0891	0.7603	-0.232
Mof_O 	O 	0.89875	0.0892	0.82947	-0.382
Mof_O 	O 	0.8288	0.9269	0.7397	-0.232
Mof_O 	O 	0.17053	0.75973	0.56928	-0.382
Mof_O 	O 	0.2603	0.6872	0.5891	-0.232
Mof_O 	O 	0.32947	0.89875	0.5892	-0.382
Mof_O 	O 	0.2397	0.8288	0.4269	-0.232
Mof_O 	O 	0.69045	0.60125	0.93072	-0.382
Mof_O 	O 	0.5981	0.6712	0.9109	-0.232
Mof_O 	O 	0.80955	0.74027	0.9108	-0.381
Mof_O 	O 	0.9019	0.8128	0.0731	-0.231
Mof_O 	O 	0.4108	0.80955	0.24027	-0.381
Mof_O 	O 	0.5731	0.9019	0.3128	-0.232
Mof_O 	O 	0.43072	0.69045	0.10125	-0.382
Mof_O 	O 	0.4109	0.5981	0.1712	-0.232
Mof_O 	O 	0.0892	0.32947	0.39875	-0.381
Mof_O 	O 	0.9269	0.2397	0.3288	-0.232
Mof_O 	O 	0.06928	0.17053	0.25973	-0.382
Mof_O 	O 	0.0891	0.2603	0.1872	-0.232
Mof_O 	O 	0.9108	0.24027	0.80955	-0.381
Mof_O 	O 	0.0731	0.3128	0.9019	-0.231
Mof_O 	O 	0.93072	0.10125	0.69045	-0.381
Mof_O 	O 	0.9109	0.1712	0.5981	-0.232
Mof_O 	O 	0.5892	0.39875	0.32947	-0.382
Mof_O 	O 	0.4269	0.3288	0.2397	-0.232
Mof_O 	O 	0.56928	0.25973	0.17053	-0.382
Mof_O 	O 	0.5891	0.1872	0.2603	-0.232
Mof_O 	O 	0.10125	0.19045	0.43072	-0.381
Mof_O 	O 	0.1712	0.0981	0.4109	-0.232
Mof_O 	O 	0.24027	0.30955	0.4108	-0.381
Mof_O 	O 	0.3128	0.4019	0.5731	-0.232
Mof_O 	O 	0.25973	0.67053	0.06928	-0.382
Mof_O 	O 	0.1872	0.7603	0.0891	-0.232
Mof_O 	O 	0.39875	0.82947	0.0892	-0.381
Mof_O 	O 	0.3288	0.7397	0.9269	-0.232
Mof_O 	O 	0.67053	0.56928	0.75973	-0.381
Mof_O 	O 	0.7603	0.5891	0.6872	-0.232
Mof_O 	O 	0.82947	0.5892	0.89875	-0.382
Mof_O 	O 	0.7397	0.4269	0.8288	-0.232
Mof_O 	O 	0.19045	0.93072	0.60125	-0.381
Mof_O 	O 	0.0981	0.9109	0.6712	-0.232
Mof_O 	O 	0.30955	0.9108	0.74027	-0.381
Mof_O 	O 	0.4019	0.0731	0.8128	-0.232
_end
