data_functionalizedCrystal
_audit_creation_method	'EQeq! by Chris Wilmer'
_symmetry_space_group_name_H-M	'P1'
_symmetry_Int_Tables_number	1
_symmetry_cell_setting	triclinic
loop_
_symmetry_equiv_pos_as_xyz
  x,y,z
_cell_length_a	15.8585
_cell_length_b	13.419
_cell_length_c	6.6158
_cell_angle_alpha	90
_cell_angle_beta	97.925
_cell_angle_gamma	90
loop_
_atom_site_label
_atom_site_type_symbol
_atom_site_fract_x
_atom_site_fract_y
_atom_site_fract_z
_atom_site_charge
Mof_Er	Er	0.24882	0.56099	0.036	1.543
Mof_C 	C 	0.1429	0.3885	0.9833	0.329
Mof_C 	C 	0.0868	0.2968	0.9461	-0.128
Mof_C 	C 	0.1244	0.2032	0.9521	0.087
Mof_C 	C 	0.9955	0.1263	0.8797	0.106
Mof_C 	C 	0.9515	0.2161	0.877	-0.196
Mof_C 	C 	0.9997	0.3037	0.9074	0.097
Mof_C 	C 	0.8565	0.2169	0.8367	0.474
Mof_C 	C 	0.3995	0.5519	0.3333	0.333
Mof_C 	C 	0.4781	0.5486	0.4904	-0.215
Mof_N 	N 	0.07988	0.11876	0.917	-0.14
Mof_O 	O 	0.11087	0.47319	0.9428	-0.378
Mof_O 	O 	0.2195	0.37756	0.0561	-0.391
Mof_O 	O 	0.81892	0.1369	0.7828	-0.456
Mof_O 	O 	0.81898	0.2967	0.8655	-0.482
Mof_O 	O 	0.38482	0.4879	0.1928	-0.413
Mof_O 	O 	0.3468	0.6211	0.346	-0.409
Mof_H 	H 	0.1833	0.199	0.9819	0.016
Mof_H 	H 	0.964	0.068	0.8539	0.018
Mof_H 	H 	0.9731	0.3655	0.9014	0.013
Mof_H 	H 	0.5178	0.5986	0.4557	0.093
Mof_H 	H 	0.4621	0.5663	0.6221	0.092
Mof_Er	Er	0.75118	0.06099	0.464	1.54
Mof_C 	C 	0.8571	0.8885	0.5167	0.328
Mof_C 	C 	0.9132	0.7968	0.5539	-0.129
Mof_C 	C 	0.8756	0.7032	0.5479	0.088
Mof_C 	C 	0.0045	0.6263	0.6203	0.114
Mof_C 	C 	0.0485	0.7161	0.623	-0.197
Mof_C 	C 	0.0003	0.8037	0.5926	0.101
Mof_C 	C 	0.1435	0.7169	0.6633	0.476
Mof_C 	C 	0.6005	0.0519	0.1667	0.33
Mof_C 	C 	0.5219	0.0486	0.0096	-0.214
Mof_N 	N 	0.92012	0.61876	0.583	-0.144
Mof_O 	O 	0.88913	0.97319	0.5572	-0.375
Mof_O 	O 	0.7805	0.87756	0.4439	-0.389
Mof_O 	O 	0.18108	0.6369	0.7172	-0.454
Mof_O 	O 	0.18102	0.7967	0.6345	-0.482
Mof_O 	O 	0.61518	0.9879	0.3072	-0.411
Mof_O 	O 	0.6532	0.1211	0.154	-0.408
Mof_H 	H 	0.8167	0.699	0.5181	0.016
Mof_H 	H 	0.036	0.568	0.6461	0.018
Mof_H 	H 	0.0269	0.8655	0.5986	0.011
Mof_H 	H 	0.4822	0.0986	0.0443	0.093
Mof_H 	H 	0.5379	0.0663	0.8779	0.091
Mof_Er	Er	0.75118	0.43901	0.964	1.544
Mof_C 	C 	0.8571	0.6115	0.0167	0.33
Mof_C 	C 	0.9132	0.7032	0.0539	-0.127
Mof_C 	C 	0.8756	0.7968	0.0479	0.088
Mof_C 	C 	0.0045	0.8737	0.1203	0.107
Mof_C 	C 	0.0485	0.7839	0.123	-0.195
Mof_C 	C 	0.0003	0.6963	0.0926	0.098
Mof_C 	C 	0.1435	0.7831	0.1633	0.475
Mof_C 	C 	0.6005	0.4481	0.6667	0.333
Mof_C 	C 	0.5219	0.4514	0.5096	-0.215
Mof_N 	N 	0.92012	0.88124	0.083	-0.14
Mof_O 	O 	0.88913	0.52681	0.0572	-0.378
Mof_O 	O 	0.7805	0.62244	0.9439	-0.391
Mof_O 	O 	0.18108	0.8631	0.2172	-0.456
Mof_O 	O 	0.18102	0.7033	0.1345	-0.482
Mof_O 	O 	0.61518	0.5121	0.8072	-0.413
Mof_O 	O 	0.6532	0.3789	0.654	-0.409
Mof_H 	H 	0.8167	0.801	0.0181	0.016
Mof_H 	H 	0.036	0.932	0.1461	0.018
Mof_H 	H 	0.0269	0.6345	0.0986	0.013
Mof_H 	H 	0.4822	0.4014	0.5443	0.093
Mof_H 	H 	0.5379	0.4337	0.3779	0.092
Mof_Er	Er	0.24882	0.93901	0.536	1.54
Mof_C 	C 	0.1429	0.1115	0.4833	0.328
Mof_C 	C 	0.0868	0.2032	0.4461	-0.129
Mof_C 	C 	0.1244	0.2968	0.4521	0.088
Mof_C 	C 	0.9955	0.3737	0.3797	0.114
Mof_C 	C 	0.9515	0.2839	0.377	-0.197
Mof_C 	C 	0.9997	0.1963	0.4074	0.101
Mof_C 	C 	0.8565	0.2831	0.3367	0.476
Mof_C 	C 	0.3995	0.9481	0.8333	0.33
Mof_C 	C 	0.4781	0.9514	0.9904	-0.214
Mof_N 	N 	0.07988	0.38124	0.417	-0.144
Mof_O 	O 	0.11087	0.02681	0.4428	-0.375
Mof_O 	O 	0.2195	0.12244	0.5561	-0.389
Mof_O 	O 	0.81892	0.3631	0.2828	-0.454
Mof_O 	O 	0.81898	0.2033	0.3655	-0.482
Mof_O 	O 	0.38482	0.0121	0.6928	-0.411
Mof_O 	O 	0.3468	0.8789	0.846	-0.408
Mof_H 	H 	0.1833	0.301	0.4819	0.016
Mof_H 	H 	0.964	0.432	0.3539	0.018
Mof_H 	H 	0.9731	0.1345	0.4014	0.011
Mof_H 	H 	0.5178	0.9014	0.9557	0.093
Mof_H 	H 	0.4621	0.9337	0.1221	0.091
_end
