data_functionalizedCrystal
_audit_creation_method	'EQeq! by Chris Wilmer'
_symmetry_space_group_name_H-M	'P1'
_symmetry_Int_Tables_number	1
_symmetry_cell_setting	triclinic
loop_
_symmetry_equiv_pos_as_xyz
  x,y,z
_cell_length_a	10.7455
_cell_length_b	6.3469
_cell_length_c	20.48
_cell_angle_alpha	90
_cell_angle_beta	104.286
_cell_angle_gamma	90
loop_
_atom_site_label
_atom_site_type_symbol
_atom_site_fract_x
_atom_site_fract_y
_atom_site_fract_z
_atom_site_charge
Mof_Ti	Ti	0.8906	0.0351	0.2003	1.995
Mof_Ti	Ti	0.0967	0.543	0.3935	1.996
Mof_P 	P 	0.1723	0.1716	0.1777	0.67
Mof_P 	P 	0.8838	0.5377	0.243	0.8
Mof_P 	P 	0.0252	0.0488	0.3665	0.744
Mof_P 	P 	0.6798	0.0816	0.0532	0.753
Mof_O 	O 	0.8884	0.7296	0.199	-0.523
Mof_O 	O 	0.8022	0.0289	0.1056	-0.505
Mof_O 	O 	0.8877	0.3429	0.2005	-0.521
Mof_O 	O 	0.9971	0.031	0.2915	-0.564
Mof_O 	O 	0.7653	0.538	0.27	-0.596
Mof_O 	O 	0.0497	0.046	0.171	-0.475
Mof_O 	O 	0.0025	0.5403	0.3028	-0.585
Mof_O 	O 	0.0865	0.8483	0.4012	-0.498
Mof_O 	O 	0.6878	0.9681	0.9889	-0.468
Mof_O 	O 	0.1138	0.2356	0.3919	-0.477
Mof_O 	O 	0.2443	0.0699	0.1299	-0.497
Mof_O 	O 	0.5656	0.0132	0.0782	-0.55
Mof_O 	O 	0.2534	0.1757	0.2509	-0.454
Mof_O 	O 	0.1458	0.4013	0.1572	-0.193
Mof_O 	O 	0.8976	0.0845	0.387	-0.526
Mof_O 	O 	0.6755	0.3184	0.0369	-0.471
Mof_H 	H 	0.3188	0.2447	0.2531	0.302
Mof_H 	H 	0.8638	0.1933	0.3695	0.299
Mof_H 	H 	0.6497	0.3834	0.0656	0.334
Mof_Ti	Ti	0.6094	0.5351	0.2997	2.003
Mof_Ti	Ti	0.4033	0.043	0.1065	1.993
Mof_P 	P 	0.3277	0.6716	0.3223	0.672
Mof_P 	P 	0.6162	0.0377	0.257	0.796
Mof_P 	P 	0.4748	0.5488	0.1335	0.748
Mof_P 	P 	0.8202	0.5816	0.4468	0.755
Mof_O 	O 	0.6116	0.2296	0.301	-0.528
Mof_O 	O 	0.6978	0.5289	0.3944	-0.505
Mof_O 	O 	0.6123	0.8429	0.2995	-0.517
Mof_O 	O 	0.5029	0.531	0.2085	-0.561
Mof_O 	O 	0.7347	0.038	0.23	-0.598
Mof_O 	O 	0.4503	0.546	0.329	-0.475
Mof_O 	O 	0.4975	0.0403	0.1972	-0.587
Mof_O 	O 	0.4135	0.3483	0.0988	-0.5
Mof_O 	O 	0.8122	0.4681	0.5111	-0.47
Mof_O 	O 	0.3862	0.7356	0.1081	-0.473
Mof_O 	O 	0.2557	0.5699	0.3701	-0.497
Mof_O 	O 	0.9344	0.5132	0.4218	-0.55
Mof_O 	O 	0.2466	0.6757	0.2491	-0.451
Mof_O 	O 	0.3542	0.9013	0.3428	-0.191
Mof_O 	O 	0.6024	0.5845	0.113	-0.525
Mof_O 	O 	0.8245	0.8184	0.4631	-0.472
Mof_H 	H 	0.1812	0.7447	0.2469	0.304
Mof_H 	H 	0.6362	0.6933	0.1305	0.3
Mof_H 	H 	0.8503	0.8834	0.4344	0.336
Mof_Ti	Ti	0.1094	0.9649	0.7997	1.996
Mof_Ti	Ti	0.9033	0.457	0.6065	1.997
Mof_P 	P 	0.8277	0.8284	0.8223	0.671
Mof_P 	P 	0.1162	0.4623	0.757	0.801
Mof_P 	P 	0.9748	0.9512	0.6335	0.745
Mof_P 	P 	0.3202	0.9184	0.9468	0.754
Mof_O 	O 	0.1116	0.2704	0.801	-0.523
Mof_O 	O 	0.1978	0.9711	0.8944	-0.505
Mof_O 	O 	0.1123	0.6571	0.7995	-0.521
Mof_O 	O 	0.0029	0.969	0.7085	-0.564
Mof_O 	O 	0.2347	0.462	0.73	-0.596
Mof_O 	O 	0.9503	0.954	0.829	-0.475
Mof_O 	O 	0.9975	0.4597	0.6972	-0.585
Mof_O 	O 	0.9135	0.1517	0.5988	-0.498
Mof_O 	O 	0.3122	0.0319	0.0111	-0.468
Mof_O 	O 	0.8862	0.7644	0.6081	-0.477
Mof_O 	O 	0.7557	0.9301	0.8701	-0.497
Mof_O 	O 	0.4344	0.9868	0.9218	-0.55
Mof_O 	O 	0.7466	0.8243	0.7491	-0.454
Mof_O 	O 	0.8542	0.5987	0.8428	-0.193
Mof_O 	O 	0.1024	0.9155	0.613	-0.526
Mof_O 	O 	0.3245	0.6816	0.9631	-0.471
Mof_H 	H 	0.6812	0.7553	0.7469	0.302
Mof_H 	H 	0.1362	0.8067	0.6305	0.299
Mof_H 	H 	0.3503	0.6166	0.9344	0.334
Mof_Ti	Ti	0.3906	0.4649	0.7003	2.003
Mof_Ti	Ti	0.5967	0.957	0.8935	1.993
Mof_P 	P 	0.6723	0.3284	0.6777	0.672
Mof_P 	P 	0.3838	0.9623	0.743	0.796
Mof_P 	P 	0.5252	0.4512	0.8665	0.748
Mof_P 	P 	0.1798	0.4184	0.5532	0.755
Mof_O 	O 	0.3884	0.7704	0.699	-0.528
Mof_O 	O 	0.3022	0.4711	0.6056	-0.505
Mof_O 	O 	0.3877	0.1571	0.7005	-0.517
Mof_O 	O 	0.4971	0.469	0.7915	-0.561
Mof_O 	O 	0.2653	0.962	0.77	-0.598
Mof_O 	O 	0.5497	0.454	0.671	-0.475
Mof_O 	O 	0.5025	0.9597	0.8028	-0.587
Mof_O 	O 	0.5865	0.6517	0.9012	-0.5
Mof_O 	O 	0.1878	0.5319	0.4889	-0.47
Mof_O 	O 	0.6138	0.2644	0.8919	-0.473
Mof_O 	O 	0.7443	0.4301	0.6299	-0.497
Mof_O 	O 	0.0656	0.4868	0.5782	-0.55
Mof_O 	O 	0.7534	0.3243	0.7509	-0.451
Mof_O 	O 	0.6458	0.0987	0.6572	-0.191
Mof_O 	O 	0.3976	0.4155	0.887	-0.525
Mof_O 	O 	0.1755	0.1816	0.5369	-0.472
Mof_H 	H 	0.8188	0.2553	0.7531	0.304
Mof_H 	H 	0.3638	0.3067	0.8695	0.3
Mof_H 	H 	0.1497	0.1166	0.5656	0.336
_end
