data_functionalizedCrystal
_audit_creation_method	'EQeq! by Chris Wilmer'
_symmetry_space_group_name_H-M	'P1'
_symmetry_Int_Tables_number	1
_symmetry_cell_setting	triclinic
loop_
_symmetry_equiv_pos_as_xyz
  x,y,z
_cell_length_a	10.9638
_cell_length_b	10.9718
_cell_length_c	10.9814
_cell_angle_alpha	83.227
_cell_angle_beta	85.937
_cell_angle_gamma	81.093
loop_
_atom_site_label
_atom_site_type_symbol
_atom_site_fract_x
_atom_site_fract_y
_atom_site_fract_z
_atom_site_charge
Mof_Co	Co	0.0807	0.9065	0.2507	1.15
Mof_Co	Co	0.8555	0.9957	0.49	1.111
Mof_Co	Co	0.9648	0.8592	0.0048	1.111
Mof_C 	C 	0.6885	0.916	0.294	0.039
Mof_C 	C 	0.7097	0.903	0.1704	0.081
Mof_C 	C 	0.6158	0.892	0.0964	-0.144
Mof_H 	H 	0.632	0.8806	0.0138	0.062
Mof_C 	C 	0.4973	0.897	0.1496	0.031
Mof_H 	H 	0.4322	0.8896	0.1024	0.021
Mof_C 	C 	0.4749	0.913	0.2732	-0.08
Mof_C 	C 	0.5684	0.929	0.3453	-0.066
Mof_H 	H 	0.5513	0.9478	0.4257	0.064
Mof_C 	C 	0.3434	0.919	0.3328	0.356
Mof_C 	C 	0.0647	0.295	0.2132	0.04
Mof_C 	C 	0.0931	0.265	0.3358	0.083
Mof_C 	C 	0.1035	0.353	0.4126	-0.145
Mof_H 	H 	0.124	0.3306	0.4937	0.074
Mof_C 	C 	0.0826	0.477	0.3653	0.035
Mof_H 	H 	0.0867	0.5393	0.4154	0.029
Mof_C 	C 	0.0556	0.509	0.2426	-0.089
Mof_C 	C 	0.0418	0.419	0.1684	-0.066
Mof_H 	H 	0.0171	0.4415	0.0886	0.066
Mof_C 	C 	0.0504	0.642	0.1891	0.372
Mof_N 	N 	0.7985	0.927	0.3375	-0.211
Mof_N 	N 	0.881	0.917	0.2446	-0.191
Mof_N 	N 	0.8306	0.902	0.1419	-0.229
Mof_N 	N 	0.0618	0.189	0.166	-0.224
Mof_N 	N 	0.0894	0.1	0.2557	-0.193
Mof_N 	N 	0.1112	0.141	0.3591	-0.219
Mof_O 	O 	0.0943	0.937	0.0643	-0.715
Mof_H 	H 	0.169	0.888	0.035	0.168
Mof_O 	O 	0.04	0.899	0.432	-0.669
Mof_H 	H 	0.102	0.841	0.476	0.111
Mof_O 	O 	0.3178	0.951	0.434	-0.468
Mof_O 	O 	0.2724	0.869	0.2667	-0.421
Mof_O 	O 	0.0119	0.676	0.0822	-0.444
Mof_O 	O 	0.0819	0.711	0.2581	-0.429
Mof_Co	Co	0.9193	0.0935	0.7493	1.149
Mof_Co	Co	0.1445	0.0043	0.51	1.11
Mof_Co	Co	0.0352	0.1408	0.9952	1.111
Mof_C 	C 	0.3115	0.084	0.706	0.039
Mof_C 	C 	0.2903	0.097	0.8296	0.081
Mof_C 	C 	0.3842	0.108	0.9036	-0.144
Mof_H 	H 	0.368	0.1194	0.9862	0.062
Mof_C 	C 	0.5027	0.103	0.8504	0.031
Mof_H 	H 	0.5678	0.1104	0.8976	0.021
Mof_C 	C 	0.5251	0.087	0.7268	-0.08
Mof_C 	C 	0.4316	0.071	0.6547	-0.066
Mof_H 	H 	0.4487	0.0522	0.5743	0.064
Mof_C 	C 	0.6566	0.081	0.6672	0.356
Mof_C 	C 	0.9353	0.705	0.7868	0.04
Mof_C 	C 	0.9069	0.735	0.6642	0.083
Mof_C 	C 	0.8965	0.647	0.5874	-0.145
Mof_H 	H 	0.876	0.6694	0.5063	0.074
Mof_C 	C 	0.9174	0.523	0.6347	0.035
Mof_H 	H 	0.9133	0.4607	0.5846	0.029
Mof_C 	C 	0.9444	0.491	0.7574	-0.089
Mof_C 	C 	0.9582	0.581	0.8316	-0.066
Mof_H 	H 	0.9829	0.5585	0.9114	0.066
Mof_C 	C 	0.9496	0.358	0.8109	0.372
Mof_N 	N 	0.2015	0.073	0.6625	-0.211
Mof_N 	N 	0.119	0.083	0.7554	-0.191
Mof_N 	N 	0.1694	0.098	0.8581	-0.229
Mof_N 	N 	0.9382	0.811	0.834	-0.224
Mof_N 	N 	0.9106	0.9	0.7443	-0.193
Mof_N 	N 	0.8888	0.859	0.6409	-0.219
Mof_O 	O 	0.9057	0.063	0.9357	-0.715
Mof_H 	H 	0.831	0.112	0.965	0.168
Mof_O 	O 	0.96	0.101	0.568	-0.669
Mof_H 	H 	0.898	0.159	0.524	0.111
Mof_O 	O 	0.6822	0.049	0.566	-0.468
Mof_O 	O 	0.7276	0.131	0.7333	-0.421
Mof_O 	O 	0.9881	0.324	0.9178	-0.444
Mof_O 	O 	0.9181	0.289	0.7419	-0.429
_end
