data_functionalizedCrystal
_audit_creation_method	'EQeq! by Chris Wilmer'
_symmetry_space_group_name_H-M	'P1'
_symmetry_Int_Tables_number	1
_symmetry_cell_setting	triclinic
loop_
_symmetry_equiv_pos_as_xyz
  x,y,z
_cell_length_a	37.7069
_cell_length_b	37.7069
_cell_length_c	37.7069
_cell_angle_alpha	60.0703
_cell_angle_beta	75.4911
_cell_angle_gamma	104.509
loop_
_atom_site_label
_atom_site_type_symbol
_atom_site_fract_x
_atom_site_fract_y
_atom_site_fract_z
_atom_site_charge
Mof_Cu	Cu	-2.26112e-17	0.21535	0.78465	0.905
Mof_Cu	Cu	0.75568	0.12784	0.37216	0.908
Mof_Cu	Cu	0.67526	0.08763	0.41237	0.928
Mof_Cu	Cu	0.5	0.37216	0.87216	0.908
Mof_Cu	Cu	0.5	0.62784	0.12784	0.908
Mof_Cu	Cu	0.24432	0.87216	0.62784	0.908
Mof_Cu	Cu	-3.95695e-17	0.78465	0.21535	0.905
Mof_Cu	Cu	0.5	0.41237	0.91237	0.928
Mof_Cu	Cu	-3.39168e-17	0.71535	0.28465	0.905
Mof_Cu	Cu	-2.26112e-17	0.28465	0.71535	0.904
Mof_Cu	Cu	0.32474	0.91237	0.58763	0.927
Mof_Cu	Cu	0.5	0.58763	0.08763	0.927
Mof_H 	H 	0.7813	0.0834	0.5501	0.076
Mof_H 	H 	0.3416	0.7217	0.6501	0.076
Mof_H 	H 	0.6843	0.75	0.5657	0.114
Mof_H 	H 	0.2261	0.9374	0.3163	0.106
Mof_H 	H 	0.6017	0.0192	0.4175	0.033
Mof_H 	H 	0.5273	0.0456	0.5183	0.06
Mof_H 	H 	0.4161	0.622	0.0325	0.032
Mof_H 	H 	0.3983	0.9808	0.5825	0.032
Mof_H 	H 	0.6584	0.1501	0.2217	0.076
Mof_H 	H 	0.6545	0.122	0.2941	0.032
Mof_H 	H 	0.5894	0.3304	0.8922	0.034
Mof_H 	H 	0.3665	0.4499	0.3314	0.075
Mof_H 	H 	0.2261	0.1837	0.5626	0.106
Mof_H 	H 	0.5639	0.5456	0.9817	0.06
Mof_H 	H 	0.7739	0.4576	0.2887	0.107
Mof_H 	H 	0.2226	0.741	0.6696	0.033
Mof_H 	H 	0.2537	0.0424	0.1837	0.106
Mof_H 	H 	0.3157	0.5657	0.75	0.114
Mof_H 	H 	0.7739	0.2113	0.0424	0.107
Mof_H 	H 	0.0937	0.2869	0.8014	0.029
Mof_H 	H 	0.5894	0.759	0.0184	0.033
Mof_H 	H 	0.4106	0.3922	0.8304	0.034
Mof_H 	H 	0.8606	0.8065	0.3359	0.082
Mof_H 	H 	0.3455	0.0514	0.5325	0.032
Mof_H 	H 	0.8576	0.6641	0.1965	0.082
Mof_H 	H 	0.0937	0.8951	0.1932	0.029
Mof_H 	H 	0.9117	0.6049	0.3014	0.032
Mof_H 	H 	0.7774	0.1696	0.241	0.034
Mof_H 	H 	0.4161	0.4486	0.2059	0.032
Mof_H 	H 	0.9063	0.7131	0.1986	0.032
Mof_H 	H 	0.2537	0.4374	0.7887	0.106
Mof_H 	H 	0.4106	0.5184	0.259	0.034
Mof_H 	H 	0.5894	0.4816	0.741	0.034
Mof_H 	H 	0.2187	0.8021	0.8314	0.075
Mof_H 	H 	0.3665	0.4166	0.8021	0.075
Mof_H 	H 	0.7463	0.2887	0.9374	0.107
Mof_H 	H 	0.6584	0.2783	0.3499	0.076
Mof_H 	H 	0.7774	0.0184	0.3922	0.035
Mof_H 	H 	0.1394	0.1935	0.6641	0.081
Mof_H 	H 	0.3718	0.6501	0.0083	0.076
Mof_H 	H 	0.1424	0.6965	0.1641	0.081
Mof_H 	H 	0.6843	0.4343	0.25	0.114
Mof_H 	H 	0.0883	0.8014	0.1049	0.029
Mof_H 	H 	0.9117	0.2131	0.6932	0.032
Mof_H 	H 	0.4361	0.4817	0.0456	0.06
Mof_H 	H 	0.7774	0.259	0.3304	0.034
Mof_H 	H 	0.2261	0.7887	0.9576	0.106
Mof_H 	H 	0.5633	0.5825	0.0192	0.032
Mof_H 	H 	0.6335	0.5501	0.6686	0.076
Mof_H 	H 	0.8606	0.1641	0.6935	0.082
Mof_H 	H 	0.6017	0.0825	0.4808	0.033
Mof_H 	H 	0.3718	0.2217	0.1199	0.076
Mof_H 	H 	0.8606	0.5541	0.3035	0.082
Mof_H 	H 	0.3157	0.25	0.4343	0.114
Mof_H 	H 	0.6584	0.8801	0.4917	0.076
Mof_H 	H 	0.5839	0.5325	0.122	0.032
Mof_H 	H 	0.4161	0.4675	0.878	0.032
Mof_H 	H 	0.2261	0.5424	0.7113	0.106
Mof_H 	H 	0.4367	0.5192	0.0825	0.032
Mof_H 	H 	0.0937	0.6986	0.2131	0.029
Mof_H 	H 	0.3416	0.8499	0.7783	0.076
Mof_H 	H 	0.4106	0.241	0.9816	0.034
Mof_H 	H 	0.5839	0.378	0.9675	0.032
Mof_H 	H 	0.7813	0.3314	0.3021	0.076
Mof_H 	H 	0.7463	0.9576	0.8163	0.107
Mof_H 	H 	0.1394	0.8035	0.0541	0.081
Mof_H 	H 	0.9063	0.1049	0.8068	0.032
Mof_H 	H 	0.3455	0.878	0.7059	0.032
Mof_H 	H 	0.3157	0.0657	0.25	0.114
Mof_H 	H 	0.7463	0.6837	0.5424	0.107
Mof_H 	H 	0.9117	0.1986	0.8951	0.032
Mof_H 	H 	0.4727	0.9544	0.4817	0.06
Mof_H 	H 	0.8576	0.6935	0.4459	0.082
Mof_H 	H 	0.2187	0.6686	0.6979	0.075
Mof_H 	H 	0.5273	0.9817	0.4544	0.059
Mof_H 	H 	0.6335	0.3021	0.9166	0.076
Mof_H 	H 	0.7813	0.9499	0.4166	0.076
Mof_H 	H 	0.5633	0.4808	0.9175	0.033
Mof_H 	H 	0.0937	0.3068	0.6049	0.029
Mof_H 	H 	0.9063	0.3014	0.7869	0.032
Mof_H 	H 	0.1394	0.4459	0.6965	0.081
Mof_H 	H 	0.6545	0.0325	0.5514	0.032
Mof_H 	H 	0.8606	0.1965	0.9459	0.082
Mof_H 	H 	0.2226	0.8922	0.5184	0.033
Mof_H 	H 	0.5839	0.7059	0.9486	0.033
Mof_H 	H 	0.5639	0.5183	0.9544	0.06
Mof_H 	H 	0.3455	0.7941	0.622	0.032
Mof_H 	H 	0.3455	0.9675	0.4486	0.032
Mof_H 	H 	0.0883	0.1932	0.7131	0.029
Mof_H 	H 	0.5839	0.5514	0.7941	0.032
Mof_H 	H 	0.7739	0.8163	0.4374	0.107
Mof_H 	H 	0.8576	0.0541	0.8065	0.082
Mof_H 	H 	0.5894	0.6078	0.1696	0.034
Mof_H 	H 	0.3718	0.3801	0.2783	0.076
Mof_H 	H 	0.3665	0.1686	0.0501	0.075
Mof_H 	H 	0.6335	0.8314	0.9499	0.076
Mof_H 	H 	0.7739	0.0626	0.6837	0.107
Mof_H 	H 	0.9117	0.8068	0.2869	0.032
Mof_H 	H 	0.3157	0.75	0.9343	0.114
Mof_H 	H 	0.8576	0.3035	0.8359	0.082
Mof_H 	H 	0.2187	0.9166	0.4499	0.075
Mof_H 	H 	0.2537	0.3163	0.4576	0.106
Mof_H 	H 	0.4367	0.4175	0.9808	0.033
Mof_H 	H 	0.2537	0.7113	0.0626	0.106
Mof_H 	H 	0.1394	0.8359	0.3065	0.081
Mof_H 	H 	0.6335	0.5834	0.1979	0.076
Mof_H 	H 	0.6282	0.7783	0.8801	0.077
Mof_H 	H 	0.0883	0.7869	0.3068	0.029
Mof_H 	H 	0.3665	0.6979	0.0834	0.075
Mof_H 	H 	0.9063	0.6932	0.3951	0.032
Mof_H 	H 	0.3718	0.4917	0.8499	0.076
Mof_H 	H 	0.6545	0.9486	0.4675	0.032
Mof_H 	H 	0.6843	0.9343	0.75	0.114
Mof_H 	H 	0.7774	0.1078	0.4816	0.034
Mof_H 	H 	0.0883	0.3951	0.6986	0.029
Mof_H 	H 	0.2187	0.0501	0.5834	0.075
Mof_H 	H 	0.3416	0.1199	0.5083	0.076
Mof_H 	H 	0.6584	0.0083	0.6199	0.076
Mof_H 	H 	0.4106	0.6696	0.1078	0.034
Mof_H 	H 	0.7813	0.1979	0.1686	0.076
Mof_H 	H 	0.3983	0.9175	0.5192	0.032
Mof_H 	H 	0.1424	0.9459	0.1935	0.081
Mof_H 	H 	0.6545	0.2059	0.378	0.032
Mof_H 	H 	0.2226	0.8304	0.759	0.033
Mof_H 	H 	0.6282	0.6199	0.7217	0.076
Mof_H 	H 	0.1424	0.3065	0.5541	0.081
Mof_H 	H 	0.3416	0.9917	0.3801	0.076
Mof_H 	H 	0.1424	0.3359	0.8035	0.081
Mof_H 	H 	0.6282	0.5083	0.1501	0.076
Mof_H 	H 	0.6843	0.25	0.0657	0.114
Mof_H 	H 	0.2226	0.9816	0.6078	0.033
Mof_H 	H 	0.4161	0.2941	0.0514	0.032
Mof_H 	H 	0.7463	0.5626	0.2113	0.107
Mof_H 	H 	0.4361	0.4544	0.0183	0.059
Mof_H 	H 	0.4727	0.0183	0.5456	0.06
Mof_H 	H 	0.6282	0.3499	0.9917	0.077
Mof_C 	C 	0.447	0.5333	0.1805	0.345
Mof_C 	C 	0.0861	0.3361	0.75	-0.107
Mof_C 	C 	0.59718	0.50951	0.73713	0.047
Mof_C 	C 	0.10298	0.71878	0.1812	0.054
Mof_C 	C 	0.458	0.9986	0.5406	-0.084
Mof_C 	C 	0.37649	0.68259	0.0731	-0.12
Mof_C 	C 	0.9139	0.75	0.3361	-0.103
Mof_C 	C 	0.2798	0.68817	0.67675	0.072
Mof_C 	C 	0.5	0.51048	0.01048	0.033
Mof_C 	C 	0.4608	0.4594	0.9986	-0.083
Mof_C 	C 	0.8563	0.25	0.8937	0.086
Mof_C 	C 	0.6203	0.52825	0.15415	-0.12
Mof_C 	C 	0.9475	0.75	0.3025	0.375
Mof_C 	C 	0.2714	0.5577	0.7295	0.151
Mof_C 	C 	0.2756	0.1723	0.5143	-0.055
Mof_C 	C 	0.8686	0.2827	0.8465	-0.133
Mof_C 	C 	0.7632	0.0132	0.75	0.122
Mof_C 	C 	0.8708	0.1535	0.7151	-0.133
Mof_C 	C 	0.8265	0.75	0.4235	-0.031
Mof_C 	C 	0.62351	0.55041	0.6939	-0.12
Mof_C 	C 	0.7417	0.9683	0.7902	-0.202
Mof_C 	C 	0.7047	0.9547	0.75	-0.223
Mof_C 	C 	0.2862	0.8725	0.6805	0.345
Mof_C 	C 	0.7202	0.04345	0.59163	0.073
Mof_C 	C 	0.553	0.4667	0.8195	0.345
Mof_C 	C 	0.2583	0.2902	0.4683	-0.202
Mof_C 	C 	0.3134	0.4857	0.7899	-0.055
Mof_C 	C 	0.62351	0.8061	0.94959	-0.12
Mof_C 	C 	0.6203	0.77445	0.90795	-0.12
Mof_C 	C 	0.3372	0.3647	0.3571	-0.015
Mof_C 	C 	0.7585	0.7902	0.4681	-0.202
Mof_C 	C 	0.75336	0.26287	0.33431	0.047
Mof_C 	C 	0.37649	0.44959	0.3061	-0.12
Mof_C 	C 	0.89702	0.1158	0.78418	0.053
Mof_C 	C 	0.4131	0.9372	0.5241	0.03
Mof_C 	C 	0.458	0.9594	0.5014	-0.084
Mof_C 	C 	0.0861	0.8361	0.25	-0.107
Mof_C 	C 	0.7632	0.25	0.9868	0.122
Mof_C 	C 	0.1735	0.4235	0.75	-0.032
Mof_C 	C 	0.40603	0.26877	0.05114	0.047
Mof_C 	C 	0.7047	0.4547	0.25	-0.224
Mof_C 	C 	0.7244	0.2101	0.1033	-0.054
Mof_C 	C 	0.8708	0.7849	0.3465	-0.133
Mof_C 	C 	0.7128	0.7137	0.5577	0.152
Mof_C 	C 	0.75569	0.94959	0.4269	-0.119
Mof_C 	C 	0.8265	0.25	0.9235	-0.03
Mof_C 	C 	0.8563	0.6063	0.25	0.086
Mof_C 	C 	0.59397	0.73123	0.94886	0.047
Mof_C 	C 	0.3797	0.22555	0.09205	-0.12
Mof_C 	C 	0.24664	0.00951	0.58767	0.047
Mof_C 	C 	0.68009	0.13726	0.26877	0.047
Mof_C 	C 	0.0861	0.75	0.1639	-0.107
Mof_C 	C 	0.41759	0.42747	0.85696	-0.111
Mof_C 	C 	0.8563	0.1063	0.75	0.086
Mof_C 	C 	0.6628	0.5275	0.1943	-0.015
Mof_C 	C 	0.3797	0.47175	0.84585	-0.12
Mof_C 	C 	0.36492	0.45655	0.82325	0.072
Mof_C 	C 	0.2368	0.25	0.5132	0.121
Mof_C 	C 	0.89998	0.21878	0.8842	0.053
Mof_C 	C 	0.1314	0.2849	0.5859	-0.136
Mof_C 	C 	0.7128	0.2705	0.0009	0.15
Mof_C 	C 	0.40282	0.23713	0.00951	0.046
Mof_C 	C 	0.2782	0.6429	0.6943	-0.015
Mof_C 	C 	0.7138	0.1275	0.3195	0.345
Mof_C 	C 	0.47904	0.98952	0.51048	0.033
Mof_C 	C 	0.71557	0.22545	0.35696	-0.111
Mof_C 	C 	0.7138	0.0863	0.4667	0.345
Mof_C 	C 	0.28443	0.92747	0.49012	-0.111
Mof_C 	C 	0.7978	0.75	0.4522	-0.031
Mof_C 	C 	0.1292	0.2151	0.6535	-0.136
Mof_C 	C 	0.2368	0.75	0.0132	0.121
Mof_C 	C 	0.68009	0.04283	0.55114	0.047
Mof_C 	C 	0.1292	0.7827	0.0859	-0.136
Mof_C 	C 	0.28443	0.77455	0.64304	-0.111
Mof_C 	C 	0.68009	0.23123	0.36274	0.047
Mof_C 	C 	0.58241	0.57253	0.14304	-0.111
Mof_C 	C 	0.6824	0.15415	0.22555	-0.12
Mof_C 	C 	0.7286	0.4423	0.2705	0.152
Mof_C 	C 	0.2872	0.7295	0.9991	0.153
Mof_C 	C 	0.6824	0.90795	0.47175	-0.12
Mof_C 	C 	0.75569	0.0731	0.55041	-0.12
Mof_C 	C 	0.2022	0.25	0.5478	-0.032
Mof_C 	C 	0.0861	0.25	0.6639	-0.107
Mof_C 	C 	0.8708	0.2173	0.9141	-0.133
Mof_C 	C 	0.2782	0.9725	0.3647	-0.015
Mof_C 	C 	0.2862	0.9137	0.5333	0.345
Mof_C 	C 	0.5	0.48952	0.98952	0.033
Mof_C 	C 	0.7047	0.25	0.0453	-0.223
Mof_C 	C 	0.10002	0.21582	0.6812	0.054
Mof_C 	C 	0.553	0.3725	0.9137	0.345
Mof_C 	C 	0.68009	0.94886	0.45717	0.047
Mof_C 	C 	0.7978	0.25	0.9522	-0.031
Mof_C 	C 	0.2714	0.2137	0.4991	0.151
Mof_C 	C 	0.447	0.6275	0.0863	0.345
Mof_C 	C 	0.3176	0.84585	0.77445	-0.12
Mof_C 	C 	0.2368	0.4868	0.75	0.121
Mof_C 	C 	0.3134	0.3277	0.3967	-0.055
Mof_C 	C 	0.3372	0.4725	0.8057	-0.015
Mof_C 	C 	0.7585	0.0319	0.7098	-0.201
Mof_C 	C 	0.0525	0.3025	0.75	0.376
Mof_C 	C 	0.8686	0.7151	0.4141	-0.133
Mof_C 	C 	0.6628	0.3057	0.9725	-0.015
Mof_C 	C 	0.7047	0.75	0.5453	-0.224
Mof_C 	C 	0.62351	0.31741	0.9269	-0.12
Mof_C 	C 	0.1437	0.8937	0.25	0.086
Mof_C 	C 	0.2022	0.4522	0.75	-0.032
Mof_C 	C 	0.71557	0.14304	0.27455	-0.111
Mof_C 	C 	0.89702	0.6812	0.21878	0.053
Mof_C 	C 	0.37649	0.1939	0.05041	-0.119
Mof_C 	C 	0.2714	0.0009	0.2863	0.153
Mof_C 	C 	0.0525	0.25	0.6975	0.376
Mof_C 	C 	0.2022	0.9522	0.25	-0.032
Mof_C 	C 	0.28443	0.85696	0.72545	-0.111
Mof_C 	C 	0.58241	0.50988	0.77455	-0.111
Mof_C 	C 	0.4131	0.9759	0.5628	0.03
Mof_C 	C 	0.63508	0.54345	0.17675	0.072
Mof_C 	C 	0.3372	0.1429	0.1353	-0.015
Mof_C 	C 	0.6866	0.6723	0.6033	-0.054
Mof_C 	C 	0.542	0.0406	0.4986	-0.084
Mof_C 	C 	0.71557	0.07253	0.50988	-0.111
Mof_C 	C 	0.3134	0.1033	0.1723	-0.055
Mof_C 	C 	0.7202	0.31183	0.32325	0.072
Mof_C 	C 	0.31991	0.05114	0.54283	0.047
Mof_C 	C 	0.0525	0.75	0.1975	0.376
Mof_C 	C 	0.7218	0.3571	0.3057	-0.014
Mof_C 	C 	0.9475	0.25	0.8025	0.375
Mof_C 	C 	0.10002	0.78122	0.1158	0.054
Mof_C 	C 	0.9475	0.1975	0.75	0.375
Mof_C 	C 	0.2583	0.4681	0.7734	-0.202
Mof_C 	C 	0.40603	0.63726	0.04283	0.047
Mof_C 	C 	0.40282	0.49049	0.26287	0.047
Mof_C 	C 	0.7218	0.8647	0.4725	-0.014
Mof_C 	C 	0.7202	0.17675	0.18817	0.072
Mof_C 	C 	0.9475	0.6975	0.25	0.375
Mof_C 	C 	0.24431	0.6939	0.68259	-0.12
Mof_C 	C 	0.75336	0.16569	0.23713	0.047
Mof_C 	C 	0.9139	0.6639	0.25	-0.103
Mof_C 	C 	0.0525	0.8025	0.25	0.376
Mof_C 	C 	0.6824	0.27445	0.34585	-0.12
Mof_C 	C 	0.7978	0.0478	0.75	-0.031
Mof_C 	C 	0.7632	0.5132	0.25	0.122
Mof_C 	C 	0.6203	0.59205	0.72555	-0.12
Mof_C 	C 	0.58241	0.72545	0.99012	-0.111
Mof_C 	C 	0.1437	0.25	0.6063	0.086
Mof_C 	C 	0.5869	0.0628	0.4759	0.03
Mof_C 	C 	0.9139	0.25	0.8361	-0.103
Mof_C 	C 	0.75336	0.08767	0.50951	0.047
Mof_C 	C 	0.8563	0.75	0.3937	0.086
Mof_C 	C 	0.5392	0.4986	0.9594	-0.084
Mof_C 	C 	0.3797	0.40795	0.27445	-0.12
Mof_C 	C 	0.2872	0.2863	0.4423	0.151
Mof_C 	C 	0.3176	0.09205	0.52825	-0.121
Mof_C 	C 	0.7138	0.1805	0.3725	0.345
Mof_C 	C 	0.40603	0.44886	0.23123	0.047
Mof_C 	C 	0.2798	0.82325	0.81183	0.072
Mof_C 	C 	0.7244	0.3967	0.2899	-0.054
Mof_C 	C 	0.8265	0.5765	0.25	-0.031
Mof_C 	C 	0.1292	0.8465	0.2849	-0.136
Mof_C 	C 	0.2782	0.8057	0.8571	-0.015
Mof_C 	C 	0.2415	0.9681	0.2902	-0.203
Mof_C 	C 	0.2953	0.75	0.9547	-0.224
Mof_C 	C 	0.10002	0.8188	0.28418	0.054
Mof_C 	C 	0.36492	0.67675	0.04345	0.072
Mof_C 	C 	0.7244	0.0143	0.6723	-0.053
Mof_C 	C 	0.10298	0.8842	0.21582	0.054
Mof_C 	C 	0.7632	0.75	0.4868	0.122
Mof_C 	C 	0.5869	0.0241	0.4372	0.03
Mof_C 	C 	0.2872	0.0577	0.2137	0.152
Mof_C 	C 	0.2953	0.25	0.4547	-0.224
Mof_C 	C 	0.63508	0.59163	0.68817	0.072
Mof_C 	C 	0.31991	0.86274	0.73123	0.047
Mof_C 	C 	0.40282	0.41233	0.83431	0.047
Mof_C 	C 	0.1314	0.7173	0.1535	-0.136
Mof_C 	C 	0.36492	0.40837	0.31183	0.072
Mof_C 	C 	0.2756	0.6033	0.7101	-0.055
Mof_C 	C 	0.8265	0.0765	0.75	-0.03
Mof_C 	C 	0.5387	0.5628	0.0241	0.03
Mof_C 	C 	0.52096	0.01048	0.48952	0.033
Mof_C 	C 	0.58241	0.35696	0.92747	-0.111
Mof_C 	C 	0.41759	0.27455	0.00988	-0.111
Mof_C 	C 	0.7218	0.0275	0.6353	-0.015
Mof_C 	C 	0.8686	0.0859	0.7849	-0.133
Mof_C 	C 	0.2862	0.9667	0.5863	0.345
Mof_C 	C 	0.59718	0.58767	0.16569	0.047
Mof_C 	C 	0.31991	0.76877	0.63726	0.047
Mof_C 	C 	0.2798	0.95655	0.40837	0.072
Mof_C 	C 	0.2368	0.9868	0.25	0.121
Mof_C 	C 	0.2872	0.5009	0.7705	0.151
Mof_C 	C 	0.2862	0.8195	0.6275	0.345
Mof_C 	C 	0.24431	0.81741	0.8061	-0.12
Mof_C 	C 	0.24431	0.05041	0.5731	-0.12
Mof_C 	C 	0.7218	0.1943	0.1429	-0.015
Mof_C 	C 	0.1437	0.3937	0.75	0.086
Mof_C 	C 	0.3134	0.7101	0.0143	-0.056
Mof_C 	C 	0.24664	0.91233	0.49049	0.046
Mof_C 	C 	0.10002	0.3842	0.71878	0.054
Mof_C 	C 	0.37649	0.4269	0.81741	-0.12
Mof_C 	C 	0.2798	0.09163	0.54345	0.072
Mof_C 	C 	0.59718	0.33431	0.91233	0.047
Mof_C 	C 	0.1314	0.9141	0.2151	-0.136
Mof_C 	C 	0.59397	0.54283	0.13726	0.047
Mof_C 	C 	0.7286	0.2295	0.0577	0.152
Mof_C 	C 	0.3176	0.72555	0.65415	-0.12
Mof_C 	C 	0.2415	0.5317	0.7266	-0.202
Mof_C 	C 	0.2415	0.7734	0.9683	-0.202
Mof_C 	C 	0.2583	0.7266	0.0319	-0.203
Mof_C 	C 	0.2415	0.2098	0.5319	-0.202
Mof_C 	C 	0.7202	0.90837	0.45655	0.072
Mof_C 	C 	0.553	0.5863	0.1275	0.345
Mof_C 	C 	0.5387	0.4759	0.9372	0.03
Mof_C 	C 	0.1292	0.4141	0.7173	-0.136
Mof_C 	C 	0.6628	0.6353	0.6429	-0.015
Mof_C 	C 	0.6866	0.5143	0.2101	-0.054
Mof_C 	C 	0.89702	0.28122	0.8188	0.053
Mof_C 	C 	0.2756	0.9857	0.3277	-0.056
Mof_C 	C 	0.7585	0.2266	0.0317	-0.202
Mof_C 	C 	0.1314	0.3465	0.7827	-0.136
Mof_C 	C 	0.8708	0.5859	0.2827	-0.133
Mof_C 	C 	0.89998	0.78418	0.3188	0.053
Mof_C 	C 	0.8686	0.6535	0.2173	-0.133
Mof_C 	C 	0.89702	0.71582	0.3842	0.053
Mof_C 	C 	0.7128	0.9423	0.7863	0.152
Mof_C 	C 	0.1735	0.9235	0.25	-0.032
Mof_C 	C 	0.4608	0.5014	0.0406	-0.084
Mof_C 	C 	0.7128	0.4991	0.2295	0.152
Mof_C 	C 	0.2714	0.7705	0.9423	0.152
Mof_C 	C 	0.553	0.6805	0.0333	0.345
Mof_C 	C 	0.2022	0.75	0.0478	-0.032
Mof_C 	C 	0.6866	0.2899	0.9857	-0.053
Mof_C 	C 	0.24664	0.73713	0.66569	0.047
Mof_C 	C 	0.40282	0.66569	0.08767	0.046
Mof_C 	C 	0.24431	0.9269	0.44959	-0.12
Mof_C 	C 	0.6866	0.8967	0.8277	-0.054
Mof_C 	C 	0.6824	0.02825	0.59205	-0.12
Mof_C 	C 	0.7417	0.7098	0.5317	-0.202
Mof_C 	C 	0.59397	0.36274	0.95717	0.047
Mof_C 	C 	0.2756	0.7899	0.8967	-0.055
Mof_C 	C 	0.89998	0.1812	0.71582	0.053
Mof_C 	C 	0.75336	0.99049	0.41233	0.046
Mof_C 	C 	0.28443	0.00988	0.57253	-0.111
Mof_C 	C 	0.10298	0.3188	0.78122	0.054
Mof_C 	C 	0.89998	0.6158	0.28122	0.053
Mof_C 	C 	0.7286	0.7863	0.5009	0.152
Mof_C 	C 	0.36492	0.18817	0.09163	0.072
Mof_C 	C 	0.2953	0.5453	0.75	-0.224
Mof_C 	C 	0.4613	0.4372	0.9759	0.03
Mof_C 	C 	0.6628	0.8571	0.8647	-0.015
Mof_C 	C 	0.59397	0.55114	0.76877	0.047
Mof_C 	C 	0.7417	0.2734	0.9681	-0.201
Mof_C 	C 	0.2583	0.0317	0.2098	-0.202
Mof_C 	C 	0.7585	0.4683	0.2734	-0.202
Mof_C 	C 	0.71557	0.99012	0.42747	-0.111
Mof_C 	C 	0.75569	0.18259	0.1939	-0.119
Mof_C 	C 	0.2953	0.0453	0.25	-0.224
Mof_C 	C 	0.7138	0.0333	0.4137	0.345
Mof_C 	C 	0.7417	0.5319	0.2266	-0.202
Mof_C 	C 	0.10298	0.28418	0.6158	0.054
Mof_C 	C 	0.542	0.0014	0.4594	-0.083
Mof_C 	C 	0.9139	0.1639	0.75	-0.103
Mof_C 	C 	0.3797	0.65415	0.02825	-0.12
Mof_C 	C 	0.41759	0.64304	0.07253	-0.111
Mof_C 	C 	0.7286	0.9991	0.7137	0.151
Mof_C 	C 	0.447	0.4137	0.8725	0.345
Mof_C 	C 	0.7244	0.8277	0.4857	-0.054
Mof_C 	C 	0.6203	0.34585	0.97175	-0.12
Mof_C 	C 	0.4613	0.5241	0.0628	0.03
Mof_C 	C 	0.75569	0.3061	0.31741	-0.119
Mof_C 	C 	0.5392	0.5406	0.0014	-0.084
Mof_C 	C 	0.3372	0.6943	0.0275	-0.015
Mof_C 	C 	0.1735	0.25	0.5765	-0.032
Mof_C 	C 	0.24664	0.83431	0.76287	0.047
Mof_C 	C 	0.62351	0.5731	0.18259	-0.12
Mof_C 	C 	0.59718	0.76287	0.99049	0.048
Mof_C 	C 	0.1437	0.75	0.1063	0.086
Mof_C 	C 	0.7978	0.5478	0.25	-0.031
Mof_C 	C 	0.41759	0.49012	0.22545	-0.111
Mof_C 	C 	0.3176	0.97175	0.40795	-0.12
Mof_C 	C 	0.447	0.3195	0.9667	0.345
Mof_C 	C 	0.2782	0.1353	0.5275	-0.015
Mof_C 	C 	0.1735	0.75	0.0765	-0.032
Mof_C 	C 	0.40603	0.45717	0.86274	0.047
Mof_C 	C 	0.63508	0.81183	0.90837	0.073
Mof_C 	C 	0.63508	0.32325	0.95655	0.073
Mof_C 	C 	0.31991	0.95717	0.44886	0.047
Mof_N 	N 	0.5	0.5541	0.0541	-0.159
Mof_N 	N 	0.5	0.4459	0.9459	-0.159
Mof_N 	N 	0.6082	0.0541	0.4459	-0.159
Mof_N 	N 	0.3918	0.9459	0.5541	-0.159
Mof_O 	O 	0.75052	0.18214	0.35912	-0.394
Mof_O 	O 	0.95969	0.23823	0.71866	-0.416
Mof_O 	O 	0.04311	0.82165	0.21866	-0.424
Mof_O 	O 	0.24948	0.81786	0.64088	-0.395
Mof_O 	O 	0.68032	0.0746	0.46642	-0.406
Mof_O 	O 	0.95689	0.27854	0.76177	-0.417
Mof_O 	O 	0.04031	0.32165	0.72146	-0.424
Mof_O 	O 	0.95969	0.22146	0.82165	-0.416
Mof_O 	O 	0.95969	0.67835	0.27854	-0.417
Mof_O 	O 	0.68032	0.14674	0.39428	-0.406
Mof_O 	O 	0.04311	0.26177	0.77854	-0.424
Mof_O 	O 	0.24948	0.93162	0.60964	-0.395
Mof_O 	O 	0.54102	0.5746	0.10572	-0.406
Mof_O 	O 	0.54102	0.46642	0.85326	-0.406
Mof_O 	O 	0.04311	0.28134	0.67835	-0.424
Mof_O 	O 	0.75052	0.14088	0.31786	-0.394
Mof_O 	O 	0.75052	0.10964	0.43162	-0.394
Mof_O 	O 	0.95689	0.73823	0.22146	-0.417
Mof_O 	O 	0.24948	0.85912	0.68214	-0.395
Mof_O 	O 	0.54126	0.68214	0.06838	-0.395
Mof_O 	O 	0.45874	0.39036	0.85912	-0.395
Mof_O 	O 	0.54102	0.39428	0.9254	-0.406
Mof_O 	O 	0.45874	0.31786	0.93162	-0.395
Mof_O 	O 	0.54126	0.43162	0.81786	-0.394
Mof_O 	O 	0.95969	0.78134	0.26177	-0.417
Mof_O 	O 	0.54126	0.60964	0.14088	-0.395
Mof_O 	O 	0.45898	0.35326	0.96642	-0.406
Mof_O 	O 	0.75052	0.06838	0.39036	-0.394
Mof_O 	O 	0.04031	0.76177	0.28134	-0.424
Mof_O 	O 	0.68032	0.03358	0.4254	-0.406
Mof_O 	O 	0.45898	0.60572	0.0746	-0.406
Mof_O 	O 	0.24948	0.89036	0.56838	-0.395
Mof_O 	O 	0.95689	0.17835	0.78134	-0.417
Mof_O 	O 	0.04031	0.77854	0.17835	-0.424
Mof_O 	O 	0.04031	0.21866	0.73823	-0.424
Mof_O 	O 	0.54102	0.64674	0.03358	-0.406
Mof_O 	O 	0.04311	0.72146	0.23823	-0.424
Mof_O 	O 	0.31968	0.96642	0.5746	-0.406
Mof_O 	O 	0.45874	0.56838	0.18214	-0.395
Mof_O 	O 	0.95689	0.71866	0.32165	-0.417
Mof_O 	O 	0.45898	0.4254	0.89428	-0.406
Mof_O 	O 	0.45874	0.64088	0.10964	-0.395
Mof_O 	O 	0.68032	0.10572	0.35326	-0.406
Mof_O 	O 	0.31968	0.89428	0.64674	-0.406
Mof_O 	O 	0.54126	0.35912	0.89036	-0.394
Mof_O 	O 	0.45898	0.53358	0.14674	-0.406
Mof_O 	O 	0.31968	0.9254	0.53358	-0.406
Mof_O 	O 	0.31968	0.85326	0.60572	-0.406
_end
