data_functionalizedCrystal
_audit_creation_method	'EQeq! by Chris Wilmer'
_symmetry_space_group_name_H-M	'P1'
_symmetry_Int_Tables_number	1
_symmetry_cell_setting	triclinic
loop_
_symmetry_equiv_pos_as_xyz
  x,y,z
_cell_length_a	54.438
_cell_length_b	14.5003
_cell_length_c	39.5817
_cell_angle_alpha	90
_cell_angle_beta	128.01
_cell_angle_gamma	90
loop_
_atom_site_label
_atom_site_type_symbol
_atom_site_fract_x
_atom_site_fract_y
_atom_site_fract_z
_atom_site_charge
Mof_Mo	Mo	0.17362	0.48442	0.48721	1.348
Mof_Mo	Mo	0.19348	0.71286	0.50748	1.081
Mof_Mo	Mo	0.15235	0.85132	0.59034	1.395
Mof_Mo	Mo	0.0725	0.68445	0.429	1.087
Mof_Mo	Mo	0.0828	0.79362	0.51381	1.364
Mof_Mo	Mo	0.16897	0.37641	0.55285	1.371
Mof_Mo	Mo	0.11758	0.64848	0.42458	1.1
Mof_Mo	Mo	0.2062	0.79594	0.57507	1.024
Mof_Mo	Mo	0.18709	0.50048	0.63855	1.066
Mof_Mo	Mo	0.2028	0.67397	0.6512	1.039
Mof_Mo	Mo	0.06708	0.56188	0.50306	1.038
Mof_Zn	Zn	0.1291	0.86106	0.48523	1.226
Mof_Mo	Mo	0.10814	0.43515	0.55294	1.051
Mof_Zn	Zn	0.22567	0.55099	0.59381	1.225
Mof_Zn	Zn	0.0993	0.4471	0.45615	1.226
Mof_Zn	Zn	0.12291	0.65713	0.6063	1.223
Mof_O 	O 	0.214	0.5701	0.6315	-0.741
Mof_O 	O 	0.2174	0.6748	0.5674	-0.734
Mof_O 	O 	0.1439	0.4166	0.4928	-0.792
Mof_O 	O 	0.0908	0.5701	0.4296	-0.744
Mof_O 	O 	0.1965	0.4624	0.5496	-0.794
Mof_O 	O 	0.12	0.8528	0.5269	-0.798
Mof_O 	O 	0.1722	0.8117	0.514	-0.728
Mof_O 	O 	0.1085	0.7549	0.445	-0.747
Mof_O 	O 	0.1787	0.7894	0.6407	-0.664
Mof_O 	O 	0.0862	0.4636	0.4925	-0.731
Mof_O 	O 	0.193	0.3985	0.6098	-0.665
Mof_O 	O 	0.1587	0.7053	0.4487	-0.566
Mof_O 	O 	0.2001	0.5768	0.4991	-0.642
Mof_O 	O 	0.2692	0.523	0.6276	-0.484
Mof_O 	O 	0.1664	0.6115	0.6376	-0.733
Mof_O 	O 	0.0475	0.6014	0.4405	-0.474
Mof_O 	O 	0.1329	0.3509	0.5447	-0.661
Mof_O 	O 	0.0667	0.7851	0.4589	-0.662
Mof_O 	O 	0.1176	0.7723	0.5765	-0.804
Mof_O 	O 	0.1799	0.8825	0.5822	-0.67
Mof_O 	O 	0.2274	0.7509	0.6368	-0.479
Mof_O 	O 	0.0996	0.5554	0.5651	-0.735
Mof_O 	O 	0.57	0.1389	0.9122	-0.49
Mof_O 	O 	0.0622	0.6906	0.5138	-0.651
Mof_O 	O 	0.1403	0.5285	0.4353	-0.64
Mof_O 	O 	0.1469	0.4379	0.6177	-0.489
Mof_N 	N 	0.12	0.4055	0.3628	-0.179
Mof_H 	H 	0.1228	0.4297	0.3848	0.107
Mof_N 	N 	0.1103	0.3063	0.3169	-0.145
Mof_C 	C 	0.1148	0.3869	0.3071	0.097
Mof_O 	O 	0.1146	0.3449	0.1464	-0.482
Mof_O 	O 	0.2782	0.657	0.6605	-0.326
Mof_C 	C 	0.1262	0.2429	0.4176	-0.081
Mof_H 	H 	0.1391	0.2925	0.4337	0.007
Mof_O 	O 	0.131	0.9841	0.4699	-0.494
Mof_N 	N 	0.123	0.4517	0.3362	-0.106
Mof_C 	C 	0.1159	0.4006	0.272	0.022
Mof_C 	C 	0.1124	0.3206	0.2472	-0.111
Mof_H 	H 	0.1091	0.2629	0.2541	0.071
Mof_C 	C 	0.1123	0.3179	0.3512	0.107
Mof_C 	C 	0.109	0.2441	0.3727	0.005
Mof_N 	N 	0.4285	0.4186	0.7722	-0.14
Mof_O 	O 	0.5313	0.0488	0.8899	-0.324
Mof_C 	C 	0.4592	0.4272	0.8014	0.101
Mof_C 	C 	0.481	0.3498	0.8222	0.019
Mof_C 	C 	0.5327	0.2871	0.8708	0.051
Mof_H 	H 	0.5542	0.2944	0.8874	0.026
Mof_C 	C 	0.4883	0.1838	0.8369	0.04
Mof_H 	H 	0.4803	0.1246	0.8329	0.022
Mof_C 	C 	0.4695	0.2579	0.8156	-0.102
Mof_H 	H 	0.4481	0.2483	0.7958	0.071
Mof_C 	C 	0.521	0.2018	0.8656	-0.149
Mof_C 	C 	0.5417	0.125	0.8899	0.387
Mof_C 	C 	0.5138	0.3642	0.8523	-0.111
Mof_H 	H 	0.5221	0.4233	0.8593	0.066
Mof_C 	C 	0.418	0.5045	0.7651	0.08
Mof_C 	C 	0.3213	0.5672	0.6835	-0.13
Mof_C 	C 	0.3327	0.4785	0.6855	0.041
Mof_H 	H 	0.3187	0.4303	0.6703	0.012
Mof_C 	C 	0.1233	0.4902	0.2267	0.043
Mof_H 	H 	0.1271	0.5472	0.22	0.013
Mof_C 	C 	0.1217	0.4839	0.2604	-0.11
Mof_H 	H 	0.1245	0.537	0.2756	0.06
Mof_C 	C 	0.1139	0.3281	0.2147	0.042
Mof_H 	H 	0.1113	0.2757	0.1992	0.015
Mof_C 	C 	0.1064	0.0905	0.4129	-0.133
Mof_C 	C 	0.3429	0.6362	0.7104	0.034
Mof_H 	H 	0.3366	0.6948	0.7117	0.015
Mof_C 	C 	0.1063	0.0081	0.4339	0.353
Mof_N 	N 	0.4665	0.5173	0.8078	-0.171
Mof_H 	H 	0.4852	0.5389	0.8236	0.107
Mof_N 	N 	0.4403	0.5692	0.7858	-0.099
Mof_C 	C 	0.3646	0.4618	0.7098	-0.134
Mof_H 	H 	0.3719	0.4064	0.7072	0.079
Mof_C 	C 	0.3746	0.6121	0.7353	-0.126
Mof_H 	H 	0.3896	0.6574	0.7518	0.068
Mof_C 	C 	0.2873	0.5824	0.6573	0.333
Mof_C 	C 	0.384	0.5254	0.7362	0.055
Mof_C 	C 	0.1244	0.168	0.4385	0.019
Mof_H 	H 	0.1345	0.169	0.4678	-0.008
Mof_C 	C 	0.0915	0.1672	0.3508	-0.098
Mof_H 	H 	0.0802	0.1673	0.3212	0.072
Mof_O 	O 	0.0836	0.9564	0.417	-0.359
Mof_C 	C 	0.1195	0.4147	0.2034	-0.145
Mof_O 	O 	0.1298	0.492	0.1624	-0.313
Mof_C 	C 	0.1224	0.4178	0.1704	0.335
Mof_C 	C 	0.0893	0.094	0.3679	0.04
Mof_H 	H 	0.0767	0.0453	0.3508	0.016
Mof_Mo	Mo	0.67362	0.98442	0.48721	1.343
Mof_Mo	Mo	0.69348	0.21286	0.50748	1.08
Mof_Mo	Mo	0.65235	0.35132	0.59034	1.394
Mof_Mo	Mo	0.5725	0.18445	0.429	1.087
Mof_Mo	Mo	0.5828	0.29362	0.51381	1.364
Mof_Mo	Mo	0.66897	0.87641	0.55285	1.372
Mof_Mo	Mo	0.61758	0.14848	0.42458	1.101
Mof_Mo	Mo	0.7062	0.29594	0.57507	1.023
Mof_Mo	Mo	0.68709	0.00048	0.63855	1.066
Mof_Mo	Mo	0.7028	0.17397	0.6512	1.039
Mof_Mo	Mo	0.56708	0.06188	0.50306	1.039
Mof_Zn	Zn	0.6291	0.36106	0.48523	1.226
Mof_Mo	Mo	0.60814	0.93515	0.55294	1.051
Mof_Zn	Zn	0.72567	0.05099	0.59381	1.225
Mof_Zn	Zn	0.5993	0.9471	0.45615	1.226
Mof_Zn	Zn	0.62291	0.15713	0.6063	1.223
Mof_O 	O 	0.714	0.0701	0.6315	-0.74
Mof_O 	O 	0.7174	0.1748	0.5674	-0.734
Mof_O 	O 	0.6439	0.9166	0.4928	-0.792
Mof_O 	O 	0.5908	0.0701	0.4296	-0.743
Mof_O 	O 	0.6965	0.9624	0.5496	-0.794
Mof_O 	O 	0.62	0.3528	0.5269	-0.798
Mof_O 	O 	0.6722	0.3117	0.514	-0.728
Mof_O 	O 	0.6085	0.2549	0.445	-0.747
Mof_O 	O 	0.6787	0.2894	0.6407	-0.664
Mof_O 	O 	0.5862	0.9636	0.4925	-0.731
Mof_O 	O 	0.693	0.8985	0.6098	-0.666
Mof_O 	O 	0.6587	0.2053	0.4487	-0.566
Mof_O 	O 	0.7001	0.0768	0.4991	-0.641
Mof_O 	O 	0.7692	0.023	0.6276	-0.483
Mof_O 	O 	0.6664	0.1115	0.6376	-0.733
Mof_O 	O 	0.5475	0.1014	0.4405	-0.474
Mof_O 	O 	0.6329	0.8509	0.5447	-0.66
Mof_O 	O 	0.5667	0.2851	0.4589	-0.662
Mof_O 	O 	0.6176	0.2723	0.5765	-0.804
Mof_O 	O 	0.6799	0.3825	0.5822	-0.67
Mof_O 	O 	0.7274	0.2509	0.6368	-0.479
Mof_O 	O 	0.5996	0.0554	0.5651	-0.735
Mof_O 	O 	0.07	0.6389	0.9122	-0.489
Mof_O 	O 	0.5622	0.1906	0.5138	-0.651
Mof_O 	O 	0.6403	0.0285	0.4353	-0.639
Mof_O 	O 	0.6469	0.9379	0.6177	-0.489
Mof_N 	N 	0.62	0.9055	0.3628	-0.179
Mof_H 	H 	0.6228	0.9297	0.3848	0.106
Mof_N 	N 	0.6103	0.8063	0.3169	-0.145
Mof_C 	C 	0.6148	0.8869	0.3071	0.096
Mof_O 	O 	0.6146	0.8449	0.1464	-0.482
Mof_O 	O 	0.7782	0.157	0.6605	-0.326
Mof_C 	C 	0.6262	0.7429	0.4176	-0.081
Mof_H 	H 	0.6391	0.7925	0.4337	0.007
Mof_O 	O 	0.631	0.4841	0.4699	-0.496
Mof_N 	N 	0.623	0.9517	0.3362	-0.106
Mof_C 	C 	0.6159	0.9006	0.272	0.023
Mof_C 	C 	0.6124	0.8206	0.2472	-0.111
Mof_H 	H 	0.6091	0.7629	0.2541	0.071
Mof_C 	C 	0.6123	0.8179	0.3512	0.106
Mof_C 	C 	0.609	0.7441	0.3727	0.006
Mof_N 	N 	0.9285	0.9186	0.7722	-0.14
Mof_O 	O 	0.0313	0.5488	0.8899	-0.324
Mof_C 	C 	0.9592	0.9272	0.8014	0.1
Mof_C 	C 	0.981	0.8498	0.8222	0.019
Mof_C 	C 	0.0327	0.7871	0.8708	0.05
Mof_H 	H 	0.0542	0.7944	0.8874	0.027
Mof_C 	C 	0.9883	0.6838	0.8369	0.039
Mof_H 	H 	0.9803	0.6246	0.8329	0.022
Mof_C 	C 	0.9695	0.7579	0.8156	-0.102
Mof_H 	H 	0.9481	0.7483	0.7958	0.071
Mof_C 	C 	0.021	0.7018	0.8656	-0.148
Mof_C 	C 	0.0417	0.625	0.8899	0.387
Mof_C 	C 	0.0138	0.8642	0.8523	-0.111
Mof_H 	H 	0.0221	0.9233	0.8593	0.066
Mof_C 	C 	0.918	0.0045	0.7651	0.081
Mof_C 	C 	0.8213	0.0672	0.6835	-0.129
Mof_C 	C 	0.8327	0.9785	0.6855	0.041
Mof_H 	H 	0.8187	0.9303	0.6703	0.012
Mof_C 	C 	0.6233	0.9902	0.2267	0.041
Mof_H 	H 	0.6271	0.0472	0.22	0.015
Mof_C 	C 	0.6217	0.9839	0.2604	-0.112
Mof_H 	H 	0.6245	0.037	0.2756	0.062
Mof_C 	C 	0.6139	0.8281	0.2147	0.042
Mof_H 	H 	0.6113	0.7757	0.1992	0.015
Mof_C 	C 	0.6064	0.5905	0.4129	-0.135
Mof_C 	C 	0.8429	0.1362	0.7104	0.034
Mof_H 	H 	0.8366	0.1948	0.7117	0.014
Mof_C 	C 	0.6063	0.5081	0.4339	0.356
Mof_N 	N 	0.9665	0.0173	0.8078	-0.171
Mof_H 	H 	0.9852	0.0389	0.8236	0.106
Mof_N 	N 	0.9403	0.0692	0.7858	-0.099
Mof_C 	C 	0.8646	0.9618	0.7098	-0.135
Mof_H 	H 	0.8719	0.9064	0.7072	0.079
Mof_C 	C 	0.8746	0.1121	0.7353	-0.126
Mof_H 	H 	0.8896	0.1574	0.7518	0.068
Mof_C 	C 	0.7873	0.0824	0.6573	0.333
Mof_C 	C 	0.884	0.0254	0.7362	0.055
Mof_C 	C 	0.6244	0.668	0.4385	0.02
Mof_H 	H 	0.6345	0.669	0.4678	-0.008
Mof_C 	C 	0.5915	0.6672	0.3508	-0.099
Mof_H 	H 	0.5802	0.6673	0.3212	0.072
Mof_O 	O 	0.5836	0.4564	0.417	-0.361
Mof_C 	C 	0.6195	0.9147	0.2034	-0.145
Mof_O 	O 	0.6298	0.992	0.1624	-0.313
Mof_C 	C 	0.6224	0.9178	0.1704	0.335
Mof_C 	C 	0.5893	0.594	0.3679	0.042
Mof_H 	H 	0.5767	0.5453	0.3508	0.016
Mof_Mo	Mo	0.17362	0.51558	0.98721	1.348
Mof_Mo	Mo	0.19348	0.28714	0.00748	1.081
Mof_Mo	Mo	0.15235	0.14868	0.09034	1.395
Mof_Mo	Mo	0.0725	0.31555	0.929	1.086
Mof_Mo	Mo	0.0828	0.20638	0.01381	1.365
Mof_Mo	Mo	0.16897	0.62359	0.05285	1.371
Mof_Mo	Mo	0.11758	0.35152	0.92458	1.101
Mof_Mo	Mo	0.2062	0.20406	0.07507	1.024
Mof_Mo	Mo	0.18709	0.49952	0.13855	1.066
Mof_Mo	Mo	0.2028	0.32603	0.1512	1.039
Mof_Mo	Mo	0.06708	0.43812	0.00306	1.038
Mof_Zn	Zn	0.1291	0.13894	0.98523	1.226
Mof_Mo	Mo	0.10814	0.56485	0.05294	1.051
Mof_Zn	Zn	0.22567	0.44901	0.09381	1.225
Mof_Zn	Zn	0.0993	0.5529	0.95615	1.226
Mof_Zn	Zn	0.12291	0.34287	0.1063	1.223
Mof_O 	O 	0.214	0.4299	0.1315	-0.741
Mof_O 	O 	0.2174	0.3252	0.0674	-0.734
Mof_O 	O 	0.1439	0.5834	0.9928	-0.792
Mof_O 	O 	0.0908	0.4299	0.9296	-0.744
Mof_O 	O 	0.1965	0.5376	0.0496	-0.794
Mof_O 	O 	0.12	0.1472	0.0269	-0.798
Mof_O 	O 	0.1722	0.1883	0.014	-0.728
Mof_O 	O 	0.1085	0.2451	0.945	-0.747
Mof_O 	O 	0.1787	0.2106	0.1407	-0.664
Mof_O 	O 	0.0862	0.5364	0.9925	-0.731
Mof_O 	O 	0.193	0.6015	0.1098	-0.665
Mof_O 	O 	0.1587	0.2947	0.9487	-0.566
Mof_O 	O 	0.2001	0.4232	0.9991	-0.642
Mof_O 	O 	0.2692	0.477	0.1276	-0.483
Mof_O 	O 	0.1664	0.3885	0.1376	-0.733
Mof_O 	O 	0.0475	0.3986	0.9405	-0.474
Mof_O 	O 	0.1329	0.6491	0.0447	-0.661
Mof_O 	O 	0.0667	0.2149	0.9589	-0.662
Mof_O 	O 	0.1176	0.2277	0.0765	-0.804
Mof_O 	O 	0.1799	0.1175	0.0822	-0.669
Mof_O 	O 	0.2274	0.2491	0.1368	-0.479
Mof_O 	O 	0.0996	0.4446	0.0651	-0.735
Mof_O 	O 	0.57	0.8611	0.4122	-0.49
Mof_O 	O 	0.0622	0.3094	0.0138	-0.651
Mof_O 	O 	0.1403	0.4715	0.9353	-0.64
Mof_O 	O 	0.1469	0.5621	0.1177	-0.489
Mof_N 	N 	0.12	0.5945	0.8628	-0.179
Mof_H 	H 	0.1228	0.5703	0.8848	0.107
Mof_N 	N 	0.1103	0.6937	0.8169	-0.145
Mof_C 	C 	0.1148	0.6131	0.8071	0.097
Mof_O 	O 	0.1146	0.6551	0.6464	-0.482
Mof_O 	O 	0.2782	0.343	0.1605	-0.326
Mof_C 	C 	0.1262	0.7571	0.9176	-0.081
Mof_H 	H 	0.1391	0.7075	0.9337	0.007
Mof_O 	O 	0.131	0.0159	0.9699	-0.495
Mof_N 	N 	0.123	0.5483	0.8362	-0.106
Mof_C 	C 	0.1159	0.5994	0.772	0.022
Mof_C 	C 	0.1124	0.6794	0.7472	-0.111
Mof_H 	H 	0.1091	0.7371	0.7541	0.071
Mof_C 	C 	0.1123	0.6821	0.8512	0.107
Mof_C 	C 	0.109	0.7559	0.8727	0.005
Mof_N 	N 	0.4285	0.5814	0.2722	-0.14
Mof_O 	O 	0.5313	0.9512	0.3899	-0.324
Mof_C 	C 	0.4592	0.5728	0.3014	0.101
Mof_C 	C 	0.481	0.6502	0.3222	0.019
Mof_C 	C 	0.5327	0.7129	0.3708	0.051
Mof_H 	H 	0.5542	0.7056	0.3874	0.026
Mof_C 	C 	0.4883	0.8162	0.3369	0.04
Mof_H 	H 	0.4803	0.8754	0.3329	0.022
Mof_C 	C 	0.4695	0.7421	0.3156	-0.102
Mof_H 	H 	0.4481	0.7517	0.2958	0.071
Mof_C 	C 	0.521	0.7982	0.3656	-0.149
Mof_C 	C 	0.5417	0.875	0.3899	0.387
Mof_C 	C 	0.5138	0.6358	0.3523	-0.111
Mof_H 	H 	0.5221	0.5767	0.3593	0.066
Mof_C 	C 	0.418	0.4955	0.2651	0.08
Mof_C 	C 	0.3213	0.4328	0.1835	-0.13
Mof_C 	C 	0.3327	0.5215	0.1855	0.041
Mof_H 	H 	0.3187	0.5697	0.1703	0.012
Mof_C 	C 	0.1233	0.5098	0.7267	0.043
Mof_H 	H 	0.1271	0.4528	0.72	0.013
Mof_C 	C 	0.1217	0.5161	0.7604	-0.11
Mof_H 	H 	0.1245	0.463	0.7756	0.06
Mof_C 	C 	0.1139	0.6719	0.7147	0.042
Mof_H 	H 	0.1113	0.7243	0.6992	0.015
Mof_C 	C 	0.1064	0.9095	0.9129	-0.134
Mof_C 	C 	0.3429	0.3638	0.2104	0.034
Mof_H 	H 	0.3366	0.3052	0.2117	0.015
Mof_C 	C 	0.1063	0.9919	0.9339	0.355
Mof_N 	N 	0.4665	0.4827	0.3078	-0.171
Mof_H 	H 	0.4852	0.4611	0.3236	0.107
Mof_N 	N 	0.4403	0.4308	0.2858	-0.099
Mof_C 	C 	0.3646	0.5382	0.2098	-0.134
Mof_H 	H 	0.3719	0.5936	0.2072	0.079
Mof_C 	C 	0.3746	0.3879	0.2353	-0.126
Mof_H 	H 	0.3896	0.3426	0.2518	0.068
Mof_C 	C 	0.2873	0.4176	0.1573	0.333
Mof_C 	C 	0.384	0.4746	0.2362	0.055
Mof_C 	C 	0.1244	0.832	0.9385	0.019
Mof_H 	H 	0.1345	0.831	0.9678	-0.008
Mof_C 	C 	0.0915	0.8328	0.8508	-0.098
Mof_H 	H 	0.0802	0.8327	0.8212	0.072
Mof_O 	O 	0.0836	0.0436	0.917	-0.36
Mof_C 	C 	0.1195	0.5853	0.7034	-0.145
Mof_O 	O 	0.1298	0.508	0.6624	-0.313
Mof_C 	C 	0.1224	0.5822	0.6704	0.335
Mof_C 	C 	0.0893	0.906	0.8679	0.041
Mof_H 	H 	0.0767	0.9547	0.8508	0.016
Mof_Mo	Mo	0.67362	0.01558	0.98721	1.342
Mof_Mo	Mo	0.69348	0.78714	0.00748	1.079
Mof_Mo	Mo	0.65235	0.64868	0.09034	1.394
Mof_Mo	Mo	0.5725	0.81555	0.929	1.087
Mof_Mo	Mo	0.5828	0.70638	0.01381	1.364
Mof_Mo	Mo	0.66897	0.12359	0.05285	1.373
Mof_Mo	Mo	0.61758	0.85152	0.92458	1.101
Mof_Mo	Mo	0.7062	0.70406	0.07507	1.024
Mof_Mo	Mo	0.68709	0.99952	0.13855	1.066
Mof_Mo	Mo	0.7028	0.82603	0.1512	1.039
Mof_Mo	Mo	0.56708	0.93812	0.00306	1.038
Mof_Zn	Zn	0.6291	0.63894	0.98523	1.226
Mof_Mo	Mo	0.60814	0.06485	0.05294	1.053
Mof_Zn	Zn	0.72567	0.94901	0.09381	1.225
Mof_Zn	Zn	0.5993	0.0529	0.95615	1.226
Mof_Zn	Zn	0.62291	0.84287	0.1063	1.223
Mof_O 	O 	0.714	0.9299	0.1315	-0.74
Mof_O 	O 	0.7174	0.8252	0.0674	-0.734
Mof_O 	O 	0.6439	0.0834	0.9928	-0.792
Mof_O 	O 	0.5908	0.9299	0.9296	-0.743
Mof_O 	O 	0.6965	0.0376	0.0496	-0.794
Mof_O 	O 	0.62	0.6472	0.0269	-0.798
Mof_O 	O 	0.6722	0.6883	0.014	-0.728
Mof_O 	O 	0.6085	0.7451	0.945	-0.747
Mof_O 	O 	0.6787	0.7106	0.1407	-0.664
Mof_O 	O 	0.5862	0.0364	0.9925	-0.732
Mof_O 	O 	0.693	0.1015	0.1098	-0.665
Mof_O 	O 	0.6587	0.7947	0.9487	-0.566
Mof_O 	O 	0.7001	0.9232	0.9991	-0.64
Mof_O 	O 	0.7692	0.977	0.1276	-0.483
Mof_O 	O 	0.6664	0.8885	0.1376	-0.733
Mof_O 	O 	0.5475	0.8986	0.9405	-0.474
Mof_O 	O 	0.6329	0.1491	0.0447	-0.66
Mof_O 	O 	0.5667	0.7149	0.9589	-0.662
Mof_O 	O 	0.6176	0.7277	0.0765	-0.804
Mof_O 	O 	0.6799	0.6175	0.0822	-0.67
Mof_O 	O 	0.7274	0.7491	0.1368	-0.479
Mof_O 	O 	0.5996	0.9446	0.0651	-0.736
Mof_O 	O 	0.07	0.3611	0.4122	-0.489
Mof_O 	O 	0.5622	0.8094	0.0138	-0.651
Mof_O 	O 	0.6403	0.9715	0.9353	-0.638
Mof_O 	O 	0.6469	0.0621	0.1177	-0.489
Mof_N 	N 	0.62	0.0945	0.8628	-0.179
Mof_H 	H 	0.6228	0.0703	0.8848	0.106
Mof_N 	N 	0.6103	0.1937	0.8169	-0.145
Mof_C 	C 	0.6148	0.1131	0.8071	0.096
Mof_O 	O 	0.6146	0.1551	0.6464	-0.482
Mof_O 	O 	0.7782	0.843	0.1605	-0.326
Mof_C 	C 	0.6262	0.2571	0.9176	-0.081
Mof_H 	H 	0.6391	0.2075	0.9337	0.007
Mof_O 	O 	0.631	0.5159	0.9699	-0.496
Mof_N 	N 	0.623	0.0483	0.8362	-0.106
Mof_C 	C 	0.6159	0.0994	0.772	0.023
Mof_C 	C 	0.6124	0.1794	0.7472	-0.111
Mof_H 	H 	0.6091	0.2371	0.7541	0.071
Mof_C 	C 	0.6123	0.1821	0.8512	0.106
Mof_C 	C 	0.609	0.2559	0.8727	0.006
Mof_N 	N 	0.9285	0.0814	0.2722	-0.14
Mof_O 	O 	0.0313	0.4512	0.3899	-0.324
Mof_C 	C 	0.9592	0.0728	0.3014	0.1
Mof_C 	C 	0.981	0.1502	0.3222	0.019
Mof_C 	C 	0.0327	0.2129	0.3708	0.051
Mof_H 	H 	0.0542	0.2056	0.3874	0.026
Mof_C 	C 	0.9883	0.3162	0.3369	0.04
Mof_H 	H 	0.9803	0.3754	0.3329	0.022
Mof_C 	C 	0.9695	0.2421	0.3156	-0.102
Mof_H 	H 	0.9481	0.2517	0.2958	0.071
Mof_C 	C 	0.021	0.2982	0.3656	-0.149
Mof_C 	C 	0.0417	0.375	0.3899	0.387
Mof_C 	C 	0.0138	0.1358	0.3523	-0.112
Mof_H 	H 	0.0221	0.0767	0.3593	0.066
Mof_C 	C 	0.918	0.9955	0.2651	0.081
Mof_C 	C 	0.8213	0.9328	0.1835	-0.129
Mof_C 	C 	0.8327	0.0215	0.1855	0.041
Mof_H 	H 	0.8187	0.0697	0.1703	0.012
Mof_C 	C 	0.6233	0.0098	0.7267	0.042
Mof_H 	H 	0.6271	0.9528	0.72	0.015
Mof_C 	C 	0.6217	0.0161	0.7604	-0.113
Mof_H 	H 	0.6245	0.963	0.7756	0.062
Mof_C 	C 	0.6139	0.1719	0.7147	0.042
Mof_H 	H 	0.6113	0.2243	0.6992	0.015
Mof_C 	C 	0.6064	0.4095	0.9129	-0.135
Mof_C 	C 	0.8429	0.8638	0.2104	0.034
Mof_H 	H 	0.8366	0.8052	0.2117	0.014
Mof_C 	C 	0.6063	0.4919	0.9339	0.356
Mof_N 	N 	0.9665	0.9827	0.3078	-0.171
Mof_H 	H 	0.9852	0.9611	0.3236	0.107
Mof_N 	N 	0.9403	0.9308	0.2858	-0.099
Mof_C 	C 	0.8646	0.0382	0.2098	-0.135
Mof_H 	H 	0.8719	0.0936	0.2072	0.079
Mof_C 	C 	0.8746	0.8879	0.2353	-0.126
Mof_H 	H 	0.8896	0.8426	0.2518	0.068
Mof_C 	C 	0.7873	0.9176	0.1573	0.333
Mof_C 	C 	0.884	0.9746	0.2362	0.055
Mof_C 	C 	0.6244	0.332	0.9385	0.02
Mof_H 	H 	0.6345	0.331	0.9678	-0.008
Mof_C 	C 	0.5915	0.3328	0.8508	-0.099
Mof_H 	H 	0.5802	0.3327	0.8212	0.072
Mof_O 	O 	0.5836	0.5436	0.917	-0.361
Mof_C 	C 	0.6195	0.0853	0.7034	-0.145
Mof_O 	O 	0.6298	0.008	0.6624	-0.313
Mof_C 	C 	0.6224	0.0822	0.6704	0.335
Mof_C 	C 	0.5893	0.406	0.8679	0.041
Mof_H 	H 	0.5767	0.4547	0.8508	0.016
Mof_Mo	Mo	0.82638	0.48442	0.01279	1.348
Mof_Mo	Mo	0.80652	0.71286	0.99252	1.081
Mof_Mo	Mo	0.84765	0.85132	0.90966	1.395
Mof_Mo	Mo	0.9275	0.68445	0.071	1.086
Mof_Mo	Mo	0.9172	0.79362	0.98619	1.365
Mof_Mo	Mo	0.83103	0.37641	0.94715	1.371
Mof_Mo	Mo	0.88242	0.64848	0.07542	1.101
Mof_Mo	Mo	0.7938	0.79594	0.92493	1.024
Mof_Mo	Mo	0.81291	0.50048	0.86145	1.066
Mof_Mo	Mo	0.7972	0.67397	0.8488	1.039
Mof_Mo	Mo	0.93292	0.56188	0.99694	1.038
Mof_Zn	Zn	0.8709	0.86106	0.01477	1.226
Mof_Mo	Mo	0.89186	0.43515	0.94706	1.051
Mof_Zn	Zn	0.77433	0.55099	0.90619	1.225
Mof_Zn	Zn	0.9007	0.4471	0.04385	1.226
Mof_Zn	Zn	0.87709	0.65713	0.8937	1.223
Mof_O 	O 	0.786	0.5701	0.8685	-0.741
Mof_O 	O 	0.7826	0.6748	0.9326	-0.734
Mof_O 	O 	0.8561	0.4166	0.0072	-0.792
Mof_O 	O 	0.9092	0.5701	0.0704	-0.744
Mof_O 	O 	0.8035	0.4624	0.9504	-0.794
Mof_O 	O 	0.88	0.8528	0.9731	-0.798
Mof_O 	O 	0.8278	0.8117	0.986	-0.728
Mof_O 	O 	0.8915	0.7549	0.055	-0.747
Mof_O 	O 	0.8213	0.7894	0.8593	-0.664
Mof_O 	O 	0.9138	0.4636	0.0075	-0.731
Mof_O 	O 	0.807	0.3985	0.8902	-0.665
Mof_O 	O 	0.8413	0.7053	0.0513	-0.566
Mof_O 	O 	0.7999	0.5768	0.0009	-0.642
Mof_O 	O 	0.7308	0.523	0.8724	-0.483
Mof_O 	O 	0.8336	0.6115	0.8624	-0.733
Mof_O 	O 	0.9525	0.6014	0.0595	-0.474
Mof_O 	O 	0.8671	0.3509	0.9553	-0.661
Mof_O 	O 	0.9333	0.7851	0.0411	-0.662
Mof_O 	O 	0.8824	0.7723	0.9235	-0.804
Mof_O 	O 	0.8201	0.8825	0.9178	-0.669
Mof_O 	O 	0.7726	0.7509	0.8632	-0.479
Mof_O 	O 	0.9004	0.5554	0.9349	-0.735
Mof_O 	O 	0.43	0.1389	0.5878	-0.49
Mof_O 	O 	0.9378	0.6906	0.9862	-0.651
Mof_O 	O 	0.8597	0.5285	0.0647	-0.64
Mof_O 	O 	0.8531	0.4379	0.8823	-0.489
Mof_N 	N 	0.88	0.4055	0.1372	-0.179
Mof_H 	H 	0.8772	0.4297	0.1152	0.107
Mof_N 	N 	0.8897	0.3063	0.1831	-0.145
Mof_C 	C 	0.8852	0.3869	0.1929	0.097
Mof_O 	O 	0.8854	0.3449	0.3536	-0.482
Mof_O 	O 	0.7218	0.657	0.8395	-0.326
Mof_C 	C 	0.8738	0.2429	0.0824	-0.081
Mof_H 	H 	0.8609	0.2925	0.0663	0.007
Mof_O 	O 	0.869	0.9841	0.0301	-0.495
Mof_N 	N 	0.877	0.4517	0.1638	-0.106
Mof_C 	C 	0.8841	0.4006	0.228	0.022
Mof_C 	C 	0.8876	0.3206	0.2528	-0.111
Mof_H 	H 	0.8909	0.2629	0.2459	0.071
Mof_C 	C 	0.8877	0.3179	0.1488	0.107
Mof_C 	C 	0.891	0.2441	0.1273	0.005
Mof_N 	N 	0.5715	0.4186	0.7278	-0.14
Mof_O 	O 	0.4687	0.0488	0.6101	-0.324
Mof_C 	C 	0.5408	0.4272	0.6986	0.101
Mof_C 	C 	0.519	0.3498	0.6778	0.019
Mof_C 	C 	0.4673	0.2871	0.6292	0.051
Mof_H 	H 	0.4458	0.2944	0.6126	0.026
Mof_C 	C 	0.5117	0.1838	0.6631	0.04
Mof_H 	H 	0.5197	0.1246	0.6671	0.022
Mof_C 	C 	0.5305	0.2579	0.6844	-0.102
Mof_H 	H 	0.5519	0.2483	0.7042	0.071
Mof_C 	C 	0.479	0.2018	0.6344	-0.149
Mof_C 	C 	0.4583	0.125	0.6101	0.387
Mof_C 	C 	0.4862	0.3642	0.6477	-0.111
Mof_H 	H 	0.4779	0.4233	0.6407	0.066
Mof_C 	C 	0.582	0.5045	0.7349	0.08
Mof_C 	C 	0.6787	0.5672	0.8165	-0.13
Mof_C 	C 	0.6673	0.4785	0.8145	0.041
Mof_H 	H 	0.6813	0.4303	0.8297	0.012
Mof_C 	C 	0.8767	0.4902	0.2733	0.043
Mof_H 	H 	0.8729	0.5472	0.28	0.013
Mof_C 	C 	0.8783	0.4839	0.2396	-0.11
Mof_H 	H 	0.8755	0.537	0.2244	0.06
Mof_C 	C 	0.8861	0.3281	0.2853	0.042
Mof_H 	H 	0.8887	0.2757	0.3008	0.015
Mof_C 	C 	0.8936	0.0905	0.0871	-0.134
Mof_C 	C 	0.6571	0.6362	0.7896	0.034
Mof_H 	H 	0.6634	0.6948	0.7883	0.015
Mof_C 	C 	0.8937	0.0081	0.0661	0.355
Mof_N 	N 	0.5335	0.5173	0.6922	-0.171
Mof_H 	H 	0.5148	0.5389	0.6764	0.107
Mof_N 	N 	0.5597	0.5692	0.7142	-0.099
Mof_C 	C 	0.6354	0.4618	0.7902	-0.134
Mof_H 	H 	0.6281	0.4064	0.7928	0.079
Mof_C 	C 	0.6254	0.6121	0.7647	-0.126
Mof_H 	H 	0.6104	0.6574	0.7482	0.068
Mof_C 	C 	0.7127	0.5824	0.8427	0.333
Mof_C 	C 	0.616	0.5254	0.7638	0.055
Mof_C 	C 	0.8756	0.168	0.0615	0.019
Mof_H 	H 	0.8655	0.169	0.0322	-0.008
Mof_C 	C 	0.9085	0.1672	0.1492	-0.098
Mof_H 	H 	0.9198	0.1673	0.1788	0.072
Mof_O 	O 	0.9164	0.9564	0.083	-0.36
Mof_C 	C 	0.8805	0.4147	0.2966	-0.145
Mof_O 	O 	0.8702	0.492	0.3376	-0.313
Mof_C 	C 	0.8776	0.4178	0.3296	0.335
Mof_C 	C 	0.9107	0.094	0.1321	0.041
Mof_H 	H 	0.9233	0.0453	0.1492	0.016
Mof_Mo	Mo	0.32638	0.98442	0.01279	1.342
Mof_Mo	Mo	0.30652	0.21286	0.99252	1.079
Mof_Mo	Mo	0.34765	0.35132	0.90966	1.394
Mof_Mo	Mo	0.4275	0.18445	0.071	1.087
Mof_Mo	Mo	0.4172	0.29362	0.98619	1.364
Mof_Mo	Mo	0.33103	0.87641	0.94715	1.373
Mof_Mo	Mo	0.38242	0.14848	0.07542	1.101
Mof_Mo	Mo	0.2938	0.29594	0.92493	1.024
Mof_Mo	Mo	0.31291	0.00048	0.86145	1.066
Mof_Mo	Mo	0.2972	0.17397	0.8488	1.039
Mof_Mo	Mo	0.43292	0.06188	0.99694	1.038
Mof_Zn	Zn	0.3709	0.36106	0.01477	1.226
Mof_Mo	Mo	0.39186	0.93515	0.94706	1.053
Mof_Zn	Zn	0.27433	0.05099	0.90619	1.225
Mof_Zn	Zn	0.4007	0.9471	0.04385	1.226
Mof_Zn	Zn	0.37709	0.15713	0.8937	1.223
Mof_O 	O 	0.286	0.0701	0.8685	-0.74
Mof_O 	O 	0.2826	0.1748	0.9326	-0.734
Mof_O 	O 	0.3561	0.9166	0.0072	-0.792
Mof_O 	O 	0.4092	0.0701	0.0704	-0.743
Mof_O 	O 	0.3035	0.9624	0.9504	-0.794
Mof_O 	O 	0.38	0.3528	0.9731	-0.798
Mof_O 	O 	0.3278	0.3117	0.986	-0.728
Mof_O 	O 	0.3915	0.2549	0.055	-0.747
Mof_O 	O 	0.3213	0.2894	0.8593	-0.664
Mof_O 	O 	0.4138	0.9636	0.0075	-0.732
Mof_O 	O 	0.307	0.8985	0.8902	-0.665
Mof_O 	O 	0.3413	0.2053	0.0513	-0.566
Mof_O 	O 	0.2999	0.0768	0.0009	-0.64
Mof_O 	O 	0.2308	0.023	0.8724	-0.483
Mof_O 	O 	0.3336	0.1115	0.8624	-0.733
Mof_O 	O 	0.4525	0.1014	0.0595	-0.474
Mof_O 	O 	0.3671	0.8509	0.9553	-0.66
Mof_O 	O 	0.4333	0.2851	0.0411	-0.662
Mof_O 	O 	0.3824	0.2723	0.9235	-0.804
Mof_O 	O 	0.3201	0.3825	0.9178	-0.67
Mof_O 	O 	0.2726	0.2509	0.8632	-0.479
Mof_O 	O 	0.4004	0.0554	0.9349	-0.736
Mof_O 	O 	0.93	0.6389	0.5878	-0.489
Mof_O 	O 	0.4378	0.1906	0.9862	-0.651
Mof_O 	O 	0.3597	0.0285	0.0647	-0.638
Mof_O 	O 	0.3531	0.9379	0.8823	-0.489
Mof_N 	N 	0.38	0.9055	0.1372	-0.179
Mof_H 	H 	0.3772	0.9297	0.1152	0.106
Mof_N 	N 	0.3897	0.8063	0.1831	-0.145
Mof_C 	C 	0.3852	0.8869	0.1929	0.096
Mof_O 	O 	0.3854	0.8449	0.3536	-0.482
Mof_O 	O 	0.2218	0.157	0.8395	-0.326
Mof_C 	C 	0.3738	0.7429	0.0824	-0.081
Mof_H 	H 	0.3609	0.7925	0.0663	0.007
Mof_O 	O 	0.369	0.4841	0.0301	-0.496
Mof_N 	N 	0.377	0.9517	0.1638	-0.106
Mof_C 	C 	0.3841	0.9006	0.228	0.023
Mof_C 	C 	0.3876	0.8206	0.2528	-0.111
Mof_H 	H 	0.3909	0.7629	0.2459	0.071
Mof_C 	C 	0.3877	0.8179	0.1488	0.106
Mof_C 	C 	0.391	0.7441	0.1273	0.006
Mof_N 	N 	0.0715	0.9186	0.7278	-0.14
Mof_O 	O 	0.9687	0.5488	0.6101	-0.324
Mof_C 	C 	0.0408	0.9272	0.6986	0.1
Mof_C 	C 	0.019	0.8498	0.6778	0.019
Mof_C 	C 	0.9673	0.7871	0.6292	0.051
Mof_H 	H 	0.9458	0.7944	0.6126	0.026
Mof_C 	C 	0.0117	0.6838	0.6631	0.04
Mof_H 	H 	0.0197	0.6246	0.6671	0.022
Mof_C 	C 	0.0305	0.7579	0.6844	-0.102
Mof_H 	H 	0.0519	0.7483	0.7042	0.071
Mof_C 	C 	0.979	0.7018	0.6344	-0.149
Mof_C 	C 	0.9583	0.625	0.6101	0.387
Mof_C 	C 	0.9862	0.8642	0.6477	-0.112
Mof_H 	H 	0.9779	0.9233	0.6407	0.066
Mof_C 	C 	0.082	0.0045	0.7349	0.081
Mof_C 	C 	0.1787	0.0672	0.8165	-0.129
Mof_C 	C 	0.1673	0.9785	0.8145	0.041
Mof_H 	H 	0.1813	0.9303	0.8297	0.012
Mof_C 	C 	0.3767	0.9902	0.2733	0.042
Mof_H 	H 	0.3729	0.0472	0.28	0.015
Mof_C 	C 	0.3783	0.9839	0.2396	-0.113
Mof_H 	H 	0.3755	0.037	0.2244	0.062
Mof_C 	C 	0.3861	0.8281	0.2853	0.042
Mof_H 	H 	0.3887	0.7757	0.3008	0.015
Mof_C 	C 	0.3936	0.5905	0.0871	-0.135
Mof_C 	C 	0.1571	0.1362	0.7896	0.034
Mof_H 	H 	0.1634	0.1948	0.7883	0.014
Mof_C 	C 	0.3937	0.5081	0.0661	0.356
Mof_N 	N 	0.0335	0.0173	0.6922	-0.171
Mof_H 	H 	0.0148	0.0389	0.6764	0.107
Mof_N 	N 	0.0597	0.0692	0.7142	-0.099
Mof_C 	C 	0.1354	0.9618	0.7902	-0.135
Mof_H 	H 	0.1281	0.9064	0.7928	0.079
Mof_C 	C 	0.1254	0.1121	0.7647	-0.126
Mof_H 	H 	0.1104	0.1574	0.7482	0.068
Mof_C 	C 	0.2127	0.0824	0.8427	0.333
Mof_C 	C 	0.116	0.0254	0.7638	0.055
Mof_C 	C 	0.3756	0.668	0.0615	0.02
Mof_H 	H 	0.3655	0.669	0.0322	-0.008
Mof_C 	C 	0.4085	0.6672	0.1492	-0.099
Mof_H 	H 	0.4198	0.6673	0.1788	0.072
Mof_O 	O 	0.4164	0.4564	0.083	-0.361
Mof_C 	C 	0.3805	0.9147	0.2966	-0.145
Mof_O 	O 	0.3702	0.992	0.3376	-0.313
Mof_C 	C 	0.3776	0.9178	0.3296	0.335
Mof_C 	C 	0.4107	0.594	0.1321	0.041
Mof_H 	H 	0.4233	0.5453	0.1492	0.016
Mof_Mo	Mo	0.82638	0.51558	0.51279	1.347
Mof_Mo	Mo	0.80652	0.28714	0.49252	1.08
Mof_Mo	Mo	0.84765	0.14868	0.40966	1.394
Mof_Mo	Mo	0.9275	0.31555	0.571	1.086
Mof_Mo	Mo	0.9172	0.20638	0.48619	1.364
Mof_Mo	Mo	0.83103	0.62359	0.44715	1.371
Mof_Mo	Mo	0.88242	0.35152	0.57542	1.1
Mof_Mo	Mo	0.7938	0.20406	0.42493	1.024
Mof_Mo	Mo	0.81291	0.49952	0.36145	1.066
Mof_Mo	Mo	0.7972	0.32603	0.3488	1.039
Mof_Mo	Mo	0.93292	0.43812	0.49694	1.038
Mof_Zn	Zn	0.8709	0.13894	0.51477	1.226
Mof_Mo	Mo	0.89186	0.56485	0.44706	1.051
Mof_Zn	Zn	0.77433	0.44901	0.40619	1.225
Mof_Zn	Zn	0.9007	0.5529	0.54385	1.226
Mof_Zn	Zn	0.87709	0.34287	0.3937	1.223
Mof_O 	O 	0.786	0.4299	0.3685	-0.741
Mof_O 	O 	0.7826	0.3252	0.4326	-0.734
Mof_O 	O 	0.8561	0.5834	0.5072	-0.792
Mof_O 	O 	0.9092	0.4299	0.5704	-0.744
Mof_O 	O 	0.8035	0.5376	0.4504	-0.794
Mof_O 	O 	0.88	0.1472	0.4731	-0.798
Mof_O 	O 	0.8278	0.1883	0.486	-0.728
Mof_O 	O 	0.8915	0.2451	0.555	-0.747
Mof_O 	O 	0.8213	0.2106	0.3593	-0.664
Mof_O 	O 	0.9138	0.5364	0.5075	-0.731
Mof_O 	O 	0.807	0.6015	0.3902	-0.665
Mof_O 	O 	0.8413	0.2947	0.5513	-0.566
Mof_O 	O 	0.7999	0.4232	0.5009	-0.642
Mof_O 	O 	0.7308	0.477	0.3724	-0.484
Mof_O 	O 	0.8336	0.3885	0.3624	-0.733
Mof_O 	O 	0.9525	0.3986	0.5595	-0.474
Mof_O 	O 	0.8671	0.6491	0.4553	-0.661
Mof_O 	O 	0.9333	0.2149	0.5411	-0.662
Mof_O 	O 	0.8824	0.2277	0.4235	-0.804
Mof_O 	O 	0.8201	0.1175	0.4178	-0.67
Mof_O 	O 	0.7726	0.2491	0.3632	-0.479
Mof_O 	O 	0.9004	0.4446	0.4349	-0.735
Mof_O 	O 	0.43	0.8611	0.0878	-0.49
Mof_O 	O 	0.9378	0.3094	0.4862	-0.651
Mof_O 	O 	0.8597	0.4715	0.5647	-0.64
Mof_O 	O 	0.8531	0.5621	0.3823	-0.489
Mof_N 	N 	0.88	0.5945	0.6372	-0.179
Mof_H 	H 	0.8772	0.5703	0.6152	0.107
Mof_N 	N 	0.8897	0.6937	0.6831	-0.145
Mof_C 	C 	0.8852	0.6131	0.6929	0.097
Mof_O 	O 	0.8854	0.6551	0.8536	-0.482
Mof_O 	O 	0.7218	0.343	0.3395	-0.326
Mof_C 	C 	0.8738	0.7571	0.5824	-0.081
Mof_H 	H 	0.8609	0.7075	0.5663	0.007
Mof_O 	O 	0.869	0.0159	0.5301	-0.494
Mof_N 	N 	0.877	0.5483	0.6638	-0.106
Mof_C 	C 	0.8841	0.5994	0.728	0.022
Mof_C 	C 	0.8876	0.6794	0.7528	-0.111
Mof_H 	H 	0.8909	0.7371	0.7459	0.071
Mof_C 	C 	0.8877	0.6821	0.6488	0.107
Mof_C 	C 	0.891	0.7559	0.6273	0.005
Mof_N 	N 	0.5715	0.5814	0.2278	-0.14
Mof_O 	O 	0.4687	0.9512	0.1101	-0.324
Mof_C 	C 	0.5408	0.5728	0.1986	0.101
Mof_C 	C 	0.519	0.6502	0.1778	0.019
Mof_C 	C 	0.4673	0.7129	0.1292	0.051
Mof_H 	H 	0.4458	0.7056	0.1126	0.026
Mof_C 	C 	0.5117	0.8162	0.1631	0.04
Mof_H 	H 	0.5197	0.8754	0.1671	0.022
Mof_C 	C 	0.5305	0.7421	0.1844	-0.102
Mof_H 	H 	0.5519	0.7517	0.2042	0.071
Mof_C 	C 	0.479	0.7982	0.1344	-0.149
Mof_C 	C 	0.4583	0.875	0.1101	0.387
Mof_C 	C 	0.4862	0.6358	0.1477	-0.111
Mof_H 	H 	0.4779	0.5767	0.1407	0.066
Mof_C 	C 	0.582	0.4955	0.2349	0.08
Mof_C 	C 	0.6787	0.4328	0.3165	-0.13
Mof_C 	C 	0.6673	0.5215	0.3145	0.041
Mof_H 	H 	0.6813	0.5697	0.3297	0.012
Mof_C 	C 	0.8767	0.5098	0.7733	0.043
Mof_H 	H 	0.8729	0.4528	0.78	0.013
Mof_C 	C 	0.8783	0.5161	0.7396	-0.11
Mof_H 	H 	0.8755	0.463	0.7244	0.06
Mof_C 	C 	0.8861	0.6719	0.7853	0.042
Mof_H 	H 	0.8887	0.7243	0.8008	0.015
Mof_C 	C 	0.8936	0.9095	0.5871	-0.133
Mof_C 	C 	0.6571	0.3638	0.2896	0.034
Mof_H 	H 	0.6634	0.3052	0.2883	0.015
Mof_C 	C 	0.8937	0.9919	0.5661	0.353
Mof_N 	N 	0.5335	0.4827	0.1922	-0.171
Mof_H 	H 	0.5148	0.4611	0.1764	0.107
Mof_N 	N 	0.5597	0.4308	0.2142	-0.099
Mof_C 	C 	0.6354	0.5382	0.2902	-0.134
Mof_H 	H 	0.6281	0.5936	0.2928	0.079
Mof_C 	C 	0.6254	0.3879	0.2647	-0.126
Mof_H 	H 	0.6104	0.3426	0.2482	0.068
Mof_C 	C 	0.7127	0.4176	0.3427	0.333
Mof_C 	C 	0.616	0.4746	0.2638	0.055
Mof_C 	C 	0.8756	0.832	0.5615	0.019
Mof_H 	H 	0.8655	0.831	0.5322	-0.008
Mof_C 	C 	0.9085	0.8328	0.6492	-0.098
Mof_H 	H 	0.9198	0.8327	0.6788	0.072
Mof_O 	O 	0.9164	0.0436	0.583	-0.359
Mof_C 	C 	0.8805	0.5853	0.7966	-0.145
Mof_O 	O 	0.8702	0.508	0.8376	-0.313
Mof_C 	C 	0.8776	0.5822	0.8296	0.335
Mof_C 	C 	0.9107	0.906	0.6321	0.04
Mof_H 	H 	0.9233	0.9547	0.6492	0.016
Mof_Mo	Mo	0.32638	0.01558	0.51279	1.343
Mof_Mo	Mo	0.30652	0.78714	0.49252	1.08
Mof_Mo	Mo	0.34765	0.64868	0.40966	1.394
Mof_Mo	Mo	0.4275	0.81555	0.571	1.087
Mof_Mo	Mo	0.4172	0.70638	0.48619	1.364
Mof_Mo	Mo	0.33103	0.12359	0.44715	1.372
Mof_Mo	Mo	0.38242	0.85152	0.57542	1.101
Mof_Mo	Mo	0.2938	0.70406	0.42493	1.023
Mof_Mo	Mo	0.31291	0.99952	0.36145	1.066
Mof_Mo	Mo	0.2972	0.82603	0.3488	1.039
Mof_Mo	Mo	0.43292	0.93812	0.49694	1.039
Mof_Zn	Zn	0.3709	0.63894	0.51477	1.226
Mof_Mo	Mo	0.39186	0.06485	0.44706	1.051
Mof_Zn	Zn	0.27433	0.94901	0.40619	1.225
Mof_Zn	Zn	0.4007	0.0529	0.54385	1.226
Mof_Zn	Zn	0.37709	0.84287	0.3937	1.223
Mof_O 	O 	0.286	0.9299	0.3685	-0.74
Mof_O 	O 	0.2826	0.8252	0.4326	-0.734
Mof_O 	O 	0.3561	0.0834	0.5072	-0.792
Mof_O 	O 	0.4092	0.9299	0.5704	-0.743
Mof_O 	O 	0.3035	0.0376	0.4504	-0.794
Mof_O 	O 	0.38	0.6472	0.4731	-0.798
Mof_O 	O 	0.3278	0.6883	0.486	-0.728
Mof_O 	O 	0.3915	0.7451	0.555	-0.747
Mof_O 	O 	0.3213	0.7106	0.3593	-0.664
Mof_O 	O 	0.4138	0.0364	0.5075	-0.731
Mof_O 	O 	0.307	0.1015	0.3902	-0.666
Mof_O 	O 	0.3413	0.7947	0.5513	-0.566
Mof_O 	O 	0.2999	0.9232	0.5009	-0.641
Mof_O 	O 	0.2308	0.977	0.3724	-0.483
Mof_O 	O 	0.3336	0.8885	0.3624	-0.733
Mof_O 	O 	0.4525	0.8986	0.5595	-0.474
Mof_O 	O 	0.3671	0.1491	0.4553	-0.66
Mof_O 	O 	0.4333	0.7149	0.5411	-0.662
Mof_O 	O 	0.3824	0.7277	0.4235	-0.804
Mof_O 	O 	0.3201	0.6175	0.4178	-0.67
Mof_O 	O 	0.2726	0.7491	0.3632	-0.479
Mof_O 	O 	0.4004	0.9446	0.4349	-0.735
Mof_O 	O 	0.93	0.3611	0.0878	-0.489
Mof_O 	O 	0.4378	0.8094	0.4862	-0.651
Mof_O 	O 	0.3597	0.9715	0.5647	-0.639
Mof_O 	O 	0.3531	0.0621	0.3823	-0.489
Mof_N 	N 	0.38	0.0945	0.6372	-0.179
Mof_H 	H 	0.3772	0.0703	0.6152	0.106
Mof_N 	N 	0.3897	0.1937	0.6831	-0.145
Mof_C 	C 	0.3852	0.1131	0.6929	0.096
Mof_O 	O 	0.3854	0.1551	0.8536	-0.482
Mof_O 	O 	0.2218	0.843	0.3395	-0.326
Mof_C 	C 	0.3738	0.2571	0.5824	-0.081
Mof_H 	H 	0.3609	0.2075	0.5663	0.007
Mof_O 	O 	0.369	0.5159	0.5301	-0.496
Mof_N 	N 	0.377	0.0483	0.6638	-0.106
Mof_C 	C 	0.3841	0.0994	0.728	0.023
Mof_C 	C 	0.3876	0.1794	0.7528	-0.111
Mof_H 	H 	0.3909	0.2371	0.7459	0.071
Mof_C 	C 	0.3877	0.1821	0.6488	0.106
Mof_C 	C 	0.391	0.2559	0.6273	0.006
Mof_N 	N 	0.0715	0.0814	0.2278	-0.14
Mof_O 	O 	0.9687	0.4512	0.1101	-0.324
Mof_C 	C 	0.0408	0.0728	0.1986	0.1
Mof_C 	C 	0.019	0.1502	0.1778	0.019
Mof_C 	C 	0.9673	0.2129	0.1292	0.05
Mof_H 	H 	0.9458	0.2056	0.1126	0.027
Mof_C 	C 	0.0117	0.3162	0.1631	0.039
Mof_H 	H 	0.0197	0.3754	0.1671	0.022
Mof_C 	C 	0.0305	0.2421	0.1844	-0.102
Mof_H 	H 	0.0519	0.2517	0.2042	0.071
Mof_C 	C 	0.979	0.2982	0.1344	-0.148
Mof_C 	C 	0.9583	0.375	0.1101	0.387
Mof_C 	C 	0.9862	0.1358	0.1477	-0.111
Mof_H 	H 	0.9779	0.0767	0.1407	0.066
Mof_C 	C 	0.082	0.9955	0.2349	0.081
Mof_C 	C 	0.1787	0.9328	0.3165	-0.129
Mof_C 	C 	0.1673	0.0215	0.3145	0.041
Mof_H 	H 	0.1813	0.0697	0.3297	0.012
Mof_C 	C 	0.3767	0.0098	0.7733	0.041
Mof_H 	H 	0.3729	0.9528	0.78	0.015
Mof_C 	C 	0.3783	0.0161	0.7396	-0.112
Mof_H 	H 	0.3755	0.963	0.7244	0.062
Mof_C 	C 	0.3861	0.1719	0.7853	0.042
Mof_H 	H 	0.3887	0.2243	0.8008	0.015
Mof_C 	C 	0.3936	0.4095	0.5871	-0.135
Mof_C 	C 	0.1571	0.8638	0.2896	0.034
Mof_H 	H 	0.1634	0.8052	0.2883	0.014
Mof_C 	C 	0.3937	0.4919	0.5661	0.356
Mof_N 	N 	0.0335	0.9827	0.1922	-0.171
Mof_H 	H 	0.0148	0.9611	0.1764	0.106
Mof_N 	N 	0.0597	0.9308	0.2142	-0.099
Mof_C 	C 	0.1354	0.0382	0.2902	-0.135
Mof_H 	H 	0.1281	0.0936	0.2928	0.079
Mof_C 	C 	0.1254	0.8879	0.2647	-0.126
Mof_H 	H 	0.1104	0.8426	0.2482	0.068
Mof_C 	C 	0.2127	0.9176	0.3427	0.333
Mof_C 	C 	0.116	0.9746	0.2638	0.055
Mof_C 	C 	0.3756	0.332	0.5615	0.02
Mof_H 	H 	0.3655	0.331	0.5322	-0.008
Mof_C 	C 	0.4085	0.3328	0.6492	-0.099
Mof_H 	H 	0.4198	0.3327	0.6788	0.072
Mof_O 	O 	0.4164	0.5436	0.583	-0.361
Mof_C 	C 	0.3805	0.0853	0.7966	-0.145
Mof_O 	O 	0.3702	0.008	0.8376	-0.313
Mof_C 	C 	0.3776	0.0822	0.8296	0.335
Mof_C 	C 	0.4107	0.406	0.6321	0.042
Mof_H 	H 	0.4233	0.4547	0.6492	0.016
_end
