data_functionalizedCrystal
_audit_creation_method	'EQeq! by Chris Wilmer'
_symmetry_space_group_name_H-M	'P1'
_symmetry_Int_Tables_number	1
_symmetry_cell_setting	triclinic
loop_
_symmetry_equiv_pos_as_xyz
  x,y,z
_cell_length_a	13.7038
_cell_length_b	13.7038
_cell_length_c	16.2156
_cell_angle_alpha	66.6203
_cell_angle_beta	66.6203
_cell_angle_gamma	74.9858
loop_
_atom_site_label
_atom_site_type_symbol
_atom_site_fract_x
_atom_site_fract_y
_atom_site_fract_z
_atom_site_charge
Mof_Dy	Dy	0.45462	0.16301	0.49778	1.912
Mof_Dy	Dy	0.83699	0.54538	0.00222	1.881
Mof_Dy	Dy	0.54538	0.83699	0.50222	1.912
Mof_Dy	Dy	0.16301	0.45462	0.99778	1.881
Mof_H 	H 	0.225	0.3378	0.7443	0.048
Mof_H 	H 	0.9185	0.4605	0.7768	0.058
Mof_H 	H 	0.0908	0.3442	0.5626	0.105
Mof_H 	H 	0.1288	0.0792	0.6543	0.06
Mof_H 	H 	0.6622	0.775	0.7557	0.049
Mof_H 	H 	0.5395	0.0815	0.7232	0.058
Mof_H 	H 	0.6558	0.9092	0.9374	0.105
Mof_H 	H 	0.9208	0.8712	0.8457	0.057
Mof_H 	H 	0.775	0.6622	0.2557	0.048
Mof_H 	H 	0.0815	0.5395	0.2232	0.058
Mof_H 	H 	0.9092	0.6558	0.4374	0.105
Mof_H 	H 	0.8712	0.9208	0.3457	0.06
Mof_H 	H 	0.3378	0.225	0.2443	0.049
Mof_H 	H 	0.4605	0.9185	0.2768	0.058
Mof_H 	H 	0.3442	0.0908	0.0626	0.105
Mof_H 	H 	0.0792	0.1288	0.1543	0.057
Mof_H 	H 	0.2331	0.7669	0.75	-0.007
Mof_H 	H 	0.7669	0.2331	0.25	-0.007
Mof_C 	C 	0.2764	0.2782	0.5905	0.306
Mof_C 	C 	0.1741	0.3317	0.6452	-0.042
Mof_C 	C 	0.1661	0.3553	0.7242	0.023
Mof_C 	C 	0.0712	0.4044	0.7732	-0.123
Mof_C 	C 	0.9829	0.4285	0.7443	-0.017
Mof_C 	C 	0.9921	0.4043	0.6667	0.095
Mof_C 	C 	0.0865	0.3577	0.6159	-0.064
Mof_C 	C 	0.0636	0.429	0.8578	0.471
Mof_C 	C 	0.3105	0.9495	0.6242	0.506
Mof_C 	C 	0.1988	0.926	0.6899	-0.171
Mof_C 	C 	0.1157	0.0091	0.6918	0.023
Mof_C 	C 	0.7218	0.7236	0.9095	0.305
Mof_C 	C 	0.6683	0.8259	0.8548	-0.042
Mof_C 	C 	0.6447	0.8339	0.7758	0.023
Mof_C 	C 	0.5956	0.9288	0.7268	-0.118
Mof_C 	C 	0.5715	0.0171	0.7557	-0.026
Mof_C 	C 	0.5957	0.0079	0.8333	0.092
Mof_C 	C 	0.6423	0.9135	0.8841	-0.058
Mof_C 	C 	0.571	0.9364	0.6422	0.486
Mof_C 	C 	0.0505	0.6895	0.8758	0.492
Mof_C 	C 	0.074	0.8012	0.8101	-0.178
Mof_C 	C 	0.9909	0.8843	0.8082	0.042
Mof_C 	C 	0.7236	0.7218	0.4095	0.306
Mof_C 	C 	0.8259	0.6683	0.3548	-0.042
Mof_C 	C 	0.8339	0.6447	0.2758	0.023
Mof_C 	C 	0.9288	0.5956	0.2268	-0.123
Mof_C 	C 	0.0171	0.5715	0.2557	-0.017
Mof_C 	C 	0.0079	0.5957	0.3333	0.095
Mof_C 	C 	0.9135	0.6423	0.3841	-0.064
Mof_C 	C 	0.9364	0.571	0.1422	0.471
Mof_C 	C 	0.6895	0.0505	0.3758	0.506
Mof_C 	C 	0.8012	0.074	0.3101	-0.171
Mof_C 	C 	0.8843	0.9909	0.3082	0.023
Mof_C 	C 	0.2782	0.2764	0.0905	0.305
Mof_C 	C 	0.3317	0.1741	0.1452	-0.042
Mof_C 	C 	0.3553	0.1661	0.2242	0.023
Mof_C 	C 	0.4044	0.0712	0.2732	-0.118
Mof_C 	C 	0.4285	0.9829	0.2443	-0.026
Mof_C 	C 	0.4043	0.9921	0.1667	0.092
Mof_C 	C 	0.3577	0.0865	0.1159	-0.058
Mof_C 	C 	0.429	0.0636	0.3578	0.486
Mof_C 	C 	0.9495	0.3105	0.1242	0.492
Mof_C 	C 	0.926	0.1988	0.1899	-0.178
Mof_C 	C 	0.0091	0.1157	0.1918	0.042
Mof_C 	C 	0.1773	0.8227	0.75	0.109
Mof_C 	C 	0.0137	0.9863	0.75	0.021
Mof_C 	C 	0.8227	0.1773	0.25	0.109
Mof_C 	C 	0.9863	0.0137	0.25	0.021
Mof_N 	N 	0.899	0.4276	0.6348	-0.002
Mof_N 	N 	0.5724	0.101	0.8652	-0.002
Mof_N 	N 	0.101	0.5724	0.3652	-0.002
Mof_N 	N 	0.4276	0.899	0.1348	-0.002
Mof_N 	N 	0.9258	0.0742	0.75	0.002
Mof_N 	N 	0.0742	0.9258	0.25	0.002
Mof_O 	O 	0.2801	0.2717	0.5147	-0.401
Mof_O 	O 	0.3509	0.2375	0.625	-0.427
Mof_O 	O 	0.1468	0.4102	0.878	-0.499
Mof_O 	O 	0.9735	0.4693	0.9009	-0.538
Mof_O 	O 	0.9111	0.4173	0.5614	-0.103
Mof_O 	O 	0.814	0.4586	0.6861	-0.117
Mof_O 	O 	0.3258	0.0464	0.5866	-0.507
Mof_O 	O 	0.3787	0.8723	0.6112	-0.552
Mof_O 	O 	0.8356	0.052	0.7973	-0.102
Mof_O 	O 	0.7283	0.7199	0.9853	-0.394
Mof_O 	O 	0.7625	0.6491	0.875	-0.422
Mof_O 	O 	0.5898	0.8532	0.622	-0.504
Mof_O 	O 	0.5307	0.0265	0.5991	-0.556
Mof_O 	O 	0.5827	0.0889	0.9386	-0.102
Mof_O 	O 	0.5414	0.186	0.8139	-0.118
Mof_O 	O 	0.9536	0.6742	0.9134	-0.49
Mof_O 	O 	0.1277	0.6213	0.8888	-0.547
Mof_O 	O 	0.948	0.1644	0.7027	-0.1
Mof_O 	O 	0.7199	0.7283	0.4853	-0.401
Mof_O 	O 	0.6491	0.7625	0.375	-0.427
Mof_O 	O 	0.8532	0.5898	0.122	-0.499
Mof_O 	O 	0.0265	0.5307	0.0991	-0.538
Mof_O 	O 	0.0889	0.5827	0.4386	-0.103
Mof_O 	O 	0.186	0.5414	0.3139	-0.117
Mof_O 	O 	0.6742	0.9536	0.4134	-0.507
Mof_O 	O 	0.6213	0.1277	0.3888	-0.552
Mof_O 	O 	0.1644	0.948	0.2027	-0.102
Mof_O 	O 	0.2717	0.2801	0.0147	-0.394
Mof_O 	O 	0.2375	0.3509	0.125	-0.422
Mof_O 	O 	0.4102	0.1468	0.378	-0.504
Mof_O 	O 	0.4693	0.9735	0.4009	-0.556
Mof_O 	O 	0.4173	0.9111	0.0614	-0.102
Mof_O 	O 	0.4586	0.814	0.1861	-0.118
Mof_O 	O 	0.0464	0.3258	0.0866	-0.49
Mof_O 	O 	0.8723	0.3787	0.1112	-0.547
Mof_O 	O 	0.052	0.8356	0.2973	-0.1
_end
