data_functionalizedCrystal
_audit_creation_method	'EQeq! by Chris Wilmer'
_symmetry_space_group_name_H-M	'P1'
_symmetry_Int_Tables_number	1
_symmetry_cell_setting	triclinic
loop_
_symmetry_equiv_pos_as_xyz
  x,y,z
_cell_length_a	9.9545
_cell_length_b	13.1364
_cell_length_c	11.0094
_cell_angle_alpha	90
_cell_angle_beta	101.703
_cell_angle_gamma	90
loop_
_atom_site_label
_atom_site_type_symbol
_atom_site_fract_x
_atom_site_fract_y
_atom_site_fract_z
_atom_site_charge
Mof_C 	C 	0.4015	0.5047	0.9883	-0.05
Mof_C 	C 	0.1506	0.3825	0.481	-0.043
Mof_C 	C 	0.1642	0.4787	0.436	-0.074
Mof_H 	H 	0.1789	0.488	0.356	0.06
Mof_C 	C 	0.1306	0.3721	0.6002	-0.074
Mof_H 	H 	0.1178	0.3081	0.632	0.064
Mof_C 	C 	0.1298	0.4569	0.6713	0.055
Mof_H 	H 	0.1202	0.4486	0.753	0.016
Mof_C 	C 	0.4655	0.9002	0.4651	-0.081
Mof_H 	H 	0.5428	0.8593	0.4875	0.078
Mof_C 	C 	0.1558	0.5614	0.5116	0.052
Mof_H 	H 	0.1598	0.6266	0.4796	0.018
Mof_C 	C 	0.5088	0.3627	0.1076	0.055
Mof_H 	H 	0.5878	0.3252	0.1379	0.017
Mof_C 	C 	0.4672	0.9839	0.3893	0.06
Mof_H 	H 	0.5474	0.9986	0.3617	0.016
Mof_C 	C 	0.1557	0.2909	0.3972	0.362
Mof_C 	C 	0.2346	0.9401	0.4701	-0.086
Mof_H 	H 	0.1532	0.9271	0.4964	0.075
Mof_C 	C 	0.2436	0.0223	0.3928	0.068
Mof_H 	H 	0.1667	0.0631	0.3673	0.015
Mof_C 	C 	0.2816	0.4771	0.0253	-0.074
Mof_H 	H 	0.2023	0.5156	0.0005	0.073
Mof_C 	C 	0.5174	0.4461	0.0321	-0.067
Mof_H 	H 	0.6005	0.4627	0.0109	0.071
Mof_C 	C 	0.2804	0.393	0.0985	0.061
Mof_H 	H 	0.1986	0.3757	0.1217	0.017
Mof_C 	C 	0.4098	0.5959	0.907	0.384
Mof_C 	C 	0.09	0.0965	0.0969	0.366
Mof_C 	C 	0.1014	0.0041	0.0193	-0.052
Mof_C 	C 	0.099	0.9054	0.0631	-0.075
Mof_H 	H 	0.0928	0.8942	0.1452	0.06
Mof_C 	C 	0.1117	0.9278	0.8229	0.039
Mof_H 	H 	0.1146	0.9368	0.7397	0.019
Mof_C 	C 	0.1079	0.0136	0.8957	-0.057
Mof_H 	H 	0.1097	0.078	0.861	0.056
Mof_C 	C 	0.346	0.8782	0.5074	-0.03
Mof_C 	C 	0.1058	0.8231	0.9857	0.061
Mof_H 	H 	0.1063	0.7579	0.0187	0.012
Mof_C 	C 	0.3424	0.7907	0.5988	0.361
Mof_Mn	Mn	0.87371	0.19264	0.25222	0.938
Mof_Mn	Mn	0.37558	0.19159	0.24664	0.935
Mof_N 	N 	0.1419	0.5507	0.6301	-0.174
Mof_N 	N 	0.3903	0.3341	0.1385	-0.177
Mof_N 	N 	0.3581	0.0448	0.354	-0.176
Mof_N 	N 	0.1115	0.8328	0.8665	-0.176
Mof_O 	O 	0.2614	0.2838	0.3559	-0.374
Mof_O 	O 	0.0581	0.2285	0.3889	-0.367
Mof_O 	O 	0.1841	0.159	0.1147	-0.371
Mof_O 	O 	0.9859	0.099	0.1457	-0.373
Mof_O 	O 	0.5183	0.6069	0.869	-0.383
Mof_O 	O 	0.4404	0.7298	0.6157	-0.37
Mof_O 	O 	0.2335	0.7865	0.6379	-0.376
Mof_O 	O 	0.3055	0.65	0.8778	-0.386
Mof_C 	C 	0.5985	0.0047	0.0117	-0.034
Mof_C 	C 	0.8494	0.8825	0.519	-0.04
Mof_C 	C 	0.8358	0.9787	0.564	-0.081
Mof_H 	H 	0.8211	0.988	0.644	0.062
Mof_C 	C 	0.8694	0.8721	0.3998	-0.074
Mof_H 	H 	0.8822	0.8081	0.368	0.063
Mof_C 	C 	0.8702	0.9569	0.3287	0.051
Mof_H 	H 	0.8798	0.9486	0.247	0.016
Mof_C 	C 	0.5345	0.4002	0.5349	-0.081
Mof_H 	H 	0.4572	0.3593	0.5125	0.079
Mof_C 	C 	0.8442	0.0614	0.4884	0.06
Mof_H 	H 	0.8402	0.1266	0.5204	0.016
Mof_C 	C 	0.4912	0.8627	0.8924	0.061
Mof_H 	H 	0.4122	0.8252	0.8621	0.015
Mof_C 	C 	0.5328	0.4839	0.6107	0.064
Mof_H 	H 	0.4526	0.4986	0.6383	0.016
Mof_C 	C 	0.8443	0.7909	0.6028	0.361
Mof_C 	C 	0.7654	0.4401	0.5299	-0.077
Mof_H 	H 	0.8468	0.4271	0.5036	0.073
Mof_C 	C 	0.7564	0.5223	0.6072	0.059
Mof_H 	H 	0.8333	0.5631	0.6327	0.017
Mof_C 	C 	0.7184	0.9771	0.9747	-0.093
Mof_H 	H 	0.7977	0.0156	0.9995	0.082
Mof_C 	C 	0.4826	0.9461	0.9679	-0.078
Mof_H 	H 	0.3995	0.9627	0.9891	0.074
Mof_C 	C 	0.7196	0.893	0.9015	0.07
Mof_H 	H 	0.8014	0.8757	0.8783	0.013
Mof_C 	C 	0.5902	0.0959	0.093	0.38
Mof_C 	C 	0.91	0.5965	0.9031	0.367
Mof_C 	C 	0.8986	0.5041	0.9807	-0.059
Mof_C 	C 	0.901	0.4054	0.9369	-0.061
Mof_H 	H 	0.9072	0.3942	0.8548	0.056
Mof_C 	C 	0.8883	0.4278	0.1771	0.043
Mof_H 	H 	0.8854	0.4368	0.2603	0.019
Mof_C 	C 	0.8921	0.5136	0.1043	-0.061
Mof_H 	H 	0.8903	0.578	0.139	0.056
Mof_C 	C 	0.654	0.3782	0.4926	-0.033
Mof_C 	C 	0.8942	0.3231	0.0143	0.051
Mof_H 	H 	0.8937	0.2579	0.9813	0.017
Mof_C 	C 	0.6576	0.2907	0.4012	0.362
Mof_Mn	Mn	0.12629	0.69264	0.74778	0.938
Mof_Mn	Mn	0.62442	0.69159	0.75336	0.935
Mof_N 	N 	0.8581	0.0507	0.3699	-0.172
Mof_N 	N 	0.6097	0.8341	0.8615	-0.18
Mof_N 	N 	0.6419	0.5448	0.646	-0.177
Mof_N 	N 	0.8885	0.3328	0.1335	-0.175
Mof_O 	O 	0.7386	0.7838	0.6441	-0.374
Mof_O 	O 	0.9419	0.7285	0.6111	-0.368
Mof_O 	O 	0.8159	0.659	0.8853	-0.371
Mof_O 	O 	0.0141	0.599	0.8543	-0.373
Mof_O 	O 	0.4817	0.1069	0.131	-0.381
Mof_O 	O 	0.5596	0.2298	0.3843	-0.37
Mof_O 	O 	0.7665	0.2865	0.3621	-0.376
Mof_O 	O 	0.6945	0.15	0.1222	-0.385
_end
