data_functionalizedCrystal
_audit_creation_method	'EQeq! by Chris Wilmer'
_symmetry_space_group_name_H-M	'P1'
_symmetry_Int_Tables_number	1
_symmetry_cell_setting	triclinic
loop_
_symmetry_equiv_pos_as_xyz
  x,y,z
_cell_length_a	13.819
_cell_length_b	15.382
_cell_length_c	24.383
_cell_angle_alpha	100.41
_cell_angle_beta	95.25
_cell_angle_gamma	101.09
loop_
_atom_site_label
_atom_site_type_symbol
_atom_site_fract_x
_atom_site_fract_y
_atom_site_fract_z
_atom_site_charge
Mof_Mn	Mn	0.17459	0.64362	0.32342	0.879
Mof_Mn	Mn	0.36785	0.55619	0.27385	0.967
Mof_Mn	Mn	0.60873	0.65404	0.32475	0.969
Mof_Mn	Mn	0.81866	0.69843	0.26261	0.825
Mof_Mn	Mn	0.82541	0.35638	0.67658	0.878
Mof_Mn	Mn	0.63215	0.44381	0.72615	0.966
Mof_Mn	Mn	0.39127	0.34596	0.67525	0.969
Mof_Mn	Mn	0.18134	0.30157	0.73739	0.825
Mof_H 	H 	0.2876	0.3525	0.312	0.03
Mof_H 	H 	0.2607	0.1991	0.3098	0.066
Mof_H 	H 	0.9804	0.1958	0.334	0.066
Mof_H 	H 	0.0063	0.3477	0.3342	0.024
Mof_H 	H 	0.2388	0.0776	0.351	0.082
Mof_H 	H 	0.2114	0.9244	0.3465	0.005
Mof_H 	H 	0.9327	0.8968	0.2842	0.002
Mof_H 	H 	0.9597	0.0496	0.2867	0.083
Mof_H 	H 	0.2187	0.4726	0.1011	0.021
Mof_H 	H 	0.1364	0.445	0.0115	0.066
Mof_H 	H 	0.9342	0.5761	0.0691	0.067
Mof_H 	H 	0.0211	0.6116	0.1563	0.009
Mof_H 	H 	0.5494	0.7629	0.4427	0.023
Mof_H 	H 	0.5914	0.8973	0.5077	0.072
Mof_H 	H 	0.3686	0.9833	0.435	0.069
Mof_H 	H 	0.3265	0.8503	0.3705	0.019
Mof_H 	H 	0.6857	0.5882	0.1354	-0.017
Mof_H 	H 	0.6567	0.5328	0.0402	0.077
Mof_H 	H 	0.37	0.5227	0.0443	0.078
Mof_H 	H 	0.3982	0.5691	0.1391	0.013
Mof_H 	H 	0.6935	0.4074	0.3142	0.026
Mof_H 	H 	0.7408	0.2725	0.318	0.071
Mof_H 	H 	0.4592	0.1383	0.2648	0.07
Mof_H 	H 	0.4139	0.2735	0.2588	0.024
Mof_H 	H 	0.7535	0.1164	0.2597	0.076
Mof_H 	H 	0.7876	0.9768	0.2634	0.012
Mof_H 	H 	0.5615	0.9265	0.3506	0.024
Mof_H 	H 	0.5196	0.0588	0.3405	0.078
Mof_H 	H 	0.7634	0.5966	0.4842	0.03
Mof_H 	H 	0.8671	0.5334	0.538	0.07
Mof_H 	H 	0.0377	0.5183	0.4163	0.075
Mof_H 	H 	0.9351	0.5813	0.3643	0.016
Mof_H 	H 	0.7124	0.6475	0.688	0.03
Mof_H 	H 	0.7393	0.8009	0.6902	0.066
Mof_H 	H 	0.0196	0.8042	0.666	0.066
Mof_H 	H 	0.9937	0.6523	0.6658	0.024
Mof_H 	H 	0.7612	0.9224	0.649	0.082
Mof_H 	H 	0.7886	0.0756	0.6535	0.005
Mof_H 	H 	0.0673	0.1032	0.7158	0.002
Mof_H 	H 	0.0403	0.9504	0.7133	0.083
Mof_H 	H 	0.7813	0.5274	0.8989	0.021
Mof_H 	H 	0.8636	0.555	0.9885	0.066
Mof_H 	H 	0.0658	0.4239	0.9309	0.067
Mof_H 	H 	0.9789	0.3884	0.8437	0.009
Mof_H 	H 	0.4506	0.2371	0.5573	0.023
Mof_H 	H 	0.4086	0.1027	0.4923	0.072
Mof_H 	H 	0.6314	0.0167	0.565	0.069
Mof_H 	H 	0.6735	0.1497	0.6295	0.019
Mof_H 	H 	0.3143	0.4118	0.8646	-0.017
Mof_H 	H 	0.3433	0.4672	0.9598	0.077
Mof_H 	H 	0.63	0.4773	0.9557	0.078
Mof_H 	H 	0.6018	0.4309	0.8609	0.013
Mof_H 	H 	0.3065	0.5926	0.6858	0.026
Mof_H 	H 	0.2592	0.7275	0.682	0.071
Mof_H 	H 	0.5408	0.8617	0.7352	0.07
Mof_H 	H 	0.5861	0.7265	0.7412	0.024
Mof_H 	H 	0.2465	0.8836	0.7403	0.076
Mof_H 	H 	0.2124	0.0232	0.7366	0.012
Mof_H 	H 	0.4385	0.0735	0.6494	0.024
Mof_H 	H 	0.4804	0.9412	0.6595	0.078
Mof_H 	H 	0.2366	0.4034	0.5158	0.03
Mof_H 	H 	0.1329	0.4666	0.462	0.07
Mof_H 	H 	0.9623	0.4817	0.5837	0.075
Mof_H 	H 	0.0649	0.4187	0.6357	0.016
Mof_C 	C 	0.1495	0.3669	0.32263	-0.131
Mof_C 	C 	0.2247	0.3213	0.3159	0.045
Mof_C 	C 	0.2085	0.2287	0.3149	-0.106
Mof_C 	C 	0.1185	0.1806	0.3211	0.033
Mof_C 	C 	0.0427	0.2267	0.3289	-0.108
Mof_C 	C 	0.0586	0.3182	0.3293	0.046
Mof_C 	C 	0.1011	0.0811	0.3196	0.081
Mof_C 	C 	0.176	0.0419	0.3372	-0.156
Mof_C 	C 	0.1591	0.9493	0.3344	0.098
Mof_C 	C 	0.0688	0.8934	0.31481	-0.187
Mof_C 	C 	0.9956	0.9325	0.2977	0.1
Mof_C 	C 	0.0119	0.0253	0.2996	-0.155
Mof_C 	C 	0.1666	0.4659	0.32284	0.367
Mof_C 	C 	0.0529	0.7925	0.31271	0.44
Mof_C 	C 	0.1308	0.5489	0.13838	-0.143
Mof_C 	C 	0.1627	0.4964	0.0945	0.057
Mof_C 	C 	0.1122	0.4788	0.0407	-0.12
Mof_C 	C 	0.027	0.5099	0.0289	0.049
Mof_C 	C 	0.9937	0.5573	0.0746	-0.128
Mof_C 	C 	0.0452	0.5774	0.1272	0.068
Mof_C 	C 	0.186	0.5688	0.19684	0.399
Mof_C 	C 	0.4345	0.7932	0.39947	-0.144
Mof_C 	C 	0.5129	0.8074	0.44073	0.061
Mof_C 	C 	0.5379	0.8885	0.47981	-0.119
Mof_C 	C 	0.4861	0.9564	0.47864	0.049
Mof_C 	C 	0.4061	0.9394	0.4369	-0.12
Mof_C 	C 	0.3807	0.8597	0.39808	0.052
Mof_C 	C 	0.4083	0.7085	0.3552	0.362
Mof_C 	C 	0.5452	0.5851	0.14765	-0.185
Mof_C 	C 	0.6207	0.5736	0.11723	0.1
Mof_C 	C 	0.6032	0.5404	0.05967	-0.151
Mof_C 	C 	0.5099	0.5185	0.0309	0.064
Mof_C 	C 	0.4347	0.5335	0.0624	-0.144
Mof_C 	C 	0.4517	0.5634	0.1193	0.093
Mof_C 	C 	0.5638	0.6188	0.20997	0.413
Mof_C 	C 	0.5487	0.3546	0.2889	-0.134
Mof_C 	C 	0.6461	0.3535	0.3049	0.053
Mof_C 	C 	0.6743	0.2724	0.3075	-0.114
Mof_C 	C 	0.6048	0.1911	0.2946	0.04
Mof_C 	C 	0.5064	0.1923	0.2754	-0.114
Mof_C 	C 	0.4791	0.2733	0.2722	0.049
Mof_C 	C 	0.6338	0.1043	0.3004	0.061
Mof_C 	C 	0.7131	0.0775	0.2774	-0.135
Mof_C 	C 	0.7343	0.9939	0.2799	0.068
Mof_C 	C 	0.6766	0.9356	0.3069	-0.147
Mof_C 	C 	0.5991	0.9635	0.3307	0.072
Mof_C 	C 	0.5757	0.044	0.3261	-0.134
Mof_C 	C 	0.5171	0.4433	0.2888	0.406
Mof_C 	C 	0.6945	0.8427	0.30873	0.401
Mof_C 	C 	0.8392	0.5975	0.41961	-0.13
Mof_C 	C 	0.82	0.5818	0.4703	0.053
Mof_C 	C 	0.8826	0.5436	0.5031	-0.116
Mof_C 	C 	0.9672	0.5211	0.48359	0.049
Mof_C 	C 	0.9829	0.535	0.4313	-0.127
Mof_C 	C 	0.9209	0.5726	0.3997	0.06
Mof_C 	C 	0.7689	0.6357	0.38517	0.355
Mof_C 	C 	0.8505	0.6331	0.67737	-0.131
Mof_C 	C 	0.7753	0.6787	0.6841	0.045
Mof_C 	C 	0.7915	0.7713	0.6851	-0.106
Mof_C 	C 	0.8815	0.8194	0.6789	0.033
Mof_C 	C 	0.9573	0.7733	0.6711	-0.108
Mof_C 	C 	0.9414	0.6818	0.6707	0.046
Mof_C 	C 	0.8989	0.9189	0.6804	0.081
Mof_C 	C 	0.824	0.9581	0.6628	-0.156
Mof_C 	C 	0.8409	0.0507	0.6656	0.098
Mof_C 	C 	0.9312	0.1066	0.68519	-0.187
Mof_C 	C 	0.0044	0.0675	0.7023	0.1
Mof_C 	C 	0.9881	0.9747	0.7004	-0.155
Mof_C 	C 	0.8334	0.5341	0.67716	0.367
Mof_C 	C 	0.9471	0.2075	0.68729	0.44
Mof_C 	C 	0.8692	0.4511	0.86162	-0.143
Mof_C 	C 	0.8373	0.5036	0.9055	0.057
Mof_C 	C 	0.8878	0.5212	0.9593	-0.12
Mof_C 	C 	0.973	0.4901	0.9711	0.049
Mof_C 	C 	0.0063	0.4427	0.9254	-0.128
Mof_C 	C 	0.9548	0.4226	0.8728	0.068
Mof_C 	C 	0.814	0.4312	0.80316	0.399
Mof_C 	C 	0.5655	0.2068	0.60053	-0.144
Mof_C 	C 	0.4871	0.1926	0.55927	0.061
Mof_C 	C 	0.4621	0.1115	0.52019	-0.119
Mof_C 	C 	0.5139	0.0436	0.52136	0.049
Mof_C 	C 	0.5939	0.0606	0.5631	-0.12
Mof_C 	C 	0.6193	0.1403	0.60192	0.052
Mof_C 	C 	0.5917	0.2915	0.6448	0.362
Mof_C 	C 	0.4548	0.4149	0.85235	-0.185
Mof_C 	C 	0.3793	0.4264	0.88277	0.1
Mof_C 	C 	0.3968	0.4596	0.94033	-0.151
Mof_C 	C 	0.4901	0.4815	0.9691	0.064
Mof_C 	C 	0.5653	0.4665	0.9376	-0.144
Mof_C 	C 	0.5483	0.4366	0.8807	0.093
Mof_C 	C 	0.4362	0.3812	0.79003	0.413
Mof_C 	C 	0.4513	0.6454	0.7111	-0.134
Mof_C 	C 	0.3539	0.6465	0.6951	0.053
Mof_C 	C 	0.3257	0.7276	0.6925	-0.114
Mof_C 	C 	0.3952	0.8089	0.7054	0.04
Mof_C 	C 	0.4936	0.8077	0.7246	-0.114
Mof_C 	C 	0.5209	0.7267	0.7278	0.049
Mof_C 	C 	0.3662	0.8957	0.6996	0.061
Mof_C 	C 	0.2869	0.9225	0.7226	-0.135
Mof_C 	C 	0.2657	0.0061	0.7201	0.068
Mof_C 	C 	0.3234	0.0644	0.6931	-0.147
Mof_C 	C 	0.4009	0.0365	0.6693	0.072
Mof_C 	C 	0.4243	0.956	0.6739	-0.134
Mof_C 	C 	0.4829	0.5567	0.7112	0.406
Mof_C 	C 	0.3055	0.1573	0.69127	0.401
Mof_C 	C 	0.1608	0.4025	0.58039	-0.13
Mof_C 	C 	0.18	0.4182	0.5297	0.053
Mof_C 	C 	0.1174	0.4564	0.4969	-0.116
Mof_C 	C 	0.0328	0.4789	0.51641	0.049
Mof_C 	C 	0.0171	0.465	0.5687	-0.127
Mof_C 	C 	0.0791	0.4274	0.6003	0.06
Mof_C 	C 	0.2311	0.3643	0.61483	0.355
Mof_O 	O 	0.2544	0.50861	0.32274	-0.419
Mof_O 	O 	0.0955	0.5048	0.32353	-0.376
Mof_O 	O 	0.1273	0.76408	0.32951	-0.409
Mof_O 	O 	0.9709	0.74328	0.2946	-0.417
Mof_O 	O 	0.2636	0.5381	0.20321	-0.398
Mof_O 	O 	0.1491	0.61253	0.23492	-0.386
Mof_O 	O 	0.33354	0.69475	0.31831	-0.42
Mof_O 	O 	0.46247	0.6496	0.35416	-0.422
Mof_O 	O 	0.49077	0.62568	0.23656	-0.423
Mof_O 	O 	0.65084	0.63914	0.23431	-0.44
Mof_O 	O 	0.581	0.51266	0.31049	-0.404
Mof_O 	O 	0.4298	0.44139	0.26887	-0.401
Mof_O 	O 	0.6321	0.7919	0.32856	-0.404
Mof_O 	O 	0.77024	0.82207	0.28805	-0.386
Mof_O 	O 	0.6925	0.654	0.40467	-0.352
Mof_O 	O 	0.7853	0.643	0.33548	-0.405
Mof_O 	O 	0.7456	0.49139	0.67726	-0.419
Mof_O 	O 	0.9045	0.4952	0.67647	-0.376
Mof_O 	O 	0.8727	0.23592	0.67049	-0.409
Mof_O 	O 	0.0291	0.25672	0.7054	-0.417
Mof_O 	O 	0.7364	0.4619	0.79679	-0.398
Mof_O 	O 	0.8509	0.38747	0.76508	-0.386
Mof_O 	O 	0.66646	0.30525	0.68169	-0.42
Mof_O 	O 	0.53753	0.3504	0.64584	-0.422
Mof_O 	O 	0.50923	0.37432	0.76344	-0.423
Mof_O 	O 	0.34916	0.36086	0.76569	-0.44
Mof_O 	O 	0.419	0.48734	0.68951	-0.404
Mof_O 	O 	0.5702	0.55861	0.73113	-0.401
Mof_O 	O 	0.3679	0.2081	0.67144	-0.404
Mof_O 	O 	0.22976	0.17793	0.71195	-0.386
Mof_O 	O 	0.3075	0.346	0.59533	-0.352
Mof_O 	O 	0.2147	0.357	0.66452	-0.405
_end
