data_functionalizedCrystal
_audit_creation_method	'EQeq! by Chris Wilmer'
_symmetry_space_group_name_H-M	'P1'
_symmetry_Int_Tables_number	1
_symmetry_cell_setting	triclinic
loop_
_symmetry_equiv_pos_as_xyz
  x,y,z
_cell_length_a	30.4265
_cell_length_b	15.6032
_cell_length_c	21.9006
_cell_angle_alpha	90
_cell_angle_beta	133.016
_cell_angle_gamma	90
loop_
_atom_site_label
_atom_site_type_symbol
_atom_site_fract_x
_atom_site_fract_y
_atom_site_fract_z
_atom_site_charge
Mof_Sm	Sm	0.83148	0.87253	0.9857	1.724
Mof_Sm	Sm	0.11041	0.86397	0.17475	1.711
Mof_O 	O 	0.7524	0.772	0.8713	-0.524
Mof_O 	O 	0.7224	0.6534	0.7951	-0.479
Mof_O 	O 	0.94	0.8593	0.0695	-0.515
Mof_O 	O 	0.0211	0.7868	0.1157	-0.55
Mof_O 	O 	0.134	0.9699	0.118	-0.551
Mof_O 	O 	0.1726	0.0947	0.1241	-0.525
Mof_O 	O 	0.1216	0.8829	0.2951	-0.524
Mof_O 	O 	0.1568	0.9523	0.4095	-0.56
Mof_N 	N 	0.8658	0.737	0.9639	-0.188
Mof_N 	N 	0.1617	0.0006	0.2582	-0.18
Mof_C 	C 	0.8269	0.6785	0.906	-0.087
Mof_C 	C 	0.8453	0.6024	0.8957	-0
Mof_H 	H 	0.8169	0.5616	0.8547	0.015
Mof_C 	C 	0.9068	0.5882	0.9474	-0.1
Mof_H 	H 	0.9208	0.537	0.942	0.033
Mof_C 	C 	0.9471	0.6482	0.006	0.015
Mof_H 	H 	0.9891	0.6392	0.0413	-0.007
Mof_C 	C 	0.9256	0.7223	0.013	-0.109
Mof_C 	C 	0.762	0.7024	0.8535	0.395
Mof_C 	C 	0.9656	0.7939	0.0716	0.407
Mof_C 	C 	0.1848	0.0539	0.2383	-0.103
Mof_C 	C 	0.2255	0.1166	0.2921	0.025
Mof_H 	H 	0.2438	0.151	0.2787	-0.003
Mof_C 	C 	0.2393	0.1283	0.3663	-0.112
Mof_H 	H 	0.2666	0.1718	0.4044	0.032
Mof_C 	C 	0.2126	0.0755	0.384	0.025
Mof_H 	H 	0.2204	0.0839	0.4336	-0.011
Mof_C 	C 	0.1749	0.0112	0.3297	-0.109
Mof_C 	C 	0.1625	0.0384	0.1535	0.421
Mof_C 	C 	0.1483	0.9442	0.3457	0.425
Mof_Sm	Sm	0.33148	0.37253	0.9857	1.732
Mof_Sm	Sm	0.61041	0.36397	0.17475	1.711
Mof_O 	O 	0.2524	0.272	0.8713	-0.523
Mof_O 	O 	0.2224	0.1534	0.7951	-0.477
Mof_O 	O 	0.44	0.3593	0.0695	-0.516
Mof_O 	O 	0.5211	0.2868	0.1157	-0.548
Mof_O 	O 	0.634	0.4699	0.118	-0.553
Mof_O 	O 	0.6726	0.5947	0.1241	-0.525
Mof_O 	O 	0.6216	0.3829	0.2951	-0.524
Mof_O 	O 	0.6568	0.4523	0.4095	-0.56
Mof_N 	N 	0.3658	0.237	0.9639	-0.187
Mof_N 	N 	0.6617	0.5006	0.2582	-0.179
Mof_C 	C 	0.3269	0.1785	0.906	-0.085
Mof_C 	C 	0.3453	0.1024	0.8957	-0.002
Mof_H 	H 	0.3169	0.0616	0.8547	0.016
Mof_C 	C 	0.4068	0.0882	0.9474	-0.094
Mof_H 	H 	0.4208	0.037	0.942	0.032
Mof_C 	C 	0.4471	0.1482	0.006	0.01
Mof_H 	H 	0.4891	0.1392	0.0413	-0.006
Mof_C 	C 	0.4256	0.2223	0.013	-0.11
Mof_C 	C 	0.262	0.2024	0.8535	0.395
Mof_C 	C 	0.4656	0.2939	0.0716	0.407
Mof_C 	C 	0.6848	0.5539	0.2383	-0.103
Mof_C 	C 	0.7255	0.6166	0.2921	0.025
Mof_H 	H 	0.7438	0.651	0.2787	-0.004
Mof_C 	C 	0.7393	0.6283	0.3663	-0.112
Mof_H 	H 	0.7666	0.6718	0.4044	0.032
Mof_C 	C 	0.7126	0.5755	0.384	0.025
Mof_H 	H 	0.7204	0.5839	0.4336	-0.011
Mof_C 	C 	0.6749	0.5112	0.3297	-0.108
Mof_C 	C 	0.6625	0.5384	0.1535	0.423
Mof_C 	C 	0.6483	0.4442	0.3457	0.425
Mof_Sm	Sm	0.16852	0.87253	0.5143	1.728
Mof_Sm	Sm	0.88959	0.86397	0.32525	1.711
Mof_O 	O 	0.2476	0.772	0.6287	-0.523
Mof_O 	O 	0.2776	0.6534	0.7049	-0.478
Mof_O 	O 	0.06	0.8593	0.4305	-0.516
Mof_O 	O 	0.9789	0.7868	0.3843	-0.548
Mof_O 	O 	0.866	0.9699	0.382	-0.552
Mof_O 	O 	0.8274	0.0947	0.3759	-0.525
Mof_O 	O 	0.8784	0.8829	0.2049	-0.524
Mof_O 	O 	0.8432	0.9523	0.0905	-0.558
Mof_N 	N 	0.1342	0.737	0.5361	-0.187
Mof_N 	N 	0.8383	0.0006	0.2418	-0.179
Mof_C 	C 	0.1731	0.6785	0.594	-0.086
Mof_C 	C 	0.1547	0.6024	0.6043	-0.001
Mof_H 	H 	0.1831	0.5616	0.6453	0.015
Mof_C 	C 	0.0932	0.5882	0.5526	-0.098
Mof_H 	H 	0.0792	0.537	0.558	0.032
Mof_C 	C 	0.0529	0.6482	0.494	0.013
Mof_H 	H 	0.0109	0.6392	0.4587	-0.007
Mof_C 	C 	0.0744	0.7223	0.487	-0.11
Mof_C 	C 	0.238	0.7024	0.6465	0.395
Mof_C 	C 	0.0344	0.7939	0.4284	0.406
Mof_C 	C 	0.8152	0.0539	0.2617	-0.103
Mof_C 	C 	0.7745	0.1166	0.2079	0.025
Mof_H 	H 	0.7562	0.151	0.2213	-0.004
Mof_C 	C 	0.7607	0.1283	0.1337	-0.113
Mof_H 	H 	0.7334	0.1718	0.0956	0.033
Mof_C 	C 	0.7874	0.0755	0.116	0.026
Mof_H 	H 	0.7796	0.0839	0.0664	-0.012
Mof_C 	C 	0.8251	0.0112	0.1703	-0.111
Mof_C 	C 	0.8375	0.0384	0.3465	0.422
Mof_C 	C 	0.8517	0.9442	0.1543	0.427
Mof_Sm	Sm	0.66852	0.37253	0.5143	1.729
Mof_Sm	Sm	0.38959	0.36397	0.32525	1.711
Mof_O 	O 	0.7476	0.272	0.6287	-0.523
Mof_O 	O 	0.7776	0.1534	0.7049	-0.478
Mof_O 	O 	0.56	0.3593	0.4305	-0.515
Mof_O 	O 	0.4789	0.2868	0.3843	-0.549
Mof_O 	O 	0.366	0.4699	0.382	-0.553
Mof_O 	O 	0.3274	0.5947	0.3759	-0.525
Mof_O 	O 	0.3784	0.3829	0.2049	-0.524
Mof_O 	O 	0.3432	0.4523	0.0905	-0.56
Mof_N 	N 	0.6342	0.237	0.5361	-0.187
Mof_N 	N 	0.3383	0.5006	0.2418	-0.179
Mof_C 	C 	0.6731	0.1785	0.594	-0.086
Mof_C 	C 	0.6547	0.1024	0.6043	-0.001
Mof_H 	H 	0.6831	0.0616	0.6453	0.015
Mof_C 	C 	0.5932	0.0882	0.5526	-0.098
Mof_H 	H 	0.5792	0.037	0.558	0.032
Mof_C 	C 	0.5529	0.1482	0.494	0.013
Mof_H 	H 	0.5109	0.1392	0.4587	-0.007
Mof_C 	C 	0.5744	0.2223	0.487	-0.11
Mof_C 	C 	0.738	0.2024	0.6465	0.395
Mof_C 	C 	0.5344	0.2939	0.4284	0.407
Mof_C 	C 	0.3152	0.5539	0.2617	-0.103
Mof_C 	C 	0.2745	0.6166	0.2079	0.025
Mof_H 	H 	0.2562	0.651	0.2213	-0.003
Mof_C 	C 	0.2607	0.6283	0.1337	-0.112
Mof_H 	H 	0.2334	0.6718	0.0956	0.033
Mof_C 	C 	0.2874	0.5755	0.116	0.025
Mof_H 	H 	0.2796	0.5839	0.0664	-0.01
Mof_C 	C 	0.3251	0.5112	0.1703	-0.108
Mof_C 	C 	0.3375	0.5384	0.3465	0.423
Mof_C 	C 	0.3517	0.4442	0.1543	0.425
Mof_Sm	Sm	0.16852	0.12747	0.0143	1.725
Mof_Sm	Sm	0.88959	0.13603	0.82525	1.712
Mof_O 	O 	0.2476	0.228	0.1287	-0.523
Mof_O 	O 	0.2776	0.3466	0.2049	-0.478
Mof_O 	O 	0.06	0.1407	0.9305	-0.514
Mof_O 	O 	0.9789	0.2132	0.8843	-0.549
Mof_O 	O 	0.866	0.0301	0.882	-0.551
Mof_O 	O 	0.8274	0.9053	0.8759	-0.525
Mof_O 	O 	0.8784	0.1171	0.7049	-0.524
Mof_O 	O 	0.8432	0.0477	0.5905	-0.56
Mof_N 	N 	0.1342	0.263	0.0361	-0.188
Mof_N 	N 	0.8383	0.9994	0.7418	-0.18
Mof_C 	C 	0.1731	0.3215	0.094	-0.087
Mof_C 	C 	0.1547	0.3976	0.1043	-0
Mof_H 	H 	0.1831	0.4384	0.1453	0.015
Mof_C 	C 	0.0932	0.4118	0.0526	-0.1
Mof_H 	H 	0.0792	0.463	0.058	0.033
Mof_C 	C 	0.0529	0.3518	0.994	0.015
Mof_H 	H 	0.0109	0.3608	0.9587	-0.007
Mof_C 	C 	0.0744	0.2777	0.987	-0.109
Mof_C 	C 	0.238	0.2976	0.1465	0.395
Mof_C 	C 	0.0344	0.2061	0.9284	0.407
Mof_C 	C 	0.8152	0.9461	0.7617	-0.103
Mof_C 	C 	0.7745	0.8834	0.7079	0.025
Mof_H 	H 	0.7562	0.849	0.7213	-0.003
Mof_C 	C 	0.7607	0.8717	0.6337	-0.112
Mof_H 	H 	0.7334	0.8282	0.5956	0.032
Mof_C 	C 	0.7874	0.9245	0.616	0.025
Mof_H 	H 	0.7796	0.9161	0.5664	-0.011
Mof_C 	C 	0.8251	0.9888	0.6703	-0.109
Mof_C 	C 	0.8375	0.9616	0.8465	0.421
Mof_C 	C 	0.8517	0.0558	0.6543	0.425
Mof_Sm	Sm	0.66852	0.62747	0.0143	1.732
Mof_Sm	Sm	0.38959	0.63603	0.82525	1.711
Mof_O 	O 	0.7476	0.728	0.1287	-0.523
Mof_O 	O 	0.7776	0.8466	0.2049	-0.477
Mof_O 	O 	0.56	0.6407	0.9305	-0.516
Mof_O 	O 	0.4789	0.7132	0.8843	-0.548
Mof_O 	O 	0.366	0.5301	0.882	-0.553
Mof_O 	O 	0.3274	0.4053	0.8759	-0.525
Mof_O 	O 	0.3784	0.6171	0.7049	-0.524
Mof_O 	O 	0.3432	0.5477	0.5905	-0.56
Mof_N 	N 	0.6342	0.763	0.0361	-0.187
Mof_N 	N 	0.3383	0.4994	0.7418	-0.179
Mof_C 	C 	0.6731	0.8215	0.094	-0.085
Mof_C 	C 	0.6547	0.8976	0.1043	-0.002
Mof_H 	H 	0.6831	0.9384	0.1453	0.016
Mof_C 	C 	0.5932	0.9118	0.0526	-0.094
Mof_H 	H 	0.5792	0.963	0.058	0.032
Mof_C 	C 	0.5529	0.8518	0.994	0.01
Mof_H 	H 	0.5109	0.8608	0.9587	-0.006
Mof_C 	C 	0.5744	0.7777	0.987	-0.11
Mof_C 	C 	0.738	0.7976	0.1465	0.395
Mof_C 	C 	0.5344	0.7061	0.9284	0.407
Mof_C 	C 	0.3152	0.4461	0.7617	-0.103
Mof_C 	C 	0.2745	0.3834	0.7079	0.025
Mof_H 	H 	0.2562	0.349	0.7213	-0.004
Mof_C 	C 	0.2607	0.3717	0.6337	-0.112
Mof_H 	H 	0.2334	0.3282	0.5956	0.032
Mof_C 	C 	0.2874	0.4245	0.616	0.025
Mof_H 	H 	0.2796	0.4161	0.5664	-0.011
Mof_C 	C 	0.3251	0.4888	0.6703	-0.108
Mof_C 	C 	0.3375	0.4616	0.8465	0.423
Mof_C 	C 	0.3517	0.5558	0.6543	0.425
Mof_Sm	Sm	0.83148	0.12747	0.4857	1.728
Mof_Sm	Sm	0.11041	0.13603	0.67475	1.711
Mof_O 	O 	0.7524	0.228	0.3713	-0.523
Mof_O 	O 	0.7224	0.3466	0.2951	-0.478
Mof_O 	O 	0.94	0.1407	0.5695	-0.516
Mof_O 	O 	0.0211	0.2132	0.6157	-0.548
Mof_O 	O 	0.134	0.0301	0.618	-0.552
Mof_O 	O 	0.1726	0.9053	0.6241	-0.525
Mof_O 	O 	0.1216	0.1171	0.7951	-0.524
Mof_O 	O 	0.1568	0.0477	0.9095	-0.558
Mof_N 	N 	0.8658	0.263	0.4639	-0.187
Mof_N 	N 	0.1617	0.9994	0.7582	-0.179
Mof_C 	C 	0.8269	0.3215	0.406	-0.086
Mof_C 	C 	0.8453	0.3976	0.3957	-0.001
Mof_H 	H 	0.8169	0.4384	0.3547	0.015
Mof_C 	C 	0.9068	0.4118	0.4474	-0.098
Mof_H 	H 	0.9208	0.463	0.442	0.032
Mof_C 	C 	0.9471	0.3518	0.506	0.013
Mof_H 	H 	0.9891	0.3608	0.5413	-0.007
Mof_C 	C 	0.9256	0.2777	0.513	-0.11
Mof_C 	C 	0.762	0.2976	0.3535	0.395
Mof_C 	C 	0.9656	0.2061	0.5716	0.406
Mof_C 	C 	0.1848	0.9461	0.7383	-0.103
Mof_C 	C 	0.2255	0.8834	0.7921	0.025
Mof_H 	H 	0.2438	0.849	0.7787	-0.004
Mof_C 	C 	0.2393	0.8717	0.8663	-0.113
Mof_H 	H 	0.2666	0.8282	0.9044	0.033
Mof_C 	C 	0.2126	0.9245	0.884	0.026
Mof_H 	H 	0.2204	0.9161	0.9336	-0.012
Mof_C 	C 	0.1749	0.9888	0.8297	-0.111
Mof_C 	C 	0.1625	0.9616	0.6535	0.422
Mof_C 	C 	0.1483	0.0558	0.8457	0.427
Mof_Sm	Sm	0.33148	0.62747	0.4857	1.729
Mof_Sm	Sm	0.61041	0.63603	0.67475	1.711
Mof_O 	O 	0.2524	0.728	0.3713	-0.523
Mof_O 	O 	0.2224	0.8466	0.2951	-0.478
Mof_O 	O 	0.44	0.6407	0.5695	-0.515
Mof_O 	O 	0.5211	0.7132	0.6157	-0.549
Mof_O 	O 	0.634	0.5301	0.618	-0.553
Mof_O 	O 	0.6726	0.4053	0.6241	-0.525
Mof_O 	O 	0.6216	0.6171	0.7951	-0.524
Mof_O 	O 	0.6568	0.5477	0.9095	-0.56
Mof_N 	N 	0.3658	0.763	0.4639	-0.187
Mof_N 	N 	0.6617	0.4994	0.7582	-0.179
Mof_C 	C 	0.3269	0.8215	0.406	-0.086
Mof_C 	C 	0.3453	0.8976	0.3957	-0.001
Mof_H 	H 	0.3169	0.9384	0.3547	0.015
Mof_C 	C 	0.4068	0.9118	0.4474	-0.098
Mof_H 	H 	0.4208	0.963	0.442	0.032
Mof_C 	C 	0.4471	0.8518	0.506	0.013
Mof_H 	H 	0.4891	0.8608	0.5413	-0.007
Mof_C 	C 	0.4256	0.7777	0.513	-0.11
Mof_C 	C 	0.262	0.7976	0.3535	0.395
Mof_C 	C 	0.4656	0.7061	0.5716	0.407
Mof_C 	C 	0.6848	0.4461	0.7383	-0.103
Mof_C 	C 	0.7255	0.3834	0.7921	0.025
Mof_H 	H 	0.7438	0.349	0.7787	-0.003
Mof_C 	C 	0.7393	0.3717	0.8663	-0.112
Mof_H 	H 	0.7666	0.3282	0.9044	0.033
Mof_C 	C 	0.7126	0.4245	0.884	0.025
Mof_H 	H 	0.7204	0.4161	0.9336	-0.01
Mof_C 	C 	0.6749	0.4888	0.8297	-0.108
Mof_C 	C 	0.6625	0.4616	0.6535	0.423
Mof_C 	C 	0.6483	0.5558	0.8457	0.425
_end
