data_functionalizedCrystal
_audit_creation_method	'EQeq! by Chris Wilmer'
_symmetry_space_group_name_H-M	'P1'
_symmetry_Int_Tables_number	1
_symmetry_cell_setting	triclinic
loop_
_symmetry_equiv_pos_as_xyz
  x,y,z
_cell_length_a	20.757
_cell_length_b	20.757
_cell_length_c	20.757
_cell_angle_alpha	90
_cell_angle_beta	90
_cell_angle_gamma	90
loop_
_atom_site_label
_atom_site_type_symbol
_atom_site_fract_x
_atom_site_fract_y
_atom_site_fract_z
_atom_site_charge
Mof_Zr	Zr	0.11929	0	-0	3.265
Mof_Zr	Zr	0.11929	0.5	0.5	3.314
Mof_Zr	Zr	0.61929	-5.6453e-33	0.5	3.227
Mof_Zr	Zr	0.61929	0.5	-0	3.227
Mof_Zr	Zr	0.88071	0	-0	3.14
Mof_Zr	Zr	0.88071	0.5	0.5	3.184
Mof_Zr	Zr	0.38071	-5.6453e-33	0.5	3.228
Mof_Zr	Zr	0.38071	0.5	-0	3.228
Mof_Zr	Zr	1.41132e-33	0.11929	-0	3.264
Mof_Zr	Zr	-3.7706e-33	0.61929	0.5	3.227
Mof_Zr	Zr	0.5	0.11929	0.5	3.313
Mof_Zr	Zr	0.5	0.61929	-0	3.227
Mof_Zr	Zr	-1.12906e-32	0.88071	-0	3.14
Mof_Zr	Zr	1.8747e-33	0.38071	0.5	3.228
Mof_Zr	Zr	0.5	0.88071	0.5	3.184
Mof_Zr	Zr	0.5	0.38071	-0	3.228
Mof_Zr	Zr	1.85859e-33	0	0.11929	3.264
Mof_Zr	Zr	-3.32333e-33	0.5	0.61929	3.227
Mof_Zr	Zr	0.5	-5.6453e-33	0.61929	3.227
Mof_Zr	Zr	0.5	0.5	0.11929	3.313
Mof_Zr	Zr	-7.98846e-33	-1.12906e-32	0.88071	3.14
Mof_Zr	Zr	4.25008e-33	0.5	0.38071	3.228
Mof_Zr	Zr	0.5	-2.82265e-33	0.38071	3.228
Mof_Zr	Zr	0.5	0.5	0.88071	3.184
Mof_O 	O 	0.17084	0.09384	-0	0.572
Mof_C 	C 	0.1858	0.2669	-0	-0.088
Mof_H 	H 	0.1425	0.2785	-0	0.116
Mof_O 	O 	0.194	0.08	-0	-1.02
Mof_O 	O 	0.17084	0.59384	0.5	0.684
Mof_C 	C 	0.1858	0.7669	0.5	-0.049
Mof_H 	H 	0.1425	0.7785	0.5	0.181
Mof_O 	O 	0.194	0.58	0.5	-0.974
Mof_O 	O 	0.67084	0.09384	0.5	0.988
Mof_C 	C 	0.6858	0.2669	0.5	-0.046
Mof_H 	H 	0.6425	0.2785	0.5	0.162
Mof_O 	O 	0.694	0.08	0.5	-1.29
Mof_O 	O 	0.67084	0.59384	-0	0.717
Mof_C 	C 	0.6858	0.7669	-0	-0.015
Mof_H 	H 	0.6425	0.7785	-0	0.132
Mof_O 	O 	0.694	0.58	-0	-1.093
Mof_O 	O 	0.82916	0.90616	-0	1.055
Mof_C 	C 	0.8142	0.7331	-0	-0.29
Mof_H 	H 	0.8575	0.7215	-0	0.27
Mof_O 	O 	0.806	0.92	-0	-1.217
Mof_O 	O 	0.82916	0.40616	0.5	1.432
Mof_C 	C 	0.8142	0.2331	0.5	-0.219
Mof_H 	H 	0.8575	0.2215	0.5	0.255
Mof_O 	O 	0.806	0.42	0.5	-1.612
Mof_O 	O 	0.32916	0.90616	0.5	0.649
Mof_C 	C 	0.3142	0.7331	0.5	-0.235
Mof_H 	H 	0.3575	0.7215	0.5	0.263
Mof_O 	O 	0.306	0.92	0.5	-0.787
Mof_O 	O 	0.32916	0.40616	-0	0.654
Mof_C 	C 	0.3142	0.2331	-0	-0.176
Mof_H 	H 	0.3575	0.2215	-0	0.156
Mof_O 	O 	0.306	0.42	-0	-1.038
Mof_O 	O 	0.82916	0.09384	-0	1.549
Mof_C 	C 	0.8142	0.2669	-0	-0.18
Mof_H 	H 	0.8575	0.2785	-0	0.186
Mof_O 	O 	0.806	0.08	-0	-1.87
Mof_O 	O 	0.82916	0.59384	0.5	1.756
Mof_C 	C 	0.8142	0.7669	0.5	-0.139
Mof_H 	H 	0.8575	0.7785	0.5	0.242
Mof_O 	O 	0.806	0.58	0.5	-1.922
Mof_O 	O 	0.32916	0.09384	0.5	1.002
Mof_C 	C 	0.3142	0.2669	0.5	-0.126
Mof_H 	H 	0.3575	0.2785	0.5	0.182
Mof_O 	O 	0.306	0.08	0.5	-1.307
Mof_O 	O 	0.32916	0.59384	-0	0.833
Mof_C 	C 	0.3142	0.7669	-0	-0.094
Mof_H 	H 	0.3575	0.7785	-0	0.15
Mof_O 	O 	0.306	0.58	-0	-1.207
Mof_O 	O 	0.17084	0.90616	-0	0.091
Mof_C 	C 	0.1858	0.7331	-0	-0.201
Mof_H 	H 	0.1425	0.7215	-0	0.204
Mof_O 	O 	0.194	0.92	-0	-0.374
Mof_O 	O 	0.17084	0.40616	0.5	0.602
Mof_C 	C 	0.1858	0.2331	0.5	-0.128
Mof_H 	H 	0.1425	0.2215	0.5	0.183
Mof_O 	O 	0.194	0.42	0.5	-0.899
Mof_O 	O 	0.67084	0.90616	0.5	0.381
Mof_C 	C 	0.6858	0.7331	0.5	-0.156
Mof_H 	H 	0.6425	0.7215	0.5	0.251
Mof_O 	O 	0.694	0.92	0.5	-0.529
Mof_O 	O 	0.67084	0.40616	-0	0.54
Mof_C 	C 	0.6858	0.2331	-0	-0.093
Mof_H 	H 	0.6425	0.2215	-0	0.138
Mof_O 	O 	0.694	0.42	-0	-0.925
Mof_O 	O 	1.05751e-33	0.17084	0.09384	0.572
Mof_C 	C 	-4.64458e-33	0.1858	0.2669	-0.088
Mof_H 	H 	-1.77844e-33	0.1425	0.2785	0.116
Mof_O 	O 	-1.81703e-33	0.194	0.08	-1.02
Mof_O 	O 	2.22654e-33	0.67084	0.59384	0.717
Mof_C 	C 	2.87541e-33	0.6858	0.7669	-0.015
Mof_H 	H 	-1.4017e-32	0.6425	0.7785	0.132
Mof_O 	O 	2.17465e-33	0.694	0.58	-1.093
Mof_O 	O 	0.5	0.17084	0.59384	0.684
Mof_C 	C 	0.5	0.1858	0.7669	-0.049
Mof_H 	H 	0.5	0.1425	0.7785	0.181
Mof_O 	O 	0.5	0.194	0.58	-0.974
Mof_O 	O 	0.5	0.67084	0.09384	0.988
Mof_C 	C 	0.5	0.6858	0.2669	-0.046
Mof_H 	H 	0.5	0.6425	0.2785	0.162
Mof_O 	O 	0.5	0.694	0.08	-1.29
Mof_O 	O 	3.39756e-33	0.82916	0.90616	1.055
Mof_C 	C 	-1.98325e-32	0.8142	0.7331	-0.29
Mof_H 	H 	2.70519e-33	0.8575	0.7215	0.27
Mof_O 	O 	-7.84114e-33	0.806	0.92	-1.217
Mof_O 	O 	1.52286e-33	0.32916	0.40616	0.654
Mof_C 	C 	8.73985e-34	0.3142	0.2331	-0.176
Mof_H 	H 	-1.99216e-33	0.3575	0.2215	0.156
Mof_O 	O 	-4.07055e-33	0.306	0.42	-1.038
Mof_O 	O 	0.5	0.82916	0.40616	1.432
Mof_C 	C 	0.5	0.8142	0.2331	-0.219
Mof_H 	H 	0.5	0.8575	0.2215	0.255
Mof_O 	O 	0.5	0.806	0.42	-1.612
Mof_O 	O 	0.5	0.32916	0.90616	0.649
Mof_C 	C 	0.5	0.3142	0.7331	-0.235
Mof_H 	H 	0.5	0.3575	0.7215	0.263
Mof_O 	O 	0.5	0.306	0.92	-0.787
Mof_O 	O 	1.05751e-33	0.82916	0.09384	1.549
Mof_C 	C 	-1.82193e-33	0.8142	0.2669	-0.18
Mof_H 	H 	1.04421e-33	0.8575	0.2785	0.186
Mof_O 	O 	8.06223e-33	0.806	0.08	-1.87
Mof_O 	O 	-3.41875e-33	0.32916	0.59384	0.833
Mof_C 	C 	-2.76988e-33	0.3142	0.7669	-0.094
Mof_H 	H 	2.91891e-33	0.3575	0.7785	0.15
Mof_O 	O 	1.34652e-32	0.306	0.58	-1.207
Mof_O 	O 	0.5	0.82916	0.59384	1.756
Mof_C 	C 	0.5	0.8142	0.7669	-0.139
Mof_H 	H 	0.5	0.8575	0.7785	0.242
Mof_O 	O 	0.5	0.806	0.58	-1.922
Mof_O 	O 	0.5	0.32916	0.09384	1.002
Mof_C 	C 	0.5	0.3142	0.2669	-0.126
Mof_H 	H 	0.5	0.3575	0.2785	0.182
Mof_O 	O 	0.5	0.306	0.08	-1.307
Mof_O 	O 	-7.89303e-33	0.17084	0.90616	0.091
Mof_C 	C 	-2.89661e-33	0.1858	0.7331	-0.201
Mof_H 	H 	-2.9401e-33	0.1425	0.7215	0.204
Mof_O 	O 	3.44945e-33	0.194	0.92	-0.374
Mof_O 	O 	-1.29979e-33	0.67084	0.40616	0.54
Mof_C 	C 	-4.77131e-33	0.6858	0.2331	-0.093
Mof_H 	H 	9.29843e-33	0.6425	0.2215	0.138
Mof_O 	O 	1.57475e-33	0.694	0.42	-0.925
Mof_O 	O 	0.5	0.17084	0.40616	0.602
Mof_C 	C 	0.5	0.1858	0.2331	-0.128
Mof_H 	H 	0.5	0.1425	0.2215	0.183
Mof_O 	O 	0.5	0.194	0.42	-0.899
Mof_O 	O 	0.5	0.67084	0.90616	0.381
Mof_C 	C 	0.5	0.6858	0.7331	-0.156
Mof_H 	H 	0.5	0.6425	0.7215	0.251
Mof_O 	O 	0.5	0.694	0.92	-0.529
Mof_O 	O 	0.09384	0	0.17084	0.572
Mof_C 	C 	0.2669	0	0.1858	-0.088
Mof_H 	H 	0.2785	-1.41132e-33	0.1425	0.116
Mof_O 	O 	0.08	-2.82265e-33	0.194	-1.02
Mof_O 	O 	0.09384	0.5	0.67084	0.988
Mof_C 	C 	0.2669	0.5	0.6858	-0.046
Mof_H 	H 	0.2785	0.5	0.6425	0.162
Mof_O 	O 	0.08	0.5	0.694	-1.29
Mof_O 	O 	0.59384	0	0.67084	0.717
Mof_C 	C 	0.7669	-5.6453e-33	0.6858	-0.015
Mof_H 	H 	0.7785	0	0.6425	0.132
Mof_O 	O 	0.58	0	0.694	-1.093
Mof_O 	O 	0.59384	0.5	0.17084	0.684
Mof_C 	C 	0.7669	0.5	0.1858	-0.049
Mof_H 	H 	0.7785	0.5	0.1425	0.181
Mof_O 	O 	0.58	0.5	0.194	-0.974
Mof_O 	O 	0.90616	5.6453e-33	0.82916	1.055
Mof_C 	C 	0.7331	-5.6453e-33	0.8142	-0.29
Mof_H 	H 	0.7215	0	0.8575	0.27
Mof_O 	O 	0.92	5.6453e-33	0.806	-1.217
Mof_O 	O 	0.90616	0.5	0.32916	0.649
Mof_C 	C 	0.7331	0.5	0.3142	-0.235
Mof_H 	H 	0.7215	0.5	0.3575	0.263
Mof_O 	O 	0.92	0.5	0.306	-0.787
Mof_O 	O 	0.40616	-2.82265e-33	0.32916	0.654
Mof_C 	C 	0.2331	0	0.3142	-0.176
Mof_H 	H 	0.2215	0	0.3575	0.156
Mof_O 	O 	0.42	0	0.306	-1.038
Mof_O 	O 	0.40616	0.5	0.82916	1.432
Mof_C 	C 	0.2331	0.5	0.8142	-0.219
Mof_H 	H 	0.2215	0.5	0.8575	0.255
Mof_O 	O 	0.42	0.5	0.806	-1.612
Mof_O 	O 	0.09384	5.6453e-33	0.82916	1.549
Mof_C 	C 	0.2669	-5.6453e-33	0.8142	-0.18
Mof_H 	H 	0.2785	0	0.8575	0.186
Mof_O 	O 	0.08	5.6453e-33	0.806	-1.87
Mof_O 	O 	0.09384	0.5	0.32916	1.002
Mof_C 	C 	0.2669	0.5	0.3142	-0.126
Mof_H 	H 	0.2785	0.5	0.3575	0.182
Mof_O 	O 	0.08	0.5	0.306	-1.307
Mof_O 	O 	0.59384	-2.82265e-33	0.32916	0.833
Mof_C 	C 	0.7669	0	0.3142	-0.094
Mof_H 	H 	0.7785	0	0.3575	0.15
Mof_O 	O 	0.58	0	0.306	-1.207
Mof_O 	O 	0.59384	0.5	0.82916	1.756
Mof_C 	C 	0.7669	0.5	0.8142	-0.139
Mof_H 	H 	0.7785	0.5	0.8575	0.242
Mof_O 	O 	0.58	0.5	0.806	-1.922
Mof_O 	O 	0.90616	0	0.17084	0.091
Mof_C 	C 	0.7331	0	0.1858	-0.201
Mof_H 	H 	0.7215	-1.41132e-33	0.1425	0.204
Mof_O 	O 	0.92	-2.82265e-33	0.194	-0.374
Mof_O 	O 	0.90616	0.5	0.67084	0.381
Mof_C 	C 	0.7331	0.5	0.6858	-0.156
Mof_H 	H 	0.7215	0.5	0.6425	0.251
Mof_O 	O 	0.92	0.5	0.694	-0.529
Mof_O 	O 	0.40616	0	0.67084	0.54
Mof_C 	C 	0.2331	-5.6453e-33	0.6858	-0.093
Mof_H 	H 	0.2215	0	0.6425	0.138
Mof_O 	O 	0.42	0	0.694	-0.925
Mof_O 	O 	0.40616	0.5	0.17084	0.602
Mof_C 	C 	0.2331	0.5	0.1858	-0.128
Mof_H 	H 	0.2215	0.5	0.1425	0.183
Mof_O 	O 	0.42	0.5	0.194	-0.899
Mof_O 	O 	0.09384	0.17084	-0	0.572
Mof_C 	C 	0.2669	0.1858	-0	-0.088
Mof_H 	H 	0.2785	0.1425	-0	0.116
Mof_O 	O 	0.08	0.194	-0	-1.02
Mof_O 	O 	0.09384	0.67084	0.5	0.988
Mof_C 	C 	0.2669	0.6858	0.5	-0.046
Mof_H 	H 	0.2785	0.6425	0.5	0.162
Mof_O 	O 	0.08	0.694	0.5	-1.29
Mof_O 	O 	0.59384	0.17084	0.5	0.684
Mof_C 	C 	0.7669	0.1858	0.5	-0.049
Mof_H 	H 	0.7785	0.1425	0.5	0.181
Mof_O 	O 	0.58	0.194	0.5	-0.974
Mof_O 	O 	0.59384	0.67084	-0	0.717
Mof_C 	C 	0.7669	0.6858	-0	-0.015
Mof_H 	H 	0.7785	0.6425	-0	0.132
Mof_O 	O 	0.58	0.694	-0	-1.093
Mof_O 	O 	0.90616	0.82916	-0	1.055
Mof_C 	C 	0.7331	0.8142	-0	-0.29
Mof_H 	H 	0.7215	0.8575	-0	0.27
Mof_O 	O 	0.92	0.806	-0	-1.217
Mof_O 	O 	0.90616	0.32916	0.5	0.649
Mof_C 	C 	0.7331	0.3142	0.5	-0.235
Mof_H 	H 	0.7215	0.3575	0.5	0.263
Mof_O 	O 	0.92	0.306	0.5	-0.787
Mof_O 	O 	0.40616	0.82916	0.5	1.432
Mof_C 	C 	0.2331	0.8142	0.5	-0.219
Mof_H 	H 	0.2215	0.8575	0.5	0.255
Mof_O 	O 	0.42	0.806	0.5	-1.612
Mof_O 	O 	0.40616	0.32916	-0	0.654
Mof_C 	C 	0.2331	0.3142	-0	-0.176
Mof_H 	H 	0.2215	0.3575	-0	0.156
Mof_O 	O 	0.42	0.306	-0	-1.038
Mof_O 	O 	0.09384	0.82916	-0	1.549
Mof_C 	C 	0.2669	0.8142	-0	-0.18
Mof_H 	H 	0.2785	0.8575	-0	0.186
Mof_O 	O 	0.08	0.806	-0	-1.87
Mof_O 	O 	0.09384	0.32916	0.5	1.002
Mof_C 	C 	0.2669	0.3142	0.5	-0.126
Mof_H 	H 	0.2785	0.3575	0.5	0.182
Mof_O 	O 	0.08	0.306	0.5	-1.307
Mof_O 	O 	0.59384	0.82916	0.5	1.756
Mof_C 	C 	0.7669	0.8142	0.5	-0.139
Mof_H 	H 	0.7785	0.8575	0.5	0.242
Mof_O 	O 	0.58	0.806	0.5	-1.922
Mof_O 	O 	0.59384	0.32916	-0	0.833
Mof_C 	C 	0.7669	0.3142	-0	-0.094
Mof_H 	H 	0.7785	0.3575	-0	0.15
Mof_O 	O 	0.58	0.306	-0	-1.207
Mof_O 	O 	0.90616	0.17084	-0	0.091
Mof_C 	C 	0.7331	0.1858	-0	-0.201
Mof_H 	H 	0.7215	0.1425	-0	0.204
Mof_O 	O 	0.92	0.194	-0	-0.374
Mof_O 	O 	0.90616	0.67084	0.5	0.381
Mof_C 	C 	0.7331	0.6858	0.5	-0.156
Mof_H 	H 	0.7215	0.6425	0.5	0.251
Mof_O 	O 	0.92	0.694	0.5	-0.529
Mof_O 	O 	0.40616	0.17084	0.5	0.602
Mof_C 	C 	0.2331	0.1858	0.5	-0.128
Mof_H 	H 	0.2215	0.1425	0.5	0.183
Mof_O 	O 	0.42	0.194	0.5	-0.899
Mof_O 	O 	0.40616	0.67084	-0	0.54
Mof_C 	C 	0.2331	0.6858	-0	-0.093
Mof_H 	H 	0.2215	0.6425	-0	0.138
Mof_O 	O 	0.42	0.694	-0	-0.925
Mof_O 	O 	0.17084	0	0.90616	0.091
Mof_C 	C 	0.1858	0	0.7331	-0.201
Mof_H 	H 	0.1425	-1.12906e-32	0.7215	0.204
Mof_O 	O 	0.194	0	0.92	-0.374
Mof_O 	O 	0.17084	0.5	0.40616	0.602
Mof_C 	C 	0.1858	0.5	0.2331	-0.128
Mof_H 	H 	0.1425	0.5	0.2215	0.183
Mof_O 	O 	0.194	0.5	0.42	-0.899
Mof_O 	O 	0.67084	0	0.40616	0.54
Mof_C 	C 	0.6858	2.82265e-33	0.2331	-0.093
Mof_H 	H 	0.6425	0	0.2215	0.138
Mof_O 	O 	0.694	0	0.42	-0.925
Mof_O 	O 	0.67084	0.5	0.90616	0.381
Mof_C 	C 	0.6858	0.5	0.7331	-0.156
Mof_H 	H 	0.6425	0.5	0.7215	0.251
Mof_O 	O 	0.694	0.5	0.92	-0.529
Mof_O 	O 	0.82916	0	0.09384	1.549
Mof_C 	C 	0.8142	0	0.2669	-0.18
Mof_H 	H 	0.8575	-2.82265e-33	0.2785	0.186
Mof_O 	O 	0.806	0	0.08	-1.87
Mof_O 	O 	0.82916	0.5	0.59384	1.756
Mof_C 	C 	0.8142	0.5	0.7669	-0.139
Mof_H 	H 	0.8575	0.5	0.7785	0.242
Mof_O 	O 	0.806	0.5	0.58	-1.922
Mof_O 	O 	0.32916	-5.6453e-33	0.59384	0.833
Mof_C 	C 	0.3142	-5.6453e-33	0.7669	-0.094
Mof_H 	H 	0.3575	0	0.7785	0.15
Mof_O 	O 	0.306	0	0.58	-1.207
Mof_O 	O 	0.32916	0.5	0.09384	1.002
Mof_C 	C 	0.3142	0.5	0.2669	-0.126
Mof_H 	H 	0.3575	0.5	0.2785	0.182
Mof_O 	O 	0.306	0.5	0.08	-1.307
Mof_O 	O 	0.82916	0	0.90616	1.055
Mof_C 	C 	0.8142	0	0.7331	-0.29
Mof_H 	H 	0.8575	-1.12906e-32	0.7215	0.27
Mof_O 	O 	0.806	0	0.92	-1.217
Mof_O 	O 	0.82916	0.5	0.40616	1.432
Mof_C 	C 	0.8142	0.5	0.2331	-0.219
Mof_H 	H 	0.8575	0.5	0.2215	0.255
Mof_O 	O 	0.806	0.5	0.42	-1.612
Mof_O 	O 	0.32916	0	0.40616	0.654
Mof_C 	C 	0.3142	2.82265e-33	0.2331	-0.176
Mof_H 	H 	0.3575	0	0.2215	0.156
Mof_O 	O 	0.306	0	0.42	-1.038
Mof_O 	O 	0.32916	0.5	0.90616	0.649
Mof_C 	C 	0.3142	0.5	0.7331	-0.235
Mof_H 	H 	0.3575	0.5	0.7215	0.263
Mof_O 	O 	0.306	0.5	0.92	-0.787
Mof_O 	O 	0.17084	0	0.09384	0.572
Mof_C 	C 	0.1858	0	0.2669	-0.088
Mof_H 	H 	0.1425	-2.82265e-33	0.2785	0.116
Mof_O 	O 	0.194	0	0.08	-1.02
Mof_O 	O 	0.17084	0.5	0.59384	0.684
Mof_C 	C 	0.1858	0.5	0.7669	-0.049
Mof_H 	H 	0.1425	0.5	0.7785	0.181
Mof_O 	O 	0.194	0.5	0.58	-0.974
Mof_O 	O 	0.67084	-5.6453e-33	0.59384	0.717
Mof_C 	C 	0.6858	-5.6453e-33	0.7669	-0.015
Mof_H 	H 	0.6425	0	0.7785	0.132
Mof_O 	O 	0.694	0	0.58	-1.093
Mof_O 	O 	0.67084	0.5	0.09384	0.988
Mof_C 	C 	0.6858	0.5	0.2669	-0.046
Mof_H 	H 	0.6425	0.5	0.2785	0.162
Mof_O 	O 	0.694	0.5	0.08	-1.29
Mof_O 	O 	-2.53644e-33	0.09384	0.82916	1.549
Mof_C 	C 	-2.59253e-33	0.2669	0.8142	-0.18
Mof_H 	H 	3.21511e-33	0.2785	0.8575	0.186
Mof_O 	O 	8.66731e-33	0.08	0.806	-1.87
Mof_O 	O 	-4.41114e-33	0.59384	0.32916	0.833
Mof_C 	C 	-4.46723e-33	0.7669	0.3142	-0.094
Mof_H 	H 	1.34041e-33	0.7785	0.3575	0.15
Mof_O 	O 	1.52606e-32	0.58	0.306	-1.207
Mof_O 	O 	0.5	0.09384	0.32916	1.002
Mof_C 	C 	0.5	0.2669	0.3142	-0.126
Mof_H 	H 	0.5	0.2785	0.3575	0.182
Mof_O 	O 	0.5	0.08	0.306	-1.307
Mof_O 	O 	0.5	0.59384	0.82916	1.756
Mof_C 	C 	0.5	0.7669	0.8142	-0.139
Mof_H 	H 	0.5	0.7785	0.8575	0.242
Mof_O 	O 	0.5	0.58	0.806	-1.922
Mof_O 	O 	-2.1821e-33	0.90616	0.17084	0.091
Mof_C 	C 	-7.14685e-34	0.7331	0.1858	-0.201
Mof_H 	H 	-8.77034e-34	0.7215	0.1425	0.204
Mof_O 	O 	2.13871e-33	0.92	0.194	-0.374
Mof_O 	O 	-3.13005e-33	0.40616	0.67084	0.54
Mof_C 	C 	-8.71925e-33	0.2331	0.6858	-0.093
Mof_H 	H 	8.05428e-33	0.2215	0.6425	0.138
Mof_O 	O 	2.60208e-33	0.42	0.694	-0.925
Mof_O 	O 	0.5	0.90616	0.67084	0.381
Mof_C 	C 	0.5	0.7331	0.6858	-0.156
Mof_H 	H 	0.5	0.7215	0.6425	0.251
Mof_O 	O 	0.5	0.92	0.694	-0.529
Mof_O 	O 	0.5	0.40616	0.17084	0.602
Mof_C 	C 	0.5	0.2331	0.1858	-0.128
Mof_H 	H 	0.5	0.2215	0.1425	0.183
Mof_O 	O 	0.5	0.42	0.194	-0.899
Mof_O 	O 	6.40547e-34	0.09384	0.17084	0.572
Mof_C 	C 	-3.53733e-33	0.2669	0.1858	-0.088
Mof_H 	H 	-8.77034e-34	0.2785	0.1425	0.116
Mof_O 	O 	-2.09526e-33	0.08	0.194	-1.02
Mof_O 	O 	2.51525e-33	0.59384	0.67084	0.717
Mof_C 	C 	2.57134e-33	0.7669	0.6858	-0.015
Mof_H 	H 	-8.8816e-33	0.7785	0.6425	0.132
Mof_O 	O 	2.60208e-33	0.58	0.694	-1.093
Mof_O 	O 	0.5	0.09384	0.67084	0.988
Mof_C 	C 	0.5	0.2669	0.6858	-0.046
Mof_H 	H 	0.5	0.2785	0.6425	0.162
Mof_O 	O 	0.5	0.08	0.694	-1.29
Mof_O 	O 	0.5	0.59384	0.17084	0.684
Mof_C 	C 	0.5	0.7669	0.1858	-0.049
Mof_H 	H 	0.5	0.7785	0.1425	0.181
Mof_O 	O 	0.5	0.58	0.194	-0.974
Mof_O 	O 	-2.53644e-33	0.90616	0.82916	1.055
Mof_C 	C 	-2.51737e-32	0.7331	0.8142	-0.29
Mof_H 	H 	3.21511e-33	0.7215	0.8575	0.27
Mof_O 	O 	-2.62328e-33	0.92	0.806	-1.217
Mof_O 	O 	4.0568e-33	0.40616	0.32916	0.654
Mof_C 	C 	1.17806e-33	0.2331	0.3142	-0.176
Mof_H 	H 	-4.30488e-33	0.2215	0.3575	0.156
Mof_O 	O 	-1.67533e-33	0.42	0.306	-1.038
Mof_O 	O 	0.5	0.90616	0.32916	0.649
Mof_C 	C 	0.5	0.7331	0.3142	-0.235
Mof_H 	H 	0.5	0.7215	0.3575	0.263
Mof_O 	O 	0.5	0.92	0.306	-0.787
Mof_O 	O 	0.5	0.40616	0.82916	1.432
Mof_C 	C 	0.5	0.2331	0.8142	-0.219
Mof_H 	H 	0.5	0.2215	0.8575	0.255
Mof_O 	O 	0.5	0.42	0.806	-1.612
Mof_C 	C 	0.15157	0.15157	-0	-0.42
Mof_C 	C 	0.20279	0.20279	-0	0.244
Mof_C 	C 	0.15157	0.65157	0.5	-0.554
Mof_C 	C 	0.20279	0.70279	0.5	0.311
Mof_C 	C 	0.65157	0.15157	0.5	-0.554
Mof_C 	C 	0.70279	0.20279	0.5	0.311
Mof_C 	C 	0.65157	0.65157	-0	-0.539
Mof_C 	C 	0.70279	0.70279	-0	0.232
Mof_C 	C 	0.84843	0.84843	-0	-0.83
Mof_C 	C 	0.79721	0.79721	-0	0.514
Mof_C 	C 	0.84843	0.34843	0.5	-0.752
Mof_C 	C 	0.79721	0.29721	0.5	0.485
Mof_C 	C 	0.34843	0.84843	0.5	-0.752
Mof_C 	C 	0.29721	0.79721	0.5	0.485
Mof_C 	C 	0.34843	0.34843	-0	-0.531
Mof_C 	C 	0.29721	0.29721	-0	0.317
Mof_C 	C 	0.84843	0.15157	-0	-0.628
Mof_C 	C 	0.79721	0.20279	-0	0.382
Mof_C 	C 	0.84843	0.65157	0.5	-0.755
Mof_C 	C 	0.79721	0.70279	0.5	0.442
Mof_C 	C 	0.34843	0.15157	0.5	-0.548
Mof_C 	C 	0.29721	0.20279	0.5	0.352
Mof_C 	C 	0.34843	0.65157	-0	-0.535
Mof_C 	C 	0.29721	0.70279	-0	0.274
Mof_C 	C 	0.15157	0.84843	-0	-0.628
Mof_C 	C 	0.20279	0.79721	-0	0.382
Mof_C 	C 	0.15157	0.34843	0.5	-0.548
Mof_C 	C 	0.20279	0.29721	0.5	0.352
Mof_C 	C 	0.65157	0.84843	0.5	-0.755
Mof_C 	C 	0.70279	0.79721	0.5	0.442
Mof_C 	C 	0.65157	0.34843	-0	-0.535
Mof_C 	C 	0.70279	0.29721	-0	0.274
Mof_C 	C 	5.68296e-34	0.15157	0.15157	-0.42
Mof_C 	C 	-2.06231e-33	0.20279	0.20279	0.244
Mof_C 	C 	2.443e-33	0.65157	0.65157	-0.539
Mof_C 	C 	-1.43008e-32	0.70279	0.70279	0.232
Mof_C 	C 	0.5	0.15157	0.65157	-0.554
Mof_C 	C 	0.5	0.20279	0.70279	0.311
Mof_C 	C 	0.5	0.65157	0.15157	-0.554
Mof_C 	C 	0.5	0.70279	0.20279	0.311
Mof_C 	C 	3.1811e-33	0.84843	0.84843	-0.83
Mof_C 	C 	-8.30153e-33	0.79721	0.79721	0.514
Mof_C 	C 	6.9517e-33	0.34843	0.34843	-0.531
Mof_C 	C 	-4.53094e-33	0.29721	0.29721	0.317
Mof_C 	C 	0.5	0.84843	0.34843	-0.752
Mof_C 	C 	0.5	0.79721	0.29721	0.485
Mof_C 	C 	0.5	0.34843	0.84843	-0.752
Mof_C 	C 	0.5	0.29721	0.79721	0.485
Mof_C 	C 	-6.48832e-33	0.84843	0.15157	-0.628
Mof_C 	C 	-4.88495e-33	0.79721	0.20279	0.382
Mof_C 	C 	-8.84759e-33	0.34843	0.65157	-0.535
Mof_C 	C 	-1.99461e-32	0.29721	0.70279	0.274
Mof_C 	C 	0.5	0.84843	0.65157	-0.755
Mof_C 	C 	0.5	0.79721	0.70279	0.442
Mof_C 	C 	0.5	0.34843	0.15157	-0.548
Mof_C 	C 	0.5	0.29721	0.20279	0.352
Mof_C 	C 	-8.10949e-33	0.15157	0.84843	-0.628
Mof_C 	C 	-2.65624e-33	0.20279	0.79721	0.382
Mof_C 	C 	-4.33889e-33	0.65157	0.34843	-0.535
Mof_C 	C 	-1.86442e-32	0.70279	0.29721	0.274
Mof_C 	C 	0.5	0.15157	0.34843	-0.548
Mof_C 	C 	0.5	0.20279	0.29721	0.352
Mof_C 	C 	0.5	0.65157	0.84843	-0.755
Mof_C 	C 	0.5	0.70279	0.79721	0.442
Mof_C 	C 	0.15157	0	0.15157	-0.42
Mof_C 	C 	0.20279	-1.41132e-33	0.20279	0.244
Mof_C 	C 	0.15157	0.5	0.65157	-0.554
Mof_C 	C 	0.20279	0.5	0.70279	0.311
Mof_C 	C 	0.65157	-5.6453e-33	0.65157	-0.539
Mof_C 	C 	0.70279	0	0.70279	0.232
Mof_C 	C 	0.65157	0.5	0.15157	-0.554
Mof_C 	C 	0.70279	0.5	0.20279	0.311
Mof_C 	C 	0.84843	-1.12906e-32	0.84843	-0.83
Mof_C 	C 	0.79721	-1.12906e-32	0.79721	0.514
Mof_C 	C 	0.84843	0.5	0.34843	-0.752
Mof_C 	C 	0.79721	0.5	0.29721	0.485
Mof_C 	C 	0.34843	0	0.34843	-0.531
Mof_C 	C 	0.29721	-2.82265e-33	0.29721	0.317
Mof_C 	C 	0.34843	0.5	0.84843	-0.752
Mof_C 	C 	0.29721	0.5	0.79721	0.485
Mof_C 	C 	0.15157	-1.12906e-32	0.84843	-0.628
Mof_C 	C 	0.20279	-1.12906e-32	0.79721	0.382
Mof_C 	C 	0.15157	0.5	0.34843	-0.548
Mof_C 	C 	0.20279	0.5	0.29721	0.352
Mof_C 	C 	0.65157	0	0.34843	-0.535
Mof_C 	C 	0.70279	-2.82265e-33	0.29721	0.274
Mof_C 	C 	0.65157	0.5	0.84843	-0.755
Mof_C 	C 	0.70279	0.5	0.79721	0.442
Mof_C 	C 	0.84843	0	0.15157	-0.628
Mof_C 	C 	0.79721	-1.41132e-33	0.20279	0.382
Mof_C 	C 	0.84843	0.5	0.65157	-0.755
Mof_C 	C 	0.79721	0.5	0.70279	0.442
Mof_C 	C 	0.34843	-5.6453e-33	0.65157	-0.535
Mof_C 	C 	0.29721	0	0.70279	0.274
Mof_C 	C 	0.34843	0.5	0.15157	-0.548
Mof_C 	C 	0.29721	0.5	0.20279	0.352
Mof_O 	O 	0.0676	0.0676	0.0676	11.702
Mof_O 	O 	0.0504	0.0504	0.0504	-11.043
Mof_H 	H 	0.0945	0.0945	0.0945	-3.656
Mof_O 	O 	0.0676	0.5676	0.5676	5.367
Mof_O 	O 	0.0504	0.5504	0.5504	-5.594
Mof_H 	H 	0.0945	0.5945	0.5945	-1.732
Mof_O 	O 	0.5676	0.0676	0.5676	5.367
Mof_O 	O 	0.5504	0.0504	0.5504	-5.594
Mof_H 	H 	0.5945	0.0945	0.5945	-1.732
Mof_O 	O 	0.5676	0.5676	0.0676	5.367
Mof_O 	O 	0.5504	0.5504	0.0504	-5.594
Mof_H 	H 	0.5945	0.5945	0.0945	-1.732
Mof_O 	O 	0.9324	0.9324	0.0676	-1.251
Mof_O 	O 	0.9496	0.9496	0.0504	0.177
Mof_H 	H 	0.9055	0.9055	0.0945	0.384
Mof_O 	O 	0.9324	0.4324	0.5676	-1.345
Mof_O 	O 	0.9496	0.4496	0.5504	0.221
Mof_H 	H 	0.9055	0.4055	0.5945	0.36
Mof_O 	O 	0.4324	0.9324	0.5676	-1.345
Mof_O 	O 	0.4496	0.9496	0.5504	0.221
Mof_H 	H 	0.4055	0.9055	0.5945	0.36
Mof_O 	O 	0.4324	0.4324	0.0676	5.486
Mof_O 	O 	0.4496	0.4496	0.0504	-5.691
Mof_H 	H 	0.4055	0.4055	0.0945	-1.768
Mof_O 	O 	0.9324	0.0676	0.9324	-1.251
Mof_O 	O 	0.9496	0.0504	0.9496	0.177
Mof_H 	H 	0.9055	0.0945	0.9055	0.384
Mof_O 	O 	0.9324	0.5676	0.4324	-1.345
Mof_O 	O 	0.9496	0.5504	0.4496	0.221
Mof_H 	H 	0.9055	0.5945	0.4055	0.36
Mof_O 	O 	0.4324	0.0676	0.4324	5.486
Mof_O 	O 	0.4496	0.0504	0.4496	-5.691
Mof_H 	H 	0.4055	0.0945	0.4055	-1.768
Mof_O 	O 	0.4324	0.5676	0.9324	-1.345
Mof_O 	O 	0.4496	0.5504	0.9496	0.221
Mof_H 	H 	0.4055	0.5945	0.9055	0.36
Mof_O 	O 	0.0676	0.9324	0.9324	-1.251
Mof_O 	O 	0.0504	0.9496	0.9496	0.177
Mof_H 	H 	0.0945	0.9055	0.9055	0.384
Mof_O 	O 	0.0676	0.4324	0.4324	5.486
Mof_O 	O 	0.0504	0.4496	0.4496	-5.691
Mof_H 	H 	0.0945	0.4055	0.4055	-1.768
Mof_O 	O 	0.5676	0.9324	0.4324	-1.345
Mof_O 	O 	0.5504	0.9496	0.4496	0.221
Mof_H 	H 	0.5945	0.9055	0.4055	0.36
Mof_O 	O 	0.5676	0.4324	0.9324	-1.345
Mof_O 	O 	0.5504	0.4496	0.9496	0.221
Mof_H 	H 	0.5945	0.4055	0.9055	0.36
Mof_O 	O 	0.0676	0.0676	0.9324	5.288
Mof_O 	O 	0.0504	0.0504	0.9496	-5.485
Mof_H 	H 	0.0945	0.0945	0.9055	-1.654
Mof_O 	O 	0.0676	0.5676	0.4324	5.427
Mof_O 	O 	0.0504	0.5504	0.4496	-5.643
Mof_H 	H 	0.0945	0.5945	0.4055	-1.75
Mof_O 	O 	0.5676	0.0676	0.4324	5.427
Mof_O 	O 	0.5504	0.0504	0.4496	-5.643
Mof_H 	H 	0.5945	0.0945	0.4055	-1.75
Mof_O 	O 	0.5676	0.5676	0.9324	-1.412
Mof_O 	O 	0.5504	0.5504	0.9496	0.275
Mof_H 	H 	0.5945	0.5945	0.9055	0.38
Mof_O 	O 	0.9324	0.9324	0.9324	-7.916
Mof_O 	O 	0.9496	0.9496	0.9496	5.942
Mof_H 	H 	0.9055	0.9055	0.9055	2.455
Mof_O 	O 	0.9324	0.4324	0.4324	-1.278
Mof_O 	O 	0.9496	0.4496	0.4496	0.166
Mof_H 	H 	0.9055	0.4055	0.4055	0.34
Mof_O 	O 	0.4324	0.9324	0.4324	-1.278
Mof_O 	O 	0.4496	0.9496	0.4496	0.166
Mof_H 	H 	0.4055	0.9055	0.4055	0.34
Mof_O 	O 	0.4324	0.4324	0.9324	-1.278
Mof_O 	O 	0.4496	0.4496	0.9496	0.166
Mof_H 	H 	0.4055	0.4055	0.9055	0.34
Mof_O 	O 	0.0676	0.9324	0.0676	5.288
Mof_O 	O 	0.0504	0.9496	0.0504	-5.485
Mof_H 	H 	0.0945	0.9055	0.0945	-1.654
Mof_O 	O 	0.0676	0.4324	0.5676	5.427
Mof_O 	O 	0.0504	0.4496	0.5504	-5.643
Mof_H 	H 	0.0945	0.4055	0.5945	-1.75
Mof_O 	O 	0.5676	0.9324	0.5676	-1.412
Mof_O 	O 	0.5504	0.9496	0.5504	0.275
Mof_H 	H 	0.5945	0.9055	0.5945	0.38
Mof_O 	O 	0.5676	0.4324	0.0676	5.427
Mof_O 	O 	0.5504	0.4496	0.0504	-5.643
Mof_H 	H 	0.5945	0.4055	0.0945	-1.75
Mof_O 	O 	0.9324	0.0676	0.0676	5.288
Mof_O 	O 	0.9496	0.0504	0.0504	-5.485
Mof_H 	H 	0.9055	0.0945	0.0945	-1.654
Mof_O 	O 	0.9324	0.5676	0.5676	-1.412
Mof_O 	O 	0.9496	0.5504	0.5504	0.275
Mof_H 	H 	0.9055	0.5945	0.5945	0.38
Mof_O 	O 	0.4324	0.0676	0.5676	5.427
Mof_O 	O 	0.4496	0.0504	0.5504	-5.643
Mof_H 	H 	0.4055	0.0945	0.5945	-1.75
Mof_O 	O 	0.4324	0.5676	0.0676	5.427
Mof_O 	O 	0.4496	0.5504	0.0504	-5.643
Mof_H 	H 	0.4055	0.5945	0.0945	-1.75
_end
