data_functionalizedCrystal
_audit_creation_method	'EQeq! by Chris Wilmer'
_symmetry_space_group_name_H-M	'P1'
_symmetry_Int_Tables_number	1
_symmetry_cell_setting	triclinic
loop_
_symmetry_equiv_pos_as_xyz
  x,y,z
_cell_length_a	13.442
_cell_length_b	13.5906
_cell_length_c	14.8129
_cell_angle_alpha	107.215
_cell_angle_beta	106.806
_cell_angle_gamma	111.025
loop_
_atom_site_label
_atom_site_type_symbol
_atom_site_fract_x
_atom_site_fract_y
_atom_site_fract_z
_atom_site_charge
Mof_Zn	Zn	0.03268	0.25972	0.89756	1.235
Mof_Zn	Zn	0.63512	0.36216	0.10244	1.204
Mof_Zn	Zn	-0	0.5	-0	1.186
Mof_Zn	Zn	0.5	0.5	-0	1.194
Mof_Zn	Zn	0.36488	0.63784	0.89756	1.241
Mof_Zn	Zn	0.96732	0.74028	0.10244	1.209
Mof_H 	H 	0.4315	0.1108	0.609	0.059
Mof_H 	H 	0.5574	0.2214	0.7966	0.097
Mof_H 	H 	0.9065	0.7878	0.8212	0.088
Mof_H 	H 	0.7381	0.3538	0.9382	0.018
Mof_H 	H 	0.2619	0.6462	0.0618	-0.063
Mof_H 	H 	0.4011	0.0349	0.2886	0.131
Mof_H 	H 	0.2715	0.5099	0.518	0.107
Mof_H 	H 	0.2192	0.9008	0.1492	-0.053
Mof_H 	H 	0.942	0.9949	0.373	0.048
Mof_H 	H 	0.43	0.2484	0.1492	-0.045
Mof_H 	H 	0.6038	0.6648	0.393	0.112
Mof_H 	H 	0.4147	0.0334	0.8212	0.111
Mof_H 	H 	0.3875	0.2537	0.2886	0.119
Mof_H 	H 	0.2535	0.9919	0.482	0.115
Mof_H 	H 	0.7102	0.5529	0.1194	0.318
Mof_H 	H 	0.7465	0.0081	0.518	0.102
Mof_H 	H 	0.7392	0.5752	0.7966	0.102
Mof_H 	H 	0.7608	0.4818	0.3382	-0.017
Mof_H 	H 	0.2898	0.4471	0.8806	0.3
Mof_H 	H 	0.1125	0.5999	0.2458	-0.017
Mof_H 	H 	0.3667	0.3541	0.7542	-0.001
Mof_H 	H 	0.0774	0.8564	0.3382	-0.033
Mof_H 	H 	0.2892	0.7282	0.393	0.113
Mof_H 	H 	0.5532	0.6722	0.523	0.083
Mof_H 	H 	0.892	0.1367	0.443	0.101
Mof_H 	H 	0.6125	0.7463	0.7114	0.123
Mof_H 	H 	0.3225	0.5018	0.391	0.063
Mof_H 	H 	0.108	0.8633	0.557	0.095
Mof_H 	H 	0.7285	0.4901	0.482	0.113
Mof_H 	H 	0.4468	0.3278	0.477	0.085
Mof_H 	H 	0.5989	0.9651	0.7114	0.108
Mof_H 	H 	0.57	0.7516	0.8508	0.009
Mof_H 	H 	0.0935	0.2122	0.1788	0.108
Mof_H 	H 	0.5685	0.8892	0.391	0.069
Mof_H 	H 	0.7808	0.0992	0.8508	0.019
Mof_H 	H 	0.949	0.6937	0.557	0.075
Mof_H 	H 	0.069	0.6219	0.627	0.061
Mof_H 	H 	0.5853	0.9666	0.1788	0.086
Mof_H 	H 	0.2999	0.4156	0.0618	-0.062
Mof_H 	H 	0.9226	0.1436	0.6618	-0.002
Mof_H 	H 	0.6333	0.6459	0.2458	-0.006
Mof_H 	H 	0.931	0.3781	0.373	0.01
Mof_H 	H 	0.4698	0.8508	0.523	0.076
Mof_H 	H 	0.8875	0.4001	0.7542	0.011
Mof_H 	H 	0.051	0.3063	0.443	0.122
Mof_H 	H 	0.7108	0.2718	0.607	0.107
Mof_H 	H 	0.6775	0.4982	0.609	0.064
Mof_H 	H 	0.3962	0.3352	0.607	0.108
Mof_H 	H 	0.5302	0.1492	0.477	0.091
Mof_H 	H 	0.2608	0.4248	0.2034	0.093
Mof_H 	H 	0.7001	0.5844	0.9382	0.017
Mof_H 	H 	0.058	0.0051	0.627	0.024
Mof_H 	H 	0.2392	0.5182	0.6618	-0.02
Mof_H 	H 	0.0908	0.4335	0.8806	0.299
Mof_H 	H 	0.9092	0.5665	0.1194	0.319
Mof_H 	H 	0.4426	0.7786	0.2034	0.097
Mof_C 	C 	0.34411	0.02945	0.78234	-0.107
Mof_C 	C 	0.03518	0.30228	0.3762	-0.229
Mof_C 	C 	0.66557	0.44097	0.41494	-0.192
Mof_C 	C 	0.35068	0.0294	0.40328	0.188
Mof_C 	C 	0.99318	0.2935	0.17684	0.03
Mof_C 	C 	0.24937	0.97397	0.41494	-0.214
Mof_C 	C 	0.33443	0.55903	0.58506	-0.186
Mof_C 	C 	0.16479	0.19207	0.80616	0.337
Mof_C 	C 	0.26554	0.93704	0.68358	0.123
Mof_C 	C 	0.01647	0.69917	0.9245	0.327
Mof_C 	C 	0.83521	0.80793	0.19384	0.342
Mof_C 	C 	0.91804	0.74654	0.68358	0.08
Mof_C 	C 	0.63828	0.53408	0.87068	0.106
Mof_C 	C 	0.06177	0.24711	0.21766	-0.178
Mof_C 	C 	0.85863	0.38591	0.19384	0.358
Mof_C 	C 	0.50629	0.85449	0.40638	-0.093
Mof_C 	C 	0.12994	0.01124	0.66594	0.049
Mof_C 	C 	0.7324	0.3366	0.87068	0.102
Mof_C 	C 	0.46452	0.30112	0.30094	-0.211
Mof_C 	C 	0.68366	0.88334	0.17684	-0.034
Mof_C 	C 	0.85646	0.10686	0.67192	0.108
Mof_C 	C 	0.20685	0.10608	0.76576	-0.072
Mof_C 	C 	0.08196	0.25346	0.31642	0.162
Mof_C 	C 	0.77355	0.08155	0.78276	0.112
Mof_C 	C 	0.55727	0.60144	0.23738	0.093
Mof_C 	C 	0.94109	0.34032	0.23424	-0.111
Mof_C 	C 	0.611	0.2297	0.68358	0.117
Mof_C 	C 	0.389	0.7703	0.31642	0.142
Mof_C 	C 	0.68454	0.43494	0.32808	0.125
Mof_C 	C 	0.66358	0.00018	0.69906	-0.159
Mof_C 	C 	0.52442	0.37834	0.4926	-0.112
Mof_C 	C 	0.93823	0.75289	0.78234	-0.028
Mof_C 	C 	0.53548	0.69888	0.69906	-0.195
Mof_C 	C 	0.47558	0.62166	0.5074	-0.104
Mof_C 	C 	0.22645	0.91845	0.21724	0.148
Mof_C 	C 	0.59991	0.44811	0.59362	-0.071
Mof_C 	C 	0.45955	0.38702	0.67336	-0.172
Mof_C 	C 	0.79315	0.89392	0.23424	-0.062
Mof_C 	C 	0.49079	0.29879	0.21724	0.136
Mof_C 	C 	0.4474	0.62612	0.59672	0.156
Mof_C 	C 	0.40009	0.55189	0.40638	-0.079
Mof_C 	C 	0.87006	0.98876	0.33406	0.027
Mof_C 	C 	0.15898	0.92608	0.6238	-0.147
Mof_C 	C 	0.14137	0.61409	0.80616	0.322
Mof_C 	C 	0.84102	0.07392	0.3762	-0.119
Mof_C 	C 	0.98353	0.30083	0.0755	0.382
Mof_C 	C 	0.00682	0.7065	0.82316	-0.066
Mof_C 	C 	0.75063	0.02603	0.58506	-0.158
Mof_C 	C 	0.28619	0.71366	0.32664	-0.189
Mof_C 	C 	0.31546	0.56506	0.67192	0.121
Mof_C 	C 	0.36172	0.46592	0.12932	0.109
Mof_C 	C 	0.62319	0.25699	0.78572	-0.165
Mof_C 	C 	0.18011	0.63594	0.23738	0.096
Mof_C 	C 	0.71381	0.28634	0.67336	-0.164
Mof_C 	C 	0.64932	0.9706	0.59672	0.124
Mof_C 	C 	0.40803	0.22533	0.9245	0.348
Mof_C 	C 	0.46818	0.11426	0.4926	-0.127
Mof_C 	C 	0.42742	0.54612	0.31642	0.133
Mof_C 	C 	0.53182	0.88574	0.5074	-0.085
Mof_C 	C 	0.05891	0.65968	0.76576	-0.024
Mof_C 	C 	0.81989	0.36406	0.76262	0.086
Mof_C 	C 	0.14354	0.89314	0.32808	0.134
Mof_C 	C 	0.59197	0.77467	0.0755	0.364
Mof_C 	C 	0.964	0.3453	0.33406	0.133
Mof_C 	C 	0.66253	0.52873	0.78572	-0.171
Mof_C 	C 	0.73446	0.06296	0.31642	0.118
Mof_C 	C 	0.54045	0.61298	0.32664	-0.181
Mof_C 	C 	0.37681	0.74301	0.21428	-0.199
Mof_C 	C 	0.5526	0.37388	0.40328	0.165
Mof_C 	C 	0.44273	0.39856	0.76262	0.088
Mof_C 	C 	0.33642	0.99982	0.30094	-0.238
Mof_C 	C 	0.2676	0.6634	0.12932	0.113
Mof_C 	C 	0.50921	0.70121	0.78276	0.128
Mof_C 	C 	0.31634	0.11666	0.82316	-0.002
Mof_C 	C 	0.57258	0.45388	0.68358	0.125
Mof_C 	C 	0.65589	0.97055	0.21766	-0.102
Mof_C 	C 	0.96482	0.69772	0.6238	-0.038
Mof_C 	C 	0.49371	0.14551	0.59362	-0.059
Mof_C 	C 	0.33747	0.47127	0.21428	-0.192
Mof_C 	C 	0.036	0.6547	0.66594	-0.053
Mof_N 	N 	0.47021	0.52986	0.13954	-0.262
Mof_N 	N 	0.84254	0.79314	0.63988	-0.006
Mof_N 	N 	0.29734	0.84674	0.63988	-0.014
Mof_N 	N 	0.83067	0.39032	0.86046	-0.216
Mof_N 	N 	0.59867	0.3649	0.22884	-0.285
Mof_N 	N 	0.16933	0.60968	0.13954	-0.267
Mof_N 	N 	0.15746	0.20686	0.36012	-0.02
Mof_N 	N 	0.13017	0.86394	0.22884	-0.297
Mof_N 	N 	0.52979	0.47014	0.86046	-0.224
Mof_N 	N 	0.86983	0.13606	0.77116	-0.252
Mof_N 	N 	0.40133	0.6351	0.77116	-0.267
Mof_N 	N 	0.70266	0.15326	0.36012	-0.012
Mof_O 	O 	0.4962	0.21979	0.9789	-0.392
Mof_O 	O 	0.94672	0.36648	0.05454	-0.473
Mof_O 	O 	0.19713	0.16296	0.30652	-0.144
Mof_O 	O 	0.39218	0.31194	0.94546	-0.388
Mof_O 	O 	0.60782	0.68806	0.05454	-0.481
Mof_O 	O 	0.0173	0.24089	0.0211	-0.538
Mof_O 	O 	0.80287	0.83704	0.69348	-0.125
Mof_O 	O 	0.35191	0.50887	0.9267	-0.72
Mof_O 	O 	0.12911	0.1822	0.87514	-0.405
Mof_O 	O 	0.77076	0.23296	0.44712	-0.13
Mof_O 	O 	0.64809	0.49113	0.0733	-0.83
Mof_O 	O 	0.82364	0.78584	0.55288	-0.13
Mof_O 	O 	0.24603	0.69294	0.87514	-0.395
Mof_O 	O 	0.9827	0.75911	0.9789	-0.365
Mof_O 	O 	0.5038	0.78021	0.0211	-0.513
Mof_O 	O 	0.39061	0.85644	0.69348	-0.128
Mof_O 	O 	0.15903	0.25773	0.76532	-0.335
Mof_O 	O 	0.10629	0.50759	0.76532	-0.332
Mof_O 	O 	0.17636	0.21416	0.44712	-0.139
Mof_O 	O 	0.92521	0.58217	0.0733	-0.818
Mof_O 	O 	0.75397	0.30706	0.12486	-0.466
Mof_O 	O 	0.89371	0.49241	0.23468	-0.335
Mof_O 	O 	0.22924	0.76704	0.55288	-0.139
Mof_O 	O 	0.60939	0.14356	0.30652	-0.14
Mof_O 	O 	0.87089	0.8178	0.12486	-0.457
Mof_O 	O 	0.05328	0.63352	0.94546	-0.393
Mof_O 	O 	0.84097	0.74227	0.23468	-0.332
Mof_O 	O 	0.07479	0.41783	0.9267	-0.73
_end
