data_functionalizedCrystal
_audit_creation_method	'EQeq! by Chris Wilmer'
_symmetry_space_group_name_H-M	'P1'
_symmetry_Int_Tables_number	1
_symmetry_cell_setting	triclinic
loop_
_symmetry_equiv_pos_as_xyz
  x,y,z
_cell_length_a	36.24
_cell_length_b	36.24
_cell_length_c	36.24
_cell_angle_alpha	90
_cell_angle_beta	90
_cell_angle_gamma	90
loop_
_atom_site_label
_atom_site_type_symbol
_atom_site_fract_x
_atom_site_fract_y
_atom_site_fract_z
_atom_site_charge
Mof_C 	C 	0.21446	0.95047	0.14741	0.405
Mof_C 	C 	0.23505	0.92005	0.12678	-0.182
Mof_C 	C 	0.2692	0.90938	0.1374	0.157
Mof_H 	H 	0.2803	0.9212	0.158	-0.02
Mof_O 	O 	0.22986	0.9618	0.17591	-0.439
Mof_O 	O 	0.18576	0.96223	0.13268	-0.421
Mof_H 	H 	0.241	0.985	0.266	0.299
Mof_C 	C 	0.21446	0.45047	0.64741	0.406
Mof_C 	C 	0.23505	0.42005	0.62678	-0.182
Mof_C 	C 	0.2692	0.40938	0.6374	0.157
Mof_H 	H 	0.2803	0.4212	0.658	-0.02
Mof_O 	O 	0.22986	0.4618	0.67591	-0.442
Mof_O 	O 	0.18576	0.46223	0.63268	-0.425
Mof_H 	H 	0.241	0.485	0.766	0.287
Mof_C 	C 	0.71446	0.95047	0.64741	0.405
Mof_C 	C 	0.73505	0.92005	0.62678	-0.181
Mof_C 	C 	0.7692	0.90938	0.6374	0.157
Mof_H 	H 	0.7803	0.9212	0.658	-0.02
Mof_O 	O 	0.72986	0.9618	0.67591	-0.438
Mof_O 	O 	0.68576	0.96223	0.63268	-0.419
Mof_H 	H 	0.741	0.985	0.766	0.3
Mof_C 	C 	0.71446	0.45047	0.14741	0.407
Mof_C 	C 	0.73505	0.42005	0.12678	-0.182
Mof_C 	C 	0.7692	0.40938	0.1374	0.158
Mof_H 	H 	0.7803	0.4212	0.158	-0.019
Mof_O 	O 	0.72986	0.4618	0.17591	-0.442
Mof_O 	O 	0.68576	0.46223	0.13268	-0.425
Mof_H 	H 	0.741	0.485	0.266	0.288
Mof_C 	C 	0.78554	0.04953	0.14741	0.407
Mof_C 	C 	0.76495	0.07995	0.12678	-0.183
Mof_C 	C 	0.7308	0.09062	0.1374	0.159
Mof_H 	H 	0.7197	0.0788	0.158	-0.021
Mof_O 	O 	0.77014	0.0382	0.17591	-0.444
Mof_O 	O 	0.81424	0.03777	0.13268	-0.427
Mof_H 	H 	0.759	0.015	0.266	0.295
Mof_C 	C 	0.78554	0.54953	0.64741	0.406
Mof_C 	C 	0.76495	0.57995	0.62678	-0.181
Mof_C 	C 	0.7308	0.59062	0.6374	0.158
Mof_H 	H 	0.7197	0.5788	0.658	-0.019
Mof_O 	O 	0.77014	0.5382	0.67591	-0.441
Mof_O 	O 	0.81424	0.53777	0.63268	-0.424
Mof_H 	H 	0.759	0.515	0.766	0.288
Mof_C 	C 	0.28554	0.04953	0.64741	0.407
Mof_C 	C 	0.26495	0.07995	0.62678	-0.183
Mof_C 	C 	0.2308	0.09062	0.6374	0.158
Mof_H 	H 	0.2197	0.0788	0.658	-0.02
Mof_O 	O 	0.27014	0.0382	0.67591	-0.444
Mof_O 	O 	0.31424	0.03777	0.63268	-0.427
Mof_H 	H 	0.259	0.015	0.766	0.295
Mof_C 	C 	0.28554	0.54953	0.14741	0.407
Mof_C 	C 	0.26495	0.57995	0.12678	-0.182
Mof_C 	C 	0.2308	0.59062	0.1374	0.158
Mof_H 	H 	0.2197	0.5788	0.158	-0.02
Mof_O 	O 	0.27014	0.5382	0.17591	-0.442
Mof_O 	O 	0.31424	0.53777	0.13268	-0.425
Mof_H 	H 	0.259	0.515	0.266	0.288
Mof_C 	C 	0.78554	0.95047	0.85259	0.406
Mof_C 	C 	0.76495	0.92005	0.87322	-0.179
Mof_C 	C 	0.7308	0.90938	0.8626	0.157
Mof_H 	H 	0.7197	0.9212	0.842	-0.019
Mof_O 	O 	0.77014	0.9618	0.82409	-0.438
Mof_O 	O 	0.81424	0.96223	0.86732	-0.418
Mof_H 	H 	0.759	0.985	0.734	0.299
Mof_C 	C 	0.78554	0.45047	0.35259	0.406
Mof_C 	C 	0.76495	0.42005	0.37322	-0.181
Mof_C 	C 	0.7308	0.40938	0.3626	0.158
Mof_H 	H 	0.7197	0.4212	0.342	-0.019
Mof_O 	O 	0.77014	0.4618	0.32409	-0.441
Mof_O 	O 	0.81424	0.46223	0.36732	-0.424
Mof_H 	H 	0.759	0.485	0.234	0.288
Mof_C 	C 	0.28554	0.95047	0.35259	0.406
Mof_C 	C 	0.26495	0.92005	0.37322	-0.18
Mof_C 	C 	0.2308	0.90938	0.3626	0.158
Mof_H 	H 	0.2197	0.9212	0.342	-0.019
Mof_O 	O 	0.27014	0.9618	0.32409	-0.438
Mof_O 	O 	0.31424	0.96223	0.36732	-0.419
Mof_H 	H 	0.259	0.985	0.234	0.299
Mof_C 	C 	0.28554	0.45047	0.85259	0.406
Mof_C 	C 	0.26495	0.42005	0.87322	-0.18
Mof_C 	C 	0.2308	0.40938	0.8626	0.158
Mof_H 	H 	0.2197	0.4212	0.842	-0.019
Mof_O 	O 	0.27014	0.4618	0.82409	-0.441
Mof_O 	O 	0.31424	0.46223	0.86732	-0.423
Mof_H 	H 	0.259	0.485	0.734	0.288
Mof_C 	C 	0.21446	0.04953	0.85259	0.407
Mof_C 	C 	0.23505	0.07995	0.87322	-0.182
Mof_C 	C 	0.2692	0.09062	0.8626	0.158
Mof_H 	H 	0.2803	0.0788	0.842	-0.02
Mof_O 	O 	0.22986	0.0382	0.82409	-0.444
Mof_O 	O 	0.18576	0.03777	0.86732	-0.426
Mof_H 	H 	0.241	0.015	0.734	0.295
Mof_C 	C 	0.21446	0.54953	0.35259	0.407
Mof_C 	C 	0.23505	0.57995	0.37322	-0.181
Mof_C 	C 	0.2692	0.59062	0.3626	0.158
Mof_H 	H 	0.2803	0.5788	0.342	-0.019
Mof_O 	O 	0.22986	0.5382	0.32409	-0.441
Mof_O 	O 	0.18576	0.53777	0.36732	-0.424
Mof_H 	H 	0.241	0.515	0.234	0.288
Mof_C 	C 	0.71446	0.04953	0.35259	0.407
Mof_C 	C 	0.73505	0.07995	0.37322	-0.183
Mof_C 	C 	0.7692	0.09062	0.3626	0.159
Mof_H 	H 	0.7803	0.0788	0.342	-0.02
Mof_O 	O 	0.72986	0.0382	0.32409	-0.444
Mof_O 	O 	0.68576	0.03777	0.36732	-0.426
Mof_H 	H 	0.741	0.015	0.234	0.295
Mof_C 	C 	0.71446	0.54953	0.85259	0.406
Mof_C 	C 	0.73505	0.57995	0.87322	-0.18
Mof_C 	C 	0.7692	0.59062	0.8626	0.158
Mof_H 	H 	0.7803	0.5788	0.842	-0.019
Mof_O 	O 	0.72986	0.5382	0.82409	-0.441
Mof_O 	O 	0.68576	0.53777	0.86732	-0.423
Mof_H 	H 	0.741	0.515	0.734	0.288
Mof_C 	C 	0.14741	0.21446	0.95047	0.406
Mof_C 	C 	0.12678	0.23505	0.92005	-0.181
Mof_C 	C 	0.1374	0.2692	0.90938	0.158
Mof_H 	H 	0.158	0.2803	0.9212	-0.019
Mof_O 	O 	0.17591	0.22986	0.9618	-0.438
Mof_O 	O 	0.13268	0.18576	0.96223	-0.42
Mof_H 	H 	0.266	0.241	0.985	0.3
Mof_C 	C 	0.14741	0.71446	0.45047	0.407
Mof_C 	C 	0.12678	0.73505	0.42005	-0.182
Mof_C 	C 	0.1374	0.7692	0.40938	0.158
Mof_H 	H 	0.158	0.7803	0.4212	-0.019
Mof_O 	O 	0.17591	0.72986	0.4618	-0.442
Mof_O 	O 	0.13268	0.68576	0.46223	-0.425
Mof_H 	H 	0.266	0.741	0.485	0.288
Mof_C 	C 	0.64741	0.21446	0.45047	0.407
Mof_C 	C 	0.62678	0.23505	0.42005	-0.181
Mof_C 	C 	0.6374	0.2692	0.40938	0.158
Mof_H 	H 	0.658	0.2803	0.4212	-0.019
Mof_O 	O 	0.67591	0.22986	0.4618	-0.441
Mof_O 	O 	0.63268	0.18576	0.46223	-0.424
Mof_H 	H 	0.766	0.241	0.485	0.288
Mof_C 	C 	0.64741	0.71446	0.95047	0.406
Mof_C 	C 	0.62678	0.73505	0.92005	-0.18
Mof_C 	C 	0.6374	0.7692	0.90938	0.158
Mof_H 	H 	0.658	0.7803	0.9212	-0.019
Mof_O 	O 	0.67591	0.72986	0.9618	-0.438
Mof_O 	O 	0.63268	0.68576	0.96223	-0.419
Mof_H 	H 	0.766	0.741	0.985	0.3
Mof_C 	C 	0.14741	0.78554	0.04953	0.407
Mof_C 	C 	0.12678	0.76495	0.07995	-0.183
Mof_C 	C 	0.1374	0.7308	0.09062	0.159
Mof_H 	H 	0.158	0.7197	0.0788	-0.021
Mof_O 	O 	0.17591	0.77014	0.0382	-0.444
Mof_O 	O 	0.13268	0.81424	0.03777	-0.427
Mof_H 	H 	0.266	0.759	0.015	0.295
Mof_C 	C 	0.14741	0.28554	0.54953	0.407
Mof_C 	C 	0.12678	0.26495	0.57995	-0.182
Mof_C 	C 	0.1374	0.2308	0.59062	0.158
Mof_H 	H 	0.158	0.2197	0.5788	-0.02
Mof_O 	O 	0.17591	0.27014	0.5382	-0.442
Mof_O 	O 	0.13268	0.31424	0.53777	-0.425
Mof_H 	H 	0.266	0.259	0.515	0.288
Mof_C 	C 	0.64741	0.78554	0.54953	0.406
Mof_C 	C 	0.62678	0.76495	0.57995	-0.181
Mof_C 	C 	0.6374	0.7308	0.59062	0.158
Mof_H 	H 	0.658	0.7197	0.5788	-0.019
Mof_O 	O 	0.67591	0.77014	0.5382	-0.441
Mof_O 	O 	0.63268	0.81424	0.53777	-0.424
Mof_H 	H 	0.766	0.759	0.515	0.288
Mof_C 	C 	0.64741	0.28554	0.04953	0.407
Mof_C 	C 	0.62678	0.26495	0.07995	-0.183
Mof_C 	C 	0.6374	0.2308	0.09062	0.158
Mof_H 	H 	0.658	0.2197	0.0788	-0.02
Mof_O 	O 	0.67591	0.27014	0.0382	-0.444
Mof_O 	O 	0.63268	0.31424	0.03777	-0.427
Mof_H 	H 	0.766	0.259	0.015	0.295
Mof_C 	C 	0.85259	0.78554	0.95047	0.406
Mof_C 	C 	0.87322	0.76495	0.92005	-0.179
Mof_C 	C 	0.8626	0.7308	0.90938	0.157
Mof_H 	H 	0.842	0.7197	0.9212	-0.019
Mof_O 	O 	0.82409	0.77014	0.9618	-0.438
Mof_O 	O 	0.86732	0.81424	0.96223	-0.418
Mof_H 	H 	0.734	0.759	0.985	0.299
Mof_C 	C 	0.85259	0.28554	0.45047	0.406
Mof_C 	C 	0.87322	0.26495	0.42005	-0.18
Mof_C 	C 	0.8626	0.2308	0.40938	0.158
Mof_H 	H 	0.842	0.2197	0.4212	-0.019
Mof_O 	O 	0.82409	0.27014	0.4618	-0.441
Mof_O 	O 	0.86732	0.31424	0.46223	-0.423
Mof_H 	H 	0.734	0.259	0.485	0.288
Mof_C 	C 	0.35259	0.78554	0.45047	0.406
Mof_C 	C 	0.37322	0.76495	0.42005	-0.181
Mof_C 	C 	0.3626	0.7308	0.40938	0.158
Mof_H 	H 	0.342	0.7197	0.4212	-0.019
Mof_O 	O 	0.32409	0.77014	0.4618	-0.441
Mof_O 	O 	0.36732	0.81424	0.46223	-0.424
Mof_H 	H 	0.234	0.759	0.485	0.288
Mof_C 	C 	0.35259	0.28554	0.95047	0.406
Mof_C 	C 	0.37322	0.26495	0.92005	-0.18
Mof_C 	C 	0.3626	0.2308	0.90938	0.158
Mof_H 	H 	0.342	0.2197	0.9212	-0.019
Mof_O 	O 	0.32409	0.27014	0.9618	-0.438
Mof_O 	O 	0.36732	0.31424	0.96223	-0.419
Mof_H 	H 	0.234	0.259	0.985	0.299
Mof_C 	C 	0.85259	0.21446	0.04953	0.407
Mof_C 	C 	0.87322	0.23505	0.07995	-0.182
Mof_C 	C 	0.8626	0.2692	0.09062	0.158
Mof_H 	H 	0.842	0.2803	0.0788	-0.02
Mof_O 	O 	0.82409	0.22986	0.0382	-0.444
Mof_O 	O 	0.86732	0.18576	0.03777	-0.426
Mof_H 	H 	0.734	0.241	0.015	0.295
Mof_C 	C 	0.85259	0.71446	0.54953	0.406
Mof_C 	C 	0.87322	0.73505	0.57995	-0.18
Mof_C 	C 	0.8626	0.7692	0.59062	0.158
Mof_H 	H 	0.842	0.7803	0.5788	-0.019
Mof_O 	O 	0.82409	0.72986	0.5382	-0.441
Mof_O 	O 	0.86732	0.68576	0.53777	-0.423
Mof_H 	H 	0.734	0.741	0.515	0.288
Mof_C 	C 	0.35259	0.21446	0.54953	0.407
Mof_C 	C 	0.37322	0.23505	0.57995	-0.181
Mof_C 	C 	0.3626	0.2692	0.59062	0.158
Mof_H 	H 	0.342	0.2803	0.5788	-0.019
Mof_O 	O 	0.32409	0.22986	0.5382	-0.441
Mof_O 	O 	0.36732	0.18576	0.53777	-0.424
Mof_H 	H 	0.234	0.241	0.515	0.288
Mof_C 	C 	0.35259	0.71446	0.04953	0.407
Mof_C 	C 	0.37322	0.73505	0.07995	-0.183
Mof_C 	C 	0.3626	0.7692	0.09062	0.159
Mof_H 	H 	0.342	0.7803	0.0788	-0.02
Mof_O 	O 	0.32409	0.72986	0.0382	-0.444
Mof_O 	O 	0.36732	0.68576	0.03777	-0.426
Mof_H 	H 	0.234	0.741	0.015	0.295
Mof_C 	C 	0.95047	0.14741	0.21446	0.406
Mof_C 	C 	0.92005	0.12678	0.23505	-0.181
Mof_C 	C 	0.90938	0.1374	0.2692	0.158
Mof_H 	H 	0.9212	0.158	0.2803	-0.019
Mof_O 	O 	0.9618	0.17591	0.22986	-0.438
Mof_O 	O 	0.96223	0.13268	0.18576	-0.42
Mof_H 	H 	0.985	0.266	0.241	0.3
Mof_C 	C 	0.95047	0.64741	0.71446	0.406
Mof_C 	C 	0.92005	0.62678	0.73505	-0.18
Mof_C 	C 	0.90938	0.6374	0.7692	0.158
Mof_H 	H 	0.9212	0.658	0.7803	-0.019
Mof_O 	O 	0.9618	0.67591	0.72986	-0.438
Mof_O 	O 	0.96223	0.63268	0.68576	-0.419
Mof_H 	H 	0.985	0.766	0.741	0.3
Mof_C 	C 	0.45047	0.14741	0.71446	0.407
Mof_C 	C 	0.42005	0.12678	0.73505	-0.182
Mof_C 	C 	0.40938	0.1374	0.7692	0.158
Mof_H 	H 	0.4212	0.158	0.7803	-0.019
Mof_O 	O 	0.4618	0.17591	0.72986	-0.442
Mof_O 	O 	0.46223	0.13268	0.68576	-0.425
Mof_H 	H 	0.485	0.266	0.741	0.288
Mof_C 	C 	0.45047	0.64741	0.21446	0.407
Mof_C 	C 	0.42005	0.62678	0.23505	-0.181
Mof_C 	C 	0.40938	0.6374	0.2692	0.158
Mof_H 	H 	0.4212	0.658	0.2803	-0.019
Mof_O 	O 	0.4618	0.67591	0.22986	-0.441
Mof_O 	O 	0.46223	0.63268	0.18576	-0.424
Mof_H 	H 	0.485	0.766	0.241	0.288
Mof_C 	C 	0.04953	0.14741	0.78554	0.407
Mof_C 	C 	0.07995	0.12678	0.76495	-0.183
Mof_C 	C 	0.09062	0.1374	0.7308	0.159
Mof_H 	H 	0.0788	0.158	0.7197	-0.021
Mof_O 	O 	0.0382	0.17591	0.77014	-0.444
Mof_O 	O 	0.03777	0.13268	0.81424	-0.427
Mof_H 	H 	0.015	0.266	0.759	0.295
Mof_C 	C 	0.04953	0.64741	0.28554	0.407
Mof_C 	C 	0.07995	0.62678	0.26495	-0.183
Mof_C 	C 	0.09062	0.6374	0.2308	0.158
Mof_H 	H 	0.0788	0.658	0.2197	-0.02
Mof_O 	O 	0.0382	0.67591	0.27014	-0.444
Mof_O 	O 	0.03777	0.63268	0.31424	-0.427
Mof_H 	H 	0.015	0.766	0.259	0.295
Mof_C 	C 	0.54953	0.14741	0.28554	0.407
Mof_C 	C 	0.57995	0.12678	0.26495	-0.182
Mof_C 	C 	0.59062	0.1374	0.2308	0.158
Mof_H 	H 	0.5788	0.158	0.2197	-0.02
Mof_O 	O 	0.5382	0.17591	0.27014	-0.442
Mof_O 	O 	0.53777	0.13268	0.31424	-0.425
Mof_H 	H 	0.515	0.266	0.259	0.288
Mof_C 	C 	0.54953	0.64741	0.78554	0.406
Mof_C 	C 	0.57995	0.62678	0.76495	-0.181
Mof_C 	C 	0.59062	0.6374	0.7308	0.158
Mof_H 	H 	0.5788	0.658	0.7197	-0.019
Mof_O 	O 	0.5382	0.67591	0.77014	-0.441
Mof_O 	O 	0.53777	0.63268	0.81424	-0.424
Mof_H 	H 	0.515	0.766	0.759	0.288
Mof_C 	C 	0.95047	0.85259	0.78554	0.406
Mof_C 	C 	0.92005	0.87322	0.76495	-0.179
Mof_C 	C 	0.90938	0.8626	0.7308	0.157
Mof_H 	H 	0.9212	0.842	0.7197	-0.019
Mof_O 	O 	0.9618	0.82409	0.77014	-0.438
Mof_O 	O 	0.96223	0.86732	0.81424	-0.418
Mof_H 	H 	0.985	0.734	0.759	0.299
Mof_C 	C 	0.95047	0.35259	0.28554	0.406
Mof_C 	C 	0.92005	0.37322	0.26495	-0.18
Mof_C 	C 	0.90938	0.3626	0.2308	0.158
Mof_H 	H 	0.9212	0.342	0.2197	-0.019
Mof_O 	O 	0.9618	0.32409	0.27014	-0.438
Mof_O 	O 	0.96223	0.36732	0.31424	-0.419
Mof_H 	H 	0.985	0.234	0.259	0.299
Mof_C 	C 	0.45047	0.85259	0.28554	0.406
Mof_C 	C 	0.42005	0.87322	0.26495	-0.18
Mof_C 	C 	0.40938	0.8626	0.2308	0.158
Mof_H 	H 	0.4212	0.842	0.2197	-0.019
Mof_O 	O 	0.4618	0.82409	0.27014	-0.441
Mof_O 	O 	0.46223	0.86732	0.31424	-0.423
Mof_H 	H 	0.485	0.734	0.259	0.288
Mof_C 	C 	0.45047	0.35259	0.78554	0.406
Mof_C 	C 	0.42005	0.37322	0.76495	-0.181
Mof_C 	C 	0.40938	0.3626	0.7308	0.158
Mof_H 	H 	0.4212	0.342	0.7197	-0.019
Mof_O 	O 	0.4618	0.32409	0.77014	-0.441
Mof_O 	O 	0.46223	0.36732	0.81424	-0.424
Mof_H 	H 	0.485	0.234	0.759	0.288
Mof_C 	C 	0.04953	0.85259	0.21446	0.407
Mof_C 	C 	0.07995	0.87322	0.23505	-0.182
Mof_C 	C 	0.09062	0.8626	0.2692	0.158
Mof_H 	H 	0.0788	0.842	0.2803	-0.02
Mof_O 	O 	0.0382	0.82409	0.22986	-0.444
Mof_O 	O 	0.03777	0.86732	0.18576	-0.426
Mof_H 	H 	0.015	0.734	0.241	0.295
Mof_C 	C 	0.04953	0.35259	0.71446	0.407
Mof_C 	C 	0.07995	0.37322	0.73505	-0.183
Mof_C 	C 	0.09062	0.3626	0.7692	0.159
Mof_H 	H 	0.0788	0.342	0.7803	-0.02
Mof_O 	O 	0.0382	0.32409	0.72986	-0.444
Mof_O 	O 	0.03777	0.36732	0.68576	-0.426
Mof_H 	H 	0.015	0.234	0.741	0.295
Mof_C 	C 	0.54953	0.85259	0.71446	0.406
Mof_C 	C 	0.57995	0.87322	0.73505	-0.18
Mof_C 	C 	0.59062	0.8626	0.7692	0.158
Mof_H 	H 	0.5788	0.842	0.7803	-0.019
Mof_O 	O 	0.5382	0.82409	0.72986	-0.441
Mof_O 	O 	0.53777	0.86732	0.68576	-0.423
Mof_H 	H 	0.515	0.734	0.741	0.288
Mof_C 	C 	0.54953	0.35259	0.21446	0.407
Mof_C 	C 	0.57995	0.37322	0.23505	-0.181
Mof_C 	C 	0.59062	0.3626	0.2692	0.158
Mof_H 	H 	0.5788	0.342	0.2803	-0.019
Mof_O 	O 	0.5382	0.32409	0.22986	-0.441
Mof_O 	O 	0.53777	0.36732	0.18576	-0.424
Mof_H 	H 	0.515	0.234	0.241	0.288
Mof_C 	C 	0.95047	0.21446	0.85259	0.406
Mof_C 	C 	0.92005	0.23505	0.87322	-0.179
Mof_C 	C 	0.90938	0.2692	0.8626	0.158
Mof_H 	H 	0.9212	0.2803	0.842	-0.019
Mof_O 	O 	0.9618	0.22986	0.82409	-0.438
Mof_O 	O 	0.96223	0.18576	0.86732	-0.419
Mof_H 	H 	0.985	0.241	0.734	0.299
Mof_C 	C 	0.95047	0.71446	0.35259	0.406
Mof_C 	C 	0.92005	0.73505	0.37322	-0.18
Mof_C 	C 	0.90938	0.7692	0.3626	0.158
Mof_H 	H 	0.9212	0.7803	0.342	-0.019
Mof_O 	O 	0.9618	0.72986	0.32409	-0.438
Mof_O 	O 	0.96223	0.68576	0.36732	-0.419
Mof_H 	H 	0.985	0.741	0.234	0.299
Mof_C 	C 	0.45047	0.21446	0.35259	0.407
Mof_C 	C 	0.42005	0.23505	0.37322	-0.181
Mof_C 	C 	0.40938	0.2692	0.3626	0.158
Mof_H 	H 	0.4212	0.2803	0.342	-0.019
Mof_O 	O 	0.4618	0.22986	0.32409	-0.441
Mof_O 	O 	0.46223	0.18576	0.36732	-0.424
Mof_H 	H 	0.485	0.241	0.234	0.288
Mof_C 	C 	0.45047	0.71446	0.85259	0.406
Mof_C 	C 	0.42005	0.73505	0.87322	-0.18
Mof_C 	C 	0.40938	0.7692	0.8626	0.158
Mof_H 	H 	0.4212	0.7803	0.842	-0.019
Mof_O 	O 	0.4618	0.72986	0.82409	-0.441
Mof_O 	O 	0.46223	0.68576	0.86732	-0.423
Mof_H 	H 	0.485	0.741	0.734	0.288
Mof_C 	C 	0.04953	0.78554	0.85259	0.407
Mof_C 	C 	0.07995	0.76495	0.87322	-0.182
Mof_C 	C 	0.09062	0.7308	0.8626	0.158
Mof_H 	H 	0.0788	0.7197	0.842	-0.02
Mof_O 	O 	0.0382	0.77014	0.82409	-0.444
Mof_O 	O 	0.03777	0.81424	0.86732	-0.425
Mof_H 	H 	0.015	0.759	0.734	0.295
Mof_C 	C 	0.04953	0.28554	0.35259	0.407
Mof_C 	C 	0.07995	0.26495	0.37322	-0.183
Mof_C 	C 	0.09062	0.2308	0.3626	0.158
Mof_H 	H 	0.0788	0.2197	0.342	-0.02
Mof_O 	O 	0.0382	0.27014	0.32409	-0.444
Mof_O 	O 	0.03777	0.31424	0.36732	-0.427
Mof_H 	H 	0.015	0.259	0.234	0.295
Mof_C 	C 	0.54953	0.78554	0.35259	0.406
Mof_C 	C 	0.57995	0.76495	0.37322	-0.181
Mof_C 	C 	0.59062	0.7308	0.3626	0.158
Mof_H 	H 	0.5788	0.7197	0.342	-0.019
Mof_O 	O 	0.5382	0.77014	0.32409	-0.441
Mof_O 	O 	0.53777	0.81424	0.36732	-0.424
Mof_H 	H 	0.515	0.759	0.234	0.288
Mof_C 	C 	0.54953	0.28554	0.85259	0.406
Mof_C 	C 	0.57995	0.26495	0.87322	-0.18
Mof_C 	C 	0.59062	0.2308	0.8626	0.158
Mof_H 	H 	0.5788	0.2197	0.842	-0.019
Mof_O 	O 	0.5382	0.27014	0.82409	-0.441
Mof_O 	O 	0.53777	0.31424	0.86732	-0.423
Mof_H 	H 	0.515	0.259	0.734	0.288
Mof_C 	C 	0.95047	0.78554	0.14741	0.406
Mof_C 	C 	0.92005	0.76495	0.12678	-0.18
Mof_C 	C 	0.90938	0.7308	0.1374	0.158
Mof_H 	H 	0.9212	0.7197	0.158	-0.019
Mof_O 	O 	0.9618	0.77014	0.17591	-0.438
Mof_O 	O 	0.96223	0.81424	0.13268	-0.42
Mof_H 	H 	0.985	0.759	0.266	0.299
Mof_C 	C 	0.95047	0.28554	0.64741	0.406
Mof_C 	C 	0.92005	0.26495	0.62678	-0.18
Mof_C 	C 	0.90938	0.2308	0.6374	0.158
Mof_H 	H 	0.9212	0.2197	0.658	-0.019
Mof_O 	O 	0.9618	0.27014	0.67591	-0.438
Mof_O 	O 	0.96223	0.31424	0.63268	-0.419
Mof_H 	H 	0.985	0.259	0.766	0.3
Mof_C 	C 	0.45047	0.78554	0.64741	0.406
Mof_C 	C 	0.42005	0.76495	0.62678	-0.181
Mof_C 	C 	0.40938	0.7308	0.6374	0.158
Mof_H 	H 	0.4212	0.7197	0.658	-0.019
Mof_O 	O 	0.4618	0.77014	0.67591	-0.441
Mof_O 	O 	0.46223	0.81424	0.63268	-0.424
Mof_H 	H 	0.485	0.759	0.766	0.288
Mof_C 	C 	0.45047	0.28554	0.14741	0.407
Mof_C 	C 	0.42005	0.26495	0.12678	-0.182
Mof_C 	C 	0.40938	0.2308	0.1374	0.158
Mof_H 	H 	0.4212	0.2197	0.158	-0.02
Mof_O 	O 	0.4618	0.27014	0.17591	-0.442
Mof_O 	O 	0.46223	0.31424	0.13268	-0.425
Mof_H 	H 	0.485	0.259	0.266	0.288
Mof_C 	C 	0.04953	0.21446	0.14741	0.407
Mof_C 	C 	0.07995	0.23505	0.12678	-0.184
Mof_C 	C 	0.09062	0.2692	0.1374	0.159
Mof_H 	H 	0.0788	0.2803	0.158	-0.021
Mof_O 	O 	0.0382	0.22986	0.17591	-0.444
Mof_O 	O 	0.03777	0.18576	0.13268	-0.427
Mof_H 	H 	0.015	0.241	0.266	0.295
Mof_C 	C 	0.04953	0.71446	0.64741	0.407
Mof_C 	C 	0.07995	0.73505	0.62678	-0.183
Mof_C 	C 	0.09062	0.7692	0.6374	0.159
Mof_H 	H 	0.0788	0.7803	0.658	-0.02
Mof_O 	O 	0.0382	0.72986	0.67591	-0.444
Mof_O 	O 	0.03777	0.68576	0.63268	-0.427
Mof_H 	H 	0.015	0.741	0.766	0.295
Mof_C 	C 	0.54953	0.21446	0.64741	0.407
Mof_C 	C 	0.57995	0.23505	0.62678	-0.181
Mof_C 	C 	0.59062	0.2692	0.6374	0.158
Mof_H 	H 	0.5788	0.2803	0.658	-0.019
Mof_O 	O 	0.5382	0.22986	0.67591	-0.441
Mof_O 	O 	0.53777	0.18576	0.63268	-0.424
Mof_H 	H 	0.515	0.241	0.766	0.288
Mof_C 	C 	0.54953	0.71446	0.14741	0.407
Mof_C 	C 	0.57995	0.73505	0.12678	-0.182
Mof_C 	C 	0.59062	0.7692	0.1374	0.158
Mof_H 	H 	0.5788	0.7803	0.158	-0.019
Mof_O 	O 	0.5382	0.72986	0.17591	-0.442
Mof_O 	O 	0.53777	0.68576	0.13268	-0.425
Mof_H 	H 	0.515	0.741	0.266	0.288
Mof_C 	C 	0.21446	0.14741	0.04953	0.407
Mof_C 	C 	0.23505	0.12678	0.07995	-0.184
Mof_C 	C 	0.2692	0.1374	0.09062	0.159
Mof_H 	H 	0.2803	0.158	0.0788	-0.021
Mof_O 	O 	0.22986	0.17591	0.0382	-0.444
Mof_O 	O 	0.18576	0.13268	0.03777	-0.427
Mof_H 	H 	0.241	0.266	0.015	0.295
Mof_C 	C 	0.21446	0.64741	0.54953	0.407
Mof_C 	C 	0.23505	0.62678	0.57995	-0.181
Mof_C 	C 	0.2692	0.6374	0.59062	0.158
Mof_H 	H 	0.2803	0.658	0.5788	-0.019
Mof_O 	O 	0.22986	0.67591	0.5382	-0.441
Mof_O 	O 	0.18576	0.63268	0.53777	-0.424
Mof_H 	H 	0.241	0.766	0.515	0.288
Mof_C 	C 	0.71446	0.14741	0.54953	0.407
Mof_C 	C 	0.73505	0.12678	0.57995	-0.182
Mof_C 	C 	0.7692	0.1374	0.59062	0.158
Mof_H 	H 	0.7803	0.158	0.5788	-0.019
Mof_O 	O 	0.72986	0.17591	0.5382	-0.442
Mof_O 	O 	0.68576	0.13268	0.53777	-0.425
Mof_H 	H 	0.741	0.266	0.515	0.288
Mof_C 	C 	0.71446	0.64741	0.04953	0.407
Mof_C 	C 	0.73505	0.62678	0.07995	-0.183
Mof_C 	C 	0.7692	0.6374	0.09062	0.159
Mof_H 	H 	0.7803	0.658	0.0788	-0.02
Mof_O 	O 	0.72986	0.67591	0.0382	-0.444
Mof_O 	O 	0.68576	0.63268	0.03777	-0.427
Mof_H 	H 	0.741	0.766	0.015	0.295
Mof_C 	C 	0.78554	0.14741	0.95047	0.406
Mof_C 	C 	0.76495	0.12678	0.92005	-0.18
Mof_C 	C 	0.7308	0.1374	0.90938	0.158
Mof_H 	H 	0.7197	0.158	0.9212	-0.019
Mof_O 	O 	0.77014	0.17591	0.9618	-0.438
Mof_O 	O 	0.81424	0.13268	0.96223	-0.42
Mof_H 	H 	0.759	0.266	0.985	0.299
Mof_C 	C 	0.78554	0.64741	0.45047	0.406
Mof_C 	C 	0.76495	0.62678	0.42005	-0.181
Mof_C 	C 	0.7308	0.6374	0.40938	0.158
Mof_H 	H 	0.7197	0.658	0.4212	-0.019
Mof_O 	O 	0.77014	0.67591	0.4618	-0.441
Mof_O 	O 	0.81424	0.63268	0.46223	-0.424
Mof_H 	H 	0.759	0.766	0.485	0.288
Mof_C 	C 	0.28554	0.14741	0.45047	0.407
Mof_C 	C 	0.26495	0.12678	0.42005	-0.182
Mof_C 	C 	0.2308	0.1374	0.40938	0.158
Mof_H 	H 	0.2197	0.158	0.4212	-0.02
Mof_O 	O 	0.27014	0.17591	0.4618	-0.442
Mof_O 	O 	0.31424	0.13268	0.46223	-0.425
Mof_H 	H 	0.259	0.266	0.485	0.288
Mof_C 	C 	0.28554	0.64741	0.95047	0.406
Mof_C 	C 	0.26495	0.62678	0.92005	-0.18
Mof_C 	C 	0.2308	0.6374	0.90938	0.158
Mof_H 	H 	0.2197	0.658	0.9212	-0.019
Mof_O 	O 	0.27014	0.67591	0.9618	-0.438
Mof_O 	O 	0.31424	0.63268	0.96223	-0.419
Mof_H 	H 	0.259	0.766	0.985	0.3
Mof_C 	C 	0.78554	0.85259	0.04953	0.407
Mof_C 	C 	0.76495	0.87322	0.07995	-0.182
Mof_C 	C 	0.7308	0.8626	0.09062	0.158
Mof_H 	H 	0.7197	0.842	0.0788	-0.02
Mof_O 	O 	0.77014	0.82409	0.0382	-0.444
Mof_O 	O 	0.81424	0.86732	0.03777	-0.425
Mof_H 	H 	0.759	0.734	0.015	0.295
Mof_C 	C 	0.78554	0.35259	0.54953	0.406
Mof_C 	C 	0.76495	0.37322	0.57995	-0.181
Mof_C 	C 	0.7308	0.3626	0.59062	0.158
Mof_H 	H 	0.7197	0.342	0.5788	-0.019
Mof_O 	O 	0.77014	0.32409	0.5382	-0.441
Mof_O 	O 	0.81424	0.36732	0.53777	-0.424
Mof_H 	H 	0.759	0.234	0.515	0.288
Mof_C 	C 	0.28554	0.85259	0.54953	0.406
Mof_C 	C 	0.26495	0.87322	0.57995	-0.18
Mof_C 	C 	0.2308	0.8626	0.59062	0.158
Mof_H 	H 	0.2197	0.842	0.5788	-0.019
Mof_O 	O 	0.27014	0.82409	0.5382	-0.441
Mof_O 	O 	0.31424	0.86732	0.53777	-0.423
Mof_H 	H 	0.259	0.734	0.515	0.288
Mof_C 	C 	0.28554	0.35259	0.04953	0.407
Mof_C 	C 	0.26495	0.37322	0.07995	-0.183
Mof_C 	C 	0.2308	0.3626	0.09062	0.158
Mof_H 	H 	0.2197	0.342	0.0788	-0.02
Mof_O 	O 	0.27014	0.32409	0.0382	-0.444
Mof_O 	O 	0.31424	0.36732	0.03777	-0.427
Mof_H 	H 	0.259	0.234	0.015	0.295
Mof_C 	C 	0.21446	0.85259	0.95047	0.406
Mof_C 	C 	0.23505	0.87322	0.92005	-0.179
Mof_C 	C 	0.2692	0.8626	0.90938	0.158
Mof_H 	H 	0.2803	0.842	0.9212	-0.019
Mof_O 	O 	0.22986	0.82409	0.9618	-0.438
Mof_O 	O 	0.18576	0.86732	0.96223	-0.419
Mof_H 	H 	0.241	0.734	0.985	0.299
Mof_C 	C 	0.21446	0.35259	0.45047	0.407
Mof_C 	C 	0.23505	0.37322	0.42005	-0.181
Mof_C 	C 	0.2692	0.3626	0.40938	0.158
Mof_H 	H 	0.2803	0.342	0.4212	-0.019
Mof_O 	O 	0.22986	0.32409	0.4618	-0.441
Mof_O 	O 	0.18576	0.36732	0.46223	-0.424
Mof_H 	H 	0.241	0.234	0.485	0.288
Mof_C 	C 	0.71446	0.85259	0.45047	0.406
Mof_C 	C 	0.73505	0.87322	0.42005	-0.18
Mof_C 	C 	0.7692	0.8626	0.40938	0.158
Mof_H 	H 	0.7803	0.842	0.4212	-0.019
Mof_O 	O 	0.72986	0.82409	0.4618	-0.441
Mof_O 	O 	0.68576	0.86732	0.46223	-0.423
Mof_H 	H 	0.741	0.734	0.485	0.288
Mof_C 	C 	0.71446	0.35259	0.95047	0.406
Mof_C 	C 	0.73505	0.37322	0.92005	-0.18
Mof_C 	C 	0.7692	0.3626	0.90938	0.158
Mof_H 	H 	0.7803	0.342	0.9212	-0.019
Mof_O 	O 	0.72986	0.32409	0.9618	-0.438
Mof_O 	O 	0.68576	0.36732	0.96223	-0.419
Mof_H 	H 	0.741	0.234	0.985	0.299
Mof_C 	C 	0.14741	0.95047	0.78554	0.406
Mof_C 	C 	0.12678	0.92005	0.76495	-0.18
Mof_C 	C 	0.1374	0.90938	0.7308	0.158
Mof_H 	H 	0.158	0.9212	0.7197	-0.019
Mof_O 	O 	0.17591	0.9618	0.77014	-0.438
Mof_O 	O 	0.13268	0.96223	0.81424	-0.42
Mof_H 	H 	0.266	0.985	0.759	0.299
Mof_C 	C 	0.14741	0.45047	0.28554	0.407
Mof_C 	C 	0.12678	0.42005	0.26495	-0.182
Mof_C 	C 	0.1374	0.40938	0.2308	0.158
Mof_H 	H 	0.158	0.4212	0.2197	-0.02
Mof_O 	O 	0.17591	0.4618	0.27014	-0.442
Mof_O 	O 	0.13268	0.46223	0.31424	-0.425
Mof_H 	H 	0.266	0.485	0.259	0.288
Mof_C 	C 	0.64741	0.95047	0.28554	0.406
Mof_C 	C 	0.62678	0.92005	0.26495	-0.18
Mof_C 	C 	0.6374	0.90938	0.2308	0.158
Mof_H 	H 	0.658	0.9212	0.2197	-0.019
Mof_O 	O 	0.67591	0.9618	0.27014	-0.438
Mof_O 	O 	0.63268	0.96223	0.31424	-0.419
Mof_H 	H 	0.766	0.985	0.259	0.3
Mof_C 	C 	0.64741	0.45047	0.78554	0.406
Mof_C 	C 	0.62678	0.42005	0.76495	-0.181
Mof_C 	C 	0.6374	0.40938	0.7308	0.158
Mof_H 	H 	0.658	0.4212	0.7197	-0.019
Mof_O 	O 	0.67591	0.4618	0.77014	-0.441
Mof_O 	O 	0.63268	0.46223	0.81424	-0.424
Mof_H 	H 	0.766	0.485	0.759	0.288
Mof_C 	C 	0.14741	0.04953	0.21446	0.407
Mof_C 	C 	0.12678	0.07995	0.23505	-0.184
Mof_C 	C 	0.1374	0.09062	0.2692	0.159
Mof_H 	H 	0.158	0.0788	0.2803	-0.021
Mof_O 	O 	0.17591	0.0382	0.22986	-0.444
Mof_O 	O 	0.13268	0.03777	0.18576	-0.427
Mof_H 	H 	0.266	0.015	0.241	0.295
Mof_C 	C 	0.14741	0.54953	0.71446	0.407
Mof_C 	C 	0.12678	0.57995	0.73505	-0.182
Mof_C 	C 	0.1374	0.59062	0.7692	0.158
Mof_H 	H 	0.158	0.5788	0.7803	-0.019
Mof_O 	O 	0.17591	0.5382	0.72986	-0.442
Mof_O 	O 	0.13268	0.53777	0.68576	-0.425
Mof_H 	H 	0.266	0.515	0.741	0.288
Mof_C 	C 	0.64741	0.04953	0.71446	0.407
Mof_C 	C 	0.62678	0.07995	0.73505	-0.183
Mof_C 	C 	0.6374	0.09062	0.7692	0.159
Mof_H 	H 	0.658	0.0788	0.7803	-0.02
Mof_O 	O 	0.67591	0.0382	0.72986	-0.444
Mof_O 	O 	0.63268	0.03777	0.68576	-0.427
Mof_H 	H 	0.766	0.015	0.741	0.295
Mof_C 	C 	0.64741	0.54953	0.21446	0.407
Mof_C 	C 	0.62678	0.57995	0.23505	-0.181
Mof_C 	C 	0.6374	0.59062	0.2692	0.158
Mof_H 	H 	0.658	0.5788	0.2803	-0.019
Mof_O 	O 	0.67591	0.5382	0.22986	-0.441
Mof_O 	O 	0.63268	0.53777	0.18576	-0.424
Mof_H 	H 	0.766	0.515	0.241	0.288
Mof_C 	C 	0.85259	0.95047	0.21446	0.406
Mof_C 	C 	0.87322	0.92005	0.23505	-0.179
Mof_C 	C 	0.8626	0.90938	0.2692	0.158
Mof_H 	H 	0.842	0.9212	0.2803	-0.019
Mof_O 	O 	0.82409	0.9618	0.22986	-0.438
Mof_O 	O 	0.86732	0.96223	0.18576	-0.419
Mof_H 	H 	0.734	0.985	0.241	0.299
Mof_C 	C 	0.85259	0.45047	0.71446	0.406
Mof_C 	C 	0.87322	0.42005	0.73505	-0.18
Mof_C 	C 	0.8626	0.40938	0.7692	0.158
Mof_H 	H 	0.842	0.4212	0.7803	-0.019
Mof_O 	O 	0.82409	0.4618	0.72986	-0.441
Mof_O 	O 	0.86732	0.46223	0.68576	-0.423
Mof_H 	H 	0.734	0.485	0.741	0.288
Mof_C 	C 	0.35259	0.95047	0.71446	0.406
Mof_C 	C 	0.37322	0.92005	0.73505	-0.18
Mof_C 	C 	0.3626	0.90938	0.7692	0.158
Mof_H 	H 	0.342	0.9212	0.7803	-0.019
Mof_O 	O 	0.32409	0.9618	0.72986	-0.438
Mof_O 	O 	0.36732	0.96223	0.68576	-0.419
Mof_H 	H 	0.234	0.985	0.741	0.299
Mof_C 	C 	0.35259	0.45047	0.21446	0.407
Mof_C 	C 	0.37322	0.42005	0.23505	-0.181
Mof_C 	C 	0.3626	0.40938	0.2692	0.158
Mof_H 	H 	0.342	0.4212	0.2803	-0.019
Mof_O 	O 	0.32409	0.4618	0.22986	-0.441
Mof_O 	O 	0.36732	0.46223	0.18576	-0.424
Mof_H 	H 	0.234	0.485	0.241	0.288
Mof_C 	C 	0.85259	0.04953	0.78554	0.407
Mof_C 	C 	0.87322	0.07995	0.76495	-0.182
Mof_C 	C 	0.8626	0.09062	0.7308	0.158
Mof_H 	H 	0.842	0.0788	0.7197	-0.02
Mof_O 	O 	0.82409	0.0382	0.77014	-0.444
Mof_O 	O 	0.86732	0.03777	0.81424	-0.425
Mof_H 	H 	0.734	0.015	0.759	0.295
Mof_C 	C 	0.85259	0.54953	0.28554	0.406
Mof_C 	C 	0.87322	0.57995	0.26495	-0.18
Mof_C 	C 	0.8626	0.59062	0.2308	0.158
Mof_H 	H 	0.842	0.5788	0.2197	-0.019
Mof_O 	O 	0.82409	0.5382	0.27014	-0.441
Mof_O 	O 	0.86732	0.53777	0.31424	-0.423
Mof_H 	H 	0.734	0.515	0.259	0.288
Mof_C 	C 	0.35259	0.04953	0.28554	0.407
Mof_C 	C 	0.37322	0.07995	0.26495	-0.183
Mof_C 	C 	0.3626	0.09062	0.2308	0.158
Mof_H 	H 	0.342	0.0788	0.2197	-0.02
Mof_O 	O 	0.32409	0.0382	0.27014	-0.444
Mof_O 	O 	0.36732	0.03777	0.31424	-0.427
Mof_H 	H 	0.234	0.015	0.259	0.295
Mof_C 	C 	0.35259	0.54953	0.78554	0.406
Mof_C 	C 	0.37322	0.57995	0.76495	-0.181
Mof_C 	C 	0.3626	0.59062	0.7308	0.158
Mof_H 	H 	0.342	0.5788	0.7197	-0.019
Mof_O 	O 	0.32409	0.5382	0.77014	-0.441
Mof_O 	O 	0.36732	0.53777	0.81424	-0.424
Mof_H 	H 	0.234	0.515	0.759	0.288
Mof_C 	C 	0.78554	0.04953	0.85259	0.407
Mof_C 	C 	0.76495	0.07995	0.87322	-0.182
Mof_C 	C 	0.7308	0.09062	0.8626	0.158
Mof_H 	H 	0.7197	0.0788	0.842	-0.02
Mof_O 	O 	0.77014	0.0382	0.82409	-0.444
Mof_O 	O 	0.81424	0.03777	0.86732	-0.425
Mof_H 	H 	0.759	0.015	0.734	0.295
Mof_C 	C 	0.78554	0.54953	0.35259	0.406
Mof_C 	C 	0.76495	0.57995	0.37322	-0.181
Mof_C 	C 	0.7308	0.59062	0.3626	0.158
Mof_H 	H 	0.7197	0.5788	0.342	-0.019
Mof_O 	O 	0.77014	0.5382	0.32409	-0.441
Mof_O 	O 	0.81424	0.53777	0.36732	-0.424
Mof_H 	H 	0.759	0.515	0.234	0.288
Mof_C 	C 	0.28554	0.04953	0.35259	0.407
Mof_C 	C 	0.26495	0.07995	0.37322	-0.183
Mof_C 	C 	0.2308	0.09062	0.3626	0.158
Mof_H 	H 	0.2197	0.0788	0.342	-0.02
Mof_O 	O 	0.27014	0.0382	0.32409	-0.444
Mof_O 	O 	0.31424	0.03777	0.36732	-0.427
Mof_H 	H 	0.259	0.015	0.234	0.295
Mof_C 	C 	0.28554	0.54953	0.85259	0.406
Mof_C 	C 	0.26495	0.57995	0.87322	-0.18
Mof_C 	C 	0.2308	0.59062	0.8626	0.158
Mof_H 	H 	0.2197	0.5788	0.842	-0.019
Mof_O 	O 	0.27014	0.5382	0.82409	-0.441
Mof_O 	O 	0.31424	0.53777	0.86732	-0.423
Mof_H 	H 	0.259	0.515	0.734	0.288
Mof_C 	C 	0.21446	0.95047	0.85259	0.406
Mof_C 	C 	0.23505	0.92005	0.87322	-0.179
Mof_C 	C 	0.2692	0.90938	0.8626	0.158
Mof_H 	H 	0.2803	0.9212	0.842	-0.019
Mof_O 	O 	0.22986	0.9618	0.82409	-0.438
Mof_O 	O 	0.18576	0.96223	0.86732	-0.419
Mof_H 	H 	0.241	0.985	0.734	0.299
Mof_C 	C 	0.21446	0.45047	0.35259	0.407
Mof_C 	C 	0.23505	0.42005	0.37322	-0.181
Mof_C 	C 	0.2692	0.40938	0.3626	0.158
Mof_H 	H 	0.2803	0.4212	0.342	-0.019
Mof_O 	O 	0.22986	0.4618	0.32409	-0.441
Mof_O 	O 	0.18576	0.46223	0.36732	-0.424
Mof_H 	H 	0.241	0.485	0.234	0.288
Mof_C 	C 	0.71446	0.95047	0.35259	0.406
Mof_C 	C 	0.73505	0.92005	0.37322	-0.18
Mof_C 	C 	0.7692	0.90938	0.3626	0.158
Mof_H 	H 	0.7803	0.9212	0.342	-0.019
Mof_O 	O 	0.72986	0.9618	0.32409	-0.438
Mof_O 	O 	0.68576	0.96223	0.36732	-0.419
Mof_H 	H 	0.741	0.985	0.234	0.299
Mof_C 	C 	0.71446	0.45047	0.85259	0.406
Mof_C 	C 	0.73505	0.42005	0.87322	-0.18
Mof_C 	C 	0.7692	0.40938	0.8626	0.158
Mof_H 	H 	0.7803	0.4212	0.842	-0.019
Mof_O 	O 	0.72986	0.4618	0.82409	-0.441
Mof_O 	O 	0.68576	0.46223	0.86732	-0.423
Mof_H 	H 	0.741	0.485	0.734	0.288
Mof_C 	C 	0.21446	0.04953	0.14741	0.407
Mof_C 	C 	0.23505	0.07995	0.12678	-0.184
Mof_C 	C 	0.2692	0.09062	0.1374	0.159
Mof_H 	H 	0.2803	0.0788	0.158	-0.021
Mof_O 	O 	0.22986	0.0382	0.17591	-0.444
Mof_O 	O 	0.18576	0.03777	0.13268	-0.427
Mof_H 	H 	0.241	0.015	0.266	0.295
Mof_C 	C 	0.21446	0.54953	0.64741	0.407
Mof_C 	C 	0.23505	0.57995	0.62678	-0.181
Mof_C 	C 	0.2692	0.59062	0.6374	0.158
Mof_H 	H 	0.2803	0.5788	0.658	-0.019
Mof_O 	O 	0.22986	0.5382	0.67591	-0.441
Mof_O 	O 	0.18576	0.53777	0.63268	-0.424
Mof_H 	H 	0.241	0.515	0.766	0.288
Mof_C 	C 	0.71446	0.04953	0.64741	0.407
Mof_C 	C 	0.73505	0.07995	0.62678	-0.183
Mof_C 	C 	0.7692	0.09062	0.6374	0.159
Mof_H 	H 	0.7803	0.0788	0.658	-0.02
Mof_O 	O 	0.72986	0.0382	0.67591	-0.444
Mof_O 	O 	0.68576	0.03777	0.63268	-0.427
Mof_H 	H 	0.741	0.015	0.766	0.295
Mof_C 	C 	0.71446	0.54953	0.14741	0.407
Mof_C 	C 	0.73505	0.57995	0.12678	-0.182
Mof_C 	C 	0.7692	0.59062	0.1374	0.158
Mof_H 	H 	0.7803	0.5788	0.158	-0.019
Mof_O 	O 	0.72986	0.5382	0.17591	-0.442
Mof_O 	O 	0.68576	0.53777	0.13268	-0.425
Mof_H 	H 	0.741	0.515	0.266	0.288
Mof_C 	C 	0.78554	0.95047	0.14741	0.406
Mof_C 	C 	0.76495	0.92005	0.12678	-0.18
Mof_C 	C 	0.7308	0.90938	0.1374	0.158
Mof_H 	H 	0.7197	0.9212	0.158	-0.019
Mof_O 	O 	0.77014	0.9618	0.17591	-0.438
Mof_O 	O 	0.81424	0.96223	0.13268	-0.42
Mof_H 	H 	0.759	0.985	0.266	0.299
Mof_C 	C 	0.78554	0.45047	0.64741	0.406
Mof_C 	C 	0.76495	0.42005	0.62678	-0.181
Mof_C 	C 	0.7308	0.40938	0.6374	0.158
Mof_H 	H 	0.7197	0.4212	0.658	-0.019
Mof_O 	O 	0.77014	0.4618	0.67591	-0.441
Mof_O 	O 	0.81424	0.46223	0.63268	-0.424
Mof_H 	H 	0.759	0.485	0.766	0.288
Mof_C 	C 	0.28554	0.95047	0.64741	0.406
Mof_C 	C 	0.26495	0.92005	0.62678	-0.18
Mof_C 	C 	0.2308	0.90938	0.6374	0.158
Mof_H 	H 	0.2197	0.9212	0.658	-0.019
Mof_O 	O 	0.27014	0.9618	0.67591	-0.438
Mof_O 	O 	0.31424	0.96223	0.63268	-0.419
Mof_H 	H 	0.259	0.985	0.766	0.3
Mof_C 	C 	0.28554	0.45047	0.14741	0.407
Mof_C 	C 	0.26495	0.42005	0.12678	-0.182
Mof_C 	C 	0.2308	0.40938	0.1374	0.158
Mof_H 	H 	0.2197	0.4212	0.158	-0.02
Mof_O 	O 	0.27014	0.4618	0.17591	-0.442
Mof_O 	O 	0.31424	0.46223	0.13268	-0.425
Mof_H 	H 	0.259	0.485	0.266	0.288
Mof_C 	C 	0.85259	0.78554	0.04953	0.407
Mof_C 	C 	0.87322	0.76495	0.07995	-0.182
Mof_C 	C 	0.8626	0.7308	0.09062	0.158
Mof_H 	H 	0.842	0.7197	0.0788	-0.02
Mof_O 	O 	0.82409	0.77014	0.0382	-0.444
Mof_O 	O 	0.86732	0.81424	0.03777	-0.425
Mof_H 	H 	0.734	0.759	0.015	0.295
Mof_C 	C 	0.85259	0.28554	0.54953	0.406
Mof_C 	C 	0.87322	0.26495	0.57995	-0.18
Mof_C 	C 	0.8626	0.2308	0.59062	0.158
Mof_H 	H 	0.842	0.2197	0.5788	-0.019
Mof_O 	O 	0.82409	0.27014	0.5382	-0.441
Mof_O 	O 	0.86732	0.31424	0.53777	-0.423
Mof_H 	H 	0.734	0.259	0.515	0.288
Mof_C 	C 	0.35259	0.78554	0.54953	0.406
Mof_C 	C 	0.37322	0.76495	0.57995	-0.181
Mof_C 	C 	0.3626	0.7308	0.59062	0.158
Mof_H 	H 	0.342	0.7197	0.5788	-0.019
Mof_O 	O 	0.32409	0.77014	0.5382	-0.441
Mof_O 	O 	0.36732	0.81424	0.53777	-0.424
Mof_H 	H 	0.234	0.759	0.515	0.288
Mof_C 	C 	0.35259	0.28554	0.04953	0.407
Mof_C 	C 	0.37322	0.26495	0.07995	-0.183
Mof_C 	C 	0.3626	0.2308	0.09062	0.158
Mof_H 	H 	0.342	0.2197	0.0788	-0.02
Mof_O 	O 	0.32409	0.27014	0.0382	-0.444
Mof_O 	O 	0.36732	0.31424	0.03777	-0.427
Mof_H 	H 	0.234	0.259	0.015	0.295
Mof_C 	C 	0.85259	0.21446	0.95047	0.406
Mof_C 	C 	0.87322	0.23505	0.92005	-0.179
Mof_C 	C 	0.8626	0.2692	0.90938	0.158
Mof_H 	H 	0.842	0.2803	0.9212	-0.019
Mof_O 	O 	0.82409	0.22986	0.9618	-0.438
Mof_O 	O 	0.86732	0.18576	0.96223	-0.419
Mof_H 	H 	0.734	0.241	0.985	0.299
Mof_C 	C 	0.85259	0.71446	0.45047	0.406
Mof_C 	C 	0.87322	0.73505	0.42005	-0.18
Mof_C 	C 	0.8626	0.7692	0.40938	0.158
Mof_H 	H 	0.842	0.7803	0.4212	-0.019
Mof_O 	O 	0.82409	0.72986	0.4618	-0.441
Mof_O 	O 	0.86732	0.68576	0.46223	-0.423
Mof_H 	H 	0.734	0.741	0.485	0.288
Mof_C 	C 	0.35259	0.21446	0.45047	0.407
Mof_C 	C 	0.37322	0.23505	0.42005	-0.181
Mof_C 	C 	0.3626	0.2692	0.40938	0.158
Mof_H 	H 	0.342	0.2803	0.4212	-0.019
Mof_O 	O 	0.32409	0.22986	0.4618	-0.441
Mof_O 	O 	0.36732	0.18576	0.46223	-0.424
Mof_H 	H 	0.234	0.241	0.485	0.288
Mof_C 	C 	0.35259	0.71446	0.95047	0.406
Mof_C 	C 	0.37322	0.73505	0.92005	-0.18
Mof_C 	C 	0.3626	0.7692	0.90938	0.158
Mof_H 	H 	0.342	0.7803	0.9212	-0.019
Mof_O 	O 	0.32409	0.72986	0.9618	-0.438
Mof_O 	O 	0.36732	0.68576	0.96223	-0.419
Mof_H 	H 	0.234	0.741	0.985	0.299
Mof_C 	C 	0.14741	0.21446	0.04953	0.407
Mof_C 	C 	0.12678	0.23505	0.07995	-0.184
Mof_C 	C 	0.1374	0.2692	0.09062	0.159
Mof_H 	H 	0.158	0.2803	0.0788	-0.021
Mof_O 	O 	0.17591	0.22986	0.0382	-0.444
Mof_O 	O 	0.13268	0.18576	0.03777	-0.427
Mof_H 	H 	0.266	0.241	0.015	0.295
Mof_C 	C 	0.14741	0.71446	0.54953	0.407
Mof_C 	C 	0.12678	0.73505	0.57995	-0.182
Mof_C 	C 	0.1374	0.7692	0.59062	0.158
Mof_H 	H 	0.158	0.7803	0.5788	-0.019
Mof_O 	O 	0.17591	0.72986	0.5382	-0.442
Mof_O 	O 	0.13268	0.68576	0.53777	-0.425
Mof_H 	H 	0.266	0.741	0.515	0.288
Mof_C 	C 	0.64741	0.21446	0.54953	0.407
Mof_C 	C 	0.62678	0.23505	0.57995	-0.181
Mof_C 	C 	0.6374	0.2692	0.59062	0.158
Mof_H 	H 	0.658	0.2803	0.5788	-0.019
Mof_O 	O 	0.67591	0.22986	0.5382	-0.441
Mof_O 	O 	0.63268	0.18576	0.53777	-0.424
Mof_H 	H 	0.766	0.241	0.515	0.288
Mof_C 	C 	0.64741	0.71446	0.04953	0.407
Mof_C 	C 	0.62678	0.73505	0.07995	-0.183
Mof_C 	C 	0.6374	0.7692	0.09062	0.159
Mof_H 	H 	0.658	0.7803	0.0788	-0.02
Mof_O 	O 	0.67591	0.72986	0.0382	-0.444
Mof_O 	O 	0.63268	0.68576	0.03777	-0.427
Mof_H 	H 	0.766	0.741	0.015	0.295
Mof_C 	C 	0.14741	0.78554	0.95047	0.406
Mof_C 	C 	0.12678	0.76495	0.92005	-0.18
Mof_C 	C 	0.1374	0.7308	0.90938	0.158
Mof_H 	H 	0.158	0.7197	0.9212	-0.019
Mof_O 	O 	0.17591	0.77014	0.9618	-0.438
Mof_O 	O 	0.13268	0.81424	0.96223	-0.42
Mof_H 	H 	0.266	0.759	0.985	0.299
Mof_C 	C 	0.14741	0.28554	0.45047	0.407
Mof_C 	C 	0.12678	0.26495	0.42005	-0.182
Mof_C 	C 	0.1374	0.2308	0.40938	0.158
Mof_H 	H 	0.158	0.2197	0.4212	-0.02
Mof_O 	O 	0.17591	0.27014	0.4618	-0.442
Mof_O 	O 	0.13268	0.31424	0.46223	-0.425
Mof_H 	H 	0.266	0.259	0.485	0.288
Mof_C 	C 	0.64741	0.78554	0.45047	0.406
Mof_C 	C 	0.62678	0.76495	0.42005	-0.181
Mof_C 	C 	0.6374	0.7308	0.40938	0.158
Mof_H 	H 	0.658	0.7197	0.4212	-0.019
Mof_O 	O 	0.67591	0.77014	0.4618	-0.441
Mof_O 	O 	0.63268	0.81424	0.46223	-0.424
Mof_H 	H 	0.766	0.759	0.485	0.288
Mof_C 	C 	0.64741	0.28554	0.95047	0.406
Mof_C 	C 	0.62678	0.26495	0.92005	-0.18
Mof_C 	C 	0.6374	0.2308	0.90938	0.158
Mof_H 	H 	0.658	0.2197	0.9212	-0.019
Mof_O 	O 	0.67591	0.27014	0.9618	-0.438
Mof_O 	O 	0.63268	0.31424	0.96223	-0.419
Mof_H 	H 	0.766	0.259	0.985	0.3
Mof_C 	C 	0.04953	0.85259	0.78554	0.407
Mof_C 	C 	0.07995	0.87322	0.76495	-0.182
Mof_C 	C 	0.09062	0.8626	0.7308	0.158
Mof_H 	H 	0.0788	0.842	0.7197	-0.02
Mof_O 	O 	0.0382	0.82409	0.77014	-0.444
Mof_O 	O 	0.03777	0.86732	0.81424	-0.425
Mof_H 	H 	0.015	0.734	0.759	0.295
Mof_C 	C 	0.04953	0.35259	0.28554	0.407
Mof_C 	C 	0.07995	0.37322	0.26495	-0.183
Mof_C 	C 	0.09062	0.3626	0.2308	0.158
Mof_H 	H 	0.0788	0.342	0.2197	-0.02
Mof_O 	O 	0.0382	0.32409	0.27014	-0.444
Mof_O 	O 	0.03777	0.36732	0.31424	-0.427
Mof_H 	H 	0.015	0.234	0.259	0.295
Mof_C 	C 	0.54953	0.85259	0.28554	0.406
Mof_C 	C 	0.57995	0.87322	0.26495	-0.18
Mof_C 	C 	0.59062	0.8626	0.2308	0.158
Mof_H 	H 	0.5788	0.842	0.2197	-0.019
Mof_O 	O 	0.5382	0.82409	0.27014	-0.441
Mof_O 	O 	0.53777	0.86732	0.31424	-0.423
Mof_H 	H 	0.515	0.734	0.259	0.288
Mof_C 	C 	0.54953	0.35259	0.78554	0.406
Mof_C 	C 	0.57995	0.37322	0.76495	-0.181
Mof_C 	C 	0.59062	0.3626	0.7308	0.158
Mof_H 	H 	0.5788	0.342	0.7197	-0.019
Mof_O 	O 	0.5382	0.32409	0.77014	-0.441
Mof_O 	O 	0.53777	0.36732	0.81424	-0.424
Mof_H 	H 	0.515	0.234	0.759	0.288
Mof_C 	C 	0.95047	0.85259	0.21446	0.406
Mof_C 	C 	0.92005	0.87322	0.23505	-0.179
Mof_C 	C 	0.90938	0.8626	0.2692	0.158
Mof_H 	H 	0.9212	0.842	0.2803	-0.019
Mof_O 	O 	0.9618	0.82409	0.22986	-0.438
Mof_O 	O 	0.96223	0.86732	0.18576	-0.419
Mof_H 	H 	0.985	0.734	0.241	0.299
Mof_C 	C 	0.95047	0.35259	0.71446	0.406
Mof_C 	C 	0.92005	0.37322	0.73505	-0.18
Mof_C 	C 	0.90938	0.3626	0.7692	0.158
Mof_H 	H 	0.9212	0.342	0.7803	-0.019
Mof_O 	O 	0.9618	0.32409	0.72986	-0.438
Mof_O 	O 	0.96223	0.36732	0.68576	-0.419
Mof_H 	H 	0.985	0.234	0.741	0.299
Mof_C 	C 	0.45047	0.85259	0.71446	0.406
Mof_C 	C 	0.42005	0.87322	0.73505	-0.18
Mof_C 	C 	0.40938	0.8626	0.7692	0.158
Mof_H 	H 	0.4212	0.842	0.7803	-0.019
Mof_O 	O 	0.4618	0.82409	0.72986	-0.441
Mof_O 	O 	0.46223	0.86732	0.68576	-0.423
Mof_H 	H 	0.485	0.734	0.741	0.288
Mof_C 	C 	0.45047	0.35259	0.21446	0.407
Mof_C 	C 	0.42005	0.37322	0.23505	-0.181
Mof_C 	C 	0.40938	0.3626	0.2692	0.158
Mof_H 	H 	0.4212	0.342	0.2803	-0.019
Mof_O 	O 	0.4618	0.32409	0.22986	-0.441
Mof_O 	O 	0.46223	0.36732	0.18576	-0.424
Mof_H 	H 	0.485	0.234	0.241	0.288
Mof_C 	C 	0.04953	0.14741	0.21446	0.407
Mof_C 	C 	0.07995	0.12678	0.23505	-0.184
Mof_C 	C 	0.09062	0.1374	0.2692	0.159
Mof_H 	H 	0.0788	0.158	0.2803	-0.021
Mof_O 	O 	0.0382	0.17591	0.22986	-0.444
Mof_O 	O 	0.03777	0.13268	0.18576	-0.427
Mof_H 	H 	0.015	0.266	0.241	0.295
Mof_C 	C 	0.04953	0.64741	0.71446	0.407
Mof_C 	C 	0.07995	0.62678	0.73505	-0.183
Mof_C 	C 	0.09062	0.6374	0.7692	0.159
Mof_H 	H 	0.0788	0.658	0.7803	-0.02
Mof_O 	O 	0.0382	0.67591	0.72986	-0.444
Mof_O 	O 	0.03777	0.63268	0.68576	-0.427
Mof_H 	H 	0.015	0.766	0.741	0.295
Mof_C 	C 	0.54953	0.14741	0.71446	0.407
Mof_C 	C 	0.57995	0.12678	0.73505	-0.182
Mof_C 	C 	0.59062	0.1374	0.7692	0.158
Mof_H 	H 	0.5788	0.158	0.7803	-0.019
Mof_O 	O 	0.5382	0.17591	0.72986	-0.442
Mof_O 	O 	0.53777	0.13268	0.68576	-0.425
Mof_H 	H 	0.515	0.266	0.741	0.288
Mof_C 	C 	0.54953	0.64741	0.21446	0.407
Mof_C 	C 	0.57995	0.62678	0.23505	-0.181
Mof_C 	C 	0.59062	0.6374	0.2692	0.158
Mof_H 	H 	0.5788	0.658	0.2803	-0.019
Mof_O 	O 	0.5382	0.67591	0.22986	-0.441
Mof_O 	O 	0.53777	0.63268	0.18576	-0.424
Mof_H 	H 	0.515	0.766	0.241	0.288
Mof_C 	C 	0.95047	0.14741	0.78554	0.406
Mof_C 	C 	0.92005	0.12678	0.76495	-0.18
Mof_C 	C 	0.90938	0.1374	0.7308	0.158
Mof_H 	H 	0.9212	0.158	0.7197	-0.019
Mof_O 	O 	0.9618	0.17591	0.77014	-0.438
Mof_O 	O 	0.96223	0.13268	0.81424	-0.42
Mof_H 	H 	0.985	0.266	0.759	0.299
Mof_C 	C 	0.95047	0.64741	0.28554	0.406
Mof_C 	C 	0.92005	0.62678	0.26495	-0.18
Mof_C 	C 	0.90938	0.6374	0.2308	0.158
Mof_H 	H 	0.9212	0.658	0.2197	-0.019
Mof_O 	O 	0.9618	0.67591	0.27014	-0.438
Mof_O 	O 	0.96223	0.63268	0.31424	-0.419
Mof_H 	H 	0.985	0.766	0.259	0.3
Mof_C 	C 	0.45047	0.14741	0.28554	0.407
Mof_C 	C 	0.42005	0.12678	0.26495	-0.182
Mof_C 	C 	0.40938	0.1374	0.2308	0.158
Mof_H 	H 	0.4212	0.158	0.2197	-0.02
Mof_O 	O 	0.4618	0.17591	0.27014	-0.442
Mof_O 	O 	0.46223	0.13268	0.31424	-0.425
Mof_H 	H 	0.485	0.266	0.259	0.288
Mof_C 	C 	0.45047	0.64741	0.78554	0.406
Mof_C 	C 	0.42005	0.62678	0.76495	-0.181
Mof_C 	C 	0.40938	0.6374	0.7308	0.158
Mof_H 	H 	0.4212	0.658	0.7197	-0.019
Mof_O 	O 	0.4618	0.67591	0.77014	-0.441
Mof_O 	O 	0.46223	0.63268	0.81424	-0.424
Mof_H 	H 	0.485	0.766	0.759	0.288
Mof_C 	C 	0.04953	0.78554	0.14741	0.407
Mof_C 	C 	0.07995	0.76495	0.12678	-0.183
Mof_C 	C 	0.09062	0.7308	0.1374	0.159
Mof_H 	H 	0.0788	0.7197	0.158	-0.021
Mof_O 	O 	0.0382	0.77014	0.17591	-0.444
Mof_O 	O 	0.03777	0.81424	0.13268	-0.427
Mof_H 	H 	0.015	0.759	0.266	0.295
Mof_C 	C 	0.04953	0.28554	0.64741	0.407
Mof_C 	C 	0.07995	0.26495	0.62678	-0.183
Mof_C 	C 	0.09062	0.2308	0.6374	0.158
Mof_H 	H 	0.0788	0.2197	0.658	-0.02
Mof_O 	O 	0.0382	0.27014	0.67591	-0.444
Mof_O 	O 	0.03777	0.31424	0.63268	-0.427
Mof_H 	H 	0.015	0.259	0.766	0.295
Mof_C 	C 	0.54953	0.78554	0.64741	0.406
Mof_C 	C 	0.57995	0.76495	0.62678	-0.181
Mof_C 	C 	0.59062	0.7308	0.6374	0.158
Mof_H 	H 	0.5788	0.7197	0.658	-0.019
Mof_O 	O 	0.5382	0.77014	0.67591	-0.441
Mof_O 	O 	0.53777	0.81424	0.63268	-0.424
Mof_H 	H 	0.515	0.759	0.766	0.288
Mof_C 	C 	0.54953	0.28554	0.14741	0.407
Mof_C 	C 	0.57995	0.26495	0.12678	-0.182
Mof_C 	C 	0.59062	0.2308	0.1374	0.158
Mof_H 	H 	0.5788	0.2197	0.158	-0.02
Mof_O 	O 	0.5382	0.27014	0.17591	-0.442
Mof_O 	O 	0.53777	0.31424	0.13268	-0.425
Mof_H 	H 	0.515	0.259	0.266	0.288
Mof_C 	C 	0.95047	0.21446	0.14741	0.406
Mof_C 	C 	0.92005	0.23505	0.12678	-0.181
Mof_C 	C 	0.90938	0.2692	0.1374	0.158
Mof_H 	H 	0.9212	0.2803	0.158	-0.019
Mof_O 	O 	0.9618	0.22986	0.17591	-0.438
Mof_O 	O 	0.96223	0.18576	0.13268	-0.42
Mof_H 	H 	0.985	0.241	0.266	0.3
Mof_C 	C 	0.95047	0.71446	0.64741	0.406
Mof_C 	C 	0.92005	0.73505	0.62678	-0.18
Mof_C 	C 	0.90938	0.7692	0.6374	0.158
Mof_H 	H 	0.9212	0.7803	0.658	-0.019
Mof_O 	O 	0.9618	0.72986	0.67591	-0.438
Mof_O 	O 	0.96223	0.68576	0.63268	-0.419
Mof_H 	H 	0.985	0.741	0.766	0.3
Mof_C 	C 	0.45047	0.21446	0.64741	0.407
Mof_C 	C 	0.42005	0.23505	0.62678	-0.181
Mof_C 	C 	0.40938	0.2692	0.6374	0.158
Mof_H 	H 	0.4212	0.2803	0.658	-0.019
Mof_O 	O 	0.4618	0.22986	0.67591	-0.441
Mof_O 	O 	0.46223	0.18576	0.63268	-0.424
Mof_H 	H 	0.485	0.241	0.766	0.288
Mof_C 	C 	0.45047	0.71446	0.14741	0.407
Mof_C 	C 	0.42005	0.73505	0.12678	-0.182
Mof_C 	C 	0.40938	0.7692	0.1374	0.158
Mof_H 	H 	0.4212	0.7803	0.158	-0.019
Mof_O 	O 	0.4618	0.72986	0.17591	-0.442
Mof_O 	O 	0.46223	0.68576	0.13268	-0.425
Mof_H 	H 	0.485	0.741	0.266	0.288
Mof_C 	C 	0.04953	0.21446	0.85259	0.407
Mof_C 	C 	0.07995	0.23505	0.87322	-0.182
Mof_C 	C 	0.09062	0.2692	0.8626	0.158
Mof_H 	H 	0.0788	0.2803	0.842	-0.02
Mof_O 	O 	0.0382	0.22986	0.82409	-0.444
Mof_O 	O 	0.03777	0.18576	0.86732	-0.426
Mof_H 	H 	0.015	0.241	0.734	0.295
Mof_C 	C 	0.04953	0.71446	0.35259	0.407
Mof_C 	C 	0.07995	0.73505	0.37322	-0.183
Mof_C 	C 	0.09062	0.7692	0.3626	0.159
Mof_H 	H 	0.0788	0.7803	0.342	-0.02
Mof_O 	O 	0.0382	0.72986	0.32409	-0.444
Mof_O 	O 	0.03777	0.68576	0.36732	-0.426
Mof_H 	H 	0.015	0.741	0.234	0.295
Mof_C 	C 	0.54953	0.21446	0.35259	0.407
Mof_C 	C 	0.57995	0.23505	0.37322	-0.181
Mof_C 	C 	0.59062	0.2692	0.3626	0.158
Mof_H 	H 	0.5788	0.2803	0.342	-0.019
Mof_O 	O 	0.5382	0.22986	0.32409	-0.441
Mof_O 	O 	0.53777	0.18576	0.36732	-0.424
Mof_H 	H 	0.515	0.241	0.234	0.288
Mof_C 	C 	0.54953	0.71446	0.85259	0.406
Mof_C 	C 	0.57995	0.73505	0.87322	-0.18
Mof_C 	C 	0.59062	0.7692	0.8626	0.158
Mof_H 	H 	0.5788	0.7803	0.842	-0.019
Mof_O 	O 	0.5382	0.72986	0.82409	-0.441
Mof_O 	O 	0.53777	0.68576	0.86732	-0.423
Mof_H 	H 	0.515	0.741	0.734	0.288
Mof_C 	C 	0.95047	0.78554	0.85259	0.406
Mof_C 	C 	0.92005	0.76495	0.87322	-0.179
Mof_C 	C 	0.90938	0.7308	0.8626	0.157
Mof_H 	H 	0.9212	0.7197	0.842	-0.019
Mof_O 	O 	0.9618	0.77014	0.82409	-0.438
Mof_O 	O 	0.96223	0.81424	0.86732	-0.418
Mof_H 	H 	0.985	0.759	0.734	0.299
Mof_C 	C 	0.95047	0.28554	0.35259	0.406
Mof_C 	C 	0.92005	0.26495	0.37322	-0.18
Mof_C 	C 	0.90938	0.2308	0.3626	0.158
Mof_H 	H 	0.9212	0.2197	0.342	-0.019
Mof_O 	O 	0.9618	0.27014	0.32409	-0.438
Mof_O 	O 	0.96223	0.31424	0.36732	-0.419
Mof_H 	H 	0.985	0.259	0.234	0.299
Mof_C 	C 	0.45047	0.78554	0.35259	0.406
Mof_C 	C 	0.42005	0.76495	0.37322	-0.181
Mof_C 	C 	0.40938	0.7308	0.3626	0.158
Mof_H 	H 	0.4212	0.7197	0.342	-0.019
Mof_O 	O 	0.4618	0.77014	0.32409	-0.441
Mof_O 	O 	0.46223	0.81424	0.36732	-0.424
Mof_H 	H 	0.485	0.759	0.234	0.288
Mof_C 	C 	0.45047	0.28554	0.85259	0.406
Mof_C 	C 	0.42005	0.26495	0.87322	-0.18
Mof_C 	C 	0.40938	0.2308	0.8626	0.158
Mof_H 	H 	0.4212	0.2197	0.842	-0.019
Mof_O 	O 	0.4618	0.27014	0.82409	-0.441
Mof_O 	O 	0.46223	0.31424	0.86732	-0.423
Mof_H 	H 	0.485	0.259	0.734	0.288
Mof_C 	C 	0.78554	0.85259	0.95047	0.406
Mof_C 	C 	0.76495	0.87322	0.92005	-0.179
Mof_C 	C 	0.7308	0.8626	0.90938	0.157
Mof_H 	H 	0.7197	0.842	0.9212	-0.019
Mof_O 	O 	0.77014	0.82409	0.9618	-0.438
Mof_O 	O 	0.81424	0.86732	0.96223	-0.418
Mof_H 	H 	0.759	0.734	0.985	0.299
Mof_C 	C 	0.78554	0.35259	0.45047	0.406
Mof_C 	C 	0.76495	0.37322	0.42005	-0.181
Mof_C 	C 	0.7308	0.3626	0.40938	0.158
Mof_H 	H 	0.7197	0.342	0.4212	-0.019
Mof_O 	O 	0.77014	0.32409	0.4618	-0.441
Mof_O 	O 	0.81424	0.36732	0.46223	-0.424
Mof_H 	H 	0.759	0.234	0.485	0.288
Mof_C 	C 	0.28554	0.85259	0.45047	0.406
Mof_C 	C 	0.26495	0.87322	0.42005	-0.18
Mof_C 	C 	0.2308	0.8626	0.40938	0.158
Mof_H 	H 	0.2197	0.842	0.4212	-0.019
Mof_O 	O 	0.27014	0.82409	0.4618	-0.441
Mof_O 	O 	0.31424	0.86732	0.46223	-0.423
Mof_H 	H 	0.259	0.734	0.485	0.288
Mof_C 	C 	0.28554	0.35259	0.95047	0.406
Mof_C 	C 	0.26495	0.37322	0.92005	-0.18
Mof_C 	C 	0.2308	0.3626	0.90938	0.158
Mof_H 	H 	0.2197	0.342	0.9212	-0.019
Mof_O 	O 	0.27014	0.32409	0.9618	-0.438
Mof_O 	O 	0.31424	0.36732	0.96223	-0.419
Mof_H 	H 	0.259	0.234	0.985	0.299
Mof_C 	C 	0.21446	0.85259	0.04953	0.407
Mof_C 	C 	0.23505	0.87322	0.07995	-0.182
Mof_C 	C 	0.2692	0.8626	0.09062	0.158
Mof_H 	H 	0.2803	0.842	0.0788	-0.02
Mof_O 	O 	0.22986	0.82409	0.0382	-0.444
Mof_O 	O 	0.18576	0.86732	0.03777	-0.426
Mof_H 	H 	0.241	0.734	0.015	0.295
Mof_C 	C 	0.21446	0.35259	0.54953	0.407
Mof_C 	C 	0.23505	0.37322	0.57995	-0.181
Mof_C 	C 	0.2692	0.3626	0.59062	0.158
Mof_H 	H 	0.2803	0.342	0.5788	-0.019
Mof_O 	O 	0.22986	0.32409	0.5382	-0.441
Mof_O 	O 	0.18576	0.36732	0.53777	-0.424
Mof_H 	H 	0.241	0.234	0.515	0.288
Mof_C 	C 	0.71446	0.85259	0.54953	0.406
Mof_C 	C 	0.73505	0.87322	0.57995	-0.18
Mof_C 	C 	0.7692	0.8626	0.59062	0.158
Mof_H 	H 	0.7803	0.842	0.5788	-0.019
Mof_O 	O 	0.72986	0.82409	0.5382	-0.441
Mof_O 	O 	0.68576	0.86732	0.53777	-0.423
Mof_H 	H 	0.741	0.734	0.515	0.288
Mof_C 	C 	0.71446	0.35259	0.04953	0.407
Mof_C 	C 	0.73505	0.37322	0.07995	-0.183
Mof_C 	C 	0.7692	0.3626	0.09062	0.159
Mof_H 	H 	0.7803	0.342	0.0788	-0.02
Mof_O 	O 	0.72986	0.32409	0.0382	-0.444
Mof_O 	O 	0.68576	0.36732	0.03777	-0.426
Mof_H 	H 	0.741	0.234	0.015	0.295
Mof_C 	C 	0.21446	0.14741	0.95047	0.406
Mof_C 	C 	0.23505	0.12678	0.92005	-0.181
Mof_C 	C 	0.2692	0.1374	0.90938	0.158
Mof_H 	H 	0.2803	0.158	0.9212	-0.019
Mof_O 	O 	0.22986	0.17591	0.9618	-0.438
Mof_O 	O 	0.18576	0.13268	0.96223	-0.42
Mof_H 	H 	0.241	0.266	0.985	0.3
Mof_C 	C 	0.21446	0.64741	0.45047	0.407
Mof_C 	C 	0.23505	0.62678	0.42005	-0.181
Mof_C 	C 	0.2692	0.6374	0.40938	0.158
Mof_H 	H 	0.2803	0.658	0.4212	-0.019
Mof_O 	O 	0.22986	0.67591	0.4618	-0.441
Mof_O 	O 	0.18576	0.63268	0.46223	-0.424
Mof_H 	H 	0.241	0.766	0.485	0.288
Mof_C 	C 	0.71446	0.14741	0.45047	0.407
Mof_C 	C 	0.73505	0.12678	0.42005	-0.182
Mof_C 	C 	0.7692	0.1374	0.40938	0.158
Mof_H 	H 	0.7803	0.158	0.4212	-0.019
Mof_O 	O 	0.72986	0.17591	0.4618	-0.442
Mof_O 	O 	0.68576	0.13268	0.46223	-0.425
Mof_H 	H 	0.741	0.266	0.485	0.288
Mof_C 	C 	0.71446	0.64741	0.95047	0.406
Mof_C 	C 	0.73505	0.62678	0.92005	-0.18
Mof_C 	C 	0.7692	0.6374	0.90938	0.158
Mof_H 	H 	0.7803	0.658	0.9212	-0.019
Mof_O 	O 	0.72986	0.67591	0.9618	-0.438
Mof_O 	O 	0.68576	0.63268	0.96223	-0.419
Mof_H 	H 	0.741	0.766	0.985	0.3
Mof_C 	C 	0.78554	0.14741	0.04953	0.407
Mof_C 	C 	0.76495	0.12678	0.07995	-0.183
Mof_C 	C 	0.7308	0.1374	0.09062	0.159
Mof_H 	H 	0.7197	0.158	0.0788	-0.021
Mof_O 	O 	0.77014	0.17591	0.0382	-0.444
Mof_O 	O 	0.81424	0.13268	0.03777	-0.427
Mof_H 	H 	0.759	0.266	0.015	0.295
Mof_C 	C 	0.78554	0.64741	0.54953	0.406
Mof_C 	C 	0.76495	0.62678	0.57995	-0.181
Mof_C 	C 	0.7308	0.6374	0.59062	0.158
Mof_H 	H 	0.7197	0.658	0.5788	-0.019
Mof_O 	O 	0.77014	0.67591	0.5382	-0.441
Mof_O 	O 	0.81424	0.63268	0.53777	-0.424
Mof_H 	H 	0.759	0.766	0.515	0.288
Mof_C 	C 	0.28554	0.14741	0.54953	0.407
Mof_C 	C 	0.26495	0.12678	0.57995	-0.182
Mof_C 	C 	0.2308	0.1374	0.59062	0.158
Mof_H 	H 	0.2197	0.158	0.5788	-0.02
Mof_O 	O 	0.27014	0.17591	0.5382	-0.442
Mof_O 	O 	0.31424	0.13268	0.53777	-0.425
Mof_H 	H 	0.259	0.266	0.515	0.288
Mof_C 	C 	0.28554	0.64741	0.04953	0.407
Mof_C 	C 	0.26495	0.62678	0.07995	-0.183
Mof_C 	C 	0.2308	0.6374	0.09062	0.158
Mof_H 	H 	0.2197	0.658	0.0788	-0.02
Mof_O 	O 	0.27014	0.67591	0.0382	-0.444
Mof_O 	O 	0.31424	0.63268	0.03777	-0.427
Mof_H 	H 	0.259	0.766	0.015	0.295
Mof_C 	C 	0.85259	0.04953	0.21446	0.407
Mof_C 	C 	0.87322	0.07995	0.23505	-0.182
Mof_C 	C 	0.8626	0.09062	0.2692	0.158
Mof_H 	H 	0.842	0.0788	0.2803	-0.02
Mof_O 	O 	0.82409	0.0382	0.22986	-0.444
Mof_O 	O 	0.86732	0.03777	0.18576	-0.426
Mof_H 	H 	0.734	0.015	0.241	0.295
Mof_C 	C 	0.85259	0.54953	0.71446	0.406
Mof_C 	C 	0.87322	0.57995	0.73505	-0.18
Mof_C 	C 	0.8626	0.59062	0.7692	0.158
Mof_H 	H 	0.842	0.5788	0.7803	-0.019
Mof_O 	O 	0.82409	0.5382	0.72986	-0.441
Mof_O 	O 	0.86732	0.53777	0.68576	-0.423
Mof_H 	H 	0.734	0.515	0.741	0.288
Mof_C 	C 	0.35259	0.04953	0.71446	0.407
Mof_C 	C 	0.37322	0.07995	0.73505	-0.183
Mof_C 	C 	0.3626	0.09062	0.7692	0.159
Mof_H 	H 	0.342	0.0788	0.7803	-0.02
Mof_O 	O 	0.32409	0.0382	0.72986	-0.444
Mof_O 	O 	0.36732	0.03777	0.68576	-0.426
Mof_H 	H 	0.234	0.015	0.741	0.295
Mof_C 	C 	0.35259	0.54953	0.21446	0.407
Mof_C 	C 	0.37322	0.57995	0.23505	-0.181
Mof_C 	C 	0.3626	0.59062	0.2692	0.158
Mof_H 	H 	0.342	0.5788	0.2803	-0.019
Mof_O 	O 	0.32409	0.5382	0.22986	-0.441
Mof_O 	O 	0.36732	0.53777	0.18576	-0.424
Mof_H 	H 	0.234	0.515	0.241	0.288
Mof_C 	C 	0.85259	0.95047	0.78554	0.406
Mof_C 	C 	0.87322	0.92005	0.76495	-0.179
Mof_C 	C 	0.8626	0.90938	0.7308	0.157
Mof_H 	H 	0.842	0.9212	0.7197	-0.019
Mof_O 	O 	0.82409	0.9618	0.77014	-0.438
Mof_O 	O 	0.86732	0.96223	0.81424	-0.418
Mof_H 	H 	0.734	0.985	0.759	0.299
Mof_C 	C 	0.85259	0.45047	0.28554	0.406
Mof_C 	C 	0.87322	0.42005	0.26495	-0.18
Mof_C 	C 	0.8626	0.40938	0.2308	0.158
Mof_H 	H 	0.842	0.4212	0.2197	-0.019
Mof_O 	O 	0.82409	0.4618	0.27014	-0.441
Mof_O 	O 	0.86732	0.46223	0.31424	-0.423
Mof_H 	H 	0.734	0.485	0.259	0.288
Mof_C 	C 	0.35259	0.95047	0.28554	0.406
Mof_C 	C 	0.37322	0.92005	0.26495	-0.18
Mof_C 	C 	0.3626	0.90938	0.2308	0.158
Mof_H 	H 	0.342	0.9212	0.2197	-0.019
Mof_O 	O 	0.32409	0.9618	0.27014	-0.438
Mof_O 	O 	0.36732	0.96223	0.31424	-0.419
Mof_H 	H 	0.234	0.985	0.259	0.299
Mof_C 	C 	0.35259	0.45047	0.78554	0.406
Mof_C 	C 	0.37322	0.42005	0.76495	-0.181
Mof_C 	C 	0.3626	0.40938	0.7308	0.158
Mof_H 	H 	0.342	0.4212	0.7197	-0.019
Mof_O 	O 	0.32409	0.4618	0.77014	-0.441
Mof_O 	O 	0.36732	0.46223	0.81424	-0.424
Mof_H 	H 	0.234	0.485	0.759	0.288
Mof_C 	C 	0.14741	0.04953	0.78554	0.407
Mof_C 	C 	0.12678	0.07995	0.76495	-0.183
Mof_C 	C 	0.1374	0.09062	0.7308	0.159
Mof_H 	H 	0.158	0.0788	0.7197	-0.021
Mof_O 	O 	0.17591	0.0382	0.77014	-0.444
Mof_O 	O 	0.13268	0.03777	0.81424	-0.427
Mof_H 	H 	0.266	0.015	0.759	0.295
Mof_C 	C 	0.14741	0.54953	0.28554	0.407
Mof_C 	C 	0.12678	0.57995	0.26495	-0.182
Mof_C 	C 	0.1374	0.59062	0.2308	0.158
Mof_H 	H 	0.158	0.5788	0.2197	-0.02
Mof_O 	O 	0.17591	0.5382	0.27014	-0.442
Mof_O 	O 	0.13268	0.53777	0.31424	-0.425
Mof_H 	H 	0.266	0.515	0.259	0.288
Mof_C 	C 	0.64741	0.04953	0.28554	0.407
Mof_C 	C 	0.62678	0.07995	0.26495	-0.183
Mof_C 	C 	0.6374	0.09062	0.2308	0.158
Mof_H 	H 	0.658	0.0788	0.2197	-0.02
Mof_O 	O 	0.67591	0.0382	0.27014	-0.444
Mof_O 	O 	0.63268	0.03777	0.31424	-0.427
Mof_H 	H 	0.766	0.015	0.259	0.295
Mof_C 	C 	0.64741	0.54953	0.78554	0.406
Mof_C 	C 	0.62678	0.57995	0.76495	-0.181
Mof_C 	C 	0.6374	0.59062	0.7308	0.158
Mof_H 	H 	0.658	0.5788	0.7197	-0.019
Mof_O 	O 	0.67591	0.5382	0.77014	-0.441
Mof_O 	O 	0.63268	0.53777	0.81424	-0.424
Mof_H 	H 	0.766	0.515	0.759	0.288
Mof_C 	C 	0.14741	0.95047	0.21446	0.406
Mof_C 	C 	0.12678	0.92005	0.23505	-0.181
Mof_C 	C 	0.1374	0.90938	0.2692	0.158
Mof_H 	H 	0.158	0.9212	0.2803	-0.019
Mof_O 	O 	0.17591	0.9618	0.22986	-0.438
Mof_O 	O 	0.13268	0.96223	0.18576	-0.42
Mof_H 	H 	0.266	0.985	0.241	0.3
Mof_C 	C 	0.14741	0.45047	0.71446	0.407
Mof_C 	C 	0.12678	0.42005	0.73505	-0.182
Mof_C 	C 	0.1374	0.40938	0.7692	0.158
Mof_H 	H 	0.158	0.4212	0.7803	-0.019
Mof_O 	O 	0.17591	0.4618	0.72986	-0.442
Mof_O 	O 	0.13268	0.46223	0.68576	-0.425
Mof_H 	H 	0.266	0.485	0.741	0.288
Mof_C 	C 	0.64741	0.95047	0.71446	0.406
Mof_C 	C 	0.62678	0.92005	0.73505	-0.18
Mof_C 	C 	0.6374	0.90938	0.7692	0.158
Mof_H 	H 	0.658	0.9212	0.7803	-0.019
Mof_O 	O 	0.67591	0.9618	0.72986	-0.438
Mof_O 	O 	0.63268	0.96223	0.68576	-0.419
Mof_H 	H 	0.766	0.985	0.741	0.3
Mof_C 	C 	0.64741	0.45047	0.21446	0.407
Mof_C 	C 	0.62678	0.42005	0.23505	-0.181
Mof_C 	C 	0.6374	0.40938	0.2692	0.158
Mof_H 	H 	0.658	0.4212	0.2803	-0.019
Mof_O 	O 	0.67591	0.4618	0.22986	-0.441
Mof_O 	O 	0.63268	0.46223	0.18576	-0.424
Mof_H 	H 	0.766	0.485	0.241	0.288
Mof_Cu	Cu	0.20628	2.12151e-33	0.20628	0.9
Mof_Cu	Cu	0.15505	0	0.15505	0.906
Mof_Cu	Cu	0.20628	0.5	0.70628	0.905
Mof_Cu	Cu	0.15505	0.5	0.65505	0.91
Mof_Cu	Cu	0.70628	0	0.70628	0.9
Mof_Cu	Cu	0.65505	0	0.65505	0.906
Mof_Cu	Cu	0.70628	0.5	0.20628	0.905
Mof_Cu	Cu	0.65505	0.5	0.15505	0.91
Mof_Cu	Cu	0.79372	2.12151e-33	0.20628	0.9
Mof_Cu	Cu	0.84495	0	0.15505	0.906
Mof_Cu	Cu	0.79372	0.5	0.70628	0.905
Mof_Cu	Cu	0.84495	0.5	0.65505	0.911
Mof_Cu	Cu	0.29372	0	0.70628	0.9
Mof_Cu	Cu	0.34495	0	0.65505	0.906
Mof_Cu	Cu	0.29372	0.5	0.20628	0.905
Mof_Cu	Cu	0.34495	0.5	0.15505	0.91
Mof_Cu	Cu	0.79372	-8.48605e-33	0.79372	0.9
Mof_Cu	Cu	0.84495	0	0.84495	0.907
Mof_Cu	Cu	0.79372	0.5	0.29372	0.905
Mof_Cu	Cu	0.84495	0.5	0.34495	0.911
Mof_Cu	Cu	0.29372	2.12151e-33	0.29372	0.9
Mof_Cu	Cu	0.34495	0	0.34495	0.906
Mof_Cu	Cu	0.29372	0.5	0.79372	0.905
Mof_Cu	Cu	0.34495	0.5	0.84495	0.911
Mof_Cu	Cu	0.20628	-8.48605e-33	0.79372	0.9
Mof_Cu	Cu	0.15505	0	0.84495	0.906
Mof_Cu	Cu	0.20628	0.5	0.29372	0.905
Mof_Cu	Cu	0.15505	0.5	0.34495	0.91
Mof_Cu	Cu	0.70628	2.12151e-33	0.29372	0.9
Mof_Cu	Cu	0.65505	0	0.34495	0.906
Mof_Cu	Cu	0.70628	0.5	0.79372	0.905
Mof_Cu	Cu	0.65505	0.5	0.84495	0.911
Mof_Cu	Cu	0.20628	0.20628	-0	0.9
Mof_Cu	Cu	0.15505	0.15505	-0	0.906
Mof_Cu	Cu	0.20628	0.70628	0.5	0.905
Mof_Cu	Cu	0.15505	0.65505	0.5	0.91
Mof_Cu	Cu	0.70628	0.20628	0.5	0.905
Mof_Cu	Cu	0.65505	0.15505	0.5	0.91
Mof_Cu	Cu	0.70628	0.70628	-0	0.9
Mof_Cu	Cu	0.65505	0.65505	-0	0.906
Mof_Cu	Cu	0.20628	0.79372	-0	0.9
Mof_Cu	Cu	0.15505	0.84495	-0	0.906
Mof_Cu	Cu	0.20628	0.29372	0.5	0.905
Mof_Cu	Cu	0.15505	0.34495	0.5	0.91
Mof_Cu	Cu	0.70628	0.79372	0.5	0.905
Mof_Cu	Cu	0.65505	0.84495	0.5	0.911
Mof_Cu	Cu	0.70628	0.29372	-0	0.9
Mof_Cu	Cu	0.65505	0.34495	-0	0.906
Mof_Cu	Cu	0.79372	0.79372	-0	0.9
Mof_Cu	Cu	0.84495	0.84495	-0	0.907
Mof_Cu	Cu	0.79372	0.29372	0.5	0.905
Mof_Cu	Cu	0.84495	0.34495	0.5	0.911
Mof_Cu	Cu	0.29372	0.79372	0.5	0.905
Mof_Cu	Cu	0.34495	0.84495	0.5	0.911
Mof_Cu	Cu	0.29372	0.29372	-0	0.9
Mof_Cu	Cu	0.34495	0.34495	-0	0.906
Mof_Cu	Cu	0.79372	0.20628	-0	0.9
Mof_Cu	Cu	0.84495	0.15505	-0	0.906
Mof_Cu	Cu	0.79372	0.70628	0.5	0.905
Mof_Cu	Cu	0.84495	0.65505	0.5	0.911
Mof_Cu	Cu	0.29372	0.20628	0.5	0.905
Mof_Cu	Cu	0.34495	0.15505	0.5	0.91
Mof_Cu	Cu	0.29372	0.70628	-0	0.9
Mof_Cu	Cu	0.34495	0.65505	-0	0.906
Mof_Cu	Cu	-1.34809e-33	0.20628	0.20628	0.9
Mof_Cu	Cu	2.70286e-33	0.15505	0.15505	0.906
Mof_Cu	Cu	2.64813e-33	0.70628	0.70628	0.9
Mof_Cu	Cu	2.45604e-33	0.65505	0.65505	0.906
Mof_Cu	Cu	0.5	0.20628	0.70628	0.905
Mof_Cu	Cu	0.5	0.15505	0.65505	0.91
Mof_Cu	Cu	0.5	0.70628	0.20628	0.905
Mof_Cu	Cu	0.5	0.65505	0.15505	0.91
Mof_Cu	Cu	-5.51008e-33	0.20628	0.79372	0.9
Mof_Cu	Cu	3.16806e-33	0.15505	0.84495	0.906
Mof_Cu	Cu	-3.14175e-33	0.70628	0.29372	0.9
Mof_Cu	Cu	-2.94967e-33	0.65505	0.34495	0.906
Mof_Cu	Cu	0.5	0.20628	0.29372	0.905
Mof_Cu	Cu	0.5	0.15505	0.34495	0.91
Mof_Cu	Cu	0.5	0.70628	0.79372	0.905
Mof_Cu	Cu	0.5	0.65505	0.84495	0.911
Mof_Cu	Cu	2.97597e-33	0.79372	0.79372	0.9
Mof_Cu	Cu	1.16541e-32	0.84495	0.84495	0.907
Mof_Cu	Cu	1.10127e-33	0.29372	0.29372	0.9
Mof_Cu	Cu	1.29336e-33	0.34495	0.34495	0.906
Mof_Cu	Cu	0.5	0.79372	0.29372	0.905
Mof_Cu	Cu	0.5	0.84495	0.34495	0.911
Mof_Cu	Cu	0.5	0.29372	0.79372	0.905
Mof_Cu	Cu	0.5	0.34495	0.84495	0.911
Mof_Cu	Cu	-3.4696e-33	0.79372	0.20628	0.9
Mof_Cu	Cu	-4.79412e-34	0.84495	0.15505	0.906
Mof_Cu	Cu	-5.83793e-33	0.29372	0.70628	0.9
Mof_Cu	Cu	-6.03001e-33	0.34495	0.65505	0.906
Mof_Cu	Cu	0.5	0.79372	0.70628	0.905
Mof_Cu	Cu	0.5	0.84495	0.65505	0.911
Mof_Cu	Cu	0.5	0.29372	0.20628	0.905
Mof_Cu	Cu	0.5	0.34495	0.15505	0.91
Mof_C 	C 	0.2185	0.90317	0.09683	0.119
Mof_H 	H 	0.1956	0.9122	0.0878	0.025
Mof_C 	C 	0.2894	0.88113	0.11887	-0.283
Mof_C 	C 	0.3255	0.8699	0.1301	0.574
Mof_C 	C 	0.2185	0.40317	0.59683	0.119
Mof_H 	H 	0.1956	0.4122	0.5878	0.025
Mof_C 	C 	0.2894	0.38113	0.61887	-0.283
Mof_C 	C 	0.3255	0.3699	0.6301	0.574
Mof_C 	C 	0.7185	0.90317	0.59683	0.118
Mof_H 	H 	0.6956	0.9122	0.5878	0.026
Mof_C 	C 	0.7894	0.88113	0.61887	-0.282
Mof_C 	C 	0.8255	0.8699	0.6301	0.574
Mof_C 	C 	0.7185	0.40317	0.09683	0.119
Mof_H 	H 	0.6956	0.4122	0.0878	0.024
Mof_C 	C 	0.7894	0.38113	0.11887	-0.284
Mof_C 	C 	0.8255	0.3699	0.1301	0.574
Mof_C 	C 	0.7815	0.09683	0.09683	0.119
Mof_H 	H 	0.8044	0.0878	0.0878	0.023
Mof_C 	C 	0.7106	0.11887	0.11887	-0.284
Mof_C 	C 	0.6745	0.1301	0.1301	0.573
Mof_C 	C 	0.7815	0.59683	0.59683	0.118
Mof_H 	H 	0.8044	0.5878	0.5878	0.025
Mof_C 	C 	0.7106	0.61887	0.61887	-0.283
Mof_C 	C 	0.6745	0.6301	0.6301	0.573
Mof_C 	C 	0.2815	0.09683	0.59683	0.119
Mof_H 	H 	0.3044	0.0878	0.5878	0.024
Mof_C 	C 	0.2106	0.11887	0.61887	-0.284
Mof_C 	C 	0.1745	0.1301	0.6301	0.573
Mof_C 	C 	0.2815	0.59683	0.09683	0.119
Mof_H 	H 	0.3044	0.5878	0.0878	0.024
Mof_C 	C 	0.2106	0.61887	0.11887	-0.284
Mof_C 	C 	0.1745	0.6301	0.1301	0.573
Mof_C 	C 	0.7815	0.90317	0.90317	0.117
Mof_H 	H 	0.8044	0.9122	0.9122	0.027
Mof_C 	C 	0.7106	0.88113	0.88113	-0.282
Mof_C 	C 	0.6745	0.8699	0.8699	0.574
Mof_C 	C 	0.7815	0.40317	0.40317	0.118
Mof_H 	H 	0.8044	0.4122	0.4122	0.025
Mof_C 	C 	0.7106	0.38113	0.38113	-0.283
Mof_C 	C 	0.6745	0.3699	0.3699	0.574
Mof_C 	C 	0.2815	0.90317	0.40317	0.118
Mof_H 	H 	0.3044	0.9122	0.4122	0.026
Mof_C 	C 	0.2106	0.88113	0.38113	-0.282
Mof_C 	C 	0.1745	0.8699	0.3699	0.574
Mof_C 	C 	0.2815	0.40317	0.90317	0.118
Mof_H 	H 	0.3044	0.4122	0.9122	0.026
Mof_C 	C 	0.2106	0.38113	0.88113	-0.282
Mof_C 	C 	0.1745	0.3699	0.8699	0.574
Mof_C 	C 	0.2185	0.09683	0.90317	0.119
Mof_H 	H 	0.1956	0.0878	0.9122	0.025
Mof_C 	C 	0.2894	0.11887	0.88113	-0.283
Mof_C 	C 	0.3255	0.1301	0.8699	0.574
Mof_C 	C 	0.2185	0.59683	0.40317	0.119
Mof_H 	H 	0.1956	0.5878	0.4122	0.025
Mof_C 	C 	0.2894	0.61887	0.38113	-0.283
Mof_C 	C 	0.3255	0.6301	0.3699	0.574
Mof_C 	C 	0.7185	0.09683	0.40317	0.119
Mof_H 	H 	0.6956	0.0878	0.4122	0.024
Mof_C 	C 	0.7894	0.11887	0.38113	-0.284
Mof_C 	C 	0.8255	0.1301	0.3699	0.574
Mof_C 	C 	0.7185	0.59683	0.90317	0.118
Mof_H 	H 	0.6956	0.5878	0.9122	0.026
Mof_C 	C 	0.7894	0.61887	0.88113	-0.282
Mof_C 	C 	0.8255	0.6301	0.8699	0.574
Mof_C 	C 	0.09683	0.2185	0.90317	0.119
Mof_H 	H 	0.0878	0.1956	0.9122	0.025
Mof_C 	C 	0.11887	0.2894	0.88113	-0.283
Mof_C 	C 	0.1301	0.3255	0.8699	0.574
Mof_C 	C 	0.09683	0.7185	0.40317	0.119
Mof_H 	H 	0.0878	0.6956	0.4122	0.024
Mof_C 	C 	0.11887	0.7894	0.38113	-0.284
Mof_C 	C 	0.1301	0.8255	0.3699	0.574
Mof_C 	C 	0.59683	0.2185	0.40317	0.119
Mof_H 	H 	0.5878	0.1956	0.4122	0.025
Mof_C 	C 	0.61887	0.2894	0.38113	-0.283
Mof_C 	C 	0.6301	0.3255	0.3699	0.574
Mof_C 	C 	0.59683	0.7185	0.90317	0.118
Mof_H 	H 	0.5878	0.6956	0.9122	0.026
Mof_C 	C 	0.61887	0.7894	0.88113	-0.282
Mof_C 	C 	0.6301	0.8255	0.8699	0.574
Mof_C 	C 	0.09683	0.7815	0.09683	0.119
Mof_H 	H 	0.0878	0.8044	0.0878	0.023
Mof_C 	C 	0.11887	0.7106	0.11887	-0.284
Mof_C 	C 	0.1301	0.6745	0.1301	0.573
Mof_C 	C 	0.09683	0.2815	0.59683	0.119
Mof_H 	H 	0.0878	0.3044	0.5878	0.024
Mof_C 	C 	0.11887	0.2106	0.61887	-0.284
Mof_C 	C 	0.1301	0.1745	0.6301	0.573
Mof_C 	C 	0.59683	0.7815	0.59683	0.118
Mof_H 	H 	0.5878	0.8044	0.5878	0.025
Mof_C 	C 	0.61887	0.7106	0.61887	-0.283
Mof_C 	C 	0.6301	0.6745	0.6301	0.573
Mof_C 	C 	0.59683	0.2815	0.09683	0.119
Mof_H 	H 	0.5878	0.3044	0.0878	0.024
Mof_C 	C 	0.61887	0.2106	0.11887	-0.284
Mof_C 	C 	0.6301	0.1745	0.1301	0.573
Mof_C 	C 	0.90317	0.7815	0.90317	0.117
Mof_H 	H 	0.9122	0.8044	0.9122	0.027
Mof_C 	C 	0.88113	0.7106	0.88113	-0.282
Mof_C 	C 	0.8699	0.6745	0.8699	0.574
Mof_C 	C 	0.90317	0.2815	0.40317	0.118
Mof_H 	H 	0.9122	0.3044	0.4122	0.026
Mof_C 	C 	0.88113	0.2106	0.38113	-0.282
Mof_C 	C 	0.8699	0.1745	0.3699	0.574
Mof_C 	C 	0.40317	0.7815	0.40317	0.118
Mof_H 	H 	0.4122	0.8044	0.4122	0.025
Mof_C 	C 	0.38113	0.7106	0.38113	-0.283
Mof_C 	C 	0.3699	0.6745	0.3699	0.574
Mof_C 	C 	0.40317	0.2815	0.90317	0.118
Mof_H 	H 	0.4122	0.3044	0.9122	0.026
Mof_C 	C 	0.38113	0.2106	0.88113	-0.282
Mof_C 	C 	0.3699	0.1745	0.8699	0.574
Mof_C 	C 	0.90317	0.2185	0.09683	0.119
Mof_H 	H 	0.9122	0.1956	0.0878	0.025
Mof_C 	C 	0.88113	0.2894	0.11887	-0.283
Mof_C 	C 	0.8699	0.3255	0.1301	0.574
Mof_C 	C 	0.90317	0.7185	0.59683	0.118
Mof_H 	H 	0.9122	0.6956	0.5878	0.026
Mof_C 	C 	0.88113	0.7894	0.61887	-0.282
Mof_C 	C 	0.8699	0.8255	0.6301	0.574
Mof_C 	C 	0.40317	0.2185	0.59683	0.119
Mof_H 	H 	0.4122	0.1956	0.5878	0.025
Mof_C 	C 	0.38113	0.2894	0.61887	-0.283
Mof_C 	C 	0.3699	0.3255	0.6301	0.574
Mof_C 	C 	0.40317	0.7185	0.09683	0.119
Mof_H 	H 	0.4122	0.6956	0.0878	0.024
Mof_C 	C 	0.38113	0.7894	0.11887	-0.284
Mof_C 	C 	0.3699	0.8255	0.1301	0.574
Mof_C 	C 	0.90317	0.09683	0.2185	0.119
Mof_H 	H 	0.9122	0.0878	0.1956	0.025
Mof_C 	C 	0.88113	0.11887	0.2894	-0.283
Mof_C 	C 	0.8699	0.1301	0.3255	0.574
Mof_C 	C 	0.90317	0.59683	0.7185	0.118
Mof_H 	H 	0.9122	0.5878	0.6956	0.026
Mof_C 	C 	0.88113	0.61887	0.7894	-0.282
Mof_C 	C 	0.8699	0.6301	0.8255	0.574
Mof_C 	C 	0.40317	0.09683	0.7185	0.119
Mof_H 	H 	0.4122	0.0878	0.6956	0.024
Mof_C 	C 	0.38113	0.11887	0.7894	-0.284
Mof_C 	C 	0.3699	0.1301	0.8255	0.574
Mof_C 	C 	0.40317	0.59683	0.2185	0.119
Mof_H 	H 	0.4122	0.5878	0.1956	0.025
Mof_C 	C 	0.38113	0.61887	0.2894	-0.283
Mof_C 	C 	0.3699	0.6301	0.3255	0.574
Mof_C 	C 	0.09683	0.09683	0.7815	0.119
Mof_H 	H 	0.0878	0.0878	0.8044	0.023
Mof_C 	C 	0.11887	0.11887	0.7106	-0.284
Mof_C 	C 	0.1301	0.1301	0.6745	0.573
Mof_C 	C 	0.09683	0.59683	0.2815	0.119
Mof_H 	H 	0.0878	0.5878	0.3044	0.024
Mof_C 	C 	0.11887	0.61887	0.2106	-0.284
Mof_C 	C 	0.1301	0.6301	0.1745	0.573
Mof_C 	C 	0.59683	0.09683	0.2815	0.119
Mof_H 	H 	0.5878	0.0878	0.3044	0.024
Mof_C 	C 	0.61887	0.11887	0.2106	-0.284
Mof_C 	C 	0.6301	0.1301	0.1745	0.573
Mof_C 	C 	0.59683	0.59683	0.7815	0.118
Mof_H 	H 	0.5878	0.5878	0.8044	0.025
Mof_C 	C 	0.61887	0.61887	0.7106	-0.283
Mof_C 	C 	0.6301	0.6301	0.6745	0.573
Mof_C 	C 	0.90317	0.90317	0.7815	0.117
Mof_H 	H 	0.9122	0.9122	0.8044	0.027
Mof_C 	C 	0.88113	0.88113	0.7106	-0.282
Mof_C 	C 	0.8699	0.8699	0.6745	0.574
Mof_C 	C 	0.90317	0.40317	0.2815	0.118
Mof_H 	H 	0.9122	0.4122	0.3044	0.026
Mof_C 	C 	0.88113	0.38113	0.2106	-0.282
Mof_C 	C 	0.8699	0.3699	0.1745	0.574
Mof_C 	C 	0.40317	0.90317	0.2815	0.118
Mof_H 	H 	0.4122	0.9122	0.3044	0.026
Mof_C 	C 	0.38113	0.88113	0.2106	-0.282
Mof_C 	C 	0.3699	0.8699	0.1745	0.574
Mof_C 	C 	0.40317	0.40317	0.7815	0.118
Mof_H 	H 	0.4122	0.4122	0.8044	0.025
Mof_C 	C 	0.38113	0.38113	0.7106	-0.283
Mof_C 	C 	0.3699	0.3699	0.6745	0.574
Mof_C 	C 	0.09683	0.90317	0.2185	0.119
Mof_H 	H 	0.0878	0.9122	0.1956	0.025
Mof_C 	C 	0.11887	0.88113	0.2894	-0.283
Mof_C 	C 	0.1301	0.8699	0.3255	0.574
Mof_C 	C 	0.09683	0.40317	0.7185	0.119
Mof_H 	H 	0.0878	0.4122	0.6956	0.024
Mof_C 	C 	0.11887	0.38113	0.7894	-0.284
Mof_C 	C 	0.1301	0.3699	0.8255	0.574
Mof_C 	C 	0.59683	0.90317	0.7185	0.118
Mof_H 	H 	0.5878	0.9122	0.6956	0.026
Mof_C 	C 	0.61887	0.88113	0.7894	-0.282
Mof_C 	C 	0.6301	0.8699	0.8255	0.574
Mof_C 	C 	0.59683	0.40317	0.2185	0.119
Mof_H 	H 	0.5878	0.4122	0.1956	0.025
Mof_C 	C 	0.61887	0.38113	0.2894	-0.283
Mof_C 	C 	0.6301	0.3699	0.3255	0.574
Mof_C 	C 	0.90317	0.2185	0.90317	0.118
Mof_H 	H 	0.9122	0.1956	0.9122	0.027
Mof_C 	C 	0.88113	0.2894	0.88113	-0.282
Mof_C 	C 	0.8699	0.3255	0.8699	0.575
Mof_C 	C 	0.90317	0.7185	0.40317	0.118
Mof_H 	H 	0.9122	0.6956	0.4122	0.026
Mof_C 	C 	0.88113	0.7894	0.38113	-0.282
Mof_C 	C 	0.8699	0.8255	0.3699	0.574
Mof_C 	C 	0.40317	0.2185	0.40317	0.119
Mof_H 	H 	0.4122	0.1956	0.4122	0.025
Mof_C 	C 	0.38113	0.2894	0.38113	-0.283
Mof_C 	C 	0.3699	0.3255	0.3699	0.574
Mof_C 	C 	0.40317	0.7185	0.90317	0.118
Mof_H 	H 	0.4122	0.6956	0.9122	0.026
Mof_C 	C 	0.38113	0.7894	0.88113	-0.282
Mof_C 	C 	0.3699	0.8255	0.8699	0.574
Mof_C 	C 	0.09683	0.7815	0.90317	0.118
Mof_H 	H 	0.0878	0.8044	0.9122	0.025
Mof_C 	C 	0.11887	0.7106	0.88113	-0.283
Mof_C 	C 	0.1301	0.6745	0.8699	0.574
Mof_C 	C 	0.09683	0.2815	0.40317	0.119
Mof_H 	H 	0.0878	0.3044	0.4122	0.024
Mof_C 	C 	0.11887	0.2106	0.38113	-0.284
Mof_C 	C 	0.1301	0.1745	0.3699	0.573
Mof_C 	C 	0.59683	0.7815	0.40317	0.118
Mof_H 	H 	0.5878	0.8044	0.4122	0.025
Mof_C 	C 	0.61887	0.7106	0.38113	-0.283
Mof_C 	C 	0.6301	0.6745	0.3699	0.574
Mof_C 	C 	0.59683	0.2815	0.90317	0.118
Mof_H 	H 	0.5878	0.3044	0.9122	0.026
Mof_C 	C 	0.61887	0.2106	0.88113	-0.282
Mof_C 	C 	0.6301	0.1745	0.8699	0.574
Mof_C 	C 	0.90317	0.7815	0.09683	0.118
Mof_H 	H 	0.9122	0.8044	0.0878	0.025
Mof_C 	C 	0.88113	0.7106	0.11887	-0.283
Mof_C 	C 	0.8699	0.6745	0.1301	0.574
Mof_C 	C 	0.90317	0.2815	0.59683	0.118
Mof_H 	H 	0.9122	0.3044	0.5878	0.026
Mof_C 	C 	0.88113	0.2106	0.61887	-0.282
Mof_C 	C 	0.8699	0.1745	0.6301	0.574
Mof_C 	C 	0.40317	0.7815	0.59683	0.118
Mof_H 	H 	0.4122	0.8044	0.5878	0.025
Mof_C 	C 	0.38113	0.7106	0.61887	-0.283
Mof_C 	C 	0.3699	0.6745	0.6301	0.574
Mof_C 	C 	0.40317	0.2815	0.09683	0.119
Mof_H 	H 	0.4122	0.3044	0.0878	0.024
Mof_C 	C 	0.38113	0.2106	0.11887	-0.284
Mof_C 	C 	0.3699	0.1745	0.1301	0.573
Mof_C 	C 	0.09683	0.2185	0.09683	0.12
Mof_H 	H 	0.0878	0.1956	0.0878	0.023
Mof_C 	C 	0.11887	0.2894	0.11887	-0.285
Mof_C 	C 	0.1301	0.3255	0.1301	0.573
Mof_C 	C 	0.09683	0.7185	0.59683	0.119
Mof_H 	H 	0.0878	0.6956	0.5878	0.024
Mof_C 	C 	0.11887	0.7894	0.61887	-0.284
Mof_C 	C 	0.1301	0.8255	0.6301	0.574
Mof_C 	C 	0.59683	0.2185	0.59683	0.119
Mof_H 	H 	0.5878	0.1956	0.5878	0.025
Mof_C 	C 	0.61887	0.2894	0.61887	-0.283
Mof_C 	C 	0.6301	0.3255	0.6301	0.574
Mof_C 	C 	0.59683	0.7185	0.09683	0.119
Mof_H 	H 	0.5878	0.6956	0.0878	0.024
Mof_C 	C 	0.61887	0.7894	0.11887	-0.284
Mof_C 	C 	0.6301	0.8255	0.1301	0.574
Mof_C 	C 	0.2185	0.09683	0.09683	0.12
Mof_H 	H 	0.1956	0.0878	0.0878	0.023
Mof_C 	C 	0.2894	0.11887	0.11887	-0.285
Mof_C 	C 	0.3255	0.1301	0.1301	0.573
Mof_C 	C 	0.2185	0.59683	0.59683	0.119
Mof_H 	H 	0.1956	0.5878	0.5878	0.025
Mof_C 	C 	0.2894	0.61887	0.61887	-0.283
Mof_C 	C 	0.3255	0.6301	0.6301	0.574
Mof_C 	C 	0.7185	0.09683	0.59683	0.119
Mof_H 	H 	0.6956	0.0878	0.5878	0.024
Mof_C 	C 	0.7894	0.11887	0.61887	-0.284
Mof_C 	C 	0.8255	0.1301	0.6301	0.574
Mof_C 	C 	0.7185	0.59683	0.09683	0.119
Mof_H 	H 	0.6956	0.5878	0.0878	0.024
Mof_C 	C 	0.7894	0.61887	0.11887	-0.284
Mof_C 	C 	0.8255	0.6301	0.1301	0.574
Mof_C 	C 	0.7815	0.09683	0.90317	0.118
Mof_H 	H 	0.8044	0.0878	0.9122	0.025
Mof_C 	C 	0.7106	0.11887	0.88113	-0.283
Mof_C 	C 	0.6745	0.1301	0.8699	0.574
Mof_C 	C 	0.7815	0.59683	0.40317	0.118
Mof_H 	H 	0.8044	0.5878	0.4122	0.025
Mof_C 	C 	0.7106	0.61887	0.38113	-0.283
Mof_C 	C 	0.6745	0.6301	0.3699	0.574
Mof_C 	C 	0.2815	0.09683	0.40317	0.119
Mof_H 	H 	0.3044	0.0878	0.4122	0.024
Mof_C 	C 	0.2106	0.11887	0.38113	-0.284
Mof_C 	C 	0.1745	0.1301	0.3699	0.573
Mof_C 	C 	0.2815	0.59683	0.90317	0.118
Mof_H 	H 	0.3044	0.5878	0.9122	0.026
Mof_C 	C 	0.2106	0.61887	0.88113	-0.282
Mof_C 	C 	0.1745	0.6301	0.8699	0.574
Mof_C 	C 	0.7815	0.90317	0.09683	0.118
Mof_H 	H 	0.8044	0.9122	0.0878	0.025
Mof_C 	C 	0.7106	0.88113	0.11887	-0.283
Mof_C 	C 	0.6745	0.8699	0.1301	0.574
Mof_C 	C 	0.7815	0.40317	0.59683	0.118
Mof_H 	H 	0.8044	0.4122	0.5878	0.025
Mof_C 	C 	0.7106	0.38113	0.61887	-0.283
Mof_C 	C 	0.6745	0.3699	0.6301	0.574
Mof_C 	C 	0.2815	0.90317	0.59683	0.118
Mof_H 	H 	0.3044	0.9122	0.5878	0.026
Mof_C 	C 	0.2106	0.88113	0.61887	-0.282
Mof_C 	C 	0.1745	0.8699	0.6301	0.574
Mof_C 	C 	0.2815	0.40317	0.09683	0.119
Mof_H 	H 	0.3044	0.4122	0.0878	0.024
Mof_C 	C 	0.2106	0.38113	0.11887	-0.284
Mof_C 	C 	0.1745	0.3699	0.1301	0.573
Mof_C 	C 	0.2185	0.90317	0.90317	0.118
Mof_H 	H 	0.1956	0.9122	0.9122	0.027
Mof_C 	C 	0.2894	0.88113	0.88113	-0.282
Mof_C 	C 	0.3255	0.8699	0.8699	0.575
Mof_C 	C 	0.2185	0.40317	0.40317	0.119
Mof_H 	H 	0.1956	0.4122	0.4122	0.025
Mof_C 	C 	0.2894	0.38113	0.38113	-0.283
Mof_C 	C 	0.3255	0.3699	0.3699	0.574
Mof_C 	C 	0.7185	0.90317	0.40317	0.118
Mof_H 	H 	0.6956	0.9122	0.4122	0.026
Mof_C 	C 	0.7894	0.88113	0.38113	-0.282
Mof_C 	C 	0.8255	0.8699	0.3699	0.574
Mof_C 	C 	0.7185	0.40317	0.90317	0.118
Mof_H 	H 	0.6956	0.4122	0.9122	0.026
Mof_C 	C 	0.7894	0.38113	0.88113	-0.282
Mof_C 	C 	0.8255	0.3699	0.8699	0.574
Mof_C 	C 	0.09683	0.90317	0.7815	0.118
Mof_H 	H 	0.0878	0.9122	0.8044	0.025
Mof_C 	C 	0.11887	0.88113	0.7106	-0.283
Mof_C 	C 	0.1301	0.8699	0.6745	0.574
Mof_C 	C 	0.09683	0.40317	0.2815	0.119
Mof_H 	H 	0.0878	0.4122	0.3044	0.024
Mof_C 	C 	0.11887	0.38113	0.2106	-0.284
Mof_C 	C 	0.1301	0.3699	0.1745	0.573
Mof_C 	C 	0.59683	0.90317	0.2815	0.118
Mof_H 	H 	0.5878	0.9122	0.3044	0.026
Mof_C 	C 	0.61887	0.88113	0.2106	-0.282
Mof_C 	C 	0.6301	0.8699	0.1745	0.574
Mof_C 	C 	0.59683	0.40317	0.7815	0.118
Mof_H 	H 	0.5878	0.4122	0.8044	0.025
Mof_C 	C 	0.61887	0.38113	0.7106	-0.283
Mof_C 	C 	0.6301	0.3699	0.6745	0.574
Mof_C 	C 	0.09683	0.09683	0.2185	0.12
Mof_H 	H 	0.0878	0.0878	0.1956	0.023
Mof_C 	C 	0.11887	0.11887	0.2894	-0.285
Mof_C 	C 	0.1301	0.1301	0.3255	0.573
Mof_C 	C 	0.09683	0.59683	0.7185	0.119
Mof_H 	H 	0.0878	0.5878	0.6956	0.024
Mof_C 	C 	0.11887	0.61887	0.7894	-0.284
Mof_C 	C 	0.1301	0.6301	0.8255	0.574
Mof_C 	C 	0.59683	0.09683	0.7185	0.119
Mof_H 	H 	0.5878	0.0878	0.6956	0.024
Mof_C 	C 	0.61887	0.11887	0.7894	-0.284
Mof_C 	C 	0.6301	0.1301	0.8255	0.574
Mof_C 	C 	0.59683	0.59683	0.2185	0.119
Mof_H 	H 	0.5878	0.5878	0.1956	0.025
Mof_C 	C 	0.61887	0.61887	0.2894	-0.283
Mof_C 	C 	0.6301	0.6301	0.3255	0.574
Mof_C 	C 	0.90317	0.90317	0.2185	0.118
Mof_H 	H 	0.9122	0.9122	0.1956	0.027
Mof_C 	C 	0.88113	0.88113	0.2894	-0.282
Mof_C 	C 	0.8699	0.8699	0.3255	0.575
Mof_C 	C 	0.90317	0.40317	0.7185	0.118
Mof_H 	H 	0.9122	0.4122	0.6956	0.026
Mof_C 	C 	0.88113	0.38113	0.7894	-0.282
Mof_C 	C 	0.8699	0.3699	0.8255	0.574
Mof_C 	C 	0.40317	0.90317	0.7185	0.118
Mof_H 	H 	0.4122	0.9122	0.6956	0.026
Mof_C 	C 	0.38113	0.88113	0.7894	-0.282
Mof_C 	C 	0.3699	0.8699	0.8255	0.574
Mof_C 	C 	0.40317	0.40317	0.2185	0.119
Mof_H 	H 	0.4122	0.4122	0.1956	0.025
Mof_C 	C 	0.38113	0.38113	0.2894	-0.283
Mof_C 	C 	0.3699	0.3699	0.3255	0.574
Mof_C 	C 	0.90317	0.09683	0.7815	0.118
Mof_H 	H 	0.9122	0.0878	0.8044	0.025
Mof_C 	C 	0.88113	0.11887	0.7106	-0.283
Mof_C 	C 	0.8699	0.1301	0.6745	0.574
Mof_C 	C 	0.90317	0.59683	0.2815	0.118
Mof_H 	H 	0.9122	0.5878	0.3044	0.026
Mof_C 	C 	0.88113	0.61887	0.2106	-0.282
Mof_C 	C 	0.8699	0.6301	0.1745	0.574
Mof_C 	C 	0.40317	0.09683	0.2815	0.119
Mof_H 	H 	0.4122	0.0878	0.3044	0.024
Mof_C 	C 	0.38113	0.11887	0.2106	-0.284
Mof_C 	C 	0.3699	0.1301	0.1745	0.573
Mof_C 	C 	0.40317	0.59683	0.7815	0.118
Mof_H 	H 	0.4122	0.5878	0.8044	0.025
Mof_C 	C 	0.38113	0.61887	0.7106	-0.283
Mof_C 	C 	0.3699	0.6301	0.6745	0.574
Mof_C 	C 	0.3416	0.8856	0.1584	-0.658
Mof_H 	H 	0.3326	0.9086	0.1674	0.251
Mof_C 	C 	0.3416	0.3856	0.6584	-0.658
Mof_H 	H 	0.3326	0.4086	0.6674	0.251
Mof_C 	C 	0.6584	0.1144	0.1584	-0.658
Mof_H 	H 	0.6674	0.0914	0.1674	0.25
Mof_C 	C 	0.6584	0.6144	0.6584	-0.658
Mof_H 	H 	0.6674	0.5914	0.6674	0.251
Mof_C 	C 	0.1584	0.6144	0.1584	-0.658
Mof_H 	H 	0.1674	0.5914	0.1674	0.25
Mof_C 	C 	0.6584	0.8856	0.8416	-0.658
Mof_H 	H 	0.6674	0.9086	0.8326	0.252
Mof_C 	C 	0.6584	0.3856	0.3416	-0.658
Mof_H 	H 	0.6674	0.4086	0.3326	0.251
Mof_C 	C 	0.1584	0.8856	0.3416	-0.658
Mof_H 	H 	0.1674	0.9086	0.3326	0.251
Mof_C 	C 	0.3416	0.1144	0.8416	-0.658
Mof_H 	H 	0.3326	0.0914	0.8326	0.25
Mof_C 	C 	0.3416	0.6144	0.3416	-0.658
Mof_H 	H 	0.3326	0.5914	0.3326	0.251
Mof_C 	C 	0.1584	0.3416	0.8856	-0.658
Mof_H 	H 	0.1674	0.3326	0.9086	0.251
Mof_C 	C 	0.1584	0.8416	0.3856	-0.658
Mof_H 	H 	0.1674	0.8326	0.4086	0.251
Mof_C 	C 	0.1584	0.6584	0.1144	-0.658
Mof_H 	H 	0.1674	0.6674	0.0914	0.25
Mof_C 	C 	0.1584	0.1584	0.6144	-0.658
Mof_H 	H 	0.1674	0.1674	0.5914	0.25
Mof_C 	C 	0.8416	0.6584	0.8856	-0.658
Mof_H 	H 	0.8326	0.6674	0.9086	0.252
Mof_C 	C 	0.8416	0.1584	0.3856	-0.658
Mof_H 	H 	0.8326	0.1674	0.4086	0.251
Mof_C 	C 	0.3416	0.1584	0.8856	-0.658
Mof_H 	H 	0.3326	0.1674	0.9086	0.251
Mof_C 	C 	0.8416	0.3416	0.1144	-0.658
Mof_H 	H 	0.8326	0.3326	0.0914	0.25
Mof_C 	C 	0.8416	0.8416	0.6144	-0.658
Mof_H 	H 	0.8326	0.8326	0.5914	0.251
Mof_C 	C 	0.3416	0.3416	0.6144	-0.658
Mof_H 	H 	0.3326	0.3326	0.5914	0.251
Mof_C 	C 	0.8856	0.1584	0.3416	-0.658
Mof_H 	H 	0.9086	0.1674	0.3326	0.251
Mof_C 	C 	0.3856	0.1584	0.8416	-0.658
Mof_H 	H 	0.4086	0.1674	0.8326	0.251
Mof_C 	C 	0.1144	0.1584	0.6584	-0.658
Mof_H 	H 	0.0914	0.1674	0.6674	0.25
Mof_C 	C 	0.6144	0.1584	0.1584	-0.658
Mof_H 	H 	0.5914	0.1674	0.1674	0.25
Mof_C 	C 	0.8856	0.8416	0.6584	-0.658
Mof_H 	H 	0.9086	0.8326	0.6674	0.252
Mof_C 	C 	0.8856	0.3416	0.1584	-0.658
Mof_H 	H 	0.9086	0.3326	0.1674	0.251
Mof_C 	C 	0.3856	0.8416	0.1584	-0.658
Mof_H 	H 	0.4086	0.8326	0.1674	0.251
Mof_C 	C 	0.1144	0.8416	0.3416	-0.658
Mof_H 	H 	0.0914	0.8326	0.3326	0.25
Mof_C 	C 	0.6144	0.8416	0.8416	-0.658
Mof_H 	H 	0.5914	0.8326	0.8326	0.251
Mof_C 	C 	0.6144	0.3416	0.3416	-0.658
Mof_H 	H 	0.5914	0.3326	0.3326	0.251
Mof_C 	C 	0.8856	0.3416	0.8416	-0.658
Mof_H 	H 	0.9086	0.3326	0.8326	0.252
Mof_C 	C 	0.3856	0.3416	0.3416	-0.658
Mof_H 	H 	0.4086	0.3326	0.3326	0.251
Mof_C 	C 	0.1144	0.6584	0.8416	-0.658
Mof_H 	H 	0.0914	0.6674	0.8326	0.25
Mof_C 	C 	0.1144	0.1584	0.3416	-0.658
Mof_H 	H 	0.0914	0.1674	0.3326	0.25
Mof_C 	C 	0.6144	0.6584	0.3416	-0.658
Mof_H 	H 	0.5914	0.6674	0.3326	0.251
Mof_C 	C 	0.8856	0.6584	0.1584	-0.658
Mof_H 	H 	0.9086	0.6674	0.1674	0.251
Mof_C 	C 	0.3856	0.6584	0.6584	-0.658
Mof_H 	H 	0.4086	0.6674	0.6674	0.251
Mof_C 	C 	0.3856	0.1584	0.1584	-0.658
Mof_H 	H 	0.4086	0.1674	0.1674	0.25
Mof_C 	C 	0.1144	0.3416	0.1584	-0.658
Mof_H 	H 	0.0914	0.3326	0.1674	0.25
Mof_C 	C 	0.6144	0.3416	0.6584	-0.658
Mof_H 	H 	0.5914	0.3326	0.6674	0.251
Mof_C 	C 	0.3416	0.1584	0.1144	-0.658
Mof_H 	H 	0.3326	0.1674	0.0914	0.25
Mof_C 	C 	0.3416	0.6584	0.6144	-0.658
Mof_H 	H 	0.3326	0.6674	0.5914	0.251
Mof_C 	C 	0.6584	0.1584	0.8856	-0.658
Mof_H 	H 	0.6674	0.1674	0.9086	0.251
Mof_C 	C 	0.6584	0.6584	0.3856	-0.658
Mof_H 	H 	0.6674	0.6674	0.4086	0.251
Mof_C 	C 	0.1584	0.1584	0.3856	-0.658
Mof_H 	H 	0.1674	0.1674	0.4086	0.25
Mof_C 	C 	0.6584	0.8416	0.1144	-0.658
Mof_H 	H 	0.6674	0.8326	0.0914	0.25
Mof_C 	C 	0.6584	0.3416	0.6144	-0.658
Mof_H 	H 	0.6674	0.3326	0.5914	0.251
Mof_C 	C 	0.1584	0.3416	0.1144	-0.658
Mof_H 	H 	0.1674	0.3326	0.0914	0.25
Mof_C 	C 	0.3416	0.8416	0.8856	-0.658
Mof_H 	H 	0.3326	0.8326	0.9086	0.252
Mof_C 	C 	0.3416	0.3416	0.3856	-0.658
Mof_H 	H 	0.3326	0.3326	0.4086	0.251
Mof_C 	C 	0.1584	0.8856	0.6584	-0.658
Mof_H 	H 	0.1674	0.9086	0.6674	0.251
Mof_C 	C 	0.1584	0.3856	0.1584	-0.658
Mof_H 	H 	0.1674	0.4086	0.1674	0.25
Mof_C 	C 	0.1584	0.1144	0.3416	-0.658
Mof_H 	H 	0.1674	0.0914	0.3326	0.25
Mof_C 	C 	0.1584	0.6144	0.8416	-0.658
Mof_H 	H 	0.1674	0.5914	0.8326	0.251
Mof_C 	C 	0.8416	0.8856	0.3416	-0.658
Mof_H 	H 	0.8326	0.9086	0.3326	0.252
Mof_C 	C 	0.8416	0.3856	0.8416	-0.658
Mof_H 	H 	0.8326	0.4086	0.8326	0.251
Mof_C 	C 	0.3416	0.3856	0.3416	-0.658
Mof_H 	H 	0.3326	0.4086	0.3326	0.251
Mof_C 	C 	0.8416	0.1144	0.6584	-0.658
Mof_H 	H 	0.8326	0.0914	0.6674	0.25
Mof_C 	C 	0.8416	0.6144	0.1584	-0.658
Mof_H 	H 	0.8326	0.5914	0.1674	0.251
Mof_C 	C 	0.3416	0.1144	0.1584	-0.658
Mof_H 	H 	0.3326	0.0914	0.1674	0.25
Mof_C 	C 	0.6584	0.1144	0.8416	-0.658
Mof_H 	H 	0.6674	0.0914	0.8326	0.25
Mof_C 	C 	0.6584	0.6144	0.3416	-0.658
Mof_H 	H 	0.6674	0.5914	0.3326	0.251
Mof_C 	C 	0.3416	0.8856	0.8416	-0.658
Mof_H 	H 	0.3326	0.9086	0.8326	0.252
Mof_C 	C 	0.3416	0.6144	0.6584	-0.658
Mof_H 	H 	0.3326	0.5914	0.6674	0.251
Mof_C 	C 	0.6584	0.8856	0.1584	-0.658
Mof_H 	H 	0.6674	0.9086	0.1674	0.251
Mof_C 	C 	0.6584	0.3856	0.6584	-0.658
Mof_H 	H 	0.6674	0.4086	0.6674	0.251
Mof_C 	C 	0.8416	0.6584	0.1144	-0.658
Mof_H 	H 	0.8326	0.6674	0.0914	0.25
Mof_C 	C 	0.8416	0.1584	0.6144	-0.658
Mof_H 	H 	0.8326	0.1674	0.5914	0.251
Mof_C 	C 	0.8416	0.3416	0.8856	-0.658
Mof_H 	H 	0.8326	0.3326	0.9086	0.252
Mof_C 	C 	0.8416	0.8416	0.3856	-0.658
Mof_H 	H 	0.8326	0.8326	0.4086	0.251
Mof_C 	C 	0.1584	0.8416	0.6144	-0.658
Mof_H 	H 	0.1674	0.8326	0.5914	0.251
Mof_C 	C 	0.1584	0.6584	0.8856	-0.658
Mof_H 	H 	0.1674	0.6674	0.9086	0.251
Mof_C 	C 	0.1144	0.8416	0.6584	-0.658
Mof_H 	H 	0.0914	0.8326	0.6674	0.25
Mof_C 	C 	0.6144	0.8416	0.1584	-0.658
Mof_H 	H 	0.5914	0.8326	0.1674	0.251
Mof_C 	C 	0.8856	0.8416	0.3416	-0.658
Mof_H 	H 	0.9086	0.8326	0.3326	0.252
Mof_C 	C 	0.3856	0.8416	0.8416	-0.658
Mof_H 	H 	0.4086	0.8326	0.8326	0.251
Mof_C 	C 	0.6144	0.1584	0.8416	-0.658
Mof_H 	H 	0.5914	0.1674	0.8326	0.251
Mof_C 	C 	0.8856	0.1584	0.6584	-0.658
Mof_H 	H 	0.9086	0.1674	0.6674	0.251
Mof_C 	C 	0.1144	0.6584	0.1584	-0.658
Mof_H 	H 	0.0914	0.6674	0.1674	0.25
Mof_C 	C 	0.6144	0.6584	0.6584	-0.658
Mof_H 	H 	0.5914	0.6674	0.6674	0.251
Mof_C 	C 	0.3856	0.3416	0.6584	-0.658
Mof_H 	H 	0.4086	0.3326	0.6674	0.251
Mof_C 	C 	0.1144	0.3416	0.8416	-0.658
Mof_H 	H 	0.0914	0.3326	0.8326	0.25
Mof_C 	C 	0.8856	0.6584	0.8416	-0.658
Mof_H 	H 	0.9086	0.6674	0.8326	0.252
Mof_C 	C 	0.3856	0.6584	0.3416	-0.658
Mof_H 	H 	0.4086	0.6674	0.3326	0.251
Mof_C 	C 	0.6584	0.8416	0.8856	-0.658
Mof_H 	H 	0.6674	0.8326	0.9086	0.252
Mof_C 	C 	0.6584	0.3416	0.3856	-0.658
Mof_H 	H 	0.6674	0.3326	0.4086	0.251
Mof_C 	C 	0.3416	0.8416	0.1144	-0.658
Mof_H 	H 	0.3326	0.8326	0.0914	0.25
Mof_C 	C 	0.3416	0.6584	0.3856	-0.658
Mof_H 	H 	0.3326	0.6674	0.4086	0.251
Mof_C 	C 	0.6584	0.1584	0.1144	-0.658
Mof_H 	H 	0.6674	0.1674	0.0914	0.25
Mof_C 	C 	0.6584	0.6584	0.6144	-0.658
Mof_H 	H 	0.6674	0.6674	0.5914	0.251
Mof_C 	C 	0.8416	0.1144	0.3416	-0.658
Mof_H 	H 	0.8326	0.0914	0.3326	0.25
Mof_C 	C 	0.8416	0.6144	0.8416	-0.658
Mof_H 	H 	0.8326	0.5914	0.8326	0.251
Mof_C 	C 	0.8416	0.8856	0.6584	-0.658
Mof_H 	H 	0.8326	0.9086	0.6674	0.252
Mof_C 	C 	0.8416	0.3856	0.1584	-0.658
Mof_H 	H 	0.8326	0.4086	0.1674	0.251
Mof_C 	C 	0.1584	0.1144	0.6584	-0.658
Mof_H 	H 	0.1674	0.0914	0.6674	0.25
Mof_C 	C 	0.1584	0.3856	0.8416	-0.658
Mof_H 	H 	0.1674	0.4086	0.8326	0.251
Mof_O 	O 	0.25	0	0.25	-2.097
Mof_O 	O 	0.25	0.5	0.75	-2.035
Mof_O 	O 	0.75	0	0.25	-2.097
Mof_O 	O 	0.75	0.5	0.75	-2.035
Mof_O 	O 	0.25	0.5	0.25	-2.035
Mof_O 	O 	0.75	8.48605e-33	0.75	-2.097
Mof_O 	O 	0.75	0.5	0.25	-2.035
Mof_O 	O 	0.25	8.48605e-33	0.75	-2.097
Mof_O 	O 	0.25	0.25	-0	-2.097
Mof_O 	O 	0.25	0.75	0.5	-2.035
Mof_O 	O 	0.25	0.75	-0	-2.097
Mof_O 	O 	0.25	0.25	0.5	-2.035
Mof_O 	O 	0.75	0.75	-0	-2.097
Mof_O 	O 	0.75	0.25	0.5	-2.035
Mof_O 	O 	0.75	0.25	-0	-2.097
Mof_O 	O 	0.75	0.75	0.5	-2.035
Mof_O 	O 	-3.30568e-33	0.25	0.25	-2.097
Mof_O 	O 	0.5	0.25	0.75	-2.035
Mof_O 	O 	2.81205e-33	0.25	0.75	-2.097
Mof_O 	O 	0.5	0.25	0.25	-2.035
Mof_O 	O 	2.81205e-33	0.75	0.75	-2.097
Mof_O 	O 	0.5	0.75	0.25	-2.035
Mof_O 	O 	-1.18416e-33	0.75	0.25	-2.097
Mof_O 	O 	0.5	0.75	0.75	-2.035
_end
