data_functionalizedCrystal
_audit_creation_method	'EQeq! by Chris Wilmer'
_symmetry_space_group_name_H-M	'P1'
_symmetry_Int_Tables_number	1
_symmetry_cell_setting	triclinic
loop_
_symmetry_equiv_pos_as_xyz
  x,y,z
_cell_length_a	33.3373
_cell_length_b	33.3373
_cell_length_c	33.3373
_cell_angle_alpha	90
_cell_angle_beta	90
_cell_angle_gamma	90
loop_
_atom_site_label
_atom_site_type_symbol
_atom_site_fract_x
_atom_site_fract_y
_atom_site_fract_z
_atom_site_charge
Mof_Cl	Cl	0.90007	0.1029	0.2521	-0.336
Mof_Cl	Cl	0.59993	0.8971	0.7521	-0.336
Mof_Cl	Cl	0.09993	0.6029	0.2479	-0.336
Mof_Cl	Cl	0.40007	0.3971	0.7479	-0.336
Mof_Cl	Cl	0.2521	0.90007	0.1029	-0.336
Mof_Cl	Cl	0.7521	0.59993	0.8971	-0.336
Mof_Cl	Cl	0.2479	0.09993	0.6029	-0.336
Mof_Cl	Cl	0.7479	0.40007	0.3971	-0.336
Mof_Cl	Cl	0.1029	0.2521	0.90007	-0.336
Mof_Cl	Cl	0.8971	0.7521	0.59993	-0.336
Mof_Cl	Cl	0.6029	0.2479	0.09993	-0.336
Mof_Cl	Cl	0.3971	0.7479	0.40007	-0.336
Mof_Cl	Cl	0.09993	0.8971	0.7479	-0.336
Mof_Cl	Cl	0.40007	0.1029	0.2479	-0.336
Mof_Cl	Cl	0.90007	0.3971	0.7521	-0.336
Mof_Cl	Cl	0.59993	0.6029	0.2521	-0.336
Mof_Cl	Cl	0.7479	0.09993	0.8971	-0.336
Mof_Cl	Cl	0.2479	0.40007	0.1029	-0.336
Mof_Cl	Cl	0.7521	0.90007	0.3971	-0.336
Mof_Cl	Cl	0.2521	0.59993	0.6029	-0.336
Mof_Cl	Cl	0.8971	0.7479	0.09993	-0.336
Mof_Cl	Cl	0.1029	0.2479	0.40007	-0.336
Mof_Cl	Cl	0.3971	0.7521	0.90007	-0.336
Mof_Cl	Cl	0.6029	0.2521	0.59993	-0.336
Mof_Cl	Cl	0.84451	0.1447	0.02732	-0.334
Mof_Cl	Cl	0.65549	0.8553	0.52732	-0.334
Mof_Cl	Cl	0.15549	0.6447	0.47268	-0.334
Mof_Cl	Cl	0.34451	0.3553	0.97268	-0.334
Mof_Cl	Cl	0.02732	0.84451	0.1447	-0.334
Mof_Cl	Cl	0.52732	0.65549	0.8553	-0.334
Mof_Cl	Cl	0.47268	0.15549	0.6447	-0.334
Mof_Cl	Cl	0.97268	0.34451	0.3553	-0.334
Mof_Cl	Cl	0.1447	0.02732	0.84451	-0.334
Mof_Cl	Cl	0.8553	0.52732	0.65549	-0.334
Mof_Cl	Cl	0.6447	0.47268	0.15549	-0.334
Mof_Cl	Cl	0.3553	0.97268	0.34451	-0.334
Mof_Cl	Cl	0.15549	0.8553	0.97268	-0.334
Mof_Cl	Cl	0.34451	0.1447	0.47268	-0.334
Mof_Cl	Cl	0.84451	0.3553	0.52732	-0.334
Mof_Cl	Cl	0.65549	0.6447	0.02732	-0.334
Mof_Cl	Cl	0.97268	0.15549	0.8553	-0.334
Mof_Cl	Cl	0.47268	0.34451	0.1447	-0.334
Mof_Cl	Cl	0.52732	0.84451	0.3553	-0.333
Mof_Cl	Cl	0.02732	0.65549	0.6447	-0.333
Mof_Cl	Cl	0.8553	0.97268	0.15549	-0.333
Mof_Cl	Cl	0.1447	0.47268	0.34451	-0.333
Mof_Cl	Cl	0.3553	0.52732	0.84451	-0.333
Mof_Cl	Cl	0.6447	0.02732	0.65549	-0.333
Mof_C 	C 	0.04805	0.18792	0.2053	0.418
Mof_C 	C 	0.45195	0.81208	0.7053	0.418
Mof_C 	C 	0.95195	0.68792	0.2947	0.418
Mof_C 	C 	0.54805	0.31208	0.7947	0.418
Mof_C 	C 	0.2053	0.04805	0.18792	0.418
Mof_C 	C 	0.7053	0.45195	0.81208	0.418
Mof_C 	C 	0.2947	0.95195	0.68792	0.418
Mof_C 	C 	0.7947	0.54805	0.31208	0.418
Mof_C 	C 	0.18792	0.2053	0.04805	0.418
Mof_C 	C 	0.81208	0.7053	0.45195	0.418
Mof_C 	C 	0.68792	0.2947	0.95195	0.418
Mof_C 	C 	0.31208	0.7947	0.54805	0.418
Mof_C 	C 	0.95195	0.81208	0.7947	0.418
Mof_C 	C 	0.54805	0.18792	0.2947	0.418
Mof_C 	C 	0.04805	0.31208	0.7053	0.418
Mof_C 	C 	0.45195	0.68792	0.2053	0.418
Mof_C 	C 	0.7947	0.95195	0.81208	0.418
Mof_C 	C 	0.2947	0.54805	0.18792	0.418
Mof_C 	C 	0.7053	0.04805	0.31208	0.418
Mof_C 	C 	0.2053	0.45195	0.68792	0.418
Mof_C 	C 	0.81208	0.7947	0.95195	0.418
Mof_C 	C 	0.18792	0.2947	0.54805	0.418
Mof_C 	C 	0.31208	0.7053	0.04805	0.418
Mof_C 	C 	0.68792	0.2053	0.45195	0.418
Mof_C 	C 	0.02527	0.23016	0.25626	0.104
Mof_C 	C 	0.47473	0.76984	0.75626	0.103
Mof_C 	C 	0.97473	0.73016	0.24374	0.103
Mof_C 	C 	0.52527	0.26984	0.74374	0.103
Mof_C 	C 	0.25626	0.02527	0.23016	0.104
Mof_C 	C 	0.75626	0.47473	0.76984	0.103
Mof_C 	C 	0.24374	0.97473	0.73016	0.103
Mof_C 	C 	0.74374	0.52527	0.26984	0.103
Mof_C 	C 	0.23016	0.25626	0.02527	0.104
Mof_C 	C 	0.76984	0.75626	0.47473	0.103
Mof_C 	C 	0.73016	0.24374	0.97473	0.103
Mof_C 	C 	0.26984	0.74374	0.52527	0.103
Mof_C 	C 	0.97473	0.76984	0.74374	0.104
Mof_C 	C 	0.52527	0.23016	0.24374	0.103
Mof_C 	C 	0.02527	0.26984	0.75626	0.103
Mof_C 	C 	0.47473	0.73016	0.25626	0.103
Mof_C 	C 	0.74374	0.97473	0.76984	0.104
Mof_C 	C 	0.24374	0.52527	0.23016	0.103
Mof_C 	C 	0.75626	0.02527	0.26984	0.103
Mof_C 	C 	0.25626	0.47473	0.73016	0.103
Mof_C 	C 	0.76984	0.74374	0.97473	0.104
Mof_C 	C 	0.23016	0.24374	0.52527	0.103
Mof_C 	C 	0.26984	0.75626	0.02527	0.103
Mof_C 	C 	0.73016	0.25626	0.47473	0.103
Mof_C 	C 	0.99131	0.19989	0.24536	0.13
Mof_C 	C 	0.50869	0.80011	0.74536	0.131
Mof_C 	C 	0.00869	0.69989	0.25464	0.131
Mof_C 	C 	0.49131	0.30011	0.75464	0.131
Mof_C 	C 	0.24536	0.99131	0.19989	0.13
Mof_C 	C 	0.74536	0.50869	0.80011	0.131
Mof_C 	C 	0.25464	0.00869	0.69989	0.131
Mof_C 	C 	0.75464	0.49131	0.30011	0.131
Mof_C 	C 	0.19989	0.24536	0.99131	0.13
Mof_C 	C 	0.80011	0.74536	0.50869	0.131
Mof_C 	C 	0.69989	0.25464	0.00869	0.131
Mof_C 	C 	0.30011	0.75464	0.49131	0.131
Mof_C 	C 	0.00869	0.80011	0.75464	0.13
Mof_C 	C 	0.49131	0.19989	0.25464	0.131
Mof_C 	C 	0.99131	0.30011	0.74536	0.131
Mof_C 	C 	0.50869	0.69989	0.24536	0.131
Mof_C 	C 	0.75464	0.00869	0.80011	0.13
Mof_C 	C 	0.25464	0.49131	0.19989	0.131
Mof_C 	C 	0.74536	0.99131	0.30011	0.131
Mof_C 	C 	0.24536	0.50869	0.69989	0.131
Mof_C 	C 	0.80011	0.75464	0.00869	0.13
Mof_C 	C 	0.19989	0.25464	0.49131	0.131
Mof_C 	C 	0.30011	0.74536	0.99131	0.131
Mof_C 	C 	0.69989	0.24536	0.50869	0.131
Mof_C 	C 	0.96772	0.26535	0.23321	0.327
Mof_C 	C 	0.53228	0.73465	0.73321	0.328
Mof_C 	C 	0.03228	0.76535	0.26679	0.328
Mof_C 	C 	0.46772	0.23465	0.76679	0.328
Mof_C 	C 	0.23321	0.96772	0.26535	0.327
Mof_C 	C 	0.73321	0.53228	0.73465	0.328
Mof_C 	C 	0.26679	0.03228	0.76535	0.328
Mof_C 	C 	0.76679	0.46772	0.23465	0.328
Mof_C 	C 	0.26535	0.23321	0.96772	0.327
Mof_C 	C 	0.73465	0.73321	0.53228	0.328
Mof_C 	C 	0.76535	0.26679	0.03228	0.328
Mof_C 	C 	0.23465	0.76679	0.46772	0.328
Mof_C 	C 	0.03228	0.73465	0.76679	0.327
Mof_C 	C 	0.46772	0.26535	0.26679	0.328
Mof_C 	C 	0.96772	0.23465	0.73321	0.328
Mof_C 	C 	0.53228	0.76535	0.23321	0.328
Mof_C 	C 	0.76679	0.03228	0.73465	0.327
Mof_C 	C 	0.26679	0.46772	0.26535	0.328
Mof_C 	C 	0.73321	0.96772	0.23465	0.328
Mof_C 	C 	0.23321	0.53228	0.76535	0.328
Mof_C 	C 	0.73465	0.76679	0.03228	0.327
Mof_C 	C 	0.26535	0.26679	0.46772	0.328
Mof_C 	C 	0.23465	0.73321	0.96772	0.328
Mof_C 	C 	0.76535	0.23321	0.53228	0.328
Mof_C 	C 	0.99118	0.14196	0.1926	0.177
Mof_C 	C 	0.50882	0.85804	0.6926	0.178
Mof_C 	C 	0.00882	0.64196	0.3074	0.178
Mof_C 	C 	0.49118	0.35804	0.8074	0.178
Mof_C 	C 	0.1926	0.99118	0.14196	0.177
Mof_C 	C 	0.6926	0.50882	0.85804	0.178
Mof_C 	C 	0.3074	0.00882	0.64196	0.178
Mof_C 	C 	0.8074	0.49118	0.35804	0.178
Mof_C 	C 	0.14196	0.1926	0.99118	0.177
Mof_C 	C 	0.85804	0.6926	0.50882	0.178
Mof_C 	C 	0.64196	0.3074	0.00882	0.178
Mof_C 	C 	0.35804	0.8074	0.49118	0.178
Mof_C 	C 	0.00882	0.85804	0.8074	0.177
Mof_C 	C 	0.49118	0.14196	0.3074	0.178
Mof_C 	C 	0.99118	0.35804	0.6926	0.178
Mof_C 	C 	0.50882	0.64196	0.1926	0.178
Mof_C 	C 	0.8074	0.00882	0.85804	0.177
Mof_C 	C 	0.3074	0.49118	0.14196	0.178
Mof_C 	C 	0.6926	0.99118	0.35804	0.178
Mof_C 	C 	0.1926	0.50882	0.64196	0.178
Mof_C 	C 	0.85804	0.8074	0.00882	0.177
Mof_C 	C 	0.14196	0.3074	0.49118	0.178
Mof_C 	C 	0.35804	0.6926	0.99118	0.178
Mof_C 	C 	0.64196	0.1926	0.50882	0.178
Mof_H 	H 	0.012	0.1228	0.1859	-0.134
Mof_H 	H 	0.488	0.8772	0.6859	-0.134
Mof_H 	H 	0.988	0.6228	0.3141	-0.134
Mof_H 	H 	0.512	0.3772	0.8141	-0.134
Mof_H 	H 	0.1859	0.012	0.1228	-0.134
Mof_H 	H 	0.6859	0.488	0.8772	-0.134
Mof_H 	H 	0.3141	0.988	0.6228	-0.134
Mof_H 	H 	0.8141	0.512	0.3772	-0.134
Mof_H 	H 	0.1228	0.1859	0.012	-0.134
Mof_H 	H 	0.8772	0.6859	0.488	-0.134
Mof_H 	H 	0.6228	0.3141	0.988	-0.134
Mof_H 	H 	0.3772	0.8141	0.512	-0.134
Mof_H 	H 	0.988	0.8772	0.8141	-0.134
Mof_H 	H 	0.512	0.1228	0.3141	-0.134
Mof_H 	H 	0.012	0.3772	0.6859	-0.134
Mof_H 	H 	0.488	0.6228	0.1859	-0.134
Mof_H 	H 	0.8141	0.988	0.8772	-0.134
Mof_H 	H 	0.3141	0.512	0.1228	-0.134
Mof_H 	H 	0.6859	0.012	0.3772	-0.134
Mof_H 	H 	0.1859	0.488	0.6228	-0.134
Mof_H 	H 	0.8772	0.8141	0.988	-0.134
Mof_H 	H 	0.1228	0.3141	0.512	-0.134
Mof_H 	H 	0.3772	0.6859	0.012	-0.134
Mof_H 	H 	0.6228	0.1859	0.488	-0.134
Mof_H 	H 	0.9727	0.1288	0.2108	-0.004
Mof_H 	H 	0.5273	0.8712	0.7108	-0.004
Mof_H 	H 	0.0273	0.6288	0.2892	-0.004
Mof_H 	H 	0.4727	0.3712	0.7892	-0.004
Mof_H 	H 	0.2108	0.9727	0.1288	-0.004
Mof_H 	H 	0.7108	0.5273	0.8712	-0.004
Mof_H 	H 	0.2892	0.0273	0.6288	-0.004
Mof_H 	H 	0.7892	0.4727	0.3712	-0.004
Mof_H 	H 	0.1288	0.2108	0.9727	-0.004
Mof_H 	H 	0.8712	0.7108	0.5273	-0.004
Mof_H 	H 	0.6288	0.2892	0.0273	-0.004
Mof_H 	H 	0.3712	0.7892	0.4727	-0.004
Mof_H 	H 	0.0273	0.8712	0.7892	-0.004
Mof_H 	H 	0.4727	0.1288	0.2892	-0.004
Mof_H 	H 	0.9727	0.3712	0.7108	-0.004
Mof_H 	H 	0.5273	0.6288	0.2108	-0.004
Mof_H 	H 	0.7892	0.0273	0.8712	-0.004
Mof_H 	H 	0.2892	0.4727	0.1288	-0.004
Mof_H 	H 	0.7108	0.9727	0.3712	-0.004
Mof_H 	H 	0.2108	0.5273	0.6288	-0.004
Mof_H 	H 	0.8712	0.7892	0.0273	-0.004
Mof_H 	H 	0.1288	0.2892	0.4727	-0.004
Mof_H 	H 	0.3712	0.7108	0.9727	-0.004
Mof_H 	H 	0.6288	0.2108	0.5273	-0.004
Mof_C 	C 	0.92012	0.2118	0.21598	0.062
Mof_C 	C 	0.57988	0.7882	0.71598	0.062
Mof_C 	C 	0.07988	0.7118	0.28402	0.062
Mof_C 	C 	0.42012	0.2882	0.78402	0.062
Mof_C 	C 	0.21598	0.92012	0.2118	0.062
Mof_C 	C 	0.71598	0.57988	0.7882	0.062
Mof_C 	C 	0.28402	0.07988	0.7118	0.062
Mof_C 	C 	0.78402	0.42012	0.2882	0.062
Mof_C 	C 	0.2118	0.21598	0.92012	0.062
Mof_C 	C 	0.7882	0.71598	0.57988	0.062
Mof_C 	C 	0.7118	0.28402	0.07988	0.062
Mof_C 	C 	0.2882	0.78402	0.42012	0.062
Mof_C 	C 	0.07988	0.7882	0.78402	0.062
Mof_C 	C 	0.42012	0.2118	0.28402	0.062
Mof_C 	C 	0.92012	0.2882	0.71598	0.062
Mof_C 	C 	0.57988	0.7118	0.21598	0.062
Mof_C 	C 	0.78402	0.07988	0.7882	0.062
Mof_C 	C 	0.28402	0.42012	0.2118	0.062
Mof_C 	C 	0.71598	0.92012	0.2882	0.062
Mof_C 	C 	0.21598	0.57988	0.7118	0.062
Mof_C 	C 	0.7882	0.78402	0.07988	0.062
Mof_C 	C 	0.2118	0.28402	0.42012	0.062
Mof_C 	C 	0.2882	0.71598	0.92012	0.062
Mof_C 	C 	0.7118	0.21598	0.57988	0.062
Mof_H 	H 	0.9123	0.1877	0.2302	0.033
Mof_H 	H 	0.5877	0.8123	0.7302	0.033
Mof_H 	H 	0.0877	0.6877	0.2698	0.033
Mof_H 	H 	0.4123	0.3123	0.7698	0.033
Mof_H 	H 	0.2302	0.9123	0.1877	0.033
Mof_H 	H 	0.7302	0.5877	0.8123	0.033
Mof_H 	H 	0.2698	0.0877	0.6877	0.033
Mof_H 	H 	0.7698	0.4123	0.3123	0.033
Mof_H 	H 	0.1877	0.2302	0.9123	0.033
Mof_H 	H 	0.8123	0.7302	0.5877	0.033
Mof_H 	H 	0.6877	0.2698	0.0877	0.033
Mof_H 	H 	0.3123	0.7698	0.4123	0.033
Mof_H 	H 	0.0877	0.8123	0.7698	0.033
Mof_H 	H 	0.4123	0.1877	0.2698	0.033
Mof_H 	H 	0.9123	0.3123	0.7302	0.033
Mof_H 	H 	0.5877	0.6877	0.2302	0.033
Mof_H 	H 	0.7698	0.0877	0.8123	0.033
Mof_H 	H 	0.2698	0.4123	0.1877	0.033
Mof_H 	H 	0.7302	0.9123	0.3123	0.033
Mof_H 	H 	0.2302	0.5877	0.6877	0.033
Mof_H 	H 	0.8123	0.7698	0.0877	0.033
Mof_H 	H 	0.1877	0.2698	0.4123	0.033
Mof_H 	H 	0.3123	0.7302	0.9123	0.033
Mof_H 	H 	0.6877	0.2302	0.5877	0.033
Mof_H 	H 	0.9	0.2321	0.2214	0.009
Mof_H 	H 	0.6	0.7679	0.7214	0.009
Mof_H 	H 	0.1	0.7321	0.2786	0.009
Mof_H 	H 	0.4	0.2679	0.7786	0.009
Mof_H 	H 	0.2214	0.9	0.2321	0.009
Mof_H 	H 	0.7214	0.6	0.7679	0.009
Mof_H 	H 	0.2786	0.1	0.7321	0.009
Mof_H 	H 	0.7786	0.4	0.2679	0.009
Mof_H 	H 	0.2321	0.2214	0.9	0.009
Mof_H 	H 	0.7679	0.7214	0.6	0.009
Mof_H 	H 	0.7321	0.2786	0.1	0.009
Mof_H 	H 	0.2679	0.7786	0.4	0.009
Mof_H 	H 	0.1	0.7679	0.7786	0.009
Mof_H 	H 	0.4	0.2321	0.2786	0.009
Mof_H 	H 	0.9	0.2679	0.7214	0.009
Mof_H 	H 	0.6	0.7321	0.2214	0.009
Mof_H 	H 	0.7786	0.1	0.7679	0.009
Mof_H 	H 	0.2786	0.4	0.2321	0.009
Mof_H 	H 	0.7214	0.9	0.2679	0.009
Mof_H 	H 	0.2214	0.6	0.7321	0.009
Mof_H 	H 	0.7679	0.7786	0.1	0.009
Mof_H 	H 	0.2321	0.2786	0.4	0.009
Mof_H 	H 	0.2679	0.7214	0.9	0.009
Mof_H 	H 	0.7321	0.2214	0.6	0.009
Mof_C 	C 	0.98533	0.15177	0.11894	0.335
Mof_C 	C 	0.51467	0.84823	0.61894	0.336
Mof_C 	C 	0.01467	0.65177	0.38106	0.335
Mof_C 	C 	0.48533	0.34823	0.88106	0.336
Mof_C 	C 	0.11894	0.98533	0.15177	0.335
Mof_C 	C 	0.61894	0.51467	0.84823	0.336
Mof_C 	C 	0.38106	0.01467	0.65177	0.335
Mof_C 	C 	0.88106	0.48533	0.34823	0.336
Mof_C 	C 	0.15177	0.11894	0.98533	0.335
Mof_C 	C 	0.84823	0.61894	0.51467	0.336
Mof_C 	C 	0.65177	0.38106	0.01467	0.335
Mof_C 	C 	0.34823	0.88106	0.48533	0.336
Mof_C 	C 	0.01467	0.84823	0.88106	0.335
Mof_C 	C 	0.48533	0.15177	0.38106	0.336
Mof_C 	C 	0.98533	0.34823	0.61894	0.335
Mof_C 	C 	0.51467	0.65177	0.11894	0.336
Mof_C 	C 	0.88106	0.01467	0.84823	0.335
Mof_C 	C 	0.38106	0.48533	0.15177	0.336
Mof_C 	C 	0.61894	0.98533	0.34823	0.335
Mof_C 	C 	0.11894	0.51467	0.65177	0.336
Mof_C 	C 	0.84823	0.88106	0.01467	0.335
Mof_C 	C 	0.15177	0.38106	0.48533	0.336
Mof_C 	C 	0.34823	0.61894	0.98533	0.335
Mof_C 	C 	0.65177	0.11894	0.51467	0.336
Mof_C 	C 	0.92837	0.16497	0.15633	0.057
Mof_C 	C 	0.57163	0.83503	0.65633	0.057
Mof_C 	C 	0.07163	0.66497	0.34367	0.057
Mof_C 	C 	0.42837	0.33503	0.84367	0.057
Mof_C 	C 	0.15633	0.92837	0.16497	0.057
Mof_C 	C 	0.65633	0.57163	0.83503	0.057
Mof_C 	C 	0.34367	0.07163	0.66497	0.057
Mof_C 	C 	0.84367	0.42837	0.33503	0.057
Mof_C 	C 	0.16497	0.15633	0.92837	0.057
Mof_C 	C 	0.83503	0.65633	0.57163	0.057
Mof_C 	C 	0.66497	0.34367	0.07163	0.057
Mof_C 	C 	0.33503	0.84367	0.42837	0.057
Mof_C 	C 	0.07163	0.83503	0.84367	0.057
Mof_C 	C 	0.42837	0.16497	0.34367	0.057
Mof_C 	C 	0.92837	0.33503	0.65633	0.057
Mof_C 	C 	0.57163	0.66497	0.15633	0.057
Mof_C 	C 	0.84367	0.07163	0.83503	0.057
Mof_C 	C 	0.34367	0.42837	0.16497	0.057
Mof_C 	C 	0.65633	0.92837	0.33503	0.057
Mof_C 	C 	0.15633	0.57163	0.66497	0.057
Mof_C 	C 	0.83503	0.84367	0.07163	0.057
Mof_C 	C 	0.16497	0.34367	0.42837	0.057
Mof_C 	C 	0.33503	0.65633	0.92837	0.057
Mof_C 	C 	0.66497	0.15633	0.57163	0.057
Mof_H 	H 	0.9111	0.1442	0.1679	0.038
Mof_H 	H 	0.5889	0.8558	0.6679	0.038
Mof_H 	H 	0.0889	0.6442	0.3321	0.038
Mof_H 	H 	0.4111	0.3558	0.8321	0.038
Mof_H 	H 	0.1679	0.9111	0.1442	0.038
Mof_H 	H 	0.6679	0.5889	0.8558	0.038
Mof_H 	H 	0.3321	0.0889	0.6442	0.038
Mof_H 	H 	0.8321	0.4111	0.3558	0.038
Mof_H 	H 	0.1442	0.1679	0.9111	0.038
Mof_H 	H 	0.8558	0.6679	0.5889	0.038
Mof_H 	H 	0.6442	0.3321	0.0889	0.038
Mof_H 	H 	0.3558	0.8321	0.4111	0.038
Mof_H 	H 	0.0889	0.8558	0.8321	0.038
Mof_H 	H 	0.4111	0.1442	0.3321	0.038
Mof_H 	H 	0.9111	0.3558	0.6679	0.038
Mof_H 	H 	0.5889	0.6442	0.1679	0.038
Mof_H 	H 	0.8321	0.0889	0.8558	0.038
Mof_H 	H 	0.3321	0.4111	0.1442	0.038
Mof_H 	H 	0.6679	0.9111	0.3558	0.038
Mof_H 	H 	0.1679	0.5889	0.6442	0.038
Mof_H 	H 	0.8558	0.8321	0.0889	0.038
Mof_H 	H 	0.1442	0.3321	0.4111	0.038
Mof_H 	H 	0.3558	0.6679	0.9111	0.038
Mof_H 	H 	0.6442	0.1679	0.5889	0.038
Mof_C 	C 	0.91968	0.1707	0.11167	0.059
Mof_C 	C 	0.58032	0.8293	0.61167	0.059
Mof_C 	C 	0.08032	0.6707	0.38833	0.059
Mof_C 	C 	0.41968	0.3293	0.88833	0.059
Mof_C 	C 	0.11167	0.91968	0.1707	0.059
Mof_C 	C 	0.61167	0.58032	0.8293	0.059
Mof_C 	C 	0.38833	0.08032	0.6707	0.059
Mof_C 	C 	0.88833	0.41968	0.3293	0.059
Mof_C 	C 	0.1707	0.11167	0.91968	0.059
Mof_C 	C 	0.8293	0.61167	0.58032	0.059
Mof_C 	C 	0.6707	0.38833	0.08032	0.059
Mof_C 	C 	0.3293	0.88833	0.41968	0.059
Mof_C 	C 	0.08032	0.8293	0.88833	0.059
Mof_C 	C 	0.41968	0.1707	0.38833	0.059
Mof_C 	C 	0.91968	0.3293	0.61167	0.059
Mof_C 	C 	0.58032	0.6707	0.11167	0.059
Mof_C 	C 	0.88833	0.08032	0.8293	0.059
Mof_C 	C 	0.38833	0.41968	0.1707	0.059
Mof_C 	C 	0.61167	0.91968	0.3293	0.059
Mof_C 	C 	0.11167	0.58032	0.6707	0.059
Mof_C 	C 	0.8293	0.88833	0.08032	0.059
Mof_C 	C 	0.1707	0.38833	0.41968	0.059
Mof_C 	C 	0.3293	0.61167	0.91968	0.059
Mof_C 	C 	0.6707	0.11167	0.58032	0.059
Mof_H 	H 	0.8994	0.1517	0.1021	0.037
Mof_H 	H 	0.6006	0.8483	0.6021	0.037
Mof_H 	H 	0.1006	0.6517	0.3979	0.037
Mof_H 	H 	0.3994	0.3483	0.8979	0.037
Mof_H 	H 	0.1021	0.8994	0.1517	0.037
Mof_H 	H 	0.6021	0.6006	0.8483	0.037
Mof_H 	H 	0.3979	0.1006	0.6517	0.037
Mof_H 	H 	0.8979	0.3994	0.3483	0.037
Mof_H 	H 	0.1517	0.1021	0.8994	0.037
Mof_H 	H 	0.8483	0.6021	0.6006	0.037
Mof_H 	H 	0.6517	0.3979	0.1006	0.037
Mof_H 	H 	0.3483	0.8979	0.3994	0.037
Mof_H 	H 	0.1006	0.8483	0.8979	0.037
Mof_H 	H 	0.3994	0.1517	0.3979	0.037
Mof_H 	H 	0.8994	0.3483	0.6021	0.037
Mof_H 	H 	0.6006	0.6517	0.1021	0.037
Mof_H 	H 	0.8979	0.1006	0.8483	0.037
Mof_H 	H 	0.3979	0.3994	0.1517	0.037
Mof_H 	H 	0.6021	0.8994	0.3483	0.037
Mof_H 	H 	0.1021	0.6006	0.6517	0.037
Mof_H 	H 	0.8483	0.8979	0.1006	0.037
Mof_H 	H 	0.1517	0.3979	0.3994	0.037
Mof_H 	H 	0.3483	0.6021	0.8994	0.037
Mof_H 	H 	0.6517	0.1021	0.6006	0.037
Mof_C 	C 	0.90445	0.22999	0.14617	0.323
Mof_C 	C 	0.59555	0.77001	0.64617	0.323
Mof_C 	C 	0.09555	0.72999	0.35383	0.323
Mof_C 	C 	0.40445	0.27001	0.85383	0.323
Mof_C 	C 	0.14617	0.90445	0.22999	0.323
Mof_C 	C 	0.64617	0.59555	0.77001	0.323
Mof_C 	C 	0.35383	0.09555	0.72999	0.323
Mof_C 	C 	0.85383	0.40445	0.27001	0.323
Mof_C 	C 	0.22999	0.14617	0.90445	0.323
Mof_C 	C 	0.77001	0.64617	0.59555	0.323
Mof_C 	C 	0.72999	0.35383	0.09555	0.323
Mof_C 	C 	0.27001	0.85383	0.40445	0.323
Mof_C 	C 	0.09555	0.77001	0.85383	0.323
Mof_C 	C 	0.40445	0.22999	0.35383	0.323
Mof_C 	C 	0.90445	0.27001	0.64617	0.323
Mof_C 	C 	0.59555	0.72999	0.14617	0.323
Mof_C 	C 	0.85383	0.09555	0.77001	0.323
Mof_C 	C 	0.35383	0.40445	0.22999	0.323
Mof_C 	C 	0.64617	0.90445	0.27001	0.323
Mof_C 	C 	0.14617	0.59555	0.72999	0.323
Mof_C 	C 	0.77001	0.85383	0.09555	0.323
Mof_C 	C 	0.22999	0.35383	0.40445	0.323
Mof_C 	C 	0.27001	0.64617	0.90445	0.323
Mof_C 	C 	0.72999	0.14617	0.59555	0.323
Mof_C 	C 	0.96359	0.16137	0.04903	0.057
Mof_C 	C 	0.53641	0.83863	0.54903	0.057
Mof_C 	C 	0.03641	0.66137	0.45097	0.057
Mof_C 	C 	0.46359	0.33863	0.95097	0.057
Mof_C 	C 	0.04903	0.96359	0.16137	0.057
Mof_C 	C 	0.54903	0.53641	0.83863	0.057
Mof_C 	C 	0.45097	0.03641	0.66137	0.057
Mof_C 	C 	0.95097	0.46359	0.33863	0.057
Mof_C 	C 	0.16137	0.04903	0.96359	0.057
Mof_C 	C 	0.83863	0.54903	0.53641	0.057
Mof_C 	C 	0.66137	0.45097	0.03641	0.057
Mof_C 	C 	0.33863	0.95097	0.46359	0.057
Mof_C 	C 	0.03641	0.83863	0.95097	0.057
Mof_C 	C 	0.46359	0.16137	0.45097	0.057
Mof_C 	C 	0.96359	0.33863	0.54903	0.057
Mof_C 	C 	0.53641	0.66137	0.04903	0.057
Mof_C 	C 	0.95097	0.03641	0.83863	0.057
Mof_C 	C 	0.45097	0.46359	0.16137	0.057
Mof_C 	C 	0.54903	0.96359	0.33863	0.057
Mof_C 	C 	0.04903	0.53641	0.66137	0.057
Mof_C 	C 	0.83863	0.95097	0.03641	0.057
Mof_C 	C 	0.16137	0.45097	0.46359	0.057
Mof_C 	C 	0.33863	0.54903	0.96359	0.057
Mof_C 	C 	0.66137	0.04903	0.53641	0.057
Mof_H 	H 	0.9848	0.1423	0.0434	0.009
Mof_H 	H 	0.5152	0.8577	0.5434	0.01
Mof_H 	H 	0.0152	0.6423	0.4566	0.009
Mof_H 	H 	0.4848	0.3577	0.9566	0.01
Mof_H 	H 	0.0434	0.9848	0.1423	0.009
Mof_H 	H 	0.5434	0.5152	0.8577	0.01
Mof_H 	H 	0.4566	0.0152	0.6423	0.009
Mof_H 	H 	0.9566	0.4848	0.3577	0.01
Mof_H 	H 	0.1423	0.0434	0.9848	0.009
Mof_H 	H 	0.8577	0.5434	0.5152	0.01
Mof_H 	H 	0.6423	0.4566	0.0152	0.009
Mof_H 	H 	0.3577	0.9566	0.4848	0.01
Mof_H 	H 	0.0152	0.8577	0.9566	0.009
Mof_H 	H 	0.4848	0.1423	0.4566	0.01
Mof_H 	H 	0.9848	0.3577	0.5434	0.009
Mof_H 	H 	0.5152	0.6423	0.0434	0.01
Mof_H 	H 	0.9566	0.0152	0.8577	0.009
Mof_H 	H 	0.4566	0.4848	0.1423	0.01
Mof_H 	H 	0.5434	0.9848	0.3577	0.009
Mof_H 	H 	0.0434	0.5152	0.6423	0.01
Mof_H 	H 	0.8577	0.9566	0.0152	0.009
Mof_H 	H 	0.1423	0.4566	0.4848	0.01
Mof_H 	H 	0.3577	0.5434	0.9848	0.009
Mof_H 	H 	0.6423	0.0434	0.5152	0.01
Mof_H 	H 	0.9391	0.1514	0.0368	0.034
Mof_H 	H 	0.5609	0.8486	0.5368	0.035
Mof_H 	H 	0.0609	0.6514	0.4632	0.034
Mof_H 	H 	0.4391	0.3486	0.9632	0.034
Mof_H 	H 	0.0368	0.9391	0.1514	0.034
Mof_H 	H 	0.5368	0.5609	0.8486	0.035
Mof_H 	H 	0.4632	0.0609	0.6514	0.034
Mof_H 	H 	0.9632	0.4391	0.3486	0.034
Mof_H 	H 	0.1514	0.0368	0.9391	0.034
Mof_H 	H 	0.8486	0.5368	0.5609	0.035
Mof_H 	H 	0.6514	0.4632	0.0609	0.034
Mof_H 	H 	0.3486	0.9632	0.4391	0.034
Mof_H 	H 	0.0609	0.8486	0.9632	0.034
Mof_H 	H 	0.4391	0.1514	0.4632	0.035
Mof_H 	H 	0.9391	0.3486	0.5368	0.034
Mof_H 	H 	0.5609	0.6514	0.0368	0.034
Mof_H 	H 	0.9632	0.0609	0.8486	0.034
Mof_H 	H 	0.4632	0.4391	0.1514	0.035
Mof_H 	H 	0.5368	0.9391	0.3486	0.034
Mof_H 	H 	0.0368	0.5609	0.6514	0.034
Mof_H 	H 	0.8486	0.9632	0.0609	0.034
Mof_H 	H 	0.1514	0.4632	0.4391	0.035
Mof_H 	H 	0.3486	0.5368	0.9391	0.034
Mof_H 	H 	0.6514	0.0368	0.5609	0.034
Mof_C 	C 	0.89078	0.23083	0.0725	0.151
Mof_C 	C 	0.60922	0.76917	0.5725	0.151
Mof_C 	C 	0.10922	0.73083	0.4275	0.151
Mof_C 	C 	0.39078	0.26917	0.9275	0.151
Mof_C 	C 	0.0725	0.89078	0.23083	0.151
Mof_C 	C 	0.5725	0.60922	0.76917	0.151
Mof_C 	C 	0.4275	0.10922	0.73083	0.151
Mof_C 	C 	0.9275	0.39078	0.26917	0.151
Mof_C 	C 	0.23083	0.0725	0.89078	0.151
Mof_C 	C 	0.76917	0.5725	0.60922	0.151
Mof_C 	C 	0.73083	0.4275	0.10922	0.151
Mof_C 	C 	0.26917	0.9275	0.39078	0.151
Mof_C 	C 	0.10922	0.76917	0.9275	0.151
Mof_C 	C 	0.39078	0.23083	0.4275	0.151
Mof_C 	C 	0.89078	0.26917	0.5725	0.151
Mof_C 	C 	0.60922	0.73083	0.0725	0.151
Mof_C 	C 	0.9275	0.10922	0.76917	0.151
Mof_C 	C 	0.4275	0.39078	0.23083	0.151
Mof_C 	C 	0.5725	0.89078	0.26917	0.151
Mof_C 	C 	0.0725	0.60922	0.73083	0.151
Mof_C 	C 	0.76917	0.9275	0.10922	0.151
Mof_C 	C 	0.23083	0.4275	0.39078	0.151
Mof_C 	C 	0.26917	0.5725	0.89078	0.151
Mof_C 	C 	0.73083	0.0725	0.60922	0.151
Mof_H 	H 	0.8772	0.211	0.0562	0.006
Mof_H 	H 	0.6228	0.789	0.5562	0.006
Mof_H 	H 	0.1228	0.711	0.4438	0.006
Mof_H 	H 	0.3772	0.289	0.9438	0.006
Mof_H 	H 	0.0562	0.8772	0.211	0.006
Mof_H 	H 	0.5562	0.6228	0.789	0.006
Mof_H 	H 	0.4438	0.1228	0.711	0.006
Mof_H 	H 	0.9438	0.3772	0.289	0.006
Mof_H 	H 	0.211	0.0562	0.8772	0.006
Mof_H 	H 	0.789	0.5562	0.6228	0.006
Mof_H 	H 	0.711	0.4438	0.1228	0.006
Mof_H 	H 	0.289	0.9438	0.3772	0.006
Mof_H 	H 	0.1228	0.789	0.9438	0.006
Mof_H 	H 	0.3772	0.211	0.4438	0.006
Mof_H 	H 	0.8772	0.289	0.5562	0.006
Mof_H 	H 	0.6228	0.711	0.0562	0.006
Mof_H 	H 	0.9438	0.1228	0.789	0.006
Mof_H 	H 	0.4438	0.3772	0.211	0.006
Mof_H 	H 	0.5562	0.8772	0.289	0.006
Mof_H 	H 	0.0562	0.6228	0.711	0.006
Mof_H 	H 	0.789	0.9438	0.1228	0.006
Mof_H 	H 	0.211	0.4438	0.3772	0.006
Mof_H 	H 	0.289	0.5562	0.8772	0.006
Mof_H 	H 	0.711	0.0562	0.6228	0.006
Mof_H 	H 	0.8714	0.2513	0.0796	-0.107
Mof_H 	H 	0.6286	0.7487	0.5796	-0.107
Mof_H 	H 	0.1286	0.7513	0.4204	-0.107
Mof_H 	H 	0.3714	0.2487	0.9204	-0.107
Mof_H 	H 	0.0796	0.8714	0.2513	-0.107
Mof_H 	H 	0.5796	0.6286	0.7487	-0.107
Mof_H 	H 	0.4204	0.1286	0.7513	-0.107
Mof_H 	H 	0.9204	0.3714	0.2487	-0.107
Mof_H 	H 	0.2513	0.0796	0.8714	-0.107
Mof_H 	H 	0.7487	0.5796	0.6286	-0.107
Mof_H 	H 	0.7513	0.4204	0.1286	-0.107
Mof_H 	H 	0.2487	0.9204	0.3714	-0.107
Mof_H 	H 	0.1286	0.7487	0.9204	-0.107
Mof_H 	H 	0.3714	0.2513	0.4204	-0.107
Mof_H 	H 	0.8714	0.2487	0.5796	-0.107
Mof_H 	H 	0.6286	0.7513	0.0796	-0.107
Mof_H 	H 	0.9204	0.1286	0.7487	-0.107
Mof_H 	H 	0.4204	0.3714	0.2513	-0.107
Mof_H 	H 	0.5796	0.8714	0.2487	-0.107
Mof_H 	H 	0.0796	0.6286	0.7513	-0.107
Mof_H 	H 	0.7487	0.9204	0.1286	-0.107
Mof_H 	H 	0.2513	0.4204	0.3714	-0.107
Mof_H 	H 	0.2487	0.5796	0.8714	-0.107
Mof_H 	H 	0.7513	0.0796	0.6286	-0.107
Mof_C 	C 	0.01193	0.21238	0.02456	0.335
Mof_C 	C 	0.48807	0.78762	0.52456	0.335
Mof_C 	C 	0.98807	0.71238	0.47544	0.335
Mof_C 	C 	0.51193	0.28762	0.97544	0.335
Mof_C 	C 	0.02456	0.01193	0.21238	0.335
Mof_C 	C 	0.52456	0.48807	0.78762	0.335
Mof_C 	C 	0.47544	0.98807	0.71238	0.335
Mof_C 	C 	0.97544	0.51193	0.28762	0.335
Mof_C 	C 	0.21238	0.02456	0.01193	0.335
Mof_C 	C 	0.78762	0.52456	0.48807	0.335
Mof_C 	C 	0.71238	0.47544	0.98807	0.335
Mof_C 	C 	0.28762	0.97544	0.51193	0.335
Mof_C 	C 	0.98807	0.78762	0.97544	0.335
Mof_C 	C 	0.51193	0.21238	0.47544	0.335
Mof_C 	C 	0.01193	0.28762	0.52456	0.335
Mof_C 	C 	0.48807	0.71238	0.02456	0.335
Mof_C 	C 	0.97544	0.98807	0.78762	0.335
Mof_C 	C 	0.47544	0.51193	0.21238	0.335
Mof_C 	C 	0.52456	0.01193	0.28762	0.335
Mof_C 	C 	0.02456	0.48807	0.71238	0.335
Mof_C 	C 	0.78762	0.97544	0.98807	0.335
Mof_C 	C 	0.21238	0.47544	0.51193	0.335
Mof_C 	C 	0.28762	0.52456	0.01193	0.335
Mof_C 	C 	0.71238	0.02456	0.48807	0.335
Mof_C 	C 	0.94449	0.2299	0.0166	0.121
Mof_C 	C 	0.55551	0.7701	0.5166	0.121
Mof_C 	C 	0.05551	0.7299	0.4834	0.121
Mof_C 	C 	0.44449	0.2701	0.9834	0.121
Mof_C 	C 	0.0166	0.94449	0.2299	0.121
Mof_C 	C 	0.5166	0.55551	0.7701	0.121
Mof_C 	C 	0.4834	0.05551	0.7299	0.121
Mof_C 	C 	0.9834	0.44449	0.2701	0.121
Mof_C 	C 	0.2299	0.0166	0.94449	0.121
Mof_C 	C 	0.7701	0.5166	0.55551	0.121
Mof_C 	C 	0.7299	0.4834	0.05551	0.121
Mof_C 	C 	0.2701	0.9834	0.44449	0.121
Mof_C 	C 	0.05551	0.7701	0.9834	0.121
Mof_C 	C 	0.44449	0.2299	0.4834	0.121
Mof_C 	C 	0.94449	0.2701	0.5166	0.121
Mof_C 	C 	0.55551	0.7299	0.0166	0.121
Mof_C 	C 	0.9834	0.05551	0.7701	0.121
Mof_C 	C 	0.4834	0.44449	0.2299	0.121
Mof_C 	C 	0.5166	0.94449	0.2701	0.121
Mof_C 	C 	0.0166	0.55551	0.7299	0.121
Mof_C 	C 	0.7701	0.9834	0.05551	0.121
Mof_C 	C 	0.2299	0.4834	0.44449	0.121
Mof_C 	C 	0.2701	0.5166	0.94449	0.121
Mof_C 	C 	0.7299	0.0166	0.55551	0.121
Mof_C 	C 	0.97236	0.26428	0.00027	0.113
Mof_C 	C 	0.52764	0.73572	0.50027	0.114
Mof_C 	C 	0.02764	0.76428	0.49973	0.114
Mof_C 	C 	0.47236	0.23572	0.99973	0.114
Mof_C 	C 	0.00027	0.97236	0.26428	0.113
Mof_C 	C 	0.50027	0.52764	0.73572	0.114
Mof_C 	C 	0.49973	0.02764	0.76428	0.114
Mof_C 	C 	0.99973	0.47236	0.23572	0.114
Mof_C 	C 	0.26428	0.00027	0.97236	0.113
Mof_C 	C 	0.73572	0.50027	0.52764	0.114
Mof_C 	C 	0.76428	0.49973	0.02764	0.114
Mof_C 	C 	0.23572	0.99973	0.47236	0.114
Mof_C 	C 	0.02764	0.73572	0.99973	0.113
Mof_C 	C 	0.47236	0.26428	0.49973	0.114
Mof_C 	C 	0.97236	0.23572	0.50027	0.114
Mof_C 	C 	0.52764	0.76428	0.00027	0.114
Mof_C 	C 	0.99973	0.02764	0.73572	0.113
Mof_C 	C 	0.49973	0.47236	0.26428	0.114
Mof_C 	C 	0.50027	0.97236	0.23572	0.114
Mof_C 	C 	0.00027	0.52764	0.76428	0.114
Mof_C 	C 	0.73572	0.99973	0.02764	0.113
Mof_C 	C 	0.26428	0.49973	0.47236	0.114
Mof_C 	C 	0.23572	0.50027	0.97236	0.114
Mof_C 	C 	0.76428	0.00027	0.52764	0.114
Mof_C 	C 	0.93259	0.28903	0.05368	0.419
Mof_C 	C 	0.56741	0.71097	0.55368	0.419
Mof_C 	C 	0.06741	0.78903	0.44632	0.419
Mof_C 	C 	0.43259	0.21097	0.94632	0.419
Mof_C 	C 	0.05368	0.93259	0.28903	0.419
Mof_C 	C 	0.55368	0.56741	0.71097	0.419
Mof_C 	C 	0.44632	0.06741	0.78903	0.419
Mof_C 	C 	0.94632	0.43259	0.21097	0.419
Mof_C 	C 	0.28903	0.05368	0.93259	0.419
Mof_C 	C 	0.71097	0.55368	0.56741	0.419
Mof_C 	C 	0.78903	0.44632	0.06741	0.419
Mof_C 	C 	0.21097	0.94632	0.43259	0.419
Mof_C 	C 	0.06741	0.71097	0.94632	0.419
Mof_C 	C 	0.43259	0.28903	0.44632	0.419
Mof_C 	C 	0.93259	0.21097	0.55368	0.419
Mof_C 	C 	0.56741	0.78903	0.05368	0.419
Mof_C 	C 	0.94632	0.06741	0.71097	0.419
Mof_C 	C 	0.44632	0.43259	0.28903	0.419
Mof_C 	C 	0.55368	0.93259	0.21097	0.419
Mof_C 	C 	0.05368	0.56741	0.78903	0.419
Mof_C 	C 	0.71097	0.94632	0.06741	0.419
Mof_C 	C 	0.28903	0.44632	0.43259	0.419
Mof_C 	C 	0.21097	0.55368	0.93259	0.419
Mof_C 	C 	0.78903	0.05368	0.56741	0.419
Mof_C 	C 	0.04909	0.26849	0.99735	0.056
Mof_C 	C 	0.45091	0.73151	0.49735	0.057
Mof_C 	C 	0.95091	0.76849	0.50265	0.057
Mof_C 	C 	0.54909	0.23151	0.00265	0.057
Mof_C 	C 	0.99735	0.04909	0.26849	0.056
Mof_C 	C 	0.49735	0.45091	0.73151	0.057
Mof_C 	C 	0.50265	0.95091	0.76849	0.057
Mof_C 	C 	0.00265	0.54909	0.23151	0.057
Mof_C 	C 	0.26849	0.99735	0.04909	0.056
Mof_C 	C 	0.73151	0.49735	0.45091	0.057
Mof_C 	C 	0.76849	0.50265	0.95091	0.057
Mof_C 	C 	0.23151	0.00265	0.54909	0.057
Mof_C 	C 	0.95091	0.73151	0.00265	0.056
Mof_C 	C 	0.54909	0.26849	0.50265	0.057
Mof_C 	C 	0.04909	0.23151	0.49735	0.057
Mof_C 	C 	0.45091	0.76849	0.99735	0.057
Mof_C 	C 	0.00265	0.95091	0.73151	0.056
Mof_C 	C 	0.50265	0.54909	0.26849	0.057
Mof_C 	C 	0.49735	0.04909	0.23151	0.057
Mof_C 	C 	0.99735	0.45091	0.76849	0.057
Mof_C 	C 	0.73151	0.00265	0.95091	0.056
Mof_C 	C 	0.26849	0.50265	0.54909	0.057
Mof_C 	C 	0.23151	0.49735	0.04909	0.057
Mof_C 	C 	0.76849	0.99735	0.45091	0.057
Mof_H 	H 	0.0455	0.2838	0.9729	0.032
Mof_H 	H 	0.4545	0.7162	0.4729	0.032
Mof_H 	H 	0.9545	0.7838	0.5271	0.032
Mof_H 	H 	0.5455	0.2162	0.0271	0.032
Mof_H 	H 	0.9729	0.0455	0.2838	0.032
Mof_H 	H 	0.4729	0.4545	0.7162	0.032
Mof_H 	H 	0.5271	0.9545	0.7838	0.032
Mof_H 	H 	0.0271	0.5455	0.2162	0.032
Mof_H 	H 	0.2838	0.9729	0.0455	0.032
Mof_H 	H 	0.7162	0.4729	0.4545	0.032
Mof_H 	H 	0.7838	0.5271	0.9545	0.032
Mof_H 	H 	0.2162	0.0271	0.5455	0.032
Mof_H 	H 	0.9545	0.7162	0.0271	0.032
Mof_H 	H 	0.5455	0.2838	0.5271	0.032
Mof_H 	H 	0.0455	0.2162	0.4729	0.032
Mof_H 	H 	0.4545	0.7838	0.9729	0.032
Mof_H 	H 	0.0271	0.9545	0.7162	0.032
Mof_H 	H 	0.5271	0.5455	0.2838	0.032
Mof_H 	H 	0.4729	0.0455	0.2162	0.032
Mof_H 	H 	0.9729	0.4545	0.7838	0.032
Mof_H 	H 	0.7162	0.0271	0.9545	0.032
Mof_H 	H 	0.2838	0.5271	0.5455	0.032
Mof_H 	H 	0.2162	0.4729	0.0455	0.032
Mof_H 	H 	0.7838	0.9729	0.4545	0.032
Mof_H 	H 	0.0696	0.2484	0.9923	0.031
Mof_H 	H 	0.4304	0.7516	0.4923	0.031
Mof_H 	H 	0.9304	0.7484	0.5077	0.031
Mof_H 	H 	0.5696	0.2516	0.0077	0.031
Mof_H 	H 	0.9923	0.0696	0.2484	0.031
Mof_H 	H 	0.4923	0.4304	0.7516	0.031
Mof_H 	H 	0.5077	0.9304	0.7484	0.031
Mof_H 	H 	0.0077	0.5696	0.2516	0.031
Mof_H 	H 	0.2484	0.9923	0.0696	0.031
Mof_H 	H 	0.7516	0.4923	0.4304	0.031
Mof_H 	H 	0.7484	0.5077	0.9304	0.031
Mof_H 	H 	0.2516	0.0077	0.5696	0.031
Mof_H 	H 	0.9304	0.7516	0.0077	0.031
Mof_H 	H 	0.5696	0.2484	0.5077	0.031
Mof_H 	H 	0.0696	0.2516	0.4923	0.031
Mof_H 	H 	0.4304	0.7484	0.9923	0.031
Mof_H 	H 	0.0077	0.9304	0.7516	0.031
Mof_H 	H 	0.5077	0.5696	0.2484	0.031
Mof_H 	H 	0.4923	0.0696	0.2516	0.031
Mof_H 	H 	0.9923	0.4304	0.7484	0.031
Mof_H 	H 	0.7516	0.0077	0.9304	0.031
Mof_H 	H 	0.2484	0.5077	0.5696	0.031
Mof_H 	H 	0.2516	0.4923	0.0696	0.031
Mof_H 	H 	0.7484	0.9923	0.4304	0.031
Mof_C 	C 	0.97711	0.33852	0.02305	0.114
Mof_C 	C 	0.52289	0.66148	0.52305	0.114
Mof_C 	C 	0.02289	0.83852	0.47695	0.114
Mof_C 	C 	0.47711	0.16148	0.97695	0.114
Mof_C 	C 	0.02305	0.97711	0.33852	0.114
Mof_C 	C 	0.52305	0.52289	0.66148	0.114
Mof_C 	C 	0.47695	0.02289	0.83852	0.114
Mof_C 	C 	0.97695	0.47711	0.16148	0.114
Mof_C 	C 	0.33852	0.02305	0.97711	0.114
Mof_C 	C 	0.66148	0.52305	0.52289	0.114
Mof_C 	C 	0.83852	0.47695	0.02289	0.114
Mof_C 	C 	0.16148	0.97695	0.47711	0.114
Mof_C 	C 	0.02289	0.66148	0.97695	0.114
Mof_C 	C 	0.47711	0.33852	0.47695	0.114
Mof_C 	C 	0.97711	0.16148	0.52305	0.114
Mof_C 	C 	0.52289	0.83852	0.02305	0.114
Mof_C 	C 	0.97695	0.02289	0.66148	0.114
Mof_C 	C 	0.47695	0.47711	0.33852	0.114
Mof_C 	C 	0.52305	0.97711	0.16148	0.114
Mof_C 	C 	0.02305	0.52289	0.83852	0.114
Mof_C 	C 	0.66148	0.97695	0.02289	0.114
Mof_C 	C 	0.33852	0.47695	0.47711	0.114
Mof_C 	C 	0.16148	0.52305	0.97711	0.114
Mof_C 	C 	0.83852	0.02305	0.52289	0.114
Mof_H 	H 	0.9826	0.3441	0.995	-0.003
Mof_H 	H 	0.5174	0.6559	0.495	-0.004
Mof_H 	H 	0.0174	0.8441	0.505	-0.004
Mof_H 	H 	0.4826	0.1559	0.005	-0.003
Mof_H 	H 	0.995	0.9826	0.3441	-0.003
Mof_H 	H 	0.495	0.5174	0.6559	-0.004
Mof_H 	H 	0.505	0.0174	0.8441	-0.004
Mof_H 	H 	0.005	0.4826	0.1559	-0.003
Mof_H 	H 	0.3441	0.995	0.9826	-0.003
Mof_H 	H 	0.6559	0.495	0.5174	-0.004
Mof_H 	H 	0.8441	0.505	0.0174	-0.004
Mof_H 	H 	0.1559	0.005	0.4826	-0.003
Mof_H 	H 	0.0174	0.6559	0.005	-0.003
Mof_H 	H 	0.4826	0.3441	0.505	-0.004
Mof_H 	H 	0.9826	0.1559	0.495	-0.004
Mof_H 	H 	0.5174	0.8441	0.995	-0.003
Mof_H 	H 	0.005	0.0174	0.6559	-0.003
Mof_H 	H 	0.505	0.4826	0.3441	-0.004
Mof_H 	H 	0.495	0.9826	0.1559	-0.004
Mof_H 	H 	0.995	0.5174	0.8441	-0.003
Mof_H 	H 	0.6559	0.005	0.0174	-0.003
Mof_H 	H 	0.3441	0.505	0.4826	-0.004
Mof_H 	H 	0.1559	0.495	0.9826	-0.004
Mof_H 	H 	0.8441	0.995	0.5174	-0.003
Mof_H 	H 	0.9562	0.3568	0.0318	-0.015
Mof_H 	H 	0.5438	0.6432	0.5318	-0.015
Mof_H 	H 	0.0438	0.8568	0.4682	-0.015
Mof_H 	H 	0.4562	0.1432	0.9682	-0.015
Mof_H 	H 	0.0318	0.9562	0.3568	-0.015
Mof_H 	H 	0.5318	0.5438	0.6432	-0.015
Mof_H 	H 	0.4682	0.0438	0.8568	-0.015
Mof_H 	H 	0.9682	0.4562	0.1432	-0.015
Mof_H 	H 	0.3568	0.0318	0.9562	-0.015
Mof_H 	H 	0.6432	0.5318	0.5438	-0.015
Mof_H 	H 	0.8568	0.4682	0.0438	-0.015
Mof_H 	H 	0.1432	0.9682	0.4562	-0.015
Mof_H 	H 	0.0438	0.6432	0.9682	-0.015
Mof_H 	H 	0.4562	0.3568	0.4682	-0.015
Mof_H 	H 	0.9562	0.1432	0.5318	-0.015
Mof_H 	H 	0.5438	0.8568	0.0318	-0.015
Mof_H 	H 	0.9682	0.0438	0.6432	-0.015
Mof_H 	H 	0.4682	0.4562	0.3568	-0.015
Mof_H 	H 	0.5318	0.9562	0.1432	-0.015
Mof_H 	H 	0.0318	0.5438	0.8568	-0.015
Mof_H 	H 	0.6432	0.9682	0.0438	-0.015
Mof_H 	H 	0.3568	0.4682	0.4562	-0.015
Mof_H 	H 	0.1432	0.5318	0.9562	-0.015
Mof_H 	H 	0.8568	0.0318	0.5438	-0.015
Mof_C 	C 	0.09194	0.28444	0.05536	0.335
Mof_C 	C 	0.40806	0.71556	0.55536	0.335
Mof_C 	C 	0.90806	0.78444	0.44464	0.335
Mof_C 	C 	0.59194	0.21556	0.94464	0.335
Mof_C 	C 	0.05536	0.09194	0.28444	0.335
Mof_C 	C 	0.55536	0.40806	0.71556	0.335
Mof_C 	C 	0.44464	0.90806	0.78444	0.335
Mof_C 	C 	0.94464	0.59194	0.21556	0.335
Mof_C 	C 	0.28444	0.05536	0.09194	0.335
Mof_C 	C 	0.71556	0.55536	0.40806	0.335
Mof_C 	C 	0.78444	0.44464	0.90806	0.335
Mof_C 	C 	0.21556	0.94464	0.59194	0.335
Mof_C 	C 	0.90806	0.71556	0.94464	0.335
Mof_C 	C 	0.59194	0.28444	0.44464	0.335
Mof_C 	C 	0.09194	0.21556	0.55536	0.335
Mof_C 	C 	0.40806	0.78444	0.05536	0.335
Mof_C 	C 	0.94464	0.90806	0.71556	0.335
Mof_C 	C 	0.44464	0.59194	0.28444	0.335
Mof_C 	C 	0.55536	0.09194	0.21556	0.335
Mof_C 	C 	0.05536	0.40806	0.78444	0.335
Mof_C 	C 	0.71556	0.94464	0.90806	0.335
Mof_C 	C 	0.28444	0.44464	0.59194	0.335
Mof_C 	C 	0.21556	0.55536	0.09194	0.335
Mof_C 	C 	0.78444	0.05536	0.40806	0.335
Mof_C 	C 	0.05292	0.33885	0.03293	0.051
Mof_C 	C 	0.44708	0.66115	0.53293	0.051
Mof_C 	C 	0.94708	0.83885	0.46707	0.051
Mof_C 	C 	0.55292	0.16115	0.96707	0.051
Mof_C 	C 	0.03293	0.05292	0.33885	0.051
Mof_C 	C 	0.53293	0.44708	0.66115	0.051
Mof_C 	C 	0.46707	0.94708	0.83885	0.051
Mof_C 	C 	0.96707	0.55292	0.16115	0.051
Mof_C 	C 	0.33885	0.03293	0.05292	0.051
Mof_C 	C 	0.66115	0.53293	0.44708	0.051
Mof_C 	C 	0.83885	0.46707	0.94708	0.051
Mof_C 	C 	0.16115	0.96707	0.55292	0.051
Mof_C 	C 	0.94708	0.66115	0.96707	0.051
Mof_C 	C 	0.55292	0.33885	0.46707	0.051
Mof_C 	C 	0.05292	0.16115	0.53293	0.051
Mof_C 	C 	0.44708	0.83885	0.03293	0.051
Mof_C 	C 	0.96707	0.94708	0.66115	0.051
Mof_C 	C 	0.46707	0.55292	0.33885	0.051
Mof_C 	C 	0.53293	0.05292	0.16115	0.051
Mof_C 	C 	0.03293	0.44708	0.83885	0.051
Mof_C 	C 	0.66115	0.96707	0.94708	0.051
Mof_C 	C 	0.33885	0.46707	0.55292	0.051
Mof_C 	C 	0.16115	0.53293	0.05292	0.051
Mof_C 	C 	0.83885	0.03293	0.44708	0.051
Mof_H 	H 	0.0592	0.3535	0.0082	0.021
Mof_H 	H 	0.4408	0.6465	0.5082	0.021
Mof_H 	H 	0.9408	0.8535	0.4918	0.021
Mof_H 	H 	0.5592	0.1465	0.9918	0.021
Mof_H 	H 	0.0082	0.0592	0.3535	0.021
Mof_H 	H 	0.5082	0.4408	0.6465	0.021
Mof_H 	H 	0.4918	0.9408	0.8535	0.021
Mof_H 	H 	0.9918	0.5592	0.1465	0.021
Mof_H 	H 	0.3535	0.0082	0.0592	0.021
Mof_H 	H 	0.6465	0.5082	0.4408	0.021
Mof_H 	H 	0.8535	0.4918	0.9408	0.021
Mof_H 	H 	0.1465	0.9918	0.5592	0.021
Mof_H 	H 	0.9408	0.6465	0.9918	0.021
Mof_H 	H 	0.5592	0.3535	0.4918	0.021
Mof_H 	H 	0.0592	0.1465	0.5082	0.021
Mof_H 	H 	0.4408	0.8535	0.0082	0.021
Mof_H 	H 	0.9918	0.9408	0.6465	0.021
Mof_H 	H 	0.4918	0.5592	0.3535	0.021
Mof_H 	H 	0.5082	0.0592	0.1465	0.021
Mof_H 	H 	0.0082	0.4408	0.8535	0.021
Mof_H 	H 	0.6465	0.9918	0.9408	0.021
Mof_H 	H 	0.3535	0.4918	0.5592	0.021
Mof_H 	H 	0.1465	0.5082	0.0592	0.021
Mof_H 	H 	0.8535	0.0082	0.4408	0.021
Mof_C 	C 	0.07873	0.35348	0.06805	0.058
Mof_C 	C 	0.42127	0.64652	0.56805	0.058
Mof_C 	C 	0.92127	0.85348	0.43195	0.058
Mof_C 	C 	0.57873	0.14652	0.93195	0.058
Mof_C 	C 	0.06805	0.07873	0.35348	0.058
Mof_C 	C 	0.56805	0.42127	0.64652	0.058
Mof_C 	C 	0.43195	0.92127	0.85348	0.058
Mof_C 	C 	0.93195	0.57873	0.14652	0.058
Mof_C 	C 	0.35348	0.06805	0.07873	0.058
Mof_C 	C 	0.64652	0.56805	0.42127	0.058
Mof_C 	C 	0.85348	0.43195	0.92127	0.058
Mof_C 	C 	0.14652	0.93195	0.57873	0.058
Mof_C 	C 	0.92127	0.64652	0.93195	0.058
Mof_C 	C 	0.57873	0.35348	0.43195	0.058
Mof_C 	C 	0.07873	0.14652	0.56805	0.058
Mof_C 	C 	0.42127	0.85348	0.06805	0.058
Mof_C 	C 	0.93195	0.92127	0.64652	0.058
Mof_C 	C 	0.43195	0.57873	0.35348	0.058
Mof_C 	C 	0.56805	0.07873	0.14652	0.058
Mof_C 	C 	0.06805	0.42127	0.85348	0.058
Mof_C 	C 	0.64652	0.93195	0.92127	0.058
Mof_C 	C 	0.35348	0.43195	0.57873	0.058
Mof_C 	C 	0.14652	0.56805	0.07873	0.058
Mof_C 	C 	0.85348	0.06805	0.42127	0.058
Mof_H 	H 	0.0961	0.3758	0.0602	0.018
Mof_H 	H 	0.4039	0.6242	0.5602	0.018
Mof_H 	H 	0.9039	0.8758	0.4398	0.018
Mof_H 	H 	0.5961	0.1242	0.9398	0.018
Mof_H 	H 	0.0602	0.0961	0.3758	0.018
Mof_H 	H 	0.5602	0.4039	0.6242	0.018
Mof_H 	H 	0.4398	0.9039	0.8758	0.018
Mof_H 	H 	0.9398	0.5961	0.1242	0.018
Mof_H 	H 	0.3758	0.0602	0.0961	0.018
Mof_H 	H 	0.6242	0.5602	0.4039	0.018
Mof_H 	H 	0.8758	0.4398	0.9039	0.018
Mof_H 	H 	0.1242	0.9398	0.5961	0.018
Mof_H 	H 	0.9039	0.6242	0.9398	0.018
Mof_H 	H 	0.5961	0.3758	0.4398	0.018
Mof_H 	H 	0.0961	0.1242	0.5602	0.018
Mof_H 	H 	0.4039	0.8758	0.0602	0.018
Mof_H 	H 	0.9398	0.9039	0.6242	0.018
Mof_H 	H 	0.4398	0.5961	0.3758	0.018
Mof_H 	H 	0.5602	0.0961	0.1242	0.018
Mof_H 	H 	0.0602	0.4039	0.8758	0.018
Mof_H 	H 	0.6242	0.9398	0.9039	0.018
Mof_H 	H 	0.3758	0.4398	0.5961	0.018
Mof_H 	H 	0.1242	0.5602	0.0961	0.018
Mof_H 	H 	0.8758	0.0602	0.4039	0.018
Mof_C 	C 	0.01136	0.36334	0.08361	0.33
Mof_C 	C 	0.48864	0.63666	0.58361	0.33
Mof_C 	C 	0.98864	0.86334	0.41639	0.33
Mof_C 	C 	0.51136	0.13666	0.91639	0.33
Mof_C 	C 	0.08361	0.01136	0.36334	0.33
Mof_C 	C 	0.58361	0.48864	0.63666	0.33
Mof_C 	C 	0.41639	0.98864	0.86334	0.33
Mof_C 	C 	0.91639	0.51136	0.13666	0.33
Mof_C 	C 	0.36334	0.08361	0.01136	0.33
Mof_C 	C 	0.63666	0.58361	0.48864	0.33
Mof_C 	C 	0.86334	0.41639	0.98864	0.33
Mof_C 	C 	0.13666	0.91639	0.51136	0.33
Mof_C 	C 	0.98864	0.63666	0.91639	0.33
Mof_C 	C 	0.51136	0.36334	0.41639	0.33
Mof_C 	C 	0.01136	0.13666	0.58361	0.33
Mof_C 	C 	0.48864	0.86334	0.08361	0.33
Mof_C 	C 	0.91639	0.98864	0.63666	0.33
Mof_C 	C 	0.41639	0.51136	0.36334	0.33
Mof_C 	C 	0.58361	0.01136	0.13666	0.33
Mof_C 	C 	0.08361	0.48864	0.86334	0.33
Mof_C 	C 	0.63666	0.91639	0.98864	0.33
Mof_C 	C 	0.36334	0.41639	0.51136	0.33
Mof_C 	C 	0.13666	0.58361	0.01136	0.33
Mof_C 	C 	0.86334	0.08361	0.48864	0.33
Mof_C 	C 	0.13162	0.31732	0.10915	0.07
Mof_C 	C 	0.36838	0.68268	0.60915	0.07
Mof_C 	C 	0.86838	0.81732	0.39085	0.07
Mof_C 	C 	0.63162	0.18268	0.89085	0.07
Mof_C 	C 	0.10915	0.13162	0.31732	0.07
Mof_C 	C 	0.60915	0.36838	0.68268	0.07
Mof_C 	C 	0.39085	0.86838	0.81732	0.07
Mof_C 	C 	0.89085	0.63162	0.18268	0.07
Mof_C 	C 	0.31732	0.10915	0.13162	0.07
Mof_C 	C 	0.68268	0.60915	0.36838	0.07
Mof_C 	C 	0.81732	0.39085	0.86838	0.07
Mof_C 	C 	0.18268	0.89085	0.63162	0.07
Mof_C 	C 	0.86838	0.68268	0.89085	0.07
Mof_C 	C 	0.63162	0.31732	0.39085	0.07
Mof_C 	C 	0.13162	0.18268	0.60915	0.07
Mof_C 	C 	0.36838	0.81732	0.10915	0.07
Mof_C 	C 	0.89085	0.86838	0.68268	0.07
Mof_C 	C 	0.39085	0.63162	0.31732	0.07
Mof_C 	C 	0.60915	0.13162	0.18268	0.07
Mof_C 	C 	0.10915	0.36838	0.81732	0.07
Mof_C 	C 	0.68268	0.89085	0.86838	0.07
Mof_C 	C 	0.31732	0.39085	0.63162	0.07
Mof_C 	C 	0.18268	0.60915	0.13162	0.07
Mof_C 	C 	0.81732	0.10915	0.36838	0.07
Mof_H 	H 	0.145	0.3432	0.1093	0.021
Mof_H 	H 	0.355	0.6568	0.6093	0.021
Mof_H 	H 	0.855	0.8432	0.3907	0.021
Mof_H 	H 	0.645	0.1568	0.8907	0.021
Mof_H 	H 	0.1093	0.145	0.3432	0.021
Mof_H 	H 	0.6093	0.355	0.6568	0.021
Mof_H 	H 	0.3907	0.855	0.8432	0.021
Mof_H 	H 	0.8907	0.645	0.1568	0.021
Mof_H 	H 	0.3432	0.1093	0.145	0.021
Mof_H 	H 	0.6568	0.6093	0.355	0.021
Mof_H 	H 	0.8432	0.3907	0.855	0.021
Mof_H 	H 	0.1568	0.8907	0.645	0.021
Mof_H 	H 	0.855	0.6568	0.8907	0.021
Mof_H 	H 	0.645	0.3432	0.3907	0.021
Mof_H 	H 	0.145	0.1568	0.6093	0.021
Mof_H 	H 	0.355	0.8432	0.1093	0.021
Mof_H 	H 	0.8907	0.855	0.6568	0.021
Mof_H 	H 	0.3907	0.645	0.3432	0.021
Mof_H 	H 	0.6093	0.145	0.1568	0.021
Mof_H 	H 	0.1093	0.355	0.8432	0.021
Mof_H 	H 	0.6568	0.8907	0.855	0.021
Mof_H 	H 	0.3432	0.3907	0.645	0.021
Mof_H 	H 	0.1568	0.6093	0.145	0.021
Mof_H 	H 	0.8432	0.1093	0.355	0.021
Mof_H 	H 	0.1515	0.2972	0.1024	0.011
Mof_H 	H 	0.3485	0.7028	0.6024	0.011
Mof_H 	H 	0.8485	0.7972	0.3976	0.011
Mof_H 	H 	0.6515	0.2028	0.8976	0.011
Mof_H 	H 	0.1024	0.1515	0.2972	0.011
Mof_H 	H 	0.6024	0.3485	0.7028	0.011
Mof_H 	H 	0.3976	0.8485	0.7972	0.011
Mof_H 	H 	0.8976	0.6515	0.2028	0.011
Mof_H 	H 	0.2972	0.1024	0.1515	0.011
Mof_H 	H 	0.7028	0.6024	0.3485	0.011
Mof_H 	H 	0.7972	0.3976	0.8485	0.011
Mof_H 	H 	0.2028	0.8976	0.6515	0.011
Mof_H 	H 	0.8485	0.7028	0.8976	0.011
Mof_H 	H 	0.6515	0.2972	0.3976	0.011
Mof_H 	H 	0.1515	0.2028	0.6024	0.011
Mof_H 	H 	0.3485	0.7972	0.1024	0.011
Mof_H 	H 	0.8976	0.8485	0.7028	0.011
Mof_H 	H 	0.3976	0.6515	0.2972	0.011
Mof_H 	H 	0.6024	0.1515	0.2028	0.011
Mof_H 	H 	0.1024	0.3485	0.7972	0.011
Mof_H 	H 	0.7028	0.8976	0.8485	0.011
Mof_H 	H 	0.2972	0.3976	0.6515	0.011
Mof_H 	H 	0.2028	0.6024	0.1515	0.011
Mof_H 	H 	0.7972	0.1024	0.3485	0.011
Mof_C 	C 	0.05899	0.38575	0.13397	0.07
Mof_C 	C 	0.44101	0.61425	0.63397	0.07
Mof_C 	C 	0.94101	0.88575	0.36603	0.07
Mof_C 	C 	0.55899	0.11425	0.86603	0.07
Mof_C 	C 	0.13397	0.05899	0.38575	0.07
Mof_C 	C 	0.63397	0.44101	0.61425	0.07
Mof_C 	C 	0.36603	0.94101	0.88575	0.07
Mof_C 	C 	0.86603	0.55899	0.11425	0.07
Mof_C 	C 	0.38575	0.13397	0.05899	0.07
Mof_C 	C 	0.61425	0.63397	0.44101	0.07
Mof_C 	C 	0.88575	0.36603	0.94101	0.07
Mof_C 	C 	0.11425	0.86603	0.55899	0.07
Mof_C 	C 	0.94101	0.61425	0.86603	0.07
Mof_C 	C 	0.55899	0.38575	0.36603	0.07
Mof_C 	C 	0.05899	0.11425	0.63397	0.07
Mof_C 	C 	0.44101	0.88575	0.13397	0.07
Mof_C 	C 	0.86603	0.94101	0.61425	0.07
Mof_C 	C 	0.36603	0.55899	0.38575	0.07
Mof_C 	C 	0.63397	0.05899	0.11425	0.07
Mof_C 	C 	0.13397	0.44101	0.88575	0.07
Mof_C 	C 	0.61425	0.86603	0.94101	0.07
Mof_C 	C 	0.38575	0.36603	0.55899	0.07
Mof_C 	C 	0.11425	0.63397	0.05899	0.07
Mof_C 	C 	0.88575	0.13397	0.44101	0.07
Mof_H 	H 	0.037	0.4037	0.1404	0.007
Mof_H 	H 	0.463	0.5963	0.6404	0.007
Mof_H 	H 	0.963	0.9037	0.3596	0.007
Mof_H 	H 	0.537	0.0963	0.8596	0.007
Mof_H 	H 	0.1404	0.037	0.4037	0.007
Mof_H 	H 	0.6404	0.463	0.5963	0.007
Mof_H 	H 	0.3596	0.963	0.9037	0.007
Mof_H 	H 	0.8596	0.537	0.0963	0.007
Mof_H 	H 	0.4037	0.1404	0.037	0.007
Mof_H 	H 	0.5963	0.6404	0.463	0.007
Mof_H 	H 	0.9037	0.3596	0.963	0.007
Mof_H 	H 	0.0963	0.8596	0.537	0.007
Mof_H 	H 	0.963	0.5963	0.8596	0.007
Mof_H 	H 	0.537	0.4037	0.3596	0.007
Mof_H 	H 	0.037	0.0963	0.6404	0.007
Mof_H 	H 	0.463	0.9037	0.1404	0.007
Mof_H 	H 	0.8596	0.963	0.5963	0.007
Mof_H 	H 	0.3596	0.537	0.4037	0.007
Mof_H 	H 	0.6404	0.037	0.0963	0.007
Mof_H 	H 	0.1404	0.463	0.9037	0.007
Mof_H 	H 	0.5963	0.8596	0.963	0.007
Mof_H 	H 	0.4037	0.3596	0.537	0.007
Mof_H 	H 	0.0963	0.6404	0.037	0.007
Mof_H 	H 	0.9037	0.1404	0.463	0.007
Mof_H 	H 	0.0829	0.402	0.1301	0.012
Mof_H 	H 	0.4171	0.598	0.6301	0.012
Mof_H 	H 	0.9171	0.902	0.3699	0.012
Mof_H 	H 	0.5829	0.098	0.8699	0.012
Mof_H 	H 	0.1301	0.0829	0.402	0.012
Mof_H 	H 	0.6301	0.4171	0.598	0.012
Mof_H 	H 	0.3699	0.9171	0.902	0.012
Mof_H 	H 	0.8699	0.5829	0.098	0.012
Mof_H 	H 	0.402	0.1301	0.0829	0.012
Mof_H 	H 	0.598	0.6301	0.4171	0.012
Mof_H 	H 	0.902	0.3699	0.9171	0.012
Mof_H 	H 	0.098	0.8699	0.5829	0.012
Mof_H 	H 	0.9171	0.598	0.8699	0.012
Mof_H 	H 	0.5829	0.402	0.3699	0.012
Mof_H 	H 	0.0829	0.098	0.6301	0.012
Mof_H 	H 	0.4171	0.902	0.1301	0.012
Mof_H 	H 	0.8699	0.9171	0.598	0.012
Mof_H 	H 	0.3699	0.5829	0.402	0.012
Mof_H 	H 	0.6301	0.0829	0.098	0.012
Mof_H 	H 	0.1301	0.4171	0.902	0.012
Mof_H 	H 	0.598	0.8699	0.9171	0.012
Mof_H 	H 	0.402	0.3699	0.5829	0.012
Mof_H 	H 	0.098	0.6301	0.0829	0.012
Mof_H 	H 	0.902	0.1301	0.4171	0.012
Mof_C 	C 	0.11613	0.27072	0.16593	0.336
Mof_C 	C 	0.38387	0.72928	0.66593	0.336
Mof_C 	C 	0.88387	0.77072	0.33407	0.336
Mof_C 	C 	0.61613	0.22928	0.83407	0.336
Mof_C 	C 	0.16593	0.11613	0.27072	0.336
Mof_C 	C 	0.66593	0.38387	0.72928	0.336
Mof_C 	C 	0.33407	0.88387	0.77072	0.336
Mof_C 	C 	0.83407	0.61613	0.22928	0.336
Mof_C 	C 	0.27072	0.16593	0.11613	0.336
Mof_C 	C 	0.72928	0.66593	0.38387	0.336
Mof_C 	C 	0.77072	0.33407	0.88387	0.336
Mof_C 	C 	0.22928	0.83407	0.61613	0.336
Mof_C 	C 	0.88387	0.72928	0.83407	0.336
Mof_C 	C 	0.61613	0.27072	0.33407	0.336
Mof_C 	C 	0.11613	0.22928	0.66593	0.336
Mof_C 	C 	0.38387	0.77072	0.16593	0.336
Mof_C 	C 	0.83407	0.88387	0.72928	0.336
Mof_C 	C 	0.33407	0.61613	0.27072	0.336
Mof_C 	C 	0.66593	0.11613	0.22928	0.336
Mof_C 	C 	0.16593	0.38387	0.77072	0.336
Mof_C 	C 	0.72928	0.83407	0.88387	0.336
Mof_C 	C 	0.27072	0.33407	0.61613	0.336
Mof_C 	C 	0.22928	0.66593	0.11613	0.336
Mof_C 	C 	0.77072	0.16593	0.38387	0.336
Mof_C 	C 	0.10317	0.33934	0.17816	0.107
Mof_C 	C 	0.39683	0.66066	0.67816	0.107
Mof_C 	C 	0.89683	0.83934	0.32184	0.107
Mof_C 	C 	0.60317	0.16066	0.82184	0.107
Mof_C 	C 	0.17816	0.10317	0.33934	0.107
Mof_C 	C 	0.67816	0.39683	0.66066	0.107
Mof_C 	C 	0.32184	0.89683	0.83934	0.107
Mof_C 	C 	0.82184	0.60317	0.16066	0.107
Mof_C 	C 	0.33934	0.17816	0.10317	0.107
Mof_C 	C 	0.66066	0.67816	0.39683	0.107
Mof_C 	C 	0.83934	0.32184	0.89683	0.107
Mof_C 	C 	0.16066	0.82184	0.60317	0.107
Mof_C 	C 	0.89683	0.66066	0.82184	0.107
Mof_C 	C 	0.60317	0.33934	0.32184	0.107
Mof_C 	C 	0.10317	0.16066	0.67816	0.107
Mof_C 	C 	0.39683	0.83934	0.17816	0.107
Mof_C 	C 	0.82184	0.89683	0.66066	0.107
Mof_C 	C 	0.32184	0.60317	0.33934	0.107
Mof_C 	C 	0.67816	0.10317	0.16066	0.107
Mof_C 	C 	0.17816	0.39683	0.83934	0.107
Mof_C 	C 	0.66066	0.82184	0.89683	0.107
Mof_C 	C 	0.33934	0.32184	0.60317	0.107
Mof_C 	C 	0.16066	0.67816	0.10317	0.107
Mof_C 	C 	0.83934	0.17816	0.39683	0.107
Mof_C 	C 	0.09114	0.31412	0.21663	0.12
Mof_C 	C 	0.40886	0.68588	0.71663	0.12
Mof_C 	C 	0.90886	0.81412	0.28337	0.12
Mof_C 	C 	0.59114	0.18588	0.78337	0.12
Mof_C 	C 	0.21663	0.09114	0.31412	0.12
Mof_C 	C 	0.71663	0.40886	0.68588	0.12
Mof_C 	C 	0.28337	0.90886	0.81412	0.12
Mof_C 	C 	0.78337	0.59114	0.18588	0.12
Mof_C 	C 	0.31412	0.21663	0.09114	0.12
Mof_C 	C 	0.68588	0.71663	0.40886	0.12
Mof_C 	C 	0.81412	0.28337	0.90886	0.12
Mof_C 	C 	0.18588	0.78337	0.59114	0.12
Mof_C 	C 	0.90886	0.68588	0.78337	0.12
Mof_C 	C 	0.59114	0.31412	0.28337	0.12
Mof_C 	C 	0.09114	0.18588	0.71663	0.12
Mof_C 	C 	0.40886	0.81412	0.21663	0.12
Mof_C 	C 	0.78337	0.90886	0.68588	0.12
Mof_C 	C 	0.28337	0.59114	0.31412	0.12
Mof_C 	C 	0.71663	0.09114	0.18588	0.12
Mof_C 	C 	0.21663	0.40886	0.81412	0.12
Mof_C 	C 	0.68588	0.78337	0.90886	0.12
Mof_C 	C 	0.31412	0.28337	0.59114	0.12
Mof_C 	C 	0.18588	0.71663	0.09114	0.12
Mof_C 	C 	0.81412	0.21663	0.40886	0.12
Mof_C 	C 	0.03558	0.34878	0.1936	0.32
Mof_C 	C 	0.46442	0.65122	0.6936	0.32
Mof_C 	C 	0.96442	0.84878	0.3064	0.32
Mof_C 	C 	0.53558	0.15122	0.8064	0.32
Mof_C 	C 	0.1936	0.03558	0.34878	0.32
Mof_C 	C 	0.6936	0.46442	0.65122	0.32
Mof_C 	C 	0.3064	0.96442	0.84878	0.32
Mof_C 	C 	0.8064	0.53558	0.15122	0.32
Mof_C 	C 	0.34878	0.1936	0.03558	0.32
Mof_C 	C 	0.65122	0.6936	0.46442	0.32
Mof_C 	C 	0.84878	0.3064	0.96442	0.32
Mof_C 	C 	0.15122	0.8064	0.53558	0.32
Mof_C 	C 	0.96442	0.65122	0.8064	0.32
Mof_C 	C 	0.53558	0.34878	0.3064	0.32
Mof_C 	C 	0.03558	0.15122	0.6936	0.32
Mof_C 	C 	0.46442	0.84878	0.1936	0.32
Mof_C 	C 	0.8064	0.96442	0.65122	0.32
Mof_C 	C 	0.3064	0.53558	0.34878	0.32
Mof_C 	C 	0.6936	0.03558	0.15122	0.32
Mof_C 	C 	0.1936	0.46442	0.84878	0.32
Mof_C 	C 	0.65122	0.8064	0.96442	0.32
Mof_C 	C 	0.34878	0.3064	0.53558	0.32
Mof_C 	C 	0.15122	0.6936	0.03558	0.32
Mof_C 	C 	0.84878	0.1936	0.46442	0.32
Mof_C 	C 	0.09652	0.23737	0.22879	0.094
Mof_C 	C 	0.40348	0.76263	0.72879	0.094
Mof_C 	C 	0.90348	0.73737	0.27121	0.094
Mof_C 	C 	0.59652	0.26263	0.77121	0.094
Mof_C 	C 	0.22879	0.09652	0.23737	0.094
Mof_C 	C 	0.72879	0.40348	0.76263	0.094
Mof_C 	C 	0.27121	0.90348	0.73737	0.094
Mof_C 	C 	0.77121	0.59652	0.26263	0.094
Mof_C 	C 	0.23737	0.22879	0.09652	0.094
Mof_C 	C 	0.76263	0.72879	0.40348	0.094
Mof_C 	C 	0.73737	0.27121	0.90348	0.094
Mof_C 	C 	0.26263	0.77121	0.59652	0.094
Mof_C 	C 	0.90348	0.76263	0.77121	0.094
Mof_C 	C 	0.59652	0.23737	0.27121	0.094
Mof_C 	C 	0.09652	0.26263	0.72879	0.094
Mof_C 	C 	0.40348	0.73737	0.22879	0.094
Mof_C 	C 	0.77121	0.90348	0.76263	0.094
Mof_C 	C 	0.27121	0.59652	0.23737	0.094
Mof_C 	C 	0.72879	0.09652	0.26263	0.094
Mof_C 	C 	0.22879	0.40348	0.73737	0.094
Mof_C 	C 	0.76263	0.77121	0.90348	0.094
Mof_C 	C 	0.23737	0.27121	0.59652	0.094
Mof_C 	C 	0.26263	0.72879	0.09652	0.094
Mof_C 	C 	0.73737	0.22879	0.40348	0.094
Mof_H 	H 	0.1158	0.2176	0.2196	-0.004
Mof_H 	H 	0.3842	0.7824	0.7196	-0.004
Mof_H 	H 	0.8842	0.7176	0.2804	-0.004
Mof_H 	H 	0.6158	0.2824	0.7804	-0.004
Mof_H 	H 	0.2196	0.1158	0.2176	-0.004
Mof_H 	H 	0.7196	0.3842	0.7824	-0.004
Mof_H 	H 	0.2804	0.8842	0.7176	-0.004
Mof_H 	H 	0.7804	0.6158	0.2824	-0.004
Mof_H 	H 	0.2176	0.2196	0.1158	-0.004
Mof_H 	H 	0.7824	0.7196	0.3842	-0.004
Mof_H 	H 	0.7176	0.2804	0.8842	-0.004
Mof_H 	H 	0.2824	0.7804	0.6158	-0.004
Mof_H 	H 	0.8842	0.7824	0.7804	-0.004
Mof_H 	H 	0.6158	0.2176	0.2804	-0.004
Mof_H 	H 	0.1158	0.2824	0.7196	-0.004
Mof_H 	H 	0.3842	0.7176	0.2196	-0.004
Mof_H 	H 	0.7804	0.8842	0.7824	-0.004
Mof_H 	H 	0.2804	0.6158	0.2176	-0.004
Mof_H 	H 	0.7196	0.1158	0.2824	-0.004
Mof_H 	H 	0.2196	0.3842	0.7176	-0.004
Mof_H 	H 	0.7824	0.7804	0.8842	-0.004
Mof_H 	H 	0.2176	0.2804	0.6158	-0.004
Mof_H 	H 	0.2824	0.7196	0.1158	-0.004
Mof_H 	H 	0.7176	0.2196	0.3842	-0.004
Mof_H 	H 	0.1036	0.2447	0.256	0.003
Mof_H 	H 	0.3964	0.7553	0.756	0.003
Mof_H 	H 	0.8964	0.7447	0.244	0.003
Mof_H 	H 	0.6036	0.2553	0.744	0.003
Mof_H 	H 	0.256	0.1036	0.2447	0.003
Mof_H 	H 	0.756	0.3964	0.7553	0.003
Mof_H 	H 	0.244	0.8964	0.7447	0.003
Mof_H 	H 	0.744	0.6036	0.2553	0.003
Mof_H 	H 	0.2447	0.256	0.1036	0.003
Mof_H 	H 	0.7553	0.756	0.3964	0.003
Mof_H 	H 	0.7447	0.244	0.8964	0.003
Mof_H 	H 	0.2553	0.744	0.6036	0.003
Mof_H 	H 	0.8964	0.7553	0.744	0.003
Mof_H 	H 	0.6036	0.2447	0.244	0.003
Mof_H 	H 	0.1036	0.2553	0.756	0.003
Mof_H 	H 	0.3964	0.7447	0.256	0.003
Mof_H 	H 	0.744	0.8964	0.7553	0.003
Mof_H 	H 	0.244	0.6036	0.2447	0.003
Mof_H 	H 	0.756	0.1036	0.2553	0.003
Mof_H 	H 	0.256	0.3964	0.7447	0.003
Mof_H 	H 	0.7553	0.744	0.8964	0.003
Mof_H 	H 	0.2447	0.244	0.6036	0.003
Mof_H 	H 	0.2553	0.756	0.1036	0.003
Mof_H 	H 	0.7447	0.256	0.3964	0.003
Mof_C 	C 	0.02457	0.30777	0.25342	0.066
Mof_C 	C 	0.47543	0.69223	0.75342	0.066
Mof_C 	C 	0.97543	0.80777	0.24658	0.066
Mof_C 	C 	0.52457	0.19223	0.74658	0.066
Mof_C 	C 	0.25342	0.02457	0.30777	0.066
Mof_C 	C 	0.75342	0.47543	0.69223	0.066
Mof_C 	C 	0.24658	0.97543	0.80777	0.066
Mof_C 	C 	0.74658	0.52457	0.19223	0.066
Mof_C 	C 	0.30777	0.25342	0.02457	0.066
Mof_C 	C 	0.69223	0.75342	0.47543	0.066
Mof_C 	C 	0.80777	0.24658	0.97543	0.066
Mof_C 	C 	0.19223	0.74658	0.52457	0.066
Mof_C 	C 	0.97543	0.69223	0.74658	0.066
Mof_C 	C 	0.52457	0.30777	0.24658	0.066
Mof_C 	C 	0.02457	0.19223	0.75342	0.066
Mof_C 	C 	0.47543	0.80777	0.25342	0.066
Mof_C 	C 	0.74658	0.97543	0.69223	0.066
Mof_C 	C 	0.24658	0.52457	0.30777	0.066
Mof_C 	C 	0.75342	0.02457	0.19223	0.066
Mof_C 	C 	0.25342	0.47543	0.80777	0.066
Mof_C 	C 	0.69223	0.74658	0.97543	0.066
Mof_C 	C 	0.30777	0.24658	0.52457	0.066
Mof_C 	C 	0.19223	0.75342	0.02457	0.066
Mof_C 	C 	0.80777	0.25342	0.47543	0.066
Mof_H 	H 	0.0034	0.3271	0.2583	0.019
Mof_H 	H 	0.4966	0.6729	0.7583	0.019
Mof_H 	H 	0.9966	0.8271	0.2417	0.019
Mof_H 	H 	0.5034	0.1729	0.7417	0.019
Mof_H 	H 	0.2583	0.0034	0.3271	0.019
Mof_H 	H 	0.7583	0.4966	0.6729	0.019
Mof_H 	H 	0.2417	0.9966	0.8271	0.019
Mof_H 	H 	0.7417	0.5034	0.1729	0.019
Mof_H 	H 	0.3271	0.2583	0.0034	0.019
Mof_H 	H 	0.6729	0.7583	0.4966	0.019
Mof_H 	H 	0.8271	0.2417	0.9966	0.019
Mof_H 	H 	0.1729	0.7417	0.5034	0.019
Mof_H 	H 	0.9966	0.6729	0.7417	0.019
Mof_H 	H 	0.5034	0.3271	0.2417	0.019
Mof_H 	H 	0.0034	0.1729	0.7583	0.019
Mof_H 	H 	0.4966	0.8271	0.2583	0.019
Mof_H 	H 	0.7417	0.9966	0.6729	0.019
Mof_H 	H 	0.2417	0.5034	0.3271	0.019
Mof_H 	H 	0.7583	0.0034	0.1729	0.019
Mof_H 	H 	0.2583	0.4966	0.8271	0.019
Mof_H 	H 	0.6729	0.7417	0.9966	0.019
Mof_H 	H 	0.3271	0.2417	0.5034	0.019
Mof_H 	H 	0.1729	0.7583	0.0034	0.019
Mof_H 	H 	0.8271	0.2583	0.4966	0.019
Mof_H 	H 	0.0407	0.3062	0.2776	0.023
Mof_H 	H 	0.4593	0.6938	0.7776	0.023
Mof_H 	H 	0.9593	0.8062	0.2224	0.023
Mof_H 	H 	0.5407	0.1938	0.7224	0.023
Mof_H 	H 	0.2776	0.0407	0.3062	0.023
Mof_H 	H 	0.7776	0.4593	0.6938	0.023
Mof_H 	H 	0.2224	0.9593	0.8062	0.023
Mof_H 	H 	0.7224	0.5407	0.1938	0.023
Mof_H 	H 	0.3062	0.2776	0.0407	0.023
Mof_H 	H 	0.6938	0.7776	0.4593	0.023
Mof_H 	H 	0.8062	0.2224	0.9593	0.023
Mof_H 	H 	0.1938	0.7224	0.5407	0.023
Mof_H 	H 	0.9593	0.6938	0.7224	0.023
Mof_H 	H 	0.5407	0.3062	0.2224	0.023
Mof_H 	H 	0.0407	0.1938	0.7776	0.023
Mof_H 	H 	0.4593	0.8062	0.2776	0.023
Mof_H 	H 	0.7224	0.9593	0.6938	0.023
Mof_H 	H 	0.2224	0.5407	0.3062	0.023
Mof_H 	H 	0.7776	0.0407	0.1938	0.023
Mof_H 	H 	0.2776	0.4593	0.8062	0.023
Mof_H 	H 	0.6938	0.7224	0.9593	0.023
Mof_H 	H 	0.3062	0.2224	0.5407	0.023
Mof_H 	H 	0.1938	0.7776	0.0407	0.023
Mof_H 	H 	0.8062	0.2776	0.4593	0.023
Mof_C 	C 	0.03857	0.22761	0.2999	-0.154
Mof_C 	C 	0.46143	0.77239	0.7999	-0.154
Mof_C 	C 	0.96143	0.72761	0.2001	-0.153
Mof_C 	C 	0.53857	0.27239	0.7001	-0.154
Mof_C 	C 	0.2999	0.03857	0.22761	-0.154
Mof_C 	C 	0.7999	0.46143	0.77239	-0.154
Mof_C 	C 	0.2001	0.96143	0.72761	-0.153
Mof_C 	C 	0.7001	0.53857	0.27239	-0.154
Mof_C 	C 	0.22761	0.2999	0.03857	-0.154
Mof_C 	C 	0.77239	0.7999	0.46143	-0.154
Mof_C 	C 	0.72761	0.2001	0.96143	-0.153
Mof_C 	C 	0.27239	0.7001	0.53857	-0.154
Mof_C 	C 	0.96143	0.77239	0.7001	-0.154
Mof_C 	C 	0.53857	0.22761	0.2001	-0.154
Mof_C 	C 	0.03857	0.27239	0.7999	-0.153
Mof_C 	C 	0.46143	0.72761	0.2999	-0.154
Mof_C 	C 	0.7001	0.96143	0.77239	-0.154
Mof_C 	C 	0.2001	0.53857	0.22761	-0.154
Mof_C 	C 	0.7999	0.03857	0.27239	-0.153
Mof_C 	C 	0.2999	0.46143	0.72761	-0.154
Mof_C 	C 	0.77239	0.7001	0.96143	-0.154
Mof_C 	C 	0.22761	0.2001	0.53857	-0.154
Mof_C 	C 	0.27239	0.7999	0.03857	-0.153
Mof_C 	C 	0.72761	0.2999	0.46143	-0.154
Mof_H 	H 	0.0567	0.2496	0.3056	0.092
Mof_H 	H 	0.4433	0.7504	0.8056	0.092
Mof_H 	H 	0.9433	0.7496	0.1944	0.092
Mof_H 	H 	0.5567	0.2504	0.6944	0.092
Mof_H 	H 	0.3056	0.0567	0.2496	0.092
Mof_H 	H 	0.8056	0.4433	0.7504	0.092
Mof_H 	H 	0.1944	0.9433	0.7496	0.092
Mof_H 	H 	0.6944	0.5567	0.2504	0.092
Mof_H 	H 	0.2496	0.3056	0.0567	0.092
Mof_H 	H 	0.7504	0.8056	0.4433	0.092
Mof_H 	H 	0.7496	0.1944	0.9433	0.092
Mof_H 	H 	0.2504	0.6944	0.5567	0.092
Mof_H 	H 	0.9433	0.7504	0.6944	0.092
Mof_H 	H 	0.5567	0.2496	0.1944	0.092
Mof_H 	H 	0.0567	0.2504	0.8056	0.092
Mof_H 	H 	0.4433	0.7496	0.3056	0.092
Mof_H 	H 	0.6944	0.9433	0.7504	0.092
Mof_H 	H 	0.1944	0.5567	0.2496	0.092
Mof_H 	H 	0.8056	0.0567	0.2504	0.092
Mof_H 	H 	0.3056	0.4433	0.7496	0.092
Mof_H 	H 	0.7504	0.6944	0.9433	0.092
Mof_H 	H 	0.2496	0.1944	0.5567	0.092
Mof_H 	H 	0.2504	0.8056	0.0567	0.092
Mof_H 	H 	0.7496	0.3056	0.4433	0.092
Mof_H 	H 	0.0532	0.2028	0.304	0.082
Mof_H 	H 	0.4468	0.7972	0.804	0.082
Mof_H 	H 	0.9468	0.7028	0.196	0.082
Mof_H 	H 	0.5532	0.2972	0.696	0.082
Mof_H 	H 	0.304	0.0532	0.2028	0.082
Mof_H 	H 	0.804	0.4468	0.7972	0.082
Mof_H 	H 	0.196	0.9468	0.7028	0.082
Mof_H 	H 	0.696	0.5532	0.2972	0.082
Mof_H 	H 	0.2028	0.304	0.0532	0.082
Mof_H 	H 	0.7972	0.804	0.4468	0.082
Mof_H 	H 	0.7028	0.196	0.9468	0.082
Mof_H 	H 	0.2972	0.696	0.5532	0.082
Mof_H 	H 	0.9468	0.7972	0.696	0.082
Mof_H 	H 	0.5532	0.2028	0.196	0.082
Mof_H 	H 	0.0532	0.2972	0.804	0.082
Mof_H 	H 	0.4468	0.7028	0.304	0.082
Mof_H 	H 	0.696	0.9468	0.7972	0.082
Mof_H 	H 	0.196	0.5532	0.2028	0.082
Mof_H 	H 	0.804	0.0532	0.2972	0.082
Mof_H 	H 	0.304	0.4468	0.7028	0.082
Mof_H 	H 	0.7972	0.696	0.9468	0.082
Mof_H 	H 	0.2028	0.196	0.5532	0.082
Mof_H 	H 	0.2972	0.804	0.0532	0.082
Mof_H 	H 	0.7028	0.304	0.4468	0.082
Mof_C 	C 	0.00254	0.22925	0.32965	-0.11
Mof_C 	C 	0.49746	0.77075	0.82965	-0.111
Mof_C 	C 	0.99746	0.72925	0.17035	-0.112
Mof_C 	C 	0.50254	0.27075	0.67035	-0.111
Mof_C 	C 	0.32965	0.00254	0.22925	-0.11
Mof_C 	C 	0.82965	0.49746	0.77075	-0.111
Mof_C 	C 	0.17035	0.99746	0.72925	-0.112
Mof_C 	C 	0.67035	0.50254	0.27075	-0.111
Mof_C 	C 	0.22925	0.32965	0.00254	-0.11
Mof_C 	C 	0.77075	0.82965	0.49746	-0.111
Mof_C 	C 	0.72925	0.17035	0.99746	-0.112
Mof_C 	C 	0.27075	0.67035	0.50254	-0.111
Mof_C 	C 	0.99746	0.77075	0.67035	-0.11
Mof_C 	C 	0.50254	0.22925	0.17035	-0.111
Mof_C 	C 	0.00254	0.27075	0.82965	-0.112
Mof_C 	C 	0.49746	0.72925	0.32965	-0.111
Mof_C 	C 	0.67035	0.99746	0.77075	-0.11
Mof_C 	C 	0.17035	0.50254	0.22925	-0.111
Mof_C 	C 	0.82965	0.00254	0.27075	-0.112
Mof_C 	C 	0.32965	0.49746	0.72925	-0.111
Mof_C 	C 	0.77075	0.67035	0.99746	-0.11
Mof_C 	C 	0.22925	0.17035	0.50254	-0.111
Mof_C 	C 	0.27075	0.82965	0.00254	-0.112
Mof_C 	C 	0.72925	0.32965	0.49746	-0.111
Mof_H 	H 	0.0119	0.2225	0.3564	0.073
Mof_H 	H 	0.4881	0.7775	0.8564	0.073
Mof_H 	H 	0.9881	0.7225	0.1436	0.073
Mof_H 	H 	0.5119	0.2775	0.6436	0.073
Mof_H 	H 	0.3564	0.0119	0.2225	0.073
Mof_H 	H 	0.8564	0.4881	0.7775	0.073
Mof_H 	H 	0.1436	0.9881	0.7225	0.073
Mof_H 	H 	0.6436	0.5119	0.2775	0.073
Mof_H 	H 	0.2225	0.3564	0.0119	0.073
Mof_H 	H 	0.7775	0.8564	0.4881	0.073
Mof_H 	H 	0.7225	0.1436	0.9881	0.073
Mof_H 	H 	0.2775	0.6436	0.5119	0.073
Mof_H 	H 	0.9881	0.7775	0.6436	0.073
Mof_H 	H 	0.5119	0.2225	0.1436	0.073
Mof_H 	H 	0.0119	0.2775	0.8564	0.073
Mof_H 	H 	0.4881	0.7225	0.3564	0.073
Mof_H 	H 	0.6436	0.9881	0.7775	0.073
Mof_H 	H 	0.1436	0.5119	0.2225	0.073
Mof_H 	H 	0.8564	0.0119	0.2775	0.073
Mof_H 	H 	0.3564	0.4881	0.7225	0.073
Mof_H 	H 	0.7775	0.6436	0.9881	0.073
Mof_H 	H 	0.2225	0.1436	0.5119	0.073
Mof_H 	H 	0.2775	0.8564	0.0119	0.073
Mof_H 	H 	0.7225	0.3564	0.4881	0.073
Mof_H 	H 	0.9921	0.2564	0.3305	0.084
Mof_H 	H 	0.5079	0.7436	0.8305	0.084
Mof_H 	H 	0.0079	0.7564	0.1695	0.084
Mof_H 	H 	0.4921	0.2436	0.6695	0.084
Mof_H 	H 	0.3305	0.9921	0.2564	0.084
Mof_H 	H 	0.8305	0.5079	0.7436	0.084
Mof_H 	H 	0.1695	0.0079	0.7564	0.084
Mof_H 	H 	0.6695	0.4921	0.2436	0.084
Mof_H 	H 	0.2564	0.3305	0.9921	0.084
Mof_H 	H 	0.7436	0.8305	0.5079	0.084
Mof_H 	H 	0.7564	0.1695	0.0079	0.084
Mof_H 	H 	0.2436	0.6695	0.4921	0.084
Mof_H 	H 	0.0079	0.7436	0.6695	0.084
Mof_H 	H 	0.4921	0.2564	0.1695	0.084
Mof_H 	H 	0.9921	0.2436	0.8305	0.084
Mof_H 	H 	0.5079	0.7564	0.3305	0.084
Mof_H 	H 	0.6695	0.0079	0.7436	0.084
Mof_H 	H 	0.1695	0.4921	0.2564	0.084
Mof_H 	H 	0.8305	0.9921	0.2436	0.084
Mof_H 	H 	0.3305	0.5079	0.7564	0.084
Mof_H 	H 	0.7436	0.6695	0.0079	0.084
Mof_H 	H 	0.2564	0.1695	0.4921	0.084
Mof_H 	H 	0.2436	0.8305	0.9921	0.084
Mof_H 	H 	0.7564	0.3305	0.5079	0.084
Mof_C 	C 	0.96828	0.20001	0.31765	-0.009
Mof_C 	C 	0.53172	0.79999	0.81765	-0.008
Mof_C 	C 	0.03172	0.70001	0.18235	-0.008
Mof_C 	C 	0.46828	0.29999	0.68235	-0.008
Mof_C 	C 	0.31765	0.96828	0.20001	-0.009
Mof_C 	C 	0.81765	0.53172	0.79999	-0.008
Mof_C 	C 	0.18235	0.03172	0.70001	-0.008
Mof_C 	C 	0.68235	0.46828	0.29999	-0.008
Mof_C 	C 	0.20001	0.31765	0.96828	-0.009
Mof_C 	C 	0.79999	0.81765	0.53172	-0.008
Mof_C 	C 	0.70001	0.18235	0.03172	-0.008
Mof_C 	C 	0.29999	0.68235	0.46828	-0.008
Mof_C 	C 	0.03172	0.79999	0.68235	-0.009
Mof_C 	C 	0.46828	0.20001	0.18235	-0.008
Mof_C 	C 	0.96828	0.29999	0.81765	-0.008
Mof_C 	C 	0.53172	0.70001	0.31765	-0.008
Mof_C 	C 	0.68235	0.03172	0.79999	-0.009
Mof_C 	C 	0.18235	0.46828	0.20001	-0.008
Mof_C 	C 	0.81765	0.96828	0.29999	-0.008
Mof_C 	C 	0.31765	0.53172	0.70001	-0.008
Mof_C 	C 	0.79999	0.68235	0.03172	-0.009
Mof_C 	C 	0.20001	0.18235	0.46828	-0.008
Mof_C 	C 	0.29999	0.81765	0.96828	-0.008
Mof_C 	C 	0.70001	0.31765	0.53172	-0.008
Mof_H 	H 	0.9624	0.1827	0.3403	0.025
Mof_H 	H 	0.5376	0.8173	0.8403	0.025
Mof_H 	H 	0.0376	0.6827	0.1597	0.025
Mof_H 	H 	0.4624	0.3173	0.6597	0.025
Mof_H 	H 	0.3403	0.9624	0.1827	0.025
Mof_H 	H 	0.8403	0.5376	0.8173	0.025
Mof_H 	H 	0.1597	0.0376	0.6827	0.025
Mof_H 	H 	0.6597	0.4624	0.3173	0.025
Mof_H 	H 	0.1827	0.3403	0.9624	0.025
Mof_H 	H 	0.8173	0.8403	0.5376	0.025
Mof_H 	H 	0.6827	0.1597	0.0376	0.025
Mof_H 	H 	0.3173	0.6597	0.4624	0.025
Mof_H 	H 	0.0376	0.8173	0.6597	0.025
Mof_H 	H 	0.4624	0.1827	0.1597	0.025
Mof_H 	H 	0.9624	0.3173	0.8403	0.025
Mof_H 	H 	0.5376	0.6827	0.3403	0.025
Mof_H 	H 	0.6597	0.0376	0.8173	0.025
Mof_H 	H 	0.1597	0.4624	0.1827	0.025
Mof_H 	H 	0.8403	0.9624	0.3173	0.025
Mof_H 	H 	0.3403	0.5376	0.6827	0.025
Mof_H 	H 	0.8173	0.6597	0.0376	0.025
Mof_H 	H 	0.1827	0.1597	0.4624	0.025
Mof_H 	H 	0.3173	0.8403	0.9624	0.025
Mof_H 	H 	0.6827	0.3403	0.5376	0.025
Mof_H 	H 	0.9443	0.2155	0.3119	0.034
Mof_H 	H 	0.5557	0.7845	0.8119	0.034
Mof_H 	H 	0.0557	0.7155	0.1881	0.034
Mof_H 	H 	0.4443	0.2845	0.6881	0.034
Mof_H 	H 	0.3119	0.9443	0.2155	0.034
Mof_H 	H 	0.8119	0.5557	0.7845	0.034
Mof_H 	H 	0.1881	0.0557	0.7155	0.034
Mof_H 	H 	0.6881	0.4443	0.2845	0.034
Mof_H 	H 	0.2155	0.3119	0.9443	0.034
Mof_H 	H 	0.7845	0.8119	0.5557	0.034
Mof_H 	H 	0.7155	0.1881	0.0557	0.034
Mof_H 	H 	0.2845	0.6881	0.4443	0.034
Mof_H 	H 	0.0557	0.7845	0.6881	0.034
Mof_H 	H 	0.4443	0.2155	0.1881	0.034
Mof_H 	H 	0.9443	0.2845	0.8119	0.034
Mof_H 	H 	0.5557	0.7155	0.3119	0.034
Mof_H 	H 	0.6881	0.0557	0.7845	0.034
Mof_H 	H 	0.1881	0.4443	0.2155	0.034
Mof_H 	H 	0.8119	0.9443	0.2845	0.034
Mof_H 	H 	0.3119	0.5557	0.7155	0.034
Mof_H 	H 	0.7845	0.6881	0.0557	0.034
Mof_H 	H 	0.2155	0.1881	0.4443	0.034
Mof_H 	H 	0.2845	0.8119	0.9443	0.034
Mof_H 	H 	0.7155	0.3119	0.5557	0.034
Mof_C 	C 	0.97821	0.1742	0.28153	-0.224
Mof_C 	C 	0.52179	0.8258	0.78153	-0.224
Mof_C 	C 	0.02179	0.6742	0.21847	-0.224
Mof_C 	C 	0.47821	0.3258	0.71847	-0.224
Mof_C 	C 	0.28153	0.97821	0.1742	-0.224
Mof_C 	C 	0.78153	0.52179	0.8258	-0.224
Mof_C 	C 	0.21847	0.02179	0.6742	-0.224
Mof_C 	C 	0.71847	0.47821	0.3258	-0.224
Mof_C 	C 	0.1742	0.28153	0.97821	-0.224
Mof_C 	C 	0.8258	0.78153	0.52179	-0.224
Mof_C 	C 	0.6742	0.21847	0.02179	-0.224
Mof_C 	C 	0.3258	0.71847	0.47821	-0.224
Mof_C 	C 	0.02179	0.8258	0.71847	-0.224
Mof_C 	C 	0.47821	0.1742	0.21847	-0.224
Mof_C 	C 	0.97821	0.3258	0.78153	-0.224
Mof_C 	C 	0.52179	0.6742	0.28153	-0.224
Mof_C 	C 	0.71847	0.02179	0.8258	-0.224
Mof_C 	C 	0.21847	0.47821	0.1742	-0.224
Mof_C 	C 	0.78153	0.97821	0.3258	-0.224
Mof_C 	C 	0.28153	0.52179	0.6742	-0.224
Mof_C 	C 	0.8258	0.71847	0.02179	-0.224
Mof_C 	C 	0.1742	0.21847	0.47821	-0.224
Mof_C 	C 	0.3258	0.78153	0.97821	-0.224
Mof_C 	C 	0.6742	0.28153	0.52179	-0.224
Mof_H 	H 	0.9548	0.1585	0.2742	0.123
Mof_H 	H 	0.5452	0.8415	0.7742	0.123
Mof_H 	H 	0.0452	0.6585	0.2258	0.123
Mof_H 	H 	0.4548	0.3415	0.7258	0.123
Mof_H 	H 	0.2742	0.9548	0.1585	0.123
Mof_H 	H 	0.7742	0.5452	0.8415	0.123
Mof_H 	H 	0.2258	0.0452	0.6585	0.123
Mof_H 	H 	0.7258	0.4548	0.3415	0.123
Mof_H 	H 	0.1585	0.2742	0.9548	0.123
Mof_H 	H 	0.8415	0.7742	0.5452	0.123
Mof_H 	H 	0.6585	0.2258	0.0452	0.123
Mof_H 	H 	0.3415	0.7258	0.4548	0.123
Mof_H 	H 	0.0452	0.8415	0.7258	0.123
Mof_H 	H 	0.4548	0.1585	0.2258	0.123
Mof_H 	H 	0.9548	0.3415	0.7742	0.123
Mof_H 	H 	0.5452	0.6585	0.2742	0.123
Mof_H 	H 	0.7258	0.0452	0.8415	0.123
Mof_H 	H 	0.2258	0.4548	0.1585	0.123
Mof_H 	H 	0.7742	0.9548	0.3415	0.123
Mof_H 	H 	0.2742	0.5452	0.6585	0.123
Mof_H 	H 	0.8415	0.7258	0.0452	0.123
Mof_H 	H 	0.1585	0.2258	0.4548	0.123
Mof_H 	H 	0.3415	0.7742	0.9548	0.123
Mof_H 	H 	0.6585	0.2742	0.5452	0.123
Mof_H 	H 	0.9996	0.1557	0.2885	0.106
Mof_H 	H 	0.5004	0.8443	0.7885	0.107
Mof_H 	H 	0.0004	0.6557	0.2115	0.107
Mof_H 	H 	0.4996	0.3443	0.7115	0.107
Mof_H 	H 	0.2885	0.9996	0.1557	0.106
Mof_H 	H 	0.7885	0.5004	0.8443	0.107
Mof_H 	H 	0.2115	0.0004	0.6557	0.107
Mof_H 	H 	0.7115	0.4996	0.3443	0.107
Mof_H 	H 	0.1557	0.2885	0.9996	0.106
Mof_H 	H 	0.8443	0.7885	0.5004	0.107
Mof_H 	H 	0.6557	0.2115	0.0004	0.107
Mof_H 	H 	0.3443	0.7115	0.4996	0.107
Mof_H 	H 	0.0004	0.8443	0.7115	0.106
Mof_H 	H 	0.4996	0.1557	0.2115	0.107
Mof_H 	H 	0.9996	0.3443	0.7885	0.107
Mof_H 	H 	0.5004	0.6557	0.2885	0.107
Mof_H 	H 	0.7115	0.0004	0.8443	0.106
Mof_H 	H 	0.2115	0.4996	0.1557	0.107
Mof_H 	H 	0.7885	0.9996	0.3443	0.107
Mof_H 	H 	0.2885	0.5004	0.6557	0.107
Mof_H 	H 	0.8443	0.7115	0.0004	0.106
Mof_H 	H 	0.1557	0.2115	0.4996	0.107
Mof_H 	H 	0.3443	0.7885	0.9996	0.107
Mof_H 	H 	0.6557	0.2885	0.5004	0.107
Mof_C 	C 	0.91654	0.21301	0.98421	-0.198
Mof_C 	C 	0.58346	0.78699	0.48421	-0.198
Mof_C 	C 	0.08346	0.71301	0.51579	-0.198
Mof_C 	C 	0.41654	0.28699	0.01579	-0.198
Mof_C 	C 	0.98421	0.91654	0.21301	-0.198
Mof_C 	C 	0.48421	0.58346	0.78699	-0.198
Mof_C 	C 	0.51579	0.08346	0.71301	-0.198
Mof_C 	C 	0.01579	0.41654	0.28699	-0.198
Mof_C 	C 	0.21301	0.98421	0.91654	-0.198
Mof_C 	C 	0.78699	0.48421	0.58346	-0.198
Mof_C 	C 	0.71301	0.51579	0.08346	-0.198
Mof_C 	C 	0.28699	0.01579	0.41654	-0.198
Mof_C 	C 	0.08346	0.78699	0.01579	-0.198
Mof_C 	C 	0.41654	0.21301	0.51579	-0.198
Mof_C 	C 	0.91654	0.28699	0.48421	-0.198
Mof_C 	C 	0.58346	0.71301	0.98421	-0.198
Mof_C 	C 	0.01579	0.08346	0.78699	-0.198
Mof_C 	C 	0.51579	0.41654	0.21301	-0.198
Mof_C 	C 	0.48421	0.91654	0.28699	-0.198
Mof_C 	C 	0.98421	0.58346	0.71301	-0.198
Mof_C 	C 	0.78699	0.01579	0.08346	-0.198
Mof_C 	C 	0.21301	0.51579	0.41654	-0.198
Mof_C 	C 	0.28699	0.48421	0.91654	-0.198
Mof_C 	C 	0.71301	0.98421	0.58346	-0.198
Mof_H 	H 	0.8969	0.2332	0.9769	0.096
Mof_H 	H 	0.6031	0.7668	0.4769	0.095
Mof_H 	H 	0.1031	0.7332	0.5231	0.096
Mof_H 	H 	0.3969	0.2668	0.0231	0.095
Mof_H 	H 	0.9769	0.8969	0.2332	0.096
Mof_H 	H 	0.4769	0.6031	0.7668	0.095
Mof_H 	H 	0.5231	0.1031	0.7332	0.096
Mof_H 	H 	0.0231	0.3969	0.2668	0.095
Mof_H 	H 	0.2332	0.9769	0.8969	0.096
Mof_H 	H 	0.7668	0.4769	0.6031	0.095
Mof_H 	H 	0.7332	0.5231	0.1031	0.096
Mof_H 	H 	0.2668	0.0231	0.3969	0.095
Mof_H 	H 	0.1031	0.7668	0.0231	0.096
Mof_H 	H 	0.3969	0.2332	0.5231	0.095
Mof_H 	H 	0.8969	0.2668	0.4769	0.096
Mof_H 	H 	0.6031	0.7332	0.9769	0.095
Mof_H 	H 	0.0231	0.1031	0.7668	0.096
Mof_H 	H 	0.5231	0.3969	0.2332	0.095
Mof_H 	H 	0.4769	0.8969	0.2668	0.096
Mof_H 	H 	0.9769	0.6031	0.7332	0.095
Mof_H 	H 	0.7668	0.0231	0.1031	0.096
Mof_H 	H 	0.2332	0.5231	0.3969	0.095
Mof_H 	H 	0.2668	0.4769	0.8969	0.096
Mof_H 	H 	0.7332	0.9769	0.6031	0.095
Mof_H 	H 	0.9023	0.1899	0.9947	0.117
Mof_H 	H 	0.5977	0.8101	0.4947	0.118
Mof_H 	H 	0.0977	0.6899	0.5053	0.118
Mof_H 	H 	0.4023	0.3101	0.0053	0.117
Mof_H 	H 	0.9947	0.9023	0.1899	0.117
Mof_H 	H 	0.4947	0.5977	0.8101	0.118
Mof_H 	H 	0.5053	0.0977	0.6899	0.118
Mof_H 	H 	0.0053	0.4023	0.3101	0.117
Mof_H 	H 	0.1899	0.9947	0.9023	0.117
Mof_H 	H 	0.8101	0.4947	0.5977	0.118
Mof_H 	H 	0.6899	0.5053	0.0977	0.118
Mof_H 	H 	0.3101	0.0053	0.4023	0.117
Mof_H 	H 	0.0977	0.8101	0.0053	0.117
Mof_H 	H 	0.4023	0.1899	0.5053	0.118
Mof_H 	H 	0.9023	0.3101	0.4947	0.118
Mof_H 	H 	0.5977	0.6899	0.9947	0.117
Mof_H 	H 	0.0053	0.0977	0.8101	0.117
Mof_H 	H 	0.5053	0.4023	0.1899	0.118
Mof_H 	H 	0.4947	0.9023	0.3101	0.118
Mof_H 	H 	0.9947	0.5977	0.6899	0.117
Mof_H 	H 	0.8101	0.0053	0.0977	0.117
Mof_H 	H 	0.1899	0.5053	0.4023	0.118
Mof_H 	H 	0.3101	0.4947	0.9023	0.118
Mof_H 	H 	0.6899	0.9947	0.5977	0.117
Mof_C 	C 	0.94085	0.20054	0.94655	-0.059
Mof_C 	C 	0.55915	0.79946	0.44655	-0.059
Mof_C 	C 	0.05915	0.70054	0.55345	-0.059
Mof_C 	C 	0.44085	0.29946	0.05345	-0.059
Mof_C 	C 	0.94655	0.94085	0.20054	-0.059
Mof_C 	C 	0.44655	0.55915	0.79946	-0.059
Mof_C 	C 	0.55345	0.05915	0.70054	-0.059
Mof_C 	C 	0.05345	0.44085	0.29946	-0.059
Mof_C 	C 	0.20054	0.94655	0.94085	-0.059
Mof_C 	C 	0.79946	0.44655	0.55915	-0.059
Mof_C 	C 	0.70054	0.55345	0.05915	-0.059
Mof_C 	C 	0.29946	0.05345	0.44085	-0.059
Mof_C 	C 	0.05915	0.79946	0.05345	-0.059
Mof_C 	C 	0.44085	0.20054	0.55345	-0.059
Mof_C 	C 	0.94085	0.29946	0.44655	-0.059
Mof_C 	C 	0.55915	0.70054	0.94655	-0.059
Mof_C 	C 	0.05345	0.05915	0.79946	-0.059
Mof_C 	C 	0.55345	0.44085	0.20054	-0.059
Mof_C 	C 	0.44655	0.94085	0.29946	-0.059
Mof_C 	C 	0.94655	0.55915	0.70054	-0.059
Mof_C 	C 	0.79946	0.05345	0.05915	-0.059
Mof_C 	C 	0.20054	0.55345	0.44085	-0.059
Mof_C 	C 	0.29946	0.44655	0.94085	-0.059
Mof_C 	C 	0.70054	0.94655	0.55915	-0.059
Mof_H 	H 	0.9225	0.1922	0.9256	0.063
Mof_H 	H 	0.5775	0.8078	0.4256	0.063
Mof_H 	H 	0.0775	0.6922	0.5744	0.063
Mof_H 	H 	0.4225	0.3078	0.0744	0.063
Mof_H 	H 	0.9256	0.9225	0.1922	0.063
Mof_H 	H 	0.4256	0.5775	0.8078	0.063
Mof_H 	H 	0.5744	0.0775	0.6922	0.063
Mof_H 	H 	0.0744	0.4225	0.3078	0.063
Mof_H 	H 	0.1922	0.9256	0.9225	0.063
Mof_H 	H 	0.8078	0.4256	0.5775	0.063
Mof_H 	H 	0.6922	0.5744	0.0775	0.063
Mof_H 	H 	0.3078	0.0744	0.4225	0.063
Mof_H 	H 	0.0775	0.8078	0.0744	0.063
Mof_H 	H 	0.4225	0.1922	0.5744	0.063
Mof_H 	H 	0.9225	0.3078	0.4256	0.063
Mof_H 	H 	0.5775	0.6922	0.9256	0.063
Mof_H 	H 	0.0744	0.0775	0.8078	0.063
Mof_H 	H 	0.5744	0.4225	0.1922	0.063
Mof_H 	H 	0.4256	0.9225	0.3078	0.063
Mof_H 	H 	0.9256	0.5775	0.6922	0.063
Mof_H 	H 	0.8078	0.0744	0.0775	0.063
Mof_H 	H 	0.1922	0.5744	0.4225	0.063
Mof_H 	H 	0.3078	0.4256	0.9225	0.063
Mof_H 	H 	0.6922	0.9256	0.5775	0.063
Mof_H 	H 	0.9578	0.1778	0.9532	0.067
Mof_H 	H 	0.5422	0.8222	0.4532	0.067
Mof_H 	H 	0.0422	0.6778	0.5468	0.067
Mof_H 	H 	0.4578	0.3222	0.0468	0.067
Mof_H 	H 	0.9532	0.9578	0.1778	0.067
Mof_H 	H 	0.4532	0.5422	0.8222	0.067
Mof_H 	H 	0.5468	0.0422	0.6778	0.067
Mof_H 	H 	0.0468	0.4578	0.3222	0.067
Mof_H 	H 	0.1778	0.9532	0.9578	0.067
Mof_H 	H 	0.8222	0.4532	0.5422	0.067
Mof_H 	H 	0.6778	0.5468	0.0422	0.067
Mof_H 	H 	0.3222	0.0468	0.4578	0.067
Mof_H 	H 	0.0422	0.8222	0.0468	0.067
Mof_H 	H 	0.4578	0.1778	0.5468	0.067
Mof_H 	H 	0.9578	0.3222	0.4532	0.067
Mof_H 	H 	0.5422	0.6778	0.9532	0.067
Mof_H 	H 	0.0468	0.0422	0.8222	0.067
Mof_H 	H 	0.5468	0.4578	0.1778	0.067
Mof_H 	H 	0.4532	0.9578	0.3222	0.067
Mof_H 	H 	0.9532	0.5422	0.6778	0.067
Mof_H 	H 	0.8222	0.0468	0.0422	0.067
Mof_H 	H 	0.1778	0.5468	0.4578	0.067
Mof_H 	H 	0.3222	0.4532	0.9578	0.067
Mof_H 	H 	0.6778	0.9532	0.5422	0.067
Mof_C 	C 	0.9678	0.2358	0.93051	-0.068
Mof_C 	C 	0.5322	0.7642	0.43051	-0.067
Mof_C 	C 	0.0322	0.7358	0.56949	-0.067
Mof_C 	C 	0.4678	0.2642	0.06949	-0.067
Mof_C 	C 	0.93051	0.9678	0.2358	-0.068
Mof_C 	C 	0.43051	0.5322	0.7642	-0.067
Mof_C 	C 	0.56949	0.0322	0.7358	-0.067
Mof_C 	C 	0.06949	0.4678	0.2642	-0.067
Mof_C 	C 	0.2358	0.93051	0.9678	-0.068
Mof_C 	C 	0.7642	0.43051	0.5322	-0.067
Mof_C 	C 	0.7358	0.56949	0.0322	-0.067
Mof_C 	C 	0.2642	0.06949	0.4678	-0.067
Mof_C 	C 	0.0322	0.7642	0.06949	-0.068
Mof_C 	C 	0.4678	0.2358	0.56949	-0.067
Mof_C 	C 	0.9678	0.2642	0.43051	-0.067
Mof_C 	C 	0.5322	0.7358	0.93051	-0.067
Mof_C 	C 	0.06949	0.0322	0.7642	-0.068
Mof_C 	C 	0.56949	0.4678	0.2358	-0.067
Mof_C 	C 	0.43051	0.9678	0.2642	-0.067
Mof_C 	C 	0.93051	0.5322	0.7358	-0.067
Mof_C 	C 	0.7642	0.06949	0.0322	-0.068
Mof_C 	C 	0.2358	0.56949	0.4678	-0.067
Mof_C 	C 	0.2642	0.43051	0.9678	-0.067
Mof_C 	C 	0.7358	0.93051	0.5322	-0.067
Mof_H 	H 	0.9956	0.2272	0.9301	0.072
Mof_H 	H 	0.5044	0.7728	0.4301	0.072
Mof_H 	H 	0.0044	0.7272	0.5699	0.072
Mof_H 	H 	0.4956	0.2728	0.0699	0.072
Mof_H 	H 	0.9301	0.9956	0.2272	0.072
Mof_H 	H 	0.4301	0.5044	0.7728	0.072
Mof_H 	H 	0.5699	0.0044	0.7272	0.072
Mof_H 	H 	0.0699	0.4956	0.2728	0.072
Mof_H 	H 	0.2272	0.9301	0.9956	0.072
Mof_H 	H 	0.7728	0.4301	0.5044	0.072
Mof_H 	H 	0.7272	0.5699	0.0044	0.072
Mof_H 	H 	0.2728	0.0699	0.4956	0.072
Mof_H 	H 	0.0044	0.7728	0.0699	0.072
Mof_H 	H 	0.4956	0.2272	0.5699	0.072
Mof_H 	H 	0.9956	0.2728	0.4301	0.072
Mof_H 	H 	0.5044	0.7272	0.9301	0.072
Mof_H 	H 	0.0699	0.0044	0.7728	0.072
Mof_H 	H 	0.5699	0.4956	0.2272	0.072
Mof_H 	H 	0.4301	0.9956	0.2728	0.072
Mof_H 	H 	0.9301	0.5044	0.7272	0.072
Mof_H 	H 	0.7728	0.0699	0.0044	0.072
Mof_H 	H 	0.2272	0.5699	0.4956	0.072
Mof_H 	H 	0.2728	0.4301	0.9956	0.072
Mof_H 	H 	0.7272	0.9301	0.5044	0.072
Mof_H 	H 	0.96	0.2421	0.9032	0.055
Mof_H 	H 	0.54	0.7579	0.4032	0.054
Mof_H 	H 	0.04	0.7421	0.5968	0.054
Mof_H 	H 	0.46	0.2579	0.0968	0.054
Mof_H 	H 	0.9032	0.96	0.2421	0.055
Mof_H 	H 	0.4032	0.54	0.7579	0.054
Mof_H 	H 	0.5968	0.04	0.7421	0.054
Mof_H 	H 	0.0968	0.46	0.2579	0.054
Mof_H 	H 	0.2421	0.9032	0.96	0.055
Mof_H 	H 	0.7579	0.4032	0.54	0.054
Mof_H 	H 	0.7421	0.5968	0.04	0.054
Mof_H 	H 	0.2579	0.0968	0.46	0.054
Mof_H 	H 	0.04	0.7579	0.0968	0.055
Mof_H 	H 	0.46	0.2421	0.5968	0.054
Mof_H 	H 	0.96	0.2579	0.4032	0.054
Mof_H 	H 	0.54	0.7421	0.9032	0.054
Mof_H 	H 	0.0968	0.04	0.7579	0.055
Mof_H 	H 	0.5968	0.46	0.2421	0.054
Mof_H 	H 	0.4032	0.96	0.2579	0.054
Mof_H 	H 	0.9032	0.54	0.7421	0.054
Mof_H 	H 	0.7579	0.0968	0.04	0.055
Mof_H 	H 	0.2421	0.5968	0.46	0.054
Mof_H 	H 	0.2579	0.4032	0.96	0.054
Mof_H 	H 	0.7421	0.9032	0.54	0.054
Mof_C 	C 	0.96413	0.27305	0.9559	-0.173
Mof_C 	C 	0.53587	0.72695	0.4559	-0.173
Mof_C 	C 	0.03587	0.77305	0.5441	-0.173
Mof_C 	C 	0.46413	0.22695	0.0441	-0.173
Mof_C 	C 	0.9559	0.96413	0.27305	-0.173
Mof_C 	C 	0.4559	0.53587	0.72695	-0.173
Mof_C 	C 	0.5441	0.03587	0.77305	-0.173
Mof_C 	C 	0.0441	0.46413	0.22695	-0.173
Mof_C 	C 	0.27305	0.9559	0.96413	-0.173
Mof_C 	C 	0.72695	0.4559	0.53587	-0.173
Mof_C 	C 	0.77305	0.5441	0.03587	-0.173
Mof_C 	C 	0.22695	0.0441	0.46413	-0.173
Mof_C 	C 	0.03587	0.72695	0.0441	-0.173
Mof_C 	C 	0.46413	0.27305	0.5441	-0.173
Mof_C 	C 	0.96413	0.22695	0.4559	-0.173
Mof_C 	C 	0.53587	0.77305	0.9559	-0.173
Mof_C 	C 	0.0441	0.03587	0.72695	-0.173
Mof_C 	C 	0.5441	0.46413	0.27305	-0.173
Mof_C 	C 	0.4559	0.96413	0.22695	-0.173
Mof_C 	C 	0.9559	0.53587	0.77305	-0.173
Mof_C 	C 	0.72695	0.0441	0.03587	-0.173
Mof_C 	C 	0.27305	0.5441	0.46413	-0.173
Mof_C 	C 	0.22695	0.4559	0.96413	-0.173
Mof_C 	C 	0.77305	0.9559	0.53587	-0.173
Mof_H 	H 	0.9373	0.284	0.9531	0.081
Mof_H 	H 	0.5627	0.716	0.4531	0.081
Mof_H 	H 	0.0627	0.784	0.5469	0.081
Mof_H 	H 	0.4373	0.216	0.0469	0.081
Mof_H 	H 	0.9531	0.9373	0.284	0.081
Mof_H 	H 	0.4531	0.5627	0.716	0.081
Mof_H 	H 	0.5469	0.0627	0.784	0.081
Mof_H 	H 	0.0469	0.4373	0.216	0.081
Mof_H 	H 	0.284	0.9531	0.9373	0.081
Mof_H 	H 	0.716	0.4531	0.5627	0.081
Mof_H 	H 	0.784	0.5469	0.0627	0.081
Mof_H 	H 	0.216	0.0469	0.4373	0.081
Mof_H 	H 	0.0627	0.716	0.0469	0.081
Mof_H 	H 	0.4373	0.284	0.5469	0.081
Mof_H 	H 	0.9373	0.216	0.4531	0.081
Mof_H 	H 	0.5627	0.784	0.9531	0.081
Mof_H 	H 	0.0469	0.0627	0.716	0.081
Mof_H 	H 	0.5469	0.4373	0.284	0.081
Mof_H 	H 	0.4531	0.9373	0.216	0.081
Mof_H 	H 	0.9531	0.5627	0.784	0.081
Mof_H 	H 	0.716	0.0469	0.0627	0.081
Mof_H 	H 	0.284	0.5469	0.4373	0.081
Mof_H 	H 	0.216	0.4531	0.9373	0.081
Mof_H 	H 	0.784	0.9531	0.5627	0.081
Mof_H 	H 	0.983	0.293	0.9464	0.084
Mof_H 	H 	0.517	0.707	0.4464	0.084
Mof_H 	H 	0.017	0.793	0.5536	0.084
Mof_H 	H 	0.483	0.207	0.0536	0.084
Mof_H 	H 	0.9464	0.983	0.293	0.084
Mof_H 	H 	0.4464	0.517	0.707	0.084
Mof_H 	H 	0.5536	0.017	0.793	0.084
Mof_H 	H 	0.0536	0.483	0.207	0.084
Mof_H 	H 	0.293	0.9464	0.983	0.084
Mof_H 	H 	0.707	0.4464	0.517	0.084
Mof_H 	H 	0.793	0.5536	0.017	0.084
Mof_H 	H 	0.207	0.0536	0.483	0.084
Mof_H 	H 	0.017	0.707	0.0536	0.084
Mof_H 	H 	0.483	0.293	0.5536	0.084
Mof_H 	H 	0.983	0.207	0.4464	0.084
Mof_H 	H 	0.517	0.793	0.9464	0.084
Mof_H 	H 	0.0536	0.017	0.707	0.084
Mof_H 	H 	0.5536	0.483	0.293	0.084
Mof_H 	H 	0.4464	0.983	0.207	0.084
Mof_H 	H 	0.9464	0.517	0.793	0.084
Mof_H 	H 	0.707	0.0536	0.017	0.084
Mof_H 	H 	0.293	0.5536	0.483	0.084
Mof_H 	H 	0.207	0.4464	0.983	0.084
Mof_H 	H 	0.793	0.9464	0.517	0.084
Mof_C 	C 	0.13554	0.36993	0.1888	-0.173
Mof_C 	C 	0.36446	0.63007	0.6888	-0.173
Mof_C 	C 	0.86446	0.86993	0.3112	-0.173
Mof_C 	C 	0.63554	0.13007	0.8112	-0.173
Mof_C 	C 	0.1888	0.13554	0.36993	-0.173
Mof_C 	C 	0.6888	0.36446	0.63007	-0.173
Mof_C 	C 	0.3112	0.86446	0.86993	-0.173
Mof_C 	C 	0.8112	0.63554	0.13007	-0.173
Mof_C 	C 	0.36993	0.1888	0.13554	-0.173
Mof_C 	C 	0.63007	0.6888	0.36446	-0.173
Mof_C 	C 	0.86993	0.3112	0.86446	-0.173
Mof_C 	C 	0.13007	0.8112	0.63554	-0.173
Mof_C 	C 	0.86446	0.63007	0.8112	-0.173
Mof_C 	C 	0.63554	0.36993	0.3112	-0.173
Mof_C 	C 	0.13554	0.13007	0.6888	-0.173
Mof_C 	C 	0.36446	0.86993	0.1888	-0.173
Mof_C 	C 	0.8112	0.86446	0.63007	-0.173
Mof_C 	C 	0.3112	0.63554	0.36993	-0.173
Mof_C 	C 	0.6888	0.13554	0.13007	-0.173
Mof_C 	C 	0.1888	0.36446	0.86993	-0.173
Mof_C 	C 	0.63007	0.8112	0.86446	-0.173
Mof_C 	C 	0.36993	0.3112	0.63554	-0.173
Mof_C 	C 	0.13007	0.6888	0.13554	-0.173
Mof_C 	C 	0.86993	0.1888	0.36446	-0.173
Mof_H 	H 	0.1436	0.3838	0.1645	0.087
Mof_H 	H 	0.3564	0.6162	0.6645	0.087
Mof_H 	H 	0.8564	0.8838	0.3355	0.087
Mof_H 	H 	0.6436	0.1162	0.8355	0.087
Mof_H 	H 	0.1645	0.1436	0.3838	0.087
Mof_H 	H 	0.6645	0.3564	0.6162	0.087
Mof_H 	H 	0.3355	0.8564	0.8838	0.087
Mof_H 	H 	0.8355	0.6436	0.1162	0.087
Mof_H 	H 	0.3838	0.1645	0.1436	0.087
Mof_H 	H 	0.6162	0.6645	0.3564	0.087
Mof_H 	H 	0.8838	0.3355	0.8564	0.087
Mof_H 	H 	0.1162	0.8355	0.6436	0.087
Mof_H 	H 	0.8564	0.6162	0.8355	0.087
Mof_H 	H 	0.6436	0.3838	0.3355	0.087
Mof_H 	H 	0.1436	0.1162	0.6645	0.087
Mof_H 	H 	0.3564	0.8838	0.1645	0.087
Mof_H 	H 	0.8355	0.8564	0.6162	0.087
Mof_H 	H 	0.3355	0.6436	0.3838	0.087
Mof_H 	H 	0.6645	0.1436	0.1162	0.087
Mof_H 	H 	0.1645	0.3564	0.8838	0.087
Mof_H 	H 	0.6162	0.8355	0.8564	0.087
Mof_H 	H 	0.3838	0.3355	0.6436	0.087
Mof_H 	H 	0.1162	0.6645	0.1436	0.087
Mof_H 	H 	0.8838	0.1645	0.3564	0.087
Mof_H 	H 	0.1241	0.3897	0.2068	0.079
Mof_H 	H 	0.3759	0.6103	0.7068	0.079
Mof_H 	H 	0.8759	0.8897	0.2932	0.079
Mof_H 	H 	0.6241	0.1103	0.7932	0.079
Mof_H 	H 	0.2068	0.1241	0.3897	0.079
Mof_H 	H 	0.7068	0.3759	0.6103	0.079
Mof_H 	H 	0.2932	0.8759	0.8897	0.079
Mof_H 	H 	0.7932	0.6241	0.1103	0.079
Mof_H 	H 	0.3897	0.2068	0.1241	0.079
Mof_H 	H 	0.6103	0.7068	0.3759	0.079
Mof_H 	H 	0.8897	0.2932	0.8759	0.079
Mof_H 	H 	0.1103	0.7932	0.6241	0.079
Mof_H 	H 	0.8759	0.6103	0.7932	0.079
Mof_H 	H 	0.6241	0.3897	0.2932	0.079
Mof_H 	H 	0.1241	0.1103	0.7068	0.079
Mof_H 	H 	0.3759	0.8897	0.2068	0.079
Mof_H 	H 	0.7932	0.8759	0.6103	0.079
Mof_H 	H 	0.2932	0.6241	0.3897	0.079
Mof_H 	H 	0.7068	0.1241	0.1103	0.079
Mof_H 	H 	0.2068	0.3759	0.8897	0.079
Mof_H 	H 	0.6103	0.7932	0.8759	0.079
Mof_H 	H 	0.3897	0.2932	0.6241	0.079
Mof_H 	H 	0.1103	0.7068	0.1241	0.079
Mof_H 	H 	0.8897	0.2068	0.3759	0.079
Mof_C 	C 	0.17167	0.35267	0.2078	-0.063
Mof_C 	C 	0.32833	0.64733	0.7078	-0.063
Mof_C 	C 	0.82833	0.85267	0.2922	-0.063
Mof_C 	C 	0.67167	0.14733	0.7922	-0.063
Mof_C 	C 	0.2078	0.17167	0.35267	-0.063
Mof_C 	C 	0.7078	0.32833	0.64733	-0.063
Mof_C 	C 	0.2922	0.82833	0.85267	-0.063
Mof_C 	C 	0.7922	0.67167	0.14733	-0.063
Mof_C 	C 	0.35267	0.2078	0.17167	-0.063
Mof_C 	C 	0.64733	0.7078	0.32833	-0.063
Mof_C 	C 	0.85267	0.2922	0.82833	-0.063
Mof_C 	C 	0.14733	0.7922	0.67167	-0.063
Mof_C 	C 	0.82833	0.64733	0.7922	-0.063
Mof_C 	C 	0.67167	0.35267	0.2922	-0.063
Mof_C 	C 	0.17167	0.14733	0.7078	-0.063
Mof_C 	C 	0.32833	0.85267	0.2078	-0.063
Mof_C 	C 	0.7922	0.82833	0.64733	-0.063
Mof_C 	C 	0.2922	0.67167	0.35267	-0.063
Mof_C 	C 	0.7078	0.17167	0.14733	-0.063
Mof_C 	C 	0.2078	0.32833	0.85267	-0.063
Mof_C 	C 	0.64733	0.7922	0.82833	-0.063
Mof_C 	C 	0.35267	0.2922	0.67167	-0.063
Mof_C 	C 	0.14733	0.7078	0.17167	-0.063
Mof_C 	C 	0.85267	0.2078	0.32833	-0.063
Mof_H 	H 	0.1881	0.3741	0.2186	0.044
Mof_H 	H 	0.3119	0.6259	0.7186	0.044
Mof_H 	H 	0.8119	0.8741	0.2814	0.044
Mof_H 	H 	0.6881	0.1259	0.7814	0.044
Mof_H 	H 	0.2186	0.1881	0.3741	0.044
Mof_H 	H 	0.7186	0.3119	0.6259	0.044
Mof_H 	H 	0.2814	0.8119	0.8741	0.044
Mof_H 	H 	0.7814	0.6881	0.1259	0.044
Mof_H 	H 	0.3741	0.2186	0.1881	0.044
Mof_H 	H 	0.6259	0.7186	0.3119	0.044
Mof_H 	H 	0.8741	0.2814	0.8119	0.044
Mof_H 	H 	0.1259	0.7814	0.6881	0.044
Mof_H 	H 	0.8119	0.6259	0.7814	0.044
Mof_H 	H 	0.6881	0.3741	0.2814	0.044
Mof_H 	H 	0.1881	0.1259	0.7186	0.044
Mof_H 	H 	0.3119	0.8741	0.2186	0.044
Mof_H 	H 	0.7814	0.8119	0.6259	0.044
Mof_H 	H 	0.2814	0.6881	0.3741	0.044
Mof_H 	H 	0.7186	0.1881	0.1259	0.044
Mof_H 	H 	0.2186	0.3119	0.8741	0.044
Mof_H 	H 	0.6259	0.7814	0.8119	0.044
Mof_H 	H 	0.3741	0.2814	0.6881	0.044
Mof_H 	H 	0.1259	0.7186	0.1881	0.044
Mof_H 	H 	0.8741	0.2186	0.3119	0.044
Mof_H 	H 	0.1874	0.3386	0.1877	0.053
Mof_H 	H 	0.3126	0.6614	0.6877	0.053
Mof_H 	H 	0.8126	0.8386	0.3123	0.053
Mof_H 	H 	0.6874	0.1614	0.8123	0.053
Mof_H 	H 	0.1877	0.1874	0.3386	0.053
Mof_H 	H 	0.6877	0.3126	0.6614	0.053
Mof_H 	H 	0.3123	0.8126	0.8386	0.053
Mof_H 	H 	0.8123	0.6874	0.1614	0.053
Mof_H 	H 	0.3386	0.1877	0.1874	0.053
Mof_H 	H 	0.6614	0.6877	0.3126	0.053
Mof_H 	H 	0.8386	0.3123	0.8126	0.053
Mof_H 	H 	0.1614	0.8123	0.6874	0.053
Mof_H 	H 	0.8126	0.6614	0.8123	0.053
Mof_H 	H 	0.6874	0.3386	0.3123	0.053
Mof_H 	H 	0.1874	0.1614	0.6877	0.053
Mof_H 	H 	0.3126	0.8386	0.1877	0.053
Mof_H 	H 	0.8123	0.8126	0.6614	0.053
Mof_H 	H 	0.3123	0.6874	0.3386	0.053
Mof_H 	H 	0.6877	0.1874	0.1614	0.053
Mof_H 	H 	0.1877	0.3126	0.8386	0.053
Mof_H 	H 	0.6614	0.8123	0.8126	0.053
Mof_H 	H 	0.3386	0.3123	0.6874	0.053
Mof_H 	H 	0.1614	0.6877	0.1874	0.053
Mof_H 	H 	0.8386	0.1877	0.3126	0.053
Mof_C 	C 	0.16085	0.32448	0.24041	-0.043
Mof_C 	C 	0.33915	0.67552	0.74041	-0.043
Mof_C 	C 	0.83915	0.82448	0.25959	-0.043
Mof_C 	C 	0.66085	0.17552	0.75959	-0.043
Mof_C 	C 	0.24041	0.16085	0.32448	-0.043
Mof_C 	C 	0.74041	0.33915	0.67552	-0.043
Mof_C 	C 	0.25959	0.83915	0.82448	-0.043
Mof_C 	C 	0.75959	0.66085	0.17552	-0.043
Mof_C 	C 	0.32448	0.24041	0.16085	-0.043
Mof_C 	C 	0.67552	0.74041	0.33915	-0.043
Mof_C 	C 	0.82448	0.25959	0.83915	-0.043
Mof_C 	C 	0.17552	0.75959	0.66085	-0.043
Mof_C 	C 	0.83915	0.67552	0.75959	-0.043
Mof_C 	C 	0.66085	0.32448	0.25959	-0.043
Mof_C 	C 	0.16085	0.17552	0.74041	-0.043
Mof_C 	C 	0.33915	0.82448	0.24041	-0.043
Mof_C 	C 	0.75959	0.83915	0.67552	-0.043
Mof_C 	C 	0.25959	0.66085	0.32448	-0.043
Mof_C 	C 	0.74041	0.16085	0.17552	-0.043
Mof_C 	C 	0.24041	0.33915	0.82448	-0.043
Mof_C 	C 	0.67552	0.75959	0.83915	-0.043
Mof_C 	C 	0.32448	0.25959	0.66085	-0.043
Mof_C 	C 	0.17552	0.74041	0.16085	-0.043
Mof_C 	C 	0.82448	0.24041	0.33915	-0.043
Mof_H 	H 	0.1772	0.3305	0.2637	0.036
Mof_H 	H 	0.3228	0.6695	0.7637	0.036
Mof_H 	H 	0.8228	0.8305	0.2363	0.036
Mof_H 	H 	0.6772	0.1695	0.7363	0.036
Mof_H 	H 	0.2637	0.1772	0.3305	0.036
Mof_H 	H 	0.7637	0.3228	0.6695	0.036
Mof_H 	H 	0.2363	0.8228	0.8305	0.036
Mof_H 	H 	0.7363	0.6772	0.1695	0.036
Mof_H 	H 	0.3305	0.2637	0.1772	0.036
Mof_H 	H 	0.6695	0.7637	0.3228	0.036
Mof_H 	H 	0.8305	0.2363	0.8228	0.036
Mof_H 	H 	0.1695	0.7363	0.6772	0.036
Mof_H 	H 	0.8228	0.6695	0.7363	0.036
Mof_H 	H 	0.6772	0.3305	0.2363	0.036
Mof_H 	H 	0.1772	0.1695	0.7637	0.036
Mof_H 	H 	0.3228	0.8305	0.2637	0.036
Mof_H 	H 	0.7363	0.8228	0.6695	0.036
Mof_H 	H 	0.2363	0.6772	0.3305	0.036
Mof_H 	H 	0.7637	0.1772	0.1695	0.036
Mof_H 	H 	0.2637	0.3228	0.8305	0.036
Mof_H 	H 	0.6695	0.7363	0.8228	0.036
Mof_H 	H 	0.3305	0.2363	0.6772	0.036
Mof_H 	H 	0.1695	0.7637	0.1772	0.036
Mof_H 	H 	0.8305	0.2637	0.3228	0.036
Mof_H 	H 	0.1674	0.2974	0.2319	0.044
Mof_H 	H 	0.3326	0.7026	0.7319	0.044
Mof_H 	H 	0.8326	0.7974	0.2681	0.044
Mof_H 	H 	0.6674	0.2026	0.7681	0.044
Mof_H 	H 	0.2319	0.1674	0.2974	0.044
Mof_H 	H 	0.7319	0.3326	0.7026	0.044
Mof_H 	H 	0.2681	0.8326	0.7974	0.044
Mof_H 	H 	0.7681	0.6674	0.2026	0.044
Mof_H 	H 	0.2974	0.2319	0.1674	0.044
Mof_H 	H 	0.7026	0.7319	0.3326	0.044
Mof_H 	H 	0.7974	0.2681	0.8326	0.044
Mof_H 	H 	0.2026	0.7681	0.6674	0.044
Mof_H 	H 	0.8326	0.7026	0.7681	0.044
Mof_H 	H 	0.6674	0.2974	0.2681	0.044
Mof_H 	H 	0.1674	0.2026	0.7319	0.044
Mof_H 	H 	0.3326	0.7974	0.2319	0.044
Mof_H 	H 	0.7681	0.8326	0.7026	0.044
Mof_H 	H 	0.2681	0.6674	0.2974	0.044
Mof_H 	H 	0.7319	0.1674	0.2026	0.044
Mof_H 	H 	0.2319	0.3326	0.7974	0.044
Mof_H 	H 	0.7026	0.7681	0.8326	0.044
Mof_H 	H 	0.2974	0.2681	0.6674	0.044
Mof_H 	H 	0.2026	0.7319	0.1674	0.044
Mof_H 	H 	0.7974	0.2319	0.3326	0.044
Mof_C 	C 	0.11679	0.32561	0.25281	-0.197
Mof_C 	C 	0.38321	0.67439	0.75281	-0.197
Mof_C 	C 	0.88321	0.82561	0.24719	-0.197
Mof_C 	C 	0.61679	0.17439	0.74719	-0.197
Mof_C 	C 	0.25281	0.11679	0.32561	-0.197
Mof_C 	C 	0.75281	0.38321	0.67439	-0.197
Mof_C 	C 	0.24719	0.88321	0.82561	-0.197
Mof_C 	C 	0.74719	0.61679	0.17439	-0.197
Mof_C 	C 	0.32561	0.25281	0.11679	-0.197
Mof_C 	C 	0.67439	0.75281	0.38321	-0.197
Mof_C 	C 	0.82561	0.24719	0.88321	-0.197
Mof_C 	C 	0.17439	0.74719	0.61679	-0.197
Mof_C 	C 	0.88321	0.67439	0.74719	-0.197
Mof_C 	C 	0.61679	0.32561	0.24719	-0.197
Mof_C 	C 	0.11679	0.17439	0.75281	-0.197
Mof_C 	C 	0.38321	0.82561	0.25281	-0.197
Mof_C 	C 	0.74719	0.88321	0.67439	-0.197
Mof_C 	C 	0.24719	0.61679	0.32561	-0.197
Mof_C 	C 	0.75281	0.11679	0.17439	-0.197
Mof_C 	C 	0.25281	0.38321	0.82561	-0.197
Mof_C 	C 	0.67439	0.74719	0.88321	-0.197
Mof_C 	C 	0.32561	0.24719	0.61679	-0.197
Mof_C 	C 	0.17439	0.75281	0.11679	-0.197
Mof_C 	C 	0.82561	0.25281	0.38321	-0.197
Mof_H 	H 	0.1121	0.3069	0.2746	0.095
Mof_H 	H 	0.3879	0.6931	0.7746	0.095
Mof_H 	H 	0.8879	0.8069	0.2254	0.095
Mof_H 	H 	0.6121	0.1931	0.7254	0.095
Mof_H 	H 	0.2746	0.1121	0.3069	0.095
Mof_H 	H 	0.7746	0.3879	0.6931	0.095
Mof_H 	H 	0.2254	0.8879	0.8069	0.095
Mof_H 	H 	0.7254	0.6121	0.1931	0.095
Mof_H 	H 	0.3069	0.2746	0.1121	0.095
Mof_H 	H 	0.6931	0.7746	0.3879	0.095
Mof_H 	H 	0.8069	0.2254	0.8879	0.095
Mof_H 	H 	0.1931	0.7254	0.6121	0.095
Mof_H 	H 	0.8879	0.6931	0.7254	0.095
Mof_H 	H 	0.6121	0.3069	0.2254	0.095
Mof_H 	H 	0.1121	0.1931	0.7746	0.095
Mof_H 	H 	0.3879	0.8069	0.2746	0.095
Mof_H 	H 	0.7254	0.8879	0.6931	0.095
Mof_H 	H 	0.2254	0.6121	0.3069	0.095
Mof_H 	H 	0.7746	0.1121	0.1931	0.095
Mof_H 	H 	0.2746	0.3879	0.8069	0.095
Mof_H 	H 	0.6931	0.7254	0.8879	0.095
Mof_H 	H 	0.3069	0.2254	0.6121	0.095
Mof_H 	H 	0.1931	0.7746	0.1121	0.095
Mof_H 	H 	0.8069	0.2746	0.3879	0.095
Mof_H 	H 	0.1097	0.3523	0.2619	0.092
Mof_H 	H 	0.3903	0.6477	0.7619	0.092
Mof_H 	H 	0.8903	0.8523	0.2381	0.092
Mof_H 	H 	0.6097	0.1477	0.7381	0.092
Mof_H 	H 	0.2619	0.1097	0.3523	0.092
Mof_H 	H 	0.7619	0.3903	0.6477	0.092
Mof_H 	H 	0.2381	0.8903	0.8523	0.092
Mof_H 	H 	0.7381	0.6097	0.1477	0.092
Mof_H 	H 	0.3523	0.2619	0.1097	0.092
Mof_H 	H 	0.6477	0.7619	0.3903	0.092
Mof_H 	H 	0.8523	0.2381	0.8903	0.092
Mof_H 	H 	0.1477	0.7381	0.6097	0.092
Mof_H 	H 	0.8903	0.6477	0.7381	0.092
Mof_H 	H 	0.6097	0.3523	0.2381	0.092
Mof_H 	H 	0.1097	0.1477	0.7619	0.092
Mof_H 	H 	0.3903	0.8523	0.2619	0.092
Mof_H 	H 	0.7381	0.8903	0.6477	0.092
Mof_H 	H 	0.2381	0.6097	0.3523	0.092
Mof_H 	H 	0.7619	0.1097	0.1477	0.092
Mof_H 	H 	0.2619	0.3903	0.8523	0.092
Mof_H 	H 	0.6477	0.7381	0.8903	0.092
Mof_H 	H 	0.3523	0.2381	0.6097	0.092
Mof_H 	H 	0.1477	0.7619	0.1097	0.092
Mof_H 	H 	0.8523	0.2619	0.3903	0.092
Mof_N 	N 	0.05699	0.21954	0.22888	-0.232
Mof_N 	N 	0.44301	0.78046	0.72888	-0.232
Mof_N 	N 	0.94301	0.71954	0.27112	-0.232
Mof_N 	N 	0.55699	0.28046	0.77112	-0.232
Mof_N 	N 	0.22888	0.05699	0.21954	-0.232
Mof_N 	N 	0.72888	0.44301	0.78046	-0.232
Mof_N 	N 	0.27112	0.94301	0.71954	-0.232
Mof_N 	N 	0.77112	0.55699	0.28046	-0.232
Mof_N 	N 	0.21954	0.22888	0.05699	-0.232
Mof_N 	N 	0.78046	0.72888	0.44301	-0.232
Mof_N 	N 	0.71954	0.27112	0.94301	-0.232
Mof_N 	N 	0.28046	0.77112	0.55699	-0.232
Mof_N 	N 	0.94301	0.78046	0.77112	-0.232
Mof_N 	N 	0.55699	0.21954	0.27112	-0.232
Mof_N 	N 	0.05699	0.28046	0.72888	-0.232
Mof_N 	N 	0.44301	0.71954	0.22888	-0.232
Mof_N 	N 	0.77112	0.94301	0.78046	-0.232
Mof_N 	N 	0.27112	0.55699	0.21954	-0.232
Mof_N 	N 	0.72888	0.05699	0.28046	-0.232
Mof_N 	N 	0.22888	0.44301	0.71954	-0.232
Mof_N 	N 	0.78046	0.77112	0.94301	-0.232
Mof_N 	N 	0.21954	0.27112	0.55699	-0.232
Mof_N 	N 	0.28046	0.72888	0.05699	-0.232
Mof_N 	N 	0.71954	0.22888	0.44301	-0.232
Mof_N 	N 	0.00951	0.17625	0.21325	-0.246
Mof_N 	N 	0.49049	0.82375	0.71325	-0.246
Mof_N 	N 	0.99049	0.67625	0.28675	-0.246
Mof_N 	N 	0.50951	0.32375	0.78675	-0.246
Mof_N 	N 	0.21325	0.00951	0.17625	-0.246
Mof_N 	N 	0.71325	0.49049	0.82375	-0.246
Mof_N 	N 	0.28675	0.99049	0.67625	-0.246
Mof_N 	N 	0.78675	0.50951	0.32375	-0.246
Mof_N 	N 	0.17625	0.21325	0.00951	-0.246
Mof_N 	N 	0.82375	0.71325	0.49049	-0.246
Mof_N 	N 	0.67625	0.28675	0.99049	-0.246
Mof_N 	N 	0.32375	0.78675	0.50951	-0.246
Mof_N 	N 	0.99049	0.82375	0.78675	-0.246
Mof_N 	N 	0.50951	0.17625	0.28675	-0.246
Mof_N 	N 	0.00951	0.32375	0.71325	-0.246
Mof_N 	N 	0.49049	0.67625	0.21325	-0.246
Mof_N 	N 	0.78675	0.99049	0.82375	-0.246
Mof_N 	N 	0.28675	0.50951	0.17625	-0.246
Mof_N 	N 	0.71325	0.00951	0.32375	-0.246
Mof_N 	N 	0.21325	0.49049	0.67625	-0.246
Mof_N 	N 	0.82375	0.78675	0.99049	-0.246
Mof_N 	N 	0.17625	0.28675	0.50951	-0.246
Mof_N 	N 	0.32375	0.71325	0.00951	-0.246
Mof_N 	N 	0.67625	0.21325	0.49049	-0.246
Mof_N 	N 	0.00647	0.26914	0.24665	-0.196
Mof_N 	N 	0.49353	0.73086	0.74665	-0.196
Mof_N 	N 	0.99353	0.76914	0.25335	-0.196
Mof_N 	N 	0.50647	0.23086	0.75335	-0.196
Mof_N 	N 	0.24665	0.00647	0.26914	-0.196
Mof_N 	N 	0.74665	0.49353	0.73086	-0.196
Mof_N 	N 	0.25335	0.99353	0.76914	-0.196
Mof_N 	N 	0.75335	0.50647	0.23086	-0.196
Mof_N 	N 	0.26914	0.24665	0.00647	-0.196
Mof_N 	N 	0.73086	0.74665	0.49353	-0.196
Mof_N 	N 	0.76914	0.25335	0.99353	-0.196
Mof_N 	N 	0.23086	0.75335	0.50647	-0.196
Mof_N 	N 	0.99353	0.73086	0.75335	-0.196
Mof_N 	N 	0.50647	0.26914	0.25335	-0.196
Mof_N 	N 	0.00647	0.23086	0.74665	-0.196
Mof_N 	N 	0.49353	0.76914	0.24665	-0.196
Mof_N 	N 	0.75335	0.99353	0.73086	-0.196
Mof_N 	N 	0.25335	0.50647	0.26914	-0.196
Mof_N 	N 	0.74665	0.00647	0.23086	-0.196
Mof_N 	N 	0.24665	0.49353	0.76914	-0.196
Mof_N 	N 	0.73086	0.75335	0.99353	-0.196
Mof_N 	N 	0.26914	0.25335	0.50647	-0.196
Mof_N 	N 	0.23086	0.74665	0.00647	-0.196
Mof_N 	N 	0.76914	0.24665	0.49353	-0.196
Mof_N 	N 	0.95852	0.22549	0.23171	-0.201
Mof_N 	N 	0.54148	0.77451	0.73171	-0.201
Mof_N 	N 	0.04148	0.72549	0.26829	-0.201
Mof_N 	N 	0.45852	0.27451	0.76829	-0.201
Mof_N 	N 	0.23171	0.95852	0.22549	-0.201
Mof_N 	N 	0.73171	0.54148	0.77451	-0.201
Mof_N 	N 	0.26829	0.04148	0.72549	-0.201
Mof_N 	N 	0.76829	0.45852	0.27451	-0.201
Mof_N 	N 	0.22549	0.23171	0.95852	-0.201
Mof_N 	N 	0.77451	0.73171	0.54148	-0.201
Mof_N 	N 	0.72549	0.26829	0.04148	-0.201
Mof_N 	N 	0.27451	0.76829	0.45852	-0.201
Mof_N 	N 	0.04148	0.77451	0.76829	-0.201
Mof_N 	N 	0.45852	0.22549	0.26829	-0.201
Mof_N 	N 	0.95852	0.27451	0.73171	-0.201
Mof_N 	N 	0.54148	0.72549	0.23171	-0.201
Mof_N 	N 	0.76829	0.04148	0.77451	-0.201
Mof_N 	N 	0.26829	0.45852	0.22549	-0.201
Mof_N 	N 	0.73171	0.95852	0.27451	-0.201
Mof_N 	N 	0.23171	0.54148	0.72549	-0.201
Mof_N 	N 	0.77451	0.76829	0.04148	-0.201
Mof_N 	N 	0.22549	0.26829	0.45852	-0.201
Mof_N 	N 	0.27451	0.73171	0.95852	-0.201
Mof_N 	N 	0.72549	0.23171	0.54148	-0.201
Mof_N 	N 	0.97001	0.15266	0.1566	-0.22
Mof_N 	N 	0.52999	0.84734	0.6566	-0.22
Mof_N 	N 	0.02999	0.65266	0.3434	-0.22
Mof_N 	N 	0.47001	0.34734	0.8434	-0.22
Mof_N 	N 	0.1566	0.97001	0.15266	-0.22
Mof_N 	N 	0.6566	0.52999	0.84734	-0.22
Mof_N 	N 	0.3434	0.02999	0.65266	-0.22
Mof_N 	N 	0.8434	0.47001	0.34734	-0.22
Mof_N 	N 	0.15266	0.1566	0.97001	-0.22
Mof_N 	N 	0.84734	0.6566	0.52999	-0.22
Mof_N 	N 	0.65266	0.3434	0.02999	-0.22
Mof_N 	N 	0.34734	0.8434	0.47001	-0.22
Mof_N 	N 	0.02999	0.84734	0.8434	-0.22
Mof_N 	N 	0.47001	0.15266	0.3434	-0.22
Mof_N 	N 	0.97001	0.34734	0.6566	-0.22
Mof_N 	N 	0.52999	0.65266	0.1566	-0.22
Mof_N 	N 	0.8434	0.02999	0.84734	-0.22
Mof_N 	N 	0.3434	0.47001	0.15266	-0.22
Mof_N 	N 	0.6566	0.97001	0.34734	-0.22
Mof_N 	N 	0.1566	0.52999	0.65266	-0.22
Mof_N 	N 	0.84734	0.8434	0.02999	-0.22
Mof_N 	N 	0.15266	0.3434	0.47001	-0.22
Mof_N 	N 	0.34734	0.6566	0.97001	-0.22
Mof_N 	N 	0.65266	0.1566	0.52999	-0.22
Mof_N 	N 	0.95779	0.16408	0.09275	-0.203
Mof_N 	N 	0.54221	0.83592	0.59275	-0.203
Mof_N 	N 	0.04221	0.66408	0.40725	-0.203
Mof_N 	N 	0.45779	0.33592	0.90725	-0.203
Mof_N 	N 	0.09275	0.95779	0.16408	-0.203
Mof_N 	N 	0.59275	0.54221	0.83592	-0.203
Mof_N 	N 	0.40725	0.04221	0.66408	-0.203
Mof_N 	N 	0.90725	0.45779	0.33592	-0.203
Mof_N 	N 	0.16408	0.09275	0.95779	-0.203
Mof_N 	N 	0.83592	0.59275	0.54221	-0.203
Mof_N 	N 	0.66408	0.40725	0.04221	-0.203
Mof_N 	N 	0.33592	0.90725	0.45779	-0.203
Mof_N 	N 	0.04221	0.83592	0.90725	-0.203
Mof_N 	N 	0.45779	0.16408	0.40725	-0.203
Mof_N 	N 	0.95779	0.33592	0.59275	-0.203
Mof_N 	N 	0.54221	0.66408	0.09275	-0.203
Mof_N 	N 	0.90725	0.04221	0.83592	-0.203
Mof_N 	N 	0.40725	0.45779	0.16408	-0.203
Mof_N 	N 	0.59275	0.95779	0.33592	-0.203
Mof_N 	N 	0.09275	0.54221	0.66408	-0.203
Mof_N 	N 	0.83592	0.90725	0.04221	-0.203
Mof_N 	N 	0.16408	0.40725	0.45779	-0.203
Mof_N 	N 	0.33592	0.59275	0.95779	-0.203
Mof_N 	N 	0.66408	0.09275	0.54221	-0.203
Mof_N 	N 	0.92031	0.20354	0.17407	-0.194
Mof_N 	N 	0.57969	0.79646	0.67407	-0.194
Mof_N 	N 	0.07969	0.70354	0.32593	-0.194
Mof_N 	N 	0.42031	0.29646	0.82593	-0.194
Mof_N 	N 	0.17407	0.92031	0.20354	-0.194
Mof_N 	N 	0.67407	0.57969	0.79646	-0.194
Mof_N 	N 	0.32593	0.07969	0.70354	-0.194
Mof_N 	N 	0.82593	0.42031	0.29646	-0.194
Mof_N 	N 	0.20354	0.17407	0.92031	-0.194
Mof_N 	N 	0.79646	0.67407	0.57969	-0.194
Mof_N 	N 	0.70354	0.32593	0.07969	-0.194
Mof_N 	N 	0.29646	0.82593	0.42031	-0.194
Mof_N 	N 	0.07969	0.79646	0.82593	-0.194
Mof_N 	N 	0.42031	0.20354	0.32593	-0.194
Mof_N 	N 	0.92031	0.29646	0.67407	-0.194
Mof_N 	N 	0.57969	0.70354	0.17407	-0.194
Mof_N 	N 	0.82593	0.07969	0.79646	-0.194
Mof_N 	N 	0.32593	0.42031	0.20354	-0.194
Mof_N 	N 	0.67407	0.92031	0.29646	-0.194
Mof_N 	N 	0.17407	0.57969	0.70354	-0.194
Mof_N 	N 	0.79646	0.82593	0.07969	-0.194
Mof_N 	N 	0.20354	0.32593	0.42031	-0.194
Mof_N 	N 	0.29646	0.67407	0.92031	-0.194
Mof_N 	N 	0.70354	0.17407	0.57969	-0.194
Mof_N 	N 	0.90551	0.21166	0.10909	-0.209
Mof_N 	N 	0.59449	0.78834	0.60909	-0.209
Mof_N 	N 	0.09449	0.71166	0.39091	-0.209
Mof_N 	N 	0.40551	0.28834	0.89091	-0.209
Mof_N 	N 	0.10909	0.90551	0.21166	-0.209
Mof_N 	N 	0.60909	0.59449	0.78834	-0.209
Mof_N 	N 	0.39091	0.09449	0.71166	-0.209
Mof_N 	N 	0.89091	0.40551	0.28834	-0.209
Mof_N 	N 	0.21166	0.10909	0.90551	-0.209
Mof_N 	N 	0.78834	0.60909	0.59449	-0.209
Mof_N 	N 	0.71166	0.39091	0.09449	-0.209
Mof_N 	N 	0.28834	0.89091	0.40551	-0.209
Mof_N 	N 	0.09449	0.78834	0.89091	-0.209
Mof_N 	N 	0.40551	0.21166	0.39091	-0.209
Mof_N 	N 	0.90551	0.28834	0.60909	-0.209
Mof_N 	N 	0.59449	0.71166	0.10909	-0.209
Mof_N 	N 	0.89091	0.09449	0.78834	-0.209
Mof_N 	N 	0.39091	0.40551	0.21166	-0.209
Mof_N 	N 	0.60909	0.90551	0.28834	-0.209
Mof_N 	N 	0.10909	0.59449	0.71166	-0.209
Mof_N 	N 	0.78834	0.89091	0.09449	-0.209
Mof_N 	N 	0.21166	0.39091	0.40551	-0.209
Mof_N 	N 	0.28834	0.60909	0.90551	-0.209
Mof_N 	N 	0.71166	0.10909	0.59449	-0.209
Mof_N 	N 	0.97393	0.20004	0.03088	-0.203
Mof_N 	N 	0.52607	0.79996	0.53088	-0.202
Mof_N 	N 	0.02607	0.70004	0.46912	-0.203
Mof_N 	N 	0.47393	0.29996	0.96912	-0.203
Mof_N 	N 	0.03088	0.97393	0.20004	-0.203
Mof_N 	N 	0.53088	0.52607	0.79996	-0.202
Mof_N 	N 	0.46912	0.02607	0.70004	-0.203
Mof_N 	N 	0.96912	0.47393	0.29996	-0.203
Mof_N 	N 	0.20004	0.03088	0.97393	-0.203
Mof_N 	N 	0.79996	0.53088	0.52607	-0.202
Mof_N 	N 	0.70004	0.46912	0.02607	-0.203
Mof_N 	N 	0.29996	0.96912	0.47393	-0.203
Mof_N 	N 	0.02607	0.79996	0.96912	-0.203
Mof_N 	N 	0.47393	0.20004	0.46912	-0.202
Mof_N 	N 	0.97393	0.29996	0.53088	-0.203
Mof_N 	N 	0.52607	0.70004	0.03088	-0.203
Mof_N 	N 	0.96912	0.02607	0.79996	-0.203
Mof_N 	N 	0.46912	0.47393	0.20004	-0.202
Mof_N 	N 	0.53088	0.97393	0.29996	-0.203
Mof_N 	N 	0.03088	0.52607	0.70004	-0.203
Mof_N 	N 	0.79996	0.96912	0.02607	-0.203
Mof_N 	N 	0.20004	0.46912	0.47393	-0.202
Mof_N 	N 	0.29996	0.53088	0.97393	-0.203
Mof_N 	N 	0.70004	0.03088	0.52607	-0.203
Mof_N 	N 	0.01191	0.24854	0.00702	-0.201
Mof_N 	N 	0.48809	0.75146	0.50702	-0.201
Mof_N 	N 	0.98809	0.74854	0.49298	-0.201
Mof_N 	N 	0.51191	0.25146	0.99298	-0.201
Mof_N 	N 	0.00702	0.01191	0.24854	-0.201
Mof_N 	N 	0.50702	0.48809	0.75146	-0.201
Mof_N 	N 	0.49298	0.98809	0.74854	-0.201
Mof_N 	N 	0.99298	0.51191	0.25146	-0.201
Mof_N 	N 	0.24854	0.00702	0.01191	-0.201
Mof_N 	N 	0.75146	0.50702	0.48809	-0.201
Mof_N 	N 	0.74854	0.49298	0.98809	-0.201
Mof_N 	N 	0.25146	0.99298	0.51191	-0.201
Mof_N 	N 	0.98809	0.75146	0.99298	-0.201
Mof_N 	N 	0.51191	0.24854	0.49298	-0.201
Mof_N 	N 	0.01191	0.25146	0.50702	-0.201
Mof_N 	N 	0.48809	0.74854	0.00702	-0.201
Mof_N 	N 	0.99298	0.98809	0.75146	-0.201
Mof_N 	N 	0.49298	0.51191	0.24854	-0.201
Mof_N 	N 	0.50702	0.01191	0.25146	-0.201
Mof_N 	N 	0.00702	0.48809	0.74854	-0.201
Mof_N 	N 	0.75146	0.99298	0.98809	-0.201
Mof_N 	N 	0.24854	0.49298	0.51191	-0.201
Mof_N 	N 	0.25146	0.50702	0.01191	-0.201
Mof_N 	N 	0.74854	0.00702	0.48809	-0.201
Mof_N 	N 	0.92273	0.24895	0.04918	-0.243
Mof_N 	N 	0.57727	0.75105	0.54918	-0.243
Mof_N 	N 	0.07727	0.74895	0.45082	-0.243
Mof_N 	N 	0.42273	0.25105	0.95082	-0.243
Mof_N 	N 	0.04918	0.92273	0.24895	-0.243
Mof_N 	N 	0.54918	0.57727	0.75105	-0.243
Mof_N 	N 	0.45082	0.07727	0.74895	-0.243
Mof_N 	N 	0.95082	0.42273	0.25105	-0.243
Mof_N 	N 	0.24895	0.04918	0.92273	-0.243
Mof_N 	N 	0.75105	0.54918	0.57727	-0.243
Mof_N 	N 	0.74895	0.45082	0.07727	-0.243
Mof_N 	N 	0.25105	0.95082	0.42273	-0.243
Mof_N 	N 	0.07727	0.75105	0.95082	-0.243
Mof_N 	N 	0.42273	0.24895	0.45082	-0.243
Mof_N 	N 	0.92273	0.25105	0.54918	-0.243
Mof_N 	N 	0.57727	0.74895	0.04918	-0.243
Mof_N 	N 	0.95082	0.07727	0.75105	-0.243
Mof_N 	N 	0.45082	0.42273	0.24895	-0.243
Mof_N 	N 	0.54918	0.92273	0.25105	-0.243
Mof_N 	N 	0.04918	0.57727	0.74895	-0.243
Mof_N 	N 	0.75105	0.95082	0.07727	-0.243
Mof_N 	N 	0.24895	0.45082	0.42273	-0.243
Mof_N 	N 	0.25105	0.54918	0.92273	-0.243
Mof_N 	N 	0.74895	0.04918	0.57727	-0.243
Mof_N 	N 	0.96249	0.29787	0.02654	-0.232
Mof_N 	N 	0.53751	0.70213	0.52654	-0.232
Mof_N 	N 	0.03751	0.79787	0.47346	-0.232
Mof_N 	N 	0.46249	0.20213	0.97346	-0.232
Mof_N 	N 	0.02654	0.96249	0.29787	-0.232
Mof_N 	N 	0.52654	0.53751	0.70213	-0.232
Mof_N 	N 	0.47346	0.03751	0.79787	-0.232
Mof_N 	N 	0.97346	0.46249	0.20213	-0.232
Mof_N 	N 	0.29787	0.02654	0.96249	-0.232
Mof_N 	N 	0.70213	0.52654	0.53751	-0.232
Mof_N 	N 	0.79787	0.47346	0.03751	-0.232
Mof_N 	N 	0.20213	0.97346	0.46249	-0.232
Mof_N 	N 	0.03751	0.70213	0.97346	-0.232
Mof_N 	N 	0.46249	0.29787	0.47346	-0.232
Mof_N 	N 	0.96249	0.20213	0.52654	-0.232
Mof_N 	N 	0.53751	0.79787	0.02654	-0.232
Mof_N 	N 	0.97346	0.03751	0.70213	-0.232
Mof_N 	N 	0.47346	0.46249	0.29787	-0.232
Mof_N 	N 	0.52654	0.96249	0.20213	-0.232
Mof_N 	N 	0.02654	0.53751	0.79787	-0.232
Mof_N 	N 	0.70213	0.97346	0.03751	-0.232
Mof_N 	N 	0.29787	0.47346	0.46249	-0.232
Mof_N 	N 	0.20213	0.52654	0.96249	-0.232
Mof_N 	N 	0.79787	0.02654	0.53751	-0.232
Mof_N 	N 	0.06288	0.29527	0.029	-0.195
Mof_N 	N 	0.43712	0.70473	0.529	-0.195
Mof_N 	N 	0.93712	0.79527	0.471	-0.195
Mof_N 	N 	0.56288	0.20473	0.971	-0.195
Mof_N 	N 	0.029	0.06288	0.29527	-0.195
Mof_N 	N 	0.529	0.43712	0.70473	-0.195
Mof_N 	N 	0.471	0.93712	0.79527	-0.195
Mof_N 	N 	0.971	0.56288	0.20473	-0.195
Mof_N 	N 	0.29527	0.029	0.06288	-0.195
Mof_N 	N 	0.70473	0.529	0.43712	-0.195
Mof_N 	N 	0.79527	0.471	0.93712	-0.195
Mof_N 	N 	0.20473	0.971	0.56288	-0.195
Mof_N 	N 	0.93712	0.70473	0.971	-0.195
Mof_N 	N 	0.56288	0.29527	0.471	-0.195
Mof_N 	N 	0.06288	0.20473	0.529	-0.195
Mof_N 	N 	0.43712	0.79527	0.029	-0.195
Mof_N 	N 	0.971	0.93712	0.70473	-0.195
Mof_N 	N 	0.471	0.56288	0.29527	-0.195
Mof_N 	N 	0.529	0.06288	0.20473	-0.195
Mof_N 	N 	0.029	0.43712	0.79527	-0.195
Mof_N 	N 	0.70473	0.971	0.93712	-0.195
Mof_N 	N 	0.29527	0.471	0.56288	-0.195
Mof_N 	N 	0.20473	0.529	0.06288	-0.195
Mof_N 	N 	0.79527	0.029	0.43712	-0.195
Mof_N 	N 	0.10215	0.31767	0.0792	-0.193
Mof_N 	N 	0.39785	0.68233	0.5792	-0.193
Mof_N 	N 	0.89785	0.81767	0.4208	-0.193
Mof_N 	N 	0.60215	0.18233	0.9208	-0.193
Mof_N 	N 	0.0792	0.10215	0.31767	-0.193
Mof_N 	N 	0.5792	0.39785	0.68233	-0.193
Mof_N 	N 	0.4208	0.89785	0.81767	-0.193
Mof_N 	N 	0.9208	0.60215	0.18233	-0.193
Mof_N 	N 	0.31767	0.0792	0.10215	-0.193
Mof_N 	N 	0.68233	0.5792	0.39785	-0.193
Mof_N 	N 	0.81767	0.4208	0.89785	-0.193
Mof_N 	N 	0.18233	0.9208	0.60215	-0.193
Mof_N 	N 	0.89785	0.68233	0.9208	-0.193
Mof_N 	N 	0.60215	0.31767	0.4208	-0.193
Mof_N 	N 	0.10215	0.18233	0.5792	-0.193
Mof_N 	N 	0.39785	0.81767	0.0792	-0.193
Mof_N 	N 	0.9208	0.89785	0.68233	-0.193
Mof_N 	N 	0.4208	0.60215	0.31767	-0.193
Mof_N 	N 	0.5792	0.10215	0.18233	-0.193
Mof_N 	N 	0.0792	0.39785	0.81767	-0.193
Mof_N 	N 	0.68233	0.9208	0.89785	-0.193
Mof_N 	N 	0.31767	0.4208	0.60215	-0.193
Mof_N 	N 	0.18233	0.5792	0.10215	-0.193
Mof_N 	N 	0.81767	0.0792	0.39785	-0.193
Mof_N 	N 	0.01257	0.34641	0.04582	-0.2
Mof_N 	N 	0.48743	0.65359	0.54582	-0.2
Mof_N 	N 	0.98743	0.84641	0.45418	-0.2
Mof_N 	N 	0.51257	0.15359	0.95418	-0.2
Mof_N 	N 	0.04582	0.01257	0.34641	-0.2
Mof_N 	N 	0.54582	0.48743	0.65359	-0.2
Mof_N 	N 	0.45418	0.98743	0.84641	-0.2
Mof_N 	N 	0.95418	0.51257	0.15359	-0.2
Mof_N 	N 	0.34641	0.04582	0.01257	-0.2
Mof_N 	N 	0.65359	0.54582	0.48743	-0.2
Mof_N 	N 	0.84641	0.45418	0.98743	-0.2
Mof_N 	N 	0.15359	0.95418	0.51257	-0.2
Mof_N 	N 	0.98743	0.65359	0.95418	-0.2
Mof_N 	N 	0.51257	0.34641	0.45418	-0.2
Mof_N 	N 	0.01257	0.15359	0.54582	-0.2
Mof_N 	N 	0.48743	0.84641	0.04582	-0.2
Mof_N 	N 	0.95418	0.98743	0.65359	-0.2
Mof_N 	N 	0.45418	0.51257	0.34641	-0.2
Mof_N 	N 	0.54582	0.01257	0.15359	-0.2
Mof_N 	N 	0.04582	0.48743	0.84641	-0.2
Mof_N 	N 	0.65359	0.95418	0.98743	-0.2
Mof_N 	N 	0.34641	0.45418	0.51257	-0.2
Mof_N 	N 	0.15359	0.54582	0.01257	-0.2
Mof_N 	N 	0.84641	0.04582	0.48743	-0.2
Mof_N 	N 	0.04996	0.3654	0.09702	-0.199
Mof_N 	N 	0.45004	0.6346	0.59702	-0.199
Mof_N 	N 	0.95004	0.8654	0.40298	-0.199
Mof_N 	N 	0.54996	0.1346	0.90298	-0.199
Mof_N 	N 	0.09702	0.04996	0.3654	-0.199
Mof_N 	N 	0.59702	0.45004	0.6346	-0.199
Mof_N 	N 	0.40298	0.95004	0.8654	-0.199
Mof_N 	N 	0.90298	0.54996	0.1346	-0.199
Mof_N 	N 	0.3654	0.09702	0.04996	-0.199
Mof_N 	N 	0.6346	0.59702	0.45004	-0.199
Mof_N 	N 	0.8654	0.40298	0.95004	-0.199
Mof_N 	N 	0.1346	0.90298	0.54996	-0.199
Mof_N 	N 	0.95004	0.6346	0.90298	-0.199
Mof_N 	N 	0.54996	0.3654	0.40298	-0.199
Mof_N 	N 	0.04996	0.1346	0.59702	-0.199
Mof_N 	N 	0.45004	0.8654	0.09702	-0.199
Mof_N 	N 	0.90298	0.95004	0.6346	-0.199
Mof_N 	N 	0.40298	0.54996	0.3654	-0.199
Mof_N 	N 	0.59702	0.04996	0.1346	-0.199
Mof_N 	N 	0.09702	0.45004	0.8654	-0.199
Mof_N 	N 	0.6346	0.90298	0.95004	-0.199
Mof_N 	N 	0.3654	0.40298	0.54996	-0.199
Mof_N 	N 	0.1346	0.59702	0.04996	-0.199
Mof_N 	N 	0.8654	0.09702	0.45004	-0.199
Mof_N 	N 	0.11637	0.30898	0.14977	-0.198
Mof_N 	N 	0.38363	0.69102	0.64977	-0.198
Mof_N 	N 	0.88363	0.80898	0.35023	-0.198
Mof_N 	N 	0.61637	0.19102	0.85023	-0.198
Mof_N 	N 	0.14977	0.11637	0.30898	-0.198
Mof_N 	N 	0.64977	0.38363	0.69102	-0.198
Mof_N 	N 	0.35023	0.88363	0.80898	-0.198
Mof_N 	N 	0.85023	0.61637	0.19102	-0.198
Mof_N 	N 	0.30898	0.14977	0.11637	-0.198
Mof_N 	N 	0.69102	0.64977	0.38363	-0.198
Mof_N 	N 	0.80898	0.35023	0.88363	-0.198
Mof_N 	N 	0.19102	0.85023	0.61637	-0.198
Mof_N 	N 	0.88363	0.69102	0.85023	-0.198
Mof_N 	N 	0.61637	0.30898	0.35023	-0.198
Mof_N 	N 	0.11637	0.19102	0.64977	-0.198
Mof_N 	N 	0.38363	0.80898	0.14977	-0.198
Mof_N 	N 	0.85023	0.88363	0.69102	-0.198
Mof_N 	N 	0.35023	0.61637	0.30898	-0.198
Mof_N 	N 	0.64977	0.11637	0.19102	-0.198
Mof_N 	N 	0.14977	0.38363	0.80898	-0.198
Mof_N 	N 	0.69102	0.85023	0.88363	-0.198
Mof_N 	N 	0.30898	0.35023	0.61637	-0.198
Mof_N 	N 	0.19102	0.64977	0.11637	-0.198
Mof_N 	N 	0.80898	0.14977	0.38363	-0.198
Mof_N 	N 	0.09958	0.27316	0.20315	-0.209
Mof_N 	N 	0.40042	0.72684	0.70315	-0.209
Mof_N 	N 	0.90042	0.77316	0.29685	-0.209
Mof_N 	N 	0.59958	0.22684	0.79685	-0.209
Mof_N 	N 	0.20315	0.09958	0.27316	-0.209
Mof_N 	N 	0.70315	0.40042	0.72684	-0.209
Mof_N 	N 	0.29685	0.90042	0.77316	-0.209
Mof_N 	N 	0.79685	0.59958	0.22684	-0.209
Mof_N 	N 	0.27316	0.20315	0.09958	-0.209
Mof_N 	N 	0.72684	0.70315	0.40042	-0.209
Mof_N 	N 	0.77316	0.29685	0.90042	-0.209
Mof_N 	N 	0.22684	0.79685	0.59958	-0.209
Mof_N 	N 	0.90042	0.72684	0.79685	-0.209
Mof_N 	N 	0.59958	0.27316	0.29685	-0.209
Mof_N 	N 	0.09958	0.22684	0.70315	-0.209
Mof_N 	N 	0.40042	0.77316	0.20315	-0.209
Mof_N 	N 	0.79685	0.90042	0.72684	-0.209
Mof_N 	N 	0.29685	0.59958	0.27316	-0.209
Mof_N 	N 	0.70315	0.09958	0.22684	-0.209
Mof_N 	N 	0.20315	0.40042	0.77316	-0.209
Mof_N 	N 	0.72684	0.79685	0.90042	-0.209
Mof_N 	N 	0.27316	0.29685	0.59958	-0.209
Mof_N 	N 	0.22684	0.70315	0.09958	-0.209
Mof_N 	N 	0.77316	0.20315	0.40042	-0.209
Mof_N 	N 	0.06549	0.35891	0.1678	-0.203
Mof_N 	N 	0.43451	0.64109	0.6678	-0.203
Mof_N 	N 	0.93451	0.85891	0.3322	-0.203
Mof_N 	N 	0.56549	0.14109	0.8322	-0.203
Mof_N 	N 	0.1678	0.06549	0.35891	-0.203
Mof_N 	N 	0.6678	0.43451	0.64109	-0.203
Mof_N 	N 	0.3322	0.93451	0.85891	-0.203
Mof_N 	N 	0.8322	0.56549	0.14109	-0.203
Mof_N 	N 	0.35891	0.1678	0.06549	-0.203
Mof_N 	N 	0.64109	0.6678	0.43451	-0.203
Mof_N 	N 	0.85891	0.3322	0.93451	-0.203
Mof_N 	N 	0.14109	0.8322	0.56549	-0.203
Mof_N 	N 	0.93451	0.64109	0.8322	-0.203
Mof_N 	N 	0.56549	0.35891	0.3322	-0.203
Mof_N 	N 	0.06549	0.14109	0.6678	-0.203
Mof_N 	N 	0.43451	0.85891	0.1678	-0.203
Mof_N 	N 	0.8322	0.93451	0.64109	-0.203
Mof_N 	N 	0.3322	0.56549	0.35891	-0.203
Mof_N 	N 	0.6678	0.06549	0.14109	-0.203
Mof_N 	N 	0.1678	0.43451	0.85891	-0.203
Mof_N 	N 	0.64109	0.8322	0.93451	-0.203
Mof_N 	N 	0.35891	0.3322	0.56549	-0.203
Mof_N 	N 	0.14109	0.6678	0.06549	-0.203
Mof_N 	N 	0.85891	0.1678	0.43451	-0.203
Mof_N 	N 	0.04936	0.32259	0.22142	-0.207
Mof_N 	N 	0.45064	0.67741	0.72142	-0.207
Mof_N 	N 	0.95064	0.82259	0.27858	-0.207
Mof_N 	N 	0.54936	0.17741	0.77858	-0.207
Mof_N 	N 	0.22142	0.04936	0.32259	-0.207
Mof_N 	N 	0.72142	0.45064	0.67741	-0.207
Mof_N 	N 	0.27858	0.95064	0.82259	-0.207
Mof_N 	N 	0.77858	0.54936	0.17741	-0.207
Mof_N 	N 	0.32259	0.22142	0.04936	-0.207
Mof_N 	N 	0.67741	0.72142	0.45064	-0.207
Mof_N 	N 	0.82259	0.27858	0.95064	-0.207
Mof_N 	N 	0.17741	0.77858	0.54936	-0.207
Mof_N 	N 	0.95064	0.67741	0.77858	-0.207
Mof_N 	N 	0.54936	0.32259	0.27858	-0.207
Mof_N 	N 	0.04936	0.17741	0.72142	-0.207
Mof_N 	N 	0.45064	0.82259	0.22142	-0.207
Mof_N 	N 	0.77858	0.95064	0.67741	-0.207
Mof_N 	N 	0.27858	0.54936	0.32259	-0.207
Mof_N 	N 	0.72142	0.04936	0.17741	-0.207
Mof_N 	N 	0.22142	0.45064	0.82259	-0.207
Mof_N 	N 	0.67741	0.77858	0.95064	-0.207
Mof_N 	N 	0.32259	0.27858	0.54936	-0.207
Mof_N 	N 	0.17741	0.72142	0.04936	-0.207
Mof_N 	N 	0.82259	0.22142	0.45064	-0.207
Mof_O 	O 	0.07008	0.1722	0.18047	-0.835
Mof_O 	O 	0.42992	0.8278	0.68047	-0.835
Mof_O 	O 	0.92992	0.6722	0.31953	-0.835
Mof_O 	O 	0.57008	0.3278	0.81953	-0.835
Mof_O 	O 	0.18047	0.07008	0.1722	-0.835
Mof_O 	O 	0.68047	0.42992	0.8278	-0.835
Mof_O 	O 	0.31953	0.92992	0.6722	-0.835
Mof_O 	O 	0.81953	0.57008	0.3278	-0.835
Mof_O 	O 	0.1722	0.18047	0.07008	-0.835
Mof_O 	O 	0.8278	0.68047	0.42992	-0.835
Mof_O 	O 	0.6722	0.31953	0.92992	-0.835
Mof_O 	O 	0.3278	0.81953	0.57008	-0.835
Mof_O 	O 	0.92992	0.8278	0.81953	-0.835
Mof_O 	O 	0.57008	0.1722	0.31953	-0.835
Mof_O 	O 	0.07008	0.3278	0.68047	-0.835
Mof_O 	O 	0.42992	0.6722	0.18047	-0.835
Mof_O 	O 	0.81953	0.92992	0.8278	-0.835
Mof_O 	O 	0.31953	0.57008	0.1722	-0.835
Mof_O 	O 	0.68047	0.07008	0.3278	-0.835
Mof_O 	O 	0.18047	0.42992	0.6722	-0.835
Mof_O 	O 	0.8278	0.81953	0.92992	-0.835
Mof_O 	O 	0.1722	0.31953	0.57008	-0.835
Mof_O 	O 	0.3278	0.68047	0.07008	-0.835
Mof_O 	O 	0.6722	0.18047	0.42992	-0.835
Mof_O 	O 	0.02037	0.14037	0.11054	-0.627
Mof_O 	O 	0.47963	0.85963	0.61054	-0.627
Mof_O 	O 	0.97963	0.64037	0.38946	-0.627
Mof_O 	O 	0.52037	0.35963	0.88946	-0.627
Mof_O 	O 	0.11054	0.02037	0.14037	-0.627
Mof_O 	O 	0.61054	0.47963	0.85963	-0.627
Mof_O 	O 	0.38946	0.97963	0.64037	-0.627
Mof_O 	O 	0.88946	0.52037	0.35963	-0.627
Mof_O 	O 	0.14037	0.11054	0.02037	-0.627
Mof_O 	O 	0.85963	0.61054	0.47963	-0.627
Mof_O 	O 	0.64037	0.38946	0.97963	-0.627
Mof_O 	O 	0.35963	0.88946	0.52037	-0.627
Mof_O 	O 	0.97963	0.85963	0.88946	-0.627
Mof_O 	O 	0.52037	0.14037	0.38946	-0.627
Mof_O 	O 	0.02037	0.35963	0.61054	-0.627
Mof_O 	O 	0.47963	0.64037	0.11054	-0.627
Mof_O 	O 	0.88946	0.97963	0.85963	-0.627
Mof_O 	O 	0.38946	0.52037	0.14037	-0.627
Mof_O 	O 	0.61054	0.02037	0.35963	-0.627
Mof_O 	O 	0.11054	0.47963	0.64037	-0.627
Mof_O 	O 	0.85963	0.88946	0.97963	-0.627
Mof_O 	O 	0.14037	0.38946	0.52037	-0.627
Mof_O 	O 	0.35963	0.61054	0.02037	-0.627
Mof_O 	O 	0.64037	0.11054	0.47963	-0.627
Mof_O 	O 	0.04266	0.19218	0.03264	-0.583
Mof_O 	O 	0.45734	0.80782	0.53264	-0.583
Mof_O 	O 	0.95734	0.69218	0.46736	-0.583
Mof_O 	O 	0.54266	0.30782	0.96736	-0.583
Mof_O 	O 	0.03264	0.04266	0.19218	-0.583
Mof_O 	O 	0.53264	0.45734	0.80782	-0.583
Mof_O 	O 	0.46736	0.95734	0.69218	-0.583
Mof_O 	O 	0.96736	0.54266	0.30782	-0.583
Mof_O 	O 	0.19218	0.03264	0.04266	-0.583
Mof_O 	O 	0.80782	0.53264	0.45734	-0.583
Mof_O 	O 	0.69218	0.46736	0.95734	-0.583
Mof_O 	O 	0.30782	0.96736	0.54266	-0.583
Mof_O 	O 	0.95734	0.80782	0.96736	-0.583
Mof_O 	O 	0.54266	0.19218	0.46736	-0.583
Mof_O 	O 	0.04266	0.30782	0.53264	-0.583
Mof_O 	O 	0.45734	0.69218	0.03264	-0.583
Mof_O 	O 	0.96736	0.95734	0.80782	-0.583
Mof_O 	O 	0.46736	0.54266	0.19218	-0.583
Mof_O 	O 	0.53264	0.04266	0.30782	-0.583
Mof_O 	O 	0.03264	0.45734	0.69218	-0.583
Mof_O 	O 	0.80782	0.96736	0.95734	-0.583
Mof_O 	O 	0.19218	0.46736	0.54266	-0.583
Mof_O 	O 	0.30782	0.53264	0.04266	-0.583
Mof_O 	O 	0.69218	0.03264	0.45734	-0.583
Mof_O 	O 	0.10763	0.25185	0.05836	-0.584
Mof_O 	O 	0.39237	0.74815	0.55836	-0.584
Mof_O 	O 	0.89237	0.75185	0.44164	-0.584
Mof_O 	O 	0.60763	0.24815	0.94164	-0.584
Mof_O 	O 	0.05836	0.10763	0.25185	-0.584
Mof_O 	O 	0.55836	0.39237	0.74815	-0.584
Mof_O 	O 	0.44164	0.89237	0.75185	-0.584
Mof_O 	O 	0.94164	0.60763	0.24815	-0.584
Mof_O 	O 	0.25185	0.05836	0.10763	-0.584
Mof_O 	O 	0.74815	0.55836	0.39237	-0.584
Mof_O 	O 	0.75185	0.44164	0.89237	-0.584
Mof_O 	O 	0.24815	0.94164	0.60763	-0.584
Mof_O 	O 	0.89237	0.74815	0.94164	-0.584
Mof_O 	O 	0.60763	0.25185	0.44164	-0.584
Mof_O 	O 	0.10763	0.24815	0.55836	-0.584
Mof_O 	O 	0.39237	0.75185	0.05836	-0.584
Mof_O 	O 	0.94164	0.89237	0.74815	-0.584
Mof_O 	O 	0.44164	0.60763	0.25185	-0.584
Mof_O 	O 	0.55836	0.10763	0.24815	-0.584
Mof_O 	O 	0.05836	0.39237	0.75185	-0.584
Mof_O 	O 	0.74815	0.94164	0.89237	-0.584
Mof_O 	O 	0.25185	0.44164	0.60763	-0.584
Mof_O 	O 	0.24815	0.55836	0.10763	-0.584
Mof_O 	O 	0.75185	0.05836	0.39237	-0.584
Mof_O 	O 	0.12802	0.24131	0.1489	-0.533
Mof_O 	O 	0.37198	0.75869	0.6489	-0.533
Mof_O 	O 	0.87198	0.74131	0.3511	-0.533
Mof_O 	O 	0.62802	0.25869	0.8511	-0.533
Mof_O 	O 	0.1489	0.12802	0.24131	-0.533
Mof_O 	O 	0.6489	0.37198	0.75869	-0.533
Mof_O 	O 	0.3511	0.87198	0.74131	-0.533
Mof_O 	O 	0.8511	0.62802	0.25869	-0.533
Mof_O 	O 	0.24131	0.1489	0.12802	-0.533
Mof_O 	O 	0.75869	0.6489	0.37198	-0.533
Mof_O 	O 	0.74131	0.3511	0.87198	-0.533
Mof_O 	O 	0.25869	0.8511	0.62802	-0.533
Mof_O 	O 	0.87198	0.75869	0.8511	-0.533
Mof_O 	O 	0.62802	0.24131	0.3511	-0.533
Mof_O 	O 	0.12802	0.25869	0.6489	-0.533
Mof_O 	O 	0.37198	0.74131	0.1489	-0.533
Mof_O 	O 	0.8511	0.87198	0.75869	-0.533
Mof_O 	O 	0.3511	0.62802	0.24131	-0.533
Mof_O 	O 	0.6489	0.12802	0.25869	-0.533
Mof_O 	O 	0.1489	0.37198	0.74131	-0.533
Mof_O 	O 	0.75869	0.8511	0.87198	-0.533
Mof_O 	O 	0.24131	0.3511	0.62802	-0.533
Mof_O 	O 	0.25869	0.6489	0.12802	-0.533
Mof_O 	O 	0.74131	0.1489	0.37198	-0.533
Mof_O 	O 	0.94528	0.29352	0.22505	-0.557
Mof_O 	O 	0.55472	0.70648	0.72505	-0.558
Mof_O 	O 	0.05472	0.79352	0.27495	-0.558
Mof_O 	O 	0.44528	0.20648	0.77495	-0.558
Mof_O 	O 	0.22505	0.94528	0.29352	-0.557
Mof_O 	O 	0.72505	0.55472	0.70648	-0.558
Mof_O 	O 	0.27495	0.05472	0.79352	-0.558
Mof_O 	O 	0.77495	0.44528	0.20648	-0.558
Mof_O 	O 	0.29352	0.22505	0.94528	-0.557
Mof_O 	O 	0.70648	0.72505	0.55472	-0.558
Mof_O 	O 	0.79352	0.27495	0.05472	-0.558
Mof_O 	O 	0.20648	0.77495	0.44528	-0.558
Mof_O 	O 	0.05472	0.70648	0.77495	-0.557
Mof_O 	O 	0.44528	0.29352	0.27495	-0.558
Mof_O 	O 	0.94528	0.20648	0.72505	-0.558
Mof_O 	O 	0.55472	0.79352	0.22505	-0.558
Mof_O 	O 	0.77495	0.05472	0.70648	-0.557
Mof_O 	O 	0.27495	0.44528	0.29352	-0.558
Mof_O 	O 	0.72505	0.94528	0.20648	-0.558
Mof_O 	O 	0.22505	0.55472	0.79352	-0.558
Mof_O 	O 	0.70648	0.77495	0.05472	-0.557
Mof_O 	O 	0.29352	0.27495	0.44528	-0.558
Mof_O 	O 	0.20648	0.72505	0.94528	-0.558
Mof_O 	O 	0.79352	0.22505	0.55472	-0.558
Mof_O 	O 	0.89209	0.26398	0.15368	-0.601
Mof_O 	O 	0.60791	0.73602	0.65368	-0.601
Mof_O 	O 	0.10791	0.76398	0.34632	-0.601
Mof_O 	O 	0.39209	0.23602	0.84632	-0.601
Mof_O 	O 	0.15368	0.89209	0.26398	-0.601
Mof_O 	O 	0.65368	0.60791	0.73602	-0.601
Mof_O 	O 	0.34632	0.10791	0.76398	-0.601
Mof_O 	O 	0.84632	0.39209	0.23602	-0.601
Mof_O 	O 	0.26398	0.15368	0.89209	-0.601
Mof_O 	O 	0.73602	0.65368	0.60791	-0.601
Mof_O 	O 	0.76398	0.34632	0.10791	-0.601
Mof_O 	O 	0.23602	0.84632	0.39209	-0.601
Mof_O 	O 	0.10791	0.73602	0.84632	-0.601
Mof_O 	O 	0.39209	0.26398	0.34632	-0.601
Mof_O 	O 	0.89209	0.23602	0.65368	-0.601
Mof_O 	O 	0.60791	0.76398	0.15368	-0.601
Mof_O 	O 	0.84632	0.10791	0.73602	-0.601
Mof_O 	O 	0.34632	0.39209	0.26398	-0.601
Mof_O 	O 	0.65368	0.89209	0.23602	-0.601
Mof_O 	O 	0.15368	0.60791	0.76398	-0.601
Mof_O 	O 	0.73602	0.84632	0.10791	-0.601
Mof_O 	O 	0.26398	0.34632	0.39209	-0.601
Mof_O 	O 	0.23602	0.65368	0.89209	-0.601
Mof_O 	O 	0.76398	0.15368	0.60791	-0.601
Mof_O 	O 	0.91705	0.31172	0.07753	-0.876
Mof_O 	O 	0.58295	0.68828	0.57753	-0.876
Mof_O 	O 	0.08295	0.81172	0.42247	-0.876
Mof_O 	O 	0.41705	0.18828	0.92247	-0.876
Mof_O 	O 	0.07753	0.91705	0.31172	-0.876
Mof_O 	O 	0.57753	0.58295	0.68828	-0.876
Mof_O 	O 	0.42247	0.08295	0.81172	-0.876
Mof_O 	O 	0.92247	0.41705	0.18828	-0.876
Mof_O 	O 	0.31172	0.07753	0.91705	-0.876
Mof_O 	O 	0.68828	0.57753	0.58295	-0.876
Mof_O 	O 	0.81172	0.42247	0.08295	-0.876
Mof_O 	O 	0.18828	0.92247	0.41705	-0.876
Mof_O 	O 	0.08295	0.68828	0.92247	-0.876
Mof_O 	O 	0.41705	0.31172	0.42247	-0.876
Mof_O 	O 	0.91705	0.18828	0.57753	-0.876
Mof_O 	O 	0.58295	0.81172	0.07753	-0.876
Mof_O 	O 	0.92247	0.08295	0.68828	-0.876
Mof_O 	O 	0.42247	0.41705	0.31172	-0.876
Mof_O 	O 	0.57753	0.91705	0.18828	-0.876
Mof_O 	O 	0.07753	0.58295	0.81172	-0.876
Mof_O 	O 	0.68828	0.92247	0.08295	-0.876
Mof_O 	O 	0.31172	0.42247	0.41705	-0.876
Mof_O 	O 	0.18828	0.57753	0.91705	-0.876
Mof_O 	O 	0.81172	0.07753	0.58295	-0.876
Mof_O 	O 	0.98147	0.37506	0.10105	-0.557
Mof_O 	O 	0.51853	0.62494	0.60105	-0.557
Mof_O 	O 	0.01853	0.87506	0.39895	-0.557
Mof_O 	O 	0.48147	0.12494	0.89895	-0.557
Mof_O 	O 	0.10105	0.98147	0.37506	-0.557
Mof_O 	O 	0.60105	0.51853	0.62494	-0.557
Mof_O 	O 	0.39895	0.01853	0.87506	-0.557
Mof_O 	O 	0.89895	0.48147	0.12494	-0.557
Mof_O 	O 	0.37506	0.10105	0.98147	-0.557
Mof_O 	O 	0.62494	0.60105	0.51853	-0.557
Mof_O 	O 	0.87506	0.39895	0.01853	-0.557
Mof_O 	O 	0.12494	0.89895	0.48147	-0.557
Mof_O 	O 	0.01853	0.62494	0.89895	-0.557
Mof_O 	O 	0.48147	0.37506	0.39895	-0.557
Mof_O 	O 	0.98147	0.12494	0.60105	-0.557
Mof_O 	O 	0.51853	0.87506	0.10105	-0.557
Mof_O 	O 	0.89895	0.01853	0.62494	-0.557
Mof_O 	O 	0.39895	0.48147	0.37506	-0.557
Mof_O 	O 	0.60105	0.98147	0.12494	-0.557
Mof_O 	O 	0.10105	0.51853	0.87506	-0.557
Mof_O 	O 	0.62494	0.89895	0.01853	-0.557
Mof_O 	O 	0.37506	0.39895	0.48147	-0.557
Mof_O 	O 	0.12494	0.60105	0.98147	-0.557
Mof_O 	O 	0.87506	0.10105	0.51853	-0.557
Mof_O 	O 	0.00067	0.36205	0.19212	-0.566
Mof_O 	O 	0.49933	0.63795	0.69212	-0.566
Mof_O 	O 	0.99933	0.86205	0.30788	-0.566
Mof_O 	O 	0.50067	0.13795	0.80788	-0.566
Mof_O 	O 	0.19212	0.00067	0.36205	-0.566
Mof_O 	O 	0.69212	0.49933	0.63795	-0.566
Mof_O 	O 	0.30788	0.99933	0.86205	-0.566
Mof_O 	O 	0.80788	0.50067	0.13795	-0.566
Mof_O 	O 	0.36205	0.19212	0.00067	-0.566
Mof_O 	O 	0.63795	0.69212	0.49933	-0.566
Mof_O 	O 	0.86205	0.30788	0.99933	-0.566
Mof_O 	O 	0.13795	0.80788	0.50067	-0.566
Mof_O 	O 	0.99933	0.63795	0.80788	-0.566
Mof_O 	O 	0.50067	0.36205	0.30788	-0.566
Mof_O 	O 	0.00067	0.13795	0.69212	-0.566
Mof_O 	O 	0.49933	0.86205	0.19212	-0.566
Mof_O 	O 	0.80788	0.99933	0.63795	-0.566
Mof_O 	O 	0.30788	0.50067	0.36205	-0.566
Mof_O 	O 	0.69212	0.00067	0.13795	-0.566
Mof_O 	O 	0.19212	0.49933	0.86205	-0.566
Mof_O 	O 	0.63795	0.80788	0.99933	-0.566
Mof_O 	O 	0.36205	0.30788	0.50067	-0.566
Mof_O 	O 	0.13795	0.69212	0.00067	-0.566
Mof_O 	O 	0.86205	0.19212	0.49933	-0.566
Mof_K 	K 	0.09164	0.18138	0.09758	3.278
Mof_K 	K 	0.40836	0.81862	0.59758	3.278
Mof_K 	K 	0.90836	0.68138	0.40242	3.278
Mof_K 	K 	0.59164	0.31862	0.90242	3.278
Mof_K 	K 	0.09758	0.09164	0.18138	3.278
Mof_K 	K 	0.59758	0.40836	0.81862	3.278
Mof_K 	K 	0.40242	0.90836	0.68138	3.278
Mof_K 	K 	0.90242	0.59164	0.31862	3.278
Mof_K 	K 	0.18138	0.09758	0.09164	3.278
Mof_K 	K 	0.81862	0.59758	0.40836	3.278
Mof_K 	K 	0.68138	0.40242	0.90836	3.278
Mof_K 	K 	0.31862	0.90242	0.59164	3.278
Mof_K 	K 	0.90836	0.81862	0.90242	3.278
Mof_K 	K 	0.59164	0.18138	0.40242	3.278
Mof_K 	K 	0.09164	0.31862	0.59758	3.278
Mof_K 	K 	0.40836	0.68138	0.09758	3.278
Mof_K 	K 	0.90242	0.90836	0.81862	3.278
Mof_K 	K 	0.40242	0.59164	0.18138	3.278
Mof_K 	K 	0.59758	0.09164	0.31862	3.278
Mof_K 	K 	0.09758	0.40836	0.68138	3.278
Mof_K 	K 	0.81862	0.90242	0.90836	3.278
Mof_K 	K 	0.18138	0.40242	0.59164	3.278
Mof_K 	K 	0.31862	0.59758	0.09164	3.278
Mof_K 	K 	0.68138	0.09758	0.40836	3.278
Mof_K 	K 	0.92911	0.34018	0.15565	3.285
Mof_K 	K 	0.57089	0.65982	0.65565	3.286
Mof_K 	K 	0.07089	0.84018	0.34435	3.286
Mof_K 	K 	0.42911	0.15982	0.84435	3.286
Mof_K 	K 	0.15565	0.92911	0.34018	3.285
Mof_K 	K 	0.65565	0.57089	0.65982	3.286
Mof_K 	K 	0.34435	0.07089	0.84018	3.286
Mof_K 	K 	0.84435	0.42911	0.15982	3.286
Mof_K 	K 	0.34018	0.15565	0.92911	3.285
Mof_K 	K 	0.65982	0.65565	0.57089	3.286
Mof_K 	K 	0.84018	0.34435	0.07089	3.286
Mof_K 	K 	0.15982	0.84435	0.42911	3.286
Mof_K 	K 	0.07089	0.65982	0.84435	3.285
Mof_K 	K 	0.42911	0.34018	0.34435	3.286
Mof_K 	K 	0.92911	0.15982	0.65565	3.286
Mof_K 	K 	0.57089	0.84018	0.15565	3.286
Mof_K 	K 	0.84435	0.07089	0.65982	3.285
Mof_K 	K 	0.34435	0.42911	0.34018	3.286
Mof_K 	K 	0.65565	0.92911	0.15982	3.286
Mof_K 	K 	0.15565	0.57089	0.84018	3.286
Mof_K 	K 	0.65982	0.84435	0.07089	3.285
Mof_K 	K 	0.34018	0.34435	0.42911	3.286
Mof_K 	K 	0.15982	0.65565	0.92911	3.286
Mof_K 	K 	0.84018	0.15565	0.57089	3.286
Mof_O 	O 	0.90041	0.40041	0.09959	-0.812
Mof_O 	O 	0.59959	0.59959	0.59959	-0.812
Mof_O 	O 	0.09959	0.90041	0.40041	-0.812
Mof_O 	O 	0.40041	0.09959	0.90041	-0.812
Mof_O 	O 	0.09959	0.59959	0.90041	-0.812
Mof_O 	O 	0.40041	0.40041	0.40041	-0.812
Mof_O 	O 	0.90041	0.09959	0.59959	-0.812
Mof_O 	O 	0.59959	0.90041	0.09959	-0.812
Mof_O 	O 	0.84116	0.34116	0.15884	-0.892
Mof_O 	O 	0.65884	0.65884	0.65884	-0.892
Mof_O 	O 	0.15884	0.84116	0.34116	-0.892
Mof_O 	O 	0.34116	0.15884	0.84116	-0.892
Mof_O 	O 	0.15884	0.65884	0.84116	-0.892
Mof_O 	O 	0.34116	0.34116	0.34116	-0.892
Mof_O 	O 	0.84116	0.15884	0.65884	-0.892
Mof_O 	O 	0.65884	0.84116	0.15884	-0.892
Mof_O 	O 	0.15904	0.15904	0.15904	-0.653
Mof_O 	O 	0.34096	0.84096	0.65904	-0.653
Mof_O 	O 	0.84096	0.65904	0.34096	-0.653
Mof_O 	O 	0.65904	0.34096	0.84096	-0.653
Mof_O 	O 	0.84096	0.84096	0.84096	-0.653
Mof_O 	O 	0.65904	0.15904	0.34096	-0.653
Mof_O 	O 	0.15904	0.34096	0.65904	-0.653
Mof_O 	O 	0.34096	0.65904	0.15904	-0.653
Mof_O 	O 	0.09761	0.09761	0.09761	-1.003
Mof_O 	O 	0.40239	0.90239	0.59761	-1.003
Mof_O 	O 	0.90239	0.59761	0.40239	-1.003
Mof_O 	O 	0.59761	0.40239	0.90239	-1.003
Mof_O 	O 	0.90239	0.90239	0.90239	-1.003
Mof_O 	O 	0.59761	0.09761	0.40239	-1.003
Mof_O 	O 	0.09761	0.40239	0.59761	-1.003
Mof_O 	O 	0.40239	0.59761	0.09761	-1.003
_end
