data_functionalizedCrystal
_audit_creation_method	'EQeq! by Chris Wilmer'
_symmetry_space_group_name_H-M	'P1'
_symmetry_Int_Tables_number	1
_symmetry_cell_setting	triclinic
loop_
_symmetry_equiv_pos_as_xyz
  x,y,z
_cell_length_a	7.286
_cell_length_b	10.79
_cell_length_c	11.61
_cell_angle_alpha	90
_cell_angle_beta	90
_cell_angle_gamma	90
loop_
_atom_site_label
_atom_site_type_symbol
_atom_site_fract_x
_atom_site_fract_y
_atom_site_fract_z
_atom_site_charge
Mof_Cd	Cd	0.6391	0.8164	0.7091	0.431
Mof_Cd	Cd	0.1391	0.1836	0.7909	0.431
Mof_Cd	Cd	0.8609	0.3164	0.2909	0.43
Mof_Cd	Cd	0.3609	0.6836	0.2091	0.43
Mof_H 	H 	0.0655	0.2014	0.5587	0.113
Mof_H 	H 	0.9364	0.0993	0.6066	0.126
Mof_H 	H 	0.0898	0.9714	0.5154	0.063
Mof_H 	H 	0.3833	0.0117	0.4301	0.043
Mof_H 	H 	0.2364	0.1332	0.4062	0.044
Mof_H 	H 	0.3843	0.2493	0.5568	0.103
Mof_H 	H 	0.5307	0.1277	0.5813	0.114
Mof_H 	H 	0.5655	0.7986	0.9413	0.113
Mof_H 	H 	0.4364	0.9007	0.8934	0.126
Mof_H 	H 	0.5898	0.0286	0.9846	0.063
Mof_H 	H 	0.8833	0.9883	0.0699	0.043
Mof_H 	H 	0.7364	0.8668	0.0938	0.044
Mof_H 	H 	0.8843	0.7507	0.9432	0.103
Mof_H 	H 	0.0307	0.8723	0.9187	0.112
Mof_H 	H 	0.4345	0.7014	0.4413	0.113
Mof_H 	H 	0.5636	0.5993	0.3934	0.126
Mof_H 	H 	0.4102	0.4714	0.4846	0.064
Mof_H 	H 	0.1167	0.5117	0.5699	0.043
Mof_H 	H 	0.2636	0.6332	0.5938	0.044
Mof_H 	H 	0.1157	0.7493	0.4432	0.103
Mof_H 	H 	0.9693	0.6277	0.4187	0.113
Mof_H 	H 	0.9345	0.2986	0.0587	0.113
Mof_H 	H 	0.0636	0.4007	0.1066	0.128
Mof_H 	H 	0.9102	0.5286	0.0154	0.063
Mof_H 	H 	0.6167	0.4883	0.9301	0.043
Mof_H 	H 	0.7636	0.3668	0.9062	0.044
Mof_H 	H 	0.6157	0.2507	0.0568	0.103
Mof_H 	H 	0.4693	0.3723	0.0813	0.114
Mof_C 	C 	0.1805	0.0326	0.5567	-0.087
Mof_C 	C 	0.2853	0.9631	0.6498	0.305
Mof_C 	C 	0.313	0.0857	0.4689	0.004
Mof_C 	C 	0.4546	0.1751	0.5184	-0.243
Mof_C 	C 	0.5874	0.2275	0.4308	0.337
Mof_C 	C 	0.6805	0.9674	0.9433	-0.085
Mof_C 	C 	0.7853	0.0369	0.8502	0.304
Mof_C 	C 	0.813	0.9143	0.0311	0.001
Mof_C 	C 	0.9546	0.8249	0.9816	-0.24
Mof_C 	C 	0.0874	0.7725	0.0692	0.336
Mof_C 	C 	0.3195	0.5326	0.4433	-0.088
Mof_C 	C 	0.2147	0.4631	0.3502	0.305
Mof_C 	C 	0.187	0.5857	0.5311	0.004
Mof_C 	C 	0.0454	0.6751	0.4816	-0.242
Mof_C 	C 	0.9126	0.7275	0.5692	0.336
Mof_C 	C 	0.8195	0.4674	0.0567	-0.087
Mof_C 	C 	0.7147	0.5369	0.1498	0.305
Mof_C 	C 	0.687	0.4143	0.9689	0.003
Mof_C 	C 	0.5454	0.3249	0.0184	-0.241
Mof_C 	C 	0.4126	0.2725	0.9308	0.335
Mof_N 	N 	0.0588	0.1296	0.606	-0.224
Mof_N 	N 	0.5588	0.8704	0.894	-0.225
Mof_N 	N 	0.4412	0.6296	0.394	-0.224
Mof_N 	N 	0.9412	0.3704	0.106	-0.226
Mof_O 	O 	0.2787	0.9981	0.7531	-0.279
Mof_O 	O 	0.3826	0.8729	0.6145	-0.284
Mof_O 	O 	0.7243	0.288	0.4692	-0.283
Mof_O 	O 	0.5651	0.213	0.3248	-0.281
Mof_O 	O 	0.7787	0.0019	0.7469	-0.279
Mof_O 	O 	0.8826	0.1271	0.8855	-0.284
Mof_O 	O 	0.2243	0.712	0.0308	-0.283
Mof_O 	O 	0.0651	0.787	0.1752	-0.281
Mof_O 	O 	0.2213	0.4981	0.2469	-0.279
Mof_O 	O 	0.1174	0.3729	0.3855	-0.284
Mof_O 	O 	0.7757	0.788	0.5308	-0.283
Mof_O 	O 	0.9349	0.713	0.6752	-0.281
Mof_O 	O 	0.7213	0.5019	0.2531	-0.279
Mof_O 	O 	0.6174	0.6271	0.1145	-0.284
Mof_O 	O 	0.2757	0.212	0.9692	-0.284
Mof_O 	O 	0.4349	0.287	0.8248	-0.281
_end
