data_functionalizedCrystal
_audit_creation_method	'EQeq! by Chris Wilmer'
_symmetry_space_group_name_H-M	'P1'
_symmetry_Int_Tables_number	1
_symmetry_cell_setting	triclinic
loop_
_symmetry_equiv_pos_as_xyz
  x,y,z
_cell_length_a	30.404
_cell_length_b	19.657
_cell_length_c	19.683
_cell_angle_alpha	90
_cell_angle_beta	127.63
_cell_angle_gamma	90
loop_
_atom_site_label
_atom_site_type_symbol
_atom_site_fract_x
_atom_site_fract_y
_atom_site_fract_z
_atom_site_charge
Mof_W 	W 	0.23458	0.44484	0.21149	0.462
Mof_S 	S 	0.17066	0.4833	0.22486	-0.418
Mof_S 	S 	0.31284	0.47494	0.33855	-0.416
Mof_S 	S 	0.23124	0.32716	0.21965	-0.564
Mof_Cu	Cu	0.18039	0.3739	0.25343	0.786
Mof_Cu	Cu	0.29626	0.36841	0.34955	0.785
Mof_Cu	Cu	0.09471	0.25377	0.37022	0.834
Mof_B 	B 	0.2254	0.5083	0.0425	1.548
Mof_H 	H 	0.224	0.529	0.995	-0.588
Mof_N 	N 	0.1683	0.4367	0.0677	-0.167
Mof_N 	N 	0.1704	0.4745	0.0107	-0.426
Mof_N 	N 	0.2368	0.5525	0.1738	-0.175
Mof_N 	N 	0.2385	0.565	0.1052	-0.428
Mof_N 	N 	0.2855	0.4261	0.1642	-0.171
Mof_N 	N 	0.2729	0.4563	0.0904	-0.427
Mof_N 	N 	0.0662	0.3354	0.4083	-0.233
Mof_C 	C 	0.1163	0.4059	0.0166	0.329
Mof_C 	C 	0.0879	0.4261	0.9325	-0.43
Mof_H 	H 	0.0517	0.4137	0.8857	0.161
Mof_C 	C 	0.1243	0.4689	0.9313	0.4
Mof_C 	C 	0.0949	0.3598	0.0512	-0.712
Mof_H 	H 	0.1166	0.3182	0.0722	0.206
Mof_H 	H 	0.0563	0.349	0.006	0.223
Mof_H 	H 	0.0981	0.3824	0.0979	0.183
Mof_C 	C 	0.1139	0.5054	0.8561	-0.797
Mof_H 	H 	0.1146	0.5541	0.8647	0.235
Mof_H 	H 	0.0778	0.4924	0.8044	0.242
Mof_H 	H 	0.1425	0.4934	0.8505	0.233
Mof_C 	C 	0.2464	0.6131	0.2111	0.389
Mof_C 	C 	0.2529	0.6609	0.17	-0.52
Mof_H 	H 	0.2587	0.7074	0.1837	0.174
Mof_C 	C 	0.2497	0.6313	0.106	0.427
Mof_C 	C 	0.2423	0.6268	0.2852	-0.774
Mof_H 	H 	0.2048	0.6177	0.2652	0.246
Mof_H 	H 	0.2516	0.674	0.3031	0.244
Mof_H 	H 	0.268	0.5973	0.3334	0.242
Mof_C 	C 	0.255	0.6627	0.042	-0.766
Mof_H 	H 	0.2764	0.6329	0.033	0.208
Mof_H 	H 	0.2737	0.7063	0.0634	0.207
Mof_H 	H 	0.2183	0.6694	0.9881	0.204
Mof_C 	C 	0.3317	0.3864	0.195	0.333
Mof_C 	C 	0.3473	0.3945	0.1411	-0.448
Mof_H 	H 	0.378	0.3745	0.1481	0.161
Mof_C 	C 	0.3088	0.4372	0.0766	0.412
Mof_C 	C 	0.3624	0.3461	0.2755	-0.736
Mof_H 	H 	0.3744	0.3758	0.3233	0.197
Mof_H 	H 	0.3946	0.3252	0.2848	0.222
Mof_H 	H 	0.3384	0.3109	0.2709	0.203
Mof_C 	C 	0.3074	0.4645	0.0049	-0.803
Mof_H 	H 	0.2739	0.4492	0.9507	0.23
Mof_H 	H 	0.3396	0.4484	0.0105	0.239
Mof_H 	H 	0.3079	0.5139	0.0069	0.22
Mof_C 	C 	0.014	0.3609	0.3578	0.066
Mof_H 	H 	0.9891	0.3447	0.3013	-0.035
Mof_C 	C 	0.9957	0.4105	0.3867	-0.162
Mof_H 	H 	0.9592	0.4272	0.3505	0.056
Mof_C 	C 	0.0342	0.4349	0.4727	0.094
Mof_C 	C 	0.0853	0.4065	0.5218	-0.163
Mof_H 	H 	0.1105	0.4201	0.5794	0.082
Mof_C 	C 	0.1019	0.3581	0.4904	0.06
Mof_H 	H 	0.1382	0.3407	0.5264	-0.022
Mof_C 	C 	0.0214	0.484	0.5179	-0.085
Mof_H 	H 	0.0483	0.49	0.5773	0.05
Mof_N 	N 	0.1299	0.2983	0.3243	-0.206
Mof_C 	C 	0.1469	0.3263	0.2937	-0.255
Mof_N 	N 	0.3595	0.2938	0.5186	-0.201
Mof_C 	C 	0.3362	0.3218	0.4545	-0.257
Mof_N 	N 	0.0231	0.213	0.2785	-0.211
Mof_C 	C 	0.9769	0.213	0.2215	-0.193
Mof_W 	W 	0.73458	0.94484	0.21149	0.464
Mof_S 	S 	0.67066	0.9833	0.22486	-0.416
Mof_S 	S 	0.81284	0.97494	0.33855	-0.415
Mof_S 	S 	0.73124	0.82716	0.21965	-0.565
Mof_Cu	Cu	0.68039	0.8739	0.25343	0.784
Mof_Cu	Cu	0.79626	0.86841	0.34955	0.784
Mof_Cu	Cu	0.59471	0.75377	0.37022	0.833
Mof_B 	B 	0.7254	0.0083	0.0425	1.499
Mof_H 	H 	0.724	0.029	0.995	-0.565
Mof_N 	N 	0.6683	0.9367	0.0677	-0.167
Mof_N 	N 	0.6704	0.9745	0.0107	-0.408
Mof_N 	N 	0.7368	0.0525	0.1738	-0.178
Mof_N 	N 	0.7385	0.065	0.1052	-0.424
Mof_N 	N 	0.7855	0.9261	0.1642	-0.169
Mof_N 	N 	0.7729	0.9563	0.0904	-0.412
Mof_N 	N 	0.5662	0.8354	0.4083	-0.233
Mof_C 	C 	0.6163	0.9059	0.0166	0.336
Mof_C 	C 	0.5879	0.9261	0.9325	-0.426
Mof_H 	H 	0.5517	0.9137	0.8857	0.158
Mof_C 	C 	0.6243	0.9689	0.9313	0.37
Mof_C 	C 	0.5949	0.8598	0.0512	-0.72
Mof_H 	H 	0.6166	0.8182	0.0722	0.209
Mof_H 	H 	0.5563	0.849	0.006	0.228
Mof_H 	H 	0.5981	0.8824	0.0979	0.186
Mof_C 	C 	0.6139	0.0054	0.8561	-0.725
Mof_H 	H 	0.6146	0.0541	0.8647	0.216
Mof_H 	H 	0.5778	0.9924	0.8044	0.218
Mof_H 	H 	0.6425	0.9934	0.8505	0.209
Mof_C 	C 	0.7464	0.1131	0.2111	0.39
Mof_C 	C 	0.7529	0.1609	0.17	-0.526
Mof_H 	H 	0.7587	0.2074	0.1837	0.176
Mof_C 	C 	0.7497	0.1313	0.106	0.435
Mof_C 	C 	0.7423	0.1268	0.2852	-0.775
Mof_H 	H 	0.7048	0.1177	0.2652	0.245
Mof_H 	H 	0.7516	0.174	0.3031	0.244
Mof_H 	H 	0.768	0.0973	0.3334	0.241
Mof_C 	C 	0.755	0.1627	0.042	-0.8
Mof_H 	H 	0.7764	0.1329	0.033	0.216
Mof_H 	H 	0.7737	0.2063	0.0634	0.215
Mof_H 	H 	0.7183	0.1694	0.9881	0.22
Mof_C 	C 	0.8317	0.8864	0.195	0.327
Mof_C 	C 	0.8473	0.8945	0.1411	-0.431
Mof_H 	H 	0.878	0.8745	0.1481	0.157
Mof_C 	C 	0.8088	0.9372	0.0766	0.388
Mof_C 	C 	0.8624	0.8461	0.2755	-0.73
Mof_H 	H 	0.8744	0.8758	0.3233	0.195
Mof_H 	H 	0.8946	0.8252	0.2848	0.221
Mof_H 	H 	0.8384	0.8109	0.2709	0.202
Mof_C 	C 	0.8074	0.9645	0.0049	-0.723
Mof_H 	H 	0.7739	0.9492	0.9507	0.202
Mof_H 	H 	0.8396	0.9484	0.0105	0.218
Mof_H 	H 	0.8079	0.0139	0.0069	0.19
Mof_C 	C 	0.514	0.8609	0.3578	0.065
Mof_H 	H 	0.4891	0.8447	0.3013	-0.033
Mof_C 	C 	0.4957	0.9105	0.3867	-0.161
Mof_H 	H 	0.4592	0.9272	0.3505	0.057
Mof_C 	C 	0.5342	0.9349	0.4727	0.094
Mof_C 	C 	0.5853	0.9065	0.5218	-0.162
Mof_H 	H 	0.6105	0.9201	0.5794	0.082
Mof_C 	C 	0.6019	0.8581	0.4904	0.06
Mof_H 	H 	0.6382	0.8407	0.5264	-0.022
Mof_C 	C 	0.5214	0.984	0.5179	-0.085
Mof_H 	H 	0.5483	0.99	0.5773	0.05
Mof_N 	N 	0.6299	0.7983	0.3243	-0.205
Mof_C 	C 	0.6469	0.8263	0.2937	-0.255
Mof_N 	N 	0.8595	0.7938	0.5186	-0.201
Mof_C 	C 	0.8362	0.8218	0.4545	-0.257
Mof_N 	N 	0.5231	0.713	0.2785	-0.211
Mof_C 	C 	0.4769	0.713	0.2215	-0.191
Mof_W 	W 	0.76542	0.44484	0.28851	0.461
Mof_S 	S 	0.82934	0.4833	0.27514	-0.42
Mof_S 	S 	0.68716	0.47494	0.16145	-0.417
Mof_S 	S 	0.76876	0.32716	0.28035	-0.565
Mof_Cu	Cu	0.81961	0.3739	0.24657	0.784
Mof_Cu	Cu	0.70374	0.36841	0.15045	0.784
Mof_Cu	Cu	0.90529	0.25377	0.12978	0.831
Mof_B 	B 	0.7746	0.5083	0.4575	1.546
Mof_H 	H 	0.776	0.529	0.505	-0.588
Mof_N 	N 	0.8317	0.4367	0.4323	-0.167
Mof_N 	N 	0.8296	0.4745	0.4893	-0.426
Mof_N 	N 	0.7632	0.5525	0.3262	-0.176
Mof_N 	N 	0.7615	0.565	0.3948	-0.428
Mof_N 	N 	0.7145	0.4261	0.3358	-0.171
Mof_N 	N 	0.7271	0.4563	0.4096	-0.426
Mof_N 	N 	0.9338	0.3354	0.0917	-0.231
Mof_C 	C 	0.8837	0.4059	0.4834	0.331
Mof_C 	C 	0.9121	0.4261	0.5675	-0.433
Mof_H 	H 	0.9483	0.4137	0.6143	0.162
Mof_C 	C 	0.8757	0.4689	0.5687	0.4
Mof_C 	C 	0.9051	0.3598	0.4488	-0.715
Mof_H 	H 	0.8834	0.3182	0.4278	0.207
Mof_H 	H 	0.9437	0.349	0.494	0.225
Mof_H 	H 	0.9019	0.3824	0.4021	0.184
Mof_C 	C 	0.8861	0.5054	0.6439	-0.797
Mof_H 	H 	0.8854	0.5541	0.6353	0.235
Mof_H 	H 	0.9222	0.4924	0.6956	0.242
Mof_H 	H 	0.8575	0.4934	0.6495	0.233
Mof_C 	C 	0.7536	0.6131	0.2889	0.39
Mof_C 	C 	0.7471	0.6609	0.33	-0.523
Mof_H 	H 	0.7413	0.7074	0.3163	0.175
Mof_C 	C 	0.7503	0.6313	0.394	0.431
Mof_C 	C 	0.7577	0.6268	0.2148	-0.776
Mof_H 	H 	0.7952	0.6177	0.2348	0.246
Mof_H 	H 	0.7484	0.674	0.1969	0.244
Mof_H 	H 	0.732	0.5973	0.1666	0.243
Mof_C 	C 	0.745	0.6627	0.458	-0.778
Mof_H 	H 	0.7236	0.6329	0.467	0.211
Mof_H 	H 	0.7263	0.7063	0.4366	0.21
Mof_H 	H 	0.7817	0.6694	0.5119	0.209
Mof_C 	C 	0.6683	0.3864	0.305	0.332
Mof_C 	C 	0.6527	0.3945	0.3589	-0.447
Mof_H 	H 	0.622	0.3745	0.3519	0.161
Mof_C 	C 	0.6912	0.4372	0.4234	0.411
Mof_C 	C 	0.6376	0.3461	0.2245	-0.735
Mof_H 	H 	0.6256	0.3758	0.1767	0.196
Mof_H 	H 	0.6054	0.3252	0.2152	0.222
Mof_H 	H 	0.6616	0.3109	0.2291	0.203
Mof_C 	C 	0.6926	0.4645	0.4951	-0.799
Mof_H 	H 	0.7261	0.4492	0.5493	0.229
Mof_H 	H 	0.6604	0.4484	0.4895	0.238
Mof_H 	H 	0.6921	0.5139	0.4931	0.219
Mof_C 	C 	0.986	0.3609	0.1422	0.059
Mof_H 	H 	0.0109	0.3447	0.1987	-0.032
Mof_C 	C 	0.0043	0.4105	0.1133	-0.155
Mof_H 	H 	0.0408	0.4272	0.1495	0.054
Mof_C 	C 	0.9658	0.4349	0.0273	0.086
Mof_C 	C 	0.9147	0.4065	0.9782	-0.15
Mof_H 	H 	0.8895	0.4201	0.9206	0.078
Mof_C 	C 	0.8981	0.3581	0.0096	0.048
Mof_H 	H 	0.8618	0.3407	0.9736	-0.016
Mof_C 	C 	0.9786	0.484	0.9821	-0.083
Mof_H 	H 	0.9517	0.49	0.9227	0.05
Mof_N 	N 	0.8701	0.2983	0.1757	-0.206
Mof_C 	C 	0.8531	0.3263	0.2063	-0.255
Mof_N 	N 	0.6405	0.2938	0.9814	-0.198
Mof_C 	C 	0.6638	0.3218	0.0455	-0.261
Mof_W 	W 	0.26542	0.94484	0.28851	0.461
Mof_S 	S 	0.32934	0.9833	0.27514	-0.415
Mof_S 	S 	0.18716	0.97494	0.16145	-0.412
Mof_S 	S 	0.26876	0.82716	0.28035	-0.565
Mof_Cu	Cu	0.31961	0.8739	0.24657	0.785
Mof_Cu	Cu	0.20374	0.86841	0.15045	0.784
Mof_Cu	Cu	0.40529	0.75377	0.12978	0.831
Mof_B 	B 	0.2746	0.0083	0.4575	1.544
Mof_H 	H 	0.276	0.029	0.505	-0.586
Mof_N 	N 	0.3317	0.9367	0.4323	-0.167
Mof_N 	N 	0.3296	0.9745	0.4893	-0.423
Mof_N 	N 	0.2632	0.0525	0.3262	-0.176
Mof_N 	N 	0.2615	0.065	0.3948	-0.428
Mof_N 	N 	0.2145	0.9261	0.3358	-0.171
Mof_N 	N 	0.2271	0.9563	0.4096	-0.426
Mof_N 	N 	0.4338	0.8354	0.0917	-0.239
Mof_C 	C 	0.3837	0.9059	0.4834	0.329
Mof_C 	C 	0.4121	0.9261	0.5675	-0.425
Mof_H 	H 	0.4483	0.9137	0.6143	0.159
Mof_C 	C 	0.3757	0.9689	0.5687	0.388
Mof_C 	C 	0.4051	0.8598	0.4488	-0.712
Mof_H 	H 	0.3834	0.8182	0.4278	0.207
Mof_H 	H 	0.4437	0.849	0.494	0.224
Mof_H 	H 	0.4019	0.8824	0.4021	0.183
Mof_C 	C 	0.3861	0.0054	0.6439	-0.763
Mof_H 	H 	0.3854	0.0541	0.6353	0.226
Mof_H 	H 	0.4222	0.9924	0.6956	0.23
Mof_H 	H 	0.3575	0.9934	0.6495	0.221
Mof_C 	C 	0.2536	0.1131	0.2889	0.389
Mof_C 	C 	0.2471	0.1609	0.33	-0.522
Mof_H 	H 	0.2413	0.2074	0.3163	0.175
Mof_C 	C 	0.2503	0.1313	0.394	0.43
Mof_C 	C 	0.2577	0.1268	0.2148	-0.774
Mof_H 	H 	0.2952	0.1177	0.2348	0.246
Mof_H 	H 	0.2484	0.174	0.1969	0.243
Mof_H 	H 	0.232	0.0973	0.1666	0.241
Mof_C 	C 	0.245	0.1627	0.458	-0.777
Mof_H 	H 	0.2236	0.1329	0.467	0.211
Mof_H 	H 	0.2263	0.2063	0.4366	0.21
Mof_H 	H 	0.2817	0.1694	0.5119	0.209
Mof_C 	C 	0.1683	0.8864	0.305	0.333
Mof_C 	C 	0.1527	0.8945	0.3589	-0.448
Mof_H 	H 	0.122	0.8745	0.3519	0.162
Mof_C 	C 	0.1912	0.9372	0.4234	0.412
Mof_C 	C 	0.1376	0.8461	0.2245	-0.737
Mof_H 	H 	0.1256	0.8758	0.1767	0.198
Mof_H 	H 	0.1054	0.8252	0.2152	0.223
Mof_H 	H 	0.1616	0.8109	0.2291	0.204
Mof_C 	C 	0.1926	0.9645	0.4951	-0.801
Mof_H 	H 	0.2261	0.9492	0.5493	0.229
Mof_H 	H 	0.1604	0.9484	0.4895	0.238
Mof_H 	H 	0.1921	0.0139	0.4931	0.219
Mof_C 	C 	0.486	0.8609	0.1422	0.074
Mof_H 	H 	0.5109	0.8447	0.1987	-0.036
Mof_C 	C 	0.5043	0.9105	0.1133	-0.175
Mof_H 	H 	0.5408	0.9272	0.1495	0.062
Mof_C 	C 	0.4658	0.9349	0.0273	0.122
Mof_C 	C 	0.4147	0.9065	0.9782	-0.201
Mof_H 	H 	0.3895	0.9201	0.9206	0.094
Mof_C 	C 	0.3981	0.8581	0.0096	0.093
Mof_H 	H 	0.3618	0.8407	0.9736	-0.037
Mof_C 	C 	0.4786	0.984	0.9821	-0.097
Mof_H 	H 	0.4517	0.99	0.9227	0.051
Mof_N 	N 	0.3701	0.7983	0.1757	-0.205
Mof_C 	C 	0.3531	0.8263	0.2063	-0.254
Mof_N 	N 	0.1405	0.7938	0.9814	-0.206
Mof_C 	C 	0.1638	0.8218	0.0455	-0.251
Mof_W 	W 	0.76542	0.55516	0.78851	0.461
Mof_S 	S 	0.82934	0.5167	0.77514	-0.419
Mof_S 	S 	0.68716	0.52506	0.66145	-0.417
Mof_S 	S 	0.76876	0.67284	0.78035	-0.565
Mof_Cu	Cu	0.81961	0.6261	0.74657	0.785
Mof_Cu	Cu	0.70374	0.63159	0.65045	0.784
Mof_Cu	Cu	0.90529	0.74623	0.62978	0.833
Mof_B 	B 	0.7746	0.4917	0.9575	1.547
Mof_H 	H 	0.776	0.471	0.005	-0.588
Mof_N 	N 	0.8317	0.5633	0.9323	-0.167
Mof_N 	N 	0.8296	0.5255	0.9893	-0.426
Mof_N 	N 	0.7632	0.4475	0.8262	-0.175
Mof_N 	N 	0.7615	0.435	0.8948	-0.428
Mof_N 	N 	0.7145	0.5739	0.8358	-0.171
Mof_N 	N 	0.7271	0.5437	0.9096	-0.427
Mof_N 	N 	0.9338	0.6646	0.5917	-0.233
Mof_C 	C 	0.8837	0.5941	0.9834	0.329
Mof_C 	C 	0.9121	0.5739	0.0675	-0.43
Mof_H 	H 	0.9483	0.5863	0.1143	0.161
Mof_C 	C 	0.8757	0.5311	0.0687	0.4
Mof_C 	C 	0.9051	0.6402	0.9488	-0.712
Mof_H 	H 	0.8834	0.6818	0.9278	0.206
Mof_H 	H 	0.9437	0.651	0.994	0.223
Mof_H 	H 	0.9019	0.6176	0.9021	0.183
Mof_C 	C 	0.8861	0.4946	0.1439	-0.797
Mof_H 	H 	0.8854	0.4459	0.1353	0.235
Mof_H 	H 	0.9222	0.5076	0.1956	0.242
Mof_H 	H 	0.8575	0.5066	0.1495	0.233
Mof_C 	C 	0.7536	0.3869	0.7889	0.389
Mof_C 	C 	0.7471	0.3391	0.83	-0.52
Mof_H 	H 	0.7413	0.2926	0.8163	0.174
Mof_C 	C 	0.7503	0.3687	0.894	0.427
Mof_C 	C 	0.7577	0.3732	0.7148	-0.774
Mof_H 	H 	0.7952	0.3823	0.7348	0.246
Mof_H 	H 	0.7484	0.326	0.6969	0.244
Mof_H 	H 	0.732	0.4027	0.6666	0.242
Mof_C 	C 	0.745	0.3373	0.958	-0.766
Mof_H 	H 	0.7236	0.3671	0.967	0.208
Mof_H 	H 	0.7263	0.2937	0.9366	0.207
Mof_H 	H 	0.7817	0.3306	0.0119	0.204
Mof_C 	C 	0.6683	0.6136	0.805	0.333
Mof_C 	C 	0.6527	0.6055	0.8589	-0.448
Mof_H 	H 	0.622	0.6255	0.8519	0.161
Mof_C 	C 	0.6912	0.5628	0.9234	0.412
Mof_C 	C 	0.6376	0.6539	0.7245	-0.736
Mof_H 	H 	0.6256	0.6242	0.6767	0.197
Mof_H 	H 	0.6054	0.6748	0.7152	0.222
Mof_H 	H 	0.6616	0.6891	0.7291	0.203
Mof_C 	C 	0.6926	0.5355	0.9951	-0.803
Mof_H 	H 	0.7261	0.5508	0.0493	0.23
Mof_H 	H 	0.6604	0.5516	0.9895	0.239
Mof_H 	H 	0.6921	0.4861	0.9931	0.22
Mof_C 	C 	0.986	0.6391	0.6422	0.066
Mof_H 	H 	0.0109	0.6553	0.6987	-0.035
Mof_C 	C 	0.0043	0.5895	0.6133	-0.162
Mof_H 	H 	0.0408	0.5728	0.6495	0.056
Mof_C 	C 	0.9658	0.5651	0.5273	0.094
Mof_C 	C 	0.9147	0.5935	0.4782	-0.163
Mof_H 	H 	0.8895	0.5799	0.4206	0.082
Mof_C 	C 	0.8981	0.6419	0.5096	0.06
Mof_H 	H 	0.8618	0.6593	0.4736	-0.022
Mof_C 	C 	0.9786	0.516	0.4821	-0.085
Mof_H 	H 	0.9517	0.51	0.4227	0.05
Mof_N 	N 	0.8701	0.7017	0.6757	-0.206
Mof_C 	C 	0.8531	0.6737	0.7063	-0.255
Mof_N 	N 	0.6405	0.7062	0.4814	-0.201
Mof_C 	C 	0.6638	0.6782	0.5455	-0.257
Mof_N 	N 	0.9769	0.787	0.7215	-0.211
Mof_C 	C 	0.0231	0.787	0.7785	-0.193
Mof_W 	W 	0.26542	0.05516	0.78851	0.464
Mof_S 	S 	0.32934	0.0167	0.77514	-0.416
Mof_S 	S 	0.18716	0.02506	0.66145	-0.415
Mof_S 	S 	0.26876	0.17284	0.78035	-0.565
Mof_Cu	Cu	0.31961	0.1261	0.74657	0.784
Mof_Cu	Cu	0.20374	0.13159	0.65045	0.784
Mof_Cu	Cu	0.40529	0.24623	0.62978	0.833
Mof_B 	B 	0.2746	0.9917	0.9575	1.499
Mof_H 	H 	0.276	0.971	0.005	-0.565
Mof_N 	N 	0.3317	0.0633	0.9323	-0.167
Mof_N 	N 	0.3296	0.0255	0.9893	-0.408
Mof_N 	N 	0.2632	0.9475	0.8262	-0.178
Mof_N 	N 	0.2615	0.935	0.8948	-0.424
Mof_N 	N 	0.2145	0.0739	0.8358	-0.169
Mof_N 	N 	0.2271	0.0437	0.9096	-0.412
Mof_N 	N 	0.4338	0.1646	0.5917	-0.233
Mof_C 	C 	0.3837	0.0941	0.9834	0.336
Mof_C 	C 	0.4121	0.0739	0.0675	-0.426
Mof_H 	H 	0.4483	0.0863	0.1143	0.158
Mof_C 	C 	0.3757	0.0311	0.0687	0.37
Mof_C 	C 	0.4051	0.1402	0.9488	-0.72
Mof_H 	H 	0.3834	0.1818	0.9278	0.209
Mof_H 	H 	0.4437	0.151	0.994	0.228
Mof_H 	H 	0.4019	0.1176	0.9021	0.186
Mof_C 	C 	0.3861	0.9946	0.1439	-0.725
Mof_H 	H 	0.3854	0.9459	0.1353	0.216
Mof_H 	H 	0.4222	0.0076	0.1956	0.218
Mof_H 	H 	0.3575	0.0066	0.1495	0.209
Mof_C 	C 	0.2536	0.8869	0.7889	0.39
Mof_C 	C 	0.2471	0.8391	0.83	-0.526
Mof_H 	H 	0.2413	0.7926	0.8163	0.176
Mof_C 	C 	0.2503	0.8687	0.894	0.435
Mof_C 	C 	0.2577	0.8732	0.7148	-0.775
Mof_H 	H 	0.2952	0.8823	0.7348	0.245
Mof_H 	H 	0.2484	0.826	0.6969	0.244
Mof_H 	H 	0.232	0.9027	0.6666	0.241
Mof_C 	C 	0.245	0.8373	0.958	-0.8
Mof_H 	H 	0.2236	0.8671	0.967	0.216
Mof_H 	H 	0.2263	0.7937	0.9366	0.215
Mof_H 	H 	0.2817	0.8306	0.0119	0.22
Mof_C 	C 	0.1683	0.1136	0.805	0.327
Mof_C 	C 	0.1527	0.1055	0.8589	-0.431
Mof_H 	H 	0.122	0.1255	0.8519	0.157
Mof_C 	C 	0.1912	0.0628	0.9234	0.388
Mof_C 	C 	0.1376	0.1539	0.7245	-0.73
Mof_H 	H 	0.1256	0.1242	0.6767	0.195
Mof_H 	H 	0.1054	0.1748	0.7152	0.221
Mof_H 	H 	0.1616	0.1891	0.7291	0.202
Mof_C 	C 	0.1926	0.0355	0.9951	-0.723
Mof_H 	H 	0.2261	0.0508	0.0493	0.202
Mof_H 	H 	0.1604	0.0516	0.9895	0.218
Mof_H 	H 	0.1921	0.9861	0.9931	0.19
Mof_C 	C 	0.486	0.1391	0.6422	0.065
Mof_H 	H 	0.5109	0.1553	0.6987	-0.033
Mof_C 	C 	0.5043	0.0895	0.6133	-0.161
Mof_H 	H 	0.5408	0.0728	0.6495	0.057
Mof_C 	C 	0.4658	0.0651	0.5273	0.094
Mof_C 	C 	0.4147	0.0935	0.4782	-0.162
Mof_H 	H 	0.3895	0.0799	0.4206	0.082
Mof_C 	C 	0.3981	0.1419	0.5096	0.06
Mof_H 	H 	0.3618	0.1593	0.4736	-0.022
Mof_C 	C 	0.4786	0.016	0.4821	-0.085
Mof_H 	H 	0.4517	0.01	0.4227	0.05
Mof_N 	N 	0.3701	0.2017	0.6757	-0.205
Mof_C 	C 	0.3531	0.1737	0.7063	-0.255
Mof_N 	N 	0.1405	0.2062	0.4814	-0.201
Mof_C 	C 	0.1638	0.1782	0.5455	-0.257
Mof_N 	N 	0.4769	0.287	0.7215	-0.211
Mof_C 	C 	0.5231	0.287	0.7785	-0.191
Mof_W 	W 	0.23458	0.55516	0.71149	0.461
Mof_S 	S 	0.17066	0.5167	0.72486	-0.42
Mof_S 	S 	0.31284	0.52506	0.83855	-0.417
Mof_S 	S 	0.23124	0.67284	0.71965	-0.565
Mof_Cu	Cu	0.18039	0.6261	0.75343	0.784
Mof_Cu	Cu	0.29626	0.63159	0.84955	0.784
Mof_Cu	Cu	0.09471	0.74623	0.87022	0.831
Mof_B 	B 	0.2254	0.4917	0.5425	1.546
Mof_H 	H 	0.224	0.471	0.495	-0.588
Mof_N 	N 	0.1683	0.5633	0.5677	-0.167
Mof_N 	N 	0.1704	0.5255	0.5107	-0.426
Mof_N 	N 	0.2368	0.4475	0.6738	-0.176
Mof_N 	N 	0.2385	0.435	0.6052	-0.428
Mof_N 	N 	0.2855	0.5739	0.6642	-0.171
Mof_N 	N 	0.2729	0.5437	0.5904	-0.426
Mof_N 	N 	0.0662	0.6646	0.9083	-0.231
Mof_C 	C 	0.1163	0.5941	0.5166	0.331
Mof_C 	C 	0.0879	0.5739	0.4325	-0.433
Mof_H 	H 	0.0517	0.5863	0.3857	0.162
Mof_C 	C 	0.1243	0.5311	0.4313	0.4
Mof_C 	C 	0.0949	0.6402	0.5512	-0.715
Mof_H 	H 	0.1166	0.6818	0.5722	0.207
Mof_H 	H 	0.0563	0.651	0.506	0.225
Mof_H 	H 	0.0981	0.6176	0.5979	0.184
Mof_C 	C 	0.1139	0.4946	0.3561	-0.797
Mof_H 	H 	0.1146	0.4459	0.3647	0.235
Mof_H 	H 	0.0778	0.5076	0.3044	0.242
Mof_H 	H 	0.1425	0.5066	0.3505	0.233
Mof_C 	C 	0.2464	0.3869	0.7111	0.39
Mof_C 	C 	0.2529	0.3391	0.67	-0.523
Mof_H 	H 	0.2587	0.2926	0.6837	0.175
Mof_C 	C 	0.2497	0.3687	0.606	0.431
Mof_C 	C 	0.2423	0.3732	0.7852	-0.776
Mof_H 	H 	0.2048	0.3823	0.7652	0.246
Mof_H 	H 	0.2516	0.326	0.8031	0.244
Mof_H 	H 	0.268	0.4027	0.8334	0.243
Mof_C 	C 	0.255	0.3373	0.542	-0.778
Mof_H 	H 	0.2764	0.3671	0.533	0.211
Mof_H 	H 	0.2737	0.2937	0.5634	0.21
Mof_H 	H 	0.2183	0.3306	0.4881	0.209
Mof_C 	C 	0.3317	0.6136	0.695	0.332
Mof_C 	C 	0.3473	0.6055	0.6411	-0.447
Mof_H 	H 	0.378	0.6255	0.6481	0.161
Mof_C 	C 	0.3088	0.5628	0.5766	0.411
Mof_C 	C 	0.3624	0.6539	0.7755	-0.735
Mof_H 	H 	0.3744	0.6242	0.8233	0.196
Mof_H 	H 	0.3946	0.6748	0.7848	0.222
Mof_H 	H 	0.3384	0.6891	0.7709	0.203
Mof_C 	C 	0.3074	0.5355	0.5049	-0.799
Mof_H 	H 	0.2739	0.5508	0.4507	0.229
Mof_H 	H 	0.3396	0.5516	0.5105	0.238
Mof_H 	H 	0.3079	0.4861	0.5069	0.219
Mof_C 	C 	0.014	0.6391	0.8578	0.059
Mof_H 	H 	0.9891	0.6553	0.8013	-0.032
Mof_C 	C 	0.9957	0.5895	0.8867	-0.155
Mof_H 	H 	0.9592	0.5728	0.8505	0.054
Mof_C 	C 	0.0342	0.5651	0.9727	0.086
Mof_C 	C 	0.0853	0.5935	0.0218	-0.15
Mof_H 	H 	0.1105	0.5799	0.0794	0.078
Mof_C 	C 	0.1019	0.6419	0.9904	0.048
Mof_H 	H 	0.1382	0.6593	0.0264	-0.016
Mof_C 	C 	0.0214	0.516	0.0179	-0.083
Mof_H 	H 	0.0483	0.51	0.0773	0.05
Mof_N 	N 	0.1299	0.7017	0.8243	-0.206
Mof_C 	C 	0.1469	0.6737	0.7937	-0.255
Mof_N 	N 	0.3595	0.7062	0.0186	-0.198
Mof_C 	C 	0.3362	0.6782	0.9545	-0.261
Mof_W 	W 	0.73458	0.05516	0.71149	0.461
Mof_S 	S 	0.67066	0.0167	0.72486	-0.415
Mof_S 	S 	0.81284	0.02506	0.83855	-0.412
Mof_S 	S 	0.73124	0.17284	0.71965	-0.565
Mof_Cu	Cu	0.68039	0.1261	0.75343	0.785
Mof_Cu	Cu	0.79626	0.13159	0.84955	0.784
Mof_Cu	Cu	0.59471	0.24623	0.87022	0.831
Mof_B 	B 	0.7254	0.9917	0.5425	1.544
Mof_H 	H 	0.724	0.971	0.495	-0.586
Mof_N 	N 	0.6683	0.0633	0.5677	-0.167
Mof_N 	N 	0.6704	0.0255	0.5107	-0.423
Mof_N 	N 	0.7368	0.9475	0.6738	-0.176
Mof_N 	N 	0.7385	0.935	0.6052	-0.428
Mof_N 	N 	0.7855	0.0739	0.6642	-0.171
Mof_N 	N 	0.7729	0.0437	0.5904	-0.426
Mof_N 	N 	0.5662	0.1646	0.9083	-0.239
Mof_C 	C 	0.6163	0.0941	0.5166	0.329
Mof_C 	C 	0.5879	0.0739	0.4325	-0.425
Mof_H 	H 	0.5517	0.0863	0.3857	0.159
Mof_C 	C 	0.6243	0.0311	0.4313	0.388
Mof_C 	C 	0.5949	0.1402	0.5512	-0.712
Mof_H 	H 	0.6166	0.1818	0.5722	0.207
Mof_H 	H 	0.5563	0.151	0.506	0.224
Mof_H 	H 	0.5981	0.1176	0.5979	0.183
Mof_C 	C 	0.6139	0.9946	0.3561	-0.763
Mof_H 	H 	0.6146	0.9459	0.3647	0.226
Mof_H 	H 	0.5778	0.0076	0.3044	0.23
Mof_H 	H 	0.6425	0.0066	0.3505	0.221
Mof_C 	C 	0.7464	0.8869	0.7111	0.389
Mof_C 	C 	0.7529	0.8391	0.67	-0.522
Mof_H 	H 	0.7587	0.7926	0.6837	0.175
Mof_C 	C 	0.7497	0.8687	0.606	0.43
Mof_C 	C 	0.7423	0.8732	0.7852	-0.774
Mof_H 	H 	0.7048	0.8823	0.7652	0.246
Mof_H 	H 	0.7516	0.826	0.8031	0.243
Mof_H 	H 	0.768	0.9027	0.8334	0.241
Mof_C 	C 	0.755	0.8373	0.542	-0.777
Mof_H 	H 	0.7764	0.8671	0.533	0.211
Mof_H 	H 	0.7737	0.7937	0.5634	0.21
Mof_H 	H 	0.7183	0.8306	0.4881	0.209
Mof_C 	C 	0.8317	0.1136	0.695	0.333
Mof_C 	C 	0.8473	0.1055	0.6411	-0.448
Mof_H 	H 	0.878	0.1255	0.6481	0.162
Mof_C 	C 	0.8088	0.0628	0.5766	0.412
Mof_C 	C 	0.8624	0.1539	0.7755	-0.737
Mof_H 	H 	0.8744	0.1242	0.8233	0.198
Mof_H 	H 	0.8946	0.1748	0.7848	0.223
Mof_H 	H 	0.8384	0.1891	0.7709	0.204
Mof_C 	C 	0.8074	0.0355	0.5049	-0.801
Mof_H 	H 	0.7739	0.0508	0.4507	0.229
Mof_H 	H 	0.8396	0.0516	0.5105	0.238
Mof_H 	H 	0.8079	0.9861	0.5069	0.219
Mof_C 	C 	0.514	0.1391	0.8578	0.074
Mof_H 	H 	0.4891	0.1553	0.8013	-0.036
Mof_C 	C 	0.4957	0.0895	0.8867	-0.175
Mof_H 	H 	0.4592	0.0728	0.8505	0.062
Mof_C 	C 	0.5342	0.0651	0.9727	0.122
Mof_C 	C 	0.5853	0.0935	0.0218	-0.201
Mof_H 	H 	0.6105	0.0799	0.0794	0.094
Mof_C 	C 	0.6019	0.1419	0.9904	0.093
Mof_H 	H 	0.6382	0.1593	0.0264	-0.037
Mof_C 	C 	0.5214	0.016	0.0179	-0.097
Mof_H 	H 	0.5483	0.01	0.0773	0.051
Mof_N 	N 	0.6299	0.2017	0.8243	-0.205
Mof_C 	C 	0.6469	0.1737	0.7937	-0.254
Mof_N 	N 	0.8595	0.2062	0.0186	-0.206
Mof_C 	C 	0.8362	0.1782	0.9545	-0.251
_end
