data_functionalizedCrystal
_audit_creation_method	'EQeq! by Chris Wilmer'
_symmetry_space_group_name_H-M	'P1'
_symmetry_Int_Tables_number	1
_symmetry_cell_setting	triclinic
loop_
_symmetry_equiv_pos_as_xyz
  x,y,z
_cell_length_a	14.8837
_cell_length_b	12.4554
_cell_length_c	16.6018
_cell_angle_alpha	90
_cell_angle_beta	90
_cell_angle_gamma	90
loop_
_atom_site_label
_atom_site_type_symbol
_atom_site_fract_x
_atom_site_fract_y
_atom_site_fract_z
_atom_site_charge
Mof_O 	O 	0.527	0.1195	0.00519	-0.373
Mof_O 	O 	0.5011	0.0849	0.87608	-0.349
Mof_C 	C 	0.7694	0.4227	0.9984	0.342
Mof_O 	O 	0.5934	0.3515	0.6698	-0.319
Mof_C 	C 	0.5925	0.27	0.8289	0.043
Mof_H 	H 	0.5568	0.2352	0.7911	0.06
Mof_C 	C 	0.6355	0.4019	0.7204	0.319
Mof_O 	O 	0.6712	0.4915	0.7051	-0.3
Mof_C 	C 	0.7031	0.3708	0.9406	-0.088
Mof_C 	C 	0.6531	0.2812	0.9625	0.058
Mof_H 	H 	0.6574	0.2544	0.0146	0.039
Mof_C 	C 	0.6411	0.3606	0.8063	-0.078
Mof_C 	C 	0.6943	0.4119	0.8629	0.034
Mof_H 	H 	0.7246	0.4746	0.8488	0.059
Mof_C 	C 	0.5967	0.2311	0.9069	-0.104
Mof_C 	C 	0.5386	0.1385	0.9311	0.368
Mof_Mn	Mn	0.60414	0.48519	0.58091	0.949
Mof_O 	O 	0.791	0.5159	0.9876	-0.348
Mof_O 	O 	0.8023	0.3667	0.0527	-0.305
Mof_O 	O 	0.973	0.8805	0.50519	-0.37
Mof_O 	O 	0.9989	0.9151	0.37608	-0.351
Mof_C 	C 	0.7306	0.5773	0.4984	0.338
Mof_O 	O 	0.9066	0.6485	0.1698	-0.32
Mof_C 	C 	0.9075	0.73	0.3289	0.039
Mof_H 	H 	0.9432	0.7648	0.2911	0.06
Mof_C 	C 	0.8645	0.5981	0.2204	0.318
Mof_O 	O 	0.8288	0.5085	0.2051	-0.3
Mof_C 	C 	0.7969	0.6292	0.4406	-0.084
Mof_C 	C 	0.8469	0.7188	0.4625	0.049
Mof_H 	H 	0.8426	0.7456	0.5146	0.043
Mof_C 	C 	0.8589	0.6394	0.3063	-0.075
Mof_C 	C 	0.8057	0.5881	0.3629	0.031
Mof_H 	H 	0.7754	0.5254	0.3488	0.06
Mof_C 	C 	0.9033	0.7689	0.4069	-0.099
Mof_C 	C 	0.9614	0.8615	0.4311	0.362
Mof_Mn	Mn	0.89586	0.51481	0.08091	0.949
Mof_O 	O 	0.709	0.4841	0.4876	-0.346
Mof_O 	O 	0.6977	0.6333	0.5527	-0.303
Mof_O 	O 	0.473	0.6195	0.49481	-0.37
Mof_O 	O 	0.4989	0.5849	0.62392	-0.352
Mof_C 	C 	0.2306	0.9227	0.5016	0.338
Mof_O 	O 	0.4066	0.8515	0.8302	-0.32
Mof_C 	C 	0.4075	0.77	0.6711	0.039
Mof_H 	H 	0.4432	0.7352	0.7089	0.06
Mof_C 	C 	0.3645	0.9019	0.7796	0.318
Mof_O 	O 	0.3288	0.9915	0.7949	-0.301
Mof_C 	C 	0.2969	0.8708	0.5594	-0.084
Mof_C 	C 	0.3469	0.7812	0.5375	0.05
Mof_H 	H 	0.3426	0.7544	0.4854	0.044
Mof_C 	C 	0.3589	0.8606	0.6937	-0.076
Mof_C 	C 	0.3057	0.9119	0.6371	0.031
Mof_H 	H 	0.2754	0.9746	0.6512	0.06
Mof_C 	C 	0.4033	0.7311	0.5931	-0.1
Mof_C 	C 	0.4614	0.6385	0.5689	0.362
Mof_Mn	Mn	0.39586	0.98519	0.91909	0.943
Mof_O 	O 	0.209	0.0159	0.5124	-0.346
Mof_O 	O 	0.1977	0.8667	0.4473	-0.303
Mof_O 	O 	0.027	0.3805	0.99481	-0.368
Mof_O 	O 	0.0011	0.4151	0.12392	-0.351
Mof_C 	C 	0.2694	0.0773	0.0016	0.322
Mof_O 	O 	0.0934	0.1485	0.3302	-0.32
Mof_C 	C 	0.0925	0.23	0.1711	0.034
Mof_H 	H 	0.0568	0.2648	0.2089	0.061
Mof_C 	C 	0.1355	0.0981	0.2796	0.317
Mof_O 	O 	0.1712	0.0085	0.2949	-0.3
Mof_C 	C 	0.2031	0.1292	0.0594	-0.076
Mof_C 	C 	0.1531	0.2188	0.0375	0.037
Mof_H 	H 	0.1574	0.2456	0.9854	0.05
Mof_C 	C 	0.1411	0.1394	0.1937	-0.072
Mof_C 	C 	0.1943	0.0881	0.1371	0.025
Mof_H 	H 	0.2246	0.0254	0.1512	0.061
Mof_C 	C 	0.0967	0.2689	0.0931	-0.094
Mof_C 	C 	0.0386	0.3615	0.0689	0.358
Mof_Mn	Mn	0.10414	0.01481	0.41909	0.949
Mof_O 	O 	0.291	0.9841	0.0124	-0.336
Mof_O 	O 	0.3023	0.1333	0.9473	-0.295
Mof_O 	O 	0.473	0.8805	0.99481	-0.374
Mof_O 	O 	0.4989	0.9151	0.12392	-0.35
Mof_C 	C 	0.2306	0.5773	0.0016	0.341
Mof_O 	O 	0.4066	0.6485	0.3302	-0.32
Mof_C 	C 	0.4075	0.73	0.1711	0.042
Mof_H 	H 	0.4432	0.7648	0.2089	0.059
Mof_C 	C 	0.3645	0.5981	0.2796	0.319
Mof_O 	O 	0.3288	0.5085	0.2949	-0.3
Mof_C 	C 	0.2969	0.6292	0.0594	-0.088
Mof_C 	C 	0.3469	0.7188	0.0375	0.058
Mof_H 	H 	0.3426	0.7456	0.9854	0.039
Mof_C 	C 	0.3589	0.6394	0.1937	-0.078
Mof_C 	C 	0.3057	0.5881	0.1371	0.034
Mof_H 	H 	0.2754	0.5254	0.1512	0.059
Mof_C 	C 	0.4033	0.7689	0.0931	-0.104
Mof_C 	C 	0.4614	0.8615	0.0689	0.368
Mof_Mn	Mn	0.39586	0.51481	0.41909	0.949
Mof_O 	O 	0.209	0.4841	0.0124	-0.348
Mof_O 	O 	0.1977	0.6333	0.9473	-0.305
Mof_O 	O 	0.027	0.1195	0.49481	-0.37
Mof_O 	O 	0.0011	0.0849	0.62392	-0.351
Mof_C 	C 	0.2694	0.4227	0.5016	0.338
Mof_O 	O 	0.0934	0.3515	0.8302	-0.32
Mof_C 	C 	0.0925	0.27	0.6711	0.039
Mof_H 	H 	0.0568	0.2352	0.7089	0.06
Mof_C 	C 	0.1355	0.4019	0.7796	0.318
Mof_O 	O 	0.1712	0.4915	0.7949	-0.3
Mof_C 	C 	0.2031	0.3708	0.5594	-0.084
Mof_C 	C 	0.1531	0.2812	0.5375	0.049
Mof_H 	H 	0.1574	0.2544	0.4854	0.043
Mof_C 	C 	0.1411	0.3606	0.6937	-0.075
Mof_C 	C 	0.1943	0.4119	0.6371	0.031
Mof_H 	H 	0.2246	0.4746	0.6512	0.06
Mof_C 	C 	0.0967	0.2311	0.5931	-0.099
Mof_C 	C 	0.0386	0.1385	0.5689	0.362
Mof_Mn	Mn	0.10414	0.48519	0.91909	0.949
Mof_O 	O 	0.291	0.5159	0.5124	-0.346
Mof_O 	O 	0.3023	0.3667	0.4473	-0.303
Mof_O 	O 	0.527	0.3805	0.50519	-0.37
Mof_O 	O 	0.5011	0.4151	0.37608	-0.352
Mof_C 	C 	0.7694	0.0773	0.4984	0.338
Mof_O 	O 	0.5934	0.1485	0.1698	-0.32
Mof_C 	C 	0.5925	0.23	0.3289	0.039
Mof_H 	H 	0.5568	0.2648	0.2911	0.06
Mof_C 	C 	0.6355	0.0981	0.2204	0.318
Mof_O 	O 	0.6712	0.0085	0.2051	-0.301
Mof_C 	C 	0.7031	0.1292	0.4406	-0.084
Mof_C 	C 	0.6531	0.2188	0.4625	0.05
Mof_H 	H 	0.6574	0.2456	0.5146	0.044
Mof_C 	C 	0.6411	0.1394	0.3063	-0.076
Mof_C 	C 	0.6943	0.0881	0.3629	0.031
Mof_H 	H 	0.7246	0.0254	0.3488	0.06
Mof_C 	C 	0.5967	0.2689	0.4069	-0.1
Mof_C 	C 	0.5386	0.3615	0.4311	0.362
Mof_Mn	Mn	0.60414	0.01481	0.08091	0.943
Mof_O 	O 	0.791	0.9841	0.4876	-0.346
Mof_O 	O 	0.8023	0.1333	0.5527	-0.303
Mof_O 	O 	0.973	0.6195	0.00519	-0.368
Mof_O 	O 	0.9989	0.5849	0.87608	-0.351
Mof_C 	C 	0.7306	0.9227	0.9984	0.322
Mof_O 	O 	0.9066	0.8515	0.6698	-0.32
Mof_C 	C 	0.9075	0.77	0.8289	0.034
Mof_H 	H 	0.9432	0.7352	0.7911	0.061
Mof_C 	C 	0.8645	0.9019	0.7204	0.317
Mof_O 	O 	0.8288	0.9915	0.7051	-0.3
Mof_C 	C 	0.7969	0.8708	0.9406	-0.076
Mof_C 	C 	0.8469	0.7812	0.9625	0.037
Mof_H 	H 	0.8426	0.7544	0.0146	0.05
Mof_C 	C 	0.8589	0.8606	0.8063	-0.072
Mof_C 	C 	0.8057	0.9119	0.8629	0.025
Mof_H 	H 	0.7754	0.9746	0.8488	0.061
Mof_C 	C 	0.9033	0.7311	0.9069	-0.094
Mof_C 	C 	0.9614	0.6385	0.9311	0.358
Mof_Mn	Mn	0.89586	0.98519	0.58091	0.949
Mof_O 	O 	0.709	0.0159	0.9876	-0.336
Mof_O 	O 	0.6977	0.8667	0.0527	-0.295
_end
