data_functionalizedCrystal
_audit_creation_method	'EQeq! by Chris Wilmer'
_symmetry_space_group_name_H-M	'P1'
_symmetry_Int_Tables_number	1
_symmetry_cell_setting	triclinic
loop_
_symmetry_equiv_pos_as_xyz
  x,y,z
_cell_length_a	20.0594
_cell_length_b	24.9943
_cell_length_c	25.0645
_cell_angle_alpha	90
_cell_angle_beta	90
_cell_angle_gamma	90
loop_
_atom_site_label
_atom_site_type_symbol
_atom_site_fract_x
_atom_site_fract_y
_atom_site_fract_z
_atom_site_charge
Mof_Mn	Mn	0.91956	0.90903	0.92413	0.871
Mof_Mn	Mn	0.752	0.94113	0.87334	1.019
Mof_Mn	Mn	0.08137	0.5265	0.91594	0.78
Mof_Mn	Mn	0.41956	0.09097	0.57587	0.872
Mof_Mn	Mn	0.252	0.05887	0.62666	1.02
Mof_Mn	Mn	0.58137	0.4735	0.58406	0.78
Mof_Mn	Mn	0.58044	0.40903	0.07587	0.872
Mof_Mn	Mn	0.748	0.44113	0.12666	1.02
Mof_Mn	Mn	0.41863	0.0265	0.08406	0.78
Mof_Mn	Mn	0.08044	0.59097	0.42413	0.872
Mof_Mn	Mn	0.248	0.55887	0.37334	1.02
Mof_Mn	Mn	0.91863	0.9735	0.41594	0.78
Mof_Mn	Mn	0.08044	0.09097	0.07587	0.872
Mof_Mn	Mn	0.248	0.05887	0.12666	1.02
Mof_Mn	Mn	0.91863	0.4735	0.08406	0.78
Mof_Mn	Mn	0.58044	0.90903	0.42413	0.872
Mof_Mn	Mn	0.748	0.94113	0.37334	1.02
Mof_Mn	Mn	0.41863	0.5265	0.41594	0.78
Mof_Mn	Mn	0.41956	0.59097	0.92413	0.872
Mof_Mn	Mn	0.252	0.55887	0.87334	1.02
Mof_Mn	Mn	0.58137	0.9735	0.91594	0.78
Mof_Mn	Mn	0.91956	0.40903	0.57587	0.872
Mof_Mn	Mn	0.752	0.44113	0.62666	1.02
Mof_Mn	Mn	0.08137	0.0265	0.58406	0.78
Mof_P 	P 	0.91162	0.76446	0.59641	0.185
Mof_P 	P 	0.09176	0.8806	0.90594	0.205
Mof_P 	P 	0.41162	0.23554	0.90359	0.184
Mof_P 	P 	0.59176	0.1194	0.59406	0.205
Mof_P 	P 	0.58838	0.26446	0.40359	0.185
Mof_P 	P 	0.40824	0.3806	0.09406	0.205
Mof_P 	P 	0.08838	0.73554	0.09641	0.185
Mof_P 	P 	0.90824	0.6194	0.40594	0.205
Mof_P 	P 	0.08838	0.23554	0.40359	0.185
Mof_P 	P 	0.90824	0.1194	0.09406	0.205
Mof_P 	P 	0.58838	0.76446	0.09641	0.184
Mof_P 	P 	0.40824	0.8806	0.40594	0.205
Mof_P 	P 	0.41162	0.73554	0.59641	0.185
Mof_P 	P 	0.59176	0.6194	0.90594	0.205
Mof_P 	P 	0.91162	0.26446	0.90359	0.185
Mof_P 	P 	0.09176	0.3806	0.59406	0.205
Mof_H 	H 	0.9928	0.799	0.6822	0.07
Mof_H 	H 	0.9759	0.8393	0.7648	0.036
Mof_H 	H 	0.779	0.8401	0.7393	0.04
Mof_H 	H 	0.7943	0.7977	0.6575	0.06
Mof_H 	H 	0.9648	0.6738	0.5453	0.068
Mof_H 	H 	0.9542	0.5832	0.5483	0.026
Mof_H 	H 	0.8155	0.599	0.6637	0.037
Mof_H 	H 	0.8304	0.6911	0.6616	0.06
Mof_H 	H 	0.8837	0.8628	0.5469	0.055
Mof_H 	H 	0.7983	0.8986	0.4947	0.03
Mof_H 	H 	0.7053	0.7557	0.4957	0.04
Mof_H 	H 	0.7912	0.7195	0.5461	0.06
Mof_H 	H 	0.1824	0.8098	0.8504	0.056
Mof_H 	H 	0.1969	0.7175	0.8468	0.039
Mof_H 	H 	0.035	0.6982	0.9405	0.04
Mof_H 	H 	0.0218	0.7902	0.9438	0.066
Mof_H 	H 	0.2099	0.9135	0.8469	0.062
Mof_H 	H 	0.2282	0.958	0.7666	0.031
Mof_H 	H 	0.0121	0.9204	0.8214	0.082
Mof_H 	H 	0.2132	0.836	0.9556	0.057
Mof_H 	H 	0.2991	0.8724	0.006	0.039
Mof_H 	H 	0.2057	0.0142	0.0064	0.028
Mof_H 	H 	0.1199	0.9781	0.9556	0.057
Mof_H 	H 	0.4928	0.201	0.8178	0.07
Mof_H 	H 	0.4759	0.1607	0.7352	0.036
Mof_H 	H 	0.279	0.1599	0.7607	0.04
Mof_H 	H 	0.2943	0.2023	0.8425	0.06
Mof_H 	H 	0.4648	0.3262	0.9547	0.068
Mof_H 	H 	0.4542	0.4168	0.9517	0.026
Mof_H 	H 	0.3155	0.401	0.8363	0.037
Mof_H 	H 	0.3304	0.3089	0.8384	0.06
Mof_H 	H 	0.3837	0.1372	0.9531	0.055
Mof_H 	H 	0.2983	0.1014	0.0053	0.029
Mof_H 	H 	0.2053	0.2443	0.0043	0.039
Mof_H 	H 	0.2912	0.2805	0.9539	0.06
Mof_H 	H 	0.6824	0.1902	0.6496	0.056
Mof_H 	H 	0.6969	0.2825	0.6532	0.039
Mof_H 	H 	0.535	0.3018	0.5595	0.04
Mof_H 	H 	0.5218	0.2098	0.5562	0.066
Mof_H 	H 	0.7099	0.0865	0.6531	0.062
Mof_H 	H 	0.7282	0.042	0.7334	0.031
Mof_H 	H 	0.5121	0.0796	0.6786	0.082
Mof_H 	H 	0.7132	0.164	0.5444	0.057
Mof_H 	H 	0.7991	0.1276	0.494	0.039
Mof_H 	H 	0.7057	0.9858	0.4936	0.028
Mof_H 	H 	0.6199	0.0219	0.5444	0.057
Mof_H 	H 	0.5072	0.299	0.3178	0.07
Mof_H 	H 	0.5241	0.3393	0.2352	0.036
Mof_H 	H 	0.721	0.3401	0.2607	0.04
Mof_H 	H 	0.7057	0.2977	0.3425	0.06
Mof_H 	H 	0.5352	0.1738	0.4547	0.068
Mof_H 	H 	0.5458	0.0832	0.4517	0.026
Mof_H 	H 	0.6845	0.099	0.3363	0.037
Mof_H 	H 	0.6696	0.1911	0.3384	0.06
Mof_H 	H 	0.6163	0.3628	0.4531	0.055
Mof_H 	H 	0.7017	0.3986	0.5053	0.03
Mof_H 	H 	0.7947	0.2557	0.5043	0.04
Mof_H 	H 	0.7088	0.2195	0.4539	0.06
Mof_H 	H 	0.3176	0.3098	0.1496	0.056
Mof_H 	H 	0.3031	0.2175	0.1532	0.039
Mof_H 	H 	0.465	0.1982	0.0595	0.04
Mof_H 	H 	0.4782	0.2902	0.0562	0.066
Mof_H 	H 	0.2901	0.4135	0.1531	0.062
Mof_H 	H 	0.2718	0.458	0.2334	0.031
Mof_H 	H 	0.4879	0.4204	0.1786	0.082
Mof_H 	H 	0.2868	0.336	0.0444	0.057
Mof_H 	H 	0.2009	0.3724	0.994	0.04
Mof_H 	H 	0.2943	0.5142	0.9936	0.029
Mof_H 	H 	0.3801	0.4781	0.0444	0.056
Mof_H 	H 	0.0072	0.701	0.1822	0.07
Mof_H 	H 	0.0241	0.6607	0.2648	0.036
Mof_H 	H 	0.221	0.6599	0.2393	0.04
Mof_H 	H 	0.2057	0.7023	0.1575	0.06
Mof_H 	H 	0.0352	0.8262	0.0453	0.068
Mof_H 	H 	0.0458	0.9168	0.0483	0.026
Mof_H 	H 	0.1845	0.901	0.1637	0.037
Mof_H 	H 	0.1696	0.8089	0.1616	0.06
Mof_H 	H 	0.1163	0.6372	0.0469	0.055
Mof_H 	H 	0.2017	0.6014	0.9947	0.03
Mof_H 	H 	0.2947	0.7443	0.9957	0.04
Mof_H 	H 	0.2088	0.7805	0.0461	0.06
Mof_H 	H 	0.8176	0.6902	0.3504	0.056
Mof_H 	H 	0.8031	0.7825	0.3468	0.039
Mof_H 	H 	0.965	0.8018	0.4405	0.04
Mof_H 	H 	0.9782	0.7098	0.4438	0.065
Mof_H 	H 	0.7901	0.5865	0.3469	0.062
Mof_H 	H 	0.7718	0.542	0.2666	0.031
Mof_H 	H 	0.9879	0.5796	0.3214	0.082
Mof_H 	H 	0.7868	0.664	0.4556	0.057
Mof_H 	H 	0.7009	0.6276	0.506	0.039
Mof_H 	H 	0.7943	0.4858	0.5064	0.029
Mof_H 	H 	0.8801	0.5219	0.4556	0.056
Mof_H 	H 	0.0072	0.201	0.3178	0.07
Mof_H 	H 	0.0241	0.1607	0.2352	0.036
Mof_H 	H 	0.221	0.1599	0.2607	0.04
Mof_H 	H 	0.2057	0.2023	0.3425	0.06
Mof_H 	H 	0.0352	0.3262	0.4547	0.068
Mof_H 	H 	0.0458	0.4168	0.4517	0.026
Mof_H 	H 	0.1845	0.401	0.3363	0.037
Mof_H 	H 	0.1696	0.3089	0.3384	0.06
Mof_H 	H 	0.1163	0.1372	0.4531	0.055
Mof_H 	H 	0.2017	0.1014	0.5053	0.03
Mof_H 	H 	0.2947	0.2443	0.5043	0.04
Mof_H 	H 	0.2088	0.2805	0.4539	0.06
Mof_H 	H 	0.8176	0.1902	0.1496	0.056
Mof_H 	H 	0.8031	0.2825	0.1532	0.039
Mof_H 	H 	0.965	0.3018	0.0595	0.04
Mof_H 	H 	0.9782	0.2098	0.0562	0.066
Mof_H 	H 	0.7901	0.0865	0.1531	0.062
Mof_H 	H 	0.7718	0.042	0.2334	0.031
Mof_H 	H 	0.9879	0.0796	0.1786	0.082
Mof_H 	H 	0.7868	0.164	0.0444	0.057
Mof_H 	H 	0.7009	0.1276	0.994	0.039
Mof_H 	H 	0.7943	0.9858	0.9936	0.028
Mof_H 	H 	0.8801	0.0219	0.0444	0.057
Mof_H 	H 	0.5072	0.799	0.1822	0.07
Mof_H 	H 	0.5241	0.8393	0.2648	0.036
Mof_H 	H 	0.721	0.8401	0.2393	0.04
Mof_H 	H 	0.7057	0.7977	0.1575	0.06
Mof_H 	H 	0.5352	0.6738	0.0453	0.068
Mof_H 	H 	0.5458	0.5832	0.0483	0.026
Mof_H 	H 	0.6845	0.599	0.1637	0.037
Mof_H 	H 	0.6696	0.6911	0.1616	0.06
Mof_H 	H 	0.6163	0.8628	0.0469	0.055
Mof_H 	H 	0.7017	0.8986	0.9947	0.029
Mof_H 	H 	0.7947	0.7557	0.9957	0.039
Mof_H 	H 	0.7088	0.7195	0.0461	0.06
Mof_H 	H 	0.3176	0.8098	0.3504	0.056
Mof_H 	H 	0.3031	0.7175	0.3468	0.039
Mof_H 	H 	0.465	0.6982	0.4405	0.04
Mof_H 	H 	0.4782	0.7902	0.4438	0.066
Mof_H 	H 	0.2901	0.9135	0.3469	0.062
Mof_H 	H 	0.2718	0.958	0.2666	0.031
Mof_H 	H 	0.4879	0.9204	0.3214	0.082
Mof_H 	H 	0.2868	0.836	0.4556	0.057
Mof_H 	H 	0.2009	0.8724	0.506	0.039
Mof_H 	H 	0.2943	0.0142	0.5064	0.028
Mof_H 	H 	0.3801	0.9781	0.4556	0.057
Mof_H 	H 	0.4928	0.701	0.6822	0.07
Mof_H 	H 	0.4759	0.6607	0.7648	0.036
Mof_H 	H 	0.279	0.6599	0.7393	0.04
Mof_H 	H 	0.2943	0.7023	0.6575	0.06
Mof_H 	H 	0.4648	0.8262	0.5453	0.068
Mof_H 	H 	0.4542	0.9168	0.5483	0.026
Mof_H 	H 	0.3155	0.901	0.6637	0.037
Mof_H 	H 	0.3304	0.8089	0.6616	0.06
Mof_H 	H 	0.3837	0.6372	0.5469	0.055
Mof_H 	H 	0.2983	0.6014	0.4947	0.03
Mof_H 	H 	0.2053	0.7443	0.4957	0.04
Mof_H 	H 	0.2912	0.7805	0.5461	0.06
Mof_H 	H 	0.6824	0.6902	0.8504	0.056
Mof_H 	H 	0.6969	0.7825	0.8468	0.039
Mof_H 	H 	0.535	0.8018	0.9405	0.04
Mof_H 	H 	0.5218	0.7098	0.9438	0.066
Mof_H 	H 	0.7099	0.5865	0.8469	0.062
Mof_H 	H 	0.7282	0.542	0.7666	0.031
Mof_H 	H 	0.5121	0.5796	0.8214	0.082
Mof_H 	H 	0.7132	0.664	0.9556	0.057
Mof_H 	H 	0.7991	0.6276	0.006	0.04
Mof_H 	H 	0.7057	0.4858	0.0064	0.029
Mof_H 	H 	0.6199	0.5219	0.9556	0.056
Mof_H 	H 	0.9928	0.299	0.8178	0.07
Mof_H 	H 	0.9759	0.3393	0.7352	0.036
Mof_H 	H 	0.779	0.3401	0.7607	0.04
Mof_H 	H 	0.7943	0.2977	0.8425	0.06
Mof_H 	H 	0.9648	0.1738	0.9547	0.068
Mof_H 	H 	0.9542	0.0832	0.9517	0.026
Mof_H 	H 	0.8155	0.099	0.8363	0.037
Mof_H 	H 	0.8304	0.1911	0.8384	0.06
Mof_H 	H 	0.8837	0.3628	0.9531	0.055
Mof_H 	H 	0.7983	0.3986	0.0053	0.03
Mof_H 	H 	0.7053	0.2557	0.0043	0.04
Mof_H 	H 	0.7912	0.2195	0.9539	0.06
Mof_H 	H 	0.1824	0.3098	0.6496	0.056
Mof_H 	H 	0.1969	0.2175	0.6532	0.039
Mof_H 	H 	0.035	0.1982	0.5595	0.04
Mof_H 	H 	0.0218	0.2902	0.5562	0.065
Mof_H 	H 	0.2099	0.4135	0.6531	0.062
Mof_H 	H 	0.2282	0.458	0.7334	0.031
Mof_H 	H 	0.0121	0.4204	0.6786	0.082
Mof_H 	H 	0.2132	0.336	0.5444	0.057
Mof_H 	H 	0.2991	0.3724	0.494	0.039
Mof_H 	H 	0.2057	0.5142	0.4936	0.029
Mof_H 	H 	0.1199	0.4781	0.5444	0.056
Mof_C 	C 	0.8954	0.79463	0.66083	0.002
Mof_C 	C 	0.9492	0.80712	0.6934	-0.078
Mof_C 	C 	0.9392	0.8317	0.7428	0.022
Mof_C 	C 	0.8759	0.84474	0.75975	-0.102
Mof_C 	C 	0.8639	0.87482	0.81176	0.374
Mof_C 	C 	0.8224	0.8318	0.7278	0.022
Mof_C 	C 	0.8314	0.80661	0.6786	-0.083
Mof_C 	C 	0.9006	0.69318	0.60321	0.004
Mof_C 	C 	0.9351	0.65888	0.57016	-0.085
Mof_C 	C 	0.9287	0.6047	0.57145	0.035
Mof_C 	C 	0.8851	0.58156	0.60658	-0.11
Mof_C 	C 	0.8749	0.52153	0.60732	0.381
Mof_C 	C 	0.8467	0.61424	0.6402	0.026
Mof_C 	C 	0.8554	0.66935	0.6385	-0.083
Mof_C 	C 	0.8447	0.78813	0.55351	-0.001
Mof_C 	C 	0.8474	0.84118	0.53682	-0.072
Mof_C 	C 	0.7966	0.86256	0.50525	0.011
Mof_C 	C 	0.7433	0.83028	0.4894	-0.093
Mof_C 	C 	0.6866	0.85418	0.45883	0.321
Mof_C 	C 	0.7415	0.77737	0.5057	0.014
Mof_C 	C 	0.7923	0.75584	0.5366	-0.078
Mof_C 	C 	0.1012	0.80924	0.89782	-0.006
Mof_C 	C 	0.1527	0.78729	0.8687	-0.078
Mof_C 	C 	0.1611	0.73211	0.8661	0.023
Mof_C 	C 	0.1163	0.69872	0.89238	-0.107
Mof_C 	C 	0.1257	0.63842	0.89021	0.396
Mof_C 	C 	0.0647	0.72055	0.922	0.024
Mof_C 	C 	0.0572	0.77551	0.92417	-0.071
Mof_C 	C 	0.1087	0.91299	0.84273	0.012
Mof_C 	C 	0.1734	0.92399	0.82577	-0.097
Mof_C 	C 	0.1844	0.95051	0.77764	0.044
Mof_C 	C 	0.1314	0.96579	0.74613	-0.134
Mof_C 	C 	0.1432	0.99508	0.69411	0.396
Mof_C 	C 	0.0678	0.9538	0.7626	0.079
Mof_C 	C 	0.056	0.9278	0.8107	-0.11
Mof_C 	C 	0.1584	0.90351	0.94935	-0.008
Mof_C 	C 	0.2117	0.87229	0.9654	-0.076
Mof_C 	C 	0.2629	0.89399	0.9958	0.012
Mof_C 	C 	0.26089	0.94719	0.01126	-0.098
Mof_C 	C 	0.3176	0.9721	0.04211	0.331
Mof_C 	C 	0.2076	0.97813	0.99602	0.015
Mof_C 	C 	0.1562	0.95658	0.96543	-0.073
Mof_C 	C 	0.3954	0.20537	0.83917	0.002
Mof_C 	C 	0.4492	0.19288	0.8066	-0.078
Mof_C 	C 	0.4392	0.1683	0.7572	0.022
Mof_C 	C 	0.3759	0.15526	0.74025	-0.102
Mof_C 	C 	0.3639	0.12518	0.68824	0.374
Mof_C 	C 	0.3224	0.1682	0.7722	0.022
Mof_C 	C 	0.3314	0.19339	0.8214	-0.083
Mof_C 	C 	0.4006	0.30682	0.89679	0.004
Mof_C 	C 	0.4351	0.34112	0.92984	-0.085
Mof_C 	C 	0.4287	0.3953	0.92855	0.035
Mof_C 	C 	0.3851	0.41844	0.89342	-0.11
Mof_C 	C 	0.3749	0.47847	0.89268	0.381
Mof_C 	C 	0.3467	0.38576	0.8598	0.026
Mof_C 	C 	0.3554	0.33065	0.8615	-0.083
Mof_C 	C 	0.3447	0.21187	0.94649	-0
Mof_C 	C 	0.3474	0.15882	0.96318	-0.074
Mof_C 	C 	0.2966	0.13744	0.99475	0.013
Mof_C 	C 	0.2433	0.16972	0.0106	-0.095
Mof_C 	C 	0.1866	0.14582	0.04117	0.322
Mof_C 	C 	0.2415	0.22263	0.9943	0.016
Mof_C 	C 	0.2923	0.24416	0.9634	-0.079
Mof_C 	C 	0.6012	0.19076	0.60218	-0.006
Mof_C 	C 	0.6527	0.21271	0.6313	-0.078
Mof_C 	C 	0.6611	0.26789	0.6339	0.023
Mof_C 	C 	0.6163	0.30128	0.60762	-0.107
Mof_C 	C 	0.6257	0.36158	0.60979	0.396
Mof_C 	C 	0.5647	0.27945	0.578	0.024
Mof_C 	C 	0.5572	0.22449	0.57583	-0.071
Mof_C 	C 	0.6087	0.08701	0.65727	0.012
Mof_C 	C 	0.6734	0.07601	0.67423	-0.097
Mof_C 	C 	0.6844	0.04949	0.72236	0.044
Mof_C 	C 	0.6314	0.03421	0.75387	-0.134
Mof_C 	C 	0.6432	0.00492	0.80589	0.396
Mof_C 	C 	0.5678	0.0462	0.7374	0.079
Mof_C 	C 	0.556	0.0722	0.6893	-0.11
Mof_C 	C 	0.6584	0.09649	0.55065	-0.007
Mof_C 	C 	0.7117	0.12771	0.5346	-0.076
Mof_C 	C 	0.7629	0.10601	0.5042	0.013
Mof_C 	C 	0.76089	0.05281	0.48874	-0.098
Mof_C 	C 	0.8176	0.0279	0.45789	0.331
Mof_C 	C 	0.7076	0.02187	0.50398	0.015
Mof_C 	C 	0.6562	0.04342	0.53457	-0.074
Mof_C 	C 	0.6046	0.29463	0.33917	0.002
Mof_C 	C 	0.5508	0.30712	0.3066	-0.078
Mof_C 	C 	0.5608	0.3317	0.2572	0.022
Mof_C 	C 	0.6241	0.34474	0.24025	-0.102
Mof_C 	C 	0.6361	0.37482	0.18824	0.374
Mof_C 	C 	0.6776	0.3318	0.2722	0.022
Mof_C 	C 	0.6686	0.30661	0.3214	-0.083
Mof_C 	C 	0.5994	0.19318	0.39679	0.004
Mof_C 	C 	0.5649	0.15888	0.42984	-0.085
Mof_C 	C 	0.5713	0.1047	0.42855	0.035
Mof_C 	C 	0.6149	0.08156	0.39342	-0.11
Mof_C 	C 	0.6251	0.02153	0.39268	0.381
Mof_C 	C 	0.6533	0.11424	0.3598	0.026
Mof_C 	C 	0.6446	0.16935	0.3615	-0.083
Mof_C 	C 	0.6553	0.28813	0.44649	-0.001
Mof_C 	C 	0.6526	0.34118	0.46318	-0.072
Mof_C 	C 	0.7034	0.36256	0.49475	0.011
Mof_C 	C 	0.7567	0.33028	0.5106	-0.093
Mof_C 	C 	0.8134	0.35418	0.54117	0.321
Mof_C 	C 	0.7585	0.27737	0.4943	0.014
Mof_C 	C 	0.7077	0.25584	0.4634	-0.078
Mof_C 	C 	0.3988	0.30924	0.10218	-0.006
Mof_C 	C 	0.3473	0.28729	0.1313	-0.078
Mof_C 	C 	0.3389	0.23211	0.1339	0.023
Mof_C 	C 	0.3837	0.19872	0.10762	-0.107
Mof_C 	C 	0.3743	0.13842	0.10979	0.396
Mof_C 	C 	0.4353	0.22055	0.078	0.024
Mof_C 	C 	0.4428	0.27551	0.07583	-0.071
Mof_C 	C 	0.3913	0.41299	0.15727	0.012
Mof_C 	C 	0.3266	0.42399	0.17423	-0.097
Mof_C 	C 	0.3156	0.45051	0.22236	0.044
Mof_C 	C 	0.3686	0.46579	0.25387	-0.134
Mof_C 	C 	0.3568	0.49508	0.30589	0.396
Mof_C 	C 	0.4322	0.4538	0.2374	0.078
Mof_C 	C 	0.444	0.4278	0.1893	-0.11
Mof_C 	C 	0.3416	0.40351	0.05065	-0.008
Mof_C 	C 	0.2883	0.37229	0.0346	-0.075
Mof_C 	C 	0.2371	0.39399	0.0042	0.012
Mof_C 	C 	0.23911	0.44719	0.98874	-0.097
Mof_C 	C 	0.1824	0.4721	0.95789	0.33
Mof_C 	C 	0.2924	0.47813	0.00398	0.014
Mof_C 	C 	0.3438	0.45658	0.03457	-0.073
Mof_C 	C 	0.1046	0.70537	0.16083	0.002
Mof_C 	C 	0.0508	0.69288	0.1934	-0.078
Mof_C 	C 	0.0608	0.6683	0.2428	0.022
Mof_C 	C 	0.1241	0.65526	0.25975	-0.102
Mof_C 	C 	0.1361	0.62518	0.31176	0.374
Mof_C 	C 	0.1776	0.6682	0.2278	0.022
Mof_C 	C 	0.1686	0.69339	0.1786	-0.083
Mof_C 	C 	0.0994	0.80682	0.10321	0.004
Mof_C 	C 	0.0649	0.84112	0.07016	-0.085
Mof_C 	C 	0.0713	0.8953	0.07145	0.036
Mof_C 	C 	0.1149	0.91844	0.10658	-0.11
Mof_C 	C 	0.1251	0.97847	0.10732	0.382
Mof_C 	C 	0.1533	0.88576	0.1402	0.026
Mof_C 	C 	0.1446	0.83065	0.1385	-0.083
Mof_C 	C 	0.1553	0.71187	0.05351	-0.001
Mof_C 	C 	0.1526	0.65882	0.03682	-0.072
Mof_C 	C 	0.2034	0.63744	0.00525	0.011
Mof_C 	C 	0.2567	0.66972	0.9894	-0.093
Mof_C 	C 	0.3134	0.64582	0.95883	0.321
Mof_C 	C 	0.2585	0.72263	0.0057	0.014
Mof_C 	C 	0.2077	0.74416	0.0366	-0.078
Mof_C 	C 	0.8988	0.69076	0.39782	-0.006
Mof_C 	C 	0.8473	0.71271	0.3687	-0.078
Mof_C 	C 	0.8389	0.76789	0.3661	0.023
Mof_C 	C 	0.8837	0.80128	0.39238	-0.107
Mof_C 	C 	0.8743	0.86158	0.39021	0.396
Mof_C 	C 	0.9353	0.77945	0.422	0.024
Mof_C 	C 	0.9428	0.72449	0.42417	-0.071
Mof_C 	C 	0.8913	0.58701	0.34273	0.012
Mof_C 	C 	0.8266	0.57601	0.32577	-0.097
Mof_C 	C 	0.8156	0.54949	0.27764	0.044
Mof_C 	C 	0.8686	0.53421	0.24613	-0.134
Mof_C 	C 	0.8568	0.50492	0.19411	0.396
Mof_C 	C 	0.9322	0.5462	0.2626	0.078
Mof_C 	C 	0.944	0.5722	0.3107	-0.11
Mof_C 	C 	0.8416	0.59649	0.44935	-0.008
Mof_C 	C 	0.7883	0.62771	0.4654	-0.076
Mof_C 	C 	0.7371	0.60601	0.4958	0.013
Mof_C 	C 	0.73911	0.55281	0.51126	-0.098
Mof_C 	C 	0.6824	0.5279	0.54211	0.33
Mof_C 	C 	0.7924	0.52187	0.49602	0.014
Mof_C 	C 	0.8438	0.54342	0.46543	-0.073
Mof_C 	C 	0.1046	0.20537	0.33917	0.002
Mof_C 	C 	0.0508	0.19288	0.3066	-0.078
Mof_C 	C 	0.0608	0.1683	0.2572	0.022
Mof_C 	C 	0.1241	0.15526	0.24025	-0.102
Mof_C 	C 	0.1361	0.12518	0.18824	0.374
Mof_C 	C 	0.1776	0.1682	0.2722	0.022
Mof_C 	C 	0.1686	0.19339	0.3214	-0.083
Mof_C 	C 	0.0994	0.30682	0.39679	0.004
Mof_C 	C 	0.0649	0.34112	0.42984	-0.085
Mof_C 	C 	0.0713	0.3953	0.42855	0.035
Mof_C 	C 	0.1149	0.41844	0.39342	-0.11
Mof_C 	C 	0.1251	0.47847	0.39268	0.381
Mof_C 	C 	0.1533	0.38576	0.3598	0.026
Mof_C 	C 	0.1446	0.33065	0.3615	-0.083
Mof_C 	C 	0.1553	0.21187	0.44649	-0.001
Mof_C 	C 	0.1526	0.15882	0.46318	-0.072
Mof_C 	C 	0.2034	0.13744	0.49475	0.011
Mof_C 	C 	0.2567	0.16972	0.5106	-0.093
Mof_C 	C 	0.3134	0.14582	0.54117	0.321
Mof_C 	C 	0.2585	0.22263	0.4943	0.014
Mof_C 	C 	0.2077	0.24416	0.4634	-0.078
Mof_C 	C 	0.8988	0.19076	0.10218	-0.006
Mof_C 	C 	0.8473	0.21271	0.1313	-0.078
Mof_C 	C 	0.8389	0.26789	0.1339	0.023
Mof_C 	C 	0.8837	0.30128	0.10762	-0.107
Mof_C 	C 	0.8743	0.36158	0.10979	0.396
Mof_C 	C 	0.9353	0.27945	0.078	0.024
Mof_C 	C 	0.9428	0.22449	0.07583	-0.071
Mof_C 	C 	0.8913	0.08701	0.15727	0.012
Mof_C 	C 	0.8266	0.07601	0.17423	-0.097
Mof_C 	C 	0.8156	0.04949	0.22236	0.044
Mof_C 	C 	0.8686	0.03421	0.25387	-0.134
Mof_C 	C 	0.8568	0.00492	0.30589	0.396
Mof_C 	C 	0.9322	0.0462	0.2374	0.079
Mof_C 	C 	0.944	0.0722	0.1893	-0.11
Mof_C 	C 	0.8416	0.09649	0.05065	-0.008
Mof_C 	C 	0.7883	0.12771	0.0346	-0.076
Mof_C 	C 	0.7371	0.10601	0.0042	0.012
Mof_C 	C 	0.73911	0.05281	0.98874	-0.098
Mof_C 	C 	0.6824	0.0279	0.95789	0.331
Mof_C 	C 	0.7924	0.02187	0.00398	0.015
Mof_C 	C 	0.8438	0.04342	0.03457	-0.073
Mof_C 	C 	0.6046	0.79463	0.16083	0.002
Mof_C 	C 	0.5508	0.80712	0.1934	-0.078
Mof_C 	C 	0.5608	0.8317	0.2428	0.022
Mof_C 	C 	0.6241	0.84474	0.25975	-0.102
Mof_C 	C 	0.6361	0.87482	0.31176	0.374
Mof_C 	C 	0.6776	0.8318	0.2278	0.022
Mof_C 	C 	0.6686	0.80661	0.1786	-0.083
Mof_C 	C 	0.5994	0.69318	0.10321	0.004
Mof_C 	C 	0.5649	0.65888	0.07016	-0.085
Mof_C 	C 	0.5713	0.6047	0.07145	0.035
Mof_C 	C 	0.6149	0.58156	0.10658	-0.11
Mof_C 	C 	0.6251	0.52153	0.10732	0.381
Mof_C 	C 	0.6533	0.61424	0.1402	0.026
Mof_C 	C 	0.6446	0.66935	0.1385	-0.083
Mof_C 	C 	0.6553	0.78813	0.05351	-0
Mof_C 	C 	0.6526	0.84118	0.03682	-0.074
Mof_C 	C 	0.7034	0.86256	0.00525	0.013
Mof_C 	C 	0.7567	0.83028	0.9894	-0.095
Mof_C 	C 	0.8134	0.85418	0.95883	0.322
Mof_C 	C 	0.7585	0.77737	0.0057	0.016
Mof_C 	C 	0.7077	0.75584	0.0366	-0.079
Mof_C 	C 	0.3988	0.80924	0.39782	-0.006
Mof_C 	C 	0.3473	0.78729	0.3687	-0.078
Mof_C 	C 	0.3389	0.73211	0.3661	0.023
Mof_C 	C 	0.3837	0.69872	0.39238	-0.107
Mof_C 	C 	0.3743	0.63842	0.39021	0.396
Mof_C 	C 	0.4353	0.72055	0.422	0.024
Mof_C 	C 	0.4428	0.77551	0.42417	-0.071
Mof_C 	C 	0.3913	0.91299	0.34273	0.012
Mof_C 	C 	0.3266	0.92399	0.32577	-0.097
Mof_C 	C 	0.3156	0.95051	0.27764	0.044
Mof_C 	C 	0.3686	0.96579	0.24613	-0.134
Mof_C 	C 	0.3568	0.99508	0.19411	0.396
Mof_C 	C 	0.4322	0.9538	0.2626	0.079
Mof_C 	C 	0.444	0.9278	0.3107	-0.11
Mof_C 	C 	0.3416	0.90351	0.44935	-0.007
Mof_C 	C 	0.2883	0.87229	0.4654	-0.076
Mof_C 	C 	0.2371	0.89399	0.4958	0.013
Mof_C 	C 	0.23911	0.94719	0.51126	-0.098
Mof_C 	C 	0.1824	0.9721	0.54211	0.331
Mof_C 	C 	0.2924	0.97813	0.49602	0.015
Mof_C 	C 	0.3438	0.95658	0.46543	-0.074
Mof_C 	C 	0.3954	0.70537	0.66083	0.002
Mof_C 	C 	0.4492	0.69288	0.6934	-0.078
Mof_C 	C 	0.4392	0.6683	0.7428	0.022
Mof_C 	C 	0.3759	0.65526	0.75975	-0.102
Mof_C 	C 	0.3639	0.62518	0.81176	0.374
Mof_C 	C 	0.3224	0.6682	0.7278	0.022
Mof_C 	C 	0.3314	0.69339	0.6786	-0.083
Mof_C 	C 	0.4006	0.80682	0.60321	0.004
Mof_C 	C 	0.4351	0.84112	0.57016	-0.085
Mof_C 	C 	0.4287	0.8953	0.57145	0.035
Mof_C 	C 	0.3851	0.91844	0.60658	-0.11
Mof_C 	C 	0.3749	0.97847	0.60732	0.381
Mof_C 	C 	0.3467	0.88576	0.6402	0.026
Mof_C 	C 	0.3554	0.83065	0.6385	-0.083
Mof_C 	C 	0.3447	0.71187	0.55351	-0.001
Mof_C 	C 	0.3474	0.65882	0.53682	-0.072
Mof_C 	C 	0.2966	0.63744	0.50525	0.011
Mof_C 	C 	0.2433	0.66972	0.4894	-0.093
Mof_C 	C 	0.1866	0.64582	0.45883	0.321
Mof_C 	C 	0.2415	0.72263	0.5057	0.014
Mof_C 	C 	0.2923	0.74416	0.5366	-0.078
Mof_C 	C 	0.6012	0.69076	0.89782	-0.006
Mof_C 	C 	0.6527	0.71271	0.8687	-0.078
Mof_C 	C 	0.6611	0.76789	0.8661	0.023
Mof_C 	C 	0.6163	0.80128	0.89238	-0.107
Mof_C 	C 	0.6257	0.86158	0.89021	0.396
Mof_C 	C 	0.5647	0.77945	0.922	0.024
Mof_C 	C 	0.5572	0.72449	0.92417	-0.071
Mof_C 	C 	0.6087	0.58701	0.84273	0.012
Mof_C 	C 	0.6734	0.57601	0.82577	-0.097
Mof_C 	C 	0.6844	0.54949	0.77764	0.044
Mof_C 	C 	0.6314	0.53421	0.74613	-0.134
Mof_C 	C 	0.6432	0.50492	0.69411	0.396
Mof_C 	C 	0.5678	0.5462	0.7626	0.078
Mof_C 	C 	0.556	0.5722	0.8107	-0.11
Mof_C 	C 	0.6584	0.59649	0.94935	-0.008
Mof_C 	C 	0.7117	0.62771	0.9654	-0.075
Mof_C 	C 	0.7629	0.60601	0.9958	0.012
Mof_C 	C 	0.76089	0.55281	0.01126	-0.097
Mof_C 	C 	0.8176	0.5279	0.04211	0.33
Mof_C 	C 	0.7076	0.52187	0.99602	0.014
Mof_C 	C 	0.6562	0.54342	0.96543	-0.073
Mof_C 	C 	0.8954	0.29463	0.83917	0.002
Mof_C 	C 	0.9492	0.30712	0.8066	-0.078
Mof_C 	C 	0.9392	0.3317	0.7572	0.022
Mof_C 	C 	0.8759	0.34474	0.74025	-0.102
Mof_C 	C 	0.8639	0.37482	0.68824	0.374
Mof_C 	C 	0.8224	0.3318	0.7722	0.022
Mof_C 	C 	0.8314	0.30661	0.8214	-0.083
Mof_C 	C 	0.9006	0.19318	0.89679	0.004
Mof_C 	C 	0.9351	0.15888	0.92984	-0.085
Mof_C 	C 	0.9287	0.1047	0.92855	0.036
Mof_C 	C 	0.8851	0.08156	0.89342	-0.11
Mof_C 	C 	0.8749	0.02153	0.89268	0.382
Mof_C 	C 	0.8467	0.11424	0.8598	0.026
Mof_C 	C 	0.8554	0.16935	0.8615	-0.083
Mof_C 	C 	0.8447	0.28813	0.94649	-0.001
Mof_C 	C 	0.8474	0.34118	0.96318	-0.072
Mof_C 	C 	0.7966	0.36256	0.99475	0.011
Mof_C 	C 	0.7433	0.33028	0.0106	-0.093
Mof_C 	C 	0.6866	0.35418	0.04117	0.321
Mof_C 	C 	0.7415	0.27737	0.9943	0.014
Mof_C 	C 	0.7923	0.25584	0.9634	-0.078
Mof_C 	C 	0.1012	0.30924	0.60218	-0.006
Mof_C 	C 	0.1527	0.28729	0.6313	-0.078
Mof_C 	C 	0.1611	0.23211	0.6339	0.023
Mof_C 	C 	0.1163	0.19872	0.60762	-0.107
Mof_C 	C 	0.1257	0.13842	0.60979	0.396
Mof_C 	C 	0.0647	0.22055	0.578	0.024
Mof_C 	C 	0.0572	0.27551	0.57583	-0.071
Mof_C 	C 	0.1087	0.41299	0.65727	0.012
Mof_C 	C 	0.1734	0.42399	0.67423	-0.097
Mof_C 	C 	0.1844	0.45051	0.72236	0.044
Mof_C 	C 	0.1314	0.46579	0.75387	-0.134
Mof_C 	C 	0.1432	0.49508	0.80589	0.396
Mof_C 	C 	0.0678	0.4538	0.7374	0.078
Mof_C 	C 	0.056	0.4278	0.6893	-0.11
Mof_C 	C 	0.1584	0.40351	0.55065	-0.008
Mof_C 	C 	0.2117	0.37229	0.5346	-0.076
Mof_C 	C 	0.2629	0.39399	0.5042	0.013
Mof_C 	C 	0.26089	0.44719	0.48874	-0.098
Mof_C 	C 	0.3176	0.4721	0.45789	0.33
Mof_C 	C 	0.2076	0.47813	0.50398	0.014
Mof_C 	C 	0.1562	0.45658	0.53457	-0.073
Mof_O 	O 	0.9123	0.87796	0.84435	-0.371
Mof_O 	O 	0.80666	0.89356	0.8181	-0.377
Mof_O 	O 	0.9203	0.49259	0.58821	-0.391
Mof_O 	O 	0.82095	0.5052	0.62752	-0.387
Mof_O 	O 	0.69196	0.90184	0.44034	-0.417
Mof_O 	O 	0.63203	0.82929	0.45479	-0.321
Mof_O 	O 	0.97915	0.77847	0.57602	-0.209
Mof_O 	O 	0.18173	0.62251	0.87458	-0.39
Mof_O 	O 	0.07803	0.61014	0.90392	-0.399
Mof_O 	O 	0.20002	0.0146	0.68715	-0.377
Mof_O 	O 	0.09495	0.99783	0.66212	-0.386
Mof_O 	O 	0.37244	0.9484	0.04504	-0.336
Mof_O 	O 	0.30949	0.01832	0.06244	-0.417
Mof_O 	O 	0.02426	0.89503	0.92688	-0.322
Mof_O 	O 	0.4123	0.12204	0.65565	-0.371
Mof_O 	O 	0.30666	0.10644	0.6819	-0.377
Mof_O 	O 	0.4203	0.50741	0.91179	-0.391
Mof_O 	O 	0.32095	0.4948	0.87248	-0.387
Mof_O 	O 	0.19196	0.09816	0.05966	-0.417
Mof_O 	O 	0.13203	0.17071	0.04521	-0.322
Mof_O 	O 	0.47915	0.22153	0.92398	-0.209
Mof_O 	O 	0.68173	0.37749	0.62542	-0.39
Mof_O 	O 	0.57803	0.38986	0.59608	-0.399
Mof_O 	O 	0.70002	0.9854	0.81285	-0.377
Mof_O 	O 	0.59495	0.00217	0.83788	-0.386
Mof_O 	O 	0.87244	0.0516	0.45496	-0.336
Mof_O 	O 	0.80949	0.98168	0.43756	-0.417
Mof_O 	O 	0.52426	0.10497	0.57312	-0.323
Mof_O 	O 	0.5877	0.37796	0.15565	-0.371
Mof_O 	O 	0.69334	0.39356	0.1819	-0.377
Mof_O 	O 	0.5797	0.99259	0.41179	-0.392
Mof_O 	O 	0.67905	0.0052	0.37248	-0.387
Mof_O 	O 	0.80804	0.40184	0.55966	-0.417
Mof_O 	O 	0.86797	0.32929	0.54521	-0.321
Mof_O 	O 	0.52085	0.27847	0.42398	-0.209
Mof_O 	O 	0.31827	0.12251	0.12542	-0.39
Mof_O 	O 	0.42197	0.11014	0.09608	-0.399
Mof_O 	O 	0.29998	0.5146	0.31285	-0.377
Mof_O 	O 	0.40505	0.49783	0.33788	-0.386
Mof_O 	O 	0.12756	0.4484	0.95496	-0.336
Mof_O 	O 	0.19051	0.51832	0.93756	-0.416
Mof_O 	O 	0.47574	0.39503	0.07312	-0.323
Mof_O 	O 	0.0877	0.62204	0.34435	-0.371
Mof_O 	O 	0.19334	0.60644	0.3181	-0.377
Mof_O 	O 	0.0797	0.00741	0.08821	-0.392
Mof_O 	O 	0.17905	0.9948	0.12752	-0.387
Mof_O 	O 	0.30804	0.59816	0.94034	-0.417
Mof_O 	O 	0.36797	0.67071	0.95479	-0.321
Mof_O 	O 	0.02085	0.72153	0.07602	-0.209
Mof_O 	O 	0.81827	0.87749	0.37458	-0.39
Mof_O 	O 	0.92197	0.88986	0.40392	-0.399
Mof_O 	O 	0.79998	0.4854	0.18715	-0.377
Mof_O 	O 	0.90505	0.50217	0.16212	-0.386
Mof_O 	O 	0.62756	0.5516	0.54504	-0.337
Mof_O 	O 	0.69051	0.48168	0.56244	-0.416
Mof_O 	O 	0.97574	0.60497	0.42688	-0.323
Mof_O 	O 	0.0877	0.12204	0.15565	-0.371
Mof_O 	O 	0.19334	0.10644	0.1819	-0.377
Mof_O 	O 	0.0797	0.50741	0.41179	-0.391
Mof_O 	O 	0.17905	0.4948	0.37248	-0.387
Mof_O 	O 	0.30804	0.09816	0.55966	-0.417
Mof_O 	O 	0.36797	0.17071	0.54521	-0.321
Mof_O 	O 	0.02085	0.22153	0.42398	-0.209
Mof_O 	O 	0.81827	0.37749	0.12542	-0.39
Mof_O 	O 	0.92197	0.38986	0.09608	-0.399
Mof_O 	O 	0.79998	0.9854	0.31285	-0.377
Mof_O 	O 	0.90505	0.00217	0.33788	-0.386
Mof_O 	O 	0.62756	0.0516	0.95496	-0.336
Mof_O 	O 	0.69051	0.98168	0.93756	-0.417
Mof_O 	O 	0.97574	0.10497	0.07312	-0.322
Mof_O 	O 	0.5877	0.87796	0.34435	-0.371
Mof_O 	O 	0.69334	0.89356	0.3181	-0.377
Mof_O 	O 	0.5797	0.49259	0.08821	-0.391
Mof_O 	O 	0.67905	0.5052	0.12752	-0.387
Mof_O 	O 	0.80804	0.90184	0.94034	-0.417
Mof_O 	O 	0.86797	0.82929	0.95479	-0.322
Mof_O 	O 	0.52085	0.77847	0.07602	-0.209
Mof_O 	O 	0.31827	0.62251	0.37458	-0.39
Mof_O 	O 	0.42197	0.61014	0.40392	-0.399
Mof_O 	O 	0.29998	0.0146	0.18715	-0.377
Mof_O 	O 	0.40505	0.99783	0.16212	-0.386
Mof_O 	O 	0.12756	0.9484	0.54504	-0.336
Mof_O 	O 	0.19051	0.01832	0.56244	-0.417
Mof_O 	O 	0.47574	0.89503	0.42688	-0.323
Mof_O 	O 	0.4123	0.62204	0.84435	-0.371
Mof_O 	O 	0.30666	0.60644	0.8181	-0.377
Mof_O 	O 	0.4203	0.00741	0.58821	-0.392
Mof_O 	O 	0.32095	0.9948	0.62752	-0.387
Mof_O 	O 	0.19196	0.59816	0.44034	-0.417
Mof_O 	O 	0.13203	0.67071	0.45479	-0.321
Mof_O 	O 	0.47915	0.72153	0.57602	-0.209
Mof_O 	O 	0.68173	0.87749	0.87458	-0.39
Mof_O 	O 	0.57803	0.88986	0.90392	-0.399
Mof_O 	O 	0.70002	0.4854	0.68715	-0.377
Mof_O 	O 	0.59495	0.50217	0.66212	-0.386
Mof_O 	O 	0.87244	0.5516	0.04504	-0.336
Mof_O 	O 	0.80949	0.48168	0.06244	-0.416
Mof_O 	O 	0.52426	0.60497	0.92688	-0.323
Mof_O 	O 	0.9123	0.37796	0.65565	-0.371
Mof_O 	O 	0.80666	0.39356	0.6819	-0.377
Mof_O 	O 	0.9203	0.99259	0.91179	-0.392
Mof_O 	O 	0.82095	0.0052	0.87248	-0.387
Mof_O 	O 	0.69196	0.40184	0.05966	-0.417
Mof_O 	O 	0.63203	0.32929	0.04521	-0.321
Mof_O 	O 	0.97915	0.27847	0.92398	-0.209
Mof_O 	O 	0.18173	0.12251	0.62542	-0.39
Mof_O 	O 	0.07803	0.11014	0.59608	-0.399
Mof_O 	O 	0.20002	0.5146	0.81285	-0.377
Mof_O 	O 	0.09495	0.49783	0.83788	-0.386
Mof_O 	O 	0.37244	0.4484	0.45496	-0.337
Mof_O 	O 	0.30949	0.51832	0.43756	-0.416
Mof_O 	O 	0.02426	0.39503	0.57312	-0.323
_end
