data_functionalizedCrystal
_audit_creation_method	'EQeq! by Chris Wilmer'
_symmetry_space_group_name_H-M	'P1'
_symmetry_Int_Tables_number	1
_symmetry_cell_setting	triclinic
loop_
_symmetry_equiv_pos_as_xyz
  x,y,z
_cell_length_a	19.8941
_cell_length_b	25.4125
_cell_length_c	25.4125
_cell_angle_alpha	120
_cell_angle_beta	90
_cell_angle_gamma	90
loop_
_atom_site_label
_atom_site_type_symbol
_atom_site_fract_x
_atom_site_fract_y
_atom_site_fract_z
_atom_site_charge
Mof_B 	B 	5.10485e-33	0.5412	0.0952	1.69
Mof_C 	C 	1.13441e-33	0.418	0.076	-0.096
Mof_C 	C 	-5.67206e-34	0.354	0.07	-0.14
Mof_F 	F 	-3.40324e-33	0.5947	0.1509	-0.748
Mof_F 	F 	-6.80647e-33	0.5809	0.0626	-0.659
Mof_B 	B 	-6.80647e-33	0.554	0.4588	1.695
Mof_C 	C 	-1.36129e-32	0.658	0.582	-0.097
Mof_C 	C 	4.53765e-33	0.716	0.646	-0.137
Mof_F 	F 	-9.07529e-33	0.5562	0.4053	-0.743
Mof_F 	F 	-0	0.4817	0.4191	-0.657
Mof_B 	B 	-2.26882e-33	0.9048	0.446	1.691
Mof_C 	C 	-1.13441e-32	0.924	0.342	-0.099
Mof_C 	C 	4.53765e-33	0.93	0.284	-0.123
Mof_F 	F 	9.07529e-33	0.8491	0.4438	-0.745
Mof_F 	F 	2.26882e-33	0.9374	0.5183	-0.664
Mof_H 	H 	7.37368e-33	0.44398	0.1278	0.044
Mof_H 	H 	-9.07529e-33	0.68382	0.55602	0.044
Mof_H 	H 	-2.26882e-33	0.8722	0.31618	0.045
Mof_H 	H 	0.61919	0.57046	0.12624	0.023
Mof_H 	H 	0.7445	0.57453	0.13664	0.054
Mof_H 	H 	0.75072	0.38416	0.00423	0.052
Mof_H 	H 	0.83503	0.57565	0.04838	0.081
Mof_H 	H 	0.89845	0.61801	0.109	0.133
Mof_H 	H 	0.81067	0.61052	0.12978	0.076
Mof_H 	H 	0.8755	0.33428	0.006	0.063
Mof_H 	H 	0.79884	0.3659	0.05367	0.062
Mof_H 	H 	0.88041	0.36613	0.08968	0.06
Mof_H 	H 	0.05331	0.34174	0.07645	0.047
Mof_C 	C 	0.6504	0.5277	0.0982	0.079
Mof_C 	C 	0.6524	0.429	0.0286	0.069
Mof_C 	C 	0.7187	0.5301	0.1033	-0.116
Mof_C 	C 	0.7219	0.4284	0.0323	-0.108
Mof_C 	C 	0.7557	0.4813	0.0699	0.105
Mof_C 	C 	0.831	0.4816	0.0713	-0.131
Mof_C 	C 	0.8722	0.5272	0.0946	0.208
Mof_C 	C 	0.8719	0.4342	0.0605	0.036
Mof_C 	C 	0.8528	0.5868	0.0955	-0.222
Mof_C 	C 	0.9384	0.449	0.07	0.117
Mof_C 	C 	0.8556	0.371	0.0519	-0.158
Mof_N 	N 	0.6164	0.47856	0.06246	-0.147
Mof_N 	N 	0.9384	0.5074	0.0894	-0.464
Mof_H 	H 	0.61919	0.55578	0.42954	0.023
Mof_H 	H 	0.7445	0.56211	0.42547	0.056
Mof_H 	H 	0.75072	0.62007	0.61584	0.051
Mof_H 	H 	0.88415	0.46905	0.40857	0.108
Mof_H 	H 	0.86281	0.51534	0.37273	0.104
Mof_H 	H 	0.79719	0.49859	0.41452	0.072
Mof_H 	H 	0.81816	0.66631	0.65323	0.058
Mof_H 	H 	0.83288	0.71907	0.62352	0.063
Mof_H 	H 	0.90372	0.69766	0.65694	0.06
Mof_H 	H 	0.97299	0.70599	0.67959	0.061
Mof_C 	C 	0.6504	0.5705	0.4723	0.08
Mof_C 	C 	0.6524	0.5996	0.571	0.069
Mof_C 	C 	0.7187	0.5732	0.4699	-0.12
Mof_C 	C 	0.7219	0.6039	0.5716	-0.107
Mof_C 	C 	0.7557	0.5886	0.5187	0.105
Mof_C 	C 	0.831	0.5897	0.5184	-0.132
Mof_C 	C 	0.8722	0.5674	0.4728	0.208
Mof_C 	C 	0.8719	0.6263	0.5658	0.037
Mof_C 	C 	0.8528	0.5087	0.4132	-0.219
Mof_C 	C 	0.9384	0.621	0.551	0.119
Mof_C 	C 	0.8556	0.6809	0.629	-0.155
Mof_N 	N 	0.6164	0.5839	0.52144	-0.147
Mof_N 	N 	0.9384	0.582	0.4926	-0.464
Mof_H 	H 	0.61919	0.87376	0.44422	0.023
Mof_H 	H 	0.7445	0.86336	0.43789	0.056
Mof_H 	H 	0.75072	0.99577	0.37993	0.051
Mof_H 	H 	0.82512	0.86045	0.47865	0.083
Mof_H 	H 	0.81878	0.94485	0.52054	0.078
Mof_H 	H 	0.90025	0.90754	0.51783	0.133
Mof_H 	H 	0.87399	0.90689	0.27544	0.06
Mof_H 	H 	0.88181	0.99069	0.3252	0.065
Mof_H 	H 	0.79896	0.95308	0.31632	0.061
Mof_H 	H 	0.02701	0.88932	0.24565	0.046
Mof_C 	C 	0.6504	0.9018	0.4295	0.08
Mof_C 	C 	0.6524	0.9714	0.4004	0.069
Mof_C 	C 	0.7187	0.8967	0.4268	-0.118
Mof_C 	C 	0.7219	0.9677	0.3961	-0.108
Mof_C 	C 	0.7557	0.9301	0.4114	0.106
Mof_C 	C 	0.831	0.9287	0.4103	-0.132
Mof_C 	C 	0.8722	0.9054	0.4326	0.21
Mof_C 	C 	0.8719	0.9395	0.3737	0.036
Mof_C 	C 	0.8528	0.9045	0.4913	-0.226
Mof_C 	C 	0.9384	0.93	0.379	0.119
Mof_C 	C 	0.8556	0.9481	0.3191	-0.159
Mof_N 	N 	0.6164	0.93754	0.4161	-0.147
Mof_N 	N 	0.9384	0.9106	0.418	-0.464
Mof_H 	H 	0.62429	0.61416	0.00443	0.028
Mof_H 	H 	0.62429	0.39027	0.38584	0.028
Mof_H 	H 	0.62429	0.99557	0.60973	0.028
Mof_H 	H 	0.37571	0.61416	0.00443	0.028
Mof_H 	H 	0.37571	0.39027	0.38584	0.028
Mof_H 	H 	0.37571	0.99557	0.60973	0.028
Mof_H 	H 	0.38081	0.57046	0.12624	0.023
Mof_H 	H 	0.2555	0.57453	0.13664	0.053
Mof_H 	H 	0.24928	0.38416	0.00423	0.051
Mof_H 	H 	0.10155	0.61801	0.109	0.127
Mof_H 	H 	0.16497	0.57565	0.04838	0.08
Mof_H 	H 	0.18933	0.61052	0.12978	0.074
Mof_H 	H 	0.20116	0.3659	0.05367	0.061
Mof_H 	H 	0.1245	0.33428	0.006	0.061
Mof_H 	H 	0.11959	0.36613	0.08968	0.055
Mof_H 	H 	0.98096	0.31896	0.02299	0.067
Mof_C 	C 	0.3496	0.5277	0.0982	0.079
Mof_C 	C 	0.3476	0.429	0.0286	0.069
Mof_C 	C 	0.2813	0.5301	0.1033	-0.117
Mof_C 	C 	0.2781	0.4284	0.0323	-0.109
Mof_C 	C 	0.2443	0.4813	0.0699	0.105
Mof_C 	C 	0.169	0.4816	0.0713	-0.131
Mof_C 	C 	0.1278	0.5272	0.0946	0.206
Mof_C 	C 	0.1281	0.4342	0.0605	0.038
Mof_C 	C 	0.1472	0.5868	0.0955	-0.222
Mof_C 	C 	0.0616	0.449	0.07	0.104
Mof_C 	C 	0.1444	0.371	0.0519	-0.159
Mof_N 	N 	0.3836	0.47856	0.06246	-0.147
Mof_N 	N 	0.0616	0.5074	0.0894	-0.468
Mof_H 	H 	0.38081	0.55578	0.42954	0.022
Mof_H 	H 	0.2555	0.56211	0.42547	0.056
Mof_H 	H 	0.24928	0.62007	0.61584	0.05
Mof_H 	H 	0.13719	0.51534	0.37273	0.101
Mof_H 	H 	0.11585	0.46905	0.40857	0.104
Mof_H 	H 	0.20281	0.49859	0.41452	0.072
Mof_H 	H 	0.16712	0.71907	0.62352	0.061
Mof_H 	H 	0.18184	0.66631	0.65323	0.057
Mof_H 	H 	0.09628	0.69766	0.65694	0.054
Mof_H 	H 	0.97299	0.75435	0.64367	0.062
Mof_C 	C 	0.3496	0.5705	0.4723	0.08
Mof_C 	C 	0.3476	0.5996	0.571	0.069
Mof_C 	C 	0.2813	0.5732	0.4699	-0.12
Mof_C 	C 	0.2781	0.6039	0.5716	-0.107
Mof_C 	C 	0.2443	0.5886	0.5187	0.104
Mof_C 	C 	0.169	0.5897	0.5184	-0.133
Mof_C 	C 	0.1278	0.5674	0.4728	0.206
Mof_C 	C 	0.1281	0.6263	0.5658	0.039
Mof_C 	C 	0.1472	0.5087	0.4132	-0.219
Mof_C 	C 	0.0616	0.621	0.551	0.107
Mof_C 	C 	0.1444	0.6809	0.629	-0.154
Mof_N 	N 	0.3836	0.5839	0.52144	-0.147
Mof_N 	N 	0.0616	0.582	0.4926	-0.468
Mof_H 	H 	0.38081	0.87376	0.44422	0.023
Mof_H 	H 	0.2555	0.86336	0.43789	0.056
Mof_H 	H 	0.24928	0.99577	0.37993	0.051
Mof_H 	H 	0.18122	0.94485	0.52054	0.077
Mof_H 	H 	0.17488	0.86045	0.47865	0.081
Mof_H 	H 	0.09975	0.90754	0.51783	0.128
Mof_H 	H 	0.11819	0.99069	0.3252	0.06
Mof_H 	H 	0.12601	0.90689	0.27544	0.059
Mof_H 	H 	0.20104	0.95308	0.31632	0.06
Mof_H 	H 	0.02701	0.97361	0.29401	0.052
Mof_C 	C 	0.3496	0.9018	0.4295	0.08
Mof_C 	C 	0.3476	0.9714	0.4004	0.069
Mof_C 	C 	0.2813	0.8967	0.4268	-0.118
Mof_C 	C 	0.2781	0.9677	0.3961	-0.108
Mof_C 	C 	0.2443	0.9301	0.4114	0.105
Mof_C 	C 	0.169	0.9287	0.4103	-0.133
Mof_C 	C 	0.1278	0.9054	0.4326	0.207
Mof_C 	C 	0.1281	0.9395	0.3737	0.038
Mof_C 	C 	0.1472	0.9045	0.4913	-0.225
Mof_C 	C 	0.0616	0.93	0.379	0.106
Mof_C 	C 	0.1444	0.9481	0.3191	-0.159
Mof_N 	N 	0.3836	0.93754	0.4161	-0.147
Mof_N 	N 	0.0616	0.9106	0.418	-0.469
Mof_Cd	Cd	0.5	0.47355	0.06174	0.462
Mof_H 	H 	0.5	0.56847	0.28929	0.044
Mof_H 	H 	0.5	0.37036	0.17491	0.047
Mof_H 	H 	0.5	0.55713	0.38306	0.054
Mof_H 	H 	0.5	0.35979	0.2694	0.046
Mof_C 	C 	0.5	0.473	0.1692	0.321
Mof_C 	C 	0.5	0.4704	0.2268	-0.075
Mof_C 	C 	0.5	0.5212	0.284	-0.001
Mof_C 	C 	0.5	0.413	0.2217	-0.006
Mof_C 	C 	0.5	0.515	0.3359	-0.011
Mof_C 	C 	0.5	0.4069	0.2743	-0.006
Mof_C 	C 	0.5	0.4583	0.3303	-0.076
Mof_C 	C 	0.5	0.4516	0.3854	0.312
Mof_O 	O 	0.5	0.5236	0.1731	-0.281
Mof_O 	O 	0.5	0.426	0.12	-0.278
Mof_O 	O 	0.5	0.4974	0.4369	-0.3
Mof_O 	O 	0.5	0.3987	0.37754	-0.28
Mof_Cd	Cd	0.5	0.58819	0.52645	0.462
Mof_H 	H 	0.5	0.72082	0.43153	0.044
Mof_H 	H 	0.5	0.80454	0.62964	0.047
Mof_H 	H 	0.5	0.82593	0.44287	0.054
Mof_H 	H 	0.5	0.90961	0.64021	0.046
Mof_C 	C 	0.5	0.6962	0.527	0.321
Mof_C 	C 	0.5	0.7564	0.5296	-0.075
Mof_C 	C 	0.5	0.7628	0.4788	-0.001
Mof_C 	C 	0.5	0.8087	0.587	-0.006
Mof_C 	C 	0.5	0.8209	0.485	-0.011
Mof_C 	C 	0.5	0.8674	0.5931	-0.006
Mof_C 	C 	0.5	0.872	0.5417	-0.076
Mof_C 	C 	0.5	0.9338	0.5484	0.312
Mof_O 	O 	0.5	0.6495	0.4764	-0.281
Mof_O 	O 	0.5	0.694	0.574	-0.278
Mof_O 	O 	0.5	0.9395	0.5026	-0.3
Mof_O 	O 	0.5	0.97884	0.6013	-0.28
Mof_Cd	Cd	0.5	0.93826	0.41181	0.462
Mof_H 	H 	0.5	0.71071	0.27918	0.044
Mof_H 	H 	0.5	0.82509	0.19546	0.047
Mof_H 	H 	0.5	0.61694	0.17407	0.054
Mof_H 	H 	0.5	0.7306	0.09039	0.046
Mof_C 	C 	0.5	0.8308	0.3038	0.321
Mof_C 	C 	0.5	0.7732	0.2436	-0.075
Mof_C 	C 	0.5	0.716	0.2372	-0.001
Mof_C 	C 	0.5	0.7783	0.1913	-0.006
Mof_C 	C 	0.5	0.6641	0.1791	-0.011
Mof_C 	C 	0.5	0.7257	0.1326	-0.006
Mof_C 	C 	0.5	0.6697	0.128	-0.076
Mof_C 	C 	0.5	0.6146	0.0662	0.312
Mof_O 	O 	0.5	0.8269	0.3505	-0.281
Mof_O 	O 	0.5	0.88	0.306	-0.278
Mof_O 	O 	0.5	0.5631	0.0605	-0.3
Mof_O 	O 	0.5	0.62246	0.02116	-0.28
Mof_H 	H 	0.96573	0.3544	0.10615	0.059
Mof_H 	H 	0.05403	0.73017	0.66163	0.042
Mof_H 	H 	0.94597	0.93147	0.26983	0.055
Mof_B 	B 	1.81506e-32	0.4588	0.9048	1.695
Mof_C 	C 	9.07529e-33	0.582	0.924	-0.101
Mof_C 	C 	-9.07529e-33	0.646	0.93	-0.119
Mof_F 	F 	9.07529e-33	0.4053	0.8491	-0.743
Mof_F 	F 	-2.26882e-32	0.4191	0.9374	-0.657
Mof_B 	B 	-0	0.446	0.5412	1.691
Mof_C 	C 	4.53765e-33	0.342	0.418	-0.099
Mof_C 	C 	4.53765e-33	0.284	0.354	-0.122
Mof_F 	F 	9.07529e-33	0.4438	0.5947	-0.748
Mof_F 	F 	-2.26882e-32	0.5183	0.5809	-0.66
Mof_B 	B 	-0	0.0952	0.554	1.696
Mof_C 	C 	-1.36129e-32	0.076	0.658	-0.102
Mof_C 	C 	-0	0.07	0.716	-0.118
Mof_F 	F 	4.53765e-33	0.1509	0.5562	-0.746
Mof_F 	F 	2.26882e-33	0.0626	0.4817	-0.653
Mof_H 	H 	-2.26882e-32	0.55602	0.8722	0.046
Mof_H 	H 	2.26882e-33	0.31618	0.44398	0.045
Mof_H 	H 	-0	0.1278	0.68382	0.046
Mof_H 	H 	0.62429	0.38584	0.99557	0.028
Mof_H 	H 	0.62429	0.60973	0.61416	0.028
Mof_H 	H 	0.62429	0.00443	0.39027	0.028
Mof_H 	H 	0.61919	0.42954	0.87376	0.023
Mof_H 	H 	0.7445	0.42547	0.86336	0.057
Mof_H 	H 	0.75072	0.61584	0.99577	0.051
Mof_H 	H 	0.86107	0.37286	0.85694	0.103
Mof_H 	H 	0.79765	0.41523	0.91756	0.073
Mof_H 	H 	0.88543	0.40773	0.93834	0.109
Mof_H 	H 	0.82767	0.62341	0.90643	0.063
Mof_H 	H 	0.90433	0.65503	0.9541	0.056
Mof_H 	H 	0.82276	0.65525	0.99011	0.059
Mof_H 	H 	0.02701	0.64367	0.88932	0.047
Mof_C 	C 	0.6504	0.4723	0.9018	0.081
Mof_C 	C 	0.6524	0.571	0.9714	0.069
Mof_C 	C 	0.7187	0.4699	0.8967	-0.12
Mof_C 	C 	0.7219	0.5716	0.9677	-0.107
Mof_C 	C 	0.7557	0.5187	0.9301	0.105
Mof_C 	C 	0.831	0.5184	0.9287	-0.132
Mof_C 	C 	0.8722	0.4728	0.9054	0.208
Mof_C 	C 	0.8719	0.5658	0.9395	0.035
Mof_C 	C 	0.8528	0.4132	0.9045	-0.22
Mof_C 	C 	0.9384	0.551	0.93	0.123
Mof_C 	C 	0.8556	0.629	0.9481	-0.151
Mof_N 	N 	0.6164	0.52144	0.93754	-0.147
Mof_N 	N 	0.9384	0.4926	0.9106	-0.465
Mof_H 	H 	0.61919	0.44422	0.57046	0.023
Mof_H 	H 	0.7445	0.43789	0.57453	0.054
Mof_H 	H 	0.75072	0.37993	0.38416	0.052
Mof_H 	H 	0.81195	0.48039	0.61136	0.077
Mof_H 	H 	0.83329	0.52669	0.57551	0.081
Mof_H 	H 	0.89891	0.50994	0.61731	0.133
Mof_H 	H 	0.88501	0.27762	0.3641	0.057
Mof_H 	H 	0.8703	0.33038	0.33439	0.064
Mof_H 	H 	0.79945	0.30897	0.36782	0.062
Mof_H 	H 	0.02701	0.24565	0.35633	0.045
Mof_C 	C 	0.6504	0.4295	0.5277	0.08
Mof_C 	C 	0.6524	0.4004	0.429	0.069
Mof_C 	C 	0.7187	0.4268	0.5301	-0.116
Mof_C 	C 	0.7219	0.3961	0.4284	-0.109
Mof_C 	C 	0.7557	0.4114	0.4813	0.105
Mof_C 	C 	0.831	0.4103	0.4816	-0.131
Mof_C 	C 	0.8722	0.4326	0.5272	0.209
Mof_C 	C 	0.8719	0.3737	0.4342	0.035
Mof_C 	C 	0.8528	0.4913	0.5868	-0.223
Mof_C 	C 	0.9384	0.379	0.449	0.12
Mof_C 	C 	0.8556	0.3191	0.371	-0.157
Mof_N 	N 	0.6164	0.4161	0.47856	-0.147
Mof_N 	N 	0.9384	0.418	0.5074	-0.464
Mof_H 	H 	0.61919	0.12624	0.55578	0.023
Mof_H 	H 	0.7445	0.13664	0.56211	0.054
Mof_H 	H 	0.75072	0.00423	0.62007	0.052
Mof_H 	H 	0.87098	0.05189	0.46731	0.096
Mof_H 	H 	0.87732	0.13629	0.50919	0.115
Mof_H 	H 	0.79585	0.09898	0.50649	0.071
Mof_H 	H 	0.82918	0.00645	0.66413	0.059
Mof_H 	H 	0.82136	0.09025	0.71389	0.063
Mof_H 	H 	0.90421	0.05264	0.70501	0.054
Mof_H 	H 	0.02701	0.11068	0.75435	0.046
Mof_C 	C 	0.6504	0.0982	0.5705	0.08
Mof_C 	C 	0.6524	0.0286	0.5996	0.069
Mof_C 	C 	0.7187	0.1033	0.5732	-0.118
Mof_C 	C 	0.7219	0.0323	0.6039	-0.107
Mof_C 	C 	0.7557	0.0699	0.5886	0.104
Mof_C 	C 	0.831	0.0713	0.5897	-0.13
Mof_C 	C 	0.8722	0.0946	0.5674	0.207
Mof_C 	C 	0.8719	0.0605	0.6263	0.035
Mof_C 	C 	0.8528	0.0955	0.5087	-0.216
Mof_C 	C 	0.9384	0.07	0.621	0.122
Mof_C 	C 	0.8556	0.0519	0.6809	-0.149
Mof_N 	N 	0.6164	0.06246	0.5839	-0.147
Mof_N 	N 	0.9384	0.0894	0.582	-0.464
Mof_H 	H 	0.38081	0.42954	0.87376	0.022
Mof_H 	H 	0.2555	0.42547	0.86336	0.056
Mof_H 	H 	0.24928	0.61584	0.99577	0.051
Mof_H 	H 	0.20235	0.41523	0.91756	0.072
Mof_H 	H 	0.13893	0.37286	0.85694	0.1
Mof_H 	H 	0.11457	0.40773	0.93834	0.106
Mof_H 	H 	0.09567	0.65503	0.9541	0.058
Mof_H 	H 	0.17233	0.62341	0.90643	0.062
Mof_H 	H 	0.17724	0.65525	0.99011	0.058
Mof_H 	H 	0.02701	0.67959	0.97361	0.048
Mof_C 	C 	0.3496	0.4723	0.9018	0.08
Mof_C 	C 	0.3476	0.571	0.9714	0.069
Mof_C 	C 	0.2813	0.4699	0.8967	-0.12
Mof_C 	C 	0.2781	0.5716	0.9677	-0.107
Mof_C 	C 	0.2443	0.5187	0.9301	0.105
Mof_C 	C 	0.169	0.5184	0.9287	-0.133
Mof_C 	C 	0.1278	0.4728	0.9054	0.206
Mof_C 	C 	0.1281	0.5658	0.9395	0.038
Mof_C 	C 	0.1472	0.4132	0.9045	-0.219
Mof_C 	C 	0.0616	0.551	0.93	0.108
Mof_C 	C 	0.1444	0.629	0.9481	-0.157
Mof_N 	N 	0.3836	0.52144	0.93754	-0.148
Mof_N 	N 	0.0616	0.4926	0.9106	-0.469
Mof_H 	H 	0.38081	0.44422	0.57046	0.023
Mof_H 	H 	0.2555	0.43789	0.57453	0.054
Mof_H 	H 	0.24928	0.37993	0.38416	0.052
Mof_H 	H 	0.16671	0.52669	0.57551	0.08
Mof_H 	H 	0.18805	0.48039	0.61136	0.075
Mof_H 	H 	0.10109	0.50994	0.61731	0.128
Mof_H 	H 	0.1297	0.33038	0.33439	0.06
Mof_H 	H 	0.11499	0.27762	0.3641	0.058
Mof_H 	H 	0.20055	0.30897	0.36782	0.062
Mof_H 	H 	0.02701	0.29401	0.32041	0.052
Mof_C 	C 	0.3496	0.4295	0.5277	0.079
Mof_C 	C 	0.3476	0.4004	0.429	0.069
Mof_C 	C 	0.2813	0.4268	0.5301	-0.117
Mof_C 	C 	0.2781	0.3961	0.4284	-0.109
Mof_C 	C 	0.2443	0.4114	0.4813	0.105
Mof_C 	C 	0.169	0.4103	0.4816	-0.132
Mof_C 	C 	0.1278	0.4326	0.5272	0.206
Mof_C 	C 	0.1281	0.3737	0.4342	0.038
Mof_C 	C 	0.1472	0.4913	0.5868	-0.222
Mof_C 	C 	0.0616	0.379	0.449	0.106
Mof_C 	C 	0.1444	0.3191	0.371	-0.16
Mof_N 	N 	0.3836	0.4161	0.47856	-0.147
Mof_N 	N 	0.0616	0.418	0.5074	-0.468
Mof_H 	H 	0.38081	0.12624	0.55578	0.023
Mof_H 	H 	0.2555	0.13664	0.56211	0.054
Mof_H 	H 	0.24928	0.00423	0.62007	0.051
Mof_H 	H 	0.12268	0.13629	0.50919	0.11
Mof_H 	H 	0.12902	0.05189	0.46731	0.093
Mof_H 	H 	0.20415	0.09898	0.50649	0.07
Mof_H 	H 	0.17864	0.09025	0.71389	0.063
Mof_H 	H 	0.17082	0.00645	0.66413	0.058
Mof_H 	H 	0.09579	0.05264	0.70501	0.058
Mof_H 	H 	0.02701	0.02639	0.70599	0.048
Mof_C 	C 	0.3496	0.0982	0.5705	0.08
Mof_C 	C 	0.3476	0.0286	0.5996	0.069
Mof_C 	C 	0.2813	0.1033	0.5732	-0.119
Mof_C 	C 	0.2781	0.0323	0.6039	-0.108
Mof_C 	C 	0.2443	0.0699	0.5886	0.104
Mof_C 	C 	0.169	0.0713	0.5897	-0.132
Mof_C 	C 	0.1278	0.0946	0.5674	0.205
Mof_C 	C 	0.1281	0.0605	0.6263	0.039
Mof_C 	C 	0.1472	0.0955	0.5087	-0.216
Mof_C 	C 	0.0616	0.07	0.621	0.107
Mof_C 	C 	0.1444	0.0519	0.6809	-0.158
Mof_N 	N 	0.3836	0.06246	0.5839	-0.147
Mof_N 	N 	0.0616	0.0894	0.582	-0.469
Mof_H 	H 	0.37571	0.38584	0.99557	0.028
Mof_H 	H 	0.37571	0.60973	0.61416	0.028
Mof_H 	H 	0.37571	0.00443	0.39027	0.028
Mof_Cd	Cd	0.5	0.52645	0.93826	0.462
Mof_H 	H 	0.5	0.43153	0.71071	0.044
Mof_H 	H 	0.5	0.62964	0.82509	0.047
Mof_H 	H 	0.5	0.44287	0.61694	0.054
Mof_H 	H 	0.5	0.64021	0.7306	0.046
Mof_C 	C 	0.5	0.527	0.8308	0.321
Mof_C 	C 	0.5	0.5296	0.7732	-0.075
Mof_C 	C 	0.5	0.4788	0.716	-0.001
Mof_C 	C 	0.5	0.587	0.7783	-0.006
Mof_C 	C 	0.5	0.485	0.6641	-0.011
Mof_C 	C 	0.5	0.5931	0.7257	-0.006
Mof_C 	C 	0.5	0.5417	0.6697	-0.076
Mof_C 	C 	0.5	0.5484	0.6146	0.312
Mof_O 	O 	0.5	0.4764	0.8269	-0.281
Mof_O 	O 	0.5	0.574	0.88	-0.278
Mof_O 	O 	0.5	0.5026	0.5631	-0.3
Mof_O 	O 	0.5	0.6013	0.62246	-0.28
Mof_Cd	Cd	0.5	0.41181	0.47355	0.462
Mof_H 	H 	0.5	0.27918	0.56847	0.044
Mof_H 	H 	0.5	0.19546	0.37036	0.047
Mof_H 	H 	0.5	0.17407	0.55713	0.054
Mof_H 	H 	0.5	0.09039	0.35979	0.046
Mof_C 	C 	0.5	0.3038	0.473	0.321
Mof_C 	C 	0.5	0.2436	0.4704	-0.075
Mof_C 	C 	0.5	0.2372	0.5212	-0.001
Mof_C 	C 	0.5	0.1913	0.413	-0.006
Mof_C 	C 	0.5	0.1791	0.515	-0.011
Mof_C 	C 	0.5	0.1326	0.4069	-0.006
Mof_C 	C 	0.5	0.128	0.4583	-0.076
Mof_C 	C 	0.5	0.0662	0.4516	0.312
Mof_O 	O 	0.5	0.3505	0.5236	-0.281
Mof_O 	O 	0.5	0.306	0.426	-0.278
Mof_O 	O 	0.5	0.0605	0.4974	-0.299
Mof_O 	O 	0.5	0.02116	0.3987	-0.28
Mof_Cd	Cd	0.5	0.06174	0.58819	0.462
Mof_H 	H 	0.5	0.28929	0.72082	0.044
Mof_H 	H 	0.5	0.17491	0.80454	0.047
Mof_H 	H 	0.5	0.38306	0.82593	0.054
Mof_H 	H 	0.5	0.2694	0.90961	0.046
Mof_C 	C 	0.5	0.1692	0.6962	0.321
Mof_C 	C 	0.5	0.2268	0.7564	-0.075
Mof_C 	C 	0.5	0.284	0.7628	-0.001
Mof_C 	C 	0.5	0.2217	0.8087	-0.006
Mof_C 	C 	0.5	0.3359	0.8209	-0.011
Mof_C 	C 	0.5	0.2743	0.8674	-0.006
Mof_C 	C 	0.5	0.3303	0.872	-0.076
Mof_C 	C 	0.5	0.3854	0.9338	0.312
Mof_O 	O 	0.5	0.1731	0.6495	-0.281
Mof_O 	O 	0.5	0.12	0.694	-0.278
Mof_O 	O 	0.5	0.4369	0.9395	-0.299
Mof_O 	O 	0.5	0.37754	0.97884	-0.28
Mof_H 	H 	0.94597	0.66163	0.93147	0.046
Mof_H 	H 	0.94597	0.26983	0.33837	0.053
Mof_H 	H 	0.94597	0.06853	0.73017	0.044
_end
