data_functionalizedCrystal
_audit_creation_method	'EQeq! by Chris Wilmer'
_symmetry_space_group_name_H-M	'P1'
_symmetry_Int_Tables_number	1
_symmetry_cell_setting	triclinic
loop_
_symmetry_equiv_pos_as_xyz
  x,y,z
_cell_length_a	7.6486
_cell_length_b	22.019
_cell_length_c	6.155
_cell_angle_alpha	90
_cell_angle_beta	90
_cell_angle_gamma	90
loop_
_atom_site_label
_atom_site_type_symbol
_atom_site_fract_x
_atom_site_fract_y
_atom_site_fract_z
_atom_site_charge
Mof_Ce	Ce	0.47938	0.85422	0.56072	2.873
Mof_O 	O 	0.3847	0.96179	0.4185	-0.505
Mof_O 	O 	0.6013	0.95719	0.687	-0.528
Mof_O 	O 	0.5274	0.8458	0.1649	-0.585
Mof_O 	O 	0.6861	0.83676	0.8632	-0.576
Mof_O 	O 	0.7878	0.86209	0.4166	-0.666
Mof_H 	H 	0.8592	0.8853	0.4712	0.306
Mof_O 	O 	0.8416	0.73682	0.2173	-0.607
Mof_H 	H 	0.7635	0.7436	0.3054	0.274
Mof_O 	O 	0.1927	0.83551	0.3678	-0.585
Mof_O 	O 	0.086	0.75043	0.5063	-0.607
Mof_C 	C 	0.6701	0.84335	0.0653	0.441
Mof_C 	C 	0.8379	0.84894	0.1991	0.032
Mof_H 	H 	0.9082	0.8826	0.1424	0.003
Mof_C 	C 	0.9454	0.79023	0.1898	0.02
Mof_H 	H 	0.0035	0.7881	0.0481	0.014
Mof_C 	C 	0.0867	0.79219	0.3678	0.432
Mof_Ce	Ce	0.52062	0.14578	0.56072	2.861
Mof_O 	O 	0.6153	0.03821	0.4185	-0.532
Mof_O 	O 	0.3987	0.04281	0.687	-0.561
Mof_O 	O 	0.4726	0.1542	0.1649	-0.581
Mof_O 	O 	0.3139	0.16324	0.8632	-0.577
Mof_O 	O 	0.2122	0.13791	0.4166	-0.675
Mof_H 	H 	0.1408	0.1147	0.4712	0.293
Mof_O 	O 	0.1584	0.26318	0.2173	-0.582
Mof_H 	H 	0.2365	0.2564	0.3054	0.267
Mof_O 	O 	0.8073	0.16449	0.3678	-0.593
Mof_O 	O 	0.914	0.24957	0.5063	-0.591
Mof_C 	C 	0.3299	0.15665	0.0653	0.425
Mof_C 	C 	0.1621	0.15106	0.1991	0.068
Mof_H 	H 	0.0918	0.1174	0.1424	-0.026
Mof_C 	C 	0.0546	0.20977	0.1898	-0.085
Mof_H 	H 	0.9965	0.2119	0.0481	0.07
Mof_C 	C 	0.9133	0.20781	0.3678	0.484
Mof_Ce	Ce	0.02062	0.35422	0.43928	2.75
Mof_O 	O 	0.1153	0.46179	0.5815	-0.53
Mof_O 	O 	0.8987	0.45719	0.313	-0.53
Mof_O 	O 	0.9726	0.3458	0.8351	-0.55
Mof_O 	O 	0.8139	0.33676	0.1368	-0.553
Mof_O 	O 	0.7122	0.36209	0.5834	-0.649
Mof_H 	H 	0.6408	0.3853	0.5288	0.296
Mof_O 	O 	0.6584	0.23682	0.7827	-0.602
Mof_H 	H 	0.7365	0.2436	0.6946	0.275
Mof_O 	O 	0.3073	0.33551	0.6322	-0.578
Mof_O 	O 	0.414	0.25043	0.4937	-0.6
Mof_C 	C 	0.8299	0.34335	0.9347	0.426
Mof_C 	C 	0.6621	0.34894	0.8009	0.039
Mof_H 	H 	0.5918	0.3826	0.8576	-0.004
Mof_C 	C 	0.5546	0.29023	0.8102	0.006
Mof_H 	H 	0.4965	0.2881	0.9519	0.02
Mof_C 	C 	0.4133	0.29219	0.6322	0.433
Mof_Ce	Ce	0.97938	0.64578	0.43928	2.913
Mof_O 	O 	0.8847	0.53821	0.5815	-0.523
Mof_O 	O 	0.1013	0.54281	0.313	-0.565
Mof_O 	O 	0.0274	0.6542	0.8351	-0.594
Mof_O 	O 	0.1861	0.66324	0.1368	-0.582
Mof_O 	O 	0.2878	0.63791	0.5834	-0.674
Mof_H 	H 	0.3592	0.6147	0.5288	0.301
Mof_O 	O 	0.3416	0.76318	0.7827	-0.602
Mof_H 	H 	0.2635	0.7564	0.6946	0.273
Mof_O 	O 	0.6927	0.66449	0.6322	-0.59
Mof_O 	O 	0.586	0.74957	0.4937	-0.605
Mof_C 	C 	0.1701	0.65665	0.9347	0.439
Mof_C 	C 	0.3379	0.65106	0.8009	0.038
Mof_H 	H 	0.4082	0.6174	0.8576	-0.006
Mof_C 	C 	0.4454	0.70977	0.8102	0.004
Mof_H 	H 	0.5035	0.7119	0.9519	0.021
Mof_C 	C 	0.5867	0.70781	0.6322	0.44
Mof_S 	S 	0.5	0	0.5532	0.613
Mof_S 	S 	-1.08281e-32	0.5	0.4468	0.649
_end
