data_functionalizedCrystal
_audit_creation_method	'EQeq! by Chris Wilmer'
_symmetry_space_group_name_H-M	'P1'
_symmetry_Int_Tables_number	1
_symmetry_cell_setting	triclinic
loop_
_symmetry_equiv_pos_as_xyz
  x,y,z
_cell_length_a	12.865
_cell_length_b	24.162
_cell_length_c	12.368
_cell_angle_alpha	90
_cell_angle_beta	90
_cell_angle_gamma	90
loop_
_atom_site_label
_atom_site_type_symbol
_atom_site_fract_x
_atom_site_fract_y
_atom_site_fract_z
_atom_site_charge
Mof_C 	C 	0.7222	0.3299	0.5097	0.267
Mof_C 	C 	0.7003	0.2726	0.516	-0.218
Mof_H 	H 	0.6952	0.2549	0.5826	0.093
Mof_C 	C 	0.6867	0.2434	0.4207	0.054
Mof_C 	C 	0.6913	0.2695	0.3205	-0.226
Mof_H 	H 	0.6811	0.2494	0.2572	0.112
Mof_C 	C 	0.7115	0.3268	0.3162	0.261
Mof_C 	C 	0.7287	0.3567	0.4104	-0.315
Mof_H 	H 	0.7444	0.3942	0.4071	0.136
Mof_C 	C 	0.763	0.4118	0.6129	0.11
Mof_H 	H 	0.7149	0.4341	0.5696	-0.011
Mof_C 	C 	0.8729	0.4193	0.5697	0.373
Mof_C 	C 	0.7556	0.4293	0.7289	-0.502
Mof_H 	H 	0.809	0.4112	0.77	0.17
Mof_H 	H 	0.6887	0.4192	0.7571	0.184
Mof_H 	H 	0.7644	0.4686	0.734	0.152
Mof_C 	C 	0.7239	0.4064	0.2	-0.008
Mof_H 	H 	0.7882	0.4187	0.235	0.034
Mof_C 	C 	0.6339	0.4373	0.2468	0.54
Mof_C 	C 	0.7319	0.4165	0.0797	-0.374
Mof_H 	H 	0.673	0.4003	0.044	0.121
Mof_H 	H 	0.7945	0.3999	0.0526	0.143
Mof_H 	H 	0.7332	0.4556	0.0661	0.114
Mof_C 	C 	0.6609	0.1829	0.4253	0.275
Mof_C 	C 	0.5267	0.5476	0.742	0.21
Mof_C 	C 	0.5266	0.5475	0.8546	-0.121
Mof_H 	H 	0.5444	0.5794	0.8925	0.054
Mof_C 	C 	0.5476	0.6039	0.5822	0.036
Mof_H 	H 	0.4818	0.5884	0.556	0.021
Mof_C 	C 	0.639	0.5752	0.5218	0.517
Mof_C 	C 	0.5488	0.666	0.5603	-0.429
Mof_H 	H 	0.6118	0.6817	0.5884	0.154
Mof_H 	H 	0.4901	0.683	0.595	0.163
Mof_H 	H 	0.5452	0.6724	0.4838	0.128
Mof_C 	C 	0.9872	0.5485	0.0685	0.221
Mof_C 	C 	0.9848	0.5494	0.9568	-0.148
Mof_H 	H 	0.9733	0.5823	0.9197	0.083
Mof_C 	C 	0.9852	0.6039	0.2302	-0.056
Mof_H 	H 	0.0494	0.5854	0.2529	0.042
Mof_C 	C 	0.895	0.5782	0.2855	0.605
Mof_C 	C 	0.9917	0.6649	0.2566	-0.292
Mof_H 	H 	0.9275	0.6826	0.2372	0.106
Mof_H 	H 	0.0478	0.6813	0.2166	0.115
Mof_H 	H 	0.0039	0.6695	0.3326	0.095
Mof_Nd	Nd	0.89729	0.56812	0.56045	2.745
Mof_Nd	Nd	0.37584	0.41814	0.23116	2.612
Mof_O 	O 	0.7131	0.3482	0.2139	-0.26
Mof_O 	O 	0.5555	0.4132	0.2711	-0.658
Mof_O 	O 	0.6532	0.4892	0.255	-0.649
Mof_O 	O 	0.7319	0.3548	0.608	-0.27
Mof_O 	O 	0.9018	0.46759	0.5449	-0.685
Mof_O 	O 	0.9337	0.37974	0.5697	-0.499
Mof_O 	O 	0.6674	0.15861	0.5153	-0.477
Mof_O 	O 	0.6382	0.1571	0.3413	-0.475
Mof_O 	O 	0.5529	0.597	0.6958	-0.246
Mof_O 	O 	0.7143	0.5596	0.5773	-0.625
Mof_O 	O 	0.6298	0.5724	0.4232	-0.619
Mof_O 	O 	0.543	0.5393	0.0773	-0.666
Mof_O 	O 	0.975	0.6004	0.1156	-0.236
Mof_O 	O 	0.9136	0.5583	0.3768	-0.687
Mof_O 	O 	0.8112	0.578	0.2426	-0.637
Mof_O 	O 	0.9537	0.5394	0.7324	-0.631
Mof_O 	O 	0.3103	0.3292	0.3076	-0.904
Mof_H 	H 	0.2794	0.3004	0.3302	0.379
Mof_H 	H 	0.373	0.3276	0.3289	0.244
Mof_C 	C 	0.2778	0.6701	0.5097	0.267
Mof_C 	C 	0.2997	0.7274	0.516	-0.217
Mof_H 	H 	0.3048	0.7451	0.5826	0.094
Mof_C 	C 	0.3133	0.7566	0.4207	0.054
Mof_C 	C 	0.3087	0.7305	0.3205	-0.225
Mof_H 	H 	0.3189	0.7506	0.2572	0.112
Mof_C 	C 	0.2885	0.6732	0.3162	0.261
Mof_C 	C 	0.2713	0.6433	0.4104	-0.315
Mof_H 	H 	0.2556	0.6058	0.4071	0.136
Mof_C 	C 	0.237	0.5882	0.6129	0.106
Mof_H 	H 	0.2851	0.5659	0.5696	-0.009
Mof_C 	C 	0.1271	0.5807	0.5697	0.375
Mof_C 	C 	0.2444	0.5707	0.7289	-0.494
Mof_H 	H 	0.191	0.5888	0.77	0.164
Mof_H 	H 	0.3113	0.5808	0.7571	0.181
Mof_H 	H 	0.2356	0.5314	0.734	0.149
Mof_C 	C 	0.2761	0.5936	0.2	-0.009
Mof_H 	H 	0.2118	0.5813	0.235	0.033
Mof_C 	C 	0.3661	0.5627	0.2468	0.541
Mof_C 	C 	0.2681	0.5835	0.0797	-0.371
Mof_H 	H 	0.327	0.5997	0.044	0.12
Mof_H 	H 	0.2055	0.6001	0.0526	0.14
Mof_H 	H 	0.2668	0.5444	0.0661	0.112
Mof_C 	C 	0.3391	0.8171	0.4253	0.275
Mof_C 	C 	0.4733	0.4524	0.742	0.21
Mof_C 	C 	0.4734	0.4525	0.8546	-0.121
Mof_H 	H 	0.4556	0.4206	0.8925	0.053
Mof_C 	C 	0.4524	0.3961	0.5822	0.037
Mof_H 	H 	0.5182	0.4116	0.556	0.021
Mof_C 	C 	0.361	0.4248	0.5218	0.515
Mof_C 	C 	0.4512	0.334	0.5603	-0.43
Mof_H 	H 	0.3882	0.3183	0.5884	0.155
Mof_H 	H 	0.5099	0.317	0.595	0.163
Mof_H 	H 	0.4548	0.3276	0.4838	0.128
Mof_C 	C 	0.0128	0.4515	0.0685	0.222
Mof_C 	C 	0.0152	0.4506	0.9568	-0.165
Mof_H 	H 	0.0267	0.4177	0.9197	0.084
Mof_C 	C 	0.0148	0.3961	0.2302	-0.024
Mof_H 	H 	0.9506	0.4146	0.2529	0.04
Mof_C 	C 	0.105	0.4218	0.2855	0.589
Mof_C 	C 	0.0083	0.3351	0.2566	-0.438
Mof_H 	H 	0.0725	0.3174	0.2372	0.147
Mof_H 	H 	0.9522	0.3187	0.2166	0.167
Mof_H 	H 	0.9961	0.3305	0.3326	0.15
Mof_Nd	Nd	0.10271	0.43188	0.56045	2.718
Mof_Nd	Nd	0.62416	0.58186	0.23116	2.615
Mof_O 	O 	0.2869	0.6518	0.2139	-0.26
Mof_O 	O 	0.4445	0.5868	0.2711	-0.658
Mof_O 	O 	0.3468	0.5108	0.255	-0.649
Mof_O 	O 	0.2681	0.6452	0.608	-0.27
Mof_O 	O 	0.0982	0.53241	0.5449	-0.689
Mof_O 	O 	0.0663	0.62026	0.5697	-0.509
Mof_O 	O 	0.3326	0.84139	0.5153	-0.48
Mof_O 	O 	0.3618	0.8429	0.3413	-0.477
Mof_O 	O 	0.4471	0.403	0.6958	-0.247
Mof_O 	O 	0.2857	0.4404	0.5773	-0.622
Mof_O 	O 	0.3702	0.4276	0.4232	-0.618
Mof_O 	O 	0.457	0.4607	0.0773	-0.665
Mof_O 	O 	0.025	0.3996	0.1156	-0.246
Mof_O 	O 	0.0864	0.4417	0.3768	-0.685
Mof_O 	O 	0.1888	0.422	0.2426	-0.632
Mof_O 	O 	0.0463	0.4606	0.7324	-0.638
Mof_O 	O 	0.6897	0.6708	0.3076	-0.904
Mof_H 	H 	0.7206	0.6996	0.3302	0.38
Mof_H 	H 	0.627	0.6724	0.3289	0.244
Mof_C 	C 	0.7778	0.8299	0.4903	0.269
Mof_C 	C 	0.7997	0.7726	0.484	-0.218
Mof_H 	H 	0.8048	0.7549	0.4174	0.095
Mof_C 	C 	0.8133	0.7434	0.5793	0.057
Mof_C 	C 	0.8087	0.7695	0.6795	-0.226
Mof_H 	H 	0.8189	0.7494	0.7428	0.114
Mof_C 	C 	0.7885	0.8268	0.6838	0.263
Mof_C 	C 	0.7713	0.8567	0.5896	-0.316
Mof_H 	H 	0.7556	0.8942	0.5929	0.138
Mof_C 	C 	0.737	0.9118	0.3871	0.114
Mof_H 	H 	0.7851	0.9341	0.4304	-0.009
Mof_C 	C 	0.6271	0.9193	0.4303	0.371
Mof_C 	C 	0.7444	0.9293	0.2711	-0.513
Mof_H 	H 	0.691	0.9112	0.23	0.172
Mof_H 	H 	0.8113	0.9192	0.2429	0.19
Mof_H 	H 	0.7356	0.9686	0.266	0.159
Mof_C 	C 	0.7761	0.9064	0.8	0.001
Mof_H 	H 	0.7118	0.9187	0.765	0.032
Mof_C 	C 	0.8661	0.9373	0.7532	0.536
Mof_C 	C 	0.7681	0.9165	0.9203	-0.39
Mof_H 	H 	0.827	0.9003	0.956	0.129
Mof_H 	H 	0.7055	0.8999	0.9474	0.148
Mof_H 	H 	0.7668	0.9556	0.9339	0.123
Mof_C 	C 	0.8391	0.6829	0.5747	0.276
Mof_C 	C 	0.9733	0.0476	0.258	0.22
Mof_C 	C 	0.9734	0.0475	0.1454	-0.122
Mof_H 	H 	0.9556	0.0794	0.1075	0.054
Mof_C 	C 	0.9524	0.1039	0.4178	0.04
Mof_H 	H 	0.0182	0.0884	0.444	0.015
Mof_C 	C 	0.861	0.0752	0.4782	0.515
Mof_C 	C 	0.9512	0.166	0.4397	-0.409
Mof_H 	H 	0.8882	0.1817	0.4116	0.149
Mof_H 	H 	0.0099	0.183	0.405	0.152
Mof_H 	H 	0.9548	0.1724	0.5162	0.124
Mof_C 	C 	0.5128	0.0485	0.9315	0.226
Mof_C 	C 	0.5152	0.0494	0.0432	-0.167
Mof_H 	H 	0.5267	0.0823	0.0803	0.086
Mof_C 	C 	0.5148	0.1039	0.7698	-0.035
Mof_H 	H 	0.4506	0.0854	0.7471	0.039
Mof_C 	C 	0.605	0.0782	0.7145	0.594
Mof_C 	C 	0.5083	0.1649	0.7434	-0.377
Mof_H 	H 	0.5725	0.1826	0.7628	0.13
Mof_H 	H 	0.4522	0.1813	0.7834	0.145
Mof_H 	H 	0.4961	0.1695	0.6674	0.127
Mof_Nd	Nd	0.60271	0.06812	0.43955	2.715
Mof_Nd	Nd	0.12416	0.91814	0.76884	2.609
Mof_O 	O 	0.7869	0.8482	0.7861	-0.262
Mof_O 	O 	0.9445	0.9132	0.7289	-0.649
Mof_O 	O 	0.8468	0.9892	0.745	-0.637
Mof_O 	O 	0.7681	0.8548	0.392	-0.271
Mof_O 	O 	0.5982	0.96759	0.4551	-0.679
Mof_O 	O 	0.5663	0.87974	0.4303	-0.504
Mof_O 	O 	0.8326	0.65861	0.4847	-0.478
Mof_O 	O 	0.8618	0.6571	0.6587	-0.475
Mof_O 	O 	0.9471	0.097	0.3042	-0.248
Mof_O 	O 	0.7857	0.0596	0.4227	-0.625
Mof_O 	O 	0.8702	0.0724	0.5768	-0.618
Mof_O 	O 	0.957	0.0393	0.9227	-0.655
Mof_O 	O 	0.525	0.1004	0.8844	-0.244
Mof_O 	O 	0.5864	0.0583	0.6232	-0.687
Mof_O 	O 	0.6888	0.078	0.7574	-0.636
Mof_O 	O 	0.5463	0.0394	0.2676	-0.637
Mof_O 	O 	0.1897	0.8292	0.6924	-0.903
Mof_H 	H 	0.2206	0.8004	0.6698	0.379
Mof_H 	H 	0.127	0.8276	0.6711	0.242
Mof_C 	C 	0.2222	0.1701	0.4903	0.266
Mof_C 	C 	0.2003	0.2274	0.484	-0.217
Mof_H 	H 	0.1952	0.2451	0.4174	0.093
Mof_C 	C 	0.1867	0.2566	0.5793	0.053
Mof_C 	C 	0.1913	0.2305	0.6795	-0.224
Mof_H 	H 	0.1811	0.2506	0.7428	0.111
Mof_C 	C 	0.2115	0.1732	0.6838	0.259
Mof_C 	C 	0.2287	0.1433	0.5896	-0.314
Mof_H 	H 	0.2444	0.1058	0.5929	0.135
Mof_C 	C 	0.263	0.0882	0.3871	0.103
Mof_H 	H 	0.2149	0.0659	0.4304	-0.011
Mof_C 	C 	0.3729	0.0807	0.4303	0.377
Mof_C 	C 	0.2556	0.0707	0.2711	-0.489
Mof_H 	H 	0.309	0.0888	0.23	0.164
Mof_H 	H 	0.1887	0.0808	0.2429	0.179
Mof_H 	H 	0.2644	0.0314	0.266	0.144
Mof_C 	C 	0.2239	0.0936	0.8	-0.012
Mof_H 	H 	0.2882	0.0813	0.765	0.034
Mof_C 	C 	0.1339	0.0627	0.7532	0.542
Mof_C 	C 	0.2319	0.0835	0.9203	-0.365
Mof_H 	H 	0.173	0.0997	0.956	0.117
Mof_H 	H 	0.2945	0.1001	0.9474	0.139
Mof_H 	H 	0.2332	0.0444	0.9339	0.108
Mof_C 	C 	0.1609	0.3171	0.5747	0.275
Mof_C 	C 	0.0267	0.9524	0.258	0.222
Mof_C 	C 	0.0266	0.9525	0.1454	-0.116
Mof_H 	H 	0.0444	0.9206	0.1075	0.052
Mof_C 	C 	0.0476	0.8961	0.4178	0.034
Mof_H 	H 	0.9818	0.9116	0.444	0.03
Mof_C 	C 	0.139	0.9248	0.4782	0.517
Mof_C 	C 	0.0488	0.834	0.4397	-0.463
Mof_H 	H 	0.1118	0.8183	0.4116	0.164
Mof_H 	H 	0.9901	0.817	0.405	0.18
Mof_H 	H 	0.0452	0.8276	0.5162	0.135
Mof_C 	C 	0.4872	0.9515	0.9315	0.236
Mof_C 	C 	0.4848	0.9506	0.0432	-0.157
Mof_H 	H 	0.4733	0.9177	0.0803	0.084
Mof_C 	C 	0.4852	0.8961	0.7698	-0.035
Mof_H 	H 	0.5494	0.9146	0.7471	0.041
Mof_C 	C 	0.395	0.9218	0.7145	0.596
Mof_C 	C 	0.4917	0.8351	0.7434	-0.376
Mof_H 	H 	0.4275	0.8174	0.7628	0.129
Mof_H 	H 	0.5478	0.8187	0.7834	0.145
Mof_H 	H 	0.5039	0.8305	0.6674	0.126
Mof_Nd	Nd	0.39729	0.93188	0.43955	2.744
Mof_Nd	Nd	0.87584	0.08186	0.76884	2.604
Mof_O 	O 	0.2131	0.1518	0.7861	-0.26
Mof_O 	O 	0.0555	0.0868	0.7289	-0.662
Mof_O 	O 	0.1532	0.0108	0.745	-0.657
Mof_O 	O 	0.2319	0.1452	0.392	-0.269
Mof_O 	O 	0.4018	0.03241	0.4551	-0.693
Mof_O 	O 	0.4337	0.12026	0.4303	-0.503
Mof_O 	O 	0.1674	0.34139	0.4847	-0.479
Mof_O 	O 	0.1382	0.3429	0.6587	-0.477
Mof_O 	O 	0.0529	0.903	0.3042	-0.25
Mof_O 	O 	0.2143	0.9404	0.4227	-0.621
Mof_O 	O 	0.1298	0.9276	0.5768	-0.618
Mof_O 	O 	0.043	0.9607	0.9227	-0.655
Mof_O 	O 	0.475	0.8996	0.8844	-0.244
Mof_O 	O 	0.4136	0.9417	0.6232	-0.683
Mof_O 	O 	0.3112	0.922	0.7574	-0.631
Mof_O 	O 	0.4537	0.9606	0.2676	-0.628
Mof_O 	O 	0.8103	0.1708	0.6924	-0.903
Mof_H 	H 	0.7794	0.1996	0.6698	0.38
Mof_H 	H 	0.873	0.1724	0.6711	0.246
Mof_C 	C 	0.5	0.5	0.6848	-0.266
Mof_H 	H 	0.5	0.5	0.6097	0.122
Mof_C 	C 	0.5	0.5	0.9098	-0.111
Mof_C 	C 	0.5	0.5	0.0306	0.566
Mof_C 	C 	1.13616e-33	0	0.3152	-0.29
Mof_H 	H 	1.40686e-33	1.64153e-33	0.3903	0.124
Mof_C 	C 	1.96666e-33	0	0.0902	-0.118
Mof_C 	C 	3.49425e-33	6.56611e-33	0.9694	0.542
Mof_C 	C 	1.85113e-32	0.5	0.1261	-0.297
Mof_H 	H 	8.93324e-33	0.5	0.2013	0.13
Mof_C 	C 	2.2946e-32	0.5	0.901	-0.063
Mof_C 	C 	9.37838e-33	0.5	0.7802	0.48
Mof_C 	C 	0.5	3.28306e-33	0.8739	-0.312
Mof_H 	H 	0.5	3.28306e-33	0.7987	0.133
Mof_C 	C 	0.5	4.10382e-34	0.099	-0.06
Mof_C 	C 	0.5	0	0.2198	0.474
_end
