data_functionalizedCrystal
_audit_creation_method	'EQeq! by Chris Wilmer'
_symmetry_space_group_name_H-M	'P1'
_symmetry_Int_Tables_number	1
_symmetry_cell_setting	triclinic
loop_
_symmetry_equiv_pos_as_xyz
  x,y,z
_cell_length_a	17.217
_cell_length_b	22.9382
_cell_length_c	22.9382
_cell_angle_alpha	60.942
_cell_angle_beta	67.9577
_cell_angle_gamma	67.9576
loop_
_atom_site_label
_atom_site_type_symbol
_atom_site_fract_x
_atom_site_fract_y
_atom_site_fract_z
_atom_site_charge
Mof_Cu	Cu	0.47607	0.97264	0.97264	0.9
Mof_Cu	Cu	0.92135	0.52736	0.52736	0.903
Mof_Cu	Cu	0.07865	0.47264	0.47264	0.903
Mof_Cu	Cu	0.52393	0.02736	0.02736	0.9
Mof_H 	H 	0.7281	0.8559	0.1109	0.004
Mof_H 	H 	0.8279	0.756	0.1496	0.113
Mof_H 	H 	0.7441	0.6686	0.0774	0.112
Mof_H 	H 	0.6484	0.7709	0.0331	0.006
Mof_H 	H 	0.9365	0.6745	0.0113	0.086
Mof_H 	H 	0.9984	0.6113	0.9461	0.029
Mof_H 	H 	0.1949	0.6441	0.3891	0.003
Mof_H 	H 	0.2335	0.744	0.3504	0.112
Mof_H 	H 	0.9901	0.8314	0.4226	0.111
Mof_H 	H 	0.9524	0.7291	0.4669	0.004
Mof_H 	H 	0.1223	0.8255	0.4887	0.086
Mof_H 	H 	0.0558	0.8887	0.5539	0.029
Mof_H 	H 	0.8051	0.6109	0.3559	0.003
Mof_H 	H 	0.7665	0.6496	0.256	0.112
Mof_H 	H 	0.0099	0.5774	0.1686	0.111
Mof_H 	H 	0.0476	0.5331	0.2709	0.004
Mof_H 	H 	0.8777	0.5113	0.1745	0.086
Mof_H 	H 	0.9442	0.4461	0.1113	0.029
Mof_H 	H 	0.2719	0.8891	0.1441	0.003
Mof_H 	H 	0.1721	0.8504	0.244	0.112
Mof_H 	H 	0.2559	0.9226	0.3314	0.111
Mof_H 	H 	0.3516	0.9669	0.2291	0.005
Mof_H 	H 	0.0635	0.9887	0.3255	0.086
Mof_H 	H 	0.0016	0.0539	0.3887	0.029
Mof_H 	H 	0.2719	0.1441	0.8891	0.003
Mof_H 	H 	0.1721	0.244	0.8504	0.112
Mof_H 	H 	0.2559	0.3314	0.9226	0.111
Mof_H 	H 	0.3516	0.2291	0.9669	0.005
Mof_H 	H 	0.0635	0.3255	0.9887	0.086
Mof_H 	H 	0.0016	0.3887	0.0539	0.029
Mof_H 	H 	0.8051	0.3559	0.6109	0.003
Mof_H 	H 	0.7665	0.256	0.6496	0.112
Mof_H 	H 	0.0099	0.1686	0.5774	0.111
Mof_H 	H 	0.0476	0.2709	0.5331	0.004
Mof_H 	H 	0.8777	0.1745	0.5113	0.086
Mof_H 	H 	0.9442	0.1113	0.4461	0.029
Mof_H 	H 	0.1949	0.3891	0.6441	0.003
Mof_H 	H 	0.2335	0.3504	0.744	0.112
Mof_H 	H 	0.9901	0.4226	0.8314	0.111
Mof_H 	H 	0.9524	0.4669	0.7291	0.004
Mof_H 	H 	0.1223	0.4887	0.8255	0.086
Mof_H 	H 	0.0558	0.5539	0.8887	0.029
Mof_H 	H 	0.7281	0.1109	0.8559	0.003
Mof_H 	H 	0.8279	0.1496	0.756	0.112
Mof_H 	H 	0.7441	0.0774	0.6686	0.111
Mof_H 	H 	0.6484	0.0331	0.7709	0.005
Mof_H 	H 	0.9365	0.0113	0.6745	0.086
Mof_H 	H 	0.9984	0.9461	0.6113	0.029
Mof_C 	C 	0.73158	0.81843	0.10357	0.123
Mof_C 	C 	0.79094	0.75875	0.12695	-0.221
Mof_C 	C 	0.79683	0.70175	0.11719	0.186
Mof_C 	C 	0.74169	0.70667	0.08315	-0.217
Mof_C 	C 	0.68322	0.76764	0.0578	0.12
Mof_C 	C 	0.67573	0.82415	0.06879	-0.173
Mof_C 	C 	0.61117	0.88904	0.04274	0.39
Mof_C 	C 	0.93694	0.6281	0.03202	-0.145
Mof_C 	C 	0.97501	0.58976	0.99282	-0.001
Mof_C 	C 	0.15358	0.68157	0.39643	0.123
Mof_C 	C 	0.17664	0.74125	0.37305	-0.221
Mof_C 	C 	0.11577	0.79825	0.38281	0.186
Mof_C 	C 	0.03151	0.79333	0.41685	-0.217
Mof_C 	C 	0.00866	0.73236	0.4422	0.12
Mof_C 	C 	0.06867	0.67585	0.43121	-0.174
Mof_C 	C 	0.04295	0.61096	0.45726	0.391
Mof_C 	C 	0.09706	0.8719	0.46798	-0.147
Mof_C 	C 	0.05759	0.91024	0.50718	0.003
Mof_C 	C 	0.84642	0.60357	0.31843	0.124
Mof_C 	C 	0.82336	0.62695	0.25875	-0.221
Mof_C 	C 	0.88423	0.61719	0.20175	0.186
Mof_C 	C 	0.96849	0.58315	0.20667	-0.217
Mof_C 	C 	0.99134	0.5578	0.26764	0.12
Mof_C 	C 	0.93133	0.56879	0.32415	-0.174
Mof_C 	C 	0.95705	0.54274	0.38904	0.391
Mof_C 	C 	0.90294	0.53202	0.1281	-0.147
Mof_C 	C 	0.94241	0.49282	0.08976	0.003
Mof_C 	C 	0.26842	0.89643	0.18157	0.123
Mof_C 	C 	0.20906	0.87305	0.24125	-0.221
Mof_C 	C 	0.20317	0.88281	0.29825	0.186
Mof_C 	C 	0.25831	0.91685	0.29333	-0.217
Mof_C 	C 	0.31678	0.9422	0.23236	0.12
Mof_C 	C 	0.32427	0.93121	0.17585	-0.173
Mof_C 	C 	0.38883	0.95726	0.11096	0.39
Mof_C 	C 	0.06306	0.96798	0.3719	-0.145
Mof_C 	C 	0.02499	0.00718	0.41024	-0.001
Mof_C 	C 	0.26842	0.18157	0.89643	0.123
Mof_C 	C 	0.20906	0.24125	0.87305	-0.221
Mof_C 	C 	0.20317	0.29825	0.88281	0.186
Mof_C 	C 	0.25831	0.29333	0.91685	-0.217
Mof_C 	C 	0.31678	0.23236	0.9422	0.12
Mof_C 	C 	0.32427	0.17585	0.93121	-0.173
Mof_C 	C 	0.38883	0.11096	0.95726	0.39
Mof_C 	C 	0.06306	0.3719	0.96798	-0.145
Mof_C 	C 	0.02499	0.41024	0.00718	-0.001
Mof_C 	C 	0.84642	0.31843	0.60357	0.123
Mof_C 	C 	0.82336	0.25875	0.62695	-0.221
Mof_C 	C 	0.88423	0.20175	0.61719	0.186
Mof_C 	C 	0.96849	0.20667	0.58315	-0.217
Mof_C 	C 	0.99134	0.26764	0.5578	0.12
Mof_C 	C 	0.93133	0.32415	0.56879	-0.174
Mof_C 	C 	0.95705	0.38904	0.54274	0.391
Mof_C 	C 	0.90294	0.1281	0.53202	-0.147
Mof_C 	C 	0.94241	0.08976	0.49282	0.003
Mof_C 	C 	0.15358	0.39643	0.68157	0.124
Mof_C 	C 	0.17664	0.37305	0.74125	-0.221
Mof_C 	C 	0.11577	0.38281	0.79825	0.186
Mof_C 	C 	0.03151	0.41685	0.79333	-0.217
Mof_C 	C 	0.00866	0.4422	0.73236	0.12
Mof_C 	C 	0.06867	0.43121	0.67585	-0.174
Mof_C 	C 	0.04295	0.45726	0.61096	0.391
Mof_C 	C 	0.09706	0.46798	0.8719	-0.147
Mof_C 	C 	0.05759	0.50718	0.91024	0.003
Mof_C 	C 	0.73158	0.10357	0.81843	0.123
Mof_C 	C 	0.79094	0.12695	0.75875	-0.221
Mof_C 	C 	0.79683	0.11719	0.70175	0.186
Mof_C 	C 	0.74169	0.08315	0.70667	-0.217
Mof_C 	C 	0.68322	0.0578	0.76764	0.12
Mof_C 	C 	0.67573	0.06879	0.82415	-0.173
Mof_C 	C 	0.61117	0.04274	0.88904	0.39
Mof_C 	C 	0.93694	0.03202	0.6281	-0.145
Mof_C 	C 	0.97501	0.99282	0.58976	-0.001
Mof_C 	C 	0.90013	0.59987	0.09987	0.14
Mof_C 	C 	0.97913	0.52087	0.02087	-0.014
Mof_C 	C 	0.09987	0.90013	0.40013	0.14
Mof_C 	C 	0.02087	0.97913	0.47913	-0.014
Mof_C 	C 	0.09987	0.40013	0.90013	0.14
Mof_C 	C 	0.02087	0.47913	0.97913	-0.014
Mof_C 	C 	0.90013	0.09987	0.59987	0.14
Mof_C 	C 	0.97913	0.02087	0.52087	-0.014
Mof_N 	N 	0.85998	0.64002	0.14002	-0.191
Mof_N 	N 	0.14002	0.85998	0.35998	-0.191
Mof_N 	N 	0.14002	0.35998	0.85998	-0.191
Mof_N 	N 	0.85998	0.14002	0.64002	-0.191
Mof_O 	O 	0.56575	0.8912	0.01032	-0.417
Mof_O 	O 	0.60645	0.93797	0.05653	-0.409
Mof_O 	O 	0.96727	0.6088	0.48968	-0.419
Mof_O 	O 	0.10095	0.56203	0.44347	-0.41
Mof_O 	O 	0.03273	0.51032	0.3912	-0.419
Mof_O 	O 	0.89905	0.55653	0.43797	-0.41
Mof_O 	O 	0.43425	0.98968	0.1088	-0.417
Mof_O 	O 	0.39355	0.94347	0.06203	-0.409
Mof_O 	O 	0.43425	0.1088	0.98968	-0.417
Mof_O 	O 	0.39355	0.06203	0.94347	-0.409
Mof_O 	O 	0.03273	0.3912	0.51032	-0.419
Mof_O 	O 	0.89905	0.43797	0.55653	-0.41
Mof_O 	O 	0.96727	0.48968	0.6088	-0.419
Mof_O 	O 	0.10095	0.44347	0.56203	-0.41
Mof_O 	O 	0.56575	0.01032	0.8912	-0.417
Mof_O 	O 	0.60645	0.05653	0.93797	-0.409
_end
