data_functionalizedCrystal
_audit_creation_method	'EQeq! by Chris Wilmer'
_symmetry_space_group_name_H-M	'P1'
_symmetry_Int_Tables_number	1
_symmetry_cell_setting	triclinic
loop_
_symmetry_equiv_pos_as_xyz
  x,y,z
_cell_length_a	15.5149
_cell_length_b	29.726
_cell_length_c	22.6206
_cell_angle_alpha	90
_cell_angle_beta	97.549
_cell_angle_gamma	90
loop_
_atom_site_label
_atom_site_type_symbol
_atom_site_fract_x
_atom_site_fract_y
_atom_site_fract_z
_atom_site_charge
Mof_N 	N 	0.4357	0.0969	0.2914	-0.225
Mof_O 	O 	0.3876	0.05737	0.1867	-0.478
Mof_O 	O 	0.4216	0.00645	0.3297	-0.5
Mof_O 	O 	0.0779	0.464	0.2941	-0.495
Mof_C 	C 	0.375	0.1178	0.2534	-0.002
Mof_C 	C 	0.4524	0.1138	0.3467	0.112
Mof_C 	C 	0.354	0.0964	0.1918	0.325
Mof_C 	C 	0.3639	0.0157	0.3606	0.435
Mof_C 	C 	0.3308	0.1556	0.269	-0.083
Mof_C 	C 	0.4108	0.1505	0.3669	-0.137
Mof_H 	H 	0.4949	0.0997	0.3732	-0.011
Mof_O 	O 	0.3075	0.1166	0.1522	-0.258
Mof_C 	C 	0.3661	0.9922	0.4204	-0.055
Mof_O 	O 	0.3011	0.0427	0.3467	-0.511
Mof_C 	C 	0.3472	0.1719	0.3267	0.044
Mof_H 	H 	0.2906	0.1699	0.241	0.076
Mof_H 	H 	0.4243	0.1607	0.4059	0.083
Mof_C 	C 	0.4281	0.9612	0.4401	-0.033
Mof_N 	N 	0.3001	0.0041	0.4512	-0.217
Mof_Dy	Dy	0.19033	0.05769	0.40334	2.009
Mof_C 	C 	0.2972	0.2109	0.346	0.065
Mof_H 	H 	0.4714	0.953	0.4174	0.067
Mof_C 	C 	0.4233	0.9425	0.4957	0.009
Mof_C 	C 	0.2952	0.9856	0.5046	0.054
Mof_N 	N 	0.1635	0.0274	0.5041	-0.243
Mof_N 	N 	0.0657	0.0898	0.447	-0.207
Mof_O 	O 	0.1427	0.12632	0.3633	-0.471
Mof_O 	O 	0.2765	0.1039	0.4663	-0.686
Mof_N 	N 	0.1277	0.9545	0.7953	-0.213
Mof_O 	O 	0.1197	0.00944	0.8853	-0.523
Mof_C 	C 	0.2533	0.2073	0.3954	-0.118
Mof_C 	C 	0.289	0.2506	0.3131	-0.13
Mof_H 	H 	0.4643	0.9212	0.5107	0.042
Mof_C 	C 	0.3599	0.9545	0.5286	-0.093
Mof_C 	C 	0.2222	0.9995	0.5345	0.083
Mof_C 	C 	0.0944	0.0408	0.5295	0.104
Mof_C 	C 	0.0353	0.0723	0.4942	-0.027
Mof_C 	C 	0.019	0.123	0.4161	-0.099
Mof_C 	C 	0.0697	0.1436	0.3682	0.347
Mof_C 	C 	0.3269	0.1094	0.5114	0.929
Mof_C 	C 	0.198	0.2409	0.4081	0.077
Mof_H 	H 	0.2612	0.1821	0.4198	0.087
Mof_H 	H 	0.3191	0.2547	0.2806	0.08
Mof_C 	C 	0.2344	0.2841	0.3301	0.083
Mof_H 	H 	0.359	0.9426	0.5665	0.083
Mof_C 	C 	0.2119	0.9849	0.5913	-0.16
Mof_C 	C 	0.0829	0.028	0.5864	-0.179
Mof_C 	C 	0.9541	0.0855	0.5085	0.028
Mof_C 	C 	0.9419	0.1377	0.4288	0.071
Mof_O 	O 	0.0347	0.1752	0.3384	-0.255
Mof_H 	H 	0.3678	0.0866	0.5197	-0.296
Mof_O 	O 	0.3323	0.1387	0.5462	-0.726
Mof_C 	C 	0.143	0.2371	0.4566	0.087
Mof_N 	N 	0.1872	0.2786	0.3747	-0.205
Mof_C 	C 	0.2283	0.3285	0.3009	0.061
Mof_H 	H 	0.2523	0.9654	0.6116	0.108
Mof_C 	C 	0.1413	0.9996	0.6176	0.092
Mof_H 	H 	0.0356	0.0387	0.6036	0.096
Mof_H 	H 	0.9318	0.0723	0.5405	0.038
Mof_C 	C 	0.9079	0.1177	0.4756	-0.1
Mof_H 	H 	0.9122	0.1606	0.4068	0.036
Mof_Dy	Dy	0.4423	0.16927	0.61824	1.049
Mof_C 	C 	0.1487	0.2023	0.497	-0.145
Mof_N 	N 	0.0847	0.2697	0.4576	-0.204
Mof_C 	C 	0.2799	0.3421	0.2588	-0.08
Mof_N 	N 	0.1689	0.3564	0.3174	-0.197
Mof_C 	C 	0.1308	0.9839	0.6781	0.009
Mof_H 	H 	0.8534	0.1262	0.4846	0.083
Mof_C 	C 	0.0942	0.2016	0.5409	0.084
Mof_H 	H 	0.1889	0.1793	0.4949	0.094
Mof_C 	C 	0.0305	0.2683	0.4999	-0.016
Mof_O 	O 	0.9778	0.3379	0.4609	-0.407
Mof_O 	O 	0.0464	0.407	0.3528	-0.487
Mof_H 	H 	0.3229	0.3229	0.2484	0.063
Mof_C 	C 	0.2683	0.3839	0.2321	-0.005
Mof_C 	C 	0.1591	0.3972	0.293	-0.054
Mof_C 	C 	0.1438	0.9389	0.6933	-0.116
Mof_C 	C 	0.1124	0.0137	0.7233	-0.054
Mof_C 	C 	0.0345	0.2344	0.5408	-0.167
Mof_H 	H 	0.0988	0.1791	0.5697	-0.001
Mof_C 	C 	0.9673	0.3074	0.4965	0.377
Mof_C 	C 	0.0882	0.4254	0.3155	0.436
Mof_H 	H 	0.3002	0.3925	0.202	0.033
Mof_C 	C 	0.2075	0.4123	0.2517	-0.02
Mof_H 	H 	0.154	0.918	0.6645	0.082
Mof_C 	C 	0.1415	0.9252	0.7523	0.075
Mof_H 	H 	0.1008	0.0438	0.715	0.068
Mof_C 	C 	0.112	0.997	0.7805	-0.045
Mof_H 	H 	0.9956	0.2339	0.5687	0.13
Mof_O 	O 	0.9135	0.3081	0.5299	-0.251
Mof_H 	H 	0.2001	0.4414	0.2367	0.043
Mof_H 	H 	0.1498	0.895	0.762	0.013
Mof_C 	C 	0.1003	0.0278	0.8328	0.404
Mof_O 	O 	0.0723	0.066	0.8236	-0.534
Mof_O 	O 	0.4889	0.1934	0.7269	-0.005
Mof_O 	O 	0.5951	0.1584	0.6446	-0.238
Mof_Dy	Dy	0.0821	0.3421	0.3943	0.708
Mof_O 	O 	0.0151	0.2896	0.3077	-0.283
Mof_H 	H 	0.1048	0.0839	0.8432	0.28
Mof_N 	N 	0.9357	0.5969	0.2914	-0.211
Mof_O 	O 	0.8876	0.55737	0.1867	-0.454
Mof_O 	O 	0.9216	0.50645	0.3297	-0.474
Mof_O 	O 	0.5779	0.964	0.2941	-0.497
Mof_C 	C 	0.875	0.6178	0.2534	0.006
Mof_C 	C 	0.9524	0.6138	0.3467	0.113
Mof_C 	C 	0.854	0.5964	0.1918	0.323
Mof_C 	C 	0.8639	0.5157	0.3606	0.427
Mof_C 	C 	0.8308	0.6556	0.269	-0.083
Mof_C 	C 	0.9108	0.6505	0.3669	-0.132
Mof_H 	H 	0.9949	0.5997	0.3732	0.005
Mof_O 	O 	0.8075	0.6166	0.1522	-0.252
Mof_C 	C 	0.8661	0.4922	0.4204	-0.046
Mof_O 	O 	0.8011	0.5427	0.3467	-0.508
Mof_C 	C 	0.8472	0.6719	0.3267	0.046
Mof_H 	H 	0.7906	0.6699	0.241	0.079
Mof_H 	H 	0.9243	0.6607	0.4059	0.09
Mof_C 	C 	0.9281	0.4612	0.4401	-0.036
Mof_N 	N 	0.8001	0.5041	0.4512	-0.218
Mof_Dy	Dy	0.69033	0.55769	0.40334	2.014
Mof_C 	C 	0.7972	0.7109	0.346	0.07
Mof_H 	H 	0.9714	0.453	0.4174	0.082
Mof_C 	C 	0.9233	0.4425	0.4957	0.017
Mof_C 	C 	0.7952	0.4856	0.5046	0.058
Mof_N 	N 	0.6635	0.5274	0.5041	-0.238
Mof_N 	N 	0.5657	0.5898	0.447	-0.232
Mof_O 	O 	0.6427	0.62632	0.3633	-0.463
Mof_O 	O 	0.7765	0.6039	0.4663	-0.687
Mof_N 	N 	0.6277	0.4545	0.7953	-0.213
Mof_O 	O 	0.6197	0.50944	0.8853	-0.516
Mof_C 	C 	0.7533	0.7073	0.3954	-0.124
Mof_C 	C 	0.789	0.7506	0.3131	-0.131
Mof_H 	H 	0.9643	0.4212	0.5107	0.051
Mof_C 	C 	0.8599	0.4545	0.5286	-0.093
Mof_C 	C 	0.7222	0.4995	0.5345	0.082
Mof_C 	C 	0.5944	0.5408	0.5295	0.083
Mof_C 	C 	0.5353	0.5723	0.4942	0.055
Mof_C 	C 	0.519	0.623	0.4161	-0.011
Mof_C 	C 	0.5697	0.6436	0.3682	0.322
Mof_C 	C 	0.8269	0.6094	0.5114	0.934
Mof_C 	C 	0.698	0.7409	0.4081	0.085
Mof_H 	H 	0.7612	0.6821	0.4198	0.089
Mof_H 	H 	0.8191	0.7547	0.2806	0.085
Mof_C 	C 	0.7344	0.7841	0.3301	0.086
Mof_H 	H 	0.859	0.4426	0.5665	0.088
Mof_C 	C 	0.7119	0.4849	0.5913	-0.154
Mof_C 	C 	0.5829	0.528	0.5864	-0.16
Mof_C 	C 	0.4541	0.5855	0.5085	-0.102
Mof_C 	C 	0.4419	0.6377	0.4288	-0.067
Mof_O 	O 	0.5347	0.6752	0.3384	-0.233
Mof_H 	H 	0.8678	0.5866	0.5197	-0.292
Mof_O 	O 	0.8323	0.6387	0.5462	-0.732
Mof_C 	C 	0.643	0.7371	0.4566	0.069
Mof_N 	N 	0.6872	0.7786	0.3747	-0.207
Mof_C 	C 	0.7283	0.8285	0.3009	0.063
Mof_H 	H 	0.7523	0.4654	0.6116	0.106
Mof_C 	C 	0.6413	0.4996	0.6176	0.087
Mof_H 	H 	0.5356	0.5387	0.6036	0.102
Mof_H 	H 	0.4318	0.5723	0.5405	0.075
Mof_C 	C 	0.4079	0.6177	0.4756	0.013
Mof_H 	H 	0.4122	0.6606	0.4068	0.073
Mof_Dy	Dy	0.9423	0.66927	0.61824	1.06
Mof_C 	C 	0.6487	0.7023	0.497	-0.103
Mof_N 	N 	0.5847	0.7697	0.4576	-0.197
Mof_C 	C 	0.7799	0.8421	0.2588	-0.079
Mof_N 	N 	0.6689	0.8564	0.3174	-0.2
Mof_C 	C 	0.6308	0.4839	0.6781	0.019
Mof_H 	H 	0.3534	0.6262	0.4846	0.04
Mof_C 	C 	0.5942	0.7016	0.5409	0.015
Mof_H 	H 	0.6889	0.6793	0.4949	0.079
Mof_C 	C 	0.5305	0.7683	0.4999	-0.021
Mof_O 	O 	0.4778	0.8379	0.4609	-0.425
Mof_O 	O 	0.5464	0.907	0.3528	-0.478
Mof_H 	H 	0.8229	0.8229	0.2484	0.067
Mof_C 	C 	0.7683	0.8839	0.2321	-0.003
Mof_C 	C 	0.6591	0.8972	0.293	-0.054
Mof_C 	C 	0.6438	0.4389	0.6933	-0.116
Mof_C 	C 	0.6124	0.5137	0.7233	-0.059
Mof_C 	C 	0.5345	0.7344	0.5408	-0.06
Mof_H 	H 	0.5988	0.6791	0.5697	0.03
Mof_C 	C 	0.4673	0.8074	0.4965	0.356
Mof_C 	C 	0.5882	0.9254	0.3155	0.443
Mof_H 	H 	0.8002	0.8925	0.202	0.034
Mof_C 	C 	0.7075	0.9123	0.2517	-0.017
Mof_H 	H 	0.654	0.418	0.6645	0.086
Mof_C 	C 	0.6415	0.4252	0.7523	0.081
Mof_H 	H 	0.6008	0.5438	0.715	0.075
Mof_C 	C 	0.612	0.497	0.7805	-0.035
Mof_H 	H 	0.4956	0.7339	0.5687	0.065
Mof_O 	O 	0.4135	0.8081	0.5299	-0.257
Mof_H 	H 	0.7001	0.9414	0.2367	0.043
Mof_H 	H 	0.6498	0.395	0.762	0.015
Mof_C 	C 	0.6003	0.5278	0.8328	0.403
Mof_O 	O 	0.5723	0.566	0.8236	-0.519
Mof_O 	O 	0.9889	0.6934	0.7269	0.061
Mof_O 	O 	0.0951	0.6584	0.6446	-0.256
Mof_Dy	Dy	0.5821	0.8421	0.3943	0.744
Mof_O 	O 	0.5151	0.7896	0.3077	-0.301
Mof_H 	H 	0.6048	0.5839	0.8432	0.28
Mof_N 	N 	0.5643	0.0969	0.2086	-0.224
Mof_O 	O 	0.6124	0.05737	0.3133	-0.478
Mof_O 	O 	0.5784	0.00645	0.1703	-0.5
Mof_O 	O 	0.9221	0.464	0.2059	-0.469
Mof_C 	C 	0.625	0.1178	0.2466	-0.002
Mof_C 	C 	0.5476	0.1138	0.1533	0.111
Mof_C 	C 	0.646	0.0964	0.3082	0.324
Mof_C 	C 	0.6361	0.0157	0.1394	0.434
Mof_C 	C 	0.6692	0.1556	0.231	-0.083
Mof_C 	C 	0.5892	0.1505	0.1331	-0.136
Mof_H 	H 	0.5051	0.0997	0.1268	-0.011
Mof_O 	O 	0.6925	0.1166	0.3478	-0.256
Mof_C 	C 	0.6339	0.9922	0.0796	-0.054
Mof_O 	O 	0.6989	0.0427	0.1533	-0.513
Mof_C 	C 	0.6528	0.1719	0.1733	0.043
Mof_H 	H 	0.7094	0.1699	0.259	0.079
Mof_H 	H 	0.5757	0.1607	0.0941	0.082
Mof_C 	C 	0.5719	0.9612	0.0599	-0.032
Mof_N 	N 	0.6999	0.0041	0.0488	-0.219
Mof_Dy	Dy	0.80967	0.05769	0.09666	2.016
Mof_C 	C 	0.7028	0.2109	0.154	0.07
Mof_H 	H 	0.5286	0.953	0.0826	0.067
Mof_C 	C 	0.5767	0.9425	0.0043	0.005
Mof_C 	C 	0.7048	0.9856	0.9954	0.057
Mof_N 	N 	0.8365	0.0274	0.9959	-0.233
Mof_N 	N 	0.9343	0.0898	0.053	-0.254
Mof_O 	O 	0.8573	0.12632	0.1367	-0.455
Mof_O 	O 	0.7235	0.1039	0.0337	-0.691
Mof_N 	N 	0.8723	0.9545	0.7047	-0.212
Mof_O 	O 	0.8803	0.00944	0.6147	-0.51
Mof_C 	C 	0.7467	0.2073	0.1046	-0.127
Mof_C 	C 	0.711	0.2506	0.1869	-0.131
Mof_H 	H 	0.5357	0.9212	0.9893	0.044
Mof_C 	C 	0.6401	0.9545	0.9714	-0.091
Mof_C 	C 	0.7778	0.9995	0.9655	0.08
Mof_C 	C 	0.9056	0.0408	0.9705	0.069
Mof_C 	C 	0.9647	0.0723	0.0058	0.123
Mof_C 	C 	0.981	0.123	0.0839	0.073
Mof_C 	C 	0.9303	0.1436	0.1318	0.299
Mof_C 	C 	0.6731	0.1094	0.9886	0.936
Mof_C 	C 	0.802	0.2409	0.0919	0.092
Mof_H 	H 	0.7388	0.1821	0.0802	0.09
Mof_H 	H 	0.6809	0.2547	0.2194	0.082
Mof_C 	C 	0.7656	0.2841	0.1699	0.086
Mof_H 	H 	0.641	0.9426	0.9335	0.083
Mof_C 	C 	0.7881	0.9849	0.9087	-0.15
Mof_C 	C 	0.9171	0.028	0.9136	-0.145
Mof_C 	C 	0.0459	0.0855	0.9915	-0.215
Mof_C 	C 	0.0581	0.1377	0.0712	-0.194
Mof_O 	O 	0.9653	0.1752	0.1616	-0.212
Mof_H 	H 	0.6322	0.0866	0.9803	-0.298
Mof_O 	O 	0.6677	0.1387	0.9538	-0.727
Mof_C 	C 	0.857	0.2371	0.0434	0.054
Mof_N 	N 	0.8128	0.2786	0.1253	-0.21
Mof_C 	C 	0.7717	0.3285	0.1991	0.063
Mof_H 	H 	0.7477	0.9654	0.8884	0.104
Mof_C 	C 	0.8587	0.9996	0.8824	0.083
Mof_H 	H 	0.9644	0.0387	0.8964	0.11
Mof_H 	H 	0.0682	0.0723	0.9595	0.106
Mof_C 	C 	0.0921	0.1177	0.0244	0.111
Mof_H 	H 	0.0878	0.1606	0.0932	0.108
Mof_Dy	Dy	0.5577	0.16927	0.88176	1.05
Mof_C 	C 	0.8513	0.2023	0.003	-0.067
Mof_N 	N 	0.9153	0.2697	0.0424	-0.189
Mof_C 	C 	0.7201	0.3421	0.2412	-0.079
Mof_N 	N 	0.8311	0.3564	0.1826	-0.203
Mof_C 	C 	0.8692	0.9839	0.8219	0.026
Mof_H 	H 	0.1466	0.1262	0.0154	0.003
Mof_C 	C 	0.9058	0.2016	0.9591	-0.049
Mof_H 	H 	0.8111	0.1793	0.0051	0.066
Mof_C 	C 	0.9695	0.2683	0.0001	-0.03
Mof_O 	O 	0.0222	0.3379	0.0391	-0.442
Mof_O 	O 	0.9536	0.407	0.1472	-0.464
Mof_H 	H 	0.6771	0.3229	0.2516	0.063
Mof_C 	C 	0.7317	0.3839	0.2679	-0.003
Mof_C 	C 	0.8409	0.3972	0.207	-0.048
Mof_C 	C 	0.8562	0.9389	0.8067	-0.115
Mof_C 	C 	0.8876	0.0137	0.7767	-0.058
Mof_C 	C 	0.9655	0.2344	0.9592	0.051
Mof_H 	H 	0.9012	0.1791	0.9303	0.06
Mof_C 	C 	0.0327	0.3074	0.0035	0.335
Mof_C 	C 	0.9118	0.4254	0.1845	0.437
Mof_H 	H 	0.6998	0.3925	0.298	0.033
Mof_C 	C 	0.7925	0.4123	0.2483	-0.019
Mof_H 	H 	0.846	0.918	0.8355	0.089
Mof_C 	C 	0.8585	0.9252	0.7477	0.087
Mof_H 	H 	0.8992	0.0438	0.785	0.081
Mof_C 	C 	0.888	0.997	0.7195	-0.028
Mof_H 	H 	0.0044	0.2339	0.9313	0
Mof_O 	O 	0.0865	0.3081	0.9701	-0.259
Mof_H 	H 	0.7999	0.4414	0.2633	0.045
Mof_H 	H 	0.8502	0.895	0.738	0.016
Mof_C 	C 	0.8997	0.0278	0.6672	0.405
Mof_O 	O 	0.9277	0.066	0.6764	-0.504
Mof_O 	O 	0.5111	0.1934	0.7731	-0.005
Mof_O 	O 	0.4049	0.1584	0.8554	-0.239
Mof_Dy	Dy	0.9179	0.3421	0.1057	0.78
Mof_O 	O 	0.9849	0.2896	0.1923	-0.317
Mof_H 	H 	0.8952	0.0839	0.6568	0.28
Mof_N 	N 	0.0643	0.5969	0.2086	-0.224
Mof_O 	O 	0.1124	0.55737	0.3133	-0.474
Mof_O 	O 	0.0784	0.50645	0.1703	-0.498
Mof_O 	O 	0.4221	0.964	0.2059	-0.497
Mof_C 	C 	0.125	0.6178	0.2466	-0.005
Mof_C 	C 	0.0476	0.6138	0.1533	0.107
Mof_C 	C 	0.146	0.5964	0.3082	0.319
Mof_C 	C 	0.1361	0.5157	0.1394	0.432
Mof_C 	C 	0.1692	0.6556	0.231	-0.085
Mof_C 	C 	0.0892	0.6505	0.1331	-0.139
Mof_H 	H 	0.0051	0.5997	0.1268	-0.022
Mof_O 	O 	0.1925	0.6166	0.3478	-0.259
Mof_C 	C 	0.1339	0.4922	0.0796	-0.061
Mof_O 	O 	0.1989	0.5427	0.1533	-0.51
Mof_C 	C 	0.1528	0.6719	0.1733	0.041
Mof_H 	H 	0.2094	0.6699	0.259	0.077
Mof_H 	H 	0.0757	0.6607	0.0941	0.076
Mof_C 	C 	0.0719	0.4612	0.0599	-0.029
Mof_N 	N 	0.1999	0.5041	0.0488	-0.217
Mof_Dy	Dy	0.30967	0.55769	0.09666	2.011
Mof_C 	C 	0.2028	0.7109	0.154	0.066
Mof_H 	H 	0.0286	0.453	0.0826	0.053
Mof_C 	C 	0.0767	0.4425	0.0043	-0.005
Mof_C 	C 	0.2048	0.4856	0.9954	0.053
Mof_N 	N 	0.3365	0.5274	0.9959	-0.238
Mof_N 	N 	0.4343	0.5898	0.053	-0.23
Mof_O 	O 	0.3573	0.62632	0.1367	-0.462
Mof_O 	O 	0.2235	0.6039	0.0337	-0.688
Mof_N 	N 	0.3723	0.4545	0.7047	-0.213
Mof_O 	O 	0.3803	0.50944	0.6147	-0.516
Mof_C 	C 	0.2467	0.7073	0.1046	-0.122
Mof_C 	C 	0.211	0.7506	0.1869	-0.131
Mof_H 	H 	0.0357	0.4212	0.9893	0.036
Mof_C 	C 	0.1401	0.4545	0.9714	-0.089
Mof_C 	C 	0.2778	0.4995	0.9655	0.083
Mof_C 	C 	0.4056	0.5408	0.9705	0.087
Mof_C 	C 	0.4647	0.5723	0.0058	0.048
Mof_C 	C 	0.481	0.623	0.0839	-0.013
Mof_C 	C 	0.4303	0.6436	0.1318	0.323
Mof_C 	C 	0.1731	0.6094	0.9886	0.927
Mof_C 	C 	0.302	0.7409	0.0919	0.084
Mof_H 	H 	0.2388	0.6821	0.0802	0.088
Mof_H 	H 	0.1809	0.7547	0.2194	0.077
Mof_C 	C 	0.2656	0.7841	0.1699	0.084
Mof_H 	H 	0.141	0.4426	0.9335	0.078
Mof_C 	C 	0.2881	0.4849	0.9087	-0.156
Mof_C 	C 	0.4171	0.528	0.9136	-0.163
Mof_C 	C 	0.5459	0.5855	0.9915	-0.091
Mof_C 	C 	0.5581	0.6377	0.0712	-0.061
Mof_O 	O 	0.4653	0.6752	0.1616	-0.233
Mof_H 	H 	0.1322	0.5866	0.9803	-0.301
Mof_O 	O 	0.1677	0.6387	0.9538	-0.72
Mof_C 	C 	0.357	0.7371	0.0434	0.071
Mof_N 	N 	0.3128	0.7786	0.1253	-0.207
Mof_C 	C 	0.2717	0.8285	0.1991	0.06
Mof_H 	H 	0.2477	0.4654	0.8884	0.106
Mof_C 	C 	0.3587	0.4996	0.8824	0.089
Mof_H 	H 	0.4644	0.5387	0.8964	0.103
Mof_H 	H 	0.5682	0.5723	0.9595	0.071
Mof_C 	C 	0.5921	0.6177	0.0244	0.004
Mof_H 	H 	0.5878	0.6606	0.0932	0.072
Mof_Dy	Dy	0.0577	0.66927	0.88176	1.038
Mof_C 	C 	0.3513	0.7023	0.003	-0.106
Mof_N 	N 	0.4153	0.7697	0.0424	-0.197
Mof_C 	C 	0.2201	0.8421	0.2412	-0.078
Mof_N 	N 	0.3311	0.8564	0.1826	-0.199
Mof_C 	C 	0.3692	0.4839	0.8219	0.019
Mof_H 	H 	0.6466	0.6262	0.0154	0.044
Mof_C 	C 	0.4058	0.7016	0.9591	0.018
Mof_H 	H 	0.3111	0.6793	0.0051	0.08
Mof_C 	C 	0.4695	0.7683	0.0001	-0.022
Mof_O 	O 	0.5222	0.8379	0.0391	-0.424
Mof_O 	O 	0.4536	0.907	0.1472	-0.478
Mof_H 	H 	0.1771	0.8229	0.2516	0.058
Mof_C 	C 	0.2317	0.8839	0.2679	-0.008
Mof_C 	C 	0.3409	0.8972	0.207	-0.055
Mof_C 	C 	0.3562	0.4389	0.8067	-0.116
Mof_C 	C 	0.3876	0.5137	0.7767	-0.058
Mof_C 	C 	0.4655	0.7344	0.9592	-0.059
Mof_H 	H 	0.4012	0.6791	0.9303	0.029
Mof_C 	C 	0.5327	0.8074	0.0035	0.354
Mof_C 	C 	0.4118	0.9254	0.1845	0.443
Mof_H 	H 	0.1998	0.8925	0.298	0.032
Mof_C 	C 	0.2925	0.9123	0.2483	-0.016
Mof_H 	H 	0.346	0.418	0.8355	0.086
Mof_C 	C 	0.3585	0.4252	0.7477	0.081
Mof_H 	H 	0.3992	0.5438	0.785	0.075
Mof_C 	C 	0.388	0.497	0.7195	-0.035
Mof_H 	H 	0.5044	0.7339	0.9313	0.066
Mof_O 	O 	0.5865	0.8081	0.9701	-0.254
Mof_H 	H 	0.2999	0.9414	0.2633	0.042
Mof_H 	H 	0.3502	0.395	0.738	0.015
Mof_C 	C 	0.3997	0.5278	0.6672	0.403
Mof_O 	O 	0.4277	0.566	0.6764	-0.519
Mof_O 	O 	0.0111	0.6934	0.7731	-0.07
Mof_O 	O 	0.9049	0.6584	0.8554	-0.22
Mof_Dy	Dy	0.4179	0.8421	0.1057	0.744
Mof_O 	O 	0.4849	0.7896	0.1923	-0.3
Mof_H 	H 	0.3952	0.5839	0.6568	0.28
Mof_N 	N 	0.5643	0.9031	0.7086	-0.224
Mof_O 	O 	0.6124	0.94263	0.8133	-0.478
Mof_O 	O 	0.5784	0.99355	0.6703	-0.5
Mof_O 	O 	0.9221	0.536	0.7059	-0.469
Mof_C 	C 	0.625	0.8822	0.7466	-0.002
Mof_C 	C 	0.5476	0.8862	0.6533	0.112
Mof_C 	C 	0.646	0.9036	0.8082	0.324
Mof_C 	C 	0.6361	0.9843	0.6394	0.435
Mof_C 	C 	0.6692	0.8444	0.731	-0.083
Mof_C 	C 	0.5892	0.8495	0.6331	-0.137
Mof_H 	H 	0.5051	0.9003	0.6268	-0.011
Mof_O 	O 	0.6925	0.8834	0.8478	-0.256
Mof_C 	C 	0.6339	0.0078	0.5796	-0.055
Mof_O 	O 	0.6989	0.9573	0.6533	-0.513
Mof_C 	C 	0.6528	0.8281	0.6733	0.043
Mof_H 	H 	0.7094	0.8301	0.759	0.079
Mof_H 	H 	0.5757	0.8393	0.5941	0.083
Mof_C 	C 	0.5719	0.0388	0.5599	-0.033
Mof_N 	N 	0.6999	0.9959	0.5488	-0.218
Mof_Dy	Dy	0.80967	0.94231	0.59666	2.018
Mof_C 	C 	0.7028	0.7891	0.654	0.07
Mof_H 	H 	0.5286	0.047	0.5826	0.067
Mof_C 	C 	0.5767	0.0575	0.5043	0.01
Mof_C 	C 	0.7048	0.0144	0.4954	0.056
Mof_N 	N 	0.8365	0.9726	0.4959	-0.233
Mof_N 	N 	0.9343	0.9102	0.553	-0.257
Mof_O 	O 	0.8573	0.87368	0.6367	-0.454
Mof_O 	O 	0.7235	0.8961	0.5337	-0.687
Mof_N 	N 	0.8723	0.0455	0.2047	-0.212
Mof_O 	O 	0.8803	0.99056	0.1147	-0.51
Mof_C 	C 	0.7467	0.7927	0.6046	-0.127
Mof_C 	C 	0.711	0.7494	0.6869	-0.131
Mof_H 	H 	0.5357	0.0788	0.4893	0.042
Mof_C 	C 	0.6401	0.0455	0.4714	-0.094
Mof_C 	C 	0.7778	0.0005	0.4655	0.08
Mof_C 	C 	0.9056	0.9592	0.4705	0.062
Mof_C 	C 	0.9647	0.9277	0.5058	0.136
Mof_C 	C 	0.981	0.877	0.5839	0.079
Mof_C 	C 	0.9303	0.8564	0.6318	0.297
Mof_C 	C 	0.6731	0.8906	0.4886	0.93
Mof_C 	C 	0.802	0.7591	0.5919	0.093
Mof_H 	H 	0.7388	0.8179	0.5802	0.09
Mof_H 	H 	0.6809	0.7453	0.7194	0.082
Mof_C 	C 	0.7656	0.7159	0.6699	0.086
Mof_H 	H 	0.641	0.0574	0.4335	0.083
Mof_C 	C 	0.7881	0.0151	0.4087	-0.15
Mof_C 	C 	0.9171	0.972	0.4136	-0.142
Mof_C 	C 	0.0459	0.9145	0.4915	-0.233
Mof_C 	C 	0.0581	0.8623	0.5712	-0.205
Mof_O 	O 	0.9653	0.8248	0.6616	-0.211
Mof_H 	H 	0.6322	0.9134	0.4803	-0.296
Mof_O 	O 	0.6677	0.8613	0.4538	-0.726
Mof_C 	C 	0.857	0.7629	0.5434	0.053
Mof_N 	N 	0.8128	0.7214	0.6253	-0.21
Mof_C 	C 	0.7717	0.6715	0.6991	0.063
Mof_H 	H 	0.7477	0.0346	0.3884	0.104
Mof_C 	C 	0.8587	0.0004	0.3824	0.083
Mof_H 	H 	0.9644	0.9613	0.3964	0.109
Mof_H 	H 	0.0682	0.9277	0.4595	0.111
Mof_C 	C 	0.0921	0.8823	0.5244	0.127
Mof_H 	H 	0.0878	0.8394	0.5932	0.112
Mof_Dy	Dy	0.5577	0.83073	0.38176	1.049
Mof_C 	C 	0.8513	0.7977	0.503	-0.062
Mof_N 	N 	0.9153	0.7303	0.5424	-0.189
Mof_C 	C 	0.7201	0.6579	0.7412	-0.079
Mof_N 	N 	0.8311	0.6436	0.6826	-0.203
Mof_C 	C 	0.8692	0.0161	0.3219	0.027
Mof_H 	H 	0.1466	0.8738	0.5154	-0.002
Mof_C 	C 	0.9058	0.7984	0.4591	-0.052
Mof_H 	H 	0.8111	0.8207	0.5051	0.065
Mof_C 	C 	0.9695	0.7317	0.5001	-0.025
Mof_O 	O 	0.0222	0.6621	0.5391	-0.442
Mof_O 	O 	0.9536	0.593	0.6472	-0.464
Mof_H 	H 	0.6771	0.6771	0.7516	0.064
Mof_C 	C 	0.7317	0.6161	0.7679	-0.003
Mof_C 	C 	0.8409	0.6028	0.707	-0.048
Mof_C 	C 	0.8562	0.0611	0.3067	-0.115
Mof_C 	C 	0.8876	0.9863	0.2767	-0.058
Mof_C 	C 	0.9655	0.7656	0.4592	0.047
Mof_H 	H 	0.9012	0.8209	0.4303	0.061
Mof_C 	C 	0.0327	0.6926	0.5035	0.335
Mof_C 	C 	0.9118	0.5746	0.6845	0.437
Mof_H 	H 	0.6998	0.6075	0.798	0.033
Mof_C 	C 	0.7925	0.5877	0.7483	-0.019
Mof_H 	H 	0.846	0.082	0.3355	0.089
Mof_C 	C 	0.8585	0.0748	0.2477	0.087
Mof_H 	H 	0.8992	0.9562	0.285	0.081
Mof_C 	C 	0.888	0.003	0.2195	-0.028
Mof_H 	H 	0.0044	0.7661	0.4313	0.001
Mof_O 	O 	0.0865	0.6919	0.4701	-0.26
Mof_H 	H 	0.7999	0.5586	0.7633	0.045
Mof_H 	H 	0.8502	0.105	0.238	0.016
Mof_C 	C 	0.8997	0.9722	0.1672	0.405
Mof_O 	O 	0.9277	0.934	0.1764	-0.504
Mof_O 	O 	0.5111	0.8066	0.2731	-0.005
Mof_O 	O 	0.4049	0.8416	0.3554	-0.239
Mof_Dy	Dy	0.9179	0.6579	0.6057	0.781
Mof_O 	O 	0.9849	0.7104	0.6923	-0.317
Mof_H 	H 	0.8952	0.9161	0.1568	0.279
Mof_N 	N 	0.0643	0.4031	0.7086	-0.224
Mof_O 	O 	0.1124	0.44263	0.8133	-0.474
Mof_O 	O 	0.0784	0.49355	0.6703	-0.498
Mof_O 	O 	0.4221	0.036	0.7059	-0.497
Mof_C 	C 	0.125	0.3822	0.7466	-0.005
Mof_C 	C 	0.0476	0.3862	0.6533	0.107
Mof_C 	C 	0.146	0.4036	0.8082	0.319
Mof_C 	C 	0.1361	0.4843	0.6394	0.431
Mof_C 	C 	0.1692	0.3444	0.731	-0.085
Mof_C 	C 	0.0892	0.3495	0.6331	-0.139
Mof_H 	H 	0.0051	0.4003	0.6268	-0.022
Mof_O 	O 	0.1925	0.3834	0.8478	-0.259
Mof_C 	C 	0.1339	0.5078	0.5796	-0.059
Mof_O 	O 	0.1989	0.4573	0.6533	-0.51
Mof_C 	C 	0.1528	0.3281	0.6733	0.041
Mof_H 	H 	0.2094	0.3301	0.759	0.077
Mof_H 	H 	0.0757	0.3393	0.5941	0.076
Mof_C 	C 	0.0719	0.5388	0.5599	-0.034
Mof_N 	N 	0.1999	0.4959	0.5488	-0.217
Mof_Dy	Dy	0.30967	0.44231	0.59666	2.012
Mof_C 	C 	0.2028	0.2891	0.654	0.066
Mof_H 	H 	0.0286	0.547	0.5826	0.055
Mof_C 	C 	0.0767	0.5575	0.5043	0.004
Mof_C 	C 	0.2048	0.5144	0.4954	0.054
Mof_N 	N 	0.3365	0.4726	0.4959	-0.238
Mof_N 	N 	0.4343	0.4102	0.553	-0.232
Mof_O 	O 	0.3573	0.37368	0.6367	-0.462
Mof_O 	O 	0.2235	0.3961	0.5337	-0.686
Mof_N 	N 	0.3723	0.5455	0.2047	-0.213
Mof_O 	O 	0.3803	0.49056	0.1147	-0.517
Mof_C 	C 	0.2467	0.2927	0.6046	-0.122
Mof_C 	C 	0.211	0.2494	0.6869	-0.131
Mof_H 	H 	0.0357	0.5788	0.4893	0.032
Mof_C 	C 	0.1401	0.5455	0.4714	-0.095
Mof_C 	C 	0.2778	0.5005	0.4655	0.082
Mof_C 	C 	0.4056	0.4592	0.4705	0.083
Mof_C 	C 	0.4647	0.4277	0.5058	0.055
Mof_C 	C 	0.481	0.377	0.5839	-0.011
Mof_C 	C 	0.4303	0.3564	0.6318	0.322
Mof_C 	C 	0.1731	0.3906	0.4886	0.924
Mof_C 	C 	0.302	0.2591	0.5919	0.084
Mof_H 	H 	0.2388	0.3179	0.5802	0.088
Mof_H 	H 	0.1809	0.2453	0.7194	0.077
Mof_C 	C 	0.2656	0.2159	0.6699	0.084
Mof_H 	H 	0.141	0.5574	0.4335	0.08
Mof_C 	C 	0.2881	0.5151	0.4087	-0.155
Mof_C 	C 	0.4171	0.472	0.4136	-0.161
Mof_C 	C 	0.5459	0.4145	0.4915	-0.102
Mof_C 	C 	0.5581	0.3623	0.5712	-0.066
Mof_O 	O 	0.4653	0.3248	0.6616	-0.233
Mof_H 	H 	0.1322	0.4134	0.4803	-0.3
Mof_O 	O 	0.1677	0.3613	0.4538	-0.72
Mof_C 	C 	0.357	0.2629	0.5434	0.07
Mof_N 	N 	0.3128	0.2214	0.6253	-0.207
Mof_C 	C 	0.2717	0.1715	0.6991	0.06
Mof_H 	H 	0.2477	0.5346	0.3884	0.106
Mof_C 	C 	0.3587	0.5004	0.3824	0.087
Mof_H 	H 	0.4644	0.4613	0.3964	0.102
Mof_H 	H 	0.5682	0.4277	0.4595	0.075
Mof_C 	C 	0.5921	0.3823	0.5244	0.013
Mof_H 	H 	0.5878	0.3394	0.5932	0.074
Mof_Dy	Dy	0.0577	0.33073	0.38176	1.038
Mof_C 	C 	0.3513	0.2977	0.503	-0.104
Mof_N 	N 	0.4153	0.2303	0.5424	-0.197
Mof_C 	C 	0.2201	0.1579	0.7412	-0.078
Mof_N 	N 	0.3311	0.1436	0.6826	-0.199
Mof_C 	C 	0.3692	0.5161	0.3219	0.019
Mof_H 	H 	0.6466	0.3738	0.5154	0.041
Mof_C 	C 	0.4058	0.2984	0.4591	0.016
Mof_H 	H 	0.3111	0.3207	0.5051	0.08
Mof_C 	C 	0.4695	0.2317	0.5001	-0.021
Mof_O 	O 	0.5222	0.1621	0.5391	-0.424
Mof_O 	O 	0.4536	0.093	0.6472	-0.478
Mof_H 	H 	0.1771	0.1771	0.7516	0.058
Mof_C 	C 	0.2317	0.1161	0.7679	-0.008
Mof_C 	C 	0.3409	0.1028	0.707	-0.055
Mof_C 	C 	0.3562	0.5611	0.3067	-0.116
Mof_C 	C 	0.3876	0.4863	0.2767	-0.059
Mof_C 	C 	0.4655	0.2656	0.4592	-0.06
Mof_H 	H 	0.4012	0.3209	0.4303	0.03
Mof_C 	C 	0.5327	0.1926	0.5035	0.356
Mof_C 	C 	0.4118	0.0746	0.6845	0.443
Mof_H 	H 	0.1998	0.1075	0.798	0.032
Mof_C 	C 	0.2925	0.0877	0.7483	-0.016
Mof_H 	H 	0.346	0.582	0.3355	0.086
Mof_C 	C 	0.3585	0.5748	0.2477	0.082
Mof_H 	H 	0.3992	0.4562	0.285	0.075
Mof_C 	C 	0.388	0.503	0.2195	-0.034
Mof_H 	H 	0.5044	0.2661	0.4313	0.066
Mof_O 	O 	0.5865	0.1919	0.4701	-0.255
Mof_H 	H 	0.2999	0.0586	0.7633	0.042
Mof_H 	H 	0.3502	0.605	0.238	0.015
Mof_C 	C 	0.3997	0.4722	0.1672	0.403
Mof_O 	O 	0.4277	0.434	0.1764	-0.518
Mof_O 	O 	0.0111	0.3066	0.2731	-0.069
Mof_O 	O 	0.9049	0.3416	0.3554	-0.22
Mof_Dy	Dy	0.4179	0.1579	0.6057	0.744
Mof_O 	O 	0.4849	0.2104	0.6923	-0.3
Mof_H 	H 	0.3952	0.4161	0.1568	0.279
Mof_N 	N 	0.4357	0.9031	0.7914	-0.224
Mof_O 	O 	0.3876	0.94263	0.6867	-0.478
Mof_O 	O 	0.4216	0.99355	0.8297	-0.5
Mof_O 	O 	0.0779	0.536	0.7941	-0.495
Mof_C 	C 	0.375	0.8822	0.7534	-0.002
Mof_C 	C 	0.4524	0.8862	0.8467	0.112
Mof_C 	C 	0.354	0.9036	0.6918	0.325
Mof_C 	C 	0.3639	0.9843	0.8606	0.432
Mof_C 	C 	0.3308	0.8444	0.769	-0.083
Mof_C 	C 	0.4108	0.8495	0.8669	-0.137
Mof_H 	H 	0.4949	0.9003	0.8732	-0.011
Mof_O 	O 	0.3075	0.8834	0.6522	-0.258
Mof_C 	C 	0.3661	0.0078	0.9204	-0.049
Mof_O 	O 	0.3011	0.9573	0.8467	-0.51
Mof_C 	C 	0.3472	0.8281	0.8267	0.044
Mof_H 	H 	0.2906	0.8301	0.741	0.076
Mof_H 	H 	0.4243	0.8393	0.9059	0.083
Mof_C 	C 	0.4281	0.0388	0.9401	-0.044
Mof_N 	N 	0.3001	0.9959	0.9512	-0.218
Mof_Dy	Dy	0.19033	0.94231	0.90334	2.008
Mof_C 	C 	0.2972	0.7891	0.846	0.066
Mof_H 	H 	0.4714	0.047	0.9174	0.072
Mof_C 	C 	0.4233	0.0575	0.9957	0.028
Mof_C 	C 	0.2952	0.0144	0.0046	0.058
Mof_N 	N 	0.1635	0.9726	0.0041	-0.242
Mof_N 	N 	0.0657	0.9102	0.947	-0.208
Mof_O 	O 	0.1427	0.87368	0.8633	-0.47
Mof_O 	O 	0.2765	0.8961	0.9663	-0.685
Mof_N 	N 	0.1277	0.0455	0.2953	-0.213
Mof_O 	O 	0.1197	0.99056	0.3853	-0.524
Mof_C 	C 	0.2533	0.7927	0.8954	-0.119
Mof_C 	C 	0.289	0.7494	0.8131	-0.13
Mof_H 	H 	0.4643	0.0788	0.0107	0.033
Mof_C 	C 	0.3599	0.0455	0.0286	-0.107
Mof_C 	C 	0.2222	0.0005	0.0345	0.08
Mof_C 	C 	0.0944	0.9592	0.0295	0.102
Mof_C 	C 	0.0353	0.9277	0.9942	-0.023
Mof_C 	C 	0.019	0.877	0.9161	-0.098
Mof_C 	C 	0.0697	0.8564	0.8682	0.346
Mof_C 	C 	0.3269	0.8906	0.0114	0.927
Mof_C 	C 	0.198	0.7591	0.9081	0.077
Mof_H 	H 	0.2612	0.8179	0.9198	0.087
Mof_H 	H 	0.3191	0.7453	0.7806	0.08
Mof_C 	C 	0.2344	0.7159	0.8301	0.083
Mof_H 	H 	0.359	0.0574	0.0665	0.088
Mof_C 	C 	0.2119	0.0151	0.0913	-0.158
Mof_C 	C 	0.0829	0.972	0.0864	-0.176
Mof_C 	C 	0.9541	0.9145	0.0085	0.021
Mof_C 	C 	0.9419	0.8623	0.9288	0.068
Mof_O 	O 	0.0347	0.8248	0.8384	-0.255
Mof_H 	H 	0.3678	0.9134	0.0197	-0.295
Mof_O 	O 	0.3323	0.8613	0.0462	-0.726
Mof_C 	C 	0.143	0.7629	0.9566	0.086
Mof_N 	N 	0.1872	0.7214	0.8747	-0.205
Mof_C 	C 	0.2283	0.6715	0.8009	0.061
Mof_H 	H 	0.2523	0.0346	0.1116	0.107
Mof_C 	C 	0.1413	0.0004	0.1176	0.089
Mof_H 	H 	0.0356	0.9613	0.1036	0.095
Mof_H 	H 	0.9318	0.9277	0.0405	0.04
Mof_C 	C 	0.9079	0.8823	0.9756	-0.093
Mof_H 	H 	0.9122	0.8394	0.9068	0.038
Mof_Dy	Dy	0.4423	0.83073	0.11824	1.049
Mof_C 	C 	0.1487	0.7977	0.997	-0.142
Mof_N 	N 	0.0847	0.7303	0.9576	-0.204
Mof_C 	C 	0.2799	0.6579	0.7588	-0.079
Mof_N 	N 	0.1689	0.6436	0.8174	-0.197
Mof_C 	C 	0.1308	0.0161	0.1781	0.01
Mof_H 	H 	0.8534	0.8738	0.9846	0.081
Mof_C 	C 	0.0942	0.7984	0.0409	0.08
Mof_H 	H 	0.1889	0.8207	0.9949	0.093
Mof_C 	C 	0.0305	0.7317	0.9999	-0.018
Mof_O 	O 	0.9778	0.6621	0.9609	-0.407
Mof_O 	O 	0.0464	0.593	0.8528	-0.488
Mof_H 	H 	0.3229	0.6771	0.7484	0.063
Mof_C 	C 	0.2683	0.6161	0.7321	-0.005
Mof_C 	C 	0.1591	0.6028	0.793	-0.054
Mof_C 	C 	0.1438	0.0611	0.1933	-0.116
Mof_C 	C 	0.1124	0.9863	0.2233	-0.055
Mof_C 	C 	0.0345	0.7656	0.0408	-0.164
Mof_H 	H 	0.0988	0.8209	0.0697	0
Mof_C 	C 	0.9673	0.6926	0.9965	0.38
Mof_C 	C 	0.0882	0.5746	0.8155	0.436
Mof_H 	H 	0.3002	0.6075	0.702	0.033
Mof_C 	C 	0.2075	0.5877	0.7517	-0.02
Mof_H 	H 	0.154	0.082	0.1645	0.082
Mof_C 	C 	0.1415	0.0748	0.2523	0.075
Mof_H 	H 	0.1008	0.9562	0.215	0.068
Mof_C 	C 	0.112	0.003	0.2805	-0.044
Mof_H 	H 	0.9956	0.7661	0.0687	0.128
Mof_O 	O 	0.9135	0.6919	0.0299	-0.254
Mof_H 	H 	0.2001	0.5586	0.7367	0.043
Mof_H 	H 	0.1498	0.105	0.262	0.013
Mof_C 	C 	0.1003	0.9722	0.3328	0.403
Mof_O 	O 	0.0723	0.934	0.3236	-0.533
Mof_O 	O 	0.4889	0.8066	0.2269	-0.005
Mof_O 	O 	0.5951	0.8416	0.1446	-0.238
Mof_Dy	Dy	0.0821	0.6579	0.8943	0.708
Mof_O 	O 	0.0151	0.7104	0.8077	-0.283
Mof_H 	H 	0.1048	0.9161	0.3432	0.28
Mof_N 	N 	0.9357	0.4031	0.7914	-0.21
Mof_O 	O 	0.8876	0.44263	0.6867	-0.453
Mof_O 	O 	0.9216	0.49355	0.8297	-0.473
Mof_O 	O 	0.5779	0.036	0.7941	-0.497
Mof_C 	C 	0.875	0.3822	0.7534	0.006
Mof_C 	C 	0.9524	0.3862	0.8467	0.113
Mof_C 	C 	0.854	0.4036	0.6918	0.323
Mof_C 	C 	0.8639	0.4843	0.8606	0.426
Mof_C 	C 	0.8308	0.3444	0.769	-0.083
Mof_C 	C 	0.9108	0.3495	0.8669	-0.132
Mof_H 	H 	0.9949	0.4003	0.8732	0.005
Mof_O 	O 	0.8075	0.3834	0.6522	-0.252
Mof_C 	C 	0.8661	0.5078	0.9204	-0.042
Mof_O 	O 	0.8011	0.4573	0.8467	-0.508
Mof_C 	C 	0.8472	0.3281	0.8267	0.046
Mof_H 	H 	0.7906	0.3301	0.741	0.079
Mof_H 	H 	0.9243	0.3393	0.9059	0.09
Mof_C 	C 	0.9281	0.5388	0.9401	-0.044
Mof_N 	N 	0.8001	0.4959	0.9512	-0.218
Mof_Dy	Dy	0.69033	0.44231	0.90334	2.015
Mof_C 	C 	0.7972	0.2891	0.846	0.07
Mof_H 	H 	0.9714	0.547	0.9174	0.085
Mof_C 	C 	0.9233	0.5575	0.9957	0.032
Mof_C 	C 	0.7952	0.5144	0.0046	0.059
Mof_N 	N 	0.6635	0.4726	0.0041	-0.238
Mof_N 	N 	0.5657	0.4102	0.947	-0.234
Mof_O 	O 	0.6427	0.37368	0.8633	-0.462
Mof_O 	O 	0.7765	0.3961	0.9663	-0.684
Mof_N 	N 	0.6277	0.5455	0.2953	-0.213
Mof_O 	O 	0.6197	0.49056	0.3853	-0.517
Mof_C 	C 	0.7533	0.2927	0.8954	-0.124
Mof_C 	C 	0.789	0.2494	0.8131	-0.131
Mof_H 	H 	0.9643	0.5788	0.0107	0.044
Mof_C 	C 	0.8599	0.5455	0.0286	-0.103
Mof_C 	C 	0.7222	0.5005	0.0345	0.08
Mof_C 	C 	0.5944	0.4592	0.0295	0.078
Mof_C 	C 	0.5353	0.4277	0.9942	0.063
Mof_C 	C 	0.519	0.377	0.9161	-0.008
Mof_C 	C 	0.5697	0.3564	0.8682	0.321
Mof_C 	C 	0.8269	0.3906	0.0114	0.929
Mof_C 	C 	0.698	0.2591	0.9081	0.086
Mof_H 	H 	0.7612	0.3179	0.9198	0.089
Mof_H 	H 	0.8191	0.2453	0.7806	0.085
Mof_C 	C 	0.7344	0.2159	0.8301	0.086
Mof_H 	H 	0.859	0.5574	0.0665	0.091
Mof_C 	C 	0.7119	0.5151	0.0913	-0.153
Mof_C 	C 	0.5829	0.472	0.0864	-0.157
Mof_C 	C 	0.4541	0.4145	0.0085	-0.115
Mof_C 	C 	0.4419	0.3623	0.9288	-0.073
Mof_O 	O 	0.5347	0.3248	0.8384	-0.233
Mof_H 	H 	0.8678	0.4134	0.0197	-0.291
Mof_O 	O 	0.8323	0.3613	0.0462	-0.731
Mof_C 	C 	0.643	0.2629	0.9566	0.069
Mof_N 	N 	0.6872	0.2214	0.8747	-0.207
Mof_C 	C 	0.7283	0.1715	0.8009	0.063
Mof_H 	H 	0.7523	0.5346	0.1116	0.106
Mof_C 	C 	0.6413	0.5004	0.1176	0.085
Mof_H 	H 	0.5356	0.4613	0.1036	0.101
Mof_H 	H 	0.4318	0.4277	0.0405	0.079
Mof_C 	C 	0.4079	0.3823	0.9756	0.024
Mof_H 	H 	0.4122	0.3394	0.9068	0.076
Mof_Dy	Dy	0.9423	0.33073	0.11824	1.058
Mof_C 	C 	0.6487	0.2977	0.997	-0.099
Mof_N 	N 	0.5847	0.2303	0.9576	-0.196
Mof_C 	C 	0.7799	0.1579	0.7588	-0.078
Mof_N 	N 	0.6689	0.1436	0.8174	-0.2
Mof_C 	C 	0.6308	0.5161	0.1781	0.02
Mof_H 	H 	0.3534	0.3738	0.9846	0.037
Mof_C 	C 	0.5942	0.2984	0.0409	0.011
Mof_H 	H 	0.6889	0.3207	0.9949	0.079
Mof_C 	C 	0.5305	0.2317	0.9999	-0.02
Mof_O 	O 	0.4778	0.1621	0.9609	-0.425
Mof_O 	O 	0.5464	0.093	0.8528	-0.478
Mof_H 	H 	0.8229	0.1771	0.7484	0.067
Mof_C 	C 	0.7683	0.1161	0.7321	-0.003
Mof_C 	C 	0.6591	0.1028	0.793	-0.054
Mof_C 	C 	0.6438	0.5611	0.1933	-0.117
Mof_C 	C 	0.6124	0.4863	0.2233	-0.059
Mof_C 	C 	0.5345	0.2656	0.0408	-0.061
Mof_H 	H 	0.5988	0.3209	0.0697	0.031
Mof_C 	C 	0.4673	0.1926	0.9965	0.359
Mof_C 	C 	0.5882	0.0746	0.8155	0.443
Mof_H 	H 	0.8002	0.1075	0.702	0.034
Mof_C 	C 	0.7075	0.0877	0.7517	-0.017
Mof_H 	H 	0.654	0.582	0.1645	0.086
Mof_C 	C 	0.6415	0.5748	0.2523	0.082
Mof_H 	H 	0.6008	0.4562	0.215	0.075
Mof_C 	C 	0.612	0.503	0.2805	-0.034
Mof_H 	H 	0.4956	0.2661	0.0687	0.065
Mof_O 	O 	0.4135	0.1919	0.0299	-0.259
Mof_H 	H 	0.7001	0.0586	0.7367	0.043
Mof_H 	H 	0.6498	0.605	0.262	0.014
Mof_C 	C 	0.6003	0.4722	0.3328	0.403
Mof_O 	O 	0.5723	0.434	0.3236	-0.519
Mof_O 	O 	0.9889	0.3066	0.2269	0.06
Mof_O 	O 	0.0951	0.3416	0.1446	-0.256
Mof_Dy	Dy	0.5821	0.1579	0.8943	0.744
Mof_O 	O 	0.5151	0.2104	0.8077	-0.301
Mof_H 	H 	0.6048	0.4161	0.3432	0.28
Mof_Dy	Dy	0.5	0.02512	0.25	2.186
Mof_Dy	Dy	-5.49631e-18	0.52512	0.25	2.083
Mof_Dy	Dy	0.5	0.97488	0.75	2.186
Mof_Dy	Dy	-2.19852e-17	0.47488	0.75	2.081
_end
