data_functionalizedCrystal
_audit_creation_method	'EQeq! by Chris Wilmer'
_symmetry_space_group_name_H-M	'P1'
_symmetry_Int_Tables_number	1
_symmetry_cell_setting	triclinic
loop_
_symmetry_equiv_pos_as_xyz
  x,y,z
_cell_length_a	14.915
_cell_length_b	14.915
_cell_length_c	5.543
_cell_angle_alpha	90
_cell_angle_beta	90
_cell_angle_gamma	120
loop_
_atom_site_label
_atom_site_type_symbol
_atom_site_fract_x
_atom_site_fract_y
_atom_site_fract_z
_atom_site_charge
Mof_Li	Li	0.3364	0.5315	0.2243	10.513
Mof_Li	Li	0.2691	0.3022	0.9834	13.248
Mof_Li	Li	0.1953	0.3323	0.4933	-4.694
Mof_C 	C 	0.3497	0.5029	0.754	2.36
Mof_C 	C 	0.5403	0.6598	0.2304	1.54
Mof_C 	C 	0.0548	0.2244	0.8803	0.876
Mof_O 	O 	0.3317	0.4596	0.9532	-5.663
Mof_O 	O 	0.329	0.4656	0.55	-2.531
Mof_O 	O 	0.4607	0.6679	0.2368	-4.704
Mof_O 	O 	0.6261	0.7296	0.3296	-2.831
Mof_O 	O 	0.1426	0.2602	0.7486	-1.712
Mof_O 	O 	0.9794	0.2268	0.7472	-3.807
Mof_H 	H 	0.39177	0.591	0.74287	-1.525
Mof_H 	H 	0.53808	0.59065	0.13685	-1.176
Mof_Li	Li	0.4685	0.8049	0.2243	10.667
Mof_Li	Li	0.6978	0.9669	0.9834	13.303
Mof_Li	Li	0.6677	0.863	0.4933	-4.909
Mof_C 	C 	0.4971	0.8468	0.754	2.374
Mof_C 	C 	0.3402	0.8805	0.2304	1.54
Mof_C 	C 	0.7756	0.8304	0.8803	0.893
Mof_O 	O 	0.5404	0.8721	0.9532	-5.702
Mof_O 	O 	0.5344	0.8634	0.55	-2.518
Mof_O 	O 	0.3321	0.7928	0.2368	-4.723
Mof_O 	O 	0.2704	0.8965	0.3296	-2.788
Mof_O 	O 	0.7398	0.8824	0.7486	-1.681
Mof_O 	O 	0.7732	0.7526	0.7472	-3.862
Mof_H 	H 	0.409	0.80078	0.74287	-1.534
Mof_H 	H 	0.40935	0.94743	0.13685	-1.154
Mof_Li	Li	0.1951	0.6636	0.2243	10.627
Mof_Li	Li	0.0331	0.7309	0.9834	13.172
Mof_Li	Li	0.137	0.8047	0.4933	-4.712
Mof_C 	C 	0.1532	0.6503	0.754	2.372
Mof_C 	C 	0.1195	0.4597	0.2304	1.529
Mof_C 	C 	0.1696	0.9452	0.8803	0.854
Mof_O 	O 	0.1279	0.6683	0.9532	-5.682
Mof_O 	O 	0.1366	0.671	0.55	-2.539
Mof_O 	O 	0.2072	0.5393	0.2368	-4.695
Mof_O 	O 	0.1035	0.3739	0.3296	-2.774
Mof_O 	O 	0.1176	0.8574	0.7486	-1.691
Mof_O 	O 	0.2474	0.0206	0.7472	-3.802
Mof_H 	H 	0.19922	0.60823	0.74287	-1.53
Mof_H 	H 	0.05257	0.46192	0.13685	-1.149
Mof_Li	Li	0.6636	0.4685	0.7243	8.894
Mof_Li	Li	0.7309	0.6978	0.4834	15.608
Mof_Li	Li	0.8047	0.6677	0.9933	-7.165
Mof_C 	C 	0.6503	0.4971	0.254	2.103
Mof_C 	C 	0.4597	0.3402	0.7304	1.158
Mof_C 	C 	0.9452	0.7756	0.3803	0.807
Mof_O 	O 	0.6683	0.5404	0.4532	-5.387
Mof_O 	O 	0.671	0.5344	0.05	-1.667
Mof_O 	O 	0.5393	0.3321	0.7368	-4.051
Mof_O 	O 	0.3739	0.2704	0.8296	-2.065
Mof_O 	O 	0.8574	0.7398	0.2486	-1.229
Mof_O 	O 	0.0206	0.7732	0.2472	-3.301
Mof_H 	H 	0.60823	0.409	0.24287	-1.204
Mof_H 	H 	0.46192	0.40935	0.63685	-1.1
Mof_H 	H 	0.94747	0.80217	0.57417	-0.689
Mof_Li	Li	0.5315	0.1951	0.7243	8.902
Mof_Li	Li	0.3022	0.0331	0.4834	15.247
Mof_Li	Li	0.3323	0.137	0.9933	-6.953
Mof_C 	C 	0.5029	0.1532	0.254	2.094
Mof_C 	C 	0.6598	0.1195	0.7304	1.173
Mof_C 	C 	0.2244	0.1696	0.3803	0.876
Mof_O 	O 	0.4596	0.1279	0.4532	-5.341
Mof_O 	O 	0.4656	0.1366	0.05	-1.706
Mof_O 	O 	0.6679	0.2072	0.7368	-4.051
Mof_O 	O 	0.7296	0.1035	0.8296	-2.118
Mof_O 	O 	0.2602	0.1176	0.2486	-1.253
Mof_O 	O 	0.2268	0.2474	0.2472	-3.385
Mof_H 	H 	0.591	0.19922	0.24287	-1.209
Mof_H 	H 	0.59065	0.05257	0.63685	-1.112
Mof_H 	H 	0.19783	0.1453	0.57417	-0.7
Mof_Li	Li	0.8049	0.3364	0.7243	8.853
Mof_Li	Li	0.9669	0.2691	0.4834	15.131
Mof_Li	Li	0.863	0.1953	0.9933	-6.702
Mof_C 	C 	0.8468	0.3497	0.254	2.094
Mof_C 	C 	0.8805	0.5403	0.7304	1.142
Mof_C 	C 	0.8304	0.0548	0.3803	0.848
Mof_O 	O 	0.8721	0.3317	0.4532	-5.318
Mof_O 	O 	0.8634	0.329	0.05	-1.744
Mof_O 	O 	0.7928	0.4607	0.7368	-4.034
Mof_O 	O 	0.8965	0.6261	0.8296	-2.016
Mof_O 	O 	0.8824	0.1426	0.2486	-1.315
Mof_O 	O 	0.7526	0.9794	0.2472	-3.342
Mof_H 	H 	0.80078	0.39177	0.24287	-1.203
Mof_H 	H 	0.94743	0.53808	0.63685	-1.098
Mof_H 	H 	0.8547	0.05253	0.57417	-0.701
Mof_H 	H 	0.05253	0.19783	0.07417	-0.525
Mof_H 	H 	0.80217	0.8547	0.07417	-0.537
Mof_H 	H 	0.1453	0.94747	0.07417	-0.489
_end
