data_functionalizedCrystal
_audit_creation_method	'EQeq! by Chris Wilmer'
_symmetry_space_group_name_H-M	'P1'
_symmetry_Int_Tables_number	1
_symmetry_cell_setting	triclinic
loop_
_symmetry_equiv_pos_as_xyz
  x,y,z
_cell_length_a	13.6556
_cell_length_b	28.194
_cell_length_c	17.2693
_cell_angle_alpha	90
_cell_angle_beta	107.08
_cell_angle_gamma	90
loop_
_atom_site_label
_atom_site_type_symbol
_atom_site_fract_x
_atom_site_fract_y
_atom_site_fract_z
_atom_site_charge
Mof_C 	C 	0.5467	0.4471	0.64	0.264
Mof_C 	C 	0.4423	0.4608	0.5792	0.285
Mof_C 	C 	0.2953	0.3403	0.6662	0.295
Mof_C 	C 	0.2164	0.3768	0.6798	0.257
Mof_C 	C 	0.9026	0.2979	0.5664	0.296
Mof_C 	C 	0.9599	0.2969	0.5002	0.214
Mof_C 	C 	0.4722	0.4893	0.8274	0.251
Mof_C 	C 	0.486	0.442	0.8695	0.241
Mof_C 	C 	0.1858	0.2513	0.8199	0.279
Mof_C 	C 	0.1892	0.2076	0.7649	0.283
Mof_C 	C 	0.7223	0.413	0.4601	0.29
Mof_C 	C 	0.6247	0.3835	0.4566	0.247
Mof_O 	O 	0.6262	0.4573	0.6237	-0.286
Mof_O 	O 	0.4422	0.48178	0.5167	-0.289
Mof_O 	O 	0.5406	0.42601	0.7037	-0.51
Mof_O 	O 	0.3651	0.44763	0.5992	-0.498
Mof_O 	O 	0.3829	0.35634	0.6749	-0.504
Mof_O 	O 	0.2543	0.41752	0.7049	-0.487
Mof_O 	O 	0.2666	0.29953	0.6475	-0.311
Mof_O 	O 	0.1273	0.3638	0.6658	-0.279
Mof_O 	O 	0.9523	0.2878	0.6361	-0.332
Mof_O 	O 	0.0524	0.28672	0.5215	-0.249
Mof_O 	O 	0.8093	0.3077	0.5408	-0.501
Mof_O 	O 	0.905	0.30618	0.4293	-0.489
Mof_O 	O 	0.724	0.45543	0.476	-0.313
Mof_O 	O 	0.5556	0.40184	0.4778	-0.236
Mof_O 	O 	0.4182	0.48868	0.7528	-0.492
Mof_O 	O 	0.4506	0.40592	0.826	-0.498
Mof_O 	O 	0.5138	0.52474	0.8653	-0.275
Mof_O 	O 	0.5293	0.44018	0.9448	-0.267
Mof_O 	O 	0.1537	0.28958	0.7868	-0.292
Mof_O 	O 	0.1579	0.21283	0.6914	-0.297
Mof_O 	O 	0.2181	0.24343	0.8943	-0.51
Mof_O 	O 	0.2234	0.17039	0.8038	-0.494
Mof_O 	O 	0.7941	0.39	0.4436	-0.51
Mof_O 	O 	0.627	0.3404	0.4323	-0.486
Mof_Cr	Cr	0.40076	0.42336	0.71085	2.143
Mof_Cr	Cr	0.76189	0.3223	0.42276	2.129
Mof_Mn	Mn	0.59197	0.48837	0.49746	0.974
Mof_Mn	Mn	0.11553	0.28588	0.65367	0.994
Mof_O 	O 	0.684	0.5459	0.5635	-0.248
Mof_C 	C 	0.7718	0.5405	0.6301	0.143
Mof_O 	O 	0.708	0.5367	0.58	0.009
Mof_C 	C 	0.0467	0.9471	0.64	0.295
Mof_C 	C 	0.9423	0.9608	0.5792	0.252
Mof_C 	C 	0.7953	0.8403	0.6662	0.293
Mof_C 	C 	0.7164	0.8768	0.6798	0.256
Mof_C 	C 	0.4026	0.7979	0.5664	0.284
Mof_C 	C 	0.4599	0.7969	0.5002	0.264
Mof_C 	C 	0.9722	0.9893	0.8274	0.214
Mof_C 	C 	0.986	0.942	0.8695	0.206
Mof_C 	C 	0.6858	0.7513	0.8199	0.277
Mof_C 	C 	0.6892	0.7076	0.7649	0.281
Mof_C 	C 	0.2223	0.913	0.4601	0.292
Mof_C 	C 	0.1247	0.8835	0.4566	0.246
Mof_O 	O 	0.1262	0.9573	0.6237	-0.288
Mof_O 	O 	0.9422	0.98178	0.5167	-0.306
Mof_O 	O 	0.0406	0.92601	0.7037	-0.487
Mof_O 	O 	0.8651	0.94763	0.5992	-0.495
Mof_O 	O 	0.8829	0.85634	0.6749	-0.508
Mof_O 	O 	0.7543	0.91752	0.7049	-0.488
Mof_O 	O 	0.7666	0.79953	0.6475	-0.315
Mof_O 	O 	0.6273	0.8638	0.6658	-0.289
Mof_O 	O 	0.4523	0.7878	0.6361	-0.304
Mof_O 	O 	0.5524	0.78672	0.5215	-0.289
Mof_O 	O 	0.3093	0.8077	0.5408	-0.493
Mof_O 	O 	0.405	0.80618	0.4293	-0.494
Mof_O 	O 	0.224	0.95543	0.476	-0.31
Mof_O 	O 	0.0556	0.90184	0.4778	-0.226
Mof_O 	O 	0.9182	0.98868	0.7528	-0.49
Mof_O 	O 	0.9506	0.90592	0.826	-0.494
Mof_O 	O 	0.0138	0.02474	0.8653	-0.241
Mof_O 	O 	0.0293	0.94018	0.9448	-0.231
Mof_O 	O 	0.6537	0.78958	0.7868	-0.298
Mof_O 	O 	0.6579	0.71283	0.6914	-0.303
Mof_O 	O 	0.7181	0.74343	0.8943	-0.515
Mof_O 	O 	0.7234	0.67039	0.8038	-0.498
Mof_O 	O 	0.2941	0.89	0.4436	-0.506
Mof_O 	O 	0.127	0.8404	0.4323	-0.48
Mof_Cr	Cr	0.90076	0.92336	0.71085	2.101
Mof_Cr	Cr	0.26189	0.8223	0.42276	2.134
Mof_Mn	Mn	0.09197	0.98837	0.49746	0.993
Mof_Mn	Mn	0.61553	0.78588	0.65367	0.972
Mof_O 	O 	0.184	0.0459	0.5635	-0.257
Mof_C 	C 	0.2718	0.0405	0.6301	0.152
Mof_O 	O 	0.208	0.0367	0.58	0.021
Mof_C 	C 	0.5467	0.5529	0.14	0.27
Mof_C 	C 	0.4423	0.5392	0.0792	0.284
Mof_C 	C 	0.2953	0.6597	0.1662	0.297
Mof_C 	C 	0.2164	0.6232	0.1798	0.26
Mof_C 	C 	0.9026	0.7021	0.0664	0.279
Mof_C 	C 	0.9599	0.7031	0.0002	0.29
Mof_C 	C 	0.4722	0.5107	0.3274	0.257
Mof_C 	C 	0.486	0.558	0.3695	0.241
Mof_C 	C 	0.1858	0.7487	0.3199	0.279
Mof_C 	C 	0.1892	0.7924	0.2649	0.286
Mof_C 	C 	0.7223	0.587	0.9601	0.283
Mof_C 	C 	0.6247	0.6165	0.9566	0.245
Mof_O 	O 	0.6262	0.5427	0.1237	-0.259
Mof_O 	O 	0.4422	0.51822	0.0167	-0.247
Mof_O 	O 	0.5406	0.57399	0.2037	-0.504
Mof_O 	O 	0.3651	0.55237	0.0992	-0.486
Mof_O 	O 	0.3829	0.64366	0.1749	-0.495
Mof_O 	O 	0.2543	0.58248	0.2049	-0.48
Mof_O 	O 	0.2666	0.70047	0.1475	-0.302
Mof_O 	O 	0.1273	0.6362	0.1658	-0.271
Mof_O 	O 	0.9523	0.7122	0.1361	-0.318
Mof_O 	O 	0.0524	0.71328	0.0215	-0.253
Mof_O 	O 	0.8093	0.6923	0.0408	-0.452
Mof_O 	O 	0.905	0.69382	0.9293	-0.54
Mof_O 	O 	0.724	0.54457	0.976	-0.324
Mof_O 	O 	0.5556	0.59816	0.9778	-0.257
Mof_O 	O 	0.4182	0.51132	0.2528	-0.487
Mof_O 	O 	0.4506	0.59408	0.326	-0.489
Mof_O 	O 	0.5138	0.47526	0.3653	-0.273
Mof_O 	O 	0.5293	0.55982	0.4448	-0.248
Mof_O 	O 	0.1537	0.71042	0.2868	-0.285
Mof_O 	O 	0.1579	0.78717	0.1914	-0.29
Mof_O 	O 	0.2181	0.75657	0.3943	-0.502
Mof_O 	O 	0.2234	0.82961	0.3038	-0.498
Mof_O 	O 	0.7941	0.61	0.9436	-0.518
Mof_O 	O 	0.627	0.6596	0.9323	-0.492
Mof_Cr	Cr	0.40076	0.57664	0.21085	2.15
Mof_Cr	Cr	0.76189	0.6777	0.92276	2.071
Mof_Mn	Mn	0.59197	0.51163	0.99746	0.899
Mof_Mn	Mn	0.11553	0.71412	0.15367	1.003
Mof_O 	O 	0.684	0.4541	0.0635	-0.261
Mof_C 	C 	0.7718	0.4595	0.1301	0.148
Mof_O 	O 	0.708	0.4633	0.08	0.059
Mof_C 	C 	0.0467	0.0529	0.14	0.301
Mof_C 	C 	0.9423	0.0392	0.0792	0.251
Mof_C 	C 	0.7953	0.1597	0.1662	0.295
Mof_C 	C 	0.7164	0.1232	0.1798	0.259
Mof_C 	C 	0.4026	0.2021	0.0664	0.267
Mof_C 	C 	0.4599	0.2031	0.0002	0.343
Mof_C 	C 	0.9722	0.0107	0.3274	0.22
Mof_C 	C 	0.986	0.058	0.3695	0.204
Mof_C 	C 	0.6858	0.2487	0.3199	0.277
Mof_C 	C 	0.6892	0.2924	0.2649	0.284
Mof_C 	C 	0.2223	0.087	0.9601	0.285
Mof_C 	C 	0.1247	0.1165	0.9566	0.244
Mof_O 	O 	0.1262	0.0427	0.1237	-0.26
Mof_O 	O 	0.9422	0.01822	0.0167	-0.263
Mof_O 	O 	0.0406	0.07399	0.2037	-0.481
Mof_O 	O 	0.8651	0.05237	0.0992	-0.483
Mof_O 	O 	0.8829	0.14366	0.1749	-0.5
Mof_O 	O 	0.7543	0.08248	0.2049	-0.48
Mof_O 	O 	0.7666	0.20047	0.1475	-0.306
Mof_O 	O 	0.6273	0.1362	0.1658	-0.28
Mof_O 	O 	0.4523	0.2122	0.1361	-0.29
Mof_O 	O 	0.5524	0.21328	0.0215	-0.292
Mof_O 	O 	0.3093	0.1923	0.0408	-0.443
Mof_O 	O 	0.405	0.19382	0.9293	-0.547
Mof_O 	O 	0.224	0.04457	0.976	-0.321
Mof_O 	O 	0.0556	0.09816	0.9778	-0.247
Mof_O 	O 	0.9182	0.01132	0.2528	-0.485
Mof_O 	O 	0.9506	0.09408	0.326	-0.485
Mof_O 	O 	0.0138	0.97526	0.3653	-0.24
Mof_O 	O 	0.0293	0.05982	0.4448	-0.212
Mof_O 	O 	0.6537	0.21042	0.2868	-0.291
Mof_O 	O 	0.6579	0.28717	0.1914	-0.295
Mof_O 	O 	0.7181	0.25657	0.3943	-0.506
Mof_O 	O 	0.7234	0.32961	0.3038	-0.502
Mof_O 	O 	0.2941	0.11	0.9436	-0.513
Mof_O 	O 	0.127	0.1596	0.9323	-0.487
Mof_Cr	Cr	0.90076	0.07664	0.21085	2.107
Mof_Cr	Cr	0.26189	0.1777	0.92276	2.076
Mof_Mn	Mn	0.09197	0.01163	0.99746	0.918
Mof_Mn	Mn	0.61553	0.21412	0.15367	0.981
Mof_O 	O 	0.184	0.9541	0.0635	-0.269
Mof_C 	C 	0.2718	0.9595	0.1301	0.157
Mof_O 	O 	0.208	0.9633	0.08	0.07
_end
