data_functionalizedCrystal
_audit_creation_method	'EQeq! by Chris Wilmer'
_symmetry_space_group_name_H-M	'P1'
_symmetry_Int_Tables_number	1
_symmetry_cell_setting	triclinic
loop_
_symmetry_equiv_pos_as_xyz
  x,y,z
_cell_length_a	23.51
_cell_length_b	23.51
_cell_length_c	23.51
_cell_angle_alpha	109.471
_cell_angle_beta	109.471
_cell_angle_gamma	109.471
loop_
_atom_site_label
_atom_site_type_symbol
_atom_site_fract_x
_atom_site_fract_y
_atom_site_fract_z
_atom_site_charge
Mof_Ag	Ag	0.01608	0.59604	0.05174	0.375
Mof_Ag	Ag	0.63581	0.6442	0.05111	0.359
Mof_Ag	Ag	0.0443	0.96434	0.44826	0.373
Mof_Ag	Ag	0.09309	0.5847	0.44889	0.361
Mof_Ag	Ag	0.4557	0.90396	0.92004	0.371
Mof_Ag	Ag	0.40691	0.8558	0.49161	0.361
Mof_Ag	Ag	0.48392	0.53566	0.57996	0.371
Mof_Ag	Ag	0.86419	0.9153	0.00839	0.357
Mof_Ag	Ag	0.42004	0.4557	0.40396	0.371
Mof_Ag	Ag	0.99161	0.40691	0.3558	0.36
Mof_Ag	Ag	0.07996	0.48392	0.03566	0.375
Mof_Ag	Ag	0.50839	0.86419	0.4153	0.36
Mof_Ag	Ag	0.55174	0.01608	0.09604	0.371
Mof_Ag	Ag	0.55111	0.63581	0.1442	0.36
Mof_Ag	Ag	0.94826	0.0443	0.46434	0.373
Mof_Ag	Ag	0.94889	0.09309	0.0847	0.36
Mof_Ag	Ag	0.96434	0.94826	0.5443	0.369
Mof_Ag	Ag	0.5847	0.94889	0.59309	0.36
Mof_Ag	Ag	0.59604	0.55174	0.51608	0.371
Mof_Ag	Ag	0.6442	0.55111	0.13581	0.36
Mof_Ag	Ag	0.53566	0.07996	0.98392	0.373
Mof_Ag	Ag	0.9153	0.50839	0.36419	0.36
Mof_Ag	Ag	0.90396	0.42004	0.9557	0.372
Mof_Ag	Ag	0.8558	0.99161	0.90691	0.36
Mof_H 	H 	0.888	0.681	0.0966	0.166
Mof_H 	H 	0.9152	0.6855	0.0441	0.168
Mof_H 	H 	0.9614	0.6873	0.1121	0.148
Mof_H 	H 	0.7092	0.4065	0.9515	0.147
Mof_H 	H 	0.7625	0.3786	0.9607	0.132
Mof_H 	H 	0.7266	0.3801	0.8915	0.135
Mof_H 	H 	0.6933	0.6224	0.9493	0.162
Mof_H 	H 	0.7535	0.6078	0.9457	0.174
Mof_H 	H 	0.772	0.677	0.0084	0.158
Mof_H 	H 	0.7084	0.4512	0.0874	0.165
Mof_H 	H 	0.7759	0.5198	0.1531	0.165
Mof_H 	H 	0.7807	0.4753	0.0892	0.181
Mof_H 	H 	0.0844	0.7914	0.4034	0.168
Mof_H 	H 	0.1414	0.8711	0.4559	0.17
Mof_H 	H 	0.0752	0.8493	0.3879	0.15
Mof_H 	H 	0.955	0.7577	0.5485	0.147
Mof_H 	H 	0.9179	0.8018	0.5393	0.132
Mof_H 	H 	0.9886	0.8351	0.6085	0.135
Mof_H 	H 	0.1731	0.744	0.5507	0.163
Mof_H 	H 	0.1621	0.8078	0.5543	0.176
Mof_H 	H 	0.1686	0.7636	0.4916	0.161
Mof_H 	H 	0.8638	0.621	0.4126	0.165
Mof_H 	H 	0.8667	0.6228	0.3469	0.164
Mof_H 	H 	0.8861	0.6915	0.4108	0.181
Mof_H 	H 	0.4156	0.819	0.707	0.167
Mof_H 	H 	0.3586	0.8145	0.7297	0.17
Mof_H 	H 	0.4248	0.8127	0.7741	0.15
Mof_H 	H 	0.545	0.0935	0.8027	0.146
Mof_H 	H 	0.5821	0.1214	0.8839	0.131
Mof_H 	H 	0.5114	0.1199	0.8465	0.135
Mof_H 	H 	0.3269	0.8776	0.5709	0.163
Mof_H 	H 	0.3379	0.8922	0.6457	0.176
Mof_H 	H 	0.3314	0.823	0.595	0.161
Mof_H 	H 	0.6362	0.0488	0.7572	0.165
Mof_H 	H 	0.6333	0.9802	0.7561	0.164
Mof_H 	H 	0.6139	0.0247	0.8054	0.181
Mof_H 	H 	0.612	0.7086	0.793	0.167
Mof_H 	H 	0.5848	0.6289	0.7703	0.17
Mof_H 	H 	0.5386	0.6507	0.7259	0.15
Mof_H 	H 	0.7908	0.7423	0.6973	0.146
Mof_H 	H 	0.7375	0.6982	0.6161	0.131
Mof_H 	H 	0.7734	0.6649	0.6535	0.135
Mof_H 	H 	0.8067	0.756	0.9291	0.164
Mof_H 	H 	0.7465	0.6922	0.8543	0.177
Mof_H 	H 	0.728	0.7364	0.905	0.161
Mof_H 	H 	0.7916	0.879	0.7428	0.166
Mof_H 	H 	0.7241	0.8772	0.7439	0.165
Mof_H 	H 	0.7193	0.8085	0.6946	0.182
Mof_H 	H 	0.207	0.4156	0.319	0.167
Mof_H 	H 	0.2297	0.3586	0.3145	0.17
Mof_H 	H 	0.2741	0.4248	0.3127	0.15
Mof_H 	H 	0.3027	0.545	0.5935	0.146
Mof_H 	H 	0.3839	0.5821	0.6214	0.131
Mof_H 	H 	0.3465	0.5114	0.6199	0.135
Mof_H 	H 	0.0709	0.3269	0.3776	0.164
Mof_H 	H 	0.1457	0.3379	0.3922	0.177
Mof_H 	H 	0.095	0.3314	0.323	0.161
Mof_H 	H 	0.2572	0.6362	0.5488	0.166
Mof_H 	H 	0.2561	0.6333	0.4802	0.165
Mof_H 	H 	0.3054	0.6139	0.5247	0.182
Mof_H 	H 	0.293	0.612	0.2086	0.167
Mof_H 	H 	0.2703	0.5848	0.1289	0.17
Mof_H 	H 	0.2259	0.5386	0.1507	0.15
Mof_H 	H 	0.1973	0.7908	0.2423	0.146
Mof_H 	H 	0.1161	0.7375	0.1982	0.132
Mof_H 	H 	0.1535	0.7734	0.1649	0.135
Mof_H 	H 	0.4291	0.8067	0.256	0.164
Mof_H 	H 	0.3543	0.7465	0.1922	0.177
Mof_H 	H 	0.405	0.728	0.2364	0.161
Mof_H 	H 	0.2428	0.7916	0.379	0.166
Mof_H 	H 	0.2439	0.7241	0.3772	0.165
Mof_H 	H 	0.1946	0.7193	0.3085	0.182
Mof_H 	H 	0.5966	0.888	0.181	0.167
Mof_H 	H 	0.5441	0.9152	0.1855	0.169
Mof_H 	H 	0.6121	0.9614	0.1873	0.15
Mof_H 	H 	0.4515	0.7092	0.9065	0.146
Mof_H 	H 	0.4607	0.7625	0.8786	0.131
Mof_H 	H 	0.3915	0.7266	0.8801	0.135
Mof_H 	H 	0.4493	0.6933	0.1224	0.164
Mof_H 	H 	0.4457	0.7535	0.1078	0.177
Mof_H 	H 	0.5084	0.772	0.177	0.161
Mof_H 	H 	0.5874	0.7084	0.9512	0.165
Mof_H 	H 	0.6531	0.7759	0.0198	0.164
Mof_H 	H 	0.5892	0.7807	0.9753	0.181
Mof_H 	H 	0.9034	0.0844	0.2914	0.167
Mof_H 	H 	0.9559	0.1414	0.3711	0.17
Mof_H 	H 	0.8879	0.0752	0.3493	0.15
Mof_H 	H 	0.0485	0.955	0.2577	0.146
Mof_H 	H 	0.0393	0.9179	0.3018	0.131
Mof_H 	H 	0.1085	0.9886	0.3351	0.134
Mof_H 	H 	0.0507	0.1731	0.244	0.163
Mof_H 	H 	0.0543	0.1621	0.3078	0.175
Mof_H 	H 	0.9916	0.1686	0.2636	0.16
Mof_H 	H 	0.9126	0.8638	0.121	0.164
Mof_H 	H 	0.8469	0.8667	0.1228	0.164
Mof_H 	H 	0.9108	0.8861	0.1915	0.18
Mof_H 	H 	0.7914	0.9034	0.5844	0.167
Mof_H 	H 	0.8711	0.9559	0.6414	0.17
Mof_H 	H 	0.8493	0.8879	0.5752	0.15
Mof_H 	H 	0.7577	0.0485	0.455	0.147
Mof_H 	H 	0.8018	0.0393	0.4179	0.132
Mof_H 	H 	0.8351	0.1085	0.4886	0.135
Mof_H 	H 	0.744	0.0507	0.6731	0.162
Mof_H 	H 	0.8078	0.0543	0.6621	0.175
Mof_H 	H 	0.7636	0.9916	0.6686	0.158
Mof_H 	H 	0.621	0.9126	0.3638	0.165
Mof_H 	H 	0.6228	0.8469	0.3667	0.165
Mof_H 	H 	0.6915	0.9108	0.3861	0.181
Mof_H 	H 	0.681	0.5966	0.388	0.167
Mof_H 	H 	0.6855	0.5441	0.4152	0.169
Mof_H 	H 	0.6873	0.6121	0.4614	0.15
Mof_H 	H 	0.4065	0.4515	0.2092	0.146
Mof_H 	H 	0.3786	0.4607	0.2625	0.131
Mof_H 	H 	0.3801	0.3915	0.2266	0.135
Mof_H 	H 	0.6224	0.4493	0.1933	0.163
Mof_H 	H 	0.6078	0.4457	0.2535	0.176
Mof_H 	H 	0.677	0.5084	0.272	0.161
Mof_H 	H 	0.4512	0.5874	0.2084	0.166
Mof_H 	H 	0.5198	0.6531	0.2759	0.165
Mof_H 	H 	0.4753	0.5892	0.2807	0.182
Mof_H 	H 	0.7086	0.293	0.112	0.167
Mof_H 	H 	0.6289	0.2703	0.0848	0.169
Mof_H 	H 	0.6507	0.2259	0.0386	0.15
Mof_H 	H 	0.7423	0.1973	0.2908	0.146
Mof_H 	H 	0.6982	0.1161	0.2375	0.131
Mof_H 	H 	0.6649	0.1535	0.2734	0.135
Mof_H 	H 	0.756	0.4291	0.3067	0.163
Mof_H 	H 	0.6922	0.3543	0.2465	0.176
Mof_H 	H 	0.7364	0.405	0.228	0.161
Mof_H 	H 	0.879	0.2428	0.2916	0.166
Mof_H 	H 	0.8772	0.2439	0.2241	0.165
Mof_H 	H 	0.8085	0.1946	0.2193	0.182
Mof_H 	H 	0.819	0.207	0.9156	0.167
Mof_H 	H 	0.8145	0.2297	0.8586	0.17
Mof_H 	H 	0.8127	0.2741	0.9248	0.15
Mof_H 	H 	0.0935	0.3027	0.045	0.145
Mof_H 	H 	0.1214	0.3839	0.0821	0.13
Mof_H 	H 	0.1199	0.3465	0.0114	0.134
Mof_H 	H 	0.8776	0.0709	0.8269	0.164
Mof_H 	H 	0.8922	0.1457	0.8379	0.177
Mof_H 	H 	0.823	0.095	0.8314	0.161
Mof_H 	H 	0.0488	0.2572	0.1362	0.162
Mof_H 	H 	0.9802	0.2561	0.1333	0.16
Mof_H 	H 	0.0247	0.3054	0.1139	0.178
Mof_C 	C 	0.9142	0.6678	0.0758	-0.56
Mof_C 	C 	0.8802	0.5902	0.0366	0.174
Mof_C 	C 	0.8115	0.5396	0.0129	-0.112
Mof_C 	C 	0.8064	0.4791	0.9749	0.149
Mof_C 	C 	0.7454	0.4039	0.9415	-0.502
Mof_C 	C 	0.7381	0.6278	0.9765	-0.58
Mof_C 	C 	0.7313	0.5914	0.0173	0.205
Mof_C 	C 	0.7598	0.5525	0.0313	-0.173
Mof_C 	C 	0.7369	0.5323	0.0708	0.229
Mof_C 	C 	0.7517	0.4911	0.1028	-0.615
Mof_C 	C 	0.092	0.8384	0.4242	-0.563
Mof_C 	C 	0.0536	0.8436	0.4634	0.175
Mof_C 	C 	0.0267	0.7986	0.4871	-0.111
Mof_C 	C 	0.0042	0.8315	0.5251	0.148
Mof_C 	C 	0.9624	0.8039	0.5585	-0.503
Mof_C 	C 	0.1513	0.7616	0.5235	-0.586
Mof_C 	C 	0.0741	0.714	0.4827	0.207
Mof_C 	C 	0.0212	0.7285	0.4687	-0.172
Mof_C 	C 	0.9615	0.6661	0.4292	0.228
Mof_C 	C 	0.8883	0.6489	0.3972	-0.614
Mof_C 	C 	0.408	0.8322	0.7464	-0.562
Mof_C 	C 	0.4464	0.9098	0.79	0.175
Mof_C 	C 	0.4733	0.9604	0.7719	-0.11
Mof_C 	C 	0.4958	0.0209	0.8273	0.147
Mof_C 	C 	0.5376	0.0961	0.8415	-0.501
Mof_C 	C 	0.3487	0.8722	0.6103	-0.587
Mof_C 	C 	0.4259	0.9086	0.6399	0.207
Mof_C 	C 	0.4788	0.9475	0.7073	-0.174
Mof_C 	C 	0.5385	0.9677	0.7046	0.228
Mof_C 	C 	0.6117	0.0089	0.7606	-0.613
Mof_C 	C 	0.5858	0.6616	0.7536	-0.561
Mof_C 	C 	0.6198	0.6564	0.71	0.174
Mof_C 	C 	0.6885	0.7014	0.7281	-0.11
Mof_C 	C 	0.6936	0.6685	0.6727	0.146
Mof_C 	C 	0.7546	0.6961	0.6585	-0.5
Mof_C 	C 	0.7619	0.7384	0.8897	-0.588
Mof_C 	C 	0.7687	0.786	0.8601	0.208
Mof_C 	C 	0.7402	0.7715	0.7927	-0.175
Mof_C 	C 	0.7631	0.8339	0.7954	0.23
Mof_C 	C 	0.7483	0.8511	0.7394	-0.617
Mof_C 	C 	0.2464	0.408	0.3322	-0.562
Mof_C 	C 	0.29	0.4464	0.4098	0.175
Mof_C 	C 	0.2719	0.4733	0.4604	-0.11
Mof_C 	C 	0.3273	0.4958	0.5209	0.146
Mof_C 	C 	0.3415	0.5376	0.5961	-0.5
Mof_C 	C 	0.1103	0.3487	0.3722	-0.588
Mof_C 	C 	0.1399	0.4259	0.4086	0.208
Mof_C 	C 	0.2073	0.4788	0.4475	-0.175
Mof_C 	C 	0.2046	0.5385	0.4677	0.23
Mof_C 	C 	0.2606	0.6117	0.5089	-0.617
Mof_C 	C 	0.2536	0.5858	0.1616	-0.562
Mof_C 	C 	0.21	0.6198	0.1564	0.175
Mof_C 	C 	0.2281	0.6885	0.2014	-0.11
Mof_C 	C 	0.1727	0.6936	0.1685	0.147
Mof_C 	C 	0.1585	0.7546	0.1961	-0.501
Mof_C 	C 	0.3897	0.7619	0.2384	-0.587
Mof_C 	C 	0.3601	0.7687	0.286	0.208
Mof_C 	C 	0.2927	0.7402	0.2715	-0.175
Mof_C 	C 	0.2954	0.7631	0.3339	0.23
Mof_C 	C 	0.2394	0.7483	0.3511	-0.617
Mof_C 	C 	0.5758	0.9142	0.1678	-0.561
Mof_C 	C 	0.5366	0.8802	0.0902	0.174
Mof_C 	C 	0.5129	0.8115	0.0396	-0.109
Mof_C 	C 	0.4749	0.8064	0.9791	0.146
Mof_C 	C 	0.4415	0.7454	0.9039	-0.5
Mof_C 	C 	0.4765	0.7381	0.1278	-0.588
Mof_C 	C 	0.5173	0.7313	0.0914	0.208
Mof_C 	C 	0.5313	0.7598	0.0525	-0.174
Mof_C 	C 	0.5708	0.7369	0.0323	0.229
Mof_C 	C 	0.6028	0.7517	0.9911	-0.615
Mof_C 	C 	0.9242	0.092	0.3384	-0.562
Mof_C 	C 	0.9634	0.0536	0.3436	0.175
Mof_C 	C 	0.9871	0.0267	0.2986	-0.109
Mof_C 	C 	0.0251	0.0042	0.3315	0.145
Mof_C 	C 	0.0585	0.9624	0.3039	-0.498
Mof_C 	C 	0.0235	0.1513	0.2616	-0.584
Mof_C 	C 	0.9827	0.0741	0.214	0.206
Mof_C 	C 	0.9687	0.0212	0.2285	-0.173
Mof_C 	C 	0.9292	0.9615	0.1661	0.227
Mof_C 	C 	0.8972	0.8883	0.1489	-0.613
Mof_C 	C 	0.8384	0.9242	0.592	-0.562
Mof_C 	C 	0.8436	0.9634	0.5536	0.175
Mof_C 	C 	0.7986	0.9871	0.5267	-0.112
Mof_C 	C 	0.8315	0.0251	0.5042	0.148
Mof_C 	C 	0.8039	0.0585	0.4624	-0.502
Mof_C 	C 	0.7616	0.0235	0.6513	-0.581
Mof_C 	C 	0.714	0.9827	0.5741	0.205
Mof_C 	C 	0.7285	0.9687	0.5212	-0.173
Mof_C 	C 	0.6661	0.9292	0.4615	0.229
Mof_C 	C 	0.6489	0.8972	0.3883	-0.616
Mof_C 	C 	0.6678	0.5758	0.4142	-0.561
Mof_C 	C 	0.5902	0.5366	0.3802	0.174
Mof_C 	C 	0.5396	0.5129	0.3115	-0.11
Mof_C 	C 	0.4791	0.4749	0.3064	0.146
Mof_C 	C 	0.4039	0.4415	0.2454	-0.5
Mof_C 	C 	0.6278	0.4765	0.2381	-0.587
Mof_C 	C 	0.5914	0.5173	0.2313	0.208
Mof_C 	C 	0.5525	0.5313	0.2598	-0.175
Mof_C 	C 	0.5323	0.5708	0.2369	0.23
Mof_C 	C 	0.4911	0.6028	0.2517	-0.617
Mof_C 	C 	0.6616	0.2536	0.0858	-0.561
Mof_C 	C 	0.6564	0.21	0.1198	0.174
Mof_C 	C 	0.7014	0.2281	0.1885	-0.11
Mof_C 	C 	0.6685	0.1727	0.1936	0.146
Mof_C 	C 	0.6961	0.1585	0.2546	-0.5
Mof_C 	C 	0.7384	0.3897	0.2619	-0.587
Mof_C 	C 	0.786	0.3601	0.2687	0.208
Mof_C 	C 	0.7715	0.2927	0.2402	-0.175
Mof_C 	C 	0.8339	0.2954	0.2631	0.23
Mof_C 	C 	0.8511	0.2394	0.2483	-0.617
Mof_C 	C 	0.8322	0.2464	0.908	-0.561
Mof_C 	C 	0.9098	0.29	0.9464	0.174
Mof_C 	C 	0.9604	0.2719	0.9733	-0.107
Mof_C 	C 	0.0209	0.3273	0.9958	0.141
Mof_C 	C 	0.0961	0.3415	0.0376	-0.494
Mof_C 	C 	0.8722	0.1103	0.8487	-0.588
Mof_C 	C 	0.9086	0.1399	0.9259	0.207
Mof_C 	C 	0.9475	0.2073	0.9788	-0.171
Mof_C 	C 	0.9677	0.2046	0.0385	0.223
Mof_C 	C 	0.0089	0.2606	0.1117	-0.603
Mof_N 	N 	0.9116	0.5575	0.0119	-0.209
Mof_N 	N 	0.8659	0.4865	0.9748	-0.207
Mof_N 	N 	0.6941	0.5964	0.0501	-0.213
Mof_N 	N 	0.6976	0.5579	0.0829	-0.224
Mof_N 	N 	0.0456	0.8997	0.4881	-0.207
Mof_N 	N 	0.0117	0.8911	0.5252	-0.206
Mof_N 	N 	0.0463	0.644	0.4499	-0.213
Mof_N 	N 	0.975	0.6147	0.4171	-0.224
Mof_N 	N 	0.4544	0.9425	0.8541	-0.207
Mof_N 	N 	0.4883	0.0135	0.8794	-0.207
Mof_N 	N 	0.4537	0.9036	0.5977	-0.213
Mof_N 	N 	0.525	0.9421	0.6397	-0.224
Mof_N 	N 	0.5884	0.6003	0.6459	-0.207
Mof_N 	N 	0.6341	0.6089	0.6206	-0.207
Mof_N 	N 	0.8059	0.856	0.9023	-0.213
Mof_N 	N 	0.8024	0.8853	0.8603	-0.224
Mof_N 	N 	0.3541	0.4544	0.4425	-0.207
Mof_N 	N 	0.3794	0.4883	0.5135	-0.207
Mof_N 	N 	0.0977	0.4537	0.4036	-0.213
Mof_N 	N 	0.1397	0.525	0.4421	-0.225
Mof_N 	N 	0.1459	0.5884	0.1003	-0.207
Mof_N 	N 	0.1206	0.6341	0.1089	-0.207
Mof_N 	N 	0.4023	0.8059	0.356	-0.213
Mof_N 	N 	0.3603	0.8024	0.3853	-0.225
Mof_N 	N 	0.5119	0.9116	0.0575	-0.207
Mof_N 	N 	0.4748	0.8659	0.9865	-0.207
Mof_N 	N 	0.5501	0.6941	0.0964	-0.213
Mof_N 	N 	0.5829	0.6976	0.0579	-0.224
Mof_N 	N 	0.9881	0.0456	0.3997	-0.207
Mof_N 	N 	0.0252	0.0117	0.3911	-0.208
Mof_N 	N 	0.9499	0.0463	0.144	-0.213
Mof_N 	N 	0.9171	0.975	0.1147	-0.225
Mof_N 	N 	0.8997	0.9881	0.5456	-0.208
Mof_N 	N 	0.8911	0.0252	0.5117	-0.207
Mof_N 	N 	0.644	0.9499	0.5463	-0.213
Mof_N 	N 	0.6147	0.9171	0.475	-0.224
Mof_N 	N 	0.5575	0.5119	0.4116	-0.207
Mof_N 	N 	0.4865	0.4748	0.3659	-0.207
Mof_N 	N 	0.5964	0.5501	0.1941	-0.213
Mof_N 	N 	0.5579	0.5829	0.1976	-0.225
Mof_N 	N 	0.6003	0.1459	0.0884	-0.207
Mof_N 	N 	0.6089	0.1206	0.1341	-0.207
Mof_N 	N 	0.856	0.4023	0.3059	-0.213
Mof_N 	N 	0.8853	0.3603	0.3024	-0.224
Mof_N 	N 	0.9425	0.3541	0.9544	-0.206
Mof_N 	N 	0.0135	0.3794	0.9883	-0.208
Mof_N 	N 	0.9036	0.0977	0.9537	-0.212
Mof_N 	N 	0.9421	0.1397	0.025	-0.224
Mof_Ag	Ag	0.46434	0.5443	0.94826	0.371
Mof_Ag	Ag	0.0847	0.59309	0.94889	0.358
Mof_Ag	Ag	0.09604	0.51608	0.55174	0.372
Mof_Ag	Ag	0.1442	0.13581	0.55111	0.36
Mof_Ag	Ag	0.03566	0.98392	0.07996	0.379
Mof_Ag	Ag	0.4153	0.36419	0.50839	0.36
Mof_Ag	Ag	0.40396	0.9557	0.42004	0.371
Mof_Ag	Ag	0.3558	0.90691	0.99161	0.36
Mof_Ag	Ag	0.51608	0.05174	0.59604	0.371
Mof_Ag	Ag	0.13581	0.05111	0.6442	0.36
Mof_Ag	Ag	0.5443	0.44826	0.96434	0.372
Mof_Ag	Ag	0.59309	0.44889	0.5847	0.361
Mof_Ag	Ag	0.9557	0.92004	0.90396	0.371
Mof_Ag	Ag	0.90691	0.49161	0.8558	0.362
Mof_Ag	Ag	0.98392	0.57996	0.53566	0.371
Mof_Ag	Ag	0.36419	0.00839	0.9153	0.36
Mof_Ag	Ag	0.92004	0.40396	0.4557	0.372
Mof_Ag	Ag	0.49161	0.3558	0.40691	0.36
Mof_Ag	Ag	0.57996	0.03566	0.48392	0.371
Mof_Ag	Ag	0.00839	0.4153	0.86419	0.358
Mof_Ag	Ag	0.05174	0.09604	0.01608	0.374
Mof_Ag	Ag	0.05111	0.1442	0.63581	0.36
Mof_Ag	Ag	0.44826	0.46434	0.0443	0.372
Mof_Ag	Ag	0.44889	0.0847	0.09309	0.361
Mof_H 	H 	0.2914	0.5844	0.9034	0.167
Mof_H 	H 	0.3711	0.6414	0.9559	0.17
Mof_H 	H 	0.3493	0.5752	0.8879	0.15
Mof_H 	H 	0.2577	0.455	0.0485	0.147
Mof_H 	H 	0.3018	0.4179	0.0393	0.132
Mof_H 	H 	0.3351	0.4886	0.1085	0.135
Mof_H 	H 	0.244	0.6731	0.0507	0.161
Mof_H 	H 	0.3078	0.6621	0.0543	0.174
Mof_H 	H 	0.2636	0.6686	0.9916	0.157
Mof_H 	H 	0.121	0.3638	0.9126	0.165
Mof_H 	H 	0.1228	0.3667	0.8469	0.165
Mof_H 	H 	0.1915	0.3861	0.9108	0.181
Mof_H 	H 	0.181	0.388	0.5966	0.167
Mof_H 	H 	0.1855	0.4152	0.5441	0.17
Mof_H 	H 	0.1873	0.4614	0.6121	0.15
Mof_H 	H 	0.9065	0.2092	0.4515	0.146
Mof_H 	H 	0.8786	0.2625	0.4607	0.131
Mof_H 	H 	0.8801	0.2266	0.3915	0.135
Mof_H 	H 	0.1224	0.1933	0.4493	0.163
Mof_H 	H 	0.1078	0.2535	0.4457	0.176
Mof_H 	H 	0.177	0.272	0.5084	0.161
Mof_H 	H 	0.9512	0.2084	0.5874	0.164
Mof_H 	H 	0.0198	0.2759	0.6531	0.162
Mof_H 	H 	0.9753	0.2807	0.5892	0.18
Mof_H 	H 	0.2086	0.112	0.293	0.167
Mof_H 	H 	0.1289	0.0848	0.2703	0.169
Mof_H 	H 	0.1507	0.0386	0.2259	0.149
Mof_H 	H 	0.2423	0.2908	0.1973	0.146
Mof_H 	H 	0.1982	0.2375	0.1161	0.132
Mof_H 	H 	0.1649	0.2734	0.1535	0.135
Mof_H 	H 	0.256	0.3067	0.4291	0.163
Mof_H 	H 	0.1922	0.2465	0.3543	0.176
Mof_H 	H 	0.2364	0.228	0.405	0.161
Mof_H 	H 	0.379	0.2916	0.2428	0.166
Mof_H 	H 	0.3772	0.2241	0.2439	0.165
Mof_H 	H 	0.3085	0.2193	0.1946	0.182
Mof_H 	H 	0.319	0.9156	0.207	0.168
Mof_H 	H 	0.3145	0.8586	0.2297	0.17
Mof_H 	H 	0.3127	0.9248	0.2741	0.15
Mof_H 	H 	0.5935	0.045	0.3027	0.146
Mof_H 	H 	0.6214	0.0821	0.3839	0.131
Mof_H 	H 	0.6199	0.0114	0.3465	0.135
Mof_H 	H 	0.3776	0.8269	0.0709	0.164
Mof_H 	H 	0.3922	0.8379	0.1457	0.177
Mof_H 	H 	0.323	0.8314	0.095	0.162
Mof_H 	H 	0.5488	0.1362	0.2572	0.166
Mof_H 	H 	0.4802	0.1333	0.2561	0.165
Mof_H 	H 	0.5247	0.1139	0.3054	0.181
Mof_H 	H 	0.388	0.0966	0.681	0.167
Mof_H 	H 	0.4152	0.0441	0.6855	0.17
Mof_H 	H 	0.4614	0.1121	0.6873	0.15
Mof_H 	H 	0.2092	0.9515	0.4065	0.147
Mof_H 	H 	0.2625	0.9607	0.3786	0.132
Mof_H 	H 	0.2266	0.8915	0.3801	0.135
Mof_H 	H 	0.1933	0.9493	0.6224	0.162
Mof_H 	H 	0.2535	0.9457	0.6078	0.175
Mof_H 	H 	0.272	0.0084	0.677	0.159
Mof_H 	H 	0.2084	0.0874	0.4512	0.165
Mof_H 	H 	0.2759	0.1531	0.5198	0.165
Mof_H 	H 	0.2807	0.0892	0.4753	0.181
Mof_H 	H 	0.5844	0.4034	0.7914	0.167
Mof_H 	H 	0.6414	0.4559	0.8711	0.17
Mof_H 	H 	0.5752	0.3879	0.8493	0.15
Mof_H 	H 	0.455	0.5485	0.7577	0.146
Mof_H 	H 	0.4179	0.5393	0.8018	0.131
Mof_H 	H 	0.4886	0.6085	0.8351	0.135
Mof_H 	H 	0.6731	0.5507	0.744	0.164
Mof_H 	H 	0.6621	0.5543	0.8078	0.176
Mof_H 	H 	0.6686	0.4916	0.7636	0.161
Mof_H 	H 	0.3638	0.4126	0.621	0.166
Mof_H 	H 	0.3667	0.3469	0.6228	0.165
Mof_H 	H 	0.3861	0.4108	0.6915	0.182
Mof_H 	H 	0.9156	0.707	0.819	0.167
Mof_H 	H 	0.8586	0.7297	0.8145	0.169
Mof_H 	H 	0.9248	0.7741	0.8127	0.15
Mof_H 	H 	0.045	0.8027	0.0935	0.145
Mof_H 	H 	0.0821	0.8839	0.1214	0.129
Mof_H 	H 	0.0114	0.8465	0.1199	0.134
Mof_H 	H 	0.8269	0.5709	0.8776	0.164
Mof_H 	H 	0.8379	0.6457	0.8922	0.176
Mof_H 	H 	0.8314	0.595	0.823	0.161
Mof_H 	H 	0.1362	0.7572	0.0488	0.161
Mof_H 	H 	0.1333	0.7561	0.9802	0.159
Mof_H 	H 	0.1139	0.8054	0.0247	0.178
Mof_H 	H 	0.112	0.793	0.7086	0.167
Mof_H 	H 	0.0848	0.7703	0.6289	0.17
Mof_H 	H 	0.0386	0.7259	0.6507	0.15
Mof_H 	H 	0.2908	0.6973	0.7423	0.146
Mof_H 	H 	0.2375	0.6161	0.6982	0.131
Mof_H 	H 	0.2734	0.6535	0.6649	0.135
Mof_H 	H 	0.3067	0.9291	0.756	0.164
Mof_H 	H 	0.2465	0.8543	0.6922	0.176
Mof_H 	H 	0.228	0.905	0.7364	0.161
Mof_H 	H 	0.2916	0.7428	0.879	0.166
Mof_H 	H 	0.2241	0.7439	0.8772	0.165
Mof_H 	H 	0.2193	0.6946	0.8085	0.182
Mof_H 	H 	0.707	0.319	0.4156	0.167
Mof_H 	H 	0.7297	0.3145	0.3586	0.169
Mof_H 	H 	0.7741	0.3127	0.4248	0.15
Mof_H 	H 	0.8027	0.5935	0.545	0.146
Mof_H 	H 	0.8839	0.6214	0.5821	0.131
Mof_H 	H 	0.8465	0.6199	0.5114	0.135
Mof_H 	H 	0.5709	0.3776	0.3269	0.163
Mof_H 	H 	0.6457	0.3922	0.3379	0.176
Mof_H 	H 	0.595	0.323	0.3314	0.161
Mof_H 	H 	0.7572	0.5488	0.6362	0.166
Mof_H 	H 	0.7561	0.4802	0.6333	0.165
Mof_H 	H 	0.8054	0.5247	0.6139	0.182
Mof_H 	H 	0.793	0.2086	0.612	0.167
Mof_H 	H 	0.7703	0.1289	0.5848	0.17
Mof_H 	H 	0.7259	0.1507	0.5386	0.15
Mof_H 	H 	0.6973	0.2423	0.7908	0.146
Mof_H 	H 	0.6161	0.1982	0.7375	0.131
Mof_H 	H 	0.6535	0.1649	0.7734	0.135
Mof_H 	H 	0.9291	0.256	0.8067	0.165
Mof_H 	H 	0.8543	0.1922	0.7465	0.177
Mof_H 	H 	0.905	0.2364	0.728	0.162
Mof_H 	H 	0.7428	0.379	0.7916	0.166
Mof_H 	H 	0.7439	0.3772	0.7241	0.165
Mof_H 	H 	0.6946	0.3085	0.7193	0.182
Mof_H 	H 	0.0966	0.181	0.888	0.167
Mof_H 	H 	0.0441	0.1855	0.9152	0.169
Mof_H 	H 	0.1121	0.1873	0.9614	0.149
Mof_H 	H 	0.9515	0.9065	0.7092	0.146
Mof_H 	H 	0.9607	0.8786	0.7625	0.132
Mof_H 	H 	0.8915	0.8801	0.7266	0.135
Mof_H 	H 	0.9493	0.1224	0.6933	0.16
Mof_H 	H 	0.9457	0.1078	0.7535	0.173
Mof_H 	H 	0.0084	0.177	0.772	0.155
Mof_H 	H 	0.0874	0.9512	0.7084	0.163
Mof_H 	H 	0.1531	0.0198	0.7759	0.162
Mof_H 	H 	0.0892	0.9753	0.7807	0.179
Mof_H 	H 	0.4034	0.2914	0.0844	0.167
Mof_H 	H 	0.4559	0.3711	0.1414	0.17
Mof_H 	H 	0.3879	0.3493	0.0752	0.15
Mof_H 	H 	0.5485	0.2577	0.955	0.146
Mof_H 	H 	0.5393	0.3018	0.9179	0.131
Mof_H 	H 	0.6085	0.3351	0.9886	0.135
Mof_H 	H 	0.5507	0.244	0.1731	0.163
Mof_H 	H 	0.5543	0.3078	0.1621	0.176
Mof_H 	H 	0.4916	0.2636	0.1686	0.161
Mof_H 	H 	0.4126	0.121	0.8638	0.166
Mof_H 	H 	0.3469	0.1228	0.8667	0.165
Mof_H 	H 	0.4108	0.1915	0.8861	0.182
Mof_C 	C 	0.3384	0.592	0.9242	-0.562
Mof_C 	C 	0.3436	0.5536	0.9634	0.175
Mof_C 	C 	0.2986	0.5267	0.9871	-0.112
Mof_C 	C 	0.3315	0.5042	0.0251	0.148
Mof_C 	C 	0.3039	0.4624	0.0585	-0.502
Mof_C 	C 	0.2616	0.6513	0.0235	-0.577
Mof_C 	C 	0.214	0.5741	0.9827	0.204
Mof_C 	C 	0.2285	0.5212	0.9687	-0.172
Mof_C 	C 	0.1661	0.4615	0.9292	0.229
Mof_C 	C 	0.1489	0.3883	0.8972	-0.615
Mof_C 	C 	0.1678	0.4142	0.5758	-0.562
Mof_C 	C 	0.0902	0.3802	0.5366	0.175
Mof_C 	C 	0.0396	0.3115	0.5129	-0.111
Mof_C 	C 	0.9791	0.3064	0.4749	0.147
Mof_C 	C 	0.9039	0.2454	0.4415	-0.501
Mof_C 	C 	0.1278	0.2381	0.4765	-0.587
Mof_C 	C 	0.0914	0.2313	0.5173	0.207
Mof_C 	C 	0.0525	0.2598	0.5313	-0.173
Mof_C 	C 	0.0323	0.2369	0.5708	0.227
Mof_C 	C 	0.9911	0.2517	0.6028	-0.609
Mof_C 	C 	0.1616	0.0858	0.2536	-0.56
Mof_C 	C 	0.1564	0.1198	0.21	0.174
Mof_C 	C 	0.2014	0.1885	0.2281	-0.11
Mof_C 	C 	0.1685	0.1936	0.1727	0.146
Mof_C 	C 	0.1961	0.2546	0.1585	-0.501
Mof_C 	C 	0.2384	0.2619	0.3897	-0.587
Mof_C 	C 	0.286	0.2687	0.3601	0.208
Mof_C 	C 	0.2715	0.2402	0.2927	-0.175
Mof_C 	C 	0.3339	0.2631	0.2954	0.23
Mof_C 	C 	0.3511	0.2483	0.2394	-0.617
Mof_C 	C 	0.3322	0.908	0.2464	-0.562
Mof_C 	C 	0.4098	0.9464	0.29	0.175
Mof_C 	C 	0.4604	0.9733	0.2719	-0.11
Mof_C 	C 	0.5209	0.9958	0.3273	0.146
Mof_C 	C 	0.5961	0.0376	0.3415	-0.5
Mof_C 	C 	0.3722	0.8487	0.1103	-0.588
Mof_C 	C 	0.4086	0.9259	0.1399	0.208
Mof_C 	C 	0.4475	0.9788	0.2073	-0.174
Mof_C 	C 	0.4677	0.0385	0.2046	0.23
Mof_C 	C 	0.5089	0.1117	0.2606	-0.617
Mof_C 	C 	0.4142	0.0758	0.6678	-0.562
Mof_C 	C 	0.3802	0.0366	0.5902	0.175
Mof_C 	C 	0.3115	0.0129	0.5396	-0.111
Mof_C 	C 	0.3064	0.9749	0.4791	0.147
Mof_C 	C 	0.2454	0.9415	0.4039	-0.501
Mof_C 	C 	0.2381	0.9765	0.6278	-0.582
Mof_C 	C 	0.2313	0.0173	0.5914	0.205
Mof_C 	C 	0.2598	0.0313	0.5525	-0.174
Mof_C 	C 	0.2369	0.0708	0.5323	0.229
Mof_C 	C 	0.2517	0.1028	0.4911	-0.616
Mof_C 	C 	0.592	0.4242	0.8384	-0.561
Mof_C 	C 	0.5536	0.4634	0.8436	0.175
Mof_C 	C 	0.5267	0.4871	0.7986	-0.11
Mof_C 	C 	0.5042	0.5251	0.8315	0.146
Mof_C 	C 	0.4624	0.5585	0.8039	-0.5
Mof_C 	C 	0.6513	0.5235	0.7616	-0.587
Mof_C 	C 	0.5741	0.4827	0.714	0.208
Mof_C 	C 	0.5212	0.4687	0.7285	-0.175
Mof_C 	C 	0.4615	0.4292	0.6661	0.23
Mof_C 	C 	0.3883	0.3972	0.6489	-0.617
Mof_C 	C 	0.908	0.7464	0.8322	-0.561
Mof_C 	C 	0.9464	0.79	0.9098	0.174
Mof_C 	C 	0.9733	0.7719	0.9604	-0.107
Mof_C 	C 	0.9958	0.8273	0.0209	0.14
Mof_C 	C 	0.0376	0.8415	0.0961	-0.492
Mof_C 	C 	0.8487	0.6103	0.8722	-0.587
Mof_C 	C 	0.9259	0.6399	0.9086	0.207
Mof_C 	C 	0.9788	0.7073	0.9475	-0.172
Mof_C 	C 	0.0385	0.7046	0.9677	0.223
Mof_C 	C 	0.1117	0.7606	0.0089	-0.6
Mof_C 	C 	0.0858	0.7536	0.6616	-0.562
Mof_C 	C 	0.1198	0.71	0.6564	0.175
Mof_C 	C 	0.1885	0.7281	0.7014	-0.11
Mof_C 	C 	0.1936	0.6727	0.6685	0.146
Mof_C 	C 	0.2546	0.6585	0.6961	-0.5
Mof_C 	C 	0.2619	0.8897	0.7384	-0.588
Mof_C 	C 	0.2687	0.8601	0.786	0.208
Mof_C 	C 	0.2402	0.7927	0.7715	-0.175
Mof_C 	C 	0.2631	0.7954	0.8339	0.23
Mof_C 	C 	0.2483	0.7394	0.8511	-0.617
Mof_C 	C 	0.7464	0.3322	0.408	-0.561
Mof_C 	C 	0.79	0.4098	0.4464	0.174
Mof_C 	C 	0.7719	0.4604	0.4733	-0.11
Mof_C 	C 	0.8273	0.5209	0.4958	0.146
Mof_C 	C 	0.8415	0.5961	0.5376	-0.5
Mof_C 	C 	0.6103	0.3722	0.3487	-0.587
Mof_C 	C 	0.6399	0.4086	0.4259	0.208
Mof_C 	C 	0.7073	0.4475	0.4788	-0.175
Mof_C 	C 	0.7046	0.4677	0.5385	0.23
Mof_C 	C 	0.7606	0.5089	0.6117	-0.617
Mof_C 	C 	0.7536	0.1616	0.5858	-0.562
Mof_C 	C 	0.71	0.1564	0.6198	0.175
Mof_C 	C 	0.7281	0.2014	0.6885	-0.11
Mof_C 	C 	0.6727	0.1685	0.6936	0.146
Mof_C 	C 	0.6585	0.1961	0.7546	-0.5
Mof_C 	C 	0.8897	0.2384	0.7619	-0.589
Mof_C 	C 	0.8601	0.286	0.7687	0.208
Mof_C 	C 	0.7927	0.2715	0.7402	-0.175
Mof_C 	C 	0.7954	0.3339	0.7631	0.23
Mof_C 	C 	0.7394	0.3511	0.7483	-0.617
Mof_C 	C 	0.0758	0.1678	0.9142	-0.561
Mof_C 	C 	0.0366	0.0902	0.8802	0.175
Mof_C 	C 	0.0129	0.0396	0.8115	-0.112
Mof_C 	C 	0.9749	0.9791	0.8064	0.148
Mof_C 	C 	0.9415	0.9039	0.7454	-0.502
Mof_C 	C 	0.9765	0.1278	0.7381	-0.573
Mof_C 	C 	0.0173	0.0914	0.7313	0.202
Mof_C 	C 	0.0313	0.0525	0.7598	-0.171
Mof_C 	C 	0.0708	0.0323	0.7369	0.226
Mof_C 	C 	0.1028	0.9911	0.7517	-0.608
Mof_C 	C 	0.4242	0.3384	0.092	-0.562
Mof_C 	C 	0.4634	0.3436	0.0536	0.175
Mof_C 	C 	0.4871	0.2986	0.0267	-0.11
Mof_C 	C 	0.5251	0.3315	0.0042	0.146
Mof_C 	C 	0.5585	0.3039	0.9624	-0.5
Mof_C 	C 	0.5235	0.2616	0.1513	-0.587
Mof_C 	C 	0.4827	0.214	0.0741	0.208
Mof_C 	C 	0.4687	0.2285	0.0212	-0.174
Mof_C 	C 	0.4292	0.1661	0.9615	0.23
Mof_C 	C 	0.3972	0.1489	0.8883	-0.617
Mof_N 	N 	0.3997	0.5456	0.9881	-0.208
Mof_N 	N 	0.3911	0.5117	0.0252	-0.207
Mof_N 	N 	0.144	0.5463	0.9499	-0.213
Mof_N 	N 	0.1147	0.475	0.9171	-0.224
Mof_N 	N 	0.0575	0.4116	0.5119	-0.207
Mof_N 	N 	0.9865	0.3659	0.4748	-0.207
Mof_N 	N 	0.0964	0.1941	0.5501	-0.213
Mof_N 	N 	0.0579	0.1976	0.5829	-0.224
Mof_N 	N 	0.1003	0.0884	0.1459	-0.208
Mof_N 	N 	0.1089	0.1341	0.1206	-0.207
Mof_N 	N 	0.356	0.3059	0.4023	-0.213
Mof_N 	N 	0.3853	0.3024	0.3603	-0.225
Mof_N 	N 	0.4425	0.9544	0.3541	-0.207
Mof_N 	N 	0.5135	0.9883	0.3794	-0.207
Mof_N 	N 	0.4036	0.9537	0.0977	-0.213
Mof_N 	N 	0.4421	0.025	0.1397	-0.225
Mof_N 	N 	0.4116	0.0119	0.5575	-0.207
Mof_N 	N 	0.3659	0.9748	0.4865	-0.207
Mof_N 	N 	0.1941	0.0501	0.5964	-0.213
Mof_N 	N 	0.1976	0.0829	0.5579	-0.224
Mof_N 	N 	0.5456	0.4881	0.8997	-0.207
Mof_N 	N 	0.5117	0.5252	0.8911	-0.207
Mof_N 	N 	0.5463	0.4499	0.644	-0.213
Mof_N 	N 	0.475	0.4171	0.6147	-0.225
Mof_N 	N 	0.9544	0.8541	0.9425	-0.206
Mof_N 	N 	0.9883	0.8794	0.0135	-0.208
Mof_N 	N 	0.9537	0.5977	0.9036	-0.213
Mof_N 	N 	0.025	0.6397	0.9421	-0.224
Mof_N 	N 	0.0884	0.6459	0.6003	-0.207
Mof_N 	N 	0.1341	0.6206	0.6089	-0.207
Mof_N 	N 	0.3059	0.9023	0.856	-0.213
Mof_N 	N 	0.3024	0.8603	0.8853	-0.224
Mof_N 	N 	0.8541	0.4425	0.4544	-0.207
Mof_N 	N 	0.8794	0.5135	0.4883	-0.207
Mof_N 	N 	0.5977	0.4036	0.4537	-0.213
Mof_N 	N 	0.6397	0.4421	0.525	-0.225
Mof_N 	N 	0.6459	0.1003	0.5884	-0.207
Mof_N 	N 	0.6206	0.1089	0.6341	-0.207
Mof_N 	N 	0.9023	0.356	0.8059	-0.213
Mof_N 	N 	0.8603	0.3853	0.8024	-0.225
Mof_N 	N 	0.0119	0.0575	0.9116	-0.209
Mof_N 	N 	0.9748	0.9865	0.8659	-0.207
Mof_N 	N 	0.0501	0.0964	0.6941	-0.212
Mof_N 	N 	0.0829	0.0579	0.6976	-0.224
Mof_N 	N 	0.4881	0.3997	0.0456	-0.207
Mof_N 	N 	0.5252	0.3911	0.0117	-0.207
Mof_N 	N 	0.4499	0.144	0.0463	-0.213
Mof_N 	N 	0.4171	0.1147	0.975	-0.224
_end
