data_functionalizedCrystal
_audit_creation_method	'EQeq! by Chris Wilmer'
_symmetry_space_group_name_H-M	'P1'
_symmetry_Int_Tables_number	1
_symmetry_cell_setting	triclinic
loop_
_symmetry_equiv_pos_as_xyz
  x,y,z
_cell_length_a	13.5274
_cell_length_b	13.5274
_cell_length_c	8.0726
_cell_angle_alpha	90
_cell_angle_beta	90
_cell_angle_gamma	120
loop_
_atom_site_label
_atom_site_type_symbol
_atom_site_fract_x
_atom_site_fract_y
_atom_site_fract_z
_atom_site_charge
Mof_Mn	Mn	0.30132	0.33822	0.54516	0.788
Mof_O 	O 	0.22957	0.18151	0.4061	-0.339
Mof_C 	C 	0.53477	0.32292	0.5485	-0.143
Mof_C 	C 	0.35367	0.5598	0.7766	-0.135
Mof_O 	O 	0.24563	0.05844	0.2465	-0.342
Mof_C 	C 	0.2673	0.158	0.2801	0.348
Mof_N 	N 	0.3469	0.2088	0.0001	-0.269
Mof_H 	H 	0.4112	0.2568	0.9453	0.098
Mof_H 	H 	0.2866	0.1988	0.9398	0.138
Mof_C 	C 	0.3456	0.255	0.1638	-0.109
Mof_H 	H 	0.4231	0.2873	0.2085	0.049
Mof_N 	N 	0.36593	0.42779	0.3029	-0.293
Mof_H 	H 	0.3484	0.4837	0.2952	0.1
Mof_H 	H 	0.4425	0.4609	0.3017	0.105
Mof_C 	C 	0.3197	0.3531	0.1564	-0.018
Mof_H 	H 	0.3531	0.3976	0.0569	0.028
Mof_H 	H 	0.2378	0.322	0.1512	0.041
Mof_N 	N 	0.4555	0.3215	0.6031	-0.148
Mof_N 	N 	0.3678	0.5001	0.6919	-0.154
Mof_Mn	Mn	0.66178	0.9631	0.54516	0.787
Mof_O 	O 	0.81849	0.04806	0.4061	-0.339
Mof_C 	C 	0.67708	0.21185	0.5485	-0.144
Mof_C 	C 	0.4402	0.79387	0.7766	-0.136
Mof_O 	O 	0.94156	0.18719	0.2465	-0.344
Mof_C 	C 	0.842	0.1093	0.2801	0.348
Mof_N 	N 	0.7912	0.1381	0.0001	-0.271
Mof_H 	H 	0.7432	0.1544	0.9453	0.099
Mof_H 	H 	0.8012	0.0878	0.9398	0.139
Mof_C 	C 	0.745	0.0906	0.1638	-0.109
Mof_H 	H 	0.7127	0.1358	0.2085	0.049
Mof_N 	N 	0.57221	0.93814	0.3029	-0.293
Mof_H 	H 	0.5163	0.8647	0.2952	0.1
Mof_H 	H 	0.5391	0.9816	0.3017	0.105
Mof_C 	C 	0.6469	0.9666	0.1564	-0.018
Mof_H 	H 	0.6024	0.9555	0.0569	0.027
Mof_H 	H 	0.678	0.9158	0.1512	0.041
Mof_N 	N 	0.6785	0.134	0.6031	-0.148
Mof_N 	N 	0.4999	0.8677	0.6919	-0.154
Mof_Mn	Mn	0.0369	0.69868	0.54516	0.786
Mof_O 	O 	0.95194	0.77043	0.4061	-0.339
Mof_C 	C 	0.78815	0.46523	0.5485	-0.144
Mof_C 	C 	0.20613	0.64633	0.7766	-0.137
Mof_O 	O 	0.81281	0.75437	0.2465	-0.343
Mof_C 	C 	0.8907	0.7327	0.2801	0.348
Mof_N 	N 	0.8619	0.6531	0.0001	-0.27
Mof_H 	H 	0.8456	0.5888	0.9453	0.098
Mof_H 	H 	0.9122	0.7134	0.9398	0.138
Mof_C 	C 	0.9094	0.6544	0.1638	-0.109
Mof_H 	H 	0.8642	0.5769	0.2085	0.049
Mof_N 	N 	0.06186	0.63407	0.3029	-0.293
Mof_H 	H 	0.1353	0.6516	0.2952	0.1
Mof_H 	H 	0.0184	0.5575	0.3017	0.105
Mof_C 	C 	0.0334	0.6803	0.1564	-0.018
Mof_H 	H 	0.0445	0.6469	0.0569	0.028
Mof_H 	H 	0.0842	0.7622	0.1512	0.041
Mof_N 	N 	0.866	0.5445	0.6031	-0.148
Mof_N 	N 	0.1323	0.6322	0.6919	-0.154
Mof_Mn	Mn	0.69868	0.66178	0.04516	0.791
Mof_O 	O 	0.77043	0.81849	0.9061	-0.342
Mof_C 	C 	0.46523	0.67708	0.0485	-0.14
Mof_C 	C 	0.64633	0.4402	0.2766	-0.136
Mof_O 	O 	0.75437	0.94156	0.7465	-0.344
Mof_C 	C 	0.7327	0.842	0.7801	0.348
Mof_N 	N 	0.6531	0.7912	0.5001	-0.275
Mof_H 	H 	0.5888	0.7432	0.4453	0.101
Mof_H 	H 	0.7134	0.8012	0.4398	0.141
Mof_C 	C 	0.6544	0.745	0.6638	-0.109
Mof_H 	H 	0.5769	0.7127	0.7085	0.048
Mof_N 	N 	0.63407	0.57221	0.8029	-0.293
Mof_H 	H 	0.6516	0.5163	0.7952	0.1
Mof_H 	H 	0.5575	0.5391	0.8017	0.104
Mof_C 	C 	0.6803	0.6469	0.6564	-0.018
Mof_H 	H 	0.6469	0.6024	0.5569	0.026
Mof_H 	H 	0.7622	0.678	0.6512	0.04
Mof_N 	N 	0.5445	0.6785	0.1031	-0.149
Mof_N 	N 	0.6322	0.4999	0.1919	-0.154
Mof_Mn	Mn	0.33822	0.0369	0.04516	0.791
Mof_O 	O 	0.18151	0.95194	0.9061	-0.343
Mof_C 	C 	0.32292	0.78815	0.0485	-0.14
Mof_C 	C 	0.5598	0.20613	0.2766	-0.136
Mof_O 	O 	0.05844	0.81281	0.7465	-0.345
Mof_C 	C 	0.158	0.8907	0.7801	0.348
Mof_N 	N 	0.2088	0.8619	0.5001	-0.274
Mof_H 	H 	0.2568	0.8456	0.4453	0.101
Mof_H 	H 	0.1988	0.9122	0.4398	0.141
Mof_C 	C 	0.255	0.9094	0.6638	-0.11
Mof_H 	H 	0.2873	0.8642	0.7085	0.049
Mof_N 	N 	0.42779	0.06186	0.8029	-0.294
Mof_H 	H 	0.4837	0.1353	0.7952	0.1
Mof_H 	H 	0.4609	0.0184	0.8017	0.104
Mof_C 	C 	0.3531	0.0334	0.6564	-0.017
Mof_H 	H 	0.3976	0.0445	0.5569	0.026
Mof_H 	H 	0.322	0.0842	0.6512	0.04
Mof_N 	N 	0.3215	0.866	0.1031	-0.149
Mof_N 	N 	0.5001	0.1323	0.1919	-0.154
Mof_Mn	Mn	0.9631	0.30132	0.04516	0.791
Mof_O 	O 	0.04806	0.22957	0.9061	-0.342
Mof_C 	C 	0.21185	0.53477	0.0485	-0.14
Mof_C 	C 	0.79387	0.35367	0.2766	-0.136
Mof_O 	O 	0.18719	0.24563	0.7465	-0.344
Mof_C 	C 	0.1093	0.2673	0.7801	0.348
Mof_N 	N 	0.1381	0.3469	0.5001	-0.275
Mof_H 	H 	0.1544	0.4112	0.4453	0.101
Mof_H 	H 	0.0878	0.2866	0.4398	0.141
Mof_C 	C 	0.0906	0.3456	0.6638	-0.11
Mof_H 	H 	0.1358	0.4231	0.7085	0.048
Mof_N 	N 	0.93814	0.36593	0.8029	-0.293
Mof_H 	H 	0.8647	0.3484	0.7952	0.1
Mof_H 	H 	0.9816	0.4425	0.8017	0.104
Mof_C 	C 	0.9666	0.3197	0.6564	-0.017
Mof_H 	H 	0.9555	0.3531	0.5569	0.026
Mof_H 	H 	0.9158	0.2378	0.6512	0.04
Mof_N 	N 	0.134	0.4555	0.1031	-0.149
Mof_N 	N 	0.8677	0.3678	0.1919	-0.154
Mof_Mn	Mn	0.33333	0.66667	0.9224	0.777
Mof_Mn	Mn	0.66667	0.33333	0.4224	0.785
_end
