data_functionalizedCrystal
_audit_creation_method	'EQeq! by Chris Wilmer'
_symmetry_space_group_name_H-M	'P1'
_symmetry_Int_Tables_number	1
_symmetry_cell_setting	triclinic
loop_
_symmetry_equiv_pos_as_xyz
  x,y,z
_cell_length_a	18.126
_cell_length_b	20.015
_cell_length_c	21.79
_cell_angle_alpha	109.155
_cell_angle_beta	103.794
_cell_angle_gamma	99.7
loop_
_atom_site_label
_atom_site_type_symbol
_atom_site_fract_x
_atom_site_fract_y
_atom_site_fract_z
_atom_site_charge
Mof_Rh	Rh	0.9207	0.9071	0.3474	0.859
Mof_Rh	Rh	0.5586	0.2701	0.5477	0.85
Mof_Zr	Zr	0.92559	0.36712	0.94261	3.206
Mof_Zr	Zr	0.99925	0.49645	0.11132	3.205
Mof_Zr	Zr	0.12812	0.46769	0.01423	3.195
Mof_Cl	Cl	0.5832	0.2291	0.4433	-0.48
Mof_Cl	Cl	0.0173	0.0216	0.413	-0.488
Mof_P 	P 	0.4259	0.2461	0.5085	-0.061
Mof_P 	P 	0.8296	0.96	0.3077	-0.065
Mof_O 	O 	0.0438	0.732	0.0803	-0.655
Mof_C 	C 	0.0269	0.762	0.1356	0.327
Mof_O 	O 	0.9499	0.7478	0.1263	-0.277
Mof_O 	O 	0.0273	0.4168	0.9225	-1.29
Mof_O 	O 	0.9012	0.4472	0.0216	-1.294
Mof_O 	O 	0.0277	0.4122	0.0359	-1.227
Mof_O 	O 	0.1006	0.5442	0.0908	-1.285
Mof_O 	O 	0.2431	0.5543	0.0639	-0.629
Mof_O 	O 	0.204	0.6648	0.094	-0.639
Mof_O 	O 	0.1801	0.4498	0.1074	-0.688
Mof_O 	O 	0.0985	0.4675	0.1718	-0.612
Mof_O 	O 	0.1825	0.4522	0.9297	-0.785
Mof_O 	O 	0.1018	0.4756	0.8488	-0.662
Mof_O 	O 	0.888	0.3146	0.8243	-0.642
Mof_O 	O 	0.9427	0.4026	0.7902	-0.632
Mof_O 	O 	0.9434	0.3929	0.1222	-0.616
Mof_O 	O 	0.8907	0.31	0.0104	-0.631
Mof_C 	C 	0.9107	0.3315	0.07	0.507
Mof_C 	C 	0.161	0.4621	0.882	0.633
Mof_C 	C 	0.8986	0.2688	0.1021	-0.102
Mof_C 	C 	0.9402	0.2827	0.1694	0.049
Mof_H 	H 	0.9759	0.3295	0.1977	0.035
Mof_C 	C 	0.9295	0.2282	0.1953	-0.122
Mof_H 	H 	0.9579	0.2377	0.2414	0.074
Mof_C 	C 	0.8773	0.1598	0.1539	0.081
Mof_C 	C 	0.8357	0.1458	0.0866	-0.121
Mof_H 	H 	0.8	0.099	0.0583	0.075
Mof_C 	C 	0.8463	0.2003	0.0607	0.048
Mof_H 	H 	0.8179	0.1908	0.0146	0.037
Mof_C 	C 	0.185	0.9618	0.2942	0.058
Mof_C 	C 	0.211	0.918	0.244	-0.11
Mof_H 	H 	0.2648	0.9301	0.2463	0.065
Mof_C 	C 	0.158	0.8558	0.1908	0.036
Mof_H 	H 	0.1756	0.8258	0.1566	0.024
Mof_C 	C 	0.0793	0.8378	0.1875	-0.098
Mof_C 	C 	0.0536	0.8818	0.2376	0.04
Mof_H 	H 	0.9998	0.8694	0.2354	0.007
Mof_C 	C 	0.107	0.9437	0.2909	-0.127
Mof_H 	H 	0.089	0.9738	0.3251	0.079
Mof_C 	C 	0.686	0.365	0.615	-0.064
Mof_H 	H 	0.7179	0.3913	0.593	0.046
Mof_C 	C 	0.867	0.105	0.181	-0.038
Mof_C 	C 	0.924	0.09	0.224	-0.008
Mof_H 	H 	0.9779	0.1141	0.2329	0.038
Mof_C 	C 	0.794	0.059	0.176	-0.007
Mof_H 	H 	0.7498	0.0609	0.1435	0.036
Mof_C 	C 	0.773	0.012	0.208	-0.099
Mof_H 	H 	0.7208	0.986	0.2005	0.068
Mof_C 	C 	0.909	0.043	0.256	-0.09
Mof_H 	H 	0.9525	0.0335	0.2832	0.061
Mof_C 	C 	0.834	0.008	0.249	0.041
Mof_C 	C 	0.363	0.151	0.4588	0.003
Mof_C 	C 	0.2861	0.1344	0.4605	-0.05
Mof_H 	H 	0.2718	0.165	0.4969	0.048
Mof_C 	C 	0.2301	0.0729	0.4091	-0.055
Mof_H 	H 	0.1775	0.0615	0.4103	0.067
Mof_C 	C 	0.251	0.028	0.356	0.001
Mof_C 	C 	0.328	0.0447	0.3542	-0.04
Mof_H 	H 	0.3421	0.014	0.3179	0.042
Mof_C 	C 	0.3838	0.1062	0.4056	-0.062
Mof_H 	H 	0.4364	0.1176	0.4044	0.059
Mof_C 	C 	0.8298	0.0146	0.4411	-0.048
Mof_H 	H 	0.8364	0.9676	0.438	0.029
Mof_C 	C 	0.8271	0.064	0.5021	-0.042
Mof_H 	H 	0.8318	0.0508	0.5407	0.049
Mof_C 	C 	0.8174	0.1327	0.5067	-0.009
Mof_C 	C 	0.8105	0.1521	0.4503	-0.04
Mof_H 	H 	0.8039	0.199	0.4534	0.052
Mof_C 	C 	0.8133	0.1027	0.3893	-0.049
Mof_H 	H 	0.8085	0.1159	0.3507	0.056
Mof_C 	C 	0.8229	0.0339	0.3847	0.005
Mof_C 	C 	0.8294	0.2191	0.6912	0.075
Mof_H 	H 	0.8133	0.2036	0.724	0.023
Mof_C 	C 	0.8735	0.2908	0.7107	-0.165
Mof_C 	C 	0.8969	0.3134	0.6628	0.079
Mof_H 	H 	0.9271	0.3624	0.6762	0.023
Mof_C 	C 	0.8762	0.2642	0.5954	-0.139
Mof_H 	H 	0.8923	0.2796	0.5626	0.076
Mof_C 	C 	0.8321	0.1925	0.5759	0.074
Mof_C 	C 	0.8087	0.1699	0.6238	-0.145
Mof_H 	H 	0.7785	0.1209	0.6105	0.076
Mof_C 	C 	0.905	0.34	0.785	0.522
Mof_C 	C 	0.7228	0.902	0.2681	-0.003
Mof_C 	C 	0.707	0.843	0.202	-0.065
Mof_H 	H 	0.7457	0.8381	0.1799	0.041
Mof_C 	C 	0.631	0.7937	0.1728	-0.044
Mof_H 	H 	0.617	0.7538	0.13	0.042
Mof_C 	C 	0.576	0.8052	0.2089	-0.013
Mof_C 	C 	0.589	0.867	0.273	-0.043
Mof_H 	H 	0.5482	0.8761	0.2927	0.039
Mof_C 	C 	0.666	0.912	0.302	-0.063
Mof_H 	H 	0.6802	0.95	0.3454	0.053
Mof_C 	C 	0.4314	0.7932	0.185	-0.115
Mof_H 	H 	0.4415	0.8449	0.2069	0.068
Mof_C 	C 	0.3543	0.7489	0.1574	0.04
Mof_H 	H 	0.3117	0.7704	0.1603	0.035
Mof_C 	C 	0.3396	0.6733	0.1254	-0.103
Mof_C 	C 	0.402	0.6419	0.1211	0.038
Mof_H 	H 	0.3919	0.5902	0.0992	0.032
Mof_C 	C 	0.4791	0.6862	0.1488	-0.112
Mof_H 	H 	0.5217	0.6647	0.1458	0.065
Mof_C 	C 	0.4938	0.7618	0.1807	0.06
Mof_C 	C 	0.888	0.793	0.4	0.016
Mof_H 	H 	0.8624	0.7859	0.4345	0.027
Mof_C 	C 	0.251	0.6244	0.0889	0.447
Mof_C 	C 	0.162	0.4497	0.1608	0.493
Mof_C 	C 	0.2101	0.4314	0.2178	-0.173
Mof_C 	C 	0.1868	0.4342	0.2747	0.085
Mof_H 	H 	0.1437	0.4535	0.2816	0.016
Mof_C 	C 	0.2266	0.4087	0.3215	-0.149
Mof_H 	H 	0.2107	0.4106	0.3603	0.078
Mof_C 	C 	0.2897	0.3805	0.3113	0.088
Mof_C 	C 	0.313	0.3778	0.2544	-0.147
Mof_H 	H 	0.3561	0.3585	0.2475	0.08
Mof_C 	C 	0.2732	0.4032	0.2076	0.081
Mof_H 	H 	0.2892	0.4014	0.1687	0.007
Mof_C 	C 	0.3879	0.2904	0.4502	0.013
Mof_C 	C 	0.4368	0.3257	0.4235	-0.068
Mof_H 	H 	0.4918	0.3297	0.4371	0.051
Mof_C 	C 	0.4054	0.3552	0.377	-0.026
Mof_H 	H 	0.4389	0.3794	0.3587	0.039
Mof_C 	C 	0.325	0.3493	0.3571	-0.026
Mof_C 	C 	0.2761	0.314	0.3838	-0.028
Mof_H 	H 	0.2212	0.31	0.3703	0.04
Mof_C 	C 	0.3075	0.2845	0.4304	-0.066
Mof_H 	H 	0.274	0.2603	0.4486	0.056
Mof_C 	C 	0.391	0.2905	0.5787	-0.013
Mof_C 	C 	0.3895	0.261	0.6281	-0.052
Mof_H 	H 	0.4077	0.2186	0.6254	0.032
Mof_C 	C 	0.3614	0.2935	0.6814	-0.048
Mof_H 	H 	0.3604	0.2734	0.7152	0.044
Mof_C 	C 	0.3347	0.3555	0.6854	-0.007
Mof_C 	C 	0.3362	0.385	0.636	-0.046
Mof_H 	H 	0.318	0.4274	0.6386	0.042
Mof_C 	C 	0.3643	0.3524	0.5826	-0.058
Mof_H 	H 	0.3653	0.3726	0.5488	0.046
Mof_C 	C 	0.292	0.386	0.73	0.057
Mof_C 	C 	0.2986	0.3711	0.7925	-0.11
Mof_H 	H 	0.3326	0.3418	0.8017	0.063
Mof_C 	C 	0.2595	0.3957	0.8386	0.057
Mof_H 	H 	0.2676	0.3838	0.8781	0.019
Mof_C 	C 	0.2074	0.4385	0.8275	-0.14
Mof_C 	C 	0.198	0.4582	0.772	0.055
Mof_H 	H 	0.1658	0.4886	0.763	0.029
Mof_C 	C 	0.244	0.428	0.728	-0.112
Mof_H 	H 	0.2368	0.4412	0.6892	0.064
Mof_C 	C 	0.974	0.856	0.424	-0.11
Mof_H 	H 	0.0087	0.885	0.4721	0.09
Mof_C 	C 	0.002	0.845	0.357	-0.254
Mof_H 	H 	0.0573	0.8586	0.3575	0.113
Mof_C 	C 	0.836	0.805	0.327	-0.15
Mof_H 	H 	0.7789	0.8021	0.3177	0.064
Mof_C 	C 	0.938	0.771	0.308	0.09
Mof_H 	H 	0.9579	0.74	0.2729	0.013
Mof_C 	C 	0.866	0.7921	0.277	-0.189
Mof_H 	H 	0.8362	0.7742	0.227	0.078
Mof_C 	C 	0.923	0.734	0.36	-0.172
Mof_H 	H 	0.8855	0.685	0.3367	0.09
Mof_H 	H 	0.973	0.7315	0.3893	0.089
Mof_C 	C 	0.644	0.405	0.664	0.033
Mof_H 	H 	0.6546	0.4597	0.6802	0.021
Mof_C 	C 	0.56	0.36	0.642	-0.187
Mof_H 	H 	0.5143	0.3813	0.6464	0.079
Mof_C 	C 	0.569	0.287	0.657	-0.194
Mof_H 	H 	0.5309	0.2587	0.6713	0.078
Mof_C 	C 	0.687	0.37	0.715	-0.168
Mof_H 	H 	0.6704	0.3816	0.7564	0.094
Mof_H 	H 	0.7448	0.3873	0.7278	0.095
Mof_C 	C 	0.653	0.285	0.666	0.078
Mof_H 	H 	0.6705	0.25	0.6862	0.005
Mof_C 	C 	0.675	0.282	0.6	-0.266
Mof_H 	H 	0.7094	0.2522	0.5815	0.119
Mof_Rh	Rh	0.0793	0.0929	0.6526	0.86
Mof_Rh	Rh	0.4414	0.7299	0.4523	0.851
Mof_Zr	Zr	0.07441	0.63288	0.05739	3.207
Mof_Zr	Zr	0.00075	0.50355	0.88868	3.206
Mof_Zr	Zr	0.87188	0.53231	0.98577	3.195
Mof_Cl	Cl	0.4168	0.7709	0.5567	-0.48
Mof_Cl	Cl	0.9827	0.9784	0.587	-0.488
Mof_P 	P 	0.5741	0.7539	0.4915	-0.061
Mof_P 	P 	0.1704	0.04	0.6923	-0.065
Mof_O 	O 	0.9562	0.268	0.9197	-0.655
Mof_C 	C 	0.9731	0.238	0.8644	0.327
Mof_O 	O 	0.0501	0.2522	0.8737	-0.277
Mof_O 	O 	0.9727	0.5832	0.0775	-1.29
Mof_O 	O 	0.0988	0.5528	0.9784	-1.294
Mof_O 	O 	0.9723	0.5878	0.9641	-1.227
Mof_O 	O 	0.8994	0.4558	0.9092	-1.285
Mof_O 	O 	0.7569	0.4457	0.9361	-0.629
Mof_O 	O 	0.796	0.3352	0.906	-0.639
Mof_O 	O 	0.8199	0.5502	0.8926	-0.688
Mof_O 	O 	0.9015	0.5325	0.8282	-0.612
Mof_O 	O 	0.8175	0.5478	0.0703	-0.785
Mof_O 	O 	0.8982	0.5244	0.1512	-0.662
Mof_O 	O 	0.112	0.6854	0.1757	-0.642
Mof_O 	O 	0.0573	0.5974	0.2098	-0.632
Mof_O 	O 	0.0566	0.6071	0.8778	-0.616
Mof_O 	O 	0.1093	0.69	0.9896	-0.631
Mof_C 	C 	0.0893	0.6685	0.93	0.507
Mof_C 	C 	0.839	0.5379	0.118	0.633
Mof_C 	C 	0.1014	0.7312	0.8979	-0.102
Mof_C 	C 	0.0598	0.7173	0.8306	0.049
Mof_H 	H 	0.0241	0.6705	0.8023	0.035
Mof_C 	C 	0.0705	0.7718	0.8047	-0.122
Mof_H 	H 	0.0421	0.7623	0.7586	0.074
Mof_C 	C 	0.1227	0.8402	0.8461	0.081
Mof_C 	C 	0.1643	0.8542	0.9134	-0.121
Mof_H 	H 	0.2	0.901	0.9417	0.075
Mof_C 	C 	0.1537	0.7997	0.9393	0.048
Mof_H 	H 	0.1821	0.8092	0.9854	0.037
Mof_C 	C 	0.815	0.0382	0.7058	0.058
Mof_C 	C 	0.789	0.082	0.756	-0.11
Mof_H 	H 	0.7352	0.0699	0.7537	0.065
Mof_C 	C 	0.842	0.1442	0.8092	0.036
Mof_H 	H 	0.8244	0.1742	0.8434	0.024
Mof_C 	C 	0.9207	0.1622	0.8125	-0.098
Mof_C 	C 	0.9464	0.1182	0.7624	0.04
Mof_H 	H 	0.0002	0.1306	0.7646	0.007
Mof_C 	C 	0.893	0.0563	0.7091	-0.127
Mof_H 	H 	0.911	0.0262	0.6749	0.079
Mof_C 	C 	0.314	0.635	0.385	-0.064
Mof_H 	H 	0.2821	0.6087	0.407	0.046
Mof_C 	C 	0.133	0.895	0.819	-0.038
Mof_C 	C 	0.076	0.91	0.776	-0.008
Mof_H 	H 	0.0221	0.8859	0.7671	0.038
Mof_C 	C 	0.206	0.941	0.824	-0.007
Mof_H 	H 	0.2502	0.9391	0.8565	0.036
Mof_C 	C 	0.227	0.988	0.792	-0.099
Mof_H 	H 	0.2792	0.014	0.7995	0.068
Mof_C 	C 	0.091	0.957	0.744	-0.09
Mof_H 	H 	0.0475	0.9665	0.7168	0.061
Mof_C 	C 	0.166	0.992	0.751	0.041
Mof_C 	C 	0.637	0.849	0.5412	0.003
Mof_C 	C 	0.7139	0.8656	0.5395	-0.05
Mof_H 	H 	0.7282	0.835	0.5031	0.048
Mof_C 	C 	0.7699	0.9271	0.5909	-0.055
Mof_H 	H 	0.8225	0.9385	0.5897	0.067
Mof_C 	C 	0.749	0.972	0.644	0.001
Mof_C 	C 	0.672	0.9553	0.6458	-0.04
Mof_H 	H 	0.6579	0.986	0.6821	0.042
Mof_C 	C 	0.6162	0.8938	0.5944	-0.062
Mof_H 	H 	0.5636	0.8824	0.5956	0.059
Mof_C 	C 	0.1702	0.9854	0.5589	-0.048
Mof_H 	H 	0.1636	0.0324	0.562	0.029
Mof_C 	C 	0.1729	0.936	0.4979	-0.042
Mof_H 	H 	0.1682	0.9492	0.4593	0.049
Mof_C 	C 	0.1826	0.8673	0.4933	-0.009
Mof_C 	C 	0.1895	0.8479	0.5497	-0.04
Mof_H 	H 	0.1961	0.801	0.5466	0.052
Mof_C 	C 	0.1867	0.8973	0.6107	-0.049
Mof_H 	H 	0.1915	0.8841	0.6493	0.056
Mof_C 	C 	0.1771	0.9661	0.6153	0.005
Mof_C 	C 	0.1706	0.7809	0.3088	0.075
Mof_H 	H 	0.1867	0.7964	0.276	0.023
Mof_C 	C 	0.1265	0.7092	0.2893	-0.165
Mof_C 	C 	0.1031	0.6866	0.3372	0.079
Mof_H 	H 	0.0729	0.6376	0.3238	0.023
Mof_C 	C 	0.1238	0.7358	0.4046	-0.139
Mof_H 	H 	0.1077	0.7204	0.4374	0.076
Mof_C 	C 	0.1679	0.8075	0.4241	0.074
Mof_C 	C 	0.1913	0.8301	0.3762	-0.145
Mof_H 	H 	0.2215	0.8791	0.3895	0.076
Mof_C 	C 	0.095	0.66	0.215	0.522
Mof_C 	C 	0.2772	0.098	0.7319	-0.003
Mof_C 	C 	0.293	0.157	0.798	-0.065
Mof_H 	H 	0.2543	0.1619	0.8201	0.041
Mof_C 	C 	0.369	0.2063	0.8272	-0.044
Mof_H 	H 	0.383	0.2462	0.87	0.042
Mof_C 	C 	0.424	0.1948	0.7911	-0.013
Mof_C 	C 	0.411	0.133	0.727	-0.043
Mof_H 	H 	0.4518	0.1239	0.7073	0.039
Mof_C 	C 	0.334	0.088	0.698	-0.063
Mof_H 	H 	0.3198	0.05	0.6546	0.053
Mof_C 	C 	0.5686	0.2068	0.815	-0.115
Mof_H 	H 	0.5585	0.1551	0.7931	0.068
Mof_C 	C 	0.6457	0.2511	0.8426	0.04
Mof_H 	H 	0.6883	0.2296	0.8397	0.035
Mof_C 	C 	0.6604	0.3267	0.8746	-0.103
Mof_C 	C 	0.598	0.3581	0.8789	0.038
Mof_H 	H 	0.6081	0.4098	0.9008	0.032
Mof_C 	C 	0.5209	0.3138	0.8512	-0.112
Mof_H 	H 	0.4783	0.3353	0.8542	0.065
Mof_C 	C 	0.5062	0.2382	0.8193	0.06
Mof_C 	C 	0.112	0.207	0.6	0.016
Mof_H 	H 	0.1376	0.2141	0.5655	0.027
Mof_C 	C 	0.749	0.3756	0.9111	0.447
Mof_C 	C 	0.838	0.5503	0.8392	0.493
Mof_C 	C 	0.7899	0.5686	0.7822	-0.173
Mof_C 	C 	0.8132	0.5658	0.7253	0.085
Mof_H 	H 	0.8563	0.5465	0.7184	0.016
Mof_C 	C 	0.7734	0.5913	0.6785	-0.149
Mof_H 	H 	0.7893	0.5894	0.6397	0.078
Mof_C 	C 	0.7103	0.6195	0.6887	0.088
Mof_C 	C 	0.687	0.6222	0.7456	-0.147
Mof_H 	H 	0.6439	0.6415	0.7525	0.08
Mof_C 	C 	0.7268	0.5968	0.7924	0.081
Mof_H 	H 	0.7108	0.5986	0.8313	0.007
Mof_C 	C 	0.6121	0.7096	0.5498	0.013
Mof_C 	C 	0.5632	0.6743	0.5765	-0.068
Mof_H 	H 	0.5082	0.6703	0.5629	0.051
Mof_C 	C 	0.5946	0.6448	0.623	-0.026
Mof_H 	H 	0.5611	0.6206	0.6413	0.039
Mof_C 	C 	0.675	0.6507	0.6429	-0.026
Mof_C 	C 	0.7239	0.686	0.6162	-0.028
Mof_H 	H 	0.7788	0.69	0.6297	0.04
Mof_C 	C 	0.6925	0.7155	0.5696	-0.066
Mof_H 	H 	0.726	0.7397	0.5514	0.056
Mof_C 	C 	0.609	0.7095	0.4213	-0.013
Mof_C 	C 	0.6105	0.739	0.3719	-0.052
Mof_H 	H 	0.5923	0.7814	0.3746	0.032
Mof_C 	C 	0.6386	0.7065	0.3186	-0.048
Mof_H 	H 	0.6396	0.7266	0.2848	0.044
Mof_C 	C 	0.6653	0.6445	0.3146	-0.007
Mof_C 	C 	0.6638	0.615	0.364	-0.046
Mof_H 	H 	0.682	0.5726	0.3614	0.042
Mof_C 	C 	0.6357	0.6476	0.4174	-0.058
Mof_H 	H 	0.6347	0.6274	0.4512	0.046
Mof_C 	C 	0.708	0.614	0.27	0.057
Mof_C 	C 	0.7014	0.6289	0.2075	-0.11
Mof_H 	H 	0.6674	0.6582	0.1983	0.063
Mof_C 	C 	0.7405	0.6043	0.1614	0.057
Mof_H 	H 	0.7324	0.6162	0.1219	0.019
Mof_C 	C 	0.7926	0.5615	0.1725	-0.14
Mof_C 	C 	0.802	0.5418	0.228	0.055
Mof_H 	H 	0.8342	0.5114	0.237	0.029
Mof_C 	C 	0.756	0.572	0.272	-0.112
Mof_H 	H 	0.7632	0.5588	0.3108	0.064
Mof_C 	C 	0.026	0.144	0.576	-0.11
Mof_H 	H 	0.9913	0.115	0.5279	0.09
Mof_C 	C 	0.998	0.155	0.643	-0.254
Mof_H 	H 	0.9427	0.1414	0.6425	0.113
Mof_C 	C 	0.164	0.195	0.673	-0.15
Mof_H 	H 	0.2211	0.1979	0.6823	0.064
Mof_C 	C 	0.062	0.229	0.692	0.09
Mof_H 	H 	0.0421	0.26	0.7271	0.013
Mof_C 	C 	0.134	0.2079	0.723	-0.189
Mof_H 	H 	0.1638	0.2258	0.773	0.078
Mof_C 	C 	0.077	0.266	0.64	-0.172
Mof_H 	H 	0.1145	0.315	0.6633	0.09
Mof_H 	H 	0.027	0.2685	0.6107	0.089
Mof_C 	C 	0.356	0.595	0.336	0.033
Mof_H 	H 	0.3454	0.5403	0.3198	0.021
Mof_C 	C 	0.44	0.64	0.358	-0.187
Mof_H 	H 	0.4857	0.6187	0.3536	0.079
Mof_C 	C 	0.431	0.713	0.343	-0.194
Mof_H 	H 	0.4691	0.7413	0.3287	0.078
Mof_C 	C 	0.313	0.63	0.285	-0.168
Mof_H 	H 	0.3296	0.6184	0.2436	0.094
Mof_H 	H 	0.2552	0.6127	0.2722	0.095
Mof_C 	C 	0.347	0.715	0.334	0.078
Mof_H 	H 	0.3295	0.75	0.3138	0.005
Mof_C 	C 	0.325	0.718	0.4	-0.266
Mof_H 	H 	0.2906	0.7478	0.4185	0.119
_end
