data_functionalizedCrystal
_audit_creation_method	'EQeq! by Chris Wilmer'
_symmetry_space_group_name_H-M	'P1'
_symmetry_Int_Tables_number	1
_symmetry_cell_setting	triclinic
loop_
_symmetry_equiv_pos_as_xyz
  x,y,z
_cell_length_a	7.4935
_cell_length_b	13.6224
_cell_length_c	13.6224
_cell_angle_alpha	120
_cell_angle_beta	90
_cell_angle_gamma	90
loop_
_atom_site_label
_atom_site_type_symbol
_atom_site_fract_x
_atom_site_fract_y
_atom_site_fract_z
_atom_site_charge
Mof_La	La	0.34102	0.33333	0.66666	2.288
Mof_La	La	0.65898	0.66667	0.33334	2.287
Mof_Cu	Cu	-0	-4.72017e-17	0.5	0.879
Mof_Cu	Cu	-0	0.5	-0	0.896
Mof_Cu	Cu	-1.04809e-32	0.5	0.5	0.899
Mof_H 	H 	0.8601	0.9681	0.645	0.138
Mof_H 	H 	0.9531	0.1423	0.8029	-0.129
Mof_H 	H 	0.7684	0.1831	0.7312	0.036
Mof_H 	H 	0.6414	0.0655	0.7874	0.1
Mof_H 	H 	0.5411	0.9975	0.668	0.164
Mof_H 	H 	0.4947	0.128	0.7526	0.129
Mof_H 	H 	0.019	0.9899	0.7879	0.397
Mof_H 	H 	0.1376	0.1006	0.8618	0.363
Mof_H 	H 	0.2089	0.0028	0.7417	0.397
Mof_H 	H 	0.8601	0.6769	0.0319	0.103
Mof_H 	H 	0.9531	0.6606	0.8577	-0.014
Mof_H 	H 	0.7684	0.5481	0.8169	0.051
Mof_H 	H 	0.6414	0.7219	0.9345	0.076
Mof_H 	H 	0.5411	0.6705	0.0025	0.099
Mof_H 	H 	0.4947	0.6246	0.872	0.093
Mof_H 	H 	0.019	0.798	0.0101	0.15
Mof_H 	H 	0.1376	0.7612	0.8994	0.144
Mof_H 	H 	0.2089	0.7389	0.9972	0.197
Mof_H 	H 	0.8601	0.355	0.3231	0.1
Mof_H 	H 	0.9531	0.1971	0.3394	0.01
Mof_H 	H 	0.7684	0.2688	0.4519	0.053
Mof_H 	H 	0.6414	0.2126	0.2781	0.068
Mof_H 	H 	0.5411	0.332	0.3295	0.098
Mof_H 	H 	0.4947	0.2474	0.3754	0.092
Mof_H 	H 	0.019	0.2121	0.202	0.11
Mof_H 	H 	0.1376	0.1382	0.2388	0.116
Mof_H 	H 	0.2089	0.2583	0.2611	0.165
Mof_H 	H 	0.1399	0.0319	0.355	0.078
Mof_H 	H 	0.0469	0.8577	0.1971	-0.186
Mof_H 	H 	0.2316	0.8169	0.2688	0.052
Mof_H 	H 	0.3586	0.9345	0.2126	0.053
Mof_H 	H 	0.4589	0.0025	0.332	0.031
Mof_H 	H 	0.5053	0.872	0.2474	0.055
Mof_H 	H 	0.981	0.0101	0.2121	0.404
Mof_H 	H 	0.8624	0.8994	0.1382	0.432
Mof_H 	H 	0.7911	0.9972	0.2583	0.442
Mof_H 	H 	0.1399	0.3231	0.9681	0.117
Mof_H 	H 	0.0469	0.3394	0.1423	-0.299
Mof_H 	H 	0.2316	0.4519	0.1831	0.038
Mof_H 	H 	0.3586	0.2781	0.0655	0.077
Mof_H 	H 	0.4589	0.3295	0.9975	0.097
Mof_H 	H 	0.5053	0.3754	0.128	0.092
Mof_H 	H 	0.981	0.202	0.9899	0.628
Mof_H 	H 	0.8624	0.2388	0.1006	0.639
Mof_H 	H 	0.7911	0.2611	0.0028	0.628
Mof_H 	H 	0.1399	0.645	0.6769	0.118
Mof_H 	H 	0.0469	0.8029	0.6606	-0.297
Mof_H 	H 	0.2316	0.7312	0.5481	0.036
Mof_H 	H 	0.3586	0.7874	0.7219	0.086
Mof_H 	H 	0.4589	0.668	0.6705	0.099
Mof_H 	H 	0.5053	0.7526	0.6246	0.093
Mof_H 	H 	0.981	0.7879	0.798	0.628
Mof_H 	H 	0.8624	0.8618	0.7612	0.622
Mof_H 	H 	0.7911	0.7417	0.7389	0.623
Mof_C 	C 	0.1365	0.17742	0.72401	0.08
Mof_C 	C 	0.0321	0.0893	0.7391	0.593
Mof_C 	C 	0.7322	0.1056	0.6704	-0.021
Mof_C 	C 	0.6871	0.12036	0.57016	0.376
Mof_C 	C 	0.5901	0.0712	0.7242	-0.424
Mof_C 	C 	0.1026	0.0435	0.7847	-1.393
Mof_C 	C 	0.1365	0.54659	0.82258	0.227
Mof_C 	C 	0.0321	0.6498	0.9107	0.155
Mof_C 	C 	0.7322	0.5648	0.8944	-0.079
Mof_C 	C 	0.6871	0.4498	0.87964	0.404
Mof_C 	C 	0.5901	0.653	0.9288	-0.264
Mof_C 	C 	0.1026	0.7412	0.9565	-0.597
Mof_C 	C 	0.1365	0.27599	0.45341	0.249
Mof_C 	C 	0.0321	0.2609	0.3502	0.088
Mof_C 	C 	0.7322	0.3296	0.4352	-0.084
Mof_C 	C 	0.6871	0.42984	0.5502	0.405
Mof_C 	C 	0.5901	0.2758	0.347	-0.261
Mof_C 	C 	0.1026	0.2153	0.2588	-0.494
Mof_C 	C 	0.8635	0.82258	0.27599	0.05
Mof_C 	C 	0.9679	0.9107	0.2609	0.755
Mof_C 	C 	0.2678	0.8944	0.3296	-0.095
Mof_C 	C 	0.3129	0.87964	0.42984	0.407
Mof_C 	C 	0.4099	0.9288	0.2758	-0.132
Mof_C 	C 	0.8974	0.9565	0.2153	-1.446
Mof_C 	C 	0.8635	0.45341	0.17742	-0.09
Mof_C 	C 	0.9679	0.3502	0.0893	1.174
Mof_C 	C 	0.2678	0.4352	0.1056	-0.04
Mof_C 	C 	0.3129	0.5502	0.12036	0.38
Mof_C 	C 	0.4099	0.347	0.0712	-0.292
Mof_C 	C 	0.8974	0.2588	0.0435	-2.186
Mof_C 	C 	0.8635	0.72401	0.54659	-0.084
Mof_C 	C 	0.9679	0.7391	0.6498	1.151
Mof_C 	C 	0.2678	0.6704	0.5648	-0.037
Mof_C 	C 	0.3129	0.57016	0.4498	0.38
Mof_C 	C 	0.4099	0.7242	0.653	-0.294
Mof_C 	C 	0.8974	0.7847	0.7412	-2.155
Mof_N 	N 	0.8941	0.03594	0.64963	-0.345
Mof_N 	N 	0.8941	0.61369	0.96406	-0.246
Mof_N 	N 	0.8941	0.35037	0.38631	-0.236
Mof_N 	N 	0.1059	0.96406	0.35037	-0.319
Mof_N 	N 	0.1059	0.38631	0.03594	-0.424
Mof_N 	N 	0.1059	0.64963	0.61369	-0.418
Mof_O 	O 	0.2419	0.24152	0.79935	-0.355
Mof_O 	O 	0.1173	0.17965	0.63333	-0.457
Mof_O 	O 	0.7886	0.07682	0.48477	-0.43
Mof_O 	O 	0.5519	0.17767	0.57822	-0.511
Mof_O 	O 	0.2419	0.55783	0.75848	-0.391
Mof_O 	O 	0.1173	0.45368	0.82035	-0.488
Mof_O 	O 	0.7886	0.40795	0.92318	-0.433
Mof_O 	O 	0.5519	0.40055	0.82233	-0.516
Mof_O 	O 	0.2419	0.20065	0.44217	-0.398
Mof_O 	O 	0.1173	0.36667	0.54632	-0.496
Mof_O 	O 	0.7886	0.51523	0.59205	-0.436
Mof_O 	O 	0.5519	0.42178	0.59945	-0.516
Mof_O 	O 	0.7581	0.75848	0.20065	-0.332
Mof_O 	O 	0.8827	0.82035	0.36667	-0.421
Mof_O 	O 	0.2114	0.92318	0.51523	-0.417
Mof_O 	O 	0.4481	0.82233	0.42178	-0.516
Mof_O 	O 	0.7581	0.44217	0.24152	-0.297
Mof_O 	O 	0.8827	0.54632	0.17965	-0.393
Mof_O 	O 	0.2114	0.59205	0.07682	-0.422
Mof_O 	O 	0.4481	0.59945	0.17767	-0.512
Mof_O 	O 	0.7581	0.79935	0.55783	-0.299
Mof_O 	O 	0.8827	0.63333	0.45368	-0.394
Mof_O 	O 	0.2114	0.48477	0.40795	-0.417
Mof_O 	O 	0.4481	0.57822	0.40055	-0.512
_end
