data_functionalizedCrystal
_audit_creation_method	'EQeq! by Chris Wilmer'
_symmetry_space_group_name_H-M	'P1'
_symmetry_Int_Tables_number	1
_symmetry_cell_setting	triclinic
loop_
_symmetry_equiv_pos_as_xyz
  x,y,z
_cell_length_a	9.5996
_cell_length_b	9.7638
_cell_length_c	9.866
_cell_angle_alpha	88.15
_cell_angle_beta	77.431
_cell_angle_gamma	64.293
loop_
_atom_site_label
_atom_site_type_symbol
_atom_site_fract_x
_atom_site_fract_y
_atom_site_fract_z
_atom_site_charge
Mof_Cd	Cd	0.95194	0.22667	0.02831	0.444
Mof_Cd	Cd	0.04806	0.77333	0.97169	0.444
Mof_H 	H 	0.4156	0.1312	0.4345	0.066
Mof_H 	H 	0.7667	0.6721	0.1144	0.022
Mof_H 	H 	0.2064	0.4167	0.3061	0.054
Mof_H 	H 	0.6295	0.0055	0.5409	0.068
Mof_H 	H 	0.7168	0.908	0.8133	0.057
Mof_H 	H 	0.5844	0.8688	0.5655	0.067
Mof_H 	H 	0.3705	0.9945	0.4591	0.068
Mof_H 	H 	0.7936	0.5833	0.6939	0.054
Mof_H 	H 	0.4798	0.1683	0.1704	0.056
Mof_H 	H 	0.7733	0.471	0.5014	0.062
Mof_H 	H 	0.2267	0.529	0.4986	0.062
Mof_H 	H 	0.5202	0.8317	0.8296	0.056
Mof_H 	H 	0.8453	0.9568	0.3108	0.025
Mof_H 	H 	0.1547	0.0432	0.6892	0.025
Mof_H 	H 	0.2333	0.3279	0.8856	0.023
Mof_H 	H 	0.2832	0.092	0.1867	0.057
Mof_C 	C 	0.3703	0.055	0.1115	-0.02
Mof_C 	C 	0.1975	0.1057	0.713	0.094
Mof_C 	C 	0.6297	0.945	0.8885	-0.02
Mof_C 	C 	0.4161	0.052	0.4965	-0.058
Mof_C 	C 	0.1225	0.4507	0.384	-0.023
Mof_C 	C 	0.0123	0.5657	0.6179	-0.047
Mof_C 	C 	0.8646	0.4829	0.5001	-0.023
Mof_C 	C 	0.9877	0.4343	0.3821	-0.047
Mof_C 	C 	0.8025	0.8943	0.287	0.094
Mof_C 	C 	0.2422	0.259	0.8175	0.102
Mof_C 	C 	0.0253	0.6362	0.7439	0.281
Mof_C 	C 	0.4878	0.1004	0.1018	-0.019
Mof_C 	C 	0.8775	0.5493	0.616	-0.023
Mof_C 	C 	0.9747	0.3638	0.2561	0.281
Mof_C 	C 	0.6207	0.0457	0.9895	-0.053
Mof_C 	C 	0.2477	0.9095	0.0157	0.299
Mof_C 	C 	0.1354	0.5171	0.4999	-0.023
Mof_C 	C 	0.5122	0.8996	0.8982	-0.019
Mof_C 	C 	0.7578	0.741	0.1825	0.102
Mof_C 	C 	0.5839	0.948	0.5035	-0.058
Mof_C 	C 	0.7523	0.0905	0.9843	0.299
Mof_C 	C 	0.3793	0.9543	0.0105	-0.053
Mof_N 	N 	0.6484	0.7803	0.2994	-0.089
Mof_N 	N 	0.8547	0.8079	0.1695	-0.153
Mof_N 	N 	0.3516	0.2197	0.7006	-0.089
Mof_N 	N 	0.32	0.1215	0.6341	-0.088
Mof_N 	N 	0.68	0.8785	0.3659	-0.088
Mof_N 	N 	0.1453	0.1921	0.8305	-0.153
Mof_O 	O 	0.0576	0.3645	0.1395	-0.264
Mof_O 	O 	0.1206	0.6954	0.7309	-0.248
Mof_O 	O 	0.8854	0.0159	0.9033	-0.273
Mof_O 	O 	0.9424	0.6355	0.8605	-0.264
Mof_O 	O 	0.7277	0.1992	0.0643	-0.273
Mof_O 	O 	0.1146	0.9841	0.0967	-0.273
Mof_O 	O 	0.8794	0.3046	0.2691	-0.248
Mof_O 	O 	0.2723	0.8008	0.9357	-0.273
_end
