data_functionalizedCrystal
_audit_creation_method	'EQeq! by Chris Wilmer'
_symmetry_space_group_name_H-M	'P1'
_symmetry_Int_Tables_number	1
_symmetry_cell_setting	triclinic
loop_
_symmetry_equiv_pos_as_xyz
  x,y,z
_cell_length_a	13.798
_cell_length_b	16.605
_cell_length_c	24.133
_cell_angle_alpha	106.906
_cell_angle_beta	99.469
_cell_angle_gamma	90.184
loop_
_atom_site_label
_atom_site_type_symbol
_atom_site_fract_x
_atom_site_fract_y
_atom_site_fract_z
_atom_site_charge
Mof_Zn	Zn	0.663	0.44539	0.43435	1.217
Mof_Zn	Zn	0.63571	0.40278	0.30556	1.219
Mof_Zn	Zn	0.16525	0.95509	0.43131	1.219
Mof_Zn	Zn	0.13232	0.88977	0.30129	1.216
Mof_O 	O 	0.74287	0.34211	0.40893	-0.468
Mof_O 	O 	0.72299	0.30756	0.31092	-0.456
Mof_O 	O 	0.54268	0.36385	0.41584	-0.454
Mof_O 	O 	0.52318	0.33383	0.31831	-0.464
Mof_O 	O 	0.56067	0.50769	0.33146	-0.474
Mof_O 	O 	0.5723	0.53995	0.42898	-0.453
Mof_O 	O 	0.77031	0.51685	0.41944	-0.463
Mof_O 	O 	0.75694	0.48025	0.32161	-0.456
Mof_O 	O 	0.27308	0.87387	0.41859	-0.464
Mof_O 	O 	0.25567	0.83098	0.32006	-0.461
Mof_O 	O 	0.03949	0.01028	0.40986	-0.454
Mof_O 	O 	0.0207	0.97037	0.3112	-0.453
Mof_O 	O 	0.22886	0.02681	0.38843	-0.48
Mof_O 	O 	0.21315	0.98628	0.29055	-0.435
Mof_O 	O 	0.08036	0.86196	0.4436	-0.429
Mof_O 	O 	0.06538	0.82092	0.34562	-0.479
Mof_N 	N 	0.21188	0.03491	0.51285	-0.257
Mof_N 	N 	0.59348	0.37308	0.21739	-0.257
Mof_N 	N 	0.0753	0.81208	0.21996	-0.257
Mof_N 	N 	0.70187	0.46668	0.52269	-0.253
Mof_C 	C 	0.7568	0.29693	0.35978	0.384
Mof_C 	C 	0.8186	0.22255	0.35914	-0.08
Mof_C 	C 	0.8517	0.20342	0.41107	-0.008
Mof_H 	H 	0.8342	0.2371	0.4468	0.051
Mof_C 	C 	0.9099	0.13568	0.41124	-0.024
Mof_H 	H 	0.9322	0.1229	0.4469	0.06
Mof_C 	C 	0.9355	0.08638	0.35884	-0.075
Mof_C 	C 	0.9013	0.1045	0.30659	-0.017
Mof_H 	H 	0.918	0.0704	0.2708	0.047
Mof_C 	C 	0.8428	0.1723	0.30649	-0.013
Mof_H 	H 	0.8194	0.1845	0.2707	0.05
Mof_C 	C 	0.0036	0.01661	0.35996	0.37
Mof_C 	C 	0.5043	0.32247	0.3644	0.378
Mof_C 	C 	0.4296	0.25256	0.35761	-0.08
Mof_C 	C 	0.3946	0.1968	0.3024	-0.014
Mof_H 	H 	0.4134	0.2062	0.2685	0.048
Mof_C 	C 	0.3326	0.1279	0.29622	-0.016
Mof_H 	H 	0.3094	0.09	0.2583	0.05
Mof_C 	C 	0.3045	0.11439	0.34552	-0.075
Mof_C 	C 	0.3356	0.1724	0.40043	-0.015
Mof_H 	H 	0.3137	0.1649	0.4341	0.05
Mof_C 	C 	0.3979	0.2405	0.40631	-0.014
Mof_H 	H 	0.4192	0.2795	0.444	0.051
Mof_C 	C 	0.2442	0.03674	0.341	0.37
Mof_C 	C 	0.5444	0.55289	0.38015	0.38
Mof_C 	C 	0.4844	0.628	0.37925	-0.078
Mof_C 	C 	0.4456	0.67175	0.4284	-0.015
Mof_H 	H 	0.4606	0.6566	0.4638	0.053
Mof_C 	C 	0.3852	0.73715	0.42579	-0.016
Mof_H 	H 	0.3583	0.7666	0.4593	0.052
Mof_C 	C 	0.3634	0.76029	0.37407	-0.079
Mof_C 	C 	0.4039	0.71761	0.32531	-0.017
Mof_H 	H 	0.3901	0.7335	0.2902	0.047
Mof_C 	C 	0.4642	0.65196	0.32794	-0.016
Mof_H 	H 	0.492	0.6231	0.2946	0.048
Mof_C 	C 	0.7909	0.5259	0.37273	0.379
Mof_C 	C 	0.8611	0.59821	0.37853	-0.082
Mof_C 	C 	0.8919	0.6088	0.32956	-0.01
Mof_H 	H 	0.8708	0.5689	0.2922	0.043
Mof_C 	C 	0.9537	0.6775	0.33455	-0.024
Mof_H 	H 	0.975	0.6842	0.3006	0.05
Mof_C 	C 	0.9845	0.73642	0.38871	-0.073
Mof_C 	C 	0.9547	0.7251	0.43788	-0.019
Mof_H 	H 	0.9763	0.7646	0.4753	0.052
Mof_C 	C 	0.8932	0.6561	0.43283	-0.01
Mof_H 	H 	0.873	0.6486	0.4669	0.051
Mof_C 	C 	0.0485	0.81195	0.39297	0.361
Mof_C 	C 	0.2923	0.82774	0.37082	0.378
Mof_C 	C 	0.1108	0.7416	0.19368	0.108
Mof_H 	H 	0.1688	0.7248	0.2136	-0.009
Mof_C 	C 	0.0702	0.6894	0.13896	-0.168
Mof_H 	H 	0.101	0.6393	0.1219	0.094
Mof_C 	C 	0.9862	0.7099	0.10961	0.103
Mof_C 	C 	0.9329	0.7686	0.142	-0.015
Mof_H 	H 	0.8659	0.775	0.1278	0.04
Mof_C 	C 	0.9801	0.8188	0.1966	-0.02
Mof_H 	H 	0.9435	0.8605	0.2191	0.029
Mof_C 	C 	0.9427	0.6632	0.05045	-0.068
Mof_C 	C 	0.9082	0.6318	4e-05	0.017
Mof_C 	C 	0.8752	0.602	0.93629	-0.032
Mof_C 	C 	0.9592	0.5687	0.90331	0.016
Mof_C 	C 	0.9312	0.5428	0.84232	0.008
Mof_C 	C 	0.8222	0.5521	0.82184	-0.029
Mof_C 	C 	0.8024	0.6445	0.85012	0.015
Mof_C 	C 	0.7588	0.6995	0.8212	-0.065
Mof_H 	H 	0.7406	0.6822	0.7796	0.059
Mof_C 	C 	0.7422	0.7802	0.85402	-0.027
Mof_H 	H 	0.7128	0.8185	0.8346	0.04
Mof_C 	C 	0.7679	0.8059	0.91482	-0.031
Mof_H 	H 	0.7544	0.861	0.9367	0.038
Mof_C 	C 	0.8132	0.7514	0.94373	-0.063
Mof_H 	H 	0.8324	0.7693	0.9853	0.053
Mof_C 	C 	0.8299	0.671	0.91134	0.015
Mof_C 	C 	0.7958	0.5298	0.91468	0.013
Mof_C 	C 	0.7679	0.5029	0.85344	0.012
Mof_C 	C 	0.6962	0.4386	0.82691	-0.064
Mof_H 	H 	0.6774	0.4202	0.7853	0.057
Mof_C 	C 	0.6522	0.4016	0.8616	-0.031
Mof_H 	H 	0.6034	0.357	0.8437	0.046
Mof_C 	C 	0.6787	0.4288	0.92208	-0.03
Mof_H 	H 	0.6472	0.4034	0.9454	0.04
Mof_C 	C 	0.7512	0.4931	0.9492	-0.068
Mof_H 	H 	0.7696	0.5114	0.9908	0.053
Mof_C 	C 	0.7936	0.5255	0.75786	0.021
Mof_C 	C 	0.7746	0.5078	0.70584	-0.064
Mof_C 	C 	0.7507	0.4928	0.64331	0.116
Mof_C 	C 	0.6735	0.5329	0.62007	-0.152
Mof_H 	H 	0.6363	0.5701	0.6453	0.093
Mof_C 	C 	0.651	0.5183	0.5598	0.088
Mof_H 	H 	0.5977	0.5459	0.5443	0.005
Mof_C 	C 	0.7771	0.4276	0.54509	0.088
Mof_H 	H 	0.8133	0.3909	0.5189	0.002
Mof_C 	C 	0.8036	0.4389	0.60474	-0.154
Mof_H 	H 	0.8571	0.4104	0.6192	0.091
Mof_C 	C 	0.3047	0.0692	0.52913	0.09
Mof_H 	H 	0.3463	0.0596	0.5004	-0.003
Mof_C 	C 	0.3418	0.1176	0.58593	-0.157
Mof_H 	H 	0.4071	0.1421	0.5958	0.092
Mof_C 	C 	0.2814	0.1299	0.62839	0.116
Mof_C 	C 	0.1844	0.0984	0.61082	-0.154
Mof_H 	H 	0.1403	0.1086	0.6382	0.094
Mof_C 	C 	0.1529	0.05187	0.55288	0.092
Mof_H 	H 	0.0862	0.0311	0.541	0.005
Mof_C 	C 	0.3195	0.1687	0.68973	-0.066
Mof_C 	C 	0.3501	0.1909	0.74111	0.022
Mof_C 	C 	0.3848	0.2147	0.8048	-0.032
Mof_C 	C 	0.4929	0.1981	0.8214	0.016
Mof_C 	C 	0.5575	0.1643	0.78354	-0.065
Mof_H 	H 	0.536	0.1493	0.7422	0.06
Mof_C 	C 	0.654	0.1526	0.80625	-0.026
Mof_H 	H 	0.6981	0.1288	0.7803	0.043
Mof_C 	C 	0.6862	0.1753	0.86668	-0.034
Mof_H 	H 	0.7523	0.1676	0.8819	0.041
Mof_C 	C 	0.6216	0.2094	0.90497	-0.062
Mof_H 	H 	0.6436	0.225	0.9463	0.051
Mof_C 	C 	0.5257	0.2206	0.88271	0.013
Mof_C 	C 	0.445	0.2562	0.91823	-0.032
Mof_C 	C 	0.3615	0.1872	0.89638	0.015
Mof_C 	C 	0.3294	0.1646	0.83552	0.017
Mof_C 	C 	0.2584	0.0996	0.80887	-0.067
Mof_H 	H 	0.2361	0.084	0.7676	0.06
Mof_C 	C 	0.2201	0.0575	0.84302	-0.029
Mof_H 	H 	0.1718	0.0126	0.8248	0.039
Mof_C 	C 	0.2514	0.08	0.90327	-0.034
Mof_H 	H 	0.2242	0.051	0.9262	0.038
Mof_C 	C 	0.3225	0.1451	0.9302	-0.065
Mof_H 	H 	0.3443	0.1607	0.9715	0.055
Mof_C 	C 	0.4082	0.3304	0.89659	0.014
Mof_C 	C 	0.3766	0.3087	0.83585	0.015
Mof_C 	C 	0.3464	0.3694	0.80911	-0.067
Mof_H 	H 	0.3251	0.3544	0.7678	0.058
Mof_C 	C 	0.3475	0.4528	0.84348	-0.03
Mof_H 	H 	0.3276	0.4953	0.8255	0.04
Mof_C 	C 	0.3777	0.4742	0.90411	-0.032
Mof_H 	H 	0.3775	0.5312	0.9273	0.038
Mof_C 	C 	0.4079	0.4132	0.93095	-0.065
Mof_H 	H 	0.4281	0.4279	0.9724	0.054
Mof_C 	C 	0.477	0.2797	0.98189	0.021
Mof_C 	C 	0.5018	0.2998	0.03376	-0.074
Mof_C 	C 	0.5324	0.3247	0.09657	0.118
Mof_C 	C 	0.6249	0.3059	0.12074	-0.164
Mof_H 	H 	0.6684	0.2762	0.0962	0.085
Mof_C 	C 	0.6524	0.331	0.18112	0.089
Mof_H 	H 	0.7155	0.318	0.1976	-0.006
Mof_C 	C 	0.5046	0.3912	0.19382	0.096
Mof_H 	H 	0.4626	0.4211	0.2193	-0.004
Mof_C 	C 	0.4715	0.3681	0.13395	-0.165
Mof_H 	H 	0.4079	0.3817	0.1186	0.095
Mof_C 	C 	0.0497	0.5466	0.9287	-0.048
Mof_H 	H 	0.0663	0.5588	0.9701	0.041
Mof_C 	C 	0.1157	0.5065	0.8928	-0.023
Mof_H 	H 	0.1797	0.4963	0.91	0.032
Mof_C 	C 	0.0877	0.4815	0.8318	-0.015
Mof_H 	H 	0.1332	0.4549	0.8075	0.029
Mof_C 	C 	0.9937	0.4951	0.8063	-0.029
Mof_H 	H 	0.975	0.477	0.76	0.024
Mof_C 	C 	0.9745	0.8031	0.1285	-0.128
Mof_H 	H 	0.9352	0.8293	0.1032	0.07
Mof_C 	C 	0.0222	0.8505	0.1837	0.071
Mof_H 	H 	0.0176	0.9099	0.1959	-0.007
Mof_C 	C 	0.0627	0.5916	0.928	-0.021
Mof_H 	H 	0.0824	0.6211	0.9685	0.03
Mof_C 	C 	0.1316	0.5695	0.8914	-0.021
Mof_H 	H 	0.1993	0.5725	0.9081	0.028
Mof_C 	C 	0.1043	0.5435	0.8316	-0.041
Mof_H 	H 	0.1531	0.5311	0.8072	0.038
Mof_C 	C 	0.0043	0.5352	0.8061	-0.016
Mof_H 	H 	0.9855	0.5246	0.7649	0.031
Mof_Zn	Zn	0.337	0.55461	0.56565	1.216
Mof_Zn	Zn	0.36429	0.59722	0.69444	1.218
Mof_Zn	Zn	0.83475	0.04491	0.56869	1.219
Mof_Zn	Zn	0.86768	0.11023	0.69871	1.216
Mof_O 	O 	0.25713	0.65789	0.59107	-0.468
Mof_O 	O 	0.27701	0.69244	0.68908	-0.456
Mof_O 	O 	0.45732	0.63615	0.58416	-0.454
Mof_O 	O 	0.47682	0.66617	0.68169	-0.464
Mof_O 	O 	0.43933	0.49231	0.66854	-0.474
Mof_O 	O 	0.4277	0.46005	0.57102	-0.453
Mof_O 	O 	0.22969	0.48315	0.58056	-0.463
Mof_O 	O 	0.24306	0.51975	0.67839	-0.456
Mof_O 	O 	0.72692	0.12613	0.58141	-0.464
Mof_O 	O 	0.74433	0.16902	0.67994	-0.461
Mof_O 	O 	0.96051	0.98972	0.59014	-0.454
Mof_O 	O 	0.9793	0.02963	0.6888	-0.453
Mof_O 	O 	0.77114	0.97319	0.61157	-0.48
Mof_O 	O 	0.78685	0.01372	0.70945	-0.435
Mof_O 	O 	0.91964	0.13804	0.5564	-0.429
Mof_O 	O 	0.93462	0.17908	0.65438	-0.479
Mof_N 	N 	0.78812	0.96509	0.48715	-0.257
Mof_N 	N 	0.40652	0.62692	0.78261	-0.257
Mof_N 	N 	0.9247	0.18792	0.78004	-0.257
Mof_N 	N 	0.29813	0.53332	0.47731	-0.253
Mof_C 	C 	0.2432	0.70307	0.64022	0.384
Mof_C 	C 	0.1814	0.77745	0.64086	-0.08
Mof_C 	C 	0.1483	0.79658	0.58893	-0.008
Mof_H 	H 	0.1658	0.7629	0.5532	0.051
Mof_C 	C 	0.0901	0.86432	0.58876	-0.024
Mof_H 	H 	0.0678	0.8771	0.5531	0.06
Mof_C 	C 	0.0645	0.91362	0.64116	-0.075
Mof_C 	C 	0.0987	0.8955	0.69341	-0.017
Mof_H 	H 	0.082	0.9296	0.7292	0.047
Mof_C 	C 	0.1572	0.8277	0.69351	-0.013
Mof_H 	H 	0.1806	0.8155	0.7293	0.05
Mof_C 	C 	0.9964	0.98339	0.64004	0.37
Mof_C 	C 	0.4957	0.67753	0.6356	0.378
Mof_C 	C 	0.5704	0.74744	0.64239	-0.08
Mof_C 	C 	0.6054	0.8032	0.6976	-0.014
Mof_H 	H 	0.5866	0.7938	0.7315	0.048
Mof_C 	C 	0.6674	0.8721	0.70378	-0.016
Mof_H 	H 	0.6906	0.91	0.7417	0.05
Mof_C 	C 	0.6955	0.88561	0.65448	-0.075
Mof_C 	C 	0.6644	0.8276	0.59957	-0.015
Mof_H 	H 	0.6863	0.8351	0.5659	0.05
Mof_C 	C 	0.6021	0.7595	0.59369	-0.014
Mof_H 	H 	0.5808	0.7205	0.556	0.051
Mof_C 	C 	0.7558	0.96326	0.659	0.37
Mof_C 	C 	0.4556	0.44711	0.61985	0.38
Mof_C 	C 	0.5156	0.372	0.62075	-0.078
Mof_C 	C 	0.5544	0.32825	0.5716	-0.015
Mof_H 	H 	0.5394	0.3434	0.5362	0.053
Mof_C 	C 	0.6148	0.26285	0.57421	-0.016
Mof_H 	H 	0.6417	0.2334	0.5407	0.052
Mof_C 	C 	0.6366	0.23971	0.62593	-0.079
Mof_C 	C 	0.5961	0.28239	0.67469	-0.017
Mof_H 	H 	0.6099	0.2665	0.7098	0.047
Mof_C 	C 	0.5358	0.34804	0.67206	-0.016
Mof_H 	H 	0.508	0.3769	0.7054	0.048
Mof_C 	C 	0.2091	0.4741	0.62727	0.379
Mof_C 	C 	0.1389	0.40179	0.62147	-0.082
Mof_C 	C 	0.1081	0.3912	0.67044	-0.01
Mof_H 	H 	0.1292	0.4311	0.7078	0.043
Mof_C 	C 	0.0463	0.3225	0.66545	-0.024
Mof_H 	H 	0.025	0.3158	0.6994	0.05
Mof_C 	C 	0.0155	0.26358	0.61129	-0.073
Mof_C 	C 	0.0453	0.2749	0.56212	-0.019
Mof_H 	H 	0.0237	0.2354	0.5247	0.052
Mof_C 	C 	0.1068	0.3439	0.56717	-0.01
Mof_H 	H 	0.127	0.3514	0.5331	0.051
Mof_C 	C 	0.9515	0.18805	0.60703	0.361
Mof_C 	C 	0.7077	0.17226	0.62918	0.378
Mof_C 	C 	0.8892	0.2584	0.80632	0.108
Mof_H 	H 	0.8312	0.2752	0.7864	-0.009
Mof_C 	C 	0.9298	0.3106	0.86104	-0.168
Mof_H 	H 	0.899	0.3607	0.8781	0.094
Mof_C 	C 	0.0138	0.2901	0.89039	0.103
Mof_C 	C 	0.0671	0.2314	0.858	-0.015
Mof_H 	H 	0.1341	0.225	0.8722	0.04
Mof_C 	C 	0.0199	0.1812	0.8034	-0.02
Mof_H 	H 	0.0565	0.1395	0.7809	0.029
Mof_C 	C 	0.0573	0.3368	0.94955	-0.068
Mof_C 	C 	0.0918	0.3682	0.99996	0.017
Mof_C 	C 	0.1248	0.398	0.06371	-0.032
Mof_C 	C 	0.0408	0.4313	0.09669	0.016
Mof_C 	C 	0.0688	0.4572	0.15768	0.008
Mof_C 	C 	0.1778	0.4479	0.17816	-0.029
Mof_C 	C 	0.1976	0.3555	0.14988	0.015
Mof_C 	C 	0.2412	0.3005	0.1788	-0.065
Mof_H 	H 	0.2594	0.3178	0.2204	0.059
Mof_C 	C 	0.2578	0.2198	0.14598	-0.027
Mof_H 	H 	0.2872	0.1815	0.1654	0.04
Mof_C 	C 	0.2321	0.1941	0.08518	-0.031
Mof_H 	H 	0.2456	0.139	0.0633	0.038
Mof_C 	C 	0.1868	0.2486	0.05627	-0.063
Mof_H 	H 	0.1676	0.2307	0.0147	0.053
Mof_C 	C 	0.1701	0.329	0.08866	0.015
Mof_C 	C 	0.2042	0.4702	0.08532	0.013
Mof_C 	C 	0.2321	0.4971	0.14656	0.012
Mof_C 	C 	0.3038	0.5614	0.17309	-0.064
Mof_H 	H 	0.3226	0.5798	0.2147	0.057
Mof_C 	C 	0.3478	0.5984	0.1384	-0.031
Mof_H 	H 	0.3966	0.643	0.1563	0.046
Mof_C 	C 	0.3213	0.5712	0.07792	-0.03
Mof_H 	H 	0.3528	0.5966	0.0546	0.04
Mof_C 	C 	0.2488	0.5069	0.0508	-0.068
Mof_H 	H 	0.2304	0.4886	0.0092	0.053
Mof_C 	C 	0.2064	0.4745	0.24214	0.021
Mof_C 	C 	0.2254	0.4922	0.29416	-0.064
Mof_C 	C 	0.2493	0.5072	0.35669	0.116
Mof_C 	C 	0.3265	0.4671	0.37993	-0.152
Mof_H 	H 	0.3637	0.4299	0.3547	0.093
Mof_C 	C 	0.349	0.4817	0.4402	0.088
Mof_H 	H 	0.4023	0.4541	0.4557	0.005
Mof_C 	C 	0.2229	0.5724	0.45491	0.088
Mof_H 	H 	0.1867	0.6091	0.4811	0.002
Mof_C 	C 	0.1964	0.5611	0.39526	-0.154
Mof_H 	H 	0.1429	0.5896	0.3808	0.091
Mof_C 	C 	0.6953	0.9308	0.47087	0.09
Mof_H 	H 	0.6537	0.9404	0.4996	-0.003
Mof_C 	C 	0.6582	0.8824	0.41407	-0.157
Mof_H 	H 	0.5929	0.8579	0.4042	0.092
Mof_C 	C 	0.7186	0.8701	0.37161	0.116
Mof_C 	C 	0.8156	0.9016	0.38918	-0.154
Mof_H 	H 	0.8597	0.8914	0.3618	0.094
Mof_C 	C 	0.8471	0.94813	0.44712	0.092
Mof_H 	H 	0.9138	0.9689	0.459	0.005
Mof_C 	C 	0.6805	0.8313	0.31027	-0.066
Mof_C 	C 	0.6499	0.8091	0.25889	0.022
Mof_C 	C 	0.6152	0.7853	0.1952	-0.032
Mof_C 	C 	0.5071	0.8019	0.1786	0.016
Mof_C 	C 	0.4425	0.8357	0.21646	-0.065
Mof_H 	H 	0.464	0.8507	0.2578	0.06
Mof_C 	C 	0.346	0.8474	0.19375	-0.026
Mof_H 	H 	0.3019	0.8712	0.2197	0.043
Mof_C 	C 	0.3138	0.8247	0.13332	-0.034
Mof_H 	H 	0.2477	0.8324	0.1181	0.041
Mof_C 	C 	0.3784	0.7906	0.09503	-0.062
Mof_H 	H 	0.3564	0.775	0.0537	0.051
Mof_C 	C 	0.4743	0.7794	0.11729	0.013
Mof_C 	C 	0.555	0.7438	0.08177	-0.032
Mof_C 	C 	0.6385	0.8128	0.10362	0.015
Mof_C 	C 	0.6706	0.8354	0.16448	0.017
Mof_C 	C 	0.7416	0.9004	0.19113	-0.067
Mof_H 	H 	0.7639	0.916	0.2324	0.06
Mof_C 	C 	0.7799	0.9425	0.15698	-0.029
Mof_H 	H 	0.8282	0.9874	0.1752	0.039
Mof_C 	C 	0.7486	0.92	0.09673	-0.034
Mof_H 	H 	0.7758	0.949	0.0738	0.038
Mof_C 	C 	0.6775	0.8549	0.0698	-0.065
Mof_H 	H 	0.6557	0.8393	0.0285	0.055
Mof_C 	C 	0.5918	0.6696	0.10341	0.014
Mof_C 	C 	0.6234	0.6913	0.16415	0.015
Mof_C 	C 	0.6536	0.6306	0.19089	-0.067
Mof_H 	H 	0.6749	0.6456	0.2322	0.058
Mof_C 	C 	0.6525	0.5472	0.15652	-0.03
Mof_H 	H 	0.6724	0.5047	0.1745	0.04
Mof_C 	C 	0.6223	0.5258	0.09589	-0.032
Mof_H 	H 	0.6225	0.4688	0.0727	0.038
Mof_C 	C 	0.5921	0.5868	0.06905	-0.065
Mof_H 	H 	0.5719	0.5721	0.0276	0.054
Mof_C 	C 	0.523	0.7203	0.01811	0.021
Mof_C 	C 	0.4982	0.7002	0.96624	-0.074
Mof_C 	C 	0.4676	0.6753	0.90343	0.118
Mof_C 	C 	0.3751	0.6941	0.87926	-0.164
Mof_H 	H 	0.3316	0.7238	0.9038	0.085
Mof_C 	C 	0.3476	0.669	0.81888	0.089
Mof_H 	H 	0.2845	0.682	0.8024	-0.006
Mof_C 	C 	0.4954	0.6088	0.80618	0.096
Mof_H 	H 	0.5374	0.5789	0.7807	-0.004
Mof_C 	C 	0.5285	0.6319	0.86605	-0.165
Mof_H 	H 	0.5921	0.6183	0.8814	0.095
Mof_C 	C 	0.9503	0.4534	0.0713	-0.048
Mof_H 	H 	0.9337	0.4412	0.0299	0.041
Mof_C 	C 	0.8843	0.4935	0.1072	-0.023
Mof_H 	H 	0.8203	0.5037	0.09	0.032
Mof_C 	C 	0.9123	0.5185	0.1682	-0.015
Mof_H 	H 	0.8668	0.5451	0.1925	0.029
Mof_C 	C 	0.0063	0.5049	0.1937	-0.029
Mof_H 	H 	0.025	0.523	0.24	0.024
Mof_C 	C 	0.0255	0.1969	0.8715	-0.128
Mof_H 	H 	0.0648	0.1707	0.8968	0.07
Mof_C 	C 	0.9778	0.1495	0.8163	0.071
Mof_H 	H 	0.9824	0.0901	0.8041	-0.007
Mof_C 	C 	0.9373	0.4084	0.072	-0.021
Mof_H 	H 	0.9176	0.3789	0.0315	0.03
Mof_C 	C 	0.8684	0.4305	0.1086	-0.021
Mof_H 	H 	0.8007	0.4275	0.0919	0.028
Mof_C 	C 	0.8957	0.4565	0.1684	-0.041
Mof_H 	H 	0.8469	0.4689	0.1928	0.038
Mof_C 	C 	0.9957	0.4648	0.1939	-0.016
Mof_H 	H 	0.0145	0.4754	0.2351	0.031
_end
