data_functionalizedCrystal
_audit_creation_method	'EQeq! by Chris Wilmer'
_symmetry_space_group_name_H-M	'P1'
_symmetry_Int_Tables_number	1
_symmetry_cell_setting	triclinic
loop_
_symmetry_equiv_pos_as_xyz
  x,y,z
_cell_length_a	18.765
_cell_length_b	18.765
_cell_length_c	26.7538
_cell_angle_alpha	110.53
_cell_angle_beta	110.53
_cell_angle_gamma	90.0001
loop_
_atom_site_label
_atom_site_type_symbol
_atom_site_fract_x
_atom_site_fract_y
_atom_site_fract_z
_atom_site_charge
Mof_Zn	Zn	0.48692	0.48692	0.54878	1.208
Mof_Zn	Zn	0.06186	0.06186	0.54878	1.208
Mof_Zn	Zn	0.48692	0.06186	0.54878	1.207
Mof_Zn	Zn	0.06186	0.48692	0.54878	1.207
Mof_Zn	Zn	0.93814	0.51308	0.45122	1.207
Mof_Zn	Zn	0.51308	0.93814	0.45122	1.207
Mof_Zn	Zn	0.93814	0.93814	0.45122	1.207
Mof_Zn	Zn	0.51308	0.51308	0.45122	1.207
Mof_H 	H 	0.2754	0.4653	0.3376	0.045
Mof_H 	H 	0.1809	0.4452	0.1554	0.05
Mof_H 	H 	0.1333	0.4435	0.062	0.05
Mof_H 	H 	0.0622	0.8723	0.3376	0.045
Mof_H 	H 	0.9745	0.7102	0.1554	0.047
Mof_H 	H 	0.9287	0.6185	0.062	0.052
Mof_H 	H 	0.4653	0.0622	0.3376	0.045
Mof_H 	H 	0.4452	0.9745	0.1554	0.049
Mof_H 	H 	0.4435	0.9287	0.062	0.051
Mof_H 	H 	0.8723	0.2754	0.3376	0.045
Mof_H 	H 	0.7102	0.1809	0.1554	0.049
Mof_H 	H 	0.6185	0.1333	0.062	0.051
Mof_H 	H 	0.9378	0.5347	0.6624	0.045
Mof_H 	H 	0.0255	0.5548	0.8446	0.052
Mof_H 	H 	0.0713	0.5565	0.938	0.047
Mof_H 	H 	0.7246	0.1277	0.6624	0.045
Mof_H 	H 	0.8191	0.2898	0.8446	0.051
Mof_H 	H 	0.8667	0.3815	0.938	0.048
Mof_H 	H 	0.1277	0.9378	0.6624	0.045
Mof_H 	H 	0.2898	0.0255	0.8446	0.049
Mof_H 	H 	0.3815	0.0713	0.938	0.048
Mof_H 	H 	0.5347	0.7246	0.6624	0.045
Mof_H 	H 	0.5548	0.8191	0.8446	0.052
Mof_H 	H 	0.5565	0.8667	0.938	0.047
Mof_H 	H 	0.7246	0.5347	0.6624	0.045
Mof_H 	H 	0.8191	0.5548	0.8446	0.052
Mof_H 	H 	0.8667	0.5565	0.938	0.047
Mof_H 	H 	0.9378	0.1277	0.6624	0.045
Mof_H 	H 	0.0255	0.2898	0.8446	0.049
Mof_H 	H 	0.0713	0.3815	0.938	0.048
Mof_H 	H 	0.5347	0.9378	0.6624	0.045
Mof_H 	H 	0.5548	0.0255	0.8446	0.052
Mof_H 	H 	0.5565	0.0713	0.938	0.047
Mof_H 	H 	0.1277	0.7246	0.6624	0.045
Mof_H 	H 	0.2898	0.8191	0.8446	0.051
Mof_H 	H 	0.3815	0.8667	0.938	0.048
Mof_H 	H 	0.0622	0.4653	0.3376	0.045
Mof_H 	H 	0.9745	0.4452	0.1554	0.049
Mof_H 	H 	0.9287	0.4435	0.062	0.051
Mof_H 	H 	0.2754	0.8723	0.3376	0.045
Mof_H 	H 	0.1809	0.7102	0.1554	0.049
Mof_H 	H 	0.1333	0.6185	0.062	0.051
Mof_H 	H 	0.8723	0.0622	0.3376	0.045
Mof_H 	H 	0.7102	0.9745	0.1554	0.047
Mof_H 	H 	0.6185	0.9287	0.062	0.052
Mof_H 	H 	0.4653	0.2754	0.3376	0.045
Mof_H 	H 	0.4452	0.1809	0.1554	0.05
Mof_H 	H 	0.4435	0.1333	0.062	0.05
Mof_H 	H 	0.241	0.4853	0.482	0.037
Mof_H 	H 	0.241	0.9967	0.482	0.037
Mof_H 	H 	0.4853	0.241	0.482	0.037
Mof_H 	H 	0.9967	0.241	0.482	0.037
Mof_H 	H 	0.759	0.5147	0.518	0.037
Mof_H 	H 	0.759	0.0033	0.518	0.037
Mof_H 	H 	0.0033	0.759	0.518	0.037
Mof_H 	H 	0.5147	0.759	0.518	0.037
Mof_C 	C 	0.24238	0.46908	0.35816	-0.004
Mof_C 	C 	0.27385	0.47995	0.4163	-0.108
Mof_C 	C 	0.127	0.44	0.1354	-0.058
Mof_C 	C 	0.09857	0.44187	0.08034	-0.064
Mof_C 	C 	0.35717	0.48927	0.44634	0.374
Mof_C 	C 	0.11578	0.88908	0.35816	-0.004
Mof_C 	C 	0.14245	0.93635	0.4163	-0.108
Mof_C 	C 	0.0084	0.6954	0.1354	-0.051
Mof_C 	C 	0.98177	0.63847	0.08034	-0.071
Mof_C 	C 	0.08917	0.95707	0.44634	0.374
Mof_C 	C 	0.46908	0.11578	0.35816	-0.004
Mof_C 	C 	0.47995	0.14245	0.4163	-0.108
Mof_C 	C 	0.44	0.0084	0.1354	-0.057
Mof_C 	C 	0.44187	0.98177	0.08034	-0.066
Mof_C 	C 	0.48927	0.08917	0.44634	0.374
Mof_C 	C 	0.88908	0.24238	0.35816	-0.004
Mof_C 	C 	0.93635	0.27385	0.4163	-0.108
Mof_C 	C 	0.6954	0.127	0.1354	-0.055
Mof_C 	C 	0.63847	0.09857	0.08034	-0.068
Mof_C 	C 	0.95707	0.35717	0.44634	0.373
Mof_C 	C 	0.88422	0.53092	0.64184	-0.003
Mof_C 	C 	0.85755	0.52005	0.5837	-0.109
Mof_C 	C 	0.9916	0.56	0.8646	-0.065
Mof_C 	C 	0.01823	0.55813	0.91966	-0.057
Mof_C 	C 	0.91083	0.51073	0.55366	0.374
Mof_C 	C 	0.75762	0.11092	0.64184	-0.003
Mof_C 	C 	0.72615	0.06365	0.5837	-0.109
Mof_C 	C 	0.873	0.3046	0.8646	-0.062
Mof_C 	C 	0.90143	0.36153	0.91966	-0.061
Mof_C 	C 	0.64283	0.04293	0.55366	0.374
Mof_C 	C 	0.11092	0.88422	0.64184	-0.003
Mof_C 	C 	0.06365	0.85755	0.5837	-0.109
Mof_C 	C 	0.3046	0.9916	0.8646	-0.06
Mof_C 	C 	0.36153	0.01823	0.91966	-0.063
Mof_C 	C 	0.04293	0.91083	0.55366	0.375
Mof_C 	C 	0.53092	0.75762	0.64184	-0.003
Mof_C 	C 	0.52005	0.72615	0.5837	-0.109
Mof_C 	C 	0.56	0.873	0.8646	-0.066
Mof_C 	C 	0.55813	0.90143	0.91966	-0.057
Mof_C 	C 	0.51073	0.64283	0.55366	0.374
Mof_C 	C 	0.75762	0.53092	0.64184	-0.003
Mof_C 	C 	0.72615	0.52005	0.5837	-0.109
Mof_C 	C 	0.873	0.56	0.8646	-0.066
Mof_C 	C 	0.90143	0.55813	0.91966	-0.057
Mof_C 	C 	0.64283	0.51073	0.55366	0.374
Mof_C 	C 	0.88422	0.11092	0.64184	-0.003
Mof_C 	C 	0.85755	0.06365	0.5837	-0.109
Mof_C 	C 	0.9916	0.3046	0.8646	-0.06
Mof_C 	C 	0.01823	0.36153	0.91966	-0.063
Mof_C 	C 	0.91083	0.04293	0.55366	0.375
Mof_C 	C 	0.53092	0.88422	0.64184	-0.003
Mof_C 	C 	0.52005	0.85755	0.5837	-0.109
Mof_C 	C 	0.56	0.9916	0.8646	-0.065
Mof_C 	C 	0.55813	0.01823	0.91966	-0.057
Mof_C 	C 	0.51073	0.91083	0.55366	0.374
Mof_C 	C 	0.11092	0.75762	0.64184	-0.003
Mof_C 	C 	0.06365	0.72615	0.5837	-0.109
Mof_C 	C 	0.3046	0.873	0.8646	-0.062
Mof_C 	C 	0.36153	0.90143	0.91966	-0.061
Mof_C 	C 	0.04293	0.64283	0.55366	0.374
Mof_C 	C 	0.11578	0.46908	0.35816	-0.004
Mof_C 	C 	0.14245	0.47995	0.4163	-0.108
Mof_C 	C 	0.0084	0.44	0.1354	-0.057
Mof_C 	C 	0.98177	0.44187	0.08034	-0.066
Mof_C 	C 	0.08917	0.48927	0.44634	0.374
Mof_C 	C 	0.24238	0.88908	0.35816	-0.004
Mof_C 	C 	0.27385	0.93635	0.4163	-0.108
Mof_C 	C 	0.127	0.6954	0.1354	-0.055
Mof_C 	C 	0.09857	0.63847	0.08034	-0.068
Mof_C 	C 	0.35717	0.95707	0.44634	0.373
Mof_C 	C 	0.88908	0.11578	0.35816	-0.004
Mof_C 	C 	0.93635	0.14245	0.4163	-0.108
Mof_C 	C 	0.6954	0.0084	0.1354	-0.051
Mof_C 	C 	0.63847	0.98177	0.08034	-0.071
Mof_C 	C 	0.95707	0.08917	0.44634	0.374
Mof_C 	C 	0.46908	0.24238	0.35816	-0.004
Mof_C 	C 	0.47995	0.27385	0.4163	-0.108
Mof_C 	C 	0.44	0.127	0.1354	-0.058
Mof_C 	C 	0.44187	0.09857	0.08034	-0.064
Mof_C 	C 	0.48927	0.35717	0.44634	0.374
Mof_C 	C 	0.16522	0.46392	0.33044	-0.005
Mof_C 	C 	0.22159	0.48209	0.44318	0.05
Mof_C 	C 	0.11025	0.44035	0.2205	-0.032
Mof_C 	C 	0.13588	0.45328	0.27176	-0.005
Mof_C 	C 	0.07992	0.43122	0.15984	0.039
Mof_C 	C 	0.02697	0.44167	0.05394	0.044
Mof_C 	C 	0.16522	0.86652	0.33044	-0.004
Mof_C 	C 	0.22159	0.96109	0.44318	0.05
Mof_C 	C 	0.11025	0.78015	0.2205	-0.03
Mof_C 	C 	0.13588	0.81848	0.27176	-0.006
Mof_C 	C 	0.07992	0.72862	0.15984	0.035
Mof_C 	C 	0.02697	0.61227	0.05394	0.047
Mof_C 	C 	0.46392	0.16522	0.33044	-0.005
Mof_C 	C 	0.48209	0.22159	0.44318	0.05
Mof_C 	C 	0.44035	0.11025	0.2205	-0.032
Mof_C 	C 	0.45328	0.13588	0.27176	-0.005
Mof_C 	C 	0.43122	0.07992	0.15984	0.039
Mof_C 	C 	0.44167	0.02697	0.05394	0.044
Mof_C 	C 	0.86652	0.16522	0.33044	-0.004
Mof_C 	C 	0.96109	0.22159	0.44318	0.05
Mof_C 	C 	0.78015	0.11025	0.2205	-0.03
Mof_C 	C 	0.81848	0.13588	0.27176	-0.006
Mof_C 	C 	0.72862	0.07992	0.15984	0.035
Mof_C 	C 	0.61227	0.02697	0.05394	0.047
Mof_C 	C 	0.83478	0.53608	0.66956	-0.006
Mof_C 	C 	0.77841	0.51791	0.55682	0.05
Mof_C 	C 	0.88975	0.55965	0.7795	-0.035
Mof_C 	C 	0.86412	0.54672	0.72824	-0.004
Mof_C 	C 	0.92008	0.56878	0.84016	0.045
Mof_C 	C 	0.97303	0.55833	0.94606	0.035
Mof_C 	C 	0.83478	0.13348	0.66956	-0.006
Mof_C 	C 	0.77841	0.03891	0.55682	0.051
Mof_C 	C 	0.88975	0.21985	0.7795	-0.033
Mof_C 	C 	0.86412	0.18152	0.72824	-0.005
Mof_C 	C 	0.92008	0.27138	0.84016	0.041
Mof_C 	C 	0.97303	0.38773	0.94606	0.039
Mof_C 	C 	0.13348	0.83478	0.66956	-0.006
Mof_C 	C 	0.03891	0.77841	0.55682	0.051
Mof_C 	C 	0.21985	0.88975	0.7795	-0.033
Mof_C 	C 	0.18152	0.86412	0.72824	-0.005
Mof_C 	C 	0.27138	0.92008	0.84016	0.041
Mof_C 	C 	0.38773	0.97303	0.94606	0.039
Mof_C 	C 	0.53608	0.83478	0.66956	-0.006
Mof_C 	C 	0.51791	0.77841	0.55682	0.05
Mof_C 	C 	0.55965	0.88975	0.7795	-0.035
Mof_C 	C 	0.54672	0.86412	0.72824	-0.004
Mof_C 	C 	0.56878	0.92008	0.84016	0.045
Mof_C 	C 	0.55833	0.97303	0.94606	0.035
Mof_C 	C 	-0	0.4653	-0	-0.031
Mof_C 	C 	-1.06029e-22	0.5347	-0	-0.03
Mof_C 	C 	0.4653	0	-0	-0.031
Mof_C 	C 	0.5347	0	-0	-0.03
Mof_O 	O 	0.37993	0.48624	0.49788	-0.465
Mof_O 	O 	0.39996	0.50226	0.42252	-0.477
Mof_O 	O 	0.11795	0.01164	0.49788	-0.466
Mof_O 	O 	0.02256	0.92026	0.42252	-0.477
Mof_O 	O 	0.48624	0.11795	0.49788	-0.465
Mof_O 	O 	0.50226	0.02256	0.42252	-0.477
Mof_O 	O 	0.01164	0.37993	0.49788	-0.465
Mof_O 	O 	0.92026	0.39996	0.42252	-0.477
Mof_O 	O 	0.88205	0.51376	0.50212	-0.465
Mof_O 	O 	0.97744	0.49774	0.57748	-0.477
Mof_O 	O 	0.62007	0.98836	0.50212	-0.466
Mof_O 	O 	0.60004	0.07974	0.57748	-0.477
Mof_O 	O 	0.98836	0.88205	0.50212	-0.466
Mof_O 	O 	0.07974	0.97744	0.57748	-0.477
Mof_O 	O 	0.51376	0.62007	0.50212	-0.465
Mof_O 	O 	0.49774	0.60004	0.57748	-0.477
Mof_O 	O 	0.62007	0.51376	0.50212	-0.465
Mof_O 	O 	0.60004	0.49774	0.57748	-0.477
Mof_O 	O 	0.88205	0.98836	0.50212	-0.466
Mof_O 	O 	0.97744	0.07974	0.57748	-0.477
Mof_O 	O 	0.51376	0.88205	0.50212	-0.465
Mof_O 	O 	0.49774	0.97744	0.57748	-0.477
Mof_O 	O 	0.98836	0.62007	0.50212	-0.466
Mof_O 	O 	0.07974	0.60004	0.57748	-0.477
Mof_O 	O 	0.11795	0.48624	0.49788	-0.465
Mof_O 	O 	0.02256	0.50226	0.42252	-0.477
Mof_O 	O 	0.37993	0.01164	0.49788	-0.465
Mof_O 	O 	0.39996	0.92026	0.42252	-0.477
Mof_O 	O 	0.01164	0.11795	0.49788	-0.466
Mof_O 	O 	0.92026	0.02256	0.42252	-0.477
Mof_O 	O 	0.48624	0.37993	0.49788	-0.465
Mof_O 	O 	0.50226	0.39996	0.42252	-0.477
_end
