data_functionalizedCrystal
_audit_creation_method	'EQeq! by Chris Wilmer'
_symmetry_space_group_name_H-M	'P1'
_symmetry_Int_Tables_number	1
_symmetry_cell_setting	triclinic
loop_
_symmetry_equiv_pos_as_xyz
  x,y,z
_cell_length_a	7.8732
_cell_length_b	9.6571
_cell_length_c	12.1461
_cell_angle_alpha	76.894
_cell_angle_beta	89.325
_cell_angle_gamma	77.575
loop_
_atom_site_label
_atom_site_type_symbol
_atom_site_fract_x
_atom_site_fract_y
_atom_site_fract_z
_atom_site_charge
Mof_Zn	Zn	0.07154	0.13737	0.51608	1.181
Mof_Zn	Zn	0.66656	0.16372	0.36787	1.226
Mof_O 	O 	0.8339	0.07703	0.49714	-0.67
Mof_O 	O 	0.4866	0.96972	0.637	-0.487
Mof_O 	O 	0.3044	0.1821	0.55822	-0.497
Mof_O 	O 	0.6124	0.6352	0.75032	-0.317
Mof_O 	O 	0.4081	0.63429	0.62543	-0.464
Mof_O 	O 	0.9581	0.92587	0.30737	-0.475
Mof_O 	O 	0.8005	0.14915	0.23114	-0.482
Mof_C 	C 	0.4343	0.1073	0.6181	0.379
Mof_C 	C 	0.5385	0.1845	0.6762	-0.115
Mof_C 	C 	0.6684	0.105	0.7565	-0.001
Mof_H 	H 	0.6969	0.0017	0.77	0.045
Mof_C 	C 	0.4978	0.3362	0.655	0.03
Mof_H 	H 	0.4113	0.3909	0.5987	0.037
Mof_C 	C 	0.5839	0.4073	0.7161	-0.086
Mof_C 	C 	0.7122	0.3267	0.7977	-0.022
Mof_H 	H 	0.7695	0.3757	0.8402	0.052
Mof_C 	C 	0.7575	0.1754	0.8177	-0.008
Mof_C 	C 	0.8883	0.0874	0.908	0.041
Mof_C 	C 	0.8596	0.1029	0.0183	-0.037
Mof_H 	H 	0.7633	0.1747	0.0314	0.063
Mof_C 	C 	0.5353	0.5704	0.6973	0.316
Mof_C 	C 	0.966	0.0176	0.11	-0.088
Mof_C 	C 	0.9067	0.0322	0.2264	0.38
Mof_Zn	Zn	0.92846	0.86263	0.48392	1.18
Mof_Zn	Zn	0.33344	0.83628	0.63213	1.225
Mof_O 	O 	0.1661	0.92297	0.50286	-0.67
Mof_O 	O 	0.5134	0.03028	0.363	-0.487
Mof_O 	O 	0.6956	0.8179	0.44178	-0.497
Mof_O 	O 	0.3876	0.3648	0.24968	-0.317
Mof_O 	O 	0.5919	0.36571	0.37457	-0.464
Mof_O 	O 	0.0419	0.07413	0.69263	-0.475
Mof_O 	O 	0.1995	0.85085	0.76886	-0.482
Mof_C 	C 	0.5657	0.8927	0.3819	0.379
Mof_C 	C 	0.4615	0.8155	0.3238	-0.115
Mof_C 	C 	0.3316	0.895	0.2435	-0.001
Mof_H 	H 	0.3031	0.9983	0.23	0.045
Mof_C 	C 	0.5022	0.6638	0.345	0.03
Mof_H 	H 	0.5887	0.6091	0.4013	0.037
Mof_C 	C 	0.4161	0.5927	0.2839	-0.086
Mof_C 	C 	0.2878	0.6733	0.2023	-0.022
Mof_H 	H 	0.2305	0.6243	0.1598	0.052
Mof_C 	C 	0.2425	0.8246	0.1823	-0.008
Mof_C 	C 	0.1117	0.9126	0.092	0.041
Mof_C 	C 	0.1404	0.8971	0.9817	-0.037
Mof_H 	H 	0.2367	0.8253	0.9686	0.063
Mof_C 	C 	0.4647	0.4296	0.3027	0.316
Mof_C 	C 	0.034	0.9824	0.89	-0.088
Mof_C 	C 	0.0933	0.9678	0.7736	0.38
_end
