data_functionalizedCrystal
_audit_creation_method	'EQeq! by Chris Wilmer'
_symmetry_space_group_name_H-M	'P1'
_symmetry_Int_Tables_number	1
_symmetry_cell_setting	triclinic
loop_
_symmetry_equiv_pos_as_xyz
  x,y,z
_cell_length_a	10.2409
_cell_length_b	19.6102
_cell_length_c	37.787
_cell_angle_alpha	89.025
_cell_angle_beta	89.263
_cell_angle_gamma	76.471
loop_
_atom_site_label
_atom_site_type_symbol
_atom_site_fract_x
_atom_site_fract_y
_atom_site_fract_z
_atom_site_charge
Mof_Cd	Cd	0.85826	0.68939	0.60924	0.476
Mof_Cd	Cd	0.1856	0.69537	0.61133	0.459
Mof_Cd	Cd	0.35713	0.1691	0.89654	0.469
Mof_Cd	Cd	0.68971	0.17787	0.89286	0.463
Mof_Cd	Cd	0.2018	0.76985	0.84117	0.468
Mof_Cd	Cd	0.51058	0.63324	0.81921	0.476
Mof_Cd	Cd	0.78302	0.5903	0.88956	0.471
Mof_Cd	Cd	0.00094	0.71024	0.91118	0.47
Mof_Cd	Cd	0.55603	0.16154	0.58978	0.467
Mof_Cd	Cd	0.72134	0.29192	0.62796	0.472
Mof_Cd	Cd	0.01294	0.23097	0.68483	0.473
Mof_Cd	Cd	0.32963	0.10111	0.65567	0.475
Mof_O 	O 	0.8609	0.6687	0.6673	-0.267
Mof_O 	O 	0.0774	0.6706	0.6615	-0.283
Mof_O 	O 	0.3749	0.6347	0.7664	-0.255
Mof_O 	O 	0.2782	0.6606	0.8188	-0.293
Mof_O 	O 	0.8102	0.6205	0.8328	-0.282
Mof_O 	O 	0.6825	0.6368	0.7851	-0.278
Mof_C 	C 	0.9952	0.6577	0.7192	-0.081
Mof_C 	C 	0.1202	0.6546	0.734	0.024
Mof_H 	H 	0.1944	0.6571	0.7191	0.055
Mof_C 	C 	0.137	0.648	0.7703	-0.076
Mof_C 	C 	0.0295	0.6425	0.7925	0.019
Mof_H 	H 	0.0407	0.6393	0.8174	0.065
Mof_C 	C 	0.9063	0.6419	0.7778	-0.081
Mof_C 	C 	0.8896	0.6505	0.7415	0.029
Mof_H 	H 	0.8043	0.6516	0.7317	0.06
Mof_C 	C 	0.9783	0.6666	0.68	0.316
Mof_C 	C 	0.2732	0.6468	0.7855	0.287
Mof_C 	C 	0.7915	0.6325	0.8007	0.332
Mof_O 	O 	0.8805	0.7975	0.6195	-0.289
Mof_O 	O 	0.0929	0.8087	0.6203	-0.283
Mof_O 	O 	0.1933	0.0314	0.6482	-0.274
Mof_O 	O 	0.0324	0.1219	0.6644	-0.292
Mof_O 	O 	0.5516	0.105	0.6427	-0.299
Mof_O 	O 	0.5153	0.9996	0.6499	-0.258
Mof_C 	C 	0.9213	0.9069	0.632	-0.088
Mof_C 	C 	0.0101	0.9501	0.6371	0.034
Mof_H 	H 	0.1035	0.9303	0.6342	0.059
Mof_C 	C 	0.9706	0.019	0.6457	-0.079
Mof_C 	C 	0.832	0.0495	0.6481	0.024
Mof_H 	H 	0.8008	0.0979	0.653	0.064
Mof_C 	C 	0.7433	0.0087	0.6431	-0.083
Mof_C 	C 	0.7853	0.9385	0.6357	0.031
Mof_H 	H 	0.7207	0.9113	0.633	0.056
Mof_C 	C 	0.9681	0.8305	0.6239	0.341
Mof_C 	C 	0.0718	0.0628	0.6535	0.335
Mof_C 	C 	0.5933	0.0388	0.6453	0.298
Mof_O 	O 	0.4307	0.1792	0.8398	-0.279
Mof_O 	O 	0.6528	0.1793	0.8362	-0.275
Mof_O 	O 	0.8505	0.2239	0.724	-0.259
Mof_O 	O 	0.7414	0.2208	0.6732	-0.287
Mof_O 	O 	0.2529	0.2066	0.6805	-0.293
Mof_O 	O 	0.1542	0.226	0.733	-0.253
Mof_C 	C 	0.5241	0.1948	0.7844	-0.079
Mof_C 	C 	0.6356	0.2007	0.7636	0.025
Mof_H 	H 	0.7197	0.1972	0.7747	0.061
Mof_C 	C 	0.6261	0.2116	0.7275	-0.075
Mof_C 	C 	0.5041	0.2144	0.7107	0.014
Mof_H 	H 	0.4973	0.2193	0.6857	0.063
Mof_C 	C 	0.3922	0.2098	0.7314	-0.077
Mof_C 	C 	0.4043	0.1996	0.7672	0.026
Mof_H 	H 	0.3274	0.1958	0.7807	0.058
Mof_C 	C 	0.5346	0.1827	0.8236	0.321
Mof_C 	C 	0.745	0.2206	0.7064	0.299
Mof_C 	C 	0.26	0.2137	0.7138	0.283
Mof_O 	O 	0.4344	0.0559	0.8901	-0.28
Mof_O 	O 	0.6446	0.0669	0.8933	-0.278
Mof_O 	O 	0.0188	0.8725	0.8529	-0.247
Mof_O 	O 	0.9835	0.7652	0.8564	-0.283
Mof_O 	O 	0.5101	0.7448	0.8349	-0.285
Mof_O 	O 	0.3438	0.837	0.8479	-0.274
Mof_C 	C 	0.6051	0.9583	0.8747	-0.076
Mof_C 	C 	0.7446	0.9306	0.8707	0.022
Mof_H 	H 	0.806	0.9588	0.8755	0.06
Mof_C 	C 	0.7906	0.8636	0.8599	-0.063
Mof_C 	C 	0.7008	0.8208	0.8508	0.016
Mof_H 	H 	0.7338	0.7741	0.8431	0.063
Mof_C 	C 	0.5651	0.8496	0.8537	-0.073
Mof_C 	C 	0.5187	0.9177	0.8661	0.027
Mof_H 	H 	0.4247	0.9363	0.8686	0.062
Mof_C 	C 	0.5589	0.0336	0.8869	0.335
Mof_C 	C 	0.9404	0.8324	0.8556	0.284
Mof_C 	C 	0.4665	0.8054	0.8445	0.322
Mof_O 	O 	0.7694	0.7019	0.9058	-0.304
Mof_O 	O 	0.8206	0.7738	0.9443	-0.261
Mof_O 	O 	0.5365	0.8306	0.0498	-0.269
Mof_O 	O 	0.318	0.8229	0.049	-0.269
Mof_O 	O 	0.1299	0.7726	0.9374	-0.273
Mof_O 	O 	0.2636	0.7187	0.8951	-0.282
Mof_C 	C 	0.5986	0.7598	0.9464	-0.084
Mof_C 	C 	0.5788	0.7859	0.9814	0.028
Mof_H 	H 	0.653	0.7939	0.9941	0.057
Mof_C 	C 	0.4519	0.7998	0.9973	-0.079
Mof_C 	C 	0.3443	0.789	0.9775	0.026
Mof_H 	H 	0.2568	0.7987	0.9878	0.061
Mof_C 	C 	0.3633	0.7638	0.9426	-0.078
Mof_C 	C 	0.4906	0.7474	0.9279	0.027
Mof_H 	H 	0.5044	0.7276	0.905	0.053
Mof_C 	C 	0.738	0.7436	0.9309	0.307
Mof_C 	C 	0.4344	0.8188	0.0349	0.314
Mof_C 	C 	0.2428	0.7502	0.924	0.315
Mof_O 	O 	0.9844	0.5171	0.8943	-0.278
Mof_O 	O 	0.0588	0.6127	0.8825	-0.297
Mof_O 	O 	0.5542	0.5932	0.8756	-0.297
Mof_O 	O 	0.6865	0.4909	0.8925	-0.256
Mof_O 	O 	0.5186	0.2778	0.895	-0.273
Mof_O 	O 	0.296	0.2849	0.8973	-0.273
Mof_C 	C 	0.2181	0.5044	0.8884	-0.071
Mof_C 	C 	0.3265	0.5363	0.8866	0.009
Mof_H 	H 	0.3118	0.586	0.8855	0.063
Mof_C 	C 	0.4558	0.4943	0.8863	-0.069
Mof_C 	C 	0.4796	0.4225	0.8901	0.014
Mof_H 	H 	0.5687	0.3946	0.8918	0.06
Mof_C 	C 	0.3676	0.3908	0.8914	-0.069
Mof_C 	C 	0.2382	0.4299	0.8917	0.017
Mof_H 	H 	0.1644	0.4084	0.894	0.063
Mof_C 	C 	0.0747	0.5492	0.8885	0.323
Mof_C 	C 	0.5731	0.5294	0.8847	0.287
Mof_C 	C 	0.3961	0.3119	0.895	0.308
Mof_O 	O 	0.2343	0.8085	0.4062	-0.29
Mof_O 	O 	0.3177	0.8066	0.4598	-0.254
Mof_O 	O 	0.0747	0.7143	0.5572	-0.276
Mof_O 	O 	0.8554	0.718	0.552	-0.267
Mof_O 	O 	0.6247	0.8132	0.4436	-0.273
Mof_O 	O 	0.7311	0.8535	0.3993	-0.28
Mof_C 	C 	0.0961	0.7911	0.4545	-0.078
Mof_C 	C 	0.0924	0.7641	0.4883	0.03
Mof_H 	H 	0.1725	0.7519	0.5017	0.058
Mof_C 	C 	0.9711	0.7544	0.5032	-0.079
Mof_C 	C 	0.8547	0.7731	0.4826	0.032
Mof_H 	H 	0.7728	0.7652	0.4919	0.06
Mof_C 	C 	0.8555	0.8023	0.4497	-0.083
Mof_C 	C 	0.9777	0.8111	0.4348	0.026
Mof_H 	H 	0.9797	0.8305	0.4116	0.06
Mof_C 	C 	0.2247	0.8026	0.4394	0.303
Mof_C 	C 	0.9688	0.7265	0.5404	0.323
Mof_C 	C 	0.7286	0.8257	0.4291	0.321
Mof_O 	O 	0.9647	0.2772	0.6307	-0.293
Mof_O 	O 	0.8373	0.3713	0.6064	-0.261
Mof_O 	O 	0.002	0.5859	0.5991	-0.289
Mof_O 	O 	0.2217	0.5804	0.6008	-0.282
Mof_O 	O 	0.5397	0.3493	0.5995	-0.273
Mof_O 	O 	0.4682	0.2606	0.6218	-0.286
Mof_C 	C 	0.0668	0.371	0.6116	-0.094
Mof_C 	C 	0.0423	0.4428	0.6068	0.04
Mof_H 	H 	0.9524	0.4699	0.6064	0.054
Mof_C 	C 	0.1477	0.4758	0.6027	-0.092
Mof_C 	C 	0.2795	0.4336	0.6027	0.041
Mof_H 	H 	0.3527	0.4551	0.599	0.055
Mof_C 	C 	0.305	0.3631	0.6078	-0.091
Mof_C 	C 	0.1992	0.3307	0.6129	0.037
Mof_H 	H 	0.2165	0.2815	0.6173	0.052
Mof_C 	C 	0.9516	0.3382	0.6162	0.299
Mof_C 	C 	0.1214	0.5544	0.6	0.348
Mof_C 	C 	0.447	0.321	0.6097	0.323
Mof_Cd	Cd	0.14174	0.31061	0.39076	0.475
Mof_Cd	Cd	0.8144	0.30463	0.38867	0.458
Mof_Cd	Cd	0.64287	0.8309	0.10346	0.468
Mof_Cd	Cd	0.31029	0.82213	0.10714	0.462
Mof_Cd	Cd	0.7982	0.23015	0.15883	0.467
Mof_Cd	Cd	0.48942	0.36676	0.18079	0.475
Mof_Cd	Cd	0.21698	0.4097	0.11044	0.471
Mof_Cd	Cd	0.99906	0.28976	0.08882	0.47
Mof_Cd	Cd	0.44397	0.83846	0.41022	0.467
Mof_Cd	Cd	0.27866	0.70808	0.37204	0.472
Mof_Cd	Cd	0.98706	0.76903	0.31517	0.473
Mof_Cd	Cd	0.67037	0.89889	0.34433	0.475
Mof_O 	O 	0.1391	0.3313	0.3327	-0.267
Mof_O 	O 	0.9226	0.3294	0.3385	-0.283
Mof_O 	O 	0.6251	0.3653	0.2336	-0.255
Mof_O 	O 	0.7218	0.3394	0.1812	-0.293
Mof_O 	O 	0.1898	0.3795	0.1672	-0.282
Mof_O 	O 	0.3175	0.3632	0.2149	-0.278
Mof_C 	C 	0.0048	0.3423	0.2808	-0.081
Mof_C 	C 	0.8798	0.3454	0.266	0.024
Mof_H 	H 	0.8056	0.3429	0.2809	0.055
Mof_C 	C 	0.863	0.352	0.2297	-0.076
Mof_C 	C 	0.9705	0.3575	0.2075	0.019
Mof_H 	H 	0.9593	0.3607	0.1826	0.065
Mof_C 	C 	0.0937	0.3581	0.2222	-0.081
Mof_C 	C 	0.1104	0.3495	0.2585	0.029
Mof_H 	H 	0.1957	0.3484	0.2683	0.06
Mof_C 	C 	0.0217	0.3334	0.32	0.316
Mof_C 	C 	0.7268	0.3532	0.2145	0.287
Mof_C 	C 	0.2085	0.3675	0.1993	0.332
Mof_O 	O 	0.1195	0.2025	0.3805	-0.289
Mof_O 	O 	0.9071	0.1913	0.3797	-0.283
Mof_O 	O 	0.8067	0.9686	0.3518	-0.274
Mof_O 	O 	0.9676	0.8781	0.3356	-0.292
Mof_O 	O 	0.4484	0.895	0.3573	-0.299
Mof_O 	O 	0.4847	0.0004	0.3501	-0.258
Mof_C 	C 	0.0787	0.0931	0.368	-0.088
Mof_C 	C 	0.9899	0.0499	0.3629	0.034
Mof_H 	H 	0.8965	0.0697	0.3658	0.059
Mof_C 	C 	0.0294	0.981	0.3543	-0.079
Mof_C 	C 	0.168	0.9505	0.3519	0.024
Mof_H 	H 	0.1992	0.9021	0.347	0.064
Mof_C 	C 	0.2567	0.9913	0.3569	-0.083
Mof_C 	C 	0.2147	0.0615	0.3643	0.031
Mof_H 	H 	0.2793	0.0887	0.367	0.056
Mof_C 	C 	0.0319	0.1695	0.3761	0.341
Mof_C 	C 	0.9282	0.9372	0.3465	0.335
Mof_C 	C 	0.4067	0.9612	0.3547	0.298
Mof_O 	O 	0.5693	0.8208	0.1602	-0.279
Mof_O 	O 	0.3472	0.8207	0.1638	-0.275
Mof_O 	O 	0.1495	0.7761	0.276	-0.259
Mof_O 	O 	0.2586	0.7792	0.3268	-0.287
Mof_O 	O 	0.7471	0.7934	0.3195	-0.293
Mof_O 	O 	0.8458	0.774	0.267	-0.253
Mof_C 	C 	0.4759	0.8052	0.2156	-0.079
Mof_C 	C 	0.3644	0.7993	0.2364	0.025
Mof_H 	H 	0.2803	0.8028	0.2253	0.061
Mof_C 	C 	0.3739	0.7884	0.2725	-0.075
Mof_C 	C 	0.4959	0.7856	0.2893	0.014
Mof_H 	H 	0.5027	0.7807	0.3143	0.063
Mof_C 	C 	0.6078	0.7902	0.2686	-0.077
Mof_C 	C 	0.5957	0.8004	0.2328	0.026
Mof_H 	H 	0.6726	0.8042	0.2193	0.058
Mof_C 	C 	0.4654	0.8173	0.1764	0.321
Mof_C 	C 	0.255	0.7794	0.2936	0.299
Mof_C 	C 	0.74	0.7863	0.2862	0.283
Mof_O 	O 	0.5656	0.9441	0.1099	-0.28
Mof_O 	O 	0.3554	0.9331	0.1067	-0.278
Mof_O 	O 	0.9812	0.1275	0.1471	-0.247
Mof_O 	O 	0.0165	0.2348	0.1436	-0.283
Mof_O 	O 	0.4899	0.2552	0.1651	-0.285
Mof_O 	O 	0.6562	0.163	0.1521	-0.274
Mof_C 	C 	0.3949	0.0417	0.1253	-0.076
Mof_C 	C 	0.2554	0.0694	0.1293	0.022
Mof_H 	H 	0.194	0.0412	0.1245	0.06
Mof_C 	C 	0.2094	0.1364	0.1401	-0.063
Mof_C 	C 	0.2992	0.1792	0.1492	0.016
Mof_H 	H 	0.2662	0.2259	0.1569	0.063
Mof_C 	C 	0.4349	0.1504	0.1463	-0.073
Mof_C 	C 	0.4813	0.0823	0.1339	0.027
Mof_H 	H 	0.5753	0.0637	0.1314	0.062
Mof_C 	C 	0.4411	0.9664	0.1131	0.335
Mof_C 	C 	0.0596	0.1676	0.1444	0.284
Mof_C 	C 	0.5335	0.1946	0.1555	0.322
Mof_O 	O 	0.2306	0.2981	0.0942	-0.304
Mof_O 	O 	0.1794	0.2262	0.0557	-0.261
Mof_O 	O 	0.4635	0.1694	0.9502	-0.269
Mof_O 	O 	0.682	0.1771	0.951	-0.269
Mof_O 	O 	0.8701	0.2274	0.0626	-0.273
Mof_O 	O 	0.7364	0.2813	0.1049	-0.282
Mof_C 	C 	0.4014	0.2402	0.0536	-0.084
Mof_C 	C 	0.4212	0.2141	0.0186	0.028
Mof_H 	H 	0.347	0.2061	0.0059	0.057
Mof_C 	C 	0.5481	0.2002	0.0027	-0.079
Mof_C 	C 	0.6557	0.211	0.0225	0.026
Mof_H 	H 	0.7432	0.2013	0.0122	0.061
Mof_C 	C 	0.6367	0.2362	0.0574	-0.078
Mof_C 	C 	0.5094	0.2526	0.0721	0.027
Mof_H 	H 	0.4956	0.2724	0.095	0.053
Mof_C 	C 	0.262	0.2564	0.0691	0.307
Mof_C 	C 	0.5656	0.1812	0.9651	0.314
Mof_C 	C 	0.7572	0.2498	0.076	0.315
Mof_O 	O 	0.0156	0.4829	0.1057	-0.278
Mof_O 	O 	0.9412	0.3873	0.1175	-0.297
Mof_O 	O 	0.4458	0.4068	0.1244	-0.297
Mof_O 	O 	0.3135	0.5091	0.1075	-0.256
Mof_O 	O 	0.4814	0.7222	0.105	-0.273
Mof_O 	O 	0.704	0.7151	0.1027	-0.273
Mof_C 	C 	0.7819	0.4956	0.1116	-0.071
Mof_C 	C 	0.6735	0.4637	0.1134	0.009
Mof_H 	H 	0.6882	0.414	0.1145	0.063
Mof_C 	C 	0.5442	0.5057	0.1137	-0.069
Mof_C 	C 	0.5204	0.5775	0.1099	0.014
Mof_H 	H 	0.4313	0.6054	0.1082	0.06
Mof_C 	C 	0.6324	0.6092	0.1086	-0.069
Mof_C 	C 	0.7618	0.5701	0.1083	0.017
Mof_H 	H 	0.8356	0.5916	0.106	0.063
Mof_C 	C 	0.9253	0.4508	0.1115	0.323
Mof_C 	C 	0.4269	0.4706	0.1153	0.287
Mof_C 	C 	0.6039	0.6881	0.105	0.308
Mof_O 	O 	0.7657	0.1915	0.5938	-0.29
Mof_O 	O 	0.6823	0.1934	0.5402	-0.254
Mof_O 	O 	0.9253	0.2857	0.4428	-0.276
Mof_O 	O 	0.1446	0.282	0.448	-0.267
Mof_O 	O 	0.3753	0.1868	0.5564	-0.273
Mof_O 	O 	0.2689	0.1465	0.6007	-0.28
Mof_C 	C 	0.9039	0.2089	0.5455	-0.078
Mof_C 	C 	0.9076	0.2359	0.5117	0.03
Mof_H 	H 	0.8275	0.2481	0.4983	0.058
Mof_C 	C 	0.0289	0.2456	0.4968	-0.079
Mof_C 	C 	0.1453	0.2269	0.5174	0.032
Mof_H 	H 	0.2272	0.2348	0.5081	0.06
Mof_C 	C 	0.1445	0.1977	0.5503	-0.083
Mof_C 	C 	0.0223	0.1889	0.5652	0.026
Mof_H 	H 	0.0203	0.1695	0.5884	0.06
Mof_C 	C 	0.7753	0.1974	0.5606	0.303
Mof_C 	C 	0.0312	0.2735	0.4596	0.323
Mof_C 	C 	0.2714	0.1743	0.5709	0.321
Mof_O 	O 	0.0353	0.7228	0.3693	-0.293
Mof_O 	O 	0.1627	0.6287	0.3936	-0.261
Mof_O 	O 	0.998	0.4141	0.4009	-0.289
Mof_O 	O 	0.7783	0.4196	0.3992	-0.282
Mof_O 	O 	0.4603	0.6507	0.4005	-0.273
Mof_O 	O 	0.5318	0.7394	0.3782	-0.286
Mof_C 	C 	0.9332	0.629	0.3884	-0.094
Mof_C 	C 	0.9577	0.5572	0.3932	0.04
Mof_H 	H 	0.0476	0.5301	0.3936	0.054
Mof_C 	C 	0.8523	0.5242	0.3973	-0.092
Mof_C 	C 	0.7205	0.5664	0.3973	0.041
Mof_H 	H 	0.6473	0.5449	0.401	0.055
Mof_C 	C 	0.695	0.6369	0.3922	-0.091
Mof_C 	C 	0.8008	0.6693	0.3871	0.037
Mof_H 	H 	0.7835	0.7185	0.3827	0.052
Mof_C 	C 	0.0484	0.6618	0.3838	0.299
Mof_C 	C 	0.8786	0.4456	0.4	0.348
Mof_C 	C 	0.553	0.679	0.3903	0.323
_end
