data_functionalizedCrystal
_audit_creation_method	'EQeq! by Chris Wilmer'
_symmetry_space_group_name_H-M	'P1'
_symmetry_Int_Tables_number	1
_symmetry_cell_setting	triclinic
loop_
_symmetry_equiv_pos_as_xyz
  x,y,z
_cell_length_a	19.2341
_cell_length_b	11.073
_cell_length_c	6.889
_cell_angle_alpha	90
_cell_angle_beta	71.69
_cell_angle_gamma	90
loop_
_atom_site_label
_atom_site_type_symbol
_atom_site_fract_x
_atom_site_fract_y
_atom_site_fract_z
_atom_site_charge
Mof_H 	H 	0.2088	0.1919	0.3374	-0.016
Mof_H 	H 	0.1807	0.2151	0.7876	-0.015
Mof_C 	C 	0.1815	0.1946	0.0781	-0.266
Mof_C 	C 	0.2252	0.2157	0.201	0.15
Mof_C 	C 	0.1085	0.134	0.1565	0.411
Mof_C 	C 	0.2085	0.2295	0.874	0.198
Mof_O 	O 	0.0712	0.126	0.0391	-0.41
Mof_O 	O 	0.0888	0.1006	0.3437	-0.386
Mof_H 	H 	0.5	0.67211	0.75	0.223
Mof_H 	H 	0.7088	0.6919	0.3374	-0.008
Mof_H 	H 	0.6807	0.7151	0.7876	-0.009
Mof_C 	C 	0.6815	0.6946	0.0781	-0.266
Mof_C 	C 	0.7252	0.7157	0.201	0.184
Mof_C 	C 	0.6085	0.634	0.1565	0.448
Mof_C 	C 	0.7085	0.7295	0.874	0.229
Mof_O 	O 	0.5712	0.626	0.0391	-0.411
Mof_O 	O 	0.5888	0.6006	0.3437	-0.383
Mof_H 	H 	6.90767e-34	0.17211	0.75	0.196
Mof_H 	H 	0.7912	0.1919	0.1626	0.034
Mof_H 	H 	0.8193	0.2151	0.7124	0.065
Mof_C 	C 	0.8185	0.1946	0.4219	-0.073
Mof_C 	C 	0.7748	0.2157	0.299	-0.025
Mof_C 	C 	0.8915	0.134	0.3435	0.348
Mof_C 	C 	0.7915	0.2295	0.626	-0.026
Mof_O 	O 	0.9288	0.126	0.4609	-0.326
Mof_O 	O 	0.9112	0.1006	0.1563	-0.34
Mof_H 	H 	0.2912	0.6919	0.1626	0.034
Mof_H 	H 	0.3193	0.7151	0.7124	0.06
Mof_C 	C 	0.3185	0.6946	0.4219	-0.094
Mof_C 	C 	0.2748	0.7157	0.299	0.013
Mof_C 	C 	0.3915	0.634	0.3435	0.393
Mof_C 	C 	0.2915	0.7295	0.626	0.014
Mof_O 	O 	0.4288	0.626	0.4609	-0.381
Mof_O 	O 	0.4112	0.6006	0.1563	-0.38
Mof_H 	H 	0.7912	0.8081	0.6626	0.133
Mof_H 	H 	0.8193	0.7849	0.2124	0.14
Mof_C 	C 	0.8185	0.8054	0.9219	0.147
Mof_C 	C 	0.7748	0.7843	0.799	-0.202
Mof_C 	C 	0.8915	0.866	0.8435	0.29
Mof_C 	C 	0.7915	0.7705	0.126	-0.253
Mof_O 	O 	0.9288	0.874	0.9609	-0.22
Mof_O 	O 	0.9112	0.8994	0.6563	-0.245
Mof_H 	H 	0.5	0.32789	0.25	0.183
Mof_H 	H 	0.2912	0.3081	0.6626	0.106
Mof_H 	H 	0.3193	0.2849	0.2124	0.111
Mof_C 	C 	0.3185	0.3054	0.9219	0.098
Mof_C 	C 	0.2748	0.2843	0.799	-0.19
Mof_C 	C 	0.3915	0.366	0.8435	0.321
Mof_C 	C 	0.2915	0.2705	0.126	-0.243
Mof_O 	O 	0.4288	0.374	0.9609	-0.336
Mof_O 	O 	0.4112	0.3994	0.6563	-0.361
Mof_H 	H 	-5.10107e-18	0.82789	0.25	0.161
Mof_H 	H 	0.2088	0.8081	0.8374	0.085
Mof_H 	H 	0.1807	0.7849	0.2876	0.062
Mof_C 	C 	0.1815	0.8054	0.5781	-0.037
Mof_C 	C 	0.2252	0.7843	0.701	-0.034
Mof_C 	C 	0.1085	0.866	0.6565	0.352
Mof_C 	C 	0.2085	0.7705	0.374	-0.039
Mof_O 	O 	0.0712	0.874	0.5391	-0.318
Mof_O 	O 	0.0888	0.8994	0.8437	-0.264
Mof_H 	H 	0.7088	0.3081	0.8374	0.062
Mof_H 	H 	0.6807	0.2849	0.2876	0.039
Mof_C 	C 	0.6815	0.3054	0.5781	-0.083
Mof_C 	C 	0.7252	0.2843	0.701	-0.011
Mof_C 	C 	0.6085	0.366	0.6565	0.38
Mof_C 	C 	0.7085	0.2705	0.374	-0.018
Mof_O 	O 	0.5712	0.374	0.5391	-0.389
Mof_O 	O 	0.5888	0.3994	0.8437	-0.341
Mof_Fe	Fe	-0	0	-0	0.736
Mof_Fe	Fe	0.5	0.5	-0	0.982
Mof_Fe	Fe	4.60511e-34	-2.26533e-33	0.5	0.818
Mof_Fe	Fe	0.5	0.5	0.5	1.064
Mof_O 	O 	6.90767e-34	0.0818	0.75	-0.476
Mof_O 	O 	0.5	0.5818	0.75	-0.484
Mof_O 	O 	2.30256e-34	0.9182	0.25	-0.399
Mof_O 	O 	0.5	0.4182	0.25	-0.512
_end
