data_functionalizedCrystal
_audit_creation_method	'EQeq! by Chris Wilmer'
_symmetry_space_group_name_H-M	'P1'
_symmetry_Int_Tables_number	1
_symmetry_cell_setting	triclinic
loop_
_symmetry_equiv_pos_as_xyz
  x,y,z
_cell_length_a	9.9544
_cell_length_b	11.7155
_cell_length_c	13.5215
_cell_angle_alpha	66.897
_cell_angle_beta	87.033
_cell_angle_gamma	76.402
loop_
_atom_site_label
_atom_site_type_symbol
_atom_site_fract_x
_atom_site_fract_y
_atom_site_fract_z
_atom_site_charge
Mof_Eu	Eu	0.7362	0.02657	0.00472	1.968
Mof_Eu	Eu	0.2638	0.97343	0.99528	1.968
Mof_H 	H 	0.487	0.3791	0.5598	0.032
Mof_H 	H 	0.4448	0.2664	0.7362	0.043
Mof_H 	H 	0.0615	0.4917	0.6798	0.073
Mof_H 	H 	0.196	0.6744	0.3424	0.045
Mof_H 	H 	0.8134	0.8977	0.2952	0.036
Mof_H 	H 	0.7828	0.7996	0.4749	0.04
Mof_H 	H 	0.8085	0.0955	0.5567	0.031
Mof_H 	H 	0.7376	0.07	0.7259	0.026
Mof_H 	H 	0.4081	0.9664	0.6609	0.057
Mof_H 	H 	0.513	0.6209	0.4402	0.032
Mof_H 	H 	0.5552	0.7336	0.2638	0.043
Mof_H 	H 	0.9385	0.5083	0.3202	0.073
Mof_H 	H 	0.804	0.3256	0.6576	0.045
Mof_H 	H 	0.1866	0.1023	0.7048	0.036
Mof_H 	H 	0.2172	0.2004	0.5251	0.04
Mof_H 	H 	0.1915	0.9045	0.4433	0.031
Mof_H 	H 	0.2624	0.93	0.2741	0.026
Mof_H 	H 	0.5919	0.0336	0.3391	0.057
Mof_C 	C 	0.211	0.291	0.8412	0.347
Mof_C 	C 	0.4001	0.4021	0.5847	0.029
Mof_C 	C 	0.3761	0.3326	0.691	-0.048
Mof_C 	C 	0.2468	0.3652	0.7272	-0.051
Mof_C 	C 	0.1493	0.467	0.657	-0.07
Mof_C 	C 	0.1842	0.5311	0.5534	0.071
Mof_C 	C 	0.082	0.6405	0.4757	0.033
Mof_C 	C 	0.1104	0.7006	0.3676	-0.011
Mof_C 	C 	0.011	0.7984	0.2989	-0.134
Mof_C 	C 	0.8844	0.8339	0.3398	-0
Mof_C 	C 	0.8664	0.7726	0.4477	0.012
Mof_C 	C 	0.0349	0.8669	0.1821	0.475
Mof_C 	C 	0.5118	0.9966	0.8236	0.459
Mof_C 	C 	0.7258	0.0707	0.5773	0.015
Mof_C 	C 	0.685	0.0545	0.6797	-0.026
Mof_C 	C 	0.5647	0.0149	0.7123	-0.092
Mof_C 	C 	0.4899	0.993	0.6409	-0.053
Mof_C 	C 	0.5383	0.0112	0.5394	0.053
Mof_C 	C 	0.789	0.709	0.1588	0.347
Mof_C 	C 	0.5999	0.5979	0.4153	0.029
Mof_C 	C 	0.6239	0.6674	0.309	-0.048
Mof_C 	C 	0.7532	0.6348	0.2728	-0.051
Mof_C 	C 	0.8507	0.533	0.343	-0.07
Mof_C 	C 	0.8158	0.4689	0.4466	0.071
Mof_C 	C 	0.918	0.3595	0.5243	0.033
Mof_C 	C 	0.8896	0.2994	0.6324	-0.011
Mof_C 	C 	0.989	0.2016	0.7011	-0.134
Mof_C 	C 	0.1156	0.1661	0.6602	-0
Mof_C 	C 	0.1336	0.2274	0.5523	0.012
Mof_C 	C 	0.9651	0.1331	0.8179	0.475
Mof_C 	C 	0.4882	0.0034	0.1764	0.459
Mof_C 	C 	0.2742	0.9293	0.4227	0.015
Mof_C 	C 	0.315	0.9455	0.3203	-0.026
Mof_C 	C 	0.4353	0.9851	0.2877	-0.092
Mof_C 	C 	0.5101	0.007	0.3591	-0.053
Mof_C 	C 	0.4617	0.9888	0.4606	0.053
Mof_N 	N 	0.3079	0.4992	0.5155	-0.123
Mof_N 	N 	0.9599	0.6781	0.5151	-0.11
Mof_N 	N 	0.6547	0.0532	0.5056	-0.12
Mof_N 	N 	0.6921	0.5008	0.4845	-0.123
Mof_N 	N 	0.0401	0.3219	0.4849	-0.11
Mof_N 	N 	0.3453	0.9468	0.4944	-0.12
Mof_O 	O 	0.295	0.1864	0.8931	-0.466
Mof_O 	O 	0.1018	0.336	0.8766	-0.299
Mof_O 	O 	0.1566	0.8497	0.1515	-0.552
Mof_O 	O 	0.932	0.9413	0.1216	-0.573
Mof_O 	O 	0.3957	0.9727	0.8415	-0.543
Mof_O 	O 	0.5873	0.0076	0.8882	-0.574
Mof_O 	O 	0.705	0.8136	0.1069	-0.466
Mof_O 	O 	0.8982	0.664	0.1234	-0.299
Mof_O 	O 	0.8434	0.1503	0.8485	-0.552
Mof_O 	O 	0.068	0.0587	0.8784	-0.573
Mof_O 	O 	0.6043	0.0273	0.1585	-0.543
Mof_O 	O 	0.4127	0.9924	0.1118	-0.574
_end
