data_functionalizedCrystal
_audit_creation_method	'EQeq! by Chris Wilmer'
_symmetry_space_group_name_H-M	'P1'
_symmetry_Int_Tables_number	1
_symmetry_cell_setting	triclinic
loop_
_symmetry_equiv_pos_as_xyz
  x,y,z
_cell_length_a	12.3348
_cell_length_b	9.936
_cell_length_c	17.8259
_cell_angle_alpha	90
_cell_angle_beta	90
_cell_angle_gamma	90
loop_
_atom_site_label
_atom_site_type_symbol
_atom_site_fract_x
_atom_site_fract_y
_atom_site_fract_z
_atom_site_charge
Mof_O 	O 	0.3545	0.4486	0.91722	-0.377
Mof_O 	O 	0.2796	0.26	0.877	-0.334
Mof_N 	N 	0.5288	0.0489	0.1687	-0.145
Mof_N 	N 	0.472	0.9552	0.2086	-0.069
Mof_N 	N 	0.633	0.9952	0.2623	-0.196
Mof_C 	C 	0.3385	0.3218	0.922	0.351
Mof_C 	C 	0.3936	0.2481	0.9846	-0.199
Mof_C 	C 	0.4755	0.3064	0.0248	0.154
Mof_H 	H 	0.5009	0.3912	0.0113	0.005
Mof_C 	C 	0.5207	0.2406	0.0855	-0.251
Mof_H 	H 	0.5765	0.2803	0.1127	0.128
Mof_C 	C 	0.4821	0.1149	0.1051	0.247
Mof_C 	C 	0.4011	0.0546	0.0658	-0.356
Mof_H 	H 	0.3757	0.9698	0.0792	0.201
Mof_C 	C 	0.3575	0.1231	0.0053	0.194
Mof_H 	H 	0.302	0.0831	0.9779	-0.034
Mof_C 	C 	0.5371	0.9276	0.264	0.116
Mof_H 	H 	0.5194	0.8667	0.3017	0.013
Mof_C 	C 	0.6241	0.0696	0.2009	0.051
Mof_H 	H 	0.6771	0.1279	0.183	0.021
Mof_O 	O 	0.1455	0.5514	0.91722	-0.365
Mof_O 	O 	0.2204	0.74	0.877	-0.311
Mof_N 	N 	0.9712	0.9511	0.1687	-0.101
Mof_N 	N 	0.028	0.0448	0.2086	-0.105
Mof_N 	N 	0.867	0.0048	0.2623	-0.258
Mof_C 	C 	0.1615	0.6782	0.922	0.308
Mof_C 	C 	0.1064	0.7519	0.9846	-0.077
Mof_C 	C 	0.0245	0.6936	0.0248	0.045
Mof_H 	H 	0.9991	0.6088	0.0113	0.042
Mof_C 	C 	0.9793	0.7594	0.0855	-0.136
Mof_H 	H 	0.9235	0.7197	0.1127	0.09
Mof_C 	C 	0.0179	0.8851	0.1051	0.128
Mof_C 	C 	0.0989	0.9454	0.0658	-0.044
Mof_H 	H 	0.1243	0.0302	0.0792	0.039
Mof_C 	C 	0.1425	0.8769	0.0053	0
Mof_H 	H 	0.198	0.9169	0.9779	0.064
Mof_C 	C 	0.9629	0.0724	0.264	0.093
Mof_H 	H 	0.9806	0.1333	0.3017	0.01
Mof_C 	C 	0.8759	0.9304	0.2009	0.15
Mof_H 	H 	0.8229	0.8721	0.183	0.002
Mof_O 	O 	0.8545	0.0514	0.41722	-0.389
Mof_O 	O 	0.7796	0.24	0.377	-0.326
Mof_N 	N 	0.0288	0.4511	0.6687	-0.117
Mof_N 	N 	0.972	0.5448	0.7086	-0.092
Mof_N 	N 	0.133	0.5048	0.7623	-0.23
Mof_C 	C 	0.8385	0.1782	0.422	0.329
Mof_C 	C 	0.8936	0.2519	0.4846	-0.136
Mof_C 	C 	0.9755	0.1936	0.5248	0.073
Mof_H 	H 	0.0009	0.1088	0.5113	0.024
Mof_C 	C 	0.0207	0.2594	0.5855	-0.169
Mof_H 	H 	0.0765	0.2197	0.6127	0.095
Mof_C 	C 	0.9821	0.3851	0.6051	0.168
Mof_C 	C 	0.9011	0.4454	0.5658	-0.19
Mof_H 	H 	0.8757	0.5302	0.5792	0.117
Mof_C 	C 	0.8575	0.3769	0.5053	0.093
Mof_H 	H 	0.802	0.4169	0.4779	0.015
Mof_C 	C 	0.0371	0.5724	0.764	0.11
Mof_H 	H 	0.0194	0.6333	0.8017	0.012
Mof_C 	C 	0.1241	0.4304	0.7009	0.099
Mof_H 	H 	0.1771	0.3721	0.683	0.012
Mof_O 	O 	0.6455	0.9486	0.41722	-0.346
Mof_O 	O 	0.7204	0.76	0.377	-0.316
Mof_N 	N 	0.4712	0.5489	0.6687	-0.122
Mof_N 	N 	0.528	0.4552	0.7086	-0.089
Mof_N 	N 	0.367	0.4952	0.7623	-0.23
Mof_C 	C 	0.6615	0.8218	0.422	0.328
Mof_C 	C 	0.6064	0.7481	0.4846	-0.136
Mof_C 	C 	0.5245	0.8064	0.5248	0.098
Mof_H 	H 	0.4991	0.8912	0.5113	0.039
Mof_C 	C 	0.4793	0.7406	0.5855	-0.186
Mof_H 	H 	0.4235	0.7803	0.6127	0.115
Mof_C 	C 	0.5179	0.6149	0.6051	0.186
Mof_C 	C 	0.5989	0.5546	0.5658	-0.199
Mof_H 	H 	0.6243	0.4698	0.5792	0.118
Mof_C 	C 	0.6425	0.6231	0.5053	0.102
Mof_H 	H 	0.698	0.5831	0.4779	0.012
Mof_C 	C 	0.4629	0.4276	0.764	0.106
Mof_H 	H 	0.4806	0.3667	0.8017	0.01
Mof_C 	C 	0.3759	0.5696	0.7009	0.102
Mof_H 	H 	0.3229	0.6279	0.683	0.012
Mof_Cu	Cu	0.25	0.5	0.83816	0.911
Mof_Cu	Cu	0.75	5.7773e-33	0.33816	0.891
Mof_O 	O 	0.1455	0.9486	0.58278	-0.347
Mof_O 	O 	0.2204	0.76	0.623	-0.317
Mof_N 	N 	0.9712	0.5489	0.3313	-0.126
Mof_N 	N 	0.028	0.4552	0.2914	-0.087
Mof_N 	N 	0.867	0.4952	0.2377	-0.23
Mof_C 	C 	0.1615	0.8218	0.578	0.333
Mof_C 	C 	0.1064	0.7481	0.5154	-0.149
Mof_C 	C 	0.0245	0.8064	0.4752	0.123
Mof_H 	H 	0.9991	0.8912	0.4887	0.027
Mof_C 	C 	0.9793	0.7406	0.4145	-0.21
Mof_H 	H 	0.9235	0.7803	0.3873	0.123
Mof_C 	C 	0.0179	0.6149	0.3949	0.203
Mof_C 	C 	0.0989	0.5546	0.4342	-0.212
Mof_H 	H 	0.1243	0.4698	0.4208	0.124
Mof_C 	C 	0.1425	0.6231	0.4947	0.116
Mof_H 	H 	0.198	0.5831	0.5221	0.008
Mof_C 	C 	0.9629	0.4276	0.236	0.103
Mof_H 	H 	0.9806	0.3667	0.1983	0.01
Mof_C 	C 	0.8759	0.5696	0.2991	0.102
Mof_H 	H 	0.8229	0.6279	0.317	0.012
Mof_O 	O 	0.3545	0.0514	0.58278	-0.39
Mof_O 	O 	0.2796	0.24	0.623	-0.327
Mof_N 	N 	0.5288	0.4511	0.3313	-0.123
Mof_N 	N 	0.472	0.5448	0.2914	-0.088
Mof_N 	N 	0.633	0.5048	0.2377	-0.23
Mof_C 	C 	0.3385	0.1782	0.578	0.336
Mof_C 	C 	0.3936	0.2519	0.5154	-0.156
Mof_C 	C 	0.4755	0.1936	0.4752	0.11
Mof_H 	H 	0.5009	0.1088	0.4887	0.008
Mof_C 	C 	0.5207	0.2594	0.4145	-0.204
Mof_H 	H 	0.5765	0.2197	0.3873	0.106
Mof_C 	C 	0.4821	0.3851	0.3949	0.192
Mof_C 	C 	0.4011	0.4454	0.4342	-0.211
Mof_H 	H 	0.3757	0.5302	0.4208	0.124
Mof_C 	C 	0.3575	0.3769	0.4947	0.113
Mof_H 	H 	0.302	0.4169	0.5221	0.008
Mof_C 	C 	0.5371	0.5724	0.236	0.106
Mof_H 	H 	0.5194	0.6333	0.1983	0.012
Mof_C 	C 	0.6241	0.4304	0.2991	0.1
Mof_H 	H 	0.6771	0.3721	0.317	0.01
Mof_O 	O 	0.6455	0.5514	0.08278	-0.366
Mof_O 	O 	0.7204	0.74	0.123	-0.312
Mof_N 	N 	0.4712	0.9511	0.8313	-0.1
Mof_N 	N 	0.528	0.0448	0.7914	-0.108
Mof_N 	N 	0.367	0.0048	0.7377	-0.258
Mof_C 	C 	0.6615	0.6782	0.078	0.311
Mof_C 	C 	0.6064	0.7519	0.0154	-0.086
Mof_C 	C 	0.5245	0.6936	0.9752	0.046
Mof_H 	H 	0.4991	0.6088	0.9887	0.044
Mof_C 	C 	0.4793	0.7594	0.9145	-0.134
Mof_H 	H 	0.4235	0.7197	0.8873	0.09
Mof_C 	C 	0.5179	0.8851	0.8949	0.127
Mof_C 	C 	0.5989	0.9454	0.9342	-0.046
Mof_H 	H 	0.6243	0.0302	0.9208	0.039
Mof_C 	C 	0.6425	0.8769	0.9947	0.011
Mof_H 	H 	0.698	0.9169	0.0221	0.059
Mof_C 	C 	0.4629	0.0724	0.736	0.096
Mof_H 	H 	0.4806	0.1333	0.6983	0.01
Mof_C 	C 	0.3759	0.9304	0.7991	0.15
Mof_H 	H 	0.3229	0.8721	0.817	0.002
Mof_O 	O 	0.8545	0.4486	0.08278	-0.375
Mof_O 	O 	0.7796	0.26	0.123	-0.332
Mof_N 	N 	0.0288	0.0489	0.8313	-0.137
Mof_N 	N 	0.972	0.9552	0.7914	-0.073
Mof_N 	N 	0.133	0.9952	0.7377	-0.197
Mof_C 	C 	0.8385	0.3218	0.078	0.343
Mof_C 	C 	0.8936	0.2481	0.0154	-0.179
Mof_C 	C 	0.9755	0.3064	0.9752	0.112
Mof_H 	H 	0.0009	0.3912	0.9887	0.023
Mof_C 	C 	0.0207	0.2406	0.9145	-0.208
Mof_H 	H 	0.0765	0.2803	0.8873	0.114
Mof_C 	C 	0.9821	0.1149	0.8949	0.219
Mof_C 	C 	0.9011	0.0546	0.9342	-0.335
Mof_H 	H 	0.8757	0.9698	0.9208	0.194
Mof_C 	C 	0.8575	0.1231	0.9947	0.177
Mof_H 	H 	0.802	0.0831	0.0221	-0.029
Mof_C 	C 	0.0371	0.9276	0.736	0.119
Mof_H 	H 	0.0194	0.8667	0.6983	0.012
Mof_C 	C 	0.1241	0.0696	0.7991	0.051
Mof_H 	H 	0.1771	0.1279	0.817	0.023
Mof_Cu	Cu	0.25	1.15546e-32	0.66184	0.892
Mof_Cu	Cu	0.75	0.5	0.16184	0.911
_end
