data_functionalizedCrystal
_audit_creation_method	'EQeq! by Chris Wilmer'
_symmetry_space_group_name_H-M	'P1'
_symmetry_Int_Tables_number	1
_symmetry_cell_setting	triclinic
loop_
_symmetry_equiv_pos_as_xyz
  x,y,z
_cell_length_a	8.715
_cell_length_b	12.934
_cell_length_c	14.0605
_cell_angle_alpha	62.6167
_cell_angle_beta	83.686
_cell_angle_gamma	76.1659
loop_
_atom_site_label
_atom_site_type_symbol
_atom_site_fract_x
_atom_site_fract_y
_atom_site_fract_z
_atom_site_charge
Mof_Zn	Zn	0.36757	0.74115	0.82246	1.215
Mof_Zn	Zn	0.86757	0.56361	0.17754	1.211
Mof_H 	H 	0.093	0.0963	0.4684	-0.009
Mof_H 	H 	0.8501	0.2004	0.3922	0.126
Mof_H 	H 	0.6438	0.0204	0.6648	0.098
Mof_H 	H 	0.8785	0.9199	0.7432	0.01
Mof_H 	H 	0.4757	0.1623	0.5158	0.074
Mof_H 	H 	0.6228	0.3164	0.344	0.075
Mof_H 	H 	0.2483	0.2614	0.459	0.101
Mof_H 	H 	0.0015	0.3733	0.3828	0.004
Mof_H 	H 	0.2087	0.566	0.1258	-0.019
Mof_H 	H 	0.4524	0.4737	0.1958	0.112
Mof_H 	H 	0.2398	0.4354	0.7786	0.012
Mof_H 	H 	0.1497	0.2613	0.8404	0.097
Mof_H 	H 	0.145	0.2204	0.1388	0.104
Mof_H 	H 	0.2457	0.392	0.0774	0.01
Mof_H 	H 	0.051	0.082	0.1062	0.079
Mof_H 	H 	0.0826	0.0944	0.905	0.059
Mof_H 	H 	0.0571	0.9255	0.889	0.089
Mof_H 	H 	0.9675	0.7489	0.9544	-0.002
Mof_H 	H 	0.8583	0.7591	0.2292	-0.025
Mof_H 	H 	0.9355	0.9305	0.1682	0.091
Mof_H 	H 	0.593	0.5647	0.5316	-0
Mof_H 	H 	0.3501	0.5926	0.6078	0.117
Mof_H 	H 	0.1438	0.6852	0.3352	0.111
Mof_H 	H 	0.3785	0.6631	0.2568	0.001
Mof_H 	H 	0.9757	0.6781	0.4842	0.04
Mof_H 	H 	0.1228	0.6604	0.656	0.074
Mof_H 	H 	0.7483	0.7204	0.541	0.091
Mof_H 	H 	0.5015	0.7561	0.6172	-0.003
Mof_H 	H 	0.7087	0.6918	0.8742	-0.02
Mof_H 	H 	0.9524	0.6695	0.8042	0.098
Mof_H 	H 	0.7398	0.214	0.2214	0.009
Mof_H 	H 	0.6497	0.1017	0.1596	0.096
Mof_H 	H 	0.645	0.3592	0.8612	0.097
Mof_H 	H 	0.7457	0.4694	0.9226	0.005
Mof_H 	H 	0.551	0.1882	0.8938	0.074
Mof_H 	H 	0.5826	0.9994	0.095	0.039
Mof_H 	H 	0.5571	0.8145	0.111	0.09
Mof_H 	H 	0.4675	0.7033	0.0456	-0.003
Mof_H 	H 	0.3583	0.9883	0.7708	-0.009
Mof_H 	H 	0.4355	0.0987	0.8318	0.074
Mof_C 	C 	0.165	0.9205	0.6632	0.373
Mof_C 	C 	0.0168	0.9931	0.6148	-0.169
Mof_C 	C 	0.0024	0.0802	0.5092	0.167
Mof_C 	C 	0.8564	0.1433	0.4636	-0.249
Mof_C 	C 	0.7198	0.1233	0.5218	0.164
Mof_C 	C 	0.7349	0.0372	0.6248	-0.188
Mof_C 	C 	0.875	0.9756	0.6716	0.078
Mof_C 	C 	0.5627	0.1902	0.4768	-0.104
Mof_C 	C 	0.5359	0.2886	0.3838	-0.089
Mof_C 	C 	0.3768	0.3563	0.3398	0.144
Mof_C 	C 	0.2426	0.3266	0.3916	-0.179
Mof_C 	C 	0.093	0.3934	0.3448	0.097
Mof_C 	C 	0.2157	0.5064	0.1962	0.133
Mof_C 	C 	0.3636	0.4506	0.2358	-0.201
Mof_C 	C 	0.3017	0.5421	0.8788	0.315
Mof_C 	C 	0.2437	0.4322	0.9246	-0.147
Mof_C 	C 	0.2198	0.3926	0.851	0.088
Mof_C 	C 	0.1657	0.2884	0.8886	-0.178
Mof_C 	C 	0.1352	0.2238	0.9954	0.153
Mof_C 	C 	0.164	0.2631	0.0662	-0.185
Mof_C 	C 	0.2222	0.3678	0.0288	0.101
Mof_C 	C 	0.078	0.1164	0.0342	-0.111
Mof_C 	C 	0.0588	0.0597	0.9776	-0.065
Mof_C 	C 	0.0047	0.9501	0.0206	0.135
Mof_C 	C 	0.0164	0.8931	0.958	-0.137
Mof_C 	C 	0.966	0.7841	0.9994	0.049
Mof_C 	C 	0.9008	0.7906	0.1606	0.099
Mof_C 	C 	0.9449	0.894	0.1236	-0.211
Mof_C 	C 	0.665	0.5837	0.3368	0.379
Mof_C 	C 	0.5168	0.6079	0.3852	-0.189
Mof_C 	C 	0.5024	0.5894	0.4908	0.123
Mof_C 	C 	0.3564	0.6069	0.5364	-0.205
Mof_C 	C 	0.2198	0.6451	0.4782	0.15
Mof_C 	C 	0.2349	0.662	0.3752	-0.209
Mof_C 	C 	0.375	0.6472	0.3284	0.131
Mof_C 	C 	0.0627	0.667	0.5232	-0.062
Mof_C 	C 	0.0359	0.6724	0.6162	-0.072
Mof_C 	C 	0.8768	0.6961	0.6602	0.111
Mof_C 	C 	0.7426	0.7182	0.6084	-0.165
Mof_C 	C 	0.593	0.7382	0.6552	0.085
Mof_C 	C 	0.7157	0.7026	0.8038	0.122
Mof_C 	C 	0.8636	0.6864	0.7642	-0.186
Mof_C 	C 	0.8017	0.4209	0.1212	0.314
Mof_C 	C 	0.7437	0.3568	0.0754	-0.158
Mof_C 	C 	0.7198	0.2436	0.149	0.085
Mof_C 	C 	0.6657	0.177	0.1114	-0.182
Mof_C 	C 	0.6352	0.2192	0.0046	0.145
Mof_C 	C 	0.664	0.3293	0.9338	-0.187
Mof_C 	C 	0.7222	0.3966	0.9712	0.101
Mof_C 	C 	0.578	0.1506	0.9658	-0.121
Mof_C 	C 	0.5588	0.0373	0.0224	-0.04
Mof_C 	C 	0.5047	0.9707	0.9794	0.082
Mof_C 	C 	0.5164	0.8511	0.042	-0.153
Mof_C 	C 	0.466	0.7835	0.0006	0.075
Mof_C 	C 	0.4008	0.9512	0.8394	0.058
Mof_C 	C 	0.4449	0.0176	0.8764	-0.128
Mof_N 	N 	0.0814	0.4864	0.2452	-0.276
Mof_N 	N 	0.9154	0.7288	0.1022	-0.27
Mof_N 	N 	0.5814	0.7316	0.7548	-0.28
Mof_N 	N 	0.4154	0.831	0.8978	-0.261
Mof_O 	O 	0.1631	0.843	0.7602	-0.456
Mof_O 	O 	0.2886	0.9422	0.612	-0.324
Mof_O 	O 	0.3165	0.59	0.9428	-0.412
Mof_O 	O 	0.3307	0.5992	0.783	-0.387
Mof_O 	O 	0.6631	0.6032	0.2398	-0.467
Mof_O 	O 	0.7886	0.5542	0.388	-0.33
Mof_O 	O 	0.8165	0.5328	0.0572	-0.421
Mof_O 	O 	0.8307	0.3822	0.217	-0.396
_end
