data_functionalizedCrystal
_audit_creation_method	'EQeq! by Chris Wilmer'
_symmetry_space_group_name_H-M	'P1'
_symmetry_Int_Tables_number	1
_symmetry_cell_setting	triclinic
loop_
_symmetry_equiv_pos_as_xyz
  x,y,z
_cell_length_a	9.4204
_cell_length_b	9.4204
_cell_length_c	16.449
_cell_angle_alpha	88.5121
_cell_angle_beta	88.5121
_cell_angle_gamma	83.7222
loop_
_atom_site_label
_atom_site_type_symbol
_atom_site_fract_x
_atom_site_fract_y
_atom_site_fract_z
_atom_site_charge
Mof_Cu	Cu	0.49409	0.13507	0.00207	0.744
Mof_Cu	Cu	0.86493	0.50591	0.49793	0.8
Mof_Cu	Cu	0.50591	0.86493	0.99793	0.811
Mof_Cu	Cu	0.13507	0.49409	0.50207	0.755
Mof_Cu	Cu	-0	0	-0	0.63
Mof_Cu	Cu	-1.22498e-18	4.89991e-18	0.5	0.641
Mof_Cu	Cu	0.6346	0.3654	0.25	0.74
Mof_Cu	Cu	0.3654	0.6346	0.75	0.743
Mof_Cu	Cu	0.5984	0.4016	0.75	0.718
Mof_Cu	Cu	0.4016	0.5984	0.25	0.714
Mof_C 	C 	0.6818	0.962	0.9886	-0.308
Mof_C 	C 	0.5705	0.2845	0.1607	-0.412
Mof_C 	C 	0.5134	0.2412	0.9017	-0.306
Mof_C 	C 	0.038	0.3182	0.5114	-0.45
Mof_C 	C 	0.7155	0.4295	0.3393	-0.385
Mof_C 	C 	0.7588	0.4866	0.5983	-0.27
Mof_C 	C 	0.3182	0.038	0.0114	-0.466
Mof_C 	C 	0.4295	0.7155	0.8393	-0.378
Mof_C 	C 	0.4866	0.7588	0.0983	-0.288
Mof_C 	C 	0.962	0.6818	0.4886	-0.322
Mof_C 	C 	0.2845	0.5705	0.6607	-0.405
Mof_C 	C 	0.2412	0.5134	0.4017	-0.327
Mof_N 	N 	0.8014	0.9758	0.9865	-0.192
Mof_N 	N 	0.5416	0.2298	0.1011	-0.239
Mof_N 	N 	0.5339	0.3055	0.8427	-0.284
Mof_N 	N 	0.0242	0.1986	0.5135	-0.283
Mof_N 	N 	0.7702	0.4584	0.3989	-0.212
Mof_N 	N 	0.6945	0.4661	0.6573	-0.279
Mof_N 	N 	0.1986	0.0242	0.0135	-0.287
Mof_N 	N 	0.4584	0.7702	0.8989	-0.207
Mof_N 	N 	0.4661	0.6945	0.1573	-0.279
Mof_N 	N 	0.9758	0.8014	0.4865	-0.199
Mof_N 	N 	0.2298	0.5416	0.6011	-0.234
Mof_N 	N 	0.3055	0.5339	0.3427	-0.284
_end
