data_functionalizedCrystal
_audit_creation_method	'EQeq! by Chris Wilmer'
_symmetry_space_group_name_H-M	'P1'
_symmetry_Int_Tables_number	1
_symmetry_cell_setting	triclinic
loop_
_symmetry_equiv_pos_as_xyz
  x,y,z
_cell_length_a	27.774
_cell_length_b	13.8933
_cell_length_c	44.585
_cell_angle_alpha	90
_cell_angle_beta	90
_cell_angle_gamma	90
loop_
_atom_site_label
_atom_site_type_symbol
_atom_site_fract_x
_atom_site_fract_y
_atom_site_fract_z
_atom_site_charge
Mof_Zn	Zn	0.25844	0.32326	0.18005	1.166
Mof_Zn	Zn	0.52501	0.62037	0.41474	1.164
Mof_Zn	Zn	0.04854	0.64696	0.4134	1.164
Mof_I 	I 	0.16846	0.32309	0.1677	-0.37
Mof_I 	I 	0.30023	0.16057	0.18576	-0.371
Mof_I 	I 	0.57558	0.70797	0.37588	-0.367
Mof_I 	I 	0.50552	0.6958	0.46582	-0.389
Mof_I 	I 	0.98311	0.56306	0.38314	-0.361
Mof_I 	I 	0.05705	0.82852	0.42067	-0.382
Mof_C 	C 	0.2318	0.4377	0.23299	0.066
Mof_H 	H 	0.2014	0.4386	0.2232	-0.001
Mof_C 	C 	0.2356	0.4752	0.26143	-0.113
Mof_H 	H 	0.2079	0.4998	0.2713	0.081
Mof_C 	C 	0.2802	0.4768	0.27561	0.051
Mof_C 	C 	0.3196	0.4433	0.26	-0.118
Mof_H 	H 	0.3509	0.4465	0.2685	0.08
Mof_C 	C 	0.3126	0.4047	0.2317	0.069
Mof_H 	H 	0.3396	0.3804	0.2211	-0.011
Mof_C 	C 	0.4595	0.5649	0.36444	0.066
Mof_H 	H 	0.4891	0.5593	0.3539	-0.008
Mof_C 	C 	0.4176	0.5492	0.3493	-0.111
Mof_H 	H 	0.4186	0.5312	0.3288	0.078
Mof_C 	C 	0.3732	0.5594	0.36376	0.049
Mof_C 	C 	0.3752	0.5817	0.394	-0.109
Mof_H 	H 	0.3462	0.5873	0.4052	0.078
Mof_C 	C 	0.4188	0.596	0.40824	0.07
Mof_H 	H 	0.4189	0.612	0.429	-0.008
Mof_C 	C 	0.1553	0.615	0.40908	0.076
Mof_H 	H 	0.155	0.6375	0.4292	-0.017
Mof_C 	C 	0.1987	0.5964	0.39592	-0.123
Mof_H 	H 	0.2277	0.603	0.4071	0.08
Mof_C 	C 	0.2002	0.5678	0.36629	0.052
Mof_C 	C 	0.1563	0.5551	0.35135	-0.115
Mof_H 	H 	0.1555	0.5344	0.331	0.079
Mof_C 	C 	0.1145	0.573	0.3666	0.062
Mof_H 	H 	0.0848	0.5635	0.3564	-0.011
Mof_C 	C 	0.2843	0.5096	0.30744	0.105
Mof_C 	C 	0.3276	0.5471	0.34845	0.101
Mof_C 	C 	0.2457	0.5513	0.35017	0.1
Mof_C 	C 	0.0441	0.49	0.4587	0.066
Mof_H 	H 	0.0295	0.4557	0.4427	-0.013
Mof_C 	C 	0.0558	0.4419	0.4851	-0.125
Mof_H 	H 	0.0493	0.3751	0.487	0.093
Mof_C 	C 	0.0766	0.4903	0.50806	0.06
Mof_C 	C 	0.0839	0.5892	0.5054	-0.122
Mof_H 	H 	0.097	0.6255	0.5215	0.081
Mof_C 	C 	0.0717	0.6321	0.479	0.073
Mof_H 	H 	0.0766	0.6996	0.4772	-0.005
Mof_C 	C 	0.1889	0.6389	0.624	0.084
Mof_H 	H 	0.1927	0.7066	0.6222	-0.017
Mof_C 	C 	0.1667	0.5909	0.6009	-0.128
Mof_H 	H 	0.1572	0.6239	0.5832	0.084
Mof_C 	C 	0.1585	0.4933	0.60404	0.075
Mof_C 	C 	0.1729	0.4497	0.6295	-0.138
Mof_H 	H 	0.1672	0.383	0.6326	0.091
Mof_C 	C 	0.1964	0.5043	0.65119	0.09
Mof_H 	H 	0.2065	0.4727	0.669	-0.017
Mof_C 	C 	0.0736	0.0649	0.5998	0.07
Mof_H 	H 	0.0761	0.0364	0.6191	-0.006
Mof_C 	C 	0.0892	0.1587	0.5958	-0.128
Mof_H 	H 	0.1025	0.1939	0.6121	0.096
Mof_C 	C 	0.0851	0.2003	0.5679	0.054
Mof_C 	C 	0.0653	0.1476	0.5444	-0.127
Mof_H 	H 	0.0618	0.1753	0.525	0.092
Mof_C 	C 	0.0512	0.0552	0.5498	0.073
Mof_H 	H 	0.038	0.0188	0.5338	-0.005
Mof_C 	C 	0.0928	0.4399	0.5356	0.091
Mof_C 	C 	0.1324	0.439	0.57956	0.103
Mof_C 	C 	0.0988	0.3033	0.5631	0.087
Mof_N 	N 	0.2693	0.4005	0.2188	-0.274
Mof_N 	N 	0.4607	0.588	0.39394	-0.269
Mof_N 	N 	0.1133	0.6032	0.39507	-0.275
Mof_N 	N 	0.3276	0.5209	0.3194	-0.139
Mof_N 	N 	0.2875	0.5642	0.36446	-0.138
Mof_N 	N 	0.2424	0.5235	0.32123	-0.14
Mof_N 	N 	0.0533	0.585	0.45551	-0.272
Mof_N 	N 	0.2056	0.5971	0.64862	-0.283
Mof_N 	N 	0.055	0.0131	0.5771	-0.271
Mof_N 	N 	0.1182	0.4908	0.55616	-0.138
Mof_N 	N 	0.1244	0.3464	0.58441	-0.135
Mof_N 	N 	0.0816	0.3467	0.53802	-0.141
Mof_Zn	Zn	0.24156	0.67674	0.68005	1.165
Mof_Zn	Zn	0.97499	0.37963	0.91474	1.163
Mof_Zn	Zn	0.45146	0.35304	0.9134	1.163
Mof_I 	I 	0.33154	0.67691	0.6677	-0.371
Mof_I 	I 	0.19977	0.83943	0.68576	-0.373
Mof_I 	I 	0.92442	0.29203	0.87588	-0.368
Mof_I 	I 	0.99448	0.3042	0.96582	-0.39
Mof_I 	I 	0.51689	0.43694	0.88314	-0.362
Mof_I 	I 	0.44295	0.17148	0.92067	-0.382
Mof_C 	C 	0.2682	0.5623	0.73299	0.065
Mof_H 	H 	0.2986	0.5614	0.7232	-0.002
Mof_C 	C 	0.2644	0.5248	0.76143	-0.114
Mof_H 	H 	0.2921	0.5002	0.7713	0.081
Mof_C 	C 	0.2198	0.5232	0.77561	0.051
Mof_C 	C 	0.1804	0.5567	0.76	-0.118
Mof_H 	H 	0.1491	0.5535	0.7685	0.08
Mof_C 	C 	0.1874	0.5953	0.7317	0.069
Mof_H 	H 	0.1604	0.6196	0.7211	-0.011
Mof_C 	C 	0.0405	0.4351	0.86444	0.066
Mof_H 	H 	0.0109	0.4407	0.8539	-0.008
Mof_C 	C 	0.0824	0.4508	0.8493	-0.111
Mof_H 	H 	0.0814	0.4688	0.8288	0.078
Mof_C 	C 	0.1268	0.4406	0.86376	0.049
Mof_C 	C 	0.1248	0.4183	0.894	-0.109
Mof_H 	H 	0.1538	0.4127	0.9052	0.078
Mof_C 	C 	0.0812	0.404	0.90824	0.07
Mof_H 	H 	0.0811	0.388	0.929	-0.008
Mof_C 	C 	0.3447	0.385	0.90908	0.077
Mof_H 	H 	0.345	0.3625	0.9292	-0.017
Mof_C 	C 	0.3013	0.4036	0.89592	-0.123
Mof_H 	H 	0.2723	0.397	0.9071	0.08
Mof_C 	C 	0.2998	0.4322	0.86629	0.052
Mof_C 	C 	0.3437	0.4449	0.85135	-0.115
Mof_H 	H 	0.3445	0.4656	0.831	0.079
Mof_C 	C 	0.3855	0.427	0.8666	0.062
Mof_H 	H 	0.4152	0.4365	0.8564	-0.011
Mof_C 	C 	0.2157	0.4904	0.80744	0.105
Mof_C 	C 	0.1724	0.4529	0.84845	0.101
Mof_C 	C 	0.2543	0.4487	0.85017	0.1
Mof_C 	C 	0.4559	0.51	0.9587	0.066
Mof_H 	H 	0.4705	0.5443	0.9427	-0.013
Mof_C 	C 	0.4442	0.5581	0.9851	-0.125
Mof_H 	H 	0.4507	0.6249	0.987	0.093
Mof_C 	C 	0.4234	0.5097	0.00806	0.06
Mof_C 	C 	0.4161	0.4108	0.0054	-0.122
Mof_H 	H 	0.403	0.3745	0.0215	0.081
Mof_C 	C 	0.4283	0.3679	0.979	0.073
Mof_H 	H 	0.4234	0.3004	0.9772	-0.005
Mof_C 	C 	0.3111	0.3611	0.124	0.084
Mof_H 	H 	0.3073	0.2934	0.1222	-0.017
Mof_C 	C 	0.3333	0.4091	0.1009	-0.128
Mof_H 	H 	0.3428	0.3761	0.0832	0.084
Mof_C 	C 	0.3415	0.5067	0.10404	0.075
Mof_C 	C 	0.3271	0.5503	0.1295	-0.138
Mof_H 	H 	0.3328	0.617	0.1326	0.091
Mof_C 	C 	0.3036	0.4957	0.15119	0.09
Mof_H 	H 	0.2935	0.5273	0.169	-0.017
Mof_C 	C 	0.4264	0.9351	0.0998	0.07
Mof_H 	H 	0.4239	0.9636	0.1191	-0.006
Mof_C 	C 	0.4108	0.8413	0.0958	-0.128
Mof_H 	H 	0.3975	0.8061	0.1121	0.096
Mof_C 	C 	0.4149	0.7997	0.0679	0.054
Mof_C 	C 	0.4347	0.8524	0.0444	-0.127
Mof_H 	H 	0.4382	0.8247	0.025	0.092
Mof_C 	C 	0.4488	0.9448	0.0498	0.073
Mof_H 	H 	0.462	0.9812	0.0338	-0.005
Mof_C 	C 	0.4072	0.5601	0.0356	0.091
Mof_C 	C 	0.3676	0.561	0.07956	0.103
Mof_C 	C 	0.4012	0.6967	0.0631	0.087
Mof_N 	N 	0.2307	0.5995	0.7188	-0.274
Mof_N 	N 	0.0393	0.412	0.89394	-0.269
Mof_N 	N 	0.3867	0.3968	0.89507	-0.275
Mof_N 	N 	0.1724	0.4791	0.8194	-0.139
Mof_N 	N 	0.2125	0.4358	0.86446	-0.138
Mof_N 	N 	0.2576	0.4765	0.82123	-0.14
Mof_N 	N 	0.4467	0.415	0.95551	-0.272
Mof_N 	N 	0.2944	0.4029	0.14862	-0.283
Mof_N 	N 	0.445	0.9869	0.0771	-0.271
Mof_N 	N 	0.3818	0.5092	0.05616	-0.138
Mof_N 	N 	0.3756	0.6536	0.08441	-0.135
Mof_N 	N 	0.4184	0.6533	0.03802	-0.141
Mof_Zn	Zn	0.74156	0.82326	0.31995	1.165
Mof_Zn	Zn	0.47499	0.12037	0.08526	1.163
Mof_Zn	Zn	0.95146	0.14696	0.0866	1.163
Mof_I 	I 	0.83154	0.82309	0.3323	-0.371
Mof_I 	I 	0.69977	0.66057	0.31424	-0.372
Mof_I 	I 	0.42442	0.20797	0.12412	-0.368
Mof_I 	I 	0.49448	0.1958	0.03418	-0.39
Mof_I 	I 	0.01689	0.06306	0.11686	-0.361
Mof_I 	I 	0.94295	0.32852	0.07933	-0.382
Mof_C 	C 	0.7682	0.9377	0.26701	0.065
Mof_H 	H 	0.7986	0.9386	0.2768	-0.002
Mof_C 	C 	0.7644	0.9752	0.23857	-0.114
Mof_H 	H 	0.7921	0.9998	0.2287	0.081
Mof_C 	C 	0.7198	0.9768	0.22439	0.051
Mof_C 	C 	0.6804	0.9433	0.24	-0.118
Mof_H 	H 	0.6491	0.9465	0.2315	0.08
Mof_C 	C 	0.6874	0.9047	0.2683	0.069
Mof_H 	H 	0.6604	0.8804	0.2789	-0.011
Mof_C 	C 	0.5405	0.0649	0.13556	0.065
Mof_H 	H 	0.5109	0.0593	0.1461	-0.008
Mof_C 	C 	0.5824	0.0492	0.1507	-0.111
Mof_H 	H 	0.5814	0.0312	0.1712	0.078
Mof_C 	C 	0.6268	0.0594	0.13624	0.049
Mof_C 	C 	0.6248	0.0817	0.106	-0.109
Mof_H 	H 	0.6538	0.0873	0.0948	0.078
Mof_C 	C 	0.5812	0.096	0.09176	0.07
Mof_H 	H 	0.5811	0.112	0.071	-0.008
Mof_C 	C 	0.8447	0.115	0.09092	0.076
Mof_H 	H 	0.845	0.1375	0.0708	-0.017
Mof_C 	C 	0.8013	0.0964	0.10408	-0.123
Mof_H 	H 	0.7723	0.103	0.0929	0.08
Mof_C 	C 	0.7998	0.0678	0.13371	0.052
Mof_C 	C 	0.8437	0.0551	0.14865	-0.115
Mof_H 	H 	0.8445	0.0344	0.169	0.079
Mof_C 	C 	0.8855	0.073	0.1334	0.062
Mof_H 	H 	0.9152	0.0635	0.1436	-0.011
Mof_C 	C 	0.7157	0.0096	0.19256	0.104
Mof_C 	C 	0.6724	0.0471	0.15155	0.101
Mof_C 	C 	0.7543	0.0513	0.14983	0.1
Mof_C 	C 	0.9559	0.99	0.0413	0.067
Mof_H 	H 	0.9705	0.9557	0.0573	-0.013
Mof_C 	C 	0.9442	0.9419	0.0149	-0.126
Mof_H 	H 	0.9507	0.8751	0.013	0.093
Mof_C 	C 	0.9234	0.9903	0.99194	0.061
Mof_C 	C 	0.9161	0.0892	0.9946	-0.124
Mof_H 	H 	0.903	0.1255	0.9785	0.081
Mof_C 	C 	0.9283	0.1321	0.021	0.073
Mof_H 	H 	0.9234	0.1996	0.0228	-0.005
Mof_C 	C 	0.8111	0.1389	0.876	0.084
Mof_H 	H 	0.8073	0.2066	0.8778	-0.017
Mof_C 	C 	0.8333	0.0909	0.8991	-0.129
Mof_H 	H 	0.8428	0.1239	0.9168	0.084
Mof_C 	C 	0.8415	0.9933	0.89596	0.076
Mof_C 	C 	0.8271	0.9497	0.8705	-0.137
Mof_H 	H 	0.8328	0.883	0.8674	0.091
Mof_C 	C 	0.8036	0.0043	0.84881	0.089
Mof_H 	H 	0.7935	0.9727	0.831	-0.016
Mof_C 	C 	0.9264	0.5649	0.9002	0.07
Mof_H 	H 	0.9239	0.5364	0.8809	-0.006
Mof_C 	C 	0.9108	0.6587	0.9042	-0.128
Mof_H 	H 	0.8975	0.6939	0.8879	0.096
Mof_C 	C 	0.9149	0.7003	0.9321	0.054
Mof_C 	C 	0.9347	0.6476	0.9556	-0.127
Mof_H 	H 	0.9382	0.6753	0.975	0.092
Mof_C 	C 	0.9488	0.5552	0.9502	0.073
Mof_H 	H 	0.962	0.5188	0.9662	-0.005
Mof_C 	C 	0.9072	0.9399	0.9644	0.091
Mof_C 	C 	0.8676	0.939	0.92044	0.103
Mof_C 	C 	0.9012	0.8033	0.9369	0.087
Mof_N 	N 	0.7307	0.9005	0.2812	-0.274
Mof_N 	N 	0.5393	0.088	0.10606	-0.269
Mof_N 	N 	0.8867	0.1032	0.10493	-0.275
Mof_N 	N 	0.6724	0.0209	0.1806	-0.139
Mof_N 	N 	0.7125	0.0642	0.13554	-0.138
Mof_N 	N 	0.7576	0.0235	0.17877	-0.14
Mof_N 	N 	0.9467	0.085	0.04449	-0.272
Mof_N 	N 	0.7944	0.0971	0.85138	-0.282
Mof_N 	N 	0.945	0.5131	0.9229	-0.271
Mof_N 	N 	0.8818	0.9908	0.94384	-0.137
Mof_N 	N 	0.8756	0.8464	0.91559	-0.135
Mof_N 	N 	0.9184	0.8467	0.96198	-0.141
Mof_Zn	Zn	0.75844	0.17674	0.81995	1.165
Mof_Zn	Zn	0.02501	0.87963	0.58526	1.163
Mof_Zn	Zn	0.54854	0.85304	0.5866	1.163
Mof_I 	I 	0.66846	0.17691	0.8323	-0.371
Mof_I 	I 	0.80023	0.33943	0.81424	-0.372
Mof_I 	I 	0.07558	0.79203	0.62412	-0.368
Mof_I 	I 	0.00552	0.8042	0.53418	-0.39
Mof_I 	I 	0.48311	0.93694	0.61686	-0.362
Mof_I 	I 	0.55705	0.67148	0.57933	-0.382
Mof_C 	C 	0.7318	0.0623	0.76701	0.065
Mof_H 	H 	0.7014	0.0614	0.7768	-0.002
Mof_C 	C 	0.7356	0.0248	0.73857	-0.113
Mof_H 	H 	0.7079	0.0002	0.7287	0.081
Mof_C 	C 	0.7802	0.0232	0.72439	0.05
Mof_C 	C 	0.8196	0.0567	0.74	-0.118
Mof_H 	H 	0.8509	0.0535	0.7315	0.08
Mof_C 	C 	0.8126	0.0953	0.7683	0.068
Mof_H 	H 	0.8396	0.1196	0.7789	-0.011
Mof_C 	C 	0.9595	0.9351	0.63556	0.066
Mof_H 	H 	0.9891	0.9407	0.6461	-0.008
Mof_C 	C 	0.9176	0.9508	0.6507	-0.111
Mof_H 	H 	0.9186	0.9688	0.6712	0.079
Mof_C 	C 	0.8732	0.9406	0.63624	0.049
Mof_C 	C 	0.8752	0.9183	0.606	-0.109
Mof_H 	H 	0.8462	0.9127	0.5948	0.078
Mof_C 	C 	0.9188	0.904	0.59176	0.07
Mof_H 	H 	0.9189	0.888	0.571	-0.008
Mof_C 	C 	0.6553	0.885	0.59092	0.077
Mof_H 	H 	0.655	0.8625	0.5708	-0.017
Mof_C 	C 	0.6987	0.9036	0.60408	-0.123
Mof_H 	H 	0.7277	0.897	0.5929	0.08
Mof_C 	C 	0.7002	0.9322	0.63371	0.052
Mof_C 	C 	0.6563	0.9449	0.64865	-0.115
Mof_H 	H 	0.6555	0.9656	0.669	0.079
Mof_C 	C 	0.6145	0.927	0.6334	0.062
Mof_H 	H 	0.5848	0.9365	0.6436	-0.011
Mof_C 	C 	0.7843	0.9904	0.69256	0.105
Mof_C 	C 	0.8276	0.9529	0.65155	0.101
Mof_C 	C 	0.7457	0.9487	0.64983	0.1
Mof_C 	C 	0.5441	0.01	0.5413	0.066
Mof_H 	H 	0.5295	0.0443	0.5573	-0.013
Mof_C 	C 	0.5558	0.0581	0.5149	-0.125
Mof_H 	H 	0.5493	0.1249	0.513	0.093
Mof_C 	C 	0.5766	0.0097	0.49194	0.06
Mof_C 	C 	0.5839	0.9108	0.4946	-0.122
Mof_H 	H 	0.597	0.8745	0.4785	0.081
Mof_C 	C 	0.5717	0.8679	0.521	0.073
Mof_H 	H 	0.5766	0.8004	0.5228	-0.005
Mof_C 	C 	0.6889	0.8611	0.376	0.084
Mof_H 	H 	0.6927	0.7934	0.3778	-0.017
Mof_C 	C 	0.6667	0.9091	0.3991	-0.128
Mof_H 	H 	0.6572	0.8761	0.4168	0.084
Mof_C 	C 	0.6585	0.0067	0.39596	0.075
Mof_C 	C 	0.6729	0.0503	0.3705	-0.139
Mof_H 	H 	0.6672	0.117	0.3674	0.091
Mof_C 	C 	0.6964	0.9957	0.34881	0.091
Mof_H 	H 	0.7065	0.0273	0.331	-0.018
Mof_C 	C 	0.5736	0.4351	0.4002	0.07
Mof_H 	H 	0.5761	0.4636	0.3809	-0.006
Mof_C 	C 	0.5892	0.3413	0.4042	-0.128
Mof_H 	H 	0.6025	0.3061	0.3879	0.096
Mof_C 	C 	0.5851	0.2997	0.4321	0.054
Mof_C 	C 	0.5653	0.3524	0.4556	-0.127
Mof_H 	H 	0.5618	0.3247	0.475	0.092
Mof_C 	C 	0.5512	0.4448	0.4502	0.073
Mof_H 	H 	0.538	0.4812	0.4662	-0.005
Mof_C 	C 	0.5928	0.0601	0.4644	0.091
Mof_C 	C 	0.6324	0.061	0.42044	0.103
Mof_C 	C 	0.5988	0.1967	0.4369	0.087
Mof_N 	N 	0.7693	0.0995	0.7812	-0.274
Mof_N 	N 	0.9607	0.912	0.60606	-0.268
Mof_N 	N 	0.6133	0.8968	0.60493	-0.275
Mof_N 	N 	0.8276	0.9791	0.6806	-0.139
Mof_N 	N 	0.7875	0.9358	0.63554	-0.138
Mof_N 	N 	0.7424	0.9765	0.67877	-0.14
Mof_N 	N 	0.5533	0.915	0.54449	-0.271
Mof_N 	N 	0.7056	0.9029	0.35138	-0.283
Mof_N 	N 	0.555	0.4869	0.4229	-0.271
Mof_N 	N 	0.6182	0.0092	0.44384	-0.138
Mof_N 	N 	0.6244	0.1536	0.41559	-0.135
Mof_N 	N 	0.5816	0.1533	0.46198	-0.141
Mof_Zn	Zn	0.74156	0.67674	0.81995	1.165
Mof_Zn	Zn	0.47499	0.37963	0.58526	1.163
Mof_Zn	Zn	0.95146	0.35304	0.5866	1.163
Mof_I 	I 	0.83154	0.67691	0.8323	-0.371
Mof_I 	I 	0.69977	0.83943	0.81424	-0.372
Mof_I 	I 	0.42442	0.29203	0.62412	-0.368
Mof_I 	I 	0.49448	0.3042	0.53418	-0.39
Mof_I 	I 	0.01689	0.43694	0.61686	-0.362
Mof_I 	I 	0.94295	0.17148	0.57933	-0.383
Mof_C 	C 	0.7682	0.5623	0.76701	0.065
Mof_H 	H 	0.7986	0.5614	0.7768	-0.002
Mof_C 	C 	0.7644	0.5248	0.73857	-0.114
Mof_H 	H 	0.7921	0.5002	0.7287	0.081
Mof_C 	C 	0.7198	0.5232	0.72439	0.051
Mof_C 	C 	0.6804	0.5567	0.74	-0.118
Mof_H 	H 	0.6491	0.5535	0.7315	0.08
Mof_C 	C 	0.6874	0.5953	0.7683	0.069
Mof_H 	H 	0.6604	0.6196	0.7789	-0.011
Mof_C 	C 	0.5405	0.4351	0.63556	0.066
Mof_H 	H 	0.5109	0.4407	0.6461	-0.008
Mof_C 	C 	0.5824	0.4508	0.6507	-0.111
Mof_H 	H 	0.5814	0.4688	0.6712	0.078
Mof_C 	C 	0.6268	0.4406	0.63624	0.049
Mof_C 	C 	0.6248	0.4183	0.606	-0.109
Mof_H 	H 	0.6538	0.4127	0.5948	0.078
Mof_C 	C 	0.5812	0.404	0.59176	0.07
Mof_H 	H 	0.5811	0.388	0.571	-0.008
Mof_C 	C 	0.8447	0.385	0.59092	0.076
Mof_H 	H 	0.845	0.3625	0.5708	-0.017
Mof_C 	C 	0.8013	0.4036	0.60408	-0.123
Mof_H 	H 	0.7723	0.397	0.5929	0.08
Mof_C 	C 	0.7998	0.4322	0.63371	0.052
Mof_C 	C 	0.8437	0.4449	0.64865	-0.115
Mof_H 	H 	0.8445	0.4656	0.669	0.079
Mof_C 	C 	0.8855	0.427	0.6334	0.062
Mof_H 	H 	0.9152	0.4365	0.6436	-0.011
Mof_C 	C 	0.7157	0.4904	0.69256	0.105
Mof_C 	C 	0.6724	0.4529	0.65155	0.101
Mof_C 	C 	0.7543	0.4487	0.64983	0.1
Mof_C 	C 	0.9559	0.51	0.5413	0.066
Mof_H 	H 	0.9705	0.5443	0.5573	-0.013
Mof_C 	C 	0.9442	0.5581	0.5149	-0.125
Mof_H 	H 	0.9507	0.6249	0.513	0.093
Mof_C 	C 	0.9234	0.5097	0.49194	0.06
Mof_C 	C 	0.9161	0.4108	0.4946	-0.122
Mof_H 	H 	0.903	0.3745	0.4785	0.081
Mof_C 	C 	0.9283	0.3679	0.521	0.073
Mof_H 	H 	0.9234	0.3004	0.5228	-0.005
Mof_C 	C 	0.8111	0.3611	0.376	0.084
Mof_H 	H 	0.8073	0.2934	0.3778	-0.017
Mof_C 	C 	0.8333	0.4091	0.3991	-0.128
Mof_H 	H 	0.8428	0.3761	0.4168	0.084
Mof_C 	C 	0.8415	0.5067	0.39596	0.075
Mof_C 	C 	0.8271	0.5503	0.3705	-0.138
Mof_H 	H 	0.8328	0.617	0.3674	0.091
Mof_C 	C 	0.8036	0.4957	0.34881	0.09
Mof_H 	H 	0.7935	0.5273	0.331	-0.017
Mof_C 	C 	0.9264	0.9351	0.4002	0.07
Mof_H 	H 	0.9239	0.9636	0.3809	-0.006
Mof_C 	C 	0.9108	0.8413	0.4042	-0.128
Mof_H 	H 	0.8975	0.8061	0.3879	0.096
Mof_C 	C 	0.9149	0.7997	0.4321	0.054
Mof_C 	C 	0.9347	0.8524	0.4556	-0.127
Mof_H 	H 	0.9382	0.8247	0.475	0.092
Mof_C 	C 	0.9488	0.9448	0.4502	0.073
Mof_H 	H 	0.962	0.9812	0.4662	-0.005
Mof_C 	C 	0.9072	0.5601	0.4644	0.091
Mof_C 	C 	0.8676	0.561	0.42044	0.103
Mof_C 	C 	0.9012	0.6967	0.4369	0.087
Mof_N 	N 	0.7307	0.5995	0.7812	-0.274
Mof_N 	N 	0.5393	0.412	0.60606	-0.269
Mof_N 	N 	0.8867	0.3968	0.60493	-0.275
Mof_N 	N 	0.6724	0.4791	0.6806	-0.139
Mof_N 	N 	0.7125	0.4358	0.63554	-0.138
Mof_N 	N 	0.7576	0.4765	0.67877	-0.14
Mof_N 	N 	0.9467	0.415	0.54449	-0.272
Mof_N 	N 	0.7944	0.4029	0.35138	-0.283
Mof_N 	N 	0.945	0.9869	0.4229	-0.271
Mof_N 	N 	0.8818	0.5092	0.44384	-0.138
Mof_N 	N 	0.8756	0.6536	0.41559	-0.135
Mof_N 	N 	0.9184	0.6533	0.46198	-0.141
Mof_Zn	Zn	0.75844	0.32326	0.31995	1.165
Mof_Zn	Zn	0.02501	0.62037	0.08526	1.163
Mof_Zn	Zn	0.54854	0.64696	0.0866	1.163
Mof_I 	I 	0.66846	0.32309	0.3323	-0.371
Mof_I 	I 	0.80023	0.16057	0.31424	-0.373
Mof_I 	I 	0.07558	0.70797	0.12412	-0.368
Mof_I 	I 	0.00552	0.6958	0.03418	-0.39
Mof_I 	I 	0.48311	0.56306	0.11686	-0.362
Mof_I 	I 	0.55705	0.82852	0.07933	-0.382
Mof_C 	C 	0.7318	0.4377	0.26701	0.065
Mof_H 	H 	0.7014	0.4386	0.2768	-0.002
Mof_C 	C 	0.7356	0.4752	0.23857	-0.114
Mof_H 	H 	0.7079	0.4998	0.2287	0.081
Mof_C 	C 	0.7802	0.4768	0.22439	0.051
Mof_C 	C 	0.8196	0.4433	0.24	-0.118
Mof_H 	H 	0.8509	0.4465	0.2315	0.08
Mof_C 	C 	0.8126	0.4047	0.2683	0.069
Mof_H 	H 	0.8396	0.3804	0.2789	-0.011
Mof_C 	C 	0.9595	0.5649	0.13556	0.066
Mof_H 	H 	0.9891	0.5593	0.1461	-0.008
Mof_C 	C 	0.9176	0.5492	0.1507	-0.111
Mof_H 	H 	0.9186	0.5312	0.1712	0.078
Mof_C 	C 	0.8732	0.5594	0.13624	0.049
Mof_C 	C 	0.8752	0.5817	0.106	-0.109
Mof_H 	H 	0.8462	0.5873	0.0948	0.078
Mof_C 	C 	0.9188	0.596	0.09176	0.07
Mof_H 	H 	0.9189	0.612	0.071	-0.008
Mof_C 	C 	0.6553	0.615	0.09092	0.077
Mof_H 	H 	0.655	0.6375	0.0708	-0.017
Mof_C 	C 	0.6987	0.5964	0.10408	-0.123
Mof_H 	H 	0.7277	0.603	0.0929	0.08
Mof_C 	C 	0.7002	0.5678	0.13371	0.052
Mof_C 	C 	0.6563	0.5551	0.14865	-0.115
Mof_H 	H 	0.6555	0.5344	0.169	0.079
Mof_C 	C 	0.6145	0.573	0.1334	0.062
Mof_H 	H 	0.5848	0.5635	0.1436	-0.011
Mof_C 	C 	0.7843	0.5096	0.19256	0.105
Mof_C 	C 	0.8276	0.5471	0.15155	0.101
Mof_C 	C 	0.7457	0.5513	0.14983	0.1
Mof_C 	C 	0.5441	0.49	0.0413	0.066
Mof_H 	H 	0.5295	0.4557	0.0573	-0.013
Mof_C 	C 	0.5558	0.4419	0.0149	-0.125
Mof_H 	H 	0.5493	0.3751	0.013	0.093
Mof_C 	C 	0.5766	0.4903	0.99194	0.06
Mof_C 	C 	0.5839	0.5892	0.9946	-0.122
Mof_H 	H 	0.597	0.6255	0.9785	0.081
Mof_C 	C 	0.5717	0.6321	0.021	0.073
Mof_H 	H 	0.5766	0.6996	0.0228	-0.005
Mof_C 	C 	0.6889	0.6389	0.876	0.084
Mof_H 	H 	0.6927	0.7066	0.8778	-0.017
Mof_C 	C 	0.6667	0.5909	0.8991	-0.128
Mof_H 	H 	0.6572	0.6239	0.9168	0.084
Mof_C 	C 	0.6585	0.4933	0.89596	0.075
Mof_C 	C 	0.6729	0.4497	0.8705	-0.138
Mof_H 	H 	0.6672	0.383	0.8674	0.091
Mof_C 	C 	0.6964	0.5043	0.84881	0.09
Mof_H 	H 	0.7065	0.4727	0.831	-0.017
Mof_C 	C 	0.5736	0.0649	0.9002	0.07
Mof_H 	H 	0.5761	0.0364	0.8809	-0.006
Mof_C 	C 	0.5892	0.1587	0.9042	-0.128
Mof_H 	H 	0.6025	0.1939	0.8879	0.096
Mof_C 	C 	0.5851	0.2003	0.9321	0.054
Mof_C 	C 	0.5653	0.1476	0.9556	-0.127
Mof_H 	H 	0.5618	0.1753	0.975	0.092
Mof_C 	C 	0.5512	0.0552	0.9502	0.073
Mof_H 	H 	0.538	0.0188	0.9662	-0.005
Mof_C 	C 	0.5928	0.4399	0.9644	0.091
Mof_C 	C 	0.6324	0.439	0.92044	0.103
Mof_C 	C 	0.5988	0.3033	0.9369	0.087
Mof_N 	N 	0.7693	0.4005	0.2812	-0.274
Mof_N 	N 	0.9607	0.588	0.10606	-0.269
Mof_N 	N 	0.6133	0.6032	0.10493	-0.275
Mof_N 	N 	0.8276	0.5209	0.1806	-0.139
Mof_N 	N 	0.7875	0.5642	0.13554	-0.138
Mof_N 	N 	0.7424	0.5235	0.17877	-0.14
Mof_N 	N 	0.5533	0.585	0.04449	-0.272
Mof_N 	N 	0.7056	0.5971	0.85138	-0.283
Mof_N 	N 	0.555	0.0131	0.9229	-0.271
Mof_N 	N 	0.6182	0.4908	0.94384	-0.138
Mof_N 	N 	0.6244	0.3464	0.91559	-0.135
Mof_N 	N 	0.5816	0.3467	0.96198	-0.141
Mof_Zn	Zn	0.25844	0.17674	0.68005	1.165
Mof_Zn	Zn	0.52501	0.87963	0.91474	1.163
Mof_Zn	Zn	0.04854	0.85304	0.9134	1.163
Mof_I 	I 	0.16846	0.17691	0.6677	-0.371
Mof_I 	I 	0.30023	0.33943	0.68576	-0.372
Mof_I 	I 	0.57558	0.79203	0.87588	-0.368
Mof_I 	I 	0.50552	0.8042	0.96582	-0.39
Mof_I 	I 	0.98311	0.93694	0.88314	-0.361
Mof_I 	I 	0.05705	0.67148	0.92067	-0.382
Mof_C 	C 	0.2318	0.0623	0.73299	0.065
Mof_H 	H 	0.2014	0.0614	0.7232	-0.002
Mof_C 	C 	0.2356	0.0248	0.76143	-0.114
Mof_H 	H 	0.2079	0.0002	0.7713	0.081
Mof_C 	C 	0.2802	0.0232	0.77561	0.051
Mof_C 	C 	0.3196	0.0567	0.76	-0.118
Mof_H 	H 	0.3509	0.0535	0.7685	0.08
Mof_C 	C 	0.3126	0.0953	0.7317	0.069
Mof_H 	H 	0.3396	0.1196	0.7211	-0.011
Mof_C 	C 	0.4595	0.9351	0.86444	0.065
Mof_H 	H 	0.4891	0.9407	0.8539	-0.008
Mof_C 	C 	0.4176	0.9508	0.8493	-0.111
Mof_H 	H 	0.4186	0.9688	0.8288	0.078
Mof_C 	C 	0.3732	0.9406	0.86376	0.049
Mof_C 	C 	0.3752	0.9183	0.894	-0.109
Mof_H 	H 	0.3462	0.9127	0.9052	0.078
Mof_C 	C 	0.4188	0.904	0.90824	0.07
Mof_H 	H 	0.4189	0.888	0.929	-0.008
Mof_C 	C 	0.1553	0.885	0.90908	0.076
Mof_H 	H 	0.155	0.8625	0.9292	-0.017
Mof_C 	C 	0.1987	0.9036	0.89592	-0.123
Mof_H 	H 	0.2277	0.897	0.9071	0.08
Mof_C 	C 	0.2002	0.9322	0.86629	0.052
Mof_C 	C 	0.1563	0.9449	0.85135	-0.115
Mof_H 	H 	0.1555	0.9656	0.831	0.079
Mof_C 	C 	0.1145	0.927	0.8666	0.062
Mof_H 	H 	0.0848	0.9365	0.8564	-0.011
Mof_C 	C 	0.2843	0.9904	0.80744	0.104
Mof_C 	C 	0.3276	0.9529	0.84845	0.101
Mof_C 	C 	0.2457	0.9487	0.85017	0.1
Mof_C 	C 	0.0441	0.01	0.9587	0.067
Mof_H 	H 	0.0295	0.0443	0.9427	-0.013
Mof_C 	C 	0.0558	0.0581	0.9851	-0.126
Mof_H 	H 	0.0493	0.1249	0.987	0.093
Mof_C 	C 	0.0766	0.0097	0.00806	0.061
Mof_C 	C 	0.0839	0.9108	0.0054	-0.124
Mof_H 	H 	0.097	0.8745	0.0215	0.081
Mof_C 	C 	0.0717	0.8679	0.979	0.073
Mof_H 	H 	0.0766	0.8004	0.9772	-0.005
Mof_C 	C 	0.1889	0.8611	0.124	0.084
Mof_H 	H 	0.1927	0.7934	0.1222	-0.017
Mof_C 	C 	0.1667	0.9091	0.1009	-0.129
Mof_H 	H 	0.1572	0.8761	0.0832	0.084
Mof_C 	C 	0.1585	0.0067	0.10404	0.076
Mof_C 	C 	0.1729	0.0503	0.1295	-0.137
Mof_H 	H 	0.1672	0.117	0.1326	0.091
Mof_C 	C 	0.1964	0.9957	0.15119	0.089
Mof_H 	H 	0.2065	0.0273	0.169	-0.016
Mof_C 	C 	0.0736	0.4351	0.0998	0.07
Mof_H 	H 	0.0761	0.4636	0.1191	-0.006
Mof_C 	C 	0.0892	0.3413	0.0958	-0.128
Mof_H 	H 	0.1025	0.3061	0.1121	0.096
Mof_C 	C 	0.0851	0.2997	0.0679	0.054
Mof_C 	C 	0.0653	0.3524	0.0444	-0.127
Mof_H 	H 	0.0618	0.3247	0.025	0.092
Mof_C 	C 	0.0512	0.4448	0.0498	0.073
Mof_H 	H 	0.038	0.4812	0.0338	-0.005
Mof_C 	C 	0.0928	0.0601	0.0356	0.091
Mof_C 	C 	0.1324	0.061	0.07956	0.103
Mof_C 	C 	0.0988	0.1967	0.0631	0.087
Mof_N 	N 	0.2693	0.0995	0.7188	-0.274
Mof_N 	N 	0.4607	0.912	0.89394	-0.269
Mof_N 	N 	0.1133	0.8968	0.89507	-0.275
Mof_N 	N 	0.3276	0.9791	0.8194	-0.139
Mof_N 	N 	0.2875	0.9358	0.86446	-0.138
Mof_N 	N 	0.2424	0.9765	0.82123	-0.14
Mof_N 	N 	0.0533	0.915	0.95551	-0.272
Mof_N 	N 	0.2056	0.9029	0.14862	-0.282
Mof_N 	N 	0.055	0.4869	0.0771	-0.271
Mof_N 	N 	0.1182	0.0092	0.05616	-0.137
Mof_N 	N 	0.1244	0.1536	0.08441	-0.135
Mof_N 	N 	0.0816	0.1533	0.03802	-0.141
Mof_Zn	Zn	0.24156	0.82326	0.18005	1.165
Mof_Zn	Zn	0.97499	0.12037	0.41474	1.163
Mof_Zn	Zn	0.45146	0.14696	0.4134	1.163
Mof_I 	I 	0.33154	0.82309	0.1677	-0.371
Mof_I 	I 	0.19977	0.66057	0.18576	-0.372
Mof_I 	I 	0.92442	0.20797	0.37588	-0.368
Mof_I 	I 	0.99448	0.1958	0.46582	-0.39
Mof_I 	I 	0.51689	0.06306	0.38314	-0.362
Mof_I 	I 	0.44295	0.32852	0.42067	-0.382
Mof_C 	C 	0.2682	0.9377	0.23299	0.065
Mof_H 	H 	0.2986	0.9386	0.2232	-0.002
Mof_C 	C 	0.2644	0.9752	0.26143	-0.113
Mof_H 	H 	0.2921	0.9998	0.2713	0.081
Mof_C 	C 	0.2198	0.9768	0.27561	0.05
Mof_C 	C 	0.1804	0.9433	0.26	-0.118
Mof_H 	H 	0.1491	0.9465	0.2685	0.08
Mof_C 	C 	0.1874	0.9047	0.2317	0.068
Mof_H 	H 	0.1604	0.8804	0.2211	-0.011
Mof_C 	C 	0.0405	0.0649	0.36444	0.066
Mof_H 	H 	0.0109	0.0593	0.3539	-0.008
Mof_C 	C 	0.0824	0.0492	0.3493	-0.111
Mof_H 	H 	0.0814	0.0312	0.3288	0.079
Mof_C 	C 	0.1268	0.0594	0.36376	0.049
Mof_C 	C 	0.1248	0.0817	0.394	-0.109
Mof_H 	H 	0.1538	0.0873	0.4052	0.078
Mof_C 	C 	0.0812	0.096	0.40824	0.07
Mof_H 	H 	0.0811	0.112	0.429	-0.008
Mof_C 	C 	0.3447	0.115	0.40908	0.077
Mof_H 	H 	0.345	0.1375	0.4292	-0.017
Mof_C 	C 	0.3013	0.0964	0.39592	-0.123
Mof_H 	H 	0.2723	0.103	0.4071	0.08
Mof_C 	C 	0.2998	0.0678	0.36629	0.052
Mof_C 	C 	0.3437	0.0551	0.35135	-0.115
Mof_H 	H 	0.3445	0.0344	0.331	0.079
Mof_C 	C 	0.3855	0.073	0.3666	0.062
Mof_H 	H 	0.4152	0.0635	0.3564	-0.011
Mof_C 	C 	0.2157	0.0096	0.30744	0.105
Mof_C 	C 	0.1724	0.0471	0.34845	0.101
Mof_C 	C 	0.2543	0.0513	0.35017	0.1
Mof_C 	C 	0.4559	0.99	0.4587	0.066
Mof_H 	H 	0.4705	0.9557	0.4427	-0.013
Mof_C 	C 	0.4442	0.9419	0.4851	-0.125
Mof_H 	H 	0.4507	0.8751	0.487	0.093
Mof_C 	C 	0.4234	0.9903	0.50806	0.06
Mof_C 	C 	0.4161	0.0892	0.5054	-0.122
Mof_H 	H 	0.403	0.1255	0.5215	0.081
Mof_C 	C 	0.4283	0.1321	0.479	0.073
Mof_H 	H 	0.4234	0.1996	0.4772	-0.005
Mof_C 	C 	0.3111	0.1389	0.624	0.084
Mof_H 	H 	0.3073	0.2066	0.6222	-0.017
Mof_C 	C 	0.3333	0.0909	0.6009	-0.128
Mof_H 	H 	0.3428	0.1239	0.5832	0.084
Mof_C 	C 	0.3415	0.9933	0.60404	0.075
Mof_C 	C 	0.3271	0.9497	0.6295	-0.139
Mof_H 	H 	0.3328	0.883	0.6326	0.091
Mof_C 	C 	0.3036	0.0043	0.65119	0.091
Mof_H 	H 	0.2935	0.9727	0.669	-0.018
Mof_C 	C 	0.4264	0.5649	0.5998	0.07
Mof_H 	H 	0.4239	0.5364	0.6191	-0.006
Mof_C 	C 	0.4108	0.6587	0.5958	-0.128
Mof_H 	H 	0.3975	0.6939	0.6121	0.096
Mof_C 	C 	0.4149	0.7003	0.5679	0.054
Mof_C 	C 	0.4347	0.6476	0.5444	-0.127
Mof_H 	H 	0.4382	0.6753	0.525	0.092
Mof_C 	C 	0.4488	0.5552	0.5498	0.073
Mof_H 	H 	0.462	0.5188	0.5338	-0.005
Mof_C 	C 	0.4072	0.9399	0.5356	0.091
Mof_C 	C 	0.3676	0.939	0.57956	0.103
Mof_C 	C 	0.4012	0.8033	0.5631	0.087
Mof_N 	N 	0.2307	0.9005	0.2188	-0.274
Mof_N 	N 	0.0393	0.088	0.39394	-0.268
Mof_N 	N 	0.3867	0.1032	0.39507	-0.275
Mof_N 	N 	0.1724	0.0209	0.3194	-0.139
Mof_N 	N 	0.2125	0.0642	0.36446	-0.138
Mof_N 	N 	0.2576	0.0235	0.32123	-0.14
Mof_N 	N 	0.4467	0.085	0.45551	-0.271
Mof_N 	N 	0.2944	0.0971	0.64862	-0.283
Mof_N 	N 	0.445	0.5131	0.5771	-0.271
Mof_N 	N 	0.3818	0.9908	0.55616	-0.138
Mof_N 	N 	0.3756	0.8464	0.58441	-0.135
Mof_N 	N 	0.4184	0.8467	0.53802	-0.141
_end
