data_functionalizedCrystal
_audit_creation_method	'EQeq! by Chris Wilmer'
_symmetry_space_group_name_H-M	'P1'
_symmetry_Int_Tables_number	1
_symmetry_cell_setting	triclinic
loop_
_symmetry_equiv_pos_as_xyz
  x,y,z
_cell_length_a	5.552
_cell_length_b	13.3686
_cell_length_c	20.797
_cell_angle_alpha	90
_cell_angle_beta	95.577
_cell_angle_gamma	90
loop_
_atom_site_label
_atom_site_type_symbol
_atom_site_fract_x
_atom_site_fract_y
_atom_site_fract_z
_atom_site_charge
Mof_Eu	Eu	0.87235	0.63267	0.52782	2.026
Mof_Eu	Eu	0.12765	0.13267	0.97218	2.012
Mof_Eu	Eu	0.12765	0.36733	0.47218	2.026
Mof_Eu	Eu	0.87235	0.86733	0.02782	2.012
Mof_P 	P 	0.5899	0.52088	0.41395	0.495
Mof_P 	P 	0.4101	0.02088	0.08605	0.495
Mof_P 	P 	0.4101	0.47912	0.58605	0.495
Mof_P 	P 	0.5899	0.97912	0.91395	0.495
Mof_H 	H 	0.8345	0.5801	0.3367	0.063
Mof_H 	H 	0.7404	0.473	0.3173	0.094
Mof_H 	H 	0.6219	0.7286	0.2986	0.033
Mof_H 	H 	0.4145	0.6988	0.3413	0.034
Mof_H 	H 	0.1254	0.7013	0.2486	0.05
Mof_H 	H 	0.2534	0.806	0.2548	0.044
Mof_H 	H 	0.5148	0.7585	0.1755	0.061
Mof_H 	H 	0.4516	0.5999	0.1224	0.018
Mof_H 	H 	0.2487	0.5735	0.1674	0.035
Mof_H 	H 	0.6254	0.4978	0.2099	0.04
Mof_H 	H 	0.7479	0.604	0.2152	0.045
Mof_H 	H 	0.1655	0.0801	0.1633	0.064
Mof_H 	H 	0.2596	0.973	0.1827	0.096
Mof_H 	H 	0.3781	0.2286	0.2014	0.034
Mof_H 	H 	0.5855	0.1988	0.1587	0.035
Mof_H 	H 	0.8746	0.2013	0.2514	0.05
Mof_H 	H 	0.7466	0.306	0.2452	0.044
Mof_H 	H 	0.4852	0.2585	0.3245	0.061
Mof_H 	H 	0.5484	0.0999	0.3776	0.017
Mof_H 	H 	0.7513	0.0735	0.3326	0.034
Mof_H 	H 	0.3746	0.9978	0.2901	0.041
Mof_H 	H 	0.2521	0.104	0.2848	0.045
Mof_H 	H 	0.1655	0.4199	0.6633	0.063
Mof_H 	H 	0.2596	0.527	0.6827	0.094
Mof_H 	H 	0.3781	0.2714	0.7014	0.033
Mof_H 	H 	0.5855	0.3012	0.6587	0.034
Mof_H 	H 	0.8746	0.2987	0.7514	0.05
Mof_H 	H 	0.7466	0.194	0.7452	0.044
Mof_H 	H 	0.4852	0.2415	0.8245	0.061
Mof_H 	H 	0.5484	0.4001	0.8776	0.018
Mof_H 	H 	0.7513	0.4265	0.8326	0.035
Mof_H 	H 	0.3746	0.5022	0.7901	0.04
Mof_H 	H 	0.2521	0.396	0.7848	0.045
Mof_H 	H 	0.8345	0.9199	0.8367	0.064
Mof_H 	H 	0.7404	0.027	0.8173	0.096
Mof_H 	H 	0.6219	0.7714	0.7986	0.034
Mof_H 	H 	0.4145	0.8012	0.8413	0.035
Mof_H 	H 	0.1254	0.7987	0.7486	0.05
Mof_H 	H 	0.2534	0.694	0.7548	0.044
Mof_H 	H 	0.5148	0.7415	0.6755	0.061
Mof_H 	H 	0.4516	0.9001	0.6224	0.017
Mof_H 	H 	0.2487	0.9265	0.6674	0.034
Mof_H 	H 	0.6254	0.0022	0.7099	0.041
Mof_H 	H 	0.7479	0.896	0.7152	0.045
Mof_C 	C 	0.6922	0.5377	0.3328	-0.208
Mof_C 	C 	0.4709	0.6922	0.2988	-0.064
Mof_C 	C 	0.2783	0.7356	0.2464	-0.072
Mof_C 	C 	0.3615	0.723	0.1779	-0.123
Mof_C 	C 	0.3996	0.6094	0.1651	-0.058
Mof_C 	C 	0.5969	0.5682	0.2175	-0.078
Mof_C 	C 	0.1704	0.7642	0.1251	0.334
Mof_C 	C 	0.3078	0.0377	0.1672	-0.211
Mof_C 	C 	0.5291	0.1922	0.2012	-0.065
Mof_C 	C 	0.7217	0.2356	0.2536	-0.07
Mof_C 	C 	0.6385	0.223	0.3221	-0.125
Mof_C 	C 	0.6004	0.1094	0.3349	-0.057
Mof_C 	C 	0.4031	0.0682	0.2825	-0.08
Mof_C 	C 	0.8296	0.2642	0.3749	0.335
Mof_C 	C 	0.3078	0.4623	0.6672	-0.208
Mof_C 	C 	0.5291	0.3078	0.7012	-0.064
Mof_C 	C 	0.7217	0.2644	0.7536	-0.072
Mof_C 	C 	0.6385	0.277	0.8221	-0.123
Mof_C 	C 	0.6004	0.3906	0.8349	-0.058
Mof_C 	C 	0.4031	0.4318	0.7825	-0.078
Mof_C 	C 	0.8296	0.2358	0.8749	0.334
Mof_C 	C 	0.6922	0.9623	0.8328	-0.211
Mof_C 	C 	0.4709	0.8078	0.7988	-0.065
Mof_C 	C 	0.2783	0.7644	0.7464	-0.07
Mof_C 	C 	0.3615	0.777	0.6779	-0.125
Mof_C 	C 	0.3996	0.8906	0.6651	-0.057
Mof_C 	C 	0.5969	0.9318	0.7175	-0.08
Mof_C 	C 	0.1704	0.7358	0.6251	0.335
Mof_N 	N 	0.5095	0.5822	0.2834	-0.073
Mof_N 	N 	0.4905	0.0822	0.2166	-0.072
Mof_N 	N 	0.4905	0.4178	0.7166	-0.073
Mof_N 	N 	0.5095	0.9178	0.7834	-0.072
Mof_O 	O 	0.5408	0.623	0.4444	-0.53
Mof_O 	O 	0.8224	0.4814	0.4543	-0.673
Mof_O 	O 	0.376	0.4502	0.4091	-0.524
Mof_O 	O 	0.002	0.8192	0.1409	-0.448
Mof_O 	O 	0.1978	0.7488	0.0674	-0.515
Mof_O 	O 	0.4592	0.123	0.0556	-0.527
Mof_O 	O 	0.1776	0.9814	0.0457	-0.667
Mof_O 	O 	0.624	0.9502	0.0909	-0.524
Mof_O 	O 	0.998	0.3192	0.3591	-0.452
Mof_O 	O 	0.8022	0.2488	0.4326	-0.519
Mof_O 	O 	0.4592	0.377	0.5556	-0.53
Mof_O 	O 	0.1776	0.5186	0.5457	-0.673
Mof_O 	O 	0.624	0.5498	0.5909	-0.524
Mof_O 	O 	0.998	0.1808	0.8591	-0.448
Mof_O 	O 	0.8022	0.2512	0.9326	-0.515
Mof_O 	O 	0.5408	0.877	0.9444	-0.527
Mof_O 	O 	0.8224	0.0186	0.9543	-0.667
Mof_O 	O 	0.376	0.0498	0.9091	-0.524
Mof_O 	O 	0.002	0.6808	0.6409	-0.452
Mof_O 	O 	0.1978	0.7512	0.5674	-0.519
_end
