data_functionalizedCrystal
_audit_creation_method	'EQeq! by Chris Wilmer'
_symmetry_space_group_name_H-M	'P1'
_symmetry_Int_Tables_number	1
_symmetry_cell_setting	triclinic
loop_
_symmetry_equiv_pos_as_xyz
  x,y,z
_cell_length_a	8.0542
_cell_length_b	18.78
_cell_length_c	19.289
_cell_angle_alpha	90
_cell_angle_beta	95.641
_cell_angle_gamma	90
loop_
_atom_site_label
_atom_site_type_symbol
_atom_site_fract_x
_atom_site_fract_y
_atom_site_fract_z
_atom_site_charge
Mof_C 	C 	0.707	0.3773	0.5925	0.342
Mof_C 	C 	0.8456	0.3781	0.6491	-0.179
Mof_C 	C 	0.9996	0.3541	0.6375	0.109
Mof_H 	H 	0.0166	0.3353	0.5936	0.001
Mof_C 	C 	0.1328	0.3565	0.6893	-0.234
Mof_H 	H 	0.2387	0.3397	0.6806	0.109
Mof_C 	C 	0.1073	0.3834	0.7522	0.187
Mof_C 	C 	0.9523	0.4077	0.7664	-0.225
Mof_H 	H 	0.9362	0.4259	0.8106	0.093
Mof_C 	C 	0.8223	0.4048	0.7149	0.11
Mof_H 	H 	0.7162	0.421	0.724	-0.01
Mof_C 	C 	0.1522	0.2906	0.8825	-0.753
Mof_H 	H 	0.1868	0.2469	0.8612	0.239
Mof_H 	H 	0.0386	0.3019	0.8645	0.245
Mof_H 	H 	0.1579	0.2844	0.9326	0.259
Mof_C 	C 	0.2639	0.3492	0.866	0.304
Mof_C 	C 	0.3777	0.4332	0.8104	0.282
Mof_C 	C 	0.4012	0.4857	0.7529	-0.693
Mof_H 	H 	0.4933	0.5173	0.7675	0.223
Mof_H 	H 	0.3	0.5134	0.7429	0.219
Mof_H 	H 	0.4252	0.4601	0.7114	0.236
Mof_C 	C 	0.7505	0.7645	0.5088	0.342
Mof_C 	C 	0.8875	0.7156	0.4944	-0.184
Mof_C 	C 	0.8541	0.653	0.4573	0.135
Mof_H 	H 	0.7439	0.6417	0.4402	-0.014
Mof_C 	C 	0.9788	0.6087	0.4456	-0.248
Mof_H 	H 	0.9547	0.5665	0.4204	0.103
Mof_C 	C 	0.1388	0.6234	0.4695	0.205
Mof_C 	C 	0.1786	0.6841	0.5057	-0.24
Mof_H 	H 	0.2898	0.6943	0.522	0.127
Mof_C 	C 	0.051	0.7306	0.5179	0.128
Mof_H 	H 	0.0763	0.7729	0.5426	0.001
Mof_C 	C 	0.1919	0.4787	0.5389	-0.752
Mof_H 	H 	0.0897	0.4584	0.5164	0.253
Mof_H 	H 	0.1649	0.5166	0.5701	0.245
Mof_H 	H 	0.2551	0.442	0.5653	0.257
Mof_C 	C 	0.2927	0.5079	0.4854	0.305
Mof_C 	C 	0.3906	0.5807	0.4096	0.318
Mof_C 	C 	0.4075	0.6443	0.3673	-0.779
Mof_H 	H 	0.4847	0.6347	0.3328	0.247
Mof_H 	H 	0.4498	0.6832	0.397	0.275
Mof_H 	H 	0.2995	0.6571	0.3439	0.252
Mof_C 	C 	0.2659	0.3208	0.1108	0.333
Mof_C 	C 	0.1329	0.3147	0.1606	-0.161
Mof_C 	C 	0.1766	0.2996	0.2294	0.098
Mof_H 	H 	0.2893	0.2925	0.2455	0.011
Mof_C 	C 	0.0538	0.2947	0.2757	-0.21
Mof_H 	H 	0.0828	0.2838	0.3229	0.11
Mof_C 	C 	0.8894	0.3061	0.2508	0.183
Mof_C 	C 	0.8468	0.322	0.1805	-0.219
Mof_H 	H 	0.7348	0.3298	0.1637	0.122
Mof_C 	C 	0.9683	0.3259	0.1366	0.112
Mof_H 	H 	0.9398	0.3365	0.0893	0.009
Mof_C 	C 	0.8325	0.4097	0.3673	-0.796
Mof_H 	H 	0.7811	0.4367	0.4023	0.265
Mof_H 	H 	0.8406	0.4391	0.3265	0.257
Mof_H 	H 	0.9433	0.3947	0.386	0.269
Mof_C 	C 	0.7309	0.347	0.348	0.33
Mof_C 	C 	0.6385	0.2499	0.2956	0.306
Mof_C 	C 	0.6245	0.1896	0.2462	-0.73
Mof_H 	H 	0.5172	0.1664	0.2479	0.238
Mof_H 	H 	0.7131	0.1556	0.2589	0.231
Mof_H 	H 	0.6339	0.207	0.1994	0.253
Mof_C 	C 	0.6492	0.2097	0.9896	0.354
Mof_C 	C 	0.7849	0.1566	0.9762	-0.206
Mof_C 	C 	0.7462	0.0888	0.9535	0.172
Mof_H 	H 	0.6341	0.0743	0.9472	-0.024
Mof_C 	C 	0.8705	0.0421	0.94	-0.327
Mof_H 	H 	0.8436	0.9962	0.9229	0.166
Mof_C 	C 	0.033	0.063	0.9515	0.231
Mof_C 	C 	0.0762	0.1304	0.9777	-0.273
Mof_H 	H 	0.1884	0.1439	0.9874	0.132
Mof_C 	C 	0.9502	0.176	0.9888	0.149
Mof_H 	H 	0.9766	0.222	0.0054	-0.013
Mof_C 	C 	0.1436	0.9303	0.0366	-0.771
Mof_H 	H 	0.1906	0.8841	0.0497	0.265
Mof_H 	H 	0.0245	0.9256	0.0241	0.266
Mof_H 	H 	0.1633	0.963	0.0755	0.259
Mof_C 	C 	0.2247	0.9587	0.9755	0.334
Mof_C 	C 	0.2802	0.0237	0.8888	0.246
Mof_C 	C 	0.2641	0.0826	0.8366	-0.645
Mof_H 	H 	0.3056	0.1265	0.8584	0.211
Mof_H 	H 	0.1477	0.0885	0.8192	0.204
Mof_H 	H 	0.3285	0.0711	0.7981	0.201
Mof_N 	N 	0.3969	0.371	0.9039	-0.167
Mof_N 	N 	0.4692	0.425	0.8674	-0.149
Mof_N 	N 	0.2457	0.3878	0.8066	-0.242
Mof_N 	N 	0.4158	0.4769	0.4585	-0.166
Mof_N 	N 	0.4784	0.5229	0.4105	-0.156
Mof_N 	N 	0.2708	0.5737	0.4559	-0.245
Mof_N 	N 	0.5982	0.3246	0.3764	-0.164
Mof_N 	N 	0.5393	0.2632	0.3435	-0.141
Mof_N 	N 	0.7587	0.3006	0.2971	-0.247
Mof_N 	N 	0.3575	0.9336	0.9511	-0.164
Mof_N 	N 	0.3926	0.9746	0.8956	-0.116
Mof_N 	N 	0.1673	0.0154	0.9372	-0.256
Mof_O 	O 	0.7446	0.3646	0.5322	-0.308
Mof_O 	O 	0.5608	0.3903	0.6046	-0.305
Mof_O 	O 	0.7878	0.8244	0.5372	-0.301
Mof_O 	O 	0.6042	0.7474	0.4917	-0.305
Mof_O 	O 	0.6994	0.2725	0.0002	-0.32
Mof_O 	O 	0.5016	0.1915	0.9877	-0.3
Mof_O 	O 	0.2216	0.3366	0.0485	-0.315
Mof_O 	O 	0.4164	0.3115	0.1315	-0.292
Mof_Cd	Cd	0.49037	0.36127	0.47449	0.432
Mof_Cd	Cd	0.48326	0.33853	0.01528	0.432
Mof_C 	C 	0.293	0.8773	0.4075	0.34
Mof_C 	C 	0.1544	0.8781	0.3509	-0.167
Mof_C 	C 	0.0004	0.8541	0.3625	0.098
Mof_H 	H 	0.9834	0.8353	0.4064	0.01
Mof_C 	C 	0.8672	0.8565	0.3107	-0.219
Mof_H 	H 	0.7613	0.8397	0.3194	0.107
Mof_C 	C 	0.8927	0.8834	0.2478	0.187
Mof_C 	C 	0.0477	0.9077	0.2336	-0.219
Mof_H 	H 	0.0638	0.9259	0.1894	0.095
Mof_C 	C 	0.1777	0.9048	0.2851	0.106
Mof_H 	H 	0.2838	0.921	0.276	-0.002
Mof_C 	C 	0.8478	0.7906	0.1175	-0.755
Mof_H 	H 	0.8132	0.7469	0.1388	0.24
Mof_H 	H 	0.9614	0.8019	0.1355	0.246
Mof_H 	H 	0.8421	0.7844	0.0674	0.26
Mof_C 	C 	0.7361	0.8492	0.134	0.306
Mof_C 	C 	0.6223	0.9332	0.1896	0.225
Mof_C 	C 	0.5988	0.9857	0.2471	-0.436
Mof_H 	H 	0.5067	0.0173	0.2325	0.127
Mof_H 	H 	0.7	0.0134	0.2571	0.125
Mof_H 	H 	0.5748	0.9601	0.2886	0.17
Mof_C 	C 	0.2495	0.2645	0.4912	0.343
Mof_C 	C 	0.1125	0.2156	0.5056	-0.186
Mof_C 	C 	0.1459	0.153	0.5427	0.132
Mof_H 	H 	0.2561	0.1417	0.5598	-0.015
Mof_C 	C 	0.0212	0.1087	0.5544	-0.246
Mof_H 	H 	0.0453	0.0665	0.5796	0.096
Mof_C 	C 	0.8612	0.1234	0.5305	0.2
Mof_C 	C 	0.8214	0.1841	0.4943	-0.237
Mof_H 	H 	0.7102	0.1943	0.478	0.127
Mof_C 	C 	0.949	0.2306	0.4821	0.13
Mof_H 	H 	0.9237	0.2729	0.4574	0.001
Mof_C 	C 	0.8081	0.9787	0.4611	-0.515
Mof_H 	H 	0.9103	0.9584	0.4836	0.194
Mof_H 	H 	0.8351	0.0166	0.4299	0.16
Mof_H 	H 	0.7449	0.942	0.4347	0.195
Mof_C 	C 	0.7073	0.0079	0.5146	0.199
Mof_C 	C 	0.6094	0.0807	0.5904	0.315
Mof_C 	C 	0.5925	0.1443	0.6327	-0.777
Mof_H 	H 	0.5153	0.1347	0.6672	0.245
Mof_H 	H 	0.5502	0.1832	0.603	0.274
Mof_H 	H 	0.7005	0.1571	0.6561	0.25
Mof_C 	C 	0.7341	0.8208	0.8892	0.332
Mof_C 	C 	0.8671	0.8147	0.8394	-0.153
Mof_C 	C 	0.8234	0.7996	0.7706	0.095
Mof_H 	H 	0.7107	0.7925	0.7545	0.013
Mof_C 	C 	0.9462	0.7947	0.7243	-0.202
Mof_H 	H 	0.9172	0.7838	0.6771	0.108
Mof_C 	C 	0.1106	0.8061	0.7492	0.179
Mof_C 	C 	0.1532	0.822	0.8195	-0.212
Mof_H 	H 	0.2652	0.8298	0.8363	0.121
Mof_C 	C 	0.0317	0.8259	0.8634	0.106
Mof_H 	H 	0.0602	0.8365	0.9107	0.011
Mof_C 	C 	0.1675	0.9097	0.6327	-0.821
Mof_H 	H 	0.2189	0.9367	0.5977	0.28
Mof_H 	H 	0.1594	0.9391	0.6735	0.272
Mof_H 	H 	0.0567	0.8947	0.614	0.28
Mof_C 	C 	0.2691	0.847	0.652	0.339
Mof_C 	C 	0.3615	0.7499	0.7044	0.306
Mof_C 	C 	0.3755	0.6896	0.7538	-0.73
Mof_H 	H 	0.4828	0.6664	0.7521	0.238
Mof_H 	H 	0.2869	0.6556	0.7411	0.23
Mof_H 	H 	0.3661	0.707	0.8006	0.253
Mof_C 	C 	0.3508	0.7097	0.0104	0.344
Mof_C 	C 	0.2151	0.6566	0.0238	-0.173
Mof_C 	C 	0.2538	0.5888	0.0465	0.116
Mof_H 	H 	0.3659	0.5743	0.0528	0.002
Mof_C 	C 	0.1295	0.5421	0.06	-0.234
Mof_H 	H 	0.1564	0.4962	0.0771	0.115
Mof_C 	C 	0.967	0.563	0.0485	0.196
Mof_C 	C 	0.9238	0.6304	0.0223	-0.237
Mof_H 	H 	0.8116	0.6439	0.0126	0.121
Mof_C 	C 	0.0498	0.676	0.0112	0.118
Mof_H 	H 	0.0234	0.722	0.9946	-0.003
Mof_C 	C 	0.8564	0.4303	0.9634	-0.742
Mof_H 	H 	0.8094	0.3841	0.9503	0.257
Mof_H 	H 	0.9755	0.4256	0.9759	0.254
Mof_H 	H 	0.8367	0.463	0.9245	0.243
Mof_C 	C 	0.7753	0.4587	0.0245	0.304
Mof_C 	C 	0.7198	0.5237	0.1112	0.28
Mof_C 	C 	0.7359	0.5826	0.1634	-0.679
Mof_H 	H 	0.6944	0.6265	0.1416	0.221
Mof_H 	H 	0.8523	0.5885	0.1808	0.217
Mof_H 	H 	0.6715	0.5711	0.2019	0.216
Mof_N 	N 	0.6031	0.871	0.0961	-0.166
Mof_N 	N 	0.5308	0.925	0.1326	-0.131
Mof_N 	N 	0.7543	0.8878	0.1934	-0.23
Mof_N 	N 	0.5842	0.9769	0.5415	-0.124
Mof_N 	N 	0.5216	0.0229	0.5895	-0.171
Mof_N 	N 	0.7292	0.0737	0.5441	-0.228
Mof_N 	N 	0.4018	0.8246	0.6236	-0.165
Mof_N 	N 	0.4607	0.7632	0.6565	-0.14
Mof_N 	N 	0.2413	0.8006	0.7029	-0.248
Mof_N 	N 	0.6425	0.4336	0.0489	-0.161
Mof_N 	N 	0.6074	0.4746	0.1044	-0.138
Mof_N 	N 	0.8327	0.5154	0.0628	-0.237
Mof_O 	O 	0.2554	0.8646	0.4678	-0.304
Mof_O 	O 	0.4392	0.8903	0.3954	-0.295
Mof_O 	O 	0.2122	0.3244	0.4628	-0.305
Mof_O 	O 	0.3958	0.2474	0.5083	-0.306
Mof_O 	O 	0.3006	0.7725	0.9998	-0.319
Mof_O 	O 	0.4984	0.6915	0.0123	-0.295
Mof_O 	O 	0.7784	0.8366	0.9515	-0.313
Mof_O 	O 	0.5836	0.8115	0.8685	-0.29
Mof_Cd	Cd	0.50963	0.86127	0.52551	0.436
Mof_Cd	Cd	0.51674	0.83853	0.98472	0.433
_end
