data_functionalizedCrystal
_audit_creation_method	'EQeq! by Chris Wilmer'
_symmetry_space_group_name_H-M	'P1'
_symmetry_Int_Tables_number	1
_symmetry_cell_setting	triclinic
loop_
_symmetry_equiv_pos_as_xyz
  x,y,z
_cell_length_a	17.618
_cell_length_b	17.618
_cell_length_c	17.618
_cell_angle_alpha	90
_cell_angle_beta	90
_cell_angle_gamma	90
loop_
_atom_site_label
_atom_site_type_symbol
_atom_site_fract_x
_atom_site_fract_y
_atom_site_fract_z
_atom_site_charge
Mof_C 	C 	0.487	0.2592	0.4969	0.332
Mof_C 	C 	0.4904	0.2341	0.4132	-0.014
Mof_C 	C 	0.4109	0.2084	0.3864	0.347
Mof_O 	O 	0.40319	0.1415	0.3672	-0.384
Mof_O 	O 	0.54404	0.17705	0.40356	-0.432
Mof_O 	O 	0.36056	0.25713	0.3874	-0.435
Mof_O 	O 	0.50782	0.2993	0.3712	-0.325
Mof_O 	O 	0.4506	0.319	0.5094	-0.459
Mof_O 	O 	0.5183	0.2185	0.5457	-0.38
Mof_Cu	Cu	0.49998	0.09204	0.34945	0.898
Mof_C 	C 	0.013	0.7408	0.9969	0.329
Mof_C 	C 	0.0096	0.7659	0.9132	-0.025
Mof_C 	C 	0.0891	0.7916	0.8864	0.35
Mof_O 	O 	0.09681	0.8585	0.8672	-0.386
Mof_O 	O 	0.95596	0.82295	0.90356	-0.421
Mof_O 	O 	0.13944	0.74287	0.8874	-0.436
Mof_O 	O 	0.99218	0.7007	0.8712	-0.316
Mof_O 	O 	0.0494	0.681	0.0094	-0.452
Mof_O 	O 	0.9817	0.7815	0.0457	-0.38
Mof_Cu	Cu	2e-05	0.90796	0.84945	0.894
Mof_C 	C 	0.513	0.7592	0.0031	0.326
Mof_C 	C 	0.5096	0.7341	0.0868	-0.011
Mof_C 	C 	0.5891	0.7084	0.1136	0.347
Mof_O 	O 	0.59681	0.6415	0.1328	-0.384
Mof_O 	O 	0.45596	0.67705	0.09644	-0.431
Mof_O 	O 	0.63944	0.75713	0.1126	-0.435
Mof_O 	O 	0.49218	0.7993	0.1288	-0.325
Mof_O 	O 	0.5494	0.819	0.9906	-0.452
Mof_O 	O 	0.4817	0.7185	0.9543	-0.376
Mof_Cu	Cu	0.50002	0.59204	0.15055	0.898
Mof_C 	C 	0.987	0.2408	0.5031	0.328
Mof_C 	C 	0.9904	0.2659	0.5868	-0.016
Mof_C 	C 	0.9109	0.2916	0.6136	0.348
Mof_O 	O 	0.90319	0.3585	0.6328	-0.384
Mof_O 	O 	0.04404	0.32295	0.59644	-0.429
Mof_O 	O 	0.86056	0.24287	0.6126	-0.435
Mof_O 	O 	0.00782	0.2007	0.6288	-0.321
Mof_O 	O 	0.9506	0.181	0.4906	-0.457
Mof_O 	O 	0.0183	0.2815	0.4543	-0.374
Mof_Cu	Cu	0.99998	0.40796	0.65055	0.898
Mof_C 	C 	0.4969	0.487	0.2592	0.333
Mof_C 	C 	0.4132	0.4904	0.2341	-0.013
Mof_C 	C 	0.3864	0.4109	0.2084	0.348
Mof_O 	O 	0.3672	0.40319	0.1415	-0.383
Mof_O 	O 	0.40356	0.54404	0.17705	-0.431
Mof_O 	O 	0.3874	0.36056	0.25713	-0.435
Mof_O 	O 	0.3712	0.50782	0.2993	-0.325
Mof_O 	O 	0.5094	0.4506	0.319	-0.459
Mof_O 	O 	0.5457	0.5183	0.2185	-0.38
Mof_Cu	Cu	0.34945	0.49998	0.09204	0.898
Mof_C 	C 	0.9969	0.013	0.7408	0.329
Mof_C 	C 	0.9132	0.0096	0.7659	-0.025
Mof_C 	C 	0.8864	0.0891	0.7916	0.35
Mof_O 	O 	0.8672	0.09681	0.8585	-0.386
Mof_O 	O 	0.90356	0.95596	0.82295	-0.421
Mof_O 	O 	0.8874	0.13944	0.74287	-0.436
Mof_O 	O 	0.8712	0.99218	0.7007	-0.316
Mof_O 	O 	0.0094	0.0494	0.681	-0.452
Mof_O 	O 	0.0457	0.9817	0.7815	-0.38
Mof_Cu	Cu	0.84945	2e-05	0.90796	0.894
Mof_C 	C 	0.0031	0.513	0.7592	0.326
Mof_C 	C 	0.0868	0.5096	0.7341	-0.011
Mof_C 	C 	0.1136	0.5891	0.7084	0.347
Mof_O 	O 	0.1328	0.59681	0.6415	-0.384
Mof_O 	O 	0.09644	0.45596	0.67705	-0.431
Mof_O 	O 	0.1126	0.63944	0.75713	-0.435
Mof_O 	O 	0.1288	0.49218	0.7993	-0.325
Mof_O 	O 	0.9906	0.5494	0.819	-0.452
Mof_O 	O 	0.9543	0.4817	0.7185	-0.376
Mof_Cu	Cu	0.15055	0.50002	0.59204	0.898
Mof_C 	C 	0.5031	0.987	0.2408	0.328
Mof_C 	C 	0.5868	0.9904	0.2659	-0.016
Mof_C 	C 	0.6136	0.9109	0.2916	0.348
Mof_O 	O 	0.6328	0.90319	0.3585	-0.384
Mof_O 	O 	0.59644	0.04404	0.32295	-0.429
Mof_O 	O 	0.6126	0.86056	0.24287	-0.435
Mof_O 	O 	0.6288	0.00782	0.2007	-0.321
Mof_O 	O 	0.4906	0.9506	0.181	-0.457
Mof_O 	O 	0.4543	0.0183	0.2815	-0.374
Mof_Cu	Cu	0.65055	0.99998	0.40796	0.898
Mof_C 	C 	0.2592	0.4969	0.487	0.333
Mof_C 	C 	0.2341	0.4132	0.4904	-0.013
Mof_C 	C 	0.2084	0.3864	0.4109	0.348
Mof_O 	O 	0.1415	0.3672	0.40319	-0.383
Mof_O 	O 	0.17705	0.40356	0.54404	-0.431
Mof_O 	O 	0.25713	0.3874	0.36056	-0.435
Mof_O 	O 	0.2993	0.3712	0.50782	-0.325
Mof_O 	O 	0.319	0.5094	0.4506	-0.459
Mof_O 	O 	0.2185	0.5457	0.5183	-0.38
Mof_Cu	Cu	0.09204	0.34945	0.49998	0.898
Mof_C 	C 	0.7408	0.9969	0.013	0.329
Mof_C 	C 	0.7659	0.9132	0.0096	-0.025
Mof_C 	C 	0.7916	0.8864	0.0891	0.35
Mof_O 	O 	0.8585	0.8672	0.09681	-0.386
Mof_O 	O 	0.82295	0.90356	0.95596	-0.421
Mof_O 	O 	0.74287	0.8874	0.13944	-0.436
Mof_O 	O 	0.7007	0.8712	0.99218	-0.316
Mof_O 	O 	0.681	0.0094	0.0494	-0.452
Mof_O 	O 	0.7815	0.0457	0.9817	-0.38
Mof_Cu	Cu	0.90796	0.84945	2e-05	0.894
Mof_C 	C 	0.7592	0.0031	0.513	0.326
Mof_C 	C 	0.7341	0.0868	0.5096	-0.011
Mof_C 	C 	0.7084	0.1136	0.5891	0.347
Mof_O 	O 	0.6415	0.1328	0.59681	-0.384
Mof_O 	O 	0.67705	0.09644	0.45596	-0.431
Mof_O 	O 	0.75713	0.1126	0.63944	-0.435
Mof_O 	O 	0.7993	0.1288	0.49218	-0.325
Mof_O 	O 	0.819	0.9906	0.5494	-0.452
Mof_O 	O 	0.7185	0.9543	0.4817	-0.376
Mof_Cu	Cu	0.59204	0.15055	0.50002	0.898
Mof_C 	C 	0.2408	0.5031	0.987	0.328
Mof_C 	C 	0.2659	0.5868	0.9904	-0.016
Mof_C 	C 	0.2916	0.6136	0.9109	0.348
Mof_O 	O 	0.3585	0.6328	0.90319	-0.384
Mof_O 	O 	0.32295	0.59644	0.04404	-0.429
Mof_O 	O 	0.24287	0.6126	0.86056	-0.435
Mof_O 	O 	0.2007	0.6288	0.00782	-0.321
Mof_O 	O 	0.181	0.4906	0.9506	-0.457
Mof_O 	O 	0.2815	0.4543	0.0183	-0.374
Mof_Cu	Cu	0.40796	0.65055	0.99998	0.898
Mof_Ce	Ce	0.39726	0.39726	0.39726	2.543
Mof_Ce	Ce	0.10274	0.60274	0.89726	2.529
Mof_Ce	Ce	0.60274	0.89726	0.10274	2.529
Mof_Ce	Ce	0.89726	0.10274	0.60274	2.529
_end
