data_functionalizedCrystal
_audit_creation_method	'EQeq! by Chris Wilmer'
_symmetry_space_group_name_H-M	'P1'
_symmetry_Int_Tables_number	1
_symmetry_cell_setting	triclinic
loop_
_symmetry_equiv_pos_as_xyz
  x,y,z
_cell_length_a	16.2845
_cell_length_b	16.2845
_cell_length_c	27.639
_cell_angle_alpha	85.5636
_cell_angle_beta	85.5636
_cell_angle_gamma	71.7533
loop_
_atom_site_label
_atom_site_type_symbol
_atom_site_fract_x
_atom_site_fract_y
_atom_site_fract_z
_atom_site_charge
Mof_Cd	Cd	0.33785	0.91127	0.18904	0.513
Mof_Cd	Cd	0.08873	0.66215	0.31096	0.513
Mof_Cd	Cd	0.66215	0.08873	0.81096	0.513
Mof_Cd	Cd	0.91127	0.33785	0.68904	0.513
Mof_H 	H 	0.2879	0.7027	0.0789	0.004
Mof_H 	H 	0.285	0.647	0.0052	0.129
Mof_H 	H 	0.4074	0.8126	0.9427	0.133
Mof_H 	H 	0.4049	0.8671	0.018	0.014
Mof_H 	H 	0.2488	0.65	0.9286	0.047
Mof_H 	H 	0.3413	0.5817	0.9219	0.048
Mof_H 	H 	0.3723	0.6343	0.7943	0.044
Mof_H 	H 	0.4009	0.6803	0.8351	0.045
Mof_H 	H 	0.5172	0.6312	0.7759	0.144
Mof_H 	H 	0.6458	0.5708	0.7348	-0.013
Mof_H 	H 	0.6826	0.3512	0.8181	0.011
Mof_H 	H 	0.55	0.4102	0.8574	0.15
Mof_H 	H 	0.2537	0.7761	0.8482	0.037
Mof_H 	H 	0.2255	0.7327	0.8061	0.034
Mof_H 	H 	0.1246	0.873	0.8034	0.152
Mof_H 	H 	0.9885	0.9711	0.7881	-0.016
Mof_H 	H 	0.871	0.8468	0.8826	-0.021
Mof_H 	H 	0.0082	0.7472	0.9001	0.152
Mof_H 	H 	0.3021	0.5129	0.8543	0.05
Mof_H 	H 	0.2071	0.5721	0.8674	0.047
Mof_H 	H 	0.172	0.6102	0.7177	0.117
Mof_H 	H 	0.0859	0.5419	0.6839	0.015
Mof_H 	H 	0.1001	0.3835	0.8067	0.02
Mof_H 	H 	0.1927	0.4533	0.8376	0.121
Mof_H 	H 	0.8085	0.4989	0.7242	0.216
Mof_H 	H 	0.7483	0.9337	0.8356	0.236
Mof_H 	H 	0.2973	0.7121	0.4211	0.003
Mof_H 	H 	0.353	0.715	0.4948	0.128
Mof_H 	H 	0.1874	0.5926	0.5573	0.132
Mof_H 	H 	0.1329	0.5951	0.482	0.013
Mof_H 	H 	0.35	0.7512	0.5714	0.046
Mof_H 	H 	0.4183	0.6587	0.5781	0.047
Mof_H 	H 	0.3657	0.6277	0.7057	0.043
Mof_H 	H 	0.3197	0.5991	0.6649	0.044
Mof_H 	H 	0.3688	0.4828	0.7241	0.143
Mof_H 	H 	0.4292	0.3542	0.7652	-0.014
Mof_H 	H 	0.6488	0.3174	0.6819	0.011
Mof_H 	H 	0.5898	0.45	0.6426	0.15
Mof_H 	H 	0.2239	0.7463	0.6518	0.037
Mof_H 	H 	0.2673	0.7745	0.6939	0.034
Mof_H 	H 	0.127	0.8754	0.6966	0.152
Mof_H 	H 	0.0289	0.0115	0.7119	-0.016
Mof_H 	H 	0.1532	0.129	0.6174	-0.021
Mof_H 	H 	0.2528	0.9918	0.5999	0.152
Mof_H 	H 	0.4871	0.6979	0.6457	0.05
Mof_H 	H 	0.4279	0.7929	0.6326	0.047
Mof_H 	H 	0.3898	0.828	0.7823	0.117
Mof_H 	H 	0.4581	0.9141	0.8161	0.015
Mof_H 	H 	0.6165	0.8999	0.6933	0.02
Mof_H 	H 	0.5467	0.8073	0.6624	0.121
Mof_H 	H 	0.5011	0.1915	0.7758	0.216
Mof_H 	H 	0.0663	0.2517	0.6644	0.236
Mof_H 	H 	0.7121	0.2973	0.9211	0.003
Mof_H 	H 	0.715	0.353	0.9948	0.128
Mof_H 	H 	0.5926	0.1874	0.0573	0.132
Mof_H 	H 	0.5951	0.1329	0.982	0.013
Mof_H 	H 	0.7512	0.35	0.0714	0.046
Mof_H 	H 	0.6587	0.4183	0.0781	0.047
Mof_H 	H 	0.6277	0.3657	0.2057	0.043
Mof_H 	H 	0.5991	0.3197	0.1649	0.044
Mof_H 	H 	0.4828	0.3688	0.2241	0.143
Mof_H 	H 	0.3542	0.4292	0.2652	-0.014
Mof_H 	H 	0.3174	0.6488	0.1819	0.011
Mof_H 	H 	0.45	0.5898	0.1426	0.15
Mof_H 	H 	0.7463	0.2239	0.1518	0.037
Mof_H 	H 	0.7745	0.2673	0.1939	0.034
Mof_H 	H 	0.8754	0.127	0.1966	0.152
Mof_H 	H 	0.0115	0.0289	0.2119	-0.016
Mof_H 	H 	0.129	0.1532	0.1174	-0.021
Mof_H 	H 	0.9918	0.2528	0.0999	0.152
Mof_H 	H 	0.6979	0.4871	0.1457	0.05
Mof_H 	H 	0.7929	0.4279	0.1326	0.047
Mof_H 	H 	0.828	0.3898	0.2823	0.117
Mof_H 	H 	0.9141	0.4581	0.3161	0.015
Mof_H 	H 	0.8999	0.6165	0.1933	0.02
Mof_H 	H 	0.8073	0.5467	0.1624	0.121
Mof_H 	H 	0.1915	0.5011	0.2758	0.216
Mof_H 	H 	0.2517	0.0663	0.1644	0.236
Mof_H 	H 	0.7027	0.2879	0.5789	0.003
Mof_H 	H 	0.647	0.285	0.5052	0.128
Mof_H 	H 	0.8126	0.4074	0.4427	0.132
Mof_H 	H 	0.8671	0.4049	0.518	0.013
Mof_H 	H 	0.65	0.2488	0.4286	0.046
Mof_H 	H 	0.5817	0.3413	0.4219	0.047
Mof_H 	H 	0.6343	0.3723	0.2943	0.043
Mof_H 	H 	0.6803	0.4009	0.3351	0.044
Mof_H 	H 	0.6312	0.5172	0.2759	0.143
Mof_H 	H 	0.5708	0.6458	0.2348	-0.014
Mof_H 	H 	0.3512	0.6826	0.3181	0.011
Mof_H 	H 	0.4102	0.55	0.3574	0.15
Mof_H 	H 	0.7761	0.2537	0.3482	0.037
Mof_H 	H 	0.7327	0.2255	0.3061	0.034
Mof_H 	H 	0.873	0.1246	0.3034	0.152
Mof_H 	H 	0.9711	0.9885	0.2881	-0.016
Mof_H 	H 	0.8468	0.871	0.3826	-0.021
Mof_H 	H 	0.7472	0.0082	0.4001	0.152
Mof_H 	H 	0.5129	0.3021	0.3543	0.05
Mof_H 	H 	0.5721	0.2071	0.3674	0.047
Mof_H 	H 	0.6102	0.172	0.2177	0.117
Mof_H 	H 	0.5419	0.0859	0.1839	0.015
Mof_H 	H 	0.3835	0.1001	0.3067	0.02
Mof_H 	H 	0.4533	0.1927	0.3376	0.121
Mof_H 	H 	0.4989	0.8085	0.2242	0.216
Mof_H 	H 	0.9337	0.7483	0.3356	0.236
Mof_C 	C 	0.3425	0.8269	0.1038	0.327
Mof_C 	C 	0.3439	0.7907	0.0565	-0.167
Mof_C 	C 	0.3107	0.7259	0.0512	0.142
Mof_C 	C 	0.3086	0.6916	0.0071	-0.253
Mof_C 	C 	0.3431	0.7263	0.966	0.262
Mof_C 	C 	0.3816	0.7912	0.97	-0.235
Mof_C 	C 	0.3805	0.8231	0.0152	0.129
Mof_C 	C 	0.30476	0.63836	0.91095	0.007
Mof_C 	C 	0.2944	0.642	0.85703	0.019
Mof_C 	C 	0.3796	0.633	0.82889	0.015
Mof_C 	C 	0.5191	0.5243	0.82	0.292
Mof_C 	C 	0.5499	0.5743	0.7836	-0.283
Mof_C 	C 	0.627	0.539	0.7601	0.172
Mof_C 	C 	0.6796	0.455	0.7731	-0.197
Mof_C 	C 	0.6492	0.4074	0.8094	0.167
Mof_C 	C 	0.5697	0.4425	0.8326	-0.28
Mof_C 	C 	0.764	0.4152	0.7442	0.376
Mof_C 	C 	0.2319	0.7297	0.8408	0.031
Mof_C 	C 	0.0789	0.8015	0.853	0.332
Mof_C 	C 	0.0749	0.8665	0.8199	-0.328
Mof_C 	C 	0.9922	0.925	0.8108	0.208
Mof_C 	C 	0.9183	0.9173	0.8334	-0.256
Mof_C 	C 	0.9214	0.8528	0.8665	0.201
Mof_C 	C 	0.0046	0.7926	0.877	-0.296
Mof_C 	C 	0.8359	0.9821	0.8195	0.439
Mof_C 	C 	0.2596	0.5686	0.84735	-0.006
Mof_C 	C 	0.1893	0.5341	0.7812	0.251
Mof_C 	C 	0.158	0.5642	0.7345	-0.22
Mof_C 	C 	0.1068	0.524	0.7146	0.1
Mof_C 	C 	0.0866	0.4566	0.7412	-0.124
Mof_C 	C 	0.1157	0.4275	0.7887	0.091
Mof_C 	C 	0.1705	0.4705	0.8072	-0.239
Mof_C 	C 	0.0239	0.4125	0.7221	0.313
Mof_C 	C 	0.1731	0.6575	0.3962	0.327
Mof_C 	C 	0.2093	0.6561	0.4435	-0.167
Mof_C 	C 	0.2741	0.6893	0.4488	0.142
Mof_C 	C 	0.3084	0.6914	0.4929	-0.254
Mof_C 	C 	0.2737	0.6569	0.534	0.262
Mof_C 	C 	0.2088	0.6184	0.53	-0.235
Mof_C 	C 	0.1769	0.6195	0.4848	0.129
Mof_C 	C 	0.36164	0.69524	0.58905	0.007
Mof_C 	C 	0.358	0.7056	0.64297	0.019
Mof_C 	C 	0.367	0.6204	0.67111	0.015
Mof_C 	C 	0.4757	0.4809	0.68	0.292
Mof_C 	C 	0.4257	0.4501	0.7164	-0.283
Mof_C 	C 	0.461	0.373	0.7399	0.172
Mof_C 	C 	0.545	0.3204	0.7269	-0.197
Mof_C 	C 	0.5926	0.3508	0.6906	0.167
Mof_C 	C 	0.5575	0.4303	0.6674	-0.28
Mof_C 	C 	0.5848	0.236	0.7558	0.376
Mof_C 	C 	0.2703	0.7681	0.6592	0.031
Mof_C 	C 	0.1985	0.9211	0.647	0.332
Mof_C 	C 	0.1335	0.9251	0.6801	-0.328
Mof_C 	C 	0.075	0.0078	0.6892	0.209
Mof_C 	C 	0.0827	0.0817	0.6666	-0.257
Mof_C 	C 	0.1472	0.0786	0.6335	0.201
Mof_C 	C 	0.2074	0.9954	0.623	-0.296
Mof_C 	C 	0.0179	0.1641	0.6805	0.44
Mof_C 	C 	0.4314	0.7404	0.65265	-0.006
Mof_C 	C 	0.4659	0.8107	0.7188	0.251
Mof_C 	C 	0.4358	0.842	0.7655	-0.22
Mof_C 	C 	0.476	0.8932	0.7854	0.1
Mof_C 	C 	0.5434	0.9134	0.7588	-0.124
Mof_C 	C 	0.5725	0.8843	0.7113	0.091
Mof_C 	C 	0.5295	0.8295	0.6928	-0.239
Mof_C 	C 	0.5875	0.9761	0.7779	0.313
Mof_C 	C 	0.6575	0.1731	0.8962	0.327
Mof_C 	C 	0.6561	0.2093	0.9435	-0.167
Mof_C 	C 	0.6893	0.2741	0.9488	0.142
Mof_C 	C 	0.6914	0.3084	0.9929	-0.253
Mof_C 	C 	0.6569	0.2737	0.034	0.262
Mof_C 	C 	0.6184	0.2088	0.03	-0.235
Mof_C 	C 	0.6195	0.1769	0.9848	0.129
Mof_C 	C 	0.69524	0.36164	0.08905	0.007
Mof_C 	C 	0.7056	0.358	0.14297	0.019
Mof_C 	C 	0.6204	0.367	0.17111	0.015
Mof_C 	C 	0.4809	0.4757	0.18	0.292
Mof_C 	C 	0.4501	0.4257	0.2164	-0.283
Mof_C 	C 	0.373	0.461	0.2399	0.172
Mof_C 	C 	0.3204	0.545	0.2269	-0.197
Mof_C 	C 	0.3508	0.5926	0.1906	0.167
Mof_C 	C 	0.4303	0.5575	0.1674	-0.28
Mof_C 	C 	0.236	0.5848	0.2558	0.376
Mof_C 	C 	0.7681	0.2703	0.1592	0.031
Mof_C 	C 	0.9211	0.1985	0.147	0.332
Mof_C 	C 	0.9251	0.1335	0.1801	-0.328
Mof_C 	C 	0.0078	0.075	0.1892	0.208
Mof_C 	C 	0.0817	0.0827	0.1666	-0.256
Mof_C 	C 	0.0786	0.1472	0.1335	0.201
Mof_C 	C 	0.9954	0.2074	0.123	-0.296
Mof_C 	C 	0.1641	0.0179	0.1805	0.439
Mof_C 	C 	0.7404	0.4314	0.15265	-0.006
Mof_C 	C 	0.8107	0.4659	0.2188	0.251
Mof_C 	C 	0.842	0.4358	0.2655	-0.22
Mof_C 	C 	0.8932	0.476	0.2854	0.1
Mof_C 	C 	0.9134	0.5434	0.2588	-0.124
Mof_C 	C 	0.8843	0.5725	0.2113	0.091
Mof_C 	C 	0.8295	0.5295	0.1928	-0.239
Mof_C 	C 	0.9761	0.5875	0.2779	0.313
Mof_C 	C 	0.8269	0.3425	0.6038	0.327
Mof_C 	C 	0.7907	0.3439	0.5565	-0.167
Mof_C 	C 	0.7259	0.3107	0.5512	0.142
Mof_C 	C 	0.6916	0.3086	0.5071	-0.254
Mof_C 	C 	0.7263	0.3431	0.466	0.262
Mof_C 	C 	0.7912	0.3816	0.47	-0.235
Mof_C 	C 	0.8231	0.3805	0.5152	0.129
Mof_C 	C 	0.63836	0.30476	0.41095	0.007
Mof_C 	C 	0.642	0.2944	0.35703	0.019
Mof_C 	C 	0.633	0.3796	0.32889	0.015
Mof_C 	C 	0.5243	0.5191	0.32	0.292
Mof_C 	C 	0.5743	0.5499	0.2836	-0.283
Mof_C 	C 	0.539	0.627	0.2601	0.172
Mof_C 	C 	0.455	0.6796	0.2731	-0.197
Mof_C 	C 	0.4074	0.6492	0.3094	0.167
Mof_C 	C 	0.4425	0.5697	0.3326	-0.28
Mof_C 	C 	0.4152	0.764	0.2442	0.376
Mof_C 	C 	0.7297	0.2319	0.3408	0.031
Mof_C 	C 	0.8015	0.0789	0.353	0.332
Mof_C 	C 	0.8665	0.0749	0.3199	-0.328
Mof_C 	C 	0.925	0.9922	0.3108	0.209
Mof_C 	C 	0.9173	0.9183	0.3334	-0.257
Mof_C 	C 	0.8528	0.9214	0.3665	0.201
Mof_C 	C 	0.7926	0.0046	0.377	-0.296
Mof_C 	C 	0.9821	0.8359	0.3195	0.44
Mof_C 	C 	0.5686	0.2596	0.34735	-0.006
Mof_C 	C 	0.5341	0.1893	0.2812	0.251
Mof_C 	C 	0.5642	0.158	0.2345	-0.22
Mof_C 	C 	0.524	0.1068	0.2146	0.1
Mof_C 	C 	0.4566	0.0866	0.2412	-0.124
Mof_C 	C 	0.4275	0.1157	0.2887	0.091
Mof_C 	C 	0.4705	0.1705	0.3072	-0.239
Mof_C 	C 	0.4125	0.0239	0.2221	0.313
Mof_O 	O 	0.38536	0.87856	0.10781	-0.246
Mof_O 	O 	0.29614	0.80774	0.13869	-0.238
Mof_O 	O 	0.34367	0.70327	0.91899	-0.232
Mof_O 	O 	0.43901	0.55261	0.84434	-0.241
Mof_O 	O 	0.80512	0.33792	0.75357	-0.256
Mof_O 	O 	0.78864	0.46112	0.71038	-0.43
Mof_O 	O 	0.152	0.7374	0.86633	-0.257
Mof_O 	O 	0.76901	0.97221	0.8461	-0.456
Mof_O 	O 	0.82668	0.03828	0.78954	-0.285
Mof_O 	O 	0.2415	0.5801	0.79566	-0.232
Mof_O 	O 	0.002	0.3586	0.749	-0.274
Mof_O 	O 	0.99891	0.43591	0.6804	-0.265
Mof_O 	O 	0.12144	0.61464	0.39219	-0.246
Mof_O 	O 	0.19226	0.70386	0.36131	-0.238
Mof_O 	O 	0.29673	0.65633	0.58101	-0.232
Mof_O 	O 	0.44739	0.56099	0.65566	-0.241
Mof_O 	O 	0.66208	0.19488	0.74643	-0.256
Mof_O 	O 	0.53888	0.21136	0.78962	-0.43
Mof_O 	O 	0.2626	0.848	0.63367	-0.257
Mof_O 	O 	0.02779	0.23099	0.6539	-0.456
Mof_O 	O 	0.96172	0.17332	0.71046	-0.285
Mof_O 	O 	0.4199	0.7585	0.70434	-0.232
Mof_O 	O 	0.6414	0.998	0.751	-0.274
Mof_O 	O 	0.56409	0.00109	0.8196	-0.264
Mof_O 	O 	0.61464	0.12144	0.89219	-0.246
Mof_O 	O 	0.70386	0.19226	0.86131	-0.238
Mof_O 	O 	0.65633	0.29673	0.08101	-0.232
Mof_O 	O 	0.56099	0.44739	0.15566	-0.241
Mof_O 	O 	0.19488	0.66208	0.24643	-0.256
Mof_O 	O 	0.21136	0.53888	0.28962	-0.43
Mof_O 	O 	0.848	0.2626	0.13367	-0.257
Mof_O 	O 	0.23099	0.02779	0.1539	-0.456
Mof_O 	O 	0.17332	0.96172	0.21046	-0.285
Mof_O 	O 	0.7585	0.4199	0.20434	-0.232
Mof_O 	O 	0.998	0.6414	0.251	-0.274
Mof_O 	O 	0.00109	0.56409	0.3196	-0.265
Mof_O 	O 	0.87856	0.38536	0.60781	-0.246
Mof_O 	O 	0.80774	0.29614	0.63869	-0.238
Mof_O 	O 	0.70327	0.34367	0.41899	-0.232
Mof_O 	O 	0.55261	0.43901	0.34434	-0.241
Mof_O 	O 	0.33792	0.80512	0.25357	-0.256
Mof_O 	O 	0.46112	0.78864	0.21038	-0.43
Mof_O 	O 	0.7374	0.152	0.36633	-0.257
Mof_O 	O 	0.97221	0.76901	0.3461	-0.456
Mof_O 	O 	0.03828	0.82668	0.28954	-0.285
Mof_O 	O 	0.5801	0.2415	0.29566	-0.232
Mof_O 	O 	0.3586	0.002	0.249	-0.274
Mof_O 	O 	0.43591	0.99891	0.1804	-0.264
_end
