data_functionalizedCrystal
_audit_creation_method	'EQeq! by Chris Wilmer'
_symmetry_space_group_name_H-M	'P1'
_symmetry_Int_Tables_number	1
_symmetry_cell_setting	triclinic
loop_
_symmetry_equiv_pos_as_xyz
  x,y,z
_cell_length_a	16.7942
_cell_length_b	16.7942
_cell_length_c	16.7942
_cell_angle_alpha	90
_cell_angle_beta	90
_cell_angle_gamma	90
loop_
_atom_site_label
_atom_site_type_symbol
_atom_site_fract_x
_atom_site_fract_y
_atom_site_fract_z
_atom_site_charge
Mof_P 	P 	0.12289	0.43554	0.12217	0.655
Mof_O 	O 	0.14597	0.35132	0.14297	-0.429
Mof_O 	O 	0.19471	0.48395	0.09007	-0.823
Mof_O 	O 	0.09342	0.48318	0.19447	-0.729
Mof_O 	O 	0.05757	0.43542	0.05792	-0.683
Mof_P 	P 	0.87711	0.56446	0.12217	0.662
Mof_O 	O 	0.85403	0.64868	0.14297	-0.21
Mof_O 	O 	0.80529	0.51605	0.09007	-0.81
Mof_O 	O 	0.90658	0.51682	0.19447	-0.477
Mof_O 	O 	0.94243	0.56458	0.05792	-0.319
Mof_P 	P 	0.87711	0.43554	0.87783	0.67
Mof_O 	O 	0.85403	0.35132	0.85703	-0.098
Mof_O 	O 	0.80529	0.48395	0.90993	-0.548
Mof_O 	O 	0.90658	0.48318	0.80553	-0.459
Mof_O 	O 	0.94243	0.43542	0.94208	-0.002
Mof_P 	P 	0.12289	0.56446	0.87783	0.662
Mof_O 	O 	0.14597	0.64868	0.85703	-0.204
Mof_O 	O 	0.19471	0.51605	0.90993	-0.563
Mof_O 	O 	0.09342	0.51682	0.80553	-0.713
Mof_O 	O 	0.05757	0.56458	0.94208	-0.321
Mof_P 	P 	0.12217	0.12289	0.43554	0.656
Mof_O 	O 	0.14297	0.14597	0.35132	-0.428
Mof_O 	O 	0.09007	0.19471	0.48395	-0.822
Mof_O 	O 	0.19447	0.09342	0.48318	-0.728
Mof_O 	O 	0.05792	0.05757	0.43542	-0.682
Mof_P 	P 	0.12217	0.87711	0.56446	0.663
Mof_O 	O 	0.14297	0.85403	0.64868	-0.21
Mof_O 	O 	0.09007	0.80529	0.51605	-0.81
Mof_O 	O 	0.19447	0.90658	0.51682	-0.477
Mof_O 	O 	0.05792	0.94243	0.56458	-0.319
Mof_P 	P 	0.87783	0.87711	0.43554	0.67
Mof_O 	O 	0.85703	0.85403	0.35132	-0.098
Mof_O 	O 	0.90993	0.80529	0.48395	-0.548
Mof_O 	O 	0.80553	0.90658	0.48318	-0.459
Mof_O 	O 	0.94208	0.94243	0.43542	-0.002
Mof_P 	P 	0.87783	0.12289	0.56446	0.662
Mof_O 	O 	0.85703	0.14597	0.64868	-0.204
Mof_O 	O 	0.90993	0.19471	0.51605	-0.563
Mof_O 	O 	0.80553	0.09342	0.51682	-0.713
Mof_O 	O 	0.94208	0.05757	0.56458	-0.321
Mof_P 	P 	0.43554	0.12217	0.12289	0.656
Mof_O 	O 	0.35132	0.14297	0.14597	-0.428
Mof_O 	O 	0.48395	0.09007	0.19471	-0.822
Mof_O 	O 	0.48318	0.19447	0.09342	-0.728
Mof_O 	O 	0.43542	0.05792	0.05757	-0.682
Mof_P 	P 	0.56446	0.12217	0.87711	0.663
Mof_O 	O 	0.64868	0.14297	0.85403	-0.21
Mof_O 	O 	0.51605	0.09007	0.80529	-0.81
Mof_O 	O 	0.51682	0.19447	0.90658	-0.477
Mof_O 	O 	0.56458	0.05792	0.94243	-0.319
Mof_P 	P 	0.43554	0.87783	0.87711	0.67
Mof_O 	O 	0.35132	0.85703	0.85403	-0.098
Mof_O 	O 	0.48395	0.90993	0.80529	-0.548
Mof_O 	O 	0.48318	0.80553	0.90658	-0.459
Mof_O 	O 	0.43542	0.94208	0.94243	-0.002
Mof_P 	P 	0.56446	0.87783	0.12289	0.662
Mof_O 	O 	0.64868	0.85703	0.14597	-0.204
Mof_O 	O 	0.51605	0.90993	0.19471	-0.563
Mof_O 	O 	0.51682	0.80553	0.09342	-0.713
Mof_O 	O 	0.56458	0.94208	0.05757	-0.321
Mof_P 	P 	0.93554	0.62289	0.62217	0.773
Mof_O 	O 	0.85132	0.64597	0.64297	-0.181
Mof_O 	O 	0.98395	0.69471	0.59007	-0.522
Mof_O 	O 	0.98318	0.59342	0.69447	-0.43
Mof_O 	O 	0.93542	0.55757	0.55792	-0.751
Mof_P 	P 	0.06446	0.37711	0.62217	0.778
Mof_O 	O 	0.14868	0.35403	0.64297	-0.29
Mof_O 	O 	0.01605	0.30529	0.59007	-0.908
Mof_O 	O 	0.01682	0.40658	0.69447	-0.829
Mof_O 	O 	0.06458	0.44243	0.55792	-1.044
Mof_P 	P 	0.93554	0.37711	0.37783	0.76
Mof_O 	O 	0.85132	0.35403	0.35703	-0.239
Mof_O 	O 	0.98395	0.30529	0.40993	-0.537
Mof_O 	O 	0.98318	0.40658	0.30553	-0.451
Mof_O 	O 	0.93542	0.44243	0.44208	-0.748
Mof_P 	P 	0.06446	0.62289	0.37783	0.778
Mof_O 	O 	0.14868	0.64597	0.35703	-0.29
Mof_O 	O 	0.01605	0.69471	0.40993	-0.926
Mof_O 	O 	0.01682	0.59342	0.30553	-0.815
Mof_O 	O 	0.06458	0.55757	0.44208	-1.045
Mof_P 	P 	0.62289	0.62217	0.93554	0.773
Mof_O 	O 	0.64597	0.64297	0.85132	-0.181
Mof_O 	O 	0.69471	0.59007	0.98395	-0.522
Mof_O 	O 	0.59342	0.69447	0.98318	-0.43
Mof_O 	O 	0.55757	0.55792	0.93542	-0.751
Mof_P 	P 	0.37711	0.62217	0.06446	0.778
Mof_O 	O 	0.35403	0.64297	0.14868	-0.29
Mof_O 	O 	0.30529	0.59007	0.01605	-0.908
Mof_O 	O 	0.40658	0.69447	0.01682	-0.829
Mof_O 	O 	0.44243	0.55792	0.06458	-1.044
Mof_P 	P 	0.37711	0.37783	0.93554	0.76
Mof_O 	O 	0.35403	0.35703	0.85132	-0.239
Mof_O 	O 	0.30529	0.40993	0.98395	-0.537
Mof_O 	O 	0.40658	0.30553	0.98318	-0.451
Mof_O 	O 	0.44243	0.44208	0.93542	-0.748
Mof_P 	P 	0.62289	0.37783	0.06446	0.778
Mof_O 	O 	0.64597	0.35703	0.14868	-0.29
Mof_O 	O 	0.69471	0.40993	0.01605	-0.926
Mof_O 	O 	0.59342	0.30553	0.01682	-0.815
Mof_O 	O 	0.55757	0.44208	0.06458	-1.045
Mof_P 	P 	0.62217	0.93554	0.62289	0.773
Mof_O 	O 	0.64297	0.85132	0.64597	-0.181
Mof_O 	O 	0.59007	0.98395	0.69471	-0.522
Mof_O 	O 	0.69447	0.98318	0.59342	-0.43
Mof_O 	O 	0.55792	0.93542	0.55757	-0.751
Mof_P 	P 	0.62217	0.06446	0.37711	0.778
Mof_O 	O 	0.64297	0.14868	0.35403	-0.29
Mof_O 	O 	0.59007	0.01605	0.30529	-0.908
Mof_O 	O 	0.69447	0.01682	0.40658	-0.829
Mof_O 	O 	0.55792	0.06458	0.44243	-1.044
Mof_P 	P 	0.37783	0.93554	0.37711	0.76
Mof_O 	O 	0.35703	0.85132	0.35403	-0.239
Mof_O 	O 	0.40993	0.98395	0.30529	-0.537
Mof_O 	O 	0.30553	0.98318	0.40658	-0.451
Mof_O 	O 	0.44208	0.93542	0.44243	-0.748
Mof_P 	P 	0.37783	0.06446	0.62289	0.778
Mof_O 	O 	0.35703	0.14868	0.64597	-0.29
Mof_O 	O 	0.40993	0.01605	0.69471	-0.926
Mof_O 	O 	0.30553	0.01682	0.59342	-0.815
Mof_O 	O 	0.44208	0.06458	0.55757	-1.045
Mof_Al	Al	5.32933e-33	0.5	-0	0.398
Mof_Al	Al	7.20403e-33	5.32933e-33	0.5	0.398
Mof_Al	Al	0.5	0	-0	0.398
Mof_Al	Al	1.25334e-32	0.5	0.5	2.787
Mof_Al	Al	0.5	0.5	-0	2.787
Mof_Al	Al	0.5	5.32933e-33	0.5	2.787
Mof_Al	Al	0.25	0.5	-0	2.24
Mof_Al	Al	0.75	0.5	-0	2.365
Mof_Al	Al	1.8747e-33	0.25	0.5	2.24
Mof_Al	Al	1.78627e-32	0.75	0.5	2.365
Mof_Al	Al	0.5	2.66466e-33	0.25	2.24
Mof_Al	Al	0.5	0	0.75	2.365
Mof_Al	Al	9.3735e-34	0.5	0.25	1.873
Mof_Al	Al	1.88e-32	0.5	0.75	1.989
Mof_Al	Al	0.25	5.32933e-33	0.5	1.873
Mof_Al	Al	0.75	5.32933e-33	0.5	1.989
Mof_Al	Al	0.5	0.25	-0	1.873
Mof_Al	Al	0.5	0.75	-0	1.989
_end
