data_functionalizedCrystal
_audit_creation_method	'EQeq! by Chris Wilmer'
_symmetry_space_group_name_H-M	'P1'
_symmetry_Int_Tables_number	1
_symmetry_cell_setting	triclinic
loop_
_symmetry_equiv_pos_as_xyz
  x,y,z
_cell_length_a	40.2669
_cell_length_b	13.9032
_cell_length_c	25.9948
_cell_angle_alpha	90
_cell_angle_beta	104.201
_cell_angle_gamma	90
loop_
_atom_site_label
_atom_site_type_symbol
_atom_site_fract_x
_atom_site_fract_y
_atom_site_fract_z
_atom_site_charge
Mof_Co	Co	0.79425	0.52614	0.53803	1.169
Mof_O 	O 	0.30269	0.1786	0.51551	-0.466
Mof_O 	O 	0.72977	0.37814	0.96317	-0.437
Mof_O 	O 	0.33858	0.11303	0.58444	-0.357
Mof_O 	O 	0.74125	0.6988	0.57148	-0.423
Mof_O 	O 	0.31042	0.88653	0.57172	-0.365
Mof_O 	O 	0.75969	0.51221	0.9676	-0.424
Mof_O 	O 	0.76347	0.54981	0.59016	-0.424
Mof_O 	O 	0.33936	0.93775	0.51564	-0.332
Mof_N 	N 	0.40933	0.52539	0.58247	-0.179
Mof_N 	N 	0.65931	0.55971	0.73845	-0.182
Mof_C 	C 	0.71438	0.48711	0.8914	-0.159
Mof_C 	C 	0.3634	0.42854	0.52971	-0.18
Mof_H 	H 	0.3581	0.4794	0.5046	0.099
Mof_C 	C 	0.39078	0.61373	0.57358	0.154
Mof_C 	C 	0.39051	0.43767	0.57378	0.162
Mof_C 	C 	0.44487	0.52641	0.60598	0.123
Mof_C 	C 	0.73661	0.45703	0.94541	0.412
Mof_C 	C 	0.67599	0.53526	0.79084	0.166
Mof_C 	C 	0.36176	0.6247	0.59143	-0.178
Mof_H 	H 	0.3542	0.5738	0.6101	0.099
Mof_C 	C 	0.72132	0.60227	0.63188	-0.166
Mof_C 	C 	0.35411	0.78376	0.5562	-0.122
Mof_C 	C 	0.72876	0.53046	0.67006	0.111
Mof_H 	H 	0.7483	0.491	0.6724	0.013
Mof_C 	C 	0.3439	0.34533	0.52208	0.088
Mof_H 	H 	0.3252	0.3393	0.4918	0.014
Mof_C 	C 	0.68005	0.57313	0.70184	0.173
Mof_C 	C 	0.37967	0.27984	0.60197	0.087
Mof_H 	H 	0.3859	0.2281	0.6263	0.019
Mof_C 	C 	0.62362	0.54343	0.71841	0.12
Mof_C 	C 	0.68746	0.42931	0.86566	0.094
Mof_H 	H 	0.6822	0.3725	0.8824	0.015
Mof_C 	C 	0.38373	0.77277	0.53724	0.074
Mof_H 	H 	0.391	0.8235	0.5181	0.023
Mof_C 	C 	0.4591	0.5966	0.64181	-0.125
Mof_H 	H 	0.445	0.6452	0.651	0.076
Mof_C 	C 	0.7215	0.57039	0.86795	0.097
Mof_H 	H 	0.7397	0.6105	0.886	0.021
Mof_C 	C 	0.70853	0.51549	0.70426	-0.198
Mof_H 	H 	0.7139	0.4655	0.7298	0.106
Mof_C 	C 	0.3516	0.27015	0.55888	-0.147
Mof_C 	C 	0.74355	0.61882	0.59426	0.394
Mof_C 	C 	0.70234	0.59628	0.81822	-0.184
Mof_H 	H 	0.7069	0.655	0.8026	0.103
Mof_C 	C 	0.49429	0.59656	0.66469	-0.01
Mof_H 	H 	0.5037	0.6462	0.689	0.034
Mof_C 	C 	0.39875	0.36371	0.61003	-0.185
Mof_H 	H 	0.4174	0.3703	0.6403	0.097
Mof_C 	C 	0.33013	0.18362	0.5529	0.333
Mof_C 	C 	0.34346	0.70994	0.58232	0.079
Mof_H 	H 	0.3232	0.7168	0.5945	0.025
Mof_C 	C 	0.46592	0.45594	0.59331	-0.123
Mof_H 	H 	0.4564	0.4069	0.5686	0.077
Mof_C 	C 	0.67245	0.64481	0.66382	-0.198
Mof_H 	H 	0.6528	0.684	0.6613	0.104
Mof_C 	C 	0.61098	0.506	0.66855	-0.12
Mof_H 	H 	0.6263	0.4853	0.6483	0.077
Mof_C 	C 	0.40211	0.68945	0.54629	-0.171
Mof_H 	H 	0.4224	0.6826	0.5343	0.093
Mof_C 	C 	0.60142	0.57097	0.74917	-0.117
Mof_H 	H 	0.61	0.5944	0.7843	0.075
Mof_C 	C 	0.69301	0.65957	0.63005	0.109
Mof_H 	H 	0.6878	0.7102	0.6048	0.01
Mof_C 	C 	0.66802	0.45426	0.81512	-0.192
Mof_H 	H 	0.6493	0.415	0.7977	0.1
Mof_C 	C 	0.51553	0.52785	0.65343	-0.01
Mof_C 	C 	0.57546	0.4982	0.64738	-0.015
Mof_H 	H 	0.5668	0.4725	0.6128	0.036
Mof_C 	C 	0.3334	0.87492	0.54693	0.316
Mof_C 	C 	0.50056	0.45687	0.6165	-0.009
Mof_H 	H 	0.5147	0.4083	0.6073	0.034
Mof_C 	C 	0.5529	0.52834	0.6775	-0.004
Mof_C 	C 	0.56636	0.56337	0.72723	-0.015
Mof_H 	H 	0.5511	0.5835	0.7478	0.037
Mof_Co	Co	0.29425	0.02614	0.53803	1.17
Mof_O 	O 	0.80269	0.6786	0.51551	-0.465
Mof_O 	O 	0.22977	0.87814	0.96317	-0.436
Mof_O 	O 	0.83858	0.61303	0.58444	-0.356
Mof_O 	O 	0.24125	0.1988	0.57148	-0.422
Mof_O 	O 	0.81042	0.38653	0.57172	-0.364
Mof_O 	O 	0.25969	0.01221	0.9676	-0.423
Mof_O 	O 	0.26347	0.04981	0.59016	-0.423
Mof_O 	O 	0.83936	0.43775	0.51564	-0.331
Mof_N 	N 	0.90933	0.02539	0.58247	-0.179
Mof_N 	N 	0.15931	0.05971	0.73845	-0.182
Mof_C 	C 	0.21438	0.98711	0.8914	-0.159
Mof_C 	C 	0.8634	0.92854	0.52971	-0.18
Mof_H 	H 	0.8581	0.9794	0.5046	0.098
Mof_C 	C 	0.89078	0.11373	0.57358	0.154
Mof_C 	C 	0.89051	0.93767	0.57378	0.162
Mof_C 	C 	0.94487	0.02641	0.60598	0.123
Mof_C 	C 	0.23661	0.95703	0.94541	0.412
Mof_C 	C 	0.17599	0.03526	0.79084	0.166
Mof_C 	C 	0.86176	0.1247	0.59143	-0.178
Mof_H 	H 	0.8542	0.0738	0.6101	0.099
Mof_C 	C 	0.22132	0.10227	0.63188	-0.166
Mof_C 	C 	0.85411	0.28376	0.5562	-0.122
Mof_C 	C 	0.22876	0.03046	0.67006	0.111
Mof_H 	H 	0.2483	0.991	0.6724	0.013
Mof_C 	C 	0.8439	0.84533	0.52208	0.088
Mof_H 	H 	0.8252	0.8393	0.4918	0.014
Mof_C 	C 	0.18005	0.07313	0.70184	0.173
Mof_C 	C 	0.87967	0.77984	0.60197	0.087
Mof_H 	H 	0.8859	0.7281	0.6263	0.019
Mof_C 	C 	0.12362	0.04343	0.71841	0.12
Mof_C 	C 	0.18746	0.92931	0.86566	0.094
Mof_H 	H 	0.1822	0.8725	0.8824	0.015
Mof_C 	C 	0.88373	0.27277	0.53724	0.074
Mof_H 	H 	0.891	0.3235	0.5181	0.023
Mof_C 	C 	0.9591	0.0966	0.64181	-0.125
Mof_H 	H 	0.945	0.1452	0.651	0.076
Mof_C 	C 	0.2215	0.07039	0.86795	0.097
Mof_H 	H 	0.2397	0.1105	0.886	0.021
Mof_C 	C 	0.20853	0.01549	0.70426	-0.198
Mof_H 	H 	0.2139	0.9655	0.7298	0.106
Mof_C 	C 	0.8516	0.77015	0.55888	-0.147
Mof_C 	C 	0.24355	0.11882	0.59426	0.394
Mof_C 	C 	0.20234	0.09628	0.81822	-0.184
Mof_H 	H 	0.2069	0.155	0.8026	0.103
Mof_C 	C 	0.99429	0.09656	0.66469	-0.011
Mof_H 	H 	0.0037	0.1462	0.689	0.035
Mof_C 	C 	0.89875	0.86371	0.61003	-0.185
Mof_H 	H 	0.9174	0.8703	0.6403	0.097
Mof_C 	C 	0.83013	0.68362	0.5529	0.333
Mof_C 	C 	0.84346	0.20994	0.58232	0.079
Mof_H 	H 	0.8232	0.2168	0.5945	0.025
Mof_C 	C 	0.96592	0.95594	0.59331	-0.124
Mof_H 	H 	0.9564	0.9069	0.5686	0.077
Mof_C 	C 	0.17245	0.14481	0.66382	-0.198
Mof_H 	H 	0.1528	0.184	0.6613	0.104
Mof_C 	C 	0.11098	0.006	0.66855	-0.12
Mof_H 	H 	0.1263	0.9853	0.6483	0.077
Mof_C 	C 	0.90211	0.18945	0.54629	-0.171
Mof_H 	H 	0.9224	0.1826	0.5343	0.093
Mof_C 	C 	0.10142	0.07097	0.74917	-0.117
Mof_H 	H 	0.11	0.0944	0.7843	0.075
Mof_C 	C 	0.19301	0.15957	0.63005	0.109
Mof_H 	H 	0.1878	0.2102	0.6048	0.01
Mof_C 	C 	0.16802	0.95426	0.81512	-0.192
Mof_H 	H 	0.1493	0.915	0.7977	0.1
Mof_C 	C 	0.01553	0.02785	0.65343	-0.01
Mof_C 	C 	0.07546	0.9982	0.64738	-0.015
Mof_H 	H 	0.0668	0.9725	0.6128	0.036
Mof_C 	C 	0.8334	0.37492	0.54693	0.317
Mof_C 	C 	0.00056	0.95687	0.6165	-0.009
Mof_H 	H 	0.0147	0.9083	0.6073	0.034
Mof_C 	C 	0.0529	0.02834	0.6775	-0.004
Mof_C 	C 	0.06636	0.06337	0.72723	-0.015
Mof_H 	H 	0.0511	0.0835	0.7478	0.037
Mof_Co	Co	0.20575	0.52614	0.96197	1.175
Mof_O 	O 	0.69731	0.1786	0.98449	-0.456
Mof_O 	O 	0.27023	0.37814	0.53683	-0.447
Mof_O 	O 	0.66142	0.11303	0.91556	-0.358
Mof_O 	O 	0.25875	0.6988	0.92852	-0.415
Mof_O 	O 	0.68958	0.88653	0.92828	-0.361
Mof_O 	O 	0.24031	0.51221	0.5324	-0.436
Mof_O 	O 	0.23653	0.54981	0.90984	-0.419
Mof_O 	O 	0.66064	0.93775	0.98436	-0.324
Mof_N 	N 	0.59067	0.52539	0.91753	-0.182
Mof_N 	N 	0.34069	0.55971	0.76155	-0.182
Mof_C 	C 	0.28562	0.48711	0.6086	-0.163
Mof_C 	C 	0.6366	0.42854	0.97029	-0.215
Mof_H 	H 	0.6419	0.4794	0.9954	0.116
Mof_C 	C 	0.60922	0.61373	0.92642	0.156
Mof_C 	C 	0.60949	0.43767	0.92622	0.182
Mof_C 	C 	0.55513	0.52641	0.89402	0.125
Mof_C 	C 	0.26339	0.45703	0.55459	0.416
Mof_C 	C 	0.32401	0.53526	0.70916	0.168
Mof_C 	C 	0.63824	0.6247	0.90857	-0.177
Mof_H 	H 	0.6458	0.5738	0.8899	0.099
Mof_C 	C 	0.27868	0.60227	0.86812	-0.164
Mof_C 	C 	0.64589	0.78376	0.9438	-0.12
Mof_C 	C 	0.27124	0.53046	0.82994	0.11
Mof_H 	H 	0.2517	0.491	0.8276	0.013
Mof_C 	C 	0.6561	0.34533	0.97792	0.151
Mof_H 	H 	0.6748	0.3393	0.0082	-0.024
Mof_C 	C 	0.31995	0.57313	0.79816	0.173
Mof_C 	C 	0.62033	0.27984	0.89803	0.108
Mof_H 	H 	0.6141	0.2281	0.8737	0.013
Mof_C 	C 	0.37638	0.54343	0.78159	0.12
Mof_C 	C 	0.31254	0.42931	0.63434	0.096
Mof_H 	H 	0.3178	0.3725	0.6176	0.014
Mof_C 	C 	0.61627	0.77277	0.96276	0.075
Mof_H 	H 	0.609	0.8235	0.9819	0.027
Mof_C 	C 	0.5409	0.5966	0.85819	-0.125
Mof_H 	H 	0.555	0.6452	0.849	0.077
Mof_C 	C 	0.2785	0.57039	0.63205	0.099
Mof_H 	H 	0.2603	0.6105	0.614	0.018
Mof_C 	C 	0.29147	0.51549	0.79574	-0.197
Mof_H 	H 	0.2861	0.4655	0.7702	0.106
Mof_C 	C 	0.6484	0.27015	0.94112	-0.173
Mof_C 	C 	0.25645	0.61882	0.90574	0.393
Mof_C 	C 	0.29766	0.59628	0.68178	-0.186
Mof_H 	H 	0.2931	0.655	0.6974	0.103
Mof_C 	C 	0.50571	0.59656	0.83531	-0.009
Mof_H 	H 	0.4963	0.6462	0.811	0.035
Mof_C 	C 	0.60125	0.36371	0.88997	-0.203
Mof_H 	H 	0.5826	0.3703	0.8597	0.104
Mof_C 	C 	0.66987	0.18362	0.9471	0.344
Mof_C 	C 	0.65654	0.70994	0.91768	0.079
Mof_H 	H 	0.6768	0.7168	0.9055	0.027
Mof_C 	C 	0.53408	0.45594	0.90669	-0.123
Mof_H 	H 	0.5436	0.4069	0.9314	0.08
Mof_C 	C 	0.32755	0.64481	0.83618	-0.197
Mof_H 	H 	0.3472	0.684	0.8387	0.106
Mof_C 	C 	0.38902	0.506	0.83145	-0.119
Mof_H 	H 	0.3737	0.4853	0.8517	0.079
Mof_C 	C 	0.59789	0.68945	0.95371	-0.17
Mof_H 	H 	0.5776	0.6826	0.9657	0.097
Mof_C 	C 	0.39858	0.57097	0.75083	-0.116
Mof_H 	H 	0.39	0.5944	0.7157	0.075
Mof_C 	C 	0.30699	0.65957	0.86995	0.109
Mof_H 	H 	0.3122	0.7102	0.8952	0.013
Mof_C 	C 	0.33198	0.45426	0.68488	-0.193
Mof_H 	H 	0.3507	0.415	0.7023	0.101
Mof_C 	C 	0.48447	0.52785	0.84657	-0.01
Mof_C 	C 	0.42454	0.4982	0.85262	-0.014
Mof_H 	H 	0.4332	0.4725	0.8872	0.04
Mof_C 	C 	0.6666	0.87492	0.95307	0.316
Mof_C 	C 	0.49944	0.45687	0.8835	-0.007
Mof_H 	H 	0.4853	0.4083	0.8927	0.037
Mof_C 	C 	0.4471	0.52834	0.8225	-0.003
Mof_C 	C 	0.43364	0.56337	0.77277	-0.015
Mof_H 	H 	0.4489	0.5835	0.7522	0.037
Mof_Co	Co	0.70575	0.02614	0.96197	1.175
Mof_O 	O 	0.19731	0.6786	0.98449	-0.456
Mof_O 	O 	0.77023	0.87814	0.53683	-0.447
Mof_O 	O 	0.16142	0.61303	0.91556	-0.358
Mof_O 	O 	0.75875	0.1988	0.92852	-0.415
Mof_O 	O 	0.18958	0.38653	0.92828	-0.361
Mof_O 	O 	0.74031	0.01221	0.5324	-0.436
Mof_O 	O 	0.73653	0.04981	0.90984	-0.419
Mof_O 	O 	0.16064	0.43775	0.98436	-0.324
Mof_N 	N 	0.09067	0.02539	0.91753	-0.182
Mof_N 	N 	0.84069	0.05971	0.76155	-0.182
Mof_C 	C 	0.78562	0.98711	0.6086	-0.163
Mof_C 	C 	0.1366	0.92854	0.97029	-0.215
Mof_H 	H 	0.1419	0.9794	0.9954	0.116
Mof_C 	C 	0.10922	0.11373	0.92642	0.156
Mof_C 	C 	0.10949	0.93767	0.92622	0.182
Mof_C 	C 	0.05513	0.02641	0.89402	0.125
Mof_C 	C 	0.76339	0.95703	0.55459	0.415
Mof_C 	C 	0.82401	0.03526	0.70916	0.168
Mof_C 	C 	0.13824	0.1247	0.90857	-0.177
Mof_H 	H 	0.1458	0.0738	0.8899	0.099
Mof_C 	C 	0.77868	0.10227	0.86812	-0.163
Mof_C 	C 	0.14589	0.28376	0.9438	-0.12
Mof_C 	C 	0.77124	0.03046	0.82994	0.11
Mof_H 	H 	0.7517	0.991	0.8276	0.014
Mof_C 	C 	0.1561	0.84533	0.97792	0.151
Mof_H 	H 	0.1748	0.8393	0.0082	-0.024
Mof_C 	C 	0.81995	0.07313	0.79816	0.173
Mof_C 	C 	0.12033	0.77984	0.89803	0.108
Mof_H 	H 	0.1141	0.7281	0.8737	0.013
Mof_C 	C 	0.87638	0.04343	0.78159	0.12
Mof_C 	C 	0.81254	0.92931	0.63434	0.096
Mof_H 	H 	0.8178	0.8725	0.6176	0.014
Mof_C 	C 	0.11627	0.27277	0.96276	0.075
Mof_H 	H 	0.109	0.3235	0.9819	0.027
Mof_C 	C 	0.0409	0.0966	0.85819	-0.125
Mof_H 	H 	0.055	0.1452	0.849	0.077
Mof_C 	C 	0.7785	0.07039	0.63205	0.099
Mof_H 	H 	0.7603	0.1105	0.614	0.017
Mof_C 	C 	0.79147	0.01549	0.79574	-0.197
Mof_H 	H 	0.7861	0.9655	0.7702	0.106
Mof_C 	C 	0.1484	0.77015	0.94112	-0.173
Mof_C 	C 	0.75645	0.11882	0.90574	0.393
Mof_C 	C 	0.79766	0.09628	0.68178	-0.186
Mof_H 	H 	0.7931	0.155	0.6974	0.103
Mof_C 	C 	0.00571	0.09656	0.83531	-0.009
Mof_H 	H 	0.9963	0.1462	0.811	0.034
Mof_C 	C 	0.10125	0.86371	0.88997	-0.203
Mof_H 	H 	0.0826	0.8703	0.8597	0.104
Mof_C 	C 	0.16987	0.68362	0.9471	0.343
Mof_C 	C 	0.15654	0.20994	0.91768	0.079
Mof_H 	H 	0.1768	0.2168	0.9055	0.027
Mof_C 	C 	0.03408	0.95594	0.90669	-0.123
Mof_H 	H 	0.0436	0.9069	0.9314	0.08
Mof_C 	C 	0.82755	0.14481	0.83618	-0.197
Mof_H 	H 	0.8472	0.184	0.8387	0.106
Mof_C 	C 	0.88902	0.006	0.83145	-0.119
Mof_H 	H 	0.8737	0.9853	0.8517	0.079
Mof_C 	C 	0.09789	0.18945	0.95371	-0.17
Mof_H 	H 	0.0776	0.1826	0.9657	0.097
Mof_C 	C 	0.89858	0.07097	0.75083	-0.116
Mof_H 	H 	0.89	0.0944	0.7157	0.075
Mof_C 	C 	0.80699	0.15957	0.86995	0.108
Mof_H 	H 	0.8122	0.2102	0.8952	0.013
Mof_C 	C 	0.83198	0.95426	0.68488	-0.194
Mof_H 	H 	0.8507	0.915	0.7023	0.101
Mof_C 	C 	0.98447	0.02785	0.84657	-0.01
Mof_C 	C 	0.92454	0.9982	0.85262	-0.014
Mof_H 	H 	0.9332	0.9725	0.8872	0.04
Mof_C 	C 	0.1666	0.37492	0.95307	0.316
Mof_C 	C 	0.99944	0.95687	0.8835	-0.007
Mof_H 	H 	0.9853	0.9083	0.8927	0.037
Mof_C 	C 	0.9471	0.02834	0.8225	-0.003
Mof_C 	C 	0.93364	0.06337	0.77277	-0.015
Mof_H 	H 	0.9489	0.0835	0.7522	0.037
Mof_Co	Co	0.20575	0.47386	0.46197	1.17
Mof_O 	O 	0.69731	0.8214	0.48449	-0.465
Mof_O 	O 	0.27023	0.62186	0.03683	-0.455
Mof_O 	O 	0.66142	0.88697	0.41556	-0.357
Mof_O 	O 	0.25875	0.3012	0.42852	-0.422
Mof_O 	O 	0.68958	0.11347	0.42828	-0.364
Mof_O 	O 	0.24031	0.48779	0.0324	-0.448
Mof_O 	O 	0.23653	0.45019	0.40984	-0.423
Mof_O 	O 	0.66064	0.06225	0.48436	-0.331
Mof_N 	N 	0.59067	0.47461	0.41753	-0.179
Mof_N 	N 	0.34069	0.44029	0.26155	-0.182
Mof_C 	C 	0.28562	0.51289	0.1086	-0.166
Mof_C 	C 	0.6366	0.57146	0.47029	-0.18
Mof_H 	H 	0.6419	0.5206	0.4954	0.099
Mof_C 	C 	0.60922	0.38627	0.42642	0.154
Mof_C 	C 	0.60949	0.56233	0.42622	0.162
Mof_C 	C 	0.55513	0.47359	0.39402	0.123
Mof_C 	C 	0.26339	0.54297	0.05459	0.418
Mof_C 	C 	0.32401	0.46474	0.20916	0.168
Mof_C 	C 	0.63824	0.3753	0.40857	-0.178
Mof_H 	H 	0.6458	0.4262	0.3899	0.099
Mof_C 	C 	0.27868	0.39773	0.36812	-0.166
Mof_C 	C 	0.64589	0.21624	0.4438	-0.123
Mof_C 	C 	0.27124	0.46954	0.32994	0.111
Mof_H 	H 	0.2517	0.509	0.3276	0.012
Mof_C 	C 	0.6561	0.65467	0.47792	0.088
Mof_H 	H 	0.6748	0.6607	0.5082	0.014
Mof_C 	C 	0.31995	0.42687	0.29816	0.173
Mof_C 	C 	0.62033	0.72016	0.39803	0.087
Mof_H 	H 	0.6141	0.7719	0.3737	0.018
Mof_C 	C 	0.37638	0.45657	0.28159	0.12
Mof_C 	C 	0.31254	0.57069	0.13434	0.097
Mof_H 	H 	0.3178	0.6275	0.1176	0.014
Mof_C 	C 	0.61627	0.22723	0.46276	0.074
Mof_H 	H 	0.609	0.1765	0.4819	0.023
Mof_C 	C 	0.5409	0.4034	0.35819	-0.125
Mof_H 	H 	0.555	0.3548	0.349	0.076
Mof_C 	C 	0.2785	0.42961	0.13205	0.101
Mof_H 	H 	0.2603	0.3895	0.114	0.014
Mof_C 	C 	0.29147	0.48451	0.29574	-0.199
Mof_H 	H 	0.2861	0.5345	0.2702	0.105
Mof_C 	C 	0.6484	0.72985	0.44112	-0.148
Mof_C 	C 	0.25645	0.38118	0.40574	0.394
Mof_C 	C 	0.29766	0.40372	0.18178	-0.188
Mof_H 	H 	0.2931	0.345	0.1974	0.103
Mof_C 	C 	0.50571	0.40344	0.33531	-0.01
Mof_H 	H 	0.4963	0.3538	0.311	0.034
Mof_C 	C 	0.60125	0.63629	0.38997	-0.185
Mof_H 	H 	0.5826	0.6297	0.3597	0.097
Mof_C 	C 	0.66987	0.81638	0.4471	0.333
Mof_C 	C 	0.65654	0.29006	0.41768	0.079
Mof_H 	H 	0.6768	0.2832	0.4055	0.025
Mof_C 	C 	0.53408	0.54406	0.40669	-0.123
Mof_H 	H 	0.5436	0.5931	0.4314	0.077
Mof_C 	C 	0.32755	0.35519	0.33618	-0.199
Mof_H 	H 	0.3472	0.316	0.3387	0.104
Mof_C 	C 	0.38902	0.494	0.33145	-0.12
Mof_H 	H 	0.3737	0.5147	0.3517	0.077
Mof_C 	C 	0.59789	0.31055	0.45371	-0.171
Mof_H 	H 	0.5776	0.3174	0.4657	0.093
Mof_C 	C 	0.39858	0.42903	0.25083	-0.117
Mof_H 	H 	0.39	0.4056	0.2157	0.075
Mof_C 	C 	0.30699	0.34043	0.36995	0.109
Mof_H 	H 	0.3122	0.2898	0.3952	0.009
Mof_C 	C 	0.33198	0.54574	0.18488	-0.194
Mof_H 	H 	0.3507	0.585	0.2023	0.101
Mof_C 	C 	0.48447	0.47215	0.34657	-0.01
Mof_C 	C 	0.42454	0.5018	0.35262	-0.015
Mof_H 	H 	0.4332	0.5275	0.3872	0.036
Mof_C 	C 	0.6666	0.12508	0.45307	0.316
Mof_C 	C 	0.49944	0.54313	0.3835	-0.009
Mof_H 	H 	0.4853	0.5917	0.3927	0.034
Mof_C 	C 	0.4471	0.47166	0.3225	-0.004
Mof_C 	C 	0.43364	0.43663	0.27277	-0.015
Mof_H 	H 	0.4489	0.4165	0.2522	0.037
Mof_Co	Co	0.70575	0.97386	0.46197	1.17
Mof_O 	O 	0.19731	0.3214	0.48449	-0.465
Mof_O 	O 	0.77023	0.12186	0.03683	-0.455
Mof_O 	O 	0.16142	0.38697	0.41556	-0.357
Mof_O 	O 	0.75875	0.8012	0.42852	-0.422
Mof_O 	O 	0.18958	0.61347	0.42828	-0.364
Mof_O 	O 	0.74031	0.98779	0.0324	-0.448
Mof_O 	O 	0.73653	0.95019	0.40984	-0.423
Mof_O 	O 	0.16064	0.56225	0.48436	-0.331
Mof_N 	N 	0.09067	0.97461	0.41753	-0.179
Mof_N 	N 	0.84069	0.94029	0.26155	-0.182
Mof_C 	C 	0.78562	0.01289	0.1086	-0.166
Mof_C 	C 	0.1366	0.07146	0.47029	-0.18
Mof_H 	H 	0.1419	0.0206	0.4954	0.099
Mof_C 	C 	0.10922	0.88627	0.42642	0.154
Mof_C 	C 	0.10949	0.06233	0.42622	0.162
Mof_C 	C 	0.05513	0.97359	0.39402	0.123
Mof_C 	C 	0.76339	0.04297	0.05459	0.418
Mof_C 	C 	0.82401	0.96474	0.20916	0.168
Mof_C 	C 	0.13824	0.8753	0.40857	-0.178
Mof_H 	H 	0.1458	0.9262	0.3899	0.099
Mof_C 	C 	0.77868	0.89773	0.36812	-0.166
Mof_C 	C 	0.14589	0.71624	0.4438	-0.123
Mof_C 	C 	0.77124	0.96954	0.32994	0.11
Mof_H 	H 	0.7517	0.009	0.3276	0.012
Mof_C 	C 	0.1561	0.15467	0.47792	0.088
Mof_H 	H 	0.1748	0.1607	0.5082	0.014
Mof_C 	C 	0.81995	0.92687	0.29816	0.173
Mof_C 	C 	0.12033	0.22016	0.39803	0.087
Mof_H 	H 	0.1141	0.2719	0.3737	0.018
Mof_C 	C 	0.87638	0.95657	0.28159	0.12
Mof_C 	C 	0.81254	0.07069	0.13434	0.097
Mof_H 	H 	0.8178	0.1275	0.1176	0.014
Mof_C 	C 	0.11627	0.72723	0.46276	0.074
Mof_H 	H 	0.109	0.6765	0.4819	0.023
Mof_C 	C 	0.0409	0.9034	0.35819	-0.125
Mof_H 	H 	0.055	0.8548	0.349	0.076
Mof_C 	C 	0.7785	0.92961	0.13205	0.101
Mof_H 	H 	0.7603	0.8895	0.114	0.014
Mof_C 	C 	0.79147	0.98451	0.29574	-0.199
Mof_H 	H 	0.7861	0.0345	0.2702	0.105
Mof_C 	C 	0.1484	0.22985	0.44112	-0.148
Mof_C 	C 	0.75645	0.88118	0.40574	0.394
Mof_C 	C 	0.79766	0.90372	0.18178	-0.188
Mof_H 	H 	0.7931	0.845	0.1974	0.103
Mof_C 	C 	0.00571	0.90344	0.33531	-0.01
Mof_H 	H 	0.9963	0.8538	0.311	0.034
Mof_C 	C 	0.10125	0.13629	0.38997	-0.185
Mof_H 	H 	0.0826	0.1297	0.3597	0.097
Mof_C 	C 	0.16987	0.31638	0.4471	0.333
Mof_C 	C 	0.15654	0.79006	0.41768	0.079
Mof_H 	H 	0.1768	0.7832	0.4055	0.025
Mof_C 	C 	0.03408	0.04406	0.40669	-0.123
Mof_H 	H 	0.0436	0.0931	0.4314	0.077
Mof_C 	C 	0.82755	0.85519	0.33618	-0.199
Mof_H 	H 	0.8472	0.816	0.3387	0.104
Mof_C 	C 	0.88902	0.994	0.33145	-0.12
Mof_H 	H 	0.8737	0.0147	0.3517	0.077
Mof_C 	C 	0.09789	0.81055	0.45371	-0.171
Mof_H 	H 	0.0776	0.8174	0.4657	0.093
Mof_C 	C 	0.89858	0.92903	0.25083	-0.117
Mof_H 	H 	0.89	0.9056	0.2157	0.075
Mof_C 	C 	0.80699	0.84043	0.36995	0.109
Mof_H 	H 	0.8122	0.7898	0.3952	0.009
Mof_C 	C 	0.83198	0.04574	0.18488	-0.194
Mof_H 	H 	0.8507	0.085	0.2023	0.101
Mof_C 	C 	0.98447	0.97215	0.34657	-0.01
Mof_C 	C 	0.92454	0.0018	0.35262	-0.015
Mof_H 	H 	0.9332	0.0275	0.3872	0.036
Mof_C 	C 	0.1666	0.62508	0.45307	0.316
Mof_C 	C 	0.99944	0.04313	0.3835	-0.009
Mof_H 	H 	0.9853	0.0917	0.3927	0.034
Mof_C 	C 	0.9471	0.97166	0.3225	-0.004
Mof_C 	C 	0.93364	0.93663	0.27277	-0.015
Mof_H 	H 	0.9489	0.9165	0.2522	0.037
Mof_Co	Co	0.79425	0.47386	0.03803	1.166
Mof_O 	O 	0.30269	0.8214	0.01551	-0.471
Mof_O 	O 	0.72977	0.62186	0.46317	-0.447
Mof_O 	O 	0.33858	0.88697	0.08444	-0.355
Mof_O 	O 	0.74125	0.3012	0.07148	-0.426
Mof_O 	O 	0.31042	0.11347	0.07172	-0.367
Mof_O 	O 	0.75969	0.48779	0.4676	-0.436
Mof_O 	O 	0.76347	0.45019	0.09016	-0.427
Mof_O 	O 	0.33936	0.06225	0.01564	-0.338
Mof_N 	N 	0.40933	0.47461	0.08247	-0.176
Mof_N 	N 	0.65931	0.44029	0.23845	-0.182
Mof_C 	C 	0.71438	0.51289	0.3914	-0.163
Mof_C 	C 	0.3634	0.57146	0.02971	-0.145
Mof_H 	H 	0.3581	0.5206	0.0046	0.081
Mof_C 	C 	0.39078	0.38627	0.07358	0.153
Mof_C 	C 	0.39051	0.56233	0.07378	0.143
Mof_C 	C 	0.44487	0.47359	0.10598	0.121
Mof_C 	C 	0.73661	0.54297	0.44541	0.415
Mof_C 	C 	0.67599	0.46474	0.29084	0.167
Mof_C 	C 	0.36176	0.3753	0.09143	-0.178
Mof_H 	H 	0.3542	0.4262	0.1101	0.099
Mof_C 	C 	0.72132	0.39773	0.13188	-0.168
Mof_C 	C 	0.35411	0.21624	0.0562	-0.125
Mof_C 	C 	0.72876	0.46954	0.17006	0.111
Mof_H 	H 	0.7483	0.509	0.1724	0.011
Mof_C 	C 	0.3439	0.65467	0.02208	0.024
Mof_H 	H 	0.3252	0.6607	0.9918	0.053
Mof_C 	C 	0.68005	0.42687	0.20184	0.172
Mof_C 	C 	0.37967	0.72016	0.10197	0.066
Mof_H 	H 	0.3859	0.7719	0.1263	0.025
Mof_C 	C 	0.62362	0.45657	0.21841	0.119
Mof_C 	C 	0.68746	0.57069	0.36566	0.095
Mof_H 	H 	0.6822	0.6275	0.3824	0.014
Mof_C 	C 	0.38373	0.22723	0.03724	0.073
Mof_H 	H 	0.391	0.1765	0.0181	0.019
Mof_C 	C 	0.4591	0.4034	0.14181	-0.124
Mof_H 	H 	0.445	0.3548	0.151	0.076
Mof_C 	C 	0.7215	0.42961	0.36795	0.099
Mof_H 	H 	0.7397	0.3895	0.386	0.018
Mof_C 	C 	0.70853	0.48451	0.20426	-0.2
Mof_H 	H 	0.7139	0.5345	0.2298	0.105
Mof_C 	C 	0.3516	0.72985	0.05888	-0.121
Mof_C 	C 	0.74355	0.38118	0.09426	0.393
Mof_C 	C 	0.70234	0.40372	0.31822	-0.186
Mof_H 	H 	0.7069	0.345	0.3026	0.102
Mof_C 	C 	0.49429	0.40344	0.16469	-0.012
Mof_H 	H 	0.5037	0.3538	0.189	0.034
Mof_C 	C 	0.39875	0.63629	0.11003	-0.166
Mof_H 	H 	0.4174	0.6297	0.1403	0.091
Mof_C 	C 	0.33013	0.81638	0.0529	0.322
Mof_C 	C 	0.34346	0.29006	0.08232	0.079
Mof_H 	H 	0.3232	0.2832	0.0945	0.024
Mof_C 	C 	0.46592	0.54406	0.09331	-0.123
Mof_H 	H 	0.4564	0.5931	0.0686	0.074
Mof_C 	C 	0.67245	0.35519	0.16382	-0.2
Mof_H 	H 	0.6528	0.316	0.1613	0.103
Mof_C 	C 	0.61098	0.494	0.16855	-0.121
Mof_H 	H 	0.6263	0.5147	0.1483	0.074
Mof_C 	C 	0.40211	0.31055	0.04629	-0.173
Mof_H 	H 	0.4224	0.3174	0.0343	0.09
Mof_C 	C 	0.60142	0.42903	0.24917	-0.117
Mof_H 	H 	0.61	0.4056	0.2843	0.075
Mof_C 	C 	0.69301	0.34043	0.13005	0.109
Mof_H 	H 	0.6878	0.2898	0.1048	0.007
Mof_C 	C 	0.66802	0.54574	0.31512	-0.193
Mof_H 	H 	0.6493	0.585	0.2977	0.1
Mof_C 	C 	0.51553	0.47215	0.15343	-0.01
Mof_C 	C 	0.57546	0.5018	0.14738	-0.015
Mof_H 	H 	0.5668	0.5275	0.1128	0.032
Mof_C 	C 	0.3334	0.12508	0.04693	0.316
Mof_C 	C 	0.50056	0.54313	0.1165	-0.011
Mof_H 	H 	0.5147	0.5917	0.1073	0.032
Mof_C 	C 	0.5529	0.47166	0.1775	-0.006
Mof_C 	C 	0.56636	0.43663	0.22723	-0.015
Mof_H 	H 	0.5511	0.4165	0.2478	0.036
Mof_Co	Co	0.29425	0.97386	0.03803	1.166
Mof_O 	O 	0.80269	0.3214	0.01551	-0.471
Mof_O 	O 	0.22977	0.12186	0.46317	-0.447
Mof_O 	O 	0.83858	0.38697	0.08444	-0.355
Mof_O 	O 	0.24125	0.8012	0.07148	-0.426
Mof_O 	O 	0.81042	0.61347	0.07172	-0.368
Mof_O 	O 	0.25969	0.98779	0.4676	-0.436
Mof_O 	O 	0.26347	0.95019	0.09016	-0.427
Mof_O 	O 	0.83936	0.56225	0.01564	-0.338
Mof_N 	N 	0.90933	0.97461	0.08247	-0.176
Mof_N 	N 	0.15931	0.94029	0.23845	-0.182
Mof_C 	C 	0.21438	0.01289	0.3914	-0.163
Mof_C 	C 	0.8634	0.07146	0.02971	-0.145
Mof_H 	H 	0.8581	0.0206	0.0046	0.081
Mof_C 	C 	0.89078	0.88627	0.07358	0.153
Mof_C 	C 	0.89051	0.06233	0.07378	0.143
Mof_C 	C 	0.94487	0.97359	0.10598	0.121
Mof_C 	C 	0.23661	0.04297	0.44541	0.415
Mof_C 	C 	0.17599	0.96474	0.29084	0.167
Mof_C 	C 	0.86176	0.8753	0.09143	-0.178
Mof_H 	H 	0.8542	0.9262	0.1101	0.099
Mof_C 	C 	0.22132	0.89773	0.13188	-0.168
Mof_C 	C 	0.85411	0.71624	0.0562	-0.126
Mof_C 	C 	0.22876	0.96954	0.17006	0.11
Mof_H 	H 	0.2483	0.009	0.1724	0.012
Mof_C 	C 	0.8439	0.15467	0.02208	0.025
Mof_H 	H 	0.8252	0.1607	0.9918	0.052
Mof_C 	C 	0.18005	0.92687	0.20184	0.172
Mof_C 	C 	0.87967	0.22016	0.10197	0.066
Mof_H 	H 	0.8859	0.2719	0.1263	0.025
Mof_C 	C 	0.12362	0.95657	0.21841	0.119
Mof_C 	C 	0.18746	0.07069	0.36566	0.095
Mof_H 	H 	0.1822	0.1275	0.3824	0.014
Mof_C 	C 	0.88373	0.72723	0.03724	0.073
Mof_H 	H 	0.891	0.6765	0.0181	0.019
Mof_C 	C 	0.9591	0.9034	0.14181	-0.124
Mof_H 	H 	0.945	0.8548	0.151	0.075
Mof_C 	C 	0.2215	0.92961	0.36795	0.099
Mof_H 	H 	0.2397	0.8895	0.386	0.018
Mof_C 	C 	0.20853	0.98451	0.20426	-0.2
Mof_H 	H 	0.2139	0.0345	0.2298	0.105
Mof_C 	C 	0.8516	0.22985	0.05888	-0.121
Mof_C 	C 	0.24355	0.88118	0.09426	0.393
Mof_C 	C 	0.20234	0.90372	0.31822	-0.186
Mof_H 	H 	0.2069	0.845	0.3026	0.102
Mof_C 	C 	0.99429	0.90344	0.16469	-0.012
Mof_H 	H 	0.0037	0.8538	0.189	0.034
Mof_C 	C 	0.89875	0.13629	0.11003	-0.167
Mof_H 	H 	0.9174	0.1297	0.1403	0.091
Mof_C 	C 	0.83013	0.31638	0.0529	0.322
Mof_C 	C 	0.84346	0.79006	0.08232	0.079
Mof_H 	H 	0.8232	0.7832	0.0945	0.024
Mof_C 	C 	0.96592	0.04406	0.09331	-0.123
Mof_H 	H 	0.9564	0.0931	0.0686	0.074
Mof_C 	C 	0.17245	0.85519	0.16382	-0.2
Mof_H 	H 	0.1528	0.816	0.1613	0.103
Mof_C 	C 	0.11098	0.994	0.16855	-0.122
Mof_H 	H 	0.1263	0.0147	0.1483	0.074
Mof_C 	C 	0.90211	0.81055	0.04629	-0.173
Mof_H 	H 	0.9224	0.8174	0.0343	0.09
Mof_C 	C 	0.10142	0.92903	0.24917	-0.118
Mof_H 	H 	0.11	0.9056	0.2843	0.075
Mof_C 	C 	0.19301	0.84043	0.13005	0.109
Mof_H 	H 	0.1878	0.7898	0.1048	0.007
Mof_C 	C 	0.16802	0.04574	0.31512	-0.193
Mof_H 	H 	0.1493	0.085	0.2977	0.1
Mof_C 	C 	0.01553	0.97215	0.15343	-0.01
Mof_C 	C 	0.07546	0.0018	0.14738	-0.015
Mof_H 	H 	0.0668	0.0275	0.1128	0.032
Mof_C 	C 	0.8334	0.62508	0.04693	0.317
Mof_C 	C 	0.00056	0.04313	0.1165	-0.011
Mof_H 	H 	0.0147	0.0917	0.1073	0.032
Mof_C 	C 	0.0529	0.97166	0.1775	-0.006
Mof_C 	C 	0.06636	0.93663	0.22723	-0.015
Mof_H 	H 	0.0511	0.9165	0.2478	0.036
Mof_Co	Co	0.75	0.75	0.5	1.184
Mof_Co	Co	0.25	0.75	-0	1.174
Mof_Co	Co	0.25	0.25	0.5	1.184
Mof_Co	Co	0.75	0.25	-0	1.174
_end
