data_functionalizedCrystal
_audit_creation_method	'EQeq! by Chris Wilmer'
_symmetry_space_group_name_H-M	'P1'
_symmetry_Int_Tables_number	1
_symmetry_cell_setting	triclinic
loop_
_symmetry_equiv_pos_as_xyz
  x,y,z
_cell_length_a	25.56
_cell_length_b	17.28
_cell_length_c	13.187
_cell_angle_alpha	90
_cell_angle_beta	107.198
_cell_angle_gamma	90
loop_
_atom_site_label
_atom_site_type_symbol
_atom_site_fract_x
_atom_site_fract_y
_atom_site_fract_z
_atom_site_charge
Mof_C 	C 	0.51674	0.781	0.0669	0.077
Mof_C 	C 	0.47338	0.8315	0.035	-0.034
Mof_H 	H 	0.4409	0.8162	0.9853	0.087
Mof_C 	C 	0.47859	0.905	0.0775	-0.083
Mof_C 	C 	0.5274	0.9262	0.1516	0.037
Mof_H 	H 	0.531	0.9756	0.1809	0.037
Mof_C 	C 	0.57088	0.8748	0.1826	-0.1
Mof_C 	C 	0.56617	0.8006	0.141	0.032
Mof_C 	C 	0.61611	0.7505	0.1637	0.047
Mof_C 	C 	0.64919	0.7594	0.0982	-0.122
Mof_C 	C 	0.69664	0.7161	0.1149	0.059
Mof_H 	H 	0.718	0.7218	0.0693	0.029
Mof_C 	C 	0.71248	0.6649	0.1981	-0.107
Mof_C 	C 	0.68051	0.6565	0.2643	-0.013
Mof_H 	H 	0.6911	0.6226	0.3214	0.069
Mof_C 	C 	0.63265	0.6983	0.2465	0.064
Mof_C 	C 	0.43109	0.9596	0.0486	0.376
Mof_C 	C 	0.6226	0.9008	0.2656	0.348
Mof_C 	C 	0.63342	0.8142	0.0055	0.38
Mof_C 	C 	0.76502	0.6194	0.2179	0.414
Mof_Mn	Mn	0.36059	0.0685	0.14081	0.854
Mof_Mn	Mn	0.3219	0.01464	0.87928	0.835
Mof_N 	N 	0.50793	0.7033	0.0221	-0.003
Mof_N 	N 	0.59877	0.6855	0.315	0.003
Mof_O 	O 	0.53279	0.6502	0.0733	-0.071
Mof_O 	O 	0.47529	0.6955	0.9351	-0.081
Mof_O 	O 	0.39707	0.95159	0.9579	-0.362
Mof_O 	O 	0.42808	0.00755	0.1163	-0.381
Mof_O 	O 	0.64243	0.96594	0.2474	-0.427
Mof_O 	O 	0.64124	0.86244	0.3451	-0.265
Mof_O 	O 	0.65087	0.88232	0.0194	-0.454
Mof_O 	O 	0.60521	0.7895	0.9198	-0.278
Mof_O 	O 	0.78873	0.62297	0.1485	-0.406
Mof_O 	O 	0.78033	0.5832	0.3026	-0.409
Mof_O 	O 	0.55809	0.7185	0.3055	-0.075
Mof_O 	O 	0.6154	0.6424	0.3878	-0.089
Mof_C 	C 	0.01674	0.281	0.0669	0.075
Mof_C 	C 	0.97338	0.3315	0.035	-0.024
Mof_H 	H 	0.9409	0.3162	0.9853	0.083
Mof_C 	C 	0.97859	0.405	0.0775	-0.087
Mof_C 	C 	0.0274	0.4262	0.1516	0.042
Mof_H 	H 	0.031	0.4756	0.1809	0.037
Mof_C 	C 	0.07088	0.3748	0.1826	-0.1
Mof_C 	C 	0.06617	0.3006	0.141	0.035
Mof_C 	C 	0.11611	0.2505	0.1637	0.048
Mof_C 	C 	0.14919	0.2594	0.0982	-0.122
Mof_C 	C 	0.19664	0.2161	0.1149	0.06
Mof_H 	H 	0.218	0.2218	0.0693	0.029
Mof_C 	C 	0.21248	0.1649	0.1981	-0.107
Mof_C 	C 	0.18051	0.1565	0.2643	-0.013
Mof_H 	H 	0.1911	0.1226	0.3214	0.069
Mof_C 	C 	0.13265	0.1983	0.2465	0.065
Mof_C 	C 	0.93109	0.4596	0.0486	0.384
Mof_C 	C 	0.1226	0.4008	0.2656	0.349
Mof_C 	C 	0.13342	0.3142	0.0055	0.384
Mof_C 	C 	0.26502	0.1194	0.2179	0.414
Mof_Mn	Mn	0.86059	0.5685	0.14081	0.852
Mof_Mn	Mn	0.8219	0.51464	0.87928	0.838
Mof_N 	N 	0.00793	0.2033	0.0221	-0.001
Mof_N 	N 	0.09877	0.1855	0.315	0.003
Mof_O 	O 	0.03279	0.1502	0.0733	-0.07
Mof_O 	O 	0.97529	0.1955	0.9351	-0.083
Mof_O 	O 	0.89707	0.45159	0.9579	-0.367
Mof_O 	O 	0.92808	0.50755	0.1163	-0.386
Mof_O 	O 	0.14243	0.46594	0.2474	-0.426
Mof_O 	O 	0.14124	0.36244	0.3451	-0.265
Mof_O 	O 	0.15087	0.38232	0.0194	-0.454
Mof_O 	O 	0.10521	0.2895	0.9198	-0.282
Mof_O 	O 	0.28873	0.12297	0.1485	-0.406
Mof_O 	O 	0.28033	0.0832	0.3026	-0.409
Mof_O 	O 	0.05809	0.2185	0.3055	-0.075
Mof_O 	O 	0.1154	0.1424	0.3878	-0.089
Mof_C 	C 	0.48326	0.781	0.4331	0.076
Mof_C 	C 	0.52662	0.8315	0.465	-0.026
Mof_H 	H 	0.5591	0.8162	0.5147	0.085
Mof_C 	C 	0.52141	0.905	0.4225	-0.086
Mof_C 	C 	0.4726	0.9262	0.3484	0.041
Mof_H 	H 	0.469	0.9756	0.3191	0.037
Mof_C 	C 	0.42912	0.8748	0.3174	-0.1
Mof_C 	C 	0.43383	0.8006	0.359	0.035
Mof_C 	C 	0.38389	0.7505	0.3363	0.048
Mof_C 	C 	0.35081	0.7594	0.4018	-0.121
Mof_C 	C 	0.30336	0.7161	0.3851	0.059
Mof_H 	H 	0.282	0.7218	0.4307	0.029
Mof_C 	C 	0.28752	0.6649	0.3019	-0.107
Mof_C 	C 	0.31949	0.6565	0.2357	-0.013
Mof_H 	H 	0.3089	0.6226	0.1786	0.069
Mof_C 	C 	0.36735	0.6983	0.2535	0.064
Mof_C 	C 	0.56891	0.9596	0.4514	0.383
Mof_C 	C 	0.3774	0.9008	0.2344	0.349
Mof_C 	C 	0.36658	0.8142	0.4945	0.382
Mof_C 	C 	0.23498	0.6194	0.2821	0.414
Mof_Mn	Mn	0.63941	0.0685	0.35919	0.853
Mof_Mn	Mn	0.6781	0.01464	0.62072	0.838
Mof_N 	N 	0.49207	0.7033	0.4779	-0.002
Mof_N 	N 	0.40123	0.6855	0.185	0.003
Mof_O 	O 	0.46721	0.6502	0.4267	-0.071
Mof_O 	O 	0.52471	0.6955	0.5649	-0.081
Mof_O 	O 	0.60293	0.95159	0.5421	-0.366
Mof_O 	O 	0.57192	0.00755	0.3837	-0.384
Mof_O 	O 	0.35757	0.96594	0.2526	-0.427
Mof_O 	O 	0.35876	0.86244	0.1549	-0.265
Mof_O 	O 	0.34913	0.88232	0.4806	-0.454
Mof_O 	O 	0.39479	0.7895	0.5802	-0.28
Mof_O 	O 	0.21127	0.62297	0.3515	-0.406
Mof_O 	O 	0.21967	0.5832	0.1974	-0.409
Mof_O 	O 	0.44191	0.7185	0.1945	-0.075
Mof_O 	O 	0.3846	0.6424	0.1122	-0.09
Mof_C 	C 	0.98326	0.281	0.4331	0.076
Mof_C 	C 	0.02662	0.3315	0.465	-0.026
Mof_H 	H 	0.0591	0.3162	0.5147	0.085
Mof_C 	C 	0.02141	0.405	0.4225	-0.086
Mof_C 	C 	0.9726	0.4262	0.3484	0.041
Mof_H 	H 	0.969	0.4756	0.3191	0.037
Mof_C 	C 	0.92912	0.3748	0.3174	-0.1
Mof_C 	C 	0.93383	0.3006	0.359	0.035
Mof_C 	C 	0.88389	0.2505	0.3363	0.048
Mof_C 	C 	0.85081	0.2594	0.4018	-0.121
Mof_C 	C 	0.80336	0.2161	0.3851	0.059
Mof_H 	H 	0.782	0.2218	0.4307	0.029
Mof_C 	C 	0.78752	0.1649	0.3019	-0.106
Mof_C 	C 	0.81949	0.1565	0.2357	-0.014
Mof_H 	H 	0.8089	0.1226	0.1786	0.07
Mof_C 	C 	0.86735	0.1983	0.2535	0.065
Mof_C 	C 	0.06891	0.4596	0.4514	0.384
Mof_C 	C 	0.8774	0.4008	0.2344	0.349
Mof_C 	C 	0.86658	0.3142	0.4945	0.382
Mof_C 	C 	0.73498	0.1194	0.2821	0.413
Mof_Mn	Mn	0.13941	0.5685	0.35919	0.852
Mof_Mn	Mn	0.1781	0.51464	0.62072	0.838
Mof_N 	N 	0.99207	0.2033	0.4779	-0.002
Mof_N 	N 	0.90123	0.1855	0.185	0.003
Mof_O 	O 	0.96721	0.1502	0.4267	-0.071
Mof_O 	O 	0.02471	0.1955	0.5649	-0.082
Mof_O 	O 	0.10293	0.45159	0.5421	-0.366
Mof_O 	O 	0.07192	0.50755	0.3837	-0.385
Mof_O 	O 	0.85757	0.46594	0.2526	-0.426
Mof_O 	O 	0.85876	0.36244	0.1549	-0.265
Mof_O 	O 	0.84913	0.38232	0.4806	-0.454
Mof_O 	O 	0.89479	0.2895	0.5802	-0.28
Mof_O 	O 	0.71127	0.12297	0.3515	-0.406
Mof_O 	O 	0.71967	0.0832	0.1974	-0.408
Mof_O 	O 	0.94191	0.2185	0.1945	-0.075
Mof_O 	O 	0.8846	0.1424	0.1122	-0.089
Mof_C 	C 	0.48326	0.219	0.9331	0.078
Mof_C 	C 	0.52662	0.1685	0.965	-0.033
Mof_H 	H 	0.5591	0.1838	0.0147	0.088
Mof_C 	C 	0.52141	0.095	0.9225	-0.082
Mof_C 	C 	0.4726	0.0738	0.8484	0.038
Mof_H 	H 	0.469	0.0244	0.8191	0.038
Mof_C 	C 	0.42912	0.1252	0.8174	-0.099
Mof_C 	C 	0.43383	0.1994	0.859	0.033
Mof_C 	C 	0.38389	0.2495	0.8363	0.048
Mof_C 	C 	0.35081	0.2406	0.9018	-0.121
Mof_C 	C 	0.30336	0.2839	0.8851	0.059
Mof_H 	H 	0.282	0.2782	0.9307	0.029
Mof_C 	C 	0.28752	0.3351	0.8019	-0.107
Mof_C 	C 	0.31949	0.3435	0.7357	-0.013
Mof_H 	H 	0.3089	0.3774	0.6786	0.069
Mof_C 	C 	0.36735	0.3017	0.7535	0.064
Mof_C 	C 	0.56891	0.0404	0.9514	0.376
Mof_C 	C 	0.3774	0.0992	0.7344	0.348
Mof_C 	C 	0.36658	0.1858	0.9945	0.38
Mof_C 	C 	0.23498	0.3806	0.7821	0.414
Mof_Mn	Mn	0.63941	0.9315	0.85919	0.854
Mof_Mn	Mn	0.6781	0.98536	0.12072	0.835
Mof_N 	N 	0.49207	0.2967	0.9779	-0.003
Mof_N 	N 	0.40123	0.3145	0.685	0.003
Mof_O 	O 	0.46721	0.3498	0.9267	-0.071
Mof_O 	O 	0.52471	0.3045	0.0649	-0.081
Mof_O 	O 	0.60293	0.04841	0.0421	-0.362
Mof_O 	O 	0.57192	0.99245	0.8837	-0.381
Mof_O 	O 	0.35757	0.03406	0.7526	-0.427
Mof_O 	O 	0.35876	0.13756	0.6549	-0.265
Mof_O 	O 	0.34913	0.11768	0.9806	-0.454
Mof_O 	O 	0.39479	0.2105	0.0802	-0.278
Mof_O 	O 	0.21127	0.37703	0.8515	-0.406
Mof_O 	O 	0.21967	0.4168	0.6974	-0.409
Mof_O 	O 	0.44191	0.2815	0.6945	-0.075
Mof_O 	O 	0.3846	0.3576	0.6122	-0.089
Mof_C 	C 	0.98326	0.719	0.9331	0.075
Mof_C 	C 	0.02662	0.6685	0.965	-0.024
Mof_H 	H 	0.0591	0.6838	0.0147	0.083
Mof_C 	C 	0.02141	0.595	0.9225	-0.087
Mof_C 	C 	0.9726	0.5738	0.8484	0.042
Mof_H 	H 	0.969	0.5244	0.8191	0.037
Mof_C 	C 	0.92912	0.6252	0.8174	-0.1
Mof_C 	C 	0.93383	0.6994	0.859	0.035
Mof_C 	C 	0.88389	0.7495	0.8363	0.048
Mof_C 	C 	0.85081	0.7406	0.9018	-0.122
Mof_C 	C 	0.80336	0.7839	0.8851	0.06
Mof_H 	H 	0.782	0.7782	0.9307	0.029
Mof_C 	C 	0.78752	0.8351	0.8019	-0.107
Mof_C 	C 	0.81949	0.8435	0.7357	-0.013
Mof_H 	H 	0.8089	0.8774	0.6786	0.069
Mof_C 	C 	0.86735	0.8017	0.7535	0.065
Mof_C 	C 	0.06891	0.5404	0.9514	0.384
Mof_C 	C 	0.8774	0.5992	0.7344	0.349
Mof_C 	C 	0.86658	0.6858	0.9945	0.384
Mof_C 	C 	0.73498	0.8806	0.7821	0.414
Mof_Mn	Mn	0.13941	0.4315	0.85919	0.852
Mof_Mn	Mn	0.1781	0.48536	0.12072	0.838
Mof_N 	N 	0.99207	0.7967	0.9779	-0.001
Mof_N 	N 	0.90123	0.8145	0.685	0.003
Mof_O 	O 	0.96721	0.8498	0.9267	-0.07
Mof_O 	O 	0.02471	0.8045	0.0649	-0.083
Mof_O 	O 	0.10293	0.54841	0.0421	-0.367
Mof_O 	O 	0.07192	0.49245	0.8837	-0.386
Mof_O 	O 	0.85757	0.53406	0.7526	-0.426
Mof_O 	O 	0.85876	0.63756	0.6549	-0.265
Mof_O 	O 	0.84913	0.61768	0.9806	-0.454
Mof_O 	O 	0.89479	0.7105	0.0802	-0.282
Mof_O 	O 	0.71127	0.87703	0.8515	-0.406
Mof_O 	O 	0.71967	0.9168	0.6974	-0.409
Mof_O 	O 	0.94191	0.7815	0.6945	-0.075
Mof_O 	O 	0.8846	0.8576	0.6122	-0.089
Mof_C 	C 	0.51674	0.219	0.5669	0.076
Mof_C 	C 	0.47338	0.1685	0.535	-0.026
Mof_H 	H 	0.4409	0.1838	0.4853	0.085
Mof_C 	C 	0.47859	0.095	0.5775	-0.086
Mof_C 	C 	0.5274	0.0738	0.6516	0.041
Mof_H 	H 	0.531	0.0244	0.6809	0.037
Mof_C 	C 	0.57088	0.1252	0.6826	-0.1
Mof_C 	C 	0.56617	0.1994	0.641	0.035
Mof_C 	C 	0.61611	0.2495	0.6637	0.048
Mof_C 	C 	0.64919	0.2406	0.5982	-0.121
Mof_C 	C 	0.69664	0.2839	0.6149	0.059
Mof_H 	H 	0.718	0.2782	0.5693	0.029
Mof_C 	C 	0.71248	0.3351	0.6981	-0.107
Mof_C 	C 	0.68051	0.3435	0.7643	-0.013
Mof_H 	H 	0.6911	0.3774	0.8214	0.069
Mof_C 	C 	0.63265	0.3017	0.7465	0.064
Mof_C 	C 	0.43109	0.0404	0.5486	0.383
Mof_C 	C 	0.6226	0.0992	0.7656	0.349
Mof_C 	C 	0.63342	0.1858	0.5055	0.382
Mof_C 	C 	0.76502	0.3806	0.7179	0.414
Mof_Mn	Mn	0.36059	0.9315	0.64081	0.853
Mof_Mn	Mn	0.3219	0.98536	0.37928	0.838
Mof_N 	N 	0.50793	0.2967	0.5221	-0.002
Mof_N 	N 	0.59877	0.3145	0.815	0.003
Mof_O 	O 	0.53279	0.3498	0.5733	-0.071
Mof_O 	O 	0.47529	0.3045	0.4351	-0.081
Mof_O 	O 	0.39707	0.04841	0.4579	-0.366
Mof_O 	O 	0.42808	0.99245	0.6163	-0.384
Mof_O 	O 	0.64243	0.03406	0.7474	-0.427
Mof_O 	O 	0.64124	0.13756	0.8451	-0.265
Mof_O 	O 	0.65087	0.11768	0.5194	-0.454
Mof_O 	O 	0.60521	0.2105	0.4198	-0.28
Mof_O 	O 	0.78873	0.37703	0.6485	-0.406
Mof_O 	O 	0.78033	0.4168	0.8026	-0.409
Mof_O 	O 	0.55809	0.2815	0.8055	-0.075
Mof_O 	O 	0.6154	0.3576	0.8878	-0.09
Mof_C 	C 	0.01674	0.719	0.5669	0.076
Mof_C 	C 	0.97338	0.6685	0.535	-0.026
Mof_H 	H 	0.9409	0.6838	0.4853	0.085
Mof_C 	C 	0.97859	0.595	0.5775	-0.086
Mof_C 	C 	0.0274	0.5738	0.6516	0.041
Mof_H 	H 	0.031	0.5244	0.6809	0.037
Mof_C 	C 	0.07088	0.6252	0.6826	-0.1
Mof_C 	C 	0.06617	0.6994	0.641	0.035
Mof_C 	C 	0.11611	0.7495	0.6637	0.048
Mof_C 	C 	0.14919	0.7406	0.5982	-0.121
Mof_C 	C 	0.19664	0.7839	0.6149	0.059
Mof_H 	H 	0.218	0.7782	0.5693	0.029
Mof_C 	C 	0.21248	0.8351	0.6981	-0.106
Mof_C 	C 	0.18051	0.8435	0.7643	-0.014
Mof_H 	H 	0.1911	0.8774	0.8214	0.07
Mof_C 	C 	0.13265	0.8017	0.7465	0.065
Mof_C 	C 	0.93109	0.5404	0.5486	0.384
Mof_C 	C 	0.1226	0.5992	0.7656	0.349
Mof_C 	C 	0.13342	0.6858	0.5055	0.382
Mof_C 	C 	0.26502	0.8806	0.7179	0.413
Mof_Mn	Mn	0.86059	0.4315	0.64081	0.852
Mof_Mn	Mn	0.8219	0.48536	0.37928	0.838
Mof_N 	N 	0.00793	0.7967	0.5221	-0.002
Mof_N 	N 	0.09877	0.8145	0.815	0.003
Mof_O 	O 	0.03279	0.8498	0.5733	-0.071
Mof_O 	O 	0.97529	0.8045	0.4351	-0.082
Mof_O 	O 	0.89707	0.54841	0.4579	-0.366
Mof_O 	O 	0.92808	0.49245	0.6163	-0.385
Mof_O 	O 	0.14243	0.53406	0.7474	-0.426
Mof_O 	O 	0.14124	0.63756	0.8451	-0.265
Mof_O 	O 	0.15087	0.61768	0.5194	-0.454
Mof_O 	O 	0.10521	0.7105	0.4198	-0.28
Mof_O 	O 	0.28873	0.87703	0.6485	-0.406
Mof_O 	O 	0.28033	0.9168	0.8026	-0.408
Mof_O 	O 	0.05809	0.7815	0.8055	-0.075
Mof_O 	O 	0.1154	0.8576	0.8878	-0.089
_end
