data_functionalizedCrystal
_audit_creation_method	'EQeq! by Chris Wilmer'
_symmetry_space_group_name_H-M	'P1'
_symmetry_Int_Tables_number	1
_symmetry_cell_setting	triclinic
loop_
_symmetry_equiv_pos_as_xyz
  x,y,z
_cell_length_a	24.502
_cell_length_b	24.502
_cell_length_c	18.45
_cell_angle_alpha	90
_cell_angle_beta	90
_cell_angle_gamma	120
loop_
_atom_site_label
_atom_site_type_symbol
_atom_site_fract_x
_atom_site_fract_y
_atom_site_fract_z
_atom_site_charge
Mof_Co	Co	0.6295	0.70736	0.49767	1.145
Mof_S 	S 	0.58194	0.76658	0.82387	0.016
Mof_S 	S 	0.57659	0.84894	0.69967	0.048
Mof_O 	O 	0.58251	0.74101	0.56072	-0.458
Mof_O 	O 	0.62565	0.75634	0.67224	-0.457
Mof_N 	N 	0.59028	0.87425	0.83966	-0.192
Mof_C 	C 	0.58754	0.75559	0.6272	0.465
Mof_N 	N 	0.59709	0.8557	0.90786	-0.181
Mof_C 	C 	0.58238	0.8327	0.7898	0.044
Mof_C 	C 	0.5925	0.8002	0.908	0.021
Mof_H 	H 	0.5948	0.7806	0.9502	0.051
Mof_C 	C 	0.54	0.7733	0.655	-0.377
Mof_H 	H 	0.5116	0.7412	0.6887	0.147
Mof_H 	H 	0.5151	0.774	0.6145	0.157
Mof_N 	N 	0.6792	0.5912	0.5631	-0.045
Mof_N 	N 	0.6883	0.6388	0.4342	-0.037
Mof_N 	N 	0.7185	0.616	0.4485	-0.059
Mof_Co	Co	0.29617	0.04069	0.831	1.149
Mof_S 	S 	0.24861	0.09991	0.1572	0.023
Mof_S 	S 	0.24326	0.18227	0.033	0.053
Mof_O 	O 	0.24918	0.07434	0.89405	-0.454
Mof_O 	O 	0.29232	0.08967	0.00557	-0.455
Mof_N 	N 	0.25695	0.20758	0.17299	-0.19
Mof_C 	C 	0.25421	0.08892	0.96053	0.47
Mof_N 	N 	0.26376	0.18903	0.24119	-0.179
Mof_C 	C 	0.24905	0.16603	0.12313	0.043
Mof_C 	C 	0.25917	0.13353	0.24133	0.021
Mof_H 	H 	0.26147	0.11393	0.28353	0.052
Mof_C 	C 	0.20667	0.10663	0.98833	-0.381
Mof_H 	H 	0.17827	0.07453	0.02203	0.153
Mof_H 	H 	0.18177	0.10733	0.94783	0.161
Mof_N 	N 	0.34587	0.92453	0.89643	-0.046
Mof_N 	N 	0.35497	0.97213	0.76753	-0.047
Mof_N 	N 	0.38517	0.94933	0.78183	-0.061
Mof_Co	Co	0.96283	0.37403	0.16434	1.14
Mof_S 	S 	0.91527	0.43325	0.49054	0.012
Mof_S 	S 	0.90992	0.51561	0.36634	0.047
Mof_O 	O 	0.91584	0.40768	0.22739	-0.46
Mof_O 	O 	0.95898	0.42301	0.33891	-0.463
Mof_N 	N 	0.92361	0.54092	0.50633	-0.192
Mof_C 	C 	0.92087	0.42226	0.29387	0.467
Mof_N 	N 	0.93042	0.52237	0.57453	-0.181
Mof_C 	C 	0.91571	0.49937	0.45647	0.043
Mof_C 	C 	0.92583	0.46687	0.57467	0.019
Mof_H 	H 	0.92813	0.44727	0.61687	0.049
Mof_C 	C 	0.87333	0.43997	0.32167	-0.378
Mof_H 	H 	0.84493	0.40787	0.35537	0.148
Mof_H 	H 	0.84843	0.44067	0.28117	0.157
Mof_N 	N 	0.01253	0.25787	0.22977	-0.031
Mof_N 	N 	0.02163	0.30547	0.10087	-0.029
Mof_N 	N 	0.05183	0.28267	0.11517	-0.058
Mof_Co	Co	0.29264	0.92214	0.49767	1.144
Mof_S 	S 	0.23342	0.81536	0.82387	0.016
Mof_S 	S 	0.15106	0.72765	0.69967	0.052
Mof_O 	O 	0.25899	0.8415	0.56072	-0.457
Mof_O 	O 	0.24366	0.86931	0.67224	-0.456
Mof_N 	N 	0.12575	0.71603	0.83966	-0.19
Mof_C 	C 	0.24441	0.83195	0.6272	0.467
Mof_N 	N 	0.1443	0.74139	0.90786	-0.18
Mof_C 	C 	0.1673	0.74968	0.7898	0.044
Mof_C 	C 	0.1998	0.7923	0.908	0.021
Mof_H 	H 	0.2194	0.8142	0.9502	0.05
Mof_C 	C 	0.2267	0.7667	0.655	-0.378
Mof_H 	H 	0.2588	0.7704	0.6887	0.148
Mof_H 	H 	0.226	0.7411	0.6145	0.157
Mof_N 	N 	0.4088	0.088	0.5631	-0.045
Mof_N 	N 	0.3612	0.0495	0.4342	-0.031
Mof_N 	N 	0.384	0.1025	0.4485	-0.06
Mof_Co	Co	0.95931	0.25547	0.831	1.141
Mof_S 	S 	0.90009	0.14869	0.1572	0.01
Mof_S 	S 	0.81773	0.06098	0.033	0.055
Mof_O 	O 	0.92566	0.17483	0.89405	-0.46
Mof_O 	O 	0.91033	0.20264	0.00557	-0.46
Mof_N 	N 	0.79242	0.04936	0.17299	-0.187
Mof_C 	C 	0.91108	0.16528	0.96053	0.467
Mof_N 	N 	0.81097	0.07472	0.24119	-0.179
Mof_C 	C 	0.83397	0.08301	0.12313	0.046
Mof_C 	C 	0.86647	0.12563	0.24133	0.022
Mof_H 	H 	0.88607	0.14753	0.28353	0.05
Mof_C 	C 	0.89337	0.10003	0.98833	-0.371
Mof_H 	H 	0.92547	0.10373	0.02203	0.142
Mof_H 	H 	0.89267	0.07443	0.94783	0.157
Mof_N 	N 	0.07547	0.42133	0.89643	-0.044
Mof_N 	N 	0.02787	0.38283	0.76753	-0.033
Mof_N 	N 	0.05067	0.43583	0.78183	-0.057
Mof_Co	Co	0.62597	0.58881	0.16434	1.146
Mof_S 	S 	0.56675	0.48203	0.49054	0.016
Mof_S 	S 	0.48439	0.39432	0.36634	0.052
Mof_O 	O 	0.59232	0.50817	0.22739	-0.457
Mof_O 	O 	0.57699	0.53598	0.33891	-0.456
Mof_N 	N 	0.45908	0.3827	0.50633	-0.19
Mof_C 	C 	0.57774	0.49862	0.29387	0.467
Mof_N 	N 	0.47763	0.40806	0.57453	-0.18
Mof_C 	C 	0.50063	0.41635	0.45647	0.044
Mof_C 	C 	0.53313	0.45897	0.57467	0.021
Mof_H 	H 	0.55273	0.48087	0.61687	0.051
Mof_C 	C 	0.56003	0.43337	0.32167	-0.378
Mof_H 	H 	0.59213	0.43707	0.35537	0.148
Mof_H 	H 	0.55933	0.40777	0.28117	0.157
Mof_N 	N 	0.74213	0.75467	0.22977	-0.045
Mof_N 	N 	0.69453	0.71617	0.10087	-0.037
Mof_N 	N 	0.71733	0.76917	0.11517	-0.059
Mof_Co	Co	0.07786	0.3705	0.49767	1.147
Mof_S 	S 	0.18464	0.41806	0.82387	0.016
Mof_S 	S 	0.27235	0.42341	0.69967	0.052
Mof_O 	O 	0.1585	0.41749	0.56072	-0.457
Mof_O 	O 	0.13069	0.37435	0.67224	-0.456
Mof_N 	N 	0.28397	0.40972	0.83966	-0.19
Mof_C 	C 	0.16805	0.41246	0.6272	0.466
Mof_N 	N 	0.25861	0.40291	0.90786	-0.18
Mof_C 	C 	0.25032	0.41762	0.7898	0.044
Mof_C 	C 	0.2077	0.4075	0.908	0.021
Mof_H 	H 	0.1858	0.4052	0.9502	0.051
Mof_C 	C 	0.2333	0.46	0.655	-0.378
Mof_H 	H 	0.2296	0.4884	0.6887	0.148
Mof_H 	H 	0.2589	0.4849	0.6145	0.157
Mof_N 	N 	0.912	0.3208	0.5631	-0.045
Mof_N 	N 	0.9505	0.3117	0.4342	-0.043
Mof_N 	N 	0.8975	0.2815	0.4485	-0.059
Mof_Co	Co	0.74453	0.70383	0.831	1.145
Mof_S 	S 	0.85131	0.75139	0.1572	0.014
Mof_S 	S 	0.93902	0.75674	0.033	0.041
Mof_O 	O 	0.82517	0.75082	0.89405	-0.457
Mof_O 	O 	0.79736	0.70768	0.00557	-0.455
Mof_N 	N 	0.95064	0.74305	0.17299	-0.195
Mof_C 	C 	0.83472	0.74579	0.96053	0.465
Mof_N 	N 	0.92528	0.73624	0.24119	-0.182
Mof_C 	C 	0.91699	0.75095	0.12313	0.044
Mof_C 	C 	0.87437	0.74083	0.24133	0.02
Mof_H 	H 	0.85247	0.73853	0.28353	0.051
Mof_C 	C 	0.89997	0.79333	0.98833	-0.371
Mof_H 	H 	0.89627	0.82173	0.02203	0.143
Mof_H 	H 	0.92557	0.81823	0.94783	0.152
Mof_N 	N 	0.57867	0.65413	0.89643	-0.045
Mof_N 	N 	0.61717	0.64503	0.76753	-0.037
Mof_N 	N 	0.56417	0.61483	0.78183	-0.059
Mof_Co	Co	0.41119	0.03717	0.16434	1.149
Mof_S 	S 	0.51797	0.08473	0.49054	0.021
Mof_S 	S 	0.60568	0.09008	0.36634	0.056
Mof_O 	O 	0.49183	0.08416	0.22739	-0.455
Mof_O 	O 	0.46402	0.04102	0.33891	-0.449
Mof_N 	N 	0.6173	0.07639	0.50633	-0.189
Mof_C 	C 	0.50138	0.07913	0.29387	0.466
Mof_N 	N 	0.59194	0.06958	0.57453	-0.178
Mof_C 	C 	0.58365	0.08429	0.45647	0.045
Mof_C 	C 	0.54103	0.07417	0.57467	0.022
Mof_H 	H 	0.51913	0.07187	0.61687	0.053
Mof_C 	C 	0.56663	0.12667	0.32167	-0.378
Mof_H 	H 	0.56293	0.15507	0.35537	0.147
Mof_H 	H 	0.59223	0.15157	0.28117	0.157
Mof_N 	N 	0.24533	0.98747	0.22977	-0.06
Mof_N 	N 	0.28383	0.97837	0.10087	-0.043
Mof_N 	N 	0.23083	0.94817	0.11517	-0.06
Mof_Co	Co	0.70736	0.6295	0.00233	1.146
Mof_S 	S 	0.76658	0.58194	0.67613	0.017
Mof_S 	S 	0.84894	0.57659	0.80033	0.05
Mof_O 	O 	0.74101	0.58251	0.93928	-0.457
Mof_O 	O 	0.75634	0.62565	0.82776	-0.455
Mof_N 	N 	0.87425	0.59028	0.66034	-0.191
Mof_C 	C 	0.75559	0.58754	0.8728	0.466
Mof_N 	N 	0.8557	0.59709	0.59214	-0.18
Mof_C 	C 	0.8327	0.58238	0.7102	0.044
Mof_C 	C 	0.8002	0.5925	0.592	0.021
Mof_H 	H 	0.7806	0.5948	0.5498	0.051
Mof_C 	C 	0.7733	0.54	0.845	-0.377
Mof_H 	H 	0.7412	0.5116	0.8113	0.148
Mof_H 	H 	0.774	0.5151	0.8855	0.157
Mof_N 	N 	0.5912	0.6792	0.9369	-0.045
Mof_N 	N 	0.6388	0.6883	0.0658	-0.037
Mof_N 	N 	0.616	0.7185	0.0515	-0.059
Mof_Co	Co	0.37403	0.96283	0.33566	1.141
Mof_S 	S 	0.43325	0.91527	0.00946	0.014
Mof_S 	S 	0.51561	0.90992	0.13366	0.047
Mof_O 	O 	0.40768	0.91584	0.27261	-0.46
Mof_O 	O 	0.42301	0.95898	0.16109	-0.462
Mof_N 	N 	0.54092	0.92361	0.99367	-0.193
Mof_C 	C 	0.42226	0.92087	0.20613	0.467
Mof_N 	N 	0.52237	0.93042	0.92547	-0.181
Mof_C 	C 	0.49937	0.91571	0.04353	0.044
Mof_C 	C 	0.46687	0.92583	0.92533	0.017
Mof_H 	H 	0.44727	0.92813	0.88313	0.05
Mof_C 	C 	0.43997	0.87333	0.17833	-0.378
Mof_H 	H 	0.40787	0.84493	0.14463	0.148
Mof_H 	H 	0.44067	0.84843	0.21883	0.157
Mof_N 	N 	0.25787	0.01253	0.27023	-0.033
Mof_N 	N 	0.30547	0.02163	0.39913	-0.03
Mof_N 	N 	0.28267	0.05183	0.38483	-0.058
Mof_Co	Co	0.04069	0.29617	0.669	1.148
Mof_S 	S 	0.09991	0.24861	0.3428	0.024
Mof_S 	S 	0.18227	0.24326	0.467	0.054
Mof_O 	O 	0.07434	0.24918	0.60595	-0.454
Mof_O 	O 	0.08967	0.29232	0.49443	-0.454
Mof_N 	N 	0.20758	0.25695	0.32701	-0.19
Mof_C 	C 	0.08892	0.25421	0.53947	0.469
Mof_N 	N 	0.18903	0.26376	0.25881	-0.179
Mof_C 	C 	0.16603	0.24905	0.37687	0.043
Mof_C 	C 	0.13353	0.25917	0.25867	0.02
Mof_H 	H 	0.11393	0.26147	0.21647	0.052
Mof_C 	C 	0.10663	0.20667	0.51167	-0.382
Mof_H 	H 	0.07453	0.17827	0.47797	0.153
Mof_H 	H 	0.10733	0.18177	0.55217	0.161
Mof_N 	N 	0.92453	0.34587	0.60357	-0.045
Mof_N 	N 	0.97213	0.35497	0.73247	-0.045
Mof_N 	N 	0.94933	0.38517	0.71817	-0.061
Mof_Co	Co	0.92214	0.29264	0.00233	1.144
Mof_S 	S 	0.81536	0.23342	0.67613	0.016
Mof_S 	S 	0.72765	0.15106	0.80033	0.052
Mof_O 	O 	0.8415	0.25899	0.93928	-0.456
Mof_O 	O 	0.86931	0.24366	0.82776	-0.456
Mof_N 	N 	0.71603	0.12575	0.66034	-0.19
Mof_C 	C 	0.83195	0.24441	0.8728	0.467
Mof_N 	N 	0.74139	0.1443	0.59214	-0.18
Mof_C 	C 	0.74968	0.1673	0.7102	0.044
Mof_C 	C 	0.7923	0.1998	0.592	0.021
Mof_H 	H 	0.8142	0.2194	0.5498	0.051
Mof_C 	C 	0.7667	0.2267	0.845	-0.378
Mof_H 	H 	0.7704	0.2588	0.8113	0.148
Mof_H 	H 	0.7411	0.226	0.8855	0.158
Mof_N 	N 	0.088	0.4088	0.9369	-0.045
Mof_N 	N 	0.0495	0.3612	0.0658	-0.03
Mof_N 	N 	0.1025	0.384	0.0515	-0.059
Mof_Co	Co	0.58881	0.62597	0.33566	1.146
Mof_S 	S 	0.48203	0.56675	0.00946	0.017
Mof_S 	S 	0.39432	0.48439	0.13366	0.052
Mof_O 	O 	0.50817	0.59232	0.27261	-0.457
Mof_O 	O 	0.53598	0.57699	0.16109	-0.456
Mof_N 	N 	0.3827	0.45908	0.99367	-0.19
Mof_C 	C 	0.49862	0.57774	0.20613	0.467
Mof_N 	N 	0.40806	0.47763	0.92547	-0.18
Mof_C 	C 	0.41635	0.50063	0.04353	0.044
Mof_C 	C 	0.45897	0.53313	0.92533	0.02
Mof_H 	H 	0.48087	0.55273	0.88313	0.051
Mof_C 	C 	0.43337	0.56003	0.17833	-0.378
Mof_H 	H 	0.43707	0.59213	0.14463	0.148
Mof_H 	H 	0.40777	0.55933	0.21883	0.157
Mof_N 	N 	0.75467	0.74213	0.27023	-0.045
Mof_N 	N 	0.71617	0.69453	0.39913	-0.037
Mof_N 	N 	0.76917	0.71733	0.38483	-0.059
Mof_Co	Co	0.25547	0.95931	0.669	1.141
Mof_S 	S 	0.14869	0.90009	0.3428	0.011
Mof_S 	S 	0.06098	0.81773	0.467	0.06
Mof_O 	O 	0.17483	0.92566	0.60595	-0.46
Mof_O 	O 	0.20264	0.91033	0.49443	-0.458
Mof_N 	N 	0.04936	0.79242	0.32701	-0.187
Mof_C 	C 	0.16528	0.91108	0.53947	0.466
Mof_N 	N 	0.07472	0.81097	0.25881	-0.178
Mof_C 	C 	0.08301	0.83397	0.37687	0.045
Mof_C 	C 	0.12563	0.86647	0.25867	0.022
Mof_H 	H 	0.14753	0.88607	0.21647	0.05
Mof_C 	C 	0.10003	0.89337	0.51167	-0.38
Mof_H 	H 	0.10373	0.92547	0.47797	0.147
Mof_H 	H 	0.07443	0.89267	0.55217	0.159
Mof_N 	N 	0.42133	0.07547	0.60357	-0.044
Mof_N 	N 	0.38283	0.02787	0.73247	-0.032
Mof_N 	N 	0.43583	0.05067	0.71817	-0.056
Mof_Co	Co	0.3705	0.07786	0.00233	1.146
Mof_S 	S 	0.41806	0.18464	0.67613	0.017
Mof_S 	S 	0.42341	0.27235	0.80033	0.052
Mof_O 	O 	0.41749	0.1585	0.93928	-0.457
Mof_O 	O 	0.37435	0.13069	0.82776	-0.455
Mof_N 	N 	0.40972	0.28397	0.66034	-0.19
Mof_C 	C 	0.41246	0.16805	0.8728	0.466
Mof_N 	N 	0.40291	0.25861	0.59214	-0.18
Mof_C 	C 	0.41762	0.25032	0.7102	0.044
Mof_C 	C 	0.4075	0.2077	0.592	0.021
Mof_H 	H 	0.4052	0.1858	0.5498	0.051
Mof_C 	C 	0.46	0.2333	0.845	-0.378
Mof_H 	H 	0.4884	0.2296	0.8113	0.148
Mof_H 	H 	0.4849	0.2589	0.8855	0.157
Mof_N 	N 	0.3208	0.912	0.9369	-0.045
Mof_N 	N 	0.3117	0.9505	0.0658	-0.042
Mof_N 	N 	0.2815	0.8975	0.0515	-0.058
Mof_Co	Co	0.03717	0.41119	0.33566	1.149
Mof_S 	S 	0.08473	0.51797	0.00946	0.023
Mof_S 	S 	0.09008	0.60568	0.13366	0.057
Mof_O 	O 	0.08416	0.49183	0.27261	-0.455
Mof_O 	O 	0.04102	0.46402	0.16109	-0.448
Mof_N 	N 	0.07639	0.6173	0.99367	-0.19
Mof_C 	C 	0.07913	0.50138	0.20613	0.466
Mof_N 	N 	0.06958	0.59194	0.92547	-0.178
Mof_C 	C 	0.08429	0.58365	0.04353	0.046
Mof_C 	C 	0.07417	0.54103	0.92533	0.02
Mof_H 	H 	0.07187	0.51913	0.88313	0.053
Mof_C 	C 	0.12667	0.56663	0.17833	-0.378
Mof_H 	H 	0.15507	0.56293	0.14463	0.147
Mof_H 	H 	0.15157	0.59223	0.21883	0.157
Mof_N 	N 	0.98747	0.24533	0.27023	-0.062
Mof_N 	N 	0.97837	0.28383	0.39913	-0.045
Mof_N 	N 	0.94817	0.23083	0.38483	-0.06
Mof_Co	Co	0.70383	0.74453	0.669	1.145
Mof_S 	S 	0.75139	0.85131	0.3428	0.014
Mof_S 	S 	0.75674	0.93902	0.467	0.042
Mof_O 	O 	0.75082	0.82517	0.60595	-0.458
Mof_O 	O 	0.70768	0.79736	0.49443	-0.455
Mof_N 	N 	0.74305	0.95064	0.32701	-0.195
Mof_C 	C 	0.74579	0.83472	0.53947	0.465
Mof_N 	N 	0.73624	0.92528	0.25881	-0.182
Mof_C 	C 	0.75095	0.91699	0.37687	0.044
Mof_C 	C 	0.74083	0.87437	0.25867	0.02
Mof_H 	H 	0.73853	0.85247	0.21647	0.051
Mof_C 	C 	0.79333	0.89997	0.51167	-0.373
Mof_H 	H 	0.82173	0.89627	0.47797	0.143
Mof_H 	H 	0.81823	0.92557	0.55217	0.152
Mof_N 	N 	0.65413	0.57867	0.60357	-0.045
Mof_N 	N 	0.64503	0.61717	0.73247	-0.037
Mof_N 	N 	0.61483	0.56417	0.71817	-0.059
Mof_Co	Co	0.3705	0.29264	0.50233	1.146
Mof_S 	S 	0.41806	0.23342	0.17613	0.016
Mof_S 	S 	0.42341	0.15106	0.30033	0.052
Mof_O 	O 	0.41749	0.25899	0.43928	-0.457
Mof_O 	O 	0.37435	0.24366	0.32776	-0.456
Mof_N 	N 	0.40972	0.12575	0.16034	-0.19
Mof_C 	C 	0.41246	0.24441	0.3728	0.467
Mof_N 	N 	0.40291	0.1443	0.09214	-0.18
Mof_C 	C 	0.41762	0.1673	0.2102	0.044
Mof_C 	C 	0.4075	0.1998	0.092	0.021
Mof_H 	H 	0.4052	0.2194	0.0498	0.051
Mof_C 	C 	0.46	0.2267	0.345	-0.378
Mof_H 	H 	0.4884	0.2588	0.3113	0.148
Mof_H 	H 	0.4849	0.226	0.3855	0.157
Mof_N 	N 	0.3208	0.4088	0.4369	-0.045
Mof_N 	N 	0.3117	0.3612	0.5658	-0.037
Mof_N 	N 	0.2815	0.384	0.5515	-0.059
Mof_Co	Co	0.03717	0.62597	0.83566	1.149
Mof_S 	S 	0.08473	0.56675	0.50946	0.021
Mof_S 	S 	0.09008	0.48439	0.63366	0.056
Mof_O 	O 	0.08416	0.59232	0.77261	-0.455
Mof_O 	O 	0.04102	0.57699	0.66109	-0.449
Mof_N 	N 	0.07639	0.45908	0.49367	-0.189
Mof_C 	C 	0.07913	0.57774	0.70613	0.466
Mof_N 	N 	0.06958	0.47763	0.42547	-0.178
Mof_C 	C 	0.08429	0.50063	0.54353	0.045
Mof_C 	C 	0.07417	0.53313	0.42533	0.022
Mof_H 	H 	0.07187	0.55273	0.38313	0.053
Mof_C 	C 	0.12667	0.56003	0.67833	-0.378
Mof_H 	H 	0.15507	0.59213	0.64463	0.147
Mof_H 	H 	0.15157	0.55933	0.71883	0.157
Mof_N 	N 	0.98747	0.74213	0.77023	-0.06
Mof_N 	N 	0.97837	0.69453	0.89913	-0.043
Mof_N 	N 	0.94817	0.71733	0.88483	-0.06
Mof_Co	Co	0.70383	0.95931	0.169	1.141
Mof_S 	S 	0.75139	0.90009	0.8428	0.008
Mof_S 	S 	0.75674	0.81773	0.967	0.05
Mof_O 	O 	0.75082	0.92566	0.10595	-0.46
Mof_O 	O 	0.70768	0.91033	0.99443	-0.458
Mof_N 	N 	0.74305	0.79242	0.82701	-0.191
Mof_C 	C 	0.74579	0.91108	0.03947	0.465
Mof_N 	N 	0.73624	0.81097	0.75881	-0.18
Mof_C 	C 	0.75095	0.83397	0.87687	0.045
Mof_C 	C 	0.74083	0.86647	0.75867	0.021
Mof_H 	H 	0.73853	0.88607	0.71647	0.05
Mof_C 	C 	0.79333	0.89337	0.01167	-0.374
Mof_H 	H 	0.82173	0.92547	0.97797	0.142
Mof_H 	H 	0.81823	0.89267	0.05217	0.153
Mof_N 	N 	0.65413	0.07547	0.10357	-0.044
Mof_N 	N 	0.64503	0.02787	0.23247	-0.033
Mof_N 	N 	0.61483	0.05067	0.21817	-0.057
Mof_Co	Co	0.70736	0.07786	0.50233	1.147
Mof_S 	S 	0.76658	0.18464	0.17613	0.016
Mof_S 	S 	0.84894	0.27235	0.30033	0.049
Mof_O 	O 	0.74101	0.1585	0.43928	-0.457
Mof_O 	O 	0.75634	0.13069	0.32776	-0.455
Mof_N 	N 	0.87425	0.28397	0.16034	-0.191
Mof_C 	C 	0.75559	0.16805	0.3728	0.466
Mof_N 	N 	0.8557	0.25861	0.09214	-0.18
Mof_C 	C 	0.8327	0.25032	0.2102	0.044
Mof_C 	C 	0.8002	0.2077	0.092	0.021
Mof_H 	H 	0.7806	0.1858	0.0498	0.051
Mof_C 	C 	0.7733	0.2333	0.345	-0.377
Mof_H 	H 	0.7412	0.2296	0.3113	0.147
Mof_H 	H 	0.774	0.2589	0.3855	0.157
Mof_N 	N 	0.5912	0.912	0.4369	-0.044
Mof_N 	N 	0.6388	0.9505	0.5658	-0.043
Mof_N 	N 	0.616	0.8975	0.5515	-0.059
Mof_Co	Co	0.37403	0.41119	0.83566	1.146
Mof_S 	S 	0.43325	0.51797	0.50946	0.016
Mof_S 	S 	0.51561	0.60568	0.63366	0.052
Mof_O 	O 	0.40768	0.49183	0.77261	-0.457
Mof_O 	O 	0.42301	0.46402	0.66109	-0.456
Mof_N 	N 	0.54092	0.6173	0.49367	-0.19
Mof_C 	C 	0.42226	0.50138	0.70613	0.467
Mof_N 	N 	0.52237	0.59194	0.42547	-0.18
Mof_C 	C 	0.49937	0.58365	0.54353	0.044
Mof_C 	C 	0.46687	0.54103	0.42533	0.021
Mof_H 	H 	0.44727	0.51913	0.38313	0.051
Mof_C 	C 	0.43997	0.56663	0.67833	-0.378
Mof_H 	H 	0.40787	0.56293	0.64463	0.148
Mof_H 	H 	0.44067	0.59223	0.71883	0.157
Mof_N 	N 	0.25787	0.24533	0.77023	-0.044
Mof_N 	N 	0.30547	0.28383	0.89913	-0.037
Mof_N 	N 	0.28267	0.23083	0.88483	-0.059
Mof_Co	Co	0.04069	0.74453	0.169	1.149
Mof_S 	S 	0.09991	0.85131	0.8428	0.021
Mof_S 	S 	0.18227	0.93902	0.967	0.039
Mof_O 	O 	0.07434	0.82517	0.10595	-0.454
Mof_O 	O 	0.08967	0.79736	0.99443	-0.455
Mof_N 	N 	0.20758	0.95064	0.82701	-0.195
Mof_C 	C 	0.08892	0.83472	0.03947	0.468
Mof_N 	N 	0.18903	0.92528	0.75881	-0.182
Mof_C 	C 	0.16603	0.91699	0.87687	0.044
Mof_C 	C 	0.13353	0.87437	0.75867	0.02
Mof_H 	H 	0.11393	0.85247	0.71647	0.052
Mof_C 	C 	0.10663	0.89997	0.01167	-0.367
Mof_H 	H 	0.07453	0.89627	0.97797	0.144
Mof_H 	H 	0.10733	0.92557	0.05217	0.154
Mof_N 	N 	0.92453	0.57867	0.10357	-0.046
Mof_N 	N 	0.97213	0.61717	0.23247	-0.047
Mof_N 	N 	0.94933	0.56417	0.21817	-0.061
Mof_Co	Co	0.92214	0.6295	0.50233	1.144
Mof_S 	S 	0.81536	0.58194	0.17613	0.016
Mof_S 	S 	0.72765	0.57659	0.30033	0.052
Mof_O 	O 	0.8415	0.58251	0.43928	-0.457
Mof_O 	O 	0.86931	0.62565	0.32776	-0.456
Mof_N 	N 	0.71603	0.59028	0.16034	-0.19
Mof_C 	C 	0.83195	0.58754	0.3728	0.467
Mof_N 	N 	0.74139	0.59709	0.09214	-0.18
Mof_C 	C 	0.74968	0.58238	0.2102	0.044
Mof_C 	C 	0.7923	0.5925	0.092	0.021
Mof_H 	H 	0.8142	0.5948	0.0498	0.051
Mof_C 	C 	0.7667	0.54	0.345	-0.378
Mof_H 	H 	0.7704	0.5116	0.3113	0.148
Mof_H 	H 	0.7411	0.5151	0.3855	0.157
Mof_N 	N 	0.088	0.6792	0.4369	-0.045
Mof_N 	N 	0.0495	0.6883	0.5658	-0.031
Mof_N 	N 	0.1025	0.7185	0.5515	-0.06
Mof_Co	Co	0.58881	0.96283	0.83566	1.14
Mof_S 	S 	0.48203	0.91527	0.50946	0.012
Mof_S 	S 	0.39432	0.90992	0.63366	0.047
Mof_O 	O 	0.50817	0.91584	0.77261	-0.46
Mof_O 	O 	0.53598	0.95898	0.66109	-0.463
Mof_N 	N 	0.3827	0.92361	0.49367	-0.192
Mof_C 	C 	0.49862	0.92087	0.70613	0.467
Mof_N 	N 	0.40806	0.93042	0.42547	-0.181
Mof_C 	C 	0.41635	0.91571	0.54353	0.043
Mof_C 	C 	0.45897	0.92583	0.42533	0.019
Mof_H 	H 	0.48087	0.92813	0.38313	0.049
Mof_C 	C 	0.43337	0.87333	0.67833	-0.378
Mof_H 	H 	0.43707	0.84493	0.64463	0.148
Mof_H 	H 	0.40777	0.84843	0.71883	0.157
Mof_N 	N 	0.75467	0.01253	0.77023	-0.032
Mof_N 	N 	0.71617	0.02163	0.89913	-0.029
Mof_N 	N 	0.76917	0.05183	0.88483	-0.058
Mof_Co	Co	0.25547	0.29617	0.169	1.146
Mof_S 	S 	0.14869	0.24861	0.8428	0.019
Mof_S 	S 	0.06098	0.24326	0.967	0.06
Mof_O 	O 	0.17483	0.24918	0.10595	-0.457
Mof_O 	O 	0.20264	0.29232	0.99443	-0.456
Mof_N 	N 	0.04936	0.25695	0.82701	-0.187
Mof_C 	C 	0.16528	0.25421	0.03947	0.469
Mof_N 	N 	0.07472	0.26376	0.75881	-0.178
Mof_C 	C 	0.08301	0.24905	0.87687	0.044
Mof_C 	C 	0.12563	0.25917	0.75867	0.022
Mof_H 	H 	0.14753	0.26147	0.71647	0.052
Mof_C 	C 	0.10003	0.20667	0.01167	-0.382
Mof_H 	H 	0.10373	0.17827	0.97797	0.151
Mof_H 	H 	0.07443	0.18177	0.05217	0.162
Mof_N 	N 	0.42133	0.34587	0.10357	-0.045
Mof_N 	N 	0.38283	0.35497	0.23247	-0.037
Mof_N 	N 	0.43583	0.38517	0.21817	-0.059
Mof_Co	Co	0.29264	0.3705	0.99767	1.145
Mof_S 	S 	0.23342	0.41806	0.32387	0.016
Mof_S 	S 	0.15106	0.42341	0.19967	0.052
Mof_O 	O 	0.25899	0.41749	0.06072	-0.457
Mof_O 	O 	0.24366	0.37435	0.17224	-0.456
Mof_N 	N 	0.12575	0.40972	0.33966	-0.19
Mof_C 	C 	0.24441	0.41246	0.1272	0.467
Mof_N 	N 	0.1443	0.40291	0.40786	-0.18
Mof_C 	C 	0.1673	0.41762	0.2898	0.044
Mof_C 	C 	0.1998	0.4075	0.408	0.021
Mof_H 	H 	0.2194	0.4052	0.4502	0.051
Mof_C 	C 	0.2267	0.46	0.155	-0.378
Mof_H 	H 	0.2588	0.4884	0.1887	0.148
Mof_H 	H 	0.226	0.4849	0.1145	0.157
Mof_N 	N 	0.4088	0.3208	0.0631	-0.045
Mof_N 	N 	0.3612	0.3117	0.9342	-0.037
Mof_N 	N 	0.384	0.2815	0.9485	-0.059
Mof_Co	Co	0.95931	0.70383	0.331	1.141
Mof_S 	S 	0.90009	0.75139	0.6572	0.009
Mof_S 	S 	0.81773	0.75674	0.533	0.05
Mof_O 	O 	0.92566	0.75082	0.39405	-0.461
Mof_O 	O 	0.91033	0.70768	0.50557	-0.457
Mof_N 	N 	0.79242	0.74305	0.67299	-0.191
Mof_C 	C 	0.91108	0.74579	0.46053	0.464
Mof_N 	N 	0.81097	0.73624	0.74119	-0.18
Mof_C 	C 	0.83397	0.75095	0.62313	0.045
Mof_C 	C 	0.86647	0.74083	0.74133	0.021
Mof_H 	H 	0.88607	0.73853	0.78353	0.05
Mof_C 	C 	0.89337	0.79333	0.48833	-0.375
Mof_H 	H 	0.92547	0.82173	0.52203	0.142
Mof_H 	H 	0.89267	0.81823	0.44783	0.153
Mof_N 	N 	0.07547	0.65413	0.39643	-0.044
Mof_N 	N 	0.02787	0.64503	0.26753	-0.032
Mof_N 	N 	0.05067	0.61483	0.28183	-0.056
Mof_Co	Co	0.62597	0.03717	0.66434	1.149
Mof_S 	S 	0.56675	0.08473	0.99054	0.023
Mof_S 	S 	0.48439	0.09008	0.86634	0.056
Mof_O 	O 	0.59232	0.08416	0.72739	-0.455
Mof_O 	O 	0.57699	0.04102	0.83891	-0.448
Mof_N 	N 	0.45908	0.07639	0.00633	-0.19
Mof_C 	C 	0.57774	0.07913	0.79387	0.466
Mof_N 	N 	0.47763	0.06958	0.07453	-0.178
Mof_C 	C 	0.50063	0.08429	0.95647	0.046
Mof_C 	C 	0.53313	0.07417	0.07467	0.02
Mof_H 	H 	0.55273	0.07187	0.11687	0.053
Mof_C 	C 	0.56003	0.12667	0.82167	-0.378
Mof_H 	H 	0.59213	0.15507	0.85537	0.147
Mof_H 	H 	0.55933	0.15157	0.78117	0.157
Mof_N 	N 	0.74213	0.98747	0.72977	-0.062
Mof_N 	N 	0.69453	0.97837	0.60087	-0.044
Mof_N 	N 	0.71733	0.94817	0.61517	-0.06
Mof_Co	Co	0.07786	0.70736	0.99767	1.146
Mof_S 	S 	0.18464	0.76658	0.32387	0.017
Mof_S 	S 	0.27235	0.84894	0.19967	0.05
Mof_O 	O 	0.1585	0.74101	0.06072	-0.456
Mof_O 	O 	0.13069	0.75634	0.17224	-0.455
Mof_N 	N 	0.28397	0.87425	0.33966	-0.191
Mof_C 	C 	0.16805	0.75559	0.1272	0.466
Mof_N 	N 	0.25861	0.8557	0.40786	-0.18
Mof_C 	C 	0.25032	0.8327	0.2898	0.044
Mof_C 	C 	0.2077	0.8002	0.408	0.021
Mof_H 	H 	0.1858	0.7806	0.4502	0.051
Mof_C 	C 	0.2333	0.7733	0.155	-0.377
Mof_H 	H 	0.2296	0.7412	0.1887	0.147
Mof_H 	H 	0.2589	0.774	0.1145	0.157
Mof_N 	N 	0.912	0.5912	0.0631	-0.045
Mof_N 	N 	0.9505	0.6388	0.9342	-0.042
Mof_N 	N 	0.8975	0.616	0.9485	-0.059
Mof_Co	Co	0.74453	0.04069	0.331	1.148
Mof_S 	S 	0.85131	0.09991	0.6572	0.022
Mof_S 	S 	0.93902	0.18227	0.533	0.044
Mof_O 	O 	0.82517	0.07434	0.39405	-0.454
Mof_O 	O 	0.79736	0.08967	0.50557	-0.453
Mof_N 	N 	0.95064	0.20758	0.67299	-0.194
Mof_C 	C 	0.83472	0.08892	0.46053	0.467
Mof_N 	N 	0.92528	0.18903	0.74119	-0.181
Mof_C 	C 	0.91699	0.16603	0.62313	0.043
Mof_C 	C 	0.87437	0.13353	0.74133	0.02
Mof_H 	H 	0.85247	0.11393	0.78353	0.052
Mof_C 	C 	0.89997	0.10663	0.48833	-0.376
Mof_H 	H 	0.89627	0.07453	0.52203	0.149
Mof_H 	H 	0.92557	0.10733	0.44783	0.156
Mof_N 	N 	0.57867	0.92453	0.39643	-0.045
Mof_N 	N 	0.61717	0.97213	0.26753	-0.045
Mof_N 	N 	0.56417	0.94933	0.28183	-0.061
Mof_Co	Co	0.41119	0.37403	0.66434	1.146
Mof_S 	S 	0.51797	0.43325	0.99054	0.017
Mof_S 	S 	0.60568	0.51561	0.86634	0.052
Mof_O 	O 	0.49183	0.40768	0.72739	-0.457
Mof_O 	O 	0.46402	0.42301	0.83891	-0.456
Mof_N 	N 	0.6173	0.54092	0.00633	-0.19
Mof_C 	C 	0.50138	0.42226	0.79387	0.467
Mof_N 	N 	0.59194	0.52237	0.07453	-0.18
Mof_C 	C 	0.58365	0.49937	0.95647	0.044
Mof_C 	C 	0.54103	0.46687	0.07467	0.02
Mof_H 	H 	0.51913	0.44727	0.11687	0.051
Mof_C 	C 	0.56663	0.43997	0.82167	-0.378
Mof_H 	H 	0.56293	0.40787	0.85537	0.148
Mof_H 	H 	0.59223	0.44067	0.78117	0.157
Mof_N 	N 	0.24533	0.25787	0.72977	-0.044
Mof_N 	N 	0.28383	0.30547	0.60087	-0.037
Mof_N 	N 	0.23083	0.28267	0.61517	-0.059
Mof_Co	Co	0.6295	0.92214	0.99767	1.144
Mof_S 	S 	0.58194	0.81536	0.32387	0.016
Mof_S 	S 	0.57659	0.72765	0.19967	0.052
Mof_O 	O 	0.58251	0.8415	0.06072	-0.457
Mof_O 	O 	0.62565	0.86931	0.17224	-0.456
Mof_N 	N 	0.59028	0.71603	0.33966	-0.19
Mof_C 	C 	0.58754	0.83195	0.1272	0.467
Mof_N 	N 	0.59709	0.74139	0.40786	-0.18
Mof_C 	C 	0.58238	0.74968	0.2898	0.044
Mof_C 	C 	0.5925	0.7923	0.408	0.021
Mof_H 	H 	0.5948	0.8142	0.4502	0.051
Mof_C 	C 	0.54	0.7667	0.155	-0.378
Mof_H 	H 	0.5116	0.7704	0.1887	0.148
Mof_H 	H 	0.5151	0.7411	0.1145	0.157
Mof_N 	N 	0.6792	0.088	0.0631	-0.045
Mof_N 	N 	0.6883	0.0495	0.9342	-0.03
Mof_N 	N 	0.7185	0.1025	0.9485	-0.059
Mof_Co	Co	0.29617	0.25547	0.331	1.146
Mof_S 	S 	0.24861	0.14869	0.6572	0.019
Mof_S 	S 	0.24326	0.06098	0.533	0.061
Mof_O 	O 	0.24918	0.17483	0.39405	-0.457
Mof_O 	O 	0.29232	0.20264	0.50557	-0.456
Mof_N 	N 	0.25695	0.04936	0.67299	-0.186
Mof_C 	C 	0.25421	0.16528	0.46053	0.468
Mof_N 	N 	0.26376	0.07472	0.74119	-0.178
Mof_C 	C 	0.24905	0.08301	0.62313	0.044
Mof_C 	C 	0.25917	0.12563	0.74133	0.022
Mof_H 	H 	0.26147	0.14753	0.78353	0.052
Mof_C 	C 	0.20667	0.10003	0.48833	-0.384
Mof_H 	H 	0.17827	0.10373	0.52203	0.152
Mof_H 	H 	0.18177	0.07443	0.44783	0.163
Mof_N 	N 	0.34587	0.42133	0.39643	-0.045
Mof_N 	N 	0.35497	0.38283	0.26753	-0.037
Mof_N 	N 	0.38517	0.43583	0.28183	-0.059
Mof_Co	Co	0.96283	0.58881	0.66434	1.141
Mof_S 	S 	0.91527	0.48203	0.99054	0.014
Mof_S 	S 	0.90992	0.39432	0.86634	0.047
Mof_O 	O 	0.91584	0.50817	0.72739	-0.46
Mof_O 	O 	0.95898	0.53598	0.83891	-0.462
Mof_N 	N 	0.92361	0.3827	0.00633	-0.193
Mof_C 	C 	0.92087	0.49862	0.79387	0.467
Mof_N 	N 	0.93042	0.40806	0.07453	-0.181
Mof_C 	C 	0.91571	0.41635	0.95647	0.044
Mof_C 	C 	0.92583	0.45897	0.07467	0.017
Mof_H 	H 	0.92813	0.48087	0.11687	0.05
Mof_C 	C 	0.87333	0.43337	0.82167	-0.378
Mof_H 	H 	0.84493	0.43707	0.85537	0.148
Mof_H 	H 	0.84843	0.40777	0.78117	0.157
Mof_N 	N 	0.01253	0.75467	0.72977	-0.033
Mof_N 	N 	0.02163	0.71617	0.60087	-0.03
Mof_N 	N 	0.05183	0.76917	0.61517	-0.059
Mof_N 	N 	0.66667	0.67988	0.58333	-0.294
Mof_N 	N 	0.66667	0.63168	0.58333	-0.035
Mof_N 	N 	0.32012	0.98678	0.58333	-0.304
Mof_N 	N 	0.36832	0.03498	0.58333	-0.027
Mof_N 	N 	0.01322	0.33333	0.58333	-0.285
Mof_N 	N 	0.96502	0.33333	0.58333	-0.043
Mof_N 	N 	0.67988	0.66667	0.91667	-0.294
Mof_N 	N 	0.63168	0.66667	0.91667	-0.035
Mof_N 	N 	0.34655	0	0.25	-0.29
Mof_N 	N 	0.29835	0	0.25	-0.029
Mof_N 	N 	0.98678	0.32012	0.91667	-0.302
Mof_N 	N 	0.03498	0.36832	0.91667	-0.028
Mof_N 	N 	0.65345	0.65345	0.25	-0.294
Mof_N 	N 	0.70165	0.70165	0.25	-0.035
Mof_N 	N 	0.33333	0.01322	0.91667	-0.284
Mof_N 	N 	0.33333	0.96502	0.91667	-0.044
Mof_N 	N 	6.49402e-19	0.34655	0.25	-0.289
Mof_N 	N 	2.43528e-17	0.29835	0.25	-0.028
Mof_N 	N 	0.33333	0.32012	0.41667	-0.294
Mof_N 	N 	0.33333	0.36832	0.41667	-0.035
Mof_N 	N 	-6.91619e-17	0.65345	0.75	-0.289
Mof_N 	N 	-2.17552e-17	0.70165	0.75	-0.029
Mof_N 	N 	0.67988	0.01322	0.41667	-0.285
Mof_N 	N 	0.63168	0.96502	0.41667	-0.043
Mof_N 	N 	0.34655	0.34655	0.75	-0.294
Mof_N 	N 	0.29835	0.29835	0.75	-0.035
Mof_N 	N 	0.98678	0.66667	0.41667	-0.304
Mof_N 	N 	0.03498	0.66667	0.41667	-0.026
Mof_N 	N 	0.65345	0	0.75	-0.289
Mof_N 	N 	0.70165	0	0.75	-0.028
Mof_N 	N 	0.32012	0.33333	0.08333	-0.294
Mof_N 	N 	0.36832	0.33333	0.08333	-0.035
Mof_N 	N 	0.01322	0.67988	0.08333	-0.284
Mof_N 	N 	0.96502	0.63168	0.08333	-0.044
Mof_N 	N 	0.66667	0.98678	0.08333	-0.303
Mof_N 	N 	0.66667	0.03498	0.08333	-0.028
Mof_N 	N 	0.65898	0.66667	0.41667	-0.27
Mof_N 	N 	0.32565	0	0.75	-0.261
Mof_N 	N 	0.33333	0.99232	0.41667	-0.281
Mof_N 	N 	1.94821e-18	0.32565	0.75	-0.262
Mof_N 	N 	0.00768	0.34102	0.41667	-0.259
Mof_N 	N 	0.67435	0.67435	0.75	-0.27
Mof_N 	N 	0.66667	0.65898	0.08333	-0.27
Mof_N 	N 	0.99232	0.33333	0.08333	-0.282
Mof_N 	N 	0.34102	0.00768	0.08333	-0.261
Mof_N 	N 	0.34102	0.33333	0.58333	-0.27
Mof_N 	N 	0.66667	0.00768	0.58333	-0.259
Mof_N 	N 	0.99232	0.65898	0.58333	-0.281
Mof_N 	N 	0.33333	0.34102	0.91667	-0.27
Mof_N 	N 	-7.04607e-17	0.67435	0.25	-0.261
Mof_N 	N 	0.00768	0.66667	0.91667	-0.261
Mof_N 	N 	0.67435	0	0.25	-0.262
Mof_N 	N 	0.65898	0.99232	0.91667	-0.282
Mof_N 	N 	0.32565	0.32565	0.25	-0.27
_end
