data_functionalizedCrystal
_audit_creation_method	'EQeq! by Chris Wilmer'
_symmetry_space_group_name_H-M	'P1'
_symmetry_Int_Tables_number	1
_symmetry_cell_setting	triclinic
loop_
_symmetry_equiv_pos_as_xyz
  x,y,z
_cell_length_a	10.8294
_cell_length_b	12.7465
_cell_length_c	12.3971
_cell_angle_alpha	90
_cell_angle_beta	95.115
_cell_angle_gamma	90
loop_
_atom_site_label
_atom_site_type_symbol
_atom_site_fract_x
_atom_site_fract_y
_atom_site_fract_z
_atom_site_charge
Mof_Fe	Fe	0.02977	0.879	0.65918	1.042
Mof_Fe	Fe	0.50946	0.87512	0.85221	1.056
Mof_P 	P 	0.56557	0.87658	0.11858	0.599
Mof_P 	P 	0.42927	0.62737	0.89228	0.618
Mof_P 	P 	0.74803	0.83985	0.69691	0.577
Mof_O 	O 	0.4806	0.6136	0.0087	-0.366
Mof_O 	O 	0.8758	0.888	0.7305	-0.308
Mof_O 	O 	0.4517	0.5316	0.8236	-0.334
Mof_O 	O 	0.5059	0.7779	0.1607	-0.355
Mof_O 	O 	0.2137	0.8663	0.6224	-0.276
Mof_O 	O 	0.1284	0.8682	0.8143	-0.262
Mof_O 	O 	0.6631	0.866	0.7828	-0.312
Mof_O 	O 	0.5853	0.8693	0.9998	-0.347
Mof_O 	O 	0.4828	0.7223	0.8403	-0.34
Mof_O 	O 	0.4895	0.9704	0.1485	-0.35
Mof_O 	O 	0.3224	0.8797	0.894	-0.281
Mof_O 	O 	0.4075	0.8821	0.6984	-0.269
Mof_O 	O 	0.7022	0.8849	0.1757	-0.393
Mof_H 	H 	0.6995	0.8892	0.2414	0.233
Mof_O 	O 	0.2842	0.6401	0.8949	-0.393
Mof_H 	H 	0.252	0.6479	0.833	0.241
Mof_O 	O 	0.7669	0.7151	0.7028	-0.387
Mof_H 	H 	0.8176	0.6974	0.661	0.294
Mof_O 	O 	0.7019	0.8716	0.5844	-0.181
Mof_C 	C 	0.294	0.874	0.7019	0.246
Mof_C 	C 	0.2444	0.8734	0.8139	0.241
Mof_Fe	Fe	0.47023	0.379	0.84082	1.054
Mof_Fe	Fe	0.99054	0.37512	0.64779	1.052
Mof_P 	P 	0.93443	0.37658	0.38142	0.596
Mof_P 	P 	0.07073	0.12737	0.60772	0.616
Mof_P 	P 	0.75197	0.33985	0.80309	0.576
Mof_O 	O 	0.0194	0.1136	0.4913	-0.362
Mof_O 	O 	0.6242	0.388	0.7695	-0.312
Mof_O 	O 	0.0483	0.0316	0.6764	-0.328
Mof_O 	O 	0.9941	0.2779	0.3393	-0.355
Mof_O 	O 	0.2863	0.3663	0.8776	-0.275
Mof_O 	O 	0.3716	0.3682	0.6857	-0.261
Mof_O 	O 	0.8369	0.366	0.7172	-0.313
Mof_O 	O 	0.9147	0.3693	0.5002	-0.345
Mof_O 	O 	0.0172	0.2223	0.6597	-0.337
Mof_O 	O 	0.0105	0.4704	0.3515	-0.349
Mof_O 	O 	0.1776	0.3797	0.606	-0.279
Mof_O 	O 	0.0925	0.3821	0.8016	-0.267
Mof_O 	O 	0.7978	0.3849	0.3243	-0.394
Mof_H 	H 	0.8005	0.3892	0.2586	0.233
Mof_O 	O 	0.2158	0.1401	0.6051	-0.392
Mof_H 	H 	0.248	0.1479	0.667	0.241
Mof_O 	O 	0.7331	0.2151	0.7972	-0.388
Mof_H 	H 	0.6824	0.1974	0.839	0.293
Mof_O 	O 	0.7981	0.3716	0.9156	-0.182
Mof_C 	C 	0.206	0.374	0.7981	0.247
Mof_C 	C 	0.2556	0.3734	0.6861	0.241
Mof_Fe	Fe	0.97023	0.121	0.34082	1.041
Mof_Fe	Fe	0.49054	0.12488	0.14779	1.055
Mof_P 	P 	0.43443	0.12342	0.88142	0.598
Mof_P 	P 	0.57073	0.37263	0.10772	0.617
Mof_P 	P 	0.25197	0.16015	0.30309	0.576
Mof_O 	O 	0.5194	0.3864	0.9913	-0.367
Mof_O 	O 	0.1242	0.112	0.2695	-0.308
Mof_O 	O 	0.5483	0.4684	0.1764	-0.334
Mof_O 	O 	0.4941	0.2221	0.8393	-0.355
Mof_O 	O 	0.7863	0.1337	0.3776	-0.276
Mof_O 	O 	0.8716	0.1318	0.1857	-0.262
Mof_O 	O 	0.3369	0.134	0.2172	-0.312
Mof_O 	O 	0.4147	0.1307	0.0002	-0.347
Mof_O 	O 	0.5172	0.2777	0.1597	-0.34
Mof_O 	O 	0.5105	0.0296	0.8515	-0.35
Mof_O 	O 	0.6776	0.1203	0.106	-0.281
Mof_O 	O 	0.5925	0.1179	0.3016	-0.269
Mof_O 	O 	0.2978	0.1151	0.8243	-0.393
Mof_H 	H 	0.3005	0.1108	0.7586	0.233
Mof_O 	O 	0.7158	0.3599	0.1051	-0.393
Mof_H 	H 	0.748	0.3521	0.167	0.241
Mof_O 	O 	0.2331	0.2849	0.2972	-0.387
Mof_H 	H 	0.1824	0.3026	0.339	0.294
Mof_O 	O 	0.2981	0.1284	0.4156	-0.181
Mof_C 	C 	0.706	0.126	0.2981	0.246
Mof_C 	C 	0.7556	0.1266	0.1861	0.241
Mof_Fe	Fe	0.52977	0.621	0.15918	1.054
Mof_Fe	Fe	0.00946	0.62488	0.35221	1.052
Mof_P 	P 	0.06557	0.62342	0.61858	0.596
Mof_P 	P 	0.92927	0.87263	0.39228	0.616
Mof_P 	P 	0.24803	0.66015	0.19691	0.576
Mof_O 	O 	0.9806	0.8864	0.5087	-0.362
Mof_O 	O 	0.3758	0.612	0.2305	-0.312
Mof_O 	O 	0.9517	0.9684	0.3236	-0.328
Mof_O 	O 	0.0059	0.7221	0.6607	-0.355
Mof_O 	O 	0.7137	0.6337	0.1224	-0.275
Mof_O 	O 	0.6284	0.6318	0.3143	-0.261
Mof_O 	O 	0.1631	0.634	0.2828	-0.313
Mof_O 	O 	0.0853	0.6307	0.4998	-0.345
Mof_O 	O 	0.9828	0.7777	0.3403	-0.337
Mof_O 	O 	0.9895	0.5296	0.6485	-0.349
Mof_O 	O 	0.8224	0.6203	0.394	-0.279
Mof_O 	O 	0.9075	0.6179	0.1984	-0.267
Mof_O 	O 	0.2022	0.6151	0.6757	-0.394
Mof_H 	H 	0.1995	0.6108	0.7414	0.233
Mof_O 	O 	0.7842	0.8599	0.3949	-0.392
Mof_H 	H 	0.752	0.8521	0.333	0.241
Mof_O 	O 	0.2669	0.7849	0.2028	-0.388
Mof_H 	H 	0.3176	0.8026	0.161	0.293
Mof_O 	O 	0.2019	0.6284	0.0844	-0.182
Mof_C 	C 	0.794	0.626	0.2019	0.247
Mof_C 	C 	0.7444	0.6266	0.3139	0.241
_end
