data_functionalizedCrystal
_audit_creation_method	'EQeq! by Chris Wilmer'
_symmetry_space_group_name_H-M	'P1'
_symmetry_Int_Tables_number	1
_symmetry_cell_setting	triclinic
loop_
_symmetry_equiv_pos_as_xyz
  x,y,z
_cell_length_a	22.269
_cell_length_b	22.269
_cell_length_c	22.269
_cell_angle_alpha	109.471
_cell_angle_beta	109.471
_cell_angle_gamma	109.471
loop_
_atom_site_label
_atom_site_type_symbol
_atom_site_fract_x
_atom_site_fract_y
_atom_site_fract_z
_atom_site_charge
Mof_O 	O 	0.5465	0.8106	0.1915	-0.52
Mof_O 	O 	0.6702	0.9402	0.088	-0.69
Mof_O 	O 	0.8036	0.9379	0.0793	-0.649
Mof_O 	O 	0.5369	0.8661	0.2796	-0.569
Mof_C 	C 	0.5597	0.8684	0.2361	0.469
Mof_C 	C 	0.6206	0.9294	0.1812	0.164
Mof_H 	H 	0.60001	0.87357	0.13349	-0.001
Mof_C 	C 	0.601	0.9336	0.2396	-0.151
Mof_O 	O 	0.6191	0.355	0.8085	-0.515
Mof_O 	O 	0.8522	0.5822	0.912	-0.697
Mof_O 	O 	0.8586	0.7243	0.9207	-0.655
Mof_O 	O 	0.5865	0.2573	0.7204	-0.594
Mof_C 	C 	0.6323	0.3236	0.7639	0.487
Mof_C 	C 	0.7482	0.4394	0.8188	0.122
Mof_H 	H 	0.74008	0.46653	0.86651	0.021
Mof_C 	C 	0.694	0.3614	0.7604	-0.212
Mof_O 	O 	0.3809	0.1894	0.7359	-0.517
Mof_O 	O 	0.1478	0.0598	0.73	-0.737
Mof_O 	O 	0.1414	0.0621	0.8657	-0.684
Mof_O 	O 	0.4135	0.1339	0.6708	-0.598
Mof_C 	C 	0.3677	0.1316	0.6913	0.463
Mof_C 	C 	0.2518	0.0706	0.6912	0.108
Mof_H 	H 	0.25992	0.12643	0.72645	0.01
Mof_C 	C 	0.306	0.0664	0.6674	-0.177
Mof_O 	O 	0.4535	0.645	0.2641	-0.528
Mof_O 	O 	0.3298	0.4178	0.27	-0.755
Mof_O 	O 	0.1964	0.2757	0.1343	-0.717
Mof_O 	O 	0.4631	0.7427	0.3292	-0.587
Mof_C 	C 	0.4403	0.6764	0.3087	0.487
Mof_C 	C 	0.3794	0.5606	0.3088	0.121
Mof_H 	H 	0.39999	0.53347	0.27355	0.005
Mof_C 	C 	0.399	0.6386	0.3326	-0.219
Mof_O 	O 	0.1915	0.5465	0.8106	-0.521
Mof_O 	O 	0.088	0.6702	0.9402	-0.69
Mof_O 	O 	0.0793	0.8036	0.9379	-0.647
Mof_O 	O 	0.2796	0.5369	0.8661	-0.569
Mof_C 	C 	0.2361	0.5597	0.8684	0.467
Mof_C 	C 	0.1812	0.6206	0.9294	0.165
Mof_H 	H 	0.13349	0.60001	0.87357	-0.002
Mof_C 	C 	0.2396	0.601	0.9336	-0.149
Mof_O 	O 	0.8085	0.6191	0.355	-0.517
Mof_O 	O 	0.912	0.8522	0.5822	-0.701
Mof_O 	O 	0.9207	0.8586	0.7243	-0.66
Mof_O 	O 	0.7204	0.5865	0.2573	-0.593
Mof_C 	C 	0.7639	0.6323	0.3236	0.487
Mof_C 	C 	0.8188	0.7482	0.4394	0.122
Mof_H 	H 	0.86651	0.74008	0.46653	0.019
Mof_C 	C 	0.7604	0.694	0.3614	-0.213
Mof_O 	O 	0.7359	0.3809	0.1894	-0.522
Mof_O 	O 	0.73	0.1478	0.0598	-0.737
Mof_O 	O 	0.8657	0.1414	0.0621	-0.685
Mof_O 	O 	0.6708	0.4135	0.1339	-0.596
Mof_C 	C 	0.6913	0.3677	0.1316	0.478
Mof_C 	C 	0.6912	0.2518	0.0706	0.12
Mof_H 	H 	0.72645	0.25992	0.12643	0.007
Mof_C 	C 	0.6674	0.306	0.0664	-0.206
Mof_O 	O 	0.2641	0.4535	0.645	-0.529
Mof_O 	O 	0.27	0.3298	0.4178	-0.756
Mof_O 	O 	0.1343	0.1964	0.2757	-0.718
Mof_O 	O 	0.3292	0.4631	0.7427	-0.587
Mof_C 	C 	0.3087	0.4403	0.6764	0.487
Mof_C 	C 	0.3088	0.3794	0.5606	0.121
Mof_H 	H 	0.27355	0.39999	0.53347	0.005
Mof_C 	C 	0.3326	0.399	0.6386	-0.219
Mof_O 	O 	0.8106	0.1915	0.5465	-0.517
Mof_O 	O 	0.9402	0.088	0.6702	-0.694
Mof_O 	O 	0.9379	0.0793	0.8036	-0.655
Mof_O 	O 	0.8661	0.2796	0.5369	-0.573
Mof_C 	C 	0.8684	0.2361	0.5597	0.454
Mof_C 	C 	0.9294	0.1812	0.6206	0.149
Mof_H 	H 	0.87357	0.13349	0.60001	0.001
Mof_C 	C 	0.9336	0.2396	0.601	-0.128
Mof_O 	O 	0.355	0.8085	0.6191	-0.516
Mof_O 	O 	0.5822	0.912	0.8522	-0.699
Mof_O 	O 	0.7243	0.9207	0.8586	-0.657
Mof_O 	O 	0.2573	0.7204	0.5865	-0.594
Mof_C 	C 	0.3236	0.7639	0.6323	0.487
Mof_C 	C 	0.4394	0.8188	0.7482	0.122
Mof_H 	H 	0.46653	0.86651	0.74008	0.02
Mof_C 	C 	0.3614	0.7604	0.694	-0.213
Mof_O 	O 	0.1894	0.7359	0.3809	-0.518
Mof_O 	O 	0.0598	0.73	0.1478	-0.737
Mof_O 	O 	0.0621	0.8657	0.1414	-0.684
Mof_O 	O 	0.1339	0.6708	0.4135	-0.598
Mof_C 	C 	0.1316	0.6913	0.3677	0.464
Mof_C 	C 	0.0706	0.6912	0.2518	0.108
Mof_H 	H 	0.12643	0.72645	0.25992	0.01
Mof_C 	C 	0.0664	0.6674	0.306	-0.179
Mof_O 	O 	0.645	0.2641	0.4535	-0.528
Mof_O 	O 	0.4178	0.27	0.3298	-0.755
Mof_O 	O 	0.2757	0.1343	0.1964	-0.715
Mof_O 	O 	0.7427	0.3292	0.4631	-0.588
Mof_C 	C 	0.6764	0.3087	0.4403	0.487
Mof_C 	C 	0.5606	0.3088	0.3794	0.121
Mof_H 	H 	0.53347	0.27355	0.39999	0.005
Mof_C 	C 	0.6386	0.3326	0.399	-0.22
Mof_O 	O 	0.8106	0.5465	0.1915	-0.517
Mof_O 	O 	0.9402	0.6702	0.088	-0.693
Mof_O 	O 	0.9379	0.8036	0.0793	-0.653
Mof_O 	O 	0.8661	0.5369	0.2796	-0.573
Mof_C 	C 	0.8684	0.5597	0.2361	0.454
Mof_C 	C 	0.9294	0.6206	0.1812	0.149
Mof_H 	H 	0.87357	0.60001	0.13349	0.001
Mof_C 	C 	0.9336	0.601	0.2396	-0.128
Mof_O 	O 	0.355	0.6191	0.8085	-0.515
Mof_O 	O 	0.5822	0.8522	0.912	-0.697
Mof_O 	O 	0.7243	0.8586	0.9207	-0.655
Mof_O 	O 	0.2573	0.5865	0.7204	-0.594
Mof_C 	C 	0.3236	0.6323	0.7639	0.487
Mof_C 	C 	0.4394	0.7482	0.8188	0.122
Mof_H 	H 	0.46653	0.74008	0.86651	0.021
Mof_C 	C 	0.3614	0.694	0.7604	-0.212
Mof_O 	O 	0.1894	0.3809	0.7359	-0.517
Mof_O 	O 	0.0598	0.1478	0.73	-0.737
Mof_O 	O 	0.0621	0.1414	0.8657	-0.684
Mof_O 	O 	0.1339	0.4135	0.6708	-0.598
Mof_C 	C 	0.1316	0.3677	0.6913	0.464
Mof_C 	C 	0.0706	0.2518	0.6912	0.109
Mof_H 	H 	0.12643	0.25992	0.72645	0.01
Mof_C 	C 	0.0664	0.306	0.6674	-0.179
Mof_O 	O 	0.645	0.4535	0.2641	-0.528
Mof_O 	O 	0.4178	0.3298	0.27	-0.755
Mof_O 	O 	0.2757	0.1964	0.1343	-0.715
Mof_O 	O 	0.7427	0.4631	0.3292	-0.588
Mof_C 	C 	0.6764	0.4403	0.3087	0.487
Mof_C 	C 	0.5606	0.3794	0.3088	0.121
Mof_H 	H 	0.53347	0.39999	0.27355	0.005
Mof_C 	C 	0.6386	0.399	0.3326	-0.22
Mof_O 	O 	0.5465	0.1915	0.8106	-0.522
Mof_O 	O 	0.6702	0.088	0.9402	-0.69
Mof_O 	O 	0.8036	0.0793	0.9379	-0.651
Mof_O 	O 	0.5369	0.2796	0.8661	-0.569
Mof_C 	C 	0.5597	0.2361	0.8684	0.467
Mof_C 	C 	0.6206	0.1812	0.9294	0.165
Mof_H 	H 	0.60001	0.13349	0.87357	-0.002
Mof_C 	C 	0.601	0.2396	0.9336	-0.149
Mof_O 	O 	0.6191	0.8085	0.355	-0.515
Mof_O 	O 	0.8522	0.912	0.5822	-0.699
Mof_O 	O 	0.8586	0.9207	0.7243	-0.658
Mof_O 	O 	0.5865	0.7204	0.2573	-0.593
Mof_C 	C 	0.6323	0.7639	0.3236	0.487
Mof_C 	C 	0.7482	0.8188	0.4394	0.122
Mof_H 	H 	0.74008	0.86651	0.46653	0.02
Mof_C 	C 	0.694	0.7604	0.3614	-0.213
Mof_O 	O 	0.3809	0.7359	0.1894	-0.522
Mof_O 	O 	0.1478	0.73	0.0598	-0.737
Mof_O 	O 	0.1414	0.8657	0.0621	-0.685
Mof_O 	O 	0.4135	0.6708	0.1339	-0.596
Mof_C 	C 	0.3677	0.6913	0.1316	0.478
Mof_C 	C 	0.2518	0.6912	0.0706	0.12
Mof_H 	H 	0.25992	0.72645	0.12643	0.007
Mof_C 	C 	0.306	0.6674	0.0664	-0.205
Mof_O 	O 	0.4535	0.2641	0.645	-0.528
Mof_O 	O 	0.3298	0.27	0.4178	-0.755
Mof_O 	O 	0.1964	0.1343	0.2757	-0.714
Mof_O 	O 	0.4631	0.3292	0.7427	-0.587
Mof_C 	C 	0.4403	0.3087	0.6764	0.487
Mof_C 	C 	0.3794	0.3088	0.5606	0.121
Mof_H 	H 	0.39999	0.27355	0.53347	0.005
Mof_C 	C 	0.399	0.3326	0.6386	-0.219
Mof_O 	O 	0.1915	0.8106	0.5465	-0.518
Mof_O 	O 	0.088	0.9402	0.6702	-0.692
Mof_O 	O 	0.0793	0.9379	0.8036	-0.649
Mof_O 	O 	0.2796	0.8661	0.5369	-0.572
Mof_C 	C 	0.2361	0.8684	0.5597	0.453
Mof_C 	C 	0.1812	0.9294	0.6206	0.15
Mof_H 	H 	0.13349	0.87357	0.60001	0.001
Mof_C 	C 	0.2396	0.9336	0.601	-0.123
Mof_O 	O 	0.8085	0.355	0.6191	-0.516
Mof_O 	O 	0.912	0.5822	0.8522	-0.701
Mof_O 	O 	0.9207	0.7243	0.8586	-0.66
Mof_O 	O 	0.7204	0.2573	0.5865	-0.593
Mof_C 	C 	0.7639	0.3236	0.6323	0.487
Mof_C 	C 	0.8188	0.4394	0.7482	0.122
Mof_H 	H 	0.86651	0.46653	0.74008	0.02
Mof_C 	C 	0.7604	0.3614	0.694	-0.213
Mof_O 	O 	0.7359	0.1894	0.3809	-0.522
Mof_O 	O 	0.73	0.0598	0.1478	-0.737
Mof_O 	O 	0.8657	0.0621	0.1414	-0.686
Mof_O 	O 	0.6708	0.1339	0.4135	-0.596
Mof_C 	C 	0.6913	0.1316	0.3677	0.479
Mof_C 	C 	0.6912	0.0706	0.2518	0.12
Mof_H 	H 	0.72645	0.12643	0.25992	0.007
Mof_C 	C 	0.6674	0.0664	0.306	-0.206
Mof_O 	O 	0.2641	0.645	0.4535	-0.528
Mof_O 	O 	0.27	0.4178	0.3298	-0.755
Mof_O 	O 	0.1343	0.2757	0.1964	-0.717
Mof_O 	O 	0.3292	0.7427	0.4631	-0.588
Mof_C 	C 	0.3087	0.6764	0.4403	0.487
Mof_C 	C 	0.3088	0.5606	0.3794	0.121
Mof_H 	H 	0.27355	0.53347	0.39999	0.005
Mof_C 	C 	0.3326	0.6386	0.399	-0.219
Mof_In	In	0.69437	0.90283	-0	2.367
Mof_In	In	0.90283	0.69437	-0	2.365
Mof_In	In	0.09717	0.09717	0.79154	2.431
Mof_In	In	0.30563	0.30563	0.20846	2.453
Mof_In	In	-2.67458e-17	0.69437	0.90283	2.384
Mof_In	In	-1.33729e-17	0.90283	0.69437	2.381
Mof_In	In	0.79154	0.09717	0.09717	2.427
Mof_In	In	0.20846	0.30563	0.30563	2.455
Mof_In	In	0.90283	-5.34917e-17	0.69437	2.372
Mof_In	In	0.69437	-5.34917e-17	0.90283	2.378
Mof_In	In	0.09717	0.79154	0.09717	2.428
Mof_In	In	0.30563	0.20846	0.30563	2.453
Mof_In	In	0.5	0.75	0.25	2.539
Mof_In	In	0.5	0.25	0.75	2.538
Mof_In	In	0.25	0.5	0.75	2.538
Mof_In	In	0.75	0.5	0.25	2.538
Mof_In	In	0.75	0.25	0.5	2.538
Mof_In	In	0.25	0.75	0.5	2.537
Mof_O 	O 	0.7314	0	-0	-1.316
Mof_O 	O 	-0	0.7314	-0	-1.315
Mof_O 	O 	-0	-5.34917e-17	0.7314	-1.314
Mof_O 	O 	0.2686	0.2686	0.2686	-1.281
Mof_C 	C 	1.33729e-17	0.0659	0.1933	0.039
Mof_H 	H 	0.99875	0.11956	0.2112	0.048
Mof_C 	C 	0.8726	0.8067	0.8067	0.16
Mof_H 	H 	0.90836	0.78755	0.7888	0.006
Mof_C 	C 	0.1274	0.9341	0.9341	0.229
Mof_H 	H 	0.09164	0.88044	0.87919	-0.022
Mof_C 	C 	-1.67162e-18	0.1933	0.0659	0.106
Mof_H 	H 	0.00125	0.21245	0.12081	-0.018
Mof_C 	C 	0.1933	-6.68646e-18	0.0659	0.015
Mof_H 	H 	0.2112	0.99875	0.11956	0.055
Mof_C 	C 	0.8067	0.8726	0.8067	0.16
Mof_H 	H 	0.7888	0.90836	0.78755	0.006
Mof_C 	C 	0.9341	0.1274	0.9341	0.259
Mof_H 	H 	0.87919	0.09164	0.88044	-0.029
Mof_C 	C 	0.0659	0	0.1933	0.088
Mof_H 	H 	0.12081	0.00125	0.21245	-0.015
Mof_C 	C 	0.0659	0.1933	-0	0.099
Mof_H 	H 	0.12081	0.21245	0.00125	-0.019
Mof_C 	C 	0.8067	0.8067	0.8726	0.16
Mof_H 	H 	0.7888	0.78755	0.90836	0.007
Mof_C 	C 	0.9341	0.9341	0.1274	0.242
Mof_H 	H 	0.87919	0.88044	0.09164	-0.026
Mof_C 	C 	0.1933	0.0659	-0	0.009
Mof_H 	H 	0.2112	0.11956	0.99875	0.059
Mof_C 	C 	0.9356	0	0.1496	-0.234
Mof_C 	C 	0.6914	-1.33729e-17	0.1384	0.583
Mof_C 	C 	0.8612	0	0.123	0.498
Mof_C 	C 	0.6234	0	0.2984	0.062
Mof_H 	H 	0.60569	0.00033	0.34094	0.024
Mof_C 	C 	0.6647	-1.33729e-17	0.1947	-0.278
Mof_C 	C 	0.8504	0.786	0.8504	-0.229
Mof_C 	C 	0.8616	0.553	0.8616	0.637
Mof_C 	C 	0.877	0.7382	0.877	0.568
Mof_C 	C 	0.7016	0.325	0.7016	0.136
Mof_H 	H 	0.65906	0.26474	0.65939	0.025
Mof_C 	C 	0.8053	0.47	0.8053	-0.218
Mof_C 	C 	0.1496	5.34917e-17	0.9356	-0.213
Mof_C 	C 	0.1384	0	0.6914	0.581
Mof_C 	C 	0.123	0	0.8612	0.493
Mof_C 	C 	0.2984	-5.34917e-17	0.6234	-0.014
Mof_H 	H 	0.34061	0.99967	0.60536	0.1
Mof_C 	C 	0.1947	0	0.6647	-0.269
Mof_C 	C 	0.0644	0.214	0.0644	-0.243
Mof_C 	C 	0.3086	0.447	0.3086	0.654
Mof_C 	C 	0.1388	0.2618	0.1388	0.568
Mof_C 	C 	0.3766	0.675	0.3766	0.137
Mof_H 	H 	0.39464	0.73526	0.39431	0.03
Mof_C 	C 	0.3353	0.53	0.3353	-0.237
Mof_C 	C 	0.1496	0.9356	-0	-0.22
Mof_C 	C 	0.1384	0.6914	-0	0.58
Mof_C 	C 	0.123	0.8612	-0	0.491
Mof_C 	C 	0.2984	0.6234	-0	0.058
Mof_H 	H 	0.34094	0.60569	0.00033	0.025
Mof_C 	C 	0.1947	0.6647	-0	-0.281
Mof_C 	C 	0.8504	0.8504	0.786	-0.229
Mof_C 	C 	0.8616	0.8616	0.553	0.637
Mof_C 	C 	0.877	0.877	0.7382	0.568
Mof_C 	C 	0.7016	0.7016	0.325	0.136
Mof_H 	H 	0.65939	0.65906	0.26474	0.025
Mof_C 	C 	0.8053	0.8053	0.47	-0.218
Mof_C 	C 	0.9356	0.1496	-0	-0.263
Mof_C 	C 	0.6914	0.1384	-0	0.58
Mof_C 	C 	0.8612	0.123	-0	0.506
Mof_C 	C 	0.6234	0.2984	-0	0.058
Mof_H 	H 	0.60569	0.34094	0.00033	0.024
Mof_C 	C 	0.6647	0.1947	-0	-0.281
Mof_C 	C 	0.0644	0.0644	0.214	-0.217
Mof_C 	C 	0.3086	0.3086	0.447	0.654
Mof_C 	C 	0.1388	0.1388	0.2618	0.558
Mof_C 	C 	0.3766	0.3766	0.675	0.137
Mof_H 	H 	0.39464	0.39431	0.73526	0.031
Mof_C 	C 	0.3353	0.3353	0.53	-0.237
Mof_C 	C 	8.02375e-17	0.1496	0.9356	-0.253
Mof_C 	C 	4.01188e-17	0.1384	0.6914	0.584
Mof_C 	C 	8.02375e-17	0.123	0.8612	0.51
Mof_C 	C 	-1.33729e-17	0.2984	0.6234	-0.007
Mof_H 	H 	0.99967	0.34061	0.60536	0.096
Mof_C 	C 	5.34917e-17	0.1947	0.6647	-0.268
Mof_C 	C 	0.786	0.8504	0.8504	-0.228
Mof_C 	C 	0.553	0.8616	0.8616	0.637
Mof_C 	C 	0.7382	0.877	0.877	0.568
Mof_C 	C 	0.325	0.7016	0.7016	0.136
Mof_H 	H 	0.26474	0.65906	0.65939	0.025
Mof_C 	C 	0.47	0.8053	0.8053	-0.218
Mof_C 	C 	4.68052e-17	0.9356	0.1496	-0.245
Mof_C 	C 	-0	0.6914	0.1384	0.583
Mof_C 	C 	6.68646e-18	0.8612	0.123	0.507
Mof_C 	C 	-6.68646e-17	0.6234	0.2984	-0.007
Mof_H 	H 	0.99967	0.60536	0.34061	0.096
Mof_C 	C 	-2.67458e-17	0.6647	0.1947	-0.268
Mof_C 	C 	0.214	0.0644	0.0644	-0.184
Mof_C 	C 	0.447	0.3086	0.3086	0.654
Mof_C 	C 	0.2618	0.1388	0.1388	0.546
Mof_C 	C 	0.675	0.3766	0.3766	0.137
Mof_H 	H 	0.73526	0.39464	0.39431	0.03
Mof_C 	C 	0.53	0.3353	0.3353	-0.237
_end
