data_functionalizedCrystal
_audit_creation_method	'EQeq! by Chris Wilmer'
_symmetry_space_group_name_H-M	'P1'
_symmetry_Int_Tables_number	1
_symmetry_cell_setting	triclinic
loop_
_symmetry_equiv_pos_as_xyz
  x,y,z
_cell_length_a	7.3933
_cell_length_b	14.349
_cell_length_c	16.9754
_cell_angle_alpha	104.154
_cell_angle_beta	102.578
_cell_angle_gamma	90
loop_
_atom_site_label
_atom_site_type_symbol
_atom_site_fract_x
_atom_site_fract_y
_atom_site_fract_z
_atom_site_charge
Mof_La	La	0.50739	0.96377	0.50132	2.204
Mof_La	La	0.00607	0.03623	0.49868	2.071
Mof_H 	H 	0.2808	0.527	0.0988	0.048
Mof_H 	H 	0.3016	0.4334	0.0312	0.05
Mof_H 	H 	0.898	0.4921	0.1104	0.007
Mof_H 	H 	0.9228	0.424	0.1714	0.009
Mof_H 	H 	0.3688	0.3437	0.1306	0.035
Mof_H 	H 	0.3512	0.4331	0.203	0.036
Mof_H 	H 	0.9668	0.281	0.0688	0.13
Mof_H 	H 	0.8994	0.3477	0.0084	0.12
Mof_H 	H 	0.5741	0.3419	0.2484	0.154
Mof_H 	H 	0.776	0.2688	0.3382	-0.021
Mof_H 	H 	0.3442	0.1273	0.3716	-0.07
Mof_H 	H 	0.1473	0.1994	0.2824	0.155
Mof_H 	H 	0.252	0.2106	0.8628	0.098
Mof_H 	H 	0.108	0.1189	0.7306	0.012
Mof_H 	H 	0.6291	0.1188	0.8024	0.018
Mof_H 	H 	0.7726	0.2064	0.9346	0.081
Mof_H 	H 	0.7259	0.556	0.1984	0.18
Mof_H 	H 	0.5814	0.6722	0.276	-0.05
Mof_H 	H 	0.071	0.7904	0.4176	-0.081
Mof_H 	H 	0.2205	0.6756	0.3356	0.203
Mof_H 	H 	0.182	0.473	0.9012	0.029
Mof_H 	H 	0.2704	0.5666	0.9688	0.027
Mof_H 	H 	0.7876	0.5079	0.8896	0.004
Mof_H 	H 	0.7514	0.576	0.8286	0.007
Mof_H 	H 	0.2382	0.6563	0.8694	0.02
Mof_H 	H 	0.1482	0.5669	0.797	0.021
Mof_H 	H 	0.898	0.719	0.9312	0.009
Mof_H 	H 	0.891	0.6523	0.9916	-0.002
Mof_H 	H 	0.3257	0.6581	0.7516	0.094
Mof_H 	H 	0.4378	0.7312	0.6618	0.027
Mof_H 	H 	0.9726	0.8727	0.6284	0.074
Mof_H 	H 	0.8649	0.8006	0.7176	0.06
Mof_H 	H 	0.3892	0.7894	0.1372	0.163
Mof_H 	H 	0.3774	0.8811	0.2694	-0.054
Mof_H 	H 	0.8267	0.8812	0.1976	-0.051
Mof_H 	H 	0.838	0.7936	0.0654	0.154
Mof_H 	H 	0.5275	0.444	0.8016	0.157
Mof_H 	H 	0.3054	0.3278	0.724	-0.048
Mof_H 	H 	0.6534	0.2096	0.5824	-0.078
Mof_H 	H 	0.8849	0.3244	0.6644	0.19
Mof_C 	C 	0.1248	0.4105	0.104	-0.007
Mof_C 	C 	0.2137	0.4709	0.0588	-0.002
Mof_C 	C 	0.9883	0.4661	0.1488	0.146
Mof_C 	C 	0.2837	0.3776	0.1624	0.03
Mof_C 	C 	0.0082	0.3247	0.04	-0.155
Mof_C 	C 	0.3423	0.2755	0.2556	0.339
Mof_C 	C 	0.5281	0.2981	0.2726	-0.331
Mof_C 	C 	0.6489	0.2544	0.327	0.225
Mof_C 	C 	0.5831	0.1911	0.364	-0.28
Mof_C 	C 	0.3918	0.17	0.347	0.25
Mof_C 	C 	0.2747	0.2129	0.2934	-0.347
Mof_C 	C 	0.0217	0.2187	0.9088	0.144
Mof_C 	C 	0.1263	0.1922	0.8502	-0.166
Mof_C 	C 	0.0394	0.1371	0.7712	0.032
Mof_C 	C 	0.8523	0.1089	0.7524	-0.122
Mof_C 	C 	0.755	0.1366	0.8142	0.072
Mof_C 	C 	0.8393	0.1902	0.893	-0.128
Mof_C 	C 	0.7546	0.0538	0.6688	0.442
Mof_C 	C 	0.9867	0.6051	0.258	0.474
Mof_C 	C 	0.796	0.6037	0.2416	-0.418
Mof_C 	C 	0.7102	0.6723	0.289	0.271
Mof_C 	C 	0.8102	0.7428	0.357	-0.269
Mof_C 	C 	0.0013	0.7436	0.3734	0.241
Mof_C 	C 	0.0916	0.6748	0.3242	-0.437
Mof_C 	C 	0.7124	0.8175	0.4062	0.473
Mof_C 	C 	0.7163	0.1437	0.4186	0.486
Mof_C 	C 	0.0208	0.5895	0.896	-0.116
Mof_C 	C 	0.1549	0.5291	0.9412	0.033
Mof_C 	C 	0.8395	0.5339	0.8512	0.135
Mof_C 	C 	0.1213	0.6224	0.8376	0.066
Mof_C 	C 	0.9682	0.6753	0.96	0.156
Mof_C 	C 	0.0867	0.7245	0.7444	0.139
Mof_C 	C 	0.2555	0.7019	0.7274	-0.167
Mof_C 	C 	0.3219	0.7456	0.673	0.06
Mof_C 	C 	0.2191	0.8089	0.636	-0.116
Mof_C 	C 	0.0448	0.83	0.653	-0.084
Mof_C 	C 	0.9813	0.7871	0.7066	-0.021
Mof_C 	C 	0.1129	0.7813	0.0912	0.304
Mof_C 	C 	0.2761	0.8078	0.1498	-0.334
Mof_C 	C 	0.2682	0.8629	0.2288	0.25
Mof_C 	C 	0.0999	0.8911	0.2476	-0.339
Mof_C 	C 	0.9408	0.8634	0.1858	0.288
Mof_C 	C 	0.9463	0.8098	0.107	-0.31
Mof_C 	C 	0.0858	0.9462	0.3312	0.472
Mof_C 	C 	0.7287	0.3949	0.742	0.357
Mof_C 	C 	0.5544	0.3963	0.7584	-0.365
Mof_C 	C 	0.4212	0.3277	0.711	0.249
Mof_C 	C 	0.4532	0.2572	0.643	-0.305
Mof_C 	C 	0.6279	0.2564	0.6266	0.267
Mof_C 	C 	0.7674	0.3252	0.6758	-0.35
Mof_C 	C 	0.3062	0.1825	0.5938	0.483
Mof_C 	C 	0.2977	0.8563	0.5814	0.419
Mof_O 	O 	0.83229	0.0424	0.60778	-0.59
Mof_O 	O 	0.59327	0.0222	0.65794	-0.48
Mof_O 	O 	0.883	0.1739	0.4426	-0.455
Mof_O 	O 	0.66035	0.0719	0.4401	-0.627
Mof_O 	O 	0.80697	0.8839	0.46534	-0.61
Mof_O 	O 	0.54063	0.8154	0.39046	-0.484
Mof_O 	O 	0.2131	0.3154	0.2042	-0.267
Mof_O 	O 	0.08835	0.5423	0.2145	-0.347
Mof_O 	O 	0.11595	0.2756	0.9851	-0.199
Mof_O 	O 	0.22451	0.9576	0.39222	-0.628
Mof_O 	O 	0.93533	0.9778	0.34206	-0.454
Mof_O 	O 	0.4404	0.8261	0.5574	-0.474
Mof_O 	O 	0.22025	0.9281	0.5599	-0.629
Mof_O 	O 	0.34163	0.1161	0.53466	-0.626
Mof_O 	O 	0.15017	0.1846	0.60954	-0.496
Mof_O 	O 	0.0089	0.6846	0.7958	-0.238
Mof_O 	O 	0.87385	0.4577	0.7855	-0.261
Mof_O 	O 	0.13085	0.7244	0.0149	-0.278
Mof_O 	O 	0.0775	0.5	-0	-0.183
_end
