data_functionalizedCrystal
_audit_creation_method	'EQeq! by Chris Wilmer'
_symmetry_space_group_name_H-M	'P1'
_symmetry_Int_Tables_number	1
_symmetry_cell_setting	triclinic
loop_
_symmetry_equiv_pos_as_xyz
  x,y,z
_cell_length_a	26.977
_cell_length_b	26.977
_cell_length_c	26.977
_cell_angle_alpha	90
_cell_angle_beta	90
_cell_angle_gamma	90
loop_
_atom_site_label
_atom_site_type_symbol
_atom_site_fract_x
_atom_site_fract_y
_atom_site_fract_z
_atom_site_charge
Mof_O 	O 	0.44763	0.05023	0.14886	-0.429
Mof_O 	O 	0.44845	0.04926	0.23116	-0.433
Mof_C 	C 	0.2946	0.14551	0.1978	0.036
Mof_C 	C 	0.43057	0.06203	0.1905	0.376
Mof_C 	C 	0.36	0.1069	0.1493	0.036
Mof_H 	H 	0.3733	0.0984	0.1183	0.019
Mof_C 	C 	0.3196	0.1299	0.2412	-0.111
Mof_H 	H 	0.306	0.1371	0.2725	0.071
Mof_C 	C 	0.3154	0.1341	0.1518	-0.11
Mof_H 	H 	0.2998	0.1446	0.1225	0.057
Mof_C 	C 	0.364	0.1043	0.238	0.039
Mof_H 	H 	0.3805	0.0947	0.2672	0.029
Mof_C 	C 	0.21668	0.1699	0.24176	-0.106
Mof_H 	H 	0.2213	0.143	0.2633	0.064
Mof_C 	C 	0.38425	0.09268	0.19225	-0.123
Mof_C 	C 	0.24951	0.17705	0.20234	0.037
Mof_O 	O 	0.55237	0.94977	0.14886	-0.386
Mof_O 	O 	0.55155	0.95074	0.23116	-0.39
Mof_C 	C 	0.7054	0.85449	0.1978	0.035
Mof_C 	C 	0.56943	0.93797	0.1905	0.371
Mof_C 	C 	0.64	0.8931	0.1493	0.033
Mof_H 	H 	0.6267	0.9016	0.1183	0.036
Mof_C 	C 	0.6804	0.8701	0.2412	-0.096
Mof_H 	H 	0.694	0.8629	0.2725	0.072
Mof_C 	C 	0.6846	0.8659	0.1518	-0.096
Mof_H 	H 	0.7002	0.8554	0.1225	0.063
Mof_C 	C 	0.636	0.8957	0.238	0.034
Mof_H 	H 	0.6195	0.9053	0.2672	0.043
Mof_C 	C 	0.78332	0.8301	0.24176	-0.112
Mof_H 	H 	0.7787	0.857	0.2633	0.076
Mof_C 	C 	0.61575	0.90732	0.19225	-0.102
Mof_C 	C 	0.75049	0.82295	0.20234	0.051
Mof_O 	O 	0.55237	0.05023	0.85114	-0.417
Mof_O 	O 	0.55155	0.04926	0.76884	-0.433
Mof_C 	C 	0.7054	0.14551	0.8022	0.036
Mof_C 	C 	0.56943	0.06203	0.8095	0.372
Mof_C 	C 	0.64	0.1069	0.8507	0.035
Mof_H 	H 	0.6267	0.0984	0.8817	0.035
Mof_C 	C 	0.6804	0.1299	0.7588	-0.108
Mof_H 	H 	0.694	0.1371	0.7275	0.07
Mof_C 	C 	0.6846	0.1341	0.8482	-0.104
Mof_H 	H 	0.7002	0.1446	0.8775	0.072
Mof_C 	C 	0.636	0.1043	0.762	0.036
Mof_H 	H 	0.6195	0.0947	0.7328	0.03
Mof_C 	C 	0.78332	0.1699	0.75824	-0.111
Mof_H 	H 	0.7787	0.143	0.7367	0.068
Mof_C 	C 	0.61575	0.09268	0.80775	-0.117
Mof_C 	C 	0.75049	0.17705	0.79766	0.048
Mof_O 	O 	0.44763	0.94977	0.85114	-0.375
Mof_O 	O 	0.44845	0.95074	0.76884	-0.39
Mof_C 	C 	0.2946	0.85449	0.8022	0.034
Mof_C 	C 	0.43057	0.93797	0.8095	0.367
Mof_C 	C 	0.36	0.8931	0.8507	0.03
Mof_H 	H 	0.3733	0.9016	0.8817	0.05
Mof_C 	C 	0.3196	0.8701	0.7588	-0.095
Mof_H 	H 	0.306	0.8629	0.7275	0.071
Mof_C 	C 	0.3154	0.8659	0.8482	-0.092
Mof_H 	H 	0.2998	0.8554	0.8775	0.074
Mof_C 	C 	0.364	0.8957	0.762	0.032
Mof_H 	H 	0.3805	0.9053	0.7328	0.044
Mof_C 	C 	0.21668	0.8301	0.75824	-0.111
Mof_H 	H 	0.2213	0.857	0.7367	0.075
Mof_C 	C 	0.38425	0.90732	0.80775	-0.096
Mof_C 	C 	0.24951	0.82295	0.79766	0.053
Mof_O 	O 	0.14886	0.44763	0.05023	-0.43
Mof_O 	O 	0.23116	0.44845	0.04926	-0.434
Mof_C 	C 	0.1978	0.2946	0.14551	0.035
Mof_C 	C 	0.1905	0.43057	0.06203	0.375
Mof_C 	C 	0.1493	0.36	0.1069	0.035
Mof_H 	H 	0.1183	0.3733	0.0984	0.018
Mof_C 	C 	0.2412	0.3196	0.1299	-0.112
Mof_H 	H 	0.2725	0.306	0.1371	0.07
Mof_C 	C 	0.1518	0.3154	0.1341	-0.111
Mof_H 	H 	0.1225	0.2998	0.1446	0.056
Mof_C 	C 	0.238	0.364	0.1043	0.038
Mof_H 	H 	0.2672	0.3805	0.0947	0.028
Mof_C 	C 	0.24176	0.21668	0.1699	-0.107
Mof_H 	H 	0.2633	0.2213	0.143	0.063
Mof_C 	C 	0.19225	0.38425	0.09268	-0.124
Mof_C 	C 	0.20234	0.24951	0.17705	0.036
Mof_O 	O 	0.14886	0.55237	0.94977	-0.387
Mof_O 	O 	0.23116	0.55155	0.95074	-0.391
Mof_C 	C 	0.1978	0.7054	0.85449	0.034
Mof_C 	C 	0.1905	0.56943	0.93797	0.37
Mof_C 	C 	0.1493	0.64	0.8931	0.032
Mof_H 	H 	0.1183	0.6267	0.9016	0.035
Mof_C 	C 	0.2412	0.6804	0.8701	-0.097
Mof_H 	H 	0.2725	0.694	0.8629	0.071
Mof_C 	C 	0.1518	0.6846	0.8659	-0.096
Mof_H 	H 	0.1225	0.7002	0.8554	0.063
Mof_C 	C 	0.238	0.636	0.8957	0.034
Mof_H 	H 	0.2672	0.6195	0.9053	0.043
Mof_C 	C 	0.24176	0.78332	0.8301	-0.112
Mof_H 	H 	0.2633	0.7787	0.857	0.076
Mof_C 	C 	0.19225	0.61575	0.90732	-0.102
Mof_C 	C 	0.20234	0.75049	0.82295	0.051
Mof_O 	O 	0.85114	0.55237	0.05023	-0.417
Mof_O 	O 	0.76884	0.55155	0.04926	-0.433
Mof_C 	C 	0.8022	0.7054	0.14551	0.036
Mof_C 	C 	0.8095	0.56943	0.06203	0.372
Mof_C 	C 	0.8507	0.64	0.1069	0.035
Mof_H 	H 	0.8817	0.6267	0.0984	0.035
Mof_C 	C 	0.7588	0.6804	0.1299	-0.108
Mof_H 	H 	0.7275	0.694	0.1371	0.07
Mof_C 	C 	0.8482	0.6846	0.1341	-0.104
Mof_H 	H 	0.8775	0.7002	0.1446	0.072
Mof_C 	C 	0.762	0.636	0.1043	0.036
Mof_H 	H 	0.7328	0.6195	0.0947	0.03
Mof_C 	C 	0.75824	0.78332	0.1699	-0.111
Mof_H 	H 	0.7367	0.7787	0.143	0.068
Mof_C 	C 	0.80775	0.61575	0.09268	-0.117
Mof_C 	C 	0.79766	0.75049	0.17705	0.048
Mof_O 	O 	0.85114	0.44763	0.94977	-0.375
Mof_O 	O 	0.76884	0.44845	0.95074	-0.39
Mof_C 	C 	0.8022	0.2946	0.85449	0.034
Mof_C 	C 	0.8095	0.43057	0.93797	0.367
Mof_C 	C 	0.8507	0.36	0.8931	0.03
Mof_H 	H 	0.8817	0.3733	0.9016	0.05
Mof_C 	C 	0.7588	0.3196	0.8701	-0.095
Mof_H 	H 	0.7275	0.306	0.8629	0.071
Mof_C 	C 	0.8482	0.3154	0.8659	-0.092
Mof_H 	H 	0.8775	0.2998	0.8554	0.074
Mof_C 	C 	0.762	0.364	0.8957	0.032
Mof_H 	H 	0.7328	0.3805	0.9053	0.044
Mof_C 	C 	0.75824	0.21668	0.8301	-0.111
Mof_H 	H 	0.7367	0.2213	0.857	0.075
Mof_C 	C 	0.80775	0.38425	0.90732	-0.096
Mof_C 	C 	0.79766	0.24951	0.82295	0.053
Mof_O 	O 	0.05023	0.14886	0.44763	-0.43
Mof_O 	O 	0.04926	0.23116	0.44845	-0.434
Mof_C 	C 	0.14551	0.1978	0.2946	0.035
Mof_C 	C 	0.06203	0.1905	0.43057	0.375
Mof_C 	C 	0.1069	0.1493	0.36	0.035
Mof_H 	H 	0.0984	0.1183	0.3733	0.018
Mof_C 	C 	0.1299	0.2412	0.3196	-0.112
Mof_H 	H 	0.1371	0.2725	0.306	0.07
Mof_C 	C 	0.1341	0.1518	0.3154	-0.111
Mof_H 	H 	0.1446	0.1225	0.2998	0.056
Mof_C 	C 	0.1043	0.238	0.364	0.038
Mof_H 	H 	0.0947	0.2672	0.3805	0.028
Mof_C 	C 	0.1699	0.24176	0.21668	-0.107
Mof_H 	H 	0.143	0.2633	0.2213	0.063
Mof_C 	C 	0.09268	0.19225	0.38425	-0.124
Mof_C 	C 	0.17705	0.20234	0.24951	0.036
Mof_O 	O 	0.94977	0.14886	0.55237	-0.387
Mof_O 	O 	0.95074	0.23116	0.55155	-0.391
Mof_C 	C 	0.85449	0.1978	0.7054	0.034
Mof_C 	C 	0.93797	0.1905	0.56943	0.37
Mof_C 	C 	0.8931	0.1493	0.64	0.032
Mof_H 	H 	0.9016	0.1183	0.6267	0.035
Mof_C 	C 	0.8701	0.2412	0.6804	-0.097
Mof_H 	H 	0.8629	0.2725	0.694	0.071
Mof_C 	C 	0.8659	0.1518	0.6846	-0.096
Mof_H 	H 	0.8554	0.1225	0.7002	0.063
Mof_C 	C 	0.8957	0.238	0.636	0.034
Mof_H 	H 	0.9053	0.2672	0.6195	0.043
Mof_C 	C 	0.8301	0.24176	0.78332	-0.112
Mof_H 	H 	0.857	0.2633	0.7787	0.076
Mof_C 	C 	0.90732	0.19225	0.61575	-0.102
Mof_C 	C 	0.82295	0.20234	0.75049	0.051
Mof_O 	O 	0.05023	0.85114	0.55237	-0.417
Mof_O 	O 	0.04926	0.76884	0.55155	-0.433
Mof_C 	C 	0.14551	0.8022	0.7054	0.036
Mof_C 	C 	0.06203	0.8095	0.56943	0.372
Mof_C 	C 	0.1069	0.8507	0.64	0.035
Mof_H 	H 	0.0984	0.8817	0.6267	0.035
Mof_C 	C 	0.1299	0.7588	0.6804	-0.108
Mof_H 	H 	0.1371	0.7275	0.694	0.07
Mof_C 	C 	0.1341	0.8482	0.6846	-0.104
Mof_H 	H 	0.1446	0.8775	0.7002	0.072
Mof_C 	C 	0.1043	0.762	0.636	0.036
Mof_H 	H 	0.0947	0.7328	0.6195	0.03
Mof_C 	C 	0.1699	0.75824	0.78332	-0.111
Mof_H 	H 	0.143	0.7367	0.7787	0.068
Mof_C 	C 	0.09268	0.80775	0.61575	-0.117
Mof_C 	C 	0.17705	0.79766	0.75049	0.048
Mof_O 	O 	0.94977	0.85114	0.44763	-0.375
Mof_O 	O 	0.95074	0.76884	0.44845	-0.39
Mof_C 	C 	0.85449	0.8022	0.2946	0.034
Mof_C 	C 	0.93797	0.8095	0.43057	0.367
Mof_C 	C 	0.8931	0.8507	0.36	0.03
Mof_H 	H 	0.9016	0.8817	0.3733	0.05
Mof_C 	C 	0.8701	0.7588	0.3196	-0.095
Mof_H 	H 	0.8629	0.7275	0.306	0.071
Mof_C 	C 	0.8659	0.8482	0.3154	-0.092
Mof_H 	H 	0.8554	0.8775	0.2998	0.074
Mof_C 	C 	0.8957	0.762	0.364	0.032
Mof_H 	H 	0.9053	0.7328	0.3805	0.044
Mof_C 	C 	0.8301	0.75824	0.21668	-0.111
Mof_H 	H 	0.857	0.7367	0.2213	0.075
Mof_C 	C 	0.90732	0.80775	0.38425	-0.096
Mof_C 	C 	0.82295	0.79766	0.24951	0.053
Mof_O 	O 	0.55237	0.94977	0.85114	-0.374
Mof_O 	O 	0.55155	0.95074	0.76884	-0.39
Mof_C 	C 	0.7054	0.85449	0.8022	0.035
Mof_C 	C 	0.56943	0.93797	0.8095	0.367
Mof_C 	C 	0.64	0.8931	0.8507	0.031
Mof_H 	H 	0.6267	0.9016	0.8817	0.051
Mof_C 	C 	0.6804	0.8701	0.7588	-0.094
Mof_H 	H 	0.694	0.8629	0.7275	0.071
Mof_C 	C 	0.6846	0.8659	0.8482	-0.091
Mof_H 	H 	0.7002	0.8554	0.8775	0.077
Mof_C 	C 	0.636	0.8957	0.762	0.032
Mof_H 	H 	0.6195	0.9053	0.7328	0.044
Mof_C 	C 	0.78332	0.8301	0.75824	-0.113
Mof_H 	H 	0.7787	0.857	0.7367	0.078
Mof_C 	C 	0.61575	0.90732	0.80775	-0.095
Mof_C 	C 	0.75049	0.82295	0.79766	0.058
Mof_O 	O 	0.44763	0.05023	0.85114	-0.417
Mof_O 	O 	0.44845	0.04926	0.76884	-0.433
Mof_C 	C 	0.2946	0.14551	0.8022	0.035
Mof_C 	C 	0.43057	0.06203	0.8095	0.372
Mof_C 	C 	0.36	0.1069	0.8507	0.034
Mof_H 	H 	0.3733	0.0984	0.8817	0.034
Mof_C 	C 	0.3196	0.1299	0.7588	-0.109
Mof_H 	H 	0.306	0.1371	0.7275	0.07
Mof_C 	C 	0.3154	0.1341	0.8482	-0.106
Mof_H 	H 	0.2998	0.1446	0.8775	0.069
Mof_C 	C 	0.364	0.1043	0.762	0.036
Mof_H 	H 	0.3805	0.0947	0.7328	0.03
Mof_C 	C 	0.21668	0.1699	0.75824	-0.109
Mof_H 	H 	0.2213	0.143	0.7367	0.065
Mof_C 	C 	0.38425	0.09268	0.80775	-0.118
Mof_C 	C 	0.24951	0.17705	0.79766	0.043
Mof_O 	O 	0.44763	0.94977	0.14886	-0.387
Mof_O 	O 	0.44845	0.95074	0.23116	-0.392
Mof_C 	C 	0.2946	0.85449	0.1978	0.034
Mof_C 	C 	0.43057	0.93797	0.1905	0.37
Mof_C 	C 	0.36	0.8931	0.1493	0.031
Mof_H 	H 	0.3733	0.9016	0.1183	0.034
Mof_C 	C 	0.3196	0.8701	0.2412	-0.098
Mof_H 	H 	0.306	0.8629	0.2725	0.071
Mof_C 	C 	0.3154	0.8659	0.1518	-0.097
Mof_H 	H 	0.2998	0.8554	0.1225	0.06
Mof_C 	C 	0.364	0.8957	0.238	0.034
Mof_H 	H 	0.3805	0.9053	0.2672	0.043
Mof_C 	C 	0.21668	0.8301	0.24176	-0.11
Mof_H 	H 	0.2213	0.857	0.2633	0.072
Mof_C 	C 	0.38425	0.90732	0.19225	-0.102
Mof_C 	C 	0.24951	0.82295	0.20234	0.046
Mof_O 	O 	0.55237	0.05023	0.14886	-0.429
Mof_O 	O 	0.55155	0.04926	0.23116	-0.434
Mof_C 	C 	0.7054	0.14551	0.1978	0.035
Mof_C 	C 	0.56943	0.06203	0.1905	0.375
Mof_C 	C 	0.64	0.1069	0.1493	0.035
Mof_H 	H 	0.6267	0.0984	0.1183	0.019
Mof_C 	C 	0.6804	0.1299	0.2412	-0.111
Mof_H 	H 	0.694	0.1371	0.2725	0.07
Mof_C 	C 	0.6846	0.1341	0.1518	-0.11
Mof_H 	H 	0.7002	0.1446	0.1225	0.058
Mof_C 	C 	0.636	0.1043	0.238	0.039
Mof_H 	H 	0.6195	0.0947	0.2672	0.029
Mof_C 	C 	0.78332	0.1699	0.24176	-0.109
Mof_H 	H 	0.7787	0.143	0.2633	0.066
Mof_C 	C 	0.61575	0.09268	0.19225	-0.124
Mof_C 	C 	0.75049	0.17705	0.20234	0.041
Mof_O 	O 	0.85114	0.55237	0.94977	-0.374
Mof_O 	O 	0.76884	0.55155	0.95074	-0.39
Mof_C 	C 	0.8022	0.7054	0.85449	0.035
Mof_C 	C 	0.8095	0.56943	0.93797	0.367
Mof_C 	C 	0.8507	0.64	0.8931	0.031
Mof_H 	H 	0.8817	0.6267	0.9016	0.051
Mof_C 	C 	0.7588	0.6804	0.8701	-0.094
Mof_H 	H 	0.7275	0.694	0.8629	0.071
Mof_C 	C 	0.8482	0.6846	0.8659	-0.091
Mof_H 	H 	0.8775	0.7002	0.8554	0.077
Mof_C 	C 	0.762	0.636	0.8957	0.032
Mof_H 	H 	0.7328	0.6195	0.9053	0.044
Mof_C 	C 	0.75824	0.78332	0.8301	-0.113
Mof_H 	H 	0.7367	0.7787	0.857	0.078
Mof_C 	C 	0.80775	0.61575	0.90732	-0.095
Mof_C 	C 	0.79766	0.75049	0.82295	0.058
Mof_O 	O 	0.85114	0.44763	0.05023	-0.417
Mof_O 	O 	0.76884	0.44845	0.04926	-0.433
Mof_C 	C 	0.8022	0.2946	0.14551	0.035
Mof_C 	C 	0.8095	0.43057	0.06203	0.372
Mof_C 	C 	0.8507	0.36	0.1069	0.034
Mof_H 	H 	0.8817	0.3733	0.0984	0.034
Mof_C 	C 	0.7588	0.3196	0.1299	-0.109
Mof_H 	H 	0.7275	0.306	0.1371	0.07
Mof_C 	C 	0.8482	0.3154	0.1341	-0.106
Mof_H 	H 	0.8775	0.2998	0.1446	0.069
Mof_C 	C 	0.762	0.364	0.1043	0.036
Mof_H 	H 	0.7328	0.3805	0.0947	0.03
Mof_C 	C 	0.75824	0.21668	0.1699	-0.109
Mof_H 	H 	0.7367	0.2213	0.143	0.065
Mof_C 	C 	0.80775	0.38425	0.09268	-0.118
Mof_C 	C 	0.79766	0.24951	0.17705	0.043
Mof_O 	O 	0.14886	0.44763	0.94977	-0.387
Mof_O 	O 	0.23116	0.44845	0.95074	-0.392
Mof_C 	C 	0.1978	0.2946	0.85449	0.034
Mof_C 	C 	0.1905	0.43057	0.93797	0.37
Mof_C 	C 	0.1493	0.36	0.8931	0.031
Mof_H 	H 	0.1183	0.3733	0.9016	0.034
Mof_C 	C 	0.2412	0.3196	0.8701	-0.098
Mof_H 	H 	0.2725	0.306	0.8629	0.071
Mof_C 	C 	0.1518	0.3154	0.8659	-0.097
Mof_H 	H 	0.1225	0.2998	0.8554	0.06
Mof_C 	C 	0.238	0.364	0.8957	0.034
Mof_H 	H 	0.2672	0.3805	0.9053	0.043
Mof_C 	C 	0.24176	0.21668	0.8301	-0.11
Mof_H 	H 	0.2633	0.2213	0.857	0.072
Mof_C 	C 	0.19225	0.38425	0.90732	-0.102
Mof_C 	C 	0.20234	0.24951	0.82295	0.046
Mof_O 	O 	0.14886	0.55237	0.05023	-0.429
Mof_O 	O 	0.23116	0.55155	0.04926	-0.434
Mof_C 	C 	0.1978	0.7054	0.14551	0.035
Mof_C 	C 	0.1905	0.56943	0.06203	0.375
Mof_C 	C 	0.1493	0.64	0.1069	0.035
Mof_H 	H 	0.1183	0.6267	0.0984	0.019
Mof_C 	C 	0.2412	0.6804	0.1299	-0.111
Mof_H 	H 	0.2725	0.694	0.1371	0.07
Mof_C 	C 	0.1518	0.6846	0.1341	-0.11
Mof_H 	H 	0.1225	0.7002	0.1446	0.058
Mof_C 	C 	0.238	0.636	0.1043	0.039
Mof_H 	H 	0.2672	0.6195	0.0947	0.029
Mof_C 	C 	0.24176	0.78332	0.1699	-0.109
Mof_H 	H 	0.2633	0.7787	0.143	0.066
Mof_C 	C 	0.19225	0.61575	0.09268	-0.124
Mof_C 	C 	0.20234	0.75049	0.17705	0.041
Mof_O 	O 	0.94977	0.85114	0.55237	-0.374
Mof_O 	O 	0.95074	0.76884	0.55155	-0.39
Mof_C 	C 	0.85449	0.8022	0.7054	0.035
Mof_C 	C 	0.93797	0.8095	0.56943	0.367
Mof_C 	C 	0.8931	0.8507	0.64	0.031
Mof_H 	H 	0.9016	0.8817	0.6267	0.051
Mof_C 	C 	0.8701	0.7588	0.6804	-0.094
Mof_H 	H 	0.8629	0.7275	0.694	0.071
Mof_C 	C 	0.8659	0.8482	0.6846	-0.091
Mof_H 	H 	0.8554	0.8775	0.7002	0.077
Mof_C 	C 	0.8957	0.762	0.636	0.032
Mof_H 	H 	0.9053	0.7328	0.6195	0.044
Mof_C 	C 	0.8301	0.75824	0.78332	-0.113
Mof_H 	H 	0.857	0.7367	0.7787	0.078
Mof_C 	C 	0.90732	0.80775	0.61575	-0.095
Mof_C 	C 	0.82295	0.79766	0.75049	0.058
Mof_O 	O 	0.05023	0.85114	0.44763	-0.417
Mof_O 	O 	0.04926	0.76884	0.44845	-0.433
Mof_C 	C 	0.14551	0.8022	0.2946	0.035
Mof_C 	C 	0.06203	0.8095	0.43057	0.372
Mof_C 	C 	0.1069	0.8507	0.36	0.034
Mof_H 	H 	0.0984	0.8817	0.3733	0.034
Mof_C 	C 	0.1299	0.7588	0.3196	-0.109
Mof_H 	H 	0.1371	0.7275	0.306	0.07
Mof_C 	C 	0.1341	0.8482	0.3154	-0.106
Mof_H 	H 	0.1446	0.8775	0.2998	0.069
Mof_C 	C 	0.1043	0.762	0.364	0.036
Mof_H 	H 	0.0947	0.7328	0.3805	0.03
Mof_C 	C 	0.1699	0.75824	0.21668	-0.109
Mof_H 	H 	0.143	0.7367	0.2213	0.065
Mof_C 	C 	0.09268	0.80775	0.38425	-0.118
Mof_C 	C 	0.17705	0.79766	0.24951	0.043
Mof_O 	O 	0.94977	0.14886	0.44763	-0.387
Mof_O 	O 	0.95074	0.23116	0.44845	-0.392
Mof_C 	C 	0.85449	0.1978	0.2946	0.034
Mof_C 	C 	0.93797	0.1905	0.43057	0.37
Mof_C 	C 	0.8931	0.1493	0.36	0.031
Mof_H 	H 	0.9016	0.1183	0.3733	0.034
Mof_C 	C 	0.8701	0.2412	0.3196	-0.098
Mof_H 	H 	0.8629	0.2725	0.306	0.071
Mof_C 	C 	0.8659	0.1518	0.3154	-0.097
Mof_H 	H 	0.8554	0.1225	0.2998	0.06
Mof_C 	C 	0.8957	0.238	0.364	0.034
Mof_H 	H 	0.9053	0.2672	0.3805	0.043
Mof_C 	C 	0.8301	0.24176	0.21668	-0.11
Mof_H 	H 	0.857	0.2633	0.2213	0.072
Mof_C 	C 	0.90732	0.19225	0.38425	-0.102
Mof_C 	C 	0.82295	0.20234	0.24951	0.046
Mof_O 	O 	0.05023	0.14886	0.55237	-0.429
Mof_O 	O 	0.04926	0.23116	0.55155	-0.434
Mof_C 	C 	0.14551	0.1978	0.7054	0.035
Mof_C 	C 	0.06203	0.1905	0.56943	0.375
Mof_C 	C 	0.1069	0.1493	0.64	0.035
Mof_H 	H 	0.0984	0.1183	0.6267	0.019
Mof_C 	C 	0.1299	0.2412	0.6804	-0.111
Mof_H 	H 	0.1371	0.2725	0.694	0.07
Mof_C 	C 	0.1341	0.1518	0.6846	-0.11
Mof_H 	H 	0.1446	0.1225	0.7002	0.058
Mof_C 	C 	0.1043	0.238	0.636	0.039
Mof_H 	H 	0.0947	0.2672	0.6195	0.029
Mof_C 	C 	0.1699	0.24176	0.78332	-0.109
Mof_H 	H 	0.143	0.2633	0.7787	0.066
Mof_C 	C 	0.09268	0.19225	0.61575	-0.124
Mof_C 	C 	0.17705	0.20234	0.75049	0.041
Mof_Cu	Cu	0.5	0	0.14425	0.874
Mof_Cu	Cu	0.5	0	0.24014	0.882
Mof_Cu	Cu	0.5	1.02863e-32	0.85575	0.88
Mof_Cu	Cu	0.5	1.02863e-32	0.75986	0.881
Mof_Cu	Cu	0.14425	0.5	-0	0.874
Mof_Cu	Cu	0.24014	0.5	-0	0.882
Mof_Cu	Cu	0.85575	0.5	-0	0.88
Mof_Cu	Cu	0.75986	0.5	-0	0.881
Mof_Cu	Cu	1.8747e-33	0.14425	0.5	0.874
Mof_Cu	Cu	7.01785e-33	0.24014	0.5	0.882
Mof_Cu	Cu	7.01785e-33	0.85575	0.5	0.88
Mof_Cu	Cu	7.01785e-33	0.75986	0.5	0.881
Mof_O 	O 	0.94763	0.55023	0.64886	-0.38
Mof_O 	O 	0.94845	0.54926	0.73116	-0.389
Mof_C 	C 	0.7946	0.64551	0.6978	0.03
Mof_C 	C 	0.93057	0.56203	0.6905	0.366
Mof_C 	C 	0.86	0.6069	0.6493	0.027
Mof_H 	H 	0.8733	0.5984	0.6183	0.041
Mof_C 	C 	0.8196	0.6299	0.7412	-0.096
Mof_H 	H 	0.806	0.6371	0.7725	0.068
Mof_C 	C 	0.8154	0.6341	0.6518	-0.095
Mof_H 	H 	0.7998	0.6446	0.6225	0.065
Mof_C 	C 	0.864	0.6043	0.738	0.029
Mof_H 	H 	0.8805	0.5947	0.7672	0.044
Mof_C 	C 	0.71668	0.6699	0.74176	-0.114
Mof_H 	H 	0.7213	0.643	0.7633	0.071
Mof_C 	C 	0.88425	0.59268	0.69225	-0.099
Mof_C 	C 	0.74951	0.67705	0.70234	0.05
Mof_O 	O 	0.05237	0.44977	0.64886	-0.424
Mof_O 	O 	0.05155	0.45074	0.73116	-0.433
Mof_C 	C 	0.2054	0.35449	0.6978	0.038
Mof_C 	C 	0.06943	0.43797	0.6905	0.375
Mof_C 	C 	0.14	0.3931	0.6493	0.037
Mof_H 	H 	0.1267	0.4016	0.6183	0.029
Mof_C 	C 	0.1804	0.3701	0.7412	-0.107
Mof_H 	H 	0.194	0.3629	0.7725	0.071
Mof_C 	C 	0.1846	0.3659	0.6518	-0.105
Mof_H 	H 	0.2002	0.3554	0.6225	0.066
Mof_C 	C 	0.136	0.3957	0.738	0.039
Mof_H 	H 	0.1195	0.4053	0.7672	0.031
Mof_C 	C 	0.28332	0.3301	0.74176	-0.11
Mof_H 	H 	0.2787	0.357	0.7633	0.07
Mof_C 	C 	0.11575	0.40732	0.69225	-0.119
Mof_C 	C 	0.25049	0.32295	0.70234	0.045
Mof_O 	O 	0.05237	0.55023	0.35114	-0.424
Mof_O 	O 	0.05155	0.54926	0.26884	-0.435
Mof_C 	C 	0.2054	0.64551	0.3022	0.038
Mof_C 	C 	0.06943	0.56203	0.3095	0.376
Mof_C 	C 	0.14	0.6069	0.3507	0.038
Mof_H 	H 	0.1267	0.5984	0.3817	0.028
Mof_C 	C 	0.1804	0.6299	0.2588	-0.109
Mof_H 	H 	0.194	0.6371	0.2275	0.072
Mof_C 	C 	0.1846	0.6341	0.3482	-0.106
Mof_H 	H 	0.2002	0.6446	0.3775	0.067
Mof_C 	C 	0.136	0.6043	0.262	0.041
Mof_H 	H 	0.1195	0.5947	0.2328	0.029
Mof_C 	C 	0.28332	0.6699	0.25824	-0.109
Mof_H 	H 	0.2787	0.643	0.2367	0.069
Mof_C 	C 	0.11575	0.59268	0.30775	-0.12
Mof_C 	C 	0.25049	0.67705	0.29766	0.045
Mof_O 	O 	0.94763	0.44977	0.35114	-0.38
Mof_O 	O 	0.94845	0.45074	0.26884	-0.392
Mof_C 	C 	0.7946	0.35449	0.3022	0.033
Mof_C 	C 	0.93057	0.43797	0.3095	0.367
Mof_C 	C 	0.86	0.3931	0.3507	0.029
Mof_H 	H 	0.8733	0.4016	0.3817	0.04
Mof_C 	C 	0.8196	0.3701	0.2588	-0.099
Mof_H 	H 	0.806	0.3629	0.2275	0.07
Mof_C 	C 	0.8154	0.3659	0.3482	-0.097
Mof_H 	H 	0.7998	0.3554	0.3775	0.066
Mof_C 	C 	0.864	0.3957	0.262	0.031
Mof_H 	H 	0.8805	0.4053	0.2328	0.041
Mof_C 	C 	0.71668	0.3301	0.25824	-0.11
Mof_H 	H 	0.7213	0.357	0.2367	0.07
Mof_C 	C 	0.88425	0.40732	0.30775	-0.101
Mof_C 	C 	0.74951	0.32295	0.29766	0.047
Mof_O 	O 	0.64886	0.94763	0.55023	-0.38
Mof_O 	O 	0.73116	0.94845	0.54926	-0.389
Mof_C 	C 	0.6978	0.7946	0.64551	0.03
Mof_C 	C 	0.6905	0.93057	0.56203	0.366
Mof_C 	C 	0.6493	0.86	0.6069	0.027
Mof_H 	H 	0.6183	0.8733	0.5984	0.041
Mof_C 	C 	0.7412	0.8196	0.6299	-0.096
Mof_H 	H 	0.7725	0.806	0.6371	0.068
Mof_C 	C 	0.6518	0.8154	0.6341	-0.095
Mof_H 	H 	0.6225	0.7998	0.6446	0.065
Mof_C 	C 	0.738	0.864	0.6043	0.029
Mof_H 	H 	0.7672	0.8805	0.5947	0.044
Mof_C 	C 	0.74176	0.71668	0.6699	-0.114
Mof_H 	H 	0.7633	0.7213	0.643	0.071
Mof_C 	C 	0.69225	0.88425	0.59268	-0.099
Mof_C 	C 	0.70234	0.74951	0.67705	0.05
Mof_O 	O 	0.64886	0.05237	0.44977	-0.424
Mof_O 	O 	0.73116	0.05155	0.45074	-0.433
Mof_C 	C 	0.6978	0.2054	0.35449	0.038
Mof_C 	C 	0.6905	0.06943	0.43797	0.375
Mof_C 	C 	0.6493	0.14	0.3931	0.037
Mof_H 	H 	0.6183	0.1267	0.4016	0.029
Mof_C 	C 	0.7412	0.1804	0.3701	-0.107
Mof_H 	H 	0.7725	0.194	0.3629	0.071
Mof_C 	C 	0.6518	0.1846	0.3659	-0.105
Mof_H 	H 	0.6225	0.2002	0.3554	0.066
Mof_C 	C 	0.738	0.136	0.3957	0.039
Mof_H 	H 	0.7672	0.1195	0.4053	0.031
Mof_C 	C 	0.74176	0.28332	0.3301	-0.11
Mof_H 	H 	0.7633	0.2787	0.357	0.07
Mof_C 	C 	0.69225	0.11575	0.40732	-0.119
Mof_C 	C 	0.70234	0.25049	0.32295	0.045
Mof_O 	O 	0.35114	0.05237	0.55023	-0.424
Mof_O 	O 	0.26884	0.05155	0.54926	-0.435
Mof_C 	C 	0.3022	0.2054	0.64551	0.038
Mof_C 	C 	0.3095	0.06943	0.56203	0.376
Mof_C 	C 	0.3507	0.14	0.6069	0.038
Mof_H 	H 	0.3817	0.1267	0.5984	0.028
Mof_C 	C 	0.2588	0.1804	0.6299	-0.109
Mof_H 	H 	0.2275	0.194	0.6371	0.072
Mof_C 	C 	0.3482	0.1846	0.6341	-0.106
Mof_H 	H 	0.3775	0.2002	0.6446	0.067
Mof_C 	C 	0.262	0.136	0.6043	0.041
Mof_H 	H 	0.2328	0.1195	0.5947	0.029
Mof_C 	C 	0.25824	0.28332	0.6699	-0.109
Mof_H 	H 	0.2367	0.2787	0.643	0.069
Mof_C 	C 	0.30775	0.11575	0.59268	-0.12
Mof_C 	C 	0.29766	0.25049	0.67705	0.045
Mof_O 	O 	0.35114	0.94763	0.44977	-0.38
Mof_O 	O 	0.26884	0.94845	0.45074	-0.392
Mof_C 	C 	0.3022	0.7946	0.35449	0.033
Mof_C 	C 	0.3095	0.93057	0.43797	0.367
Mof_C 	C 	0.3507	0.86	0.3931	0.029
Mof_H 	H 	0.3817	0.8733	0.4016	0.04
Mof_C 	C 	0.2588	0.8196	0.3701	-0.099
Mof_H 	H 	0.2275	0.806	0.3629	0.07
Mof_C 	C 	0.3482	0.8154	0.3659	-0.097
Mof_H 	H 	0.3775	0.7998	0.3554	0.066
Mof_C 	C 	0.262	0.864	0.3957	0.031
Mof_H 	H 	0.2328	0.8805	0.4053	0.041
Mof_C 	C 	0.25824	0.71668	0.3301	-0.11
Mof_H 	H 	0.2367	0.7213	0.357	0.07
Mof_C 	C 	0.30775	0.88425	0.40732	-0.101
Mof_C 	C 	0.29766	0.74951	0.32295	0.047
Mof_O 	O 	0.55023	0.64886	0.94763	-0.38
Mof_O 	O 	0.54926	0.73116	0.94845	-0.389
Mof_C 	C 	0.64551	0.6978	0.7946	0.03
Mof_C 	C 	0.56203	0.6905	0.93057	0.366
Mof_C 	C 	0.6069	0.6493	0.86	0.027
Mof_H 	H 	0.5984	0.6183	0.8733	0.041
Mof_C 	C 	0.6299	0.7412	0.8196	-0.096
Mof_H 	H 	0.6371	0.7725	0.806	0.068
Mof_C 	C 	0.6341	0.6518	0.8154	-0.095
Mof_H 	H 	0.6446	0.6225	0.7998	0.065
Mof_C 	C 	0.6043	0.738	0.864	0.029
Mof_H 	H 	0.5947	0.7672	0.8805	0.044
Mof_C 	C 	0.6699	0.74176	0.71668	-0.114
Mof_H 	H 	0.643	0.7633	0.7213	0.071
Mof_C 	C 	0.59268	0.69225	0.88425	-0.099
Mof_C 	C 	0.67705	0.70234	0.74951	0.05
Mof_O 	O 	0.44977	0.64886	0.05237	-0.424
Mof_O 	O 	0.45074	0.73116	0.05155	-0.433
Mof_C 	C 	0.35449	0.6978	0.2054	0.038
Mof_C 	C 	0.43797	0.6905	0.06943	0.375
Mof_C 	C 	0.3931	0.6493	0.14	0.037
Mof_H 	H 	0.4016	0.6183	0.1267	0.029
Mof_C 	C 	0.3701	0.7412	0.1804	-0.107
Mof_H 	H 	0.3629	0.7725	0.194	0.071
Mof_C 	C 	0.3659	0.6518	0.1846	-0.105
Mof_H 	H 	0.3554	0.6225	0.2002	0.066
Mof_C 	C 	0.3957	0.738	0.136	0.039
Mof_H 	H 	0.4053	0.7672	0.1195	0.031
Mof_C 	C 	0.3301	0.74176	0.28332	-0.11
Mof_H 	H 	0.357	0.7633	0.2787	0.07
Mof_C 	C 	0.40732	0.69225	0.11575	-0.119
Mof_C 	C 	0.32295	0.70234	0.25049	0.045
Mof_O 	O 	0.55023	0.35114	0.05237	-0.424
Mof_O 	O 	0.54926	0.26884	0.05155	-0.435
Mof_C 	C 	0.64551	0.3022	0.2054	0.038
Mof_C 	C 	0.56203	0.3095	0.06943	0.376
Mof_C 	C 	0.6069	0.3507	0.14	0.038
Mof_H 	H 	0.5984	0.3817	0.1267	0.028
Mof_C 	C 	0.6299	0.2588	0.1804	-0.109
Mof_H 	H 	0.6371	0.2275	0.194	0.072
Mof_C 	C 	0.6341	0.3482	0.1846	-0.106
Mof_H 	H 	0.6446	0.3775	0.2002	0.067
Mof_C 	C 	0.6043	0.262	0.136	0.041
Mof_H 	H 	0.5947	0.2328	0.1195	0.029
Mof_C 	C 	0.6699	0.25824	0.28332	-0.109
Mof_H 	H 	0.643	0.2367	0.2787	0.069
Mof_C 	C 	0.59268	0.30775	0.11575	-0.12
Mof_C 	C 	0.67705	0.29766	0.25049	0.045
Mof_O 	O 	0.44977	0.35114	0.94763	-0.38
Mof_O 	O 	0.45074	0.26884	0.94845	-0.392
Mof_C 	C 	0.35449	0.3022	0.7946	0.033
Mof_C 	C 	0.43797	0.3095	0.93057	0.367
Mof_C 	C 	0.3931	0.3507	0.86	0.029
Mof_H 	H 	0.4016	0.3817	0.8733	0.04
Mof_C 	C 	0.3701	0.2588	0.8196	-0.099
Mof_H 	H 	0.3629	0.2275	0.806	0.07
Mof_C 	C 	0.3659	0.3482	0.8154	-0.097
Mof_H 	H 	0.3554	0.3775	0.7998	0.066
Mof_C 	C 	0.3957	0.262	0.864	0.031
Mof_H 	H 	0.4053	0.2328	0.8805	0.041
Mof_C 	C 	0.3301	0.25824	0.71668	-0.11
Mof_H 	H 	0.357	0.2367	0.7213	0.07
Mof_C 	C 	0.40732	0.30775	0.88425	-0.101
Mof_C 	C 	0.32295	0.29766	0.74951	0.047
Mof_O 	O 	0.05237	0.44977	0.35114	-0.424
Mof_O 	O 	0.05155	0.45074	0.26884	-0.435
Mof_C 	C 	0.2054	0.35449	0.3022	0.039
Mof_C 	C 	0.06943	0.43797	0.3095	0.376
Mof_C 	C 	0.14	0.3931	0.3507	0.038
Mof_H 	H 	0.1267	0.4016	0.3817	0.028
Mof_C 	C 	0.1804	0.3701	0.2588	-0.109
Mof_H 	H 	0.194	0.3629	0.2275	0.072
Mof_C 	C 	0.1846	0.3659	0.3482	-0.107
Mof_H 	H 	0.2002	0.3554	0.3775	0.067
Mof_C 	C 	0.136	0.3957	0.262	0.041
Mof_H 	H 	0.1195	0.4053	0.2328	0.029
Mof_C 	C 	0.28332	0.3301	0.25824	-0.107
Mof_H 	H 	0.2787	0.357	0.2367	0.069
Mof_C 	C 	0.11575	0.40732	0.30775	-0.121
Mof_C 	C 	0.25049	0.32295	0.29766	0.044
Mof_O 	O 	0.94763	0.55023	0.35114	-0.38
Mof_O 	O 	0.94845	0.54926	0.26884	-0.391
Mof_C 	C 	0.7946	0.64551	0.3022	0.032
Mof_C 	C 	0.93057	0.56203	0.3095	0.367
Mof_C 	C 	0.86	0.6069	0.3507	0.028
Mof_H 	H 	0.8733	0.5984	0.3817	0.04
Mof_C 	C 	0.8196	0.6299	0.2588	-0.098
Mof_H 	H 	0.806	0.6371	0.2275	0.069
Mof_C 	C 	0.8154	0.6341	0.3482	-0.096
Mof_H 	H 	0.7998	0.6446	0.3775	0.065
Mof_C 	C 	0.864	0.6043	0.262	0.031
Mof_H 	H 	0.8805	0.5947	0.2328	0.041
Mof_C 	C 	0.71668	0.6699	0.25824	-0.111
Mof_H 	H 	0.7213	0.643	0.2367	0.07
Mof_C 	C 	0.88425	0.59268	0.30775	-0.101
Mof_C 	C 	0.74951	0.67705	0.29766	0.048
Mof_O 	O 	0.94763	0.44977	0.64886	-0.38
Mof_O 	O 	0.94845	0.45074	0.73116	-0.389
Mof_C 	C 	0.7946	0.35449	0.6978	0.031
Mof_C 	C 	0.93057	0.43797	0.6905	0.366
Mof_C 	C 	0.86	0.3931	0.6493	0.028
Mof_H 	H 	0.8733	0.4016	0.6183	0.04
Mof_C 	C 	0.8196	0.3701	0.7412	-0.097
Mof_H 	H 	0.806	0.3629	0.7725	0.069
Mof_C 	C 	0.8154	0.3659	0.6518	-0.095
Mof_H 	H 	0.7998	0.3554	0.6225	0.065
Mof_C 	C 	0.864	0.3957	0.738	0.03
Mof_H 	H 	0.8805	0.4053	0.7672	0.043
Mof_C 	C 	0.71668	0.3301	0.74176	-0.112
Mof_H 	H 	0.7213	0.357	0.7633	0.071
Mof_C 	C 	0.88425	0.40732	0.69225	-0.099
Mof_C 	C 	0.74951	0.32295	0.70234	0.049
Mof_O 	O 	0.05237	0.55023	0.64886	-0.424
Mof_O 	O 	0.05155	0.54926	0.73116	-0.433
Mof_C 	C 	0.2054	0.64551	0.6978	0.037
Mof_C 	C 	0.06943	0.56203	0.6905	0.375
Mof_C 	C 	0.14	0.6069	0.6493	0.037
Mof_H 	H 	0.1267	0.5984	0.6183	0.029
Mof_C 	C 	0.1804	0.6299	0.7412	-0.107
Mof_H 	H 	0.194	0.6371	0.7725	0.071
Mof_C 	C 	0.1846	0.6341	0.6518	-0.105
Mof_H 	H 	0.2002	0.6446	0.6225	0.066
Mof_C 	C 	0.136	0.6043	0.738	0.039
Mof_H 	H 	0.1195	0.5947	0.7672	0.031
Mof_C 	C 	0.28332	0.6699	0.74176	-0.111
Mof_H 	H 	0.2787	0.643	0.7633	0.07
Mof_C 	C 	0.11575	0.59268	0.69225	-0.119
Mof_C 	C 	0.25049	0.67705	0.70234	0.047
Mof_O 	O 	0.35114	0.05237	0.44977	-0.424
Mof_O 	O 	0.26884	0.05155	0.45074	-0.435
Mof_C 	C 	0.3022	0.2054	0.35449	0.039
Mof_C 	C 	0.3095	0.06943	0.43797	0.376
Mof_C 	C 	0.3507	0.14	0.3931	0.038
Mof_H 	H 	0.3817	0.1267	0.4016	0.028
Mof_C 	C 	0.2588	0.1804	0.3701	-0.109
Mof_H 	H 	0.2275	0.194	0.3629	0.072
Mof_C 	C 	0.3482	0.1846	0.3659	-0.107
Mof_H 	H 	0.3775	0.2002	0.3554	0.067
Mof_C 	C 	0.262	0.136	0.3957	0.041
Mof_H 	H 	0.2328	0.1195	0.4053	0.029
Mof_C 	C 	0.25824	0.28332	0.3301	-0.107
Mof_H 	H 	0.2367	0.2787	0.357	0.069
Mof_C 	C 	0.30775	0.11575	0.40732	-0.121
Mof_C 	C 	0.29766	0.25049	0.32295	0.044
Mof_O 	O 	0.35114	0.94763	0.55023	-0.38
Mof_O 	O 	0.26884	0.94845	0.54926	-0.391
Mof_C 	C 	0.3022	0.7946	0.64551	0.032
Mof_C 	C 	0.3095	0.93057	0.56203	0.367
Mof_C 	C 	0.3507	0.86	0.6069	0.028
Mof_H 	H 	0.3817	0.8733	0.5984	0.04
Mof_C 	C 	0.2588	0.8196	0.6299	-0.098
Mof_H 	H 	0.2275	0.806	0.6371	0.069
Mof_C 	C 	0.3482	0.8154	0.6341	-0.096
Mof_H 	H 	0.3775	0.7998	0.6446	0.065
Mof_C 	C 	0.262	0.864	0.6043	0.031
Mof_H 	H 	0.2328	0.8805	0.5947	0.041
Mof_C 	C 	0.25824	0.71668	0.6699	-0.111
Mof_H 	H 	0.2367	0.7213	0.643	0.07
Mof_C 	C 	0.30775	0.88425	0.59268	-0.101
Mof_C 	C 	0.29766	0.74951	0.67705	0.048
Mof_O 	O 	0.64886	0.94763	0.44977	-0.38
Mof_O 	O 	0.73116	0.94845	0.45074	-0.389
Mof_C 	C 	0.6978	0.7946	0.35449	0.031
Mof_C 	C 	0.6905	0.93057	0.43797	0.366
Mof_C 	C 	0.6493	0.86	0.3931	0.028
Mof_H 	H 	0.6183	0.8733	0.4016	0.04
Mof_C 	C 	0.7412	0.8196	0.3701	-0.097
Mof_H 	H 	0.7725	0.806	0.3629	0.069
Mof_C 	C 	0.6518	0.8154	0.3659	-0.095
Mof_H 	H 	0.6225	0.7998	0.3554	0.065
Mof_C 	C 	0.738	0.864	0.3957	0.03
Mof_H 	H 	0.7672	0.8805	0.4053	0.043
Mof_C 	C 	0.74176	0.71668	0.3301	-0.112
Mof_H 	H 	0.7633	0.7213	0.357	0.071
Mof_C 	C 	0.69225	0.88425	0.40732	-0.099
Mof_C 	C 	0.70234	0.74951	0.32295	0.049
Mof_O 	O 	0.64886	0.05237	0.55023	-0.424
Mof_O 	O 	0.73116	0.05155	0.54926	-0.433
Mof_C 	C 	0.6978	0.2054	0.64551	0.037
Mof_C 	C 	0.6905	0.06943	0.56203	0.375
Mof_C 	C 	0.6493	0.14	0.6069	0.037
Mof_H 	H 	0.6183	0.1267	0.5984	0.029
Mof_C 	C 	0.7412	0.1804	0.6299	-0.107
Mof_H 	H 	0.7725	0.194	0.6371	0.071
Mof_C 	C 	0.6518	0.1846	0.6341	-0.105
Mof_H 	H 	0.6225	0.2002	0.6446	0.066
Mof_C 	C 	0.738	0.136	0.6043	0.039
Mof_H 	H 	0.7672	0.1195	0.5947	0.031
Mof_C 	C 	0.74176	0.28332	0.6699	-0.111
Mof_H 	H 	0.7633	0.2787	0.643	0.07
Mof_C 	C 	0.69225	0.11575	0.59268	-0.119
Mof_C 	C 	0.70234	0.25049	0.67705	0.047
Mof_O 	O 	0.44977	0.35114	0.05237	-0.424
Mof_O 	O 	0.45074	0.26884	0.05155	-0.435
Mof_C 	C 	0.35449	0.3022	0.2054	0.039
Mof_C 	C 	0.43797	0.3095	0.06943	0.376
Mof_C 	C 	0.3931	0.3507	0.14	0.038
Mof_H 	H 	0.4016	0.3817	0.1267	0.028
Mof_C 	C 	0.3701	0.2588	0.1804	-0.109
Mof_H 	H 	0.3629	0.2275	0.194	0.072
Mof_C 	C 	0.3659	0.3482	0.1846	-0.107
Mof_H 	H 	0.3554	0.3775	0.2002	0.067
Mof_C 	C 	0.3957	0.262	0.136	0.041
Mof_H 	H 	0.4053	0.2328	0.1195	0.029
Mof_C 	C 	0.3301	0.25824	0.28332	-0.107
Mof_H 	H 	0.357	0.2367	0.2787	0.069
Mof_C 	C 	0.40732	0.30775	0.11575	-0.121
Mof_C 	C 	0.32295	0.29766	0.25049	0.044
Mof_O 	O 	0.55023	0.35114	0.94763	-0.38
Mof_O 	O 	0.54926	0.26884	0.94845	-0.391
Mof_C 	C 	0.64551	0.3022	0.7946	0.032
Mof_C 	C 	0.56203	0.3095	0.93057	0.367
Mof_C 	C 	0.6069	0.3507	0.86	0.028
Mof_H 	H 	0.5984	0.3817	0.8733	0.04
Mof_C 	C 	0.6299	0.2588	0.8196	-0.098
Mof_H 	H 	0.6371	0.2275	0.806	0.069
Mof_C 	C 	0.6341	0.3482	0.8154	-0.096
Mof_H 	H 	0.6446	0.3775	0.7998	0.065
Mof_C 	C 	0.6043	0.262	0.864	0.031
Mof_H 	H 	0.5947	0.2328	0.8805	0.041
Mof_C 	C 	0.6699	0.25824	0.71668	-0.111
Mof_H 	H 	0.643	0.2367	0.7213	0.07
Mof_C 	C 	0.59268	0.30775	0.88425	-0.101
Mof_C 	C 	0.67705	0.29766	0.74951	0.048
Mof_O 	O 	0.44977	0.64886	0.94763	-0.38
Mof_O 	O 	0.45074	0.73116	0.94845	-0.389
Mof_C 	C 	0.35449	0.6978	0.7946	0.031
Mof_C 	C 	0.43797	0.6905	0.93057	0.366
Mof_C 	C 	0.3931	0.6493	0.86	0.028
Mof_H 	H 	0.4016	0.6183	0.8733	0.04
Mof_C 	C 	0.3701	0.7412	0.8196	-0.097
Mof_H 	H 	0.3629	0.7725	0.806	0.069
Mof_C 	C 	0.3659	0.6518	0.8154	-0.095
Mof_H 	H 	0.3554	0.6225	0.7998	0.065
Mof_C 	C 	0.3957	0.738	0.864	0.03
Mof_H 	H 	0.4053	0.7672	0.8805	0.043
Mof_C 	C 	0.3301	0.74176	0.71668	-0.112
Mof_H 	H 	0.357	0.7633	0.7213	0.071
Mof_C 	C 	0.40732	0.69225	0.88425	-0.099
Mof_C 	C 	0.32295	0.70234	0.74951	0.049
Mof_O 	O 	0.55023	0.64886	0.05237	-0.424
Mof_O 	O 	0.54926	0.73116	0.05155	-0.433
Mof_C 	C 	0.64551	0.6978	0.2054	0.037
Mof_C 	C 	0.56203	0.6905	0.06943	0.375
Mof_C 	C 	0.6069	0.6493	0.14	0.037
Mof_H 	H 	0.5984	0.6183	0.1267	0.029
Mof_C 	C 	0.6299	0.7412	0.1804	-0.107
Mof_H 	H 	0.6371	0.7725	0.194	0.071
Mof_C 	C 	0.6341	0.6518	0.1846	-0.105
Mof_H 	H 	0.6446	0.6225	0.2002	0.066
Mof_C 	C 	0.6043	0.738	0.136	0.039
Mof_H 	H 	0.5947	0.7672	0.1195	0.031
Mof_C 	C 	0.6699	0.74176	0.28332	-0.111
Mof_H 	H 	0.643	0.7633	0.2787	0.07
Mof_C 	C 	0.59268	0.69225	0.11575	-0.119
Mof_C 	C 	0.67705	0.70234	0.25049	0.047
Mof_Cu	Cu	2.41555e-33	0.5	0.64425	0.877
Mof_Cu	Cu	-2.36807e-33	0.5	0.74014	0.882
Mof_Cu	Cu	1.33385e-33	0.5	0.35575	0.877
Mof_Cu	Cu	-1.59726e-33	0.5	0.25986	0.881
Mof_Cu	Cu	0.64425	5.14315e-33	0.5	0.877
Mof_Cu	Cu	0.74014	5.14315e-33	0.5	0.882
Mof_Cu	Cu	0.35575	5.14315e-33	0.5	0.877
Mof_Cu	Cu	0.25986	5.14315e-33	0.5	0.881
Mof_Cu	Cu	0.5	0.64425	-0	0.877
Mof_Cu	Cu	0.5	0.74014	-0	0.882
Mof_Cu	Cu	0.5	0.35575	-0	0.877
Mof_Cu	Cu	0.5	0.25986	-0	0.881
_end
