data_functionalizedCrystal
_audit_creation_method	'EQeq! by Chris Wilmer'
_symmetry_space_group_name_H-M	'P1'
_symmetry_Int_Tables_number	1
_symmetry_cell_setting	triclinic
loop_
_symmetry_equiv_pos_as_xyz
  x,y,z
_cell_length_a	17.0105
_cell_length_b	21.9594
_cell_length_c	24.8081
_cell_angle_alpha	90
_cell_angle_beta	90
_cell_angle_gamma	90
loop_
_atom_site_label
_atom_site_type_symbol
_atom_site_fract_x
_atom_site_fract_y
_atom_site_fract_z
_atom_site_charge
Mof_Th	Th	0.43088	0.598	0.55477	0.045
Mof_Th	Th	0.453	0.54819	0.39889	0.046
Mof_Th	Th	0.64543	0.5624	0.49495	0.046
Mof_O 	O 	0.4469	0.5962	0.6527	-0.192
Mof_O 	O 	0.5079	0.5113	0.6796	-0.199
Mof_O 	O 	0.3621	0.8273	0.996	-0.178
Mof_O 	O 	0.3775	0.8556	0.9079	-0.181
Mof_O 	O 	0.658	0.8789	0.9131	-0.186
Mof_O 	O 	0.5536	0.883	0.8581	-0.189
Mof_O 	O 	0.3513	0.6566	0.8328	-0.236
Mof_O 	O 	0.5184	0.7691	0.9361	-0.202
Mof_O 	O 	0.6	0.6926	0.776	-0.237
Mof_O 	O 	0.295	0.5833	0.5835	-0.196
Mof_O 	O 	0.2488	0.4966	0.5497	-0.194
Mof_O 	O 	0.3235	0.5147	0.3702	-0.202
Mof_O 	O 	0.2594	0.4597	0.4309	-0.19
Mof_O 	O 	0.0157	0.8106	0.4368	-0.193
Mof_O 	O 	0.1363	0.8337	0.4663	-0.194
Mof_O 	O 	0.0958	0.4484	0.4875	-0.219
Mof_O 	O 	0.0771	0.6044	0.3677	-0.241
Mof_O 	O 	0.0504	0.6388	0.5479	-0.245
Mof_O 	O 	0.5142	0.6065	0.473	-0.016
Mof_O 	O 	0.3823	0.5389	0.4812	-0.022
Mof_O 	O 	0.5809	0.5068	0.4216	-0.022
Mof_O 	O 	0.5584	0.5554	0.5708	-0.021
Mof_N 	N 	0.4739	0.6782	0.8015	-0.201
Mof_N 	N 	0.4344	0.7106	0.8865	-0.193
Mof_N 	N 	0.5623	0.7281	0.8574	-0.194
Mof_N 	N 	0.0875	0.5453	0.5196	-0.195
Mof_N 	N 	0.0969	0.526	0.4269	-0.199
Mof_N 	N 	0.0614	0.6233	0.4574	-0.194
Mof_C 	C 	0.4783	0.562	0.6877	0.37
Mof_C 	C 	0.4785	0.5861	0.7445	-0.338
Mof_H 	H 	0.4412	0.562	0.7666	0.145
Mof_H 	H 	0.5316	0.5809	0.7601	0.156
Mof_C 	C 	0.4558	0.6521	0.7471	0.091
Mof_H 	H 	0.485	0.6751	0.7191	0.048
Mof_H 	H 	0.3989	0.6564	0.7396	0.041
Mof_C 	C 	0.4153	0.6805	0.8398	0.287
Mof_C 	C 	0.3753	0.7094	0.9299	0.09
Mof_H 	H 	0.4026	0.712	0.9651	0.047
Mof_H 	H 	0.3471	0.67	0.9287	0.048
Mof_C 	C 	0.3157	0.7608	0.9262	-0.324
Mof_H 	H 	0.2972	0.7651	0.8886	0.155
Mof_H 	H 	0.2697	0.7516	0.9493	0.145
Mof_C 	C 	0.354	0.8193	0.9446	0.343
Mof_C 	C 	0.505	0.7384	0.8958	0.3
Mof_C 	C 	0.6436	0.751	0.8679	0.095
Mof_H 	H 	0.6823	0.7207	0.8548	0.03
Mof_H 	H 	0.6514	0.7561	0.9072	0.041
Mof_C 	C 	0.6574	0.812	0.8395	-0.339
Mof_H 	H 	0.7145	0.8196	0.8361	0.154
Mof_H 	H 	0.6344	0.8107	0.8029	0.162
Mof_C 	C 	0.6197	0.8626	0.8717	0.365
Mof_C 	C 	0.5485	0.6986	0.8095	0.288
Mof_C 	C 	0.2415	0.5436	0.5765	0.372
Mof_C 	C 	0.1634	0.5557	0.6038	-0.352
Mof_H 	H 	0.1661	0.5412	0.6415	0.15
Mof_H 	H 	0.1541	0.6002	0.6047	0.162
Mof_C 	C 	0.0949	0.5253	0.5761	0.117
Mof_H 	H 	0.1022	0.4806	0.5771	0.035
Mof_H 	H 	0.0458	0.535	0.5957	0.014
Mof_C 	C 	0.0943	0.503	0.4781	0.298
Mof_C 	C 	0.112	0.4844	0.3811	0.12
Mof_H 	H 	0.0695	0.4891	0.3542	0.008
Mof_H 	H 	0.111	0.4418	0.3943	0.035
Mof_C 	C 	0.1904	0.4966	0.3543	-0.362
Mof_H 	H 	0.1952	0.4688	0.323	0.158
Mof_H 	H 	0.1894	0.5387	0.34	0.168
Mof_C 	C 	0.2628	0.4899	0.3879	0.384
Mof_C 	C 	0.0793	0.5861	0.4134	0.285
Mof_C 	C 	0.037	0.6875	0.4468	0.086
Mof_H 	H 	0.9963	0.6998	0.4732	0.05
Mof_H 	H 	0.0139	0.6905	0.4103	0.045
Mof_C 	C 	0.1066	0.7296	0.4511	-0.322
Mof_H 	H 	0.1425	0.7218	0.4205	0.141
Mof_H 	H 	0.1355	0.7204	0.4848	0.152
Mof_C 	C 	0.0833	0.797	0.4511	0.365
Mof_C 	C 	0.0653	0.6052	0.5106	0.294
Mof_Th	Th	0.06912	0.402	0.05477	0.044
Mof_Th	Th	0.047	0.45181	0.89889	0.045
Mof_Th	Th	0.85457	0.4376	0.99495	0.045
Mof_O 	O 	0.0531	0.4038	0.1527	-0.193
Mof_O 	O 	0.9921	0.4887	0.1796	-0.2
Mof_O 	O 	0.1379	0.1727	0.496	-0.179
Mof_O 	O 	0.1225	0.1444	0.4079	-0.182
Mof_O 	O 	0.842	0.1211	0.4131	-0.187
Mof_O 	O 	0.9464	0.117	0.3581	-0.19
Mof_O 	O 	0.1487	0.3434	0.3328	-0.237
Mof_O 	O 	0.9816	0.2309	0.4361	-0.202
Mof_O 	O 	0.9	0.3074	0.276	-0.237
Mof_O 	O 	0.205	0.4167	0.0835	-0.196
Mof_O 	O 	0.2512	0.5034	0.0497	-0.194
Mof_O 	O 	0.1765	0.4853	0.8702	-0.202
Mof_O 	O 	0.2406	0.5403	0.9309	-0.19
Mof_O 	O 	0.4843	0.1894	0.9368	-0.193
Mof_O 	O 	0.3637	0.1663	0.9663	-0.194
Mof_O 	O 	0.4042	0.5516	0.9875	-0.219
Mof_O 	O 	0.4229	0.3956	0.8677	-0.241
Mof_O 	O 	0.4496	0.3612	0.0479	-0.245
Mof_O 	O 	0.9858	0.3935	0.973	-0.017
Mof_O 	O 	0.1177	0.4611	0.9812	-0.021
Mof_O 	O 	0.9191	0.4932	0.9216	-0.022
Mof_O 	O 	0.9416	0.4446	0.0708	-0.021
Mof_N 	N 	0.0261	0.3218	0.3015	-0.201
Mof_N 	N 	0.0656	0.2894	0.3865	-0.193
Mof_N 	N 	0.9377	0.2719	0.3574	-0.194
Mof_N 	N 	0.4125	0.4547	0.0196	-0.195
Mof_N 	N 	0.4031	0.474	0.9269	-0.199
Mof_N 	N 	0.4386	0.3767	0.9574	-0.194
Mof_C 	C 	0.0217	0.438	0.1877	0.37
Mof_C 	C 	0.0215	0.4139	0.2445	-0.338
Mof_H 	H 	0.0588	0.438	0.2666	0.145
Mof_H 	H 	0.9684	0.4191	0.2601	0.156
Mof_C 	C 	0.0442	0.3479	0.2471	0.091
Mof_H 	H 	0.015	0.3249	0.2191	0.048
Mof_H 	H 	0.1011	0.3436	0.2396	0.041
Mof_C 	C 	0.0847	0.3195	0.3398	0.287
Mof_C 	C 	0.1247	0.2906	0.4299	0.09
Mof_H 	H 	0.0974	0.288	0.4651	0.047
Mof_H 	H 	0.1529	0.33	0.4287	0.048
Mof_C 	C 	0.1843	0.2392	0.4262	-0.324
Mof_H 	H 	0.2028	0.2349	0.3886	0.155
Mof_H 	H 	0.2303	0.2484	0.4493	0.145
Mof_C 	C 	0.146	0.1807	0.4446	0.343
Mof_C 	C 	0.995	0.2616	0.3958	0.3
Mof_C 	C 	0.8564	0.249	0.3679	0.095
Mof_H 	H 	0.8177	0.2793	0.3548	0.03
Mof_H 	H 	0.8486	0.2439	0.4072	0.041
Mof_C 	C 	0.8426	0.188	0.3395	-0.339
Mof_H 	H 	0.7855	0.1804	0.3361	0.154
Mof_H 	H 	0.8656	0.1893	0.3029	0.162
Mof_C 	C 	0.8803	0.1374	0.3717	0.365
Mof_C 	C 	0.9515	0.3014	0.3095	0.288
Mof_C 	C 	0.2585	0.4564	0.0765	0.372
Mof_C 	C 	0.3366	0.4443	0.1038	-0.352
Mof_H 	H 	0.3339	0.4588	0.1415	0.15
Mof_H 	H 	0.3459	0.3998	0.1047	0.162
Mof_C 	C 	0.4051	0.4747	0.0761	0.117
Mof_H 	H 	0.3978	0.5194	0.0771	0.035
Mof_H 	H 	0.4542	0.465	0.0957	0.014
Mof_C 	C 	0.4057	0.497	0.9781	0.298
Mof_C 	C 	0.388	0.5156	0.8811	0.12
Mof_H 	H 	0.4305	0.5109	0.8542	0.008
Mof_H 	H 	0.389	0.5582	0.8943	0.035
Mof_C 	C 	0.3096	0.5034	0.8543	-0.362
Mof_H 	H 	0.3048	0.5312	0.823	0.158
Mof_H 	H 	0.3106	0.4613	0.84	0.168
Mof_C 	C 	0.2372	0.5101	0.8879	0.384
Mof_C 	C 	0.4207	0.4139	0.9134	0.285
Mof_C 	C 	0.463	0.3125	0.9468	0.086
Mof_H 	H 	0.5037	0.3002	0.9732	0.05
Mof_H 	H 	0.4861	0.3095	0.9103	0.045
Mof_C 	C 	0.3934	0.2704	0.9511	-0.322
Mof_H 	H 	0.3575	0.2782	0.9205	0.141
Mof_H 	H 	0.3645	0.2796	0.9848	0.152
Mof_C 	C 	0.4167	0.203	0.9511	0.365
Mof_C 	C 	0.4347	0.3948	0.0106	0.294
Mof_Th	Th	0.56912	0.098	0.94523	0.044
Mof_Th	Th	0.547	0.04819	0.10111	0.045
Mof_Th	Th	0.35457	0.0624	0.00505	0.045
Mof_O 	O 	0.5531	0.0962	0.8473	-0.193
Mof_O 	O 	0.4921	0.0113	0.8204	-0.2
Mof_O 	O 	0.6379	0.3273	0.504	-0.179
Mof_O 	O 	0.6225	0.3556	0.5921	-0.182
Mof_O 	O 	0.342	0.3789	0.5869	-0.187
Mof_O 	O 	0.4464	0.383	0.6419	-0.19
Mof_O 	O 	0.6487	0.1566	0.6672	-0.237
Mof_O 	O 	0.4816	0.2691	0.5639	-0.202
Mof_O 	O 	0.4	0.1926	0.724	-0.237
Mof_O 	O 	0.705	0.0833	0.9165	-0.196
Mof_O 	O 	0.7512	0.9966	0.9503	-0.194
Mof_O 	O 	0.6765	0.0147	0.1298	-0.202
Mof_O 	O 	0.7406	0.9597	0.0691	-0.19
Mof_O 	O 	0.9843	0.3106	0.0632	-0.193
Mof_O 	O 	0.8637	0.3337	0.0337	-0.194
Mof_O 	O 	0.9042	0.9484	0.0125	-0.219
Mof_O 	O 	0.9229	0.1044	0.1323	-0.241
Mof_O 	O 	0.9496	0.1388	0.9521	-0.245
Mof_O 	O 	0.4858	0.1065	0.027	-0.016
Mof_O 	O 	0.6177	0.0389	0.0188	-0.022
Mof_O 	O 	0.4191	0.0068	0.0784	-0.022
Mof_O 	O 	0.4416	0.0554	0.9292	-0.021
Mof_N 	N 	0.5261	0.1782	0.6985	-0.201
Mof_N 	N 	0.5656	0.2106	0.6135	-0.193
Mof_N 	N 	0.4377	0.2281	0.6426	-0.194
Mof_N 	N 	0.9125	0.0453	0.9804	-0.195
Mof_N 	N 	0.9031	0.026	0.0731	-0.199
Mof_N 	N 	0.9386	0.1233	0.0426	-0.194
Mof_C 	C 	0.5217	0.062	0.8123	0.37
Mof_C 	C 	0.5215	0.0861	0.7555	-0.338
Mof_H 	H 	0.5588	0.062	0.7334	0.145
Mof_H 	H 	0.4684	0.0809	0.7399	0.156
Mof_C 	C 	0.5442	0.1521	0.7529	0.091
Mof_H 	H 	0.515	0.1751	0.7809	0.048
Mof_H 	H 	0.6011	0.1564	0.7604	0.041
Mof_C 	C 	0.5847	0.1805	0.6602	0.287
Mof_C 	C 	0.6247	0.2094	0.5701	0.09
Mof_H 	H 	0.5974	0.212	0.5349	0.047
Mof_H 	H 	0.6529	0.17	0.5713	0.048
Mof_C 	C 	0.6843	0.2608	0.5738	-0.324
Mof_H 	H 	0.7028	0.2651	0.6114	0.154
Mof_H 	H 	0.7303	0.2516	0.5507	0.145
Mof_C 	C 	0.646	0.3193	0.5554	0.343
Mof_C 	C 	0.495	0.2384	0.6042	0.3
Mof_C 	C 	0.3564	0.251	0.6321	0.095
Mof_H 	H 	0.3177	0.2207	0.6452	0.03
Mof_H 	H 	0.3486	0.2561	0.5928	0.041
Mof_C 	C 	0.3426	0.312	0.6605	-0.339
Mof_H 	H 	0.2855	0.3196	0.6639	0.154
Mof_H 	H 	0.3656	0.3107	0.6971	0.162
Mof_C 	C 	0.3803	0.3626	0.6283	0.365
Mof_C 	C 	0.4515	0.1986	0.6905	0.288
Mof_C 	C 	0.7585	0.0436	0.9235	0.372
Mof_C 	C 	0.8366	0.0557	0.8962	-0.351
Mof_H 	H 	0.8339	0.0412	0.8585	0.15
Mof_H 	H 	0.8459	0.1002	0.8953	0.162
Mof_C 	C 	0.9051	0.0253	0.9239	0.116
Mof_H 	H 	0.8978	0.9806	0.9229	0.035
Mof_H 	H 	0.9542	0.035	0.9043	0.014
Mof_C 	C 	0.9057	0.003	0.0219	0.298
Mof_C 	C 	0.888	0.9844	0.1189	0.12
Mof_H 	H 	0.9305	0.9891	0.1458	0.009
Mof_H 	H 	0.889	0.9418	0.1057	0.035
Mof_C 	C 	0.8096	0.9966	0.1457	-0.362
Mof_H 	H 	0.8048	0.9688	0.177	0.158
Mof_H 	H 	0.8106	0.0387	0.16	0.168
Mof_C 	C 	0.7372	0.9899	0.1121	0.384
Mof_C 	C 	0.9207	0.0861	0.0866	0.285
Mof_C 	C 	0.963	0.1875	0.0532	0.087
Mof_H 	H 	0.0037	0.1998	0.0268	0.05
Mof_H 	H 	0.9861	0.1905	0.0897	0.045
Mof_C 	C 	0.8934	0.2296	0.0489	-0.322
Mof_H 	H 	0.8575	0.2218	0.0795	0.141
Mof_H 	H 	0.8645	0.2204	0.0152	0.152
Mof_C 	C 	0.9167	0.297	0.0489	0.366
Mof_C 	C 	0.9347	0.1052	0.9894	0.293
Mof_Th	Th	0.93088	0.902	0.44523	0.044
Mof_Th	Th	0.953	0.95181	0.60111	0.045
Mof_Th	Th	0.14543	0.9376	0.50505	0.045
Mof_O 	O 	0.9469	0.9038	0.3473	-0.193
Mof_O 	O 	0.0079	0.9887	0.3204	-0.201
Mof_O 	O 	0.8621	0.6727	0.004	-0.179
Mof_O 	O 	0.8775	0.6444	0.0921	-0.181
Mof_O 	O 	0.158	0.6211	0.0869	-0.187
Mof_O 	O 	0.0536	0.617	0.1419	-0.19
Mof_O 	O 	0.8513	0.8434	0.1672	-0.237
Mof_O 	O 	0.0184	0.7309	0.0639	-0.202
Mof_O 	O 	0.1	0.8074	0.224	-0.237
Mof_O 	O 	0.795	0.9167	0.4165	-0.196
Mof_O 	O 	0.7488	0.0034	0.4503	-0.194
Mof_O 	O 	0.8235	0.9853	0.6298	-0.202
Mof_O 	O 	0.7594	0.0403	0.5691	-0.19
Mof_O 	O 	0.5157	0.6894	0.5632	-0.193
Mof_O 	O 	0.6363	0.6663	0.5337	-0.194
Mof_O 	O 	0.5958	0.0516	0.5125	-0.219
Mof_O 	O 	0.5771	0.8956	0.6323	-0.241
Mof_O 	O 	0.5504	0.8612	0.4521	-0.245
Mof_O 	O 	0.0142	0.8935	0.527	-0.017
Mof_O 	O 	0.8823	0.9611	0.5188	-0.021
Mof_O 	O 	0.0809	0.9932	0.5784	-0.022
Mof_O 	O 	0.0584	0.9446	0.4292	-0.021
Mof_N 	N 	0.9739	0.8218	0.1985	-0.201
Mof_N 	N 	0.9344	0.7894	0.1135	-0.193
Mof_N 	N 	0.0623	0.7719	0.1426	-0.194
Mof_N 	N 	0.5875	0.9547	0.4804	-0.195
Mof_N 	N 	0.5969	0.974	0.5731	-0.199
Mof_N 	N 	0.5614	0.8767	0.5426	-0.194
Mof_C 	C 	0.9783	0.938	0.3123	0.37
Mof_C 	C 	0.9785	0.9139	0.2555	-0.337
Mof_H 	H 	0.9412	0.938	0.2334	0.145
Mof_H 	H 	0.0316	0.9191	0.2399	0.155
Mof_C 	C 	0.9558	0.8479	0.2529	0.09
Mof_H 	H 	0.985	0.8249	0.2809	0.048
Mof_H 	H 	0.8989	0.8436	0.2604	0.041
Mof_C 	C 	0.9153	0.8195	0.1602	0.287
Mof_C 	C 	0.8753	0.7906	0.0701	0.09
Mof_H 	H 	0.9026	0.788	0.0349	0.047
Mof_H 	H 	0.8471	0.83	0.0713	0.048
Mof_C 	C 	0.8157	0.7392	0.0738	-0.324
Mof_H 	H 	0.7972	0.7349	0.1114	0.155
Mof_H 	H 	0.7697	0.7484	0.0507	0.145
Mof_C 	C 	0.854	0.6807	0.0554	0.343
Mof_C 	C 	0.005	0.7616	0.1042	0.299
Mof_C 	C 	0.1436	0.749	0.1321	0.095
Mof_H 	H 	0.1823	0.7793	0.1452	0.03
Mof_H 	H 	0.1514	0.7439	0.0928	0.041
Mof_C 	C 	0.1574	0.688	0.1605	-0.339
Mof_H 	H 	0.2145	0.6804	0.1639	0.154
Mof_H 	H 	0.1344	0.6893	0.1971	0.162
Mof_C 	C 	0.1197	0.6374	0.1283	0.365
Mof_C 	C 	0.0485	0.8014	0.1905	0.288
Mof_C 	C 	0.7415	0.9564	0.4235	0.372
Mof_C 	C 	0.6634	0.9443	0.3962	-0.352
Mof_H 	H 	0.6661	0.9588	0.3585	0.15
Mof_H 	H 	0.6541	0.8998	0.3953	0.162
Mof_C 	C 	0.5949	0.9747	0.4239	0.117
Mof_H 	H 	0.6022	0.0194	0.4229	0.035
Mof_H 	H 	0.5458	0.965	0.4043	0.014
Mof_C 	C 	0.5943	0.997	0.5219	0.298
Mof_C 	C 	0.612	0.0156	0.6189	0.12
Mof_H 	H 	0.5695	0.0109	0.6458	0.008
Mof_H 	H 	0.611	0.0582	0.6057	0.035
Mof_C 	C 	0.6904	0.0034	0.6457	-0.362
Mof_H 	H 	0.6952	0.0312	0.677	0.158
Mof_H 	H 	0.6894	0.9613	0.66	0.168
Mof_C 	C 	0.7628	0.0101	0.6121	0.384
Mof_C 	C 	0.5793	0.9139	0.5866	0.285
Mof_C 	C 	0.537	0.8125	0.5532	0.086
Mof_H 	H 	0.4963	0.8002	0.5268	0.05
Mof_H 	H 	0.5139	0.8095	0.5897	0.045
Mof_C 	C 	0.6066	0.7704	0.5489	-0.322
Mof_H 	H 	0.6425	0.7782	0.5795	0.141
Mof_H 	H 	0.6355	0.7796	0.5152	0.152
Mof_C 	C 	0.5833	0.703	0.5489	0.365
Mof_C 	C 	0.5653	0.8948	0.4894	0.294
Mof_Th	Th	0.56912	0.402	0.44523	0.044
Mof_Th	Th	0.547	0.45181	0.60111	0.045
Mof_Th	Th	0.35457	0.4376	0.50505	0.045
Mof_O 	O 	0.5531	0.4038	0.3473	-0.193
Mof_O 	O 	0.4921	0.4887	0.3204	-0.2
Mof_O 	O 	0.6379	0.1727	0.004	-0.179
Mof_O 	O 	0.6225	0.1444	0.0921	-0.182
Mof_O 	O 	0.342	0.1211	0.0869	-0.187
Mof_O 	O 	0.4464	0.117	0.1419	-0.19
Mof_O 	O 	0.6487	0.3434	0.1672	-0.237
Mof_O 	O 	0.4816	0.2309	0.0639	-0.202
Mof_O 	O 	0.4	0.3074	0.224	-0.237
Mof_O 	O 	0.705	0.4167	0.4165	-0.196
Mof_O 	O 	0.7512	0.5034	0.4503	-0.194
Mof_O 	O 	0.6765	0.4853	0.6298	-0.202
Mof_O 	O 	0.7406	0.5403	0.5691	-0.19
Mof_O 	O 	0.9843	0.1894	0.5632	-0.193
Mof_O 	O 	0.8637	0.1663	0.5337	-0.194
Mof_O 	O 	0.9042	0.5516	0.5125	-0.219
Mof_O 	O 	0.9229	0.3956	0.6323	-0.241
Mof_O 	O 	0.9496	0.3612	0.4521	-0.245
Mof_O 	O 	0.4858	0.3935	0.527	-0.016
Mof_O 	O 	0.6177	0.4611	0.5188	-0.022
Mof_O 	O 	0.4191	0.4932	0.5784	-0.022
Mof_O 	O 	0.4416	0.4446	0.4292	-0.021
Mof_N 	N 	0.5261	0.3218	0.1985	-0.201
Mof_N 	N 	0.5656	0.2894	0.1135	-0.193
Mof_N 	N 	0.4377	0.2719	0.1426	-0.194
Mof_N 	N 	0.9125	0.4547	0.4804	-0.195
Mof_N 	N 	0.9031	0.474	0.5731	-0.199
Mof_N 	N 	0.9386	0.3767	0.5426	-0.194
Mof_C 	C 	0.5217	0.438	0.3123	0.37
Mof_C 	C 	0.5215	0.4139	0.2555	-0.338
Mof_H 	H 	0.5588	0.438	0.2334	0.145
Mof_H 	H 	0.4684	0.4191	0.2399	0.156
Mof_C 	C 	0.5442	0.3479	0.2529	0.091
Mof_H 	H 	0.515	0.3249	0.2809	0.048
Mof_H 	H 	0.6011	0.3436	0.2604	0.041
Mof_C 	C 	0.5847	0.3195	0.1602	0.287
Mof_C 	C 	0.6247	0.2906	0.0701	0.09
Mof_H 	H 	0.5974	0.288	0.0349	0.047
Mof_H 	H 	0.6529	0.33	0.0713	0.048
Mof_C 	C 	0.6843	0.2392	0.0738	-0.324
Mof_H 	H 	0.7028	0.2349	0.1114	0.155
Mof_H 	H 	0.7303	0.2484	0.0507	0.145
Mof_C 	C 	0.646	0.1807	0.0554	0.343
Mof_C 	C 	0.495	0.2616	0.1042	0.3
Mof_C 	C 	0.3564	0.249	0.1321	0.095
Mof_H 	H 	0.3177	0.2793	0.1452	0.03
Mof_H 	H 	0.3486	0.2439	0.0928	0.041
Mof_C 	C 	0.3426	0.188	0.1605	-0.339
Mof_H 	H 	0.2855	0.1804	0.1639	0.154
Mof_H 	H 	0.3656	0.1893	0.1971	0.162
Mof_C 	C 	0.3803	0.1374	0.1283	0.365
Mof_C 	C 	0.4515	0.3014	0.1905	0.288
Mof_C 	C 	0.7585	0.4564	0.4235	0.372
Mof_C 	C 	0.8366	0.4443	0.3962	-0.352
Mof_H 	H 	0.8339	0.4588	0.3585	0.15
Mof_H 	H 	0.8459	0.3998	0.3953	0.162
Mof_C 	C 	0.9051	0.4747	0.4239	0.117
Mof_H 	H 	0.8978	0.5194	0.4229	0.035
Mof_H 	H 	0.9542	0.465	0.4043	0.014
Mof_C 	C 	0.9057	0.497	0.5219	0.298
Mof_C 	C 	0.888	0.5156	0.6189	0.12
Mof_H 	H 	0.9305	0.5109	0.6458	0.008
Mof_H 	H 	0.889	0.5582	0.6057	0.035
Mof_C 	C 	0.8096	0.5034	0.6457	-0.362
Mof_H 	H 	0.8048	0.5312	0.677	0.158
Mof_H 	H 	0.8106	0.4613	0.66	0.168
Mof_C 	C 	0.7372	0.5101	0.6121	0.384
Mof_C 	C 	0.9207	0.4139	0.5866	0.285
Mof_C 	C 	0.963	0.3125	0.5532	0.086
Mof_H 	H 	0.0037	0.3002	0.5268	0.05
Mof_H 	H 	0.9861	0.3095	0.5897	0.045
Mof_C 	C 	0.8934	0.2704	0.5489	-0.322
Mof_H 	H 	0.8575	0.2782	0.5795	0.141
Mof_H 	H 	0.8645	0.2796	0.5152	0.152
Mof_C 	C 	0.9167	0.203	0.5489	0.365
Mof_C 	C 	0.9347	0.3948	0.4894	0.294
Mof_Th	Th	0.93088	0.598	0.94523	0.044
Mof_Th	Th	0.953	0.54819	0.10111	0.045
Mof_Th	Th	0.14543	0.5624	0.00505	0.045
Mof_O 	O 	0.9469	0.5962	0.8473	-0.193
Mof_O 	O 	0.0079	0.5113	0.8204	-0.2
Mof_O 	O 	0.8621	0.8273	0.504	-0.179
Mof_O 	O 	0.8775	0.8556	0.5921	-0.182
Mof_O 	O 	0.158	0.8789	0.5869	-0.187
Mof_O 	O 	0.0536	0.883	0.6419	-0.19
Mof_O 	O 	0.8513	0.6566	0.6672	-0.237
Mof_O 	O 	0.0184	0.7691	0.5639	-0.202
Mof_O 	O 	0.1	0.6926	0.724	-0.237
Mof_O 	O 	0.795	0.5833	0.9165	-0.196
Mof_O 	O 	0.7488	0.4966	0.9503	-0.194
Mof_O 	O 	0.8235	0.5147	0.1298	-0.202
Mof_O 	O 	0.7594	0.4597	0.0691	-0.19
Mof_O 	O 	0.5157	0.8106	0.0632	-0.193
Mof_O 	O 	0.6363	0.8337	0.0337	-0.194
Mof_O 	O 	0.5958	0.4484	0.0125	-0.219
Mof_O 	O 	0.5771	0.6044	0.1323	-0.241
Mof_O 	O 	0.5504	0.6388	0.9521	-0.245
Mof_O 	O 	0.0142	0.6065	0.027	-0.017
Mof_O 	O 	0.8823	0.5389	0.0188	-0.021
Mof_O 	O 	0.0809	0.5068	0.0784	-0.022
Mof_O 	O 	0.0584	0.5554	0.9292	-0.021
Mof_N 	N 	0.9739	0.6782	0.6985	-0.201
Mof_N 	N 	0.9344	0.7106	0.6135	-0.193
Mof_N 	N 	0.0623	0.7281	0.6426	-0.194
Mof_N 	N 	0.5875	0.5453	0.9804	-0.195
Mof_N 	N 	0.5969	0.526	0.0731	-0.199
Mof_N 	N 	0.5614	0.6233	0.0426	-0.194
Mof_C 	C 	0.9783	0.562	0.8123	0.37
Mof_C 	C 	0.9785	0.5861	0.7555	-0.338
Mof_H 	H 	0.9412	0.562	0.7334	0.145
Mof_H 	H 	0.0316	0.5809	0.7399	0.156
Mof_C 	C 	0.9558	0.6521	0.7529	0.091
Mof_H 	H 	0.985	0.6751	0.7809	0.048
Mof_H 	H 	0.8989	0.6564	0.7604	0.041
Mof_C 	C 	0.9153	0.6805	0.6602	0.287
Mof_C 	C 	0.8753	0.7094	0.5701	0.09
Mof_H 	H 	0.9026	0.712	0.5349	0.047
Mof_H 	H 	0.8471	0.67	0.5713	0.048
Mof_C 	C 	0.8157	0.7608	0.5738	-0.324
Mof_H 	H 	0.7972	0.7651	0.6114	0.155
Mof_H 	H 	0.7697	0.7516	0.5507	0.145
Mof_C 	C 	0.854	0.8193	0.5554	0.343
Mof_C 	C 	0.005	0.7384	0.6042	0.3
Mof_C 	C 	0.1436	0.751	0.6321	0.095
Mof_H 	H 	0.1823	0.7207	0.6452	0.03
Mof_H 	H 	0.1514	0.7561	0.5928	0.041
Mof_C 	C 	0.1574	0.812	0.6605	-0.339
Mof_H 	H 	0.2145	0.8196	0.6639	0.154
Mof_H 	H 	0.1344	0.8107	0.6971	0.162
Mof_C 	C 	0.1197	0.8626	0.6283	0.365
Mof_C 	C 	0.0485	0.6986	0.6905	0.288
Mof_C 	C 	0.7415	0.5436	0.9235	0.372
Mof_C 	C 	0.6634	0.5557	0.8962	-0.352
Mof_H 	H 	0.6661	0.5412	0.8585	0.15
Mof_H 	H 	0.6541	0.6002	0.8953	0.162
Mof_C 	C 	0.5949	0.5253	0.9239	0.117
Mof_H 	H 	0.6022	0.4806	0.9229	0.035
Mof_H 	H 	0.5458	0.535	0.9043	0.014
Mof_C 	C 	0.5943	0.503	0.0219	0.298
Mof_C 	C 	0.612	0.4844	0.1189	0.12
Mof_H 	H 	0.5695	0.4891	0.1458	0.008
Mof_H 	H 	0.611	0.4418	0.1057	0.035
Mof_C 	C 	0.6904	0.4966	0.1457	-0.362
Mof_H 	H 	0.6952	0.4688	0.177	0.158
Mof_H 	H 	0.6894	0.5387	0.16	0.168
Mof_C 	C 	0.7628	0.4899	0.1121	0.384
Mof_C 	C 	0.5793	0.5861	0.0866	0.285
Mof_C 	C 	0.537	0.6875	0.0532	0.086
Mof_H 	H 	0.4963	0.6998	0.0268	0.05
Mof_H 	H 	0.5139	0.6905	0.0897	0.045
Mof_C 	C 	0.6066	0.7296	0.0489	-0.322
Mof_H 	H 	0.6425	0.7218	0.0795	0.141
Mof_H 	H 	0.6355	0.7204	0.0152	0.152
Mof_C 	C 	0.5833	0.797	0.0489	0.365
Mof_C 	C 	0.5653	0.6052	0.9894	0.294
Mof_Th	Th	0.43088	0.902	0.05477	0.044
Mof_Th	Th	0.453	0.95181	0.89889	0.045
Mof_Th	Th	0.64543	0.9376	0.99495	0.045
Mof_O 	O 	0.4469	0.9038	0.1527	-0.193
Mof_O 	O 	0.5079	0.9887	0.1796	-0.2
Mof_O 	O 	0.3621	0.6727	0.496	-0.179
Mof_O 	O 	0.3775	0.6444	0.4079	-0.182
Mof_O 	O 	0.658	0.6211	0.4131	-0.187
Mof_O 	O 	0.5536	0.617	0.3581	-0.19
Mof_O 	O 	0.3513	0.8434	0.3328	-0.237
Mof_O 	O 	0.5184	0.7309	0.4361	-0.202
Mof_O 	O 	0.6	0.8074	0.276	-0.237
Mof_O 	O 	0.295	0.9167	0.0835	-0.196
Mof_O 	O 	0.2488	0.0034	0.0497	-0.194
Mof_O 	O 	0.3235	0.9853	0.8702	-0.202
Mof_O 	O 	0.2594	0.0403	0.9309	-0.19
Mof_O 	O 	0.0157	0.6894	0.9368	-0.193
Mof_O 	O 	0.1363	0.6663	0.9663	-0.194
Mof_O 	O 	0.0958	0.0516	0.9875	-0.219
Mof_O 	O 	0.0771	0.8956	0.8677	-0.241
Mof_O 	O 	0.0504	0.8612	0.0479	-0.245
Mof_O 	O 	0.5142	0.8935	0.973	-0.016
Mof_O 	O 	0.3823	0.9611	0.9812	-0.022
Mof_O 	O 	0.5809	0.9932	0.9216	-0.022
Mof_O 	O 	0.5584	0.9446	0.0708	-0.021
Mof_N 	N 	0.4739	0.8218	0.3015	-0.201
Mof_N 	N 	0.4344	0.7894	0.3865	-0.193
Mof_N 	N 	0.5623	0.7719	0.3574	-0.194
Mof_N 	N 	0.0875	0.9547	0.0196	-0.195
Mof_N 	N 	0.0969	0.974	0.9269	-0.199
Mof_N 	N 	0.0614	0.8767	0.9574	-0.194
Mof_C 	C 	0.4783	0.938	0.1877	0.37
Mof_C 	C 	0.4785	0.9139	0.2445	-0.338
Mof_H 	H 	0.4412	0.938	0.2666	0.145
Mof_H 	H 	0.5316	0.9191	0.2601	0.156
Mof_C 	C 	0.4558	0.8479	0.2471	0.091
Mof_H 	H 	0.485	0.8249	0.2191	0.048
Mof_H 	H 	0.3989	0.8436	0.2396	0.041
Mof_C 	C 	0.4153	0.8195	0.3398	0.287
Mof_C 	C 	0.3753	0.7906	0.4299	0.09
Mof_H 	H 	0.4026	0.788	0.4651	0.047
Mof_H 	H 	0.3471	0.83	0.4287	0.048
Mof_C 	C 	0.3157	0.7392	0.4262	-0.324
Mof_H 	H 	0.2972	0.7349	0.3886	0.154
Mof_H 	H 	0.2697	0.7484	0.4493	0.145
Mof_C 	C 	0.354	0.6807	0.4446	0.343
Mof_C 	C 	0.505	0.7616	0.3958	0.3
Mof_C 	C 	0.6436	0.749	0.3679	0.095
Mof_H 	H 	0.6823	0.7793	0.3548	0.03
Mof_H 	H 	0.6514	0.7439	0.4072	0.041
Mof_C 	C 	0.6574	0.688	0.3395	-0.339
Mof_H 	H 	0.7145	0.6804	0.3361	0.154
Mof_H 	H 	0.6344	0.6893	0.3029	0.162
Mof_C 	C 	0.6197	0.6374	0.3717	0.365
Mof_C 	C 	0.5485	0.8014	0.3095	0.288
Mof_C 	C 	0.2415	0.9564	0.0765	0.372
Mof_C 	C 	0.1634	0.9443	0.1038	-0.351
Mof_H 	H 	0.1661	0.9588	0.1415	0.15
Mof_H 	H 	0.1541	0.8998	0.1047	0.162
Mof_C 	C 	0.0949	0.9747	0.0761	0.116
Mof_H 	H 	0.1022	0.0194	0.0771	0.035
Mof_H 	H 	0.0458	0.965	0.0957	0.014
Mof_C 	C 	0.0943	0.997	0.9781	0.298
Mof_C 	C 	0.112	0.0156	0.8811	0.12
Mof_H 	H 	0.0695	0.0109	0.8542	0.009
Mof_H 	H 	0.111	0.0582	0.8943	0.035
Mof_C 	C 	0.1904	0.0034	0.8543	-0.362
Mof_H 	H 	0.1952	0.0312	0.823	0.158
Mof_H 	H 	0.1894	0.9613	0.84	0.168
Mof_C 	C 	0.2628	0.0101	0.8879	0.384
Mof_C 	C 	0.0793	0.9139	0.9134	0.285
Mof_C 	C 	0.037	0.8125	0.9468	0.087
Mof_H 	H 	0.9963	0.8002	0.9732	0.05
Mof_H 	H 	0.0139	0.8095	0.9103	0.045
Mof_C 	C 	0.1066	0.7704	0.9511	-0.322
Mof_H 	H 	0.1425	0.7782	0.9205	0.141
Mof_H 	H 	0.1355	0.7796	0.9848	0.152
Mof_C 	C 	0.0833	0.703	0.9511	0.366
Mof_C 	C 	0.0653	0.8948	0.0106	0.293
Mof_Th	Th	0.06912	0.098	0.55477	0.044
Mof_Th	Th	0.047	0.04819	0.39889	0.045
Mof_Th	Th	0.85457	0.0624	0.49495	0.045
Mof_O 	O 	0.0531	0.0962	0.6527	-0.193
Mof_O 	O 	0.9921	0.0113	0.6796	-0.201
Mof_O 	O 	0.1379	0.3273	0.996	-0.179
Mof_O 	O 	0.1225	0.3556	0.9079	-0.181
Mof_O 	O 	0.842	0.3789	0.9131	-0.187
Mof_O 	O 	0.9464	0.383	0.8581	-0.19
Mof_O 	O 	0.1487	0.1566	0.8328	-0.237
Mof_O 	O 	0.9816	0.2691	0.9361	-0.202
Mof_O 	O 	0.9	0.1926	0.776	-0.237
Mof_O 	O 	0.205	0.0833	0.5835	-0.196
Mof_O 	O 	0.2512	0.9966	0.5497	-0.194
Mof_O 	O 	0.1765	0.0147	0.3702	-0.202
Mof_O 	O 	0.2406	0.9597	0.4309	-0.19
Mof_O 	O 	0.4843	0.3106	0.4368	-0.193
Mof_O 	O 	0.3637	0.3337	0.4663	-0.194
Mof_O 	O 	0.4042	0.9484	0.4875	-0.219
Mof_O 	O 	0.4229	0.1044	0.3677	-0.241
Mof_O 	O 	0.4496	0.1388	0.5479	-0.245
Mof_O 	O 	0.9858	0.1065	0.473	-0.017
Mof_O 	O 	0.1177	0.0389	0.4812	-0.021
Mof_O 	O 	0.9191	0.0068	0.4216	-0.022
Mof_O 	O 	0.9416	0.0554	0.5708	-0.021
Mof_N 	N 	0.0261	0.1782	0.8015	-0.201
Mof_N 	N 	0.0656	0.2106	0.8865	-0.193
Mof_N 	N 	0.9377	0.2281	0.8574	-0.194
Mof_N 	N 	0.4125	0.0453	0.5196	-0.195
Mof_N 	N 	0.4031	0.026	0.4269	-0.199
Mof_N 	N 	0.4386	0.1233	0.4574	-0.194
Mof_C 	C 	0.0217	0.062	0.6877	0.37
Mof_C 	C 	0.0215	0.0861	0.7445	-0.337
Mof_H 	H 	0.0588	0.062	0.7666	0.145
Mof_H 	H 	0.9684	0.0809	0.7601	0.155
Mof_C 	C 	0.0442	0.1521	0.7471	0.09
Mof_H 	H 	0.015	0.1751	0.7191	0.048
Mof_H 	H 	0.1011	0.1564	0.7396	0.041
Mof_C 	C 	0.0847	0.1805	0.8398	0.287
Mof_C 	C 	0.1247	0.2094	0.9299	0.09
Mof_H 	H 	0.0974	0.212	0.9651	0.047
Mof_H 	H 	0.1529	0.17	0.9287	0.048
Mof_C 	C 	0.1843	0.2608	0.9262	-0.324
Mof_H 	H 	0.2028	0.2651	0.8886	0.155
Mof_H 	H 	0.2303	0.2516	0.9493	0.145
Mof_C 	C 	0.146	0.3193	0.9446	0.343
Mof_C 	C 	0.995	0.2384	0.8958	0.299
Mof_C 	C 	0.8564	0.251	0.8679	0.095
Mof_H 	H 	0.8177	0.2207	0.8548	0.03
Mof_H 	H 	0.8486	0.2561	0.9072	0.041
Mof_C 	C 	0.8426	0.312	0.8395	-0.339
Mof_H 	H 	0.7855	0.3196	0.8361	0.154
Mof_H 	H 	0.8656	0.3107	0.8029	0.162
Mof_C 	C 	0.8803	0.3626	0.8717	0.365
Mof_C 	C 	0.9515	0.1986	0.8095	0.288
Mof_C 	C 	0.2585	0.0436	0.5765	0.372
Mof_C 	C 	0.3366	0.0557	0.6038	-0.352
Mof_H 	H 	0.3339	0.0412	0.6415	0.15
Mof_H 	H 	0.3459	0.1002	0.6047	0.162
Mof_C 	C 	0.4051	0.0253	0.5761	0.117
Mof_H 	H 	0.3978	0.9806	0.5771	0.035
Mof_H 	H 	0.4542	0.035	0.5957	0.014
Mof_C 	C 	0.4057	0.003	0.4781	0.298
Mof_C 	C 	0.388	0.9844	0.3811	0.12
Mof_H 	H 	0.4305	0.9891	0.3542	0.008
Mof_H 	H 	0.389	0.9418	0.3943	0.035
Mof_C 	C 	0.3096	0.9966	0.3543	-0.362
Mof_H 	H 	0.3048	0.9688	0.323	0.158
Mof_H 	H 	0.3106	0.0387	0.34	0.168
Mof_C 	C 	0.2372	0.9899	0.3879	0.384
Mof_C 	C 	0.4207	0.0861	0.4134	0.285
Mof_C 	C 	0.463	0.1875	0.4468	0.086
Mof_H 	H 	0.5037	0.1998	0.4732	0.05
Mof_H 	H 	0.4861	0.1905	0.4103	0.045
Mof_C 	C 	0.3934	0.2296	0.4511	-0.322
Mof_H 	H 	0.3575	0.2218	0.4205	0.141
Mof_H 	H 	0.3645	0.2204	0.4848	0.152
Mof_C 	C 	0.4167	0.297	0.4511	0.365
Mof_C 	C 	0.4347	0.1052	0.5106	0.294
_end
