data_functionalizedCrystal
_audit_creation_method	'EQeq! by Chris Wilmer'
_symmetry_space_group_name_H-M	'P1'
_symmetry_Int_Tables_number	1
_symmetry_cell_setting	triclinic
loop_
_symmetry_equiv_pos_as_xyz
  x,y,z
_cell_length_a	21.2895
_cell_length_b	14.5585
_cell_length_c	8.1066
_cell_angle_alpha	90
_cell_angle_beta	84.173
_cell_angle_gamma	90
loop_
_atom_site_label
_atom_site_type_symbol
_atom_site_fract_x
_atom_site_fract_y
_atom_site_fract_z
_atom_site_charge
Mof_Zr	Zr	0.57851	0.61912	0.04052	3.186
Mof_O 	O 	0.51662	0.6283	0.8332	-1.205
Mof_O 	O 	0.61125	0.59852	0.6031	-0.679
Mof_O 	O 	0.55225	0.76629	0.0129	-0.706
Mof_O 	O 	0.64326	0.6566	0.8344	-0.692
Mof_O 	O 	0.67366	0.57536	0.0968	-0.661
Mof_C 	C 	0.64462	0.64903	0.67904	0.572
Mof_C 	C 	0.69773	0.70101	0.58423	-0.106
Mof_C 	C 	0.7286	0.77244	0.66249	0.106
Mof_N 	N 	0.72018	0.67907	0.4203	-0.094
Mof_C 	C 	0.54239	0.9532	0.0918	0.157
Mof_Zr	Zr	0.07851	0.11912	0.04052	3.187
Mof_O 	O 	0.01662	0.1283	0.8332	-1.185
Mof_O 	O 	0.11125	0.09852	0.6031	-0.692
Mof_O 	O 	0.05225	0.26629	0.0129	-0.71
Mof_O 	O 	0.14326	0.1566	0.8344	-0.693
Mof_O 	O 	0.17366	0.07536	0.0968	-0.651
Mof_C 	C 	0.14462	0.14903	0.67904	0.572
Mof_C 	C 	0.19773	0.20101	0.58423	-0.11
Mof_C 	C 	0.2286	0.27244	0.66249	0.097
Mof_N 	N 	0.22018	0.17907	0.4203	-0.098
Mof_C 	C 	0.04239	0.4532	0.0918	0.032
Mof_Zr	Zr	0.42149	0.61912	0.95948	3.196
Mof_O 	O 	0.48338	0.6283	0.1668	-1.233
Mof_O 	O 	0.38875	0.59852	0.3969	-0.681
Mof_O 	O 	0.44775	0.76629	0.9871	-0.649
Mof_O 	O 	0.35674	0.6566	0.1656	-0.73
Mof_O 	O 	0.32634	0.57536	0.9032	-0.632
Mof_C 	C 	0.35538	0.64903	0.32096	0.577
Mof_C 	C 	0.30227	0.70101	0.41577	-0.108
Mof_C 	C 	0.2714	0.77244	0.33751	0.09
Mof_N 	N 	0.27982	0.67907	0.5797	-0.092
Mof_C 	C 	0.45761	0.9532	0.9082	0.195
Mof_Zr	Zr	0.92149	0.11912	0.95948	3.193
Mof_O 	O 	0.98338	0.1283	0.1668	-1.257
Mof_O 	O 	0.88875	0.09852	0.3969	-0.705
Mof_O 	O 	0.94775	0.26629	0.9871	-0.687
Mof_O 	O 	0.85674	0.1566	0.1656	-0.734
Mof_O 	O 	0.82634	0.07536	0.9032	-0.625
Mof_C 	C 	0.85538	0.14903	0.32096	0.576
Mof_C 	C 	0.80227	0.20101	0.41577	-0.116
Mof_C 	C 	0.7714	0.27244	0.33751	0.077
Mof_N 	N 	0.77982	0.17907	0.5797	-0.098
Mof_C 	C 	0.95761	0.4532	0.9082	0.036
Mof_Zr	Zr	0.42149	0.38088	0.95948	3.195
Mof_O 	O 	0.48338	0.3717	0.1668	-1.235
Mof_O 	O 	0.38875	0.40148	0.3969	-0.683
Mof_O 	O 	0.44775	0.23371	0.9871	-0.643
Mof_O 	O 	0.35674	0.3434	0.1656	-0.733
Mof_O 	O 	0.32634	0.42464	0.9032	-0.634
Mof_C 	C 	0.35538	0.35097	0.32096	0.574
Mof_C 	C 	0.30227	0.29899	0.41577	-0.109
Mof_C 	C 	0.2714	0.22756	0.33751	0.073
Mof_N 	N 	0.27982	0.32093	0.5797	-0.094
Mof_C 	C 	0.45761	0.0468	0.9082	-0.052
Mof_Zr	Zr	0.92149	0.88088	0.95948	3.198
Mof_O 	O 	0.98338	0.8717	0.1668	-1.229
Mof_O 	O 	0.88875	0.90148	0.3969	-0.662
Mof_O 	O 	0.94775	0.73371	0.9871	-0.686
Mof_O 	O 	0.85674	0.8434	0.1656	-0.715
Mof_O 	O 	0.82634	0.92464	0.9032	-0.561
Mof_C 	C 	0.85538	0.85097	0.32096	0.575
Mof_C 	C 	0.80227	0.79899	0.41577	-0.102
Mof_C 	C 	0.7714	0.72756	0.33751	0.08
Mof_N 	N 	0.77982	0.82093	0.5797	-0.088
Mof_C 	C 	0.95761	0.5468	0.9082	0.036
Mof_Zr	Zr	0.57851	0.38088	0.04052	3.186
Mof_O 	O 	0.51662	0.3717	0.8332	-1.207
Mof_O 	O 	0.61125	0.40148	0.6031	-0.68
Mof_O 	O 	0.55225	0.23371	0.0129	-0.701
Mof_O 	O 	0.64326	0.3434	0.8344	-0.695
Mof_O 	O 	0.67366	0.42464	0.0968	-0.663
Mof_C 	C 	0.64462	0.35097	0.67904	0.569
Mof_C 	C 	0.69773	0.29899	0.58423	-0.107
Mof_C 	C 	0.7286	0.22756	0.66249	0.089
Mof_N 	N 	0.72018	0.32093	0.4203	-0.096
Mof_C 	C 	0.54239	0.0468	0.0918	-0.091
Mof_Zr	Zr	0.07851	0.88088	0.04052	3.192
Mof_O 	O 	0.01662	0.8717	0.8332	-1.157
Mof_O 	O 	0.11125	0.90148	0.6031	-0.649
Mof_O 	O 	0.05225	0.73371	0.0129	-0.709
Mof_O 	O 	0.14326	0.8434	0.8344	-0.674
Mof_O 	O 	0.17366	0.92464	0.0968	-0.586
Mof_C 	C 	0.14462	0.85097	0.67904	0.57
Mof_C 	C 	0.19773	0.79899	0.58423	-0.097
Mof_C 	C 	0.2286	0.72756	0.66249	0.1
Mof_N 	N 	0.22018	0.82093	0.4203	-0.087
Mof_C 	C 	0.04239	0.5468	0.0918	0.032
Mof_Zr	Zr	0.46334	0.5	0.30676	3.207
Mof_O 	O 	0.55665	0.5	0.1858	-1.428
Mof_O 	O 	0.603	0.5	0.8843	-1.177
Mof_C 	C 	0.7051	0.5	0.1058	0.445
Mof_Zr	Zr	0.96334	0	0.30676	3.197
Mof_O 	O 	0.05665	0	0.1858	-1.454
Mof_O 	O 	0.103	0	0.8843	-1.209
Mof_C 	C 	0.2051	0	0.1058	0.35
Mof_Zr	Zr	0.53666	0.5	0.69324	3.207
Mof_O 	O 	0.44335	0.5	0.8142	-1.409
Mof_O 	O 	0.397	0.5	0.1157	-1.218
Mof_C 	C 	0.2949	0.5	0.8942	0.47
Mof_Zr	Zr	0.03666	-2.52476e-33	0.69324	3.202
Mof_O 	O 	0.94335	-5.04951e-33	0.8142	-1.472
Mof_O 	O 	0.897	-6.31189e-34	0.1157	-1.256
Mof_C 	C 	0.7949	0	0.8942	0.373
Mof_O 	O 	0.5	0.5783	0.5	-0.892
Mof_O 	O 	2.84262e-18	0.0783	0.5	-0.893
Mof_O 	O 	0.5	0.4217	0.5	-0.896
Mof_O 	O 	2.84262e-18	0.9217	0.5	-0.838
Mof_C 	C 	0.5	0.8036	-0	0.507
Mof_C 	C 	0.5	0.9116	-0	-0.228
Mof_C 	C 	2.52476e-33	0.3036	-0	0.528
Mof_C 	C 	-0	0.4116	-0	-0.134
Mof_C 	C 	0.5	0.1964	-0	0.465
Mof_C 	C 	0.5	0.0884	-0	-0.103
Mof_C 	C 	-0	0.6964	-0	0.526
Mof_C 	C 	5.04951e-33	0.5884	-0	-0.134
_end
