data_functionalizedCrystal
_audit_creation_method	'EQeq! by Chris Wilmer'
_symmetry_space_group_name_H-M	'P1'
_symmetry_Int_Tables_number	1
_symmetry_cell_setting	triclinic
loop_
_symmetry_equiv_pos_as_xyz
  x,y,z
_cell_length_a	18.3127
_cell_length_b	18.3127
_cell_length_c	18.3127
_cell_angle_alpha	60
_cell_angle_beta	60
_cell_angle_gamma	60
loop_
_atom_site_label
_atom_site_type_symbol
_atom_site_fract_x
_atom_site_fract_y
_atom_site_fract_z
_atom_site_charge
Mof_Zn	Zn	0.20666	0.38001	0.20666	1.209
Mof_Zn	Zn	0.38001	0.20666	0.20666	1.209
Mof_Zn	Zn	0.20667	0.20666	0.20666	1.209
Mof_Zn	Zn	0.20667	0.20666	0.38001	1.209
Mof_Zn	Zn	0.61999	0.79334	0.79334	1.209
Mof_Zn	Zn	0.79334	0.61999	0.79333	1.209
Mof_Zn	Zn	0.79334	0.79333	0.79334	1.209
Mof_Zn	Zn	0.79334	0.79333	0.61999	1.209
Mof_H 	H 	0.0452	0.5658	0.0452	0.048
Mof_H 	H 	0.5658	0.0452	0.3438	0.048
Mof_H 	H 	0.0452	0.3438	0.0452	0.048
Mof_H 	H 	0.3438	0.0452	0.5658	0.048
Mof_H 	H 	0.0452	0.0452	0.3438	0.049
Mof_H 	H 	0.5658	0.3438	0.0452	0.049
Mof_H 	H 	0.0452	0.0452	0.5658	0.049
Mof_H 	H 	0.3438	0.5658	0.0452	0.049
Mof_H 	H 	0.0452	0.3438	0.5658	0.049
Mof_H 	H 	0.5658	0.0452	0.0452	0.049
Mof_H 	H 	0.0452	0.5658	0.3438	0.049
Mof_H 	H 	0.3438	0.0452	0.0452	0.049
Mof_H 	H 	0.4342	0.9548	0.9548	0.049
Mof_H 	H 	0.9548	0.4342	0.6562	0.049
Mof_H 	H 	0.6562	0.9548	0.9548	0.049
Mof_H 	H 	0.9548	0.6562	0.4342	0.049
Mof_H 	H 	0.9548	0.9548	0.6562	0.049
Mof_H 	H 	0.6562	0.4342	0.9548	0.049
Mof_H 	H 	0.9548	0.9548	0.4342	0.049
Mof_H 	H 	0.4342	0.6562	0.9548	0.049
Mof_H 	H 	0.6562	0.9548	0.4342	0.049
Mof_H 	H 	0.9548	0.4342	0.9548	0.049
Mof_H 	H 	0.4342	0.9548	0.6562	0.049
Mof_H 	H 	0.9548	0.6562	0.9548	0.049
Mof_C 	C 	0.02688	0.5393	0.02688	-0.015
Mof_C 	C 	0.5393	0.02688	0.40694	-0.015
Mof_C 	C 	0.02688	0.40694	0.02688	-0.015
Mof_C 	C 	0.40694	0.02688	0.5393	-0.015
Mof_C 	C 	0.02688	0.02688	0.40694	-0.015
Mof_C 	C 	0.5393	0.40694	0.02688	-0.015
Mof_C 	C 	0.02688	0.02688	0.5393	-0.015
Mof_C 	C 	0.40694	0.5393	0.02688	-0.015
Mof_C 	C 	0.02688	0.40694	0.5393	-0.015
Mof_C 	C 	0.5393	0.02688	0.02688	-0.015
Mof_C 	C 	0.02688	0.5393	0.40694	-0.015
Mof_C 	C 	0.40694	0.02688	0.02688	-0.015
Mof_C 	C 	0.4607	0.97312	0.97312	-0.015
Mof_C 	C 	0.97312	0.4607	0.59306	-0.015
Mof_C 	C 	0.59306	0.97312	0.97312	-0.015
Mof_C 	C 	0.97312	0.59306	0.4607	-0.015
Mof_C 	C 	0.97312	0.97312	0.59306	-0.015
Mof_C 	C 	0.59306	0.4607	0.97312	-0.015
Mof_C 	C 	0.97312	0.97312	0.4607	-0.015
Mof_C 	C 	0.4607	0.59306	0.97312	-0.015
Mof_C 	C 	0.59306	0.97312	0.4607	-0.015
Mof_C 	C 	0.97312	0.4607	0.97312	-0.015
Mof_C 	C 	0.4607	0.97312	0.59306	-0.015
Mof_C 	C 	0.97312	0.59306	0.97312	-0.015
Mof_C 	C 	0.11142	0.38858	0.11142	0.379
Mof_C 	C 	0.05381	0.44619	0.05381	-0.086
Mof_C 	C 	0.38858	0.11142	0.38858	0.379
Mof_C 	C 	0.44619	0.05381	0.44619	-0.086
Mof_C 	C 	0.11142	0.11142	0.38858	0.379
Mof_C 	C 	0.05381	0.05381	0.44619	-0.086
Mof_C 	C 	0.38858	0.38858	0.11142	0.379
Mof_C 	C 	0.44619	0.44619	0.05381	-0.086
Mof_C 	C 	0.11142	0.38858	0.38858	0.379
Mof_C 	C 	0.05381	0.44619	0.44619	-0.086
Mof_C 	C 	0.38858	0.11142	0.11142	0.379
Mof_C 	C 	0.44619	0.05381	0.05381	-0.086
Mof_C 	C 	0.61142	0.88858	0.88858	0.379
Mof_C 	C 	0.55381	0.94619	0.94619	-0.086
Mof_C 	C 	0.88858	0.61142	0.61142	0.379
Mof_C 	C 	0.94619	0.55381	0.55381	-0.086
Mof_C 	C 	0.88858	0.88858	0.61142	0.379
Mof_C 	C 	0.94619	0.94619	0.55381	-0.086
Mof_C 	C 	0.61142	0.61142	0.88858	0.379
Mof_C 	C 	0.55381	0.55381	0.94619	-0.086
Mof_C 	C 	0.61142	0.88858	0.61142	0.379
Mof_C 	C 	0.55381	0.94619	0.55381	-0.086
Mof_C 	C 	0.88858	0.61142	0.88858	0.379
Mof_C 	C 	0.94619	0.55381	0.94619	-0.086
Mof_O 	O 	0.25	0.25	0.25	-0.964
Mof_O 	O 	0.75	0.75	0.75	-0.964
Mof_O 	O 	0.13369	0.42773	0.13369	-0.503
Mof_O 	O 	0.42773	0.13369	0.30489	-0.503
Mof_O 	O 	0.13369	0.30489	0.13369	-0.503
Mof_O 	O 	0.30489	0.13369	0.42773	-0.503
Mof_O 	O 	0.13369	0.13369	0.30489	-0.503
Mof_O 	O 	0.42773	0.30489	0.13369	-0.503
Mof_O 	O 	0.13369	0.13369	0.42773	-0.503
Mof_O 	O 	0.30489	0.42773	0.13369	-0.503
Mof_O 	O 	0.13369	0.30489	0.42773	-0.503
Mof_O 	O 	0.42773	0.13369	0.13369	-0.503
Mof_O 	O 	0.13369	0.42773	0.30489	-0.503
Mof_O 	O 	0.30489	0.13369	0.13369	-0.503
Mof_O 	O 	0.57227	0.86631	0.86631	-0.503
Mof_O 	O 	0.86631	0.57227	0.69511	-0.503
Mof_O 	O 	0.69511	0.86631	0.86631	-0.503
Mof_O 	O 	0.86631	0.69511	0.57227	-0.503
Mof_O 	O 	0.86631	0.86631	0.69511	-0.503
Mof_O 	O 	0.69511	0.57227	0.86631	-0.503
Mof_O 	O 	0.86631	0.86631	0.57227	-0.503
Mof_O 	O 	0.57227	0.69511	0.86631	-0.503
Mof_O 	O 	0.69511	0.86631	0.57227	-0.503
Mof_O 	O 	0.86631	0.57227	0.86631	-0.503
Mof_O 	O 	0.57227	0.86631	0.69511	-0.503
Mof_O 	O 	0.86631	0.69511	0.86631	-0.503
_end
