data_functionalizedCrystal
_audit_creation_method	'EQeq! by Chris Wilmer'
_symmetry_space_group_name_H-M	'P1'
_symmetry_Int_Tables_number	1
_symmetry_cell_setting	triclinic
loop_
_symmetry_equiv_pos_as_xyz
  x,y,z
_cell_length_a	15.93
_cell_length_b	13.588
_cell_length_c	6.663
_cell_angle_alpha	90
_cell_angle_beta	97.392
_cell_angle_gamma	90
loop_
_atom_site_label
_atom_site_type_symbol
_atom_site_fract_x
_atom_site_fract_y
_atom_site_fract_z
_atom_site_charge
Mof_Pr	Pr	0.74945	0.94004	0.02861	2.148
Mof_C 	C 	0.6433	0.7839	0.6575	0.568
Mof_C 	C 	0.5485	0.7834	0.623	-0.255
Mof_C 	C 	0.5056	0.8738	0.6211	0.144
Mof_H 	H 	0.537	0.9312	0.6453	-0.005
Mof_C 	C 	0.3768	0.7975	0.5552	0.108
Mof_H 	H 	0.3181	0.8022	0.5309	-0.007
Mof_C 	C 	0.4136	0.7042	0.5578	-0.163
Mof_C 	C 	0.5007	0.6972	0.593	0.15
Mof_H 	H 	0.5271	0.6361	0.5968	-0.018
Mof_C 	C 	0.3577	0.6144	0.5218	0.345
Mof_C 	C 	0.8993	0.9524	0.329	0.312
Mof_C 	C 	0.9813	0.9539	0.489	-0.192
Mof_H 	H 	0.9665	0.9325	0.6188	0.064
Mof_H 	H 	0.0219	0.9073	0.4476	0.071
Mof_N 	N 	0.4216	0.8805	0.586	-0.166
Mof_O 	O 	0.6806	0.862	0.7099	-0.58
Mof_O 	O 	0.6796	0.7044	0.6333	-0.61
Mof_O 	O 	0.2813	0.6245	0.4505	-0.476
Mof_O 	O 	0.3898	0.5309	0.563	-0.454
Mof_O 	O 	0.8886	0.0133	0.185	-0.485
Mof_O 	O 	0.849	0.883	0.3394	-0.507
Mof_Pr	Pr	0.25055	0.44004	0.47139	2.184
Mof_C 	C 	0.3567	0.2839	0.8425	0.566
Mof_C 	C 	0.4515	0.2834	0.877	-0.257
Mof_C 	C 	0.4944	0.3738	0.8789	0.143
Mof_H 	H 	0.463	0.4312	0.8547	-0.006
Mof_C 	C 	0.6232	0.2975	0.9448	0.106
Mof_H 	H 	0.6819	0.3022	0.9691	-0.008
Mof_C 	C 	0.5864	0.2042	0.9422	-0.162
Mof_C 	C 	0.4993	0.1972	0.907	0.149
Mof_H 	H 	0.4729	0.1361	0.9032	-0.019
Mof_C 	C 	0.6423	0.1144	0.9782	0.339
Mof_C 	C 	0.1007	0.4524	0.171	0.323
Mof_C 	C 	0.0187	0.4539	0.011	-0.177
Mof_H 	H 	0.0335	0.4325	0.8812	0.056
Mof_H 	H 	0.9781	0.4073	0.0524	0.061
Mof_N 	N 	0.5784	0.3805	0.914	-0.167
Mof_O 	O 	0.3194	0.362	0.7901	-0.587
Mof_O 	O 	0.3204	0.2044	0.8667	-0.609
Mof_O 	O 	0.7187	0.1245	0.0495	-0.465
Mof_O 	O 	0.6102	0.0309	0.937	-0.451
Mof_O 	O 	0.1114	0.5133	0.315	-0.5
Mof_O 	O 	0.151	0.383	0.1606	-0.51
Mof_Pr	Pr	0.25055	0.05996	0.97139	2.147
Mof_C 	C 	0.3567	0.2161	0.3425	0.567
Mof_C 	C 	0.4515	0.2166	0.377	-0.255
Mof_C 	C 	0.4944	0.1262	0.3789	0.144
Mof_H 	H 	0.463	0.0688	0.3547	-0.005
Mof_C 	C 	0.6232	0.2025	0.4448	0.108
Mof_H 	H 	0.6819	0.1978	0.4691	-0.007
Mof_C 	C 	0.5864	0.2958	0.4422	-0.163
Mof_C 	C 	0.4993	0.3028	0.407	0.15
Mof_H 	H 	0.4729	0.3639	0.4032	-0.018
Mof_C 	C 	0.6423	0.3856	0.4782	0.345
Mof_C 	C 	0.1007	0.0476	0.671	0.312
Mof_C 	C 	0.0187	0.0461	0.511	-0.192
Mof_H 	H 	0.0335	0.0675	0.3812	0.064
Mof_H 	H 	0.9781	0.0927	0.5524	0.071
Mof_N 	N 	0.5784	0.1195	0.414	-0.166
Mof_O 	O 	0.3194	0.138	0.2901	-0.58
Mof_O 	O 	0.3204	0.2956	0.3667	-0.61
Mof_O 	O 	0.7187	0.3755	0.5495	-0.476
Mof_O 	O 	0.6102	0.4691	0.437	-0.454
Mof_O 	O 	0.1114	0.9867	0.815	-0.485
Mof_O 	O 	0.151	0.117	0.6606	-0.507
Mof_Pr	Pr	0.74945	0.55996	0.52861	2.184
Mof_C 	C 	0.6433	0.7161	0.1575	0.566
Mof_C 	C 	0.5485	0.7166	0.123	-0.257
Mof_C 	C 	0.5056	0.6262	0.1211	0.143
Mof_H 	H 	0.537	0.5688	0.1453	-0.006
Mof_C 	C 	0.3768	0.7025	0.0552	0.106
Mof_H 	H 	0.3181	0.6978	0.0309	-0.008
Mof_C 	C 	0.4136	0.7958	0.0578	-0.162
Mof_C 	C 	0.5007	0.8028	0.093	0.149
Mof_H 	H 	0.5271	0.8639	0.0968	-0.019
Mof_C 	C 	0.3577	0.8856	0.0218	0.339
Mof_C 	C 	0.8993	0.5476	0.829	0.323
Mof_C 	C 	0.9813	0.5461	0.989	-0.177
Mof_H 	H 	0.9665	0.5675	0.1188	0.056
Mof_H 	H 	0.0219	0.5927	0.9476	0.061
Mof_N 	N 	0.4216	0.6195	0.086	-0.167
Mof_O 	O 	0.6806	0.638	0.2099	-0.587
Mof_O 	O 	0.6796	0.7956	0.1333	-0.609
Mof_O 	O 	0.2813	0.8755	0.9505	-0.465
Mof_O 	O 	0.3898	0.9691	0.063	-0.451
Mof_O 	O 	0.8886	0.4867	0.685	-0.5
Mof_O 	O 	0.849	0.617	0.8394	-0.51
_end
