data_functionalizedCrystal
_audit_creation_method	'EQeq! by Chris Wilmer'
_symmetry_space_group_name_H-M	'P1'
_symmetry_Int_Tables_number	1
_symmetry_cell_setting	triclinic
loop_
_symmetry_equiv_pos_as_xyz
  x,y,z
_cell_length_a	13.543
_cell_length_b	25.778
_cell_length_c	26.753
_cell_angle_alpha	98.786
_cell_angle_beta	103.609
_cell_angle_gamma	103.991
loop_
_atom_site_label
_atom_site_type_symbol
_atom_site_fract_x
_atom_site_fract_y
_atom_site_fract_z
_atom_site_charge
Mof_Ti	Ti	0.48172	0.37793	0.45077	1.479
Mof_Ti	Ti	0.33708	0.42412	0.50916	1.537
Mof_Ti	Ti	0.63295	0.46513	0.54883	1.51
Mof_Ti	Ti	0.31013	0.04186	0.94756	1.47
Mof_Ti	Ti	0.51038	0.02689	0.91868	1.53
Mof_Ti	Ti	0.4989	0.09694	0.04951	1.567
Mof_Ti	Ti	0.61665	0.07497	0.57024	1.593
Mof_Ti	Ti	0.71283	0.05782	0.4773	1.472
Mof_Ti	Ti	0.63648	0.94238	0.50107	1.592
Mof_Ti	Ti	0.94091	0.53294	0.89069	1.487
Mof_Ti	Ti	0.15062	0.53251	0.96811	1.545
Mof_Ti	Ti	0.89921	0.41668	0.91686	1.576
Mof_Cu	Cu	0.32928	0.25904	0.70757	0.724
Mof_Cu	Cu	0.31628	0.2576	0.80509	0.726
Mof_Cu	Cu	0.15883	0.1926	0.71701	0.716
Mof_Cu	Cu	0.18111	0.29645	0.74503	0.72
Mof_I 	I 	0.34821	0.17121	0.74569	-0.653
Mof_I 	I 	0.13038	0.249	0.64296	-0.659
Mof_I 	I 	0.39655	0.35116	0.78029	-0.663
Mof_I 	I 	0.11291	0.23362	0.80611	-0.635
Mof_P 	P 	0.4927	0.51799	0.61071	0.569
Mof_P 	P 	0.711	0.07978	0.02194	0.579
Mof_P 	P 	0.1145	0.41563	7e-05	0.569
Mof_P 	P 	0.5301	0.95759	0.59706	0.609
Mof_N 	N 	0.4141	0.264	0.655	-0.254
Mof_N 	N 	0.4138	0.2599	0.8758	-0.254
Mof_N 	N 	0.0589	0.1154	0.6893	-0.262
Mof_N 	N 	0.1305	0.3641	0.7482	-0.256
Mof_C 	C 	0.4038	0.2961	0.6206	0.108
Mof_H 	H 	0.3617	0.3202	0.6244	-0.022
Mof_C 	C 	0.4498	0.2966	0.5798	-0.234
Mof_C 	C 	0.5061	0.2605	0.5724	0.093
Mof_H 	H 	0.54	0.2605	0.545	-0.03
Mof_C 	C 	0.514	0.223	0.6053	-0.164
Mof_H 	H 	0.549	0.1958	0.5993	0.06
Mof_C 	C 	0.47	0.227	0.646	0.052
Mof_H 	H 	0.4781	0.203	0.6694	-0.014
Mof_C 	C 	0.4312	0.3326	0.5423	0.482
Mof_C 	C 	0.4858	0.5295	0.6772	-0.181
Mof_C 	C 	0.5098	0.5835	0.7063	0.081
Mof_H 	H 	0.5285	0.6135	0.6904	-0.032
Mof_C 	C 	0.506	0.5928	0.7574	-0.195
Mof_H 	H 	0.5287	0.6293	0.7778	0.058
Mof_C 	C 	0.4711	0.5501	0.7794	0.106
Mof_H 	H 	0.4603	0.5567	0.8134	-0.041
Mof_C 	C 	0.4528	0.5012	0.7537	-0.212
Mof_H 	H 	0.435	0.4717	0.7704	0.089
Mof_C 	C 	0.4581	0.4895	0.7017	0.098
Mof_H 	H 	0.4416	0.4524	0.6837	-0.013
Mof_C 	C 	0.2348	0.3425	0.4028	0.567
Mof_C 	C 	0.1974	0.2834	0.4057	-0.841
Mof_H 	H 	0.1329	0.2645	0.3767	0.219
Mof_H 	H 	0.1821	0.2814	0.4395	0.224
Mof_H 	H 	0.2528	0.2657	0.4027	0.227
Mof_C 	C 	0.232	0.3592	0.3557	-0.977
Mof_H 	H 	0.2702	0.3984	0.3632	0.283
Mof_H 	H 	0.1585	0.3529	0.3354	0.255
Mof_H 	H 	0.2668	0.3382	0.3353	0.265
Mof_C 	C 	0.7229	0.3971	0.4708	0.792
Mof_C 	C 	0.7463	0.3511	0.49	-1.136
Mof_H 	H 	0.8076	0.3442	0.4798	0.295
Mof_H 	H 	0.6847	0.3186	0.4749	0.289
Mof_H 	H 	0.7625	0.3591	0.5286	0.297
Mof_C 	C 	0.793	0.4421	0.4659	-1.3
Mof_H 	H 	0.7557	0.4691	0.4567	0.366
Mof_H 	H 	0.825	0.4317	0.4382	0.345
Mof_H 	H 	0.8484	0.4581	0.4994	0.339
Mof_C 	C 	0.5002	0.3015	0.9018	0.08
Mof_H 	H 	0.5119	0.3337	0.8882	-0.023
Mof_C 	C 	0.5714	0.3009	0.9457	-0.181
Mof_H 	H 	0.6312	0.3319	0.9625	0.04
Mof_C 	C 	0.5565	0.2537	0.9666	0.1
Mof_H 	H 	0.6067	0.2518	0.9973	-0.045
Mof_C 	C 	0.4682	0.2107	0.9419	-0.223
Mof_C 	C 	0.4009	0.2145	0.8963	0.104
Mof_H 	H 	0.3419	0.1836	0.8781	-0.03
Mof_C 	C 	0.4432	0.1599	0.9625	0.466
Mof_C 	C 	0.8338	0.1313	0.0321	-0.207
Mof_C 	C 	0.862	0.1598	0.0005	0.112
Mof_H 	H 	0.8123	0.1514	0.9666	-0.025
Mof_C 	C 	0.955	0.2019	0.0085	-0.202
Mof_H 	H 	0.9633	0.221	0.9814	0.073
Mof_C 	C 	0.025	0.2142	0.0502	0.061
Mof_C 	C 	0.989	0.2015	0.0891	-0.182
Mof_H 	H 	0.0202	0.2237	0.1237	0.043
Mof_C 	C 	0.901	0.1522	0.078	0.083
Mof_H 	H 	0.8926	0.1345	0.1061	-0.029
Mof_C 	C 	0.2866	0.988	0.8345	0.728
Mof_C 	C 	0.294	0.9358	0.8158	-1.157
Mof_H 	H 	0.3025	0.9167	0.8448	0.328
Mof_H 	H 	0.3546	0.9391	0.8016	0.317
Mof_H 	H 	0.2285	0.915	0.788	0.306
Mof_C 	C 	0.2806	0.0266	0.801	-1.101
Mof_H 	H 	0.237	0.0071	0.7652	0.307
Mof_H 	H 	0.3522	0.0452	0.8001	0.31
Mof_H 	H 	0.2486	0.0538	0.8149	0.311
Mof_C 	C 	0.2614	0.0865	0.047	0.914
Mof_C 	C 	0.255	0.1457	0.0514	-1.158
Mof_H 	H 	0.2038	0.1512	0.0705	0.327
Mof_H 	H 	0.2328	0.1524	0.016	0.327
Mof_H 	H 	0.3252	0.1712	0.0705	0.316
Mof_C 	C 	0.237	0.0539	0.0778	-1.604
Mof_H 	H 	0.2589	0.0208	0.0691	0.46
Mof_H 	H 	0.1607	0.0439	0.073	0.44
Mof_H 	H 	0.2748	0.0727	0.1146	0.443
Mof_C 	C 	0.0654	0.0801	0.7194	0.075
Mof_H 	H 	0.1128	0.0927	0.754	-0.041
Mof_C 	C 	0.007	0.0254	0.7035	-0.179
Mof_H 	H 	0.0156	0.0007	0.7261	0.052
Mof_C 	C 	0.9362	0.0078	0.654	0.092
Mof_H 	H 	0.8943	0.9706	0.6421	-0.014
Mof_C 	C 	0.9257	0.0445	0.6213	-0.234
Mof_C 	C 	0.9896	0.0973	0.6412	0.091
Mof_H 	H 	0.9844	0.1229	0.6193	-0.034
Mof_C 	C 	0.8464	0.0267	0.5693	0.466
Mof_C 	C 	0.5589	0.935	0.6565	-0.323
Mof_C 	C 	0.66	0.9412	0.6839	0.235
Mof_H 	H 	0.7179	0.9559	0.6709	-0.059
Mof_C 	C 	0.677	0.9244	0.7346	-0.434
Mof_H 	H 	0.7471	0.931	0.7565	0.14
Mof_C 	C 	0.598	0.9009	0.7492	0.438
Mof_H 	H 	0.6096	0.8844	0.7787	-0.169
Mof_C 	C 	0.505	0.8991	0.7252	-0.52
Mof_H 	H 	0.4485	0.8865	0.7399	0.153
Mof_C 	C 	0.484	0.9149	0.6792	0.323
Mof_H 	H 	0.4123	0.9115	0.6618	-0.114
Mof_C 	C 	0.7172	0.951	0.4033	0.855
Mof_H 	H 	0.6827	0.9114	0.4007	-0.252
Mof_C 	C 	0.657	0.9646	0.3534	-1.064
Mof_H 	H 	0.5817	0.9581	0.3526	0.323
Mof_H 	H 	0.6618	0.9411	0.3223	0.326
Mof_H 	H 	0.6872	0.0031	0.3534	0.294
Mof_C 	C 	0.8296	0.9564	0.4115	-1.161
Mof_H 	H 	0.84	0.9359	0.3801	0.345
Mof_H 	H 	0.8556	0.9416	0.442	0.334
Mof_H 	H 	0.8691	0.9951	0.4179	0.322
Mof_C 	C 	0.7173	0.1753	0.5314	1.2
Mof_H 	H 	0.6879	0.1877	0.5606	-0.354
Mof_C 	C 	0.6576	0.1889	0.487	-1.557
Mof_H 	H 	0.5828	0.168	0.4787	0.467
Mof_H 	H 	0.6843	0.18	0.4567	0.425
Mof_H 	H 	0.6645	0.2283	0.4948	0.436
Mof_C 	C 	0.8334	0.2038	0.552	-1.417
Mof_H 	H 	0.8454	0.2434	0.5551	0.403
Mof_H 	H 	0.87	0.1902	0.5277	0.392
Mof_H 	H 	0.861	0.1967	0.5868	0.416
Mof_C 	C 	0.0786	0.379	0.7823	0.098
Mof_H 	H 	0.0542	0.354	0.8025	-0.018
Mof_C 	C 	0.0597	0.4296	0.7889	-0.224
Mof_C 	C 	0.0951	0.4658	0.7602	0.101
Mof_H 	H 	0.0834	0.5009	0.7645	-0.036
Mof_C 	C 	0.1478	0.4506	0.7249	-0.181
Mof_H 	H 	0.1734	0.475	0.7045	0.063
Mof_C 	C 	0.1626	0.3991	0.72	0.081
Mof_H 	H 	0.1975	0.3883	0.695	-0.03
Mof_C 	C 	0.0034	0.4445	0.829	0.471
Mof_C 	C 	0.1881	0.3665	0.0015	-0.167
Mof_C 	C 	0.1859	0.3331	0.9578	0.077
Mof_H 	H 	0.1464	0.3364	0.9246	0.002
Mof_C 	C 	0.2393	0.2938	0.9592	-0.161
Mof_H 	H 	0.2318	0.2687	0.9276	0.076
Mof_C 	C 	0.3004	0.2911	0.0041	0.062
Mof_H 	H 	0.3433	0.2668	0.004	-0.012
Mof_C 	C 	0.3039	0.3224	0.0512	-0.158
Mof_H 	H 	0.3444	0.3187	0.0839	0.05
Mof_C 	C 	0.2448	0.3602	0.0486	0.066
Mof_H 	H 	0.2441	0.382	0.0805	-0.029
Mof_C 	C 	0.1427	0.6331	0.9171	1.257
Mof_C 	C 	0.181	0.6309	0.8719	-1.72
Mof_H 	H 	0.2179	0.668	0.8703	0.471
Mof_H 	H 	0.1212	0.6145	0.84	0.468
Mof_H 	H 	0.2303	0.6085	0.8741	0.467
Mof_C 	C 	0.141	0.6744	0.9528	-2.042
Mof_H 	H 	0.1216	0.6605	0.9824	0.588
Mof_H 	H 	0.0879	0.6917	0.9368	0.572
Mof_H 	H 	0.2107	0.7014	0.9656	0.583
Mof_C 	C 	0.714	0.4471	0.8492	1.226
Mof_H 	H 	0.6885	0.4106	0.8576	-0.347
Mof_C 	C 	0.654	0.4788	0.8721	-1.559
Mof_H 	H 	0.6745	0.4829	0.9105	0.464
Mof_H 	H 	0.578	0.4598	0.8576	0.473
Mof_H 	H 	0.669	0.5151	0.8638	0.442
Mof_C 	C 	0.6985	0.4326	0.7928	-1.544
Mof_H 	H 	0.7399	0.4075	0.7853	0.446
Mof_H 	H 	0.7222	0.4659	0.7801	0.424
Mof_H 	H 	0.6231	0.4147	0.7749	0.469
Mof_O 	O 	0.4733	0.3293	0.5057	-0.549
Mof_O 	O 	0.3742	0.3629	0.5503	-0.511
Mof_O 	O 	0.587	0.4963	0.6084	-0.538
Mof_O 	O 	0.3888	0.4776	0.5773	-0.529
Mof_O 	O 	0.633	0.4083	0.4866	-0.765
Mof_O 	O 	0.5095	0.5744	0.5971	-0.543
Mof_O 	O 	0.3303	0.3707	0.4439	-0.71
Mof_O 	O 	0.3085	0.4746	0.4692	-0.787
Mof_O 	O 	0.4881	0.4365	0.51	-0.773
Mof_O 	O 	0.3653	0.1203	0.9349	-0.531
Mof_O 	O 	0.5047	0.1604	0.0061	-0.514
Mof_O 	O 	0.6565	0.0652	0.9635	-0.546
Mof_O 	O 	0.6475	0.1044	0.0538	-0.542
Mof_O 	O 	0.3532	0.0135	0.8866	-0.766
Mof_O 	O 	0.3387	0.0795	0.0216	-0.799
Mof_O 	O 	0.4851	0.0408	0.0856	-0.794
Mof_O 	O 	0.4617	0.0509	0.9771	-0.778
Mof_O 	O 	0.7399	0.0313	0.0408	-0.545
Mof_O 	O 	0.4934	0.0875	0.5504	-0.779
Mof_O 	O 	0.7856	0.979	0.559	-0.52
Mof_O 	O 	0.8432	0.0611	0.5405	-0.53
Mof_O 	O 	0.4106	0.9429	0.5775	-0.544
Mof_O 	O 	0.5814	0.0192	0.6104	-0.552
Mof_O 	O 	0.5765	0.9279	0.5591	-0.543
Mof_O 	O 	0.6928	0.117	0.526	-0.84
Mof_O 	O 	0.7015	0.9804	0.4506	-0.747
Mof_O 	O 	0.6298	0.0193	0.5189	-0.788
Mof_O 	O 	0.9726	0.4089	0.8533	-0.508
Mof_O 	O 	0.9913	0.4913	0.8335	-0.551
Mof_O 	O 	0.1028	0.4277	0.0553	-0.547
Mof_O 	O 	0.1802	0.4669	0.9883	-0.549
Mof_O 	O 	0.0091	0.3899	0.9584	-0.533
Mof_O 	O 	0.8262	0.4646	0.8781	-0.82
Mof_O 	O 	0.0901	0.5789	0.9212	-0.872
Mof_O 	O 	0.166	0.5733	0.0296	-0.789
Mof_O 	O 	0.0072	0.4907	0.9375	-0.774
Mof_Ti	Ti	0.51828	0.62207	0.54923	1.478
Mof_Ti	Ti	0.66292	0.57588	0.49084	1.536
Mof_Ti	Ti	0.36705	0.53487	0.45117	1.51
Mof_Ti	Ti	0.68987	0.95814	0.05244	1.47
Mof_Ti	Ti	0.48962	0.97311	0.08132	1.53
Mof_Ti	Ti	0.5011	0.90306	0.95049	1.567
Mof_Ti	Ti	0.38335	0.92503	0.42976	1.593
Mof_Ti	Ti	0.28717	0.94218	0.5227	1.472
Mof_Ti	Ti	0.36352	0.05762	0.49893	1.592
Mof_Ti	Ti	0.05909	0.46706	0.10931	1.487
Mof_Ti	Ti	0.84938	0.46749	0.03189	1.545
Mof_Ti	Ti	0.10079	0.58332	0.08314	1.576
Mof_Cu	Cu	0.67072	0.74096	0.29243	0.724
Mof_Cu	Cu	0.68372	0.7424	0.19491	0.726
Mof_Cu	Cu	0.84117	0.8074	0.28299	0.716
Mof_Cu	Cu	0.81889	0.70355	0.25497	0.72
Mof_I 	I 	0.65179	0.82879	0.25431	-0.653
Mof_I 	I 	0.86962	0.751	0.35704	-0.659
Mof_I 	I 	0.60345	0.64884	0.21971	-0.663
Mof_I 	I 	0.88709	0.76638	0.19389	-0.635
Mof_P 	P 	0.5073	0.48201	0.38929	0.569
Mof_P 	P 	0.289	0.92022	0.97806	0.579
Mof_P 	P 	0.8855	0.58437	0.99993	0.569
Mof_P 	P 	0.4699	0.04241	0.40294	0.609
Mof_N 	N 	0.5859	0.736	0.345	-0.254
Mof_N 	N 	0.5862	0.7401	0.1242	-0.254
Mof_N 	N 	0.9411	0.8846	0.3107	-0.262
Mof_N 	N 	0.8695	0.6359	0.2518	-0.256
Mof_C 	C 	0.5962	0.7039	0.3794	0.108
Mof_H 	H 	0.6383	0.6798	0.3756	-0.022
Mof_C 	C 	0.5502	0.7034	0.4202	-0.234
Mof_C 	C 	0.4939	0.7395	0.4276	0.093
Mof_H 	H 	0.46	0.7395	0.455	-0.03
Mof_C 	C 	0.486	0.777	0.3947	-0.164
Mof_H 	H 	0.451	0.8042	0.4007	0.06
Mof_C 	C 	0.53	0.773	0.354	0.052
Mof_H 	H 	0.5219	0.797	0.3306	-0.014
Mof_C 	C 	0.5688	0.6674	0.4577	0.482
Mof_C 	C 	0.5142	0.4705	0.3228	-0.181
Mof_C 	C 	0.4902	0.4165	0.2937	0.081
Mof_H 	H 	0.4715	0.3865	0.3096	-0.032
Mof_C 	C 	0.494	0.4072	0.2426	-0.195
Mof_H 	H 	0.4713	0.3707	0.2222	0.058
Mof_C 	C 	0.5289	0.4499	0.2206	0.106
Mof_H 	H 	0.5397	0.4433	0.1866	-0.041
Mof_C 	C 	0.5472	0.4988	0.2463	-0.212
Mof_H 	H 	0.565	0.5283	0.2296	0.089
Mof_C 	C 	0.5419	0.5105	0.2983	0.098
Mof_H 	H 	0.5584	0.5476	0.3163	-0.013
Mof_C 	C 	0.7652	0.6575	0.5972	0.567
Mof_C 	C 	0.8026	0.7166	0.5943	-0.841
Mof_H 	H 	0.8671	0.7355	0.6233	0.219
Mof_H 	H 	0.8179	0.7186	0.5605	0.224
Mof_H 	H 	0.7472	0.7343	0.5973	0.227
Mof_C 	C 	0.768	0.6408	0.6443	-0.977
Mof_H 	H 	0.7298	0.6016	0.6368	0.283
Mof_H 	H 	0.8415	0.6471	0.6646	0.255
Mof_H 	H 	0.7332	0.6618	0.6647	0.265
Mof_C 	C 	0.2771	0.6029	0.5292	0.792
Mof_C 	C 	0.2537	0.6489	0.51	-1.136
Mof_H 	H 	0.1924	0.6558	0.5202	0.295
Mof_H 	H 	0.3153	0.6814	0.5251	0.289
Mof_H 	H 	0.2375	0.6409	0.4714	0.297
Mof_C 	C 	0.207	0.5579	0.5341	-1.3
Mof_H 	H 	0.2443	0.5309	0.5433	0.366
Mof_H 	H 	0.175	0.5683	0.5618	0.345
Mof_H 	H 	0.1516	0.5419	0.5006	0.339
Mof_C 	C 	0.4998	0.6985	0.0982	0.08
Mof_H 	H 	0.4881	0.6663	0.1118	-0.023
Mof_C 	C 	0.4286	0.6991	0.0543	-0.181
Mof_H 	H 	0.3688	0.6681	0.0375	0.04
Mof_C 	C 	0.4435	0.7463	0.0334	0.1
Mof_H 	H 	0.3933	0.7482	0.0027	-0.045
Mof_C 	C 	0.5318	0.7893	0.0581	-0.223
Mof_C 	C 	0.5991	0.7855	0.1037	0.104
Mof_H 	H 	0.6581	0.8164	0.1219	-0.03
Mof_C 	C 	0.5568	0.8401	0.0375	0.466
Mof_C 	C 	0.1662	0.8687	0.9679	-0.207
Mof_C 	C 	0.138	0.8402	0.9995	0.112
Mof_H 	H 	0.1877	0.8486	0.0334	-0.025
Mof_C 	C 	0.045	0.7981	0.9915	-0.202
Mof_H 	H 	0.0367	0.779	0.0186	0.073
Mof_C 	C 	0.975	0.7858	0.9498	0.061
Mof_C 	C 	0.011	0.7985	0.9109	-0.182
Mof_H 	H 	0.9798	0.7763	0.8763	0.043
Mof_C 	C 	0.099	0.8478	0.922	0.083
Mof_H 	H 	0.1074	0.8655	0.8939	-0.029
Mof_C 	C 	0.7134	0.012	0.1655	0.728
Mof_C 	C 	0.706	0.0642	0.1842	-1.157
Mof_H 	H 	0.6975	0.0833	0.1552	0.328
Mof_H 	H 	0.6454	0.0609	0.1984	0.317
Mof_H 	H 	0.7715	0.085	0.212	0.306
Mof_C 	C 	0.7194	0.9734	0.199	-1.101
Mof_H 	H 	0.763	0.9929	0.2348	0.307
Mof_H 	H 	0.6478	0.9548	0.1999	0.31
Mof_H 	H 	0.7514	0.9462	0.1851	0.311
Mof_C 	C 	0.7386	0.9135	0.953	0.914
Mof_C 	C 	0.745	0.8543	0.9486	-1.158
Mof_H 	H 	0.7962	0.8488	0.9295	0.327
Mof_H 	H 	0.7672	0.8476	0.984	0.327
Mof_H 	H 	0.6748	0.8288	0.9295	0.316
Mof_C 	C 	0.763	0.9461	0.9222	-1.604
Mof_H 	H 	0.7411	0.9792	0.9309	0.46
Mof_H 	H 	0.8393	0.9561	0.927	0.44
Mof_H 	H 	0.7252	0.9273	0.8854	0.443
Mof_C 	C 	0.9346	0.9199	0.2806	0.075
Mof_H 	H 	0.8872	0.9073	0.246	-0.041
Mof_C 	C 	0.993	0.9746	0.2965	-0.179
Mof_H 	H 	0.9844	0.9993	0.2739	0.052
Mof_C 	C 	0.0638	0.9922	0.346	0.092
Mof_H 	H 	0.1057	0.0294	0.3579	-0.014
Mof_C 	C 	0.0743	0.9555	0.3787	-0.234
Mof_C 	C 	0.0104	0.9027	0.3588	0.091
Mof_H 	H 	0.0156	0.8771	0.3807	-0.034
Mof_C 	C 	0.1536	0.9733	0.4307	0.466
Mof_C 	C 	0.4411	0.065	0.3435	-0.323
Mof_C 	C 	0.34	0.0588	0.3161	0.235
Mof_H 	H 	0.2821	0.0441	0.3291	-0.059
Mof_C 	C 	0.323	0.0756	0.2654	-0.434
Mof_H 	H 	0.2529	0.069	0.2435	0.14
Mof_C 	C 	0.402	0.0991	0.2508	0.438
Mof_H 	H 	0.3904	0.1156	0.2213	-0.169
Mof_C 	C 	0.495	0.1009	0.2748	-0.52
Mof_H 	H 	0.5515	0.1135	0.2601	0.153
Mof_C 	C 	0.516	0.0851	0.3208	0.323
Mof_H 	H 	0.5877	0.0885	0.3382	-0.114
Mof_C 	C 	0.2828	0.049	0.5967	0.855
Mof_H 	H 	0.3173	0.0886	0.5993	-0.252
Mof_C 	C 	0.343	0.0354	0.6466	-1.064
Mof_H 	H 	0.4183	0.0419	0.6474	0.323
Mof_H 	H 	0.3382	0.0589	0.6777	0.326
Mof_H 	H 	0.3128	0.9969	0.6466	0.294
Mof_C 	C 	0.1704	0.0436	0.5885	-1.161
Mof_H 	H 	0.16	0.0641	0.6199	0.345
Mof_H 	H 	0.1444	0.0584	0.558	0.334
Mof_H 	H 	0.1309	0.0049	0.5821	0.322
Mof_C 	C 	0.2827	0.8247	0.4686	1.2
Mof_H 	H 	0.3121	0.8123	0.4394	-0.354
Mof_C 	C 	0.3424	0.8111	0.513	-1.557
Mof_H 	H 	0.4172	0.832	0.5213	0.467
Mof_H 	H 	0.3157	0.82	0.5433	0.425
Mof_H 	H 	0.3355	0.7717	0.5052	0.436
Mof_C 	C 	0.1666	0.7962	0.448	-1.417
Mof_H 	H 	0.1546	0.7566	0.4449	0.403
Mof_H 	H 	0.13	0.8098	0.4723	0.392
Mof_H 	H 	0.139	0.8033	0.4132	0.416
Mof_C 	C 	0.9214	0.621	0.2177	0.098
Mof_H 	H 	0.9458	0.646	0.1975	-0.018
Mof_C 	C 	0.9403	0.5704	0.2111	-0.224
Mof_C 	C 	0.9049	0.5342	0.2398	0.101
Mof_H 	H 	0.9166	0.4991	0.2355	-0.036
Mof_C 	C 	0.8522	0.5494	0.2751	-0.181
Mof_H 	H 	0.8266	0.525	0.2955	0.063
Mof_C 	C 	0.8374	0.6009	0.28	0.081
Mof_H 	H 	0.8025	0.6117	0.305	-0.03
Mof_C 	C 	0.9966	0.5555	0.171	0.471
Mof_C 	C 	0.8119	0.6335	0.9985	-0.167
Mof_C 	C 	0.8141	0.6669	0.0422	0.077
Mof_H 	H 	0.8536	0.6636	0.0754	0.002
Mof_C 	C 	0.7607	0.7062	0.0408	-0.161
Mof_H 	H 	0.7682	0.7313	0.0724	0.076
Mof_C 	C 	0.6996	0.7089	0.9959	0.062
Mof_H 	H 	0.6567	0.7332	0.996	-0.012
Mof_C 	C 	0.6961	0.6776	0.9488	-0.158
Mof_H 	H 	0.6556	0.6813	0.9161	0.05
Mof_C 	C 	0.7552	0.6398	0.9514	0.066
Mof_H 	H 	0.7559	0.618	0.9195	-0.029
Mof_C 	C 	0.8573	0.3669	0.0829	1.257
Mof_C 	C 	0.819	0.3691	0.1281	-1.72
Mof_H 	H 	0.7821	0.332	0.1297	0.471
Mof_H 	H 	0.8788	0.3855	0.16	0.468
Mof_H 	H 	0.7697	0.3915	0.1259	0.467
Mof_C 	C 	0.859	0.3256	0.0472	-2.042
Mof_H 	H 	0.8784	0.3395	0.0176	0.588
Mof_H 	H 	0.9121	0.3083	0.0632	0.572
Mof_H 	H 	0.7893	0.2986	0.0344	0.583
Mof_C 	C 	0.286	0.5529	0.1508	1.226
Mof_H 	H 	0.3115	0.5894	0.1424	-0.347
Mof_C 	C 	0.346	0.5212	0.1279	-1.559
Mof_H 	H 	0.3255	0.5171	0.0895	0.464
Mof_H 	H 	0.422	0.5402	0.1424	0.473
Mof_H 	H 	0.331	0.4849	0.1362	0.442
Mof_C 	C 	0.3015	0.5674	0.2072	-1.544
Mof_H 	H 	0.2601	0.5925	0.2147	0.446
Mof_H 	H 	0.2778	0.5341	0.2199	0.424
Mof_H 	H 	0.3769	0.5853	0.2251	0.469
Mof_O 	O 	0.5267	0.6707	0.4943	-0.549
Mof_O 	O 	0.6258	0.6371	0.4497	-0.511
Mof_O 	O 	0.413	0.5037	0.3916	-0.538
Mof_O 	O 	0.6112	0.5224	0.4227	-0.529
Mof_O 	O 	0.367	0.5917	0.5134	-0.765
Mof_O 	O 	0.4905	0.4256	0.4029	-0.543
Mof_O 	O 	0.6697	0.6293	0.5561	-0.71
Mof_O 	O 	0.6915	0.5254	0.5308	-0.787
Mof_O 	O 	0.5119	0.5635	0.49	-0.773
Mof_O 	O 	0.6347	0.8797	0.0651	-0.531
Mof_O 	O 	0.4953	0.8396	0.9939	-0.514
Mof_O 	O 	0.3435	0.9348	0.0365	-0.546
Mof_O 	O 	0.3525	0.8956	0.9462	-0.542
Mof_O 	O 	0.6468	0.9865	0.1134	-0.766
Mof_O 	O 	0.6613	0.9205	0.9784	-0.799
Mof_O 	O 	0.5149	0.9592	0.9144	-0.794
Mof_O 	O 	0.5383	0.9491	0.0229	-0.778
Mof_O 	O 	0.2601	0.9687	0.9592	-0.545
Mof_O 	O 	0.5066	0.9125	0.4496	-0.779
Mof_O 	O 	0.2144	0.021	0.441	-0.52
Mof_O 	O 	0.1568	0.9389	0.4595	-0.53
Mof_O 	O 	0.5894	0.0571	0.4225	-0.544
Mof_O 	O 	0.4186	0.9808	0.3896	-0.552
Mof_O 	O 	0.4235	0.0721	0.4409	-0.543
Mof_O 	O 	0.3072	0.883	0.474	-0.84
Mof_O 	O 	0.2985	0.0196	0.5494	-0.747
Mof_O 	O 	0.3702	0.9807	0.4811	-0.788
Mof_O 	O 	0.0274	0.5911	0.1467	-0.508
Mof_O 	O 	0.0087	0.5087	0.1665	-0.551
Mof_O 	O 	0.8972	0.5723	0.9447	-0.547
Mof_O 	O 	0.8198	0.5331	0.0117	-0.549
Mof_O 	O 	0.9909	0.6101	0.0416	-0.533
Mof_O 	O 	0.1738	0.5354	0.1219	-0.82
Mof_O 	O 	0.9099	0.4211	0.0788	-0.872
Mof_O 	O 	0.834	0.4267	0.9704	-0.789
Mof_O 	O 	0.9928	0.5093	0.0625	-0.774
_end
