data_functionalizedCrystal
_audit_creation_method	'EQeq! by Chris Wilmer'
_symmetry_space_group_name_H-M	'P1'
_symmetry_Int_Tables_number	1
_symmetry_cell_setting	triclinic
loop_
_symmetry_equiv_pos_as_xyz
  x,y,z
_cell_length_a	16.2825
_cell_length_b	33.8405
_cell_length_c	16.9649
_cell_angle_alpha	90
_cell_angle_beta	90
_cell_angle_gamma	90
loop_
_atom_site_label
_atom_site_type_symbol
_atom_site_fract_x
_atom_site_fract_y
_atom_site_fract_z
_atom_site_charge
Mof_Eu	Eu	0.48219	0.55374	0.44509	2.174
Mof_Zn	Zn	0.73878	0.49086	0.71149	1.189
Mof_Zn	Zn	0.56346	0.66557	0.17236	1.162
Mof_Zn	Zn	0.26818	0.65983	0.93124	1.202
Mof_O 	O 	0.5659	0.51502	0.5324	-0.682
Mof_O 	O 	0.6398	0.47992	0.6137	-0.605
Mof_O 	O 	0.5983	0.58773	0.4532	-0.591
Mof_O 	O 	0.678	0.63899	0.4838	-0.472
Mof_O 	O 	0.4631	0.58714	0.3314	-0.579
Mof_O 	O 	0.4848	0.6414	0.262	-0.497
Mof_O 	O 	0.5595	0.51717	0.3577	-0.533
Mof_O 	O 	0.6714	0.49498	0.2989	-0.473
Mof_O 	O 	0.6194	0.7086	0.953	-0.616
Mof_O 	O 	0.632	0.6882	0.0775	-0.501
Mof_O 	O 	0.4848	0.7089	0.8448	-0.577
Mof_O 	O 	0.3662	0.67648	0.8482	-0.434
Mof_O 	O 	0.6309	0.7073	0.7564	-0.626
Mof_O 	O 	0.686	0.66354	0.6738	-0.422
Mof_N 	N 	0.7476	0.5393	0.6442	-0.306
Mof_N 	N 	0.763	0.59885	0.5902	-0.276
Mof_N 	N 	0.6223	0.61401	0.1954	-0.297
Mof_N 	N 	0.6933	0.55866	0.209	-0.299
Mof_N 	N 	0.4721	0.6726	0.094	-0.302
Mof_N 	N 	0.3697	0.6673	0.0059	-0.284
Mof_N 	N 	0.7265	0.71667	0.5664	-0.305
Mof_N 	N 	0.6491	0.4819	0.7952	-0.274
Mof_N 	N 	0.3462	0.4241	0.076	-0.144
Mof_C 	C 	0.6276	0.5121	0.5767	0.39
Mof_C 	C 	0.6873	0.5438	0.5867	-0.085
Mof_C 	C 	0.6989	0.581	0.5539	-0.076
Mof_C 	C 	0.6542	0.6042	0.4936	0.405
Mof_C 	C 	0.7905	0.573	0.6435	0.332
Mof_C 	C 	0.8631	0.5812	0.6954	-0.909
Mof_H 	H 	0.9128	0.5779	0.6656	0.289
Mof_H 	H 	0.863	0.5631	0.7391	0.286
Mof_H 	H 	0.8601	0.6078	0.7148	0.293
Mof_C 	C 	0.505	0.6069	0.2837	0.399
Mof_C 	C 	0.5829	0.591	0.2502	-0.078
Mof_C 	C 	0.6263	0.5572	0.2602	-0.073
Mof_C 	C 	0.6167	0.521	0.3091	0.396
Mof_C 	C 	0.689	0.593	0.1726	0.281
Mof_C 	C 	0.7513	0.609	0.1164	-0.73
Mof_H 	H 	0.7809	0.6302	0.1411	0.208
Mof_H 	H 	0.7242	0.6187	0.0701	0.223
Mof_H 	H 	0.789	0.5884	0.102	0.186
Mof_C 	C 	0.5892	0.6954	0.0156	0.411
Mof_C 	C 	0.501	0.6852	0.0204	-0.116
Mof_C 	C 	0.438	0.6819	0.9672	-0.089
Mof_C 	C 	0.4303	0.6897	0.8818	0.396
Mof_C 	C 	0.392	0.6632	0.0814	0.272
Mof_C 	C 	0.334	0.6511	0.1459	-0.821
Mof_H 	H 	0.3155	0.6742	0.1736	0.217
Mof_H 	H 	0.3617	0.6338	0.1819	0.266
Mof_H 	H 	0.2876	0.6377	0.1234	0.254
Mof_C 	C 	0.6682	0.6985	0.6927	0.417
Mof_C 	C 	0.6922	0.7293	0.6359	-0.088
Mof_C 	C 	0.5729	0.499	0.7965	0.09
Mof_H 	H 	0.5611	0.5183	0.7592	-0.031
Mof_C 	C 	0.5133	0.4891	0.85	-0.141
Mof_H 	H 	0.4621	0.5013	0.8481	0.06
Mof_C 	C 	0.5297	0.4609	0.9068	0.063
Mof_C 	C 	0.6091	0.4459	0.9086	-0.158
Mof_H 	H 	0.6248	0.4289	0.949	0.071
Mof_C 	C 	0.6639	0.4559	0.8515	0.09
Mof_H 	H 	0.715	0.4436	0.8522	-0.032
Mof_C 	C 	0.336	0.4552	0.029	0.056
Mof_H 	H 	0.2869	0.469	0.0335	-0.009
Mof_C 	C 	0.3918	0.4686	0.9746	-0.122
Mof_H 	H 	0.38	0.4908	0.9441	0.05
Mof_C 	C 	0.467	0.4485	0.9652	0.029
Mof_C 	C 	0.4789	0.4165	0.0151	-0.127
Mof_H 	H 	0.5282	0.4028	0.0125	0.057
Mof_C 	C 	0.4197	0.4043	0.0686	0.043
Mof_H 	H 	0.4298	0.3823	0.1001	0.008
Mof_H 	H 	0.7867	0.7766	0.4251	0.241
Mof_H 	H 	0.8376	0.7388	0.4469	0.245
Mof_H 	H 	0.7501	0.7345	0.4095	0.233
Mof_Eu	Eu	0.01781	0.44626	0.94509	2.164
Mof_Zn	Zn	0.76122	0.50914	0.21149	1.19
Mof_Zn	Zn	0.93654	0.33443	0.67236	1.164
Mof_Zn	Zn	0.23182	0.34017	0.43124	1.204
Mof_O 	O 	0.9341	0.48498	0.0324	-0.681
Mof_O 	O 	0.8602	0.52008	0.1137	-0.603
Mof_O 	O 	0.9017	0.41227	0.9532	-0.588
Mof_O 	O 	0.822	0.36101	0.9838	-0.471
Mof_O 	O 	0.0369	0.41286	0.8314	-0.582
Mof_O 	O 	0.0152	0.3586	0.762	-0.501
Mof_O 	O 	0.9405	0.48283	0.8577	-0.529
Mof_O 	O 	0.8286	0.50502	0.7989	-0.472
Mof_O 	O 	0.8806	0.2914	0.453	-0.617
Mof_O 	O 	0.868	0.3118	0.5775	-0.501
Mof_O 	O 	0.0152	0.2911	0.3448	-0.574
Mof_O 	O 	0.1338	0.32352	0.3482	-0.433
Mof_O 	O 	0.8691	0.2927	0.2564	-0.627
Mof_O 	O 	0.814	0.33646	0.1738	-0.423
Mof_N 	N 	0.7524	0.4607	0.1442	-0.306
Mof_N 	N 	0.737	0.40115	0.0902	-0.275
Mof_N 	N 	0.8777	0.38599	0.6954	-0.297
Mof_N 	N 	0.8067	0.44134	0.709	-0.299
Mof_N 	N 	0.0279	0.3274	0.594	-0.302
Mof_N 	N 	0.1303	0.3327	0.5059	-0.285
Mof_N 	N 	0.7735	0.28333	0.0664	-0.305
Mof_N 	N 	0.8509	0.5181	0.2952	-0.275
Mof_N 	N 	0.1538	0.5759	0.576	-0.144
Mof_C 	C 	0.8724	0.4879	0.0767	0.389
Mof_C 	C 	0.8127	0.4562	0.0867	-0.084
Mof_C 	C 	0.8011	0.419	0.0539	-0.08
Mof_C 	C 	0.8458	0.3958	0.9936	0.408
Mof_C 	C 	0.7095	0.427	0.1435	0.331
Mof_C 	C 	0.6369	0.4188	0.1954	-0.906
Mof_H 	H 	0.5872	0.4221	0.1656	0.287
Mof_H 	H 	0.637	0.4369	0.2391	0.284
Mof_H 	H 	0.6399	0.3922	0.2148	0.291
Mof_C 	C 	0.995	0.3931	0.7837	0.407
Mof_C 	C 	0.9171	0.409	0.7502	-0.079
Mof_C 	C 	0.8737	0.4428	0.7602	-0.071
Mof_C 	C 	0.8833	0.479	0.8091	0.394
Mof_C 	C 	0.811	0.407	0.6726	0.281
Mof_C 	C 	0.7487	0.391	0.6164	-0.731
Mof_H 	H 	0.7191	0.3698	0.6411	0.209
Mof_H 	H 	0.7758	0.3813	0.5701	0.224
Mof_H 	H 	0.711	0.4116	0.602	0.186
Mof_C 	C 	0.9108	0.3046	0.5156	0.414
Mof_C 	C 	0.999	0.3148	0.5204	-0.119
Mof_C 	C 	0.062	0.3181	0.4672	-0.086
Mof_C 	C 	0.0697	0.3103	0.3818	0.395
Mof_C 	C 	0.108	0.3368	0.5814	0.271
Mof_C 	C 	0.166	0.3489	0.6459	-0.82
Mof_H 	H 	0.1845	0.3258	0.6736	0.217
Mof_H 	H 	0.1383	0.3662	0.6819	0.265
Mof_H 	H 	0.2124	0.3623	0.6234	0.253
Mof_C 	C 	0.8318	0.3015	0.1927	0.417
Mof_C 	C 	0.8078	0.2707	0.1359	-0.088
Mof_C 	C 	0.9271	0.501	0.2965	0.092
Mof_H 	H 	0.9389	0.4817	0.2592	-0.032
Mof_C 	C 	0.9867	0.5109	0.35	-0.146
Mof_H 	H 	0.0379	0.4987	0.3481	0.063
Mof_C 	C 	0.9703	0.5391	0.4068	0.065
Mof_C 	C 	0.8909	0.5541	0.4086	-0.159
Mof_H 	H 	0.8752	0.5711	0.449	0.071
Mof_C 	C 	0.8361	0.5441	0.3515	0.09
Mof_H 	H 	0.785	0.5564	0.3522	-0.033
Mof_C 	C 	0.164	0.5448	0.529	0.053
Mof_H 	H 	0.2131	0.531	0.5335	-0.009
Mof_C 	C 	0.1082	0.5314	0.4746	-0.118
Mof_H 	H 	0.12	0.5092	0.4441	0.05
Mof_C 	C 	0.033	0.5515	0.4652	0.029
Mof_C 	C 	0.0211	0.5835	0.5151	-0.129
Mof_H 	H 	0.9718	0.5972	0.5125	0.059
Mof_C 	C 	0.0803	0.5957	0.5686	0.043
Mof_H 	H 	0.0702	0.6177	0.6001	0.007
Mof_H 	H 	0.7133	0.2234	0.9251	0.239
Mof_H 	H 	0.6624	0.2612	0.9469	0.243
Mof_H 	H 	0.7499	0.2655	0.9095	0.232
Mof_Eu	Eu	0.51781	0.05374	0.55491	2.175
Mof_Zn	Zn	0.26122	0.99086	0.28851	1.19
Mof_Zn	Zn	0.43654	0.16557	0.82764	1.163
Mof_Zn	Zn	0.73182	0.15983	0.06876	1.204
Mof_O 	O 	0.4341	0.01502	0.4676	-0.681
Mof_O 	O 	0.3602	0.97992	0.3863	-0.604
Mof_O 	O 	0.4017	0.08773	0.5468	-0.591
Mof_O 	O 	0.322	0.13899	0.5162	-0.472
Mof_O 	O 	0.5369	0.08714	0.6686	-0.579
Mof_O 	O 	0.5152	0.1414	0.738	-0.497
Mof_O 	O 	0.4405	0.01717	0.6423	-0.533
Mof_O 	O 	0.3286	0.99498	0.7011	-0.472
Mof_O 	O 	0.3806	0.2086	0.047	-0.616
Mof_O 	O 	0.368	0.1882	0.9225	-0.501
Mof_O 	O 	0.5152	0.2089	0.1552	-0.577
Mof_O 	O 	0.6338	0.17648	0.1518	-0.434
Mof_O 	O 	0.3691	0.2073	0.2436	-0.626
Mof_O 	O 	0.314	0.16354	0.3262	-0.422
Mof_N 	N 	0.2524	0.0393	0.3558	-0.306
Mof_N 	N 	0.237	0.09885	0.4098	-0.276
Mof_N 	N 	0.3777	0.11401	0.8046	-0.297
Mof_N 	N 	0.3067	0.05866	0.791	-0.299
Mof_N 	N 	0.5279	0.1726	0.906	-0.302
Mof_N 	N 	0.6303	0.1673	0.9941	-0.285
Mof_N 	N 	0.2735	0.21667	0.4336	-0.305
Mof_N 	N 	0.3509	0.9819	0.2048	-0.274
Mof_N 	N 	0.6538	0.9241	0.924	-0.144
Mof_C 	C 	0.3724	0.0121	0.4233	0.39
Mof_C 	C 	0.3127	0.0438	0.4133	-0.085
Mof_C 	C 	0.3011	0.081	0.4461	-0.076
Mof_C 	C 	0.3458	0.1042	0.5064	0.405
Mof_C 	C 	0.2095	0.073	0.3565	0.332
Mof_C 	C 	0.1369	0.0812	0.3046	-0.909
Mof_H 	H 	0.0872	0.0779	0.3344	0.289
Mof_H 	H 	0.137	0.0631	0.2609	0.286
Mof_H 	H 	0.1399	0.1078	0.2852	0.293
Mof_C 	C 	0.495	0.1069	0.7163	0.4
Mof_C 	C 	0.4171	0.091	0.7498	-0.078
Mof_C 	C 	0.3737	0.0572	0.7398	-0.073
Mof_C 	C 	0.3833	0.021	0.6909	0.395
Mof_C 	C 	0.311	0.093	0.8274	0.281
Mof_C 	C 	0.2487	0.109	0.8836	-0.73
Mof_H 	H 	0.2191	0.1302	0.8589	0.208
Mof_H 	H 	0.2758	0.1187	0.9299	0.223
Mof_H 	H 	0.211	0.0884	0.898	0.186
Mof_C 	C 	0.4108	0.1954	0.9844	0.411
Mof_C 	C 	0.499	0.1852	0.9796	-0.117
Mof_C 	C 	0.562	0.1819	0.0328	-0.088
Mof_C 	C 	0.5697	0.1897	0.1182	0.396
Mof_C 	C 	0.608	0.1632	0.9186	0.272
Mof_C 	C 	0.666	0.1511	0.8541	-0.821
Mof_H 	H 	0.6845	0.1742	0.8264	0.217
Mof_H 	H 	0.6383	0.1338	0.8181	0.266
Mof_H 	H 	0.7124	0.1377	0.8766	0.254
Mof_C 	C 	0.3318	0.1985	0.3073	0.417
Mof_C 	C 	0.3078	0.2293	0.3641	-0.088
Mof_C 	C 	0.4271	0.999	0.2035	0.089
Mof_H 	H 	0.4389	0.0183	0.2408	-0.03
Mof_C 	C 	0.4867	0.9891	0.15	-0.143
Mof_H 	H 	0.5379	0.0013	0.1519	0.061
Mof_C 	C 	0.4703	0.9609	0.0932	0.064
Mof_C 	C 	0.3909	0.9459	0.0914	-0.158
Mof_H 	H 	0.3752	0.9289	0.051	0.071
Mof_C 	C 	0.3361	0.9559	0.1485	0.09
Mof_H 	H 	0.285	0.9436	0.1478	-0.033
Mof_C 	C 	0.664	0.9552	0.971	0.058
Mof_H 	H 	0.7131	0.969	0.9665	-0.009
Mof_C 	C 	0.6082	0.9686	0.0254	-0.123
Mof_H 	H 	0.62	0.9908	0.0559	0.05
Mof_C 	C 	0.533	0.9485	0.0348	0.028
Mof_C 	C 	0.5211	0.9165	0.9849	-0.125
Mof_H 	H 	0.4718	0.9028	0.9875	0.057
Mof_C 	C 	0.5803	0.9043	0.9314	0.042
Mof_H 	H 	0.5702	0.8823	0.8999	0.008
Mof_H 	H 	0.2133	0.2766	0.5749	0.241
Mof_H 	H 	0.1624	0.2388	0.5531	0.245
Mof_H 	H 	0.2499	0.2345	0.5905	0.233
Mof_Eu	Eu	0.98219	0.94626	0.05491	2.162
Mof_Zn	Zn	0.23878	0.00914	0.78851	1.19
Mof_Zn	Zn	0.06346	0.83443	0.32764	1.164
Mof_Zn	Zn	0.76818	0.84017	0.56876	1.204
Mof_O 	O 	0.0659	0.98498	0.9676	-0.68
Mof_O 	O 	0.1398	0.02008	0.8863	-0.604
Mof_O 	O 	0.0983	0.91227	0.0468	-0.588
Mof_O 	O 	0.178	0.86101	0.0162	-0.471
Mof_O 	O 	0.9631	0.91286	0.1686	-0.581
Mof_O 	O 	0.9848	0.8586	0.238	-0.501
Mof_O 	O 	0.0595	0.98283	0.1423	-0.529
Mof_O 	O 	0.1714	0.00502	0.2011	-0.471
Mof_O 	O 	0.1194	0.7914	0.547	-0.617
Mof_O 	O 	0.132	0.8118	0.4225	-0.501
Mof_O 	O 	0.9848	0.7911	0.6552	-0.574
Mof_O 	O 	0.8662	0.82352	0.6518	-0.433
Mof_O 	O 	0.1309	0.7927	0.7436	-0.627
Mof_O 	O 	0.186	0.83646	0.8262	-0.423
Mof_N 	N 	0.2476	0.9607	0.8558	-0.306
Mof_N 	N 	0.263	0.90115	0.9098	-0.275
Mof_N 	N 	0.1223	0.88599	0.3046	-0.297
Mof_N 	N 	0.1933	0.94134	0.291	-0.299
Mof_N 	N 	0.9721	0.8274	0.406	-0.302
Mof_N 	N 	0.8697	0.8327	0.4941	-0.285
Mof_N 	N 	0.2265	0.78333	0.9336	-0.305
Mof_N 	N 	0.1491	0.0181	0.7048	-0.275
Mof_N 	N 	0.8462	0.0759	0.424	-0.144
Mof_C 	C 	0.1276	0.9879	0.9233	0.39
Mof_C 	C 	0.1873	0.9562	0.9133	-0.085
Mof_C 	C 	0.1989	0.919	0.9461	-0.079
Mof_C 	C 	0.1542	0.8958	0.0064	0.407
Mof_C 	C 	0.2905	0.927	0.8565	0.331
Mof_C 	C 	0.3631	0.9188	0.8046	-0.906
Mof_H 	H 	0.4128	0.9221	0.8344	0.287
Mof_H 	H 	0.363	0.9369	0.7609	0.284
Mof_H 	H 	0.3601	0.8922	0.7852	0.291
Mof_C 	C 	0.005	0.8931	0.2163	0.407
Mof_C 	C 	0.0829	0.909	0.2498	-0.079
Mof_C 	C 	0.1263	0.9428	0.2398	-0.071
Mof_C 	C 	0.1167	0.979	0.1909	0.393
Mof_C 	C 	0.189	0.907	0.3274	0.281
Mof_C 	C 	0.2513	0.891	0.3836	-0.731
Mof_H 	H 	0.2809	0.8698	0.3589	0.209
Mof_H 	H 	0.2242	0.8813	0.4299	0.224
Mof_H 	H 	0.289	0.9116	0.398	0.186
Mof_C 	C 	0.0892	0.8046	0.4844	0.414
Mof_C 	C 	0.001	0.8148	0.4796	-0.119
Mof_C 	C 	0.938	0.8181	0.5328	-0.086
Mof_C 	C 	0.9303	0.8103	0.6182	0.395
Mof_C 	C 	0.892	0.8368	0.4186	0.271
Mof_C 	C 	0.834	0.8489	0.3541	-0.82
Mof_H 	H 	0.8155	0.8258	0.3264	0.217
Mof_H 	H 	0.8617	0.8662	0.3181	0.265
Mof_H 	H 	0.7876	0.8623	0.3766	0.253
Mof_C 	C 	0.1682	0.8015	0.8073	0.417
Mof_C 	C 	0.1922	0.7707	0.8641	-0.088
Mof_C 	C 	0.0729	0.001	0.7035	0.091
Mof_H 	H 	0.0611	0.9817	0.7408	-0.032
Mof_C 	C 	0.0133	0.0109	0.65	-0.146
Mof_H 	H 	0.9621	0.9987	0.6519	0.063
Mof_C 	C 	0.0297	0.0391	0.5932	0.065
Mof_C 	C 	0.1091	0.0541	0.5914	-0.159
Mof_H 	H 	0.1248	0.0711	0.551	0.071
Mof_C 	C 	0.1639	0.0441	0.6485	0.09
Mof_H 	H 	0.215	0.0564	0.6478	-0.033
Mof_C 	C 	0.836	0.0448	0.471	0.053
Mof_H 	H 	0.7869	0.031	0.4665	-0.009
Mof_C 	C 	0.8918	0.0314	0.5254	-0.118
Mof_H 	H 	0.88	0.0092	0.5559	0.049
Mof_C 	C 	0.967	0.0515	0.5348	0.029
Mof_C 	C 	0.9789	0.0835	0.4849	-0.128
Mof_H 	H 	0.0282	0.0972	0.4875	0.058
Mof_C 	C 	0.9197	0.0957	0.4314	0.043
Mof_H 	H 	0.9298	0.1177	0.3999	0.007
Mof_H 	H 	0.2867	0.7234	0.0749	0.239
Mof_H 	H 	0.3376	0.7612	0.0531	0.243
Mof_H 	H 	0.2501	0.7655	0.0905	0.232
Mof_Eu	Eu	0.51781	0.44626	0.55491	2.175
Mof_Zn	Zn	0.26122	0.50914	0.28851	1.19
Mof_Zn	Zn	0.43654	0.33443	0.82764	1.163
Mof_Zn	Zn	0.73182	0.34017	0.06876	1.203
Mof_O 	O 	0.4341	0.48498	0.4676	-0.681
Mof_O 	O 	0.3602	0.52008	0.3863	-0.604
Mof_O 	O 	0.4017	0.41227	0.5468	-0.591
Mof_O 	O 	0.322	0.36101	0.5162	-0.472
Mof_O 	O 	0.5369	0.41286	0.6686	-0.579
Mof_O 	O 	0.5152	0.3586	0.738	-0.497
Mof_O 	O 	0.4405	0.48283	0.6423	-0.533
Mof_O 	O 	0.3286	0.50502	0.7011	-0.473
Mof_O 	O 	0.3806	0.2914	0.047	-0.616
Mof_O 	O 	0.368	0.3118	0.9225	-0.501
Mof_O 	O 	0.5152	0.2911	0.1552	-0.577
Mof_O 	O 	0.6338	0.32352	0.1518	-0.434
Mof_O 	O 	0.3691	0.2927	0.2436	-0.626
Mof_O 	O 	0.314	0.33646	0.3262	-0.422
Mof_N 	N 	0.2524	0.4607	0.3558	-0.306
Mof_N 	N 	0.237	0.40115	0.4098	-0.276
Mof_N 	N 	0.3777	0.38599	0.8046	-0.297
Mof_N 	N 	0.3067	0.44134	0.791	-0.299
Mof_N 	N 	0.5279	0.3274	0.906	-0.302
Mof_N 	N 	0.6303	0.3327	0.9941	-0.284
Mof_N 	N 	0.2735	0.28333	0.4336	-0.305
Mof_N 	N 	0.3509	0.5181	0.2048	-0.274
Mof_N 	N 	0.6538	0.5759	0.924	-0.144
Mof_C 	C 	0.3724	0.4879	0.4233	0.39
Mof_C 	C 	0.3127	0.4562	0.4133	-0.085
Mof_C 	C 	0.3011	0.419	0.4461	-0.076
Mof_C 	C 	0.3458	0.3958	0.5064	0.405
Mof_C 	C 	0.2095	0.427	0.3565	0.332
Mof_C 	C 	0.1369	0.4188	0.3046	-0.909
Mof_H 	H 	0.0872	0.4221	0.3344	0.289
Mof_H 	H 	0.137	0.4369	0.2609	0.286
Mof_H 	H 	0.1399	0.3922	0.2852	0.293
Mof_C 	C 	0.495	0.3931	0.7163	0.399
Mof_C 	C 	0.4171	0.409	0.7498	-0.078
Mof_C 	C 	0.3737	0.4428	0.7398	-0.073
Mof_C 	C 	0.3833	0.479	0.6909	0.396
Mof_C 	C 	0.311	0.407	0.8274	0.281
Mof_C 	C 	0.2487	0.391	0.8836	-0.73
Mof_H 	H 	0.2191	0.3698	0.8589	0.208
Mof_H 	H 	0.2758	0.3813	0.9299	0.223
Mof_H 	H 	0.211	0.4116	0.898	0.186
Mof_C 	C 	0.4108	0.3046	0.9844	0.411
Mof_C 	C 	0.499	0.3148	0.9796	-0.116
Mof_C 	C 	0.562	0.3181	0.0328	-0.089
Mof_C 	C 	0.5697	0.3103	0.1182	0.396
Mof_C 	C 	0.608	0.3368	0.9186	0.272
Mof_C 	C 	0.666	0.3489	0.8541	-0.821
Mof_H 	H 	0.6845	0.3258	0.8264	0.217
Mof_H 	H 	0.6383	0.3662	0.8181	0.266
Mof_H 	H 	0.7124	0.3623	0.8766	0.254
Mof_C 	C 	0.3318	0.3015	0.3073	0.417
Mof_C 	C 	0.3078	0.2707	0.3641	-0.088
Mof_C 	C 	0.4271	0.501	0.2035	0.09
Mof_H 	H 	0.4389	0.4817	0.2408	-0.031
Mof_C 	C 	0.4867	0.5109	0.15	-0.141
Mof_H 	H 	0.5379	0.4987	0.1519	0.06
Mof_C 	C 	0.4703	0.5391	0.0932	0.063
Mof_C 	C 	0.3909	0.5541	0.0914	-0.158
Mof_H 	H 	0.3752	0.5711	0.051	0.071
Mof_C 	C 	0.3361	0.5441	0.1485	0.09
Mof_H 	H 	0.285	0.5564	0.1478	-0.032
Mof_C 	C 	0.664	0.5448	0.971	0.056
Mof_H 	H 	0.7131	0.531	0.9665	-0.009
Mof_C 	C 	0.6082	0.5314	0.0254	-0.122
Mof_H 	H 	0.62	0.5092	0.0559	0.05
Mof_C 	C 	0.533	0.5515	0.0348	0.029
Mof_C 	C 	0.5211	0.5835	0.9849	-0.127
Mof_H 	H 	0.4718	0.5972	0.9875	0.057
Mof_C 	C 	0.5803	0.5957	0.9314	0.043
Mof_H 	H 	0.5702	0.6177	0.8999	0.008
Mof_H 	H 	0.2133	0.2234	0.5749	0.241
Mof_H 	H 	0.1624	0.2612	0.5531	0.245
Mof_H 	H 	0.2499	0.2655	0.5905	0.233
Mof_Eu	Eu	0.98219	0.55374	0.05491	2.164
Mof_Zn	Zn	0.23878	0.49086	0.78851	1.19
Mof_Zn	Zn	0.06346	0.66557	0.32764	1.164
Mof_Zn	Zn	0.76818	0.65983	0.56876	1.204
Mof_O 	O 	0.0659	0.51502	0.9676	-0.681
Mof_O 	O 	0.1398	0.47992	0.8863	-0.603
Mof_O 	O 	0.0983	0.58773	0.0468	-0.588
Mof_O 	O 	0.178	0.63899	0.0162	-0.471
Mof_O 	O 	0.9631	0.58714	0.1686	-0.582
Mof_O 	O 	0.9848	0.6414	0.238	-0.501
Mof_O 	O 	0.0595	0.51717	0.1423	-0.529
Mof_O 	O 	0.1714	0.49498	0.2011	-0.472
Mof_O 	O 	0.1194	0.7086	0.547	-0.617
Mof_O 	O 	0.132	0.6882	0.4225	-0.501
Mof_O 	O 	0.9848	0.7089	0.6552	-0.574
Mof_O 	O 	0.8662	0.67648	0.6518	-0.433
Mof_O 	O 	0.1309	0.7073	0.7436	-0.627
Mof_O 	O 	0.186	0.66354	0.8262	-0.423
Mof_N 	N 	0.2476	0.5393	0.8558	-0.306
Mof_N 	N 	0.263	0.59885	0.9098	-0.275
Mof_N 	N 	0.1223	0.61401	0.3046	-0.297
Mof_N 	N 	0.1933	0.55866	0.291	-0.299
Mof_N 	N 	0.9721	0.6726	0.406	-0.302
Mof_N 	N 	0.8697	0.6673	0.4941	-0.285
Mof_N 	N 	0.2265	0.71667	0.9336	-0.305
Mof_N 	N 	0.1491	0.4819	0.7048	-0.275
Mof_N 	N 	0.8462	0.4241	0.424	-0.144
Mof_C 	C 	0.1276	0.5121	0.9233	0.389
Mof_C 	C 	0.1873	0.5438	0.9133	-0.084
Mof_C 	C 	0.1989	0.581	0.9461	-0.08
Mof_C 	C 	0.1542	0.6042	0.0064	0.408
Mof_C 	C 	0.2905	0.573	0.8565	0.331
Mof_C 	C 	0.3631	0.5812	0.8046	-0.906
Mof_H 	H 	0.4128	0.5779	0.8344	0.287
Mof_H 	H 	0.363	0.5631	0.7609	0.284
Mof_H 	H 	0.3601	0.6078	0.7852	0.291
Mof_C 	C 	0.005	0.6069	0.2163	0.407
Mof_C 	C 	0.0829	0.591	0.2498	-0.079
Mof_C 	C 	0.1263	0.5572	0.2398	-0.071
Mof_C 	C 	0.1167	0.521	0.1909	0.394
Mof_C 	C 	0.189	0.593	0.3274	0.281
Mof_C 	C 	0.2513	0.609	0.3836	-0.731
Mof_H 	H 	0.2809	0.6302	0.3589	0.209
Mof_H 	H 	0.2242	0.6187	0.4299	0.224
Mof_H 	H 	0.289	0.5884	0.398	0.186
Mof_C 	C 	0.0892	0.6954	0.4844	0.414
Mof_C 	C 	0.001	0.6852	0.4796	-0.119
Mof_C 	C 	0.938	0.6819	0.5328	-0.086
Mof_C 	C 	0.9303	0.6897	0.6182	0.395
Mof_C 	C 	0.892	0.6632	0.4186	0.271
Mof_C 	C 	0.834	0.6511	0.3541	-0.82
Mof_H 	H 	0.8155	0.6742	0.3264	0.217
Mof_H 	H 	0.8617	0.6338	0.3181	0.265
Mof_H 	H 	0.7876	0.6377	0.3766	0.253
Mof_C 	C 	0.1682	0.6985	0.8073	0.417
Mof_C 	C 	0.1922	0.7293	0.8641	-0.088
Mof_C 	C 	0.0729	0.499	0.7035	0.092
Mof_H 	H 	0.0611	0.5183	0.7408	-0.032
Mof_C 	C 	0.0133	0.4891	0.65	-0.146
Mof_H 	H 	0.9621	0.5013	0.6519	0.063
Mof_C 	C 	0.0297	0.4609	0.5932	0.065
Mof_C 	C 	0.1091	0.4459	0.5914	-0.159
Mof_H 	H 	0.1248	0.4289	0.551	0.071
Mof_C 	C 	0.1639	0.4559	0.6485	0.09
Mof_H 	H 	0.215	0.4436	0.6478	-0.033
Mof_C 	C 	0.836	0.4552	0.471	0.053
Mof_H 	H 	0.7869	0.469	0.4665	-0.009
Mof_C 	C 	0.8918	0.4686	0.5254	-0.118
Mof_H 	H 	0.88	0.4908	0.5559	0.05
Mof_C 	C 	0.967	0.4485	0.5348	0.029
Mof_C 	C 	0.9789	0.4165	0.4849	-0.129
Mof_H 	H 	0.0282	0.4028	0.4875	0.059
Mof_C 	C 	0.9197	0.4043	0.4314	0.043
Mof_H 	H 	0.9298	0.3823	0.3999	0.007
Mof_H 	H 	0.2867	0.7766	0.0749	0.239
Mof_H 	H 	0.3376	0.7388	0.0531	0.243
Mof_H 	H 	0.2501	0.7345	0.0905	0.232
Mof_Eu	Eu	0.48219	0.94626	0.44509	2.175
Mof_Zn	Zn	0.73878	0.00914	0.71149	1.19
Mof_Zn	Zn	0.56346	0.83443	0.17236	1.163
Mof_Zn	Zn	0.26818	0.84017	0.93124	1.204
Mof_O 	O 	0.5659	0.98498	0.5324	-0.681
Mof_O 	O 	0.6398	0.02008	0.6137	-0.604
Mof_O 	O 	0.5983	0.91227	0.4532	-0.591
Mof_O 	O 	0.678	0.86101	0.4838	-0.472
Mof_O 	O 	0.4631	0.91286	0.3314	-0.579
Mof_O 	O 	0.4848	0.8586	0.262	-0.497
Mof_O 	O 	0.5595	0.98283	0.3577	-0.533
Mof_O 	O 	0.6714	0.00502	0.2989	-0.472
Mof_O 	O 	0.6194	0.7914	0.953	-0.616
Mof_O 	O 	0.632	0.8118	0.0775	-0.501
Mof_O 	O 	0.4848	0.7911	0.8448	-0.577
Mof_O 	O 	0.3662	0.82352	0.8482	-0.434
Mof_O 	O 	0.6309	0.7927	0.7564	-0.626
Mof_O 	O 	0.686	0.83646	0.6738	-0.422
Mof_N 	N 	0.7476	0.9607	0.6442	-0.306
Mof_N 	N 	0.763	0.90115	0.5902	-0.276
Mof_N 	N 	0.6223	0.88599	0.1954	-0.297
Mof_N 	N 	0.6933	0.94134	0.209	-0.299
Mof_N 	N 	0.4721	0.8274	0.094	-0.302
Mof_N 	N 	0.3697	0.8327	0.0059	-0.285
Mof_N 	N 	0.7265	0.78333	0.5664	-0.305
Mof_N 	N 	0.6491	0.0181	0.7952	-0.274
Mof_N 	N 	0.3462	0.0759	0.076	-0.144
Mof_C 	C 	0.6276	0.9879	0.5767	0.39
Mof_C 	C 	0.6873	0.9562	0.5867	-0.085
Mof_C 	C 	0.6989	0.919	0.5539	-0.076
Mof_C 	C 	0.6542	0.8958	0.4936	0.405
Mof_C 	C 	0.7905	0.927	0.6435	0.332
Mof_C 	C 	0.8631	0.9188	0.6954	-0.909
Mof_H 	H 	0.9128	0.9221	0.6656	0.289
Mof_H 	H 	0.863	0.9369	0.7391	0.286
Mof_H 	H 	0.8601	0.8922	0.7148	0.293
Mof_C 	C 	0.505	0.8931	0.2837	0.4
Mof_C 	C 	0.5829	0.909	0.2502	-0.078
Mof_C 	C 	0.6263	0.9428	0.2602	-0.073
Mof_C 	C 	0.6167	0.979	0.3091	0.395
Mof_C 	C 	0.689	0.907	0.1726	0.281
Mof_C 	C 	0.7513	0.891	0.1164	-0.73
Mof_H 	H 	0.7809	0.8698	0.1411	0.208
Mof_H 	H 	0.7242	0.8813	0.0701	0.223
Mof_H 	H 	0.789	0.9116	0.102	0.186
Mof_C 	C 	0.5892	0.8046	0.0156	0.411
Mof_C 	C 	0.501	0.8148	0.0204	-0.117
Mof_C 	C 	0.438	0.8181	0.9672	-0.088
Mof_C 	C 	0.4303	0.8103	0.8818	0.396
Mof_C 	C 	0.392	0.8368	0.0814	0.272
Mof_C 	C 	0.334	0.8489	0.1459	-0.821
Mof_H 	H 	0.3155	0.8258	0.1736	0.217
Mof_H 	H 	0.3617	0.8662	0.1819	0.266
Mof_H 	H 	0.2876	0.8623	0.1234	0.254
Mof_C 	C 	0.6682	0.8015	0.6927	0.417
Mof_C 	C 	0.6922	0.7707	0.6359	-0.088
Mof_C 	C 	0.5729	0.001	0.7965	0.089
Mof_H 	H 	0.5611	0.9817	0.7592	-0.03
Mof_C 	C 	0.5133	0.0109	0.85	-0.143
Mof_H 	H 	0.4621	0.9987	0.8481	0.061
Mof_C 	C 	0.5297	0.0391	0.9068	0.064
Mof_C 	C 	0.6091	0.0541	0.9086	-0.158
Mof_H 	H 	0.6248	0.0711	0.949	0.071
Mof_C 	C 	0.6639	0.0441	0.8515	0.09
Mof_H 	H 	0.715	0.0564	0.8522	-0.033
Mof_C 	C 	0.336	0.0448	0.029	0.058
Mof_H 	H 	0.2869	0.031	0.0335	-0.009
Mof_C 	C 	0.3918	0.0314	0.9746	-0.123
Mof_H 	H 	0.38	0.0092	0.9441	0.05
Mof_C 	C 	0.467	0.0515	0.9652	0.028
Mof_C 	C 	0.4789	0.0835	0.0151	-0.125
Mof_H 	H 	0.5282	0.0972	0.0125	0.057
Mof_C 	C 	0.4197	0.0957	0.0686	0.042
Mof_H 	H 	0.4298	0.1177	0.1001	0.008
Mof_H 	H 	0.7867	0.7234	0.4251	0.241
Mof_H 	H 	0.8376	0.7612	0.4469	0.245
Mof_H 	H 	0.7501	0.7655	0.4095	0.233
Mof_Eu	Eu	0.01781	0.05374	0.94509	2.162
Mof_Zn	Zn	0.76122	0.99086	0.21149	1.19
Mof_Zn	Zn	0.93654	0.16557	0.67236	1.164
Mof_Zn	Zn	0.23182	0.15983	0.43124	1.204
Mof_O 	O 	0.9341	0.01502	0.0324	-0.68
Mof_O 	O 	0.8602	0.97992	0.1137	-0.604
Mof_O 	O 	0.9017	0.08773	0.9532	-0.588
Mof_O 	O 	0.822	0.13899	0.9838	-0.471
Mof_O 	O 	0.0369	0.08714	0.8314	-0.581
Mof_O 	O 	0.0152	0.1414	0.762	-0.501
Mof_O 	O 	0.9405	0.01717	0.8577	-0.529
Mof_O 	O 	0.8286	0.99498	0.7989	-0.471
Mof_O 	O 	0.8806	0.2086	0.453	-0.617
Mof_O 	O 	0.868	0.1882	0.5775	-0.501
Mof_O 	O 	0.0152	0.2089	0.3448	-0.574
Mof_O 	O 	0.1338	0.17648	0.3482	-0.433
Mof_O 	O 	0.8691	0.2073	0.2564	-0.627
Mof_O 	O 	0.814	0.16354	0.1738	-0.423
Mof_N 	N 	0.7524	0.0393	0.1442	-0.306
Mof_N 	N 	0.737	0.09885	0.0902	-0.275
Mof_N 	N 	0.8777	0.11401	0.6954	-0.297
Mof_N 	N 	0.8067	0.05866	0.709	-0.299
Mof_N 	N 	0.0279	0.1726	0.594	-0.302
Mof_N 	N 	0.1303	0.1673	0.5059	-0.285
Mof_N 	N 	0.7735	0.21667	0.0664	-0.305
Mof_N 	N 	0.8509	0.9819	0.2952	-0.275
Mof_N 	N 	0.1538	0.9241	0.576	-0.144
Mof_C 	C 	0.8724	0.0121	0.0767	0.39
Mof_C 	C 	0.8127	0.0438	0.0867	-0.085
Mof_C 	C 	0.8011	0.081	0.0539	-0.079
Mof_C 	C 	0.8458	0.1042	0.9936	0.407
Mof_C 	C 	0.7095	0.073	0.1435	0.331
Mof_C 	C 	0.6369	0.0812	0.1954	-0.906
Mof_H 	H 	0.5872	0.0779	0.1656	0.287
Mof_H 	H 	0.637	0.0631	0.2391	0.284
Mof_H 	H 	0.6399	0.1078	0.2148	0.291
Mof_C 	C 	0.995	0.1069	0.7837	0.407
Mof_C 	C 	0.9171	0.091	0.7502	-0.079
Mof_C 	C 	0.8737	0.0572	0.7602	-0.071
Mof_C 	C 	0.8833	0.021	0.8091	0.393
Mof_C 	C 	0.811	0.093	0.6726	0.281
Mof_C 	C 	0.7487	0.109	0.6164	-0.731
Mof_H 	H 	0.7191	0.1302	0.6411	0.209
Mof_H 	H 	0.7758	0.1187	0.5701	0.224
Mof_H 	H 	0.711	0.0884	0.602	0.186
Mof_C 	C 	0.9108	0.1954	0.5156	0.414
Mof_C 	C 	0.999	0.1852	0.5204	-0.119
Mof_C 	C 	0.062	0.1819	0.4672	-0.086
Mof_C 	C 	0.0697	0.1897	0.3818	0.395
Mof_C 	C 	0.108	0.1632	0.5814	0.271
Mof_C 	C 	0.166	0.1511	0.6459	-0.82
Mof_H 	H 	0.1845	0.1742	0.6736	0.217
Mof_H 	H 	0.1383	0.1338	0.6819	0.265
Mof_H 	H 	0.2124	0.1377	0.6234	0.253
Mof_C 	C 	0.8318	0.1985	0.1927	0.417
Mof_C 	C 	0.8078	0.2293	0.1359	-0.088
Mof_C 	C 	0.9271	0.999	0.2965	0.091
Mof_H 	H 	0.9389	0.0183	0.2592	-0.032
Mof_C 	C 	0.9867	0.9891	0.35	-0.146
Mof_H 	H 	0.0379	0.0013	0.3481	0.063
Mof_C 	C 	0.9703	0.9609	0.4068	0.065
Mof_C 	C 	0.8909	0.9459	0.4086	-0.159
Mof_H 	H 	0.8752	0.9289	0.449	0.071
Mof_C 	C 	0.8361	0.9559	0.3515	0.09
Mof_H 	H 	0.785	0.9436	0.3522	-0.033
Mof_C 	C 	0.164	0.9552	0.529	0.053
Mof_H 	H 	0.2131	0.969	0.5335	-0.009
Mof_C 	C 	0.1082	0.9686	0.4746	-0.118
Mof_H 	H 	0.12	0.9908	0.4441	0.049
Mof_C 	C 	0.033	0.9485	0.4652	0.029
Mof_C 	C 	0.0211	0.9165	0.5151	-0.128
Mof_H 	H 	0.9718	0.9028	0.5125	0.058
Mof_C 	C 	0.0803	0.9043	0.5686	0.043
Mof_H 	H 	0.0702	0.8823	0.6001	0.007
Mof_H 	H 	0.7133	0.2766	0.9251	0.239
Mof_H 	H 	0.6624	0.2388	0.9469	0.243
Mof_H 	H 	0.7499	0.2345	0.9095	0.232
Mof_Eu	Eu	0.59507	0.75	0.84996	2.65
Mof_C 	C 	0.7454	0.75	0.5263	0.43
Mof_C 	C 	0.7835	0.75	0.4444	-1.489
Mof_Eu	Eu	0.90493	0.25	0.34996	2.644
Mof_C 	C 	0.7546	0.25	0.0263	0.425
Mof_C 	C 	0.7165	0.25	0.9444	-1.477
Mof_Eu	Eu	0.40493	0.25	0.15004	2.65
Mof_C 	C 	0.2546	0.25	0.4737	0.43
Mof_C 	C 	0.2165	0.25	0.5556	-1.489
Mof_Eu	Eu	0.09507	0.75	0.65004	2.644
Mof_C 	C 	0.2454	0.75	0.9737	0.425
Mof_C 	C 	0.2835	0.75	0.0556	-1.477
_end
