data_functionalizedCrystal
_audit_creation_method	'EQeq! by Chris Wilmer'
_symmetry_space_group_name_H-M	'P1'
_symmetry_Int_Tables_number	1
_symmetry_cell_setting	triclinic
loop_
_symmetry_equiv_pos_as_xyz
  x,y,z
_cell_length_a	17.1236
_cell_length_b	17.1236
_cell_length_c	17.1236
_cell_angle_alpha	90
_cell_angle_beta	90
_cell_angle_gamma	90
loop_
_atom_site_label
_atom_site_type_symbol
_atom_site_fract_x
_atom_site_fract_y
_atom_site_fract_z
_atom_site_charge
Mof_N 	N 	0.03302	0.68104	0.41158	-0.398
Mof_C 	C 	0.10911	0.66618	0.38997	-0.029
Mof_H 	H 	0.1541	0.691	0.4108	-0.005
Mof_H 	H 	0.8859	0.6388	0.4272	0.205
Mof_N 	N 	0.53302	0.18104	0.91158	-0.286
Mof_C 	C 	0.60911	0.16618	0.88997	-0.013
Mof_H 	H 	0.6541	0.191	0.9108	0.01
Mof_H 	H 	0.3859	0.1388	0.9272	0.162
Mof_N 	N 	0.96698	0.31896	0.41158	-0.209
Mof_C 	C 	0.89089	0.33382	0.38997	-0.012
Mof_H 	H 	0.8459	0.309	0.4108	-0.006
Mof_H 	H 	0.1141	0.3612	0.4272	0.092
Mof_N 	N 	0.46698	0.81896	0.91158	-0.29
Mof_C 	C 	0.39089	0.83382	0.88997	-0.005
Mof_H 	H 	0.3459	0.809	0.9108	0.014
Mof_H 	H 	0.6141	0.8612	0.9272	0.221
Mof_N 	N 	0.96698	0.68104	0.58842	-0.209
Mof_C 	C 	0.89089	0.66618	0.61003	-0.008
Mof_H 	H 	0.8459	0.691	0.5892	-0.006
Mof_H 	H 	0.1141	0.6388	0.5728	0.093
Mof_N 	N 	0.46698	0.18104	0.08842	-0.319
Mof_C 	C 	0.39089	0.16618	0.11003	-0.037
Mof_H 	H 	0.3459	0.191	0.0892	-0.032
Mof_H 	H 	0.6141	0.1388	0.0728	0.086
Mof_N 	N 	0.03302	0.31896	0.58842	-0.399
Mof_C 	C 	0.10911	0.33382	0.61003	-0.03
Mof_H 	H 	0.1541	0.309	0.5892	-0.005
Mof_H 	H 	0.8859	0.3612	0.5728	0.206
Mof_N 	N 	0.53302	0.81896	0.08842	-0.321
Mof_C 	C 	0.60911	0.83382	0.11003	-0.025
Mof_H 	H 	0.6541	0.809	0.0892	-0.015
Mof_H 	H 	0.3859	0.8612	0.0728	0.127
Mof_N 	N 	0.41158	0.03302	0.68104	-0.399
Mof_C 	C 	0.38997	0.10911	0.66618	-0.03
Mof_H 	H 	0.4108	0.1541	0.691	-0.006
Mof_H 	H 	0.4272	0.8859	0.6388	0.205
Mof_N 	N 	0.91158	0.53302	0.18104	-0.286
Mof_C 	C 	0.88997	0.60911	0.16618	-0.013
Mof_H 	H 	0.9108	0.6541	0.191	0.01
Mof_H 	H 	0.9272	0.3859	0.1388	0.162
Mof_N 	N 	0.41158	0.96698	0.31896	-0.209
Mof_C 	C 	0.38997	0.89089	0.33382	-0.012
Mof_H 	H 	0.4108	0.8459	0.309	-0.006
Mof_H 	H 	0.4272	0.1141	0.3612	0.092
Mof_N 	N 	0.91158	0.46698	0.81896	-0.29
Mof_C 	C 	0.88997	0.39089	0.83382	-0.005
Mof_H 	H 	0.9108	0.3459	0.809	0.014
Mof_H 	H 	0.9272	0.6141	0.8612	0.221
Mof_N 	N 	0.58842	0.96698	0.68104	-0.209
Mof_C 	C 	0.61003	0.89089	0.66618	-0.008
Mof_H 	H 	0.5892	0.8459	0.691	-0.006
Mof_H 	H 	0.5728	0.1141	0.6388	0.093
Mof_N 	N 	0.08842	0.46698	0.18104	-0.319
Mof_C 	C 	0.11003	0.39089	0.16618	-0.037
Mof_H 	H 	0.0892	0.3459	0.191	-0.032
Mof_H 	H 	0.0728	0.6141	0.1388	0.086
Mof_N 	N 	0.58842	0.03302	0.31896	-0.399
Mof_C 	C 	0.61003	0.10911	0.33382	-0.03
Mof_H 	H 	0.5892	0.1541	0.309	-0.005
Mof_H 	H 	0.5728	0.8859	0.3612	0.206
Mof_N 	N 	0.08842	0.53302	0.81896	-0.321
Mof_C 	C 	0.11003	0.60911	0.83382	-0.025
Mof_H 	H 	0.0892	0.6541	0.809	-0.015
Mof_H 	H 	0.0728	0.3859	0.8612	0.127
Mof_N 	N 	0.68104	0.41158	0.03302	-0.399
Mof_C 	C 	0.66618	0.38997	0.10911	-0.03
Mof_H 	H 	0.691	0.4108	0.1541	-0.006
Mof_H 	H 	0.6388	0.4272	0.8859	0.205
Mof_N 	N 	0.18104	0.91158	0.53302	-0.286
Mof_C 	C 	0.16618	0.88997	0.60911	-0.013
Mof_H 	H 	0.191	0.9108	0.6541	0.01
Mof_H 	H 	0.1388	0.9272	0.3859	0.162
Mof_N 	N 	0.31896	0.41158	0.96698	-0.209
Mof_C 	C 	0.33382	0.38997	0.89089	-0.012
Mof_H 	H 	0.309	0.4108	0.8459	-0.006
Mof_H 	H 	0.3612	0.4272	0.1141	0.092
Mof_N 	N 	0.81896	0.91158	0.46698	-0.29
Mof_C 	C 	0.83382	0.88997	0.39089	-0.005
Mof_H 	H 	0.809	0.9108	0.3459	0.014
Mof_H 	H 	0.8612	0.9272	0.6141	0.221
Mof_N 	N 	0.68104	0.58842	0.96698	-0.209
Mof_C 	C 	0.66618	0.61003	0.89089	-0.008
Mof_H 	H 	0.691	0.5892	0.8459	-0.006
Mof_H 	H 	0.6388	0.5728	0.1141	0.093
Mof_N 	N 	0.18104	0.08842	0.46698	-0.319
Mof_C 	C 	0.16618	0.11003	0.39089	-0.037
Mof_H 	H 	0.191	0.0892	0.3459	-0.032
Mof_H 	H 	0.1388	0.0728	0.6141	0.086
Mof_N 	N 	0.31896	0.58842	0.03302	-0.399
Mof_C 	C 	0.33382	0.61003	0.10911	-0.03
Mof_H 	H 	0.309	0.5892	0.1541	-0.005
Mof_H 	H 	0.3612	0.5728	0.8859	0.206
Mof_N 	N 	0.81896	0.08842	0.53302	-0.321
Mof_C 	C 	0.83382	0.11003	0.60911	-0.025
Mof_H 	H 	0.809	0.0892	0.6541	-0.015
Mof_H 	H 	0.8612	0.0728	0.3859	0.127
Mof_N 	N 	0.68104	0.03302	0.41158	-0.399
Mof_C 	C 	0.66618	0.10911	0.38997	-0.03
Mof_H 	H 	0.691	0.1541	0.4108	-0.006
Mof_H 	H 	0.6388	0.8859	0.4272	0.205
Mof_N 	N 	0.18104	0.53302	0.91158	-0.286
Mof_C 	C 	0.16618	0.60911	0.88997	-0.013
Mof_H 	H 	0.191	0.6541	0.9108	0.01
Mof_H 	H 	0.1388	0.3859	0.9272	0.162
Mof_N 	N 	0.31896	0.96698	0.41158	-0.209
Mof_C 	C 	0.33382	0.89089	0.38997	-0.012
Mof_H 	H 	0.309	0.8459	0.4108	-0.006
Mof_H 	H 	0.3612	0.1141	0.4272	0.092
Mof_N 	N 	0.81896	0.46698	0.91158	-0.29
Mof_C 	C 	0.83382	0.39089	0.88997	-0.005
Mof_H 	H 	0.809	0.3459	0.9108	0.014
Mof_H 	H 	0.8612	0.6141	0.9272	0.221
Mof_N 	N 	0.68104	0.96698	0.58842	-0.209
Mof_C 	C 	0.66618	0.89089	0.61003	-0.008
Mof_H 	H 	0.691	0.8459	0.5892	-0.006
Mof_H 	H 	0.6388	0.1141	0.5728	0.093
Mof_N 	N 	0.18104	0.46698	0.08842	-0.319
Mof_C 	C 	0.16618	0.39089	0.11003	-0.037
Mof_H 	H 	0.191	0.3459	0.0892	-0.032
Mof_H 	H 	0.1388	0.6141	0.0728	0.086
Mof_N 	N 	0.31896	0.03302	0.58842	-0.399
Mof_C 	C 	0.33382	0.10911	0.61003	-0.03
Mof_H 	H 	0.309	0.1541	0.5892	-0.005
Mof_H 	H 	0.3612	0.8859	0.5728	0.206
Mof_N 	N 	0.81896	0.53302	0.08842	-0.321
Mof_C 	C 	0.83382	0.60911	0.11003	-0.025
Mof_H 	H 	0.809	0.6541	0.0892	-0.015
Mof_H 	H 	0.8612	0.3859	0.0728	0.127
Mof_N 	N 	0.03302	0.41158	0.68104	-0.399
Mof_C 	C 	0.10911	0.38997	0.66618	-0.03
Mof_H 	H 	0.1541	0.4108	0.691	-0.006
Mof_H 	H 	0.8859	0.4272	0.6388	0.205
Mof_N 	N 	0.53302	0.91158	0.18104	-0.286
Mof_C 	C 	0.60911	0.88997	0.16618	-0.013
Mof_H 	H 	0.6541	0.9108	0.191	0.01
Mof_H 	H 	0.3859	0.9272	0.1388	0.162
Mof_N 	N 	0.96698	0.41158	0.31896	-0.209
Mof_C 	C 	0.89089	0.38997	0.33382	-0.012
Mof_H 	H 	0.8459	0.4108	0.309	-0.006
Mof_H 	H 	0.1141	0.4272	0.3612	0.092
Mof_N 	N 	0.46698	0.91158	0.81896	-0.29
Mof_C 	C 	0.39089	0.88997	0.83382	-0.005
Mof_H 	H 	0.3459	0.9108	0.809	0.014
Mof_H 	H 	0.6141	0.9272	0.8612	0.221
Mof_N 	N 	0.96698	0.58842	0.68104	-0.209
Mof_C 	C 	0.89089	0.61003	0.66618	-0.008
Mof_H 	H 	0.8459	0.5892	0.691	-0.006
Mof_H 	H 	0.1141	0.5728	0.6388	0.093
Mof_N 	N 	0.46698	0.08842	0.18104	-0.319
Mof_C 	C 	0.39089	0.11003	0.16618	-0.037
Mof_H 	H 	0.3459	0.0892	0.191	-0.032
Mof_H 	H 	0.6141	0.0728	0.1388	0.086
Mof_N 	N 	0.03302	0.58842	0.31896	-0.399
Mof_C 	C 	0.10911	0.61003	0.33382	-0.03
Mof_H 	H 	0.1541	0.5892	0.309	-0.005
Mof_H 	H 	0.8859	0.5728	0.3612	0.206
Mof_N 	N 	0.53302	0.08842	0.81896	-0.321
Mof_C 	C 	0.60911	0.11003	0.83382	-0.025
Mof_H 	H 	0.6541	0.0892	0.809	-0.015
Mof_H 	H 	0.3859	0.0728	0.8612	0.127
Mof_N 	N 	0.41158	0.68104	0.03302	-0.399
Mof_C 	C 	0.38997	0.66618	0.10911	-0.03
Mof_H 	H 	0.4108	0.691	0.1541	-0.006
Mof_H 	H 	0.4272	0.6388	0.8859	0.205
Mof_N 	N 	0.91158	0.18104	0.53302	-0.286
Mof_C 	C 	0.88997	0.16618	0.60911	-0.013
Mof_H 	H 	0.9108	0.191	0.6541	0.01
Mof_H 	H 	0.9272	0.1388	0.3859	0.162
Mof_N 	N 	0.41158	0.31896	0.96698	-0.209
Mof_C 	C 	0.38997	0.33382	0.89089	-0.012
Mof_H 	H 	0.4108	0.309	0.8459	-0.006
Mof_H 	H 	0.4272	0.3612	0.1141	0.092
Mof_N 	N 	0.91158	0.81896	0.46698	-0.29
Mof_C 	C 	0.88997	0.83382	0.39089	-0.005
Mof_H 	H 	0.9108	0.809	0.3459	0.014
Mof_H 	H 	0.9272	0.8612	0.6141	0.221
Mof_N 	N 	0.58842	0.68104	0.96698	-0.209
Mof_C 	C 	0.61003	0.66618	0.89089	-0.008
Mof_H 	H 	0.5892	0.691	0.8459	-0.006
Mof_H 	H 	0.5728	0.6388	0.1141	0.093
Mof_N 	N 	0.08842	0.18104	0.46698	-0.319
Mof_C 	C 	0.11003	0.16618	0.39089	-0.037
Mof_H 	H 	0.0892	0.191	0.3459	-0.032
Mof_H 	H 	0.0728	0.1388	0.6141	0.086
Mof_N 	N 	0.58842	0.31896	0.03302	-0.399
Mof_C 	C 	0.61003	0.33382	0.10911	-0.03
Mof_H 	H 	0.5892	0.309	0.1541	-0.005
Mof_H 	H 	0.5728	0.3612	0.8859	0.206
Mof_N 	N 	0.08842	0.81896	0.53302	-0.321
Mof_C 	C 	0.11003	0.83382	0.60911	-0.025
Mof_H 	H 	0.0892	0.809	0.6541	-0.015
Mof_H 	H 	0.0728	0.8612	0.3859	0.127
Mof_Zn	Zn	6.90235e-33	0.75	0.5	1.135
Mof_Zn	Zn	6.90235e-33	0.25	0.5	1.134
Mof_Zn	Zn	0.5	0	0.75	1.135
Mof_Zn	Zn	0.5	0	0.25	1.134
Mof_Zn	Zn	0.75	0.5	-0	1.135
Mof_Zn	Zn	0.25	0.5	-0	1.134
Mof_Zn	Zn	0.75	0	0.5	1.135
Mof_Zn	Zn	0.25	0	0.5	1.134
Mof_Zn	Zn	1.28674e-32	0.5	0.75	1.135
Mof_Zn	Zn	8.47883e-33	0.5	0.25	1.134
Mof_Zn	Zn	0.5	0.75	-0	1.135
Mof_Zn	Zn	0.5	0.25	-0	1.134
Mof_C 	C 	0.9901	0.63222	0.36778	0.42
Mof_C 	C 	0.9022	0.62613	0.37387	-0.741
Mof_H 	H 	0.878	0.6628	0.3372	0.219
Mof_C 	C 	0.4901	0.13222	0.86778	0.202
Mof_C 	C 	0.4022	0.12613	0.87387	-0.569
Mof_H 	H 	0.378	0.1628	0.8372	0.162
Mof_C 	C 	0.0099	0.36778	0.36778	-0.015
Mof_C 	C 	0.0978	0.37387	0.37387	-0.408
Mof_H 	H 	0.122	0.3372	0.3372	0.111
Mof_C 	C 	0.5099	0.86778	0.86778	0.253
Mof_C 	C 	0.5978	0.87387	0.87387	-0.675
Mof_H 	H 	0.622	0.8372	0.8372	0.208
Mof_C 	C 	0.0099	0.63222	0.63222	-0.01
Mof_C 	C 	0.0978	0.62613	0.62613	-0.413
Mof_H 	H 	0.122	0.6628	0.6628	0.116
Mof_C 	C 	0.5099	0.13222	0.13222	0.158
Mof_C 	C 	0.5978	0.12613	0.12613	-0.491
Mof_H 	H 	0.622	0.1628	0.1628	0.133
Mof_C 	C 	0.9901	0.36778	0.63222	0.42
Mof_C 	C 	0.9022	0.37387	0.62613	-0.741
Mof_H 	H 	0.878	0.3372	0.6628	0.219
Mof_C 	C 	0.4901	0.86778	0.13222	0.202
Mof_C 	C 	0.4022	0.87387	0.12613	-0.569
Mof_H 	H 	0.378	0.8372	0.1628	0.162
Mof_C 	C 	0.36778	0.9901	0.63222	0.42
Mof_C 	C 	0.37387	0.9022	0.62613	-0.741
Mof_H 	H 	0.3372	0.878	0.6628	0.219
Mof_C 	C 	0.86778	0.4901	0.13222	0.202
Mof_C 	C 	0.87387	0.4022	0.12613	-0.569
Mof_H 	H 	0.8372	0.378	0.1628	0.162
Mof_C 	C 	0.36778	0.0099	0.36778	-0.015
Mof_C 	C 	0.37387	0.0978	0.37387	-0.408
Mof_H 	H 	0.3372	0.122	0.3372	0.111
Mof_C 	C 	0.86778	0.5099	0.86778	0.253
Mof_C 	C 	0.87387	0.5978	0.87387	-0.675
Mof_H 	H 	0.8372	0.622	0.8372	0.208
Mof_C 	C 	0.63222	0.0099	0.63222	-0.01
Mof_C 	C 	0.62613	0.0978	0.62613	-0.413
Mof_H 	H 	0.6628	0.122	0.6628	0.116
Mof_C 	C 	0.13222	0.5099	0.13222	0.158
Mof_C 	C 	0.12613	0.5978	0.12613	-0.491
Mof_H 	H 	0.1628	0.622	0.1628	0.133
Mof_C 	C 	0.63222	0.9901	0.36778	0.42
Mof_C 	C 	0.62613	0.9022	0.37387	-0.741
Mof_H 	H 	0.6628	0.878	0.3372	0.219
Mof_C 	C 	0.13222	0.4901	0.86778	0.202
Mof_C 	C 	0.12613	0.4022	0.87387	-0.569
Mof_H 	H 	0.1628	0.378	0.8372	0.162
Mof_C 	C 	0.63222	0.36778	0.9901	0.42
Mof_C 	C 	0.62613	0.37387	0.9022	-0.741
Mof_H 	H 	0.6628	0.3372	0.878	0.219
Mof_C 	C 	0.13222	0.86778	0.4901	0.202
Mof_C 	C 	0.12613	0.87387	0.4022	-0.569
Mof_H 	H 	0.1628	0.8372	0.378	0.162
Mof_C 	C 	0.36778	0.36778	0.0099	-0.015
Mof_C 	C 	0.37387	0.37387	0.0978	-0.408
Mof_H 	H 	0.3372	0.3372	0.122	0.111
Mof_C 	C 	0.86778	0.86778	0.5099	0.253
Mof_C 	C 	0.87387	0.87387	0.5978	-0.675
Mof_H 	H 	0.8372	0.8372	0.622	0.208
Mof_C 	C 	0.63222	0.63222	0.0099	-0.01
Mof_C 	C 	0.62613	0.62613	0.0978	-0.413
Mof_H 	H 	0.6628	0.6628	0.122	0.116
Mof_C 	C 	0.13222	0.13222	0.5099	0.158
Mof_C 	C 	0.12613	0.12613	0.5978	-0.491
Mof_H 	H 	0.1628	0.1628	0.622	0.133
Mof_C 	C 	0.36778	0.63222	0.9901	0.42
Mof_C 	C 	0.37387	0.62613	0.9022	-0.741
Mof_H 	H 	0.3372	0.6628	0.878	0.219
Mof_C 	C 	0.86778	0.13222	0.4901	0.202
Mof_C 	C 	0.87387	0.12613	0.4022	-0.569
Mof_H 	H 	0.8372	0.1628	0.378	0.162
_end
