data_functionalizedCrystal
_audit_creation_method	'EQeq! by Chris Wilmer'
_symmetry_space_group_name_H-M	'P1'
_symmetry_Int_Tables_number	1
_symmetry_cell_setting	triclinic
loop_
_symmetry_equiv_pos_as_xyz
  x,y,z
_cell_length_a	8.5033
_cell_length_b	8.5033
_cell_length_c	30.9393
_cell_angle_alpha	90
_cell_angle_beta	90
_cell_angle_gamma	90
loop_
_atom_site_label
_atom_site_type_symbol
_atom_site_fract_x
_atom_site_fract_y
_atom_site_fract_z
_atom_site_charge
Mof_Ba	Ba	0.49761	0.49614	0.57778	1.76
Mof_Ba	Ba	0.50239	0.50386	0.07778	1.774
Mof_Ba	Ba	0.50386	0.49761	0.32778	1.76
Mof_Ba	Ba	0.49614	0.50239	0.82778	1.754
Mof_Ge	Ge	0.00136	0.99681	0.4984	1.684
Mof_Ge	Ge	0.99973	0.00039	0.65007	1.7
Mof_Ge	Ge	0.99864	0.00319	0.9984	1.559
Mof_Ge	Ge	0.00027	0.99961	0.15007	1.673
Mof_Ge	Ge	0.00319	0.00136	0.2484	1.692
Mof_Ge	Ge	0.99961	0.99973	0.40007	1.688
Mof_Ge	Ge	0.99681	0.99864	0.7484	1.691
Mof_Ge	Ge	0.00039	0.00027	0.90007	1.681
Mof_H 	H 	0.0685	0.3571	0.6071	0.025
Mof_H 	H 	0.936	0.3556	0.5413	0.022
Mof_H 	H 	0.9259	0.6448	0.6077	0.034
Mof_H 	H 	0.0603	0.6369	0.5424	0.014
Mof_H 	H 	0.1912	0.0993	0.7013	0.379
Mof_H 	H 	0.8162	0.904	0.6996	0.553
Mof_H 	H 	0.6362	0.5246	0.678	0.21
Mof_H 	H 	0.9315	0.6429	0.1071	0.023
Mof_H 	H 	0.064	0.6444	0.0413	0.03
Mof_H 	H 	0.0741	0.3552	0.1077	0.036
Mof_H 	H 	0.9397	0.3631	0.0424	0.017
Mof_H 	H 	0.8088	0.9007	0.2013	0.376
Mof_H 	H 	0.1838	0.096	0.1996	0.552
Mof_H 	H 	0.3638	0.4754	0.178	0.209
Mof_H 	H 	0.6429	0.0685	0.3571	0.023
Mof_H 	H 	0.6444	0.936	0.2913	0.024
Mof_H 	H 	0.3552	0.9259	0.3577	0.035
Mof_H 	H 	0.3631	0.0603	0.2924	0.012
Mof_H 	H 	0.9007	0.1912	0.4513	0.377
Mof_H 	H 	0.096	0.8162	0.4496	0.552
Mof_H 	H 	0.4754	0.6362	0.428	0.209
Mof_H 	H 	0.3571	0.9315	0.8571	0.023
Mof_H 	H 	0.3556	0.064	0.7913	0.022
Mof_H 	H 	0.6448	0.0741	0.8577	0.032
Mof_H 	H 	0.6369	0.9397	0.7924	0.014
Mof_H 	H 	0.0993	0.8088	0.9513	0.364
Mof_H 	H 	0.904	0.1838	0.9496	0.536
Mof_H 	H 	0.5246	0.3638	0.928	0.203
Mof_C 	C 	0.8526	0.2571	0.62015	0.396
Mof_C 	C 	0.0147	0.2597	0.59882	0.003
Mof_C 	C 	0.9921	0.2593	0.54941	-0.03
Mof_C 	C 	0.1516	0.2595	0.52682	0.381
Mof_C 	C 	0.1436	0.7383	0.62109	0.409
Mof_C 	C 	0.9834	0.7396	0.59899	-0.042
Mof_C 	C 	0.0071	0.7352	0.55001	0.009
Mof_C 	C 	0.8475	0.7383	0.52809	0.354
Mof_C 	C 	0.1474	0.7429	0.12015	0.39
Mof_C 	C 	0.9853	0.7403	0.09882	0.014
Mof_C 	C 	0.0079	0.7407	0.04941	-0.045
Mof_C 	C 	0.8484	0.7405	0.02682	0.386
Mof_C 	C 	0.8564	0.2617	0.12109	0.414
Mof_C 	C 	0.0166	0.2604	0.09899	-0.053
Mof_C 	C 	0.9929	0.2648	0.05001	0.017
Mof_C 	C 	0.1525	0.2617	0.02809	0.346
Mof_C 	C 	0.7429	0.8526	0.37015	0.391
Mof_C 	C 	0.7403	0.0147	0.34882	0.012
Mof_C 	C 	0.7407	0.9921	0.29941	-0.04
Mof_C 	C 	0.7405	0.1516	0.27682	0.387
Mof_C 	C 	0.2617	0.1436	0.37109	0.413
Mof_C 	C 	0.2604	0.9834	0.34899	-0.051
Mof_C 	C 	0.2648	0.0071	0.30001	0.018
Mof_C 	C 	0.2617	0.8475	0.27809	0.349
Mof_C 	C 	0.2571	0.1474	0.87015	0.396
Mof_C 	C 	0.2597	0.9853	0.84882	0.001
Mof_C 	C 	0.2593	0.0079	0.79941	-0.029
Mof_C 	C 	0.2595	0.8484	0.77682	0.38
Mof_C 	C 	0.7383	0.8564	0.87109	0.406
Mof_C 	C 	0.7396	0.0166	0.84899	-0.04
Mof_C 	C 	0.7352	0.9929	0.80001	0.007
Mof_C 	C 	0.7383	0.1525	0.77809	0.355
Mof_O 	O 	0.8314	0.1461	0.64765	-0.513
Mof_O 	O 	0.7561	0.3573	0.61119	-0.452
Mof_O 	O 	0.1058	0.1314	0.61261	-0.432
Mof_O 	O 	0.9024	0.13	0.53599	-0.434
Mof_O 	O 	0.1735	0.1412	0.50085	-0.464
Mof_O 	O 	0.2469	0.3634	0.53226	-0.439
Mof_O 	O 	0.1686	0.8537	0.64764	-0.49
Mof_O 	O 	0.2381	0.6337	0.61462	-0.434
Mof_O 	O 	0.896	0.8722	0.61191	-0.44
Mof_O 	O 	0.1005	0.8631	0.53563	-0.451
Mof_O 	O 	0.8289	0.854	0.5003	-0.483
Mof_O 	O 	0.7467	0.6399	0.53511	-0.436
Mof_O 	O 	0.0937	0.0966	0.69978	-0.861
Mof_O 	O 	0.9032	0.9008	0.69919	-1.073
Mof_O 	O 	0.5488	0.5528	0.66586	-0.456
Mof_O 	O 	0.1686	0.8539	0.14765	-0.51
Mof_O 	O 	0.2439	0.6427	0.11119	-0.451
Mof_O 	O 	0.8942	0.8686	0.11261	-0.429
Mof_O 	O 	0.0976	0.87	0.03599	-0.404
Mof_O 	O 	0.8265	0.8588	0.00085	-0.43
Mof_O 	O 	0.7531	0.6366	0.03226	-0.434
Mof_O 	O 	0.8314	0.1463	0.14764	-0.484
Mof_O 	O 	0.7619	0.3663	0.11462	-0.435
Mof_O 	O 	0.104	0.1278	0.11191	-0.431
Mof_O 	O 	0.8995	0.1369	0.03563	-0.418
Mof_O 	O 	0.1711	0.146	0.0003	-0.444
Mof_O 	O 	0.2533	0.3601	0.03511	-0.428
Mof_O 	O 	0.9063	0.9034	0.19978	-0.856
Mof_O 	O 	0.0968	0.0992	0.19919	-1.069
Mof_O 	O 	0.4512	0.4472	0.16586	-0.457
Mof_O 	O 	0.8539	0.8314	0.39765	-0.511
Mof_O 	O 	0.6427	0.7561	0.36119	-0.451
Mof_O 	O 	0.8686	0.1058	0.36261	-0.43
Mof_O 	O 	0.87	0.9024	0.28599	-0.435
Mof_O 	O 	0.8588	0.1735	0.25085	-0.465
Mof_O 	O 	0.6366	0.2469	0.28226	-0.441
Mof_O 	O 	0.1463	0.1686	0.39764	-0.489
Mof_O 	O 	0.3663	0.2381	0.36462	-0.435
Mof_O 	O 	0.1278	0.896	0.36191	-0.437
Mof_O 	O 	0.1369	0.1005	0.28563	-0.453
Mof_O 	O 	0.146	0.8289	0.2503	-0.485
Mof_O 	O 	0.3601	0.7467	0.28511	-0.435
Mof_O 	O 	0.9034	0.0937	0.44978	-0.856
Mof_O 	O 	0.0992	0.9032	0.44919	-1.071
Mof_O 	O 	0.4472	0.5488	0.41586	-0.456
Mof_O 	O 	0.1461	0.1686	0.89765	-0.516
Mof_O 	O 	0.3573	0.2439	0.86119	-0.454
Mof_O 	O 	0.1314	0.8942	0.86261	-0.431
Mof_O 	O 	0.13	0.0976	0.78599	-0.436
Mof_O 	O 	0.1412	0.8265	0.75085	-0.467
Mof_O 	O 	0.3634	0.7531	0.78226	-0.439
Mof_O 	O 	0.8537	0.8314	0.89764	-0.492
Mof_O 	O 	0.6337	0.7619	0.86462	-0.436
Mof_O 	O 	0.8722	0.104	0.86191	-0.436
Mof_O 	O 	0.8631	0.8995	0.78563	-0.451
Mof_O 	O 	0.854	0.1711	0.7503	-0.483
Mof_O 	O 	0.6399	0.2533	0.78511	-0.436
Mof_O 	O 	0.0966	0.9063	0.94978	-0.847
Mof_O 	O 	0.9008	0.0968	0.94919	-1.051
Mof_O 	O 	0.5528	0.4512	0.91586	-0.463
_end
