data_functionalizedCrystal
_audit_creation_method	'EQeq! by Chris Wilmer'
_symmetry_space_group_name_H-M	'P1'
_symmetry_Int_Tables_number	1
_symmetry_cell_setting	triclinic
loop_
_symmetry_equiv_pos_as_xyz
  x,y,z
_cell_length_a	19.504
_cell_length_b	19.504
_cell_length_c	37.93
_cell_angle_alpha	90
_cell_angle_beta	90
_cell_angle_gamma	120
loop_
_atom_site_label
_atom_site_type_symbol
_atom_site_fract_x
_atom_site_fract_y
_atom_site_fract_z
_atom_site_charge
Mof_O 	O 	0.0047	0.6108	0.7962	-0.05
Mof_O 	O 	0.0719	0.6626	0.789	-0.02
Mof_O 	O 	0.11551	0.48472	0.98612	-0.423
Mof_O 	O 	0.95652	0.40516	0.96445	-0.475
Mof_H 	H 	0.1253	0.7921	0.1246	1.16
Mof_C 	C 	0.9373	0.4076	0.73259	-0.169
Mof_H 	H 	0.9496	0.3716	0.7438	0.093
Mof_C 	C 	0.9002	0.3887	0.69984	-0.004
Mof_C 	C 	0.0111	0.5544	0.8041	-0.931
Mof_C 	C 	0.0399	0.4747	0.8914	0.067
Mof_H 	H 	0.0386	0.4283	0.9	0.454
Mof_C 	C 	0.0217	0.4758	0.856	1.621
Mof_H 	H 	0.0024	0.4296	0.8419	0.142
Mof_C 	C 	0.0324	0.5465	0.842	-1.181
Mof_C 	C 	0.049	0.442	0.8638	-0.716
Mof_H 	H 	0.0502	0.3969	0.8553	0.342
Mof_C 	C 	0.0642	0.6012	0.8988	-0.704
Mof_H 	H 	0.0791	0.645	0.9141	0.148
Mof_C 	C 	0.1004	0.4572	0.01691	0.357
Mof_O 	O 	0.67137	0.94413	0.12953	-0.05
Mof_O 	O 	0.73857	0.99593	0.12233	-0.021
Mof_O 	O 	0.78218	0.81805	0.31945	-0.424
Mof_O 	O 	0.62319	0.73849	0.29778	-0.476
Mof_H 	H 	0.79197	0.12543	0.45793	1.153
Mof_C 	C 	0.60397	0.74093	0.06592	-0.17
Mof_H 	H 	0.61627	0.70493	0.07713	0.091
Mof_C 	C 	0.56687	0.72203	0.03317	-0.005
Mof_C 	C 	0.67777	0.88773	0.13743	-0.937
Mof_C 	C 	0.70657	0.80803	0.22473	0.066
Mof_H 	H 	0.70527	0.76163	0.23333	0.456
Mof_C 	C 	0.68837	0.80913	0.18933	1.628
Mof_H 	H 	0.66907	0.76293	0.17523	0.143
Mof_C 	C 	0.69907	0.87983	0.17533	-1.187
Mof_C 	C 	0.71567	0.77533	0.19713	-0.719
Mof_H 	H 	0.71687	0.73023	0.18863	0.343
Mof_C 	C 	0.73087	0.93453	0.23213	-0.708
Mof_H 	H 	0.74577	0.97833	0.24743	0.149
Mof_C 	C 	0.76707	0.79053	0.35024	0.357
Mof_O 	O 	0.33803	0.27747	0.46287	-0.05
Mof_O 	O 	0.40523	0.32927	0.45567	-0.021
Mof_O 	O 	0.44884	0.15139	0.65279	-0.424
Mof_O 	O 	0.28985	0.07183	0.63112	-0.476
Mof_H 	H 	0.45863	0.45877	0.79127	1.16
Mof_C 	C 	0.27063	0.07427	0.39926	-0.17
Mof_H 	H 	0.28293	0.03827	0.41047	0.091
Mof_C 	C 	0.23353	0.05537	0.36651	-0.006
Mof_C 	C 	0.34443	0.22107	0.47077	-0.932
Mof_C 	C 	0.37323	0.14137	0.55807	0.065
Mof_H 	H 	0.37193	0.09497	0.56667	0.453
Mof_C 	C 	0.35503	0.14247	0.52267	1.62
Mof_H 	H 	0.33573	0.09627	0.50857	0.143
Mof_C 	C 	0.36573	0.21317	0.50867	-1.181
Mof_C 	C 	0.38233	0.10867	0.53047	-0.717
Mof_H 	H 	0.38353	0.06357	0.52197	0.342
Mof_C 	C 	0.39753	0.26787	0.56547	-0.703
Mof_H 	H 	0.41243	0.31167	0.58077	0.148
Mof_C 	C 	0.43373	0.12387	0.68358	0.357
Mof_O 	O 	0.3892	0.3939	0.7962	-0.05
Mof_O 	O 	0.3374	0.4093	0.789	-0.021
Mof_O 	O 	0.51528	0.63079	0.98612	-0.424
Mof_O 	O 	0.59484	0.55136	0.96445	-0.476
Mof_H 	H 	0.2079	0.3332	0.1246	1.159
Mof_C 	C 	0.5924	0.5297	0.73259	-0.171
Mof_H 	H 	0.6284	0.578	0.7438	0.091
Mof_C 	C 	0.6113	0.5115	0.69984	-0.005
Mof_C 	C 	0.4456	0.4567	0.8041	-0.938
Mof_C 	C 	0.5253	0.5652	0.8914	0.066
Mof_H 	H 	0.5717	0.6103	0.9	0.457
Mof_C 	C 	0.5242	0.5459	0.856	1.631
Mof_H 	H 	0.5704	0.5728	0.8419	0.143
Mof_C 	C 	0.4535	0.4859	0.842	-1.189
Mof_C 	C 	0.558	0.607	0.8638	-0.72
Mof_H 	H 	0.6031	0.6533	0.8553	0.343
Mof_C 	C 	0.3988	0.463	0.8988	-0.71
Mof_H 	H 	0.355	0.4341	0.9141	0.149
Mof_C 	C 	0.5428	0.6432	0.01691	0.357
Mof_O 	O 	0.05587	0.72723	0.12953	-0.049
Mof_O 	O 	0.00407	0.74263	0.12233	-0.02
Mof_O 	O 	0.18195	0.96412	0.31945	-0.424
Mof_O 	O 	0.26151	0.88469	0.29778	-0.476
Mof_H 	H 	0.87457	0.66653	0.45793	1.155
Mof_C 	C 	0.25907	0.86303	0.06592	-0.17
Mof_H 	H 	0.29507	0.91133	0.07713	0.092
Mof_C 	C 	0.27797	0.84483	0.03317	-0.006
Mof_C 	C 	0.11227	0.79003	0.13743	-0.937
Mof_C 	C 	0.19197	0.89853	0.22473	0.066
Mof_H 	H 	0.23837	0.94363	0.23333	0.456
Mof_C 	C 	0.19087	0.87923	0.18933	1.629
Mof_H 	H 	0.23707	0.90613	0.17523	0.143
Mof_C 	C 	0.12017	0.81923	0.17533	-1.188
Mof_C 	C 	0.22467	0.94033	0.19713	-0.719
Mof_H 	H 	0.26977	0.98663	0.18863	0.343
Mof_C 	C 	0.06547	0.79633	0.23213	-0.709
Mof_H 	H 	0.02167	0.76743	0.24743	0.15
Mof_C 	C 	0.20947	0.97653	0.35024	0.358
Mof_O 	O 	0.72253	0.06057	0.46287	-0.051
Mof_O 	O 	0.67073	0.07597	0.45567	-0.021
Mof_O 	O 	0.84861	0.29746	0.65279	-0.424
Mof_O 	O 	0.92817	0.21803	0.63112	-0.476
Mof_H 	H 	0.54123	0.99987	0.79127	1.153
Mof_C 	C 	0.92573	0.19637	0.39926	-0.17
Mof_H 	H 	0.96173	0.24467	0.41047	0.091
Mof_C 	C 	0.94463	0.17817	0.36651	-0.006
Mof_C 	C 	0.77893	0.12337	0.47077	-0.931
Mof_C 	C 	0.85863	0.23187	0.55807	0.065
Mof_H 	H 	0.90503	0.27697	0.56667	0.452
Mof_C 	C 	0.85753	0.21257	0.52267	1.616
Mof_H 	H 	0.90373	0.23947	0.50857	0.143
Mof_C 	C 	0.78683	0.15257	0.50867	-1.178
Mof_C 	C 	0.89133	0.27367	0.53047	-0.715
Mof_H 	H 	0.93643	0.31997	0.52197	0.342
Mof_C 	C 	0.73213	0.12967	0.56547	-0.701
Mof_H 	H 	0.68833	0.10077	0.58077	0.148
Mof_C 	C 	0.87613	0.30987	0.68358	0.357
Mof_O 	O 	0.6061	0.9953	0.7962	-0.051
Mof_O 	O 	0.5907	0.9281	0.789	-0.021
Mof_O 	O 	0.36921	0.88449	0.98612	-0.425
Mof_O 	O 	0.44864	0.04348	0.96445	-0.476
Mof_H 	H 	0.6668	0.8747	0.1246	1.158
Mof_C 	C 	0.4703	0.0627	0.73259	-0.17
Mof_H 	H 	0.422	0.0504	0.7438	0.092
Mof_C 	C 	0.4885	0.0998	0.69984	-0.005
Mof_C 	C 	0.5433	0.9889	0.8041	-0.932
Mof_C 	C 	0.4348	0.9601	0.8914	0.066
Mof_H 	H 	0.3897	0.9614	0.9	0.453
Mof_C 	C 	0.4541	0.9783	0.856	1.62
Mof_H 	H 	0.4272	0.9976	0.8419	0.142
Mof_C 	C 	0.5141	0.9676	0.842	-1.181
Mof_C 	C 	0.393	0.951	0.8638	-0.716
Mof_H 	H 	0.3467	0.9498	0.8553	0.342
Mof_C 	C 	0.537	0.9358	0.8988	-0.704
Mof_H 	H 	0.5659	0.9209	0.9141	0.148
Mof_C 	C 	0.3568	0.8996	0.01691	0.358
Mof_O 	O 	0.27277	0.32863	0.12953	-0.05
Mof_O 	O 	0.25737	0.26143	0.12233	-0.021
Mof_O 	O 	0.03588	0.21782	0.31945	-0.424
Mof_O 	O 	0.11531	0.37681	0.29778	-0.476
Mof_H 	H 	0.33347	0.20803	0.45793	1.154
Mof_C 	C 	0.13697	0.39603	0.06592	-0.17
Mof_H 	H 	0.08867	0.38373	0.07713	0.092
Mof_C 	C 	0.15517	0.43313	0.03317	-0.005
Mof_C 	C 	0.20997	0.32223	0.13743	-0.937
Mof_C 	C 	0.10147	0.29343	0.22473	0.066
Mof_H 	H 	0.05637	0.29473	0.23333	0.456
Mof_C 	C 	0.12077	0.31163	0.18933	1.628
Mof_H 	H 	0.09387	0.33093	0.17523	0.143
Mof_C 	C 	0.18077	0.30093	0.17533	-1.187
Mof_C 	C 	0.05967	0.28433	0.19713	-0.719
Mof_H 	H 	0.01337	0.28313	0.18863	0.343
Mof_C 	C 	0.20367	0.26913	0.23213	-0.708
Mof_H 	H 	0.23257	0.25423	0.24743	0.149
Mof_C 	C 	0.02347	0.23293	0.35024	0.358
Mof_O 	O 	0.93943	0.66197	0.46287	-0.05
Mof_O 	O 	0.92403	0.59477	0.45567	-0.021
Mof_O 	O 	0.70254	0.55116	0.65279	-0.424
Mof_O 	O 	0.78197	0.71015	0.63112	-0.476
Mof_H 	H 	0.00013	0.54137	0.79127	1.153
Mof_C 	C 	0.80363	0.72937	0.39926	-0.17
Mof_H 	H 	0.75533	0.71707	0.41047	0.091
Mof_C 	C 	0.82183	0.76647	0.36651	-0.006
Mof_C 	C 	0.87663	0.65557	0.47077	-0.933
Mof_C 	C 	0.76813	0.62677	0.55807	0.065
Mof_H 	H 	0.72303	0.62807	0.56667	0.453
Mof_C 	C 	0.78743	0.64497	0.52267	1.62
Mof_H 	H 	0.76053	0.66427	0.50857	0.143
Mof_C 	C 	0.84743	0.63427	0.50867	-1.181
Mof_C 	C 	0.72633	0.61767	0.53047	-0.717
Mof_H 	H 	0.68003	0.61647	0.52197	0.342
Mof_C 	C 	0.87033	0.60247	0.56547	-0.703
Mof_H 	H 	0.89923	0.58757	0.58077	0.148
Mof_C 	C 	0.69013	0.56627	0.68358	0.357
Mof_O 	O 	0.6108	0.0047	0.2038	-0.051
Mof_O 	O 	0.6626	0.0719	0.211	-0.021
Mof_O 	O 	0.48472	0.11551	0.01388	-0.424
Mof_O 	O 	0.40516	0.95652	0.03555	-0.476
Mof_H 	H 	0.7921	0.1253	0.8754	1.159
Mof_C 	C 	0.4076	0.9373	0.26741	-0.17
Mof_H 	H 	0.3716	0.9496	0.2562	0.092
Mof_C 	C 	0.3887	0.9002	0.30016	-0.005
Mof_C 	C 	0.5544	0.0111	0.1959	-0.932
Mof_C 	C 	0.4747	0.0399	0.1086	0.066
Mof_H 	H 	0.4283	0.0386	0.1	0.453
Mof_C 	C 	0.4758	0.0217	0.144	1.62
Mof_H 	H 	0.4296	0.0024	0.1581	0.142
Mof_C 	C 	0.5465	0.0324	0.158	-1.181
Mof_C 	C 	0.442	0.049	0.1362	-0.716
Mof_H 	H 	0.3969	0.0502	0.1447	0.342
Mof_C 	C 	0.6012	0.0642	0.1012	-0.704
Mof_H 	H 	0.645	0.0791	0.0859	0.148
Mof_C 	C 	0.4572	0.1004	0.98309	0.357
Mof_O 	O 	0.27747	0.33803	0.53713	-0.05
Mof_O 	O 	0.32927	0.40523	0.54433	-0.021
Mof_O 	O 	0.15139	0.44884	0.34721	-0.424
Mof_O 	O 	0.07183	0.28985	0.36888	-0.476
Mof_H 	H 	0.45877	0.45863	0.20873	1.16
Mof_C 	C 	0.07427	0.27063	0.60074	-0.17
Mof_H 	H 	0.03827	0.28293	0.58953	0.091
Mof_C 	C 	0.05537	0.23353	0.63349	-0.006
Mof_C 	C 	0.22107	0.34443	0.52923	-0.932
Mof_C 	C 	0.14137	0.37323	0.44193	0.065
Mof_H 	H 	0.09497	0.37193	0.43333	0.453
Mof_C 	C 	0.14247	0.35503	0.47733	1.62
Mof_H 	H 	0.09627	0.33573	0.49143	0.143
Mof_C 	C 	0.21317	0.36573	0.49133	-1.181
Mof_C 	C 	0.10867	0.38233	0.46953	-0.717
Mof_H 	H 	0.06357	0.38353	0.47803	0.342
Mof_C 	C 	0.26787	0.39753	0.43453	-0.703
Mof_H 	H 	0.31167	0.41243	0.41923	0.148
Mof_C 	C 	0.12387	0.43373	0.31642	0.357
Mof_O 	O 	0.94413	0.67137	0.87047	-0.05
Mof_O 	O 	0.99593	0.73857	0.87767	-0.021
Mof_O 	O 	0.81805	0.78218	0.68055	-0.424
Mof_O 	O 	0.73849	0.62319	0.70222	-0.476
Mof_H 	H 	0.12543	0.79197	0.54207	1.153
Mof_C 	C 	0.74093	0.60397	0.93408	-0.17
Mof_H 	H 	0.70493	0.61627	0.92287	0.091
Mof_C 	C 	0.72203	0.56687	0.96683	-0.005
Mof_C 	C 	0.88773	0.67777	0.86257	-0.937
Mof_C 	C 	0.80803	0.70657	0.77527	0.066
Mof_H 	H 	0.76163	0.70527	0.76667	0.456
Mof_C 	C 	0.80913	0.68837	0.81067	1.628
Mof_H 	H 	0.76293	0.66907	0.82477	0.143
Mof_C 	C 	0.87983	0.69907	0.82467	-1.187
Mof_C 	C 	0.77533	0.71567	0.80287	-0.719
Mof_H 	H 	0.73023	0.71687	0.81137	0.343
Mof_C 	C 	0.93453	0.73087	0.76787	-0.708
Mof_H 	H 	0.97833	0.74577	0.75257	0.149
Mof_C 	C 	0.79053	0.76707	0.64976	0.357
Mof_O 	O 	0.3939	0.3892	0.2038	-0.05
Mof_O 	O 	0.4093	0.3374	0.211	-0.021
Mof_O 	O 	0.63079	0.51528	0.01388	-0.424
Mof_O 	O 	0.55136	0.59484	0.03555	-0.476
Mof_H 	H 	0.3332	0.2079	0.8754	1.159
Mof_C 	C 	0.5297	0.5924	0.26741	-0.171
Mof_H 	H 	0.578	0.6284	0.2562	0.091
Mof_C 	C 	0.5115	0.6113	0.30016	-0.005
Mof_C 	C 	0.4567	0.4456	0.1959	-0.938
Mof_C 	C 	0.5652	0.5253	0.1086	0.066
Mof_H 	H 	0.6103	0.5717	0.1	0.457
Mof_C 	C 	0.5459	0.5242	0.144	1.631
Mof_H 	H 	0.5728	0.5704	0.1581	0.143
Mof_C 	C 	0.4859	0.4535	0.158	-1.189
Mof_C 	C 	0.607	0.558	0.1362	-0.72
Mof_H 	H 	0.6533	0.6031	0.1447	0.343
Mof_C 	C 	0.463	0.3988	0.1012	-0.71
Mof_H 	H 	0.4341	0.355	0.0859	0.149
Mof_C 	C 	0.6432	0.5428	0.98309	0.357
Mof_O 	O 	0.06057	0.72253	0.53713	-0.051
Mof_O 	O 	0.07597	0.67073	0.54433	-0.021
Mof_O 	O 	0.29746	0.84861	0.34721	-0.424
Mof_O 	O 	0.21803	0.92817	0.36888	-0.476
Mof_H 	H 	0.99987	0.54123	0.20873	1.153
Mof_C 	C 	0.19637	0.92573	0.60074	-0.17
Mof_H 	H 	0.24467	0.96173	0.58953	0.091
Mof_C 	C 	0.17817	0.94463	0.63349	-0.006
Mof_C 	C 	0.12337	0.77893	0.52923	-0.931
Mof_C 	C 	0.23187	0.85863	0.44193	0.065
Mof_H 	H 	0.27697	0.90503	0.43333	0.452
Mof_C 	C 	0.21257	0.85753	0.47733	1.616
Mof_H 	H 	0.23947	0.90373	0.49143	0.143
Mof_C 	C 	0.15257	0.78683	0.49133	-1.178
Mof_C 	C 	0.27367	0.89133	0.46953	-0.715
Mof_H 	H 	0.31997	0.93643	0.47803	0.342
Mof_C 	C 	0.12967	0.73213	0.43453	-0.701
Mof_H 	H 	0.10077	0.68833	0.41923	0.148
Mof_C 	C 	0.30987	0.87613	0.31642	0.357
Mof_O 	O 	0.72723	0.05587	0.87047	-0.049
Mof_O 	O 	0.74263	0.00407	0.87767	-0.02
Mof_O 	O 	0.96412	0.18195	0.68055	-0.424
Mof_O 	O 	0.88469	0.26151	0.70222	-0.476
Mof_H 	H 	0.66653	0.87457	0.54207	1.155
Mof_C 	C 	0.86303	0.25907	0.93408	-0.17
Mof_H 	H 	0.91133	0.29507	0.92287	0.092
Mof_C 	C 	0.84483	0.27797	0.96683	-0.006
Mof_C 	C 	0.79003	0.11227	0.86257	-0.937
Mof_C 	C 	0.89853	0.19197	0.77527	0.066
Mof_H 	H 	0.94363	0.23837	0.76667	0.456
Mof_C 	C 	0.87923	0.19087	0.81067	1.629
Mof_H 	H 	0.90613	0.23707	0.82477	0.143
Mof_C 	C 	0.81923	0.12017	0.82467	-1.188
Mof_C 	C 	0.94033	0.22467	0.80287	-0.719
Mof_H 	H 	0.98663	0.26977	0.81137	0.343
Mof_C 	C 	0.79633	0.06547	0.76787	-0.709
Mof_H 	H 	0.76743	0.02167	0.75257	0.15
Mof_C 	C 	0.97653	0.20947	0.64976	0.358
Mof_O 	O 	0.9953	0.6061	0.2038	-0.051
Mof_O 	O 	0.9281	0.5907	0.211	-0.021
Mof_O 	O 	0.88449	0.36921	0.01388	-0.425
Mof_O 	O 	0.04348	0.44864	0.03555	-0.476
Mof_H 	H 	0.8747	0.6668	0.8754	1.158
Mof_C 	C 	0.0627	0.4703	0.26741	-0.17
Mof_H 	H 	0.0504	0.422	0.2562	0.092
Mof_C 	C 	0.0998	0.4885	0.30016	-0.005
Mof_C 	C 	0.9889	0.5433	0.1959	-0.932
Mof_C 	C 	0.9601	0.4348	0.1086	0.066
Mof_H 	H 	0.9614	0.3897	0.1	0.453
Mof_C 	C 	0.9783	0.4541	0.144	1.62
Mof_H 	H 	0.9976	0.4272	0.1581	0.142
Mof_C 	C 	0.9676	0.5141	0.158	-1.181
Mof_C 	C 	0.951	0.393	0.1362	-0.716
Mof_H 	H 	0.9498	0.3467	0.1447	0.342
Mof_C 	C 	0.9358	0.537	0.1012	-0.704
Mof_H 	H 	0.9209	0.5659	0.0859	0.148
Mof_C 	C 	0.8996	0.3568	0.98309	0.358
Mof_O 	O 	0.66197	0.93943	0.53713	-0.05
Mof_O 	O 	0.59477	0.92403	0.54433	-0.021
Mof_O 	O 	0.55116	0.70254	0.34721	-0.424
Mof_O 	O 	0.71015	0.78197	0.36888	-0.476
Mof_H 	H 	0.54137	0.00013	0.20873	1.153
Mof_C 	C 	0.72937	0.80363	0.60074	-0.17
Mof_H 	H 	0.71707	0.75533	0.58953	0.091
Mof_C 	C 	0.76647	0.82183	0.63349	-0.006
Mof_C 	C 	0.65557	0.87663	0.52923	-0.933
Mof_C 	C 	0.62677	0.76813	0.44193	0.065
Mof_H 	H 	0.62807	0.72303	0.43333	0.453
Mof_C 	C 	0.64497	0.78743	0.47733	1.62
Mof_H 	H 	0.66427	0.76053	0.49143	0.143
Mof_C 	C 	0.63427	0.84743	0.49133	-1.181
Mof_C 	C 	0.61767	0.72633	0.46953	-0.717
Mof_H 	H 	0.61647	0.68003	0.47803	0.342
Mof_C 	C 	0.60247	0.87033	0.43453	-0.703
Mof_H 	H 	0.58757	0.89923	0.41923	0.148
Mof_C 	C 	0.56627	0.69013	0.31642	0.357
Mof_O 	O 	0.32863	0.27277	0.87047	-0.05
Mof_O 	O 	0.26143	0.25737	0.87767	-0.021
Mof_O 	O 	0.21782	0.03588	0.68055	-0.424
Mof_O 	O 	0.37681	0.11531	0.70222	-0.476
Mof_H 	H 	0.20803	0.33347	0.54207	1.154
Mof_C 	C 	0.39603	0.13697	0.93408	-0.17
Mof_H 	H 	0.38373	0.08867	0.92287	0.092
Mof_C 	C 	0.43313	0.15517	0.96683	-0.005
Mof_C 	C 	0.32223	0.20997	0.86257	-0.937
Mof_C 	C 	0.29343	0.10147	0.77527	0.066
Mof_H 	H 	0.29473	0.05637	0.76667	0.456
Mof_C 	C 	0.31163	0.12077	0.81067	1.628
Mof_H 	H 	0.33093	0.09387	0.82477	0.143
Mof_C 	C 	0.30093	0.18077	0.82467	-1.187
Mof_C 	C 	0.28433	0.05967	0.80287	-0.719
Mof_H 	H 	0.28313	0.01337	0.81137	0.343
Mof_C 	C 	0.26913	0.20367	0.76787	-0.708
Mof_H 	H 	0.25423	0.23257	0.75257	0.149
Mof_C 	C 	0.23293	0.02347	0.64976	0.358
Mof_O 	O 	0.9953	0.3892	0.2038	-0.051
Mof_O 	O 	0.9281	0.3374	0.211	-0.021
Mof_O 	O 	0.88449	0.51528	0.01388	-0.424
Mof_O 	O 	0.04348	0.59484	0.03555	-0.476
Mof_H 	H 	0.8747	0.2079	0.8754	1.159
Mof_C 	C 	0.0627	0.5924	0.26741	-0.17
Mof_H 	H 	0.0504	0.6284	0.2562	0.092
Mof_C 	C 	0.0998	0.6113	0.30016	-0.005
Mof_C 	C 	0.9889	0.4456	0.1959	-0.932
Mof_C 	C 	0.9601	0.5253	0.1086	0.066
Mof_H 	H 	0.9614	0.5717	0.1	0.453
Mof_C 	C 	0.9783	0.5242	0.144	1.62
Mof_H 	H 	0.9976	0.5704	0.1581	0.142
Mof_C 	C 	0.9676	0.4535	0.158	-1.181
Mof_C 	C 	0.951	0.558	0.1362	-0.716
Mof_H 	H 	0.9498	0.6031	0.1447	0.342
Mof_C 	C 	0.9358	0.3988	0.1012	-0.704
Mof_H 	H 	0.9209	0.355	0.0859	0.148
Mof_C 	C 	0.8996	0.5428	0.98309	0.357
Mof_O 	O 	0.66197	0.72253	0.53713	-0.05
Mof_O 	O 	0.59477	0.67073	0.54433	-0.021
Mof_O 	O 	0.55116	0.84861	0.34721	-0.424
Mof_O 	O 	0.71015	0.92817	0.36888	-0.476
Mof_H 	H 	0.54137	0.54123	0.20873	1.16
Mof_C 	C 	0.72937	0.92573	0.60074	-0.17
Mof_H 	H 	0.71707	0.96173	0.58953	0.091
Mof_C 	C 	0.76647	0.94463	0.63349	-0.006
Mof_C 	C 	0.65557	0.77893	0.52923	-0.932
Mof_C 	C 	0.62677	0.85863	0.44193	0.065
Mof_H 	H 	0.62807	0.90503	0.43333	0.453
Mof_C 	C 	0.64497	0.85753	0.47733	1.62
Mof_H 	H 	0.66427	0.90373	0.49143	0.143
Mof_C 	C 	0.63427	0.78683	0.49133	-1.181
Mof_C 	C 	0.61767	0.89133	0.46953	-0.717
Mof_H 	H 	0.61647	0.93643	0.47803	0.342
Mof_C 	C 	0.60247	0.73213	0.43453	-0.703
Mof_H 	H 	0.58757	0.68833	0.41923	0.148
Mof_C 	C 	0.56627	0.87613	0.31642	0.357
Mof_O 	O 	0.32863	0.05587	0.87047	-0.05
Mof_O 	O 	0.26143	0.00407	0.87767	-0.021
Mof_O 	O 	0.21782	0.18195	0.68055	-0.424
Mof_O 	O 	0.37681	0.26151	0.70222	-0.476
Mof_H 	H 	0.20803	0.87457	0.54207	1.153
Mof_C 	C 	0.39603	0.25907	0.93408	-0.17
Mof_H 	H 	0.38373	0.29507	0.92287	0.091
Mof_C 	C 	0.43313	0.27797	0.96683	-0.005
Mof_C 	C 	0.32223	0.11227	0.86257	-0.937
Mof_C 	C 	0.29343	0.19197	0.77527	0.066
Mof_H 	H 	0.29473	0.23837	0.76667	0.456
Mof_C 	C 	0.31163	0.19087	0.81067	1.628
Mof_H 	H 	0.33093	0.23707	0.82477	0.143
Mof_C 	C 	0.30093	0.12017	0.82467	-1.187
Mof_C 	C 	0.28433	0.22467	0.80287	-0.719
Mof_H 	H 	0.28313	0.26977	0.81137	0.343
Mof_C 	C 	0.26913	0.06547	0.76787	-0.708
Mof_H 	H 	0.25423	0.02167	0.75257	0.149
Mof_C 	C 	0.23293	0.20947	0.64976	0.357
Mof_O 	O 	0.6108	0.6061	0.2038	-0.05
Mof_O 	O 	0.6626	0.5907	0.211	-0.021
Mof_O 	O 	0.48472	0.36921	0.01388	-0.424
Mof_O 	O 	0.40516	0.44864	0.03555	-0.476
Mof_H 	H 	0.7921	0.6668	0.8754	1.159
Mof_C 	C 	0.4076	0.4703	0.26741	-0.171
Mof_H 	H 	0.3716	0.422	0.2562	0.091
Mof_C 	C 	0.3887	0.4885	0.30016	-0.005
Mof_C 	C 	0.5544	0.5433	0.1959	-0.938
Mof_C 	C 	0.4747	0.4348	0.1086	0.066
Mof_H 	H 	0.4283	0.3897	0.1	0.457
Mof_C 	C 	0.4758	0.4541	0.144	1.631
Mof_H 	H 	0.4296	0.4272	0.1581	0.143
Mof_C 	C 	0.5465	0.5141	0.158	-1.189
Mof_C 	C 	0.442	0.393	0.1362	-0.72
Mof_H 	H 	0.3969	0.3467	0.1447	0.343
Mof_C 	C 	0.6012	0.537	0.1012	-0.71
Mof_H 	H 	0.645	0.5659	0.0859	0.149
Mof_C 	C 	0.4572	0.3568	0.98309	0.357
Mof_O 	O 	0.27747	0.93943	0.53713	-0.051
Mof_O 	O 	0.32927	0.92403	0.54433	-0.021
Mof_O 	O 	0.15139	0.70254	0.34721	-0.424
Mof_O 	O 	0.07183	0.78197	0.36888	-0.476
Mof_H 	H 	0.45877	0.00013	0.20873	1.153
Mof_C 	C 	0.07427	0.80363	0.60074	-0.17
Mof_H 	H 	0.03827	0.75533	0.58953	0.091
Mof_C 	C 	0.05537	0.82183	0.63349	-0.006
Mof_C 	C 	0.22107	0.87663	0.52923	-0.931
Mof_C 	C 	0.14137	0.76813	0.44193	0.065
Mof_H 	H 	0.09497	0.72303	0.43333	0.452
Mof_C 	C 	0.14247	0.78743	0.47733	1.616
Mof_H 	H 	0.09627	0.76053	0.49143	0.143
Mof_C 	C 	0.21317	0.84743	0.49133	-1.178
Mof_C 	C 	0.10867	0.72633	0.46953	-0.715
Mof_H 	H 	0.06357	0.68003	0.47803	0.342
Mof_C 	C 	0.26787	0.87033	0.43453	-0.701
Mof_H 	H 	0.31167	0.89923	0.41923	0.148
Mof_C 	C 	0.12387	0.69013	0.31642	0.357
Mof_O 	O 	0.94413	0.27277	0.87047	-0.049
Mof_O 	O 	0.99593	0.25737	0.87767	-0.02
Mof_O 	O 	0.81805	0.03588	0.68055	-0.424
Mof_O 	O 	0.73849	0.11531	0.70222	-0.476
Mof_H 	H 	0.12543	0.33347	0.54207	1.155
Mof_C 	C 	0.74093	0.13697	0.93408	-0.17
Mof_H 	H 	0.70493	0.08867	0.92287	0.092
Mof_C 	C 	0.72203	0.15517	0.96683	-0.006
Mof_C 	C 	0.88773	0.20997	0.86257	-0.937
Mof_C 	C 	0.80803	0.10147	0.77527	0.066
Mof_H 	H 	0.76163	0.05637	0.76667	0.456
Mof_C 	C 	0.80913	0.12077	0.81067	1.629
Mof_H 	H 	0.76293	0.09387	0.82477	0.143
Mof_C 	C 	0.87983	0.18077	0.82467	-1.188
Mof_C 	C 	0.77533	0.05967	0.80287	-0.719
Mof_H 	H 	0.73023	0.01337	0.81137	0.343
Mof_C 	C 	0.93453	0.20367	0.76787	-0.709
Mof_H 	H 	0.97833	0.23257	0.75257	0.15
Mof_C 	C 	0.79053	0.02347	0.64976	0.358
Mof_O 	O 	0.3939	0.0047	0.2038	-0.051
Mof_O 	O 	0.4093	0.0719	0.211	-0.021
Mof_O 	O 	0.63079	0.11551	0.01388	-0.425
Mof_O 	O 	0.55136	0.95652	0.03555	-0.476
Mof_H 	H 	0.3332	0.1253	0.8754	1.158
Mof_C 	C 	0.5297	0.9373	0.26741	-0.17
Mof_H 	H 	0.578	0.9496	0.2562	0.092
Mof_C 	C 	0.5115	0.9002	0.30016	-0.005
Mof_C 	C 	0.4567	0.0111	0.1959	-0.932
Mof_C 	C 	0.5652	0.0399	0.1086	0.066
Mof_H 	H 	0.6103	0.0386	0.1	0.453
Mof_C 	C 	0.5459	0.0217	0.144	1.62
Mof_H 	H 	0.5728	0.0024	0.1581	0.142
Mof_C 	C 	0.4859	0.0324	0.158	-1.181
Mof_C 	C 	0.607	0.049	0.1362	-0.716
Mof_H 	H 	0.6533	0.0502	0.1447	0.342
Mof_C 	C 	0.463	0.0642	0.1012	-0.704
Mof_H 	H 	0.4341	0.0791	0.0859	0.148
Mof_C 	C 	0.6432	0.1004	0.98309	0.358
Mof_O 	O 	0.06057	0.33803	0.53713	-0.05
Mof_O 	O 	0.07597	0.40523	0.54433	-0.021
Mof_O 	O 	0.29746	0.44884	0.34721	-0.424
Mof_O 	O 	0.21803	0.28985	0.36888	-0.476
Mof_H 	H 	0.99987	0.45863	0.20873	1.153
Mof_C 	C 	0.19637	0.27063	0.60074	-0.17
Mof_H 	H 	0.24467	0.28293	0.58953	0.091
Mof_C 	C 	0.17817	0.23353	0.63349	-0.006
Mof_C 	C 	0.12337	0.34443	0.52923	-0.933
Mof_C 	C 	0.23187	0.37323	0.44193	0.065
Mof_H 	H 	0.27697	0.37193	0.43333	0.453
Mof_C 	C 	0.21257	0.35503	0.47733	1.62
Mof_H 	H 	0.23947	0.33573	0.49143	0.143
Mof_C 	C 	0.15257	0.36573	0.49133	-1.181
Mof_C 	C 	0.27367	0.38233	0.46953	-0.717
Mof_H 	H 	0.31997	0.38353	0.47803	0.342
Mof_C 	C 	0.12967	0.39753	0.43453	-0.703
Mof_H 	H 	0.10077	0.41243	0.41923	0.148
Mof_C 	C 	0.30987	0.43373	0.31642	0.357
Mof_O 	O 	0.72723	0.67137	0.87047	-0.05
Mof_O 	O 	0.74263	0.73857	0.87767	-0.021
Mof_O 	O 	0.96412	0.78218	0.68055	-0.424
Mof_O 	O 	0.88469	0.62319	0.70222	-0.476
Mof_H 	H 	0.66653	0.79197	0.54207	1.154
Mof_C 	C 	0.86303	0.60397	0.93408	-0.17
Mof_H 	H 	0.91133	0.61627	0.92287	0.092
Mof_C 	C 	0.84483	0.56687	0.96683	-0.005
Mof_C 	C 	0.79003	0.67777	0.86257	-0.937
Mof_C 	C 	0.89853	0.70657	0.77527	0.066
Mof_H 	H 	0.94363	0.70527	0.76667	0.456
Mof_C 	C 	0.87923	0.68837	0.81067	1.628
Mof_H 	H 	0.90613	0.66907	0.82477	0.143
Mof_C 	C 	0.81923	0.69907	0.82467	-1.187
Mof_C 	C 	0.94033	0.71567	0.80287	-0.719
Mof_H 	H 	0.98663	0.71687	0.81137	0.343
Mof_C 	C 	0.79633	0.73087	0.76787	-0.708
Mof_H 	H 	0.76743	0.74577	0.75257	0.149
Mof_C 	C 	0.97653	0.76707	0.64976	0.358
Mof_O 	O 	0.3892	0.9953	0.7962	-0.051
Mof_O 	O 	0.3374	0.9281	0.789	-0.021
Mof_O 	O 	0.51528	0.88449	0.98612	-0.424
Mof_O 	O 	0.59484	0.04348	0.96445	-0.476
Mof_H 	H 	0.2079	0.8747	0.1246	1.159
Mof_C 	C 	0.5924	0.0627	0.73259	-0.17
Mof_H 	H 	0.6284	0.0504	0.7438	0.092
Mof_C 	C 	0.6113	0.0998	0.69984	-0.005
Mof_C 	C 	0.4456	0.9889	0.8041	-0.932
Mof_C 	C 	0.5253	0.9601	0.8914	0.066
Mof_H 	H 	0.5717	0.9614	0.9	0.453
Mof_C 	C 	0.5242	0.9783	0.856	1.62
Mof_H 	H 	0.5704	0.9976	0.8419	0.142
Mof_C 	C 	0.4535	0.9676	0.842	-1.181
Mof_C 	C 	0.558	0.951	0.8638	-0.716
Mof_H 	H 	0.6031	0.9498	0.8553	0.342
Mof_C 	C 	0.3988	0.9358	0.8988	-0.704
Mof_H 	H 	0.355	0.9209	0.9141	0.148
Mof_C 	C 	0.5428	0.8996	0.01691	0.357
Mof_O 	O 	0.05587	0.32863	0.12953	-0.05
Mof_O 	O 	0.00407	0.26143	0.12233	-0.021
Mof_O 	O 	0.18195	0.21782	0.31945	-0.424
Mof_O 	O 	0.26151	0.37681	0.29778	-0.476
Mof_H 	H 	0.87457	0.20803	0.45793	1.153
Mof_C 	C 	0.25907	0.39603	0.06592	-0.17
Mof_H 	H 	0.29507	0.38373	0.07713	0.091
Mof_C 	C 	0.27797	0.43313	0.03317	-0.005
Mof_C 	C 	0.11227	0.32223	0.13743	-0.937
Mof_C 	C 	0.19197	0.29343	0.22473	0.066
Mof_H 	H 	0.23837	0.29473	0.23333	0.456
Mof_C 	C 	0.19087	0.31163	0.18933	1.628
Mof_H 	H 	0.23707	0.33093	0.17523	0.143
Mof_C 	C 	0.12017	0.30093	0.17533	-1.187
Mof_C 	C 	0.22467	0.28433	0.19713	-0.719
Mof_H 	H 	0.26977	0.28313	0.18863	0.343
Mof_C 	C 	0.06547	0.26913	0.23213	-0.708
Mof_H 	H 	0.02167	0.25423	0.24743	0.149
Mof_C 	C 	0.20947	0.23293	0.35024	0.357
Mof_O 	O 	0.72253	0.66197	0.46287	-0.05
Mof_O 	O 	0.67073	0.59477	0.45567	-0.021
Mof_O 	O 	0.84861	0.55116	0.65279	-0.424
Mof_O 	O 	0.92817	0.71015	0.63112	-0.476
Mof_H 	H 	0.54123	0.54137	0.79127	1.16
Mof_C 	C 	0.92573	0.72937	0.39926	-0.17
Mof_H 	H 	0.96173	0.71707	0.41047	0.091
Mof_C 	C 	0.94463	0.76647	0.36651	-0.006
Mof_C 	C 	0.77893	0.65557	0.47077	-0.932
Mof_C 	C 	0.85863	0.62677	0.55807	0.065
Mof_H 	H 	0.90503	0.62807	0.56667	0.453
Mof_C 	C 	0.85753	0.64497	0.52267	1.62
Mof_H 	H 	0.90373	0.66427	0.50857	0.143
Mof_C 	C 	0.78683	0.63427	0.50867	-1.181
Mof_C 	C 	0.89133	0.61767	0.53047	-0.717
Mof_H 	H 	0.93643	0.61647	0.52197	0.342
Mof_C 	C 	0.73213	0.60247	0.56547	-0.703
Mof_H 	H 	0.68833	0.58757	0.58077	0.148
Mof_C 	C 	0.87613	0.56627	0.68358	0.357
Mof_O 	O 	0.6061	0.6108	0.7962	-0.05
Mof_O 	O 	0.5907	0.6626	0.789	-0.021
Mof_O 	O 	0.36921	0.48472	0.98612	-0.424
Mof_O 	O 	0.44864	0.40516	0.96445	-0.476
Mof_H 	H 	0.6668	0.7921	0.1246	1.159
Mof_C 	C 	0.4703	0.4076	0.73259	-0.171
Mof_H 	H 	0.422	0.3716	0.7438	0.091
Mof_C 	C 	0.4885	0.3887	0.69984	-0.005
Mof_C 	C 	0.5433	0.5544	0.8041	-0.938
Mof_C 	C 	0.4348	0.4747	0.8914	0.066
Mof_H 	H 	0.3897	0.4283	0.9	0.457
Mof_C 	C 	0.4541	0.4758	0.856	1.631
Mof_H 	H 	0.4272	0.4296	0.8419	0.143
Mof_C 	C 	0.5141	0.5465	0.842	-1.189
Mof_C 	C 	0.393	0.442	0.8638	-0.72
Mof_H 	H 	0.3467	0.3969	0.8553	0.343
Mof_C 	C 	0.537	0.6012	0.8988	-0.71
Mof_H 	H 	0.5659	0.645	0.9141	0.149
Mof_C 	C 	0.3568	0.4572	0.01691	0.357
Mof_O 	O 	0.27277	0.94413	0.12953	-0.049
Mof_O 	O 	0.25737	0.99593	0.12233	-0.02
Mof_O 	O 	0.03588	0.81805	0.31945	-0.424
Mof_O 	O 	0.11531	0.73849	0.29778	-0.476
Mof_H 	H 	0.33347	0.12543	0.45793	1.155
Mof_C 	C 	0.13697	0.74093	0.06592	-0.17
Mof_H 	H 	0.08867	0.70493	0.07713	0.092
Mof_C 	C 	0.15517	0.72203	0.03317	-0.006
Mof_C 	C 	0.20997	0.88773	0.13743	-0.937
Mof_C 	C 	0.10147	0.80803	0.22473	0.066
Mof_H 	H 	0.05637	0.76163	0.23333	0.456
Mof_C 	C 	0.12077	0.80913	0.18933	1.629
Mof_H 	H 	0.09387	0.76293	0.17523	0.143
Mof_C 	C 	0.18077	0.87983	0.17533	-1.188
Mof_C 	C 	0.05967	0.77533	0.19713	-0.719
Mof_H 	H 	0.01337	0.73023	0.18863	0.343
Mof_C 	C 	0.20367	0.93453	0.23213	-0.709
Mof_H 	H 	0.23257	0.97833	0.24743	0.15
Mof_C 	C 	0.02347	0.79053	0.35024	0.358
Mof_O 	O 	0.93943	0.27747	0.46287	-0.051
Mof_O 	O 	0.92403	0.32927	0.45567	-0.021
Mof_O 	O 	0.70254	0.15139	0.65279	-0.424
Mof_O 	O 	0.78197	0.07183	0.63112	-0.476
Mof_H 	H 	0.00013	0.45877	0.79127	1.153
Mof_C 	C 	0.80363	0.07427	0.39926	-0.17
Mof_H 	H 	0.75533	0.03827	0.41047	0.091
Mof_C 	C 	0.82183	0.05537	0.36651	-0.006
Mof_C 	C 	0.87663	0.22107	0.47077	-0.931
Mof_C 	C 	0.76813	0.14137	0.55807	0.065
Mof_H 	H 	0.72303	0.09497	0.56667	0.452
Mof_C 	C 	0.78743	0.14247	0.52267	1.616
Mof_H 	H 	0.76053	0.09627	0.50857	0.143
Mof_C 	C 	0.84743	0.21317	0.50867	-1.178
Mof_C 	C 	0.72633	0.10867	0.53047	-0.715
Mof_H 	H 	0.68003	0.06357	0.52197	0.342
Mof_C 	C 	0.87033	0.26787	0.56547	-0.701
Mof_H 	H 	0.89923	0.31167	0.58077	0.148
Mof_C 	C 	0.69013	0.12387	0.68358	0.357
Mof_O 	O 	0.0047	0.3939	0.7962	-0.051
Mof_O 	O 	0.0719	0.4093	0.789	-0.021
Mof_O 	O 	0.11551	0.63079	0.98612	-0.425
Mof_O 	O 	0.95652	0.55136	0.96445	-0.476
Mof_H 	H 	0.1253	0.3332	0.1246	1.158
Mof_C 	C 	0.9373	0.5297	0.73259	-0.17
Mof_H 	H 	0.9496	0.578	0.7438	0.092
Mof_C 	C 	0.9002	0.5115	0.69984	-0.005
Mof_C 	C 	0.0111	0.4567	0.8041	-0.932
Mof_C 	C 	0.0399	0.5652	0.8914	0.066
Mof_H 	H 	0.0386	0.6103	0.9	0.453
Mof_C 	C 	0.0217	0.5459	0.856	1.62
Mof_H 	H 	0.0024	0.5728	0.8419	0.142
Mof_C 	C 	0.0324	0.4859	0.842	-1.181
Mof_C 	C 	0.049	0.607	0.8638	-0.716
Mof_H 	H 	0.0502	0.6533	0.8553	0.342
Mof_C 	C 	0.0642	0.463	0.8988	-0.704
Mof_H 	H 	0.0791	0.4341	0.9141	0.148
Mof_C 	C 	0.1004	0.6432	0.01691	0.358
Mof_O 	O 	0.67137	0.72723	0.12953	-0.05
Mof_O 	O 	0.73857	0.74263	0.12233	-0.021
Mof_O 	O 	0.78218	0.96412	0.31945	-0.424
Mof_O 	O 	0.62319	0.88469	0.29778	-0.476
Mof_H 	H 	0.79197	0.66653	0.45793	1.154
Mof_C 	C 	0.60397	0.86303	0.06592	-0.17
Mof_H 	H 	0.61627	0.91133	0.07713	0.092
Mof_C 	C 	0.56687	0.84483	0.03317	-0.005
Mof_C 	C 	0.67777	0.79003	0.13743	-0.937
Mof_C 	C 	0.70657	0.89853	0.22473	0.066
Mof_H 	H 	0.70527	0.94363	0.23333	0.456
Mof_C 	C 	0.68837	0.87923	0.18933	1.628
Mof_H 	H 	0.66907	0.90613	0.17523	0.143
Mof_C 	C 	0.69907	0.81923	0.17533	-1.187
Mof_C 	C 	0.71567	0.94033	0.19713	-0.719
Mof_H 	H 	0.71687	0.98663	0.18863	0.343
Mof_C 	C 	0.73087	0.79633	0.23213	-0.708
Mof_H 	H 	0.74577	0.76743	0.24743	0.149
Mof_C 	C 	0.76707	0.97653	0.35024	0.358
Mof_O 	O 	0.33803	0.06057	0.46287	-0.05
Mof_O 	O 	0.40523	0.07597	0.45567	-0.021
Mof_O 	O 	0.44884	0.29746	0.65279	-0.424
Mof_O 	O 	0.28985	0.21803	0.63112	-0.476
Mof_H 	H 	0.45863	0.99987	0.79127	1.153
Mof_C 	C 	0.27063	0.19637	0.39926	-0.17
Mof_H 	H 	0.28293	0.24467	0.41047	0.091
Mof_C 	C 	0.23353	0.17817	0.36651	-0.006
Mof_C 	C 	0.34443	0.12337	0.47077	-0.933
Mof_C 	C 	0.37323	0.23187	0.55807	0.065
Mof_H 	H 	0.37193	0.27697	0.56667	0.453
Mof_C 	C 	0.35503	0.21257	0.52267	1.62
Mof_H 	H 	0.33573	0.23947	0.50857	0.143
Mof_C 	C 	0.36573	0.15257	0.50867	-1.181
Mof_C 	C 	0.38233	0.27367	0.53047	-0.717
Mof_H 	H 	0.38353	0.31997	0.52197	0.342
Mof_C 	C 	0.39753	0.12967	0.56547	-0.703
Mof_H 	H 	0.41243	0.10077	0.58077	0.148
Mof_C 	C 	0.43373	0.30987	0.68358	0.357
Mof_Zn	Zn	0.04415	0.52208	0.96599	1.219
Mof_N 	N 	0.9907	0.49535	0.78297	-0.803
Mof_N 	N 	0.05771	0.52885	0.91249	-0.097
Mof_C 	C 	0.9565	0.47825	0.74886	0.242
Mof_C 	C 	0.88301	0.44151	0.68334	-0.04
Mof_H 	H 	0.8591	0.42955	0.6606	0.091
Mof_Zn	Zn	0.71082	0.85541	0.29933	1.22
Mof_N 	N 	0.65737	0.82868	0.1163	-0.807
Mof_N 	N 	0.72438	0.86219	0.24582	-0.096
Mof_C 	C 	0.62317	0.81158	0.08219	0.242
Mof_C 	C 	0.54968	0.77484	0.01667	-0.04
Mof_H 	H 	0.52577	0.76288	0.99393	0.091
Mof_Zn	Zn	0.37749	0.18874	0.63266	1.22
Mof_N 	N 	0.32403	0.16202	0.44964	-0.805
Mof_N 	N 	0.39104	0.19552	0.57916	-0.097
Mof_C 	C 	0.28983	0.14492	0.41553	0.242
Mof_C 	C 	0.21634	0.10817	0.35001	-0.04
Mof_H 	H 	0.19243	0.09622	0.32727	0.091
Mof_Zn	Zn	0.47792	0.52208	0.96599	1.22
Mof_N 	N 	0.50465	0.49535	0.78297	-0.807
Mof_N 	N 	0.47115	0.52885	0.91249	-0.096
Mof_C 	C 	0.52175	0.47825	0.74886	0.243
Mof_C 	C 	0.55849	0.4415	0.68334	-0.041
Mof_H 	H 	0.57045	0.42955	0.6606	0.091
Mof_Zn	Zn	0.14459	0.85541	0.29933	1.22
Mof_N 	N 	0.17132	0.82868	0.1163	-0.806
Mof_N 	N 	0.13781	0.86219	0.24582	-0.096
Mof_C 	C 	0.18842	0.81158	0.08219	0.242
Mof_C 	C 	0.22516	0.77484	0.01667	-0.039
Mof_H 	H 	0.23712	0.76288	0.99393	0.09
Mof_Zn	Zn	0.81126	0.18874	0.63266	1.22
Mof_N 	N 	0.83798	0.16202	0.44964	-0.804
Mof_N 	N 	0.80448	0.19552	0.57916	-0.098
Mof_C 	C 	0.85508	0.14492	0.41553	0.242
Mof_C 	C 	0.89183	0.10817	0.35001	-0.04
Mof_H 	H 	0.90378	0.09622	0.32727	0.091
Mof_Zn	Zn	0.47792	0.95585	0.96599	1.219
Mof_N 	N 	0.50465	0.0093	0.78297	-0.803
Mof_N 	N 	0.47115	0.94229	0.91249	-0.097
Mof_C 	C 	0.52175	0.0435	0.74886	0.242
Mof_C 	C 	0.55849	0.11699	0.68334	-0.04
Mof_H 	H 	0.57045	0.1409	0.6606	0.091
Mof_Zn	Zn	0.14459	0.28918	0.29933	1.22
Mof_N 	N 	0.17132	0.34263	0.1163	-0.807
Mof_N 	N 	0.13781	0.27562	0.24582	-0.096
Mof_C 	C 	0.18842	0.37683	0.08219	0.242
Mof_C 	C 	0.22516	0.45032	0.01667	-0.04
Mof_H 	H 	0.23712	0.47423	0.99393	0.091
Mof_Zn	Zn	0.81126	0.62251	0.63266	1.22
Mof_N 	N 	0.83798	0.67597	0.44964	-0.805
Mof_N 	N 	0.80448	0.60896	0.57916	-0.097
Mof_C 	C 	0.85508	0.71017	0.41553	0.242
Mof_C 	C 	0.89183	0.78366	0.35001	-0.04
Mof_H 	H 	0.90378	0.80757	0.32727	0.091
Mof_Zn	Zn	0.52208	0.04415	0.03401	1.219
Mof_N 	N 	0.49535	0.9907	0.21703	-0.803
Mof_N 	N 	0.52885	0.05771	0.08751	-0.097
Mof_C 	C 	0.47825	0.9565	0.25114	0.242
Mof_C 	C 	0.44151	0.88301	0.31666	-0.04
Mof_H 	H 	0.42955	0.8591	0.3394	0.091
Mof_Zn	Zn	0.18874	0.37749	0.36734	1.22
Mof_N 	N 	0.16202	0.32403	0.55036	-0.805
Mof_N 	N 	0.19552	0.39104	0.42084	-0.097
Mof_C 	C 	0.14492	0.28983	0.58447	0.242
Mof_C 	C 	0.10817	0.21634	0.64999	-0.04
Mof_H 	H 	0.09622	0.19243	0.67273	0.091
Mof_Zn	Zn	0.85541	0.71082	0.70067	1.22
Mof_N 	N 	0.82868	0.65737	0.8837	-0.807
Mof_N 	N 	0.86219	0.72438	0.75418	-0.096
Mof_C 	C 	0.81158	0.62317	0.91781	0.242
Mof_C 	C 	0.77484	0.54968	0.98333	-0.04
Mof_H 	H 	0.76288	0.52577	0.00607	0.091
Mof_Zn	Zn	0.52208	0.47792	0.03401	1.22
Mof_N 	N 	0.49535	0.50465	0.21703	-0.807
Mof_N 	N 	0.52885	0.47114	0.08751	-0.096
Mof_C 	C 	0.47825	0.52175	0.25114	0.243
Mof_C 	C 	0.4415	0.55849	0.31666	-0.041
Mof_H 	H 	0.42955	0.57045	0.3394	0.091
Mof_Zn	Zn	0.18874	0.81126	0.36734	1.22
Mof_N 	N 	0.16202	0.83798	0.55036	-0.804
Mof_N 	N 	0.19552	0.80448	0.42084	-0.098
Mof_C 	C 	0.14492	0.85508	0.58447	0.242
Mof_C 	C 	0.10817	0.89183	0.64999	-0.04
Mof_H 	H 	0.09622	0.90378	0.67273	0.091
Mof_Zn	Zn	0.85541	0.14459	0.70067	1.22
Mof_N 	N 	0.82868	0.17132	0.8837	-0.806
Mof_N 	N 	0.86219	0.13781	0.75418	-0.096
Mof_C 	C 	0.81158	0.18842	0.91781	0.242
Mof_C 	C 	0.77484	0.22516	0.98333	-0.039
Mof_H 	H 	0.76288	0.23712	0.00607	0.09
Mof_Zn	Zn	0.95585	0.47792	0.03401	1.219
Mof_N 	N 	0.0093	0.50465	0.21703	-0.803
Mof_N 	N 	0.94229	0.47115	0.08751	-0.097
Mof_C 	C 	0.0435	0.52175	0.25114	0.242
Mof_C 	C 	0.11699	0.55849	0.31666	-0.04
Mof_H 	H 	0.1409	0.57045	0.3394	0.091
Mof_Zn	Zn	0.62251	0.81126	0.36734	1.22
Mof_N 	N 	0.67597	0.83798	0.55036	-0.805
Mof_N 	N 	0.60896	0.80448	0.42084	-0.097
Mof_C 	C 	0.71017	0.85508	0.58447	0.242
Mof_C 	C 	0.78366	0.89183	0.64999	-0.04
Mof_H 	H 	0.80757	0.90378	0.67273	0.091
Mof_Zn	Zn	0.28918	0.14459	0.70067	1.22
Mof_N 	N 	0.34263	0.17132	0.8837	-0.807
Mof_N 	N 	0.27562	0.13781	0.75418	-0.096
Mof_C 	C 	0.37683	0.18842	0.91781	0.242
Mof_C 	C 	0.45032	0.22516	0.98333	-0.04
Mof_H 	H 	0.47423	0.23712	0.00607	0.091
_end
