data_functionalizedCrystal
_audit_creation_method	'EQeq! by Chris Wilmer'
_symmetry_space_group_name_H-M	'P1'
_symmetry_Int_Tables_number	1
_symmetry_cell_setting	triclinic
loop_
_symmetry_equiv_pos_as_xyz
  x,y,z
_cell_length_a	12.887
_cell_length_b	17.043
_cell_length_c	24.799
_cell_angle_alpha	90
_cell_angle_beta	90
_cell_angle_gamma	90
loop_
_atom_site_label
_atom_site_type_symbol
_atom_site_fract_x
_atom_site_fract_y
_atom_site_fract_z
_atom_site_charge
Mof_N 	N 	0.0818	0.3382	0.99903	-0.095
Mof_N 	N 	0.1208	0.4086	0.9824	-0.104
Mof_N 	N 	0.9854	0.37432	0.93247	-0.242
Mof_C 	C 	0.2073	0.2338	0.0174	-0.088
Mof_H 	H 	0.2394	0.204	0.0473	0.06
Mof_H 	H 	0.1666	0.1961	0.9956	0.058
Mof_C 	C 	0.1347	0.2918	0.0408	-0.041
Mof_H 	H 	0.1735	0.3275	0.0649	0.044
Mof_H 	H 	0.0821	0.264	0.0628	0.04
Mof_C 	C 	0.0605	0.4277	0.9427	0.096
Mof_H 	H 	0.0682	0.4749	0.9228	-0.012
Mof_C 	C 	0.0018	0.3193	0.969	0.088
Mof_H 	H 	0.9617	0.2729	0.9729	-0.005
Mof_N 	N 	0.0818	0.8382	0.49903	-0.095
Mof_N 	N 	0.1208	0.9086	0.4824	-0.104
Mof_N 	N 	0.9854	0.87432	0.43247	-0.242
Mof_C 	C 	0.2073	0.7338	0.5174	-0.09
Mof_H 	H 	0.2394	0.704	0.5473	0.06
Mof_H 	H 	0.1666	0.6961	0.4956	0.058
Mof_C 	C 	0.1347	0.7918	0.5408	-0.04
Mof_H 	H 	0.1735	0.8275	0.5649	0.044
Mof_H 	H 	0.0821	0.764	0.5628	0.04
Mof_C 	C 	0.0605	0.9277	0.4427	0.096
Mof_H 	H 	0.0682	0.9749	0.4228	-0.012
Mof_C 	C 	0.0018	0.8193	0.469	0.088
Mof_H 	H 	0.9617	0.7729	0.4729	-0.005
Mof_N 	N 	0.5818	0.3382	0.49903	-0.095
Mof_N 	N 	0.6208	0.4086	0.4824	-0.104
Mof_N 	N 	0.4854	0.37432	0.43247	-0.242
Mof_C 	C 	0.7073	0.2338	0.5174	-0.09
Mof_H 	H 	0.7394	0.204	0.5473	0.06
Mof_H 	H 	0.6666	0.1961	0.4956	0.058
Mof_C 	C 	0.6347	0.2918	0.5408	-0.04
Mof_H 	H 	0.6735	0.3275	0.5649	0.044
Mof_H 	H 	0.5821	0.264	0.5628	0.04
Mof_C 	C 	0.5605	0.4277	0.4427	0.096
Mof_H 	H 	0.5682	0.4749	0.4228	-0.012
Mof_C 	C 	0.5018	0.3193	0.469	0.088
Mof_H 	H 	0.4617	0.2729	0.4729	-0.005
Mof_N 	N 	0.5818	0.8382	0.99903	-0.095
Mof_N 	N 	0.6208	0.9086	0.9824	-0.104
Mof_N 	N 	0.4854	0.87432	0.93247	-0.242
Mof_C 	C 	0.7073	0.7338	0.0174	-0.092
Mof_H 	H 	0.7394	0.704	0.0473	0.061
Mof_H 	H 	0.6666	0.6961	0.9956	0.059
Mof_C 	C 	0.6347	0.7918	0.0408	-0.04
Mof_H 	H 	0.6735	0.8275	0.0649	0.044
Mof_H 	H 	0.5821	0.764	0.0628	0.04
Mof_C 	C 	0.5605	0.9277	0.9427	0.096
Mof_H 	H 	0.5682	0.9749	0.9228	-0.012
Mof_C 	C 	0.5018	0.8193	0.969	0.087
Mof_H 	H 	0.4617	0.7729	0.9729	-0.006
Mof_N 	N 	0.6682	0.4118	0.99903	-0.096
Mof_N 	N 	0.6292	0.3414	0.9824	-0.105
Mof_N 	N 	0.7646	0.37568	0.93247	-0.243
Mof_C 	C 	0.5427	0.5162	0.0174	-0.091
Mof_H 	H 	0.5106	0.546	0.0473	0.059
Mof_H 	H 	0.5834	0.5539	0.9956	0.057
Mof_C 	C 	0.6153	0.4582	0.0408	-0.041
Mof_H 	H 	0.5765	0.4225	0.0649	0.043
Mof_H 	H 	0.6679	0.486	0.0628	0.039
Mof_C 	C 	0.6895	0.3223	0.9427	0.095
Mof_H 	H 	0.6818	0.2751	0.9228	-0.013
Mof_C 	C 	0.7482	0.4307	0.969	0.087
Mof_H 	H 	0.7883	0.4771	0.9729	-0.006
Mof_N 	N 	0.6682	0.9118	0.49903	-0.096
Mof_N 	N 	0.6292	0.8414	0.4824	-0.105
Mof_N 	N 	0.7646	0.87568	0.43247	-0.243
Mof_C 	C 	0.5427	0.0162	0.5174	-0.091
Mof_H 	H 	0.5106	0.046	0.5473	0.059
Mof_H 	H 	0.5834	0.0539	0.4956	0.057
Mof_C 	C 	0.6153	0.9582	0.5408	-0.041
Mof_H 	H 	0.5765	0.9225	0.5649	0.043
Mof_H 	H 	0.6679	0.986	0.5628	0.039
Mof_C 	C 	0.6895	0.8223	0.4427	0.095
Mof_H 	H 	0.6818	0.7751	0.4228	-0.013
Mof_C 	C 	0.7482	0.9307	0.469	0.087
Mof_H 	H 	0.7883	0.9771	0.4729	-0.006
Mof_N 	N 	0.1682	0.4118	0.49903	-0.096
Mof_N 	N 	0.1292	0.3414	0.4824	-0.105
Mof_N 	N 	0.2646	0.37568	0.43247	-0.243
Mof_C 	C 	0.0427	0.5162	0.5174	-0.091
Mof_H 	H 	0.0106	0.546	0.5473	0.059
Mof_H 	H 	0.0834	0.5539	0.4956	0.057
Mof_C 	C 	0.1153	0.4582	0.5408	-0.041
Mof_H 	H 	0.0765	0.4225	0.5649	0.043
Mof_H 	H 	0.1679	0.486	0.5628	0.039
Mof_C 	C 	0.1895	0.3223	0.4427	0.095
Mof_H 	H 	0.1818	0.2751	0.4228	-0.013
Mof_C 	C 	0.2482	0.4307	0.469	0.087
Mof_H 	H 	0.2883	0.4771	0.4729	-0.006
Mof_N 	N 	0.1682	0.9118	0.99903	-0.096
Mof_N 	N 	0.1292	0.8414	0.9824	-0.105
Mof_N 	N 	0.2646	0.87568	0.93247	-0.243
Mof_C 	C 	0.0427	0.0162	0.0174	-0.09
Mof_H 	H 	0.0106	0.046	0.0473	0.059
Mof_H 	H 	0.0834	0.0539	0.9956	0.057
Mof_C 	C 	0.1153	0.9582	0.0408	-0.042
Mof_H 	H 	0.0765	0.9225	0.0649	0.043
Mof_H 	H 	0.1679	0.986	0.0628	0.039
Mof_C 	C 	0.1895	0.8223	0.9427	0.095
Mof_H 	H 	0.1818	0.7751	0.9228	-0.013
Mof_C 	C 	0.2482	0.9307	0.969	0.087
Mof_H 	H 	0.2883	0.9771	0.9729	-0.006
Mof_N 	N 	0.6682	0.3382	0.75097	-0.096
Mof_N 	N 	0.6292	0.4086	0.7676	-0.105
Mof_N 	N 	0.7646	0.37432	0.81753	-0.243
Mof_C 	C 	0.5427	0.2338	0.7326	-0.091
Mof_H 	H 	0.5106	0.204	0.7027	0.059
Mof_H 	H 	0.5834	0.1961	0.7544	0.057
Mof_C 	C 	0.6153	0.2918	0.7092	-0.041
Mof_H 	H 	0.5765	0.3275	0.6851	0.043
Mof_H 	H 	0.6679	0.264	0.6872	0.039
Mof_C 	C 	0.6895	0.4277	0.8073	0.095
Mof_H 	H 	0.6818	0.4749	0.8272	-0.013
Mof_C 	C 	0.7482	0.3193	0.781	0.087
Mof_H 	H 	0.7883	0.2729	0.7771	-0.006
Mof_N 	N 	0.6682	0.8382	0.25097	-0.096
Mof_N 	N 	0.6292	0.9086	0.2676	-0.105
Mof_N 	N 	0.7646	0.87432	0.31753	-0.243
Mof_C 	C 	0.5427	0.7338	0.2326	-0.091
Mof_H 	H 	0.5106	0.704	0.2027	0.059
Mof_H 	H 	0.5834	0.6961	0.2544	0.057
Mof_C 	C 	0.6153	0.7918	0.2092	-0.041
Mof_H 	H 	0.5765	0.8275	0.1851	0.043
Mof_H 	H 	0.6679	0.764	0.1872	0.039
Mof_C 	C 	0.6895	0.9277	0.3073	0.095
Mof_H 	H 	0.6818	0.9749	0.3272	-0.013
Mof_C 	C 	0.7482	0.8193	0.281	0.087
Mof_H 	H 	0.7883	0.7729	0.2771	-0.006
Mof_N 	N 	0.1682	0.3382	0.25097	-0.096
Mof_N 	N 	0.1292	0.4086	0.2676	-0.105
Mof_N 	N 	0.2646	0.37432	0.31753	-0.243
Mof_C 	C 	0.0427	0.2338	0.2326	-0.091
Mof_H 	H 	0.0106	0.204	0.2027	0.059
Mof_H 	H 	0.0834	0.1961	0.2544	0.057
Mof_C 	C 	0.1153	0.2918	0.2092	-0.041
Mof_H 	H 	0.0765	0.3275	0.1851	0.043
Mof_H 	H 	0.1679	0.264	0.1872	0.039
Mof_C 	C 	0.1895	0.4277	0.3073	0.095
Mof_H 	H 	0.1818	0.4749	0.3272	-0.013
Mof_C 	C 	0.2482	0.3193	0.281	0.087
Mof_H 	H 	0.2883	0.2729	0.2771	-0.006
Mof_N 	N 	0.1682	0.8382	0.75097	-0.096
Mof_N 	N 	0.1292	0.9086	0.7676	-0.105
Mof_N 	N 	0.2646	0.87432	0.81753	-0.243
Mof_C 	C 	0.0427	0.7338	0.7326	-0.091
Mof_H 	H 	0.0106	0.704	0.7027	0.059
Mof_H 	H 	0.0834	0.6961	0.7544	0.057
Mof_C 	C 	0.1153	0.7918	0.7092	-0.041
Mof_H 	H 	0.0765	0.8275	0.6851	0.043
Mof_H 	H 	0.1679	0.764	0.6872	0.039
Mof_C 	C 	0.1895	0.9277	0.8073	0.095
Mof_H 	H 	0.1818	0.9749	0.8272	-0.013
Mof_C 	C 	0.2482	0.8193	0.781	0.087
Mof_H 	H 	0.2883	0.7729	0.7771	-0.006
Mof_N 	N 	0.0818	0.4118	0.75097	-0.096
Mof_N 	N 	0.1208	0.3414	0.7676	-0.105
Mof_N 	N 	0.9854	0.37568	0.81753	-0.243
Mof_C 	C 	0.2073	0.5162	0.7326	-0.091
Mof_H 	H 	0.2394	0.546	0.7027	0.059
Mof_H 	H 	0.1666	0.5539	0.7544	0.057
Mof_C 	C 	0.1347	0.4582	0.7092	-0.041
Mof_H 	H 	0.1735	0.4225	0.6851	0.043
Mof_H 	H 	0.0821	0.486	0.6872	0.039
Mof_C 	C 	0.0605	0.3223	0.8073	0.095
Mof_H 	H 	0.0682	0.2751	0.8272	-0.013
Mof_C 	C 	0.0018	0.4307	0.781	0.087
Mof_H 	H 	0.9617	0.4771	0.7771	-0.006
Mof_N 	N 	0.0818	0.9118	0.25097	-0.096
Mof_N 	N 	0.1208	0.8414	0.2676	-0.105
Mof_N 	N 	0.9854	0.87568	0.31753	-0.243
Mof_C 	C 	0.2073	0.0162	0.2326	-0.09
Mof_H 	H 	0.2394	0.046	0.2027	0.059
Mof_H 	H 	0.1666	0.0539	0.2544	0.057
Mof_C 	C 	0.1347	0.9582	0.2092	-0.042
Mof_H 	H 	0.1735	0.9225	0.1851	0.043
Mof_H 	H 	0.0821	0.986	0.1872	0.039
Mof_C 	C 	0.0605	0.8223	0.3073	0.095
Mof_H 	H 	0.0682	0.7751	0.3272	-0.013
Mof_C 	C 	0.0018	0.9307	0.281	0.087
Mof_H 	H 	0.9617	0.9771	0.2771	-0.006
Mof_N 	N 	0.5818	0.4118	0.25097	-0.096
Mof_N 	N 	0.6208	0.3414	0.2676	-0.105
Mof_N 	N 	0.4854	0.37568	0.31753	-0.243
Mof_C 	C 	0.7073	0.5162	0.2326	-0.091
Mof_H 	H 	0.7394	0.546	0.2027	0.059
Mof_H 	H 	0.6666	0.5539	0.2544	0.057
Mof_C 	C 	0.6347	0.4582	0.2092	-0.041
Mof_H 	H 	0.6735	0.4225	0.1851	0.043
Mof_H 	H 	0.5821	0.486	0.1872	0.039
Mof_C 	C 	0.5605	0.3223	0.3073	0.095
Mof_H 	H 	0.5682	0.2751	0.3272	-0.013
Mof_C 	C 	0.5018	0.4307	0.281	0.087
Mof_H 	H 	0.4617	0.4771	0.2771	-0.006
Mof_N 	N 	0.5818	0.9118	0.75097	-0.096
Mof_N 	N 	0.6208	0.8414	0.7676	-0.105
Mof_N 	N 	0.4854	0.87568	0.81753	-0.243
Mof_C 	C 	0.7073	0.0162	0.7326	-0.092
Mof_H 	H 	0.7394	0.046	0.7027	0.06
Mof_H 	H 	0.6666	0.0539	0.7544	0.058
Mof_C 	C 	0.6347	0.9582	0.7092	-0.04
Mof_H 	H 	0.6735	0.9225	0.6851	0.043
Mof_H 	H 	0.5821	0.986	0.6872	0.039
Mof_C 	C 	0.5605	0.8223	0.8073	0.095
Mof_H 	H 	0.5682	0.7751	0.8272	-0.013
Mof_C 	C 	0.5018	0.9307	0.781	0.087
Mof_H 	H 	0.4617	0.9771	0.7771	-0.006
Mof_N 	N 	0.9182	0.6618	0.00097	-0.096
Mof_N 	N 	0.8792	0.5914	0.0176	-0.105
Mof_N 	N 	0.0146	0.62568	0.06753	-0.243
Mof_C 	C 	0.7927	0.7662	0.9826	-0.089
Mof_H 	H 	0.7606	0.796	0.9527	0.059
Mof_H 	H 	0.8334	0.8039	0.0044	0.057
Mof_C 	C 	0.8653	0.7082	0.9592	-0.042
Mof_H 	H 	0.8265	0.6725	0.9351	0.043
Mof_H 	H 	0.9179	0.736	0.9372	0.039
Mof_C 	C 	0.9395	0.5723	0.0573	0.095
Mof_H 	H 	0.9318	0.5251	0.0772	-0.013
Mof_C 	C 	0.9982	0.6807	0.031	0.087
Mof_H 	H 	0.0383	0.7271	0.0271	-0.006
Mof_N 	N 	0.9182	0.1618	0.50097	-0.096
Mof_N 	N 	0.8792	0.0914	0.5176	-0.105
Mof_N 	N 	0.0146	0.12568	0.56753	-0.243
Mof_C 	C 	0.7927	0.2662	0.4826	-0.091
Mof_H 	H 	0.7606	0.296	0.4527	0.059
Mof_H 	H 	0.8334	0.3039	0.5044	0.057
Mof_C 	C 	0.8653	0.2082	0.4592	-0.041
Mof_H 	H 	0.8265	0.1725	0.4351	0.043
Mof_H 	H 	0.9179	0.236	0.4372	0.039
Mof_C 	C 	0.9395	0.0723	0.5573	0.095
Mof_H 	H 	0.9318	0.0251	0.5772	-0.013
Mof_C 	C 	0.9982	0.1807	0.531	0.087
Mof_H 	H 	0.0383	0.2271	0.5271	-0.006
Mof_N 	N 	0.4182	0.6618	0.50097	-0.096
Mof_N 	N 	0.3792	0.5914	0.5176	-0.105
Mof_N 	N 	0.5146	0.62568	0.56753	-0.243
Mof_C 	C 	0.2927	0.7662	0.4826	-0.091
Mof_H 	H 	0.2606	0.796	0.4527	0.059
Mof_H 	H 	0.3334	0.8039	0.5044	0.057
Mof_C 	C 	0.3653	0.7082	0.4592	-0.041
Mof_H 	H 	0.3265	0.6725	0.4351	0.043
Mof_H 	H 	0.4179	0.736	0.4372	0.039
Mof_C 	C 	0.4395	0.5723	0.5573	0.095
Mof_H 	H 	0.4318	0.5251	0.5772	-0.013
Mof_C 	C 	0.4982	0.6807	0.531	0.087
Mof_H 	H 	0.5383	0.7271	0.5271	-0.006
Mof_N 	N 	0.4182	0.1618	0.00097	-0.096
Mof_N 	N 	0.3792	0.0914	0.0176	-0.105
Mof_N 	N 	0.5146	0.12568	0.06753	-0.243
Mof_C 	C 	0.2927	0.2662	0.9826	-0.093
Mof_H 	H 	0.2606	0.296	0.9527	0.06
Mof_H 	H 	0.3334	0.3039	0.0044	0.058
Mof_C 	C 	0.3653	0.2082	0.9592	-0.041
Mof_H 	H 	0.3265	0.1725	0.9351	0.043
Mof_H 	H 	0.4179	0.236	0.9372	0.039
Mof_C 	C 	0.4395	0.0723	0.0573	0.095
Mof_H 	H 	0.4318	0.0251	0.0772	-0.013
Mof_C 	C 	0.4982	0.1807	0.031	0.087
Mof_H 	H 	0.5383	0.2271	0.0271	-0.006
Mof_N 	N 	0.3318	0.5882	0.00097	-0.096
Mof_N 	N 	0.3708	0.6586	0.0176	-0.105
Mof_N 	N 	0.2354	0.62432	0.06753	-0.243
Mof_C 	C 	0.4573	0.4838	0.9826	-0.091
Mof_H 	H 	0.4894	0.454	0.9527	0.059
Mof_H 	H 	0.4166	0.4461	0.0044	0.057
Mof_C 	C 	0.3847	0.5418	0.9592	-0.041
Mof_H 	H 	0.4235	0.5775	0.9351	0.043
Mof_H 	H 	0.3321	0.514	0.9372	0.039
Mof_C 	C 	0.3105	0.6777	0.0573	0.095
Mof_H 	H 	0.3182	0.7249	0.0772	-0.013
Mof_C 	C 	0.2518	0.5693	0.031	0.087
Mof_H 	H 	0.2117	0.5229	0.0271	-0.006
Mof_N 	N 	0.3318	0.0882	0.50097	-0.096
Mof_N 	N 	0.3708	0.1586	0.5176	-0.105
Mof_N 	N 	0.2354	0.12432	0.56753	-0.243
Mof_C 	C 	0.4573	0.9838	0.4826	-0.091
Mof_H 	H 	0.4894	0.954	0.4527	0.059
Mof_H 	H 	0.4166	0.9461	0.5044	0.057
Mof_C 	C 	0.3847	0.0418	0.4592	-0.041
Mof_H 	H 	0.4235	0.0775	0.4351	0.043
Mof_H 	H 	0.3321	0.014	0.4372	0.039
Mof_C 	C 	0.3105	0.1777	0.5573	0.095
Mof_H 	H 	0.3182	0.2249	0.5772	-0.013
Mof_C 	C 	0.2518	0.0693	0.531	0.087
Mof_H 	H 	0.2117	0.0229	0.5271	-0.006
Mof_N 	N 	0.8318	0.5882	0.50097	-0.096
Mof_N 	N 	0.8708	0.6586	0.5176	-0.105
Mof_N 	N 	0.7354	0.62432	0.56753	-0.243
Mof_C 	C 	0.9573	0.4838	0.4826	-0.091
Mof_H 	H 	0.9894	0.454	0.4527	0.059
Mof_H 	H 	0.9166	0.4461	0.5044	0.057
Mof_C 	C 	0.8847	0.5418	0.4592	-0.041
Mof_H 	H 	0.9235	0.5775	0.4351	0.043
Mof_H 	H 	0.8321	0.514	0.4372	0.039
Mof_C 	C 	0.8105	0.6777	0.5573	0.095
Mof_H 	H 	0.8182	0.7249	0.5772	-0.013
Mof_C 	C 	0.7518	0.5693	0.531	0.087
Mof_H 	H 	0.7117	0.5229	0.5271	-0.006
Mof_N 	N 	0.8318	0.0882	0.00097	-0.096
Mof_N 	N 	0.8708	0.1586	0.0176	-0.105
Mof_N 	N 	0.7354	0.12432	0.06753	-0.243
Mof_C 	C 	0.9573	0.9838	0.9826	-0.09
Mof_H 	H 	0.9894	0.954	0.9527	0.059
Mof_H 	H 	0.9166	0.9461	0.0044	0.057
Mof_C 	C 	0.8847	0.0418	0.9592	-0.042
Mof_H 	H 	0.9235	0.0775	0.9351	0.043
Mof_H 	H 	0.8321	0.014	0.9372	0.039
Mof_C 	C 	0.8105	0.1777	0.0573	0.095
Mof_H 	H 	0.8182	0.2249	0.0772	-0.013
Mof_C 	C 	0.7518	0.0693	0.031	0.087
Mof_H 	H 	0.7117	0.0229	0.0271	-0.006
Mof_N 	N 	0.3318	0.6618	0.24903	-0.096
Mof_N 	N 	0.3708	0.5914	0.2324	-0.105
Mof_N 	N 	0.2354	0.62568	0.18247	-0.243
Mof_C 	C 	0.4573	0.7662	0.2674	-0.091
Mof_H 	H 	0.4894	0.796	0.2973	0.059
Mof_H 	H 	0.4166	0.8039	0.2456	0.057
Mof_C 	C 	0.3847	0.7082	0.2908	-0.041
Mof_H 	H 	0.4235	0.6725	0.3149	0.043
Mof_H 	H 	0.3321	0.736	0.3128	0.039
Mof_C 	C 	0.3105	0.5723	0.1927	0.095
Mof_H 	H 	0.3182	0.5251	0.1728	-0.013
Mof_C 	C 	0.2518	0.6807	0.219	0.087
Mof_H 	H 	0.2117	0.7271	0.2229	-0.006
Mof_N 	N 	0.3318	0.1618	0.74903	-0.096
Mof_N 	N 	0.3708	0.0914	0.7324	-0.105
Mof_N 	N 	0.2354	0.12568	0.68247	-0.243
Mof_C 	C 	0.4573	0.2662	0.7674	-0.091
Mof_H 	H 	0.4894	0.296	0.7973	0.059
Mof_H 	H 	0.4166	0.3039	0.7456	0.057
Mof_C 	C 	0.3847	0.2082	0.7908	-0.041
Mof_H 	H 	0.4235	0.1725	0.8149	0.043
Mof_H 	H 	0.3321	0.236	0.8128	0.039
Mof_C 	C 	0.3105	0.0723	0.6927	0.095
Mof_H 	H 	0.3182	0.0251	0.6728	-0.013
Mof_C 	C 	0.2518	0.1807	0.719	0.087
Mof_H 	H 	0.2117	0.2271	0.7229	-0.006
Mof_N 	N 	0.8318	0.6618	0.74903	-0.096
Mof_N 	N 	0.8708	0.5914	0.7324	-0.105
Mof_N 	N 	0.7354	0.62568	0.68247	-0.243
Mof_C 	C 	0.9573	0.7662	0.7674	-0.091
Mof_H 	H 	0.9894	0.796	0.7973	0.059
Mof_H 	H 	0.9166	0.8039	0.7456	0.057
Mof_C 	C 	0.8847	0.7082	0.7908	-0.041
Mof_H 	H 	0.9235	0.6725	0.8149	0.043
Mof_H 	H 	0.8321	0.736	0.8128	0.039
Mof_C 	C 	0.8105	0.5723	0.6927	0.095
Mof_H 	H 	0.8182	0.5251	0.6728	-0.013
Mof_C 	C 	0.7518	0.6807	0.719	0.087
Mof_H 	H 	0.7117	0.7271	0.7229	-0.006
Mof_N 	N 	0.8318	0.1618	0.24903	-0.096
Mof_N 	N 	0.8708	0.0914	0.2324	-0.105
Mof_N 	N 	0.7354	0.12568	0.18247	-0.243
Mof_C 	C 	0.9573	0.2662	0.2674	-0.091
Mof_H 	H 	0.9894	0.296	0.2973	0.059
Mof_H 	H 	0.9166	0.3039	0.2456	0.057
Mof_C 	C 	0.8847	0.2082	0.2908	-0.041
Mof_H 	H 	0.9235	0.1725	0.3149	0.043
Mof_H 	H 	0.8321	0.236	0.3128	0.039
Mof_C 	C 	0.8105	0.0723	0.1927	0.095
Mof_H 	H 	0.8182	0.0251	0.1728	-0.013
Mof_C 	C 	0.7518	0.1807	0.219	0.087
Mof_H 	H 	0.7117	0.2271	0.2229	-0.006
Mof_N 	N 	0.9182	0.5882	0.24903	-0.096
Mof_N 	N 	0.8792	0.6586	0.2324	-0.105
Mof_N 	N 	0.0146	0.62432	0.18247	-0.243
Mof_C 	C 	0.7927	0.4838	0.2674	-0.091
Mof_H 	H 	0.7606	0.454	0.2973	0.059
Mof_H 	H 	0.8334	0.4461	0.2456	0.057
Mof_C 	C 	0.8653	0.5418	0.2908	-0.041
Mof_H 	H 	0.8265	0.5775	0.3149	0.043
Mof_H 	H 	0.9179	0.514	0.3128	0.039
Mof_C 	C 	0.9395	0.6777	0.1927	0.095
Mof_H 	H 	0.9318	0.7249	0.1728	-0.013
Mof_C 	C 	0.9982	0.5693	0.219	0.087
Mof_H 	H 	0.0383	0.5229	0.2229	-0.006
Mof_N 	N 	0.9182	0.0882	0.74903	-0.096
Mof_N 	N 	0.8792	0.1586	0.7324	-0.105
Mof_N 	N 	0.0146	0.12432	0.68247	-0.243
Mof_C 	C 	0.7927	0.9838	0.7674	-0.09
Mof_H 	H 	0.7606	0.954	0.7973	0.059
Mof_H 	H 	0.8334	0.9461	0.7456	0.057
Mof_C 	C 	0.8653	0.0418	0.7908	-0.042
Mof_H 	H 	0.8265	0.0775	0.8149	0.043
Mof_H 	H 	0.9179	0.014	0.8128	0.039
Mof_C 	C 	0.9395	0.1777	0.6927	0.095
Mof_H 	H 	0.9318	0.2249	0.6728	-0.013
Mof_C 	C 	0.9982	0.0693	0.719	0.087
Mof_H 	H 	0.0383	0.0229	0.7229	-0.006
Mof_N 	N 	0.4182	0.5882	0.74903	-0.096
Mof_N 	N 	0.3792	0.6586	0.7324	-0.105
Mof_N 	N 	0.5146	0.62432	0.68247	-0.243
Mof_C 	C 	0.2927	0.4838	0.7674	-0.091
Mof_H 	H 	0.2606	0.454	0.7973	0.059
Mof_H 	H 	0.3334	0.4461	0.7456	0.057
Mof_C 	C 	0.3653	0.5418	0.7908	-0.041
Mof_H 	H 	0.3265	0.5775	0.8149	0.043
Mof_H 	H 	0.4179	0.514	0.8128	0.039
Mof_C 	C 	0.4395	0.6777	0.6927	0.095
Mof_H 	H 	0.4318	0.7249	0.6728	-0.013
Mof_C 	C 	0.4982	0.5693	0.719	0.087
Mof_H 	H 	0.5383	0.5229	0.7229	-0.006
Mof_N 	N 	0.4182	0.0882	0.24903	-0.096
Mof_N 	N 	0.3792	0.1586	0.2324	-0.105
Mof_N 	N 	0.5146	0.12432	0.18247	-0.243
Mof_C 	C 	0.2927	0.9838	0.2674	-0.092
Mof_H 	H 	0.2606	0.954	0.2973	0.06
Mof_H 	H 	0.3334	0.9461	0.2456	0.058
Mof_C 	C 	0.3653	0.0418	0.2908	-0.04
Mof_H 	H 	0.3265	0.0775	0.3149	0.043
Mof_H 	H 	0.4179	0.014	0.3128	0.039
Mof_C 	C 	0.4395	0.1777	0.1927	0.095
Mof_H 	H 	0.4318	0.2249	0.1728	-0.013
Mof_C 	C 	0.4982	0.0693	0.219	0.087
Mof_H 	H 	0.5383	0.0229	0.2229	-0.006
Mof_Cu	Cu	0.875	0.375	0.875	0.853
Mof_Cu	Cu	0.875	0.875	0.375	0.853
Mof_Cu	Cu	0.375	0.375	0.375	0.853
Mof_Cu	Cu	0.375	0.875	0.875	0.853
Mof_Cu	Cu	0.125	0.625	0.125	0.853
Mof_Cu	Cu	0.125	0.125	0.625	0.853
Mof_Cu	Cu	0.625	0.625	0.625	0.853
Mof_Cu	Cu	0.625	0.125	0.125	0.853
_end
