data_functionalizedCrystal
_audit_creation_method	'EQeq! by Chris Wilmer'
_symmetry_space_group_name_H-M	'P1'
_symmetry_Int_Tables_number	1
_symmetry_cell_setting	triclinic
loop_
_symmetry_equiv_pos_as_xyz
  x,y,z
_cell_length_a	14.9204
_cell_length_b	12.4737
_cell_length_c	16.5884
_cell_angle_alpha	90
_cell_angle_beta	90
_cell_angle_gamma	90
loop_
_atom_site_label
_atom_site_type_symbol
_atom_site_fract_x
_atom_site_fract_y
_atom_site_fract_z
_atom_site_charge
Mof_Mn	Mn	0.604	0.48558	0.58142	0.951
Mof_O 	O 	0.5928	0.3525	0.67086	-0.321
Mof_O 	O 	0.6704	0.4915	0.70604	-0.304
Mof_O 	O 	0.5276	0.3805	0.50571	-0.373
Mof_O 	O 	0.4986	0.5854	0.6234	-0.352
Mof_O 	O 	0.7082	0.4849	0.4887	-0.348
Mof_O 	O 	0.6983	0.6336	0.5535	-0.302
Mof_C 	C 	0.6353	0.4028	0.7216	0.324
Mof_C 	C 	0.6404	0.3614	0.8073	-0.082
Mof_C 	C 	0.6941	0.4125	0.8639	0.038
Mof_C 	C 	0.5922	0.271	0.8294	0.046
Mof_H 	H 	0.7244	0.475	0.85	0.058
Mof_C 	C 	0.703	0.3704	0.9414	-0.093
Mof_C 	C 	0.5968	0.2318	0.9075	-0.107
Mof_H 	H 	0.5564	0.2364	0.7916	0.057
Mof_C 	C 	0.7687	0.4223	0.999	0.343
Mof_C 	C 	0.6524	0.281	0.9627	0.063
Mof_C 	C 	0.5387	0.1389	0.9321	0.371
Mof_H 	H 	0.6561	0.2541	0.0149	0.037
Mof_Mn	Mn	0.896	0.51442	0.08142	0.951
Mof_O 	O 	0.9072	0.6475	0.17086	-0.32
Mof_O 	O 	0.8296	0.5085	0.20604	-0.304
Mof_O 	O 	0.9724	0.6195	0.00571	-0.37
Mof_O 	O 	0.0014	0.4146	0.1234	-0.351
Mof_O 	O 	0.7918	0.5151	0.9887	-0.35
Mof_O 	O 	0.8017	0.3664	0.0535	-0.304
Mof_C 	C 	0.8647	0.5972	0.2216	0.324
Mof_C 	C 	0.8596	0.6386	0.3073	-0.08
Mof_C 	C 	0.8059	0.5875	0.3639	0.035
Mof_C 	C 	0.9078	0.729	0.3294	0.043
Mof_H 	H 	0.7756	0.525	0.35	0.059
Mof_C 	C 	0.797	0.6296	0.4414	-0.089
Mof_C 	C 	0.9032	0.7682	0.4075	-0.103
Mof_H 	H 	0.9436	0.7636	0.2916	0.059
Mof_C 	C 	0.7313	0.5777	0.499	0.34
Mof_C 	C 	0.8476	0.719	0.4627	0.054
Mof_C 	C 	0.9613	0.8611	0.4321	0.365
Mof_H 	H 	0.8439	0.7459	0.5149	0.042
Mof_Mn	Mn	0.396	0.98558	0.91858	0.946
Mof_O 	O 	0.4072	0.8525	0.82914	-0.32
Mof_O 	O 	0.3296	0.9915	0.79396	-0.305
Mof_O 	O 	0.4724	0.8805	0.99429	-0.377
Mof_O 	O 	0.5014	0.0854	0.8766	-0.35
Mof_O 	O 	0.2918	0.9849	0.0113	-0.338
Mof_O 	O 	0.3017	0.1336	0.9465	-0.294
Mof_C 	C 	0.3647	0.9028	0.7784	0.324
Mof_C 	C 	0.3596	0.8614	0.6927	-0.08
Mof_C 	C 	0.3059	0.9125	0.6361	0.035
Mof_C 	C 	0.4078	0.771	0.6706	0.043
Mof_H 	H 	0.2756	0.975	0.65	0.058
Mof_C 	C 	0.297	0.8704	0.5586	-0.089
Mof_C 	C 	0.4032	0.7318	0.5925	-0.103
Mof_H 	H 	0.4436	0.7364	0.7084	0.058
Mof_C 	C 	0.2313	0.9223	0.501	0.34
Mof_C 	C 	0.3476	0.781	0.5373	0.054
Mof_C 	C 	0.4613	0.6389	0.5679	0.365
Mof_H 	H 	0.3439	0.7541	0.4851	0.042
Mof_Mn	Mn	0.104	0.01442	0.41858	0.951
Mof_O 	O 	0.0928	0.1475	0.32914	-0.32
Mof_O 	O 	0.1704	0.0085	0.29396	-0.304
Mof_O 	O 	0.0276	0.1195	0.49429	-0.373
Mof_O 	O 	0.9986	0.9146	0.3766	-0.351
Mof_O 	O 	0.2082	0.0151	0.5113	-0.348
Mof_O 	O 	0.1983	0.8664	0.4465	-0.302
Mof_C 	C 	0.1353	0.0972	0.2784	0.322
Mof_C 	C 	0.1404	0.1386	0.1927	-0.076
Mof_C 	C 	0.1941	0.0875	0.1361	0.029
Mof_C 	C 	0.0922	0.229	0.1706	0.038
Mof_H 	H 	0.2244	0.025	0.15	0.06
Mof_C 	C 	0.203	0.1296	0.0586	-0.08
Mof_C 	C 	0.0968	0.2682	0.0925	-0.097
Mof_H 	H 	0.0564	0.2636	0.2084	0.06
Mof_C 	C 	0.2687	0.0777	0.001	0.324
Mof_C 	C 	0.1524	0.219	0.0373	0.041
Mof_C 	C 	0.0387	0.3611	0.0679	0.361
Mof_H 	H 	0.1561	0.2459	0.9851	0.048
Mof_Mn	Mn	0.396	0.51442	0.41858	0.952
Mof_O 	O 	0.4072	0.6475	0.32914	-0.32
Mof_O 	O 	0.3296	0.5085	0.29396	-0.304
Mof_O 	O 	0.4724	0.6195	0.49429	-0.373
Mof_O 	O 	0.5014	0.4146	0.3766	-0.352
Mof_O 	O 	0.2918	0.5151	0.5113	-0.348
Mof_O 	O 	0.3017	0.3664	0.4465	-0.302
Mof_C 	C 	0.3647	0.5972	0.2784	0.324
Mof_C 	C 	0.3596	0.6386	0.1927	-0.082
Mof_C 	C 	0.3059	0.5875	0.1361	0.038
Mof_C 	C 	0.4078	0.729	0.1706	0.046
Mof_H 	H 	0.2756	0.525	0.15	0.058
Mof_C 	C 	0.297	0.6296	0.0586	-0.093
Mof_C 	C 	0.4032	0.7682	0.0925	-0.107
Mof_H 	H 	0.4436	0.7636	0.2084	0.057
Mof_C 	C 	0.2313	0.5777	0.001	0.343
Mof_C 	C 	0.3476	0.719	0.0373	0.063
Mof_C 	C 	0.4613	0.8611	0.0679	0.371
Mof_H 	H 	0.3439	0.7459	0.9851	0.037
Mof_Mn	Mn	0.104	0.48558	0.91858	0.951
Mof_O 	O 	0.0928	0.3525	0.82914	-0.32
Mof_O 	O 	0.1704	0.4915	0.79396	-0.304
Mof_O 	O 	0.0276	0.3805	0.99429	-0.37
Mof_O 	O 	0.9986	0.5854	0.8766	-0.351
Mof_O 	O 	0.2082	0.4849	0.0113	-0.35
Mof_O 	O 	0.1983	0.6336	0.9465	-0.304
Mof_C 	C 	0.1353	0.4028	0.7784	0.324
Mof_C 	C 	0.1404	0.3614	0.6927	-0.08
Mof_C 	C 	0.1941	0.4125	0.6361	0.035
Mof_C 	C 	0.0922	0.271	0.6706	0.043
Mof_H 	H 	0.2244	0.475	0.65	0.059
Mof_C 	C 	0.203	0.3704	0.5586	-0.089
Mof_C 	C 	0.0968	0.2318	0.5925	-0.103
Mof_H 	H 	0.0564	0.2364	0.7084	0.059
Mof_C 	C 	0.2687	0.4223	0.501	0.34
Mof_C 	C 	0.1524	0.281	0.5373	0.054
Mof_C 	C 	0.0387	0.1389	0.5679	0.365
Mof_H 	H 	0.1561	0.2541	0.4851	0.042
Mof_Mn	Mn	0.604	0.01442	0.08142	0.946
Mof_O 	O 	0.5928	0.1475	0.17086	-0.32
Mof_O 	O 	0.6704	0.0085	0.20604	-0.305
Mof_O 	O 	0.5276	0.1195	0.00571	-0.377
Mof_O 	O 	0.4986	0.9146	0.1234	-0.35
Mof_O 	O 	0.7082	0.0151	0.9887	-0.338
Mof_O 	O 	0.6983	0.8664	0.0535	-0.294
Mof_C 	C 	0.6353	0.0972	0.2216	0.324
Mof_C 	C 	0.6404	0.1386	0.3073	-0.08
Mof_C 	C 	0.6941	0.0875	0.3639	0.035
Mof_C 	C 	0.5922	0.229	0.3294	0.043
Mof_H 	H 	0.7244	0.025	0.35	0.058
Mof_C 	C 	0.703	0.1296	0.4414	-0.089
Mof_C 	C 	0.5968	0.2682	0.4075	-0.103
Mof_H 	H 	0.5564	0.2636	0.2916	0.058
Mof_C 	C 	0.7687	0.0777	0.499	0.34
Mof_C 	C 	0.6524	0.219	0.4627	0.054
Mof_C 	C 	0.5387	0.3611	0.4321	0.365
Mof_H 	H 	0.6561	0.2459	0.5149	0.042
Mof_Mn	Mn	0.896	0.98558	0.58142	0.951
Mof_O 	O 	0.9072	0.8525	0.67086	-0.32
Mof_O 	O 	0.8296	0.9915	0.70604	-0.304
Mof_O 	O 	0.9724	0.8805	0.50571	-0.373
Mof_O 	O 	0.0014	0.0854	0.6234	-0.351
Mof_O 	O 	0.7918	0.9849	0.4887	-0.348
Mof_O 	O 	0.8017	0.1336	0.5535	-0.302
Mof_C 	C 	0.8647	0.9028	0.7216	0.322
Mof_C 	C 	0.8596	0.8614	0.8073	-0.076
Mof_C 	C 	0.8059	0.9125	0.8639	0.029
Mof_C 	C 	0.9078	0.771	0.8294	0.038
Mof_H 	H 	0.7756	0.975	0.85	0.06
Mof_C 	C 	0.797	0.8704	0.9414	-0.08
Mof_C 	C 	0.9032	0.7318	0.9075	-0.097
Mof_H 	H 	0.9436	0.7364	0.7916	0.06
Mof_C 	C 	0.7313	0.9223	0.999	0.324
Mof_C 	C 	0.8476	0.781	0.9627	0.041
Mof_C 	C 	0.9613	0.6389	0.9321	0.361
Mof_H 	H 	0.8439	0.7541	0.0149	0.048
_end
