data_functionalizedCrystal
_audit_creation_method	'EQeq! by Chris Wilmer'
_symmetry_space_group_name_H-M	'P1'
_symmetry_Int_Tables_number	1
_symmetry_cell_setting	triclinic
loop_
_symmetry_equiv_pos_as_xyz
  x,y,z
_cell_length_a	17.2471
_cell_length_b	18.932
_cell_length_c	21.34
_cell_angle_alpha	88.588
_cell_angle_beta	73.431
_cell_angle_gamma	66.759
loop_
_atom_site_label
_atom_site_type_symbol
_atom_site_fract_x
_atom_site_fract_y
_atom_site_fract_z
_atom_site_charge
Mof_O 	O 	0.4515	0.9143	0.5224	-0.412
Mof_O 	O 	0.5099	0.9871	0.4028	-0.454
Mof_O 	O 	0.3721	0.0797	0.5262	-0.429
Mof_C 	C 	0.4015	0.8873	0.5078	0.367
Mof_Zn	Zn	0.41288	0.96403	0.39277	1.218
Mof_N 	N 	0.5445	0.0177	0.3526	0.05
Mof_C 	C 	0.3712	0.8349	0.5538	-0.108
Mof_O 	O 	0.3797	0.8985	0.4541	-0.475
Mof_N 	N 	0.3392	0.9768	0.3327	-0.235
Mof_O 	O 	0.3115	0.0599	0.4496	-0.459
Mof_O 	O 	0.5127	0.0317	0.3033	-0.2
Mof_O 	O 	0.5949	0.0516	0.3584	-0.127
Mof_C 	C 	0.3186	0.8024	0.5377	0.048
Mof_C 	C 	0.3997	0.8161	0.6088	0.043
Mof_C 	C 	0.2994	0.7492	0.5784	-0.133
Mof_H 	H 	0.2979	0.8165	0.5012	0.028
Mof_C 	C 	0.3728	0.7661	0.6497	-0.124
Mof_H 	H 	0.4355	0.838	0.6179	0.054
Mof_C 	C 	0.3206	0.7313	0.6363	0.092
Mof_H 	H 	0.2697	0.7233	0.566	0.077
Mof_H 	H 	0.3918	0.7542	0.6869	0.076
Mof_C 	C 	0.2991	0.6741	0.6706	-0.065
Mof_C 	C 	0.2843	0.62	0.6984	0.016
Mof_C 	C 	0.2682	0.5592	0.7251	-0.032
Mof_C 	C 	0.2697	0.5401	0.7884	0.018
Mof_C 	C 	0.2432	0.5159	0.6882	0.014
Mof_C 	C 	0.2862	0.5827	0.8379	-0.085
Mof_C 	C 	0.2429	0.4826	0.8151	0.014
Mof_C 	C 	0.2443	0.5237	0.6159	-0.081
Mof_C 	C 	0.2195	0.4567	0.7141	0.018
Mof_C 	C 	0.3593	0.5211	0.8578	0.029
Mof_C 	C 	0.2045	0.6103	0.8963	0.024
Mof_H 	H 	0.3018	0.6251	0.8192	0.059
Mof_C 	C 	0.244	0.4739	0.8882	-0.086
Mof_C 	C 	0.2184	0.4388	0.7781	-0.036
Mof_C 	C 	0.3078	0.4424	0.5813	0.025
Mof_C 	C 	0.1559	0.5311	0.6125	0.022
Mof_H 	H 	0.2606	0.5661	0.5982	0.057
Mof_C 	C 	0.1997	0.4125	0.6658	-0.089
Mof_C 	C 	0.3395	0.4594	0.8845	0.024
Mof_C 	C 	0.4433	0.5195	0.8512	-0.08
Mof_C 	C 	0.1843	0.5496	0.9241	0.035
Mof_C 	C 	0.1552	0.6854	0.9264	-0.064
Mof_H 	H 	0.229	0.4311	0.9068	0.058
Mof_C 	C 	0.2009	0.3756	0.8034	0.022
Mof_C 	C 	0.2837	0.3834	0.6077	0.026
Mof_C 	C 	0.3835	0.4241	0.527	-0.075
Mof_C 	C 	0.1332	0.4721	0.6407	0.034
Mof_C 	C 	0.1003	0.5926	0.5869	-0.065
Mof_H 	H 	0.1822	0.3713	0.6847	0.058
Mof_C 	C 	0.3958	0.3981	0.9092	-0.072
Mof_C 	C 	0.498	0.4588	0.8775	-0.025
Mof_H 	H 	0.4596	0.5584	0.8322	0.06
Mof_C 	C 	0.1093	0.5651	0.9784	-0.085
Mof_C 	C 	0.0766	0.7051	0.9778	-0.039
Mof_H 	H 	0.1714	0.7248	0.9085	0.061
Mof_C 	C 	0.1845	0.3214	0.8258	-0.08
Mof_C 	C 	0.3376	0.307	0.5827	-0.07
Mof_C 	C 	0.4351	0.347	0.5025	-0.024
Mof_H 	H 	0.4016	0.4626	0.5094	0.06
Mof_C 	C 	0.0522	0.4709	0.6414	-0.083
Mof_C 	C 	0.0205	0.592	0.5845	-0.042
Mof_H 	H 	0.1174	0.6315	0.5685	0.051
Mof_C 	C 	0.4768	0.3998	0.9084	-0.037
Mof_H 	H 	0.3819	0.3566	0.9239	0.052
Mof_H 	H 	0.554	0.457	0.8736	0.042
Mof_C 	C 	0.0573	0.6428	0.0022	-0.016
Mof_H 	H 	0.0958	0.5251	0.9974	0.064
Mof_H 	H 	0.0408	0.7558	0.9959	0.055
Mof_C 	C 	0.1572	0.2647	0.8532	0.118
Mof_C 	C 	0.41	0.2882	0.5272	-0.033
Mof_H 	H 	0.323	0.2674	0.6026	0.055
Mof_H 	H 	0.4865	0.3339	0.4671	0.044
Mof_C 	C 	0.0008	0.5318	0.6134	-0.019
Mof_H 	H 	0.0346	0.4324	0.6603	0.061
Mof_H 	H 	0.9821	0.6306	0.5666	0.045
Mof_H 	H 	0.5138	0.3628	0.9283	0.04
Mof_H 	H 	0.0073	0.6536	0.0381	0.041
Mof_C 	C 	0.1143	0.2338	0.8216	-0.166
Mof_C 	C 	0.1773	0.2333	0.9093	-0.171
Mof_H 	H 	0.4439	0.2371	0.5085	0.05
Mof_H 	H 	0.948	0.5308	0.6116	0.041
Mof_C 	C 	0.0897	0.1756	0.8508	0.09
Mof_H 	H 	0.1029	0.2517	0.7828	0.085
Mof_C 	C 	0.1453	0.1799	0.9393	0.089
Mof_H 	H 	0.2117	0.2481	0.9279	0.089
Mof_C 	C 	0.0991	0.1506	0.9107	-0.169
Mof_H 	H 	0.0641	0.1536	0.8284	0.013
Mof_H 	H 	0.1553	0.1625	0.9788	0.01
Mof_C 	C 	0.0608	0.0951	0.9437	0.467
Mof_O 	O 	0.0349	0.0645	0.9088	-0.497
Mof_O 	O 	0.0559	0.0911	0.0006	-0.51
Mof_Zn	Zn	0.98277	0.98473	0.94109	1.217
Mof_N 	N 	0.9278	0.9768	0.8715	-0.226
Mof_O 	O 	0.109	0.9044	0.9117	-0.473
Mof_O 	O 	0.865	0.0733	0.9995	-0.504
Mof_C 	C 	0.929	0.0234	0.8204	0.038
Mof_C 	C 	0.8771	0.9338	0.8808	0.047
Mof_C 	C 	0.1562	0.8925	0.9482	0.454
Mof_C 	C 	0.8806	0.0318	0.7764	-0.125
Mof_H 	H 	0.9643	0.0511	0.8157	0.012
Mof_C 	C 	0.8258	0.9437	0.8375	-0.097
Mof_H 	H 	0.8766	0.8999	0.9134	0.019
Mof_C 	C 	0.2528	0.8391	0.921	-0.144
Mof_C 	C 	0.8284	0.9894	0.7854	0.047
Mof_H 	H 	0.8836	0.0645	0.743	0.071
Mof_H 	H 	0.788	0.9181	0.844	0.069
Mof_C 	C 	0.3073	0.8266	0.9613	0.062
Mof_C 	C 	0.2836	0.7995	0.8581	0.066
Mof_C 	C 	0.774	0.9994	0.7436	0.103
Mof_C 	C 	0.3963	0.7733	0.9383	-0.141
Mof_H 	H 	0.286	0.8572	0.0016	0.028
Mof_C 	C 	0.372	0.7468	0.8362	-0.142
Mof_H 	H 	0.2472	0.81	0.8308	0.026
Mof_C 	C 	0.8033	0.0054	0.677	-0.16
Mof_C 	C 	0.686	0.0072	0.7704	-0.153
Mof_C 	C 	0.4278	0.7349	0.8752	0.101
Mof_H 	H 	0.4336	0.7624	0.9651	0.08
Mof_H 	H 	0.3933	0.7181	0.7955	0.078
Mof_C 	C 	0.747	0.0168	0.6383	0.068
Mof_H 	H 	0.8605	0.0031	0.6584	0.081
Mof_C 	C 	0.6275	0.0174	0.734	0.056
Mof_H 	H 	0.6656	0.0047	0.8156	0.076
Mof_C 	C 	0.5146	0.6775	0.8507	-0.064
Mof_H 	H 	0.7671	0.0201	0.5929	0.001
Mof_H 	H 	0.5706	0.0187	0.7517	-0.007
Mof_C 	C 	0.5869	0.6226	0.8221	0.016
Mof_C 	C 	0.6653	0.5597	0.7885	-0.032
Mof_C 	C 	0.6833	0.5461	0.7206	0.017
Mof_C 	C 	0.7316	0.516	0.816	0.017
Mof_C 	C 	0.62	0.5882	0.6794	-0.09
Mof_C 	C 	0.7599	0.4856	0.6826	0.016
Mof_C 	C 	0.7265	0.526	0.8871	-0.084
Mof_C 	C 	0.81	0.457	0.7773	0.017
Mof_C 	C 	0.607	0.5316	0.645	0.037
Mof_C 	C 	0.6747	0.6208	0.6269	0.033
Mof_H 	H 	0.5642	0.6294	0.7058	0.059
Mof_C 	C 	0.7647	0.4829	0.6112	-0.081
Mof_C 	C 	0.8253	0.4405	0.7106	-0.033
Mof_C 	C 	0.742	0.44	0.9079	0.023
Mof_C 	C 	0.8075	0.5364	0.8884	0.028
Mof_H 	H 	0.6718	0.5663	0.9144	0.06
Mof_C 	C 	0.8721	0.4124	0.8162	-0.084
Mof_C 	C 	0.6833	0.4695	0.6084	0.018
Mof_C 	C 	0.5251	0.5311	0.6472	-0.085
Mof_C 	C 	0.7526	0.5604	0.5912	0.024
Mof_C 	C 	0.652	0.6996	0.6206	-0.079
Mof_H 	H 	0.8203	0.4417	0.5845	0.057
Mof_C 	C 	0.9053	0.379	0.6711	0.019
Mof_C 	C 	0.8196	0.3817	0.8686	0.031
Mof_C 	C 	0.6839	0.4228	0.9603	-0.073
Mof_C 	C 	0.8853	0.4757	0.8514	0.025
Mof_C 	C 	0.8125	0.5987	0.9184	-0.072
Mof_H 	H 	0.9281	0.3717	0.7893	0.057
Mof_C 	C 	0.6806	0.4104	0.5723	-0.064
Mof_C 	C 	0.5232	0.4709	0.6122	-0.019
Mof_H 	H 	0.4726	0.5708	0.6719	0.06
Mof_C 	C 	0.8058	0.5858	0.5422	-0.067
Mof_C 	C 	0.7116	0.7203	0.5724	-0.018
Mof_H 	H 	0.5987	0.7368	0.6463	0.066
Mof_C 	C 	0.9693	0.3264	0.6416	-0.07
Mof_C 	C 	0.8405	0.3045	0.8794	-0.075
Mof_C 	C 	0.7061	0.3459	0.9729	-0.029
Mof_H 	H 	0.6336	0.4614	0.9872	0.06
Mof_C 	C 	0.9672	0.4775	0.8466	-0.074
Mof_C 	C 	0.8942	0.6	0.9148	-0.032
Mof_H 	H 	0.76	0.6376	0.9444	0.053
Mof_C 	C 	0.5989	0.4099	0.5739	-0.044
Mof_H 	H 	0.7329	0.3717	0.5461	0.049
Mof_H 	H 	0.4685	0.4719	0.613	0.039
Mof_C 	C 	0.789	0.6633	0.5315	-0.036
Mof_H 	H 	0.8586	0.5478	0.5161	0.057
Mof_H 	H 	0.6994	0.772	0.5671	0.045
Mof_C 	C 	0.0504	0.2676	0.6065	0.097
Mof_C 	C 	0.7825	0.2881	0.9326	-0.026
Mof_H 	H 	0.892	0.2656	0.8529	0.06
Mof_H 	H 	0.6687	0.3339	0.008	0.044
Mof_C 	C 	0.9715	0.5377	0.88	-0.029
Mof_H 	H 	0.0186	0.4387	0.8211	0.059
Mof_H 	H 	0.8958	0.6415	0.9362	0.041
Mof_H 	H 	0.5958	0.37	0.5514	0.044
Mof_H 	H 	0.8263	0.6771	0.498	0.048
Mof_C 	C 	0.1205	0.243	0.6331	-0.14
Mof_C 	C 	0.066	0.2315	0.5454	-0.146
Mof_H 	H 	0.7935	0.237	0.9407	0.045
Mof_H 	H 	0.0259	0.5381	0.8783	0.045
Mof_C 	C 	0.2044	0.1875	0.5986	0.055
Mof_H 	H 	0.1112	0.2644	0.6749	0.074
Mof_C 	C 	0.148	0.1738	0.5121	0.056
Mof_H 	H 	0.0205	0.248	0.5262	0.079
Mof_C 	C 	0.2191	0.1509	0.538	-0.125
Mof_H 	H 	0.2519	0.1751	0.6157	0.026
Mof_H 	H 	0.1558	0.1484	0.4723	0.022
Mof_C 	C 	0.3104	0.0944	0.4989	0.38
Mof_O 	O 	0.5485	0.0857	0.4776	-0.424
Mof_O 	O 	0.4901	0.0129	0.5972	-0.493
Mof_O 	O 	0.6279	0.9203	0.4738	-0.413
Mof_C 	C 	0.5985	0.1127	0.4922	0.366
Mof_Zn	Zn	0.58712	0.03597	0.60723	1.21
Mof_N 	N 	0.4555	0.9823	0.6474	0.072
Mof_C 	C 	0.6288	0.1651	0.4462	-0.112
Mof_O 	O 	0.6203	0.1015	0.5459	-0.482
Mof_N 	N 	0.6608	0.0232	0.6673	-0.261
Mof_O 	O 	0.6885	0.9401	0.5504	-0.432
Mof_O 	O 	0.4873	0.9683	0.6967	-0.178
Mof_O 	O 	0.4051	0.9484	0.6416	-0.115
Mof_C 	C 	0.6814	0.1976	0.4623	0.047
Mof_C 	C 	0.6003	0.1839	0.3912	0.042
Mof_C 	C 	0.7006	0.2508	0.4216	-0.136
Mof_H 	H 	0.7021	0.1835	0.4988	0.025
Mof_C 	C 	0.6272	0.2339	0.3503	-0.126
Mof_H 	H 	0.5645	0.162	0.3821	0.053
Mof_C 	C 	0.6794	0.2687	0.3637	0.091
Mof_H 	H 	0.7303	0.2767	0.434	0.077
Mof_H 	H 	0.6082	0.2458	0.3131	0.075
Mof_C 	C 	0.7009	0.3259	0.3294	-0.066
Mof_C 	C 	0.7157	0.38	0.3016	0.016
Mof_C 	C 	0.7318	0.4408	0.2749	-0.032
Mof_C 	C 	0.7303	0.4599	0.2116	0.017
Mof_C 	C 	0.7568	0.4841	0.3118	0.013
Mof_C 	C 	0.7138	0.4173	0.1621	-0.085
Mof_C 	C 	0.7571	0.5174	0.1849	0.014
Mof_C 	C 	0.7557	0.4763	0.3841	-0.081
Mof_C 	C 	0.7805	0.5433	0.2859	0.018
Mof_C 	C 	0.6407	0.4789	0.1422	0.029
Mof_C 	C 	0.7955	0.3897	0.1037	0.024
Mof_H 	H 	0.6982	0.3749	0.1808	0.059
Mof_C 	C 	0.756	0.5261	0.1118	-0.086
Mof_C 	C 	0.7816	0.5612	0.2219	-0.036
Mof_C 	C 	0.6922	0.5576	0.4187	0.025
Mof_C 	C 	0.8441	0.4689	0.3875	0.022
Mof_H 	H 	0.7394	0.4339	0.4018	0.057
Mof_C 	C 	0.8003	0.5875	0.3342	-0.089
Mof_C 	C 	0.6605	0.5406	0.1155	0.025
Mof_C 	C 	0.5567	0.4805	0.1488	-0.079
Mof_C 	C 	0.8157	0.4504	0.0759	0.035
Mof_C 	C 	0.8448	0.3146	0.0736	-0.064
Mof_H 	H 	0.771	0.5689	0.0932	0.059
Mof_C 	C 	0.7991	0.6244	0.1966	0.022
Mof_C 	C 	0.7163	0.6166	0.3923	0.027
Mof_C 	C 	0.6165	0.5759	0.473	-0.074
Mof_C 	C 	0.8668	0.5279	0.3593	0.034
Mof_C 	C 	0.8997	0.4074	0.4131	-0.066
Mof_H 	H 	0.8178	0.6287	0.3153	0.059
Mof_C 	C 	0.6042	0.6019	0.0908	-0.073
Mof_C 	C 	0.502	0.5412	0.1225	-0.025
Mof_H 	H 	0.5404	0.4416	0.1678	0.06
Mof_C 	C 	0.8907	0.4349	0.0216	-0.085
Mof_C 	C 	0.9234	0.2949	0.0222	-0.04
Mof_H 	H 	0.8286	0.2752	0.0915	0.061
Mof_C 	C 	0.8155	0.6786	0.1742	-0.078
Mof_C 	C 	0.6624	0.693	0.4173	-0.07
Mof_C 	C 	0.5649	0.653	0.4975	-0.024
Mof_H 	H 	0.5984	0.5374	0.4906	0.06
Mof_C 	C 	0.9478	0.5291	0.3586	-0.084
Mof_C 	C 	0.9795	0.408	0.4155	-0.04
Mof_H 	H 	0.8826	0.3685	0.4315	0.05
Mof_C 	C 	0.5232	0.6002	0.0916	-0.036
Mof_H 	H 	0.6181	0.6434	0.0761	0.054
Mof_H 	H 	0.446	0.543	0.1264	0.042
Mof_C 	C 	0.9427	0.3572	0.9978	-0.015
Mof_H 	H 	0.9042	0.4749	0.0026	0.064
Mof_H 	H 	0.9592	0.2442	0.0041	0.057
Mof_C 	C 	0.8428	0.7353	0.1468	0.117
Mof_C 	C 	0.59	0.7118	0.4728	-0.032
Mof_H 	H 	0.677	0.7326	0.3974	0.056
Mof_H 	H 	0.5135	0.6661	0.5329	0.044
Mof_C 	C 	0.9992	0.4682	0.3866	-0.017
Mof_H 	H 	0.9654	0.5676	0.3397	0.062
Mof_H 	H 	0.0179	0.3694	0.4334	0.041
Mof_H 	H 	0.4862	0.6372	0.0717	0.041
Mof_H 	H 	0.9927	0.3464	0.9619	0.041
Mof_C 	C 	0.8857	0.7662	0.1784	-0.161
Mof_C 	C 	0.8227	0.7667	0.0907	-0.167
Mof_H 	H 	0.5561	0.7629	0.4915	0.05
Mof_H 	H 	0.052	0.4692	0.3884	0.038
Mof_C 	C 	0.9103	0.8244	0.1492	0.089
Mof_H 	H 	0.8971	0.7483	0.2172	0.085
Mof_C 	C 	0.8547	0.8201	0.0607	0.088
Mof_H 	H 	0.7883	0.7519	0.0721	0.09
Mof_C 	C 	0.9009	0.8494	0.0893	-0.162
Mof_H 	H 	0.9359	0.8464	0.1716	0.018
Mof_H 	H 	0.8447	0.8375	0.0212	0.015
Mof_C 	C 	0.9392	0.9049	0.0563	0.466
Mof_O 	O 	0.9651	0.9355	0.0912	-0.478
Mof_O 	O 	0.9441	0.9089	0.9994	-0.501
Mof_Zn	Zn	0.01723	0.01527	0.05891	1.205
Mof_N 	N 	0.0722	0.0232	0.1285	-0.254
Mof_O 	O 	0.891	0.0956	0.0883	-0.485
Mof_O 	O 	0.135	0.9267	0.0005	-0.485
Mof_C 	C 	0.071	0.9766	0.1796	0.079
Mof_C 	C 	0.1229	0.0662	0.1192	0.043
Mof_C 	C 	0.8438	0.1075	0.0518	0.46
Mof_C 	C 	0.1194	0.9682	0.2236	-0.099
Mof_H 	H 	0.0357	0.9489	0.1843	0.007
Mof_C 	C 	0.1742	0.0563	0.1625	-0.116
Mof_H 	H 	0.1234	0.1001	0.0866	0.016
Mof_C 	C 	0.7472	0.1609	0.079	-0.154
Mof_C 	C 	0.1716	0.0106	0.2146	0.045
Mof_H 	H 	0.1164	0.9355	0.257	0.072
Mof_H 	H 	0.212	0.0819	0.156	0.067
Mof_C 	C 	0.6927	0.1734	0.0387	0.066
Mof_C 	C 	0.7164	0.2005	0.1419	0.07
Mof_C 	C 	0.226	0.0006	0.2564	-0.04
Mof_C 	C 	0.6037	0.2267	0.0617	-0.147
Mof_H 	H 	0.714	0.1428	0.9984	0.021
Mof_C 	C 	0.628	0.2532	0.1638	-0.148
Mof_H 	H 	0.7528	0.19	0.1692	0.021
Mof_C 	C 	0.1967	0.9946	0.323	-0.035
Mof_C 	C 	0.314	0.9928	0.2296	-0.03
Mof_C 	C 	0.5722	0.2651	0.1248	0.103
Mof_H 	H 	0.5664	0.2376	0.0349	0.079
Mof_H 	H 	0.6067	0.2819	0.2045	0.079
Mof_C 	C 	0.253	0.9832	0.3617	0.019
Mof_H 	H 	0.1395	0.9969	0.3416	0.052
Mof_C 	C 	0.3725	0.9826	0.266	0.006
Mof_H 	H 	0.3344	0.9953	0.1844	0.052
Mof_C 	C 	0.4854	0.3225	0.1493	-0.067
Mof_H 	H 	0.2329	0.9799	0.4071	0.029
Mof_H 	H 	0.4294	0.9813	0.2483	0.024
Mof_C 	C 	0.4131	0.3774	0.1779	0.015
Mof_C 	C 	0.3347	0.4403	0.2115	-0.032
Mof_C 	C 	0.3167	0.4539	0.2794	0.016
Mof_C 	C 	0.2684	0.484	0.184	0.017
Mof_C 	C 	0.38	0.4118	0.3206	-0.09
Mof_C 	C 	0.2401	0.5144	0.3174	0.016
Mof_C 	C 	0.2735	0.474	0.1129	-0.084
Mof_C 	C 	0.19	0.543	0.2227	0.017
Mof_C 	C 	0.393	0.4684	0.355	0.037
Mof_C 	C 	0.3253	0.3792	0.3731	0.033
Mof_H 	H 	0.4358	0.3706	0.2942	0.059
Mof_C 	C 	0.2353	0.5171	0.3888	-0.081
Mof_C 	C 	0.1747	0.5595	0.2894	-0.034
Mof_C 	C 	0.258	0.56	0.0921	0.023
Mof_C 	C 	0.1925	0.4636	0.1116	0.027
Mof_H 	H 	0.3282	0.4337	0.0856	0.059
Mof_C 	C 	0.1279	0.5876	0.1838	-0.085
Mof_C 	C 	0.3167	0.5305	0.3916	0.019
Mof_C 	C 	0.4749	0.4689	0.3528	-0.084
Mof_C 	C 	0.2474	0.4396	0.4088	0.024
Mof_C 	C 	0.348	0.3004	0.3794	-0.08
Mof_H 	H 	0.1797	0.5583	0.4155	0.058
Mof_C 	C 	0.0947	0.621	0.3289	0.02
Mof_C 	C 	0.1804	0.6183	0.1314	0.031
Mof_C 	C 	0.3161	0.5772	0.0397	-0.073
Mof_C 	C 	0.1147	0.5243	0.1486	0.026
Mof_C 	C 	0.1875	0.4013	0.0816	-0.073
Mof_H 	H 	0.0719	0.6283	0.2107	0.057
Mof_C 	C 	0.3194	0.5896	0.4277	-0.064
Mof_C 	C 	0.4768	0.5291	0.3878	-0.019
Mof_H 	H 	0.5274	0.4292	0.3281	0.06
Mof_C 	C 	0.1942	0.4142	0.4578	-0.067
Mof_C 	C 	0.2884	0.2797	0.4276	-0.019
Mof_H 	H 	0.4013	0.2632	0.3537	0.065
Mof_C 	C 	0.0307	0.6736	0.3584	-0.072
Mof_C 	C 	0.1595	0.6955	0.1206	-0.075
Mof_C 	C 	0.2939	0.6541	0.0271	-0.029
Mof_H 	H 	0.3664	0.5386	0.0128	0.06
Mof_C 	C 	0.0328	0.5225	0.1534	-0.076
Mof_C 	C 	0.1058	0.4	0.0852	-0.032
Mof_H 	H 	0.24	0.3624	0.0556	0.052
Mof_C 	C 	0.4011	0.5901	0.4261	-0.043
Mof_H 	H 	0.2671	0.6283	0.4539	0.05
Mof_H 	H 	0.5315	0.5281	0.387	0.04
Mof_C 	C 	0.211	0.3367	0.4685	-0.037
Mof_H 	H 	0.1414	0.4522	0.4839	0.057
Mof_H 	H 	0.3006	0.228	0.4329	0.044
Mof_C 	C 	0.9496	0.7324	0.3935	0.098
Mof_C 	C 	0.2175	0.7119	0.0674	-0.026
Mof_H 	H 	0.108	0.7344	0.1471	0.06
Mof_H 	H 	0.3313	0.6661	0.992	0.044
Mof_C 	C 	0.0285	0.4623	0.12	-0.032
Mof_H 	H 	0.9814	0.5613	0.1789	0.061
Mof_H 	H 	0.1042	0.3585	0.0638	0.039
Mof_H 	H 	0.4042	0.63	0.4486	0.045
Mof_H 	H 	0.1737	0.3229	0.502	0.048
Mof_C 	C 	0.8795	0.757	0.3669	-0.137
Mof_C 	C 	0.934	0.7685	0.4546	-0.141
Mof_H 	H 	0.2065	0.763	0.0593	0.046
Mof_H 	H 	0.9741	0.4619	0.1217	0.047
Mof_C 	C 	0.7956	0.8125	0.4014	0.052
Mof_H 	H 	0.8888	0.7356	0.3251	0.074
Mof_C 	C 	0.852	0.8262	0.4879	0.053
Mof_H 	H 	0.9795	0.752	0.4738	0.081
Mof_C 	C 	0.7809	0.8491	0.462	-0.115
Mof_H 	H 	0.7481	0.8249	0.3843	0.03
Mof_H 	H 	0.8442	0.8516	0.5277	0.031
Mof_C 	C 	0.6896	0.9056	0.5011	0.376
Mof_Zn	Zn	0.5	0	0.5	1.242
_end
