data_functionalizedCrystal
_audit_creation_method	'EQeq! by Chris Wilmer'
_symmetry_space_group_name_H-M	'P1'
_symmetry_Int_Tables_number	1
_symmetry_cell_setting	triclinic
loop_
_symmetry_equiv_pos_as_xyz
  x,y,z
_cell_length_a	14.3175
_cell_length_b	14.402
_cell_length_c	22.6162
_cell_angle_alpha	90
_cell_angle_beta	100.498
_cell_angle_gamma	90
loop_
_atom_site_label
_atom_site_type_symbol
_atom_site_fract_x
_atom_site_fract_y
_atom_site_fract_z
_atom_site_charge
Mof_Cd	Cd	0.75528	0.74707	0.24112	0.502
Mof_Cd	Cd	0.31474	0.12532	0.13933	0.376
Mof_O 	O 	0.8045	0.8197	0.16262	-0.249
Mof_O 	O 	0.8794	0.8623	0.2533	-0.241
Mof_C 	C 	0.8678	0.8663	0.1964	0.263
Mof_C 	C 	0.9309	0.9279	0.16728	-0
Mof_C 	C 	0.9966	0.9854	0.2013	-0.04
Mof_H 	H 	0.0017	0.9878	0.2437	0.074
Mof_C 	C 	0.0547	0.0396	0.1731	-0.012
Mof_C 	C 	0.0479	0.0355	0.1112	-0.122
Mof_H 	H 	0.0886	0.0728	0.0922	0.072
Mof_C 	C 	0.9826	0.9778	0.0771	0.14
Mof_C 	C 	0.9231	0.9253	0.105	-0.124
Mof_H 	H 	0.8763	0.887	0.0816	0.087
Mof_C 	C 	0.9838	0.9503	0.0122	-0.518
Mof_H 	H 	0.9203	0.9307	0.9908	0.135
Mof_H 	H 	0.0307	0.9006	0.0095	0.181
Mof_C 	C 	0.1238	0.1075	0.2089	0.279
Mof_O 	O 	0.1233	0.1214	0.26277	-0.246
Mof_O 	O 	0.1805	0.151	0.18093	-0.292
Mof_O 	O 	0.3946	0.094	0.2315	-0.291
Mof_O 	O 	0.3517	0.156	0.31312	-0.275
Mof_C 	C 	0.3964	0.1001	0.2869	0.304
Mof_C 	C 	0.4629	0.034	0.32689	-0.008
Mof_C 	C 	0.4661	0.0333	0.3883	-0.129
Mof_H 	H 	0.4277	0.0756	0.4055	0.092
Mof_C 	C 	0.5239	0.9722	0.425	0.162
Mof_C 	C 	0.578	0.9103	0.4001	-0.139
Mof_H 	H 	0.6163	0.8668	0.4253	0.086
Mof_C 	C 	0.5779	0.9098	0.3386	-0.009
Mof_C 	C 	0.5185	0.9722	0.3016	-0.043
Mof_H 	H 	0.5164	0.972	0.2594	0.072
Mof_C 	C 	0.5367	0.988	0.489	-0.544
Mof_H 	H 	0.5627	0.9304	0.5096	0.075
Mof_H 	H 	0.5855	0.0369	0.4995	0.186
Mof_C 	C 	0.6372	0.8418	0.3115	0.296
Mof_O 	O 	0.6442	0.8519	0.2578	-0.267
Mof_O 	O 	0.6803	0.7813	0.3456	-0.287
Mof_O 	O 	0.9639	0.9829	0.0148	0.191
Mof_O 	O 	0.5233	0.9579	0.4881	0.267
Mof_Cd	Cd	0.24472	0.24707	0.25888	0.501
Mof_Cd	Cd	0.68526	0.62532	0.36066	0.376
Mof_O 	O 	0.1955	0.3197	0.33738	-0.25
Mof_O 	O 	0.1206	0.3623	0.2467	-0.241
Mof_C 	C 	0.1322	0.3663	0.3036	0.261
Mof_C 	C 	0.0691	0.4279	0.33272	0.004
Mof_C 	C 	0.0034	0.4854	0.2987	-0.053
Mof_H 	H 	0.9983	0.4878	0.2563	0.081
Mof_C 	C 	0.9453	0.5396	0.3269	-0.006
Mof_C 	C 	0.9521	0.5355	0.3888	-0.123
Mof_H 	H 	0.9114	0.5728	0.4078	0.073
Mof_C 	C 	0.0174	0.4778	0.4229	0.139
Mof_C 	C 	0.0769	0.4253	0.395	-0.127
Mof_H 	H 	0.1237	0.387	0.4184	0.088
Mof_C 	C 	0.0162	0.4503	0.4878	-0.514
Mof_H 	H 	0.0797	0.4307	0.5092	0.136
Mof_H 	H 	0.9693	0.4006	0.4905	0.182
Mof_C 	C 	0.8762	0.6075	0.2911	0.277
Mof_O 	O 	0.8767	0.6214	0.23723	-0.245
Mof_O 	O 	0.8195	0.651	0.31907	-0.292
Mof_O 	O 	0.6054	0.594	0.2685	-0.291
Mof_O 	O 	0.6483	0.656	0.18688	-0.275
Mof_C 	C 	0.6036	0.6001	0.2131	0.304
Mof_C 	C 	0.5371	0.534	0.17311	-0.008
Mof_C 	C 	0.5339	0.5333	0.1117	-0.129
Mof_H 	H 	0.5723	0.5756	0.0945	0.092
Mof_C 	C 	0.4761	0.4722	0.075	0.162
Mof_C 	C 	0.422	0.4103	0.0999	-0.139
Mof_H 	H 	0.3837	0.3668	0.0747	0.086
Mof_C 	C 	0.4221	0.4098	0.1614	-0.009
Mof_C 	C 	0.4815	0.4722	0.1984	-0.043
Mof_H 	H 	0.4836	0.472	0.2406	0.072
Mof_C 	C 	0.4633	0.488	0.011	-0.544
Mof_H 	H 	0.4373	0.4304	0.9904	0.075
Mof_H 	H 	0.4145	0.5369	0.0005	0.186
Mof_C 	C 	0.3628	0.3418	0.1885	0.296
Mof_O 	O 	0.3558	0.3519	0.2422	-0.268
Mof_O 	O 	0.3197	0.2813	0.1544	-0.287
Mof_O 	O 	0.0361	0.4829	0.4852	0.185
Mof_O 	O 	0.4767	0.4579	0.0119	0.266
Mof_Cd	Cd	0.24472	0.25293	0.75888	0.501
Mof_Cd	Cd	0.68526	0.87468	0.86066	0.375
Mof_O 	O 	0.1955	0.1803	0.83738	-0.25
Mof_O 	O 	0.1206	0.1377	0.7467	-0.241
Mof_C 	C 	0.1322	0.1337	0.8036	0.263
Mof_C 	C 	0.0691	0.0721	0.83272	-0
Mof_C 	C 	0.0034	0.0146	0.7987	-0.04
Mof_H 	H 	0.9983	0.0122	0.7563	0.074
Mof_C 	C 	0.9453	0.9604	0.8269	-0.012
Mof_C 	C 	0.9521	0.9645	0.8888	-0.122
Mof_H 	H 	0.9114	0.9272	0.9078	0.072
Mof_C 	C 	0.0174	0.0222	0.9229	0.14
Mof_C 	C 	0.0769	0.0747	0.895	-0.124
Mof_H 	H 	0.1237	0.113	0.9184	0.087
Mof_C 	C 	0.0162	0.0497	0.9878	-0.518
Mof_H 	H 	0.0797	0.0693	0.0092	0.135
Mof_H 	H 	0.9693	0.0994	0.9905	0.181
Mof_C 	C 	0.8762	0.8925	0.7911	0.279
Mof_O 	O 	0.8767	0.8786	0.73723	-0.246
Mof_O 	O 	0.8195	0.849	0.81907	-0.292
Mof_O 	O 	0.6054	0.906	0.7685	-0.291
Mof_O 	O 	0.6483	0.844	0.68688	-0.275
Mof_C 	C 	0.6036	0.8999	0.7131	0.304
Mof_C 	C 	0.5371	0.966	0.67311	-0.008
Mof_C 	C 	0.5339	0.9667	0.6117	-0.129
Mof_H 	H 	0.5723	0.9244	0.5945	0.092
Mof_C 	C 	0.4761	0.0278	0.575	0.162
Mof_C 	C 	0.422	0.0897	0.5999	-0.139
Mof_H 	H 	0.3837	0.1332	0.5747	0.086
Mof_C 	C 	0.4221	0.0902	0.6614	-0.009
Mof_C 	C 	0.4815	0.0278	0.6984	-0.043
Mof_H 	H 	0.4836	0.028	0.7406	0.072
Mof_C 	C 	0.4633	0.012	0.511	-0.544
Mof_H 	H 	0.4373	0.0696	0.4904	0.075
Mof_H 	H 	0.4145	0.9631	0.5005	0.186
Mof_C 	C 	0.3628	0.1582	0.6885	0.296
Mof_O 	O 	0.3558	0.1481	0.7422	-0.267
Mof_O 	O 	0.3197	0.2187	0.6544	-0.287
Mof_O 	O 	0.0361	0.0171	0.9852	0.191
Mof_O 	O 	0.4767	0.0421	0.5119	0.267
Mof_Cd	Cd	0.75528	0.75293	0.74112	0.501
Mof_Cd	Cd	0.31474	0.37468	0.63933	0.375
Mof_O 	O 	0.8045	0.6803	0.66262	-0.25
Mof_O 	O 	0.8794	0.6377	0.7533	-0.241
Mof_C 	C 	0.8678	0.6337	0.6964	0.261
Mof_C 	C 	0.9309	0.5721	0.66728	0.004
Mof_C 	C 	0.9966	0.5146	0.7013	-0.053
Mof_H 	H 	0.0017	0.5122	0.7437	0.081
Mof_C 	C 	0.0547	0.4604	0.6731	-0.006
Mof_C 	C 	0.0479	0.4645	0.6112	-0.123
Mof_H 	H 	0.0886	0.4272	0.5922	0.073
Mof_C 	C 	0.9826	0.5222	0.5771	0.139
Mof_C 	C 	0.9231	0.5747	0.605	-0.127
Mof_H 	H 	0.8763	0.613	0.5816	0.088
Mof_C 	C 	0.9838	0.5497	0.5122	-0.514
Mof_H 	H 	0.9203	0.5693	0.4908	0.136
Mof_H 	H 	0.0307	0.5994	0.5095	0.182
Mof_C 	C 	0.1238	0.3925	0.7089	0.277
Mof_O 	O 	0.1233	0.3786	0.76277	-0.245
Mof_O 	O 	0.1805	0.349	0.68093	-0.292
Mof_O 	O 	0.3946	0.406	0.7315	-0.291
Mof_O 	O 	0.3517	0.344	0.81312	-0.275
Mof_C 	C 	0.3964	0.3999	0.7869	0.304
Mof_C 	C 	0.4629	0.466	0.82689	-0.008
Mof_C 	C 	0.4661	0.4667	0.8883	-0.129
Mof_H 	H 	0.4277	0.4244	0.9055	0.092
Mof_C 	C 	0.5239	0.5278	0.925	0.162
Mof_C 	C 	0.578	0.5897	0.9001	-0.139
Mof_H 	H 	0.6163	0.6332	0.9253	0.086
Mof_C 	C 	0.5779	0.5902	0.8386	-0.009
Mof_C 	C 	0.5185	0.5278	0.8016	-0.043
Mof_H 	H 	0.5164	0.528	0.7594	0.072
Mof_C 	C 	0.5367	0.512	0.989	-0.544
Mof_H 	H 	0.5627	0.5696	0.0096	0.075
Mof_H 	H 	0.5855	0.4631	0.9995	0.186
Mof_C 	C 	0.6372	0.6582	0.8115	0.296
Mof_O 	O 	0.6442	0.6481	0.7578	-0.268
Mof_O 	O 	0.6803	0.7187	0.8456	-0.287
Mof_O 	O 	0.9639	0.5171	0.5148	0.185
Mof_O 	O 	0.5233	0.5421	0.9881	0.266
_end
