data_functionalizedCrystal
_audit_creation_method	'EQeq! by Chris Wilmer'
_symmetry_space_group_name_H-M	'P1'
_symmetry_Int_Tables_number	1
_symmetry_cell_setting	triclinic
loop_
_symmetry_equiv_pos_as_xyz
  x,y,z
_cell_length_a	13.3031
_cell_length_b	13.3031
_cell_length_c	14.566
_cell_angle_alpha	90
_cell_angle_beta	90
_cell_angle_gamma	120
loop_
_atom_site_label
_atom_site_type_symbol
_atom_site_fract_x
_atom_site_fract_y
_atom_site_fract_z
_atom_site_charge
Mof_Eu	Eu	0.33333	0.66666	0.66859	2.522
Mof_Eu	Eu	0.66667	0.33334	0.83142	2.523
Mof_Eu	Eu	0.66667	0.33334	0.33142	2.515
Mof_Eu	Eu	0.33333	0.66666	0.16858	2.515
Mof_Cu	Cu	0.5	-1.13077e-32	0.5	0.899
Mof_Cu	Cu	0.5	0.5	0.5	0.928
Mof_Cu	Cu	-1.612e-17	0.5	0.5	0.897
Mof_Cu	Cu	0.5	0	-0	0.872
Mof_Cu	Cu	-0	0.5	-0	0.87
Mof_Cu	Cu	0.5	0.5	-0	0.901
Mof_H 	H 	0.7076	0.9615	0.5505	0.163
Mof_H 	H 	0.6827	0.8617	0.4809	0.147
Mof_H 	H 	0.6758	0.0246	0.4225	0.038
Mof_H 	H 	0.5416	0.8075	0.3721	0.164
Mof_H 	H 	0.6038	0.9164	0.3082	0.17
Mof_H 	H 	0.2539	0.2924	0.5505	0.113
Mof_H 	H 	0.179	0.3173	0.4809	0.109
Mof_H 	H 	0.3488	0.3242	0.4225	0.09
Mof_H 	H 	0.2659	0.4584	0.3721	0.154
Mof_H 	H 	0.3126	0.3962	0.3082	0.138
Mof_H 	H 	0.0385	0.7461	0.5505	0.102
Mof_H 	H 	0.1383	0.821	0.4809	0.126
Mof_H 	H 	0.9754	0.6512	0.4225	0.158
Mof_H 	H 	0.1925	0.7341	0.3721	0.159
Mof_H 	H 	0.0836	0.6874	0.3082	0.126
Mof_H 	H 	0.7461	0.0385	0.9495	0.056
Mof_H 	H 	0.821	0.1383	0.0191	0.025
Mof_H 	H 	0.6512	0.9754	0.0775	0.154
Mof_H 	H 	0.7341	0.1925	0.1279	0.146
Mof_H 	H 	0.6874	0.0836	0.1918	0.124
Mof_H 	H 	0.9615	0.7076	0.9495	0.116
Mof_H 	H 	0.8617	0.6827	0.0191	0.048
Mof_H 	H 	0.0246	0.6758	0.0775	0.033
Mof_H 	H 	0.8075	0.5416	0.1279	0.151
Mof_H 	H 	0.9164	0.6038	0.1918	0.167
Mof_H 	H 	0.2924	0.2539	0.9495	0.063
Mof_H 	H 	0.3173	0.179	0.0191	0.004
Mof_H 	H 	0.3242	0.3488	0.0775	0.089
Mof_H 	H 	0.4584	0.2659	0.1279	0.141
Mof_H 	H 	0.3962	0.3126	0.1918	0.134
Mof_H 	H 	0.2924	0.0385	0.4495	0.09
Mof_H 	H 	0.3173	0.1383	0.5191	0.109
Mof_H 	H 	0.3242	0.9754	0.5775	0.151
Mof_H 	H 	0.4584	0.1925	0.6279	0.154
Mof_H 	H 	0.3962	0.0836	0.6918	0.122
Mof_H 	H 	0.7461	0.7076	0.4495	0.14
Mof_H 	H 	0.821	0.6827	0.5191	0.148
Mof_H 	H 	0.6512	0.6758	0.5775	0.098
Mof_H 	H 	0.7341	0.5416	0.6279	0.165
Mof_H 	H 	0.6874	0.6038	0.6918	0.154
Mof_H 	H 	0.9615	0.2539	0.4495	0.151
Mof_H 	H 	0.8617	0.179	0.5191	0.129
Mof_H 	H 	0.0246	0.3488	0.5775	0.032
Mof_H 	H 	0.8075	0.2659	0.6279	0.159
Mof_H 	H 	0.9164	0.3126	0.6918	0.164
Mof_H 	H 	0.2539	0.9615	0.0505	0.196
Mof_H 	H 	0.179	0.8617	0.9809	0.227
Mof_H 	H 	0.3488	0.0246	0.9225	0.039
Mof_H 	H 	0.2659	0.8075	0.8721	0.17
Mof_H 	H 	0.3126	0.9164	0.8082	0.165
Mof_H 	H 	0.0385	0.2924	0.0505	0.139
Mof_H 	H 	0.1383	0.3173	0.9809	0.214
Mof_H 	H 	0.9754	0.3242	0.9225	0.154
Mof_H 	H 	0.1925	0.4584	0.8721	0.166
Mof_H 	H 	0.0836	0.3962	0.8082	0.123
Mof_H 	H 	0.7076	0.7461	0.0505	0.188
Mof_H 	H 	0.6827	0.821	0.9809	0.246
Mof_H 	H 	0.6758	0.6512	0.9225	0.1
Mof_H 	H 	0.5416	0.7341	0.8721	0.177
Mof_H 	H 	0.6038	0.6874	0.8082	0.156
Mof_C 	C 	0.5484	0.8177	0.57	0.431
Mof_C 	C 	0.6486	0.9023	0.5115	-0.337
Mof_C 	C 	0.5536	0.8846	0.3613	-0.403
Mof_C 	C 	0.4391	0.8758	0.3406	0.518
Mof_C 	C 	0.2693	0.4516	0.57	0.412
Mof_C 	C 	0.2537	0.3514	0.5115	-0.303
Mof_C 	C 	0.331	0.4464	0.3613	-0.389
Mof_C 	C 	0.4367	0.5609	0.3406	0.508
Mof_C 	C 	0.1823	0.7307	0.57	0.408
Mof_C 	C 	0.0977	0.7463	0.5115	-0.302
Mof_C 	C 	0.1154	0.669	0.3613	-0.385
Mof_C 	C 	0.1242	0.5633	0.3406	0.502
Mof_C 	C 	0.7307	0.1823	0.93	0.357
Mof_C 	C 	0.7463	0.0977	0.9885	-0.096
Mof_C 	C 	0.669	0.1154	0.1387	-0.375
Mof_C 	C 	0.5633	0.1242	0.1594	0.495
Mof_C 	C 	0.8177	0.5484	0.93	0.381
Mof_C 	C 	0.9023	0.6486	0.9885	-0.138
Mof_C 	C 	0.8846	0.5536	0.1387	-0.393
Mof_C 	C 	0.8758	0.4391	0.1594	0.511
Mof_C 	C 	0.4516	0.2693	0.93	0.359
Mof_C 	C 	0.3514	0.2537	0.9885	-0.091
Mof_C 	C 	0.4464	0.331	0.1387	-0.378
Mof_C 	C 	0.5609	0.4367	0.1594	0.501
Mof_C 	C 	0.4516	0.1823	0.43	0.403
Mof_C 	C 	0.3514	0.0977	0.4885	-0.291
Mof_C 	C 	0.4464	0.1154	0.6387	-0.382
Mof_C 	C 	0.5609	0.1242	0.6594	0.501
Mof_C 	C 	0.7307	0.5484	0.43	0.422
Mof_C 	C 	0.7463	0.6486	0.4885	-0.328
Mof_C 	C 	0.669	0.5536	0.6387	-0.399
Mof_C 	C 	0.5633	0.4391	0.6594	0.513
Mof_C 	C 	0.8177	0.2693	0.43	0.427
Mof_C 	C 	0.9023	0.2537	0.4885	-0.326
Mof_C 	C 	0.8846	0.331	0.6387	-0.399
Mof_C 	C 	0.8758	0.4367	0.6594	0.517
Mof_C 	C 	0.2693	0.8177	0.07	0.476
Mof_C 	C 	0.2537	0.9023	0.0115	-0.522
Mof_C 	C 	0.331	0.8846	0.8613	-0.405
Mof_C 	C 	0.4367	0.8758	0.8406	0.522
Mof_C 	C 	0.1823	0.4516	0.07	0.456
Mof_C 	C 	0.0977	0.3514	0.0115	-0.499
Mof_C 	C 	0.1154	0.4464	0.8613	-0.388
Mof_C 	C 	0.1242	0.5609	0.8406	0.507
Mof_C 	C 	0.5484	0.7307	0.07	0.473
Mof_C 	C 	0.6486	0.7463	0.0115	-0.526
Mof_C 	C 	0.5536	0.669	0.8613	-0.405
Mof_C 	C 	0.4391	0.5633	0.8406	0.519
Mof_N 	N 	0.6122	0.9583	0.44198	-0.091
Mof_N 	N 	0.3461	0.3878	0.44198	-0.153
Mof_N 	N 	0.0417	0.6539	0.44198	-0.206
Mof_N 	N 	0.6539	0.0417	0.05802	-0.253
Mof_N 	N 	0.9583	0.6122	0.05802	-0.135
Mof_N 	N 	0.3878	0.3461	0.05802	-0.204
Mof_N 	N 	0.3878	0.0417	0.55802	-0.205
Mof_N 	N 	0.6539	0.6122	0.55802	-0.148
Mof_N 	N 	0.9583	0.3461	0.55802	-0.09
Mof_N 	N 	0.3461	0.9583	0.94198	-0.042
Mof_N 	N 	0.0417	0.3878	0.94198	-0.15
Mof_N 	N 	0.6122	0.6539	0.94198	-0.094
Mof_O 	O 	0.4521	0.8127	0.55906	-0.562
Mof_O 	O 	0.5617	0.756	0.6267	-0.431
Mof_O 	O 	0.4011	0.9249	0.3937	-0.409
Mof_O 	O 	0.3829	0.8186	0.27233	-0.575
Mof_O 	O 	0.3606	0.5479	0.55906	-0.569
Mof_O 	O 	0.1943	0.4383	0.6267	-0.442
Mof_O 	O 	0.5238	0.5989	0.3937	-0.437
Mof_O 	O 	0.4357	0.6171	0.27233	-0.579
Mof_O 	O 	0.1873	0.6394	0.55906	-0.572
Mof_O 	O 	0.244	0.8057	0.6267	-0.428
Mof_O 	O 	0.0751	0.4762	0.3937	-0.462
Mof_O 	O 	0.1814	0.5643	0.27233	-0.589
Mof_O 	O 	0.6394	0.1873	0.94094	-0.537
Mof_O 	O 	0.8057	0.244	0.8733	-0.404
Mof_O 	O 	0.4762	0.0751	0.1063	-0.47
Mof_O 	O 	0.5643	0.1814	0.22767	-0.589
Mof_O 	O 	0.8127	0.4521	0.94094	-0.528
Mof_O 	O 	0.756	0.5617	0.8733	-0.408
Mof_O 	O 	0.9249	0.4011	0.1063	-0.416
Mof_O 	O 	0.8186	0.3829	0.22767	-0.575
Mof_O 	O 	0.5479	0.3606	0.94094	-0.534
Mof_O 	O 	0.4383	0.1943	0.8733	-0.417
Mof_O 	O 	0.5989	0.5238	0.1063	-0.445
Mof_O 	O 	0.6171	0.4357	0.22767	-0.58
Mof_O 	O 	0.5479	0.1873	0.44094	-0.571
Mof_O 	O 	0.4383	0.244	0.3733	-0.437
Mof_O 	O 	0.5989	0.0751	0.6063	-0.458
Mof_O 	O 	0.6171	0.1814	0.72767	-0.588
Mof_O 	O 	0.6394	0.4521	0.44094	-0.569
Mof_O 	O 	0.8057	0.5617	0.3733	-0.425
Mof_O 	O 	0.4762	0.4011	0.6063	-0.441
Mof_O 	O 	0.5643	0.3829	0.72767	-0.585
Mof_O 	O 	0.8127	0.3606	0.44094	-0.56
Mof_O 	O 	0.756	0.1943	0.3733	-0.439
Mof_O 	O 	0.9249	0.5238	0.6063	-0.405
Mof_O 	O 	0.8186	0.4357	0.72767	-0.575
Mof_O 	O 	0.3606	0.8127	0.05906	-0.588
Mof_O 	O 	0.1943	0.756	0.1267	-0.461
Mof_O 	O 	0.5238	0.9249	0.8937	-0.39
Mof_O 	O 	0.4357	0.8186	0.77233	-0.574
Mof_O 	O 	0.1873	0.5479	0.05906	-0.6
Mof_O 	O 	0.244	0.4383	0.1267	-0.46
Mof_O 	O 	0.0751	0.5989	0.8937	-0.44
Mof_O 	O 	0.1814	0.6171	0.77233	-0.588
Mof_O 	O 	0.4521	0.6394	0.05906	-0.598
Mof_O 	O 	0.5617	0.8057	0.1267	-0.447
Mof_O 	O 	0.4011	0.4762	0.8937	-0.423
Mof_O 	O 	0.3829	0.5643	0.77233	-0.584
_end
