data_functionalizedCrystal
_audit_creation_method	'EQeq! by Chris Wilmer'
_symmetry_space_group_name_H-M	'P1'
_symmetry_Int_Tables_number	1
_symmetry_cell_setting	triclinic
loop_
_symmetry_equiv_pos_as_xyz
  x,y,z
_cell_length_a	8.4804
_cell_length_b	14.1017
_cell_length_c	20.7617
_cell_angle_alpha	83.472
_cell_angle_beta	81.241
_cell_angle_gamma	82.823
loop_
_atom_site_label
_atom_site_type_symbol
_atom_site_fract_x
_atom_site_fract_y
_atom_site_fract_z
_atom_site_charge
Mof_Zn	Zn	0.95977	0.36078	0.27634	1.181
Mof_Zn	Zn	0.8024	0.38528	0.08453	1.209
Mof_Zn	Zn	0.04023	0.63922	0.72366	1.183
Mof_Zn	Zn	0.1976	0.61472	0.91547	1.211
Mof_H 	H 	0.7405	0.1718	0.5057	0.061
Mof_H 	H 	0.9657	0.9597	0.139	0.059
Mof_H 	H 	0.5136	0.4111	0.2083	0.012
Mof_H 	H 	0.3977	0.354	0.6497	0.058
Mof_H 	H 	0.4058	0.2763	0.2756	0.014
Mof_H 	H 	0.9543	0.9336	0.0031	0.021
Mof_H 	H 	0.8961	0.7353	0.303	0.077
Mof_H 	H 	0.6119	0.9241	0.8369	0.065
Mof_H 	H 	0.0382	0.8495	0.3204	0.056
Mof_H 	H 	0.5833	0.6953	0.0909	0.063
Mof_H 	H 	0.7096	0.1799	0.1279	-0.003
Mof_H 	H 	0.6357	0.9195	0.3357	0.062
Mof_H 	H 	0.0126	0.3366	0.9118	0.013
Mof_H 	H 	0.5348	0.1414	0.0297	0.074
Mof_H 	H 	0.0582	0.9999	0.3463	0.037
Mof_H 	H 	0.2671	0.9562	0.9815	0.08
Mof_H 	H 	0.6581	0.0805	0.3048	0.063
Mof_H 	H 	0.3054	0.8829	0.3849	0.065
Mof_H 	H 	0.1467	0.4124	0.7211	-0.03
Mof_H 	H 	0.7905	0.5641	0.9693	0.035
Mof_H 	H 	0.3643	0.0805	0.6643	0.063
Mof_H 	H 	0.2904	0.8201	0.8721	-0.003
Mof_H 	H 	0.0343	0.0403	0.861	0.071
Mof_H 	H 	0.9874	0.6634	0.0882	0.012
Mof_H 	H 	0.564	0.5748	0.5746	0.024
Mof_H 	H 	0.4864	0.5889	0.7917	0.012
Mof_H 	H 	0.436	0.4252	0.4254	0.026
Mof_H 	H 	0.632	0.787	0.1697	0.072
Mof_H 	H 	0.9918	0.1113	0.1659	0.042
Mof_H 	H 	0.0412	0.8092	0.1132	0.086
Mof_H 	H 	0.368	0.213	0.8303	0.072
Mof_H 	H 	0.3099	0.2485	0.0507	0.022
Mof_H 	H 	0.0082	0.8887	0.8341	0.033
Mof_H 	H 	0.2595	0.8282	0.4943	0.062
Mof_H 	H 	0.4087	0.544	0.6833	0.011
Mof_H 	H 	0.7058	0.3329	0.7024	0.059
Mof_H 	H 	0.3419	0.9195	0.6952	0.065
Mof_H 	H 	0.8622	0.2753	0.419	-0.017
Mof_H 	H 	0.1378	0.7247	0.581	-0.014
Mof_H 	H 	0.9618	0.1505	0.6796	0.066
Mof_H 	H 	0.1039	0.2647	0.697	0.078
Mof_H 	H 	0.6201	0.3164	0.9812	-0.014
Mof_H 	H 	0.6946	0.1171	0.6151	0.065
Mof_H 	H 	0.3799	0.6836	0.0188	-0.014
Mof_H 	H 	0.3611	0.9152	0.1956	0.069
Mof_H 	H 	0.4167	0.3047	0.9091	0.063
Mof_H 	H 	0.0457	0.0664	0.9969	0.024
Mof_H 	H 	0.5501	0.5888	0.4584	0.054
Mof_H 	H 	0.8533	0.5876	0.2789	-0.031
Mof_H 	H 	0.7329	0.0438	0.0185	0.078
Mof_H 	H 	0.9418	0.0001	0.6537	0.026
Mof_H 	H 	0.7132	0.5483	0.8634	0.008
Mof_H 	H 	0.2448	0.5754	0.2182	0.035
Mof_H 	H 	0.4499	0.4112	0.5416	0.055
Mof_H 	H 	0.2095	0.4359	0.0307	0.036
Mof_H 	H 	0.4652	0.8586	0.9703	0.073
Mof_H 	H 	0.5942	0.7237	0.7244	0.013
Mof_H 	H 	0.3881	0.0759	0.1631	0.066
Mof_H 	H 	0.6023	0.646	0.3503	0.057
Mof_H 	H 	0.9588	0.1908	0.8868	0.079
Mof_H 	H 	0.2942	0.6671	0.2976	0.061
Mof_H 	H 	0.6389	0.0848	0.8044	0.068
Mof_H 	H 	0.7552	0.4246	0.7818	0.032
Mof_H 	H 	0.2868	0.4517	0.1366	0.009
Mof_H 	H 	0.6901	0.7515	0.9493	0.023
Mof_H 	H 	0.5913	0.456	0.3167	0.011
Mof_C 	C 	0.0849	0.2789	0.7403	-0.148
Mof_C 	C 	0.6014	0.2985	0.5132	0.08
Mof_C 	C 	0.0225	0.0721	0.2604	-0.087
Mof_C 	C 	0.4993	0.3517	0.5563	-0.079
Mof_C 	C 	0.4058	0.63	0.1465	0.074
Mof_C 	C 	0.8876	0.633	0.2452	0.086
Mof_C 	C 	0.9615	0.0078	0.6955	0.042
Mof_C 	C 	0.984	0.9673	0.181	-0.078
Mof_C 	C 	0.6999	0.8103	0.9638	0.044
Mof_C 	C 	0.4147	0.0492	0.6988	-0.076
Mof_C 	C 	0.5198	0.7267	0.7622	-0.004
Mof_C 	C 	0.0285	0.2091	0.7894	0.065
Mof_C 	C 	0.6794	0.381	0.7917	-0.059
Mof_C 	C 	0.1124	0.367	0.7548	0.087
Mof_C 	C 	0.0016	0.9411	0.8027	0.042
Mof_C 	C 	0.4602	0.6011	0.5889	-0.013
Mof_C 	C 	0.2776	0.0153	0.9952	-0.121
Mof_C 	C 	0.9736	0.0984	0.7109	-0.116
Mof_C 	C 	0.5398	0.3989	0.4111	-0.013
Mof_C 	C 	0.7026	0.5039	0.9001	0.001
Mof_C 	C 	-1.17285e-17	0.2344	0.8533	-0.134
Mof_C 	C 	0.5438	0.2303	0.6442	0.088
Mof_C 	C 	0.9983	0.7659	0.9589	0.325
Mof_C 	C 	0.4963	0.9007	0.2686	0.09
Mof_C 	C 	0.016	0.0327	0.819	-0.104
Mof_C 	C 	0.563	0.9556	0.8021	-0.074
Mof_C 	C 	0.5404	0.3469	0.2008	-0.006
Mof_C 	C 	0.552	0.746	0.1792	-0.085
Mof_C 	C 	0.5264	0.0929	0.2315	0.087
Mof_C 	C 	0.4355	0.1242	0.0244	-0.122
Mof_C 	C 	0.9151	0.7211	0.2597	-0.152
Mof_C 	C 	0.7461	0.512	0.9585	-0.01
Mof_C 	C 	0.2974	0.4961	0.0999	0.002
Mof_C 	C 	0.4008	0.953	0.7174	-0.075
Mof_C 	C 	0.9689	0.6776	0.1316	0.085
Mof_C 	C 	0.9715	0.7909	0.2106	0.068
Mof_C 	C 	0.0385	0.9922	0.3045	0.014
Mof_C 	C 	0.3001	0.1897	0.0362	0.048
Mof_C 	C 	0.0264	0.9016	0.2891	-0.076
Mof_C 	C 	0.448	0.254	0.8208	-0.085
Mof_C 	C 	0.5781	0.0518	0.7827	-0.078
Mof_C 	C 	0.2246	0.6831	0.5933	0.092
Mof_C 	C 	0.3265	0.7907	0.4651	-0.075
Mof_C 	C 	0.4691	0.3178	0.621	-0.084
Mof_C 	C 	0.3206	0.619	0.2083	-0.059
Mof_C 	C 	0.5645	0.8758	0.9756	-0.119
Mof_C 	C 	0.0311	0.3224	0.8684	0.092
Mof_C 	C 	0.5942	0.37	0.8535	0.072
Mof_C 	C 	0.9965	0.8867	0.2267	0.009
Mof_C 	C 	0.4219	0.9482	0.2173	-0.079
Mof_C 	C 	0.4562	0.7697	0.3558	0.088
Mof_C 	C 	0.8482	0.8317	0.9732	-0.117
Mof_C 	C 	0.5717	0.9642	0.9948	0.047
Mof_C 	C 	0.9754	0.8291	0.7206	0.341
Mof_C 	C 	-3.81177e-17	0.7656	0.1467	-0.132
Mof_C 	C 	0.652	0.3765	0.9654	0.1
Mof_C 	C 	0.6483	0.2209	0.1565	0.096
Mof_C 	C 	0.2539	0.488	0.0415	-0.008
Mof_C 	C 	0.437	0.0444	0.1979	-0.073
Mof_C 	C 	0.0017	0.2341	0.0411	0.342
Mof_C 	C 	0.4283	0.0358	0.0052	0.051
Mof_C 	C 	0.0035	0.1133	0.7733	0.041
Mof_C 	C 	0.3517	0.7791	0.8435	0.097
Mof_C 	C 	0.4736	0.9071	0.7685	0.087
Mof_C 	C 	0.8561	0.9185	0.9948	0.044
Mof_C 	C 	0.3502	0.6744	0.2555	-0.094
Mof_C 	C 	0.4607	0.7398	0.2411	0.096
Mof_C 	C 	0.7224	0.9847	0.0048	-0.118
Mof_C 	C 	0.7754	0.3169	0.4067	0.091
Mof_C 	C 	0.5037	0.0993	0.7314	0.09
Mof_C 	C 	0.3725	0.5846	0.6488	0.01
Mof_C 	C 	0.5992	0.047	0.2826	-0.074
Mof_C 	C 	0.8722	0.5161	0.1641	0.428
Mof_C 	C 	0.348	0.6235	0.0346	0.102
Mof_C 	C 	0.3986	0.7015	0.4868	0.081
Mof_C 	C 	0.5393	0.2602	0.7589	0.096
Mof_C 	C 	0.4769	0.309	0.8677	-0.065
Mof_C 	C 	0.1278	0.4839	0.8359	0.43
Mof_C 	C 	0.4596	0.6531	0.7992	-0.006
Mof_C 	C 	0.0246	0.1709	0.2794	0.345
Mof_C 	C 	0.1518	0.1683	0.0268	-0.121
Mof_C 	C 	0.5309	0.6822	0.379	-0.084
Mof_C 	C 	0.5231	0.691	0.1323	-0.065
Mof_C 	C 	0.1439	0.0815	0.0052	0.049
Mof_C 	C 	0.5007	0.6483	0.4437	-0.08
Mof_C 	C 	0.6735	0.2093	0.5349	-0.075
Mof_C 	C 	0.9984	0.0589	0.1973	0.004
Mof_C 	C 	0.9104	0.6101	0.1803	-0.193
Mof_C 	C 	0.3551	0.8235	0.3996	-0.085
Mof_C 	C 	0.6498	0.3256	0.7445	-0.096
Mof_C 	C 	0.0896	0.3899	0.8197	-0.193
Mof_C 	C 	0.6449	0.1765	0.6004	-0.086
Mof_C 	C 	0.9775	0.9279	0.7396	-0.118
Mof_C 	C 	0.4802	0.2733	0.2378	-0.004
Mof_C 	C 	0.5853	0.9508	0.3012	-0.077
Mof_C 	C 	0.6275	0.4154	0.3512	0.01
Mof_N 	N 	0.4834	0.8015	0.2879	-0.153
Mof_N 	N 	0.3609	0.5828	0.09545	-0.14
Mof_N 	N 	0.2857	0.5696	0.99982	-0.259
Mof_N 	N 	0.7143	0.4304	0.00018	-0.259
Mof_N 	N 	0.2252	0.6355	0.6516	-0.277
Mof_N 	N 	0.6391	0.4172	0.90455	-0.141
Mof_N 	N 	0.3514	0.6861	0.85015	-0.266
Mof_N 	N 	0.5488	0.1916	0.2095	-0.137
Mof_N 	N 	0.6486	0.3139	0.14985	-0.267
Mof_N 	N 	0.5166	0.1985	0.7121	-0.153
Mof_N 	N 	0.361	0.6655	0.55414	-0.137
Mof_N 	N 	0.7748	0.3645	0.3484	-0.279
Mof_N 	N 	0.4512	0.8084	0.7905	-0.137
Mof_N 	N 	0.639	0.3345	0.44586	-0.137
Mof_O 	O 	0.86	0.447	0.20733	-0.546
Mof_O 	O 	0.8452	0.5111	0.10704	-0.486
Mof_O 	O 	0.1276	0.7905	0.96869	-0.327
Mof_O 	O 	0.9494	0.8176	0.6659	-0.352
Mof_O 	O 	0.1548	0.4889	0.89296	-0.484
Mof_O 	O 	0.14	0.553	0.79267	-0.544
Mof_O 	O 	0.9859	0.6863	0.93706	-0.456
Mof_O 	O 	0.0141	0.3137	0.06294	-0.454
Mof_O 	O 	0.0506	0.1824	0.3341	-0.347
Mof_O 	O 	0.8724	0.2095	0.03131	-0.34
Mof_O 	O 	0.9937	0.2406	0.2368	-0.485
Mof_O 	O 	0.0063	0.7594	0.7632	-0.475
_end
