data_functionalizedCrystal
_audit_creation_method	'EQeq! by Chris Wilmer'
_symmetry_space_group_name_H-M	'P1'
_symmetry_Int_Tables_number	1
_symmetry_cell_setting	triclinic
loop_
_symmetry_equiv_pos_as_xyz
  x,y,z
_cell_length_a	10.4236
_cell_length_b	10.4236
_cell_length_c	8.9487
_cell_angle_alpha	90
_cell_angle_beta	90
_cell_angle_gamma	90
loop_
_atom_site_label
_atom_site_type_symbol
_atom_site_fract_x
_atom_site_fract_y
_atom_site_fract_z
_atom_site_charge
Mof_P 	P 	0.6101	0.4066	0.2016	0.558
Mof_Co	Co	0.3715	0.6096	0.16	1.186
Mof_O 	O 	0.504	0.5001	0.2465	-0.402
Mof_O 	O 	0.6602	0.4374	0.0456	-0.453
Mof_O 	O 	0.7159	0.4263	0.3171	-0.447
Mof_O 	O 	0.5573	0.2711	0.2116	-0.439
Mof_P 	P 	0.8899	0.0934	0.2016	0.553
Mof_Co	Co	0.1285	0.8904	0.16	1.182
Mof_O 	O 	0.996	0.9999	0.2465	-0.394
Mof_O 	O 	0.8398	0.0626	0.0456	-0.452
Mof_O 	O 	0.7841	0.0737	0.3171	-0.448
Mof_O 	O 	0.9427	0.2289	0.2116	-0.439
Mof_P 	P 	0.5934	0.1101	0.7016	0.558
Mof_Co	Co	0.3904	0.8715	0.66	1.187
Mof_O 	O 	0.4999	0.004	0.7465	-0.402
Mof_O 	O 	0.5626	0.1602	0.5456	-0.455
Mof_O 	O 	0.5737	0.2159	0.8171	-0.448
Mof_O 	O 	0.7289	0.0573	0.7116	-0.442
Mof_P 	P 	0.9066	0.3899	0.7016	0.555
Mof_Co	Co	0.1096	0.6285	0.66	1.187
Mof_O 	O 	0.0001	0.496	0.7465	-0.398
Mof_O 	O 	0.9374	0.3398	0.5456	-0.456
Mof_O 	O 	0.9263	0.2841	0.8171	-0.451
Mof_O 	O 	0.7711	0.4427	0.7116	-0.44
Mof_P 	P 	0.3899	0.5934	0.7984	0.558
Mof_Co	Co	0.6285	0.3904	0.84	1.186
Mof_O 	O 	0.496	0.4999	0.7535	-0.402
Mof_O 	O 	0.3398	0.5626	0.9544	-0.453
Mof_O 	O 	0.2841	0.5737	0.6829	-0.447
Mof_O 	O 	0.4427	0.7289	0.7884	-0.439
Mof_P 	P 	0.1101	0.9066	0.7984	0.553
Mof_Co	Co	0.8715	0.1096	0.84	1.182
Mof_O 	O 	0.004	0.0001	0.7535	-0.394
Mof_O 	O 	0.1602	0.9374	0.9544	-0.452
Mof_O 	O 	0.2159	0.9263	0.6829	-0.448
Mof_O 	O 	0.0573	0.7711	0.7884	-0.439
Mof_P 	P 	0.4066	0.8899	0.2984	0.558
Mof_Co	Co	0.6096	0.1285	0.34	1.187
Mof_O 	O 	0.5001	0.996	0.2535	-0.402
Mof_O 	O 	0.4374	0.8398	0.4544	-0.455
Mof_O 	O 	0.4263	0.7841	0.1829	-0.448
Mof_O 	O 	0.2711	0.9427	0.2884	-0.442
Mof_P 	P 	0.0934	0.6101	0.2984	0.555
Mof_Co	Co	0.8904	0.3715	0.34	1.187
Mof_O 	O 	0.9999	0.504	0.2535	-0.398
Mof_O 	O 	0.0626	0.6602	0.4544	-0.456
Mof_O 	O 	0.0737	0.7159	0.1829	-0.451
Mof_O 	O 	0.2289	0.5573	0.2884	-0.44
_end
