data_functionalizedCrystal
_audit_creation_method	'EQeq! by Chris Wilmer'
_symmetry_space_group_name_H-M	'P1'
_symmetry_Int_Tables_number	1
_symmetry_cell_setting	triclinic
loop_
_symmetry_equiv_pos_as_xyz
  x,y,z
_cell_length_a	33.5118
_cell_length_b	33.5118
_cell_length_c	33.5118
_cell_angle_alpha	90
_cell_angle_beta	90
_cell_angle_gamma	90
loop_
_atom_site_label
_atom_site_type_symbol
_atom_site_fract_x
_atom_site_fract_y
_atom_site_fract_z
_atom_site_charge
Mof_Mn	Mn	0.95106	0.25	0.75	0.843
Mof_Mn	Mn	0.75	0.54894	0.25	0.843
Mof_Mn	Mn	0.45106	0.25	0.75	0.843
Mof_Mn	Mn	0.25	0.75	0.45106	0.843
Mof_Mn	Mn	0.04894	0.25	0.75	0.843
Mof_Mn	Mn	0.25	0.75	0.95106	0.843
Mof_Mn	Mn	0.75	0.95106	0.25	0.842
Mof_Mn	Mn	0.75	0.04894	0.25	0.842
Mof_Mn	Mn	0.75	0.45106	0.25	0.842
Mof_Mn	Mn	0.25	0.75	0.04894	0.842
Mof_Mn	Mn	0.25	0.75	0.54894	0.842
Mof_Mn	Mn	0.54894	0.25	0.75	0.842
Mof_H 	H 	0.409	0.8662	0.9004	0.036
Mof_H 	H 	0.3238	0.6465	0.9458	0.017
Mof_H 	H 	0.4091	0.5364	0.0973	0.058
Mof_H 	H 	0.8255	0.9354	0.3569	0.037
Mof_H 	H 	0.0231	0.0395	0.5943	0.078
Mof_H 	H 	0.3535	0.6762	0.4458	0.017
Mof_H 	H 	0.5274	0.5828	0.4852	0.067
Mof_H 	H 	0.9605	0.5231	0.4057	0.078
Mof_H 	H 	0.0274	0.5148	0.4172	0.067
Mof_H 	H 	0.5395	0.5231	0.0943	0.078
Mof_H 	H 	0.0148	0.5274	0.9172	0.067
Mof_H 	H 	0.591	0.0996	0.3662	0.036
Mof_H 	H 	0.4636	0.5909	0.5973	0.058
Mof_H 	H 	0.5148	0.0828	0.4726	0.067
Mof_H 	H 	0.0892	0.6382	0.0574	0.081
Mof_H 	H 	0.0364	0.9091	0.5973	0.058
Mof_H 	H 	0.0395	0.9057	0.4769	0.078
Mof_H 	H 	0.5943	0.4769	0.4605	0.078
Mof_H 	H 	0.0574	0.4108	0.8618	0.081
Mof_H 	H 	0.9354	0.1431	0.6745	0.037
Mof_H 	H 	0.4458	0.3535	0.6762	0.017
Mof_H 	H 	0.6465	0.9458	0.3238	0.017
Mof_H 	H 	0.4091	0.9636	0.4027	0.058
Mof_H 	H 	0.3618	0.9108	0.5574	0.081
Mof_H 	H 	0.0973	0.4091	0.5364	0.058
Mof_H 	H 	0.8662	0.9004	0.409	0.036
Mof_H 	H 	0.1382	0.5892	0.5574	0.081
Mof_H 	H 	0.4027	0.4091	0.9636	0.058
Mof_H 	H 	0.6431	0.4354	0.1745	0.037
Mof_H 	H 	0.1382	0.9108	0.9426	0.081
Mof_H 	H 	0.5892	0.5574	0.1382	0.081
Mof_H 	H 	0.1431	0.6745	0.9354	0.037
Mof_H 	H 	0.6762	0.0542	0.1465	0.017
Mof_H 	H 	0.0395	0.5943	0.0231	0.078
Mof_H 	H 	0.0996	0.1338	0.909	0.036
Mof_H 	H 	0.8618	0.4426	0.0892	0.081
Mof_H 	H 	0.0274	0.9852	0.0828	0.066
Mof_H 	H 	0.9426	0.3618	0.5892	0.081
Mof_H 	H 	0.9726	0.5828	0.0148	0.067
Mof_H 	H 	0.409	0.6338	0.5996	0.036
Mof_H 	H 	0.5973	0.4636	0.5909	0.058
Mof_H 	H 	0.6745	0.9354	0.1431	0.037
Mof_H 	H 	0.9004	0.409	0.8662	0.036
Mof_H 	H 	0.4726	0.5148	0.0828	0.067
Mof_H 	H 	0.9057	0.4769	0.0395	0.078
Mof_H 	H 	0.4636	0.9091	0.9027	0.058
Mof_H 	H 	0.0646	0.1745	0.8569	0.037
Mof_H 	H 	0.8535	0.5542	0.3238	0.017
Mof_H 	H 	0.0943	0.9605	0.9769	0.078
Mof_H 	H 	0.8255	0.5646	0.1431	0.037
Mof_H 	H 	0.9769	0.0943	0.9605	0.078
Mof_H 	H 	0.0574	0.0892	0.6382	0.081
Mof_H 	H 	0.3569	0.6745	0.5646	0.037
Mof_H 	H 	0.5943	0.0231	0.0395	0.078
Mof_H 	H 	0.5574	0.3618	0.9108	0.081
Mof_H 	H 	0.5646	0.3569	0.6745	0.037
Mof_H 	H 	0.9108	0.9426	0.1382	0.081
Mof_H 	H 	0.4605	0.5943	0.4769	0.078
Mof_H 	H 	0.5996	0.409	0.6338	0.036
Mof_H 	H 	0.909	0.4004	0.3662	0.036
Mof_H 	H 	0.4354	0.3255	0.8569	0.037
Mof_H 	H 	0.9605	0.9769	0.0943	0.078
Mof_H 	H 	0.8535	0.9458	0.1762	0.017
Mof_H 	H 	0.5909	0.9027	0.0364	0.058
Mof_H 	H 	0.0231	0.4605	0.9057	0.078
Mof_H 	H 	0.9091	0.5973	0.0364	0.058
Mof_H 	H 	0.9458	0.1762	0.8535	0.017
Mof_H 	H 	0.1338	0.909	0.0996	0.036
Mof_H 	H 	0.1745	0.8569	0.0646	0.037
Mof_H 	H 	0.0973	0.0909	0.9636	0.058
Mof_H 	H 	0.8662	0.5996	0.091	0.036
Mof_H 	H 	0.6465	0.5542	0.1762	0.017
Mof_H 	H 	0.4769	0.4605	0.5943	0.078
Mof_H 	H 	0.6382	0.0574	0.0892	0.081
Mof_H 	H 	0.5574	0.1382	0.5892	0.081
Mof_H 	H 	0.5973	0.0364	0.9091	0.058
Mof_H 	H 	0.1338	0.591	0.4004	0.036
Mof_H 	H 	0.0943	0.5395	0.5231	0.078
Mof_H 	H 	0.1465	0.8238	0.4458	0.017
Mof_H 	H 	0.6338	0.5996	0.409	0.036
Mof_H 	H 	0.3255	0.6431	0.0646	0.037
Mof_H 	H 	0.0364	0.5909	0.9027	0.058
Mof_H 	H 	0.9726	0.9172	0.4852	0.067
Mof_H 	H 	0.1431	0.8255	0.5646	0.037
Mof_H 	H 	0.4852	0.9726	0.9172	0.067
Mof_H 	H 	0.1762	0.8535	0.9458	0.017
Mof_H 	H 	0.6762	0.4458	0.3535	0.017
Mof_H 	H 	0.1762	0.6465	0.5542	0.017
Mof_H 	H 	0.5646	0.1431	0.8255	0.037
Mof_H 	H 	0.9027	0.4636	0.9091	0.058
Mof_H 	H 	0.3238	0.8535	0.5542	0.017
Mof_H 	H 	0.4426	0.0892	0.8618	0.081
Mof_H 	H 	0.5148	0.4172	0.0274	0.067
Mof_H 	H 	0.9004	0.091	0.6338	0.036
Mof_H 	H 	0.9172	0.0148	0.5274	0.067
Mof_H 	H 	0.591	0.4004	0.1338	0.036
Mof_H 	H 	0.0148	0.9726	0.5828	0.067
Mof_H 	H 	0.9636	0.0973	0.0909	0.058
Mof_H 	H 	0.4458	0.1465	0.8238	0.017
Mof_H 	H 	0.1465	0.6762	0.0542	0.017
Mof_H 	H 	0.6338	0.9004	0.091	0.036
Mof_H 	H 	0.9027	0.0364	0.5909	0.058
Mof_H 	H 	0.0542	0.3535	0.8238	0.017
Mof_H 	H 	0.3618	0.5892	0.9426	0.081
Mof_H 	H 	0.8618	0.0574	0.4108	0.081
Mof_H 	H 	0.5542	0.1762	0.6465	0.017
Mof_H 	H 	0.9852	0.4172	0.4726	0.067
Mof_H 	H 	0.5542	0.3238	0.8535	0.017
Mof_H 	H 	0.3662	0.909	0.4004	0.036
Mof_H 	H 	0.5274	0.9172	0.0148	0.067
Mof_H 	H 	0.8569	0.4354	0.3255	0.037
Mof_H 	H 	0.9852	0.0828	0.0274	0.066
Mof_H 	H 	0.9636	0.4027	0.4091	0.058
Mof_H 	H 	0.9108	0.5574	0.3618	0.081
Mof_H 	H 	0.091	0.8662	0.5996	0.036
Mof_H 	H 	0.0909	0.9636	0.0973	0.058
Mof_H 	H 	0.4769	0.0395	0.9057	0.078
Mof_H 	H 	0.4426	0.4108	0.6382	0.081
Mof_H 	H 	0.4172	0.0274	0.5148	0.067
Mof_H 	H 	0.0909	0.5364	0.4027	0.058
Mof_H 	H 	0.4004	0.1338	0.591	0.036
Mof_H 	H 	0.5231	0.4057	0.9605	0.078
Mof_H 	H 	0.8238	0.4458	0.1465	0.017
Mof_H 	H 	0.9458	0.3238	0.6465	0.017
Mof_H 	H 	0.9091	0.9027	0.4636	0.058
Mof_H 	H 	0.5828	0.4852	0.5274	0.067
Mof_H 	H 	0.9172	0.4852	0.9726	0.067
Mof_H 	H 	0.5892	0.9426	0.3618	0.081
Mof_H 	H 	0.4057	0.9605	0.5231	0.078
Mof_H 	H 	0.0828	0.0274	0.9852	0.066
Mof_H 	H 	0.5828	0.0148	0.9726	0.067
Mof_H 	H 	0.8238	0.0542	0.3535	0.017
Mof_H 	H 	0.3662	0.591	0.0996	0.036
Mof_H 	H 	0.6745	0.5646	0.3569	0.037
Mof_H 	H 	0.4605	0.9057	0.0231	0.078
Mof_H 	H 	0.9426	0.1382	0.9108	0.081
Mof_H 	H 	0.4172	0.4726	0.9852	0.067
Mof_H 	H 	0.4726	0.9852	0.4172	0.067
Mof_H 	H 	0.0828	0.4726	0.5148	0.067
Mof_H 	H 	0.4057	0.5395	0.9769	0.078
Mof_H 	H 	0.0646	0.3255	0.6431	0.037
Mof_H 	H 	0.0996	0.3662	0.591	0.036
Mof_H 	H 	0.4004	0.3662	0.909	0.036
Mof_H 	H 	0.3569	0.8255	0.9354	0.037
Mof_H 	H 	0.0892	0.8618	0.4426	0.081
Mof_H 	H 	0.4027	0.0909	0.5364	0.058
Mof_H 	H 	0.5231	0.0943	0.5395	0.078
Mof_H 	H 	0.4108	0.8618	0.0574	0.081
Mof_H 	H 	0.4852	0.5274	0.5828	0.067
Mof_H 	H 	0.8569	0.0646	0.1745	0.037
Mof_H 	H 	0.3255	0.8569	0.4354	0.037
Mof_H 	H 	0.091	0.6338	0.9004	0.036
Mof_H 	H 	0.9354	0.3569	0.8255	0.037
Mof_H 	H 	0.1745	0.6431	0.4354	0.037
Mof_H 	H 	0.9769	0.4057	0.5395	0.078
Mof_H 	H 	0.6431	0.0646	0.3255	0.037
Mof_H 	H 	0.909	0.0996	0.1338	0.036
Mof_H 	H 	0.5364	0.0973	0.4091	0.058
Mof_H 	H 	0.4108	0.6382	0.4426	0.081
Mof_H 	H 	0.3535	0.8238	0.0542	0.017
Mof_H 	H 	0.6382	0.4426	0.4108	0.081
Mof_H 	H 	0.5909	0.5973	0.4636	0.058
Mof_H 	H 	0.0542	0.1465	0.6762	0.017
Mof_H 	H 	0.9057	0.0231	0.4605	0.078
Mof_H 	H 	0.5395	0.9769	0.4057	0.078
Mof_H 	H 	0.5364	0.4027	0.0909	0.058
Mof_H 	H 	0.5996	0.091	0.8662	0.036
Mof_H 	H 	0.4354	0.1745	0.6431	0.037
Mof_C 	C 	0.91097	0.96397	0.46783	0.038
Mof_C 	C 	0.03217	0.58903	0.96397	0.038
Mof_C 	C 	0.39734	0.95017	0.49838	-0.132
Mof_C 	C 	0.92531	0.4194	0.87384	-0.022
Mof_C 	C 	0.49788	0.129	0.58328	0.089
Mof_C 	C 	0.99373	0.35027	0.82099	-0.128
Mof_C 	C 	0.03994	0.1664	0.86746	0.014
Mof_C 	C 	0.13405	0.66767	0.03055	0.062
Mof_C 	C 	0.56006	0.53373	0.50077	0.041
Mof_C 	C 	0.13405	0.83233	0.46945	0.062
Mof_C 	C 	0.36746	0.6664	0.53994	0.014
Mof_C 	C 	0.85891	0.96086	0.40134	-0.036
Mof_C 	C 	0.31497	0.70634	0.50887	0.395
Mof_C 	C 	0.60047	0.57354	0.45212	-0.084
Mof_C 	C 	0.64973	0.00627	0.32099	-0.128
Mof_C 	C 	0.91672	0.49788	0.371	0.089
Mof_C 	C 	0.58328	0.49788	0.129	0.089
Mof_C 	C 	0.81497	0.49113	0.29366	0.395
Mof_C 	C 	0.96086	0.40134	0.85891	-0.036
Mof_C 	C 	0.50887	0.31497	0.70634	0.395
Mof_C 	C 	0.5806	0.42531	0.12616	-0.022
Mof_C 	C 	0.37384	0.9194	0.42531	-0.022
Mof_C 	C 	0.50077	0.56006	0.53373	0.041
Mof_C 	C 	0.57469	0.4194	0.62616	-0.022
Mof_C 	C 	0.49788	0.371	0.91672	0.089
Mof_C 	C 	0.43994	0.49923	0.03373	0.041
Mof_C 	C 	0.41672	0.629	0.50212	0.089
Mof_C 	C 	0.50396	0.52891	0.562	-0.105
Mof_C 	C 	0.39944	0.64415	0.46751	-0.145
Mof_C 	C 	0.66767	0.46945	0.36595	0.062
Mof_C 	C 	0.41672	0.871	0.99788	0.089
Mof_C 	C 	0.09866	0.64109	0.96086	-0.036
Mof_C 	C 	0.50212	0.41672	0.629	0.089
Mof_C 	C 	0.4194	0.87384	0.92531	-0.022
Mof_C 	C 	0.08903	0.53217	0.46397	0.038
Mof_C 	C 	0.46397	0.41097	0.96783	0.038
Mof_C 	C 	0.46086	0.35891	0.90134	-0.036
Mof_C 	C 	0.938	0.99604	0.52891	-0.105
Mof_C 	C 	0.85027	0.49373	0.32099	-0.128
Mof_C 	C 	0.89734	0.99838	0.45017	-0.132
Mof_C 	C 	0.871	0.50212	0.08328	0.089
Mof_C 	C 	0.86746	0.03994	0.1664	0.014
Mof_C 	C 	0.50396	0.97109	0.938	-0.105
Mof_C 	C 	0.42531	0.37384	0.9194	-0.022
Mof_C 	C 	0.10047	0.54788	0.42646	-0.084
Mof_C 	C 	0.92646	0.45212	0.89953	-0.084
Mof_C 	C 	0.89953	0.92646	0.45212	-0.084
Mof_C 	C 	0.49373	0.17901	0.64973	-0.128
Mof_C 	C 	0.5806	0.07469	0.37384	-0.022
Mof_C 	C 	0.53217	0.46397	0.08903	0.038
Mof_C 	C 	0.04983	0.60266	0.99838	-0.132
Mof_C 	C 	0.89734	0.50162	0.04983	-0.132
Mof_C 	C 	0.53055	0.16767	0.63405	0.062
Mof_C 	C 	0.04788	0.89953	0.57354	-0.084
Mof_C 	C 	0.3336	0.63254	0.03994	0.014
Mof_C 	C 	0.60056	0.53249	0.14415	-0.145
Mof_C 	C 	0.96751	0.35585	0.60056	-0.145
Mof_C 	C 	0.4194	0.62616	0.57469	-0.022
Mof_C 	C 	0.99373	0.14973	0.67901	-0.128
Mof_C 	C 	0.08903	0.96783	0.03603	0.038
Mof_C 	C 	0.35585	0.60056	0.96751	-0.145
Mof_C 	C 	0.95017	0.00162	0.10266	-0.132
Mof_C 	C 	0.50212	0.08328	0.871	0.089
Mof_C 	C 	0.03603	0.41097	0.53217	0.038
Mof_C 	C 	0.46627	0.43994	0.00077	0.041
Mof_C 	C 	0.53994	0.36746	0.6664	0.014
Mof_C 	C 	0.00627	0.32099	0.64973	-0.128
Mof_C 	C 	0.03055	0.36595	0.83233	0.062
Mof_C 	C 	0.40134	0.85891	0.96086	-0.036
Mof_C 	C 	0.54788	0.42646	0.10047	-0.084
Mof_C 	C 	0.62616	0.92531	0.0806	-0.022
Mof_C 	C 	0.07469	0.37384	0.5806	-0.022
Mof_C 	C 	0.00396	0.062	0.02891	-0.105
Mof_C 	C 	0.871	0.99788	0.41672	0.089
Mof_C 	C 	0.68503	0.00887	0.29366	0.395
Mof_C 	C 	0.53373	0.99923	0.93994	0.041
Mof_C 	C 	0.89953	0.57354	0.04788	-0.084
Mof_C 	C 	0.62616	0.57469	0.4194	-0.022
Mof_C 	C 	0.00887	0.29366	0.68503	0.395
Mof_C 	C 	0.96751	0.14415	0.89944	-0.145
Mof_C 	C 	0.03249	0.39944	0.85585	-0.145
Mof_C 	C 	0.86595	0.53055	0.33233	0.062
Mof_C 	C 	0.64415	0.03249	0.10056	-0.145
Mof_C 	C 	0.50077	0.93994	0.96627	0.041
Mof_C 	C 	0.53994	0.13254	0.8336	0.014
Mof_C 	C 	0.10056	0.64415	0.03249	-0.145
Mof_C 	C 	0.99604	0.97109	0.562	-0.105
Mof_C 	C 	0.95017	0.49838	0.39734	-0.132
Mof_C 	C 	0.03603	0.08903	0.96783	0.038
Mof_C 	C 	0.54788	0.07354	0.39953	-0.084
Mof_C 	C 	0.99838	0.45017	0.89734	-0.132
Mof_C 	C 	0.91097	0.53603	0.03217	0.038
Mof_C 	C 	0.99113	0.31497	0.79366	0.395
Mof_C 	C 	0.50162	0.04983	0.89734	-0.132
Mof_C 	C 	0.67901	0.99373	0.14973	-0.128
Mof_C 	C 	0.1664	0.86746	0.03994	0.014
Mof_C 	C 	0.29366	0.68503	0.00887	0.395
Mof_C 	C 	0.02891	0.49604	0.438	-0.105
Mof_C 	C 	0.49373	0.32099	0.85027	-0.128
Mof_C 	C 	0.99788	0.41672	0.871	0.089
Mof_C 	C 	0.08328	0.871	0.50212	0.089
Mof_C 	C 	0.83233	0.46945	0.13405	0.062
Mof_C 	C 	0.35891	0.90134	0.46086	-0.036
Mof_C 	C 	0.45212	0.89953	0.92646	-0.084
Mof_C 	C 	0.36595	0.66767	0.46945	0.062
Mof_C 	C 	0.10056	0.85585	0.46751	-0.145
Mof_C 	C 	0.35027	0.82099	0.99373	-0.128
Mof_C 	C 	0.83233	0.03055	0.36595	0.062
Mof_C 	C 	0.562	0.50396	0.52891	-0.105
Mof_C 	C 	0.70634	0.50887	0.31497	0.395
Mof_C 	C 	0.629	0.99788	0.08328	0.089
Mof_C 	C 	0.18503	0.70634	0.99113	0.395
Mof_C 	C 	0.49923	0.03373	0.43994	0.041
Mof_C 	C 	0.07469	0.12616	0.9194	-0.022
Mof_C 	C 	0.93994	0.96627	0.50077	0.041
Mof_C 	C 	0.49838	0.39734	0.95017	-0.132
Mof_C 	C 	0.49923	0.46627	0.06006	0.041
Mof_C 	C 	0.8336	0.96006	0.36746	0.014
Mof_C 	C 	0.00212	0.371	0.58328	0.089
Mof_C 	C 	0.32099	0.64973	0.00627	-0.128
Mof_C 	C 	0.46783	0.91097	0.96397	0.038
Mof_C 	C 	0.03373	0.43994	0.49923	0.041
Mof_C 	C 	0.36746	0.8336	0.96006	0.014
Mof_C 	C 	0.41097	0.96783	0.46397	0.038
Mof_C 	C 	0.52891	0.938	0.99604	-0.105
Mof_C 	C 	0.92646	0.04788	0.60047	-0.084
Mof_C 	C 	0.96397	0.03217	0.58903	0.038
Mof_C 	C 	0.12616	0.9194	0.07469	-0.022
Mof_C 	C 	0.96945	0.33233	0.63405	0.062
Mof_C 	C 	0.53914	0.09866	0.85891	-0.036
Mof_C 	C 	0.31497	0.79366	0.99113	0.395
Mof_C 	C 	0.02891	0.00396	0.062	-0.105
Mof_C 	C 	0.08328	0.629	0.99788	0.089
Mof_C 	C 	0.20634	0.81497	0.00887	0.395
Mof_C 	C 	0.42646	0.39953	0.95212	-0.084
Mof_C 	C 	0.46783	0.58903	0.53603	0.038
Mof_C 	C 	0.56006	0.96627	0.99923	0.041
Mof_C 	C 	0.46945	0.36595	0.66767	0.062
Mof_C 	C 	0.03249	0.10056	0.64415	-0.145
Mof_C 	C 	0.60266	0.50162	0.45017	-0.132
Mof_C 	C 	0.06006	0.49923	0.46627	0.041
Mof_C 	C 	0.86595	0.96945	0.16767	0.062
Mof_C 	C 	0.07354	0.10047	0.95212	-0.084
Mof_C 	C 	0.92531	0.0806	0.62616	-0.022
Mof_C 	C 	0.96086	0.09866	0.64109	-0.036
Mof_C 	C 	0.60047	0.92646	0.04788	-0.084
Mof_C 	C 	0.438	0.47109	0.00396	-0.105
Mof_C 	C 	0.07354	0.39953	0.54788	-0.084
Mof_C 	C 	0.35585	0.89944	0.53249	-0.145
Mof_C 	C 	0.00162	0.10266	0.95017	-0.132
Mof_C 	C 	0.53249	0.35585	0.89944	-0.145
Mof_C 	C 	0.29366	0.81497	0.49113	0.395
Mof_C 	C 	0.89944	0.96751	0.14415	-0.145
Mof_C 	C 	0.17901	0.85027	0.00627	-0.128
Mof_C 	C 	0.85891	0.53914	0.09866	-0.036
Mof_C 	C 	0.10266	0.95017	0.00162	-0.132
Mof_C 	C 	0.03914	0.35891	0.59866	-0.036
Mof_C 	C 	0.79366	0.50887	0.18503	0.395
Mof_C 	C 	0.03994	0.3336	0.63254	0.014
Mof_C 	C 	0.46627	0.06006	0.49923	0.041
Mof_C 	C 	0.46751	0.10056	0.85585	-0.145
Mof_C 	C 	0.99604	0.52891	0.938	-0.105
Mof_C 	C 	0.63254	0.03994	0.3336	0.014
Mof_C 	C 	0.13254	0.8336	0.53994	0.014
Mof_C 	C 	0.49838	0.10266	0.54983	-0.132
Mof_C 	C 	0.49113	0.20634	0.68503	0.395
Mof_C 	C 	0.97109	0.562	0.99604	-0.105
Mof_C 	C 	0.04788	0.60047	0.92646	-0.084
Mof_C 	C 	0.46086	0.14109	0.59866	-0.036
Mof_C 	C 	0.57469	0.0806	0.87384	-0.022
Mof_C 	C 	0.64973	0.49373	0.17901	-0.128
Mof_C 	C 	0.96945	0.16767	0.86595	0.062
Mof_C 	C 	0.9194	0.07469	0.12616	-0.022
Mof_C 	C 	0.57354	0.04788	0.89953	-0.084
Mof_C 	C 	0.16767	0.63405	0.53055	0.062
Mof_C 	C 	0.67901	0.50627	0.35027	-0.128
Mof_C 	C 	0.96397	0.46783	0.91097	0.038
Mof_C 	C 	0.49113	0.29366	0.81497	0.395
Mof_C 	C 	0.00627	0.17901	0.85027	-0.128
Mof_C 	C 	0.45017	0.89734	0.99838	-0.132
Mof_C 	C 	0.89944	0.53249	0.35585	-0.145
Mof_C 	C 	0.062	0.47109	0.49604	-0.105
Mof_C 	C 	0.82099	0.99373	0.35027	-0.128
Mof_C 	C 	0.96006	0.36746	0.8336	0.014
Mof_C 	C 	0.90134	0.46086	0.35891	-0.036
Mof_C 	C 	0.46945	0.13405	0.83233	0.062
Mof_C 	C 	0.35027	0.67901	0.50627	-0.128
Mof_C 	C 	0.36595	0.83233	0.03055	0.062
Mof_C 	C 	0.6664	0.96006	0.13254	0.014
Mof_C 	C 	0.629	0.50212	0.41672	0.089
Mof_C 	C 	0.1664	0.63254	0.46006	0.014
Mof_C 	C 	0.03373	0.06006	0.00077	0.041
Mof_C 	C 	0.46751	0.39944	0.64415	-0.145
Mof_C 	C 	0.79366	0.99113	0.31497	0.395
Mof_C 	C 	0.99113	0.18503	0.70634	0.395
Mof_C 	C 	0.14415	0.60056	0.53249	-0.145
Mof_C 	C 	0.58903	0.96397	0.03217	0.038
Mof_C 	C 	0.14109	0.90134	0.03914	-0.036
Mof_C 	C 	0.062	0.02891	0.00396	-0.105
Mof_C 	C 	0.06006	0.00077	0.03373	0.041
Mof_C 	C 	0.99923	0.93994	0.53373	0.041
Mof_C 	C 	0.64415	0.46751	0.39944	-0.145
Mof_C 	C 	0.8336	0.53994	0.13254	0.014
Mof_C 	C 	0.438	0.02891	0.49604	-0.105
Mof_C 	C 	0.45017	0.60266	0.50162	-0.132
Mof_C 	C 	0.58903	0.53603	0.46783	0.038
Mof_C 	C 	0.9194	0.42531	0.37384	-0.022
Mof_C 	C 	0.70634	0.99113	0.18503	0.395
Mof_C 	C 	0.53217	0.03603	0.41097	0.038
Mof_C 	C 	0.57354	0.45212	0.60047	-0.084
Mof_C 	C 	0.46397	0.08903	0.53217	0.038
Mof_C 	C 	0.938	0.50396	0.97109	-0.105
Mof_C 	C 	0.371	0.58328	0.00212	0.089
Mof_C 	C 	0.49604	0.438	0.02891	-0.105
Mof_C 	C 	0.10047	0.95212	0.07354	-0.084
Mof_C 	C 	0.95212	0.07354	0.10047	-0.084
Mof_C 	C 	0.82099	0.50627	0.14973	-0.128
Mof_C 	C 	0.39953	0.54788	0.07354	-0.084
Mof_C 	C 	0.16767	0.86595	0.96945	0.062
Mof_C 	C 	0.64109	0.53914	0.40134	-0.036
Mof_C 	C 	0.68503	0.49113	0.20634	0.395
Mof_C 	C 	0.85585	0.46751	0.10056	-0.145
Mof_C 	C 	0.09866	0.85891	0.53914	-0.036
Mof_C 	C 	0.0806	0.87384	0.57469	-0.022
Mof_C 	C 	0.91672	0.00212	0.129	0.089
Mof_C 	C 	0.20634	0.68503	0.49113	0.395
Mof_C 	C 	0.90134	0.03914	0.14109	-0.036
Mof_C 	C 	0.33233	0.63405	0.96945	0.062
Mof_C 	C 	0.39953	0.95212	0.42646	-0.084
Mof_C 	C 	0.03914	0.14109	0.90134	-0.036
Mof_C 	C 	0.60056	0.96751	0.35585	-0.145
Mof_C 	C 	0.86746	0.46006	0.3336	0.014
Mof_C 	C 	0.60266	0.99838	0.04983	-0.132
Mof_C 	C 	0.52891	0.562	0.50396	-0.105
Mof_C 	C 	0.47109	0.49604	0.062	-0.105
Mof_C 	C 	0.87384	0.92531	0.4194	-0.022
Mof_C 	C 	0.33233	0.86595	0.53055	0.062
Mof_C 	C 	0.50162	0.45017	0.60266	-0.132
Mof_C 	C 	0.81497	0.00887	0.20634	0.395
Mof_C 	C 	0.12616	0.5806	0.42531	-0.022
Mof_C 	C 	0.53603	0.03217	0.91097	0.038
Mof_C 	C 	0.14973	0.82099	0.50627	-0.128
Mof_C 	C 	0.63405	0.53055	0.16767	0.062
Mof_C 	C 	0.50887	0.18503	0.79366	0.395
Mof_C 	C 	0.46006	0.3336	0.86746	0.014
Mof_C 	C 	0.96627	0.99923	0.56006	0.041
Mof_C 	C 	0.93994	0.53373	0.99923	0.041
Mof_C 	C 	0.00077	0.03373	0.06006	0.041
Mof_C 	C 	0.97109	0.938	0.50396	-0.105
Mof_C 	C 	0.0806	0.62616	0.92531	-0.022
Mof_C 	C 	0.13254	0.6664	0.96006	0.014
Mof_C 	C 	0.14415	0.89944	0.96751	-0.145
Mof_C 	C 	0.41097	0.53217	0.03603	0.038
Mof_C 	C 	0.00077	0.46627	0.43994	0.041
Mof_C 	C 	0.14973	0.67901	0.99373	-0.128
Mof_C 	C 	0.96783	0.46397	0.41097	0.038
Mof_C 	C 	0.85585	0.03249	0.39944	-0.145
Mof_C 	C 	0.46006	0.1664	0.63254	0.014
Mof_C 	C 	0.53249	0.14415	0.60056	-0.145
Mof_C 	C 	0.53603	0.46783	0.58903	0.038
Mof_C 	C 	0.03217	0.91097	0.53603	0.038
Mof_C 	C 	0.6664	0.53994	0.36746	0.014
Mof_C 	C 	0.04983	0.89734	0.50162	-0.132
Mof_C 	C 	0.59866	0.03914	0.35891	-0.036
Mof_C 	C 	0.49604	0.062	0.47109	-0.105
Mof_C 	C 	0.18503	0.79366	0.50887	0.395
Mof_C 	C 	0.59866	0.46086	0.14109	-0.036
Mof_C 	C 	0.53055	0.33233	0.86595	0.062
Mof_C 	C 	0.00887	0.20634	0.81497	0.395
Mof_C 	C 	0.14109	0.59866	0.46086	-0.036
Mof_C 	C 	0.129	0.91672	0.00212	0.089
Mof_C 	C 	0.42646	0.10047	0.54788	-0.084
Mof_C 	C 	0.95212	0.42646	0.39953	-0.084
Mof_C 	C 	0.63254	0.46006	0.1664	0.014
Mof_C 	C 	0.54983	0.00162	0.39734	-0.132
Mof_C 	C 	0.50627	0.35027	0.67901	-0.128
Mof_C 	C 	0.43994	0.00077	0.46627	0.041
Mof_C 	C 	0.96783	0.03603	0.08903	0.038
Mof_C 	C 	0.87384	0.57469	0.0806	-0.022
Mof_C 	C 	0.00162	0.39734	0.54983	-0.132
Mof_C 	C 	0.99838	0.04983	0.60266	-0.132
Mof_C 	C 	0.32099	0.85027	0.49373	-0.128
Mof_C 	C 	0.10266	0.54983	0.49838	-0.132
Mof_C 	C 	0.66767	0.03055	0.13405	0.062
Mof_C 	C 	0.00396	0.438	0.47109	-0.105
Mof_C 	C 	0.54983	0.49838	0.10266	-0.132
Mof_C 	C 	0.45212	0.60047	0.57354	-0.084
Mof_C 	C 	0.99788	0.08328	0.629	0.089
Mof_C 	C 	0.58328	0.00212	0.371	0.089
Mof_C 	C 	0.39944	0.85585	0.03249	-0.145
Mof_C 	C 	0.35891	0.59866	0.03914	-0.036
Mof_C 	C 	0.17901	0.64973	0.49373	-0.128
Mof_C 	C 	0.85027	0.00627	0.17901	-0.128
Mof_C 	C 	0.47109	0.00396	0.438	-0.105
Mof_C 	C 	0.129	0.58328	0.49788	0.089
Mof_C 	C 	0.96627	0.50077	0.93994	0.041
Mof_C 	C 	0.40134	0.64109	0.53914	-0.036
Mof_C 	C 	0.99923	0.56006	0.96627	0.041
Mof_C 	C 	0.50627	0.14973	0.82099	-0.128
Mof_C 	C 	0.371	0.91672	0.49788	0.089
Mof_C 	C 	0.64109	0.96086	0.09866	-0.036
Mof_C 	C 	0.37384	0.5806	0.07469	-0.022
Mof_C 	C 	0.53914	0.40134	0.64109	-0.036
Mof_C 	C 	0.63405	0.96945	0.33233	0.062
Mof_C 	C 	0.562	0.99604	0.97109	-0.105
Mof_C 	C 	0.42531	0.12616	0.5806	-0.022
Mof_C 	C 	0.00212	0.129	0.91672	0.089
Mof_C 	C 	0.53373	0.50077	0.56006	0.041
Mof_C 	C 	0.39734	0.54983	0.00162	-0.132
Mof_C 	C 	0.96006	0.13254	0.6664	0.014
Mof_C 	C 	0.03055	0.13405	0.66767	0.062
Mof_C 	C 	0.3336	0.86746	0.46006	0.014
Mof_O 	O 	0.28464	0.69818	0.04244	-0.396
Mof_O 	O 	0.80182	0.45756	0.28464	-0.396
Mof_O 	O 	0.29991	0.78287	0.02369	-0.386
Mof_O 	O 	0.52369	0.28287	0.79991	-0.386
Mof_O 	O 	0.54244	0.19818	0.78464	-0.396
Mof_O 	O 	0.45756	0.21536	0.69818	-0.396
Mof_O 	O 	0.30182	0.71536	0.54244	-0.396
Mof_O 	O 	0.02369	0.20009	0.71713	-0.386
Mof_O 	O 	0.70009	0.97631	0.28287	-0.386
Mof_O 	O 	0.21536	0.69818	0.45756	-0.396
Mof_O 	O 	0.02369	0.29991	0.78287	-0.386
Mof_O 	O 	0.69818	0.04244	0.28464	-0.396
Mof_O 	O 	0.20009	0.78287	0.47631	-0.386
Mof_O 	O 	0.78464	0.95756	0.30182	-0.396
Mof_O 	O 	0.54244	0.30182	0.71536	-0.396
Mof_O 	O 	0.71713	0.02369	0.20009	-0.386
Mof_O 	O 	0.71536	0.95756	0.19818	-0.396
Mof_O 	O 	0.28287	0.79991	0.52369	-0.386
Mof_O 	O 	0.19818	0.71536	0.95756	-0.396
Mof_O 	O 	0.97631	0.28287	0.70009	-0.386
Mof_O 	O 	0.47631	0.29991	0.71713	-0.386
Mof_O 	O 	0.29991	0.71713	0.47631	-0.386
Mof_O 	O 	0.70009	0.52369	0.21713	-0.386
Mof_O 	O 	0.71536	0.54244	0.30182	-0.396
Mof_O 	O 	0.47631	0.20009	0.78287	-0.386
Mof_O 	O 	0.28287	0.70009	0.97631	-0.386
Mof_O 	O 	0.79991	0.97631	0.21713	-0.386
Mof_O 	O 	0.21713	0.79991	0.97631	-0.386
Mof_O 	O 	0.21713	0.70009	0.52369	-0.386
Mof_O 	O 	0.19818	0.78464	0.54244	-0.396
Mof_O 	O 	0.80182	0.04244	0.21536	-0.396
Mof_O 	O 	0.30182	0.78464	0.95756	-0.396
Mof_O 	O 	0.71713	0.47631	0.29991	-0.386
Mof_O 	O 	0.04244	0.21536	0.80182	-0.396
Mof_O 	O 	0.78287	0.47631	0.20009	-0.386
Mof_O 	O 	0.78464	0.54244	0.19818	-0.396
Mof_O 	O 	0.69818	0.45756	0.21536	-0.396
Mof_O 	O 	0.52369	0.21713	0.70009	-0.386
Mof_O 	O 	0.45756	0.28464	0.80182	-0.396
Mof_O 	O 	0.28464	0.80182	0.45756	-0.396
Mof_O 	O 	0.95756	0.19818	0.71536	-0.396
Mof_O 	O 	0.78287	0.02369	0.29991	-0.386
Mof_O 	O 	0.97631	0.21713	0.79991	-0.386
Mof_O 	O 	0.04244	0.28464	0.69818	-0.396
Mof_O 	O 	0.95756	0.30182	0.78464	-0.396
Mof_O 	O 	0.20009	0.71713	0.02369	-0.386
Mof_O 	O 	0.79991	0.52369	0.28287	-0.386
Mof_O 	O 	0.21536	0.80182	0.04244	-0.396
Mof_Mn	Mn	0.25	0.54894	0.75	0.842
Mof_Mn	Mn	0.25	0.04894	0.75	0.842
Mof_Mn	Mn	0.25	0.95106	0.75	0.842
Mof_Mn	Mn	0.95106	0.75	0.25	0.842
Mof_Mn	Mn	0.25	0.45106	0.75	0.842
Mof_Mn	Mn	0.45106	0.75	0.25	0.842
Mof_Mn	Mn	0.75	0.25	0.95106	0.842
Mof_Mn	Mn	0.54894	0.75	0.25	0.842
Mof_Mn	Mn	0.04894	0.75	0.25	0.842
Mof_Mn	Mn	0.75	0.25	0.04894	0.842
Mof_Mn	Mn	0.75	0.25	0.54894	0.842
Mof_Mn	Mn	0.75	0.25	0.45106	0.842
Mof_H 	H 	0.1762	0.9458	0.6465	0.017
Mof_H 	H 	0.9091	0.4636	0.5973	0.058
Mof_H 	H 	0.3535	0.4458	0.8238	0.017
Mof_H 	H 	0.1382	0.9426	0.5892	0.081
Mof_H 	H 	0.3255	0.0646	0.8569	0.037
Mof_H 	H 	0.0646	0.6431	0.1745	0.037
Mof_H 	H 	0.409	0.5996	0.8662	0.036
Mof_H 	H 	0.9057	0.0395	0.0231	0.078
Mof_H 	H 	0.8238	0.3535	0.4458	0.017
Mof_H 	H 	0.5364	0.0909	0.0973	0.058
Mof_H 	H 	0.0909	0.0973	0.5364	0.058
Mof_H 	H 	0.9027	0.5909	0.4636	0.058
Mof_H 	H 	0.4027	0.5364	0.4091	0.058
Mof_H 	H 	0.409	0.9004	0.6338	0.036
Mof_H 	H 	0.0542	0.8238	0.1465	0.017
Mof_H 	H 	0.3569	0.5646	0.8255	0.037
Mof_H 	H 	0.5646	0.6745	0.1431	0.037
Mof_H 	H 	0.3662	0.4004	0.591	0.036
Mof_H 	H 	0.0364	0.9027	0.9091	0.058
Mof_H 	H 	0.6382	0.4108	0.0574	0.081
Mof_H 	H 	0.8238	0.1465	0.0542	0.017
Mof_H 	H 	0.4605	0.0231	0.5943	0.078
Mof_H 	H 	0.0231	0.5943	0.4605	0.078
Mof_H 	H 	0.4769	0.9057	0.4605	0.078
Mof_H 	H 	0.4852	0.5828	0.9726	0.067
Mof_H 	H 	0.0395	0.0231	0.9057	0.078
Mof_H 	H 	0.0364	0.5973	0.5909	0.058
Mof_H 	H 	0.4027	0.9636	0.0909	0.058
Mof_H 	H 	0.9605	0.0943	0.5231	0.078
Mof_H 	H 	0.3569	0.9354	0.6745	0.037
Mof_H 	H 	0.591	0.1338	0.0996	0.036
Mof_H 	H 	0.0574	0.6382	0.4108	0.081
Mof_H 	H 	0.5395	0.4057	0.5231	0.078
Mof_H 	H 	0.0542	0.6762	0.3535	0.017
Mof_H 	H 	0.5892	0.3618	0.5574	0.081
Mof_H 	H 	0.0148	0.5828	0.5274	0.067
Mof_H 	H 	0.091	0.5996	0.6338	0.036
Mof_H 	H 	0.0943	0.5231	0.9605	0.078
Mof_H 	H 	0.9726	0.0148	0.9172	0.066
Mof_H 	H 	0.4057	0.5231	0.5395	0.078
Mof_H 	H 	0.5574	0.5892	0.3618	0.081
Mof_H 	H 	0.4426	0.8618	0.4108	0.081
Mof_H 	H 	0.4769	0.5943	0.0395	0.078
Mof_H 	H 	0.1338	0.4004	0.909	0.036
Mof_H 	H 	0.9108	0.3618	0.9426	0.081
Mof_H 	H 	0.5892	0.1382	0.9426	0.081
Mof_H 	H 	0.3662	0.0996	0.909	0.036
Mof_H 	H 	0.8255	0.1431	0.9354	0.037
Mof_H 	H 	0.4726	0.0828	0.9852	0.067
Mof_H 	H 	0.9458	0.6465	0.1762	0.017
Mof_H 	H 	0.5909	0.0364	0.5973	0.058
Mof_H 	H 	0.9172	0.9726	0.0148	0.066
Mof_H 	H 	0.591	0.3662	0.4004	0.036
Mof_H 	H 	0.1762	0.5542	0.8535	0.017
Mof_H 	H 	0.5996	0.8662	0.409	0.036
Mof_H 	H 	0.4354	0.8569	0.1745	0.037
Mof_H 	H 	0.9852	0.0274	0.4172	0.067
Mof_H 	H 	0.8662	0.409	0.5996	0.036
Mof_H 	H 	0.9354	0.8255	0.1431	0.037
Mof_H 	H 	0.9726	0.4852	0.5828	0.067
Mof_H 	H 	0.3618	0.5574	0.5892	0.081
Mof_H 	H 	0.4458	0.8238	0.3535	0.017
Mof_H 	H 	0.0892	0.4426	0.6382	0.081
Mof_H 	H 	0.5943	0.4605	0.0231	0.078
Mof_H 	H 	0.9108	0.1382	0.5574	0.081
Mof_H 	H 	0.9057	0.4605	0.4769	0.078
Mof_H 	H 	0.5231	0.5395	0.4057	0.078
Mof_H 	H 	0.6431	0.1745	0.0646	0.037
Mof_H 	H 	0.4636	0.5973	0.9091	0.058
Mof_H 	H 	0.5274	0.0148	0.5828	0.067
Mof_H 	H 	0.1431	0.9354	0.8255	0.037
Mof_H 	H 	0.8255	0.3569	0.5646	0.037
Mof_H 	H 	0.6762	0.3535	0.0542	0.017
Mof_H 	H 	0.0943	0.9769	0.5395	0.078
Mof_H 	H 	0.5828	0.9726	0.4852	0.067
Mof_H 	H 	0.3255	0.4354	0.6431	0.037
Mof_H 	H 	0.5542	0.6465	0.3238	0.017
Mof_H 	H 	0.4057	0.9769	0.9605	0.078
Mof_H 	H 	0.5542	0.8535	0.1762	0.017
Mof_H 	H 	0.9769	0.9605	0.4057	0.078
Mof_H 	H 	0.9091	0.0364	0.9027	0.058
Mof_H 	H 	0.091	0.9004	0.8662	0.036
Mof_H 	H 	0.5909	0.4636	0.9027	0.058
Mof_H 	H 	0.0646	0.8569	0.3255	0.037
Mof_H 	H 	0.5364	0.4091	0.4027	0.058
Mof_H 	H 	0.5395	0.0943	0.9769	0.078
Mof_H 	H 	0.5973	0.9091	0.4636	0.058
Mof_H 	H 	0.6338	0.409	0.9004	0.036
Mof_H 	H 	0.0574	0.8618	0.0892	0.081
Mof_H 	H 	0.0148	0.9172	0.9726	0.066
Mof_H 	H 	0.5148	0.0274	0.0828	0.067
Mof_H 	H 	0.5274	0.4852	0.9172	0.067
Mof_H 	H 	0.9426	0.9108	0.3618	0.081
Mof_H 	H 	0.9769	0.5395	0.0943	0.078
Mof_H 	H 	0.1431	0.5646	0.6745	0.037
Mof_H 	H 	0.9004	0.8662	0.091	0.036
Mof_H 	H 	0.4108	0.4426	0.8618	0.081
Mof_H 	H 	0.0395	0.4769	0.5943	0.078
Mof_H 	H 	0.3535	0.0542	0.6762	0.017
Mof_H 	H 	0.0231	0.9057	0.0395	0.078
Mof_H 	H 	0.4636	0.9027	0.5909	0.058
Mof_H 	H 	0.0828	0.9852	0.4726	0.067
Mof_H 	H 	0.1382	0.5574	0.9108	0.081
Mof_H 	H 	0.5943	0.0395	0.4769	0.078
Mof_H 	H 	0.4426	0.6382	0.0892	0.081
Mof_H 	H 	0.3238	0.5542	0.6465	0.017
Mof_H 	H 	0.4172	0.9852	0.0274	0.067
Mof_H 	H 	0.8618	0.0892	0.0574	0.081
Mof_H 	H 	0.0909	0.4027	0.9636	0.058
Mof_H 	H 	0.9027	0.9091	0.0364	0.058
Mof_H 	H 	0.9354	0.6745	0.3569	0.037
Mof_H 	H 	0.8618	0.4108	0.4426	0.081
Mof_H 	H 	0.4172	0.5148	0.4726	0.067
Mof_H 	H 	0.9426	0.5892	0.1382	0.081
Mof_H 	H 	0.6338	0.091	0.5996	0.036
Mof_H 	H 	0.0274	0.0828	0.5148	0.067
Mof_H 	H 	0.1465	0.4458	0.6762	0.017
Mof_H 	H 	0.5574	0.9108	0.1382	0.081
Mof_H 	H 	0.909	0.1338	0.4004	0.036
Mof_H 	H 	0.1745	0.4354	0.8569	0.037
Mof_H 	H 	0.909	0.3662	0.0996	0.036
Mof_H 	H 	0.8535	0.1762	0.5542	0.017
Mof_H 	H 	0.6431	0.3255	0.4354	0.037
Mof_H 	H 	0.6762	0.1465	0.4458	0.017
Mof_H 	H 	0.6745	0.3569	0.9354	0.037
Mof_H 	H 	0.0892	0.0574	0.8618	0.081
Mof_H 	H 	0.1338	0.0996	0.591	0.036
Mof_H 	H 	0.4004	0.909	0.1338	0.036
Mof_H 	H 	0.0274	0.4172	0.9852	0.067
Mof_H 	H 	0.8569	0.3255	0.0646	0.037
Mof_H 	H 	0.5148	0.4726	0.4172	0.067
Mof_H 	H 	0.0973	0.5364	0.0909	0.058
Mof_H 	H 	0.1745	0.0646	0.6431	0.037
Mof_H 	H 	0.0996	0.591	0.1338	0.036
Mof_H 	H 	0.4458	0.6762	0.1465	0.017
Mof_H 	H 	0.0973	0.9636	0.4091	0.058
Mof_H 	H 	0.4091	0.0973	0.9636	0.058
Mof_H 	H 	0.9636	0.4091	0.0973	0.058
Mof_H 	H 	0.3618	0.9426	0.9108	0.081
Mof_H 	H 	0.6382	0.0892	0.4426	0.081
Mof_H 	H 	0.4726	0.4172	0.5148	0.067
Mof_H 	H 	0.5996	0.6338	0.091	0.036
Mof_H 	H 	0.9636	0.0909	0.4027	0.058
Mof_H 	H 	0.4091	0.4027	0.5364	0.058
Mof_H 	H 	0.4852	0.9172	0.5274	0.067
Mof_H 	H 	0.6465	0.3238	0.5542	0.017
Mof_H 	H 	0.5646	0.8255	0.3569	0.037
Mof_H 	H 	0.3238	0.9458	0.8535	0.017
Mof_H 	H 	0.5231	0.9605	0.0943	0.078
Mof_H 	H 	0.9004	0.6338	0.409	0.036
Mof_H 	H 	0.5828	0.5274	0.0148	0.067
Mof_H 	H 	0.9852	0.4726	0.0828	0.067
Mof_H 	H 	0.4108	0.0574	0.6382	0.081
Mof_H 	H 	0.0996	0.909	0.3662	0.036
Mof_H 	H 	0.4004	0.591	0.3662	0.036
Mof_H 	H 	0.0828	0.5148	0.0274	0.067
Mof_H 	H 	0.5973	0.5909	0.0364	0.058
Mof_H 	H 	0.8535	0.3238	0.9458	0.017
Mof_H 	H 	0.4354	0.6431	0.3255	0.037
Mof_H 	H 	0.1465	0.0542	0.8238	0.017
Mof_H 	H 	0.9605	0.4057	0.9769	0.078
Mof_H 	H 	0.4605	0.4769	0.9057	0.078
Mof_H 	H 	0.9458	0.8535	0.3238	0.017
Mof_H 	H 	0.6465	0.1762	0.9458	0.017
Mof_H 	H 	0.8569	0.1745	0.4354	0.037
Mof_H 	H 	0.8662	0.091	0.9004	0.036
Mof_H 	H 	0.6745	0.1431	0.5646	0.037
Mof_H 	H 	0.9172	0.5274	0.4852	0.067
Mof_C 	C 	0.13254	0.96006	0.8336	0.014
Mof_C 	C 	0.32099	0.00627	0.85027	-0.128
Mof_C 	C 	0.00887	0.81497	0.29366	0.395
Mof_C 	C 	0.79366	0.18503	0.99113	0.395
Mof_C 	C 	0.39734	0.00162	0.95017	-0.132
Mof_C 	C 	0.49604	0.47109	0.438	-0.105
Mof_C 	C 	0.95017	0.10266	0.49838	-0.132
Mof_C 	C 	0.46751	0.64415	0.10056	-0.145
Mof_C 	C 	0.04983	0.50162	0.60266	-0.132
Mof_C 	C 	0.87384	0.0806	0.92531	-0.022
Mof_C 	C 	0.53914	0.85891	0.40134	-0.036
Mof_C 	C 	0.99923	0.96627	0.93994	0.041
Mof_C 	C 	0.03994	0.63254	0.1664	0.014
Mof_C 	C 	0.92531	0.62616	0.4194	-0.022
Mof_C 	C 	0.53603	0.91097	0.46783	0.038
Mof_C 	C 	0.60047	0.04788	0.57354	-0.084
Mof_C 	C 	0.64109	0.40134	0.96086	-0.036
Mof_C 	C 	0.92646	0.89953	0.04788	-0.084
Mof_C 	C 	0.46086	0.59866	0.35891	-0.036
Mof_C 	C 	0.1664	0.46006	0.86746	0.014
Mof_C 	C 	0.871	0.08328	0.99788	0.089
Mof_C 	C 	0.99604	0.562	0.52891	-0.105
Mof_C 	C 	0.89734	0.45017	0.50162	-0.132
Mof_C 	C 	0.89734	0.04983	0.99838	-0.132
Mof_C 	C 	0.85891	0.09866	0.96086	-0.036
Mof_C 	C 	0.90134	0.14109	0.46086	-0.036
Mof_C 	C 	0.37384	0.07469	0.9194	-0.022
Mof_C 	C 	0.89944	0.14415	0.53249	-0.145
Mof_C 	C 	0.57469	0.62616	0.0806	-0.022
Mof_C 	C 	0.96086	0.85891	0.09866	-0.036
Mof_C 	C 	0.39953	0.07354	0.95212	-0.084
Mof_C 	C 	0.35585	0.53249	0.60056	-0.145
Mof_C 	C 	0.85585	0.10056	0.03249	-0.145
Mof_C 	C 	0.04983	0.99838	0.89734	-0.132
Mof_C 	C 	0.04788	0.92646	0.89953	-0.084
Mof_C 	C 	0.91672	0.129	0.49788	0.089
Mof_C 	C 	0.96945	0.63405	0.16767	0.062
Mof_C 	C 	0.58328	0.129	0.00212	0.089
Mof_C 	C 	0.82099	0.14973	0.99373	-0.128
Mof_C 	C 	0.50887	0.79366	0.31497	0.395
Mof_C 	C 	0.14415	0.96751	0.60056	-0.145
Mof_C 	C 	0.50162	0.60266	0.04983	-0.132
Mof_C 	C 	0.45017	0.99838	0.60266	-0.132
Mof_C 	C 	0.20634	0.00887	0.68503	0.395
Mof_C 	C 	0.91672	0.371	0.00212	0.089
Mof_C 	C 	0.10266	0.49838	0.95017	-0.132
Mof_C 	C 	0.36746	0.53994	0.8336	0.014
Mof_C 	C 	0.93994	0.99923	0.96627	0.041
Mof_C 	C 	0.96783	0.08903	0.46397	0.038
Mof_C 	C 	0.3336	0.03994	0.86746	0.014
Mof_C 	C 	0.58903	0.46783	0.96397	0.038
Mof_C 	C 	0.60047	0.45212	0.92646	-0.084
Mof_C 	C 	0.371	0.00212	0.91672	0.089
Mof_C 	C 	0.13405	0.46945	0.66767	0.062
Mof_C 	C 	0.53373	0.56006	0.99923	0.041
Mof_C 	C 	0.00077	0.43994	0.03373	0.041
Mof_C 	C 	0.871	0.41672	0.50212	0.089
Mof_C 	C 	0.70634	0.31497	0.99113	0.395
Mof_C 	C 	0.49373	0.64973	0.32099	-0.128
Mof_C 	C 	0.03914	0.90134	0.35891	-0.036
Mof_C 	C 	0.56006	0.50077	0.96627	0.041
Mof_C 	C 	0.42531	0.5806	0.37384	-0.022
Mof_C 	C 	0.02891	0.438	0.00396	-0.105
Mof_C 	C 	0.562	0.97109	0.50396	-0.105
Mof_C 	C 	0.6664	0.36746	0.96006	0.014
Mof_C 	C 	0.46945	0.66767	0.13405	0.062
Mof_C 	C 	0.5806	0.12616	0.07469	-0.022
Mof_C 	C 	0.64973	0.32099	0.49373	-0.128
Mof_C 	C 	0.5806	0.37384	0.42531	-0.022
Mof_C 	C 	0.00887	0.68503	0.20634	0.395
Mof_C 	C 	0.50212	0.629	0.08328	0.089
Mof_C 	C 	0.13405	0.03055	0.83233	0.062
Mof_C 	C 	0.18503	0.50887	0.70634	0.395
Mof_C 	C 	0.39944	0.03249	0.64415	-0.145
Mof_C 	C 	0.10047	0.07354	0.54788	-0.084
Mof_C 	C 	0.64415	0.10056	0.46751	-0.145
Mof_C 	C 	0.16767	0.53055	0.86595	0.062
Mof_C 	C 	0.41097	0.03603	0.96783	0.038
Mof_C 	C 	0.53994	0.8336	0.36746	0.014
Mof_C 	C 	0.50212	0.871	0.41672	0.089
Mof_C 	C 	0.10047	0.42646	0.95212	-0.084
Mof_C 	C 	0.46627	0.49923	0.43994	0.041
Mof_C 	C 	0.49838	0.95017	0.10266	-0.132
Mof_C 	C 	0.14973	0.50627	0.67901	-0.128
Mof_C 	C 	0.85585	0.39944	0.46751	-0.145
Mof_C 	C 	0.63405	0.33233	0.53055	0.062
Mof_C 	C 	0.99788	0.871	0.08328	0.089
Mof_C 	C 	0.46751	0.85585	0.39944	-0.145
Mof_C 	C 	0.59866	0.14109	0.03914	-0.036
Mof_C 	C 	0.31497	0.50887	0.79366	0.395
Mof_C 	C 	0.70634	0.18503	0.50887	0.395
Mof_C 	C 	0.58903	0.03217	0.53603	0.038
Mof_C 	C 	0.18503	0.99113	0.79366	0.395
Mof_C 	C 	0.96006	0.8336	0.13254	0.014
Mof_C 	C 	0.46397	0.53217	0.41097	0.038
Mof_C 	C 	0.53055	0.86595	0.16767	0.062
Mof_C 	C 	0.35585	0.96751	0.89944	-0.145
Mof_C 	C 	0.99113	0.70634	0.31497	0.395
Mof_C 	C 	0.96397	0.58903	0.46783	0.038
Mof_C 	C 	0.47109	0.438	0.49604	-0.105
Mof_C 	C 	0.41672	0.50212	0.871	0.089
Mof_C 	C 	0.49113	0.68503	0.29366	0.395
Mof_C 	C 	0.54983	0.39734	0.49838	-0.132
Mof_C 	C 	0.96086	0.64109	0.40134	-0.036
Mof_C 	C 	0.40134	0.96086	0.64109	-0.036
Mof_C 	C 	0.41097	0.46397	0.53217	0.038
Mof_C 	C 	0.46627	0.00077	0.06006	0.041
Mof_C 	C 	0.87384	0.4194	0.57469	-0.022
Mof_C 	C 	0.00077	0.06006	0.46627	0.041
Mof_C 	C 	0.9194	0.12616	0.42531	-0.022
Mof_C 	C 	0.49923	0.06006	0.03373	0.041
Mof_C 	C 	0.00396	0.02891	0.438	-0.105
Mof_C 	C 	0.00162	0.54983	0.10266	-0.132
Mof_C 	C 	0.0806	0.57469	0.62616	-0.022
Mof_C 	C 	0.42646	0.54788	0.39953	-0.084
Mof_C 	C 	0.32099	0.49373	0.64973	-0.128
Mof_C 	C 	0.08903	0.46397	0.96783	0.038
Mof_C 	C 	0.07469	0.9194	0.37384	-0.022
Mof_C 	C 	0.06006	0.46627	0.00077	0.041
Mof_C 	C 	0.36595	0.03055	0.66767	0.062
Mof_C 	C 	0.57354	0.60047	0.04788	-0.084
Mof_C 	C 	0.4194	0.57469	0.87384	-0.022
Mof_C 	C 	0.96397	0.91097	0.03217	0.038
Mof_C 	C 	0.53217	0.08903	0.03603	0.038
Mof_C 	C 	0.57354	0.89953	0.45212	-0.084
Mof_C 	C 	0.49373	0.85027	0.17901	-0.128
Mof_C 	C 	0.54788	0.39953	0.42646	-0.084
Mof_C 	C 	0.00212	0.91672	0.371	0.089
Mof_C 	C 	0.45017	0.50162	0.89734	-0.132
Mof_C 	C 	0.68503	0.29366	0.49113	0.395
Mof_C 	C 	0.50162	0.89734	0.45017	-0.132
Mof_C 	C 	0.53249	0.60056	0.35585	-0.145
Mof_C 	C 	0.00627	0.85027	0.32099	-0.128
Mof_C 	C 	0.43994	0.03373	0.00077	0.041
Mof_C 	C 	0.03603	0.53217	0.08903	0.038
Mof_C 	C 	0.56006	0.99923	0.53373	0.041
Mof_C 	C 	0.03373	0.00077	0.43994	0.041
Mof_C 	C 	0.46006	0.63254	0.3336	0.014
Mof_C 	C 	0.99838	0.60266	0.45017	-0.132
Mof_C 	C 	0.95017	0.39734	0.00162	-0.132
Mof_C 	C 	0.49788	0.91672	0.129	0.089
Mof_C 	C 	0.17901	0.00627	0.64973	-0.128
Mof_C 	C 	0.35027	0.50627	0.82099	-0.128
Mof_C 	C 	0.4194	0.92531	0.62616	-0.022
Mof_C 	C 	0.85027	0.32099	0.00627	-0.128
Mof_C 	C 	0.99373	0.67901	0.35027	-0.128
Mof_C 	C 	0.35891	0.03914	0.90134	-0.036
Mof_C 	C 	0.54983	0.10266	0.00162	-0.132
Mof_C 	C 	0.10056	0.03249	0.85585	-0.145
Mof_C 	C 	0.60266	0.45017	0.99838	-0.132
Mof_C 	C 	0.00212	0.58328	0.129	0.089
Mof_C 	C 	0.42646	0.95212	0.10047	-0.084
Mof_C 	C 	0.1664	0.03994	0.63254	0.014
Mof_C 	C 	0.062	0.00396	0.47109	-0.105
Mof_C 	C 	0.68503	0.20634	0.00887	0.395
Mof_C 	C 	0.29366	0.49113	0.68503	0.395
Mof_C 	C 	0.99113	0.79366	0.18503	0.395
Mof_C 	C 	0.07354	0.54788	0.10047	-0.084
Mof_C 	C 	0.67901	0.35027	0.99373	-0.128
Mof_C 	C 	0.50077	0.96627	0.56006	0.041
Mof_C 	C 	0.53055	0.63405	0.33233	0.062
Mof_C 	C 	0.89953	0.45212	0.57354	-0.084
Mof_C 	C 	0.63405	0.16767	0.96945	0.062
Mof_C 	C 	0.43994	0.46627	0.49923	0.041
Mof_C 	C 	0.83233	0.13405	0.03055	0.062
Mof_C 	C 	0.45212	0.92646	0.60047	-0.084
Mof_C 	C 	0.92531	0.87384	0.0806	-0.022
Mof_C 	C 	0.97109	0.50396	0.562	-0.105
Mof_C 	C 	0.82099	0.35027	0.50627	-0.128
Mof_C 	C 	0.9194	0.37384	0.07469	-0.022
Mof_C 	C 	0.99788	0.629	0.41672	0.089
Mof_C 	C 	0.93994	0.50077	0.53373	0.041
Mof_C 	C 	0.50077	0.53373	0.93994	0.041
Mof_C 	C 	0.20634	0.49113	0.81497	0.395
Mof_C 	C 	0.46006	0.86746	0.1664	0.014
Mof_C 	C 	0.129	0.00212	0.58328	0.089
Mof_C 	C 	0.59866	0.35891	0.46086	-0.036
Mof_C 	C 	0.8336	0.36746	0.53994	0.014
Mof_C 	C 	0.03249	0.85585	0.10056	-0.145
Mof_C 	C 	0.99838	0.89734	0.04983	-0.132
Mof_C 	C 	0.58328	0.371	0.49788	0.089
Mof_C 	C 	0.02891	0.062	0.49604	-0.105
Mof_C 	C 	0.49923	0.43994	0.46627	0.041
Mof_C 	C 	0.08328	0.99788	0.871	0.089
Mof_C 	C 	0.62616	0.4194	0.92531	-0.022
Mof_C 	C 	0.89944	0.35585	0.96751	-0.145
Mof_C 	C 	0.91097	0.03217	0.96397	0.038
Mof_C 	C 	0.45212	0.57354	0.89953	-0.084
Mof_C 	C 	0.96627	0.93994	0.99923	0.041
Mof_C 	C 	0.99923	0.53373	0.56006	0.041
Mof_C 	C 	0.42531	0.9194	0.12616	-0.022
Mof_C 	C 	0.03217	0.96397	0.91097	0.038
Mof_C 	C 	0.10266	0.00162	0.54983	-0.132
Mof_C 	C 	0.629	0.41672	0.99788	0.089
Mof_C 	C 	0.97109	0.99604	0.938	-0.105
Mof_C 	C 	0.0806	0.92531	0.87384	-0.022
Mof_C 	C 	0.60266	0.04983	0.50162	-0.132
Mof_C 	C 	0.00396	0.47109	0.062	-0.105
Mof_C 	C 	0.09866	0.96086	0.85891	-0.036
Mof_C 	C 	0.91097	0.46783	0.53603	0.038
Mof_C 	C 	0.86595	0.33233	0.96945	0.062
Mof_C 	C 	0.14973	0.99373	0.82099	-0.128
Mof_C 	C 	0.85027	0.17901	0.49373	-0.128
Mof_C 	C 	0.09866	0.53914	0.64109	-0.036
Mof_C 	C 	0.08328	0.50212	0.629	0.089
Mof_C 	C 	0.36746	0.96006	0.6664	0.014
Mof_C 	C 	0.46945	0.83233	0.36595	0.062
Mof_C 	C 	0.3336	0.46006	0.63254	0.014
Mof_C 	C 	0.85891	0.40134	0.53914	-0.036
Mof_C 	C 	0.629	0.08328	0.50212	0.089
Mof_C 	C 	0.03994	0.86746	0.3336	0.014
Mof_C 	C 	0.49113	0.81497	0.20634	0.395
Mof_C 	C 	0.39944	0.46751	0.85585	-0.145
Mof_C 	C 	0.31497	0.99113	0.70634	0.395
Mof_C 	C 	0.50887	0.70634	0.18503	0.395
Mof_C 	C 	0.39953	0.42646	0.54788	-0.084
Mof_C 	C 	0.35027	0.99373	0.67901	-0.128
Mof_C 	C 	0.06006	0.03373	0.49923	0.041
Mof_C 	C 	0.99604	0.938	0.97109	-0.105
Mof_C 	C 	0.04788	0.57354	0.60047	-0.084
Mof_C 	C 	0.63254	0.1664	0.03994	0.014
Mof_C 	C 	0.96627	0.56006	0.50077	0.041
Mof_C 	C 	0.95212	0.10047	0.42646	-0.084
Mof_C 	C 	0.92646	0.60047	0.45212	-0.084
Mof_C 	C 	0.50627	0.82099	0.35027	-0.128
Mof_C 	C 	0.49604	0.02891	0.062	-0.105
Mof_C 	C 	0.63254	0.3336	0.46006	0.014
Mof_C 	C 	0.67901	0.14973	0.50627	-0.128
Mof_C 	C 	0.50396	0.562	0.97109	-0.105
Mof_C 	C 	0.33233	0.96945	0.86595	0.062
Mof_C 	C 	0.90134	0.35891	0.03914	-0.036
Mof_C 	C 	0.03603	0.96783	0.41097	0.038
Mof_C 	C 	0.08903	0.03603	0.53217	0.038
Mof_C 	C 	0.60056	0.14415	0.96751	-0.145
Mof_C 	C 	0.86595	0.16767	0.53055	0.062
Mof_C 	C 	0.37384	0.42531	0.5806	-0.022
Mof_C 	C 	0.13254	0.53994	0.6664	0.014
Mof_C 	C 	0.46086	0.90134	0.14109	-0.036
Mof_C 	C 	0.50396	0.938	0.52891	-0.105
Mof_C 	C 	0.46783	0.96397	0.58903	0.038
Mof_C 	C 	0.16767	0.96945	0.63405	0.062
Mof_C 	C 	0.81497	0.29366	0.00887	0.395
Mof_C 	C 	0.66767	0.36595	0.03055	0.062
Mof_C 	C 	0.96783	0.41097	0.03603	0.038
Mof_C 	C 	0.062	0.49604	0.02891	-0.105
Mof_C 	C 	0.64415	0.39944	0.03249	-0.145
Mof_C 	C 	0.53373	0.93994	0.50077	0.041
Mof_C 	C 	0.03373	0.49923	0.06006	0.041
Mof_C 	C 	0.57469	0.87384	0.4194	-0.022
Mof_C 	C 	0.60056	0.35585	0.53249	-0.145
Mof_C 	C 	0.03217	0.53603	0.58903	0.038
Mof_C 	C 	0.14109	0.03914	0.59866	-0.036
Mof_C 	C 	0.81497	0.20634	0.49113	0.395
Mof_C 	C 	0.14109	0.46086	0.90134	-0.036
Mof_C 	C 	0.938	0.97109	0.99604	-0.105
Mof_C 	C 	0.53994	0.6664	0.13254	0.014
Mof_C 	C 	0.03055	0.83233	0.13405	0.062
Mof_C 	C 	0.00162	0.95017	0.39734	-0.132
Mof_C 	C 	0.99373	0.82099	0.14973	-0.128
Mof_C 	C 	0.03055	0.66767	0.36595	0.062
Mof_C 	C 	0.46783	0.53603	0.91097	0.038
Mof_C 	C 	0.53249	0.89944	0.14415	-0.145
Mof_C 	C 	0.50627	0.67901	0.14973	-0.128
Mof_C 	C 	0.96006	0.6664	0.36746	0.014
Mof_C 	C 	0.07469	0.5806	0.12616	-0.022
Mof_C 	C 	0.64109	0.09866	0.53914	-0.036
Mof_C 	C 	0.83233	0.36595	0.46945	0.062
Mof_C 	C 	0.95212	0.39953	0.07354	-0.084
Mof_C 	C 	0.07354	0.95212	0.39953	-0.084
Mof_C 	C 	0.17901	0.49373	0.85027	-0.128
Mof_C 	C 	0.371	0.49788	0.58328	0.089
Mof_C 	C 	0.47109	0.062	0.00396	-0.105
Mof_C 	C 	0.86746	0.3336	0.03994	0.014
Mof_C 	C 	0.53914	0.64109	0.09866	-0.036
Mof_C 	C 	0.52891	0.99604	0.562	-0.105
Mof_C 	C 	0.96945	0.86595	0.33233	0.062
Mof_C 	C 	0.35891	0.46086	0.59866	-0.036
Mof_C 	C 	0.53603	0.58903	0.03217	0.038
Mof_C 	C 	0.53217	0.41097	0.46397	0.038
Mof_C 	C 	0.12616	0.07469	0.5806	-0.022
Mof_C 	C 	0.33233	0.53055	0.63405	0.062
Mof_C 	C 	0.41672	0.99788	0.629	0.089
Mof_C 	C 	0.562	0.52891	0.99604	-0.105
Mof_C 	C 	0.79366	0.31497	0.50887	0.395
Mof_C 	C 	0.89953	0.04788	0.92646	-0.084
Mof_C 	C 	0.64973	0.17901	0.00627	-0.128
Mof_C 	C 	0.46397	0.96783	0.08903	0.038
Mof_C 	C 	0.54788	0.10047	0.07354	-0.084
Mof_C 	C 	0.86746	0.1664	0.46006	0.014
Mof_C 	C 	0.03914	0.59866	0.14109	-0.036
Mof_C 	C 	0.62616	0.0806	0.57469	-0.022
Mof_C 	C 	0.96751	0.60056	0.14415	-0.145
Mof_C 	C 	0.938	0.52891	0.50396	-0.105
Mof_C 	C 	0.52891	0.50396	0.938	-0.105
Mof_C 	C 	0.36595	0.46945	0.83233	0.062
Mof_C 	C 	0.00627	0.64973	0.17901	-0.128
Mof_C 	C 	0.40134	0.53914	0.85891	-0.036
Mof_C 	C 	0.29366	0.00887	0.81497	0.395
Mof_C 	C 	0.14415	0.53249	0.89944	-0.145
Mof_C 	C 	0.39734	0.49838	0.54983	-0.132
Mof_C 	C 	0.03249	0.64415	0.39944	-0.145
Mof_C 	C 	0.129	0.49788	0.91672	0.089
Mof_C 	C 	0.12616	0.42531	0.9194	-0.022
Mof_C 	C 	0.49838	0.54983	0.39734	-0.132
Mof_C 	C 	0.10056	0.46751	0.64415	-0.145
Mof_C 	C 	0.438	0.00396	0.02891	-0.105
Mof_C 	C 	0.96751	0.89944	0.35585	-0.145
Mof_C 	C 	0.6664	0.13254	0.53994	0.014
Mof_C 	C 	0.49788	0.58328	0.371	0.089
Mof_C 	C 	0.438	0.49604	0.47109	-0.105
Mof_C 	C 	0.8336	0.13254	0.96006	0.014
Mof_C 	C 	0.66767	0.13405	0.46945	0.062
Mof_O 	O 	0.71713	0.29991	0.02369	-0.386
Mof_O 	O 	0.21536	0.04244	0.69818	-0.396
Mof_O 	O 	0.71536	0.19818	0.54244	-0.396
Mof_O 	O 	0.20009	0.02369	0.78287	-0.386
Mof_O 	O 	0.95756	0.71536	0.30182	-0.396
Mof_O 	O 	0.45756	0.69818	0.28464	-0.396
Mof_O 	O 	0.70009	0.28287	0.52369	-0.386
Mof_O 	O 	0.02369	0.71713	0.29991	-0.386
Mof_O 	O 	0.69818	0.21536	0.04244	-0.396
Mof_O 	O 	0.19818	0.95756	0.78464	-0.396
Mof_O 	O 	0.52369	0.70009	0.28287	-0.386
Mof_O 	O 	0.97631	0.79991	0.28287	-0.386
Mof_O 	O 	0.20009	0.47631	0.71713	-0.386
Mof_O 	O 	0.04244	0.69818	0.21536	-0.396
Mof_O 	O 	0.78464	0.30182	0.54244	-0.396
Mof_O 	O 	0.80182	0.21536	0.45756	-0.396
Mof_O 	O 	0.29991	0.02369	0.71713	-0.386
Mof_O 	O 	0.02369	0.78287	0.20009	-0.386
Mof_O 	O 	0.47631	0.78287	0.29991	-0.386
Mof_O 	O 	0.78287	0.29991	0.47631	-0.386
Mof_O 	O 	0.28287	0.97631	0.79991	-0.386
Mof_O 	O 	0.28464	0.04244	0.80182	-0.396
Mof_O 	O 	0.28464	0.45756	0.69818	-0.396
Mof_O 	O 	0.29991	0.47631	0.78287	-0.386
Mof_O 	O 	0.04244	0.80182	0.28464	-0.396
Mof_O 	O 	0.54244	0.71536	0.19818	-0.396
Mof_O 	O 	0.97631	0.70009	0.21713	-0.386
Mof_O 	O 	0.47631	0.71713	0.20009	-0.386
Mof_O 	O 	0.54244	0.78464	0.30182	-0.396
Mof_O 	O 	0.21536	0.45756	0.80182	-0.396
Mof_O 	O 	0.19818	0.54244	0.71536	-0.396
Mof_O 	O 	0.71713	0.20009	0.47631	-0.386
Mof_O 	O 	0.30182	0.54244	0.78464	-0.396
Mof_O 	O 	0.79991	0.21713	0.52369	-0.386
Mof_O 	O 	0.78464	0.19818	0.95756	-0.396
Mof_O 	O 	0.21713	0.97631	0.70009	-0.386
Mof_O 	O 	0.95756	0.78464	0.19818	-0.396
Mof_O 	O 	0.30182	0.95756	0.71536	-0.396
Mof_O 	O 	0.21713	0.52369	0.79991	-0.386
Mof_O 	O 	0.45756	0.80182	0.21536	-0.396
Mof_O 	O 	0.52369	0.79991	0.21713	-0.386
Mof_O 	O 	0.28287	0.52369	0.70009	-0.386
Mof_O 	O 	0.78287	0.20009	0.02369	-0.386
Mof_O 	O 	0.71536	0.30182	0.95756	-0.396
Mof_O 	O 	0.80182	0.28464	0.04244	-0.396
Mof_O 	O 	0.70009	0.21713	0.97631	-0.386
Mof_O 	O 	0.79991	0.28287	0.97631	-0.386
Mof_O 	O 	0.69818	0.28464	0.45756	-0.396
_end
