data_functionalizedCrystal
_audit_creation_method	'EQeq! by Chris Wilmer'
_symmetry_space_group_name_H-M	'P1'
_symmetry_Int_Tables_number	1
_symmetry_cell_setting	triclinic
loop_
_symmetry_equiv_pos_as_xyz
  x,y,z
_cell_length_a	10.2904
_cell_length_b	13.2061
_cell_length_c	24.8674
_cell_angle_alpha	90
_cell_angle_beta	90.922
_cell_angle_gamma	90
loop_
_atom_site_label
_atom_site_type_symbol
_atom_site_fract_x
_atom_site_fract_y
_atom_site_fract_z
_atom_site_charge
Mof_Ag	Ag	0.1887	0.60735	0.05483	0.307
Mof_S 	S 	0.413	0.7897	0.07487	0.3
Mof_O 	O 	0.4063	0.7024	0.041	-0.216
Mof_O 	O 	0.3284	0.7887	0.1194	0.053
Mof_O 	O 	0.5382	0.8263	0.0886	-0.103
Mof_C 	C 	0.3496	0.8868	0.0321	0.431
Mof_F 	F 	0.2274	0.8656	0.0195	-0.345
Mof_F 	F 	0.4144	0.8949	0.9872	-0.039
Mof_F 	F 	0.3584	0.9773	0.0564	-0.288
Mof_Si	Si	0.82576	0.17276	0.21279	1.172
Mof_N 	N 	0.0342	0.7038	0.08991	-0.179
Mof_N 	N 	0.3276	0.4937	0.09472	-0.16
Mof_N 	N 	0.6706	0.9676	0.47301	-0.176
Mof_C 	C 	0.8711	0.0542	0.17548	-0.415
Mof_C 	C 	0.0012	0.0255	0.17442	0.208
Mof_H 	H 	0.0653	0.0694	0.1895	-0.051
Mof_C 	C 	0.0396	0.9348	0.15198	-0.186
Mof_H 	H 	0.1289	0.9165	0.1519	0.142
Mof_C 	C 	0.9473	0.8707	0.12963	0.121
Mof_C 	C 	0.8165	0.8969	0.1295	-0.188
Mof_H 	H 	0.7532	0.8527	0.1141	0.148
Mof_C 	C 	0.7795	0.988	0.15213	0.215
Mof_H 	H 	0.6902	0.0062	0.1518	-0.006
Mof_C 	C 	0.9919	0.7769	0.10646	0.096
Mof_C 	C 	0.6896	0.2462	0.18	-0.432
Mof_C 	C 	0.6559	0.2396	0.12569	0.226
Mof_H 	H 	0.6972	0.1903	0.104	0.003
Mof_C 	C 	0.5636	0.3031	0.10246	-0.202
Mof_H 	H 	0.5418	0.2977	0.0653	0.154
Mof_C 	C 	0.5035	0.3748	0.13446	0.116
Mof_C 	C 	0.5345	0.3835	0.18903	-0.21
Mof_H 	H 	0.4928	0.4325	0.2108	0.096
Mof_C 	C 	0.6271	0.3194	0.21074	0.208
Mof_H 	H 	0.6491	0.3252	0.2479	-0.058
Mof_C 	C 	0.4067	0.4413	0.11152	0.052
Mof_C 	C 	0.7753	0.1299	0.28127	-0.448
Mof_C 	C 	0.6644	0.0702	0.28812	0.219
Mof_H 	H 	0.6081	0.0579	0.2582	-0.06
Mof_C 	C 	0.6351	0.0289	0.33712	-0.229
Mof_H 	H 	0.5598	0.988	0.3409	0.087
Mof_C 	C 	0.7158	0.0473	0.38087	0.123
Mof_C 	C 	0.8245	0.1082	0.37629	-0.227
Mof_H 	H 	0.8788	0.1219	0.4067	0.144
Mof_C 	C 	0.8525	0.1486	0.32646	0.228
Mof_H 	H 	0.9269	0.1906	0.3231	-0.043
Mof_C 	C 	0.6887	0.0034	0.43221	0.043
Mof_C 	C 	0.9672	0.2594	0.21878	-1.203
Mof_H 	H 	0.9994	0.275	0.1828	0.362
Mof_H 	H 	0.0362	0.2267	0.2401	0.363
Mof_H 	H 	0.9406	0.3221	0.2365	0.363
Mof_Ag	Ag	0.1636	0.6058	0.0523	0.346
Mof_S 	S 	0.4061	0.7699	0.0572	0.187
Mof_O 	O 	0.3077	0.7326	0.0211	-0.123
Mof_O 	O 	0.3865	0.7575	0.1131	-0.323
Mof_O 	O 	0.534	0.7512	0.0395	-0.108
Mof_C 	C 	0.3918	0.9033	0.0464	0.479
Mof_F 	F 	0.2756	0.9311	0.0634	-0.312
Mof_F 	F 	0.399	0.9276	0.9954	-0.357
Mof_F 	F 	0.4919	0.9501	0.0713	-0.306
Mof_Ag	Ag	0.6887	0.89265	0.55483	0.308
Mof_S 	S 	0.913	0.7103	0.57487	0.3
Mof_O 	O 	0.9063	0.7976	0.541	-0.216
Mof_O 	O 	0.8284	0.7113	0.6194	0.054
Mof_O 	O 	0.0382	0.6737	0.5886	-0.102
Mof_C 	C 	0.8496	0.6132	0.5321	0.431
Mof_F 	F 	0.7274	0.6344	0.5195	-0.345
Mof_F 	F 	0.9144	0.6051	0.4872	-0.039
Mof_F 	F 	0.8584	0.5227	0.5564	-0.288
Mof_Si	Si	0.32576	0.32724	0.71279	1.186
Mof_N 	N 	0.5342	0.7962	0.58991	-0.178
Mof_N 	N 	0.8276	0.0063	0.59472	-0.159
Mof_N 	N 	0.1706	0.5324	0.97301	-0.175
Mof_C 	C 	0.3711	0.4458	0.67548	-0.439
Mof_C 	C 	0.5012	0.4745	0.67442	0.237
Mof_H 	H 	0.5653	0.4306	0.6895	-0.06
Mof_C 	C 	0.5396	0.5652	0.65198	-0.211
Mof_H 	H 	0.6289	0.5835	0.6519	0.15
Mof_C 	C 	0.4473	0.6293	0.62963	0.138
Mof_C 	C 	0.3165	0.6031	0.6295	-0.206
Mof_H 	H 	0.2532	0.6473	0.6141	0.154
Mof_C 	C 	0.2795	0.512	0.65213	0.239
Mof_H 	H 	0.1902	0.4938	0.6518	-0.015
Mof_C 	C 	0.4919	0.7231	0.60646	0.092
Mof_C 	C 	0.1896	0.2538	0.68	-0.438
Mof_C 	C 	0.1559	0.2604	0.62569	0.23
Mof_H 	H 	0.1972	0.3097	0.604	0.001
Mof_C 	C 	0.0636	0.1969	0.60246	-0.205
Mof_H 	H 	0.0418	0.2023	0.5653	0.154
Mof_C 	C 	0.0035	0.1252	0.63446	0.116
Mof_C 	C 	0.0345	0.1165	0.68903	-0.218
Mof_H 	H 	0.9928	0.0675	0.7108	0.1
Mof_C 	C 	0.1271	0.1806	0.71074	0.214
Mof_H 	H 	0.1491	0.1748	0.7479	-0.06
Mof_C 	C 	0.9067	0.0587	0.61152	0.054
Mof_C 	C 	0.2753	0.3701	0.78127	-0.454
Mof_C 	C 	0.1644	0.4298	0.78812	0.224
Mof_H 	H 	0.1081	0.4421	0.7582	-0.062
Mof_C 	C 	0.1351	0.4711	0.83712	-0.234
Mof_H 	H 	0.0598	0.512	0.8409	0.09
Mof_C 	C 	0.2158	0.4527	0.88087	0.126
Mof_C 	C 	0.3245	0.3918	0.87629	-0.231
Mof_H 	H 	0.3788	0.3781	0.9067	0.145
Mof_C 	C 	0.3525	0.3514	0.82646	0.233
Mof_H 	H 	0.4269	0.3094	0.8231	-0.046
Mof_C 	C 	0.1887	0.4966	0.93221	0.039
Mof_C 	C 	0.4672	0.2406	0.71878	-1.221
Mof_H 	H 	0.4994	0.225	0.6828	0.366
Mof_H 	H 	0.5362	0.2733	0.7401	0.371
Mof_H 	H 	0.4406	0.1779	0.7365	0.367
Mof_Ag	Ag	0.6636	0.8942	0.5523	0.345
Mof_S 	S 	0.9061	0.7301	0.5572	0.185
Mof_O 	O 	0.8077	0.7674	0.5211	-0.123
Mof_O 	O 	0.8865	0.7425	0.6131	-0.323
Mof_O 	O 	0.034	0.7488	0.5395	-0.106
Mof_C 	C 	0.8918	0.5967	0.5464	0.48
Mof_F 	F 	0.7756	0.5689	0.5634	-0.312
Mof_F 	F 	0.899	0.5724	0.4954	-0.358
Mof_F 	F 	0.9919	0.5499	0.5713	-0.306
Mof_Ag	Ag	0.3113	0.10735	0.44517	0.308
Mof_S 	S 	0.087	0.2897	0.42513	0.3
Mof_O 	O 	0.0937	0.2024	0.459	-0.216
Mof_O 	O 	0.1716	0.2887	0.3806	0.054
Mof_O 	O 	0.9618	0.3263	0.4114	-0.102
Mof_C 	C 	0.1504	0.3868	0.4679	0.431
Mof_F 	F 	0.2726	0.3656	0.4805	-0.345
Mof_F 	F 	0.0856	0.3949	0.5128	-0.039
Mof_F 	F 	0.1416	0.4773	0.4436	-0.288
Mof_Si	Si	0.67424	0.67276	0.28721	1.186
Mof_N 	N 	0.4658	0.2038	0.41009	-0.178
Mof_N 	N 	0.1724	0.9937	0.40528	-0.159
Mof_N 	N 	0.8294	0.4676	0.02699	-0.175
Mof_C 	C 	0.6289	0.5542	0.32452	-0.439
Mof_C 	C 	0.4988	0.5255	0.32558	0.237
Mof_H 	H 	0.4347	0.5694	0.3105	-0.06
Mof_C 	C 	0.4604	0.4348	0.34802	-0.211
Mof_H 	H 	0.3711	0.4165	0.3481	0.15
Mof_C 	C 	0.5527	0.3707	0.37037	0.138
Mof_C 	C 	0.6835	0.3969	0.3705	-0.206
Mof_H 	H 	0.7468	0.3527	0.3859	0.154
Mof_C 	C 	0.7205	0.488	0.34787	0.239
Mof_H 	H 	0.8098	0.5062	0.3482	-0.015
Mof_C 	C 	0.5081	0.2769	0.39354	0.092
Mof_C 	C 	0.8104	0.7462	0.32	-0.438
Mof_C 	C 	0.8441	0.7396	0.37431	0.23
Mof_H 	H 	0.8028	0.6903	0.396	0.001
Mof_C 	C 	0.9364	0.8031	0.39754	-0.205
Mof_H 	H 	0.9582	0.7977	0.4347	0.154
Mof_C 	C 	0.9965	0.8748	0.36554	0.116
Mof_C 	C 	0.9655	0.8835	0.31097	-0.218
Mof_H 	H 	0.0072	0.9325	0.2892	0.1
Mof_C 	C 	0.8729	0.8194	0.28926	0.214
Mof_H 	H 	0.8509	0.8252	0.2521	-0.06
Mof_C 	C 	0.0933	0.9413	0.38848	0.054
Mof_C 	C 	0.7247	0.6299	0.21873	-0.454
Mof_C 	C 	0.8356	0.5702	0.21188	0.224
Mof_H 	H 	0.8919	0.5579	0.2418	-0.062
Mof_C 	C 	0.8649	0.5289	0.16288	-0.234
Mof_H 	H 	0.9402	0.488	0.1591	0.09
Mof_C 	C 	0.7842	0.5473	0.11913	0.126
Mof_C 	C 	0.6755	0.6082	0.12371	-0.231
Mof_H 	H 	0.6212	0.6219	0.0933	0.145
Mof_C 	C 	0.6475	0.6486	0.17354	0.233
Mof_H 	H 	0.5731	0.6906	0.1769	-0.046
Mof_C 	C 	0.8113	0.5034	0.06779	0.039
Mof_C 	C 	0.5328	0.7594	0.28122	-1.221
Mof_H 	H 	0.5006	0.775	0.3172	0.366
Mof_H 	H 	0.4638	0.7267	0.2599	0.371
Mof_H 	H 	0.5594	0.8221	0.2635	0.367
Mof_Ag	Ag	0.3364	0.1058	0.4477	0.345
Mof_S 	S 	0.0939	0.2699	0.4428	0.185
Mof_O 	O 	0.1923	0.2326	0.4789	-0.123
Mof_O 	O 	0.1135	0.2575	0.3869	-0.323
Mof_O 	O 	0.966	0.2512	0.4605	-0.106
Mof_C 	C 	0.1082	0.4033	0.4536	0.48
Mof_F 	F 	0.2244	0.4311	0.4366	-0.312
Mof_F 	F 	0.101	0.4276	0.5046	-0.358
Mof_F 	F 	0.0081	0.4501	0.4287	-0.306
Mof_Ag	Ag	0.8113	0.39265	0.94517	0.308
Mof_S 	S 	0.587	0.2103	0.92513	0.301
Mof_O 	O 	0.5937	0.2976	0.959	-0.215
Mof_O 	O 	0.6716	0.2113	0.8806	0.054
Mof_O 	O 	0.4618	0.1737	0.9114	-0.103
Mof_C 	C 	0.6504	0.1132	0.9679	0.431
Mof_F 	F 	0.7726	0.1344	0.9805	-0.345
Mof_F 	F 	0.5856	0.1051	0.0128	-0.039
Mof_F 	F 	0.6416	0.0227	0.9436	-0.288
Mof_Si	Si	0.17424	0.82724	0.78721	1.172
Mof_N 	N 	0.9658	0.2962	0.91009	-0.179
Mof_N 	N 	0.6724	0.5063	0.90528	-0.16
Mof_N 	N 	0.3294	0.0324	0.52699	-0.176
Mof_C 	C 	0.1289	0.9458	0.82452	-0.415
Mof_C 	C 	0.9988	0.9745	0.82558	0.208
Mof_H 	H 	0.9347	0.9306	0.8105	-0.051
Mof_C 	C 	0.9604	0.0652	0.84802	-0.186
Mof_H 	H 	0.8711	0.0835	0.8481	0.142
Mof_C 	C 	0.0527	0.1293	0.87037	0.121
Mof_C 	C 	0.1835	0.1031	0.8705	-0.188
Mof_H 	H 	0.2468	0.1473	0.8859	0.148
Mof_C 	C 	0.2205	0.012	0.84787	0.215
Mof_H 	H 	0.3098	0.9938	0.8482	-0.006
Mof_C 	C 	0.0081	0.2231	0.89354	0.096
Mof_C 	C 	0.3104	0.7538	0.82	-0.432
Mof_C 	C 	0.3441	0.7604	0.87431	0.226
Mof_H 	H 	0.3028	0.8097	0.896	0.003
Mof_C 	C 	0.4364	0.6969	0.89754	-0.202
Mof_H 	H 	0.4582	0.7023	0.9347	0.154
Mof_C 	C 	0.4965	0.6252	0.86554	0.116
Mof_C 	C 	0.4655	0.6165	0.81097	-0.21
Mof_H 	H 	0.5072	0.5675	0.7892	0.096
Mof_C 	C 	0.3729	0.6806	0.78926	0.208
Mof_H 	H 	0.3509	0.6748	0.7521	-0.058
Mof_C 	C 	0.5933	0.5587	0.88848	0.052
Mof_C 	C 	0.2247	0.8701	0.71873	-0.448
Mof_C 	C 	0.3356	0.9298	0.71188	0.219
Mof_H 	H 	0.3919	0.9421	0.7418	-0.06
Mof_C 	C 	0.3649	0.9711	0.66288	-0.229
Mof_H 	H 	0.4402	0.012	0.6591	0.087
Mof_C 	C 	0.2842	0.9527	0.61913	0.123
Mof_C 	C 	0.1755	0.8918	0.62371	-0.227
Mof_H 	H 	0.1212	0.8781	0.5933	0.144
Mof_C 	C 	0.1475	0.8514	0.67354	0.228
Mof_H 	H 	0.0731	0.8094	0.6769	-0.043
Mof_C 	C 	0.3113	0.9966	0.56779	0.043
Mof_C 	C 	0.0328	0.7406	0.78122	-1.203
Mof_H 	H 	0.0006	0.725	0.8172	0.362
Mof_H 	H 	0.9638	0.7733	0.7599	0.363
Mof_H 	H 	0.0594	0.6779	0.7635	0.363
Mof_Ag	Ag	0.8364	0.3942	0.9477	0.346
Mof_S 	S 	0.5939	0.2301	0.9428	0.187
Mof_O 	O 	0.6923	0.2674	0.9789	-0.123
Mof_O 	O 	0.6135	0.2425	0.8869	-0.323
Mof_O 	O 	0.466	0.2488	0.9605	-0.108
Mof_C 	C 	0.6082	0.0967	0.9536	0.479
Mof_F 	F 	0.7244	0.0689	0.9366	-0.312
Mof_F 	F 	0.601	0.0724	0.0046	-0.357
Mof_F 	F 	0.5081	0.0499	0.9287	-0.306
_end
