data_functionalizedCrystal
_audit_creation_method	'EQeq! by Chris Wilmer'
_symmetry_space_group_name_H-M	'P1'
_symmetry_Int_Tables_number	1
_symmetry_cell_setting	triclinic
loop_
_symmetry_equiv_pos_as_xyz
  x,y,z
_cell_length_a	11.166
_cell_length_b	11.638
_cell_length_c	20.95
_cell_angle_alpha	96.25
_cell_angle_beta	90.68
_cell_angle_gamma	108.49
loop_
_atom_site_label
_atom_site_type_symbol
_atom_site_fract_x
_atom_site_fract_y
_atom_site_fract_z
_atom_site_charge
Mof_Co	Co	0.86552	0.52078	0.75937	1.133
Mof_Co	Co	0.13448	0.47922	0.24063	1.124
Mof_Co	Co	-0	2.21745e-17	0.5	1.086
Mof_Co	Co	0.5	0.5	-0	1.096
Mof_H 	H 	0.1272	0.6744	0.9616	0.04
Mof_H 	H 	0.9031	0.3535	0.5651	0.055
Mof_H 	H 	0.6726	0.1315	0.6296	0.111
Mof_H 	H 	0.7939	0.1141	0.5442	-0.018
Mof_H 	H 	0.9121	0.8778	0.6214	0.005
Mof_H 	H 	0.2495	0.0539	0.8101	0.008
Mof_H 	H 	0.2386	0.1839	0.83	0.022
Mof_H 	H 	0.2435	0.1428	0.6963	0.073
Mof_H 	H 	0.4418	0.263	0.6503	0.096
Mof_H 	H 	0.1098	0.6045	0.8466	-0.041
Mof_H 	H 	0.246	0.8668	0.6967	0.146
Mof_H 	H 	0.0449	0.7329	0.6906	-0.026
Mof_H 	H 	0.0361	0.0194	0.8177	0.095
Mof_H 	H 	0.055	0.0086	0.7434	0.091
Mof_H 	H 	0.4825	0.8909	0.8204	0.171
Mof_H 	H 	0.4291	0.9933	0.8031	0.179
Mof_H 	H 	0.517	0.8466	0.7125	-0.048
Mof_H 	H 	0.4624	0.9482	0.6948	-0.044
Mof_H 	H 	0.6321	0.0993	0.7452	0.163
Mof_H 	H 	0.6818	0.0041	0.7752	0.152
Mof_H 	H 	0.7908	0.8862	0.7081	0.104
Mof_H 	H 	0.8014	0.5922	0.1961	0.112
Mof_H 	H 	0.7358	0.5924	0.0928	-0.024
Mof_H 	H 	0.3935	0.3966	0.125	-0.02
Mof_H 	H 	0.4497	0.3893	0.2291	0.085
Mof_H 	H 	0.7653	0.5326	0.3079	0.097
Mof_H 	H 	0.5199	0.4582	0.344	0.005
Mof_H 	H 	0.5471	0.3379	0.3178	0.01
Mof_H 	H 	0.6765	0.4999	0.4254	0.135
Mof_H 	H 	0.7156	0.3872	0.3973	0.139
Mof_H 	H 	0.6587	0.2381	0.4701	0.124
Mof_H 	H 	0.5148	0.1188	0.5319	-0.021
Mof_H 	H 	0.2703	0.2797	0.4977	-0.005
Mof_H 	H 	0.4077	0.4054	0.4357	0.125
Mof_H 	H 	0.0382	0.1778	0.6814	0.095
Mof_H 	H 	0.9083	0.3548	0.8607	0.001
Mof_H 	H 	0.3098	0.7419	0.8597	0.138
Mof_H 	H 	0.9752	0.3458	0.6784	-0.013
Mof_H 	H 	0.9758	0.1907	0.8694	0.109
Mof_H 	H 	0.6467	0.3871	0.6595	-0.01
Mof_H 	H 	0.6668	0.3579	0.8423	0.002
Mof_H 	H 	0.461	0.2318	0.8381	0.089
Mof_H 	H 	0.8728	0.3256	0.0384	0.053
Mof_H 	H 	0.0969	0.6465	0.4349	0.034
Mof_H 	H 	0.3274	0.8685	0.3704	0.14
Mof_H 	H 	0.2061	0.8859	0.4558	-0.047
Mof_H 	H 	0.0879	0.1222	0.3786	-0.032
Mof_H 	H 	0.7505	0.9461	0.1899	0.016
Mof_H 	H 	0.7614	0.8161	0.17	0.013
Mof_H 	H 	0.7565	0.8572	0.3037	0.087
Mof_H 	H 	0.5582	0.737	0.3497	0.101
Mof_H 	H 	0.8902	0.3955	0.1534	-0.024
Mof_H 	H 	0.754	0.1332	0.3033	0.123
Mof_H 	H 	0.9551	0.2671	0.3094	-0.005
Mof_H 	H 	0.9639	0.9806	0.1823	0.138
Mof_H 	H 	0.945	0.9914	0.2566	0.139
Mof_H 	H 	0.5175	0.1091	0.1796	0.124
Mof_H 	H 	0.5709	0.0067	0.1969	0.123
Mof_H 	H 	0.483	0.1534	0.2875	-0.02
Mof_H 	H 	0.5376	0.0518	0.3052	-0.025
Mof_H 	H 	0.3679	0.9007	0.2548	0.151
Mof_H 	H 	0.3182	0.9959	0.2248	0.148
Mof_H 	H 	0.2092	0.1138	0.2919	0.125
Mof_H 	H 	0.1986	0.4078	0.8039	0.1
Mof_H 	H 	0.2642	0.4076	0.9072	-0.009
Mof_H 	H 	0.6065	0.6034	0.875	-0.009
Mof_H 	H 	0.5503	0.6107	0.7709	0.087
Mof_H 	H 	0.2347	0.4674	0.6921	0.085
Mof_H 	H 	0.4801	0.5418	0.656	0.011
Mof_H 	H 	0.4529	0.6621	0.6822	0.018
Mof_H 	H 	0.3235	0.5001	0.5746	0.127
Mof_H 	H 	0.2844	0.6128	0.6027	0.132
Mof_H 	H 	0.3413	0.7619	0.5299	0.125
Mof_H 	H 	0.4852	0.8812	0.4681	-0.007
Mof_H 	H 	0.7297	0.7203	0.5023	0
Mof_H 	H 	0.5923	0.5946	0.5643	0.123
Mof_H 	H 	0.9618	0.8222	0.3186	0.1
Mof_H 	H 	0.0917	0.6452	0.1393	-0.015
Mof_H 	H 	0.6902	0.2581	0.1403	0.111
Mof_H 	H 	0.0248	0.6542	0.3216	-0.003
Mof_H 	H 	0.0242	0.8093	0.1306	0.117
Mof_H 	H 	0.3533	0.6129	0.3405	-0.011
Mof_H 	H 	0.3332	0.6421	0.1577	0.002
Mof_H 	H 	0.539	0.7682	0.1619	0.093
Mof_C 	C 	0.72742	0.4159	0.97286	0.318
Mof_C 	C 	0.86992	0.45723	0.98384	0.005
Mof_C 	C 	0.94719	0.56158	0.95973	-0.055
Mof_C 	C 	0.89849	0.6211	0.90883	0.349
Mof_C 	C 	0.07615	0.6039	0.97685	0.035
Mof_C 	C 	0.88432	0.5621	0.61643	0.315
Mof_C 	C 	0.94601	0.53269	0.55622	-0.014
Mof_C 	C 	0.0296	0.75827	0.53521	0.308
Mof_C 	C 	0.00602	0.62256	0.51715	-0.089
Mof_C 	C 	0.9419	0.41234	0.53864	-0.037
Mof_C 	C 	0.7207	0.0793	0.62914	-0.232
Mof_C 	C 	0.7948	0.069	0.5781	0.096
Mof_C 	C 	0.8638	0.93	0.62318	0.111
Mof_C 	C 	0.219	0.1166	0.7958	0.021
Mof_C 	C 	0.2864	0.1607	0.73627	-0.154
Mof_C 	C 	0.4245	0.23429	0.74378	0.138
Mof_C 	C 	0.4852	0.2818	0.69025	-0.19
Mof_C 	C 	0.1367	0.6592	0.81652	0.16
Mof_C 	C 	0.22	0.8158	0.72852	-0.28
Mof_C 	C 	0.0992	0.7336	0.72474	0.149
Mof_C 	C 	0.0741	0.0645	0.78278	-0.263
Mof_C 	C 	0.3032	0.8225	0.77983	0.28
Mof_C 	C 	0.4353	0.9139	0.78758	-0.464
Mof_C 	C 	0.5092	0.9255	0.72784	0.278
Mof_C 	C 	0.6395	0.0181	0.73749	-0.453
Mof_C 	C 	0.7184	0.01143	0.67992	0.207
Mof_C 	C 	0.791	0.9347	0.67562	-0.19
Mof_C 	C 	0.7175	0.5512	0.18281	-0.205
Mof_C 	C 	0.6774	0.5511	0.12056	0.107
Mof_C 	C 	0.477	0.4362	0.1395	0.1
Mof_C 	C 	0.5101	0.4316	0.20246	-0.198
Mof_C 	C 	0.6336	0.49023	0.2262	0.163
Mof_C 	C 	0.6817	0.4913	0.29397	-0.175
Mof_C 	C 	0.5859	0.4208	0.3381	0.073
Mof_C 	C 	0.6445	0.4175	0.40342	-0.336
Mof_C 	C 	0.5516	0.3378	0.44533	0.225
Mof_C 	C 	0.5804	0.2495	0.47507	-0.255
Mof_C 	C 	0.4928	0.1777	0.51233	0.136
Mof_C 	C 	0.35	0.2716	0.4926	0.127
Mof_C 	C 	0.4323	0.3475	0.45487	-0.243
Mof_C 	C 	0.0146	0.2137	0.7189	-0.238
Mof_C 	C 	0.9368	0.3201	0.82435	0.104
Mof_C 	C 	0.0191	0.16564	0.77684	0.153
Mof_C 	C 	0.2583	0.7413	0.82443	-0.285
Mof_C 	C 	0.9752	0.3143	0.71735	0.135
Mof_C 	C 	0.977	0.2207	0.8299	-0.184
Mof_C 	C 	0.6088	0.3563	0.69605	0.091
Mof_C 	C 	0.6207	0.3392	0.80321	0.092
Mof_C 	C 	0.4961	0.2631	0.80115	-0.189
Mof_C 	C 	0.27258	0.5841	0.02714	0.342
Mof_C 	C 	0.13008	0.54277	0.01616	-0.107
Mof_C 	C 	0.05281	0.43842	0.04027	-0.056
Mof_C 	C 	0.10151	0.3789	0.09117	0.34
Mof_C 	C 	0.92385	0.3961	0.02315	-0.055
Mof_C 	C 	0.11568	0.4379	0.38357	0.332
Mof_C 	C 	0.05399	0.46731	0.44378	-0.097
Mof_C 	C 	0.9704	0.24173	0.46479	0.352
Mof_C 	C 	0.99398	0.37744	0.48285	-0.014
Mof_C 	C 	0.0581	0.58766	0.46136	0.014
Mof_C 	C 	0.2793	0.9207	0.37086	-0.304
Mof_C 	C 	0.2052	0.931	0.4219	0.2
Mof_C 	C 	0.1362	0.07	0.37682	0.153
Mof_C 	C 	0.781	0.8834	0.2042	0.055
Mof_C 	C 	0.7136	0.8393	0.26373	-0.161
Mof_C 	C 	0.5755	0.76571	0.25622	0.151
Mof_C 	C 	0.5148	0.7182	0.30975	-0.195
Mof_C 	C 	0.8633	0.3408	0.18348	0.136
Mof_C 	C 	0.78	0.1842	0.27148	-0.244
Mof_C 	C 	0.9008	0.2664	0.27526	0.124
Mof_C 	C 	0.9259	0.9355	0.21722	-0.327
Mof_C 	C 	0.6968	0.1775	0.22017	0.22
Mof_C 	C 	0.5647	0.0861	0.21242	-0.366
Mof_C 	C 	0.4908	0.0745	0.27216	0.154
Mof_C 	C 	0.3605	0.9819	0.26251	-0.389
Mof_C 	C 	0.2816	0.98857	0.32008	0.303
Mof_C 	C 	0.209	0.0653	0.32438	-0.327
Mof_C 	C 	0.2825	0.4488	0.81719	-0.194
Mof_C 	C 	0.3226	0.4489	0.87944	0.104
Mof_C 	C 	0.523	0.5638	0.8605	0.1
Mof_C 	C 	0.4899	0.5684	0.79754	-0.19
Mof_C 	C 	0.3664	0.50977	0.7738	0.154
Mof_C 	C 	0.3183	0.5087	0.70603	-0.165
Mof_C 	C 	0.4141	0.5792	0.6619	0.056
Mof_C 	C 	0.3555	0.5825	0.59658	-0.32
Mof_C 	C 	0.4484	0.6622	0.55467	0.218
Mof_C 	C 	0.4196	0.7505	0.52493	-0.246
Mof_C 	C 	0.5072	0.8223	0.48767	0.137
Mof_C 	C 	0.65	0.7284	0.5074	0.126
Mof_C 	C 	0.5677	0.6525	0.54513	-0.236
Mof_C 	C 	0.9854	0.7863	0.2811	-0.191
Mof_C 	C 	0.0632	0.6799	0.17565	0.124
Mof_C 	C 	0.9809	0.83436	0.22316	0.227
Mof_C 	C 	0.7417	0.2587	0.17557	-0.247
Mof_C 	C 	0.0248	0.6857	0.28265	0.07
Mof_C 	C 	0.023	0.7793	0.1701	-0.272
Mof_C 	C 	0.3912	0.6437	0.30395	0.094
Mof_C 	C 	0.3793	0.6608	0.19679	0.095
Mof_C 	C 	0.5039	0.7369	0.19885	-0.191
Mof_N 	N 	0.05604	0.65458	0.76784	-0.271
Mof_N 	N 	0.8681	0.99713	0.57482	-0.23
Mof_N 	N 	0.5578	0.49433	0.09785	-0.26
Mof_N 	N 	0.3789	0.1878	0.52188	-0.173
Mof_N 	N 	0.93673	0.3692	0.76942	-0.243
Mof_N 	N 	0.6778	0.38683	0.75215	-0.243
Mof_N 	N 	0.94396	0.34542	0.23216	-0.248
Mof_N 	N 	0.1319	0.00287	0.42518	-0.3
Mof_N 	N 	0.4422	0.50567	0.90215	-0.244
Mof_N 	N 	0.6211	0.8122	0.47812	-0.162
Mof_N 	N 	0.06327	0.6308	0.23058	-0.246
Mof_N 	N 	0.3222	0.61317	0.24785	-0.244
Mof_O 	O 	0.85031	0.55226	0.85858	-0.421
Mof_O 	O 	0.91433	0.73305	0.91892	-0.247
Mof_O 	O 	0.67893	0.49958	0.97275	-0.402
Mof_O 	O 	0.66832	0.30456	0.96633	-0.277
Mof_O 	O 	0.88118	0.49446	0.66051	-0.416
Mof_O 	O 	0.84171	0.64915	0.6197	-0.276
Mof_O 	O 	0.97228	0.80999	0.50151	-0.383
Mof_O 	O 	0.11139	0.80997	0.57928	-0.288
Mof_O 	O 	0.14969	0.44774	0.14142	-0.429
Mof_O 	O 	0.08567	0.26695	0.08108	-0.296
Mof_O 	O 	0.32107	0.50042	0.02725	-0.44
Mof_O 	O 	0.33168	0.69544	0.03367	-0.308
Mof_O 	O 	0.11882	0.50554	0.33949	-0.431
Mof_O 	O 	0.15829	0.35085	0.3803	-0.296
Mof_O 	O 	0.02772	0.19001	0.49849	-0.446
Mof_O 	O 	0.88861	0.19003	0.42072	-0.299
_end
