data_functionalizedCrystal
_audit_creation_method	'EQeq! by Chris Wilmer'
_symmetry_space_group_name_H-M	'P1'
_symmetry_Int_Tables_number	1
_symmetry_cell_setting	triclinic
loop_
_symmetry_equiv_pos_as_xyz
  x,y,z
_cell_length_a	6.788
_cell_length_b	15.0961
_cell_length_c	15.0961
_cell_angle_alpha	62.2055
_cell_angle_beta	81.3797
_cell_angle_gamma	98.6203
loop_
_atom_site_label
_atom_site_type_symbol
_atom_site_fract_x
_atom_site_fract_y
_atom_site_fract_z
_atom_site_charge
Mof_Co	Co	0.1019	0.7165	0.7008	1.177
Mof_Co	Co	0.1019	0.2992	0.2835	1.177
Mof_Co	Co	0.8027	0.4173	0.2992	1.155
Mof_Co	Co	0.3854	0.5827	0.7165	1.17
Mof_Co	Co	0.8027	0.7008	0.5827	1.155
Mof_Co	Co	0.3854	0.2835	0.4173	1.17
Mof_H 	H 	0.53405	4.34057e-17	0.57285	-0.021
Mof_H 	H 	0.22915	0.51145	-0	0.142
Mof_H 	H 	0.7177	0.48855	0.51145	0.153
Mof_H 	H 	0.53405	0.42715	-0	-0.019
Mof_H 	H 	0.22915	4.34057e-17	0.48855	0.145
Mof_H 	H 	0.1069	0.57285	0.42715	-0.014
Mof_C 	C 	0.7329	0.905	0.5854	-0.326
Mof_C 	C 	0.2364	0.55875	0.44125	0.214
Mof_C 	C 	0.5645	0.8151	0.6419	0.392
Mof_C 	C 	0.3183	0.4904	0.4146	-0.344
Mof_C 	C 	0.8279	0.095	0.4904	-0.383
Mof_C 	C 	0.5645	0.3581	0.1849	0.391
Mof_C 	C 	0.0379	0.0937	0.4681	0.394
Mof_C 	C 	0.8279	0.5096	0.905	-0.38
Mof_C 	C 	0.67765	0	0.55875	0.208
Mof_C 	C 	0.0801	4.34057e-17	0.5004	-0.351
Mof_C 	C 	0.0801	0.4996	-0	-0.33
Mof_C 	C 	0.7494	0.543	0.8151	0.412
Mof_C 	C 	0.9442	0.9063	0.5618	0.285
Mof_C 	C 	0.7329	0.4146	0.095	-0.323
Mof_C 	C 	0.506	0.4681	0.4382	0.371
Mof_C 	C 	0.67765	0.44125	-0	0.209
Mof_C 	C 	0.0379	0.5319	0.9063	0.381
Mof_C 	C 	0.3183	0.5854	0.5096	-0.344
Mof_C 	C 	0.2064	0.457	0.3581	0.405
Mof_C 	C 	0.9442	0.4382	0.0937	0.273
Mof_C 	C 	0.2064	0.6419	0.543	0.405
Mof_C 	C 	0.5805	0.5004	0.4996	-0.413
Mof_C 	C 	0.506	0.5618	0.5319	0.371
Mof_C 	C 	0.7494	0.1849	0.457	0.414
Mof_O 	O 	0.6018	0.3386	0.2761	-0.594
Mof_O 	O 	0.0017	0.4173	0.1823	-0.498
Mof_O 	O 	0.2632	0.3853	0.3386	-0.589
Mof_O 	O 	0.3777	0.3259	0.1791	-0.42
Mof_O 	O 	0.5844	0.4004	0.4173	-0.555
Mof_O 	O 	0.6018	0.7239	0.6614	-0.595
Mof_O 	O 	0.2632	0.6614	0.6147	-0.589
Mof_O 	O 	0.8779	0.2761	0.3853	-0.618
Mof_O 	O 	0.0518	0.495	0.3259	-0.409
Mof_O 	O 	0.0017	0.8177	0.5827	-0.501
Mof_O 	O 	0.5568	0.1791	0.495	-0.429
Mof_O 	O 	0.8779	0.6147	0.7239	-0.617
Mof_O 	O 	0.184	0.5996	0.8177	-0.545
Mof_O 	O 	0.0518	0.6741	0.505	-0.409
Mof_O 	O 	0.5844	0.5827	0.5996	-0.555
Mof_O 	O 	0.184	0.1823	0.4004	-0.547
Mof_O 	O 	0.3777	0.8209	0.6741	-0.421
Mof_O 	O 	0.5568	0.505	0.8209	-0.43
_end
