data_functionalizedCrystal
_audit_creation_method	'EQeq! by Chris Wilmer'
_symmetry_space_group_name_H-M	'P1'
_symmetry_Int_Tables_number	1
_symmetry_cell_setting	triclinic
loop_
_symmetry_equiv_pos_as_xyz
  x,y,z
_cell_length_a	20.238
_cell_length_b	5.2827
_cell_length_c	28.859
_cell_angle_alpha	90
_cell_angle_beta	112.663
_cell_angle_gamma	90
loop_
_atom_site_label
_atom_site_type_symbol
_atom_site_fract_x
_atom_site_fract_y
_atom_site_fract_z
_atom_site_charge
Mof_Zn	Zn	0.96748	0.03554	0.76886	1.213
Mof_Zn	Zn	0.53716	0.3529	0.73426	1.209
Mof_Zn	Zn	0.65166	0.53749	0.89351	1.204
Mof_Zn	Zn	0.84061	0.4196	0.77453	1.227
Mof_Zn	Zn	0.8413	0.83521	0.61102	1.212
Mof_Zn	Zn	0.66445	0.96565	0.73498	1.221
Mof_P 	P 	0.80865	0.9284	0.7094	0.565
Mof_P 	P 	0.49636	0.3646	0.82865	0.54
Mof_P 	P 	0.69622	0.4593	0.80028	0.57
Mof_P 	P 	0.00351	0.5247	0.83105	0.539
Mof_P 	P 	0.74069	0.7846	0.4978	0.293
Mof_O 	O 	0.0087	0.3795	0.78488	-0.685
Mof_O 	O 	0.9307	0.4707	0.83188	-0.466
Mof_O 	O 	0.8277	0.6532	0.7211	-0.544
Mof_O 	O 	0.0144	0.8074	0.8235	-0.513
Mof_O 	O 	0.8661	0.0918	0.75084	-0.64
Mof_O 	O 	0.7694	0.3891	0.80147	-0.498
Mof_O 	O 	0.6402	0.2955	0.75815	-0.646
Mof_O 	O 	0.6931	0.3862	0.85043	-0.486
Mof_O 	O 	0.5062	0.5108	0.78436	-0.69
Mof_O 	O 	0.5524	0.4468	0.87818	-0.453
Mof_O 	O 	0.5069	0.0818	0.82096	-0.511
Mof_O 	O 	0.4219	0.4203	0.82617	-0.468
Mof_O 	O 	0.737	0.0023	0.7095	-0.493
Mof_O 	O 	0.8098	0.9942	0.65862	-0.488
Mof_O 	O 	0.0627	0.4345	0.8791	-0.447
Mof_O 	O 	0.6765	0.7365	0.7886	-0.549
Mof_O 	O 	0.7675	0.891	0.5471	-0.493
Mof_O 	O 	0.7025	0.0462	0.463	-0.492
Mof_O 	O 	0.7962	0.657	0.4838	-0.159
Mof_O 	O 	0.6812	0.5629	0.4966	-0.394
Mof_H 	H 	0.6919	0.4284	0.4872	0.249
Mof_P 	P 	0.7706	0.9944	0.50012	0.44
Mof_O 	O 	0.7964	0.81	0.4705	-0.21
Mof_O 	O 	0.8275	0.2212	0.5215	-0.388
Mof_H 	H 	0.8126	0.3593	0.5028	0.233
Mof_Zn	Zn	0.03252	0.53554	0.73114	1.213
Mof_Zn	Zn	0.46284	0.8529	0.76574	1.207
Mof_Zn	Zn	0.34834	0.03749	0.60649	1.206
Mof_Zn	Zn	0.15939	0.9196	0.72547	1.228
Mof_Zn	Zn	0.1587	0.33521	0.88898	1.213
Mof_Zn	Zn	0.33555	0.46565	0.76502	1.226
Mof_P 	P 	0.19135	0.4284	0.7906	0.581
Mof_P 	P 	0.50364	0.8646	0.67135	0.535
Mof_P 	P 	0.30378	0.9593	0.69972	0.567
Mof_P 	P 	0.99649	0.0247	0.66895	0.545
Mof_P 	P 	0.25931	0.2846	0.0022	0.292
Mof_O 	O 	0.9913	0.8795	0.71512	-0.688
Mof_O 	O 	0.0693	0.9707	0.66812	-0.468
Mof_O 	O 	0.1723	0.1532	0.7789	-0.544
Mof_O 	O 	0.9856	0.3074	0.6765	-0.511
Mof_O 	O 	0.1339	0.5918	0.74916	-0.648
Mof_O 	O 	0.2306	0.8891	0.69853	-0.499
Mof_O 	O 	0.3598	0.7955	0.74185	-0.652
Mof_O 	O 	0.3069	0.8862	0.64957	-0.487
Mof_O 	O 	0.4938	0.0108	0.71564	-0.68
Mof_O 	O 	0.4476	0.9468	0.62182	-0.453
Mof_O 	O 	0.4931	0.5818	0.67904	-0.516
Mof_O 	O 	0.5781	0.9203	0.67383	-0.472
Mof_O 	O 	0.263	0.5023	0.7905	-0.507
Mof_O 	O 	0.1902	0.4942	0.84138	-0.486
Mof_O 	O 	0.9373	0.9345	0.6209	-0.449
Mof_O 	O 	0.3235	0.2365	0.7114	-0.542
Mof_O 	O 	0.2325	0.391	0.9529	-0.492
Mof_O 	O 	0.2975	0.5462	0.037	-0.497
Mof_O 	O 	0.2038	0.157	0.0162	-0.162
Mof_O 	O 	0.3188	0.0629	0.0034	-0.402
Mof_H 	H 	0.3081	0.9284	0.0128	0.255
Mof_P 	P 	0.2294	0.4944	0.99988	0.449
Mof_O 	O 	0.2036	0.31	0.0295	-0.21
Mof_O 	O 	0.1725	0.7212	0.9785	-0.394
Mof_H 	H 	0.1874	0.8593	0.9972	0.236
Mof_Zn	Zn	0.03252	0.96446	0.23114	1.214
Mof_Zn	Zn	0.46284	0.6471	0.26574	1.21
Mof_Zn	Zn	0.34834	0.46251	0.10649	1.205
Mof_Zn	Zn	0.15939	0.5804	0.22547	1.228
Mof_Zn	Zn	0.1587	0.16479	0.38898	1.213
Mof_Zn	Zn	0.33555	0.03435	0.26502	1.222
Mof_P 	P 	0.19135	0.0716	0.2906	0.566
Mof_P 	P 	0.50364	0.6354	0.17135	0.541
Mof_P 	P 	0.30378	0.5407	0.19972	0.57
Mof_P 	P 	0.99649	0.4753	0.16895	0.539
Mof_P 	P 	0.25931	0.2154	0.5022	0.293
Mof_O 	O 	0.9913	0.6205	0.21512	-0.685
Mof_O 	O 	0.0693	0.5293	0.16812	-0.466
Mof_O 	O 	0.1723	0.3468	0.2789	-0.544
Mof_O 	O 	0.9856	0.1926	0.1765	-0.513
Mof_O 	O 	0.1339	0.9082	0.24916	-0.64
Mof_O 	O 	0.2306	0.6109	0.19853	-0.498
Mof_O 	O 	0.3598	0.7045	0.24185	-0.646
Mof_O 	O 	0.3069	0.6138	0.14957	-0.486
Mof_O 	O 	0.4938	0.4892	0.21564	-0.69
Mof_O 	O 	0.4476	0.5532	0.12182	-0.453
Mof_O 	O 	0.4931	0.9182	0.17904	-0.511
Mof_O 	O 	0.5781	0.5797	0.17383	-0.468
Mof_O 	O 	0.263	0.9977	0.2905	-0.493
Mof_O 	O 	0.1902	0.0058	0.34138	-0.488
Mof_O 	O 	0.9373	0.5655	0.1209	-0.447
Mof_O 	O 	0.3235	0.2635	0.2114	-0.549
Mof_O 	O 	0.2325	0.109	0.4529	-0.493
Mof_O 	O 	0.2975	0.9538	0.537	-0.492
Mof_O 	O 	0.2038	0.343	0.5162	-0.159
Mof_O 	O 	0.3188	0.4371	0.5034	-0.394
Mof_H 	H 	0.3081	0.5716	0.5128	0.249
Mof_P 	P 	0.2294	0.0056	0.49988	0.44
Mof_O 	O 	0.2036	0.19	0.5295	-0.21
Mof_O 	O 	0.1725	0.7788	0.4785	-0.388
Mof_H 	H 	0.1874	0.6407	0.4972	0.233
Mof_Zn	Zn	0.96748	0.46446	0.26886	1.213
Mof_Zn	Zn	0.53716	0.1471	0.23426	1.207
Mof_Zn	Zn	0.65166	0.96251	0.39351	1.206
Mof_Zn	Zn	0.84061	0.0804	0.27453	1.228
Mof_Zn	Zn	0.8413	0.66479	0.11102	1.213
Mof_Zn	Zn	0.66445	0.53435	0.23498	1.226
Mof_P 	P 	0.80865	0.5716	0.2094	0.581
Mof_P 	P 	0.49636	0.1354	0.32865	0.535
Mof_P 	P 	0.69622	0.0407	0.30028	0.567
Mof_P 	P 	0.00351	0.9753	0.33105	0.545
Mof_P 	P 	0.74069	0.7154	0.9978	0.292
Mof_O 	O 	0.0087	0.1205	0.28488	-0.688
Mof_O 	O 	0.9307	0.0293	0.33188	-0.468
Mof_O 	O 	0.8277	0.8468	0.2211	-0.544
Mof_O 	O 	0.0144	0.6926	0.3235	-0.511
Mof_O 	O 	0.8661	0.4082	0.25084	-0.648
Mof_O 	O 	0.7694	0.1109	0.30147	-0.499
Mof_O 	O 	0.6402	0.2045	0.25815	-0.652
Mof_O 	O 	0.6931	0.1138	0.35043	-0.487
Mof_O 	O 	0.5062	0.9892	0.28436	-0.68
Mof_O 	O 	0.5524	0.0532	0.37818	-0.453
Mof_O 	O 	0.5069	0.4182	0.32096	-0.516
Mof_O 	O 	0.4219	0.0797	0.32617	-0.472
Mof_O 	O 	0.737	0.4977	0.2095	-0.507
Mof_O 	O 	0.8098	0.5058	0.15862	-0.486
Mof_O 	O 	0.0627	0.0655	0.3791	-0.449
Mof_O 	O 	0.6765	0.7635	0.2886	-0.542
Mof_O 	O 	0.7675	0.609	0.0471	-0.492
Mof_O 	O 	0.7025	0.4538	0.963	-0.497
Mof_O 	O 	0.7962	0.843	0.9838	-0.162
Mof_O 	O 	0.6812	0.9371	0.9966	-0.402
Mof_H 	H 	0.6919	0.0716	0.9872	0.255
Mof_P 	P 	0.7706	0.5056	0.00012	0.449
Mof_O 	O 	0.7964	0.69	0.9705	-0.21
Mof_O 	O 	0.8275	0.2788	0.0215	-0.394
Mof_H 	H 	0.8126	0.1407	0.0028	0.236
_end
