data_functionalizedCrystal
_audit_creation_method	'EQeq! by Chris Wilmer'
_symmetry_space_group_name_H-M	'P1'
_symmetry_Int_Tables_number	1
_symmetry_cell_setting	triclinic
loop_
_symmetry_equiv_pos_as_xyz
  x,y,z
_cell_length_a	26.7778
_cell_length_b	26.7778
_cell_length_c	26.7778
_cell_angle_alpha	60.2031
_cell_angle_beta	89.6479
_cell_angle_gamma	119.797
loop_
_atom_site_label
_atom_site_type_symbol
_atom_site_fract_x
_atom_site_fract_y
_atom_site_fract_z
_atom_site_charge
Mof_Cu	Cu	0.76841	0.2953	0.18155	0.905
Mof_Cu	Cu	0.85874	0.3905	0.07604	0.904
Mof_Cu	Cu	0.52315	0.7047	0.52689	0.906
Mof_Cu	Cu	0.53346	0.6095	0.53176	0.905
Mof_Cu	Cu	0.47311	0.94996	0.23159	0.905
Mof_Cu	Cu	0.46824	0.93478	0.14126	0.904
Mof_Cu	Cu	0.81845	0.05004	0.47685	0.906
Mof_Cu	Cu	0.92396	0.06522	0.46654	0.905
Mof_Cu	Cu	0.23159	0.7047	0.81845	0.906
Mof_Cu	Cu	0.14126	0.6095	0.92396	0.905
Mof_Cu	Cu	0.47685	0.2953	0.47311	0.906
Mof_Cu	Cu	0.46654	0.3905	0.46824	0.905
Mof_Cu	Cu	0.52689	0.05004	0.76841	0.905
Mof_Cu	Cu	0.53176	0.06522	0.85874	0.904
Mof_Cu	Cu	0.18155	0.94996	0.52315	0.906
Mof_Cu	Cu	0.07604	0.93478	0.53346	0.905
Mof_Cu	Cu	0.79472	0.34218	0.45254	0.907
Mof_Cu	Cu	0.89166	0.45373	0.43793	0.908
Mof_Cu	Cu	0.20528	0.65782	0.54746	0.907
Mof_Cu	Cu	0.10834	0.54627	0.56207	0.908
Mof_Cu	Cu	0.45254	0.24726	0.20528	0.907
Mof_Cu	Cu	0.43793	0.32959	0.10834	0.907
Mof_Cu	Cu	0.54746	0.75274	0.79472	0.907
Mof_Cu	Cu	0.56207	0.67041	0.89166	0.907
Mof_H 	H 	0.0597	0.635	0.0975	0.141
Mof_H 	H 	0.2881	0.8087	0.0742	0.141
Mof_H 	H 	0.1148	0.6272	0.2922	0.141
Mof_H 	H 	0.9923	0.563	0.2491	0.097
Mof_H 	H 	0.8351	0.4015	0.2702	0.069
Mof_H 	H 	0.976	0.537	0.1134	0.083
Mof_H 	H 	0.2064	0.7189	0.0121	0.093
Mof_H 	H 	0.3409	0.8605	0.8496	0.068
Mof_H 	H 	0.3548	0.8956	0.9788	0.083
Mof_H 	H 	0.2695	0.7699	0.2098	0.094
Mof_H 	H 	0.3006	0.7691	0.3577	0.068
Mof_H 	H 	0.1356	0.6248	0.3728	0.079
Mof_H 	H 	0.2675	0.365	0.5753	0.142
Mof_H 	H 	0.1171	0.1913	0.5206	0.142
Mof_H 	H 	0.0806	0.3728	0.5124	0.141
Mof_H 	H 	0.1879	0.437	0.5707	0.096
Mof_H 	H 	0.3283	0.5985	0.5664	0.069
Mof_H 	H 	0.3496	0.463	0.561	0.082
Mof_H 	H 	0.269	0.2811	0.5125	0.098
Mof_H 	H 	0.2899	0.1395	0.5196	0.069
Mof_H 	H 	0.1256	0.1044	0.5408	0.085
Mof_H 	H 	0.0203	0.2301	0.5004	0.097
Mof_H 	H 	0.8732	0.2309	0.4685	0.069
Mof_H 	H 	0.0024	0.3752	0.4892	0.081
Mof_H 	H 	0.4247	0.1572	0.9403	0.141
Mof_H 	H 	0.4794	0.3623	0.7119	0.142
Mof_H 	H 	0.4876	0.407	0.8852	0.141
Mof_H 	H 	0.4293	0.2414	0.0077	0.097
Mof_H 	H 	0.4336	0.1053	0.1649	0.069
Mof_H 	H 	0.439	0.0894	0.024	0.083
Mof_H 	H 	0.4875	0.2185	0.7936	0.097
Mof_H 	H 	0.4804	0.1905	0.6591	0.069
Mof_H 	H 	0.4592	0.3336	0.6452	0.085
Mof_H 	H 	0.4996	0.4793	0.7305	0.095
Mof_H 	H 	0.5315	0.6583	0.6994	0.069
Mof_H 	H 	0.5108	0.5084	0.8644	0.079
Mof_H 	H 	0.9025	0.8428	0.7325	0.142
Mof_H 	H 	0.9258	0.6377	0.8829	0.142
Mof_H 	H 	0.7078	0.593	0.9194	0.141
Mof_H 	H 	0.7509	0.7586	0.8121	0.096
Mof_H 	H 	0.7298	0.8947	0.6717	0.069
Mof_H 	H 	0.8866	0.9106	0.6504	0.083
Mof_H 	H 	0.9879	0.7815	0.731	0.099
Mof_H 	H 	0.1504	0.8095	0.7101	0.07
Mof_H 	H 	0.0212	0.6664	0.8744	0.085
Mof_H 	H 	0.7902	0.5207	0.9797	0.094
Mof_H 	H 	0.6423	0.3417	0.1268	0.068
Mof_H 	H 	0.6272	0.4916	0.9976	0.078
Mof_H 	H 	0.9403	0.365	0.9025	0.141
Mof_H 	H 	0.7119	0.1913	0.9258	0.141
Mof_H 	H 	0.8852	0.3728	0.7078	0.141
Mof_H 	H 	0.0077	0.437	0.7509	0.097
Mof_H 	H 	0.1649	0.5985	0.7298	0.069
Mof_H 	H 	0.024	0.463	0.8866	0.083
Mof_H 	H 	0.7936	0.2811	0.9879	0.093
Mof_H 	H 	0.6591	0.1395	0.1504	0.068
Mof_H 	H 	0.6452	0.1044	0.0212	0.083
Mof_H 	H 	0.7305	0.2301	0.7902	0.094
Mof_H 	H 	0.6994	0.2309	0.6423	0.068
Mof_H 	H 	0.8644	0.3752	0.6272	0.079
Mof_H 	H 	0.7325	0.635	0.4247	0.142
Mof_H 	H 	0.8829	0.8087	0.4794	0.142
Mof_H 	H 	0.9194	0.6272	0.4876	0.141
Mof_H 	H 	0.8121	0.563	0.4293	0.096
Mof_H 	H 	0.6717	0.4015	0.4336	0.069
Mof_H 	H 	0.6504	0.537	0.439	0.082
Mof_H 	H 	0.731	0.7189	0.4875	0.098
Mof_H 	H 	0.7101	0.8605	0.4804	0.069
Mof_H 	H 	0.8744	0.8956	0.4592	0.085
Mof_H 	H 	0.9797	0.7699	0.4996	0.097
Mof_H 	H 	0.1268	0.7691	0.5315	0.069
Mof_H 	H 	0.9976	0.6248	0.5108	0.081
Mof_H 	H 	0.5753	0.8428	0.0597	0.141
Mof_H 	H 	0.5206	0.6377	0.2881	0.142
Mof_H 	H 	0.5124	0.593	0.1148	0.141
Mof_H 	H 	0.5707	0.7586	0.9923	0.097
Mof_H 	H 	0.5664	0.8947	0.8351	0.069
Mof_H 	H 	0.561	0.9106	0.976	0.083
Mof_H 	H 	0.5125	0.7815	0.2064	0.097
Mof_H 	H 	0.5196	0.8095	0.3409	0.069
Mof_H 	H 	0.5408	0.6664	0.3548	0.085
Mof_H 	H 	0.5004	0.5207	0.2695	0.095
Mof_H 	H 	0.4685	0.3417	0.3006	0.069
Mof_H 	H 	0.4892	0.4916	0.1356	0.079
Mof_H 	H 	0.0975	0.1572	0.2675	0.142
Mof_H 	H 	0.0742	0.3623	0.1171	0.142
Mof_H 	H 	0.2922	0.407	0.0806	0.141
Mof_H 	H 	0.2491	0.2414	0.1879	0.096
Mof_H 	H 	0.2702	0.1053	0.3283	0.069
Mof_H 	H 	0.1134	0.0894	0.3496	0.083
Mof_H 	H 	0.0121	0.2185	0.269	0.099
Mof_H 	H 	0.8496	0.1905	0.2899	0.07
Mof_H 	H 	0.9788	0.3336	0.1256	0.085
Mof_H 	H 	0.2098	0.4793	0.0203	0.094
Mof_H 	H 	0.3577	0.6583	0.8732	0.068
Mof_H 	H 	0.3728	0.5084	0.0024	0.078
Mof_C 	C 	0.1046	0.6536	0.147	0.21
Mof_C 	C 	0.20426	0.7362	0.10894	0.207
Mof_C 	C 	0.15334	0.6765	0.20796	0.21
Mof_C 	C 	0.99471	0.55892	0.17561	0.139
Mof_C 	C 	0.96944	0.53771	0.23387	-0.105
Mof_C 	C 	0.91006	0.47872	0.26908	-0.03
Mof_C 	C 	0.87506	0.44101	0.24643	-0.021
Mof_C 	C 	0.90031	0.4629	0.18825	-0.035
Mof_C 	C 	0.95959	0.52201	0.15282	-0.106
Mof_C 	C 	0.88361	0.45226	0.33379	0.338
Mof_C 	C 	0.86576	0.42114	0.1645	0.339
Mof_C 	C 	0.27701	0.8034	0.00539	0.134
Mof_C 	C 	0.24429	0.76119	0.9861	-0.097
Mof_C 	C 	0.26873	0.78258	0.92701	-0.036
Mof_C 	C 	0.32478	0.84585	0.88893	-0.017
Mof_C 	C 	0.3572	0.88752	0.90824	-0.033
Mof_C 	C 	0.33315	0.86682	0.96607	-0.103
Mof_C 	C 	0.23567	0.7353	0.90717	0.339
Mof_C 	C 	0.41977	0.95376	0.86921	0.334
Mof_C 	C 	0.19572	0.69274	0.28682	0.134
Mof_C 	C 	0.25559	0.75059	0.2512	-0.099
Mof_C 	C 	0.29476	0.77965	0.27725	-0.035
Mof_C 	C 	0.27453	0.74983	0.34006	-0.019
Mof_C 	C 	0.21471	0.69092	0.37529	-0.037
Mof_C 	C 	0.1758	0.66347	0.34887	-0.1
Mof_C 	C 	0.35943	0.84019	0.24124	0.333
Mof_C 	C 	0.194	0.6587	0.44176	0.342
Mof_C 	C 	0.1994	0.3464	0.549	0.21
Mof_C 	C 	0.15486	0.2638	0.53194	0.208
Mof_C 	C 	0.11554	0.3235	0.52316	0.21
Mof_C 	C 	0.26547	0.44108	0.56421	0.138
Mof_C 	C 	0.22842	0.46229	0.56827	-0.104
Mof_C 	C 	0.2522	0.52128	0.56866	-0.03
Mof_C 	C 	0.31256	0.55899	0.56595	-0.02
Mof_C 	C 	0.34885	0.5371	0.56259	-0.036
Mof_C 	C 	0.32517	0.47799	0.56242	-0.105
Mof_C 	C 	0.21395	0.54774	0.56865	0.339
Mof_C 	C 	0.41436	0.57886	0.55538	0.339
Mof_C 	C 	0.19121	0.1966	0.52639	0.144
Mof_C 	C 	0.25271	0.23881	0.5169	-0.108
Mof_C 	C 	0.29041	0.21742	0.51385	-0.031
Mof_C 	C 	0.26522	0.15415	0.52107	-0.022
Mof_C 	C 	0.20424	0.11248	0.53032	-0.029
Mof_C 	C 	0.16711	0.13318	0.53367	-0.111
Mof_C 	C 	0.35753	0.2647	0.49963	0.337
Mof_C 	C 	0.17703	0.04624	0.53399	0.333
Mof_C 	C 	0.02044	0.30726	0.49702	0.137
Mof_C 	C 	0.99821	0.24941	0.495	-0.104
Mof_C 	C 	0.9431	0.22035	0.48489	-0.033
Mof_C 	C 	0.91011	0.25017	0.4753	-0.021
Mof_C 	C 	0.93379	0.30908	0.47621	-0.035
Mof_C 	C 	0.98766	0.33653	0.48767	-0.103
Mof_C 	C 	0.91857	0.15981	0.48076	0.333
Mof_C 	C 	0.89954	0.3413	0.4647	0.341
Mof_C 	C 	0.451	0.2516	0.8954	0.21
Mof_C 	C 	0.46806	0.3132	0.79574	0.208
Mof_C 	C 	0.47684	0.3613	0.84666	0.21
Mof_C 	C 	0.43579	0.17032	0.00529	0.139
Mof_C 	C 	0.43173	0.20331	0.03056	-0.105
Mof_C 	C 	0.43134	0.17914	0.08994	-0.03
Mof_C 	C 	0.43405	0.12149	0.12494	-0.021
Mof_C 	C 	0.43741	0.08856	0.09969	-0.035
Mof_C 	C 	0.43758	0.11241	0.04041	-0.106
Mof_C 	C 	0.43135	0.2174	0.11639	0.338
Mof_C 	C 	0.44462	0.03026	0.13424	0.338
Mof_C 	C 	0.47361	0.2824	0.72299	0.143
Mof_C 	C 	0.4831	0.23039	0.75571	-0.107
Mof_C 	C 	0.48615	0.19574	0.73127	-0.032
Mof_C 	C 	0.47893	0.21371	0.67522	-0.022
Mof_C 	C 	0.46968	0.26544	0.6428	-0.029
Mof_C 	C 	0.46633	0.29922	0.66685	-0.111
Mof_C 	C 	0.50037	0.14284	0.76433	0.337
Mof_C 	C 	0.46601	0.28898	0.58023	0.333
Mof_C 	C 	0.50298	0.48254	0.80428	0.134
Mof_C 	C 	0.505	0.50679	0.74441	-0.099
Mof_C 	C 	0.51511	0.57201	0.70524	-0.035
Mof_C 	C 	0.5247	0.61459	0.72547	-0.019
Mof_C 	C 	0.52379	0.59	0.78529	-0.037
Mof_C 	C 	0.51233	0.52467	0.8242	-0.1
Mof_C 	C 	0.51924	0.60067	0.64057	0.333
Mof_C 	C 	0.5353	0.63576	0.806	0.342
Mof_C 	C 	0.853	0.7484	0.8006	0.21
Mof_C 	C 	0.89106	0.6868	0.84514	0.208
Mof_C 	C 	0.79204	0.6387	0.88446	0.21
Mof_C 	C 	0.82439	0.82968	0.73453	0.138
Mof_C 	C 	0.76613	0.79669	0.77158	-0.104
Mof_C 	C 	0.73092	0.82086	0.7478	-0.03
Mof_C 	C 	0.75357	0.87851	0.68744	-0.021
Mof_C 	C 	0.81175	0.91144	0.65115	-0.035
Mof_C 	C 	0.84718	0.88759	0.67483	-0.105
Mof_C 	C 	0.66621	0.7826	0.78605	0.339
Mof_C 	C 	0.8355	0.96974	0.58564	0.339
Mof_C 	C 	0.99461	0.7176	0.80879	0.145
Mof_C 	C 	0.0139	0.76961	0.74729	-0.11
Mof_C 	C 	0.07299	0.80426	0.70959	-0.03
Mof_C 	C 	0.11107	0.78629	0.73478	-0.023
Mof_C 	C 	0.09176	0.73456	0.79576	-0.028
Mof_C 	C 	0.03393	0.70078	0.83289	-0.112
Mof_C 	C 	0.09283	0.85716	0.64247	0.337
Mof_C 	C 	0.13079	0.71102	0.82297	0.333
Mof_C 	C 	0.71318	0.51746	0.97956	0.132
Mof_C 	C 	0.7488	0.49321	0.00179	-0.098
Mof_C 	C 	0.72275	0.42799	0.0569	-0.036
Mof_C 	C 	0.65994	0.38541	0.08989	-0.018
Mof_C 	C 	0.62471	0.41	0.06621	-0.038
Mof_C 	C 	0.65113	0.47533	0.01234	-0.098
Mof_C 	C 	0.75876	0.39933	0.08143	0.334
Mof_C 	C 	0.55824	0.36424	0.10046	0.342
Mof_C 	C 	0.8954	0.3464	0.853	0.21
Mof_C 	C 	0.79574	0.2638	0.89106	0.207
Mof_C 	C 	0.84666	0.3235	0.79204	0.21
Mof_C 	C 	0.00529	0.44108	0.82439	0.139
Mof_C 	C 	0.03056	0.46229	0.76613	-0.105
Mof_C 	C 	0.08994	0.52128	0.73092	-0.03
Mof_C 	C 	0.12494	0.55899	0.75357	-0.021
Mof_C 	C 	0.09969	0.5371	0.81175	-0.035
Mof_C 	C 	0.04041	0.47799	0.84718	-0.106
Mof_C 	C 	0.11639	0.54774	0.66621	0.338
Mof_C 	C 	0.13424	0.57886	0.8355	0.339
Mof_C 	C 	0.72299	0.1966	0.99461	0.134
Mof_C 	C 	0.75571	0.23881	0.0139	-0.097
Mof_C 	C 	0.73127	0.21742	0.07299	-0.036
Mof_C 	C 	0.67522	0.15415	0.11107	-0.017
Mof_C 	C 	0.6428	0.11248	0.09176	-0.033
Mof_C 	C 	0.66685	0.13318	0.03393	-0.103
Mof_C 	C 	0.76433	0.2647	0.09283	0.339
Mof_C 	C 	0.58023	0.04624	0.13079	0.334
Mof_C 	C 	0.80428	0.30726	0.71318	0.134
Mof_C 	C 	0.74441	0.24941	0.7488	-0.099
Mof_C 	C 	0.70524	0.22035	0.72275	-0.035
Mof_C 	C 	0.72547	0.25017	0.65994	-0.019
Mof_C 	C 	0.78529	0.30908	0.62471	-0.037
Mof_C 	C 	0.8242	0.33653	0.65113	-0.1
Mof_C 	C 	0.64057	0.15981	0.75876	0.333
Mof_C 	C 	0.806	0.3413	0.55824	0.342
Mof_C 	C 	0.8006	0.6536	0.451	0.21
Mof_C 	C 	0.84514	0.7362	0.46806	0.208
Mof_C 	C 	0.88446	0.6765	0.47684	0.21
Mof_C 	C 	0.73453	0.55892	0.43579	0.138
Mof_C 	C 	0.77158	0.53771	0.43173	-0.104
Mof_C 	C 	0.7478	0.47872	0.43134	-0.03
Mof_C 	C 	0.68744	0.44101	0.43405	-0.02
Mof_C 	C 	0.65115	0.4629	0.43741	-0.036
Mof_C 	C 	0.67483	0.52201	0.43758	-0.105
Mof_C 	C 	0.78605	0.45226	0.43135	0.339
Mof_C 	C 	0.58564	0.42114	0.44462	0.339
Mof_C 	C 	0.80879	0.8034	0.47361	0.144
Mof_C 	C 	0.74729	0.76119	0.4831	-0.108
Mof_C 	C 	0.70959	0.78258	0.48615	-0.031
Mof_C 	C 	0.73478	0.84585	0.47893	-0.022
Mof_C 	C 	0.79576	0.88752	0.46968	-0.029
Mof_C 	C 	0.83289	0.86682	0.46633	-0.111
Mof_C 	C 	0.64247	0.7353	0.50037	0.337
Mof_C 	C 	0.82297	0.95376	0.46601	0.333
Mof_C 	C 	0.97956	0.69274	0.50298	0.137
Mof_C 	C 	0.00179	0.75059	0.505	-0.104
Mof_C 	C 	0.0569	0.77965	0.51511	-0.033
Mof_C 	C 	0.08989	0.74983	0.5247	-0.021
Mof_C 	C 	0.06621	0.69092	0.52379	-0.035
Mof_C 	C 	0.01234	0.66347	0.51233	-0.103
Mof_C 	C 	0.08143	0.84019	0.51924	0.333
Mof_C 	C 	0.10046	0.6587	0.5353	0.341
Mof_C 	C 	0.549	0.7484	0.1046	0.21
Mof_C 	C 	0.53194	0.6868	0.20426	0.208
Mof_C 	C 	0.52316	0.6387	0.15334	0.21
Mof_C 	C 	0.56421	0.82968	0.99471	0.139
Mof_C 	C 	0.56827	0.79669	0.96944	-0.105
Mof_C 	C 	0.56866	0.82086	0.91006	-0.03
Mof_C 	C 	0.56595	0.87851	0.87506	-0.021
Mof_C 	C 	0.56259	0.91144	0.90031	-0.035
Mof_C 	C 	0.56242	0.88759	0.95959	-0.106
Mof_C 	C 	0.56865	0.7826	0.88361	0.338
Mof_C 	C 	0.55538	0.96974	0.86576	0.338
Mof_C 	C 	0.52639	0.7176	0.27701	0.143
Mof_C 	C 	0.5169	0.76961	0.24429	-0.107
Mof_C 	C 	0.51385	0.80426	0.26873	-0.032
Mof_C 	C 	0.52107	0.78629	0.32478	-0.022
Mof_C 	C 	0.53032	0.73456	0.3572	-0.029
Mof_C 	C 	0.53367	0.70078	0.33315	-0.111
Mof_C 	C 	0.49963	0.85716	0.23567	0.337
Mof_C 	C 	0.53399	0.71102	0.41977	0.333
Mof_C 	C 	0.49702	0.51746	0.19572	0.134
Mof_C 	C 	0.495	0.49321	0.25559	-0.099
Mof_C 	C 	0.48489	0.42799	0.29476	-0.035
Mof_C 	C 	0.4753	0.38541	0.27453	-0.019
Mof_C 	C 	0.47621	0.41	0.21471	-0.037
Mof_C 	C 	0.48767	0.47533	0.1758	-0.1
Mof_C 	C 	0.48076	0.39933	0.35943	0.333
Mof_C 	C 	0.4647	0.36424	0.194	0.342
Mof_C 	C 	0.147	0.2516	0.1994	0.21
Mof_C 	C 	0.10894	0.3132	0.15486	0.208
Mof_C 	C 	0.20796	0.3613	0.11554	0.21
Mof_C 	C 	0.17561	0.17032	0.26547	0.138
Mof_C 	C 	0.23387	0.20331	0.22842	-0.104
Mof_C 	C 	0.26908	0.17914	0.2522	-0.03
Mof_C 	C 	0.24643	0.12149	0.31256	-0.021
Mof_C 	C 	0.18825	0.08856	0.34885	-0.035
Mof_C 	C 	0.15282	0.11241	0.32517	-0.105
Mof_C 	C 	0.33379	0.2174	0.21395	0.339
Mof_C 	C 	0.1645	0.03026	0.41436	0.339
Mof_C 	C 	0.00539	0.2824	0.19121	0.145
Mof_C 	C 	0.9861	0.23039	0.25271	-0.11
Mof_C 	C 	0.92701	0.19574	0.29041	-0.03
Mof_C 	C 	0.88893	0.21371	0.26522	-0.023
Mof_C 	C 	0.90824	0.26544	0.20424	-0.028
Mof_C 	C 	0.96607	0.29922	0.16711	-0.112
Mof_C 	C 	0.90717	0.14284	0.35753	0.337
Mof_C 	C 	0.86921	0.28898	0.17703	0.333
Mof_C 	C 	0.28682	0.48254	0.02044	0.132
Mof_C 	C 	0.2512	0.50679	0.99821	-0.098
Mof_C 	C 	0.27725	0.57201	0.9431	-0.036
Mof_C 	C 	0.34006	0.61459	0.91011	-0.018
Mof_C 	C 	0.37529	0.59	0.93379	-0.038
Mof_C 	C 	0.34887	0.52467	0.98766	-0.098
Mof_C 	C 	0.24124	0.60067	0.91857	0.334
Mof_C 	C 	0.44176	0.63576	0.89954	0.342
Mof_N 	N 	0.10069	0.63863	0.20294	-0.179
Mof_N 	N 	0.15525	0.70161	0.09816	-0.18
Mof_N 	N 	0.20706	0.72624	0.16378	-0.176
Mof_N 	N 	0.05448	0.61843	0.13555	-0.24
Mof_N 	N 	0.25927	0.785	0.06473	-0.241
Mof_N 	N 	0.15029	0.66144	0.26495	-0.238
Mof_N 	N 	0.15843	0.36137	0.53794	-0.179
Mof_N 	N 	0.20023	0.29839	0.54636	-0.18
Mof_N 	N 	0.10998	0.27376	0.51918	-0.176
Mof_N 	N 	0.24602	0.38157	0.56395	-0.24
Mof_N 	N 	0.15027	0.215	0.52573	-0.242
Mof_N 	N 	0.07361	0.33856	0.51115	-0.239
Mof_N 	N 	0.46206	0.30363	0.89931	-0.18
Mof_N 	N 	0.45364	0.25341	0.84475	-0.18
Mof_N 	N 	0.48082	0.37084	0.79294	-0.176
Mof_N 	N 	0.43605	0.19003	0.94552	-0.241
Mof_N 	N 	0.47427	0.324	0.74073	-0.242
Mof_N 	N 	0.48885	0.41524	0.84971	-0.238
Mof_N 	N 	0.79706	0.69637	0.84157	-0.179
Mof_N 	N 	0.90184	0.74659	0.79977	-0.18
Mof_N 	N 	0.83622	0.62916	0.89002	-0.176
Mof_N 	N 	0.86445	0.80997	0.75398	-0.24
Mof_N 	N 	0.93527	0.676	0.84973	-0.243
Mof_N 	N 	0.73505	0.58476	0.92639	-0.238
Mof_N 	N 	0.89931	0.36137	0.79706	-0.179
Mof_N 	N 	0.84475	0.29839	0.90184	-0.18
Mof_N 	N 	0.79294	0.27376	0.83622	-0.176
Mof_N 	N 	0.94552	0.38157	0.86445	-0.24
Mof_N 	N 	0.74073	0.215	0.93527	-0.241
Mof_N 	N 	0.84971	0.33856	0.73505	-0.238
Mof_N 	N 	0.84157	0.63863	0.46206	-0.179
Mof_N 	N 	0.79977	0.70161	0.45364	-0.18
Mof_N 	N 	0.89002	0.72624	0.48082	-0.176
Mof_N 	N 	0.75398	0.61843	0.43605	-0.24
Mof_N 	N 	0.84973	0.785	0.47427	-0.242
Mof_N 	N 	0.92639	0.66144	0.48885	-0.239
Mof_N 	N 	0.53794	0.69637	0.10069	-0.18
Mof_N 	N 	0.54636	0.74659	0.15525	-0.18
Mof_N 	N 	0.51918	0.62916	0.20706	-0.176
Mof_N 	N 	0.56395	0.80997	0.05448	-0.241
Mof_N 	N 	0.52573	0.676	0.25927	-0.242
Mof_N 	N 	0.51115	0.58476	0.15029	-0.238
Mof_N 	N 	0.20294	0.30363	0.15843	-0.179
Mof_N 	N 	0.09816	0.25341	0.20023	-0.18
Mof_N 	N 	0.16378	0.37084	0.10998	-0.176
Mof_N 	N 	0.13555	0.19003	0.24602	-0.24
Mof_N 	N 	0.06473	0.324	0.15027	-0.243
Mof_N 	N 	0.26495	0.41524	0.07361	-0.238
Mof_O 	O 	0.91493	0.48844	0.35257	-0.402
Mof_O 	O 	0.83218	0.39353	0.36533	-0.403
Mof_O 	O 	0.81282	0.36615	0.19855	-0.399
Mof_O 	O 	0.89253	0.44231	0.11202	-0.405
Mof_O 	O 	0.18819	0.67483	0.94576	-0.398
Mof_O 	O 	0.25902	0.75948	0.8524	-0.401
Mof_O 	O 	0.44282	0.96815	0.81865	-0.394
Mof_O 	O 	0.44549	0.98908	0.89061	-0.406
Mof_O 	O 	0.38118	0.8601	0.1876	-0.393
Mof_O 	O 	0.38954	0.86739	0.26747	-0.404
Mof_O 	O 	0.22659	0.69229	0.46162	-0.404
Mof_O 	O 	0.14393	0.5977	0.47435	-0.402
Mof_O 	O 	0.15899	0.51156	0.57351	-0.402
Mof_O 	O 	0.24114	0.60647	0.56135	-0.403
Mof_O 	O 	0.4353	0.63385	0.55333	-0.399
Mof_O 	O 	0.44567	0.55769	0.54978	-0.405
Mof_O 	O 	0.37941	0.32517	0.48664	-0.398
Mof_O 	O 	0.38812	0.24052	0.50046	-0.4
Mof_O 	O 	0.2132	0.03185	0.52533	-0.394
Mof_O 	O 	0.12031	0.01092	0.54359	-0.406
Mof_O 	O 	0.9523	0.1399	0.47892	-0.392
Mof_O 	O 	0.86514	0.13261	0.47785	-0.403
Mof_O 	O 	0.84609	0.30771	0.4657	-0.403
Mof_O 	O 	0.92795	0.4023	0.45377	-0.401
Mof_O 	O 	0.42649	0.2675	0.08507	-0.402
Mof_O 	O 	0.43865	0.19751	0.16782	-0.403
Mof_O 	O 	0.44667	0.01137	0.18718	-0.398
Mof_O 	O 	0.45022	0.00455	0.10747	-0.404
Mof_O 	O 	0.51336	0.13395	0.81181	-0.398
Mof_O 	O 	0.49954	0.11142	0.74098	-0.401
Mof_O 	O 	0.47467	0.26147	0.55718	-0.394
Mof_O 	O 	0.45641	0.3361	0.55451	-0.406
Mof_O 	O 	0.52108	0.56878	0.61882	-0.392
Mof_O 	O 	0.52215	0.65701	0.61046	-0.403
Mof_O 	O 	0.5343	0.68821	0.77341	-0.403
Mof_O 	O 	0.54623	0.61828	0.85607	-0.402
Mof_O 	O 	0.64743	0.7325	0.84101	-0.402
Mof_O 	O 	0.63467	0.80249	0.75886	-0.403
Mof_O 	O 	0.80145	0.98863	0.5647	-0.398
Mof_O 	O 	0.88798	0.99545	0.55433	-0.405
Mof_O 	O 	0.05424	0.86605	0.62059	-0.398
Mof_O 	O 	0.1476	0.88858	0.61188	-0.4
Mof_O 	O 	0.18135	0.73853	0.7868	-0.394
Mof_O 	O 	0.10939	0.6639	0.87969	-0.406
Mof_O 	O 	0.8124	0.43122	0.0477	-0.392
Mof_O 	O 	0.73253	0.34299	0.13486	-0.403
Mof_O 	O 	0.53838	0.31179	0.15391	-0.404
Mof_O 	O 	0.52565	0.38172	0.07205	-0.402
Mof_O 	O 	0.08507	0.51156	0.64743	-0.402
Mof_O 	O 	0.16782	0.60647	0.63467	-0.403
Mof_O 	O 	0.18718	0.63385	0.80145	-0.399
Mof_O 	O 	0.10747	0.55769	0.88798	-0.405
Mof_O 	O 	0.81181	0.32517	0.05424	-0.398
Mof_O 	O 	0.74098	0.24052	0.1476	-0.401
Mof_O 	O 	0.55718	0.03185	0.18135	-0.394
Mof_O 	O 	0.55451	0.01092	0.10939	-0.406
Mof_O 	O 	0.61882	0.1399	0.8124	-0.393
Mof_O 	O 	0.61046	0.13261	0.73253	-0.404
Mof_O 	O 	0.77341	0.30771	0.53838	-0.404
Mof_O 	O 	0.85607	0.4023	0.52565	-0.402
Mof_O 	O 	0.84101	0.48844	0.42649	-0.402
Mof_O 	O 	0.75886	0.39353	0.43865	-0.403
Mof_O 	O 	0.5647	0.36615	0.44667	-0.399
Mof_O 	O 	0.55433	0.44231	0.45022	-0.405
Mof_O 	O 	0.62059	0.67483	0.51336	-0.398
Mof_O 	O 	0.61188	0.75948	0.49954	-0.4
Mof_O 	O 	0.7868	0.96815	0.47467	-0.394
Mof_O 	O 	0.87969	0.98908	0.45641	-0.406
Mof_O 	O 	0.0477	0.8601	0.52108	-0.392
Mof_O 	O 	0.13486	0.86739	0.52215	-0.403
Mof_O 	O 	0.15391	0.69229	0.5343	-0.403
Mof_O 	O 	0.07205	0.5977	0.54623	-0.401
Mof_O 	O 	0.57351	0.7325	0.91493	-0.402
Mof_O 	O 	0.56135	0.80249	0.83218	-0.403
Mof_O 	O 	0.55333	0.98863	0.81282	-0.398
Mof_O 	O 	0.54978	0.99545	0.89253	-0.404
Mof_O 	O 	0.48664	0.86605	0.18819	-0.398
Mof_O 	O 	0.50046	0.88858	0.25902	-0.401
Mof_O 	O 	0.52533	0.73853	0.44282	-0.394
Mof_O 	O 	0.54359	0.6639	0.44549	-0.406
Mof_O 	O 	0.47892	0.43122	0.38118	-0.392
Mof_O 	O 	0.47785	0.34299	0.38954	-0.403
Mof_O 	O 	0.4657	0.31179	0.22659	-0.403
Mof_O 	O 	0.45377	0.38172	0.14393	-0.402
Mof_O 	O 	0.35257	0.2675	0.15899	-0.402
Mof_O 	O 	0.36533	0.19751	0.24114	-0.403
Mof_O 	O 	0.19855	0.01137	0.4353	-0.398
Mof_O 	O 	0.11202	0.00455	0.44567	-0.405
Mof_O 	O 	0.94576	0.13395	0.37941	-0.398
Mof_O 	O 	0.8524	0.11142	0.38812	-0.4
Mof_O 	O 	0.81865	0.26147	0.2132	-0.394
Mof_O 	O 	0.89061	0.3361	0.12031	-0.406
Mof_O 	O 	0.1876	0.56878	0.9523	-0.392
Mof_O 	O 	0.26747	0.65701	0.86514	-0.403
Mof_O 	O 	0.46162	0.68821	0.84609	-0.404
Mof_O 	O 	0.47435	0.61828	0.92795	-0.402
_end
