data_functionalizedCrystal
_audit_creation_method	'EQeq! by Chris Wilmer'
_symmetry_space_group_name_H-M	'P1'
_symmetry_Int_Tables_number	1
_symmetry_cell_setting	triclinic
loop_
_symmetry_equiv_pos_as_xyz
  x,y,z
_cell_length_a	12.4818
_cell_length_b	21.763
_cell_length_c	16.509
_cell_angle_alpha	90
_cell_angle_beta	103.577
_cell_angle_gamma	90
loop_
_atom_site_label
_atom_site_type_symbol
_atom_site_fract_x
_atom_site_fract_y
_atom_site_fract_z
_atom_site_charge
Mof_Ce	Ce	0.97106	0.95262	0.09979	2.712
Mof_O 	O 	0.8218	0.9416	0.977	-0.633
Mof_O 	O 	0.8693	0.9766	0.8625	-0.607
Mof_O 	O 	0.8431	0.0445	0.1089	-0.545
Mof_O 	O 	0.9255	0.0621	0.0082	-0.74
Mof_O 	O 	0.8467	0.9121	0.1753	-0.674
Mof_O 	O 	0.8791	0.8934	0.3103	-0.661
Mof_H 	H 	0.9425	0.0262	0.2342	0.376
Mof_C 	C 	0.7998	0.9567	0.9019	0.511
Mof_C 	C 	0.6809	0.9535	0.8549	-0.164
Mof_C 	C 	0.5986	0.9515	0.9007	0.057
Mof_H 	H 	0.6182	0.9507	0.9586	0.01
Mof_C 	C 	0.4898	0.9508	0.8593	-0.116
Mof_H 	H 	0.4358	0.95	0.8896	0.07
Mof_C 	C 	0.4587	0.9512	0.7727	0.017
Mof_C 	C 	0.6533	0.9526	0.7717	0.006
Mof_H 	H 	0.7085	0.9528	0.7423	0.03
Mof_C 	C 	0.8637	0.079	0.0556	0.482
Mof_C 	C 	0.8138	0.1425	0.0435	-0.164
Mof_C 	C 	0.8244	0.1798	0.9799	0.013
Mof_H 	H 	0.8632	0.1657	0.9419	-0.013
Mof_C 	C 	0.7788	0.2387	0.9701	0
Mof_C 	C 	0.7093	0.221	0.0943	-0.1
Mof_H 	H 	0.6696	0.2341	0.1323	0.051
Mof_C 	C 	0.7543	0.1631	0.1026	0.035
Mof_H 	H 	0.7462	0.1377	0.146	0.015
Mof_C 	C 	0.8161	0.9006	0.2408	0.596
Mof_C 	C 	0.6494	0.893	0.2978	0.037
Mof_H 	H 	0.6957	0.892	0.3509	0.014
Mof_C 	C 	0.6938	0.8949	0.2311	-0.214
Mof_C 	C 	0.6243	0.8956	0.1515	0.097
Mof_H 	H 	0.6539	0.898	0.105	-0.013
Mof_C 	C 	0.5131	0.8927	0.1419	-0.137
Mof_H 	H 	0.4676	0.8909	0.0886	0.072
Mof_C 	C 	0.4659	0.8925	0.2106	0.016
Mof_Ce	Ce	0.47106	0.45262	0.09979	2.823
Mof_O 	O 	0.3218	0.4416	0.977	-0.654
Mof_O 	O 	0.3693	0.4766	0.8625	-0.612
Mof_O 	O 	0.3431	0.5445	0.1089	-0.557
Mof_O 	O 	0.4255	0.5621	0.0082	-0.746
Mof_O 	O 	0.3467	0.4121	0.1753	-0.67
Mof_O 	O 	0.3791	0.3934	0.3103	-0.64
Mof_H 	H 	0.4425	0.5262	0.2342	0.398
Mof_C 	C 	0.2998	0.4567	0.9019	0.523
Mof_C 	C 	0.1809	0.4535	0.8549	-0.186
Mof_C 	C 	0.0986	0.4515	0.9007	0.094
Mof_H 	H 	0.1182	0.4507	0.9586	-0.005
Mof_C 	C 	0.9898	0.4508	0.8593	-0.153
Mof_H 	H 	0.9358	0.45	0.8896	0.081
Mof_C 	C 	0.9587	0.4512	0.7727	0.028
Mof_C 	C 	0.1533	0.4526	0.7717	0.026
Mof_H 	H 	0.2085	0.4528	0.7423	0.023
Mof_C 	C 	0.3637	0.579	0.0556	0.488
Mof_C 	C 	0.3138	0.6425	0.0435	-0.174
Mof_C 	C 	0.3244	0.6798	0.9799	0.026
Mof_H 	H 	0.3632	0.6657	0.9419	-0.016
Mof_C 	C 	0.2788	0.7387	0.9701	-0.003
Mof_C 	C 	0.2093	0.721	0.0943	-0.108
Mof_H 	H 	0.1696	0.7341	0.1323	0.057
Mof_C 	C 	0.2543	0.6631	0.1026	0.043
Mof_H 	H 	0.2462	0.6377	0.146	0.014
Mof_C 	C 	0.3161	0.4006	0.2408	0.558
Mof_C 	C 	0.1494	0.393	0.2978	-0.109
Mof_H 	H 	0.1957	0.392	0.3509	0.065
Mof_C 	C 	0.1938	0.3949	0.2311	-0.099
Mof_C 	C 	0.1243	0.3956	0.1515	-0.059
Mof_H 	H 	0.1539	0.398	0.105	0.048
Mof_C 	C 	0.0131	0.3927	0.1419	0.085
Mof_H 	H 	0.9676	0.3909	0.0886	-0.014
Mof_C 	C 	0.9659	0.3925	0.2106	-0.188
Mof_Ce	Ce	0.02894	0.95262	0.40021	2.866
Mof_O 	O 	0.1782	0.9416	0.523	-0.651
Mof_O 	O 	0.1307	0.9766	0.6375	-0.599
Mof_O 	O 	0.1569	0.0445	0.3911	-0.557
Mof_O 	O 	0.0745	0.0621	0.4918	-0.735
Mof_O 	O 	0.1533	0.9121	0.3247	-0.682
Mof_O 	O 	0.1209	0.8934	0.1897	-0.635
Mof_H 	H 	0.0575	0.0262	0.2658	0.387
Mof_C 	C 	0.2002	0.9567	0.5981	0.517
Mof_C 	C 	0.3191	0.9535	0.6451	-0.169
Mof_C 	C 	0.4014	0.9515	0.5993	0.062
Mof_H 	H 	0.3818	0.9507	0.5414	0.006
Mof_C 	C 	0.5102	0.9508	0.6407	-0.121
Mof_H 	H 	0.5642	0.95	0.6104	0.071
Mof_C 	C 	0.5413	0.9512	0.7273	0.021
Mof_C 	C 	0.3467	0.9526	0.7283	0.01
Mof_H 	H 	0.2915	0.9528	0.7577	0.029
Mof_C 	C 	0.1363	0.079	0.4444	0.484
Mof_C 	C 	0.1862	0.1425	0.4565	-0.165
Mof_C 	C 	0.1756	0.1798	0.5201	0.02
Mof_H 	H 	0.1368	0.1657	0.5581	-0.01
Mof_C 	C 	0.2212	0.2387	0.5299	0.004
Mof_C 	C 	0.2907	0.221	0.4057	-0.1
Mof_H 	H 	0.3304	0.2341	0.3677	0.052
Mof_C 	C 	0.2457	0.1631	0.3974	0.037
Mof_H 	H 	0.2538	0.1377	0.354	0.016
Mof_C 	C 	0.1839	0.9006	0.2592	0.595
Mof_C 	C 	0.3506	0.893	0.2022	0.035
Mof_H 	H 	0.3043	0.892	0.1491	0.015
Mof_C 	C 	0.3062	0.8949	0.2689	-0.212
Mof_C 	C 	0.3757	0.8956	0.3485	0.097
Mof_H 	H 	0.3461	0.898	0.395	-0.011
Mof_C 	C 	0.4869	0.8927	0.3581	-0.135
Mof_H 	H 	0.5324	0.8909	0.4114	0.073
Mof_C 	C 	0.5341	0.8925	0.2894	0.015
Mof_Ce	Ce	0.52894	0.45262	0.40021	2.818
Mof_O 	O 	0.6782	0.4416	0.523	-0.647
Mof_O 	O 	0.6307	0.4766	0.6375	-0.608
Mof_O 	O 	0.6569	0.5445	0.3911	-0.557
Mof_O 	O 	0.5745	0.5621	0.4918	-0.745
Mof_O 	O 	0.6533	0.4121	0.3247	-0.691
Mof_O 	O 	0.6209	0.3934	0.1897	-0.661
Mof_H 	H 	0.5575	0.5262	0.2658	0.398
Mof_C 	C 	0.7002	0.4567	0.5981	0.51
Mof_C 	C 	0.8191	0.4535	0.6451	-0.151
Mof_C 	C 	0.9014	0.4515	0.5993	0.021
Mof_H 	H 	0.8818	0.4507	0.5414	0.019
Mof_C 	C 	0.0102	0.4508	0.6407	-0.079
Mof_H 	H 	0.0642	0.45	0.6104	0.059
Mof_C 	C 	0.0413	0.4512	0.7273	0.007
Mof_C 	C 	0.8467	0.4526	0.7283	-0.009
Mof_H 	H 	0.7915	0.4528	0.7577	0.034
Mof_C 	C 	0.6363	0.579	0.4444	0.487
Mof_C 	C 	0.6862	0.6425	0.4565	-0.169
Mof_C 	C 	0.6756	0.6798	0.5201	0.023
Mof_H 	H 	0.6368	0.6657	0.5581	-0.013
Mof_C 	C 	0.7212	0.7387	0.5299	0.002
Mof_C 	C 	0.7907	0.721	0.4057	-0.101
Mof_H 	H 	0.8304	0.7341	0.3677	0.049
Mof_C 	C 	0.7457	0.6631	0.3974	0.037
Mof_H 	H 	0.7538	0.6377	0.354	0.014
Mof_C 	C 	0.6839	0.4006	0.2592	0.639
Mof_C 	C 	0.8506	0.393	0.2022	0.184
Mof_H 	H 	0.8043	0.392	0.1491	-0.036
Mof_C 	C 	0.8062	0.3949	0.2689	-0.325
Mof_C 	C 	0.8757	0.3956	0.3485	0.25
Mof_H 	H 	0.8461	0.398	0.395	-0.066
Mof_C 	C 	0.9869	0.3927	0.3581	-0.344
Mof_H 	H 	0.0324	0.3909	0.4114	0.156
Mof_C 	C 	0.0341	0.3925	0.2894	0.218
Mof_Ce	Ce	0.02894	0.04738	0.90021	2.813
Mof_O 	O 	0.1782	0.0584	0.023	-0.637
Mof_O 	O 	0.1307	0.0234	0.1375	-0.589
Mof_O 	O 	0.1569	0.9555	0.8911	-0.55
Mof_O 	O 	0.0745	0.9379	0.9918	-0.724
Mof_O 	O 	0.1533	0.0879	0.8247	-0.68
Mof_O 	O 	0.1209	0.1066	0.6897	-0.64
Mof_H 	H 	0.0575	0.9738	0.7658	0.39
Mof_C 	C 	0.2002	0.0433	0.0981	0.511
Mof_C 	C 	0.3191	0.0465	0.1451	-0.163
Mof_C 	C 	0.4014	0.0485	0.0993	0.057
Mof_H 	H 	0.3818	0.0493	0.0414	0.011
Mof_C 	C 	0.5102	0.0492	0.1407	-0.116
Mof_H 	H 	0.5642	0.05	0.1104	0.071
Mof_C 	C 	0.5413	0.0488	0.2273	0.017
Mof_C 	C 	0.3467	0.0474	0.2283	0.006
Mof_H 	H 	0.2915	0.0472	0.2577	0.031
Mof_C 	C 	0.1363	0.921	0.9444	0.478
Mof_C 	C 	0.1862	0.8575	0.9565	-0.158
Mof_C 	C 	0.1756	0.8202	0.0201	0.012
Mof_H 	H 	0.1368	0.8343	0.0581	-0.006
Mof_C 	C 	0.2212	0.7613	0.0299	0.007
Mof_C 	C 	0.2907	0.779	0.9057	-0.097
Mof_H 	H 	0.3304	0.7659	0.8677	0.051
Mof_C 	C 	0.2457	0.8369	0.8974	0.033
Mof_H 	H 	0.2538	0.8623	0.854	0.018
Mof_C 	C 	0.1839	0.0994	0.7592	0.595
Mof_C 	C 	0.3506	0.107	0.7022	0.036
Mof_H 	H 	0.3043	0.108	0.6491	0.015
Mof_C 	C 	0.3062	0.1051	0.7689	-0.212
Mof_C 	C 	0.3757	0.1044	0.8485	0.096
Mof_H 	H 	0.3461	0.102	0.895	-0.013
Mof_C 	C 	0.4869	0.1073	0.8581	-0.136
Mof_H 	H 	0.5324	0.1091	0.9114	0.071
Mof_C 	C 	0.5341	0.1075	0.7894	0.015
Mof_Ce	Ce	0.52894	0.54738	0.90021	2.819
Mof_O 	O 	0.6782	0.5584	0.023	-0.648
Mof_O 	O 	0.6307	0.5234	0.1375	-0.608
Mof_O 	O 	0.6569	0.4555	0.8911	-0.557
Mof_O 	O 	0.5745	0.4379	0.9918	-0.747
Mof_O 	O 	0.6533	0.5879	0.8247	-0.688
Mof_O 	O 	0.6209	0.6066	0.6897	-0.658
Mof_H 	H 	0.5575	0.4738	0.7658	0.398
Mof_C 	C 	0.7002	0.5433	0.0981	0.509
Mof_C 	C 	0.8191	0.5465	0.1451	-0.147
Mof_C 	C 	0.9014	0.5485	0.0993	0.009
Mof_H 	H 	0.8818	0.5493	0.0414	0.021
Mof_C 	C 	0.0102	0.5492	0.1407	-0.067
Mof_H 	H 	0.0642	0.55	0.1104	0.056
Mof_C 	C 	0.0413	0.5488	0.2273	0.006
Mof_C 	C 	0.8467	0.5474	0.2283	-0.013
Mof_H 	H 	0.7915	0.5472	0.2577	0.035
Mof_C 	C 	0.6363	0.421	0.9444	0.489
Mof_C 	C 	0.6862	0.3575	0.9565	-0.174
Mof_C 	C 	0.6756	0.3202	0.0201	0.029
Mof_H 	H 	0.6368	0.3343	0.0581	-0.014
Mof_C 	C 	0.7212	0.2613	0.0299	0
Mof_C 	C 	0.7907	0.279	0.9057	-0.105
Mof_H 	H 	0.8304	0.2659	0.8677	0.051
Mof_C 	C 	0.7457	0.3369	0.8974	0.041
Mof_H 	H 	0.7538	0.3623	0.854	0.013
Mof_C 	C 	0.6839	0.5994	0.7592	0.628
Mof_C 	C 	0.8506	0.607	0.7022	0.145
Mof_H 	H 	0.8043	0.608	0.6491	-0.022
Mof_C 	C 	0.8062	0.6051	0.7689	-0.295
Mof_C 	C 	0.8757	0.6044	0.8485	0.209
Mof_H 	H 	0.8461	0.602	0.895	-0.051
Mof_C 	C 	0.9869	0.6073	0.8581	-0.287
Mof_H 	H 	0.0324	0.6091	0.9114	0.133
Mof_C 	C 	0.0341	0.6075	0.7894	0.164
Mof_Ce	Ce	0.97106	0.04738	0.59979	2.76
Mof_O 	O 	0.8218	0.0584	0.477	-0.646
Mof_O 	O 	0.8693	0.0234	0.3625	-0.617
Mof_O 	O 	0.8431	0.9555	0.6089	-0.554
Mof_O 	O 	0.9255	0.9379	0.5082	-0.754
Mof_O 	O 	0.8467	0.0879	0.6753	-0.677
Mof_O 	O 	0.8791	0.1066	0.8103	-0.654
Mof_H 	H 	0.9425	0.9738	0.7342	0.379
Mof_C 	C 	0.7998	0.0433	0.4019	0.517
Mof_C 	C 	0.6809	0.0465	0.3549	-0.17
Mof_C 	C 	0.5986	0.0485	0.4007	0.061
Mof_H 	H 	0.6182	0.0493	0.4586	0.007
Mof_C 	C 	0.4898	0.0492	0.3593	-0.121
Mof_H 	H 	0.4358	0.05	0.3896	0.071
Mof_C 	C 	0.4587	0.0488	0.2727	0.021
Mof_C 	C 	0.6533	0.0474	0.2717	0.011
Mof_H 	H 	0.7085	0.0472	0.2423	0.028
Mof_C 	C 	0.8637	0.921	0.5556	0.489
Mof_C 	C 	0.8138	0.8575	0.5435	-0.175
Mof_C 	C 	0.8244	0.8202	0.4799	0.026
Mof_H 	H 	0.8632	0.8343	0.4419	-0.018
Mof_C 	C 	0.7788	0.7613	0.4701	-0.003
Mof_C 	C 	0.7093	0.779	0.5943	-0.106
Mof_H 	H 	0.6696	0.7659	0.6323	0.053
Mof_C 	C 	0.7543	0.8369	0.6026	0.041
Mof_H 	H 	0.7462	0.8623	0.646	0.013
Mof_C 	C 	0.8161	0.0994	0.7408	0.595
Mof_C 	C 	0.6494	0.107	0.7978	0.037
Mof_H 	H 	0.6957	0.108	0.8509	0.014
Mof_C 	C 	0.6938	0.1051	0.7311	-0.213
Mof_C 	C 	0.6243	0.1044	0.6515	0.097
Mof_H 	H 	0.6539	0.102	0.605	-0.011
Mof_C 	C 	0.5131	0.1073	0.6419	-0.136
Mof_H 	H 	0.4676	0.1091	0.5886	0.073
Mof_C 	C 	0.4659	0.1075	0.7106	0.016
Mof_Ce	Ce	0.47106	0.54738	0.59979	2.818
Mof_O 	O 	0.3218	0.5584	0.477	-0.651
Mof_O 	O 	0.3693	0.5234	0.3625	-0.612
Mof_O 	O 	0.3431	0.4555	0.6089	-0.557
Mof_O 	O 	0.4255	0.4379	0.5082	-0.746
Mof_O 	O 	0.3467	0.5879	0.6753	-0.673
Mof_O 	O 	0.3791	0.6066	0.8103	-0.642
Mof_H 	H 	0.4425	0.4738	0.7342	0.398
Mof_C 	C 	0.2998	0.5433	0.4019	0.525
Mof_C 	C 	0.1809	0.5465	0.3549	-0.19
Mof_C 	C 	0.0986	0.5485	0.4007	0.107
Mof_H 	H 	0.1182	0.5493	0.4586	-0.007
Mof_C 	C 	0.9898	0.5492	0.3593	-0.165
Mof_H 	H 	0.9358	0.55	0.3896	0.084
Mof_C 	C 	0.9587	0.5488	0.2727	0.03
Mof_C 	C 	0.1533	0.5474	0.2717	0.03
Mof_H 	H 	0.2085	0.5472	0.2423	0.021
Mof_C 	C 	0.3637	0.421	0.5556	0.487
Mof_C 	C 	0.3138	0.3575	0.5435	-0.173
Mof_C 	C 	0.3244	0.3202	0.4799	0.024
Mof_H 	H 	0.3632	0.3343	0.4419	-0.016
Mof_C 	C 	0.2788	0.2613	0.4701	-0.002
Mof_C 	C 	0.2093	0.279	0.5943	-0.105
Mof_H 	H 	0.1696	0.2659	0.6323	0.055
Mof_C 	C 	0.2543	0.3369	0.6026	0.041
Mof_H 	H 	0.2462	0.3623	0.646	0.014
Mof_C 	C 	0.3161	0.5994	0.7408	0.568
Mof_C 	C 	0.1494	0.607	0.7978	-0.07
Mof_H 	H 	0.1957	0.608	0.8509	0.051
Mof_C 	C 	0.1938	0.6051	0.7311	-0.129
Mof_C 	C 	0.1243	0.6044	0.6515	-0.019
Mof_H 	H 	0.1539	0.602	0.605	0.032
Mof_C 	C 	0.0131	0.6073	0.6419	0.028
Mof_H 	H 	0.9676	0.6091	0.5886	0.008
Mof_C 	C 	0.9659	0.6075	0.7106	-0.135
Mof_O 	O 	1.53082e-33	0.0043	0.25	-1.063
Mof_O 	O 	0.5	0.5043	0.25	-1.107
Mof_O 	O 	-2.60797e-17	0.9957	0.75	-1.069
Mof_O 	O 	0.5	0.4957	0.75	-1.107
_end
