data_functionalizedCrystal
_audit_creation_method	'EQeq! by Chris Wilmer'
_symmetry_space_group_name_H-M	'P1'
_symmetry_Int_Tables_number	1
_symmetry_cell_setting	triclinic
loop_
_symmetry_equiv_pos_as_xyz
  x,y,z
_cell_length_a	11.693
_cell_length_b	11.994
_cell_length_c	13.753
_cell_angle_alpha	92.97
_cell_angle_beta	114.36
_cell_angle_gamma	108.354
loop_
_atom_site_label
_atom_site_type_symbol
_atom_site_fract_x
_atom_site_fract_y
_atom_site_fract_z
_atom_site_charge
Mof_Mn	Mn	0.8926	0.27154	0.04643	0.576
Mof_Mn	Mn	0.1074	0.72846	0.95357	0.575
Mof_Mn	Mn	-0	0	-0	0.636
Mof_H 	H 	0.3232	0.5616	0.9625	-0.005
Mof_H 	H 	0.4898	0.3182	0.0514	0.018
Mof_H 	H 	0.8864	0.1262	0.4298	0.064
Mof_H 	H 	0.0978	0.9293	0.4079	0.068
Mof_H 	H 	0.641	0.894	0.5632	0.037
Mof_H 	H 	0.4909	0.1316	0.622	0.031
Mof_H 	H 	0.6768	0.4384	0.0375	0.055
Mof_H 	H 	0.5102	0.6818	0.9486	0.084
Mof_H 	H 	0.1136	0.8738	0.5702	0.038
Mof_H 	H 	0.9022	0.0707	0.5921	0.045
Mof_H 	H 	0.359	0.106	0.4368	0.076
Mof_H 	H 	0.5091	0.8684	0.378	0.073
Mof_C 	C 	0.2665	0.3511	0.0185	0.132
Mof_C 	C 	0.3865	0.4294	0.01	-0.098
Mof_C 	C 	0.3952	0.5362	0.9784	0.069
Mof_C 	C 	0.4932	0.3915	0.0311	0.028
Mof_C 	C 	0.9743	0.0606	0.2962	0.081
Mof_C 	C 	0.9886	0.0308	0.401	0.032
Mof_C 	C 	0.9316	0.075	0.4576	-0.08
Mof_C 	C 	0.0577	0.9575	0.4445	-0.088
Mof_C 	C 	0.6713	0.0396	0.7301	0.115
Mof_C 	C 	0.5813	0.017	0.6128	-0.071
Mof_C 	C 	0.5848	0.9372	0.5385	0.034
Mof_C 	C 	0.4953	0.0786	0.5732	0.012
Mof_C 	C 	0.7335	0.6489	0.9815	0.094
Mof_C 	C 	0.6135	0.5706	0.99	0.077
Mof_C 	C 	0.6048	0.4638	0.0216	-0.139
Mof_C 	C 	0.5068	0.6085	0.9689	-0.131
Mof_C 	C 	0.0257	0.9394	0.7038	0.137
Mof_C 	C 	0.0114	0.9692	0.599	-0.044
Mof_C 	C 	0.0684	0.925	0.5424	-0.01
Mof_C 	C 	0.9423	0.0425	0.5555	-0.001
Mof_C 	C 	0.3287	0.9604	0.2699	0.115
Mof_C 	C 	0.4187	0.983	0.3872	0.057
Mof_C 	C 	0.4152	0.0628	0.4615	-0.129
Mof_C 	C 	0.5047	0.9214	0.4268	-0.101
Mof_N 	N 	0.1752	0.3886	0.029	-0.128
Mof_N 	N 	0.0831	0.2892	0.0307	-0.124
Mof_N 	N 	0.1191	0.1968	0.0212	-0.11
Mof_N 	N 	0.2341	0.2339	0.0134	-0.107
Mof_N 	N 	0.9856	0.9934	0.2225	-0.06
Mof_N 	N 	0.9656	0.0507	0.1396	-0.113
Mof_N 	N 	0.9455	0.1493	0.163	-0.111
Mof_N 	N 	0.9491	0.1576	0.2612	-0.099
Mof_N 	N 	0.6973	0.1335	0.8017	-0.106
Mof_N 	N 	0.7875	0.1243	0.8962	-0.103
Mof_N 	N 	0.8127	0.0262	0.8809	-0.097
Mof_N 	N 	0.7389	0.9698	0.7765	-0.069
Mof_N 	N 	0.8248	0.6114	0.971	-0.102
Mof_N 	N 	0.9169	0.7108	0.9693	-0.095
Mof_N 	N 	0.8809	0.8032	0.9788	-0.08
Mof_N 	N 	0.7659	0.7661	0.9866	-0.083
Mof_N 	N 	0.0144	0.0066	0.7775	-0.121
Mof_N 	N 	0.0344	0.9493	0.8604	-0.091
Mof_N 	N 	0.0545	0.8507	0.837	-0.113
Mof_N 	N 	0.0509	0.8424	0.7388	-0.111
Mof_N 	N 	0.3027	0.8665	0.1983	-0.111
Mof_N 	N 	0.2125	0.8757	0.1038	-0.12
Mof_N 	N 	0.1873	0.9738	0.1191	-0.089
Mof_N 	N 	0.2611	0.0302	0.2235	-0.119
_end
