data_functionalizedCrystal
_audit_creation_method	'EQeq! by Chris Wilmer'
_symmetry_space_group_name_H-M	'P1'
_symmetry_Int_Tables_number	1
_symmetry_cell_setting	triclinic
loop_
_symmetry_equiv_pos_as_xyz
  x,y,z
_cell_length_a	9.4778
_cell_length_b	11.0657
_cell_length_c	12.6936
_cell_angle_alpha	101.544
_cell_angle_beta	92.0654
_cell_angle_gamma	100.591
loop_
_atom_site_label
_atom_site_type_symbol
_atom_site_fract_x
_atom_site_fract_y
_atom_site_fract_z
_atom_site_charge
Mof_Ni	Ni	0.16762	0.26634	0.45472	1.122
Mof_O 	O 	0.17891	0.3375	0.33319	-0.429
Mof_O 	O 	0.94241	0.32701	0.34025	-0.411
Mof_O 	O 	0.98271	0.42277	0.57072	-0.421
Mof_O 	O 	0.84994	0.1353	0.39358	-0.502
Mof_N 	N 	0.39763	0.27416	0.46495	-0.161
Mof_C 	C 	0.47585	0.38077	0.55282	-0.025
Mof_C 	C 	0.43346	0.15698	0.49226	-0.04
Mof_C 	C 	0.4619	0.28903	0.36587	-0.024
Mof_C 	C 	0.05472	0.33326	0.28688	0.33
Mof_C 	C 	0.02585	0.307	0.1688	-0.11
Mof_C 	C 	0.13788	0.30878	0.09943	0.011
Mof_C 	C 	0.10805	0.28107	0.98662	-0.02
Mof_C 	C 	0.21885	0.27357	0.91693	-0.053
Mof_C 	C 	0.88354	0.28607	0.12371	0.045
Mof_C 	C 	0.10459	0.47049	0.54628	0.276
Mof_C 	C 	0.09296	0.59148	0.51038	-0.098
Mof_C 	C 	0.97726	0.6469	0.53471	0.01
Mof_C 	C 	0.96685	0.75185	0.49904	0.028
Mof_C 	C 	0.84413	0.80617	0.51735	-0.053
Mof_C 	C 	0.21003	0.64331	0.46055	0.01
Mof_Ni	Ni	0.9048	0.27367	0.47709	1.133
Mof_O 	O 	0.89928	0.20551	0.59732	-0.425
Mof_O 	O 	0.13389	0.20893	0.58925	-0.431
Mof_O 	O 	0.07654	0.11792	0.35972	-0.473
Mof_O 	O 	0.20942	0.40232	0.54307	-0.465
Mof_N 	N 	0.68241	0.27989	0.47625	-0.162
Mof_C 	C 	0.63982	0.38541	0.56091	-0.037
Mof_C 	C 	0.59511	0.16591	0.49853	-0.021
Mof_C 	C 	0.62228	0.2949	0.37034	-0.034
Mof_C 	C 	0.02195	0.20694	0.64311	0.332
Mof_C 	C 	0.04759	0.23516	0.7609	-0.104
Mof_C 	C 	0.93504	0.23866	0.83009	0.009
Mof_C 	C 	0.96457	0.26022	0.94254	0.028
Mof_C 	C 	0.85347	0.26307	0.01186	-0.05
Mof_C 	C 	0.18887	0.25014	0.80551	0.016
Mof_C 	C 	0.95221	0.08188	0.38866	0.367
Mof_C 	C 	0.94533	0.95598	0.42108	-0.071
Mof_C 	C 	0.06543	0.90795	0.40294	-0.027
Mof_C 	C 	0.08061	0.80479	0.44328	-0.004
Mof_C 	C 	0.20049	0.74998	0.42246	-0.051
Mof_C 	C 	0.83122	0.90868	0.47533	0.016
Mof_H 	H 	0.24731	0.32445	0.13339	0.04
Mof_H 	H 	0.32876	0.2859	0.94832	0.04
Mof_H 	H 	0.79504	0.28629	0.1747	0.037
Mof_H 	H 	0.8254	0.22791	0.79666	0.041
Mof_H 	H 	0.74303	0.243	0.97901	0.038
Mof_H 	H 	0.27664	0.2458	0.75412	0.039
Mof_H 	H 	0.89144	0.60419	0.58449	0.042
Mof_H 	H 	0.75691	0.76471	0.56671	0.04
Mof_H 	H 	0.30869	0.59768	0.4525	0.034
Mof_H 	H 	0.15169	0.95324	0.35486	0.049
Mof_H 	H 	0.28977	0.79176	0.37486	0.039
Mof_H 	H 	0.73298	0.95489	0.48321	0.034
Mof_H 	H 	0.43175	0.36886	0.63328	0.048
Mof_H 	H 	0.45701	0.47402	0.53559	0.047
Mof_H 	H 	0.38063	0.07214	0.4273	0.03
Mof_H 	H 	0.39154	0.14542	0.57344	0.038
Mof_H 	H 	0.43893	0.3791	0.34436	0.043
Mof_H 	H 	0.41147	0.20615	0.29831	0.036
Mof_H 	H 	0.69802	0.48042	0.54791	0.034
Mof_H 	H 	0.67305	0.37467	0.64524	0.041
Mof_H 	H 	0.63097	0.15647	0.58271	0.041
Mof_H 	H 	0.61484	0.08056	0.43817	0.048
Mof_H 	H 	0.647	0.21735	0.30399	0.051
Mof_H 	H 	0.6753	0.38997	0.35428	0.039
_end
