data_functionalizedCrystal
_audit_creation_method	'EQeq! by Chris Wilmer'
_symmetry_space_group_name_H-M	'P1'
_symmetry_Int_Tables_number	1
_symmetry_cell_setting	triclinic
loop_
_symmetry_equiv_pos_as_xyz
  x,y,z
_cell_length_a	7.7119
_cell_length_b	13.4745
_cell_length_c	25.1892
_cell_angle_alpha	90
_cell_angle_beta	90
_cell_angle_gamma	106.629
loop_
_atom_site_label
_atom_site_type_symbol
_atom_site_fract_x
_atom_site_fract_y
_atom_site_fract_z
_atom_site_charge
Mof_Cu	Cu	0.5	0.5	0.5	0.872
Mof_Cu	Cu	0.5	0.5	-0	0.853
Mof_Cu	Cu	-0	0.5	-0	0.836
Mof_Cu	Cu	-4.94334e-17	0.5	0.5	0.853
Mof_H 	H 	0.0338	0.6928	0.7034	0.008
Mof_H 	H 	0.4946	0.5816	0.7038	0.051
Mof_H 	H 	0.3549	0.0906	0.4444	0.048
Mof_H 	H 	0.9662	0.3072	0.2034	0.096
Mof_H 	H 	0.5054	0.4184	0.2038	0.055
Mof_H 	H 	0.6451	0.9094	0.9444	0.054
Mof_H 	H 	0.341	0.3072	0.7966	0.057
Mof_H 	H 	0.913	0.4184	0.7962	0.097
Mof_H 	H 	0.2643	0.9094	0.0556	0.043
Mof_H 	H 	0.659	0.6928	0.2966	0.051
Mof_H 	H 	0.087	0.5816	0.2962	0.01
Mof_H 	H 	0.7357	0.0906	0.5556	0.059
Mof_H 	H 	0.9662	0.3072	0.2966	0.098
Mof_H 	H 	0.5054	0.4184	0.2962	0.056
Mof_H 	H 	0.6451	0.9094	0.5556	0.059
Mof_H 	H 	0.0338	0.6928	0.7966	0.011
Mof_H 	H 	0.4946	0.5816	0.7962	0.053
Mof_H 	H 	0.3549	0.0906	0.0556	0.044
Mof_H 	H 	0.659	0.6928	0.2034	0.05
Mof_H 	H 	0.087	0.5816	0.2038	0.009
Mof_H 	H 	0.7357	0.0906	0.9444	0.054
Mof_H 	H 	0.341	0.3072	0.7034	0.054
Mof_H 	H 	0.913	0.4184	0.7038	0.096
Mof_H 	H 	0.2643	0.9094	0.4444	0.047
Mof_C 	C 	0.61646	0.59032	0.60735	0.045
Mof_C 	C 	0.76477	0.61774	0.63785	-0.047
Mof_C 	C 	0.90749	0.61078	0.6083	0.069
Mof_C 	C 	0.76569	0.63198	0.69516	0.027
Mof_C 	C 	0.92304	0.66768	0.72218	-0.009
Mof_C 	C 	0.60596	0.60232	0.72257	-0.056
Mof_C 	C 	0.4975	0.2796	0.49999	0.046
Mof_C 	C 	0.41442	0.05364	0.4671	-0.054
Mof_C 	C 	0.38354	0.40968	0.10735	0.044
Mof_C 	C 	0.23523	0.38226	0.13785	-0.059
Mof_C 	C 	0.09251	0.38922	0.1083	0.02
Mof_C 	C 	0.23431	0.36802	0.19516	0.055
Mof_C 	C 	0.07696	0.33232	0.22218	-0.114
Mof_C 	C 	0.39404	0.39768	0.22257	-0.066
Mof_C 	C 	0.5025	0.7204	0.99999	0.105
Mof_C 	C 	0.58558	0.94636	0.9671	-0.028
Mof_C 	C 	0.02614	0.40968	0.89265	0.027
Mof_C 	C 	0.14703	0.38226	0.86215	-0.062
Mof_C 	C 	0.29671	0.38922	0.8917	0.054
Mof_C 	C 	0.13371	0.36802	0.80484	0.058
Mof_C 	C 	0.25536	0.33232	0.77782	-0.071
Mof_C 	C 	0.00364	0.39768	0.77743	-0.115
Mof_C 	C 	0.2179	0.7204	1e-05	0.026
Mof_C 	C 	0.36078	0.94636	0.0329	-0.068
Mof_C 	C 	0.97386	0.59032	0.39265	0.071
Mof_C 	C 	0.85297	0.61774	0.36215	-0.049
Mof_C 	C 	0.70329	0.61078	0.3917	0.047
Mof_C 	C 	0.86629	0.63198	0.30484	0.031
Mof_C 	C 	0.74464	0.66768	0.27782	-0.06
Mof_C 	C 	0.99636	0.60232	0.27743	-0.012
Mof_C 	C 	0.7821	0.2796	0.50001	0.067
Mof_C 	C 	0.63922	0.05364	0.5329	-0.053
Mof_C 	C 	0.38354	0.40968	0.39265	0.047
Mof_C 	C 	0.23523	0.38226	0.36215	-0.061
Mof_C 	C 	0.09251	0.38922	0.3917	0.026
Mof_C 	C 	0.23431	0.36802	0.30484	0.058
Mof_C 	C 	0.07696	0.33232	0.27782	-0.117
Mof_C 	C 	0.39404	0.39768	0.27743	-0.068
Mof_C 	C 	0.5025	0.7204	0.50001	0.051
Mof_C 	C 	0.58558	0.94636	0.5329	-0.067
Mof_C 	C 	0.61646	0.59032	0.89265	0.049
Mof_C 	C 	0.76477	0.61774	0.86215	-0.05
Mof_C 	C 	0.90749	0.61078	0.8917	0.076
Mof_C 	C 	0.76569	0.63198	0.80484	0.032
Mof_C 	C 	0.92304	0.66768	0.77782	-0.015
Mof_C 	C 	0.60596	0.60232	0.77743	-0.06
Mof_C 	C 	0.4975	0.2796	1e-05	0.041
Mof_C 	C 	0.41442	0.05364	0.0329	-0.053
Mof_C 	C 	0.97386	0.59032	0.10735	0.068
Mof_C 	C 	0.85297	0.61774	0.13785	-0.047
Mof_C 	C 	0.70329	0.61078	0.1083	0.041
Mof_C 	C 	0.86629	0.63198	0.19516	0.028
Mof_C 	C 	0.74464	0.66768	0.22218	-0.057
Mof_C 	C 	0.99636	0.60232	0.22257	-0.01
Mof_C 	C 	0.7821	0.2796	0.99999	0.121
Mof_C 	C 	0.63922	0.05364	0.9671	-0.015
Mof_C 	C 	0.02614	0.40968	0.60735	0.022
Mof_C 	C 	0.14703	0.38226	0.63785	-0.059
Mof_C 	C 	0.29671	0.38922	0.6083	0.047
Mof_C 	C 	0.13371	0.36802	0.69516	0.054
Mof_C 	C 	0.25536	0.33232	0.72218	-0.067
Mof_C 	C 	0.00364	0.39768	0.72257	-0.112
Mof_C 	C 	0.2179	0.7204	0.49999	0.031
Mof_C 	C 	0.36078	0.94636	0.4671	-0.07
Mof_C 	C 	0.60916	0.21832	0.5	-0.054
Mof_C 	C 	0.55292	0.10584	0.5	0.041
Mof_C 	C 	0.39084	0.78168	-0	-0.093
Mof_C 	C 	0.44708	0.89416	-0	0.01
Mof_C 	C 	0.39084	0.78168	0.5	-0.051
Mof_C 	C 	0.44708	0.89416	0.5	0.044
Mof_C 	C 	0.60916	0.21832	-0	-0.096
Mof_C 	C 	0.55292	0.10584	-0	0.008
Mof_N 	N 	0.66849	0.56678	0.56019	-0.185
Mof_N 	N 	0.84816	0.57952	0.56031	-0.15
Mof_N 	N 	0.6002	0.3762	0.49998	-0.187
Mof_N 	N 	0.33151	0.43322	0.06019	-0.192
Mof_N 	N 	0.15184	0.42048	0.06031	-0.168
Mof_N 	N 	0.3998	0.6238	0.99998	-0.171
Mof_N 	N 	0.10171	0.43322	0.93981	-0.181
Mof_N 	N 	0.26864	0.42048	0.93969	-0.149
Mof_N 	N 	0.224	0.6238	2e-05	-0.211
Mof_N 	N 	0.89829	0.56678	0.43981	-0.178
Mof_N 	N 	0.73136	0.57952	0.43969	-0.155
Mof_N 	N 	0.776	0.3762	0.50002	-0.18
Mof_N 	N 	0.33151	0.43322	0.43981	-0.188
Mof_N 	N 	0.15184	0.42048	0.43969	-0.162
Mof_N 	N 	0.3998	0.6238	0.50002	-0.189
Mof_N 	N 	0.66849	0.56678	0.93981	-0.176
Mof_N 	N 	0.84816	0.57952	0.93969	-0.141
Mof_N 	N 	0.6002	0.3762	2e-05	-0.206
Mof_N 	N 	0.89829	0.56678	0.06019	-0.183
Mof_N 	N 	0.73136	0.57952	0.06031	-0.162
Mof_N 	N 	0.776	0.3762	0.99998	-0.162
Mof_N 	N 	0.10171	0.43322	0.56019	-0.19
Mof_N 	N 	0.26864	0.42048	0.56031	-0.159
Mof_N 	N 	0.224	0.6238	0.49998	-0.191
_end
