data_functionalizedCrystal
_audit_creation_method	'EQeq! by Chris Wilmer'
_symmetry_space_group_name_H-M	'P1'
_symmetry_Int_Tables_number	1
_symmetry_cell_setting	triclinic
loop_
_symmetry_equiv_pos_as_xyz
  x,y,z
_cell_length_a	16.0984
_cell_length_b	14.607
_cell_length_c	16.1257
_cell_angle_alpha	90
_cell_angle_beta	101.479
_cell_angle_gamma	90
loop_
_atom_site_label
_atom_site_type_symbol
_atom_site_fract_x
_atom_site_fract_y
_atom_site_fract_z
_atom_site_charge
Mof_Cd	Cd	0.45772	0.9318	0.3914	0.498
Mof_Cd	Cd	0.04233	0.06734	0.10863	0.493
Mof_O 	O 	0.14716	0.0354	0.23729	-0.235
Mof_O 	O 	0.05373	0.1449	0.23592	-0.246
Mof_O 	O 	0.40412	0.034	0.47292	-0.272
Mof_O 	O 	0.40564	0.12585	0.58346	-0.246
Mof_O 	O 	0.1673	0.3269	0.59854	-0.241
Mof_O 	O 	0.05363	0.3274	0.49656	-0.232
Mof_O 	O 	0.4437	0.8277	0.50047	-0.249
Mof_O 	O 	0.3303	0.8274	0.4005	-0.225
Mof_O 	O 	0.4448	0.6493	0.7629	-0.251
Mof_O 	O 	0.3529	0.5405	0.76468	-0.26
Mof_O 	O 	0.0944	0.6235	0.41557	-0.261
Mof_O 	O 	0.09422	0.5372	0.524	-0.296
Mof_C 	C 	0.1177	0.1033	0.2709	0.293
Mof_C 	C 	0.1665	0.1336	0.3601	-0.038
Mof_C 	C 	0.1289	0.2004	0.4009	-0.003
Mof_H 	H 	0.0768	0.2249	0.3751	0.073
Mof_C 	C 	0.1679	0.2304	0.4785	-0.046
Mof_C 	C 	0.246	0.1939	0.5152	0.003
Mof_H 	H 	0.2738	0.215	0.5678	0.074
Mof_C 	C 	0.2836	0.1259	0.4744	-0.056
Mof_C 	C 	0.2439	0.0981	0.3957	0.003
Mof_H 	H 	0.2695	0.0552	0.3663	0.077
Mof_C 	C 	0.1291	0.2989	0.5314	0.292
Mof_C 	C 	0.3698	0.0921	0.5127	0.308
Mof_C 	C 	0.3717	0.7984	0.4721	0.306
Mof_C 	C 	0.3294	0.7307	0.5148	-0.083
Mof_C 	C 	0.3718	0.6994	0.6019	0.025
Mof_H 	H 	0.423	0.7259	0.6277	0.065
Mof_C 	C 	0.3388	0.6364	0.6418	-0.065
Mof_C 	C 	0.2597	0.5976	0.6064	0.021
Mof_H 	H 	0.2362	0.5525	0.6354	0.07
Mof_C 	C 	0.2141	0.6295	0.5222	-0.09
Mof_C 	C 	0.2537	0.6915	0.4844	0.048
Mof_H 	H 	0.2262	0.7101	0.4308	0.059
Mof_C 	C 	0.3806	0.6037	0.7311	0.325
Mof_C 	C 	0.1284	0.5918	0.4867	0.357
Mof_Cd	Cd	0.54228	0.4318	0.1086	0.495
Mof_Cd	Cd	0.95767	0.56734	0.39137	0.498
Mof_O 	O 	0.85284	0.5354	0.26271	-0.234
Mof_O 	O 	0.94627	0.6449	0.26408	-0.246
Mof_O 	O 	0.59588	0.534	0.02708	-0.269
Mof_O 	O 	0.59436	0.62585	0.91654	-0.245
Mof_O 	O 	0.8327	0.8269	0.90146	-0.24
Mof_O 	O 	0.94637	0.8274	0.00344	-0.227
Mof_O 	O 	0.5563	0.3277	0.99953	-0.245
Mof_O 	O 	0.6697	0.3274	0.0995	-0.224
Mof_O 	O 	0.5552	0.1493	0.7371	-0.25
Mof_O 	O 	0.6471	0.0405	0.73532	-0.258
Mof_O 	O 	0.9056	0.1235	0.08443	-0.258
Mof_O 	O 	0.90578	0.0372	0.976	-0.288
Mof_C 	C 	0.8823	0.6033	0.2291	0.291
Mof_C 	C 	0.8335	0.6336	0.1399	-0.031
Mof_C 	C 	0.8711	0.7004	0.0991	-0.012
Mof_H 	H 	0.9232	0.7249	0.1249	0.077
Mof_C 	C 	0.8321	0.7304	0.0215	-0.032
Mof_C 	C 	0.754	0.6939	0.9848	-0.012
Mof_H 	H 	0.7262	0.715	0.9322	0.078
Mof_C 	C 	0.7164	0.6259	0.0256	-0.045
Mof_C 	C 	0.7561	0.5981	0.1043	-0.006
Mof_H 	H 	0.7305	0.5552	0.1337	0.08
Mof_C 	C 	0.8709	0.7989	0.9686	0.282
Mof_C 	C 	0.6302	0.5921	0.9873	0.302
Mof_C 	C 	0.6283	0.2984	0.0279	0.296
Mof_C 	C 	0.6706	0.2307	0.9852	-0.068
Mof_C 	C 	0.6282	0.1994	0.8981	0.016
Mof_H 	H 	0.577	0.2259	0.8723	0.068
Mof_C 	C 	0.6612	0.1364	0.8582	-0.056
Mof_C 	C 	0.7403	0.0976	0.8936	0.012
Mof_H 	H 	0.7638	0.0525	0.8646	0.074
Mof_C 	C 	0.7859	0.1295	0.9778	-0.072
Mof_C 	C 	0.7463	0.1915	0.0156	0.026
Mof_H 	H 	0.7738	0.2101	0.0692	0.066
Mof_C 	C 	0.6194	0.1037	0.7689	0.322
Mof_C 	C 	0.8716	0.0918	0.0133	0.342
Mof_Cd	Cd	0.54228	0.0682	0.6086	0.497
Mof_Cd	Cd	0.95767	0.93266	0.89137	0.492
Mof_O 	O 	0.85284	0.9646	0.76271	-0.236
Mof_O 	O 	0.94627	0.8551	0.76408	-0.247
Mof_O 	O 	0.59588	0.966	0.52708	-0.272
Mof_O 	O 	0.59436	0.87415	0.41654	-0.246
Mof_O 	O 	0.8327	0.6731	0.40146	-0.241
Mof_O 	O 	0.94637	0.6726	0.50344	-0.232
Mof_O 	O 	0.5563	0.1723	0.49953	-0.249
Mof_O 	O 	0.6697	0.1726	0.5995	-0.225
Mof_O 	O 	0.5552	0.3507	0.2371	-0.251
Mof_O 	O 	0.6471	0.4595	0.23532	-0.26
Mof_O 	O 	0.9056	0.3765	0.58443	-0.261
Mof_O 	O 	0.90578	0.4628	0.476	-0.296
Mof_C 	C 	0.8823	0.8967	0.7291	0.293
Mof_C 	C 	0.8335	0.8664	0.6399	-0.038
Mof_C 	C 	0.8711	0.7996	0.5991	-0.003
Mof_H 	H 	0.9232	0.7751	0.6249	0.073
Mof_C 	C 	0.8321	0.7696	0.5215	-0.046
Mof_C 	C 	0.754	0.8061	0.4848	0.003
Mof_H 	H 	0.7262	0.785	0.4322	0.074
Mof_C 	C 	0.7164	0.8741	0.5256	-0.056
Mof_C 	C 	0.7561	0.9019	0.6043	0.003
Mof_H 	H 	0.7305	0.9448	0.6337	0.077
Mof_C 	C 	0.8709	0.7011	0.4686	0.292
Mof_C 	C 	0.6302	0.9079	0.4873	0.308
Mof_C 	C 	0.6283	0.2016	0.5279	0.306
Mof_C 	C 	0.6706	0.2693	0.4852	-0.083
Mof_C 	C 	0.6282	0.3006	0.3981	0.025
Mof_H 	H 	0.577	0.2741	0.3723	0.065
Mof_C 	C 	0.6612	0.3636	0.3582	-0.065
Mof_C 	C 	0.7403	0.4024	0.3936	0.021
Mof_H 	H 	0.7638	0.4475	0.3646	0.07
Mof_C 	C 	0.7859	0.3705	0.4778	-0.09
Mof_C 	C 	0.7463	0.3085	0.5156	0.048
Mof_H 	H 	0.7738	0.2899	0.5692	0.059
Mof_C 	C 	0.6194	0.3963	0.2689	0.325
Mof_C 	C 	0.8716	0.4082	0.5133	0.357
Mof_Cd	Cd	0.45772	0.5682	0.8914	0.495
Mof_Cd	Cd	0.04233	0.43266	0.60863	0.498
Mof_O 	O 	0.14716	0.4646	0.73729	-0.234
Mof_O 	O 	0.05373	0.3551	0.73592	-0.246
Mof_O 	O 	0.40412	0.466	0.97292	-0.269
Mof_O 	O 	0.40564	0.37415	0.08346	-0.245
Mof_O 	O 	0.1673	0.1731	0.09854	-0.24
Mof_O 	O 	0.05363	0.1726	0.99656	-0.227
Mof_O 	O 	0.4437	0.6723	0.00047	-0.245
Mof_O 	O 	0.3303	0.6726	0.9005	-0.224
Mof_O 	O 	0.4448	0.8507	0.2629	-0.25
Mof_O 	O 	0.3529	0.9595	0.26468	-0.258
Mof_O 	O 	0.0944	0.8765	0.91557	-0.258
Mof_O 	O 	0.09422	0.9628	0.024	-0.288
Mof_C 	C 	0.1177	0.3967	0.7709	0.291
Mof_C 	C 	0.1665	0.3664	0.8601	-0.031
Mof_C 	C 	0.1289	0.2996	0.9009	-0.012
Mof_H 	H 	0.0768	0.2751	0.8751	0.077
Mof_C 	C 	0.1679	0.2696	0.9785	-0.032
Mof_C 	C 	0.246	0.3061	0.0152	-0.012
Mof_H 	H 	0.2738	0.285	0.0678	0.078
Mof_C 	C 	0.2836	0.3741	0.9744	-0.045
Mof_C 	C 	0.2439	0.4019	0.8957	-0.006
Mof_H 	H 	0.2695	0.4448	0.8663	0.08
Mof_C 	C 	0.1291	0.2011	0.0314	0.282
Mof_C 	C 	0.3698	0.4079	0.0127	0.302
Mof_C 	C 	0.3717	0.7016	0.9721	0.296
Mof_C 	C 	0.3294	0.7693	0.0148	-0.068
Mof_C 	C 	0.3718	0.8006	0.1019	0.016
Mof_H 	H 	0.423	0.7741	0.1277	0.068
Mof_C 	C 	0.3388	0.8636	0.1418	-0.056
Mof_C 	C 	0.2597	0.9024	0.1064	0.012
Mof_H 	H 	0.2362	0.9475	0.1354	0.074
Mof_C 	C 	0.2141	0.8705	0.0222	-0.072
Mof_C 	C 	0.2537	0.8085	0.9844	0.026
Mof_H 	H 	0.2262	0.7899	0.9308	0.066
Mof_C 	C 	0.3806	0.8963	0.2311	0.322
Mof_C 	C 	0.1284	0.9082	0.9867	0.342
_end
