data_functionalizedCrystal
_audit_creation_method	'EQeq! by Chris Wilmer'
_symmetry_space_group_name_H-M	'P1'
_symmetry_Int_Tables_number	1
_symmetry_cell_setting	triclinic
loop_
_symmetry_equiv_pos_as_xyz
  x,y,z
_cell_length_a	24.321
_cell_length_b	9.4098
_cell_length_c	16.628
_cell_angle_alpha	90
_cell_angle_beta	119.24
_cell_angle_gamma	90
loop_
_atom_site_label
_atom_site_type_symbol
_atom_site_fract_x
_atom_site_fract_y
_atom_site_fract_z
_atom_site_charge
Mof_Cu	Cu	0.04273	0.82357	0.04115	0.828
Mof_Cu	Cu	0.95723	0.6143	0.12254	0.824
Mof_N 	N 	0.91824	0.7907	0.0373	-0.211
Mof_N 	N 	0.95358	0.8803	0.0172	-0.18
Mof_N 	N 	0.92015	0.9927	0.9764	-0.172
Mof_N 	N 	0.8624	0.9815	0.9675	-0.115
Mof_N 	N 	0.8605	0.7907	0.2511	-0.111
Mof_N 	N 	0.918	0.7638	0.3222	-0.169
Mof_N 	N 	0.95211	0.6974	0.2926	-0.179
Mof_N 	N 	0.91769	0.6812	0.2009	-0.214
Mof_N 	N 	0.0449	0.5661	0.9306	-0.227
Mof_C 	C 	0.7493	0.6964	0.0764	-0.042
Mof_H 	H 	0.7491	0.6593	0.1281	0.045
Mof_C 	C 	0.8064	0.7438	0.0845	-0.041
Mof_C 	C 	0.8068	0.797	0.0061	-0.036
Mof_C 	C 	0.8628	0.8557	0.006	0.107
Mof_C 	C 	0.8623	0.7401	0.1776	0.107
Mof_C 	C 	0.0452	0.6683	0.9674	-0.205
Mof_Cu	Cu	0.54273	0.32357	0.04115	0.828
Mof_Cu	Cu	0.45723	0.1143	0.12254	0.822
Mof_N 	N 	0.41824	0.2907	0.0373	-0.212
Mof_N 	N 	0.45358	0.3803	0.0172	-0.183
Mof_N 	N 	0.42015	0.4927	0.9764	-0.17
Mof_N 	N 	0.3624	0.4815	0.9675	-0.113
Mof_N 	N 	0.3605	0.2907	0.2511	-0.111
Mof_N 	N 	0.418	0.2638	0.3222	-0.17
Mof_N 	N 	0.45211	0.1974	0.2926	-0.179
Mof_N 	N 	0.41769	0.1812	0.2009	-0.214
Mof_N 	N 	0.5449	0.0661	0.9306	-0.227
Mof_C 	C 	0.2493	0.1964	0.0764	-0.049
Mof_H 	H 	0.2491	0.1593	0.1281	0.046
Mof_C 	C 	0.3064	0.2438	0.0845	-0.038
Mof_C 	C 	0.3068	0.297	0.0061	-0.041
Mof_C 	C 	0.3628	0.3557	0.006	0.106
Mof_C 	C 	0.3623	0.2401	0.1776	0.106
Mof_C 	C 	0.5452	0.1683	0.9674	-0.206
Mof_Cu	Cu	0.95727	0.82357	0.45885	0.828
Mof_Cu	Cu	0.04277	0.6143	0.37746	0.822
Mof_N 	N 	0.08176	0.7907	0.4627	-0.212
Mof_N 	N 	0.04642	0.8803	0.4828	-0.182
Mof_N 	N 	0.07985	0.9927	0.5236	-0.17
Mof_N 	N 	0.1376	0.9815	0.5325	-0.113
Mof_N 	N 	0.1395	0.7907	0.2489	-0.111
Mof_N 	N 	0.082	0.7638	0.1778	-0.17
Mof_N 	N 	0.04789	0.6974	0.2074	-0.18
Mof_N 	N 	0.08231	0.6812	0.2991	-0.214
Mof_N 	N 	0.9551	0.5661	0.5694	-0.227
Mof_C 	C 	0.2507	0.6964	0.4236	-0.045
Mof_H 	H 	0.2509	0.6593	0.3719	0.045
Mof_C 	C 	0.1936	0.7438	0.4155	-0.04
Mof_C 	C 	0.1932	0.797	0.4939	-0.039
Mof_C 	C 	0.1372	0.8557	0.494	0.106
Mof_C 	C 	0.1377	0.7401	0.3224	0.106
Mof_C 	C 	0.9548	0.6683	0.5326	-0.206
Mof_Cu	Cu	0.45727	0.32357	0.45885	0.828
Mof_Cu	Cu	0.54277	0.1143	0.37746	0.822
Mof_N 	N 	0.58176	0.2907	0.4627	-0.212
Mof_N 	N 	0.54642	0.3803	0.4828	-0.182
Mof_N 	N 	0.57985	0.4927	0.5236	-0.17
Mof_N 	N 	0.6376	0.4815	0.5325	-0.113
Mof_N 	N 	0.6395	0.2907	0.2489	-0.111
Mof_N 	N 	0.582	0.2638	0.1778	-0.17
Mof_N 	N 	0.54789	0.1974	0.2074	-0.179
Mof_N 	N 	0.58231	0.1812	0.2991	-0.214
Mof_N 	N 	0.4551	0.0661	0.5694	-0.227
Mof_C 	C 	0.7507	0.1964	0.4236	-0.045
Mof_H 	H 	0.7509	0.1593	0.3719	0.046
Mof_C 	C 	0.6936	0.2438	0.4155	-0.04
Mof_C 	C 	0.6932	0.297	0.4939	-0.039
Mof_C 	C 	0.6372	0.3557	0.494	0.106
Mof_C 	C 	0.6377	0.2401	0.3224	0.106
Mof_C 	C 	0.4548	0.1683	0.5326	-0.206
Mof_Cu	Cu	0.95727	0.17643	0.95885	0.827
Mof_Cu	Cu	0.04277	0.3857	0.87746	0.823
Mof_N 	N 	0.08176	0.2093	0.9627	-0.212
Mof_N 	N 	0.04642	0.1197	0.9828	-0.181
Mof_N 	N 	0.07985	0.0073	0.0236	-0.172
Mof_N 	N 	0.1376	0.0185	0.0325	-0.115
Mof_N 	N 	0.1395	0.2093	0.7489	-0.111
Mof_N 	N 	0.082	0.2362	0.6778	-0.169
Mof_N 	N 	0.04789	0.3026	0.7074	-0.179
Mof_N 	N 	0.08231	0.3188	0.7991	-0.214
Mof_N 	N 	0.9551	0.4339	0.0694	-0.227
Mof_C 	C 	0.2507	0.3036	0.9236	-0.042
Mof_H 	H 	0.2509	0.3407	0.8719	0.045
Mof_C 	C 	0.1936	0.2562	0.9155	-0.041
Mof_C 	C 	0.1932	0.203	0.9939	-0.036
Mof_C 	C 	0.1372	0.1443	0.994	0.107
Mof_C 	C 	0.1377	0.2599	0.8224	0.107
Mof_C 	C 	0.9548	0.3317	0.0326	-0.205
Mof_Cu	Cu	0.45727	0.67643	0.95885	0.828
Mof_Cu	Cu	0.54277	0.8857	0.87746	0.822
Mof_N 	N 	0.58176	0.7093	0.9627	-0.212
Mof_N 	N 	0.54642	0.6197	0.9828	-0.183
Mof_N 	N 	0.57985	0.5073	0.0236	-0.17
Mof_N 	N 	0.6376	0.5185	0.0325	-0.113
Mof_N 	N 	0.6395	0.7093	0.7489	-0.111
Mof_N 	N 	0.582	0.7362	0.6778	-0.17
Mof_N 	N 	0.54789	0.8026	0.7074	-0.179
Mof_N 	N 	0.58231	0.8188	0.7991	-0.214
Mof_N 	N 	0.4551	0.9339	0.0694	-0.227
Mof_C 	C 	0.7507	0.8036	0.9236	-0.049
Mof_H 	H 	0.7509	0.8407	0.8719	0.046
Mof_C 	C 	0.6936	0.7562	0.9155	-0.038
Mof_C 	C 	0.6932	0.703	0.9939	-0.041
Mof_C 	C 	0.6372	0.6443	0.994	0.106
Mof_C 	C 	0.6377	0.7599	0.8224	0.106
Mof_C 	C 	0.4548	0.8317	0.0326	-0.206
Mof_Cu	Cu	0.04273	0.17643	0.54115	0.828
Mof_Cu	Cu	0.95723	0.3857	0.62254	0.822
Mof_N 	N 	0.91824	0.2093	0.5373	-0.212
Mof_N 	N 	0.95358	0.1197	0.5172	-0.182
Mof_N 	N 	0.92015	0.0073	0.4764	-0.17
Mof_N 	N 	0.8624	0.0185	0.4675	-0.113
Mof_N 	N 	0.8605	0.2093	0.7511	-0.111
Mof_N 	N 	0.918	0.2362	0.8222	-0.17
Mof_N 	N 	0.95211	0.3026	0.7926	-0.18
Mof_N 	N 	0.91769	0.3188	0.7009	-0.214
Mof_N 	N 	0.0449	0.4339	0.4306	-0.227
Mof_C 	C 	0.7493	0.3036	0.5764	-0.045
Mof_H 	H 	0.7491	0.3407	0.6281	0.045
Mof_C 	C 	0.8064	0.2562	0.5845	-0.04
Mof_C 	C 	0.8068	0.203	0.5061	-0.039
Mof_C 	C 	0.8628	0.1443	0.506	0.106
Mof_C 	C 	0.8623	0.2599	0.6776	0.106
Mof_C 	C 	0.0452	0.3317	0.4674	-0.206
Mof_Cu	Cu	0.54273	0.67643	0.54115	0.828
Mof_Cu	Cu	0.45723	0.8857	0.62254	0.822
Mof_N 	N 	0.41824	0.7093	0.5373	-0.212
Mof_N 	N 	0.45358	0.6197	0.5172	-0.182
Mof_N 	N 	0.42015	0.5073	0.4764	-0.17
Mof_N 	N 	0.3624	0.5185	0.4675	-0.113
Mof_N 	N 	0.3605	0.7093	0.7511	-0.111
Mof_N 	N 	0.418	0.7362	0.8222	-0.17
Mof_N 	N 	0.45211	0.8026	0.7926	-0.179
Mof_N 	N 	0.41769	0.8188	0.7009	-0.214
Mof_N 	N 	0.5449	0.9339	0.4306	-0.227
Mof_C 	C 	0.2493	0.8036	0.5764	-0.045
Mof_H 	H 	0.2491	0.8407	0.6281	0.046
Mof_C 	C 	0.3064	0.7562	0.5845	-0.04
Mof_C 	C 	0.3068	0.703	0.5061	-0.039
Mof_C 	C 	0.3628	0.6443	0.506	0.106
Mof_C 	C 	0.3623	0.7599	0.6776	0.106
Mof_C 	C 	0.5452	0.8317	0.4674	-0.206
_end
