data_functionalizedCrystal
_audit_creation_method	'EQeq! by Chris Wilmer'
_symmetry_space_group_name_H-M	'P1'
_symmetry_Int_Tables_number	1
_symmetry_cell_setting	triclinic
loop_
_symmetry_equiv_pos_as_xyz
  x,y,z
_cell_length_a	14.152
_cell_length_b	14.152
_cell_length_c	14.152
_cell_angle_alpha	90
_cell_angle_beta	90
_cell_angle_gamma	90
loop_
_atom_site_label
_atom_site_type_symbol
_atom_site_fract_x
_atom_site_fract_y
_atom_site_fract_z
_atom_site_charge
Mof_O 	O 	0.5652	0.412	0.7759	-0.466
Mof_O 	O 	0.6932	0.3739	0.6878	-0.437
Mof_O 	O 	0.808	0.154	0.776	-0.215
Mof_C 	C 	0.6239	0.4242	0.7089	0.375
Mof_C 	C 	0.5997	0.5041	0.6411	-0.126
Mof_C 	C 	0.6564	0.5226	0.5657	0.069
Mof_H 	H 	0.7084	0.482	0.5539	0.032
Mof_O 	O 	0.9348	0.588	0.2759	-0.467
Mof_O 	O 	0.8068	0.6261	0.1878	-0.438
Mof_O 	O 	0.692	0.846	0.276	-0.217
Mof_C 	C 	0.8761	0.5758	0.2089	0.375
Mof_C 	C 	0.9003	0.4959	0.1411	-0.127
Mof_C 	C 	0.8436	0.4774	0.0657	0.069
Mof_H 	H 	0.7916	0.518	0.0539	0.032
Mof_O 	O 	0.4348	0.912	0.7241	-0.467
Mof_O 	O 	0.3068	0.8739	0.8122	-0.438
Mof_O 	O 	0.192	0.654	0.724	-0.216
Mof_C 	C 	0.3761	0.9242	0.7911	0.373
Mof_C 	C 	0.4003	0.0041	0.8589	-0.126
Mof_C 	C 	0.3436	0.0226	0.9343	0.071
Mof_H 	H 	0.2916	0.982	0.9461	0.03
Mof_O 	O 	0.0652	0.088	0.2241	-0.467
Mof_O 	O 	0.1932	0.1261	0.3122	-0.438
Mof_O 	O 	0.308	0.346	0.224	-0.216
Mof_C 	C 	0.1239	0.0758	0.2911	0.374
Mof_C 	C 	0.0997	0.9959	0.3589	-0.127
Mof_C 	C 	0.1564	0.9774	0.4343	0.07
Mof_H 	H 	0.2084	0.018	0.4461	0.031
Mof_O 	O 	0.7759	0.5652	0.412	-0.467
Mof_O 	O 	0.6878	0.6932	0.3739	-0.438
Mof_O 	O 	0.776	0.808	0.154	-0.216
Mof_C 	C 	0.7089	0.6239	0.4242	0.374
Mof_C 	C 	0.6411	0.5997	0.5041	-0.127
Mof_C 	C 	0.5657	0.6564	0.5226	0.069
Mof_H 	H 	0.5539	0.7084	0.482	0.032
Mof_O 	O 	0.2759	0.9348	0.588	-0.467
Mof_O 	O 	0.1878	0.8068	0.6261	-0.438
Mof_O 	O 	0.276	0.692	0.846	-0.217
Mof_C 	C 	0.2089	0.8761	0.5758	0.375
Mof_C 	C 	0.1411	0.9003	0.4959	-0.127
Mof_C 	C 	0.0657	0.8436	0.4774	0.069
Mof_H 	H 	0.0539	0.7916	0.518	0.032
Mof_O 	O 	0.7241	0.4348	0.912	-0.467
Mof_O 	O 	0.8122	0.3068	0.8739	-0.438
Mof_O 	O 	0.724	0.192	0.654	-0.216
Mof_C 	C 	0.7911	0.3761	0.9242	0.373
Mof_C 	C 	0.8589	0.4003	0.0041	-0.126
Mof_C 	C 	0.9343	0.3436	0.0226	0.071
Mof_H 	H 	0.9461	0.2916	0.982	0.03
Mof_O 	O 	0.2241	0.0652	0.088	-0.467
Mof_O 	O 	0.3122	0.1932	0.1261	-0.438
Mof_O 	O 	0.224	0.308	0.346	-0.216
Mof_C 	C 	0.2911	0.1239	0.0758	0.374
Mof_C 	C 	0.3589	0.0997	0.9959	-0.127
Mof_C 	C 	0.4343	0.1564	0.9774	0.07
Mof_H 	H 	0.4461	0.2084	0.018	0.031
Mof_O 	O 	0.412	0.7759	0.5652	-0.467
Mof_O 	O 	0.3739	0.6878	0.6932	-0.438
Mof_O 	O 	0.154	0.776	0.808	-0.216
Mof_C 	C 	0.4242	0.7089	0.6239	0.374
Mof_C 	C 	0.5041	0.6411	0.5997	-0.127
Mof_C 	C 	0.5226	0.5657	0.6564	0.069
Mof_H 	H 	0.482	0.5539	0.7084	0.032
Mof_O 	O 	0.588	0.2759	0.9348	-0.467
Mof_O 	O 	0.6261	0.1878	0.8068	-0.438
Mof_O 	O 	0.846	0.276	0.692	-0.217
Mof_C 	C 	0.5758	0.2089	0.8761	0.375
Mof_C 	C 	0.4959	0.1411	0.9003	-0.127
Mof_C 	C 	0.4774	0.0657	0.8436	0.069
Mof_H 	H 	0.518	0.0539	0.7916	0.032
Mof_O 	O 	0.912	0.7241	0.4348	-0.467
Mof_O 	O 	0.8739	0.8122	0.3068	-0.438
Mof_O 	O 	0.654	0.724	0.192	-0.216
Mof_C 	C 	0.9242	0.7911	0.3761	0.373
Mof_C 	C 	0.0041	0.8589	0.4003	-0.126
Mof_C 	C 	0.0226	0.9343	0.3436	0.071
Mof_H 	H 	0.982	0.9461	0.2916	0.03
Mof_O 	O 	0.088	0.2241	0.0652	-0.467
Mof_O 	O 	0.1261	0.3122	0.1932	-0.438
Mof_O 	O 	0.346	0.224	0.308	-0.216
Mof_C 	C 	0.0758	0.2911	0.1239	0.374
Mof_C 	C 	0.9959	0.3589	0.0997	-0.127
Mof_C 	C 	0.9774	0.4343	0.1564	0.07
Mof_H 	H 	0.018	0.4461	0.2084	0.031
Mof_Zn	Zn	0.72827	0.27173	0.77173	1.264
Mof_Co	Co	0.5797	0.4203	0.9203	1.104
Mof_O 	O 	0.8681	0.1319	0.6319	-0.067
Mof_N 	N 	0.8095	0.1905	0.6905	0.017
Mof_Zn	Zn	0.77173	0.72827	0.27173	1.264
Mof_Co	Co	0.9203	0.5797	0.4203	1.104
Mof_O 	O 	0.6319	0.8681	0.1319	-0.067
Mof_N 	N 	0.6905	0.8095	0.1905	0.017
Mof_Zn	Zn	0.27173	0.77173	0.72827	1.264
Mof_Co	Co	0.4203	0.9203	0.5797	1.104
Mof_O 	O 	0.1319	0.6319	0.8681	-0.067
Mof_N 	N 	0.1905	0.6905	0.8095	0.017
Mof_Zn	Zn	0.22827	0.22827	0.22827	1.264
Mof_Co	Co	0.0797	0.0797	0.0797	1.103
Mof_O 	O 	0.3681	0.3681	0.3681	-0.067
Mof_N 	N 	0.3095	0.3095	0.3095	0.017
_end
