data_functionalizedCrystal
_audit_creation_method	'EQeq! by Chris Wilmer'
_symmetry_space_group_name_H-M	'P1'
_symmetry_Int_Tables_number	1
_symmetry_cell_setting	triclinic
loop_
_symmetry_equiv_pos_as_xyz
  x,y,z
_cell_length_a	18.8059
_cell_length_b	18.8059
_cell_length_c	37.6262
_cell_angle_alpha	90
_cell_angle_beta	90
_cell_angle_gamma	120
loop_
_atom_site_label
_atom_site_type_symbol
_atom_site_fract_x
_atom_site_fract_y
_atom_site_fract_z
_atom_site_charge
Mof_O 	O 	0.44419	0.1492	0.17148	-0.404
Mof_O 	O 	0.36669	0.1103	0.12259	-0.408
Mof_C 	C 	0.4271	0.121	0.1407	0.367
Mof_C 	C 	0.4862	0.1	0.12331	-0.08
Mof_C 	C 	0.4722	0.0706	0.08789	-0.015
Mof_H 	H 	0.4245	0.0609	0.0762	0.06
Mof_C 	C 	0.5747	0.0433	0.0128	0.112
Mof_H 	H 	0.6303	0.0765	0.0207	0.01
Mof_N 	N 	0.4389	0.9809	0.0224	-0.152
Mof_O 	O 	0.11086	0.48253	0.50481	-0.404
Mof_O 	O 	0.03336	0.44363	0.45592	-0.409
Mof_C 	C 	0.09377	0.45433	0.47403	0.366
Mof_C 	C 	0.15287	0.43333	0.45664	-0.081
Mof_C 	C 	0.13887	0.40393	0.42122	-0.016
Mof_H 	H 	0.09117	0.39423	0.40953	0.059
Mof_C 	C 	0.24137	0.37663	0.34613	0.111
Mof_H 	H 	0.29697	0.40983	0.35403	0.009
Mof_N 	N 	0.10557	0.31423	0.35573	-0.153
Mof_O 	O 	0.77752	0.81587	0.83815	-0.405
Mof_O 	O 	0.70002	0.77697	0.78926	-0.409
Mof_C 	C 	0.76043	0.78767	0.80737	0.366
Mof_C 	C 	0.81953	0.76667	0.78998	-0.08
Mof_C 	C 	0.80553	0.73727	0.75456	-0.016
Mof_H 	H 	0.75783	0.72757	0.74287	0.059
Mof_C 	C 	0.90803	0.70997	0.67947	0.111
Mof_H 	H 	0.96363	0.74317	0.68737	0.009
Mof_N 	N 	0.77223	0.64757	0.68907	-0.153
Mof_O 	O 	0.8508	0.29499	0.17148	-0.405
Mof_O 	O 	0.8897	0.25639	0.12259	-0.409
Mof_C 	C 	0.879	0.3061	0.1407	0.366
Mof_C 	C 	0.9	0.3862	0.12331	-0.081
Mof_C 	C 	0.9294	0.4016	0.08789	-0.016
Mof_H 	H 	0.9391	0.3636	0.0762	0.059
Mof_C 	C 	0.9567	0.5314	0.0128	0.111
Mof_H 	H 	0.9235	0.5538	0.0207	0.009
Mof_N 	N 	0.0191	0.458	0.0224	-0.153
Mof_O 	O 	0.51747	0.62832	0.50481	-0.405
Mof_O 	O 	0.55637	0.58972	0.45592	-0.409
Mof_C 	C 	0.54567	0.63943	0.47403	0.366
Mof_C 	C 	0.56667	0.71953	0.45664	-0.081
Mof_C 	C 	0.59607	0.73493	0.42122	-0.016
Mof_H 	H 	0.60577	0.69693	0.40953	0.059
Mof_C 	C 	0.62337	0.86473	0.34613	0.111
Mof_H 	H 	0.59017	0.88713	0.35403	0.009
Mof_N 	N 	0.68577	0.79133	0.35573	-0.153
Mof_O 	O 	0.18413	0.96166	0.83815	-0.405
Mof_O 	O 	0.22303	0.92306	0.78926	-0.409
Mof_C 	C 	0.21233	0.97277	0.80737	0.365
Mof_C 	C 	0.23333	0.05287	0.78998	-0.08
Mof_C 	C 	0.26273	0.06827	0.75456	-0.016
Mof_H 	H 	0.27243	0.03027	0.74287	0.059
Mof_C 	C 	0.29003	0.19807	0.67947	0.111
Mof_H 	H 	0.25683	0.22047	0.68737	0.009
Mof_N 	N 	0.35243	0.12467	0.68907	-0.153
Mof_O 	O 	0.70501	0.55581	0.17148	-0.405
Mof_O 	O 	0.74361	0.63331	0.12259	-0.409
Mof_C 	C 	0.6939	0.5729	0.1407	0.366
Mof_C 	C 	0.6138	0.5138	0.12331	-0.081
Mof_C 	C 	0.5984	0.5278	0.08789	-0.016
Mof_H 	H 	0.6364	0.5755	0.0762	0.059
Mof_C 	C 	0.4686	0.4253	0.0128	0.111
Mof_H 	H 	0.4462	0.3697	0.0207	0.009
Mof_N 	N 	0.542	0.5611	0.0224	-0.153
Mof_O 	O 	0.37168	0.88914	0.50481	-0.405
Mof_O 	O 	0.41028	0.96664	0.45592	-0.409
Mof_C 	C 	0.36057	0.90623	0.47403	0.366
Mof_C 	C 	0.28047	0.84713	0.45664	-0.081
Mof_C 	C 	0.26507	0.86113	0.42122	-0.016
Mof_H 	H 	0.30307	0.90883	0.40953	0.059
Mof_C 	C 	0.13527	0.75863	0.34613	0.111
Mof_H 	H 	0.11287	0.70303	0.35403	0.009
Mof_N 	N 	0.20867	0.89443	0.35573	-0.153
Mof_O 	O 	0.03834	0.22248	0.83815	-0.405
Mof_O 	O 	0.07694	0.29998	0.78926	-0.409
Mof_C 	C 	0.02723	0.23957	0.80737	0.365
Mof_C 	C 	0.94713	0.18047	0.78998	-0.08
Mof_C 	C 	0.93173	0.19447	0.75456	-0.016
Mof_H 	H 	0.96973	0.24217	0.74287	0.06
Mof_C 	C 	0.80193	0.09197	0.67947	0.111
Mof_H 	H 	0.77953	0.03637	0.68737	0.009
Mof_N 	N 	0.87533	0.22777	0.68907	-0.153
Mof_O 	O 	0.1492	0.44419	0.82852	-0.405
Mof_O 	O 	0.1103	0.36669	0.87741	-0.409
Mof_C 	C 	0.121	0.4271	0.8593	0.366
Mof_C 	C 	0.1	0.4862	0.87669	-0.081
Mof_C 	C 	0.0706	0.4722	0.91211	-0.016
Mof_H 	H 	0.0609	0.4245	0.9238	0.059
Mof_C 	C 	0.0433	0.5747	0.9872	0.111
Mof_H 	H 	0.0765	0.6303	0.9793	0.009
Mof_N 	N 	0.9809	0.4389	0.9776	-0.153
Mof_O 	O 	0.81587	0.77752	0.16185	-0.405
Mof_O 	O 	0.77697	0.70002	0.21074	-0.409
Mof_C 	C 	0.78767	0.76043	0.19263	0.366
Mof_C 	C 	0.76667	0.81953	0.21002	-0.08
Mof_C 	C 	0.73727	0.80553	0.24544	-0.016
Mof_H 	H 	0.72757	0.75783	0.25713	0.059
Mof_C 	C 	0.70997	0.90803	0.32053	0.111
Mof_H 	H 	0.74317	0.96363	0.31263	0.009
Mof_N 	N 	0.64757	0.77223	0.31093	-0.153
Mof_O 	O 	0.48253	0.11086	0.49519	-0.405
Mof_O 	O 	0.44363	0.03336	0.54408	-0.409
Mof_C 	C 	0.45433	0.09377	0.52597	0.366
Mof_C 	C 	0.43333	0.15287	0.54336	-0.081
Mof_C 	C 	0.40393	0.13887	0.57878	-0.016
Mof_H 	H 	0.39423	0.09117	0.59047	0.059
Mof_C 	C 	0.37663	0.24137	0.65387	0.111
Mof_H 	H 	0.40983	0.29697	0.64597	0.009
Mof_N 	N 	0.31423	0.10557	0.64427	-0.153
Mof_O 	O 	0.29499	0.8508	0.82852	-0.405
Mof_O 	O 	0.25639	0.8897	0.87741	-0.409
Mof_C 	C 	0.3061	0.879	0.8593	0.366
Mof_C 	C 	0.3862	0.9	0.87669	-0.081
Mof_C 	C 	0.4016	0.9294	0.91211	-0.016
Mof_H 	H 	0.3636	0.9391	0.9238	0.059
Mof_C 	C 	0.5314	0.9567	0.9872	0.111
Mof_H 	H 	0.5538	0.9235	0.9793	0.009
Mof_N 	N 	0.458	0.0191	0.9776	-0.153
Mof_O 	O 	0.96166	0.18413	0.16185	-0.405
Mof_O 	O 	0.92306	0.22303	0.21074	-0.409
Mof_C 	C 	0.97277	0.21233	0.19263	0.365
Mof_C 	C 	0.05287	0.23333	0.21002	-0.08
Mof_C 	C 	0.06827	0.26273	0.24544	-0.016
Mof_H 	H 	0.03027	0.27243	0.25713	0.059
Mof_C 	C 	0.19807	0.29003	0.32053	0.111
Mof_H 	H 	0.22047	0.25683	0.31263	0.009
Mof_N 	N 	0.12467	0.35243	0.31093	-0.153
Mof_O 	O 	0.62832	0.51747	0.49519	-0.405
Mof_O 	O 	0.58972	0.55637	0.54408	-0.409
Mof_C 	C 	0.63943	0.54567	0.52597	0.366
Mof_C 	C 	0.71953	0.56667	0.54336	-0.081
Mof_C 	C 	0.73493	0.59607	0.57878	-0.016
Mof_H 	H 	0.69693	0.60577	0.59047	0.059
Mof_C 	C 	0.86473	0.62337	0.65387	0.111
Mof_H 	H 	0.88713	0.59017	0.64597	0.009
Mof_N 	N 	0.79133	0.68577	0.64427	-0.153
Mof_O 	O 	0.55581	0.70501	0.82852	-0.405
Mof_O 	O 	0.63331	0.74361	0.87741	-0.409
Mof_C 	C 	0.5729	0.6939	0.8593	0.366
Mof_C 	C 	0.5138	0.6138	0.87669	-0.081
Mof_C 	C 	0.5278	0.5984	0.91211	-0.016
Mof_H 	H 	0.5755	0.6364	0.9238	0.059
Mof_C 	C 	0.4253	0.4686	0.9872	0.111
Mof_H 	H 	0.3697	0.4462	0.9793	0.009
Mof_N 	N 	0.5611	0.542	0.9776	-0.153
Mof_O 	O 	0.22248	0.03834	0.16185	-0.405
Mof_O 	O 	0.29998	0.07694	0.21074	-0.409
Mof_C 	C 	0.23957	0.02723	0.19263	0.365
Mof_C 	C 	0.18047	0.94713	0.21002	-0.08
Mof_C 	C 	0.19447	0.93173	0.24544	-0.016
Mof_H 	H 	0.24217	0.96973	0.25713	0.06
Mof_C 	C 	0.09197	0.80193	0.32053	0.111
Mof_H 	H 	0.03637	0.77953	0.31263	0.009
Mof_N 	N 	0.22777	0.87533	0.31093	-0.153
Mof_O 	O 	0.88914	0.37168	0.49519	-0.405
Mof_O 	O 	0.96664	0.41028	0.54408	-0.409
Mof_C 	C 	0.90623	0.36057	0.52597	0.366
Mof_C 	C 	0.84713	0.28047	0.54336	-0.081
Mof_C 	C 	0.86113	0.26507	0.57878	-0.016
Mof_H 	H 	0.90883	0.30307	0.59047	0.059
Mof_C 	C 	0.75863	0.13527	0.65387	0.111
Mof_H 	H 	0.70303	0.11287	0.64597	0.009
Mof_N 	N 	0.89443	0.20867	0.64427	-0.153
Mof_O 	O 	0.55581	0.8508	0.82852	-0.405
Mof_O 	O 	0.63331	0.8897	0.87741	-0.409
Mof_C 	C 	0.5729	0.879	0.8593	0.366
Mof_C 	C 	0.5138	0.9	0.87669	-0.081
Mof_C 	C 	0.5278	0.9294	0.91211	-0.016
Mof_H 	H 	0.5755	0.9391	0.9238	0.059
Mof_C 	C 	0.4253	0.9567	0.9872	0.111
Mof_H 	H 	0.3697	0.9235	0.9793	0.009
Mof_N 	N 	0.5611	0.0191	0.9776	-0.153
Mof_O 	O 	0.22248	0.18413	0.16185	-0.405
Mof_O 	O 	0.29998	0.22303	0.21074	-0.409
Mof_C 	C 	0.23957	0.21233	0.19263	0.366
Mof_C 	C 	0.18047	0.23333	0.21002	-0.08
Mof_C 	C 	0.19447	0.26273	0.24544	-0.016
Mof_H 	H 	0.24217	0.27243	0.25713	0.059
Mof_C 	C 	0.09197	0.29003	0.32053	0.111
Mof_H 	H 	0.03637	0.25683	0.31263	0.009
Mof_N 	N 	0.22777	0.35243	0.31093	-0.153
Mof_O 	O 	0.88914	0.51747	0.49519	-0.405
Mof_O 	O 	0.96664	0.55637	0.54408	-0.409
Mof_C 	C 	0.90623	0.54567	0.52597	0.366
Mof_C 	C 	0.84713	0.56667	0.54336	-0.081
Mof_C 	C 	0.86113	0.59607	0.57878	-0.016
Mof_H 	H 	0.90883	0.60577	0.59047	0.059
Mof_C 	C 	0.75863	0.62337	0.65387	0.111
Mof_H 	H 	0.70303	0.59017	0.64597	0.009
Mof_N 	N 	0.89443	0.68577	0.64427	-0.153
Mof_O 	O 	0.1492	0.70501	0.82852	-0.405
Mof_O 	O 	0.1103	0.74361	0.87741	-0.409
Mof_C 	C 	0.121	0.6939	0.8593	0.366
Mof_C 	C 	0.1	0.6138	0.87669	-0.081
Mof_C 	C 	0.0706	0.5984	0.91211	-0.016
Mof_H 	H 	0.0609	0.6364	0.9238	0.059
Mof_C 	C 	0.0433	0.4686	0.9872	0.111
Mof_H 	H 	0.0765	0.4462	0.9793	0.009
Mof_N 	N 	0.9809	0.542	0.9776	-0.153
Mof_O 	O 	0.81587	0.03834	0.16185	-0.405
Mof_O 	O 	0.77697	0.07694	0.21074	-0.409
Mof_C 	C 	0.78767	0.02723	0.19263	0.365
Mof_C 	C 	0.76667	0.94713	0.21002	-0.08
Mof_C 	C 	0.73727	0.93173	0.24544	-0.016
Mof_H 	H 	0.72757	0.96973	0.25713	0.059
Mof_C 	C 	0.70997	0.80193	0.32053	0.111
Mof_H 	H 	0.74317	0.77953	0.31263	0.009
Mof_N 	N 	0.64757	0.87533	0.31093	-0.153
Mof_O 	O 	0.48253	0.37168	0.49519	-0.405
Mof_O 	O 	0.44363	0.41028	0.54408	-0.409
Mof_C 	C 	0.45433	0.36057	0.52597	0.366
Mof_C 	C 	0.43333	0.28047	0.54336	-0.081
Mof_C 	C 	0.40393	0.26507	0.57878	-0.016
Mof_H 	H 	0.39423	0.30307	0.59047	0.059
Mof_C 	C 	0.37663	0.13527	0.65387	0.111
Mof_H 	H 	0.40983	0.11287	0.64597	0.009
Mof_N 	N 	0.31423	0.20867	0.64427	-0.153
Mof_O 	O 	0.29499	0.44419	0.82852	-0.405
Mof_O 	O 	0.25639	0.36669	0.87741	-0.409
Mof_C 	C 	0.3061	0.4271	0.8593	0.366
Mof_C 	C 	0.3862	0.4862	0.87669	-0.081
Mof_C 	C 	0.4016	0.4722	0.91211	-0.016
Mof_H 	H 	0.3636	0.4245	0.9238	0.059
Mof_C 	C 	0.5314	0.5747	0.9872	0.111
Mof_H 	H 	0.5538	0.6303	0.9793	0.009
Mof_N 	N 	0.458	0.4389	0.9776	-0.153
Mof_O 	O 	0.96166	0.77752	0.16185	-0.405
Mof_O 	O 	0.92306	0.70002	0.21074	-0.409
Mof_C 	C 	0.97277	0.76043	0.19263	0.365
Mof_C 	C 	0.05287	0.81953	0.21002	-0.08
Mof_C 	C 	0.06827	0.80553	0.24544	-0.016
Mof_H 	H 	0.03027	0.75783	0.25713	0.06
Mof_C 	C 	0.19807	0.90803	0.32053	0.111
Mof_H 	H 	0.22047	0.96363	0.31263	0.009
Mof_N 	N 	0.12467	0.77223	0.31093	-0.153
Mof_O 	O 	0.62832	0.11086	0.49519	-0.405
Mof_O 	O 	0.58972	0.03336	0.54408	-0.409
Mof_C 	C 	0.63943	0.09377	0.52597	0.366
Mof_C 	C 	0.71953	0.15287	0.54336	-0.081
Mof_C 	C 	0.73493	0.13887	0.57878	-0.016
Mof_H 	H 	0.69693	0.09117	0.59047	0.059
Mof_C 	C 	0.86473	0.24137	0.65387	0.111
Mof_H 	H 	0.88713	0.29697	0.64597	0.009
Mof_N 	N 	0.79133	0.10557	0.64427	-0.153
Mof_O 	O 	0.8508	0.55581	0.17148	-0.405
Mof_O 	O 	0.8897	0.63331	0.12259	-0.409
Mof_C 	C 	0.879	0.5729	0.1407	0.366
Mof_C 	C 	0.9	0.5138	0.12331	-0.081
Mof_C 	C 	0.9294	0.5278	0.08789	-0.016
Mof_H 	H 	0.9391	0.5755	0.0762	0.059
Mof_C 	C 	0.9567	0.4253	0.0128	0.111
Mof_H 	H 	0.9235	0.3697	0.0207	0.009
Mof_N 	N 	0.0191	0.5611	0.0224	-0.153
Mof_O 	O 	0.51747	0.88914	0.50481	-0.405
Mof_O 	O 	0.55637	0.96664	0.45592	-0.409
Mof_C 	C 	0.54567	0.90623	0.47403	0.366
Mof_C 	C 	0.56667	0.84713	0.45664	-0.081
Mof_C 	C 	0.59607	0.86113	0.42122	-0.016
Mof_H 	H 	0.60577	0.90883	0.40953	0.059
Mof_C 	C 	0.62337	0.75863	0.34613	0.111
Mof_H 	H 	0.59017	0.70303	0.35403	0.009
Mof_N 	N 	0.68577	0.89443	0.35573	-0.153
Mof_O 	O 	0.18413	0.22248	0.83815	-0.405
Mof_O 	O 	0.22303	0.29998	0.78926	-0.409
Mof_C 	C 	0.21233	0.23957	0.80737	0.366
Mof_C 	C 	0.23333	0.18047	0.78998	-0.08
Mof_C 	C 	0.26273	0.19447	0.75456	-0.016
Mof_H 	H 	0.27243	0.24217	0.74287	0.059
Mof_C 	C 	0.29003	0.09197	0.67947	0.111
Mof_H 	H 	0.25683	0.03637	0.68737	0.009
Mof_N 	N 	0.35243	0.22777	0.68907	-0.153
Mof_O 	O 	0.70501	0.1492	0.17148	-0.405
Mof_O 	O 	0.74361	0.1103	0.12259	-0.409
Mof_C 	C 	0.6939	0.121	0.1407	0.366
Mof_C 	C 	0.6138	0.1	0.12331	-0.081
Mof_C 	C 	0.5984	0.0706	0.08789	-0.016
Mof_H 	H 	0.6364	0.0609	0.0762	0.059
Mof_C 	C 	0.4686	0.0433	0.0128	0.111
Mof_H 	H 	0.4462	0.0765	0.0207	0.009
Mof_N 	N 	0.542	0.9809	0.0224	-0.153
Mof_O 	O 	0.37168	0.48253	0.50481	-0.405
Mof_O 	O 	0.41028	0.44363	0.45592	-0.409
Mof_C 	C 	0.36057	0.45433	0.47403	0.366
Mof_C 	C 	0.28047	0.43333	0.45664	-0.081
Mof_C 	C 	0.26507	0.40393	0.42122	-0.016
Mof_H 	H 	0.30307	0.39423	0.40953	0.059
Mof_C 	C 	0.13527	0.37663	0.34613	0.111
Mof_H 	H 	0.11287	0.40983	0.35403	0.009
Mof_N 	N 	0.20867	0.31423	0.35573	-0.153
Mof_O 	O 	0.03834	0.81587	0.83815	-0.405
Mof_O 	O 	0.07694	0.77697	0.78926	-0.409
Mof_C 	C 	0.02723	0.78767	0.80737	0.365
Mof_C 	C 	0.94713	0.76667	0.78998	-0.08
Mof_C 	C 	0.93173	0.73727	0.75456	-0.016
Mof_H 	H 	0.96973	0.72757	0.74287	0.059
Mof_C 	C 	0.80193	0.70997	0.67947	0.111
Mof_H 	H 	0.77953	0.74317	0.68737	0.009
Mof_N 	N 	0.87533	0.64757	0.68907	-0.153
Mof_O 	O 	0.44419	0.29499	0.17148	-0.405
Mof_O 	O 	0.36669	0.25639	0.12259	-0.409
Mof_C 	C 	0.4271	0.3061	0.1407	0.366
Mof_C 	C 	0.4862	0.3862	0.12331	-0.081
Mof_C 	C 	0.4722	0.4016	0.08789	-0.016
Mof_H 	H 	0.4245	0.3636	0.0762	0.059
Mof_C 	C 	0.5747	0.5314	0.0128	0.111
Mof_H 	H 	0.6303	0.5538	0.0207	0.009
Mof_N 	N 	0.4389	0.458	0.0224	-0.153
Mof_O 	O 	0.11086	0.62832	0.50481	-0.405
Mof_O 	O 	0.03336	0.58972	0.45592	-0.409
Mof_C 	C 	0.09377	0.63943	0.47403	0.366
Mof_C 	C 	0.15287	0.71953	0.45664	-0.081
Mof_C 	C 	0.13887	0.73493	0.42122	-0.016
Mof_H 	H 	0.09117	0.69693	0.40953	0.059
Mof_C 	C 	0.24137	0.86473	0.34613	0.111
Mof_H 	H 	0.29697	0.88713	0.35403	0.009
Mof_N 	N 	0.10557	0.79133	0.35573	-0.153
Mof_O 	O 	0.77752	0.96166	0.83815	-0.405
Mof_O 	O 	0.70002	0.92306	0.78926	-0.409
Mof_C 	C 	0.76043	0.97277	0.80737	0.365
Mof_C 	C 	0.81953	0.05287	0.78998	-0.08
Mof_C 	C 	0.80553	0.06827	0.75456	-0.016
Mof_H 	H 	0.75783	0.03027	0.74287	0.06
Mof_C 	C 	0.90803	0.19807	0.67947	0.111
Mof_H 	H 	0.96363	0.22047	0.68737	0.009
Mof_N 	N 	0.77223	0.12467	0.68907	-0.153
Mof_Cu	Cu	0.37881	0.18941	0.19586	0.905
Mof_Cu	Cu	0.04548	0.52274	0.52919	0.905
Mof_Cu	Cu	0.71214	0.85607	0.86252	0.905
Mof_Cu	Cu	0.81059	0.18941	0.19586	0.905
Mof_Cu	Cu	0.47726	0.52274	0.52919	0.905
Mof_Cu	Cu	0.14393	0.85607	0.86252	0.905
Mof_Cu	Cu	0.81059	0.62119	0.19586	0.905
Mof_Cu	Cu	0.47726	0.95452	0.52919	0.905
Mof_Cu	Cu	0.14393	0.28786	0.86252	0.905
Mof_Cu	Cu	0.18941	0.37881	0.80414	0.905
Mof_Cu	Cu	0.85607	0.71214	0.13748	0.905
Mof_Cu	Cu	0.52274	0.04548	0.47081	0.905
Mof_Cu	Cu	0.18941	0.81059	0.80414	0.905
Mof_Cu	Cu	0.85607	0.14393	0.13748	0.905
Mof_Cu	Cu	0.52274	0.47726	0.47081	0.905
Mof_Cu	Cu	0.62119	0.81059	0.80414	0.905
Mof_Cu	Cu	0.28786	0.14393	0.13748	0.905
Mof_Cu	Cu	0.95452	0.47726	0.47081	0.905
Mof_C 	C 	0.5574	0.1148	0.14041	0.028
Mof_H 	H 	0.5674	0.1348	0.1636	0.054
Mof_C 	C 	0.5282	0.0564	0.0705	-0.001
Mof_C 	C 	0.51265	0.0253	0.0343	0.051
Mof_C 	C 	0.22407	0.44813	0.47374	0.028
Mof_H 	H 	0.23407	0.46813	0.49693	0.054
Mof_C 	C 	0.19487	0.38973	0.40383	-0.001
Mof_C 	C 	0.17932	0.35863	0.36763	0.051
Mof_C 	C 	0.89073	0.78147	0.80708	0.027
Mof_H 	H 	0.90073	0.80147	0.83027	0.055
Mof_C 	C 	0.86153	0.72307	0.73717	-0.001
Mof_C 	C 	0.84598	0.69197	0.70097	0.051
Mof_C 	C 	0.8852	0.4426	0.14041	0.028
Mof_H 	H 	0.8652	0.4326	0.1636	0.054
Mof_C 	C 	0.9436	0.4718	0.0705	-0.001
Mof_C 	C 	0.9747	0.48735	0.0343	0.051
Mof_C 	C 	0.55187	0.77593	0.47374	0.028
Mof_H 	H 	0.53187	0.76593	0.49693	0.054
Mof_C 	C 	0.61027	0.80513	0.40383	-0.001
Mof_C 	C 	0.64137	0.82068	0.36763	0.051
Mof_C 	C 	0.21853	0.10927	0.80708	0.027
Mof_H 	H 	0.19853	0.09927	0.83027	0.055
Mof_C 	C 	0.27693	0.13847	0.73717	-0.001
Mof_C 	C 	0.30803	0.15402	0.70097	0.051
Mof_C 	C 	0.5574	0.4426	0.14041	0.028
Mof_H 	H 	0.5674	0.4326	0.1636	0.054
Mof_C 	C 	0.5282	0.4718	0.0705	-0.001
Mof_C 	C 	0.51265	0.48735	0.0343	0.051
Mof_C 	C 	0.22407	0.77593	0.47374	0.028
Mof_H 	H 	0.23407	0.76593	0.49693	0.054
Mof_C 	C 	0.19487	0.80513	0.40383	-0.001
Mof_C 	C 	0.17932	0.82068	0.36763	0.051
Mof_C 	C 	0.89073	0.10927	0.80708	0.027
Mof_H 	H 	0.90073	0.09927	0.83027	0.055
Mof_C 	C 	0.86153	0.13847	0.73717	-0.001
Mof_C 	C 	0.84598	0.15402	0.70097	0.051
Mof_C 	C 	0.1148	0.5574	0.85959	0.028
Mof_H 	H 	0.1348	0.5674	0.8364	0.054
Mof_C 	C 	0.0564	0.5282	0.9295	-0.001
Mof_C 	C 	0.0253	0.51265	0.9657	0.051
Mof_C 	C 	0.78147	0.89073	0.19292	0.027
Mof_H 	H 	0.80147	0.90073	0.16973	0.055
Mof_C 	C 	0.72307	0.86153	0.26283	-0.001
Mof_C 	C 	0.69197	0.84598	0.29903	0.051
Mof_C 	C 	0.44813	0.22407	0.52626	0.028
Mof_H 	H 	0.46813	0.23407	0.50307	0.054
Mof_C 	C 	0.38973	0.19487	0.59617	-0.001
Mof_C 	C 	0.35863	0.17932	0.63237	0.051
Mof_C 	C 	0.4426	0.8852	0.85959	0.028
Mof_H 	H 	0.4326	0.8652	0.8364	0.054
Mof_C 	C 	0.4718	0.9436	0.9295	-0.001
Mof_C 	C 	0.48735	0.9747	0.9657	0.051
Mof_C 	C 	0.10927	0.21853	0.19292	0.027
Mof_H 	H 	0.09927	0.19853	0.16973	0.055
Mof_C 	C 	0.13847	0.27693	0.26283	-0.001
Mof_C 	C 	0.15402	0.30803	0.29903	0.051
Mof_C 	C 	0.77593	0.55187	0.52626	0.028
Mof_H 	H 	0.76593	0.53187	0.50307	0.054
Mof_C 	C 	0.80513	0.61027	0.59617	-0.001
Mof_C 	C 	0.82068	0.64137	0.63237	0.051
Mof_C 	C 	0.4426	0.5574	0.85959	0.028
Mof_H 	H 	0.4326	0.5674	0.8364	0.054
Mof_C 	C 	0.4718	0.5282	0.9295	-0.001
Mof_C 	C 	0.48735	0.51265	0.9657	0.051
Mof_C 	C 	0.10927	0.89073	0.19292	0.027
Mof_H 	H 	0.09927	0.90073	0.16973	0.055
Mof_C 	C 	0.13847	0.86153	0.26283	-0.001
Mof_C 	C 	0.15402	0.84598	0.29903	0.051
Mof_C 	C 	0.77593	0.22407	0.52626	0.028
Mof_H 	H 	0.76593	0.23407	0.50307	0.054
Mof_C 	C 	0.80513	0.19487	0.59617	-0.001
Mof_C 	C 	0.82068	0.17932	0.63237	0.051
_end
