data_functionalizedCrystal
_audit_creation_method	'EQeq! by Chris Wilmer'
_symmetry_space_group_name_H-M	'P1'
_symmetry_Int_Tables_number	1
_symmetry_cell_setting	triclinic
loop_
_symmetry_equiv_pos_as_xyz
  x,y,z
_cell_length_a	17.966
_cell_length_b	27.989
_cell_length_c	14.141
_cell_angle_alpha	90
_cell_angle_beta	92.381
_cell_angle_gamma	90
loop_
_atom_site_label
_atom_site_type_symbol
_atom_site_fract_x
_atom_site_fract_y
_atom_site_fract_z
_atom_site_charge
Mof_Mn	Mn	0.00414	0.17825	0.10681	0.871
Mof_O 	O 	0.0365	0.1165	0.1872	-0.365
Mof_N 	N 	0.9581	0.2359	0.007	-0.185
Mof_N 	N 	0.1079	0.1758	0.0181	-0.191
Mof_O 	O 	0.8995	0.1904	0.1686	-0.359
Mof_O 	O 	0.0708	0.2259	0.1918	-0.369
Mof_N 	N 	0.9518	0.1193	0.0111	-0.186
Mof_C 	C 	0.8845	0.2147	0.2414	0.324
Mof_C 	C 	0.805	0.2312	0.2461	0.013
Mof_C 	C 	0.0243	0.0174	0.1713	-0.145
Mof_C 	C 	0.7546	0.2249	0.1698	-0.151
Mof_C 	C 	0.7832	0.2548	0.3272	-0.148
Mof_H 	H 	0.0402	0.034	0.1189	0.094
Mof_C 	C 	0.0245	0.9681	0.1722	0.162
Mof_C 	C 	0.6827	0.2415	0.1764	0.168
Mof_H 	H 	0.7692	0.2098	0.115	0.098
Mof_C 	C 	0.7112	0.2714	0.3316	0.165
Mof_H 	H 	0.817	0.2593	0.3781	0.095
Mof_N 	N 	0.0468	0.9416	0.0928	-0.158
Mof_N 	N 	0.6305	0.238	0.0978	-0.16
Mof_C 	C 	0.6606	0.265	0.2556	-0.222
Mof_N 	N 	0.688	0.2961	0.4138	-0.159
Mof_C 	C 	0.0146	0.9003	0.0602	0.085
Mof_C 	C 	0.1085	0.9496	0.0374	0.055
Mof_C 	C 	0.6075	0.1982	0.0454	0.058
Mof_C 	C 	0.5889	0.2754	0.0635	0.101
Mof_H 	H 	0.6122	0.2766	0.2585	0.112
Mof_C 	C 	0.7264	0.331	0.4662	0.056
Mof_C 	C 	0.6184	0.2941	0.4475	0.097
Mof_H 	H 	0.9725	0.8872	0.0861	0.003
Mof_C 	C 	0.1082	0.9113	0.9722	0.071
Mof_C 	C 	0.1643	0.9835	0.041	-0.089
Mof_C 	C 	0.6278	0.1505	0.0509	-0.088
Mof_C 	C 	0.5528	0.2151	0.9794	0.068
Mof_H 	H 	0.5932	0.3062	0.0877	-0.008
Mof_C 	C 	0.797	0.3509	0.46	-0.086
Mof_C 	C 	0.6756	0.348	0.5313	0.07
Mof_H 	H 	0.5816	0.2736	0.4234	-0.007
Mof_C 	C 	0.1631	0.9083	0.9064	-0.106
Mof_C 	C 	0.2184	0.9802	0.9761	-0.028
Mof_H 	H 	0.165	0.0078	0.0858	0.064
Mof_H 	H 	0.6637	0.1397	0.095	0.064
Mof_C 	C 	0.5918	0.12	0.9873	-0.029
Mof_C 	C 	0.5184	0.184	0.9144	-0.104
Mof_H 	H 	0.8301	0.3399	0.4161	0.064
Mof_C 	C 	0.816	0.3874	0.521	-0.03
Mof_C 	C 	0.6964	0.3839	0.5949	-0.107
Mof_H 	H 	0.1633	0.8838	0.8621	0.08
Mof_C 	C 	0.2176	0.9434	0.909	-0.015
Mof_H 	H 	0.2564	0.0027	0.9766	0.039
Mof_C 	C 	0.5377	0.1362	0.9196	-0.017
Mof_H 	H 	0.6037	0.0876	0.9892	0.038
Mof_H 	H 	0.4837	0.195	0.8689	0.078
Mof_C 	C 	0.767	0.4035	0.5884	-0.016
Mof_H 	H 	0.8625	0.4018	0.5175	0.04
Mof_H 	H 	0.6641	0.3945	0.6402	0.078
Mof_H 	H 	0.2546	0.9424	0.8651	0.033
Mof_H 	H 	0.5147	0.1145	0.878	0.033
Mof_H 	H 	0.782	0.4278	0.6297	0.033
Mof_Mn	Mn	0.50414	0.67825	0.10681	0.879
Mof_O 	O 	0.5365	0.6165	0.1872	-0.366
Mof_N 	N 	0.4581	0.7359	0.007	-0.19
Mof_N 	N 	0.6079	0.6758	0.0181	-0.19
Mof_O 	O 	0.3995	0.6904	0.1686	-0.363
Mof_O 	O 	0.5708	0.7259	0.1918	-0.368
Mof_N 	N 	0.4518	0.6193	0.0111	-0.187
Mof_C 	C 	0.3845	0.7147	0.2414	0.325
Mof_C 	C 	0.305	0.7312	0.2461	0.012
Mof_C 	C 	0.5243	0.5174	0.1713	-0.145
Mof_C 	C 	0.2546	0.7249	0.1698	-0.15
Mof_C 	C 	0.2832	0.7548	0.3272	-0.147
Mof_H 	H 	0.5402	0.534	0.1189	0.095
Mof_C 	C 	0.5245	0.4681	0.1722	0.163
Mof_C 	C 	0.1827	0.7415	0.1764	0.167
Mof_H 	H 	0.2692	0.7098	0.115	0.098
Mof_C 	C 	0.2112	0.7714	0.3316	0.164
Mof_H 	H 	0.317	0.7593	0.3781	0.095
Mof_N 	N 	0.5468	0.4416	0.0928	-0.159
Mof_N 	N 	0.1305	0.738	0.0978	-0.16
Mof_C 	C 	0.1606	0.765	0.2556	-0.221
Mof_N 	N 	0.188	0.7961	0.4138	-0.159
Mof_C 	C 	0.5146	0.4003	0.0602	0.1
Mof_C 	C 	0.6085	0.4496	0.0374	0.056
Mof_C 	C 	0.1075	0.6982	0.0454	0.054
Mof_C 	C 	0.0889	0.7754	0.0635	0.098
Mof_H 	H 	0.1122	0.7766	0.2585	0.111
Mof_C 	C 	0.2264	0.831	0.4662	0.056
Mof_C 	C 	0.1184	0.7941	0.4475	0.097
Mof_H 	H 	0.4725	0.3872	0.0861	-0.008
Mof_C 	C 	0.6082	0.4113	0.9722	0.07
Mof_C 	C 	0.6643	0.4835	0.041	-0.085
Mof_C 	C 	0.1278	0.6505	0.0509	-0.087
Mof_C 	C 	0.0528	0.7151	0.9794	0.074
Mof_H 	H 	0.0932	0.8062	0.0877	-0.008
Mof_C 	C 	0.297	0.8509	0.46	-0.086
Mof_C 	C 	0.1756	0.848	0.5313	0.07
Mof_H 	H 	0.0816	0.7736	0.4234	-0.008
Mof_C 	C 	0.6631	0.4083	0.9064	-0.107
Mof_C 	C 	0.7184	0.4802	0.9761	-0.032
Mof_H 	H 	0.665	0.5078	0.0858	0.063
Mof_H 	H 	0.1637	0.6397	0.095	0.063
Mof_C 	C 	0.0918	0.62	0.9873	-0.032
Mof_C 	C 	0.0184	0.684	0.9144	-0.118
Mof_H 	H 	0.3301	0.8399	0.4161	0.064
Mof_C 	C 	0.316	0.8874	0.521	-0.03
Mof_C 	C 	0.1964	0.8839	0.5949	-0.107
Mof_H 	H 	0.6633	0.3838	0.8621	0.081
Mof_C 	C 	0.7176	0.4434	0.909	-0.013
Mof_H 	H 	0.7564	0.5027	0.9766	0.04
Mof_C 	C 	0.0377	0.6362	0.9196	-0.01
Mof_H 	H 	0.1037	0.5876	0.9892	0.039
Mof_H 	H 	0.9837	0.695	0.8689	0.085
Mof_C 	C 	0.267	0.9035	0.5884	-0.016
Mof_H 	H 	0.3625	0.9018	0.5175	0.039
Mof_H 	H 	0.1641	0.8945	0.6402	0.078
Mof_H 	H 	0.7546	0.4424	0.8651	0.032
Mof_H 	H 	0.0147	0.6145	0.878	0.029
Mof_H 	H 	0.282	0.9278	0.6297	0.032
Mof_Mn	Mn	0.99586	0.17825	0.39319	0.887
Mof_O 	O 	0.9635	0.1165	0.3128	-0.36
Mof_N 	N 	0.0419	0.2359	0.493	-0.193
Mof_N 	N 	0.8921	0.1758	0.4819	-0.19
Mof_O 	O 	0.1005	0.1904	0.3314	-0.365
Mof_O 	O 	0.9292	0.2259	0.3082	-0.367
Mof_N 	N 	0.0482	0.1193	0.4889	-0.188
Mof_C 	C 	0.1155	0.2147	0.2586	0.325
Mof_C 	C 	0.195	0.2312	0.2539	0.012
Mof_C 	C 	0.9757	0.0174	0.3287	-0.139
Mof_C 	C 	0.2454	0.2249	0.3302	-0.15
Mof_C 	C 	0.2168	0.2548	0.1728	-0.147
Mof_H 	H 	0.9598	0.034	0.3811	0.094
Mof_C 	C 	0.9755	0.9681	0.3278	0.17
Mof_C 	C 	0.3173	0.2415	0.3236	0.168
Mof_H 	H 	0.2308	0.2098	0.385	0.098
Mof_C 	C 	0.2888	0.2714	0.1684	0.165
Mof_H 	H 	0.183	0.2593	0.1219	0.095
Mof_N 	N 	0.9532	0.9416	0.4072	-0.161
Mof_N 	N 	0.3695	0.238	0.4022	-0.16
Mof_C 	C 	0.3394	0.265	0.2444	-0.222
Mof_N 	N 	0.312	0.2961	0.0862	-0.159
Mof_C 	C 	0.9854	0.9003	0.4398	0.113
Mof_C 	C 	0.8915	0.9496	0.4626	0.057
Mof_C 	C 	0.3925	0.1982	0.4546	0.058
Mof_C 	C 	0.4111	0.2754	0.4365	0.1
Mof_H 	H 	0.3878	0.2766	0.2415	0.112
Mof_C 	C 	0.2736	0.331	0.0338	0.056
Mof_C 	C 	0.3816	0.2941	0.0525	0.097
Mof_H 	H 	0.0275	0.8872	0.4139	-0.015
Mof_C 	C 	0.8918	0.9113	0.5278	0.07
Mof_C 	C 	0.8357	0.9835	0.459	-0.086
Mof_C 	C 	0.3722	0.1505	0.4491	-0.089
Mof_C 	C 	0.4472	0.2151	0.5206	0.069
Mof_H 	H 	0.4068	0.3062	0.4123	-0.008
Mof_C 	C 	0.203	0.3509	0.04	-0.089
Mof_C 	C 	0.3244	0.348	0.9687	0.07
Mof_H 	H 	0.4184	0.2736	0.0766	-0.007
Mof_C 	C 	0.8369	0.9083	0.5936	-0.106
Mof_C 	C 	0.7816	0.9802	0.5239	-0.03
Mof_H 	H 	0.835	0.0078	0.4142	0.064
Mof_H 	H 	0.3363	0.1397	0.405	0.065
Mof_C 	C 	0.4082	0.12	0.5127	-0.028
Mof_C 	C 	0.4816	0.184	0.5856	-0.104
Mof_H 	H 	0.1699	0.3399	0.0839	0.064
Mof_C 	C 	0.184	0.3874	0.979	-0.028
Mof_C 	C 	0.3036	0.3839	0.9051	-0.106
Mof_H 	H 	0.8367	0.8838	0.6379	0.081
Mof_C 	C 	0.7824	0.9434	0.591	-0.014
Mof_H 	H 	0.7436	0.0027	0.5234	0.039
Mof_C 	C 	0.4623	0.1362	0.5804	-0.018
Mof_H 	H 	0.3963	0.0876	0.5108	0.037
Mof_H 	H 	0.5163	0.195	0.6311	0.077
Mof_C 	C 	0.233	0.4035	0.9116	-0.017
Mof_H 	H 	0.1375	0.4018	0.9825	0.037
Mof_H 	H 	0.3359	0.3945	0.8598	0.078
Mof_H 	H 	0.7454	0.9424	0.6349	0.032
Mof_H 	H 	0.4853	0.1145	0.622	0.033
Mof_H 	H 	0.218	0.4278	0.8703	0.033
Mof_Mn	Mn	0.49586	0.67825	0.39319	0.879
Mof_O 	O 	0.4635	0.6165	0.3128	-0.366
Mof_N 	N 	0.5419	0.7359	0.493	-0.19
Mof_N 	N 	0.3921	0.6758	0.4819	-0.19
Mof_O 	O 	0.6005	0.6904	0.3314	-0.362
Mof_O 	O 	0.4292	0.7259	0.3082	-0.368
Mof_N 	N 	0.5482	0.6193	0.4889	-0.187
Mof_C 	C 	0.6155	0.7147	0.2586	0.325
Mof_C 	C 	0.695	0.7312	0.2539	0.013
Mof_C 	C 	0.4757	0.5174	0.3287	-0.145
Mof_C 	C 	0.7454	0.7249	0.3302	-0.151
Mof_C 	C 	0.7168	0.7548	0.1728	-0.148
Mof_H 	H 	0.4598	0.534	0.3811	0.095
Mof_C 	C 	0.4755	0.4681	0.3278	0.163
Mof_C 	C 	0.8173	0.7415	0.3236	0.169
Mof_H 	H 	0.7308	0.7098	0.385	0.098
Mof_C 	C 	0.7888	0.7714	0.1684	0.166
Mof_H 	H 	0.683	0.7593	0.1219	0.095
Mof_N 	N 	0.4532	0.4416	0.4072	-0.159
Mof_N 	N 	0.8695	0.738	0.4022	-0.161
Mof_C 	C 	0.8394	0.765	0.2444	-0.222
Mof_N 	N 	0.812	0.7961	0.0862	-0.159
Mof_C 	C 	0.4854	0.4003	0.4398	0.1
Mof_C 	C 	0.3915	0.4496	0.4626	0.056
Mof_C 	C 	0.8925	0.6982	0.4546	0.063
Mof_C 	C 	0.9111	0.7754	0.4365	0.101
Mof_H 	H 	0.8878	0.7766	0.2415	0.113
Mof_C 	C 	0.7736	0.831	0.0338	0.057
Mof_C 	C 	0.8816	0.7941	0.0525	0.099
Mof_H 	H 	0.5275	0.3872	0.4139	-0.008
Mof_C 	C 	0.3918	0.4113	0.5278	0.07
Mof_C 	C 	0.3357	0.4835	0.459	-0.086
Mof_C 	C 	0.8722	0.6505	0.4491	-0.095
Mof_C 	C 	0.9472	0.7151	0.5206	0.063
Mof_H 	H 	0.9068	0.8062	0.4123	-0.007
Mof_C 	C 	0.703	0.8509	0.04	-0.085
Mof_C 	C 	0.8244	0.848	0.9687	0.069
Mof_H 	H 	0.9184	0.7736	0.0766	-0.006
Mof_C 	C 	0.3369	0.4083	0.5936	-0.106
Mof_C 	C 	0.2816	0.4802	0.5239	-0.03
Mof_H 	H 	0.335	0.5078	0.4142	0.064
Mof_H 	H 	0.8363	0.6397	0.405	0.067
Mof_C 	C 	0.9082	0.62	0.5127	-0.02
Mof_C 	C 	0.9816	0.684	0.5856	-0.086
Mof_H 	H 	0.6699	0.8399	0.0839	0.063
Mof_C 	C 	0.684	0.8874	0.979	-0.031
Mof_C 	C 	0.8036	0.8839	0.9051	-0.107
Mof_H 	H 	0.3367	0.3838	0.6379	0.08
Mof_C 	C 	0.2824	0.4434	0.591	-0.014
Mof_H 	H 	0.2436	0.5027	0.5234	0.039
Mof_C 	C 	0.9623	0.6362	0.5804	-0.028
Mof_H 	H 	0.8963	0.5876	0.5108	0.035
Mof_H 	H 	0.0163	0.695	0.6311	0.068
Mof_C 	C 	0.733	0.9035	0.9116	-0.016
Mof_H 	H 	0.6375	0.9018	0.9825	0.039
Mof_H 	H 	0.8359	0.8945	0.8598	0.078
Mof_H 	H 	0.2454	0.4424	0.6349	0.032
Mof_H 	H 	0.9853	0.6145	0.622	0.039
Mof_H 	H 	0.718	0.9278	0.8703	0.032
Mof_Mn	Mn	0.99586	0.82175	0.89319	0.885
Mof_O 	O 	0.9635	0.8835	0.8128	-0.362
Mof_N 	N 	0.0419	0.7641	0.993	-0.192
Mof_N 	N 	0.8921	0.8242	0.9819	-0.191
Mof_O 	O 	0.1005	0.8096	0.8314	-0.364
Mof_O 	O 	0.9292	0.7741	0.8082	-0.367
Mof_N 	N 	0.0482	0.8807	0.9889	-0.186
Mof_C 	C 	0.1155	0.7853	0.7586	0.325
Mof_C 	C 	0.195	0.7688	0.7539	0.012
Mof_C 	C 	0.9757	0.9826	0.8287	-0.141
Mof_C 	C 	0.2454	0.7751	0.8302	-0.151
Mof_C 	C 	0.2168	0.7452	0.6728	-0.147
Mof_H 	H 	0.9598	0.966	0.8811	0.095
Mof_C 	C 	0.9755	0.0319	0.8278	0.168
Mof_C 	C 	0.3173	0.7585	0.8236	0.168
Mof_H 	H 	0.2308	0.7902	0.885	0.098
Mof_C 	C 	0.2888	0.7286	0.6684	0.165
Mof_H 	H 	0.183	0.7407	0.6219	0.095
Mof_N 	N 	0.9532	0.0584	0.9072	-0.161
Mof_N 	N 	0.3695	0.762	0.9022	-0.16
Mof_C 	C 	0.3394	0.735	0.7444	-0.222
Mof_N 	N 	0.312	0.7039	0.5862	-0.159
Mof_C 	C 	0.9854	0.0997	0.9398	0.107
Mof_C 	C 	0.8915	0.0504	0.9626	0.056
Mof_C 	C 	0.3925	0.8018	0.9546	0.058
Mof_C 	C 	0.4111	0.7246	0.9365	0.1
Mof_H 	H 	0.3878	0.7234	0.7415	0.112
Mof_C 	C 	0.2736	0.669	0.5338	0.056
Mof_C 	C 	0.3816	0.7059	0.5525	0.097
Mof_H 	H 	0.0275	0.1128	0.9139	-0.012
Mof_C 	C 	0.8918	0.0887	0.0278	0.072
Mof_C 	C 	0.8357	0.0165	0.959	-0.089
Mof_C 	C 	0.3722	0.8495	0.9491	-0.089
Mof_C 	C 	0.4472	0.7849	0.0206	0.068
Mof_H 	H 	0.4068	0.6938	0.9123	-0.008
Mof_C 	C 	0.203	0.6491	0.54	-0.087
Mof_C 	C 	0.3244	0.652	0.4687	0.07
Mof_H 	H 	0.4184	0.7264	0.5766	-0.007
Mof_C 	C 	0.8369	0.0917	0.0936	-0.105
Mof_C 	C 	0.7816	0.0198	0.0239	-0.027
Mof_H 	H 	0.835	0.9922	0.9142	0.065
Mof_H 	H 	0.3363	0.8603	0.905	0.064
Mof_C 	C 	0.4082	0.88	0.0127	-0.029
Mof_C 	C 	0.4816	0.816	0.0856	-0.104
Mof_H 	H 	0.1699	0.6601	0.5839	0.063
Mof_C 	C 	0.184	0.6126	0.479	-0.03
Mof_C 	C 	0.3036	0.6161	0.4051	-0.107
Mof_H 	H 	0.8367	0.1162	0.1379	0.081
Mof_C 	C 	0.7824	0.0566	0.091	-0.015
Mof_H 	H 	0.7436	0.9973	0.0234	0.039
Mof_C 	C 	0.4623	0.8638	0.0804	-0.017
Mof_H 	H 	0.3963	0.9124	0.0108	0.038
Mof_H 	H 	0.5163	0.805	0.1311	0.078
Mof_C 	C 	0.233	0.5965	0.4116	-0.016
Mof_H 	H 	0.1375	0.5982	0.4825	0.038
Mof_H 	H 	0.3359	0.6055	0.3598	0.078
Mof_H 	H 	0.7454	0.0576	0.1349	0.033
Mof_H 	H 	0.4853	0.8855	0.122	0.033
Mof_H 	H 	0.218	0.5722	0.3703	0.032
Mof_Mn	Mn	0.49586	0.32175	0.89319	0.879
Mof_O 	O 	0.4635	0.3835	0.8128	-0.366
Mof_N 	N 	0.5419	0.2641	0.993	-0.19
Mof_N 	N 	0.3921	0.3242	0.9819	-0.19
Mof_O 	O 	0.6005	0.3096	0.8314	-0.362
Mof_O 	O 	0.4292	0.2741	0.8082	-0.368
Mof_N 	N 	0.5482	0.3807	0.9889	-0.188
Mof_C 	C 	0.6155	0.2853	0.7586	0.325
Mof_C 	C 	0.695	0.2688	0.7539	0.013
Mof_C 	C 	0.4757	0.4826	0.8287	-0.145
Mof_C 	C 	0.7454	0.2751	0.8302	-0.151
Mof_C 	C 	0.7168	0.2452	0.6728	-0.148
Mof_H 	H 	0.4598	0.466	0.8811	0.095
Mof_C 	C 	0.4755	0.5319	0.8278	0.163
Mof_C 	C 	0.8173	0.2585	0.8236	0.169
Mof_H 	H 	0.7308	0.2902	0.885	0.098
Mof_C 	C 	0.7888	0.2286	0.6684	0.165
Mof_H 	H 	0.683	0.2407	0.6219	0.095
Mof_N 	N 	0.4532	0.5584	0.9072	-0.159
Mof_N 	N 	0.8695	0.262	0.9022	-0.161
Mof_C 	C 	0.8394	0.235	0.7444	-0.222
Mof_N 	N 	0.812	0.2039	0.5862	-0.159
Mof_C 	C 	0.4854	0.5997	0.9398	0.1
Mof_C 	C 	0.3915	0.5504	0.9626	0.056
Mof_C 	C 	0.8925	0.3018	0.9546	0.063
Mof_C 	C 	0.9111	0.2246	0.9365	0.099
Mof_H 	H 	0.8878	0.2234	0.7415	0.113
Mof_C 	C 	0.7736	0.169	0.5338	0.056
Mof_C 	C 	0.8816	0.2059	0.5525	0.098
Mof_H 	H 	0.5275	0.6128	0.9139	-0.008
Mof_C 	C 	0.3918	0.5887	0.0278	0.07
Mof_C 	C 	0.3357	0.5165	0.959	-0.085
Mof_C 	C 	0.8722	0.3495	0.9491	-0.099
Mof_C 	C 	0.9472	0.2849	0.0206	0.062
Mof_H 	H 	0.9068	0.1938	0.9123	-0.007
Mof_C 	C 	0.703	0.1491	0.54	-0.086
Mof_C 	C 	0.8244	0.152	0.4687	0.07
Mof_H 	H 	0.9184	0.2264	0.5766	-0.006
Mof_C 	C 	0.3369	0.5917	0.0936	-0.107
Mof_C 	C 	0.2816	0.5198	0.0239	-0.032
Mof_H 	H 	0.335	0.4922	0.9142	0.063
Mof_H 	H 	0.8363	0.3603	0.905	0.068
Mof_C 	C 	0.9082	0.38	0.0127	-0.015
Mof_C 	C 	0.9816	0.316	0.0856	-0.08
Mof_H 	H 	0.6699	0.1601	0.5839	0.064
Mof_C 	C 	0.684	0.1126	0.479	-0.03
Mof_C 	C 	0.8036	0.1161	0.4051	-0.107
Mof_H 	H 	0.3367	0.6162	0.1379	0.081
Mof_C 	C 	0.2824	0.5566	0.091	-0.013
Mof_H 	H 	0.2436	0.4973	0.0234	0.039
Mof_C 	C 	0.9623	0.3638	0.0804	-0.033
Mof_H 	H 	0.8963	0.4124	0.0108	0.034
Mof_H 	H 	0.0163	0.305	0.1311	0.064
Mof_C 	C 	0.733	0.0965	0.4116	-0.016
Mof_H 	H 	0.6375	0.0982	0.4825	0.039
Mof_H 	H 	0.8359	0.1055	0.3598	0.078
Mof_H 	H 	0.2454	0.5576	0.1349	0.031
Mof_H 	H 	0.9853	0.3855	0.122	0.041
Mof_H 	H 	0.718	0.0722	0.3703	0.032
Mof_Mn	Mn	0.00414	0.82175	0.60681	0.872
Mof_O 	O 	0.0365	0.8835	0.6872	-0.365
Mof_N 	N 	0.9581	0.7641	0.507	-0.187
Mof_N 	N 	0.1079	0.8242	0.5181	-0.19
Mof_O 	O 	0.8995	0.8096	0.6686	-0.36
Mof_O 	O 	0.0708	0.7741	0.6918	-0.368
Mof_N 	N 	0.9518	0.8807	0.5111	-0.188
Mof_C 	C 	0.8845	0.7853	0.7414	0.324
Mof_C 	C 	0.805	0.7688	0.7461	0.013
Mof_C 	C 	0.0243	0.9826	0.6713	-0.145
Mof_C 	C 	0.7546	0.7751	0.6698	-0.151
Mof_C 	C 	0.7832	0.7452	0.8272	-0.147
Mof_H 	H 	0.0402	0.966	0.6189	0.094
Mof_C 	C 	0.0245	0.0319	0.6722	0.162
Mof_C 	C 	0.6827	0.7585	0.6764	0.168
Mof_H 	H 	0.7692	0.7902	0.615	0.098
Mof_C 	C 	0.7112	0.7286	0.8316	0.165
Mof_H 	H 	0.817	0.7407	0.8781	0.095
Mof_N 	N 	0.0468	0.0584	0.5928	-0.158
Mof_N 	N 	0.6305	0.762	0.5978	-0.16
Mof_C 	C 	0.6606	0.735	0.7556	-0.222
Mof_N 	N 	0.688	0.7039	0.9138	-0.159
Mof_C 	C 	0.0146	0.0997	0.5602	0.09
Mof_C 	C 	0.1085	0.0504	0.5374	0.055
Mof_C 	C 	0.6075	0.8018	0.5454	0.058
Mof_C 	C 	0.5889	0.7246	0.5635	0.1
Mof_H 	H 	0.6122	0.7234	0.7585	0.112
Mof_C 	C 	0.7264	0.669	0.9662	0.056
Mof_C 	C 	0.6184	0.7059	0.9475	0.097
Mof_H 	H 	0.9725	0.1128	0.5861	-0
Mof_C 	C 	0.1082	0.0887	0.4722	0.07
Mof_C 	C 	0.1643	0.0165	0.541	-0.086
Mof_C 	C 	0.6278	0.8495	0.5509	-0.089
Mof_C 	C 	0.5528	0.7849	0.4794	0.069
Mof_H 	H 	0.5932	0.6938	0.5877	-0.008
Mof_C 	C 	0.797	0.6491	0.96	-0.088
Mof_C 	C 	0.6756	0.652	0.0313	0.07
Mof_H 	H 	0.5816	0.7264	0.9234	-0.007
Mof_C 	C 	0.1631	0.0917	0.4064	-0.107
Mof_C 	C 	0.2184	0.0198	0.4761	-0.03
Mof_H 	H 	0.165	0.9922	0.5858	0.063
Mof_H 	H 	0.6637	0.8603	0.595	0.064
Mof_C 	C 	0.5918	0.88	0.4873	-0.028
Mof_C 	C 	0.5184	0.816	0.4144	-0.104
Mof_H 	H 	0.8301	0.6601	0.9161	0.065
Mof_C 	C 	0.816	0.6126	0.021	-0.028
Mof_C 	C 	0.6964	0.6161	0.0949	-0.106
Mof_H 	H 	0.1633	0.1162	0.3621	0.08
Mof_C 	C 	0.2176	0.0566	0.409	-0.014
Mof_H 	H 	0.2564	0.9973	0.4766	0.04
Mof_C 	C 	0.5377	0.8638	0.4196	-0.018
Mof_H 	H 	0.6037	0.9124	0.4892	0.037
Mof_H 	H 	0.4837	0.805	0.3689	0.077
Mof_C 	C 	0.767	0.5965	0.0884	-0.017
Mof_H 	H 	0.8625	0.5982	0.0175	0.039
Mof_H 	H 	0.6641	0.6055	0.1402	0.078
Mof_H 	H 	0.2546	0.0576	0.3651	0.032
Mof_H 	H 	0.5147	0.8855	0.378	0.033
Mof_H 	H 	0.782	0.5722	0.1297	0.033
Mof_Mn	Mn	0.50414	0.32175	0.60681	0.879
Mof_O 	O 	0.5365	0.3835	0.6872	-0.366
Mof_N 	N 	0.4581	0.2641	0.507	-0.19
Mof_N 	N 	0.6079	0.3242	0.5181	-0.19
Mof_O 	O 	0.3995	0.3096	0.6686	-0.362
Mof_O 	O 	0.5708	0.2741	0.6918	-0.368
Mof_N 	N 	0.4518	0.3807	0.5111	-0.187
Mof_C 	C 	0.3845	0.2853	0.7414	0.325
Mof_C 	C 	0.305	0.2688	0.7461	0.012
Mof_C 	C 	0.5243	0.4826	0.6713	-0.145
Mof_C 	C 	0.2546	0.2751	0.6698	-0.15
Mof_C 	C 	0.2832	0.2452	0.8272	-0.147
Mof_H 	H 	0.5402	0.466	0.6189	0.095
Mof_C 	C 	0.5245	0.5319	0.6722	0.163
Mof_C 	C 	0.1827	0.2585	0.6764	0.168
Mof_H 	H 	0.2692	0.2902	0.615	0.098
Mof_C 	C 	0.2112	0.2286	0.8316	0.165
Mof_H 	H 	0.317	0.2407	0.8781	0.095
Mof_N 	N 	0.5468	0.5584	0.5928	-0.159
Mof_N 	N 	0.1305	0.262	0.5978	-0.16
Mof_C 	C 	0.1606	0.235	0.7556	-0.221
Mof_N 	N 	0.188	0.2039	0.9138	-0.159
Mof_C 	C 	0.5146	0.5997	0.5602	0.1
Mof_C 	C 	0.6085	0.5504	0.5374	0.056
Mof_C 	C 	0.1075	0.3018	0.5454	0.054
Mof_C 	C 	0.0889	0.2246	0.5635	0.1
Mof_H 	H 	0.1122	0.2234	0.7585	0.111
Mof_C 	C 	0.2264	0.169	0.9662	0.057
Mof_C 	C 	0.1184	0.2059	0.9475	0.099
Mof_H 	H 	0.4725	0.6128	0.5861	-0.008
Mof_C 	C 	0.6082	0.5887	0.4722	0.07
Mof_C 	C 	0.6643	0.5165	0.541	-0.086
Mof_C 	C 	0.1278	0.3495	0.5509	-0.083
Mof_C 	C 	0.0528	0.2849	0.4794	0.075
Mof_H 	H 	0.0932	0.1938	0.5877	-0.008
Mof_C 	C 	0.297	0.1491	0.96	-0.086
Mof_C 	C 	0.1756	0.152	0.0313	0.069
Mof_H 	H 	0.0816	0.2264	0.9234	-0.008
Mof_C 	C 	0.6631	0.5917	0.4064	-0.106
Mof_C 	C 	0.7184	0.5198	0.4761	-0.03
Mof_H 	H 	0.665	0.4922	0.5858	0.064
Mof_H 	H 	0.1637	0.3603	0.595	0.062
Mof_C 	C 	0.0918	0.38	0.4873	-0.037
Mof_C 	C 	0.0184	0.316	0.4144	-0.124
Mof_H 	H 	0.3301	0.1601	0.9161	0.063
Mof_C 	C 	0.316	0.1126	0.021	-0.031
Mof_C 	C 	0.1964	0.1161	0.0949	-0.107
Mof_H 	H 	0.6633	0.6162	0.3621	0.08
Mof_C 	C 	0.7176	0.5566	0.409	-0.014
Mof_H 	H 	0.7564	0.4973	0.4766	0.04
Mof_C 	C 	0.0377	0.3638	0.4196	-0.005
Mof_H 	H 	0.1037	0.4124	0.4892	0.04
Mof_H 	H 	0.9837	0.305	0.3689	0.089
Mof_C 	C 	0.267	0.0965	0.0884	-0.016
Mof_H 	H 	0.3625	0.0982	0.0175	0.039
Mof_H 	H 	0.1641	0.1055	0.1402	0.078
Mof_H 	H 	0.7546	0.5576	0.3651	0.032
Mof_H 	H 	0.0147	0.3855	0.378	0.027
Mof_H 	H 	0.282	0.0722	0.1297	0.032
Mof_C 	C 	7.68437e-34	0.0959	0.25	0.316
Mof_C 	C 	7.68437e-34	0.0423	0.25	0.004
Mof_C 	C 	-1.00011e-18	0.9428	0.25	-0.222
Mof_H 	H 	-1.00011e-18	0.9096	0.25	0.111
Mof_C 	C 	0.5	0.5959	0.25	0.322
Mof_C 	C 	0.5	0.5423	0.25	0.009
Mof_C 	C 	0.5	0.4428	0.25	-0.214
Mof_H 	H 	0.5	0.4096	0.25	0.11
Mof_C 	C 	-4.00043e-18	0.9041	0.75	0.318
Mof_C 	C 	-4.00043e-18	0.9577	0.75	0.005
Mof_C 	C 	2.30531e-33	0.0572	0.75	-0.22
Mof_H 	H 	2.30531e-33	0.0904	0.75	0.111
Mof_C 	C 	0.5	0.4041	0.75	0.322
Mof_C 	C 	0.5	0.4577	0.75	0.009
Mof_C 	C 	0.5	0.5572	0.75	-0.214
Mof_H 	H 	0.5	0.5904	0.75	0.11
_end
