data_functionalizedCrystal
_audit_creation_method	'EQeq! by Chris Wilmer'
_symmetry_space_group_name_H-M	'P1'
_symmetry_Int_Tables_number	1
_symmetry_cell_setting	triclinic
loop_
_symmetry_equiv_pos_as_xyz
  x,y,z
_cell_length_a	12.659
_cell_length_b	8.247
_cell_length_c	23.794
_cell_angle_alpha	90
_cell_angle_beta	105.823
_cell_angle_gamma	90
loop_
_atom_site_label
_atom_site_type_symbol
_atom_site_fract_x
_atom_site_fract_y
_atom_site_fract_z
_atom_site_charge
Mof_Bi	Bi	0.22648	0.67332	0.13127	0.843
Mof_Nd	Nd	0.7103	0.49915	0.11515	2.371
Mof_O 	O 	0.0688	0.6022	0.16026	-0.395
Mof_O 	O 	0.9061	0.485	0.12891	-0.579
Mof_O 	O 	0.1978	0.5934	0.02762	-0.414
Mof_O 	O 	0.264	0.4074	0.9786	-0.518
Mof_O 	O 	0.2436	0.7974	0.22939	-0.406
Mof_O 	O 	0.275	0.7571	0.32517	-0.603
Mof_O 	O 	0.4012	0.572	0.12152	-0.427
Mof_O 	O 	0.5764	0.5447	0.1725	-0.576
Mof_O 	O 	0.757	0.7921	0.1213	-0.998
Mof_H 	H 	0.6939	0.8222	0.0978	0.842
Mof_H 	H 	0.7958	0.8881	0.1436	0.293
Mof_O 	O 	0.5498	0.676	0.0556	-1.153
Mof_H 	H 	0.5692	0.7755	0.0628	0.349
Mof_H 	H 	0.5013	0.6464	0.0753	0.36
Mof_O 	O 	0.3811	0.4746	0.4561	-0.275
Mof_H 	H 	0.3244	0.5473	0.4358	0.1
Mof_H 	H 	0.3658	0.4349	0.4858	0.187
Mof_N 	N 	0.1692	0.3859	0.10917	-0.061
Mof_N 	N 	0.3278	0.5018	0.21453	-0.062
Mof_C 	C 	0.2034	0.285	0.16306	-0.07
Mof_H 	H 	0.2002	0.1712	0.1523	0.031
Mof_H 	H 	0.1529	0.3024	0.1866	0.04
Mof_C 	C 	0.3183	0.3264	0.19843	-0.073
Mof_H 	H 	0.3374	0.2612	0.2337	0.037
Mof_H 	H 	0.3696	0.3009	0.176	0.039
Mof_C 	C 	0.0476	0.3928	0.0891	-0.363
Mof_H 	H 	0.0179	0.2843	0.0889	0.123
Mof_H 	H 	0.0248	0.4344	0.0495	0.126
Mof_C 	C 	0.0032	0.5004	0.1286	0.5
Mof_C 	C 	0.2151	0.3204	0.06227	-0.329
Mof_H 	H 	0.1673	0.2351	0.0415	0.117
Mof_H 	H 	0.2866	0.2731	0.0799	0.123
Mof_C 	C 	0.2263	0.4507	0.01927	0.472
Mof_C 	C 	0.2908	0.5325	0.26742	-0.342
Mof_H 	H 	0.3466	0.495	0.3015	0.119
Mof_H 	H 	0.2242	0.4713	0.2649	0.119
Mof_C 	C 	0.2688	0.7104	0.2746	0.494
Mof_C 	C 	0.4433	0.5544	0.22516	-0.34
Mof_H 	H 	0.4907	0.481	0.2527	0.121
Mof_H 	H 	0.4519	0.662	0.2423	0.113
Mof_C 	C 	0.4773	0.5569	0.1688	0.46
Mof_N 	N 	0.3562	0.3451	0.4241	-0.722
Mof_O 	O 	0.261	0.326	0.3879	-0.026
Mof_O 	O 	0.4247	0.227	0.4322	0.366
Mof_O 	O 	0.421	0.505	0.4653	-0.003
Mof_Bi	Bi	0.77352	0.17332	0.36874	0.844
Mof_Nd	Nd	0.2897	0.99915	0.38485	2.36
Mof_O 	O 	0.9312	0.1022	0.33974	-0.396
Mof_O 	O 	0.0939	0.985	0.37109	-0.584
Mof_O 	O 	0.8022	0.0934	0.47238	-0.415
Mof_O 	O 	0.736	0.9074	0.5214	-0.517
Mof_O 	O 	0.7564	0.2974	0.27061	-0.404
Mof_O 	O 	0.725	0.2571	0.17483	-0.601
Mof_O 	O 	0.5988	0.072	0.37848	-0.425
Mof_O 	O 	0.4236	0.0447	0.3275	-0.571
Mof_O 	O 	0.243	0.2921	0.3787	-0.995
Mof_H 	H 	0.3061	0.3222	0.4022	0.839
Mof_H 	H 	0.2042	0.3881	0.3564	0.292
Mof_O 	O 	0.4502	0.176	0.4444	-1.15
Mof_H 	H 	0.4308	0.2755	0.4372	0.348
Mof_H 	H 	0.4987	0.1464	0.4247	0.36
Mof_O 	O 	0.6189	0.9746	0.0439	-0.268
Mof_H 	H 	0.6756	0.0473	0.0642	0.098
Mof_H 	H 	0.6342	0.9349	0.0142	0.185
Mof_N 	N 	0.8308	0.8859	0.39083	-0.061
Mof_N 	N 	0.6722	0.0018	0.28547	-0.063
Mof_C 	C 	0.7966	0.785	0.33694	-0.069
Mof_H 	H 	0.7998	0.6712	0.3477	0.029
Mof_H 	H 	0.8471	0.8024	0.3134	0.039
Mof_C 	C 	0.6817	0.8264	0.30157	-0.075
Mof_H 	H 	0.6626	0.7612	0.2663	0.036
Mof_H 	H 	0.6304	0.8009	0.324	0.038
Mof_C 	C 	0.9524	0.8928	0.4109	-0.365
Mof_H 	H 	0.9821	0.7843	0.4111	0.123
Mof_H 	H 	0.9752	0.9344	0.4505	0.128
Mof_C 	C 	0.9968	0.0004	0.3714	0.504
Mof_C 	C 	0.7849	0.8204	0.43773	-0.329
Mof_H 	H 	0.8327	0.7351	0.4585	0.117
Mof_H 	H 	0.7134	0.7731	0.4201	0.122
Mof_C 	C 	0.7737	0.9507	0.48073	0.473
Mof_C 	C 	0.7092	0.0325	0.23258	-0.328
Mof_H 	H 	0.6534	0.995	0.1985	0.112
Mof_H 	H 	0.7758	0.9713	0.2351	0.113
Mof_C 	C 	0.7312	0.2104	0.2254	0.491
Mof_C 	C 	0.5567	0.0544	0.27484	-0.329
Mof_H 	H 	0.5093	0.981	0.2473	0.115
Mof_H 	H 	0.5481	0.162	0.2577	0.11
Mof_C 	C 	0.5227	0.0569	0.3312	0.457
Mof_N 	N 	0.6438	0.8451	0.0759	-0.725
Mof_O 	O 	0.739	0.826	0.1121	-0.028
Mof_O 	O 	0.5753	0.727	0.0678	0.366
Mof_O 	O 	0.579	0.005	0.0347	-0.008
Mof_Bi	Bi	0.77352	0.32668	0.86874	0.842
Mof_Nd	Nd	0.2897	0.50085	0.88485	2.37
Mof_O 	O 	0.9312	0.3978	0.83974	-0.396
Mof_O 	O 	0.0939	0.515	0.87109	-0.58
Mof_O 	O 	0.8022	0.4066	0.97238	-0.415
Mof_O 	O 	0.736	0.5926	0.0214	-0.519
Mof_O 	O 	0.7564	0.2026	0.77061	-0.406
Mof_O 	O 	0.725	0.2429	0.67483	-0.603
Mof_O 	O 	0.5988	0.428	0.87848	-0.427
Mof_O 	O 	0.4236	0.4553	0.8275	-0.576
Mof_O 	O 	0.243	0.2079	0.8787	-0.998
Mof_H 	H 	0.3061	0.1778	0.9022	0.842
Mof_H 	H 	0.2042	0.1119	0.8564	0.293
Mof_O 	O 	0.4502	0.324	0.9444	-1.153
Mof_H 	H 	0.4308	0.2245	0.9372	0.349
Mof_H 	H 	0.4987	0.3536	0.9247	0.36
Mof_O 	O 	0.6189	0.5254	0.5439	-0.275
Mof_H 	H 	0.6756	0.4527	0.5642	0.1
Mof_H 	H 	0.6342	0.5651	0.5142	0.187
Mof_N 	N 	0.8308	0.6141	0.89083	-0.061
Mof_N 	N 	0.6722	0.4982	0.78547	-0.062
Mof_C 	C 	0.7966	0.715	0.83694	-0.07
Mof_H 	H 	0.7998	0.8288	0.8477	0.031
Mof_H 	H 	0.8471	0.6976	0.8134	0.04
Mof_C 	C 	0.6817	0.6736	0.80157	-0.073
Mof_H 	H 	0.6626	0.7388	0.7663	0.037
Mof_H 	H 	0.6304	0.6991	0.824	0.039
Mof_C 	C 	0.9524	0.6072	0.9109	-0.363
Mof_H 	H 	0.9821	0.7157	0.9111	0.123
Mof_H 	H 	0.9752	0.5656	0.9505	0.126
Mof_C 	C 	0.9968	0.4996	0.8714	0.5
Mof_C 	C 	0.7849	0.6796	0.93773	-0.329
Mof_H 	H 	0.8327	0.7649	0.9585	0.117
Mof_H 	H 	0.7134	0.7269	0.9201	0.123
Mof_C 	C 	0.7737	0.5493	0.98073	0.472
Mof_C 	C 	0.7092	0.4675	0.73258	-0.342
Mof_H 	H 	0.6534	0.505	0.6985	0.119
Mof_H 	H 	0.7758	0.5287	0.7351	0.119
Mof_C 	C 	0.7312	0.2896	0.7254	0.494
Mof_C 	C 	0.5567	0.4456	0.77484	-0.34
Mof_H 	H 	0.5093	0.519	0.7473	0.121
Mof_H 	H 	0.5481	0.338	0.7577	0.113
Mof_C 	C 	0.5227	0.4431	0.8312	0.46
Mof_N 	N 	0.6438	0.6549	0.5759	-0.722
Mof_O 	O 	0.739	0.674	0.6121	-0.026
Mof_O 	O 	0.5753	0.773	0.5678	0.366
Mof_O 	O 	0.579	0.495	0.5347	-0.003
Mof_Bi	Bi	0.22648	0.82668	0.63127	0.844
Mof_Nd	Nd	0.7103	0.00085	0.61515	2.36
Mof_O 	O 	0.0688	0.8978	0.66026	-0.396
Mof_O 	O 	0.9061	0.015	0.62891	-0.584
Mof_O 	O 	0.1978	0.9066	0.52762	-0.415
Mof_O 	O 	0.264	0.0926	0.4786	-0.517
Mof_O 	O 	0.2436	0.7026	0.72939	-0.404
Mof_O 	O 	0.275	0.7429	0.82517	-0.601
Mof_O 	O 	0.4012	0.928	0.62152	-0.425
Mof_O 	O 	0.5764	0.9553	0.6725	-0.571
Mof_O 	O 	0.757	0.7079	0.6213	-0.995
Mof_H 	H 	0.6939	0.6778	0.5978	0.839
Mof_H 	H 	0.7958	0.6119	0.6436	0.292
Mof_O 	O 	0.5498	0.824	0.5556	-1.15
Mof_H 	H 	0.5692	0.7245	0.5628	0.348
Mof_H 	H 	0.5013	0.8536	0.5753	0.36
Mof_O 	O 	0.3811	0.0254	0.9561	-0.268
Mof_H 	H 	0.3244	0.9527	0.9358	0.098
Mof_H 	H 	0.3658	0.0651	0.9858	0.185
Mof_N 	N 	0.1692	0.1141	0.60917	-0.061
Mof_N 	N 	0.3278	0.9982	0.71453	-0.063
Mof_C 	C 	0.2034	0.215	0.66306	-0.069
Mof_H 	H 	0.2002	0.3288	0.6523	0.029
Mof_H 	H 	0.1529	0.1976	0.6866	0.039
Mof_C 	C 	0.3183	0.1736	0.69843	-0.075
Mof_H 	H 	0.3374	0.2388	0.7337	0.036
Mof_H 	H 	0.3696	0.1991	0.676	0.038
Mof_C 	C 	0.0476	0.1072	0.5891	-0.365
Mof_H 	H 	0.0179	0.2157	0.5889	0.123
Mof_H 	H 	0.0248	0.0656	0.5495	0.128
Mof_C 	C 	0.0032	0.9996	0.6286	0.504
Mof_C 	C 	0.2151	0.1796	0.56227	-0.329
Mof_H 	H 	0.1673	0.2649	0.5415	0.117
Mof_H 	H 	0.2866	0.2269	0.5799	0.122
Mof_C 	C 	0.2263	0.0493	0.51927	0.473
Mof_C 	C 	0.2908	0.9675	0.76742	-0.328
Mof_H 	H 	0.3466	0.005	0.8015	0.112
Mof_H 	H 	0.2242	0.0287	0.7649	0.113
Mof_C 	C 	0.2688	0.7896	0.7746	0.491
Mof_C 	C 	0.4433	0.9456	0.72516	-0.329
Mof_H 	H 	0.4907	0.019	0.7527	0.115
Mof_H 	H 	0.4519	0.838	0.7423	0.11
Mof_C 	C 	0.4773	0.9431	0.6688	0.457
Mof_N 	N 	0.3562	0.1549	0.9241	-0.725
Mof_O 	O 	0.261	0.174	0.8879	-0.028
Mof_O 	O 	0.4247	0.273	0.9322	0.366
Mof_O 	O 	0.421	0.995	0.9653	-0.008
_end
