data_functionalizedCrystal
_audit_creation_method	'EQeq! by Chris Wilmer'
_symmetry_space_group_name_H-M	'P1'
_symmetry_Int_Tables_number	1
_symmetry_cell_setting	triclinic
loop_
_symmetry_equiv_pos_as_xyz
  x,y,z
_cell_length_a	10.8512
_cell_length_b	11.014
_cell_length_c	17.237
_cell_angle_alpha	106.171
_cell_angle_beta	90
_cell_angle_gamma	90
loop_
_atom_site_label
_atom_site_type_symbol
_atom_site_fract_x
_atom_site_fract_y
_atom_site_fract_z
_atom_site_charge
Mof_Cd	Cd	0.3145	0.8787	0.68443	0.431
Mof_Cd	Cd	0.6855	0.1213	0.31557	0.431
Mof_Cd	Cd	0.8145	0.6213	0.81557	0.431
Mof_Cd	Cd	0.1855	0.3787	0.18443	0.431
Mof_H 	H 	0.8037	0.2924	0.7944	0.019
Mof_H 	H 	0.2411	0.3961	0.6495	0.072
Mof_H 	H 	0.1662	0.448	0.0018	0.021
Mof_H 	H 	0.3338	0.948	0.5018	0.021
Mof_H 	H 	0.8472	0.3952	0.551	0.059
Mof_H 	H 	0.7089	0.1431	0.9439	0.084
Mof_H 	H 	0.5901	0.7153	0.6831	0.035
Mof_H 	H 	0.7589	0.6039	0.3505	0.072
Mof_H 	H 	0.591	0.2684	0.509	0.016
Mof_H 	H 	0.1293	0.0071	0.0867	0.065
Mof_H 	H 	0.2089	0.3569	0.5561	0.084
Mof_H 	H 	0.6963	0.7924	0.2944	0.019
Mof_H 	H 	0.909	0.7684	0.009	0.017
Mof_H 	H 	0.1528	0.6048	0.449	0.059
Mof_H 	H 	0.2589	0.8961	0.1495	0.072
Mof_H 	H 	0.0482	0.9109	0.1181	0.06
Mof_H 	H 	0.6293	0.4929	0.4133	0.066
Mof_H 	H 	0.5482	0.5891	0.3819	0.06
Mof_H 	H 	0.8707	0.9929	0.9133	0.065
Mof_H 	H 	0.3037	0.2076	0.7056	0.019
Mof_H 	H 	0.4099	0.2847	0.3169	0.035
Mof_H 	H 	0.4518	0.4109	0.6181	0.06
Mof_H 	H 	0.409	0.7316	0.491	0.016
Mof_H 	H 	0.9099	0.2153	0.1831	0.035
Mof_H 	H 	0.3472	0.1048	0.949	0.058
Mof_H 	H 	0.7911	0.6431	0.4439	0.084
Mof_H 	H 	0.7411	0.1039	0.8505	0.072
Mof_H 	H 	0.9518	0.0891	0.8819	0.06
Mof_H 	H 	0.2911	0.8569	0.0561	0.084
Mof_H 	H 	0.091	0.2316	0.991	0.017
Mof_H 	H 	0.8338	0.552	0.9982	0.021
Mof_H 	H 	0.3707	0.5071	0.5867	0.066
Mof_H 	H 	0.1963	0.7076	0.2056	0.019
Mof_H 	H 	0.6528	0.8952	0.051	0.058
Mof_H 	H 	0.0901	0.7847	0.8169	0.035
Mof_H 	H 	0.6662	0.052	0.4982	0.021
Mof_C 	C 	0.9327	0.4019	0.4481	-0.037
Mof_C 	C 	0.0911	0.5625	0.4697	-0.012
Mof_C 	C 	0.6923	0.8354	0.3497	0.094
Mof_C 	C 	0.3077	0.1646	0.6503	0.094
Mof_C 	C 	0.5253	0.035	0.0829	-0.035
Mof_C 	C 	0.0325	0.2119	0.0259	0.099
Mof_C 	C 	0.5618	0.0724	0.1704	0.287
Mof_C 	C 	0.4324	0.2982	0.3713	0.098
Mof_C 	C 	0.4089	0.0625	0.9697	-0.011
Mof_C 	C 	0.2277	0.8523	0.0957	-0.066
Mof_C 	C 	0.9324	0.2018	0.1287	0.098
Mof_C 	C 	0.8881	0.0827	0.9209	-0.041
Mof_C 	C 	0.2723	0.3523	0.5957	-0.066
Mof_C 	C 	0.6766	0.9731	0.4601	0.103
Mof_C 	C 	0.8077	0.3354	0.8497	0.094
Mof_C 	C 	0.4675	0.7119	0.5259	0.1
Mof_C 	C 	0.4747	0.965	0.9171	-0.035
Mof_C 	C 	0.5676	0.7018	0.6287	0.098
Mof_C 	C 	0.9675	0.7881	0.9741	0.099
Mof_C 	C 	0.9747	0.535	0.5829	-0.035
Mof_C 	C 	0.8527	0.3021	0.3938	0.289
Mof_C 	C 	0.3881	0.4173	0.5791	-0.042
Mof_C 	C 	0.1766	0.5269	0.0399	0.103
Mof_C 	C 	0.0676	0.7982	0.8713	0.098
Mof_C 	C 	0.7277	0.6477	0.4043	-0.066
Mof_C 	C 	0.6119	0.5827	0.4209	-0.042
Mof_C 	C 	0.1923	0.6646	0.1503	0.094
Mof_C 	C 	0.0253	0.465	0.4171	-0.035
Mof_C 	C 	0.3234	0.0269	0.5399	0.103
Mof_C 	C 	0.9382	0.5724	0.6704	0.287
Mof_C 	C 	0.6473	0.8021	0.8938	0.289
Mof_C 	C 	0.5911	0.9375	0.0303	-0.011
Mof_C 	C 	0.4382	0.9276	0.8296	0.287
Mof_C 	C 	0.1119	0.9173	0.0791	-0.041
Mof_C 	C 	0.0618	0.4276	0.3296	0.287
Mof_C 	C 	0.8234	0.4731	0.9601	0.103
Mof_C 	C 	0.0673	0.5981	0.5519	-0.037
Mof_C 	C 	0.9089	0.4375	0.5303	-0.012
Mof_C 	C 	0.5325	0.2881	0.4741	0.1
Mof_C 	C 	0.7723	0.1477	0.9043	-0.066
Mof_C 	C 	0.5673	0.9019	0.9481	-0.038
Mof_C 	C 	0.1473	0.6979	0.6062	0.289
Mof_C 	C 	0.3527	0.1979	0.1062	0.289
Mof_C 	C 	0.4327	0.0981	0.0519	-0.038
Mof_N 	N 	0.3669	0.3689	0.4313	-0.085
Mof_N 	N 	0.8057	0.3688	0.981	-0.08
Mof_N 	N 	0.6331	0.6311	0.5687	-0.085
Mof_N 	N 	0.0653	0.8624	0.9974	-0.084
Mof_N 	N 	0.1943	0.6312	0.019	-0.08
Mof_N 	N 	0.8255	0.459	0.8794	-0.146
Mof_N 	N 	0.8669	0.1311	0.0687	-0.085
Mof_N 	N 	0.3057	0.1312	0.519	-0.08
Mof_N 	N 	0.0349	0.2538	0.1059	-0.145
Mof_N 	N 	0.7037	0.7813	0.4089	-0.082
Mof_N 	N 	0.2963	0.2187	0.5911	-0.082
Mof_N 	N 	0.2037	0.7187	0.0911	-0.082
Mof_N 	N 	0.7963	0.2813	0.9089	-0.082
Mof_N 	N 	0.9651	0.7462	0.8941	-0.145
Mof_N 	N 	0.6943	0.8688	0.481	-0.08
Mof_N 	N 	0.5349	0.2462	0.3941	-0.145
Mof_N 	N 	0.5653	0.6376	0.5026	-0.084
Mof_N 	N 	0.1745	0.541	0.1206	-0.146
Mof_N 	N 	0.9347	0.1376	0.0026	-0.084
Mof_N 	N 	0.4347	0.3624	0.4974	-0.084
Mof_N 	N 	0.1331	0.8689	0.9313	-0.085
Mof_N 	N 	0.6745	0.959	0.3794	-0.146
Mof_N 	N 	0.4651	0.7538	0.6059	-0.145
Mof_N 	N 	0.3255	0.041	0.6206	-0.146
Mof_O 	O 	0.1055	0.3203	0.29859	-0.249
Mof_O 	O 	0.3195	0.1874	0.1727	-0.254
Mof_O 	O 	0.3945	0.8203	0.79859	-0.248
Mof_O 	O 	0.8198	0.2116	0.4212	-0.263
Mof_O 	O 	0.8945	0.6797	0.70141	-0.249
Mof_O 	O 	0.5557	0.9895	0.2084	-0.254
Mof_O 	O 	0.3198	0.2884	0.0788	-0.263
Mof_O 	O 	0.6802	0.7116	0.9212	-0.263
Mof_O 	O 	0.6055	0.1797	0.20141	-0.248
Mof_O 	O 	0.9443	0.4895	0.7084	-0.254
Mof_O 	O 	0.8195	0.3126	0.3273	-0.254
Mof_O 	O 	0.6805	0.8126	0.8273	-0.254
Mof_O 	O 	0.1802	0.7884	0.5788	-0.263
Mof_O 	O 	0.4443	0.0105	0.7916	-0.254
Mof_O 	O 	0.1805	0.6874	0.6727	-0.254
Mof_O 	O 	0.0557	0.5105	0.2916	-0.254
_end
