data_functionalizedCrystal
_audit_creation_method	'EQeq! by Chris Wilmer'
_symmetry_space_group_name_H-M	'P1'
_symmetry_Int_Tables_number	1
_symmetry_cell_setting	triclinic
loop_
_symmetry_equiv_pos_as_xyz
  x,y,z
_cell_length_a	15.629
_cell_length_b	15.991
_cell_length_c	9.2343
_cell_angle_alpha	90
_cell_angle_beta	102.774
_cell_angle_gamma	90
loop_
_atom_site_label
_atom_site_type_symbol
_atom_site_fract_x
_atom_site_fract_y
_atom_site_fract_z
_atom_site_charge
Mof_O 	O 	0.88982	0.57855	0.572	-0.274
Mof_O 	O 	0.9012	0.50132	0.7743	-0.263
Mof_N 	N 	0.54096	0.86386	0.9505	-0.111
Mof_N 	N 	0.5593	0.72467	0.9739	-0.068
Mof_N 	N 	0.61111	0.75756	0.8867	-0.122
Mof_C 	C 	0.5187	0.7912	0.0075	0.049
Mof_H 	H 	0.4775	0.7886	0.0662	0.034
Mof_C 	C 	0.5995	0.8396	0.8753	0.114
Mof_H 	H 	0.6284	0.875	0.8221	0.034
Mof_C 	C 	0.6724	0.7067	0.8317	0.196
Mof_C 	C 	0.6942	0.6289	0.8921	-0.201
Mof_H 	H 	0.6674	0.6084	0.9653	0.126
Mof_C 	C 	0.7128	0.7375	0.7251	-0.206
Mof_H 	H 	0.6989	0.7907	0.6861	0.123
Mof_C 	C 	0.7557	0.5818	0.8436	0.108
Mof_H 	H 	0.7696	0.5288	0.8836	0.02
Mof_C 	C 	0.7744	0.689	0.6757	0.11
Mof_H 	H 	0.8003	0.7091	0.6011	0.009
Mof_C 	C 	0.7974	0.61136	0.7367	-0.146
Mof_C 	C 	0.8681	0.5605	0.6902	0.332
Mof_O 	O 	0.38982	0.07855	0.572	-0.293
Mof_O 	O 	0.4012	0.00132	0.7743	-0.292
Mof_N 	N 	0.04096	0.36386	0.9505	-0.114
Mof_N 	N 	0.0593	0.22467	0.9739	-0.064
Mof_N 	N 	0.11111	0.25756	0.8867	-0.124
Mof_C 	C 	0.0187	0.2912	0.0075	-0.018
Mof_H 	H 	0.9775	0.2886	0.0662	0.075
Mof_C 	C 	0.0995	0.3396	0.8753	0.112
Mof_H 	H 	0.1284	0.375	0.8221	0.021
Mof_C 	C 	0.1724	0.2067	0.8317	0.191
Mof_C 	C 	0.1942	0.1289	0.8921	-0.206
Mof_H 	H 	0.1674	0.1084	0.9653	0.117
Mof_C 	C 	0.2128	0.2375	0.7251	-0.208
Mof_H 	H 	0.1989	0.2907	0.6861	0.118
Mof_C 	C 	0.2557	0.0818	0.8436	0.11
Mof_H 	H 	0.2696	0.0288	0.8836	0.005
Mof_C 	C 	0.2744	0.189	0.6757	0.111
Mof_H 	H 	0.3003	0.2091	0.6011	0.005
Mof_C 	C 	0.2974	0.11136	0.7367	-0.156
Mof_C 	C 	0.3681	0.0605	0.6902	0.335
Mof_O 	O 	0.11018	0.57855	0.928	-0.272
Mof_O 	O 	0.0988	0.50132	0.7257	-0.285
Mof_N 	N 	0.45904	0.86386	0.5495	-0.133
Mof_N 	N 	0.4407	0.72467	0.5261	-0.089
Mof_N 	N 	0.38889	0.75756	0.6133	-0.123
Mof_C 	C 	0.4813	0.7912	0.4925	0.101
Mof_H 	H 	0.5225	0.7886	0.4338	0.02
Mof_C 	C 	0.4005	0.8396	0.6247	0.11
Mof_H 	H 	0.3716	0.875	0.6779	0.033
Mof_C 	C 	0.3276	0.7067	0.6683	0.194
Mof_C 	C 	0.3058	0.6289	0.6079	-0.202
Mof_H 	H 	0.3326	0.6084	0.5347	0.119
Mof_C 	C 	0.2872	0.7375	0.7749	-0.205
Mof_H 	H 	0.3011	0.7907	0.8139	0.126
Mof_C 	C 	0.2443	0.5818	0.6564	0.108
Mof_H 	H 	0.2304	0.5288	0.6164	0.014
Mof_C 	C 	0.2256	0.689	0.8243	0.111
Mof_H 	H 	0.1997	0.7091	0.8989	0.013
Mof_C 	C 	0.2026	0.61136	0.7633	-0.147
Mof_C 	C 	0.1319	0.5605	0.8098	0.334
Mof_O 	O 	0.61018	0.07855	0.928	-0.278
Mof_O 	O 	0.5988	0.00132	0.7257	-0.298
Mof_N 	N 	0.95904	0.36386	0.5495	-0.144
Mof_N 	N 	0.9407	0.22467	0.5261	-0.097
Mof_N 	N 	0.88889	0.25756	0.6133	-0.124
Mof_C 	C 	0.9813	0.2912	0.4925	0.159
Mof_H 	H 	0.0225	0.2886	0.4338	-0.023
Mof_C 	C 	0.9005	0.3396	0.6247	0.113
Mof_H 	H 	0.8716	0.375	0.6779	0.024
Mof_C 	C 	0.8276	0.2067	0.6683	0.198
Mof_C 	C 	0.8058	0.1289	0.6079	-0.209
Mof_H 	H 	0.8326	0.1084	0.5347	0.117
Mof_C 	C 	0.7872	0.2375	0.7749	-0.209
Mof_H 	H 	0.8011	0.2907	0.8139	0.126
Mof_C 	C 	0.7443	0.0818	0.6564	0.113
Mof_H 	H 	0.7304	0.0288	0.6164	0
Mof_C 	C 	0.7256	0.189	0.8243	0.115
Mof_H 	H 	0.6997	0.2091	0.8989	0.01
Mof_C 	C 	0.7026	0.11136	0.7633	-0.156
Mof_C 	C 	0.6319	0.0605	0.8098	0.336
Mof_O 	O 	0.11018	0.42145	0.428	-0.287
Mof_O 	O 	0.0988	0.49868	0.2257	-0.291
Mof_N 	N 	0.45904	0.13614	0.0495	-0.167
Mof_N 	N 	0.4407	0.27533	0.0261	-0.113
Mof_N 	N 	0.38889	0.24244	0.1133	-0.126
Mof_C 	C 	0.4813	0.2088	0.9925	0.159
Mof_H 	H 	0.5225	0.2114	0.9338	0.007
Mof_C 	C 	0.4005	0.1604	0.1247	0.104
Mof_H 	H 	0.3716	0.125	0.1779	0.009
Mof_C 	C 	0.3276	0.2933	0.1683	0.187
Mof_C 	C 	0.3058	0.3711	0.1079	-0.204
Mof_H 	H 	0.3326	0.3916	0.0347	0.113
Mof_C 	C 	0.2872	0.2625	0.2749	-0.207
Mof_H 	H 	0.3011	0.2093	0.3139	0.113
Mof_C 	C 	0.2443	0.4182	0.1564	0.104
Mof_H 	H 	0.2304	0.4712	0.1164	0.008
Mof_C 	C 	0.2256	0.311	0.3243	0.107
Mof_H 	H 	0.1997	0.2909	0.3989	0.004
Mof_C 	C 	0.2026	0.38864	0.2633	-0.153
Mof_C 	C 	0.1319	0.4395	0.3098	0.335
Mof_O 	O 	0.61018	0.92145	0.428	-0.262
Mof_O 	O 	0.5988	0.99868	0.2257	-0.254
Mof_N 	N 	0.95904	0.63614	0.0495	-0.16
Mof_N 	N 	0.9407	0.77533	0.0261	-0.109
Mof_N 	N 	0.88889	0.74244	0.1133	-0.124
Mof_C 	C 	0.9813	0.7088	0.9925	0.204
Mof_H 	H 	0.0225	0.7114	0.9338	-0.026
Mof_C 	C 	0.9005	0.6604	0.1247	0.108
Mof_H 	H 	0.8716	0.625	0.1779	0.022
Mof_C 	C 	0.8276	0.7933	0.1683	0.192
Mof_C 	C 	0.8058	0.8711	0.1079	-0.198
Mof_H 	H 	0.8326	0.8916	0.0347	0.123
Mof_C 	C 	0.7872	0.7625	0.2749	-0.203
Mof_H 	H 	0.8011	0.7093	0.3139	0.118
Mof_C 	C 	0.7443	0.9182	0.1564	0.102
Mof_H 	H 	0.7304	0.9712	0.1164	0.025
Mof_C 	C 	0.7256	0.811	0.3243	0.106
Mof_H 	H 	0.6997	0.7909	0.3989	0.009
Mof_C 	C 	0.7026	0.88864	0.2633	-0.14
Mof_C 	C 	0.6319	0.9395	0.3098	0.329
Mof_O 	O 	0.88982	0.42145	0.072	-0.281
Mof_O 	O 	0.9012	0.49868	0.2743	-0.272
Mof_N 	N 	0.54096	0.13614	0.4505	-0.147
Mof_N 	N 	0.5593	0.27533	0.4739	-0.089
Mof_N 	N 	0.61111	0.24244	0.3867	-0.125
Mof_C 	C 	0.5187	0.2088	0.5075	0.101
Mof_H 	H 	0.4775	0.2114	0.5662	0.021
Mof_C 	C 	0.5995	0.1604	0.3753	0.109
Mof_H 	H 	0.6284	0.125	0.3221	0.009
Mof_C 	C 	0.6724	0.2933	0.3317	0.189
Mof_C 	C 	0.6942	0.3711	0.3921	-0.203
Mof_H 	H 	0.6674	0.3916	0.4653	0.12
Mof_C 	C 	0.7128	0.2625	0.2251	-0.208
Mof_H 	H 	0.6989	0.2093	0.1861	0.11
Mof_C 	C 	0.7557	0.4182	0.3436	0.105
Mof_H 	H 	0.7696	0.4712	0.3836	0.013
Mof_C 	C 	0.7744	0.311	0.1757	0.107
Mof_H 	H 	0.8003	0.2909	0.1011	-0
Mof_C 	C 	0.7974	0.38864	0.2367	-0.152
Mof_C 	C 	0.8681	0.4395	0.1902	0.333
Mof_O 	O 	0.38982	0.92145	0.072	-0.27
Mof_O 	O 	0.4012	0.99868	0.2743	-0.253
Mof_N 	N 	0.04096	0.63614	0.4505	-0.14
Mof_N 	N 	0.0593	0.77533	0.4739	-0.082
Mof_N 	N 	0.11111	0.74244	0.3867	-0.125
Mof_C 	C 	0.0187	0.7088	0.5075	0.044
Mof_H 	H 	0.9775	0.7114	0.5662	0.062
Mof_C 	C 	0.0995	0.6604	0.3753	0.105
Mof_H 	H 	0.1284	0.625	0.3221	0.018
Mof_C 	C 	0.1724	0.7933	0.3317	0.184
Mof_C 	C 	0.1942	0.8711	0.3921	-0.195
Mof_H 	H 	0.1674	0.8916	0.4653	0.121
Mof_C 	C 	0.2128	0.7625	0.2251	-0.203
Mof_H 	H 	0.1989	0.7093	0.1861	0.11
Mof_C 	C 	0.2557	0.9182	0.3436	0.099
Mof_H 	H 	0.2696	0.9712	0.3836	0.028
Mof_C 	C 	0.2744	0.811	0.1757	0.101
Mof_H 	H 	0.3003	0.7909	0.1011	0.003
Mof_C 	C 	0.2974	0.88864	0.2367	-0.141
Mof_C 	C 	0.3681	0.9395	0.1902	0.328
Mof_Cd	Cd	0.5	0	-0	0.408
Mof_Cd	Cd	5.60782e-33	0.5	-0	0.423
Mof_Cd	Cd	0.5	-2.80391e-33	0.5	0.433
Mof_Cd	Cd	1.35256e-33	0.5	0.5	0.449
_end
