data_functionalizedCrystal
_audit_creation_method	'EQeq! by Chris Wilmer'
_symmetry_space_group_name_H-M	'P1'
_symmetry_Int_Tables_number	1
_symmetry_cell_setting	triclinic
loop_
_symmetry_equiv_pos_as_xyz
  x,y,z
_cell_length_a	12.308
_cell_length_b	21.532
_cell_length_c	19.998
_cell_angle_alpha	90
_cell_angle_beta	90
_cell_angle_gamma	90
loop_
_atom_site_label
_atom_site_type_symbol
_atom_site_fract_x
_atom_site_fract_y
_atom_site_fract_z
_atom_site_charge
Mof_V 	V 	0.49789	0.55603	0.33413	1.735
Mof_V 	V 	0.78315	0.60508	0.33365	1.74
Mof_V 	V 	0.6275	0.33762	0.15826	1.742
Mof_V 	V 	0.88714	0.38288	0.15796	1.746
Mof_V 	V 	0.70276	0.46474	0.07425	1.721
Mof_O 	O 	0.9463	0.4601	0.3153	-0.632
Mof_O 	O 	0.837	0.4211	0.0751	-0.715
Mof_O 	O 	0.7751	0.5366	0.3934	-0.615
Mof_O 	O 	0.3952	0.4912	0.3153	-0.781
Mof_O 	O 	0.7813	0.3203	0.1433	-0.708
Mof_O 	O 	0.7232	0.4299	0.1837	-0.964
Mof_O 	O 	0.6268	0.6026	0.3278	-0.746
Mof_O 	O 	0.5039	0.383	0.1863	-0.781
Mof_O 	O 	0.6313	0.3848	0.0782	-0.79
Mof_O 	O 	0.5705	0.5048	0.3945	-0.759
Mof_O 	O 	0.9327	0.5857	0.3169	-0.708
Mof_N 	N 	0.244	0.3078	0.4622	-0.176
Mof_N 	N 	0.277	0.3673	0.4498	-0.21
Mof_N 	N 	0.4163	0.3224	0.4943	-0.262
Mof_C 	C 	0.332	0.2821	0.49	0.029
Mof_C 	C 	0.377	0.3741	0.471	0.267
Mof_H 	H 	0.4146	0.4113	0.4696	-0.462
Mof_N 	N 	0.7596	0.1937	0.4563	-0.167
Mof_N 	N 	0.9363	0.2106	0.442	-0.204
Mof_C 	C 	0.8445	0.2271	0.4739	0.071
Mof_N 	N 	0.799	0.1562	0.408	-0.141
Mof_C 	C 	0.906	0.1653	0.403	0.076
Mof_H 	H 	0.952	0.1428	0.3748	-0.024
Mof_Ag	Ag	0.0944	0.26157	0.42688	0.34
Mof_Ag	Ag	0.58365	0.18851	0.47209	0.368
Mof_Ag	Ag	0.4545	0.4493	0.4487	0.754
Mof_W 	W 	0.49789	0.55603	0.16587	0.955
Mof_W 	W 	0.78315	0.60508	0.16635	0.945
Mof_W 	W 	0.6275	0.33762	0.34174	0.981
Mof_W 	W 	0.88714	0.38288	0.34204	0.984
Mof_W 	W 	0.70276	0.46474	0.42575	0.922
Mof_V 	V 	0.50211	0.44397	0.83413	1.736
Mof_V 	V 	0.21685	0.39492	0.83365	1.741
Mof_V 	V 	0.3725	0.66238	0.65826	1.742
Mof_V 	V 	0.11286	0.61712	0.65796	1.746
Mof_V 	V 	0.29724	0.53526	0.57425	1.721
Mof_O 	O 	0.0537	0.5399	0.8153	-0.632
Mof_O 	O 	0.163	0.5789	0.5751	-0.715
Mof_O 	O 	0.2249	0.4634	0.8934	-0.616
Mof_O 	O 	0.6048	0.5088	0.8153	-0.78
Mof_O 	O 	0.2187	0.6797	0.6433	-0.708
Mof_O 	O 	0.2768	0.5701	0.6837	-0.964
Mof_O 	O 	0.3732	0.3974	0.8278	-0.746
Mof_O 	O 	0.4961	0.617	0.6863	-0.781
Mof_O 	O 	0.3687	0.6152	0.5782	-0.79
Mof_O 	O 	0.4295	0.4952	0.8945	-0.759
Mof_O 	O 	0.0673	0.4143	0.8169	-0.708
Mof_N 	N 	0.756	0.6922	0.9622	-0.176
Mof_N 	N 	0.723	0.6327	0.9498	-0.21
Mof_N 	N 	0.5837	0.6776	0.9943	-0.262
Mof_C 	C 	0.668	0.7179	0.99	0.03
Mof_C 	C 	0.623	0.6259	0.971	0.267
Mof_H 	H 	0.5854	0.5887	0.9696	-0.462
Mof_N 	N 	0.2404	0.8063	0.9563	-0.167
Mof_N 	N 	0.0637	0.7894	0.942	-0.204
Mof_C 	C 	0.1555	0.7729	0.9739	0.071
Mof_N 	N 	0.201	0.8438	0.908	-0.141
Mof_C 	C 	0.094	0.8347	0.903	0.076
Mof_H 	H 	0.048	0.8572	0.8748	-0.024
Mof_Ag	Ag	0.9056	0.73843	0.92688	0.34
Mof_Ag	Ag	0.41635	0.81149	0.97209	0.369
Mof_Ag	Ag	0.5455	0.5507	0.9487	0.754
Mof_W 	W 	0.50211	0.44397	0.66587	0.955
Mof_W 	W 	0.21685	0.39492	0.66635	0.945
Mof_W 	W 	0.3725	0.66238	0.84174	0.981
Mof_W 	W 	0.11286	0.61712	0.84204	0.984
Mof_W 	W 	0.29724	0.53526	0.92575	0.922
Mof_V 	V 	0.50211	0.05603	0.16587	1.736
Mof_V 	V 	0.21685	0.10508	0.16635	1.741
Mof_V 	V 	0.3725	0.83762	0.34174	1.742
Mof_V 	V 	0.11286	0.88288	0.34204	1.746
Mof_V 	V 	0.29724	0.96474	0.42575	1.721
Mof_O 	O 	0.0537	0.9601	0.1847	-0.632
Mof_O 	O 	0.163	0.9211	0.4249	-0.715
Mof_O 	O 	0.2249	0.0366	0.1066	-0.615
Mof_O 	O 	0.6048	0.9912	0.1847	-0.781
Mof_O 	O 	0.2187	0.8203	0.3567	-0.708
Mof_O 	O 	0.2768	0.9299	0.3163	-0.964
Mof_O 	O 	0.3732	0.1026	0.1722	-0.746
Mof_O 	O 	0.4961	0.883	0.3137	-0.781
Mof_O 	O 	0.3687	0.8848	0.4218	-0.79
Mof_O 	O 	0.4295	0.0048	0.1055	-0.758
Mof_O 	O 	0.0673	0.0857	0.1831	-0.708
Mof_N 	N 	0.756	0.8078	0.0378	-0.176
Mof_N 	N 	0.723	0.8673	0.0502	-0.21
Mof_N 	N 	0.5837	0.8224	0.0057	-0.262
Mof_C 	C 	0.668	0.7821	0.01	0.028
Mof_C 	C 	0.623	0.8741	0.029	0.267
Mof_H 	H 	0.5854	0.9113	0.0304	-0.461
Mof_N 	N 	0.2404	0.6937	0.0437	-0.167
Mof_N 	N 	0.0637	0.7106	0.058	-0.204
Mof_C 	C 	0.1555	0.7271	0.0261	0.07
Mof_N 	N 	0.201	0.6562	0.092	-0.141
Mof_C 	C 	0.094	0.6653	0.097	0.076
Mof_H 	H 	0.048	0.6428	0.1252	-0.024
Mof_Ag	Ag	0.9056	0.76157	0.07312	0.339
Mof_Ag	Ag	0.41635	0.68851	0.02791	0.367
Mof_Ag	Ag	0.5455	0.9493	0.0513	0.751
Mof_W 	W 	0.50211	0.05603	0.33413	0.956
Mof_W 	W 	0.21685	0.10508	0.33365	0.945
Mof_W 	W 	0.3725	0.83762	0.15826	0.981
Mof_W 	W 	0.11286	0.88288	0.15796	0.984
Mof_W 	W 	0.29724	0.96474	0.07425	0.921
Mof_V 	V 	0.49789	0.94397	0.66587	1.736
Mof_V 	V 	0.78315	0.89492	0.66635	1.741
Mof_V 	V 	0.6275	0.16238	0.84174	1.742
Mof_V 	V 	0.88714	0.11712	0.84204	1.746
Mof_V 	V 	0.70276	0.03526	0.92575	1.721
Mof_O 	O 	0.9463	0.0399	0.6847	-0.632
Mof_O 	O 	0.837	0.0789	0.9249	-0.715
Mof_O 	O 	0.7751	0.9634	0.6066	-0.616
Mof_O 	O 	0.3952	0.0088	0.6847	-0.781
Mof_O 	O 	0.7813	0.1797	0.8567	-0.708
Mof_O 	O 	0.7232	0.0701	0.8163	-0.964
Mof_O 	O 	0.6268	0.8974	0.6722	-0.746
Mof_O 	O 	0.5039	0.117	0.8137	-0.781
Mof_O 	O 	0.6313	0.1152	0.9218	-0.79
Mof_O 	O 	0.5705	0.9952	0.6055	-0.759
Mof_O 	O 	0.9327	0.9143	0.6831	-0.708
Mof_N 	N 	0.244	0.1922	0.5378	-0.176
Mof_N 	N 	0.277	0.1327	0.5502	-0.21
Mof_N 	N 	0.4163	0.1776	0.5057	-0.262
Mof_C 	C 	0.332	0.2179	0.51	0.029
Mof_C 	C 	0.377	0.1259	0.529	0.267
Mof_H 	H 	0.4146	0.0887	0.5304	-0.463
Mof_N 	N 	0.7596	0.3063	0.5437	-0.167
Mof_N 	N 	0.9363	0.2894	0.558	-0.204
Mof_C 	C 	0.8445	0.2729	0.5261	0.071
Mof_N 	N 	0.799	0.3438	0.592	-0.141
Mof_C 	C 	0.906	0.3347	0.597	0.076
Mof_H 	H 	0.952	0.3572	0.6252	-0.024
Mof_Ag	Ag	0.0944	0.23843	0.57312	0.34
Mof_Ag	Ag	0.58365	0.31149	0.52791	0.368
Mof_Ag	Ag	0.4545	0.0507	0.5513	0.754
Mof_W 	W 	0.49789	0.94397	0.83413	0.956
Mof_W 	W 	0.78315	0.89492	0.83365	0.945
Mof_W 	W 	0.6275	0.16238	0.65826	0.981
Mof_W 	W 	0.88714	0.11712	0.65796	0.984
Mof_W 	W 	0.70276	0.03526	0.57425	0.923
Mof_O 	O 	0.0537	0.5399	0.6847	-0.758
Mof_O 	O 	0.163	0.5789	0.9249	-0.435
Mof_O 	O 	0.2249	0.4634	0.6066	-0.611
Mof_O 	O 	0.6048	0.5088	0.6847	-0.643
Mof_O 	O 	0.2187	0.6797	0.8567	-0.441
Mof_O 	O 	0.2768	0.5701	0.8163	-0.744
Mof_O 	O 	0.3732	0.3974	0.6722	-0.479
Mof_O 	O 	0.4961	0.617	0.8137	-0.656
Mof_O 	O 	0.3687	0.6152	0.9218	-0.52
Mof_O 	O 	0.4295	0.4952	0.6055	-0.739
Mof_O 	O 	0.0673	0.4143	0.6831	-0.573
Mof_N 	N 	0.756	0.6922	0.5378	-0.174
Mof_N 	N 	0.723	0.6327	0.5502	-0.206
Mof_N 	N 	0.5837	0.6776	0.5057	-0.254
Mof_C 	C 	0.668	0.7179	0.51	0.012
Mof_C 	C 	0.623	0.6259	0.529	0.234
Mof_H 	H 	0.5854	0.5887	0.5304	-0.444
Mof_N 	N 	0.2404	0.8063	0.5437	-0.163
Mof_N 	N 	0.0637	0.7894	0.558	-0.199
Mof_C 	C 	0.1555	0.7729	0.5261	0.053
Mof_N 	N 	0.201	0.8438	0.592	-0.158
Mof_C 	C 	0.094	0.8347	0.597	0.06
Mof_H 	H 	0.048	0.8572	0.6252	-0.035
Mof_Ag	Ag	0.9056	0.73843	0.57312	0.21
Mof_Ag	Ag	0.41635	0.81149	0.52791	0.173
Mof_Ag	Ag	0.5455	0.5507	0.5513	0.746
Mof_O 	O 	0.9463	0.4601	0.1847	-0.758
Mof_O 	O 	0.837	0.4211	0.4249	-0.435
Mof_O 	O 	0.7751	0.5366	0.1066	-0.611
Mof_O 	O 	0.3952	0.4912	0.1847	-0.643
Mof_O 	O 	0.7813	0.3203	0.3567	-0.441
Mof_O 	O 	0.7232	0.4299	0.3163	-0.744
Mof_O 	O 	0.6268	0.6026	0.1722	-0.479
Mof_O 	O 	0.5039	0.383	0.3137	-0.656
Mof_O 	O 	0.6313	0.3848	0.4218	-0.52
Mof_O 	O 	0.5705	0.5048	0.1055	-0.739
Mof_O 	O 	0.9327	0.5857	0.1831	-0.573
Mof_N 	N 	0.244	0.3078	0.0378	-0.174
Mof_N 	N 	0.277	0.3673	0.0502	-0.206
Mof_N 	N 	0.4163	0.3224	0.0057	-0.254
Mof_C 	C 	0.332	0.2821	0.01	0.012
Mof_C 	C 	0.377	0.3741	0.029	0.234
Mof_H 	H 	0.4146	0.4113	0.0304	-0.444
Mof_N 	N 	0.7596	0.1937	0.0437	-0.163
Mof_N 	N 	0.9363	0.2106	0.058	-0.199
Mof_C 	C 	0.8445	0.2271	0.0261	0.053
Mof_N 	N 	0.799	0.1562	0.092	-0.158
Mof_C 	C 	0.906	0.1653	0.097	0.06
Mof_H 	H 	0.952	0.1428	0.1252	-0.035
Mof_Ag	Ag	0.0944	0.26157	0.07312	0.21
Mof_Ag	Ag	0.58365	0.18851	0.02791	0.174
Mof_Ag	Ag	0.4545	0.4493	0.0513	0.746
Mof_O 	O 	0.9463	0.0399	0.8153	-0.757
Mof_O 	O 	0.837	0.0789	0.5751	-0.435
Mof_O 	O 	0.7751	0.9634	0.8934	-0.611
Mof_O 	O 	0.3952	0.0088	0.8153	-0.644
Mof_O 	O 	0.7813	0.1797	0.6433	-0.441
Mof_O 	O 	0.7232	0.0701	0.6837	-0.745
Mof_O 	O 	0.6268	0.8974	0.8278	-0.479
Mof_O 	O 	0.5039	0.117	0.6863	-0.656
Mof_O 	O 	0.6313	0.1152	0.5782	-0.52
Mof_O 	O 	0.5705	0.9952	0.8945	-0.739
Mof_O 	O 	0.9327	0.9143	0.8169	-0.574
Mof_N 	N 	0.244	0.1922	0.9622	-0.174
Mof_N 	N 	0.277	0.1327	0.9498	-0.206
Mof_N 	N 	0.4163	0.1776	0.9943	-0.255
Mof_C 	C 	0.332	0.2179	0.99	0.011
Mof_C 	C 	0.377	0.1259	0.971	0.234
Mof_H 	H 	0.4146	0.0887	0.9696	-0.443
Mof_N 	N 	0.7596	0.3063	0.9563	-0.163
Mof_N 	N 	0.9363	0.2894	0.942	-0.199
Mof_C 	C 	0.8445	0.2729	0.9739	0.052
Mof_N 	N 	0.799	0.3438	0.908	-0.159
Mof_C 	C 	0.906	0.3347	0.903	0.06
Mof_H 	H 	0.952	0.3572	0.8748	-0.035
Mof_Ag	Ag	0.0944	0.23843	0.92688	0.209
Mof_Ag	Ag	0.58365	0.31149	0.97209	0.172
Mof_Ag	Ag	0.4545	0.0507	0.9487	0.745
Mof_O 	O 	0.0537	0.9601	0.3153	-0.757
Mof_O 	O 	0.163	0.9211	0.0751	-0.436
Mof_O 	O 	0.2249	0.0366	0.3934	-0.611
Mof_O 	O 	0.6048	0.9912	0.3153	-0.644
Mof_O 	O 	0.2187	0.8203	0.1433	-0.441
Mof_O 	O 	0.2768	0.9299	0.1837	-0.744
Mof_O 	O 	0.3732	0.1026	0.3278	-0.479
Mof_O 	O 	0.4961	0.883	0.1863	-0.656
Mof_O 	O 	0.3687	0.8848	0.0782	-0.52
Mof_O 	O 	0.4295	0.0048	0.3945	-0.739
Mof_O 	O 	0.0673	0.0857	0.3169	-0.574
Mof_N 	N 	0.756	0.8078	0.4622	-0.174
Mof_N 	N 	0.723	0.8673	0.4498	-0.206
Mof_N 	N 	0.5837	0.8224	0.4943	-0.254
Mof_C 	C 	0.668	0.7821	0.49	0.012
Mof_C 	C 	0.623	0.8741	0.471	0.234
Mof_H 	H 	0.5854	0.9113	0.4696	-0.444
Mof_N 	N 	0.2404	0.6937	0.4563	-0.163
Mof_N 	N 	0.0637	0.7106	0.442	-0.199
Mof_C 	C 	0.1555	0.7271	0.4739	0.052
Mof_N 	N 	0.201	0.6562	0.408	-0.159
Mof_C 	C 	0.094	0.6653	0.403	0.06
Mof_H 	H 	0.048	0.6428	0.3748	-0.035
Mof_Ag	Ag	0.9056	0.76157	0.42688	0.21
Mof_Ag	Ag	0.41635	0.68851	0.47209	0.173
Mof_Ag	Ag	0.5455	0.9493	0.4487	0.745
Mof_V 	V 	0.42328	0.4287	0.25	1.74
Mof_V 	V 	0.96792	0.52306	0.25	1.74
Mof_Si	Si	0.6995	0.4708	0.25	1.944
Mof_O 	O 	0.645	0.317	0.25	-0.626
Mof_O 	O 	0.894	0.3608	0.25	-0.629
Mof_O 	O 	0.456	0.5914	0.25	-0.594
Mof_O 	O 	0.5735	0.4949	0.25	-0.873
Mof_O 	O 	0.781	0.5295	0.25	-0.893
Mof_O 	O 	0.78	0.65	0.25	-0.593
Mof_V 	V 	0.57672	0.5713	0.75	1.74
Mof_V 	V 	0.03208	0.47694	0.75	1.74
Mof_Si	Si	0.3005	0.5292	0.75	1.944
Mof_O 	O 	0.355	0.683	0.75	-0.627
Mof_O 	O 	0.106	0.6392	0.75	-0.629
Mof_O 	O 	0.544	0.4086	0.75	-0.594
Mof_O 	O 	0.4265	0.5051	0.75	-0.873
Mof_O 	O 	0.219	0.4705	0.75	-0.893
Mof_O 	O 	0.22	0.35	0.75	-0.593
Mof_V 	V 	0.57672	0.9287	0.25	1.74
Mof_V 	V 	0.03208	0.02306	0.25	1.74
Mof_Si	Si	0.3005	0.9708	0.25	1.943
Mof_O 	O 	0.355	0.817	0.25	-0.626
Mof_O 	O 	0.106	0.8608	0.25	-0.629
Mof_O 	O 	0.544	0.0914	0.25	-0.594
Mof_O 	O 	0.4265	0.9949	0.25	-0.873
Mof_O 	O 	0.219	0.0295	0.25	-0.893
Mof_O 	O 	0.22	0.15	0.25	-0.593
Mof_V 	V 	0.42328	0.0713	0.75	1.74
Mof_V 	V 	0.96792	0.97694	0.75	1.74
Mof_Si	Si	0.6995	0.0292	0.75	1.944
Mof_O 	O 	0.645	0.183	0.75	-0.627
Mof_O 	O 	0.894	0.1392	0.75	-0.629
Mof_O 	O 	0.456	0.9086	0.75	-0.594
Mof_O 	O 	0.5735	0.0051	0.75	-0.873
Mof_O 	O 	0.781	0.9705	0.75	-0.893
Mof_O 	O 	0.78	0.85	0.75	-0.593
_end
