data_functionalizedCrystal
_audit_creation_method	'EQeq! by Chris Wilmer'
_symmetry_space_group_name_H-M	'P1'
_symmetry_Int_Tables_number	1
_symmetry_cell_setting	triclinic
loop_
_symmetry_equiv_pos_as_xyz
  x,y,z
_cell_length_a	18.7471
_cell_length_b	18.7471
_cell_length_c	34.8339
_cell_angle_alpha	90
_cell_angle_beta	90
_cell_angle_gamma	90
loop_
_atom_site_label
_atom_site_type_symbol
_atom_site_fract_x
_atom_site_fract_y
_atom_site_fract_z
_atom_site_charge
Mof_C 	C 	0.023	0.4313	0.034	-0.072
Mof_C 	C 	0.0508	0.3637	0.034	-0.002
Mof_H 	H 	0.0136	0.4543	0.0572	0.055
Mof_C 	C 	0.0562	0.3151	0.07	0.206
Mof_O 	O 	0.111	0.279	0.0758	-0.204
Mof_N 	N 	0.009	0.331	0.0968	-0.221
Mof_H 	H 	0.982	0.367	0.0922	0.134
Mof_C 	C 	0.0139	0.3038	0.1402	0.08
Mof_C 	C 	0.9485	0.2988	0.1608	-0.033
Mof_C 	C 	0.9489	0.2787	0.2003	-0.112
Mof_C 	C 	0.0147	0.2637	0.2191	0.049
Mof_C 	C 	0.0801	0.2687	0.1984	-0.1
Mof_C 	C 	0.0797	0.2888	0.159	-0.036
Mof_H 	H 	0.9056	0.3086	0.1486	0.071
Mof_H 	H 	0.0149	0.2505	0.2448	0.053
Mof_H 	H 	0.1224	0.2922	0.1455	0.087
Mof_C 	C 	0.8851	0.2737	0.2204	0.412
Mof_O 	O 	0.8281	0.295	0.2058	-0.46
Mof_O 	O 	0.8836	0.2477	0.2534	-0.433
Mof_C 	C 	0.1443	0.2541	0.2168	0.381
Mof_O 	O 	0.2023	0.2693	0.2012	-0.399
Mof_O 	O 	0.145	0.2255	0.2492	-0.384
Mof_Cu	Cu	0.7948	0.2419	0.274	0.913
Mof_C 	C 	0.977	0.5687	0.034	-0.073
Mof_C 	C 	0.9492	0.6363	0.034	-0.003
Mof_H 	H 	0.9864	0.5457	0.0572	0.054
Mof_C 	C 	0.9438	0.6849	0.07	0.205
Mof_O 	O 	0.889	0.721	0.0758	-0.205
Mof_N 	N 	0.991	0.669	0.0968	-0.222
Mof_H 	H 	0.018	0.633	0.0922	0.133
Mof_C 	C 	0.9861	0.6962	0.1402	0.079
Mof_C 	C 	0.0515	0.7012	0.1608	-0.034
Mof_C 	C 	0.0511	0.7213	0.2003	-0.113
Mof_C 	C 	0.9853	0.7363	0.2191	0.048
Mof_C 	C 	0.9199	0.7313	0.1984	-0.101
Mof_C 	C 	0.9203	0.7112	0.159	-0.037
Mof_H 	H 	0.0944	0.6914	0.1486	0.07
Mof_H 	H 	0.9851	0.7495	0.2448	0.052
Mof_H 	H 	0.8776	0.7078	0.1455	0.086
Mof_C 	C 	0.1149	0.7263	0.2204	0.412
Mof_O 	O 	0.1719	0.705	0.2058	-0.46
Mof_O 	O 	0.1164	0.7523	0.2534	-0.433
Mof_C 	C 	0.8557	0.7459	0.2168	0.381
Mof_O 	O 	0.7977	0.7307	0.2012	-0.399
Mof_O 	O 	0.855	0.7745	0.2492	-0.384
Mof_Cu	Cu	0.2052	0.7581	0.274	0.913
Mof_C 	C 	0.5687	0.023	0.034	-0.073
Mof_C 	C 	0.6363	0.0508	0.034	-0.003
Mof_H 	H 	0.5457	0.0136	0.0572	0.054
Mof_C 	C 	0.6849	0.0562	0.07	0.205
Mof_O 	O 	0.721	0.111	0.0758	-0.205
Mof_N 	N 	0.669	0.009	0.0968	-0.222
Mof_H 	H 	0.633	0.982	0.0922	0.133
Mof_C 	C 	0.6962	0.0139	0.1402	0.079
Mof_C 	C 	0.7012	0.9485	0.1608	-0.034
Mof_C 	C 	0.7213	0.9489	0.2003	-0.113
Mof_C 	C 	0.7363	0.0147	0.2191	0.048
Mof_C 	C 	0.7313	0.0801	0.1984	-0.101
Mof_C 	C 	0.7112	0.0797	0.159	-0.037
Mof_H 	H 	0.6914	0.9056	0.1486	0.07
Mof_H 	H 	0.7495	0.0149	0.2448	0.052
Mof_H 	H 	0.7078	0.1224	0.1455	0.086
Mof_C 	C 	0.7263	0.8851	0.2204	0.412
Mof_O 	O 	0.705	0.8281	0.2058	-0.46
Mof_O 	O 	0.7523	0.8836	0.2534	-0.433
Mof_C 	C 	0.7459	0.1443	0.2168	0.381
Mof_O 	O 	0.7307	0.2023	0.2012	-0.399
Mof_O 	O 	0.7745	0.145	0.2492	-0.384
Mof_Cu	Cu	0.7581	0.7948	0.274	0.913
Mof_C 	C 	0.4313	0.977	0.034	-0.073
Mof_C 	C 	0.3637	0.9492	0.034	-0.003
Mof_H 	H 	0.4543	0.9864	0.0572	0.054
Mof_C 	C 	0.3151	0.9438	0.07	0.205
Mof_O 	O 	0.279	0.889	0.0758	-0.205
Mof_N 	N 	0.331	0.991	0.0968	-0.222
Mof_H 	H 	0.367	0.018	0.0922	0.133
Mof_C 	C 	0.3038	0.9861	0.1402	0.079
Mof_C 	C 	0.2988	0.0515	0.1608	-0.034
Mof_C 	C 	0.2787	0.0511	0.2003	-0.113
Mof_C 	C 	0.2637	0.9853	0.2191	0.048
Mof_C 	C 	0.2687	0.9199	0.1984	-0.101
Mof_C 	C 	0.2888	0.9203	0.159	-0.037
Mof_H 	H 	0.3086	0.0944	0.1486	0.07
Mof_H 	H 	0.2505	0.9851	0.2448	0.052
Mof_H 	H 	0.2922	0.8776	0.1455	0.086
Mof_C 	C 	0.2737	0.1149	0.2204	0.412
Mof_O 	O 	0.295	0.1719	0.2058	-0.46
Mof_O 	O 	0.2477	0.1164	0.2534	-0.433
Mof_C 	C 	0.2541	0.8557	0.2168	0.381
Mof_O 	O 	0.2693	0.7977	0.2012	-0.399
Mof_O 	O 	0.2255	0.855	0.2492	-0.384
Mof_Cu	Cu	0.2419	0.2052	0.274	0.913
Mof_C 	C 	0.477	0.9313	0.466	-0.073
Mof_C 	C 	0.4492	0.8637	0.466	-0.003
Mof_H 	H 	0.4864	0.9543	0.4428	0.054
Mof_C 	C 	0.4438	0.8151	0.43	0.205
Mof_O 	O 	0.389	0.779	0.4242	-0.204
Mof_N 	N 	0.491	0.831	0.4032	-0.222
Mof_H 	H 	0.518	0.867	0.4078	0.133
Mof_C 	C 	0.4861	0.8038	0.3598	0.079
Mof_C 	C 	0.5515	0.7988	0.3392	-0.034
Mof_C 	C 	0.5511	0.7787	0.2997	-0.113
Mof_C 	C 	0.4853	0.7637	0.2809	0.048
Mof_C 	C 	0.4199	0.7687	0.3016	-0.1
Mof_C 	C 	0.4203	0.7888	0.341	-0.037
Mof_H 	H 	0.5944	0.8086	0.3514	0.071
Mof_H 	H 	0.4851	0.7505	0.2552	0.052
Mof_H 	H 	0.3776	0.7922	0.3545	0.086
Mof_C 	C 	0.6149	0.7737	0.2796	0.412
Mof_O 	O 	0.6719	0.795	0.2942	-0.46
Mof_O 	O 	0.6164	0.7477	0.2466	-0.433
Mof_C 	C 	0.3557	0.7541	0.2832	0.381
Mof_O 	O 	0.2977	0.7693	0.2988	-0.399
Mof_O 	O 	0.355	0.7255	0.2508	-0.384
Mof_Cu	Cu	0.7052	0.7419	0.226	0.913
Mof_C 	C 	0.523	0.0687	0.466	-0.073
Mof_C 	C 	0.5508	0.1363	0.466	-0.003
Mof_H 	H 	0.5136	0.0457	0.4428	0.054
Mof_C 	C 	0.5562	0.1849	0.43	0.205
Mof_O 	O 	0.611	0.221	0.4242	-0.204
Mof_N 	N 	0.509	0.169	0.4032	-0.222
Mof_H 	H 	0.482	0.133	0.4078	0.133
Mof_C 	C 	0.5139	0.1962	0.3598	0.079
Mof_C 	C 	0.4485	0.2012	0.3392	-0.034
Mof_C 	C 	0.4489	0.2213	0.2997	-0.113
Mof_C 	C 	0.5147	0.2363	0.2809	0.048
Mof_C 	C 	0.5801	0.2313	0.3016	-0.1
Mof_C 	C 	0.5797	0.2112	0.341	-0.037
Mof_H 	H 	0.4056	0.1914	0.3514	0.071
Mof_H 	H 	0.5149	0.2495	0.2552	0.052
Mof_H 	H 	0.6224	0.2078	0.3545	0.086
Mof_C 	C 	0.3851	0.2263	0.2796	0.412
Mof_O 	O 	0.3281	0.205	0.2942	-0.46
Mof_O 	O 	0.3836	0.2523	0.2466	-0.433
Mof_C 	C 	0.6443	0.2459	0.2832	0.381
Mof_O 	O 	0.7023	0.2307	0.2988	-0.399
Mof_O 	O 	0.645	0.2745	0.2508	-0.384
Mof_Cu	Cu	0.2948	0.2581	0.226	0.913
Mof_C 	C 	0.9313	0.523	0.466	-0.073
Mof_C 	C 	0.8637	0.5508	0.466	-0.003
Mof_H 	H 	0.9543	0.5136	0.4428	0.054
Mof_C 	C 	0.8151	0.5562	0.43	0.205
Mof_O 	O 	0.779	0.611	0.4242	-0.204
Mof_N 	N 	0.831	0.509	0.4032	-0.222
Mof_H 	H 	0.867	0.482	0.4078	0.133
Mof_C 	C 	0.8038	0.5139	0.3598	0.079
Mof_C 	C 	0.7988	0.4485	0.3392	-0.034
Mof_C 	C 	0.7787	0.4489	0.2997	-0.113
Mof_C 	C 	0.7637	0.5147	0.2809	0.048
Mof_C 	C 	0.7687	0.5801	0.3016	-0.1
Mof_C 	C 	0.7888	0.5797	0.341	-0.037
Mof_H 	H 	0.8086	0.4056	0.3514	0.071
Mof_H 	H 	0.7505	0.5149	0.2552	0.052
Mof_H 	H 	0.7922	0.6224	0.3545	0.086
Mof_C 	C 	0.7737	0.3851	0.2796	0.412
Mof_O 	O 	0.795	0.3281	0.2942	-0.46
Mof_O 	O 	0.7477	0.3836	0.2466	-0.433
Mof_C 	C 	0.7541	0.6443	0.2832	0.381
Mof_O 	O 	0.7693	0.7023	0.2988	-0.399
Mof_O 	O 	0.7255	0.645	0.2508	-0.384
Mof_Cu	Cu	0.7419	0.2948	0.226	0.913
Mof_C 	C 	0.0687	0.477	0.466	-0.073
Mof_C 	C 	0.1363	0.4492	0.466	-0.003
Mof_H 	H 	0.0457	0.4864	0.4428	0.054
Mof_C 	C 	0.1849	0.4438	0.43	0.205
Mof_O 	O 	0.221	0.389	0.4242	-0.204
Mof_N 	N 	0.169	0.491	0.4032	-0.222
Mof_H 	H 	0.133	0.518	0.4078	0.133
Mof_C 	C 	0.1962	0.4861	0.3598	0.079
Mof_C 	C 	0.2012	0.5515	0.3392	-0.034
Mof_C 	C 	0.2213	0.5511	0.2997	-0.113
Mof_C 	C 	0.2363	0.4853	0.2809	0.048
Mof_C 	C 	0.2313	0.4199	0.3016	-0.1
Mof_C 	C 	0.2112	0.4203	0.341	-0.037
Mof_H 	H 	0.1914	0.5944	0.3514	0.071
Mof_H 	H 	0.2495	0.4851	0.2552	0.052
Mof_H 	H 	0.2078	0.3776	0.3545	0.086
Mof_C 	C 	0.2263	0.6149	0.2796	0.412
Mof_O 	O 	0.205	0.6719	0.2942	-0.46
Mof_O 	O 	0.2523	0.6164	0.2466	-0.433
Mof_C 	C 	0.2459	0.3557	0.2832	0.381
Mof_O 	O 	0.2307	0.2977	0.2988	-0.399
Mof_O 	O 	0.2745	0.355	0.2508	-0.384
Mof_Cu	Cu	0.2581	0.7052	0.226	0.913
Mof_C 	C 	0.977	0.5687	0.966	-0.072
Mof_C 	C 	0.9492	0.6363	0.966	-0.002
Mof_H 	H 	0.9864	0.5457	0.9428	0.054
Mof_C 	C 	0.9438	0.6849	0.93	0.205
Mof_O 	O 	0.889	0.721	0.9242	-0.204
Mof_N 	N 	0.991	0.669	0.9032	-0.222
Mof_H 	H 	0.018	0.633	0.9078	0.133
Mof_C 	C 	0.9861	0.6962	0.8598	0.08
Mof_C 	C 	0.0515	0.7012	0.8392	-0.034
Mof_C 	C 	0.0511	0.7213	0.7997	-0.113
Mof_C 	C 	0.9853	0.7363	0.7809	0.048
Mof_C 	C 	0.9199	0.7313	0.8016	-0.1
Mof_C 	C 	0.9203	0.7112	0.841	-0.037
Mof_H 	H 	0.0944	0.6914	0.8514	0.071
Mof_H 	H 	0.9851	0.7495	0.7552	0.052
Mof_H 	H 	0.8776	0.7078	0.8545	0.086
Mof_C 	C 	0.1149	0.7263	0.7796	0.412
Mof_O 	O 	0.1719	0.705	0.7942	-0.46
Mof_O 	O 	0.1164	0.7523	0.7466	-0.433
Mof_C 	C 	0.8557	0.7459	0.7832	0.381
Mof_O 	O 	0.7977	0.7307	0.7988	-0.399
Mof_O 	O 	0.855	0.7745	0.7508	-0.384
Mof_Cu	Cu	0.2052	0.7581	0.726	0.913
Mof_C 	C 	0.023	0.4313	0.966	-0.072
Mof_C 	C 	0.0508	0.3637	0.966	-0.002
Mof_H 	H 	0.0136	0.4543	0.9428	0.054
Mof_C 	C 	0.0562	0.3151	0.93	0.205
Mof_O 	O 	0.111	0.279	0.9242	-0.204
Mof_N 	N 	0.009	0.331	0.9032	-0.222
Mof_H 	H 	0.982	0.367	0.9078	0.133
Mof_C 	C 	0.0139	0.3038	0.8598	0.08
Mof_C 	C 	0.9485	0.2988	0.8392	-0.034
Mof_C 	C 	0.9489	0.2787	0.7997	-0.113
Mof_C 	C 	0.0147	0.2637	0.7809	0.048
Mof_C 	C 	0.0801	0.2687	0.8016	-0.1
Mof_C 	C 	0.0797	0.2888	0.841	-0.037
Mof_H 	H 	0.9056	0.3086	0.8514	0.071
Mof_H 	H 	0.0149	0.2505	0.7552	0.052
Mof_H 	H 	0.1224	0.2922	0.8545	0.086
Mof_C 	C 	0.8851	0.2737	0.7796	0.412
Mof_O 	O 	0.8281	0.295	0.7942	-0.46
Mof_O 	O 	0.8836	0.2477	0.7466	-0.433
Mof_C 	C 	0.1443	0.2541	0.7832	0.381
Mof_O 	O 	0.2023	0.2693	0.7988	-0.399
Mof_O 	O 	0.145	0.2255	0.7508	-0.384
Mof_Cu	Cu	0.7948	0.2419	0.726	0.913
Mof_C 	C 	0.4313	0.977	0.966	-0.072
Mof_C 	C 	0.3637	0.9492	0.966	-0.002
Mof_H 	H 	0.4543	0.9864	0.9428	0.054
Mof_C 	C 	0.3151	0.9438	0.93	0.205
Mof_O 	O 	0.279	0.889	0.9242	-0.204
Mof_N 	N 	0.331	0.991	0.9032	-0.222
Mof_H 	H 	0.367	0.018	0.9078	0.133
Mof_C 	C 	0.3038	0.9861	0.8598	0.08
Mof_C 	C 	0.2988	0.0515	0.8392	-0.034
Mof_C 	C 	0.2787	0.0511	0.7997	-0.113
Mof_C 	C 	0.2637	0.9853	0.7809	0.048
Mof_C 	C 	0.2687	0.9199	0.8016	-0.1
Mof_C 	C 	0.2888	0.9203	0.841	-0.037
Mof_H 	H 	0.3086	0.0944	0.8514	0.071
Mof_H 	H 	0.2505	0.9851	0.7552	0.052
Mof_H 	H 	0.2922	0.8776	0.8545	0.086
Mof_C 	C 	0.2737	0.1149	0.7796	0.412
Mof_O 	O 	0.295	0.1719	0.7942	-0.46
Mof_O 	O 	0.2477	0.1164	0.7466	-0.433
Mof_C 	C 	0.2541	0.8557	0.7832	0.381
Mof_O 	O 	0.2693	0.7977	0.7988	-0.399
Mof_O 	O 	0.2255	0.855	0.7508	-0.384
Mof_Cu	Cu	0.2419	0.2052	0.726	0.913
Mof_C 	C 	0.5687	0.023	0.966	-0.072
Mof_C 	C 	0.6363	0.0508	0.966	-0.002
Mof_H 	H 	0.5457	0.0136	0.9428	0.054
Mof_C 	C 	0.6849	0.0562	0.93	0.205
Mof_O 	O 	0.721	0.111	0.9242	-0.204
Mof_N 	N 	0.669	0.009	0.9032	-0.222
Mof_H 	H 	0.633	0.982	0.9078	0.133
Mof_C 	C 	0.6962	0.0139	0.8598	0.08
Mof_C 	C 	0.7012	0.9485	0.8392	-0.034
Mof_C 	C 	0.7213	0.9489	0.7997	-0.113
Mof_C 	C 	0.7363	0.0147	0.7809	0.048
Mof_C 	C 	0.7313	0.0801	0.8016	-0.1
Mof_C 	C 	0.7112	0.0797	0.841	-0.037
Mof_H 	H 	0.6914	0.9056	0.8514	0.071
Mof_H 	H 	0.7495	0.0149	0.7552	0.052
Mof_H 	H 	0.7078	0.1224	0.8545	0.086
Mof_C 	C 	0.7263	0.8851	0.7796	0.412
Mof_O 	O 	0.705	0.8281	0.7942	-0.46
Mof_O 	O 	0.7523	0.8836	0.7466	-0.433
Mof_C 	C 	0.7459	0.1443	0.7832	0.381
Mof_O 	O 	0.7307	0.2023	0.7988	-0.399
Mof_O 	O 	0.7745	0.145	0.7508	-0.384
Mof_Cu	Cu	0.7581	0.7948	0.726	0.913
Mof_C 	C 	0.523	0.0687	0.534	-0.073
Mof_C 	C 	0.5508	0.1363	0.534	-0.003
Mof_H 	H 	0.5136	0.0457	0.5572	0.054
Mof_C 	C 	0.5562	0.1849	0.57	0.205
Mof_O 	O 	0.611	0.221	0.5758	-0.204
Mof_N 	N 	0.509	0.169	0.5968	-0.222
Mof_H 	H 	0.482	0.133	0.5922	0.133
Mof_C 	C 	0.5139	0.1962	0.6402	0.079
Mof_C 	C 	0.4485	0.2012	0.6608	-0.034
Mof_C 	C 	0.4489	0.2213	0.7003	-0.113
Mof_C 	C 	0.5147	0.2363	0.7191	0.048
Mof_C 	C 	0.5801	0.2313	0.6984	-0.1
Mof_C 	C 	0.5797	0.2112	0.659	-0.037
Mof_H 	H 	0.4056	0.1914	0.6486	0.071
Mof_H 	H 	0.5149	0.2495	0.7448	0.052
Mof_H 	H 	0.6224	0.2078	0.6455	0.086
Mof_C 	C 	0.3851	0.2263	0.7204	0.412
Mof_O 	O 	0.3281	0.205	0.7058	-0.46
Mof_O 	O 	0.3836	0.2523	0.7534	-0.433
Mof_C 	C 	0.6443	0.2459	0.7168	0.381
Mof_O 	O 	0.7023	0.2307	0.7012	-0.399
Mof_O 	O 	0.645	0.2745	0.7492	-0.384
Mof_Cu	Cu	0.2948	0.2581	0.774	0.913
Mof_C 	C 	0.477	0.9313	0.534	-0.073
Mof_C 	C 	0.4492	0.8637	0.534	-0.003
Mof_H 	H 	0.4864	0.9543	0.5572	0.054
Mof_C 	C 	0.4438	0.8151	0.57	0.205
Mof_O 	O 	0.389	0.779	0.5758	-0.204
Mof_N 	N 	0.491	0.831	0.5968	-0.222
Mof_H 	H 	0.518	0.867	0.5922	0.133
Mof_C 	C 	0.4861	0.8038	0.6402	0.079
Mof_C 	C 	0.5515	0.7988	0.6608	-0.034
Mof_C 	C 	0.5511	0.7787	0.7003	-0.113
Mof_C 	C 	0.4853	0.7637	0.7191	0.048
Mof_C 	C 	0.4199	0.7687	0.6984	-0.1
Mof_C 	C 	0.4203	0.7888	0.659	-0.037
Mof_H 	H 	0.5944	0.8086	0.6486	0.071
Mof_H 	H 	0.4851	0.7505	0.7448	0.052
Mof_H 	H 	0.3776	0.7922	0.6455	0.086
Mof_C 	C 	0.6149	0.7737	0.7204	0.412
Mof_O 	O 	0.6719	0.795	0.7058	-0.46
Mof_O 	O 	0.6164	0.7477	0.7534	-0.433
Mof_C 	C 	0.3557	0.7541	0.7168	0.381
Mof_O 	O 	0.2977	0.7693	0.7012	-0.399
Mof_O 	O 	0.355	0.7255	0.7492	-0.384
Mof_Cu	Cu	0.7052	0.7419	0.774	0.913
Mof_C 	C 	0.0687	0.477	0.534	-0.073
Mof_C 	C 	0.1363	0.4492	0.534	-0.003
Mof_H 	H 	0.0457	0.4864	0.5572	0.054
Mof_C 	C 	0.1849	0.4438	0.57	0.205
Mof_O 	O 	0.221	0.389	0.5758	-0.204
Mof_N 	N 	0.169	0.491	0.5968	-0.222
Mof_H 	H 	0.133	0.518	0.5922	0.133
Mof_C 	C 	0.1962	0.4861	0.6402	0.079
Mof_C 	C 	0.2012	0.5515	0.6608	-0.034
Mof_C 	C 	0.2213	0.5511	0.7003	-0.113
Mof_C 	C 	0.2363	0.4853	0.7191	0.048
Mof_C 	C 	0.2313	0.4199	0.6984	-0.1
Mof_C 	C 	0.2112	0.4203	0.659	-0.037
Mof_H 	H 	0.1914	0.5944	0.6486	0.071
Mof_H 	H 	0.2495	0.4851	0.7448	0.052
Mof_H 	H 	0.2078	0.3776	0.6455	0.086
Mof_C 	C 	0.2263	0.6149	0.7204	0.412
Mof_O 	O 	0.205	0.6719	0.7058	-0.46
Mof_O 	O 	0.2523	0.6164	0.7534	-0.433
Mof_C 	C 	0.2459	0.3557	0.7168	0.381
Mof_O 	O 	0.2307	0.2977	0.7012	-0.399
Mof_O 	O 	0.2745	0.355	0.7492	-0.384
Mof_Cu	Cu	0.2581	0.7052	0.774	0.913
Mof_C 	C 	0.9313	0.523	0.534	-0.073
Mof_C 	C 	0.8637	0.5508	0.534	-0.003
Mof_H 	H 	0.9543	0.5136	0.5572	0.054
Mof_C 	C 	0.8151	0.5562	0.57	0.205
Mof_O 	O 	0.779	0.611	0.5758	-0.204
Mof_N 	N 	0.831	0.509	0.5968	-0.222
Mof_H 	H 	0.867	0.482	0.5922	0.133
Mof_C 	C 	0.8038	0.5139	0.6402	0.079
Mof_C 	C 	0.7988	0.4485	0.6608	-0.034
Mof_C 	C 	0.7787	0.4489	0.7003	-0.113
Mof_C 	C 	0.7637	0.5147	0.7191	0.048
Mof_C 	C 	0.7687	0.5801	0.6984	-0.1
Mof_C 	C 	0.7888	0.5797	0.659	-0.037
Mof_H 	H 	0.8086	0.4056	0.6486	0.071
Mof_H 	H 	0.7505	0.5149	0.7448	0.052
Mof_H 	H 	0.7922	0.6224	0.6455	0.086
Mof_C 	C 	0.7737	0.3851	0.7204	0.412
Mof_O 	O 	0.795	0.3281	0.7058	-0.46
Mof_O 	O 	0.7477	0.3836	0.7534	-0.433
Mof_C 	C 	0.7541	0.6443	0.7168	0.381
Mof_O 	O 	0.7693	0.7023	0.7012	-0.399
Mof_O 	O 	0.7255	0.645	0.7492	-0.384
Mof_Cu	Cu	0.7419	0.2948	0.774	0.913
Mof_C 	C 	0.0092	0.4651	-0	0.03
Mof_C 	C 	0.0646	0.33	-0	-0.057
Mof_H 	H 	0.0835	0.2841	-0	0.079
Mof_C 	C 	0.9908	0.5349	-0	0.03
Mof_C 	C 	0.9354	0.67	-0	-0.057
Mof_H 	H 	0.9165	0.7159	-0	0.079
Mof_C 	C 	0.5349	0.0092	-0	0.03
Mof_C 	C 	0.67	0.0646	-0	-0.057
Mof_H 	H 	0.7159	0.0835	-0	0.079
Mof_C 	C 	0.4651	0.9908	-0	0.03
Mof_C 	C 	0.33	0.9354	-0	-0.057
Mof_H 	H 	0.2841	0.9165	-0	0.079
Mof_C 	C 	0.4908	0.9651	0.5	0.032
Mof_C 	C 	0.4354	0.83	0.5	-0.055
Mof_H 	H 	0.4165	0.7841	0.5	0.079
Mof_C 	C 	0.5092	0.0349	0.5	0.032
Mof_C 	C 	0.5646	0.17	0.5	-0.055
Mof_H 	H 	0.5835	0.2159	0.5	0.079
Mof_C 	C 	0.9651	0.5092	0.5	0.032
Mof_C 	C 	0.83	0.5646	0.5	-0.055
Mof_H 	H 	0.7841	0.5835	0.5	0.079
Mof_C 	C 	0.0349	0.4908	0.5	0.032
Mof_C 	C 	0.17	0.4354	0.5	-0.055
Mof_H 	H 	0.2159	0.4165	0.5	0.079
_end
