data_functionalizedCrystal
_audit_creation_method	'EQeq! by Chris Wilmer'
_symmetry_space_group_name_H-M	'P1'
_symmetry_Int_Tables_number	1
_symmetry_cell_setting	triclinic
loop_
_symmetry_equiv_pos_as_xyz
  x,y,z
_cell_length_a	19.748
_cell_length_b	17.494
_cell_length_c	22.16
_cell_angle_alpha	90
_cell_angle_beta	109.83
_cell_angle_gamma	90
loop_
_atom_site_label
_atom_site_type_symbol
_atom_site_fract_x
_atom_site_fract_y
_atom_site_fract_z
_atom_site_charge
Mof_Cu	Cu	0.13266	0.82063	0.33404	0.848
Mof_N 	N 	0.15507	0.72043	0.30149	-0.248
Mof_N 	N 	0.02252	0.99372	0.67653	-0.27
Mof_C 	C 	0.20633	0.59223	0.2542	0.103
Mof_C 	C 	0.1742	0.65294	0.21447	-0.17
Mof_H 	H 	0.1698	0.6523	0.1714	0.087
Mof_N 	N 	0.3078	0.40774	0.18978	-0.219
Mof_C 	C 	0.26878	0.395	0.22801	0.006
Mof_H 	H 	0.2645	0.3449	0.2403	0.009
Mof_N 	N 	0.11413	0.8506	0.4139	-0.247
Mof_C 	C 	0.05916	0.93854	0.57265	0.059
Mof_C 	C 	0.2772	0.5407	0.18994	-0.024
Mof_C 	C 	0.1487	0.71409	0.23952	0.09
Mof_H 	H 	0.1258	0.7533	0.2118	-0.017
Mof_C 	C 	0.23455	0.45198	0.25026	-0.02
Mof_C 	C 	0.23876	0.52706	0.23087	-0.034
Mof_C 	C 	0.0744	0.0264	0.65878	0.084
Mof_H 	H 	0.0982	0.0689	0.6815	-0.021
Mof_C 	C 	0.1847	0.6604	0.33924	0.09
Mof_H 	H 	0.1885	0.6623	0.3822	-0.028
Mof_C 	C 	0.07841	0.90792	0.51767	0.048
Mof_C 	C 	0.09415	0	0.60851	-0.136
Mof_H 	H 	0.1313	0.0237	0.5988	0.074
Mof_C 	C 	0.2095	0.5965	0.31735	-0.169
Mof_H 	H 	0.2286	0.556	0.3451	0.085
Mof_C 	C 	0.0505	0.836	0.4205	0.061
Mof_H 	H 	0.0177	0.8059	0.3896	-0.007
Mof_C 	C 	0.9895	0.9342	0.6423	0.094
Mof_H 	H 	0.9539	0.91	0.654	-0.035
Mof_C 	C 	0.03082	0.8632	0.4709	-0.133
Mof_H 	H 	0.9858	0.8514	0.4732	0.072
Mof_C 	C 	0.16073	0.8937	0.46014	0.06
Mof_H 	H 	0.2058	0.9038	0.4574	-0.02
Mof_C 	C 	0.0046	0.9057	0.59025	-0.159
Mof_H 	H 	0.9784	0.8647	0.5671	0.08
Mof_C 	C 	0.14433	0.9232	0.51116	-0.132
Mof_H 	H 	0.1777	0.9536	0.5413	0.066
Mof_C 	C 	0.311	0.4802	0.17139	-0.007
Mof_H 	H 	0.3374	0.4905	0.1447	-0.007
Mof_Cu	Cu	0.63266	0.32063	0.33404	0.85
Mof_N 	N 	0.65507	0.22043	0.30149	-0.247
Mof_N 	N 	0.52252	0.49372	0.67653	-0.261
Mof_C 	C 	0.70633	0.09223	0.2542	0.103
Mof_C 	C 	0.6742	0.15294	0.21447	-0.168
Mof_H 	H 	0.6698	0.1523	0.1714	0.087
Mof_N 	N 	0.8078	0.90774	0.18978	-0.218
Mof_C 	C 	0.76878	0.895	0.22801	0.007
Mof_H 	H 	0.7645	0.8449	0.2403	0.008
Mof_N 	N 	0.61413	0.3506	0.4139	-0.246
Mof_C 	C 	0.55916	0.43854	0.57265	0.063
Mof_C 	C 	0.7772	0.0407	0.18994	-0.016
Mof_C 	C 	0.6487	0.21409	0.23952	0.091
Mof_H 	H 	0.6258	0.2533	0.2118	-0.016
Mof_C 	C 	0.73455	0.95198	0.25026	-0.029
Mof_C 	C 	0.73876	0.02706	0.23087	-0.027
Mof_C 	C 	0.5744	0.5264	0.65878	0.079
Mof_H 	H 	0.5982	0.5689	0.6815	-0.02
Mof_C 	C 	0.6847	0.1604	0.33924	0.09
Mof_H 	H 	0.6885	0.1623	0.3822	-0.028
Mof_C 	C 	0.57841	0.40792	0.51767	0.046
Mof_C 	C 	0.59415	0.5	0.60851	-0.142
Mof_H 	H 	0.6313	0.5237	0.5988	0.074
Mof_C 	C 	0.7095	0.0965	0.31735	-0.168
Mof_H 	H 	0.7286	0.056	0.3451	0.087
Mof_C 	C 	0.5505	0.336	0.4205	0.058
Mof_H 	H 	0.5177	0.3059	0.3896	-0.005
Mof_C 	C 	0.4895	0.4342	0.6423	0.084
Mof_H 	H 	0.4539	0.41	0.654	-0.031
Mof_C 	C 	0.53082	0.3632	0.4709	-0.125
Mof_H 	H 	0.4858	0.3514	0.4732	0.068
Mof_C 	C 	0.66073	0.3937	0.46014	0.06
Mof_H 	H 	0.7058	0.4038	0.4574	-0.018
Mof_C 	C 	0.5046	0.4057	0.59025	-0.146
Mof_H 	H 	0.4784	0.3647	0.5671	0.075
Mof_C 	C 	0.64433	0.4232	0.51116	-0.13
Mof_H 	H 	0.6777	0.4536	0.5413	0.067
Mof_C 	C 	0.811	0.9802	0.17139	-0.018
Mof_H 	H 	0.8374	0.9905	0.1447	-0.006
Mof_Cu	Cu	0.86734	0.82063	0.16596	0.85
Mof_N 	N 	0.84493	0.72043	0.19851	-0.247
Mof_N 	N 	0.97748	0.99372	0.82347	-0.26
Mof_C 	C 	0.79367	0.59223	0.2458	0.104
Mof_C 	C 	0.8258	0.65294	0.28553	-0.169
Mof_H 	H 	0.8302	0.6523	0.3286	0.087
Mof_N 	N 	0.6922	0.40774	0.31022	-0.219
Mof_C 	C 	0.73122	0.395	0.27199	0.006
Mof_H 	H 	0.7355	0.3449	0.2597	0.009
Mof_N 	N 	0.88587	0.8506	0.0861	-0.246
Mof_C 	C 	0.94084	0.93854	0.92735	0.047
Mof_C 	C 	0.7228	0.5407	0.31006	-0.024
Mof_C 	C 	0.8513	0.71409	0.26048	0.091
Mof_H 	H 	0.8742	0.7533	0.2882	-0.016
Mof_C 	C 	0.76545	0.45198	0.24974	-0.019
Mof_C 	C 	0.76124	0.52706	0.26913	-0.034
Mof_C 	C 	0.9256	0.0264	0.84122	0.079
Mof_H 	H 	0.9018	0.0689	0.8185	-0.019
Mof_C 	C 	0.8153	0.6604	0.16076	0.09
Mof_H 	H 	0.8115	0.6623	0.1178	-0.028
Mof_C 	C 	0.92159	0.90792	0.98233	0.051
Mof_C 	C 	0.90585	0	0.89149	-0.127
Mof_H 	H 	0.8687	0.0237	0.9012	0.071
Mof_C 	C 	0.7905	0.5965	0.18265	-0.169
Mof_H 	H 	0.7714	0.556	0.1549	0.085
Mof_C 	C 	0.9495	0.836	0.0795	0.057
Mof_H 	H 	0.9823	0.8059	0.1104	-0.004
Mof_C 	C 	0.0105	0.9342	0.8577	0.066
Mof_H 	H 	0.0461	0.91	0.846	-0.027
Mof_C 	C 	0.96918	0.8632	0.0291	-0.124
Mof_H 	H 	0.0142	0.8514	0.0268	0.066
Mof_C 	C 	0.83927	0.8937	0.03986	0.058
Mof_H 	H 	0.7942	0.9038	0.0426	-0.019
Mof_C 	C 	0.9954	0.9057	0.90975	-0.125
Mof_H 	H 	0.0216	0.8647	0.9329	0.065
Mof_C 	C 	0.85567	0.9232	0.98884	-0.131
Mof_H 	H 	0.8223	0.9536	0.9587	0.066
Mof_C 	C 	0.689	0.4802	0.32861	-0.007
Mof_H 	H 	0.6626	0.4905	0.3553	-0.007
Mof_Cu	Cu	0.36734	0.32063	0.16596	0.85
Mof_N 	N 	0.34493	0.22043	0.19851	-0.247
Mof_N 	N 	0.47748	0.49372	0.82347	-0.261
Mof_C 	C 	0.29367	0.09223	0.2458	0.103
Mof_C 	C 	0.3258	0.15294	0.28553	-0.168
Mof_H 	H 	0.3302	0.1523	0.3286	0.087
Mof_N 	N 	0.1922	0.90774	0.31022	-0.219
Mof_C 	C 	0.23122	0.895	0.27199	0.008
Mof_H 	H 	0.2355	0.8449	0.2597	0.007
Mof_N 	N 	0.38587	0.3506	0.0861	-0.246
Mof_C 	C 	0.44084	0.43854	0.92735	0.063
Mof_C 	C 	0.2228	0.0407	0.31006	-0.017
Mof_C 	C 	0.3513	0.21409	0.26048	0.09
Mof_H 	H 	0.3742	0.2533	0.2882	-0.016
Mof_C 	C 	0.26545	0.95198	0.24974	-0.029
Mof_C 	C 	0.26124	0.02706	0.26913	-0.027
Mof_C 	C 	0.4256	0.5264	0.84122	0.079
Mof_H 	H 	0.4018	0.5689	0.8185	-0.02
Mof_C 	C 	0.3153	0.1604	0.16076	0.09
Mof_H 	H 	0.3115	0.1623	0.1178	-0.028
Mof_C 	C 	0.42159	0.40792	0.98233	0.046
Mof_C 	C 	0.40585	0.5	0.89149	-0.142
Mof_H 	H 	0.3687	0.5237	0.9012	0.074
Mof_C 	C 	0.2905	0.0965	0.18265	-0.168
Mof_H 	H 	0.2714	0.056	0.1549	0.087
Mof_C 	C 	0.4495	0.336	0.0795	0.058
Mof_H 	H 	0.4823	0.3059	0.1104	-0.005
Mof_C 	C 	0.5105	0.4342	0.8577	0.084
Mof_H 	H 	0.5461	0.41	0.846	-0.031
Mof_C 	C 	0.46918	0.3632	0.0291	-0.124
Mof_H 	H 	0.5142	0.3514	0.0268	0.068
Mof_C 	C 	0.33927	0.3937	0.03986	0.06
Mof_H 	H 	0.2942	0.4038	0.0426	-0.019
Mof_C 	C 	0.4954	0.4057	0.90975	-0.146
Mof_H 	H 	0.5216	0.3647	0.9329	0.075
Mof_C 	C 	0.35567	0.4232	0.98884	-0.13
Mof_H 	H 	0.3223	0.4536	0.9587	0.067
Mof_C 	C 	0.189	0.9802	0.32861	-0.017
Mof_H 	H 	0.1626	0.9905	0.3553	-0.006
Mof_Cu	Cu	4.22596e-33	0.03269	0.75	0.842
Mof_Cl	Cl	4.22596e-33	0.16589	0.75	-0.698
Mof_Cu	Cu	0.5	0.53269	0.75	0.841
Mof_Cl	Cl	0.5	0.66589	0.75	-0.697
Mof_Cu	Cu	0.86734	0.17937	0.66596	0.85
Mof_N 	N 	0.84493	0.27957	0.69851	-0.247
Mof_N 	N 	0.97748	0.00628	0.32347	-0.244
Mof_C 	C 	0.79367	0.40777	0.7458	0.104
Mof_C 	C 	0.8258	0.34706	0.78553	-0.169
Mof_H 	H 	0.8302	0.3477	0.8286	0.087
Mof_N 	N 	0.6922	0.59226	0.81022	-0.219
Mof_C 	C 	0.73122	0.605	0.77199	0.006
Mof_H 	H 	0.7355	0.6551	0.7597	0.009
Mof_N 	N 	0.88587	0.1494	0.5861	-0.247
Mof_C 	C 	0.94084	0.06146	0.42735	0.035
Mof_C 	C 	0.7228	0.4593	0.81006	-0.023
Mof_C 	C 	0.8513	0.28591	0.76048	0.091
Mof_H 	H 	0.8742	0.2467	0.7882	-0.016
Mof_C 	C 	0.76545	0.54802	0.74974	-0.02
Mof_C 	C 	0.76124	0.47294	0.76913	-0.034
Mof_C 	C 	0.9256	0.9736	0.34122	0.039
Mof_H 	H 	0.9018	0.9311	0.3185	-0.007
Mof_C 	C 	0.8153	0.3396	0.66076	0.09
Mof_H 	H 	0.8115	0.3377	0.6178	-0.028
Mof_C 	C 	0.92159	0.09208	0.48233	0.059
Mof_C 	C 	0.90585	-7.01045e-33	0.39149	-0.09
Mof_H 	H 	0.8687	0.9763	0.4012	0.051
Mof_C 	C 	0.7905	0.4035	0.68265	-0.169
Mof_H 	H 	0.7714	0.444	0.6549	0.085
Mof_C 	C 	0.9495	0.164	0.5795	0.06
Mof_H 	H 	0.9823	0.1941	0.6104	-0.004
Mof_C 	C 	0.0105	0.0658	0.3577	0.061
Mof_H 	H 	0.0461	0.09	0.346	-0.023
Mof_C 	C 	0.96918	0.1368	0.5291	-0.126
Mof_H 	H 	0.0142	0.1486	0.5268	0.067
Mof_C 	C 	0.83927	0.1063	0.53986	0.064
Mof_H 	H 	0.7942	0.0962	0.5426	-0.019
Mof_C 	C 	0.9954	0.0943	0.40975	-0.113
Mof_H 	H 	0.0216	0.1353	0.4329	0.061
Mof_C 	C 	0.85567	0.0768	0.48884	-0.137
Mof_H 	H 	0.8223	0.0464	0.4587	0.072
Mof_C 	C 	0.689	0.5198	0.82861	-0.007
Mof_H 	H 	0.6626	0.5095	0.8553	-0.007
Mof_Cu	Cu	0.36734	0.67937	0.66596	0.849
Mof_N 	N 	0.34493	0.77957	0.69851	-0.247
Mof_N 	N 	0.47748	0.50628	0.32347	-0.261
Mof_C 	C 	0.29367	0.90777	0.7458	0.105
Mof_C 	C 	0.3258	0.84706	0.78553	-0.17
Mof_H 	H 	0.3302	0.8477	0.8286	0.087
Mof_N 	N 	0.1922	0.09226	0.81022	-0.219
Mof_C 	C 	0.23122	0.105	0.77199	0.004
Mof_H 	H 	0.2355	0.1551	0.7597	0.009
Mof_N 	N 	0.38587	0.6494	0.5861	-0.246
Mof_C 	C 	0.44084	0.56146	0.42735	0.063
Mof_C 	C 	0.2228	0.9593	0.81006	-0.03
Mof_C 	C 	0.3513	0.78591	0.76048	0.091
Mof_H 	H 	0.3742	0.7467	0.7882	-0.017
Mof_C 	C 	0.26545	0.04802	0.74974	-0.013
Mof_C 	C 	0.26124	0.97294	0.76913	-0.04
Mof_C 	C 	0.4256	0.4736	0.34122	0.079
Mof_H 	H 	0.4018	0.4311	0.3185	-0.02
Mof_C 	C 	0.3153	0.8396	0.66076	0.09
Mof_H 	H 	0.3115	0.8377	0.6178	-0.029
Mof_C 	C 	0.42159	0.59208	0.48233	0.046
Mof_C 	C 	0.40585	0.5	0.39149	-0.142
Mof_H 	H 	0.3687	0.4763	0.4012	0.074
Mof_C 	C 	0.2905	0.9035	0.68265	-0.17
Mof_H 	H 	0.2714	0.944	0.6549	0.084
Mof_C 	C 	0.4495	0.664	0.5795	0.058
Mof_H 	H 	0.4823	0.6941	0.6104	-0.005
Mof_C 	C 	0.5105	0.5658	0.3577	0.084
Mof_H 	H 	0.5461	0.59	0.346	-0.031
Mof_C 	C 	0.46918	0.6368	0.5291	-0.125
Mof_H 	H 	0.5142	0.6486	0.5268	0.068
Mof_C 	C 	0.33927	0.6063	0.53986	0.059
Mof_H 	H 	0.2942	0.5962	0.5426	-0.019
Mof_C 	C 	0.4954	0.5943	0.40975	-0.146
Mof_H 	H 	0.5216	0.6353	0.4329	0.074
Mof_C 	C 	0.35567	0.5768	0.48884	-0.13
Mof_H 	H 	0.3223	0.5464	0.4587	0.067
Mof_C 	C 	0.189	0.0198	0.82861	0
Mof_H 	H 	0.1626	0.0095	0.8553	-0.008
Mof_Cu	Cu	0.13266	0.17937	0.83404	0.85
Mof_N 	N 	0.15507	0.27957	0.80149	-0.247
Mof_N 	N 	0.02252	0.00628	0.17653	-0.252
Mof_C 	C 	0.20633	0.40777	0.7542	0.104
Mof_C 	C 	0.1742	0.34706	0.71447	-0.169
Mof_H 	H 	0.1698	0.3477	0.6714	0.087
Mof_N 	N 	0.3078	0.59226	0.68978	-0.219
Mof_C 	C 	0.26878	0.605	0.72801	0.006
Mof_H 	H 	0.2645	0.6551	0.7403	0.008
Mof_N 	N 	0.11413	0.1494	0.9139	-0.248
Mof_C 	C 	0.05916	0.06146	0.07265	0.045
Mof_C 	C 	0.2772	0.4593	0.68994	-0.024
Mof_C 	C 	0.1487	0.28591	0.73952	0.09
Mof_H 	H 	0.1258	0.2467	0.7118	-0.016
Mof_C 	C 	0.23455	0.54802	0.75026	-0.02
Mof_C 	C 	0.23876	0.47294	0.73087	-0.034
Mof_C 	C 	0.0744	0.9736	0.15878	0.042
Mof_H 	H 	0.0982	0.9311	0.1815	-0.008
Mof_C 	C 	0.1847	0.3396	0.83924	0.09
Mof_H 	H 	0.1885	0.3377	0.8822	-0.028
Mof_C 	C 	0.07841	0.09208	0.01767	0.061
Mof_C 	C 	0.09415	0	0.10851	-0.097
Mof_H 	H 	0.1313	0.9763	0.0988	0.052
Mof_C 	C 	0.2095	0.4035	0.81735	-0.169
Mof_H 	H 	0.2286	0.444	0.8451	0.085
Mof_C 	C 	0.0505	0.164	0.9205	0.067
Mof_H 	H 	0.0177	0.1941	0.8896	-0.009
Mof_C 	C 	0.9895	0.0658	0.1423	0.088
Mof_H 	H 	0.9539	0.09	0.154	-0.03
Mof_C 	C 	0.03082	0.1368	0.9709	-0.143
Mof_H 	H 	0.9858	0.1486	0.9732	0.077
Mof_C 	C 	0.16073	0.1063	0.96014	0.063
Mof_H 	H 	0.2058	0.0962	0.9574	-0.019
Mof_C 	C 	0.0046	0.0943	0.09025	-0.144
Mof_H 	H 	0.9784	0.1353	0.0671	0.076
Mof_C 	C 	0.14433	0.0768	0.01116	-0.136
Mof_H 	H 	0.1777	0.0464	0.0413	0.071
Mof_C 	C 	0.311	0.5198	0.67139	-0.007
Mof_H 	H 	0.3374	0.5095	0.6447	-0.007
Mof_Cu	Cu	0.63266	0.67937	0.83404	0.849
Mof_N 	N 	0.65507	0.77957	0.80149	-0.247
Mof_N 	N 	0.52252	0.50628	0.17653	-0.261
Mof_C 	C 	0.70633	0.90777	0.7542	0.105
Mof_C 	C 	0.6742	0.84706	0.71447	-0.17
Mof_H 	H 	0.6698	0.8477	0.6714	0.087
Mof_N 	N 	0.8078	0.09226	0.68978	-0.219
Mof_C 	C 	0.76878	0.105	0.72801	0.004
Mof_H 	H 	0.7645	0.1551	0.7403	0.01
Mof_N 	N 	0.61413	0.6494	0.9139	-0.246
Mof_C 	C 	0.55916	0.56146	0.07265	0.063
Mof_C 	C 	0.7772	0.9593	0.68994	-0.03
Mof_C 	C 	0.6487	0.78591	0.73952	0.091
Mof_H 	H 	0.6258	0.7467	0.7118	-0.017
Mof_C 	C 	0.73455	0.04802	0.75026	-0.012
Mof_C 	C 	0.73876	0.97294	0.73087	-0.04
Mof_C 	C 	0.5744	0.4736	0.15878	0.079
Mof_H 	H 	0.5982	0.4311	0.1815	-0.02
Mof_C 	C 	0.6847	0.8396	0.83924	0.09
Mof_H 	H 	0.6885	0.8377	0.8822	-0.029
Mof_C 	C 	0.57841	0.59208	0.01767	0.046
Mof_C 	C 	0.59415	0.5	0.10851	-0.142
Mof_H 	H 	0.6313	0.4763	0.0988	0.074
Mof_C 	C 	0.7095	0.9035	0.81735	-0.17
Mof_H 	H 	0.7286	0.944	0.8451	0.084
Mof_C 	C 	0.5505	0.664	0.9205	0.058
Mof_H 	H 	0.5177	0.6941	0.8896	-0.005
Mof_C 	C 	0.4895	0.5658	0.1423	0.084
Mof_H 	H 	0.4539	0.59	0.154	-0.032
Mof_C 	C 	0.53082	0.6368	0.9709	-0.124
Mof_H 	H 	0.4858	0.6486	0.9732	0.068
Mof_C 	C 	0.66073	0.6063	0.96014	0.06
Mof_H 	H 	0.7058	0.5962	0.9574	-0.019
Mof_C 	C 	0.5046	0.5943	0.09025	-0.146
Mof_H 	H 	0.4784	0.6353	0.0671	0.074
Mof_C 	C 	0.64433	0.5768	0.01116	-0.13
Mof_H 	H 	0.6777	0.5464	0.0413	0.067
Mof_C 	C 	0.811	0.0198	0.67139	0.001
Mof_H 	H 	0.8374	0.0095	0.6447	-0.007
Mof_Cu	Cu	1.40865e-33	0.96731	0.25	0.836
Mof_Cl	Cl	-1.57861e-17	0.83411	0.25	-0.699
Mof_Cu	Cu	0.5	0.46731	0.25	0.84
Mof_Cl	Cl	0.5	0.33411	0.25	-0.696
_end
