data_functionalizedCrystal
_audit_creation_method	'EQeq! by Chris Wilmer'
_symmetry_space_group_name_H-M	'P1'
_symmetry_Int_Tables_number	1
_symmetry_cell_setting	triclinic
loop_
_symmetry_equiv_pos_as_xyz
  x,y,z
_cell_length_a	6.568
_cell_length_b	16.3948
_cell_length_c	13.1677
_cell_angle_alpha	90
_cell_angle_beta	90
_cell_angle_gamma	90
loop_
_atom_site_label
_atom_site_type_symbol
_atom_site_fract_x
_atom_site_fract_y
_atom_site_fract_z
_atom_site_charge
Mof_O 	O 	0.17	0.16802	0.8401	-1.688
Mof_C 	C 	0.8065	0.0271	0.9553	0.017
Mof_O 	O 	0.67	0.66802	0.3401	-1.677
Mof_C 	C 	0.3065	0.5271	0.4553	0.061
Mof_O 	O 	0.83	0.33198	0.8401	-1.705
Mof_C 	C 	0.1935	0.4729	0.9553	0.05
Mof_O 	O 	0.33	0.83198	0.3401	-1.677
Mof_C 	C 	0.6935	0.9729	0.4553	0.041
Mof_O 	O 	0.83	0.66802	0.1599	-1.705
Mof_C 	C 	0.1935	0.5271	0.0447	0.05
Mof_O 	O 	0.33	0.16802	0.6599	-1.677
Mof_C 	C 	0.6935	0.0271	0.5447	0.041
Mof_O 	O 	0.17	0.83198	0.1599	-1.687
Mof_C 	C 	0.8065	0.9729	0.0447	0.018
Mof_O 	O 	0.67	0.33198	0.6599	-1.676
Mof_C 	C 	0.3065	0.4729	0.5447	0.062
Mof_O 	O 	0.83	0.83198	0.1599	-1.705
Mof_C 	C 	0.1935	0.9729	0.0447	0.05
Mof_O 	O 	0.33	0.33198	0.6599	-1.676
Mof_C 	C 	0.6935	0.4729	0.5447	0.041
Mof_O 	O 	0.17	0.66802	0.1599	-1.687
Mof_C 	C 	0.8065	0.5271	0.0447	0.018
Mof_O 	O 	0.67	0.16802	0.6599	-1.676
Mof_C 	C 	0.3065	0.0271	0.5447	0.062
Mof_O 	O 	0.17	0.33198	0.8401	-1.687
Mof_C 	C 	0.8065	0.4729	0.9553	0.018
Mof_O 	O 	0.67	0.83198	0.3401	-1.676
Mof_C 	C 	0.3065	0.9729	0.4553	0.062
Mof_O 	O 	0.83	0.16802	0.8401	-1.705
Mof_C 	C 	0.1935	0.0271	0.9553	0.05
Mof_O 	O 	0.33	0.66802	0.3401	-1.676
Mof_C 	C 	0.6935	0.5271	0.4553	0.041
Mof_Al	Al	0.25	0.25	0.75	7.089
Mof_Al	Al	0.75	0.25	0.75	6.998
Mof_Al	Al	0.75	0.75	0.25	6.998
Mof_Al	Al	0.25	0.75	0.25	7.089
Mof_F 	F 	2.30178e-32	0.25	0.6937	-2.362
Mof_F 	F 	0.5	0.75	0.1937	-2.383
Mof_F 	F 	2.45566e-32	0.75	0.3063	-2.362
Mof_F 	F 	0.5	0.25	0.8063	-2.383
Mof_C 	C 	-1.0669e-32	0.0652	0.9491	-0.235
Mof_C 	C 	-1.12869e-32	0.1376	0.8669	1.226
Mof_C 	C 	0.5	0.5652	0.4491	-0.271
Mof_C 	C 	0.5	0.6376	0.3669	1.183
Mof_C 	C 	7.13429e-33	0.4348	0.9491	-0.235
Mof_C 	C 	-1.12869e-32	0.3624	0.8669	1.227
Mof_C 	C 	0.5	0.9348	0.4491	-0.271
Mof_C 	C 	0.5	0.8624	0.3669	1.183
Mof_C 	C 	1.15097e-32	0.5652	0.0509	-0.235
Mof_C 	C 	-5.67575e-33	0.6376	0.1331	1.227
Mof_C 	C 	0.5	0.0652	0.5509	-0.271
Mof_C 	C 	0.5	0.1376	0.6331	1.183
Mof_C 	C 	1.15097e-32	0.9348	0.0509	-0.235
Mof_C 	C 	-5.67575e-33	0.8624	0.1331	1.226
Mof_C 	C 	0.5	0.4348	0.5509	-0.271
Mof_C 	C 	0.5	0.3624	0.6331	1.183
_end
