data_functionalizedCrystal
_audit_creation_method	'EQeq! by Chris Wilmer'
_symmetry_space_group_name_H-M	'P1'
_symmetry_Int_Tables_number	1
_symmetry_cell_setting	triclinic
loop_
_symmetry_equiv_pos_as_xyz
  x,y,z
_cell_length_a	25.994
_cell_length_b	25.994
_cell_length_c	6.8127
_cell_angle_alpha	90
_cell_angle_beta	90
_cell_angle_gamma	120
loop_
_atom_site_label
_atom_site_type_symbol
_atom_site_fract_x
_atom_site_fract_y
_atom_site_fract_z
_atom_site_charge
Mof_Co	Co	0.94947	0.63467	0.01866	1.157
Mof_O 	O 	0.8953	0.6335	0.235	-0.458
Mof_O 	O 	0.9407	0.6902	0.8309	-0.521
Mof_O 	O 	0.0073	0.6367	0.803	-0.57
Mof_C 	C 	0.989	0.5445	0.076	0.192
Mof_C 	C 	0.0157	0.5954	0.7412	0.403
Mof_C 	C 	0.9835	0.4978	0.1916	-0.095
Mof_C 	C 	0.0057	0.5465	0.8806	-0.181
Mof_H 	H 	0.972	0.4959	0.325	0.077
Mof_Co	Co	0.61614	0.968	0.35199	1.156
Mof_O 	O 	0.56197	0.96683	0.56833	-0.459
Mof_O 	O 	0.60737	0.02353	0.16423	-0.522
Mof_O 	O 	0.67397	0.97003	0.13633	-0.572
Mof_C 	C 	0.65567	0.87783	0.40933	0.192
Mof_C 	C 	0.68237	0.92873	0.07453	0.404
Mof_C 	C 	0.65017	0.83113	0.52493	-0.095
Mof_C 	C 	0.67237	0.87983	0.21393	-0.181
Mof_H 	H 	0.63867	0.82923	0.65833	0.076
Mof_Co	Co	0.2828	0.30134	0.68533	1.156
Mof_O 	O 	0.22863	0.30017	0.90167	-0.459
Mof_O 	O 	0.27403	0.35687	0.49757	-0.522
Mof_O 	O 	0.34063	0.30337	0.46967	-0.572
Mof_C 	C 	0.32233	0.21117	0.74267	0.193
Mof_C 	C 	0.34903	0.26207	0.40787	0.404
Mof_C 	C 	0.31683	0.16447	0.85827	-0.095
Mof_C 	C 	0.33903	0.21317	0.54727	-0.181
Mof_H 	H 	0.30533	0.16257	0.99167	0.077
Mof_Co	Co	0.36533	0.3148	0.01866	1.156
Mof_O 	O 	0.3665	0.2618	0.235	-0.459
Mof_O 	O 	0.3098	0.2505	0.8309	-0.522
Mof_O 	O 	0.3633	0.3706	0.803	-0.571
Mof_C 	C 	0.4555	0.4445	0.076	0.192
Mof_C 	C 	0.4046	0.4203	0.7412	0.404
Mof_C 	C 	0.5022	0.4857	0.1916	-0.095
Mof_C 	C 	0.4535	0.4592	0.8806	-0.181
Mof_H 	H 	0.5041	0.4761	0.325	0.076
Mof_Co	Co	0.032	0.64813	0.35199	1.156
Mof_O 	O 	0.03317	0.59513	0.56833	-0.459
Mof_O 	O 	0.97647	0.58383	0.16423	-0.522
Mof_O 	O 	0.02997	0.70393	0.13633	-0.572
Mof_C 	C 	0.12217	0.77783	0.40933	0.192
Mof_C 	C 	0.07127	0.75363	0.07453	0.404
Mof_C 	C 	0.16887	0.81903	0.52493	-0.095
Mof_C 	C 	0.12017	0.79253	0.21393	-0.181
Mof_H 	H 	0.17077	0.80943	0.65833	0.076
Mof_Co	Co	0.69866	0.98147	0.68533	1.156
Mof_O 	O 	0.69983	0.92847	0.90167	-0.459
Mof_O 	O 	0.64313	0.91717	0.49757	-0.522
Mof_O 	O 	0.69663	0.03727	0.46967	-0.572
Mof_C 	C 	0.78883	0.11117	0.74267	0.192
Mof_C 	C 	0.73793	0.08697	0.40787	0.404
Mof_C 	C 	0.83553	0.15237	0.85827	-0.095
Mof_C 	C 	0.78683	0.12587	0.54727	-0.181
Mof_H 	H 	0.83743	0.14277	0.99167	0.077
Mof_Co	Co	0.6852	0.05053	0.01866	1.156
Mof_O 	O 	0.7382	0.1047	0.235	-0.459
Mof_O 	O 	0.7495	0.0593	0.8309	-0.522
Mof_O 	O 	0.6294	0.9927	0.803	-0.571
Mof_C 	C 	0.5555	0.011	0.076	0.192
Mof_C 	C 	0.5797	0.9843	0.7412	0.404
Mof_C 	C 	0.5143	0.0165	0.1916	-0.095
Mof_C 	C 	0.5408	0.9943	0.8806	-0.181
Mof_H 	H 	0.5239	0.028	0.325	0.077
Mof_Co	Co	0.35187	0.38386	0.35199	1.156
Mof_O 	O 	0.40487	0.43803	0.56833	-0.459
Mof_O 	O 	0.41617	0.39263	0.16423	-0.522
Mof_O 	O 	0.29607	0.32603	0.13633	-0.572
Mof_C 	C 	0.22217	0.34433	0.40933	0.192
Mof_C 	C 	0.24637	0.31763	0.07453	0.403
Mof_C 	C 	0.18097	0.34983	0.52493	-0.095
Mof_C 	C 	0.20747	0.32763	0.21393	-0.181
Mof_H 	H 	0.19057	0.36133	0.65833	0.076
Mof_Co	Co	0.01853	0.7172	0.68533	1.156
Mof_O 	O 	0.07153	0.77137	0.90167	-0.459
Mof_O 	O 	0.08283	0.72597	0.49757	-0.522
Mof_O 	O 	0.96273	0.65937	0.46967	-0.572
Mof_C 	C 	0.88883	0.67767	0.74267	0.192
Mof_C 	C 	0.91303	0.65097	0.40787	0.404
Mof_C 	C 	0.84763	0.68317	0.85827	-0.095
Mof_C 	C 	0.87413	0.66097	0.54727	-0.181
Mof_H 	H 	0.85723	0.69467	0.99167	0.077
Mof_Co	Co	0.05053	0.36533	0.98134	1.156
Mof_O 	O 	0.1047	0.3665	0.765	-0.459
Mof_O 	O 	0.0593	0.3098	0.1691	-0.522
Mof_O 	O 	0.9927	0.3633	0.197	-0.571
Mof_C 	C 	0.011	0.4555	0.924	0.192
Mof_C 	C 	0.9843	0.4046	0.2588	0.403
Mof_C 	C 	0.0165	0.5022	0.8084	-0.095
Mof_C 	C 	0.9943	0.4535	0.1194	-0.181
Mof_H 	H 	0.028	0.5041	0.675	0.077
Mof_Co	Co	0.7172	0.69866	0.31467	1.156
Mof_O 	O 	0.77137	0.69983	0.09833	-0.459
Mof_O 	O 	0.72597	0.64313	0.50243	-0.522
Mof_O 	O 	0.65937	0.69663	0.53033	-0.572
Mof_C 	C 	0.67767	0.78883	0.25733	0.193
Mof_C 	C 	0.65097	0.73793	0.59213	0.404
Mof_C 	C 	0.68317	0.83553	0.14173	-0.095
Mof_C 	C 	0.66097	0.78683	0.45273	-0.181
Mof_H 	H 	0.69467	0.83743	0.00833	0.077
Mof_Co	Co	0.38386	0.032	0.64801	1.156
Mof_O 	O 	0.43803	0.03317	0.43167	-0.459
Mof_O 	O 	0.39263	0.97647	0.83577	-0.522
Mof_O 	O 	0.32603	0.02997	0.86367	-0.572
Mof_C 	C 	0.34433	0.12217	0.59067	0.192
Mof_C 	C 	0.31763	0.07127	0.92547	0.404
Mof_C 	C 	0.34983	0.16887	0.47507	-0.095
Mof_C 	C 	0.32763	0.12017	0.78607	-0.181
Mof_H 	H 	0.36133	0.17077	0.34167	0.076
Mof_Co	Co	0.63467	0.6852	0.98134	1.156
Mof_O 	O 	0.6335	0.7382	0.765	-0.459
Mof_O 	O 	0.6902	0.7495	0.1691	-0.522
Mof_O 	O 	0.6367	0.6294	0.197	-0.571
Mof_C 	C 	0.5445	0.5555	0.924	0.192
Mof_C 	C 	0.5954	0.5797	0.2588	0.404
Mof_C 	C 	0.4978	0.5143	0.8084	-0.095
Mof_C 	C 	0.5465	0.5408	0.1194	-0.181
Mof_H 	H 	0.4959	0.5239	0.675	0.076
Mof_Co	Co	0.30134	0.01853	0.31467	1.156
Mof_O 	O 	0.30017	0.07153	0.09833	-0.459
Mof_O 	O 	0.35687	0.08283	0.50243	-0.522
Mof_O 	O 	0.30337	0.96273	0.53033	-0.572
Mof_C 	C 	0.21117	0.88883	0.25733	0.192
Mof_C 	C 	0.26207	0.91303	0.59213	0.404
Mof_C 	C 	0.16447	0.84763	0.14173	-0.095
Mof_C 	C 	0.21317	0.87413	0.45273	-0.181
Mof_H 	H 	0.16257	0.85723	0.00833	0.077
Mof_Co	Co	0.968	0.35187	0.64801	1.156
Mof_O 	O 	0.96683	0.40487	0.43167	-0.459
Mof_O 	O 	0.02353	0.41617	0.83577	-0.522
Mof_O 	O 	0.97003	0.29607	0.86367	-0.572
Mof_C 	C 	0.87783	0.22217	0.59067	0.192
Mof_C 	C 	0.92873	0.24637	0.92547	0.404
Mof_C 	C 	0.83113	0.18097	0.47507	-0.095
Mof_C 	C 	0.87983	0.20747	0.78607	-0.181
Mof_H 	H 	0.82923	0.19057	0.34167	0.076
Mof_Co	Co	0.3148	0.94947	0.98134	1.156
Mof_O 	O 	0.2618	0.8953	0.765	-0.459
Mof_O 	O 	0.2505	0.9407	0.1691	-0.522
Mof_O 	O 	0.3706	0.0073	0.197	-0.571
Mof_C 	C 	0.4445	0.989	0.924	0.192
Mof_C 	C 	0.4203	0.0157	0.2588	0.404
Mof_C 	C 	0.4857	0.9835	0.8084	-0.095
Mof_C 	C 	0.4592	0.0057	0.1194	-0.181
Mof_H 	H 	0.4761	0.972	0.675	0.077
Mof_Co	Co	0.98147	0.2828	0.31467	1.156
Mof_O 	O 	0.92847	0.22863	0.09833	-0.459
Mof_O 	O 	0.91717	0.27403	0.50243	-0.522
Mof_O 	O 	0.03727	0.34063	0.53033	-0.572
Mof_C 	C 	0.11117	0.32233	0.25733	0.192
Mof_C 	C 	0.08697	0.34903	0.59213	0.404
Mof_C 	C 	0.15237	0.31683	0.14173	-0.095
Mof_C 	C 	0.12587	0.33903	0.45273	-0.181
Mof_H 	H 	0.14277	0.30533	0.00833	0.077
Mof_Co	Co	0.64813	0.61614	0.64801	1.156
Mof_O 	O 	0.59513	0.56197	0.43167	-0.459
Mof_O 	O 	0.58383	0.60737	0.83577	-0.522
Mof_O 	O 	0.70393	0.67397	0.86367	-0.572
Mof_C 	C 	0.77783	0.65567	0.59067	0.192
Mof_C 	C 	0.75363	0.68237	0.92547	0.403
Mof_C 	C 	0.81903	0.65017	0.47507	-0.095
Mof_C 	C 	0.79253	0.67237	0.78607	-0.181
Mof_H 	H 	0.80943	0.63867	0.34167	0.076
_end
