data_functionalizedCrystal
_audit_creation_method	'EQeq! by Chris Wilmer'
_symmetry_space_group_name_H-M	'P1'
_symmetry_Int_Tables_number	1
_symmetry_cell_setting	triclinic
loop_
_symmetry_equiv_pos_as_xyz
  x,y,z
_cell_length_a	7.0479
_cell_length_b	15.307
_cell_length_c	17.537
_cell_angle_alpha	90
_cell_angle_beta	90
_cell_angle_gamma	90
loop_
_atom_site_label
_atom_site_type_symbol
_atom_site_fract_x
_atom_site_fract_y
_atom_site_fract_z
_atom_site_charge
Mof_P 	P 	0.25542	0.13521	0.40046	0.525
Mof_O 	O 	0.299	0.14619	0.31612	-0.536
Mof_O 	O 	0.4338	0.10747	0.44377	-0.501
Mof_O 	O 	0.0902	0.07294	0.41373	-0.575
Mof_O 	O 	0.3728	0.3659	0.4575	-0.29
Mof_O 	O 	0.3122	0.3301	0.3385	-0.539
Mof_C 	C 	0.298	0.317	0.4115	0.48
Mof_C 	C 	0.1819	0.2401	0.4372	-0.593
Mof_H 	H 	0.0511	0.2499	0.4223	0.147
Mof_H 	H 	0.1855	0.2377	0.4924	0.194
Mof_P 	P 	0.24458	0.86479	0.40046	0.543
Mof_O 	O 	0.201	0.85381	0.31612	-0.502
Mof_O 	O 	0.0662	0.89253	0.44377	-0.49
Mof_O 	O 	0.4098	0.92706	0.41373	-0.416
Mof_O 	O 	0.1272	0.6341	0.4575	-0.34
Mof_O 	O 	0.1878	0.6699	0.3385	-0.559
Mof_C 	C 	0.202	0.683	0.4115	0.508
Mof_C 	C 	0.3181	0.7599	0.4372	-0.646
Mof_H 	H 	0.4489	0.7501	0.4223	0.221
Mof_H 	H 	0.3145	0.7623	0.4924	0.23
Mof_P 	P 	0.24458	0.63521	0.09954	0.528
Mof_O 	O 	0.201	0.64619	0.18388	-0.525
Mof_O 	O 	0.0662	0.60747	0.05623	-0.596
Mof_O 	O 	0.4098	0.57294	0.08627	-0.517
Mof_O 	O 	0.1272	0.8659	0.0425	-0.363
Mof_O 	O 	0.1878	0.8301	0.1615	-0.543
Mof_C 	C 	0.202	0.817	0.0885	0.49
Mof_C 	C 	0.3181	0.7401	0.0628	-0.622
Mof_H 	H 	0.4489	0.7499	0.0777	0.189
Mof_H 	H 	0.3145	0.7377	0.0076	0.166
Mof_P 	P 	0.25542	0.36479	0.09954	0.515
Mof_O 	O 	0.299	0.35381	0.18388	-0.513
Mof_O 	O 	0.4338	0.39253	0.05623	-0.535
Mof_O 	O 	0.0902	0.42706	0.08627	-0.568
Mof_O 	O 	0.3728	0.1341	0.0425	-0.385
Mof_O 	O 	0.3122	0.1699	0.1615	-0.569
Mof_C 	C 	0.298	0.183	0.0885	0.467
Mof_C 	C 	0.1819	0.2599	0.0628	-0.576
Mof_H 	H 	0.0511	0.2501	0.0777	0.11
Mof_H 	H 	0.1855	0.2623	0.0076	0.13
Mof_P 	P 	0.74458	0.86479	0.59954	0.548
Mof_O 	O 	0.701	0.85381	0.68388	-0.478
Mof_O 	O 	0.5662	0.89253	0.55623	-0.438
Mof_O 	O 	0.9098	0.92706	0.58627	-0.362
Mof_O 	O 	0.6272	0.6341	0.5425	-0.281
Mof_O 	O 	0.6878	0.6699	0.6615	-0.539
Mof_C 	C 	0.702	0.683	0.5885	0.522
Mof_C 	C 	0.8181	0.7599	0.5628	-0.66
Mof_H 	H 	0.9489	0.7501	0.5777	0.257
Mof_H 	H 	0.8145	0.7623	0.5076	0.28
Mof_P 	P 	0.75542	0.13521	0.59954	0.53
Mof_O 	O 	0.799	0.14619	0.68388	-0.512
Mof_O 	O 	0.9338	0.10747	0.55623	-0.431
Mof_O 	O 	0.5902	0.07294	0.58627	-0.533
Mof_O 	O 	0.8728	0.3659	0.5425	-0.23
Mof_O 	O 	0.8122	0.3301	0.6615	-0.519
Mof_C 	C 	0.798	0.317	0.5885	0.494
Mof_C 	C 	0.6819	0.2401	0.5628	-0.609
Mof_H 	H 	0.5511	0.2499	0.5777	0.185
Mof_H 	H 	0.6855	0.2377	0.5076	0.246
Mof_P 	P 	0.75542	0.36479	0.90046	0.545
Mof_O 	O 	0.799	0.35381	0.81612	-0.494
Mof_O 	O 	0.9338	0.39253	0.94377	-0.354
Mof_O 	O 	0.5902	0.42706	0.91373	-0.459
Mof_O 	O 	0.8728	0.1341	0.9575	-0.204
Mof_O 	O 	0.8122	0.1699	0.8385	-0.533
Mof_C 	C 	0.798	0.183	0.9115	0.512
Mof_C 	C 	0.6819	0.2599	0.9372	-0.634
Mof_H 	H 	0.5511	0.2501	0.9223	0.216
Mof_H 	H 	0.6855	0.2623	0.9924	0.307
Mof_P 	P 	0.74458	0.63521	0.90046	0.557
Mof_O 	O 	0.701	0.64619	0.81612	-0.506
Mof_O 	O 	0.5662	0.60747	0.94377	-0.43
Mof_O 	O 	0.9098	0.57294	0.91373	-0.394
Mof_O 	O 	0.6272	0.8659	0.9575	-0.185
Mof_O 	O 	0.6878	0.8301	0.8385	-0.508
Mof_C 	C 	0.702	0.817	0.9115	0.533
Mof_C 	C 	0.8181	0.7401	0.9372	-0.677
Mof_H 	H 	0.9489	0.7499	0.9223	0.292
Mof_H 	H 	0.8145	0.7377	0.9924	0.34
Mof_V 	V 	0.25449	0.25	0.25	1.699
Mof_V 	V 	0.24551	0.75	0.25	1.71
Mof_V 	V 	0.74551	0.75	0.75	1.721
Mof_V 	V 	0.75449	0.25	0.75	1.71
Mof_V 	V 	4.66474e-33	-6.67137e-33	0.5	1.722
Mof_V 	V 	0.5	-6.67137e-33	0.5	1.776
Mof_V 	V 	0.5	0.5	-0	1.756
Mof_V 	V 	-0	0.5	-0	1.703
Mof_O 	O 	0.25	-6.67137e-33	0.5429	-0.872
Mof_H 	H 	0.25	6.67137e-33	0.596	0.185
Mof_O 	O 	0.25	0.5	0.9571	-0.718
Mof_H 	H 	0.25	0.5	0.904	0.198
Mof_O 	O 	0.75	6.67137e-33	0.4571	-0.817
Mof_H 	H 	0.75	0	0.404	0.24
Mof_O 	O 	0.75	0.5	0.0429	-0.832
Mof_H 	H 	0.75	0.5	0.096	0.281
_end
