data_functionalizedCrystal
_audit_creation_method	'EQeq! by Chris Wilmer'
_symmetry_space_group_name_H-M	'P1'
_symmetry_Int_Tables_number	1
_symmetry_cell_setting	triclinic
loop_
_symmetry_equiv_pos_as_xyz
  x,y,z
_cell_length_a	17.612
_cell_length_b	18.052
_cell_length_c	18.652
_cell_angle_alpha	90
_cell_angle_beta	92.38
_cell_angle_gamma	90
loop_
_atom_site_label
_atom_site_type_symbol
_atom_site_fract_x
_atom_site_fract_y
_atom_site_fract_z
_atom_site_charge
Mof_Zn	Zn	0.39673	0.48285	0.28981	1.212
Mof_Zn	Zn	0.32886	0.61844	0.3641	1.209
Mof_Zn	Zn	0.41435	0.76978	0.43507	1.214
Mof_O 	O 	0.30911	0.80029	0.40869	-0.45
Mof_O 	O 	0.56166	0.55593	0.61923	-0.471
Mof_O 	O 	0.70928	0.95456	0.22294	-0.454
Mof_O 	O 	0.64523	0.47752	0.5736	-0.484
Mof_O 	O 	0.76081	0.06145	0.18633	-0.425
Mof_O 	O 	0.29184	0.71727	0.31954	-0.43
Mof_C 	C 	0.59583	0.52757	0.56699	0.345
Mof_C 	C 	0.43598	0.65496	0.17759	-0.168
Mof_H 	H 	0.3868	0.6516	0.1549	0.1
Mof_C 	C 	0.60084	0.56413	0.36838	-0.034
Mof_H 	H 	0.6319	0.5523	0.3296	0.03
Mof_C 	C 	0.57608	0.55687	0.49365	-0.03
Mof_C 	C 	0.56674	0.69523	0.17473	-0.071
Mof_H 	H 	0.6071	0.7173	0.1501	0.056
Mof_C 	C 	0.51291	0.60233	0.48271	-0.147
Mof_H 	H 	0.484	0.6163	0.5224	0.088
Mof_C 	C 	0.76488	0.99755	0.21204	0.21
Mof_C 	C 	0.62009	0.53698	0.43616	-0.043
Mof_H 	H 	0.6627	0.5052	0.4435	0.04
Mof_C 	C 	0.44826	0.62723	0.24741	0.203
Mof_C 	C 	0.49479	0.68736	0.14109	-0.008
Mof_C 	C 	0.84184	0.96693	0.23197	0.358
Mof_C 	C 	0.19881	0.81035	0.3322	0.275
Mof_C 	C 	0.51999	0.63652	0.28235	-0.086
Mof_C 	C 	0.57833	0.67028	0.24467	-0.012
Mof_H 	H 	0.627	0.6761	0.2678	0.024
Mof_C 	C 	0.53654	0.60869	0.35589	-0.069
Mof_C 	C 	0.27169	0.77263	0.3553	0.206
Mof_C 	C 	0.84879	0.89325	0.2509	-0.72
Mof_H 	H 	0.8051	0.8625	0.2511	0.27
Mof_C 	C 	0.92009	0.8642	0.2698	0.977
Mof_H 	H 	0.9246	0.8135	0.283	-1.15
Mof_C 	C 	0.15713	0.78327	0.27316	-0.508
Mof_H 	H 	0.1753	0.7418	0.2476	0.204
Mof_C 	C 	0.9847	0.90819	0.2696	-0.531
Mof_C 	C 	0.17246	0.87066	0.37002	-0.617
Mof_H 	H 	0.2014	0.8896	0.41	0.238
Mof_C 	C 	0.08881	0.8166	0.2511	0.608
Mof_C 	C 	0.10359	0.90315	0.34923	0.85
Mof_H 	H 	0.0855	0.9442	0.3754	-1.115
Mof_C 	C 	0.90554	0.01169	0.23091	-0.657
Mof_H 	H 	0.9009	0.0623	0.2173	0.234
Mof_C 	C 	0.97682	0.98199	0.25	0.855
Mof_O 	O 	0.42786	0.66931	0.40363	-0.582
Mof_O 	O 	0.39226	0.58873	0.2772	-0.569
Mof_N 	N 	0.52575	0.33938	0.12957	-0.202
Mof_N 	N 	0.45532	0.42343	0.217	-0.212
Mof_O 	O 	0.41453	0.70533	0.03688	-0.451
Mof_O 	O 	0.53616	0.72881	0.02776	-0.325
Mof_C 	C 	0.49149	0.62775	0.41416	0.185
Mof_C 	C 	0.48259	0.7092	0.06424	0.285
Mof_C 	C 	0.51814	0.38291	0.25574	-0.058
Mof_H 	H 	0.4972	0.3522	0.2942	0.041
Mof_H 	H 	0.5542	0.4189	0.2783	0.031
Mof_C 	C 	0.55998	0.33338	0.20379	-0.065
Mof_H 	H 	0.6141	0.3481	0.2038	0.038
Mof_H 	H 	0.5575	0.2813	0.2201	0.039
Mof_C 	C 	0.5303	0.41833	0.10707	-0.054
Mof_H 	H 	0.5071	0.424	0.0581	0.03
Mof_H 	H 	0.5842	0.4336	0.1059	0.027
Mof_C 	C 	0.44418	0.31858	0.13088	-0.066
Mof_H 	H 	0.4397	0.2661	0.1456	0.038
Mof_H 	H 	0.4204	0.3237	0.0821	0.045
Mof_C 	C 	0.40233	0.36798	0.1832	-0.052
Mof_H 	H 	0.3601	0.3939	0.1571	0.024
Mof_H 	H 	0.3805	0.3369	0.2209	0.024
Mof_C 	C 	0.48861	0.46829	0.15938	-0.051
Mof_H 	H 	0.5247	0.5048	0.181	0.027
Mof_H 	H 	0.4477	0.4958	0.1329	0.026
Mof_C 	C 	0.06066	0.87638	0.29051	-0.339
Mof_O 	O 	0.0508	0.7939	0.1887	0.641
Mof_H 	H 	0.0705	0.7546	0.174	-0.126
Mof_O 	O 	0.0413	0.0287	0.2424	0.883
Mof_H 	H 	0.0812	0.0046	0.2524	-0.203
Mof_O 	O 	0.9191	0.7875	0.2932	1.064
Mof_H 	H 	0.8975	0.7614	0.2611	-0.286
Mof_O 	O 	0.0833	0.9695	0.385	1.048
Mof_H 	H 	0.0852	0.9623	0.4295	-0.229
Mof_H 	H 	0.0205	0.0128	0.2494	-1.008
Mof_H 	H 	0.0613	0.7991	0.2097	-0.743
Mof_Zn	Zn	0.60327	0.98285	0.21019	1.21
Mof_Zn	Zn	0.67114	0.11844	0.1359	1.208
Mof_Zn	Zn	0.58565	0.26978	0.06493	1.213
Mof_O 	O 	0.69089	0.30029	0.09131	-0.45
Mof_O 	O 	0.43834	0.05593	0.88077	-0.47
Mof_O 	O 	0.29072	0.45456	0.27706	-0.453
Mof_O 	O 	0.35477	0.97752	0.9264	-0.478
Mof_O 	O 	0.23919	0.56145	0.31367	-0.429
Mof_O 	O 	0.70816	0.21727	0.18046	-0.43
Mof_C 	C 	0.40417	0.02757	0.93301	0.335
Mof_C 	C 	0.56402	0.15496	0.32241	-0.168
Mof_H 	H 	0.6132	0.1516	0.3451	0.101
Mof_C 	C 	0.39916	0.06413	0.13162	-0.033
Mof_H 	H 	0.3681	0.0523	0.1704	0.03
Mof_C 	C 	0.42392	0.05687	0.00635	-0.025
Mof_C 	C 	0.43326	0.19523	0.32527	-0.071
Mof_H 	H 	0.3929	0.2173	0.3499	0.056
Mof_C 	C 	0.48709	0.10233	0.01729	-0.142
Mof_H 	H 	0.516	0.1163	0.9776	0.084
Mof_C 	C 	0.23512	0.49755	0.28796	0.212
Mof_C 	C 	0.37991	0.03698	0.06384	-0.045
Mof_H 	H 	0.3373	0.0052	0.0565	0.041
Mof_C 	C 	0.55174	0.12723	0.25259	0.203
Mof_C 	C 	0.50521	0.18736	0.35891	-0.007
Mof_C 	C 	0.15816	0.46693	0.26803	0.367
Mof_C 	C 	0.80119	0.31035	0.1678	0.276
Mof_C 	C 	0.48001	0.13652	0.21765	-0.086
Mof_C 	C 	0.42167	0.17028	0.25533	-0.011
Mof_H 	H 	0.373	0.1761	0.2322	0.024
Mof_C 	C 	0.46346	0.10869	0.14411	-0.069
Mof_C 	C 	0.72831	0.27263	0.1447	0.206
Mof_C 	C 	0.15121	0.39325	0.2491	-0.724
Mof_H 	H 	0.1949	0.3625	0.2489	0.272
Mof_C 	C 	0.07991	0.3642	0.2302	0.979
Mof_H 	H 	0.0754	0.3135	0.217	-1.148
Mof_C 	C 	0.84287	0.28327	0.22684	-0.508
Mof_H 	H 	0.8247	0.2418	0.2524	0.205
Mof_C 	C 	0.0153	0.40819	0.2304	-0.532
Mof_C 	C 	0.82754	0.37066	0.12998	-0.617
Mof_H 	H 	0.7986	0.3896	0.09	0.238
Mof_C 	C 	0.91119	0.3166	0.2489	0.608
Mof_C 	C 	0.89641	0.40315	0.15077	0.851
Mof_H 	H 	0.9145	0.4442	0.1246	-1.116
Mof_C 	C 	0.09446	0.51169	0.26909	-0.673
Mof_H 	H 	0.0991	0.5623	0.2827	0.238
Mof_C 	C 	0.02318	0.48199	0.25	0.863
Mof_O 	O 	0.57214	0.16931	0.09637	-0.581
Mof_O 	O 	0.60774	0.08873	0.2228	-0.567
Mof_N 	N 	0.47425	0.83938	0.37043	-0.203
Mof_N 	N 	0.54468	0.92343	0.283	-0.212
Mof_O 	O 	0.58547	0.20533	0.46312	-0.45
Mof_O 	O 	0.46384	0.22881	0.47224	-0.324
Mof_C 	C 	0.50851	0.12775	0.08584	0.184
Mof_C 	C 	0.51741	0.2092	0.43576	0.285
Mof_C 	C 	0.48186	0.88291	0.24426	-0.058
Mof_H 	H 	0.5028	0.8522	0.2058	0.041
Mof_H 	H 	0.4458	0.9189	0.2217	0.03
Mof_C 	C 	0.44002	0.83338	0.29621	-0.065
Mof_H 	H 	0.3859	0.8481	0.2962	0.037
Mof_H 	H 	0.4425	0.7813	0.2799	0.039
Mof_C 	C 	0.4697	0.91833	0.39293	-0.053
Mof_H 	H 	0.4929	0.924	0.4419	0.029
Mof_H 	H 	0.4158	0.9336	0.3941	0.026
Mof_C 	C 	0.55582	0.81858	0.36912	-0.066
Mof_H 	H 	0.5603	0.7661	0.3544	0.038
Mof_H 	H 	0.5796	0.8237	0.4179	0.045
Mof_C 	C 	0.59767	0.86798	0.3168	-0.052
Mof_H 	H 	0.6399	0.8939	0.3429	0.023
Mof_H 	H 	0.6195	0.8369	0.2791	0.023
Mof_C 	C 	0.51139	0.96829	0.34062	-0.054
Mof_H 	H 	0.4753	0.0048	0.319	0.029
Mof_H 	H 	0.5523	0.9958	0.3671	0.026
Mof_C 	C 	0.93934	0.37638	0.20949	-0.341
Mof_O 	O 	0.9492	0.2939	0.3113	0.641
Mof_H 	H 	0.9295	0.2546	0.326	-0.126
Mof_O 	O 	0.9587	0.5287	0.2576	0.868
Mof_H 	H 	0.9188	0.5046	0.2476	-0.199
Mof_O 	O 	0.0809	0.2875	0.2068	1.06
Mof_H 	H 	0.1025	0.2614	0.2389	-0.284
Mof_O 	O 	0.9167	0.4695	0.115	1.049
Mof_H 	H 	0.9148	0.4623	0.0705	-0.23
Mof_H 	H 	0.9795	0.5128	0.2506	-1
Mof_H 	H 	0.9387	0.2991	0.2903	-0.742
Mof_Zn	Zn	0.60327	0.51715	0.71019	1.211
Mof_Zn	Zn	0.67114	0.38156	0.6359	1.208
Mof_Zn	Zn	0.58565	0.23022	0.56493	1.213
Mof_O 	O 	0.69089	0.19971	0.59131	-0.451
Mof_O 	O 	0.43834	0.44407	0.38077	-0.471
Mof_O 	O 	0.29072	0.04544	0.77706	-0.454
Mof_O 	O 	0.35477	0.52248	0.4264	-0.484
Mof_O 	O 	0.23919	0.93855	0.81367	-0.425
Mof_O 	O 	0.70816	0.28273	0.68046	-0.43
Mof_C 	C 	0.40417	0.47243	0.43301	0.345
Mof_C 	C 	0.56402	0.34504	0.82241	-0.168
Mof_H 	H 	0.6132	0.3484	0.8451	0.1
Mof_C 	C 	0.39916	0.43587	0.63162	-0.034
Mof_H 	H 	0.3681	0.4477	0.6704	0.03
Mof_C 	C 	0.42392	0.44313	0.50635	-0.03
Mof_C 	C 	0.43326	0.30477	0.82527	-0.071
Mof_H 	H 	0.3929	0.2827	0.8499	0.056
Mof_C 	C 	0.48709	0.39767	0.51729	-0.147
Mof_H 	H 	0.516	0.3837	0.4776	0.088
Mof_C 	C 	0.23512	0.00245	0.78796	0.21
Mof_C 	C 	0.37991	0.46302	0.56384	-0.043
Mof_H 	H 	0.3373	0.4948	0.5565	0.04
Mof_C 	C 	0.55174	0.37277	0.75259	0.203
Mof_C 	C 	0.50521	0.31264	0.85891	-0.008
Mof_C 	C 	0.15816	0.03307	0.76803	0.358
Mof_C 	C 	0.80119	0.18965	0.6678	0.275
Mof_C 	C 	0.48001	0.36348	0.71765	-0.086
Mof_C 	C 	0.42167	0.32972	0.75533	-0.012
Mof_H 	H 	0.373	0.3239	0.7322	0.024
Mof_C 	C 	0.46346	0.39131	0.64411	-0.069
Mof_C 	C 	0.72831	0.22737	0.6447	0.206
Mof_C 	C 	0.15121	0.10675	0.7491	-0.72
Mof_H 	H 	0.1949	0.1375	0.7489	0.27
Mof_C 	C 	0.07991	0.1358	0.7302	0.977
Mof_H 	H 	0.0754	0.1865	0.717	-1.15
Mof_C 	C 	0.84287	0.21673	0.72684	-0.508
Mof_H 	H 	0.8247	0.2582	0.7524	0.204
Mof_C 	C 	0.0153	0.09181	0.7304	-0.531
Mof_C 	C 	0.82754	0.12934	0.62998	-0.617
Mof_H 	H 	0.7986	0.1104	0.59	0.238
Mof_C 	C 	0.91119	0.1834	0.7489	0.608
Mof_C 	C 	0.89641	0.09685	0.65077	0.85
Mof_H 	H 	0.9145	0.0558	0.6246	-1.115
Mof_C 	C 	0.09446	0.98831	0.76909	-0.657
Mof_H 	H 	0.0991	0.9377	0.7827	0.234
Mof_C 	C 	0.02318	0.01801	0.75	0.855
Mof_O 	O 	0.57214	0.33069	0.59637	-0.582
Mof_O 	O 	0.60774	0.41127	0.7228	-0.569
Mof_N 	N 	0.47425	0.66062	0.87043	-0.202
Mof_N 	N 	0.54468	0.57657	0.783	-0.212
Mof_O 	O 	0.58547	0.29467	0.96312	-0.451
Mof_O 	O 	0.46384	0.27119	0.97224	-0.325
Mof_C 	C 	0.50851	0.37225	0.58584	0.185
Mof_C 	C 	0.51741	0.2908	0.93576	0.285
Mof_C 	C 	0.48186	0.61709	0.74426	-0.058
Mof_H 	H 	0.5028	0.6478	0.7058	0.041
Mof_H 	H 	0.4458	0.5811	0.7217	0.031
Mof_C 	C 	0.44002	0.66662	0.79621	-0.065
Mof_H 	H 	0.3859	0.6519	0.7962	0.038
Mof_H 	H 	0.4425	0.7187	0.7799	0.039
Mof_C 	C 	0.4697	0.58167	0.89293	-0.054
Mof_H 	H 	0.4929	0.576	0.9419	0.03
Mof_H 	H 	0.4158	0.5664	0.8941	0.027
Mof_C 	C 	0.55582	0.68142	0.86912	-0.066
Mof_H 	H 	0.5603	0.7339	0.8544	0.038
Mof_H 	H 	0.5796	0.6763	0.9179	0.045
Mof_C 	C 	0.59767	0.63202	0.8168	-0.052
Mof_H 	H 	0.6399	0.6061	0.8429	0.024
Mof_H 	H 	0.6195	0.6631	0.7791	0.024
Mof_C 	C 	0.51139	0.53171	0.84062	-0.051
Mof_H 	H 	0.4753	0.4952	0.819	0.027
Mof_H 	H 	0.5523	0.5042	0.8671	0.026
Mof_C 	C 	0.93934	0.12362	0.70949	-0.339
Mof_O 	O 	0.9492	0.2061	0.8113	0.641
Mof_H 	H 	0.9295	0.2454	0.826	-0.126
Mof_O 	O 	0.9587	0.9713	0.7576	0.883
Mof_H 	H 	0.9188	0.9954	0.7476	-0.203
Mof_O 	O 	0.0809	0.2125	0.7068	1.064
Mof_H 	H 	0.1025	0.2386	0.7389	-0.286
Mof_O 	O 	0.9167	0.0305	0.615	1.048
Mof_H 	H 	0.9148	0.0377	0.5705	-0.229
Mof_H 	H 	0.9795	0.9872	0.7506	-1.008
Mof_H 	H 	0.9387	0.2009	0.7903	-0.743
Mof_Zn	Zn	0.39673	0.01715	0.7898	1.21
Mof_Zn	Zn	0.32886	0.88156	0.8641	1.208
Mof_Zn	Zn	0.41435	0.73022	0.93507	1.213
Mof_O 	O 	0.30911	0.69971	0.90869	-0.45
Mof_O 	O 	0.56166	0.94407	0.11923	-0.47
Mof_O 	O 	0.70928	0.54544	0.72294	-0.453
Mof_O 	O 	0.64523	0.02248	0.0736	-0.478
Mof_O 	O 	0.76081	0.43855	0.68633	-0.429
Mof_O 	O 	0.29184	0.78273	0.81954	-0.43
Mof_C 	C 	0.59583	0.97243	0.06699	0.335
Mof_C 	C 	0.43598	0.84504	0.67759	-0.168
Mof_H 	H 	0.3868	0.8484	0.6549	0.101
Mof_C 	C 	0.60084	0.93587	0.86838	-0.033
Mof_H 	H 	0.6319	0.9477	0.8296	0.03
Mof_C 	C 	0.57608	0.94313	0.99365	-0.025
Mof_C 	C 	0.56674	0.80477	0.67473	-0.071
Mof_H 	H 	0.6071	0.7827	0.6501	0.056
Mof_C 	C 	0.51291	0.89767	0.98271	-0.142
Mof_H 	H 	0.484	0.8837	0.0224	0.084
Mof_C 	C 	0.76488	0.50245	0.71204	0.212
Mof_C 	C 	0.62009	0.96302	0.93616	-0.045
Mof_H 	H 	0.6627	0.9948	0.9435	0.041
Mof_C 	C 	0.44826	0.87277	0.74741	0.203
Mof_C 	C 	0.49479	0.81264	0.64109	-0.007
Mof_C 	C 	0.84184	0.53307	0.73197	0.367
Mof_C 	C 	0.19881	0.68965	0.8322	0.276
Mof_C 	C 	0.51999	0.86348	0.78235	-0.086
Mof_C 	C 	0.57833	0.82972	0.74467	-0.011
Mof_H 	H 	0.627	0.8239	0.7678	0.024
Mof_C 	C 	0.53654	0.89131	0.85589	-0.069
Mof_C 	C 	0.27169	0.72737	0.8553	0.206
Mof_C 	C 	0.84879	0.60675	0.7509	-0.724
Mof_H 	H 	0.8051	0.6375	0.7511	0.272
Mof_C 	C 	0.92009	0.6358	0.7698	0.979
Mof_H 	H 	0.9246	0.6865	0.783	-1.148
Mof_C 	C 	0.15713	0.71673	0.77316	-0.508
Mof_H 	H 	0.1753	0.7582	0.7476	0.205
Mof_C 	C 	0.9847	0.59181	0.7696	-0.532
Mof_C 	C 	0.17246	0.62934	0.87002	-0.617
Mof_H 	H 	0.2014	0.6104	0.91	0.238
Mof_C 	C 	0.08881	0.6834	0.7511	0.608
Mof_C 	C 	0.10359	0.59685	0.84923	0.851
Mof_H 	H 	0.0855	0.5558	0.8754	-1.116
Mof_C 	C 	0.90554	0.48831	0.73091	-0.673
Mof_H 	H 	0.9009	0.4377	0.7173	0.238
Mof_C 	C 	0.97682	0.51801	0.75	0.863
Mof_O 	O 	0.42786	0.83069	0.90363	-0.581
Mof_O 	O 	0.39226	0.91127	0.7772	-0.567
Mof_N 	N 	0.52575	0.16062	0.62957	-0.203
Mof_N 	N 	0.45532	0.07657	0.717	-0.212
Mof_O 	O 	0.41453	0.79467	0.53688	-0.45
Mof_O 	O 	0.53616	0.77119	0.52776	-0.324
Mof_C 	C 	0.49149	0.87225	0.91416	0.184
Mof_C 	C 	0.48259	0.7908	0.56424	0.285
Mof_C 	C 	0.51814	0.11709	0.75574	-0.058
Mof_H 	H 	0.4972	0.1478	0.7942	0.041
Mof_H 	H 	0.5542	0.0811	0.7783	0.03
Mof_C 	C 	0.55998	0.16662	0.70379	-0.065
Mof_H 	H 	0.6141	0.1519	0.7038	0.037
Mof_H 	H 	0.5575	0.2187	0.7201	0.039
Mof_C 	C 	0.5303	0.08167	0.60707	-0.053
Mof_H 	H 	0.5071	0.076	0.5581	0.029
Mof_H 	H 	0.5842	0.0664	0.6059	0.026
Mof_C 	C 	0.44418	0.18142	0.63088	-0.066
Mof_H 	H 	0.4397	0.2339	0.6456	0.038
Mof_H 	H 	0.4204	0.1763	0.5821	0.045
Mof_C 	C 	0.40233	0.13202	0.6832	-0.052
Mof_H 	H 	0.3601	0.1061	0.6571	0.023
Mof_H 	H 	0.3805	0.1631	0.7209	0.023
Mof_C 	C 	0.48861	0.03171	0.65938	-0.054
Mof_H 	H 	0.5247	0.9952	0.681	0.029
Mof_H 	H 	0.4477	0.0042	0.6329	0.026
Mof_C 	C 	0.06066	0.62362	0.79051	-0.341
Mof_O 	O 	0.0508	0.7061	0.6887	0.641
Mof_H 	H 	0.0705	0.7454	0.674	-0.126
Mof_O 	O 	0.0413	0.4713	0.7424	0.868
Mof_H 	H 	0.0812	0.4954	0.7524	-0.199
Mof_O 	O 	0.9191	0.7125	0.7932	1.06
Mof_H 	H 	0.8975	0.7386	0.7611	-0.284
Mof_O 	O 	0.0833	0.5305	0.885	1.049
Mof_H 	H 	0.0852	0.5377	0.9295	-0.23
Mof_H 	H 	0.0205	0.4872	0.7494	-1
Mof_H 	H 	0.0613	0.7009	0.7097	-0.742
_end
