data_functionalizedCrystal
_audit_creation_method	'EQeq! by Chris Wilmer'
_symmetry_space_group_name_H-M	'P1'
_symmetry_Int_Tables_number	1
_symmetry_cell_setting	triclinic
loop_
_symmetry_equiv_pos_as_xyz
  x,y,z
_cell_length_a	15.8956
_cell_length_b	15.8956
_cell_length_c	7.6028
_cell_angle_alpha	90
_cell_angle_beta	90
_cell_angle_gamma	120
loop_
_atom_site_label
_atom_site_type_symbol
_atom_site_fract_x
_atom_site_fract_y
_atom_site_fract_z
_atom_site_charge
Mof_Gd	Gd	0.37021	0.18511	0.25515	1.633
Mof_N 	N 	0.5012	0.1524	0.4014	-0.18
Mof_C 	C 	0.5934	0.1866	0.3507	0.142
Mof_H 	H 	0.6195	0.2388	0.273	-0.006
Mof_N 	N 	0.6513	0.1524	0.4017	-0.181
Mof_C 	C 	0.6124	0.076	0.5114	-0.022
Mof_C 	C 	0.5179	0.0354	0.5708	-0.004
Mof_H 	H 	0.4916	0.9828	0.6476	0.071
Mof_C 	C 	0.4636	0.0764	0.5108	-0.022
Mof_C 	C 	0.357	0.0334	0.5581	0.425
Mof_O 	O 	0.31327	0.07236	0.4925	-0.442
Mof_O 	O 	0.32137	0.96014	0.6556	-0.434
Mof_C 	C 	0.6763	0.0328	0.5576	0.429
Mof_O 	O 	0.75941	0.07272	0.4923	-0.443
Mof_O 	O 	0.63888	0.96054	0.6554	-0.436
Mof_O 	O 	0.3745	0.187	0.9236	-0.204
Mof_N 	N 	0.4657	0.233	0.9135	0.111
Mof_O 	O 	0.51105	0.2553	0.0618	-0.315
Mof_O 	O 	0.5083	0.254	0.7741	-0.085
Mof_Gd	Gd	0.81489	0.1851	0.25515	1.633
Mof_N 	N 	0.8476	0.3488	0.4014	-0.181
Mof_C 	C 	0.8134	0.4068	0.3507	0.141
Mof_H 	H 	0.7612	0.3807	0.273	-0.006
Mof_N 	N 	0.8476	0.4989	0.4017	-0.181
Mof_C 	C 	0.924	0.5364	0.5114	-0.022
Mof_C 	C 	0.9646	0.4825	0.5708	-0.004
Mof_H 	H 	0.0172	0.5088	0.6476	0.071
Mof_C 	C 	0.9236	0.3872	0.5108	-0.022
Mof_C 	C 	0.9666	0.3236	0.5581	0.425
Mof_O 	O 	0.92764	0.24091	0.4925	-0.442
Mof_O 	O 	0.03986	0.36123	0.6556	-0.434
Mof_C 	C 	0.9672	0.6435	0.5576	0.429
Mof_O 	O 	0.92728	0.68669	0.4923	-0.443
Mof_O 	O 	0.03946	0.67834	0.6554	-0.436
Mof_O 	O 	0.813	0.1875	0.9236	-0.205
Mof_N 	N 	0.767	0.2327	0.9135	0.111
Mof_O 	O 	0.7447	0.25575	0.0618	-0.314
Mof_O 	O 	0.746	0.2543	0.7741	-0.086
Mof_Gd	Gd	0.8149	0.62979	0.25515	1.632
Mof_N 	N 	0.6512	0.4988	0.4014	-0.18
Mof_C 	C 	0.5932	0.4066	0.3507	0.141
Mof_H 	H 	0.6193	0.3805	0.273	-0.006
Mof_N 	N 	0.5011	0.3487	0.4017	-0.18
Mof_C 	C 	0.4636	0.3876	0.5114	-0.024
Mof_C 	C 	0.5175	0.4821	0.5708	0.002
Mof_H 	H 	0.4912	0.5084	0.6476	0.067
Mof_C 	C 	0.6128	0.5364	0.5108	-0.024
Mof_C 	C 	0.6764	0.643	0.5581	0.429
Mof_O 	O 	0.75909	0.68673	0.4925	-0.442
Mof_O 	O 	0.63877	0.67863	0.6556	-0.436
Mof_C 	C 	0.3565	0.3237	0.5576	0.432
Mof_O 	O 	0.31331	0.24059	0.4923	-0.444
Mof_O 	O 	0.32166	0.36112	0.6554	-0.438
Mof_O 	O 	0.8125	0.6255	0.9236	-0.204
Mof_N 	N 	0.7673	0.5343	0.9135	0.111
Mof_O 	O 	0.74425	0.48895	0.0618	-0.315
Mof_O 	O 	0.7457	0.4917	0.7741	-0.085
Mof_Gd	Gd	0.62979	0.81489	0.75515	1.729
Mof_N 	N 	0.4988	0.8476	0.9014	-0.129
Mof_C 	C 	0.4066	0.8134	0.8507	0.158
Mof_H 	H 	0.3805	0.7612	0.773	-0.008
Mof_N 	N 	0.3487	0.8476	0.9017	-0.129
Mof_C 	C 	0.3876	0.924	0.0114	-0.115
Mof_C 	C 	0.4821	0.9646	0.0708	0.037
Mof_H 	H 	0.5084	0.0172	0.1476	0.039
Mof_C 	C 	0.5364	0.9236	0.0108	-0.115
Mof_C 	C 	0.643	0.9666	0.0581	0.318
Mof_O 	O 	0.68673	0.92764	0.9925	-0.345
Mof_O 	O 	0.67863	0.03986	0.1556	-0.432
Mof_C 	C 	0.3237	0.9672	0.0576	0.321
Mof_O 	O 	0.24059	0.92728	0.9923	-0.346
Mof_O 	O 	0.36112	0.03946	0.1554	-0.434
Mof_O 	O 	0.6255	0.813	0.4236	-0.265
Mof_N 	N 	0.5343	0.767	0.4135	0.069
Mof_O 	O 	0.48895	0.7447	0.5618	-0.259
Mof_O 	O 	0.4917	0.746	0.2741	-0.129
Mof_Gd	Gd	0.18511	0.8149	0.75515	1.73
Mof_N 	N 	0.1524	0.6512	0.9014	-0.129
Mof_C 	C 	0.1866	0.5932	0.8507	0.158
Mof_H 	H 	0.2388	0.6193	0.773	-0.008
Mof_N 	N 	0.1524	0.5011	0.9017	-0.129
Mof_C 	C 	0.076	0.4636	0.0114	-0.115
Mof_C 	C 	0.0354	0.5175	0.0708	0.037
Mof_H 	H 	0.9828	0.4912	0.1476	0.039
Mof_C 	C 	0.0764	0.6128	0.0108	-0.115
Mof_C 	C 	0.0334	0.6764	0.0581	0.317
Mof_O 	O 	0.07236	0.75909	0.9925	-0.344
Mof_O 	O 	0.96014	0.63877	0.1556	-0.433
Mof_C 	C 	0.0328	0.3565	0.0576	0.321
Mof_O 	O 	0.07272	0.31331	0.9923	-0.347
Mof_O 	O 	0.96054	0.32166	0.1554	-0.434
Mof_O 	O 	0.187	0.8125	0.4236	-0.265
Mof_N 	N 	0.233	0.7673	0.4135	0.069
Mof_O 	O 	0.2553	0.74425	0.5618	-0.259
Mof_O 	O 	0.254	0.7457	0.2741	-0.129
Mof_Gd	Gd	0.1851	0.37021	0.75515	1.729
Mof_N 	N 	0.3488	0.5012	0.9014	-0.129
Mof_C 	C 	0.4068	0.5934	0.8507	0.159
Mof_H 	H 	0.3807	0.6195	0.773	-0.008
Mof_N 	N 	0.4989	0.6513	0.9017	-0.129
Mof_C 	C 	0.5364	0.6124	0.0114	-0.114
Mof_C 	C 	0.4825	0.5179	0.0708	0.035
Mof_H 	H 	0.5088	0.4916	0.1476	0.04
Mof_C 	C 	0.3872	0.4636	0.0108	-0.114
Mof_C 	C 	0.3236	0.357	0.0581	0.317
Mof_O 	O 	0.24091	0.31327	0.9925	-0.345
Mof_O 	O 	0.36123	0.32137	0.1556	-0.432
Mof_C 	C 	0.6435	0.6763	0.0576	0.32
Mof_O 	O 	0.68669	0.75941	0.9923	-0.347
Mof_O 	O 	0.67834	0.63888	0.1554	-0.434
Mof_O 	O 	0.1875	0.3745	0.4236	-0.265
Mof_N 	N 	0.2327	0.4657	0.4135	0.069
Mof_O 	O 	0.25575	0.51105	0.5618	-0.259
Mof_O 	O 	0.2543	0.5083	0.2741	-0.129
_end
