data_functionalizedCrystal
_audit_creation_method	'EQeq! by Chris Wilmer'
_symmetry_space_group_name_H-M	'P1'
_symmetry_Int_Tables_number	1
_symmetry_cell_setting	triclinic
loop_
_symmetry_equiv_pos_as_xyz
  x,y,z
_cell_length_a	15.837
_cell_length_b	10.568
_cell_length_c	21.099
_cell_angle_alpha	90
_cell_angle_beta	107.098
_cell_angle_gamma	90
loop_
_atom_site_label
_atom_site_type_symbol
_atom_site_fract_x
_atom_site_fract_y
_atom_site_fract_z
_atom_site_charge
Mof_Pr	Pr	0.39919	0.08118	0.54697	2.589
Mof_O 	O 	0.5428	0.1722	0.5646	-0.663
Mof_O 	O 	0.5053	0.9218	0.5928	-0.627
Mof_O 	O 	0.3901	0.1727	0.4396	-0.603
Mof_O 	O 	0.238	0.1362	0.4893	-0.526
Mof_O 	O 	0.3444	0.9127	0.4613	-0.549
Mof_O 	O 	0.3931	0.0644	0.6638	-0.508
Mof_O 	O 	0.3098	0.929	0.594	-0.454
Mof_C 	C 	0.5785	0.865	0.6042	0.543
Mof_C 	C 	0.6311	0.8428	0.6759	-0.159
Mof_C 	C 	0.6973	0.7501	0.6906	-0.007
Mof_C 	C 	0.6147	0.9117	0.7266	0.061
Mof_C 	C 	0.7484	0.7262	0.7541	0.037
Mof_H 	H 	0.7069	0.7032	0.6561	0.041
Mof_C 	C 	0.6672	0.8896	0.7913	-0.083
Mof_H 	H 	0.5696	0.9714	0.7178	0.015
Mof_C 	C 	0.7326	0.798	0.8044	-0.044
Mof_N 	N 	0.8118	0.631	0.7668	-0.069
Mof_C 	C 	0.6535	0.9659	0.8475	0.329
Mof_H 	H 	0.7667	0.7844	0.8479	0.061
Mof_C 	C 	0.865	0.5994	0.8339	-0.202
Mof_C 	C 	0.8412	0.5752	0.714	-0.224
Mof_C 	C 	0.9479	0.6768	0.8589	0.179
Mof_H 	H 	0.8811	0.5107	0.8352	0.087
Mof_H 	H 	0.8292	0.6109	0.8638	0.087
Mof_H 	H 	0.8409	0.64	0.6813	0.1
Mof_C 	C 	0.7843	0.4643	0.6792	0.222
Mof_H 	H 	0.9016	0.5462	0.7323	0.098
Mof_C 	C 	0.9636	0.783	0.8271	-0.233
Mof_C 	C 	0.0125	0.6392	0.9166	-0.233
Mof_C 	C 	0.7069	0.4319	0.6908	-0.287
Mof_C 	C 	0.8121	0.3964	0.6335	-0.283
Mof_H 	H 	0.922	0.808	0.788	0.122
Mof_C 	C 	0.0399	0.8545	0.8514	0.14
Mof_C 	C 	0.0887	0.7081	0.9413	0.145
Mof_H 	H 	0.0038	0.5663	0.9387	0.101
Mof_C 	C 	0.6547	0.3332	0.6558	0.21
Mof_H 	H 	0.6884	0.476	0.7226	0.129
Mof_C 	C 	0.7608	0.299	0.5976	0.204
Mof_H 	H 	0.8659	0.4159	0.6264	0.124
Mof_C 	C 	0.1027	0.8173	0.9094	-0.217
Mof_H 	H 	0.0489	0.9266	0.8289	-0.004
Mof_H 	H 	0.1311	0.6814	0.9796	-0.025
Mof_C 	C 	0.6809	0.2679	0.6083	-0.298
Mof_H 	H 	0.6023	0.3118	0.6646	-0.062
Mof_H 	H 	0.78	0.2546	0.5664	-0.024
Mof_C 	C 	0.1842	0.891	0.9371	0.436
Mof_C 	C 	0.6222	0.1689	0.5678	0.593
Mof_O 	O 	0.1932	0.9885	0.9008	-0.263
Mof_Pr	Pr	0.60081	0.08118	0.95303	2.571
Mof_O 	O 	0.4572	0.1722	0.9354	-0.663
Mof_O 	O 	0.4947	0.9218	0.9072	-0.622
Mof_O 	O 	0.6099	0.1727	0.0604	-0.599
Mof_O 	O 	0.762	0.1362	0.0107	-0.521
Mof_O 	O 	0.6556	0.9127	0.0387	-0.55
Mof_O 	O 	0.6069	0.0644	0.8362	-0.509
Mof_O 	O 	0.6902	0.929	0.906	-0.452
Mof_C 	C 	0.4215	0.865	0.8958	0.541
Mof_C 	C 	0.3689	0.8428	0.8241	-0.157
Mof_C 	C 	0.3027	0.7501	0.8094	-0.008
Mof_C 	C 	0.3853	0.9117	0.7734	0.06
Mof_C 	C 	0.2516	0.7262	0.7459	0.037
Mof_H 	H 	0.2931	0.7032	0.8439	0.041
Mof_C 	C 	0.3328	0.8896	0.7087	-0.081
Mof_H 	H 	0.4304	0.9714	0.7822	0.016
Mof_C 	C 	0.2674	0.798	0.6956	-0.045
Mof_N 	N 	0.1882	0.631	0.7332	-0.069
Mof_C 	C 	0.3465	0.9659	0.6525	0.327
Mof_H 	H 	0.2333	0.7844	0.6521	0.061
Mof_C 	C 	0.135	0.5994	0.6661	-0.204
Mof_C 	C 	0.1588	0.5752	0.786	-0.225
Mof_C 	C 	0.0521	0.6768	0.6411	0.182
Mof_H 	H 	0.1189	0.5107	0.6648	0.088
Mof_H 	H 	0.1708	0.6109	0.6362	0.088
Mof_H 	H 	0.1591	0.64	0.8187	0.101
Mof_C 	C 	0.2157	0.4643	0.8208	0.223
Mof_H 	H 	0.0984	0.5462	0.7677	0.099
Mof_C 	C 	0.0364	0.783	0.6729	-0.229
Mof_C 	C 	0.9875	0.6392	0.5834	-0.239
Mof_C 	C 	0.2931	0.4319	0.8092	-0.287
Mof_C 	C 	0.1879	0.3964	0.8665	-0.283
Mof_H 	H 	0.078	0.808	0.712	0.121
Mof_C 	C 	0.9601	0.8545	0.6486	0.136
Mof_C 	C 	0.9113	0.7081	0.5587	0.147
Mof_H 	H 	0.9962	0.5663	0.5613	0.102
Mof_C 	C 	0.3453	0.3332	0.8442	0.21
Mof_H 	H 	0.3116	0.476	0.7774	0.129
Mof_C 	C 	0.2392	0.299	0.9024	0.204
Mof_H 	H 	0.1341	0.4159	0.8736	0.124
Mof_C 	C 	0.8973	0.8173	0.5906	-0.217
Mof_H 	H 	0.9511	0.9266	0.6711	-0.004
Mof_H 	H 	0.8689	0.6814	0.5204	-0.027
Mof_C 	C 	0.3191	0.2679	0.8917	-0.298
Mof_H 	H 	0.3977	0.3118	0.8354	-0.062
Mof_H 	H 	0.22	0.2546	0.9336	-0.025
Mof_C 	C 	0.8158	0.891	0.5629	0.436
Mof_C 	C 	0.3778	0.1689	0.9322	0.592
Mof_O 	O 	0.8068	0.9885	0.5992	-0.265
Mof_Pr	Pr	0.60081	0.91882	0.45303	2.588
Mof_O 	O 	0.4572	0.8278	0.4354	-0.664
Mof_O 	O 	0.4947	0.0782	0.4072	-0.627
Mof_O 	O 	0.6099	0.8273	0.5604	-0.603
Mof_O 	O 	0.762	0.8638	0.5107	-0.526
Mof_O 	O 	0.6556	0.0873	0.5387	-0.549
Mof_O 	O 	0.6069	0.9356	0.3362	-0.508
Mof_O 	O 	0.6902	0.071	0.406	-0.454
Mof_C 	C 	0.4215	0.135	0.3958	0.543
Mof_C 	C 	0.3689	0.1572	0.3241	-0.159
Mof_C 	C 	0.3027	0.2499	0.3094	-0.007
Mof_C 	C 	0.3853	0.0883	0.2734	0.061
Mof_C 	C 	0.2516	0.2738	0.2459	0.037
Mof_H 	H 	0.2931	0.2968	0.3439	0.041
Mof_C 	C 	0.3328	0.1104	0.2087	-0.083
Mof_H 	H 	0.4304	0.0286	0.2822	0.015
Mof_C 	C 	0.2674	0.202	0.1956	-0.044
Mof_N 	N 	0.1882	0.369	0.2332	-0.069
Mof_C 	C 	0.3465	0.0341	0.1525	0.329
Mof_H 	H 	0.2333	0.2156	0.1521	0.061
Mof_C 	C 	0.135	0.4006	0.1661	-0.202
Mof_C 	C 	0.1588	0.4248	0.286	-0.224
Mof_C 	C 	0.0521	0.3232	0.1411	0.179
Mof_H 	H 	0.1189	0.4893	0.1648	0.087
Mof_H 	H 	0.1708	0.3891	0.1362	0.087
Mof_H 	H 	0.1591	0.36	0.3187	0.1
Mof_C 	C 	0.2157	0.5357	0.3208	0.222
Mof_H 	H 	0.0984	0.4538	0.2677	0.098
Mof_C 	C 	0.0364	0.217	0.1729	-0.233
Mof_C 	C 	0.9875	0.3608	0.0834	-0.233
Mof_C 	C 	0.2931	0.5681	0.3092	-0.287
Mof_C 	C 	0.1879	0.6036	0.3665	-0.283
Mof_H 	H 	0.078	0.192	0.212	0.122
Mof_C 	C 	0.9601	0.1455	0.1486	0.14
Mof_C 	C 	0.9113	0.2919	0.0587	0.145
Mof_H 	H 	0.9962	0.4337	0.0613	0.101
Mof_C 	C 	0.3453	0.6668	0.3442	0.21
Mof_H 	H 	0.3116	0.524	0.2774	0.129
Mof_C 	C 	0.2392	0.701	0.4024	0.204
Mof_H 	H 	0.1341	0.5841	0.3736	0.124
Mof_C 	C 	0.8973	0.1827	0.0906	-0.217
Mof_H 	H 	0.9511	0.0734	0.1711	-0.004
Mof_H 	H 	0.8689	0.3186	0.0204	-0.025
Mof_C 	C 	0.3191	0.7321	0.3917	-0.298
Mof_H 	H 	0.3977	0.6882	0.3354	-0.062
Mof_H 	H 	0.22	0.7454	0.4336	-0.024
Mof_C 	C 	0.8158	0.109	0.0629	0.436
Mof_C 	C 	0.3778	0.8311	0.4322	0.593
Mof_O 	O 	0.8068	0.0115	0.0992	-0.263
Mof_Pr	Pr	0.39919	0.91882	0.04697	2.571
Mof_O 	O 	0.5428	0.8278	0.0646	-0.663
Mof_O 	O 	0.5053	0.0782	0.0928	-0.622
Mof_O 	O 	0.3901	0.8273	0.9396	-0.599
Mof_O 	O 	0.238	0.8638	0.9893	-0.521
Mof_O 	O 	0.3444	0.0873	0.9613	-0.55
Mof_O 	O 	0.3931	0.9356	0.1638	-0.509
Mof_O 	O 	0.3098	0.071	0.094	-0.452
Mof_C 	C 	0.5785	0.135	0.1042	0.541
Mof_C 	C 	0.6311	0.1572	0.1759	-0.157
Mof_C 	C 	0.6973	0.2499	0.1906	-0.008
Mof_C 	C 	0.6147	0.0883	0.2266	0.06
Mof_C 	C 	0.7484	0.2738	0.2541	0.037
Mof_H 	H 	0.7069	0.2968	0.1561	0.041
Mof_C 	C 	0.6672	0.1104	0.2913	-0.081
Mof_H 	H 	0.5696	0.0286	0.2178	0.016
Mof_C 	C 	0.7326	0.202	0.3044	-0.045
Mof_N 	N 	0.8118	0.369	0.2668	-0.069
Mof_C 	C 	0.6535	0.0341	0.3475	0.327
Mof_H 	H 	0.7667	0.2156	0.3479	0.061
Mof_C 	C 	0.865	0.4006	0.3339	-0.204
Mof_C 	C 	0.8412	0.4248	0.214	-0.225
Mof_C 	C 	0.9479	0.3232	0.3589	0.182
Mof_H 	H 	0.8811	0.4893	0.3352	0.088
Mof_H 	H 	0.8292	0.3891	0.3638	0.088
Mof_H 	H 	0.8409	0.36	0.1813	0.101
Mof_C 	C 	0.7843	0.5357	0.1792	0.223
Mof_H 	H 	0.9016	0.4538	0.2323	0.099
Mof_C 	C 	0.9636	0.217	0.3271	-0.229
Mof_C 	C 	0.0125	0.3608	0.4166	-0.239
Mof_C 	C 	0.7069	0.5681	0.1908	-0.287
Mof_C 	C 	0.8121	0.6036	0.1335	-0.283
Mof_H 	H 	0.922	0.192	0.288	0.121
Mof_C 	C 	0.0399	0.1455	0.3514	0.136
Mof_C 	C 	0.0887	0.2919	0.4413	0.147
Mof_H 	H 	0.0038	0.4337	0.4387	0.102
Mof_C 	C 	0.6547	0.6668	0.1558	0.21
Mof_H 	H 	0.6884	0.524	0.2226	0.129
Mof_C 	C 	0.7608	0.701	0.0976	0.204
Mof_H 	H 	0.8659	0.5841	0.1264	0.124
Mof_C 	C 	0.1027	0.1827	0.4094	-0.217
Mof_H 	H 	0.0489	0.0734	0.3289	-0.004
Mof_H 	H 	0.1311	0.3186	0.4796	-0.027
Mof_C 	C 	0.6809	0.7321	0.1083	-0.298
Mof_H 	H 	0.6023	0.6882	0.1646	-0.062
Mof_H 	H 	0.78	0.7454	0.0664	-0.025
Mof_C 	C 	0.1842	0.109	0.4371	0.436
Mof_C 	C 	0.6222	0.8311	0.0678	0.592
Mof_O 	O 	0.1932	0.0115	0.4008	-0.265
_end
