data_functionalizedCrystal
_audit_creation_method	'EQeq! by Chris Wilmer'
_symmetry_space_group_name_H-M	'P1'
_symmetry_Int_Tables_number	1
_symmetry_cell_setting	triclinic
loop_
_symmetry_equiv_pos_as_xyz
  x,y,z
_cell_length_a	36.155
_cell_length_b	18.566
_cell_length_c	48.725
_cell_angle_alpha	90
_cell_angle_beta	90
_cell_angle_gamma	90
loop_
_atom_site_label
_atom_site_type_symbol
_atom_site_fract_x
_atom_site_fract_y
_atom_site_fract_z
_atom_site_charge
Mof_Fe	Fe	0.98206	0.96567	0.20941	2.392
Mof_Fe	Fe	0.95751	0.0256	0.2707	2.322
Mof_Fe	Fe	0.02974	0.09676	0.23795	2.547
Mof_Fe	Fe	0.20823	0.5208	0.45501	2.321
Mof_Fe	Fe	0.2839	0.596	0.48561	2.591
Mof_Fe	Fe	0.23379	0.46946	0.51647	2.411
Mof_O 	O 	0.00107	0.01629	0.29871	-0.494
Mof_O 	O 	0.04576	0.08112	0.27853	-0.498
Mof_O 	O 	0.20327	0.41571	0.45538	-0.613
Mof_O 	O 	0.22328	0.37356	0.49452	-0.525
Mof_O 	O 	0.25177	0.67941	0.47204	-0.64
Mof_O 	O 	0.20861	0.63077	0.448	-0.57
Mof_O 	O 	0.25125	0.50694	0.42643	-0.519
Mof_O 	O 	0.29711	0.56879	0.4463	-0.616
Mof_O 	O 	0.45369	0.0823	0.27263	-0.577
Mof_O 	O 	0.47023	0.13005	0.23353	-0.515
Mof_O 	O 	0.50138	0.81616	0.24979	-0.591
Mof_O 	O 	0.45857	0.86698	0.27653	-0.587
Mof_O 	O 	0.27465	0.62928	0.52378	-0.666
Mof_O 	O 	0.24223	0.54743	0.54545	-0.597
Mof_O 	O 	0.46221	0.93319	0.7064	-0.553
Mof_O 	O 	0.43174	0.0183	0.72749	-0.53
Mof_O 	O 	0.08748	0.96416	0.74736	-0.612
Mof_O 	O 	0.07159	0.00944	0.70687	-0.608
Mof_O 	O 	0.1632	0.53721	0.47786	-0.586
Mof_O 	O 	0.17792	0.49197	0.51789	-0.585
Mof_O 	O 	0.00975	0.95833	0.67921	-0.593
Mof_O 	O 	0.97522	0.87741	0.7001	-0.687
Mof_O 	O 	0.78857	0.56531	0.52037	-0.542
Mof_O 	O 	0.81924	0.47812	0.49971	-0.651
Mof_O 	O 	0.97253	0.89254	0.1764	-0.293
Mof_O 	O 	0.92338	0.0244	0.3052	-0.322
Mof_O 	O 	0.07541	0.1656	0.23753	-0.322
Mof_O 	O 	0.99166	0.02686	0.24053	-1.014
Mof_O 	O 	0.17281	0.51723	0.42119	-0.316
Mof_O 	O 	0.22392	0.39991	0.55137	-0.277
Mof_O 	O 	0.24159	0.52933	0.48545	-0.965
Mof_C 	C 	0.0323	0.0452	0.2982	0.482
Mof_C 	C 	0.05778	0.0421	0.32283	-0.172
Mof_C 	C 	0.0881	0.0828	0.32597	0.104
Mof_H 	H 	0.0931	0.1177	0.3122	0.018
Mof_C 	C 	0.1117	0.0783	0.34673	-0.148
Mof_H 	H 	0.1338	0.1059	0.3468	0.084
Mof_C 	C 	0.10297	0.0309	0.36899	0.072
Mof_C 	C 	0.0731	0.9905	0.36728	-0.128
Mof_H 	H 	0.0684	0.9563	0.3813	0.075
Mof_C 	C 	0.04727	0.9964	0.34487	0.065
Mof_H 	H 	0.0244	0.9711	0.3448	0.026
Mof_C 	C 	0.1277	0.0281	0.39448	0.024
Mof_C 	C 	0.13982	0.0887	0.40568	-0.085
Mof_H 	H 	0.1304	0.1332	0.399	0.062
Mof_C 	C 	0.16565	0.09	0.42674	0.013
Mof_C 	C 	0.17887	0.0245	0.43563	-0.069
Mof_H 	H 	0.1965	0.0234	0.4501	0.05
Mof_C 	C 	0.16719	0.9599	0.42409	0.001
Mof_C 	C 	0.13955	0.9614	0.40301	-0.079
Mof_H 	H 	0.1299	0.9183	0.3953	0.058
Mof_C 	C 	0.17571	0.1578	0.43942	0.077
Mof_C 	C 	0.18211	0.2234	0.42291	-0.158
Mof_H 	H 	0.1782	0.2207	0.4037	0.086
Mof_C 	C 	0.19316	0.2867	0.43353	0.139
Mof_H 	H 	0.1961	0.3274	0.4219	0.006
Mof_C 	C 	0.20001	0.2922	0.46027	-0.242
Mof_C 	C 	0.1999	0.2315	0.47578	0.141
Mof_H 	H 	0.2057	0.2357	0.4947	0
Mof_C 	C 	0.19213	0.1664	0.46583	-0.166
Mof_H 	H 	0.1976	0.125	0.4765	0.087
Mof_C 	C 	0.2109	0.3651	0.47078	0.561
Mof_C 	C 	0.18113	0.8893	0.43396	0.108
Mof_C 	C 	0.21041	0.8818	0.44927	-0.192
Mof_H 	H 	0.2213	0.9242	0.4566	0.092
Mof_C 	C 	0.22697	0.8159	0.45577	0.158
Mof_H 	H 	0.2501	0.8149	0.4649	-0.02
Mof_C 	C 	0.20994	0.7538	0.44897	-0.272
Mof_C 	C 	0.17643	0.7584	0.4347	0.126
Mof_H 	H 	0.1658	0.7168	0.4265	0.008
Mof_C 	C 	0.15834	0.8275	0.43272	-0.161
Mof_H 	H 	0.1323	0.8312	0.4307	0.087
Mof_C 	C 	0.22494	0.6832	0.45704	0.632
Mof_C 	C 	0.28328	0.532	0.42782	0.549
Mof_C 	C 	0.30849	0.5112	0.40448	-0.218
Mof_C 	C 	0.29917	0.4633	0.38452	0.121
Mof_H 	H 	0.2765	0.4376	0.3859	0.007
Mof_C 	C 	0.32235	0.4512	0.36219	-0.168
Mof_H 	H 	0.3145	0.4202	0.3478	0.09
Mof_C 	C 	0.35652	0.4839	0.36074	0.103
Mof_C 	C 	0.36649	0.5301	0.38068	-0.171
Mof_H 	H 	0.3896	0.5543	0.3794	0.088
Mof_C 	C 	0.3438	0.543	0.40294	0.113
Mof_H 	H 	0.3521	0.5736	0.4173	-0.005
Mof_C 	C 	0.38123	0.4792	0.33733	-0.005
Mof_C 	C 	0.38992	0.4118	0.32474	-0.065
Mof_H 	H 	0.3806	0.3686	0.3326	0.052
Mof_C 	C 	0.41217	0.4079	0.30069	0.005
Mof_C 	C 	0.42454	0.4737	0.28849	-0.068
Mof_H 	H 	0.4401	0.4718	0.2728	0.054
Mof_C 	C 	0.4142	0.5414	0.29927	0.005
Mof_C 	C 	0.39591	0.5405	0.32572	-0.064
Mof_H 	H 	0.3939	0.5845	0.3356	0.052
Mof_C 	C 	0.4252	0.3376	0.28992	0.083
Mof_C 	C 	0.42452	0.2817	0.30644	-0.141
Mof_H 	H 	0.4168	0.2863	0.325	0.08
Mof_C 	C 	0.43621	0.2113	0.29516	0.088
Mof_H 	H 	0.4362	0.1701	0.3067	0.024
Mof_C 	C 	0.44725	0.2041	0.26786	-0.206
Mof_C 	C 	0.44695	0.264	0.25184	0.098
Mof_H 	H 	0.4565	0.2609	0.2337	0.018
Mof_C 	C 	0.43291	0.3315	0.26121	-0.141
Mof_H 	H 	0.4289	0.3705	0.249	0.082
Mof_C 	C 	0.45737	0.1329	0.25647	0.558
Mof_C 	C 	0.43199	0.609	0.29112	0.074
Mof_C 	C 	0.46698	0.6156	0.27819	-0.152
Mof_H 	H 	0.4821	0.5741	0.2762	0.085
Mof_C 	C 	0.47915	0.6795	0.26869	0.118
Mof_H 	H 	0.5016	0.6812	0.2586	0.011
Mof_C 	C 	0.46019	0.7414	0.27313	-0.206
Mof_C 	C 	0.42153	0.7371	0.28165	0.086
Mof_H 	H 	0.4043	0.7749	0.2784	0.014
Mof_C 	C 	0.41198	0.6743	0.2947	-0.132
Mof_H 	H 	0.3912	0.6744	0.3066	0.078
Mof_C 	C 	0.4735	0.8145	0.26629	0.549
Mof_C 	C 	0.25742	0.6075	0.5442	0.614
Mof_C 	C 	0.25687	0.6543	0.56817	-0.27
Mof_C 	C 	0.27919	0.7158	0.56851	0.132
Mof_H 	H 	0.293	0.7298	0.5528	-0.01
Mof_C 	C 	0.2804	0.7565	0.59325	-0.167
Mof_H 	H 	0.2977	0.7947	0.5949	0.086
Mof_C 	C 	0.25674	0.7417	0.61523	0.101
Mof_C 	C 	0.23259	0.6856	0.6131	-0.182
Mof_H 	H 	0.2153	0.6761	0.6273	0.094
Mof_C 	C 	0.2337	0.6423	0.58962	0.15
Mof_H 	H 	0.2174	0.6023	0.5886	-0.004
Mof_C 	C 	0.257	0.79	0.63991	0.002
Mof_C 	C 	0.29298	0.8149	0.64988	-0.069
Mof_H 	H 	0.3153	0.8014	0.6409	0.053
Mof_C 	C 	0.2934	0.8585	0.6728	0.006
Mof_C 	C 	0.25952	0.88	0.68509	-0.071
Mof_H 	H 	0.2599	0.909	0.7012	0.054
Mof_C 	C 	0.22697	0.8599	0.67421	0.006
Mof_C 	C 	0.22526	0.8155	0.65095	-0.071
Mof_H 	H 	0.2021	0.8035	0.643	0.054
Mof_C 	C 	0.32929	0.8853	0.68331	0.091
Mof_C 	C 	0.36145	0.8442	0.67999	-0.16
Mof_H 	H 	0.3604	0.7975	0.6721	0.087
Mof_C 	C 	0.39473	0.8731	0.68844	0.117
Mof_H 	H 	0.4168	0.8483	0.6836	0.01
Mof_C 	C 	0.39783	0.9345	0.70317	-0.215
Mof_C 	C 	0.36593	0.9778	0.70412	0.11
Mof_H 	H 	0.3676	0.0266	0.7098	0.014
Mof_C 	C 	0.33243	0.949	0.69684	-0.158
Mof_H 	H 	0.3105	0.9746	0.7014	0.086
Mof_C 	C 	0.43449	0.9627	0.71273	0.557
Mof_C 	C 	0.19069	0.887	0.68768	0.105
Mof_C 	C 	0.18728	0.8926	0.71492	-0.181
Mof_H 	H 	0.207	0.8767	0.7263	0.093
Mof_C 	C 	0.15614	0.9208	0.72685	0.131
Mof_H 	H 	0.1544	0.9229	0.7463	0.004
Mof_C 	C 	0.12693	0.9463	0.71087	-0.235
Mof_C 	C 	0.13181	0.9415	0.68229	0.126
Mof_H 	H 	0.1134	0.9609	0.6706	0.006
Mof_C 	C 	0.16213	0.9099	0.67089	-0.175
Mof_H 	H 	0.1637	0.9037	0.6516	0.091
Mof_C 	C 	0.09339	0.9786	0.72296	0.578
Mof_C 	C 	0.15783	0.5271	0.50321	0.575
Mof_C 	C 	0.12371	0.5585	0.51532	-0.252
Mof_C 	C 	0.12015	0.5649	0.54268	0.148
Mof_H 	H 	0.1395	0.5493	0.5544	-0.005
Mof_C 	C 	0.08846	0.594	0.55369	-0.183
Mof_H 	H 	0.0873	0.5997	0.573	0.094
Mof_C 	C 	0.05853	0.6153	0.53854	0.104
Mof_C 	C 	0.06344	0.6121	0.50965	-0.174
Mof_H 	H 	0.0449	0.6305	0.4977	0.091
Mof_C 	C 	0.09537	0.5822	0.49911	0.139
Mof_H 	H 	0.0977	0.5778	0.4798	0.003
Mof_C 	C 	0.02532	0.6476	0.54882	-0.011
Mof_C 	C 	0.02514	0.6939	0.57106	-0.056
Mof_H 	H 	0.0482	0.7121	0.5774	0.049
Mof_C 	C 	0.99297	0.7155	0.58469	-0.011
Mof_C 	C 	0.95976	0.6932	0.57328	-0.061
Mof_H 	H 	0.9374	0.711	0.5809	0.051
Mof_C 	C 	0.95763	0.6463	0.55126	0.001
Mof_C 	C 	0.99041	0.6219	0.53957	-0.061
Mof_H 	H 	0.9895	0.5876	0.5251	0.051
Mof_C 	C 	0.9934	0.7624	0.60966	0.116
Mof_C 	C 	0.01685	0.823	0.61118	-0.185
Mof_H 	H 	0.0335	0.832	0.5965	0.093
Mof_C 	C 	0.01651	0.8695	0.63317	0.151
Mof_H 	H 	0.0317	0.9112	0.6332	-0.004
Mof_C 	C 	0.99362	0.8546	0.65529	-0.276
Mof_C 	C 	0.96993	0.7976	0.65261	0.172
Mof_H 	H 	0.9521	0.79	0.6667	-0.005
Mof_C 	C 	0.9703	0.7517	0.63136	-0.207
Mof_H 	H 	0.9543	0.7111	0.6314	0.104
Mof_C 	C 	0.99254	0.9002	0.67983	0.614
Mof_C 	C 	0.92198	0.6208	0.54069	0.083
Mof_C 	C 	0.88856	0.6565	0.54471	-0.15
Mof_H 	H 	0.8888	0.6996	0.5552	0.082
Mof_C 	C 	0.85482	0.6329	0.53431	0.113
Mof_H 	H 	0.8335	0.6625	0.5354	0.01
Mof_C 	C 	0.85298	0.5651	0.52239	-0.231
Mof_C 	C 	0.88671	0.5302	0.51535	0.101
Mof_H 	H 	0.887	0.4917	0.5025	-0.001
Mof_C 	C 	0.91984	0.5543	0.52794	-0.146
Mof_H 	H 	0.9411	0.5242	0.5276	0.079
Mof_C 	C 	0.81812	0.5344	0.51319	0.572
Mof_Co	Co	0.984	0.95522	0.20956	-0.558
Mof_Co	Co	0.96263	0.0244	0.27041	-0.494
Mof_Co	Co	0.0332	0.08672	0.24133	-0.594
Mof_Co	Co	0.21279	0.5258	0.45504	-0.493
Mof_Co	Co	0.27835	0.5874	0.4848	-0.672
Mof_Co	Co	0.2336	0.4582	0.51749	-0.567
Mof_Fe	Fe	0.01794	0.03433	0.70941	2.391
Mof_Fe	Fe	0.04249	0.9744	0.7707	2.321
Mof_Fe	Fe	0.97026	0.90324	0.73795	2.546
Mof_Fe	Fe	0.79177	0.4792	0.95501	2.321
Mof_Fe	Fe	0.7161	0.404	0.98561	2.59
Mof_Fe	Fe	0.76621	0.53054	0.01647	2.411
Mof_O 	O 	0.99893	0.98371	0.79871	-0.494
Mof_O 	O 	0.95424	0.91888	0.77853	-0.498
Mof_O 	O 	0.79673	0.58429	0.95538	-0.613
Mof_O 	O 	0.77672	0.62644	0.99452	-0.524
Mof_O 	O 	0.74823	0.32059	0.97204	-0.64
Mof_O 	O 	0.79139	0.36923	0.948	-0.569
Mof_O 	O 	0.74875	0.49306	0.92643	-0.519
Mof_O 	O 	0.70289	0.43121	0.9463	-0.616
Mof_O 	O 	0.54631	0.9177	0.77263	-0.577
Mof_O 	O 	0.52977	0.86995	0.73353	-0.515
Mof_O 	O 	0.49862	0.18384	0.74979	-0.591
Mof_O 	O 	0.54143	0.13302	0.77653	-0.587
Mof_O 	O 	0.72535	0.37072	0.02378	-0.666
Mof_O 	O 	0.75777	0.45257	0.04545	-0.597
Mof_O 	O 	0.53779	0.06681	0.2064	-0.553
Mof_O 	O 	0.56826	0.9817	0.22749	-0.53
Mof_O 	O 	0.91252	0.03584	0.24736	-0.612
Mof_O 	O 	0.92841	0.99056	0.20687	-0.608
Mof_O 	O 	0.8368	0.46279	0.97786	-0.585
Mof_O 	O 	0.82208	0.50803	0.01789	-0.586
Mof_O 	O 	0.99025	0.04167	0.17921	-0.593
Mof_O 	O 	0.02478	0.12259	0.2001	-0.687
Mof_O 	O 	0.21143	0.43469	0.02037	-0.542
Mof_O 	O 	0.18076	0.52188	0.99971	-0.651
Mof_O 	O 	0.02747	0.10746	0.6764	-0.293
Mof_O 	O 	0.07662	0.9756	0.8052	-0.322
Mof_O 	O 	0.92459	0.8344	0.73753	-0.322
Mof_O 	O 	0.00834	0.97314	0.74053	-1.014
Mof_O 	O 	0.82719	0.48277	0.92119	-0.316
Mof_O 	O 	0.77608	0.60009	0.05137	-0.277
Mof_O 	O 	0.75841	0.47067	0.98545	-0.965
Mof_C 	C 	0.9677	0.9548	0.7982	0.482
Mof_C 	C 	0.94222	0.9579	0.82283	-0.172
Mof_C 	C 	0.9119	0.9172	0.82597	0.104
Mof_H 	H 	0.9069	0.8823	0.8122	0.018
Mof_C 	C 	0.8883	0.9217	0.84673	-0.148
Mof_H 	H 	0.8662	0.8941	0.8468	0.084
Mof_C 	C 	0.89703	0.9691	0.86899	0.072
Mof_C 	C 	0.9269	0.0095	0.86728	-0.128
Mof_H 	H 	0.9316	0.0437	0.8813	0.075
Mof_C 	C 	0.95273	0.0036	0.84487	0.065
Mof_H 	H 	0.9756	0.0289	0.8448	0.026
Mof_C 	C 	0.8723	0.9719	0.89448	0.024
Mof_C 	C 	0.86018	0.9113	0.90568	-0.085
Mof_H 	H 	0.8696	0.8668	0.899	0.062
Mof_C 	C 	0.83435	0.91	0.92674	0.013
Mof_C 	C 	0.82113	0.9755	0.93563	-0.069
Mof_H 	H 	0.8035	0.9766	0.9501	0.05
Mof_C 	C 	0.83281	0.0401	0.92409	0.001
Mof_C 	C 	0.86045	0.0386	0.90301	-0.079
Mof_H 	H 	0.8701	0.0817	0.8953	0.058
Mof_C 	C 	0.82429	0.8422	0.93942	0.077
Mof_C 	C 	0.81789	0.7766	0.92291	-0.157
Mof_H 	H 	0.8218	0.7793	0.9037	0.086
Mof_C 	C 	0.80684	0.7133	0.93353	0.139
Mof_H 	H 	0.8039	0.6726	0.9219	0.006
Mof_C 	C 	0.79999	0.7078	0.96027	-0.242
Mof_C 	C 	0.8001	0.7685	0.97578	0.141
Mof_H 	H 	0.7943	0.7643	0.9947	0.001
Mof_C 	C 	0.80787	0.8336	0.96583	-0.166
Mof_H 	H 	0.8024	0.875	0.9765	0.087
Mof_C 	C 	0.7891	0.6349	0.97078	0.561
Mof_C 	C 	0.81887	0.1107	0.93396	0.108
Mof_C 	C 	0.78959	0.1182	0.94927	-0.192
Mof_H 	H 	0.7787	0.0758	0.9566	0.092
Mof_C 	C 	0.77303	0.1841	0.95577	0.158
Mof_H 	H 	0.7499	0.1851	0.9649	-0.02
Mof_C 	C 	0.79006	0.2462	0.94897	-0.272
Mof_C 	C 	0.82357	0.2416	0.9347	0.126
Mof_H 	H 	0.8342	0.2832	0.9265	0.008
Mof_C 	C 	0.84166	0.1725	0.93272	-0.161
Mof_H 	H 	0.8677	0.1688	0.9307	0.087
Mof_C 	C 	0.77506	0.3168	0.95704	0.632
Mof_C 	C 	0.71672	0.468	0.92782	0.549
Mof_C 	C 	0.69151	0.4888	0.90448	-0.217
Mof_C 	C 	0.70083	0.5367	0.88452	0.121
Mof_H 	H 	0.7235	0.5624	0.8859	0.007
Mof_C 	C 	0.67765	0.5488	0.86219	-0.168
Mof_H 	H 	0.6855	0.5798	0.8478	0.09
Mof_C 	C 	0.64348	0.5161	0.86074	0.103
Mof_C 	C 	0.63351	0.4699	0.88068	-0.171
Mof_H 	H 	0.6104	0.4457	0.8794	0.088
Mof_C 	C 	0.6562	0.457	0.90294	0.113
Mof_H 	H 	0.6479	0.4264	0.9173	-0.004
Mof_C 	C 	0.61877	0.5208	0.83733	-0.005
Mof_C 	C 	0.61008	0.5882	0.82474	-0.065
Mof_H 	H 	0.6194	0.6314	0.8326	0.052
Mof_C 	C 	0.58783	0.5921	0.80069	0.005
Mof_C 	C 	0.57546	0.5263	0.78849	-0.068
Mof_H 	H 	0.5599	0.5282	0.7728	0.054
Mof_C 	C 	0.5858	0.4586	0.79927	0.005
Mof_C 	C 	0.60409	0.4595	0.82572	-0.064
Mof_H 	H 	0.6061	0.4155	0.8356	0.052
Mof_C 	C 	0.5748	0.6624	0.78992	0.083
Mof_C 	C 	0.57548	0.7183	0.80644	-0.141
Mof_H 	H 	0.5832	0.7137	0.825	0.08
Mof_C 	C 	0.56379	0.7887	0.79516	0.088
Mof_H 	H 	0.5638	0.8299	0.8067	0.024
Mof_C 	C 	0.55275	0.7959	0.76786	-0.206
Mof_C 	C 	0.55305	0.736	0.75184	0.098
Mof_H 	H 	0.5435	0.7391	0.7337	0.018
Mof_C 	C 	0.56709	0.6685	0.76121	-0.141
Mof_H 	H 	0.5711	0.6295	0.749	0.082
Mof_C 	C 	0.54263	0.8671	0.75647	0.558
Mof_C 	C 	0.56801	0.391	0.79112	0.074
Mof_C 	C 	0.53302	0.3844	0.77819	-0.152
Mof_H 	H 	0.5179	0.4259	0.7762	0.085
Mof_C 	C 	0.52085	0.3205	0.76869	0.118
Mof_H 	H 	0.4984	0.3188	0.7586	0.011
Mof_C 	C 	0.53981	0.2586	0.77313	-0.206
Mof_C 	C 	0.57847	0.2629	0.78165	0.086
Mof_H 	H 	0.5957	0.2251	0.7784	0.014
Mof_C 	C 	0.58802	0.3257	0.7947	-0.132
Mof_H 	H 	0.6088	0.3256	0.8066	0.078
Mof_C 	C 	0.5265	0.1855	0.76629	0.549
Mof_C 	C 	0.74258	0.3925	0.0442	0.614
Mof_C 	C 	0.74313	0.3457	0.06817	-0.27
Mof_C 	C 	0.72081	0.2842	0.06851	0.132
Mof_H 	H 	0.707	0.2702	0.0528	-0.01
Mof_C 	C 	0.7196	0.2435	0.09325	-0.167
Mof_H 	H 	0.7023	0.2053	0.0949	0.086
Mof_C 	C 	0.74326	0.2583	0.11523	0.101
Mof_C 	C 	0.76741	0.3144	0.1131	-0.182
Mof_H 	H 	0.7847	0.3239	0.1273	0.094
Mof_C 	C 	0.7663	0.3577	0.08962	0.15
Mof_H 	H 	0.7826	0.3977	0.0886	-0.004
Mof_C 	C 	0.743	0.21	0.13991	0.002
Mof_C 	C 	0.70702	0.1851	0.14988	-0.069
Mof_H 	H 	0.6847	0.1986	0.1409	0.053
Mof_C 	C 	0.7066	0.1415	0.1728	0.006
Mof_C 	C 	0.74048	0.12	0.18509	-0.071
Mof_H 	H 	0.7401	0.091	0.2012	0.054
Mof_C 	C 	0.77303	0.1401	0.17421	0.006
Mof_C 	C 	0.77474	0.1845	0.15095	-0.071
Mof_H 	H 	0.7979	0.1965	0.143	0.054
Mof_C 	C 	0.67071	0.1147	0.18331	0.091
Mof_C 	C 	0.63855	0.1558	0.17999	-0.16
Mof_H 	H 	0.6396	0.2025	0.1721	0.087
Mof_C 	C 	0.60527	0.1269	0.18844	0.117
Mof_H 	H 	0.5832	0.1517	0.1836	0.01
Mof_C 	C 	0.60217	0.0655	0.20317	-0.215
Mof_C 	C 	0.63407	0.0222	0.20412	0.11
Mof_H 	H 	0.6324	0.9734	0.2098	0.014
Mof_C 	C 	0.66757	0.051	0.19684	-0.158
Mof_H 	H 	0.6895	0.0254	0.2014	0.086
Mof_C 	C 	0.56551	0.0373	0.21273	0.557
Mof_C 	C 	0.80931	0.113	0.18768	0.105
Mof_C 	C 	0.81272	0.1074	0.21492	-0.181
Mof_H 	H 	0.793	0.1233	0.2263	0.093
Mof_C 	C 	0.84386	0.0792	0.22685	0.131
Mof_H 	H 	0.8456	0.0771	0.2463	0.004
Mof_C 	C 	0.87307	0.0537	0.21087	-0.235
Mof_C 	C 	0.86819	0.0585	0.18229	0.126
Mof_H 	H 	0.8866	0.0391	0.1706	0.006
Mof_C 	C 	0.83787	0.0901	0.17089	-0.175
Mof_H 	H 	0.8363	0.0963	0.1516	0.091
Mof_C 	C 	0.90661	0.0214	0.22296	0.578
Mof_C 	C 	0.84217	0.4729	0.00321	0.575
Mof_C 	C 	0.87629	0.4415	0.01532	-0.255
Mof_C 	C 	0.87985	0.4351	0.04268	0.15
Mof_H 	H 	0.8605	0.4507	0.0544	-0.006
Mof_C 	C 	0.91154	0.406	0.05369	-0.185
Mof_H 	H 	0.9127	0.4003	0.073	0.095
Mof_C 	C 	0.94147	0.3847	0.03854	0.107
Mof_C 	C 	0.93656	0.3879	0.00965	-0.179
Mof_H 	H 	0.9551	0.3695	0.9977	0.093
Mof_C 	C 	0.90463	0.4178	0.99911	0.144
Mof_H 	H 	0.9023	0.4222	0.9798	0.001
Mof_C 	C 	0.97468	0.3524	0.04882	-0.012
Mof_C 	C 	0.97486	0.3061	0.07106	-0.055
Mof_H 	H 	0.9518	0.2879	0.0774	0.048
Mof_C 	C 	0.00703	0.2845	0.08469	-0.011
Mof_C 	C 	0.04024	0.3068	0.07328	-0.06
Mof_H 	H 	0.0626	0.289	0.0809	0.051
Mof_C 	C 	0.04237	0.3537	0.05126	0
Mof_C 	C 	0.00959	0.3781	0.03957	-0.061
Mof_H 	H 	0.0105	0.4124	0.0251	0.05
Mof_C 	C 	0.0066	0.2376	0.10966	0.116
Mof_C 	C 	0.98315	0.177	0.11118	-0.185
Mof_H 	H 	0.9665	0.168	0.0965	0.093
Mof_C 	C 	0.98349	0.1305	0.13317	0.151
Mof_H 	H 	0.9683	0.0888	0.1332	-0.004
Mof_C 	C 	0.00638	0.1454	0.15529	-0.276
Mof_C 	C 	0.03007	0.2024	0.15261	0.172
Mof_H 	H 	0.0479	0.21	0.1667	-0.005
Mof_C 	C 	0.0297	0.2483	0.13136	-0.207
Mof_H 	H 	0.0457	0.2889	0.1314	0.104
Mof_C 	C 	0.00746	0.0998	0.17983	0.614
Mof_C 	C 	0.07802	0.3792	0.04069	0.083
Mof_C 	C 	0.11144	0.3435	0.04471	-0.15
Mof_H 	H 	0.1112	0.3004	0.0552	0.082
Mof_C 	C 	0.14518	0.3671	0.03431	0.113
Mof_H 	H 	0.1665	0.3375	0.0354	0.01
Mof_C 	C 	0.14702	0.4349	0.02239	-0.23
Mof_C 	C 	0.11329	0.4698	0.01535	0.101
Mof_H 	H 	0.113	0.5083	0.0025	-0.002
Mof_C 	C 	0.08016	0.4457	0.02794	-0.146
Mof_H 	H 	0.0589	0.4758	0.0276	0.079
Mof_C 	C 	0.18188	0.4656	0.01319	0.571
Mof_Co	Co	0.016	0.04478	0.70956	-0.558
Mof_Co	Co	0.03737	0.9756	0.77041	-0.494
Mof_Co	Co	0.9668	0.91328	0.74133	-0.594
Mof_Co	Co	0.78721	0.4742	0.95504	-0.493
Mof_Co	Co	0.72165	0.4126	0.9848	-0.672
Mof_Co	Co	0.7664	0.5418	0.01749	-0.567
Mof_Fe	Fe	0.48206	0.03433	0.20941	2.391
Mof_Fe	Fe	0.45751	0.9744	0.2707	2.321
Mof_Fe	Fe	0.52974	0.90324	0.23795	2.546
Mof_Fe	Fe	0.70823	0.4792	0.45501	2.321
Mof_Fe	Fe	0.7839	0.404	0.48561	2.591
Mof_Fe	Fe	0.73379	0.53054	0.51647	2.411
Mof_O 	O 	0.50107	0.98371	0.29871	-0.494
Mof_O 	O 	0.54576	0.91888	0.27853	-0.498
Mof_O 	O 	0.70327	0.58429	0.45538	-0.613
Mof_O 	O 	0.72328	0.62644	0.49452	-0.525
Mof_O 	O 	0.75177	0.32059	0.47204	-0.64
Mof_O 	O 	0.70861	0.36923	0.448	-0.57
Mof_O 	O 	0.75125	0.49306	0.42643	-0.519
Mof_O 	O 	0.79711	0.43121	0.4463	-0.616
Mof_O 	O 	0.95369	0.9177	0.27263	-0.578
Mof_O 	O 	0.97023	0.86995	0.23353	-0.515
Mof_O 	O 	0.00138	0.18384	0.24979	-0.591
Mof_O 	O 	0.95857	0.13302	0.27653	-0.587
Mof_O 	O 	0.77465	0.37072	0.52378	-0.666
Mof_O 	O 	0.74223	0.45257	0.54545	-0.597
Mof_O 	O 	0.96221	0.06681	0.7064	-0.553
Mof_O 	O 	0.93174	0.9817	0.72749	-0.53
Mof_O 	O 	0.58748	0.03584	0.74736	-0.612
Mof_O 	O 	0.57159	0.99056	0.70687	-0.608
Mof_O 	O 	0.6632	0.46279	0.47786	-0.586
Mof_O 	O 	0.67792	0.50803	0.51789	-0.585
Mof_O 	O 	0.50975	0.04167	0.67921	-0.593
Mof_O 	O 	0.47522	0.12259	0.7001	-0.687
Mof_O 	O 	0.28857	0.43469	0.52037	-0.542
Mof_O 	O 	0.31924	0.52188	0.49971	-0.651
Mof_O 	O 	0.47253	0.10746	0.1764	-0.293
Mof_O 	O 	0.42338	0.9756	0.3052	-0.322
Mof_O 	O 	0.57541	0.8344	0.23753	-0.322
Mof_O 	O 	0.49166	0.97314	0.24053	-1.014
Mof_O 	O 	0.67281	0.48277	0.42119	-0.316
Mof_O 	O 	0.72392	0.60009	0.55137	-0.277
Mof_O 	O 	0.74159	0.47067	0.48545	-0.965
Mof_C 	C 	0.5323	0.9548	0.2982	0.482
Mof_C 	C 	0.55778	0.9579	0.32283	-0.172
Mof_C 	C 	0.5881	0.9172	0.32597	0.104
Mof_H 	H 	0.5931	0.8823	0.3122	0.018
Mof_C 	C 	0.6117	0.9217	0.34673	-0.148
Mof_H 	H 	0.6338	0.8941	0.3468	0.084
Mof_C 	C 	0.60297	0.9691	0.36899	0.072
Mof_C 	C 	0.5731	0.0095	0.36728	-0.128
Mof_H 	H 	0.5684	0.0437	0.3813	0.075
Mof_C 	C 	0.54727	0.0036	0.34487	0.065
Mof_H 	H 	0.5244	0.0289	0.3448	0.026
Mof_C 	C 	0.6277	0.9719	0.39448	0.024
Mof_C 	C 	0.63982	0.9113	0.40568	-0.085
Mof_H 	H 	0.6304	0.8668	0.399	0.062
Mof_C 	C 	0.66565	0.91	0.42674	0.013
Mof_C 	C 	0.67887	0.9755	0.43563	-0.069
Mof_H 	H 	0.6965	0.9766	0.4501	0.05
Mof_C 	C 	0.66719	0.0401	0.42409	0.001
Mof_C 	C 	0.63955	0.0386	0.40301	-0.079
Mof_H 	H 	0.6299	0.0817	0.3953	0.058
Mof_C 	C 	0.67571	0.8422	0.43942	0.077
Mof_C 	C 	0.68211	0.7766	0.42291	-0.158
Mof_H 	H 	0.6782	0.7793	0.4037	0.086
Mof_C 	C 	0.69316	0.7133	0.43353	0.139
Mof_H 	H 	0.6961	0.6726	0.4219	0.006
Mof_C 	C 	0.70001	0.7078	0.46027	-0.242
Mof_C 	C 	0.6999	0.7685	0.47578	0.141
Mof_H 	H 	0.7057	0.7643	0.4947	0
Mof_C 	C 	0.69213	0.8336	0.46583	-0.166
Mof_H 	H 	0.6976	0.875	0.4765	0.087
Mof_C 	C 	0.7109	0.6349	0.47078	0.561
Mof_C 	C 	0.68113	0.1107	0.43396	0.108
Mof_C 	C 	0.71041	0.1182	0.44927	-0.192
Mof_H 	H 	0.7213	0.0758	0.4566	0.092
Mof_C 	C 	0.72697	0.1841	0.45577	0.158
Mof_H 	H 	0.7501	0.1851	0.4649	-0.02
Mof_C 	C 	0.70994	0.2462	0.44897	-0.272
Mof_C 	C 	0.67643	0.2416	0.4347	0.126
Mof_H 	H 	0.6658	0.2832	0.4265	0.008
Mof_C 	C 	0.65834	0.1725	0.43272	-0.161
Mof_H 	H 	0.6323	0.1688	0.4307	0.087
Mof_C 	C 	0.72494	0.3168	0.45704	0.632
Mof_C 	C 	0.78328	0.468	0.42782	0.549
Mof_C 	C 	0.80849	0.4888	0.40448	-0.218
Mof_C 	C 	0.79917	0.5367	0.38452	0.121
Mof_H 	H 	0.7765	0.5624	0.3859	0.007
Mof_C 	C 	0.82235	0.5488	0.36219	-0.168
Mof_H 	H 	0.8145	0.5798	0.3478	0.09
Mof_C 	C 	0.85652	0.5161	0.36074	0.103
Mof_C 	C 	0.86649	0.4699	0.38068	-0.171
Mof_H 	H 	0.8896	0.4457	0.3794	0.088
Mof_C 	C 	0.8438	0.457	0.40294	0.113
Mof_H 	H 	0.8521	0.4264	0.4173	-0.005
Mof_C 	C 	0.88123	0.5208	0.33733	-0.005
Mof_C 	C 	0.88992	0.5882	0.32474	-0.065
Mof_H 	H 	0.8806	0.6314	0.3326	0.052
Mof_C 	C 	0.91217	0.5921	0.30069	0.005
Mof_C 	C 	0.92454	0.5263	0.28849	-0.068
Mof_H 	H 	0.9401	0.5282	0.2728	0.054
Mof_C 	C 	0.9142	0.4586	0.29927	0.005
Mof_C 	C 	0.89591	0.4595	0.32572	-0.064
Mof_H 	H 	0.8939	0.4155	0.3356	0.052
Mof_C 	C 	0.9252	0.6624	0.28992	0.083
Mof_C 	C 	0.92452	0.7183	0.30644	-0.141
Mof_H 	H 	0.9168	0.7137	0.325	0.08
Mof_C 	C 	0.93621	0.7887	0.29516	0.088
Mof_H 	H 	0.9362	0.8299	0.3067	0.024
Mof_C 	C 	0.94725	0.7959	0.26786	-0.206
Mof_C 	C 	0.94695	0.736	0.25184	0.098
Mof_H 	H 	0.9565	0.7391	0.2337	0.018
Mof_C 	C 	0.93291	0.6685	0.26121	-0.141
Mof_H 	H 	0.9289	0.6295	0.249	0.082
Mof_C 	C 	0.95737	0.8671	0.25647	0.558
Mof_C 	C 	0.93199	0.391	0.29112	0.074
Mof_C 	C 	0.96698	0.3844	0.27819	-0.153
Mof_H 	H 	0.9821	0.4259	0.2762	0.085
Mof_C 	C 	0.97915	0.3205	0.26869	0.118
Mof_H 	H 	0.0016	0.3188	0.2586	0.011
Mof_C 	C 	0.96019	0.2586	0.27313	-0.206
Mof_C 	C 	0.92153	0.2629	0.28165	0.086
Mof_H 	H 	0.9043	0.2251	0.2784	0.014
Mof_C 	C 	0.91198	0.3257	0.2947	-0.132
Mof_H 	H 	0.8912	0.3256	0.3066	0.078
Mof_C 	C 	0.9735	0.1855	0.26629	0.549
Mof_C 	C 	0.75742	0.3925	0.5442	0.614
Mof_C 	C 	0.75687	0.3457	0.56817	-0.27
Mof_C 	C 	0.77919	0.2842	0.56851	0.132
Mof_H 	H 	0.793	0.2702	0.5528	-0.01
Mof_C 	C 	0.7804	0.2435	0.59325	-0.167
Mof_H 	H 	0.7977	0.2053	0.5949	0.086
Mof_C 	C 	0.75674	0.2583	0.61523	0.101
Mof_C 	C 	0.73259	0.3144	0.6131	-0.182
Mof_H 	H 	0.7153	0.3239	0.6273	0.094
Mof_C 	C 	0.7337	0.3577	0.58962	0.15
Mof_H 	H 	0.7174	0.3977	0.5886	-0.004
Mof_C 	C 	0.757	0.21	0.63991	0.002
Mof_C 	C 	0.79298	0.1851	0.64988	-0.069
Mof_H 	H 	0.8153	0.1986	0.6409	0.053
Mof_C 	C 	0.7934	0.1415	0.6728	0.006
Mof_C 	C 	0.75952	0.12	0.68509	-0.071
Mof_H 	H 	0.7599	0.091	0.7012	0.054
Mof_C 	C 	0.72697	0.1401	0.67421	0.006
Mof_C 	C 	0.72526	0.1845	0.65095	-0.071
Mof_H 	H 	0.7021	0.1965	0.643	0.054
Mof_C 	C 	0.82929	0.1147	0.68331	0.091
Mof_C 	C 	0.86145	0.1558	0.67999	-0.16
Mof_H 	H 	0.8604	0.2025	0.6721	0.087
Mof_C 	C 	0.89473	0.1269	0.68844	0.117
Mof_H 	H 	0.9168	0.1517	0.6836	0.01
Mof_C 	C 	0.89783	0.0655	0.70317	-0.215
Mof_C 	C 	0.86593	0.0222	0.70412	0.11
Mof_H 	H 	0.8676	0.9734	0.7098	0.014
Mof_C 	C 	0.83243	0.051	0.69684	-0.158
Mof_H 	H 	0.8105	0.0254	0.7014	0.087
Mof_C 	C 	0.93449	0.0373	0.71273	0.557
Mof_C 	C 	0.69069	0.113	0.68768	0.105
Mof_C 	C 	0.68728	0.1074	0.71492	-0.181
Mof_H 	H 	0.707	0.1233	0.7263	0.093
Mof_C 	C 	0.65614	0.0792	0.72685	0.131
Mof_H 	H 	0.6544	0.0771	0.7463	0.004
Mof_C 	C 	0.62693	0.0537	0.71087	-0.235
Mof_C 	C 	0.63181	0.0585	0.68229	0.126
Mof_H 	H 	0.6134	0.0391	0.6706	0.006
Mof_C 	C 	0.66213	0.0901	0.67089	-0.175
Mof_H 	H 	0.6637	0.0963	0.6516	0.091
Mof_C 	C 	0.59339	0.0214	0.72296	0.578
Mof_C 	C 	0.65783	0.4729	0.50321	0.575
Mof_C 	C 	0.62371	0.4415	0.51532	-0.252
Mof_C 	C 	0.62015	0.4351	0.54268	0.148
Mof_H 	H 	0.6395	0.4507	0.5544	-0.005
Mof_C 	C 	0.58846	0.406	0.55369	-0.183
Mof_H 	H 	0.5873	0.4003	0.573	0.094
Mof_C 	C 	0.55853	0.3847	0.53854	0.104
Mof_C 	C 	0.56344	0.3879	0.50965	-0.174
Mof_H 	H 	0.5449	0.3695	0.4977	0.091
Mof_C 	C 	0.59537	0.4178	0.49911	0.139
Mof_H 	H 	0.5977	0.4222	0.4798	0.003
Mof_C 	C 	0.52532	0.3524	0.54882	-0.011
Mof_C 	C 	0.52514	0.3061	0.57106	-0.056
Mof_H 	H 	0.5482	0.2879	0.5774	0.049
Mof_C 	C 	0.49297	0.2845	0.58469	-0.011
Mof_C 	C 	0.45976	0.3068	0.57328	-0.061
Mof_H 	H 	0.4374	0.289	0.5809	0.051
Mof_C 	C 	0.45763	0.3537	0.55126	0.001
Mof_C 	C 	0.49041	0.3781	0.53957	-0.061
Mof_H 	H 	0.4895	0.4124	0.5251	0.051
Mof_C 	C 	0.4934	0.2376	0.60966	0.116
Mof_C 	C 	0.51685	0.177	0.61118	-0.185
Mof_H 	H 	0.5335	0.168	0.5965	0.093
Mof_C 	C 	0.51651	0.1305	0.63317	0.151
Mof_H 	H 	0.5317	0.0888	0.6332	-0.004
Mof_C 	C 	0.49362	0.1454	0.65529	-0.276
Mof_C 	C 	0.46993	0.2024	0.65261	0.172
Mof_H 	H 	0.4521	0.21	0.6667	-0.005
Mof_C 	C 	0.4703	0.2483	0.63136	-0.207
Mof_H 	H 	0.4543	0.2889	0.6314	0.104
Mof_C 	C 	0.49254	0.0998	0.67983	0.614
Mof_C 	C 	0.42198	0.3792	0.54069	0.083
Mof_C 	C 	0.38856	0.3435	0.54471	-0.15
Mof_H 	H 	0.3888	0.3004	0.5552	0.082
Mof_C 	C 	0.35482	0.3671	0.53431	0.113
Mof_H 	H 	0.3335	0.3375	0.5354	0.01
Mof_C 	C 	0.35298	0.4349	0.52239	-0.231
Mof_C 	C 	0.38671	0.4698	0.51535	0.101
Mof_H 	H 	0.387	0.5083	0.5025	-0.001
Mof_C 	C 	0.41984	0.4457	0.52794	-0.146
Mof_H 	H 	0.4411	0.4758	0.5276	0.079
Mof_C 	C 	0.31812	0.4656	0.51319	0.572
Mof_Co	Co	0.484	0.04478	0.20956	-0.558
Mof_Co	Co	0.46263	0.9756	0.27041	-0.494
Mof_Co	Co	0.5332	0.91328	0.24133	-0.594
Mof_Co	Co	0.71279	0.4742	0.45504	-0.493
Mof_Co	Co	0.77835	0.4126	0.4848	-0.672
Mof_Co	Co	0.7336	0.5418	0.51749	-0.567
Mof_Fe	Fe	0.51794	0.96567	0.70941	2.391
Mof_Fe	Fe	0.54249	0.0256	0.7707	2.321
Mof_Fe	Fe	0.47026	0.09676	0.73795	2.546
Mof_Fe	Fe	0.29177	0.5208	0.95501	2.321
Mof_Fe	Fe	0.2161	0.596	0.98561	2.59
Mof_Fe	Fe	0.26621	0.46946	0.01647	2.411
Mof_O 	O 	0.49893	0.01629	0.79871	-0.494
Mof_O 	O 	0.45424	0.08112	0.77853	-0.498
Mof_O 	O 	0.29673	0.41571	0.95538	-0.613
Mof_O 	O 	0.27672	0.37356	0.99452	-0.524
Mof_O 	O 	0.24823	0.67941	0.97204	-0.64
Mof_O 	O 	0.29139	0.63077	0.948	-0.569
Mof_O 	O 	0.24875	0.50694	0.92643	-0.519
Mof_O 	O 	0.20289	0.56879	0.9463	-0.616
Mof_O 	O 	0.04631	0.0823	0.77263	-0.578
Mof_O 	O 	0.02977	0.13005	0.73353	-0.515
Mof_O 	O 	0.99862	0.81616	0.74979	-0.591
Mof_O 	O 	0.04143	0.86698	0.77653	-0.587
Mof_O 	O 	0.22535	0.62928	0.02378	-0.666
Mof_O 	O 	0.25777	0.54743	0.04545	-0.597
Mof_O 	O 	0.03779	0.93319	0.2064	-0.553
Mof_O 	O 	0.06826	0.0183	0.22749	-0.53
Mof_O 	O 	0.41252	0.96416	0.24736	-0.612
Mof_O 	O 	0.42841	0.00944	0.20687	-0.608
Mof_O 	O 	0.3368	0.53721	0.97786	-0.585
Mof_O 	O 	0.32208	0.49197	0.01789	-0.586
Mof_O 	O 	0.49025	0.95833	0.17921	-0.593
Mof_O 	O 	0.52478	0.87741	0.2001	-0.687
Mof_O 	O 	0.71143	0.56531	0.02037	-0.542
Mof_O 	O 	0.68076	0.47812	0.99971	-0.651
Mof_O 	O 	0.52747	0.89254	0.6764	-0.293
Mof_O 	O 	0.57662	0.0244	0.8052	-0.322
Mof_O 	O 	0.42459	0.1656	0.73753	-0.322
Mof_O 	O 	0.50834	0.02686	0.74053	-1.014
Mof_O 	O 	0.32719	0.51723	0.92119	-0.316
Mof_O 	O 	0.27608	0.39991	0.05137	-0.277
Mof_O 	O 	0.25841	0.52933	0.98545	-0.965
Mof_C 	C 	0.4677	0.0452	0.7982	0.482
Mof_C 	C 	0.44222	0.0421	0.82283	-0.172
Mof_C 	C 	0.4119	0.0828	0.82597	0.104
Mof_H 	H 	0.4069	0.1177	0.8122	0.018
Mof_C 	C 	0.3883	0.0783	0.84673	-0.148
Mof_H 	H 	0.3662	0.1059	0.8468	0.084
Mof_C 	C 	0.39703	0.0309	0.86899	0.072
Mof_C 	C 	0.4269	0.9905	0.86728	-0.128
Mof_H 	H 	0.4316	0.9563	0.8813	0.075
Mof_C 	C 	0.45273	0.9964	0.84487	0.065
Mof_H 	H 	0.4756	0.9711	0.8448	0.026
Mof_C 	C 	0.3723	0.0281	0.89448	0.024
Mof_C 	C 	0.36018	0.0887	0.90568	-0.085
Mof_H 	H 	0.3696	0.1332	0.899	0.062
Mof_C 	C 	0.33435	0.09	0.92674	0.013
Mof_C 	C 	0.32113	0.0245	0.93563	-0.069
Mof_H 	H 	0.3035	0.0234	0.9501	0.05
Mof_C 	C 	0.33281	0.9599	0.92409	0.001
Mof_C 	C 	0.36045	0.9614	0.90301	-0.079
Mof_H 	H 	0.3701	0.9183	0.8953	0.058
Mof_C 	C 	0.32429	0.1578	0.93942	0.077
Mof_C 	C 	0.31789	0.2234	0.92291	-0.157
Mof_H 	H 	0.3218	0.2207	0.9037	0.086
Mof_C 	C 	0.30684	0.2867	0.93353	0.139
Mof_H 	H 	0.3039	0.3274	0.9219	0.006
Mof_C 	C 	0.29999	0.2922	0.96027	-0.242
Mof_C 	C 	0.3001	0.2315	0.97578	0.141
Mof_H 	H 	0.2943	0.2357	0.9947	0.001
Mof_C 	C 	0.30787	0.1664	0.96583	-0.166
Mof_H 	H 	0.3024	0.125	0.9765	0.087
Mof_C 	C 	0.2891	0.3651	0.97078	0.561
Mof_C 	C 	0.31887	0.8893	0.93396	0.108
Mof_C 	C 	0.28959	0.8818	0.94927	-0.192
Mof_H 	H 	0.2787	0.9242	0.9566	0.092
Mof_C 	C 	0.27303	0.8159	0.95577	0.158
Mof_H 	H 	0.2499	0.8149	0.9649	-0.02
Mof_C 	C 	0.29006	0.7538	0.94897	-0.272
Mof_C 	C 	0.32357	0.7584	0.9347	0.126
Mof_H 	H 	0.3342	0.7168	0.9265	0.008
Mof_C 	C 	0.34166	0.8275	0.93272	-0.161
Mof_H 	H 	0.3677	0.8312	0.9307	0.087
Mof_C 	C 	0.27506	0.6832	0.95704	0.632
Mof_C 	C 	0.21672	0.532	0.92782	0.549
Mof_C 	C 	0.19151	0.5112	0.90448	-0.218
Mof_C 	C 	0.20083	0.4633	0.88452	0.121
Mof_H 	H 	0.2235	0.4376	0.8859	0.007
Mof_C 	C 	0.17765	0.4512	0.86219	-0.168
Mof_H 	H 	0.1855	0.4202	0.8478	0.09
Mof_C 	C 	0.14348	0.4839	0.86074	0.103
Mof_C 	C 	0.13351	0.5301	0.88068	-0.171
Mof_H 	H 	0.1104	0.5543	0.8794	0.088
Mof_C 	C 	0.1562	0.543	0.90294	0.113
Mof_H 	H 	0.1479	0.5736	0.9173	-0.004
Mof_C 	C 	0.11877	0.4792	0.83733	-0.005
Mof_C 	C 	0.11008	0.4118	0.82474	-0.065
Mof_H 	H 	0.1194	0.3686	0.8326	0.052
Mof_C 	C 	0.08783	0.4079	0.80069	0.005
Mof_C 	C 	0.07546	0.4737	0.78849	-0.068
Mof_H 	H 	0.0599	0.4718	0.7728	0.054
Mof_C 	C 	0.0858	0.5414	0.79927	0.005
Mof_C 	C 	0.10409	0.5405	0.82572	-0.064
Mof_H 	H 	0.1061	0.5845	0.8356	0.052
Mof_C 	C 	0.0748	0.3376	0.78992	0.083
Mof_C 	C 	0.07548	0.2817	0.80644	-0.141
Mof_H 	H 	0.0832	0.2863	0.825	0.08
Mof_C 	C 	0.06379	0.2113	0.79516	0.088
Mof_H 	H 	0.0638	0.1701	0.8067	0.024
Mof_C 	C 	0.05275	0.2041	0.76786	-0.206
Mof_C 	C 	0.05305	0.264	0.75184	0.098
Mof_H 	H 	0.0435	0.2609	0.7337	0.018
Mof_C 	C 	0.06709	0.3315	0.76121	-0.141
Mof_H 	H 	0.0711	0.3705	0.749	0.082
Mof_C 	C 	0.04263	0.1329	0.75647	0.558
Mof_C 	C 	0.06801	0.609	0.79112	0.074
Mof_C 	C 	0.03302	0.6156	0.77819	-0.153
Mof_H 	H 	0.0179	0.5741	0.7762	0.085
Mof_C 	C 	0.02085	0.6795	0.76869	0.118
Mof_H 	H 	0.9984	0.6812	0.7586	0.011
Mof_C 	C 	0.03981	0.7414	0.77313	-0.206
Mof_C 	C 	0.07847	0.7371	0.78165	0.086
Mof_H 	H 	0.0957	0.7749	0.7784	0.014
Mof_C 	C 	0.08802	0.6743	0.7947	-0.132
Mof_H 	H 	0.1088	0.6744	0.8066	0.078
Mof_C 	C 	0.0265	0.8145	0.76629	0.549
Mof_C 	C 	0.24258	0.6075	0.0442	0.614
Mof_C 	C 	0.24313	0.6543	0.06817	-0.27
Mof_C 	C 	0.22081	0.7158	0.06851	0.132
Mof_H 	H 	0.207	0.7298	0.0528	-0.01
Mof_C 	C 	0.2196	0.7565	0.09325	-0.167
Mof_H 	H 	0.2023	0.7947	0.0949	0.086
Mof_C 	C 	0.24326	0.7417	0.11523	0.101
Mof_C 	C 	0.26741	0.6856	0.1131	-0.182
Mof_H 	H 	0.2847	0.6761	0.1273	0.094
Mof_C 	C 	0.2663	0.6423	0.08962	0.15
Mof_H 	H 	0.2826	0.6023	0.0886	-0.004
Mof_C 	C 	0.243	0.79	0.13991	0.002
Mof_C 	C 	0.20702	0.8149	0.14988	-0.069
Mof_H 	H 	0.1847	0.8014	0.1409	0.053
Mof_C 	C 	0.2066	0.8585	0.1728	0.005
Mof_C 	C 	0.24048	0.88	0.18509	-0.071
Mof_H 	H 	0.2401	0.909	0.2012	0.054
Mof_C 	C 	0.27303	0.8599	0.17421	0.006
Mof_C 	C 	0.27474	0.8155	0.15095	-0.071
Mof_H 	H 	0.2979	0.8035	0.143	0.054
Mof_C 	C 	0.17071	0.8853	0.18331	0.091
Mof_C 	C 	0.13855	0.8442	0.17999	-0.16
Mof_H 	H 	0.1396	0.7975	0.1721	0.087
Mof_C 	C 	0.10527	0.8731	0.18844	0.117
Mof_H 	H 	0.0832	0.8483	0.1836	0.01
Mof_C 	C 	0.10217	0.9345	0.20317	-0.215
Mof_C 	C 	0.13407	0.9778	0.20412	0.11
Mof_H 	H 	0.1324	0.0266	0.2098	0.014
Mof_C 	C 	0.16757	0.949	0.19684	-0.158
Mof_H 	H 	0.1895	0.9746	0.2014	0.087
Mof_C 	C 	0.06551	0.9627	0.21273	0.557
Mof_C 	C 	0.30931	0.887	0.18768	0.105
Mof_C 	C 	0.31272	0.8926	0.21492	-0.181
Mof_H 	H 	0.293	0.8767	0.2263	0.093
Mof_C 	C 	0.34386	0.9208	0.22685	0.131
Mof_H 	H 	0.3456	0.9229	0.2463	0.004
Mof_C 	C 	0.37307	0.9463	0.21087	-0.235
Mof_C 	C 	0.36819	0.9415	0.18229	0.126
Mof_H 	H 	0.3866	0.9609	0.1706	0.006
Mof_C 	C 	0.33787	0.9099	0.17089	-0.175
Mof_H 	H 	0.3363	0.9037	0.1516	0.091
Mof_C 	C 	0.40661	0.9786	0.22296	0.578
Mof_C 	C 	0.34217	0.5271	0.00321	0.575
Mof_C 	C 	0.37629	0.5585	0.01532	-0.255
Mof_C 	C 	0.37985	0.5649	0.04268	0.15
Mof_H 	H 	0.3605	0.5493	0.0544	-0.006
Mof_C 	C 	0.41154	0.594	0.05369	-0.185
Mof_H 	H 	0.4127	0.5997	0.073	0.095
Mof_C 	C 	0.44147	0.6153	0.03854	0.107
Mof_C 	C 	0.43656	0.6121	0.00965	-0.179
Mof_H 	H 	0.4551	0.6305	0.9977	0.093
Mof_C 	C 	0.40463	0.5822	0.99911	0.144
Mof_H 	H 	0.4023	0.5778	0.9798	0.001
Mof_C 	C 	0.47468	0.6476	0.04882	-0.012
Mof_C 	C 	0.47486	0.6939	0.07106	-0.055
Mof_H 	H 	0.4518	0.7121	0.0774	0.048
Mof_C 	C 	0.50703	0.7155	0.08469	-0.011
Mof_C 	C 	0.54024	0.6932	0.07328	-0.06
Mof_H 	H 	0.5626	0.711	0.0809	0.051
Mof_C 	C 	0.54237	0.6463	0.05126	0
Mof_C 	C 	0.50959	0.6219	0.03957	-0.061
Mof_H 	H 	0.5105	0.5876	0.0251	0.05
Mof_C 	C 	0.5066	0.7624	0.10966	0.117
Mof_C 	C 	0.48315	0.823	0.11118	-0.185
Mof_H 	H 	0.4665	0.832	0.0965	0.093
Mof_C 	C 	0.48349	0.8695	0.13317	0.151
Mof_H 	H 	0.4683	0.9112	0.1332	-0.004
Mof_C 	C 	0.50638	0.8546	0.15529	-0.276
Mof_C 	C 	0.53007	0.7976	0.15261	0.172
Mof_H 	H 	0.5479	0.79	0.1667	-0.005
Mof_C 	C 	0.5297	0.7517	0.13136	-0.207
Mof_H 	H 	0.5457	0.7111	0.1314	0.104
Mof_C 	C 	0.50746	0.9002	0.17983	0.614
Mof_C 	C 	0.57802	0.6208	0.04069	0.083
Mof_C 	C 	0.61144	0.6565	0.04471	-0.15
Mof_H 	H 	0.6112	0.6996	0.0552	0.082
Mof_C 	C 	0.64518	0.6329	0.03431	0.113
Mof_H 	H 	0.6665	0.6625	0.0354	0.01
Mof_C 	C 	0.64702	0.5651	0.02239	-0.23
Mof_C 	C 	0.61329	0.5302	0.01535	0.101
Mof_H 	H 	0.613	0.4917	0.0025	-0.002
Mof_C 	C 	0.58016	0.5543	0.02794	-0.146
Mof_H 	H 	0.5589	0.5242	0.0276	0.079
Mof_C 	C 	0.68188	0.5344	0.01319	0.571
Mof_Co	Co	0.516	0.95522	0.70956	-0.558
Mof_Co	Co	0.53737	0.0244	0.77041	-0.494
Mof_Co	Co	0.4668	0.08672	0.74133	-0.594
Mof_Co	Co	0.28721	0.5258	0.95504	-0.493
Mof_Co	Co	0.22165	0.5874	0.9848	-0.672
Mof_Co	Co	0.2664	0.4582	0.01749	-0.567
_end
