data_functionalizedCrystal
_audit_creation_method	'EQeq! by Chris Wilmer'
_symmetry_space_group_name_H-M	'P1'
_symmetry_Int_Tables_number	1
_symmetry_cell_setting	triclinic
loop_
_symmetry_equiv_pos_as_xyz
  x,y,z
_cell_length_a	13.2142
_cell_length_b	17.4938
_cell_length_c	17.4938
_cell_angle_alpha	90
_cell_angle_beta	90
_cell_angle_gamma	90
loop_
_atom_site_label
_atom_site_type_symbol
_atom_site_fract_x
_atom_site_fract_y
_atom_site_fract_z
_atom_site_charge
Mof_Sr	Sr	0.05332	0.8607	0.61179	1.486
Mof_Sr	Sr	0.55332	0.1393	0.38821	1.503
Mof_Sr	Sr	0.30332	0.88821	0.3607	1.501
Mof_Sr	Sr	0.80332	0.11179	0.6393	1.506
Mof_Sr	Sr	0.19668	0.6393	0.11179	1.493
Mof_Sr	Sr	0.69668	0.3607	0.88821	1.503
Mof_Sr	Sr	0.94668	0.61179	0.8607	1.517
Mof_Sr	Sr	0.44668	0.38821	0.1393	1.502
Mof_Cd	Cd	-9.18265e-33	0.6652	0.6652	0.435
Mof_Cd	Cd	0.5	0.3348	0.3348	0.447
Mof_Cd	Cd	0.25	0.8348	0.1652	0.446
Mof_Cd	Cd	0.75	0.1652	0.8348	0.447
Mof_H 	H 	0.8361	0.6207	0.4198	0.015
Mof_H 	H 	0.8274	0.6223	0.2891	0.095
Mof_H 	H 	0.9504	0.6862	0.218	0.003
Mof_H 	H 	0.0783	0.7583	0.413	-0.024
Mof_H 	H 	0.3361	0.3793	0.5802	0.015
Mof_H 	H 	0.3274	0.3777	0.7109	0.091
Mof_H 	H 	0.4504	0.3138	0.782	0.007
Mof_H 	H 	0.5783	0.2417	0.587	-0.026
Mof_H 	H 	0.0861	0.0802	0.1207	0.013
Mof_H 	H 	0.0774	0.2109	0.1223	0.088
Mof_H 	H 	0.2004	0.282	0.1862	0.006
Mof_H 	H 	0.3283	0.087	0.2583	-0.026
Mof_H 	H 	0.5861	0.9198	0.8793	0.017
Mof_H 	H 	0.5774	0.7891	0.8777	0.09
Mof_H 	H 	0.7004	0.718	0.8138	0.008
Mof_H 	H 	0.8283	0.913	0.7417	-0.023
Mof_H 	H 	0.4139	0.8793	0.9198	0.016
Mof_H 	H 	0.4226	0.8777	0.7891	0.091
Mof_H 	H 	0.2996	0.8138	0.718	0.007
Mof_H 	H 	0.1717	0.7417	0.913	-0.027
Mof_H 	H 	0.9139	0.1207	0.0802	0.019
Mof_H 	H 	0.9226	0.1223	0.2109	0.094
Mof_H 	H 	0.7996	0.1862	0.282	0.008
Mof_H 	H 	0.6717	0.2583	0.087	-0.025
Mof_H 	H 	0.1639	0.4198	0.6207	0.015
Mof_H 	H 	0.1726	0.2891	0.6223	0.089
Mof_H 	H 	0.0496	0.218	0.6862	0.009
Mof_H 	H 	0.9217	0.413	0.7583	-0.028
Mof_H 	H 	0.6639	0.5802	0.3793	0.016
Mof_H 	H 	0.6726	0.7109	0.3777	0.092
Mof_H 	H 	0.5496	0.782	0.3138	0.007
Mof_H 	H 	0.4217	0.587	0.2417	-0.026
Mof_C 	C 	0.9664	0.6866	0.5154	0.37
Mof_C 	C 	0.1057	0.7708	0.2637	0.431
Mof_C 	C 	0.9586	0.6895	0.429	-0.159
Mof_C 	C 	0.8834	0.6483	0.3917	0.088
Mof_C 	C 	0.8791	0.6485	0.314	-0.168
Mof_C 	C 	0.9519	0.6879	0.2711	0.116
Mof_C 	C 	0.0265	0.7297	0.3089	-0.224
Mof_C 	C 	0.0289	0.7302	0.3876	0.105
Mof_C 	C 	0.4664	0.3134	0.4846	0.358
Mof_C 	C 	0.6057	0.2292	0.7363	0.428
Mof_C 	C 	0.4586	0.3105	0.571	-0.17
Mof_C 	C 	0.3834	0.3517	0.6083	0.085
Mof_C 	C 	0.3791	0.3515	0.686	-0.16
Mof_C 	C 	0.4519	0.3121	0.7289	0.092
Mof_C 	C 	0.5265	0.2703	0.6911	-0.208
Mof_C 	C 	0.5289	0.2698	0.6124	0.117
Mof_C 	C 	0.2164	0.9846	0.1866	0.355
Mof_C 	C 	0.3557	0.2363	0.2708	0.427
Mof_C 	C 	0.2086	0.071	0.1895	-0.168
Mof_C 	C 	0.1334	0.1083	0.1483	0.083
Mof_C 	C 	0.1291	0.186	0.1485	-0.16
Mof_C 	C 	0.2019	0.2289	0.1879	0.091
Mof_C 	C 	0.2765	0.1911	0.2297	-0.208
Mof_C 	C 	0.2789	0.1124	0.2302	0.115
Mof_C 	C 	0.7164	0.0154	0.8134	0.354
Mof_C 	C 	0.8557	0.7637	0.7292	0.426
Mof_C 	C 	0.7086	0.929	0.8105	-0.165
Mof_C 	C 	0.6334	0.8917	0.8517	0.082
Mof_C 	C 	0.6291	0.814	0.8515	-0.157
Mof_C 	C 	0.7019	0.7711	0.8121	0.09
Mof_C 	C 	0.7765	0.8089	0.7703	-0.205
Mof_C 	C 	0.7789	0.8876	0.7698	0.114
Mof_C 	C 	0.2836	0.8134	0.0154	0.355
Mof_C 	C 	0.1443	0.7292	0.7637	0.428
Mof_C 	C 	0.2914	0.8105	0.929	-0.167
Mof_C 	C 	0.3666	0.8517	0.8917	0.084
Mof_C 	C 	0.3709	0.8515	0.814	-0.159
Mof_C 	C 	0.2981	0.8121	0.7711	0.092
Mof_C 	C 	0.2235	0.7703	0.8089	-0.208
Mof_C 	C 	0.2211	0.7698	0.8876	0.115
Mof_C 	C 	0.7836	0.1866	0.9846	0.355
Mof_C 	C 	0.6443	0.2708	0.2363	0.428
Mof_C 	C 	0.7914	0.1895	0.071	-0.166
Mof_C 	C 	0.8666	0.1483	0.1083	0.084
Mof_C 	C 	0.8709	0.1485	0.186	-0.157
Mof_C 	C 	0.7981	0.1879	0.2289	0.092
Mof_C 	C 	0.7235	0.2297	0.1911	-0.206
Mof_C 	C 	0.7211	0.2302	0.1124	0.115
Mof_C 	C 	0.0336	0.5154	0.6866	0.347
Mof_C 	C 	0.8943	0.2637	0.7708	0.426
Mof_C 	C 	0.0414	0.429	0.6895	-0.177
Mof_C 	C 	0.1166	0.3917	0.6483	0.084
Mof_C 	C 	0.1209	0.314	0.6485	-0.156
Mof_C 	C 	0.0481	0.2711	0.6879	0.078
Mof_C 	C 	0.9735	0.3089	0.7297	-0.198
Mof_C 	C 	0.9711	0.3876	0.7302	0.126
Mof_C 	C 	0.5336	0.4846	0.3134	0.357
Mof_C 	C 	0.3943	0.7363	0.2292	0.427
Mof_C 	C 	0.5414	0.571	0.3105	-0.169
Mof_C 	C 	0.6166	0.6083	0.3517	0.085
Mof_C 	C 	0.6209	0.686	0.3515	-0.16
Mof_C 	C 	0.5481	0.7289	0.3121	0.092
Mof_C 	C 	0.4735	0.6911	0.2703	-0.208
Mof_C 	C 	0.4711	0.6124	0.2698	0.116
Mof_N 	N 	0.2618	0.8975	0.5379	0.066
Mof_N 	N 	0.7618	0.1025	0.4621	0.066
Mof_N 	N 	0.5118	0.9621	0.3975	0.066
Mof_N 	N 	0.0118	0.0379	0.6025	0.061
Mof_N 	N 	0.9882	0.6025	0.0379	0.072
Mof_N 	N 	0.4882	0.3975	0.9621	0.066
Mof_N 	N 	0.7382	0.5379	0.8975	0.066
Mof_N 	N 	0.2382	0.4621	0.1025	0.067
Mof_O 	O 	0.9079	0.6451	0.5517	-0.29
Mof_O 	O 	0.0358	0.7249	0.5473	-0.413
Mof_O 	O 	0.1183	0.7536	0.1947	-0.432
Mof_O 	O 	0.1585	0.8198	0.2973	-0.469
Mof_O 	O 	0.2524	0.8953	0.6088	-0.239
Mof_O 	O 	0.1905	0.8725	0.4973	-0.346
Mof_O 	O 	0.3383	0.9233	0.508	-0.245
Mof_O 	O 	0.4079	0.3549	0.4483	-0.292
Mof_O 	O 	0.5358	0.2751	0.4527	-0.404
Mof_O 	O 	0.6183	0.2464	0.8053	-0.428
Mof_O 	O 	0.6585	0.1802	0.7027	-0.468
Mof_O 	O 	0.7524	0.1047	0.3912	-0.238
Mof_O 	O 	0.6905	0.1275	0.5027	-0.346
Mof_O 	O 	0.8383	0.0767	0.492	-0.243
Mof_O 	O 	0.1579	0.9483	0.1451	-0.295
Mof_O 	O 	0.2858	0.9527	0.2249	-0.404
Mof_O 	O 	0.3683	0.3053	0.2536	-0.428
Mof_O 	O 	0.4085	0.2027	0.3198	-0.468
Mof_O 	O 	0.5024	0.8912	0.3953	-0.239
Mof_O 	O 	0.4405	0.0027	0.3725	-0.346
Mof_O 	O 	0.5883	0.992	0.4233	-0.244
Mof_O 	O 	0.6579	0.0517	0.8549	-0.292
Mof_O 	O 	0.7858	0.0473	0.7751	-0.404
Mof_O 	O 	0.8683	0.6947	0.7464	-0.424
Mof_O 	O 	0.9085	0.7973	0.6802	-0.459
Mof_O 	O 	0.0024	0.1088	0.6047	-0.243
Mof_O 	O 	0.9405	0.9973	0.6275	-0.335
Mof_O 	O 	0.0883	0.008	0.5767	-0.245
Mof_O 	O 	0.3421	0.8549	0.0517	-0.292
Mof_O 	O 	0.2142	0.7751	0.0473	-0.405
Mof_O 	O 	0.1317	0.7464	0.6947	-0.427
Mof_O 	O 	0.0915	0.6802	0.7973	-0.472
Mof_O 	O 	0.9976	0.6047	0.1088	-0.232
Mof_O 	O 	0.0595	0.6275	0.9973	-0.354
Mof_O 	O 	0.9117	0.5767	0.008	-0.243
Mof_O 	O 	0.8421	0.1451	0.9483	-0.29
Mof_O 	O 	0.7142	0.2249	0.9527	-0.404
Mof_O 	O 	0.6317	0.2536	0.3053	-0.427
Mof_O 	O 	0.5915	0.3198	0.2027	-0.467
Mof_O 	O 	0.4976	0.3953	0.8912	-0.239
Mof_O 	O 	0.5595	0.3725	0.0027	-0.346
Mof_O 	O 	0.4117	0.4233	0.992	-0.245
Mof_O 	O 	0.0921	0.5517	0.6451	-0.291
Mof_O 	O 	0.9642	0.5473	0.7249	-0.393
Mof_O 	O 	0.8817	0.1947	0.7536	-0.425
Mof_O 	O 	0.8415	0.2973	0.8198	-0.466
Mof_O 	O 	0.7476	0.6088	0.8953	-0.24
Mof_O 	O 	0.8095	0.4973	0.8725	-0.346
Mof_O 	O 	0.6617	0.508	0.9233	-0.245
Mof_O 	O 	0.5921	0.4483	0.3549	-0.291
Mof_O 	O 	0.4642	0.4527	0.2751	-0.404
Mof_O 	O 	0.3817	0.8053	0.2464	-0.427
Mof_O 	O 	0.3415	0.7027	0.1802	-0.466
Mof_O 	O 	0.2476	0.3912	0.1047	-0.241
Mof_O 	O 	0.3095	0.5027	0.1275	-0.346
Mof_O 	O 	0.1617	0.492	0.0767	-0.249
_end
