data_functionalizedCrystal
_audit_creation_method	'EQeq! by Chris Wilmer'
_symmetry_space_group_name_H-M	'P1'
_symmetry_Int_Tables_number	1
_symmetry_cell_setting	triclinic
loop_
_symmetry_equiv_pos_as_xyz
  x,y,z
_cell_length_a	34.3138
_cell_length_b	34.3138
_cell_length_c	34.3138
_cell_angle_alpha	60
_cell_angle_beta	60
_cell_angle_gamma	60
loop_
_atom_site_label
_atom_site_type_symbol
_atom_site_fract_x
_atom_site_fract_y
_atom_site_fract_z
_atom_site_charge
Mof_Cd	Cd	0.52315	0.92661	0.47685	0.454
Mof_Cd	Cd	0.97685	0.42661	0.02315	0.453
Mof_Cd	Cd	0.07339	0.52315	0.47685	0.454
Mof_Cd	Cd	0.57339	0.42661	0.97685	0.454
Mof_Cd	Cd	0.92661	0.47685	0.52315	0.454
Mof_Cd	Cd	0.97685	0.57339	0.42661	0.454
Mof_Cd	Cd	0.92661	0.52315	0.07339	0.454
Mof_Cd	Cd	0.57339	0.97685	0.02315	0.453
Mof_Cd	Cd	0.02315	0.57339	0.97685	0.453
Mof_Cd	Cd	0.92661	0.07339	0.47685	0.454
Mof_Cd	Cd	0.52315	0.47685	0.07339	0.454
Mof_Cd	Cd	0.47685	0.92661	0.07339	0.454
Mof_Cd	Cd	0.42661	0.02315	0.97685	0.454
Mof_Cd	Cd	0.07339	0.92661	0.52315	0.455
Mof_Cd	Cd	0.52315	0.07339	0.92661	0.455
Mof_Cd	Cd	0.42661	0.97685	0.57339	0.455
Mof_Cd	Cd	0.07339	0.47685	0.92661	0.455
Mof_Cd	Cd	0.57339	0.02315	0.42661	0.455
Mof_Cd	Cd	0.42661	0.57339	0.02315	0.455
Mof_Cd	Cd	0.02315	0.97685	0.42661	0.454
Mof_Cd	Cd	0.47685	0.07339	0.52315	0.455
Mof_Cd	Cd	0.02315	0.42661	0.57339	0.455
Mof_Cd	Cd	0.47685	0.52315	0.92661	0.455
Mof_Cd	Cd	0.97685	0.02315	0.57339	0.454
Mof_H 	H 	0.8262	0.0392	0.4458	0.038
Mof_H 	H 	0.4389	0.7685	0.7987	0.052
Mof_H 	H 	0.8074	0.9044	0.719	0.129
Mof_H 	H 	0.1926	0.281	0.4308	0.129
Mof_H 	H 	0.6926	0.781	0.5956	0.129
Mof_H 	H 	0.7315	0.7013	0.5061	0.052
Mof_H 	H 	0.4605	0.2295	0.1235	0.132
Mof_H 	H 	0.5398	0.0728	0.3342	0.063
Mof_H 	H 	0.6888	0.8262	0.4458	0.037
Mof_H 	H 	0.9044	0.719	0.8074	0.129
Mof_H 	H 	0.6688	0.0034	0.1024	0.14
Mof_H 	H 	0.9574	0.6404	0.6256	0.137
Mof_H 	H 	0.8744	0.5426	0.7234	0.138
Mof_H 	H 	0.9468	0.9272	0.4602	0.064
Mof_H 	H 	0.7685	0.4389	0.9939	0.052
Mof_H 	H 	0.781	0.6926	0.9308	0.128
Mof_H 	H 	0.2987	0.2685	0.9389	0.052
Mof_H 	H 	0.8576	0.448	0.263	0.149
Mof_H 	H 	0.1116	0.1876	0.6484	0.144
Mof_H 	H 	0.5427	0.7497	0.0053	0.014
Mof_H 	H 	0.0053	0.5427	0.7497	0.014
Mof_H 	H 	0.1688	0.6024	0.5034	0.14
Mof_H 	H 	0.3976	0.8312	0.2746	0.14
Mof_H 	H 	0.1738	0.5542	0.3112	0.037
Mof_H 	H 	0.7023	0.0053	0.7497	0.014
Mof_H 	H 	0.7503	0.7977	0.9573	0.014
Mof_H 	H 	0.4966	0.8312	0.3976	0.14
Mof_H 	H 	0.5427	0.0053	0.7023	0.014
Mof_H 	H 	0.9605	0.6865	0.6235	0.132
Mof_H 	H 	0.3112	0.1738	0.5542	0.037
Mof_H 	H 	0.9088	0.2214	0.3764	0.024
Mof_H 	H 	0.7214	0.9934	0.4088	0.023
Mof_H 	H 	0.7291	0.5069	0.6667	0.01
Mof_H 	H 	0.1888	0.3262	0.5392	0.037
Mof_H 	H 	0.1688	0.7254	0.6024	0.14
Mof_H 	H 	0.9468	0.4602	0.6658	0.063
Mof_H 	H 	0.4476	0.8516	0.3884	0.144
Mof_H 	H 	0.5692	0.719	0.9044	0.129
Mof_H 	H 	0.8764	0.4088	0.9934	0.024
Mof_H 	H 	0.5692	0.8074	0.719	0.129
Mof_H 	H 	0.2013	0.0061	0.5611	0.052
Mof_H 	H 	0.2497	0.0427	0.5053	0.014
Mof_H 	H 	0.7011	0.8409	0.9577	0.021
Mof_H 	H 	0.5069	0.0973	0.6667	0.01
Mof_H 	H 	0.6024	0.1688	0.7254	0.14
Mof_H 	H 	0.2786	0.0066	0.5912	0.023
Mof_H 	H 	0.5532	0.5728	0.8342	0.063
Mof_H 	H 	0.8312	0.4966	0.2746	0.14
Mof_H 	H 	0.763	0.3576	0.9314	0.149
Mof_H 	H 	0.3074	0.4044	0.0692	0.128
Mof_H 	H 	0.2023	0.5053	0.0427	0.014
Mof_H 	H 	0.7977	0.7503	0.4947	0.014
Mof_H 	H 	0.4605	0.1865	0.2295	0.132
Mof_H 	H 	0.237	0.6424	0.0686	0.149
Mof_H 	H 	0.8744	0.7234	0.8596	0.138
Mof_H 	H 	0.8312	0.3976	0.4966	0.14
Mof_H 	H 	0.763	0.948	0.3576	0.149
Mof_H 	H 	0.3764	0.9088	0.2214	0.024
Mof_H 	H 	0.0611	0.5061	0.7013	0.052
Mof_H 	H 	0.448	0.4314	0.263	0.149
Mof_H 	H 	0.2989	0.1591	0.0423	0.021
Mof_H 	H 	0.5003	0.7011	0.9577	0.021
Mof_H 	H 	0.4934	0.3764	0.2214	0.023
Mof_H 	H 	0.0066	0.1236	0.5912	0.024
Mof_H 	H 	0.9602	0.4468	0.1658	0.063
Mof_H 	H 	0.6484	0.1876	0.0524	0.144
Mof_H 	H 	0.6865	0.7295	0.6235	0.132
Mof_H 	H 	0.1738	0.9608	0.5542	0.038
Mof_H 	H 	0.3124	0.4476	0.3884	0.144
Mof_H 	H 	0.3576	0.9314	0.763	0.149
Mof_H 	H 	0.9997	0.5423	0.7989	0.021
Mof_H 	H 	0.5956	0.9308	0.6926	0.128
Mof_H 	H 	0.9574	0.6256	0.7766	0.137
Mof_H 	H 	0.1256	0.1404	0.4574	0.138
Mof_H 	H 	0.5956	0.781	0.9308	0.128
Mof_H 	H 	0.6888	0.0392	0.8262	0.038
Mof_H 	H 	0.3884	0.4476	0.8516	0.144
Mof_H 	H 	0.5423	0.6591	0.7989	0.021
Mof_H 	H 	0.0912	0.5066	0.7786	0.024
Mof_H 	H 	0.2011	0.4577	0.3409	0.021
Mof_H 	H 	0.1256	0.2766	0.1404	0.138
Mof_H 	H 	0.4088	0.8764	0.7214	0.023
Mof_H 	H 	0.0686	0.6424	0.052	0.149
Mof_H 	H 	0.1667	0.5973	0.0069	0.01
Mof_H 	H 	0.5426	0.7234	0.8744	0.138
Mof_H 	H 	0.6876	0.5524	0.6116	0.144
Mof_H 	H 	0.1591	0.0423	0.2989	0.021
Mof_H 	H 	0.7013	0.5061	0.7315	0.052
Mof_H 	H 	0.0398	0.5532	0.8342	0.063
Mof_H 	H 	0.6404	0.9574	0.7766	0.137
Mof_H 	H 	0.4458	0.6888	0.8262	0.037
Mof_H 	H 	0.6424	0.0686	0.237	0.149
Mof_H 	H 	0.0912	0.7786	0.6236	0.024
Mof_H 	H 	0.1024	0.6688	0.0034	0.14
Mof_H 	H 	0.3596	0.3744	0.0426	0.137
Mof_H 	H 	0.9574	0.7766	0.6404	0.137
Mof_H 	H 	0.8262	0.6888	0.0392	0.038
Mof_H 	H 	0.0423	0.4997	0.2989	0.021
Mof_H 	H 	0.9947	0.2503	0.2977	0.014
Mof_H 	H 	0.5069	0.7291	0.0973	0.01
Mof_H 	H 	0.5392	0.1888	0.3262	0.037
Mof_H 	H 	0.7705	0.8135	0.8765	0.132
Mof_H 	H 	0.4602	0.9468	0.9272	0.064
Mof_H 	H 	0.7746	0.8976	0.9966	0.14
Mof_H 	H 	0.7746	0.3312	0.8976	0.14
Mof_H 	H 	0.5973	0.2291	0.0069	0.01
Mof_H 	H 	0.1484	0.5524	0.6876	0.144
Mof_H 	H 	0.0692	0.4044	0.219	0.128
Mof_H 	H 	0.2295	0.1865	0.1235	0.132
Mof_H 	H 	0.5912	0.1236	0.2786	0.023
Mof_H 	H 	0.2214	0.9088	0.4934	0.024
Mof_H 	H 	0.3262	0.1888	0.9458	0.037
Mof_H 	H 	0.0427	0.5053	0.2497	0.014
Mof_H 	H 	0.0061	0.2013	0.2315	0.051
Mof_H 	H 	0.3596	0.0426	0.2234	0.137
Mof_H 	H 	0.0003	0.4577	0.2011	0.021
Mof_H 	H 	0.2234	0.0426	0.3744	0.137
Mof_H 	H 	0.2977	0.4573	0.9947	0.014
Mof_H 	H 	0.5395	0.8135	0.7705	0.132
Mof_H 	H 	0.3124	0.3884	0.8516	0.144
Mof_H 	H 	0.3124	0.8516	0.4476	0.144
Mof_H 	H 	0.9389	0.2685	0.4939	0.052
Mof_H 	H 	0.9088	0.4934	0.2214	0.024
Mof_H 	H 	0.0728	0.5398	0.0532	0.064
Mof_H 	H 	0.8409	0.5003	0.9577	0.021
Mof_H 	H 	0.948	0.9314	0.3576	0.149
Mof_H 	H 	0.8516	0.3884	0.4476	0.144
Mof_H 	H 	0.4044	0.219	0.0692	0.128
Mof_H 	H 	0.2685	0.2987	0.4939	0.052
Mof_H 	H 	0.3744	0.0426	0.3596	0.137
Mof_H 	H 	0.9931	0.4027	0.7709	0.01
Mof_H 	H 	0.2709	0.9027	0.4931	0.01
Mof_H 	H 	0.0692	0.3074	0.4044	0.128
Mof_H 	H 	0.2023	0.2497	0.5053	0.014
Mof_H 	H 	0.2023	0.0427	0.2497	0.014
Mof_H 	H 	0.0728	0.3342	0.5398	0.063
Mof_H 	H 	0.4602	0.9272	0.6658	0.063
Mof_H 	H 	0.0069	0.1667	0.5973	0.01
Mof_H 	H 	0.2977	0.9947	0.2503	0.014
Mof_H 	H 	0.7709	0.8333	0.9931	0.01
Mof_H 	H 	0.6235	0.9605	0.6865	0.132
Mof_H 	H 	0.6876	0.1484	0.5524	0.144
Mof_H 	H 	0.948	0.763	0.9314	0.149
Mof_H 	H 	0.1236	0.2786	0.5912	0.023
Mof_H 	H 	0.237	0.052	0.6424	0.149
Mof_H 	H 	0.3342	0.0728	0.0532	0.064
Mof_H 	H 	0.2254	0.6688	0.1024	0.14
Mof_H 	H 	0.8333	0.7709	0.4027	0.01
Mof_H 	H 	0.0912	0.6236	0.5066	0.024
Mof_H 	H 	0.7503	0.9573	0.4947	0.014
Mof_H 	H 	0.7013	0.7315	0.0611	0.052
Mof_H 	H 	0.781	0.5956	0.6926	0.129
Mof_H 	H 	0.6235	0.6865	0.7295	0.132
Mof_H 	H 	0.1235	0.1865	0.4605	0.132
Mof_H 	H 	0.3112	0.5542	0.9608	0.037
Mof_H 	H 	0.9308	0.5956	0.781	0.128
Mof_H 	H 	0.4468	0.4272	0.1658	0.063
Mof_H 	H 	0.5423	0.9997	0.6591	0.021
Mof_H 	H 	0.3262	0.9458	0.5392	0.037
Mof_H 	H 	0.5395	0.7705	0.8765	0.132
Mof_H 	H 	0.9308	0.781	0.6926	0.128
Mof_H 	H 	0.0398	0.8342	0.5728	0.063
Mof_H 	H 	0.3884	0.8516	0.3124	0.144
Mof_H 	H 	0.8744	0.8596	0.5426	0.138
Mof_H 	H 	0.2685	0.9389	0.2987	0.052
Mof_H 	H 	0.1658	0.4272	0.9602	0.063
Mof_H 	H 	0.3976	0.2746	0.4966	0.14
Mof_H 	H 	0.0542	0.8112	0.4608	0.037
Mof_H 	H 	0.0426	0.2234	0.3596	0.137
Mof_H 	H 	0.2503	0.4573	0.2977	0.014
Mof_H 	H 	0.1116	0.6484	0.0524	0.144
Mof_H 	H 	0.8124	0.9476	0.3516	0.144
Mof_H 	H 	0.6591	0.9997	0.7989	0.022
Mof_H 	H 	0.8074	0.5692	0.9044	0.129
Mof_H 	H 	0.4389	0.9939	0.7685	0.052
Mof_H 	H 	0.1024	0.0034	0.2254	0.14
Mof_H 	H 	0.2989	0.4997	0.1591	0.021
Mof_H 	H 	0.6484	0.0524	0.1116	0.144
Mof_H 	H 	0.2234	0.3596	0.0426	0.137
Mof_H 	H 	0.1424	0.552	0.737	0.149
Mof_H 	H 	0.3135	0.2705	0.3765	0.132
Mof_H 	H 	0.0066	0.5912	0.2786	0.023
Mof_H 	H 	0.0392	0.6888	0.4458	0.037
Mof_H 	H 	0.9934	0.8764	0.4088	0.024
Mof_H 	H 	0.7315	0.0611	0.7013	0.052
Mof_H 	H 	0.3333	0.2709	0.4931	0.01
Mof_H 	H 	0.219	0.3074	0.0692	0.128
Mof_H 	H 	0.1876	0.0524	0.6484	0.144
Mof_H 	H 	0.6591	0.5423	0.9997	0.021
Mof_H 	H 	0.0392	0.4458	0.8262	0.038
Mof_H 	H 	0.4573	0.9947	0.2977	0.014
Mof_H 	H 	0.7685	0.9939	0.7987	0.051
Mof_H 	H 	0.3765	0.0395	0.3135	0.132
Mof_H 	H 	0.2685	0.4939	0.9389	0.052
Mof_H 	H 	0.0956	0.281	0.1926	0.129
Mof_H 	H 	0.1484	0.6876	0.6116	0.144
Mof_H 	H 	0.5692	0.9044	0.8074	0.129
Mof_H 	H 	0.5532	0.0398	0.5728	0.063
Mof_H 	H 	0.5395	0.8765	0.8135	0.132
Mof_H 	H 	0.9314	0.763	0.3576	0.149
Mof_H 	H 	0.8765	0.5395	0.7705	0.132
Mof_H 	H 	0.0611	0.7315	0.5061	0.052
Mof_H 	H 	0.7705	0.5395	0.8135	0.132
Mof_H 	H 	0.8333	0.4027	0.9931	0.01
Mof_H 	H 	0.9577	0.8409	0.5003	0.021
Mof_H 	H 	0.9947	0.4573	0.2503	0.014
Mof_H 	H 	0.7709	0.9931	0.4027	0.01
Mof_H 	H 	0.8596	0.8744	0.7234	0.138
Mof_H 	H 	0.9608	0.1738	0.3112	0.038
Mof_H 	H 	0.6738	0.4608	0.8112	0.037
Mof_H 	H 	0.4088	0.7214	0.9934	0.023
Mof_H 	H 	0.9931	0.8333	0.4027	0.01
Mof_H 	H 	0.8976	0.3312	0.9966	0.14
Mof_H 	H 	0.9088	0.3764	0.4934	0.024
Mof_H 	H 	0.8112	0.4608	0.0542	0.037
Mof_H 	H 	0.1865	0.1235	0.2295	0.132
Mof_H 	H 	0.6256	0.6404	0.7766	0.138
Mof_H 	H 	0.1024	0.2254	0.6688	0.14
Mof_H 	H 	0.0532	0.3342	0.0728	0.064
Mof_H 	H 	0.6658	0.9468	0.4602	0.063
Mof_H 	H 	0.4573	0.2503	0.9947	0.014
Mof_H 	H 	0.5423	0.7989	0.9997	0.021
Mof_H 	H 	0.7497	0.0053	0.5427	0.014
Mof_H 	H 	0.4314	0.448	0.8576	0.149
Mof_H 	H 	0.0392	0.8262	0.6888	0.038
Mof_H 	H 	0.3312	0.7746	0.9966	0.14
Mof_H 	H 	0.737	0.1424	0.552	0.149
Mof_H 	H 	0.7214	0.8764	0.9934	0.024
Mof_H 	H 	0.6235	0.7295	0.9605	0.132
Mof_H 	H 	0.052	0.6424	0.237	0.149
Mof_H 	H 	0.3765	0.2705	0.0395	0.132
Mof_H 	H 	0.4389	0.7987	0.9939	0.052
Mof_H 	H 	0.1865	0.4605	0.1235	0.132
Mof_H 	H 	0.1688	0.5034	0.7254	0.14
Mof_H 	H 	0.9605	0.6235	0.7295	0.132
Mof_H 	H 	0.9476	0.3516	0.8124	0.144
Mof_H 	H 	0.9027	0.2709	0.3333	0.01
Mof_H 	H 	0.4608	0.6738	0.0542	0.037
Mof_H 	H 	0.8884	0.9476	0.8124	0.144
Mof_H 	H 	0.3074	0.219	0.4044	0.129
Mof_H 	H 	0.0524	0.1876	0.1116	0.144
Mof_H 	H 	0.3312	0.8976	0.7746	0.14
Mof_H 	H 	0.5912	0.0066	0.1236	0.024
Mof_H 	H 	0.7987	0.9939	0.4389	0.052
Mof_H 	H 	0.0427	0.2497	0.2023	0.014
Mof_H 	H 	0.6424	0.237	0.052	0.149
Mof_H 	H 	0.0423	0.2989	0.1591	0.021
Mof_H 	H 	0.7291	0.0973	0.5069	0.01
Mof_H 	H 	0.4574	0.1256	0.1404	0.138
Mof_H 	H 	0.9573	0.4947	0.7503	0.014
Mof_H 	H 	0.4314	0.8576	0.263	0.149
Mof_H 	H 	0.2709	0.3333	0.9027	0.01
Mof_H 	H 	0.8409	0.7011	0.5003	0.021
Mof_H 	H 	0.2705	0.0395	0.3765	0.132
Mof_H 	H 	0.2746	0.8312	0.4966	0.14
Mof_H 	H 	0.9608	0.3112	0.5542	0.037
Mof_H 	H 	0.3516	0.8124	0.9476	0.144
Mof_H 	H 	0.2315	0.0061	0.2013	0.051
Mof_H 	H 	0.3764	0.2214	0.4934	0.023
Mof_H 	H 	0.1591	0.2989	0.4997	0.021
Mof_H 	H 	0.281	0.4308	0.1926	0.129
Mof_H 	H 	0.8112	0.6738	0.4608	0.037
Mof_H 	H 	0.9577	0.5003	0.7011	0.021
Mof_H 	H 	0.8135	0.8765	0.7705	0.132
Mof_H 	H 	0.0427	0.2023	0.5053	0.014
Mof_H 	H 	0.0686	0.052	0.237	0.149
Mof_H 	H 	0.6688	0.2254	0.0034	0.14
Mof_H 	H 	0.2705	0.3135	0.0395	0.132
Mof_H 	H 	0.2214	0.4934	0.3764	0.023
Mof_H 	H 	0.1926	0.4308	0.0956	0.129
Mof_H 	H 	0.6424	0.052	0.0686	0.149
Mof_H 	H 	0.1484	0.6116	0.5524	0.144
Mof_H 	H 	0.7497	0.7023	0.0053	0.014
Mof_H 	H 	0.9272	0.4602	0.9468	0.064
Mof_H 	H 	0.8074	0.719	0.5692	0.129
Mof_H 	H 	0.3135	0.3765	0.0395	0.132
Mof_H 	H 	0.5611	0.0061	0.2315	0.052
Mof_H 	H 	0.5728	0.5532	0.0398	0.063
Mof_H 	H 	0.1236	0.0066	0.2786	0.024
Mof_H 	H 	0.5003	0.9577	0.8409	0.021
Mof_H 	H 	0.2291	0.1667	0.0069	0.01
Mof_H 	H 	0.9608	0.5542	0.1738	0.038
Mof_H 	H 	0.2709	0.4931	0.3333	0.01
Mof_H 	H 	0.5611	0.2013	0.0061	0.052
Mof_H 	H 	0.5034	0.7254	0.1688	0.14
Mof_H 	H 	0.0973	0.6667	0.5069	0.01
Mof_H 	H 	0.4027	0.7709	0.9931	0.01
Mof_H 	H 	0.0611	0.7013	0.7315	0.052
Mof_H 	H 	0.0524	0.1116	0.6484	0.144
Mof_H 	H 	0.6738	0.0542	0.4608	0.037
Mof_H 	H 	0.8596	0.7234	0.5426	0.138
Mof_H 	H 	0.1876	0.6484	0.1116	0.144
Mof_H 	H 	0.263	0.8576	0.448	0.149
Mof_H 	H 	0.5426	0.8744	0.8596	0.138
Mof_H 	H 	0.3576	0.763	0.948	0.149
Mof_H 	H 	0.9602	0.4272	0.4468	0.063
Mof_H 	H 	0.6667	0.5069	0.0973	0.01
Mof_H 	H 	0.3764	0.4934	0.9088	0.024
Mof_H 	H 	0.5524	0.6876	0.1484	0.144
Mof_H 	H 	0.6926	0.9308	0.781	0.128
Mof_H 	H 	0.5912	0.2786	0.0066	0.023
Mof_H 	H 	0.2295	0.1235	0.4605	0.132
Mof_H 	H 	0.4947	0.7977	0.7503	0.014
Mof_H 	H 	0.1658	0.4468	0.4272	0.063
Mof_H 	H 	0.2291	0.5973	0.1667	0.01
Mof_H 	H 	0.7766	0.9574	0.6256	0.137
Mof_H 	H 	0.5532	0.8342	0.0398	0.063
Mof_H 	H 	0.8124	0.8884	0.9476	0.144
Mof_H 	H 	0.5066	0.6236	0.7786	0.023
Mof_H 	H 	0.4947	0.7503	0.9573	0.014
Mof_H 	H 	0.552	0.5686	0.737	0.149
Mof_H 	H 	0.0423	0.1591	0.4997	0.021
Mof_H 	H 	0.1888	0.5392	0.9458	0.037
Mof_H 	H 	0.5542	0.3112	0.1738	0.037
Mof_H 	H 	0.0034	0.2254	0.1024	0.14
Mof_H 	H 	0.4939	0.2987	0.9389	0.052
Mof_H 	H 	0.6404	0.7766	0.6256	0.138
Mof_H 	H 	0.4939	0.2685	0.2987	0.052
Mof_H 	H 	0.2987	0.9389	0.4939	0.052
Mof_H 	H 	0.9966	0.7746	0.8976	0.14
Mof_H 	H 	0.052	0.237	0.0686	0.149
Mof_H 	H 	0.9458	0.5392	0.3262	0.037
Mof_H 	H 	0.4605	0.1235	0.1865	0.132
Mof_H 	H 	0.9027	0.4931	0.2709	0.01
Mof_H 	H 	0.5392	0.9458	0.1888	0.037
Mof_H 	H 	0.5686	0.1424	0.737	0.149
Mof_H 	H 	0.2315	0.2013	0.5611	0.052
Mof_H 	H 	0.1404	0.4574	0.1256	0.138
Mof_H 	H 	0.3333	0.4931	0.9027	0.01
Mof_H 	H 	0.4468	0.9602	0.4272	0.063
Mof_H 	H 	0.9966	0.8976	0.3312	0.14
Mof_H 	H 	0.8342	0.5728	0.0398	0.063
Mof_H 	H 	0.281	0.1926	0.0956	0.129
Mof_H 	H 	0.2497	0.5053	0.2023	0.014
Mof_H 	H 	0.4458	0.8262	0.0392	0.038
Mof_H 	H 	0.3135	0.0395	0.2705	0.132
Mof_H 	H 	0.5061	0.7315	0.7013	0.052
Mof_H 	H 	0.8516	0.3124	0.3884	0.144
Mof_H 	H 	0.9605	0.7295	0.6865	0.132
Mof_H 	H 	0.3312	0.9966	0.8976	0.14
Mof_H 	H 	0.0426	0.3744	0.2234	0.137
Mof_H 	H 	0.4602	0.6658	0.9468	0.063
Mof_H 	H 	0.4574	0.1404	0.2766	0.138
Mof_H 	H 	0.7234	0.5426	0.8596	0.138
Mof_H 	H 	0.0426	0.3596	0.3744	0.137
Mof_H 	H 	0.8516	0.4476	0.3124	0.144
Mof_H 	H 	0.8976	0.7746	0.3312	0.14
Mof_H 	H 	0.7987	0.4389	0.7685	0.052
Mof_H 	H 	0.9997	0.6591	0.5423	0.021
Mof_H 	H 	0.2503	0.9947	0.4573	0.014
Mof_H 	H 	0.3744	0.3596	0.2234	0.138
Mof_H 	H 	0.8333	0.9931	0.7709	0.01
Mof_H 	H 	0.7023	0.5427	0.0053	0.014
Mof_H 	H 	0.3516	0.8884	0.8124	0.144
Mof_H 	H 	0.2989	0.0423	0.4997	0.021
Mof_H 	H 	0.7497	0.5427	0.7023	0.014
Mof_H 	H 	0.9476	0.8124	0.8884	0.144
Mof_H 	H 	0.4272	0.1658	0.4468	0.063
Mof_H 	H 	0.4997	0.1591	0.2989	0.021
Mof_H 	H 	0.3976	0.4966	0.8312	0.14
Mof_H 	H 	0.2766	0.1404	0.1256	0.138
Mof_H 	H 	0.9947	0.2977	0.4573	0.014
Mof_H 	H 	0.4931	0.3333	0.2709	0.01
Mof_H 	H 	0.4931	0.2709	0.9027	0.01
Mof_H 	H 	0.6024	0.7254	0.5034	0.14
Mof_H 	H 	0.052	0.0686	0.6424	0.149
Mof_H 	H 	0.9573	0.7977	0.4947	0.014
Mof_H 	H 	0.6116	0.6876	0.5524	0.144
Mof_H 	H 	0.7987	0.7685	0.9939	0.051
Mof_H 	H 	0.552	0.1424	0.5686	0.149
Mof_H 	H 	0.719	0.9044	0.5692	0.129
Mof_H 	H 	0.1926	0.0956	0.281	0.129
Mof_H 	H 	0.5398	0.0532	0.0728	0.064
Mof_H 	H 	0.2786	0.1236	0.0066	0.024
Mof_H 	H 	0.9931	0.7709	0.8333	0.01
Mof_H 	H 	0.5066	0.7786	0.0912	0.024
Mof_H 	H 	0.5426	0.8596	0.7234	0.138
Mof_H 	H 	0.7315	0.5061	0.0611	0.052
Mof_H 	H 	0.6667	0.7291	0.5069	0.01
Mof_H 	H 	0.2766	0.4574	0.1404	0.138
Mof_H 	H 	0.0973	0.5069	0.7291	0.01
Mof_H 	H 	0.7011	0.9577	0.5003	0.021
Mof_H 	H 	0.2746	0.3976	0.8312	0.14
Mof_H 	H 	0.9389	0.2987	0.2685	0.052
Mof_H 	H 	0.0398	0.5728	0.5532	0.063
Mof_H 	H 	0.8124	0.3516	0.8884	0.144
Mof_H 	H 	0.5611	0.2315	0.2013	0.052
Mof_H 	H 	0.3342	0.0532	0.5398	0.063
Mof_H 	H 	0.3884	0.3124	0.4476	0.144
Mof_H 	H 	0.9939	0.7987	0.7685	0.051
Mof_H 	H 	0.5524	0.6116	0.6876	0.144
Mof_H 	H 	0.9272	0.9468	0.6658	0.064
Mof_H 	H 	0.2705	0.3765	0.3135	0.132
Mof_H 	H 	0.6738	0.8112	0.0542	0.037
Mof_H 	H 	0.8765	0.7705	0.8135	0.132
Mof_H 	H 	0.7989	0.9997	0.5423	0.021
Mof_H 	H 	0.7023	0.7497	0.5427	0.014
Mof_H 	H 	0.5061	0.7013	0.0611	0.052
Mof_H 	H 	0.9939	0.7685	0.4389	0.052
Mof_H 	H 	0.0003	0.3409	0.4577	0.021
Mof_H 	H 	0.8976	0.9966	0.7746	0.14
Mof_H 	H 	0.1865	0.2295	0.4605	0.132
Mof_H 	H 	0.2987	0.4939	0.2685	0.052
Mof_H 	H 	0.3409	0.0003	0.2011	0.022
Mof_H 	H 	0.9458	0.3262	0.1888	0.037
Mof_H 	H 	0.4939	0.9389	0.2685	0.052
Mof_H 	H 	0.5053	0.2023	0.2497	0.014
Mof_H 	H 	0.7254	0.6024	0.1688	0.14
Mof_H 	H 	0.6236	0.0912	0.7786	0.024
Mof_H 	H 	0.6484	0.1116	0.1876	0.144
Mof_H 	H 	0.7503	0.4947	0.7977	0.014
Mof_H 	H 	0.7709	0.4027	0.8333	0.01
Mof_H 	H 	0.8576	0.4314	0.448	0.149
Mof_H 	H 	0.4573	0.2977	0.2503	0.014
Mof_H 	H 	0.0395	0.3135	0.3765	0.132
Mof_H 	H 	0.9939	0.4389	0.7987	0.052
Mof_H 	H 	0.7295	0.6865	0.9605	0.132
Mof_H 	H 	0.4044	0.0692	0.3074	0.128
Mof_H 	H 	0.1591	0.4997	0.0423	0.021
Mof_H 	H 	0.1738	0.3112	0.9608	0.038
Mof_H 	H 	0.2786	0.5912	0.1236	0.023
Mof_H 	H 	0.5034	0.1688	0.6024	0.14
Mof_H 	H 	0.6888	0.4458	0.0392	0.037
Mof_H 	H 	0.1404	0.2766	0.4574	0.138
Mof_H 	H 	0.5061	0.0611	0.7315	0.052
Mof_H 	H 	0.2315	0.5611	0.0061	0.052
Mof_H 	H 	0.4468	0.1658	0.9602	0.063
Mof_H 	H 	0.3333	0.9027	0.2709	0.01
Mof_H 	H 	0.5053	0.2497	0.0427	0.014
Mof_H 	H 	0.9458	0.1888	0.5392	0.037
Mof_H 	H 	0.4088	0.9934	0.8764	0.024
Mof_H 	H 	0.1235	0.2295	0.1865	0.132
Mof_H 	H 	0.9997	0.7989	0.6591	0.022
Mof_H 	H 	0.6688	0.1024	0.2254	0.14
Mof_H 	H 	0.8112	0.0542	0.6738	0.037
Mof_H 	H 	0.2234	0.3744	0.3596	0.138
Mof_H 	H 	0.5003	0.8409	0.7011	0.021
Mof_H 	H 	0.552	0.737	0.1424	0.149
Mof_H 	H 	0.8135	0.5395	0.8765	0.132
Mof_H 	H 	0.5066	0.0912	0.6236	0.024
Mof_H 	H 	0.7786	0.0912	0.5066	0.024
Mof_H 	H 	0.2291	0.0069	0.5973	0.01
Mof_H 	H 	0.1404	0.1256	0.2766	0.138
Mof_H 	H 	0.0956	0.4308	0.281	0.129
Mof_H 	H 	0.3409	0.4577	0.0003	0.021
Mof_H 	H 	0.0542	0.4608	0.6738	0.037
Mof_H 	H 	0.263	0.4314	0.8576	0.149
Mof_H 	H 	0.5542	0.1738	0.9608	0.038
Mof_H 	H 	0.1116	0.0524	0.1876	0.144
Mof_H 	H 	0.4272	0.9602	0.1658	0.063
Mof_H 	H 	0.9573	0.7503	0.7977	0.014
Mof_H 	H 	0.2497	0.2023	0.0427	0.014
Mof_H 	H 	0.4966	0.3976	0.2746	0.14
Mof_H 	H 	0.2766	0.1256	0.4574	0.138
Mof_H 	H 	0.0034	0.1024	0.6688	0.14
Mof_H 	H 	0.4308	0.0956	0.1926	0.129
Mof_H 	H 	0.4272	0.4468	0.9602	0.063
Mof_H 	H 	0.7746	0.9966	0.3312	0.14
Mof_H 	H 	0.4608	0.8112	0.6738	0.037
Mof_H 	H 	0.6926	0.5956	0.9308	0.128
Mof_H 	H 	0.5686	0.737	0.552	0.149
Mof_H 	H 	0.1236	0.5912	0.0066	0.024
Mof_H 	H 	0.448	0.263	0.8576	0.149
Mof_H 	H 	0.8342	0.5532	0.5728	0.063
Mof_H 	H 	0.2214	0.3764	0.9088	0.024
Mof_H 	H 	0.7977	0.4947	0.9573	0.014
Mof_H 	H 	0.0395	0.2705	0.3135	0.132
Mof_H 	H 	0.3262	0.5392	0.1888	0.037
Mof_H 	H 	0.3409	0.2011	0.4577	0.021
Mof_H 	H 	0.4931	0.9027	0.3333	0.01
Mof_H 	H 	0.7685	0.7987	0.4389	0.052
Mof_H 	H 	0.8135	0.7705	0.5395	0.132
Mof_H 	H 	0.948	0.3576	0.763	0.149
Mof_H 	H 	0.3576	0.948	0.9314	0.149
Mof_H 	H 	0.4577	0.0003	0.3409	0.021
Mof_H 	H 	0.4577	0.3409	0.2011	0.021
Mof_H 	H 	0.7254	0.1688	0.5034	0.14
Mof_H 	H 	0.4458	0.0392	0.6888	0.037
Mof_H 	H 	0.0542	0.6738	0.8112	0.037
Mof_H 	H 	0.219	0.0692	0.4044	0.128
Mof_H 	H 	0.9934	0.4088	0.7214	0.023
Mof_H 	H 	0.7989	0.6591	0.9997	0.022
Mof_H 	H 	0.6256	0.9574	0.6404	0.137
Mof_H 	H 	0.0003	0.2011	0.3409	0.022
Mof_H 	H 	0.1667	0.0069	0.2291	0.01
Mof_H 	H 	0.4027	0.9931	0.8333	0.01
Mof_H 	H 	0.9602	0.1658	0.4272	0.063
Mof_H 	H 	0.6236	0.7786	0.5066	0.023
Mof_H 	H 	0.7766	0.6404	0.9574	0.137
Mof_H 	H 	0.4934	0.9088	0.3764	0.024
Mof_H 	H 	0.6876	0.6116	0.1484	0.144
Mof_H 	H 	0.7291	0.6667	0.0973	0.01
Mof_H 	H 	0.6865	0.9605	0.7295	0.132
Mof_H 	H 	0.763	0.9314	0.948	0.149
Mof_H 	H 	0.9966	0.3312	0.7746	0.14
Mof_H 	H 	0.9577	0.7011	0.8409	0.021
Mof_H 	H 	0.0069	0.5973	0.2291	0.01
Mof_H 	H 	0.9314	0.3576	0.948	0.149
Mof_H 	H 	0.1658	0.9602	0.4468	0.063
Mof_H 	H 	0.4476	0.3884	0.3124	0.144
Mof_H 	H 	0.8409	0.9577	0.7011	0.021
Mof_H 	H 	0.1667	0.2291	0.5973	0.01
Mof_H 	H 	0.5956	0.6926	0.781	0.129
Mof_H 	H 	0.5524	0.1484	0.6116	0.144
Mof_H 	H 	0.1876	0.1116	0.0524	0.144
Mof_H 	H 	0.4308	0.1926	0.281	0.129
Mof_H 	H 	0.8576	0.263	0.4314	0.149
Mof_H 	H 	0.5053	0.0427	0.2023	0.014
Mof_H 	H 	0.6116	0.1484	0.6876	0.144
Mof_H 	H 	0.448	0.8576	0.4314	0.149
Mof_H 	H 	0.2013	0.5611	0.2315	0.052
Mof_H 	H 	0.2746	0.4966	0.3976	0.14
Mof_H 	H 	0.2011	0.0003	0.4577	0.021
Mof_H 	H 	0.2254	0.0034	0.6688	0.14
Mof_H 	H 	0.8312	0.2746	0.3976	0.14
Mof_H 	H 	0.7011	0.5003	0.8409	0.021
Mof_H 	H 	0.2503	0.2977	0.9947	0.014
Mof_H 	H 	0.0061	0.5611	0.2013	0.052
Mof_H 	H 	0.6404	0.6256	0.9574	0.137
Mof_H 	H 	0.0532	0.5398	0.3342	0.063
Mof_H 	H 	0.4044	0.3074	0.219	0.129
Mof_H 	H 	0.2011	0.3409	0.0003	0.022
Mof_H 	H 	0.4476	0.3124	0.8516	0.144
Mof_H 	H 	0.737	0.5686	0.1424	0.149
Mof_H 	H 	0.5728	0.8342	0.5532	0.063
Mof_H 	H 	0.0973	0.7291	0.6667	0.01
Mof_H 	H 	0.1256	0.4574	0.2766	0.138
Mof_H 	H 	0.7705	0.8765	0.5395	0.132
Mof_H 	H 	0.3074	0.0692	0.219	0.128
Mof_H 	H 	0.9934	0.7214	0.8764	0.024
Mof_H 	H 	0.3596	0.2234	0.3744	0.138
Mof_H 	H 	0.3342	0.5398	0.0728	0.063
Mof_H 	H 	0.6256	0.7766	0.9574	0.137
Mof_H 	H 	0.1424	0.5686	0.552	0.149
Mof_H 	H 	0.0053	0.7023	0.5427	0.014
Mof_H 	H 	0.1888	0.9458	0.3262	0.037
Mof_H 	H 	0.4314	0.263	0.448	0.149
Mof_H 	H 	0.719	0.5692	0.8074	0.129
Mof_H 	H 	0.0728	0.0532	0.3342	0.064
Mof_H 	H 	0.6658	0.4602	0.9272	0.063
Mof_H 	H 	0.8596	0.5426	0.8744	0.138
Mof_H 	H 	0.9389	0.4939	0.2987	0.052
Mof_H 	H 	0.0395	0.3765	0.2705	0.132
Mof_H 	H 	0.0686	0.237	0.6424	0.149
Mof_H 	H 	0.4308	0.281	0.0956	0.129
Mof_H 	H 	0.6658	0.9272	0.9468	0.064
Mof_H 	H 	0.9044	0.5692	0.719	0.129
Mof_H 	H 	0.281	0.0956	0.4308	0.129
Mof_H 	H 	0.7786	0.6236	0.0912	0.024
Mof_H 	H 	0.4997	0.2989	0.0423	0.021
Mof_H 	H 	0.6116	0.5524	0.1484	0.144
Mof_H 	H 	0.9272	0.6658	0.4602	0.063
Mof_H 	H 	0.4966	0.2746	0.8312	0.14
Mof_H 	H 	0.5069	0.6667	0.7291	0.01
Mof_H 	H 	0.3765	0.3135	0.2705	0.132
Mof_H 	H 	0.9476	0.8884	0.3516	0.144
Mof_H 	H 	0.5398	0.3342	0.0532	0.063
Mof_H 	H 	0.1424	0.737	0.5686	0.149
Mof_H 	H 	0.3744	0.2234	0.0426	0.137
Mof_H 	H 	0.7766	0.6256	0.6404	0.138
Mof_H 	H 	0.5392	0.3262	0.9458	0.037
Mof_H 	H 	0.781	0.9308	0.5956	0.128
Mof_H 	H 	0.4577	0.2011	0.0003	0.021
Mof_H 	H 	0.7989	0.5423	0.6591	0.021
Mof_H 	H 	0.219	0.4044	0.3074	0.129
Mof_H 	H 	0.7234	0.8596	0.8744	0.138
Mof_H 	H 	0.0061	0.2315	0.5611	0.052
Mof_H 	H 	0.9044	0.8074	0.5692	0.129
Mof_H 	H 	0.6591	0.7989	0.5423	0.021
Mof_H 	H 	0.7786	0.5066	0.6236	0.023
Mof_H 	H 	0.9027	0.3333	0.4931	0.01
Mof_H 	H 	0.4574	0.2766	0.1256	0.138
Mof_H 	H 	0.4027	0.8333	0.7709	0.01
Mof_H 	H 	0.0532	0.0728	0.5398	0.064
Mof_H 	H 	0.737	0.552	0.5686	0.149
Mof_H 	H 	0.4934	0.2214	0.9088	0.024
Mof_H 	H 	0.6667	0.0973	0.7291	0.01
Mof_H 	H 	0.9314	0.948	0.763	0.149
Mof_H 	H 	0.5427	0.7023	0.7497	0.014
Mof_H 	H 	0.9468	0.6658	0.9272	0.064
Mof_H 	H 	0.5686	0.552	0.1424	0.149
Mof_H 	H 	0.3516	0.9476	0.8884	0.144
Mof_H 	H 	0.0034	0.6688	0.2254	0.14
Mof_H 	H 	0.0956	0.1926	0.4308	0.129
Mof_H 	H 	0.8262	0.4458	0.6888	0.037
Mof_H 	H 	0.7295	0.9605	0.6235	0.132
Mof_H 	H 	0.6024	0.5034	0.1688	0.14
Mof_H 	H 	0.8764	0.7214	0.4088	0.023
Mof_H 	H 	0.7234	0.8744	0.5426	0.138
Mof_H 	H 	0.4997	0.0423	0.1591	0.021
Mof_H 	H 	0.6236	0.5066	0.0912	0.024
Mof_H 	H 	0.0069	0.2291	0.1667	0.01
Mof_H 	H 	0.5542	0.9608	0.3112	0.037
Mof_H 	H 	0.4947	0.9573	0.7977	0.014
Mof_H 	H 	0.9308	0.6926	0.5956	0.128
Mof_H 	H 	0.8764	0.9934	0.7214	0.024
Mof_H 	H 	0.6865	0.6235	0.9605	0.132
Mof_H 	H 	0.0692	0.219	0.3074	0.128
Mof_H 	H 	0.5973	0.1667	0.2291	0.01
Mof_H 	H 	0.0066	0.2786	0.1236	0.024
Mof_H 	H 	0.2977	0.2503	0.4573	0.014
Mof_H 	H 	0.2013	0.2315	0.0061	0.051
Mof_H 	H 	0.7214	0.4088	0.8764	0.023
Mof_H 	H 	0.2254	0.1024	0.0034	0.14
Mof_H 	H 	0.5728	0.0398	0.8342	0.063
Mof_H 	H 	0.7977	0.9573	0.7503	0.014
Mof_H 	H 	0.8884	0.8124	0.3516	0.144
Mof_H 	H 	0.8765	0.8135	0.5395	0.132
Mof_H 	H 	0.237	0.0686	0.052	0.149
Mof_H 	H 	0.4608	0.0542	0.8112	0.037
Mof_H 	H 	0.263	0.448	0.4314	0.149
Mof_H 	H 	0.5973	0.0069	0.1667	0.01
Mof_H 	H 	0.5034	0.6024	0.7254	0.14
Mof_H 	H 	0.8342	0.0398	0.5532	0.063
Mof_H 	H 	0.0524	0.6484	0.1876	0.144
Mof_H 	H 	0.8884	0.3516	0.9476	0.144
Mof_H 	H 	0.719	0.8074	0.9044	0.129
Mof_H 	H 	0.7295	0.6235	0.6865	0.132
Mof_H 	H 	0.7254	0.5034	0.6024	0.14
Mof_H 	H 	0.1235	0.4605	0.2295	0.132
Mof_H 	H 	0.3112	0.9608	0.1738	0.038
Mof_H 	H 	0.0053	0.7497	0.7023	0.014
Mof_H 	H 	0.7013	0.0611	0.5061	0.052
Mof_H 	H 	0.2295	0.4605	0.1865	0.132
Mof_C 	C 	0.03698	0.59664	0.88254	0.289
Mof_C 	C 	0.61746	0.90336	0.46302	0.289
Mof_C 	C 	0.81261	0.89439	0.84917	-0.036
Mof_C 	C 	0.90435	0.47401	0.25563	0.041
Mof_C 	C 	0.14564	0.19022	0.55576	0.011
Mof_C 	C 	0.58336	0.55934	0.81354	-0.048
Mof_C 	C 	0.47401	0.90435	0.36601	0.041
Mof_C 	C 	0.26504	0.50326	0.16978	0.037
Mof_C 	C 	0.65509	0.05207	0.49325	-0.007
Mof_C 	C 	0.14298	0.53418	0.7216	-0.421
Mof_C 	C 	0.63399	0.74437	0.52599	0.042
Mof_C 	C 	0.67258	0.76288	0.60548	-0.4
Mof_C 	C 	0.74789	0.44357	0.98001	-0.082
Mof_C 	C 	0.74102	0.05066	0.57228	-0.047
Mof_C 	C 	0.85702	0.46582	0.2784	-0.421
Mof_C 	C 	0.07228	0.55066	0.24102	-0.047
Mof_C 	C 	0.40066	0.41406	0.2341	0.005
Mof_C 	C 	0.24437	0.59565	0.13399	0.042
Mof_C 	C 	0.41406	0.2341	0.40066	0.005
Mof_C 	C 	0.04376	0.55934	0.58336	-0.048
Mof_C 	C 	0.55643	0.17147	0.01999	-0.081
Mof_C 	C 	0.59565	0.13399	0.24437	0.042
Mof_C 	C 	0.68646	0.94066	0.91664	-0.05
Mof_C 	C 	0.43808	0.99674	0.33022	0.036
Mof_C 	C 	0.65509	0.79959	0.05207	-0.007
Mof_C 	C 	0.09934	0.2659	0.08594	0.006
Mof_C 	C 	0.61746	0.46302	0.01616	0.289
Mof_C 	C 	0.25563	0.47401	0.36601	0.042
Mof_C 	C 	0.15083	0.10561	0.55617	-0.036
Mof_C 	C 	0.31261	0.94383	0.34917	-0.037
Mof_C 	C 	0.89439	0.81261	0.44383	-0.037
Mof_C 	C 	0.24437	0.02599	0.59565	0.041
Mof_C 	C 	0.89439	0.84917	0.81261	-0.036
Mof_C 	C 	0.92772	0.86396	0.44934	-0.048
Mof_C 	C 	0.94793	0.20041	0.50675	-0.007
Mof_C 	C 	0.44614	0.85608	0.93258	0.013
Mof_C 	C 	0.60548	0.76288	0.95906	-0.399
Mof_C 	C 	0.97401	0.40435	0.75563	0.041
Mof_C 	C 	0.64298	0.03418	0.10124	-0.422
Mof_C 	C 	0.99674	0.33022	0.43808	0.036
Mof_C 	C 	0.05643	0.75211	0.51999	-0.082
Mof_C 	C 	0.44424	0.89162	0.85436	0.011
Mof_C 	C 	0.48001	0.24789	0.32853	-0.082
Mof_C 	C 	0.04882	0.58594	0.59934	0.005
Mof_C 	C 	0.7784	0.96582	0.35702	-0.422
Mof_C 	C 	0.09664	0.53698	0.38254	0.289
Mof_C 	C 	0.85436	0.80978	0.44424	0.011
Mof_C 	C 	0.93808	0.49674	0.73496	0.037
Mof_C 	C 	0.60561	0.65083	0.05617	-0.037
Mof_C 	C 	0.09565	0.52599	0.74437	0.041
Mof_C 	C 	0.99325	0.29959	0.55207	-0.007
Mof_C 	C 	0.74102	0.57228	0.63604	-0.048
Mof_C 	C 	0.93808	0.83022	0.49674	0.037
Mof_C 	C 	0.18739	0.10561	0.15083	-0.036
Mof_C 	C 	0.05576	0.60838	0.69022	0.01
Mof_C 	C 	0.14298	0.7216	0.60124	-0.421
Mof_C 	C 	0.14392	0.06742	0.55386	0.013
Mof_C 	C 	0.35702	0.89876	0.7784	-0.422
Mof_C 	C 	0.16978	0.50326	0.06192	0.037
Mof_C 	C 	0.44934	0.75898	0.92772	-0.047
Mof_C 	C 	0.50326	0.26504	0.06192	0.037
Mof_C 	C 	0.16927	0.95533	0.38825	-0.067
Mof_C 	C 	0.01616	0.46302	0.90336	0.288
Mof_C 	C 	0.10124	0.64298	0.03418	-0.422
Mof_C 	C 	0.2652	0.35608	0.43258	0.013
Mof_C 	C 	0.38254	0.53698	0.98384	0.289
Mof_C 	C 	0.24789	0.48001	0.94357	-0.082
Mof_C 	C 	0.40336	0.51616	0.11746	0.289
Mof_C 	C 	0.36601	0.25563	0.47401	0.042
Mof_C 	C 	0.01285	0.33073	0.54467	-0.066
Mof_C 	C 	0.44793	0.70041	0.84491	-0.007
Mof_C 	C 	0.54882	0.2659	0.09934	0.005
Mof_C 	C 	0.52599	0.09565	0.63399	0.041
Mof_C 	C 	0.04467	0.61175	0.83073	-0.067
Mof_C 	C 	0.73496	0.49674	0.83022	0.037
Mof_C 	C 	0.11746	0.96302	0.40336	0.289
Mof_C 	C 	0.15509	0.99325	0.55207	-0.008
Mof_C 	C 	0.2348	0.55386	0.06742	0.013
Mof_C 	C 	0.34917	0.31261	0.94383	-0.037
Mof_C 	C 	0.10561	0.18739	0.55617	-0.037
Mof_C 	C 	0.04376	0.81354	0.55934	-0.048
Mof_C 	C 	0.94066	0.68646	0.45624	-0.049
Mof_C 	C 	0.08594	0.2659	0.54882	0.005
Mof_C 	C 	0.00675	0.84491	0.70041	-0.01
Mof_C 	C 	0.94424	0.39162	0.30978	0.01
Mof_C 	C 	0.60561	0.05617	0.68739	-0.037
Mof_C 	C 	0.73496	0.83022	0.93808	0.037
Mof_C 	C 	0.05066	0.57228	0.74102	-0.047
Mof_C 	C 	0.55066	0.07228	0.13604	-0.048
Mof_C 	C 	0.10561	0.15083	0.18739	-0.036
Mof_C 	C 	0.88254	0.03698	0.59664	0.289
Mof_C 	C 	0.54376	0.05934	0.31354	-0.049
Mof_C 	C 	0.91664	0.94066	0.45624	-0.049
Mof_C 	C 	0.24102	0.07228	0.55066	-0.047
Mof_C 	C 	0.15509	0.29959	0.99325	-0.01
Mof_C 	C 	0.83022	0.73496	0.49674	0.037
Mof_C 	C 	0.51999	0.67147	0.05643	-0.082
Mof_C 	C 	0.93258	0.85608	0.7652	0.012
Mof_C 	C 	0.25898	0.36396	0.94934	-0.047
Mof_C 	C 	0.59664	0.03698	0.48384	0.289
Mof_C 	C 	0.51616	0.11746	0.40336	0.289
Mof_C 	C 	0.00675	0.70041	0.44793	-0.007
Mof_C 	C 	0.55617	0.18739	0.15083	-0.037
Mof_C 	C 	0.75211	0.05643	0.67147	-0.082
Mof_C 	C 	0.36396	0.42772	0.94934	-0.047
Mof_C 	C 	0.42772	0.94934	0.36396	-0.047
Mof_C 	C 	0.2216	0.10124	0.03418	-0.422
Mof_C 	C 	0.41406	0.40066	0.95118	0.005
Mof_C 	C 	0.95906	0.67258	0.60548	-0.399
Mof_C 	C 	0.89452	0.73712	0.82742	-0.401
Mof_C 	C 	0.76504	0.66978	0.00326	0.034
Mof_C 	C 	0.18739	0.55617	0.10561	-0.037
Mof_C 	C 	0.94424	0.30978	0.35436	0.01
Mof_C 	C 	0.39162	0.30978	0.94424	0.01
Mof_C 	C 	0.26288	0.45906	0.17258	-0.4
Mof_C 	C 	0.20041	0.50675	0.94793	-0.007
Mof_C 	C 	0.38825	0.16927	0.95533	-0.067
Mof_C 	C 	0.81261	0.84917	0.44383	-0.037
Mof_C 	C 	0.89162	0.85436	0.44424	0.011
Mof_C 	C 	0.00326	0.66978	0.56192	0.036
Mof_C 	C 	0.40336	0.96302	0.51616	0.289
Mof_C 	C 	0.11746	0.51616	0.96302	0.289
Mof_C 	C 	0.59934	0.58594	0.7659	0.005
Mof_C 	C 	0.94934	0.36396	0.42772	-0.047
Mof_C 	C 	0.10548	0.17258	0.45906	-0.401
Mof_C 	C 	0.23712	0.32742	0.04094	-0.398
Mof_C 	C 	0.91406	0.7341	0.45118	0.005
Mof_C 	C 	0.2784	0.46582	0.39876	-0.422
Mof_C 	C 	0.11175	0.01285	0.54467	-0.065
Mof_C 	C 	0.11175	0.33073	0.01285	-0.064
Mof_C 	C 	0.94357	0.32853	0.24789	-0.082
Mof_C 	C 	0.89452	0.82742	0.54094	-0.401
Mof_C 	C 	0.69022	0.60838	0.64564	0.011
Mof_C 	C 	0.63604	0.05066	0.74102	-0.047
Mof_C 	C 	0.53698	0.38254	0.09664	0.289
Mof_C 	C 	0.58594	0.04882	0.7659	0.005
Mof_C 	C 	0.90435	0.36601	0.47401	0.041
Mof_C 	C 	0.45906	0.26288	0.10548	-0.4
Mof_C 	C 	0.83073	0.04467	0.61175	-0.067
Mof_C 	C 	0.96302	0.11746	0.51616	0.289
Mof_C 	C 	0.18739	0.15083	0.55617	-0.037
Mof_C 	C 	0.54467	0.11175	0.01285	-0.065
Mof_C 	C 	0.82742	0.73712	0.54094	-0.4
Mof_C 	C 	0.81354	0.58336	0.55934	-0.048
Mof_C 	C 	0.53418	0.14298	0.60124	-0.422
Mof_C 	C 	0.73712	0.89452	0.54094	-0.4
Mof_C 	C 	0.94383	0.39439	0.34917	-0.037
Mof_C 	C 	0.55576	0.14564	0.19022	0.011
Mof_C 	C 	0.09565	0.63399	0.52599	0.041
Mof_C 	C 	0.99325	0.15509	0.29959	-0.01
Mof_C 	C 	0.55386	0.2348	0.14392	0.013
Mof_C 	C 	0.84491	0.00675	0.44793	-0.008
Mof_C 	C 	0.45118	0.91406	0.7341	0.005
Mof_C 	C 	0.68646	0.45624	0.94066	-0.049
Mof_C 	C 	0.96582	0.35702	0.7784	-0.422
Mof_C 	C 	0.35608	0.94614	0.43258	0.013
Mof_C 	C 	0.32853	0.48001	0.24789	-0.082
Mof_C 	C 	0.55207	0.29959	0.15509	-0.007
Mof_C 	C 	0.90336	0.61746	0.01616	0.287
Mof_C 	C 	0.44066	0.41664	0.95624	-0.048
Mof_C 	C 	0.25211	0.55643	0.01999	-0.082
Mof_C 	C 	0.2216	0.03418	0.64298	-0.422
Mof_C 	C 	0.56742	0.7348	0.64392	0.013
Mof_C 	C 	0.82742	0.89452	0.73712	-0.401
Mof_C 	C 	0.44357	0.82853	0.98001	-0.081
Mof_C 	C 	0.11175	0.54467	0.33073	-0.067
Mof_C 	C 	0.82853	0.44357	0.74789	-0.082
Mof_C 	C 	0.92772	0.75898	0.86396	-0.048
Mof_C 	C 	0.61175	0.83073	0.04467	-0.067
Mof_C 	C 	0.00326	0.56192	0.76504	0.035
Mof_C 	C 	0.94614	0.35608	0.2652	0.013
Mof_C 	C 	0.55643	0.01999	0.25211	-0.082
Mof_C 	C 	0.64298	0.2216	0.03418	-0.422
Mof_C 	C 	0.48384	0.59664	0.03698	0.289
Mof_C 	C 	0.73712	0.54094	0.82742	-0.4
Mof_C 	C 	0.7652	0.85608	0.44614	0.013
Mof_C 	C 	0.39162	0.35436	0.30978	0.011
Mof_C 	C 	0.02599	0.59565	0.24437	0.041
Mof_C 	C 	0.06192	0.50326	0.26504	0.037
Mof_C 	C 	0.84917	0.89439	0.44383	-0.036
Mof_C 	C 	0.14392	0.2348	0.06742	0.012
Mof_C 	C 	0.09664	0.98384	0.53698	0.288
Mof_C 	C 	0.44383	0.89439	0.81261	-0.037
Mof_C 	C 	0.19022	0.55576	0.14564	0.011
Mof_C 	C 	0.38825	0.95533	0.48715	-0.067
Mof_C 	C 	0.95118	0.2341	0.41406	0.005
Mof_C 	C 	0.48001	0.32853	0.94357	-0.082
Mof_C 	C 	0.15509	0.55207	0.29959	-0.007
Mof_C 	C 	0.08336	0.54376	0.31354	-0.048
Mof_C 	C 	0.06742	0.55386	0.14392	0.013
Mof_C 	C 	0.88825	0.98715	0.45533	-0.065
Mof_C 	C 	0.54882	0.09934	0.08594	0.006
Mof_C 	C 	0.85702	0.39876	0.46582	-0.422
Mof_C 	C 	0.94357	0.48001	0.32853	-0.082
Mof_C 	C 	0.14392	0.55386	0.2348	0.013
Mof_C 	C 	0.7216	0.53418	0.60124	-0.422
Mof_C 	C 	0.69022	0.05576	0.60838	0.01
Mof_C 	C 	0.86601	0.75563	0.40435	0.042
Mof_C 	C 	0.7784	0.35702	0.89876	-0.422
Mof_C 	C 	0.67258	0.60548	0.95906	-0.399
Mof_C 	C 	0.35608	0.43258	0.2652	0.013
Mof_C 	C 	0.40435	0.75563	0.97401	0.041
Mof_C 	C 	0.7216	0.60124	0.14298	-0.421
Mof_C 	C 	0.23496	0.99674	0.43808	0.035
Mof_C 	C 	0.89876	0.96582	0.7784	-0.422
Mof_C 	C 	0.14564	0.55576	0.10838	0.011
Mof_C 	C 	0.82742	0.54094	0.89452	-0.401
Mof_C 	C 	0.91406	0.90066	0.7341	0.006
Mof_C 	C 	0.68739	0.65083	0.60561	-0.037
Mof_C 	C 	0.05066	0.63604	0.57228	-0.047
Mof_C 	C 	0.18646	0.44066	0.95624	-0.048
Mof_C 	C 	0.04094	0.39452	0.23712	-0.399
Mof_C 	C 	0.45624	0.94066	0.68646	-0.049
Mof_C 	C 	0.54094	0.89452	0.82742	-0.401
Mof_C 	C 	0.24789	0.32853	0.48001	-0.082
Mof_C 	C 	0.55386	0.14392	0.06742	0.013
Mof_C 	C 	0.53698	0.09664	0.98384	0.288
Mof_C 	C 	0.75563	0.97401	0.40435	0.041
Mof_C 	C 	0.66927	0.98715	0.88825	-0.064
Mof_C 	C 	0.99674	0.23496	0.33022	0.034
Mof_C 	C 	0.76504	0.56192	0.66978	0.037
Mof_C 	C 	0.16978	0.06192	0.26504	0.037
Mof_C 	C 	0.67147	0.51999	0.75211	-0.082
Mof_C 	C 	0.65509	0.49325	0.79959	-0.007
Mof_C 	C 	0.46582	0.85702	0.39876	-0.422
Mof_C 	C 	0.04882	0.7659	0.58594	0.005
Mof_C 	C 	0.60124	0.14298	0.7216	-0.421
Mof_C 	C 	0.56192	0.76504	0.00326	0.035
Mof_C 	C 	0.23712	0.04094	0.39452	-0.399
Mof_C 	C 	0.09934	0.08594	0.54882	0.006
Mof_C 	C 	0.15083	0.55617	0.18739	-0.037
Mof_C 	C 	0.36396	0.25898	0.42772	-0.048
Mof_C 	C 	0.32742	0.04094	0.23712	-0.398
Mof_C 	C 	0.79959	0.49325	0.05207	-0.007
Mof_C 	C 	0.44066	0.18646	0.41664	-0.048
Mof_C 	C 	0.57228	0.05066	0.63604	-0.047
Mof_C 	C 	0.46302	0.90336	0.01616	0.288
Mof_C 	C 	0.90435	0.25563	0.36601	0.041
Mof_C 	C 	0.33022	0.23496	0.43808	0.037
Mof_C 	C 	0.35702	0.7784	0.96582	-0.422
Mof_C 	C 	0.50675	0.34491	0.94793	-0.007
Mof_C 	C 	0.95533	0.48715	0.38825	-0.067
Mof_C 	C 	0.94793	0.50675	0.34491	-0.007
Mof_C 	C 	0.48001	0.94357	0.24789	-0.082
Mof_C 	C 	0.83022	0.93808	0.73496	0.037
Mof_C 	C 	0.26288	0.10548	0.45906	-0.4
Mof_C 	C 	0.30978	0.35436	0.94424	0.01
Mof_C 	C 	0.51285	0.04467	0.83073	-0.067
Mof_C 	C 	0.91406	0.45118	0.90066	0.006
Mof_C 	C 	0.74437	0.52599	0.63399	0.042
Mof_C 	C 	0.81261	0.44383	0.89439	-0.037
Mof_C 	C 	0.63604	0.74102	0.57228	-0.048
Mof_C 	C 	0.01616	0.61746	0.46302	0.289
Mof_C 	C 	0.02599	0.24437	0.13399	0.042
Mof_C 	C 	0.17147	0.25211	0.01999	-0.08
Mof_C 	C 	0.34491	0.20041	0.94793	-0.007
Mof_C 	C 	0.86396	0.44934	0.92772	-0.048
Mof_C 	C 	0.34491	0.50675	0.20041	-0.007
Mof_C 	C 	0.14564	0.10838	0.19022	0.01
Mof_C 	C 	0.10548	0.45906	0.26288	-0.4
Mof_C 	C 	0.61175	0.51285	0.83073	-0.067
Mof_C 	C 	0.13604	0.07228	0.24102	-0.048
Mof_C 	C 	0.19022	0.10838	0.55576	0.01
Mof_C 	C 	0.51285	0.83073	0.61175	-0.067
Mof_C 	C 	0.55617	0.15083	0.10561	-0.036
Mof_C 	C 	0.69022	0.64564	0.05576	0.01
Mof_C 	C 	0.14298	0.60124	0.53418	-0.422
Mof_C 	C 	0.39876	0.85702	0.2784	-0.421
Mof_C 	C 	0.7341	0.45118	0.91406	0.005
Mof_C 	C 	0.60548	0.67258	0.76288	-0.4
Mof_C 	C 	0.53418	0.60124	0.7216	-0.422
Mof_C 	C 	0.81354	0.55934	0.04376	-0.048
Mof_C 	C 	0.00326	0.76504	0.66978	0.034
Mof_C 	C 	0.24789	0.94357	0.32853	-0.082
Mof_C 	C 	0.79959	0.65509	0.49325	-0.007
Mof_C 	C 	0.05934	0.31354	0.54376	-0.049
Mof_C 	C 	0.32742	0.39452	0.04094	-0.399
Mof_C 	C 	0.61746	0.01616	0.90336	0.287
Mof_C 	C 	0.05617	0.68739	0.60561	-0.037
Mof_C 	C 	0.45906	0.10548	0.17258	-0.401
Mof_C 	C 	0.31261	0.39439	0.94383	-0.037
Mof_C 	C 	0.43808	0.33022	0.23496	0.037
Mof_C 	C 	0.86396	0.75898	0.44934	-0.048
Mof_C 	C 	0.45906	0.17258	0.26288	-0.4
Mof_C 	C 	0.44383	0.81261	0.84917	-0.037
Mof_C 	C 	0.09934	0.54882	0.2659	0.005
Mof_C 	C 	0.79959	0.05207	0.65509	-0.007
Mof_C 	C 	0.33022	0.43808	0.99674	0.036
Mof_C 	C 	0.44793	0.84491	0.00675	-0.008
Mof_C 	C 	0.39162	0.94424	0.35436	0.01
Mof_C 	C 	0.05934	0.54376	0.08336	-0.049
Mof_C 	C 	0.39439	0.31261	0.34917	-0.037
Mof_C 	C 	0.39876	0.46582	0.85702	-0.422
Mof_C 	C 	0.7348	0.64392	0.56742	0.013
Mof_C 	C 	0.59565	0.02599	0.13399	0.042
Mof_C 	C 	0.13604	0.24102	0.55066	-0.048
Mof_C 	C 	0.17147	0.01999	0.55643	-0.081
Mof_C 	C 	0.39439	0.34917	0.94383	-0.037
Mof_C 	C 	0.93258	0.44614	0.85608	0.013
Mof_C 	C 	0.82853	0.74789	0.98001	-0.08
Mof_C 	C 	0.17258	0.45906	0.10548	-0.401
Mof_C 	C 	0.36396	0.94934	0.25898	-0.047
Mof_C 	C 	0.89876	0.7784	0.35702	-0.422
Mof_C 	C 	0.13399	0.02599	0.24437	0.042
Mof_C 	C 	0.46302	0.01616	0.61746	0.289
Mof_C 	C 	0.73496	0.93808	0.49674	0.037
Mof_C 	C 	0.06742	0.14392	0.2348	0.012
Mof_C 	C 	0.74789	0.98001	0.82853	-0.08
Mof_C 	C 	0.52599	0.63399	0.74437	0.042
Mof_C 	C 	0.65083	0.05617	0.60561	-0.037
Mof_C 	C 	0.38825	0.48715	0.16927	-0.067
Mof_C 	C 	0.86601	0.97401	0.75563	0.042
Mof_C 	C 	0.95533	0.38825	0.16927	-0.067
Mof_C 	C 	0.99325	0.55207	0.15509	-0.008
Mof_C 	C 	0.25563	0.90435	0.47401	0.041
Mof_C 	C 	0.53418	0.7216	0.14298	-0.421
Mof_C 	C 	0.44934	0.86396	0.75898	-0.048
Mof_C 	C 	0.63399	0.09565	0.74437	0.041
Mof_C 	C 	0.94383	0.31261	0.39439	-0.037
Mof_C 	C 	0.05207	0.65509	0.79959	-0.007
Mof_C 	C 	0.53698	0.98384	0.38254	0.289
Mof_C 	C 	0.82853	0.98001	0.44357	-0.081
Mof_C 	C 	0.76504	0.00326	0.56192	0.035
Mof_C 	C 	0.64564	0.69022	0.60838	0.011
Mof_C 	C 	0.06742	0.2348	0.55386	0.013
Mof_C 	C 	0.90066	0.7341	0.91406	0.006
Mof_C 	C 	0.07228	0.13604	0.55066	-0.048
Mof_C 	C 	0.2348	0.14392	0.55386	0.013
Mof_C 	C 	0.49674	0.73496	0.93808	0.037
Mof_C 	C 	0.64564	0.60838	0.05576	0.01
Mof_C 	C 	0.76288	0.95906	0.60548	-0.399
Mof_C 	C 	0.16978	0.26504	0.50326	0.037
Mof_C 	C 	0.01999	0.55643	0.17147	-0.081
Mof_C 	C 	0.01285	0.54467	0.11175	-0.065
Mof_C 	C 	0.23712	0.39452	0.32742	-0.4
Mof_C 	C 	0.70041	0.84491	0.44793	-0.007
Mof_C 	C 	0.01999	0.17147	0.25211	-0.08
Mof_C 	C 	0.60124	0.7216	0.53418	-0.422
Mof_C 	C 	0.43808	0.23496	0.99674	0.035
Mof_C 	C 	0.90066	0.91406	0.45118	0.006
Mof_C 	C 	0.74789	0.82853	0.44357	-0.082
Mof_C 	C 	0.38254	0.09664	0.53698	0.289
Mof_C 	C 	0.42772	0.25898	0.94934	-0.047
Mof_C 	C 	0.56742	0.64392	0.05386	0.013
Mof_C 	C 	0.48715	0.16927	0.38825	-0.067
Mof_C 	C 	0.75211	0.67147	0.51999	-0.082
Mof_C 	C 	0.95118	0.41406	0.40066	0.005
Mof_C 	C 	0.68739	0.05617	0.65083	-0.037
Mof_C 	C 	0.44614	0.93258	0.7652	0.013
Mof_C 	C 	0.96302	0.51616	0.40336	0.289
Mof_C 	C 	0.08336	0.31354	0.05934	-0.05
Mof_C 	C 	0.54094	0.73712	0.89452	-0.4
Mof_C 	C 	0.05576	0.69022	0.64564	0.01
Mof_C 	C 	0.32742	0.23712	0.39452	-0.4
Mof_C 	C 	0.51285	0.61175	0.04467	-0.067
Mof_C 	C 	0.70041	0.00675	0.84491	-0.01
Mof_C 	C 	0.89439	0.44383	0.84917	-0.036
Mof_C 	C 	0.94614	0.43258	0.35608	0.013
Mof_C 	C 	0.46582	0.39876	0.2784	-0.422
Mof_C 	C 	0.44614	0.7652	0.85608	0.013
Mof_C 	C 	0.81354	0.04376	0.58336	-0.048
Mof_C 	C 	0.03698	0.88254	0.48384	0.289
Mof_C 	C 	0.2784	0.39876	0.85702	-0.421
Mof_C 	C 	0.93808	0.73496	0.83022	0.037
Mof_C 	C 	0.55066	0.13604	0.24102	-0.048
Mof_C 	C 	0.59565	0.24437	0.02599	0.041
Mof_C 	C 	0.75563	0.86601	0.97401	0.042
Mof_C 	C 	0.67147	0.75211	0.05643	-0.082
Mof_C 	C 	0.13604	0.55066	0.07228	-0.048
Mof_C 	C 	0.55066	0.24102	0.07228	-0.047
Mof_C 	C 	0.35436	0.39162	0.94424	0.01
Mof_C 	C 	0.00675	0.44793	0.84491	-0.008
Mof_C 	C 	0.45118	0.7341	0.90066	0.005
Mof_C 	C 	0.7652	0.44614	0.93258	0.013
Mof_C 	C 	0.80978	0.89162	0.44424	0.01
Mof_C 	C 	0.96582	0.89876	0.35702	-0.422
Mof_C 	C 	0.47401	0.36601	0.25563	0.042
Mof_C 	C 	0.44424	0.85436	0.80978	0.011
Mof_C 	C 	0.54376	0.31354	0.08336	-0.048
Mof_C 	C 	0.95906	0.76288	0.67258	-0.398
Mof_C 	C 	0.49674	0.93808	0.83022	0.037
Mof_C 	C 	0.89162	0.44424	0.80978	0.01
Mof_C 	C 	0.10548	0.26288	0.17258	-0.401
Mof_C 	C 	0.29959	0.55207	0.99325	-0.007
Mof_C 	C 	0.44934	0.92772	0.86396	-0.048
Mof_C 	C 	0.54467	0.33073	0.11175	-0.067
Mof_C 	C 	0.86601	0.40435	0.97401	0.042
Mof_C 	C 	0.74437	0.63399	0.09565	0.041
Mof_C 	C 	0.40435	0.86601	0.75563	0.042
Mof_C 	C 	0.32853	0.94357	0.48001	-0.082
Mof_C 	C 	0.97401	0.75563	0.86601	0.042
Mof_C 	C 	0.51999	0.75211	0.67147	-0.082
Mof_C 	C 	0.55386	0.06742	0.2348	0.013
Mof_C 	C 	0.39452	0.23712	0.04094	-0.399
Mof_C 	C 	0.44424	0.80978	0.89162	0.01
Mof_C 	C 	0.24102	0.55066	0.13604	-0.048
Mof_C 	C 	0.75563	0.40435	0.86601	0.042
Mof_C 	C 	0.33073	0.01285	0.11175	-0.064
Mof_C 	C 	0.66978	0.56192	0.00326	0.036
Mof_C 	C 	0.32853	0.24789	0.94357	-0.082
Mof_C 	C 	0.31354	0.05934	0.08336	-0.05
Mof_C 	C 	0.03418	0.10124	0.64298	-0.422
Mof_C 	C 	0.63399	0.52599	0.09565	0.041
Mof_C 	C 	0.04376	0.58336	0.81354	-0.048
Mof_C 	C 	0.95624	0.44066	0.41664	-0.048
Mof_C 	C 	0.05643	0.67147	0.75211	-0.082
Mof_C 	C 	0.60561	0.68739	0.65083	-0.037
Mof_C 	C 	0.33073	0.54467	0.01285	-0.066
Mof_C 	C 	0.04467	0.83073	0.51285	-0.067
Mof_C 	C 	0.05934	0.08336	0.31354	-0.05
Mof_C 	C 	0.94614	0.2652	0.43258	0.013
Mof_C 	C 	0.31354	0.08336	0.54376	-0.048
Mof_C 	C 	0.48715	0.95533	0.16927	-0.067
Mof_C 	C 	0.59664	0.48384	0.88254	0.289
Mof_C 	C 	0.84917	0.44383	0.81261	-0.037
Mof_C 	C 	0.85436	0.44424	0.89162	0.011
Mof_C 	C 	0.44383	0.84917	0.89439	-0.036
Mof_C 	C 	0.25898	0.94934	0.42772	-0.047
Mof_C 	C 	0.13399	0.59565	0.02599	0.042
Mof_C 	C 	0.83022	0.49674	0.93808	0.037
Mof_C 	C 	0.63604	0.57228	0.05066	-0.047
Mof_C 	C 	0.10124	0.2216	0.64298	-0.422
Mof_C 	C 	0.55934	0.04376	0.81354	-0.048
Mof_C 	C 	0.68739	0.60561	0.05617	-0.037
Mof_C 	C 	0.64392	0.05386	0.56742	0.013
Mof_C 	C 	0.60838	0.64564	0.69022	0.011
Mof_C 	C 	0.54094	0.82742	0.73712	-0.4
Mof_C 	C 	0.31261	0.34917	0.39439	-0.037
Mof_C 	C 	0.06192	0.16978	0.50326	0.037
Mof_C 	C 	0.84491	0.44793	0.70041	-0.007
Mof_C 	C 	0.74102	0.63604	0.05066	-0.047
Mof_C 	C 	0.75898	0.92772	0.44934	-0.047
Mof_C 	C 	0.74437	0.09565	0.52599	0.041
Mof_C 	C 	0.47401	0.25563	0.90435	0.041
Mof_C 	C 	0.7348	0.56742	0.05386	0.013
Mof_C 	C 	0.94793	0.34491	0.20041	-0.007
Mof_C 	C 	0.05066	0.74102	0.63604	-0.047
Mof_C 	C 	0.60838	0.69022	0.05576	0.01
Mof_C 	C 	0.43258	0.94614	0.2652	0.013
Mof_C 	C 	0.45533	0.88825	0.98715	-0.065
Mof_C 	C 	0.91664	0.68646	0.94066	-0.05
Mof_C 	C 	0.75898	0.44934	0.86396	-0.048
Mof_C 	C 	0.05576	0.64564	0.60838	0.01
Mof_C 	C 	0.11746	0.40336	0.51616	0.289
Mof_C 	C 	0.51616	0.40336	0.96302	0.289
Mof_C 	C 	0.20041	0.94793	0.34491	-0.007
Mof_C 	C 	0.36601	0.47401	0.90435	0.041
Mof_C 	C 	0.64298	0.10124	0.2216	-0.422
Mof_C 	C 	0.05386	0.64392	0.7348	0.013
Mof_C 	C 	0.57228	0.74102	0.05066	-0.047
Mof_C 	C 	0.98715	0.88825	0.66927	-0.064
Mof_C 	C 	0.66978	0.00326	0.76504	0.034
Mof_C 	C 	0.55576	0.19022	0.10838	0.01
Mof_C 	C 	0.30978	0.39162	0.35436	0.011
Mof_C 	C 	0.01616	0.90336	0.61746	0.287
Mof_C 	C 	0.31354	0.54376	0.05934	-0.049
Mof_C 	C 	0.18646	0.41664	0.44066	-0.048
Mof_C 	C 	0.89876	0.35702	0.96582	-0.422
Mof_C 	C 	0.30978	0.94424	0.39162	0.01
Mof_C 	C 	0.85608	0.93258	0.44614	0.013
Mof_C 	C 	0.75211	0.51999	0.05643	-0.082
Mof_C 	C 	0.08594	0.09934	0.2659	0.006
Mof_C 	C 	0.45533	0.66927	0.88825	-0.067
Mof_C 	C 	0.55576	0.10838	0.14564	0.011
Mof_C 	C 	0.58336	0.04376	0.55934	-0.048
Mof_C 	C 	0.91664	0.45624	0.68646	-0.048
Mof_C 	C 	0.2652	0.94614	0.35608	0.013
Mof_C 	C 	0.55207	0.99325	0.29959	-0.007
Mof_C 	C 	0.49325	0.65509	0.05207	-0.007
Mof_C 	C 	0.54467	0.01285	0.33073	-0.066
Mof_C 	C 	0.16927	0.38825	0.48715	-0.067
Mof_C 	C 	0.40066	0.95118	0.41406	0.005
Mof_C 	C 	0.98384	0.09664	0.38254	0.287
Mof_C 	C 	0.40435	0.97401	0.86601	0.042
Mof_C 	C 	0.88254	0.48384	0.03698	0.289
Mof_C 	C 	0.44793	0.00675	0.70041	-0.007
Mof_C 	C 	0.16927	0.48715	0.95533	-0.067
Mof_C 	C 	0.94934	0.25898	0.36396	-0.047
Mof_C 	C 	0.05617	0.60561	0.65083	-0.037
Mof_C 	C 	0.04094	0.32742	0.39452	-0.399
Mof_C 	C 	0.01999	0.25211	0.55643	-0.082
Mof_C 	C 	0.98715	0.66927	0.45533	-0.066
Mof_C 	C 	0.94066	0.91664	0.68646	-0.05
Mof_C 	C 	0.95906	0.60548	0.76288	-0.399
Mof_C 	C 	0.98001	0.74789	0.44357	-0.082
Mof_C 	C 	0.06192	0.26504	0.16978	0.037
Mof_C 	C 	0.99674	0.43808	0.23496	0.035
Mof_C 	C 	0.41664	0.44066	0.18646	-0.048
Mof_C 	C 	0.35436	0.94424	0.30978	0.01
Mof_C 	C 	0.95624	0.41664	0.18646	-0.048
Mof_C 	C 	0.09565	0.74437	0.63399	0.041
Mof_C 	C 	0.55643	0.25211	0.17147	-0.082
Mof_C 	C 	0.85608	0.7652	0.93258	0.012
Mof_C 	C 	0.98715	0.45533	0.88825	-0.065
Mof_C 	C 	0.39452	0.32742	0.23712	-0.4
Mof_C 	C 	0.56192	0.00326	0.66978	0.036
Mof_C 	C 	0.38254	0.98384	0.09664	0.287
Mof_C 	C 	0.26504	0.06192	0.50326	0.037
Mof_C 	C 	0.05207	0.49325	0.65509	-0.007
Mof_C 	C 	0.94934	0.42772	0.25898	-0.047
Mof_C 	C 	0.54376	0.08336	0.05934	-0.049
Mof_C 	C 	0.43258	0.35608	0.94614	0.013
Mof_C 	C 	0.04467	0.51285	0.61175	-0.067
Mof_C 	C 	0.40066	0.2341	0.95118	0.005
Mof_C 	C 	0.45624	0.68646	0.91664	-0.048
Mof_C 	C 	0.96582	0.7784	0.89876	-0.422
Mof_C 	C 	0.50326	0.06192	0.16978	0.037
Mof_C 	C 	0.58594	0.59934	0.04882	0.005
Mof_C 	C 	0.07228	0.24102	0.13604	-0.048
Mof_C 	C 	0.83073	0.51285	0.04467	-0.067
Mof_C 	C 	0.2348	0.06742	0.14392	0.012
Mof_C 	C 	0.50326	0.16978	0.26504	0.037
Mof_C 	C 	0.64392	0.7348	0.05386	0.013
Mof_C 	C 	0.05386	0.7348	0.56742	0.013
Mof_C 	C 	0.44357	0.74789	0.82853	-0.082
Mof_C 	C 	0.43258	0.2652	0.35608	0.013
Mof_C 	C 	0.98384	0.53698	0.09664	0.288
Mof_C 	C 	0.60838	0.05576	0.64564	0.01
Mof_C 	C 	0.64392	0.56742	0.7348	0.013
Mof_C 	C 	0.94424	0.35436	0.39162	0.01
Mof_C 	C 	0.52599	0.74437	0.09565	0.041
Mof_C 	C 	0.83073	0.61175	0.51285	-0.067
Mof_C 	C 	0.90336	0.46302	0.61746	0.289
Mof_C 	C 	0.24102	0.13604	0.07228	-0.048
Mof_C 	C 	0.7784	0.89876	0.96582	-0.422
Mof_C 	C 	0.73712	0.82742	0.89452	-0.401
Mof_C 	C 	0.29959	0.99325	0.15509	-0.01
Mof_C 	C 	0.19022	0.14564	0.10838	0.01
Mof_C 	C 	0.7216	0.14298	0.53418	-0.421
Mof_C 	C 	0.25898	0.42772	0.36396	-0.048
Mof_C 	C 	0.95533	0.16927	0.48715	-0.067
Mof_C 	C 	0.88825	0.45533	0.66927	-0.067
Mof_C 	C 	0.05207	0.79959	0.49325	-0.007
Mof_C 	C 	0.96302	0.40336	0.11746	0.289
Mof_C 	C 	0.7659	0.58594	0.04882	0.005
Mof_C 	C 	0.48384	0.88254	0.59664	0.289
Mof_C 	C 	0.50675	0.20041	0.34491	-0.007
Mof_C 	C 	0.56742	0.05386	0.7348	0.013
Mof_C 	C 	0.26288	0.17258	0.10548	-0.401
Mof_C 	C 	0.46582	0.2784	0.85702	-0.421
Mof_C 	C 	0.95624	0.18646	0.44066	-0.048
Mof_C 	C 	0.58336	0.81354	0.04376	-0.048
Mof_C 	C 	0.26504	0.16978	0.06192	0.037
Mof_C 	C 	0.35436	0.30978	0.39162	0.011
Mof_C 	C 	0.46302	0.61746	0.90336	0.289
Mof_C 	C 	0.03418	0.64298	0.2216	-0.422
Mof_C 	C 	0.08336	0.05934	0.54376	-0.049
Mof_C 	C 	0.2341	0.40066	0.41406	0.005
Mof_C 	C 	0.56192	0.66978	0.76504	0.037
Mof_C 	C 	0.57228	0.63604	0.74102	-0.048
Mof_C 	C 	0.89452	0.54094	0.73712	-0.4
Mof_C 	C 	0.51999	0.05643	0.75211	-0.082
Mof_C 	C 	0.55207	0.15509	0.99325	-0.008
Mof_C 	C 	0.45533	0.98715	0.66927	-0.066
Mof_C 	C 	0.2652	0.43258	0.94614	0.013
Mof_C 	C 	0.49325	0.79959	0.65509	-0.007
Mof_C 	C 	0.42772	0.36396	0.25898	-0.048
Mof_C 	C 	0.58594	0.7659	0.59934	0.005
Mof_C 	C 	0.88825	0.66927	0.98715	-0.064
Mof_C 	C 	0.25211	0.17147	0.55643	-0.082
Mof_C 	C 	0.23496	0.43808	0.33022	0.037
Mof_C 	C 	0.54882	0.08594	0.2659	0.005
Mof_C 	C 	0.10838	0.55576	0.19022	0.01
Mof_C 	C 	0.48715	0.38825	0.95533	-0.067
Mof_C 	C 	0.35702	0.96582	0.89876	-0.422
Mof_C 	C 	0.55617	0.10561	0.18739	-0.037
Mof_C 	C 	0.59934	0.04882	0.58594	0.005
Mof_C 	C 	0.33022	0.99674	0.23496	0.034
Mof_C 	C 	0.84917	0.81261	0.89439	-0.036
Mof_C 	C 	0.03698	0.48384	0.59664	0.289
Mof_C 	C 	0.61175	0.04467	0.51285	-0.067
Mof_C 	C 	0.25211	0.01999	0.17147	-0.08
Mof_C 	C 	0.04882	0.59934	0.7659	0.005
Mof_C 	C 	0.2341	0.41406	0.95118	0.005
Mof_C 	C 	0.92772	0.44934	0.75898	-0.047
Mof_C 	C 	0.75898	0.86396	0.92772	-0.048
Mof_C 	C 	0.2659	0.08594	0.09934	0.006
Mof_C 	C 	0.49674	0.83022	0.73496	0.037
Mof_C 	C 	0.13399	0.24437	0.59565	0.042
Mof_C 	C 	0.33073	0.11175	0.54467	-0.067
Mof_C 	C 	0.17258	0.26288	0.45906	-0.4
Mof_C 	C 	0.49325	0.05207	0.79959	-0.007
Mof_C 	C 	0.94383	0.34917	0.31261	-0.037
Mof_C 	C 	0.29959	0.15509	0.55207	-0.007
Mof_C 	C 	0.55934	0.81354	0.58336	-0.048
Mof_C 	C 	0.64564	0.05576	0.69022	0.01
Mof_C 	C 	0.2784	0.85702	0.46582	-0.421
Mof_C 	C 	0.03418	0.2216	0.10124	-0.422
Mof_C 	C 	0.76288	0.60548	0.67258	-0.4
Mof_C 	C 	0.10838	0.19022	0.14564	0.01
Mof_C 	C 	0.05643	0.51999	0.67147	-0.082
Mof_C 	C 	0.94357	0.24789	0.48001	-0.082
Mof_C 	C 	0.2659	0.09934	0.54882	0.005
Mof_C 	C 	0.60124	0.53418	0.14298	-0.422
Mof_C 	C 	0.95118	0.40066	0.2341	0.005
Mof_C 	C 	0.51616	0.96302	0.11746	0.289
Mof_C 	C 	0.7348	0.05386	0.64392	0.013
Mof_C 	C 	0.40336	0.11746	0.96302	0.289
Mof_C 	C 	0.39452	0.04094	0.32742	-0.399
Mof_C 	C 	0.39439	0.94383	0.31261	-0.037
Mof_C 	C 	0.34491	0.94793	0.50675	-0.007
Mof_C 	C 	0.2659	0.54882	0.08594	0.005
Mof_C 	C 	0.2341	0.95118	0.40066	0.005
Mof_C 	C 	0.98001	0.82853	0.74789	-0.08
Mof_C 	C 	0.97401	0.86601	0.40435	0.042
Mof_C 	C 	0.02599	0.13399	0.59565	0.042
Mof_C 	C 	0.7659	0.04882	0.59934	0.005
Mof_C 	C 	0.34917	0.39439	0.31261	-0.037
Mof_C 	C 	0.44357	0.98001	0.74789	-0.082
Mof_C 	C 	0.45624	0.91664	0.94066	-0.049
Mof_C 	C 	0.23496	0.33022	0.99674	0.034
Mof_C 	C 	0.41664	0.95624	0.44066	-0.048
Mof_C 	C 	0.2216	0.64298	0.10124	-0.422
Mof_C 	C 	0.67258	0.95906	0.76288	-0.398
Mof_C 	C 	0.59934	0.7659	0.04882	0.005
Mof_C 	C 	0.50675	0.94793	0.20041	-0.007
Mof_C 	C 	0.70041	0.44793	0.00675	-0.007
Mof_C 	C 	0.05386	0.56742	0.64392	0.013
Mof_C 	C 	0.7341	0.91406	0.90066	0.006
Mof_C 	C 	0.18646	0.95624	0.41664	-0.048
Mof_C 	C 	0.04094	0.23712	0.32742	-0.398
Mof_C 	C 	0.89162	0.80978	0.85436	0.01
Mof_C 	C 	0.01285	0.11175	0.33073	-0.064
Mof_C 	C 	0.88254	0.59664	0.48384	0.289
Mof_C 	C 	0.65083	0.60561	0.68739	-0.037
Mof_C 	C 	0.76288	0.67258	0.95906	-0.398
Mof_C 	C 	0.55934	0.58336	0.04376	-0.048
Mof_C 	C 	0.15083	0.18739	0.10561	-0.036
Mof_C 	C 	0.05617	0.65083	0.68739	-0.037
Mof_C 	C 	0.24437	0.13399	0.02599	0.042
Mof_C 	C 	0.45118	0.90066	0.91406	0.006
Mof_C 	C 	0.09664	0.38254	0.98384	0.287
Mof_C 	C 	0.80978	0.85436	0.89162	0.01
Mof_C 	C 	0.41664	0.18646	0.95624	-0.048
Mof_C 	C 	0.98001	0.44357	0.82853	-0.081
Mof_C 	C 	0.86396	0.92772	0.75898	-0.048
Mof_C 	C 	0.60548	0.95906	0.67258	-0.399
Mof_C 	C 	0.7659	0.59934	0.58594	0.005
Mof_C 	C 	0.94066	0.45624	0.91664	-0.049
Mof_C 	C 	0.66978	0.76504	0.56192	0.037
Mof_C 	C 	0.80978	0.44424	0.85436	0.011
Mof_C 	C 	0.10561	0.55617	0.15083	-0.036
Mof_C 	C 	0.10124	0.03418	0.2216	-0.422
Mof_C 	C 	0.85702	0.2784	0.39876	-0.421
Mof_C 	C 	0.17258	0.10548	0.26288	-0.401
Mof_C 	C 	0.67147	0.05643	0.51999	-0.082
Mof_C 	C 	0.36601	0.90435	0.25563	0.041
Mof_C 	C 	0.41406	0.95118	0.2341	0.005
Mof_C 	C 	0.17147	0.55643	0.25211	-0.082
Mof_C 	C 	0.65083	0.68739	0.05617	-0.037
Mof_C 	C 	0.39876	0.2784	0.46582	-0.422
Mof_C 	C 	0.35608	0.2652	0.94614	0.013
Mof_C 	C 	0.20041	0.34491	0.50675	-0.007
Mof_C 	C 	0.7341	0.90066	0.45118	0.005
Mof_C 	C 	0.98384	0.38254	0.53698	0.289
Mof_C 	C 	0.90336	0.01616	0.46302	0.288
Mof_C 	C 	0.93258	0.7652	0.44614	0.013
Mof_C 	C 	0.25563	0.36601	0.90435	0.041
Mof_C 	C 	0.7652	0.93258	0.85608	0.012
Mof_C 	C 	0.85608	0.44614	0.7652	0.013
Mof_C 	C 	0.90066	0.45118	0.7341	0.005
Mof_C 	C 	0.85436	0.89162	0.80978	0.01
Mof_C 	C 	0.59664	0.88254	0.03698	0.289
Mof_C 	C 	0.68646	0.91664	0.45624	-0.048
Mof_C 	C 	0.48384	0.03698	0.88254	0.289
Mof_C 	C 	0.84491	0.70041	0.00675	-0.01
Mof_C 	C 	0.34917	0.94383	0.39439	-0.037
Mof_C 	C 	0.44066	0.95624	0.18646	-0.048
Mof_C 	C 	0.08594	0.54882	0.09934	0.006
Mof_C 	C 	0.66927	0.88825	0.45533	-0.067
Mof_C 	C 	0.66927	0.45533	0.98715	-0.066
Mof_C 	C 	0.10838	0.14564	0.55576	0.011
Mof_O 	O 	0.96958	0.4434	0.08924	-0.283
Mof_O 	O 	0.44311	0.89799	0.62409	-0.282
Mof_O 	O 	0.60201	0.46519	0.05689	-0.282
Mof_O 	O 	0.03042	0.50222	0.5566	-0.283
Mof_O 	O 	0.12409	0.53481	0.39799	-0.282
Mof_O 	O 	0.03481	0.89799	0.44311	-0.282
Mof_O 	O 	0.53042	0.0566	0.00222	-0.282
Mof_O 	O 	0.0566	0.53042	0.41076	-0.283
Mof_O 	O 	0.46519	0.60201	0.87591	-0.282
Mof_O 	O 	0.4434	0.08924	0.96958	-0.283
Mof_O 	O 	0.91076	0.5566	0.50222	-0.283
Mof_O 	O 	0.99778	0.46958	0.9434	-0.282
Mof_O 	O 	0.03042	0.5566	0.91076	-0.283
Mof_O 	O 	0.91076	0.03042	0.5566	-0.283
Mof_O 	O 	0.96519	0.55689	0.37591	-0.282
Mof_O 	O 	0.39799	0.12409	0.53481	-0.282
Mof_O 	O 	0.12409	0.39799	0.94311	-0.282
Mof_O 	O 	0.41076	0.00222	0.0566	-0.282
Mof_O 	O 	0.50222	0.5566	0.03042	-0.283
Mof_O 	O 	0.5566	0.03042	0.50222	-0.283
Mof_O 	O 	0.49778	0.96958	0.08924	-0.283
Mof_O 	O 	0.05689	0.46519	0.87591	-0.282
Mof_O 	O 	0.00222	0.53042	0.0566	-0.282
Mof_O 	O 	0.46958	0.99778	0.58924	-0.283
Mof_O 	O 	0.46519	0.87591	0.05689	-0.282
Mof_O 	O 	0.96958	0.49778	0.4434	-0.283
Mof_O 	O 	0.00222	0.41076	0.53042	-0.283
Mof_O 	O 	0.4434	0.49778	0.08924	-0.283
Mof_O 	O 	0.53481	0.12409	0.94311	-0.282
Mof_O 	O 	0.53481	0.39799	0.12409	-0.282
Mof_O 	O 	0.03481	0.44311	0.62409	-0.282
Mof_O 	O 	0.62409	0.03481	0.44311	-0.282
Mof_O 	O 	0.62409	0.44311	0.89799	-0.282
Mof_O 	O 	0.37591	0.10201	0.96519	-0.282
Mof_O 	O 	0.55689	0.96519	0.10201	-0.282
Mof_O 	O 	0.55689	0.10201	0.37591	-0.282
Mof_O 	O 	0.9434	0.58924	0.99778	-0.282
Mof_O 	O 	0.49778	0.08924	0.4434	-0.283
Mof_O 	O 	0.05689	0.60201	0.46519	-0.282
Mof_O 	O 	0.89799	0.03481	0.62409	-0.282
Mof_O 	O 	0.08924	0.49778	0.96958	-0.283
Mof_O 	O 	0.10201	0.96519	0.37591	-0.282
Mof_O 	O 	0.89799	0.62409	0.44311	-0.282
Mof_O 	O 	0.41076	0.53042	0.00222	-0.283
Mof_O 	O 	0.44311	0.62409	0.03481	-0.282
Mof_O 	O 	0.87591	0.46519	0.60201	-0.282
Mof_O 	O 	0.55689	0.37591	0.96519	-0.282
Mof_O 	O 	0.5566	0.91076	0.03042	-0.283
Mof_O 	O 	0.99778	0.58924	0.46958	-0.283
Mof_O 	O 	0.46519	0.05689	0.60201	-0.282
Mof_O 	O 	0.53042	0.41076	0.0566	-0.283
Mof_O 	O 	0.94311	0.12409	0.39799	-0.282
Mof_O 	O 	0.62409	0.89799	0.03481	-0.282
Mof_O 	O 	0.9434	0.46958	0.58924	-0.283
Mof_O 	O 	0.10201	0.55689	0.96519	-0.282
Mof_O 	O 	0.37591	0.96519	0.55689	-0.282
Mof_O 	O 	0.94311	0.53481	0.12409	-0.282
Mof_O 	O 	0.46958	0.58924	0.9434	-0.283
Mof_O 	O 	0.58924	0.46958	0.99778	-0.283
Mof_O 	O 	0.10201	0.37591	0.55689	-0.282
Mof_O 	O 	0.39799	0.53481	0.94311	-0.282
Mof_O 	O 	0.50222	0.03042	0.91076	-0.283
Mof_O 	O 	0.96519	0.37591	0.10201	-0.282
Mof_O 	O 	0.94311	0.39799	0.53481	-0.282
Mof_O 	O 	0.9434	0.99778	0.46958	-0.282
Mof_O 	O 	0.60201	0.05689	0.87591	-0.282
Mof_O 	O 	0.0566	0.41076	0.00222	-0.282
Mof_O 	O 	0.58924	0.9434	0.46958	-0.283
Mof_O 	O 	0.89799	0.44311	0.03481	-0.282
Mof_O 	O 	0.60201	0.87591	0.46519	-0.282
Mof_O 	O 	0.0566	0.00222	0.53042	-0.282
Mof_O 	O 	0.39799	0.94311	0.12409	-0.282
Mof_O 	O 	0.00222	0.0566	0.41076	-0.282
Mof_O 	O 	0.4434	0.96958	0.49778	-0.283
Mof_O 	O 	0.03042	0.91076	0.50222	-0.283
Mof_O 	O 	0.44311	0.03481	0.89799	-0.282
Mof_O 	O 	0.53481	0.94311	0.39799	-0.282
Mof_O 	O 	0.91076	0.50222	0.03042	-0.283
Mof_O 	O 	0.46958	0.9434	0.99778	-0.282
Mof_O 	O 	0.96519	0.10201	0.55689	-0.282
Mof_O 	O 	0.49778	0.4434	0.96958	-0.283
Mof_O 	O 	0.87591	0.05689	0.46519	-0.282
Mof_O 	O 	0.08924	0.4434	0.49778	-0.283
Mof_O 	O 	0.53042	0.00222	0.41076	-0.283
Mof_O 	O 	0.96958	0.08924	0.49778	-0.283
Mof_O 	O 	0.58924	0.99778	0.9434	-0.282
Mof_O 	O 	0.5566	0.50222	0.91076	-0.283
Mof_O 	O 	0.37591	0.55689	0.10201	-0.282
Mof_O 	O 	0.08924	0.96958	0.4434	-0.283
Mof_O 	O 	0.12409	0.94311	0.53481	-0.282
Mof_O 	O 	0.99778	0.9434	0.58924	-0.282
Mof_O 	O 	0.03481	0.62409	0.89799	-0.282
Mof_O 	O 	0.87591	0.60201	0.05689	-0.282
Mof_O 	O 	0.50222	0.91076	0.5566	-0.283
Mof_O 	O 	0.05689	0.87591	0.60201	-0.282
Mof_O 	O 	0.41076	0.0566	0.53042	-0.283
_end
