data_functionalizedCrystal
_audit_creation_method	'EQeq! by Chris Wilmer'
_symmetry_space_group_name_H-M	'P1'
_symmetry_Int_Tables_number	1
_symmetry_cell_setting	triclinic
loop_
_symmetry_equiv_pos_as_xyz
  x,y,z
_cell_length_a	24.25
_cell_length_b	24.25
_cell_length_c	15.232
_cell_angle_alpha	90
_cell_angle_beta	90
_cell_angle_gamma	90
loop_
_atom_site_label
_atom_site_type_symbol
_atom_site_fract_x
_atom_site_fract_y
_atom_site_fract_z
_atom_site_charge
Mof_O 	O 	0.44557	0.1475	0.0859	-0.677
Mof_O 	O 	0.39751	0.08398	0.1611	-0.839
Mof_C 	C 	0.40774	0.13222	0.1381	0.551
Mof_C 	C 	0.37113	0.17636	0.174	-0.179
Mof_C 	C 	0.30153	0.26027	0.2306	0.012
Mof_C 	C 	0.3832	0.23095	0.1538	-0.091
Mof_H 	H 	0.4153	0.2396	0.1206	0.09
Mof_C 	C 	0.3242	0.16373	0.2225	0.078
Mof_H 	H 	0.316	0.1264	0.2363	-0.063
Mof_C 	C 	0.3484	0.2729	0.1821	-0.101
Mof_C 	C 	0.2894	0.20568	0.2508	0.018
Mof_H 	H 	0.2574	0.197	0.2839	-0.028
Mof_O 	O 	0.3297	0.3658	0.1616	-0.243
Mof_O 	O 	0.4143	0.3395	0.1478	-0.059
Mof_N 	N 	0.3652	0.3301	0.1625	0.06
Mof_C 	C 	0.36846	0.22565	0.1276	0.081
Mof_H 	H 	0.3904	0.2307	0.0766	0.01
Mof_C 	C 	0.339	0.16901	0.2487	-0.045
Mof_H 	H 	0.3408	0.1353	0.2804	0.003
Mof_C 	C 	0.33365	0.2676	0.1559	0.153
Mof_C 	C 	0.3042	0.21096	0.277	-0.109
Mof_H 	H 	0.2822	0.2059	0.328	0.04
Mof_O 	O 	0.3128	0.3606	0.1403	0.17
Mof_O 	O 	0.3495	0.3185	0.0295	-0.085
Mof_N 	N 	0.3315	0.3196	0.1056	-0.059
Mof_O 	O 	0.55443	0.8525	0.0859	-0.662
Mof_O 	O 	0.60249	0.91602	0.1611	-0.703
Mof_C 	C 	0.59226	0.86778	0.1381	0.53
Mof_C 	C 	0.62887	0.82364	0.174	-0.13
Mof_C 	C 	0.69847	0.73973	0.2306	0.022
Mof_C 	C 	0.6168	0.76905	0.1538	-0.056
Mof_H 	H 	0.5847	0.7604	0.1206	0.081
Mof_C 	C 	0.6758	0.83627	0.2225	0.04
Mof_H 	H 	0.684	0.8736	0.2363	0.018
Mof_C 	C 	0.6516	0.7271	0.1821	-0.042
Mof_C 	C 	0.7106	0.79432	0.2508	-0.006
Mof_H 	H 	0.7426	0.803	0.2839	0.033
Mof_O 	O 	0.6703	0.6342	0.1616	-0.188
Mof_O 	O 	0.5857	0.6605	0.1478	-0.057
Mof_N 	N 	0.6348	0.6699	0.1625	0.042
Mof_C 	C 	0.63154	0.77435	0.1276	0.041
Mof_H 	H 	0.6096	0.7693	0.0766	0.029
Mof_C 	C 	0.661	0.83099	0.2487	-0.017
Mof_H 	H 	0.6592	0.8647	0.2804	0.039
Mof_C 	C 	0.66635	0.7324	0.1559	0.106
Mof_C 	C 	0.6958	0.78904	0.277	-0.069
Mof_H 	H 	0.7178	0.7941	0.328	0.058
Mof_O 	O 	0.6872	0.6394	0.1403	0.122
Mof_O 	O 	0.6505	0.6815	0.0295	-0.08
Mof_N 	N 	0.6685	0.6804	0.1056	-0.041
Mof_O 	O 	0.8525	0.44557	0.5859	-0.657
Mof_O 	O 	0.91602	0.39751	0.6611	-0.71
Mof_C 	C 	0.86778	0.40774	0.6381	0.529
Mof_C 	C 	0.82364	0.37113	0.674	-0.131
Mof_C 	C 	0.73973	0.30153	0.7306	0.015
Mof_C 	C 	0.76905	0.3832	0.6538	-0.075
Mof_H 	H 	0.7604	0.4153	0.6206	0.089
Mof_C 	C 	0.83627	0.3242	0.7225	0.054
Mof_H 	H 	0.8736	0.316	0.7363	-0.002
Mof_C 	C 	0.7271	0.3484	0.6821	-0.065
Mof_C 	C 	0.79432	0.2894	0.7508	0.012
Mof_H 	H 	0.803	0.2574	0.7839	0.006
Mof_O 	O 	0.6342	0.3297	0.6616	-0.216
Mof_O 	O 	0.6605	0.4143	0.6478	-0.054
Mof_N 	N 	0.6699	0.3652	0.6625	0.05
Mof_C 	C 	0.77435	0.36846	0.6276	0.055
Mof_H 	H 	0.7693	0.3904	0.5766	0.026
Mof_C 	C 	0.83099	0.339	0.7487	-0.037
Mof_H 	H 	0.8647	0.3408	0.7804	0.042
Mof_C 	C 	0.7324	0.33365	0.6559	0.129
Mof_C 	C 	0.78904	0.3042	0.777	-0.085
Mof_H 	H 	0.7941	0.2822	0.828	0.056
Mof_O 	O 	0.6394	0.3128	0.6403	0.146
Mof_O 	O 	0.6815	0.3495	0.5295	-0.046
Mof_N 	N 	0.6804	0.3315	0.6056	-0.056
Mof_O 	O 	0.1475	0.55443	0.5859	-0.669
Mof_O 	O 	0.08398	0.60249	0.6611	-0.825
Mof_C 	C 	0.13222	0.59226	0.6381	0.552
Mof_C 	C 	0.17636	0.62887	0.674	-0.169
Mof_C 	C 	0.26027	0.69847	0.7306	0.022
Mof_C 	C 	0.23095	0.6168	0.6538	-0.065
Mof_H 	H 	0.2396	0.5847	0.6206	0.084
Mof_C 	C 	0.16373	0.6758	0.7225	0.061
Mof_H 	H 	0.1264	0.684	0.7363	-0.038
Mof_C 	C 	0.2729	0.6516	0.6821	-0.063
Mof_C 	C 	0.20568	0.7106	0.7508	-0.002
Mof_H 	H 	0.197	0.7426	0.7839	0.004
Mof_O 	O 	0.3658	0.6703	0.6616	-0.173
Mof_O 	O 	0.3395	0.5857	0.6478	-0.054
Mof_N 	N 	0.3301	0.6348	0.6625	0.042
Mof_C 	C 	0.22565	0.63154	0.6276	0.057
Mof_H 	H 	0.2307	0.6096	0.5766	0.024
Mof_C 	C 	0.16901	0.661	0.7487	-0.022
Mof_H 	H 	0.1353	0.6592	0.7804	0.003
Mof_C 	C 	0.2676	0.66635	0.6559	0.12
Mof_C 	C 	0.21096	0.6958	0.777	-0.089
Mof_H 	H 	0.2059	0.7178	0.828	0.046
Mof_O 	O 	0.3606	0.6872	0.6403	0.112
Mof_O 	O 	0.3185	0.6505	0.5295	-0.045
Mof_N 	N 	0.3196	0.6685	0.6056	-0.048
Mof_O 	O 	0.55443	0.1475	0.9141	-0.662
Mof_O 	O 	0.60249	0.08398	0.8389	-0.822
Mof_C 	C 	0.59226	0.13222	0.8619	0.551
Mof_C 	C 	0.62887	0.17636	0.826	-0.166
Mof_C 	C 	0.69847	0.26027	0.7694	0.02
Mof_C 	C 	0.6168	0.23095	0.8462	-0.058
Mof_H 	H 	0.5847	0.2396	0.8794	0.081
Mof_C 	C 	0.6758	0.16373	0.7775	0.053
Mof_H 	H 	0.684	0.1264	0.7637	-0.034
Mof_C 	C 	0.6516	0.2729	0.8179	-0.049
Mof_C 	C 	0.7106	0.20568	0.7492	-0.008
Mof_H 	H 	0.7426	0.197	0.7161	0.005
Mof_O 	O 	0.6703	0.3658	0.8384	-0.154
Mof_O 	O 	0.5857	0.3395	0.8522	-0.052
Mof_N 	N 	0.6348	0.3301	0.8375	0.038
Mof_C 	C 	0.63154	0.22565	0.8724	0.047
Mof_H 	H 	0.6096	0.2307	0.9234	0.032
Mof_C 	C 	0.661	0.16901	0.7513	-0.016
Mof_H 	H 	0.6592	0.1353	0.7196	-0.001
Mof_C 	C 	0.66635	0.2676	0.8441	0.11
Mof_C 	C 	0.6958	0.21096	0.723	-0.082
Mof_H 	H 	0.7178	0.2059	0.672	0.041
Mof_O 	O 	0.6872	0.3606	0.8597	0.097
Mof_O 	O 	0.6505	0.3185	0.9705	-0.008
Mof_N 	N 	0.6685	0.3196	0.8944	-0.05
Mof_O 	O 	0.44557	0.8525	0.9141	-0.65
Mof_O 	O 	0.39751	0.91602	0.8389	-0.708
Mof_C 	C 	0.40774	0.86778	0.8619	0.528
Mof_C 	C 	0.37113	0.82364	0.826	-0.129
Mof_C 	C 	0.30153	0.73973	0.7694	0.013
Mof_C 	C 	0.3832	0.76905	0.8462	-0.068
Mof_H 	H 	0.4153	0.7604	0.8794	0.087
Mof_C 	C 	0.3242	0.83627	0.7775	0.048
Mof_H 	H 	0.316	0.8736	0.7637	0
Mof_C 	C 	0.3484	0.7271	0.8179	-0.052
Mof_C 	C 	0.2894	0.79432	0.7492	0.007
Mof_H 	H 	0.2574	0.803	0.7161	0.007
Mof_O 	O 	0.3297	0.6342	0.8384	-0.195
Mof_O 	O 	0.4143	0.6605	0.8522	-0.052
Mof_N 	N 	0.3652	0.6699	0.8375	0.045
Mof_C 	C 	0.36846	0.77435	0.8724	0.047
Mof_H 	H 	0.3904	0.7693	0.9234	0.033
Mof_C 	C 	0.339	0.83099	0.7513	-0.031
Mof_H 	H 	0.3408	0.8647	0.7196	0.038
Mof_C 	C 	0.33365	0.7324	0.8441	0.12
Mof_C 	C 	0.3042	0.78904	0.723	-0.078
Mof_H 	H 	0.2822	0.7941	0.672	0.051
Mof_O 	O 	0.3128	0.6394	0.8597	0.13
Mof_O 	O 	0.3495	0.6815	0.9705	-0.009
Mof_N 	N 	0.3315	0.6804	0.8944	-0.058
Mof_O 	O 	0.1475	0.44557	0.4141	-0.671
Mof_O 	O 	0.08398	0.39751	0.3389	-0.839
Mof_C 	C 	0.13222	0.40774	0.3619	0.552
Mof_C 	C 	0.17636	0.37113	0.326	-0.176
Mof_C 	C 	0.26027	0.30153	0.2694	0.012
Mof_C 	C 	0.23095	0.3832	0.3462	-0.084
Mof_H 	H 	0.2396	0.4153	0.3794	0.09
Mof_C 	C 	0.16373	0.3242	0.2775	0.073
Mof_H 	H 	0.1264	0.316	0.2637	-0.061
Mof_C 	C 	0.2729	0.3484	0.3179	-0.089
Mof_C 	C 	0.20568	0.2894	0.2492	0.013
Mof_H 	H 	0.197	0.2574	0.2161	-0.027
Mof_O 	O 	0.3658	0.3297	0.3384	-0.224
Mof_O 	O 	0.3395	0.4143	0.3522	-0.056
Mof_N 	N 	0.3301	0.3652	0.3375	0.056
Mof_C 	C 	0.22565	0.36846	0.3724	0.073
Mof_H 	H 	0.2307	0.3904	0.4234	0.016
Mof_C 	C 	0.16901	0.339	0.2513	-0.04
Mof_H 	H 	0.1353	0.3408	0.2196	-0
Mof_C 	C 	0.2676	0.33365	0.3441	0.145
Mof_C 	C 	0.21096	0.3042	0.223	-0.104
Mof_H 	H 	0.2059	0.2822	0.172	0.036
Mof_O 	O 	0.3606	0.3128	0.3597	0.155
Mof_O 	O 	0.3185	0.3495	0.4705	-0.049
Mof_N 	N 	0.3196	0.3315	0.3944	-0.061
Mof_O 	O 	0.8525	0.55443	0.4141	-0.656
Mof_O 	O 	0.91602	0.60249	0.3389	-0.702
Mof_C 	C 	0.86778	0.59226	0.3619	0.529
Mof_C 	C 	0.82364	0.62887	0.326	-0.127
Mof_C 	C 	0.73973	0.69847	0.2694	0.02
Mof_C 	C 	0.76905	0.6168	0.3462	-0.048
Mof_H 	H 	0.7604	0.5847	0.3794	0.079
Mof_C 	C 	0.83627	0.6758	0.2775	0.032
Mof_H 	H 	0.8736	0.684	0.2637	0.021
Mof_C 	C 	0.7271	0.6516	0.3179	-0.027
Mof_C 	C 	0.79432	0.7106	0.2492	-0.012
Mof_H 	H 	0.803	0.7426	0.2161	0.034
Mof_O 	O 	0.6342	0.6703	0.3384	-0.166
Mof_O 	O 	0.6605	0.5857	0.3522	-0.054
Mof_N 	N 	0.6699	0.6348	0.3375	0.036
Mof_C 	C 	0.77435	0.63154	0.3724	0.03
Mof_H 	H 	0.7693	0.6096	0.4234	0.037
Mof_C 	C 	0.83099	0.661	0.2513	-0.011
Mof_H 	H 	0.8647	0.6592	0.2196	0.034
Mof_C 	C 	0.7324	0.66635	0.3441	0.095
Mof_C 	C 	0.78904	0.6958	0.223	-0.061
Mof_H 	H 	0.7941	0.7178	0.172	0.052
Mof_O 	O 	0.6394	0.6872	0.3597	0.105
Mof_O 	O 	0.6815	0.6505	0.4705	-0.042
Mof_N 	N 	0.6804	0.6685	0.3944	-0.042
Mof_O 	O 	0.55443	0.8525	0.9141	-0.648
Mof_O 	O 	0.60249	0.91602	0.8389	-0.697
Mof_C 	C 	0.59226	0.86778	0.8619	0.528
Mof_C 	C 	0.62887	0.82364	0.826	-0.124
Mof_C 	C 	0.69847	0.73973	0.7694	0.021
Mof_C 	C 	0.6168	0.76905	0.8462	-0.046
Mof_H 	H 	0.5847	0.7604	0.8794	0.079
Mof_C 	C 	0.6758	0.83627	0.7775	0.031
Mof_H 	H 	0.684	0.8736	0.7637	0.024
Mof_C 	C 	0.6516	0.7271	0.8179	-0.021
Mof_C 	C 	0.7106	0.79432	0.7492	-0.012
Mof_H 	H 	0.7426	0.803	0.7161	0.036
Mof_O 	O 	0.6703	0.6342	0.8384	-0.147
Mof_O 	O 	0.5857	0.6605	0.8522	-0.051
Mof_N 	N 	0.6348	0.6699	0.8375	0.032
Mof_C 	C 	0.63154	0.77435	0.8724	0.027
Mof_H 	H 	0.6096	0.7693	0.9234	0.042
Mof_C 	C 	0.661	0.83099	0.7513	-0.01
Mof_H 	H 	0.6592	0.8647	0.7196	0.037
Mof_C 	C 	0.66635	0.7324	0.8441	0.091
Mof_C 	C 	0.6958	0.78904	0.723	-0.06
Mof_H 	H 	0.7178	0.7941	0.672	0.055
Mof_O 	O 	0.6872	0.6394	0.8597	0.09
Mof_O 	O 	0.6505	0.6815	0.9705	-0.005
Mof_N 	N 	0.6685	0.6804	0.8944	-0.045
Mof_O 	O 	0.44557	0.1475	0.9141	-0.663
Mof_O 	O 	0.39751	0.08398	0.8389	-0.832
Mof_C 	C 	0.40774	0.13222	0.8619	0.551
Mof_C 	C 	0.37113	0.17636	0.826	-0.172
Mof_C 	C 	0.30153	0.26027	0.7694	0.012
Mof_C 	C 	0.3832	0.23095	0.8462	-0.08
Mof_H 	H 	0.4153	0.2396	0.8794	0.089
Mof_C 	C 	0.3242	0.16373	0.7775	0.07
Mof_H 	H 	0.316	0.1264	0.7637	-0.057
Mof_C 	C 	0.3484	0.2729	0.8179	-0.08
Mof_C 	C 	0.2894	0.20568	0.7492	0.012
Mof_H 	H 	0.2574	0.197	0.7161	-0.024
Mof_O 	O 	0.3297	0.3658	0.8384	-0.202
Mof_O 	O 	0.4143	0.3395	0.8522	-0.053
Mof_N 	N 	0.3652	0.3301	0.8375	0.051
Mof_C 	C 	0.36846	0.22565	0.8724	0.067
Mof_H 	H 	0.3904	0.2307	0.9234	0.023
Mof_C 	C 	0.339	0.16901	0.7513	-0.038
Mof_H 	H 	0.3408	0.1353	0.7196	0
Mof_C 	C 	0.33365	0.2676	0.8441	0.138
Mof_C 	C 	0.3042	0.21096	0.723	-0.1
Mof_H 	H 	0.2822	0.2059	0.672	0.037
Mof_O 	O 	0.3128	0.3606	0.8597	0.138
Mof_O 	O 	0.3495	0.3185	0.9705	-0.011
Mof_N 	N 	0.3315	0.3196	0.8944	-0.063
Mof_O 	O 	0.1475	0.55443	0.4141	-0.67
Mof_O 	O 	0.08398	0.60249	0.3389	-0.828
Mof_C 	C 	0.13222	0.59226	0.3619	0.552
Mof_C 	C 	0.17636	0.62887	0.326	-0.17
Mof_C 	C 	0.26027	0.69847	0.2694	0.019
Mof_C 	C 	0.23095	0.6168	0.3462	-0.062
Mof_H 	H 	0.2396	0.5847	0.3794	0.082
Mof_C 	C 	0.16373	0.6758	0.2775	0.056
Mof_H 	H 	0.1264	0.684	0.2637	-0.037
Mof_C 	C 	0.2729	0.6516	0.3179	-0.057
Mof_C 	C 	0.20568	0.7106	0.2492	-0.006
Mof_H 	H 	0.197	0.7426	0.2161	0.003
Mof_O 	O 	0.3658	0.6703	0.3384	-0.174
Mof_O 	O 	0.3395	0.5857	0.3522	-0.055
Mof_N 	N 	0.3301	0.6348	0.3375	0.042
Mof_C 	C 	0.22565	0.63154	0.3724	0.052
Mof_H 	H 	0.2307	0.6096	0.4234	0.026
Mof_C 	C 	0.16901	0.661	0.2513	-0.018
Mof_H 	H 	0.1353	0.6592	0.2196	-0.002
Mof_C 	C 	0.2676	0.66635	0.3441	0.115
Mof_C 	C 	0.21096	0.6958	0.223	-0.085
Mof_H 	H 	0.2059	0.7178	0.172	0.039
Mof_O 	O 	0.3606	0.6872	0.3597	0.113
Mof_O 	O 	0.3185	0.6505	0.4705	-0.045
Mof_N 	N 	0.3196	0.6685	0.3944	-0.048
Mof_O 	O 	0.8525	0.44557	0.4141	-0.658
Mof_O 	O 	0.91602	0.39751	0.3389	-0.713
Mof_C 	C 	0.86778	0.40774	0.3619	0.528
Mof_C 	C 	0.82364	0.37113	0.326	-0.133
Mof_C 	C 	0.73973	0.30153	0.2694	0.013
Mof_C 	C 	0.76905	0.3832	0.3462	-0.071
Mof_H 	H 	0.7604	0.4153	0.3794	0.087
Mof_C 	C 	0.83627	0.3242	0.2775	0.05
Mof_H 	H 	0.8736	0.316	0.2637	-0.002
Mof_C 	C 	0.7271	0.3484	0.3179	-0.059
Mof_C 	C 	0.79432	0.2894	0.2492	0.007
Mof_H 	H 	0.803	0.2574	0.2161	0.005
Mof_O 	O 	0.6342	0.3297	0.3384	-0.216
Mof_O 	O 	0.6605	0.4143	0.3522	-0.055
Mof_N 	N 	0.6699	0.3652	0.3375	0.05
Mof_C 	C 	0.77435	0.36846	0.3724	0.051
Mof_H 	H 	0.7693	0.3904	0.4234	0.027
Mof_C 	C 	0.83099	0.339	0.2513	-0.033
Mof_H 	H 	0.8647	0.3408	0.2196	0.036
Mof_C 	C 	0.7324	0.33365	0.3441	0.124
Mof_C 	C 	0.78904	0.3042	0.223	-0.08
Mof_H 	H 	0.7941	0.2822	0.172	0.049
Mof_O 	O 	0.6394	0.3128	0.3597	0.147
Mof_O 	O 	0.6815	0.3495	0.4705	-0.046
Mof_N 	N 	0.6804	0.3315	0.3944	-0.056
Mof_O 	O 	0.44557	0.8525	0.0859	-0.663
Mof_O 	O 	0.39751	0.91602	0.1611	-0.714
Mof_C 	C 	0.40774	0.86778	0.1381	0.53
Mof_C 	C 	0.37113	0.82364	0.174	-0.136
Mof_C 	C 	0.30153	0.73973	0.2306	0.014
Mof_C 	C 	0.3832	0.76905	0.1538	-0.078
Mof_H 	H 	0.4153	0.7604	0.1206	0.089
Mof_C 	C 	0.3242	0.83627	0.2225	0.057
Mof_H 	H 	0.316	0.8736	0.2363	-0.005
Mof_C 	C 	0.3484	0.7271	0.1821	-0.073
Mof_C 	C 	0.2894	0.79432	0.2508	0.013
Mof_H 	H 	0.2574	0.803	0.2839	0.003
Mof_O 	O 	0.3297	0.6342	0.1616	-0.236
Mof_O 	O 	0.4143	0.6605	0.1478	-0.058
Mof_N 	N 	0.3652	0.6699	0.1625	0.055
Mof_C 	C 	0.36846	0.77435	0.1276	0.061
Mof_H 	H 	0.3904	0.7693	0.0766	0.02
Mof_C 	C 	0.339	0.83099	0.2487	-0.039
Mof_H 	H 	0.3408	0.8647	0.2804	0.04
Mof_C 	C 	0.33365	0.7324	0.1559	0.135
Mof_C 	C 	0.3042	0.78904	0.277	-0.087
Mof_H 	H 	0.2822	0.7941	0.328	0.054
Mof_O 	O 	0.3128	0.6394	0.1403	0.162
Mof_O 	O 	0.3495	0.6815	0.0295	-0.084
Mof_N 	N 	0.3315	0.6804	0.1056	-0.054
Mof_O 	O 	0.55443	0.1475	0.0859	-0.674
Mof_O 	O 	0.60249	0.08398	0.1611	-0.828
Mof_C 	C 	0.59226	0.13222	0.1381	0.553
Mof_C 	C 	0.62887	0.17636	0.174	-0.172
Mof_C 	C 	0.69847	0.26027	0.2306	0.021
Mof_C 	C 	0.6168	0.23095	0.1538	-0.068
Mof_H 	H 	0.5847	0.2396	0.1206	0.084
Mof_C 	C 	0.6758	0.16373	0.2225	0.062
Mof_H 	H 	0.684	0.1264	0.2363	-0.04
Mof_C 	C 	0.6516	0.2729	0.1821	-0.07
Mof_C 	C 	0.7106	0.20568	0.2508	-0.001
Mof_H 	H 	0.7426	0.197	0.2839	0.002
Mof_O 	O 	0.6703	0.3658	0.1616	-0.195
Mof_O 	O 	0.5857	0.3395	0.1478	-0.058
Mof_N 	N 	0.6348	0.3301	0.1625	0.047
Mof_C 	C 	0.63154	0.22565	0.1276	0.061
Mof_H 	H 	0.6096	0.2307	0.0766	0.019
Mof_C 	C 	0.661	0.16901	0.2487	-0.023
Mof_H 	H 	0.6592	0.1353	0.2804	0.002
Mof_C 	C 	0.66635	0.2676	0.1559	0.124
Mof_C 	C 	0.6958	0.21096	0.277	-0.091
Mof_H 	H 	0.7178	0.2059	0.328	0.044
Mof_O 	O 	0.6872	0.3606	0.1403	0.129
Mof_O 	O 	0.6505	0.3185	0.0295	-0.082
Mof_N 	N 	0.6685	0.3196	0.1056	-0.046
Mof_O 	O 	0.8525	0.55443	0.5859	-0.656
Mof_O 	O 	0.91602	0.60249	0.6611	-0.699
Mof_C 	C 	0.86778	0.59226	0.6381	0.529
Mof_C 	C 	0.82364	0.62887	0.674	-0.126
Mof_C 	C 	0.73973	0.69847	0.7306	0.023
Mof_C 	C 	0.76905	0.6168	0.6538	-0.052
Mof_H 	H 	0.7604	0.5847	0.6206	0.081
Mof_C 	C 	0.83627	0.6758	0.7225	0.037
Mof_H 	H 	0.8736	0.684	0.7363	0.021
Mof_C 	C 	0.7271	0.6516	0.6821	-0.032
Mof_C 	C 	0.79432	0.7106	0.7508	-0.008
Mof_H 	H 	0.803	0.7426	0.7839	0.035
Mof_O 	O 	0.6342	0.6703	0.6616	-0.166
Mof_O 	O 	0.6605	0.5857	0.6478	-0.053
Mof_N 	N 	0.6699	0.6348	0.6625	0.036
Mof_C 	C 	0.77435	0.63154	0.6276	0.035
Mof_H 	H 	0.7693	0.6096	0.5766	0.035
Mof_C 	C 	0.83099	0.661	0.7487	-0.015
Mof_H 	H 	0.8647	0.6592	0.7804	0.04
Mof_C 	C 	0.7324	0.66635	0.6559	0.1
Mof_C 	C 	0.78904	0.6958	0.777	-0.066
Mof_H 	H 	0.7941	0.7178	0.828	0.059
Mof_O 	O 	0.6394	0.6872	0.6403	0.104
Mof_O 	O 	0.6815	0.6505	0.5295	-0.042
Mof_N 	N 	0.6804	0.6685	0.6056	-0.043
Mof_O 	O 	0.1475	0.44557	0.5859	-0.671
Mof_O 	O 	0.08398	0.39751	0.6611	-0.836
Mof_C 	C 	0.13222	0.40774	0.6381	0.552
Mof_C 	C 	0.17636	0.37113	0.674	-0.175
Mof_C 	C 	0.26027	0.30153	0.7306	0.014
Mof_C 	C 	0.23095	0.3832	0.6538	-0.088
Mof_H 	H 	0.2396	0.4153	0.6206	0.092
Mof_C 	C 	0.16373	0.3242	0.7225	0.078
Mof_H 	H 	0.1264	0.316	0.7363	-0.061
Mof_C 	C 	0.2729	0.3484	0.6821	-0.095
Mof_C 	C 	0.20568	0.2894	0.7508	0.018
Mof_H 	H 	0.197	0.2574	0.7839	-0.026
Mof_O 	O 	0.3658	0.3297	0.6616	-0.224
Mof_O 	O 	0.3395	0.4143	0.6478	-0.055
Mof_N 	N 	0.3301	0.3652	0.6625	0.056
Mof_C 	C 	0.22565	0.36846	0.6276	0.077
Mof_H 	H 	0.2307	0.3904	0.5766	0.015
Mof_C 	C 	0.16901	0.339	0.7487	-0.044
Mof_H 	H 	0.1353	0.3408	0.7804	0.005
Mof_C 	C 	0.2676	0.33365	0.6559	0.15
Mof_C 	C 	0.21096	0.3042	0.777	-0.108
Mof_H 	H 	0.2059	0.2822	0.828	0.043
Mof_O 	O 	0.3606	0.3128	0.6403	0.154
Mof_O 	O 	0.3185	0.3495	0.5295	-0.049
Mof_N 	N 	0.3196	0.3315	0.6056	-0.062
Mof_Zr	Zr	0.5	0.10037	-0	3.212
Mof_Zr	Zr	0.5	0.89963	-0	3.211
Mof_Zr	Zr	0.89963	0.5	0.5	3.213
Mof_Zr	Zr	0.10037	0.5	0.5	3.214
Mof_Zr	Zr	0.42701	0	0.11592	3.145
Mof_Zr	Zr	0.57299	0	0.11592	3.147
Mof_Zr	Zr	4.26873e-33	0.42701	0.61592	3.145
Mof_Zr	Zr	-1.36764e-33	0.57299	0.61592	3.146
Mof_Zr	Zr	0.57299	-5.63638e-33	0.88408	3.148
Mof_Zr	Zr	0.42701	-5.63638e-33	0.88408	3.147
Mof_Zr	Zr	9.04542e-34	0.42701	0.38408	3.145
Mof_Zr	Zr	9.04542e-34	0.57299	0.38408	3.146
Mof_O 	O 	0.5	0.04916	0.117	-1.421
Mof_O 	O 	0.5	0.95084	0.117	-1.242
Mof_O 	O 	0.95084	0.5	0.617	-1.238
Mof_O 	O 	0.04916	0.5	0.617	-1.42
Mof_O 	O 	0.5	0.04916	0.883	-1.413
Mof_O 	O 	0.5	0.95084	0.883	-1.233
Mof_O 	O 	0.04916	0.5	0.383	-1.422
Mof_O 	O 	0.95084	0.5	0.383	-1.24
Mof_O 	O 	0.4263	0.04899	-0	-1.439
Mof_O 	O 	0.5737	0.95101	-0	-1.256
Mof_O 	O 	0.95101	0.4263	0.5	-1.25
Mof_O 	O 	0.04899	0.5737	0.5	-1.424
Mof_O 	O 	0.5737	0.04899	-0	-1.432
Mof_O 	O 	0.4263	0.95101	-0	-1.263
Mof_O 	O 	0.04899	0.4263	0.5	-1.432
Mof_O 	O 	0.95101	0.5737	0.5	-1.242
_end
