data_functionalizedCrystal
_audit_creation_method	'EQeq! by Chris Wilmer'
_symmetry_space_group_name_H-M	'P1'
_symmetry_Int_Tables_number	1
_symmetry_cell_setting	triclinic
loop_
_symmetry_equiv_pos_as_xyz
  x,y,z
_cell_length_a	22.4258
_cell_length_b	22.4258
_cell_length_c	10.919
_cell_angle_alpha	90
_cell_angle_beta	90
_cell_angle_gamma	120
loop_
_atom_site_label
_atom_site_type_symbol
_atom_site_fract_x
_atom_site_fract_y
_atom_site_fract_z
_atom_site_charge
Mof_C 	C 	0.4427	0.326	0.0799	0.3
Mof_C 	C 	0.4808	0.2899	0.1231	-0.052
Mof_C 	C 	0.4441	0.2225	0.1638	-0.009
Mof_H 	H 	0.3962	0.1993	0.1669	0.072
Mof_C 	C 	0.4816	0.1894	0.2011	-0.057
Mof_C 	C 	0.5505	0.2221	0.1851	-0.025
Mof_H 	H 	0.5741	0.1995	0.2079	0.064
Mof_C 	C 	0.5859	0.2849	0.1384	-0.018
Mof_C 	C 	0.5515	0.323	0.1125	-0.032
Mof_H 	H 	0.5763	0.369	0.0891	0.053
Mof_C 	C 	0.4408	0.1169	0.2461	0.298
Mof_C 	C 	0.6629	0.3215	0.111	0.118
Mof_C 	C 	0.7069	0.3915	0.1125	-0.204
Mof_H 	H 	0.6883	0.4199	0.1246	0.105
Mof_C 	C 	0.7715	0.4194	0.0983	0.132
Mof_H 	H 	0.7988	0.4672	0.0986	-0.005
Mof_C 	C 	0.8019	0.378	0.0819	-0.187
Mof_H 	H 	0.8493	0.397	0.0746	0.108
Mof_C 	C 	0.7576	0.3078	0.0774	0.117
Mof_C 	C 	0.7825	0.2585	0.05	-0.034
Mof_C 	C 	0.7538	0.1944	0.1054	-0.043
Mof_H 	H 	0.7187	0.182	0.1624	0.072
Mof_C 	C 	0.7766	0.1477	0.0774	-0.001
Mof_C 	C 	0.834	0.1679	0.0006	-0.165
Mof_H 	H 	0.8537	0.1402	0.9924	0.159
Mof_C 	C 	0.8603	0.2286	0.9382	0.048
Mof_C 	C 	0.8363	0.2769	0.9694	-0.013
Mof_H 	H 	0.8577	0.3205	0.9342	0.073
Mof_C 	C 	0.7482	0.0813	0.1494	0.296
Mof_C 	C 	0.9194	0.2515	0.8519	0.271
Mof_O 	O 	0.9493	0.3152	0.8198	-0.307
Mof_N 	N 	0.6893	0.2789	0.0978	-0.143
Mof_O 	O 	0.3759	0.2896	0.087	-0.351
Mof_O 	O 	0.4723	0.3845	0.0427	-0.271
Mof_O 	O 	0.376	0.0887	0.2465	-0.357
Mof_O 	O 	0.4714	0.086	0.2819	-0.264
Mof_O 	O 	0.687	0.0535	0.1832	-0.364
Mof_O 	O 	0.7867	0.0585	0.1802	-0.251
Mof_O 	O 	0.9352	0.2084	0.8182	-0.206
Mof_C 	C 	0.674	0.1167	0.41323	0.3
Mof_C 	C 	0.7101	0.1909	0.45643	-0.043
Mof_C 	C 	0.7775	0.2216	0.49713	-0.015
Mof_H 	H 	0.8007	0.1969	0.50023	0.082
Mof_C 	C 	0.8106	0.2922	0.53443	-0.04
Mof_C 	C 	0.7779	0.3284	0.51843	-0.032
Mof_H 	H 	0.8005	0.3746	0.54123	0.072
Mof_C 	C 	0.7151	0.301	0.47173	-0.007
Mof_C 	C 	0.677	0.2285	0.44583	-0.035
Mof_H 	H 	0.631	0.2073	0.42243	0.061
Mof_C 	C 	0.8831	0.3239	0.57943	0.29
Mof_C 	C 	0.6785	0.3414	0.44433	0.122
Mof_C 	C 	0.6085	0.3154	0.44583	-0.198
Mof_H 	H 	0.5801	0.2684	0.45793	0.108
Mof_C 	C 	0.5806	0.3521	0.43163	0.132
Mof_H 	H 	0.5328	0.3316	0.43193	-0
Mof_C 	C 	0.622	0.4239	0.41523	-0.179
Mof_H 	H 	0.603	0.4523	0.40793	0.109
Mof_C 	C 	0.6922	0.4498	0.41073	0.116
Mof_C 	C 	0.7415	0.524	0.38333	-0.006
Mof_C 	C 	0.8056	0.5594	0.43873	-0.026
Mof_H 	H 	0.818	0.5367	0.49573	0.07
Mof_C 	C 	0.8523	0.6289	0.41073	-0.035
Mof_C 	C 	0.8321	0.6661	0.33393	-0.008
Mof_H 	H 	0.8598	0.7135	0.32573	0.085
Mof_C 	C 	0.7714	0.6317	0.27153	-0.037
Mof_C 	C 	0.7231	0.5594	0.30273	-0.035
Mof_H 	H 	0.6795	0.5372	0.26753	0.064
Mof_C 	C 	0.9187	0.6669	0.48273	0.309
Mof_C 	C 	0.7485	0.6679	0.18523	0.296
Mof_O 	O 	0.6848	0.6341	0.15313	-0.348
Mof_N 	N 	0.7211	0.4104	0.43113	-0.137
Mof_O 	O 	0.7104	0.0863	0.42033	-0.349
Mof_O 	O 	0.6155	0.0878	0.37603	-0.27
Mof_O 	O 	0.9113	0.2873	0.57983	-0.318
Mof_O 	O 	0.914	0.3854	0.61523	-0.226
Mof_O 	O 	0.9465	0.6335	0.51653	-0.323
Mof_O 	O 	0.9415	0.7282	0.51353	-0.208
Mof_O 	O 	0.7916	0.7268	0.15153	-0.231
Mof_C 	C 	0.8833	0.5573	0.74657	0.291
Mof_C 	C 	0.8091	0.5192	0.78977	-0.025
Mof_C 	C 	0.7784	0.5559	0.83047	-0.022
Mof_H 	H 	0.8031	0.6038	0.83357	0.093
Mof_C 	C 	0.7078	0.5184	0.86777	-0.028
Mof_C 	C 	0.6716	0.4495	0.85177	-0.038
Mof_H 	H 	0.6254	0.4259	0.87457	0.081
Mof_C 	C 	0.699	0.4141	0.80507	0.004
Mof_C 	C 	0.7715	0.4485	0.77917	-0.041
Mof_H 	H 	0.7927	0.4237	0.75577	0.068
Mof_C 	C 	0.6761	0.5592	0.91277	0.29
Mof_C 	C 	0.6586	0.3371	0.77767	0.124
Mof_C 	C 	0.6846	0.2931	0.77917	-0.194
Mof_H 	H 	0.7316	0.3117	0.79127	0.112
Mof_C 	C 	0.6479	0.2285	0.76497	0.133
Mof_H 	H 	0.6684	0.2012	0.76527	0.001
Mof_C 	C 	0.5761	0.1981	0.74857	-0.175
Mof_H 	H 	0.5477	0.1507	0.74127	0.106
Mof_C 	C 	0.5502	0.2424	0.74407	0.119
Mof_C 	C 	0.476	0.2175	0.71667	-0.008
Mof_C 	C 	0.4406	0.2462	0.77207	-0.022
Mof_H 	H 	0.4633	0.2813	0.82907	0.075
Mof_C 	C 	0.3711	0.2234	0.74407	-0.044
Mof_C 	C 	0.3339	0.166	0.66727	-0.001
Mof_H 	H 	0.2865	0.1463	0.65907	0.069
Mof_C 	C 	0.3683	0.1397	0.60487	-0.047
Mof_C 	C 	0.4406	0.1637	0.63607	-0.031
Mof_H 	H 	0.4628	0.1423	0.60087	0.063
Mof_C 	C 	0.3331	0.2518	0.81607	0.316
Mof_C 	C 	0.3321	0.0806	0.51857	0.303
Mof_O 	O 	0.3659	0.0507	0.48647	-0.358
Mof_N 	N 	0.5896	0.3107	0.76447	-0.136
Mof_O 	O 	0.9137	0.6241	0.75367	-0.309
Mof_O 	O 	0.9122	0.5277	0.70937	-0.232
Mof_O 	O 	0.7127	0.624	0.91317	-0.318
Mof_O 	O 	0.6146	0.5286	0.94857	-0.226
Mof_O 	O 	0.3665	0.313	0.84987	-0.335
Mof_O 	O 	0.2718	0.2133	0.84687	-0.235
Mof_O 	O 	0.2732	0.0648	0.48487	-0.256
Mof_C 	C 	0.326	0.4427	0.9201	0.297
Mof_C 	C 	0.2899	0.4808	0.8769	-0.035
Mof_C 	C 	0.2225	0.4441	0.8362	-0.013
Mof_H 	H 	0.1993	0.3962	0.8331	0.081
Mof_C 	C 	0.1894	0.4816	0.7989	-0.045
Mof_C 	C 	0.2221	0.5505	0.8149	-0.028
Mof_H 	H 	0.1995	0.5741	0.7921	0.07
Mof_C 	C 	0.2849	0.5859	0.8616	-0.005
Mof_C 	C 	0.323	0.5515	0.8875	-0.035
Mof_H 	H 	0.369	0.5763	0.9109	0.069
Mof_C 	C 	0.1169	0.4408	0.7539	0.299
Mof_C 	C 	0.3215	0.6629	0.889	0.129
Mof_C 	C 	0.3915	0.7069	0.8875	-0.197
Mof_H 	H 	0.4199	0.6883	0.8754	0.114
Mof_C 	C 	0.4194	0.7715	0.9017	0.14
Mof_H 	H 	0.4672	0.7988	0.9014	0.01
Mof_C 	C 	0.378	0.8019	0.9181	-0.174
Mof_H 	H 	0.397	0.8493	0.9254	0.125
Mof_C 	C 	0.3078	0.7576	0.9226	0.122
Mof_C 	C 	0.2585	0.7825	0.95	0.015
Mof_C 	C 	0.1944	0.7538	0.8946	0.001
Mof_H 	H 	0.182	0.7187	0.8376	0.061
Mof_C 	C 	0.1477	0.7766	0.9226	-0.094
Mof_C 	C 	0.1679	0.834	0.9994	0.152
Mof_H 	H 	0.1402	0.8537	0.0076	-0.004
Mof_C 	C 	0.2286	0.8603	0.0618	-0.119
Mof_C 	C 	0.2769	0.8363	0.0306	-0.051
Mof_H 	H 	0.3205	0.8577	0.0658	0.066
Mof_C 	C 	0.0813	0.7482	0.8506	0.34
Mof_C 	C 	0.2515	0.9194	0.1481	0.323
Mof_O 	O 	0.3152	0.9493	0.1802	-0.327
Mof_N 	N 	0.2789	0.6893	0.9022	-0.136
Mof_O 	O 	0.2896	0.3759	0.913	-0.325
Mof_O 	O 	0.3845	0.4723	0.9573	-0.235
Mof_O 	O 	0.0887	0.376	0.7535	-0.35
Mof_O 	O 	0.086	0.4714	0.7181	-0.259
Mof_O 	O 	0.0535	0.687	0.8168	-0.364
Mof_O 	O 	0.0585	0.7867	0.8198	-0.244
Mof_O 	O 	0.2084	0.9352	0.1818	-0.233
Mof_C 	C 	0.1167	0.674	0.58677	0.3
Mof_C 	C 	0.1909	0.7101	0.54357	-0.044
Mof_C 	C 	0.2216	0.7775	0.50287	-0.015
Mof_H 	H 	0.1969	0.8007	0.49977	0.082
Mof_C 	C 	0.2922	0.8106	0.46557	-0.04
Mof_C 	C 	0.3284	0.7779	0.48157	-0.032
Mof_H 	H 	0.3746	0.8005	0.45877	0.073
Mof_C 	C 	0.301	0.7151	0.52827	-0.006
Mof_C 	C 	0.2285	0.677	0.55417	-0.035
Mof_H 	H 	0.2073	0.631	0.57757	0.061
Mof_C 	C 	0.3239	0.8831	0.42057	0.291
Mof_C 	C 	0.3414	0.6785	0.55567	0.122
Mof_C 	C 	0.3154	0.6085	0.55417	-0.198
Mof_H 	H 	0.2684	0.5801	0.54207	0.108
Mof_C 	C 	0.3521	0.5806	0.56837	0.132
Mof_H 	H 	0.3316	0.5328	0.56807	-0
Mof_C 	C 	0.4239	0.622	0.58477	-0.178
Mof_H 	H 	0.4523	0.603	0.59207	0.109
Mof_C 	C 	0.4498	0.6922	0.58927	0.116
Mof_C 	C 	0.524	0.7415	0.61667	-0.001
Mof_C 	C 	0.5594	0.8056	0.56127	-0.029
Mof_H 	H 	0.5367	0.818	0.50427	0.072
Mof_C 	C 	0.6289	0.8523	0.58927	-0.028
Mof_C 	C 	0.6661	0.8321	0.66607	-0.012
Mof_H 	H 	0.7135	0.8598	0.67427	0.092
Mof_C 	C 	0.6317	0.7714	0.72847	-0.025
Mof_C 	C 	0.5594	0.7231	0.69727	-0.038
Mof_H 	H 	0.5372	0.6795	0.73247	0.071
Mof_C 	C 	0.6669	0.9187	0.51727	0.31
Mof_C 	C 	0.6679	0.7485	0.81477	0.295
Mof_O 	O 	0.6341	0.6848	0.84687	-0.325
Mof_N 	N 	0.4104	0.7211	0.56887	-0.137
Mof_O 	O 	0.0863	0.7104	0.57967	-0.35
Mof_O 	O 	0.0878	0.6155	0.62397	-0.268
Mof_O 	O 	0.2873	0.9113	0.42017	-0.318
Mof_O 	O 	0.3854	0.914	0.38477	-0.227
Mof_O 	O 	0.6335	0.9465	0.48347	-0.32
Mof_O 	O 	0.7282	0.9415	0.48647	-0.208
Mof_O 	O 	0.7268	0.7916	0.84847	-0.206
Mof_C 	C 	0.5573	0.8833	0.25343	0.291
Mof_C 	C 	0.5192	0.8091	0.21023	-0.04
Mof_C 	C 	0.5559	0.7784	0.16953	-0.017
Mof_H 	H 	0.6038	0.8031	0.16643	0.083
Mof_C 	C 	0.5184	0.7078	0.13223	-0.051
Mof_C 	C 	0.4495	0.6716	0.14823	-0.03
Mof_H 	H 	0.4259	0.6254	0.12543	0.062
Mof_C 	C 	0.4141	0.699	0.19493	-0.013
Mof_C 	C 	0.4485	0.7715	0.22083	-0.039
Mof_H 	H 	0.4237	0.7927	0.24423	0.061
Mof_C 	C 	0.5592	0.6761	0.08723	0.294
Mof_C 	C 	0.3371	0.6586	0.22233	0.118
Mof_C 	C 	0.2931	0.6846	0.22083	-0.202
Mof_H 	H 	0.3117	0.7316	0.20873	0.104
Mof_C 	C 	0.2285	0.6479	0.23503	0.127
Mof_H 	H 	0.2012	0.6684	0.23473	-0.008
Mof_C 	C 	0.1981	0.5761	0.25143	-0.182
Mof_H 	H 	0.1507	0.5477	0.25873	0.098
Mof_C 	C 	0.2424	0.5502	0.25593	0.113
Mof_C 	C 	0.2175	0.476	0.28333	-0.018
Mof_C 	C 	0.2462	0.4406	0.22793	-0.018
Mof_H 	H 	0.2813	0.4633	0.17093	0.057
Mof_C 	C 	0.2234	0.3711	0.25593	-0.058
Mof_C 	C 	0.166	0.3339	0.33273	0.002
Mof_H 	H 	0.1463	0.2865	0.34093	0.064
Mof_C 	C 	0.1397	0.3683	0.39513	-0.053
Mof_C 	C 	0.1637	0.4406	0.36393	-0.03
Mof_H 	H 	0.1423	0.4628	0.39913	0.06
Mof_C 	C 	0.2518	0.3331	0.18393	0.319
Mof_C 	C 	0.0806	0.3321	0.48143	0.303
Mof_O 	O 	0.0507	0.3659	0.51353	-0.361
Mof_N 	N 	0.3107	0.5896	0.23553	-0.14
Mof_O 	O 	0.6241	0.9137	0.24633	-0.317
Mof_O 	O 	0.5277	0.9122	0.29063	-0.238
Mof_O 	O 	0.624	0.7127	0.08683	-0.345
Mof_O 	O 	0.5286	0.6146	0.05143	-0.262
Mof_O 	O 	0.313	0.3665	0.15013	-0.359
Mof_O 	O 	0.2133	0.2718	0.15313	-0.26
Mof_O 	O 	0.0648	0.2732	0.51513	-0.256
Mof_Cu	Cu	0.33696	-2.65406e-33	0.33333	0.927
Mof_Cu	Cu	8.05954e-18	0.33696	0.66667	0.928
Mof_Cu	Cu	0.66304	0.66304	-0	0.937
Mof_Cu	Cu	0.33679	0.33679	-0	0.941
Mof_Cu	Cu	0.66321	-2.65406e-33	0.33333	0.934
Mof_Cu	Cu	8.05954e-18	0.66321	0.66667	0.935
_end
