data_functionalizedCrystal
_audit_creation_method	'EQeq! by Chris Wilmer'
_symmetry_space_group_name_H-M	'P1'
_symmetry_Int_Tables_number	1
_symmetry_cell_setting	triclinic
loop_
_symmetry_equiv_pos_as_xyz
  x,y,z
_cell_length_a	19.8931
_cell_length_b	19.8931
_cell_length_c	19.8931
_cell_angle_alpha	90
_cell_angle_beta	90
_cell_angle_gamma	90
loop_
_atom_site_label
_atom_site_type_symbol
_atom_site_fract_x
_atom_site_fract_y
_atom_site_fract_z
_atom_site_charge
Mof_Ag	Ag	0.99703	0.99703	0.99703	0.572
Mof_Ag	Ag	0.50297	0.00297	0.49703	0.569
Mof_Ag	Ag	0.00297	0.49703	0.50297	0.569
Mof_Ag	Ag	0.49703	0.50297	0.00297	0.569
Mof_Ag	Ag	0.24703	0.74703	0.75297	0.569
Mof_Ag	Ag	0.25297	0.25297	0.25297	0.569
Mof_Ag	Ag	0.74703	0.75297	0.24703	0.569
Mof_Ag	Ag	0.75297	0.24703	0.74703	0.569
Mof_H 	H 	0.1028	0.1824	0.8379	0.233
Mof_H 	H 	0.0979	0.1812	0.9876	0.194
Mof_H 	H 	0.021	0.1993	0.9726	0.2
Mof_H 	H 	0.0393	0.1332	0.0147	0.174
Mof_H 	H 	0.0515	0.0679	0.711	0.319
Mof_H 	H 	0.1128	0.1193	0.7195	0.347
Mof_H 	H 	0.124	0.0408	0.7331	0.292
Mof_H 	H 	0.9811	0.9612	0.8474	0.049
Mof_H 	H 	0.0217	0.9693	0.7785	0.062
Mof_H 	H 	0.1532	0.9838	0.8568	0.046
Mof_H 	H 	0.9245	0.7509	0.8501	0.095
Mof_H 	H 	0.9566	0.8607	0.8286	0.049
Mof_H 	H 	0.3972	0.8176	0.3379	0.234
Mof_H 	H 	0.4021	0.8188	0.4876	0.194
Mof_H 	H 	0.479	0.8007	0.4726	0.2
Mof_H 	H 	0.4607	0.8668	0.5147	0.173
Mof_H 	H 	0.4485	0.9321	0.211	0.32
Mof_H 	H 	0.3872	0.8807	0.2195	0.347
Mof_H 	H 	0.376	0.9592	0.2331	0.292
Mof_H 	H 	0.5189	0.0388	0.3474	0.048
Mof_H 	H 	0.4783	0.0307	0.2785	0.061
Mof_H 	H 	0.3468	0.0162	0.3568	0.046
Mof_H 	H 	0.5755	0.2491	0.3501	0.095
Mof_H 	H 	0.5434	0.1393	0.3286	0.05
Mof_H 	H 	0.8972	0.6824	0.6621	0.234
Mof_H 	H 	0.9021	0.6812	0.5124	0.194
Mof_H 	H 	0.979	0.6993	0.5274	0.2
Mof_H 	H 	0.9607	0.6332	0.4853	0.173
Mof_H 	H 	0.9485	0.5679	0.789	0.321
Mof_H 	H 	0.8872	0.6193	0.7805	0.347
Mof_H 	H 	0.876	0.5408	0.7669	0.292
Mof_H 	H 	0.0189	0.4612	0.6526	0.047
Mof_H 	H 	0.9783	0.4693	0.7215	0.061
Mof_H 	H 	0.8468	0.4838	0.6432	0.046
Mof_H 	H 	0.0755	0.2509	0.6499	0.095
Mof_H 	H 	0.0434	0.3607	0.6714	0.05
Mof_H 	H 	0.6028	0.3176	0.1621	0.234
Mof_H 	H 	0.5979	0.3188	0.0124	0.194
Mof_H 	H 	0.521	0.3007	0.0274	0.2
Mof_H 	H 	0.5393	0.3668	0.9853	0.173
Mof_H 	H 	0.5515	0.4321	0.289	0.32
Mof_H 	H 	0.6128	0.3807	0.2805	0.347
Mof_H 	H 	0.624	0.4592	0.2669	0.292
Mof_H 	H 	0.4811	0.5388	0.1526	0.048
Mof_H 	H 	0.5217	0.5307	0.2215	0.061
Mof_H 	H 	0.6532	0.5162	0.1432	0.046
Mof_H 	H 	0.4245	0.7491	0.1499	0.095
Mof_H 	H 	0.4566	0.6393	0.1714	0.05
Mof_H 	H 	0.8379	0.1028	0.1824	0.234
Mof_H 	H 	0.9876	0.0979	0.1812	0.195
Mof_H 	H 	0.9726	0.021	0.1993	0.201
Mof_H 	H 	0.0147	0.0393	0.1332	0.175
Mof_H 	H 	0.711	0.0515	0.0679	0.32
Mof_H 	H 	0.7195	0.1128	0.1193	0.347
Mof_H 	H 	0.7331	0.124	0.0408	0.292
Mof_H 	H 	0.8474	0.9811	0.9612	0.049
Mof_H 	H 	0.7785	0.0217	0.9693	0.062
Mof_H 	H 	0.8568	0.1532	0.9838	0.046
Mof_H 	H 	0.8501	0.9245	0.7509	0.095
Mof_H 	H 	0.8286	0.9566	0.8607	0.049
Mof_H 	H 	0.3379	0.3972	0.8176	0.234
Mof_H 	H 	0.4876	0.4021	0.8188	0.194
Mof_H 	H 	0.4726	0.479	0.8007	0.2
Mof_H 	H 	0.5147	0.4607	0.8668	0.173
Mof_H 	H 	0.211	0.4485	0.9321	0.32
Mof_H 	H 	0.2195	0.3872	0.8807	0.347
Mof_H 	H 	0.2331	0.376	0.9592	0.292
Mof_H 	H 	0.3474	0.5189	0.0388	0.048
Mof_H 	H 	0.2785	0.4783	0.0307	0.061
Mof_H 	H 	0.3568	0.3468	0.0162	0.046
Mof_H 	H 	0.3501	0.5755	0.2491	0.095
Mof_H 	H 	0.3286	0.5434	0.1393	0.05
Mof_H 	H 	0.6621	0.8972	0.6824	0.234
Mof_H 	H 	0.5124	0.9021	0.6812	0.194
Mof_H 	H 	0.5274	0.979	0.6993	0.2
Mof_H 	H 	0.4853	0.9607	0.6332	0.173
Mof_H 	H 	0.789	0.9485	0.5679	0.321
Mof_H 	H 	0.7805	0.8872	0.6193	0.347
Mof_H 	H 	0.7669	0.876	0.5408	0.292
Mof_H 	H 	0.6526	0.0189	0.4612	0.047
Mof_H 	H 	0.7215	0.9783	0.4693	0.061
Mof_H 	H 	0.6432	0.8468	0.4838	0.046
Mof_H 	H 	0.6499	0.0755	0.2509	0.095
Mof_H 	H 	0.6714	0.0434	0.3607	0.05
Mof_H 	H 	0.1621	0.6028	0.3176	0.234
Mof_H 	H 	0.0124	0.5979	0.3188	0.194
Mof_H 	H 	0.0274	0.521	0.3007	0.2
Mof_H 	H 	0.9853	0.5393	0.3668	0.173
Mof_H 	H 	0.289	0.5515	0.4321	0.32
Mof_H 	H 	0.2805	0.6128	0.3807	0.347
Mof_H 	H 	0.2669	0.624	0.4592	0.292
Mof_H 	H 	0.1526	0.4811	0.5388	0.048
Mof_H 	H 	0.2215	0.5217	0.5307	0.061
Mof_H 	H 	0.1432	0.6532	0.5162	0.046
Mof_H 	H 	0.1499	0.4245	0.7491	0.095
Mof_H 	H 	0.1714	0.4566	0.6393	0.05
Mof_H 	H 	0.1824	0.8379	0.1028	0.234
Mof_H 	H 	0.1812	0.9876	0.0979	0.195
Mof_H 	H 	0.1993	0.9726	0.021	0.201
Mof_H 	H 	0.1332	0.0147	0.0393	0.175
Mof_H 	H 	0.0679	0.711	0.0515	0.32
Mof_H 	H 	0.1193	0.7195	0.1128	0.347
Mof_H 	H 	0.0408	0.7331	0.124	0.292
Mof_H 	H 	0.9612	0.8474	0.9811	0.049
Mof_H 	H 	0.9693	0.7785	0.0217	0.062
Mof_H 	H 	0.9838	0.8568	0.1532	0.046
Mof_H 	H 	0.7509	0.8501	0.9245	0.095
Mof_H 	H 	0.8607	0.8286	0.9566	0.049
Mof_H 	H 	0.8176	0.3379	0.3972	0.234
Mof_H 	H 	0.8188	0.4876	0.4021	0.194
Mof_H 	H 	0.8007	0.4726	0.479	0.2
Mof_H 	H 	0.8668	0.5147	0.4607	0.173
Mof_H 	H 	0.9321	0.211	0.4485	0.32
Mof_H 	H 	0.8807	0.2195	0.3872	0.347
Mof_H 	H 	0.9592	0.2331	0.376	0.292
Mof_H 	H 	0.0388	0.3474	0.5189	0.048
Mof_H 	H 	0.0307	0.2785	0.4783	0.061
Mof_H 	H 	0.0162	0.3568	0.3468	0.046
Mof_H 	H 	0.2491	0.3501	0.5755	0.095
Mof_H 	H 	0.1393	0.3286	0.5434	0.05
Mof_H 	H 	0.6824	0.6621	0.8972	0.234
Mof_H 	H 	0.6812	0.5124	0.9021	0.194
Mof_H 	H 	0.6993	0.5274	0.979	0.2
Mof_H 	H 	0.6332	0.4853	0.9607	0.173
Mof_H 	H 	0.5679	0.789	0.9485	0.321
Mof_H 	H 	0.6193	0.7805	0.8872	0.347
Mof_H 	H 	0.5408	0.7669	0.876	0.292
Mof_H 	H 	0.4612	0.6526	0.0189	0.047
Mof_H 	H 	0.4693	0.7215	0.9783	0.061
Mof_H 	H 	0.4838	0.6432	0.8468	0.046
Mof_H 	H 	0.2509	0.6499	0.0755	0.095
Mof_H 	H 	0.3607	0.6714	0.0434	0.05
Mof_H 	H 	0.3176	0.1621	0.6028	0.234
Mof_H 	H 	0.3188	0.0124	0.5979	0.194
Mof_H 	H 	0.3007	0.0274	0.521	0.2
Mof_H 	H 	0.3668	0.9853	0.5393	0.173
Mof_H 	H 	0.4321	0.289	0.5515	0.32
Mof_H 	H 	0.3807	0.2805	0.6128	0.347
Mof_H 	H 	0.4592	0.2669	0.624	0.292
Mof_H 	H 	0.5388	0.1526	0.4811	0.048
Mof_H 	H 	0.5307	0.2215	0.5217	0.061
Mof_H 	H 	0.5162	0.1432	0.6532	0.046
Mof_H 	H 	0.7491	0.1499	0.4245	0.095
Mof_H 	H 	0.6393	0.1714	0.4566	0.05
Mof_H 	H 	0.4324	0.8528	0.9121	0.234
Mof_H 	H 	0.4312	0.8479	0.7624	0.194
Mof_H 	H 	0.4493	0.771	0.7774	0.2
Mof_H 	H 	0.3832	0.7893	0.7353	0.173
Mof_H 	H 	0.3179	0.8015	0.039	0.32
Mof_H 	H 	0.3693	0.8628	0.0305	0.347
Mof_H 	H 	0.2908	0.874	0.0169	0.292
Mof_H 	H 	0.2112	0.7311	0.9026	0.048
Mof_H 	H 	0.2193	0.7717	0.9715	0.061
Mof_H 	H 	0.2338	0.9032	0.8932	0.046
Mof_H 	H 	0.0009	0.6745	0.8999	0.095
Mof_H 	H 	0.1107	0.7066	0.9214	0.05
Mof_H 	H 	0.0676	0.1472	0.4121	0.234
Mof_H 	H 	0.0688	0.1521	0.2624	0.194
Mof_H 	H 	0.0507	0.229	0.2774	0.2
Mof_H 	H 	0.1168	0.2107	0.2353	0.173
Mof_H 	H 	0.1821	0.1985	0.539	0.32
Mof_H 	H 	0.1307	0.1372	0.5305	0.347
Mof_H 	H 	0.2092	0.126	0.5169	0.292
Mof_H 	H 	0.2888	0.2689	0.4026	0.048
Mof_H 	H 	0.2807	0.2283	0.4715	0.061
Mof_H 	H 	0.2662	0.0968	0.3932	0.046
Mof_H 	H 	0.4991	0.3255	0.3999	0.095
Mof_H 	H 	0.3893	0.2934	0.4214	0.05
Mof_H 	H 	0.9324	0.6472	0.0879	0.234
Mof_H 	H 	0.9312	0.6521	0.2376	0.194
Mof_H 	H 	0.9493	0.729	0.2226	0.2
Mof_H 	H 	0.8832	0.7107	0.2647	0.173
Mof_H 	H 	0.8179	0.6985	0.961	0.32
Mof_H 	H 	0.8693	0.6372	0.9695	0.347
Mof_H 	H 	0.7908	0.626	0.9831	0.291
Mof_H 	H 	0.7112	0.7689	0.0974	0.048
Mof_H 	H 	0.7193	0.7283	0.0285	0.061
Mof_H 	H 	0.7338	0.5968	0.1068	0.046
Mof_H 	H 	0.5009	0.8255	0.1001	0.095
Mof_H 	H 	0.6107	0.7934	0.0786	0.05
Mof_H 	H 	0.5676	0.3528	0.5879	0.234
Mof_H 	H 	0.5688	0.3479	0.7376	0.194
Mof_H 	H 	0.5507	0.271	0.7226	0.2
Mof_H 	H 	0.6168	0.2893	0.7647	0.173
Mof_H 	H 	0.6821	0.3015	0.461	0.32
Mof_H 	H 	0.6307	0.3628	0.4695	0.347
Mof_H 	H 	0.7092	0.374	0.4831	0.292
Mof_H 	H 	0.7888	0.2311	0.5974	0.048
Mof_H 	H 	0.7807	0.2717	0.5285	0.061
Mof_H 	H 	0.7662	0.4032	0.6068	0.046
Mof_H 	H 	0.9991	0.1745	0.6001	0.095
Mof_H 	H 	0.8893	0.2066	0.5786	0.05
Mof_H 	H 	0.3528	0.5879	0.5676	0.234
Mof_H 	H 	0.3479	0.7376	0.5688	0.194
Mof_H 	H 	0.271	0.7226	0.5507	0.2
Mof_H 	H 	0.2893	0.7647	0.6168	0.173
Mof_H 	H 	0.3015	0.461	0.6821	0.32
Mof_H 	H 	0.3628	0.4695	0.6307	0.347
Mof_H 	H 	0.374	0.4831	0.7092	0.292
Mof_H 	H 	0.2311	0.5974	0.7888	0.048
Mof_H 	H 	0.2717	0.5285	0.7807	0.061
Mof_H 	H 	0.4032	0.6068	0.7662	0.046
Mof_H 	H 	0.1745	0.6001	0.9991	0.095
Mof_H 	H 	0.2066	0.5786	0.8893	0.05
Mof_H 	H 	0.6472	0.0879	0.9324	0.234
Mof_H 	H 	0.6521	0.2376	0.9312	0.194
Mof_H 	H 	0.729	0.2226	0.9493	0.2
Mof_H 	H 	0.7107	0.2647	0.8832	0.173
Mof_H 	H 	0.6985	0.961	0.8179	0.32
Mof_H 	H 	0.6372	0.9695	0.8693	0.347
Mof_H 	H 	0.626	0.9831	0.7908	0.291
Mof_H 	H 	0.7689	0.0974	0.7112	0.048
Mof_H 	H 	0.7283	0.0285	0.7193	0.061
Mof_H 	H 	0.5968	0.1068	0.7338	0.046
Mof_H 	H 	0.8255	0.1001	0.5009	0.095
Mof_H 	H 	0.7934	0.0786	0.6107	0.05
Mof_H 	H 	0.1472	0.4121	0.0676	0.234
Mof_H 	H 	0.1521	0.2624	0.0688	0.194
Mof_H 	H 	0.229	0.2774	0.0507	0.2
Mof_H 	H 	0.2107	0.2353	0.1168	0.173
Mof_H 	H 	0.1985	0.539	0.1821	0.32
Mof_H 	H 	0.1372	0.5305	0.1307	0.347
Mof_H 	H 	0.126	0.5169	0.2092	0.292
Mof_H 	H 	0.2689	0.4026	0.2888	0.048
Mof_H 	H 	0.2283	0.4715	0.2807	0.061
Mof_H 	H 	0.0968	0.3932	0.2662	0.046
Mof_H 	H 	0.3255	0.3999	0.4991	0.095
Mof_H 	H 	0.2934	0.4214	0.3893	0.05
Mof_H 	H 	0.8528	0.9121	0.4324	0.234
Mof_H 	H 	0.8479	0.7624	0.4312	0.194
Mof_H 	H 	0.771	0.7774	0.4493	0.2
Mof_H 	H 	0.7893	0.7353	0.3832	0.173
Mof_H 	H 	0.8015	0.039	0.3179	0.32
Mof_H 	H 	0.8628	0.0305	0.3693	0.347
Mof_H 	H 	0.874	0.0169	0.2908	0.292
Mof_H 	H 	0.7311	0.9026	0.2112	0.048
Mof_H 	H 	0.7717	0.9715	0.2193	0.061
Mof_H 	H 	0.9032	0.8932	0.2338	0.046
Mof_H 	H 	0.6745	0.8999	0.0009	0.095
Mof_H 	H 	0.7066	0.9214	0.1107	0.05
Mof_H 	H 	0.0879	0.9324	0.6472	0.234
Mof_H 	H 	0.2376	0.9312	0.6521	0.194
Mof_H 	H 	0.2226	0.9493	0.729	0.2
Mof_H 	H 	0.2647	0.8832	0.7107	0.173
Mof_H 	H 	0.961	0.8179	0.6985	0.32
Mof_H 	H 	0.9695	0.8693	0.6372	0.347
Mof_H 	H 	0.9831	0.7908	0.626	0.291
Mof_H 	H 	0.0974	0.7112	0.7689	0.048
Mof_H 	H 	0.0285	0.7193	0.7283	0.061
Mof_H 	H 	0.1068	0.7338	0.5968	0.046
Mof_H 	H 	0.1001	0.5009	0.8255	0.095
Mof_H 	H 	0.0786	0.6107	0.7934	0.05
Mof_H 	H 	0.5879	0.5676	0.3528	0.234
Mof_H 	H 	0.7376	0.5688	0.3479	0.194
Mof_H 	H 	0.7226	0.5507	0.271	0.2
Mof_H 	H 	0.7647	0.6168	0.2893	0.173
Mof_H 	H 	0.461	0.6821	0.3015	0.32
Mof_H 	H 	0.4695	0.6307	0.3628	0.347
Mof_H 	H 	0.4831	0.7092	0.374	0.292
Mof_H 	H 	0.5974	0.7888	0.2311	0.048
Mof_H 	H 	0.5285	0.7807	0.2717	0.061
Mof_H 	H 	0.6068	0.7662	0.4032	0.046
Mof_H 	H 	0.6001	0.9991	0.1745	0.095
Mof_H 	H 	0.5786	0.8893	0.2066	0.05
Mof_H 	H 	0.9121	0.4324	0.8528	0.234
Mof_H 	H 	0.7624	0.4312	0.8479	0.194
Mof_H 	H 	0.7774	0.4493	0.771	0.2
Mof_H 	H 	0.7353	0.3832	0.7893	0.173
Mof_H 	H 	0.039	0.3179	0.8015	0.32
Mof_H 	H 	0.0305	0.3693	0.8628	0.347
Mof_H 	H 	0.0169	0.2908	0.874	0.292
Mof_H 	H 	0.9026	0.2112	0.7311	0.048
Mof_H 	H 	0.9715	0.2193	0.7717	0.061
Mof_H 	H 	0.8932	0.2338	0.9032	0.046
Mof_H 	H 	0.8999	0.0009	0.6745	0.095
Mof_H 	H 	0.9214	0.1107	0.7066	0.05
Mof_H 	H 	0.4121	0.0676	0.1472	0.234
Mof_H 	H 	0.2624	0.0688	0.1521	0.194
Mof_H 	H 	0.2774	0.0507	0.229	0.2
Mof_H 	H 	0.2353	0.1168	0.2107	0.173
Mof_H 	H 	0.539	0.1821	0.1985	0.32
Mof_H 	H 	0.5305	0.1307	0.1372	0.347
Mof_H 	H 	0.5169	0.2092	0.126	0.292
Mof_H 	H 	0.4026	0.2888	0.2689	0.048
Mof_H 	H 	0.4715	0.2807	0.2283	0.061
Mof_H 	H 	0.3932	0.2662	0.0968	0.046
Mof_H 	H 	0.3999	0.4991	0.3255	0.095
Mof_H 	H 	0.4214	0.3893	0.2934	0.05
Mof_C 	C 	0.0565	0.1226	0.9138	0.32
Mof_C 	C 	0.0827	0.1407	0.8496	-0.46
Mof_C 	C 	0.0738	0.0881	0.8091	0.43
Mof_C 	C 	0.0534	0.1625	0.9777	-0.644
Mof_C 	C 	0.0921	0.0782	0.737	-0.884
Mof_C 	C 	0.0256	0.9721	0.8281	-0.083
Mof_C 	C 	0.0762	0.92	0.8518	0.017
Mof_C 	C 	0.14	0.9384	0.8636	-0.068
Mof_C 	C 	0.055	0.8524	0.8622	-0.006
Mof_C 	C 	0.9689	0.7651	0.8605	-0.045
Mof_C 	C 	0.9881	0.8301	0.8475	-0.05
Mof_C 	C 	0.4435	0.8774	0.4138	0.319
Mof_C 	C 	0.4173	0.8593	0.3496	-0.459
Mof_C 	C 	0.4262	0.9119	0.3091	0.43
Mof_C 	C 	0.4466	0.8375	0.4777	-0.641
Mof_C 	C 	0.4079	0.9218	0.237	-0.883
Mof_C 	C 	0.4744	0.0279	0.3281	-0.08
Mof_C 	C 	0.4238	0.08	0.3518	0.016
Mof_C 	C 	0.36	0.0616	0.3636	-0.067
Mof_C 	C 	0.445	0.1476	0.3622	-0.005
Mof_C 	C 	0.5311	0.2349	0.3605	-0.046
Mof_C 	C 	0.5119	0.1699	0.3475	-0.051
Mof_C 	C 	0.9435	0.6226	0.5862	0.319
Mof_C 	C 	0.9173	0.6407	0.6504	-0.459
Mof_C 	C 	0.9262	0.5881	0.6909	0.43
Mof_C 	C 	0.9466	0.6625	0.5223	-0.641
Mof_C 	C 	0.9079	0.5782	0.763	-0.884
Mof_C 	C 	0.9744	0.4721	0.6719	-0.08
Mof_C 	C 	0.9238	0.42	0.6482	0.016
Mof_C 	C 	0.86	0.4384	0.6364	-0.067
Mof_C 	C 	0.945	0.3524	0.6378	-0.005
Mof_C 	C 	0.0311	0.2651	0.6395	-0.045
Mof_C 	C 	0.0119	0.3301	0.6525	-0.051
Mof_C 	C 	0.5565	0.3774	0.0862	0.319
Mof_C 	C 	0.5827	0.3593	0.1504	-0.459
Mof_C 	C 	0.5738	0.4119	0.1909	0.43
Mof_C 	C 	0.5534	0.3375	0.0223	-0.641
Mof_C 	C 	0.5921	0.4218	0.263	-0.884
Mof_C 	C 	0.5256	0.5279	0.1719	-0.08
Mof_C 	C 	0.5762	0.58	0.1482	0.016
Mof_C 	C 	0.64	0.5616	0.1364	-0.067
Mof_C 	C 	0.555	0.6476	0.1378	-0.005
Mof_C 	C 	0.4689	0.7349	0.1395	-0.046
Mof_C 	C 	0.4881	0.6699	0.1525	-0.051
Mof_C 	C 	0.9138	0.0565	0.1226	0.32
Mof_C 	C 	0.8496	0.0827	0.1407	-0.46
Mof_C 	C 	0.8091	0.0738	0.0881	0.43
Mof_C 	C 	0.9777	0.0534	0.1625	-0.644
Mof_C 	C 	0.737	0.0921	0.0782	-0.884
Mof_C 	C 	0.8281	0.0256	0.9721	-0.083
Mof_C 	C 	0.8518	0.0762	0.92	0.017
Mof_C 	C 	0.8636	0.14	0.9384	-0.068
Mof_C 	C 	0.8622	0.055	0.8524	-0.006
Mof_C 	C 	0.8605	0.9689	0.7651	-0.045
Mof_C 	C 	0.8475	0.9881	0.8301	-0.05
Mof_C 	C 	0.4138	0.4435	0.8774	0.319
Mof_C 	C 	0.3496	0.4173	0.8593	-0.459
Mof_C 	C 	0.3091	0.4262	0.9119	0.43
Mof_C 	C 	0.4777	0.4466	0.8375	-0.641
Mof_C 	C 	0.237	0.4079	0.9218	-0.883
Mof_C 	C 	0.3281	0.4744	0.0279	-0.08
Mof_C 	C 	0.3518	0.4238	0.08	0.016
Mof_C 	C 	0.3636	0.36	0.0616	-0.067
Mof_C 	C 	0.3622	0.445	0.1476	-0.005
Mof_C 	C 	0.3605	0.5311	0.2349	-0.046
Mof_C 	C 	0.3475	0.5119	0.1699	-0.051
Mof_C 	C 	0.5862	0.9435	0.6226	0.319
Mof_C 	C 	0.6504	0.9173	0.6407	-0.459
Mof_C 	C 	0.6909	0.9262	0.5881	0.43
Mof_C 	C 	0.5223	0.9466	0.6625	-0.641
Mof_C 	C 	0.763	0.9079	0.5782	-0.884
Mof_C 	C 	0.6719	0.9744	0.4721	-0.08
Mof_C 	C 	0.6482	0.9238	0.42	0.016
Mof_C 	C 	0.6364	0.86	0.4384	-0.067
Mof_C 	C 	0.6378	0.945	0.3524	-0.005
Mof_C 	C 	0.6395	0.0311	0.2651	-0.045
Mof_C 	C 	0.6525	0.0119	0.3301	-0.051
Mof_C 	C 	0.0862	0.5565	0.3774	0.319
Mof_C 	C 	0.1504	0.5827	0.3593	-0.459
Mof_C 	C 	0.1909	0.5738	0.4119	0.43
Mof_C 	C 	0.0223	0.5534	0.3375	-0.641
Mof_C 	C 	0.263	0.5921	0.4218	-0.884
Mof_C 	C 	0.1719	0.5256	0.5279	-0.08
Mof_C 	C 	0.1482	0.5762	0.58	0.016
Mof_C 	C 	0.1364	0.64	0.5616	-0.067
Mof_C 	C 	0.1378	0.555	0.6476	-0.005
Mof_C 	C 	0.1395	0.4689	0.7349	-0.046
Mof_C 	C 	0.1525	0.4881	0.6699	-0.051
Mof_C 	C 	0.1226	0.9138	0.0565	0.32
Mof_C 	C 	0.1407	0.8496	0.0827	-0.46
Mof_C 	C 	0.0881	0.8091	0.0738	0.43
Mof_C 	C 	0.1625	0.9777	0.0534	-0.644
Mof_C 	C 	0.0782	0.737	0.0921	-0.884
Mof_C 	C 	0.9721	0.8281	0.0256	-0.083
Mof_C 	C 	0.92	0.8518	0.0762	0.017
Mof_C 	C 	0.9384	0.8636	0.14	-0.068
Mof_C 	C 	0.8524	0.8622	0.055	-0.006
Mof_C 	C 	0.7651	0.8605	0.9689	-0.045
Mof_C 	C 	0.8301	0.8475	0.9881	-0.05
Mof_C 	C 	0.8774	0.4138	0.4435	0.319
Mof_C 	C 	0.8593	0.3496	0.4173	-0.459
Mof_C 	C 	0.9119	0.3091	0.4262	0.43
Mof_C 	C 	0.8375	0.4777	0.4466	-0.641
Mof_C 	C 	0.9218	0.237	0.4079	-0.883
Mof_C 	C 	0.0279	0.3281	0.4744	-0.08
Mof_C 	C 	0.08	0.3518	0.4238	0.016
Mof_C 	C 	0.0616	0.3636	0.36	-0.067
Mof_C 	C 	0.1476	0.3622	0.445	-0.005
Mof_C 	C 	0.2349	0.3605	0.5311	-0.046
Mof_C 	C 	0.1699	0.3475	0.5119	-0.051
Mof_C 	C 	0.6226	0.5862	0.9435	0.319
Mof_C 	C 	0.6407	0.6504	0.9173	-0.459
Mof_C 	C 	0.5881	0.6909	0.9262	0.43
Mof_C 	C 	0.6625	0.5223	0.9466	-0.641
Mof_C 	C 	0.5782	0.763	0.9079	-0.884
Mof_C 	C 	0.4721	0.6719	0.9744	-0.08
Mof_C 	C 	0.42	0.6482	0.9238	0.016
Mof_C 	C 	0.4384	0.6364	0.86	-0.067
Mof_C 	C 	0.3524	0.6378	0.945	-0.005
Mof_C 	C 	0.2651	0.6395	0.0311	-0.045
Mof_C 	C 	0.3301	0.6525	0.0119	-0.051
Mof_C 	C 	0.3774	0.0862	0.5565	0.319
Mof_C 	C 	0.3593	0.1504	0.5827	-0.459
Mof_C 	C 	0.4119	0.1909	0.5738	0.43
Mof_C 	C 	0.3375	0.0223	0.5534	-0.641
Mof_C 	C 	0.4218	0.263	0.5921	-0.884
Mof_C 	C 	0.5279	0.1719	0.5256	-0.08
Mof_C 	C 	0.58	0.1482	0.5762	0.016
Mof_C 	C 	0.5616	0.1364	0.64	-0.067
Mof_C 	C 	0.6476	0.1378	0.555	-0.005
Mof_C 	C 	0.7349	0.1395	0.4689	-0.046
Mof_C 	C 	0.6699	0.1525	0.4881	-0.051
Mof_C 	C 	0.3726	0.8065	0.8362	0.319
Mof_C 	C 	0.3907	0.8327	0.9004	-0.46
Mof_C 	C 	0.3381	0.8238	0.9409	0.43
Mof_C 	C 	0.4125	0.8034	0.7723	-0.641
Mof_C 	C 	0.3282	0.8421	0.013	-0.884
Mof_C 	C 	0.2221	0.7756	0.9219	-0.08
Mof_C 	C 	0.17	0.8262	0.8982	0.016
Mof_C 	C 	0.1884	0.89	0.8864	-0.067
Mof_C 	C 	0.1024	0.805	0.8878	-0.005
Mof_C 	C 	0.0151	0.7189	0.8895	-0.047
Mof_C 	C 	0.0801	0.7381	0.9025	-0.051
Mof_C 	C 	0.1274	0.1935	0.3362	0.319
Mof_C 	C 	0.1093	0.1673	0.4004	-0.459
Mof_C 	C 	0.1619	0.1762	0.4409	0.43
Mof_C 	C 	0.0875	0.1966	0.2723	-0.641
Mof_C 	C 	0.1718	0.1579	0.513	-0.884
Mof_C 	C 	0.2779	0.2244	0.4219	-0.08
Mof_C 	C 	0.33	0.1738	0.3982	0.016
Mof_C 	C 	0.3116	0.11	0.3864	-0.067
Mof_C 	C 	0.3976	0.195	0.3878	-0.005
Mof_C 	C 	0.4849	0.2811	0.3895	-0.046
Mof_C 	C 	0.4199	0.2619	0.4025	-0.051
Mof_C 	C 	0.8726	0.6935	0.1638	0.318
Mof_C 	C 	0.8907	0.6673	0.0996	-0.459
Mof_C 	C 	0.8381	0.6762	0.0591	0.428
Mof_C 	C 	0.9125	0.6966	0.2277	-0.641
Mof_C 	C 	0.8282	0.6579	0.987	-0.882
Mof_C 	C 	0.7221	0.7244	0.0781	-0.08
Mof_C 	C 	0.67	0.6738	0.1018	0.016
Mof_C 	C 	0.6884	0.61	0.1136	-0.067
Mof_C 	C 	0.6024	0.695	0.1122	-0.005
Mof_C 	C 	0.5151	0.7811	0.1105	-0.046
Mof_C 	C 	0.5801	0.7619	0.0975	-0.051
Mof_C 	C 	0.6274	0.3065	0.6638	0.319
Mof_C 	C 	0.6093	0.3327	0.5996	-0.459
Mof_C 	C 	0.6619	0.3238	0.5591	0.43
Mof_C 	C 	0.5875	0.3034	0.7277	-0.641
Mof_C 	C 	0.6718	0.3421	0.487	-0.884
Mof_C 	C 	0.7779	0.2756	0.5781	-0.08
Mof_C 	C 	0.83	0.3262	0.6018	0.016
Mof_C 	C 	0.8116	0.39	0.6136	-0.067
Mof_C 	C 	0.8976	0.305	0.6122	-0.005
Mof_C 	C 	0.9849	0.2189	0.6105	-0.046
Mof_C 	C 	0.9199	0.2381	0.5975	-0.051
Mof_C 	C 	0.3065	0.6638	0.6274	0.319
Mof_C 	C 	0.3327	0.5996	0.6093	-0.459
Mof_C 	C 	0.3238	0.5591	0.6619	0.43
Mof_C 	C 	0.3034	0.7277	0.5875	-0.641
Mof_C 	C 	0.3421	0.487	0.6718	-0.884
Mof_C 	C 	0.2756	0.5781	0.7779	-0.08
Mof_C 	C 	0.3262	0.6018	0.83	0.016
Mof_C 	C 	0.39	0.6136	0.8116	-0.067
Mof_C 	C 	0.305	0.6122	0.8976	-0.005
Mof_C 	C 	0.2189	0.6105	0.9849	-0.046
Mof_C 	C 	0.2381	0.5975	0.9199	-0.051
Mof_C 	C 	0.6935	0.1638	0.8726	0.318
Mof_C 	C 	0.6673	0.0996	0.8907	-0.459
Mof_C 	C 	0.6762	0.0591	0.8381	0.428
Mof_C 	C 	0.6966	0.2277	0.9125	-0.641
Mof_C 	C 	0.6579	0.987	0.8282	-0.882
Mof_C 	C 	0.7244	0.0781	0.7221	-0.08
Mof_C 	C 	0.6738	0.1018	0.67	0.016
Mof_C 	C 	0.61	0.1136	0.6884	-0.067
Mof_C 	C 	0.695	0.1122	0.6024	-0.005
Mof_C 	C 	0.7811	0.1105	0.5151	-0.046
Mof_C 	C 	0.7619	0.0975	0.5801	-0.051
Mof_C 	C 	0.1935	0.3362	0.1274	0.319
Mof_C 	C 	0.1673	0.4004	0.1093	-0.459
Mof_C 	C 	0.1762	0.4409	0.1619	0.43
Mof_C 	C 	0.1966	0.2723	0.0875	-0.641
Mof_C 	C 	0.1579	0.513	0.1718	-0.884
Mof_C 	C 	0.2244	0.4219	0.2779	-0.08
Mof_C 	C 	0.1738	0.3982	0.33	0.016
Mof_C 	C 	0.11	0.3864	0.3116	-0.067
Mof_C 	C 	0.195	0.3878	0.3976	-0.005
Mof_C 	C 	0.2811	0.3895	0.4849	-0.046
Mof_C 	C 	0.2619	0.4025	0.4199	-0.051
Mof_C 	C 	0.8065	0.8362	0.3726	0.319
Mof_C 	C 	0.8327	0.9004	0.3907	-0.46
Mof_C 	C 	0.8238	0.9409	0.3381	0.43
Mof_C 	C 	0.8034	0.7723	0.4125	-0.641
Mof_C 	C 	0.8421	0.013	0.3282	-0.884
Mof_C 	C 	0.7756	0.9219	0.2221	-0.08
Mof_C 	C 	0.8262	0.8982	0.17	0.016
Mof_C 	C 	0.89	0.8864	0.1884	-0.067
Mof_C 	C 	0.805	0.8878	0.1024	-0.005
Mof_C 	C 	0.7189	0.8895	0.0151	-0.047
Mof_C 	C 	0.7381	0.9025	0.0801	-0.051
Mof_C 	C 	0.1638	0.8726	0.6935	0.318
Mof_C 	C 	0.0996	0.8907	0.6673	-0.459
Mof_C 	C 	0.0591	0.8381	0.6762	0.428
Mof_C 	C 	0.2277	0.9125	0.6966	-0.641
Mof_C 	C 	0.987	0.8282	0.6579	-0.882
Mof_C 	C 	0.0781	0.7221	0.7244	-0.08
Mof_C 	C 	0.1018	0.67	0.6738	0.016
Mof_C 	C 	0.1136	0.6884	0.61	-0.067
Mof_C 	C 	0.1122	0.6024	0.695	-0.005
Mof_C 	C 	0.1105	0.5151	0.7811	-0.046
Mof_C 	C 	0.0975	0.5801	0.7619	-0.051
Mof_C 	C 	0.6638	0.6274	0.3065	0.319
Mof_C 	C 	0.5996	0.6093	0.3327	-0.459
Mof_C 	C 	0.5591	0.6619	0.3238	0.43
Mof_C 	C 	0.7277	0.5875	0.3034	-0.641
Mof_C 	C 	0.487	0.6718	0.3421	-0.884
Mof_C 	C 	0.5781	0.7779	0.2756	-0.08
Mof_C 	C 	0.6018	0.83	0.3262	0.016
Mof_C 	C 	0.6136	0.8116	0.39	-0.067
Mof_C 	C 	0.6122	0.8976	0.305	-0.005
Mof_C 	C 	0.6105	0.9849	0.2189	-0.046
Mof_C 	C 	0.5975	0.9199	0.2381	-0.051
Mof_C 	C 	0.8362	0.3726	0.8065	0.319
Mof_C 	C 	0.9004	0.3907	0.8327	-0.46
Mof_C 	C 	0.9409	0.3381	0.8238	0.43
Mof_C 	C 	0.7723	0.4125	0.8034	-0.641
Mof_C 	C 	0.013	0.3282	0.8421	-0.884
Mof_C 	C 	0.9219	0.2221	0.7756	-0.08
Mof_C 	C 	0.8982	0.17	0.8262	0.016
Mof_C 	C 	0.8864	0.1884	0.89	-0.067
Mof_C 	C 	0.8878	0.1024	0.805	-0.005
Mof_C 	C 	0.8895	0.0151	0.7189	-0.047
Mof_C 	C 	0.9025	0.0801	0.7381	-0.051
Mof_C 	C 	0.3362	0.1274	0.1935	0.319
Mof_C 	C 	0.4004	0.1093	0.1673	-0.459
Mof_C 	C 	0.4409	0.1619	0.1762	0.43
Mof_C 	C 	0.2723	0.0875	0.1966	-0.641
Mof_C 	C 	0.513	0.1718	0.1579	-0.884
Mof_C 	C 	0.4219	0.2779	0.2244	-0.08
Mof_C 	C 	0.3982	0.33	0.1738	0.016
Mof_C 	C 	0.3864	0.3116	0.11	-0.067
Mof_C 	C 	0.3878	0.3976	0.195	-0.005
Mof_C 	C 	0.3895	0.4849	0.2811	-0.046
Mof_C 	C 	0.4025	0.4199	0.2619	-0.051
Mof_N 	N 	0.0433	0.0403	0.8464	-0.149
Mof_N 	N 	0.0331	0.0598	0.9105	-0.199
Mof_N 	N 	0.4567	0.9597	0.3464	-0.15
Mof_N 	N 	0.4669	0.9402	0.4105	-0.198
Mof_N 	N 	0.9567	0.5403	0.6536	-0.15
Mof_N 	N 	0.9669	0.5598	0.5895	-0.198
Mof_N 	N 	0.5433	0.4597	0.1536	-0.15
Mof_N 	N 	0.5331	0.4402	0.0895	-0.198
Mof_N 	N 	0.8464	0.0433	0.0403	-0.149
Mof_N 	N 	0.9105	0.0331	0.0598	-0.199
Mof_N 	N 	0.3464	0.4567	0.9597	-0.15
Mof_N 	N 	0.4105	0.4669	0.9402	-0.198
Mof_N 	N 	0.6536	0.9567	0.5403	-0.15
Mof_N 	N 	0.5895	0.9669	0.5598	-0.198
Mof_N 	N 	0.1536	0.5433	0.4597	-0.15
Mof_N 	N 	0.0895	0.5331	0.4402	-0.198
Mof_N 	N 	0.0403	0.8464	0.0433	-0.149
Mof_N 	N 	0.0598	0.9105	0.0331	-0.199
Mof_N 	N 	0.9597	0.3464	0.4567	-0.15
Mof_N 	N 	0.9402	0.4105	0.4669	-0.198
Mof_N 	N 	0.5403	0.6536	0.9567	-0.15
Mof_N 	N 	0.5598	0.5895	0.9669	-0.198
Mof_N 	N 	0.4597	0.1536	0.5433	-0.15
Mof_N 	N 	0.4402	0.0895	0.5331	-0.198
Mof_N 	N 	0.2903	0.7933	0.9036	-0.15
Mof_N 	N 	0.3098	0.7831	0.8395	-0.198
Mof_N 	N 	0.2097	0.2067	0.4036	-0.15
Mof_N 	N 	0.1902	0.2169	0.3395	-0.198
Mof_N 	N 	0.7903	0.7067	0.0964	-0.15
Mof_N 	N 	0.8098	0.7169	0.1605	-0.198
Mof_N 	N 	0.7097	0.2933	0.5964	-0.15
Mof_N 	N 	0.6902	0.2831	0.6605	-0.198
Mof_N 	N 	0.2933	0.5964	0.7097	-0.15
Mof_N 	N 	0.2831	0.6605	0.6902	-0.198
Mof_N 	N 	0.7067	0.0964	0.7903	-0.15
Mof_N 	N 	0.7169	0.1605	0.8098	-0.198
Mof_N 	N 	0.2067	0.4036	0.2097	-0.15
Mof_N 	N 	0.2169	0.3395	0.1902	-0.198
Mof_N 	N 	0.7933	0.9036	0.2903	-0.15
Mof_N 	N 	0.7831	0.8395	0.3098	-0.198
Mof_N 	N 	0.0964	0.7903	0.7067	-0.15
Mof_N 	N 	0.1605	0.8098	0.7169	-0.198
Mof_N 	N 	0.5964	0.7097	0.2933	-0.15
Mof_N 	N 	0.6605	0.6902	0.2831	-0.198
Mof_N 	N 	0.9036	0.2903	0.7933	-0.15
Mof_N 	N 	0.8395	0.3098	0.7831	-0.198
Mof_N 	N 	0.4036	0.2097	0.2067	-0.15
Mof_N 	N 	0.3395	0.1902	0.2169	-0.198
Mof_P 	P 	0.52603	0.97397	0.02603	1.003
Mof_F 	F 	0.5443	0.9219	0.9673	-0.374
Mof_F 	F 	0.478	0.9133	0.014	-0.394
Mof_F 	F 	0.4673	0.9557	0.0781	-0.374
Mof_F 	F 	0.514	0.022	0.0867	-0.394
Mof_F 	F 	0.5781	0.0327	0.0443	-0.374
Mof_F 	F 	0.5867	0.986	0.978	-0.393
Mof_P 	P 	0.97397	0.02603	0.52603	1.003
Mof_F 	F 	0.9557	0.0781	0.4673	-0.374
Mof_F 	F 	0.022	0.0867	0.514	-0.394
Mof_F 	F 	0.0327	0.0443	0.5781	-0.374
Mof_F 	F 	0.986	0.978	0.5867	-0.393
Mof_F 	F 	0.9219	0.9673	0.5443	-0.374
Mof_F 	F 	0.9133	0.014	0.478	-0.394
Mof_P 	P 	0.47397	0.47397	0.47397	1.004
Mof_F 	F 	0.4557	0.4219	0.5327	-0.374
Mof_F 	F 	0.522	0.4133	0.486	-0.394
Mof_F 	F 	0.5327	0.4557	0.4219	-0.374
Mof_F 	F 	0.486	0.522	0.4133	-0.394
Mof_F 	F 	0.4219	0.5327	0.4557	-0.374
Mof_F 	F 	0.4133	0.486	0.522	-0.394
Mof_P 	P 	0.02603	0.52603	0.97397	1.003
Mof_F 	F 	0.0443	0.5781	0.0327	-0.374
Mof_F 	F 	0.978	0.5867	0.986	-0.393
Mof_F 	F 	0.9673	0.5443	0.9219	-0.374
Mof_F 	F 	0.014	0.478	0.9133	-0.394
Mof_F 	F 	0.0781	0.4673	0.9557	-0.374
Mof_F 	F 	0.0867	0.514	0.022	-0.394
Mof_P 	P 	0.22397	0.27603	0.72397	1.004
Mof_F 	F 	0.1719	0.2943	0.7827	-0.374
Mof_F 	F 	0.1633	0.228	0.736	-0.394
Mof_F 	F 	0.2057	0.2173	0.6719	-0.374
Mof_F 	F 	0.272	0.264	0.6633	-0.394
Mof_F 	F 	0.2827	0.3281	0.7057	-0.374
Mof_F 	F 	0.236	0.3367	0.772	-0.394
Mof_P 	P 	0.27603	0.72397	0.22397	1.004
Mof_F 	F 	0.3281	0.7057	0.2827	-0.374
Mof_F 	F 	0.3367	0.772	0.236	-0.394
Mof_F 	F 	0.2943	0.7827	0.1719	-0.374
Mof_F 	F 	0.228	0.736	0.1633	-0.394
Mof_F 	F 	0.2173	0.6719	0.2057	-0.374
Mof_F 	F 	0.264	0.6633	0.272	-0.394
Mof_P 	P 	0.72397	0.22397	0.27603	1.004
Mof_F 	F 	0.6719	0.2057	0.2173	-0.374
Mof_F 	F 	0.6633	0.272	0.264	-0.394
Mof_F 	F 	0.7057	0.2827	0.3281	-0.374
Mof_F 	F 	0.772	0.236	0.3367	-0.394
Mof_F 	F 	0.7827	0.1719	0.2943	-0.374
Mof_F 	F 	0.736	0.1633	0.228	-0.394
Mof_P 	P 	0.77603	0.77603	0.77603	1.004
Mof_F 	F 	0.8281	0.7943	0.7173	-0.374
Mof_F 	F 	0.8367	0.728	0.764	-0.394
Mof_F 	F 	0.7943	0.7173	0.8281	-0.374
Mof_F 	F 	0.728	0.764	0.8367	-0.394
Mof_F 	F 	0.7173	0.8281	0.7943	-0.374
Mof_F 	F 	0.764	0.8367	0.728	-0.394
_end
