data_functionalizedCrystal
_audit_creation_method	'EQeq! by Chris Wilmer'
_symmetry_space_group_name_H-M	'P1'
_symmetry_Int_Tables_number	1
_symmetry_cell_setting	triclinic
loop_
_symmetry_equiv_pos_as_xyz
  x,y,z
_cell_length_a	19.666
_cell_length_b	19.666
_cell_length_c	19.666
_cell_angle_alpha	90
_cell_angle_beta	90
_cell_angle_gamma	90
loop_
_atom_site_label
_atom_site_type_symbol
_atom_site_fract_x
_atom_site_fract_y
_atom_site_fract_z
_atom_site_charge
Mof_N 	N 	0.2498	0.6796	0.3224	-0.216
Mof_C 	C 	0.1939	0.7441	0.6097	0.149
Mof_H 	H 	0.1527	0.7408	0.6328	-0.024
Mof_C 	C 	0.1927	0.7424	0.5391	-0.246
Mof_H 	H 	0.1515	0.7359	0.5167	0.115
Mof_C 	C 	0.2484	0.6878	0.3925	0.123
Mof_C 	C 	0.2476	0.6228	0.4261	-0.088
Mof_H 	H 	0.2468	0.6153	0.4728	0.062
Mof_C 	C 	0.2484	0.5755	0.3776	-0.093
Mof_H 	H 	0.2474	0.5287	0.3844	0.064
Mof_C 	C 	0.2511	0.6097	0.3126	0.128
Mof_C 	C 	0.3068	0.4667	0.2457	-0.277
Mof_H 	H 	0.3481	0.4894	0.2411	0.126
Mof_C 	C 	0.3064	0.3969	0.2479	0.16
Mof_H 	H 	0.3479	0.3743	0.2479	-0.029
Mof_N 	N 	0.2502	0.8204	0.3224	-0.216
Mof_C 	C 	0.3061	0.7559	0.6097	0.149
Mof_H 	H 	0.3473	0.7592	0.6328	-0.024
Mof_C 	C 	0.3073	0.7576	0.5391	-0.246
Mof_H 	H 	0.3485	0.7641	0.5167	0.115
Mof_C 	C 	0.2516	0.8122	0.3925	0.123
Mof_C 	C 	0.2524	0.8772	0.4261	-0.088
Mof_H 	H 	0.2532	0.8847	0.4728	0.062
Mof_C 	C 	0.2516	0.9245	0.3776	-0.092
Mof_H 	H 	0.2526	0.9713	0.3844	0.063
Mof_C 	C 	0.2489	0.8903	0.3126	0.128
Mof_C 	C 	0.1932	0.0333	0.2457	-0.274
Mof_H 	H 	0.1519	0.0106	0.2411	0.125
Mof_C 	C 	0.1936	0.1031	0.2479	0.159
Mof_H 	H 	0.1521	0.1257	0.2479	-0.028
Mof_N 	N 	0.2502	0.6796	0.1776	-0.216
Mof_C 	C 	0.3061	0.7441	0.8903	0.149
Mof_H 	H 	0.3473	0.7408	0.8672	-0.024
Mof_C 	C 	0.3073	0.7424	0.9609	-0.246
Mof_H 	H 	0.3485	0.7359	0.9833	0.115
Mof_C 	C 	0.2516	0.6878	0.1075	0.123
Mof_C 	C 	0.2524	0.6228	0.0739	-0.088
Mof_H 	H 	0.2532	0.6153	0.0272	0.062
Mof_C 	C 	0.2516	0.5755	0.1224	-0.093
Mof_H 	H 	0.2526	0.5287	0.1156	0.064
Mof_C 	C 	0.2489	0.6097	0.1874	0.128
Mof_C 	C 	0.1932	0.4667	0.2543	-0.277
Mof_H 	H 	0.1519	0.4894	0.2589	0.126
Mof_C 	C 	0.1936	0.3969	0.2521	0.16
Mof_H 	H 	0.1521	0.3743	0.2521	-0.029
Mof_N 	N 	0.2498	0.8204	0.1776	-0.216
Mof_C 	C 	0.1939	0.7559	0.8903	0.149
Mof_H 	H 	0.1527	0.7592	0.8672	-0.024
Mof_C 	C 	0.1927	0.7576	0.9609	-0.246
Mof_H 	H 	0.1515	0.7641	0.9833	0.115
Mof_C 	C 	0.2484	0.8122	0.1075	0.123
Mof_C 	C 	0.2476	0.8772	0.0739	-0.088
Mof_H 	H 	0.2468	0.8847	0.0272	0.062
Mof_C 	C 	0.2484	0.9245	0.1224	-0.092
Mof_H 	H 	0.2474	0.9713	0.1156	0.063
Mof_C 	C 	0.2511	0.8903	0.1874	0.128
Mof_C 	C 	0.3068	0.0333	0.2543	-0.275
Mof_H 	H 	0.3481	0.0106	0.2589	0.124
Mof_C 	C 	0.3064	0.1031	0.2521	0.157
Mof_H 	H 	0.3479	0.1257	0.2521	-0.029
Mof_N 	N 	0.3224	0.2498	0.6796	-0.217
Mof_C 	C 	0.6097	0.1939	0.7441	0.148
Mof_H 	H 	0.6328	0.1527	0.7408	-0.025
Mof_C 	C 	0.5391	0.1927	0.7424	-0.247
Mof_H 	H 	0.5167	0.1515	0.7359	0.114
Mof_C 	C 	0.3925	0.2484	0.6878	0.122
Mof_C 	C 	0.4261	0.2476	0.6228	-0.089
Mof_H 	H 	0.4728	0.2468	0.6153	0.061
Mof_C 	C 	0.3776	0.2484	0.5755	-0.094
Mof_H 	H 	0.3844	0.2474	0.5287	0.063
Mof_C 	C 	0.3126	0.2511	0.6097	0.127
Mof_C 	C 	0.2457	0.3068	0.4667	-0.278
Mof_H 	H 	0.2411	0.3481	0.4894	0.125
Mof_C 	C 	0.2479	0.3064	0.3969	0.159
Mof_H 	H 	0.2479	0.3479	0.3743	-0.03
Mof_N 	N 	0.3224	0.2502	0.8204	-0.217
Mof_C 	C 	0.6097	0.3061	0.7559	0.148
Mof_H 	H 	0.6328	0.3473	0.7592	-0.025
Mof_C 	C 	0.5391	0.3073	0.7576	-0.247
Mof_H 	H 	0.5167	0.3485	0.7641	0.114
Mof_C 	C 	0.3925	0.2516	0.8122	0.122
Mof_C 	C 	0.4261	0.2524	0.8772	-0.089
Mof_H 	H 	0.4728	0.2532	0.8847	0.061
Mof_C 	C 	0.3776	0.2516	0.9245	-0.093
Mof_H 	H 	0.3844	0.2526	0.9713	0.062
Mof_C 	C 	0.3126	0.2489	0.8903	0.127
Mof_C 	C 	0.2457	0.1932	0.0333	-0.275
Mof_H 	H 	0.2411	0.1519	0.0106	0.124
Mof_C 	C 	0.2479	0.1936	0.1031	0.158
Mof_H 	H 	0.2479	0.1521	0.1257	-0.029
Mof_N 	N 	0.1776	0.2502	0.6796	-0.217
Mof_C 	C 	0.8903	0.3061	0.7441	0.148
Mof_H 	H 	0.8672	0.3473	0.7408	-0.025
Mof_C 	C 	0.9609	0.3073	0.7424	-0.247
Mof_H 	H 	0.9833	0.3485	0.7359	0.114
Mof_C 	C 	0.1075	0.2516	0.6878	0.122
Mof_C 	C 	0.0739	0.2524	0.6228	-0.089
Mof_H 	H 	0.0272	0.2532	0.6153	0.061
Mof_C 	C 	0.1224	0.2516	0.5755	-0.094
Mof_H 	H 	0.1156	0.2526	0.5287	0.063
Mof_C 	C 	0.1874	0.2489	0.6097	0.127
Mof_C 	C 	0.2543	0.1932	0.4667	-0.278
Mof_H 	H 	0.2589	0.1519	0.4894	0.125
Mof_C 	C 	0.2521	0.1936	0.3969	0.159
Mof_H 	H 	0.2521	0.1521	0.3743	-0.03
Mof_N 	N 	0.1776	0.2498	0.8204	-0.217
Mof_C 	C 	0.8903	0.1939	0.7559	0.148
Mof_H 	H 	0.8672	0.1527	0.7592	-0.025
Mof_C 	C 	0.9609	0.1927	0.7576	-0.247
Mof_H 	H 	0.9833	0.1515	0.7641	0.114
Mof_C 	C 	0.1075	0.2484	0.8122	0.122
Mof_C 	C 	0.0739	0.2476	0.8772	-0.089
Mof_H 	H 	0.0272	0.2468	0.8847	0.061
Mof_C 	C 	0.1224	0.2484	0.9245	-0.093
Mof_H 	H 	0.1156	0.2474	0.9713	0.062
Mof_C 	C 	0.1874	0.2511	0.8903	0.127
Mof_C 	C 	0.2543	0.3068	0.0333	-0.275
Mof_H 	H 	0.2589	0.3481	0.0106	0.124
Mof_C 	C 	0.2521	0.3064	0.1031	0.157
Mof_H 	H 	0.2521	0.3479	0.1257	-0.029
Mof_N 	N 	0.6796	0.3224	0.2498	-0.217
Mof_C 	C 	0.7441	0.6097	0.1939	0.148
Mof_H 	H 	0.7408	0.6328	0.1527	-0.025
Mof_C 	C 	0.7424	0.5391	0.1927	-0.247
Mof_H 	H 	0.7359	0.5167	0.1515	0.114
Mof_C 	C 	0.6878	0.3925	0.2484	0.122
Mof_C 	C 	0.6228	0.4261	0.2476	-0.089
Mof_H 	H 	0.6153	0.4728	0.2468	0.061
Mof_C 	C 	0.5755	0.3776	0.2484	-0.094
Mof_H 	H 	0.5287	0.3844	0.2474	0.063
Mof_C 	C 	0.6097	0.3126	0.2511	0.127
Mof_C 	C 	0.4667	0.2457	0.3068	-0.278
Mof_H 	H 	0.4894	0.2411	0.3481	0.125
Mof_C 	C 	0.3969	0.2479	0.3064	0.159
Mof_H 	H 	0.3743	0.2479	0.3479	-0.03
Mof_N 	N 	0.8204	0.3224	0.2502	-0.217
Mof_C 	C 	0.7559	0.6097	0.3061	0.148
Mof_H 	H 	0.7592	0.6328	0.3473	-0.025
Mof_C 	C 	0.7576	0.5391	0.3073	-0.247
Mof_H 	H 	0.7641	0.5167	0.3485	0.114
Mof_C 	C 	0.8122	0.3925	0.2516	0.122
Mof_C 	C 	0.8772	0.4261	0.2524	-0.089
Mof_H 	H 	0.8847	0.4728	0.2532	0.061
Mof_C 	C 	0.9245	0.3776	0.2516	-0.093
Mof_H 	H 	0.9713	0.3844	0.2526	0.062
Mof_C 	C 	0.8903	0.3126	0.2489	0.127
Mof_C 	C 	0.0333	0.2457	0.1932	-0.275
Mof_H 	H 	0.0106	0.2411	0.1519	0.124
Mof_C 	C 	0.1031	0.2479	0.1936	0.158
Mof_H 	H 	0.1257	0.2479	0.1521	-0.029
Mof_N 	N 	0.6796	0.1776	0.2502	-0.217
Mof_C 	C 	0.7441	0.8903	0.3061	0.148
Mof_H 	H 	0.7408	0.8672	0.3473	-0.025
Mof_C 	C 	0.7424	0.9609	0.3073	-0.247
Mof_H 	H 	0.7359	0.9833	0.3485	0.114
Mof_C 	C 	0.6878	0.1075	0.2516	0.122
Mof_C 	C 	0.6228	0.0739	0.2524	-0.089
Mof_H 	H 	0.6153	0.0272	0.2532	0.061
Mof_C 	C 	0.5755	0.1224	0.2516	-0.094
Mof_H 	H 	0.5287	0.1156	0.2526	0.063
Mof_C 	C 	0.6097	0.1874	0.2489	0.127
Mof_C 	C 	0.4667	0.2543	0.1932	-0.278
Mof_H 	H 	0.4894	0.2589	0.1519	0.125
Mof_C 	C 	0.3969	0.2521	0.1936	0.159
Mof_H 	H 	0.3743	0.2521	0.1521	-0.03
Mof_N 	N 	0.8204	0.1776	0.2498	-0.217
Mof_C 	C 	0.7559	0.8903	0.1939	0.148
Mof_H 	H 	0.7592	0.8672	0.1527	-0.025
Mof_C 	C 	0.7576	0.9609	0.1927	-0.247
Mof_H 	H 	0.7641	0.9833	0.1515	0.114
Mof_C 	C 	0.8122	0.1075	0.2484	0.122
Mof_C 	C 	0.8772	0.0739	0.2476	-0.089
Mof_H 	H 	0.8847	0.0272	0.2468	0.061
Mof_C 	C 	0.9245	0.1224	0.2484	-0.093
Mof_H 	H 	0.9713	0.1156	0.2474	0.062
Mof_C 	C 	0.8903	0.1874	0.2511	0.127
Mof_C 	C 	0.0333	0.2543	0.3068	-0.275
Mof_H 	H 	0.0106	0.2589	0.3481	0.124
Mof_C 	C 	0.1031	0.2521	0.3064	0.157
Mof_H 	H 	0.1257	0.2521	0.3479	-0.029
Mof_N 	N 	0.7502	0.3204	0.6776	-0.217
Mof_C 	C 	0.8061	0.2559	0.3903	0.148
Mof_H 	H 	0.8473	0.2592	0.3672	-0.025
Mof_C 	C 	0.8073	0.2576	0.4609	-0.247
Mof_H 	H 	0.8485	0.2641	0.4833	0.114
Mof_C 	C 	0.7516	0.3122	0.6075	0.122
Mof_C 	C 	0.7524	0.3772	0.5739	-0.089
Mof_H 	H 	0.7532	0.3847	0.5272	0.061
Mof_C 	C 	0.7516	0.4245	0.6224	-0.094
Mof_H 	H 	0.7526	0.4713	0.6156	0.063
Mof_C 	C 	0.7489	0.3903	0.6874	0.127
Mof_C 	C 	0.6932	0.5333	0.7543	-0.278
Mof_H 	H 	0.6519	0.5106	0.7589	0.125
Mof_C 	C 	0.6936	0.6031	0.7521	0.159
Mof_H 	H 	0.6521	0.6257	0.7521	-0.03
Mof_N 	N 	0.7498	0.1796	0.6776	-0.217
Mof_C 	C 	0.6939	0.2441	0.3903	0.148
Mof_H 	H 	0.6527	0.2408	0.3672	-0.025
Mof_C 	C 	0.6927	0.2424	0.4609	-0.247
Mof_H 	H 	0.6515	0.2359	0.4833	0.114
Mof_C 	C 	0.7484	0.1878	0.6075	0.122
Mof_C 	C 	0.7476	0.1228	0.5739	-0.089
Mof_H 	H 	0.7468	0.1153	0.5272	0.061
Mof_C 	C 	0.7484	0.0755	0.6224	-0.093
Mof_H 	H 	0.7474	0.0287	0.6156	0.062
Mof_C 	C 	0.7511	0.1097	0.6874	0.127
Mof_C 	C 	0.8068	0.9667	0.7543	-0.275
Mof_H 	H 	0.8481	0.9894	0.7589	0.124
Mof_C 	C 	0.8064	0.8969	0.7521	0.158
Mof_H 	H 	0.8479	0.8743	0.7521	-0.029
Mof_N 	N 	0.7498	0.3204	0.8224	-0.217
Mof_C 	C 	0.6939	0.2559	0.1097	0.148
Mof_H 	H 	0.6527	0.2592	0.1328	-0.025
Mof_C 	C 	0.6927	0.2576	0.0391	-0.247
Mof_H 	H 	0.6515	0.2641	0.0167	0.114
Mof_C 	C 	0.7484	0.3122	0.8925	0.122
Mof_C 	C 	0.7476	0.3772	0.9261	-0.089
Mof_H 	H 	0.7468	0.3847	0.9728	0.061
Mof_C 	C 	0.7484	0.4245	0.8776	-0.094
Mof_H 	H 	0.7474	0.4713	0.8844	0.063
Mof_C 	C 	0.7511	0.3903	0.8126	0.127
Mof_C 	C 	0.8068	0.5333	0.7457	-0.278
Mof_H 	H 	0.8481	0.5106	0.7411	0.125
Mof_C 	C 	0.8064	0.6031	0.7479	0.159
Mof_H 	H 	0.8479	0.6257	0.7479	-0.03
Mof_N 	N 	0.7502	0.1796	0.8224	-0.217
Mof_C 	C 	0.8061	0.2441	0.1097	0.148
Mof_H 	H 	0.8473	0.2408	0.1328	-0.025
Mof_C 	C 	0.8073	0.2424	0.0391	-0.247
Mof_H 	H 	0.8485	0.2359	0.0167	0.114
Mof_C 	C 	0.7516	0.1878	0.8925	0.122
Mof_C 	C 	0.7524	0.1228	0.9261	-0.089
Mof_H 	H 	0.7532	0.1153	0.9728	0.061
Mof_C 	C 	0.7516	0.0755	0.8776	-0.093
Mof_H 	H 	0.7526	0.0287	0.8844	0.062
Mof_C 	C 	0.7489	0.1097	0.8126	0.127
Mof_C 	C 	0.6932	0.9667	0.7457	-0.275
Mof_H 	H 	0.6519	0.9894	0.7411	0.124
Mof_C 	C 	0.6936	0.8969	0.7479	0.157
Mof_H 	H 	0.6521	0.8743	0.7479	-0.029
Mof_N 	N 	0.6776	0.7502	0.3204	-0.217
Mof_C 	C 	0.3903	0.8061	0.2559	0.148
Mof_H 	H 	0.3672	0.8473	0.2592	-0.025
Mof_C 	C 	0.4609	0.8073	0.2576	-0.247
Mof_H 	H 	0.4833	0.8485	0.2641	0.114
Mof_C 	C 	0.6075	0.7516	0.3122	0.122
Mof_C 	C 	0.5739	0.7524	0.3772	-0.089
Mof_H 	H 	0.5272	0.7532	0.3847	0.061
Mof_C 	C 	0.6224	0.7516	0.4245	-0.094
Mof_H 	H 	0.6156	0.7526	0.4713	0.063
Mof_C 	C 	0.6874	0.7489	0.3903	0.127
Mof_C 	C 	0.7543	0.6932	0.5333	-0.278
Mof_H 	H 	0.7589	0.6519	0.5106	0.125
Mof_C 	C 	0.7521	0.6936	0.6031	0.159
Mof_H 	H 	0.7521	0.6521	0.6257	-0.03
Mof_N 	N 	0.6776	0.7498	0.1796	-0.217
Mof_C 	C 	0.3903	0.6939	0.2441	0.148
Mof_H 	H 	0.3672	0.6527	0.2408	-0.025
Mof_C 	C 	0.4609	0.6927	0.2424	-0.247
Mof_H 	H 	0.4833	0.6515	0.2359	0.114
Mof_C 	C 	0.6075	0.7484	0.1878	0.122
Mof_C 	C 	0.5739	0.7476	0.1228	-0.089
Mof_H 	H 	0.5272	0.7468	0.1153	0.061
Mof_C 	C 	0.6224	0.7484	0.0755	-0.093
Mof_H 	H 	0.6156	0.7474	0.0287	0.062
Mof_C 	C 	0.6874	0.7511	0.1097	0.127
Mof_C 	C 	0.7543	0.8068	0.9667	-0.275
Mof_H 	H 	0.7589	0.8481	0.9894	0.124
Mof_C 	C 	0.7521	0.8064	0.8969	0.158
Mof_H 	H 	0.7521	0.8479	0.8743	-0.029
Mof_N 	N 	0.8224	0.7498	0.3204	-0.217
Mof_C 	C 	0.1097	0.6939	0.2559	0.148
Mof_H 	H 	0.1328	0.6527	0.2592	-0.025
Mof_C 	C 	0.0391	0.6927	0.2576	-0.247
Mof_H 	H 	0.0167	0.6515	0.2641	0.114
Mof_C 	C 	0.8925	0.7484	0.3122	0.122
Mof_C 	C 	0.9261	0.7476	0.3772	-0.089
Mof_H 	H 	0.9728	0.7468	0.3847	0.061
Mof_C 	C 	0.8776	0.7484	0.4245	-0.094
Mof_H 	H 	0.8844	0.7474	0.4713	0.063
Mof_C 	C 	0.8126	0.7511	0.3903	0.127
Mof_C 	C 	0.7457	0.8068	0.5333	-0.278
Mof_H 	H 	0.7411	0.8481	0.5106	0.125
Mof_C 	C 	0.7479	0.8064	0.6031	0.159
Mof_H 	H 	0.7479	0.8479	0.6257	-0.03
Mof_N 	N 	0.8224	0.7502	0.1796	-0.217
Mof_C 	C 	0.1097	0.8061	0.2441	0.148
Mof_H 	H 	0.1328	0.8473	0.2408	-0.025
Mof_C 	C 	0.0391	0.8073	0.2424	-0.247
Mof_H 	H 	0.0167	0.8485	0.2359	0.114
Mof_C 	C 	0.8925	0.7516	0.1878	0.122
Mof_C 	C 	0.9261	0.7524	0.1228	-0.089
Mof_H 	H 	0.9728	0.7532	0.1153	0.061
Mof_C 	C 	0.8776	0.7516	0.0755	-0.093
Mof_H 	H 	0.8844	0.7526	0.0287	0.062
Mof_C 	C 	0.8126	0.7489	0.1097	0.127
Mof_C 	C 	0.7457	0.6932	0.9667	-0.275
Mof_H 	H 	0.7411	0.6519	0.9894	0.124
Mof_C 	C 	0.7479	0.6936	0.8969	0.157
Mof_H 	H 	0.7479	0.6521	0.8743	-0.029
Mof_N 	N 	0.3204	0.6776	0.7502	-0.217
Mof_C 	C 	0.2559	0.3903	0.8061	0.148
Mof_H 	H 	0.2592	0.3672	0.8473	-0.025
Mof_C 	C 	0.2576	0.4609	0.8073	-0.247
Mof_H 	H 	0.2641	0.4833	0.8485	0.114
Mof_C 	C 	0.3122	0.6075	0.7516	0.122
Mof_C 	C 	0.3772	0.5739	0.7524	-0.089
Mof_H 	H 	0.3847	0.5272	0.7532	0.061
Mof_C 	C 	0.4245	0.6224	0.7516	-0.094
Mof_H 	H 	0.4713	0.6156	0.7526	0.063
Mof_C 	C 	0.3903	0.6874	0.7489	0.127
Mof_C 	C 	0.5333	0.7543	0.6932	-0.278
Mof_H 	H 	0.5106	0.7589	0.6519	0.125
Mof_C 	C 	0.6031	0.7521	0.6936	0.159
Mof_H 	H 	0.6257	0.7521	0.6521	-0.03
Mof_N 	N 	0.1796	0.6776	0.7498	-0.217
Mof_C 	C 	0.2441	0.3903	0.6939	0.148
Mof_H 	H 	0.2408	0.3672	0.6527	-0.025
Mof_C 	C 	0.2424	0.4609	0.6927	-0.247
Mof_H 	H 	0.2359	0.4833	0.6515	0.114
Mof_C 	C 	0.1878	0.6075	0.7484	0.122
Mof_C 	C 	0.1228	0.5739	0.7476	-0.089
Mof_H 	H 	0.1153	0.5272	0.7468	0.061
Mof_C 	C 	0.0755	0.6224	0.7484	-0.093
Mof_H 	H 	0.0287	0.6156	0.7474	0.062
Mof_C 	C 	0.1097	0.6874	0.7511	0.127
Mof_C 	C 	0.9667	0.7543	0.8068	-0.275
Mof_H 	H 	0.9894	0.7589	0.8481	0.124
Mof_C 	C 	0.8969	0.7521	0.8064	0.158
Mof_H 	H 	0.8743	0.7521	0.8479	-0.029
Mof_N 	N 	0.3204	0.8224	0.7498	-0.217
Mof_C 	C 	0.2559	0.1097	0.6939	0.148
Mof_H 	H 	0.2592	0.1328	0.6527	-0.025
Mof_C 	C 	0.2576	0.0391	0.6927	-0.247
Mof_H 	H 	0.2641	0.0167	0.6515	0.114
Mof_C 	C 	0.3122	0.8925	0.7484	0.122
Mof_C 	C 	0.3772	0.9261	0.7476	-0.089
Mof_H 	H 	0.3847	0.9728	0.7468	0.061
Mof_C 	C 	0.4245	0.8776	0.7484	-0.094
Mof_H 	H 	0.4713	0.8844	0.7474	0.063
Mof_C 	C 	0.3903	0.8126	0.7511	0.127
Mof_C 	C 	0.5333	0.7457	0.8068	-0.278
Mof_H 	H 	0.5106	0.7411	0.8481	0.125
Mof_C 	C 	0.6031	0.7479	0.8064	0.159
Mof_H 	H 	0.6257	0.7479	0.8479	-0.03
Mof_N 	N 	0.1796	0.8224	0.7502	-0.217
Mof_C 	C 	0.2441	0.1097	0.8061	0.148
Mof_H 	H 	0.2408	0.1328	0.8473	-0.025
Mof_C 	C 	0.2424	0.0391	0.8073	-0.247
Mof_H 	H 	0.2359	0.0167	0.8485	0.114
Mof_C 	C 	0.1878	0.8925	0.7516	0.122
Mof_C 	C 	0.1228	0.9261	0.7524	-0.089
Mof_H 	H 	0.1153	0.9728	0.7532	0.061
Mof_C 	C 	0.0755	0.8776	0.7516	-0.093
Mof_H 	H 	0.0287	0.8844	0.7526	0.062
Mof_C 	C 	0.1097	0.8126	0.7489	0.127
Mof_C 	C 	0.9667	0.7457	0.6932	-0.275
Mof_H 	H 	0.9894	0.7411	0.6519	0.124
Mof_C 	C 	0.8969	0.7479	0.6936	0.157
Mof_H 	H 	0.8743	0.7479	0.6521	-0.029
Mof_Fe	Fe	0.25	0.75	0.25	0.752
Mof_Fe	Fe	0.25	0.25	0.75	0.752
Mof_Fe	Fe	0.75	0.25	0.25	0.752
Mof_Fe	Fe	0.75	0.25	0.75	0.752
Mof_Fe	Fe	0.75	0.75	0.25	0.752
Mof_Fe	Fe	0.25	0.75	0.75	0.752
Mof_Fe	Fe	0.25	0.25	0.25	0.656
Mof_Fe	Fe	0.75	0.75	0.75	0.656
Mof_N 	N 	0.25	0.75	0.6458	-0.227
Mof_C 	C 	0.25	0.75	0.5025	0.195
Mof_C 	C 	0.25	0.75	0.4265	-0.163
Mof_N 	N 	0.25	0.75	0.8542	-0.227
Mof_C 	C 	0.25	0.75	0.9975	0.195
Mof_C 	C 	0.25	0.75	0.0735	-0.163
Mof_N 	N 	0.6458	0.25	0.75	-0.227
Mof_C 	C 	0.5025	0.25	0.75	0.195
Mof_C 	C 	0.4265	0.25	0.75	-0.163
Mof_N 	N 	0.8542	0.25	0.75	-0.227
Mof_C 	C 	0.9975	0.25	0.75	0.195
Mof_C 	C 	0.0735	0.25	0.75	-0.163
Mof_N 	N 	0.75	0.6458	0.25	-0.227
Mof_C 	C 	0.75	0.5025	0.25	0.195
Mof_C 	C 	0.75	0.4265	0.25	-0.163
Mof_N 	N 	0.75	0.8542	0.25	-0.227
Mof_C 	C 	0.75	0.9975	0.25	0.195
Mof_C 	C 	0.75	0.0735	0.25	-0.163
Mof_N 	N 	0.75	0.25	0.3542	-0.227
Mof_C 	C 	0.75	0.25	0.4975	0.195
Mof_C 	C 	0.75	0.25	0.5735	-0.163
Mof_N 	N 	0.75	0.25	0.1458	-0.227
Mof_C 	C 	0.75	0.25	0.0025	0.195
Mof_C 	C 	0.75	0.25	0.9265	-0.163
Mof_N 	N 	0.3542	0.75	0.25	-0.227
Mof_C 	C 	0.4975	0.75	0.25	0.195
Mof_C 	C 	0.5735	0.75	0.25	-0.163
Mof_N 	N 	0.1458	0.75	0.25	-0.227
Mof_C 	C 	0.0025	0.75	0.25	0.195
Mof_C 	C 	0.9265	0.75	0.25	-0.163
Mof_N 	N 	0.25	0.3542	0.75	-0.227
Mof_C 	C 	0.25	0.4975	0.75	0.195
Mof_C 	C 	0.25	0.5735	0.75	-0.163
Mof_N 	N 	0.25	0.1458	0.75	-0.227
Mof_C 	C 	0.25	0.0025	0.75	0.195
Mof_C 	C 	0.25	0.9265	0.75	-0.163
Mof_N 	N 	0.25	0.3601	0.25	-0.222
Mof_C 	C 	0.25	0.5775	0.25	-0.183
Mof_C 	C 	0.25	0.5025	0.25	0.232
Mof_N 	N 	0.25	0.1399	0.25	-0.222
Mof_C 	C 	0.25	0.9225	0.25	-0.182
Mof_C 	C 	0.25	0.9975	0.25	0.228
Mof_N 	N 	0.25	0.25	0.3601	-0.222
Mof_C 	C 	0.25	0.25	0.5775	-0.183
Mof_C 	C 	0.25	0.25	0.5025	0.232
Mof_N 	N 	0.25	0.25	0.1399	-0.222
Mof_C 	C 	0.25	0.25	0.9225	-0.182
Mof_C 	C 	0.25	0.25	0.9975	0.228
Mof_N 	N 	0.3601	0.25	0.25	-0.222
Mof_C 	C 	0.5775	0.25	0.25	-0.183
Mof_C 	C 	0.5025	0.25	0.25	0.232
Mof_N 	N 	0.1399	0.25	0.25	-0.222
Mof_C 	C 	0.9225	0.25	0.25	-0.182
Mof_C 	C 	0.9975	0.25	0.25	0.228
Mof_N 	N 	0.75	0.6399	0.75	-0.222
Mof_C 	C 	0.75	0.4225	0.75	-0.183
Mof_C 	C 	0.75	0.4975	0.75	0.232
Mof_N 	N 	0.75	0.8601	0.75	-0.222
Mof_C 	C 	0.75	0.0775	0.75	-0.182
Mof_C 	C 	0.75	0.0025	0.75	0.228
Mof_N 	N 	0.75	0.75	0.6399	-0.222
Mof_C 	C 	0.75	0.75	0.4225	-0.183
Mof_C 	C 	0.75	0.75	0.4975	0.232
Mof_N 	N 	0.75	0.75	0.8601	-0.222
Mof_C 	C 	0.75	0.75	0.0775	-0.182
Mof_C 	C 	0.75	0.75	0.0025	0.228
Mof_N 	N 	0.6399	0.75	0.75	-0.222
Mof_C 	C 	0.4225	0.75	0.75	-0.183
Mof_C 	C 	0.4975	0.75	0.75	0.232
Mof_N 	N 	0.8601	0.75	0.75	-0.222
Mof_C 	C 	0.0775	0.75	0.75	-0.182
Mof_C 	C 	0.0025	0.75	0.75	0.228
_end
