data_functionalizedCrystal
_audit_creation_method	'EQeq! by Chris Wilmer'
_symmetry_space_group_name_H-M	'P1'
_symmetry_Int_Tables_number	1
_symmetry_cell_setting	triclinic
loop_
_symmetry_equiv_pos_as_xyz
  x,y,z
_cell_length_a	9.3392
_cell_length_b	9.3392
_cell_length_c	6.9942
_cell_angle_alpha	90
_cell_angle_beta	90
_cell_angle_gamma	120
loop_
_atom_site_label
_atom_site_type_symbol
_atom_site_fract_x
_atom_site_fract_y
_atom_site_fract_z
_atom_site_charge
Mof_O 	O 	0.8515	0.2784	0.126	-2.026
Mof_O 	O 	0.9673	0.53317	0.3364	-2.069
Mof_Al	Al	0.64088	0.16199	0.22298	8.134
Mof_O 	O 	0.5711	0.3013	0.1268	-3.107
Mof_H 	H 	0.5367	0.351	0.2093	0.78
Mof_O 	O 	0.7216	0.5731	0.45933	-1.848
Mof_O 	O 	0.46683	0.43413	0.66973	-1.731
Mof_Al	Al	0.83801	0.47889	0.55631	7.301
Mof_O 	O 	0.6987	0.2698	0.46013	-3.391
Mof_H 	H 	0.649	0.1857	0.54263	0.832
Mof_O 	O 	0.4269	0.1485	0.79267	-1.687
Mof_O 	O 	0.56587	0.0327	0.00307	-1.686
Mof_Al	Al	0.52111	0.35912	0.88965	6.531
Mof_O 	O 	0.7302	0.4289	0.79347	-3.092
Mof_H 	H 	0.8143	0.4633	0.87597	0.575
Mof_O 	O 	0.2784	0.8515	0.874	-2.168
Mof_O 	O 	0.53317	0.9673	0.6636	-2.11
Mof_Al	Al	0.16199	0.64088	0.77702	8.339
Mof_O 	O 	0.3013	0.5711	0.8732	-3.842
Mof_H 	H 	0.351	0.5367	0.7907	0.874
Mof_O 	O 	0.5731	0.7216	0.54067	-1.925
Mof_O 	O 	0.43413	0.46683	0.33027	-2.044
Mof_Al	Al	0.47889	0.83801	0.44369	7.482
Mof_O 	O 	0.2698	0.6987	0.53987	-3.462
Mof_H 	H 	0.1857	0.649	0.45737	0.861
Mof_O 	O 	0.1485	0.4269	0.20733	-2.04
Mof_O 	O 	0.0327	0.56587	0.99693	-2.135
Mof_Al	Al	0.35912	0.52111	0.11035	8.826
Mof_O 	O 	0.4289	0.7302	0.20653	-3.543
Mof_H 	H 	0.4633	0.8143	0.12403	0.814
Mof_P 	P 	-1.52861e-17	0.44942	0.16667	2.216
Mof_P 	P 	0.55058	0.55058	0.5	1.669
Mof_P 	P 	0.44942	-1.19454e-32	0.83333	1.761
Mof_F 	F 	0.6822	-5.97272e-33	0.33333	-2.252
Mof_F 	F 	0.4316	-5.97272e-33	0.33333	-2.119
Mof_F 	F 	-7.34597e-18	0.6822	0.66667	-2.267
Mof_F 	F 	-7.34597e-18	0.4316	0.66667	-2.174
Mof_F 	F 	0.3178	0.3178	-0	-2.133
Mof_F 	F 	0.5684	0.5684	-0	-2.144
_end
