data_functionalizedCrystal
_audit_creation_method	'EQeq! by Chris Wilmer'
_symmetry_space_group_name_H-M	'P1'
_symmetry_Int_Tables_number	1
_symmetry_cell_setting	triclinic
loop_
_symmetry_equiv_pos_as_xyz
  x,y,z
_cell_length_a	26.664
_cell_length_b	20.022
_cell_length_c	12.937
_cell_angle_alpha	90
_cell_angle_beta	90
_cell_angle_gamma	90
loop_
_atom_site_label
_atom_site_type_symbol
_atom_site_fract_x
_atom_site_fract_y
_atom_site_fract_z
_atom_site_charge
Mof_W 	W 	0.15487	0.16719	0.96933	1.105
Mof_W 	W 	0.26672	0.16822	0.12835	1.398
Mof_W 	W 	0.26635	0.07766	0.88591	1.402
Mof_W 	W 	0.36799	0.15892	0.81162	1.065
Mof_W 	W 	0.26645	0.15955	0.66603	1.425
Mof_Ag	Ag	0.2571	0.1059	0.3908	1.264
Mof_O 	O 	0.2818	0.1884	0.8411	-0.823
Mof_O 	O 	0.2564	0.0781	0.7437	-0.501
Mof_O 	O 	0.3782	0.1838	0.9532	-0.485
Mof_O 	O 	0.3375	0.1845	0.14	-0.486
Mof_O 	O 	0.2	0.1714	0.0785	-0.523
Mof_O 	O 	0.126	0.1848	0.8353	-0.46
Mof_O 	O 	0.2006	0.3145	0.6967	-0.517
Mof_O 	O 	0.3377	0.146	0.6811	-0.483
Mof_O 	O 	0.3372	0.0787	0.8559	-0.471
Mof_O 	O 	0.2798	0.1057	0.0231	-0.522
Mof_O 	O 	0.2608	0.1162	0.234	-0.576
Mof_O 	O 	0.1989	0.1072	0.9026	-0.505
Mof_O 	O 	0.2589	0.1261	0.5475	-0.595
Mof_N 	N 	0.3354	0.0783	0.394	-0.234
Mof_N 	N 	0.6841	0.1208	0.115	-0.252
Mof_N 	N 	0.4154	0.0705	0.3607	-0.135
Mof_N 	N 	0.5985	0.1187	0.156	-0.143
Mof_C 	C 	0.3703	0.0987	0.332	0.112
Mof_H 	H 	0.3656	0.1279	0.2774	-0.005
Mof_C 	C 	0.6462	0.0995	0.182	0.122
Mof_H 	H 	0.653	0.074	0.2402	-0.011
Mof_C 	C 	0.6524	0.1567	0.038	0.018
Mof_H 	H 	0.6656	0.1775	0.9797	0.006
Mof_C 	C 	0.5011	0.034	0.311	-0.058
Mof_H 	H 	0.4957	0.9932	0.3439	0.044
Mof_C 	C 	0.4632	0.0814	0.305	0.066
Mof_C 	C 	0.4061	0.0355	0.442	-0.016
Mof_H 	H 	0.4296	0.0112	0.4793	0.025
Mof_C 	C 	0.3581	0.0396	0.463	0.051
Mof_H 	H 	0.3424	0.0185	0.5187	0.003
Mof_C 	C 	0.4705	0.1398	0.25	-0.057
Mof_H 	H 	0.445	0.1712	0.2437	0.039
Mof_C 	C 	0.5151	0.149	0.208	-0.09
Mof_H 	H 	0.52	0.1891	0.1721	0.053
Mof_C 	C 	0.6036	0.1564	0.06	-0.017
Mof_H 	H 	0.578	0.1761	0.0218	0.023
Mof_C 	C 	0.5554	0.1054	0.213	0.097
Mof_C 	C 	0.546	0.0484	0.267	-0.099
Mof_H 	H 	0.572	0.0178	0.275	0.058
Mof_O 	O 	0.2599	0.9921	0.9048	-0.549
Mof_W 	W 	0.34513	0.83281	0.46933	1.117
Mof_W 	W 	0.23328	0.83178	0.62835	1.399
Mof_W 	W 	0.23365	0.92234	0.38591	1.41
Mof_W 	W 	0.13201	0.84108	0.31162	1.067
Mof_W 	W 	0.23355	0.84045	0.16603	1.426
Mof_Ag	Ag	0.2429	0.8941	0.8908	1.264
Mof_O 	O 	0.2182	0.8116	0.3411	-0.824
Mof_O 	O 	0.2436	0.9219	0.2437	-0.501
Mof_O 	O 	0.1218	0.8162	0.4532	-0.481
Mof_O 	O 	0.1625	0.8155	0.64	-0.485
Mof_O 	O 	0.3	0.8286	0.5785	-0.526
Mof_O 	O 	0.374	0.8152	0.3353	-0.46
Mof_O 	O 	0.2994	0.6855	0.1967	-0.516
Mof_O 	O 	0.1623	0.854	0.1811	-0.482
Mof_O 	O 	0.1628	0.9213	0.3559	-0.471
Mof_O 	O 	0.2202	0.8943	0.5231	-0.526
Mof_O 	O 	0.2392	0.8838	0.734	-0.576
Mof_O 	O 	0.3011	0.8928	0.4026	-0.506
Mof_O 	O 	0.2411	0.8739	0.0475	-0.595
Mof_N 	N 	0.1646	0.9217	0.894	-0.234
Mof_N 	N 	0.8159	0.8792	0.615	-0.252
Mof_N 	N 	0.0846	0.9295	0.8607	-0.133
Mof_N 	N 	0.9015	0.8813	0.656	-0.144
Mof_C 	C 	0.1297	0.9013	0.832	0.112
Mof_H 	H 	0.1344	0.8721	0.7774	-0.005
Mof_C 	C 	0.8538	0.9005	0.682	0.122
Mof_H 	H 	0.847	0.926	0.7402	-0.011
Mof_C 	C 	0.8476	0.8433	0.538	0.017
Mof_H 	H 	0.8344	0.8225	0.4797	0.006
Mof_C 	C 	0.9989	0.966	0.811	-0.041
Mof_H 	H 	0.0043	0.0068	0.8439	0.035
Mof_C 	C 	0.0368	0.9186	0.805	0.057
Mof_C 	C 	0.0939	0.9645	0.942	-0.017
Mof_H 	H 	0.0704	0.9888	0.9793	0.025
Mof_C 	C 	0.1419	0.9604	0.963	0.052
Mof_H 	H 	0.1576	0.9815	0.0187	0.003
Mof_C 	C 	0.0295	0.8602	0.75	-0.054
Mof_H 	H 	0.055	0.8288	0.7437	0.037
Mof_C 	C 	0.9849	0.851	0.708	-0.092
Mof_H 	H 	0.98	0.8109	0.6721	0.054
Mof_C 	C 	0.8964	0.8436	0.56	-0.017
Mof_H 	H 	0.922	0.8239	0.5218	0.022
Mof_C 	C 	0.9446	0.8946	0.713	0.101
Mof_C 	C 	0.954	0.9516	0.767	-0.109
Mof_H 	H 	0.928	0.9822	0.775	0.062
Mof_O 	O 	0.2401	0.0079	0.4048	-0.551
Mof_W 	W 	0.84513	0.66719	0.03067	1.108
Mof_W 	W 	0.73328	0.66822	0.87165	1.399
Mof_W 	W 	0.73365	0.57766	0.11409	1.407
Mof_W 	W 	0.63201	0.65892	0.18838	1.067
Mof_W 	W 	0.73355	0.65955	0.33397	1.426
Mof_Ag	Ag	0.7429	0.6059	0.6092	1.265
Mof_O 	O 	0.7182	0.6884	0.1589	-0.823
Mof_O 	O 	0.7436	0.5781	0.2563	-0.5
Mof_O 	O 	0.6218	0.6838	0.0468	-0.484
Mof_O 	O 	0.6625	0.6845	0.86	-0.485
Mof_O 	O 	0.8	0.6714	0.9215	-0.523
Mof_O 	O 	0.874	0.6848	0.1647	-0.459
Mof_O 	O 	0.7994	0.8145	0.3033	-0.516
Mof_O 	O 	0.6623	0.646	0.3189	-0.482
Mof_O 	O 	0.6628	0.5787	0.1441	-0.471
Mof_O 	O 	0.7202	0.6057	0.9769	-0.524
Mof_O 	O 	0.7392	0.6162	0.766	-0.576
Mof_O 	O 	0.8011	0.6072	0.0974	-0.505
Mof_O 	O 	0.7411	0.6261	0.4525	-0.595
Mof_N 	N 	0.6646	0.5783	0.606	-0.234
Mof_N 	N 	0.3159	0.6208	0.885	-0.252
Mof_N 	N 	0.5846	0.5705	0.6393	-0.135
Mof_N 	N 	0.4015	0.6187	0.844	-0.143
Mof_C 	C 	0.6297	0.5987	0.668	0.112
Mof_H 	H 	0.6344	0.6279	0.7226	-0.005
Mof_C 	C 	0.3538	0.5995	0.818	0.122
Mof_H 	H 	0.347	0.574	0.7598	-0.011
Mof_C 	C 	0.3476	0.6567	0.962	0.015
Mof_H 	H 	0.3344	0.6775	0.0203	0.008
Mof_C 	C 	0.4989	0.534	0.689	-0.063
Mof_H 	H 	0.5043	0.4932	0.6561	0.047
Mof_C 	C 	0.5368	0.5814	0.695	0.067
Mof_C 	C 	0.5939	0.5355	0.558	-0.016
Mof_H 	H 	0.5704	0.5112	0.5207	0.025
Mof_C 	C 	0.6419	0.5396	0.537	0.051
Mof_H 	H 	0.6576	0.5185	0.4813	0.004
Mof_C 	C 	0.5295	0.6398	0.75	-0.059
Mof_H 	H 	0.555	0.6712	0.7563	0.039
Mof_C 	C 	0.4849	0.649	0.792	-0.088
Mof_H 	H 	0.48	0.6891	0.8279	0.053
Mof_C 	C 	0.3964	0.6564	0.94	-0.016
Mof_H 	H 	0.422	0.6761	0.9782	0.022
Mof_C 	C 	0.4446	0.6054	0.787	0.095
Mof_C 	C 	0.454	0.5484	0.733	-0.097
Mof_H 	H 	0.428	0.5178	0.725	0.057
Mof_O 	O 	0.7401	0.4921	0.0952	-0.551
Mof_W 	W 	0.65487	0.33281	0.53067	1.117
Mof_W 	W 	0.76672	0.33178	0.37165	1.399
Mof_W 	W 	0.76635	0.42234	0.61409	1.41
Mof_W 	W 	0.86799	0.34108	0.68838	1.067
Mof_W 	W 	0.76645	0.34045	0.83397	1.426
Mof_Ag	Ag	0.7571	0.3941	0.1092	1.262
Mof_O 	O 	0.7818	0.3116	0.6589	-0.824
Mof_O 	O 	0.7564	0.4219	0.7563	-0.501
Mof_O 	O 	0.8782	0.3162	0.5468	-0.481
Mof_O 	O 	0.8375	0.3155	0.36	-0.485
Mof_O 	O 	0.7	0.3286	0.4215	-0.526
Mof_O 	O 	0.626	0.3152	0.6647	-0.459
Mof_O 	O 	0.7006	0.1855	0.8033	-0.516
Mof_O 	O 	0.8377	0.354	0.8189	-0.481
Mof_O 	O 	0.8372	0.4213	0.6441	-0.471
Mof_O 	O 	0.7798	0.3943	0.4769	-0.526
Mof_O 	O 	0.7608	0.3838	0.266	-0.576
Mof_O 	O 	0.6989	0.3928	0.5974	-0.505
Mof_O 	O 	0.7589	0.3739	0.9525	-0.593
Mof_N 	N 	0.8354	0.4217	0.106	-0.233
Mof_N 	N 	0.1841	0.3792	0.385	-0.252
Mof_N 	N 	0.9154	0.4295	0.1393	-0.135
Mof_N 	N 	0.0985	0.3813	0.344	-0.144
Mof_C 	C 	0.8703	0.4013	0.168	0.112
Mof_H 	H 	0.8656	0.3721	0.2226	-0.005
Mof_C 	C 	0.1462	0.4005	0.318	0.122
Mof_H 	H 	0.153	0.426	0.2598	-0.011
Mof_C 	C 	0.1524	0.3433	0.462	0.017
Mof_H 	H 	0.1656	0.3225	0.5203	0.006
Mof_C 	C 	0.0011	0.466	0.189	-0.051
Mof_H 	H 	0.9957	0.5068	0.1561	0.041
Mof_C 	C 	0.9632	0.4186	0.195	0.062
Mof_C 	C 	0.9061	0.4645	0.058	-0.011
Mof_H 	H 	0.9296	0.4888	0.0207	0.022
Mof_C 	C 	0.8581	0.4604	0.037	0.043
Mof_H 	H 	0.8424	0.4815	0.9813	0.009
Mof_C 	C 	0.9705	0.3602	0.25	-0.058
Mof_H 	H 	0.945	0.3288	0.2563	0.039
Mof_C 	C 	0.0151	0.351	0.292	-0.088
Mof_H 	H 	0.02	0.3109	0.3279	0.053
Mof_C 	C 	0.1036	0.3436	0.44	-0.017
Mof_H 	H 	0.078	0.3239	0.4782	0.022
Mof_C 	C 	0.0554	0.3946	0.287	0.098
Mof_C 	C 	0.046	0.4516	0.233	-0.103
Mof_H 	H 	0.072	0.4822	0.225	0.06
Mof_O 	O 	0.7599	0.5079	0.5952	-0.551
Mof_W 	W 	0.84513	0.83281	0.03067	1.106
Mof_W 	W 	0.73328	0.83178	0.87165	1.399
Mof_W 	W 	0.73365	0.92234	0.11409	1.403
Mof_W 	W 	0.63201	0.84108	0.18838	1.066
Mof_W 	W 	0.73355	0.84045	0.33397	1.426
Mof_Ag	Ag	0.7429	0.8941	0.6092	1.265
Mof_O 	O 	0.7182	0.8116	0.1589	-0.822
Mof_O 	O 	0.7436	0.9219	0.2563	-0.5
Mof_O 	O 	0.6218	0.8162	0.0468	-0.484
Mof_O 	O 	0.6625	0.8155	0.86	-0.485
Mof_O 	O 	0.8	0.8286	0.9215	-0.522
Mof_O 	O 	0.874	0.8152	0.1647	-0.459
Mof_O 	O 	0.7994	0.6855	0.3033	-0.516
Mof_O 	O 	0.6623	0.854	0.3189	-0.482
Mof_O 	O 	0.6628	0.9213	0.1441	-0.471
Mof_O 	O 	0.7202	0.8943	0.9769	-0.522
Mof_O 	O 	0.7392	0.8838	0.766	-0.576
Mof_O 	O 	0.8011	0.8928	0.0974	-0.505
Mof_O 	O 	0.7411	0.8739	0.4525	-0.595
Mof_N 	N 	0.6646	0.9217	0.606	-0.234
Mof_N 	N 	0.3159	0.8792	0.885	-0.252
Mof_N 	N 	0.5846	0.9295	0.6393	-0.135
Mof_N 	N 	0.4015	0.8813	0.844	-0.143
Mof_C 	C 	0.6297	0.9013	0.668	0.112
Mof_H 	H 	0.6344	0.8721	0.7226	-0.005
Mof_C 	C 	0.3538	0.9005	0.818	0.122
Mof_H 	H 	0.347	0.926	0.7598	-0.011
Mof_C 	C 	0.3476	0.8433	0.962	0.018
Mof_H 	H 	0.3344	0.8225	0.0203	0.006
Mof_C 	C 	0.4989	0.966	0.689	-0.058
Mof_H 	H 	0.5043	0.0068	0.6561	0.044
Mof_C 	C 	0.5368	0.9186	0.695	0.066
Mof_C 	C 	0.5939	0.9645	0.558	-0.016
Mof_H 	H 	0.5704	0.9888	0.5207	0.025
Mof_C 	C 	0.6419	0.9604	0.537	0.051
Mof_H 	H 	0.6576	0.9815	0.4813	0.003
Mof_C 	C 	0.5295	0.8602	0.75	-0.057
Mof_H 	H 	0.555	0.8288	0.7563	0.039
Mof_C 	C 	0.4849	0.851	0.792	-0.09
Mof_H 	H 	0.48	0.8109	0.8279	0.053
Mof_C 	C 	0.3964	0.8436	0.94	-0.017
Mof_H 	H 	0.422	0.8239	0.9782	0.023
Mof_C 	C 	0.4446	0.8946	0.787	0.097
Mof_C 	C 	0.454	0.9516	0.733	-0.099
Mof_H 	H 	0.428	0.9822	0.725	0.058
Mof_O 	O 	0.7401	0.0079	0.0952	-0.549
Mof_W 	W 	0.65487	0.16719	0.53067	1.117
Mof_W 	W 	0.76672	0.16822	0.37165	1.399
Mof_W 	W 	0.76635	0.07766	0.61409	1.41
Mof_W 	W 	0.86799	0.15892	0.68838	1.067
Mof_W 	W 	0.76645	0.15955	0.83397	1.426
Mof_Ag	Ag	0.7571	0.1059	0.1092	1.264
Mof_O 	O 	0.7818	0.1884	0.6589	-0.824
Mof_O 	O 	0.7564	0.0781	0.7563	-0.501
Mof_O 	O 	0.8782	0.1838	0.5468	-0.481
Mof_O 	O 	0.8375	0.1845	0.36	-0.485
Mof_O 	O 	0.7	0.1714	0.4215	-0.526
Mof_O 	O 	0.626	0.1848	0.6647	-0.46
Mof_O 	O 	0.7006	0.3145	0.8033	-0.516
Mof_O 	O 	0.8377	0.146	0.8189	-0.482
Mof_O 	O 	0.8372	0.0787	0.6441	-0.471
Mof_O 	O 	0.7798	0.1057	0.4769	-0.526
Mof_O 	O 	0.7608	0.1162	0.266	-0.576
Mof_O 	O 	0.6989	0.1072	0.5974	-0.506
Mof_O 	O 	0.7589	0.1261	0.9525	-0.595
Mof_N 	N 	0.8354	0.0783	0.106	-0.234
Mof_N 	N 	0.1841	0.1208	0.385	-0.252
Mof_N 	N 	0.9154	0.0705	0.1393	-0.133
Mof_N 	N 	0.0985	0.1187	0.344	-0.144
Mof_C 	C 	0.8703	0.0987	0.168	0.112
Mof_H 	H 	0.8656	0.1279	0.2226	-0.005
Mof_C 	C 	0.1462	0.0995	0.318	0.122
Mof_H 	H 	0.153	0.074	0.2598	-0.011
Mof_C 	C 	0.1524	0.1567	0.462	0.017
Mof_H 	H 	0.1656	0.1775	0.5203	0.006
Mof_C 	C 	0.0011	0.034	0.189	-0.041
Mof_H 	H 	0.9957	0.9932	0.1561	0.035
Mof_C 	C 	0.9632	0.0814	0.195	0.057
Mof_C 	C 	0.9061	0.0355	0.058	-0.017
Mof_H 	H 	0.9296	0.0112	0.0207	0.025
Mof_C 	C 	0.8581	0.0396	0.037	0.052
Mof_H 	H 	0.8424	0.0185	0.9813	0.003
Mof_C 	C 	0.9705	0.1398	0.25	-0.054
Mof_H 	H 	0.945	0.1712	0.2563	0.037
Mof_C 	C 	0.0151	0.149	0.292	-0.092
Mof_H 	H 	0.02	0.1891	0.3279	0.054
Mof_C 	C 	0.1036	0.1564	0.44	-0.017
Mof_H 	H 	0.078	0.1761	0.4782	0.022
Mof_C 	C 	0.0554	0.1054	0.287	0.101
Mof_C 	C 	0.046	0.0484	0.233	-0.109
Mof_H 	H 	0.072	0.0178	0.225	0.062
Mof_O 	O 	0.7599	0.9921	0.5952	-0.551
Mof_W 	W 	0.15487	0.33281	0.96933	1.108
Mof_W 	W 	0.26672	0.33178	0.12835	1.399
Mof_W 	W 	0.26635	0.42234	0.88591	1.407
Mof_W 	W 	0.36799	0.34108	0.81162	1.067
Mof_W 	W 	0.26645	0.34045	0.66603	1.426
Mof_Ag	Ag	0.2571	0.3941	0.3908	1.265
Mof_O 	O 	0.2818	0.3116	0.8411	-0.823
Mof_O 	O 	0.2564	0.4219	0.7437	-0.5
Mof_O 	O 	0.3782	0.3162	0.9532	-0.484
Mof_O 	O 	0.3375	0.3155	0.14	-0.485
Mof_O 	O 	0.2	0.3286	0.0785	-0.523
Mof_O 	O 	0.126	0.3152	0.8353	-0.459
Mof_O 	O 	0.2006	0.1855	0.6967	-0.516
Mof_O 	O 	0.3377	0.354	0.6811	-0.482
Mof_O 	O 	0.3372	0.4213	0.8559	-0.471
Mof_O 	O 	0.2798	0.3943	0.0231	-0.524
Mof_O 	O 	0.2608	0.3838	0.234	-0.576
Mof_O 	O 	0.1989	0.3928	0.9026	-0.505
Mof_O 	O 	0.2589	0.3739	0.5475	-0.595
Mof_N 	N 	0.3354	0.4217	0.394	-0.234
Mof_N 	N 	0.6841	0.3792	0.115	-0.252
Mof_N 	N 	0.4154	0.4295	0.3607	-0.135
Mof_N 	N 	0.5985	0.3813	0.156	-0.143
Mof_C 	C 	0.3703	0.4013	0.332	0.112
Mof_H 	H 	0.3656	0.3721	0.2774	-0.005
Mof_C 	C 	0.6462	0.4005	0.182	0.122
Mof_H 	H 	0.653	0.426	0.2402	-0.011
Mof_C 	C 	0.6524	0.3433	0.038	0.015
Mof_H 	H 	0.6656	0.3225	0.9797	0.008
Mof_C 	C 	0.5011	0.466	0.311	-0.063
Mof_H 	H 	0.4957	0.5068	0.3439	0.047
Mof_C 	C 	0.4632	0.4186	0.305	0.067
Mof_C 	C 	0.4061	0.4645	0.442	-0.016
Mof_H 	H 	0.4296	0.4888	0.4793	0.025
Mof_C 	C 	0.3581	0.4604	0.463	0.051
Mof_H 	H 	0.3424	0.4815	0.5187	0.004
Mof_C 	C 	0.4705	0.3602	0.25	-0.059
Mof_H 	H 	0.445	0.3288	0.2437	0.039
Mof_C 	C 	0.5151	0.351	0.208	-0.088
Mof_H 	H 	0.52	0.3109	0.1721	0.053
Mof_C 	C 	0.6036	0.3436	0.06	-0.016
Mof_H 	H 	0.578	0.3239	0.0218	0.022
Mof_C 	C 	0.5554	0.3946	0.213	0.095
Mof_C 	C 	0.546	0.4516	0.267	-0.097
Mof_H 	H 	0.572	0.4822	0.275	0.057
Mof_O 	O 	0.2599	0.5079	0.9048	-0.551
Mof_W 	W 	0.34513	0.66719	0.46933	1.117
Mof_W 	W 	0.23328	0.66822	0.62835	1.399
Mof_W 	W 	0.23365	0.57766	0.38591	1.41
Mof_W 	W 	0.13201	0.65892	0.31162	1.067
Mof_W 	W 	0.23355	0.65955	0.16603	1.426
Mof_Ag	Ag	0.2429	0.6059	0.8908	1.262
Mof_O 	O 	0.2182	0.6884	0.3411	-0.824
Mof_O 	O 	0.2436	0.5781	0.2437	-0.501
Mof_O 	O 	0.1218	0.6838	0.4532	-0.481
Mof_O 	O 	0.1625	0.6845	0.64	-0.485
Mof_O 	O 	0.3	0.6714	0.5785	-0.526
Mof_O 	O 	0.374	0.6848	0.3353	-0.459
Mof_O 	O 	0.2994	0.8145	0.1967	-0.516
Mof_O 	O 	0.1623	0.646	0.1811	-0.481
Mof_O 	O 	0.1628	0.5787	0.3559	-0.471
Mof_O 	O 	0.2202	0.6057	0.5231	-0.526
Mof_O 	O 	0.2392	0.6162	0.734	-0.576
Mof_O 	O 	0.3011	0.6072	0.4026	-0.505
Mof_O 	O 	0.2411	0.6261	0.0475	-0.593
Mof_N 	N 	0.1646	0.5783	0.894	-0.233
Mof_N 	N 	0.8159	0.6208	0.615	-0.252
Mof_N 	N 	0.0846	0.5705	0.8607	-0.135
Mof_N 	N 	0.9015	0.6187	0.656	-0.144
Mof_C 	C 	0.1297	0.5987	0.832	0.112
Mof_H 	H 	0.1344	0.6279	0.7774	-0.005
Mof_C 	C 	0.8538	0.5995	0.682	0.122
Mof_H 	H 	0.847	0.574	0.7402	-0.011
Mof_C 	C 	0.8476	0.6567	0.538	0.017
Mof_H 	H 	0.8344	0.6775	0.4797	0.006
Mof_C 	C 	0.9989	0.534	0.811	-0.051
Mof_H 	H 	0.0043	0.4932	0.8439	0.041
Mof_C 	C 	0.0368	0.5814	0.805	0.062
Mof_C 	C 	0.0939	0.5355	0.942	-0.011
Mof_H 	H 	0.0704	0.5112	0.9793	0.022
Mof_C 	C 	0.1419	0.5396	0.963	0.043
Mof_H 	H 	0.1576	0.5185	0.0187	0.009
Mof_C 	C 	0.0295	0.6398	0.75	-0.058
Mof_H 	H 	0.055	0.6712	0.7437	0.039
Mof_C 	C 	0.9849	0.649	0.708	-0.088
Mof_H 	H 	0.98	0.6891	0.6721	0.053
Mof_C 	C 	0.8964	0.6564	0.56	-0.017
Mof_H 	H 	0.922	0.6761	0.5218	0.022
Mof_C 	C 	0.9446	0.6054	0.713	0.098
Mof_C 	C 	0.954	0.5484	0.767	-0.103
Mof_H 	H 	0.928	0.5178	0.775	0.06
Mof_O 	O 	0.2401	0.4921	0.4048	-0.551
Mof_W 	W 	0.15469	0.25	0.74765	1.105
Mof_W 	W 	0.36799	0.25	0.05493	1.096
Mof_O 	O 	0.2075	0.25	0.8946	-0.785
Mof_O 	O 	0.3763	0.25	0.7756	-0.485
Mof_O 	O 	0.1271	0.25	0.0076	-0.469
Mof_O 	O 	0.2797	0.25	0.636	-0.559
Mof_O 	O 	0.2567	0.25	0.201	-0.54
Mof_O 	O 	0.2842	0.25	0.004	-0.834
Mof_B 	B 	0.2637	0.25	0.896	1.921
Mof_W 	W 	0.34531	0.75	0.24765	1.106
Mof_W 	W 	0.13201	0.75	0.55493	1.091
Mof_O 	O 	0.2925	0.75	0.3946	-0.786
Mof_O 	O 	0.1237	0.75	0.2756	-0.485
Mof_O 	O 	0.3729	0.75	0.5076	-0.476
Mof_O 	O 	0.2203	0.75	0.136	-0.559
Mof_O 	O 	0.2433	0.75	0.701	-0.54
Mof_O 	O 	0.2158	0.75	0.504	-0.838
Mof_B 	B 	0.2363	0.75	0.396	1.928
Mof_W 	W 	0.84531	0.75	0.25235	1.105
Mof_W 	W 	0.63201	0.75	0.94507	1.096
Mof_O 	O 	0.7925	0.75	0.1054	-0.785
Mof_O 	O 	0.6237	0.75	0.2244	-0.485
Mof_O 	O 	0.8729	0.75	0.9924	-0.469
Mof_O 	O 	0.7203	0.75	0.364	-0.559
Mof_O 	O 	0.7433	0.75	0.799	-0.54
Mof_O 	O 	0.7158	0.75	0.996	-0.834
Mof_B 	B 	0.7363	0.75	0.104	1.921
Mof_W 	W 	0.65469	0.25	0.75235	1.106
Mof_W 	W 	0.86799	0.25	0.44507	1.091
Mof_O 	O 	0.7075	0.25	0.6054	-0.786
Mof_O 	O 	0.8763	0.25	0.7244	-0.485
Mof_O 	O 	0.6271	0.25	0.4924	-0.476
Mof_O 	O 	0.7797	0.25	0.864	-0.559
Mof_O 	O 	0.7567	0.25	0.299	-0.54
Mof_O 	O 	0.7842	0.25	0.496	-0.838
Mof_B 	B 	0.7637	0.25	0.604	1.928
_end
