data_functionalizedCrystal
_audit_creation_method	'EQeq! by Chris Wilmer'
_symmetry_space_group_name_H-M	'P1'
_symmetry_Int_Tables_number	1
_symmetry_cell_setting	triclinic
loop_
_symmetry_equiv_pos_as_xyz
  x,y,z
_cell_length_a	9.0838
_cell_length_b	9.6157
_cell_length_c	12.4252
_cell_angle_alpha	93.488
_cell_angle_beta	104.357
_cell_angle_gamma	113.993
loop_
_atom_site_label
_atom_site_type_symbol
_atom_site_fract_x
_atom_site_fract_y
_atom_site_fract_z
_atom_site_charge
Mof_C 	C 	0.6685	0.3465	0.0597	0.215
Mof_C 	C 	0.2958	0.1495	0.0251	0.178
Mof_C 	C 	0.1739	0.1486	0.2208	0.338
Mof_C 	C 	0.7326	0.1846	0.2442	0.365
Mof_C 	C 	0.6444	0.2842	0.2579	-0.169
Mof_H 	H 	0.7194	0.3701	0.3211	0.1
Mof_C 	C 	0.5875	0.3548	0.1525	-0.093
Mof_H 	H 	0.6311	0.4655	0.1815	0.07
Mof_C 	C 	0.3915	0.2906	0.1195	-0.052
Mof_H 	H 	0.3589	0.3728	0.0982	0.022
Mof_C 	C 	0.355	0.2506	0.2328	-0.151
Mof_H 	H 	0.3853	0.3486	0.281	0.084
Mof_C 	C 	0.4813	0.1888	0.2885	-0.004
Mof_H 	H 	0.4385	0.0794	0.2594	0.037
Mof_H 	H 	0.5025	0.2036	0.3698	0.036
Mof_C 	C 	0.8666	0.8307	0.3979	0.131
Mof_H 	H 	0.9831	0.8844	0.4139	0.027
Mof_C 	C 	0.8054	0.7325	0.467	-0.212
Mof_H 	H 	0.8787	0.7213	0.5292	0.141
Mof_C 	C 	0.6333	0.6498	0.4435	0.183
Mof_C 	C 	0.5274	0.6712	0.3513	-0.198
Mof_H 	H 	0.4107	0.6169	0.3337	0.095
Mof_C 	C 	0.5991	0.7748	0.2863	0.108
Mof_H 	H 	0.5283	0.7905	0.2252	-0.005
Mof_N 	N 	0.576	0.5449	0.5174	-0.104
Mof_Co	Co	0.86686	0.00499	0.2041	1.153
Mof_N 	N 	0.7683	0.8547	0.3075	-0.23
Mof_O 	O 	0.602	0.2303	0.9824	-0.294
Mof_O 	O 	0.8058	0.4606	0.0715	-0.436
Mof_O 	O 	0.3062	0.0264	0.0439	-0.448
Mof_O 	O 	0.2104	0.1641	0.9323	-0.323
Mof_O 	O 	0.0602	0.1745	0.1555	-0.465
Mof_O 	O 	0.1317	0.0418	0.2765	-0.421
Mof_O 	O 	0.6627	0.0662	0.1643	-0.564
Mof_O 	O 	0.8709	0.2119	0.3093	-0.377
Mof_C 	C 	0.3315	0.6535	0.9403	0.511
Mof_C 	C 	0.7042	0.8505	0.9749	0.476
Mof_C 	C 	0.8261	0.8514	0.7792	0.292
Mof_C 	C 	0.2674	0.8154	0.7558	0.341
Mof_C 	C 	0.3556	0.7158	0.7421	-0.114
Mof_H 	H 	0.2806	0.6299	0.6789	0.071
Mof_C 	C 	0.4125	0.6452	0.8475	-0.148
Mof_H 	H 	0.3689	0.5345	0.8185	0.091
Mof_C 	C 	0.6085	0.7094	0.8805	-0.121
Mof_H 	H 	0.6411	0.6272	0.9018	0.103
Mof_C 	C 	0.645	0.7494	0.7672	-0.074
Mof_H 	H 	0.6147	0.6514	0.719	0.067
Mof_C 	C 	0.5187	0.8112	0.7115	-0.076
Mof_H 	H 	0.5615	0.9206	0.7406	0.088
Mof_H 	H 	0.4975	0.7964	0.6302	0.069
Mof_C 	C 	0.1334	0.1693	0.6021	0.119
Mof_H 	H 	0.0169	0.1156	0.5861	-0.048
Mof_C 	C 	0.1946	0.2675	0.533	-0.231
Mof_H 	H 	0.1213	0.2787	0.4708	0.112
Mof_C 	C 	0.3667	0.3502	0.5565	0.183
Mof_C 	C 	0.4726	0.3288	0.6487	-0.211
Mof_H 	H 	0.5893	0.3831	0.6663	0.11
Mof_C 	C 	0.4009	0.2252	0.7137	0.107
Mof_H 	H 	0.4717	0.2095	0.7748	-0.015
Mof_N 	N 	0.424	0.4551	0.4826	-0.11
Mof_Co	Co	0.13314	0.99501	0.7959	1.171
Mof_N 	N 	0.2317	0.1453	0.6925	-0.271
Mof_O 	O 	0.398	0.7697	0.0176	-0.547
Mof_O 	O 	0.1942	0.5394	0.9285	-0.461
Mof_O 	O 	0.6938	0.9736	0.9561	-0.363
Mof_O 	O 	0.7896	0.8359	0.0677	-0.485
Mof_O 	O 	0.9398	0.8255	0.8445	-0.324
Mof_O 	O 	0.8683	0.9582	0.7235	-0.311
Mof_O 	O 	0.3373	0.9338	0.8357	-0.472
Mof_O 	O 	0.1291	0.7881	0.6907	-0.4
Mof_Co	Co	0.5	0	-0	1.122
Mof_Co	Co	-0	0.5	-0	1.012
_end
