data_functionalizedCrystal
_audit_creation_method	'EQeq! by Chris Wilmer'
_symmetry_space_group_name_H-M	'P1'
_symmetry_Int_Tables_number	1
_symmetry_cell_setting	triclinic
loop_
_symmetry_equiv_pos_as_xyz
  x,y,z
_cell_length_a	12.572
_cell_length_b	12.572
_cell_length_c	8.2184
_cell_angle_alpha	90
_cell_angle_beta	90
_cell_angle_gamma	120
loop_
_atom_site_label
_atom_site_type_symbol
_atom_site_fract_x
_atom_site_fract_y
_atom_site_fract_z
_atom_site_charge
Mof_Mg	Mg	0.33402	0.33274	0.58666	1.48
Mof_O 	O 	0.42331	0.26519	0.44191	-0.467
Mof_O 	O 	0.42395	0.15618	0.22978	-0.556
Mof_O 	O 	0.40022	0.48946	0.44121	-0.466
Mof_O 	O 	0.50832	0.59961	0.22919	-0.558
Mof_O 	O 	0.17599	0.24136	0.44338	-0.462
Mof_O 	O 	0.06814	0.24438	0.23118	-0.552
Mof_C 	C 	0.37318	0.18678	0.3347	0.543
Mof_H 	H 	0.2878	0.146	0.3321	-0.166
Mof_C 	C 	0.47762	0.5174	0.3321	0.545
Mof_H 	H 	0.5171	0.4716	0.3268	-0.167
Mof_C 	C 	0.14461	0.29339	0.3419	0.537
Mof_H 	H 	0.1825	0.3784	0.3496	-0.157
Mof_Mg	Mg	0.66726	0.00128	0.58666	1.478
Mof_O 	O 	0.73481	0.15812	0.44191	-0.47
Mof_O 	O 	0.84382	0.26777	0.22978	-0.556
Mof_O 	O 	0.51054	0.91076	0.44121	-0.469
Mof_O 	O 	0.40039	0.90871	0.22919	-0.562
Mof_O 	O 	0.75864	0.93463	0.44338	-0.458
Mof_O 	O 	0.75562	0.82376	0.23118	-0.555
Mof_C 	C 	0.81322	0.1864	0.3347	0.544
Mof_H 	H 	0.854	0.1418	0.3321	-0.168
Mof_C 	C 	0.4826	0.96022	0.3321	0.566
Mof_H 	H 	0.5284	0.0455	0.3268	-0.179
Mof_C 	C 	0.70661	0.85122	0.3419	0.537
Mof_H 	H 	0.6216	0.8041	0.3496	-0.157
Mof_Mg	Mg	0.99872	0.66598	0.58666	1.478
Mof_O 	O 	0.84188	0.57669	0.44191	-0.47
Mof_O 	O 	0.73223	0.57605	0.22978	-0.556
Mof_O 	O 	0.08924	0.59978	0.44121	-0.469
Mof_O 	O 	0.09129	0.49168	0.22919	-0.562
Mof_O 	O 	0.06537	0.82401	0.44338	-0.454
Mof_O 	O 	0.17624	0.93186	0.23118	-0.549
Mof_C 	C 	0.8136	0.62682	0.3347	0.544
Mof_H 	H 	0.8582	0.7122	0.3321	-0.166
Mof_C 	C 	0.03978	0.52238	0.3321	0.566
Mof_H 	H 	0.9545	0.4829	0.3268	-0.179
Mof_C 	C 	0.14878	0.85539	0.3419	0.535
Mof_H 	H 	0.1959	0.8175	0.3496	-0.156
Mof_Mg	Mg	0.66598	0.66726	0.08666	1.451
Mof_O 	O 	0.57669	0.73481	0.94191	-0.315
Mof_O 	O 	0.57605	0.84382	0.72978	-0.41
Mof_O 	O 	0.59978	0.51054	0.94121	-0.316
Mof_O 	O 	0.49168	0.40039	0.72919	-0.416
Mof_O 	O 	0.82401	0.75864	0.94338	-0.314
Mof_O 	O 	0.93186	0.75562	0.73118	-0.42
Mof_C 	C 	0.62682	0.81322	0.8347	0.48
Mof_H 	H 	0.7122	0.854	0.8321	-0.083
Mof_C 	C 	0.52238	0.4826	0.8321	0.482
Mof_H 	H 	0.4829	0.5284	0.8268	-0.087
Mof_C 	C 	0.85539	0.70661	0.8419	0.477
Mof_H 	H 	0.8175	0.6216	0.8496	-0.079
Mof_Mg	Mg	0.33274	0.99872	0.08666	1.452
Mof_O 	O 	0.26519	0.84188	0.94191	-0.311
Mof_O 	O 	0.15618	0.73223	0.72978	-0.409
Mof_O 	O 	0.48946	0.08924	0.94121	-0.313
Mof_O 	O 	0.59961	0.09129	0.72919	-0.411
Mof_O 	O 	0.24136	0.06537	0.94338	-0.319
Mof_O 	O 	0.24438	0.17624	0.73118	-0.416
Mof_C 	C 	0.18678	0.8136	0.8347	0.479
Mof_H 	H 	0.146	0.8582	0.8321	-0.078
Mof_C 	C 	0.5174	0.03978	0.8321	0.448
Mof_H 	H 	0.4716	0.9545	0.8268	-0.066
Mof_C 	C 	0.29339	0.14878	0.8419	0.478
Mof_H 	H 	0.3784	0.1959	0.8496	-0.079
Mof_Mg	Mg	0.00128	0.33402	0.08666	1.453
Mof_O 	O 	0.15812	0.42331	0.94191	-0.313
Mof_O 	O 	0.26777	0.42395	0.72978	-0.413
Mof_O 	O 	0.91076	0.40022	0.94121	-0.314
Mof_O 	O 	0.90871	0.50832	0.72919	-0.411
Mof_O 	O 	0.93463	0.17599	0.94338	-0.327
Mof_O 	O 	0.82376	0.06814	0.73118	-0.425
Mof_C 	C 	0.1864	0.37318	0.8347	0.48
Mof_H 	H 	0.1418	0.2878	0.8321	-0.082
Mof_C 	C 	0.96022	0.47762	0.8321	0.449
Mof_H 	H 	0.0455	0.5171	0.8268	-0.067
Mof_C 	C 	0.85122	0.14461	0.8419	0.48
Mof_H 	H 	0.8041	0.1825	0.8496	-0.082
_end
