data_functionalizedCrystal
_audit_creation_method	'EQeq! by Chris Wilmer'
_symmetry_space_group_name_H-M	'P1'
_symmetry_Int_Tables_number	1
_symmetry_cell_setting	triclinic
loop_
_symmetry_equiv_pos_as_xyz
  x,y,z
_cell_length_a	7.3096
_cell_length_b	12.267
_cell_length_c	13.891
_cell_angle_alpha	82.96
_cell_angle_beta	80.951
_cell_angle_gamma	72.897
loop_
_atom_site_label
_atom_site_type_symbol
_atom_site_fract_x
_atom_site_fract_y
_atom_site_fract_z
_atom_site_charge
Mof_Ni	Ni	0.58402	0.56311	0.251	1.071
Mof_Ni	Ni	0.04793	0.71244	0.03946	1.072
Mof_Ni	Ni	0.41598	0.43689	0.749	1.071
Mof_Ni	Ni	0.95207	0.28756	0.96054	1.072
Mof_H 	H 	0.2088	0.8993	0.326	0.047
Mof_H 	H 	0.9669	0.0474	0.3917	0.075
Mof_H 	H 	0.5736	0.9232	0.3025	0.061
Mof_H 	H 	0.247	0.1918	0.4889	0.077
Mof_H 	H 	0.9613	0.2819	0.423	0.046
Mof_H 	H 	0.5134	0.1315	0.2162	0.064
Mof_H 	H 	0.5723	0.3601	0.3972	0.031
Mof_H 	H 	0.5006	0.3198	0.5604	0.055
Mof_H 	H 	0.2914	0.8791	0.0197	0.036
Mof_H 	H 	0.2577	0.0716	0.9817	0.037
Mof_H 	H 	0.7912	0.1007	0.674	0.046
Mof_H 	H 	0.0331	0.9526	0.6083	0.074
Mof_H 	H 	0.4264	0.0768	0.6975	0.06
Mof_H 	H 	0.753	0.8082	0.5111	0.076
Mof_H 	H 	0.0387	0.7181	0.577	0.045
Mof_H 	H 	0.4866	0.8685	0.7838	0.063
Mof_H 	H 	0.4277	0.6399	0.6028	0.031
Mof_H 	H 	0.4994	0.6802	0.4396	0.055
Mof_H 	H 	0.7086	0.1209	0.9803	0.036
Mof_H 	H 	0.7423	0.9284	0.0183	0.037
Mof_C 	C 	0.0427	0.8248	0.2698	-0.106
Mof_C 	C 	0.0813	0.9053	0.3196	0.02
Mof_C 	C 	0.9374	0.9935	0.3599	-0.062
Mof_C 	C 	0.7453	0.001	0.3522	0.007
Mof_C 	C 	0.7015	0.9192	0.3059	-0.041
Mof_C 	C 	0.8526	0.8301	0.2642	-0.039
Mof_C 	C 	0.5932	0.094	0.401	0.129
Mof_C 	C 	0.408	0.1498	0.3585	0.005
Mof_C 	C 	0.2439	0.1972	0.4218	-0.064
Mof_C 	C 	0.0736	0.2534	0.3811	-0.005
Mof_C 	C 	0.0657	0.2676	0.2851	-0.049
Mof_C 	C 	0.2326	0.2231	0.218	-0.057
Mof_C 	C 	0.4023	0.1631	0.2578	-0.04
Mof_C 	C 	0.208	0.7334	0.2273	0.407
Mof_C 	C 	0.7923	0.7415	0.2211	0.343
Mof_C 	C 	0.2358	0.2405	0.1112	0.33
Mof_C 	C 	0.8747	0.3314	0.2505	0.327
Mof_C 	C 	0.5418	0.4185	0.4389	0.006
Mof_C 	C 	0.5008	0.3939	0.5364	0.01
Mof_C 	C 	0.17	0.9281	0.011	0.001
Mof_C 	C 	0.15	0.0441	0.9896	0.024
Mof_C 	C 	0.9573	0.1752	0.7302	-0.106
Mof_C 	C 	0.9187	0.0947	0.6804	0.02
Mof_C 	C 	0.0626	0.0065	0.6401	-0.062
Mof_C 	C 	0.2547	0.999	0.6478	0.007
Mof_C 	C 	0.2985	0.0808	0.6941	-0.041
Mof_C 	C 	0.1474	0.1699	0.7358	-0.039
Mof_C 	C 	0.4068	0.906	0.599	0.129
Mof_C 	C 	0.592	0.8502	0.6415	0.005
Mof_C 	C 	0.7561	0.8028	0.5782	-0.064
Mof_C 	C 	0.9264	0.7466	0.6189	-0.005
Mof_C 	C 	0.9343	0.7324	0.7149	-0.049
Mof_C 	C 	0.7674	0.7769	0.782	-0.057
Mof_C 	C 	0.5977	0.8369	0.7422	-0.04
Mof_C 	C 	0.792	0.2666	0.7727	0.407
Mof_C 	C 	0.2077	0.2585	0.7789	0.343
Mof_C 	C 	0.7642	0.7595	0.8888	0.33
Mof_C 	C 	0.1253	0.6686	0.7495	0.327
Mof_C 	C 	0.4582	0.5815	0.5611	0.006
Mof_C 	C 	0.4992	0.6061	0.4636	0.01
Mof_C 	C 	0.83	0.0719	0.989	0.001
Mof_C 	C 	0.85	0.9559	0.0104	0.024
Mof_N 	N 	0.5396	0.5238	0.4014	-0.197
Mof_N 	N 	0.0213	0.8848	0.0196	-0.208
Mof_N 	N 	0.4604	0.4762	0.5986	-0.197
Mof_N 	N 	0.9787	0.1152	0.9804	-0.208
Mof_O 	O 	0.3521	0.7012	0.2727	-0.43
Mof_O 	O 	0.2039	0.6937	0.1506	-0.503
Mof_O 	O 	0.8005	0.7417	0.1314	-0.442
Mof_O 	O 	0.7305	0.6718	0.2824	-0.388
Mof_O 	O 	0.6167	0.1225	0.4774	-0.205
Mof_O 	O 	0.3901	0.2105	0.0573	-0.291
Mof_O 	O 	0.0697	0.2857	0.0824	-0.431
Mof_O 	O 	0.7544	0.2812	0.2463	-0.3
Mof_O 	O 	0.8439	0.4406	0.2401	-0.42
Mof_O 	O 	0.6479	0.2988	0.7273	-0.43
Mof_O 	O 	0.7961	0.3063	0.8494	-0.503
Mof_O 	O 	0.1995	0.2583	0.8686	-0.442
Mof_O 	O 	0.2695	0.3282	0.7176	-0.388
Mof_O 	O 	0.3833	0.8775	0.5226	-0.205
Mof_O 	O 	0.6099	0.7895	0.9427	-0.291
Mof_O 	O 	0.9303	0.7143	0.9176	-0.431
Mof_O 	O 	0.2456	0.7188	0.7537	-0.3
Mof_O 	O 	0.1561	0.5594	0.7599	-0.42
_end
