data_functionalizedCrystal
_audit_creation_method	'EQeq! by Chris Wilmer'
_symmetry_space_group_name_H-M	'P1'
_symmetry_Int_Tables_number	1
_symmetry_cell_setting	triclinic
loop_
_symmetry_equiv_pos_as_xyz
  x,y,z
_cell_length_a	9.9937
_cell_length_b	9.9937
_cell_length_c	12.8519
_cell_angle_alpha	90
_cell_angle_beta	90
_cell_angle_gamma	90
loop_
_atom_site_label
_atom_site_type_symbol
_atom_site_fract_x
_atom_site_fract_y
_atom_site_fract_z
_atom_site_charge
Mof_Co	Co	0.8789	0.1261	0.2981	1.203
Mof_P 	P 	0.8501	0.8614	0.1784	0.618
Mof_O 	O 	0.7278	0.7776	0.1732	-0.425
Mof_O 	O 	0.9227	0.8479	0.0757	-0.399
Mof_O 	O 	0.8096	0.0101	0.1933	-0.518
Mof_O 	O 	0.88	0.0426	0.4337	-0.37
Mof_O 	O 	0.0581	0.1857	0.2642	-0.508
Mof_Co	Co	0.1211	0.8739	0.2981	1.175
Mof_P 	P 	0.1499	0.1386	0.1784	0.502
Mof_O 	O 	0.2722	0.2224	0.1732	-0.447
Mof_O 	O 	0.0773	0.1521	0.0757	-0.499
Mof_O 	O 	0.1904	0.9899	0.1933	-0.419
Mof_O 	O 	0.12	0.9574	0.4337	-0.347
Mof_O 	O 	0.9419	0.8143	0.2642	-0.412
Mof_Co	Co	0.1261	0.1211	0.7019	1.162
Mof_P 	P 	0.8614	0.1499	0.8216	0.618
Mof_O 	O 	0.7776	0.2722	0.8268	-0.397
Mof_O 	O 	0.8479	0.0773	0.9243	-0.37
Mof_O 	O 	0.0101	0.1904	0.8067	-0.513
Mof_O 	O 	0.0426	0.12	0.5663	-0.439
Mof_O 	O 	0.1857	0.9419	0.7358	-0.416
Mof_Co	Co	0.8739	0.8789	0.7019	1.221
Mof_P 	P 	0.1386	0.8501	0.8216	0.503
Mof_O 	O 	0.2224	0.7278	0.8268	-0.404
Mof_O 	O 	0.1521	0.9227	0.9243	-0.335
Mof_O 	O 	0.9899	0.8096	0.8067	-0.366
Mof_O 	O 	0.9574	0.88	0.5663	-0.287
Mof_O 	O 	0.8143	0.0581	0.7358	-0.481
Mof_Co	Co	0.6211	0.6261	0.2019	1.191
Mof_P 	P 	0.6499	0.3614	0.3216	0.561
Mof_O 	O 	0.7722	0.2776	0.3268	-0.41
Mof_O 	O 	0.5773	0.3479	0.4243	-0.429
Mof_O 	O 	0.6904	0.5101	0.3067	-0.451
Mof_O 	O 	0.62	0.5426	0.0663	-0.427
Mof_O 	O 	0.4419	0.6857	0.2358	-0.46
Mof_Co	Co	0.3789	0.3739	0.2019	1.183
Mof_P 	P 	0.3501	0.6386	0.3216	0.562
Mof_O 	O 	0.2278	0.7224	0.3268	-0.436
Mof_O 	O 	0.4227	0.6521	0.4243	-0.42
Mof_O 	O 	0.3096	0.4899	0.3067	-0.474
Mof_O 	O 	0.38	0.4574	0.0663	-0.444
Mof_O 	O 	0.5581	0.3143	0.2358	-0.475
Mof_Co	Co	0.3739	0.6211	0.7981	1.193
Mof_P 	P 	0.6386	0.6499	0.6784	0.562
Mof_O 	O 	0.7224	0.7722	0.6732	-0.393
Mof_O 	O 	0.6521	0.5773	0.5757	-0.414
Mof_O 	O 	0.4899	0.6904	0.6933	-0.449
Mof_O 	O 	0.4574	0.62	0.9337	-0.323
Mof_O 	O 	0.3143	0.4419	0.7642	-0.455
Mof_Co	Co	0.6261	0.3789	0.7981	1.195
Mof_P 	P 	0.3614	0.3501	0.6784	0.561
Mof_O 	O 	0.2776	0.2278	0.6732	-0.435
Mof_O 	O 	0.3479	0.4227	0.5757	-0.434
Mof_O 	O 	0.5101	0.3096	0.6933	-0.464
Mof_O 	O 	0.5426	0.38	0.9337	-0.331
Mof_O 	O 	0.6857	0.5581	0.7642	-0.434
Mof_Co	Co	-0	0	-0	1.054
Mof_Co	Co	0.5	0.5	0.5	1.182
Mof_P 	P 	7.32753e-33	0	0.5	0.29
Mof_P 	P 	0.5	0.5	-0	0.374
_end
