data_functionalizedCrystal
_audit_creation_method	'EQeq! by Chris Wilmer'
_symmetry_space_group_name_H-M	'P1'
_symmetry_Int_Tables_number	1
_symmetry_cell_setting	triclinic
loop_
_symmetry_equiv_pos_as_xyz
  x,y,z
_cell_length_a	12.336
_cell_length_b	12.488
_cell_length_c	12.488
_cell_angle_alpha	120
_cell_angle_beta	90
_cell_angle_gamma	90
loop_
_atom_site_label
_atom_site_type_symbol
_atom_site_fract_x
_atom_site_fract_y
_atom_site_fract_z
_atom_site_charge
Mof_Eu	Eu	-0	0	-0	1.696
Mof_H 	H 	0.6524	0.9128	0.2318	0.126
Mof_H 	H 	0.64	0.7104	0.204	0.063
Mof_H 	H 	0.5869	0.7979	0.3329	0.07
Mof_H 	H 	0.8029	0.8032	0.2771	0.11
Mof_H 	H 	0.7513	0.8894	0.407	0.121
Mof_H 	H 	0.7474	0.0856	0.4478	0.092
Mof_H 	H 	0.6769	0.1204	0.3658	0.106
Mof_H 	H 	0.6717	0.0715	0.604	0.053
Mof_H 	H 	0.4691	0.0713	0.3538	0.039
Mof_H 	H 	0.789	0.0308	0.2104	-0.028
Mof_H 	H 	0.8687	0.9653	0.2572	0.115
Mof_H 	H 	0.6524	0.319	0.0872	0.088
Mof_H 	H 	0.64	0.4936	0.2896	0.059
Mof_H 	H 	0.5869	0.535	0.2021	0.046
Mof_H 	H 	0.8029	0.4739	0.1968	0.113
Mof_H 	H 	0.7513	0.5176	0.1106	0.09
Mof_H 	H 	0.7474	0.3622	0.9144	0.081
Mof_H 	H 	0.6769	0.2454	0.8796	0.068
Mof_H 	H 	0.6717	0.5325	0.9285	0.073
Mof_H 	H 	0.4691	0.2825	0.9287	0.048
Mof_H 	H 	0.789	0.1796	0.9692	0.116
Mof_H 	H 	0.8687	0.2919	0.0347	0.157
Mof_H 	H 	0.6524	0.7682	0.681	0.107
Mof_H 	H 	0.64	0.796	0.5064	0.082
Mof_H 	H 	0.5869	0.6671	0.465	0.054
Mof_H 	H 	0.8029	0.7229	0.5261	0.112
Mof_H 	H 	0.7513	0.593	0.4824	0.086
Mof_H 	H 	0.7474	0.5522	0.6378	0.091
Mof_H 	H 	0.6769	0.6342	0.7546	0.089
Mof_H 	H 	0.6717	0.396	0.4675	0.084
Mof_H 	H 	0.4691	0.6462	0.7175	0.073
Mof_H 	H 	0.789	0.7896	0.8204	0.151
Mof_H 	H 	0.8687	0.7428	0.7081	0.162
Mof_H 	H 	0.3476	0.319	0.2318	0.09
Mof_H 	H 	0.36	0.4936	0.204	0.064
Mof_H 	H 	0.4131	0.535	0.3329	0.053
Mof_H 	H 	0.1971	0.4739	0.2771	0.082
Mof_H 	H 	0.2487	0.5176	0.407	0.068
Mof_H 	H 	0.2526	0.3622	0.4478	0.057
Mof_H 	H 	0.3231	0.2454	0.3658	0.054
Mof_H 	H 	0.3283	0.5325	0.604	0.055
Mof_H 	H 	0.5309	0.2825	0.3538	0.037
Mof_H 	H 	0.211	0.1796	0.2104	0.098
Mof_H 	H 	0.1313	0.2919	0.2572	0.113
Mof_H 	H 	0.3476	0.7682	0.0872	0.11
Mof_H 	H 	0.36	0.796	0.2896	0.088
Mof_H 	H 	0.4131	0.6671	0.2021	0.061
Mof_H 	H 	0.1971	0.7229	0.1968	0.082
Mof_H 	H 	0.2487	0.593	0.1106	0.064
Mof_H 	H 	0.2526	0.5522	0.9144	0.068
Mof_H 	H 	0.3231	0.6342	0.8796	0.077
Mof_H 	H 	0.3283	0.396	0.9285	0.066
Mof_H 	H 	0.5309	0.6462	0.9287	0.062
Mof_H 	H 	0.211	0.7896	0.9692	0.137
Mof_H 	H 	0.1313	0.7428	0.0347	0.121
Mof_H 	H 	0.3476	0.9128	0.681	0.127
Mof_H 	H 	0.36	0.7104	0.5064	0.068
Mof_H 	H 	0.4131	0.7979	0.465	0.076
Mof_H 	H 	0.1971	0.8032	0.5261	0.08
Mof_H 	H 	0.2487	0.8894	0.4824	0.102
Mof_H 	H 	0.2526	0.0856	0.6378	0.067
Mof_H 	H 	0.3231	0.1204	0.7546	0.094
Mof_H 	H 	0.3283	0.0715	0.4675	0.033
Mof_H 	H 	0.5309	0.0713	0.7175	0.03
Mof_H 	H 	0.211	0.0308	0.8204	-0.041
Mof_H 	H 	0.1313	0.9653	0.7081	0.077
Mof_C 	C 	0.6533	0.7555	0.2924	-0.053
Mof_C 	C 	0.737	0.8462	0.3188	-0.095
Mof_C 	C 	0.685	0.06	0.392	-0.283
Mof_C 	C 	0.5889	0.0671	0.4647	0.079
Mof_C 	C 	0.6018	0.0696	0.5753	-0.116
Mof_C 	C 	0.4816	0.0696	0.4263	-0.107
Mof_C 	C 	0.8133	0.8515	0.0853	0.403
Mof_C 	C 	0.8014	0.9554	0.2129	-0.064
Mof_C 	C 	0.6533	0.5369	0.2445	-0.043
Mof_C 	C 	0.737	0.4726	0.1538	-0.106
Mof_C 	C 	0.685	0.332	0.94	-0.146
Mof_C 	C 	0.5889	0.3976	0.9329	0.061
Mof_C 	C 	0.6018	0.5057	0.9304	-0.077
Mof_C 	C 	0.4816	0.3567	0.9304	-0.062
Mof_C 	C 	0.8133	0.2338	0.1485	0.481
Mof_C 	C 	0.8014	0.2575	0.0446	-0.352
Mof_C 	C 	0.6533	0.7076	0.4631	-0.06
Mof_C 	C 	0.737	0.6812	0.5274	-0.094
Mof_C 	C 	0.685	0.608	0.668	-0.167
Mof_C 	C 	0.5889	0.5353	0.6024	0.091
Mof_C 	C 	0.6018	0.4247	0.4943	-0.111
Mof_C 	C 	0.4816	0.5737	0.6433	-0.096
Mof_C 	C 	0.8133	0.9147	0.7662	0.473
Mof_C 	C 	0.8014	0.7871	0.7425	-0.346
Mof_C 	C 	0.3467	0.5369	0.2924	-0.065
Mof_C 	C 	0.263	0.4726	0.3188	-0.077
Mof_C 	C 	0.315	0.332	0.392	-0.118
Mof_C 	C 	0.4111	0.3976	0.4647	0.031
Mof_C 	C 	0.3982	0.5057	0.5753	-0.046
Mof_C 	C 	0.5184	0.3567	0.4263	-0.032
Mof_C 	C 	0.1867	0.2338	0.0853	0.474
Mof_C 	C 	0.1986	0.2575	0.2129	-0.333
Mof_C 	C 	0.3467	0.7076	0.2445	-0.082
Mof_C 	C 	0.263	0.6812	0.1538	-0.065
Mof_C 	C 	0.315	0.608	0.94	-0.141
Mof_C 	C 	0.4111	0.5353	0.9329	0.062
Mof_C 	C 	0.3982	0.4247	0.9304	-0.08
Mof_C 	C 	0.5184	0.5737	0.9304	-0.067
Mof_C 	C 	0.1867	0.9147	0.1485	0.465
Mof_C 	C 	0.1986	0.7871	0.0446	-0.326
Mof_C 	C 	0.3467	0.7555	0.4631	-0.074
Mof_C 	C 	0.263	0.8462	0.5274	-0.068
Mof_C 	C 	0.315	0.06	0.668	-0.256
Mof_C 	C 	0.4111	0.0671	0.6024	0.05
Mof_C 	C 	0.3982	0.0696	0.4943	-0.085
Mof_C 	C 	0.5184	0.0696	0.6433	-0.077
Mof_C 	C 	0.1867	0.8515	0.7662	0.397
Mof_C 	C 	0.1986	0.9554	0.7425	-0.05
Mof_N 	N 	0.7119	0.9385	0.2816	-0.07
Mof_N 	N 	0.7119	0.3431	0.0615	-0.088
Mof_N 	N 	0.7119	0.7184	0.6569	-0.089
Mof_N 	N 	0.2881	0.3431	0.2816	-0.101
Mof_N 	N 	0.2881	0.7184	0.0615	-0.102
Mof_N 	N 	0.2881	0.9385	0.6569	-0.081
Mof_N 	N 	0.681	0.66667	0.33334	-0.086
Mof_N 	N 	0.319	0.66667	0.33334	-0.082
Mof_O 	O 	0.8876	0.866	0.0229	-0.406
Mof_O 	O 	0.7606	0.7585	0.0468	-0.283
Mof_O 	O 	0.8876	0.1569	0.134	-0.496
Mof_O 	O 	0.7606	0.2883	0.2415	-0.32
Mof_O 	O 	0.8876	0.9771	0.8431	-0.4
Mof_O 	O 	0.7606	0.9532	0.7117	-0.252
Mof_O 	O 	0.1124	0.1569	0.0229	-0.559
Mof_O 	O 	0.2394	0.2883	0.0468	-0.335
Mof_O 	O 	0.1124	0.9771	0.134	-0.447
Mof_O 	O 	0.2394	0.9532	0.2415	-0.261
Mof_O 	O 	0.1124	0.866	0.8431	-0.463
Mof_O 	O 	0.2394	0.7585	0.7117	-0.299
Mof_N 	N 	7.57582e-33	0.66667	0.33334	0.05
Mof_O 	O 	1.23107e-32	0.72495	0.27505	-0.159
Mof_O 	O 	9.46977e-34	0.5501	0.27505	-0.172
Mof_O 	O 	-9.46977e-33	0.72495	0.4499	-0.159
_end
