data_functionalizedCrystal
_audit_creation_method	'EQeq! by Chris Wilmer'
_symmetry_space_group_name_H-M	'P1'
_symmetry_Int_Tables_number	1
_symmetry_cell_setting	triclinic
loop_
_symmetry_equiv_pos_as_xyz
  x,y,z
_cell_length_a	29.419
_cell_length_b	29.419
_cell_length_c	3.5564
_cell_angle_alpha	90
_cell_angle_beta	90
_cell_angle_gamma	90
loop_
_atom_site_label
_atom_site_type_symbol
_atom_site_fract_x
_atom_site_fract_y
_atom_site_fract_z
_atom_site_charge
Mof_N 	N 	0.3807	0.2736	0.313	-0.192
Mof_C 	C 	0.341	0.2861	0.44	0.156
Mof_C 	C 	0.3259	0.3334	0.456	0.133
Mof_H 	H 	0.2955	0.3347	0.5523	-0.046
Mof_H 	H 	0.3266	0.3462	0.2079	-0.044
Mof_H 	H 	0.3458	0.3504	0.6178	-0.026
Mof_H 	H 	0.332	0.3161	0.4745	-0.131
Mof_N 	N 	0.8807	0.7736	0.813	-0.195
Mof_C 	C 	0.841	0.7861	0.94	0.151
Mof_C 	C 	0.8259	0.8334	0.956	0.134
Mof_H 	H 	0.7955	0.8347	0.0523	-0.047
Mof_H 	H 	0.8266	0.8462	0.7079	-0.038
Mof_H 	H 	0.8458	0.8504	0.1178	-0.032
Mof_H 	H 	0.832	0.8161	0.9745	-0.133
Mof_N 	N 	0.1193	0.7264	0.813	-0.195
Mof_C 	C 	0.159	0.7139	0.94	0.151
Mof_C 	C 	0.1741	0.6666	0.956	0.133
Mof_H 	H 	0.2045	0.6653	0.0523	-0.047
Mof_H 	H 	0.1734	0.6538	0.7079	-0.038
Mof_H 	H 	0.1542	0.6496	0.1178	-0.032
Mof_H 	H 	0.168	0.6839	0.9745	-0.132
Mof_N 	N 	0.6193	0.2264	0.313	-0.193
Mof_C 	C 	0.659	0.2139	0.44	0.155
Mof_C 	C 	0.6741	0.1666	0.456	0.131
Mof_H 	H 	0.7045	0.1653	0.5523	-0.047
Mof_H 	H 	0.6734	0.1538	0.2079	-0.045
Mof_H 	H 	0.6542	0.1496	0.6178	-0.026
Mof_H 	H 	0.668	0.1839	0.4745	-0.131
Mof_N 	N 	0.9764	0.1307	0.563	-0.195
Mof_C 	C 	0.9639	0.091	0.69	0.158
Mof_C 	C 	0.9166	0.0759	0.706	0.135
Mof_H 	H 	0.9153	0.0455	0.8023	-0.043
Mof_H 	H 	0.9038	0.0766	0.4579	-0.044
Mof_H 	H 	0.8996	0.0958	0.8678	-0.025
Mof_H 	H 	0.9339	0.082	0.7245	-0.133
Mof_N 	N 	0.4764	0.6307	0.063	-0.188
Mof_C 	C 	0.4639	0.591	0.19	0.153
Mof_C 	C 	0.4166	0.5759	0.206	0.128
Mof_H 	H 	0.4153	0.5455	0.3023	-0.047
Mof_H 	H 	0.4038	0.5766	0.9579	-0.039
Mof_H 	H 	0.3996	0.5958	0.3678	-0.03
Mof_H 	H 	0.4339	0.582	0.2245	-0.128
Mof_N 	N 	0.5236	0.8693	0.063	-0.188
Mof_C 	C 	0.5361	0.909	0.19	0.155
Mof_C 	C 	0.5834	0.9241	0.206	0.131
Mof_H 	H 	0.5847	0.9545	0.3023	-0.043
Mof_H 	H 	0.5962	0.9234	0.9579	-0.038
Mof_H 	H 	0.6004	0.9042	0.3678	-0.03
Mof_H 	H 	0.5661	0.918	0.2245	-0.129
Mof_N 	N 	0.0236	0.3693	0.563	-0.195
Mof_C 	C 	0.0361	0.409	0.69	0.16
Mof_C 	C 	0.0834	0.4241	0.706	0.135
Mof_H 	H 	0.0847	0.4545	0.8023	-0.041
Mof_H 	H 	0.0962	0.4234	0.4579	-0.044
Mof_H 	H 	0.1004	0.4042	0.8678	-0.025
Mof_H 	H 	0.0661	0.418	0.7245	-0.134
Mof_N 	N 	0.1193	0.2736	0.187	-0.197
Mof_C 	C 	0.159	0.2861	0.06	0.149
Mof_C 	C 	0.1741	0.3334	0.044	0.177
Mof_H 	H 	0.2045	0.3347	0.9477	-0.045
Mof_H 	H 	0.1734	0.3462	0.2921	-0.055
Mof_H 	H 	0.1542	0.3504	0.8822	-0.027
Mof_H 	H 	0.168	0.3161	0.0255	-0.173
Mof_N 	N 	0.6193	0.7736	0.687	-0.194
Mof_C 	C 	0.659	0.7861	0.56	0.156
Mof_C 	C 	0.6741	0.8334	0.544	0.132
Mof_H 	H 	0.7045	0.8347	0.4477	-0.047
Mof_H 	H 	0.6734	0.8462	0.7921	-0.039
Mof_H 	H 	0.6542	0.8504	0.3822	-0.029
Mof_H 	H 	0.668	0.8161	0.5255	-0.132
Mof_N 	N 	0.3807	0.7264	0.687	-0.194
Mof_C 	C 	0.341	0.7139	0.56	0.156
Mof_C 	C 	0.3259	0.6666	0.544	0.131
Mof_H 	H 	0.2955	0.6653	0.4477	-0.047
Mof_H 	H 	0.3266	0.6538	0.7921	-0.04
Mof_H 	H 	0.3458	0.6496	0.3822	-0.029
Mof_H 	H 	0.332	0.6839	0.5255	-0.132
Mof_N 	N 	0.8807	0.2264	0.187	-0.197
Mof_C 	C 	0.841	0.2139	0.06	0.148
Mof_C 	C 	0.8259	0.1666	0.044	0.177
Mof_H 	H 	0.7955	0.1653	0.9477	-0.045
Mof_H 	H 	0.8266	0.1538	0.2921	-0.055
Mof_H 	H 	0.8458	0.1496	0.8822	-0.028
Mof_H 	H 	0.832	0.1839	0.0255	-0.173
Mof_N 	N 	0.5236	0.1307	0.937	-0.181
Mof_C 	C 	0.5361	0.091	0.81	0.147
Mof_C 	C 	0.5834	0.0759	0.794	0.116
Mof_H 	H 	0.5847	0.0455	0.6977	-0.043
Mof_H 	H 	0.5962	0.0766	0.0421	-0.045
Mof_H 	H 	0.6004	0.0958	0.6322	-0.026
Mof_H 	H 	0.5661	0.082	0.7755	-0.115
Mof_N 	N 	0.0236	0.6307	0.437	-0.194
Mof_C 	C 	0.0361	0.591	0.31	0.155
Mof_C 	C 	0.0834	0.5759	0.294	0.131
Mof_H 	H 	0.0847	0.5455	0.1977	-0.049
Mof_H 	H 	0.0962	0.5766	0.5421	-0.035
Mof_H 	H 	0.1004	0.5958	0.1322	-0.033
Mof_H 	H 	0.0661	0.582	0.2755	-0.131
Mof_N 	N 	0.9764	0.8693	0.437	-0.195
Mof_C 	C 	0.9639	0.909	0.31	0.157
Mof_C 	C 	0.9166	0.9241	0.294	0.134
Mof_H 	H 	0.9153	0.9545	0.1977	-0.045
Mof_H 	H 	0.9038	0.9234	0.5421	-0.034
Mof_H 	H 	0.8996	0.9042	0.1322	-0.033
Mof_H 	H 	0.9339	0.918	0.2755	-0.133
Mof_N 	N 	0.4764	0.3693	0.937	-0.181
Mof_C 	C 	0.4639	0.409	0.81	0.148
Mof_C 	C 	0.4166	0.4241	0.794	0.116
Mof_H 	H 	0.4153	0.4545	0.6977	-0.042
Mof_H 	H 	0.4038	0.4234	0.0421	-0.045
Mof_H 	H 	0.3996	0.4042	0.6322	-0.025
Mof_H 	H 	0.4339	0.418	0.7755	-0.115
Mof_N 	N 	0.6193	0.7264	0.687	-0.194
Mof_C 	C 	0.659	0.7139	0.56	0.156
Mof_C 	C 	0.6741	0.6666	0.544	0.131
Mof_H 	H 	0.7045	0.6653	0.4477	-0.047
Mof_H 	H 	0.6734	0.6538	0.7921	-0.04
Mof_H 	H 	0.6542	0.6496	0.3822	-0.029
Mof_H 	H 	0.668	0.6839	0.5255	-0.132
Mof_N 	N 	0.1193	0.2264	0.187	-0.197
Mof_C 	C 	0.159	0.2139	0.06	0.148
Mof_C 	C 	0.1741	0.1666	0.044	0.177
Mof_H 	H 	0.2045	0.1653	0.9477	-0.045
Mof_H 	H 	0.1734	0.1538	0.2921	-0.055
Mof_H 	H 	0.1542	0.1496	0.8822	-0.028
Mof_H 	H 	0.168	0.1839	0.0255	-0.173
Mof_N 	N 	0.8807	0.2736	0.187	-0.197
Mof_C 	C 	0.841	0.2861	0.06	0.149
Mof_C 	C 	0.8259	0.3334	0.044	0.177
Mof_H 	H 	0.7955	0.3347	0.9477	-0.045
Mof_H 	H 	0.8266	0.3462	0.2921	-0.055
Mof_H 	H 	0.8458	0.3504	0.8822	-0.027
Mof_H 	H 	0.832	0.3161	0.0255	-0.173
Mof_N 	N 	0.3807	0.7736	0.687	-0.194
Mof_C 	C 	0.341	0.7861	0.56	0.156
Mof_C 	C 	0.3259	0.8334	0.544	0.132
Mof_H 	H 	0.2955	0.8347	0.4477	-0.047
Mof_H 	H 	0.3266	0.8462	0.7921	-0.039
Mof_H 	H 	0.3458	0.8504	0.3822	-0.029
Mof_H 	H 	0.332	0.8161	0.5255	-0.132
Mof_N 	N 	0.0236	0.8693	0.437	-0.194
Mof_C 	C 	0.0361	0.909	0.31	0.158
Mof_C 	C 	0.0834	0.9241	0.294	0.133
Mof_H 	H 	0.0847	0.9545	0.1977	-0.045
Mof_H 	H 	0.0962	0.9234	0.5421	-0.034
Mof_H 	H 	0.1004	0.9042	0.1322	-0.033
Mof_H 	H 	0.0661	0.918	0.2755	-0.133
Mof_N 	N 	0.5236	0.3693	0.937	-0.181
Mof_C 	C 	0.5361	0.409	0.81	0.148
Mof_C 	C 	0.5834	0.4241	0.794	0.116
Mof_H 	H 	0.5847	0.4545	0.6977	-0.042
Mof_H 	H 	0.5962	0.4234	0.0421	-0.045
Mof_H 	H 	0.6004	0.4042	0.6322	-0.025
Mof_H 	H 	0.5661	0.418	0.7755	-0.115
Mof_N 	N 	0.4764	0.1307	0.937	-0.181
Mof_C 	C 	0.4639	0.091	0.81	0.147
Mof_C 	C 	0.4166	0.0759	0.794	0.116
Mof_H 	H 	0.4153	0.0455	0.6977	-0.043
Mof_H 	H 	0.4038	0.0766	0.0421	-0.045
Mof_H 	H 	0.3996	0.0958	0.6322	-0.026
Mof_H 	H 	0.4339	0.082	0.7755	-0.115
Mof_N 	N 	0.9764	0.6307	0.437	-0.195
Mof_C 	C 	0.9639	0.591	0.31	0.155
Mof_C 	C 	0.9166	0.5759	0.294	0.132
Mof_H 	H 	0.9153	0.5455	0.1977	-0.049
Mof_H 	H 	0.9038	0.5766	0.5421	-0.035
Mof_H 	H 	0.8996	0.5958	0.1322	-0.033
Mof_H 	H 	0.9339	0.582	0.2755	-0.131
Mof_N 	N 	0.8807	0.7264	0.813	-0.195
Mof_C 	C 	0.841	0.7139	0.94	0.151
Mof_C 	C 	0.8259	0.6666	0.956	0.133
Mof_H 	H 	0.7955	0.6653	0.0523	-0.047
Mof_H 	H 	0.8266	0.6538	0.7079	-0.038
Mof_H 	H 	0.8458	0.6496	0.1178	-0.032
Mof_H 	H 	0.832	0.6839	0.9745	-0.132
Mof_N 	N 	0.3807	0.2264	0.313	-0.193
Mof_C 	C 	0.341	0.2139	0.44	0.155
Mof_C 	C 	0.3259	0.1666	0.456	0.131
Mof_H 	H 	0.2955	0.1653	0.5523	-0.047
Mof_H 	H 	0.3266	0.1538	0.2079	-0.045
Mof_H 	H 	0.3458	0.1496	0.6178	-0.026
Mof_H 	H 	0.332	0.1839	0.4745	-0.131
Mof_N 	N 	0.6193	0.2736	0.313	-0.193
Mof_C 	C 	0.659	0.2861	0.44	0.155
Mof_C 	C 	0.6741	0.3334	0.456	0.132
Mof_H 	H 	0.7045	0.3347	0.5523	-0.047
Mof_H 	H 	0.6734	0.3462	0.2079	-0.045
Mof_H 	H 	0.6542	0.3504	0.6178	-0.026
Mof_H 	H 	0.668	0.3161	0.4745	-0.131
Mof_N 	N 	0.1193	0.7736	0.813	-0.195
Mof_C 	C 	0.159	0.7861	0.94	0.151
Mof_C 	C 	0.1741	0.8334	0.956	0.133
Mof_H 	H 	0.2045	0.8347	0.0523	-0.047
Mof_H 	H 	0.1734	0.8462	0.7079	-0.038
Mof_H 	H 	0.1542	0.8504	0.1178	-0.032
Mof_H 	H 	0.168	0.8161	0.9745	-0.133
Mof_N 	N 	0.4764	0.8693	0.063	-0.188
Mof_C 	C 	0.4639	0.909	0.19	0.155
Mof_C 	C 	0.4166	0.9241	0.206	0.131
Mof_H 	H 	0.4153	0.9545	0.3023	-0.043
Mof_H 	H 	0.4038	0.9234	0.9579	-0.038
Mof_H 	H 	0.3996	0.9042	0.3678	-0.03
Mof_H 	H 	0.4339	0.918	0.2245	-0.129
Mof_N 	N 	0.9764	0.3693	0.563	-0.195
Mof_C 	C 	0.9639	0.409	0.69	0.159
Mof_C 	C 	0.9166	0.4241	0.706	0.135
Mof_H 	H 	0.9153	0.4545	0.8023	-0.042
Mof_H 	H 	0.9038	0.4234	0.4579	-0.044
Mof_H 	H 	0.8996	0.4042	0.8678	-0.025
Mof_H 	H 	0.9339	0.418	0.7245	-0.134
Mof_N 	N 	0.0236	0.1307	0.563	-0.195
Mof_C 	C 	0.0361	0.091	0.69	0.159
Mof_C 	C 	0.0834	0.0759	0.706	0.135
Mof_H 	H 	0.0847	0.0455	0.8023	-0.043
Mof_H 	H 	0.0962	0.0766	0.4579	-0.044
Mof_H 	H 	0.1004	0.0958	0.8678	-0.025
Mof_H 	H 	0.0661	0.082	0.7245	-0.133
Mof_N 	N 	0.5236	0.6307	0.063	-0.188
Mof_C 	C 	0.5361	0.591	0.19	0.153
Mof_C 	C 	0.5834	0.5759	0.206	0.128
Mof_H 	H 	0.5847	0.5455	0.3023	-0.047
Mof_H 	H 	0.5962	0.5766	0.9579	-0.039
Mof_H 	H 	0.6004	0.5958	0.3678	-0.03
Mof_H 	H 	0.5661	0.582	0.2245	-0.128
Mof_Ag	Ag	0.44027	0.30973	0.125	0.3
Mof_Ag	Ag	0.05973	0.69027	0.625	0.322
Mof_Ag	Ag	0.94027	0.19027	0.375	0.317
Mof_Ag	Ag	0.55973	0.80973	0.875	0.31
Mof_Ag	Ag	0.05973	0.30973	0.375	0.318
Mof_Ag	Ag	0.44027	0.69027	0.875	0.31
Mof_Ag	Ag	0.55973	0.19027	0.125	0.3
Mof_Ag	Ag	0.94027	0.80973	0.625	0.321
Mof_Ag	Ag	0.55973	0.69027	0.875	0.31
Mof_Ag	Ag	0.94027	0.30973	0.375	0.317
Mof_Ag	Ag	0.05973	0.80973	0.625	0.322
Mof_Ag	Ag	0.44027	0.19027	0.125	0.3
Mof_Ag	Ag	0.94027	0.69027	0.625	0.321
Mof_Ag	Ag	0.55973	0.30973	0.125	0.3
Mof_Ag	Ag	0.44027	0.80973	0.875	0.31
Mof_Ag	Ag	0.05973	0.19027	0.375	0.318
Mof_Ag	Ag	0.25	0.25	0.75	0.51
Mof_Ag	Ag	0.25	0.75	0.25	0.5
Mof_Ag	Ag	-0	0	-0	0.452
Mof_Ag	Ag	0.5	0.5	0.5	0.491
Mof_Ag	Ag	0.5	0	0.5	0.474
Mof_Ag	Ag	-0	0.5	-0	0.468
Mof_Ag	Ag	0.75	0.25	0.75	0.51
Mof_Ag	Ag	0.75	0.75	0.25	0.5
Mof_N 	N 	0.3151	0.25	0.515	-0.255
Mof_N 	N 	0.1849	0.75	0.015	-0.251
Mof_N 	N 	3.46742e-34	0.0651	0.765	-0.244
Mof_N 	N 	0.5	0.5651	0.265	-0.253
Mof_N 	N 	0.5	0.9349	0.265	-0.249
Mof_N 	N 	1.37191e-33	0.4349	0.765	-0.246
Mof_N 	N 	0.1849	0.25	0.985	-0.235
Mof_N 	N 	0.3151	0.75	0.485	-0.254
Mof_N 	N 	0.8151	0.25	0.985	-0.235
Mof_N 	N 	0.5	0.0651	0.735	-0.249
Mof_N 	N 	3.18201e-33	0.5651	0.235	-0.251
Mof_N 	N 	7.28267e-33	0.9349	0.235	-0.246
Mof_N 	N 	0.5	0.4349	0.735	-0.251
Mof_N 	N 	0.6849	0.75	0.485	-0.254
Mof_N 	N 	0.8151	0.75	0.015	-0.251
Mof_N 	N 	0.6849	0.25	0.515	-0.255
_end
