data_functionalizedCrystal
_audit_creation_method	'EQeq! by Chris Wilmer'
_symmetry_space_group_name_H-M	'P1'
_symmetry_Int_Tables_number	1
_symmetry_cell_setting	triclinic
loop_
_symmetry_equiv_pos_as_xyz
  x,y,z
_cell_length_a	13.673
_cell_length_b	27.59
_cell_length_c	45.606
_cell_angle_alpha	90
_cell_angle_beta	90
_cell_angle_gamma	90
loop_
_atom_site_label
_atom_site_type_symbol
_atom_site_fract_x
_atom_site_fract_y
_atom_site_fract_z
_atom_site_charge
Mof_Zn	Zn	0.34896	0.25609	0.68756	1.166
Mof_Zn	Zn	0.34246	0.4434	0.4265	1.164
Mof_Zn	Zn	0.14697	0.46953	0.58612	1.165
Mof_Zn	Zn	0.65104	0.24391	0.18756	1.166
Mof_Zn	Zn	0.65754	0.0566	0.9265	1.164
Mof_Zn	Zn	0.85303	0.03047	0.08612	1.165
Mof_Zn	Zn	0.84896	0.74391	0.81244	1.165
Mof_Zn	Zn	0.84246	0.5566	0.0735	1.163
Mof_Zn	Zn	0.64697	0.53047	0.91388	1.165
Mof_Zn	Zn	0.15104	0.75609	0.31244	1.165
Mof_Zn	Zn	0.15754	0.9434	0.5735	1.163
Mof_Zn	Zn	0.35303	0.96953	0.41388	1.164
Mof_H 	H 	0.3075	0.3985	0.4855	-0.008
Mof_H 	H 	0.3931	0.3757	0.5273	0.078
Mof_H 	H 	0.5406	0.4615	0.4527	-0.012
Mof_H 	H 	0.6318	0.4412	0.4938	0.09
Mof_H 	H 	0.9987	0.4616	0.5374	-0.003
Mof_H 	H 	0.8404	0.4343	0.5296	0.086
Mof_H 	H 	0.9958	0.412	0.6183	-0.006
Mof_H 	H 	0.8384	0.3825	0.6125	0.093
Mof_H 	H 	0.5581	0.2899	0.6758	-0.014
Mof_H 	H 	0.6457	0.3268	0.6383	0.083
Mof_H 	H 	0.3135	0.3027	0.6314	-0.011
Mof_H 	H 	0.3952	0.3386	0.5924	0.082
Mof_H 	H 	0.3965	0.3377	0.7284	-0.012
Mof_H 	H 	0.4603	0.35	0.7749	0.08
Mof_H 	H 	0.4674	0.1996	0.7308	0
Mof_H 	H 	0.5259	0.2075	0.7782	0.08
Mof_H 	H 	0.5846	0.0865	0.8666	-0.009
Mof_H 	H 	0.5568	0.1557	0.8394	0.08
Mof_H 	H 	0.6496	0.1644	0.9363	-0.016
Mof_H 	H 	0.6201	0.2356	0.9112	0.079
Mof_H 	H 	0.6143	0.4266	0.9295	-0.009
Mof_H 	H 	0.589	0.3522	0.9079	0.082
Mof_H 	H 	0.607	0.4916	0.8531	-0.008
Mof_H 	H 	0.5809	0.4185	0.8294	0.081
Mof_H 	H 	0.6925	0.1015	0.9855	-0.008
Mof_H 	H 	0.6069	0.1243	0.0273	0.078
Mof_H 	H 	0.4594	0.0385	0.9527	-0.012
Mof_H 	H 	0.3682	0.0588	0.9938	0.09
Mof_H 	H 	0.0013	0.0384	0.0374	-0.003
Mof_H 	H 	0.1596	0.0657	0.0296	0.086
Mof_H 	H 	0.0042	0.088	0.1183	-0.006
Mof_H 	H 	0.1616	0.1175	0.1125	0.093
Mof_H 	H 	0.4419	0.2101	0.1758	-0.014
Mof_H 	H 	0.3543	0.1732	0.1383	0.083
Mof_H 	H 	0.6865	0.1973	0.1314	-0.011
Mof_H 	H 	0.6048	0.1614	0.0924	0.082
Mof_H 	H 	0.6035	0.1623	0.2284	-0.012
Mof_H 	H 	0.5397	0.15	0.2749	0.08
Mof_H 	H 	0.5326	0.3004	0.2308	0
Mof_H 	H 	0.4741	0.2925	0.2782	0.08
Mof_H 	H 	0.4154	0.4135	0.3666	-0.009
Mof_H 	H 	0.4432	0.3443	0.3394	0.08
Mof_H 	H 	0.3504	0.3356	0.4363	-0.016
Mof_H 	H 	0.3799	0.2644	0.4112	0.079
Mof_H 	H 	0.3857	0.0734	0.4295	-0.009
Mof_H 	H 	0.411	0.1478	0.4079	0.082
Mof_H 	H 	0.393	0.0084	0.3531	-0.008
Mof_H 	H 	0.4191	0.0815	0.3294	0.081
Mof_H 	H 	0.8075	0.6015	0.0145	-0.008
Mof_H 	H 	0.8931	0.6243	0.9727	0.078
Mof_H 	H 	0.0406	0.5385	0.0473	-0.012
Mof_H 	H 	0.1318	0.5588	0.0062	0.09
Mof_H 	H 	0.4987	0.5384	0.9626	-0.003
Mof_H 	H 	0.3404	0.5657	0.9704	0.086
Mof_H 	H 	0.4958	0.588	0.8817	-0.005
Mof_H 	H 	0.3384	0.6175	0.8875	0.093
Mof_H 	H 	0.0581	0.7101	0.8242	-0.014
Mof_H 	H 	0.1457	0.6732	0.8617	0.083
Mof_H 	H 	0.8135	0.6973	0.8686	-0.011
Mof_H 	H 	0.8952	0.6614	0.9076	0.081
Mof_H 	H 	0.8965	0.6623	0.7716	-0.012
Mof_H 	H 	0.9603	0.65	0.7251	0.08
Mof_H 	H 	0.9674	0.8004	0.7692	0.001
Mof_H 	H 	0.0259	0.7925	0.7218	0.079
Mof_H 	H 	0.0846	0.9135	0.6334	-0.009
Mof_H 	H 	0.0568	0.8443	0.6606	0.08
Mof_H 	H 	0.1496	0.8356	0.5637	-0.016
Mof_H 	H 	0.1201	0.7644	0.5888	0.079
Mof_H 	H 	0.1143	0.5734	0.5705	-0.009
Mof_H 	H 	0.089	0.6478	0.5921	0.082
Mof_H 	H 	0.107	0.5084	0.6469	-0.008
Mof_H 	H 	0.0809	0.5815	0.6706	0.081
Mof_H 	H 	0.1925	0.8985	0.5145	-0.008
Mof_H 	H 	0.1069	0.8757	0.4727	0.078
Mof_H 	H 	0.9594	0.9615	0.5473	-0.012
Mof_H 	H 	0.8682	0.9412	0.5062	0.091
Mof_H 	H 	0.5013	0.9616	0.4626	-0.003
Mof_H 	H 	0.6596	0.9343	0.4704	0.086
Mof_H 	H 	0.5042	0.912	0.3817	-0.005
Mof_H 	H 	0.6616	0.8825	0.3875	0.093
Mof_H 	H 	0.9419	0.7899	0.3242	-0.014
Mof_H 	H 	0.8543	0.8268	0.3617	0.084
Mof_H 	H 	0.1865	0.8027	0.3686	-0.011
Mof_H 	H 	0.1048	0.8386	0.4076	0.082
Mof_H 	H 	0.1035	0.8377	0.2716	-0.012
Mof_H 	H 	0.0397	0.85	0.2251	0.08
Mof_H 	H 	0.0326	0.6996	0.2692	0
Mof_H 	H 	0.9741	0.7075	0.2218	0.08
Mof_H 	H 	0.9154	0.5865	0.1334	-0.009
Mof_H 	H 	0.9432	0.6557	0.1606	0.08
Mof_H 	H 	0.8504	0.6644	0.0637	-0.016
Mof_H 	H 	0.8799	0.7356	0.0888	0.079
Mof_H 	H 	0.8857	0.9266	0.0705	-0.009
Mof_H 	H 	0.911	0.8522	0.0921	0.082
Mof_H 	H 	0.893	0.9916	0.1469	-0.008
Mof_H 	H 	0.9191	0.9185	0.1706	0.081
Mof_C 	C 	0.3747	0.40677	0.48714	0.07
Mof_C 	C 	0.4252	0.39309	0.51215	-0.116
Mof_C 	C 	0.5105	0.44356	0.46806	0.074
Mof_C 	C 	0.5653	0.43145	0.49238	-0.126
Mof_C 	C 	0.5228	0.40507	0.51463	0.055
Mof_C 	C 	0.5793	0.3911	0.54111	0.101
Mof_C 	C 	0.9651	0.44582	0.55294	0.071
Mof_C 	C 	0.8712	0.42942	0.54808	-0.123
Mof_C 	C 	0.9635	0.41674	0.60012	0.068
Mof_C 	C 	0.8697	0.39904	0.59681	-0.123
Mof_C 	C 	0.8224	0.40573	0.57052	0.053
Mof_C 	C 	0.7186	0.39056	0.5669	0.098
Mof_C 	C 	0.5246	0.2997	0.65853	0.079
Mof_C 	C 	0.5773	0.32164	0.6362	-0.124
Mof_C 	C 	0.3824	0.30704	0.63261	0.07
Mof_C 	C 	0.4305	0.32872	0.60937	-0.112
Mof_C 	C 	0.5298	0.33584	0.61104	0.062
Mof_C 	C 	0.5824	0.35839	0.58638	0.107
Mof_C 	C 	0.4236	0.31093	0.73872	0.068
Mof_C 	C 	0.4606	0.31851	0.76651	-0.119
Mof_C 	C 	0.464	0.23028	0.74017	0.06
Mof_C 	C 	0.4999	0.23487	0.76822	-0.113
Mof_C 	C 	0.4979	0.27967	0.78183	0.051
Mof_C 	C 	0.5309	0.28422	0.81239	0.101
Mof_C 	C 	0.5928	0.11724	0.87564	0.063
Mof_C 	C 	0.5758	0.15825	0.85938	-0.117
Mof_C 	C 	0.6302	0.16277	0.91631	0.07
Mof_C 	C 	0.6134	0.20527	0.90154	-0.119
Mof_C 	C 	0.5865	0.20325	0.87224	0.052
Mof_C 	C 	0.5701	0.24825	0.85518	0.104
Mof_C 	C 	0.6079	0.42496	0.90875	0.074
Mof_C 	C 	0.5927	0.38046	0.89603	-0.118
Mof_C 	C 	0.6035	0.46273	0.86444	0.069
Mof_C 	C 	0.5879	0.41923	0.85012	-0.119
Mof_C 	C 	0.5826	0.37701	0.86606	0.055
Mof_C 	C 	0.5693	0.32953	0.85197	0.101
Mof_C 	C 	0.6253	0.09323	0.98714	0.07
Mof_C 	C 	0.5748	0.10691	0.01215	-0.116
Mof_C 	C 	0.4895	0.05644	0.96806	0.074
Mof_C 	C 	0.4347	0.06855	0.99238	-0.126
Mof_C 	C 	0.4772	0.09493	0.01463	0.055
Mof_C 	C 	0.4207	0.1089	0.04111	0.101
Mof_C 	C 	0.0349	0.05418	0.05294	0.072
Mof_C 	C 	0.1288	0.07058	0.04808	-0.124
Mof_C 	C 	0.0365	0.08326	0.10012	0.069
Mof_C 	C 	0.1303	0.10096	0.09681	-0.123
Mof_C 	C 	0.1776	0.09427	0.07052	0.053
Mof_C 	C 	0.2814	0.10944	0.0669	0.098
Mof_C 	C 	0.4754	0.2003	0.15853	0.079
Mof_C 	C 	0.4227	0.17836	0.1362	-0.124
Mof_C 	C 	0.6176	0.19296	0.13261	0.07
Mof_C 	C 	0.5695	0.17128	0.10937	-0.112
Mof_C 	C 	0.4702	0.16416	0.11104	0.062
Mof_C 	C 	0.4176	0.14161	0.08638	0.107
Mof_C 	C 	0.5764	0.18907	0.23872	0.068
Mof_C 	C 	0.5394	0.18149	0.26651	-0.119
Mof_C 	C 	0.536	0.26972	0.24017	0.06
Mof_C 	C 	0.5001	0.26513	0.26822	-0.113
Mof_C 	C 	0.5021	0.22033	0.28183	0.051
Mof_C 	C 	0.4691	0.21578	0.31239	0.101
Mof_C 	C 	0.4072	0.38276	0.37564	0.063
Mof_C 	C 	0.4242	0.34175	0.35938	-0.117
Mof_C 	C 	0.3698	0.33723	0.41631	0.07
Mof_C 	C 	0.3866	0.29473	0.40154	-0.119
Mof_C 	C 	0.4135	0.29675	0.37224	0.052
Mof_C 	C 	0.4299	0.25175	0.35518	0.104
Mof_C 	C 	0.3921	0.07504	0.40875	0.074
Mof_C 	C 	0.4073	0.11954	0.39603	-0.118
Mof_C 	C 	0.3965	0.03727	0.36444	0.069
Mof_C 	C 	0.4121	0.08077	0.35012	-0.119
Mof_C 	C 	0.4174	0.12299	0.36606	0.055
Mof_C 	C 	0.4307	0.17047	0.35197	0.101
Mof_C 	C 	0.8747	0.59323	0.01286	0.069
Mof_C 	C 	0.9252	0.60691	0.98785	-0.116
Mof_C 	C 	0.0105	0.55644	0.03194	0.073
Mof_C 	C 	0.0653	0.56855	0.00762	-0.126
Mof_C 	C 	0.0228	0.59493	0.98537	0.055
Mof_C 	C 	0.0793	0.6089	0.95889	0.101
Mof_C 	C 	0.4651	0.55418	0.94706	0.071
Mof_C 	C 	0.3712	0.57058	0.95192	-0.123
Mof_C 	C 	0.4635	0.58326	0.89988	0.068
Mof_C 	C 	0.3697	0.60096	0.90319	-0.123
Mof_C 	C 	0.3224	0.59427	0.92948	0.053
Mof_C 	C 	0.2186	0.60944	0.9331	0.098
Mof_C 	C 	0.0246	0.7003	0.84147	0.079
Mof_C 	C 	0.0773	0.67836	0.8638	-0.123
Mof_C 	C 	0.8824	0.69296	0.86739	0.07
Mof_C 	C 	0.9305	0.67128	0.89063	-0.111
Mof_C 	C 	0.0298	0.66416	0.88896	0.061
Mof_C 	C 	0.0824	0.64161	0.91362	0.107
Mof_C 	C 	0.9236	0.68907	0.76128	0.068
Mof_C 	C 	0.9606	0.68149	0.73349	-0.118
Mof_C 	C 	0.964	0.76972	0.75983	0.06
Mof_C 	C 	0.9999	0.76513	0.73178	-0.112
Mof_C 	C 	0.9979	0.72033	0.71817	0.051
Mof_C 	C 	0.0309	0.71578	0.68761	0.1
Mof_C 	C 	0.0928	0.88276	0.62436	0.063
Mof_C 	C 	0.0758	0.84175	0.64062	-0.117
Mof_C 	C 	0.1302	0.83723	0.58369	0.069
Mof_C 	C 	0.1134	0.79473	0.59846	-0.119
Mof_C 	C 	0.0865	0.79675	0.62776	0.052
Mof_C 	C 	0.0701	0.75175	0.64482	0.104
Mof_C 	C 	0.1079	0.57504	0.59125	0.074
Mof_C 	C 	0.0927	0.61954	0.60397	-0.118
Mof_C 	C 	0.1035	0.53727	0.63556	0.069
Mof_C 	C 	0.0879	0.58077	0.64988	-0.119
Mof_C 	C 	0.0826	0.62299	0.63394	0.055
Mof_C 	C 	0.0693	0.67047	0.64803	0.101
Mof_C 	C 	0.1253	0.90677	0.51286	0.07
Mof_C 	C 	0.0748	0.89309	0.48785	-0.117
Mof_C 	C 	0.9895	0.94356	0.53194	0.075
Mof_C 	C 	0.9347	0.93145	0.50762	-0.126
Mof_C 	C 	0.9772	0.90507	0.48537	0.056
Mof_C 	C 	0.9207	0.8911	0.45889	0.101
Mof_C 	C 	0.5349	0.94582	0.44706	0.071
Mof_C 	C 	0.6288	0.92942	0.45192	-0.123
Mof_C 	C 	0.5365	0.91674	0.39988	0.068
Mof_C 	C 	0.6303	0.89904	0.40319	-0.123
Mof_C 	C 	0.6776	0.90573	0.42948	0.053
Mof_C 	C 	0.7814	0.89056	0.4331	0.098
Mof_C 	C 	0.9754	0.7997	0.34147	0.08
Mof_C 	C 	0.9227	0.82164	0.3638	-0.124
Mof_C 	C 	0.1176	0.80704	0.36739	0.07
Mof_C 	C 	0.0695	0.82872	0.39063	-0.113
Mof_C 	C 	0.9702	0.83584	0.38896	0.062
Mof_C 	C 	0.9176	0.85839	0.41362	0.107
Mof_C 	C 	0.0764	0.81093	0.26128	0.068
Mof_C 	C 	0.0394	0.81851	0.23349	-0.118
Mof_C 	C 	0.036	0.73028	0.25983	0.06
Mof_C 	C 	0.0001	0.73487	0.23178	-0.113
Mof_C 	C 	0.0021	0.77967	0.21817	0.051
Mof_C 	C 	0.9691	0.78422	0.18761	0.101
Mof_C 	C 	0.9072	0.61724	0.12436	0.063
Mof_C 	C 	0.9242	0.65825	0.14062	-0.117
Mof_C 	C 	0.8698	0.66277	0.08369	0.07
Mof_C 	C 	0.8866	0.70527	0.09846	-0.119
Mof_C 	C 	0.9135	0.70325	0.12776	0.052
Mof_C 	C 	0.9299	0.74825	0.14482	0.104
Mof_C 	C 	0.8921	0.92496	0.09125	0.074
Mof_C 	C 	0.9073	0.88046	0.10397	-0.118
Mof_C 	C 	0.8965	0.96273	0.13556	0.069
Mof_C 	C 	0.9121	0.91923	0.14988	-0.119
Mof_C 	C 	0.9174	0.87701	0.13394	0.055
Mof_C 	C 	0.9307	0.82953	0.14803	0.101
Mof_I 	I 	0.18591	0.30115	0.69094	-0.372
Mof_I 	I 	0.34397	0.16577	0.67654	-0.373
Mof_I 	I 	0.42587	0.51193	0.39937	-0.367
Mof_I 	I 	0.16064	0.43608	0.43744	-0.381
Mof_I 	I 	0.22199	0.48848	0.53632	-0.39
Mof_I 	I 	0.23169	0.41833	0.62439	-0.368
Mof_I 	I 	0.81409	0.19885	0.19094	-0.372
Mof_I 	I 	0.65603	0.33423	0.17654	-0.373
Mof_I 	I 	0.57413	0.98807	0.89937	-0.367
Mof_I 	I 	0.83936	0.06392	0.93744	-0.382
Mof_I 	I 	0.77801	0.01152	0.03632	-0.39
Mof_I 	I 	0.76831	0.08167	0.12439	-0.369
Mof_I 	I 	0.68591	0.69885	0.80906	-0.372
Mof_I 	I 	0.84397	0.83423	0.82346	-0.373
Mof_I 	I 	0.92587	0.48807	0.10063	-0.367
Mof_I 	I 	0.66064	0.56392	0.06256	-0.381
Mof_I 	I 	0.72199	0.51152	0.96368	-0.39
Mof_I 	I 	0.73169	0.58167	0.87561	-0.368
Mof_I 	I 	0.31409	0.80115	0.30906	-0.372
Mof_I 	I 	0.15603	0.66577	0.32346	-0.373
Mof_I 	I 	0.07413	0.01193	0.60063	-0.367
Mof_I 	I 	0.33936	0.93608	0.56256	-0.381
Mof_I 	I 	0.27801	0.98848	0.46368	-0.39
Mof_I 	I 	0.26831	0.91833	0.37561	-0.368
Mof_N 	N 	0.4168	0.43101	0.46528	-0.273
Mof_N 	N 	0.0108	0.4403	0.57872	-0.274
Mof_N 	N 	0.4289	0.29197	0.6566	-0.277
Mof_N 	N 	0.6734	0.4028	0.54198	-0.143
Mof_N 	N 	0.6774	0.36779	0.58957	-0.135
Mof_N 	N 	0.5297	0.36865	0.56238	-0.137
Mof_N 	N 	0.4243	0.26763	0.72571	-0.274
Mof_N 	N 	0.6205	0.11902	0.90376	-0.272
Mof_N 	N 	0.614	0.4658	0.89344	-0.273
Mof_N 	N 	0.5444	0.2428	0.82716	-0.14
Mof_N 	N 	0.5834	0.29044	0.86861	-0.14
Mof_N 	N 	0.5434	0.32871	0.82362	-0.138
Mof_N 	N 	0.5832	0.06899	0.96528	-0.273
Mof_N 	N 	0.9892	0.0597	0.07872	-0.274
Mof_N 	N 	0.5711	0.20803	0.1566	-0.277
Mof_N 	N 	0.3266	0.0972	0.04198	-0.143
Mof_N 	N 	0.3226	0.13221	0.08957	-0.135
Mof_N 	N 	0.4703	0.13135	0.06238	-0.137
Mof_N 	N 	0.5757	0.23237	0.22571	-0.274
Mof_N 	N 	0.3795	0.38098	0.40376	-0.272
Mof_N 	N 	0.386	0.0342	0.39344	-0.273
Mof_N 	N 	0.4556	0.2572	0.32716	-0.14
Mof_N 	N 	0.4166	0.20956	0.36861	-0.14
Mof_N 	N 	0.4566	0.17129	0.32362	-0.138
Mof_N 	N 	0.9168	0.56899	0.03472	-0.273
Mof_N 	N 	0.5108	0.5597	0.92128	-0.274
Mof_N 	N 	0.9289	0.70803	0.8434	-0.276
Mof_N 	N 	0.1734	0.5972	0.95802	-0.143
Mof_N 	N 	0.1774	0.63221	0.91043	-0.135
Mof_N 	N 	0.0297	0.63135	0.93762	-0.137
Mof_N 	N 	0.9243	0.73237	0.77429	-0.274
Mof_N 	N 	0.1205	0.88098	0.59624	-0.272
Mof_N 	N 	0.114	0.5342	0.60656	-0.273
Mof_N 	N 	0.0444	0.7572	0.67284	-0.14
Mof_N 	N 	0.0834	0.70956	0.63139	-0.14
Mof_N 	N 	0.0434	0.67129	0.67638	-0.138
Mof_N 	N 	0.0832	0.93101	0.53472	-0.273
Mof_N 	N 	0.4892	0.9403	0.42128	-0.274
Mof_N 	N 	0.0711	0.79197	0.3434	-0.277
Mof_N 	N 	0.8266	0.9028	0.45802	-0.143
Mof_N 	N 	0.8226	0.86779	0.41043	-0.135
Mof_N 	N 	0.9703	0.86865	0.43762	-0.137
Mof_N 	N 	0.0757	0.76763	0.27429	-0.274
Mof_N 	N 	0.8795	0.61902	0.09624	-0.272
Mof_N 	N 	0.886	0.9658	0.10656	-0.273
Mof_N 	N 	0.9556	0.7428	0.17284	-0.14
Mof_N 	N 	0.9166	0.79044	0.13139	-0.14
Mof_N 	N 	0.9566	0.82871	0.17638	-0.138
Mof_Zn	Zn	0.65104	0.74391	0.31244	1.165
Mof_Zn	Zn	0.65754	0.5566	0.5735	1.163
Mof_Zn	Zn	0.85303	0.53047	0.41388	1.164
Mof_Zn	Zn	0.34896	0.75609	0.81244	1.165
Mof_Zn	Zn	0.34246	0.9434	0.0735	1.163
Mof_Zn	Zn	0.14697	0.96953	0.91388	1.164
Mof_Zn	Zn	0.15104	0.25609	0.18756	1.165
Mof_Zn	Zn	0.15754	0.4434	0.9265	1.163
Mof_Zn	Zn	0.35303	0.46953	0.08612	1.165
Mof_Zn	Zn	0.84896	0.24391	0.68756	1.165
Mof_Zn	Zn	0.84246	0.0566	0.4265	1.163
Mof_Zn	Zn	0.64697	0.03047	0.58612	1.164
Mof_H 	H 	0.6925	0.6015	0.5145	-0.008
Mof_H 	H 	0.6069	0.6243	0.4727	0.078
Mof_H 	H 	0.4594	0.5385	0.5473	-0.012
Mof_H 	H 	0.3682	0.5588	0.5062	0.09
Mof_H 	H 	0.0013	0.5384	0.4626	-0.003
Mof_H 	H 	0.1596	0.5657	0.4704	0.086
Mof_H 	H 	0.0042	0.588	0.3817	-0.006
Mof_H 	H 	0.1616	0.6175	0.3875	0.093
Mof_H 	H 	0.4419	0.7101	0.3242	-0.014
Mof_H 	H 	0.3543	0.6732	0.3617	0.083
Mof_H 	H 	0.6865	0.6973	0.3686	-0.011
Mof_H 	H 	0.6048	0.6614	0.4076	0.082
Mof_H 	H 	0.6035	0.6623	0.2716	-0.012
Mof_H 	H 	0.5397	0.65	0.2251	0.08
Mof_H 	H 	0.5326	0.8004	0.2692	0
Mof_H 	H 	0.4741	0.7925	0.2218	0.08
Mof_H 	H 	0.4154	0.9135	0.1334	-0.009
Mof_H 	H 	0.4432	0.8443	0.1606	0.08
Mof_H 	H 	0.3504	0.8356	0.0637	-0.016
Mof_H 	H 	0.3799	0.7644	0.0888	0.079
Mof_H 	H 	0.3857	0.5734	0.0705	-0.009
Mof_H 	H 	0.411	0.6478	0.0921	0.082
Mof_H 	H 	0.393	0.5084	0.1469	-0.008
Mof_H 	H 	0.4191	0.5815	0.1706	0.081
Mof_H 	H 	0.3075	0.8985	0.0145	-0.008
Mof_H 	H 	0.3931	0.8757	0.9727	0.078
Mof_H 	H 	0.5406	0.9615	0.0473	-0.012
Mof_H 	H 	0.6318	0.9412	0.0062	0.09
Mof_H 	H 	0.9987	0.9616	0.9626	-0.003
Mof_H 	H 	0.8404	0.9343	0.9704	0.086
Mof_H 	H 	0.9958	0.912	0.8817	-0.006
Mof_H 	H 	0.8384	0.8825	0.8875	0.093
Mof_H 	H 	0.5581	0.7899	0.8242	-0.014
Mof_H 	H 	0.6457	0.8268	0.8617	0.083
Mof_H 	H 	0.3135	0.8027	0.8686	-0.011
Mof_H 	H 	0.3952	0.8386	0.9076	0.082
Mof_H 	H 	0.3965	0.8377	0.7716	-0.012
Mof_H 	H 	0.4603	0.85	0.7251	0.08
Mof_H 	H 	0.4674	0.6996	0.7692	0
Mof_H 	H 	0.5259	0.7075	0.7218	0.08
Mof_H 	H 	0.5846	0.5865	0.6334	-0.009
Mof_H 	H 	0.5568	0.6557	0.6606	0.08
Mof_H 	H 	0.6496	0.6644	0.5637	-0.016
Mof_H 	H 	0.6201	0.7356	0.5888	0.079
Mof_H 	H 	0.6143	0.9266	0.5705	-0.009
Mof_H 	H 	0.589	0.8522	0.5921	0.082
Mof_H 	H 	0.607	0.9916	0.6469	-0.008
Mof_H 	H 	0.5809	0.9185	0.6706	0.081
Mof_H 	H 	0.1925	0.3985	0.9855	-0.008
Mof_H 	H 	0.1069	0.3757	0.0273	0.078
Mof_H 	H 	0.9594	0.4615	0.9527	-0.012
Mof_H 	H 	0.8682	0.4412	0.9938	0.09
Mof_H 	H 	0.5013	0.4616	0.0374	-0.003
Mof_H 	H 	0.6596	0.4343	0.0296	0.086
Mof_H 	H 	0.5042	0.412	0.1183	-0.005
Mof_H 	H 	0.6616	0.3825	0.1125	0.093
Mof_H 	H 	0.9419	0.2899	0.1758	-0.014
Mof_H 	H 	0.8543	0.3268	0.1383	0.083
Mof_H 	H 	0.1865	0.3027	0.1314	-0.011
Mof_H 	H 	0.1048	0.3386	0.0924	0.081
Mof_H 	H 	0.1035	0.3377	0.2284	-0.012
Mof_H 	H 	0.0397	0.35	0.2749	0.08
Mof_H 	H 	0.0326	0.1996	0.2308	0.001
Mof_H 	H 	0.9741	0.2075	0.2782	0.079
Mof_H 	H 	0.9154	0.0865	0.3666	-0.009
Mof_H 	H 	0.9432	0.1557	0.3394	0.08
Mof_H 	H 	0.8504	0.1644	0.4363	-0.016
Mof_H 	H 	0.8799	0.2356	0.4112	0.079
Mof_H 	H 	0.8857	0.4266	0.4295	-0.009
Mof_H 	H 	0.911	0.3522	0.4079	0.082
Mof_H 	H 	0.893	0.4916	0.3531	-0.008
Mof_H 	H 	0.9191	0.4185	0.3294	0.081
Mof_H 	H 	0.8075	0.1015	0.4855	-0.008
Mof_H 	H 	0.8931	0.1243	0.5273	0.078
Mof_H 	H 	0.0406	0.0385	0.4527	-0.012
Mof_H 	H 	0.1318	0.0588	0.4938	0.091
Mof_H 	H 	0.4987	0.0384	0.5374	-0.003
Mof_H 	H 	0.3404	0.0657	0.5296	0.086
Mof_H 	H 	0.4958	0.088	0.6183	-0.005
Mof_H 	H 	0.3384	0.1175	0.6125	0.093
Mof_H 	H 	0.0581	0.2101	0.6758	-0.014
Mof_H 	H 	0.1457	0.1732	0.6383	0.084
Mof_H 	H 	0.8135	0.1973	0.6314	-0.011
Mof_H 	H 	0.8952	0.1614	0.5924	0.082
Mof_H 	H 	0.8965	0.1623	0.7284	-0.012
Mof_H 	H 	0.9603	0.15	0.7749	0.08
Mof_H 	H 	0.9674	0.3004	0.7308	0
Mof_H 	H 	0.0259	0.2925	0.7782	0.08
Mof_H 	H 	0.0846	0.4135	0.8666	-0.009
Mof_H 	H 	0.0568	0.3443	0.8394	0.08
Mof_H 	H 	0.1496	0.3356	0.9363	-0.016
Mof_H 	H 	0.1201	0.2644	0.9112	0.079
Mof_H 	H 	0.1143	0.0734	0.9295	-0.009
Mof_H 	H 	0.089	0.1478	0.9079	0.082
Mof_H 	H 	0.107	0.0084	0.8531	-0.008
Mof_H 	H 	0.0809	0.0815	0.8294	0.081
Mof_C 	C 	0.6253	0.59323	0.51286	0.07
Mof_C 	C 	0.5748	0.60691	0.48785	-0.116
Mof_C 	C 	0.4895	0.55644	0.53194	0.074
Mof_C 	C 	0.4347	0.56855	0.50762	-0.126
Mof_C 	C 	0.4772	0.59493	0.48537	0.055
Mof_C 	C 	0.4207	0.6089	0.45889	0.101
Mof_C 	C 	0.0349	0.55418	0.44706	0.071
Mof_C 	C 	0.1288	0.57058	0.45192	-0.123
Mof_C 	C 	0.0365	0.58326	0.39988	0.068
Mof_C 	C 	0.1303	0.60096	0.40319	-0.123
Mof_C 	C 	0.1776	0.59427	0.42948	0.053
Mof_C 	C 	0.2814	0.60944	0.4331	0.098
Mof_C 	C 	0.4754	0.7003	0.34147	0.079
Mof_C 	C 	0.4227	0.67836	0.3638	-0.124
Mof_C 	C 	0.6176	0.69296	0.36739	0.07
Mof_C 	C 	0.5695	0.67128	0.39063	-0.112
Mof_C 	C 	0.4702	0.66416	0.38896	0.062
Mof_C 	C 	0.4176	0.64161	0.41362	0.107
Mof_C 	C 	0.5764	0.68907	0.26128	0.068
Mof_C 	C 	0.5394	0.68149	0.23349	-0.119
Mof_C 	C 	0.536	0.76972	0.25983	0.06
Mof_C 	C 	0.5001	0.76513	0.23178	-0.113
Mof_C 	C 	0.5021	0.72033	0.21817	0.051
Mof_C 	C 	0.4691	0.71578	0.18761	0.101
Mof_C 	C 	0.4072	0.88276	0.12436	0.063
Mof_C 	C 	0.4242	0.84175	0.14062	-0.117
Mof_C 	C 	0.3698	0.83723	0.08369	0.07
Mof_C 	C 	0.3866	0.79473	0.09846	-0.119
Mof_C 	C 	0.4135	0.79675	0.12776	0.052
Mof_C 	C 	0.4299	0.75175	0.14482	0.104
Mof_C 	C 	0.3921	0.57504	0.09125	0.074
Mof_C 	C 	0.4073	0.61954	0.10397	-0.118
Mof_C 	C 	0.3965	0.53727	0.13556	0.069
Mof_C 	C 	0.4121	0.58077	0.14988	-0.119
Mof_C 	C 	0.4174	0.62299	0.13394	0.055
Mof_C 	C 	0.4307	0.67047	0.14803	0.101
Mof_C 	C 	0.3747	0.90677	0.01286	0.07
Mof_C 	C 	0.4252	0.89309	0.98785	-0.116
Mof_C 	C 	0.5105	0.94356	0.03194	0.074
Mof_C 	C 	0.5653	0.93145	0.00762	-0.126
Mof_C 	C 	0.5228	0.90507	0.98537	0.055
Mof_C 	C 	0.5793	0.8911	0.95889	0.101
Mof_C 	C 	0.9651	0.94582	0.94706	0.072
Mof_C 	C 	0.8712	0.92942	0.95192	-0.124
Mof_C 	C 	0.9635	0.91674	0.89988	0.069
Mof_C 	C 	0.8697	0.89904	0.90319	-0.123
Mof_C 	C 	0.8224	0.90573	0.92948	0.053
Mof_C 	C 	0.7186	0.89056	0.9331	0.098
Mof_C 	C 	0.5246	0.7997	0.84147	0.079
Mof_C 	C 	0.5773	0.82164	0.8638	-0.124
Mof_C 	C 	0.3824	0.80704	0.86739	0.07
Mof_C 	C 	0.4305	0.82872	0.89063	-0.112
Mof_C 	C 	0.5298	0.83584	0.88896	0.062
Mof_C 	C 	0.5824	0.85839	0.91362	0.107
Mof_C 	C 	0.4236	0.81093	0.76128	0.068
Mof_C 	C 	0.4606	0.81851	0.73349	-0.119
Mof_C 	C 	0.464	0.73028	0.75983	0.06
Mof_C 	C 	0.4999	0.73487	0.73178	-0.113
Mof_C 	C 	0.4979	0.77967	0.71817	0.051
Mof_C 	C 	0.5309	0.78422	0.68761	0.101
Mof_C 	C 	0.5928	0.61724	0.62436	0.063
Mof_C 	C 	0.5758	0.65825	0.64062	-0.117
Mof_C 	C 	0.6302	0.66277	0.58369	0.07
Mof_C 	C 	0.6134	0.70527	0.59846	-0.119
Mof_C 	C 	0.5865	0.70325	0.62776	0.052
Mof_C 	C 	0.5701	0.74825	0.64482	0.104
Mof_C 	C 	0.6079	0.92496	0.59125	0.074
Mof_C 	C 	0.5927	0.88046	0.60397	-0.118
Mof_C 	C 	0.6035	0.96273	0.63556	0.069
Mof_C 	C 	0.5879	0.91923	0.64988	-0.119
Mof_C 	C 	0.5826	0.87701	0.63394	0.055
Mof_C 	C 	0.5693	0.82953	0.64803	0.101
Mof_C 	C 	0.1253	0.40677	0.98714	0.069
Mof_C 	C 	0.0748	0.39309	0.01215	-0.116
Mof_C 	C 	0.9895	0.44356	0.96806	0.073
Mof_C 	C 	0.9347	0.43145	0.99238	-0.126
Mof_C 	C 	0.9772	0.40507	0.01463	0.055
Mof_C 	C 	0.9207	0.3911	0.04111	0.101
Mof_C 	C 	0.5349	0.44582	0.05294	0.071
Mof_C 	C 	0.6288	0.42942	0.04808	-0.123
Mof_C 	C 	0.5365	0.41674	0.10012	0.068
Mof_C 	C 	0.6303	0.39904	0.09681	-0.123
Mof_C 	C 	0.6776	0.40573	0.07052	0.053
Mof_C 	C 	0.7814	0.39056	0.0669	0.098
Mof_C 	C 	0.9754	0.2997	0.15853	0.079
Mof_C 	C 	0.9227	0.32164	0.1362	-0.123
Mof_C 	C 	0.1176	0.30704	0.13261	0.07
Mof_C 	C 	0.0695	0.32872	0.10937	-0.111
Mof_C 	C 	0.9702	0.33584	0.11104	0.061
Mof_C 	C 	0.9176	0.35839	0.08638	0.107
Mof_C 	C 	0.0764	0.31093	0.23872	0.068
Mof_C 	C 	0.0394	0.31851	0.26651	-0.118
Mof_C 	C 	0.036	0.23028	0.24017	0.06
Mof_C 	C 	0.0001	0.23487	0.26822	-0.112
Mof_C 	C 	0.0021	0.27967	0.28183	0.051
Mof_C 	C 	0.9691	0.28422	0.31239	0.1
Mof_C 	C 	0.9072	0.11724	0.37564	0.063
Mof_C 	C 	0.9242	0.15825	0.35938	-0.117
Mof_C 	C 	0.8698	0.16277	0.41631	0.069
Mof_C 	C 	0.8866	0.20527	0.40154	-0.119
Mof_C 	C 	0.9135	0.20325	0.37224	0.052
Mof_C 	C 	0.9299	0.24825	0.35518	0.104
Mof_C 	C 	0.8921	0.42496	0.40875	0.074
Mof_C 	C 	0.9073	0.38046	0.39603	-0.118
Mof_C 	C 	0.8965	0.46273	0.36444	0.069
Mof_C 	C 	0.9121	0.41923	0.35012	-0.119
Mof_C 	C 	0.9174	0.37701	0.36606	0.055
Mof_C 	C 	0.9307	0.32953	0.35197	0.101
Mof_C 	C 	0.8747	0.09323	0.48714	0.07
Mof_C 	C 	0.9252	0.10691	0.51215	-0.117
Mof_C 	C 	0.0105	0.05644	0.46806	0.075
Mof_C 	C 	0.0653	0.06855	0.49238	-0.126
Mof_C 	C 	0.0228	0.09493	0.51463	0.056
Mof_C 	C 	0.0793	0.1089	0.54111	0.101
Mof_C 	C 	0.4651	0.05418	0.55294	0.071
Mof_C 	C 	0.3712	0.07058	0.54808	-0.123
Mof_C 	C 	0.4635	0.08326	0.60012	0.068
Mof_C 	C 	0.3697	0.10096	0.59681	-0.123
Mof_C 	C 	0.3224	0.09427	0.57052	0.053
Mof_C 	C 	0.2186	0.10944	0.5669	0.098
Mof_C 	C 	0.0246	0.2003	0.65853	0.08
Mof_C 	C 	0.0773	0.17836	0.6362	-0.124
Mof_C 	C 	0.8824	0.19296	0.63261	0.07
Mof_C 	C 	0.9305	0.17128	0.60937	-0.113
Mof_C 	C 	0.0298	0.16416	0.61104	0.062
Mof_C 	C 	0.0824	0.14161	0.58638	0.107
Mof_C 	C 	0.9236	0.18907	0.73872	0.068
Mof_C 	C 	0.9606	0.18149	0.76651	-0.118
Mof_C 	C 	0.964	0.26972	0.74017	0.06
Mof_C 	C 	0.9999	0.26513	0.76822	-0.113
Mof_C 	C 	0.9979	0.22033	0.78183	0.051
Mof_C 	C 	0.0309	0.21578	0.81239	0.101
Mof_C 	C 	0.0928	0.38276	0.87564	0.063
Mof_C 	C 	0.0758	0.34175	0.85938	-0.117
Mof_C 	C 	0.1302	0.33723	0.91631	0.07
Mof_C 	C 	0.1134	0.29473	0.90154	-0.119
Mof_C 	C 	0.0865	0.29675	0.87224	0.052
Mof_C 	C 	0.0701	0.25175	0.85518	0.104
Mof_C 	C 	0.1079	0.07504	0.90875	0.074
Mof_C 	C 	0.0927	0.11954	0.89603	-0.118
Mof_C 	C 	0.1035	0.03727	0.86444	0.069
Mof_C 	C 	0.0879	0.08077	0.85012	-0.119
Mof_C 	C 	0.0826	0.12299	0.86606	0.055
Mof_C 	C 	0.0693	0.17047	0.85197	0.101
Mof_I 	I 	0.81409	0.69885	0.30906	-0.372
Mof_I 	I 	0.65603	0.83423	0.32346	-0.373
Mof_I 	I 	0.57413	0.48807	0.60063	-0.367
Mof_I 	I 	0.83936	0.56392	0.56256	-0.381
Mof_I 	I 	0.77801	0.51152	0.46368	-0.39
Mof_I 	I 	0.76831	0.58167	0.37561	-0.368
Mof_I 	I 	0.18591	0.80115	0.80906	-0.372
Mof_I 	I 	0.34397	0.66577	0.82346	-0.373
Mof_I 	I 	0.42587	0.01193	0.10063	-0.367
Mof_I 	I 	0.16064	0.93608	0.06256	-0.382
Mof_I 	I 	0.22199	0.98848	0.96368	-0.39
Mof_I 	I 	0.23169	0.91833	0.87561	-0.369
Mof_I 	I 	0.31409	0.30115	0.19094	-0.372
Mof_I 	I 	0.15603	0.16577	0.17654	-0.373
Mof_I 	I 	0.07413	0.51193	0.89937	-0.367
Mof_I 	I 	0.33936	0.43608	0.93744	-0.381
Mof_I 	I 	0.27801	0.48848	0.03632	-0.39
Mof_I 	I 	0.26831	0.41833	0.12439	-0.368
Mof_I 	I 	0.68591	0.19885	0.69094	-0.372
Mof_I 	I 	0.84397	0.33423	0.67654	-0.373
Mof_I 	I 	0.92587	0.98807	0.39937	-0.367
Mof_I 	I 	0.66064	0.06392	0.43744	-0.381
Mof_I 	I 	0.72199	0.01152	0.53632	-0.39
Mof_I 	I 	0.73169	0.08167	0.62439	-0.368
Mof_N 	N 	0.5832	0.56899	0.53472	-0.273
Mof_N 	N 	0.9892	0.5597	0.42128	-0.274
Mof_N 	N 	0.5711	0.70803	0.3434	-0.277
Mof_N 	N 	0.3266	0.5972	0.45802	-0.143
Mof_N 	N 	0.3226	0.63221	0.41043	-0.135
Mof_N 	N 	0.4703	0.63135	0.43762	-0.137
Mof_N 	N 	0.5757	0.73237	0.27429	-0.274
Mof_N 	N 	0.3795	0.88098	0.09624	-0.272
Mof_N 	N 	0.386	0.5342	0.10656	-0.273
Mof_N 	N 	0.4556	0.7572	0.17284	-0.14
Mof_N 	N 	0.4166	0.70956	0.13139	-0.14
Mof_N 	N 	0.4566	0.67129	0.17638	-0.138
Mof_N 	N 	0.4168	0.93101	0.03472	-0.273
Mof_N 	N 	0.0108	0.9403	0.92128	-0.274
Mof_N 	N 	0.4289	0.79197	0.8434	-0.277
Mof_N 	N 	0.6734	0.9028	0.95802	-0.143
Mof_N 	N 	0.6774	0.86779	0.91043	-0.135
Mof_N 	N 	0.5297	0.86865	0.93762	-0.137
Mof_N 	N 	0.4243	0.76763	0.77429	-0.274
Mof_N 	N 	0.6205	0.61902	0.59624	-0.272
Mof_N 	N 	0.614	0.9658	0.60656	-0.273
Mof_N 	N 	0.5444	0.7428	0.67284	-0.14
Mof_N 	N 	0.5834	0.79044	0.63139	-0.14
Mof_N 	N 	0.5434	0.82871	0.67638	-0.138
Mof_N 	N 	0.0832	0.43101	0.96528	-0.273
Mof_N 	N 	0.4892	0.4403	0.07872	-0.274
Mof_N 	N 	0.0711	0.29197	0.1566	-0.276
Mof_N 	N 	0.8266	0.4028	0.04198	-0.143
Mof_N 	N 	0.8226	0.36779	0.08957	-0.135
Mof_N 	N 	0.9703	0.36865	0.06238	-0.137
Mof_N 	N 	0.0757	0.26763	0.22571	-0.274
Mof_N 	N 	0.8795	0.11902	0.40376	-0.272
Mof_N 	N 	0.886	0.4658	0.39344	-0.273
Mof_N 	N 	0.9556	0.2428	0.32716	-0.14
Mof_N 	N 	0.9166	0.29044	0.36861	-0.14
Mof_N 	N 	0.9566	0.32871	0.32362	-0.138
Mof_N 	N 	0.9168	0.06899	0.46528	-0.273
Mof_N 	N 	0.5108	0.0597	0.57872	-0.274
Mof_N 	N 	0.9289	0.20803	0.6566	-0.277
Mof_N 	N 	0.1734	0.0972	0.54198	-0.143
Mof_N 	N 	0.1774	0.13221	0.58957	-0.135
Mof_N 	N 	0.0297	0.13135	0.56238	-0.137
Mof_N 	N 	0.9243	0.23237	0.72571	-0.274
Mof_N 	N 	0.1205	0.38098	0.90376	-0.272
Mof_N 	N 	0.114	0.0342	0.89344	-0.273
Mof_N 	N 	0.0444	0.2572	0.82716	-0.14
Mof_N 	N 	0.0834	0.20956	0.86861	-0.14
Mof_N 	N 	0.0434	0.17129	0.82362	-0.138
_end
