data_functionalizedCrystal
_audit_creation_method	'EQeq! by Chris Wilmer'
_symmetry_space_group_name_H-M	'P1'
_symmetry_Int_Tables_number	1
_symmetry_cell_setting	triclinic
loop_
_symmetry_equiv_pos_as_xyz
  x,y,z
_cell_length_a	6.146
_cell_length_b	8.692
_cell_length_c	9.216
_cell_angle_alpha	115.5
_cell_angle_beta	95.094
_cell_angle_gamma	84.508
loop_
_atom_site_label
_atom_site_type_symbol
_atom_site_fract_x
_atom_site_fract_y
_atom_site_fract_z
_atom_site_charge
Mof_Ba	Ba	0.7218	0.9558	0.7907	1.9
Mof_Ba	Ba	0.7867	0.3635	0.5815	1.794
Mof_Ba	Ba	0.2782	0.0442	0.2093	1.899
Mof_Ba	Ba	0.2133	0.6365	0.4185	1.793
Mof_C 	C 	0.176	0.076	0.677	0.273
Mof_C 	C 	0.325	0.18	0.627	0.219
Mof_C 	C 	0.136	0.724	0.82	0.228
Mof_C 	C 	0.385	0.713	0.817	0.228
Mof_C 	C 	0.824	0.924	0.323	0.273
Mof_C 	C 	0.675	0.82	0.373	0.219
Mof_C 	C 	0.864	0.276	0.18	0.228
Mof_C 	C 	0.615	0.287	0.183	0.228
Mof_O 	O 	0.981	0.125	0.686	-0.581
Mof_O 	O 	0.267	0.953	0.696	-0.567
Mof_O 	O 	0.238	0.253	0.54	-0.579
Mof_O 	O 	0.524	0.181	0.673	-0.565
Mof_O 	O 	0.029	0.644	0.689	-0.631
Mof_O 	O 	0.05	0.815	0.95	-0.546
Mof_O 	O 	0.475	0.63	0.685	-0.622
Mof_O 	O 	0.486	0.801	0.947	-0.55
Mof_O 	O 	0.019	0.875	0.314	-0.581
Mof_O 	O 	0.733	0.047	0.304	-0.567
Mof_O 	O 	0.762	0.747	0.46	-0.579
Mof_O 	O 	0.476	0.819	0.327	-0.565
Mof_O 	O 	0.971	0.356	0.311	-0.631
Mof_O 	O 	0.95	0.185	0.05	-0.546
Mof_O 	O 	0.525	0.37	0.315	-0.622
Mof_O 	O 	0.514	0.199	0.053	-0.55
_end
