data_functionalizedCrystal
_audit_creation_method	'EQeq! by Chris Wilmer'
_symmetry_space_group_name_H-M	'P1'
_symmetry_Int_Tables_number	1
_symmetry_cell_setting	triclinic
loop_
_symmetry_equiv_pos_as_xyz
  x,y,z
_cell_length_a	10.979
_cell_length_b	16.6505
_cell_length_c	19.3795
_cell_angle_alpha	90
_cell_angle_beta	90
_cell_angle_gamma	90
loop_
_atom_site_label
_atom_site_type_symbol
_atom_site_fract_x
_atom_site_fract_y
_atom_site_fract_z
_atom_site_charge
Mof_O 	O 	0.369	0.85479	0.18412	-0.473
Mof_O 	O 	0.2233	0.8452	0.10727	-0.451
Mof_C 	C 	0.481	0.1764	0.0029	-0.175
Mof_H 	H 	0.5678	0.1809	0.0115	0.089
Mof_H 	H 	0.4692	0.1723	0.9534	0.074
Mof_C 	C 	0.4333	0.1009	0.0372	0.165
Mof_C 	C 	0.4814	0.0759	0.0995	-0.196
Mof_H 	H 	0.5403	0.1071	0.1212	0.109
Mof_C 	C 	0.4433	0.0057	0.13	0.104
Mof_H 	H 	0.4784	0.9894	0.1714	-0.008
Mof_C 	C 	0.3545	0.9594	0.10028	-0.153
Mof_C 	C 	0.304	0.9844	0.037	0.087
Mof_H 	H 	0.2434	0.954	0.016	0.011
Mof_C 	C 	0.3447	0.0541	0.0062	-0.184
Mof_H 	H 	0.3121	0.0698	0.964	0.09
Mof_C 	C 	0.3133	0.8822	0.1321	0.328
Mof_O 	O 	0.131	0.14521	0.68412	-0.474
Mof_O 	O 	0.2767	0.1548	0.60727	-0.451
Mof_C 	C 	0.019	0.8236	0.5029	-0.177
Mof_H 	H 	0.9322	0.8191	0.5115	0.089
Mof_H 	H 	0.0308	0.8277	0.4534	0.076
Mof_C 	C 	0.0667	0.8991	0.5372	0.168
Mof_C 	C 	0.0186	0.9241	0.5995	-0.198
Mof_H 	H 	0.9597	0.8929	0.6212	0.109
Mof_C 	C 	0.0567	0.9943	0.63	0.109
Mof_H 	H 	0.0216	0.0106	0.6714	-0.01
Mof_C 	C 	0.1455	0.0406	0.60028	-0.157
Mof_C 	C 	0.196	0.0156	0.537	0.091
Mof_H 	H 	0.2566	0.046	0.516	0.01
Mof_C 	C 	0.1553	0.9459	0.5062	-0.189
Mof_H 	H 	0.1879	0.9302	0.464	0.094
Mof_C 	C 	0.1867	0.1178	0.6321	0.329
Mof_O 	O 	0.631	0.35479	0.81588	-0.473
Mof_O 	O 	0.7767	0.3452	0.89273	-0.451
Mof_C 	C 	0.519	0.6764	0.9971	-0.177
Mof_H 	H 	0.4322	0.6809	0.9885	0.089
Mof_H 	H 	0.5308	0.6723	0.0466	0.075
Mof_C 	C 	0.5667	0.6009	0.9628	0.166
Mof_C 	C 	0.5186	0.5759	0.9005	-0.196
Mof_H 	H 	0.4597	0.6071	0.8788	0.109
Mof_C 	C 	0.5567	0.5057	0.87	0.102
Mof_H 	H 	0.5216	0.4894	0.8286	-0.007
Mof_C 	C 	0.6455	0.4594	0.89972	-0.153
Mof_C 	C 	0.696	0.4844	0.963	0.089
Mof_H 	H 	0.7566	0.454	0.984	0.01
Mof_C 	C 	0.6553	0.5541	0.9938	-0.188
Mof_H 	H 	0.6879	0.5698	0.036	0.092
Mof_C 	C 	0.6867	0.3822	0.8679	0.328
Mof_O 	O 	0.869	0.64521	0.31588	-0.473
Mof_O 	O 	0.7233	0.6548	0.39273	-0.451
Mof_C 	C 	0.981	0.3236	0.4971	-0.178
Mof_H 	H 	0.0678	0.3191	0.4885	0.089
Mof_H 	H 	0.9692	0.3277	0.5466	0.075
Mof_C 	C 	0.9333	0.3991	0.4628	0.167
Mof_C 	C 	0.9814	0.4241	0.4005	-0.197
Mof_H 	H 	0.0403	0.3929	0.3788	0.109
Mof_C 	C 	0.9433	0.4943	0.37	0.103
Mof_H 	H 	0.9784	0.5106	0.3286	-0.007
Mof_C 	C 	0.8545	0.5406	0.39972	-0.153
Mof_C 	C 	0.804	0.5156	0.463	0.09
Mof_H 	H 	0.7434	0.546	0.484	0.01
Mof_C 	C 	0.8447	0.4459	0.4938	-0.189
Mof_H 	H 	0.8121	0.4302	0.536	0.093
Mof_C 	C 	0.8133	0.6178	0.3679	0.328
Mof_O 	O 	0.631	0.14521	0.81588	-0.473
Mof_O 	O 	0.7767	0.1548	0.89273	-0.451
Mof_C 	C 	0.519	0.8236	0.9971	-0.175
Mof_H 	H 	0.4322	0.8191	0.9885	0.089
Mof_H 	H 	0.5308	0.8277	0.0466	0.074
Mof_C 	C 	0.5667	0.8991	0.9628	0.165
Mof_C 	C 	0.5186	0.9241	0.9005	-0.196
Mof_H 	H 	0.4597	0.8929	0.8788	0.109
Mof_C 	C 	0.5567	0.9943	0.87	0.104
Mof_H 	H 	0.5216	0.0106	0.8286	-0.008
Mof_C 	C 	0.6455	0.0406	0.89972	-0.153
Mof_C 	C 	0.696	0.0156	0.963	0.087
Mof_H 	H 	0.7566	0.046	0.984	0.011
Mof_C 	C 	0.6553	0.9459	0.9938	-0.184
Mof_H 	H 	0.6879	0.9302	0.036	0.09
Mof_C 	C 	0.6867	0.1178	0.8679	0.328
Mof_O 	O 	0.869	0.85479	0.31588	-0.474
Mof_O 	O 	0.7233	0.8452	0.39273	-0.451
Mof_C 	C 	0.981	0.1764	0.4971	-0.177
Mof_H 	H 	0.0678	0.1809	0.4885	0.089
Mof_H 	H 	0.9692	0.1723	0.5466	0.076
Mof_C 	C 	0.9333	0.1009	0.4628	0.168
Mof_C 	C 	0.9814	0.0759	0.4005	-0.198
Mof_H 	H 	0.0403	0.1071	0.3788	0.109
Mof_C 	C 	0.9433	0.0057	0.37	0.109
Mof_H 	H 	0.9784	0.9894	0.3286	-0.01
Mof_C 	C 	0.8545	0.9594	0.39972	-0.157
Mof_C 	C 	0.804	0.9844	0.463	0.091
Mof_H 	H 	0.7434	0.954	0.484	0.01
Mof_C 	C 	0.8447	0.0541	0.4938	-0.189
Mof_H 	H 	0.8121	0.0698	0.536	0.094
Mof_C 	C 	0.8133	0.8822	0.3679	0.329
Mof_O 	O 	0.369	0.64521	0.18412	-0.473
Mof_O 	O 	0.2233	0.6548	0.10727	-0.451
Mof_C 	C 	0.481	0.3236	0.0029	-0.177
Mof_H 	H 	0.5678	0.3191	0.0115	0.089
Mof_H 	H 	0.4692	0.3277	0.9534	0.075
Mof_C 	C 	0.4333	0.3991	0.0372	0.166
Mof_C 	C 	0.4814	0.4241	0.0995	-0.196
Mof_H 	H 	0.5403	0.3929	0.1212	0.109
Mof_C 	C 	0.4433	0.4943	0.13	0.102
Mof_H 	H 	0.4784	0.5106	0.1714	-0.007
Mof_C 	C 	0.3545	0.5406	0.10028	-0.153
Mof_C 	C 	0.304	0.5156	0.037	0.089
Mof_H 	H 	0.2434	0.546	0.016	0.01
Mof_C 	C 	0.3447	0.4459	0.0062	-0.188
Mof_H 	H 	0.3121	0.4302	0.964	0.092
Mof_C 	C 	0.3133	0.6178	0.1321	0.328
Mof_O 	O 	0.131	0.35479	0.68412	-0.473
Mof_O 	O 	0.2767	0.3452	0.60727	-0.451
Mof_C 	C 	0.019	0.6764	0.5029	-0.178
Mof_H 	H 	0.9322	0.6809	0.5115	0.089
Mof_H 	H 	0.0308	0.6723	0.4534	0.075
Mof_C 	C 	0.0667	0.6009	0.5372	0.167
Mof_C 	C 	0.0186	0.5759	0.5995	-0.197
Mof_H 	H 	0.9597	0.6071	0.6212	0.109
Mof_C 	C 	0.0567	0.5057	0.63	0.103
Mof_H 	H 	0.0216	0.4894	0.6714	-0.007
Mof_C 	C 	0.1455	0.4594	0.60028	-0.153
Mof_C 	C 	0.196	0.4844	0.537	0.09
Mof_H 	H 	0.2566	0.454	0.516	0.01
Mof_C 	C 	0.1553	0.5541	0.5062	-0.189
Mof_H 	H 	0.1879	0.5698	0.464	0.093
Mof_C 	C 	0.1867	0.3822	0.6321	0.328
Mof_N 	N 	0.4186	0.25	0.0288	-0.06
Mof_Eu	Eu	0.28799	0.25	0.70364	2.11
Mof_O 	O 	0.1796	0.25	0.80552	-0.636
Mof_O 	O 	0.9857	0.25	0.8347	-0.624
Mof_O 	O 	0.3485	0.25	0.1538	-0.455
Mof_H 	H 	0.3572	0.25	0.1958	0.276
Mof_O 	O 	0.1514	0.25	0.1814	-0.288
Mof_C 	C 	0.0963	0.25	0.8488	0.589
Mof_C 	C 	0.1308	0.25	0.9235	-0.184
Mof_C 	C 	0.0432	0.25	0.9749	0.042
Mof_H 	H 	0.961	0.25	0.9633	0.027
Mof_C 	C 	0.0783	0.25	0.0436	-0.048
Mof_H 	H 	0.0191	0.25	0.0779	0.062
Mof_C 	C 	0.2019	0.25	0.0621	-0.082
Mof_C 	C 	0.2879	0.25	0.0102	0.069
Mof_C 	C 	0.253	0.25	0.9412	-0.007
Mof_H 	H 	0.3121	0.25	0.9067	0.009
Mof_C 	C 	0.2295	0.25	0.1385	0.368
Mof_N 	N 	0.0814	0.75	0.5288	-0.059
Mof_Eu	Eu	0.21201	0.75	0.20364	2.11
Mof_O 	O 	0.3204	0.75	0.30552	-0.637
Mof_O 	O 	0.5143	0.75	0.3347	-0.626
Mof_O 	O 	0.1515	0.75	0.6538	-0.455
Mof_H 	H 	0.1428	0.75	0.6958	0.276
Mof_O 	O 	0.3486	0.75	0.6814	-0.288
Mof_C 	C 	0.4037	0.75	0.3488	0.592
Mof_C 	C 	0.3692	0.75	0.4235	-0.189
Mof_C 	C 	0.4568	0.75	0.4749	0.052
Mof_H 	H 	0.539	0.75	0.4633	0.023
Mof_C 	C 	0.4217	0.75	0.5436	-0.056
Mof_H 	H 	0.4809	0.75	0.5779	0.064
Mof_C 	C 	0.2981	0.75	0.5621	-0.078
Mof_C 	C 	0.2121	0.75	0.5102	0.065
Mof_C 	C 	0.247	0.75	0.4412	-0.002
Mof_H 	H 	0.1879	0.75	0.4067	0.007
Mof_C 	C 	0.2705	0.75	0.6385	0.366
Mof_N 	N 	0.5814	0.75	0.9712	-0.06
Mof_Eu	Eu	0.71201	0.75	0.29636	2.11
Mof_O 	O 	0.8204	0.75	0.19448	-0.636
Mof_O 	O 	0.0143	0.75	0.1653	-0.624
Mof_O 	O 	0.6515	0.75	0.8462	-0.455
Mof_H 	H 	0.6428	0.75	0.8042	0.276
Mof_O 	O 	0.8486	0.75	0.8186	-0.288
Mof_C 	C 	0.9037	0.75	0.1512	0.589
Mof_C 	C 	0.8692	0.75	0.0765	-0.184
Mof_C 	C 	0.9568	0.75	0.0251	0.042
Mof_H 	H 	0.039	0.75	0.0367	0.027
Mof_C 	C 	0.9217	0.75	0.9564	-0.048
Mof_H 	H 	0.9809	0.75	0.9221	0.062
Mof_C 	C 	0.7981	0.75	0.9379	-0.082
Mof_C 	C 	0.7121	0.75	0.9898	0.069
Mof_C 	C 	0.747	0.75	0.0588	-0.007
Mof_H 	H 	0.6879	0.75	0.0933	0.009
Mof_C 	C 	0.7705	0.75	0.8615	0.368
Mof_N 	N 	0.9186	0.25	0.4712	-0.059
Mof_Eu	Eu	0.78799	0.25	0.79636	2.11
Mof_O 	O 	0.6796	0.25	0.69448	-0.637
Mof_O 	O 	0.4857	0.25	0.6653	-0.626
Mof_O 	O 	0.8485	0.25	0.3462	-0.455
Mof_H 	H 	0.8572	0.25	0.3042	0.276
Mof_O 	O 	0.6514	0.25	0.3186	-0.288
Mof_C 	C 	0.5963	0.25	0.6512	0.592
Mof_C 	C 	0.6308	0.25	0.5765	-0.189
Mof_C 	C 	0.5432	0.25	0.5251	0.052
Mof_H 	H 	0.461	0.25	0.5367	0.023
Mof_C 	C 	0.5783	0.25	0.4564	-0.056
Mof_H 	H 	0.5191	0.25	0.4221	0.064
Mof_C 	C 	0.7019	0.25	0.4379	-0.078
Mof_C 	C 	0.7879	0.25	0.4898	0.065
Mof_C 	C 	0.753	0.25	0.5588	-0.002
Mof_H 	H 	0.8121	0.25	0.5933	0.007
Mof_C 	C 	0.7295	0.25	0.3615	0.366
_end
