data_functionalizedCrystal
_audit_creation_method	'EQeq! by Chris Wilmer'
_symmetry_space_group_name_H-M	'P1'
_symmetry_Int_Tables_number	1
_symmetry_cell_setting	triclinic
loop_
_symmetry_equiv_pos_as_xyz
  x,y,z
_cell_length_a	13.056
_cell_length_b	13.056
_cell_length_c	9.485
_cell_angle_alpha	90
_cell_angle_beta	90
_cell_angle_gamma	120
loop_
_atom_site_label
_atom_site_type_symbol
_atom_site_fract_x
_atom_site_fract_y
_atom_site_fract_z
_atom_site_charge
Mof_H 	H 	0.8732	0.4274	0.1764	0.495
Mof_P 	P 	0.55655	0.88758	0.08991	0.622
Mof_O 	O 	0.6177	0.9921	0.9922	-0.443
Mof_O 	O 	0.5853	0.7933	0.0403	-0.503
Mof_O 	O 	0.4208	0.8312	0.0831	-0.899
Mof_O 	O 	0.5991	0.9268	0.2392	-0.443
Mof_Be	Be	0.6634	0.1083	0.9007	0.736
Mof_H 	H 	0.5726	0.4458	0.1764	0.496
Mof_P 	P 	0.11242	0.66897	0.08991	0.624
Mof_O 	O 	0.0079	0.6256	0.9922	-0.443
Mof_O 	O 	0.2067	0.792	0.0403	-0.502
Mof_O 	O 	0.1688	0.5896	0.0831	-0.898
Mof_O 	O 	0.0732	0.6723	0.2392	-0.442
Mof_Be	Be	0.8917	0.5551	0.9007	0.737
Mof_H 	H 	0.5542	0.1268	0.1764	0.496
Mof_P 	P 	0.33103	0.44345	0.08991	0.621
Mof_O 	O 	0.3744	0.3823	0.9922	-0.439
Mof_O 	O 	0.208	0.4147	0.0403	-0.502
Mof_O 	O 	0.4104	0.5792	0.0831	-0.897
Mof_O 	O 	0.3277	0.4009	0.2392	-0.442
Mof_Be	Be	0.4449	0.3366	0.9007	0.735
Mof_H 	H 	0.5726	0.1268	0.3236	0.496
Mof_P 	P 	0.11242	0.44345	0.41009	0.621
Mof_O 	O 	0.0079	0.3823	0.5078	-0.439
Mof_O 	O 	0.2067	0.4147	0.4597	-0.503
Mof_O 	O 	0.1688	0.5792	0.4169	-0.899
Mof_O 	O 	0.0732	0.4009	0.2608	-0.442
Mof_Be	Be	0.8917	0.3366	0.5993	0.734
Mof_H 	H 	0.5542	0.4274	0.3236	0.497
Mof_P 	P 	0.33103	0.88758	0.41009	0.621
Mof_O 	O 	0.3744	0.9921	0.5078	-0.44
Mof_O 	O 	0.208	0.7933	0.4597	-0.504
Mof_O 	O 	0.4104	0.8312	0.4169	-0.899
Mof_O 	O 	0.3277	0.9268	0.2608	-0.442
Mof_Be	Be	0.4449	0.1083	0.5993	0.735
Mof_H 	H 	0.8732	0.4458	0.3236	0.496
Mof_P 	P 	0.55655	0.66897	0.41009	0.621
Mof_O 	O 	0.6177	0.6256	0.5078	-0.439
Mof_O 	O 	0.5853	0.792	0.4597	-0.503
Mof_O 	O 	0.4208	0.5896	0.4169	-0.899
Mof_O 	O 	0.5991	0.6723	0.2608	-0.442
Mof_Be	Be	0.6634	0.5551	0.5993	0.734
Mof_H 	H 	0.1268	0.5726	0.8236	0.496
Mof_P 	P 	0.44345	0.11242	0.91009	0.623
Mof_O 	O 	0.3823	0.0079	0.0078	-0.442
Mof_O 	O 	0.4147	0.2067	0.9597	-0.502
Mof_O 	O 	0.5792	0.1688	0.9169	-0.898
Mof_O 	O 	0.4009	0.0732	0.7608	-0.442
Mof_Be	Be	0.3366	0.8917	0.0993	0.737
Mof_H 	H 	0.4274	0.5542	0.8236	0.497
Mof_P 	P 	0.88758	0.33103	0.91009	0.624
Mof_O 	O 	0.9921	0.3744	0.0078	-0.443
Mof_O 	O 	0.7933	0.208	0.9597	-0.502
Mof_O 	O 	0.8312	0.4104	0.9169	-0.898
Mof_O 	O 	0.9268	0.3277	0.7608	-0.442
Mof_Be	Be	0.1083	0.4449	0.0993	0.737
Mof_H 	H 	0.4458	0.8732	0.8236	0.496
Mof_P 	P 	0.66897	0.55655	0.91009	0.621
Mof_O 	O 	0.6256	0.6177	0.0078	-0.439
Mof_O 	O 	0.792	0.5853	0.9597	-0.502
Mof_O 	O 	0.5896	0.4208	0.9169	-0.897
Mof_O 	O 	0.6723	0.5991	0.7608	-0.442
Mof_Be	Be	0.5551	0.6634	0.0993	0.735
Mof_H 	H 	0.4274	0.8732	0.6764	0.496
Mof_P 	P 	0.88758	0.55655	0.58991	0.621
Mof_O 	O 	0.9921	0.6177	0.4922	-0.439
Mof_O 	O 	0.7933	0.5853	0.5403	-0.503
Mof_O 	O 	0.8312	0.4208	0.5831	-0.899
Mof_O 	O 	0.9268	0.5991	0.7392	-0.442
Mof_Be	Be	0.1083	0.6634	0.4007	0.734
Mof_H 	H 	0.4458	0.5726	0.6764	0.497
Mof_P 	P 	0.66897	0.11242	0.58991	0.621
Mof_O 	O 	0.6256	0.0079	0.4922	-0.44
Mof_O 	O 	0.792	0.2067	0.5403	-0.504
Mof_O 	O 	0.5896	0.1688	0.5831	-0.899
Mof_O 	O 	0.6723	0.0732	0.7392	-0.442
Mof_Be	Be	0.5551	0.8917	0.4007	0.735
Mof_H 	H 	0.1268	0.5542	0.6764	0.496
Mof_P 	P 	0.44345	0.33103	0.58991	0.621
Mof_O 	O 	0.3823	0.3744	0.4922	-0.439
Mof_O 	O 	0.4147	0.208	0.5403	-0.503
Mof_O 	O 	0.5792	0.4104	0.5831	-0.899
Mof_O 	O 	0.4009	0.3277	0.7392	-0.442
Mof_Be	Be	0.3366	0.4449	0.4007	0.734
Mof_Na	Na	0.33333	0.66667	0.25	1.912
Mof_Na	Na	0.66667	0.33333	0.75	1.912
Mof_Na	Na	0.66667	0.33333	0.0811	2.469
Mof_Na	Na	0.66667	0.33333	0.4189	2.477
Mof_Na	Na	0.33333	0.66667	0.9189	2.469
Mof_Na	Na	0.33333	0.66667	0.5811	2.477
Mof_O 	O 	0.835	0.4175	0.25	-1.425
Mof_O 	O 	0.5825	0.4175	0.25	-1.425
Mof_O 	O 	0.5825	0.165	0.25	-1.425
Mof_O 	O 	0.165	0.5825	0.75	-1.425
Mof_O 	O 	0.4175	0.5825	0.75	-1.425
Mof_O 	O 	0.4175	0.835	0.75	-1.425
_end
