data_functionalizedCrystal
_audit_creation_method	'EQeq! by Chris Wilmer'
_symmetry_space_group_name_H-M	'P1'
_symmetry_Int_Tables_number	1
_symmetry_cell_setting	triclinic
loop_
_symmetry_equiv_pos_as_xyz
  x,y,z
_cell_length_a	22.139
_cell_length_b	13.661
_cell_length_c	10.481
_cell_angle_alpha	90
_cell_angle_beta	90.06
_cell_angle_gamma	90
loop_
_atom_site_label
_atom_site_type_symbol
_atom_site_fract_x
_atom_site_fract_y
_atom_site_fract_z
_atom_site_charge
Mof_Zn	Zn	0.39842	0.04063	0.68857	1.247
Mof_Zn	Zn	0.25709	0.11128	0.44731	1.233
Mof_P 	P 	0.35017	0.23624	0.58136	0.449
Mof_H 	H 	0.391	0.295	0.545	-0.041
Mof_P 	P 	0.2643	0.97957	0.68033	0.431
Mof_H 	H 	0.2344	0.895	0.651	-0.023
Mof_P 	P 	0.47238	0.9727	0.9354	0.433
Mof_O 	O 	0.4249	0.0334	0.8734	-0.245
Mof_O 	O 	0.4134	0.972	0.8442	-0.285
Mof_O 	O 	0.46576	0.0148	0.5843	-0.534
Mof_O 	O 	0.32841	0.9649	0.6347	-0.45
Mof_O 	O 	0.37616	0.1768	0.6902	-0.43
Mof_O 	O 	0.23099	0.059	0.6088	-0.435
Mof_O 	O 	0.33529	0.1756	0.4641	-0.461
Mof_O 	O 	0.2969	0.295	0.6288	-0.456
Mof_O 	O 	0.26017	0.9946	0.8238	-0.431
Mof_Zn	Zn	0.89842	0.54063	0.68857	1.246
Mof_Zn	Zn	0.75709	0.61128	0.44731	1.232
Mof_P 	P 	0.85017	0.73624	0.58136	0.448
Mof_H 	H 	0.891	0.795	0.545	-0.042
Mof_P 	P 	0.7643	0.47957	0.68033	0.431
Mof_H 	H 	0.7344	0.395	0.651	-0.023
Mof_P 	P 	0.97238	0.4727	0.9354	0.435
Mof_O 	O 	0.9249	0.5334	0.8734	-0.247
Mof_O 	O 	0.9134	0.472	0.8442	-0.284
Mof_O 	O 	0.96576	0.5148	0.5843	-0.535
Mof_O 	O 	0.82841	0.4649	0.6347	-0.45
Mof_O 	O 	0.87616	0.6768	0.6902	-0.43
Mof_O 	O 	0.73099	0.559	0.6088	-0.436
Mof_O 	O 	0.83529	0.6756	0.4641	-0.461
Mof_O 	O 	0.7969	0.795	0.6288	-0.456
Mof_O 	O 	0.76017	0.4946	0.8238	-0.43
Mof_Zn	Zn	0.60158	0.04063	0.81143	1.246
Mof_Zn	Zn	0.74291	0.11128	0.05269	1.232
Mof_P 	P 	0.64983	0.23624	0.91864	0.448
Mof_H 	H 	0.609	0.295	0.955	-0.042
Mof_P 	P 	0.7357	0.97957	0.81967	0.43
Mof_H 	H 	0.7656	0.895	0.849	-0.023
Mof_P 	P 	0.52762	0.9727	0.5646	0.435
Mof_O 	O 	0.5751	0.0334	0.6266	-0.246
Mof_O 	O 	0.5866	0.972	0.6558	-0.284
Mof_O 	O 	0.53424	0.0148	0.9157	-0.533
Mof_O 	O 	0.67159	0.9649	0.8653	-0.45
Mof_O 	O 	0.62384	0.1768	0.8098	-0.43
Mof_O 	O 	0.76901	0.059	0.8912	-0.435
Mof_O 	O 	0.66471	0.1756	0.0359	-0.461
Mof_O 	O 	0.7031	0.295	0.8712	-0.456
Mof_O 	O 	0.73983	0.9946	0.6762	-0.43
Mof_Zn	Zn	0.10158	0.54063	0.81143	1.246
Mof_Zn	Zn	0.24291	0.61128	0.05269	1.232
Mof_P 	P 	0.14983	0.73624	0.91864	0.448
Mof_H 	H 	0.109	0.795	0.955	-0.042
Mof_P 	P 	0.2357	0.47957	0.81967	0.431
Mof_H 	H 	0.2656	0.395	0.849	-0.022
Mof_P 	P 	0.02762	0.4727	0.5646	0.435
Mof_O 	O 	0.0751	0.5334	0.6266	-0.247
Mof_O 	O 	0.0866	0.472	0.6558	-0.284
Mof_O 	O 	0.03424	0.5148	0.9157	-0.534
Mof_O 	O 	0.17159	0.4649	0.8653	-0.449
Mof_O 	O 	0.12384	0.6768	0.8098	-0.43
Mof_O 	O 	0.26901	0.559	0.8912	-0.436
Mof_O 	O 	0.16471	0.6756	0.0359	-0.461
Mof_O 	O 	0.2031	0.795	0.8712	-0.456
Mof_O 	O 	0.23983	0.4946	0.6762	-0.43
Mof_Zn	Zn	0.60158	0.95937	0.31143	1.246
Mof_Zn	Zn	0.74291	0.88872	0.55269	1.232
Mof_P 	P 	0.64983	0.76376	0.41864	0.448
Mof_H 	H 	0.609	0.705	0.455	-0.042
Mof_P 	P 	0.7357	0.02043	0.31967	0.431
Mof_H 	H 	0.7656	0.105	0.349	-0.023
Mof_P 	P 	0.52762	0.0273	0.0646	0.433
Mof_O 	O 	0.5751	0.9666	0.1266	-0.245
Mof_O 	O 	0.5866	0.028	0.1558	-0.285
Mof_O 	O 	0.53424	0.9852	0.4157	-0.534
Mof_O 	O 	0.67159	0.0351	0.3653	-0.45
Mof_O 	O 	0.62384	0.8232	0.3098	-0.43
Mof_O 	O 	0.76901	0.941	0.3912	-0.435
Mof_O 	O 	0.66471	0.8244	0.5359	-0.461
Mof_O 	O 	0.7031	0.705	0.3712	-0.456
Mof_O 	O 	0.73983	0.0054	0.1762	-0.431
Mof_Zn	Zn	0.10158	0.45937	0.31143	1.246
Mof_Zn	Zn	0.24291	0.38872	0.55269	1.232
Mof_P 	P 	0.14983	0.26376	0.41864	0.448
Mof_H 	H 	0.109	0.205	0.455	-0.042
Mof_P 	P 	0.2357	0.52043	0.31967	0.431
Mof_H 	H 	0.2656	0.605	0.349	-0.023
Mof_P 	P 	0.02762	0.5273	0.0646	0.435
Mof_O 	O 	0.0751	0.4666	0.1266	-0.247
Mof_O 	O 	0.0866	0.528	0.1558	-0.284
Mof_O 	O 	0.03424	0.4852	0.4157	-0.535
Mof_O 	O 	0.17159	0.5351	0.3653	-0.45
Mof_O 	O 	0.12384	0.3232	0.3098	-0.43
Mof_O 	O 	0.26901	0.441	0.3912	-0.436
Mof_O 	O 	0.16471	0.3244	0.5359	-0.461
Mof_O 	O 	0.2031	0.205	0.3712	-0.456
Mof_O 	O 	0.23983	0.5054	0.1762	-0.43
Mof_Zn	Zn	0.39842	0.95937	0.18857	1.246
Mof_Zn	Zn	0.25709	0.88872	0.94731	1.232
Mof_P 	P 	0.35017	0.76376	0.08136	0.448
Mof_H 	H 	0.391	0.705	0.045	-0.042
Mof_P 	P 	0.2643	0.02043	0.18033	0.43
Mof_H 	H 	0.2344	0.105	0.151	-0.023
Mof_P 	P 	0.47238	0.0273	0.4354	0.435
Mof_O 	O 	0.4249	0.9666	0.3734	-0.246
Mof_O 	O 	0.4134	0.028	0.3442	-0.284
Mof_O 	O 	0.46576	0.9852	0.0843	-0.533
Mof_O 	O 	0.32841	0.0351	0.1347	-0.45
Mof_O 	O 	0.37616	0.8232	0.1902	-0.43
Mof_O 	O 	0.23099	0.941	0.1088	-0.435
Mof_O 	O 	0.33529	0.8244	0.9641	-0.461
Mof_O 	O 	0.2969	0.705	0.1288	-0.456
Mof_O 	O 	0.26017	0.0054	0.3238	-0.43
Mof_Zn	Zn	0.89842	0.45937	0.18857	1.246
Mof_Zn	Zn	0.75709	0.38872	0.94731	1.232
Mof_P 	P 	0.85017	0.26376	0.08136	0.448
Mof_H 	H 	0.891	0.205	0.045	-0.042
Mof_P 	P 	0.7643	0.52043	0.18033	0.431
Mof_H 	H 	0.7344	0.605	0.151	-0.022
Mof_P 	P 	0.97238	0.5273	0.4354	0.435
Mof_O 	O 	0.9249	0.4666	0.3734	-0.247
Mof_O 	O 	0.9134	0.528	0.3442	-0.284
Mof_O 	O 	0.96576	0.4852	0.0843	-0.534
Mof_O 	O 	0.82841	0.5351	0.1347	-0.449
Mof_O 	O 	0.87616	0.3232	0.1902	-0.43
Mof_O 	O 	0.73099	0.441	0.1088	-0.436
Mof_O 	O 	0.83529	0.3244	0.9641	-0.461
Mof_O 	O 	0.7969	0.205	0.1288	-0.456
Mof_O 	O 	0.76017	0.5054	0.3238	-0.43
_end
