data_functionalizedCrystal
_audit_creation_method	'EQeq! by Chris Wilmer'
_symmetry_space_group_name_H-M	'P1'
_symmetry_Int_Tables_number	1
_symmetry_cell_setting	triclinic
loop_
_symmetry_equiv_pos_as_xyz
  x,y,z
_cell_length_a	5.2038
_cell_length_b	14.516
_cell_length_c	10.295
_cell_angle_alpha	90
_cell_angle_beta	96.14
_cell_angle_gamma	90
loop_
_atom_site_label
_atom_site_type_symbol
_atom_site_fract_x
_atom_site_fract_y
_atom_site_fract_z
_atom_site_charge
Mof_O 	O 	0.387	0.0463	0.5941	-2.047
Mof_O 	O 	0.004	0.1153	0.5839	-1.484
Mof_N 	N 	0.564	0.328	0.8709	-0.61
Mof_C 	C 	0.679	0.2476	0.8695	-0.056
Mof_H 	H 	0.8337	0.2377	0.9257	-0.072
Mof_C 	C 	0.341	0.188	0.7086	-0.549
Mof_C 	C 	0.225	0.1113	0.6244	1.135
Mof_C 	C 	0.231	0.2701	0.7101	0.233
Mof_H 	H 	0.0799	0.2814	0.6518	-0.127
Mof_C 	C 	0.579	0.1756	0.7868	0.15
Mof_H 	H 	0.6712	0.1193	0.7836	-0.151
Mof_C 	C 	0.327	0.3415	0.7944	-0.116
Mof_H 	H 	0.2342	0.3975	0.7994	-0.189
Mof_Li	Li	0.685	0.4343	0.998	3.916
Mof_O 	O 	0.613	0.5463	0.9059	-2.068
Mof_O 	O 	0.996	0.6153	0.9161	-1.501
Mof_N 	N 	0.436	0.828	0.6291	-0.604
Mof_C 	C 	0.321	0.7476	0.6305	-0.059
Mof_H 	H 	0.1663	0.7377	0.5743	-0.071
Mof_C 	C 	0.659	0.688	0.7914	-0.555
Mof_C 	C 	0.775	0.6113	0.8756	1.145
Mof_C 	C 	0.769	0.7701	0.7899	0.238
Mof_H 	H 	0.9201	0.7814	0.8482	-0.127
Mof_C 	C 	0.421	0.6756	0.7132	0.153
Mof_H 	H 	0.3288	0.6193	0.7164	-0.152
Mof_C 	C 	0.673	0.8415	0.7056	-0.119
Mof_H 	H 	0.7658	0.8975	0.7006	-0.184
Mof_Li	Li	0.315	0.9343	0.502	3.872
Mof_O 	O 	0.613	0.9537	0.4059	-2.048
Mof_O 	O 	0.996	0.8847	0.4161	-1.485
Mof_N 	N 	0.436	0.672	0.1291	-0.61
Mof_C 	C 	0.321	0.7524	0.1305	-0.056
Mof_H 	H 	0.1663	0.7623	0.0743	-0.072
Mof_C 	C 	0.659	0.812	0.2914	-0.549
Mof_C 	C 	0.775	0.8887	0.3756	1.135
Mof_C 	C 	0.769	0.7299	0.2899	0.233
Mof_H 	H 	0.9201	0.7186	0.3482	-0.127
Mof_C 	C 	0.421	0.8244	0.2132	0.15
Mof_H 	H 	0.3288	0.8807	0.2164	-0.151
Mof_C 	C 	0.673	0.6585	0.2056	-0.116
Mof_H 	H 	0.7658	0.6025	0.2006	-0.189
Mof_Li	Li	0.315	0.5657	0.002	3.916
Mof_O 	O 	0.387	0.4537	0.0941	-2.068
Mof_O 	O 	0.004	0.3847	0.0839	-1.501
Mof_N 	N 	0.564	0.172	0.3709	-0.604
Mof_C 	C 	0.679	0.2524	0.3695	-0.059
Mof_H 	H 	0.8337	0.2623	0.4257	-0.071
Mof_C 	C 	0.341	0.312	0.2086	-0.555
Mof_C 	C 	0.225	0.3887	0.1244	1.145
Mof_C 	C 	0.231	0.2299	0.2101	0.238
Mof_H 	H 	0.0799	0.2186	0.1518	-0.127
Mof_C 	C 	0.579	0.3244	0.2868	0.153
Mof_H 	H 	0.6712	0.3807	0.2836	-0.152
Mof_C 	C 	0.327	0.1585	0.2944	-0.119
Mof_H 	H 	0.2342	0.1025	0.2994	-0.184
Mof_Li	Li	0.685	0.0657	0.498	3.872
_end
