data_functionalizedCrystal
_audit_creation_method	'EQeq! by Chris Wilmer'
_symmetry_space_group_name_H-M	'P1'
_symmetry_Int_Tables_number	1
_symmetry_cell_setting	triclinic
loop_
_symmetry_equiv_pos_as_xyz
  x,y,z
_cell_length_a	6.805
_cell_length_b	13.9793
_cell_length_c	15.9447
_cell_angle_alpha	90
_cell_angle_beta	90
_cell_angle_gamma	90
loop_
_atom_site_label
_atom_site_type_symbol
_atom_site_fract_x
_atom_site_fract_y
_atom_site_fract_z
_atom_site_charge
Mof_V 	V 	0.93497	0.23611	0.4988	1.833
Mof_V 	V 	0.56503	0.76389	0.9988	1.835
Mof_V 	V 	0.06503	0.73611	0.0012	1.834
Mof_V 	V 	0.43497	0.26389	0.5012	1.835
Mof_H 	H 	0.9678	0.9532	0.1794	0.068
Mof_H 	H 	0.5513	0.9835	0.1767	0.057
Mof_H 	H 	0.9469	0.0615	0.2884	0.046
Mof_H 	H 	0.5308	0.0924	0.2853	0.056
Mof_H 	H 	0.5322	0.0468	0.6794	0.056
Mof_H 	H 	0.9487	0.0165	0.6767	0.045
Mof_H 	H 	0.5531	0.9385	0.7884	0.056
Mof_H 	H 	0.9692	0.9076	0.7853	0.064
Mof_H 	H 	0.0322	0.4532	0.3206	0.06
Mof_H 	H 	0.4487	0.4835	0.3233	0.055
Mof_H 	H 	0.0531	0.5615	0.2116	0.051
Mof_H 	H 	0.4692	0.5924	0.2147	0.057
Mof_H 	H 	0.4678	0.5468	0.8206	0.058
Mof_H 	H 	0.0513	0.5165	0.8233	0.054
Mof_H 	H 	0.4469	0.4385	0.7116	0.055
Mof_H 	H 	0.0308	0.4076	0.7147	0.061
Mof_C 	C 	0.2757	0.88095	0.10191	0.426
Mof_C 	C 	0.2619	0.95574	0.16867	-0.078
Mof_C 	C 	0.0816	0.9803	0.20131	-0.028
Mof_C 	C 	0.4296	0.99851	0.19966	-0.013
Mof_C 	C 	0.2245	0.15096	0.37326	0.432
Mof_C 	C 	0.2369	0.08589	0.29911	-0.095
Mof_C 	C 	0.0691	0.0452	0.26647	0.009
Mof_C 	C 	0.4174	0.06363	0.26473	-0.004
Mof_C 	C 	0.2243	0.11905	0.60191	0.432
Mof_C 	C 	0.2381	0.04426	0.66867	-0.094
Mof_C 	C 	0.4184	0.0197	0.70131	-0.006
Mof_C 	C 	0.0704	0.00149	0.69966	0.009
Mof_C 	C 	0.2755	0.84904	0.87326	0.427
Mof_C 	C 	0.2631	0.91411	0.79911	-0.082
Mof_C 	C 	0.4309	0.9548	0.76647	-0.011
Mof_C 	C 	0.0826	0.93637	0.76473	-0.022
Mof_C 	C 	0.7243	0.38095	0.39809	0.428
Mof_C 	C 	0.7381	0.45574	0.33133	-0.085
Mof_C 	C 	0.9184	0.4803	0.29869	-0.014
Mof_C 	C 	0.5704	0.49851	0.30034	-0.011
Mof_C 	C 	0.7755	0.65096	0.12674	0.43
Mof_C 	C 	0.7631	0.58589	0.20089	-0.09
Mof_C 	C 	0.9309	0.5452	0.23353	-0.001
Mof_C 	C 	0.5826	0.56363	0.23527	-0.006
Mof_C 	C 	0.7757	0.61905	0.89809	0.429
Mof_C 	C 	0.7619	0.54426	0.83133	-0.088
Mof_C 	C 	0.5816	0.5197	0.79869	-0.008
Mof_C 	C 	0.9296	0.50149	0.80034	-0.006
Mof_C 	C 	0.7245	0.34904	0.62674	0.429
Mof_C 	C 	0.7369	0.41411	0.70089	-0.086
Mof_C 	C 	0.5691	0.4548	0.73353	-0.009
Mof_C 	C 	0.9174	0.43637	0.73527	-0.014
Mof_O 	O 	0.71694	0.1913	0.49278	-0.677
Mof_O 	O 	0.4442	0.85886	0.07608	-0.511
Mof_O 	O 	0.0563	0.16834	0.40196	-0.512
Mof_O 	O 	0.1163	0.84507	0.07724	-0.505
Mof_O 	O 	0.3839	0.18297	0.40193	-0.505
Mof_O 	O 	0.78306	0.8087	0.99278	-0.676
Mof_O 	O 	0.0558	0.14114	0.57608	-0.511
Mof_O 	O 	0.4437	0.83166	0.90196	-0.513
Mof_O 	O 	0.3837	0.15493	0.57724	-0.505
Mof_O 	O 	0.1161	0.81703	0.90193	-0.504
Mof_O 	O 	0.28306	0.6913	0.00722	-0.675
Mof_O 	O 	0.5558	0.35886	0.42392	-0.513
Mof_O 	O 	0.9437	0.66834	0.09804	-0.511
Mof_O 	O 	0.8837	0.34507	0.42276	-0.505
Mof_O 	O 	0.6161	0.68297	0.09807	-0.503
Mof_O 	O 	0.21694	0.3087	0.50722	-0.675
Mof_O 	O 	0.9442	0.64114	0.92392	-0.513
Mof_O 	O 	0.5563	0.33166	0.59804	-0.513
Mof_O 	O 	0.6163	0.65493	0.92276	-0.504
Mof_O 	O 	0.8839	0.31703	0.59807	-0.505
_end
