data_functionalizedCrystal
_audit_creation_method	'EQeq! by Chris Wilmer'
_symmetry_space_group_name_H-M	'P1'
_symmetry_Int_Tables_number	1
_symmetry_cell_setting	triclinic
loop_
_symmetry_equiv_pos_as_xyz
  x,y,z
_cell_length_a	13.24
_cell_length_b	13.24
_cell_length_c	13.24
_cell_angle_alpha	90
_cell_angle_beta	90
_cell_angle_gamma	90
loop_
_atom_site_label
_atom_site_type_symbol
_atom_site_fract_x
_atom_site_fract_y
_atom_site_fract_z
_atom_site_charge
Mof_N 	N 	0.63699	0.93696	0.95581	-0.008
Mof_N 	N 	0.71569	0.98082	0.96236	0.104
Mof_N 	N 	0.7924	0.0204	0.9663	-0.197
Mof_N 	N 	0.86301	0.06304	0.45581	-0.084
Mof_N 	N 	0.78431	0.01918	0.46236	-0.148
Mof_N 	N 	0.7076	0.9796	0.4663	-0.137
Mof_N 	N 	0.36301	0.43696	0.54419	-0.169
Mof_N 	N 	0.28431	0.48082	0.53764	-0.05
Mof_N 	N 	0.2076	0.5204	0.5337	-0.302
Mof_N 	N 	0.13699	0.56304	0.04419	-0.193
Mof_N 	N 	0.21569	0.51918	0.03764	-0.07
Mof_N 	N 	0.2924	0.4796	0.0337	-0.329
Mof_N 	N 	0.95581	0.63699	0.93696	-0.009
Mof_N 	N 	0.96236	0.71569	0.98082	0.104
Mof_N 	N 	0.9663	0.7924	0.0204	-0.197
Mof_N 	N 	0.45581	0.86301	0.06304	-0.084
Mof_N 	N 	0.46236	0.78431	0.01918	-0.148
Mof_N 	N 	0.4663	0.7076	0.9796	-0.137
Mof_N 	N 	0.54419	0.36301	0.43696	-0.169
Mof_N 	N 	0.53764	0.28431	0.48082	-0.05
Mof_N 	N 	0.5337	0.2076	0.5204	-0.302
Mof_N 	N 	0.04419	0.13699	0.56304	-0.193
Mof_N 	N 	0.03764	0.21569	0.51918	-0.07
Mof_N 	N 	0.0337	0.2924	0.4796	-0.329
Mof_N 	N 	0.93696	0.95581	0.63699	-0.009
Mof_N 	N 	0.98082	0.96236	0.71569	0.104
Mof_N 	N 	0.0204	0.9663	0.7924	-0.197
Mof_N 	N 	0.06304	0.45581	0.86301	-0.084
Mof_N 	N 	0.01918	0.46236	0.78431	-0.148
Mof_N 	N 	0.9796	0.4663	0.7076	-0.137
Mof_N 	N 	0.43696	0.54419	0.36301	-0.169
Mof_N 	N 	0.48082	0.53764	0.28431	-0.05
Mof_N 	N 	0.5204	0.5337	0.2076	-0.302
Mof_N 	N 	0.56304	0.04419	0.13699	-0.193
Mof_N 	N 	0.51918	0.03764	0.21569	-0.07
Mof_N 	N 	0.4796	0.0337	0.2924	-0.329
Mof_N 	N 	0.36301	0.06304	0.04419	-0.179
Mof_N 	N 	0.28431	0.01918	0.03764	-0.183
Mof_N 	N 	0.2076	0.9796	0.0337	-0.103
Mof_N 	N 	0.13699	0.93696	0.54419	-0.116
Mof_N 	N 	0.21569	0.98082	0.53764	0.074
Mof_N 	N 	0.2924	0.0204	0.5337	-0.403
Mof_N 	N 	0.63699	0.56304	0.45581	-0.155
Mof_N 	N 	0.71569	0.51918	0.46236	-0.042
Mof_N 	N 	0.7924	0.4796	0.4663	-0.249
Mof_N 	N 	0.86301	0.43696	0.95581	-0.004
Mof_N 	N 	0.78431	0.48082	0.96236	-0.009
Mof_N 	N 	0.7076	0.5204	0.9663	-0.211
Mof_N 	N 	0.04419	0.36301	0.06304	-0.179
Mof_N 	N 	0.03764	0.28431	0.01918	-0.183
Mof_N 	N 	0.0337	0.2076	0.9796	-0.103
Mof_N 	N 	0.54419	0.13699	0.93696	-0.116
Mof_N 	N 	0.53764	0.21569	0.98082	0.074
Mof_N 	N 	0.5337	0.2924	0.0204	-0.403
Mof_N 	N 	0.45581	0.63699	0.56304	-0.155
Mof_N 	N 	0.46236	0.71569	0.51918	-0.042
Mof_N 	N 	0.4663	0.7924	0.4796	-0.249
Mof_N 	N 	0.95581	0.86301	0.43696	-0.004
Mof_N 	N 	0.96236	0.78431	0.48082	-0.009
Mof_N 	N 	0.9663	0.7076	0.5204	-0.211
Mof_N 	N 	0.06304	0.04419	0.36301	-0.179
Mof_N 	N 	0.01918	0.03764	0.28431	-0.183
Mof_N 	N 	0.9796	0.0337	0.2076	-0.103
Mof_N 	N 	0.93696	0.54419	0.13699	-0.116
Mof_N 	N 	0.98082	0.53764	0.21569	0.074
Mof_N 	N 	0.0204	0.5337	0.2924	-0.403
Mof_N 	N 	0.56304	0.45581	0.63699	-0.155
Mof_N 	N 	0.51918	0.46236	0.71569	-0.042
Mof_N 	N 	0.4796	0.4663	0.7924	-0.249
Mof_N 	N 	0.43696	0.95581	0.86301	-0.004
Mof_N 	N 	0.48082	0.96236	0.78431	-0.009
Mof_N 	N 	0.5204	0.9663	0.7076	-0.211
Mof_Fe	Fe	0.5	0	-0	0.25
Mof_Fe	Fe	7.31292e-33	5.43822e-33	0.5	0.25
Mof_Fe	Fe	0.5	0.5	0.5	0.696
Mof_Fe	Fe	5.43822e-33	0.5	-0	0.25
Mof_K 	K 	-0	0	-0	1.064
Mof_K 	K 	0.5	5.43822e-33	0.5	2.327
Mof_K 	K 	1.27511e-32	0.5	0.5	2.327
Mof_K 	K 	0.5	0.5	-0	2.327
_end
