data_functionalizedCrystal
_audit_creation_method	'EQeq! by Chris Wilmer'
_symmetry_space_group_name_H-M	'P1'
_symmetry_Int_Tables_number	1
_symmetry_cell_setting	triclinic
loop_
_symmetry_equiv_pos_as_xyz
  x,y,z
_cell_length_a	33.182
_cell_length_b	10.296
_cell_length_c	27.814
_cell_angle_alpha	90
_cell_angle_beta	107.238
_cell_angle_gamma	90
loop_
_atom_site_label
_atom_site_type_symbol
_atom_site_fract_x
_atom_site_fract_y
_atom_site_fract_z
_atom_site_charge
Mof_Tb	Tb	0.55538	0.10622	0.00947	2.15
Mof_O 	O 	0.12006	0.6493	0.07696	-0.457
Mof_O 	O 	0.12437	0.4915	0.02684	-0.455
Mof_O 	O 	0.44338	0.9509	0.42876	-0.536
Mof_O 	O 	0.49648	0.8075	0.44841	-0.551
Mof_O 	O 	0.47439	0.0756	0.03539	-0.618
Mof_O 	O 	0.52464	0.2203	0.06367	-0.518
Mof_C 	C 	0.14046	0.5617	0.0643	0.353
Mof_C 	C 	0.18552	0.542	0.09373	-0.127
Mof_C 	C 	0.20706	0.6441	0.12294	0.044
Mof_H 	H 	0.1929	0.7205	0.1254	0.012
Mof_C 	C 	0.24977	0.6319	0.14844	-0.126
Mof_H 	H 	0.2642	0.7003	0.168	0.066
Mof_C 	C 	0.27096	0.5177	0.14472	0.052
Mof_C 	C 	0.24943	0.4156	0.11551	-0.127
Mof_H 	H 	0.2636	0.3391	0.113	0.064
Mof_C 	C 	0.20671	0.4277	0.09001	0.046
Mof_H 	H 	0.1923	0.3594	0.0705	0.009
Mof_C 	C 	0.31884	0.5115	0.16921	0.018
Mof_C 	C 	0.33748	0.5755	0.21432	-0.086
Mof_H 	H 	0.3206	0.6221	0.2296	0.053
Mof_C 	C 	0.38087	0.571	0.237	0.003
Mof_C 	C 	0.40547	0.5019	0.21288	-0.077
Mof_H 	H 	0.4346	0.4989	0.2274	0.051
Mof_C 	C 	0.38753	0.4372	0.16743	0
Mof_C 	C 	0.34408	0.4427	0.14625	-0.085
Mof_H 	H 	0.3316	0.3995	0.1161	0.051
Mof_C 	C 	0.40082	0.639	0.28543	0.089
Mof_C 	C 	0.38274	0.749	0.2988	-0.178
Mof_H 	H 	0.3571	0.7784	0.2777	0.086
Mof_C 	C 	0.40185	0.8161	0.3425	0.109
Mof_H 	H 	0.389	0.8898	0.3506	0
Mof_C 	C 	0.44003	0.7743	0.37443	-0.225
Mof_C 	C 	0.45839	0.6658	0.36154	0.107
Mof_H 	H 	0.4842	0.6372	0.3824	-0.011
Mof_C 	C 	0.43895	0.5984	0.31789	-0.183
Mof_H 	H 	0.4518	0.5242	0.3102	0.086
Mof_C 	C 	0.46159	0.8504	0.42111	0.505
Mof_C 	C 	0.41435	0.3674	0.14175	0.099
Mof_C 	C 	0.45439	0.4123	0.1438	-0.186
Mof_H 	H 	0.4651	0.486	0.1626	0.088
Mof_C 	C 	0.4784	0.3488	0.11831	0.125
Mof_H 	H 	0.5051	0.3802	0.1201	-0.013
Mof_C 	C 	0.46332	0.2389	0.09018	-0.243
Mof_C 	C 	0.42385	0.1933	0.0881	0.134
Mof_H 	H 	0.4133	0.1196	0.0692	-0.042
Mof_C 	C 	0.39964	0.256	0.1139	-0.195
Mof_H 	H 	0.3732	0.2231	0.1126	0.089
Mof_C 	C 	0.48928	0.1742	0.06131	0.504
Mof_O 	O 	0.57482	0.3295	0.00366	-0.519
Mof_S 	S 	0.57011	0.4458	0.0353	0.216
Mof_C 	C 	0.6044	0.5735	0.0328	-1.113
Mof_H 	H 	0.6331	0.5452	0.0467	0.289
Mof_H 	H 	0.5991	0.6458	0.0519	0.336
Mof_H 	H 	0.5997	0.5994	0.9984	0.256
Mof_S 	S 	0.6084	0.4187	0.0329	0.407
Mof_C 	C 	0.6134	0.451	0.0965	-0.746
Mof_H 	H 	0.6174	0.3709	0.115	0.255
Mof_H 	H 	0.5882	0.493	0.099	0.242
Mof_H 	H 	0.6372	0.5067	0.1102	0.231
Mof_C 	C 	0.6009	0.5691	0.0022	0.029
Mof_H 	H 	0.5985	0.5568	0.9673	-0.078
Mof_H 	H 	0.6245	0.6246	0.0174	0.106
Mof_H 	H 	0.5755	0.6085	0.0052	0.127
Mof_H 	H 	0.5318	0.4267	0.0207	0.05
Mof_H 	H 	0.5271	0.5755	0.0297	0.068
Mof_H 	H 	0.5271	0.5256	0.9764	0.075
Mof_C 	C 	0.5187	0.506	0.0058	-0.178
Mof_Tb	Tb	0.05538	0.60622	0.00947	2.151
Mof_O 	O 	0.62006	0.1493	0.07696	-0.457
Mof_O 	O 	0.62437	0.9915	0.02684	-0.454
Mof_O 	O 	0.94338	0.4509	0.42876	-0.537
Mof_O 	O 	0.99648	0.3075	0.44841	-0.552
Mof_O 	O 	0.97439	0.5756	0.03539	-0.619
Mof_O 	O 	0.02464	0.7203	0.06367	-0.519
Mof_C 	C 	0.64046	0.0617	0.0643	0.352
Mof_C 	C 	0.68552	0.042	0.09373	-0.128
Mof_C 	C 	0.70706	0.1441	0.12294	0.044
Mof_H 	H 	0.6929	0.2205	0.1254	0.012
Mof_C 	C 	0.74977	0.1319	0.14844	-0.125
Mof_H 	H 	0.7642	0.2003	0.168	0.066
Mof_C 	C 	0.77096	0.0177	0.14472	0.051
Mof_C 	C 	0.74943	0.9156	0.11551	-0.126
Mof_H 	H 	0.7636	0.8391	0.113	0.064
Mof_C 	C 	0.70671	0.9277	0.09001	0.046
Mof_H 	H 	0.6923	0.8594	0.0705	0.009
Mof_C 	C 	0.81884	0.0115	0.16921	0.017
Mof_C 	C 	0.83748	0.0755	0.21432	-0.087
Mof_H 	H 	0.8206	0.1221	0.2296	0.053
Mof_C 	C 	0.88087	0.071	0.237	0.005
Mof_C 	C 	0.90547	0.0019	0.21288	-0.082
Mof_H 	H 	0.9346	0.9989	0.2274	0.054
Mof_C 	C 	0.88753	0.9372	0.16743	0.003
Mof_C 	C 	0.84408	0.9427	0.14625	-0.085
Mof_H 	H 	0.8316	0.8995	0.1161	0.051
Mof_C 	C 	0.90082	0.139	0.28543	0.088
Mof_C 	C 	0.88274	0.249	0.2988	-0.177
Mof_H 	H 	0.8571	0.2784	0.2777	0.085
Mof_C 	C 	0.90185	0.3161	0.3425	0.108
Mof_H 	H 	0.889	0.3898	0.3506	0
Mof_C 	C 	0.94003	0.2743	0.37443	-0.225
Mof_C 	C 	0.95839	0.1658	0.36154	0.106
Mof_H 	H 	0.9842	0.1372	0.3824	-0.011
Mof_C 	C 	0.93895	0.0984	0.31789	-0.182
Mof_H 	H 	0.9518	0.0242	0.3102	0.086
Mof_C 	C 	0.96159	0.3504	0.42111	0.505
Mof_C 	C 	0.91435	0.8674	0.14175	0.098
Mof_C 	C 	0.95439	0.9123	0.1438	-0.186
Mof_H 	H 	0.9651	0.986	0.1626	0.088
Mof_C 	C 	0.9784	0.8488	0.11831	0.125
Mof_H 	H 	0.0051	0.8802	0.1201	-0.013
Mof_C 	C 	0.96332	0.7389	0.09018	-0.242
Mof_C 	C 	0.92385	0.6933	0.0881	0.134
Mof_H 	H 	0.9133	0.6196	0.0692	-0.042
Mof_C 	C 	0.89964	0.756	0.1139	-0.195
Mof_H 	H 	0.8732	0.7231	0.1126	0.088
Mof_C 	C 	0.98928	0.6742	0.06131	0.504
Mof_O 	O 	0.07482	0.8295	0.00366	-0.519
Mof_S 	S 	0.07011	0.9458	0.0353	0.217
Mof_C 	C 	0.1044	0.0735	0.0328	-1.121
Mof_H 	H 	0.1331	0.0452	0.0467	0.29
Mof_H 	H 	0.0991	0.1458	0.0519	0.338
Mof_H 	H 	0.0997	0.0994	0.9984	0.257
Mof_S 	S 	0.1084	0.9187	0.0329	0.408
Mof_C 	C 	0.1134	0.951	0.0965	-0.743
Mof_H 	H 	0.1174	0.8709	0.115	0.255
Mof_H 	H 	0.0882	0.993	0.099	0.241
Mof_H 	H 	0.1372	0.0067	0.1102	0.23
Mof_C 	C 	0.1009	0.0691	0.0022	0.031
Mof_H 	H 	0.0985	0.0568	0.9673	-0.078
Mof_H 	H 	0.1245	0.1246	0.0174	0.106
Mof_H 	H 	0.0755	0.1085	0.0052	0.126
Mof_H 	H 	0.0318	0.9267	0.0207	0.051
Mof_H 	H 	0.0271	0.0755	0.0297	0.068
Mof_H 	H 	0.0271	0.0256	0.9764	0.077
Mof_C 	C 	0.0187	0.006	0.0058	-0.181
Mof_Tb	Tb	0.44462	0.10622	0.49053	2.15
Mof_O 	O 	0.87994	0.6493	0.42304	-0.458
Mof_O 	O 	0.87563	0.4915	0.47316	-0.456
Mof_O 	O 	0.55662	0.9509	0.07124	-0.537
Mof_O 	O 	0.50352	0.8075	0.05159	-0.551
Mof_O 	O 	0.52561	0.0756	0.46461	-0.619
Mof_O 	O 	0.47536	0.2203	0.43633	-0.518
Mof_C 	C 	0.85954	0.5617	0.4357	0.353
Mof_C 	C 	0.81448	0.542	0.40627	-0.127
Mof_C 	C 	0.79294	0.6441	0.37706	0.044
Mof_H 	H 	0.8071	0.7205	0.3746	0.012
Mof_C 	C 	0.75023	0.6319	0.35156	-0.126
Mof_H 	H 	0.7358	0.7003	0.332	0.066
Mof_C 	C 	0.72904	0.5177	0.35528	0.052
Mof_C 	C 	0.75057	0.4156	0.38449	-0.127
Mof_H 	H 	0.7364	0.3391	0.387	0.064
Mof_C 	C 	0.79329	0.4277	0.40999	0.046
Mof_H 	H 	0.8077	0.3594	0.4295	0.009
Mof_C 	C 	0.68116	0.5115	0.33079	0.018
Mof_C 	C 	0.66252	0.5755	0.28568	-0.086
Mof_H 	H 	0.6794	0.6221	0.2704	0.053
Mof_C 	C 	0.61913	0.571	0.263	0.003
Mof_C 	C 	0.59453	0.5019	0.28712	-0.077
Mof_H 	H 	0.5654	0.4989	0.2726	0.051
Mof_C 	C 	0.61247	0.4372	0.33257	0
Mof_C 	C 	0.65592	0.4427	0.35375	-0.085
Mof_H 	H 	0.6684	0.3995	0.3839	0.051
Mof_C 	C 	0.59918	0.639	0.21457	0.089
Mof_C 	C 	0.61726	0.749	0.2012	-0.177
Mof_H 	H 	0.6429	0.7784	0.2223	0.086
Mof_C 	C 	0.59815	0.8161	0.1575	0.108
Mof_H 	H 	0.611	0.8898	0.1494	0
Mof_C 	C 	0.55997	0.7743	0.12557	-0.225
Mof_C 	C 	0.54161	0.6658	0.13846	0.107
Mof_H 	H 	0.5158	0.6372	0.1176	-0.011
Mof_C 	C 	0.56105	0.5984	0.18211	-0.183
Mof_H 	H 	0.5482	0.5242	0.1898	0.086
Mof_C 	C 	0.53841	0.8504	0.07889	0.505
Mof_C 	C 	0.58565	0.3674	0.35825	0.099
Mof_C 	C 	0.54561	0.4123	0.3562	-0.186
Mof_H 	H 	0.5349	0.486	0.3374	0.088
Mof_C 	C 	0.5216	0.3488	0.38169	0.125
Mof_H 	H 	0.4949	0.3802	0.3799	-0.013
Mof_C 	C 	0.53668	0.2389	0.40982	-0.243
Mof_C 	C 	0.57615	0.1933	0.4119	0.134
Mof_H 	H 	0.5867	0.1196	0.4308	-0.042
Mof_C 	C 	0.60036	0.256	0.3861	-0.195
Mof_H 	H 	0.6268	0.2231	0.3874	0.089
Mof_C 	C 	0.51072	0.1742	0.43869	0.504
Mof_O 	O 	0.42518	0.3295	0.49634	-0.519
Mof_S 	S 	0.42989	0.4458	0.4647	0.216
Mof_C 	C 	0.3956	0.5735	0.4672	-1.113
Mof_H 	H 	0.3669	0.5452	0.4533	0.288
Mof_H 	H 	0.4009	0.6458	0.4481	0.336
Mof_H 	H 	0.4003	0.5994	0.5016	0.255
Mof_S 	S 	0.3916	0.4187	0.4671	0.407
Mof_C 	C 	0.3866	0.451	0.4035	-0.746
Mof_H 	H 	0.3826	0.3709	0.385	0.255
Mof_H 	H 	0.4118	0.493	0.401	0.241
Mof_H 	H 	0.3628	0.5067	0.3898	0.231
Mof_C 	C 	0.3991	0.5691	0.4978	0.029
Mof_H 	H 	0.4015	0.5568	0.5327	-0.078
Mof_H 	H 	0.3755	0.6246	0.4826	0.105
Mof_H 	H 	0.4245	0.6085	0.4948	0.126
Mof_H 	H 	0.4682	0.4267	0.4793	0.05
Mof_H 	H 	0.4729	0.5755	0.4703	0.068
Mof_H 	H 	0.4729	0.5256	0.5236	0.075
Mof_C 	C 	0.4813	0.506	0.4942	-0.178
Mof_Tb	Tb	0.94462	0.60622	0.49053	2.15
Mof_O 	O 	0.37994	0.1493	0.42304	-0.458
Mof_O 	O 	0.37563	0.9915	0.47316	-0.456
Mof_O 	O 	0.05662	0.4509	0.07124	-0.538
Mof_O 	O 	0.00352	0.3075	0.05159	-0.552
Mof_O 	O 	0.02561	0.5756	0.46461	-0.619
Mof_O 	O 	0.97536	0.7203	0.43633	-0.518
Mof_C 	C 	0.35954	0.0617	0.4357	0.353
Mof_C 	C 	0.31448	0.042	0.40627	-0.128
Mof_C 	C 	0.29294	0.1441	0.37706	0.044
Mof_H 	H 	0.3071	0.2205	0.3746	0.012
Mof_C 	C 	0.25023	0.1319	0.35156	-0.125
Mof_H 	H 	0.2358	0.2003	0.332	0.066
Mof_C 	C 	0.22904	0.0177	0.35528	0.051
Mof_C 	C 	0.25057	0.9156	0.38449	-0.126
Mof_H 	H 	0.2364	0.8391	0.387	0.064
Mof_C 	C 	0.29329	0.9277	0.40999	0.046
Mof_H 	H 	0.3077	0.8594	0.4295	0.009
Mof_C 	C 	0.18116	0.0115	0.33079	0.018
Mof_C 	C 	0.16252	0.0755	0.28568	-0.087
Mof_H 	H 	0.1794	0.1221	0.2704	0.053
Mof_C 	C 	0.11913	0.071	0.263	0.005
Mof_C 	C 	0.09453	0.0019	0.28712	-0.081
Mof_H 	H 	0.0654	0.9989	0.2726	0.054
Mof_C 	C 	0.11247	0.9372	0.33257	0.003
Mof_C 	C 	0.15592	0.9427	0.35375	-0.085
Mof_H 	H 	0.1684	0.8995	0.3839	0.051
Mof_C 	C 	0.09918	0.139	0.21457	0.088
Mof_C 	C 	0.11726	0.249	0.2012	-0.177
Mof_H 	H 	0.1429	0.2784	0.2223	0.085
Mof_C 	C 	0.09815	0.3161	0.1575	0.108
Mof_H 	H 	0.111	0.3898	0.1494	0
Mof_C 	C 	0.05997	0.2743	0.12557	-0.225
Mof_C 	C 	0.04161	0.1658	0.13846	0.106
Mof_H 	H 	0.0158	0.1372	0.1176	-0.011
Mof_C 	C 	0.06105	0.0984	0.18211	-0.182
Mof_H 	H 	0.0482	0.0242	0.1898	0.086
Mof_C 	C 	0.03841	0.3504	0.07889	0.505
Mof_C 	C 	0.08565	0.8674	0.35825	0.097
Mof_C 	C 	0.04561	0.9123	0.3562	-0.185
Mof_H 	H 	0.0349	0.986	0.3374	0.088
Mof_C 	C 	0.0216	0.8488	0.38169	0.124
Mof_H 	H 	0.9949	0.8802	0.3799	-0.012
Mof_C 	C 	0.03668	0.7389	0.40982	-0.242
Mof_C 	C 	0.07615	0.6933	0.4119	0.134
Mof_H 	H 	0.0867	0.6196	0.4308	-0.042
Mof_C 	C 	0.10036	0.756	0.3861	-0.194
Mof_H 	H 	0.1268	0.7231	0.3874	0.088
Mof_C 	C 	0.01072	0.6742	0.43869	0.504
Mof_O 	O 	0.92518	0.8295	0.49634	-0.519
Mof_S 	S 	0.92989	0.9458	0.4647	0.216
Mof_C 	C 	0.8956	0.0735	0.4672	-1.113
Mof_H 	H 	0.8669	0.0452	0.4533	0.288
Mof_H 	H 	0.9009	0.1458	0.4481	0.335
Mof_H 	H 	0.9003	0.0994	0.5016	0.255
Mof_S 	S 	0.8916	0.9187	0.4671	0.406
Mof_C 	C 	0.8866	0.951	0.4035	-0.745
Mof_H 	H 	0.8826	0.8709	0.385	0.255
Mof_H 	H 	0.9118	0.993	0.401	0.241
Mof_H 	H 	0.8628	0.0067	0.3898	0.231
Mof_C 	C 	0.8991	0.0691	0.4978	0.029
Mof_H 	H 	0.9015	0.0568	0.5327	-0.078
Mof_H 	H 	0.8755	0.1246	0.4826	0.105
Mof_H 	H 	0.9245	0.1085	0.4948	0.126
Mof_H 	H 	0.9682	0.9267	0.4793	0.05
Mof_H 	H 	0.9729	0.0755	0.4703	0.068
Mof_H 	H 	0.9729	0.0256	0.5236	0.075
Mof_C 	C 	0.9813	0.006	0.4942	-0.178
Mof_Tb	Tb	0.44462	0.89378	0.99053	2.149
Mof_O 	O 	0.87994	0.3507	0.92304	-0.458
Mof_O 	O 	0.87563	0.5085	0.97316	-0.456
Mof_O 	O 	0.55662	0.0491	0.57124	-0.537
Mof_O 	O 	0.50352	0.1925	0.55159	-0.552
Mof_O 	O 	0.52561	0.9244	0.96461	-0.619
Mof_O 	O 	0.47536	0.7797	0.93633	-0.518
Mof_C 	C 	0.85954	0.4383	0.9357	0.353
Mof_C 	C 	0.81448	0.458	0.90627	-0.127
Mof_C 	C 	0.79294	0.3559	0.87706	0.044
Mof_H 	H 	0.8071	0.2795	0.8746	0.012
Mof_C 	C 	0.75023	0.3681	0.85156	-0.126
Mof_H 	H 	0.7358	0.2997	0.832	0.066
Mof_C 	C 	0.72904	0.4823	0.85528	0.052
Mof_C 	C 	0.75057	0.5844	0.88449	-0.127
Mof_H 	H 	0.7364	0.6609	0.887	0.064
Mof_C 	C 	0.79329	0.5723	0.90999	0.046
Mof_H 	H 	0.8077	0.6406	0.9295	0.009
Mof_C 	C 	0.68116	0.4885	0.83079	0.018
Mof_C 	C 	0.66252	0.4245	0.78568	-0.086
Mof_H 	H 	0.6794	0.3779	0.7704	0.053
Mof_C 	C 	0.61913	0.429	0.763	0.003
Mof_C 	C 	0.59453	0.4981	0.78712	-0.077
Mof_H 	H 	0.5654	0.5011	0.7726	0.051
Mof_C 	C 	0.61247	0.5628	0.83257	0
Mof_C 	C 	0.65592	0.5573	0.85375	-0.085
Mof_H 	H 	0.6684	0.6005	0.8839	0.051
Mof_C 	C 	0.59918	0.361	0.71457	0.089
Mof_C 	C 	0.61726	0.251	0.7012	-0.178
Mof_H 	H 	0.6429	0.2216	0.7223	0.086
Mof_C 	C 	0.59815	0.1839	0.6575	0.109
Mof_H 	H 	0.611	0.1102	0.6494	0
Mof_C 	C 	0.55997	0.2257	0.62557	-0.225
Mof_C 	C 	0.54161	0.3342	0.63846	0.107
Mof_H 	H 	0.5158	0.3628	0.6176	-0.011
Mof_C 	C 	0.56105	0.4016	0.68211	-0.183
Mof_H 	H 	0.5482	0.4758	0.6898	0.086
Mof_C 	C 	0.53841	0.1496	0.57889	0.505
Mof_C 	C 	0.58565	0.6326	0.85825	0.099
Mof_C 	C 	0.54561	0.5877	0.8562	-0.186
Mof_H 	H 	0.5349	0.514	0.8374	0.088
Mof_C 	C 	0.5216	0.6512	0.88169	0.125
Mof_H 	H 	0.4949	0.6198	0.8799	-0.013
Mof_C 	C 	0.53668	0.7611	0.90982	-0.243
Mof_C 	C 	0.57615	0.8067	0.9119	0.134
Mof_H 	H 	0.5867	0.8804	0.9308	-0.042
Mof_C 	C 	0.60036	0.744	0.8861	-0.195
Mof_H 	H 	0.6268	0.7769	0.8874	0.089
Mof_C 	C 	0.51072	0.8258	0.93869	0.504
Mof_O 	O 	0.42518	0.6705	0.99634	-0.519
Mof_S 	S 	0.42989	0.5542	0.9647	0.216
Mof_C 	C 	0.3956	0.4265	0.9672	-1.113
Mof_H 	H 	0.3669	0.4548	0.9533	0.289
Mof_H 	H 	0.4009	0.3542	0.9481	0.336
Mof_H 	H 	0.4003	0.4006	0.0016	0.256
Mof_S 	S 	0.3916	0.5813	0.9671	0.407
Mof_C 	C 	0.3866	0.549	0.9035	-0.746
Mof_H 	H 	0.3826	0.6291	0.885	0.255
Mof_H 	H 	0.4118	0.507	0.901	0.242
Mof_H 	H 	0.3628	0.4933	0.8898	0.231
Mof_C 	C 	0.3991	0.4309	0.9978	0.029
Mof_H 	H 	0.4015	0.4432	0.0327	-0.078
Mof_H 	H 	0.3755	0.3754	0.9826	0.106
Mof_H 	H 	0.4245	0.3915	0.9948	0.127
Mof_H 	H 	0.4682	0.5733	0.9793	0.05
Mof_H 	H 	0.4729	0.4245	0.9703	0.068
Mof_H 	H 	0.4729	0.4744	0.0236	0.075
Mof_C 	C 	0.4813	0.494	0.9942	-0.178
Mof_Tb	Tb	0.94462	0.39378	0.99053	2.151
Mof_O 	O 	0.37994	0.8507	0.92304	-0.457
Mof_O 	O 	0.37563	0.0085	0.97316	-0.454
Mof_O 	O 	0.05662	0.5491	0.57124	-0.537
Mof_O 	O 	0.00352	0.6925	0.55159	-0.552
Mof_O 	O 	0.02561	0.4244	0.96461	-0.619
Mof_O 	O 	0.97536	0.2797	0.93633	-0.519
Mof_C 	C 	0.35954	0.9383	0.9357	0.352
Mof_C 	C 	0.31448	0.958	0.90627	-0.128
Mof_C 	C 	0.29294	0.8559	0.87706	0.044
Mof_H 	H 	0.3071	0.7795	0.8746	0.012
Mof_C 	C 	0.25023	0.8681	0.85156	-0.125
Mof_H 	H 	0.2358	0.7997	0.832	0.066
Mof_C 	C 	0.22904	0.9823	0.85528	0.051
Mof_C 	C 	0.25057	0.0844	0.88449	-0.126
Mof_H 	H 	0.2364	0.1609	0.887	0.064
Mof_C 	C 	0.29329	0.0723	0.90999	0.046
Mof_H 	H 	0.3077	0.1406	0.9295	0.009
Mof_C 	C 	0.18116	0.9885	0.83079	0.017
Mof_C 	C 	0.16252	0.9245	0.78568	-0.087
Mof_H 	H 	0.1794	0.8779	0.7704	0.053
Mof_C 	C 	0.11913	0.929	0.763	0.005
Mof_C 	C 	0.09453	0.9981	0.78712	-0.082
Mof_H 	H 	0.0654	0.0011	0.7726	0.054
Mof_C 	C 	0.11247	0.0628	0.83257	0.003
Mof_C 	C 	0.15592	0.0573	0.85375	-0.085
Mof_H 	H 	0.1684	0.1005	0.8839	0.051
Mof_C 	C 	0.09918	0.861	0.71457	0.088
Mof_C 	C 	0.11726	0.751	0.7012	-0.177
Mof_H 	H 	0.1429	0.7216	0.7223	0.085
Mof_C 	C 	0.09815	0.6839	0.6575	0.108
Mof_H 	H 	0.111	0.6102	0.6494	0
Mof_C 	C 	0.05997	0.7257	0.62557	-0.225
Mof_C 	C 	0.04161	0.8342	0.63846	0.106
Mof_H 	H 	0.0158	0.8628	0.6176	-0.011
Mof_C 	C 	0.06105	0.9016	0.68211	-0.182
Mof_H 	H 	0.0482	0.9758	0.6898	0.086
Mof_C 	C 	0.03841	0.6496	0.57889	0.505
Mof_C 	C 	0.08565	0.1326	0.85825	0.098
Mof_C 	C 	0.04561	0.0877	0.8562	-0.186
Mof_H 	H 	0.0349	0.014	0.8374	0.088
Mof_C 	C 	0.0216	0.1512	0.88169	0.125
Mof_H 	H 	0.9949	0.1198	0.8799	-0.013
Mof_C 	C 	0.03668	0.2611	0.90982	-0.242
Mof_C 	C 	0.07615	0.3067	0.9119	0.134
Mof_H 	H 	0.0867	0.3804	0.9308	-0.042
Mof_C 	C 	0.10036	0.244	0.8861	-0.195
Mof_H 	H 	0.1268	0.2769	0.8874	0.088
Mof_C 	C 	0.01072	0.3258	0.93869	0.504
Mof_O 	O 	0.92518	0.1705	0.99634	-0.519
Mof_S 	S 	0.92989	0.0542	0.9647	0.217
Mof_C 	C 	0.8956	0.9265	0.9672	-1.121
Mof_H 	H 	0.8669	0.9548	0.9533	0.29
Mof_H 	H 	0.9009	0.8542	0.9481	0.338
Mof_H 	H 	0.9003	0.9006	0.0016	0.257
Mof_S 	S 	0.8916	0.0813	0.9671	0.408
Mof_C 	C 	0.8866	0.049	0.9035	-0.743
Mof_H 	H 	0.8826	0.1291	0.885	0.255
Mof_H 	H 	0.9118	0.007	0.901	0.241
Mof_H 	H 	0.8628	0.9933	0.8898	0.23
Mof_C 	C 	0.8991	0.9309	0.9978	0.031
Mof_H 	H 	0.9015	0.9432	0.0327	-0.078
Mof_H 	H 	0.8755	0.8754	0.9826	0.106
Mof_H 	H 	0.9245	0.8915	0.9948	0.126
Mof_H 	H 	0.9682	0.0733	0.9793	0.051
Mof_H 	H 	0.9729	0.9245	0.9703	0.068
Mof_H 	H 	0.9729	0.9744	0.0236	0.077
Mof_C 	C 	0.9813	0.994	0.9942	-0.181
Mof_Tb	Tb	0.55538	0.89378	0.50947	2.15
Mof_O 	O 	0.12006	0.3507	0.57696	-0.458
Mof_O 	O 	0.12437	0.5085	0.52684	-0.456
Mof_O 	O 	0.44338	0.0491	0.92876	-0.537
Mof_O 	O 	0.49648	0.1925	0.94841	-0.551
Mof_O 	O 	0.47439	0.9244	0.53539	-0.619
Mof_O 	O 	0.52464	0.7797	0.56367	-0.518
Mof_C 	C 	0.14046	0.4383	0.5643	0.353
Mof_C 	C 	0.18552	0.458	0.59373	-0.127
Mof_C 	C 	0.20706	0.3559	0.62294	0.044
Mof_H 	H 	0.1929	0.2795	0.6254	0.012
Mof_C 	C 	0.24977	0.3681	0.64844	-0.126
Mof_H 	H 	0.2642	0.2997	0.668	0.066
Mof_C 	C 	0.27096	0.4823	0.64472	0.052
Mof_C 	C 	0.24943	0.5844	0.61551	-0.127
Mof_H 	H 	0.2636	0.6609	0.613	0.064
Mof_C 	C 	0.20671	0.5723	0.59001	0.046
Mof_H 	H 	0.1923	0.6406	0.5705	0.009
Mof_C 	C 	0.31884	0.4885	0.66921	0.018
Mof_C 	C 	0.33748	0.4245	0.71432	-0.086
Mof_H 	H 	0.3206	0.3779	0.7296	0.053
Mof_C 	C 	0.38087	0.429	0.737	0.003
Mof_C 	C 	0.40547	0.4981	0.71288	-0.077
Mof_H 	H 	0.4346	0.5011	0.7274	0.051
Mof_C 	C 	0.38753	0.5628	0.66743	0
Mof_C 	C 	0.34408	0.5573	0.64625	-0.085
Mof_H 	H 	0.3316	0.6005	0.6161	0.051
Mof_C 	C 	0.40082	0.361	0.78543	0.089
Mof_C 	C 	0.38274	0.251	0.7988	-0.177
Mof_H 	H 	0.3571	0.2216	0.7777	0.086
Mof_C 	C 	0.40185	0.1839	0.8425	0.108
Mof_H 	H 	0.389	0.1102	0.8506	0
Mof_C 	C 	0.44003	0.2257	0.87443	-0.225
Mof_C 	C 	0.45839	0.3342	0.86154	0.107
Mof_H 	H 	0.4842	0.3628	0.8824	-0.011
Mof_C 	C 	0.43895	0.4016	0.81789	-0.183
Mof_H 	H 	0.4518	0.4758	0.8102	0.086
Mof_C 	C 	0.46159	0.1496	0.92111	0.505
Mof_C 	C 	0.41435	0.6326	0.64175	0.099
Mof_C 	C 	0.45439	0.5877	0.6438	-0.186
Mof_H 	H 	0.4651	0.514	0.6626	0.088
Mof_C 	C 	0.4784	0.6512	0.61831	0.125
Mof_H 	H 	0.5051	0.6198	0.6201	-0.013
Mof_C 	C 	0.46332	0.7611	0.59018	-0.243
Mof_C 	C 	0.42385	0.8067	0.5881	0.134
Mof_H 	H 	0.4133	0.8804	0.5692	-0.042
Mof_C 	C 	0.39964	0.744	0.6139	-0.195
Mof_H 	H 	0.3732	0.7769	0.6126	0.089
Mof_C 	C 	0.48928	0.8258	0.56131	0.504
Mof_O 	O 	0.57482	0.6705	0.50366	-0.519
Mof_S 	S 	0.57011	0.5542	0.5353	0.216
Mof_C 	C 	0.6044	0.4265	0.5328	-1.113
Mof_H 	H 	0.6331	0.4548	0.5467	0.288
Mof_H 	H 	0.5991	0.3542	0.5519	0.336
Mof_H 	H 	0.5997	0.4006	0.4984	0.255
Mof_S 	S 	0.6084	0.5813	0.5329	0.407
Mof_C 	C 	0.6134	0.549	0.5965	-0.746
Mof_H 	H 	0.6174	0.6291	0.615	0.255
Mof_H 	H 	0.5882	0.507	0.599	0.241
Mof_H 	H 	0.6372	0.4933	0.6102	0.231
Mof_C 	C 	0.6009	0.4309	0.5022	0.029
Mof_H 	H 	0.5985	0.4432	0.4673	-0.078
Mof_H 	H 	0.6245	0.3754	0.5174	0.105
Mof_H 	H 	0.5755	0.3915	0.5052	0.126
Mof_H 	H 	0.5318	0.5733	0.5207	0.05
Mof_H 	H 	0.5271	0.4245	0.5297	0.068
Mof_H 	H 	0.5271	0.4744	0.4764	0.075
Mof_C 	C 	0.5187	0.494	0.5058	-0.178
Mof_Tb	Tb	0.05538	0.39378	0.50947	2.15
Mof_O 	O 	0.62006	0.8507	0.57696	-0.458
Mof_O 	O 	0.62437	0.0085	0.52684	-0.456
Mof_O 	O 	0.94338	0.5491	0.92876	-0.538
Mof_O 	O 	0.99648	0.6925	0.94841	-0.552
Mof_O 	O 	0.97439	0.4244	0.53539	-0.619
Mof_O 	O 	0.02464	0.2797	0.56367	-0.518
Mof_C 	C 	0.64046	0.9383	0.5643	0.353
Mof_C 	C 	0.68552	0.958	0.59373	-0.128
Mof_C 	C 	0.70706	0.8559	0.62294	0.044
Mof_H 	H 	0.6929	0.7795	0.6254	0.012
Mof_C 	C 	0.74977	0.8681	0.64844	-0.125
Mof_H 	H 	0.7642	0.7997	0.668	0.066
Mof_C 	C 	0.77096	0.9823	0.64472	0.051
Mof_C 	C 	0.74943	0.0844	0.61551	-0.126
Mof_H 	H 	0.7636	0.1609	0.613	0.064
Mof_C 	C 	0.70671	0.0723	0.59001	0.046
Mof_H 	H 	0.6923	0.1406	0.5705	0.009
Mof_C 	C 	0.81884	0.9885	0.66921	0.018
Mof_C 	C 	0.83748	0.9245	0.71432	-0.087
Mof_H 	H 	0.8206	0.8779	0.7296	0.053
Mof_C 	C 	0.88087	0.929	0.737	0.005
Mof_C 	C 	0.90547	0.9981	0.71288	-0.081
Mof_H 	H 	0.9346	0.0011	0.7274	0.054
Mof_C 	C 	0.88753	0.0628	0.66743	0.003
Mof_C 	C 	0.84408	0.0573	0.64625	-0.085
Mof_H 	H 	0.8316	0.1005	0.6161	0.051
Mof_C 	C 	0.90082	0.861	0.78543	0.088
Mof_C 	C 	0.88274	0.751	0.7988	-0.177
Mof_H 	H 	0.8571	0.7216	0.7777	0.085
Mof_C 	C 	0.90185	0.6839	0.8425	0.108
Mof_H 	H 	0.889	0.6102	0.8506	0
Mof_C 	C 	0.94003	0.7257	0.87443	-0.225
Mof_C 	C 	0.95839	0.8342	0.86154	0.106
Mof_H 	H 	0.9842	0.8628	0.8824	-0.011
Mof_C 	C 	0.93895	0.9016	0.81789	-0.182
Mof_H 	H 	0.9518	0.9758	0.8102	0.086
Mof_C 	C 	0.96159	0.6496	0.92111	0.505
Mof_C 	C 	0.91435	0.1326	0.64175	0.097
Mof_C 	C 	0.95439	0.0877	0.6438	-0.185
Mof_H 	H 	0.9651	0.014	0.6626	0.088
Mof_C 	C 	0.9784	0.1512	0.61831	0.124
Mof_H 	H 	0.0051	0.1198	0.6201	-0.012
Mof_C 	C 	0.96332	0.2611	0.59018	-0.242
Mof_C 	C 	0.92385	0.3067	0.5881	0.134
Mof_H 	H 	0.9133	0.3804	0.5692	-0.042
Mof_C 	C 	0.89964	0.244	0.6139	-0.194
Mof_H 	H 	0.8732	0.2769	0.6126	0.088
Mof_C 	C 	0.98928	0.3258	0.56131	0.504
Mof_O 	O 	0.07482	0.1705	0.50366	-0.519
Mof_S 	S 	0.07011	0.0542	0.5353	0.216
Mof_C 	C 	0.1044	0.9265	0.5328	-1.113
Mof_H 	H 	0.1331	0.9548	0.5467	0.288
Mof_H 	H 	0.0991	0.8542	0.5519	0.335
Mof_H 	H 	0.0997	0.9006	0.4984	0.255
Mof_S 	S 	0.1084	0.0813	0.5329	0.406
Mof_C 	C 	0.1134	0.049	0.5965	-0.745
Mof_H 	H 	0.1174	0.1291	0.615	0.255
Mof_H 	H 	0.0882	0.007	0.599	0.241
Mof_H 	H 	0.1372	0.9933	0.6102	0.231
Mof_C 	C 	0.1009	0.9309	0.5022	0.029
Mof_H 	H 	0.0985	0.9432	0.4673	-0.078
Mof_H 	H 	0.1245	0.8754	0.5174	0.105
Mof_H 	H 	0.0755	0.8915	0.5052	0.126
Mof_H 	H 	0.0318	0.0733	0.5207	0.05
Mof_H 	H 	0.0271	0.9245	0.5297	0.068
Mof_H 	H 	0.0271	0.9744	0.4764	0.075
Mof_C 	C 	0.0187	0.994	0.5058	-0.178
_end
