data_functionalizedCrystal
_audit_creation_method	'EQeq! by Chris Wilmer'
_symmetry_space_group_name_H-M	'P1'
_symmetry_Int_Tables_number	1
_symmetry_cell_setting	triclinic
loop_
_symmetry_equiv_pos_as_xyz
  x,y,z
_cell_length_a	7.3585
_cell_length_b	18.7029
_cell_length_c	23.5965
_cell_angle_alpha	90
_cell_angle_beta	90
_cell_angle_gamma	90
loop_
_atom_site_label
_atom_site_type_symbol
_atom_site_fract_x
_atom_site_fract_y
_atom_site_fract_z
_atom_site_charge
Mof_Ca	Ca	0.5	0.5	-0	1.333
Mof_Ca	Ca	-0	0	-0	1.139
Mof_Ca	Ca	0.5	0.5	0.5	1.437
Mof_Ca	Ca	6.0116e-33	0	0.5	1.246
Mof_Zn	Zn	0.858	0.54915	0.91328	1.199
Mof_Zn	Zn	0.642	0.04915	0.08672	1.179
Mof_Zn	Zn	0.142	0.45085	0.41328	1.186
Mof_Zn	Zn	0.358	0.95085	0.58672	1.203
Mof_Zn	Zn	0.142	0.45085	0.08672	1.184
Mof_Zn	Zn	0.358	0.95085	0.91328	1.206
Mof_Zn	Zn	0.858	0.54915	0.58672	1.194
Mof_Zn	Zn	0.642	0.04915	0.41328	1.18
Mof_H 	H 	0.7738	0.2968	0.0224	0.01
Mof_H 	H 	0.9974	0.3309	0.8698	0.14
Mof_H 	H 	0.9057	0.1306	0.9227	0.138
Mof_H 	H 	0.929	0.1884	0.8065	0.347
Mof_H 	H 	0.1084	0.2326	0.8136	0.323
Mof_H 	H 	0.0972	0.1544	0.8371	0.333
Mof_H 	H 	0.2043	0.455	0.835	0.029
Mof_H 	H 	0.9073	0.4435	0.7752	0.063
Mof_H 	H 	0.7262	0.7968	0.9776	0.14
Mof_H 	H 	0.5026	0.8309	0.1302	0.122
Mof_H 	H 	0.5943	0.6306	0.0773	0.097
Mof_H 	H 	0.571	0.6884	0.1935	0.266
Mof_H 	H 	0.3916	0.7326	0.1864	0.264
Mof_H 	H 	0.4028	0.6544	0.1629	0.273
Mof_H 	H 	0.2957	0.955	0.165	0.077
Mof_H 	H 	0.5927	0.9435	0.2248	0.094
Mof_H 	H 	0.2262	0.7032	0.5224	0.04
Mof_H 	H 	0.0026	0.6691	0.3698	0.06
Mof_H 	H 	0.0943	0.8694	0.4227	0.065
Mof_H 	H 	0.071	0.8116	0.3065	0.124
Mof_H 	H 	0.8916	0.7674	0.3136	0.156
Mof_H 	H 	0.9028	0.8456	0.3371	0.172
Mof_H 	H 	0.7957	0.545	0.335	0.067
Mof_H 	H 	0.0927	0.5565	0.2752	0.08
Mof_H 	H 	0.2738	0.2032	0.4776	0.051
Mof_H 	H 	0.4974	0.1691	0.6302	0.098
Mof_H 	H 	0.4057	0.3694	0.5773	0.085
Mof_H 	H 	0.429	0.3116	0.6935	0.231
Mof_H 	H 	0.6084	0.2674	0.6864	0.235
Mof_H 	H 	0.5972	0.3456	0.6629	0.25
Mof_H 	H 	0.7043	0.045	0.665	0.02
Mof_H 	H 	0.4073	0.0565	0.7248	0.051
Mof_H 	H 	0.2262	0.7032	0.9776	0.111
Mof_H 	H 	0.0026	0.6691	0.1302	0.068
Mof_H 	H 	0.0943	0.8694	0.0773	0.067
Mof_H 	H 	0.071	0.8116	0.1935	0.13
Mof_H 	H 	0.8916	0.7674	0.1864	0.163
Mof_H 	H 	0.9028	0.8456	0.1629	0.179
Mof_H 	H 	0.7957	0.545	0.165	0.066
Mof_H 	H 	0.0927	0.5565	0.2248	0.08
Mof_H 	H 	0.2738	0.2032	0.0224	-0.019
Mof_H 	H 	0.4974	0.1691	0.8698	0.093
Mof_H 	H 	0.4057	0.3694	0.9227	0.096
Mof_H 	H 	0.429	0.3116	0.8065	0.229
Mof_H 	H 	0.6084	0.2674	0.8136	0.233
Mof_H 	H 	0.5972	0.3456	0.8371	0.248
Mof_H 	H 	0.7043	0.045	0.835	0.024
Mof_H 	H 	0.4073	0.0565	0.7752	0.051
Mof_H 	H 	0.7738	0.2968	0.4776	0.078
Mof_H 	H 	0.9974	0.3309	0.6302	0.145
Mof_H 	H 	0.9057	0.1306	0.5773	0.127
Mof_H 	H 	0.929	0.1884	0.6935	0.351
Mof_H 	H 	0.1084	0.2326	0.6864	0.327
Mof_H 	H 	0.0972	0.1544	0.6629	0.336
Mof_H 	H 	0.2043	0.455	0.665	0.026
Mof_H 	H 	0.9073	0.4435	0.7248	0.063
Mof_H 	H 	0.7262	0.7968	0.5224	0.071
Mof_H 	H 	0.5026	0.8309	0.3698	0.114
Mof_H 	H 	0.5943	0.6306	0.4227	0.097
Mof_H 	H 	0.571	0.6884	0.3065	0.26
Mof_H 	H 	0.3916	0.7326	0.3136	0.259
Mof_H 	H 	0.4028	0.6544	0.3371	0.267
Mof_H 	H 	0.2957	0.955	0.335	0.078
Mof_H 	H 	0.5927	0.9435	0.2752	0.095
Mof_H 	H 	0.6309	0.5343	0.75	0.037
Mof_H 	H 	0.8691	0.0343	0.25	0.07
Mof_H 	H 	0.3691	0.4657	0.25	0.038
Mof_H 	H 	0.1309	0.9657	0.75	0.013
Mof_C 	C 	0.8219	0.27914	0.98873	0.002
Mof_C 	C 	0.8793	0.32587	0.94707	0.009
Mof_C 	C 	0.9535	0.2992	0.89692	-0.283
Mof_C 	C 	0.8483	0.4048	0.95424	0.348
Mof_C 	C 	0.7717	0.157	0.02649	0.252
Mof_C 	C 	0.836	0.20552	0.98042	0.069
Mof_C 	C 	0.902	0.17961	0.92902	-0.292
Mof_C 	C 	0.9626	0.2261	0.88699	0.431
Mof_C 	C 	0.0305	0.1978	0.83092	-1.09
Mof_C 	C 	0.5293	0.51385	0.85533	0.389
Mof_C 	C 	0.4326	0.49724	0.80098	-0.124
Mof_C 	C 	0.2607	0.4657	0.8007	-0.038
Mof_C 	C 	0.6781	0.77914	0.01127	-0.159
Mof_C 	C 	0.6207	0.82587	0.05293	0.038
Mof_C 	C 	0.5465	0.7992	0.10308	-0.245
Mof_C 	C 	0.6517	0.9048	0.04576	0.319
Mof_C 	C 	0.7283	0.657	0.97351	0.349
Mof_C 	C 	0.664	0.70552	0.01958	-0.003
Mof_C 	C 	0.598	0.67961	0.07098	-0.218
Mof_C 	C 	0.5374	0.7261	0.11301	0.324
Mof_C 	C 	0.4695	0.6978	0.16908	-0.834
Mof_C 	C 	0.9707	0.01385	0.14467	0.373
Mof_C 	C 	0.0674	0.99724	0.19902	-0.01
Mof_C 	C 	0.2393	0.9657	0.1993	-0.121
Mof_C 	C 	0.1781	0.72086	0.48873	-0.001
Mof_C 	C 	0.1207	0.67413	0.44707	-0.084
Mof_C 	C 	0.0465	0.7008	0.39692	-0.105
Mof_C 	C 	0.1517	0.5952	0.45424	0.374
Mof_C 	C 	0.2283	0.843	0.52649	0.323
Mof_C 	C 	0.164	0.79448	0.48042	-0.061
Mof_C 	C 	0.098	0.82039	0.42902	-0.105
Mof_C 	C 	0.0374	0.7739	0.38699	0.118
Mof_C 	C 	0.9695	0.8022	0.33092	-0.431
Mof_C 	C 	0.4707	0.48615	0.35533	0.388
Mof_C 	C 	0.5674	0.50276	0.30098	-0.096
Mof_C 	C 	0.7393	0.5343	0.3007	-0.094
Mof_C 	C 	0.3219	0.22086	0.51127	-0.044
Mof_C 	C 	0.3793	0.17413	0.55293	-0.031
Mof_C 	C 	0.4535	0.2008	0.60308	-0.201
Mof_C 	C 	0.3483	0.0952	0.54576	0.349
Mof_C 	C 	0.2717	0.343	0.47351	0.319
Mof_C 	C 	0.336	0.29448	0.51958	-0.023
Mof_C 	C 	0.402	0.32039	0.57098	-0.191
Mof_C 	C 	0.4626	0.2739	0.61301	0.27
Mof_C 	C 	0.5305	0.3022	0.66908	-0.761
Mof_C 	C 	0.0293	0.98615	0.64467	0.382
Mof_C 	C 	0.9326	0.00276	0.69902	-0.191
Mof_C 	C 	0.7607	0.0343	0.6993	-0.022
Mof_C 	C 	0.1781	0.72086	0.01127	-0.107
Mof_C 	C 	0.1207	0.67413	0.05293	-0.044
Mof_C 	C 	0.0465	0.7008	0.10308	-0.132
Mof_C 	C 	0.1517	0.5952	0.04576	0.351
Mof_C 	C 	0.2283	0.843	0.97351	0.356
Mof_C 	C 	0.164	0.79448	0.01958	-0.065
Mof_C 	C 	0.098	0.82039	0.07098	-0.117
Mof_C 	C 	0.0374	0.7739	0.11301	0.138
Mof_C 	C 	0.9695	0.8022	0.16908	-0.454
Mof_C 	C 	0.4707	0.48615	0.14467	0.385
Mof_C 	C 	0.5674	0.50276	0.19902	-0.096
Mof_C 	C 	0.7393	0.5343	0.1993	-0.094
Mof_C 	C 	0.3219	0.22086	0.98873	0.058
Mof_C 	C 	0.3793	0.17413	0.94707	-0.06
Mof_C 	C 	0.4535	0.2008	0.89692	-0.183
Mof_C 	C 	0.3483	0.0952	0.95424	0.359
Mof_C 	C 	0.2717	0.343	0.02649	0.273
Mof_C 	C 	0.336	0.29448	0.98042	-0.002
Mof_C 	C 	0.402	0.32039	0.92902	-0.192
Mof_C 	C 	0.4626	0.2739	0.88699	0.262
Mof_C 	C 	0.5305	0.3022	0.83092	-0.753
Mof_C 	C 	0.0293	0.98615	0.85533	0.374
Mof_C 	C 	0.9326	0.00276	0.80098	-0.186
Mof_C 	C 	0.7607	0.0343	0.8007	-0.024
Mof_C 	C 	0.8219	0.27914	0.51127	-0.096
Mof_C 	C 	0.8793	0.32587	0.55293	0.037
Mof_C 	C 	0.9535	0.2992	0.60308	-0.301
Mof_C 	C 	0.8483	0.4048	0.54576	0.337
Mof_C 	C 	0.7717	0.157	0.47351	0.299
Mof_C 	C 	0.836	0.20552	0.51958	0.048
Mof_C 	C 	0.902	0.17961	0.57098	-0.291
Mof_C 	C 	0.9626	0.2261	0.61301	0.44
Mof_C 	C 	0.0305	0.1978	0.66908	-1.102
Mof_C 	C 	0.5293	0.51385	0.64467	0.397
Mof_C 	C 	0.4326	0.49724	0.69902	-0.128
Mof_C 	C 	0.2607	0.4657	0.6993	-0.037
Mof_C 	C 	0.6781	0.77914	0.48873	-0.058
Mof_C 	C 	0.6207	0.82587	0.44707	0.001
Mof_C 	C 	0.5465	0.7992	0.39692	-0.22
Mof_C 	C 	0.6517	0.9048	0.45424	0.341
Mof_C 	C 	0.7283	0.657	0.52649	0.315
Mof_C 	C 	0.664	0.70552	0.48042	0.005
Mof_C 	C 	0.598	0.67961	0.42902	-0.208
Mof_C 	C 	0.5374	0.7261	0.38699	0.307
Mof_C 	C 	0.4695	0.6978	0.33092	-0.815
Mof_C 	C 	0.9707	0.01385	0.35533	0.376
Mof_C 	C 	0.0674	0.99724	0.30098	-0.011
Mof_C 	C 	0.2393	0.9657	0.3007	-0.121
Mof_C 	C 	0.5167	0.5129	0.75	0.04
Mof_C 	C 	0.1717	0.4497	0.75	-0.007
Mof_C 	C 	0.9846	0.4171	0.75	-0.155
Mof_C 	C 	0.9833	0.0129	0.25	-0.105
Mof_C 	C 	0.3283	0.9497	0.25	0.106
Mof_C 	C 	0.5154	0.9171	0.25	-0.233
Mof_C 	C 	0.4833	0.4871	0.25	0.014
Mof_C 	C 	0.8283	0.5503	0.25	0.106
Mof_C 	C 	0.0154	0.5829	0.25	-0.261
Mof_C 	C 	0.0167	0.9871	0.75	0.136
Mof_C 	C 	0.6717	0.0503	0.75	-0
Mof_C 	C 	0.4846	0.0829	0.75	-0.182
Mof_O 	O 	0.7448	0.42513	0.99269	-0.445
Mof_O 	O 	0.9261	0.44661	0.91943	-0.47
Mof_O 	O 	0.7732	0.0885	0.01777	-0.549
Mof_O 	O 	0.714	0.18102	0.07176	-0.348
Mof_O 	O 	0.4551	0.50032	0.90172	-0.455
Mof_O 	O 	0.6865	0.54102	0.85009	-0.487
Mof_O 	O 	0.7552	0.92513	0.00731	-0.436
Mof_O 	O 	0.5739	0.94661	0.08057	-0.455
Mof_O 	O 	0.7268	0.5885	0.98223	-0.532
Mof_O 	O 	0.786	0.68102	0.92824	-0.342
Mof_O 	O 	0.0449	0.00032	0.09828	-0.503
Mof_O 	O 	0.8135	0.04102	0.14991	-0.504
Mof_O 	O 	0.2552	0.57487	0.49269	-0.504
Mof_O 	O 	0.0739	0.55339	0.41943	-0.511
Mof_O 	O 	0.2268	0.9115	0.51777	-0.536
Mof_O 	O 	0.286	0.81898	0.57176	-0.357
Mof_O 	O 	0.5449	0.49968	0.40172	-0.473
Mof_O 	O 	0.3135	0.45898	0.35009	-0.5
Mof_O 	O 	0.2448	0.07487	0.50731	-0.495
Mof_O 	O 	0.4261	0.05339	0.58057	-0.516
Mof_O 	O 	0.2732	0.4115	0.48223	-0.573
Mof_O 	O 	0.214	0.31898	0.42824	-0.369
Mof_O 	O 	0.9551	0.99968	0.59828	-0.388
Mof_O 	O 	0.1865	0.95898	0.64991	-0.475
Mof_O 	O 	0.2552	0.57487	0.00731	-0.51
Mof_O 	O 	0.0739	0.55339	0.08057	-0.51
Mof_O 	O 	0.2268	0.9115	0.98223	-0.509
Mof_O 	O 	0.286	0.81898	0.92824	-0.355
Mof_O 	O 	0.5449	0.49968	0.09828	-0.469
Mof_O 	O 	0.3135	0.45898	0.14991	-0.499
Mof_O 	O 	0.2448	0.07487	0.99269	-0.453
Mof_O 	O 	0.4261	0.05339	0.91943	-0.507
Mof_O 	O 	0.2732	0.4115	0.01777	-0.574
Mof_O 	O 	0.214	0.31898	0.07176	-0.366
Mof_O 	O 	0.9551	0.99968	0.90172	-0.365
Mof_O 	O 	0.1865	0.95898	0.85009	-0.471
Mof_O 	O 	0.7448	0.42513	0.50731	-0.485
Mof_O 	O 	0.9261	0.44661	0.58057	-0.477
Mof_O 	O 	0.7732	0.0885	0.48223	-0.548
Mof_O 	O 	0.714	0.18102	0.42824	-0.351
Mof_O 	O 	0.4551	0.50032	0.59828	-0.48
Mof_O 	O 	0.6865	0.54102	0.64991	-0.492
Mof_O 	O 	0.7552	0.92513	0.49269	-0.432
Mof_O 	O 	0.5739	0.94661	0.41943	-0.456
Mof_O 	O 	0.7268	0.5885	0.51777	-0.56
Mof_O 	O 	0.786	0.68102	0.57176	-0.344
Mof_O 	O 	0.0449	0.00032	0.40172	-0.507
Mof_O 	O 	0.8135	0.04102	0.35009	-0.504
_end
