data_functionalizedCrystal
_audit_creation_method	'EQeq! by Chris Wilmer'
_symmetry_space_group_name_H-M	'P1'
_symmetry_Int_Tables_number	1
_symmetry_cell_setting	triclinic
loop_
_symmetry_equiv_pos_as_xyz
  x,y,z
_cell_length_a	35.832
_cell_length_b	14.838
_cell_length_c	30.783
_cell_angle_alpha	90
_cell_angle_beta	102.066
_cell_angle_gamma	90
loop_
_atom_site_label
_atom_site_type_symbol
_atom_site_fract_x
_atom_site_fract_y
_atom_site_fract_z
_atom_site_charge
Mof_I 	I 	0.64069	0.10819	0.99282	-0.374
Mof_I 	I 	0.60013	0.23298	0.10689	-0.382
Mof_I 	I 	0.26576	0.7719	0.19928	-0.38
Mof_I 	I 	0.36935	0.84132	0.30205	-0.402
Mof_I 	I 	0.39132	0.25287	0.94409	-0.382
Mof_I 	I 	0.47613	0.35607	0.8682	-0.352
Mof_Zn	Zn	0.62165	0.09905	0.06687	1.165
Mof_Zn	Zn	0.41957	0.37608	0.90531	1.164
Mof_Zn	Zn	0.32654	0.86217	0.2256	1.163
Mof_N 	N 	0.81676	0.8276	0.2508	-0.136
Mof_N 	N 	0.77757	0.9552	0.2287	-0.142
Mof_N 	N 	0.76362	0.8163	0.1901	-0.141
Mof_N 	N 	0.87876	0.058	0.3581	-0.273
Mof_N 	N 	0.66541	0.0359	0.11007	-0.273
Mof_N 	N 	0.81449	0.4987	0.2196	-0.272
Mof_C 	C 	0.8071	0.9138	0.2541	0.099
Mof_C 	C 	0.8317	0.9652	0.2907	0.064
Mof_C 	C 	0.8619	0.9234	0.317	-0.129
Mof_H 	H 	0.8674	0.862	0.3123	0.097
Mof_C 	C 	0.8845	0.9719	0.3508	0.078
Mof_H 	H 	0.9051	0.942	0.3698	-0.006
Mof_C 	C 	0.8494	0.0992	0.3325	0.072
Mof_H 	H 	0.8449	0.161	0.3377	-0.011
Mof_C 	C 	0.8249	0.0542	0.2983	-0.13
Mof_H 	H 	0.8038	0.0846	0.2805	0.08
Mof_C 	C 	0.7575	0.904	0.1963	0.089
Mof_C 	C 	0.7252	0.9493	0.1659	0.048
Mof_C 	C 	0.7158	0.0372	0.174	-0.123
Mof_H 	H 	0.7299	0.0691	0.1989	0.091
Mof_C 	C 	0.6858	0.0781	0.1457	0.07
Mof_H 	H 	0.6792	0.1382	0.1517	-0.004
Mof_C 	C 	0.6747	0.9514	0.1022	0.072
Mof_H 	H 	0.6604	0.9216	0.0768	-0.001
Mof_C 	C 	0.7041	0.9049	0.1293	-0.116
Mof_H 	H 	0.7096	0.8443	0.123	0.083
Mof_C 	C 	0.7933	0.7817	0.2188	0.105
Mof_C 	C 	0.8006	0.6832	0.2171	0.054
Mof_C 	C 	0.7741	0.624	0.1937	-0.117
Mof_H 	H 	0.7508	0.6458	0.1762	0.077
Mof_C 	C 	0.7818	0.533	0.1958	0.067
Mof_H 	H 	0.7633	0.4929	0.1798	-0.008
Mof_C 	C 	0.8402	0.556	0.2425	0.061
Mof_H 	H 	0.8633	0.5324	0.2595	-0.013
Mof_C 	C 	0.8344	0.6479	0.2424	-0.114
Mof_H 	H 	0.8531	0.6867	0.2592	0.082
Mof_N 	N 	0.42618	0.7208	0.0638	-0.134
Mof_N 	N 	0.47613	0.77	0.02982	-0.148
Mof_N 	N 	0.46289	0.8496	0.0917	-0.134
Mof_N 	N 	0.43094	0.4827	0.9497	-0.271
Mof_N 	N 	0.57836	0.0067	0.0629	-0.268
Mof_N 	N 	0.3605	0.8417	0.1801	-0.275
Mof_C 	C 	0.4482	0.7131	0.0347	0.095
Mof_C 	C 	0.442	0.6332	0.0047	0.051
Mof_C 	C 	0.4099	0.5814	0.0004	-0.121
Mof_H 	H 	0.3907	0.5967	0.0162	0.081
Mof_C 	C 	0.4055	0.5064	0.973	0.075
Mof_H 	H 	0.3832	0.4706	0.9708	-0.017
Mof_C 	C 	0.4624	0.5345	0.953	0.061
Mof_H 	H 	0.4809	0.5186	0.9363	-0.004
Mof_C 	C 	0.4688	0.6101	0.9801	-0.112
Mof_H 	H 	0.4912	0.6454	0.9817	0.071
Mof_C 	C 	0.4828	0.8346	0.0604	0.097
Mof_C 	C 	0.5156	0.8946	0.0606	0.043
Mof_C 	C 	0.5289	0.9131	0.0226	-0.107
Mof_H 	H 	0.5166	0.8872	0.9951	0.075
Mof_C 	C 	0.5603	0.9697	0.0242	0.063
Mof_H 	H 	0.5691	0.9822	0.9978	-0.001
Mof_C 	C 	0.5659	0.9863	0.1	0.071
Mof_H 	H 	0.5792	0.0109	0.1274	-0.01
Mof_C 	C 	0.5352	0.9322	0.1003	-0.114
Mof_H 	H 	0.5273	0.9202	0.1274	0.084
Mof_C 	C 	0.434	0.7918	0.091	0.107
Mof_C 	C 	0.4089	0.808	0.1223	0.069
Mof_C 	C 	0.4191	0.8674	0.1569	-0.121
Mof_H 	H 	0.4427	0.8987	0.1611	0.085
Mof_C 	C 	0.3947	0.8811	0.1856	0.075
Mof_H 	H 	0.4026	0.9202	0.2102	-0.016
Mof_C 	C 	0.3508	0.784	0.1459	0.069
Mof_H 	H 	0.327	0.7537	0.1418	-0.008
Mof_C 	C 	0.3743	0.7671	0.1166	-0.117
Mof_H 	H 	0.3663	0.7269	0.0924	0.087
Mof_I 	I 	0.14069	0.60819	0.99282	-0.373
Mof_I 	I 	0.10013	0.73298	0.10689	-0.381
Mof_I 	I 	0.76576	0.2719	0.19928	-0.379
Mof_I 	I 	0.86935	0.34132	0.30205	-0.401
Mof_I 	I 	0.89132	0.75287	0.94409	-0.381
Mof_I 	I 	0.97613	0.85607	0.8682	-0.351
Mof_Zn	Zn	0.12165	0.59905	0.06687	1.166
Mof_Zn	Zn	0.91957	0.87608	0.90531	1.165
Mof_Zn	Zn	0.82654	0.36217	0.2256	1.164
Mof_N 	N 	0.31676	0.3276	0.2508	-0.135
Mof_N 	N 	0.27757	0.4552	0.2287	-0.141
Mof_N 	N 	0.26362	0.3163	0.1901	-0.14
Mof_N 	N 	0.37876	0.558	0.3581	-0.272
Mof_N 	N 	0.16541	0.5359	0.11007	-0.272
Mof_N 	N 	0.31449	0.9987	0.2196	-0.27
Mof_C 	C 	0.3071	0.4138	0.2541	0.1
Mof_C 	C 	0.3317	0.4652	0.2907	0.065
Mof_C 	C 	0.3619	0.4234	0.317	-0.128
Mof_H 	H 	0.3674	0.362	0.3123	0.097
Mof_C 	C 	0.3845	0.4719	0.3508	0.078
Mof_H 	H 	0.4051	0.442	0.3698	-0.006
Mof_C 	C 	0.3494	0.5992	0.3325	0.072
Mof_H 	H 	0.3449	0.661	0.3377	-0.011
Mof_C 	C 	0.3249	0.5542	0.2983	-0.13
Mof_H 	H 	0.3038	0.5846	0.2805	0.08
Mof_C 	C 	0.2575	0.404	0.1963	0.089
Mof_C 	C 	0.2252	0.4493	0.1659	0.047
Mof_C 	C 	0.2158	0.5372	0.174	-0.123
Mof_H 	H 	0.2299	0.5691	0.1989	0.091
Mof_C 	C 	0.1858	0.5781	0.1457	0.07
Mof_H 	H 	0.1792	0.6382	0.1517	-0.004
Mof_C 	C 	0.1747	0.4514	0.1022	0.072
Mof_H 	H 	0.1604	0.4216	0.0768	-0.001
Mof_C 	C 	0.2041	0.4049	0.1293	-0.115
Mof_H 	H 	0.2096	0.3443	0.123	0.083
Mof_C 	C 	0.2933	0.2817	0.2188	0.105
Mof_C 	C 	0.3006	0.1832	0.2171	0.054
Mof_C 	C 	0.2741	0.124	0.1937	-0.117
Mof_H 	H 	0.2508	0.1458	0.1762	0.077
Mof_C 	C 	0.2818	0.033	0.1958	0.067
Mof_H 	H 	0.2633	0.9929	0.1798	-0.008
Mof_C 	C 	0.3402	0.056	0.2425	0.061
Mof_H 	H 	0.3633	0.0324	0.2595	-0.013
Mof_C 	C 	0.3344	0.1479	0.2424	-0.114
Mof_H 	H 	0.3531	0.1867	0.2592	0.082
Mof_N 	N 	0.92618	0.2208	0.0638	-0.134
Mof_N 	N 	0.97613	0.27	0.02982	-0.148
Mof_N 	N 	0.96289	0.3496	0.0917	-0.134
Mof_N 	N 	0.93094	0.9827	0.9497	-0.271
Mof_N 	N 	0.07836	0.5067	0.0629	-0.268
Mof_N 	N 	0.8605	0.3417	0.1801	-0.275
Mof_C 	C 	0.9482	0.2131	0.0347	0.095
Mof_C 	C 	0.942	0.1332	0.0047	0.051
Mof_C 	C 	0.9099	0.0814	0.0004	-0.121
Mof_H 	H 	0.8907	0.0967	0.0162	0.081
Mof_C 	C 	0.9055	0.0064	0.973	0.076
Mof_H 	H 	0.8832	0.9706	0.9708	-0.017
Mof_C 	C 	0.9624	0.0345	0.953	0.061
Mof_H 	H 	0.9809	0.0186	0.9363	-0.004
Mof_C 	C 	0.9688	0.1101	0.9801	-0.112
Mof_H 	H 	0.9912	0.1454	0.9817	0.071
Mof_C 	C 	0.9828	0.3346	0.0604	0.098
Mof_C 	C 	0.0156	0.3946	0.0606	0.043
Mof_C 	C 	0.0289	0.4131	0.0226	-0.107
Mof_H 	H 	0.0166	0.3872	0.9951	0.075
Mof_C 	C 	0.0603	0.4697	0.0242	0.063
Mof_H 	H 	0.0691	0.4822	0.9978	-0
Mof_C 	C 	0.0659	0.4863	0.1	0.071
Mof_H 	H 	0.0792	0.5109	0.1274	-0.01
Mof_C 	C 	0.0352	0.4322	0.1003	-0.114
Mof_H 	H 	0.0273	0.4202	0.1274	0.083
Mof_C 	C 	0.934	0.2918	0.091	0.107
Mof_C 	C 	0.9089	0.308	0.1223	0.069
Mof_C 	C 	0.9191	0.3674	0.1569	-0.121
Mof_H 	H 	0.9427	0.3987	0.1611	0.085
Mof_C 	C 	0.8947	0.3811	0.1856	0.075
Mof_H 	H 	0.9026	0.4202	0.2102	-0.016
Mof_C 	C 	0.8508	0.284	0.1459	0.069
Mof_H 	H 	0.827	0.2537	0.1418	-0.008
Mof_C 	C 	0.8743	0.2671	0.1166	-0.117
Mof_H 	H 	0.8663	0.2269	0.0924	0.087
Mof_I 	I 	0.64069	0.89181	0.49282	-0.373
Mof_I 	I 	0.60013	0.76702	0.60689	-0.381
Mof_I 	I 	0.26576	0.2281	0.69928	-0.379
Mof_I 	I 	0.36935	0.15868	0.80205	-0.401
Mof_I 	I 	0.39132	0.74713	0.44409	-0.381
Mof_I 	I 	0.47613	0.64393	0.3682	-0.351
Mof_Zn	Zn	0.62165	0.90095	0.56687	1.166
Mof_Zn	Zn	0.41957	0.62392	0.40531	1.165
Mof_Zn	Zn	0.32654	0.13783	0.7256	1.164
Mof_N 	N 	0.81676	0.1724	0.7508	-0.135
Mof_N 	N 	0.77757	0.0448	0.7287	-0.141
Mof_N 	N 	0.76362	0.1837	0.6901	-0.14
Mof_N 	N 	0.87876	0.942	0.8581	-0.272
Mof_N 	N 	0.66541	0.9641	0.61007	-0.272
Mof_N 	N 	0.81449	0.5013	0.7196	-0.271
Mof_C 	C 	0.8071	0.0862	0.7541	0.1
Mof_C 	C 	0.8317	0.0348	0.7907	0.066
Mof_C 	C 	0.8619	0.0766	0.817	-0.128
Mof_H 	H 	0.8674	0.138	0.8123	0.097
Mof_C 	C 	0.8845	0.0281	0.8508	0.078
Mof_H 	H 	0.9051	0.058	0.8698	-0.006
Mof_C 	C 	0.8494	0.9008	0.8325	0.072
Mof_H 	H 	0.8449	0.839	0.8377	-0.011
Mof_C 	C 	0.8249	0.9458	0.7983	-0.13
Mof_H 	H 	0.8038	0.9154	0.7805	0.08
Mof_C 	C 	0.7575	0.096	0.6963	0.089
Mof_C 	C 	0.7252	0.0507	0.6659	0.047
Mof_C 	C 	0.7158	0.9628	0.674	-0.123
Mof_H 	H 	0.7299	0.9309	0.6989	0.091
Mof_C 	C 	0.6858	0.9219	0.6457	0.07
Mof_H 	H 	0.6792	0.8618	0.6517	-0.004
Mof_C 	C 	0.6747	0.0486	0.6022	0.072
Mof_H 	H 	0.6604	0.0784	0.5768	-0.001
Mof_C 	C 	0.7041	0.0951	0.6293	-0.115
Mof_H 	H 	0.7096	0.1557	0.623	0.083
Mof_C 	C 	0.7933	0.2183	0.7188	0.105
Mof_C 	C 	0.8006	0.3168	0.7171	0.054
Mof_C 	C 	0.7741	0.376	0.6937	-0.117
Mof_H 	H 	0.7508	0.3542	0.6762	0.077
Mof_C 	C 	0.7818	0.467	0.6958	0.067
Mof_H 	H 	0.7633	0.5071	0.6798	-0.008
Mof_C 	C 	0.8402	0.444	0.7425	0.061
Mof_H 	H 	0.8633	0.4676	0.7595	-0.013
Mof_C 	C 	0.8344	0.3521	0.7424	-0.114
Mof_H 	H 	0.8531	0.3133	0.7592	0.082
Mof_N 	N 	0.42618	0.2792	0.5638	-0.134
Mof_N 	N 	0.47613	0.23	0.52982	-0.148
Mof_N 	N 	0.46289	0.1504	0.5917	-0.134
Mof_N 	N 	0.43094	0.5173	0.4497	-0.271
Mof_N 	N 	0.57836	0.9933	0.5629	-0.268
Mof_N 	N 	0.3605	0.1583	0.6801	-0.275
Mof_C 	C 	0.4482	0.2869	0.5347	0.096
Mof_C 	C 	0.442	0.3668	0.5047	0.051
Mof_C 	C 	0.4099	0.4186	0.5004	-0.121
Mof_H 	H 	0.3907	0.4033	0.5162	0.081
Mof_C 	C 	0.4055	0.4936	0.473	0.075
Mof_H 	H 	0.3832	0.5294	0.4708	-0.016
Mof_C 	C 	0.4624	0.4655	0.453	0.061
Mof_H 	H 	0.4809	0.4814	0.4363	-0.004
Mof_C 	C 	0.4688	0.3899	0.4801	-0.111
Mof_H 	H 	0.4912	0.3546	0.4817	0.071
Mof_C 	C 	0.4828	0.1654	0.5604	0.097
Mof_C 	C 	0.5156	0.1054	0.5606	0.043
Mof_C 	C 	0.5289	0.0869	0.5226	-0.107
Mof_H 	H 	0.5166	0.1128	0.4951	0.075
Mof_C 	C 	0.5603	0.0303	0.5242	0.063
Mof_H 	H 	0.5691	0.0178	0.4978	-0
Mof_C 	C 	0.5659	0.0137	0.6	0.071
Mof_H 	H 	0.5792	0.9891	0.6274	-0.01
Mof_C 	C 	0.5352	0.0678	0.6003	-0.114
Mof_H 	H 	0.5273	0.0798	0.6274	0.084
Mof_C 	C 	0.434	0.2082	0.591	0.107
Mof_C 	C 	0.4089	0.192	0.6223	0.069
Mof_C 	C 	0.4191	0.1326	0.6569	-0.121
Mof_H 	H 	0.4427	0.1013	0.6611	0.085
Mof_C 	C 	0.3947	0.1189	0.6856	0.075
Mof_H 	H 	0.4026	0.0798	0.7102	-0.016
Mof_C 	C 	0.3508	0.216	0.6459	0.069
Mof_H 	H 	0.327	0.2463	0.6418	-0.008
Mof_C 	C 	0.3743	0.2329	0.6166	-0.117
Mof_H 	H 	0.3663	0.2731	0.5924	0.087
Mof_I 	I 	0.14069	0.39181	0.49282	-0.372
Mof_I 	I 	0.10013	0.26702	0.60689	-0.381
Mof_I 	I 	0.76576	0.7281	0.69928	-0.379
Mof_I 	I 	0.86935	0.65868	0.80205	-0.401
Mof_I 	I 	0.89132	0.24713	0.44409	-0.381
Mof_I 	I 	0.97613	0.14393	0.3682	-0.351
Mof_Zn	Zn	0.12165	0.40095	0.56687	1.166
Mof_Zn	Zn	0.91957	0.12392	0.40531	1.165
Mof_Zn	Zn	0.82654	0.63783	0.7256	1.164
Mof_N 	N 	0.31676	0.6724	0.7508	-0.135
Mof_N 	N 	0.27757	0.5448	0.7287	-0.141
Mof_N 	N 	0.26362	0.6837	0.6901	-0.14
Mof_N 	N 	0.37876	0.442	0.8581	-0.272
Mof_N 	N 	0.16541	0.4641	0.61007	-0.272
Mof_N 	N 	0.31449	0.0013	0.7196	-0.27
Mof_C 	C 	0.3071	0.5862	0.7541	0.1
Mof_C 	C 	0.3317	0.5348	0.7907	0.065
Mof_C 	C 	0.3619	0.5766	0.817	-0.128
Mof_H 	H 	0.3674	0.638	0.8123	0.097
Mof_C 	C 	0.3845	0.5281	0.8508	0.078
Mof_H 	H 	0.4051	0.558	0.8698	-0.006
Mof_C 	C 	0.3494	0.4008	0.8325	0.072
Mof_H 	H 	0.3449	0.339	0.8377	-0.011
Mof_C 	C 	0.3249	0.4458	0.7983	-0.13
Mof_H 	H 	0.3038	0.4154	0.7805	0.08
Mof_C 	C 	0.2575	0.596	0.6963	0.089
Mof_C 	C 	0.2252	0.5507	0.6659	0.047
Mof_C 	C 	0.2158	0.4628	0.674	-0.123
Mof_H 	H 	0.2299	0.4309	0.6989	0.091
Mof_C 	C 	0.1858	0.4219	0.6457	0.07
Mof_H 	H 	0.1792	0.3618	0.6517	-0.004
Mof_C 	C 	0.1747	0.5486	0.6022	0.072
Mof_H 	H 	0.1604	0.5784	0.5768	-0.001
Mof_C 	C 	0.2041	0.5951	0.6293	-0.115
Mof_H 	H 	0.2096	0.6557	0.623	0.083
Mof_C 	C 	0.2933	0.7183	0.7188	0.105
Mof_C 	C 	0.3006	0.8168	0.7171	0.054
Mof_C 	C 	0.2741	0.876	0.6937	-0.117
Mof_H 	H 	0.2508	0.8542	0.6762	0.077
Mof_C 	C 	0.2818	0.967	0.6958	0.067
Mof_H 	H 	0.2633	0.0071	0.6798	-0.008
Mof_C 	C 	0.3402	0.944	0.7425	0.061
Mof_H 	H 	0.3633	0.9676	0.7595	-0.013
Mof_C 	C 	0.3344	0.8521	0.7424	-0.114
Mof_H 	H 	0.3531	0.8133	0.7592	0.082
Mof_N 	N 	0.92618	0.7792	0.5638	-0.134
Mof_N 	N 	0.97613	0.73	0.52982	-0.148
Mof_N 	N 	0.96289	0.6504	0.5917	-0.134
Mof_N 	N 	0.93094	0.0173	0.4497	-0.271
Mof_N 	N 	0.07836	0.4933	0.5629	-0.268
Mof_N 	N 	0.8605	0.6583	0.6801	-0.275
Mof_C 	C 	0.9482	0.7869	0.5347	0.095
Mof_C 	C 	0.942	0.8668	0.5047	0.051
Mof_C 	C 	0.9099	0.9186	0.5004	-0.121
Mof_H 	H 	0.8907	0.9033	0.5162	0.081
Mof_C 	C 	0.9055	0.9936	0.473	0.075
Mof_H 	H 	0.8832	0.0294	0.4708	-0.016
Mof_C 	C 	0.9624	0.9655	0.453	0.061
Mof_H 	H 	0.9809	0.9814	0.4363	-0.004
Mof_C 	C 	0.9688	0.8899	0.4801	-0.111
Mof_H 	H 	0.9912	0.8546	0.4817	0.071
Mof_C 	C 	0.9828	0.6654	0.5604	0.097
Mof_C 	C 	0.0156	0.6054	0.5606	0.043
Mof_C 	C 	0.0289	0.5869	0.5226	-0.107
Mof_H 	H 	0.0166	0.6128	0.4951	0.075
Mof_C 	C 	0.0603	0.5303	0.5242	0.063
Mof_H 	H 	0.0691	0.5178	0.4978	-0
Mof_C 	C 	0.0659	0.5137	0.6	0.071
Mof_H 	H 	0.0792	0.4891	0.6274	-0.01
Mof_C 	C 	0.0352	0.5678	0.6003	-0.114
Mof_H 	H 	0.0273	0.5798	0.6274	0.084
Mof_C 	C 	0.934	0.7082	0.591	0.107
Mof_C 	C 	0.9089	0.692	0.6223	0.069
Mof_C 	C 	0.9191	0.6326	0.6569	-0.121
Mof_H 	H 	0.9427	0.6013	0.6611	0.085
Mof_C 	C 	0.8947	0.6189	0.6856	0.075
Mof_H 	H 	0.9026	0.5798	0.7102	-0.016
Mof_C 	C 	0.8508	0.716	0.6459	0.069
Mof_H 	H 	0.827	0.7463	0.6418	-0.008
Mof_C 	C 	0.8743	0.7329	0.6166	-0.117
Mof_H 	H 	0.8663	0.7731	0.5924	0.087
Mof_I 	I 	0.35931	0.10819	0.50718	-0.373
Mof_I 	I 	0.39987	0.23298	0.39311	-0.381
Mof_I 	I 	0.73424	0.7719	0.30072	-0.379
Mof_I 	I 	0.63065	0.84132	0.19795	-0.401
Mof_I 	I 	0.60868	0.25287	0.55591	-0.381
Mof_I 	I 	0.52387	0.35607	0.6318	-0.351
Mof_Zn	Zn	0.37835	0.09905	0.43313	1.166
Mof_Zn	Zn	0.58043	0.37608	0.59469	1.165
Mof_Zn	Zn	0.67346	0.86217	0.2744	1.164
Mof_N 	N 	0.18324	0.8276	0.2492	-0.135
Mof_N 	N 	0.22243	0.9552	0.2713	-0.141
Mof_N 	N 	0.23638	0.8163	0.3099	-0.14
Mof_N 	N 	0.12124	0.058	0.1419	-0.272
Mof_N 	N 	0.33459	0.0359	0.38993	-0.272
Mof_N 	N 	0.18551	0.4987	0.2804	-0.271
Mof_C 	C 	0.1929	0.9138	0.2459	0.1
Mof_C 	C 	0.1683	0.9652	0.2093	0.066
Mof_C 	C 	0.1381	0.9234	0.183	-0.128
Mof_H 	H 	0.1326	0.862	0.1877	0.097
Mof_C 	C 	0.1155	0.9719	0.1492	0.078
Mof_H 	H 	0.0949	0.942	0.1302	-0.006
Mof_C 	C 	0.1506	0.0992	0.1675	0.072
Mof_H 	H 	0.1551	0.161	0.1623	-0.011
Mof_C 	C 	0.1751	0.0542	0.2017	-0.13
Mof_H 	H 	0.1962	0.0846	0.2195	0.08
Mof_C 	C 	0.2425	0.904	0.3037	0.089
Mof_C 	C 	0.2748	0.9493	0.3341	0.047
Mof_C 	C 	0.2842	0.0372	0.326	-0.123
Mof_H 	H 	0.2701	0.0691	0.3011	0.091
Mof_C 	C 	0.3142	0.0781	0.3543	0.07
Mof_H 	H 	0.3208	0.1382	0.3483	-0.004
Mof_C 	C 	0.3253	0.9514	0.3978	0.072
Mof_H 	H 	0.3396	0.9216	0.4232	-0.001
Mof_C 	C 	0.2959	0.9049	0.3707	-0.115
Mof_H 	H 	0.2904	0.8443	0.377	0.083
Mof_C 	C 	0.2067	0.7817	0.2812	0.105
Mof_C 	C 	0.1994	0.6832	0.2829	0.054
Mof_C 	C 	0.2259	0.624	0.3063	-0.117
Mof_H 	H 	0.2492	0.6458	0.3238	0.077
Mof_C 	C 	0.2182	0.533	0.3042	0.067
Mof_H 	H 	0.2367	0.4929	0.3202	-0.008
Mof_C 	C 	0.1598	0.556	0.2575	0.061
Mof_H 	H 	0.1367	0.5324	0.2405	-0.013
Mof_C 	C 	0.1656	0.6479	0.2576	-0.114
Mof_H 	H 	0.1469	0.6867	0.2408	0.082
Mof_N 	N 	0.57382	0.7208	0.4362	-0.134
Mof_N 	N 	0.52387	0.77	0.47018	-0.148
Mof_N 	N 	0.53711	0.8496	0.4083	-0.134
Mof_N 	N 	0.56906	0.4827	0.5503	-0.271
Mof_N 	N 	0.42164	0.0067	0.4371	-0.268
Mof_N 	N 	0.6395	0.8417	0.3199	-0.275
Mof_C 	C 	0.5518	0.7131	0.4653	0.096
Mof_C 	C 	0.558	0.6332	0.4953	0.051
Mof_C 	C 	0.5901	0.5814	0.4996	-0.121
Mof_H 	H 	0.6093	0.5967	0.4838	0.081
Mof_C 	C 	0.5945	0.5064	0.527	0.075
Mof_H 	H 	0.6168	0.4706	0.5292	-0.016
Mof_C 	C 	0.5376	0.5345	0.547	0.061
Mof_H 	H 	0.5191	0.5186	0.5637	-0.004
Mof_C 	C 	0.5312	0.6101	0.5199	-0.111
Mof_H 	H 	0.5088	0.6454	0.5183	0.071
Mof_C 	C 	0.5172	0.8346	0.4396	0.097
Mof_C 	C 	0.4844	0.8946	0.4394	0.043
Mof_C 	C 	0.4711	0.9131	0.4774	-0.107
Mof_H 	H 	0.4834	0.8872	0.5049	0.075
Mof_C 	C 	0.4397	0.9697	0.4758	0.063
Mof_H 	H 	0.4309	0.9822	0.5022	-0
Mof_C 	C 	0.4341	0.9863	0.4	0.071
Mof_H 	H 	0.4208	0.0109	0.3726	-0.01
Mof_C 	C 	0.4648	0.9322	0.3997	-0.114
Mof_H 	H 	0.4727	0.9202	0.3726	0.084
Mof_C 	C 	0.566	0.7918	0.409	0.107
Mof_C 	C 	0.5911	0.808	0.3777	0.069
Mof_C 	C 	0.5809	0.8674	0.3431	-0.121
Mof_H 	H 	0.5573	0.8987	0.3389	0.085
Mof_C 	C 	0.6053	0.8811	0.3144	0.075
Mof_H 	H 	0.5974	0.9202	0.2898	-0.016
Mof_C 	C 	0.6492	0.784	0.3541	0.069
Mof_H 	H 	0.673	0.7537	0.3582	-0.008
Mof_C 	C 	0.6257	0.7671	0.3834	-0.117
Mof_H 	H 	0.6337	0.7269	0.4076	0.087
Mof_I 	I 	0.85931	0.60819	0.50718	-0.372
Mof_I 	I 	0.89987	0.73298	0.39311	-0.381
Mof_I 	I 	0.23424	0.2719	0.30072	-0.379
Mof_I 	I 	0.13065	0.34132	0.19795	-0.401
Mof_I 	I 	0.10868	0.75287	0.55591	-0.381
Mof_I 	I 	0.02387	0.85607	0.6318	-0.351
Mof_Zn	Zn	0.87835	0.59905	0.43313	1.166
Mof_Zn	Zn	0.08043	0.87608	0.59469	1.165
Mof_Zn	Zn	0.17346	0.36217	0.2744	1.164
Mof_N 	N 	0.68324	0.3276	0.2492	-0.135
Mof_N 	N 	0.72243	0.4552	0.2713	-0.141
Mof_N 	N 	0.73638	0.3163	0.3099	-0.14
Mof_N 	N 	0.62124	0.558	0.1419	-0.272
Mof_N 	N 	0.83459	0.5359	0.38993	-0.272
Mof_N 	N 	0.68551	0.9987	0.2804	-0.27
Mof_C 	C 	0.6929	0.4138	0.2459	0.1
Mof_C 	C 	0.6683	0.4652	0.2093	0.065
Mof_C 	C 	0.6381	0.4234	0.183	-0.128
Mof_H 	H 	0.6326	0.362	0.1877	0.097
Mof_C 	C 	0.6155	0.4719	0.1492	0.078
Mof_H 	H 	0.5949	0.442	0.1302	-0.006
Mof_C 	C 	0.6506	0.5992	0.1675	0.072
Mof_H 	H 	0.6551	0.661	0.1623	-0.011
Mof_C 	C 	0.6751	0.5542	0.2017	-0.13
Mof_H 	H 	0.6962	0.5846	0.2195	0.08
Mof_C 	C 	0.7425	0.404	0.3037	0.089
Mof_C 	C 	0.7748	0.4493	0.3341	0.047
Mof_C 	C 	0.7842	0.5372	0.326	-0.123
Mof_H 	H 	0.7701	0.5691	0.3011	0.091
Mof_C 	C 	0.8142	0.5781	0.3543	0.07
Mof_H 	H 	0.8208	0.6382	0.3483	-0.004
Mof_C 	C 	0.8253	0.4514	0.3978	0.072
Mof_H 	H 	0.8396	0.4216	0.4232	-0.001
Mof_C 	C 	0.7959	0.4049	0.3707	-0.115
Mof_H 	H 	0.7904	0.3443	0.377	0.083
Mof_C 	C 	0.7067	0.2817	0.2812	0.105
Mof_C 	C 	0.6994	0.1832	0.2829	0.054
Mof_C 	C 	0.7259	0.124	0.3063	-0.117
Mof_H 	H 	0.7492	0.1458	0.3238	0.077
Mof_C 	C 	0.7182	0.033	0.3042	0.067
Mof_H 	H 	0.7367	0.9929	0.3202	-0.008
Mof_C 	C 	0.6598	0.056	0.2575	0.061
Mof_H 	H 	0.6367	0.0324	0.2405	-0.013
Mof_C 	C 	0.6656	0.1479	0.2576	-0.114
Mof_H 	H 	0.6469	0.1867	0.2408	0.082
Mof_N 	N 	0.07382	0.2208	0.4362	-0.134
Mof_N 	N 	0.02387	0.27	0.47018	-0.148
Mof_N 	N 	0.03711	0.3496	0.4083	-0.134
Mof_N 	N 	0.06906	0.9827	0.5503	-0.271
Mof_N 	N 	0.92164	0.5067	0.4371	-0.268
Mof_N 	N 	0.1395	0.3417	0.3199	-0.275
Mof_C 	C 	0.0518	0.2131	0.4653	0.095
Mof_C 	C 	0.058	0.1332	0.4953	0.051
Mof_C 	C 	0.0901	0.0814	0.4996	-0.121
Mof_H 	H 	0.1093	0.0967	0.4838	0.081
Mof_C 	C 	0.0945	0.0064	0.527	0.075
Mof_H 	H 	0.1168	0.9706	0.5292	-0.016
Mof_C 	C 	0.0376	0.0345	0.547	0.061
Mof_H 	H 	0.0191	0.0186	0.5637	-0.004
Mof_C 	C 	0.0312	0.1101	0.5199	-0.111
Mof_H 	H 	0.0088	0.1454	0.5183	0.071
Mof_C 	C 	0.0172	0.3346	0.4396	0.097
Mof_C 	C 	0.9844	0.3946	0.4394	0.043
Mof_C 	C 	0.9711	0.4131	0.4774	-0.107
Mof_H 	H 	0.9834	0.3872	0.5049	0.075
Mof_C 	C 	0.9397	0.4697	0.4758	0.063
Mof_H 	H 	0.9309	0.4822	0.5022	-0
Mof_C 	C 	0.9341	0.4863	0.4	0.071
Mof_H 	H 	0.9208	0.5109	0.3726	-0.01
Mof_C 	C 	0.9648	0.4322	0.3997	-0.114
Mof_H 	H 	0.9727	0.4202	0.3726	0.084
Mof_C 	C 	0.066	0.2918	0.409	0.107
Mof_C 	C 	0.0911	0.308	0.3777	0.069
Mof_C 	C 	0.0809	0.3674	0.3431	-0.121
Mof_H 	H 	0.0573	0.3987	0.3389	0.085
Mof_C 	C 	0.1053	0.3811	0.3144	0.075
Mof_H 	H 	0.0974	0.4202	0.2898	-0.016
Mof_C 	C 	0.1492	0.284	0.3541	0.069
Mof_H 	H 	0.173	0.2537	0.3582	-0.008
Mof_C 	C 	0.1257	0.2671	0.3834	-0.117
Mof_H 	H 	0.1337	0.2269	0.4076	0.087
Mof_I 	I 	0.35931	0.89181	0.00718	-0.373
Mof_I 	I 	0.39987	0.76702	0.89311	-0.381
Mof_I 	I 	0.73424	0.2281	0.80072	-0.379
Mof_I 	I 	0.63065	0.15868	0.69795	-0.401
Mof_I 	I 	0.60868	0.74713	0.05591	-0.381
Mof_I 	I 	0.52387	0.64393	0.1318	-0.351
Mof_Zn	Zn	0.37835	0.90095	0.93313	1.166
Mof_Zn	Zn	0.58043	0.62392	0.09469	1.165
Mof_Zn	Zn	0.67346	0.13783	0.7744	1.164
Mof_N 	N 	0.18324	0.1724	0.7492	-0.135
Mof_N 	N 	0.22243	0.0448	0.7713	-0.141
Mof_N 	N 	0.23638	0.1837	0.8099	-0.14
Mof_N 	N 	0.12124	0.942	0.6419	-0.272
Mof_N 	N 	0.33459	0.9641	0.88993	-0.272
Mof_N 	N 	0.18551	0.5013	0.7804	-0.271
Mof_C 	C 	0.1929	0.0862	0.7459	0.1
Mof_C 	C 	0.1683	0.0348	0.7093	0.065
Mof_C 	C 	0.1381	0.0766	0.683	-0.128
Mof_H 	H 	0.1326	0.138	0.6877	0.097
Mof_C 	C 	0.1155	0.0281	0.6492	0.078
Mof_H 	H 	0.0949	0.058	0.6302	-0.006
Mof_C 	C 	0.1506	0.9008	0.6675	0.072
Mof_H 	H 	0.1551	0.839	0.6623	-0.011
Mof_C 	C 	0.1751	0.9458	0.7017	-0.13
Mof_H 	H 	0.1962	0.9154	0.7195	0.08
Mof_C 	C 	0.2425	0.096	0.8037	0.089
Mof_C 	C 	0.2748	0.0507	0.8341	0.048
Mof_C 	C 	0.2842	0.9628	0.826	-0.123
Mof_H 	H 	0.2701	0.9309	0.8011	0.091
Mof_C 	C 	0.3142	0.9219	0.8543	0.07
Mof_H 	H 	0.3208	0.8618	0.8483	-0.004
Mof_C 	C 	0.3253	0.0486	0.8978	0.072
Mof_H 	H 	0.3396	0.0784	0.9232	-0.001
Mof_C 	C 	0.2959	0.0951	0.8707	-0.116
Mof_H 	H 	0.2904	0.1557	0.877	0.083
Mof_C 	C 	0.2067	0.2183	0.7812	0.105
Mof_C 	C 	0.1994	0.3168	0.7829	0.054
Mof_C 	C 	0.2259	0.376	0.8063	-0.117
Mof_H 	H 	0.2492	0.3542	0.8238	0.077
Mof_C 	C 	0.2182	0.467	0.8042	0.067
Mof_H 	H 	0.2367	0.5071	0.8202	-0.008
Mof_C 	C 	0.1598	0.444	0.7575	0.061
Mof_H 	H 	0.1367	0.4676	0.7405	-0.013
Mof_C 	C 	0.1656	0.3521	0.7576	-0.114
Mof_H 	H 	0.1469	0.3133	0.7408	0.082
Mof_N 	N 	0.57382	0.2792	0.9362	-0.134
Mof_N 	N 	0.52387	0.23	0.97018	-0.148
Mof_N 	N 	0.53711	0.1504	0.9083	-0.134
Mof_N 	N 	0.56906	0.5173	0.0503	-0.271
Mof_N 	N 	0.42164	0.9933	0.9371	-0.268
Mof_N 	N 	0.6395	0.1583	0.8199	-0.275
Mof_C 	C 	0.5518	0.2869	0.9653	0.095
Mof_C 	C 	0.558	0.3668	0.9953	0.051
Mof_C 	C 	0.5901	0.4186	0.9996	-0.121
Mof_H 	H 	0.6093	0.4033	0.9838	0.081
Mof_C 	C 	0.5945	0.4936	0.027	0.075
Mof_H 	H 	0.6168	0.5294	0.0292	-0.017
Mof_C 	C 	0.5376	0.4655	0.047	0.061
Mof_H 	H 	0.5191	0.4814	0.0637	-0.004
Mof_C 	C 	0.5312	0.3899	0.0199	-0.112
Mof_H 	H 	0.5088	0.3546	0.0183	0.071
Mof_C 	C 	0.5172	0.1654	0.9396	0.097
Mof_C 	C 	0.4844	0.1054	0.9394	0.043
Mof_C 	C 	0.4711	0.0869	0.9774	-0.107
Mof_H 	H 	0.4834	0.1128	0.0049	0.075
Mof_C 	C 	0.4397	0.0303	0.9758	0.063
Mof_H 	H 	0.4309	0.0178	0.0022	-0.001
Mof_C 	C 	0.4341	0.0137	0.9	0.071
Mof_H 	H 	0.4208	0.9891	0.8726	-0.01
Mof_C 	C 	0.4648	0.0678	0.8997	-0.114
Mof_H 	H 	0.4727	0.0798	0.8726	0.084
Mof_C 	C 	0.566	0.2082	0.909	0.107
Mof_C 	C 	0.5911	0.192	0.8777	0.069
Mof_C 	C 	0.5809	0.1326	0.8431	-0.121
Mof_H 	H 	0.5573	0.1013	0.8389	0.085
Mof_C 	C 	0.6053	0.1189	0.8144	0.075
Mof_H 	H 	0.5974	0.0798	0.7898	-0.016
Mof_C 	C 	0.6492	0.216	0.8541	0.069
Mof_H 	H 	0.673	0.2463	0.8582	-0.008
Mof_C 	C 	0.6257	0.2329	0.8834	-0.117
Mof_H 	H 	0.6337	0.2731	0.9076	0.087
Mof_I 	I 	0.85931	0.39181	0.00718	-0.373
Mof_I 	I 	0.89987	0.26702	0.89311	-0.381
Mof_I 	I 	0.23424	0.7281	0.80072	-0.379
Mof_I 	I 	0.13065	0.65868	0.69795	-0.401
Mof_I 	I 	0.10868	0.24713	0.05591	-0.381
Mof_I 	I 	0.02387	0.14393	0.1318	-0.351
Mof_Zn	Zn	0.87835	0.40095	0.93313	1.166
Mof_Zn	Zn	0.08043	0.12392	0.09469	1.165
Mof_Zn	Zn	0.17346	0.63783	0.7744	1.164
Mof_N 	N 	0.68324	0.6724	0.7492	-0.135
Mof_N 	N 	0.72243	0.5448	0.7713	-0.141
Mof_N 	N 	0.73638	0.6837	0.8099	-0.14
Mof_N 	N 	0.62124	0.442	0.6419	-0.272
Mof_N 	N 	0.83459	0.4641	0.88993	-0.272
Mof_N 	N 	0.68551	0.0013	0.7804	-0.27
Mof_C 	C 	0.6929	0.5862	0.7459	0.1
Mof_C 	C 	0.6683	0.5348	0.7093	0.065
Mof_C 	C 	0.6381	0.5766	0.683	-0.128
Mof_H 	H 	0.6326	0.638	0.6877	0.097
Mof_C 	C 	0.6155	0.5281	0.6492	0.078
Mof_H 	H 	0.5949	0.558	0.6302	-0.006
Mof_C 	C 	0.6506	0.4008	0.6675	0.072
Mof_H 	H 	0.6551	0.339	0.6623	-0.011
Mof_C 	C 	0.6751	0.4458	0.7017	-0.13
Mof_H 	H 	0.6962	0.4154	0.7195	0.08
Mof_C 	C 	0.7425	0.596	0.8037	0.089
Mof_C 	C 	0.7748	0.5507	0.8341	0.047
Mof_C 	C 	0.7842	0.4628	0.826	-0.123
Mof_H 	H 	0.7701	0.4309	0.8011	0.091
Mof_C 	C 	0.8142	0.4219	0.8543	0.07
Mof_H 	H 	0.8208	0.3618	0.8483	-0.004
Mof_C 	C 	0.8253	0.5486	0.8978	0.072
Mof_H 	H 	0.8396	0.5784	0.9232	-0.001
Mof_C 	C 	0.7959	0.5951	0.8707	-0.115
Mof_H 	H 	0.7904	0.6557	0.877	0.083
Mof_C 	C 	0.7067	0.7183	0.7812	0.105
Mof_C 	C 	0.6994	0.8168	0.7829	0.054
Mof_C 	C 	0.7259	0.876	0.8063	-0.117
Mof_H 	H 	0.7492	0.8542	0.8238	0.077
Mof_C 	C 	0.7182	0.967	0.8042	0.067
Mof_H 	H 	0.7367	0.0071	0.8202	-0.008
Mof_C 	C 	0.6598	0.944	0.7575	0.061
Mof_H 	H 	0.6367	0.9676	0.7405	-0.013
Mof_C 	C 	0.6656	0.8521	0.7576	-0.114
Mof_H 	H 	0.6469	0.8133	0.7408	0.082
Mof_N 	N 	0.07382	0.7792	0.9362	-0.134
Mof_N 	N 	0.02387	0.73	0.97018	-0.148
Mof_N 	N 	0.03711	0.6504	0.9083	-0.134
Mof_N 	N 	0.06906	0.0173	0.0503	-0.271
Mof_N 	N 	0.92164	0.4933	0.9371	-0.268
Mof_N 	N 	0.1395	0.6583	0.8199	-0.275
Mof_C 	C 	0.0518	0.7869	0.9653	0.095
Mof_C 	C 	0.058	0.8668	0.9953	0.051
Mof_C 	C 	0.0901	0.9186	0.9996	-0.121
Mof_H 	H 	0.1093	0.9033	0.9838	0.081
Mof_C 	C 	0.0945	0.9936	0.027	0.076
Mof_H 	H 	0.1168	0.0294	0.0292	-0.017
Mof_C 	C 	0.0376	0.9655	0.047	0.061
Mof_H 	H 	0.0191	0.9814	0.0637	-0.004
Mof_C 	C 	0.0312	0.8899	0.0199	-0.112
Mof_H 	H 	0.0088	0.8546	0.0183	0.071
Mof_C 	C 	0.0172	0.6654	0.9396	0.098
Mof_C 	C 	0.9844	0.6054	0.9394	0.043
Mof_C 	C 	0.9711	0.5869	0.9774	-0.107
Mof_H 	H 	0.9834	0.6128	0.0049	0.075
Mof_C 	C 	0.9397	0.5303	0.9758	0.063
Mof_H 	H 	0.9309	0.5178	0.0022	-0
Mof_C 	C 	0.9341	0.5137	0.9	0.071
Mof_H 	H 	0.9208	0.4891	0.8726	-0.01
Mof_C 	C 	0.9648	0.5678	0.8997	-0.114
Mof_H 	H 	0.9727	0.5798	0.8726	0.083
Mof_C 	C 	0.066	0.7082	0.909	0.107
Mof_C 	C 	0.0911	0.692	0.8777	0.069
Mof_C 	C 	0.0809	0.6326	0.8431	-0.121
Mof_H 	H 	0.0573	0.6013	0.8389	0.085
Mof_C 	C 	0.1053	0.6189	0.8144	0.075
Mof_H 	H 	0.0974	0.5798	0.7898	-0.016
Mof_C 	C 	0.1492	0.716	0.8541	0.069
Mof_H 	H 	0.173	0.7463	0.8582	-0.008
Mof_C 	C 	0.1257	0.7329	0.8834	-0.117
Mof_H 	H 	0.1337	0.7731	0.9076	0.087
_end
