data_functionalizedCrystal
_audit_creation_method	'EQeq! by Chris Wilmer'
_symmetry_space_group_name_H-M	'P1'
_symmetry_Int_Tables_number	1
_symmetry_cell_setting	triclinic
loop_
_symmetry_equiv_pos_as_xyz
  x,y,z
_cell_length_a	24.591
_cell_length_b	13.804
_cell_length_c	14.752
_cell_angle_alpha	90
_cell_angle_beta	97.135
_cell_angle_gamma	90
loop_
_atom_site_label
_atom_site_type_symbol
_atom_site_fract_x
_atom_site_fract_y
_atom_site_fract_z
_atom_site_charge
Mof_Ce	Ce	0.16906	0.21131	0.47052	2.294
Mof_O 	O 	0.08331	0.19207	0.5477	-0.498
Mof_O 	O 	0.09818	0.33939	0.50276	-0.483
Mof_O 	O 	0.27416	0.1451	0.54327	-0.659
Mof_O 	O 	0.19978	0.06529	0.5673	-0.528
Mof_O 	O 	0.22329	0.14813	0.34954	-0.588
Mof_O 	O 	0.1982	0.2711	0.62413	-0.569
Mof_C 	C 	0.24966	0.4246	0.42165	0.468
Mof_C 	C 	0.2151	0.498	0.3653	-0.208
Mof_C 	C 	0.16221	0.5185	0.3822	0.068
Mof_C 	C 	0.23778	0.5484	0.2969	0.125
Mof_C 	C 	0.13181	0.5911	0.3336	-0.11
Mof_H 	H 	0.1468	0.4835	0.4265	-0.004
Mof_C 	C 	0.20689	0.616	0.2443	-0.211
Mof_H 	H 	0.2738	0.5364	0.2869	-0.013
Mof_C 	C 	0.07719	0.6225	0.3587	0.12
Mof_C 	C 	0.15436	0.6376	0.2636	0.078
Mof_C 	C 	0.22888	0.6688	0.1665	0.518
Mof_C 	C 	0.04164	0.5574	0.3911	-0.171
Mof_C 	C 	0.06245	0.719	0.3545	-0.175
Mof_H 	H 	0.1339	0.6843	0.229	0.01
Mof_H 	H 	0.0502	0.4918	0.3935	0.084
Mof_C 	C 	0.993	0.5893	0.4202	0.076
Mof_H 	H 	0.0856	0.7638	0.332	0.082
Mof_C 	C 	0.01392	0.7504	0.3831	0.08
Mof_C 	C 	0.97938	0.6858	0.4183	-0.15
Mof_H 	H 	0.9693	0.5445	0.4412	0.009
Mof_H 	H 	0.0046	0.8156	0.3785	-0.003
Mof_C 	C 	0.92922	0.7193	0.4578	0.354
Mof_Ce	Ce	0.66906	0.71131	0.47052	2.295
Mof_O 	O 	0.58331	0.69207	0.5477	-0.497
Mof_O 	O 	0.59818	0.83939	0.50276	-0.482
Mof_O 	O 	0.77416	0.6451	0.54327	-0.659
Mof_O 	O 	0.69978	0.56529	0.5673	-0.528
Mof_O 	O 	0.72329	0.64813	0.34954	-0.588
Mof_O 	O 	0.6982	0.7711	0.62413	-0.568
Mof_C 	C 	0.74966	0.9246	0.42165	0.467
Mof_C 	C 	0.7151	0.998	0.3653	-0.206
Mof_C 	C 	0.66221	0.0185	0.3822	0.066
Mof_C 	C 	0.73778	0.0484	0.2969	0.123
Mof_C 	C 	0.63181	0.0911	0.3336	-0.11
Mof_H 	H 	0.6468	0.9835	0.4265	-0.004
Mof_C 	C 	0.70689	0.116	0.2443	-0.211
Mof_H 	H 	0.7738	0.0364	0.2869	-0.013
Mof_C 	C 	0.57719	0.1225	0.3587	0.121
Mof_C 	C 	0.65436	0.1376	0.2636	0.077
Mof_C 	C 	0.72888	0.1688	0.1665	0.518
Mof_C 	C 	0.54164	0.0574	0.3911	-0.173
Mof_C 	C 	0.56245	0.219	0.3545	-0.175
Mof_H 	H 	0.6339	0.1843	0.229	0.01
Mof_H 	H 	0.5502	0.9918	0.3935	0.085
Mof_C 	C 	0.493	0.0893	0.4202	0.077
Mof_H 	H 	0.5856	0.2638	0.332	0.082
Mof_C 	C 	0.51392	0.2504	0.3831	0.08
Mof_C 	C 	0.47938	0.1858	0.4183	-0.15
Mof_H 	H 	0.4693	0.0445	0.4412	0.009
Mof_H 	H 	0.5046	0.3156	0.3785	-0.003
Mof_C 	C 	0.42922	0.2193	0.4578	0.354
Mof_Ce	Ce	0.83094	0.21131	0.02948	2.286
Mof_O 	O 	0.91669	0.19207	0.9523	-0.494
Mof_O 	O 	0.90182	0.33939	0.99724	-0.479
Mof_O 	O 	0.72584	0.1451	0.95673	-0.657
Mof_O 	O 	0.80022	0.06529	0.9327	-0.525
Mof_O 	O 	0.77671	0.14813	0.15046	-0.588
Mof_O 	O 	0.8018	0.2711	0.87587	-0.567
Mof_C 	C 	0.75034	0.4246	0.07835	0.468
Mof_C 	C 	0.7849	0.498	0.1347	-0.208
Mof_C 	C 	0.83779	0.5185	0.1178	0.069
Mof_C 	C 	0.76222	0.5484	0.2031	0.125
Mof_C 	C 	0.86819	0.5911	0.1664	-0.111
Mof_H 	H 	0.8532	0.4835	0.0735	-0.005
Mof_C 	C 	0.79311	0.616	0.2557	-0.212
Mof_H 	H 	0.7262	0.5364	0.2131	-0.013
Mof_C 	C 	0.92281	0.6225	0.1413	0.121
Mof_C 	C 	0.84564	0.6376	0.2364	0.078
Mof_C 	C 	0.77112	0.6688	0.3335	0.519
Mof_C 	C 	0.95836	0.5574	0.1089	-0.174
Mof_C 	C 	0.93755	0.719	0.1455	-0.174
Mof_H 	H 	0.8661	0.6843	0.271	0.01
Mof_H 	H 	0.9498	0.4918	0.1065	0.084
Mof_C 	C 	0.007	0.5893	0.0798	0.078
Mof_H 	H 	0.9144	0.7638	0.168	0.082
Mof_C 	C 	0.98608	0.7504	0.1169	0.077
Mof_C 	C 	0.02062	0.6858	0.0817	-0.148
Mof_H 	H 	0.0307	0.5445	0.0588	0.009
Mof_H 	H 	0.9954	0.8156	0.1215	-0.003
Mof_C 	C 	0.07078	0.7193	0.0422	0.353
Mof_Ce	Ce	0.33094	0.71131	0.02948	2.302
Mof_O 	O 	0.41669	0.69207	0.9523	-0.497
Mof_O 	O 	0.40182	0.83939	0.99724	-0.484
Mof_O 	O 	0.22584	0.6451	0.95673	-0.659
Mof_O 	O 	0.30022	0.56529	0.9327	-0.528
Mof_O 	O 	0.27671	0.64813	0.15046	-0.589
Mof_O 	O 	0.3018	0.7711	0.87587	-0.57
Mof_C 	C 	0.25034	0.9246	0.07835	0.466
Mof_C 	C 	0.2849	0.998	0.1347	-0.201
Mof_C 	C 	0.33779	0.0185	0.1178	0.06
Mof_C 	C 	0.26222	0.0484	0.2031	0.12
Mof_C 	C 	0.36819	0.0911	0.1664	-0.107
Mof_H 	H 	0.3532	0.9835	0.0735	-0
Mof_C 	C 	0.29311	0.116	0.2557	-0.209
Mof_H 	H 	0.2262	0.0364	0.2131	-0.012
Mof_C 	C 	0.42281	0.1225	0.1413	0.121
Mof_C 	C 	0.34564	0.1376	0.2364	0.075
Mof_C 	C 	0.27112	0.1688	0.3335	0.518
Mof_C 	C 	0.45836	0.0574	0.1089	-0.176
Mof_C 	C 	0.43755	0.219	0.1455	-0.175
Mof_H 	H 	0.3661	0.1843	0.271	0.011
Mof_H 	H 	0.4498	0.9918	0.1065	0.087
Mof_C 	C 	0.507	0.0893	0.0798	0.079
Mof_H 	H 	0.4144	0.2638	0.168	0.083
Mof_C 	C 	0.48608	0.2504	0.1169	0.081
Mof_C 	C 	0.52062	0.1858	0.0817	-0.151
Mof_H 	H 	0.5307	0.0445	0.0588	0.008
Mof_H 	H 	0.4954	0.3156	0.1215	-0.003
Mof_C 	C 	0.57078	0.2193	0.0422	0.354
Mof_Ce	Ce	0.83094	0.78869	0.52948	2.295
Mof_O 	O 	0.91669	0.80793	0.4523	-0.497
Mof_O 	O 	0.90182	0.66061	0.49724	-0.482
Mof_O 	O 	0.72584	0.8549	0.45673	-0.658
Mof_O 	O 	0.80022	0.93471	0.4327	-0.528
Mof_O 	O 	0.77671	0.85187	0.65046	-0.588
Mof_O 	O 	0.8018	0.7289	0.37587	-0.569
Mof_C 	C 	0.75034	0.5754	0.57835	0.468
Mof_C 	C 	0.7849	0.502	0.6347	-0.208
Mof_C 	C 	0.83779	0.4815	0.6178	0.068
Mof_C 	C 	0.76222	0.4516	0.7031	0.125
Mof_C 	C 	0.86819	0.4089	0.6664	-0.11
Mof_H 	H 	0.8532	0.5165	0.5735	-0.004
Mof_C 	C 	0.79311	0.384	0.7557	-0.211
Mof_H 	H 	0.7262	0.4636	0.7131	-0.013
Mof_C 	C 	0.92281	0.3775	0.6413	0.12
Mof_C 	C 	0.84564	0.3624	0.7364	0.078
Mof_C 	C 	0.77112	0.3312	0.8335	0.518
Mof_C 	C 	0.95836	0.4426	0.6089	-0.171
Mof_C 	C 	0.93755	0.281	0.6455	-0.175
Mof_H 	H 	0.8661	0.3157	0.771	0.01
Mof_H 	H 	0.9498	0.5082	0.6065	0.084
Mof_C 	C 	0.007	0.4107	0.5798	0.076
Mof_H 	H 	0.9144	0.2362	0.668	0.082
Mof_C 	C 	0.98608	0.2496	0.6169	0.08
Mof_C 	C 	0.02062	0.3142	0.5817	-0.15
Mof_H 	H 	0.0307	0.4555	0.5588	0.009
Mof_H 	H 	0.9954	0.1844	0.6215	-0.003
Mof_C 	C 	0.07078	0.2807	0.5422	0.354
Mof_Ce	Ce	0.33094	0.28869	0.52948	2.295
Mof_O 	O 	0.41669	0.30793	0.4523	-0.497
Mof_O 	O 	0.40182	0.16061	0.49724	-0.482
Mof_O 	O 	0.22584	0.3549	0.45673	-0.659
Mof_O 	O 	0.30022	0.43471	0.4327	-0.528
Mof_O 	O 	0.27671	0.35187	0.65046	-0.588
Mof_O 	O 	0.3018	0.2289	0.37587	-0.568
Mof_C 	C 	0.25034	0.0754	0.57835	0.467
Mof_C 	C 	0.2849	0.002	0.6347	-0.206
Mof_C 	C 	0.33779	0.9815	0.6178	0.066
Mof_C 	C 	0.26222	0.9516	0.7031	0.123
Mof_C 	C 	0.36819	0.9089	0.6664	-0.11
Mof_H 	H 	0.3532	0.0165	0.5735	-0.004
Mof_C 	C 	0.29311	0.884	0.7557	-0.211
Mof_H 	H 	0.2262	0.9636	0.7131	-0.013
Mof_C 	C 	0.42281	0.8775	0.6413	0.121
Mof_C 	C 	0.34564	0.8624	0.7364	0.077
Mof_C 	C 	0.27112	0.8312	0.8335	0.518
Mof_C 	C 	0.45836	0.9426	0.6089	-0.173
Mof_C 	C 	0.43755	0.781	0.6455	-0.175
Mof_H 	H 	0.3661	0.8157	0.771	0.01
Mof_H 	H 	0.4498	0.0082	0.6065	0.085
Mof_C 	C 	0.507	0.9107	0.5798	0.077
Mof_H 	H 	0.4144	0.7362	0.668	0.082
Mof_C 	C 	0.48608	0.7496	0.6169	0.08
Mof_C 	C 	0.52062	0.8142	0.5817	-0.15
Mof_H 	H 	0.5307	0.9555	0.5588	0.009
Mof_H 	H 	0.4954	0.6844	0.6215	-0.003
Mof_C 	C 	0.57078	0.7807	0.5422	0.354
Mof_Ce	Ce	0.16906	0.78869	0.97052	2.286
Mof_O 	O 	0.08331	0.80793	0.0477	-0.494
Mof_O 	O 	0.09818	0.66061	0.00276	-0.479
Mof_O 	O 	0.27416	0.8549	0.04327	-0.657
Mof_O 	O 	0.19978	0.93471	0.0673	-0.525
Mof_O 	O 	0.22329	0.85187	0.84954	-0.588
Mof_O 	O 	0.1982	0.7289	0.12413	-0.567
Mof_C 	C 	0.24966	0.5754	0.92165	0.468
Mof_C 	C 	0.2151	0.502	0.8653	-0.208
Mof_C 	C 	0.16221	0.4815	0.8822	0.069
Mof_C 	C 	0.23778	0.4516	0.7969	0.125
Mof_C 	C 	0.13181	0.4089	0.8336	-0.111
Mof_H 	H 	0.1468	0.5165	0.9265	-0.005
Mof_C 	C 	0.20689	0.384	0.7443	-0.212
Mof_H 	H 	0.2738	0.4636	0.7869	-0.013
Mof_C 	C 	0.07719	0.3775	0.8587	0.121
Mof_C 	C 	0.15436	0.3624	0.7636	0.078
Mof_C 	C 	0.22888	0.3312	0.6665	0.519
Mof_C 	C 	0.04164	0.4426	0.8911	-0.174
Mof_C 	C 	0.06245	0.281	0.8545	-0.174
Mof_H 	H 	0.1339	0.3157	0.729	0.01
Mof_H 	H 	0.0502	0.5082	0.8935	0.084
Mof_C 	C 	0.993	0.4107	0.9202	0.078
Mof_H 	H 	0.0856	0.2362	0.832	0.082
Mof_C 	C 	0.01392	0.2496	0.8831	0.077
Mof_C 	C 	0.97938	0.3142	0.9183	-0.148
Mof_H 	H 	0.9693	0.4555	0.9412	0.009
Mof_H 	H 	0.0046	0.1844	0.8785	-0.003
Mof_C 	C 	0.92922	0.2807	0.9578	0.353
Mof_Ce	Ce	0.66906	0.28869	0.97052	2.302
Mof_O 	O 	0.58331	0.30793	0.0477	-0.497
Mof_O 	O 	0.59818	0.16061	0.00276	-0.484
Mof_O 	O 	0.77416	0.3549	0.04327	-0.659
Mof_O 	O 	0.69978	0.43471	0.0673	-0.528
Mof_O 	O 	0.72329	0.35187	0.84954	-0.589
Mof_O 	O 	0.6982	0.2289	0.12413	-0.57
Mof_C 	C 	0.74966	0.0754	0.92165	0.466
Mof_C 	C 	0.7151	0.002	0.8653	-0.201
Mof_C 	C 	0.66221	0.9815	0.8822	0.06
Mof_C 	C 	0.73778	0.9516	0.7969	0.12
Mof_C 	C 	0.63181	0.9089	0.8336	-0.107
Mof_H 	H 	0.6468	0.0165	0.9265	-0
Mof_C 	C 	0.70689	0.884	0.7443	-0.209
Mof_H 	H 	0.7738	0.9636	0.7869	-0.012
Mof_C 	C 	0.57719	0.8775	0.8587	0.121
Mof_C 	C 	0.65436	0.8624	0.7636	0.075
Mof_C 	C 	0.72888	0.8312	0.6665	0.518
Mof_C 	C 	0.54164	0.9426	0.8911	-0.176
Mof_C 	C 	0.56245	0.781	0.8545	-0.175
Mof_H 	H 	0.6339	0.8157	0.729	0.011
Mof_H 	H 	0.5502	0.0082	0.8935	0.087
Mof_C 	C 	0.493	0.9107	0.9202	0.079
Mof_H 	H 	0.5856	0.7362	0.832	0.083
Mof_C 	C 	0.51392	0.7496	0.8831	0.081
Mof_C 	C 	0.47938	0.8142	0.9183	-0.151
Mof_H 	H 	0.4693	0.9555	0.9412	0.008
Mof_H 	H 	0.5046	0.6844	0.8785	-0.003
Mof_C 	C 	0.42922	0.7807	0.9578	0.354
_end
