data_functionalizedCrystal
_audit_creation_method	'EQeq! by Chris Wilmer'
_symmetry_space_group_name_H-M	'P1'
_symmetry_Int_Tables_number	1
_symmetry_cell_setting	triclinic
loop_
_symmetry_equiv_pos_as_xyz
  x,y,z
_cell_length_a	7.0822
_cell_length_b	20.72
_cell_length_c	22.878
_cell_angle_alpha	90
_cell_angle_beta	90
_cell_angle_gamma	90
loop_
_atom_site_label
_atom_site_type_symbol
_atom_site_fract_x
_atom_site_fract_y
_atom_site_fract_z
_atom_site_charge
Mof_Na	Na	0.8264	0.54417	0.95041	2.571
Mof_Na	Na	0.6736	0.95583	0.45041	2.577
Mof_Na	Na	0.8264	0.45583	0.54959	2.574
Mof_Na	Na	0.6736	0.04417	0.04959	2.563
Mof_Na	Na	0.1736	0.45583	0.04959	2.572
Mof_Na	Na	0.3264	0.04417	0.54959	2.578
Mof_Na	Na	0.1736	0.54417	0.45041	2.575
Mof_Na	Na	0.3264	0.95583	0.95041	2.564
Mof_Cd	Cd	0.77942	0.04032	0.9031	0.38
Mof_Cd	Cd	0.72058	0.45968	0.4031	0.377
Mof_Cd	Cd	0.77942	0.95968	0.5969	0.376
Mof_Cd	Cd	0.72058	0.54032	0.0969	0.377
Mof_Cd	Cd	0.22058	0.95968	0.0969	0.38
Mof_Cd	Cd	0.27942	0.54032	0.5969	0.377
Mof_Cd	Cd	0.22058	0.04032	0.4031	0.376
Mof_Cd	Cd	0.27942	0.45968	0.9031	0.377
Mof_H 	H 	0.7809	0.2763	0.8902	0.034
Mof_H 	H 	0.7371	0.2051	0.052	-0.075
Mof_H 	H 	0.7107	0.3084	0.0887	-0
Mof_H 	H 	0.0301	0.9793	0.8048	-0.005
Mof_H 	H 	0.0197	0.0519	0.7858	0.038
Mof_H 	H 	0.5481	0.9523	0.8095	-0.056
Mof_H 	H 	0.7461	0.9186	0.8143	-0.013
Mof_H 	H 	0.7322	0.1034	0.7788	0.067
Mof_H 	H 	0.542	0.0653	0.7845	0.057
Mof_H 	H 	0.7191	0.2237	0.3902	0.033
Mof_H 	H 	0.7629	0.2949	0.552	-0.077
Mof_H 	H 	0.7893	0.1916	0.5887	0.001
Mof_H 	H 	0.4699	0.5207	0.3048	0.001
Mof_H 	H 	0.4803	0.4481	0.2858	0.042
Mof_H 	H 	0.9519	0.5477	0.3095	-0.056
Mof_H 	H 	0.7539	0.5814	0.3143	-0.014
Mof_H 	H 	0.7678	0.3966	0.2788	0.067
Mof_H 	H 	0.958	0.4347	0.2845	0.056
Mof_H 	H 	0.7809	0.7237	0.6098	0.033
Mof_H 	H 	0.7371	0.7949	0.448	-0.077
Mof_H 	H 	0.7107	0.6916	0.4113	0.001
Mof_H 	H 	0.0301	0.0207	0.6952	0.006
Mof_H 	H 	0.0197	0.9481	0.7142	0.045
Mof_H 	H 	0.5481	0.0477	0.6905	-0.056
Mof_H 	H 	0.7461	0.0814	0.6857	-0.015
Mof_H 	H 	0.7322	0.8966	0.7212	0.067
Mof_H 	H 	0.542	0.9347	0.7155	0.056
Mof_H 	H 	0.7191	0.7763	0.1098	0.035
Mof_H 	H 	0.7629	0.7051	0.948	-0.074
Mof_H 	H 	0.7893	0.8084	0.9113	-0.002
Mof_H 	H 	0.4699	0.4793	0.1952	0.001
Mof_H 	H 	0.4803	0.5519	0.2142	0.042
Mof_H 	H 	0.9519	0.4523	0.1905	-0.056
Mof_H 	H 	0.7539	0.4186	0.1857	-0.014
Mof_H 	H 	0.7678	0.6034	0.2212	0.067
Mof_H 	H 	0.958	0.5653	0.2155	0.056
Mof_H 	H 	0.2191	0.7237	0.1098	0.034
Mof_H 	H 	0.2629	0.7949	0.948	-0.075
Mof_H 	H 	0.2893	0.6916	0.9113	-0
Mof_H 	H 	0.9699	0.0207	0.1952	-0.005
Mof_H 	H 	0.9803	0.9481	0.2142	0.038
Mof_H 	H 	0.4519	0.0477	0.1905	-0.056
Mof_H 	H 	0.2539	0.0814	0.1857	-0.013
Mof_H 	H 	0.2678	0.8966	0.2212	0.067
Mof_H 	H 	0.458	0.9347	0.2155	0.057
Mof_H 	H 	0.2809	0.7763	0.6098	0.033
Mof_H 	H 	0.2371	0.7051	0.448	-0.077
Mof_H 	H 	0.2107	0.8084	0.4113	0.001
Mof_H 	H 	0.5301	0.4793	0.6952	0.001
Mof_H 	H 	0.5197	0.5519	0.7142	0.042
Mof_H 	H 	0.0481	0.4523	0.6905	-0.056
Mof_H 	H 	0.2461	0.4186	0.6857	-0.014
Mof_H 	H 	0.2322	0.6034	0.7212	0.067
Mof_H 	H 	0.042	0.5653	0.7155	0.056
Mof_H 	H 	0.2191	0.2763	0.3902	0.033
Mof_H 	H 	0.2629	0.2051	0.552	-0.077
Mof_H 	H 	0.2893	0.3084	0.5887	0.001
Mof_H 	H 	0.9699	0.9793	0.3048	0.006
Mof_H 	H 	0.9803	0.0519	0.2858	0.045
Mof_H 	H 	0.4519	0.9523	0.3095	-0.056
Mof_H 	H 	0.2539	0.9186	0.3143	-0.015
Mof_H 	H 	0.2678	0.1034	0.2788	0.067
Mof_H 	H 	0.458	0.0653	0.2845	0.056
Mof_H 	H 	0.2809	0.2237	0.8902	0.035
Mof_H 	H 	0.2371	0.2949	0.052	-0.074
Mof_H 	H 	0.2107	0.1916	0.0887	-0.002
Mof_H 	H 	0.5301	0.5207	0.8048	0.001
Mof_H 	H 	0.5197	0.4481	0.7858	0.042
Mof_H 	H 	0.0481	0.5477	0.8095	-0.056
Mof_H 	H 	0.2461	0.5814	0.8143	-0.014
Mof_H 	H 	0.2322	0.3966	0.7788	0.067
Mof_H 	H 	0.042	0.4347	0.7845	0.056
Mof_C 	C 	0.7382	0.3562	0.0117	-0.169
Mof_C 	C 	0.7697	0.2829	0.9303	0.061
Mof_C 	C 	0.7694	0.1625	0.9432	0.508
Mof_C 	C 	0.7614	0.3453	0.9512	-0.083
Mof_C 	C 	0.762	0.2298	0.9669	-0.194
Mof_C 	C 	0.7415	0.2402	0.0267	0.059
Mof_C 	C 	0.7274	0.3023	0.0487	-0.064
Mof_C 	C 	0.72	0.4202	0.0414	0.468
Mof_C 	C 	0.9583	0.0103	0.7821	-0.024
Mof_C 	C 	0.676	0.9522	0.7944	0.028
Mof_C 	C 	0.672	0.062	0.7718	-0.096
Mof_C 	C 	0.7618	0.1438	0.5117	-0.166
Mof_C 	C 	0.7303	0.2171	0.4303	0.064
Mof_C 	C 	0.7306	0.3375	0.4432	0.51
Mof_C 	C 	0.7386	0.1547	0.4512	-0.086
Mof_C 	C 	0.738	0.2702	0.4669	-0.2
Mof_C 	C 	0.7585	0.2598	0.5267	0.066
Mof_C 	C 	0.7726	0.1977	0.5487	-0.068
Mof_C 	C 	0.78	0.0798	0.5414	0.467
Mof_C 	C 	0.5417	0.4897	0.2821	-0.038
Mof_C 	C 	0.824	0.5478	0.2944	0.031
Mof_C 	C 	0.828	0.438	0.2718	-0.096
Mof_C 	C 	0.7382	0.6438	0.4883	-0.166
Mof_C 	C 	0.7697	0.7171	0.5697	0.065
Mof_C 	C 	0.7694	0.8375	0.5568	0.511
Mof_C 	C 	0.7614	0.6547	0.5488	-0.086
Mof_C 	C 	0.762	0.7702	0.5331	-0.2
Mof_C 	C 	0.7415	0.7598	0.4733	0.066
Mof_C 	C 	0.7274	0.6977	0.4513	-0.068
Mof_C 	C 	0.72	0.5798	0.4586	0.467
Mof_C 	C 	0.9583	0.9897	0.7179	-0.049
Mof_C 	C 	0.676	0.0478	0.7056	0.033
Mof_C 	C 	0.672	0.938	0.7282	-0.095
Mof_C 	C 	0.7618	0.8562	0.9883	-0.174
Mof_C 	C 	0.7303	0.7829	0.0697	0.058
Mof_C 	C 	0.7306	0.6625	0.0568	0.508
Mof_C 	C 	0.7386	0.8453	0.0488	-0.078
Mof_C 	C 	0.738	0.7298	0.0331	-0.192
Mof_C 	C 	0.7585	0.7402	0.9733	0.056
Mof_C 	C 	0.7726	0.8023	0.9513	-0.061
Mof_C 	C 	0.78	0.9202	0.9586	0.469
Mof_C 	C 	0.5417	0.5103	0.2179	-0.038
Mof_C 	C 	0.824	0.4522	0.2056	0.031
Mof_C 	C 	0.828	0.562	0.2282	-0.096
Mof_C 	C 	0.2618	0.6438	0.9883	-0.169
Mof_C 	C 	0.2303	0.7171	0.0697	0.061
Mof_C 	C 	0.2306	0.8375	0.0568	0.508
Mof_C 	C 	0.2386	0.6547	0.0488	-0.083
Mof_C 	C 	0.238	0.7702	0.0331	-0.194
Mof_C 	C 	0.2585	0.7598	0.9733	0.059
Mof_C 	C 	0.2726	0.6977	0.9513	-0.064
Mof_C 	C 	0.28	0.5798	0.9586	0.468
Mof_C 	C 	0.0417	0.9897	0.2179	-0.024
Mof_C 	C 	0.324	0.0478	0.2056	0.028
Mof_C 	C 	0.328	0.938	0.2282	-0.096
Mof_C 	C 	0.2382	0.8562	0.4883	-0.166
Mof_C 	C 	0.2697	0.7829	0.5697	0.064
Mof_C 	C 	0.2694	0.6625	0.5568	0.51
Mof_C 	C 	0.2614	0.8453	0.5488	-0.086
Mof_C 	C 	0.262	0.7298	0.5331	-0.2
Mof_C 	C 	0.2415	0.7402	0.4733	0.066
Mof_C 	C 	0.2274	0.8023	0.4513	-0.068
Mof_C 	C 	0.22	0.9202	0.4586	0.467
Mof_C 	C 	0.4583	0.5103	0.7179	-0.038
Mof_C 	C 	0.176	0.4522	0.7056	0.031
Mof_C 	C 	0.172	0.562	0.7282	-0.096
Mof_C 	C 	0.2618	0.3562	0.5117	-0.166
Mof_C 	C 	0.2303	0.2829	0.4303	0.065
Mof_C 	C 	0.2306	0.1625	0.4432	0.511
Mof_C 	C 	0.2386	0.3453	0.4512	-0.086
Mof_C 	C 	0.238	0.2298	0.4669	-0.2
Mof_C 	C 	0.2585	0.2402	0.5267	0.066
Mof_C 	C 	0.2726	0.3023	0.5487	-0.068
Mof_C 	C 	0.28	0.4202	0.5414	0.467
Mof_C 	C 	0.0417	0.0103	0.2821	-0.049
Mof_C 	C 	0.324	0.9522	0.2944	0.033
Mof_C 	C 	0.328	0.062	0.2718	-0.095
Mof_C 	C 	0.2382	0.1438	0.0117	-0.174
Mof_C 	C 	0.2697	0.2171	0.9303	0.058
Mof_C 	C 	0.2694	0.3375	0.9432	0.508
Mof_C 	C 	0.2614	0.1547	0.9512	-0.078
Mof_C 	C 	0.262	0.2702	0.9669	-0.192
Mof_C 	C 	0.2415	0.2598	0.0267	0.056
Mof_C 	C 	0.2274	0.1977	0.0487	-0.061
Mof_C 	C 	0.22	0.0798	0.0414	0.469
Mof_C 	C 	0.4583	0.4897	0.7821	-0.038
Mof_C 	C 	0.176	0.5478	0.7944	0.031
Mof_C 	C 	0.172	0.438	0.7718	-0.096
Mof_S 	S 	0.7633	0.40906	0.89904	0.53
Mof_S 	S 	0.7367	0.09094	0.39904	0.531
Mof_S 	S 	0.7633	0.59094	0.60096	0.531
Mof_S 	S 	0.7367	0.90906	0.10096	0.529
Mof_S 	S 	0.2367	0.59094	0.10096	0.53
Mof_S 	S 	0.2633	0.90906	0.60096	0.531
Mof_S 	S 	0.2367	0.40906	0.39904	0.531
Mof_S 	S 	0.2633	0.09094	0.89904	0.529
Mof_N 	N 	0.764	0.0146	0.806	-0.125
Mof_N 	N 	0.736	0.4854	0.306	-0.125
Mof_N 	N 	0.764	0.9854	0.694	-0.125
Mof_N 	N 	0.736	0.5146	0.194	-0.125
Mof_N 	N 	0.236	0.9854	0.194	-0.125
Mof_N 	N 	0.264	0.5146	0.694	-0.125
Mof_N 	N 	0.236	0.0146	0.306	-0.125
Mof_N 	N 	0.264	0.4854	0.806	-0.125
Mof_O 	O 	0.7839	0.1542	0.8897	-0.331
Mof_O 	O 	0.9397	0.4449	0.9045	-0.608
Mof_O 	O 	0.7599	0.1161	0.9784	-0.722
Mof_O 	O 	0.828	0.4642	0.03	-0.894
Mof_O 	O 	0.7365	0.3788	0.8438	-0.294
Mof_O 	O 	0.6092	0.4528	0.9151	-0.555
Mof_O 	O 	0.5949	0.4272	0.0811	-0.486
Mof_O 	O 	0.7161	0.3458	0.3897	-0.331
Mof_O 	O 	0.5603	0.0551	0.4045	-0.609
Mof_O 	O 	0.7401	0.3839	0.4784	-0.726
Mof_O 	O 	0.672	0.0358	0.53	-0.895
Mof_O 	O 	0.7635	0.1212	0.3438	-0.294
Mof_O 	O 	0.8908	0.0472	0.4151	-0.556
Mof_O 	O 	0.9051	0.0728	0.5811	-0.486
Mof_O 	O 	0.7839	0.8458	0.6103	-0.331
Mof_O 	O 	0.9397	0.5551	0.5955	-0.609
Mof_O 	O 	0.7599	0.8839	0.5216	-0.727
Mof_O 	O 	0.828	0.5358	0.47	-0.895
Mof_O 	O 	0.7365	0.6212	0.6562	-0.294
Mof_O 	O 	0.6092	0.5472	0.5849	-0.556
Mof_O 	O 	0.5949	0.5728	0.4189	-0.486
Mof_O 	O 	0.7161	0.6542	0.1103	-0.33
Mof_O 	O 	0.5603	0.9449	0.0955	-0.605
Mof_O 	O 	0.7401	0.6161	0.0216	-0.724
Mof_O 	O 	0.672	0.9642	0.97	-0.896
Mof_O 	O 	0.7635	0.8788	0.1562	-0.293
Mof_O 	O 	0.8908	0.9528	0.0849	-0.552
Mof_O 	O 	0.9051	0.9272	0.9189	-0.487
Mof_O 	O 	0.2161	0.8458	0.1103	-0.331
Mof_O 	O 	0.0603	0.5551	0.0955	-0.608
Mof_O 	O 	0.2401	0.8839	0.0216	-0.722
Mof_O 	O 	0.172	0.5358	0.97	-0.894
Mof_O 	O 	0.2635	0.6212	0.1562	-0.294
Mof_O 	O 	0.3908	0.5472	0.0849	-0.555
Mof_O 	O 	0.4051	0.5728	0.9189	-0.486
Mof_O 	O 	0.2839	0.6542	0.6103	-0.331
Mof_O 	O 	0.4397	0.9449	0.5955	-0.609
Mof_O 	O 	0.2599	0.6161	0.5216	-0.726
Mof_O 	O 	0.328	0.9642	0.47	-0.895
Mof_O 	O 	0.2365	0.8788	0.6562	-0.294
Mof_O 	O 	0.1092	0.9528	0.5849	-0.556
Mof_O 	O 	0.0949	0.9272	0.4189	-0.486
Mof_O 	O 	0.2161	0.1542	0.3897	-0.331
Mof_O 	O 	0.0603	0.4449	0.4045	-0.609
Mof_O 	O 	0.2401	0.1161	0.4784	-0.727
Mof_O 	O 	0.172	0.4642	0.53	-0.895
Mof_O 	O 	0.2635	0.3788	0.3438	-0.294
Mof_O 	O 	0.3908	0.4528	0.4151	-0.556
Mof_O 	O 	0.4051	0.4272	0.5811	-0.486
Mof_O 	O 	0.2839	0.3458	0.8897	-0.33
Mof_O 	O 	0.4397	0.0551	0.9045	-0.605
Mof_O 	O 	0.2599	0.3839	0.9784	-0.724
Mof_O 	O 	0.328	0.0358	0.03	-0.896
Mof_O 	O 	0.2365	0.1212	0.8438	-0.293
Mof_O 	O 	0.1092	0.0472	0.9151	-0.552
Mof_O 	O 	0.0949	0.0728	0.0811	-0.487
_end
