data_functionalizedCrystal
_audit_creation_method	'EQeq! by Chris Wilmer'
_symmetry_space_group_name_H-M	'P1'
_symmetry_Int_Tables_number	1
_symmetry_cell_setting	triclinic
loop_
_symmetry_equiv_pos_as_xyz
  x,y,z
_cell_length_a	20.547
_cell_length_b	9.966
_cell_length_c	15.687
_cell_angle_alpha	90
_cell_angle_beta	99.638
_cell_angle_gamma	90
loop_
_atom_site_label
_atom_site_type_symbol
_atom_site_fract_x
_atom_site_fract_y
_atom_site_fract_z
_atom_site_charge
Mof_O 	O 	0.0603	0.85866	0.88781	-0.376
Mof_C 	C 	0.09058	0.75327	0.88496	0.323
Mof_O 	O 	0.15119	0.75402	0.88315	-0.337
Mof_C 	C 	0.05479	0.62066	0.8838	-0.081
Mof_C 	C 	0.98722	0.62023	0.88594	-0.002
Mof_H 	H 	0.965	0.7013	0.8871	0.053
Mof_N 	N 	0.12818	0.0422	0.43136	-0.112
Mof_C 	C 	0.84534	0.61404	0.89236	-0.174
Mof_H 	H 	0.8666	0.6966	0.8938	0.106
Mof_C 	C 	0.77792	0.61012	0.89341	0.106
Mof_H 	H 	0.756	0.6916	0.8945	0.009
Mof_C 	C 	0.068	0.9291	0.6108	0.029
Mof_C 	C 	0.15062	0.9143	0.6154	0.041
Mof_C 	C 	0.07637	0.9347	0.7004	0.068
Mof_C 	C 	0.15584	0.9113	0.7063	0.039
Mof_O 	O 	0.5603	0.35866	0.88781	-0.395
Mof_C 	C 	0.59058	0.25327	0.88496	0.322
Mof_O 	O 	0.65119	0.25402	0.88315	-0.345
Mof_C 	C 	0.55479	0.12066	0.8838	-0.07
Mof_C 	C 	0.48722	0.12023	0.88594	-0.006
Mof_H 	H 	0.465	0.2013	0.8871	0.049
Mof_N 	N 	0.62818	0.5422	0.43136	-0.086
Mof_C 	C 	0.34534	0.11404	0.89236	-0.157
Mof_H 	H 	0.3666	0.1966	0.8938	0.093
Mof_C 	C 	0.27792	0.11012	0.89341	0.089
Mof_H 	H 	0.256	0.1916	0.8945	0.009
Mof_C 	C 	0.568	0.4291	0.6108	-0.007
Mof_C 	C 	0.65062	0.4143	0.6154	0.006
Mof_C 	C 	0.57637	0.4347	0.7004	0.032
Mof_C 	C 	0.65584	0.4113	0.7063	0.024
Mof_O 	O 	0.0603	0.14134	0.88781	-0.4
Mof_C 	C 	0.09058	0.24673	0.88496	0.331
Mof_O 	O 	0.15119	0.24598	0.88315	-0.346
Mof_C 	C 	0.05479	0.37934	0.8838	-0.085
Mof_C 	C 	0.98722	0.37977	0.88594	0.001
Mof_H 	H 	0.965	0.2987	0.8871	0.047
Mof_N 	N 	0.12818	0.9578	0.43136	-0.037
Mof_C 	C 	0.84534	0.38596	0.89236	-0.174
Mof_H 	H 	0.8666	0.3034	0.8938	0.099
Mof_C 	C 	0.77792	0.38988	0.89341	0.105
Mof_H 	H 	0.756	0.3084	0.8945	0.003
Mof_C 	C 	0.068	0.0709	0.6108	-0.007
Mof_C 	C 	0.15062	0.0857	0.6154	0.009
Mof_C 	C 	0.07637	0.0653	0.7004	0.009
Mof_C 	C 	0.15584	0.0887	0.7063	0.018
Mof_O 	O 	0.5603	0.64134	0.88781	-0.392
Mof_C 	C 	0.59058	0.74673	0.88496	0.319
Mof_O 	O 	0.65119	0.74598	0.88315	-0.334
Mof_C 	C 	0.55479	0.87934	0.8838	-0.044
Mof_C 	C 	0.48722	0.87977	0.88594	0.027
Mof_H 	H 	0.465	0.7987	0.8871	0.042
Mof_N 	N 	0.62818	0.4578	0.43136	-0.091
Mof_C 	C 	0.34534	0.88596	0.89236	-0.126
Mof_H 	H 	0.3666	0.8034	0.8938	0.087
Mof_C 	C 	0.27792	0.88988	0.89341	0.126
Mof_H 	H 	0.256	0.8084	0.8945	0.001
Mof_C 	C 	0.568	0.5709	0.6108	-0.001
Mof_C 	C 	0.65062	0.5857	0.6154	0.012
Mof_C 	C 	0.57637	0.5653	0.7004	0.036
Mof_C 	C 	0.65584	0.5887	0.7063	0.029
Mof_Co	Co	0.13679	1.59421e-32	0.88885	1.143
Mof_N 	N 	0.14999	4.9819e-34	0.02928	-0.242
Mof_N 	N 	0.12392	1.59421e-32	0.7484	-0.244
Mof_N 	N 	0.24286	0	0.89293	-0.261
Mof_C 	C 	0.09628	0	0.06724	0.097
Mof_C 	C 	0.20799	0	0.08325	0.1
Mof_H 	H 	0.0553	4.9819e-34	0.0315	0.004
Mof_C 	C 	0.09702	3.98552e-33	0.15473	-0.185
Mof_C 	C 	0.21341	3.98552e-33	0.17097	-0.18
Mof_H 	H 	0.2465	0	0.0595	-0.008
Mof_H 	H 	0.0576	0	0.1764	0.115
Mof_C 	C 	0.15597	0	0.20987	0.122
Mof_H 	H 	0.2549	3.98552e-33	0.2054	0.098
Mof_C 	C 	0.16178	-3.98552e-33	0.30256	-0.051
Mof_N 	N 	0.1132	7.97104e-33	0.33998	-0.069
Mof_H 	H 	0.2037	7.97104e-33	0.3358	0.063
Mof_C 	C 	0.10001	0	0.47285	0.137
Mof_H 	H 	0.053	0	0.4478	0.002
Mof_C 	C 	0.11013	0	0.5688	-0.097
Mof_Co	Co	0.63679	0.5	0.88885	1.152
Mof_N 	N 	0.64999	0.5	0.02928	-0.239
Mof_N 	N 	0.62392	0.5	0.7484	-0.223
Mof_N 	N 	0.74286	0.5	0.89293	-0.245
Mof_C 	C 	0.59628	0.5	0.06724	0.105
Mof_C 	C 	0.70799	0.5	0.08325	0.107
Mof_H 	H 	0.5553	0.5	0.0315	0.009
Mof_C 	C 	0.59702	0.5	0.15473	-0.186
Mof_C 	C 	0.71341	0.5	0.17097	-0.18
Mof_H 	H 	0.7465	0.5	0.0595	-0.003
Mof_H 	H 	0.5576	0.5	0.1764	0.123
Mof_C 	C 	0.65597	0.5	0.20987	0.131
Mof_H 	H 	0.7549	0.5	0.2054	0.104
Mof_C 	C 	0.66178	0.5	0.30256	-0.051
Mof_N 	N 	0.6132	0.5	0.33998	-0.057
Mof_H 	H 	0.7037	0.5	0.3358	0.071
Mof_C 	C 	0.60001	0.5	0.47285	0.166
Mof_H 	H 	0.553	0.5	0.4478	0.003
Mof_C 	C 	0.61013	0.5	0.5688	-0.051
Mof_C 	C 	0.08713	0.5	0.88229	0.026
Mof_C 	C 	0.95247	0.5	0.88635	-0.041
Mof_H 	H 	0.1321	0.5	0.8802	0.047
Mof_C 	C 	0.88098	0.5	0.88925	0.126
Mof_C 	C 	0.58713	1.59421e-32	0.88229	-0.029
Mof_C 	C 	0.45247	1.59421e-32	0.88635	-0.063
Mof_H 	H 	0.6321	0	0.8802	0.057
Mof_C 	C 	0.38098	1.59421e-32	0.88925	0.081
Mof_O 	O 	0.9397	0.85866	0.11219	-0.375
Mof_C 	C 	0.90942	0.75327	0.11504	0.324
Mof_O 	O 	0.84881	0.75402	0.11685	-0.336
Mof_C 	C 	0.94521	0.62066	0.1162	-0.08
Mof_C 	C 	0.01278	0.62023	0.11406	-0.002
Mof_H 	H 	0.035	0.7013	0.1129	0.053
Mof_N 	N 	0.87182	0.0422	0.56864	-0.112
Mof_C 	C 	0.15466	0.61404	0.10764	-0.174
Mof_H 	H 	0.1334	0.6966	0.1062	0.106
Mof_C 	C 	0.22208	0.61012	0.10659	0.106
Mof_H 	H 	0.244	0.6916	0.1055	0.009
Mof_C 	C 	0.932	0.9291	0.3892	0.029
Mof_C 	C 	0.84938	0.9143	0.3846	0.041
Mof_C 	C 	0.92363	0.9347	0.2996	0.068
Mof_C 	C 	0.84416	0.9113	0.2937	0.039
Mof_O 	O 	0.4397	0.35866	0.11219	-0.395
Mof_C 	C 	0.40942	0.25327	0.11504	0.322
Mof_O 	O 	0.34881	0.25402	0.11685	-0.345
Mof_C 	C 	0.44521	0.12066	0.1162	-0.07
Mof_C 	C 	0.51278	0.12023	0.11406	-0.006
Mof_H 	H 	0.535	0.2013	0.1129	0.049
Mof_N 	N 	0.37182	0.5422	0.56864	-0.086
Mof_C 	C 	0.65466	0.11404	0.10764	-0.157
Mof_H 	H 	0.6334	0.1966	0.1062	0.093
Mof_C 	C 	0.72208	0.11012	0.10659	0.089
Mof_H 	H 	0.744	0.1916	0.1055	0.009
Mof_C 	C 	0.432	0.4291	0.3892	-0.007
Mof_C 	C 	0.34938	0.4143	0.3846	0.006
Mof_C 	C 	0.42363	0.4347	0.2996	0.032
Mof_C 	C 	0.34416	0.4113	0.2937	0.024
Mof_O 	O 	0.9397	0.14134	0.11219	-0.4
Mof_C 	C 	0.90942	0.24673	0.11504	0.331
Mof_O 	O 	0.84881	0.24598	0.11685	-0.346
Mof_C 	C 	0.94521	0.37934	0.1162	-0.085
Mof_C 	C 	0.01278	0.37977	0.11406	0.001
Mof_H 	H 	0.035	0.2987	0.1129	0.047
Mof_N 	N 	0.87182	0.9578	0.56864	-0.037
Mof_C 	C 	0.15466	0.38596	0.10764	-0.174
Mof_H 	H 	0.1334	0.3034	0.1062	0.099
Mof_C 	C 	0.22208	0.38988	0.10659	0.105
Mof_H 	H 	0.244	0.3084	0.1055	0.003
Mof_C 	C 	0.932	0.0709	0.3892	-0.007
Mof_C 	C 	0.84938	0.0857	0.3846	0.009
Mof_C 	C 	0.92363	0.0653	0.2996	0.009
Mof_C 	C 	0.84416	0.0887	0.2937	0.018
Mof_O 	O 	0.4397	0.64134	0.11219	-0.392
Mof_C 	C 	0.40942	0.74673	0.11504	0.319
Mof_O 	O 	0.34881	0.74598	0.11685	-0.334
Mof_C 	C 	0.44521	0.87934	0.1162	-0.044
Mof_C 	C 	0.51278	0.87977	0.11406	0.027
Mof_H 	H 	0.535	0.7987	0.1129	0.042
Mof_N 	N 	0.37182	0.4578	0.56864	-0.091
Mof_C 	C 	0.65466	0.88596	0.10764	-0.126
Mof_H 	H 	0.6334	0.8034	0.1062	0.087
Mof_C 	C 	0.72208	0.88988	0.10659	0.126
Mof_H 	H 	0.744	0.8084	0.1055	0.001
Mof_C 	C 	0.432	0.5709	0.3892	-0.001
Mof_C 	C 	0.34938	0.5857	0.3846	0.012
Mof_C 	C 	0.42363	0.5653	0.2996	0.036
Mof_C 	C 	0.34416	0.5887	0.2937	0.029
Mof_Co	Co	0.86321	1.99276e-33	0.11115	1.143
Mof_N 	N 	0.85001	1.59421e-32	0.97072	-0.242
Mof_N 	N 	0.87608	0	0.2516	-0.244
Mof_N 	N 	0.75714	0	0.10707	-0.261
Mof_C 	C 	0.90372	1.59421e-32	0.93276	0.097
Mof_C 	C 	0.79201	0	0.91675	0.1
Mof_H 	H 	0.9447	-1.59421e-32	0.9685	0.004
Mof_C 	C 	0.90298	1.59421e-32	0.84527	-0.185
Mof_C 	C 	0.78659	1.59421e-32	0.82903	-0.18
Mof_H 	H 	0.7535	0	0.9405	-0.008
Mof_H 	H 	0.9424	0	0.8236	0.115
Mof_C 	C 	0.84403	0	0.79013	0.122
Mof_H 	H 	0.7451	-1.59421e-32	0.7946	0.098
Mof_C 	C 	0.83822	0	0.69744	-0.051
Mof_N 	N 	0.8868	0	0.66002	-0.069
Mof_H 	H 	0.7963	1.59421e-32	0.6642	0.063
Mof_C 	C 	0.89999	0	0.52715	0.137
Mof_H 	H 	0.947	0	0.5522	0.002
Mof_C 	C 	0.88987	0	0.4312	-0.097
Mof_Co	Co	0.36321	0.5	0.11115	1.152
Mof_N 	N 	0.35001	0.5	0.97072	-0.239
Mof_N 	N 	0.37608	0.5	0.2516	-0.223
Mof_N 	N 	0.25714	0.5	0.10707	-0.245
Mof_C 	C 	0.40372	0.5	0.93276	0.105
Mof_C 	C 	0.29201	0.5	0.91675	0.107
Mof_H 	H 	0.4447	0.5	0.9685	0.009
Mof_C 	C 	0.40298	0.5	0.84527	-0.186
Mof_C 	C 	0.28659	0.5	0.82903	-0.18
Mof_H 	H 	0.2535	0.5	0.9405	-0.003
Mof_H 	H 	0.4424	0.5	0.8236	0.123
Mof_C 	C 	0.34403	0.5	0.79013	0.131
Mof_H 	H 	0.2451	0.5	0.7946	0.104
Mof_C 	C 	0.33822	0.5	0.69744	-0.051
Mof_N 	N 	0.3868	0.5	0.66002	-0.057
Mof_H 	H 	0.2963	0.5	0.6642	0.071
Mof_C 	C 	0.39999	0.5	0.52715	0.166
Mof_H 	H 	0.447	0.5	0.5522	0.003
Mof_C 	C 	0.38987	0.5	0.4312	-0.051
Mof_C 	C 	0.91287	0.5	0.11771	0.026
Mof_C 	C 	0.04753	0.5	0.11365	-0.041
Mof_H 	H 	0.8679	0.5	0.1198	0.047
Mof_C 	C 	0.11902	0.5	0.11075	0.126
Mof_C 	C 	0.41287	0	0.11771	-0.029
Mof_C 	C 	0.54753	1.99276e-33	0.11365	-0.063
Mof_H 	H 	0.3679	1.99276e-33	0.1198	0.057
Mof_C 	C 	0.61902	0	0.11075	0.081
_end
