data_functionalizedCrystal
_audit_creation_method	'EQeq! by Chris Wilmer'
_symmetry_space_group_name_H-M	'P1'
_symmetry_Int_Tables_number	1
_symmetry_cell_setting	triclinic
loop_
_symmetry_equiv_pos_as_xyz
  x,y,z
_cell_length_a	26.3034
_cell_length_b	26.3034
_cell_length_c	26.3034
_cell_angle_alpha	90
_cell_angle_beta	90
_cell_angle_gamma	90
loop_
_atom_site_label
_atom_site_type_symbol
_atom_site_fract_x
_atom_site_fract_y
_atom_site_fract_z
_atom_site_charge
Mof_O 	O 	0.18783	0.74203	0.95096	-0.422
Mof_O 	O 	0.18783	0.24203	0.45096	-0.465
Mof_O 	O 	0.68783	0.74203	0.45096	-0.455
Mof_O 	O 	0.68783	0.24203	0.95096	-0.421
Mof_O 	O 	0.81217	0.25797	0.95096	-0.415
Mof_O 	O 	0.81217	0.75797	0.45096	-0.45
Mof_O 	O 	0.31217	0.25797	0.45096	-0.46
Mof_O 	O 	0.31217	0.75797	0.95096	-0.417
Mof_O 	O 	0.81217	0.74203	0.04904	-0.469
Mof_O 	O 	0.81217	0.24203	0.54904	-0.453
Mof_O 	O 	0.31217	0.74203	0.54904	-0.455
Mof_O 	O 	0.31217	0.24203	0.04904	-0.479
Mof_O 	O 	0.18783	0.25797	0.04904	-0.484
Mof_O 	O 	0.18783	0.75797	0.54904	-0.461
Mof_O 	O 	0.68783	0.25797	0.54904	-0.459
Mof_O 	O 	0.68783	0.75797	0.04904	-0.475
Mof_O 	O 	0.95096	0.18783	0.74203	-0.422
Mof_O 	O 	0.95096	0.68783	0.24203	-0.421
Mof_O 	O 	0.45096	0.18783	0.24203	-0.464
Mof_O 	O 	0.45096	0.68783	0.74203	-0.454
Mof_O 	O 	0.95096	0.81217	0.25797	-0.414
Mof_O 	O 	0.95096	0.31217	0.75797	-0.416
Mof_O 	O 	0.45096	0.81217	0.75797	-0.449
Mof_O 	O 	0.45096	0.31217	0.25797	-0.459
Mof_O 	O 	0.04904	0.81217	0.74203	-0.468
Mof_O 	O 	0.04904	0.31217	0.24203	-0.478
Mof_O 	O 	0.54904	0.81217	0.24203	-0.452
Mof_O 	O 	0.54904	0.31217	0.74203	-0.454
Mof_O 	O 	0.04904	0.18783	0.25797	-0.483
Mof_O 	O 	0.04904	0.68783	0.75797	-0.474
Mof_O 	O 	0.54904	0.18783	0.75797	-0.46
Mof_O 	O 	0.54904	0.68783	0.25797	-0.458
Mof_O 	O 	0.74203	0.95096	0.18783	-0.421
Mof_O 	O 	0.74203	0.45096	0.68783	-0.454
Mof_O 	O 	0.24203	0.95096	0.68783	-0.42
Mof_O 	O 	0.24203	0.45096	0.18783	-0.464
Mof_O 	O 	0.25797	0.95096	0.81217	-0.414
Mof_O 	O 	0.25797	0.45096	0.31217	-0.459
Mof_O 	O 	0.75797	0.95096	0.31217	-0.416
Mof_O 	O 	0.75797	0.45096	0.81217	-0.449
Mof_O 	O 	0.74203	0.04904	0.81217	-0.468
Mof_O 	O 	0.74203	0.54904	0.31217	-0.454
Mof_O 	O 	0.24203	0.04904	0.31217	-0.478
Mof_O 	O 	0.24203	0.54904	0.81217	-0.452
Mof_O 	O 	0.25797	0.04904	0.18783	-0.483
Mof_O 	O 	0.25797	0.54904	0.68783	-0.458
Mof_O 	O 	0.75797	0.04904	0.68783	-0.474
Mof_O 	O 	0.75797	0.54904	0.18783	-0.46
Mof_O 	O 	0.74203	0.18783	0.04904	-0.479
Mof_O 	O 	0.74203	0.68783	0.54904	-0.454
Mof_O 	O 	0.24203	0.18783	0.54904	-0.463
Mof_O 	O 	0.24203	0.68783	0.04904	-0.478
Mof_O 	O 	0.25797	0.81217	0.04904	-0.472
Mof_O 	O 	0.25797	0.31217	0.54904	-0.459
Mof_O 	O 	0.75797	0.81217	0.54904	-0.448
Mof_O 	O 	0.75797	0.31217	0.04904	-0.474
Mof_O 	O 	0.74203	0.81217	0.95096	-0.41
Mof_O 	O 	0.74203	0.31217	0.45096	-0.454
Mof_O 	O 	0.24203	0.81217	0.45096	-0.452
Mof_O 	O 	0.24203	0.31217	0.95096	-0.42
Mof_O 	O 	0.25797	0.18783	0.95096	-0.425
Mof_O 	O 	0.25797	0.68783	0.45096	-0.458
Mof_O 	O 	0.75797	0.18783	0.45096	-0.46
Mof_O 	O 	0.75797	0.68783	0.95096	-0.416
Mof_O 	O 	0.18783	0.95096	0.25797	-0.425
Mof_O 	O 	0.18783	0.45096	0.75797	-0.46
Mof_O 	O 	0.68783	0.95096	0.75797	-0.416
Mof_O 	O 	0.68783	0.45096	0.25797	-0.458
Mof_O 	O 	0.81217	0.95096	0.74203	-0.41
Mof_O 	O 	0.81217	0.45096	0.24203	-0.452
Mof_O 	O 	0.31217	0.95096	0.24203	-0.42
Mof_O 	O 	0.31217	0.45096	0.74203	-0.454
Mof_O 	O 	0.81217	0.04904	0.25797	-0.472
Mof_O 	O 	0.81217	0.54904	0.75797	-0.448
Mof_O 	O 	0.31217	0.04904	0.75797	-0.474
Mof_O 	O 	0.31217	0.54904	0.25797	-0.459
Mof_O 	O 	0.18783	0.04904	0.74203	-0.479
Mof_O 	O 	0.18783	0.54904	0.24203	-0.463
Mof_O 	O 	0.68783	0.04904	0.24203	-0.478
Mof_O 	O 	0.68783	0.54904	0.74203	-0.454
Mof_O 	O 	0.95096	0.74203	0.81217	-0.41
Mof_O 	O 	0.95096	0.24203	0.31217	-0.42
Mof_O 	O 	0.45096	0.74203	0.31217	-0.454
Mof_O 	O 	0.45096	0.24203	0.81217	-0.452
Mof_O 	O 	0.95096	0.25797	0.18783	-0.425
Mof_O 	O 	0.95096	0.75797	0.68783	-0.416
Mof_O 	O 	0.45096	0.25797	0.68783	-0.458
Mof_O 	O 	0.45096	0.75797	0.18783	-0.46
Mof_O 	O 	0.04904	0.74203	0.18783	-0.479
Mof_O 	O 	0.04904	0.24203	0.68783	-0.478
Mof_O 	O 	0.54904	0.74203	0.68783	-0.454
Mof_O 	O 	0.54904	0.24203	0.18783	-0.463
Mof_O 	O 	0.04904	0.25797	0.81217	-0.472
Mof_O 	O 	0.04904	0.75797	0.31217	-0.474
Mof_O 	O 	0.54904	0.25797	0.31217	-0.459
Mof_O 	O 	0.54904	0.75797	0.81217	-0.448
Mof_O 	O 	0.81217	0.25797	0.04904	-0.472
Mof_O 	O 	0.81217	0.75797	0.54904	-0.448
Mof_O 	O 	0.31217	0.25797	0.54904	-0.459
Mof_O 	O 	0.31217	0.75797	0.04904	-0.474
Mof_O 	O 	0.18783	0.74203	0.04904	-0.479
Mof_O 	O 	0.18783	0.24203	0.54904	-0.463
Mof_O 	O 	0.68783	0.74203	0.54904	-0.454
Mof_O 	O 	0.68783	0.24203	0.04904	-0.478
Mof_O 	O 	0.18783	0.25797	0.95096	-0.425
Mof_O 	O 	0.18783	0.75797	0.45096	-0.46
Mof_O 	O 	0.68783	0.25797	0.45096	-0.458
Mof_O 	O 	0.68783	0.75797	0.95096	-0.416
Mof_O 	O 	0.81217	0.74203	0.95096	-0.41
Mof_O 	O 	0.81217	0.24203	0.45096	-0.452
Mof_O 	O 	0.31217	0.74203	0.45096	-0.454
Mof_O 	O 	0.31217	0.24203	0.95096	-0.42
Mof_O 	O 	0.04904	0.81217	0.25797	-0.472
Mof_O 	O 	0.04904	0.31217	0.75797	-0.474
Mof_O 	O 	0.54904	0.81217	0.75797	-0.448
Mof_O 	O 	0.54904	0.31217	0.25797	-0.459
Mof_O 	O 	0.04904	0.18783	0.74203	-0.479
Mof_O 	O 	0.04904	0.68783	0.24203	-0.478
Mof_O 	O 	0.54904	0.18783	0.24203	-0.463
Mof_O 	O 	0.54904	0.68783	0.74203	-0.454
Mof_O 	O 	0.95096	0.18783	0.25797	-0.425
Mof_O 	O 	0.95096	0.68783	0.75797	-0.416
Mof_O 	O 	0.45096	0.18783	0.75797	-0.46
Mof_O 	O 	0.45096	0.68783	0.25797	-0.458
Mof_O 	O 	0.95096	0.81217	0.74203	-0.41
Mof_O 	O 	0.95096	0.31217	0.24203	-0.42
Mof_O 	O 	0.45096	0.81217	0.24203	-0.452
Mof_O 	O 	0.45096	0.31217	0.74203	-0.454
Mof_O 	O 	0.25797	0.04904	0.81217	-0.472
Mof_O 	O 	0.25797	0.54904	0.31217	-0.459
Mof_O 	O 	0.75797	0.04904	0.31217	-0.474
Mof_O 	O 	0.75797	0.54904	0.81217	-0.448
Mof_O 	O 	0.74203	0.04904	0.18783	-0.479
Mof_O 	O 	0.74203	0.54904	0.68783	-0.454
Mof_O 	O 	0.24203	0.04904	0.68783	-0.478
Mof_O 	O 	0.24203	0.54904	0.18783	-0.463
Mof_O 	O 	0.25797	0.95096	0.18783	-0.425
Mof_O 	O 	0.25797	0.45096	0.68783	-0.458
Mof_O 	O 	0.75797	0.95096	0.68783	-0.416
Mof_O 	O 	0.75797	0.45096	0.18783	-0.46
Mof_O 	O 	0.74203	0.95096	0.81217	-0.41
Mof_O 	O 	0.74203	0.45096	0.31217	-0.454
Mof_O 	O 	0.24203	0.95096	0.31217	-0.42
Mof_O 	O 	0.24203	0.45096	0.81217	-0.452
Mof_O 	O 	0.25797	0.81217	0.95096	-0.414
Mof_O 	O 	0.25797	0.31217	0.45096	-0.459
Mof_O 	O 	0.75797	0.81217	0.45096	-0.449
Mof_O 	O 	0.75797	0.31217	0.95096	-0.416
Mof_O 	O 	0.74203	0.18783	0.95096	-0.421
Mof_O 	O 	0.74203	0.68783	0.45096	-0.454
Mof_O 	O 	0.24203	0.18783	0.45096	-0.464
Mof_O 	O 	0.24203	0.68783	0.95096	-0.42
Mof_O 	O 	0.25797	0.18783	0.04904	-0.483
Mof_O 	O 	0.25797	0.68783	0.54904	-0.458
Mof_O 	O 	0.75797	0.18783	0.54904	-0.46
Mof_O 	O 	0.75797	0.68783	0.04904	-0.474
Mof_O 	O 	0.74203	0.81217	0.04904	-0.468
Mof_O 	O 	0.74203	0.31217	0.54904	-0.454
Mof_O 	O 	0.24203	0.81217	0.54904	-0.452
Mof_O 	O 	0.24203	0.31217	0.04904	-0.478
Mof_O 	O 	0.81217	0.04904	0.74203	-0.468
Mof_O 	O 	0.81217	0.54904	0.24203	-0.452
Mof_O 	O 	0.31217	0.04904	0.24203	-0.478
Mof_O 	O 	0.31217	0.54904	0.74203	-0.454
Mof_O 	O 	0.18783	0.04904	0.25797	-0.483
Mof_O 	O 	0.18783	0.54904	0.75797	-0.46
Mof_O 	O 	0.68783	0.04904	0.75797	-0.474
Mof_O 	O 	0.68783	0.54904	0.25797	-0.458
Mof_O 	O 	0.18783	0.95096	0.74203	-0.421
Mof_O 	O 	0.18783	0.45096	0.24203	-0.464
Mof_O 	O 	0.68783	0.95096	0.24203	-0.42
Mof_O 	O 	0.68783	0.45096	0.74203	-0.454
Mof_O 	O 	0.81217	0.95096	0.25797	-0.414
Mof_O 	O 	0.81217	0.45096	0.75797	-0.449
Mof_O 	O 	0.31217	0.95096	0.75797	-0.416
Mof_O 	O 	0.31217	0.45096	0.25797	-0.459
Mof_O 	O 	0.04904	0.25797	0.18783	-0.483
Mof_O 	O 	0.04904	0.75797	0.68783	-0.474
Mof_O 	O 	0.54904	0.25797	0.68783	-0.458
Mof_O 	O 	0.54904	0.75797	0.18783	-0.46
Mof_O 	O 	0.04904	0.74203	0.81217	-0.468
Mof_O 	O 	0.04904	0.24203	0.31217	-0.478
Mof_O 	O 	0.54904	0.74203	0.31217	-0.454
Mof_O 	O 	0.54904	0.24203	0.81217	-0.452
Mof_O 	O 	0.95096	0.25797	0.81217	-0.414
Mof_O 	O 	0.95096	0.75797	0.31217	-0.416
Mof_O 	O 	0.45096	0.25797	0.31217	-0.459
Mof_O 	O 	0.45096	0.75797	0.81217	-0.449
Mof_O 	O 	0.95096	0.74203	0.18783	-0.421
Mof_O 	O 	0.95096	0.24203	0.68783	-0.42
Mof_O 	O 	0.45096	0.74203	0.68783	-0.454
Mof_O 	O 	0.45096	0.24203	0.18783	-0.464
Mof_Cu	Cu	0.21612	0.78388	-0	0.92
Mof_Cu	Cu	0.21612	0.28388	0.5	0.95
Mof_Cu	Cu	0.71612	0.78388	0.5	0.953
Mof_Cu	Cu	0.71612	0.28388	-0	0.92
Mof_Cu	Cu	0.78388	0.21612	-0	0.92
Mof_Cu	Cu	0.78388	0.71612	0.5	0.953
Mof_Cu	Cu	0.28388	0.21612	0.5	0.95
Mof_Cu	Cu	0.28388	0.71612	-0	0.92
Mof_Cu	Cu	0.78388	0.78388	-0	0.923
Mof_Cu	Cu	0.78388	0.28388	0.5	0.953
Mof_Cu	Cu	0.28388	0.78388	0.5	0.953
Mof_Cu	Cu	0.28388	0.28388	-0	0.92
Mof_Cu	Cu	0.21612	0.21612	-0	0.917
Mof_Cu	Cu	0.21612	0.71612	0.5	0.95
Mof_Cu	Cu	0.71612	0.21612	0.5	0.95
Mof_Cu	Cu	0.71612	0.71612	-0	0.919
Mof_Cu	Cu	-2.60941e-33	0.21612	0.78388	0.92
Mof_Cu	Cu	-1.00326e-32	0.71612	0.28388	0.92
Mof_Cu	Cu	0.5	0.21612	0.28388	0.95
Mof_Cu	Cu	0.5	0.71612	0.78388	0.953
Mof_Cu	Cu	8.1032e-34	0.78388	0.21612	0.92
Mof_Cu	Cu	-1.39604e-32	0.28388	0.71612	0.92
Mof_Cu	Cu	0.5	0.78388	0.71612	0.953
Mof_Cu	Cu	0.5	0.28388	0.21612	0.95
Mof_Cu	Cu	2.93908e-33	0.78388	0.78388	0.923
Mof_Cu	Cu	-7.25835e-33	0.28388	0.28388	0.92
Mof_Cu	Cu	0.5	0.78388	0.28388	0.953
Mof_Cu	Cu	0.5	0.28388	0.78388	0.953
Mof_Cu	Cu	8.1032e-34	0.21612	0.21612	0.917
Mof_Cu	Cu	-8.41196e-33	0.71612	0.71612	0.919
Mof_Cu	Cu	0.5	0.21612	0.71612	0.95
Mof_Cu	Cu	0.5	0.71612	0.21612	0.95
Mof_Cu	Cu	0.78388	0	0.21612	0.92
Mof_Cu	Cu	0.78388	0.5	0.71612	0.953
Mof_Cu	Cu	0.28388	-5.54849e-33	0.71612	0.92
Mof_Cu	Cu	0.28388	0.5	0.21612	0.95
Mof_Cu	Cu	0.21612	0	0.78388	0.92
Mof_Cu	Cu	0.21612	0.5	0.28388	0.95
Mof_Cu	Cu	0.71612	-2.77424e-33	0.28388	0.92
Mof_Cu	Cu	0.71612	0.5	0.78388	0.953
Mof_Cu	Cu	0.78388	0	0.78388	0.923
Mof_Cu	Cu	0.78388	0.5	0.28388	0.953
Mof_Cu	Cu	0.28388	-2.77424e-33	0.28388	0.92
Mof_Cu	Cu	0.28388	0.5	0.78388	0.953
Mof_Cu	Cu	0.21612	0	0.21612	0.917
Mof_Cu	Cu	0.21612	0.5	0.71612	0.95
Mof_Cu	Cu	0.71612	-5.54849e-33	0.71612	0.919
Mof_Cu	Cu	0.71612	0.5	0.21612	0.95
Mof_C 	C 	0.20441	0.70441	0.93008	0.482
Mof_C 	C 	0.18112	0.68112	0.88378	-0.213
Mof_C 	C 	0.20441	0.20441	0.43008	0.503
Mof_C 	C 	0.18112	0.18112	0.38378	-0.245
Mof_C 	C 	0.70441	0.70441	0.43008	0.497
Mof_C 	C 	0.68112	0.68112	0.38378	-0.225
Mof_C 	C 	0.79559	0.29559	0.93008	0.479
Mof_C 	C 	0.81888	0.31888	0.88378	-0.197
Mof_C 	C 	0.79559	0.79559	0.43008	0.493
Mof_C 	C 	0.81888	0.81888	0.38378	-0.206
Mof_C 	C 	0.79559	0.70441	0.06992	0.501
Mof_C 	C 	0.81888	0.68112	0.11622	-0.228
Mof_C 	C 	0.79559	0.20441	0.56992	0.498
Mof_C 	C 	0.81888	0.18112	0.61622	-0.224
Mof_C 	C 	0.20441	0.29559	0.06992	0.508
Mof_C 	C 	0.18112	0.31888	0.11622	-0.251
Mof_C 	C 	0.20441	0.79559	0.56992	0.498
Mof_C 	C 	0.18112	0.81888	0.61622	-0.224
Mof_C 	C 	0.70441	0.79559	0.06992	0.501
Mof_C 	C 	0.68112	0.81888	0.11622	-0.228
Mof_C 	C 	0.93008	0.20441	0.70441	0.482
Mof_C 	C 	0.88378	0.18112	0.68112	-0.213
Mof_C 	C 	0.43008	0.20441	0.20441	0.503
Mof_C 	C 	0.38378	0.18112	0.18112	-0.245
Mof_C 	C 	0.43008	0.70441	0.70441	0.497
Mof_C 	C 	0.38378	0.68112	0.68112	-0.225
Mof_C 	C 	0.93008	0.79559	0.29559	0.479
Mof_C 	C 	0.88378	0.81888	0.31888	-0.197
Mof_C 	C 	0.43008	0.79559	0.79559	0.493
Mof_C 	C 	0.38378	0.81888	0.81888	-0.206
Mof_C 	C 	0.06992	0.79559	0.70441	0.501
Mof_C 	C 	0.11622	0.81888	0.68112	-0.228
Mof_C 	C 	0.56992	0.79559	0.20441	0.498
Mof_C 	C 	0.61622	0.81888	0.18112	-0.224
Mof_C 	C 	0.06992	0.20441	0.29559	0.508
Mof_C 	C 	0.11622	0.18112	0.31888	-0.251
Mof_C 	C 	0.06992	0.70441	0.79559	0.501
Mof_C 	C 	0.11622	0.68112	0.81888	-0.228
Mof_C 	C 	0.56992	0.20441	0.79559	0.498
Mof_C 	C 	0.61622	0.18112	0.81888	-0.224
Mof_C 	C 	0.70441	0.93008	0.20441	0.482
Mof_C 	C 	0.68112	0.88378	0.18112	-0.213
Mof_C 	C 	0.70441	0.43008	0.70441	0.497
Mof_C 	C 	0.68112	0.38378	0.68112	-0.225
Mof_C 	C 	0.29559	0.93008	0.79559	0.479
Mof_C 	C 	0.31888	0.88378	0.81888	-0.197
Mof_C 	C 	0.29559	0.43008	0.29559	0.501
Mof_C 	C 	0.31888	0.38378	0.31888	-0.231
Mof_C 	C 	0.79559	0.43008	0.79559	0.493
Mof_C 	C 	0.81888	0.38378	0.81888	-0.206
Mof_C 	C 	0.70441	0.06992	0.79559	0.501
Mof_C 	C 	0.68112	0.11622	0.81888	-0.228
Mof_C 	C 	0.70441	0.56992	0.29559	0.498
Mof_C 	C 	0.68112	0.61622	0.31888	-0.226
Mof_C 	C 	0.29559	0.06992	0.20441	0.508
Mof_C 	C 	0.31888	0.11622	0.18112	-0.251
Mof_C 	C 	0.29559	0.56992	0.70441	0.498
Mof_C 	C 	0.31888	0.61622	0.68112	-0.226
Mof_C 	C 	0.79559	0.06992	0.70441	0.501
Mof_C 	C 	0.81888	0.11622	0.68112	-0.228
Mof_C 	C 	0.70441	0.20441	0.06992	0.506
Mof_C 	C 	0.68112	0.18112	0.11622	-0.248
Mof_C 	C 	0.70441	0.70441	0.56992	0.497
Mof_C 	C 	0.68112	0.68112	0.61622	-0.223
Mof_C 	C 	0.29559	0.79559	0.06992	0.503
Mof_C 	C 	0.31888	0.81888	0.11622	-0.232
Mof_C 	C 	0.29559	0.29559	0.56992	0.5
Mof_C 	C 	0.31888	0.31888	0.61622	-0.23
Mof_C 	C 	0.79559	0.79559	0.56992	0.493
Mof_C 	C 	0.81888	0.81888	0.61622	-0.204
Mof_C 	C 	0.70441	0.79559	0.93008	0.478
Mof_C 	C 	0.68112	0.81888	0.88378	-0.194
Mof_C 	C 	0.70441	0.29559	0.43008	0.499
Mof_C 	C 	0.68112	0.31888	0.38378	-0.228
Mof_C 	C 	0.29559	0.20441	0.93008	0.484
Mof_C 	C 	0.31888	0.18112	0.88378	-0.216
Mof_C 	C 	0.29559	0.70441	0.43008	0.499
Mof_C 	C 	0.31888	0.68112	0.38378	-0.228
Mof_C 	C 	0.79559	0.70441	0.93008	0.478
Mof_C 	C 	0.81888	0.68112	0.88378	-0.194
Mof_C 	C 	0.20441	0.93008	0.29559	0.484
Mof_C 	C 	0.18112	0.88378	0.31888	-0.216
Mof_C 	C 	0.20441	0.43008	0.79559	0.498
Mof_C 	C 	0.18112	0.38378	0.81888	-0.225
Mof_C 	C 	0.70441	0.93008	0.79559	0.478
Mof_C 	C 	0.68112	0.88378	0.81888	-0.194
Mof_C 	C 	0.79559	0.93008	0.70441	0.478
Mof_C 	C 	0.81888	0.88378	0.68112	-0.194
Mof_C 	C 	0.79559	0.43008	0.20441	0.498
Mof_C 	C 	0.81888	0.38378	0.18112	-0.225
Mof_C 	C 	0.79559	0.06992	0.29559	0.503
Mof_C 	C 	0.81888	0.11622	0.31888	-0.232
Mof_C 	C 	0.79559	0.56992	0.79559	0.493
Mof_C 	C 	0.81888	0.61622	0.81888	-0.204
Mof_C 	C 	0.20441	0.06992	0.70441	0.506
Mof_C 	C 	0.18112	0.11622	0.68112	-0.248
Mof_C 	C 	0.20441	0.56992	0.20441	0.502
Mof_C 	C 	0.18112	0.61622	0.18112	-0.243
Mof_C 	C 	0.70441	0.56992	0.70441	0.497
Mof_C 	C 	0.68112	0.61622	0.68112	-0.223
Mof_C 	C 	0.93008	0.70441	0.79559	0.478
Mof_C 	C 	0.88378	0.68112	0.81888	-0.194
Mof_C 	C 	0.43008	0.70441	0.29559	0.499
Mof_C 	C 	0.38378	0.68112	0.31888	-0.228
Mof_C 	C 	0.93008	0.29559	0.20441	0.484
Mof_C 	C 	0.88378	0.31888	0.18112	-0.216
Mof_C 	C 	0.93008	0.79559	0.70441	0.478
Mof_C 	C 	0.88378	0.81888	0.68112	-0.194
Mof_C 	C 	0.43008	0.29559	0.70441	0.499
Mof_C 	C 	0.38378	0.31888	0.68112	-0.228
Mof_C 	C 	0.06992	0.70441	0.20441	0.506
Mof_C 	C 	0.11622	0.68112	0.18112	-0.248
Mof_C 	C 	0.56992	0.70441	0.70441	0.497
Mof_C 	C 	0.61622	0.68112	0.68112	-0.223
Mof_C 	C 	0.06992	0.29559	0.79559	0.503
Mof_C 	C 	0.11622	0.31888	0.81888	-0.232
Mof_C 	C 	0.56992	0.29559	0.29559	0.5
Mof_C 	C 	0.61622	0.31888	0.31888	-0.23
Mof_C 	C 	0.56992	0.79559	0.79559	0.493
Mof_C 	C 	0.61622	0.81888	0.81888	-0.204
Mof_C 	C 	0.79559	0.29559	0.06992	0.503
Mof_C 	C 	0.81888	0.31888	0.11622	-0.232
Mof_C 	C 	0.20441	0.70441	0.06992	0.506
Mof_C 	C 	0.18112	0.68112	0.11622	-0.248
Mof_C 	C 	0.20441	0.20441	0.56992	0.502
Mof_C 	C 	0.18112	0.18112	0.61622	-0.243
Mof_C 	C 	0.20441	0.29559	0.93008	0.484
Mof_C 	C 	0.18112	0.31888	0.88378	-0.216
Mof_C 	C 	0.20441	0.79559	0.43008	0.498
Mof_C 	C 	0.18112	0.81888	0.38378	-0.225
Mof_C 	C 	0.79559	0.20441	0.43008	0.498
Mof_C 	C 	0.81888	0.18112	0.38378	-0.225
Mof_C 	C 	0.06992	0.79559	0.29559	0.503
Mof_C 	C 	0.11622	0.81888	0.31888	-0.232
Mof_C 	C 	0.06992	0.20441	0.70441	0.506
Mof_C 	C 	0.11622	0.18112	0.68112	-0.248
Mof_C 	C 	0.56992	0.20441	0.20441	0.502
Mof_C 	C 	0.61622	0.18112	0.18112	-0.243
Mof_C 	C 	0.93008	0.20441	0.29559	0.484
Mof_C 	C 	0.88378	0.18112	0.31888	-0.216
Mof_C 	C 	0.43008	0.20441	0.79559	0.498
Mof_C 	C 	0.38378	0.18112	0.81888	-0.225
Mof_C 	C 	0.43008	0.79559	0.20441	0.498
Mof_C 	C 	0.38378	0.81888	0.18112	-0.225
Mof_C 	C 	0.29559	0.06992	0.79559	0.503
Mof_C 	C 	0.31888	0.11622	0.81888	-0.232
Mof_C 	C 	0.29559	0.56992	0.29559	0.5
Mof_C 	C 	0.31888	0.61622	0.31888	-0.23
Mof_C 	C 	0.70441	0.06992	0.20441	0.506
Mof_C 	C 	0.68112	0.11622	0.18112	-0.248
Mof_C 	C 	0.29559	0.93008	0.20441	0.484
Mof_C 	C 	0.31888	0.88378	0.18112	-0.216
Mof_C 	C 	0.29559	0.43008	0.70441	0.499
Mof_C 	C 	0.31888	0.38378	0.68112	-0.228
Mof_C 	C 	0.70441	0.43008	0.29559	0.499
Mof_C 	C 	0.68112	0.38378	0.31888	-0.228
Mof_C 	C 	0.29559	0.79559	0.93008	0.479
Mof_C 	C 	0.31888	0.81888	0.88378	-0.197
Mof_C 	C 	0.29559	0.29559	0.43008	0.501
Mof_C 	C 	0.31888	0.31888	0.38378	-0.231
Mof_C 	C 	0.70441	0.20441	0.93008	0.482
Mof_C 	C 	0.68112	0.18112	0.88378	-0.213
Mof_C 	C 	0.29559	0.20441	0.06992	0.508
Mof_C 	C 	0.31888	0.18112	0.11622	-0.251
Mof_C 	C 	0.29559	0.70441	0.56992	0.498
Mof_C 	C 	0.31888	0.68112	0.61622	-0.226
Mof_C 	C 	0.70441	0.29559	0.56992	0.498
Mof_C 	C 	0.68112	0.31888	0.61622	-0.226
Mof_C 	C 	0.79559	0.56992	0.20441	0.498
Mof_C 	C 	0.81888	0.61622	0.18112	-0.224
Mof_C 	C 	0.20441	0.06992	0.29559	0.508
Mof_C 	C 	0.18112	0.11622	0.31888	-0.251
Mof_C 	C 	0.20441	0.56992	0.79559	0.498
Mof_C 	C 	0.18112	0.61622	0.81888	-0.224
Mof_C 	C 	0.20441	0.93008	0.70441	0.482
Mof_C 	C 	0.18112	0.88378	0.68112	-0.213
Mof_C 	C 	0.20441	0.43008	0.20441	0.503
Mof_C 	C 	0.18112	0.38378	0.18112	-0.245
Mof_C 	C 	0.79559	0.93008	0.29559	0.479
Mof_C 	C 	0.81888	0.88378	0.31888	-0.197
Mof_C 	C 	0.06992	0.29559	0.20441	0.508
Mof_C 	C 	0.11622	0.31888	0.18112	-0.251
Mof_C 	C 	0.56992	0.29559	0.70441	0.498
Mof_C 	C 	0.61622	0.31888	0.68112	-0.226
Mof_C 	C 	0.56992	0.70441	0.29559	0.498
Mof_C 	C 	0.61622	0.68112	0.31888	-0.226
Mof_C 	C 	0.93008	0.29559	0.79559	0.479
Mof_C 	C 	0.88378	0.31888	0.81888	-0.197
Mof_C 	C 	0.43008	0.29559	0.29559	0.501
Mof_C 	C 	0.38378	0.31888	0.31888	-0.231
Mof_C 	C 	0.93008	0.70441	0.20441	0.482
Mof_C 	C 	0.88378	0.68112	0.18112	-0.213
Mof_C 	C 	0.20276	0.63785	0.86215	0.158
Mof_H 	H 	0.23101	0.62373	0.87627	0.008
Mof_C 	C 	0.70276	0.63785	0.36215	0.164
Mof_H 	H 	0.73101	0.62373	0.37627	0.002
Mof_C 	C 	0.79724	0.36215	0.86215	0.148
Mof_H 	H 	0.76899	0.37627	0.87627	0.014
Mof_C 	C 	0.29724	0.36215	0.36215	0.169
Mof_H 	H 	0.26899	0.37627	0.37627	-0.003
Mof_C 	C 	0.29724	0.86215	0.86215	0.145
Mof_H 	H 	0.26899	0.87627	0.87627	0.019
Mof_C 	C 	0.79724	0.63785	0.13785	0.163
Mof_H 	H 	0.76899	0.62373	0.12373	-0.004
Mof_C 	C 	0.29724	0.63785	0.63785	0.165
Mof_H 	H 	0.26899	0.62373	0.62373	-0.002
Mof_C 	C 	0.20276	0.36215	0.13785	0.178
Mof_H 	H 	0.23101	0.37627	0.12373	-0.012
Mof_C 	C 	0.20276	0.86215	0.63785	0.158
Mof_H 	H 	0.23101	0.87627	0.62373	0.008
Mof_C 	C 	0.70276	0.36215	0.63785	0.164
Mof_H 	H 	0.73101	0.37627	0.62373	0.002
Mof_C 	C 	0.86215	0.20276	0.63785	0.158
Mof_H 	H 	0.87627	0.23101	0.62373	0.008
Mof_C 	C 	0.86215	0.70276	0.13785	0.159
Mof_H 	H 	0.87627	0.73101	0.12373	0.005
Mof_C 	C 	0.86215	0.79724	0.36215	0.148
Mof_H 	H 	0.87627	0.76899	0.37627	0.014
Mof_C 	C 	0.86215	0.29724	0.86215	0.145
Mof_H 	H 	0.87627	0.26899	0.87627	0.019
Mof_C 	C 	0.13785	0.79724	0.63785	0.163
Mof_H 	H 	0.12373	0.76899	0.62373	-0.004
Mof_C 	C 	0.13785	0.29724	0.13785	0.18
Mof_H 	H 	0.12373	0.26899	0.12373	-0.019
Mof_C 	C 	0.63785	0.29724	0.63785	0.165
Mof_H 	H 	0.62373	0.26899	0.62373	-0.002
Mof_C 	C 	0.13785	0.20276	0.36215	0.178
Mof_H 	H 	0.12373	0.23101	0.37627	-0.012
Mof_C 	C 	0.13785	0.70276	0.86215	0.159
Mof_H 	H 	0.12373	0.73101	0.87627	0.005
Mof_C 	C 	0.63785	0.20276	0.86215	0.158
Mof_H 	H 	0.62373	0.23101	0.87627	0.008
Mof_C 	C 	0.63785	0.86215	0.20276	0.158
Mof_H 	H 	0.62373	0.87627	0.23101	0.008
Mof_C 	C 	0.63785	0.36215	0.70276	0.164
Mof_H 	H 	0.62373	0.37627	0.73101	0.002
Mof_C 	C 	0.36215	0.86215	0.79724	0.148
Mof_H 	H 	0.37627	0.87627	0.76899	0.014
Mof_C 	C 	0.36215	0.36215	0.29724	0.169
Mof_H 	H 	0.37627	0.37627	0.26899	-0.003
Mof_C 	C 	0.86215	0.86215	0.29724	0.145
Mof_H 	H 	0.87627	0.87627	0.26899	0.019
Mof_C 	C 	0.63785	0.13785	0.79724	0.163
Mof_H 	H 	0.62373	0.12373	0.76899	-0.004
Mof_C 	C 	0.63785	0.63785	0.29724	0.165
Mof_H 	H 	0.62373	0.62373	0.26899	-0.002
Mof_C 	C 	0.36215	0.13785	0.20276	0.178
Mof_H 	H 	0.37627	0.12373	0.23101	-0.012
Mof_C 	C 	0.36215	0.63785	0.70276	0.164
Mof_H 	H 	0.37627	0.62373	0.73101	0.002
Mof_C 	C 	0.86215	0.63785	0.20276	0.158
Mof_H 	H 	0.87627	0.62373	0.23101	0.008
Mof_C 	C 	0.63785	0.20276	0.13785	0.176
Mof_H 	H 	0.62373	0.23101	0.12373	-0.011
Mof_C 	C 	0.63785	0.70276	0.63785	0.161
Mof_H 	H 	0.62373	0.73101	0.62373	0.003
Mof_C 	C 	0.36215	0.79724	0.13785	0.166
Mof_H 	H 	0.37627	0.76899	0.12373	-0.005
Mof_C 	C 	0.36215	0.29724	0.63785	0.167
Mof_H 	H 	0.37627	0.26899	0.62373	-0.002
Mof_C 	C 	0.86215	0.79724	0.63785	0.146
Mof_H 	H 	0.87627	0.76899	0.62373	0.015
Mof_C 	C 	0.63785	0.79724	0.86215	0.146
Mof_H 	H 	0.62373	0.76899	0.87627	0.015
Mof_C 	C 	0.63785	0.29724	0.36215	0.167
Mof_H 	H 	0.62373	0.26899	0.37627	-0.002
Mof_C 	C 	0.36215	0.20276	0.86215	0.16
Mof_H 	H 	0.37627	0.23101	0.87627	0.007
Mof_C 	C 	0.36215	0.70276	0.36215	0.166
Mof_H 	H 	0.37627	0.73101	0.37627	0.002
Mof_C 	C 	0.86215	0.70276	0.86215	0.142
Mof_H 	H 	0.87627	0.73101	0.87627	0.023
Mof_C 	C 	0.20276	0.86215	0.36215	0.16
Mof_H 	H 	0.23101	0.87627	0.37627	0.007
Mof_C 	C 	0.70276	0.86215	0.86215	0.142
Mof_H 	H 	0.73101	0.87627	0.87627	0.023
Mof_C 	C 	0.79724	0.86215	0.63785	0.146
Mof_H 	H 	0.76899	0.87627	0.62373	0.015
Mof_C 	C 	0.29724	0.86215	0.13785	0.163
Mof_H 	H 	0.26899	0.87627	0.12373	-0
Mof_C 	C 	0.79724	0.13785	0.36215	0.166
Mof_H 	H 	0.76899	0.12373	0.37627	-0.005
Mof_C 	C 	0.79724	0.63785	0.86215	0.146
Mof_H 	H 	0.76899	0.62373	0.87627	0.015
Mof_C 	C 	0.29724	0.13785	0.86215	0.163
Mof_H 	H 	0.26899	0.12373	0.87627	-0
Mof_C 	C 	0.20276	0.13785	0.63785	0.176
Mof_H 	H 	0.23101	0.12373	0.62373	-0.011
Mof_C 	C 	0.70276	0.13785	0.13785	0.177
Mof_H 	H 	0.73101	0.12373	0.12373	-0.014
Mof_C 	C 	0.70276	0.63785	0.63785	0.161
Mof_H 	H 	0.73101	0.62373	0.62373	0.003
Mof_C 	C 	0.86215	0.63785	0.79724	0.146
Mof_H 	H 	0.87627	0.62373	0.76899	0.015
Mof_C 	C 	0.86215	0.13785	0.29724	0.163
Mof_H 	H 	0.87627	0.12373	0.26899	-0
Mof_C 	C 	0.86215	0.36215	0.20276	0.16
Mof_H 	H 	0.87627	0.37627	0.23101	0.007
Mof_C 	C 	0.86215	0.86215	0.70276	0.142
Mof_H 	H 	0.87627	0.87627	0.73101	0.023
Mof_C 	C 	0.13785	0.63785	0.20276	0.176
Mof_H 	H 	0.12373	0.62373	0.23101	-0.011
Mof_C 	C 	0.13785	0.13785	0.70276	0.177
Mof_H 	H 	0.12373	0.12373	0.73101	-0.014
Mof_C 	C 	0.63785	0.63785	0.70276	0.161
Mof_H 	H 	0.62373	0.62373	0.73101	0.003
Mof_C 	C 	0.13785	0.36215	0.79724	0.166
Mof_H 	H 	0.12373	0.37627	0.76899	-0.005
Mof_C 	C 	0.13785	0.86215	0.29724	0.163
Mof_H 	H 	0.12373	0.87627	0.26899	-0
Mof_C 	C 	0.63785	0.86215	0.79724	0.146
Mof_H 	H 	0.62373	0.87627	0.76899	0.015
Mof_C 	C 	0.79724	0.36215	0.13785	0.166
Mof_H 	H 	0.76899	0.37627	0.12373	-0.005
Mof_C 	C 	0.29724	0.36215	0.63785	0.167
Mof_H 	H 	0.26899	0.37627	0.62373	-0.002
Mof_C 	C 	0.20276	0.63785	0.13785	0.176
Mof_H 	H 	0.23101	0.62373	0.12373	-0.011
Mof_C 	C 	0.20276	0.36215	0.86215	0.16
Mof_H 	H 	0.23101	0.37627	0.87627	0.007
Mof_C 	C 	0.70276	0.36215	0.36215	0.166
Mof_H 	H 	0.73101	0.37627	0.37627	0.002
Mof_C 	C 	0.29724	0.63785	0.36215	0.167
Mof_H 	H 	0.26899	0.62373	0.37627	-0.002
Mof_C 	C 	0.13785	0.79724	0.36215	0.166
Mof_H 	H 	0.12373	0.76899	0.37627	-0.005
Mof_C 	C 	0.13785	0.29724	0.86215	0.163
Mof_H 	H 	0.12373	0.26899	0.87627	-0
Mof_C 	C 	0.13785	0.20276	0.63785	0.176
Mof_H 	H 	0.12373	0.23101	0.62373	-0.011
Mof_C 	C 	0.13785	0.70276	0.13785	0.177
Mof_H 	H 	0.12373	0.73101	0.12373	-0.014
Mof_C 	C 	0.86215	0.20276	0.36215	0.16
Mof_H 	H 	0.87627	0.23101	0.37627	0.007
Mof_C 	C 	0.86215	0.29724	0.13785	0.163
Mof_H 	H 	0.87627	0.26899	0.12373	-0
Mof_C 	C 	0.36215	0.13785	0.79724	0.166
Mof_H 	H 	0.37627	0.12373	0.76899	-0.005
Mof_C 	C 	0.36215	0.63785	0.29724	0.167
Mof_H 	H 	0.37627	0.62373	0.26899	-0.002
Mof_C 	C 	0.63785	0.13785	0.20276	0.176
Mof_H 	H 	0.62373	0.12373	0.23101	-0.011
Mof_C 	C 	0.36215	0.86215	0.20276	0.16
Mof_H 	H 	0.37627	0.87627	0.23101	0.007
Mof_C 	C 	0.36215	0.36215	0.70276	0.166
Mof_H 	H 	0.37627	0.37627	0.73101	0.002
Mof_C 	C 	0.63785	0.36215	0.29724	0.167
Mof_H 	H 	0.62373	0.37627	0.26899	-0.002
Mof_C 	C 	0.36215	0.79724	0.86215	0.148
Mof_H 	H 	0.37627	0.76899	0.87627	0.014
Mof_C 	C 	0.36215	0.29724	0.36215	0.169
Mof_H 	H 	0.37627	0.26899	0.37627	-0.003
Mof_C 	C 	0.63785	0.70276	0.36215	0.164
Mof_H 	H 	0.62373	0.73101	0.37627	0.002
Mof_C 	C 	0.36215	0.20276	0.13785	0.178
Mof_H 	H 	0.37627	0.23101	0.12373	-0.012
Mof_C 	C 	0.36215	0.70276	0.63785	0.164
Mof_H 	H 	0.37627	0.73101	0.62373	0.002
Mof_C 	C 	0.63785	0.79724	0.13785	0.163
Mof_H 	H 	0.62373	0.76899	0.12373	-0.004
Mof_C 	C 	0.79724	0.13785	0.63785	0.163
Mof_H 	H 	0.76899	0.12373	0.62373	-0.004
Mof_C 	C 	0.29724	0.13785	0.13785	0.18
Mof_H 	H 	0.26899	0.12373	0.12373	-0.019
Mof_C 	C 	0.20276	0.13785	0.36215	0.178
Mof_H 	H 	0.23101	0.12373	0.37627	-0.012
Mof_C 	C 	0.70276	0.13785	0.86215	0.159
Mof_H 	H 	0.73101	0.12373	0.87627	0.005
Mof_C 	C 	0.70276	0.86215	0.13785	0.159
Mof_H 	H 	0.73101	0.87627	0.12373	0.005
Mof_C 	C 	0.79724	0.86215	0.36215	0.148
Mof_H 	H 	0.76899	0.87627	0.37627	0.014
Mof_C 	C 	0.13785	0.36215	0.20276	0.178
Mof_H 	H 	0.12373	0.37627	0.23101	-0.012
Mof_C 	C 	0.13785	0.86215	0.70276	0.159
Mof_H 	H 	0.12373	0.87627	0.73101	0.005
Mof_C 	C 	0.13785	0.63785	0.79724	0.163
Mof_H 	H 	0.12373	0.62373	0.76899	-0.004
Mof_C 	C 	0.13785	0.13785	0.29724	0.18
Mof_H 	H 	0.12373	0.12373	0.26899	-0.019
Mof_C 	C 	0.86215	0.36215	0.79724	0.148
Mof_H 	H 	0.87627	0.37627	0.76899	0.014
Mof_C 	C 	0.86215	0.13785	0.70276	0.159
Mof_H 	H 	0.87627	0.12373	0.73101	0.005
_end
