data_functionalizedCrystal
_audit_creation_method	'EQeq! by Chris Wilmer'
_symmetry_space_group_name_H-M	'P1'
_symmetry_Int_Tables_number	1
_symmetry_cell_setting	triclinic
loop_
_symmetry_equiv_pos_as_xyz
  x,y,z
_cell_length_a	7.6439
_cell_length_b	22.013
_cell_length_c	6.1556
_cell_angle_alpha	90
_cell_angle_beta	90
_cell_angle_gamma	90
loop_
_atom_site_label
_atom_site_type_symbol
_atom_site_fract_x
_atom_site_fract_y
_atom_site_fract_z
_atom_site_charge
Mof_Ce	Ce	0.47932	0.35423	0.43918	2.871
Mof_O 	O 	0.3847	0.46168	0.5812	-0.546
Mof_O 	O 	0.6007	0.45698	0.3116	-0.567
Mof_O 	O 	0.5274	0.34561	0.8336	-0.586
Mof_O 	O 	0.6866	0.33662	0.1376	-0.576
Mof_O 	O 	0.7876	0.36198	0.5846	-0.662
Mof_H 	H 	0.8457	0.3905	0.5386	0.294
Mof_O 	O 	0.8417	0.23674	0.783	-0.606
Mof_H 	H 	0.7634	0.2435	0.6953	0.275
Mof_O 	O 	0.1932	0.3357	0.633	-0.584
Mof_O 	O 	0.085	0.25059	0.4933	-0.604
Mof_C 	C 	0.6699	0.3431	0.9364	0.435
Mof_C 	C 	0.8375	0.3491	0.8008	0.042
Mof_H 	H 	0.9078	0.3828	0.8572	-0.005
Mof_C 	C 	0.9455	0.2901	0.8105	0.016
Mof_H 	H 	0.0043	0.288	0.9518	0.017
Mof_C 	C 	0.0857	0.2924	0.6307	0.435
Mof_Ce	Ce	0.52068	0.64577	0.43918	2.876
Mof_O 	O 	0.6153	0.53832	0.5812	-0.54
Mof_O 	O 	0.3993	0.54302	0.3116	-0.569
Mof_O 	O 	0.4726	0.65439	0.8336	-0.582
Mof_O 	O 	0.3134	0.66338	0.1376	-0.578
Mof_O 	O 	0.2124	0.63802	0.5846	-0.672
Mof_H 	H 	0.1543	0.6095	0.5386	0.291
Mof_O 	O 	0.1583	0.76326	0.783	-0.585
Mof_H 	H 	0.2366	0.7565	0.6953	0.269
Mof_O 	O 	0.8068	0.6643	0.633	-0.588
Mof_O 	O 	0.915	0.74941	0.4933	-0.59
Mof_C 	C 	0.3301	0.6569	0.9364	0.424
Mof_C 	C 	0.1625	0.6509	0.8008	0.073
Mof_H 	H 	0.0922	0.6172	0.8572	-0.024
Mof_C 	C 	0.0545	0.7099	0.8105	-0.08
Mof_H 	H 	0.9957	0.712	0.9518	0.069
Mof_C 	C 	0.9143	0.7076	0.6307	0.483
Mof_Ce	Ce	0.02068	0.85423	0.56082	2.758
Mof_O 	O 	0.1153	0.96168	0.4188	-0.5
Mof_O 	O 	0.8993	0.95698	0.6884	-0.499
Mof_O 	O 	0.9726	0.84561	0.1664	-0.549
Mof_O 	O 	0.8134	0.83662	0.8624	-0.553
Mof_O 	O 	0.7124	0.86198	0.4154	-0.646
Mof_H 	H 	0.6543	0.8905	0.4614	0.293
Mof_O 	O 	0.6583	0.73674	0.217	-0.604
Mof_H 	H 	0.7366	0.7435	0.3047	0.276
Mof_O 	O 	0.3068	0.8357	0.367	-0.574
Mof_O 	O 	0.415	0.75059	0.5067	-0.601
Mof_C 	C 	0.8301	0.8431	0.0636	0.424
Mof_C 	C 	0.6625	0.8491	0.1992	0.045
Mof_H 	H 	0.5922	0.8828	0.1428	-0.004
Mof_C 	C 	0.5545	0.7901	0.1895	0.009
Mof_H 	H 	0.4957	0.788	0.0482	0.021
Mof_C 	C 	0.4143	0.7924	0.3693	0.435
Mof_Ce	Ce	0.97932	0.14577	0.56082	2.892
Mof_O 	O 	0.8847	0.03832	0.4188	-0.524
Mof_O 	O 	0.1007	0.04302	0.6884	-0.559
Mof_O 	O 	0.0274	0.15439	0.1664	-0.59
Mof_O 	O 	0.1866	0.16338	0.8624	-0.58
Mof_O 	O 	0.2876	0.13802	0.4154	-0.666
Mof_H 	H 	0.3457	0.1095	0.4614	0.289
Mof_O 	O 	0.3417	0.26326	0.217	-0.604
Mof_H 	H 	0.2634	0.2565	0.3047	0.274
Mof_O 	O 	0.6932	0.1643	0.367	-0.587
Mof_O 	O 	0.585	0.24941	0.5067	-0.603
Mof_C 	C 	0.1699	0.1569	0.0636	0.432
Mof_C 	C 	0.3375	0.1509	0.1992	0.046
Mof_H 	H 	0.4078	0.1172	0.1428	-0.013
Mof_C 	C 	0.4455	0.2099	0.1895	0.006
Mof_H 	H 	0.5043	0.212	0.0482	0.021
Mof_C 	C 	0.5857	0.2076	0.3693	0.44
Mof_S 	S 	0.5	0.5	0.4466	0.691
Mof_S 	S 	-4.422e-33	0	0.5534	0.578
_end
