data_functionalizedCrystal
_audit_creation_method	'EQeq! by Chris Wilmer'
_symmetry_space_group_name_H-M	'P1'
_symmetry_Int_Tables_number	1
_symmetry_cell_setting	triclinic
loop_
_symmetry_equiv_pos_as_xyz
  x,y,z
_cell_length_a	10.3161
_cell_length_b	12.749
_cell_length_c	17.9127
_cell_angle_alpha	90
_cell_angle_beta	102.476
_cell_angle_gamma	90
loop_
_atom_site_label
_atom_site_type_symbol
_atom_site_fract_x
_atom_site_fract_y
_atom_site_fract_z
_atom_site_charge
Mof_In	In	0.754	0.57256	0.22234	3.213
Mof_In	In	0.03099	0.38353	0.29213	2.714
Mof_In	In	0.55673	0.52146	0.37411	2.734
Mof_In	In	0.1329	0.64767	0.0778	2.324
Mof_P 	P 	0.4348	0.61622	0.19238	0.752
Mof_P 	P 	0.77958	0.84016	0.20084	0.749
Mof_P 	P 	0.29745	0.41037	0.44159	0.75
Mof_P 	P 	0.91912	0.45375	0.10785	0.74
Mof_F 	F 	0.7127	0.5939	0.33215	-1.054
Mof_F 	F 	0.9518	0.5377	0.28222	-1.053
Mof_O 	O 	0.3263	0.295	0.4668	-0.731
Mof_O 	O 	0.3191	0.5832	0.1271	-0.665
Mof_O 	O 	0.4422	0.5404	0.26	-0.746
Mof_O 	O 	0.3864	0.4417	0.3865	-0.828
Mof_O 	O 	0.821	0.542	0.1206	-0.774
Mof_O 	O 	0.1508	0.4208	0.4005	-0.704
Mof_O 	O 	0.5624	0.6122	0.1616	-0.768
Mof_O 	O 	0.6324	0.8407	0.1607	-0.717
Mof_O 	O 	0.8611	0.4016	0.0319	-0.677
Mof_O 	O 	0.8254	0.729	0.2301	-0.728
Mof_O 	O 	0.8645	0.8711	0.1425	-0.704
Mof_O 	O 	0.9392	0.3717	0.1723	-0.735
Mof_O 	O 	0.326	0.4797	0.5132	-0.735
Mof_O 	O 	0.8076	0.9158	0.2687	-0.772
Mof_O 	O 	0.4077	0.7277	0.2186	-0.818
Mof_O 	O 	0.0549	0.5037	0.1077	-0.741
Mof_In	In	0.746	0.07256	0.27766	3.199
Mof_In	In	0.46901	0.88353	0.20787	2.709
Mof_In	In	0.94327	0.02146	0.12589	2.706
Mof_In	In	0.3671	0.14767	0.4222	2.33
Mof_P 	P 	0.0652	0.11622	0.30762	0.756
Mof_P 	P 	0.72042	0.34016	0.29916	0.749
Mof_P 	P 	0.20255	0.91037	0.05841	0.749
Mof_P 	P 	0.58088	0.95375	0.39215	0.742
Mof_F 	F 	0.7873	0.0939	0.16785	-1.053
Mof_F 	F 	0.5482	0.0377	0.21778	-1.054
Mof_O 	O 	0.1737	0.795	0.0332	-0.731
Mof_O 	O 	0.1809	0.0832	0.3729	-0.664
Mof_O 	O 	0.0578	0.0404	0.24	-0.738
Mof_O 	O 	0.1136	0.9417	0.1135	-0.826
Mof_O 	O 	0.679	0.042	0.3794	-0.777
Mof_O 	O 	0.3492	0.9208	0.0995	-0.703
Mof_O 	O 	0.9376	0.1122	0.3384	-0.772
Mof_O 	O 	0.8676	0.3407	0.3393	-0.72
Mof_O 	O 	0.6389	0.9016	0.4681	-0.677
Mof_O 	O 	0.6746	0.229	0.2699	-0.728
Mof_O 	O 	0.6355	0.3711	0.3575	-0.714
Mof_O 	O 	0.5608	0.8717	0.3277	-0.734
Mof_O 	O 	0.174	0.9797	0.9868	-0.735
Mof_O 	O 	0.6924	0.4158	0.2313	-0.779
Mof_O 	O 	0.0923	0.2277	0.2814	-0.816
Mof_O 	O 	0.4451	0.0037	0.3923	-0.742
Mof_In	In	0.246	0.42744	0.77766	3.212
Mof_In	In	0.96901	0.61647	0.70787	2.713
Mof_In	In	0.44327	0.47854	0.62589	2.733
Mof_In	In	0.8671	0.35233	0.9222	2.323
Mof_P 	P 	0.5652	0.38378	0.80762	0.751
Mof_P 	P 	0.22042	0.15984	0.79916	0.748
Mof_P 	P 	0.70255	0.58963	0.55841	0.75
Mof_P 	P 	0.08088	0.54625	0.89215	0.74
Mof_F 	F 	0.2873	0.4061	0.66785	-1.054
Mof_F 	F 	0.0482	0.4623	0.71778	-1.053
Mof_O 	O 	0.6737	0.705	0.5332	-0.731
Mof_O 	O 	0.6809	0.4168	0.8729	-0.665
Mof_O 	O 	0.5578	0.4596	0.74	-0.746
Mof_O 	O 	0.6136	0.5583	0.6135	-0.828
Mof_O 	O 	0.179	0.458	0.8794	-0.774
Mof_O 	O 	0.8492	0.5792	0.5995	-0.704
Mof_O 	O 	0.4376	0.3878	0.8384	-0.768
Mof_O 	O 	0.3676	0.1593	0.8393	-0.717
Mof_O 	O 	0.1389	0.5984	0.9681	-0.677
Mof_O 	O 	0.1746	0.271	0.7699	-0.728
Mof_O 	O 	0.1355	0.1289	0.8575	-0.704
Mof_O 	O 	0.0608	0.6283	0.8277	-0.735
Mof_O 	O 	0.674	0.5203	0.4868	-0.735
Mof_O 	O 	0.1924	0.0842	0.7313	-0.772
Mof_O 	O 	0.5923	0.2723	0.7814	-0.818
Mof_O 	O 	0.9451	0.4963	0.8923	-0.741
Mof_In	In	0.254	0.92744	0.72234	3.199
Mof_In	In	0.53099	0.11647	0.79213	2.709
Mof_In	In	0.05673	0.97854	0.87411	2.706
Mof_In	In	0.6329	0.85233	0.5778	2.33
Mof_P 	P 	0.9348	0.88378	0.69238	0.756
Mof_P 	P 	0.27958	0.65984	0.70084	0.749
Mof_P 	P 	0.79745	0.08963	0.94159	0.749
Mof_P 	P 	0.41912	0.04625	0.60785	0.742
Mof_F 	F 	0.2127	0.9061	0.83215	-1.053
Mof_F 	F 	0.4518	0.9623	0.78222	-1.054
Mof_O 	O 	0.8263	0.205	0.9668	-0.731
Mof_O 	O 	0.8191	0.9168	0.6271	-0.664
Mof_O 	O 	0.9422	0.9596	0.76	-0.738
Mof_O 	O 	0.8864	0.0583	0.8865	-0.826
Mof_O 	O 	0.321	0.958	0.6206	-0.777
Mof_O 	O 	0.6508	0.0792	0.9005	-0.703
Mof_O 	O 	0.0624	0.8878	0.6616	-0.772
Mof_O 	O 	0.1324	0.6593	0.6607	-0.72
Mof_O 	O 	0.3611	0.0984	0.5319	-0.677
Mof_O 	O 	0.3254	0.771	0.7301	-0.728
Mof_O 	O 	0.3645	0.6289	0.6425	-0.714
Mof_O 	O 	0.4392	0.1283	0.6723	-0.734
Mof_O 	O 	0.826	0.0203	0.0132	-0.735
Mof_O 	O 	0.3076	0.5842	0.7687	-0.779
Mof_O 	O 	0.9077	0.7723	0.7186	-0.816
Mof_O 	O 	0.5549	0.9963	0.6077	-0.742
_end
