data_functionalizedCrystal
_audit_creation_method	'EQeq! by Chris Wilmer'
_symmetry_space_group_name_H-M	'P1'
_symmetry_Int_Tables_number	1
_symmetry_cell_setting	triclinic
loop_
_symmetry_equiv_pos_as_xyz
  x,y,z
_cell_length_a	17.277
_cell_length_b	6.62
_cell_length_c	23.104
_cell_angle_alpha	90
_cell_angle_beta	94.21
_cell_angle_gamma	90
loop_
_atom_site_label
_atom_site_type_symbol
_atom_site_fract_x
_atom_site_fract_y
_atom_site_fract_z
_atom_site_charge
Mof_Zr	Zr	0.35887	0.99997	0.29932	3.21
Mof_Zr	Zr	0.21853	0.49538	0.42472	3.219
Mof_P 	P 	0.30704	0.50018	0.29229	0.783
Mof_P 	P 	0.26872	0.99796	0.43049	0.752
Mof_P 	P 	0.44381	0.07222	0.16533	0.75
Mof_F 	F 	0.32875	0.4896	0.4561	-0.753
Mof_O 	O 	0.36136	0.6841	0.29249	-0.684
Mof_O 	O 	0.2529	0.4965	0.23671	-0.765
Mof_O 	O 	0.2579	0.5106	0.34453	-0.783
Mof_O 	O 	0.35799	0.3105	0.29605	-0.714
Mof_O 	O 	0.3156	0.0095	0.48985	-0.652
Mof_O 	O 	0.21793	0.8087	0.42802	-0.683
Mof_O 	O 	0.3251	0.9909	0.38226	-0.732
Mof_O 	O 	0.4085	0.0031	0.21997	-0.721
Mof_O 	O 	0.21598	0.1824	0.42248	-0.685
Mof_O 	O 	0.3967	0.0062	0.11025	-0.641
Mof_O 	O 	0.5266	0.9963	0.16372	-0.686
Mof_O 	O 	0.4436	0.3088	0.16198	-0.441
Mof_H 	H 	0.4638	0.3526	0.1944	0.239
Mof_Zr	Zr	0.85887	0.49997	0.29932	3.214
Mof_Zr	Zr	0.71853	0.99538	0.42472	3.218
Mof_P 	P 	0.80704	0.00018	0.29229	0.823
Mof_P 	P 	0.76872	0.49796	0.43049	0.761
Mof_P 	P 	0.94381	0.57222	0.16533	0.73
Mof_F 	F 	0.82875	0.9896	0.4561	-0.759
Mof_O 	O 	0.86136	0.1841	0.29249	-0.677
Mof_O 	O 	0.7529	0.9965	0.23671	-0.792
Mof_O 	O 	0.7579	0.0106	0.34453	-0.78
Mof_O 	O 	0.85799	0.8105	0.29605	-0.74
Mof_O 	O 	0.8156	0.5095	0.48985	-0.655
Mof_O 	O 	0.71793	0.3087	0.42802	-0.682
Mof_O 	O 	0.8251	0.4909	0.38226	-0.727
Mof_O 	O 	0.9085	0.5031	0.21997	-0.734
Mof_O 	O 	0.71598	0.6824	0.42248	-0.699
Mof_O 	O 	0.8967	0.5062	0.11025	-0.648
Mof_O 	O 	0.0266	0.4963	0.16372	-0.658
Mof_O 	O 	0.9436	0.8088	0.16198	-0.443
Mof_H 	H 	0.9638	0.8526	0.1944	0.234
Mof_Zr	Zr	0.64113	0.99997	0.20068	3.211
Mof_Zr	Zr	0.78147	0.49538	0.07528	3.22
Mof_P 	P 	0.69296	0.50018	0.20771	0.784
Mof_P 	P 	0.73128	0.99796	0.06951	0.746
Mof_P 	P 	0.55619	0.07222	0.33467	0.749
Mof_F 	F 	0.67125	0.4896	0.0439	-0.754
Mof_O 	O 	0.63864	0.6841	0.20751	-0.684
Mof_O 	O 	0.7471	0.4965	0.26329	-0.765
Mof_O 	O 	0.7421	0.5106	0.15547	-0.783
Mof_O 	O 	0.64201	0.3105	0.20395	-0.713
Mof_O 	O 	0.6844	0.0095	0.01015	-0.647
Mof_O 	O 	0.78207	0.8087	0.07198	-0.684
Mof_O 	O 	0.6749	0.9909	0.11774	-0.732
Mof_O 	O 	0.5915	0.0031	0.28003	-0.721
Mof_O 	O 	0.78402	0.1824	0.07752	-0.682
Mof_O 	O 	0.6033	0.0062	0.38975	-0.642
Mof_O 	O 	0.4734	0.9963	0.33628	-0.684
Mof_O 	O 	0.5564	0.3088	0.33802	-0.441
Mof_H 	H 	0.5362	0.3526	0.3056	0.239
Mof_Zr	Zr	0.14113	0.49997	0.20068	3.214
Mof_Zr	Zr	0.28147	0.99538	0.07528	3.217
Mof_P 	P 	0.19296	0.00018	0.20771	0.823
Mof_P 	P 	0.23128	0.49796	0.06951	0.761
Mof_P 	P 	0.05619	0.57222	0.33467	0.731
Mof_F 	F 	0.17125	0.9896	0.0439	-0.762
Mof_O 	O 	0.13864	0.1841	0.20751	-0.677
Mof_O 	O 	0.2471	0.9965	0.26329	-0.793
Mof_O 	O 	0.2421	0.0106	0.15547	-0.778
Mof_O 	O 	0.14201	0.8105	0.20395	-0.741
Mof_O 	O 	0.1844	0.5095	0.01015	-0.655
Mof_O 	O 	0.28207	0.3087	0.07198	-0.681
Mof_O 	O 	0.1749	0.4909	0.11774	-0.727
Mof_O 	O 	0.0915	0.5031	0.28003	-0.734
Mof_O 	O 	0.28402	0.6824	0.07752	-0.7
Mof_O 	O 	0.1033	0.5062	0.38975	-0.648
Mof_O 	O 	0.9734	0.4963	0.33628	-0.66
Mof_O 	O 	0.0564	0.8088	0.33802	-0.442
Mof_H 	H 	0.0362	0.8526	0.3056	0.234
Mof_Zr	Zr	0.64113	3e-05	0.70068	3.211
Mof_Zr	Zr	0.78147	0.50462	0.57528	3.22
Mof_P 	P 	0.69296	0.49982	0.70771	0.784
Mof_P 	P 	0.73128	0.00204	0.56951	0.753
Mof_P 	P 	0.55619	0.92778	0.83467	0.75
Mof_F 	F 	0.67125	0.5104	0.5439	-0.753
Mof_O 	O 	0.63864	0.3159	0.70751	-0.684
Mof_O 	O 	0.7471	0.5035	0.76329	-0.765
Mof_O 	O 	0.7421	0.4894	0.65547	-0.783
Mof_O 	O 	0.64201	0.6895	0.70395	-0.714
Mof_O 	O 	0.6844	0.9905	0.51015	-0.652
Mof_O 	O 	0.78207	0.1913	0.57198	-0.683
Mof_O 	O 	0.6749	0.0091	0.61774	-0.732
Mof_O 	O 	0.5915	0.9969	0.78003	-0.721
Mof_O 	O 	0.78402	0.8176	0.57752	-0.685
Mof_O 	O 	0.6033	0.9938	0.88975	-0.641
Mof_O 	O 	0.4734	0.0037	0.83628	-0.686
Mof_O 	O 	0.5564	0.6912	0.83802	-0.441
Mof_H 	H 	0.5362	0.6474	0.8056	0.239
Mof_Zr	Zr	0.14113	0.50003	0.70068	3.214
Mof_Zr	Zr	0.28147	0.00462	0.57528	3.218
Mof_P 	P 	0.19296	0.99982	0.70771	0.823
Mof_P 	P 	0.23128	0.50204	0.56951	0.761
Mof_P 	P 	0.05619	0.42778	0.83467	0.73
Mof_F 	F 	0.17125	0.0104	0.5439	-0.759
Mof_O 	O 	0.13864	0.8159	0.70751	-0.677
Mof_O 	O 	0.2471	0.0035	0.76329	-0.792
Mof_O 	O 	0.2421	0.9894	0.65547	-0.78
Mof_O 	O 	0.14201	0.1895	0.70395	-0.74
Mof_O 	O 	0.1844	0.4905	0.51015	-0.655
Mof_O 	O 	0.28207	0.6913	0.57198	-0.682
Mof_O 	O 	0.1749	0.5091	0.61774	-0.727
Mof_O 	O 	0.0915	0.4969	0.78003	-0.734
Mof_O 	O 	0.28402	0.3176	0.57752	-0.699
Mof_O 	O 	0.1033	0.4938	0.88975	-0.648
Mof_O 	O 	0.9734	0.5037	0.83628	-0.658
Mof_O 	O 	0.0564	0.1912	0.83802	-0.443
Mof_H 	H 	0.0362	0.1474	0.8056	0.234
Mof_Zr	Zr	0.35887	3e-05	0.79932	3.211
Mof_Zr	Zr	0.21853	0.50462	0.92472	3.22
Mof_P 	P 	0.30704	0.49982	0.79229	0.784
Mof_P 	P 	0.26872	0.00204	0.93049	0.746
Mof_P 	P 	0.44381	0.92778	0.66533	0.749
Mof_F 	F 	0.32875	0.5104	0.9561	-0.754
Mof_O 	O 	0.36136	0.3159	0.79249	-0.684
Mof_O 	O 	0.2529	0.5035	0.73671	-0.765
Mof_O 	O 	0.2579	0.4894	0.84453	-0.783
Mof_O 	O 	0.35799	0.6895	0.79605	-0.713
Mof_O 	O 	0.3156	0.9905	0.98985	-0.647
Mof_O 	O 	0.21793	0.1913	0.92802	-0.684
Mof_O 	O 	0.3251	0.0091	0.88226	-0.732
Mof_O 	O 	0.4085	0.9969	0.71997	-0.721
Mof_O 	O 	0.21598	0.8176	0.92248	-0.682
Mof_O 	O 	0.3967	0.9938	0.61025	-0.642
Mof_O 	O 	0.5266	0.0037	0.66372	-0.684
Mof_O 	O 	0.4436	0.6912	0.66198	-0.441
Mof_H 	H 	0.4638	0.6474	0.6944	0.239
Mof_Zr	Zr	0.85887	0.50003	0.79932	3.214
Mof_Zr	Zr	0.71853	0.00462	0.92472	3.217
Mof_P 	P 	0.80704	0.99982	0.79229	0.823
Mof_P 	P 	0.76872	0.50204	0.93049	0.761
Mof_P 	P 	0.94381	0.42778	0.66533	0.731
Mof_F 	F 	0.82875	0.0104	0.9561	-0.762
Mof_O 	O 	0.86136	0.8159	0.79249	-0.677
Mof_O 	O 	0.7529	0.0035	0.73671	-0.793
Mof_O 	O 	0.7579	0.9894	0.84453	-0.778
Mof_O 	O 	0.85799	0.1895	0.79605	-0.741
Mof_O 	O 	0.8156	0.4905	0.98985	-0.655
Mof_O 	O 	0.71793	0.6913	0.92802	-0.681
Mof_O 	O 	0.8251	0.5091	0.88226	-0.727
Mof_O 	O 	0.9085	0.4969	0.71997	-0.734
Mof_O 	O 	0.71598	0.3176	0.92248	-0.7
Mof_O 	O 	0.8967	0.4938	0.61025	-0.648
Mof_O 	O 	0.0266	0.5037	0.66372	-0.66
Mof_O 	O 	0.9436	0.1912	0.66198	-0.442
Mof_H 	H 	0.9638	0.1474	0.6944	0.234
_end
