data_functionalizedCrystal
_audit_creation_method	'EQeq! by Chris Wilmer'
_symmetry_space_group_name_H-M	'P1'
_symmetry_Int_Tables_number	1
_symmetry_cell_setting	triclinic
loop_
_symmetry_equiv_pos_as_xyz
  x,y,z
_cell_length_a	8.6061
_cell_length_b	9.3656
_cell_length_c	13.016
_cell_angle_alpha	90
_cell_angle_beta	105.803
_cell_angle_gamma	90
loop_
_atom_site_label
_atom_site_type_symbol
_atom_site_fract_x
_atom_site_fract_y
_atom_site_fract_z
_atom_site_charge
Mof_Cd	Cd	0.24515	0.2516	0.99082	0.439
Mof_N 	N 	0.1668	0.1974	0.8069	-0.063
Mof_N 	N 	0.2324	0.1947	0.73929	-0.014
Mof_N 	N 	0.2969	0.1858	0.6715	-0.065
Mof_N 	N 	0.0122	0.1247	0.9963	-0.067
Mof_N 	N 	0.4682	0.3797	0.9796	-0.07
Mof_N 	N 	0.3946	0.0443	0.0323	-0.064
Mof_N 	N 	0.0719	0.4486	0.9439	-0.066
Mof_Cd	Cd	0.75485	0.7516	0.50918	0.439
Mof_N 	N 	0.8332	0.6974	0.6931	-0.065
Mof_N 	N 	0.7676	0.6947	0.76071	-0.015
Mof_N 	N 	0.7031	0.6858	0.8285	-0.067
Mof_N 	N 	0.9878	0.6247	0.5037	-0.067
Mof_N 	N 	0.5318	0.8797	0.5204	-0.07
Mof_N 	N 	0.6054	0.5443	0.4677	-0.067
Mof_N 	N 	0.9281	0.9486	0.5561	-0.069
Mof_Cd	Cd	0.75485	0.7484	0.00918	0.442
Mof_N 	N 	0.8332	0.8026	0.1931	-0.066
Mof_N 	N 	0.7676	0.8053	0.26071	-0.015
Mof_N 	N 	0.7031	0.8142	0.3285	-0.066
Mof_N 	N 	0.9878	0.8753	0.0037	-0.069
Mof_N 	N 	0.5318	0.6203	0.0204	-0.067
Mof_N 	N 	0.6054	0.9557	0.9677	-0.072
Mof_N 	N 	0.9281	0.5514	0.0561	-0.066
Mof_Cd	Cd	0.24515	0.2484	0.49082	0.442
Mof_N 	N 	0.1668	0.3026	0.3069	-0.063
Mof_N 	N 	0.2324	0.3053	0.23929	-0.014
Mof_N 	N 	0.2969	0.3142	0.1715	-0.063
Mof_N 	N 	0.0122	0.3753	0.4963	-0.063
Mof_N 	N 	0.4682	0.1203	0.4796	-0.067
Mof_N 	N 	0.3946	0.4557	0.5323	-0.067
Mof_N 	N 	0.0719	0.0514	0.4439	-0.062
Mof_N 	N 	-0	0	-0	-0.009
Mof_N 	N 	3.60747e-33	0.5	0.5	-0.017
Mof_N 	N 	0.5	0.5	-0	-0.015
Mof_N 	N 	0.5	6.25178e-33	0.5	-0.016
Mof_N 	N 	0.5	0	-0	-0.012
Mof_N 	N 	0.5	0.5	0.5	-0.017
Mof_N 	N 	-0	0.5	-0	-0.013
Mof_N 	N 	3.60747e-33	6.25178e-33	0.5	-0.014
_end
