data_functionalizedCrystal
_audit_creation_method	'EQeq! by Chris Wilmer'
_symmetry_space_group_name_H-M	'P1'
_symmetry_Int_Tables_number	1
_symmetry_cell_setting	triclinic
loop_
_symmetry_equiv_pos_as_xyz
  x,y,z
_cell_length_a	30.651
_cell_length_b	25.1663
_cell_length_c	12.6824
_cell_angle_alpha	90
_cell_angle_beta	112.739
_cell_angle_gamma	90
loop_
_atom_site_label
_atom_site_type_symbol
_atom_site_fract_x
_atom_site_fract_y
_atom_site_fract_z
_atom_site_charge
Mof_Ni	Ni	0.06315	0.25456	0.06267	1.116
Mof_O 	O 	0.24169	0.44197	0.15654	-0.433
Mof_O 	O 	0.24036	0.4402	0.33117	-0.432
Mof_O 	O 	0.0392	0.30792	0.93212	-0.429
Mof_O 	O 	0.96146	0.29767	0.83592	-0.415
Mof_N 	N 	0.12407	0.30097	0.12473	-0.211
Mof_C 	C 	0.00062	0.31805	0.8537	0.404
Mof_C 	C 	0.22831	0.42465	0.2312	0.387
Mof_C 	C 	0.19288	0.37981	0.1946	-0.045
Mof_C 	C 	0.17678	0.35937	0.0852	-0.063
Mof_H 	H 	0.1892	0.3721	0.032	0.073
Mof_C 	C 	0.1429	0.32078	0.054	0.076
Mof_H 	H 	0.1321	0.3073	0.9782	0.004
Mof_C 	C 	0.14096	0.3187	0.2313	0.049
Mof_H 	H 	0.129	0.3039	0.2837	0.027
Mof_C 	C 	0.17517	0.35768	0.2697	-0.053
Mof_H 	H 	0.1864	0.3692	0.347	0.065
Mof_O 	O 	0.46734	0.657	0.1179	-0.21
Mof_O 	O 	0.4053	0.7078	0.0198	0.041
Mof_C 	C 	0.4254	0.6689	0.0791	0.319
Mof_C 	C 	0.393	0.6319	0.1038	-0.089
Mof_C 	C 	0.3437	0.6397	0.058	0.04
Mof_C 	C 	0.316	0.6005	0.0761	0.043
Mof_N 	N 	0.3269	0.5628	0.139	-0.292
Mof_C 	C 	0.3799	0.5518	0.1893	-0.055
Mof_C 	C 	0.4115	0.587	0.175	0.066
Mof_N 	N 	0.00192	0.44054	0.61823	-0.217
Mof_C 	C 	0.00095	0.36097	0.7705	-0.121
Mof_C 	C 	0.0374	0.397	0.7995	0.026
Mof_C 	C 	0.0367	0.4368	0.7217	0.013
Mof_O 	O 	0.36847	0.41962	0.4539	-0.19
Mof_O 	O 	0.3161	0.4401	0.5342	0.062
Mof_C 	C 	0.34916	0.414	0.5245	0.278
Mof_C 	C 	0.3691	0.3708	0.6164	-0.075
Mof_C 	C 	0.4122	0.347	0.6356	0.033
Mof_C 	C 	0.43026	0.3103	0.7229	0.059
Mof_N 	N 	0.4094	0.2921	0.7929	-0.377
Mof_C 	C 	0.3658	0.3209	0.7725	-0.043
Mof_C 	C 	0.3408	0.3644	0.6525	0.01
Mof_C 	C 	0.9665	0.4042	0.5901	0.005
Mof_C 	C 	0.9645	0.3648	0.664	0.037
Mof_O 	O 	0.3741	0.58408	0.3154	-0.176
Mof_O 	O 	0.3335	0.5541	0.139	0.03
Mof_C 	C 	0.3585	0.5888	0.2089	0.249
Mof_C 	C 	0.3762	0.6333	0.1543	-0.038
Mof_C 	C 	0.42	0.6575	0.2118	0.044
Mof_C 	C 	0.4349	0.6937	0.1502	-0.017
Mof_N 	N 	0.4127	0.709	0.044	-0.306
Mof_C 	C 	0.3664	0.6854	0.9904	-0.029
Mof_C 	C 	0.3483	0.6473	0.041	-0.011
Mof_O 	O 	0.465	0.3495	0.8249	-0.175
Mof_O 	O 	0.4054	0.3013	0.8097	0.149
Mof_C 	C 	0.4238	0.3372	0.7864	0.168
Mof_C 	C 	0.3893	0.3743	0.6993	-0.015
Mof_C 	C 	0.4052	0.4202	0.6663	0.023
Mof_C 	C 	0.37288	0.4547	0.5911	0.035
Mof_N 	N 	0.327	0.4459	0.54	-0.331
Mof_C 	C 	0.3109	0.3996	0.5743	-0.024
Mof_C 	C 	0.3458	0.3564	0.6864	0.03
Mof_C 	C 	0.0378	0.409	0.666	0.036
Mof_C 	C 	0.0399	0.3711	0.7455	0.013
Mof_C 	C 	0.9655	0.4329	0.6469	0.034
Mof_C 	C 	0.9639	0.3931	0.7208	0.009
Mof_Ni	Ni	0.56315	0.75456	0.06267	1.118
Mof_O 	O 	0.74169	0.94197	0.15654	-0.406
Mof_O 	O 	0.74036	0.9402	0.33117	-0.402
Mof_O 	O 	0.5392	0.80792	0.93212	-0.428
Mof_O 	O 	0.46146	0.79767	0.83592	-0.417
Mof_N 	N 	0.62407	0.80097	0.12473	-0.212
Mof_C 	C 	0.50062	0.81805	0.8537	0.411
Mof_C 	C 	0.72831	0.92465	0.2312	0.381
Mof_C 	C 	0.69288	0.87981	0.1946	-0.033
Mof_C 	C 	0.67678	0.85937	0.0852	-0.068
Mof_H 	H 	0.6892	0.8721	0.032	0.08
Mof_C 	C 	0.6429	0.82078	0.054	0.082
Mof_H 	H 	0.6321	0.8073	0.9782	0.004
Mof_C 	C 	0.64096	0.8187	0.2313	0.055
Mof_H 	H 	0.629	0.8039	0.2837	0.027
Mof_C 	C 	0.67517	0.85768	0.2697	-0.057
Mof_H 	H 	0.6864	0.8692	0.347	0.074
Mof_O 	O 	0.96734	0.157	0.1179	-0.21
Mof_O 	O 	0.9053	0.2078	0.0198	0.041
Mof_C 	C 	0.9254	0.1689	0.0791	0.317
Mof_C 	C 	0.893	0.1319	0.1038	-0.088
Mof_C 	C 	0.8437	0.1397	0.058	0.039
Mof_C 	C 	0.816	0.1005	0.0761	0.039
Mof_N 	N 	0.8269	0.0628	0.139	-0.297
Mof_C 	C 	0.8799	0.0518	0.1893	-0.081
Mof_C 	C 	0.9115	0.087	0.175	0.063
Mof_N 	N 	0.50192	0.94054	0.61823	-0.206
Mof_C 	C 	0.50095	0.86097	0.7705	-0.117
Mof_C 	C 	0.5374	0.897	0.7995	0.031
Mof_C 	C 	0.5367	0.9368	0.7217	0.039
Mof_O 	O 	0.86847	0.91962	0.4539	-0.174
Mof_O 	O 	0.8161	0.9401	0.5342	0.061
Mof_C 	C 	0.84916	0.914	0.5245	0.259
Mof_C 	C 	0.8691	0.8708	0.6164	-0.076
Mof_C 	C 	0.9122	0.847	0.6356	0.035
Mof_C 	C 	0.93026	0.8103	0.7229	0.059
Mof_N 	N 	0.9094	0.7921	0.7929	-0.377
Mof_C 	C 	0.8658	0.8209	0.7725	-0.038
Mof_C 	C 	0.8408	0.8644	0.6525	0.014
Mof_C 	C 	0.4665	0.9042	0.5901	0.003
Mof_C 	C 	0.4645	0.8648	0.664	0.037
Mof_O 	O 	0.8741	0.08408	0.3154	-0.183
Mof_O 	O 	0.8335	0.0541	0.139	0.03
Mof_C 	C 	0.8585	0.0888	0.2089	0.264
Mof_C 	C 	0.8762	0.1333	0.1543	-0.042
Mof_C 	C 	0.92	0.1575	0.2118	0.042
Mof_C 	C 	0.9349	0.1937	0.1502	-0.016
Mof_N 	N 	0.9127	0.209	0.044	-0.305
Mof_C 	C 	0.8664	0.1854	0.9904	-0.031
Mof_C 	C 	0.8483	0.1473	0.041	-0.01
Mof_O 	O 	0.965	0.8495	0.8249	-0.169
Mof_O 	O 	0.9054	0.8013	0.8097	0.15
Mof_C 	C 	0.9238	0.8372	0.7864	0.167
Mof_C 	C 	0.8893	0.8743	0.6993	-0.011
Mof_C 	C 	0.9052	0.9202	0.6663	0.029
Mof_C 	C 	0.87288	0.9547	0.5911	0.069
Mof_N 	N 	0.827	0.9459	0.54	-0.316
Mof_C 	C 	0.8109	0.8996	0.5743	-0.008
Mof_C 	C 	0.8458	0.8564	0.6864	0.028
Mof_C 	C 	0.5378	0.909	0.666	0.036
Mof_C 	C 	0.5399	0.8711	0.7455	0.013
Mof_C 	C 	0.4655	0.9329	0.6469	0.058
Mof_C 	C 	0.4639	0.8931	0.7208	0.011
Mof_Ni	Ni	0.93685	0.25456	0.93733	1.109
Mof_O 	O 	0.75831	0.44197	0.84346	-0.438
Mof_O 	O 	0.75964	0.4402	0.66883	-0.434
Mof_O 	O 	0.9608	0.30792	0.06788	-0.417
Mof_O 	O 	0.03854	0.29767	0.16408	-0.417
Mof_N 	N 	0.87593	0.30097	0.87527	-0.201
Mof_C 	C 	0.99938	0.31805	0.1463	0.413
Mof_C 	C 	0.77169	0.42465	0.7688	0.394
Mof_C 	C 	0.80712	0.37981	0.8054	-0.065
Mof_C 	C 	0.82322	0.35937	0.9148	-0.027
Mof_H 	H 	0.8108	0.3721	0.968	0.052
Mof_C 	C 	0.8571	0.32078	0.946	0.009
Mof_H 	H 	0.8679	0.3073	0.0218	0.046
Mof_C 	C 	0.85904	0.3187	0.7687	0.039
Mof_H 	H 	0.871	0.3039	0.7163	0.03
Mof_C 	C 	0.82483	0.35768	0.7303	-0.04
Mof_H 	H 	0.8136	0.3692	0.653	0.061
Mof_O 	O 	0.53266	0.657	0.8821	-0.215
Mof_O 	O 	0.5947	0.7078	0.9802	0.057
Mof_C 	C 	0.5746	0.6689	0.9209	0.313
Mof_C 	C 	0.607	0.6319	0.8962	-0.107
Mof_C 	C 	0.6563	0.6397	0.942	0.012
Mof_C 	C 	0.684	0.6005	0.9239	0.043
Mof_N 	N 	0.6731	0.5628	0.861	-0.293
Mof_C 	C 	0.6201	0.5518	0.8107	-0.055
Mof_C 	C 	0.5885	0.587	0.825	0.065
Mof_N 	N 	0.99808	0.44054	0.38177	-0.212
Mof_C 	C 	0.99905	0.36097	0.2295	-0.112
Mof_C 	C 	0.9626	0.397	0.2005	0.036
Mof_C 	C 	0.9633	0.4368	0.2783	0.015
Mof_O 	O 	0.63153	0.41962	0.5461	-0.191
Mof_O 	O 	0.6839	0.4401	0.4658	0.062
Mof_C 	C 	0.65084	0.414	0.4755	0.278
Mof_C 	C 	0.6309	0.3708	0.3836	-0.077
Mof_C 	C 	0.5878	0.347	0.3644	0.033
Mof_C 	C 	0.56974	0.3103	0.2771	0.057
Mof_N 	N 	0.5906	0.2921	0.2071	-0.375
Mof_C 	C 	0.6342	0.3209	0.2275	-0.04
Mof_C 	C 	0.6592	0.3644	0.3475	0.01
Mof_C 	C 	0.0335	0.4042	0.4099	0.001
Mof_C 	C 	0.0355	0.3648	0.336	0.032
Mof_O 	O 	0.6259	0.58408	0.6846	-0.174
Mof_O 	O 	0.6665	0.5541	0.861	0.031
Mof_C 	C 	0.6415	0.5888	0.7911	0.241
Mof_C 	C 	0.6238	0.6333	0.8457	-0.013
Mof_C 	C 	0.58	0.6575	0.7882	0.035
Mof_C 	C 	0.5651	0.6937	0.8498	-0.006
Mof_N 	N 	0.5873	0.709	0.956	-0.342
Mof_C 	C 	0.6336	0.6854	0.0096	0.011
Mof_C 	C 	0.6517	0.6473	0.959	-0.011
Mof_O 	O 	0.535	0.3495	0.1751	-0.171
Mof_O 	O 	0.5946	0.3013	0.1903	0.148
Mof_C 	C 	0.5762	0.3372	0.2136	0.17
Mof_C 	C 	0.6107	0.3743	0.3007	-0.013
Mof_C 	C 	0.5948	0.4202	0.3337	0.026
Mof_C 	C 	0.62712	0.4547	0.4089	0.036
Mof_N 	N 	0.673	0.4459	0.46	-0.331
Mof_C 	C 	0.6891	0.3996	0.4257	-0.022
Mof_C 	C 	0.6542	0.3564	0.3136	0.031
Mof_C 	C 	0.9622	0.409	0.334	0.04
Mof_C 	C 	0.9601	0.3711	0.2545	0.008
Mof_C 	C 	0.0345	0.4329	0.3531	0.031
Mof_C 	C 	0.0361	0.3931	0.2792	0.007
Mof_Ni	Ni	0.43685	0.75456	0.93733	1.108
Mof_O 	O 	0.25831	0.94197	0.84346	-0.411
Mof_O 	O 	0.25964	0.9402	0.66883	-0.404
Mof_O 	O 	0.4608	0.80792	0.06788	-0.415
Mof_O 	O 	0.53854	0.79767	0.16408	-0.412
Mof_N 	N 	0.37593	0.80097	0.87527	-0.202
Mof_C 	C 	0.49938	0.81805	0.1463	0.411
Mof_C 	C 	0.27169	0.92465	0.7688	0.388
Mof_C 	C 	0.30712	0.87981	0.8054	-0.053
Mof_C 	C 	0.32322	0.85937	0.9148	-0.031
Mof_H 	H 	0.3108	0.8721	0.968	0.06
Mof_C 	C 	0.3571	0.82078	0.946	0.015
Mof_H 	H 	0.3679	0.8073	0.0218	0.046
Mof_C 	C 	0.35904	0.8187	0.7687	0.045
Mof_H 	H 	0.371	0.8039	0.7163	0.03
Mof_C 	C 	0.32483	0.85768	0.7303	-0.044
Mof_H 	H 	0.3136	0.8692	0.653	0.07
Mof_O 	O 	0.03266	0.157	0.8821	-0.219
Mof_O 	O 	0.0947	0.2078	0.9802	0.057
Mof_C 	C 	0.0746	0.1689	0.9209	0.313
Mof_C 	C 	0.107	0.1319	0.8962	-0.107
Mof_C 	C 	0.1563	0.1397	0.942	0.011
Mof_C 	C 	0.184	0.1005	0.9239	0.038
Mof_N 	N 	0.1731	0.0628	0.861	-0.298
Mof_C 	C 	0.1201	0.0518	0.8107	-0.082
Mof_C 	C 	0.0885	0.087	0.825	0.059
Mof_N 	N 	0.49808	0.94054	0.38177	-0.206
Mof_C 	C 	0.49905	0.86097	0.2295	-0.116
Mof_C 	C 	0.4626	0.897	0.2005	0.04
Mof_C 	C 	0.4633	0.9368	0.2783	0.04
Mof_O 	O 	0.13153	0.91962	0.5461	-0.175
Mof_O 	O 	0.1839	0.9401	0.4658	0.062
Mof_C 	C 	0.15084	0.914	0.4755	0.258
Mof_C 	C 	0.1309	0.8708	0.3836	-0.078
Mof_C 	C 	0.0878	0.847	0.3644	0.034
Mof_C 	C 	0.06974	0.8103	0.2771	0.056
Mof_N 	N 	0.0906	0.7921	0.2071	-0.376
Mof_C 	C 	0.1342	0.8209	0.2275	-0.036
Mof_C 	C 	0.1592	0.8644	0.3475	0.014
Mof_C 	C 	0.5335	0.9042	0.4099	0.003
Mof_C 	C 	0.5355	0.8648	0.336	0.036
Mof_O 	O 	0.1259	0.08408	0.6846	-0.182
Mof_O 	O 	0.1665	0.0541	0.861	0.031
Mof_C 	C 	0.1415	0.0888	0.7911	0.257
Mof_C 	C 	0.1238	0.1333	0.8457	-0.015
Mof_C 	C 	0.08	0.1575	0.7882	0.032
Mof_C 	C 	0.0651	0.1937	0.8498	-0.007
Mof_N 	N 	0.0873	0.209	0.956	-0.341
Mof_C 	C 	0.1336	0.1854	0.0096	0.009
Mof_C 	C 	0.1517	0.1473	0.959	-0.01
Mof_O 	O 	0.035	0.8495	0.1751	-0.169
Mof_O 	O 	0.0946	0.8013	0.1903	0.149
Mof_C 	C 	0.0762	0.8372	0.2136	0.172
Mof_C 	C 	0.1107	0.8743	0.3007	-0.01
Mof_C 	C 	0.0948	0.9202	0.3337	0.03
Mof_C 	C 	0.12712	0.9547	0.4089	0.069
Mof_N 	N 	0.173	0.9459	0.46	-0.316
Mof_C 	C 	0.1891	0.8996	0.4257	-0.006
Mof_C 	C 	0.1542	0.8564	0.3136	0.028
Mof_C 	C 	0.4622	0.909	0.334	0.038
Mof_C 	C 	0.4601	0.8711	0.2545	0.01
Mof_C 	C 	0.5345	0.9329	0.3531	0.059
Mof_C 	C 	0.5361	0.8931	0.2792	0.014
Mof_Ni	Ni	0.93685	0.74544	0.93733	1.109
Mof_O 	O 	0.75831	0.55803	0.84346	-0.438
Mof_O 	O 	0.75964	0.5598	0.66883	-0.434
Mof_O 	O 	0.9608	0.69208	0.06788	-0.417
Mof_O 	O 	0.03854	0.70233	0.16408	-0.417
Mof_N 	N 	0.87593	0.69903	0.87527	-0.201
Mof_C 	C 	0.99938	0.68195	0.1463	0.413
Mof_C 	C 	0.77169	0.57535	0.7688	0.394
Mof_C 	C 	0.80712	0.62019	0.8054	-0.065
Mof_C 	C 	0.82322	0.64063	0.9148	-0.027
Mof_H 	H 	0.8108	0.6279	0.968	0.053
Mof_C 	C 	0.8571	0.67922	0.946	0.009
Mof_H 	H 	0.8679	0.6927	0.0218	0.046
Mof_C 	C 	0.85904	0.6813	0.7687	0.04
Mof_H 	H 	0.871	0.6961	0.7163	0.03
Mof_C 	C 	0.82483	0.64232	0.7303	-0.04
Mof_H 	H 	0.8136	0.6308	0.653	0.061
Mof_O 	O 	0.53266	0.343	0.8821	-0.215
Mof_O 	O 	0.5947	0.2922	0.9802	0.057
Mof_C 	C 	0.5746	0.3311	0.9209	0.313
Mof_C 	C 	0.607	0.3681	0.8962	-0.106
Mof_C 	C 	0.6563	0.3603	0.942	0.011
Mof_C 	C 	0.684	0.3995	0.9239	0.043
Mof_N 	N 	0.6731	0.4372	0.861	-0.293
Mof_C 	C 	0.6201	0.4482	0.8107	-0.055
Mof_C 	C 	0.5885	0.413	0.825	0.065
Mof_N 	N 	0.99808	0.55946	0.38177	-0.212
Mof_C 	C 	0.99905	0.63903	0.2295	-0.112
Mof_C 	C 	0.9626	0.603	0.2005	0.036
Mof_C 	C 	0.9633	0.5632	0.2783	0.015
Mof_O 	O 	0.63153	0.58038	0.5461	-0.19
Mof_O 	O 	0.6839	0.5599	0.4658	0.062
Mof_C 	C 	0.65084	0.586	0.4755	0.278
Mof_C 	C 	0.6309	0.6292	0.3836	-0.076
Mof_C 	C 	0.5878	0.653	0.3644	0.033
Mof_C 	C 	0.56974	0.6897	0.2771	0.058
Mof_N 	N 	0.5906	0.7079	0.2071	-0.375
Mof_C 	C 	0.6342	0.6791	0.2275	-0.039
Mof_C 	C 	0.6592	0.6356	0.3475	0.01
Mof_C 	C 	0.0335	0.5958	0.4099	0.001
Mof_C 	C 	0.0355	0.6352	0.336	0.032
Mof_O 	O 	0.6259	0.41592	0.6846	-0.174
Mof_O 	O 	0.6665	0.4459	0.861	0.031
Mof_C 	C 	0.6415	0.4112	0.7911	0.241
Mof_C 	C 	0.6238	0.3667	0.8457	-0.013
Mof_C 	C 	0.58	0.3425	0.7882	0.034
Mof_C 	C 	0.5651	0.3063	0.8498	-0.007
Mof_N 	N 	0.5873	0.291	0.956	-0.342
Mof_C 	C 	0.6336	0.3146	0.0096	0.011
Mof_C 	C 	0.6517	0.3527	0.959	-0.011
Mof_O 	O 	0.535	0.6505	0.1751	-0.171
Mof_O 	O 	0.5946	0.6987	0.1903	0.148
Mof_C 	C 	0.5762	0.6628	0.2136	0.17
Mof_C 	C 	0.6107	0.6257	0.3007	-0.014
Mof_C 	C 	0.5948	0.5798	0.3337	0.026
Mof_C 	C 	0.62712	0.5453	0.4089	0.036
Mof_N 	N 	0.673	0.5541	0.46	-0.332
Mof_C 	C 	0.6891	0.6004	0.4257	-0.022
Mof_C 	C 	0.6542	0.6436	0.3136	0.031
Mof_C 	C 	0.9622	0.591	0.334	0.04
Mof_C 	C 	0.9601	0.6289	0.2545	0.009
Mof_C 	C 	0.0345	0.5671	0.3531	0.031
Mof_C 	C 	0.0361	0.6069	0.2792	0.007
Mof_Ni	Ni	0.43685	0.24544	0.93733	1.108
Mof_O 	O 	0.25831	0.05803	0.84346	-0.446
Mof_O 	O 	0.25964	0.0598	0.66883	-0.438
Mof_O 	O 	0.4608	0.19208	0.06788	-0.418
Mof_O 	O 	0.53854	0.20233	0.16408	-0.414
Mof_N 	N 	0.37593	0.19903	0.87527	-0.201
Mof_C 	C 	0.49938	0.18195	0.1463	0.408
Mof_C 	C 	0.27169	0.07535	0.7688	0.393
Mof_C 	C 	0.30712	0.12019	0.8054	-0.068
Mof_C 	C 	0.32322	0.14063	0.9148	-0.027
Mof_H 	H 	0.3108	0.1279	0.968	0.051
Mof_C 	C 	0.3571	0.17922	0.946	0.008
Mof_H 	H 	0.3679	0.1927	0.0218	0.045
Mof_C 	C 	0.35904	0.1813	0.7687	0.038
Mof_H 	H 	0.371	0.1961	0.7163	0.03
Mof_C 	C 	0.32483	0.14232	0.7303	-0.04
Mof_H 	H 	0.3136	0.1308	0.653	0.061
Mof_O 	O 	0.03266	0.843	0.8821	-0.214
Mof_O 	O 	0.0947	0.7922	0.9802	0.057
Mof_C 	C 	0.0746	0.8311	0.9209	0.317
Mof_C 	C 	0.107	0.8681	0.8962	-0.106
Mof_C 	C 	0.1563	0.8603	0.942	0.014
Mof_C 	C 	0.184	0.8995	0.9239	0.053
Mof_N 	N 	0.1731	0.9372	0.861	-0.281
Mof_C 	C 	0.1201	0.9482	0.8107	-0.022
Mof_C 	C 	0.0885	0.913	0.825	0.067
Mof_N 	N 	0.49808	0.05946	0.38177	-0.217
Mof_C 	C 	0.49905	0.13903	0.2295	-0.116
Mof_C 	C 	0.4626	0.103	0.2005	0.034
Mof_C 	C 	0.4633	0.0632	0.2783	-0.004
Mof_O 	O 	0.13153	0.08038	0.5461	-0.198
Mof_O 	O 	0.1839	0.0599	0.4658	0.062
Mof_C 	C 	0.15084	0.086	0.4755	0.29
Mof_C 	C 	0.1309	0.1292	0.3836	-0.077
Mof_C 	C 	0.0878	0.153	0.3644	0.03
Mof_C 	C 	0.06974	0.1897	0.2771	0.057
Mof_N 	N 	0.0906	0.2079	0.2071	-0.375
Mof_C 	C 	0.1342	0.1791	0.2275	-0.041
Mof_C 	C 	0.1592	0.1356	0.3475	0.009
Mof_C 	C 	0.5335	0.0958	0.4099	0.007
Mof_C 	C 	0.5355	0.1352	0.336	0.034
Mof_O 	O 	0.1259	0.91592	0.6846	-0.16
Mof_O 	O 	0.1665	0.9459	0.861	0.033
Mof_C 	C 	0.1415	0.9112	0.7911	0.222
Mof_C 	C 	0.1238	0.8667	0.8457	-0.011
Mof_C 	C 	0.08	0.8425	0.7882	0.035
Mof_C 	C 	0.0651	0.8063	0.8498	-0.009
Mof_N 	N 	0.0873	0.791	0.956	-0.342
Mof_C 	C 	0.1336	0.8146	0.0096	0.014
Mof_C 	C 	0.1517	0.8527	0.959	-0.012
Mof_O 	O 	0.035	0.1505	0.1751	-0.177
Mof_O 	O 	0.0946	0.1987	0.1903	0.149
Mof_C 	C 	0.0762	0.1628	0.2136	0.17
Mof_C 	C 	0.1107	0.1257	0.3007	-0.014
Mof_C 	C 	0.0948	0.0798	0.3337	0.019
Mof_C 	C 	0.12712	0.0453	0.4089	0.01
Mof_N 	N 	0.173	0.0541	0.46	-0.335
Mof_C 	C 	0.1891	0.1004	0.4257	-0.026
Mof_C 	C 	0.1542	0.1436	0.3136	0.032
Mof_C 	C 	0.4622	0.091	0.334	0.047
Mof_C 	C 	0.4601	0.1289	0.2545	0.007
Mof_C 	C 	0.5345	0.0671	0.3531	0.022
Mof_C 	C 	0.5361	0.1069	0.2792	0.008
Mof_Ni	Ni	0.06315	0.74544	0.06267	1.117
Mof_O 	O 	0.24169	0.55803	0.15654	-0.432
Mof_O 	O 	0.24036	0.5598	0.33117	-0.432
Mof_O 	O 	0.0392	0.69208	0.93212	-0.429
Mof_O 	O 	0.96146	0.70233	0.83592	-0.415
Mof_N 	N 	0.12407	0.69903	0.12473	-0.211
Mof_C 	C 	0.00062	0.68195	0.8537	0.404
Mof_C 	C 	0.22831	0.57535	0.2312	0.387
Mof_C 	C 	0.19288	0.62019	0.1946	-0.045
Mof_C 	C 	0.17678	0.64063	0.0852	-0.063
Mof_H 	H 	0.1892	0.6279	0.032	0.073
Mof_C 	C 	0.1429	0.67922	0.054	0.076
Mof_H 	H 	0.1321	0.6927	0.9782	0.004
Mof_C 	C 	0.14096	0.6813	0.2313	0.049
Mof_H 	H 	0.129	0.6961	0.2837	0.027
Mof_C 	C 	0.17517	0.64232	0.2697	-0.053
Mof_H 	H 	0.1864	0.6308	0.347	0.066
Mof_O 	O 	0.46734	0.343	0.1179	-0.21
Mof_O 	O 	0.4053	0.2922	0.0198	0.041
Mof_C 	C 	0.4254	0.3311	0.0791	0.32
Mof_C 	C 	0.393	0.3681	0.1038	-0.089
Mof_C 	C 	0.3437	0.3603	0.058	0.04
Mof_C 	C 	0.316	0.3995	0.0761	0.043
Mof_N 	N 	0.3269	0.4372	0.139	-0.292
Mof_C 	C 	0.3799	0.4482	0.1893	-0.055
Mof_C 	C 	0.4115	0.413	0.175	0.066
Mof_N 	N 	0.00192	0.55946	0.61823	-0.217
Mof_C 	C 	0.00095	0.63903	0.7705	-0.121
Mof_C 	C 	0.0374	0.603	0.7995	0.026
Mof_C 	C 	0.0367	0.5632	0.7217	0.013
Mof_O 	O 	0.36847	0.58038	0.4539	-0.19
Mof_O 	O 	0.3161	0.5599	0.5342	0.062
Mof_C 	C 	0.34916	0.586	0.5245	0.278
Mof_C 	C 	0.3691	0.6292	0.6164	-0.074
Mof_C 	C 	0.4122	0.653	0.6356	0.033
Mof_C 	C 	0.43026	0.6897	0.7229	0.06
Mof_N 	N 	0.4094	0.7079	0.7929	-0.377
Mof_C 	C 	0.3658	0.6791	0.7725	-0.042
Mof_C 	C 	0.3408	0.6356	0.6525	0.01
Mof_C 	C 	0.9665	0.5958	0.5901	0.005
Mof_C 	C 	0.9645	0.6352	0.664	0.038
Mof_O 	O 	0.3741	0.41592	0.3154	-0.176
Mof_O 	O 	0.3335	0.4459	0.139	0.03
Mof_C 	C 	0.3585	0.4112	0.2089	0.249
Mof_C 	C 	0.3762	0.3667	0.1543	-0.038
Mof_C 	C 	0.42	0.3425	0.2118	0.043
Mof_C 	C 	0.4349	0.3063	0.1502	-0.018
Mof_N 	N 	0.4127	0.291	0.044	-0.306
Mof_C 	C 	0.3664	0.3146	0.9904	-0.029
Mof_C 	C 	0.3483	0.3527	0.041	-0.011
Mof_O 	O 	0.465	0.6505	0.8249	-0.175
Mof_O 	O 	0.4054	0.6987	0.8097	0.149
Mof_C 	C 	0.4238	0.6628	0.7864	0.167
Mof_C 	C 	0.3893	0.6257	0.6993	-0.015
Mof_C 	C 	0.4052	0.5798	0.6663	0.023
Mof_C 	C 	0.37288	0.5453	0.5911	0.035
Mof_N 	N 	0.327	0.5541	0.54	-0.331
Mof_C 	C 	0.3109	0.6004	0.5743	-0.024
Mof_C 	C 	0.3458	0.6436	0.6864	0.03
Mof_C 	C 	0.0378	0.591	0.666	0.036
Mof_C 	C 	0.0399	0.6289	0.7455	0.013
Mof_C 	C 	0.9655	0.5671	0.6469	0.034
Mof_C 	C 	0.9639	0.6069	0.7208	0.009
Mof_Ni	Ni	0.56315	0.24544	0.06267	1.118
Mof_O 	O 	0.74169	0.05803	0.15654	-0.441
Mof_O 	O 	0.74036	0.0598	0.33117	-0.436
Mof_O 	O 	0.5392	0.19208	0.93212	-0.431
Mof_O 	O 	0.46146	0.20233	0.83592	-0.419
Mof_N 	N 	0.62407	0.19903	0.12473	-0.211
Mof_C 	C 	0.50062	0.18195	0.8537	0.408
Mof_C 	C 	0.72831	0.07535	0.2312	0.386
Mof_C 	C 	0.69288	0.12019	0.1946	-0.048
Mof_C 	C 	0.67678	0.14063	0.0852	-0.064
Mof_H 	H 	0.6892	0.1279	0.032	0.071
Mof_C 	C 	0.6429	0.17922	0.054	0.075
Mof_H 	H 	0.6321	0.1927	0.9782	0.004
Mof_C 	C 	0.64096	0.1813	0.2313	0.048
Mof_H 	H 	0.629	0.1961	0.2837	0.027
Mof_C 	C 	0.67517	0.14232	0.2697	-0.053
Mof_H 	H 	0.6864	0.1308	0.347	0.065
Mof_O 	O 	0.96734	0.843	0.1179	-0.204
Mof_O 	O 	0.9053	0.7922	0.0198	0.041
Mof_C 	C 	0.9254	0.8311	0.0791	0.32
Mof_C 	C 	0.893	0.8681	0.1038	-0.087
Mof_C 	C 	0.8437	0.8603	0.058	0.042
Mof_C 	C 	0.816	0.8995	0.0761	0.054
Mof_N 	N 	0.8269	0.9372	0.139	-0.28
Mof_C 	C 	0.8799	0.9482	0.1893	-0.021
Mof_C 	C 	0.9115	0.913	0.175	0.071
Mof_N 	N 	0.50192	0.05946	0.61823	-0.217
Mof_C 	C 	0.50095	0.13903	0.7705	-0.117
Mof_C 	C 	0.5374	0.103	0.7995	0.025
Mof_C 	C 	0.5367	0.0632	0.7217	-0.004
Mof_O 	O 	0.86847	0.08038	0.4539	-0.197
Mof_O 	O 	0.8161	0.0599	0.5342	0.061
Mof_C 	C 	0.84916	0.086	0.5245	0.29
Mof_C 	C 	0.8691	0.1292	0.6164	-0.075
Mof_C 	C 	0.9122	0.153	0.6356	0.031
Mof_C 	C 	0.93026	0.1897	0.7229	0.06
Mof_N 	N 	0.9094	0.2079	0.7929	-0.376
Mof_C 	C 	0.8658	0.1791	0.7725	-0.044
Mof_C 	C 	0.8408	0.1356	0.6525	0.009
Mof_C 	C 	0.4665	0.0958	0.5901	0.008
Mof_C 	C 	0.4645	0.1352	0.664	0.035
Mof_O 	O 	0.8741	0.91592	0.3154	-0.161
Mof_O 	O 	0.8335	0.9459	0.139	0.032
Mof_C 	C 	0.8585	0.9112	0.2089	0.229
Mof_C 	C 	0.8762	0.8667	0.1543	-0.037
Mof_C 	C 	0.92	0.8425	0.2118	0.045
Mof_C 	C 	0.9349	0.8063	0.1502	-0.018
Mof_N 	N 	0.9127	0.791	0.044	-0.306
Mof_C 	C 	0.8664	0.8146	0.9904	-0.027
Mof_C 	C 	0.8483	0.8527	0.041	-0.012
Mof_O 	O 	0.965	0.1505	0.8249	-0.176
Mof_O 	O 	0.9054	0.1987	0.8097	0.149
Mof_C 	C 	0.9238	0.1628	0.7864	0.166
Mof_C 	C 	0.8893	0.1257	0.6993	-0.016
Mof_C 	C 	0.9052	0.0798	0.6663	0.018
Mof_C 	C 	0.87288	0.0453	0.5911	0.009
Mof_N 	N 	0.827	0.0541	0.54	-0.335
Mof_C 	C 	0.8109	0.1004	0.5743	-0.027
Mof_C 	C 	0.8458	0.1436	0.6864	0.031
Mof_C 	C 	0.5378	0.091	0.666	0.046
Mof_C 	C 	0.5399	0.1289	0.7455	0.011
Mof_C 	C 	0.4655	0.0671	0.6469	0.021
Mof_C 	C 	0.4639	0.1069	0.7208	0.005
Mof_Ni	Ni	0.28687	0.5	0.15615	1.1
Mof_Ni	Ni	0.27989	0.5	0.4288	1.111
Mof_O 	O 	0.32407	0.5	0.33474	-0.342
Mof_O 	O 	0.07431	0.5	0.5514	-0.417
Mof_O 	O 	0.12597	0.5	0.7255	-0.276
Mof_N 	N 	0.22987	0.5	0.506	-0.21
Mof_C 	C 	0.11444	0.5	0.6209	0.37
Mof_C 	C 	0.15582	0.5	0.5812	-0.047
Mof_C 	C 	0.1469	0.5	0.4683	-0.05
Mof_H 	H 	0.1152	0.5	0.4139	0.058
Mof_C 	C 	0.18408	0.5	0.432	0.037
Mof_H 	H 	0.1772	0.5	0.3523	0.025
Mof_C 	C 	0.2382	0.5	0.6119	0.059
Mof_H 	H 	0.2701	0.5	0.6653	0.004
Mof_C 	C 	0.2014	0.5	0.6525	-0.059
Mof_H 	H 	0.2092	0.5	0.7326	0.057
Mof_Ni	Ni	0.78687	0	0.15615	1.081
Mof_Ni	Ni	0.77989	0	0.4288	1.096
Mof_O 	O 	0.82407	0	0.33474	-0.369
Mof_O 	O 	0.57431	-5.5957e-33	0.5514	-0.434
Mof_O 	O 	0.62597	0	0.7255	-0.293
Mof_N 	N 	0.72987	0	0.506	-0.216
Mof_C 	C 	0.61444	0	0.6209	0.372
Mof_C 	C 	0.65582	0	0.5812	-0.06
Mof_C 	C 	0.6469	-2.79785e-33	0.4683	-0.049
Mof_H 	H 	0.6152	0	0.4139	0.047
Mof_C 	C 	0.68408	0	0.432	0.027
Mof_H 	H 	0.6772	0	0.3523	0.015
Mof_C 	C 	0.7382	0	0.6119	0.05
Mof_H 	H 	0.7701	0	0.6653	-0.006
Mof_C 	C 	0.7014	0	0.6525	-0.058
Mof_H 	H 	0.7092	-5.5957e-33	0.7326	0.048
Mof_Ni	Ni	0.71313	0.5	0.84385	1.098
Mof_Ni	Ni	0.72011	0.5	0.5712	1.112
Mof_O 	O 	0.67593	0.5	0.66526	-0.342
Mof_O 	O 	0.92569	0.5	0.4486	-0.415
Mof_O 	O 	0.87403	0.5	0.2745	-0.269
Mof_N 	N 	0.77013	0.5	0.494	-0.21
Mof_C 	C 	0.88556	0.5	0.3791	0.368
Mof_C 	C 	0.84418	0.5	0.4188	-0.044
Mof_C 	C 	0.8531	0.5	0.5317	-0.052
Mof_H 	H 	0.8848	0.5	0.5861	0.059
Mof_C 	C 	0.81592	0.5	0.568	0.039
Mof_H 	H 	0.8228	0.5	0.6477	0.024
Mof_C 	C 	0.7618	0.5	0.3881	0.061
Mof_H 	H 	0.7299	0.5	0.3347	0.006
Mof_C 	C 	0.7986	0.5	0.3475	-0.06
Mof_H 	H 	0.7908	0.5	0.2674	0.063
Mof_Ni	Ni	0.21313	-5.5957e-33	0.84385	1.08
Mof_Ni	Ni	0.22011	0	0.5712	1.096
Mof_O 	O 	0.17593	0	0.66526	-0.369
Mof_O 	O 	0.42569	0	0.4486	-0.433
Mof_O 	O 	0.37403	0	0.2745	-0.287
Mof_N 	N 	0.27013	-2.79785e-33	0.494	-0.216
Mof_C 	C 	0.38556	0	0.3791	0.37
Mof_C 	C 	0.34418	2.79785e-33	0.4188	-0.056
Mof_C 	C 	0.3531	-2.79785e-33	0.5317	-0.051
Mof_H 	H 	0.3848	2.79785e-33	0.5861	0.047
Mof_C 	C 	0.31592	0	0.568	0.029
Mof_H 	H 	0.3228	-5.5957e-33	0.6477	0.014
Mof_C 	C 	0.2618	-2.79785e-33	0.3881	0.052
Mof_H 	H 	0.2299	0	0.3347	-0.004
Mof_C 	C 	0.2986	-2.79785e-33	0.3475	-0.06
Mof_H 	H 	0.2908	-1.39892e-33	0.2674	0.054
Mof_Ni	Ni	1.07552e-33	0.5	0.5	1.092
Mof_Ni	Ni	0.5	0	0.5	1.079
Mof_O 	O 	-1.39892e-33	0.21114	-0	-0.343
Mof_O 	O 	0.5	0.71114	-0	-0.34
Mof_O 	O 	-0	0.78886	-0	-0.342
Mof_O 	O 	0.5	0.28886	-0	-0.339
_end
