data_functionalizedCrystal
_audit_creation_method	'EQeq! by Chris Wilmer'
_symmetry_space_group_name_H-M	'P1'
_symmetry_Int_Tables_number	1
_symmetry_cell_setting	triclinic
loop_
_symmetry_equiv_pos_as_xyz
  x,y,z
_cell_length_a	12.0935
_cell_length_b	34.0051
_cell_length_c	31.9458
_cell_angle_alpha	90
_cell_angle_beta	93.564
_cell_angle_gamma	90
loop_
_atom_site_label
_atom_site_type_symbol
_atom_site_fract_x
_atom_site_fract_y
_atom_site_fract_z
_atom_site_charge
Mof_Zn	Zn	0.82687	0.66579	0.54966	1.211
Mof_Zn	Zn	0.42316	0.42325	0.65511	1.211
Mof_O 	O 	0.8945	0.71426	0.57213	-0.449
Mof_O 	O 	0.0487	0.67889	0.5836	-0.306
Mof_O 	O 	0.0254	0.88041	0.64607	-0.447
Mof_O 	O 	0.869	0.84973	0.62392	-0.321
Mof_O 	O 	0.8018	0.63346	0.59811	-0.449
Mof_O 	O 	0.7345	0.5876	0.55381	-0.327
Mof_O 	O 	0.5583	0.46919	0.61153	-0.313
Mof_O 	O 	0.495	0.47292	0.67541	-0.44
Mof_N 	N 	0.8957	0.64844	0.49763	-0.285
Mof_N 	N 	0.0486	0.61685	0.38907	-0.124
Mof_N 	N 	0.1694	0.60725	0.3153	-0.129
Mof_N 	N 	0.3401	0.58867	0.20714	-0.277
Mof_N 	N 	0.6751	0.68773	0.53021	-0.275
Mof_N 	N 	0.3594	0.73475	0.50356	-0.126
Mof_N 	N 	0.305	0.44073	0.61249	-0.286
Mof_N 	N 	0.0401	0.4702	0.52679	-0.126
Mof_C 	C 	0.8418	0.65057	0.45946	0.098
Mof_H 	H 	0.7673	0.6596	0.4578	-0.016
Mof_C 	C 	0.8886	0.64034	0.42279	-0.184
Mof_H 	H 	0.8463	0.6422	0.3968	0.102
Mof_C 	C 	0.9974	0.6273	0.42385	0.157
Mof_C 	C 	0.0547	0.6248	0.46395	-0.176
Mof_H 	H 	0.1293	0.6159	0.4666	0.088
Mof_C 	C 	0.0012	0.63533	0.49878	0.09
Mof_H 	H 	0.0407	0.6333	0.5253	-0.009
Mof_C 	C 	0.1645	0.60345	0.3914	-0.045
Mof_H 	H 	0.2142	0.6264	0.3961	0.052
Mof_H 	H 	0.1771	0.5854	0.4156	0.044
Mof_C 	C 	0.1923	0.58308	0.35284	-0.046
Mof_H 	H 	0.2718	0.576	0.355	0.052
Mof_H 	H 	0.1489	0.5584	0.35	0.05
Mof_C 	C 	0.082	0.6356	0.31709	-0.033
Mof_H 	H 	0.0461	0.6393	0.2887	0.033
Mof_H 	H 	0.1136	0.6612	0.3266	0.042
Mof_C 	C 	0.9967	0.62263	0.34651	-0.054
Mof_H 	H 	0.9378	0.6428	0.3473	0.042
Mof_H 	H 	0.9623	0.5977	0.3363	0.051
Mof_C 	C 	0.2255	0.60159	0.2802	0.171
Mof_C 	C 	0.2146	0.62681	0.24595	-0.193
Mof_H 	H 	0.1666	0.6489	0.2465	0.092
Mof_C 	C 	0.273	0.61991	0.21144	0.101
Mof_H 	H 	0.2658	0.6383	0.189	-0.014
Mof_C 	C 	0.3486	0.56456	0.24052	0.102
Mof_H 	H 	0.3953	0.5422	0.239	-0.008
Mof_C 	C 	0.2955	0.56983	0.2761	-0.201
Mof_H 	H 	0.3064	0.5516	0.2985	0.102
Mof_C 	C 	0.589	0.66504	0.51608	0.103
Mof_H 	H 	0.6013	0.6376	0.5129	-0.012
Mof_C 	C 	0.4862	0.67933	0.50622	-0.182
Mof_H 	H 	0.4292	0.662	0.4958	0.094
Mof_C 	C 	0.4628	0.71966	0.51123	0.163
Mof_C 	C 	0.5531	0.74265	0.52488	-0.189
Mof_H 	H 	0.5438	0.7702	0.5282	0.088
Mof_C 	C 	0.6536	0.7264	0.53343	0.103
Mof_H 	H 	0.7131	0.7433	0.5423	-0.015
Mof_C 	C 	0.3369	0.77565	0.5108	-0.045
Mof_H 	H 	0.3737	0.7827	0.5383	0.043
Mof_H 	H 	0.3741	0.7909	0.4893	0.051
Mof_C 	C 	0.2654	0.7118	0.4894	-0.028
Mof_H 	H 	0.2777	0.704	0.4602	0.044
Mof_H 	H 	0.2687	0.6873	0.5062	0.04
Mof_C 	C 	0.9949	0.71008	0.58589	0.325
Mof_C 	C 	0.0496	0.74572	0.60551	-0.091
Mof_C 	C 	0.1581	0.74398	0.62189	0.017
Mof_H 	H 	0.1996	0.7204	0.6202	0.04
Mof_C 	C 	0.206	0.77769	0.64115	-0.083
Mof_H 	H 	0.281	0.7772	0.652	0.056
Mof_C 	C 	0.1439	0.8112	0.64418	0.019
Mof_H 	H 	0.1759	0.8335	0.6582	0.041
Mof_C 	C 	0.0384	0.81334	0.62773	-0.093
Mof_C 	C 	0.9917	0.78059	0.6086	0.031
Mof_H 	H 	0.9174	0.7819	0.5972	0.048
Mof_C 	C 	0.9713	0.84993	0.63255	0.31
Mof_C 	C 	0.7506	0.60096	0.58905	0.328
Mof_C 	C 	0.7045	0.58067	0.62629	-0.093
Mof_C 	C 	0.7042	0.59851	0.6655	0.021
Mof_H 	H 	0.7388	0.6234	0.6701	0.04
Mof_C 	C 	0.6535	0.57995	0.69777	-0.085
Mof_H 	H 	0.6527	0.5924	0.7244	0.06
Mof_C 	C 	0.6043	0.54378	0.69182	0.02
Mof_H 	H 	0.5696	0.5314	0.7142	0.038
Mof_C 	C 	0.6052	0.52521	0.65295	-0.095
Mof_C 	C 	0.6556	0.54382	0.62095	0.029
Mof_H 	H 	0.6571	0.5311	0.5945	0.046
Mof_C 	C 	0.5491	0.48673	0.6457	0.309
Mof_C 	C 	0.2111	0.45761	0.6241	0.11
Mof_H 	H 	0.2051	0.4623	0.6532	-0.028
Mof_C 	C 	0.1237	0.46853	0.59751	-0.193
Mof_H 	H 	0.0597	0.4801	0.6081	0.097
Mof_C 	C 	0.1297	0.46246	0.55441	0.172
Mof_C 	C 	0.2283	0.44628	0.54187	-0.203
Mof_H 	H 	0.2386	0.4427	0.5129	0.116
Mof_C 	C 	0.3105	0.43552	0.5712	0.126
Mof_H 	H 	0.3753	0.4236	0.5615	-0.019
Mof_C 	C 	0.0467	0.46751	0.48065	-0.06
Mof_H 	H 	0.1124	0.4519	0.474	0.054
Mof_H 	H 	0.9799	0.4542	0.4681	0.055
Mof_C 	C 	0.9454	0.4936	0.53651	-0.032
Mof_H 	H 	0.8767	0.4808	0.5248	0.049
Mof_H 	H 	0.9414	0.4953	0.5673	0.037
Mof_Zn	Zn	0.32687	0.16579	0.54966	1.21
Mof_Zn	Zn	0.92316	0.92325	0.65511	1.21
Mof_O 	O 	0.3945	0.21426	0.57213	-0.45
Mof_O 	O 	0.5487	0.17889	0.5836	-0.307
Mof_O 	O 	0.5254	0.38041	0.64607	-0.448
Mof_O 	O 	0.369	0.34973	0.62392	-0.322
Mof_O 	O 	0.3018	0.13346	0.59811	-0.45
Mof_O 	O 	0.2345	0.0876	0.55381	-0.328
Mof_O 	O 	0.0583	0.96919	0.61153	-0.314
Mof_O 	O 	0.995	0.97292	0.67541	-0.441
Mof_N 	N 	0.3957	0.14844	0.49763	-0.286
Mof_N 	N 	0.5486	0.11685	0.38907	-0.126
Mof_N 	N 	0.6694	0.10725	0.3153	-0.129
Mof_N 	N 	0.8401	0.08867	0.20714	-0.278
Mof_N 	N 	0.1751	0.18773	0.53021	-0.274
Mof_N 	N 	0.8594	0.23475	0.50356	-0.126
Mof_N 	N 	0.805	0.94073	0.61249	-0.286
Mof_N 	N 	0.5401	0.9702	0.52679	-0.126
Mof_C 	C 	0.3418	0.15057	0.45946	0.099
Mof_H 	H 	0.2673	0.1596	0.4578	-0.016
Mof_C 	C 	0.3886	0.14034	0.42279	-0.184
Mof_H 	H 	0.3463	0.1422	0.3968	0.102
Mof_C 	C 	0.4974	0.1273	0.42385	0.157
Mof_C 	C 	0.5547	0.1248	0.46395	-0.176
Mof_H 	H 	0.6293	0.1159	0.4666	0.089
Mof_C 	C 	0.5012	0.13533	0.49878	0.09
Mof_H 	H 	0.5407	0.1333	0.5253	-0.009
Mof_C 	C 	0.6645	0.10345	0.3914	-0.045
Mof_H 	H 	0.7142	0.1264	0.3961	0.052
Mof_H 	H 	0.6771	0.0854	0.4156	0.044
Mof_C 	C 	0.6923	0.08308	0.35284	-0.046
Mof_H 	H 	0.7718	0.076	0.355	0.052
Mof_H 	H 	0.6489	0.0584	0.35	0.05
Mof_C 	C 	0.582	0.1356	0.31709	-0.033
Mof_H 	H 	0.5461	0.1393	0.2887	0.033
Mof_H 	H 	0.6136	0.1612	0.3266	0.042
Mof_C 	C 	0.4967	0.12263	0.34651	-0.053
Mof_H 	H 	0.4378	0.1428	0.3473	0.042
Mof_H 	H 	0.4623	0.0977	0.3363	0.051
Mof_C 	C 	0.7255	0.10159	0.2802	0.171
Mof_C 	C 	0.7146	0.12681	0.24595	-0.193
Mof_H 	H 	0.6666	0.1489	0.2465	0.092
Mof_C 	C 	0.773	0.11991	0.21144	0.101
Mof_H 	H 	0.7658	0.1383	0.189	-0.014
Mof_C 	C 	0.8486	0.06456	0.24052	0.102
Mof_H 	H 	0.8953	0.0422	0.239	-0.008
Mof_C 	C 	0.7955	0.06983	0.2761	-0.201
Mof_H 	H 	0.8064	0.0516	0.2985	0.102
Mof_C 	C 	0.089	0.16504	0.51608	0.103
Mof_H 	H 	0.1013	0.1376	0.5129	-0.012
Mof_C 	C 	0.9862	0.17933	0.50622	-0.181
Mof_H 	H 	0.9292	0.162	0.4958	0.093
Mof_C 	C 	0.9628	0.21966	0.51123	0.163
Mof_C 	C 	0.0531	0.24265	0.52488	-0.19
Mof_H 	H 	0.0438	0.2702	0.5282	0.088
Mof_C 	C 	0.1536	0.2264	0.53343	0.103
Mof_H 	H 	0.2131	0.2433	0.5423	-0.015
Mof_C 	C 	0.8369	0.27565	0.5108	-0.045
Mof_H 	H 	0.8737	0.2827	0.5383	0.043
Mof_H 	H 	0.8741	0.2909	0.4893	0.051
Mof_C 	C 	0.7654	0.2118	0.4894	-0.028
Mof_H 	H 	0.7777	0.204	0.4602	0.044
Mof_H 	H 	0.7687	0.1873	0.5062	0.04
Mof_C 	C 	0.4949	0.21008	0.58589	0.326
Mof_C 	C 	0.5496	0.24572	0.60551	-0.092
Mof_C 	C 	0.6581	0.24398	0.62189	0.018
Mof_H 	H 	0.6996	0.2204	0.6202	0.04
Mof_C 	C 	0.706	0.27769	0.64115	-0.084
Mof_H 	H 	0.781	0.2772	0.652	0.056
Mof_C 	C 	0.6439	0.3112	0.64418	0.02
Mof_H 	H 	0.6759	0.3335	0.6582	0.04
Mof_C 	C 	0.5384	0.31334	0.62773	-0.094
Mof_C 	C 	0.4917	0.28059	0.6086	0.033
Mof_H 	H 	0.4174	0.2819	0.5972	0.048
Mof_C 	C 	0.4713	0.34993	0.63255	0.311
Mof_C 	C 	0.2506	0.10096	0.58905	0.328
Mof_C 	C 	0.2045	0.08067	0.62629	-0.093
Mof_C 	C 	0.2042	0.09851	0.6655	0.021
Mof_H 	H 	0.2388	0.1234	0.6701	0.04
Mof_C 	C 	0.1535	0.07995	0.69777	-0.085
Mof_H 	H 	0.1527	0.0924	0.7244	0.06
Mof_C 	C 	0.1043	0.04378	0.69182	0.02
Mof_H 	H 	0.0696	0.0314	0.7142	0.038
Mof_C 	C 	0.1052	0.02521	0.65295	-0.095
Mof_C 	C 	0.1556	0.04382	0.62095	0.029
Mof_H 	H 	0.1571	0.0311	0.5945	0.046
Mof_C 	C 	0.0491	0.98673	0.6457	0.309
Mof_C 	C 	0.7111	0.95761	0.6241	0.11
Mof_H 	H 	0.7051	0.9623	0.6532	-0.028
Mof_C 	C 	0.6237	0.96853	0.59751	-0.193
Mof_H 	H 	0.5597	0.9801	0.6081	0.097
Mof_C 	C 	0.6297	0.96246	0.55441	0.172
Mof_C 	C 	0.7283	0.94628	0.54187	-0.203
Mof_H 	H 	0.7386	0.9427	0.5129	0.116
Mof_C 	C 	0.8105	0.93552	0.5712	0.126
Mof_H 	H 	0.8753	0.9236	0.5615	-0.019
Mof_C 	C 	0.5467	0.96751	0.48065	-0.06
Mof_H 	H 	0.6124	0.9519	0.474	0.054
Mof_H 	H 	0.4799	0.9542	0.4681	0.055
Mof_C 	C 	0.4454	0.9936	0.53651	-0.032
Mof_H 	H 	0.3767	0.9808	0.5248	0.049
Mof_H 	H 	0.4414	0.9953	0.5673	0.037
Mof_Zn	Zn	0.17313	0.66579	0.95034	1.21
Mof_Zn	Zn	0.57684	0.42325	0.84489	1.21
Mof_O 	O 	0.1055	0.71426	0.92787	-0.449
Mof_O 	O 	0.9513	0.67889	0.9164	-0.306
Mof_O 	O 	0.9746	0.88041	0.85393	-0.448
Mof_O 	O 	0.131	0.84973	0.87608	-0.322
Mof_O 	O 	0.1982	0.63346	0.90189	-0.45
Mof_O 	O 	0.2655	0.5876	0.94619	-0.328
Mof_O 	O 	0.4417	0.46919	0.88847	-0.314
Mof_O 	O 	0.505	0.47292	0.82459	-0.441
Mof_N 	N 	0.1043	0.64844	0.00237	-0.286
Mof_N 	N 	0.9514	0.61685	0.11093	-0.126
Mof_N 	N 	0.8306	0.60725	0.1847	-0.129
Mof_N 	N 	0.6599	0.58867	0.29286	-0.277
Mof_N 	N 	0.3249	0.68773	0.96979	-0.275
Mof_N 	N 	0.6406	0.73475	0.99644	-0.126
Mof_N 	N 	0.695	0.44073	0.88751	-0.286
Mof_N 	N 	0.9599	0.4702	0.97321	-0.125
Mof_C 	C 	0.1582	0.65057	0.04054	0.099
Mof_H 	H 	0.2327	0.6596	0.0422	-0.016
Mof_C 	C 	0.1114	0.64034	0.07721	-0.184
Mof_H 	H 	0.1537	0.6422	0.1032	0.102
Mof_C 	C 	0.0026	0.6273	0.07615	0.157
Mof_C 	C 	0.9453	0.6248	0.03605	-0.176
Mof_H 	H 	0.8707	0.6159	0.0334	0.088
Mof_C 	C 	0.9988	0.63533	0.00122	0.089
Mof_H 	H 	0.9593	0.6333	0.9747	-0.009
Mof_C 	C 	0.8355	0.60345	0.1086	-0.045
Mof_H 	H 	0.7858	0.6264	0.1039	0.052
Mof_H 	H 	0.8229	0.5854	0.0844	0.044
Mof_C 	C 	0.8077	0.58308	0.14716	-0.046
Mof_H 	H 	0.7282	0.576	0.145	0.052
Mof_H 	H 	0.8511	0.5584	0.15	0.05
Mof_C 	C 	0.918	0.6356	0.18291	-0.034
Mof_H 	H 	0.9539	0.6393	0.2113	0.033
Mof_H 	H 	0.8864	0.6612	0.1734	0.042
Mof_C 	C 	0.0033	0.62263	0.15349	-0.053
Mof_H 	H 	0.0622	0.6428	0.1527	0.042
Mof_H 	H 	0.0377	0.5977	0.1637	0.051
Mof_C 	C 	0.7745	0.60159	0.2198	0.171
Mof_C 	C 	0.7854	0.62681	0.25405	-0.193
Mof_H 	H 	0.8334	0.6489	0.2535	0.092
Mof_C 	C 	0.727	0.61991	0.28856	0.101
Mof_H 	H 	0.7342	0.6383	0.311	-0.014
Mof_C 	C 	0.6514	0.56456	0.25948	0.102
Mof_H 	H 	0.6047	0.5422	0.261	-0.008
Mof_C 	C 	0.7045	0.56983	0.2239	-0.201
Mof_H 	H 	0.6936	0.5516	0.2015	0.102
Mof_C 	C 	0.411	0.66504	0.98392	0.103
Mof_H 	H 	0.3987	0.6376	0.9871	-0.012
Mof_C 	C 	0.5138	0.67933	0.99378	-0.182
Mof_H 	H 	0.5708	0.662	0.0042	0.094
Mof_C 	C 	0.5372	0.71966	0.98877	0.163
Mof_C 	C 	0.4469	0.74265	0.97512	-0.189
Mof_H 	H 	0.4562	0.7702	0.9718	0.088
Mof_C 	C 	0.3464	0.7264	0.96657	0.103
Mof_H 	H 	0.2869	0.7433	0.9577	-0.015
Mof_C 	C 	0.6631	0.77565	0.9892	-0.046
Mof_H 	H 	0.6263	0.7827	0.9617	0.044
Mof_H 	H 	0.6259	0.7909	0.0107	0.051
Mof_C 	C 	0.7346	0.7118	0.0106	-0.028
Mof_H 	H 	0.7223	0.704	0.0398	0.044
Mof_H 	H 	0.7313	0.6873	0.9938	0.04
Mof_C 	C 	0.0051	0.71008	0.91411	0.324
Mof_C 	C 	0.9504	0.74572	0.89449	-0.089
Mof_C 	C 	0.8419	0.74398	0.87811	0.015
Mof_H 	H 	0.8004	0.7204	0.8798	0.041
Mof_C 	C 	0.794	0.77769	0.85885	-0.082
Mof_H 	H 	0.719	0.7772	0.848	0.055
Mof_C 	C 	0.8561	0.8112	0.85582	0.017
Mof_H 	H 	0.8241	0.8335	0.8418	0.041
Mof_C 	C 	0.9616	0.81334	0.87227	-0.091
Mof_C 	C 	0.0083	0.78059	0.8914	0.029
Mof_H 	H 	0.0826	0.7819	0.9028	0.049
Mof_C 	C 	0.0287	0.84993	0.86745	0.309
Mof_C 	C 	0.2494	0.60096	0.91095	0.328
Mof_C 	C 	0.2955	0.58067	0.87371	-0.093
Mof_C 	C 	0.2958	0.59851	0.8345	0.021
Mof_H 	H 	0.2612	0.6234	0.8299	0.04
Mof_C 	C 	0.3465	0.57995	0.80223	-0.085
Mof_H 	H 	0.3473	0.5924	0.7756	0.06
Mof_C 	C 	0.3957	0.54378	0.80818	0.02
Mof_H 	H 	0.4304	0.5314	0.7858	0.038
Mof_C 	C 	0.3948	0.52521	0.84705	-0.095
Mof_C 	C 	0.3444	0.54382	0.87905	0.029
Mof_H 	H 	0.3429	0.5311	0.9055	0.046
Mof_C 	C 	0.4509	0.48673	0.8543	0.309
Mof_C 	C 	0.7889	0.45761	0.8759	0.11
Mof_H 	H 	0.7949	0.4623	0.8468	-0.028
Mof_C 	C 	0.8763	0.46853	0.90249	-0.193
Mof_H 	H 	0.9403	0.4801	0.8919	0.097
Mof_C 	C 	0.8703	0.46246	0.94559	0.172
Mof_C 	C 	0.7717	0.44628	0.95813	-0.203
Mof_H 	H 	0.7614	0.4427	0.9871	0.116
Mof_C 	C 	0.6895	0.43552	0.9288	0.126
Mof_H 	H 	0.6247	0.4236	0.9385	-0.019
Mof_C 	C 	0.9533	0.46751	0.01935	-0.061
Mof_H 	H 	0.8876	0.4519	0.026	0.054
Mof_H 	H 	0.0201	0.4542	0.0319	0.056
Mof_C 	C 	0.0546	0.4936	0.96349	-0.031
Mof_H 	H 	0.1233	0.4808	0.9752	0.049
Mof_H 	H 	0.0586	0.4953	0.9327	0.037
Mof_Zn	Zn	0.67313	0.16579	0.95034	1.21
Mof_Zn	Zn	0.07684	0.92325	0.84489	1.21
Mof_O 	O 	0.6055	0.21426	0.92787	-0.45
Mof_O 	O 	0.4513	0.17889	0.9164	-0.307
Mof_O 	O 	0.4746	0.38041	0.85393	-0.448
Mof_O 	O 	0.631	0.34973	0.87608	-0.322
Mof_O 	O 	0.6982	0.13346	0.90189	-0.45
Mof_O 	O 	0.7655	0.0876	0.94619	-0.328
Mof_O 	O 	0.9417	0.96919	0.88847	-0.314
Mof_O 	O 	0.005	0.97292	0.82459	-0.441
Mof_N 	N 	0.6043	0.14844	0.00237	-0.286
Mof_N 	N 	0.4514	0.11685	0.11093	-0.126
Mof_N 	N 	0.3306	0.10725	0.1847	-0.129
Mof_N 	N 	0.1599	0.08867	0.29286	-0.277
Mof_N 	N 	0.8249	0.18773	0.96979	-0.275
Mof_N 	N 	0.1406	0.23475	0.99644	-0.127
Mof_N 	N 	0.195	0.94073	0.88751	-0.286
Mof_N 	N 	0.4599	0.9702	0.97321	-0.126
Mof_C 	C 	0.6582	0.15057	0.04054	0.099
Mof_H 	H 	0.7327	0.1596	0.0422	-0.016
Mof_C 	C 	0.6114	0.14034	0.07721	-0.184
Mof_H 	H 	0.6537	0.1422	0.1032	0.102
Mof_C 	C 	0.5026	0.1273	0.07615	0.157
Mof_C 	C 	0.4453	0.1248	0.03605	-0.176
Mof_H 	H 	0.3707	0.1159	0.0334	0.089
Mof_C 	C 	0.4988	0.13533	0.00122	0.09
Mof_H 	H 	0.4593	0.1333	0.9747	-0.009
Mof_C 	C 	0.3355	0.10345	0.1086	-0.045
Mof_H 	H 	0.2858	0.1264	0.1039	0.052
Mof_H 	H 	0.3229	0.0854	0.0844	0.044
Mof_C 	C 	0.3077	0.08308	0.14716	-0.046
Mof_H 	H 	0.2282	0.076	0.145	0.052
Mof_H 	H 	0.3511	0.0584	0.15	0.05
Mof_C 	C 	0.418	0.1356	0.18291	-0.033
Mof_H 	H 	0.4539	0.1393	0.2113	0.033
Mof_H 	H 	0.3864	0.1612	0.1734	0.042
Mof_C 	C 	0.5033	0.12263	0.15349	-0.053
Mof_H 	H 	0.5622	0.1428	0.1527	0.042
Mof_H 	H 	0.5377	0.0977	0.1637	0.051
Mof_C 	C 	0.2745	0.10159	0.2198	0.171
Mof_C 	C 	0.2854	0.12681	0.25405	-0.193
Mof_H 	H 	0.3334	0.1489	0.2535	0.092
Mof_C 	C 	0.227	0.11991	0.28856	0.101
Mof_H 	H 	0.2342	0.1383	0.311	-0.014
Mof_C 	C 	0.1514	0.06456	0.25948	0.102
Mof_H 	H 	0.1047	0.0422	0.261	-0.008
Mof_C 	C 	0.2045	0.06983	0.2239	-0.201
Mof_H 	H 	0.1936	0.0516	0.2015	0.102
Mof_C 	C 	0.911	0.16504	0.98392	0.104
Mof_H 	H 	0.8987	0.1376	0.9871	-0.012
Mof_C 	C 	0.0138	0.17933	0.99378	-0.183
Mof_H 	H 	0.0708	0.162	0.0042	0.094
Mof_C 	C 	0.0372	0.21966	0.98877	0.163
Mof_C 	C 	0.9469	0.24265	0.97512	-0.19
Mof_H 	H 	0.9562	0.2702	0.9718	0.088
Mof_C 	C 	0.8464	0.2264	0.96657	0.103
Mof_H 	H 	0.7869	0.2433	0.9577	-0.015
Mof_C 	C 	0.1631	0.27565	0.9892	-0.046
Mof_H 	H 	0.1263	0.2827	0.9617	0.043
Mof_H 	H 	0.1259	0.2909	0.0107	0.051
Mof_C 	C 	0.2346	0.2118	0.0106	-0.027
Mof_H 	H 	0.2223	0.204	0.0398	0.043
Mof_H 	H 	0.2313	0.1873	0.9938	0.04
Mof_C 	C 	0.5051	0.21008	0.91411	0.326
Mof_C 	C 	0.4504	0.24572	0.89449	-0.092
Mof_C 	C 	0.3419	0.24398	0.87811	0.018
Mof_H 	H 	0.3004	0.2204	0.8798	0.04
Mof_C 	C 	0.294	0.27769	0.85885	-0.084
Mof_H 	H 	0.219	0.2772	0.848	0.056
Mof_C 	C 	0.3561	0.3112	0.85582	0.02
Mof_H 	H 	0.3241	0.3335	0.8418	0.04
Mof_C 	C 	0.4616	0.31334	0.87227	-0.094
Mof_C 	C 	0.5083	0.28059	0.8914	0.033
Mof_H 	H 	0.5826	0.2819	0.9028	0.048
Mof_C 	C 	0.5287	0.34993	0.86745	0.311
Mof_C 	C 	0.7494	0.10096	0.91095	0.328
Mof_C 	C 	0.7955	0.08067	0.87371	-0.093
Mof_C 	C 	0.7958	0.09851	0.8345	0.021
Mof_H 	H 	0.7612	0.1234	0.8299	0.04
Mof_C 	C 	0.8465	0.07995	0.80223	-0.085
Mof_H 	H 	0.8473	0.0924	0.7756	0.06
Mof_C 	C 	0.8957	0.04378	0.80818	0.02
Mof_H 	H 	0.9304	0.0314	0.7858	0.038
Mof_C 	C 	0.8948	0.02521	0.84705	-0.095
Mof_C 	C 	0.8444	0.04382	0.87905	0.029
Mof_H 	H 	0.8429	0.0311	0.9055	0.046
Mof_C 	C 	0.9509	0.98673	0.8543	0.309
Mof_C 	C 	0.2889	0.95761	0.8759	0.11
Mof_H 	H 	0.2949	0.9623	0.8468	-0.028
Mof_C 	C 	0.3763	0.96853	0.90249	-0.193
Mof_H 	H 	0.4403	0.9801	0.8919	0.097
Mof_C 	C 	0.3703	0.96246	0.94559	0.172
Mof_C 	C 	0.2717	0.94628	0.95813	-0.203
Mof_H 	H 	0.2614	0.9427	0.9871	0.116
Mof_C 	C 	0.1895	0.93552	0.9288	0.126
Mof_H 	H 	0.1247	0.9236	0.9385	-0.019
Mof_C 	C 	0.4533	0.96751	0.01935	-0.059
Mof_H 	H 	0.3876	0.9519	0.026	0.054
Mof_H 	H 	0.5201	0.9542	0.0319	0.055
Mof_C 	C 	0.5546	0.9936	0.96349	-0.032
Mof_H 	H 	0.6233	0.9808	0.9752	0.049
Mof_H 	H 	0.5586	0.9953	0.9327	0.037
Mof_Zn	Zn	0.17313	0.33421	0.45034	1.21
Mof_Zn	Zn	0.57684	0.57675	0.34489	1.21
Mof_O 	O 	0.1055	0.28574	0.42787	-0.45
Mof_O 	O 	0.9513	0.32111	0.4164	-0.307
Mof_O 	O 	0.9746	0.11959	0.35393	-0.448
Mof_O 	O 	0.131	0.15027	0.37608	-0.322
Mof_O 	O 	0.1982	0.36654	0.40189	-0.45
Mof_O 	O 	0.2655	0.4124	0.44619	-0.328
Mof_O 	O 	0.4417	0.53081	0.38847	-0.314
Mof_O 	O 	0.505	0.52708	0.32459	-0.441
Mof_N 	N 	0.1043	0.35156	0.50237	-0.286
Mof_N 	N 	0.9514	0.38315	0.61093	-0.125
Mof_N 	N 	0.8306	0.39275	0.6847	-0.129
Mof_N 	N 	0.6599	0.41133	0.79286	-0.277
Mof_N 	N 	0.3249	0.31227	0.46979	-0.275
Mof_N 	N 	0.6406	0.26525	0.49644	-0.126
Mof_N 	N 	0.695	0.55927	0.38751	-0.286
Mof_N 	N 	0.9599	0.5298	0.47321	-0.126
Mof_C 	C 	0.1582	0.34943	0.54054	0.098
Mof_H 	H 	0.2327	0.3404	0.5422	-0.016
Mof_C 	C 	0.1114	0.35966	0.57721	-0.184
Mof_H 	H 	0.1537	0.3578	0.6032	0.102
Mof_C 	C 	0.0026	0.3727	0.57615	0.157
Mof_C 	C 	0.9453	0.3752	0.53605	-0.176
Mof_H 	H 	0.8707	0.3841	0.5334	0.088
Mof_C 	C 	0.9988	0.36467	0.50122	0.09
Mof_H 	H 	0.9593	0.3667	0.4747	-0.009
Mof_C 	C 	0.8355	0.39655	0.6086	-0.045
Mof_H 	H 	0.7858	0.3736	0.6039	0.052
Mof_H 	H 	0.8229	0.4146	0.5844	0.044
Mof_C 	C 	0.8077	0.41692	0.64716	-0.046
Mof_H 	H 	0.7282	0.424	0.645	0.052
Mof_H 	H 	0.8511	0.4416	0.65	0.05
Mof_C 	C 	0.918	0.3644	0.68291	-0.033
Mof_H 	H 	0.9539	0.3607	0.7113	0.033
Mof_H 	H 	0.8864	0.3388	0.6734	0.042
Mof_C 	C 	0.0033	0.37737	0.65349	-0.054
Mof_H 	H 	0.0622	0.3572	0.6527	0.042
Mof_H 	H 	0.0377	0.4023	0.6637	0.051
Mof_C 	C 	0.7745	0.39841	0.7198	0.171
Mof_C 	C 	0.7854	0.37319	0.75405	-0.193
Mof_H 	H 	0.8334	0.3511	0.7535	0.092
Mof_C 	C 	0.727	0.38009	0.78856	0.101
Mof_H 	H 	0.7342	0.3617	0.811	-0.014
Mof_C 	C 	0.6514	0.43544	0.75948	0.102
Mof_H 	H 	0.6047	0.4578	0.761	-0.008
Mof_C 	C 	0.7045	0.43017	0.7239	-0.201
Mof_H 	H 	0.6936	0.4484	0.7015	0.102
Mof_C 	C 	0.411	0.33496	0.48392	0.103
Mof_H 	H 	0.3987	0.3624	0.4871	-0.012
Mof_C 	C 	0.5138	0.32067	0.49378	-0.182
Mof_H 	H 	0.5708	0.338	0.5042	0.094
Mof_C 	C 	0.5372	0.28034	0.48877	0.163
Mof_C 	C 	0.4469	0.25735	0.47512	-0.189
Mof_H 	H 	0.4562	0.2298	0.4718	0.088
Mof_C 	C 	0.3464	0.2736	0.46657	0.103
Mof_H 	H 	0.2869	0.2567	0.4577	-0.015
Mof_C 	C 	0.6631	0.22435	0.4892	-0.045
Mof_H 	H 	0.6263	0.2173	0.4617	0.043
Mof_H 	H 	0.6259	0.2091	0.5107	0.051
Mof_C 	C 	0.7346	0.2882	0.5106	-0.028
Mof_H 	H 	0.7223	0.296	0.5398	0.044
Mof_H 	H 	0.7313	0.3127	0.4938	0.04
Mof_C 	C 	0.0051	0.28992	0.41411	0.325
Mof_C 	C 	0.9504	0.25428	0.39449	-0.091
Mof_C 	C 	0.8419	0.25602	0.37811	0.017
Mof_H 	H 	0.8004	0.2796	0.3798	0.04
Mof_C 	C 	0.794	0.22231	0.35885	-0.083
Mof_H 	H 	0.719	0.2228	0.348	0.056
Mof_C 	C 	0.8561	0.1888	0.35582	0.019
Mof_H 	H 	0.8241	0.1665	0.3418	0.041
Mof_C 	C 	0.9616	0.18666	0.37227	-0.093
Mof_C 	C 	0.0083	0.21941	0.3914	0.031
Mof_H 	H 	0.0826	0.2181	0.4028	0.048
Mof_C 	C 	0.0287	0.15007	0.36745	0.31
Mof_C 	C 	0.2494	0.39904	0.41095	0.328
Mof_C 	C 	0.2955	0.41933	0.37371	-0.093
Mof_C 	C 	0.2958	0.40149	0.3345	0.021
Mof_H 	H 	0.2612	0.3766	0.3299	0.04
Mof_C 	C 	0.3465	0.42005	0.30223	-0.085
Mof_H 	H 	0.3473	0.4076	0.2756	0.06
Mof_C 	C 	0.3957	0.45622	0.30818	0.02
Mof_H 	H 	0.4304	0.4686	0.2858	0.038
Mof_C 	C 	0.3948	0.47479	0.34705	-0.095
Mof_C 	C 	0.3444	0.45618	0.37905	0.029
Mof_H 	H 	0.3429	0.4689	0.4055	0.046
Mof_C 	C 	0.4509	0.51327	0.3543	0.309
Mof_C 	C 	0.7889	0.54239	0.3759	0.11
Mof_H 	H 	0.7949	0.5377	0.3468	-0.028
Mof_C 	C 	0.8763	0.53147	0.40249	-0.193
Mof_H 	H 	0.9403	0.5199	0.3919	0.097
Mof_C 	C 	0.8703	0.53754	0.44559	0.172
Mof_C 	C 	0.7717	0.55372	0.45813	-0.203
Mof_H 	H 	0.7614	0.5573	0.4871	0.116
Mof_C 	C 	0.6895	0.56448	0.4288	0.126
Mof_H 	H 	0.6247	0.5764	0.4385	-0.019
Mof_C 	C 	0.9533	0.53249	0.51935	-0.06
Mof_H 	H 	0.8876	0.5481	0.526	0.054
Mof_H 	H 	0.0201	0.5458	0.5319	0.055
Mof_C 	C 	0.0546	0.5064	0.46349	-0.032
Mof_H 	H 	0.1233	0.5192	0.4752	0.049
Mof_H 	H 	0.0586	0.5047	0.4327	0.037
Mof_Zn	Zn	0.67313	0.83421	0.45034	1.21
Mof_Zn	Zn	0.07684	0.07675	0.34489	1.21
Mof_O 	O 	0.6055	0.78574	0.42787	-0.45
Mof_O 	O 	0.4513	0.82111	0.4164	-0.307
Mof_O 	O 	0.4746	0.61959	0.35393	-0.448
Mof_O 	O 	0.631	0.65027	0.37608	-0.322
Mof_O 	O 	0.6982	0.86654	0.40189	-0.45
Mof_O 	O 	0.7655	0.9124	0.44619	-0.328
Mof_O 	O 	0.9417	0.03081	0.38847	-0.314
Mof_O 	O 	0.005	0.02708	0.32459	-0.441
Mof_N 	N 	0.6043	0.85156	0.50237	-0.286
Mof_N 	N 	0.4514	0.88315	0.61093	-0.126
Mof_N 	N 	0.3306	0.89275	0.6847	-0.129
Mof_N 	N 	0.1599	0.91133	0.79286	-0.278
Mof_N 	N 	0.8249	0.81227	0.46979	-0.274
Mof_N 	N 	0.1406	0.76525	0.49644	-0.126
Mof_N 	N 	0.195	0.05927	0.38751	-0.286
Mof_N 	N 	0.4599	0.0298	0.47321	-0.126
Mof_C 	C 	0.6582	0.84943	0.54054	0.099
Mof_H 	H 	0.7327	0.8404	0.5422	-0.016
Mof_C 	C 	0.6114	0.85966	0.57721	-0.184
Mof_H 	H 	0.6537	0.8578	0.6032	0.102
Mof_C 	C 	0.5026	0.8727	0.57615	0.157
Mof_C 	C 	0.4453	0.8752	0.53605	-0.176
Mof_H 	H 	0.3707	0.8841	0.5334	0.089
Mof_C 	C 	0.4988	0.86467	0.50122	0.09
Mof_H 	H 	0.4593	0.8667	0.4747	-0.009
Mof_C 	C 	0.3355	0.89655	0.6086	-0.045
Mof_H 	H 	0.2858	0.8736	0.6039	0.052
Mof_H 	H 	0.3229	0.9146	0.5844	0.044
Mof_C 	C 	0.3077	0.91692	0.64716	-0.046
Mof_H 	H 	0.2282	0.924	0.645	0.052
Mof_H 	H 	0.3511	0.9416	0.65	0.05
Mof_C 	C 	0.418	0.8644	0.68291	-0.033
Mof_H 	H 	0.4539	0.8607	0.7113	0.033
Mof_H 	H 	0.3864	0.8388	0.6734	0.042
Mof_C 	C 	0.5033	0.87737	0.65349	-0.053
Mof_H 	H 	0.5622	0.8572	0.6527	0.042
Mof_H 	H 	0.5377	0.9023	0.6637	0.051
Mof_C 	C 	0.2745	0.89841	0.7198	0.171
Mof_C 	C 	0.2854	0.87319	0.75405	-0.193
Mof_H 	H 	0.3334	0.8511	0.7535	0.092
Mof_C 	C 	0.227	0.88009	0.78856	0.101
Mof_H 	H 	0.2342	0.8617	0.811	-0.014
Mof_C 	C 	0.1514	0.93544	0.75948	0.102
Mof_H 	H 	0.1047	0.9578	0.761	-0.008
Mof_C 	C 	0.2045	0.93017	0.7239	-0.201
Mof_H 	H 	0.1936	0.9484	0.7015	0.102
Mof_C 	C 	0.911	0.83496	0.48392	0.103
Mof_H 	H 	0.8987	0.8624	0.4871	-0.012
Mof_C 	C 	0.0138	0.82067	0.49378	-0.181
Mof_H 	H 	0.0708	0.838	0.5042	0.093
Mof_C 	C 	0.0372	0.78034	0.48877	0.163
Mof_C 	C 	0.9469	0.75735	0.47512	-0.19
Mof_H 	H 	0.9562	0.7298	0.4718	0.088
Mof_C 	C 	0.8464	0.7736	0.46657	0.103
Mof_H 	H 	0.7869	0.7567	0.4577	-0.015
Mof_C 	C 	0.1631	0.72435	0.4892	-0.045
Mof_H 	H 	0.1263	0.7173	0.4617	0.043
Mof_H 	H 	0.1259	0.7091	0.5107	0.051
Mof_C 	C 	0.2346	0.7882	0.5106	-0.028
Mof_H 	H 	0.2223	0.796	0.5398	0.044
Mof_H 	H 	0.2313	0.8127	0.4938	0.04
Mof_C 	C 	0.5051	0.78992	0.41411	0.326
Mof_C 	C 	0.4504	0.75428	0.39449	-0.092
Mof_C 	C 	0.3419	0.75602	0.37811	0.018
Mof_H 	H 	0.3004	0.7796	0.3798	0.04
Mof_C 	C 	0.294	0.72231	0.35885	-0.084
Mof_H 	H 	0.219	0.7228	0.348	0.056
Mof_C 	C 	0.3561	0.6888	0.35582	0.02
Mof_H 	H 	0.3241	0.6665	0.3418	0.04
Mof_C 	C 	0.4616	0.68666	0.37227	-0.094
Mof_C 	C 	0.5083	0.71941	0.3914	0.033
Mof_H 	H 	0.5826	0.7181	0.4028	0.048
Mof_C 	C 	0.5287	0.65007	0.36745	0.311
Mof_C 	C 	0.7494	0.89904	0.41095	0.328
Mof_C 	C 	0.7955	0.91933	0.37371	-0.093
Mof_C 	C 	0.7958	0.90149	0.3345	0.021
Mof_H 	H 	0.7612	0.8766	0.3299	0.04
Mof_C 	C 	0.8465	0.92005	0.30223	-0.085
Mof_H 	H 	0.8473	0.9076	0.2756	0.06
Mof_C 	C 	0.8957	0.95622	0.30818	0.02
Mof_H 	H 	0.9304	0.9686	0.2858	0.038
Mof_C 	C 	0.8948	0.97479	0.34705	-0.095
Mof_C 	C 	0.8444	0.95618	0.37905	0.029
Mof_H 	H 	0.8429	0.9689	0.4055	0.046
Mof_C 	C 	0.9509	0.01327	0.3543	0.309
Mof_C 	C 	0.2889	0.04239	0.3759	0.11
Mof_H 	H 	0.2949	0.0377	0.3468	-0.028
Mof_C 	C 	0.3763	0.03147	0.40249	-0.193
Mof_H 	H 	0.4403	0.0199	0.3919	0.097
Mof_C 	C 	0.3703	0.03754	0.44559	0.172
Mof_C 	C 	0.2717	0.05372	0.45813	-0.203
Mof_H 	H 	0.2614	0.0573	0.4871	0.116
Mof_C 	C 	0.1895	0.06448	0.4288	0.126
Mof_H 	H 	0.1247	0.0764	0.4385	-0.019
Mof_C 	C 	0.4533	0.03249	0.51935	-0.06
Mof_H 	H 	0.3876	0.0481	0.526	0.054
Mof_H 	H 	0.5201	0.0458	0.5319	0.055
Mof_C 	C 	0.5546	0.0064	0.46349	-0.032
Mof_H 	H 	0.6233	0.0192	0.4752	0.049
Mof_H 	H 	0.5586	0.0047	0.4327	0.037
Mof_Zn	Zn	0.82687	0.33421	0.04966	1.21
Mof_Zn	Zn	0.42316	0.57675	0.15511	1.21
Mof_O 	O 	0.8945	0.28574	0.07213	-0.449
Mof_O 	O 	0.0487	0.32111	0.0836	-0.306
Mof_O 	O 	0.0254	0.11959	0.14607	-0.448
Mof_O 	O 	0.869	0.15027	0.12392	-0.322
Mof_O 	O 	0.8018	0.36654	0.09811	-0.45
Mof_O 	O 	0.7345	0.4124	0.05381	-0.328
Mof_O 	O 	0.5583	0.53081	0.11153	-0.314
Mof_O 	O 	0.495	0.52708	0.17541	-0.441
Mof_N 	N 	0.8957	0.35156	0.99763	-0.286
Mof_N 	N 	0.0486	0.38315	0.88907	-0.126
Mof_N 	N 	0.1694	0.39275	0.8153	-0.129
Mof_N 	N 	0.3401	0.41133	0.70714	-0.277
Mof_N 	N 	0.6751	0.31227	0.03021	-0.275
Mof_N 	N 	0.3594	0.26525	0.00356	-0.126
Mof_N 	N 	0.305	0.55927	0.11249	-0.286
Mof_N 	N 	0.0401	0.5298	0.02679	-0.125
Mof_C 	C 	0.8418	0.34943	0.95946	0.099
Mof_H 	H 	0.7673	0.3404	0.9578	-0.016
Mof_C 	C 	0.8886	0.35966	0.92279	-0.184
Mof_H 	H 	0.8463	0.3578	0.8968	0.102
Mof_C 	C 	0.9974	0.3727	0.92385	0.157
Mof_C 	C 	0.0547	0.3752	0.96395	-0.176
Mof_H 	H 	0.1293	0.3841	0.9666	0.088
Mof_C 	C 	0.0012	0.36467	0.99878	0.089
Mof_H 	H 	0.0407	0.3667	0.0253	-0.009
Mof_C 	C 	0.1645	0.39655	0.8914	-0.045
Mof_H 	H 	0.2142	0.3736	0.8961	0.052
Mof_H 	H 	0.1771	0.4146	0.9156	0.044
Mof_C 	C 	0.1923	0.41692	0.85284	-0.046
Mof_H 	H 	0.2718	0.424	0.855	0.052
Mof_H 	H 	0.1489	0.4416	0.85	0.05
Mof_C 	C 	0.082	0.3644	0.81709	-0.034
Mof_H 	H 	0.0461	0.3607	0.7887	0.033
Mof_H 	H 	0.1136	0.3388	0.8266	0.042
Mof_C 	C 	0.9967	0.37737	0.84651	-0.053
Mof_H 	H 	0.9378	0.3572	0.8473	0.042
Mof_H 	H 	0.9623	0.4023	0.8363	0.051
Mof_C 	C 	0.2255	0.39841	0.7802	0.171
Mof_C 	C 	0.2146	0.37319	0.74595	-0.193
Mof_H 	H 	0.1666	0.3511	0.7465	0.092
Mof_C 	C 	0.273	0.38009	0.71144	0.101
Mof_H 	H 	0.2658	0.3617	0.689	-0.014
Mof_C 	C 	0.3486	0.43544	0.74052	0.102
Mof_H 	H 	0.3953	0.4578	0.739	-0.008
Mof_C 	C 	0.2955	0.43017	0.7761	-0.201
Mof_H 	H 	0.3064	0.4484	0.7985	0.102
Mof_C 	C 	0.589	0.33496	0.01608	0.103
Mof_H 	H 	0.6013	0.3624	0.0129	-0.012
Mof_C 	C 	0.4862	0.32067	0.00622	-0.182
Mof_H 	H 	0.4292	0.338	0.9958	0.094
Mof_C 	C 	0.4628	0.28034	0.01123	0.163
Mof_C 	C 	0.5531	0.25735	0.02488	-0.189
Mof_H 	H 	0.5438	0.2298	0.0282	0.088
Mof_C 	C 	0.6536	0.2736	0.03343	0.103
Mof_H 	H 	0.7131	0.2567	0.0423	-0.015
Mof_C 	C 	0.3369	0.22435	0.0108	-0.046
Mof_H 	H 	0.3737	0.2173	0.0383	0.044
Mof_H 	H 	0.3741	0.2091	0.9893	0.051
Mof_C 	C 	0.2654	0.2882	0.9894	-0.028
Mof_H 	H 	0.2777	0.296	0.9602	0.044
Mof_H 	H 	0.2687	0.3127	0.0062	0.04
Mof_C 	C 	0.9949	0.28992	0.08589	0.324
Mof_C 	C 	0.0496	0.25428	0.10551	-0.089
Mof_C 	C 	0.1581	0.25602	0.12189	0.015
Mof_H 	H 	0.1996	0.2796	0.1202	0.041
Mof_C 	C 	0.206	0.22231	0.14115	-0.082
Mof_H 	H 	0.281	0.2228	0.152	0.055
Mof_C 	C 	0.1439	0.1888	0.14418	0.017
Mof_H 	H 	0.1759	0.1665	0.1582	0.041
Mof_C 	C 	0.0384	0.18666	0.12773	-0.091
Mof_C 	C 	0.9917	0.21941	0.1086	0.029
Mof_H 	H 	0.9174	0.2181	0.0972	0.049
Mof_C 	C 	0.9713	0.15007	0.13255	0.309
Mof_C 	C 	0.7506	0.39904	0.08905	0.328
Mof_C 	C 	0.7045	0.41933	0.12629	-0.093
Mof_C 	C 	0.7042	0.40149	0.1655	0.021
Mof_H 	H 	0.7388	0.3766	0.1701	0.04
Mof_C 	C 	0.6535	0.42005	0.19777	-0.085
Mof_H 	H 	0.6527	0.4076	0.2244	0.06
Mof_C 	C 	0.6043	0.45622	0.19182	0.02
Mof_H 	H 	0.5696	0.4686	0.2142	0.038
Mof_C 	C 	0.6052	0.47479	0.15295	-0.095
Mof_C 	C 	0.6556	0.45618	0.12095	0.029
Mof_H 	H 	0.6571	0.4689	0.0945	0.046
Mof_C 	C 	0.5491	0.51327	0.1457	0.309
Mof_C 	C 	0.2111	0.54239	0.1241	0.11
Mof_H 	H 	0.2051	0.5377	0.1532	-0.028
Mof_C 	C 	0.1237	0.53147	0.09751	-0.193
Mof_H 	H 	0.0597	0.5199	0.1081	0.097
Mof_C 	C 	0.1297	0.53754	0.05441	0.172
Mof_C 	C 	0.2283	0.55372	0.04187	-0.203
Mof_H 	H 	0.2386	0.5573	0.0129	0.116
Mof_C 	C 	0.3105	0.56448	0.0712	0.126
Mof_H 	H 	0.3753	0.5764	0.0615	-0.019
Mof_C 	C 	0.0467	0.53249	0.98065	-0.061
Mof_H 	H 	0.1124	0.5481	0.974	0.054
Mof_H 	H 	0.9799	0.5458	0.9681	0.056
Mof_C 	C 	0.9454	0.5064	0.03651	-0.031
Mof_H 	H 	0.8767	0.5192	0.0248	0.049
Mof_H 	H 	0.9414	0.5047	0.0673	0.037
Mof_Zn	Zn	0.32687	0.83421	0.04966	1.21
Mof_Zn	Zn	0.92316	0.07675	0.15511	1.21
Mof_O 	O 	0.3945	0.78574	0.07213	-0.45
Mof_O 	O 	0.5487	0.82111	0.0836	-0.307
Mof_O 	O 	0.5254	0.61959	0.14607	-0.448
Mof_O 	O 	0.369	0.65027	0.12392	-0.322
Mof_O 	O 	0.3018	0.86654	0.09811	-0.45
Mof_O 	O 	0.2345	0.9124	0.05381	-0.328
Mof_O 	O 	0.0583	0.03081	0.11153	-0.314
Mof_O 	O 	0.995	0.02708	0.17541	-0.441
Mof_N 	N 	0.3957	0.85156	0.99763	-0.286
Mof_N 	N 	0.5486	0.88315	0.88907	-0.126
Mof_N 	N 	0.6694	0.89275	0.8153	-0.129
Mof_N 	N 	0.8401	0.91133	0.70714	-0.277
Mof_N 	N 	0.1751	0.81227	0.03021	-0.275
Mof_N 	N 	0.8594	0.76525	0.00356	-0.127
Mof_N 	N 	0.805	0.05927	0.11249	-0.286
Mof_N 	N 	0.5401	0.0298	0.02679	-0.126
Mof_C 	C 	0.3418	0.84943	0.95946	0.099
Mof_H 	H 	0.2673	0.8404	0.9578	-0.016
Mof_C 	C 	0.3886	0.85966	0.92279	-0.184
Mof_H 	H 	0.3463	0.8578	0.8968	0.102
Mof_C 	C 	0.4974	0.8727	0.92385	0.157
Mof_C 	C 	0.5547	0.8752	0.96395	-0.176
Mof_H 	H 	0.6293	0.8841	0.9666	0.089
Mof_C 	C 	0.5012	0.86467	0.99878	0.09
Mof_H 	H 	0.5407	0.8667	0.0253	-0.009
Mof_C 	C 	0.6645	0.89655	0.8914	-0.045
Mof_H 	H 	0.7142	0.8736	0.8961	0.052
Mof_H 	H 	0.6771	0.9146	0.9156	0.044
Mof_C 	C 	0.6923	0.91692	0.85284	-0.046
Mof_H 	H 	0.7718	0.924	0.855	0.052
Mof_H 	H 	0.6489	0.9416	0.85	0.05
Mof_C 	C 	0.582	0.8644	0.81709	-0.033
Mof_H 	H 	0.5461	0.8607	0.7887	0.033
Mof_H 	H 	0.6136	0.8388	0.8266	0.042
Mof_C 	C 	0.4967	0.87737	0.84651	-0.053
Mof_H 	H 	0.4378	0.8572	0.8473	0.042
Mof_H 	H 	0.4623	0.9023	0.8363	0.051
Mof_C 	C 	0.7255	0.89841	0.7802	0.171
Mof_C 	C 	0.7146	0.87319	0.74595	-0.193
Mof_H 	H 	0.6666	0.8511	0.7465	0.092
Mof_C 	C 	0.773	0.88009	0.71144	0.101
Mof_H 	H 	0.7658	0.8617	0.689	-0.014
Mof_C 	C 	0.8486	0.93544	0.74052	0.102
Mof_H 	H 	0.8953	0.9578	0.739	-0.008
Mof_C 	C 	0.7955	0.93017	0.7761	-0.201
Mof_H 	H 	0.8064	0.9484	0.7985	0.102
Mof_C 	C 	0.089	0.83496	0.01608	0.104
Mof_H 	H 	0.1013	0.8624	0.0129	-0.012
Mof_C 	C 	0.9862	0.82067	0.00622	-0.183
Mof_H 	H 	0.9292	0.838	0.9958	0.094
Mof_C 	C 	0.9628	0.78034	0.01123	0.163
Mof_C 	C 	0.0531	0.75735	0.02488	-0.19
Mof_H 	H 	0.0438	0.7298	0.0282	0.088
Mof_C 	C 	0.1536	0.7736	0.03343	0.103
Mof_H 	H 	0.2131	0.7567	0.0423	-0.015
Mof_C 	C 	0.8369	0.72435	0.0108	-0.046
Mof_H 	H 	0.8737	0.7173	0.0383	0.043
Mof_H 	H 	0.8741	0.7091	0.9893	0.051
Mof_C 	C 	0.7654	0.7882	0.9894	-0.027
Mof_H 	H 	0.7777	0.796	0.9602	0.043
Mof_H 	H 	0.7687	0.8127	0.0062	0.04
Mof_C 	C 	0.4949	0.78992	0.08589	0.326
Mof_C 	C 	0.5496	0.75428	0.10551	-0.092
Mof_C 	C 	0.6581	0.75602	0.12189	0.018
Mof_H 	H 	0.6996	0.7796	0.1202	0.04
Mof_C 	C 	0.706	0.72231	0.14115	-0.084
Mof_H 	H 	0.781	0.7228	0.152	0.056
Mof_C 	C 	0.6439	0.6888	0.14418	0.02
Mof_H 	H 	0.6759	0.6665	0.1582	0.04
Mof_C 	C 	0.5384	0.68666	0.12773	-0.094
Mof_C 	C 	0.4917	0.71941	0.1086	0.033
Mof_H 	H 	0.4174	0.7181	0.0972	0.048
Mof_C 	C 	0.4713	0.65007	0.13255	0.311
Mof_C 	C 	0.2506	0.89904	0.08905	0.328
Mof_C 	C 	0.2045	0.91933	0.12629	-0.093
Mof_C 	C 	0.2042	0.90149	0.1655	0.021
Mof_H 	H 	0.2388	0.8766	0.1701	0.04
Mof_C 	C 	0.1535	0.92005	0.19777	-0.085
Mof_H 	H 	0.1527	0.9076	0.2244	0.06
Mof_C 	C 	0.1043	0.95622	0.19182	0.02
Mof_H 	H 	0.0696	0.9686	0.2142	0.038
Mof_C 	C 	0.1052	0.97479	0.15295	-0.095
Mof_C 	C 	0.1556	0.95618	0.12095	0.029
Mof_H 	H 	0.1571	0.9689	0.0945	0.046
Mof_C 	C 	0.0491	0.01327	0.1457	0.309
Mof_C 	C 	0.7111	0.04239	0.1241	0.11
Mof_H 	H 	0.7051	0.0377	0.1532	-0.028
Mof_C 	C 	0.6237	0.03147	0.09751	-0.193
Mof_H 	H 	0.5597	0.0199	0.1081	0.097
Mof_C 	C 	0.6297	0.03754	0.05441	0.172
Mof_C 	C 	0.7283	0.05372	0.04187	-0.203
Mof_H 	H 	0.7386	0.0573	0.0129	0.116
Mof_C 	C 	0.8105	0.06448	0.0712	0.126
Mof_H 	H 	0.8753	0.0764	0.0615	-0.019
Mof_C 	C 	0.5467	0.03249	0.98065	-0.059
Mof_H 	H 	0.6124	0.0481	0.974	0.054
Mof_H 	H 	0.4799	0.0458	0.9681	0.055
Mof_C 	C 	0.4454	0.0064	0.03651	-0.032
Mof_H 	H 	0.3767	0.0192	0.0248	0.049
Mof_H 	H 	0.4414	0.0047	0.0673	0.037
_end
