data_functionalizedCrystal
_audit_creation_method	'EQeq! by Chris Wilmer'
_symmetry_space_group_name_H-M	'P1'
_symmetry_Int_Tables_number	1
_symmetry_cell_setting	triclinic
loop_
_symmetry_equiv_pos_as_xyz
  x,y,z
_cell_length_a	12.656
_cell_length_b	9.2408
_cell_length_c	25.544
_cell_angle_alpha	90
_cell_angle_beta	96.158
_cell_angle_gamma	90
loop_
_atom_site_label
_atom_site_type_symbol
_atom_site_fract_x
_atom_site_fract_y
_atom_site_fract_z
_atom_site_charge
Mof_C 	C 	0.8815	0.0613	0.4172	0.387
Mof_C 	C 	0.8173	0.0896	0.3664	-0.194
Mof_C 	C 	0.7368	0.9983	0.3471	0.137
Mof_H 	H 	0.7217	0.9175	0.3667	-0.003
Mof_C 	C 	0.8404	0.2066	0.3357	0.139
Mof_H 	H 	0.8957	0.2685	0.3476	-0.009
Mof_C 	C 	0.6784	0.0236	0.2999	-0.238
Mof_H 	H 	0.6234	0.9611	0.288	0.116
Mof_C 	C 	0.7833	0.2323	0.2884	-0.241
Mof_H 	H 	0.8	0.3118	0.2686	0.118
Mof_C 	C 	0.7008	0.1419	0.2695	0.204
Mof_C 	C 	0.3241	0.074	0.1839	-0.228
Mof_H 	H 	0.2526	0.0512	0.1756	0.11
Mof_C 	C 	0.3598	0.1273	0.2335	0.145
Mof_H 	H 	0.3124	0.1446	0.2582	-0.021
Mof_C 	C 	0.3934	0.055	0.1478	0.168
Mof_H 	H 	0.3696	0.0203	0.1144	-0.026
Mof_C 	C 	0.4691	0.1546	0.2457	-0.261
Mof_H 	H 	0.4947	0.1861	0.2792	0.124
Mof_C 	C 	0.4994	0.087	0.1605	-0.272
Mof_H 	H 	0.5462	0.075	0.1352	0.131
Mof_C 	C 	0.5372	0.1354	0.2089	0.232
Mof_C 	C 	0.7021	0.2228	0.1792	0.2
Mof_C 	C 	0.7935	0.1572	0.1674	-0.24
Mof_H 	H 	0.8179	0.0753	0.1861	0.119
Mof_C 	C 	0.6656	0.3465	0.1517	-0.235
Mof_H 	H 	0.604	0.3929	0.1596	0.116
Mof_C 	C 	0.7214	0.3982	0.1132	0.141
Mof_H 	H 	0.6974	0.4807	0.0947	-0.001
Mof_C 	C 	0.8497	0.2101	0.1285	0.143
Mof_H 	H 	0.9119	0.1645	0.1211	-0.003
Mof_C 	C 	0.8138	0.3304	0.1008	-0.188
Mof_C 	C 	0.8776	0.3924	0.0607	0.395
Mof_C 	C 	0.1177	0.0706	0.0324	0.146
Mof_H 	H 	0.0571	0.0869	0.0492	-0.009
Mof_C 	C 	0.1692	0.9497	0.0449	-0.248
Mof_H 	H 	0.1506	0.8882	0.0713	0.128
Mof_C 	C 	0.2213	0.1527	0.973	0.103
Mof_H 	H 	0.2407	0.2219	0.9494	0.005
Mof_C 	C 	0.2849	0.0125	0.9816	-0.187
Mof_H 	H 	0.3434	0.9908	0.9639	0.114
Mof_C 	C 	0.248	0.9224	0.0177	0.17
Mof_C 	C 	0.31	0.7721	0.0285	-0.052
Mof_H 	H 	0.3329	0.7635	0.0659	0.053
Mof_H 	H 	0.262	0.6926	0.0186	0.06
Mof_C 	C 	0.4437	0.627	0.0027	0.151
Mof_C 	C 	0.4124	0.5055	0.0266	-0.103
Mof_H 	H 	0.3529	0.5082	0.045	0.079
Mof_C 	C 	0.5314	0.6226	0.9762	-0.089
Mof_H 	H 	0.5537	0.7056	0.9599	0.076
Mof_N 	N 	0.6454	0.169	0.2202	-0.214
Mof_N 	N 	0.1419	0.1738	0.9984	-0.21
Mof_O 	O 	0.862	0.9448	0.44076	-0.41
Mof_O 	O 	0.951	0.1518	0.43372	-0.415
Mof_O 	O 	0.8585	0.5219	0.04715	-0.411
Mof_O 	O 	0.9456	0.3135	0.04331	-0.418
Mof_O 	O 	0.3942	0.7623	0.0018	-0.206
Mof_Cu	Cu	0.05155	0.37445	0.99695	0.922
Mof_C 	C 	0.1185	0.5613	0.0828	0.386
Mof_C 	C 	0.1827	0.5896	0.1336	-0.202
Mof_C 	C 	0.2632	0.4983	0.1529	0.148
Mof_H 	H 	0.2783	0.4175	0.1333	-0.006
Mof_C 	C 	0.1596	0.7066	0.1643	0.145
Mof_H 	H 	0.1043	0.7685	0.1524	-0.01
Mof_C 	C 	0.3216	0.5236	0.2001	-0.248
Mof_H 	H 	0.3766	0.4611	0.212	0.121
Mof_C 	C 	0.2167	0.7323	0.2116	-0.247
Mof_H 	H 	0.2	0.8118	0.2314	0.12
Mof_C 	C 	0.2992	0.6419	0.2305	0.209
Mof_C 	C 	0.6759	0.574	0.3161	-0.228
Mof_H 	H 	0.7474	0.5512	0.3244	0.111
Mof_C 	C 	0.6402	0.6273	0.2665	0.145
Mof_H 	H 	0.6876	0.6446	0.2418	-0.021
Mof_C 	C 	0.6066	0.555	0.3522	0.168
Mof_H 	H 	0.6304	0.5203	0.3856	-0.026
Mof_C 	C 	0.5309	0.6546	0.2543	-0.261
Mof_H 	H 	0.5053	0.6861	0.2208	0.124
Mof_C 	C 	0.5006	0.587	0.3395	-0.272
Mof_H 	H 	0.4538	0.575	0.3648	0.131
Mof_C 	C 	0.4628	0.6354	0.2911	0.232
Mof_C 	C 	0.2979	0.7228	0.3208	0.2
Mof_C 	C 	0.2065	0.6572	0.3326	-0.24
Mof_H 	H 	0.1821	0.5753	0.3139	0.119
Mof_C 	C 	0.3344	0.8465	0.3483	-0.235
Mof_H 	H 	0.396	0.8929	0.3404	0.116
Mof_C 	C 	0.2786	0.8982	0.3868	0.142
Mof_H 	H 	0.3026	0.9807	0.4053	-0.001
Mof_C 	C 	0.1503	0.7101	0.3715	0.143
Mof_H 	H 	0.0881	0.6645	0.3789	-0.004
Mof_C 	C 	0.1862	0.8304	0.3992	-0.189
Mof_C 	C 	0.1224	0.8924	0.4393	0.397
Mof_C 	C 	0.8823	0.5706	0.4676	0.147
Mof_H 	H 	0.9429	0.5869	0.4508	-0.009
Mof_C 	C 	0.8308	0.4497	0.4551	-0.249
Mof_H 	H 	0.8494	0.3882	0.4287	0.128
Mof_C 	C 	0.7787	0.6527	0.527	0.102
Mof_H 	H 	0.7593	0.7219	0.5506	0.006
Mof_C 	C 	0.7151	0.5125	0.5184	-0.183
Mof_H 	H 	0.6566	0.4908	0.5361	0.113
Mof_C 	C 	0.752	0.4224	0.4823	0.167
Mof_C 	C 	0.69	0.2721	0.4715	-0.051
Mof_H 	H 	0.6671	0.2635	0.4341	0.052
Mof_H 	H 	0.738	0.1926	0.4814	0.059
Mof_C 	C 	0.5563	0.127	0.4973	0.151
Mof_C 	C 	0.5876	0.0055	0.4734	-0.103
Mof_H 	H 	0.6471	0.0082	0.455	0.079
Mof_C 	C 	0.4686	0.1226	0.5238	-0.09
Mof_H 	H 	0.4463	0.2056	0.5401	0.076
Mof_N 	N 	0.3546	0.669	0.2798	-0.215
Mof_N 	N 	0.8581	0.6738	0.5016	-0.209
Mof_O 	O 	0.138	0.4448	0.05924	-0.408
Mof_O 	O 	0.049	0.6518	0.06628	-0.415
Mof_O 	O 	0.1415	0.0219	0.45285	-0.412
Mof_O 	O 	0.0544	0.8135	0.45669	-0.417
Mof_O 	O 	0.6058	0.2623	0.4982	-0.207
Mof_Cu	Cu	0.94845	0.87445	0.50305	0.922
Mof_C 	C 	0.1185	0.9387	0.5828	0.386
Mof_C 	C 	0.1827	0.9104	0.6336	-0.195
Mof_C 	C 	0.2632	0.0017	0.6529	0.137
Mof_H 	H 	0.2783	0.0825	0.6333	-0.003
Mof_C 	C 	0.1596	0.7934	0.6643	0.139
Mof_H 	H 	0.1043	0.7315	0.6524	-0.009
Mof_C 	C 	0.3216	0.9764	0.7001	-0.238
Mof_H 	H 	0.3766	0.0389	0.712	0.116
Mof_C 	C 	0.2167	0.7677	0.7116	-0.241
Mof_H 	H 	0.2	0.6882	0.7314	0.118
Mof_C 	C 	0.2992	0.8581	0.7305	0.204
Mof_C 	C 	0.6759	0.926	0.8161	-0.228
Mof_H 	H 	0.7474	0.9488	0.8244	0.11
Mof_C 	C 	0.6402	0.8727	0.7665	0.145
Mof_H 	H 	0.6876	0.8554	0.7418	-0.021
Mof_C 	C 	0.6066	0.945	0.8522	0.168
Mof_H 	H 	0.6304	0.9797	0.8856	-0.026
Mof_C 	C 	0.5309	0.8454	0.7543	-0.261
Mof_H 	H 	0.5053	0.8139	0.7208	0.124
Mof_C 	C 	0.5006	0.913	0.8395	-0.272
Mof_H 	H 	0.4538	0.925	0.8648	0.131
Mof_C 	C 	0.4628	0.8646	0.7911	0.232
Mof_C 	C 	0.2979	0.7772	0.8208	0.2
Mof_C 	C 	0.2065	0.8428	0.8326	-0.24
Mof_H 	H 	0.1821	0.9247	0.8139	0.119
Mof_C 	C 	0.3344	0.6535	0.8483	-0.235
Mof_H 	H 	0.396	0.6071	0.8404	0.116
Mof_C 	C 	0.2786	0.6018	0.8868	0.141
Mof_H 	H 	0.3026	0.5193	0.9053	-0.001
Mof_C 	C 	0.1503	0.7899	0.8715	0.143
Mof_H 	H 	0.0881	0.8355	0.8789	-0.003
Mof_C 	C 	0.1862	0.6696	0.8992	-0.188
Mof_C 	C 	0.1224	0.6076	0.9393	0.395
Mof_C 	C 	0.8823	0.9294	0.9676	0.146
Mof_H 	H 	0.9429	0.9131	0.9508	-0.009
Mof_C 	C 	0.8308	0.0503	0.9551	-0.248
Mof_H 	H 	0.8494	0.1118	0.9287	0.128
Mof_C 	C 	0.7787	0.8473	0.027	0.103
Mof_H 	H 	0.7593	0.7781	0.0506	0.005
Mof_C 	C 	0.7151	0.9875	0.0184	-0.187
Mof_H 	H 	0.6566	0.0092	0.0361	0.114
Mof_C 	C 	0.752	0.0776	0.9823	0.17
Mof_C 	C 	0.69	0.2279	0.9715	-0.052
Mof_H 	H 	0.6671	0.2365	0.9341	0.053
Mof_H 	H 	0.738	0.3074	0.9814	0.06
Mof_C 	C 	0.5563	0.373	0.9973	0.151
Mof_C 	C 	0.5876	0.4945	0.9734	-0.103
Mof_H 	H 	0.6471	0.4918	0.955	0.079
Mof_C 	C 	0.4686	0.3774	0.0238	-0.089
Mof_H 	H 	0.4463	0.2944	0.0401	0.076
Mof_N 	N 	0.3546	0.831	0.7798	-0.214
Mof_N 	N 	0.8581	0.8262	0.0016	-0.21
Mof_O 	O 	0.138	0.0552	0.55924	-0.41
Mof_O 	O 	0.049	0.8482	0.56628	-0.415
Mof_O 	O 	0.1415	0.4781	0.95285	-0.411
Mof_O 	O 	0.0544	0.6865	0.95669	-0.418
Mof_O 	O 	0.6058	0.2377	0.9982	-0.206
Mof_Cu	Cu	0.94845	0.62555	0.00305	0.922
Mof_C 	C 	0.8815	0.4387	0.9172	0.386
Mof_C 	C 	0.8173	0.4104	0.8664	-0.202
Mof_C 	C 	0.7368	0.5017	0.8471	0.148
Mof_H 	H 	0.7217	0.5825	0.8667	-0.006
Mof_C 	C 	0.8404	0.2934	0.8357	0.145
Mof_H 	H 	0.8957	0.2315	0.8476	-0.01
Mof_C 	C 	0.6784	0.4764	0.7999	-0.248
Mof_H 	H 	0.6234	0.5389	0.788	0.121
Mof_C 	C 	0.7833	0.2677	0.7884	-0.247
Mof_H 	H 	0.8	0.1882	0.7686	0.12
Mof_C 	C 	0.7008	0.3581	0.7695	0.209
Mof_C 	C 	0.3241	0.426	0.6839	-0.228
Mof_H 	H 	0.2526	0.4488	0.6756	0.111
Mof_C 	C 	0.3598	0.3727	0.7335	0.145
Mof_H 	H 	0.3124	0.3554	0.7582	-0.021
Mof_C 	C 	0.3934	0.445	0.6478	0.168
Mof_H 	H 	0.3696	0.4797	0.6144	-0.026
Mof_C 	C 	0.4691	0.3454	0.7457	-0.261
Mof_H 	H 	0.4947	0.3139	0.7792	0.124
Mof_C 	C 	0.4994	0.413	0.6605	-0.272
Mof_H 	H 	0.5462	0.425	0.6352	0.131
Mof_C 	C 	0.5372	0.3646	0.7089	0.232
Mof_C 	C 	0.7021	0.2772	0.6792	0.2
Mof_C 	C 	0.7935	0.3428	0.6674	-0.24
Mof_H 	H 	0.8179	0.4247	0.6861	0.119
Mof_C 	C 	0.6656	0.1535	0.6517	-0.235
Mof_H 	H 	0.604	0.1071	0.6596	0.116
Mof_C 	C 	0.7214	0.1018	0.6132	0.142
Mof_H 	H 	0.6974	0.0193	0.5947	-0.001
Mof_C 	C 	0.8497	0.2899	0.6285	0.143
Mof_H 	H 	0.9119	0.3355	0.6211	-0.004
Mof_C 	C 	0.8138	0.1696	0.6008	-0.189
Mof_C 	C 	0.8776	0.1076	0.5607	0.397
Mof_C 	C 	0.1177	0.4294	0.5324	0.147
Mof_H 	H 	0.0571	0.4131	0.5492	-0.009
Mof_C 	C 	0.1692	0.5503	0.5449	-0.249
Mof_H 	H 	0.1506	0.6118	0.5713	0.128
Mof_C 	C 	0.2213	0.3473	0.473	0.102
Mof_H 	H 	0.2407	0.2781	0.4494	0.006
Mof_C 	C 	0.2849	0.4875	0.4816	-0.183
Mof_H 	H 	0.3434	0.5092	0.4639	0.113
Mof_C 	C 	0.248	0.5776	0.5177	0.167
Mof_C 	C 	0.31	0.7279	0.5285	-0.051
Mof_H 	H 	0.3329	0.7365	0.5659	0.052
Mof_H 	H 	0.262	0.8074	0.5186	0.059
Mof_C 	C 	0.4437	0.873	0.5027	0.151
Mof_C 	C 	0.4124	0.9945	0.5266	-0.103
Mof_H 	H 	0.3529	0.9918	0.545	0.079
Mof_C 	C 	0.5314	0.8774	0.4762	-0.09
Mof_H 	H 	0.5537	0.7944	0.4599	0.076
Mof_N 	N 	0.6454	0.331	0.7202	-0.215
Mof_N 	N 	0.1419	0.3262	0.4984	-0.209
Mof_O 	O 	0.862	0.5552	0.94076	-0.408
Mof_O 	O 	0.951	0.3482	0.93372	-0.415
Mof_O 	O 	0.8585	0.9781	0.54715	-0.412
Mof_O 	O 	0.9456	0.1865	0.54331	-0.417
Mof_O 	O 	0.3942	0.7377	0.5018	-0.207
Mof_Cu	Cu	0.05155	0.12555	0.49695	0.922
_end
