data_functionalizedCrystal
_audit_creation_method	'EQeq! by Chris Wilmer'
_symmetry_space_group_name_H-M	'P1'
_symmetry_Int_Tables_number	1
_symmetry_cell_setting	triclinic
loop_
_symmetry_equiv_pos_as_xyz
  x,y,z
_cell_length_a	10.1112
_cell_length_b	15.943
_cell_length_c	16.764
_cell_angle_alpha	111.325
_cell_angle_beta	103.68
_cell_angle_gamma	102.598
loop_
_atom_site_label
_atom_site_type_symbol
_atom_site_fract_x
_atom_site_fract_y
_atom_site_fract_z
_atom_site_charge
Mof_Co	Co	0.42436	0.37657	0.59235	1.173
Mof_N 	N 	0.5104	0.4356	0.7402	-0.189
Mof_O 	O 	0.7664	0.705	0.0673	-0.251
Mof_C 	C 	0.6267	0.5139	0.7918	-0.051
Mof_H 	H 	0.6736	0.5435	0.7626	0.052
Mof_Co	Co	0.67789	0.20604	0.59281	1.172
Mof_N 	N 	0.8035	0.6381	0.9328	-0.25
Mof_H 	H 	0.8635	0.6449	0.905	0.137
Mof_O 	O 	0.2145	0.9539	0.1138	-0.238
Mof_C 	C 	0.6815	0.5538	0.8863	0.12
Mof_N 	N 	0.2736	0.9656	0.2569	-0.258
Mof_H 	H 	0.2437	0.9418	0.2905	0.158
Mof_O 	O 	0.788	0.3922	0.0817	-0.254
Mof_C 	C 	0.6159	0.5066	0.9296	-0.106
Mof_H 	H 	0.6528	0.5286	0.9926	0.089
Mof_N 	N 	0.5959	0.1449	0.4454	-0.185
Mof_O 	O 	0.3656	0.1921	0.1136	-0.237
Mof_C 	C 	0.4945	0.4263	0.8764	-0.028
Mof_H 	H 	0.4477	0.394	0.9037	0.055
Mof_O 	O 	0.6199	0.4503	0.5964	-0.444
Mof_N 	N 	0.762	0.2808	0.7412	-0.188
Mof_C 	C 	0.4432	0.394	0.7835	0.016
Mof_H 	H 	0.3588	0.3416	0.7492	0.027
Mof_N 	N 	0.6618	0.2819	0.9364	-0.252
Mof_H 	H 	0.5855	0.2323	0.9036	0.136
Mof_O 	O 	0.7071	0.3346	0.5924	-0.482
Mof_C 	C 	0.836	0.7097	0.0174	0.264
Mof_O 	O 	0.2064	0.3669	0.5901	-0.374
Mof_N 	N 	0.4619	0.312	0.258	-0.257
Mof_H 	H 	0.5283	0.3668	0.2919	0.157
Mof_C 	C 	0.9653	0.7955	0.0443	-0.213
Mof_H 	H 	0.0342	0.7737	0.018	0.105
Mof_H 	H 	0.9341	0.836	0.0181	0.114
Mof_O 	O 	0.3499	0.5017	0.6112	-0.377
Mof_N 	N 	0.3424	0.3054	0.4448	-0.184
Mof_C 	C 	0.0406	0.8545	0.1458	-0.186
Mof_H 	H 	0.0569	0.8124	0.174	0.097
Mof_H 	H 	0.9783	0.8864	0.1709	0.097
Mof_O 	O 	0.4882	0.1365	0.5987	-0.44
Mof_C 	C 	0.1839	0.9288	0.1697	0.257
Mof_C 	C 	0.4098	0.0379	0.2999	0.138
Mof_O 	O 	0.3918	0.2442	0.5864	-0.482
Mof_O 	O 	0.8918	0.2111	0.587	-0.37
Mof_C 	C 	0.491	0.0739	0.2555	-0.123
Mof_H 	H 	0.4571	0.051	0.1923	0.103
Mof_O 	O 	0.7723	0.097	0.6105	-0.377
Mof_C 	C 	0.6242	0.1451	0.3091	-0.011
Mof_H 	H 	0.6812	0.17	0.2814	0.035
Mof_C 	C 	0.672	0.1789	0.4012	0.005
Mof_H 	H 	0.7609	0.2275	0.4352	0.03
Mof_C 	C 	0.4678	0.0755	0.394	-0.061
Mof_H 	H 	0.4144	0.051	0.4236	0.065
Mof_C 	C 	0.692	0.2613	0.7942	-0.054
Mof_H 	H 	0.6017	0.2138	0.7665	0.051
Mof_C 	C 	0.7484	0.3088	0.8885	0.123
Mof_C 	C 	0.8856	0.3766	0.9313	-0.115
Mof_H 	H 	0.9272	0.4082	0.9946	0.091
Mof_C 	C 	0.9586	0.3955	0.8758	-0.024
Mof_H 	H 	0.0505	0.4411	0.9018	0.056
Mof_C 	C 	0.8944	0.3467	0.7821	0.014
Mof_H 	H 	0.9449	0.3601	0.746	0.031
Mof_C 	C 	0.6829	0.3235	0.0263	0.267
Mof_C 	C 	0.564	0.2762	0.0523	-0.213
Mof_H 	H 	0.4731	0.277	0.0174	0.112
Mof_H 	H 	0.5571	0.2098	0.0339	0.106
Mof_C 	C 	0.581	0.3195	0.1497	-0.179
Mof_H 	H 	0.5867	0.3857	0.1686	0.096
Mof_H 	H 	0.6713	0.3187	0.1852	0.094
Mof_C 	C 	0.4584	0.2684	0.1709	0.249
Mof_C 	C 	0.3712	0.2792	0.2997	0.141
Mof_C 	C 	0.2407	0.2039	0.2542	-0.123
Mof_H 	H 	0.2052	0.1702	0.1909	0.103
Mof_C 	C 	0.1645	0.1808	0.3077	-0.014
Mof_H 	H 	0.0772	0.1305	0.2797	0.036
Mof_C 	C 	0.2173	0.2315	0.3997	0.008
Mof_H 	H 	0.1647	0.2143	0.4333	0.03
Mof_C 	C 	0.4168	0.328	0.3941	-0.065
Mof_H 	H 	0.5032	0.3791	0.4241	0.067
Mof_C 	C 	0.8657	0.477	0.608	-0.133
Mof_C 	C 	0.9776	0.4398	0.6056	0.05
Mof_H 	H 	0.9644	0.3784	0.6008	0.043
Mof_C 	C 	0.1098	0.4947	0.6104	-0.101
Mof_C 	C 	0.1297	0.5867	0.6191	0.035
Mof_H 	H 	0.2182	0.6234	0.6228	0.027
Mof_C 	C 	0.0191	0.625	0.6222	-0.106
Mof_H 	H 	0.0333	0.687	0.6284	0.07
Mof_C 	C 	0.8866	0.5694	0.6159	0.049
Mof_H 	H 	0.8114	0.5941	0.6169	0.031
Mof_C 	C 	0.2279	0.4517	0.6044	0.312
Mof_C 	C 	0.7201	0.416	0.5986	0.416
Mof_C 	C 	0.2417	0.0352	0.6179	0.051
Mof_H 	H 	0.319	0.0124	0.6209	0.03
Mof_C 	C 	0.2525	0.1187	0.6061	-0.135
Mof_C 	C 	0.1376	0.1527	0.6031	0.049
Mof_H 	H 	0.1438	0.2086	0.5961	0.043
Mof_C 	C 	0.0112	0.1029	0.6105	-0.103
Mof_C 	C 	0.0029	0.0209	0.6209	0.037
Mof_H 	H 	0.9191	0.9878	0.6253	0.027
Mof_C 	C 	0.1184	0.9864	0.625	-0.108
Mof_H 	H 	0.1121	0.9308	0.6325	0.071
Mof_C 	C 	0.3867	0.1712	0.5961	0.414
Mof_C 	C 	0.8857	0.1392	0.6024	0.31
Mof_Co	Co	0.57564	0.62343	0.40765	1.172
Mof_N 	N 	0.4896	0.5644	0.2598	-0.19
Mof_O 	O 	0.2336	0.295	0.9327	-0.251
Mof_C 	C 	0.3733	0.4861	0.2082	-0.051
Mof_H 	H 	0.3264	0.4565	0.2374	0.052
Mof_Co	Co	0.32211	0.79396	0.40719	1.172
Mof_N 	N 	0.1965	0.3619	0.0672	-0.25
Mof_H 	H 	0.1365	0.3551	0.095	0.137
Mof_O 	O 	0.7855	0.0461	0.8862	-0.238
Mof_C 	C 	0.3185	0.4462	0.1137	0.12
Mof_N 	N 	0.7264	0.0344	0.7431	-0.258
Mof_H 	H 	0.7563	0.0582	0.7095	0.158
Mof_O 	O 	0.212	0.6078	0.9183	-0.254
Mof_C 	C 	0.3841	0.4934	0.0704	-0.106
Mof_H 	H 	0.3472	0.4714	0.0074	0.089
Mof_N 	N 	0.4041	0.8551	0.5546	-0.185
Mof_O 	O 	0.6344	0.8079	0.8864	-0.237
Mof_C 	C 	0.5055	0.5737	0.1236	-0.028
Mof_H 	H 	0.5523	0.606	0.0963	0.055
Mof_O 	O 	0.3801	0.5497	0.4036	-0.444
Mof_N 	N 	0.238	0.7192	0.2588	-0.188
Mof_C 	C 	0.5568	0.606	0.2165	0.016
Mof_H 	H 	0.6412	0.6584	0.2508	0.027
Mof_N 	N 	0.3382	0.7181	0.0636	-0.252
Mof_H 	H 	0.4145	0.7677	0.0964	0.136
Mof_O 	O 	0.2929	0.6654	0.4076	-0.482
Mof_C 	C 	0.164	0.2903	0.9826	0.264
Mof_O 	O 	0.7936	0.6331	0.4099	-0.374
Mof_N 	N 	0.5381	0.688	0.742	-0.257
Mof_H 	H 	0.4717	0.6332	0.7081	0.157
Mof_C 	C 	0.0347	0.2045	0.9557	-0.213
Mof_H 	H 	0.9658	0.2263	0.982	0.105
Mof_H 	H 	0.0659	0.164	0.9819	0.114
Mof_O 	O 	0.6501	0.4983	0.3888	-0.377
Mof_N 	N 	0.6576	0.6946	0.5552	-0.184
Mof_C 	C 	0.9594	0.1455	0.8542	-0.186
Mof_H 	H 	0.9431	0.1876	0.826	0.097
Mof_H 	H 	0.0217	0.1136	0.8291	0.097
Mof_O 	O 	0.5118	0.8635	0.4013	-0.44
Mof_C 	C 	0.8161	0.0712	0.8303	0.257
Mof_C 	C 	0.5902	0.9621	0.7001	0.138
Mof_O 	O 	0.6082	0.7558	0.4136	-0.482
Mof_O 	O 	0.1082	0.7889	0.413	-0.37
Mof_C 	C 	0.509	0.9261	0.7445	-0.123
Mof_H 	H 	0.5429	0.949	0.8077	0.103
Mof_O 	O 	0.2277	0.903	0.3895	-0.377
Mof_C 	C 	0.3758	0.8549	0.6909	-0.011
Mof_H 	H 	0.3188	0.83	0.7186	0.035
Mof_C 	C 	0.328	0.8211	0.5988	0.005
Mof_H 	H 	0.2391	0.7725	0.5648	0.03
Mof_C 	C 	0.5322	0.9245	0.606	-0.061
Mof_H 	H 	0.5856	0.949	0.5764	0.065
Mof_C 	C 	0.308	0.7387	0.2058	-0.054
Mof_H 	H 	0.3983	0.7862	0.2335	0.051
Mof_C 	C 	0.2516	0.6912	0.1115	0.123
Mof_C 	C 	0.1144	0.6234	0.0687	-0.115
Mof_H 	H 	0.0728	0.5918	0.0054	0.091
Mof_C 	C 	0.0414	0.6045	0.1242	-0.024
Mof_H 	H 	0.9495	0.5589	0.0982	0.056
Mof_C 	C 	0.1056	0.6533	0.2179	0.014
Mof_H 	H 	0.0551	0.6399	0.254	0.031
Mof_C 	C 	0.3171	0.6765	0.9737	0.267
Mof_C 	C 	0.436	0.7238	0.9477	-0.213
Mof_H 	H 	0.5269	0.723	0.9826	0.112
Mof_H 	H 	0.4429	0.7902	0.9661	0.106
Mof_C 	C 	0.419	0.6805	0.8503	-0.179
Mof_H 	H 	0.4133	0.6143	0.8314	0.096
Mof_H 	H 	0.3287	0.6813	0.8148	0.094
Mof_C 	C 	0.5416	0.7316	0.8291	0.249
Mof_C 	C 	0.6288	0.7208	0.7003	0.141
Mof_C 	C 	0.7593	0.7961	0.7458	-0.123
Mof_H 	H 	0.7948	0.8298	0.8091	0.103
Mof_C 	C 	0.8355	0.8192	0.6923	-0.014
Mof_H 	H 	0.9228	0.8695	0.7203	0.036
Mof_C 	C 	0.7827	0.7685	0.6003	0.008
Mof_H 	H 	0.8353	0.7857	0.5667	0.03
Mof_C 	C 	0.5832	0.672	0.6059	-0.065
Mof_H 	H 	0.4968	0.6209	0.5759	0.067
Mof_C 	C 	0.1343	0.523	0.392	-0.133
Mof_C 	C 	0.0224	0.5602	0.3944	0.05
Mof_H 	H 	0.0356	0.6216	0.3992	0.043
Mof_C 	C 	0.8902	0.5053	0.3896	-0.101
Mof_C 	C 	0.8703	0.4133	0.3809	0.035
Mof_H 	H 	0.7818	0.3766	0.3772	0.027
Mof_C 	C 	0.9809	0.375	0.3778	-0.106
Mof_H 	H 	0.9667	0.313	0.3716	0.07
Mof_C 	C 	0.1134	0.4306	0.3841	0.049
Mof_H 	H 	0.1886	0.4059	0.3831	0.031
Mof_C 	C 	0.7721	0.5483	0.3956	0.312
Mof_C 	C 	0.2799	0.584	0.4014	0.416
Mof_C 	C 	0.7583	0.9648	0.3821	0.051
Mof_H 	H 	0.681	0.9876	0.3791	0.03
Mof_C 	C 	0.7475	0.8813	0.3939	-0.135
Mof_C 	C 	0.8624	0.8473	0.3969	0.049
Mof_H 	H 	0.8562	0.7914	0.4039	0.043
Mof_C 	C 	0.9888	0.8971	0.3895	-0.103
Mof_C 	C 	0.9971	0.9791	0.3791	0.037
Mof_H 	H 	0.0809	0.0122	0.3747	0.027
Mof_C 	C 	0.8816	0.0136	0.375	-0.108
Mof_H 	H 	0.8879	0.0692	0.3675	0.071
Mof_C 	C 	0.6133	0.8288	0.4039	0.414
Mof_C 	C 	0.1143	0.8608	0.3976	0.31
_end
