data_functionalizedCrystal
_audit_creation_method	'EQeq! by Chris Wilmer'
_symmetry_space_group_name_H-M	'P1'
_symmetry_Int_Tables_number	1
_symmetry_cell_setting	triclinic
loop_
_symmetry_equiv_pos_as_xyz
  x,y,z
_cell_length_a	26.543
_cell_length_b	26.5434
_cell_length_c	26.5434
_cell_angle_alpha	60.026
_cell_angle_beta	89.955
_cell_angle_gamma	119.974
loop_
_atom_site_label
_atom_site_type_symbol
_atom_site_fract_x
_atom_site_fract_y
_atom_site_fract_z
_atom_site_charge
Mof_Co	Co	3.43757e-17	0.5	-0	1.095
Mof_Co	Co	0.5	0	-0	1.091
Mof_Co	Co	-0	0	0.5	1.096
Mof_Co	Co	-6.87514e-17	0.5	0.5	1.137
Mof_Co	Co	0.5	0.5	0.5	1.124
Mof_Co	Co	0.5	0.5	-0	1.134
Mof_H 	H 	0.2844	0.4439	0.5435	0.041
Mof_H 	H 	0.9628	0.665	0.519	1.004
Mof_H 	H 	0.6166	0.6534	0.905	0.41
Mof_H 	H 	0.9656	0.479	0.7004	-0.442
Mof_H 	H 	0.012	0.5283	0.8729	-0.013
Mof_H 	H 	0.5496	0.5136	0.3856	0.005
Mof_H 	H 	0.0143	0.8905	0.6032	-0.029
Mof_H 	H 	0.2996	0.334	0.1794	-0.519
Mof_H 	H 	0.028	0.2043	0.5015	0.033
Mof_H 	H 	0.1008	0.4864	0.964	0.041
Mof_H 	H 	0.3834	0.3466	0.095	0.566
Mof_H 	H 	0.3828	0.3457	0.5553	0.023
Mof_H 	H 	0.1265	0.5247	0.4874	-0.388
Mof_H 	H 	0.1248	0.6232	0.3968	1.361
Mof_H 	H 	0.4722	0.4541	0.8353	-0.991
Mof_H 	H 	0.1791	0.2131	0.488	0.039
Mof_H 	H 	0.512	0.3329	0.7011	0.041
Mof_H 	H 	0.0364	0.214	0.2998	-0.005
Mof_H 	H 	0.2805	0.8347	0.1532	0.024
Mof_H 	H 	0.8998	0.9364	0.4498	0.02
Mof_H 	H 	0.1763	0.4705	0.028	0.031
Mof_H 	H 	0.8729	0.8849	0.5988	0.02
Mof_H 	H 	0.519	0.4818	0.816	1.196
Mof_H 	H 	0.2942	0.7957	0.1763	0.046
Mof_H 	H 	0.8704	0.4696	0.0078	-0.02
Mof_H 	H 	0.4504	0.4864	0.6144	0.006
Mof_H 	H 	0.1647	0.6925	0.2894	-0.897
Mof_H 	H 	0.5988	0.4717	0.5163	0.016
Mof_H 	H 	0.5435	0.8279	0.0126	0.034
Mof_H 	H 	0.9081	0.3466	0.6187	-1.548
Mof_H 	H 	0.1597	0.4426	0.5447	0.507
Mof_H 	H 	0.0127	0.5574	0.2829	0.445
Mof_H 	H 	0.9629	0.0619	0.3828	0.04
Mof_H 	H 	0.037	0.4843	0.9013	-0.026
Mof_H 	H 	0.2894	0.4541	0.0181	-1.115
Mof_H 	H 	0.1595	0.1721	0.2844	0.038
Mof_H 	H 	0.4984	0.4784	0.1248	1.3
Mof_H 	H 	0.5992	0.1218	0.8704	0.005
Mof_H 	H 	0.8992	0.5136	0.036	-0.029
Mof_H 	H 	0.7156	0.5561	0.4565	0.042
Mof_H 	H 	0.5475	0.8319	0.1592	0.083
Mof_H 	H 	0.7156	0.7067	0.4525	0.083
Mof_H 	H 	0.1271	0.1151	0.4012	0.012
Mof_H 	H 	0.8735	0.4753	0.5126	-0.295
Mof_H 	H 	0.5502	0.6504	0.3862	0.014
Mof_H 	H 	0.5997	0.1191	0.0088	-0.033
Mof_H 	H 	0.4458	0.4337	0.7195	0.023
Mof_H 	H 	0.7011	0.2131	0.966	0.056
Mof_H 	H 	0.3968	0.5216	0.98	1.688
Mof_H 	H 	0.7004	0.666	0.8206	-0.355
Mof_H 	H 	0.0089	0.1681	0.2844	0.075
Mof_H 	H 	0.0362	0.522	0.179	0.041
Mof_H 	H 	0.3856	0.9352	0.1008	0.016
Mof_H 	H 	0.5226	0.5304	0.5992	0.01
Mof_H 	H 	0.964	0.0648	0.5496	0.026
Mof_H 	H 	0.8209	0.7869	0.512	0.046
Mof_H 	H 	0.4565	0.1721	0.9874	0.05
Mof_H 	H 	0.9894	0.71	0.8402	0.062
Mof_H 	H 	0.6018	0.6139	0.8735	-0.271
Mof_H 	H 	0.8721	0.8809	0.5194	0.006
Mof_H 	H 	0.2978	0.4818	0.0372	1.307
Mof_H 	H 	0.1598	0.1704	0.5502	0.05
Mof_H 	H 	0.5063	0.1095	0.8762	-0.017
Mof_H 	H 	0.9819	0.6925	0.4722	-0.8
Mof_H 	H 	0.5126	0.3861	0.0121	-0.402
Mof_H 	H 	0.4866	0.666	0.0344	-0.421
Mof_H 	H 	0.5278	0.5459	0.1647	-0.855
Mof_H 	H 	0.4874	0.6139	0.9879	-0.272
Mof_H 	H 	0.7022	0.5182	0.9628	0.937
Mof_H 	H 	0.488	0.6671	0.2989	0.044
Mof_H 	H 	0.5527	0.9383	0.963	0.033
Mof_H 	H 	0.821	0.7848	0.701	0.057
Mof_H 	H 	0.0366	0.6504	0.8998	-0.013
Mof_H 	H 	0.7058	0.2043	0.8237	0.046
Mof_H 	H 	0.1776	0.6638	0.0364	-0.007
Mof_H 	H 	0.9912	0.3915	0.1279	0.027
Mof_H 	H 	0.0121	0.1653	0.5542	0.012
Mof_H 	H 	0.5194	0.3915	0.5997	0.001
Mof_H 	H 	0.4385	0.4732	0.9081	-1.575
Mof_H 	H 	0.9879	0.4753	0.3982	-0.296
Mof_H 	H 	0.02	0.6232	0.5016	1.21
Mof_H 	H 	0.1794	0.479	0.4866	-0.499
Mof_H 	H 	0.3982	0.3861	0.1265	-0.405
Mof_H 	H 	0.036	0.9352	0.4504	-0.011
Mof_H 	H 	0.966	0.6671	0.8209	0.058
Mof_H 	H 	0.8468	0.5663	0.9879	0.038
Mof_H 	H 	0.1279	0.1191	0.4806	-0.001
Mof_H 	H 	0.0372	0.335	0.481	1.262
Mof_H 	H 	0.3862	0.9364	0.9634	0.053
Mof_H 	H 	0.8408	0.2933	0.9911	0.085
Mof_H 	H 	0.2829	0.2956	0.1597	0.518
Mof_H 	H 	0.0121	0.5247	0.6018	-0.386
Mof_H 	H 	0.184	0.665	0.2978	1.089
Mof_H 	H 	0.5542	0.5663	0.2805	0.025
Mof_H 	H 	0.8403	0.5574	0.4553	0.418
Mof_H 	H 	0.1238	0.6175	0.9857	0.023
Mof_H 	H 	0.6144	0.5157	0.4473	-0.003
Mof_H 	H 	0.4416	0.3466	0.0368	0.475
Mof_H 	H 	0.8237	0.5295	0.972	0.062
Mof_H 	H 	0.5015	0.5295	0.2942	0.047
Mof_H 	H 	0.4003	0.8809	0.9912	0.036
Mof_H 	H 	0.2998	0.3362	0.4862	0.013
Mof_H 	H 	0.4937	0.8905	0.1238	-0.003
Mof_H 	H 	0.6172	0.6543	0.4447	0.023
Mof_H 	H 	0.5502	0.71	0.2794	0.053
Mof_H 	H 	0.1532	0.4337	0.0121	0.009
Mof_H 	H 	0.98	0.3768	0.4984	1.623
Mof_H 	H 	0.6138	0.0636	0.0366	-0.027
Mof_H 	H 	0.5134	0.334	0.9656	-0.448
Mof_H 	H 	0.4985	0.4705	0.7058	0.046
Mof_H 	H 	0.095	0.4784	0.5584	0.549
Mof_H 	H 	0.6144	0.0648	0.8992	-0.002
Mof_H 	H 	0.6032	0.4784	0.02	1.117
Mof_H 	H 	0.4837	0.8849	0.988	0.053
Mof_H 	H 	0.7206	0.1704	0.9894	0.06
Mof_H 	H 	0.5163	0.1151	0.012	-0.023
Mof_H 	H 	0.9911	0.8319	0.7156	0.088
Mof_H 	H 	0.8353	0.3075	0.7106	-0.973
Mof_H 	H 	0.4447	0.0619	0.901	0.014
Mof_H 	H 	0.816	0.335	0.7022	1.174
Mof_H 	H 	0.299	0.478	0.4858	0.055
Mof_H 	H 	0.0347	0.6534	0.4385	-1.327
Mof_H 	H 	0.9632	0.5216	0.3834	0.508
Mof_H 	H 	0.1592	0.7067	0.0089	0.077
Mof_H 	H 	0.7106	0.5459	0.9819	-0.738
Mof_H 	H 	0.1002	0.0636	0.5502	0.009
Mof_H 	H 	0.0368	0.4784	0.6166	0.476
Mof_H 	H 	0.4858	0.7848	0.0362	0.043
Mof_H 	H 	0.4498	0.3496	0.6138	0.013
Mof_H 	H 	0.9634	0.3496	0.1002	0.042
Mof_H 	H 	0.0987	0.0617	0.3856	-0.009
Mof_H 	H 	0.8224	0.3362	0.9636	0.037
Mof_H 	H 	0.5016	0.5216	0.8752	1.494
Mof_H 	H 	0.1296	0.5304	0.9922	0.042
Mof_H 	H 	0.701	0.522	0.5142	0.053
Mof_H 	H 	0.0078	0.8782	0.5226	-0.007
Mof_H 	H 	0.0371	0.9381	0.6172	0.008
Mof_H 	H 	0.0106	0.29	0.1598	0.041
Mof_H 	H 	0.4012	0.5283	0.4837	0.015
Mof_H 	H 	0.901	0.3457	0.0371	-0.01
Mof_H 	H 	0.034	0.3329	0.1791	0.027
Mof_H 	H 	0.6187	0.5268	0.0347	-1.24
Mof_H 	H 	0.3813	0.4732	0.9653	-1.721
Mof_H 	H 	0.9013	0.9383	0.6144	0.005
Mof_H 	H 	0.8405	0.8279	0.7156	0.045
Mof_H 	H 	0.3968	0.3825	0.4937	-0.012
Mof_H 	H 	0.481	0.5182	0.184	1.04
Mof_H 	H 	0.8402	0.8296	0.4498	0.053
Mof_H 	H 	0.0181	0.3075	0.5278	-1.072
Mof_H 	H 	0.3856	0.4843	0.5527	-0.002
Mof_H 	H 	0.2989	0.7869	0.034	0.031
Mof_H 	H 	0.8762	0.3825	0.0143	-0.045
Mof_H 	H 	0.7002	0.6638	0.5138	0.015
Mof_H 	H 	0.5584	0.6534	0.9632	0.496
Mof_H 	H 	0.9636	0.786	0.7002	0.033
Mof_H 	H 	0.0088	0.6085	0.8721	-0.021
Mof_H 	H 	0.0126	0.5561	0.1595	0.032
Mof_H 	H 	0.5447	0.7044	0.0127	0.432
Mof_H 	H 	0.963	0.5157	0.0987	0.021
Mof_H 	H 	0.8206	0.521	0.5134	-0.384
Mof_H 	H 	0.988	0.4717	0.1271	0.045
Mof_H 	H 	0.9638	0.478	0.821	0.068
Mof_H 	H 	0.5553	0.9381	0.099	0.034
Mof_H 	H 	0.7171	0.7044	0.8403	0.399
Mof_H 	H 	0.4008	0.8782	0.1296	0.018
Mof_H 	H 	0.4553	0.2956	0.9873	0.484
Mof_H 	H 	0.179	0.2152	0.299	0.051
Mof_H 	H 	0.9873	0.4426	0.7171	0.479
Mof_H 	H 	0.8752	0.3768	0.6032	1.468
Mof_H 	H 	0.4806	0.6085	0.4003	0.003
Mof_H 	H 	0.2844	0.2933	0.5475	0.08
Mof_H 	H 	0.0919	0.6534	0.3813	-1.438
Mof_H 	H 	0.4498	0.29	0.7206	0.05
Mof_H 	H 	0.4525	0.1681	0.8408	0.08
Mof_H 	H 	0.972	0.7957	0.4985	0.059
Mof_H 	H 	0.905	0.5216	0.4416	0.436
Mof_H 	H 	0.4473	0.0617	0.037	-0.041
Mof_H 	H 	0.5142	0.2152	0.9638	0.067
Mof_H 	H 	0.0344	0.521	0.2996	-0.439
Mof_H 	H 	0.5138	0.214	0.8224	0.015
Mof_H 	H 	0.9857	0.1095	0.3968	0.01
Mof_H 	H 	0.4862	0.786	0.1776	0.013
Mof_H 	H 	0.4774	0.4696	0.4008	0.011
Mof_H 	H 	0.9922	0.1218	0.4774	0.031
Mof_H 	H 	0.5615	0.5268	0.0919	-1.374
Mof_H 	H 	0.6032	0.6175	0.5063	-0.01
Mof_H 	H 	0.9653	0.3466	0.5615	-1.663
Mof_H 	H 	0.099	0.6543	0.9629	0.054
Mof_H 	H 	0.9874	0.4439	0.8405	0.051
Mof_H 	H 	0.7195	0.1653	0.8468	0.024
Mof_H 	H 	0.2794	0.8296	0.0106	0.044
Mof_H 	H 	0.9879	0.8347	0.4458	0.035
Mof_C 	C 	0.1235	0.623	0.5005	0.074
Mof_C 	C 	0.5035	0.3998	0.6247	0.04
Mof_C 	C 	0.523	0.6538	0.1314	0.339
Mof_C 	C 	0.8772	0.3773	0.1237	0.09
Mof_C 	C 	0.6335	0.627	0.4621	-0.023
Mof_C 	C 	0.5281	0.5686	0.1233	3.67
Mof_C 	C 	0.3036	0.8412	0.0344	-0.072
Mof_C 	C 	0.085	0.6234	0.3686	4.275
Mof_C 	C 	0.72	0.6197	0.9005	-0.585
Mof_C 	C 	0.86	0.363	0.687	-3.092
Mof_C 	C 	0.912	0.9053	0.6307	0.051
Mof_C 	C 	0.8802	0.5751	0.9635	-0.034
Mof_C 	C 	0.2801	0.3806	0.5187	0.014
Mof_C 	C 	0.5021	0.8761	0.1004	0.072
Mof_C 	C 	0.0405	0.3486	0.5281	4.531
Mof_C 	C 	0.8772	0.3404	0.9668	-0.155
Mof_C 	C 	0.5001	0.9991	0.8772	0.093
Mof_C 	C 	0.1228	0.6227	0.8763	0.088
Mof_C 	C 	0.4641	0.3419	0.9636	-1.593
Mof_C 	C 	0.4994	0.6022	0.0236	1.364
Mof_C 	C 	0.0078	0.0958	0.5358	-0.033
Mof_C 	C 	0.1317	0.2632	0.5225	0.114
Mof_C 	C 	0.5027	0.1262	0.9773	0.036
Mof_C 	C 	0.9595	0.6514	0.4719	3.49
Mof_C 	C 	0.3055	0.3419	0.1222	-1.756
Mof_C 	C 	0.4658	0.1588	0.9634	-0.053
Mof_C 	C 	0.5359	0.6581	0.0364	-1.451
Mof_C 	C 	0.993	0.6244	0.9112	0.044
Mof_C 	C 	0.4999	0.0009	0.1228	0.083
Mof_C 	C 	0.0865	0.4546	0.5389	-1.735
Mof_C 	C 	0.4813	0.3819	0.7192	0.02
Mof_C 	C 	0.1031	0.606	0.3743	-4.908
Mof_C 	C 	0.6244	0.128	0.8952	0.015
Mof_C 	C 	0.5015	0.1861	0.949	-0.069
Mof_C 	C 	0.6314	0.0958	0.993	0.04
Mof_C 	C 	0.9765	0.8761	0.626	0.093
Mof_C 	C 	0.3684	0.9042	0.088	0.011
Mof_C 	C 	0.1228	0.6596	0.0332	-0.186
Mof_C 	C 	0.8965	0.8738	0.6235	-0.015
Mof_C 	C 	0.8685	0.6542	0.8683	0.11
Mof_C 	C 	0.3693	0.4573	0.536	0.038
Mof_C 	C 	0.9112	0.9042	0.4644	0.005
Mof_C 	C 	0.6319	0.6254	0.9135	-1.27
Mof_C 	C 	0.007	0.3756	0.0888	-0.054
Mof_C 	C 	0.5225	0.6542	0.2143	0.113
Mof_C 	C 	0.5187	0.6181	0.2808	0.022
Mof_C 	C 	0.6945	0.6581	0.8778	-1.298
Mof_C 	C 	0.374	0.3975	0.5021	0.08
Mof_C 	C 	0.497	0.547	0.14	-2.723
Mof_C 	C 	0.6258	0.6022	0.8972	1.245
Mof_C 	C 	0.8661	0.5528	0.9523	-0.087
Mof_C 	C 	0.4775	0.3458	0.7857	0.112
Mof_C 	C 	0.3154	0.4505	0.4985	-0.046
Mof_C 	C 	0.5358	0.5436	0.3684	0.015
Mof_C 	C 	0.6247	0.1282	0.9755	0.074
Mof_C 	C 	0.0513	0.185	0.3149	0.106
Mof_C 	C 	0.0494	0.5489	0.3155	1.585
Mof_C 	C 	0.7852	0.6538	0.8692	0.31
Mof_C 	C 	0.6845	0.6351	0.8644	1.327
Mof_C 	C 	0.3765	0.48	0.4973	-0.007
Mof_C 	C 	0.1198	0.4249	0.0365	-0.02
Mof_C 	C 	0.2808	0.7995	0.1011	0.011
Mof_C 	C 	0.8989	0.6181	0.9006	0.045
Mof_C 	C 	0.4995	0.6351	0.0494	1.529
Mof_C 	C 	0.1322	0.2636	0.2144	0.114
Mof_C 	C 	0.5368	0.844	0.1228	-0.169
Mof_C 	C 	0.8995	0.7988	0.7199	0.028
Mof_C 	C 	0.4965	0.6002	0.3753	0.038
Mof_C 	C 	0.5029	0.5226	0.1031	-4.686
Mof_C 	C 	0.3051	0.8437	0.1198	-0.022
Mof_C 	C 	0.1222	0.4277	0.5359	-1.705
Mof_C 	C 	0.4719	0.4314	0.8767	4.238
Mof_C 	C 	0.0344	0.338	0.1244	-0.081
Mof_C 	C 	0.2144	0.3466	0.522	0.112
Mof_C 	C 	0.6851	0.6338	0.4999	0.065
Mof_C 	C 	0.051	0.5495	0.1351	-0.023
Mof_C 	C 	0.5384	0.5464	0.085	4.085
Mof_C 	C 	0.0365	0.1563	0.5386	-0.025
Mof_C 	C 	0.9933	0.4573	0.912	0.075
Mof_C 	C 	0.8756	0.8412	0.4624	-0.072
Mof_C 	C 	0.5386	0.5751	0.3051	-0.026
Mof_C 	C 	0.0227	0.52	0.1035	-0.045
Mof_C 	C 	0.0232	0.128	0.4964	-0.01
Mof_C 	C 	0.0245	0.3998	0.1037	0.019
Mof_C 	C 	0.6949	0.1563	0.8802	-0.032
Mof_C 	C 	0.8996	0.3975	0.9765	0.109
Mof_C 	C 	0.8686	0.3466	0.8678	0.108
Mof_C 	C 	0.7199	0.6194	0.4813	0.015
Mof_C 	C 	0.8993	0.3806	0.8995	0.042
Mof_C 	C 	0.4989	0.6343	0.3158	-0.024
Mof_C 	C 	0.4971	0.4774	0.8969	-5.398
Mof_C 	C 	0.008	0.3766	0.5384	4.983
Mof_C 	C 	0.9636	0.4277	0.6945	-1.574
Mof_C 	C 	0.9135	0.5454	0.4611	-1.363
Mof_C 	C 	0.1011	0.3819	0.0994	-0.003
Mof_C 	C 	0.3665	0.373	0.5379	-0.029
Mof_C 	C 	0.1337	0.6338	0.0513	0.114
Mof_C 	C 	0.8686	0.3456	0.7852	0.365
Mof_C 	C 	0.14	0.637	0.313	-2.853
Mof_C 	C 	0.3756	0.872	0.1048	0.005
Mof_C 	C 	0.1003	0.6205	0.28	-0.722
Mof_C 	C 	0.4985	0.8139	0.051	-0.028
Mof_C 	C 	0.8778	0.8412	0.693	-0.04
Mof_C 	C 	0.3158	0.8147	0.0499	-0.005
Mof_C 	C 	0.6964	0.1588	0.9656	-0.083
Mof_C 	C 	0.5376	0.662	0.3036	-0.078
Mof_C 	C 	0.5011	0.3657	0.6842	-0.022
Mof_C 	C 	0.2148	0.3462	0.1308	0.398
Mof_C 	C 	0.1339	0.4472	0.0477	-0.037
Mof_C 	C 	0.1035	0.1262	0.3765	-0.003
Mof_C 	C 	0.8692	0.6544	0.477	0.324
Mof_C 	C 	0.5356	0.6244	0.3686	-0.003
Mof_C 	C 	0.9773	0.48	0.8965	0.027
Mof_C 	C 	0.5389	0.6254	0.0065	-1.481
Mof_C 	C 	0.0364	0.5723	0.3055	-1.505
Mof_C 	C 	0.3149	0.3662	0.5001	0.068
Mof_C 	C 	0.1037	0.1282	0.4965	0.045
Mof_C 	C 	0.4973	0.8738	0.0227	-0.053
Mof_C 	C 	0.1354	0.1853	0.4989	-0.014
Mof_C 	C 	0.0499	0.3657	0.1354	0.005
Mof_C 	C 	0.4611	0.3746	0.9935	-1.573
Mof_C 	C 	0.95	0.637	0.503	-2.619
Mof_C 	C 	0.0332	0.156	0.3072	-0.192
Mof_C 	C 	0.1028	0.477	0.4994	1.659
Mof_C 	C 	0.4644	0.3756	0.6314	-0.007
Mof_C 	C 	0.5187	0.7988	0.1007	0.003
Mof_C 	C 	0.4999	0.185	0.8663	0.061
Mof_C 	C 	0.3081	0.4314	0.0405	4.702
Mof_C 	C 	0.4642	0.4564	0.6316	0.009
Mof_C 	C 	0.9635	0.8437	0.4614	-0.028
Mof_C 	C 	0.9668	0.844	0.6928	-0.153
Mof_C 	C 	0.8963	0.8718	0.5035	0.033
Mof_C 	C 	0.0994	0.2005	0.5187	0.009
Mof_C 	C 	0.8683	0.7368	0.4775	0.112
Mof_C 	C 	0.0477	0.1816	0.5051	-0.043
Mof_C 	C 	0.9506	0.4511	0.6845	1.625
Mof_C 	C 	0.1244	0.1588	0.5376	-0.085
Mof_C 	C 	0.8644	0.5489	0.5005	1.418
Mof_C 	C 	0.6846	0.5495	0.5015	-0.048
Mof_C 	C 	0.4979	0.1239	0.8996	0.081
Mof_C 	C 	0.6842	0.1853	0.9501	-0.046
Mof_C 	C 	0.522	0.7364	0.1314	0.118
Mof_C 	C 	0.0197	0.394	0.5029	-5.797
Mof_C 	C 	0.912	0.5436	0.9922	0.068
Mof_C 	C 	0.8778	0.5723	0.4641	-1.379
Mof_C 	C 	0.9755	0.6002	0.8963	0.059
Mof_C 	C 	0.9656	0.662	0.8756	-0.076
Mof_C 	C 	0.536	0.9053	0.0067	0.011
Mof_C 	C 	0.478	0.2636	0.8686	0.11
Mof_C 	C 	0.1314	0.6544	0.2148	0.348
Mof_C 	C 	0.6316	0.0958	0.912	0.012
Mof_C 	C 	0.4949	0.4472	0.6867	-0.06
Mof_C 	C 	0.088	0.4564	0.0078	-0.043
Mof_C 	C 	0.0366	0.5708	0.1222	-0.041
Mof_C 	C 	0.05	0.363	0.497	-3.333
Mof_C 	C 	0.6257	0.5226	0.9803	-4.105
Mof_C 	C 	0.5001	0.815	0.1337	0.072
Mof_C 	C 	0.9803	0.606	0.4971	-4.428
Mof_C 	C 	0.313	0.453	0.05	-3.454
Mof_C 	C 	0.949	0.4505	0.8649	-0.073
Mof_C 	C 	0.8649	0.8139	0.6846	-0.055
Mof_C 	C 	0.1351	0.1861	0.3154	-0.038
Mof_C 	C 	0.915	0.3766	0.6314	4.614
Mof_C 	C 	0.8997	0.3795	0.72	-0.768
Mof_C 	C 	0.5202	0.6197	0.1003	-0.688
Mof_C 	C 	0.6867	0.1816	0.8661	-0.064
Mof_C 	C 	0.0065	0.0956	0.3665	-0.07
Mof_C 	C 	0.4813	0.2012	0.8993	0.027
Mof_C 	C 	0.9935	0.9044	0.6335	0.016
Mof_C 	C 	0.9006	0.7995	0.4813	0.032
Mof_C 	C 	0.8678	0.7364	0.7856	0.114
Mof_C 	C 	0.3681	0.3746	0.0865	-1.796
Mof_C 	C 	0.4616	0.4536	0.915	4.694
Mof_C 	C 	0.9005	0.6205	0.4798	-0.636
Mof_C 	C 	0.626	0.6025	0.4979	0.074
Mof_C 	C 	0.8646	0.8147	0.5011	-0.032
Mof_C 	C 	0.5036	0.4804	0.6244	0.012
Mof_C 	C 	0.0067	0.5427	0.088	0.008
Mof_C 	C 	0.6307	0.5427	0.464	0.043
Mof_C 	C 	0.693	0.5708	0.4658	-0.044
Mof_C 	C 	0.4621	0.0956	0.9109	-0.025
Mof_C 	C 	0.8972	0.523	0.5006	1.328
Mof_C 	C 	0.0065	0.5454	0.3681	-1.537
Mof_C 	C 	0.1222	0.1588	0.307	-0.051
Mof_C 	C 	0.4624	0.338	0.6964	-0.08
Mof_C 	C 	0.6928	0.6596	0.4632	-0.17
Mof_C 	C 	0.0236	0.523	0.3742	1.426
Mof_C 	C 	0.4632	0.156	0.8772	-0.176
Mof_C 	C 	0.6919	0.5686	0.9595	3.238
Mof_C 	C 	0.3686	0.4536	0.008	5.162
Mof_C 	C 	0.5005	0.624	0.8765	0.068
Mof_C 	C 	0.8767	0.3486	0.6919	4.163
Mof_C 	C 	0.28	0.3803	0.0995	-0.892
Mof_C 	C 	0.5342	0.8412	0.0366	-0.037
Mof_C 	C 	0.0995	0.3795	0.5202	-0.856
Mof_C 	C 	0.9634	0.4292	0.8778	-0.05
Mof_C 	C 	0.9935	0.4546	0.6319	-1.556
Mof_C 	C 	0.1007	0.6194	0.1005	-0.011
Mof_C 	C 	0.464	0.0947	0.9933	0.075
Mof_C 	C 	0.0891	0.627	0.0065	-0.073
Mof_C 	C 	0.3743	0.4774	0.0197	-6.018
Mof_C 	C 	0.5051	0.5528	0.3133	-0.063
Mof_C 	C 	0.1315	0.3458	0.1317	0.115
Mof_C 	C 	0.9922	0.9042	0.4642	0.055
Mof_C 	C 	0.088	0.0947	0.3693	0.029
Mof_C 	C 	0.503	0.453	0.86	-3.148
Mof_C 	C 	0.4964	0.5196	0.3756	0.008
Mof_C 	C 	0.1233	0.6514	0.3081	3.847
Mof_C 	C 	0.8765	0.377	0.4995	0.07
Mof_C 	C 	0.1308	0.3456	0.523	0.389
Mof_C 	C 	0.1004	0.6025	0.0235	0.045
Mof_C 	C 	0.8663	0.3662	0.9487	0.014
Mof_C 	C 	0.3753	0.8718	0.0245	0.007
Mof_C 	C 	0.3742	0.3978	0.1028	1.713
Mof_C 	C 	0.6314	0.5464	0.992	3.653
Mof_C 	C 	0.5379	0.9044	0.0891	-0.028
Mof_C 	C 	0.9487	0.815	0.6851	0.027
Mof_C 	C 	0.4995	0.376	0.1235	0.077
Mof_C 	C 	0.6235	0.52	0.5027	-0.012
Mof_C 	C 	0.477	0.3462	0.8686	0.367
Mof_C 	C 	0.9768	0.872	0.5036	0.028
Mof_C 	C 	0.8763	0.9991	0.501	0.094
Mof_C 	C 	0.7856	0.6534	0.478	0.116
Mof_C 	C 	0.3155	0.3649	0.1356	1.856
Mof_C 	C 	0.8969	0.394	0.6257	-5.303
Mof_C 	C 	0.1356	0.4511	0.4995	1.797
Mof_C 	C 	0.3072	0.3404	0.5368	-0.175
Mof_C 	C 	0.5005	0.3649	0.9506	1.641
Mof_C 	C 	0.2143	0.7368	0.1315	0.115
Mof_C 	C 	0.1237	0.0009	0.499	0.083
Mof_C 	C 	0.687	0.547	0.95	-2.441
Mof_C 	C 	0.4798	0.3803	0.8997	-0.782
Mof_C 	C 	0.7857	0.2632	0.8685	0.111
Mof_C 	C 	0.5006	0.3978	0.9764	1.585
Mof_C 	C 	0.0888	0.0958	0.5356	-0.016
Mof_C 	C 	0.8952	0.5196	0.9768	0.038
Mof_C 	C 	0.992	0.6234	0.4616	3.917
Mof_C 	C 	0.3133	0.8184	0.1339	-0.059
Mof_C 	C 	0.499	0.6227	0.5001	0.089
Mof_C 	C 	0.9501	0.6343	0.8646	-0.051
Mof_C 	C 	0.1005	0.2012	0.2801	-0
Mof_C 	C 	0.3686	0.9042	0.007	-0.045
Mof_C 	C 	0.4614	0.4249	0.6949	-0.027
Mof_C 	C 	0.501	0.3773	0.4999	0.09
Mof_C 	C 	0.9764	0.477	0.6258	1.557
Mof_C 	C 	0.307	0.4292	0.5342	-0.047
Mof_C 	C 	0.1048	0.4804	0.0232	-0.017
Mof_C 	C 	0.9523	0.8184	0.4949	-0.079
Mof_C 	C 	0.7192	0.2005	0.8989	0.032
Mof_C 	C 	0.9109	0.373	0.9935	0.024
Mof_C 	C 	0.1314	0.6534	0.1322	0.12
Mof_C 	C 	0.0235	0.1239	0.374	0.058
Mof_S 	S 	0.8197	0.9999	0.479	-0.016
Mof_S 	S 	0.5233	0.7027	0.8206	-0.027
Mof_S 	S 	0.4786	0.6611	0.5193	-0.04
Mof_S 	S 	0.1802	0.7013	0.8197	-0.021
Mof_S 	S 	0.1825	0.0021	0.4786	-0.056
Mof_S 	S 	0.1803	0.0001	0.521	-0.047
Mof_S 	S 	0.4789	0.9999	0.8198	-0.015
Mof_S 	S 	0.479	0.2987	0.5211	-0.041
Mof_S 	S 	0.4807	0.0021	0.1804	-0.057
Mof_S 	S 	0.5211	0.0001	0.1802	-0.049
Mof_S 	S 	0.8175	0.9979	0.5214	-0.022
Mof_S 	S 	0.8206	0.3439	0.4767	-0.038
Mof_S 	S 	0.5193	0.9979	0.8196	-0.021
Mof_S 	S 	0.1804	0.6611	0.8175	-0.04
Mof_S 	S 	0.5185	0.3371	0.1814	-0.032
Mof_S 	S 	0.521	0.7013	0.4789	-0.023
Mof_S 	S 	0.4767	0.2973	0.1794	-0.062
Mof_S 	S 	0.1794	0.6561	0.5233	-0.05
Mof_S 	S 	0.1814	0.6999	0.4815	-0.025
Mof_S 	S 	0.8186	0.3001	0.5185	-0.042
Mof_S 	S 	0.4815	0.6629	0.8186	-0.036
Mof_S 	S 	0.5214	0.3389	0.4807	-0.038
Mof_S 	S 	0.8196	0.3389	0.1825	-0.037
Mof_S 	S 	0.8198	0.2987	0.1803	-0.043
Mof_N 	N 	0.95933	0.5559	0.95817	-0.231
Mof_N 	N 	0.0997	0.622	0.1889	-0.186
Mof_N 	N 	0.50024	0.0009	0.07826	-0.272
Mof_N 	N 	0.40284	0.4445	0.51406	-0.234
Mof_N 	N 	0.9206	0.4208	0.4998	-0.25
Mof_N 	N 	0.49976	0.9991	0.92174	-0.239
Mof_N 	N 	0.04067	0.4441	0.04183	-0.218
Mof_N 	N 	0.189	0.7103	0.1891	-0.209
Mof_N 	N 	0.811	0.2897	0.8109	-0.212
Mof_N 	N 	0.8997	0.7108	0.8111	-0.151
Mof_N 	N 	0.8109	0.6219	0.8994	-0.196
Mof_N 	N 	0.92084	0.9991	0.50066	-0.24
Mof_N 	N 	0.07916	0.0009	0.49934	-0.271
Mof_N 	N 	0.1006	0.2897	0.5213	-0.221
Mof_N 	N 	0.4781	0.2892	0.8111	-0.156
Mof_N 	N 	0.8111	0.7108	0.4781	-0.154
Mof_N 	N 	0.49934	0.5785	0.49976	-0.258
Mof_N 	N 	0.51406	0.9169	0.04144	-0.219
Mof_N 	N 	0.1003	0.2892	0.1889	-0.161
Mof_N 	N 	0.4998	0.4204	0.0794	-0.257
Mof_N 	N 	0.1891	0.378	0.5223	-0.19
Mof_N 	N 	0.95856	0.4445	0.95834	-0.237
Mof_N 	N 	0.5213	0.6219	0.189	-0.206
Mof_N 	N 	0.04183	0.0825	0.51407	-0.228
Mof_N 	N 	0.59657	0.0825	0.95933	-0.234
Mof_N 	N 	0.1889	0.2886	0.1891	-0.193
Mof_N 	N 	0.48594	0.0831	0.95856	-0.241
Mof_N 	N 	0.51407	0.5559	0.40343	-0.228
Mof_N 	N 	0.5219	0.7108	0.1889	-0.156
Mof_N 	N 	0.0412	0.5549	0.4035	-0.166
Mof_N 	N 	0.5002	0.5796	0.9206	-0.248
Mof_N 	N 	0.8109	0.622	0.4777	-0.179
Mof_N 	N 	0.04166	0.0831	0.40284	-0.234
Mof_N 	N 	0.9588	0.4451	0.5965	-0.178
Mof_N 	N 	0.0794	0.5792	0.5002	-0.256
Mof_N 	N 	0.8111	0.7114	0.8109	-0.175
Mof_N 	N 	0.07826	0.5785	0.92084	-0.254
Mof_N 	N 	0.95834	0.9169	0.59716	-0.226
Mof_N 	N 	0.9003	0.378	0.8111	-0.183
Mof_N 	N 	0.1891	0.3781	0.1006	-0.224
Mof_N 	N 	0.95817	0.9175	0.48593	-0.221
Mof_N 	N 	0.4863	0.4447	0.9588	-0.18
Mof_N 	N 	0.4787	0.3781	0.811	-0.214
Mof_N 	N 	0.9584	0.5549	0.4863	-0.179
Mof_N 	N 	0.48593	0.4441	0.59657	-0.228
Mof_N 	N 	0.5965	0.5553	0.9584	-0.181
Mof_N 	N 	0.4035	0.4447	0.0416	-0.164
Mof_N 	N 	0.1889	0.2892	0.5219	-0.158
Mof_N 	N 	0.5137	0.5553	0.0412	-0.165
Mof_N 	N 	0.92174	0.4215	0.07916	-0.256
Mof_N 	N 	0.59716	0.5555	0.48594	-0.233
Mof_N 	N 	0.04144	0.5555	0.04166	-0.224
Mof_N 	N 	0.5223	0.7114	0.0997	-0.183
Mof_N 	N 	0.8994	0.7103	0.4787	-0.2
Mof_N 	N 	0.40343	0.9175	0.04067	-0.214
Mof_N 	N 	0.1889	0.7108	0.1003	-0.159
Mof_N 	N 	0.50066	0.4215	0.50024	-0.259
Mof_N 	N 	0.0416	0.4451	0.5137	-0.165
Mof_N 	N 	0.8111	0.2892	0.8997	-0.153
Mof_N 	N 	0.4777	0.2886	0.9003	-0.185
_end
