data_functionalizedCrystal
_audit_creation_method	'EQeq! by Chris Wilmer'
_symmetry_space_group_name_H-M	'P1'
_symmetry_Int_Tables_number	1
_symmetry_cell_setting	triclinic
loop_
_symmetry_equiv_pos_as_xyz
  x,y,z
_cell_length_a	7.5755
_cell_length_b	15.6186
_cell_length_c	16.6991
_cell_angle_alpha	90
_cell_angle_beta	94.375
_cell_angle_gamma	90
loop_
_atom_site_label
_atom_site_type_symbol
_atom_site_fract_x
_atom_site_fract_y
_atom_site_fract_z
_atom_site_charge
Mof_Eu	Eu	0.62558	0.89792	0.54017	2.301
Mof_Eu	Eu	0.86696	0.05043	0.40551	2.271
Mof_Eu	Eu	0.37442	0.39792	0.95983	2.301
Mof_Eu	Eu	0.13304	0.55043	0.09449	2.287
Mof_Eu	Eu	0.37442	0.10208	0.45983	2.302
Mof_Eu	Eu	0.13304	0.94957	0.59449	2.272
Mof_Eu	Eu	0.62558	0.60208	0.04017	2.301
Mof_Eu	Eu	0.86696	0.44957	0.90551	2.287
Mof_H 	H 	0.239	0.6952	0.3268	0.045
Mof_H 	H 	0.808	0.7539	0.4074	0.004
Mof_H 	H 	0.1753	0.8267	0.2087	0.045
Mof_H 	H 	0.6351	0.9303	0.2559	0.002
Mof_H 	H 	0.761	0.1952	0.1732	0.044
Mof_H 	H 	0.192	0.2539	0.0926	0.004
Mof_H 	H 	0.8247	0.3267	0.2913	0.045
Mof_H 	H 	0.3649	0.4303	0.2441	0.002
Mof_H 	H 	0.761	0.3048	0.6732	0.045
Mof_H 	H 	0.192	0.2461	0.5926	0.004
Mof_H 	H 	0.8247	0.1733	0.7913	0.045
Mof_H 	H 	0.3649	0.0697	0.7441	0.002
Mof_H 	H 	0.239	0.8048	0.8268	0.044
Mof_H 	H 	0.808	0.7461	0.9074	0.004
Mof_H 	H 	0.1753	0.6733	0.7087	0.045
Mof_H 	H 	0.6351	0.5697	0.7559	0.002
Mof_C 	C 	0.2582	0.8082	0.4499	0.401
Mof_C 	C 	0.3996	0.7654	0.4052	-0.054
Mof_C 	C 	0.3557	0.7107	0.3411	0.009
Mof_C 	C 	0.493	0.6807	0.2999	-0.064
Mof_C 	C 	0.4577	0.6326	0.2216	0.509
Mof_C 	C 	0.6907	0.7457	0.3882	0.123
Mof_C 	C 	0.2013	0.952	0.3202	0.394
Mof_C 	C 	0.0441	0.9125	0.2736	-0.054
Mof_C 	C 	0.0641	0.8474	0.2188	-0.001
Mof_C 	C 	0.9113	0.8145	0.1797	-0.05
Mof_C 	C 	0.9145	0.7384	0.123	0.484
Mof_C 	C 	0.7456	0.908	0.2468	0.122
Mof_C 	C 	0.7418	0.3082	0.0501	0.401
Mof_C 	C 	0.6004	0.2654	0.0948	-0.054
Mof_C 	C 	0.6443	0.2107	0.1589	0.009
Mof_C 	C 	0.507	0.1807	0.2001	-0.064
Mof_C 	C 	0.5423	0.1326	0.2784	0.509
Mof_C 	C 	0.3093	0.2457	0.1118	0.123
Mof_C 	C 	0.7987	0.452	0.1798	0.398
Mof_C 	C 	0.9559	0.4125	0.2264	-0.053
Mof_C 	C 	0.9359	0.3474	0.2812	-0
Mof_C 	C 	0.0887	0.3145	0.3203	-0.051
Mof_C 	C 	0.0855	0.2384	0.377	0.487
Mof_C 	C 	0.2544	0.408	0.2532	0.122
Mof_C 	C 	0.7418	0.1918	0.5501	0.401
Mof_C 	C 	0.6004	0.2346	0.5948	-0.054
Mof_C 	C 	0.6443	0.2893	0.6589	0.009
Mof_C 	C 	0.507	0.3193	0.7001	-0.064
Mof_C 	C 	0.5423	0.3674	0.7784	0.509
Mof_C 	C 	0.3093	0.2543	0.6118	0.123
Mof_C 	C 	0.7987	0.048	0.6798	0.394
Mof_C 	C 	0.9559	0.0875	0.7264	-0.054
Mof_C 	C 	0.9359	0.1526	0.7812	-0.001
Mof_C 	C 	0.0887	0.1855	0.8203	-0.05
Mof_C 	C 	0.0855	0.2616	0.877	0.484
Mof_C 	C 	0.2544	0.092	0.7532	0.122
Mof_C 	C 	0.2582	0.6918	0.9499	0.401
Mof_C 	C 	0.3996	0.7346	0.9052	-0.054
Mof_C 	C 	0.3557	0.7893	0.8411	0.009
Mof_C 	C 	0.493	0.8193	0.7999	-0.064
Mof_C 	C 	0.4577	0.8674	0.7216	0.509
Mof_C 	C 	0.6907	0.7543	0.8882	0.123
Mof_C 	C 	0.2013	0.548	0.8202	0.398
Mof_C 	C 	0.0441	0.5875	0.7736	-0.053
Mof_C 	C 	0.0641	0.6526	0.7188	-0
Mof_C 	C 	0.9113	0.6855	0.6797	-0.051
Mof_C 	C 	0.9145	0.7616	0.623	0.487
Mof_C 	C 	0.7456	0.592	0.7468	0.122
Mof_N 	N 	0.5676	0.785	0.4285	-0.234
Mof_N 	N 	0.6633	0.6963	0.3236	-0.106
Mof_N 	N 	0.885	0.9405	0.2903	-0.231
Mof_N 	N 	0.7501	0.8465	0.1914	-0.107
Mof_N 	N 	0.4324	0.285	0.0715	-0.234
Mof_N 	N 	0.3367	0.1963	0.1764	-0.106
Mof_N 	N 	0.115	0.4405	0.2097	-0.234
Mof_N 	N 	0.2499	0.3465	0.3086	-0.107
Mof_N 	N 	0.4324	0.215	0.5715	-0.234
Mof_N 	N 	0.3367	0.3037	0.6764	-0.106
Mof_N 	N 	0.115	0.0595	0.7097	-0.231
Mof_N 	N 	0.2499	0.1535	0.8086	-0.107
Mof_N 	N 	0.5676	0.715	0.9285	-0.234
Mof_N 	N 	0.6633	0.8037	0.8236	-0.106
Mof_N 	N 	0.885	0.5595	0.7903	-0.234
Mof_N 	N 	0.7501	0.6535	0.6914	-0.107
Mof_O 	O 	0.3134	0.8605	0.5058	-0.689
Mof_O 	O 	0.1025	0.7929	0.4286	-0.316
Mof_O 	O 	0.3116	0.5958	0.211	-0.551
Mof_O 	O 	0.5714	0.6367	0.1722	-0.576
Mof_O 	O 	0.1654	0.0085	0.3732	-0.674
Mof_O 	O 	0.3508	0.9288	0.3059	-0.311
Mof_O 	O 	0.0439	0.6895	0.1331	-0.561
Mof_O 	O 	0.7847	0.7285	0.0728	-0.548
Mof_O 	O 	0.9075	0.9236	0.4865	-0.79
Mof_O 	O 	0.5805	0.9906	0.4264	-0.797
Mof_O 	O 	0.6866	0.3605	0.9942	-0.689
Mof_O 	O 	0.8975	0.2929	0.0714	-0.316
Mof_O 	O 	0.6884	0.0958	0.289	-0.551
Mof_O 	O 	0.4286	0.1367	0.3278	-0.575
Mof_O 	O 	0.8346	0.5085	0.1268	-0.68
Mof_O 	O 	0.6492	0.4288	0.1941	-0.312
Mof_O 	O 	0.9561	0.1895	0.3669	-0.562
Mof_O 	O 	0.2153	0.2285	0.4272	-0.548
Mof_O 	O 	0.0925	0.4236	0.0135	-0.794
Mof_O 	O 	0.4195	0.4906	0.0736	-0.799
Mof_O 	O 	0.6866	0.1395	0.4942	-0.689
Mof_O 	O 	0.8975	0.2071	0.5714	-0.316
Mof_O 	O 	0.6884	0.4042	0.789	-0.551
Mof_O 	O 	0.4286	0.3633	0.8278	-0.576
Mof_O 	O 	0.8346	0.9915	0.6268	-0.674
Mof_O 	O 	0.6492	0.0712	0.6941	-0.311
Mof_O 	O 	0.9561	0.3105	0.8669	-0.561
Mof_O 	O 	0.2153	0.2715	0.9272	-0.548
Mof_O 	O 	0.0925	0.0764	0.5135	-0.79
Mof_O 	O 	0.4195	0.0094	0.5736	-0.797
Mof_O 	O 	0.3134	0.6395	0.0058	-0.689
Mof_O 	O 	0.1025	0.7071	0.9286	-0.316
Mof_O 	O 	0.3116	0.9042	0.711	-0.551
Mof_O 	O 	0.5714	0.8633	0.6722	-0.575
Mof_O 	O 	0.1654	0.4915	0.8732	-0.68
Mof_O 	O 	0.3508	0.5712	0.8059	-0.312
Mof_O 	O 	0.0439	0.8105	0.6331	-0.562
Mof_O 	O 	0.7847	0.7715	0.5728	-0.548
Mof_O 	O 	0.9075	0.5764	0.9865	-0.794
Mof_O 	O 	0.5805	0.5094	0.9264	-0.799
_end
