data_functionalizedCrystal
_audit_creation_method	'EQeq! by Chris Wilmer'
_symmetry_space_group_name_H-M	'P1'
_symmetry_Int_Tables_number	1
_symmetry_cell_setting	triclinic
loop_
_symmetry_equiv_pos_as_xyz
  x,y,z
_cell_length_a	15.701
_cell_length_b	14.964
_cell_length_c	17.339
_cell_angle_alpha	90
_cell_angle_beta	115.096
_cell_angle_gamma	90
loop_
_atom_site_label
_atom_site_type_symbol
_atom_site_fract_x
_atom_site_fract_y
_atom_site_fract_z
_atom_site_charge
Mof_Zn	Zn	0.0444	0.94929	0.34516	1.218
Mof_O 	O 	0.0433	0.942	0.6814	-0.456
Mof_O 	O 	0.1345	0.9713	0.8174	-0.466
Mof_O 	O 	0.4297	0.6294	0.8142	-0.464
Mof_O 	O 	0.3893	0.6573	0.6771	-0.455
Mof_N 	N 	0.1008	0.9519	0.471	-0.254
Mof_N 	N 	0.1679	0.9127	0.6039	-0.145
Mof_C 	C 	0.1254	0.8847	0.523	0.121
Mof_H 	H 	0.1149	0.8252	0.5064	-0.011
Mof_C 	C 	0.1301	0.0282	0.5213	0.003
Mof_H 	H 	0.1238	0.0867	0.5015	0.03
Mof_C 	C 	0.1686	0.0033	0.6021	0.012
Mof_H 	H 	0.192	0.041	0.6492	0.042
Mof_C 	C 	0.2085	0.8571	0.6765	0.158
Mof_C 	C 	0.2708	0.7935	0.6761	-0.128
Mof_H 	H 	0.2824	0.7859	0.6282	0.096
Mof_C 	C 	0.316	0.7411	0.7466	-0.011
Mof_C 	C 	0.3019	0.7535	0.8191	-0.083
Mof_H 	H 	0.3337	0.7189	0.8675	0.074
Mof_C 	C 	0.2388	0.8192	0.8178	0.059
Mof_H 	H 	0.2302	0.8294	0.8669	0.026
Mof_C 	C 	0.1888	0.8694	0.7468	-0.161
Mof_C 	C 	0.1164	0.933	0.7493	0.425
Mof_C 	C 	0.3846	0.6702	0.7458	0.369
Mof_Zn	Zn	0.5444	0.44929	0.34516	1.219
Mof_O 	O 	0.5433	0.442	0.6814	-0.456
Mof_O 	O 	0.6345	0.4713	0.8174	-0.467
Mof_O 	O 	0.9297	0.1294	0.8142	-0.463
Mof_O 	O 	0.8893	0.1573	0.6771	-0.455
Mof_N 	N 	0.6008	0.4519	0.471	-0.254
Mof_N 	N 	0.6679	0.4127	0.6039	-0.146
Mof_C 	C 	0.6254	0.3847	0.523	0.121
Mof_H 	H 	0.6149	0.3252	0.5064	-0.011
Mof_C 	C 	0.6301	0.5282	0.5213	0.003
Mof_H 	H 	0.6238	0.5867	0.5015	0.03
Mof_C 	C 	0.6686	0.5033	0.6021	0.013
Mof_H 	H 	0.692	0.541	0.6492	0.042
Mof_C 	C 	0.7085	0.3571	0.6765	0.158
Mof_C 	C 	0.7708	0.2935	0.6761	-0.128
Mof_H 	H 	0.7824	0.2859	0.6282	0.096
Mof_C 	C 	0.816	0.2411	0.7466	-0.011
Mof_C 	C 	0.8019	0.2535	0.8191	-0.084
Mof_H 	H 	0.8337	0.2189	0.8675	0.073
Mof_C 	C 	0.7388	0.3192	0.8178	0.059
Mof_H 	H 	0.7302	0.3294	0.8669	0.026
Mof_C 	C 	0.6888	0.3694	0.7468	-0.162
Mof_C 	C 	0.6164	0.433	0.7493	0.426
Mof_C 	C 	0.8846	0.1702	0.7458	0.369
Mof_Zn	Zn	0.9556	0.94929	0.15484	1.218
Mof_O 	O 	0.9567	0.942	0.8186	-0.454
Mof_O 	O 	0.8655	0.9713	0.6826	-0.466
Mof_O 	O 	0.5703	0.6294	0.6858	-0.463
Mof_O 	O 	0.6107	0.6573	0.8229	-0.455
Mof_N 	N 	0.8992	0.9519	0.029	-0.259
Mof_N 	N 	0.8321	0.9127	0.8961	-0.145
Mof_C 	C 	0.8746	0.8847	0.977	0.128
Mof_H 	H 	0.8851	0.8252	0.9936	-0.012
Mof_C 	C 	0.8699	0.0282	0.9787	0.005
Mof_H 	H 	0.8762	0.0867	0.9985	0.029
Mof_C 	C 	0.8314	0.0033	0.8979	0.009
Mof_H 	H 	0.808	0.041	0.8508	0.043
Mof_C 	C 	0.7915	0.8571	0.8235	0.158
Mof_C 	C 	0.7292	0.7935	0.8239	-0.128
Mof_H 	H 	0.7176	0.7859	0.8718	0.097
Mof_C 	C 	0.684	0.7411	0.7534	-0.01
Mof_C 	C 	0.6981	0.7535	0.6809	-0.083
Mof_H 	H 	0.6663	0.7189	0.6325	0.074
Mof_C 	C 	0.7612	0.8192	0.6822	0.059
Mof_H 	H 	0.7698	0.8294	0.6331	0.026
Mof_C 	C 	0.8112	0.8694	0.7532	-0.161
Mof_C 	C 	0.8836	0.933	0.7507	0.426
Mof_C 	C 	0.6154	0.6702	0.7542	0.369
Mof_Zn	Zn	0.4556	0.44929	0.15484	1.22
Mof_O 	O 	0.4567	0.442	0.8186	-0.456
Mof_O 	O 	0.3655	0.4713	0.6826	-0.467
Mof_O 	O 	0.0703	0.1294	0.6858	-0.464
Mof_O 	O 	0.1107	0.1573	0.8229	-0.457
Mof_N 	N 	0.3992	0.4519	0.029	-0.254
Mof_N 	N 	0.3321	0.4127	0.8961	-0.146
Mof_C 	C 	0.3746	0.3847	0.977	0.12
Mof_H 	H 	0.3851	0.3252	0.9936	-0.012
Mof_C 	C 	0.3699	0.5282	0.9787	0.002
Mof_H 	H 	0.3762	0.5867	0.9985	0.031
Mof_C 	C 	0.3314	0.5033	0.8979	0.014
Mof_H 	H 	0.308	0.541	0.8508	0.042
Mof_C 	C 	0.2915	0.3571	0.8235	0.158
Mof_C 	C 	0.2292	0.2935	0.8239	-0.128
Mof_H 	H 	0.2176	0.2859	0.8718	0.096
Mof_C 	C 	0.184	0.2411	0.7534	-0.011
Mof_C 	C 	0.1981	0.2535	0.6809	-0.083
Mof_H 	H 	0.1663	0.2189	0.6325	0.073
Mof_C 	C 	0.2612	0.3192	0.6822	0.059
Mof_H 	H 	0.2698	0.3294	0.6331	0.026
Mof_C 	C 	0.3112	0.3694	0.7532	-0.162
Mof_C 	C 	0.3836	0.433	0.7507	0.426
Mof_C 	C 	0.1154	0.1702	0.7542	0.369
Mof_Zn	Zn	0.9556	0.05071	0.65484	1.219
Mof_O 	O 	0.9567	0.058	0.3186	-0.455
Mof_O 	O 	0.8655	0.0287	0.1826	-0.465
Mof_O 	O 	0.5703	0.3706	0.1858	-0.463
Mof_O 	O 	0.6107	0.3427	0.3229	-0.455
Mof_N 	N 	0.8992	0.0481	0.529	-0.254
Mof_N 	N 	0.8321	0.0873	0.3961	-0.145
Mof_C 	C 	0.8746	0.1153	0.477	0.121
Mof_H 	H 	0.8851	0.1748	0.4936	-0.011
Mof_C 	C 	0.8699	0.9718	0.4787	0.003
Mof_H 	H 	0.8762	0.9133	0.4985	0.03
Mof_C 	C 	0.8314	0.9967	0.3979	0.012
Mof_H 	H 	0.808	0.959	0.3508	0.042
Mof_C 	C 	0.7915	0.1429	0.3235	0.158
Mof_C 	C 	0.7292	0.2065	0.3239	-0.128
Mof_H 	H 	0.7176	0.2141	0.3718	0.096
Mof_C 	C 	0.684	0.2589	0.2534	-0.011
Mof_C 	C 	0.6981	0.2465	0.1809	-0.083
Mof_H 	H 	0.6663	0.2811	0.1325	0.074
Mof_C 	C 	0.7612	0.1808	0.1822	0.059
Mof_H 	H 	0.7698	0.1706	0.1331	0.026
Mof_C 	C 	0.8112	0.1306	0.2532	-0.161
Mof_C 	C 	0.8836	0.067	0.2507	0.425
Mof_C 	C 	0.6154	0.3298	0.2542	0.369
Mof_Zn	Zn	0.4556	0.55071	0.65484	1.219
Mof_O 	O 	0.4567	0.558	0.3186	-0.456
Mof_O 	O 	0.3655	0.5287	0.1826	-0.467
Mof_O 	O 	0.0703	0.8706	0.1858	-0.463
Mof_O 	O 	0.1107	0.8427	0.3229	-0.455
Mof_N 	N 	0.3992	0.5481	0.529	-0.254
Mof_N 	N 	0.3321	0.5873	0.3961	-0.146
Mof_C 	C 	0.3746	0.6153	0.477	0.121
Mof_H 	H 	0.3851	0.6748	0.4936	-0.011
Mof_C 	C 	0.3699	0.4718	0.4787	0.003
Mof_H 	H 	0.3762	0.4133	0.4985	0.03
Mof_C 	C 	0.3314	0.4967	0.3979	0.013
Mof_H 	H 	0.308	0.459	0.3508	0.042
Mof_C 	C 	0.2915	0.6429	0.3235	0.158
Mof_C 	C 	0.2292	0.7065	0.3239	-0.128
Mof_H 	H 	0.2176	0.7141	0.3718	0.096
Mof_C 	C 	0.184	0.7589	0.2534	-0.011
Mof_C 	C 	0.1981	0.7465	0.1809	-0.084
Mof_H 	H 	0.1663	0.7811	0.1325	0.073
Mof_C 	C 	0.2612	0.6808	0.1822	0.059
Mof_H 	H 	0.2698	0.6706	0.1331	0.026
Mof_C 	C 	0.3112	0.6306	0.2532	-0.162
Mof_C 	C 	0.3836	0.567	0.2507	0.426
Mof_C 	C 	0.1154	0.8298	0.2542	0.369
Mof_Zn	Zn	0.0444	0.05071	0.84516	1.218
Mof_O 	O 	0.0433	0.058	0.1814	-0.454
Mof_O 	O 	0.1345	0.0287	0.3174	-0.466
Mof_O 	O 	0.4297	0.3706	0.3142	-0.463
Mof_O 	O 	0.3893	0.3427	0.1771	-0.455
Mof_N 	N 	0.1008	0.0481	0.971	-0.259
Mof_N 	N 	0.1679	0.0873	0.1039	-0.145
Mof_C 	C 	0.1254	0.1153	0.023	0.128
Mof_H 	H 	0.1149	0.1748	0.0064	-0.012
Mof_C 	C 	0.1301	0.9718	0.0213	0.005
Mof_H 	H 	0.1238	0.9133	0.0015	0.029
Mof_C 	C 	0.1686	0.9967	0.1021	0.009
Mof_H 	H 	0.192	0.959	0.1492	0.043
Mof_C 	C 	0.2085	0.1429	0.1765	0.158
Mof_C 	C 	0.2708	0.2065	0.1761	-0.128
Mof_H 	H 	0.2824	0.2141	0.1282	0.097
Mof_C 	C 	0.316	0.2589	0.2466	-0.01
Mof_C 	C 	0.3019	0.2465	0.3191	-0.083
Mof_H 	H 	0.3337	0.2811	0.3675	0.074
Mof_C 	C 	0.2388	0.1808	0.3178	0.059
Mof_H 	H 	0.2302	0.1706	0.3669	0.026
Mof_C 	C 	0.1888	0.1306	0.2468	-0.161
Mof_C 	C 	0.1164	0.067	0.2493	0.426
Mof_C 	C 	0.3846	0.3298	0.2458	0.369
Mof_Zn	Zn	0.5444	0.55071	0.84516	1.22
Mof_O 	O 	0.5433	0.558	0.1814	-0.456
Mof_O 	O 	0.6345	0.5287	0.3174	-0.467
Mof_O 	O 	0.9297	0.8706	0.3142	-0.464
Mof_O 	O 	0.8893	0.8427	0.1771	-0.457
Mof_N 	N 	0.6008	0.5481	0.971	-0.254
Mof_N 	N 	0.6679	0.5873	0.1039	-0.146
Mof_C 	C 	0.6254	0.6153	0.023	0.12
Mof_H 	H 	0.6149	0.6748	0.0064	-0.012
Mof_C 	C 	0.6301	0.4718	0.0213	0.002
Mof_H 	H 	0.6238	0.4133	0.0015	0.031
Mof_C 	C 	0.6686	0.4967	0.1021	0.014
Mof_H 	H 	0.692	0.459	0.1492	0.042
Mof_C 	C 	0.7085	0.6429	0.1765	0.158
Mof_C 	C 	0.7708	0.7065	0.1761	-0.128
Mof_H 	H 	0.7824	0.7141	0.1282	0.096
Mof_C 	C 	0.816	0.7589	0.2466	-0.011
Mof_C 	C 	0.8019	0.7465	0.3191	-0.083
Mof_H 	H 	0.8337	0.7811	0.3675	0.073
Mof_C 	C 	0.7388	0.6808	0.3178	0.059
Mof_H 	H 	0.7302	0.6706	0.3669	0.026
Mof_C 	C 	0.6888	0.6306	0.2468	-0.162
Mof_C 	C 	0.6164	0.567	0.2493	0.426
Mof_C 	C 	0.8846	0.8298	0.2458	0.369
_end
