data_functionalizedCrystal
_audit_creation_method	'EQeq! by Chris Wilmer'
_symmetry_space_group_name_H-M	'P1'
_symmetry_Int_Tables_number	1
_symmetry_cell_setting	triclinic
loop_
_symmetry_equiv_pos_as_xyz
  x,y,z
_cell_length_a	7.3583
_cell_length_b	27.28
_cell_length_c	27.856
_cell_angle_alpha	90
_cell_angle_beta	90
_cell_angle_gamma	90
loop_
_atom_site_label
_atom_site_type_symbol
_atom_site_fract_x
_atom_site_fract_y
_atom_site_fract_z
_atom_site_charge
Mof_Ba	Ba	0.86512	0.13979	0.28842	1.777
Mof_C 	C 	0.2223	0.03125	0.36333	0.055
Mof_H 	H 	0.1029	0.0427	0.3537	-0.038
Mof_H 	H 	0.27	0.0109	0.3377	-0.011
Mof_C 	C 	0.3473	0.07543	0.37042	-0.262
Mof_H 	H 	0.287	0.0978	0.3929	0.103
Mof_C 	C 	0.527	0.05929	0.39325	0.046
Mof_H 	H 	0.5969	0.041	0.3698	-0.007
Mof_H 	H 	0.5967	0.0881	0.402	-0.003
Mof_C 	C 	0.499	0.02756	0.4379	-0.118
Mof_H 	H 	0.6155	0.0156	0.4492	0.069
Mof_H 	H 	0.4449	0.0471	0.4632	0.074
Mof_C 	C 	0.2042	0.00071	0.40831	-0.115
Mof_H 	H 	0.1403	0.0194	0.4326	0.06
Mof_H 	H 	0.1329	0.9717	0.4013	0.064
Mof_C 	C 	0.443	0.93953	0.42269	0.159
Mof_C 	C 	0.6488	0.88072	0.44016	0.164
Mof_C 	C 	0.3986	0.86155	0.39783	0.164
Mof_C 	C 	0.9406	0.72694	0.29889	0.36
Mof_C 	C 	0.0948	0.76157	0.31086	-0.146
Mof_H 	H 	0.172	0.7647	0.2824	0.066
Mof_C 	C 	0.3669	0.10222	0.32257	0.461
Mof_C 	C 	0.1502	0.82835	0.57739	0.355
Mof_C 	C 	0.946	0.90339	0.47378	-0.055
Mof_H 	H 	0.8933	0.936	0.474	0.049
Mof_H 	H 	0.0423	0.9028	0.45	0.053
Mof_C 	C 	0.0243	0.89211	0.52265	-0.057
Mof_H 	H 	0.9318	0.8978	0.5468	0.051
Mof_H 	H 	0.1243	0.9144	0.529	0.037
Mof_C 	C 	0.9418	0.80436	0.51138	-0.046
Mof_H 	H 	0.9885	0.7711	0.5114	0.049
Mof_H 	H 	0.8426	0.8059	0.5343	0.05
Mof_C 	C 	0.8708	0.81676	0.46178	-0.073
Mof_H 	H 	0.9669	0.8125	0.4383	0.068
Mof_H 	H 	0.7719	0.7948	0.4535	0.075
Mof_C 	C 	0.3675	0.77916	0.36286	-0.064
Mof_H 	H 	0.4354	0.7679	0.3906	0.06
Mof_H 	H 	0.4496	0.7801	0.3356	0.049
Mof_C 	C 	0.0227	0.81199	0.32338	-0.083
Mof_H 	H 	0.952	0.8246	0.2967	0.046
Mof_H 	H 	0.9431	0.8096	0.351	0.07
Mof_C 	C 	0.1774	0.84746	0.33452	-0.042
Mof_H 	H 	0.2479	0.8531	0.3056	0.039
Mof_H 	H 	0.1271	0.8786	0.3447	0.043
Mof_C 	C 	0.0923	0.83956	0.527	-0.156
Mof_H 	H 	0.197	0.8353	0.5056	0.087
Mof_C 	C 	0.2129	0.74349	0.3525	-0.043
Mof_H 	H 	0.263	0.7116	0.3446	0.011
Mof_H 	H 	0.1384	0.7399	0.381	0.054
Mof_N 	N 	0.3807	0.98614	0.42674	-0.104
Mof_N 	N 	0.3349	0.90775	0.39896	-0.166
Mof_N 	N 	0.6044	0.92873	0.4423	-0.166
Mof_N 	N 	0.5492	0.84529	0.41877	-0.162
Mof_N 	N 	0.8066	0.86756	0.46091	-0.116
Mof_N 	N 	0.2965	0.82862	0.37208	-0.118
Mof_O 	O 	0.5206	0.10649	0.30385	-0.572
Mof_O 	O 	0.934	0.70788	0.25817	-0.511
Mof_O 	O 	0.818	0.71917	0.32999	-0.375
Mof_O 	O 	0.2234	0.11734	0.30282	-0.589
Mof_O 	O 	0.0874	0.8494	0.61198	-0.417
Mof_O 	O 	0.272	0.79365	0.58101	-0.261
Mof_Ba	Ba	0.63488	0.86021	0.78842	1.788
Mof_C 	C 	0.2777	0.96875	0.86333	0.063
Mof_H 	H 	0.3971	0.9573	0.8537	-0.04
Mof_H 	H 	0.23	0.9891	0.8377	-0.013
Mof_C 	C 	0.1527	0.92457	0.87042	-0.268
Mof_H 	H 	0.213	0.9022	0.8929	0.105
Mof_C 	C 	0.973	0.94071	0.89325	0.06
Mof_H 	H 	0.9031	0.959	0.8698	-0.011
Mof_H 	H 	0.9033	0.9119	0.902	-0.006
Mof_C 	C 	0.001	0.97244	0.9379	-0.131
Mof_H 	H 	0.8845	0.9844	0.9492	0.074
Mof_H 	H 	0.0551	0.9529	0.9632	0.077
Mof_C 	C 	0.2958	0.99929	0.90831	-0.12
Mof_H 	H 	0.3597	0.9806	0.9326	0.061
Mof_H 	H 	0.3671	0.0283	0.9013	0.065
Mof_C 	C 	0.057	0.06047	0.92269	0.159
Mof_C 	C 	0.8512	0.11928	0.94016	0.163
Mof_C 	C 	0.1014	0.13845	0.89783	0.166
Mof_C 	C 	0.5594	0.27306	0.79889	0.357
Mof_C 	C 	0.4052	0.23843	0.81086	-0.147
Mof_H 	H 	0.328	0.2353	0.7824	0.067
Mof_C 	C 	0.1331	0.89778	0.82257	0.458
Mof_C 	C 	0.3498	0.17165	0.07739	0.357
Mof_C 	C 	0.554	0.09661	0.97378	-0.068
Mof_H 	H 	0.6067	0.064	0.974	0.052
Mof_H 	H 	0.4577	0.0972	0.95	0.058
Mof_C 	C 	0.4757	0.10789	0.02265	-0.042
Mof_H 	H 	0.5682	0.1022	0.0468	0.044
Mof_H 	H 	0.3757	0.0856	0.029	0.033
Mof_C 	C 	0.5582	0.19564	0.01138	-0.048
Mof_H 	H 	0.5115	0.2289	0.0114	0.048
Mof_H 	H 	0.6574	0.1941	0.0343	0.049
Mof_C 	C 	0.6292	0.18324	0.96178	-0.073
Mof_H 	H 	0.5331	0.1875	0.9383	0.067
Mof_H 	H 	0.7281	0.2052	0.9535	0.074
Mof_C 	C 	0.1325	0.22084	0.86286	-0.065
Mof_H 	H 	0.0646	0.2321	0.8906	0.062
Mof_H 	H 	0.0504	0.2199	0.8356	0.05
Mof_C 	C 	0.4773	0.18801	0.82338	-0.069
Mof_H 	H 	0.548	0.1754	0.7967	0.04
Mof_H 	H 	0.5569	0.1904	0.851	0.064
Mof_C 	C 	0.3226	0.15254	0.83452	-0.048
Mof_H 	H 	0.2521	0.1469	0.8056	0.041
Mof_H 	H 	0.3729	0.1214	0.8447	0.046
Mof_C 	C 	0.4077	0.16044	0.027	-0.158
Mof_H 	H 	0.303	0.1647	0.0056	0.088
Mof_C 	C 	0.2871	0.25651	0.8525	-0.042
Mof_H 	H 	0.237	0.2884	0.8446	0.012
Mof_H 	H 	0.3616	0.2601	0.881	0.055
Mof_N 	N 	0.1193	0.01386	0.92674	-0.102
Mof_N 	N 	0.1651	0.09225	0.89896	-0.167
Mof_N 	N 	0.8956	0.07127	0.9423	-0.166
Mof_N 	N 	0.9508	0.15471	0.91877	-0.164
Mof_N 	N 	0.6934	0.13244	0.96091	-0.114
Mof_N 	N 	0.2035	0.17138	0.87208	-0.118
Mof_O 	O 	0.9794	0.89351	0.80385	-0.568
Mof_O 	O 	0.566	0.29212	0.75817	-0.513
Mof_O 	O 	0.682	0.28083	0.82999	-0.375
Mof_O 	O 	0.2766	0.88266	0.80282	-0.59
Mof_O 	O 	0.4126	0.1506	0.11198	-0.416
Mof_O 	O 	0.228	0.20635	0.08101	-0.26
Mof_Ba	Ba	0.13488	0.63979	0.21158	1.778
Mof_C 	C 	0.7777	0.53125	0.13667	0.057
Mof_H 	H 	0.8971	0.5427	0.1463	-0.037
Mof_H 	H 	0.73	0.5109	0.1623	-0.01
Mof_C 	C 	0.6527	0.57543	0.12958	-0.261
Mof_H 	H 	0.713	0.5978	0.1071	0.104
Mof_C 	C 	0.473	0.55929	0.10675	0.046
Mof_H 	H 	0.4031	0.541	0.1302	-0.007
Mof_H 	H 	0.4033	0.5881	0.098	-0.003
Mof_C 	C 	0.501	0.52756	0.0621	-0.118
Mof_H 	H 	0.3845	0.5156	0.0508	0.069
Mof_H 	H 	0.5551	0.5471	0.0368	0.074
Mof_C 	C 	0.7958	0.50071	0.09169	-0.115
Mof_H 	H 	0.8597	0.5194	0.0674	0.06
Mof_H 	H 	0.8671	0.4717	0.0987	0.064
Mof_C 	C 	0.557	0.43953	0.07731	0.159
Mof_C 	C 	0.3512	0.38072	0.05984	0.164
Mof_C 	C 	0.6014	0.36155	0.10217	0.164
Mof_C 	C 	0.0594	0.22694	0.20111	0.36
Mof_C 	C 	0.9052	0.26157	0.18914	-0.147
Mof_H 	H 	0.828	0.2647	0.2176	0.066
Mof_C 	C 	0.6331	0.60222	0.17743	0.461
Mof_C 	C 	0.8498	0.32835	0.92261	0.355
Mof_C 	C 	0.054	0.40339	0.02622	-0.056
Mof_H 	H 	0.1067	0.436	0.026	0.049
Mof_H 	H 	0.9577	0.4028	0.05	0.054
Mof_C 	C 	0.9757	0.39211	0.97735	-0.055
Mof_H 	H 	0.0682	0.3978	0.9532	0.05
Mof_H 	H 	0.8757	0.4144	0.971	0.036
Mof_C 	C 	0.0582	0.30436	0.98862	-0.046
Mof_H 	H 	0.0115	0.2711	0.9886	0.049
Mof_H 	H 	0.1574	0.3059	0.9657	0.05
Mof_C 	C 	0.1292	0.31676	0.03822	-0.073
Mof_H 	H 	0.0331	0.3125	0.0617	0.068
Mof_H 	H 	0.2281	0.2948	0.0465	0.075
Mof_C 	C 	0.6325	0.27916	0.13714	-0.064
Mof_H 	H 	0.5646	0.2679	0.1094	0.06
Mof_H 	H 	0.5504	0.2801	0.1644	0.049
Mof_C 	C 	0.9773	0.31199	0.17662	-0.083
Mof_H 	H 	0.048	0.3246	0.2033	0.046
Mof_H 	H 	0.0569	0.3096	0.149	0.07
Mof_C 	C 	0.8226	0.34746	0.16548	-0.042
Mof_H 	H 	0.7521	0.3531	0.1944	0.039
Mof_H 	H 	0.8729	0.3786	0.1553	0.043
Mof_C 	C 	0.9077	0.33956	0.973	-0.156
Mof_H 	H 	0.803	0.3353	0.9944	0.087
Mof_C 	C 	0.7871	0.24349	0.1475	-0.043
Mof_H 	H 	0.737	0.2116	0.1554	0.011
Mof_H 	H 	0.8616	0.2399	0.119	0.053
Mof_N 	N 	0.6193	0.48614	0.07326	-0.104
Mof_N 	N 	0.6651	0.40775	0.10104	-0.166
Mof_N 	N 	0.3956	0.42873	0.0577	-0.166
Mof_N 	N 	0.4508	0.34529	0.08123	-0.162
Mof_N 	N 	0.1934	0.36756	0.03909	-0.116
Mof_N 	N 	0.7035	0.32862	0.12792	-0.118
Mof_O 	O 	0.4794	0.60649	0.19615	-0.572
Mof_O 	O 	0.066	0.20788	0.24183	-0.511
Mof_O 	O 	0.182	0.21917	0.17001	-0.375
Mof_O 	O 	0.7766	0.61734	0.19718	-0.589
Mof_O 	O 	0.9126	0.3494	0.88802	-0.417
Mof_O 	O 	0.728	0.29365	0.91899	-0.261
Mof_Ba	Ba	0.36512	0.36021	0.71158	1.788
Mof_C 	C 	0.7223	0.46875	0.63667	0.061
Mof_H 	H 	0.6029	0.4573	0.6463	-0.039
Mof_H 	H 	0.77	0.4891	0.6623	-0.012
Mof_C 	C 	0.8473	0.42457	0.62958	-0.267
Mof_H 	H 	0.787	0.4022	0.6071	0.105
Mof_C 	C 	0.027	0.44071	0.60675	0.057
Mof_H 	H 	0.0969	0.459	0.6302	-0.01
Mof_H 	H 	0.0967	0.4119	0.598	-0.005
Mof_C 	C 	0.999	0.47244	0.5621	-0.128
Mof_H 	H 	0.1155	0.4844	0.5508	0.073
Mof_H 	H 	0.9449	0.4529	0.5368	0.077
Mof_C 	C 	0.7042	0.49929	0.59169	-0.118
Mof_H 	H 	0.6403	0.4806	0.5674	0.061
Mof_H 	H 	0.6329	0.5283	0.5987	0.065
Mof_C 	C 	0.943	0.56047	0.57731	0.159
Mof_C 	C 	0.1488	0.61928	0.55984	0.163
Mof_C 	C 	0.8986	0.63845	0.60217	0.166
Mof_C 	C 	0.4406	0.77306	0.70111	0.357
Mof_C 	C 	0.5948	0.73843	0.68914	-0.147
Mof_H 	H 	0.672	0.7353	0.7176	0.067
Mof_C 	C 	0.8669	0.39778	0.67743	0.458
Mof_C 	C 	0.6502	0.67165	0.42261	0.357
Mof_C 	C 	0.446	0.59661	0.52622	-0.068
Mof_H 	H 	0.3933	0.564	0.526	0.052
Mof_H 	H 	0.5423	0.5972	0.55	0.059
Mof_C 	C 	0.5243	0.60789	0.47735	-0.042
Mof_H 	H 	0.4318	0.6022	0.4532	0.044
Mof_H 	H 	0.6243	0.5856	0.471	0.033
Mof_C 	C 	0.4418	0.69564	0.48862	-0.047
Mof_H 	H 	0.4885	0.7289	0.4886	0.048
Mof_H 	H 	0.3426	0.6941	0.4657	0.049
Mof_C 	C 	0.3708	0.68324	0.53822	-0.073
Mof_H 	H 	0.4669	0.6875	0.5617	0.067
Mof_H 	H 	0.2719	0.7052	0.5465	0.074
Mof_C 	C 	0.8675	0.72084	0.63714	-0.065
Mof_H 	H 	0.9354	0.7321	0.6094	0.062
Mof_H 	H 	0.9496	0.7199	0.6644	0.051
Mof_C 	C 	0.5227	0.68801	0.67662	-0.069
Mof_H 	H 	0.452	0.6754	0.7033	0.04
Mof_H 	H 	0.4431	0.6904	0.649	0.064
Mof_C 	C 	0.6774	0.65254	0.66548	-0.048
Mof_H 	H 	0.7479	0.6469	0.6944	0.04
Mof_H 	H 	0.6271	0.6214	0.6553	0.046
Mof_C 	C 	0.5923	0.66044	0.473	-0.158
Mof_H 	H 	0.697	0.6647	0.4944	0.088
Mof_C 	C 	0.7129	0.75651	0.6475	-0.042
Mof_H 	H 	0.763	0.7884	0.6554	0.012
Mof_H 	H 	0.6384	0.7601	0.619	0.055
Mof_N 	N 	0.8807	0.51386	0.57326	-0.102
Mof_N 	N 	0.8349	0.59225	0.60104	-0.167
Mof_N 	N 	0.1044	0.57127	0.5577	-0.166
Mof_N 	N 	0.0492	0.65471	0.58123	-0.164
Mof_N 	N 	0.3066	0.63244	0.53909	-0.114
Mof_N 	N 	0.7965	0.67138	0.62792	-0.118
Mof_O 	O 	0.0206	0.39351	0.69615	-0.568
Mof_O 	O 	0.434	0.79212	0.74183	-0.513
Mof_O 	O 	0.318	0.78083	0.67001	-0.375
Mof_O 	O 	0.7234	0.38266	0.69718	-0.59
Mof_O 	O 	0.5874	0.6506	0.38802	-0.416
Mof_O 	O 	0.772	0.70635	0.41899	-0.26
Mof_Ba	Ba	0.13488	0.86021	0.71158	1.778
Mof_C 	C 	0.7777	0.96875	0.63667	0.056
Mof_H 	H 	0.8971	0.9573	0.6463	-0.037
Mof_H 	H 	0.73	0.9891	0.6623	-0.01
Mof_C 	C 	0.6527	0.92457	0.62958	-0.261
Mof_H 	H 	0.713	0.9022	0.6071	0.104
Mof_C 	C 	0.473	0.94071	0.60675	0.046
Mof_H 	H 	0.4031	0.959	0.6302	-0.007
Mof_H 	H 	0.4033	0.9119	0.598	-0.003
Mof_C 	C 	0.501	0.97244	0.5621	-0.118
Mof_H 	H 	0.3845	0.9844	0.5508	0.069
Mof_H 	H 	0.5551	0.9529	0.5368	0.074
Mof_C 	C 	0.7958	0.99929	0.59169	-0.115
Mof_H 	H 	0.8597	0.9806	0.5674	0.06
Mof_H 	H 	0.8671	0.0283	0.5987	0.064
Mof_C 	C 	0.557	0.06047	0.57731	0.159
Mof_C 	C 	0.3512	0.11928	0.55984	0.164
Mof_C 	C 	0.6014	0.13845	0.60217	0.164
Mof_C 	C 	0.0594	0.27306	0.70111	0.36
Mof_C 	C 	0.9052	0.23843	0.68914	-0.146
Mof_H 	H 	0.828	0.2353	0.7176	0.066
Mof_C 	C 	0.6331	0.89778	0.67743	0.461
Mof_C 	C 	0.8498	0.17165	0.42261	0.355
Mof_C 	C 	0.054	0.09661	0.52622	-0.055
Mof_H 	H 	0.1067	0.064	0.526	0.049
Mof_H 	H 	0.9577	0.0972	0.55	0.053
Mof_C 	C 	0.9757	0.10789	0.47735	-0.057
Mof_H 	H 	0.0682	0.1022	0.4532	0.051
Mof_H 	H 	0.8757	0.0856	0.471	0.037
Mof_C 	C 	0.0582	0.19564	0.48862	-0.046
Mof_H 	H 	0.0115	0.2289	0.4886	0.049
Mof_H 	H 	0.1574	0.1941	0.4657	0.05
Mof_C 	C 	0.1292	0.18324	0.53822	-0.073
Mof_H 	H 	0.0331	0.1875	0.5617	0.068
Mof_H 	H 	0.2281	0.2052	0.5465	0.075
Mof_C 	C 	0.6325	0.22084	0.63714	-0.064
Mof_H 	H 	0.5646	0.2321	0.6094	0.06
Mof_H 	H 	0.5504	0.2199	0.6644	0.049
Mof_C 	C 	0.9773	0.18801	0.67662	-0.083
Mof_H 	H 	0.048	0.1754	0.7033	0.046
Mof_H 	H 	0.0569	0.1904	0.649	0.07
Mof_C 	C 	0.8226	0.15254	0.66548	-0.042
Mof_H 	H 	0.7521	0.1469	0.6944	0.039
Mof_H 	H 	0.8729	0.1214	0.6553	0.043
Mof_C 	C 	0.9077	0.16044	0.473	-0.156
Mof_H 	H 	0.803	0.1647	0.4944	0.087
Mof_C 	C 	0.7871	0.25651	0.6475	-0.043
Mof_H 	H 	0.737	0.2884	0.6554	0.011
Mof_H 	H 	0.8616	0.2601	0.619	0.054
Mof_N 	N 	0.6193	0.01386	0.57326	-0.104
Mof_N 	N 	0.6651	0.09225	0.60104	-0.166
Mof_N 	N 	0.3956	0.07127	0.5577	-0.166
Mof_N 	N 	0.4508	0.15471	0.58123	-0.162
Mof_N 	N 	0.1934	0.13244	0.53909	-0.116
Mof_N 	N 	0.7035	0.17138	0.62792	-0.118
Mof_O 	O 	0.4794	0.89351	0.69615	-0.572
Mof_O 	O 	0.066	0.29212	0.74183	-0.511
Mof_O 	O 	0.182	0.28083	0.67001	-0.375
Mof_O 	O 	0.7766	0.88266	0.69718	-0.589
Mof_O 	O 	0.9126	0.1506	0.38802	-0.417
Mof_O 	O 	0.728	0.20635	0.41899	-0.261
Mof_Ba	Ba	0.36512	0.13979	0.21158	1.788
Mof_C 	C 	0.7223	0.03125	0.13667	0.063
Mof_H 	H 	0.6029	0.0427	0.1463	-0.04
Mof_H 	H 	0.77	0.0109	0.1623	-0.013
Mof_C 	C 	0.8473	0.07543	0.12958	-0.268
Mof_H 	H 	0.787	0.0978	0.1071	0.105
Mof_C 	C 	0.027	0.05929	0.10675	0.06
Mof_H 	H 	0.0969	0.041	0.1302	-0.011
Mof_H 	H 	0.0967	0.0881	0.098	-0.006
Mof_C 	C 	0.999	0.02756	0.0621	-0.131
Mof_H 	H 	0.1155	0.0156	0.0508	0.074
Mof_H 	H 	0.9449	0.0471	0.0368	0.077
Mof_C 	C 	0.7042	0.00071	0.09169	-0.12
Mof_H 	H 	0.6403	0.0194	0.0674	0.061
Mof_H 	H 	0.6329	0.9717	0.0987	0.065
Mof_C 	C 	0.943	0.93953	0.07731	0.159
Mof_C 	C 	0.1488	0.88072	0.05984	0.163
Mof_C 	C 	0.8986	0.86155	0.10217	0.166
Mof_C 	C 	0.4406	0.72694	0.20111	0.357
Mof_C 	C 	0.5948	0.76157	0.18914	-0.147
Mof_H 	H 	0.672	0.7647	0.2176	0.067
Mof_C 	C 	0.8669	0.10222	0.17743	0.458
Mof_C 	C 	0.6502	0.82835	0.92261	0.357
Mof_C 	C 	0.446	0.90339	0.02622	-0.068
Mof_H 	H 	0.3933	0.936	0.026	0.052
Mof_H 	H 	0.5423	0.9028	0.05	0.058
Mof_C 	C 	0.5243	0.89211	0.97735	-0.042
Mof_H 	H 	0.4318	0.8978	0.9532	0.044
Mof_H 	H 	0.6243	0.9144	0.971	0.033
Mof_C 	C 	0.4418	0.80436	0.98862	-0.048
Mof_H 	H 	0.4885	0.7711	0.9886	0.048
Mof_H 	H 	0.3426	0.8059	0.9657	0.049
Mof_C 	C 	0.3708	0.81676	0.03822	-0.073
Mof_H 	H 	0.4669	0.8125	0.0617	0.067
Mof_H 	H 	0.2719	0.7948	0.0465	0.074
Mof_C 	C 	0.8675	0.77916	0.13714	-0.065
Mof_H 	H 	0.9354	0.7679	0.1094	0.062
Mof_H 	H 	0.9496	0.7801	0.1644	0.05
Mof_C 	C 	0.5227	0.81199	0.17662	-0.069
Mof_H 	H 	0.452	0.8246	0.2033	0.04
Mof_H 	H 	0.4431	0.8096	0.149	0.064
Mof_C 	C 	0.6774	0.84746	0.16548	-0.048
Mof_H 	H 	0.7479	0.8531	0.1944	0.041
Mof_H 	H 	0.6271	0.8786	0.1553	0.046
Mof_C 	C 	0.5923	0.83956	0.973	-0.158
Mof_H 	H 	0.697	0.8353	0.9944	0.088
Mof_C 	C 	0.7129	0.74349	0.1475	-0.042
Mof_H 	H 	0.763	0.7116	0.1554	0.012
Mof_H 	H 	0.6384	0.7399	0.119	0.055
Mof_N 	N 	0.8807	0.98614	0.07326	-0.102
Mof_N 	N 	0.8349	0.90775	0.10104	-0.167
Mof_N 	N 	0.1044	0.92873	0.0577	-0.166
Mof_N 	N 	0.0492	0.84529	0.08123	-0.164
Mof_N 	N 	0.3066	0.86756	0.03909	-0.114
Mof_N 	N 	0.7965	0.82862	0.12792	-0.118
Mof_O 	O 	0.0206	0.10649	0.19615	-0.568
Mof_O 	O 	0.434	0.70788	0.24183	-0.513
Mof_O 	O 	0.318	0.71917	0.17001	-0.375
Mof_O 	O 	0.7234	0.11734	0.19718	-0.59
Mof_O 	O 	0.5874	0.8494	0.88802	-0.416
Mof_O 	O 	0.772	0.79365	0.91899	-0.26
Mof_Ba	Ba	0.86512	0.36021	0.78842	1.778
Mof_C 	C 	0.2223	0.46875	0.86333	0.057
Mof_H 	H 	0.1029	0.4573	0.8537	-0.037
Mof_H 	H 	0.27	0.4891	0.8377	-0.01
Mof_C 	C 	0.3473	0.42457	0.87042	-0.261
Mof_H 	H 	0.287	0.4022	0.8929	0.104
Mof_C 	C 	0.527	0.44071	0.89325	0.046
Mof_H 	H 	0.5969	0.459	0.8698	-0.007
Mof_H 	H 	0.5967	0.4119	0.902	-0.003
Mof_C 	C 	0.499	0.47244	0.9379	-0.118
Mof_H 	H 	0.6155	0.4844	0.9492	0.069
Mof_H 	H 	0.4449	0.4529	0.9632	0.074
Mof_C 	C 	0.2042	0.49929	0.90831	-0.115
Mof_H 	H 	0.1403	0.4806	0.9326	0.06
Mof_H 	H 	0.1329	0.5283	0.9013	0.064
Mof_C 	C 	0.443	0.56047	0.92269	0.159
Mof_C 	C 	0.6488	0.61928	0.94016	0.164
Mof_C 	C 	0.3986	0.63845	0.89783	0.164
Mof_C 	C 	0.9406	0.77306	0.79889	0.36
Mof_C 	C 	0.0948	0.73843	0.81086	-0.147
Mof_H 	H 	0.172	0.7353	0.7824	0.066
Mof_C 	C 	0.3669	0.39778	0.82257	0.461
Mof_C 	C 	0.1502	0.67165	0.07739	0.355
Mof_C 	C 	0.946	0.59661	0.97378	-0.056
Mof_H 	H 	0.8933	0.564	0.974	0.049
Mof_H 	H 	0.0423	0.5972	0.95	0.054
Mof_C 	C 	0.0243	0.60789	0.02265	-0.055
Mof_H 	H 	0.9318	0.6022	0.0468	0.05
Mof_H 	H 	0.1243	0.5856	0.029	0.036
Mof_C 	C 	0.9418	0.69564	0.01138	-0.046
Mof_H 	H 	0.9885	0.7289	0.0114	0.049
Mof_H 	H 	0.8426	0.6941	0.0343	0.05
Mof_C 	C 	0.8708	0.68324	0.96178	-0.073
Mof_H 	H 	0.9669	0.6875	0.9383	0.068
Mof_H 	H 	0.7719	0.7052	0.9535	0.075
Mof_C 	C 	0.3675	0.72084	0.86286	-0.064
Mof_H 	H 	0.4354	0.7321	0.8906	0.06
Mof_H 	H 	0.4496	0.7199	0.8356	0.049
Mof_C 	C 	0.0227	0.68801	0.82338	-0.083
Mof_H 	H 	0.952	0.6754	0.7967	0.046
Mof_H 	H 	0.9431	0.6904	0.851	0.07
Mof_C 	C 	0.1774	0.65254	0.83452	-0.042
Mof_H 	H 	0.2479	0.6469	0.8056	0.039
Mof_H 	H 	0.1271	0.6214	0.8447	0.043
Mof_C 	C 	0.0923	0.66044	0.027	-0.156
Mof_H 	H 	0.197	0.6647	0.0056	0.087
Mof_C 	C 	0.2129	0.75651	0.8525	-0.043
Mof_H 	H 	0.263	0.7884	0.8446	0.011
Mof_H 	H 	0.1384	0.7601	0.881	0.053
Mof_N 	N 	0.3807	0.51386	0.92674	-0.104
Mof_N 	N 	0.3349	0.59225	0.89896	-0.166
Mof_N 	N 	0.6044	0.57127	0.9423	-0.166
Mof_N 	N 	0.5492	0.65471	0.91877	-0.162
Mof_N 	N 	0.8066	0.63244	0.96091	-0.116
Mof_N 	N 	0.2965	0.67138	0.87208	-0.118
Mof_O 	O 	0.5206	0.39351	0.80385	-0.572
Mof_O 	O 	0.934	0.79212	0.75817	-0.511
Mof_O 	O 	0.818	0.78083	0.82999	-0.375
Mof_O 	O 	0.2234	0.38266	0.80282	-0.589
Mof_O 	O 	0.0874	0.6506	0.11198	-0.417
Mof_O 	O 	0.272	0.70635	0.08101	-0.261
Mof_Ba	Ba	0.63488	0.63979	0.28842	1.788
Mof_C 	C 	0.2777	0.53125	0.36333	0.061
Mof_H 	H 	0.3971	0.5427	0.3537	-0.039
Mof_H 	H 	0.23	0.5109	0.3377	-0.012
Mof_C 	C 	0.1527	0.57543	0.37042	-0.267
Mof_H 	H 	0.213	0.5978	0.3929	0.105
Mof_C 	C 	0.973	0.55929	0.39325	0.057
Mof_H 	H 	0.9031	0.541	0.3698	-0.01
Mof_H 	H 	0.9033	0.5881	0.402	-0.005
Mof_C 	C 	0.001	0.52756	0.4379	-0.128
Mof_H 	H 	0.8845	0.5156	0.4492	0.073
Mof_H 	H 	0.0551	0.5471	0.4632	0.077
Mof_C 	C 	0.2958	0.50071	0.40831	-0.118
Mof_H 	H 	0.3597	0.5194	0.4326	0.061
Mof_H 	H 	0.3671	0.4717	0.4013	0.065
Mof_C 	C 	0.057	0.43953	0.42269	0.159
Mof_C 	C 	0.8512	0.38072	0.44016	0.163
Mof_C 	C 	0.1014	0.36155	0.39783	0.166
Mof_C 	C 	0.5594	0.22694	0.29889	0.357
Mof_C 	C 	0.4052	0.26157	0.31086	-0.147
Mof_H 	H 	0.328	0.2647	0.2824	0.067
Mof_C 	C 	0.1331	0.60222	0.32257	0.458
Mof_C 	C 	0.3498	0.32835	0.57739	0.357
Mof_C 	C 	0.554	0.40339	0.47378	-0.068
Mof_H 	H 	0.6067	0.436	0.474	0.052
Mof_H 	H 	0.4577	0.4028	0.45	0.059
Mof_C 	C 	0.4757	0.39211	0.52265	-0.042
Mof_H 	H 	0.5682	0.3978	0.5468	0.044
Mof_H 	H 	0.3757	0.4144	0.529	0.033
Mof_C 	C 	0.5582	0.30436	0.51138	-0.047
Mof_H 	H 	0.5115	0.2711	0.5114	0.048
Mof_H 	H 	0.6574	0.3059	0.5343	0.049
Mof_C 	C 	0.6292	0.31676	0.46178	-0.073
Mof_H 	H 	0.5331	0.3125	0.4383	0.067
Mof_H 	H 	0.7281	0.2948	0.4535	0.074
Mof_C 	C 	0.1325	0.27916	0.36286	-0.065
Mof_H 	H 	0.0646	0.2679	0.3906	0.062
Mof_H 	H 	0.0504	0.2801	0.3356	0.051
Mof_C 	C 	0.4773	0.31199	0.32338	-0.069
Mof_H 	H 	0.548	0.3246	0.2967	0.04
Mof_H 	H 	0.5569	0.3096	0.351	0.064
Mof_C 	C 	0.3226	0.34746	0.33452	-0.048
Mof_H 	H 	0.2521	0.3531	0.3056	0.04
Mof_H 	H 	0.3729	0.3786	0.3447	0.046
Mof_C 	C 	0.4077	0.33956	0.527	-0.158
Mof_H 	H 	0.303	0.3353	0.5056	0.088
Mof_C 	C 	0.2871	0.24349	0.3525	-0.042
Mof_H 	H 	0.237	0.2116	0.3446	0.012
Mof_H 	H 	0.3616	0.2399	0.381	0.055
Mof_N 	N 	0.1193	0.48614	0.42674	-0.102
Mof_N 	N 	0.1651	0.40775	0.39896	-0.167
Mof_N 	N 	0.8956	0.42873	0.4423	-0.166
Mof_N 	N 	0.9508	0.34529	0.41877	-0.164
Mof_N 	N 	0.6934	0.36756	0.46091	-0.114
Mof_N 	N 	0.2035	0.32862	0.37208	-0.118
Mof_O 	O 	0.9794	0.60649	0.30385	-0.568
Mof_O 	O 	0.566	0.20788	0.25817	-0.513
Mof_O 	O 	0.682	0.21917	0.32999	-0.375
Mof_O 	O 	0.2766	0.61734	0.30282	-0.59
Mof_O 	O 	0.4126	0.3494	0.61198	-0.416
Mof_O 	O 	0.228	0.29365	0.58101	-0.26
_end
