data_functionalizedCrystal
_audit_creation_method	'EQeq! by Chris Wilmer'
_symmetry_space_group_name_H-M	'P1'
_symmetry_Int_Tables_number	1
_symmetry_cell_setting	triclinic
loop_
_symmetry_equiv_pos_as_xyz
  x,y,z
_cell_length_a	17.8074
_cell_length_b	13.1145
_cell_length_c	11.0514
_cell_angle_alpha	90
_cell_angle_beta	103.844
_cell_angle_gamma	90
loop_
_atom_site_label
_atom_site_type_symbol
_atom_site_fract_x
_atom_site_fract_y
_atom_site_fract_z
_atom_site_charge
Mof_Mg	Mg	0.58662	0.03403	0.54347	1.475
Mof_N 	N 	0.68677	0.9312	0.6155	-0.201
Mof_O 	O 	0.57715	0.98486	0.72229	-0.659
Mof_O 	O 	0.63585	0.91444	0.90432	-0.501
Mof_O 	O 	0.85157	0.65944	0.8676	-0.463
Mof_O 	O 	0.91611	0.70314	0.724	-0.463
Mof_O 	O 	0.47874	0.08445	0.5538	-1.154
Mof_H 	H 	0.467	0.136	0.528	0.513
Mof_C 	C 	0.69094	0.8926	0.7303	-0.094
Mof_C 	C 	0.74621	0.822	0.7874	0.044
Mof_H 	H 	0.747	0.799	0.877	0.049
Mof_C 	C 	0.80081	0.7903	0.7238	-0.094
Mof_C 	C 	0.79819	0.8323	0.6073	-0.005
Mof_H 	H 	0.835	0.808	0.555	0.049
Mof_C 	C 	0.74046	0.9012	0.5565	0.021
Mof_H 	H 	0.734	0.93	0.475	0.021
Mof_C 	C 	0.63005	0.9333	0.7921	0.438
Mof_C 	C 	0.8614	0.7108	0.7772	0.404
Mof_Mg	Mg	0.08662	0.53403	0.54347	1.47
Mof_N 	N 	0.18677	0.4312	0.6155	-0.202
Mof_O 	O 	0.07715	0.48486	0.72229	-0.712
Mof_O 	O 	0.13585	0.41444	0.90432	-0.529
Mof_O 	O 	0.35157	0.15944	0.8676	-0.489
Mof_O 	O 	0.41611	0.20314	0.724	-0.513
Mof_O 	O 	0.97874	0.58445	0.5538	-1.063
Mof_H 	H 	0.967	0.636	0.528	0.51
Mof_C 	C 	0.19094	0.3926	0.7303	-0.11
Mof_C 	C 	0.24621	0.322	0.7874	0.045
Mof_H 	H 	0.247	0.299	0.877	0.038
Mof_C 	C 	0.30081	0.2903	0.7238	-0.111
Mof_C 	C 	0.29819	0.3323	0.6073	-0.004
Mof_H 	H 	0.335	0.308	0.555	0.036
Mof_C 	C 	0.24046	0.4012	0.5565	0.011
Mof_H 	H 	0.234	0.43	0.475	0.019
Mof_C 	C 	0.13005	0.4333	0.7921	0.444
Mof_C 	C 	0.3614	0.2108	0.7772	0.408
Mof_Mg	Mg	0.41338	0.03403	0.95653	1.475
Mof_N 	N 	0.31323	0.9312	0.8845	-0.202
Mof_O 	O 	0.42285	0.98486	0.77771	-0.658
Mof_O 	O 	0.36415	0.91444	0.59568	-0.508
Mof_O 	O 	0.14843	0.65944	0.6324	-0.504
Mof_O 	O 	0.08389	0.70314	0.776	-0.556
Mof_O 	O 	0.52126	0.08445	0.9462	-1.156
Mof_H 	H 	0.533	0.136	0.972	0.512
Mof_C 	C 	0.30906	0.8926	0.7697	-0.101
Mof_C 	C 	0.25379	0.822	0.7126	0.043
Mof_H 	H 	0.253	0.799	0.623	0.039
Mof_C 	C 	0.19919	0.7903	0.7762	-0.114
Mof_C 	C 	0.20181	0.8323	0.8927	-0.016
Mof_H 	H 	0.165	0.808	0.945	0.029
Mof_C 	C 	0.25954	0.9012	0.9435	0.029
Mof_H 	H 	0.266	0.93	0.025	0.001
Mof_C 	C 	0.36995	0.9333	0.7079	0.438
Mof_C 	C 	0.1386	0.7108	0.7228	0.408
Mof_Mg	Mg	0.91338	0.53403	0.95653	1.48
Mof_N 	N 	0.81323	0.4312	0.8845	-0.199
Mof_O 	O 	0.92285	0.48486	0.77771	-0.61
Mof_O 	O 	0.86415	0.41444	0.59568	-0.482
Mof_O 	O 	0.64843	0.15944	0.6324	-0.482
Mof_O 	O 	0.58389	0.20314	0.776	-0.513
Mof_O 	O 	0.02126	0.58445	0.9462	-1.235
Mof_H 	H 	0.033	0.636	0.972	0.515
Mof_C 	C 	0.80906	0.3926	0.7697	-0.09
Mof_C 	C 	0.75379	0.322	0.7126	0.045
Mof_H 	H 	0.753	0.299	0.623	0.047
Mof_C 	C 	0.69919	0.2903	0.7762	-0.106
Mof_C 	C 	0.70181	0.3323	0.8927	-0.003
Mof_H 	H 	0.665	0.308	0.945	0.033
Mof_C 	C 	0.75954	0.4012	0.9435	0.005
Mof_H 	H 	0.766	0.43	0.025	0.024
Mof_C 	C 	0.86995	0.4333	0.7079	0.431
Mof_C 	C 	0.6386	0.2108	0.7228	0.408
Mof_Mg	Mg	0.41338	0.96597	0.45653	1.475
Mof_N 	N 	0.31323	0.0688	0.3845	-0.201
Mof_O 	O 	0.42285	0.01514	0.27771	-0.66
Mof_O 	O 	0.36415	0.08556	0.09568	-0.504
Mof_O 	O 	0.14843	0.34056	0.1324	-0.505
Mof_O 	O 	0.08389	0.29686	0.276	-0.558
Mof_O 	O 	0.52126	0.91555	0.4462	-1.154
Mof_H 	H 	0.533	0.864	0.472	0.513
Mof_C 	C 	0.30906	0.1074	0.2697	-0.102
Mof_C 	C 	0.25379	0.178	0.2126	0.046
Mof_H 	H 	0.253	0.201	0.123	0.039
Mof_C 	C 	0.19919	0.2097	0.2762	-0.119
Mof_C 	C 	0.20181	0.1677	0.3927	-0.007
Mof_H 	H 	0.165	0.192	0.445	0.023
Mof_C 	C 	0.25954	0.0988	0.4435	0.007
Mof_H 	H 	0.266	0.07	0.525	0.014
Mof_C 	C 	0.36995	0.0667	0.2079	0.438
Mof_C 	C 	0.1386	0.2892	0.2228	0.41
Mof_Mg	Mg	0.91338	0.46597	0.45653	1.48
Mof_N 	N 	0.81323	0.5688	0.3845	-0.2
Mof_O 	O 	0.92285	0.51514	0.27771	-0.607
Mof_O 	O 	0.86415	0.58556	0.09568	-0.481
Mof_O 	O 	0.64843	0.84056	0.1324	-0.483
Mof_O 	O 	0.58389	0.79686	0.276	-0.513
Mof_O 	O 	0.02126	0.41555	0.4462	-1.238
Mof_H 	H 	0.033	0.364	0.472	0.513
Mof_C 	C 	0.80906	0.6074	0.2697	-0.088
Mof_C 	C 	0.75379	0.678	0.2126	0.044
Mof_H 	H 	0.753	0.701	0.123	0.047
Mof_C 	C 	0.69919	0.7097	0.2762	-0.104
Mof_C 	C 	0.70181	0.6677	0.3927	-0.007
Mof_H 	H 	0.665	0.692	0.445	0.036
Mof_C 	C 	0.75954	0.5988	0.4435	0.016
Mof_H 	H 	0.766	0.57	0.525	0.017
Mof_C 	C 	0.86995	0.5667	0.2079	0.43
Mof_C 	C 	0.6386	0.7892	0.2228	0.407
Mof_Mg	Mg	0.58662	0.96597	0.04347	1.475
Mof_N 	N 	0.68677	0.0688	0.1155	-0.203
Mof_O 	O 	0.57715	0.01514	0.22229	-0.658
Mof_O 	O 	0.63585	0.08556	0.40432	-0.504
Mof_O 	O 	0.85157	0.34056	0.3676	-0.461
Mof_O 	O 	0.91611	0.29686	0.224	-0.46
Mof_O 	O 	0.47874	0.91555	0.0538	-1.156
Mof_H 	H 	0.467	0.864	0.028	0.512
Mof_C 	C 	0.69094	0.1074	0.2303	-0.092
Mof_C 	C 	0.74621	0.178	0.2874	0.041
Mof_H 	H 	0.747	0.201	0.377	0.049
Mof_C 	C 	0.80081	0.2097	0.2238	-0.088
Mof_C 	C 	0.79819	0.1677	0.1073	-0.016
Mof_H 	H 	0.835	0.192	0.055	0.055
Mof_C 	C 	0.74046	0.0988	0.0565	0.045
Mof_H 	H 	0.734	0.07	0.975	0.006
Mof_C 	C 	0.63005	0.0667	0.2921	0.437
Mof_C 	C 	0.8614	0.2892	0.2772	0.402
Mof_Mg	Mg	0.08662	0.46597	0.04347	1.47
Mof_N 	N 	0.18677	0.5688	0.1155	-0.201
Mof_O 	O 	0.07715	0.51514	0.22229	-0.713
Mof_O 	O 	0.13585	0.58556	0.40432	-0.531
Mof_O 	O 	0.35157	0.84056	0.3676	-0.488
Mof_O 	O 	0.41611	0.79686	0.224	-0.514
Mof_O 	O 	0.97874	0.41555	0.0538	-1.061
Mof_H 	H 	0.967	0.364	0.028	0.511
Mof_C 	C 	0.19094	0.6074	0.2303	-0.112
Mof_C 	C 	0.24621	0.678	0.2874	0.046
Mof_H 	H 	0.247	0.701	0.377	0.038
Mof_C 	C 	0.30081	0.7097	0.2238	-0.112
Mof_C 	C 	0.29819	0.6677	0.1073	-0.001
Mof_H 	H 	0.335	0.692	0.055	0.034
Mof_C 	C 	0.24046	0.5988	0.0565	0.004
Mof_H 	H 	0.234	0.57	0.975	0.024
Mof_C 	C 	0.13005	0.5667	0.2921	0.445
Mof_C 	C 	0.3614	0.7892	0.2772	0.408
Mof_Mg	Mg	0.5	0.09502	0.75	1.479
Mof_Mg	Mg	2.16276e-33	0.59502	0.75	1.466
Mof_Mg	Mg	0.5	0.90498	0.25	1.479
Mof_Mg	Mg	7.20921e-34	0.40498	0.25	1.466
_end
