data_functionalizedCrystal
_audit_creation_method	'EQeq! by Chris Wilmer'
_symmetry_space_group_name_H-M	'P1'
_symmetry_Int_Tables_number	1
_symmetry_cell_setting	triclinic
loop_
_symmetry_equiv_pos_as_xyz
  x,y,z
_cell_length_a	26.404
_cell_length_b	26.404
_cell_length_c	26.404
_cell_angle_alpha	90
_cell_angle_beta	90
_cell_angle_gamma	90
loop_
_atom_site_label
_atom_site_type_symbol
_atom_site_fract_x
_atom_site_fract_y
_atom_site_fract_z
_atom_site_charge
Mof_U 	U 	0.2382	0.57193	0.15518	0.016
Mof_P 	P 	0.12415	0.6432	0.13216	0.463
Mof_C 	C 	0.1698	0.6891	0.1114	-0.481
Mof_H 	H 	0.1527	0.7207	0.1038	0.192
Mof_H 	H 	0.186	0.6772	0.0807	0.211
Mof_C 	C 	0.2094	0.6981	0.1517	0.441
Mof_O 	O 	0.15295	0.59769	0.14997	-0.164
Mof_O 	O 	0.08991	0.66639	0.17312	-0.164
Mof_O 	O 	0.08767	0.6329	0.08849	-0.164
Mof_O 	O 	0.23846	0.66229	0.16369	-0.224
Mof_O 	O 	0.21135	0.74112	0.17312	-0.318
Mof_U 	U 	0.7382	0.07193	0.65518	0.016
Mof_P 	P 	0.62415	0.1432	0.63216	0.463
Mof_C 	C 	0.6698	0.1891	0.6114	-0.482
Mof_H 	H 	0.6527	0.2207	0.6038	0.192
Mof_H 	H 	0.686	0.1772	0.5807	0.211
Mof_C 	C 	0.7094	0.1981	0.6517	0.441
Mof_O 	O 	0.65295	0.09769	0.64997	-0.165
Mof_O 	O 	0.58991	0.16639	0.67312	-0.165
Mof_O 	O 	0.58767	0.1329	0.58849	-0.164
Mof_O 	O 	0.73846	0.16229	0.66369	-0.225
Mof_O 	O 	0.71135	0.24112	0.67312	-0.319
Mof_U 	U 	0.7618	0.42807	0.15518	0.015
Mof_P 	P 	0.87585	0.3568	0.13216	0.462
Mof_C 	C 	0.8302	0.3109	0.1114	-0.482
Mof_H 	H 	0.8473	0.2793	0.1038	0.192
Mof_H 	H 	0.814	0.3228	0.0807	0.21
Mof_C 	C 	0.7906	0.3019	0.1517	0.44
Mof_O 	O 	0.84705	0.40231	0.14997	-0.165
Mof_O 	O 	0.91009	0.33361	0.17312	-0.163
Mof_O 	O 	0.91233	0.3671	0.08849	-0.162
Mof_O 	O 	0.76154	0.33771	0.16369	-0.225
Mof_O 	O 	0.78865	0.25888	0.17312	-0.319
Mof_U 	U 	0.2618	0.92807	0.65518	0.019
Mof_P 	P 	0.37585	0.8568	0.63216	0.462
Mof_C 	C 	0.3302	0.8109	0.6114	-0.483
Mof_H 	H 	0.3473	0.7793	0.6038	0.192
Mof_H 	H 	0.314	0.8228	0.5807	0.212
Mof_C 	C 	0.2906	0.8019	0.6517	0.441
Mof_O 	O 	0.34705	0.90231	0.64997	-0.163
Mof_O 	O 	0.41009	0.83361	0.67312	-0.165
Mof_O 	O 	0.41233	0.8671	0.58849	-0.163
Mof_O 	O 	0.26154	0.83771	0.66369	-0.225
Mof_O 	O 	0.28865	0.75888	0.67312	-0.319
Mof_U 	U 	0.7618	0.57193	0.84482	0.016
Mof_P 	P 	0.87585	0.6432	0.86784	0.462
Mof_C 	C 	0.8302	0.6891	0.8886	-0.484
Mof_H 	H 	0.8473	0.7207	0.8962	0.195
Mof_H 	H 	0.814	0.6772	0.9193	0.213
Mof_C 	C 	0.7906	0.6981	0.8483	0.442
Mof_O 	O 	0.84705	0.59769	0.85003	-0.164
Mof_O 	O 	0.91009	0.66639	0.82688	-0.162
Mof_O 	O 	0.91233	0.6329	0.91151	-0.16
Mof_O 	O 	0.76154	0.66229	0.83631	-0.225
Mof_O 	O 	0.78865	0.74112	0.82688	-0.319
Mof_U 	U 	0.2618	0.07193	0.34482	0.015
Mof_P 	P 	0.37585	0.1432	0.36784	0.462
Mof_C 	C 	0.3302	0.1891	0.3886	-0.483
Mof_H 	H 	0.3473	0.2207	0.3962	0.192
Mof_H 	H 	0.314	0.1772	0.4193	0.211
Mof_C 	C 	0.2906	0.1981	0.3483	0.441
Mof_O 	O 	0.34705	0.09769	0.35003	-0.165
Mof_O 	O 	0.41009	0.16639	0.32688	-0.165
Mof_O 	O 	0.41233	0.1329	0.41151	-0.164
Mof_O 	O 	0.26154	0.16229	0.33631	-0.225
Mof_O 	O 	0.28865	0.24112	0.32688	-0.319
Mof_U 	U 	0.2382	0.42807	0.84482	0.016
Mof_P 	P 	0.12415	0.3568	0.86784	0.462
Mof_C 	C 	0.1698	0.3109	0.8886	-0.484
Mof_H 	H 	0.1527	0.2793	0.8962	0.193
Mof_H 	H 	0.186	0.3228	0.9193	0.213
Mof_C 	C 	0.2094	0.3019	0.8483	0.441
Mof_O 	O 	0.15295	0.40231	0.85003	-0.165
Mof_O 	O 	0.08991	0.33361	0.82688	-0.165
Mof_O 	O 	0.08767	0.3671	0.91151	-0.162
Mof_O 	O 	0.23846	0.33771	0.83631	-0.225
Mof_O 	O 	0.21135	0.25888	0.82688	-0.319
Mof_U 	U 	0.7382	0.92807	0.34482	0.019
Mof_P 	P 	0.62415	0.8568	0.36784	0.462
Mof_C 	C 	0.6698	0.8109	0.3886	-0.483
Mof_H 	H 	0.6527	0.7793	0.3962	0.192
Mof_H 	H 	0.686	0.8228	0.4193	0.212
Mof_C 	C 	0.7094	0.8019	0.3483	0.441
Mof_O 	O 	0.65295	0.90231	0.35003	-0.163
Mof_O 	O 	0.58991	0.83361	0.32688	-0.165
Mof_O 	O 	0.58767	0.8671	0.41151	-0.163
Mof_O 	O 	0.73846	0.83771	0.33631	-0.225
Mof_O 	O 	0.71135	0.75888	0.32688	-0.319
Mof_U 	U 	0.15518	0.2382	0.57193	0.015
Mof_P 	P 	0.13216	0.12415	0.6432	0.462
Mof_C 	C 	0.1114	0.1698	0.6891	-0.482
Mof_H 	H 	0.1038	0.1527	0.7207	0.191
Mof_H 	H 	0.0807	0.186	0.6772	0.21
Mof_C 	C 	0.1517	0.2094	0.6981	0.44
Mof_O 	O 	0.14997	0.15295	0.59769	-0.165
Mof_O 	O 	0.17312	0.08991	0.66639	-0.165
Mof_O 	O 	0.08849	0.08767	0.6329	-0.165
Mof_O 	O 	0.16369	0.23846	0.66229	-0.225
Mof_O 	O 	0.17312	0.21135	0.74112	-0.319
Mof_U 	U 	0.65518	0.7382	0.07193	0.015
Mof_P 	P 	0.63216	0.62415	0.1432	0.462
Mof_C 	C 	0.6114	0.6698	0.1891	-0.483
Mof_H 	H 	0.6038	0.6527	0.2207	0.192
Mof_H 	H 	0.5807	0.686	0.1772	0.211
Mof_C 	C 	0.6517	0.7094	0.1981	0.441
Mof_O 	O 	0.64997	0.65295	0.09769	-0.165
Mof_O 	O 	0.67312	0.58991	0.16639	-0.165
Mof_O 	O 	0.58849	0.58767	0.1329	-0.164
Mof_O 	O 	0.66369	0.73846	0.16229	-0.225
Mof_O 	O 	0.67312	0.71135	0.24112	-0.319
Mof_U 	U 	0.15518	0.7618	0.42807	0.015
Mof_P 	P 	0.13216	0.87585	0.3568	0.462
Mof_C 	C 	0.1114	0.8302	0.3109	-0.482
Mof_H 	H 	0.1038	0.8473	0.2793	0.192
Mof_H 	H 	0.0807	0.814	0.3228	0.21
Mof_C 	C 	0.1517	0.7906	0.3019	0.44
Mof_O 	O 	0.14997	0.84705	0.40231	-0.165
Mof_O 	O 	0.17312	0.91009	0.33361	-0.163
Mof_O 	O 	0.08849	0.91233	0.3671	-0.162
Mof_O 	O 	0.16369	0.76154	0.33771	-0.225
Mof_O 	O 	0.17312	0.78865	0.25888	-0.319
Mof_U 	U 	0.65518	0.2618	0.92807	0.019
Mof_P 	P 	0.63216	0.37585	0.8568	0.462
Mof_C 	C 	0.6114	0.3302	0.8109	-0.483
Mof_H 	H 	0.6038	0.3473	0.7793	0.192
Mof_H 	H 	0.5807	0.314	0.8228	0.212
Mof_C 	C 	0.6517	0.2906	0.8019	0.441
Mof_O 	O 	0.64997	0.34705	0.90231	-0.163
Mof_O 	O 	0.67312	0.41009	0.83361	-0.165
Mof_O 	O 	0.58849	0.41233	0.8671	-0.163
Mof_O 	O 	0.66369	0.26154	0.83771	-0.225
Mof_O 	O 	0.67312	0.28865	0.75888	-0.319
Mof_U 	U 	0.84482	0.7618	0.57193	0.016
Mof_P 	P 	0.86784	0.87585	0.6432	0.462
Mof_C 	C 	0.8886	0.8302	0.6891	-0.484
Mof_H 	H 	0.8962	0.8473	0.7207	0.195
Mof_H 	H 	0.9193	0.814	0.6772	0.213
Mof_C 	C 	0.8483	0.7906	0.6981	0.442
Mof_O 	O 	0.85003	0.84705	0.59769	-0.164
Mof_O 	O 	0.82688	0.91009	0.66639	-0.162
Mof_O 	O 	0.91151	0.91233	0.6329	-0.16
Mof_O 	O 	0.83631	0.76154	0.66229	-0.225
Mof_O 	O 	0.82688	0.78865	0.74112	-0.319
Mof_U 	U 	0.34482	0.2618	0.07193	0.015
Mof_P 	P 	0.36784	0.37585	0.1432	0.462
Mof_C 	C 	0.3886	0.3302	0.1891	-0.483
Mof_H 	H 	0.3962	0.3473	0.2207	0.192
Mof_H 	H 	0.4193	0.314	0.1772	0.211
Mof_C 	C 	0.3483	0.2906	0.1981	0.441
Mof_O 	O 	0.35003	0.34705	0.09769	-0.165
Mof_O 	O 	0.32688	0.41009	0.16639	-0.165
Mof_O 	O 	0.41151	0.41233	0.1329	-0.164
Mof_O 	O 	0.33631	0.26154	0.16229	-0.225
Mof_O 	O 	0.32688	0.28865	0.24112	-0.319
Mof_U 	U 	0.84482	0.2382	0.42807	0.016
Mof_P 	P 	0.86784	0.12415	0.3568	0.462
Mof_C 	C 	0.8886	0.1698	0.3109	-0.484
Mof_H 	H 	0.8962	0.1527	0.2793	0.193
Mof_H 	H 	0.9193	0.186	0.3228	0.213
Mof_C 	C 	0.8483	0.2094	0.3019	0.441
Mof_O 	O 	0.85003	0.15295	0.40231	-0.165
Mof_O 	O 	0.82688	0.08991	0.33361	-0.165
Mof_O 	O 	0.91151	0.08767	0.3671	-0.162
Mof_O 	O 	0.83631	0.23846	0.33771	-0.225
Mof_O 	O 	0.82688	0.21135	0.25888	-0.319
Mof_U 	U 	0.34482	0.7382	0.92807	0.019
Mof_P 	P 	0.36784	0.62415	0.8568	0.462
Mof_C 	C 	0.3886	0.6698	0.8109	-0.483
Mof_H 	H 	0.3962	0.6527	0.7793	0.192
Mof_H 	H 	0.4193	0.686	0.8228	0.212
Mof_C 	C 	0.3483	0.7094	0.8019	0.441
Mof_O 	O 	0.35003	0.65295	0.90231	-0.163
Mof_O 	O 	0.32688	0.58991	0.83361	-0.165
Mof_O 	O 	0.41151	0.58767	0.8671	-0.163
Mof_O 	O 	0.33631	0.73846	0.83771	-0.225
Mof_O 	O 	0.32688	0.71135	0.75888	-0.319
Mof_U 	U 	0.57193	0.15518	0.2382	0.015
Mof_P 	P 	0.6432	0.13216	0.12415	0.462
Mof_C 	C 	0.6891	0.1114	0.1698	-0.482
Mof_H 	H 	0.7207	0.1038	0.1527	0.191
Mof_H 	H 	0.6772	0.0807	0.186	0.21
Mof_C 	C 	0.6981	0.1517	0.2094	0.44
Mof_O 	O 	0.59769	0.14997	0.15295	-0.165
Mof_O 	O 	0.66639	0.17312	0.08991	-0.165
Mof_O 	O 	0.6329	0.08849	0.08767	-0.165
Mof_O 	O 	0.66229	0.16369	0.23846	-0.225
Mof_O 	O 	0.74112	0.17312	0.21135	-0.319
Mof_U 	U 	0.07193	0.65518	0.7382	0.015
Mof_P 	P 	0.1432	0.63216	0.62415	0.462
Mof_C 	C 	0.1891	0.6114	0.6698	-0.483
Mof_H 	H 	0.2207	0.6038	0.6527	0.192
Mof_H 	H 	0.1772	0.5807	0.686	0.211
Mof_C 	C 	0.1981	0.6517	0.7094	0.441
Mof_O 	O 	0.09769	0.64997	0.65295	-0.165
Mof_O 	O 	0.16639	0.67312	0.58991	-0.165
Mof_O 	O 	0.1329	0.58849	0.58767	-0.164
Mof_O 	O 	0.16229	0.66369	0.73846	-0.225
Mof_O 	O 	0.24112	0.67312	0.71135	-0.319
Mof_U 	U 	0.42807	0.15518	0.7618	0.015
Mof_P 	P 	0.3568	0.13216	0.87585	0.462
Mof_C 	C 	0.3109	0.1114	0.8302	-0.482
Mof_H 	H 	0.2793	0.1038	0.8473	0.192
Mof_H 	H 	0.3228	0.0807	0.814	0.21
Mof_C 	C 	0.3019	0.1517	0.7906	0.44
Mof_O 	O 	0.40231	0.14997	0.84705	-0.165
Mof_O 	O 	0.33361	0.17312	0.91009	-0.163
Mof_O 	O 	0.3671	0.08849	0.91233	-0.162
Mof_O 	O 	0.33771	0.16369	0.76154	-0.225
Mof_O 	O 	0.25888	0.17312	0.78865	-0.319
Mof_U 	U 	0.92807	0.65518	0.2618	0.019
Mof_P 	P 	0.8568	0.63216	0.37585	0.462
Mof_C 	C 	0.8109	0.6114	0.3302	-0.483
Mof_H 	H 	0.7793	0.6038	0.3473	0.192
Mof_H 	H 	0.8228	0.5807	0.314	0.212
Mof_C 	C 	0.8019	0.6517	0.2906	0.441
Mof_O 	O 	0.90231	0.64997	0.34705	-0.163
Mof_O 	O 	0.83361	0.67312	0.41009	-0.165
Mof_O 	O 	0.8671	0.58849	0.41233	-0.163
Mof_O 	O 	0.83771	0.66369	0.26154	-0.225
Mof_O 	O 	0.75888	0.67312	0.28865	-0.319
Mof_U 	U 	0.57193	0.84482	0.7618	0.016
Mof_P 	P 	0.6432	0.86784	0.87585	0.462
Mof_C 	C 	0.6891	0.8886	0.8302	-0.484
Mof_H 	H 	0.7207	0.8962	0.8473	0.195
Mof_H 	H 	0.6772	0.9193	0.814	0.213
Mof_C 	C 	0.6981	0.8483	0.7906	0.442
Mof_O 	O 	0.59769	0.85003	0.84705	-0.164
Mof_O 	O 	0.66639	0.82688	0.91009	-0.162
Mof_O 	O 	0.6329	0.91151	0.91233	-0.16
Mof_O 	O 	0.66229	0.83631	0.76154	-0.225
Mof_O 	O 	0.74112	0.82688	0.78865	-0.319
Mof_U 	U 	0.07193	0.34482	0.2618	0.015
Mof_P 	P 	0.1432	0.36784	0.37585	0.462
Mof_C 	C 	0.1891	0.3886	0.3302	-0.483
Mof_H 	H 	0.2207	0.3962	0.3473	0.192
Mof_H 	H 	0.1772	0.4193	0.314	0.211
Mof_C 	C 	0.1981	0.3483	0.2906	0.441
Mof_O 	O 	0.09769	0.35003	0.34705	-0.165
Mof_O 	O 	0.16639	0.32688	0.41009	-0.165
Mof_O 	O 	0.1329	0.41151	0.41233	-0.164
Mof_O 	O 	0.16229	0.33631	0.26154	-0.225
Mof_O 	O 	0.24112	0.32688	0.28865	-0.319
Mof_U 	U 	0.42807	0.84482	0.2382	0.016
Mof_P 	P 	0.3568	0.86784	0.12415	0.462
Mof_C 	C 	0.3109	0.8886	0.1698	-0.484
Mof_H 	H 	0.2793	0.8962	0.1527	0.193
Mof_H 	H 	0.3228	0.9193	0.186	0.213
Mof_C 	C 	0.3019	0.8483	0.2094	0.441
Mof_O 	O 	0.40231	0.85003	0.15295	-0.165
Mof_O 	O 	0.33361	0.82688	0.08991	-0.165
Mof_O 	O 	0.3671	0.91151	0.08767	-0.162
Mof_O 	O 	0.33771	0.83631	0.23846	-0.225
Mof_O 	O 	0.25888	0.82688	0.21135	-0.319
Mof_U 	U 	0.92807	0.34482	0.7382	0.019
Mof_P 	P 	0.8568	0.36784	0.62415	0.462
Mof_C 	C 	0.8109	0.3886	0.6698	-0.483
Mof_H 	H 	0.7793	0.3962	0.6527	0.192
Mof_H 	H 	0.8228	0.4193	0.686	0.212
Mof_C 	C 	0.8019	0.3483	0.7094	0.441
Mof_O 	O 	0.90231	0.35003	0.65295	-0.163
Mof_O 	O 	0.83361	0.32688	0.58991	-0.165
Mof_O 	O 	0.8671	0.41151	0.58767	-0.163
Mof_O 	O 	0.83771	0.33631	0.73846	-0.225
Mof_O 	O 	0.75888	0.32688	0.71135	-0.319
Mof_U 	U 	0.7618	0.42807	0.84482	0.016
Mof_P 	P 	0.87585	0.3568	0.86784	0.462
Mof_C 	C 	0.8302	0.3109	0.8886	-0.484
Mof_H 	H 	0.8473	0.2793	0.8962	0.194
Mof_H 	H 	0.814	0.3228	0.9193	0.213
Mof_C 	C 	0.7906	0.3019	0.8483	0.441
Mof_O 	O 	0.84705	0.40231	0.85003	-0.164
Mof_O 	O 	0.91009	0.33361	0.82688	-0.163
Mof_O 	O 	0.91233	0.3671	0.91151	-0.16
Mof_O 	O 	0.76154	0.33771	0.83631	-0.225
Mof_O 	O 	0.78865	0.25888	0.82688	-0.319
Mof_U 	U 	0.2618	0.92807	0.34482	0.019
Mof_P 	P 	0.37585	0.8568	0.36784	0.462
Mof_C 	C 	0.3302	0.8109	0.3886	-0.483
Mof_H 	H 	0.3473	0.7793	0.3962	0.192
Mof_H 	H 	0.314	0.8228	0.4193	0.212
Mof_C 	C 	0.2906	0.8019	0.3483	0.441
Mof_O 	O 	0.34705	0.90231	0.35003	-0.163
Mof_O 	O 	0.41009	0.83361	0.32688	-0.165
Mof_O 	O 	0.41233	0.8671	0.41151	-0.163
Mof_O 	O 	0.26154	0.83771	0.33631	-0.225
Mof_O 	O 	0.28865	0.75888	0.32688	-0.319
Mof_U 	U 	0.2382	0.57193	0.84482	0.016
Mof_P 	P 	0.12415	0.6432	0.86784	0.462
Mof_C 	C 	0.1698	0.6891	0.8886	-0.484
Mof_H 	H 	0.1527	0.7207	0.8962	0.194
Mof_H 	H 	0.186	0.6772	0.9193	0.213
Mof_C 	C 	0.2094	0.6981	0.8483	0.441
Mof_O 	O 	0.15295	0.59769	0.85003	-0.165
Mof_O 	O 	0.08991	0.66639	0.82688	-0.165
Mof_O 	O 	0.08767	0.6329	0.91151	-0.162
Mof_O 	O 	0.23846	0.66229	0.83631	-0.225
Mof_O 	O 	0.21135	0.74112	0.82688	-0.319
Mof_U 	U 	0.7382	0.07193	0.34482	0.015
Mof_P 	P 	0.62415	0.1432	0.36784	0.462
Mof_C 	C 	0.6698	0.1891	0.3886	-0.483
Mof_H 	H 	0.6527	0.2207	0.3962	0.192
Mof_H 	H 	0.686	0.1772	0.4193	0.211
Mof_C 	C 	0.7094	0.1981	0.3483	0.441
Mof_O 	O 	0.65295	0.09769	0.35003	-0.165
Mof_O 	O 	0.58991	0.16639	0.32688	-0.165
Mof_O 	O 	0.58767	0.1329	0.41151	-0.164
Mof_O 	O 	0.73846	0.16229	0.33631	-0.225
Mof_O 	O 	0.71135	0.24112	0.32688	-0.319
Mof_U 	U 	0.2382	0.42807	0.15518	0.015
Mof_P 	P 	0.12415	0.3568	0.13216	0.462
Mof_C 	C 	0.1698	0.3109	0.1114	-0.482
Mof_H 	H 	0.1527	0.2793	0.1038	0.191
Mof_H 	H 	0.186	0.3228	0.0807	0.21
Mof_C 	C 	0.2094	0.3019	0.1517	0.44
Mof_O 	O 	0.15295	0.40231	0.14997	-0.165
Mof_O 	O 	0.08991	0.33361	0.17312	-0.165
Mof_O 	O 	0.08767	0.3671	0.08849	-0.165
Mof_O 	O 	0.23846	0.33771	0.16369	-0.225
Mof_O 	O 	0.21135	0.25888	0.17312	-0.319
Mof_U 	U 	0.7382	0.92807	0.65518	0.019
Mof_P 	P 	0.62415	0.8568	0.63216	0.462
Mof_C 	C 	0.6698	0.8109	0.6114	-0.483
Mof_H 	H 	0.6527	0.7793	0.6038	0.192
Mof_H 	H 	0.686	0.8228	0.5807	0.212
Mof_C 	C 	0.7094	0.8019	0.6517	0.441
Mof_O 	O 	0.65295	0.90231	0.64997	-0.163
Mof_O 	O 	0.58991	0.83361	0.67312	-0.165
Mof_O 	O 	0.58767	0.8671	0.58849	-0.163
Mof_O 	O 	0.73846	0.83771	0.66369	-0.225
Mof_O 	O 	0.71135	0.75888	0.67312	-0.319
Mof_U 	U 	0.7618	0.57193	0.15518	0.015
Mof_P 	P 	0.87585	0.6432	0.13216	0.462
Mof_C 	C 	0.8302	0.6891	0.1114	-0.483
Mof_H 	H 	0.8473	0.7207	0.1038	0.192
Mof_H 	H 	0.814	0.6772	0.0807	0.21
Mof_C 	C 	0.7906	0.6981	0.1517	0.44
Mof_O 	O 	0.84705	0.59769	0.14997	-0.165
Mof_O 	O 	0.91009	0.66639	0.17312	-0.163
Mof_O 	O 	0.91233	0.6329	0.08849	-0.162
Mof_O 	O 	0.76154	0.66229	0.16369	-0.225
Mof_O 	O 	0.78865	0.74112	0.17312	-0.319
Mof_U 	U 	0.2618	0.07193	0.65518	0.015
Mof_P 	P 	0.37585	0.1432	0.63216	0.462
Mof_C 	C 	0.3302	0.1891	0.6114	-0.483
Mof_H 	H 	0.3473	0.2207	0.6038	0.192
Mof_H 	H 	0.314	0.1772	0.5807	0.211
Mof_C 	C 	0.2906	0.1981	0.6517	0.441
Mof_O 	O 	0.34705	0.09769	0.64997	-0.165
Mof_O 	O 	0.41009	0.16639	0.67312	-0.165
Mof_O 	O 	0.41233	0.1329	0.58849	-0.164
Mof_O 	O 	0.26154	0.16229	0.66369	-0.225
Mof_O 	O 	0.28865	0.24112	0.67312	-0.319
Mof_U 	U 	0.84482	0.7618	0.42807	0.016
Mof_P 	P 	0.86784	0.87585	0.3568	0.462
Mof_C 	C 	0.8886	0.8302	0.3109	-0.484
Mof_H 	H 	0.8962	0.8473	0.2793	0.194
Mof_H 	H 	0.9193	0.814	0.3228	0.213
Mof_C 	C 	0.8483	0.7906	0.3019	0.441
Mof_O 	O 	0.85003	0.84705	0.40231	-0.164
Mof_O 	O 	0.82688	0.91009	0.33361	-0.163
Mof_O 	O 	0.91151	0.91233	0.3671	-0.16
Mof_O 	O 	0.83631	0.76154	0.33771	-0.225
Mof_O 	O 	0.82688	0.78865	0.25888	-0.319
Mof_U 	U 	0.34482	0.2618	0.92807	0.019
Mof_P 	P 	0.36784	0.37585	0.8568	0.462
Mof_C 	C 	0.3886	0.3302	0.8109	-0.483
Mof_H 	H 	0.3962	0.3473	0.7793	0.192
Mof_H 	H 	0.4193	0.314	0.8228	0.212
Mof_C 	C 	0.3483	0.2906	0.8019	0.441
Mof_O 	O 	0.35003	0.34705	0.90231	-0.163
Mof_O 	O 	0.32688	0.41009	0.83361	-0.165
Mof_O 	O 	0.41151	0.41233	0.8671	-0.163
Mof_O 	O 	0.33631	0.26154	0.83771	-0.225
Mof_O 	O 	0.32688	0.28865	0.75888	-0.319
Mof_U 	U 	0.84482	0.2382	0.57193	0.016
Mof_P 	P 	0.86784	0.12415	0.6432	0.462
Mof_C 	C 	0.8886	0.1698	0.6891	-0.484
Mof_H 	H 	0.8962	0.1527	0.7207	0.194
Mof_H 	H 	0.9193	0.186	0.6772	0.213
Mof_C 	C 	0.8483	0.2094	0.6981	0.441
Mof_O 	O 	0.85003	0.15295	0.59769	-0.165
Mof_O 	O 	0.82688	0.08991	0.66639	-0.165
Mof_O 	O 	0.91151	0.08767	0.6329	-0.162
Mof_O 	O 	0.83631	0.23846	0.66229	-0.225
Mof_O 	O 	0.82688	0.21135	0.74112	-0.319
Mof_U 	U 	0.34482	0.7382	0.07193	0.015
Mof_P 	P 	0.36784	0.62415	0.1432	0.462
Mof_C 	C 	0.3886	0.6698	0.1891	-0.483
Mof_H 	H 	0.3962	0.6527	0.2207	0.192
Mof_H 	H 	0.4193	0.686	0.1772	0.211
Mof_C 	C 	0.3483	0.7094	0.1981	0.441
Mof_O 	O 	0.35003	0.65295	0.09769	-0.165
Mof_O 	O 	0.32688	0.58991	0.16639	-0.165
Mof_O 	O 	0.41151	0.58767	0.1329	-0.164
Mof_O 	O 	0.33631	0.73846	0.16229	-0.225
Mof_O 	O 	0.32688	0.71135	0.24112	-0.319
Mof_U 	U 	0.15518	0.2382	0.42807	0.015
Mof_P 	P 	0.13216	0.12415	0.3568	0.462
Mof_C 	C 	0.1114	0.1698	0.3109	-0.482
Mof_H 	H 	0.1038	0.1527	0.2793	0.191
Mof_H 	H 	0.0807	0.186	0.3228	0.21
Mof_C 	C 	0.1517	0.2094	0.3019	0.44
Mof_O 	O 	0.14997	0.15295	0.40231	-0.165
Mof_O 	O 	0.17312	0.08991	0.33361	-0.165
Mof_O 	O 	0.08849	0.08767	0.3671	-0.165
Mof_O 	O 	0.16369	0.23846	0.33771	-0.225
Mof_O 	O 	0.17312	0.21135	0.25888	-0.319
Mof_U 	U 	0.65518	0.7382	0.92807	0.019
Mof_P 	P 	0.63216	0.62415	0.8568	0.462
Mof_C 	C 	0.6114	0.6698	0.8109	-0.483
Mof_H 	H 	0.6038	0.6527	0.7793	0.192
Mof_H 	H 	0.5807	0.686	0.8228	0.212
Mof_C 	C 	0.6517	0.7094	0.8019	0.441
Mof_O 	O 	0.64997	0.65295	0.90231	-0.163
Mof_O 	O 	0.67312	0.58991	0.83361	-0.165
Mof_O 	O 	0.58849	0.58767	0.8671	-0.163
Mof_O 	O 	0.66369	0.73846	0.83771	-0.225
Mof_O 	O 	0.67312	0.71135	0.75888	-0.319
Mof_U 	U 	0.15518	0.7618	0.57193	0.015
Mof_P 	P 	0.13216	0.87585	0.6432	0.462
Mof_C 	C 	0.1114	0.8302	0.6891	-0.483
Mof_H 	H 	0.1038	0.8473	0.7207	0.192
Mof_H 	H 	0.0807	0.814	0.6772	0.21
Mof_C 	C 	0.1517	0.7906	0.6981	0.44
Mof_O 	O 	0.14997	0.84705	0.59769	-0.165
Mof_O 	O 	0.17312	0.91009	0.66639	-0.163
Mof_O 	O 	0.08849	0.91233	0.6329	-0.162
Mof_O 	O 	0.16369	0.76154	0.66229	-0.225
Mof_O 	O 	0.17312	0.78865	0.74112	-0.319
Mof_U 	U 	0.65518	0.2618	0.07193	0.015
Mof_P 	P 	0.63216	0.37585	0.1432	0.462
Mof_C 	C 	0.6114	0.3302	0.1891	-0.483
Mof_H 	H 	0.6038	0.3473	0.2207	0.192
Mof_H 	H 	0.5807	0.314	0.1772	0.211
Mof_C 	C 	0.6517	0.2906	0.1981	0.441
Mof_O 	O 	0.64997	0.34705	0.09769	-0.165
Mof_O 	O 	0.67312	0.41009	0.16639	-0.165
Mof_O 	O 	0.58849	0.41233	0.1329	-0.164
Mof_O 	O 	0.66369	0.26154	0.16229	-0.225
Mof_O 	O 	0.67312	0.28865	0.24112	-0.319
Mof_U 	U 	0.42807	0.84482	0.7618	0.016
Mof_P 	P 	0.3568	0.86784	0.87585	0.462
Mof_C 	C 	0.3109	0.8886	0.8302	-0.484
Mof_H 	H 	0.2793	0.8962	0.8473	0.194
Mof_H 	H 	0.3228	0.9193	0.814	0.213
Mof_C 	C 	0.3019	0.8483	0.7906	0.441
Mof_O 	O 	0.40231	0.85003	0.84705	-0.164
Mof_O 	O 	0.33361	0.82688	0.91009	-0.163
Mof_O 	O 	0.3671	0.91151	0.91233	-0.16
Mof_O 	O 	0.33771	0.83631	0.76154	-0.225
Mof_O 	O 	0.25888	0.82688	0.78865	-0.319
Mof_U 	U 	0.92807	0.34482	0.2618	0.019
Mof_P 	P 	0.8568	0.36784	0.37585	0.462
Mof_C 	C 	0.8109	0.3886	0.3302	-0.483
Mof_H 	H 	0.7793	0.3962	0.3473	0.192
Mof_H 	H 	0.8228	0.4193	0.314	0.212
Mof_C 	C 	0.8019	0.3483	0.2906	0.441
Mof_O 	O 	0.90231	0.35003	0.34705	-0.163
Mof_O 	O 	0.83361	0.32688	0.41009	-0.165
Mof_O 	O 	0.8671	0.41151	0.41233	-0.163
Mof_O 	O 	0.83771	0.33631	0.26154	-0.225
Mof_O 	O 	0.75888	0.32688	0.28865	-0.319
Mof_U 	U 	0.57193	0.84482	0.2382	0.016
Mof_P 	P 	0.6432	0.86784	0.12415	0.462
Mof_C 	C 	0.6891	0.8886	0.1698	-0.484
Mof_H 	H 	0.7207	0.8962	0.1527	0.194
Mof_H 	H 	0.6772	0.9193	0.186	0.213
Mof_C 	C 	0.6981	0.8483	0.2094	0.441
Mof_O 	O 	0.59769	0.85003	0.15295	-0.165
Mof_O 	O 	0.66639	0.82688	0.08991	-0.165
Mof_O 	O 	0.6329	0.91151	0.08767	-0.162
Mof_O 	O 	0.66229	0.83631	0.23846	-0.225
Mof_O 	O 	0.74112	0.82688	0.21135	-0.319
Mof_U 	U 	0.07193	0.34482	0.7382	0.015
Mof_P 	P 	0.1432	0.36784	0.62415	0.462
Mof_C 	C 	0.1891	0.3886	0.6698	-0.483
Mof_H 	H 	0.2207	0.3962	0.6527	0.192
Mof_H 	H 	0.1772	0.4193	0.686	0.211
Mof_C 	C 	0.1981	0.3483	0.7094	0.441
Mof_O 	O 	0.09769	0.35003	0.65295	-0.165
Mof_O 	O 	0.16639	0.32688	0.58991	-0.165
Mof_O 	O 	0.1329	0.41151	0.58767	-0.164
Mof_O 	O 	0.16229	0.33631	0.73846	-0.225
Mof_O 	O 	0.24112	0.32688	0.71135	-0.319
Mof_U 	U 	0.42807	0.15518	0.2382	0.015
Mof_P 	P 	0.3568	0.13216	0.12415	0.462
Mof_C 	C 	0.3109	0.1114	0.1698	-0.482
Mof_H 	H 	0.2793	0.1038	0.1527	0.191
Mof_H 	H 	0.3228	0.0807	0.186	0.21
Mof_C 	C 	0.3019	0.1517	0.2094	0.44
Mof_O 	O 	0.40231	0.14997	0.15295	-0.165
Mof_O 	O 	0.33361	0.17312	0.08991	-0.165
Mof_O 	O 	0.3671	0.08849	0.08767	-0.165
Mof_O 	O 	0.33771	0.16369	0.23846	-0.225
Mof_O 	O 	0.25888	0.17312	0.21135	-0.319
Mof_U 	U 	0.92807	0.65518	0.7382	0.019
Mof_P 	P 	0.8568	0.63216	0.62415	0.462
Mof_C 	C 	0.8109	0.6114	0.6698	-0.483
Mof_H 	H 	0.7793	0.6038	0.6527	0.192
Mof_H 	H 	0.8228	0.5807	0.686	0.212
Mof_C 	C 	0.8019	0.6517	0.7094	0.441
Mof_O 	O 	0.90231	0.64997	0.65295	-0.163
Mof_O 	O 	0.83361	0.67312	0.58991	-0.165
Mof_O 	O 	0.8671	0.58849	0.58767	-0.163
Mof_O 	O 	0.83771	0.66369	0.73846	-0.225
Mof_O 	O 	0.75888	0.67312	0.71135	-0.319
Mof_U 	U 	0.57193	0.15518	0.7618	0.015
Mof_P 	P 	0.6432	0.13216	0.87585	0.462
Mof_C 	C 	0.6891	0.1114	0.8302	-0.483
Mof_H 	H 	0.7207	0.1038	0.8473	0.192
Mof_H 	H 	0.6772	0.0807	0.814	0.21
Mof_C 	C 	0.6981	0.1517	0.7906	0.44
Mof_O 	O 	0.59769	0.14997	0.84705	-0.165
Mof_O 	O 	0.66639	0.17312	0.91009	-0.163
Mof_O 	O 	0.6329	0.08849	0.91233	-0.162
Mof_O 	O 	0.66229	0.16369	0.76154	-0.225
Mof_O 	O 	0.74112	0.17312	0.78865	-0.319
Mof_U 	U 	0.07193	0.65518	0.2618	0.015
Mof_P 	P 	0.1432	0.63216	0.37585	0.462
Mof_C 	C 	0.1891	0.6114	0.3302	-0.483
Mof_H 	H 	0.2207	0.6038	0.3473	0.192
Mof_H 	H 	0.1772	0.5807	0.314	0.211
Mof_C 	C 	0.1981	0.6517	0.2906	0.441
Mof_O 	O 	0.09769	0.64997	0.34705	-0.165
Mof_O 	O 	0.16639	0.67312	0.41009	-0.165
Mof_O 	O 	0.1329	0.58849	0.41233	-0.164
Mof_O 	O 	0.16229	0.66369	0.26154	-0.225
Mof_O 	O 	0.24112	0.67312	0.28865	-0.319
Mof_U 	U 	0.06922	0.63677	-0	0.001
Mof_U 	U 	0.56922	0.13677	0.5	0.005
Mof_U 	U 	0.93078	0.36323	-0	0.004
Mof_U 	U 	0.43078	0.86323	0.5	0.006
Mof_U 	U 	0.93078	0.63677	-0	0.004
Mof_U 	U 	0.43078	0.13677	0.5	0.005
Mof_U 	U 	0.06922	0.36323	-0	0.001
Mof_U 	U 	0.56922	0.86323	0.5	0.006
Mof_U 	U 	2.38751e-33	0.06922	0.63677	0.001
Mof_U 	U 	0.5	0.56922	0.13677	0.005
Mof_U 	U 	-4.12342e-33	0.93078	0.36323	0.004
Mof_U 	U 	0.5	0.43078	0.86323	0.006
Mof_U 	U 	7.87282e-33	0.93078	0.63677	0.004
Mof_U 	U 	0.5	0.43078	0.13677	0.005
Mof_U 	U 	1.36189e-33	0.06922	0.36323	0.001
Mof_U 	U 	0.5	0.56922	0.86323	0.006
Mof_U 	U 	0.63677	6.85664e-34	0.06922	0.001
Mof_U 	U 	0.13677	0.5	0.56922	0.005
Mof_U 	U 	0.36323	0	0.93078	0.004
Mof_U 	U 	0.86323	0.5	0.43078	0.006
Mof_U 	U 	0.63677	0	0.93078	0.004
Mof_U 	U 	0.13677	0.5	0.43078	0.005
Mof_U 	U 	0.36323	6.85664e-34	0.06922	0.001
Mof_U 	U 	0.86323	0.5	0.56922	0.006
Mof_U 	U 	-6.36232e-33	0.65332	0.13184	0.016
Mof_O 	O 	-3.59807e-33	0.5843	0.1376	-0.1
Mof_O 	O 	1.45385e-32	0.6519	0.9516	-0.038
Mof_O 	O 	-1.93803e-33	0.6552	0.2146	-0.044
Mof_U 	U 	0.5	0.15332	0.63184	0.018
Mof_O 	O 	0.5	0.0843	0.6376	-0.098
Mof_O 	O 	0.5	0.1519	0.4516	-0.039
Mof_O 	O 	0.5	0.1552	0.7146	-0.042
Mof_U 	U 	-8.77007e-34	0.34668	0.13184	0.016
Mof_O 	O 	1.88725e-33	0.4157	0.1376	-0.1
Mof_O 	O 	-7.40269e-33	0.3481	0.9516	-0.039
Mof_O 	O 	-7.42334e-33	0.3448	0.2146	-0.044
Mof_U 	U 	0.5	0.84668	0.63184	0.018
Mof_O 	O 	0.5	0.9157	0.6376	-0.094
Mof_O 	O 	0.5	0.8481	0.4516	-0.039
Mof_O 	O 	0.5	0.8448	0.7146	-0.041
Mof_U 	U 	3.25508e-33	0.65332	0.86816	0.016
Mof_O 	O 	-7.73714e-33	0.5843	0.8624	-0.099
Mof_O 	O 	-1.61361e-34	0.6519	0.0484	-0.044
Mof_O 	O 	2.94478e-33	0.6552	0.7854	-0.044
Mof_U 	U 	0.5	0.15332	0.36816	0.018
Mof_O 	O 	0.5	0.0843	0.3624	-0.098
Mof_O 	O 	0.5	0.1519	0.5484	-0.039
Mof_O 	O 	0.5	0.1552	0.2854	-0.042
Mof_U 	U 	-7.71554e-33	0.34668	0.86816	0.016
Mof_O 	O 	3.23348e-33	0.4157	0.8624	-0.099
Mof_O 	O 	-1.61361e-34	0.3481	0.0484	-0.044
Mof_O 	O 	-8.02584e-33	0.3448	0.7854	-0.044
Mof_U 	U 	0.5	0.84668	0.36816	0.018
Mof_O 	O 	0.5	0.9157	0.3624	-0.094
Mof_O 	O 	0.5	0.8481	0.5484	-0.039
Mof_O 	O 	0.5	0.8448	0.2854	-0.041
Mof_U 	U 	0.13184	0	0.65332	0.016
Mof_O 	O 	0.1376	0	0.5843	-0.1
Mof_O 	O 	0.9516	0	0.6519	-0.038
Mof_O 	O 	0.2146	-5.48531e-33	0.6552	-0.044
Mof_U 	U 	0.63184	0.5	0.15332	0.018
Mof_O 	O 	0.6376	0.5	0.0843	-0.098
Mof_O 	O 	0.4516	0.5	0.1519	-0.039
Mof_O 	O 	0.7146	0.5	0.1552	-0.042
Mof_U 	U 	0.13184	0	0.34668	0.016
Mof_O 	O 	0.1376	0	0.4157	-0.1
Mof_O 	O 	0.9516	0	0.3481	-0.039
Mof_O 	O 	0.2146	-2.74266e-33	0.3448	-0.044
Mof_U 	U 	0.63184	0.5	0.84668	0.018
Mof_O 	O 	0.6376	0.5	0.9157	-0.094
Mof_O 	O 	0.4516	0.5	0.8481	-0.039
Mof_O 	O 	0.7146	0.5	0.8448	-0.041
Mof_U 	U 	0.86816	0	0.65332	0.016
Mof_O 	O 	0.8624	0	0.5843	-0.099
Mof_O 	O 	0.0484	0	0.6519	-0.044
Mof_O 	O 	0.7854	-5.48531e-33	0.6552	-0.044
Mof_U 	U 	0.36816	0.5	0.15332	0.018
Mof_O 	O 	0.3624	0.5	0.0843	-0.098
Mof_O 	O 	0.5484	0.5	0.1519	-0.039
Mof_O 	O 	0.2854	0.5	0.1552	-0.042
Mof_U 	U 	0.86816	0	0.34668	0.016
Mof_O 	O 	0.8624	0	0.4157	-0.099
Mof_O 	O 	0.0484	0	0.3481	-0.044
Mof_O 	O 	0.7854	-2.74266e-33	0.3448	-0.044
Mof_U 	U 	0.36816	0.5	0.84668	0.018
Mof_O 	O 	0.3624	0.5	0.9157	-0.094
Mof_O 	O 	0.5484	0.5	0.8481	-0.039
Mof_O 	O 	0.2854	0.5	0.8448	-0.041
Mof_U 	U 	0.65332	0.13184	-0	0.016
Mof_O 	O 	0.5843	0.1376	-0	-0.1
Mof_O 	O 	0.6519	0.9516	-0	-0.038
Mof_O 	O 	0.6552	0.2146	-0	-0.044
Mof_U 	U 	0.15332	0.63184	0.5	0.018
Mof_O 	O 	0.0843	0.6376	0.5	-0.098
Mof_O 	O 	0.1519	0.4516	0.5	-0.039
Mof_O 	O 	0.1552	0.7146	0.5	-0.042
Mof_U 	U 	0.34668	0.13184	-0	0.016
Mof_O 	O 	0.4157	0.1376	-0	-0.1
Mof_O 	O 	0.3481	0.9516	-0	-0.039
Mof_O 	O 	0.3448	0.2146	-0	-0.044
Mof_U 	U 	0.84668	0.63184	0.5	0.018
Mof_O 	O 	0.9157	0.6376	0.5	-0.094
Mof_O 	O 	0.8481	0.4516	0.5	-0.039
Mof_O 	O 	0.8448	0.7146	0.5	-0.041
Mof_U 	U 	0.65332	0.86816	-0	0.016
Mof_O 	O 	0.5843	0.8624	-0	-0.099
Mof_O 	O 	0.6519	0.0484	-0	-0.044
Mof_O 	O 	0.6552	0.7854	-0	-0.044
Mof_U 	U 	0.15332	0.36816	0.5	0.018
Mof_O 	O 	0.0843	0.3624	0.5	-0.098
Mof_O 	O 	0.1519	0.5484	0.5	-0.039
Mof_O 	O 	0.1552	0.2854	0.5	-0.042
Mof_U 	U 	0.34668	0.86816	-0	0.016
Mof_O 	O 	0.4157	0.8624	-0	-0.099
Mof_O 	O 	0.3481	0.0484	-0	-0.044
Mof_O 	O 	0.3448	0.7854	-0	-0.044
Mof_U 	U 	0.84668	0.36816	0.5	0.018
Mof_O 	O 	0.9157	0.3624	0.5	-0.094
Mof_O 	O 	0.8481	0.5484	0.5	-0.039
Mof_O 	O 	0.8448	0.2854	0.5	-0.041
Mof_Cd	Cd	-8.31902e-34	0.5	0.14387	0.484
Mof_Cd	Cd	0.5	5.48531e-33	0.64387	0.484
Mof_Cd	Cd	-7.76065e-33	0.5	0.85613	0.484
Mof_Cd	Cd	0.5	2.74266e-33	0.35613	0.484
Mof_Cd	Cd	0.14387	0	0.5	0.484
Mof_Cd	Cd	0.64387	0.5	-0	0.484
Mof_Cd	Cd	0.85613	0	0.5	0.484
Mof_Cd	Cd	0.35613	0.5	-0	0.484
Mof_Cd	Cd	0.5	0.14387	-0	0.484
Mof_Cd	Cd	1.8747e-33	0.64387	0.5	0.484
Mof_Cd	Cd	0.5	0.85613	-0	0.484
Mof_Cd	Cd	7.36001e-33	0.35613	0.5	0.484
Mof_Cd	Cd	0.17908	0.82092	0.17908	0.39
Mof_Cd	Cd	0.67908	0.32092	0.67908	0.391
Mof_Cd	Cd	0.82092	0.17908	0.17908	0.39
Mof_Cd	Cd	0.32092	0.67908	0.67908	0.391
Mof_Cd	Cd	0.82092	0.82092	0.82092	0.394
Mof_Cd	Cd	0.32092	0.32092	0.32092	0.391
Mof_Cd	Cd	0.17908	0.17908	0.82092	0.39
Mof_Cd	Cd	0.67908	0.67908	0.32092	0.391
Mof_Cd	Cd	0.82092	0.17908	0.82092	0.392
Mof_Cd	Cd	0.32092	0.67908	0.32092	0.391
Mof_Cd	Cd	0.17908	0.82092	0.82092	0.392
Mof_Cd	Cd	0.67908	0.32092	0.32092	0.391
Mof_Cd	Cd	0.17908	0.17908	0.17908	0.388
Mof_Cd	Cd	0.67908	0.67908	0.67908	0.391
Mof_Cd	Cd	0.82092	0.82092	0.17908	0.392
Mof_Cd	Cd	0.32092	0.32092	0.67908	0.391
Mof_Cd	Cd	0.25	0.75	0.25	0.555
Mof_Cd	Cd	0.75	0.25	0.25	0.555
Mof_Cd	Cd	0.75	0.75	0.75	0.555
Mof_Cd	Cd	0.25	0.25	0.75	0.555
Mof_Cd	Cd	0.25	0.75	0.75	0.555
Mof_Cd	Cd	0.75	0.75	0.25	0.555
Mof_Cd	Cd	0.75	0.25	0.75	0.555
Mof_Cd	Cd	0.25	0.25	0.25	0.555
Mof_O 	O 	0.1878	0.5	0.1435	-0.039
Mof_O 	O 	0.9483	0.5	0.0741	-0.036
Mof_O 	O 	0.0726	0.5	0.905	-0.058
Mof_O 	O 	0.6878	5.48531e-33	0.6435	-0.042
Mof_O 	O 	0.4483	5.48531e-33	0.5741	-0.039
Mof_O 	O 	0.5726	0	0.405	-0.06
Mof_O 	O 	0.8122	0.5	0.1435	-0.039
Mof_O 	O 	0.0517	0.5	0.0741	-0.042
Mof_O 	O 	0.9274	0.5	0.905	-0.058
Mof_O 	O 	0.3122	5.48531e-33	0.6435	-0.042
Mof_O 	O 	0.5517	5.48531e-33	0.5741	-0.039
Mof_O 	O 	0.4274	0	0.405	-0.06
Mof_O 	O 	0.8122	0.5	0.8565	-0.037
Mof_O 	O 	0.0517	0.5	0.9259	-0.038
Mof_O 	O 	0.9274	0.5	0.095	-0.058
Mof_O 	O 	0.3122	0	0.3565	-0.042
Mof_O 	O 	0.5517	-5.48531e-33	0.4259	-0.039
Mof_O 	O 	0.4274	0	0.595	-0.06
Mof_O 	O 	0.1878	0.5	0.8565	-0.038
Mof_O 	O 	0.9483	0.5	0.9259	-0.032
Mof_O 	O 	0.0726	0.5	0.095	-0.057
Mof_O 	O 	0.6878	0	0.3565	-0.042
Mof_O 	O 	0.4483	-5.48531e-33	0.4259	-0.039
Mof_O 	O 	0.5726	0	0.595	-0.06
Mof_O 	O 	0.1435	0.1878	0.5	-0.039
Mof_O 	O 	0.0741	0.9483	0.5	-0.036
Mof_O 	O 	0.905	0.0726	0.5	-0.058
Mof_O 	O 	0.6435	0.6878	-0	-0.042
Mof_O 	O 	0.5741	0.4483	-0	-0.039
Mof_O 	O 	0.405	0.5726	-0	-0.06
Mof_O 	O 	0.1435	0.8122	0.5	-0.039
Mof_O 	O 	0.0741	0.0517	0.5	-0.042
Mof_O 	O 	0.905	0.9274	0.5	-0.058
Mof_O 	O 	0.6435	0.3122	-0	-0.042
Mof_O 	O 	0.5741	0.5517	-0	-0.039
Mof_O 	O 	0.405	0.4274	-0	-0.06
Mof_O 	O 	0.8565	0.8122	0.5	-0.037
Mof_O 	O 	0.9259	0.0517	0.5	-0.038
Mof_O 	O 	0.095	0.9274	0.5	-0.058
Mof_O 	O 	0.3565	0.3122	-0	-0.042
Mof_O 	O 	0.4259	0.5517	-0	-0.039
Mof_O 	O 	0.595	0.4274	-0	-0.06
Mof_O 	O 	0.8565	0.1878	0.5	-0.038
Mof_O 	O 	0.9259	0.9483	0.5	-0.032
Mof_O 	O 	0.095	0.0726	0.5	-0.057
Mof_O 	O 	0.3565	0.6878	-0	-0.042
Mof_O 	O 	0.4259	0.4483	-0	-0.039
Mof_O 	O 	0.595	0.5726	-0	-0.06
Mof_O 	O 	0.5	0.1435	0.1878	-0.039
Mof_O 	O 	0.5	0.0741	0.9483	-0.036
Mof_O 	O 	0.5	0.905	0.0726	-0.058
Mof_O 	O 	2.57884e-33	0.6435	0.6878	-0.042
Mof_O 	O 	1.68086e-33	0.5741	0.4483	-0.039
Mof_O 	O 	2.14691e-33	0.405	0.5726	-0.06
Mof_O 	O 	0.5	0.1435	0.8122	-0.039
Mof_O 	O 	0.5	0.0741	0.0517	-0.042
Mof_O 	O 	0.5	0.905	0.9274	-0.058
Mof_O 	O 	6.65587e-33	0.6435	0.3122	-0.042
Mof_O 	O 	-8.90208e-33	0.5741	0.5517	-0.039
Mof_O 	O 	1.60249e-33	0.405	0.4274	-0.06
Mof_O 	O 	0.5	0.8565	0.8122	-0.037
Mof_O 	O 	0.5	0.9259	0.0517	-0.038
Mof_O 	O 	0.5	0.095	0.9274	-0.058
Mof_O 	O 	1.17056e-33	0.3565	0.3122	-0.042
Mof_O 	O 	2.06854e-33	0.4259	0.5517	-0.039
Mof_O 	O 	1.60249e-33	0.595	0.4274	-0.06
Mof_O 	O 	0.5	0.8565	0.1878	-0.038
Mof_O 	O 	0.5	0.9259	0.9483	-0.032
Mof_O 	O 	0.5	0.095	0.0726	-0.057
Mof_O 	O 	2.57884e-33	0.3565	0.6878	-0.042
Mof_O 	O 	1.68086e-33	0.4259	0.4483	-0.039
Mof_O 	O 	-3.3384e-33	0.595	0.5726	-0.06
_end
