data_functionalizedCrystal
_audit_creation_method	'EQeq! by Chris Wilmer'
_symmetry_space_group_name_H-M	'P1'
_symmetry_Int_Tables_number	1
_symmetry_cell_setting	triclinic
loop_
_symmetry_equiv_pos_as_xyz
  x,y,z
_cell_length_a	18.6843
_cell_length_b	18.6843
_cell_length_c	38.6052
_cell_angle_alpha	90
_cell_angle_beta	90
_cell_angle_gamma	120
loop_
_atom_site_label
_atom_site_type_symbol
_atom_site_fract_x
_atom_site_fract_y
_atom_site_fract_z
_atom_site_charge
Mof_O 	O 	0.9619	0.1849	0.16312	-0.405
Mof_O 	O 	0.92264	0.22492	0.21064	-0.408
Mof_C 	C 	0.9731	0.2139	0.19338	0.351
Mof_C 	C 	0.053	0.2345	0.21053	-0.073
Mof_C 	C 	0.068	0.2645	0.24441	-0.047
Mof_H 	H 	0.03	0.2748	0.2556	0.063
Mof_C 	C 	0.0974	0.2521	0.32573	0.01
Mof_C 	C 	0.0332	0.1742	0.3167	-0.048
Mof_C 	C 	0.9834	0.1197	0.3424	-0.039
Mof_C 	C 	0.9979	0.1432	0.377	-0.018
Mof_C 	C 	0.0621	0.221	0.38597	-0.057
Mof_C 	C 	0.1119	0.2755	0.3603	0.013
Mof_H 	H 	0.0214	0.1559	0.2929	0.05
Mof_H 	H 	0.9655	0.1028	0.395	0.03
Mof_H 	H 	0.0721	0.2369	0.4098	0.051
Mof_O 	O 	0.62857	0.51823	0.49645	-0.405
Mof_O 	O 	0.58931	0.55825	0.54397	-0.408
Mof_C 	C 	0.63977	0.54723	0.52671	0.352
Mof_C 	C 	0.71967	0.56783	0.54386	-0.073
Mof_C 	C 	0.73467	0.59783	0.57774	-0.047
Mof_H 	H 	0.69667	0.60813	0.58893	0.063
Mof_C 	C 	0.76407	0.58543	0.65906	0.01
Mof_C 	C 	0.69987	0.50753	0.65003	-0.048
Mof_C 	C 	0.65007	0.45303	0.67573	-0.039
Mof_C 	C 	0.66457	0.47653	0.71033	-0.018
Mof_C 	C 	0.72877	0.55433	0.7193	-0.057
Mof_C 	C 	0.77857	0.60883	0.69363	0.013
Mof_H 	H 	0.68807	0.48923	0.62623	0.05
Mof_H 	H 	0.63217	0.43613	0.72833	0.03
Mof_H 	H 	0.73877	0.57023	0.74313	0.051
Mof_O 	O 	0.29523	0.85157	0.82979	-0.405
Mof_O 	O 	0.25597	0.89159	0.87731	-0.408
Mof_C 	C 	0.30643	0.88057	0.86005	0.352
Mof_C 	C 	0.38633	0.90117	0.8772	-0.073
Mof_C 	C 	0.40133	0.93117	0.91108	-0.047
Mof_H 	H 	0.36333	0.94147	0.92227	0.063
Mof_C 	C 	0.43073	0.91877	0.9924	0.01
Mof_C 	C 	0.36653	0.84087	0.98337	-0.048
Mof_C 	C 	0.31673	0.78637	0.00907	-0.039
Mof_C 	C 	0.33123	0.80987	0.04367	-0.018
Mof_C 	C 	0.39543	0.88767	0.05264	-0.057
Mof_C 	C 	0.44523	0.94217	0.02697	0.013
Mof_H 	H 	0.35473	0.82257	0.95957	0.05
Mof_H 	H 	0.29883	0.76947	0.06167	0.03
Mof_H 	H 	0.40543	0.90357	0.07647	0.052
Mof_O 	O 	0.8151	0.777	0.16312	-0.404
Mof_O 	O 	0.77508	0.69772	0.21064	-0.407
Mof_C 	C 	0.7861	0.7592	0.19338	0.353
Mof_C 	C 	0.7655	0.8185	0.21053	-0.072
Mof_C 	C 	0.7355	0.8035	0.24441	-0.046
Mof_H 	H 	0.7252	0.7552	0.2556	0.064
Mof_C 	C 	0.7479	0.8453	0.32573	0.011
Mof_C 	C 	0.8258	0.859	0.3167	-0.047
Mof_C 	C 	0.8803	0.8637	0.3424	-0.038
Mof_C 	C 	0.8568	0.8547	0.377	-0.017
Mof_C 	C 	0.779	0.8411	0.38597	-0.056
Mof_C 	C 	0.7245	0.8364	0.3603	0.014
Mof_H 	H 	0.8441	0.8655	0.2929	0.051
Mof_H 	H 	0.8972	0.8627	0.395	0.031
Mof_H 	H 	0.7631	0.8352	0.4098	0.052
Mof_O 	O 	0.48177	0.11033	0.49645	-0.404
Mof_O 	O 	0.44175	0.03105	0.54397	-0.407
Mof_C 	C 	0.45277	0.09253	0.52671	0.353
Mof_C 	C 	0.43217	0.15183	0.54386	-0.072
Mof_C 	C 	0.40217	0.13683	0.57774	-0.046
Mof_H 	H 	0.39187	0.08853	0.58893	0.064
Mof_C 	C 	0.41457	0.17863	0.65906	0.011
Mof_C 	C 	0.49247	0.19233	0.65003	-0.047
Mof_C 	C 	0.54697	0.19703	0.67573	-0.038
Mof_C 	C 	0.52347	0.18803	0.71033	-0.017
Mof_C 	C 	0.44567	0.17443	0.7193	-0.056
Mof_C 	C 	0.39117	0.16973	0.69363	0.014
Mof_H 	H 	0.51077	0.19883	0.62623	0.051
Mof_H 	H 	0.56387	0.19603	0.72833	0.031
Mof_H 	H 	0.42977	0.16853	0.74313	0.052
Mof_O 	O 	0.14843	0.44367	0.82979	-0.404
Mof_O 	O 	0.10841	0.36439	0.87731	-0.407
Mof_C 	C 	0.11943	0.42587	0.86005	0.353
Mof_C 	C 	0.09883	0.48517	0.8772	-0.072
Mof_C 	C 	0.06883	0.47017	0.91108	-0.046
Mof_H 	H 	0.05853	0.42187	0.92227	0.064
Mof_C 	C 	0.08123	0.51197	0.9924	0.012
Mof_C 	C 	0.15913	0.52567	0.98337	-0.047
Mof_C 	C 	0.21363	0.53037	0.00907	-0.038
Mof_C 	C 	0.19013	0.52137	0.04367	-0.017
Mof_C 	C 	0.11233	0.50777	0.05264	-0.056
Mof_C 	C 	0.05783	0.50307	0.02697	0.014
Mof_H 	H 	0.17743	0.53217	0.95957	0.051
Mof_H 	H 	0.23053	0.52937	0.06167	0.031
Mof_H 	H 	0.09643	0.50187	0.07647	0.052
Mof_O 	O 	0.223	0.0381	0.16312	-0.404
Mof_O 	O 	0.30228	0.07736	0.21064	-0.407
Mof_C 	C 	0.2408	0.0269	0.19338	0.352
Mof_C 	C 	0.1815	0.947	0.21053	-0.072
Mof_C 	C 	0.1965	0.932	0.24441	-0.046
Mof_H 	H 	0.2448	0.97	0.2556	0.064
Mof_C 	C 	0.1547	0.9026	0.32573	0.011
Mof_C 	C 	0.141	0.9668	0.3167	-0.047
Mof_C 	C 	0.1363	0.0166	0.3424	-0.038
Mof_C 	C 	0.1453	0.0021	0.377	-0.017
Mof_C 	C 	0.1589	0.9379	0.38597	-0.056
Mof_C 	C 	0.1636	0.8881	0.3603	0.014
Mof_H 	H 	0.1345	0.9786	0.2929	0.051
Mof_H 	H 	0.1373	0.0345	0.395	0.031
Mof_H 	H 	0.1648	0.9279	0.4098	0.052
Mof_O 	O 	0.88967	0.37143	0.49645	-0.404
Mof_O 	O 	0.96895	0.41069	0.54397	-0.407
Mof_C 	C 	0.90747	0.36023	0.52671	0.353
Mof_C 	C 	0.84817	0.28033	0.54386	-0.072
Mof_C 	C 	0.86317	0.26533	0.57774	-0.046
Mof_H 	H 	0.91147	0.30333	0.58893	0.064
Mof_C 	C 	0.82137	0.23593	0.65906	0.011
Mof_C 	C 	0.80767	0.30013	0.65003	-0.047
Mof_C 	C 	0.80297	0.34993	0.67573	-0.038
Mof_C 	C 	0.81197	0.33543	0.71033	-0.017
Mof_C 	C 	0.82557	0.27123	0.7193	-0.056
Mof_C 	C 	0.83027	0.22143	0.69363	0.014
Mof_H 	H 	0.80117	0.31193	0.62623	0.051
Mof_H 	H 	0.80397	0.36783	0.72833	0.031
Mof_H 	H 	0.83147	0.26123	0.74313	0.052
Mof_O 	O 	0.55633	0.70477	0.82979	-0.404
Mof_O 	O 	0.63561	0.74403	0.87731	-0.407
Mof_C 	C 	0.57413	0.69357	0.86005	0.353
Mof_C 	C 	0.51483	0.61367	0.8772	-0.072
Mof_C 	C 	0.52983	0.59867	0.91108	-0.046
Mof_H 	H 	0.57813	0.63667	0.92227	0.064
Mof_C 	C 	0.48803	0.56927	0.9924	0.011
Mof_C 	C 	0.47433	0.63347	0.98337	-0.047
Mof_C 	C 	0.46963	0.68327	0.00907	-0.038
Mof_C 	C 	0.47863	0.66877	0.04367	-0.017
Mof_C 	C 	0.49223	0.60457	0.05264	-0.056
Mof_C 	C 	0.49693	0.55477	0.02697	0.014
Mof_H 	H 	0.46783	0.64527	0.95957	0.051
Mof_H 	H 	0.47063	0.70117	0.06167	0.031
Mof_H 	H 	0.49813	0.59457	0.07647	0.052
Mof_O 	O 	0.1849	0.9619	0.83688	-0.404
Mof_O 	O 	0.22492	0.92264	0.78936	-0.407
Mof_C 	C 	0.2139	0.9731	0.80662	0.352
Mof_C 	C 	0.2345	0.053	0.78947	-0.072
Mof_C 	C 	0.2645	0.068	0.75559	-0.046
Mof_H 	H 	0.2748	0.03	0.7444	0.064
Mof_C 	C 	0.2521	0.0974	0.67427	0.011
Mof_C 	C 	0.1742	0.0332	0.6833	-0.047
Mof_C 	C 	0.1197	0.9834	0.6576	-0.038
Mof_C 	C 	0.1432	0.9979	0.623	-0.017
Mof_C 	C 	0.221	0.0621	0.61403	-0.056
Mof_C 	C 	0.2755	0.1119	0.6397	0.014
Mof_H 	H 	0.1559	0.0214	0.7071	0.051
Mof_H 	H 	0.1028	0.9655	0.605	0.031
Mof_H 	H 	0.2369	0.0721	0.5902	0.052
Mof_O 	O 	0.85157	0.29523	0.17021	-0.404
Mof_O 	O 	0.89159	0.25597	0.12269	-0.407
Mof_C 	C 	0.88057	0.30643	0.13995	0.353
Mof_C 	C 	0.90117	0.38633	0.1228	-0.072
Mof_C 	C 	0.93117	0.40133	0.08892	-0.046
Mof_H 	H 	0.94147	0.36333	0.07773	0.064
Mof_C 	C 	0.91877	0.43073	0.0076	0.011
Mof_C 	C 	0.84087	0.36653	0.01663	-0.047
Mof_C 	C 	0.78637	0.31673	0.99093	-0.038
Mof_C 	C 	0.80987	0.33123	0.95633	-0.017
Mof_C 	C 	0.88767	0.39543	0.94736	-0.056
Mof_C 	C 	0.94217	0.44523	0.97303	0.014
Mof_H 	H 	0.82257	0.35473	0.04043	0.051
Mof_H 	H 	0.76947	0.29883	0.93833	0.031
Mof_H 	H 	0.90357	0.40543	0.92353	0.052
Mof_O 	O 	0.51823	0.62857	0.50355	-0.404
Mof_O 	O 	0.55825	0.58931	0.45603	-0.407
Mof_C 	C 	0.54723	0.63977	0.47329	0.353
Mof_C 	C 	0.56783	0.71967	0.45614	-0.072
Mof_C 	C 	0.59783	0.73467	0.42226	-0.046
Mof_H 	H 	0.60813	0.69667	0.41107	0.064
Mof_C 	C 	0.58543	0.76407	0.34094	0.011
Mof_C 	C 	0.50753	0.69987	0.34997	-0.047
Mof_C 	C 	0.45303	0.65007	0.32427	-0.038
Mof_C 	C 	0.47653	0.66457	0.28967	-0.017
Mof_C 	C 	0.55433	0.72877	0.2807	-0.056
Mof_C 	C 	0.60883	0.77857	0.30637	0.014
Mof_H 	H 	0.48923	0.68807	0.37377	0.051
Mof_H 	H 	0.43613	0.63217	0.27167	0.031
Mof_H 	H 	0.57023	0.73877	0.25687	0.052
Mof_O 	O 	0.777	0.8151	0.83688	-0.404
Mof_O 	O 	0.69772	0.77508	0.78936	-0.407
Mof_C 	C 	0.7592	0.7861	0.80662	0.353
Mof_C 	C 	0.8185	0.7655	0.78947	-0.072
Mof_C 	C 	0.8035	0.7355	0.75559	-0.046
Mof_H 	H 	0.7552	0.7252	0.7444	0.064
Mof_C 	C 	0.8453	0.7479	0.67427	0.011
Mof_C 	C 	0.859	0.8258	0.6833	-0.047
Mof_C 	C 	0.8637	0.8803	0.6576	-0.038
Mof_C 	C 	0.8547	0.8568	0.623	-0.017
Mof_C 	C 	0.8411	0.779	0.61403	-0.056
Mof_C 	C 	0.8364	0.7245	0.6397	0.014
Mof_H 	H 	0.8655	0.8441	0.7071	0.051
Mof_H 	H 	0.8627	0.8972	0.605	0.031
Mof_H 	H 	0.8352	0.7631	0.5902	0.052
Mof_O 	O 	0.44367	0.14843	0.17021	-0.404
Mof_O 	O 	0.36439	0.10841	0.12269	-0.407
Mof_C 	C 	0.42587	0.11943	0.13995	0.353
Mof_C 	C 	0.48517	0.09883	0.1228	-0.072
Mof_C 	C 	0.47017	0.06883	0.08892	-0.046
Mof_H 	H 	0.42187	0.05853	0.07773	0.064
Mof_C 	C 	0.51197	0.08123	0.0076	0.012
Mof_C 	C 	0.52567	0.15913	0.01663	-0.047
Mof_C 	C 	0.53037	0.21363	0.99093	-0.038
Mof_C 	C 	0.52137	0.19013	0.95633	-0.017
Mof_C 	C 	0.50777	0.11233	0.94736	-0.056
Mof_C 	C 	0.50307	0.05783	0.97303	0.014
Mof_H 	H 	0.53217	0.17743	0.04043	0.051
Mof_H 	H 	0.52937	0.23053	0.93833	0.031
Mof_H 	H 	0.50187	0.09643	0.92353	0.052
Mof_O 	O 	0.11033	0.48177	0.50355	-0.404
Mof_O 	O 	0.03105	0.44175	0.45603	-0.407
Mof_C 	C 	0.09253	0.45277	0.47329	0.353
Mof_C 	C 	0.15183	0.43217	0.45614	-0.072
Mof_C 	C 	0.13683	0.40217	0.42226	-0.046
Mof_H 	H 	0.08853	0.39187	0.41107	0.064
Mof_C 	C 	0.17863	0.41457	0.34094	0.011
Mof_C 	C 	0.19233	0.49247	0.34997	-0.047
Mof_C 	C 	0.19703	0.54697	0.32427	-0.038
Mof_C 	C 	0.18803	0.52347	0.28967	-0.017
Mof_C 	C 	0.17443	0.44567	0.2807	-0.056
Mof_C 	C 	0.16973	0.39117	0.30637	0.014
Mof_H 	H 	0.19883	0.51077	0.37377	0.051
Mof_H 	H 	0.19603	0.56387	0.27167	0.031
Mof_H 	H 	0.16853	0.42977	0.25687	0.052
Mof_O 	O 	0.0381	0.223	0.83688	-0.404
Mof_O 	O 	0.07736	0.30228	0.78936	-0.407
Mof_C 	C 	0.0269	0.2408	0.80662	0.352
Mof_C 	C 	0.947	0.1815	0.78947	-0.072
Mof_C 	C 	0.932	0.1965	0.75559	-0.046
Mof_H 	H 	0.97	0.2448	0.7444	0.064
Mof_C 	C 	0.9026	0.1547	0.67427	0.011
Mof_C 	C 	0.9668	0.141	0.6833	-0.047
Mof_C 	C 	0.0166	0.1363	0.6576	-0.038
Mof_C 	C 	0.0021	0.1453	0.623	-0.017
Mof_C 	C 	0.9379	0.1589	0.61403	-0.056
Mof_C 	C 	0.8881	0.1636	0.6397	0.014
Mof_H 	H 	0.9786	0.1345	0.7071	0.051
Mof_H 	H 	0.0345	0.1373	0.605	0.031
Mof_H 	H 	0.9279	0.1648	0.5902	0.052
Mof_O 	O 	0.70477	0.55633	0.17021	-0.404
Mof_O 	O 	0.74403	0.63561	0.12269	-0.407
Mof_C 	C 	0.69357	0.57413	0.13995	0.353
Mof_C 	C 	0.61367	0.51483	0.1228	-0.072
Mof_C 	C 	0.59867	0.52983	0.08892	-0.046
Mof_H 	H 	0.63667	0.57813	0.07773	0.064
Mof_C 	C 	0.56927	0.48803	0.0076	0.011
Mof_C 	C 	0.63347	0.47433	0.01663	-0.047
Mof_C 	C 	0.68327	0.46963	0.99093	-0.038
Mof_C 	C 	0.66877	0.47863	0.95633	-0.017
Mof_C 	C 	0.60457	0.49223	0.94736	-0.056
Mof_C 	C 	0.55477	0.49693	0.97303	0.014
Mof_H 	H 	0.64527	0.46783	0.04043	0.051
Mof_H 	H 	0.70117	0.47063	0.93833	0.031
Mof_H 	H 	0.59457	0.49813	0.92353	0.052
Mof_O 	O 	0.37143	0.88967	0.50355	-0.404
Mof_O 	O 	0.41069	0.96895	0.45603	-0.407
Mof_C 	C 	0.36023	0.90747	0.47329	0.353
Mof_C 	C 	0.28033	0.84817	0.45614	-0.072
Mof_C 	C 	0.26533	0.86317	0.42226	-0.046
Mof_H 	H 	0.30333	0.91147	0.41107	0.064
Mof_C 	C 	0.23593	0.82137	0.34094	0.011
Mof_C 	C 	0.30013	0.80767	0.34997	-0.047
Mof_C 	C 	0.34993	0.80297	0.32427	-0.038
Mof_C 	C 	0.33543	0.81197	0.28967	-0.017
Mof_C 	C 	0.27123	0.82557	0.2807	-0.056
Mof_C 	C 	0.22143	0.83027	0.30637	0.014
Mof_H 	H 	0.31193	0.80117	0.37377	0.051
Mof_H 	H 	0.36783	0.80397	0.27167	0.031
Mof_H 	H 	0.26123	0.83147	0.25687	0.052
Mof_O 	O 	0.0381	0.8151	0.83688	-0.404
Mof_O 	O 	0.07736	0.77508	0.78936	-0.407
Mof_C 	C 	0.0269	0.7861	0.80662	0.352
Mof_C 	C 	0.947	0.7655	0.78947	-0.072
Mof_C 	C 	0.932	0.7355	0.75559	-0.046
Mof_H 	H 	0.97	0.7252	0.7444	0.064
Mof_C 	C 	0.9026	0.7479	0.67427	0.011
Mof_C 	C 	0.9668	0.8258	0.6833	-0.047
Mof_C 	C 	0.0166	0.8803	0.6576	-0.038
Mof_C 	C 	0.0021	0.8568	0.623	-0.017
Mof_C 	C 	0.9379	0.779	0.61403	-0.056
Mof_C 	C 	0.8881	0.7245	0.6397	0.014
Mof_H 	H 	0.9786	0.8441	0.7071	0.051
Mof_H 	H 	0.0345	0.8972	0.605	0.031
Mof_H 	H 	0.9279	0.7631	0.5902	0.052
Mof_O 	O 	0.70477	0.14843	0.17021	-0.404
Mof_O 	O 	0.74403	0.10841	0.12269	-0.407
Mof_C 	C 	0.69357	0.11943	0.13995	0.353
Mof_C 	C 	0.61367	0.09883	0.1228	-0.072
Mof_C 	C 	0.59867	0.06883	0.08892	-0.046
Mof_H 	H 	0.63667	0.05853	0.07773	0.064
Mof_C 	C 	0.56927	0.08123	0.0076	0.011
Mof_C 	C 	0.63347	0.15913	0.01663	-0.047
Mof_C 	C 	0.68327	0.21363	0.99093	-0.038
Mof_C 	C 	0.66877	0.19013	0.95633	-0.017
Mof_C 	C 	0.60457	0.11233	0.94736	-0.056
Mof_C 	C 	0.55477	0.05783	0.97303	0.014
Mof_H 	H 	0.64527	0.17743	0.04043	0.051
Mof_H 	H 	0.70117	0.23053	0.93833	0.031
Mof_H 	H 	0.59457	0.09643	0.92353	0.052
Mof_O 	O 	0.37143	0.48177	0.50355	-0.404
Mof_O 	O 	0.41069	0.44175	0.45603	-0.407
Mof_C 	C 	0.36023	0.45277	0.47329	0.353
Mof_C 	C 	0.28033	0.43217	0.45614	-0.072
Mof_C 	C 	0.26533	0.40217	0.42226	-0.046
Mof_H 	H 	0.30333	0.39187	0.41107	0.064
Mof_C 	C 	0.23593	0.41457	0.34094	0.011
Mof_C 	C 	0.30013	0.49247	0.34997	-0.047
Mof_C 	C 	0.34993	0.54697	0.32427	-0.038
Mof_C 	C 	0.33543	0.52347	0.28967	-0.017
Mof_C 	C 	0.27123	0.44567	0.2807	-0.056
Mof_C 	C 	0.22143	0.39117	0.30637	0.014
Mof_H 	H 	0.31193	0.51077	0.37377	0.051
Mof_H 	H 	0.36783	0.56387	0.27167	0.031
Mof_H 	H 	0.26123	0.42977	0.25687	0.052
Mof_O 	O 	0.1849	0.223	0.83688	-0.404
Mof_O 	O 	0.22492	0.30228	0.78936	-0.407
Mof_C 	C 	0.2139	0.2408	0.80662	0.353
Mof_C 	C 	0.2345	0.1815	0.78947	-0.072
Mof_C 	C 	0.2645	0.1965	0.75559	-0.046
Mof_H 	H 	0.2748	0.2448	0.7444	0.064
Mof_C 	C 	0.2521	0.1547	0.67427	0.011
Mof_C 	C 	0.1742	0.141	0.6833	-0.047
Mof_C 	C 	0.1197	0.1363	0.6576	-0.038
Mof_C 	C 	0.1432	0.1453	0.623	-0.017
Mof_C 	C 	0.221	0.1589	0.61403	-0.056
Mof_C 	C 	0.2755	0.1636	0.6397	0.014
Mof_H 	H 	0.1559	0.1345	0.7071	0.051
Mof_H 	H 	0.1028	0.1373	0.605	0.031
Mof_H 	H 	0.2369	0.1648	0.5902	0.052
Mof_O 	O 	0.85157	0.55633	0.17021	-0.404
Mof_O 	O 	0.89159	0.63561	0.12269	-0.407
Mof_C 	C 	0.88057	0.57413	0.13995	0.353
Mof_C 	C 	0.90117	0.51483	0.1228	-0.072
Mof_C 	C 	0.93117	0.52983	0.08892	-0.046
Mof_H 	H 	0.94147	0.57813	0.07773	0.064
Mof_C 	C 	0.91877	0.48803	0.0076	0.012
Mof_C 	C 	0.84087	0.47433	0.01663	-0.047
Mof_C 	C 	0.78637	0.46963	0.99093	-0.038
Mof_C 	C 	0.80987	0.47863	0.95633	-0.017
Mof_C 	C 	0.88767	0.49223	0.94736	-0.056
Mof_C 	C 	0.94217	0.49693	0.97303	0.014
Mof_H 	H 	0.82257	0.46783	0.04043	0.051
Mof_H 	H 	0.76947	0.47063	0.93833	0.031
Mof_H 	H 	0.90357	0.49813	0.92353	0.052
Mof_O 	O 	0.51823	0.88967	0.50355	-0.404
Mof_O 	O 	0.55825	0.96895	0.45603	-0.407
Mof_C 	C 	0.54723	0.90747	0.47329	0.353
Mof_C 	C 	0.56783	0.84817	0.45614	-0.072
Mof_C 	C 	0.59783	0.86317	0.42226	-0.046
Mof_H 	H 	0.60813	0.91147	0.41107	0.064
Mof_C 	C 	0.58543	0.82137	0.34094	0.011
Mof_C 	C 	0.50753	0.80767	0.34997	-0.047
Mof_C 	C 	0.45303	0.80297	0.32427	-0.038
Mof_C 	C 	0.47653	0.81197	0.28967	-0.017
Mof_C 	C 	0.55433	0.82557	0.2807	-0.056
Mof_C 	C 	0.60883	0.83027	0.30637	0.014
Mof_H 	H 	0.48923	0.80117	0.37377	0.051
Mof_H 	H 	0.43613	0.80397	0.27167	0.031
Mof_H 	H 	0.57023	0.83147	0.25687	0.052
Mof_O 	O 	0.777	0.9619	0.83688	-0.404
Mof_O 	O 	0.69772	0.92264	0.78936	-0.407
Mof_C 	C 	0.7592	0.9731	0.80662	0.352
Mof_C 	C 	0.8185	0.053	0.78947	-0.072
Mof_C 	C 	0.8035	0.068	0.75559	-0.046
Mof_H 	H 	0.7552	0.03	0.7444	0.064
Mof_C 	C 	0.8453	0.0974	0.67427	0.011
Mof_C 	C 	0.859	0.0332	0.6833	-0.047
Mof_C 	C 	0.8637	0.9834	0.6576	-0.038
Mof_C 	C 	0.8547	0.9979	0.623	-0.017
Mof_C 	C 	0.8411	0.0621	0.61403	-0.056
Mof_C 	C 	0.8364	0.1119	0.6397	0.014
Mof_H 	H 	0.8655	0.0214	0.7071	0.051
Mof_H 	H 	0.8627	0.9655	0.605	0.031
Mof_H 	H 	0.8352	0.0721	0.5902	0.052
Mof_O 	O 	0.44367	0.29523	0.17021	-0.404
Mof_O 	O 	0.36439	0.25597	0.12269	-0.407
Mof_C 	C 	0.42587	0.30643	0.13995	0.353
Mof_C 	C 	0.48517	0.38633	0.1228	-0.072
Mof_C 	C 	0.47017	0.40133	0.08892	-0.046
Mof_H 	H 	0.42187	0.36333	0.07773	0.064
Mof_C 	C 	0.51197	0.43073	0.0076	0.011
Mof_C 	C 	0.52567	0.36653	0.01663	-0.047
Mof_C 	C 	0.53037	0.31673	0.99093	-0.038
Mof_C 	C 	0.52137	0.33123	0.95633	-0.017
Mof_C 	C 	0.50777	0.39543	0.94736	-0.056
Mof_C 	C 	0.50307	0.44523	0.97303	0.014
Mof_H 	H 	0.53217	0.35473	0.04043	0.051
Mof_H 	H 	0.52937	0.29883	0.93833	0.031
Mof_H 	H 	0.50187	0.40543	0.92353	0.052
Mof_O 	O 	0.11033	0.62857	0.50355	-0.404
Mof_O 	O 	0.03105	0.58931	0.45603	-0.407
Mof_C 	C 	0.09253	0.63977	0.47329	0.353
Mof_C 	C 	0.15183	0.71967	0.45614	-0.072
Mof_C 	C 	0.13683	0.73467	0.42226	-0.046
Mof_H 	H 	0.08853	0.69667	0.41107	0.064
Mof_C 	C 	0.17863	0.76407	0.34094	0.011
Mof_C 	C 	0.19233	0.69987	0.34997	-0.047
Mof_C 	C 	0.19703	0.65007	0.32427	-0.038
Mof_C 	C 	0.18803	0.66457	0.28967	-0.017
Mof_C 	C 	0.17443	0.72877	0.2807	-0.056
Mof_C 	C 	0.16973	0.77857	0.30637	0.014
Mof_H 	H 	0.19883	0.68807	0.37377	0.051
Mof_H 	H 	0.19603	0.63217	0.27167	0.031
Mof_H 	H 	0.16853	0.73877	0.25687	0.052
Mof_O 	O 	0.8151	0.0381	0.16312	-0.404
Mof_O 	O 	0.77508	0.07736	0.21064	-0.407
Mof_C 	C 	0.7861	0.0269	0.19338	0.352
Mof_C 	C 	0.7655	0.947	0.21053	-0.072
Mof_C 	C 	0.7355	0.932	0.24441	-0.046
Mof_H 	H 	0.7252	0.97	0.2556	0.064
Mof_C 	C 	0.7479	0.9026	0.32573	0.011
Mof_C 	C 	0.8258	0.9668	0.3167	-0.047
Mof_C 	C 	0.8803	0.0166	0.3424	-0.038
Mof_C 	C 	0.8568	0.0021	0.377	-0.017
Mof_C 	C 	0.779	0.9379	0.38597	-0.056
Mof_C 	C 	0.7245	0.8881	0.3603	0.014
Mof_H 	H 	0.8441	0.9786	0.2929	0.051
Mof_H 	H 	0.8972	0.0345	0.395	0.031
Mof_H 	H 	0.7631	0.9279	0.4098	0.052
Mof_O 	O 	0.48177	0.37143	0.49645	-0.404
Mof_O 	O 	0.44175	0.41069	0.54397	-0.407
Mof_C 	C 	0.45277	0.36023	0.52671	0.353
Mof_C 	C 	0.43217	0.28033	0.54386	-0.072
Mof_C 	C 	0.40217	0.26533	0.57774	-0.046
Mof_H 	H 	0.39187	0.30333	0.58893	0.064
Mof_C 	C 	0.41457	0.23593	0.65906	0.011
Mof_C 	C 	0.49247	0.30013	0.65003	-0.047
Mof_C 	C 	0.54697	0.34993	0.67573	-0.038
Mof_C 	C 	0.52347	0.33543	0.71033	-0.017
Mof_C 	C 	0.44567	0.27123	0.7193	-0.056
Mof_C 	C 	0.39117	0.22143	0.69363	0.014
Mof_H 	H 	0.51077	0.31193	0.62623	0.051
Mof_H 	H 	0.56387	0.36783	0.72833	0.031
Mof_H 	H 	0.42977	0.26123	0.74313	0.052
Mof_O 	O 	0.14843	0.70477	0.82979	-0.404
Mof_O 	O 	0.10841	0.74403	0.87731	-0.407
Mof_C 	C 	0.11943	0.69357	0.86005	0.353
Mof_C 	C 	0.09883	0.61367	0.8772	-0.072
Mof_C 	C 	0.06883	0.59867	0.91108	-0.046
Mof_H 	H 	0.05853	0.63667	0.92227	0.064
Mof_C 	C 	0.08123	0.56927	0.9924	0.011
Mof_C 	C 	0.15913	0.63347	0.98337	-0.047
Mof_C 	C 	0.21363	0.68327	0.00907	-0.038
Mof_C 	C 	0.19013	0.66877	0.04367	-0.017
Mof_C 	C 	0.11233	0.60457	0.05264	-0.056
Mof_C 	C 	0.05783	0.55477	0.02697	0.014
Mof_H 	H 	0.17743	0.64527	0.95957	0.051
Mof_H 	H 	0.23053	0.70117	0.06167	0.031
Mof_H 	H 	0.09643	0.59457	0.07647	0.052
Mof_O 	O 	0.223	0.1849	0.16312	-0.404
Mof_O 	O 	0.30228	0.22492	0.21064	-0.407
Mof_C 	C 	0.2408	0.2139	0.19338	0.353
Mof_C 	C 	0.1815	0.2345	0.21053	-0.072
Mof_C 	C 	0.1965	0.2645	0.24441	-0.046
Mof_H 	H 	0.2448	0.2748	0.2556	0.064
Mof_C 	C 	0.1547	0.2521	0.32573	0.011
Mof_C 	C 	0.141	0.1742	0.3167	-0.047
Mof_C 	C 	0.1363	0.1197	0.3424	-0.038
Mof_C 	C 	0.1453	0.1432	0.377	-0.017
Mof_C 	C 	0.1589	0.221	0.38597	-0.056
Mof_C 	C 	0.1636	0.2755	0.3603	0.014
Mof_H 	H 	0.1345	0.1559	0.2929	0.051
Mof_H 	H 	0.1373	0.1028	0.395	0.031
Mof_H 	H 	0.1648	0.2369	0.4098	0.052
Mof_O 	O 	0.88967	0.51823	0.49645	-0.404
Mof_O 	O 	0.96895	0.55825	0.54397	-0.407
Mof_C 	C 	0.90747	0.54723	0.52671	0.353
Mof_C 	C 	0.84817	0.56783	0.54386	-0.072
Mof_C 	C 	0.86317	0.59783	0.57774	-0.046
Mof_H 	H 	0.91147	0.60813	0.58893	0.064
Mof_C 	C 	0.82137	0.58543	0.65906	0.011
Mof_C 	C 	0.80767	0.50753	0.65003	-0.047
Mof_C 	C 	0.80297	0.45303	0.67573	-0.038
Mof_C 	C 	0.81197	0.47653	0.71033	-0.017
Mof_C 	C 	0.82557	0.55433	0.7193	-0.056
Mof_C 	C 	0.83027	0.60883	0.69363	0.014
Mof_H 	H 	0.80117	0.48923	0.62623	0.051
Mof_H 	H 	0.80397	0.43613	0.72833	0.031
Mof_H 	H 	0.83147	0.57023	0.74313	0.052
Mof_O 	O 	0.55633	0.85157	0.82979	-0.404
Mof_O 	O 	0.63561	0.89159	0.87731	-0.407
Mof_C 	C 	0.57413	0.88057	0.86005	0.353
Mof_C 	C 	0.51483	0.90117	0.8772	-0.072
Mof_C 	C 	0.52983	0.93117	0.91108	-0.046
Mof_H 	H 	0.57813	0.94147	0.92227	0.064
Mof_C 	C 	0.48803	0.91877	0.9924	0.012
Mof_C 	C 	0.47433	0.84087	0.98337	-0.047
Mof_C 	C 	0.46963	0.78637	0.00907	-0.038
Mof_C 	C 	0.47863	0.80987	0.04367	-0.017
Mof_C 	C 	0.49223	0.88767	0.05264	-0.056
Mof_C 	C 	0.49693	0.94217	0.02697	0.014
Mof_H 	H 	0.46783	0.82257	0.95957	0.051
Mof_H 	H 	0.47063	0.76947	0.06167	0.031
Mof_H 	H 	0.49813	0.90357	0.07647	0.052
Mof_O 	O 	0.9619	0.777	0.16312	-0.404
Mof_O 	O 	0.92264	0.69772	0.21064	-0.407
Mof_C 	C 	0.9731	0.7592	0.19338	0.352
Mof_C 	C 	0.053	0.8185	0.21053	-0.072
Mof_C 	C 	0.068	0.8035	0.24441	-0.046
Mof_H 	H 	0.03	0.7552	0.2556	0.064
Mof_C 	C 	0.0974	0.8453	0.32573	0.011
Mof_C 	C 	0.0332	0.859	0.3167	-0.047
Mof_C 	C 	0.9834	0.8637	0.3424	-0.038
Mof_C 	C 	0.9979	0.8547	0.377	-0.017
Mof_C 	C 	0.0621	0.8411	0.38597	-0.056
Mof_C 	C 	0.1119	0.8364	0.3603	0.014
Mof_H 	H 	0.0214	0.8655	0.2929	0.051
Mof_H 	H 	0.9655	0.8627	0.395	0.031
Mof_H 	H 	0.0721	0.8352	0.4098	0.052
Mof_O 	O 	0.62857	0.11033	0.49645	-0.404
Mof_O 	O 	0.58931	0.03105	0.54397	-0.407
Mof_C 	C 	0.63977	0.09253	0.52671	0.353
Mof_C 	C 	0.71967	0.15183	0.54386	-0.072
Mof_C 	C 	0.73467	0.13683	0.57774	-0.046
Mof_H 	H 	0.69667	0.08853	0.58893	0.064
Mof_C 	C 	0.76407	0.17863	0.65906	0.011
Mof_C 	C 	0.69987	0.19233	0.65003	-0.047
Mof_C 	C 	0.65007	0.19703	0.67573	-0.038
Mof_C 	C 	0.66457	0.18803	0.71033	-0.017
Mof_C 	C 	0.72877	0.17443	0.7193	-0.056
Mof_C 	C 	0.77857	0.16973	0.69363	0.014
Mof_H 	H 	0.68807	0.19883	0.62623	0.051
Mof_H 	H 	0.63217	0.19603	0.72833	0.031
Mof_H 	H 	0.73877	0.16853	0.74313	0.052
Mof_O 	O 	0.29523	0.44367	0.82979	-0.404
Mof_O 	O 	0.25597	0.36439	0.87731	-0.407
Mof_C 	C 	0.30643	0.42587	0.86005	0.353
Mof_C 	C 	0.38633	0.48517	0.8772	-0.072
Mof_C 	C 	0.40133	0.47017	0.91108	-0.046
Mof_H 	H 	0.36333	0.42187	0.92227	0.064
Mof_C 	C 	0.43073	0.51197	0.9924	0.011
Mof_C 	C 	0.36653	0.52567	0.98337	-0.047
Mof_C 	C 	0.31673	0.53037	0.00907	-0.038
Mof_C 	C 	0.33123	0.52137	0.04367	-0.017
Mof_C 	C 	0.39543	0.50777	0.05264	-0.056
Mof_C 	C 	0.44523	0.50307	0.02697	0.014
Mof_H 	H 	0.35473	0.53217	0.95957	0.051
Mof_H 	H 	0.29883	0.52937	0.06167	0.031
Mof_H 	H 	0.40543	0.50187	0.07647	0.052
Mof_Cu	Cu	0.85678	0.14322	0.13842	0.904
Mof_H 	H 	0.9401	0.0599	0.3366	0.063
Mof_Cu	Cu	0.52345	0.47655	0.47176	0.904
Mof_H 	H 	0.60677	0.39323	0.66993	0.063
Mof_Cu	Cu	0.19011	0.80989	0.80509	0.904
Mof_H 	H 	0.27343	0.72657	0.00327	0.063
Mof_Cu	Cu	0.85678	0.71356	0.13842	0.904
Mof_H 	H 	0.9401	0.8802	0.3366	0.063
Mof_Cu	Cu	0.52345	0.0469	0.47176	0.904
Mof_H 	H 	0.60677	0.21353	0.66993	0.063
Mof_Cu	Cu	0.19011	0.38023	0.80509	0.904
Mof_H 	H 	0.27343	0.54687	0.00327	0.063
Mof_Cu	Cu	0.28644	0.14322	0.13842	0.904
Mof_H 	H 	0.1198	0.0599	0.3366	0.063
Mof_Cu	Cu	0.9531	0.47655	0.47176	0.904
Mof_H 	H 	0.78647	0.39323	0.66993	0.063
Mof_Cu	Cu	0.61977	0.80989	0.80509	0.904
Mof_H 	H 	0.45313	0.72657	0.00327	0.063
Mof_Cu	Cu	0.14322	0.85678	0.86158	0.904
Mof_H 	H 	0.0599	0.9401	0.6634	0.063
Mof_Cu	Cu	0.80989	0.19011	0.19491	0.904
Mof_H 	H 	0.72657	0.27343	0.99673	0.063
Mof_Cu	Cu	0.47655	0.52345	0.52824	0.904
Mof_H 	H 	0.39323	0.60677	0.33007	0.063
Mof_Cu	Cu	0.71356	0.85678	0.86158	0.904
Mof_H 	H 	0.8802	0.9401	0.6634	0.063
Mof_Cu	Cu	0.38023	0.19011	0.19491	0.904
Mof_H 	H 	0.54687	0.27343	0.99673	0.063
Mof_Cu	Cu	0.0469	0.52345	0.52824	0.904
Mof_H 	H 	0.21353	0.60677	0.33007	0.063
Mof_Cu	Cu	0.14322	0.28644	0.86158	0.904
Mof_H 	H 	0.0599	0.1198	0.6634	0.063
Mof_Cu	Cu	0.80989	0.61977	0.19491	0.904
Mof_H 	H 	0.72657	0.45313	0.99673	0.063
Mof_Cu	Cu	0.47655	0.9531	0.52824	0.904
Mof_H 	H 	0.39323	0.78647	0.33007	0.063
Mof_C 	C 	0.10995	0.2199	0.19394	0.012
Mof_H 	H 	0.10005	0.2001	0.1713	0.056
Mof_C 	C 	0.1395	0.279	0.26151	0.023
Mof_C 	C 	0.15355	0.3071	0.29884	-0.034
Mof_C 	C 	0.77662	0.55323	0.52727	0.013
Mof_H 	H 	0.76672	0.53343	0.50463	0.056
Mof_C 	C 	0.80617	0.61233	0.59484	0.023
Mof_C 	C 	0.82022	0.64043	0.63217	-0.034
Mof_C 	C 	0.44328	0.88657	0.86061	0.013
Mof_H 	H 	0.43338	0.86677	0.83797	0.056
Mof_C 	C 	0.47283	0.94567	0.92818	0.023
Mof_C 	C 	0.48688	0.97377	0.96551	-0.034
Mof_C 	C 	0.7801	0.89005	0.19394	0.012
Mof_H 	H 	0.7999	0.89995	0.1713	0.056
Mof_C 	C 	0.721	0.8605	0.26151	0.023
Mof_C 	C 	0.6929	0.84645	0.29884	-0.034
Mof_C 	C 	0.44677	0.22338	0.52727	0.013
Mof_H 	H 	0.46657	0.23328	0.50463	0.056
Mof_C 	C 	0.38767	0.19383	0.59484	0.023
Mof_C 	C 	0.35957	0.17978	0.63217	-0.034
Mof_C 	C 	0.11343	0.55672	0.86061	0.013
Mof_H 	H 	0.13323	0.56662	0.83797	0.056
Mof_C 	C 	0.05433	0.52717	0.92818	0.023
Mof_C 	C 	0.02623	0.51312	0.96551	-0.034
Mof_C 	C 	0.10995	0.89005	0.19394	0.012
Mof_H 	H 	0.10005	0.89995	0.1713	0.056
Mof_C 	C 	0.1395	0.8605	0.26151	0.023
Mof_C 	C 	0.15355	0.84645	0.29884	-0.034
Mof_C 	C 	0.77662	0.22338	0.52727	0.013
Mof_H 	H 	0.76672	0.23328	0.50463	0.056
Mof_C 	C 	0.80617	0.19383	0.59484	0.023
Mof_C 	C 	0.82022	0.17978	0.63217	-0.034
Mof_C 	C 	0.44328	0.55672	0.86061	0.013
Mof_H 	H 	0.43338	0.56662	0.83797	0.056
Mof_C 	C 	0.47283	0.52717	0.92818	0.023
Mof_C 	C 	0.48688	0.51312	0.96551	-0.034
Mof_C 	C 	0.2199	0.10995	0.80606	0.012
Mof_H 	H 	0.2001	0.10005	0.8287	0.056
Mof_C 	C 	0.279	0.1395	0.73849	0.023
Mof_C 	C 	0.3071	0.15355	0.70116	-0.034
Mof_C 	C 	0.88657	0.44328	0.13939	0.013
Mof_H 	H 	0.86677	0.43338	0.16203	0.056
Mof_C 	C 	0.94567	0.47283	0.07182	0.023
Mof_C 	C 	0.97377	0.48688	0.03449	-0.034
Mof_C 	C 	0.55323	0.77662	0.47273	0.013
Mof_H 	H 	0.53343	0.76672	0.49537	0.056
Mof_C 	C 	0.61233	0.80617	0.40516	0.023
Mof_C 	C 	0.64043	0.82022	0.36783	-0.034
Mof_C 	C 	0.89005	0.7801	0.80606	0.012
Mof_H 	H 	0.89995	0.7999	0.8287	0.056
Mof_C 	C 	0.8605	0.721	0.73849	0.023
Mof_C 	C 	0.84645	0.6929	0.70116	-0.034
Mof_C 	C 	0.55672	0.11343	0.13939	0.013
Mof_H 	H 	0.56662	0.13323	0.16203	0.056
Mof_C 	C 	0.52717	0.05433	0.07182	0.023
Mof_C 	C 	0.51312	0.02623	0.03449	-0.034
Mof_C 	C 	0.22338	0.44677	0.47273	0.013
Mof_H 	H 	0.23328	0.46657	0.49537	0.056
Mof_C 	C 	0.19383	0.38767	0.40516	0.023
Mof_C 	C 	0.17978	0.35957	0.36783	-0.034
Mof_C 	C 	0.89005	0.10995	0.80606	0.012
Mof_H 	H 	0.89995	0.10005	0.8287	0.056
Mof_C 	C 	0.8605	0.1395	0.73849	0.023
Mof_C 	C 	0.84645	0.15355	0.70116	-0.034
Mof_C 	C 	0.55672	0.44328	0.13939	0.013
Mof_H 	H 	0.56662	0.43338	0.16203	0.056
Mof_C 	C 	0.52717	0.47283	0.07182	0.023
Mof_C 	C 	0.51312	0.48688	0.03449	-0.034
Mof_C 	C 	0.22338	0.77662	0.47273	0.013
Mof_H 	H 	0.23328	0.76672	0.49537	0.056
Mof_C 	C 	0.19383	0.80617	0.40516	0.023
Mof_C 	C 	0.17978	0.82022	0.36783	-0.034
_end
