data_functionalizedCrystal
_audit_creation_method	'EQeq! by Chris Wilmer'
_symmetry_space_group_name_H-M	'P1'
_symmetry_Int_Tables_number	1
_symmetry_cell_setting	triclinic
loop_
_symmetry_equiv_pos_as_xyz
  x,y,z
_cell_length_a	16.0517
_cell_length_b	16.0517
_cell_length_c	42.8082
_cell_angle_alpha	90
_cell_angle_beta	90
_cell_angle_gamma	120
loop_
_atom_site_label
_atom_site_type_symbol
_atom_site_fract_x
_atom_site_fract_y
_atom_site_fract_z
_atom_site_charge
Mof_Mo	Mo	0.55098	0.68363	0.03602	0.844
Mof_O 	O 	0.4016	0.5468	0.05006	-0.486
Mof_O 	O 	0.5802	0.6172	0.07721	-0.478
Mof_O 	O 	0.4915	0.7227	0.06753	-0.597
Mof_O 	O 	0.5882	0.5931	0.02009	-0.698
Mof_P 	P 	0.3802	0.4434	0.05502	0.597
Mof_Mo	Mo	0.60774	0.50958	0.04626	1.543
Mof_O 	O 	0.4462	0.4221	0.03731	-0.624
Mof_O 	O 	0.2744	0.3713	0.0448	-0.394
Mof_O 	O 	0.6185	0.4347	0.01937	-0.764
Mof_C 	C 	0.2249	0.3979	0.0233	0.202
Mof_C 	C 	0.116	0.3175	0.0246	-0.051
Mof_H 	H 	0.2508	0.4028	0.0019	-0.188
Mof_H 	H 	0.2324	0.461	0.0291	-0.113
Mof_O 	O 	0.1019	0.2259	0.01515	-0.246
Mof_C 	C 	0.0782	0.3064	0.057	0.112
Mof_H 	H 	0.0781	0.3358	0.0104	-0.008
Mof_C 	C 	0.0593	0.1563	0.0394	0.141
Mof_O 	O 	0.9777	0.2834	0.0561	-0.593
Mof_C 	C 	0.0803	0.2213	0.0688	0.027
Mof_H 	H 	0.1188	0.3648	0.0699	-0.067
Mof_N 	N 	0.103	0.0968	0.03857	-0.178
Mof_H 	H 	0.9883	0.1162	0.036	-0.049
Mof_H 	H 	0.9623	0.3236	0.0441	0.033
Mof_O 	O 	0.0103	0.1693	0.09272	-0.52
Mof_H 	H 	0.1461	0.2413	0.0769	0.014
Mof_C 	C 	0.198	0.1273	0.0372	0.148
Mof_C 	C 	0.0541	0.0003	0.0419	0.138
Mof_H 	H 	0.0247	0.1442	0.1107	0.171
Mof_N 	N 	0.2131	0.0575	0.037	-0.203
Mof_H 	H 	0.2471	0.1929	0.0366	-0.095
Mof_N 	N 	0.9569	0.9416	0.04522	-0.18
Mof_C 	C 	0.1246	0.9737	0.0406	-0.063
Mof_H 	H 	0.2693	0.061	0.0349	0.053
Mof_C 	C 	0.9339	0.8512	0.0488	0.168
Mof_C 	C 	0.1057	0.8768	0.0428	0.178
Mof_N 	N 	0.0036	0.8148	0.0488	-0.229
Mof_N 	N 	0.8398	0.7837	0.0532	-0.273
Mof_O 	O 	0.1596	0.8437	0.042	-0.543
Mof_H 	H 	0.9817	0.7534	0.0526	-0.062
Mof_H 	H 	0.7957	0.801	0.0536	0.089
Mof_H 	H 	0.8231	0.7229	0.0556	0.053
Mof_O 	O 	0.1851	0.7498	0.9954	-0.859
Mof_Na	Na	0.3259	0.7218	0.9984	0.857
Mof_Na	Na	0.064	0.685	0.0148	2.114
Mof_Na	Na	0.976	0.4557	0.0409	0.247
Mof_Mo	Mo	0.31637	0.86735	0.70269	0.844
Mof_O 	O 	0.4532	0.8548	0.71673	-0.486
Mof_O 	O 	0.3828	0.963	0.74388	-0.476
Mof_O 	O 	0.2773	0.7688	0.7342	-0.597
Mof_O 	O 	0.4069	0.9951	0.68676	-0.695
Mof_P 	P 	0.5566	0.9368	0.72169	0.6
Mof_Mo	Mo	0.49042	0.09816	0.71293	1.537
Mof_O 	O 	0.5779	0.0241	0.70398	-0.626
Mof_O 	O 	0.6287	0.9031	0.71147	-0.393
Mof_O 	O 	0.5653	0.1838	0.68604	-0.764
Mof_C 	C 	0.6021	0.827	0.68997	0.202
Mof_C 	C 	0.6825	0.7985	0.69127	-0.051
Mof_H 	H 	0.5972	0.848	0.66857	-0.187
Mof_H 	H 	0.539	0.7714	0.69577	-0.113
Mof_O 	O 	0.7741	0.876	0.68182	-0.245
Mof_C 	C 	0.6936	0.7718	0.72367	0.116
Mof_H 	H 	0.6642	0.7423	0.67707	-0.007
Mof_C 	C 	0.8437	0.903	0.70607	0.148
Mof_O 	O 	0.7166	0.6943	0.72277	-0.595
Mof_C 	C 	0.7787	0.859	0.73547	0.024
Mof_H 	H 	0.6352	0.754	0.73657	-0.067
Mof_N 	N 	0.9032	0.0062	0.70524	-0.181
Mof_H 	H 	0.8838	0.8721	0.70267	-0.051
Mof_H 	H 	0.6764	0.6387	0.71077	0.035
Mof_O 	O 	0.8307	0.841	0.75939	-0.518
Mof_H 	H 	0.7587	0.9048	0.74357	0.016
Mof_C 	C 	0.8727	0.0707	0.70387	0.147
Mof_C 	C 	0.9997	0.0538	0.70857	0.136
Mof_H 	H 	0.8558	0.8805	0.77737	0.172
Mof_N 	N 	0.9425	0.1556	0.70367	-0.205
Mof_H 	H 	0.8071	0.0542	0.70327	-0.096
Mof_N 	N 	0.0584	0.0153	0.71189	-0.181
Mof_C 	C 	0.0263	0.1509	0.70727	-0.058
Mof_H 	H 	0.939	0.2083	0.70157	0.053
Mof_C 	C 	0.1488	0.0827	0.71547	0.165
Mof_C 	C 	0.1232	0.2289	0.70947	0.177
Mof_N 	N 	0.1852	0.1888	0.71547	-0.225
Mof_N 	N 	0.2163	0.0561	0.71987	-0.276
Mof_O 	O 	0.1563	0.3159	0.70867	-0.543
Mof_H 	H 	0.2466	0.2283	0.71927	-0.066
Mof_H 	H 	0.199	0.9947	0.72027	0.092
Mof_H 	H 	0.2771	0.1002	0.72227	0.053
Mof_O 	O 	0.2502	0.4353	0.66207	-0.861
Mof_Na	Na	0.2782	0.6041	0.66507	0.858
Mof_Na	Na	0.315	0.379	0.68147	2.127
Mof_Na	Na	0.5443	0.5203	0.70757	0.239
Mof_Mo	Mo	0.13265	0.44902	0.36935	0.844
Mof_O 	O 	0.1452	0.5984	0.38339	-0.486
Mof_O 	O 	0.037	0.4198	0.41054	-0.476
Mof_O 	O 	0.2312	0.5085	0.40086	-0.597
Mof_O 	O 	0.0049	0.4118	0.35342	-0.695
Mof_P 	P 	0.0632	0.6198	0.38835	0.599
Mof_Mo	Mo	0.90184	0.39226	0.37959	1.536
Mof_O 	O 	0.9759	0.5538	0.37064	-0.626
Mof_O 	O 	0.0969	0.7256	0.37813	-0.393
Mof_O 	O 	0.8162	0.3815	0.3527	-0.764
Mof_C 	C 	0.173	0.7751	0.35663	0.202
Mof_C 	C 	0.2015	0.884	0.35793	-0.05
Mof_H 	H 	0.152	0.7492	0.33523	-0.187
Mof_H 	H 	0.2286	0.7676	0.36243	-0.113
Mof_O 	O 	0.124	0.8981	0.34848	-0.245
Mof_C 	C 	0.2282	0.9218	0.39033	0.112
Mof_H 	H 	0.2577	0.9219	0.34373	-0.008
Mof_C 	C 	0.097	0.9407	0.37273	0.141
Mof_O 	O 	0.3057	0.0223	0.38943	-0.593
Mof_C 	C 	0.141	0.9197	0.40213	0.027
Mof_H 	H 	0.246	0.8812	0.40323	-0.067
Mof_N 	N 	0.9938	0.897	0.3719	-0.179
Mof_H 	H 	0.1279	0.0117	0.36933	-0.047
Mof_H 	H 	0.3613	0.0377	0.37743	0.034
Mof_O 	O 	0.159	0.9897	0.42605	-0.521
Mof_H 	H 	0.0952	0.8539	0.41023	0.015
Mof_C 	C 	0.9293	0.802	0.37053	0.147
Mof_C 	C 	0.9462	0.9459	0.37523	0.135
Mof_H 	H 	0.1195	0.9753	0.44403	0.171
Mof_N 	N 	0.8444	0.7869	0.37033	-0.205
Mof_H 	H 	0.9458	0.7529	0.36993	-0.096
Mof_N 	N 	0.9847	0.0431	0.37855	-0.181
Mof_C 	C 	0.8491	0.8754	0.37393	-0.058
Mof_H 	H 	0.7917	0.7307	0.36823	0.053
Mof_C 	C 	0.9173	0.0661	0.38213	0.166
Mof_C 	C 	0.7711	0.8943	0.37613	0.177
Mof_N 	N 	0.8112	0.9964	0.38213	-0.227
Mof_N 	N 	0.9439	0.1602	0.38653	-0.277
Mof_O 	O 	0.6841	0.8404	0.37533	-0.542
Mof_H 	H 	0.7717	0.0183	0.38593	-0.064
Mof_H 	H 	0.0053	0.2043	0.38693	0.093
Mof_H 	H 	0.8998	0.1769	0.38893	0.053
Mof_O 	O 	0.5647	0.8149	0.32873	-0.859
Mof_Na	Na	0.3959	0.6741	0.33173	0.858
Mof_Na	Na	0.621	0.936	0.34813	2.117
Mof_Na	Na	0.4797	0.024	0.37423	0.245
Mof_Mo	Mo	0.44902	0.31637	0.53602	0.844
Mof_O 	O 	0.5984	0.4532	0.55006	-0.486
Mof_O 	O 	0.4198	0.3828	0.57721	-0.478
Mof_O 	O 	0.5085	0.2773	0.56753	-0.597
Mof_O 	O 	0.4118	0.4069	0.52009	-0.698
Mof_P 	P 	0.6198	0.5566	0.55502	0.597
Mof_Mo	Mo	0.39226	0.49042	0.54626	1.543
Mof_O 	O 	0.5538	0.5779	0.53731	-0.624
Mof_O 	O 	0.7256	0.6287	0.5448	-0.394
Mof_O 	O 	0.3815	0.5653	0.51937	-0.764
Mof_C 	C 	0.7751	0.6021	0.5233	0.202
Mof_C 	C 	0.884	0.6825	0.5246	-0.051
Mof_H 	H 	0.7492	0.5972	0.5019	-0.188
Mof_H 	H 	0.7676	0.539	0.5291	-0.113
Mof_O 	O 	0.8981	0.7741	0.51515	-0.246
Mof_C 	C 	0.9218	0.6936	0.557	0.112
Mof_H 	H 	0.9219	0.6642	0.5104	-0.008
Mof_C 	C 	0.9407	0.8437	0.5394	0.141
Mof_O 	O 	0.0223	0.7166	0.5561	-0.593
Mof_C 	C 	0.9197	0.7787	0.5688	0.027
Mof_H 	H 	0.8812	0.6352	0.5699	-0.067
Mof_N 	N 	0.897	0.9032	0.53857	-0.178
Mof_H 	H 	0.0117	0.8838	0.536	-0.049
Mof_H 	H 	0.0377	0.6764	0.5441	0.033
Mof_O 	O 	0.9897	0.8307	0.59272	-0.52
Mof_H 	H 	0.8539	0.7587	0.5769	0.014
Mof_C 	C 	0.802	0.8727	0.5372	0.148
Mof_C 	C 	0.9459	0.9997	0.5419	0.138
Mof_H 	H 	0.9753	0.8558	0.6107	0.171
Mof_N 	N 	0.7869	0.9425	0.537	-0.204
Mof_H 	H 	0.7529	0.8071	0.5366	-0.095
Mof_N 	N 	0.0431	0.0584	0.54522	-0.18
Mof_C 	C 	0.8754	0.0263	0.5406	-0.063
Mof_H 	H 	0.7307	0.939	0.5349	0.053
Mof_C 	C 	0.0661	0.1488	0.5488	0.168
Mof_C 	C 	0.8943	0.1232	0.5428	0.178
Mof_N 	N 	0.9964	0.1852	0.5488	-0.229
Mof_N 	N 	0.1602	0.2163	0.5532	-0.273
Mof_O 	O 	0.8404	0.1563	0.542	-0.543
Mof_H 	H 	0.0183	0.2466	0.5526	-0.062
Mof_H 	H 	0.2043	0.199	0.5536	0.089
Mof_H 	H 	0.1769	0.2771	0.5556	0.053
Mof_O 	O 	0.8149	0.2502	0.4954	-0.858
Mof_Na	Na	0.6741	0.2782	0.4984	0.857
Mof_Na	Na	0.936	0.315	0.5148	2.114
Mof_Na	Na	0.024	0.5443	0.5409	0.247
Mof_Mo	Mo	0.68363	0.13265	0.20269	0.844
Mof_O 	O 	0.5468	0.1452	0.21673	-0.486
Mof_O 	O 	0.6172	0.037	0.24388	-0.476
Mof_O 	O 	0.7227	0.2312	0.2342	-0.597
Mof_O 	O 	0.5931	0.0049	0.18676	-0.695
Mof_P 	P 	0.4434	0.0632	0.22169	0.6
Mof_Mo	Mo	0.50958	0.90184	0.21293	1.537
Mof_O 	O 	0.4221	0.9759	0.20398	-0.626
Mof_O 	O 	0.3713	0.0969	0.21147	-0.393
Mof_O 	O 	0.4347	0.8162	0.18604	-0.764
Mof_C 	C 	0.3979	0.173	0.18997	0.202
Mof_C 	C 	0.3175	0.2015	0.19127	-0.051
Mof_H 	H 	0.4028	0.152	0.16857	-0.187
Mof_H 	H 	0.461	0.2286	0.19577	-0.113
Mof_O 	O 	0.2259	0.124	0.18182	-0.245
Mof_C 	C 	0.3064	0.2282	0.22367	0.116
Mof_H 	H 	0.3358	0.2577	0.17707	-0.007
Mof_C 	C 	0.1563	0.097	0.20607	0.148
Mof_O 	O 	0.2834	0.3057	0.22277	-0.595
Mof_C 	C 	0.2213	0.141	0.23547	0.024
Mof_H 	H 	0.3648	0.246	0.23657	-0.067
Mof_N 	N 	0.0968	0.9938	0.20524	-0.181
Mof_H 	H 	0.1162	0.1279	0.20267	-0.051
Mof_H 	H 	0.3236	0.3613	0.21077	0.035
Mof_O 	O 	0.1693	0.159	0.25939	-0.518
Mof_H 	H 	0.2413	0.0952	0.24357	0.016
Mof_C 	C 	0.1273	0.9293	0.20387	0.147
Mof_C 	C 	0.0003	0.9462	0.20857	0.135
Mof_H 	H 	0.1442	0.1195	0.27737	0.172
Mof_N 	N 	0.0575	0.8444	0.20367	-0.205
Mof_H 	H 	0.1929	0.9458	0.20327	-0.096
Mof_N 	N 	0.9416	0.9847	0.21189	-0.181
Mof_C 	C 	0.9737	0.8491	0.20727	-0.058
Mof_H 	H 	0.061	0.7917	0.20157	0.053
Mof_C 	C 	0.8512	0.9173	0.21547	0.165
Mof_C 	C 	0.8768	0.7711	0.20947	0.177
Mof_N 	N 	0.8148	0.8112	0.21547	-0.225
Mof_N 	N 	0.7837	0.9439	0.21987	-0.276
Mof_O 	O 	0.8437	0.6841	0.20867	-0.543
Mof_H 	H 	0.7534	0.7717	0.21927	-0.066
Mof_H 	H 	0.801	0.0053	0.22027	0.092
Mof_H 	H 	0.7229	0.8998	0.22227	0.053
Mof_O 	O 	0.7498	0.5647	0.16207	-0.861
Mof_Na	Na	0.7218	0.3959	0.16507	0.858
Mof_Na	Na	0.685	0.621	0.18147	2.127
Mof_Na	Na	0.4557	0.4797	0.20757	0.239
Mof_Mo	Mo	0.86735	0.55098	0.86935	0.844
Mof_O 	O 	0.8548	0.4016	0.88339	-0.486
Mof_O 	O 	0.963	0.5802	0.91054	-0.476
Mof_O 	O 	0.7688	0.4915	0.90086	-0.597
Mof_O 	O 	0.9951	0.5882	0.85342	-0.695
Mof_P 	P 	0.9368	0.3802	0.88835	0.599
Mof_Mo	Mo	0.09816	0.60774	0.87959	1.536
Mof_O 	O 	0.0241	0.4462	0.87064	-0.626
Mof_O 	O 	0.9031	0.2744	0.87813	-0.393
Mof_O 	O 	0.1838	0.6185	0.8527	-0.764
Mof_C 	C 	0.827	0.2249	0.85663	0.202
Mof_C 	C 	0.7985	0.116	0.85793	-0.05
Mof_H 	H 	0.848	0.2508	0.83523	-0.187
Mof_H 	H 	0.7714	0.2324	0.86243	-0.113
Mof_O 	O 	0.876	0.1019	0.84848	-0.245
Mof_C 	C 	0.7718	0.0782	0.89033	0.111
Mof_H 	H 	0.7423	0.0781	0.84373	-0.008
Mof_C 	C 	0.903	0.0593	0.87273	0.14
Mof_O 	O 	0.6943	0.9777	0.88943	-0.592
Mof_C 	C 	0.859	0.0803	0.90213	0.027
Mof_H 	H 	0.754	0.1188	0.90323	-0.067
Mof_N 	N 	0.0062	0.103	0.8719	-0.179
Mof_H 	H 	0.8721	0.9883	0.86933	-0.047
Mof_H 	H 	0.6387	0.9623	0.87743	0.034
Mof_O 	O 	0.841	0.0103	0.92605	-0.521
Mof_H 	H 	0.9048	0.1461	0.91023	0.015
Mof_C 	C 	0.0707	0.198	0.87053	0.147
Mof_C 	C 	0.0538	0.0541	0.87523	0.135
Mof_H 	H 	0.8805	0.0247	0.94403	0.171
Mof_N 	N 	0.1556	0.2131	0.87033	-0.205
Mof_H 	H 	0.0542	0.2471	0.86993	-0.096
Mof_N 	N 	0.0153	0.9569	0.87855	-0.181
Mof_C 	C 	0.1509	0.1246	0.87393	-0.058
Mof_H 	H 	0.2083	0.2693	0.86823	0.053
Mof_C 	C 	0.0827	0.9339	0.88213	0.166
Mof_C 	C 	0.2289	0.1057	0.87613	0.177
Mof_N 	N 	0.1888	0.0036	0.88213	-0.227
Mof_N 	N 	0.0561	0.8398	0.88653	-0.277
Mof_O 	O 	0.3159	0.1596	0.87533	-0.542
Mof_H 	H 	0.2283	0.9817	0.88593	-0.064
Mof_H 	H 	0.9947	0.7957	0.88693	0.093
Mof_H 	H 	0.1002	0.8231	0.88893	0.053
Mof_O 	O 	0.4353	0.1851	0.82873	-0.859
Mof_Na	Na	0.6041	0.3259	0.83173	0.858
Mof_Na	Na	0.379	0.064	0.84813	2.117
Mof_Na	Na	0.5203	0.976	0.87423	0.246
Mof_Mo	Mo	0.68363	0.55098	0.63065	0.844
Mof_O 	O 	0.5468	0.4016	0.61661	-0.486
Mof_O 	O 	0.6172	0.5802	0.58946	-0.478
Mof_O 	O 	0.7227	0.4915	0.59914	-0.597
Mof_O 	O 	0.5931	0.5882	0.64658	-0.698
Mof_P 	P 	0.4434	0.3802	0.61165	0.597
Mof_Mo	Mo	0.50958	0.60774	0.62041	1.543
Mof_O 	O 	0.4221	0.4462	0.62936	-0.624
Mof_O 	O 	0.3713	0.2744	0.62187	-0.394
Mof_O 	O 	0.4347	0.6185	0.6473	-0.764
Mof_C 	C 	0.3979	0.2249	0.64337	0.202
Mof_C 	C 	0.3175	0.116	0.64207	-0.051
Mof_H 	H 	0.4028	0.2508	0.66477	-0.188
Mof_H 	H 	0.461	0.2324	0.63757	-0.113
Mof_O 	O 	0.2259	0.1019	0.65152	-0.246
Mof_C 	C 	0.3064	0.0782	0.60967	0.112
Mof_H 	H 	0.3358	0.0781	0.65627	-0.008
Mof_C 	C 	0.1563	0.0593	0.62727	0.141
Mof_O 	O 	0.2834	0.9777	0.61057	-0.593
Mof_C 	C 	0.2213	0.0803	0.59787	0.027
Mof_H 	H 	0.3648	0.1188	0.59677	-0.067
Mof_N 	N 	0.0968	0.103	0.6281	-0.178
Mof_H 	H 	0.1162	0.9883	0.63067	-0.049
Mof_H 	H 	0.3236	0.9623	0.62257	0.033
Mof_O 	O 	0.1693	0.0103	0.57395	-0.52
Mof_H 	H 	0.2413	0.1461	0.58977	0.014
Mof_C 	C 	0.1273	0.198	0.62947	0.148
Mof_C 	C 	0.0003	0.0541	0.62477	0.138
Mof_H 	H 	0.1442	0.0247	0.55597	0.171
Mof_N 	N 	0.0575	0.2131	0.62967	-0.204
Mof_H 	H 	0.1929	0.2471	0.63007	-0.095
Mof_N 	N 	0.9416	0.9569	0.62145	-0.18
Mof_C 	C 	0.9737	0.1246	0.62607	-0.063
Mof_H 	H 	0.061	0.2693	0.63177	0.053
Mof_C 	C 	0.8512	0.9339	0.61787	0.168
Mof_C 	C 	0.8768	0.1057	0.62387	0.178
Mof_N 	N 	0.8148	0.0036	0.61787	-0.229
Mof_N 	N 	0.7837	0.8398	0.61347	-0.273
Mof_O 	O 	0.8437	0.1596	0.62467	-0.543
Mof_H 	H 	0.7534	0.9817	0.61407	-0.062
Mof_H 	H 	0.801	0.7957	0.61307	0.089
Mof_H 	H 	0.7229	0.8231	0.61107	0.053
Mof_O 	O 	0.7498	0.1851	0.67127	-0.858
Mof_Na	Na	0.7218	0.3259	0.66827	0.857
Mof_Na	Na	0.685	0.064	0.65187	2.114
Mof_Na	Na	0.4557	0.976	0.62577	0.247
Mof_Mo	Mo	0.86735	0.31637	0.96398	0.844
Mof_O 	O 	0.8548	0.4532	0.94994	-0.486
Mof_O 	O 	0.963	0.3828	0.92279	-0.476
Mof_O 	O 	0.7688	0.2773	0.93247	-0.597
Mof_O 	O 	0.9951	0.4069	0.97991	-0.695
Mof_P 	P 	0.9368	0.5566	0.94498	0.599
Mof_Mo	Mo	0.09816	0.49042	0.95374	1.537
Mof_O 	O 	0.0241	0.5779	0.96269	-0.626
Mof_O 	O 	0.9031	0.6287	0.9552	-0.393
Mof_O 	O 	0.1838	0.5653	0.98063	-0.764
Mof_C 	C 	0.827	0.6021	0.9767	0.203
Mof_C 	C 	0.7985	0.6825	0.9754	-0.051
Mof_H 	H 	0.848	0.5972	0.9981	-0.187
Mof_H 	H 	0.7714	0.539	0.9709	-0.113
Mof_O 	O 	0.876	0.7741	0.98485	-0.245
Mof_C 	C 	0.7718	0.6936	0.943	0.116
Mof_H 	H 	0.7423	0.6642	0.9896	-0.007
Mof_C 	C 	0.903	0.8437	0.9606	0.148
Mof_O 	O 	0.6943	0.7166	0.9439	-0.595
Mof_C 	C 	0.859	0.7787	0.9312	0.024
Mof_H 	H 	0.754	0.6352	0.9301	-0.067
Mof_N 	N 	0.0062	0.9032	0.96143	-0.181
Mof_H 	H 	0.8721	0.8838	0.964	-0.051
Mof_H 	H 	0.6387	0.6764	0.9559	0.035
Mof_O 	O 	0.841	0.8307	0.90728	-0.518
Mof_H 	H 	0.9048	0.7587	0.9231	0.016
Mof_C 	C 	0.0707	0.8727	0.9628	0.147
Mof_C 	C 	0.0538	0.9997	0.9581	0.136
Mof_H 	H 	0.8805	0.8558	0.8893	0.172
Mof_N 	N 	0.1556	0.9425	0.963	-0.205
Mof_H 	H 	0.0542	0.8071	0.9634	-0.096
Mof_N 	N 	0.0153	0.0584	0.95478	-0.181
Mof_C 	C 	0.1509	0.0263	0.9594	-0.059
Mof_H 	H 	0.2083	0.939	0.9651	0.053
Mof_C 	C 	0.0827	0.1488	0.9512	0.165
Mof_C 	C 	0.2289	0.1232	0.9572	0.177
Mof_N 	N 	0.1888	0.1852	0.9512	-0.225
Mof_N 	N 	0.0561	0.2163	0.9468	-0.276
Mof_O 	O 	0.3159	0.1563	0.958	-0.543
Mof_H 	H 	0.2283	0.2466	0.9474	-0.066
Mof_H 	H 	0.9947	0.199	0.9464	0.092
Mof_H 	H 	0.1002	0.2771	0.9444	0.052
Mof_O 	O 	0.4353	0.2502	0.0046	-0.861
Mof_Na	Na	0.6041	0.2782	0.0016	0.858
Mof_Na	Na	0.379	0.315	0.9852	2.126
Mof_Na	Na	0.5203	0.5443	0.9591	0.239
Mof_Mo	Mo	0.44902	0.13265	0.29731	0.844
Mof_O 	O 	0.5984	0.1452	0.28327	-0.486
Mof_O 	O 	0.4198	0.037	0.25612	-0.476
Mof_O 	O 	0.5085	0.2312	0.2658	-0.597
Mof_O 	O 	0.4118	0.0049	0.31324	-0.695
Mof_P 	P 	0.6198	0.0632	0.27831	0.599
Mof_Mo	Mo	0.39226	0.90184	0.28707	1.536
Mof_O 	O 	0.5538	0.9759	0.29602	-0.626
Mof_O 	O 	0.7256	0.0969	0.28853	-0.393
Mof_O 	O 	0.3815	0.8162	0.31396	-0.764
Mof_C 	C 	0.7751	0.173	0.31003	0.202
Mof_C 	C 	0.884	0.2015	0.30873	-0.05
Mof_H 	H 	0.7492	0.152	0.33143	-0.187
Mof_H 	H 	0.7676	0.2286	0.30423	-0.113
Mof_O 	O 	0.8981	0.124	0.31818	-0.245
Mof_C 	C 	0.9218	0.2282	0.27633	0.112
Mof_H 	H 	0.9219	0.2577	0.32293	-0.008
Mof_C 	C 	0.9407	0.097	0.29393	0.141
Mof_O 	O 	0.0223	0.3057	0.27723	-0.593
Mof_C 	C 	0.9197	0.141	0.26453	0.027
Mof_H 	H 	0.8812	0.246	0.26343	-0.067
Mof_N 	N 	0.897	0.9938	0.29476	-0.179
Mof_H 	H 	0.0117	0.1279	0.29733	-0.047
Mof_H 	H 	0.0377	0.3613	0.28923	0.034
Mof_O 	O 	0.9897	0.159	0.24061	-0.521
Mof_H 	H 	0.8539	0.0952	0.25643	0.015
Mof_C 	C 	0.802	0.9293	0.29613	0.147
Mof_C 	C 	0.9459	0.9462	0.29143	0.135
Mof_H 	H 	0.9753	0.1195	0.22263	0.171
Mof_N 	N 	0.7869	0.8444	0.29633	-0.205
Mof_H 	H 	0.7529	0.9458	0.29673	-0.096
Mof_N 	N 	0.0431	0.9847	0.28811	-0.181
Mof_C 	C 	0.8754	0.8491	0.29273	-0.058
Mof_H 	H 	0.7307	0.7917	0.29843	0.053
Mof_C 	C 	0.0661	0.9173	0.28453	0.166
Mof_C 	C 	0.8943	0.7711	0.29053	0.177
Mof_N 	N 	0.9964	0.8112	0.28453	-0.227
Mof_N 	N 	0.1602	0.9439	0.28013	-0.277
Mof_O 	O 	0.8404	0.6841	0.29133	-0.542
Mof_H 	H 	0.0183	0.7717	0.28073	-0.064
Mof_H 	H 	0.2043	0.0053	0.27973	0.093
Mof_H 	H 	0.1769	0.8998	0.27773	0.053
Mof_O 	O 	0.8149	0.5647	0.33793	-0.859
Mof_Na	Na	0.6741	0.3959	0.33493	0.858
Mof_Na	Na	0.936	0.621	0.31853	2.117
Mof_Na	Na	0.024	0.4797	0.29243	0.245
Mof_Mo	Mo	0.31637	0.44902	0.13065	0.844
Mof_O 	O 	0.4532	0.5984	0.11661	-0.486
Mof_O 	O 	0.3828	0.4198	0.08946	-0.478
Mof_O 	O 	0.2773	0.5085	0.09914	-0.597
Mof_O 	O 	0.4069	0.4118	0.14658	-0.698
Mof_P 	P 	0.5566	0.6198	0.11165	0.597
Mof_Mo	Mo	0.49042	0.39226	0.12041	1.543
Mof_O 	O 	0.5779	0.5538	0.12936	-0.624
Mof_O 	O 	0.6287	0.7256	0.12187	-0.394
Mof_O 	O 	0.5653	0.3815	0.1473	-0.764
Mof_C 	C 	0.6021	0.7751	0.14337	0.202
Mof_C 	C 	0.6825	0.884	0.14207	-0.05
Mof_H 	H 	0.5972	0.7492	0.16477	-0.188
Mof_H 	H 	0.539	0.7676	0.13757	-0.113
Mof_O 	O 	0.7741	0.8981	0.15152	-0.246
Mof_C 	C 	0.6936	0.9218	0.10967	0.112
Mof_H 	H 	0.6642	0.9219	0.15627	-0.008
Mof_C 	C 	0.8437	0.9407	0.12727	0.14
Mof_O 	O 	0.7166	0.0223	0.11057	-0.593
Mof_C 	C 	0.7787	0.9197	0.09787	0.027
Mof_H 	H 	0.6352	0.8812	0.09677	-0.067
Mof_N 	N 	0.9032	0.897	0.1281	-0.178
Mof_H 	H 	0.8838	0.0117	0.13067	-0.049
Mof_H 	H 	0.6764	0.0377	0.12257	0.033
Mof_O 	O 	0.8307	0.9897	0.07395	-0.52
Mof_H 	H 	0.7587	0.8539	0.08977	0.014
Mof_C 	C 	0.8727	0.802	0.12947	0.148
Mof_C 	C 	0.9997	0.9459	0.12477	0.138
Mof_H 	H 	0.8558	0.9753	0.05597	0.171
Mof_N 	N 	0.9425	0.7869	0.12967	-0.204
Mof_H 	H 	0.8071	0.7529	0.13007	-0.095
Mof_N 	N 	0.0584	0.0431	0.12145	-0.179
Mof_C 	C 	0.0263	0.8754	0.12607	-0.063
Mof_H 	H 	0.939	0.7307	0.13177	0.053
Mof_C 	C 	0.1488	0.0661	0.11787	0.168
Mof_C 	C 	0.1232	0.8943	0.12387	0.178
Mof_N 	N 	0.1852	0.9964	0.11787	-0.229
Mof_N 	N 	0.2163	0.1602	0.11347	-0.273
Mof_O 	O 	0.1563	0.8404	0.12467	-0.543
Mof_H 	H 	0.2466	0.0183	0.11407	-0.062
Mof_H 	H 	0.199	0.2043	0.11307	0.089
Mof_H 	H 	0.2771	0.1769	0.11107	0.053
Mof_O 	O 	0.2502	0.8149	0.17127	-0.858
Mof_Na	Na	0.2782	0.6741	0.16827	0.857
Mof_Na	Na	0.315	0.936	0.15187	2.114
Mof_Na	Na	0.5443	0.024	0.12577	0.247
Mof_Mo	Mo	0.13265	0.68363	0.46398	0.844
Mof_O 	O 	0.1452	0.5468	0.44994	-0.486
Mof_O 	O 	0.037	0.6172	0.42279	-0.476
Mof_O 	O 	0.2312	0.7227	0.43247	-0.597
Mof_O 	O 	0.0049	0.5931	0.47991	-0.695
Mof_P 	P 	0.0632	0.4434	0.44498	0.6
Mof_Mo	Mo	0.90184	0.50958	0.45374	1.537
Mof_O 	O 	0.9759	0.4221	0.46269	-0.626
Mof_O 	O 	0.0969	0.3713	0.4552	-0.393
Mof_O 	O 	0.8162	0.4347	0.48063	-0.764
Mof_C 	C 	0.173	0.3979	0.4767	0.202
Mof_C 	C 	0.2015	0.3175	0.4754	-0.051
Mof_H 	H 	0.152	0.4028	0.4981	-0.187
Mof_H 	H 	0.2286	0.461	0.4709	-0.113
Mof_O 	O 	0.124	0.2259	0.48485	-0.245
Mof_C 	C 	0.2282	0.3064	0.443	0.116
Mof_H 	H 	0.2577	0.3358	0.4896	-0.007
Mof_C 	C 	0.097	0.1563	0.4606	0.148
Mof_O 	O 	0.3057	0.2834	0.4439	-0.595
Mof_C 	C 	0.141	0.2213	0.4312	0.024
Mof_H 	H 	0.246	0.3648	0.4301	-0.067
Mof_N 	N 	0.9938	0.0968	0.46143	-0.181
Mof_H 	H 	0.1279	0.1162	0.464	-0.051
Mof_H 	H 	0.3613	0.3236	0.4559	0.035
Mof_O 	O 	0.159	0.1693	0.40728	-0.518
Mof_H 	H 	0.0952	0.2413	0.4231	0.016
Mof_C 	C 	0.9293	0.1273	0.4628	0.147
Mof_C 	C 	0.9462	0.0003	0.4581	0.136
Mof_H 	H 	0.1195	0.1442	0.3893	0.172
Mof_N 	N 	0.8444	0.0575	0.463	-0.205
Mof_H 	H 	0.9458	0.1929	0.4634	-0.096
Mof_N 	N 	0.9847	0.9416	0.45478	-0.181
Mof_C 	C 	0.8491	0.9737	0.4594	-0.058
Mof_H 	H 	0.7917	0.061	0.4651	0.053
Mof_C 	C 	0.9173	0.8512	0.4512	0.165
Mof_C 	C 	0.7711	0.8768	0.4572	0.177
Mof_N 	N 	0.8112	0.8148	0.4512	-0.225
Mof_N 	N 	0.9439	0.7837	0.4468	-0.276
Mof_O 	O 	0.6841	0.8437	0.458	-0.543
Mof_H 	H 	0.7717	0.7534	0.4474	-0.066
Mof_H 	H 	0.0053	0.801	0.4464	0.092
Mof_H 	H 	0.8998	0.7229	0.4444	0.052
Mof_O 	O 	0.5647	0.7498	0.5046	-0.861
Mof_Na	Na	0.3959	0.7218	0.5016	0.858
Mof_Na	Na	0.621	0.685	0.4852	2.127
Mof_Na	Na	0.4797	0.4557	0.4591	0.239
Mof_Mo	Mo	0.55098	0.86735	0.79731	0.844
Mof_O 	O 	0.4016	0.8548	0.78327	-0.486
Mof_O 	O 	0.5802	0.963	0.75612	-0.476
Mof_O 	O 	0.4915	0.7688	0.7658	-0.597
Mof_O 	O 	0.5882	0.9951	0.81324	-0.695
Mof_P 	P 	0.3802	0.9368	0.77831	0.599
Mof_Mo	Mo	0.60774	0.09816	0.78707	1.536
Mof_O 	O 	0.4462	0.0241	0.79602	-0.626
Mof_O 	O 	0.2744	0.9031	0.78853	-0.393
Mof_O 	O 	0.6185	0.1838	0.81396	-0.764
Mof_C 	C 	0.2249	0.827	0.81003	0.202
Mof_C 	C 	0.116	0.7985	0.80873	-0.05
Mof_H 	H 	0.2508	0.848	0.83143	-0.187
Mof_H 	H 	0.2324	0.7714	0.80423	-0.113
Mof_O 	O 	0.1019	0.876	0.81818	-0.245
Mof_C 	C 	0.0782	0.7718	0.77633	0.112
Mof_H 	H 	0.0781	0.7423	0.82293	-0.008
Mof_C 	C 	0.0593	0.903	0.79393	0.141
Mof_O 	O 	0.9777	0.6943	0.77723	-0.593
Mof_C 	C 	0.0803	0.859	0.76453	0.027
Mof_H 	H 	0.1188	0.754	0.76343	-0.067
Mof_N 	N 	0.103	0.0062	0.79476	-0.179
Mof_H 	H 	0.9883	0.8721	0.79733	-0.047
Mof_H 	H 	0.9623	0.6387	0.78923	0.034
Mof_O 	O 	0.0103	0.841	0.74061	-0.521
Mof_H 	H 	0.1461	0.9048	0.75643	0.015
Mof_C 	C 	0.198	0.0707	0.79613	0.147
Mof_C 	C 	0.0541	0.0538	0.79143	0.135
Mof_H 	H 	0.0247	0.8805	0.72263	0.171
Mof_N 	N 	0.2131	0.1556	0.79633	-0.205
Mof_H 	H 	0.2471	0.0542	0.79673	-0.096
Mof_N 	N 	0.9569	0.0153	0.78811	-0.181
Mof_C 	C 	0.1246	0.1509	0.79273	-0.058
Mof_H 	H 	0.2693	0.2083	0.79843	0.053
Mof_C 	C 	0.9339	0.0827	0.78453	0.166
Mof_C 	C 	0.1057	0.2289	0.79053	0.177
Mof_N 	N 	0.0036	0.1888	0.78453	-0.227
Mof_N 	N 	0.8398	0.0561	0.78013	-0.277
Mof_O 	O 	0.1596	0.3159	0.79133	-0.542
Mof_H 	H 	0.9817	0.2283	0.78073	-0.064
Mof_H 	H 	0.7957	0.9947	0.77973	0.093
Mof_H 	H 	0.8231	0.1002	0.77773	0.053
Mof_O 	O 	0.1851	0.4353	0.83793	-0.859
Mof_Na	Na	0.3259	0.6041	0.83493	0.858
Mof_Na	Na	0.064	0.379	0.81853	2.117
Mof_Na	Na	0.976	0.5203	0.79243	0.245
Mof_Mo	Mo	0.36552	0.63448	0.08333	0.76
Mof_O 	O 	0.568	0.432	0.08333	-0.759
Mof_Mo	Mo	0.36552	0.73104	0.75	0.761
Mof_O 	O 	0.568	0.136	0.75	-0.757
Mof_Mo	Mo	0.26896	0.63448	0.41667	0.761
Mof_O 	O 	0.864	0.432	0.41667	-0.757
Mof_Mo	Mo	0.63448	0.36552	0.58333	0.76
Mof_O 	O 	0.432	0.568	0.58333	-0.759
Mof_Mo	Mo	0.63448	0.26896	0.25	0.761
Mof_O 	O 	0.432	0.864	0.25	-0.757
Mof_Mo	Mo	0.73104	0.36552	0.91667	0.761
Mof_O 	O 	0.136	0.568	0.91667	-0.757
Mof_Na	Na	0.8499	0.1501	0.08333	1.653
Mof_Na	Na	0.8499	0.6998	0.75	1.655
Mof_Na	Na	0.3002	0.1501	0.41667	1.655
Mof_Na	Na	0.1501	0.8499	0.58333	1.653
Mof_Na	Na	0.1501	0.3002	0.25	1.655
Mof_Na	Na	0.6998	0.8499	0.91667	1.655
_end
