data_functionalizedCrystal
_audit_creation_method	'EQeq! by Chris Wilmer'
_symmetry_space_group_name_H-M	'P1'
_symmetry_Int_Tables_number	1
_symmetry_cell_setting	triclinic
loop_
_symmetry_equiv_pos_as_xyz
  x,y,z
_cell_length_a	18.5503
_cell_length_b	18.5503
_cell_length_c	38.8068
_cell_angle_alpha	90
_cell_angle_beta	90
_cell_angle_gamma	120
loop_
_atom_site_label
_atom_site_type_symbol
_atom_site_fract_x
_atom_site_fract_y
_atom_site_fract_z
_atom_site_charge
Mof_C 	C 	0.4522	0.0919	0.02763	0.419
Mof_C 	C 	0.43	0.1505	0.04467	-0.208
Mof_C 	C 	0.4	0.1347	0.07805	0.333
Mof_H 	H 	0.3904	0.0863	0.0892	-0.03
Mof_O 	O 	0.48133	0.11018	0.99732	-0.392
Mof_O 	O 	0.44081	0.02942	0.04454	-0.386
Mof_C 	C 	0.2818	0.104	0.14234	-3.031
Mof_C 	C 	0.2659	0.0961	0.17691	1.076
Mof_H 	H 	0.2145	0.0564	0.1877	-0.268
Mof_C 	C 	0.2153	0.0346	0.1167	-8.657
Mof_F 	F 	0.205	0.0673	0.08738	1.127
Mof_F 	F 	0.2392	0.9789	0.11017	1.071
Mof_F 	F 	0.1392	0.9896	0.1306	1.382
Mof_H 	H 	0.2466	0.0626	0.1254	6.727
Mof_C 	C 	0.11887	0.42523	0.36096	0.416
Mof_C 	C 	0.09667	0.48383	0.378	-0.208
Mof_C 	C 	0.06667	0.46803	0.41138	0.328
Mof_H 	H 	0.05707	0.41963	0.42253	-0.031
Mof_O 	O 	0.148	0.44351	0.33065	-0.391
Mof_O 	O 	0.10748	0.36275	0.37787	-0.388
Mof_C 	C 	0.94847	0.43733	0.47567	-3
Mof_C 	C 	0.93257	0.42943	0.51024	1.056
Mof_H 	H 	0.88117	0.38973	0.52103	-0.264
Mof_C 	C 	0.88197	0.36793	0.45003	-8.606
Mof_F 	F 	0.87167	0.40063	0.42071	1.117
Mof_F 	F 	0.90587	0.31223	0.4435	1.067
Mof_F 	F 	0.80587	0.32293	0.46393	1.378
Mof_H 	H 	0.91327	0.39593	0.45873	6.682
Mof_C 	C 	0.78553	0.75857	0.6943	0.414
Mof_C 	C 	0.76333	0.81717	0.71134	-0.203
Mof_C 	C 	0.73333	0.80137	0.74472	0.323
Mof_H 	H 	0.72373	0.75297	0.75587	-0.029
Mof_O 	O 	0.81466	0.77685	0.66399	-0.39
Mof_O 	O 	0.77414	0.69609	0.71121	-0.388
Mof_C 	C 	0.61513	0.77067	0.80901	-3.004
Mof_C 	C 	0.59923	0.76277	0.84358	1.052
Mof_H 	H 	0.54783	0.72307	0.85437	-0.263
Mof_C 	C 	0.54863	0.70127	0.78337	-8.628
Mof_F 	F 	0.53833	0.73397	0.75405	1.12
Mof_F 	F 	0.57253	0.64557	0.77684	1.069
Mof_F 	F 	0.47253	0.65627	0.79727	1.382
Mof_H 	H 	0.57993	0.72927	0.79207	6.697
Mof_C 	C 	0.9081	0.3603	0.02763	0.42
Mof_C 	C 	0.8495	0.2795	0.04467	-0.211
Mof_C 	C 	0.8653	0.2653	0.07805	0.336
Mof_H 	H 	0.9137	0.3041	0.0892	-0.032
Mof_O 	O 	0.88982	0.37115	0.99732	-0.394
Mof_O 	O 	0.97058	0.41139	0.04454	-0.387
Mof_C 	C 	0.896	0.1778	0.14234	-3.036
Mof_C 	C 	0.9039	0.1698	0.17691	1.076
Mof_H 	H 	0.9436	0.1581	0.1877	-0.268
Mof_C 	C 	0.9654	0.1807	0.1167	-8.689
Mof_F 	F 	0.9327	0.1377	0.08738	1.131
Mof_F 	F 	0.0211	0.2603	0.11017	1.075
Mof_F 	F 	0.0104	0.1496	0.1306	1.39
Mof_H 	H 	0.9374	0.184	0.1254	6.748
Mof_C 	C 	0.57477	0.69363	0.36096	0.416
Mof_C 	C 	0.51617	0.61283	0.378	-0.207
Mof_C 	C 	0.53197	0.59863	0.41138	0.328
Mof_H 	H 	0.58037	0.63743	0.42253	-0.03
Mof_O 	O 	0.55649	0.70448	0.33065	-0.39
Mof_O 	O 	0.63725	0.74472	0.37787	-0.388
Mof_C 	C 	0.56267	0.51113	0.47567	-3
Mof_C 	C 	0.57057	0.50313	0.51024	1.056
Mof_H 	H 	0.61027	0.49143	0.52103	-0.264
Mof_C 	C 	0.63207	0.51403	0.45003	-8.604
Mof_F 	F 	0.59937	0.47103	0.42071	1.116
Mof_F 	F 	0.68777	0.59363	0.4435	1.066
Mof_F 	F 	0.67707	0.48293	0.46393	1.377
Mof_H 	H 	0.60407	0.51733	0.45873	6.681
Mof_C 	C 	0.24143	0.02697	0.6943	0.405
Mof_C 	C 	0.18283	0.94617	0.71134	-0.19
Mof_C 	C 	0.19863	0.93197	0.74472	0.316
Mof_H 	H 	0.24703	0.97077	0.75587	-0.024
Mof_O 	O 	0.22315	0.03782	0.66399	-0.389
Mof_O 	O 	0.30391	0.07806	0.71121	-0.387
Mof_C 	C 	0.22933	0.84447	0.80901	-3.004
Mof_C 	C 	0.23723	0.83647	0.84358	1.053
Mof_H 	H 	0.27693	0.82477	0.85437	-0.263
Mof_C 	C 	0.29873	0.84737	0.78337	-8.639
Mof_F 	F 	0.26603	0.80437	0.75405	1.122
Mof_F 	F 	0.35443	0.92697	0.77684	1.073
Mof_F 	F 	0.34373	0.81627	0.79727	1.384
Mof_H 	H 	0.27073	0.85067	0.79207	6.704
Mof_C 	C 	0.6397	0.5478	0.02763	0.417
Mof_C 	C 	0.7205	0.57	0.04467	-0.209
Mof_C 	C 	0.7347	0.6	0.07805	0.332
Mof_H 	H 	0.6959	0.6096	0.0892	-0.032
Mof_O 	O 	0.62885	0.51867	0.99732	-0.391
Mof_O 	O 	0.58861	0.55919	0.04454	-0.388
Mof_C 	C 	0.8222	0.7182	0.14234	-3.006
Mof_C 	C 	0.8302	0.7341	0.17691	1.057
Mof_H 	H 	0.8419	0.7855	0.1877	-0.264
Mof_C 	C 	0.8193	0.7847	0.1167	-8.638
Mof_F 	F 	0.8623	0.795	0.08738	1.121
Mof_F 	F 	0.7397	0.7608	0.11017	1.071
Mof_F 	F 	0.8504	0.8608	0.1306	1.383
Mof_H 	H 	0.816	0.7534	0.1254	6.704
Mof_C 	C 	0.30637	0.88113	0.36096	0.416
Mof_C 	C 	0.38717	0.90333	0.378	-0.208
Mof_C 	C 	0.40137	0.93333	0.41138	0.328
Mof_H 	H 	0.36257	0.94293	0.42253	-0.031
Mof_O 	O 	0.29552	0.852	0.33065	-0.391
Mof_O 	O 	0.25528	0.89252	0.37787	-0.388
Mof_C 	C 	0.48887	0.05153	0.47567	-3
Mof_C 	C 	0.49687	0.06743	0.51024	1.056
Mof_H 	H 	0.50857	0.11883	0.52103	-0.264
Mof_C 	C 	0.48597	0.11803	0.45003	-8.606
Mof_F 	F 	0.52897	0.12833	0.42071	1.117
Mof_F 	F 	0.40637	0.09413	0.4435	1.067
Mof_F 	F 	0.51707	0.19413	0.46393	1.378
Mof_H 	H 	0.48267	0.08673	0.45873	6.682
Mof_C 	C 	0.97303	0.21447	0.6943	0.406
Mof_C 	C 	0.05383	0.23667	0.71134	-0.195
Mof_C 	C 	0.06803	0.26667	0.74472	0.321
Mof_H 	H 	0.02923	0.27627	0.75587	-0.026
Mof_O 	O 	0.96218	0.18534	0.66399	-0.391
Mof_O 	O 	0.92194	0.22586	0.71121	-0.388
Mof_C 	C 	0.15553	0.38487	0.80901	-3.002
Mof_C 	C 	0.16353	0.40077	0.84358	1.056
Mof_H 	H 	0.17523	0.45217	0.85437	-0.264
Mof_C 	C 	0.15263	0.45137	0.78337	-8.619
Mof_F 	F 	0.19563	0.46167	0.75405	1.119
Mof_F 	F 	0.07303	0.42747	0.77684	1.069
Mof_F 	F 	0.18373	0.52747	0.79727	1.38
Mof_H 	H 	0.14933	0.42007	0.79207	6.69
Mof_C 	C 	0.0919	0.4522	0.97237	0.418
Mof_C 	C 	0.1505	0.43	0.95533	-0.209
Mof_C 	C 	0.1347	0.4	0.92195	0.332
Mof_H 	H 	0.0863	0.3904	0.9108	-0.031
Mof_O 	O 	0.11018	0.48133	0.00268	-0.393
Mof_O 	O 	0.02942	0.44081	0.95546	-0.387
Mof_C 	C 	0.104	0.2818	0.85766	-3.032
Mof_C 	C 	0.0961	0.2659	0.82309	1.075
Mof_H 	H 	0.0564	0.2145	0.8123	-0.269
Mof_C 	C 	0.0346	0.2153	0.8833	-8.658
Mof_F 	F 	0.0673	0.205	0.91262	1.126
Mof_F 	F 	0.9789	0.2392	0.88983	1.07
Mof_F 	F 	0.9896	0.1392	0.8694	1.382
Mof_H 	H 	0.0626	0.2466	0.8746	6.727
Mof_C 	C 	0.75857	0.78553	0.3057	0.414
Mof_C 	C 	0.81717	0.76333	0.28866	-0.203
Mof_C 	C 	0.80137	0.73333	0.25528	0.323
Mof_H 	H 	0.75297	0.72373	0.24413	-0.029
Mof_O 	O 	0.77685	0.81466	0.33601	-0.39
Mof_O 	O 	0.69609	0.77414	0.28879	-0.388
Mof_C 	C 	0.77067	0.61513	0.19099	-3.004
Mof_C 	C 	0.76277	0.59923	0.15642	1.052
Mof_H 	H 	0.72307	0.54783	0.14563	-0.263
Mof_C 	C 	0.70127	0.54863	0.21663	-8.628
Mof_F 	F 	0.73397	0.53833	0.24595	1.12
Mof_F 	F 	0.64557	0.57253	0.22316	1.069
Mof_F 	F 	0.65627	0.47253	0.20273	1.382
Mof_H 	H 	0.72927	0.57993	0.20793	6.697
Mof_C 	C 	0.42523	0.11887	0.63904	0.416
Mof_C 	C 	0.48383	0.09667	0.622	-0.208
Mof_C 	C 	0.46803	0.06667	0.58862	0.328
Mof_H 	H 	0.41963	0.05707	0.57747	-0.031
Mof_O 	O 	0.44351	0.148	0.66935	-0.391
Mof_O 	O 	0.36275	0.10748	0.62213	-0.388
Mof_C 	C 	0.43733	0.94847	0.52433	-3
Mof_C 	C 	0.42943	0.93257	0.48976	1.056
Mof_H 	H 	0.38973	0.88117	0.47897	-0.264
Mof_C 	C 	0.36793	0.88197	0.54997	-8.606
Mof_F 	F 	0.40063	0.87167	0.57929	1.117
Mof_F 	F 	0.31223	0.90587	0.5565	1.067
Mof_F 	F 	0.32293	0.80587	0.53607	1.378
Mof_H 	H 	0.39593	0.91327	0.54127	6.682
Mof_C 	C 	0.3603	0.9081	0.97237	0.42
Mof_C 	C 	0.2795	0.8495	0.95533	-0.211
Mof_C 	C 	0.2653	0.8653	0.92195	0.336
Mof_H 	H 	0.3041	0.9137	0.9108	-0.032
Mof_O 	O 	0.37115	0.88982	0.00268	-0.394
Mof_O 	O 	0.41139	0.97058	0.95546	-0.387
Mof_C 	C 	0.1778	0.896	0.85766	-3.036
Mof_C 	C 	0.1698	0.9039	0.82309	1.076
Mof_H 	H 	0.1581	0.9436	0.8123	-0.268
Mof_C 	C 	0.1807	0.9654	0.8833	-8.689
Mof_F 	F 	0.1377	0.9327	0.91262	1.131
Mof_F 	F 	0.2603	0.0211	0.88983	1.075
Mof_F 	F 	0.1496	0.0104	0.8694	1.39
Mof_H 	H 	0.184	0.9374	0.8746	6.748
Mof_C 	C 	0.02697	0.24143	0.3057	0.405
Mof_C 	C 	0.94617	0.18283	0.28866	-0.19
Mof_C 	C 	0.93197	0.19863	0.25528	0.316
Mof_H 	H 	0.97077	0.24703	0.24413	-0.024
Mof_O 	O 	0.03782	0.22315	0.33601	-0.389
Mof_O 	O 	0.07806	0.30391	0.28879	-0.387
Mof_C 	C 	0.84447	0.22933	0.19099	-3.004
Mof_C 	C 	0.83647	0.23723	0.15642	1.053
Mof_H 	H 	0.82477	0.27693	0.14563	-0.263
Mof_C 	C 	0.84737	0.29873	0.21663	-8.639
Mof_F 	F 	0.80437	0.26603	0.24595	1.122
Mof_F 	F 	0.92697	0.35443	0.22316	1.073
Mof_F 	F 	0.81627	0.34373	0.20273	1.384
Mof_H 	H 	0.85067	0.27073	0.20793	6.704
Mof_C 	C 	0.69363	0.57477	0.63904	0.416
Mof_C 	C 	0.61283	0.51617	0.622	-0.207
Mof_C 	C 	0.59863	0.53197	0.58862	0.328
Mof_H 	H 	0.63743	0.58037	0.57747	-0.03
Mof_O 	O 	0.70448	0.55649	0.66935	-0.39
Mof_O 	O 	0.74472	0.63725	0.62213	-0.388
Mof_C 	C 	0.51113	0.56267	0.52433	-3
Mof_C 	C 	0.50313	0.57057	0.48976	1.056
Mof_H 	H 	0.49143	0.61027	0.47897	-0.264
Mof_C 	C 	0.51403	0.63207	0.54997	-8.604
Mof_F 	F 	0.47103	0.59937	0.57929	1.116
Mof_F 	F 	0.59363	0.68777	0.5565	1.066
Mof_F 	F 	0.48293	0.67707	0.53607	1.377
Mof_H 	H 	0.51733	0.60407	0.54127	6.681
Mof_C 	C 	0.5478	0.6397	0.97237	0.417
Mof_C 	C 	0.57	0.7205	0.95533	-0.209
Mof_C 	C 	0.6	0.7347	0.92195	0.332
Mof_H 	H 	0.6096	0.6959	0.9108	-0.032
Mof_O 	O 	0.51867	0.62885	0.00268	-0.391
Mof_O 	O 	0.55919	0.58861	0.95546	-0.388
Mof_C 	C 	0.7182	0.8222	0.85766	-3.006
Mof_C 	C 	0.7341	0.8302	0.82309	1.057
Mof_H 	H 	0.7855	0.8419	0.8123	-0.264
Mof_C 	C 	0.7847	0.8193	0.8833	-8.638
Mof_F 	F 	0.795	0.8623	0.91262	1.121
Mof_F 	F 	0.7608	0.7397	0.88983	1.071
Mof_F 	F 	0.8608	0.8504	0.8694	1.383
Mof_H 	H 	0.7534	0.816	0.8746	6.704
Mof_C 	C 	0.21447	0.97303	0.3057	0.406
Mof_C 	C 	0.23667	0.05383	0.28866	-0.195
Mof_C 	C 	0.26667	0.06803	0.25528	0.321
Mof_H 	H 	0.27627	0.02923	0.24413	-0.026
Mof_O 	O 	0.18534	0.96218	0.33601	-0.391
Mof_O 	O 	0.22586	0.92194	0.28879	-0.388
Mof_C 	C 	0.38487	0.15553	0.19099	-3.002
Mof_C 	C 	0.40077	0.16353	0.15642	1.056
Mof_H 	H 	0.45217	0.17523	0.14563	-0.264
Mof_C 	C 	0.45137	0.15263	0.21663	-8.619
Mof_F 	F 	0.46167	0.19563	0.24595	1.119
Mof_F 	F 	0.42747	0.07303	0.22316	1.069
Mof_F 	F 	0.52747	0.18373	0.20273	1.38
Mof_H 	H 	0.42007	0.14933	0.20793	6.69
Mof_C 	C 	0.88113	0.30637	0.63904	0.416
Mof_C 	C 	0.90333	0.38717	0.622	-0.208
Mof_C 	C 	0.93333	0.40137	0.58862	0.328
Mof_H 	H 	0.94293	0.36257	0.57747	-0.031
Mof_O 	O 	0.852	0.29552	0.66935	-0.391
Mof_O 	O 	0.89252	0.25528	0.62213	-0.388
Mof_C 	C 	0.05153	0.48887	0.52433	-3
Mof_C 	C 	0.06743	0.49687	0.48976	1.056
Mof_H 	H 	0.11883	0.50857	0.47897	-0.264
Mof_C 	C 	0.11803	0.48597	0.54997	-8.606
Mof_F 	F 	0.12833	0.52897	0.57929	1.117
Mof_F 	F 	0.09413	0.40637	0.5565	1.067
Mof_F 	F 	0.19413	0.51707	0.53607	1.378
Mof_H 	H 	0.08673	0.48267	0.54127	6.682
Mof_C 	C 	0.5478	0.9081	0.97237	0.418
Mof_C 	C 	0.57	0.8495	0.95533	-0.209
Mof_C 	C 	0.6	0.8653	0.92195	0.332
Mof_H 	H 	0.6096	0.9137	0.9108	-0.031
Mof_O 	O 	0.51867	0.88982	0.00268	-0.393
Mof_O 	O 	0.55919	0.97058	0.95546	-0.387
Mof_C 	C 	0.7182	0.896	0.85766	-3.032
Mof_C 	C 	0.7341	0.9039	0.82309	1.075
Mof_H 	H 	0.7855	0.9436	0.8123	-0.269
Mof_C 	C 	0.7847	0.9654	0.8833	-8.658
Mof_F 	F 	0.795	0.9327	0.91262	1.126
Mof_F 	F 	0.7608	0.0211	0.88983	1.07
Mof_F 	F 	0.8608	0.0104	0.8694	1.382
Mof_H 	H 	0.7534	0.9374	0.8746	6.727
Mof_C 	C 	0.21447	0.24143	0.3057	0.414
Mof_C 	C 	0.23667	0.18283	0.28866	-0.203
Mof_C 	C 	0.26667	0.19863	0.25528	0.323
Mof_H 	H 	0.27627	0.24703	0.24413	-0.029
Mof_O 	O 	0.18534	0.22315	0.33601	-0.39
Mof_O 	O 	0.22586	0.30391	0.28879	-0.388
Mof_C 	C 	0.38487	0.22933	0.19099	-3.004
Mof_C 	C 	0.40077	0.23723	0.15642	1.052
Mof_H 	H 	0.45217	0.27693	0.14563	-0.263
Mof_C 	C 	0.45137	0.29873	0.21663	-8.628
Mof_F 	F 	0.46167	0.26603	0.24595	1.12
Mof_F 	F 	0.42747	0.35443	0.22316	1.069
Mof_F 	F 	0.52747	0.34373	0.20273	1.382
Mof_H 	H 	0.42007	0.27073	0.20793	6.697
Mof_C 	C 	0.88113	0.57477	0.63904	0.416
Mof_C 	C 	0.90333	0.51617	0.622	-0.208
Mof_C 	C 	0.93333	0.53197	0.58862	0.328
Mof_H 	H 	0.94293	0.58037	0.57747	-0.031
Mof_O 	O 	0.852	0.55649	0.66935	-0.391
Mof_O 	O 	0.89252	0.63725	0.62213	-0.388
Mof_C 	C 	0.05153	0.56267	0.52433	-3
Mof_C 	C 	0.06743	0.57057	0.48976	1.056
Mof_H 	H 	0.11883	0.61027	0.47897	-0.264
Mof_C 	C 	0.11803	0.63207	0.54997	-8.606
Mof_F 	F 	0.12833	0.59937	0.57929	1.117
Mof_F 	F 	0.09413	0.68777	0.5565	1.067
Mof_F 	F 	0.19413	0.67707	0.53607	1.378
Mof_H 	H 	0.08673	0.60407	0.54127	6.682
Mof_C 	C 	0.0919	0.6397	0.97237	0.42
Mof_C 	C 	0.1505	0.7205	0.95533	-0.211
Mof_C 	C 	0.1347	0.7347	0.92195	0.336
Mof_H 	H 	0.0863	0.6959	0.9108	-0.032
Mof_O 	O 	0.11018	0.62885	0.00268	-0.394
Mof_O 	O 	0.02942	0.58861	0.95546	-0.387
Mof_C 	C 	0.104	0.8222	0.85766	-3.036
Mof_C 	C 	0.0961	0.8302	0.82309	1.076
Mof_H 	H 	0.0564	0.8419	0.8123	-0.268
Mof_C 	C 	0.0346	0.8193	0.8833	-8.689
Mof_F 	F 	0.0673	0.8623	0.91262	1.131
Mof_F 	F 	0.9789	0.7397	0.88983	1.075
Mof_F 	F 	0.9896	0.8504	0.8694	1.39
Mof_H 	H 	0.0626	0.816	0.8746	6.748
Mof_C 	C 	0.75857	0.97303	0.3057	0.405
Mof_C 	C 	0.81717	0.05383	0.28866	-0.19
Mof_C 	C 	0.80137	0.06803	0.25528	0.316
Mof_H 	H 	0.75297	0.02923	0.24413	-0.024
Mof_O 	O 	0.77685	0.96218	0.33601	-0.389
Mof_O 	O 	0.69609	0.92194	0.28879	-0.387
Mof_C 	C 	0.77067	0.15553	0.19099	-3.004
Mof_C 	C 	0.76277	0.16353	0.15642	1.053
Mof_H 	H 	0.72307	0.17523	0.14563	-0.263
Mof_C 	C 	0.70127	0.15263	0.21663	-8.639
Mof_F 	F 	0.73397	0.19563	0.24595	1.122
Mof_F 	F 	0.64557	0.07303	0.22316	1.073
Mof_F 	F 	0.65627	0.18373	0.20273	1.384
Mof_H 	H 	0.72927	0.14933	0.20793	6.704
Mof_C 	C 	0.42523	0.30637	0.63904	0.416
Mof_C 	C 	0.48383	0.38717	0.622	-0.207
Mof_C 	C 	0.46803	0.40137	0.58862	0.328
Mof_H 	H 	0.41963	0.36257	0.57747	-0.03
Mof_O 	O 	0.44351	0.29552	0.66935	-0.39
Mof_O 	O 	0.36275	0.25528	0.62213	-0.388
Mof_C 	C 	0.43733	0.48887	0.52433	-3
Mof_C 	C 	0.42943	0.49687	0.48976	1.056
Mof_H 	H 	0.38973	0.50857	0.47897	-0.264
Mof_C 	C 	0.36793	0.48597	0.54997	-8.604
Mof_F 	F 	0.40063	0.52897	0.57929	1.116
Mof_F 	F 	0.31223	0.40637	0.5565	1.066
Mof_F 	F 	0.32293	0.51707	0.53607	1.377
Mof_H 	H 	0.39593	0.48267	0.54127	6.681
Mof_C 	C 	0.3603	0.4522	0.97237	0.417
Mof_C 	C 	0.2795	0.43	0.95533	-0.209
Mof_C 	C 	0.2653	0.4	0.92195	0.332
Mof_H 	H 	0.3041	0.3904	0.9108	-0.032
Mof_O 	O 	0.37115	0.48133	0.00268	-0.391
Mof_O 	O 	0.41139	0.44081	0.95546	-0.388
Mof_C 	C 	0.1778	0.2818	0.85766	-3.006
Mof_C 	C 	0.1698	0.2659	0.82309	1.057
Mof_H 	H 	0.1581	0.2145	0.8123	-0.264
Mof_C 	C 	0.1807	0.2153	0.8833	-8.638
Mof_F 	F 	0.1377	0.205	0.91262	1.121
Mof_F 	F 	0.2603	0.2392	0.88983	1.071
Mof_F 	F 	0.1496	0.1392	0.8694	1.383
Mof_H 	H 	0.184	0.2466	0.8746	6.704
Mof_C 	C 	0.02697	0.78553	0.3057	0.406
Mof_C 	C 	0.94617	0.76333	0.28866	-0.195
Mof_C 	C 	0.93197	0.73333	0.25528	0.321
Mof_H 	H 	0.97077	0.72373	0.24413	-0.026
Mof_O 	O 	0.03782	0.81466	0.33601	-0.391
Mof_O 	O 	0.07806	0.77414	0.28879	-0.388
Mof_C 	C 	0.84447	0.61513	0.19099	-3.002
Mof_C 	C 	0.83647	0.59923	0.15642	1.056
Mof_H 	H 	0.82477	0.54783	0.14563	-0.264
Mof_C 	C 	0.84737	0.54863	0.21663	-8.619
Mof_F 	F 	0.80437	0.53833	0.24595	1.119
Mof_F 	F 	0.92697	0.57253	0.22316	1.069
Mof_F 	F 	0.81627	0.47253	0.20273	1.38
Mof_H 	H 	0.85067	0.57993	0.20793	6.69
Mof_C 	C 	0.69363	0.11887	0.63904	0.416
Mof_C 	C 	0.61283	0.09667	0.622	-0.208
Mof_C 	C 	0.59863	0.06667	0.58862	0.328
Mof_H 	H 	0.63743	0.05707	0.57747	-0.031
Mof_O 	O 	0.70448	0.148	0.66935	-0.391
Mof_O 	O 	0.74472	0.10748	0.62213	-0.388
Mof_C 	C 	0.51113	0.94847	0.52433	-3
Mof_C 	C 	0.50313	0.93257	0.48976	1.056
Mof_H 	H 	0.49143	0.88117	0.47897	-0.264
Mof_C 	C 	0.51403	0.88197	0.54997	-8.606
Mof_F 	F 	0.47103	0.87167	0.57929	1.117
Mof_F 	F 	0.59363	0.90587	0.5565	1.067
Mof_F 	F 	0.48293	0.80587	0.53607	1.378
Mof_H 	H 	0.51733	0.91327	0.54127	6.682
Mof_C 	C 	0.9081	0.5478	0.02763	0.418
Mof_C 	C 	0.8495	0.57	0.04467	-0.209
Mof_C 	C 	0.8653	0.6	0.07805	0.332
Mof_H 	H 	0.9137	0.6096	0.0892	-0.031
Mof_O 	O 	0.88982	0.51867	0.99732	-0.393
Mof_O 	O 	0.97058	0.55919	0.04454	-0.387
Mof_C 	C 	0.896	0.7182	0.14234	-3.032
Mof_C 	C 	0.9039	0.7341	0.17691	1.075
Mof_H 	H 	0.9436	0.7855	0.1877	-0.269
Mof_C 	C 	0.9654	0.7847	0.1167	-8.658
Mof_F 	F 	0.9327	0.795	0.08738	1.126
Mof_F 	F 	0.0211	0.7608	0.11017	1.07
Mof_F 	F 	0.0104	0.8608	0.1306	1.382
Mof_H 	H 	0.9374	0.7534	0.1254	6.727
Mof_C 	C 	0.57477	0.88113	0.36096	0.416
Mof_C 	C 	0.51617	0.90333	0.378	-0.208
Mof_C 	C 	0.53197	0.93333	0.41138	0.328
Mof_H 	H 	0.58037	0.94293	0.42253	-0.031
Mof_O 	O 	0.55649	0.852	0.33065	-0.391
Mof_O 	O 	0.63725	0.89252	0.37787	-0.388
Mof_C 	C 	0.56267	0.05153	0.47567	-3
Mof_C 	C 	0.57057	0.06743	0.51024	1.056
Mof_H 	H 	0.61027	0.11883	0.52103	-0.264
Mof_C 	C 	0.63207	0.11803	0.45003	-8.606
Mof_F 	F 	0.59937	0.12833	0.42071	1.117
Mof_F 	F 	0.68777	0.09413	0.4435	1.067
Mof_F 	F 	0.67707	0.19413	0.46393	1.378
Mof_H 	H 	0.60407	0.08673	0.45873	6.682
Mof_C 	C 	0.24143	0.21447	0.6943	0.414
Mof_C 	C 	0.18283	0.23667	0.71134	-0.203
Mof_C 	C 	0.19863	0.26667	0.74472	0.323
Mof_H 	H 	0.24703	0.27627	0.75587	-0.029
Mof_O 	O 	0.22315	0.18534	0.66399	-0.39
Mof_O 	O 	0.30391	0.22586	0.71121	-0.388
Mof_C 	C 	0.22933	0.38487	0.80901	-3.004
Mof_C 	C 	0.23723	0.40077	0.84358	1.052
Mof_H 	H 	0.27693	0.45217	0.85437	-0.263
Mof_C 	C 	0.29873	0.45137	0.78337	-8.628
Mof_F 	F 	0.26603	0.46167	0.75405	1.12
Mof_F 	F 	0.35443	0.42747	0.77684	1.069
Mof_F 	F 	0.34373	0.52747	0.79727	1.382
Mof_H 	H 	0.27073	0.42007	0.79207	6.697
Mof_C 	C 	0.6397	0.0919	0.02763	0.42
Mof_C 	C 	0.7205	0.1505	0.04467	-0.211
Mof_C 	C 	0.7347	0.1347	0.07805	0.336
Mof_H 	H 	0.6959	0.0863	0.0892	-0.032
Mof_O 	O 	0.62885	0.11018	0.99732	-0.394
Mof_O 	O 	0.58861	0.02942	0.04454	-0.387
Mof_C 	C 	0.8222	0.104	0.14234	-3.036
Mof_C 	C 	0.8302	0.0961	0.17691	1.076
Mof_H 	H 	0.8419	0.0564	0.1877	-0.268
Mof_C 	C 	0.8193	0.0346	0.1167	-8.689
Mof_F 	F 	0.8623	0.0673	0.08738	1.131
Mof_F 	F 	0.7397	0.9789	0.11017	1.075
Mof_F 	F 	0.8504	0.9896	0.1306	1.39
Mof_H 	H 	0.816	0.0626	0.1254	6.748
Mof_C 	C 	0.30637	0.42523	0.36096	0.416
Mof_C 	C 	0.38717	0.48383	0.378	-0.207
Mof_C 	C 	0.40137	0.46803	0.41138	0.328
Mof_H 	H 	0.36257	0.41963	0.42253	-0.03
Mof_O 	O 	0.29552	0.44351	0.33065	-0.39
Mof_O 	O 	0.25528	0.36275	0.37787	-0.388
Mof_C 	C 	0.48887	0.43733	0.47567	-3
Mof_C 	C 	0.49687	0.42943	0.51024	1.056
Mof_H 	H 	0.50857	0.38973	0.52103	-0.264
Mof_C 	C 	0.48597	0.36793	0.45003	-8.604
Mof_F 	F 	0.52897	0.40063	0.42071	1.116
Mof_F 	F 	0.40637	0.31223	0.4435	1.066
Mof_F 	F 	0.51707	0.32293	0.46393	1.377
Mof_H 	H 	0.48267	0.39593	0.45873	6.681
Mof_C 	C 	0.97303	0.75857	0.6943	0.405
Mof_C 	C 	0.05383	0.81717	0.71134	-0.19
Mof_C 	C 	0.06803	0.80137	0.74472	0.316
Mof_H 	H 	0.02923	0.75297	0.75587	-0.024
Mof_O 	O 	0.96218	0.77685	0.66399	-0.389
Mof_O 	O 	0.92194	0.69609	0.71121	-0.387
Mof_C 	C 	0.15553	0.77067	0.80901	-3.004
Mof_C 	C 	0.16353	0.76277	0.84358	1.053
Mof_H 	H 	0.17523	0.72307	0.85437	-0.263
Mof_C 	C 	0.15263	0.70127	0.78337	-8.639
Mof_F 	F 	0.19563	0.73397	0.75405	1.122
Mof_F 	F 	0.07303	0.64557	0.77684	1.073
Mof_F 	F 	0.18373	0.65627	0.79727	1.384
Mof_H 	H 	0.14933	0.72927	0.79207	6.704
Mof_C 	C 	0.4522	0.3603	0.02763	0.417
Mof_C 	C 	0.43	0.2795	0.04467	-0.209
Mof_C 	C 	0.4	0.2653	0.07805	0.332
Mof_H 	H 	0.3904	0.3041	0.0892	-0.032
Mof_O 	O 	0.48133	0.37115	0.99732	-0.391
Mof_O 	O 	0.44081	0.41139	0.04454	-0.388
Mof_C 	C 	0.2818	0.1778	0.14234	-3.006
Mof_C 	C 	0.2659	0.1698	0.17691	1.057
Mof_H 	H 	0.2145	0.1581	0.1877	-0.264
Mof_C 	C 	0.2153	0.1807	0.1167	-8.638
Mof_F 	F 	0.205	0.1377	0.08738	1.121
Mof_F 	F 	0.2392	0.2603	0.11017	1.071
Mof_F 	F 	0.1392	0.1496	0.1306	1.383
Mof_H 	H 	0.2466	0.184	0.1254	6.704
Mof_C 	C 	0.11887	0.69363	0.36096	0.416
Mof_C 	C 	0.09667	0.61283	0.378	-0.208
Mof_C 	C 	0.06667	0.59863	0.41138	0.328
Mof_H 	H 	0.05707	0.63743	0.42253	-0.031
Mof_O 	O 	0.148	0.70448	0.33065	-0.391
Mof_O 	O 	0.10748	0.74472	0.37787	-0.388
Mof_C 	C 	0.94847	0.51113	0.47567	-3
Mof_C 	C 	0.93257	0.50313	0.51024	1.056
Mof_H 	H 	0.88117	0.49143	0.52103	-0.264
Mof_C 	C 	0.88197	0.51403	0.45003	-8.606
Mof_F 	F 	0.87167	0.47103	0.42071	1.117
Mof_F 	F 	0.90587	0.59363	0.4435	1.067
Mof_F 	F 	0.80587	0.48293	0.46393	1.378
Mof_H 	H 	0.91327	0.51733	0.45873	6.682
Mof_C 	C 	0.78553	0.02697	0.6943	0.406
Mof_C 	C 	0.76333	0.94617	0.71134	-0.195
Mof_C 	C 	0.73333	0.93197	0.74472	0.321
Mof_H 	H 	0.72373	0.97077	0.75587	-0.026
Mof_O 	O 	0.81466	0.03782	0.66399	-0.391
Mof_O 	O 	0.77414	0.07806	0.71121	-0.388
Mof_C 	C 	0.61513	0.84447	0.80901	-3.002
Mof_C 	C 	0.59923	0.83647	0.84358	1.056
Mof_H 	H 	0.54783	0.82477	0.85437	-0.264
Mof_C 	C 	0.54863	0.84737	0.78337	-8.619
Mof_F 	F 	0.53833	0.80437	0.75405	1.119
Mof_F 	F 	0.57253	0.92697	0.77684	1.069
Mof_F 	F 	0.47253	0.81627	0.79727	1.38
Mof_H 	H 	0.57993	0.85067	0.79207	6.69
Mof_C 	C 	0.4449	0.22245	0.02802	0.196
Mof_H 	H 	0.465	0.2325	0.0055	0.024
Mof_C 	C 	0.3841	0.19205	0.09499	-0.571
Mof_C 	C 	0.3561	0.17805	0.13208	1.13
Mof_C 	C 	0.11157	0.55578	0.36135	0.193
Mof_H 	H 	0.13167	0.56583	0.33883	0.024
Mof_C 	C 	0.05077	0.52538	0.42832	-0.565
Mof_C 	C 	0.02277	0.51138	0.46541	1.116
Mof_C 	C 	0.77823	0.88912	0.69469	0.187
Mof_H 	H 	0.79833	0.89917	0.67217	0.028
Mof_C 	C 	0.71743	0.85872	0.76166	-0.559
Mof_C 	C 	0.68943	0.84472	0.79875	1.11
Mof_C 	C 	0.77755	0.22245	0.02802	0.198
Mof_H 	H 	0.7675	0.2325	0.0055	0.023
Mof_C 	C 	0.80795	0.19205	0.09499	-0.578
Mof_C 	C 	0.82195	0.17805	0.13208	1.142
Mof_C 	C 	0.44422	0.55578	0.36135	0.193
Mof_H 	H 	0.43417	0.56583	0.33883	0.024
Mof_C 	C 	0.47462	0.52538	0.42832	-0.565
Mof_C 	C 	0.48862	0.51138	0.46541	1.117
Mof_C 	C 	0.11088	0.88912	0.69469	0.18
Mof_H 	H 	0.10083	0.89917	0.67217	0.032
Mof_C 	C 	0.14128	0.85872	0.76166	-0.553
Mof_C 	C 	0.15528	0.84472	0.79875	1.103
Mof_C 	C 	0.77755	0.5551	0.02802	0.196
Mof_H 	H 	0.7675	0.535	0.0055	0.024
Mof_C 	C 	0.80795	0.6159	0.09499	-0.571
Mof_C 	C 	0.82195	0.6439	0.13208	1.13
Mof_C 	C 	0.44422	0.88843	0.36135	0.193
Mof_H 	H 	0.43417	0.86833	0.33883	0.024
Mof_C 	C 	0.47462	0.94923	0.42832	-0.565
Mof_C 	C 	0.48862	0.97723	0.46541	1.116
Mof_C 	C 	0.11088	0.22177	0.69469	0.187
Mof_H 	H 	0.10083	0.20167	0.67217	0.028
Mof_C 	C 	0.14128	0.28257	0.76166	-0.559
Mof_C 	C 	0.15528	0.31057	0.79875	1.11
Mof_C 	C 	0.22245	0.4449	0.97198	0.196
Mof_H 	H 	0.2325	0.465	0.9945	0.024
Mof_C 	C 	0.19205	0.3841	0.90501	-0.571
Mof_C 	C 	0.17805	0.3561	0.86792	1.13
Mof_C 	C 	0.88912	0.77823	0.30531	0.187
Mof_H 	H 	0.89917	0.79833	0.32783	0.028
Mof_C 	C 	0.85872	0.71743	0.23834	-0.559
Mof_C 	C 	0.84472	0.68943	0.20125	1.11
Mof_C 	C 	0.55578	0.11157	0.63865	0.193
Mof_H 	H 	0.56583	0.13167	0.66117	0.024
Mof_C 	C 	0.52538	0.05077	0.57168	-0.565
Mof_C 	C 	0.51138	0.02277	0.53459	1.116
Mof_C 	C 	0.22245	0.77755	0.97198	0.198
Mof_H 	H 	0.2325	0.7675	0.9945	0.023
Mof_C 	C 	0.19205	0.80795	0.90501	-0.578
Mof_C 	C 	0.17805	0.82195	0.86792	1.142
Mof_C 	C 	0.88912	0.11088	0.30531	0.18
Mof_H 	H 	0.89917	0.10083	0.32783	0.032
Mof_C 	C 	0.85872	0.14128	0.23834	-0.553
Mof_C 	C 	0.84472	0.15528	0.20125	1.103
Mof_C 	C 	0.55578	0.44422	0.63865	0.193
Mof_H 	H 	0.56583	0.43417	0.66117	0.024
Mof_C 	C 	0.52538	0.47462	0.57168	-0.565
Mof_C 	C 	0.51138	0.48862	0.53459	1.117
Mof_C 	C 	0.5551	0.77755	0.97198	0.196
Mof_H 	H 	0.535	0.7675	0.9945	0.024
Mof_C 	C 	0.6159	0.80795	0.90501	-0.571
Mof_C 	C 	0.6439	0.82195	0.86792	1.13
Mof_C 	C 	0.22177	0.11088	0.30531	0.187
Mof_H 	H 	0.20167	0.10083	0.32783	0.028
Mof_C 	C 	0.28257	0.14128	0.23834	-0.559
Mof_C 	C 	0.31057	0.15528	0.20125	1.11
Mof_C 	C 	0.88843	0.44422	0.63865	0.193
Mof_H 	H 	0.86833	0.43417	0.66117	0.024
Mof_C 	C 	0.94923	0.47462	0.57168	-0.565
Mof_C 	C 	0.97723	0.48862	0.53459	1.116
Mof_Cu	Cu	0.52406	0.04812	0.97214	0.915
Mof_Cu	Cu	0.19073	0.38145	0.30547	0.916
Mof_Cu	Cu	0.85739	0.71479	0.6388	0.916
Mof_Cu	Cu	0.95188	0.47594	0.97214	0.915
Mof_Cu	Cu	0.61855	0.80927	0.30547	0.916
Mof_Cu	Cu	0.28521	0.14261	0.6388	0.916
Mof_Cu	Cu	0.52406	0.47594	0.97214	0.916
Mof_Cu	Cu	0.19073	0.80927	0.30547	0.916
Mof_Cu	Cu	0.85739	0.14261	0.6388	0.916
Mof_Cu	Cu	0.04812	0.52406	0.02786	0.915
Mof_Cu	Cu	0.71479	0.85739	0.3612	0.916
Mof_Cu	Cu	0.38145	0.19073	0.69453	0.916
Mof_Cu	Cu	0.47594	0.95188	0.02786	0.915
Mof_Cu	Cu	0.14261	0.28521	0.3612	0.916
Mof_Cu	Cu	0.80927	0.61855	0.69453	0.916
Mof_Cu	Cu	0.47594	0.52406	0.02786	0.916
Mof_Cu	Cu	0.14261	0.85739	0.3612	0.916
Mof_Cu	Cu	0.80927	0.19073	0.69453	0.916
_end
