data_functionalizedCrystal
_audit_creation_method	'EQeq! by Chris Wilmer'
_symmetry_space_group_name_H-M	'P1'
_symmetry_Int_Tables_number	1
_symmetry_cell_setting	triclinic
loop_
_symmetry_equiv_pos_as_xyz
  x,y,z
_cell_length_a	35.2651
_cell_length_b	35.2651
_cell_length_c	35.2651
_cell_angle_alpha	60
_cell_angle_beta	60
_cell_angle_gamma	60
loop_
_atom_site_label
_atom_site_type_symbol
_atom_site_fract_x
_atom_site_fract_y
_atom_site_fract_z
_atom_site_charge
Mof_Ag	Ag	0.06886	0.88361	0.3154	0.546
Mof_Ag	Ag	0.007	0.81926	0.43473	0.558
Mof_Ag	Ag	0.38361	0.56886	0.73213	0.546
Mof_Ag	Ag	0.31926	0.507	0.73901	0.559
Mof_Ag	Ag	0.8154	0.73213	0.56886	0.546
Mof_Ag	Ag	0.93473	0.73901	0.507	0.559
Mof_Ag	Ag	0.23213	0.3154	0.88361	0.546
Mof_Ag	Ag	0.23901	0.43473	0.81926	0.559
Mof_Ag	Ag	0.06886	0.3154	0.73213	0.546
Mof_Ag	Ag	0.007	0.43473	0.73901	0.558
Mof_Ag	Ag	0.38361	0.73213	0.3154	0.546
Mof_Ag	Ag	0.31926	0.73901	0.43473	0.559
Mof_Ag	Ag	0.8154	0.56886	0.88361	0.546
Mof_Ag	Ag	0.93473	0.507	0.81926	0.559
Mof_Ag	Ag	0.23213	0.88361	0.56886	0.546
Mof_Ag	Ag	0.23901	0.81926	0.507	0.559
Mof_Ag	Ag	0.06886	0.73213	0.88361	0.545
Mof_Ag	Ag	0.007	0.73901	0.81926	0.557
Mof_Ag	Ag	0.38361	0.3154	0.56886	0.546
Mof_Ag	Ag	0.31926	0.43473	0.507	0.559
Mof_Ag	Ag	0.8154	0.88361	0.73213	0.546
Mof_Ag	Ag	0.93473	0.81926	0.73901	0.559
Mof_Ag	Ag	0.23213	0.56886	0.3154	0.546
Mof_Ag	Ag	0.23901	0.507	0.43473	0.559
Mof_Ag	Ag	0.11639	0.93114	0.1846	0.546
Mof_Ag	Ag	0.18074	0.993	0.06527	0.558
Mof_Ag	Ag	0.43114	0.61639	0.76787	0.546
Mof_Ag	Ag	0.493	0.68074	0.76099	0.559
Mof_Ag	Ag	0.26787	0.1846	0.93114	0.546
Mof_Ag	Ag	0.26099	0.06527	0.993	0.559
Mof_Ag	Ag	0.6846	0.76787	0.61639	0.546
Mof_Ag	Ag	0.56527	0.76099	0.68074	0.559
Mof_Ag	Ag	0.6846	0.93114	0.76787	0.546
Mof_Ag	Ag	0.56527	0.993	0.76099	0.559
Mof_Ag	Ag	0.26787	0.61639	0.1846	0.546
Mof_Ag	Ag	0.26099	0.68074	0.06527	0.559
Mof_Ag	Ag	0.43114	0.1846	0.61639	0.546
Mof_Ag	Ag	0.493	0.06527	0.68074	0.559
Mof_Ag	Ag	0.11639	0.76787	0.93114	0.546
Mof_Ag	Ag	0.18074	0.76099	0.993	0.558
Mof_Ag	Ag	0.26787	0.93114	0.61639	0.546
Mof_Ag	Ag	0.26099	0.993	0.68074	0.558
Mof_Ag	Ag	0.6846	0.61639	0.93114	0.546
Mof_Ag	Ag	0.56527	0.68074	0.993	0.559
Mof_Ag	Ag	0.11639	0.1846	0.76787	0.546
Mof_Ag	Ag	0.18074	0.06527	0.76099	0.559
Mof_Ag	Ag	0.43114	0.76787	0.1846	0.546
Mof_Ag	Ag	0.493	0.76099	0.06527	0.559
Mof_Ag	Ag	0.93114	0.11639	0.6846	0.546
Mof_Ag	Ag	0.993	0.18074	0.56527	0.558
Mof_Ag	Ag	0.61639	0.43114	0.26787	0.546
Mof_Ag	Ag	0.68074	0.493	0.26099	0.559
Mof_Ag	Ag	0.1846	0.26787	0.43114	0.546
Mof_Ag	Ag	0.06527	0.26099	0.493	0.559
Mof_Ag	Ag	0.76787	0.6846	0.11639	0.546
Mof_Ag	Ag	0.76099	0.56527	0.18074	0.559
Mof_Ag	Ag	0.93114	0.6846	0.26787	0.546
Mof_Ag	Ag	0.993	0.56527	0.26099	0.558
Mof_Ag	Ag	0.61639	0.26787	0.6846	0.546
Mof_Ag	Ag	0.68074	0.26099	0.56527	0.559
Mof_Ag	Ag	0.1846	0.43114	0.11639	0.546
Mof_Ag	Ag	0.06527	0.493	0.18074	0.559
Mof_Ag	Ag	0.76787	0.11639	0.43114	0.546
Mof_Ag	Ag	0.76099	0.18074	0.493	0.559
Mof_Ag	Ag	0.93114	0.26787	0.11639	0.545
Mof_Ag	Ag	0.993	0.26099	0.18074	0.557
Mof_Ag	Ag	0.61639	0.6846	0.43114	0.546
Mof_Ag	Ag	0.68074	0.56527	0.493	0.559
Mof_Ag	Ag	0.1846	0.11639	0.26787	0.546
Mof_Ag	Ag	0.06527	0.18074	0.26099	0.559
Mof_Ag	Ag	0.76787	0.43114	0.6846	0.546
Mof_Ag	Ag	0.76099	0.493	0.56527	0.559
Mof_Ag	Ag	0.88361	0.06886	0.8154	0.546
Mof_Ag	Ag	0.81926	0.007	0.93473	0.558
Mof_Ag	Ag	0.56886	0.38361	0.23213	0.546
Mof_Ag	Ag	0.507	0.31926	0.23901	0.559
Mof_Ag	Ag	0.73213	0.8154	0.06886	0.546
Mof_Ag	Ag	0.73901	0.93473	0.007	0.559
Mof_Ag	Ag	0.3154	0.23213	0.38361	0.546
Mof_Ag	Ag	0.43473	0.23901	0.31926	0.559
Mof_Ag	Ag	0.3154	0.06886	0.23213	0.546
Mof_Ag	Ag	0.43473	0.007	0.23901	0.559
Mof_Ag	Ag	0.73213	0.38361	0.8154	0.546
Mof_Ag	Ag	0.73901	0.31926	0.93473	0.559
Mof_Ag	Ag	0.56886	0.8154	0.38361	0.546
Mof_Ag	Ag	0.507	0.93473	0.31926	0.559
Mof_Ag	Ag	0.88361	0.23213	0.06886	0.546
Mof_Ag	Ag	0.81926	0.23901	0.007	0.558
Mof_Ag	Ag	0.73213	0.06886	0.38361	0.546
Mof_Ag	Ag	0.73901	0.007	0.31926	0.558
Mof_Ag	Ag	0.3154	0.38361	0.06886	0.546
Mof_Ag	Ag	0.43473	0.31926	0.007	0.559
Mof_Ag	Ag	0.88361	0.8154	0.23213	0.546
Mof_Ag	Ag	0.81926	0.93473	0.23901	0.559
Mof_Ag	Ag	0.56886	0.23213	0.8154	0.546
Mof_Ag	Ag	0.507	0.23901	0.93473	0.559
Mof_H 	H 	0.962	0.9834	0.3168	-0.006
Mof_H 	H 	0.9008	0.907	0.4422	-0.007
Mof_H 	H 	0.8427	0.9911	0.3515	-0.015
Mof_H 	H 	0.8768	0.0296	0.4152	-0.007
Mof_H 	H 	0.1599	0.8627	0.3453	-0.01
Mof_H 	H 	0.1033	0.7835	0.4695	-0.011
Mof_H 	H 	0.1485	0.8495	0.4689	-0.01
Mof_H 	H 	0.2357	0.7653	0.3953	-0.012
Mof_H 	H 	0.4834	0.462	0.7378	-0.006
Mof_H 	H 	0.407	0.4008	0.75	-0.007
Mof_H 	H 	0.4911	0.3427	0.8147	-0.015
Mof_H 	H 	0.5296	0.3768	0.6784	-0.007
Mof_H 	H 	0.3627	0.6599	0.6321	-0.01
Mof_H 	H 	0.2835	0.6033	0.6437	-0.011
Mof_H 	H 	0.3495	0.6485	0.5331	-0.009
Mof_H 	H 	0.2653	0.7357	0.6037	-0.012
Mof_H 	H 	0.8168	0.7378	0.462	-0.006
Mof_H 	H 	0.9422	0.75	0.4008	-0.007
Mof_H 	H 	0.8515	0.8147	0.3427	-0.015
Mof_H 	H 	0.9152	0.6784	0.3768	-0.007
Mof_H 	H 	0.8453	0.6321	0.6599	-0.01
Mof_H 	H 	0.9695	0.6437	0.6033	-0.011
Mof_H 	H 	0.9689	0.5331	0.6485	-0.009
Mof_H 	H 	0.8953	0.6037	0.7357	-0.012
Mof_H 	H 	0.2378	0.3168	0.9834	-0.006
Mof_H 	H 	0.25	0.4422	0.907	-0.007
Mof_H 	H 	0.3147	0.3515	0.9911	-0.016
Mof_H 	H 	0.1784	0.4152	0.0296	-0.007
Mof_H 	H 	0.1321	0.3453	0.8627	-0.01
Mof_H 	H 	0.1437	0.4695	0.7835	-0.011
Mof_H 	H 	0.0331	0.4689	0.8495	-0.01
Mof_H 	H 	0.1037	0.3953	0.7653	-0.012
Mof_H 	H 	0.962	0.3168	0.7378	-0.006
Mof_H 	H 	0.9008	0.4422	0.75	-0.007
Mof_H 	H 	0.8427	0.3515	0.8147	-0.015
Mof_H 	H 	0.8768	0.4152	0.6784	-0.007
Mof_H 	H 	0.1599	0.3453	0.6321	-0.01
Mof_H 	H 	0.1033	0.4695	0.6437	-0.011
Mof_H 	H 	0.1485	0.4689	0.5331	-0.01
Mof_H 	H 	0.2357	0.3953	0.6037	-0.012
Mof_H 	H 	0.4834	0.7378	0.3168	-0.006
Mof_H 	H 	0.407	0.75	0.4422	-0.007
Mof_H 	H 	0.4911	0.8147	0.3515	-0.015
Mof_H 	H 	0.5296	0.6784	0.4152	-0.007
Mof_H 	H 	0.3627	0.6321	0.3453	-0.01
Mof_H 	H 	0.2835	0.6437	0.4695	-0.011
Mof_H 	H 	0.3495	0.5331	0.4689	-0.009
Mof_H 	H 	0.2653	0.6037	0.3953	-0.012
Mof_H 	H 	0.8168	0.462	0.9834	-0.006
Mof_H 	H 	0.9422	0.4008	0.907	-0.007
Mof_H 	H 	0.8515	0.3427	0.9911	-0.015
Mof_H 	H 	0.9152	0.3768	0.0296	-0.007
Mof_H 	H 	0.8453	0.6599	0.8627	-0.01
Mof_H 	H 	0.9695	0.6033	0.7835	-0.01
Mof_H 	H 	0.9689	0.6485	0.8495	-0.009
Mof_H 	H 	0.8953	0.7357	0.7653	-0.012
Mof_H 	H 	0.2378	0.9834	0.462	-0.006
Mof_H 	H 	0.25	0.907	0.4008	-0.007
Mof_H 	H 	0.3147	0.9911	0.3427	-0.016
Mof_H 	H 	0.1784	0.0296	0.3768	-0.007
Mof_H 	H 	0.1321	0.8627	0.6599	-0.01
Mof_H 	H 	0.1437	0.7835	0.6033	-0.011
Mof_H 	H 	0.0331	0.8495	0.6485	-0.01
Mof_H 	H 	0.1037	0.7653	0.7357	-0.012
Mof_H 	H 	0.962	0.7378	0.9834	-0.006
Mof_H 	H 	0.9008	0.75	0.907	-0.007
Mof_H 	H 	0.8427	0.8147	0.9911	-0.015
Mof_H 	H 	0.8768	0.6784	0.0296	-0.007
Mof_H 	H 	0.1599	0.6321	0.8627	-0.01
Mof_H 	H 	0.1033	0.6437	0.7835	-0.011
Mof_H 	H 	0.1485	0.5331	0.8495	-0.01
Mof_H 	H 	0.2357	0.6037	0.7653	-0.012
Mof_H 	H 	0.4834	0.3168	0.462	-0.006
Mof_H 	H 	0.407	0.4422	0.4008	-0.007
Mof_H 	H 	0.4911	0.3515	0.3427	-0.015
Mof_H 	H 	0.5296	0.4152	0.3768	-0.007
Mof_H 	H 	0.3627	0.3453	0.6599	-0.01
Mof_H 	H 	0.2835	0.4695	0.6033	-0.011
Mof_H 	H 	0.3495	0.4689	0.6485	-0.009
Mof_H 	H 	0.2653	0.3953	0.7357	-0.012
Mof_H 	H 	0.8168	0.9834	0.7378	-0.006
Mof_H 	H 	0.9422	0.907	0.75	-0.007
Mof_H 	H 	0.8515	0.9911	0.8147	-0.015
Mof_H 	H 	0.9152	0.0296	0.6784	-0.007
Mof_H 	H 	0.8453	0.8627	0.6321	-0.01
Mof_H 	H 	0.9695	0.7835	0.6437	-0.01
Mof_H 	H 	0.9689	0.8495	0.5331	-0.009
Mof_H 	H 	0.8953	0.7653	0.6037	-0.012
Mof_H 	H 	0.2378	0.462	0.3168	-0.007
Mof_H 	H 	0.25	0.4008	0.4422	-0.008
Mof_H 	H 	0.3147	0.3427	0.3515	-0.016
Mof_H 	H 	0.1784	0.3768	0.4152	-0.008
Mof_H 	H 	0.1321	0.6599	0.3453	-0.011
Mof_H 	H 	0.1437	0.6033	0.4695	-0.012
Mof_H 	H 	0.0331	0.6485	0.4689	-0.011
Mof_H 	H 	0.1037	0.7357	0.3953	-0.013
Mof_H 	H 	0.0166	0.038	0.1832	-0.007
Mof_H 	H 	0.093	0.0992	0.0578	-0.008
Mof_H 	H 	0.0089	0.1573	0.1485	-0.015
Mof_H 	H 	0.9704	0.1232	0.0848	-0.008
Mof_H 	H 	0.1373	0.8401	0.1547	-0.011
Mof_H 	H 	0.2165	0.8967	0.0305	-0.012
Mof_H 	H 	0.1505	0.8515	0.0311	-0.01
Mof_H 	H 	0.2347	0.7643	0.1047	-0.013
Mof_H 	H 	0.538	0.5166	0.7622	-0.007
Mof_H 	H 	0.5992	0.593	0.75	-0.008
Mof_H 	H 	0.6573	0.5089	0.6853	-0.016
Mof_H 	H 	0.6232	0.4704	0.8216	-0.008
Mof_H 	H 	0.3401	0.6373	0.8679	-0.011
Mof_H 	H 	0.3967	0.7165	0.8563	-0.012
Mof_H 	H 	0.3515	0.6505	0.9669	-0.011
Mof_H 	H 	0.2643	0.7347	0.8963	-0.013
Mof_H 	H 	0.2622	0.1832	0.038	-0.007
Mof_H 	H 	0.25	0.0578	0.0992	-0.008
Mof_H 	H 	0.1853	0.1485	0.1573	-0.016
Mof_H 	H 	0.3216	0.0848	0.1232	-0.008
Mof_H 	H 	0.3679	0.1547	0.8401	-0.011
Mof_H 	H 	0.3563	0.0305	0.8967	-0.012
Mof_H 	H 	0.4669	0.0311	0.8515	-0.011
Mof_H 	H 	0.3963	0.1047	0.7643	-0.013
Mof_H 	H 	0.6832	0.7622	0.5166	-0.007
Mof_H 	H 	0.5578	0.75	0.593	-0.008
Mof_H 	H 	0.6485	0.6853	0.5089	-0.016
Mof_H 	H 	0.5848	0.8216	0.4704	-0.008
Mof_H 	H 	0.6547	0.8679	0.6373	-0.011
Mof_H 	H 	0.5305	0.8563	0.7165	-0.012
Mof_H 	H 	0.5311	0.9669	0.6505	-0.011
Mof_H 	H 	0.6047	0.8963	0.7347	-0.013
Mof_H 	H 	0.6832	0.038	0.7622	-0.007
Mof_H 	H 	0.5578	0.0992	0.75	-0.008
Mof_H 	H 	0.6485	0.1573	0.6853	-0.016
Mof_H 	H 	0.5848	0.1232	0.8216	-0.008
Mof_H 	H 	0.6547	0.8401	0.8679	-0.011
Mof_H 	H 	0.5305	0.8967	0.8563	-0.012
Mof_H 	H 	0.5311	0.8515	0.9669	-0.011
Mof_H 	H 	0.6047	0.7643	0.8963	-0.013
Mof_H 	H 	0.2622	0.5166	0.1832	-0.007
Mof_H 	H 	0.25	0.593	0.0578	-0.008
Mof_H 	H 	0.1853	0.5089	0.1485	-0.016
Mof_H 	H 	0.3216	0.4704	0.0848	-0.008
Mof_H 	H 	0.3679	0.6373	0.1547	-0.011
Mof_H 	H 	0.3563	0.7165	0.0305	-0.012
Mof_H 	H 	0.4669	0.6505	0.0311	-0.011
Mof_H 	H 	0.3963	0.7347	0.1047	-0.013
Mof_H 	H 	0.538	0.1832	0.5166	-0.007
Mof_H 	H 	0.5992	0.0578	0.593	-0.008
Mof_H 	H 	0.6573	0.1485	0.5089	-0.016
Mof_H 	H 	0.6232	0.0848	0.4704	-0.008
Mof_H 	H 	0.3401	0.1547	0.6373	-0.011
Mof_H 	H 	0.3967	0.0305	0.7165	-0.012
Mof_H 	H 	0.3515	0.0311	0.6505	-0.01
Mof_H 	H 	0.2643	0.1047	0.7347	-0.013
Mof_H 	H 	0.0166	0.7622	0.038	-0.007
Mof_H 	H 	0.093	0.75	0.0992	-0.008
Mof_H 	H 	0.0089	0.6853	0.1573	-0.016
Mof_H 	H 	0.9704	0.8216	0.1232	-0.008
Mof_H 	H 	0.1373	0.8679	0.8401	-0.011
Mof_H 	H 	0.2165	0.8563	0.8967	-0.012
Mof_H 	H 	0.1505	0.9669	0.8515	-0.011
Mof_H 	H 	0.2347	0.8963	0.7643	-0.013
Mof_H 	H 	0.2622	0.038	0.5166	-0.007
Mof_H 	H 	0.25	0.0992	0.593	-0.008
Mof_H 	H 	0.1853	0.1573	0.5089	-0.016
Mof_H 	H 	0.3216	0.1232	0.4704	-0.008
Mof_H 	H 	0.3679	0.8401	0.6373	-0.011
Mof_H 	H 	0.3563	0.8967	0.7165	-0.012
Mof_H 	H 	0.4669	0.8515	0.6505	-0.011
Mof_H 	H 	0.3963	0.7643	0.7347	-0.013
Mof_H 	H 	0.6832	0.5166	0.038	-0.007
Mof_H 	H 	0.5578	0.593	0.0992	-0.008
Mof_H 	H 	0.6485	0.5089	0.1573	-0.016
Mof_H 	H 	0.5848	0.4704	0.1232	-0.008
Mof_H 	H 	0.6547	0.6373	0.8401	-0.011
Mof_H 	H 	0.5305	0.7165	0.8967	-0.012
Mof_H 	H 	0.5311	0.6505	0.8515	-0.01
Mof_H 	H 	0.6047	0.7347	0.7643	-0.013
Mof_H 	H 	0.0166	0.1832	0.7622	-0.007
Mof_H 	H 	0.093	0.0578	0.75	-0.008
Mof_H 	H 	0.0089	0.1485	0.6853	-0.016
Mof_H 	H 	0.9704	0.0848	0.8216	-0.008
Mof_H 	H 	0.1373	0.1547	0.8679	-0.011
Mof_H 	H 	0.2165	0.0305	0.8563	-0.012
Mof_H 	H 	0.1505	0.0311	0.9669	-0.011
Mof_H 	H 	0.2347	0.1047	0.8963	-0.013
Mof_H 	H 	0.538	0.7622	0.1832	-0.007
Mof_H 	H 	0.5992	0.75	0.0578	-0.008
Mof_H 	H 	0.6573	0.6853	0.1485	-0.016
Mof_H 	H 	0.6232	0.8216	0.0848	-0.008
Mof_H 	H 	0.3401	0.8679	0.1547	-0.011
Mof_H 	H 	0.3967	0.8563	0.0305	-0.012
Mof_H 	H 	0.3515	0.9669	0.0311	-0.011
Mof_H 	H 	0.2643	0.8963	0.1047	-0.013
Mof_H 	H 	0.038	0.0166	0.6832	-0.007
Mof_H 	H 	0.0992	0.093	0.5578	-0.008
Mof_H 	H 	0.1573	0.0089	0.6485	-0.016
Mof_H 	H 	0.1232	0.9704	0.5848	-0.008
Mof_H 	H 	0.8401	0.1373	0.6547	-0.011
Mof_H 	H 	0.8967	0.2165	0.5305	-0.012
Mof_H 	H 	0.8515	0.1505	0.5311	-0.011
Mof_H 	H 	0.7643	0.2347	0.6047	-0.013
Mof_H 	H 	0.5166	0.538	0.2622	-0.007
Mof_H 	H 	0.593	0.5992	0.25	-0.008
Mof_H 	H 	0.5089	0.6573	0.1853	-0.016
Mof_H 	H 	0.4704	0.6232	0.3216	-0.008
Mof_H 	H 	0.6373	0.3401	0.3679	-0.011
Mof_H 	H 	0.7165	0.3967	0.3563	-0.012
Mof_H 	H 	0.6505	0.3515	0.4669	-0.01
Mof_H 	H 	0.7347	0.2643	0.3963	-0.013
Mof_H 	H 	0.1832	0.2622	0.538	-0.007
Mof_H 	H 	0.0578	0.25	0.5992	-0.008
Mof_H 	H 	0.1485	0.1853	0.6573	-0.016
Mof_H 	H 	0.0848	0.3216	0.6232	-0.008
Mof_H 	H 	0.1547	0.3679	0.3401	-0.011
Mof_H 	H 	0.0305	0.3563	0.3967	-0.012
Mof_H 	H 	0.0311	0.4669	0.3515	-0.01
Mof_H 	H 	0.1047	0.3963	0.2643	-0.013
Mof_H 	H 	0.7622	0.6832	0.0166	-0.007
Mof_H 	H 	0.75	0.5578	0.093	-0.008
Mof_H 	H 	0.6853	0.6485	0.0089	-0.017
Mof_H 	H 	0.8216	0.5848	0.9704	-0.008
Mof_H 	H 	0.8679	0.6547	0.1373	-0.011
Mof_H 	H 	0.8563	0.5305	0.2165	-0.012
Mof_H 	H 	0.9669	0.5311	0.1505	-0.011
Mof_H 	H 	0.8963	0.6047	0.2347	-0.013
Mof_H 	H 	0.038	0.6832	0.2622	-0.007
Mof_H 	H 	0.0992	0.5578	0.25	-0.008
Mof_H 	H 	0.1573	0.6485	0.1853	-0.016
Mof_H 	H 	0.1232	0.5848	0.3216	-0.008
Mof_H 	H 	0.8401	0.6547	0.3679	-0.011
Mof_H 	H 	0.8967	0.5305	0.3563	-0.012
Mof_H 	H 	0.8515	0.5311	0.4669	-0.011
Mof_H 	H 	0.7643	0.6047	0.3963	-0.013
Mof_H 	H 	0.5166	0.2622	0.6832	-0.007
Mof_H 	H 	0.593	0.25	0.5578	-0.008
Mof_H 	H 	0.5089	0.1853	0.6485	-0.016
Mof_H 	H 	0.4704	0.3216	0.5848	-0.008
Mof_H 	H 	0.6373	0.3679	0.6547	-0.011
Mof_H 	H 	0.7165	0.3563	0.5305	-0.012
Mof_H 	H 	0.6505	0.4669	0.5311	-0.01
Mof_H 	H 	0.7347	0.3963	0.6047	-0.013
Mof_H 	H 	0.1832	0.538	0.0166	-0.007
Mof_H 	H 	0.0578	0.5992	0.093	-0.008
Mof_H 	H 	0.1485	0.6573	0.0089	-0.016
Mof_H 	H 	0.0848	0.6232	0.9704	-0.008
Mof_H 	H 	0.1547	0.3401	0.1373	-0.011
Mof_H 	H 	0.0305	0.3967	0.2165	-0.011
Mof_H 	H 	0.0311	0.3515	0.1505	-0.01
Mof_H 	H 	0.1047	0.2643	0.2347	-0.013
Mof_H 	H 	0.7622	0.0166	0.538	-0.007
Mof_H 	H 	0.75	0.093	0.5992	-0.008
Mof_H 	H 	0.6853	0.0089	0.6573	-0.017
Mof_H 	H 	0.8216	0.9704	0.6232	-0.008
Mof_H 	H 	0.8679	0.1373	0.3401	-0.011
Mof_H 	H 	0.8563	0.2165	0.3967	-0.012
Mof_H 	H 	0.9669	0.1505	0.3515	-0.011
Mof_H 	H 	0.8963	0.2347	0.2643	-0.013
Mof_H 	H 	0.038	0.2622	0.0166	-0.007
Mof_H 	H 	0.0992	0.25	0.093	-0.008
Mof_H 	H 	0.1573	0.1853	0.0089	-0.016
Mof_H 	H 	0.1232	0.3216	0.9704	-0.008
Mof_H 	H 	0.8401	0.3679	0.1373	-0.011
Mof_H 	H 	0.8967	0.3563	0.2165	-0.012
Mof_H 	H 	0.8515	0.4669	0.1505	-0.011
Mof_H 	H 	0.7643	0.3963	0.2347	-0.013
Mof_H 	H 	0.5166	0.6832	0.538	-0.007
Mof_H 	H 	0.593	0.5578	0.5992	-0.008
Mof_H 	H 	0.5089	0.6485	0.6573	-0.016
Mof_H 	H 	0.4704	0.5848	0.6232	-0.008
Mof_H 	H 	0.6373	0.6547	0.3401	-0.011
Mof_H 	H 	0.7165	0.5305	0.3967	-0.012
Mof_H 	H 	0.6505	0.5311	0.3515	-0.01
Mof_H 	H 	0.7347	0.6047	0.2643	-0.013
Mof_H 	H 	0.1832	0.0166	0.2622	-0.007
Mof_H 	H 	0.0578	0.093	0.25	-0.008
Mof_H 	H 	0.1485	0.0089	0.1853	-0.016
Mof_H 	H 	0.0848	0.9704	0.3216	-0.008
Mof_H 	H 	0.1547	0.1373	0.3679	-0.011
Mof_H 	H 	0.0305	0.2165	0.3563	-0.011
Mof_H 	H 	0.0311	0.1505	0.4669	-0.01
Mof_H 	H 	0.1047	0.2347	0.3963	-0.013
Mof_H 	H 	0.7622	0.538	0.6832	-0.007
Mof_H 	H 	0.75	0.5992	0.5578	-0.008
Mof_H 	H 	0.6853	0.6573	0.6485	-0.016
Mof_H 	H 	0.8216	0.6232	0.5848	-0.008
Mof_H 	H 	0.8679	0.3401	0.6547	-0.011
Mof_H 	H 	0.8563	0.3967	0.5305	-0.012
Mof_H 	H 	0.9669	0.3515	0.5311	-0.011
Mof_H 	H 	0.8963	0.2643	0.6047	-0.013
Mof_H 	H 	0.9834	0.962	0.8168	-0.007
Mof_H 	H 	0.907	0.9008	0.9422	-0.008
Mof_H 	H 	0.9911	0.8427	0.8515	-0.015
Mof_H 	H 	0.0296	0.8768	0.9152	-0.008
Mof_H 	H 	0.8627	0.1599	0.8453	-0.011
Mof_H 	H 	0.7835	0.1033	0.9695	-0.012
Mof_H 	H 	0.8495	0.1485	0.9689	-0.01
Mof_H 	H 	0.7653	0.2357	0.8953	-0.013
Mof_H 	H 	0.462	0.4834	0.2378	-0.007
Mof_H 	H 	0.4008	0.407	0.25	-0.008
Mof_H 	H 	0.3427	0.4911	0.3147	-0.016
Mof_H 	H 	0.3768	0.5296	0.1784	-0.008
Mof_H 	H 	0.6599	0.3627	0.1321	-0.011
Mof_H 	H 	0.6033	0.2835	0.1437	-0.012
Mof_H 	H 	0.6485	0.3495	0.0331	-0.011
Mof_H 	H 	0.7357	0.2653	0.1037	-0.013
Mof_H 	H 	0.7378	0.8168	0.962	-0.007
Mof_H 	H 	0.75	0.9422	0.9008	-0.008
Mof_H 	H 	0.8147	0.8515	0.8427	-0.016
Mof_H 	H 	0.6784	0.9152	0.8768	-0.008
Mof_H 	H 	0.6321	0.8453	0.1599	-0.011
Mof_H 	H 	0.6437	0.9695	0.1033	-0.012
Mof_H 	H 	0.5331	0.9689	0.1485	-0.011
Mof_H 	H 	0.6037	0.8953	0.2357	-0.013
Mof_H 	H 	0.3168	0.2378	0.4834	-0.007
Mof_H 	H 	0.4422	0.25	0.407	-0.008
Mof_H 	H 	0.3515	0.3147	0.4911	-0.016
Mof_H 	H 	0.4152	0.1784	0.5296	-0.008
Mof_H 	H 	0.3453	0.1321	0.3627	-0.011
Mof_H 	H 	0.4695	0.1437	0.2835	-0.012
Mof_H 	H 	0.4689	0.0331	0.3495	-0.011
Mof_H 	H 	0.3953	0.1037	0.2653	-0.013
Mof_H 	H 	0.3168	0.962	0.2378	-0.007
Mof_H 	H 	0.4422	0.9008	0.25	-0.008
Mof_H 	H 	0.3515	0.8427	0.3147	-0.016
Mof_H 	H 	0.4152	0.8768	0.1784	-0.008
Mof_H 	H 	0.3453	0.1599	0.1321	-0.011
Mof_H 	H 	0.4695	0.1033	0.1437	-0.012
Mof_H 	H 	0.4689	0.1485	0.0331	-0.011
Mof_H 	H 	0.3953	0.2357	0.1037	-0.013
Mof_H 	H 	0.7378	0.4834	0.8168	-0.007
Mof_H 	H 	0.75	0.407	0.9422	-0.008
Mof_H 	H 	0.8147	0.4911	0.8515	-0.016
Mof_H 	H 	0.6784	0.5296	0.9152	-0.008
Mof_H 	H 	0.6321	0.3627	0.8453	-0.011
Mof_H 	H 	0.6437	0.2835	0.9695	-0.012
Mof_H 	H 	0.5331	0.3495	0.9689	-0.011
Mof_H 	H 	0.6037	0.2653	0.8953	-0.013
Mof_H 	H 	0.462	0.8168	0.4834	-0.007
Mof_H 	H 	0.4008	0.9422	0.407	-0.008
Mof_H 	H 	0.3427	0.8515	0.4911	-0.016
Mof_H 	H 	0.3768	0.9152	0.5296	-0.008
Mof_H 	H 	0.6599	0.8453	0.3627	-0.011
Mof_H 	H 	0.6033	0.9695	0.2835	-0.012
Mof_H 	H 	0.6485	0.9689	0.3495	-0.01
Mof_H 	H 	0.7357	0.8953	0.2653	-0.013
Mof_H 	H 	0.9834	0.2378	0.962	-0.007
Mof_H 	H 	0.907	0.25	0.9008	-0.008
Mof_H 	H 	0.9911	0.3147	0.8427	-0.016
Mof_H 	H 	0.0296	0.1784	0.8768	-0.008
Mof_H 	H 	0.8627	0.1321	0.1599	-0.011
Mof_H 	H 	0.7835	0.1437	0.1033	-0.012
Mof_H 	H 	0.8495	0.0331	0.1485	-0.011
Mof_H 	H 	0.7653	0.1037	0.2357	-0.013
Mof_H 	H 	0.7378	0.962	0.4834	-0.007
Mof_H 	H 	0.75	0.9008	0.407	-0.008
Mof_H 	H 	0.8147	0.8427	0.4911	-0.016
Mof_H 	H 	0.6784	0.8768	0.5296	-0.008
Mof_H 	H 	0.6321	0.1599	0.3627	-0.011
Mof_H 	H 	0.6437	0.1033	0.2835	-0.012
Mof_H 	H 	0.5331	0.1485	0.3495	-0.011
Mof_H 	H 	0.6037	0.2357	0.2653	-0.013
Mof_H 	H 	0.3168	0.4834	0.962	-0.007
Mof_H 	H 	0.4422	0.407	0.9008	-0.008
Mof_H 	H 	0.3515	0.4911	0.8427	-0.016
Mof_H 	H 	0.4152	0.5296	0.8768	-0.008
Mof_H 	H 	0.3453	0.3627	0.1599	-0.011
Mof_H 	H 	0.4695	0.2835	0.1033	-0.012
Mof_H 	H 	0.4689	0.3495	0.1485	-0.01
Mof_H 	H 	0.3953	0.2653	0.2357	-0.013
Mof_H 	H 	0.9834	0.8168	0.2378	-0.007
Mof_H 	H 	0.907	0.9422	0.25	-0.008
Mof_H 	H 	0.9911	0.8515	0.3147	-0.016
Mof_H 	H 	0.0296	0.9152	0.1784	-0.008
Mof_H 	H 	0.8627	0.8453	0.1321	-0.011
Mof_H 	H 	0.7835	0.9695	0.1437	-0.012
Mof_H 	H 	0.8495	0.9689	0.0331	-0.011
Mof_H 	H 	0.7653	0.8953	0.1037	-0.013
Mof_H 	H 	0.462	0.2378	0.8168	-0.007
Mof_H 	H 	0.4008	0.25	0.9422	-0.008
Mof_H 	H 	0.3427	0.3147	0.8515	-0.016
Mof_H 	H 	0.3768	0.1784	0.9152	-0.008
Mof_H 	H 	0.6599	0.1321	0.8453	-0.011
Mof_H 	H 	0.6033	0.1437	0.9695	-0.012
Mof_H 	H 	0.6485	0.0331	0.9689	-0.011
Mof_H 	H 	0.7357	0.1037	0.8953	-0.013
Mof_C 	C 	0.95699	0.95825	0.34485	0.098
Mof_C 	C 	0.92348	0.91674	0.41346	0.089
Mof_C 	C 	0.84171	0.00721	0.36711	0.096
Mof_C 	C 	0.85994	0.02796	0.40212	0.098
Mof_C 	C 	0.13967	0.84637	0.37071	0.095
Mof_C 	C 	0.10865	0.80357	0.43813	0.105
Mof_C 	C 	0.17606	0.82892	0.45436	0.101
Mof_C 	C 	0.22325	0.78321	0.41441	0.09
Mof_C 	C 	0.45825	0.45699	0.73991	0.098
Mof_C 	C 	0.41674	0.42348	0.74632	0.089
Mof_C 	C 	0.50721	0.34171	0.78397	0.097
Mof_C 	C 	0.52796	0.35994	0.70998	0.098
Mof_C 	C 	0.34637	0.63967	0.64325	0.095
Mof_C 	C 	0.30357	0.60865	0.64965	0.105
Mof_C 	C 	0.32892	0.67606	0.54066	0.101
Mof_C 	C 	0.28321	0.72325	0.57913	0.09
Mof_C 	C 	0.84485	0.73991	0.45699	0.098
Mof_C 	C 	0.91346	0.74632	0.42348	0.089
Mof_C 	C 	0.86711	0.78397	0.34171	0.097
Mof_C 	C 	0.90212	0.70998	0.35994	0.098
Mof_C 	C 	0.87071	0.64325	0.63967	0.095
Mof_C 	C 	0.93813	0.64965	0.60865	0.105
Mof_C 	C 	0.95436	0.54066	0.67606	0.101
Mof_C 	C 	0.91441	0.57913	0.72325	0.09
Mof_C 	C 	0.23991	0.34485	0.95825	0.098
Mof_C 	C 	0.24632	0.41346	0.91674	0.089
Mof_C 	C 	0.28397	0.36711	0.00721	0.098
Mof_C 	C 	0.20998	0.40212	0.02796	0.098
Mof_C 	C 	0.14325	0.37071	0.84637	0.095
Mof_C 	C 	0.14965	0.43813	0.80357	0.105
Mof_C 	C 	0.04066	0.45436	0.82892	0.101
Mof_C 	C 	0.07913	0.41441	0.78321	0.09
Mof_C 	C 	0.95699	0.34485	0.73991	0.098
Mof_C 	C 	0.92348	0.41346	0.74632	0.089
Mof_C 	C 	0.84171	0.36711	0.78397	0.097
Mof_C 	C 	0.85994	0.40212	0.70998	0.098
Mof_C 	C 	0.13967	0.37071	0.64325	0.095
Mof_C 	C 	0.10865	0.43813	0.64965	0.105
Mof_C 	C 	0.17606	0.45436	0.54066	0.101
Mof_C 	C 	0.22325	0.41441	0.57913	0.09
Mof_C 	C 	0.45825	0.73991	0.34485	0.098
Mof_C 	C 	0.41674	0.74632	0.41346	0.089
Mof_C 	C 	0.50721	0.78397	0.36711	0.097
Mof_C 	C 	0.52796	0.70998	0.40212	0.098
Mof_C 	C 	0.34637	0.64325	0.37071	0.095
Mof_C 	C 	0.30357	0.64965	0.43813	0.105
Mof_C 	C 	0.32892	0.54066	0.45436	0.101
Mof_C 	C 	0.28321	0.57913	0.41441	0.09
Mof_C 	C 	0.84485	0.45699	0.95825	0.098
Mof_C 	C 	0.91346	0.42348	0.91674	0.089
Mof_C 	C 	0.86711	0.34171	0.00721	0.096
Mof_C 	C 	0.90212	0.35994	0.02796	0.097
Mof_C 	C 	0.87071	0.63967	0.84637	0.095
Mof_C 	C 	0.93813	0.60865	0.80357	0.105
Mof_C 	C 	0.95436	0.67606	0.82892	0.101
Mof_C 	C 	0.91441	0.72325	0.78321	0.09
Mof_C 	C 	0.23991	0.95825	0.45699	0.098
Mof_C 	C 	0.24632	0.91674	0.42348	0.089
Mof_C 	C 	0.28397	0.00721	0.34171	0.098
Mof_C 	C 	0.20998	0.02796	0.35994	0.098
Mof_C 	C 	0.14325	0.84637	0.63967	0.095
Mof_C 	C 	0.14965	0.80357	0.60865	0.105
Mof_C 	C 	0.04066	0.82892	0.67606	0.101
Mof_C 	C 	0.07913	0.78321	0.72325	0.09
Mof_C 	C 	0.95699	0.73991	0.95825	0.098
Mof_C 	C 	0.92348	0.74632	0.91674	0.089
Mof_C 	C 	0.84171	0.78397	0.00721	0.096
Mof_C 	C 	0.85994	0.70998	0.02796	0.098
Mof_C 	C 	0.13967	0.64325	0.84637	0.095
Mof_C 	C 	0.10865	0.64965	0.80357	0.105
Mof_C 	C 	0.17606	0.54066	0.82892	0.101
Mof_C 	C 	0.22325	0.57913	0.78321	0.09
Mof_C 	C 	0.45825	0.34485	0.45699	0.098
Mof_C 	C 	0.41674	0.41346	0.42348	0.089
Mof_C 	C 	0.50721	0.36711	0.34171	0.097
Mof_C 	C 	0.52796	0.40212	0.35994	0.098
Mof_C 	C 	0.34637	0.37071	0.63967	0.095
Mof_C 	C 	0.30357	0.43813	0.60865	0.105
Mof_C 	C 	0.32892	0.45436	0.67606	0.101
Mof_C 	C 	0.28321	0.41441	0.72325	0.09
Mof_C 	C 	0.84485	0.95825	0.73991	0.098
Mof_C 	C 	0.91346	0.91674	0.74632	0.089
Mof_C 	C 	0.86711	0.00721	0.78397	0.096
Mof_C 	C 	0.90212	0.02796	0.70998	0.097
Mof_C 	C 	0.87071	0.84637	0.64325	0.095
Mof_C 	C 	0.93813	0.80357	0.64965	0.105
Mof_C 	C 	0.95436	0.82892	0.54066	0.101
Mof_C 	C 	0.91441	0.78321	0.57913	0.09
Mof_C 	C 	0.23991	0.45699	0.34485	0.098
Mof_C 	C 	0.24632	0.42348	0.41346	0.089
Mof_C 	C 	0.28397	0.34171	0.36711	0.097
Mof_C 	C 	0.20998	0.35994	0.40212	0.098
Mof_C 	C 	0.14325	0.63967	0.37071	0.095
Mof_C 	C 	0.14965	0.60865	0.43813	0.105
Mof_C 	C 	0.04066	0.67606	0.45436	0.101
Mof_C 	C 	0.07913	0.72325	0.41441	0.09
Mof_C 	C 	0.04175	0.04301	0.15515	0.098
Mof_C 	C 	0.08326	0.07652	0.08654	0.089
Mof_C 	C 	0.99279	0.15829	0.13289	0.095
Mof_C 	C 	0.97204	0.14006	0.09788	0.097
Mof_C 	C 	0.15363	0.86033	0.12929	0.095
Mof_C 	C 	0.19643	0.89135	0.06187	0.105
Mof_C 	C 	0.17108	0.82394	0.04564	0.101
Mof_C 	C 	0.21679	0.77675	0.08559	0.09
Mof_C 	C 	0.54301	0.54175	0.76009	0.098
Mof_C 	C 	0.57652	0.58326	0.75368	0.089
Mof_C 	C 	0.65829	0.49279	0.71603	0.097
Mof_C 	C 	0.64006	0.47204	0.79002	0.098
Mof_C 	C 	0.36033	0.65363	0.85675	0.095
Mof_C 	C 	0.39135	0.69643	0.85035	0.105
Mof_C 	C 	0.32394	0.67108	0.95934	0.101
Mof_C 	C 	0.27675	0.71679	0.92087	0.09
Mof_C 	C 	0.26009	0.15515	0.04301	0.098
Mof_C 	C 	0.25368	0.08654	0.07652	0.089
Mof_C 	C 	0.21603	0.13289	0.15829	0.097
Mof_C 	C 	0.29002	0.09788	0.14006	0.098
Mof_C 	C 	0.35675	0.12929	0.86033	0.095
Mof_C 	C 	0.35035	0.06187	0.89135	0.105
Mof_C 	C 	0.45934	0.04564	0.82394	0.101
Mof_C 	C 	0.42087	0.08559	0.77675	0.09
Mof_C 	C 	0.65515	0.76009	0.54175	0.098
Mof_C 	C 	0.58654	0.75368	0.58326	0.089
Mof_C 	C 	0.63289	0.71603	0.49279	0.097
Mof_C 	C 	0.59788	0.79002	0.47204	0.098
Mof_C 	C 	0.62929	0.85675	0.65363	0.095
Mof_C 	C 	0.56187	0.85035	0.69643	0.105
Mof_C 	C 	0.54564	0.95934	0.67108	0.101
Mof_C 	C 	0.58559	0.92087	0.71679	0.09
Mof_C 	C 	0.65515	0.04301	0.76009	0.098
Mof_C 	C 	0.58654	0.07652	0.75368	0.089
Mof_C 	C 	0.63289	0.15829	0.71603	0.097
Mof_C 	C 	0.59788	0.14006	0.79002	0.098
Mof_C 	C 	0.62929	0.86033	0.85675	0.095
Mof_C 	C 	0.56187	0.89135	0.85035	0.105
Mof_C 	C 	0.54564	0.82394	0.95934	0.101
Mof_C 	C 	0.58559	0.77675	0.92087	0.09
Mof_C 	C 	0.26009	0.54175	0.15515	0.098
Mof_C 	C 	0.25368	0.58326	0.08654	0.089
Mof_C 	C 	0.21603	0.49279	0.13289	0.097
Mof_C 	C 	0.29002	0.47204	0.09788	0.098
Mof_C 	C 	0.35675	0.65363	0.12929	0.095
Mof_C 	C 	0.35035	0.69643	0.06187	0.105
Mof_C 	C 	0.45934	0.67108	0.04564	0.101
Mof_C 	C 	0.42087	0.71679	0.08559	0.09
Mof_C 	C 	0.54301	0.15515	0.54175	0.098
Mof_C 	C 	0.57652	0.08654	0.58326	0.089
Mof_C 	C 	0.65829	0.13289	0.49279	0.097
Mof_C 	C 	0.64006	0.09788	0.47204	0.098
Mof_C 	C 	0.36033	0.12929	0.65363	0.095
Mof_C 	C 	0.39135	0.06187	0.69643	0.105
Mof_C 	C 	0.32394	0.04564	0.67108	0.101
Mof_C 	C 	0.27675	0.08559	0.71679	0.09
Mof_C 	C 	0.04175	0.76009	0.04301	0.098
Mof_C 	C 	0.08326	0.75368	0.07652	0.089
Mof_C 	C 	0.99279	0.71603	0.15829	0.097
Mof_C 	C 	0.97204	0.79002	0.14006	0.098
Mof_C 	C 	0.15363	0.85675	0.86033	0.095
Mof_C 	C 	0.19643	0.85035	0.89135	0.105
Mof_C 	C 	0.17108	0.95934	0.82394	0.101
Mof_C 	C 	0.21679	0.92087	0.77675	0.09
Mof_C 	C 	0.26009	0.04301	0.54175	0.098
Mof_C 	C 	0.25368	0.07652	0.58326	0.089
Mof_C 	C 	0.21603	0.15829	0.49279	0.097
Mof_C 	C 	0.29002	0.14006	0.47204	0.098
Mof_C 	C 	0.35675	0.86033	0.65363	0.095
Mof_C 	C 	0.35035	0.89135	0.69643	0.105
Mof_C 	C 	0.45934	0.82394	0.67108	0.101
Mof_C 	C 	0.42087	0.77675	0.71679	0.09
Mof_C 	C 	0.65515	0.54175	0.04301	0.098
Mof_C 	C 	0.58654	0.58326	0.07652	0.089
Mof_C 	C 	0.63289	0.49279	0.15829	0.097
Mof_C 	C 	0.59788	0.47204	0.14006	0.098
Mof_C 	C 	0.62929	0.65363	0.86033	0.095
Mof_C 	C 	0.56187	0.69643	0.89135	0.105
Mof_C 	C 	0.54564	0.67108	0.82394	0.101
Mof_C 	C 	0.58559	0.71679	0.77675	0.09
Mof_C 	C 	0.04175	0.15515	0.76009	0.098
Mof_C 	C 	0.08326	0.08654	0.75368	0.089
Mof_C 	C 	0.99279	0.13289	0.71603	0.097
Mof_C 	C 	0.97204	0.09788	0.79002	0.098
Mof_C 	C 	0.15363	0.12929	0.85675	0.095
Mof_C 	C 	0.19643	0.06187	0.85035	0.105
Mof_C 	C 	0.17108	0.04564	0.95934	0.101
Mof_C 	C 	0.21679	0.08559	0.92087	0.09
Mof_C 	C 	0.54301	0.76009	0.15515	0.098
Mof_C 	C 	0.57652	0.75368	0.08654	0.089
Mof_C 	C 	0.65829	0.71603	0.13289	0.097
Mof_C 	C 	0.64006	0.79002	0.09788	0.098
Mof_C 	C 	0.36033	0.85675	0.12929	0.095
Mof_C 	C 	0.39135	0.85035	0.06187	0.105
Mof_C 	C 	0.32394	0.95934	0.04564	0.101
Mof_C 	C 	0.27675	0.92087	0.08559	0.09
Mof_C 	C 	0.04301	0.04175	0.65515	0.098
Mof_C 	C 	0.07652	0.08326	0.58654	0.089
Mof_C 	C 	0.15829	0.99279	0.63289	0.096
Mof_C 	C 	0.14006	0.97204	0.59788	0.098
Mof_C 	C 	0.86033	0.15363	0.62929	0.095
Mof_C 	C 	0.89135	0.19643	0.56187	0.105
Mof_C 	C 	0.82394	0.17108	0.54564	0.101
Mof_C 	C 	0.77675	0.21679	0.58559	0.09
Mof_C 	C 	0.54175	0.54301	0.26009	0.098
Mof_C 	C 	0.58326	0.57652	0.25368	0.089
Mof_C 	C 	0.49279	0.65829	0.21603	0.097
Mof_C 	C 	0.47204	0.64006	0.29002	0.098
Mof_C 	C 	0.65363	0.36033	0.35675	0.095
Mof_C 	C 	0.69643	0.39135	0.35035	0.105
Mof_C 	C 	0.67108	0.32394	0.45934	0.101
Mof_C 	C 	0.71679	0.27675	0.42087	0.09
Mof_C 	C 	0.15515	0.26009	0.54301	0.098
Mof_C 	C 	0.08654	0.25368	0.57652	0.089
Mof_C 	C 	0.13289	0.21603	0.65829	0.097
Mof_C 	C 	0.09788	0.29002	0.64006	0.098
Mof_C 	C 	0.12929	0.35675	0.36033	0.095
Mof_C 	C 	0.06187	0.35035	0.39135	0.105
Mof_C 	C 	0.04564	0.45934	0.32394	0.101
Mof_C 	C 	0.08559	0.42087	0.27675	0.09
Mof_C 	C 	0.76009	0.65515	0.04175	0.098
Mof_C 	C 	0.75368	0.58654	0.08326	0.089
Mof_C 	C 	0.71603	0.63289	0.99279	0.098
Mof_C 	C 	0.79002	0.59788	0.97204	0.098
Mof_C 	C 	0.85675	0.62929	0.15363	0.095
Mof_C 	C 	0.85035	0.56187	0.19643	0.105
Mof_C 	C 	0.95934	0.54564	0.17108	0.101
Mof_C 	C 	0.92087	0.58559	0.21679	0.09
Mof_C 	C 	0.04301	0.65515	0.26009	0.098
Mof_C 	C 	0.07652	0.58654	0.25368	0.089
Mof_C 	C 	0.15829	0.63289	0.21603	0.097
Mof_C 	C 	0.14006	0.59788	0.29002	0.098
Mof_C 	C 	0.86033	0.62929	0.35675	0.095
Mof_C 	C 	0.89135	0.56187	0.35035	0.105
Mof_C 	C 	0.82394	0.54564	0.45934	0.101
Mof_C 	C 	0.77675	0.58559	0.42087	0.09
Mof_C 	C 	0.54175	0.26009	0.65515	0.098
Mof_C 	C 	0.58326	0.25368	0.58654	0.089
Mof_C 	C 	0.49279	0.21603	0.63289	0.097
Mof_C 	C 	0.47204	0.29002	0.59788	0.098
Mof_C 	C 	0.65363	0.35675	0.62929	0.095
Mof_C 	C 	0.69643	0.35035	0.56187	0.105
Mof_C 	C 	0.67108	0.45934	0.54564	0.101
Mof_C 	C 	0.71679	0.42087	0.58559	0.09
Mof_C 	C 	0.15515	0.54301	0.04175	0.098
Mof_C 	C 	0.08654	0.57652	0.08326	0.089
Mof_C 	C 	0.13289	0.65829	0.99279	0.096
Mof_C 	C 	0.09788	0.64006	0.97204	0.097
Mof_C 	C 	0.12929	0.36033	0.15363	0.095
Mof_C 	C 	0.06187	0.39135	0.19643	0.105
Mof_C 	C 	0.04564	0.32394	0.17108	0.101
Mof_C 	C 	0.08559	0.27675	0.21679	0.09
Mof_C 	C 	0.76009	0.04175	0.54301	0.098
Mof_C 	C 	0.75368	0.08326	0.57652	0.089
Mof_C 	C 	0.71603	0.99279	0.65829	0.098
Mof_C 	C 	0.79002	0.97204	0.64006	0.098
Mof_C 	C 	0.85675	0.15363	0.36033	0.095
Mof_C 	C 	0.85035	0.19643	0.39135	0.105
Mof_C 	C 	0.95934	0.17108	0.32394	0.101
Mof_C 	C 	0.92087	0.21679	0.27675	0.09
Mof_C 	C 	0.04301	0.26009	0.04175	0.098
Mof_C 	C 	0.07652	0.25368	0.08326	0.089
Mof_C 	C 	0.15829	0.21603	0.99279	0.096
Mof_C 	C 	0.14006	0.29002	0.97204	0.098
Mof_C 	C 	0.86033	0.35675	0.15363	0.095
Mof_C 	C 	0.89135	0.35035	0.19643	0.105
Mof_C 	C 	0.82394	0.45934	0.17108	0.101
Mof_C 	C 	0.77675	0.42087	0.21679	0.09
Mof_C 	C 	0.54175	0.65515	0.54301	0.098
Mof_C 	C 	0.58326	0.58654	0.57652	0.089
Mof_C 	C 	0.49279	0.63289	0.65829	0.097
Mof_C 	C 	0.47204	0.59788	0.64006	0.098
Mof_C 	C 	0.65363	0.62929	0.36033	0.095
Mof_C 	C 	0.69643	0.56187	0.39135	0.105
Mof_C 	C 	0.67108	0.54564	0.32394	0.101
Mof_C 	C 	0.71679	0.58559	0.27675	0.09
Mof_C 	C 	0.15515	0.04175	0.26009	0.098
Mof_C 	C 	0.08654	0.08326	0.25368	0.089
Mof_C 	C 	0.13289	0.99279	0.21603	0.096
Mof_C 	C 	0.09788	0.97204	0.29002	0.097
Mof_C 	C 	0.12929	0.15363	0.35675	0.095
Mof_C 	C 	0.06187	0.19643	0.35035	0.105
Mof_C 	C 	0.04564	0.17108	0.45934	0.101
Mof_C 	C 	0.08559	0.21679	0.42087	0.09
Mof_C 	C 	0.76009	0.54301	0.65515	0.098
Mof_C 	C 	0.75368	0.57652	0.58654	0.089
Mof_C 	C 	0.71603	0.65829	0.63289	0.097
Mof_C 	C 	0.79002	0.64006	0.59788	0.098
Mof_C 	C 	0.85675	0.36033	0.62929	0.095
Mof_C 	C 	0.85035	0.39135	0.56187	0.105
Mof_C 	C 	0.95934	0.32394	0.54564	0.101
Mof_C 	C 	0.92087	0.27675	0.58559	0.09
Mof_C 	C 	0.95825	0.95699	0.84485	0.098
Mof_C 	C 	0.91674	0.92348	0.91346	0.089
Mof_C 	C 	0.00721	0.84171	0.86711	0.095
Mof_C 	C 	0.02796	0.85994	0.90212	0.097
Mof_C 	C 	0.84637	0.13967	0.87071	0.095
Mof_C 	C 	0.80357	0.10865	0.93813	0.105
Mof_C 	C 	0.82892	0.17606	0.95436	0.101
Mof_C 	C 	0.78321	0.22325	0.91441	0.09
Mof_C 	C 	0.45699	0.45825	0.23991	0.098
Mof_C 	C 	0.42348	0.41674	0.24632	0.089
Mof_C 	C 	0.34171	0.50721	0.28397	0.097
Mof_C 	C 	0.35994	0.52796	0.20998	0.098
Mof_C 	C 	0.63967	0.34637	0.14325	0.095
Mof_C 	C 	0.60865	0.30357	0.14965	0.105
Mof_C 	C 	0.67606	0.32892	0.04066	0.101
Mof_C 	C 	0.72325	0.28321	0.07913	0.09
Mof_C 	C 	0.73991	0.84485	0.95699	0.098
Mof_C 	C 	0.74632	0.91346	0.92348	0.089
Mof_C 	C 	0.78397	0.86711	0.84171	0.097
Mof_C 	C 	0.70998	0.90212	0.85994	0.098
Mof_C 	C 	0.64325	0.87071	0.13967	0.095
Mof_C 	C 	0.64965	0.93813	0.10865	0.105
Mof_C 	C 	0.54066	0.95436	0.17606	0.101
Mof_C 	C 	0.57913	0.91441	0.22325	0.09
Mof_C 	C 	0.34485	0.23991	0.45825	0.098
Mof_C 	C 	0.41346	0.24632	0.41674	0.089
Mof_C 	C 	0.36711	0.28397	0.50721	0.097
Mof_C 	C 	0.40212	0.20998	0.52796	0.098
Mof_C 	C 	0.37071	0.14325	0.34637	0.095
Mof_C 	C 	0.43813	0.14965	0.30357	0.105
Mof_C 	C 	0.45436	0.04066	0.32892	0.101
Mof_C 	C 	0.41441	0.07913	0.28321	0.09
Mof_C 	C 	0.34485	0.95699	0.23991	0.098
Mof_C 	C 	0.41346	0.92348	0.24632	0.089
Mof_C 	C 	0.36711	0.84171	0.28397	0.097
Mof_C 	C 	0.40212	0.85994	0.20998	0.098
Mof_C 	C 	0.37071	0.13967	0.14325	0.095
Mof_C 	C 	0.43813	0.10865	0.14965	0.105
Mof_C 	C 	0.45436	0.17606	0.04066	0.101
Mof_C 	C 	0.41441	0.22325	0.07913	0.09
Mof_C 	C 	0.73991	0.45825	0.84485	0.098
Mof_C 	C 	0.74632	0.41674	0.91346	0.089
Mof_C 	C 	0.78397	0.50721	0.86711	0.097
Mof_C 	C 	0.70998	0.52796	0.90212	0.098
Mof_C 	C 	0.64325	0.34637	0.87071	0.095
Mof_C 	C 	0.64965	0.30357	0.93813	0.105
Mof_C 	C 	0.54066	0.32892	0.95436	0.101
Mof_C 	C 	0.57913	0.28321	0.91441	0.09
Mof_C 	C 	0.45699	0.84485	0.45825	0.098
Mof_C 	C 	0.42348	0.91346	0.41674	0.089
Mof_C 	C 	0.34171	0.86711	0.50721	0.097
Mof_C 	C 	0.35994	0.90212	0.52796	0.098
Mof_C 	C 	0.63967	0.87071	0.34637	0.095
Mof_C 	C 	0.60865	0.93813	0.30357	0.105
Mof_C 	C 	0.67606	0.95436	0.32892	0.101
Mof_C 	C 	0.72325	0.91441	0.28321	0.09
Mof_C 	C 	0.95825	0.23991	0.95699	0.098
Mof_C 	C 	0.91674	0.24632	0.92348	0.089
Mof_C 	C 	0.00721	0.28397	0.84171	0.097
Mof_C 	C 	0.02796	0.20998	0.85994	0.098
Mof_C 	C 	0.84637	0.14325	0.13967	0.095
Mof_C 	C 	0.80357	0.14965	0.10865	0.105
Mof_C 	C 	0.82892	0.04066	0.17606	0.101
Mof_C 	C 	0.78321	0.07913	0.22325	0.09
Mof_C 	C 	0.73991	0.95699	0.45825	0.098
Mof_C 	C 	0.74632	0.92348	0.41674	0.089
Mof_C 	C 	0.78397	0.84171	0.50721	0.097
Mof_C 	C 	0.70998	0.85994	0.52796	0.098
Mof_C 	C 	0.64325	0.13967	0.34637	0.095
Mof_C 	C 	0.64965	0.10865	0.30357	0.105
Mof_C 	C 	0.54066	0.17606	0.32892	0.101
Mof_C 	C 	0.57913	0.22325	0.28321	0.09
Mof_C 	C 	0.34485	0.45825	0.95699	0.098
Mof_C 	C 	0.41346	0.41674	0.92348	0.089
Mof_C 	C 	0.36711	0.50721	0.84171	0.097
Mof_C 	C 	0.40212	0.52796	0.85994	0.098
Mof_C 	C 	0.37071	0.34637	0.13967	0.095
Mof_C 	C 	0.43813	0.30357	0.10865	0.105
Mof_C 	C 	0.45436	0.32892	0.17606	0.101
Mof_C 	C 	0.41441	0.28321	0.22325	0.09
Mof_C 	C 	0.95825	0.84485	0.23991	0.098
Mof_C 	C 	0.91674	0.91346	0.24632	0.089
Mof_C 	C 	0.00721	0.86711	0.28397	0.097
Mof_C 	C 	0.02796	0.90212	0.20998	0.098
Mof_C 	C 	0.84637	0.87071	0.14325	0.095
Mof_C 	C 	0.80357	0.93813	0.14965	0.105
Mof_C 	C 	0.82892	0.95436	0.04066	0.101
Mof_C 	C 	0.78321	0.91441	0.07913	0.09
Mof_C 	C 	0.45699	0.23991	0.84485	0.098
Mof_C 	C 	0.42348	0.24632	0.91346	0.089
Mof_C 	C 	0.34171	0.28397	0.86711	0.097
Mof_C 	C 	0.35994	0.20998	0.90212	0.098
Mof_C 	C 	0.63967	0.14325	0.87071	0.095
Mof_C 	C 	0.60865	0.14965	0.93813	0.105
Mof_C 	C 	0.67606	0.04066	0.95436	0.101
Mof_C 	C 	0.72325	0.07913	0.91441	0.09
Mof_N 	N 	0.98773	0.91819	0.35467	-0.157
Mof_N 	N 	0.96735	0.89113	0.39881	-0.171
Mof_N 	N 	0.91633	0.95899	0.38077	-0.113
Mof_N 	N 	0.8749	0.99566	0.38352	-0.115
Mof_N 	N 	0.80846	0.04382	0.37612	-0.17
Mof_N 	N 	0.81947	0.05625	0.39963	-0.164
Mof_N 	N 	0.10284	0.84568	0.3704	-0.17
Mof_N 	N 	0.08384	0.81858	0.41428	-0.162
Mof_N 	N 	0.14387	0.82061	0.41207	-0.12
Mof_N 	N 	0.17904	0.81194	0.42632	-0.117
Mof_N 	N 	0.2156	0.81362	0.45902	-0.164
Mof_N 	N 	0.24578	0.78452	0.43354	-0.17
Mof_N 	N 	0.41819	0.48773	0.73941	-0.157
Mof_N 	N 	0.39113	0.46735	0.74271	-0.171
Mof_N 	N 	0.45899	0.41633	0.74391	-0.113
Mof_N 	N 	0.49566	0.3749	0.74592	-0.116
Mof_N 	N 	0.54382	0.30846	0.7716	-0.17
Mof_N 	N 	0.55625	0.31947	0.72465	-0.164
Mof_N 	N 	0.34568	0.60284	0.68108	-0.17
Mof_N 	N 	0.31858	0.58384	0.6833	-0.162
Mof_N 	N 	0.32061	0.64387	0.62345	-0.12
Mof_N 	N 	0.31194	0.67904	0.5827	-0.117
Mof_N 	N 	0.31362	0.7156	0.51176	-0.164
Mof_N 	N 	0.28452	0.74578	0.53616	-0.17
Mof_N 	N 	0.85467	0.73941	0.48773	-0.157
Mof_N 	N 	0.89881	0.74271	0.46735	-0.171
Mof_N 	N 	0.88077	0.74391	0.41633	-0.113
Mof_N 	N 	0.88352	0.74592	0.3749	-0.116
Mof_N 	N 	0.87612	0.7716	0.30846	-0.17
Mof_N 	N 	0.89963	0.72465	0.31947	-0.164
Mof_N 	N 	0.8704	0.68108	0.60284	-0.17
Mof_N 	N 	0.91428	0.6833	0.58384	-0.162
Mof_N 	N 	0.91207	0.62345	0.64387	-0.12
Mof_N 	N 	0.92632	0.5827	0.67904	-0.117
Mof_N 	N 	0.95902	0.51176	0.7156	-0.164
Mof_N 	N 	0.93354	0.53616	0.74578	-0.17
Mof_N 	N 	0.23941	0.35467	0.91819	-0.157
Mof_N 	N 	0.24271	0.39881	0.89113	-0.171
Mof_N 	N 	0.24391	0.38077	0.95899	-0.113
Mof_N 	N 	0.24592	0.38352	0.99566	-0.116
Mof_N 	N 	0.2716	0.37612	0.04382	-0.17
Mof_N 	N 	0.22465	0.39963	0.05625	-0.164
Mof_N 	N 	0.18108	0.3704	0.84568	-0.17
Mof_N 	N 	0.1833	0.41428	0.81858	-0.162
Mof_N 	N 	0.12345	0.41207	0.82061	-0.12
Mof_N 	N 	0.0827	0.42632	0.81194	-0.117
Mof_N 	N 	0.01176	0.45902	0.81362	-0.164
Mof_N 	N 	0.03616	0.43354	0.78452	-0.17
Mof_N 	N 	0.98773	0.35467	0.73941	-0.157
Mof_N 	N 	0.96735	0.39881	0.74271	-0.171
Mof_N 	N 	0.91633	0.38077	0.74391	-0.113
Mof_N 	N 	0.8749	0.38352	0.74592	-0.116
Mof_N 	N 	0.80846	0.37612	0.7716	-0.17
Mof_N 	N 	0.81947	0.39963	0.72465	-0.164
Mof_N 	N 	0.10284	0.3704	0.68108	-0.17
Mof_N 	N 	0.08384	0.41428	0.6833	-0.162
Mof_N 	N 	0.14387	0.41207	0.62345	-0.12
Mof_N 	N 	0.17904	0.42632	0.5827	-0.117
Mof_N 	N 	0.2156	0.45902	0.51176	-0.164
Mof_N 	N 	0.24578	0.43354	0.53616	-0.17
Mof_N 	N 	0.41819	0.73941	0.35467	-0.157
Mof_N 	N 	0.39113	0.74271	0.39881	-0.171
Mof_N 	N 	0.45899	0.74391	0.38077	-0.113
Mof_N 	N 	0.49566	0.74592	0.38352	-0.116
Mof_N 	N 	0.54382	0.7716	0.37612	-0.17
Mof_N 	N 	0.55625	0.72465	0.39963	-0.164
Mof_N 	N 	0.34568	0.68108	0.3704	-0.17
Mof_N 	N 	0.31858	0.6833	0.41428	-0.162
Mof_N 	N 	0.32061	0.62345	0.41207	-0.12
Mof_N 	N 	0.31194	0.5827	0.42632	-0.117
Mof_N 	N 	0.31362	0.51176	0.45902	-0.164
Mof_N 	N 	0.28452	0.53616	0.43354	-0.17
Mof_N 	N 	0.85467	0.48773	0.91819	-0.157
Mof_N 	N 	0.89881	0.46735	0.89113	-0.171
Mof_N 	N 	0.88077	0.41633	0.95899	-0.113
Mof_N 	N 	0.88352	0.3749	0.99566	-0.115
Mof_N 	N 	0.87612	0.30846	0.04382	-0.17
Mof_N 	N 	0.89963	0.31947	0.05625	-0.164
Mof_N 	N 	0.8704	0.60284	0.84568	-0.17
Mof_N 	N 	0.91428	0.58384	0.81858	-0.162
Mof_N 	N 	0.91207	0.64387	0.82061	-0.12
Mof_N 	N 	0.92632	0.67904	0.81194	-0.117
Mof_N 	N 	0.95902	0.7156	0.81362	-0.163
Mof_N 	N 	0.93354	0.74578	0.78452	-0.17
Mof_N 	N 	0.23941	0.91819	0.48773	-0.157
Mof_N 	N 	0.24271	0.89113	0.46735	-0.171
Mof_N 	N 	0.24391	0.95899	0.41633	-0.113
Mof_N 	N 	0.24592	0.99566	0.3749	-0.116
Mof_N 	N 	0.2716	0.04382	0.30846	-0.17
Mof_N 	N 	0.22465	0.05625	0.31947	-0.164
Mof_N 	N 	0.18108	0.84568	0.60284	-0.17
Mof_N 	N 	0.1833	0.81858	0.58384	-0.162
Mof_N 	N 	0.12345	0.82061	0.64387	-0.12
Mof_N 	N 	0.0827	0.81194	0.67904	-0.117
Mof_N 	N 	0.01176	0.81362	0.7156	-0.164
Mof_N 	N 	0.03616	0.78452	0.74578	-0.17
Mof_N 	N 	0.98773	0.73941	0.91819	-0.156
Mof_N 	N 	0.96735	0.74271	0.89113	-0.171
Mof_N 	N 	0.91633	0.74391	0.95899	-0.113
Mof_N 	N 	0.8749	0.74592	0.99566	-0.115
Mof_N 	N 	0.80846	0.7716	0.04382	-0.17
Mof_N 	N 	0.81947	0.72465	0.05625	-0.164
Mof_N 	N 	0.10284	0.68108	0.84568	-0.17
Mof_N 	N 	0.08384	0.6833	0.81858	-0.162
Mof_N 	N 	0.14387	0.62345	0.82061	-0.12
Mof_N 	N 	0.17904	0.5827	0.81194	-0.117
Mof_N 	N 	0.2156	0.51176	0.81362	-0.164
Mof_N 	N 	0.24578	0.53616	0.78452	-0.17
Mof_N 	N 	0.41819	0.35467	0.48773	-0.157
Mof_N 	N 	0.39113	0.39881	0.46735	-0.171
Mof_N 	N 	0.45899	0.38077	0.41633	-0.113
Mof_N 	N 	0.49566	0.38352	0.3749	-0.116
Mof_N 	N 	0.54382	0.37612	0.30846	-0.17
Mof_N 	N 	0.55625	0.39963	0.31947	-0.164
Mof_N 	N 	0.34568	0.3704	0.60284	-0.17
Mof_N 	N 	0.31858	0.41428	0.58384	-0.162
Mof_N 	N 	0.32061	0.41207	0.64387	-0.12
Mof_N 	N 	0.31194	0.42632	0.67904	-0.117
Mof_N 	N 	0.31362	0.45902	0.7156	-0.164
Mof_N 	N 	0.28452	0.43354	0.74578	-0.17
Mof_N 	N 	0.85467	0.91819	0.73941	-0.157
Mof_N 	N 	0.89881	0.89113	0.74271	-0.171
Mof_N 	N 	0.88077	0.95899	0.74391	-0.113
Mof_N 	N 	0.88352	0.99566	0.74592	-0.115
Mof_N 	N 	0.87612	0.04382	0.7716	-0.17
Mof_N 	N 	0.89963	0.05625	0.72465	-0.164
Mof_N 	N 	0.8704	0.84568	0.68108	-0.17
Mof_N 	N 	0.91428	0.81858	0.6833	-0.162
Mof_N 	N 	0.91207	0.82061	0.62345	-0.12
Mof_N 	N 	0.92632	0.81194	0.5827	-0.117
Mof_N 	N 	0.95902	0.81362	0.51176	-0.164
Mof_N 	N 	0.93354	0.78452	0.53616	-0.17
Mof_N 	N 	0.23941	0.48773	0.35467	-0.157
Mof_N 	N 	0.24271	0.46735	0.39881	-0.171
Mof_N 	N 	0.24391	0.41633	0.38077	-0.113
Mof_N 	N 	0.24592	0.3749	0.38352	-0.116
Mof_N 	N 	0.2716	0.30846	0.37612	-0.17
Mof_N 	N 	0.22465	0.31947	0.39963	-0.164
Mof_N 	N 	0.18108	0.60284	0.3704	-0.17
Mof_N 	N 	0.1833	0.58384	0.41428	-0.162
Mof_N 	N 	0.12345	0.64387	0.41207	-0.12
Mof_N 	N 	0.0827	0.67904	0.42632	-0.117
Mof_N 	N 	0.01176	0.7156	0.45902	-0.164
Mof_N 	N 	0.03616	0.74578	0.43354	-0.17
Mof_N 	N 	0.08181	0.01227	0.14533	-0.156
Mof_N 	N 	0.10887	0.03265	0.10119	-0.171
Mof_N 	N 	0.04101	0.08367	0.11923	-0.113
Mof_N 	N 	0.00434	0.1251	0.11648	-0.115
Mof_N 	N 	0.95618	0.19154	0.12388	-0.17
Mof_N 	N 	0.94375	0.18053	0.10037	-0.164
Mof_N 	N 	0.15432	0.89716	0.1296	-0.17
Mof_N 	N 	0.18142	0.91616	0.08572	-0.162
Mof_N 	N 	0.17939	0.85613	0.08793	-0.12
Mof_N 	N 	0.18806	0.82096	0.07368	-0.117
Mof_N 	N 	0.18638	0.7844	0.04098	-0.164
Mof_N 	N 	0.21548	0.75422	0.06646	-0.17
Mof_N 	N 	0.51227	0.58181	0.76059	-0.157
Mof_N 	N 	0.53265	0.60887	0.75729	-0.171
Mof_N 	N 	0.58367	0.54101	0.75609	-0.113
Mof_N 	N 	0.6251	0.50434	0.75408	-0.116
Mof_N 	N 	0.69154	0.45618	0.7284	-0.17
Mof_N 	N 	0.68053	0.44375	0.77535	-0.164
Mof_N 	N 	0.39716	0.65432	0.81892	-0.17
Mof_N 	N 	0.41616	0.68142	0.8167	-0.162
Mof_N 	N 	0.35613	0.67939	0.87655	-0.12
Mof_N 	N 	0.32096	0.68806	0.9173	-0.117
Mof_N 	N 	0.2844	0.68638	0.98824	-0.164
Mof_N 	N 	0.25422	0.71548	0.96384	-0.17
Mof_N 	N 	0.26059	0.14533	0.01227	-0.157
Mof_N 	N 	0.25729	0.10119	0.03265	-0.171
Mof_N 	N 	0.25609	0.11923	0.08367	-0.113
Mof_N 	N 	0.25408	0.11648	0.1251	-0.116
Mof_N 	N 	0.2284	0.12388	0.19154	-0.17
Mof_N 	N 	0.27535	0.10037	0.18053	-0.164
Mof_N 	N 	0.31892	0.1296	0.89716	-0.17
Mof_N 	N 	0.3167	0.08572	0.91616	-0.162
Mof_N 	N 	0.37655	0.08793	0.85613	-0.12
Mof_N 	N 	0.4173	0.07368	0.82096	-0.117
Mof_N 	N 	0.48824	0.04098	0.7844	-0.164
Mof_N 	N 	0.46384	0.06646	0.75422	-0.17
Mof_N 	N 	0.64533	0.76059	0.58181	-0.157
Mof_N 	N 	0.60119	0.75729	0.60887	-0.171
Mof_N 	N 	0.61923	0.75609	0.54101	-0.113
Mof_N 	N 	0.61648	0.75408	0.50434	-0.116
Mof_N 	N 	0.62388	0.7284	0.45618	-0.17
Mof_N 	N 	0.60037	0.77535	0.44375	-0.164
Mof_N 	N 	0.6296	0.81892	0.65432	-0.17
Mof_N 	N 	0.58572	0.8167	0.68142	-0.162
Mof_N 	N 	0.58793	0.87655	0.67939	-0.12
Mof_N 	N 	0.57368	0.9173	0.68806	-0.117
Mof_N 	N 	0.54098	0.98824	0.68638	-0.164
Mof_N 	N 	0.56646	0.96384	0.71548	-0.17
Mof_N 	N 	0.64533	0.01227	0.76059	-0.157
Mof_N 	N 	0.60119	0.03265	0.75729	-0.171
Mof_N 	N 	0.61923	0.08367	0.75609	-0.113
Mof_N 	N 	0.61648	0.1251	0.75408	-0.116
Mof_N 	N 	0.62388	0.19154	0.7284	-0.17
Mof_N 	N 	0.60037	0.18053	0.77535	-0.164
Mof_N 	N 	0.6296	0.89716	0.81892	-0.17
Mof_N 	N 	0.58572	0.91616	0.8167	-0.162
Mof_N 	N 	0.58793	0.85613	0.87655	-0.12
Mof_N 	N 	0.57368	0.82096	0.9173	-0.117
Mof_N 	N 	0.54098	0.7844	0.98824	-0.164
Mof_N 	N 	0.56646	0.75422	0.96384	-0.17
Mof_N 	N 	0.26059	0.58181	0.14533	-0.157
Mof_N 	N 	0.25729	0.60887	0.10119	-0.171
Mof_N 	N 	0.25609	0.54101	0.11923	-0.113
Mof_N 	N 	0.25408	0.50434	0.11648	-0.116
Mof_N 	N 	0.2284	0.45618	0.12388	-0.17
Mof_N 	N 	0.27535	0.44375	0.10037	-0.164
Mof_N 	N 	0.31892	0.65432	0.1296	-0.17
Mof_N 	N 	0.3167	0.68142	0.08572	-0.162
Mof_N 	N 	0.37655	0.67939	0.08793	-0.12
Mof_N 	N 	0.4173	0.68806	0.07368	-0.117
Mof_N 	N 	0.48824	0.68638	0.04098	-0.164
Mof_N 	N 	0.46384	0.71548	0.06646	-0.17
Mof_N 	N 	0.51227	0.14533	0.58181	-0.157
Mof_N 	N 	0.53265	0.10119	0.60887	-0.171
Mof_N 	N 	0.58367	0.11923	0.54101	-0.113
Mof_N 	N 	0.6251	0.11648	0.50434	-0.116
Mof_N 	N 	0.69154	0.12388	0.45618	-0.17
Mof_N 	N 	0.68053	0.10037	0.44375	-0.164
Mof_N 	N 	0.39716	0.1296	0.65432	-0.17
Mof_N 	N 	0.41616	0.08572	0.68142	-0.162
Mof_N 	N 	0.35613	0.08793	0.67939	-0.12
Mof_N 	N 	0.32096	0.07368	0.68806	-0.117
Mof_N 	N 	0.2844	0.04098	0.68638	-0.164
Mof_N 	N 	0.25422	0.06646	0.71548	-0.17
Mof_N 	N 	0.08181	0.76059	0.01227	-0.156
Mof_N 	N 	0.10887	0.75729	0.03265	-0.171
Mof_N 	N 	0.04101	0.75609	0.08367	-0.113
Mof_N 	N 	0.00434	0.75408	0.1251	-0.116
Mof_N 	N 	0.95618	0.7284	0.19154	-0.17
Mof_N 	N 	0.94375	0.77535	0.18053	-0.164
Mof_N 	N 	0.15432	0.81892	0.89716	-0.17
Mof_N 	N 	0.18142	0.8167	0.91616	-0.162
Mof_N 	N 	0.17939	0.87655	0.85613	-0.12
Mof_N 	N 	0.18806	0.9173	0.82096	-0.117
Mof_N 	N 	0.18638	0.98824	0.7844	-0.164
Mof_N 	N 	0.21548	0.96384	0.75422	-0.17
Mof_N 	N 	0.26059	0.01227	0.58181	-0.157
Mof_N 	N 	0.25729	0.03265	0.60887	-0.171
Mof_N 	N 	0.25609	0.08367	0.54101	-0.113
Mof_N 	N 	0.25408	0.1251	0.50434	-0.116
Mof_N 	N 	0.2284	0.19154	0.45618	-0.17
Mof_N 	N 	0.27535	0.18053	0.44375	-0.164
Mof_N 	N 	0.31892	0.89716	0.65432	-0.17
Mof_N 	N 	0.3167	0.91616	0.68142	-0.162
Mof_N 	N 	0.37655	0.85613	0.67939	-0.12
Mof_N 	N 	0.4173	0.82096	0.68806	-0.117
Mof_N 	N 	0.48824	0.7844	0.68638	-0.164
Mof_N 	N 	0.46384	0.75422	0.71548	-0.17
Mof_N 	N 	0.64533	0.58181	0.01227	-0.157
Mof_N 	N 	0.60119	0.60887	0.03265	-0.171
Mof_N 	N 	0.61923	0.54101	0.08367	-0.113
Mof_N 	N 	0.61648	0.50434	0.1251	-0.116
Mof_N 	N 	0.62388	0.45618	0.19154	-0.17
Mof_N 	N 	0.60037	0.44375	0.18053	-0.164
Mof_N 	N 	0.6296	0.65432	0.89716	-0.17
Mof_N 	N 	0.58572	0.68142	0.91616	-0.162
Mof_N 	N 	0.58793	0.67939	0.85613	-0.12
Mof_N 	N 	0.57368	0.68806	0.82096	-0.117
Mof_N 	N 	0.54098	0.68638	0.7844	-0.164
Mof_N 	N 	0.56646	0.71548	0.75422	-0.17
Mof_N 	N 	0.08181	0.14533	0.76059	-0.157
Mof_N 	N 	0.10887	0.10119	0.75729	-0.171
Mof_N 	N 	0.04101	0.11923	0.75609	-0.113
Mof_N 	N 	0.00434	0.11648	0.75408	-0.116
Mof_N 	N 	0.95618	0.12388	0.7284	-0.17
Mof_N 	N 	0.94375	0.10037	0.77535	-0.164
Mof_N 	N 	0.15432	0.1296	0.81892	-0.17
Mof_N 	N 	0.18142	0.08572	0.8167	-0.162
Mof_N 	N 	0.17939	0.08793	0.87655	-0.12
Mof_N 	N 	0.18806	0.07368	0.9173	-0.117
Mof_N 	N 	0.18638	0.04098	0.98824	-0.164
Mof_N 	N 	0.21548	0.06646	0.96384	-0.17
Mof_N 	N 	0.51227	0.76059	0.14533	-0.157
Mof_N 	N 	0.53265	0.75729	0.10119	-0.171
Mof_N 	N 	0.58367	0.75609	0.11923	-0.113
Mof_N 	N 	0.6251	0.75408	0.11648	-0.116
Mof_N 	N 	0.69154	0.7284	0.12388	-0.17
Mof_N 	N 	0.68053	0.77535	0.10037	-0.164
Mof_N 	N 	0.39716	0.81892	0.1296	-0.17
Mof_N 	N 	0.41616	0.8167	0.08572	-0.162
Mof_N 	N 	0.35613	0.87655	0.08793	-0.12
Mof_N 	N 	0.32096	0.9173	0.07368	-0.117
Mof_N 	N 	0.2844	0.98824	0.04098	-0.164
Mof_N 	N 	0.25422	0.96384	0.06646	-0.17
Mof_N 	N 	0.01227	0.08181	0.64533	-0.157
Mof_N 	N 	0.03265	0.10887	0.60119	-0.171
Mof_N 	N 	0.08367	0.04101	0.61923	-0.113
Mof_N 	N 	0.1251	0.00434	0.61648	-0.115
Mof_N 	N 	0.19154	0.95618	0.62388	-0.17
Mof_N 	N 	0.18053	0.94375	0.60037	-0.164
Mof_N 	N 	0.89716	0.15432	0.6296	-0.17
Mof_N 	N 	0.91616	0.18142	0.58572	-0.162
Mof_N 	N 	0.85613	0.17939	0.58793	-0.12
Mof_N 	N 	0.82096	0.18806	0.57368	-0.117
Mof_N 	N 	0.7844	0.18638	0.54098	-0.164
Mof_N 	N 	0.75422	0.21548	0.56646	-0.17
Mof_N 	N 	0.58181	0.51227	0.26059	-0.157
Mof_N 	N 	0.60887	0.53265	0.25729	-0.171
Mof_N 	N 	0.54101	0.58367	0.25609	-0.113
Mof_N 	N 	0.50434	0.6251	0.25408	-0.116
Mof_N 	N 	0.45618	0.69154	0.2284	-0.17
Mof_N 	N 	0.44375	0.68053	0.27535	-0.164
Mof_N 	N 	0.65432	0.39716	0.31892	-0.17
Mof_N 	N 	0.68142	0.41616	0.3167	-0.162
Mof_N 	N 	0.67939	0.35613	0.37655	-0.12
Mof_N 	N 	0.68806	0.32096	0.4173	-0.117
Mof_N 	N 	0.68638	0.2844	0.48824	-0.164
Mof_N 	N 	0.71548	0.25422	0.46384	-0.17
Mof_N 	N 	0.14533	0.26059	0.51227	-0.157
Mof_N 	N 	0.10119	0.25729	0.53265	-0.171
Mof_N 	N 	0.11923	0.25609	0.58367	-0.113
Mof_N 	N 	0.11648	0.25408	0.6251	-0.116
Mof_N 	N 	0.12388	0.2284	0.69154	-0.17
Mof_N 	N 	0.10037	0.27535	0.68053	-0.164
Mof_N 	N 	0.1296	0.31892	0.39716	-0.17
Mof_N 	N 	0.08572	0.3167	0.41616	-0.162
Mof_N 	N 	0.08793	0.37655	0.35613	-0.12
Mof_N 	N 	0.07368	0.4173	0.32096	-0.117
Mof_N 	N 	0.04098	0.48824	0.2844	-0.164
Mof_N 	N 	0.06646	0.46384	0.25422	-0.17
Mof_N 	N 	0.76059	0.64533	0.08181	-0.157
Mof_N 	N 	0.75729	0.60119	0.10887	-0.171
Mof_N 	N 	0.75609	0.61923	0.04101	-0.113
Mof_N 	N 	0.75408	0.61648	0.00434	-0.116
Mof_N 	N 	0.7284	0.62388	0.95618	-0.17
Mof_N 	N 	0.77535	0.60037	0.94375	-0.164
Mof_N 	N 	0.81892	0.6296	0.15432	-0.17
Mof_N 	N 	0.8167	0.58572	0.18142	-0.162
Mof_N 	N 	0.87655	0.58793	0.17939	-0.12
Mof_N 	N 	0.9173	0.57368	0.18806	-0.117
Mof_N 	N 	0.98824	0.54098	0.18638	-0.164
Mof_N 	N 	0.96384	0.56646	0.21548	-0.17
Mof_N 	N 	0.01227	0.64533	0.26059	-0.157
Mof_N 	N 	0.03265	0.60119	0.25729	-0.171
Mof_N 	N 	0.08367	0.61923	0.25609	-0.113
Mof_N 	N 	0.1251	0.61648	0.25408	-0.116
Mof_N 	N 	0.19154	0.62388	0.2284	-0.17
Mof_N 	N 	0.18053	0.60037	0.27535	-0.164
Mof_N 	N 	0.89716	0.6296	0.31892	-0.17
Mof_N 	N 	0.91616	0.58572	0.3167	-0.162
Mof_N 	N 	0.85613	0.58793	0.37655	-0.12
Mof_N 	N 	0.82096	0.57368	0.4173	-0.117
Mof_N 	N 	0.7844	0.54098	0.48824	-0.164
Mof_N 	N 	0.75422	0.56646	0.46384	-0.17
Mof_N 	N 	0.58181	0.26059	0.64533	-0.157
Mof_N 	N 	0.60887	0.25729	0.60119	-0.171
Mof_N 	N 	0.54101	0.25609	0.61923	-0.113
Mof_N 	N 	0.50434	0.25408	0.61648	-0.116
Mof_N 	N 	0.45618	0.2284	0.62388	-0.17
Mof_N 	N 	0.44375	0.27535	0.60037	-0.164
Mof_N 	N 	0.65432	0.31892	0.6296	-0.17
Mof_N 	N 	0.68142	0.3167	0.58572	-0.162
Mof_N 	N 	0.67939	0.37655	0.58793	-0.12
Mof_N 	N 	0.68806	0.4173	0.57368	-0.117
Mof_N 	N 	0.68638	0.48824	0.54098	-0.164
Mof_N 	N 	0.71548	0.46384	0.56646	-0.17
Mof_N 	N 	0.14533	0.51227	0.08181	-0.157
Mof_N 	N 	0.10119	0.53265	0.10887	-0.171
Mof_N 	N 	0.11923	0.58367	0.04101	-0.113
Mof_N 	N 	0.11648	0.6251	0.00434	-0.115
Mof_N 	N 	0.12388	0.69154	0.95618	-0.17
Mof_N 	N 	0.10037	0.68053	0.94375	-0.164
Mof_N 	N 	0.1296	0.39716	0.15432	-0.17
Mof_N 	N 	0.08572	0.41616	0.18142	-0.162
Mof_N 	N 	0.08793	0.35613	0.17939	-0.12
Mof_N 	N 	0.07368	0.32096	0.18806	-0.117
Mof_N 	N 	0.04098	0.2844	0.18638	-0.163
Mof_N 	N 	0.06646	0.25422	0.21548	-0.17
Mof_N 	N 	0.76059	0.08181	0.51227	-0.157
Mof_N 	N 	0.75729	0.10887	0.53265	-0.171
Mof_N 	N 	0.75609	0.04101	0.58367	-0.113
Mof_N 	N 	0.75408	0.00434	0.6251	-0.116
Mof_N 	N 	0.7284	0.95618	0.69154	-0.17
Mof_N 	N 	0.77535	0.94375	0.68053	-0.164
Mof_N 	N 	0.81892	0.15432	0.39716	-0.17
Mof_N 	N 	0.8167	0.18142	0.41616	-0.162
Mof_N 	N 	0.87655	0.17939	0.35613	-0.12
Mof_N 	N 	0.9173	0.18806	0.32096	-0.117
Mof_N 	N 	0.98824	0.18638	0.2844	-0.164
Mof_N 	N 	0.96384	0.21548	0.25422	-0.17
Mof_N 	N 	0.01227	0.26059	0.08181	-0.156
Mof_N 	N 	0.03265	0.25729	0.10887	-0.171
Mof_N 	N 	0.08367	0.25609	0.04101	-0.113
Mof_N 	N 	0.1251	0.25408	0.00434	-0.115
Mof_N 	N 	0.19154	0.2284	0.95618	-0.17
Mof_N 	N 	0.18053	0.27535	0.94375	-0.164
Mof_N 	N 	0.89716	0.31892	0.15432	-0.17
Mof_N 	N 	0.91616	0.3167	0.18142	-0.162
Mof_N 	N 	0.85613	0.37655	0.17939	-0.12
Mof_N 	N 	0.82096	0.4173	0.18806	-0.117
Mof_N 	N 	0.7844	0.48824	0.18638	-0.164
Mof_N 	N 	0.75422	0.46384	0.21548	-0.17
Mof_N 	N 	0.58181	0.64533	0.51227	-0.157
Mof_N 	N 	0.60887	0.60119	0.53265	-0.171
Mof_N 	N 	0.54101	0.61923	0.58367	-0.113
Mof_N 	N 	0.50434	0.61648	0.6251	-0.116
Mof_N 	N 	0.45618	0.62388	0.69154	-0.17
Mof_N 	N 	0.44375	0.60037	0.68053	-0.164
Mof_N 	N 	0.65432	0.6296	0.39716	-0.17
Mof_N 	N 	0.68142	0.58572	0.41616	-0.162
Mof_N 	N 	0.67939	0.58793	0.35613	-0.12
Mof_N 	N 	0.68806	0.57368	0.32096	-0.117
Mof_N 	N 	0.68638	0.54098	0.2844	-0.164
Mof_N 	N 	0.71548	0.56646	0.25422	-0.17
Mof_N 	N 	0.14533	0.08181	0.26059	-0.157
Mof_N 	N 	0.10119	0.10887	0.25729	-0.171
Mof_N 	N 	0.11923	0.04101	0.25609	-0.113
Mof_N 	N 	0.11648	0.00434	0.25408	-0.115
Mof_N 	N 	0.12388	0.95618	0.2284	-0.17
Mof_N 	N 	0.10037	0.94375	0.27535	-0.164
Mof_N 	N 	0.1296	0.15432	0.31892	-0.17
Mof_N 	N 	0.08572	0.18142	0.3167	-0.162
Mof_N 	N 	0.08793	0.17939	0.37655	-0.12
Mof_N 	N 	0.07368	0.18806	0.4173	-0.117
Mof_N 	N 	0.04098	0.18638	0.48824	-0.164
Mof_N 	N 	0.06646	0.21548	0.46384	-0.17
Mof_N 	N 	0.76059	0.51227	0.64533	-0.157
Mof_N 	N 	0.75729	0.53265	0.60119	-0.171
Mof_N 	N 	0.75609	0.58367	0.61923	-0.113
Mof_N 	N 	0.75408	0.6251	0.61648	-0.116
Mof_N 	N 	0.7284	0.69154	0.62388	-0.17
Mof_N 	N 	0.77535	0.68053	0.60037	-0.164
Mof_N 	N 	0.81892	0.39716	0.6296	-0.17
Mof_N 	N 	0.8167	0.41616	0.58572	-0.162
Mof_N 	N 	0.87655	0.35613	0.58793	-0.12
Mof_N 	N 	0.9173	0.32096	0.57368	-0.117
Mof_N 	N 	0.98824	0.2844	0.54098	-0.164
Mof_N 	N 	0.96384	0.25422	0.56646	-0.17
Mof_N 	N 	0.91819	0.98773	0.85467	-0.156
Mof_N 	N 	0.89113	0.96735	0.89881	-0.171
Mof_N 	N 	0.95899	0.91633	0.88077	-0.113
Mof_N 	N 	0.99566	0.8749	0.88352	-0.115
Mof_N 	N 	0.04382	0.80846	0.87612	-0.17
Mof_N 	N 	0.05625	0.81947	0.89963	-0.164
Mof_N 	N 	0.84568	0.10284	0.8704	-0.17
Mof_N 	N 	0.81858	0.08384	0.91428	-0.162
Mof_N 	N 	0.82061	0.14387	0.91207	-0.12
Mof_N 	N 	0.81194	0.17904	0.92632	-0.117
Mof_N 	N 	0.81362	0.2156	0.95902	-0.164
Mof_N 	N 	0.78452	0.24578	0.93354	-0.17
Mof_N 	N 	0.48773	0.41819	0.23941	-0.157
Mof_N 	N 	0.46735	0.39113	0.24271	-0.171
Mof_N 	N 	0.41633	0.45899	0.24391	-0.113
Mof_N 	N 	0.3749	0.49566	0.24592	-0.116
Mof_N 	N 	0.30846	0.54382	0.2716	-0.17
Mof_N 	N 	0.31947	0.55625	0.22465	-0.164
Mof_N 	N 	0.60284	0.34568	0.18108	-0.17
Mof_N 	N 	0.58384	0.31858	0.1833	-0.162
Mof_N 	N 	0.64387	0.32061	0.12345	-0.12
Mof_N 	N 	0.67904	0.31194	0.0827	-0.117
Mof_N 	N 	0.7156	0.31362	0.01176	-0.164
Mof_N 	N 	0.74578	0.28452	0.03616	-0.17
Mof_N 	N 	0.73941	0.85467	0.98773	-0.157
Mof_N 	N 	0.74271	0.89881	0.96735	-0.171
Mof_N 	N 	0.74391	0.88077	0.91633	-0.113
Mof_N 	N 	0.74592	0.88352	0.8749	-0.116
Mof_N 	N 	0.7716	0.87612	0.80846	-0.17
Mof_N 	N 	0.72465	0.89963	0.81947	-0.164
Mof_N 	N 	0.68108	0.8704	0.10284	-0.17
Mof_N 	N 	0.6833	0.91428	0.08384	-0.162
Mof_N 	N 	0.62345	0.91207	0.14387	-0.12
Mof_N 	N 	0.5827	0.92632	0.17904	-0.117
Mof_N 	N 	0.51176	0.95902	0.2156	-0.164
Mof_N 	N 	0.53616	0.93354	0.24578	-0.17
Mof_N 	N 	0.35467	0.23941	0.41819	-0.157
Mof_N 	N 	0.39881	0.24271	0.39113	-0.171
Mof_N 	N 	0.38077	0.24391	0.45899	-0.113
Mof_N 	N 	0.38352	0.24592	0.49566	-0.116
Mof_N 	N 	0.37612	0.2716	0.54382	-0.17
Mof_N 	N 	0.39963	0.22465	0.55625	-0.164
Mof_N 	N 	0.3704	0.18108	0.34568	-0.17
Mof_N 	N 	0.41428	0.1833	0.31858	-0.162
Mof_N 	N 	0.41207	0.12345	0.32061	-0.12
Mof_N 	N 	0.42632	0.0827	0.31194	-0.117
Mof_N 	N 	0.45902	0.01176	0.31362	-0.164
Mof_N 	N 	0.43354	0.03616	0.28452	-0.17
Mof_N 	N 	0.35467	0.98773	0.23941	-0.157
Mof_N 	N 	0.39881	0.96735	0.24271	-0.171
Mof_N 	N 	0.38077	0.91633	0.24391	-0.113
Mof_N 	N 	0.38352	0.8749	0.24592	-0.116
Mof_N 	N 	0.37612	0.80846	0.2716	-0.17
Mof_N 	N 	0.39963	0.81947	0.22465	-0.164
Mof_N 	N 	0.3704	0.10284	0.18108	-0.17
Mof_N 	N 	0.41428	0.08384	0.1833	-0.162
Mof_N 	N 	0.41207	0.14387	0.12345	-0.12
Mof_N 	N 	0.42632	0.17904	0.0827	-0.117
Mof_N 	N 	0.45902	0.2156	0.01176	-0.164
Mof_N 	N 	0.43354	0.24578	0.03616	-0.17
Mof_N 	N 	0.73941	0.41819	0.85467	-0.157
Mof_N 	N 	0.74271	0.39113	0.89881	-0.171
Mof_N 	N 	0.74391	0.45899	0.88077	-0.113
Mof_N 	N 	0.74592	0.49566	0.88352	-0.116
Mof_N 	N 	0.7716	0.54382	0.87612	-0.17
Mof_N 	N 	0.72465	0.55625	0.89963	-0.164
Mof_N 	N 	0.68108	0.34568	0.8704	-0.17
Mof_N 	N 	0.6833	0.31858	0.91428	-0.162
Mof_N 	N 	0.62345	0.32061	0.91207	-0.12
Mof_N 	N 	0.5827	0.31194	0.92632	-0.117
Mof_N 	N 	0.51176	0.31362	0.95902	-0.164
Mof_N 	N 	0.53616	0.28452	0.93354	-0.17
Mof_N 	N 	0.48773	0.85467	0.41819	-0.157
Mof_N 	N 	0.46735	0.89881	0.39113	-0.171
Mof_N 	N 	0.41633	0.88077	0.45899	-0.113
Mof_N 	N 	0.3749	0.88352	0.49566	-0.116
Mof_N 	N 	0.30846	0.87612	0.54382	-0.17
Mof_N 	N 	0.31947	0.89963	0.55625	-0.164
Mof_N 	N 	0.60284	0.8704	0.34568	-0.17
Mof_N 	N 	0.58384	0.91428	0.31858	-0.162
Mof_N 	N 	0.64387	0.91207	0.32061	-0.12
Mof_N 	N 	0.67904	0.92632	0.31194	-0.117
Mof_N 	N 	0.7156	0.95902	0.31362	-0.164
Mof_N 	N 	0.74578	0.93354	0.28452	-0.17
Mof_N 	N 	0.91819	0.23941	0.98773	-0.156
Mof_N 	N 	0.89113	0.24271	0.96735	-0.171
Mof_N 	N 	0.95899	0.24391	0.91633	-0.113
Mof_N 	N 	0.99566	0.24592	0.8749	-0.116
Mof_N 	N 	0.04382	0.2716	0.80846	-0.17
Mof_N 	N 	0.05625	0.22465	0.81947	-0.164
Mof_N 	N 	0.84568	0.18108	0.10284	-0.17
Mof_N 	N 	0.81858	0.1833	0.08384	-0.162
Mof_N 	N 	0.82061	0.12345	0.14387	-0.12
Mof_N 	N 	0.81194	0.0827	0.17904	-0.117
Mof_N 	N 	0.81362	0.01176	0.2156	-0.164
Mof_N 	N 	0.78452	0.03616	0.24578	-0.17
Mof_N 	N 	0.73941	0.98773	0.41819	-0.157
Mof_N 	N 	0.74271	0.96735	0.39113	-0.171
Mof_N 	N 	0.74391	0.91633	0.45899	-0.113
Mof_N 	N 	0.74592	0.8749	0.49566	-0.116
Mof_N 	N 	0.7716	0.80846	0.54382	-0.17
Mof_N 	N 	0.72465	0.81947	0.55625	-0.164
Mof_N 	N 	0.68108	0.10284	0.34568	-0.17
Mof_N 	N 	0.6833	0.08384	0.31858	-0.162
Mof_N 	N 	0.62345	0.14387	0.32061	-0.12
Mof_N 	N 	0.5827	0.17904	0.31194	-0.117
Mof_N 	N 	0.51176	0.2156	0.31362	-0.164
Mof_N 	N 	0.53616	0.24578	0.28452	-0.17
Mof_N 	N 	0.35467	0.41819	0.98773	-0.157
Mof_N 	N 	0.39881	0.39113	0.96735	-0.171
Mof_N 	N 	0.38077	0.45899	0.91633	-0.113
Mof_N 	N 	0.38352	0.49566	0.8749	-0.116
Mof_N 	N 	0.37612	0.54382	0.80846	-0.17
Mof_N 	N 	0.39963	0.55625	0.81947	-0.164
Mof_N 	N 	0.3704	0.34568	0.10284	-0.17
Mof_N 	N 	0.41428	0.31858	0.08384	-0.162
Mof_N 	N 	0.41207	0.32061	0.14387	-0.12
Mof_N 	N 	0.42632	0.31194	0.17904	-0.117
Mof_N 	N 	0.45902	0.31362	0.2156	-0.164
Mof_N 	N 	0.43354	0.28452	0.24578	-0.17
Mof_N 	N 	0.91819	0.85467	0.23941	-0.157
Mof_N 	N 	0.89113	0.89881	0.24271	-0.171
Mof_N 	N 	0.95899	0.88077	0.24391	-0.113
Mof_N 	N 	0.99566	0.88352	0.24592	-0.116
Mof_N 	N 	0.04382	0.87612	0.2716	-0.17
Mof_N 	N 	0.05625	0.89963	0.22465	-0.164
Mof_N 	N 	0.84568	0.8704	0.18108	-0.17
Mof_N 	N 	0.81858	0.91428	0.1833	-0.162
Mof_N 	N 	0.82061	0.91207	0.12345	-0.12
Mof_N 	N 	0.81194	0.92632	0.0827	-0.117
Mof_N 	N 	0.81362	0.95902	0.01176	-0.164
Mof_N 	N 	0.78452	0.93354	0.03616	-0.17
Mof_N 	N 	0.48773	0.23941	0.85467	-0.157
Mof_N 	N 	0.46735	0.24271	0.89881	-0.171
Mof_N 	N 	0.41633	0.24391	0.88077	-0.113
Mof_N 	N 	0.3749	0.24592	0.88352	-0.116
Mof_N 	N 	0.30846	0.2716	0.87612	-0.17
Mof_N 	N 	0.31947	0.22465	0.89963	-0.164
Mof_N 	N 	0.60284	0.18108	0.8704	-0.17
Mof_N 	N 	0.58384	0.1833	0.91428	-0.162
Mof_N 	N 	0.64387	0.12345	0.91207	-0.12
Mof_N 	N 	0.67904	0.0827	0.92632	-0.117
Mof_N 	N 	0.7156	0.01176	0.95902	-0.164
Mof_N 	N 	0.74578	0.03616	0.93354	-0.17
_end
