data_functionalizedCrystal
_audit_creation_method	'EQeq! by Chris Wilmer'
_symmetry_space_group_name_H-M	'P1'
_symmetry_Int_Tables_number	1
_symmetry_cell_setting	triclinic
loop_
_symmetry_equiv_pos_as_xyz
  x,y,z
_cell_length_a	23.02
_cell_length_b	28.032
_cell_length_c	12.506
_cell_angle_alpha	90
_cell_angle_beta	100.389
_cell_angle_gamma	90
loop_
_atom_site_label
_atom_site_type_symbol
_atom_site_fract_x
_atom_site_fract_y
_atom_site_fract_z
_atom_site_charge
Mof_Co	Co	0.11054	0.67143	0.1651	1.084
Mof_C 	C 	0.2407	0.63985	0.2148	0.089
Mof_H 	H 	0.2315	0.6131	0.2552	-0.038
Mof_C 	C 	0.2332	0.7023	0.1125	-0.002
Mof_H 	H 	0.2166	0.728	0.0675	0.033
Mof_C 	C 	0.2918	0.692	0.1383	0.003
Mof_H 	H 	0.3233	0.7087	0.1156	0.046
Mof_C 	C 	0.3506	0.62921	0.2571	0.112
Mof_C 	C 	0.3996	0.65643	0.2952	-0.11
Mof_H 	H 	0.3972	0.6902	0.29	0.079
Mof_C 	C 	0.4528	0.63499	0.3412	0.002
Mof_H 	H 	0.4866	0.6541	0.366	0.048
Mof_C 	C 	0.4565	0.58534	0.3513	-0.038
Mof_C 	C 	0.4058	0.5586	0.3145	0.007
Mof_H 	H 	0.4073	0.5249	0.3225	0.03
Mof_C 	C 	0.35337	0.57988	0.2668	-0.116
Mof_H 	H 	0.3196	0.5609	0.2407	0.066
Mof_C 	C 	0.51429	0.56228	0.3991	0.098
Mof_C 	C 	0.56154	0.59012	0.4539	-0.157
Mof_H 	H 	0.5555	0.6232	0.464	0.102
Mof_C 	C 	0.61691	0.57039	0.4936	0.099
Mof_C 	C 	0.6246	0.52095	0.4804	-0.155
Mof_H 	H 	0.6612	0.5065	0.5107	0.079
Mof_C 	C 	0.57896	0.49297	0.4232	0.097
Mof_C 	C 	0.52439	0.51375	0.3849	-0.154
Mof_H 	H 	0.4931	0.4945	0.348	0.084
Mof_C 	C 	0.58998	0.44025	0.4056	-0.058
Mof_C 	C 	0.6481	0.424	0.4168	0.019
Mof_H 	H 	0.6797	0.4462	0.4313	0.018
Mof_C 	C 	0.6604	0.3752	0.4068	-0.138
Mof_H 	H 	0.7	0.3641	0.4169	0.077
Mof_C 	C 	0.6143	0.34419	0.3824	0.135
Mof_C 	C 	0.5556	0.35978	0.3708	-0.137
Mof_H 	H 	0.5236	0.3379	0.3557	0.101
Mof_C 	C 	0.54568	0.40784	0.382	0.025
Mof_H 	H 	0.506	0.4188	0.3727	0.024
Mof_C 	C 	0.6005	0.26617	0.2843	0.114
Mof_H 	H 	0.5705	0.277	0.227	0.015
Mof_C 	C 	0.6689	0.2664	0.4317	0.013
Mof_H 	H 	0.6946	0.2764	0.496	0.024
Mof_C 	C 	0.6677	0.2237	0.3853	-0.014
Mof_H 	H 	0.6932	0.1979	0.4113	0.014
Mof_C 	C 	0.6676	0.59926	0.5501	-0.047
Mof_C 	C 	0.6595	0.6407	0.6103	0.01
Mof_H 	H 	0.6207	0.651	0.6148	0.043
Mof_C 	C 	0.7078	0.6662	0.6629	-0.12
Mof_H 	H 	0.7021	0.6934	0.7052	0.078
Mof_C 	C 	0.7648	0.652	0.6537	0.118
Mof_C 	C 	0.7729	0.6133	0.5908	-0.127
Mof_H 	H 	0.8116	0.6037	0.5834	0.065
Mof_C 	C 	0.7236	0.588	0.5378	0.011
Mof_H 	H 	0.7294	0.5621	0.4917	0.02
Mof_C 	C 	0.8686	0.6792	0.681	0.103
Mof_H 	H 	0.8767	0.6677	0.6138	-0.004
Mof_C 	C 	0.8221	0.6974	0.8158	0.002
Mof_H 	H 	0.7928	0.7014	0.8597	0.03
Mof_C 	C 	0.8801	0.7106	0.8407	0.015
Mof_H 	H 	0.898	0.7253	0.907	0.053
Mof_N 	N 	0.2009	0.6692	0.1626	-0.255
Mof_N 	N 	0.29585	0.65217	0.2042	-0.138
Mof_N 	N 	0.6222	0.22209	0.29	-0.235
Mof_N 	N 	0.62519	0.29384	0.368	-0.14
Mof_N 	N 	0.9084	0.69991	0.7581	-0.196
Mof_N 	N 	0.81486	0.67696	0.7122	-0.14
Mof_S 	S 	0.0423	0.74998	0.9894	-0.398
Mof_O 	O 	0.0927	0.7209	0.0396	-0.128
Mof_O 	O 	0.0175	0.7322	0.8855	-0.22
Mof_O 	O 	0.9976	0.7515	0.0577	-0.313
Mof_O 	O 	0.0136	0.6731	0.1635	0.02
Mof_O 	O 	0.064	0.7982	0.9797	-0.053
Mof_S 	S 	0.0351	0.7175	0.024	1.091
Mof_O 	O 	0.1008	0.7214	0.0447	-0.304
Mof_O 	O 	0.0168	0.6898	0.9271	-0.4
Mof_O 	O 	0.0096	0.7647	0.0154	0.088
Mof_O 	O 	0.0188	0.6928	0.1186	-0.53
Mof_O 	O 	0.9877	0.6368	0.6642	-0.175
Mof_Co	Co	0.61054	0.17143	0.1651	1.089
Mof_C 	C 	0.7407	0.13985	0.2148	0.09
Mof_H 	H 	0.7315	0.1131	0.2552	-0.035
Mof_C 	C 	0.7332	0.2023	0.1125	-0
Mof_H 	H 	0.7166	0.228	0.0675	0.032
Mof_C 	C 	0.7918	0.192	0.1383	0.003
Mof_H 	H 	0.8233	0.2087	0.1156	0.046
Mof_C 	C 	0.8506	0.12921	0.2571	0.103
Mof_C 	C 	0.8996	0.15643	0.2952	-0.094
Mof_H 	H 	0.8972	0.1902	0.29	0.076
Mof_C 	C 	0.9528	0.13499	0.3412	-0.017
Mof_H 	H 	0.9866	0.1541	0.366	0.068
Mof_C 	C 	0.9565	0.08534	0.3513	-0.001
Mof_C 	C 	0.9058	0.0586	0.3145	-0.013
Mof_H 	H 	0.9073	0.0249	0.3225	0.038
Mof_C 	C 	0.85337	0.07988	0.2668	-0.102
Mof_H 	H 	0.8196	0.0609	0.2407	0.062
Mof_C 	C 	0.01429	0.06228	0.3991	0.076
Mof_C 	C 	0.06154	0.09012	0.4539	-0.152
Mof_H 	H 	0.0555	0.1232	0.464	0.091
Mof_C 	C 	0.11691	0.07039	0.4936	0.099
Mof_C 	C 	0.1246	0.02095	0.4804	-0.162
Mof_H 	H 	0.1612	0.0065	0.5107	0.081
Mof_C 	C 	0.07896	0.99297	0.4232	0.114
Mof_C 	C 	0.02439	0.01375	0.3849	-0.204
Mof_H 	H 	0.9931	0.9945	0.348	0.121
Mof_C 	C 	0.08998	0.94025	0.4056	-0.073
Mof_C 	C 	0.1481	0.924	0.4168	0.027
Mof_H 	H 	0.1797	0.9462	0.4313	0.014
Mof_C 	C 	0.1604	0.8752	0.4068	-0.144
Mof_H 	H 	0.2	0.8641	0.4169	0.078
Mof_C 	C 	0.1143	0.84419	0.3824	0.137
Mof_C 	C 	0.0556	0.85978	0.3708	-0.146
Mof_H 	H 	0.0236	0.8379	0.3557	0.095
Mof_C 	C 	0.04568	0.90784	0.382	0.032
Mof_H 	H 	0.006	0.9188	0.3727	0.008
Mof_C 	C 	0.1005	0.76617	0.2843	0.114
Mof_H 	H 	0.0705	0.777	0.227	0.009
Mof_C 	C 	0.1689	0.7664	0.4317	0.013
Mof_H 	H 	0.1946	0.7764	0.496	0.024
Mof_C 	C 	0.1677	0.7237	0.3853	-0.015
Mof_H 	H 	0.1932	0.6979	0.4113	0.013
Mof_C 	C 	0.1676	0.09926	0.5501	-0.049
Mof_C 	C 	0.1595	0.1407	0.6103	0.011
Mof_H 	H 	0.1207	0.151	0.6148	0.04
Mof_C 	C 	0.2078	0.1662	0.6629	-0.12
Mof_H 	H 	0.2021	0.1934	0.7052	0.078
Mof_C 	C 	0.2648	0.152	0.6537	0.118
Mof_C 	C 	0.2729	0.1133	0.5908	-0.127
Mof_H 	H 	0.3116	0.1037	0.5834	0.063
Mof_C 	C 	0.2236	0.088	0.5378	0.011
Mof_H 	H 	0.2294	0.0621	0.4917	0.018
Mof_C 	C 	0.3686	0.1792	0.681	0.102
Mof_H 	H 	0.3767	0.1677	0.6138	-0.004
Mof_C 	C 	0.3221	0.1974	0.8158	0.002
Mof_H 	H 	0.2928	0.2014	0.8597	0.03
Mof_C 	C 	0.3801	0.2106	0.8407	0.012
Mof_H 	H 	0.398	0.2253	0.907	0.05
Mof_N 	N 	0.7009	0.1692	0.1626	-0.254
Mof_N 	N 	0.79585	0.15217	0.2042	-0.137
Mof_N 	N 	0.1222	0.72209	0.29	-0.237
Mof_N 	N 	0.12519	0.79384	0.368	-0.141
Mof_N 	N 	0.4084	0.19991	0.7581	-0.202
Mof_N 	N 	0.31486	0.17696	0.7122	-0.141
Mof_S 	S 	0.5423	0.24998	0.9894	-0.243
Mof_O 	O 	0.5927	0.2209	0.0396	-0.13
Mof_O 	O 	0.5175	0.2322	0.8855	-0.245
Mof_O 	O 	0.4976	0.2515	0.0577	-0.348
Mof_O 	O 	0.5136	0.1731	0.1635	-0.001
Mof_O 	O 	0.564	0.2982	0.9797	-0.082
Mof_S 	S 	0.5351	0.2175	0.024	0.964
Mof_O 	O 	0.6008	0.2214	0.0447	-0.299
Mof_O 	O 	0.5168	0.1898	0.9271	-0.365
Mof_O 	O 	0.5096	0.2647	0.0154	0.088
Mof_O 	O 	0.5188	0.1928	0.1186	-0.468
Mof_O 	O 	0.4877	0.1368	0.6642	-0.204
Mof_Co	Co	0.88946	0.67143	0.3349	1.093
Mof_C 	C 	0.7593	0.63985	0.2852	0.091
Mof_H 	H 	0.7685	0.6131	0.2448	-0.035
Mof_C 	C 	0.7668	0.7023	0.3875	0.001
Mof_H 	H 	0.7834	0.728	0.4325	0.035
Mof_C 	C 	0.7082	0.692	0.3617	0.004
Mof_H 	H 	0.6767	0.7087	0.3844	0.048
Mof_C 	C 	0.6494	0.62921	0.2429	0.113
Mof_C 	C 	0.6004	0.65643	0.2048	-0.112
Mof_H 	H 	0.6028	0.6902	0.21	0.079
Mof_C 	C 	0.5472	0.63499	0.1588	0.002
Mof_H 	H 	0.5134	0.6541	0.134	0.048
Mof_C 	C 	0.5435	0.58534	0.1487	-0.042
Mof_C 	C 	0.5942	0.5586	0.1855	0.008
Mof_H 	H 	0.5927	0.5249	0.1775	0.027
Mof_C 	C 	0.64663	0.57988	0.2332	-0.118
Mof_H 	H 	0.6804	0.5609	0.2593	0.068
Mof_C 	C 	0.48571	0.56228	0.1009	0.101
Mof_C 	C 	0.43846	0.59012	0.0461	-0.162
Mof_H 	H 	0.4445	0.6232	0.036	0.102
Mof_C 	C 	0.38309	0.57039	0.0064	0.1
Mof_C 	C 	0.3754	0.52095	0.0196	-0.182
Mof_H 	H 	0.3388	0.5065	0.9893	0.098
Mof_C 	C 	0.42104	0.49297	0.0768	0.107
Mof_C 	C 	0.47561	0.51375	0.1151	-0.162
Mof_H 	H 	0.5069	0.4945	0.152	0.085
Mof_C 	C 	0.41002	0.44025	0.0944	-0.067
Mof_C 	C 	0.3519	0.424	0.0832	0.022
Mof_H 	H 	0.3203	0.4462	0.0687	0.012
Mof_C 	C 	0.3396	0.3752	0.0932	-0.143
Mof_H 	H 	0.3	0.3641	0.0831	0.075
Mof_C 	C 	0.3857	0.34419	0.1176	0.136
Mof_C 	C 	0.4444	0.35978	0.1292	-0.142
Mof_H 	H 	0.4764	0.3379	0.1443	0.102
Mof_C 	C 	0.45432	0.40784	0.118	0.029
Mof_H 	H 	0.494	0.4188	0.1273	0.021
Mof_C 	C 	0.3995	0.26617	0.2157	0.114
Mof_H 	H 	0.4295	0.277	0.273	0.015
Mof_C 	C 	0.3311	0.2664	0.0683	0.012
Mof_H 	H 	0.3054	0.2764	0.004	0.02
Mof_C 	C 	0.3323	0.2237	0.1147	-0.015
Mof_H 	H 	0.3068	0.1979	0.0887	0.011
Mof_C 	C 	0.3324	0.59926	0.9499	-0.049
Mof_C 	C 	0.3405	0.6407	0.8897	0.015
Mof_H 	H 	0.3793	0.651	0.8852	0.044
Mof_C 	C 	0.2922	0.6662	0.8371	-0.124
Mof_H 	H 	0.2979	0.6934	0.7948	0.079
Mof_C 	C 	0.2352	0.652	0.8463	0.124
Mof_C 	C 	0.2271	0.6133	0.9092	-0.141
Mof_H 	H 	0.1884	0.6037	0.9166	0.069
Mof_C 	C 	0.2764	0.588	0.9622	0.04
Mof_H 	H 	0.2706	0.5621	0.0083	-0.001
Mof_C 	C 	0.1314	0.6792	0.819	0.103
Mof_H 	H 	0.1233	0.6677	0.8862	-0.002
Mof_C 	C 	0.1779	0.6974	0.6842	0
Mof_H 	H 	0.2072	0.7014	0.6403	0.027
Mof_C 	C 	0.1199	0.7106	0.6593	0.009
Mof_H 	H 	0.102	0.7253	0.593	0.043
Mof_N 	N 	0.7991	0.6692	0.3374	-0.253
Mof_N 	N 	0.70415	0.65217	0.2958	-0.138
Mof_N 	N 	0.3778	0.22209	0.21	-0.235
Mof_N 	N 	0.37481	0.29384	0.132	-0.141
Mof_N 	N 	0.0916	0.69991	0.7419	-0.205
Mof_N 	N 	0.18514	0.67696	0.7878	-0.142
Mof_S 	S 	0.9577	0.74998	0.5106	-0.022
Mof_O 	O 	0.9073	0.7209	0.4604	-0.132
Mof_O 	O 	0.9825	0.7322	0.6145	-0.278
Mof_O 	O 	0.0024	0.7515	0.4423	-0.344
Mof_O 	O 	0.9864	0.6731	0.3365	-0.032
Mof_O 	O 	0.936	0.7982	0.5203	-0.127
Mof_S 	S 	0.9649	0.7175	0.476	0.785
Mof_O 	O 	0.8992	0.7214	0.4553	-0.289
Mof_O 	O 	0.9832	0.6898	0.5729	-0.325
Mof_O 	O 	0.9904	0.7647	0.4846	0.045
Mof_O 	O 	0.9812	0.6928	0.3814	-0.388
Mof_O 	O 	0.0123	0.6368	0.8358	-0.2
Mof_Co	Co	0.38946	0.17143	0.3349	1.09
Mof_C 	C 	0.2593	0.13985	0.2852	0.091
Mof_H 	H 	0.2685	0.1131	0.2448	-0.037
Mof_C 	C 	0.2668	0.2023	0.3875	0.001
Mof_H 	H 	0.2834	0.228	0.4325	0.035
Mof_C 	C 	0.2082	0.192	0.3617	0.004
Mof_H 	H 	0.1767	0.2087	0.3844	0.048
Mof_C 	C 	0.1494	0.12921	0.2429	0.123
Mof_C 	C 	0.1004	0.15643	0.2048	-0.129
Mof_H 	H 	0.1028	0.1902	0.21	0.082
Mof_C 	C 	0.0472	0.13499	0.1588	0.021
Mof_H 	H 	0.0134	0.1541	0.134	0.028
Mof_C 	C 	0.0435	0.08534	0.1487	-0.079
Mof_C 	C 	0.0942	0.0586	0.1855	0.028
Mof_H 	H 	0.0927	0.0249	0.1775	0.019
Mof_C 	C 	0.14663	0.07988	0.2332	-0.132
Mof_H 	H 	0.1804	0.0609	0.2593	0.072
Mof_C 	C 	0.98571	0.06228	0.1009	0.121
Mof_C 	C 	0.93846	0.09012	0.0461	-0.164
Mof_H 	H 	0.9445	0.1232	0.036	0.112
Mof_C 	C 	0.88309	0.07039	0.0064	0.098
Mof_C 	C 	0.8754	0.02095	0.0196	-0.166
Mof_H 	H 	0.8388	0.0065	0.9893	0.091
Mof_C 	C 	0.92104	0.99297	0.0768	0.084
Mof_C 	C 	0.97561	0.01375	0.1151	-0.107
Mof_H 	H 	0.0069	0.9945	0.152	0.045
Mof_C 	C 	0.91002	0.94025	0.0944	-0.049
Mof_C 	C 	0.8519	0.924	0.0832	0.013
Mof_H 	H 	0.8203	0.9462	0.0687	0.017
Mof_C 	C 	0.8396	0.8752	0.0932	-0.136
Mof_H 	H 	0.8	0.8641	0.0831	0.074
Mof_C 	C 	0.8857	0.84419	0.1176	0.133
Mof_C 	C 	0.9444	0.85978	0.1292	-0.132
Mof_H 	H 	0.9764	0.8379	0.1443	0.108
Mof_C 	C 	0.95432	0.90784	0.118	0.02
Mof_H 	H 	0.994	0.9188	0.1273	0.037
Mof_C 	C 	0.8995	0.76617	0.2157	0.114
Mof_H 	H 	0.9295	0.777	0.273	0.021
Mof_C 	C 	0.8311	0.7664	0.0683	0.012
Mof_H 	H 	0.8054	0.7764	0.004	0.021
Mof_C 	C 	0.8323	0.7237	0.1147	-0.013
Mof_H 	H 	0.8068	0.6979	0.0887	0.012
Mof_C 	C 	0.8324	0.09926	0.9499	-0.047
Mof_C 	C 	0.8405	0.1407	0.8897	0.013
Mof_H 	H 	0.8793	0.151	0.8852	0.047
Mof_C 	C 	0.7922	0.1662	0.8371	-0.122
Mof_H 	H 	0.7979	0.1934	0.7948	0.078
Mof_C 	C 	0.7352	0.152	0.8463	0.122
Mof_C 	C 	0.7271	0.1133	0.9092	-0.137
Mof_H 	H 	0.6884	0.1037	0.9166	0.069
Mof_C 	C 	0.7764	0.088	0.9622	0.034
Mof_H 	H 	0.7706	0.0621	0.0083	0.003
Mof_C 	C 	0.6314	0.1792	0.819	0.103
Mof_H 	H 	0.6233	0.1677	0.8862	-0.002
Mof_C 	C 	0.6779	0.1974	0.6842	0
Mof_H 	H 	0.7072	0.2014	0.6403	0.028
Mof_C 	C 	0.6199	0.2106	0.6593	0.012
Mof_H 	H 	0.602	0.2253	0.593	0.047
Mof_N 	N 	0.2991	0.1692	0.3374	-0.254
Mof_N 	N 	0.20415	0.15217	0.2958	-0.14
Mof_N 	N 	0.8778	0.72209	0.21	-0.233
Mof_N 	N 	0.87481	0.79384	0.132	-0.139
Mof_N 	N 	0.5916	0.19991	0.7419	-0.202
Mof_N 	N 	0.68514	0.17696	0.7878	-0.141
Mof_S 	S 	0.4577	0.24998	0.5106	-0.16
Mof_O 	O 	0.4073	0.2209	0.4604	-0.129
Mof_O 	O 	0.4825	0.2322	0.6145	-0.262
Mof_O 	O 	0.5024	0.2515	0.4423	-0.306
Mof_O 	O 	0.4864	0.1731	0.3365	-0.014
Mof_O 	O 	0.436	0.2982	0.5203	-0.103
Mof_S 	S 	0.4649	0.2175	0.476	0.899
Mof_O 	O 	0.3992	0.2214	0.4553	-0.294
Mof_O 	O 	0.4832	0.1898	0.5729	-0.356
Mof_O 	O 	0.4904	0.2647	0.4846	0.038
Mof_O 	O 	0.4812	0.1928	0.3814	-0.444
Mof_O 	O 	0.5123	0.1368	0.8358	-0.202
Mof_Co	Co	-1.43222e-17	0.70088	0.75	1.199
Mof_O 	O 	1.80318e-33	0.6193	0.75	-0.093
Mof_Co	Co	0.5	0.20088	0.75	1.212
Mof_O 	O 	0.5	0.1193	0.75	-0.063
Mof_Co	Co	0.88946	0.32857	0.8349	1.095
Mof_C 	C 	0.7593	0.36015	0.7852	0.093
Mof_H 	H 	0.7685	0.3869	0.7448	-0.033
Mof_C 	C 	0.7668	0.2977	0.8875	0.002
Mof_H 	H 	0.7834	0.272	0.9325	0.037
Mof_C 	C 	0.7082	0.308	0.8617	0.006
Mof_H 	H 	0.6767	0.2913	0.8844	0.05
Mof_C 	C 	0.6494	0.37079	0.7429	0.114
Mof_C 	C 	0.6004	0.34357	0.7048	-0.111
Mof_H 	H 	0.6028	0.3098	0.71	0.079
Mof_C 	C 	0.5472	0.36501	0.6588	0.003
Mof_H 	H 	0.5134	0.3459	0.634	0.048
Mof_C 	C 	0.5435	0.41466	0.6487	-0.039
Mof_C 	C 	0.5942	0.4414	0.6855	0.008
Mof_H 	H 	0.5927	0.4751	0.6775	0.029
Mof_C 	C 	0.64663	0.42012	0.7332	-0.117
Mof_H 	H 	0.6804	0.4391	0.7593	0.069
Mof_C 	C 	0.48571	0.43772	0.6009	0.098
Mof_C 	C 	0.43846	0.40988	0.5461	-0.157
Mof_H 	H 	0.4445	0.3768	0.536	0.102
Mof_C 	C 	0.38309	0.42961	0.5064	0.098
Mof_C 	C 	0.3754	0.47905	0.5196	-0.154
Mof_H 	H 	0.3388	0.4935	0.4893	0.078
Mof_C 	C 	0.42104	0.50703	0.5768	0.097
Mof_C 	C 	0.47561	0.48625	0.6151	-0.154
Mof_H 	H 	0.5069	0.5055	0.652	0.084
Mof_C 	C 	0.41002	0.55975	0.5944	-0.058
Mof_C 	C 	0.3519	0.576	0.5832	0.019
Mof_H 	H 	0.3203	0.5538	0.5687	0.017
Mof_C 	C 	0.3396	0.6248	0.5932	-0.138
Mof_H 	H 	0.3	0.6359	0.5831	0.076
Mof_C 	C 	0.3857	0.65581	0.6176	0.135
Mof_C 	C 	0.4444	0.64022	0.6292	-0.137
Mof_H 	H 	0.4764	0.6621	0.6443	0.101
Mof_C 	C 	0.45432	0.59216	0.618	0.025
Mof_H 	H 	0.494	0.5812	0.6273	0.024
Mof_C 	C 	0.3995	0.73383	0.7157	0.114
Mof_H 	H 	0.4295	0.723	0.773	0.015
Mof_C 	C 	0.3311	0.7336	0.5683	0.013
Mof_H 	H 	0.3054	0.7236	0.504	0.024
Mof_C 	C 	0.3323	0.7763	0.6147	-0.013
Mof_H 	H 	0.3068	0.8021	0.5887	0.014
Mof_C 	C 	0.3324	0.40074	0.4499	-0.046
Mof_C 	C 	0.3405	0.3593	0.3897	0.009
Mof_H 	H 	0.3793	0.349	0.3852	0.043
Mof_C 	C 	0.2922	0.3338	0.3371	-0.118
Mof_H 	H 	0.2979	0.3066	0.2948	0.077
Mof_C 	C 	0.2352	0.348	0.3463	0.115
Mof_C 	C 	0.2271	0.3867	0.4092	-0.126
Mof_H 	H 	0.1884	0.3963	0.4166	0.06
Mof_C 	C 	0.2764	0.412	0.4622	0.008
Mof_H 	H 	0.2706	0.4379	0.5083	0.018
Mof_C 	C 	0.1314	0.3208	0.319	0.101
Mof_H 	H 	0.1233	0.3323	0.3862	-0.004
Mof_C 	C 	0.1779	0.3026	0.1842	-0.002
Mof_H 	H 	0.2072	0.2986	0.1403	0.025
Mof_C 	C 	0.1199	0.2894	0.1593	0.009
Mof_H 	H 	0.102	0.2747	0.093	0.039
Mof_N 	N 	0.7991	0.3308	0.8374	-0.252
Mof_N 	N 	0.70415	0.34783	0.7958	-0.138
Mof_N 	N 	0.3778	0.77791	0.71	-0.235
Mof_N 	N 	0.37481	0.70616	0.632	-0.14
Mof_N 	N 	0.0916	0.30009	0.2419	-0.205
Mof_N 	N 	0.18514	0.32304	0.2878	-0.141
Mof_S 	S 	0.9577	0.25002	0.0106	0.035
Mof_O 	O 	0.9073	0.2791	0.9604	-0.131
Mof_O 	O 	0.9825	0.2678	0.1145	-0.288
Mof_O 	O 	0.0024	0.2485	0.9423	-0.306
Mof_O 	O 	0.9864	0.3269	0.8365	-0.038
Mof_O 	O 	0.936	0.2018	0.0203	-0.142
Mof_S 	S 	0.9649	0.2825	0.976	0.741
Mof_O 	O 	0.8992	0.2786	0.9553	-0.286
Mof_O 	O 	0.9832	0.3102	0.0729	-0.319
Mof_O 	O 	0.9904	0.2353	0.9846	0.003
Mof_O 	O 	0.9812	0.3072	0.8814	-0.374
Mof_O 	O 	0.0123	0.3632	0.3358	-0.203
Mof_Co	Co	0.38946	0.82857	0.8349	1.093
Mof_C 	C 	0.2593	0.86015	0.7852	0.093
Mof_H 	H 	0.2685	0.8869	0.7448	-0.035
Mof_C 	C 	0.2668	0.7977	0.8875	0.003
Mof_H 	H 	0.2834	0.772	0.9325	0.038
Mof_C 	C 	0.2082	0.808	0.8617	0.006
Mof_H 	H 	0.1767	0.7913	0.8844	0.05
Mof_C 	C 	0.1494	0.87079	0.7429	0.124
Mof_C 	C 	0.1004	0.84357	0.7048	-0.127
Mof_H 	H 	0.1028	0.8098	0.71	0.082
Mof_C 	C 	0.0472	0.86501	0.6588	0.021
Mof_H 	H 	0.0134	0.8459	0.634	0.029
Mof_C 	C 	0.0435	0.91466	0.6487	-0.075
Mof_C 	C 	0.0942	0.9414	0.6855	0.027
Mof_H 	H 	0.0927	0.9751	0.6775	0.021
Mof_C 	C 	0.14663	0.92012	0.7332	-0.131
Mof_H 	H 	0.1804	0.9391	0.7593	0.073
Mof_C 	C 	0.98571	0.93772	0.6009	0.119
Mof_C 	C 	0.93846	0.90988	0.5461	-0.161
Mof_H 	H 	0.9445	0.8768	0.536	0.113
Mof_C 	C 	0.88309	0.92961	0.5064	0.098
Mof_C 	C 	0.8754	0.97905	0.5196	-0.147
Mof_H 	H 	0.8388	0.9935	0.4893	0.076
Mof_C 	C 	0.92104	0.00703	0.5768	0.08
Mof_C 	C 	0.97561	0.98625	0.6151	-0.107
Mof_H 	H 	0.0069	0.0055	0.652	0.048
Mof_C 	C 	0.91002	0.05975	0.5944	-0.044
Mof_C 	C 	0.8519	0.076	0.5832	0.011
Mof_H 	H 	0.8203	0.0538	0.5687	0.02
Mof_C 	C 	0.8396	0.1248	0.5932	-0.133
Mof_H 	H 	0.8	0.1359	0.5831	0.075
Mof_C 	C 	0.8857	0.15581	0.6176	0.133
Mof_C 	C 	0.9444	0.14022	0.6292	-0.129
Mof_H 	H 	0.9764	0.1621	0.6443	0.107
Mof_C 	C 	0.95432	0.09216	0.618	0.018
Mof_H 	H 	0.994	0.0812	0.6273	0.04
Mof_C 	C 	0.8995	0.23383	0.7157	0.114
Mof_H 	H 	0.9295	0.223	0.773	0.02
Mof_C 	C 	0.8311	0.2336	0.5683	0.013
Mof_H 	H 	0.8054	0.2236	0.504	0.025
Mof_C 	C 	0.8323	0.2763	0.6147	-0.012
Mof_H 	H 	0.8068	0.3021	0.5887	0.015
Mof_C 	C 	0.8324	0.90074	0.4499	-0.045
Mof_C 	C 	0.8405	0.8593	0.3897	0.008
Mof_H 	H 	0.8793	0.849	0.3852	0.046
Mof_C 	C 	0.7922	0.8338	0.3371	-0.117
Mof_H 	H 	0.7979	0.8066	0.2948	0.076
Mof_C 	C 	0.7352	0.848	0.3463	0.115
Mof_C 	C 	0.7271	0.8867	0.4092	-0.125
Mof_H 	H 	0.6884	0.8963	0.4166	0.062
Mof_C 	C 	0.7764	0.912	0.4622	0.008
Mof_H 	H 	0.7706	0.9379	0.5083	0.019
Mof_C 	C 	0.6314	0.8208	0.319	0.101
Mof_H 	H 	0.6233	0.8323	0.3862	-0.004
Mof_C 	C 	0.6779	0.8026	0.1842	-0.001
Mof_H 	H 	0.7072	0.7986	0.1403	0.026
Mof_C 	C 	0.6199	0.7894	0.1593	0.012
Mof_H 	H 	0.602	0.7747	0.093	0.043
Mof_N 	N 	0.2991	0.8308	0.8374	-0.253
Mof_N 	N 	0.20415	0.84783	0.7958	-0.139
Mof_N 	N 	0.8778	0.27791	0.71	-0.233
Mof_N 	N 	0.87481	0.20616	0.632	-0.139
Mof_N 	N 	0.5916	0.80009	0.2419	-0.202
Mof_N 	N 	0.68514	0.82304	0.2878	-0.14
Mof_S 	S 	0.4577	0.75002	0.0106	-0.072
Mof_O 	O 	0.4073	0.7791	0.9604	-0.128
Mof_O 	O 	0.4825	0.7678	0.1145	-0.279
Mof_O 	O 	0.5024	0.7485	0.9423	-0.262
Mof_O 	O 	0.4864	0.8269	0.8365	-0.025
Mof_O 	O 	0.436	0.7018	0.0203	-0.125
Mof_S 	S 	0.4649	0.7825	0.976	0.832
Mof_O 	O 	0.3992	0.7786	0.9553	-0.289
Mof_O 	O 	0.4832	0.8102	0.0729	-0.347
Mof_O 	O 	0.4904	0.7353	0.9846	-0.015
Mof_O 	O 	0.4812	0.8072	0.8814	-0.421
Mof_O 	O 	0.5123	0.8632	0.3358	-0.205
Mof_Co	Co	0.11054	0.32857	0.6651	1.088
Mof_C 	C 	0.2407	0.36015	0.7148	0.092
Mof_H 	H 	0.2315	0.3869	0.7552	-0.035
Mof_C 	C 	0.2332	0.2977	0.6125	0.001
Mof_H 	H 	0.2166	0.272	0.5675	0.035
Mof_C 	C 	0.2918	0.308	0.6383	0.005
Mof_H 	H 	0.3233	0.2913	0.6156	0.048
Mof_C 	C 	0.3506	0.37079	0.7571	0.114
Mof_C 	C 	0.3996	0.34357	0.7952	-0.109
Mof_H 	H 	0.3972	0.3098	0.79	0.079
Mof_C 	C 	0.4528	0.36501	0.8412	0.002
Mof_H 	H 	0.4866	0.3459	0.866	0.048
Mof_C 	C 	0.4565	0.41466	0.8513	-0.035
Mof_C 	C 	0.4058	0.4414	0.8145	0.007
Mof_H 	H 	0.4073	0.4751	0.8225	0.031
Mof_C 	C 	0.35337	0.42012	0.7668	-0.114
Mof_H 	H 	0.3196	0.4391	0.7407	0.067
Mof_C 	C 	0.51429	0.43772	0.8991	0.096
Mof_C 	C 	0.56154	0.40988	0.9539	-0.152
Mof_H 	H 	0.5555	0.3768	0.964	0.103
Mof_C 	C 	0.61691	0.42961	0.9936	0.098
Mof_C 	C 	0.6246	0.47905	0.9804	-0.13
Mof_H 	H 	0.6612	0.4935	0.0107	0.062
Mof_C 	C 	0.57896	0.50703	0.9232	0.088
Mof_C 	C 	0.52439	0.48625	0.8849	-0.147
Mof_H 	H 	0.4931	0.5055	0.848	0.083
Mof_C 	C 	0.58998	0.55975	0.9056	-0.05
Mof_C 	C 	0.6481	0.576	0.9168	0.016
Mof_H 	H 	0.6797	0.5538	0.9313	0.022
Mof_C 	C 	0.6604	0.6248	0.9068	-0.135
Mof_H 	H 	0.7	0.6359	0.9169	0.077
Mof_C 	C 	0.6143	0.65581	0.8824	0.134
Mof_C 	C 	0.5556	0.64022	0.8708	-0.133
Mof_H 	H 	0.5236	0.6621	0.8557	0.101
Mof_C 	C 	0.54568	0.59216	0.882	0.022
Mof_H 	H 	0.506	0.5812	0.8727	0.028
Mof_C 	C 	0.6005	0.73383	0.7843	0.114
Mof_H 	H 	0.5705	0.723	0.727	0.015
Mof_C 	C 	0.6689	0.7336	0.9317	0.014
Mof_H 	H 	0.6946	0.7236	0.996	0.028
Mof_C 	C 	0.6677	0.7763	0.8853	-0.012
Mof_H 	H 	0.6932	0.8021	0.9113	0.017
Mof_C 	C 	0.6676	0.40074	0.0501	-0.046
Mof_C 	C 	0.6595	0.3593	0.1103	0.005
Mof_H 	H 	0.6207	0.349	0.1148	0.041
Mof_C 	C 	0.7078	0.3338	0.1629	-0.116
Mof_H 	H 	0.7021	0.3066	0.2052	0.076
Mof_C 	C 	0.7648	0.348	0.1537	0.111
Mof_C 	C 	0.7729	0.3867	0.0908	-0.115
Mof_H 	H 	0.8116	0.3963	0.0834	0.058
Mof_C 	C 	0.7236	0.412	0.0378	-0.015
Mof_H 	H 	0.7294	0.4379	0.9917	0.036
Mof_C 	C 	0.8686	0.3208	0.181	0.102
Mof_H 	H 	0.8767	0.3323	0.1138	-0.005
Mof_C 	C 	0.8221	0.3026	0.3158	0
Mof_H 	H 	0.7928	0.2986	0.3597	0.028
Mof_C 	C 	0.8801	0.2894	0.3407	0.015
Mof_H 	H 	0.898	0.2747	0.407	0.05
Mof_N 	N 	0.2009	0.3308	0.6626	-0.254
Mof_N 	N 	0.29585	0.34783	0.7042	-0.138
Mof_N 	N 	0.6222	0.77791	0.79	-0.234
Mof_N 	N 	0.62519	0.70616	0.868	-0.139
Mof_N 	N 	0.9084	0.30009	0.2581	-0.196
Mof_N 	N 	0.81486	0.32304	0.2122	-0.14
Mof_S 	S 	0.0423	0.25002	0.4894	-0.292
Mof_O 	O 	0.0927	0.2791	0.5396	-0.127
Mof_O 	O 	0.0175	0.2678	0.3855	-0.242
Mof_O 	O 	0.9976	0.2485	0.5577	-0.266
Mof_O 	O 	0.0136	0.3269	0.6635	0.007
Mof_O 	O 	0.064	0.2018	0.4797	-0.079
Mof_S 	S 	0.0351	0.2825	0.524	1.009
Mof_O 	O 	0.1008	0.2786	0.5447	-0.298
Mof_O 	O 	0.0168	0.3102	0.4271	-0.388
Mof_O 	O 	0.0096	0.2353	0.5154	0.028
Mof_O 	O 	0.0188	0.3072	0.6186	-0.501
Mof_O 	O 	0.9877	0.3632	0.1642	-0.175
Mof_Co	Co	0.61054	0.82857	0.6651	1.091
Mof_C 	C 	0.7407	0.86015	0.7148	0.091
Mof_H 	H 	0.7315	0.8869	0.7552	-0.034
Mof_C 	C 	0.7332	0.7977	0.6125	0.001
Mof_H 	H 	0.7166	0.772	0.5675	0.035
Mof_C 	C 	0.7918	0.808	0.6383	0.004
Mof_H 	H 	0.8233	0.7913	0.6156	0.048
Mof_C 	C 	0.8506	0.87079	0.7571	0.105
Mof_C 	C 	0.8996	0.84357	0.7952	-0.094
Mof_H 	H 	0.8972	0.8098	0.79	0.077
Mof_C 	C 	0.9528	0.86501	0.8412	-0.015
Mof_H 	H 	0.9866	0.8459	0.866	0.066
Mof_C 	C 	0.9565	0.91466	0.8513	-0.002
Mof_C 	C 	0.9058	0.9414	0.8145	-0.012
Mof_H 	H 	0.9073	0.9751	0.8225	0.039
Mof_C 	C 	0.85337	0.92012	0.7668	-0.102
Mof_H 	H 	0.8196	0.9391	0.7407	0.063
Mof_C 	C 	0.01429	0.93772	0.8991	0.076
Mof_C 	C 	0.06154	0.90988	0.9539	-0.148
Mof_H 	H 	0.0555	0.8768	0.964	0.093
Mof_C 	C 	0.11691	0.92961	0.9936	0.099
Mof_C 	C 	0.1246	0.97905	0.9804	-0.134
Mof_H 	H 	0.1612	0.9935	0.0107	0.061
Mof_C 	C 	0.07896	0.00703	0.9232	0.104
Mof_C 	C 	0.02439	0.98625	0.8849	-0.194
Mof_H 	H 	0.9931	0.0055	0.848	0.117
Mof_C 	C 	0.08998	0.05975	0.9056	-0.064
Mof_C 	C 	0.1481	0.076	0.9168	0.024
Mof_H 	H 	0.1797	0.0538	0.9313	0.019
Mof_C 	C 	0.1604	0.1248	0.9068	-0.14
Mof_H 	H 	0.2	0.1359	0.9169	0.079
Mof_C 	C 	0.1143	0.15581	0.8824	0.137
Mof_C 	C 	0.0556	0.14022	0.8708	-0.14
Mof_H 	H 	0.0236	0.1621	0.8557	0.095
Mof_C 	C 	0.04568	0.09216	0.882	0.028
Mof_H 	H 	0.006	0.0812	0.8727	0.013
Mof_C 	C 	0.1005	0.23383	0.7843	0.114
Mof_H 	H 	0.0705	0.223	0.727	0.009
Mof_C 	C 	0.1689	0.2336	0.9317	0.014
Mof_H 	H 	0.1946	0.2236	0.996	0.029
Mof_C 	C 	0.1677	0.2763	0.8853	-0.013
Mof_H 	H 	0.1932	0.3021	0.9113	0.016
Mof_C 	C 	0.1676	0.90074	0.0501	-0.047
Mof_C 	C 	0.1595	0.8593	0.1103	0.005
Mof_H 	H 	0.1207	0.849	0.1148	0.037
Mof_C 	C 	0.2078	0.8338	0.1629	-0.116
Mof_H 	H 	0.2021	0.8066	0.2052	0.076
Mof_C 	C 	0.2648	0.848	0.1537	0.109
Mof_C 	C 	0.2729	0.8867	0.0908	-0.113
Mof_H 	H 	0.3116	0.8963	0.0834	0.055
Mof_C 	C 	0.2236	0.912	0.0378	-0.02
Mof_H 	H 	0.2294	0.9379	0.9917	0.038
Mof_C 	C 	0.3686	0.8208	0.181	0.101
Mof_H 	H 	0.3767	0.8323	0.1138	-0.006
Mof_C 	C 	0.3221	0.8026	0.3158	-0
Mof_H 	H 	0.2928	0.7986	0.3597	0.028
Mof_C 	C 	0.3801	0.7894	0.3407	0.012
Mof_H 	H 	0.398	0.7747	0.407	0.047
Mof_N 	N 	0.7009	0.8308	0.6626	-0.253
Mof_N 	N 	0.79585	0.84783	0.7042	-0.136
Mof_N 	N 	0.1222	0.27791	0.79	-0.236
Mof_N 	N 	0.12519	0.20616	0.868	-0.14
Mof_N 	N 	0.4084	0.80009	0.2581	-0.202
Mof_N 	N 	0.31486	0.82304	0.2122	-0.14
Mof_S 	S 	0.5423	0.75002	0.4894	-0.158
Mof_O 	O 	0.5927	0.7791	0.5396	-0.129
Mof_O 	O 	0.5175	0.7678	0.3855	-0.262
Mof_O 	O 	0.4976	0.7485	0.5577	-0.305
Mof_O 	O 	0.5136	0.8269	0.6635	-0.011
Mof_O 	O 	0.564	0.7018	0.4797	-0.103
Mof_S 	S 	0.5351	0.7825	0.524	0.899
Mof_O 	O 	0.6008	0.7786	0.5447	-0.294
Mof_O 	O 	0.5168	0.8102	0.4271	-0.356
Mof_O 	O 	0.5096	0.7353	0.5154	0.037
Mof_O 	O 	0.5188	0.8072	0.6186	-0.446
Mof_O 	O 	0.4877	0.8632	0.1642	-0.208
Mof_Co	Co	3.58056e-18	0.29912	0.25	1.199
Mof_O 	O 	6.01061e-34	0.3807	0.25	-0.096
Mof_Co	Co	0.5	0.79912	0.25	1.213
Mof_O 	O 	0.5	0.8807	0.25	-0.063
_end
