data_functionalizedCrystal
_audit_creation_method	'EQeq! by Chris Wilmer'
_symmetry_space_group_name_H-M	'P1'
_symmetry_Int_Tables_number	1
_symmetry_cell_setting	triclinic
loop_
_symmetry_equiv_pos_as_xyz
  x,y,z
_cell_length_a	35.2919
_cell_length_b	35.2919
_cell_length_c	20.3445
_cell_angle_alpha	90
_cell_angle_beta	90
_cell_angle_gamma	120
loop_
_atom_site_label
_atom_site_type_symbol
_atom_site_fract_x
_atom_site_fract_y
_atom_site_fract_z
_atom_site_charge
Mof_O 	O 	0.44618	0.47579	0.42527	-0.411
Mof_O 	O 	0.43339	0.48865	0.52885	-0.41
Mof_C 	C 	0.42208	0.47686	0.4702	0.364
Mof_C 	C 	0.37571	0.46284	0.45218	-0.126
Mof_C 	C 	0.34702	0.46217	0.49987	0.057
Mof_H 	H 	0.3571	0.4715	0.5434	0.023
Mof_C 	C 	0.30373	0.44783	0.48362	-0.139
Mof_H 	H 	0.2843	0.4478	0.516	0.087
Mof_C 	C 	0.28861	0.43361	0.42043	0.102
Mof_C 	C 	0.3182	0.43572	0.37197	-0.14
Mof_H 	H 	0.3087	0.4278	0.3279	0.078
Mof_C 	C 	0.36117	0.44944	0.3889	0.06
Mof_H 	H 	0.3807	0.4496	0.3567	0.025
Mof_C 	C 	0.24135	0.41393	0.40323	-0.07
Mof_C 	C 	0.22134	0.37544	0.36838	-0.04
Mof_H 	H 	0.2382	0.3625	0.3559	0.044
Mof_H 	H 	0.2326	0.5107	0.3884	-0.038
Mof_H 	H 	0.2517	0.5487	0.4927	0.189
Mof_O 	O 	0.11285	0.80912	0.7586	-0.41
Mof_O 	O 	0.10006	0.82198	0.86218	-0.409
Mof_C 	C 	0.08875	0.81019	0.80353	0.365
Mof_C 	C 	0.04238	0.79617	0.78551	-0.125
Mof_C 	C 	0.01369	0.7955	0.8332	0.059
Mof_H 	H 	0.02377	0.80483	0.87673	0.024
Mof_C 	C 	0.9704	0.78116	0.81695	-0.138
Mof_H 	H 	0.95097	0.78113	0.84933	0.088
Mof_C 	C 	0.95528	0.76694	0.75376	0.103
Mof_C 	C 	0.98487	0.76905	0.7053	-0.14
Mof_H 	H 	0.97537	0.76113	0.66123	0.079
Mof_C 	C 	0.02784	0.78277	0.72223	0.061
Mof_H 	H 	0.04737	0.78293	0.69003	0.025
Mof_C 	C 	0.90802	0.74726	0.73656	-0.07
Mof_C 	C 	0.88801	0.70877	0.70171	-0.04
Mof_H 	H 	0.90487	0.69583	0.68923	0.044
Mof_H 	H 	0.89927	0.84403	0.72173	-0.038
Mof_H 	H 	0.91837	0.88203	0.82603	0.189
Mof_O 	O 	0.77951	0.14246	0.09194	-0.41
Mof_O 	O 	0.76672	0.15532	0.19552	-0.409
Mof_C 	C 	0.75541	0.14353	0.13687	0.365
Mof_C 	C 	0.70904	0.12951	0.11885	-0.125
Mof_C 	C 	0.68035	0.12884	0.16654	0.058
Mof_H 	H 	0.69043	0.13817	0.21007	0.024
Mof_C 	C 	0.63706	0.1145	0.15029	-0.138
Mof_H 	H 	0.61763	0.11447	0.18267	0.088
Mof_C 	C 	0.62194	0.10028	0.0871	0.103
Mof_C 	C 	0.65153	0.10239	0.03864	-0.139
Mof_H 	H 	0.64203	0.09447	0.99457	0.079
Mof_C 	C 	0.6945	0.11611	0.05557	0.061
Mof_H 	H 	0.71403	0.11627	0.02337	0.026
Mof_C 	C 	0.57468	0.0806	0.0699	-0.07
Mof_C 	C 	0.55467	0.04211	0.03505	-0.04
Mof_H 	H 	0.57153	0.02917	0.02257	0.044
Mof_H 	H 	0.56593	0.17737	0.05507	-0.038
Mof_H 	H 	0.58503	0.21537	0.15937	0.189
Mof_O 	O 	0.52421	0.97039	0.42527	-0.41
Mof_O 	O 	0.51135	0.94474	0.52885	-0.409
Mof_C 	C 	0.52314	0.94522	0.4702	0.365
Mof_C 	C 	0.53716	0.91287	0.45218	-0.125
Mof_C 	C 	0.53783	0.88485	0.49987	0.058
Mof_H 	H 	0.5285	0.8856	0.5434	0.024
Mof_C 	C 	0.55217	0.8559	0.48362	-0.138
Mof_H 	H 	0.5522	0.8365	0.516	0.088
Mof_C 	C 	0.56639	0.855	0.42043	0.103
Mof_C 	C 	0.56428	0.88248	0.37197	-0.139
Mof_H 	H 	0.5722	0.8809	0.3279	0.079
Mof_C 	C 	0.55056	0.91173	0.3889	0.061
Mof_H 	H 	0.5504	0.9311	0.3567	0.025
Mof_C 	C 	0.58607	0.82742	0.40323	-0.07
Mof_C 	C 	0.62456	0.8459	0.36838	-0.04
Mof_H 	H 	0.6375	0.8757	0.3559	0.044
Mof_H 	H 	0.4893	0.7219	0.3884	-0.038
Mof_H 	H 	0.4513	0.703	0.4927	0.189
Mof_O 	O 	0.19088	0.30372	0.7586	-0.41
Mof_O 	O 	0.17802	0.27807	0.86218	-0.409
Mof_C 	C 	0.18981	0.27855	0.80353	0.365
Mof_C 	C 	0.20383	0.2462	0.78551	-0.125
Mof_C 	C 	0.2045	0.21818	0.8332	0.058
Mof_H 	H 	0.19517	0.21893	0.87673	0.024
Mof_C 	C 	0.21884	0.18923	0.81695	-0.138
Mof_H 	H 	0.21887	0.16983	0.84933	0.088
Mof_C 	C 	0.23306	0.18833	0.75376	0.103
Mof_C 	C 	0.23095	0.21581	0.7053	-0.139
Mof_H 	H 	0.23887	0.21423	0.66123	0.079
Mof_C 	C 	0.21723	0.24506	0.72223	0.061
Mof_H 	H 	0.21707	0.26443	0.69003	0.025
Mof_C 	C 	0.25274	0.16075	0.73656	-0.07
Mof_C 	C 	0.29123	0.17923	0.70171	-0.04
Mof_H 	H 	0.30417	0.20903	0.68923	0.044
Mof_H 	H 	0.15597	0.05523	0.72173	-0.038
Mof_H 	H 	0.11797	0.03633	0.82603	0.189
Mof_O 	O 	0.85754	0.63706	0.09194	-0.41
Mof_O 	O 	0.84468	0.61141	0.19552	-0.409
Mof_C 	C 	0.85647	0.61189	0.13687	0.365
Mof_C 	C 	0.87049	0.57954	0.11885	-0.125
Mof_C 	C 	0.87116	0.55152	0.16654	0.058
Mof_H 	H 	0.86183	0.55227	0.21007	0.024
Mof_C 	C 	0.8855	0.52257	0.15029	-0.138
Mof_H 	H 	0.88553	0.50317	0.18267	0.088
Mof_C 	C 	0.89972	0.52167	0.0871	0.103
Mof_C 	C 	0.89761	0.54915	0.03864	-0.139
Mof_H 	H 	0.90553	0.54757	0.99457	0.079
Mof_C 	C 	0.88389	0.5784	0.05557	0.061
Mof_H 	H 	0.88373	0.59777	0.02337	0.026
Mof_C 	C 	0.9194	0.49409	0.0699	-0.07
Mof_C 	C 	0.95789	0.51257	0.03505	-0.04
Mof_H 	H 	0.97083	0.54237	0.02257	0.044
Mof_H 	H 	0.82263	0.38857	0.05507	-0.038
Mof_H 	H 	0.78463	0.36967	0.15937	0.189
Mof_O 	O 	0.02961	0.55382	0.42527	-0.41
Mof_O 	O 	0.05526	0.56661	0.52885	-0.409
Mof_C 	C 	0.05478	0.57792	0.4702	0.365
Mof_C 	C 	0.08713	0.62429	0.45218	-0.125
Mof_C 	C 	0.11515	0.65298	0.49987	0.058
Mof_H 	H 	0.1144	0.6429	0.5434	0.024
Mof_C 	C 	0.1441	0.69627	0.48362	-0.138
Mof_H 	H 	0.1635	0.7157	0.516	0.088
Mof_C 	C 	0.145	0.71139	0.42043	0.103
Mof_C 	C 	0.11752	0.6818	0.37197	-0.139
Mof_H 	H 	0.1191	0.6913	0.3279	0.079
Mof_C 	C 	0.08827	0.63883	0.3889	0.061
Mof_H 	H 	0.0689	0.6193	0.3567	0.025
Mof_C 	C 	0.17258	0.75865	0.40323	-0.07
Mof_C 	C 	0.1541	0.77866	0.36838	-0.04
Mof_H 	H 	0.1243	0.7618	0.3559	0.044
Mof_H 	H 	0.2781	0.7674	0.3884	-0.038
Mof_H 	H 	0.297	0.7483	0.4927	0.189
Mof_O 	O 	0.69628	0.88715	0.7586	-0.41
Mof_O 	O 	0.72193	0.89994	0.86218	-0.409
Mof_C 	C 	0.72145	0.91125	0.80353	0.365
Mof_C 	C 	0.7538	0.95762	0.78551	-0.125
Mof_C 	C 	0.78182	0.98631	0.8332	0.058
Mof_H 	H 	0.78107	0.97623	0.87673	0.024
Mof_C 	C 	0.81077	0.0296	0.81695	-0.138
Mof_H 	H 	0.83017	0.04903	0.84933	0.088
Mof_C 	C 	0.81167	0.04472	0.75376	0.103
Mof_C 	C 	0.78419	0.01513	0.7053	-0.139
Mof_H 	H 	0.78577	0.02463	0.66123	0.079
Mof_C 	C 	0.75494	0.97216	0.72223	0.061
Mof_H 	H 	0.73557	0.95263	0.69003	0.025
Mof_C 	C 	0.83925	0.09198	0.73656	-0.07
Mof_C 	C 	0.82077	0.11199	0.70171	-0.04
Mof_H 	H 	0.79097	0.09513	0.68923	0.044
Mof_H 	H 	0.94477	0.10073	0.72173	-0.038
Mof_H 	H 	0.96367	0.08163	0.82603	0.189
Mof_O 	O 	0.36294	0.22049	0.09194	-0.41
Mof_O 	O 	0.38859	0.23328	0.19552	-0.409
Mof_C 	C 	0.38811	0.24459	0.13687	0.365
Mof_C 	C 	0.42046	0.29096	0.11885	-0.125
Mof_C 	C 	0.44848	0.31965	0.16654	0.058
Mof_H 	H 	0.44773	0.30957	0.21007	0.024
Mof_C 	C 	0.47743	0.36294	0.15029	-0.138
Mof_H 	H 	0.49683	0.38237	0.18267	0.088
Mof_C 	C 	0.47833	0.37806	0.0871	0.103
Mof_C 	C 	0.45085	0.34847	0.03864	-0.139
Mof_H 	H 	0.45243	0.35797	0.99457	0.079
Mof_C 	C 	0.4216	0.3055	0.05557	0.061
Mof_H 	H 	0.40223	0.28597	0.02337	0.026
Mof_C 	C 	0.50591	0.42532	0.0699	-0.07
Mof_C 	C 	0.48743	0.44533	0.03505	-0.04
Mof_H 	H 	0.45763	0.42847	0.02257	0.044
Mof_H 	H 	0.61143	0.43407	0.05507	-0.038
Mof_H 	H 	0.63033	0.41497	0.15937	0.189
Mof_O 	O 	0.47579	0.44618	0.57473	-0.41
Mof_O 	O 	0.48865	0.43339	0.47115	-0.409
Mof_C 	C 	0.47686	0.42208	0.5298	0.365
Mof_C 	C 	0.46284	0.37571	0.54782	-0.125
Mof_C 	C 	0.46217	0.34702	0.50013	0.058
Mof_H 	H 	0.4715	0.3571	0.4566	0.024
Mof_C 	C 	0.44783	0.30373	0.51638	-0.138
Mof_H 	H 	0.4478	0.2843	0.484	0.088
Mof_C 	C 	0.43361	0.28861	0.57957	0.103
Mof_C 	C 	0.43572	0.3182	0.62803	-0.139
Mof_H 	H 	0.4278	0.3087	0.6721	0.079
Mof_C 	C 	0.44944	0.36117	0.6111	0.061
Mof_H 	H 	0.4496	0.3807	0.6433	0.025
Mof_C 	C 	0.41393	0.24135	0.59677	-0.07
Mof_C 	C 	0.37544	0.22134	0.63162	-0.04
Mof_H 	H 	0.3625	0.2382	0.6441	0.044
Mof_H 	H 	0.5107	0.2326	0.6116	-0.038
Mof_H 	H 	0.5487	0.2517	0.5073	0.189
Mof_O 	O 	0.14246	0.77951	0.90806	-0.41
Mof_O 	O 	0.15532	0.76672	0.80448	-0.409
Mof_C 	C 	0.14353	0.75541	0.86313	0.365
Mof_C 	C 	0.12951	0.70904	0.88115	-0.125
Mof_C 	C 	0.12884	0.68035	0.83346	0.058
Mof_H 	H 	0.13817	0.69043	0.78993	0.024
Mof_C 	C 	0.1145	0.63706	0.84971	-0.138
Mof_H 	H 	0.11447	0.61763	0.81733	0.088
Mof_C 	C 	0.10028	0.62194	0.9129	0.103
Mof_C 	C 	0.10239	0.65153	0.96136	-0.139
Mof_H 	H 	0.09447	0.64203	0.00543	0.079
Mof_C 	C 	0.11611	0.6945	0.94443	0.061
Mof_H 	H 	0.11627	0.71403	0.97663	0.026
Mof_C 	C 	0.0806	0.57468	0.9301	-0.07
Mof_C 	C 	0.04211	0.55467	0.96495	-0.04
Mof_H 	H 	0.02917	0.57153	0.97743	0.044
Mof_H 	H 	0.17737	0.56593	0.94493	-0.038
Mof_H 	H 	0.21537	0.58503	0.84063	0.189
Mof_O 	O 	0.80912	0.11285	0.2414	-0.41
Mof_O 	O 	0.82198	0.10006	0.13782	-0.409
Mof_C 	C 	0.81019	0.08875	0.19647	0.365
Mof_C 	C 	0.79617	0.04238	0.21449	-0.125
Mof_C 	C 	0.7955	0.01369	0.1668	0.059
Mof_H 	H 	0.80483	0.02377	0.12327	0.024
Mof_C 	C 	0.78116	0.9704	0.18305	-0.138
Mof_H 	H 	0.78113	0.95097	0.15067	0.088
Mof_C 	C 	0.76694	0.95528	0.24624	0.103
Mof_C 	C 	0.76905	0.98487	0.2947	-0.14
Mof_H 	H 	0.76113	0.97537	0.33877	0.079
Mof_C 	C 	0.78277	0.02784	0.27777	0.061
Mof_H 	H 	0.78293	0.04737	0.30997	0.025
Mof_C 	C 	0.74726	0.90802	0.26344	-0.07
Mof_C 	C 	0.70877	0.88801	0.29829	-0.04
Mof_H 	H 	0.69583	0.90487	0.31077	0.044
Mof_H 	H 	0.84403	0.89927	0.27827	-0.038
Mof_H 	H 	0.88203	0.91837	0.17397	0.189
Mof_O 	O 	0.97039	0.52421	0.57473	-0.41
Mof_O 	O 	0.94474	0.51135	0.47115	-0.409
Mof_C 	C 	0.94522	0.52314	0.5298	0.365
Mof_C 	C 	0.91287	0.53716	0.54782	-0.125
Mof_C 	C 	0.88485	0.53783	0.50013	0.058
Mof_H 	H 	0.8856	0.5285	0.4566	0.024
Mof_C 	C 	0.8559	0.55217	0.51638	-0.138
Mof_H 	H 	0.8365	0.5522	0.484	0.088
Mof_C 	C 	0.855	0.56639	0.57957	0.103
Mof_C 	C 	0.88248	0.56428	0.62803	-0.139
Mof_H 	H 	0.8809	0.5722	0.6721	0.079
Mof_C 	C 	0.91173	0.55056	0.6111	0.061
Mof_H 	H 	0.9311	0.5504	0.6433	0.025
Mof_C 	C 	0.82742	0.58607	0.59677	-0.07
Mof_C 	C 	0.8459	0.62456	0.63162	-0.04
Mof_H 	H 	0.8757	0.6375	0.6441	0.044
Mof_H 	H 	0.7219	0.4893	0.6116	-0.038
Mof_H 	H 	0.703	0.4513	0.5073	0.189
Mof_O 	O 	0.63706	0.85754	0.90806	-0.41
Mof_O 	O 	0.61141	0.84468	0.80448	-0.409
Mof_C 	C 	0.61189	0.85647	0.86313	0.365
Mof_C 	C 	0.57954	0.87049	0.88115	-0.125
Mof_C 	C 	0.55152	0.87116	0.83346	0.058
Mof_H 	H 	0.55227	0.86183	0.78993	0.024
Mof_C 	C 	0.52257	0.8855	0.84971	-0.138
Mof_H 	H 	0.50317	0.88553	0.81733	0.088
Mof_C 	C 	0.52167	0.89972	0.9129	0.103
Mof_C 	C 	0.54915	0.89761	0.96136	-0.139
Mof_H 	H 	0.54757	0.90553	0.00543	0.079
Mof_C 	C 	0.5784	0.88389	0.94443	0.061
Mof_H 	H 	0.59777	0.88373	0.97663	0.026
Mof_C 	C 	0.49409	0.9194	0.9301	-0.07
Mof_C 	C 	0.51257	0.95789	0.96495	-0.04
Mof_H 	H 	0.54237	0.97083	0.97743	0.044
Mof_H 	H 	0.38857	0.82263	0.94493	-0.038
Mof_H 	H 	0.36967	0.78463	0.84063	0.189
Mof_O 	O 	0.30372	0.19088	0.2414	-0.41
Mof_O 	O 	0.27807	0.17802	0.13782	-0.409
Mof_C 	C 	0.27855	0.18981	0.19647	0.365
Mof_C 	C 	0.2462	0.20383	0.21449	-0.125
Mof_C 	C 	0.21818	0.2045	0.1668	0.058
Mof_H 	H 	0.21893	0.19517	0.12327	0.024
Mof_C 	C 	0.18923	0.21884	0.18305	-0.138
Mof_H 	H 	0.16983	0.21887	0.15067	0.088
Mof_C 	C 	0.18833	0.23306	0.24624	0.103
Mof_C 	C 	0.21581	0.23095	0.2947	-0.139
Mof_H 	H 	0.21423	0.23887	0.33877	0.079
Mof_C 	C 	0.24506	0.21723	0.27777	0.061
Mof_H 	H 	0.26443	0.21707	0.30997	0.025
Mof_C 	C 	0.16075	0.25274	0.26344	-0.07
Mof_C 	C 	0.17923	0.29123	0.29829	-0.04
Mof_H 	H 	0.20903	0.30417	0.31077	0.044
Mof_H 	H 	0.05523	0.15597	0.27827	-0.038
Mof_H 	H 	0.03633	0.11797	0.17397	0.189
Mof_O 	O 	0.55382	0.02961	0.57473	-0.41
Mof_O 	O 	0.56661	0.05526	0.47115	-0.409
Mof_C 	C 	0.57792	0.05478	0.5298	0.365
Mof_C 	C 	0.62429	0.08713	0.54782	-0.125
Mof_C 	C 	0.65298	0.11515	0.50013	0.058
Mof_H 	H 	0.6429	0.1144	0.4566	0.024
Mof_C 	C 	0.69627	0.1441	0.51638	-0.138
Mof_H 	H 	0.7157	0.1635	0.484	0.088
Mof_C 	C 	0.71139	0.145	0.57957	0.103
Mof_C 	C 	0.6818	0.11752	0.62803	-0.139
Mof_H 	H 	0.6913	0.1191	0.6721	0.079
Mof_C 	C 	0.63883	0.08827	0.6111	0.061
Mof_H 	H 	0.6193	0.0689	0.6433	0.025
Mof_C 	C 	0.75865	0.17258	0.59677	-0.07
Mof_C 	C 	0.77866	0.1541	0.63162	-0.04
Mof_H 	H 	0.7618	0.1243	0.6441	0.044
Mof_H 	H 	0.7674	0.2781	0.6116	-0.038
Mof_H 	H 	0.7483	0.297	0.5073	0.189
Mof_O 	O 	0.22049	0.36294	0.90806	-0.41
Mof_O 	O 	0.23328	0.38859	0.80448	-0.409
Mof_C 	C 	0.24459	0.38811	0.86313	0.365
Mof_C 	C 	0.29096	0.42046	0.88115	-0.125
Mof_C 	C 	0.31965	0.44848	0.83346	0.058
Mof_H 	H 	0.30957	0.44773	0.78993	0.024
Mof_C 	C 	0.36294	0.47743	0.84971	-0.138
Mof_H 	H 	0.38237	0.49683	0.81733	0.088
Mof_C 	C 	0.37806	0.47833	0.9129	0.103
Mof_C 	C 	0.34847	0.45085	0.96136	-0.139
Mof_H 	H 	0.35797	0.45243	0.00543	0.079
Mof_C 	C 	0.3055	0.4216	0.94443	0.061
Mof_H 	H 	0.28597	0.40223	0.97663	0.026
Mof_C 	C 	0.42532	0.50591	0.9301	-0.07
Mof_C 	C 	0.44533	0.48743	0.96495	-0.04
Mof_H 	H 	0.42847	0.45763	0.97743	0.044
Mof_H 	H 	0.43407	0.61143	0.94493	-0.038
Mof_H 	H 	0.41497	0.63033	0.84063	0.189
Mof_O 	O 	0.88715	0.69628	0.2414	-0.41
Mof_O 	O 	0.89994	0.72193	0.13782	-0.409
Mof_C 	C 	0.91125	0.72145	0.19647	0.365
Mof_C 	C 	0.95762	0.7538	0.21449	-0.125
Mof_C 	C 	0.98631	0.78182	0.1668	0.058
Mof_H 	H 	0.97623	0.78107	0.12327	0.024
Mof_C 	C 	0.0296	0.81077	0.18305	-0.138
Mof_H 	H 	0.04903	0.83017	0.15067	0.088
Mof_C 	C 	0.04472	0.81167	0.24624	0.103
Mof_C 	C 	0.01513	0.78419	0.2947	-0.139
Mof_H 	H 	0.02463	0.78577	0.33877	0.079
Mof_C 	C 	0.97216	0.75494	0.27777	0.061
Mof_H 	H 	0.95263	0.73557	0.30997	0.025
Mof_C 	C 	0.09198	0.83925	0.26344	-0.07
Mof_C 	C 	0.11199	0.82077	0.29829	-0.04
Mof_H 	H 	0.09513	0.79097	0.31077	0.044
Mof_H 	H 	0.10073	0.94477	0.27827	-0.038
Mof_H 	H 	0.08163	0.96367	0.17397	0.189
Mof_O 	O 	0.55382	0.52421	0.57473	-0.41
Mof_O 	O 	0.56661	0.51135	0.47115	-0.409
Mof_C 	C 	0.57792	0.52314	0.5298	0.365
Mof_C 	C 	0.62429	0.53716	0.54782	-0.125
Mof_C 	C 	0.65298	0.53783	0.50013	0.058
Mof_H 	H 	0.6429	0.5285	0.4566	0.024
Mof_C 	C 	0.69627	0.55217	0.51638	-0.138
Mof_H 	H 	0.7157	0.5522	0.484	0.088
Mof_C 	C 	0.71139	0.56639	0.57957	0.103
Mof_C 	C 	0.6818	0.56428	0.62803	-0.139
Mof_H 	H 	0.6913	0.5722	0.6721	0.079
Mof_C 	C 	0.63883	0.55056	0.6111	0.061
Mof_H 	H 	0.6193	0.5504	0.6433	0.025
Mof_C 	C 	0.75865	0.58607	0.59677	-0.07
Mof_C 	C 	0.77866	0.62456	0.63162	-0.04
Mof_H 	H 	0.7618	0.6375	0.6441	0.044
Mof_H 	H 	0.7674	0.4893	0.6116	-0.038
Mof_H 	H 	0.7483	0.4513	0.5073	0.189
Mof_O 	O 	0.22049	0.85754	0.90806	-0.41
Mof_O 	O 	0.23328	0.84468	0.80448	-0.409
Mof_C 	C 	0.24459	0.85647	0.86313	0.365
Mof_C 	C 	0.29096	0.87049	0.88115	-0.125
Mof_C 	C 	0.31965	0.87116	0.83346	0.058
Mof_H 	H 	0.30957	0.86183	0.78993	0.024
Mof_C 	C 	0.36294	0.8855	0.84971	-0.138
Mof_H 	H 	0.38237	0.88553	0.81733	0.088
Mof_C 	C 	0.37806	0.89972	0.9129	0.103
Mof_C 	C 	0.34847	0.89761	0.96136	-0.139
Mof_H 	H 	0.35797	0.90553	0.00543	0.079
Mof_C 	C 	0.3055	0.88389	0.94443	0.061
Mof_H 	H 	0.28597	0.88373	0.97663	0.026
Mof_C 	C 	0.42532	0.9194	0.9301	-0.07
Mof_C 	C 	0.44533	0.95789	0.96495	-0.04
Mof_H 	H 	0.42847	0.97083	0.97743	0.044
Mof_H 	H 	0.43407	0.82263	0.94493	-0.038
Mof_H 	H 	0.41497	0.78463	0.84063	0.189
Mof_O 	O 	0.88715	0.19088	0.2414	-0.41
Mof_O 	O 	0.89994	0.17802	0.13782	-0.409
Mof_C 	C 	0.91125	0.18981	0.19647	0.365
Mof_C 	C 	0.95762	0.20383	0.21449	-0.125
Mof_C 	C 	0.98631	0.2045	0.1668	0.059
Mof_H 	H 	0.97623	0.19517	0.12327	0.024
Mof_C 	C 	0.0296	0.21884	0.18305	-0.138
Mof_H 	H 	0.04903	0.21887	0.15067	0.088
Mof_C 	C 	0.04472	0.23306	0.24624	0.103
Mof_C 	C 	0.01513	0.23095	0.2947	-0.14
Mof_H 	H 	0.02463	0.23887	0.33877	0.079
Mof_C 	C 	0.97216	0.21723	0.27777	0.061
Mof_H 	H 	0.95263	0.21707	0.30997	0.025
Mof_C 	C 	0.09198	0.25274	0.26344	-0.07
Mof_C 	C 	0.11199	0.29123	0.29829	-0.04
Mof_H 	H 	0.09513	0.30417	0.31077	0.044
Mof_H 	H 	0.10073	0.15597	0.27827	-0.038
Mof_H 	H 	0.08163	0.11797	0.17397	0.189
Mof_O 	O 	0.47579	0.02961	0.57473	-0.41
Mof_O 	O 	0.48865	0.05526	0.47115	-0.409
Mof_C 	C 	0.47686	0.05478	0.5298	0.365
Mof_C 	C 	0.46284	0.08713	0.54782	-0.125
Mof_C 	C 	0.46217	0.11515	0.50013	0.058
Mof_H 	H 	0.4715	0.1144	0.4566	0.024
Mof_C 	C 	0.44783	0.1441	0.51638	-0.138
Mof_H 	H 	0.4478	0.1635	0.484	0.088
Mof_C 	C 	0.43361	0.145	0.57957	0.103
Mof_C 	C 	0.43572	0.11752	0.62803	-0.139
Mof_H 	H 	0.4278	0.1191	0.6721	0.079
Mof_C 	C 	0.44944	0.08827	0.6111	0.061
Mof_H 	H 	0.4496	0.0689	0.6433	0.025
Mof_C 	C 	0.41393	0.17258	0.59677	-0.07
Mof_C 	C 	0.37544	0.1541	0.63162	-0.04
Mof_H 	H 	0.3625	0.1243	0.6441	0.044
Mof_H 	H 	0.5107	0.2781	0.6116	-0.038
Mof_H 	H 	0.5487	0.297	0.5073	0.189
Mof_O 	O 	0.14246	0.36294	0.90806	-0.41
Mof_O 	O 	0.15532	0.38859	0.80448	-0.409
Mof_C 	C 	0.14353	0.38811	0.86313	0.365
Mof_C 	C 	0.12951	0.42046	0.88115	-0.125
Mof_C 	C 	0.12884	0.44848	0.83346	0.058
Mof_H 	H 	0.13817	0.44773	0.78993	0.024
Mof_C 	C 	0.1145	0.47743	0.84971	-0.138
Mof_H 	H 	0.11447	0.49683	0.81733	0.088
Mof_C 	C 	0.10028	0.47833	0.9129	0.103
Mof_C 	C 	0.10239	0.45085	0.96136	-0.139
Mof_H 	H 	0.09447	0.45243	0.00543	0.079
Mof_C 	C 	0.11611	0.4216	0.94443	0.061
Mof_H 	H 	0.11627	0.40223	0.97663	0.026
Mof_C 	C 	0.0806	0.50591	0.9301	-0.07
Mof_C 	C 	0.04211	0.48743	0.96495	-0.04
Mof_H 	H 	0.02917	0.45763	0.97743	0.044
Mof_H 	H 	0.17737	0.61143	0.94493	-0.038
Mof_H 	H 	0.21537	0.63033	0.84063	0.189
Mof_O 	O 	0.80912	0.69628	0.2414	-0.41
Mof_O 	O 	0.82198	0.72193	0.13782	-0.409
Mof_C 	C 	0.81019	0.72145	0.19647	0.365
Mof_C 	C 	0.79617	0.7538	0.21449	-0.125
Mof_C 	C 	0.7955	0.78182	0.1668	0.058
Mof_H 	H 	0.80483	0.78107	0.12327	0.024
Mof_C 	C 	0.78116	0.81077	0.18305	-0.138
Mof_H 	H 	0.78113	0.83017	0.15067	0.088
Mof_C 	C 	0.76694	0.81167	0.24624	0.103
Mof_C 	C 	0.76905	0.78419	0.2947	-0.139
Mof_H 	H 	0.76113	0.78577	0.33877	0.079
Mof_C 	C 	0.78277	0.75494	0.27777	0.061
Mof_H 	H 	0.78293	0.73557	0.30997	0.025
Mof_C 	C 	0.74726	0.83925	0.26344	-0.07
Mof_C 	C 	0.70877	0.82077	0.29829	-0.04
Mof_H 	H 	0.69583	0.79097	0.31077	0.044
Mof_H 	H 	0.84403	0.94477	0.27827	-0.038
Mof_H 	H 	0.88203	0.96367	0.17397	0.189
Mof_O 	O 	0.97039	0.44618	0.57473	-0.41
Mof_O 	O 	0.94474	0.43339	0.47115	-0.409
Mof_C 	C 	0.94522	0.42208	0.5298	0.365
Mof_C 	C 	0.91287	0.37571	0.54782	-0.125
Mof_C 	C 	0.88485	0.34702	0.50013	0.058
Mof_H 	H 	0.8856	0.3571	0.4566	0.024
Mof_C 	C 	0.8559	0.30373	0.51638	-0.138
Mof_H 	H 	0.8365	0.2843	0.484	0.088
Mof_C 	C 	0.855	0.28861	0.57957	0.103
Mof_C 	C 	0.88248	0.3182	0.62803	-0.139
Mof_H 	H 	0.8809	0.3087	0.6721	0.079
Mof_C 	C 	0.91173	0.36117	0.6111	0.061
Mof_H 	H 	0.9311	0.3807	0.6433	0.025
Mof_C 	C 	0.82742	0.24135	0.59677	-0.07
Mof_C 	C 	0.8459	0.22134	0.63162	-0.04
Mof_H 	H 	0.8757	0.2382	0.6441	0.044
Mof_H 	H 	0.7219	0.2326	0.6116	-0.038
Mof_H 	H 	0.703	0.2517	0.5073	0.189
Mof_O 	O 	0.63706	0.77951	0.90806	-0.41
Mof_O 	O 	0.61141	0.76672	0.80448	-0.409
Mof_C 	C 	0.61189	0.75541	0.86313	0.365
Mof_C 	C 	0.57954	0.70904	0.88115	-0.125
Mof_C 	C 	0.55152	0.68035	0.83346	0.058
Mof_H 	H 	0.55227	0.69043	0.78993	0.024
Mof_C 	C 	0.52257	0.63706	0.84971	-0.138
Mof_H 	H 	0.50317	0.61763	0.81733	0.088
Mof_C 	C 	0.52167	0.62194	0.9129	0.103
Mof_C 	C 	0.54915	0.65153	0.96136	-0.139
Mof_H 	H 	0.54757	0.64203	0.00543	0.079
Mof_C 	C 	0.5784	0.6945	0.94443	0.061
Mof_H 	H 	0.59777	0.71403	0.97663	0.026
Mof_C 	C 	0.49409	0.57468	0.9301	-0.07
Mof_C 	C 	0.51257	0.55467	0.96495	-0.04
Mof_H 	H 	0.54237	0.57153	0.97743	0.044
Mof_H 	H 	0.38857	0.56593	0.94493	-0.038
Mof_H 	H 	0.36967	0.58503	0.84063	0.189
Mof_O 	O 	0.30372	0.11285	0.2414	-0.41
Mof_O 	O 	0.27807	0.10006	0.13782	-0.409
Mof_C 	C 	0.27855	0.08875	0.19647	0.365
Mof_C 	C 	0.2462	0.04238	0.21449	-0.125
Mof_C 	C 	0.21818	0.01369	0.1668	0.058
Mof_H 	H 	0.21893	0.02377	0.12327	0.024
Mof_C 	C 	0.18923	0.9704	0.18305	-0.138
Mof_H 	H 	0.16983	0.95097	0.15067	0.088
Mof_C 	C 	0.18833	0.95528	0.24624	0.103
Mof_C 	C 	0.21581	0.98487	0.2947	-0.139
Mof_H 	H 	0.21423	0.97537	0.33877	0.079
Mof_C 	C 	0.24506	0.02784	0.27777	0.061
Mof_H 	H 	0.26443	0.04737	0.30997	0.025
Mof_C 	C 	0.16075	0.90802	0.26344	-0.07
Mof_C 	C 	0.17923	0.88801	0.29829	-0.04
Mof_H 	H 	0.20903	0.90487	0.31077	0.044
Mof_H 	H 	0.05523	0.89927	0.27827	-0.038
Mof_H 	H 	0.03633	0.91837	0.17397	0.189
Mof_O 	O 	0.52421	0.55382	0.42527	-0.41
Mof_O 	O 	0.51135	0.56661	0.52885	-0.409
Mof_C 	C 	0.52314	0.57792	0.4702	0.365
Mof_C 	C 	0.53716	0.62429	0.45218	-0.125
Mof_C 	C 	0.53783	0.65298	0.49987	0.058
Mof_H 	H 	0.5285	0.6429	0.5434	0.024
Mof_C 	C 	0.55217	0.69627	0.48362	-0.138
Mof_H 	H 	0.5522	0.7157	0.516	0.088
Mof_C 	C 	0.56639	0.71139	0.42043	0.103
Mof_C 	C 	0.56428	0.6818	0.37197	-0.139
Mof_H 	H 	0.5722	0.6913	0.3279	0.079
Mof_C 	C 	0.55056	0.63883	0.3889	0.061
Mof_H 	H 	0.5504	0.6193	0.3567	0.025
Mof_C 	C 	0.58607	0.75865	0.40323	-0.07
Mof_C 	C 	0.62456	0.77866	0.36838	-0.04
Mof_H 	H 	0.6375	0.7618	0.3559	0.044
Mof_H 	H 	0.4893	0.7674	0.3884	-0.038
Mof_H 	H 	0.4513	0.7483	0.4927	0.189
Mof_O 	O 	0.19088	0.88715	0.7586	-0.41
Mof_O 	O 	0.17802	0.89994	0.86218	-0.409
Mof_C 	C 	0.18981	0.91125	0.80353	0.365
Mof_C 	C 	0.20383	0.95762	0.78551	-0.125
Mof_C 	C 	0.2045	0.98631	0.8332	0.059
Mof_H 	H 	0.19517	0.97623	0.87673	0.024
Mof_C 	C 	0.21884	0.0296	0.81695	-0.138
Mof_H 	H 	0.21887	0.04903	0.84933	0.088
Mof_C 	C 	0.23306	0.04472	0.75376	0.103
Mof_C 	C 	0.23095	0.01513	0.7053	-0.14
Mof_H 	H 	0.23887	0.02463	0.66123	0.079
Mof_C 	C 	0.21723	0.97216	0.72223	0.061
Mof_H 	H 	0.21707	0.95263	0.69003	0.025
Mof_C 	C 	0.25274	0.09198	0.73656	-0.07
Mof_C 	C 	0.29123	0.11199	0.70171	-0.04
Mof_H 	H 	0.30417	0.09513	0.68923	0.044
Mof_H 	H 	0.15597	0.10073	0.72173	-0.038
Mof_H 	H 	0.11797	0.08163	0.82603	0.189
Mof_O 	O 	0.85754	0.22049	0.09194	-0.41
Mof_O 	O 	0.84468	0.23328	0.19552	-0.409
Mof_C 	C 	0.85647	0.24459	0.13687	0.365
Mof_C 	C 	0.87049	0.29096	0.11885	-0.125
Mof_C 	C 	0.87116	0.31965	0.16654	0.058
Mof_H 	H 	0.86183	0.30957	0.21007	0.024
Mof_C 	C 	0.8855	0.36294	0.15029	-0.138
Mof_H 	H 	0.88553	0.38237	0.18267	0.088
Mof_C 	C 	0.89972	0.37806	0.0871	0.103
Mof_C 	C 	0.89761	0.34847	0.03864	-0.139
Mof_H 	H 	0.90553	0.35797	0.99457	0.079
Mof_C 	C 	0.88389	0.3055	0.05557	0.061
Mof_H 	H 	0.88373	0.28597	0.02337	0.026
Mof_C 	C 	0.9194	0.42532	0.0699	-0.07
Mof_C 	C 	0.95789	0.44533	0.03505	-0.04
Mof_H 	H 	0.97083	0.42847	0.02257	0.044
Mof_H 	H 	0.82263	0.43407	0.05507	-0.038
Mof_H 	H 	0.78463	0.41497	0.15937	0.189
Mof_O 	O 	0.02961	0.47579	0.42527	-0.41
Mof_O 	O 	0.05526	0.48865	0.52885	-0.409
Mof_C 	C 	0.05478	0.47686	0.4702	0.365
Mof_C 	C 	0.08713	0.46284	0.45218	-0.125
Mof_C 	C 	0.11515	0.46217	0.49987	0.058
Mof_H 	H 	0.1144	0.4715	0.5434	0.024
Mof_C 	C 	0.1441	0.44783	0.48362	-0.138
Mof_H 	H 	0.1635	0.4478	0.516	0.088
Mof_C 	C 	0.145	0.43361	0.42043	0.103
Mof_C 	C 	0.11752	0.43572	0.37197	-0.139
Mof_H 	H 	0.1191	0.4278	0.3279	0.079
Mof_C 	C 	0.08827	0.44944	0.3889	0.061
Mof_H 	H 	0.0689	0.4496	0.3567	0.025
Mof_C 	C 	0.17258	0.41393	0.40323	-0.07
Mof_C 	C 	0.1541	0.37544	0.36838	-0.04
Mof_H 	H 	0.1243	0.3625	0.3559	0.044
Mof_H 	H 	0.2781	0.5107	0.3884	-0.038
Mof_H 	H 	0.297	0.5487	0.4927	0.189
Mof_O 	O 	0.69628	0.80912	0.7586	-0.41
Mof_O 	O 	0.72193	0.82198	0.86218	-0.409
Mof_C 	C 	0.72145	0.81019	0.80353	0.365
Mof_C 	C 	0.7538	0.79617	0.78551	-0.125
Mof_C 	C 	0.78182	0.7955	0.8332	0.058
Mof_H 	H 	0.78107	0.80483	0.87673	0.024
Mof_C 	C 	0.81077	0.78116	0.81695	-0.138
Mof_H 	H 	0.83017	0.78113	0.84933	0.088
Mof_C 	C 	0.81167	0.76694	0.75376	0.103
Mof_C 	C 	0.78419	0.76905	0.7053	-0.139
Mof_H 	H 	0.78577	0.76113	0.66123	0.079
Mof_C 	C 	0.75494	0.78277	0.72223	0.061
Mof_H 	H 	0.73557	0.78293	0.69003	0.025
Mof_C 	C 	0.83925	0.74726	0.73656	-0.07
Mof_C 	C 	0.82077	0.70877	0.70171	-0.04
Mof_H 	H 	0.79097	0.69583	0.68923	0.044
Mof_H 	H 	0.94477	0.84403	0.72173	-0.038
Mof_H 	H 	0.96367	0.88203	0.82603	0.189
Mof_O 	O 	0.36294	0.14246	0.09194	-0.41
Mof_O 	O 	0.38859	0.15532	0.19552	-0.409
Mof_C 	C 	0.38811	0.14353	0.13687	0.365
Mof_C 	C 	0.42046	0.12951	0.11885	-0.125
Mof_C 	C 	0.44848	0.12884	0.16654	0.058
Mof_H 	H 	0.44773	0.13817	0.21007	0.024
Mof_C 	C 	0.47743	0.1145	0.15029	-0.138
Mof_H 	H 	0.49683	0.11447	0.18267	0.088
Mof_C 	C 	0.47833	0.10028	0.0871	0.103
Mof_C 	C 	0.45085	0.10239	0.03864	-0.139
Mof_H 	H 	0.45243	0.09447	0.99457	0.079
Mof_C 	C 	0.4216	0.11611	0.05557	0.061
Mof_H 	H 	0.40223	0.11627	0.02337	0.026
Mof_C 	C 	0.50591	0.0806	0.0699	-0.07
Mof_C 	C 	0.48743	0.04211	0.03505	-0.04
Mof_H 	H 	0.45763	0.02917	0.02257	0.044
Mof_H 	H 	0.61143	0.17737	0.05507	-0.038
Mof_H 	H 	0.63033	0.21537	0.15937	0.189
Mof_O 	O 	0.44618	0.97039	0.42527	-0.41
Mof_O 	O 	0.43339	0.94474	0.52885	-0.409
Mof_C 	C 	0.42208	0.94522	0.4702	0.365
Mof_C 	C 	0.37571	0.91287	0.45218	-0.125
Mof_C 	C 	0.34702	0.88485	0.49987	0.058
Mof_H 	H 	0.3571	0.8856	0.5434	0.024
Mof_C 	C 	0.30373	0.8559	0.48362	-0.138
Mof_H 	H 	0.2843	0.8365	0.516	0.088
Mof_C 	C 	0.28861	0.855	0.42043	0.103
Mof_C 	C 	0.3182	0.88248	0.37197	-0.139
Mof_H 	H 	0.3087	0.8809	0.3279	0.079
Mof_C 	C 	0.36117	0.91173	0.3889	0.061
Mof_H 	H 	0.3807	0.9311	0.3567	0.025
Mof_C 	C 	0.24135	0.82742	0.40323	-0.07
Mof_C 	C 	0.22134	0.8459	0.36838	-0.04
Mof_H 	H 	0.2382	0.8757	0.3559	0.044
Mof_H 	H 	0.2326	0.7219	0.3884	-0.038
Mof_H 	H 	0.2517	0.703	0.4927	0.189
Mof_O 	O 	0.11285	0.30372	0.7586	-0.41
Mof_O 	O 	0.10006	0.27807	0.86218	-0.409
Mof_C 	C 	0.08875	0.27855	0.80353	0.365
Mof_C 	C 	0.04238	0.2462	0.78551	-0.125
Mof_C 	C 	0.01369	0.21818	0.8332	0.058
Mof_H 	H 	0.02377	0.21893	0.87673	0.024
Mof_C 	C 	0.9704	0.18923	0.81695	-0.138
Mof_H 	H 	0.95097	0.16983	0.84933	0.088
Mof_C 	C 	0.95528	0.18833	0.75376	0.103
Mof_C 	C 	0.98487	0.21581	0.7053	-0.139
Mof_H 	H 	0.97537	0.21423	0.66123	0.079
Mof_C 	C 	0.02784	0.24506	0.72223	0.061
Mof_H 	H 	0.04737	0.26443	0.69003	0.025
Mof_C 	C 	0.90802	0.16075	0.73656	-0.07
Mof_C 	C 	0.88801	0.17923	0.70171	-0.04
Mof_H 	H 	0.90487	0.20903	0.68923	0.044
Mof_H 	H 	0.89927	0.05523	0.72173	-0.038
Mof_H 	H 	0.91837	0.03633	0.82603	0.189
Mof_O 	O 	0.77951	0.63706	0.09194	-0.41
Mof_O 	O 	0.76672	0.61141	0.19552	-0.409
Mof_C 	C 	0.75541	0.61189	0.13687	0.365
Mof_C 	C 	0.70904	0.57954	0.11885	-0.125
Mof_C 	C 	0.68035	0.55152	0.16654	0.058
Mof_H 	H 	0.69043	0.55227	0.21007	0.024
Mof_C 	C 	0.63706	0.52257	0.15029	-0.138
Mof_H 	H 	0.61763	0.50317	0.18267	0.088
Mof_C 	C 	0.62194	0.52167	0.0871	0.103
Mof_C 	C 	0.65153	0.54915	0.03864	-0.139
Mof_H 	H 	0.64203	0.54757	0.99457	0.079
Mof_C 	C 	0.6945	0.5784	0.05557	0.061
Mof_H 	H 	0.71403	0.59777	0.02337	0.026
Mof_C 	C 	0.57468	0.49409	0.0699	-0.07
Mof_C 	C 	0.55467	0.51257	0.03505	-0.04
Mof_H 	H 	0.57153	0.54237	0.02257	0.044
Mof_H 	H 	0.56593	0.38857	0.05507	-0.038
Mof_H 	H 	0.58503	0.36967	0.15937	0.189
Mof_Cu	Cu	0.50745	0.49255	0.43921	0.904
Mof_Cu	Cu	0.17412	0.82588	0.77254	0.904
Mof_Cu	Cu	0.84078	0.15922	0.10588	0.904
Mof_Cu	Cu	0.50745	0.0149	0.43921	0.904
Mof_Cu	Cu	0.17412	0.34823	0.77254	0.904
Mof_Cu	Cu	0.84078	0.68157	0.10588	0.904
Mof_Cu	Cu	0.9851	0.49255	0.43921	0.904
Mof_Cu	Cu	0.65177	0.82588	0.77254	0.904
Mof_Cu	Cu	0.31843	0.15922	0.10588	0.904
Mof_Cu	Cu	0.49255	0.50745	0.56079	0.904
Mof_Cu	Cu	0.15922	0.84078	0.89412	0.904
Mof_Cu	Cu	0.82588	0.17412	0.22746	0.904
Mof_Cu	Cu	0.0149	0.50745	0.56079	0.904
Mof_Cu	Cu	0.68157	0.84078	0.89412	0.904
Mof_Cu	Cu	0.34823	0.17412	0.22746	0.904
Mof_Cu	Cu	0.49255	0.9851	0.56079	0.904
Mof_Cu	Cu	0.15922	0.31843	0.89412	0.904
Mof_Cu	Cu	0.82588	0.65177	0.22746	0.904
Mof_O 	O 	0.2362	0.4724	0.45613	-0.267
Mof_C 	C 	0.17726	0.35453	0.3504	0.005
Mof_C 	C 	0.21684	0.43369	0.42154	0.147
Mof_C 	C 	0.25504	0.51008	0.4167	0.25
Mof_C 	C 	0.2749	0.5498	0.465	-0.548
Mof_H 	H 	0.2886	0.5772	0.4397	0.175
Mof_O 	O 	0.90287	0.80573	0.78946	-0.267
Mof_C 	C 	0.84393	0.68786	0.68373	0.005
Mof_C 	C 	0.88351	0.76702	0.75487	0.147
Mof_C 	C 	0.92171	0.84341	0.75003	0.25
Mof_C 	C 	0.94157	0.88313	0.79833	-0.548
Mof_H 	H 	0.95527	0.91053	0.77303	0.175
Mof_O 	O 	0.56953	0.13907	0.1228	-0.267
Mof_C 	C 	0.5106	0.0212	0.01707	0.005
Mof_C 	C 	0.55018	0.10036	0.08821	0.147
Mof_C 	C 	0.58837	0.17675	0.08337	0.25
Mof_C 	C 	0.60823	0.21647	0.13167	-0.548
Mof_H 	H 	0.62193	0.24387	0.10637	0.175
Mof_O 	O 	0.5276	0.7638	0.45613	-0.267
Mof_C 	C 	0.64547	0.82274	0.3504	0.005
Mof_C 	C 	0.56631	0.78316	0.42154	0.147
Mof_C 	C 	0.48992	0.74496	0.4167	0.25
Mof_C 	C 	0.4502	0.7251	0.465	-0.548
Mof_H 	H 	0.4228	0.7114	0.4397	0.175
Mof_O 	O 	0.19427	0.09713	0.78946	-0.267
Mof_C 	C 	0.31214	0.15607	0.68373	0.005
Mof_C 	C 	0.23298	0.11649	0.75487	0.147
Mof_C 	C 	0.15659	0.07829	0.75003	0.25
Mof_C 	C 	0.11687	0.05843	0.79833	-0.548
Mof_H 	H 	0.08947	0.04473	0.77303	0.175
Mof_O 	O 	0.86093	0.43047	0.1228	-0.267
Mof_C 	C 	0.9788	0.4894	0.01707	0.005
Mof_C 	C 	0.89964	0.44982	0.08821	0.147
Mof_C 	C 	0.82325	0.41163	0.08337	0.25
Mof_C 	C 	0.78353	0.39177	0.13167	-0.548
Mof_H 	H 	0.75613	0.37807	0.10637	0.175
Mof_O 	O 	0.2362	0.7638	0.45613	-0.267
Mof_C 	C 	0.17726	0.82274	0.3504	0.005
Mof_C 	C 	0.21684	0.78316	0.42154	0.147
Mof_C 	C 	0.25504	0.74496	0.4167	0.25
Mof_C 	C 	0.2749	0.7251	0.465	-0.548
Mof_H 	H 	0.2886	0.7114	0.4397	0.175
Mof_O 	O 	0.90287	0.09713	0.78946	-0.267
Mof_C 	C 	0.84393	0.15607	0.68373	0.005
Mof_C 	C 	0.88351	0.11649	0.75487	0.147
Mof_C 	C 	0.92171	0.07829	0.75003	0.25
Mof_C 	C 	0.94157	0.05843	0.79833	-0.548
Mof_H 	H 	0.95527	0.04473	0.77303	0.175
Mof_O 	O 	0.56953	0.43047	0.1228	-0.267
Mof_C 	C 	0.5106	0.4894	0.01707	0.005
Mof_C 	C 	0.55018	0.44982	0.08821	0.147
Mof_C 	C 	0.58837	0.41163	0.08337	0.25
Mof_C 	C 	0.60823	0.39177	0.13167	-0.548
Mof_H 	H 	0.62193	0.37807	0.10637	0.175
Mof_O 	O 	0.4724	0.2362	0.54387	-0.267
Mof_C 	C 	0.35453	0.17726	0.6496	0.005
Mof_C 	C 	0.43369	0.21684	0.57846	0.147
Mof_C 	C 	0.51008	0.25504	0.5833	0.25
Mof_C 	C 	0.5498	0.2749	0.535	-0.548
Mof_H 	H 	0.5772	0.2886	0.5603	0.175
Mof_O 	O 	0.13907	0.56953	0.8772	-0.267
Mof_C 	C 	0.0212	0.5106	0.98293	0.005
Mof_C 	C 	0.10036	0.55018	0.91179	0.147
Mof_C 	C 	0.17675	0.58837	0.91663	0.25
Mof_C 	C 	0.21647	0.60823	0.86833	-0.548
Mof_H 	H 	0.24387	0.62193	0.89363	0.175
Mof_O 	O 	0.80573	0.90287	0.21054	-0.267
Mof_C 	C 	0.68786	0.84393	0.31627	0.005
Mof_C 	C 	0.76702	0.88351	0.24513	0.147
Mof_C 	C 	0.84341	0.92171	0.24997	0.25
Mof_C 	C 	0.88313	0.94157	0.20167	-0.548
Mof_H 	H 	0.91053	0.95527	0.22697	0.175
Mof_O 	O 	0.7638	0.5276	0.54387	-0.267
Mof_C 	C 	0.82274	0.64547	0.6496	0.005
Mof_C 	C 	0.78316	0.56631	0.57846	0.147
Mof_C 	C 	0.74496	0.48992	0.5833	0.25
Mof_C 	C 	0.7251	0.4502	0.535	-0.548
Mof_H 	H 	0.7114	0.4228	0.5603	0.175
Mof_O 	O 	0.43047	0.86093	0.8772	-0.267
Mof_C 	C 	0.4894	0.9788	0.98293	0.005
Mof_C 	C 	0.44982	0.89964	0.91179	0.147
Mof_C 	C 	0.41163	0.82325	0.91663	0.25
Mof_C 	C 	0.39177	0.78353	0.86833	-0.548
Mof_H 	H 	0.37807	0.75613	0.89363	0.175
Mof_O 	O 	0.09713	0.19427	0.21054	-0.267
Mof_C 	C 	0.15607	0.31214	0.31627	0.005
Mof_C 	C 	0.11649	0.23298	0.24513	0.147
Mof_C 	C 	0.07829	0.15659	0.24997	0.25
Mof_C 	C 	0.05843	0.11687	0.20167	-0.548
Mof_H 	H 	0.04473	0.08947	0.22697	0.175
Mof_O 	O 	0.7638	0.2362	0.54387	-0.267
Mof_C 	C 	0.82274	0.17726	0.6496	0.005
Mof_C 	C 	0.78316	0.21684	0.57846	0.147
Mof_C 	C 	0.74496	0.25504	0.5833	0.25
Mof_C 	C 	0.7251	0.2749	0.535	-0.548
Mof_H 	H 	0.7114	0.2886	0.5603	0.175
Mof_O 	O 	0.43047	0.56953	0.8772	-0.267
Mof_C 	C 	0.4894	0.5106	0.98293	0.005
Mof_C 	C 	0.44982	0.55018	0.91179	0.147
Mof_C 	C 	0.41163	0.58837	0.91663	0.25
Mof_C 	C 	0.39177	0.60823	0.86833	-0.548
Mof_H 	H 	0.37807	0.62193	0.89363	0.175
Mof_O 	O 	0.09713	0.90287	0.21054	-0.267
Mof_C 	C 	0.15607	0.84393	0.31627	0.005
Mof_C 	C 	0.11649	0.88351	0.24513	0.147
Mof_C 	C 	0.07829	0.92171	0.24997	0.25
Mof_C 	C 	0.05843	0.94157	0.20167	-0.548
Mof_H 	H 	0.04473	0.95527	0.22697	0.175
_end
