data_functionalizedCrystal
_audit_creation_method	'EQeq! by Chris Wilmer'
_symmetry_space_group_name_H-M	'P1'
_symmetry_Int_Tables_number	1
_symmetry_cell_setting	triclinic
loop_
_symmetry_equiv_pos_as_xyz
  x,y,z
_cell_length_a	6.6288
_cell_length_b	16.7276
_cell_length_c	12.8336
_cell_angle_alpha	90
_cell_angle_beta	90
_cell_angle_gamma	90
loop_
_atom_site_label
_atom_site_type_symbol
_atom_site_fract_x
_atom_site_fract_y
_atom_site_fract_z
_atom_site_charge
Mof_O 	O 	0.16576	0.16835	0.84288	-1.515
Mof_C 	C 	0.8091	0.03544	0.9675	0.03
Mof_O 	O 	0.66576	0.66835	0.34288	-1.507
Mof_C 	C 	0.3091	0.53544	0.4675	0.074
Mof_O 	O 	0.83424	0.33165	0.84288	-1.537
Mof_C 	C 	0.1909	0.46456	0.9675	0.061
Mof_O 	O 	0.33424	0.83165	0.34288	-1.507
Mof_C 	C 	0.6909	0.96456	0.4675	0.053
Mof_O 	O 	0.83424	0.66835	0.15712	-1.537
Mof_C 	C 	0.1909	0.53544	0.0325	0.061
Mof_O 	O 	0.33424	0.16835	0.65712	-1.507
Mof_C 	C 	0.6909	0.03544	0.5325	0.053
Mof_O 	O 	0.16576	0.83165	0.15712	-1.516
Mof_C 	C 	0.8091	0.96456	0.0325	0.029
Mof_O 	O 	0.66576	0.33165	0.65712	-1.507
Mof_C 	C 	0.3091	0.46456	0.5325	0.074
Mof_O 	O 	0.83424	0.83165	0.15712	-1.537
Mof_C 	C 	0.1909	0.96456	0.0325	0.061
Mof_O 	O 	0.33424	0.33165	0.65712	-1.507
Mof_C 	C 	0.6909	0.46456	0.5325	0.053
Mof_O 	O 	0.16576	0.66835	0.15712	-1.516
Mof_C 	C 	0.8091	0.53544	0.0325	0.029
Mof_O 	O 	0.66576	0.16835	0.65712	-1.507
Mof_C 	C 	0.3091	0.03544	0.5325	0.074
Mof_O 	O 	0.16576	0.33165	0.84288	-1.516
Mof_C 	C 	0.8091	0.46456	0.9675	0.029
Mof_O 	O 	0.66576	0.83165	0.34288	-1.507
Mof_C 	C 	0.3091	0.96456	0.4675	0.074
Mof_O 	O 	0.83424	0.16835	0.84288	-1.537
Mof_C 	C 	0.1909	0.03544	0.9675	0.061
Mof_O 	O 	0.33424	0.66835	0.34288	-1.507
Mof_C 	C 	0.6909	0.53544	0.4675	0.053
Mof_Al	Al	0.25	0.25	0.75	6.378
Mof_Al	Al	0.75	0.25	0.75	6.291
Mof_Al	Al	0.75	0.75	0.25	6.291
Mof_Al	Al	0.25	0.75	0.25	6.378
Mof_O 	O 	-1.27617e-32	0.25	0.6857	-2.205
Mof_O 	O 	0.5	0.75	0.1857	-2.231
Mof_O 	O 	-1.10229e-32	0.75	0.3143	-2.205
Mof_O 	O 	0.5	0.25	0.8143	-2.231
Mof_C 	C 	6.86989e-33	0.0622	0.9464	-0.252
Mof_C 	C 	-1.14123e-32	0.137	0.8716	1.16
Mof_C 	C 	0.5	0.5622	0.4464	-0.291
Mof_C 	C 	0.5	0.637	0.3716	1.116
Mof_C 	C 	2.46091e-32	0.4378	0.9464	-0.252
Mof_C 	C 	-2.91514e-32	0.363	0.8716	1.16
Mof_C 	C 	0.5	0.9378	0.4464	-0.291
Mof_C 	C 	0.5	0.863	0.3716	1.116
Mof_C 	C 	1.9237e-32	0.5622	0.0536	-0.252
Mof_C 	C 	3.14945e-33	0.637	0.1284	1.16
Mof_C 	C 	0.5	0.0622	0.5536	-0.291
Mof_C 	C 	0.5	0.137	0.6284	1.116
Mof_C 	C 	1.49778e-33	0.9378	0.0536	-0.252
Mof_C 	C 	-1.45897e-32	0.863	0.1284	1.16
Mof_C 	C 	0.5	0.4378	0.5536	-0.291
Mof_C 	C 	0.5	0.363	0.6284	1.116
_end
