data_functionalizedCrystal
_audit_creation_method	'EQeq! by Chris Wilmer'
_symmetry_space_group_name_H-M	'P1'
_symmetry_Int_Tables_number	1
_symmetry_cell_setting	triclinic
loop_
_symmetry_equiv_pos_as_xyz
  x,y,z
_cell_length_a	9.601
_cell_length_b	9.757
_cell_length_c	10.701
_cell_angle_alpha	74.2
_cell_angle_beta	75.01
_cell_angle_gamma	88.48
loop_
_atom_site_label
_atom_site_type_symbol
_atom_site_fract_x
_atom_site_fract_y
_atom_site_fract_z
_atom_site_charge
Mof_Ga	Ga	0.2234	0.7893	0.8332	4.154
Mof_Ga	Ga	0.4779	0.2171	0.936	4.28
Mof_Ga	Ga	0.1812	0.952	0.3426	4.398
Mof_Ga	Ga	0.9768	0.4939	0.8658	3.782
Mof_P 	P 	0.4982	0.9743	0.7873	1.168
Mof_P 	P 	0.2837	0.4815	0.9024	0.957
Mof_P 	P 	0.0235	0.7926	0.6421	1.175
Mof_P 	P 	0.1816	0.7834	0.1324	1.086
Mof_O 	O 	0.1774	0.446	0.8311	-1.044
Mof_O 	O 	0.4177	0.3934	0.8775	-1.219
Mof_O 	O 	0.186	0.8558	0.9855	-1.214
Mof_O 	O 	0.4345	0.0835	0.8623	-1.412
Mof_O 	O 	0.3839	0.9223	0.7364	-1.076
Mof_O 	O 	0.3429	0.6372	0.8348	-1.141
Mof_O 	O 	0.9874	0.6347	0.6997	-1.031
Mof_O 	O 	0.0919	0.8176	0.4919	-1.326
Mof_O 	O 	0.0428	0.644	0.9432	-1.817
Mof_O 	O 	0.22	0.4596	0.0534	-1.041
Mof_O 	O 	0.124	0.8544	0.7044	-1.299
Mof_O 	O 	0.3304	0.7321	0.1456	-1.3
Mof_O 	O 	0.1401	0.9021	0.2033	-1.317
Mof_O 	O 	0.6269	0.0409	0.6687	-1.297
Mof_O 	O 	0.556	0.8504	0.8822	-1.386
Mof_O 	O 	0.0741	0.6587	0.1968	-1.039
Mof_O 	O 	0.88	0.8706	0.6598	-1.308
Mof_H 	H 	0.9659	0.7043	0.9708	0.267
Mof_Ga	Ga	0.7766	0.2107	0.1668	4.154
Mof_Ga	Ga	0.5221	0.7829	0.064	4.28
Mof_Ga	Ga	0.8188	0.048	0.6574	4.398
Mof_Ga	Ga	0.0232	0.5061	0.1342	3.782
Mof_P 	P 	0.5018	0.0257	0.2127	1.168
Mof_P 	P 	0.7163	0.5185	0.0976	0.957
Mof_P 	P 	0.9765	0.2074	0.3579	1.175
Mof_P 	P 	0.8184	0.2166	0.8676	1.086
Mof_O 	O 	0.8226	0.554	0.1689	-1.044
Mof_O 	O 	0.5823	0.6066	0.1225	-1.219
Mof_O 	O 	0.814	0.1442	0.0145	-1.214
Mof_O 	O 	0.5655	0.9165	0.1377	-1.412
Mof_O 	O 	0.6161	0.0777	0.2636	-1.076
Mof_O 	O 	0.6571	0.3628	0.1652	-1.141
Mof_O 	O 	0.0126	0.3653	0.3003	-1.031
Mof_O 	O 	0.9081	0.1824	0.5081	-1.326
Mof_O 	O 	0.9572	0.356	0.0568	-1.817
Mof_O 	O 	0.78	0.5404	0.9466	-1.041
Mof_O 	O 	0.876	0.1456	0.2956	-1.299
Mof_O 	O 	0.6696	0.2679	0.8544	-1.3
Mof_O 	O 	0.8599	0.0979	0.7967	-1.317
Mof_O 	O 	0.3731	0.9591	0.3313	-1.297
Mof_O 	O 	0.444	0.1496	0.1178	-1.386
Mof_O 	O 	0.9259	0.3413	0.8032	-1.039
Mof_O 	O 	0.12	0.1294	0.3402	-1.308
Mof_H 	H 	0.0341	0.2957	0.0292	0.267
_end
