data_functionalizedCrystal
_audit_creation_method	'EQeq! by Chris Wilmer'
_symmetry_space_group_name_H-M	'P1'
_symmetry_Int_Tables_number	1
_symmetry_cell_setting	triclinic
loop_
_symmetry_equiv_pos_as_xyz
  x,y,z
_cell_length_a	49.3489
_cell_length_b	18.528
_cell_length_c	18.4705
_cell_angle_alpha	90
_cell_angle_beta	90
_cell_angle_gamma	90
loop_
_atom_site_label
_atom_site_type_symbol
_atom_site_fract_x
_atom_site_fract_y
_atom_site_fract_z
_atom_site_charge
Mof_Eu	Eu	0.12131	0.58068	0.69833	2.494
Mof_Eu	Eu	0.87778	0.60114	0.14371	2.399
Mof_Eu	Eu	0.12434	0.47843	0.2988	2.314
Mof_Co	Co	0.24658	0.61658	0.03495	1.142
Mof_Co	Co	0.00235	0.75185	0.88617	1.159
Mof_O 	O 	0.89987	0.7108	0.1163	-0.556
Mof_O 	O 	0.91065	0.8082	0.0507	-0.298
Mof_O 	O 	0.09297	0.4942	0.8704	-0.64
Mof_O 	O 	0.08848	0.5894	0.795	-0.583
Mof_O 	O 	0.08689	0.4135	0.2069	-0.387
Mof_O 	O 	0.07714	0.4462	0.3165	-0.468
Mof_O 	O 	0.90346	0.0855	0.1636	-0.414
Mof_O 	O 	0.90019	0.0678	0.2814	-0.408
Mof_O 	O 	0.08693	0.7534	0.5861	-0.31
Mof_O 	O 	0.08655	0.6468	0.6417	-0.581
Mof_O 	O 	0.91399	0.6252	0.2379	-0.508
Mof_O 	O 	0.90441	0.5251	0.2993	-0.597
Mof_O 	O 	0.14782	0.4345	0.1934	-0.475
Mof_O 	O 	0.15962	0.5448	0.2223	-0.412
Mof_O 	O 	0.34731	0.4431	0.881	-0.401
Mof_O 	O 	0.33151	0.5507	0.85	-0.454
Mof_O 	O 	0.15441	0.4891	0.8999	-0.554
Mof_O 	O 	0.14546	0.5578	0.8038	-0.653
Mof_O 	O 	0.33889	0.8067	0.0114	-0.314
Mof_O 	O 	0.33978	0.8312	0.8946	-0.549
Mof_O 	O 	0.14615	0.4064	0.7537	-0.638
Mof_O 	O 	0.15701	0.4885	0.6687	-0.518
Mof_O 	O 	0.34621	0.1452	0.635	-0.602
Mof_O 	O 	0.34463	0.2099	0.5327	-0.301
Mof_O 	O 	0.11545	0.5375	0.5707	-0.725
Mof_H 	H 	0.1058	0.5755	0.5654	0.268
Mof_H 	H 	0.132	0.5499	0.5657	0.279
Mof_O 	O 	0.11432	0.4444	0.4255	-0.437
Mof_H 	H 	0.0986	0.4326	0.4398	0.268
Mof_H 	H 	0.116	0.4304	0.3819	-0.099
Mof_N 	N 	0.97731	0.71	0.9627	-0.249
Mof_N 	N 	0.02292	0.6644	0.9084	-0.269
Mof_N 	N 	0.01436	0.2926	0.1973	-0.265
Mof_N 	N 	0.97271	0.2102	0.1897	-0.25
Mof_N 	N 	0.01944	0.6946	0.4655	-0.26
Mof_N 	N 	0.97867	0.6633	0.3809	-0.265
Mof_N 	N 	0.22597	0.5338	0.0797	-0.251
Mof_N 	N 	0.26748	0.5347	0.9927	-0.249
Mof_N 	N 	0.21981	0.6243	0.9501	-0.258
Mof_N 	N 	0.26543	0.696	0.9745	-0.246
Mof_N 	N 	0.22672	0.3686	0.6177	-0.258
Mof_N 	N 	0.27261	0.3031	0.5895	-0.252
Mof_C 	C 	0.9147	0.7458	0.0736	0.436
Mof_C 	C 	0.95334	0.7359	0.9865	0.107
Mof_H 	H 	0.9452	0.7733	0.9609	0.001
Mof_C 	C 	0.9404	0.7089	0.0476	-0.198
Mof_C 	C 	0.95208	0.6516	0.0844	0.096
Mof_H 	H 	0.9436	0.632	0.1248	-0.021
Mof_C 	C 	0.9767	0.6239	0.0602	-0.149
Mof_H 	H 	0.9849	0.5859	0.0845	0.08
Mof_C 	C 	0.98878	0.6537	0.9993	0.05
Mof_C 	C 	0.01409	0.6286	0.9685	0.064
Mof_C 	C 	0.02916	0.5709	0.9958	-0.164
Mof_H 	H 	0.024	0.5487	0.0388	0.087
Mof_C 	C 	0.05155	0.547	0.9594	0.131
Mof_H 	H 	0.0617	0.5089	0.9776	-0.017
Mof_C 	C 	0.05893	0.5802	0.8951	-0.225
Mof_C 	C 	0.04457	0.6405	0.8719	0.135
Mof_H 	H 	0.0501	0.6646	0.8302	-0.018
Mof_C 	C 	0.08246	0.553	0.8489	0.564
Mof_C 	C 	0.0722	0.4116	0.2598	0.363
Mof_C 	C 	0.036	0.3388	0.1961	0.085
Mof_H 	H 	0.0429	0.3536	0.1518	0
Mof_C 	C 	0.0478	0.3641	0.2594	-0.137
Mof_C 	C 	0.0382	0.3416	0.3244	0.068
Mof_H 	H 	0.0461	0.3575	0.3671	0.025
Mof_C 	C 	0.0162	0.2944	0.3266	-0.132
Mof_H 	H 	0.0093	0.2783	0.3705	0.082
Mof_C 	C 	0.005	0.2721	0.2614	0.065
Mof_C 	C 	0.9811	0.2234	0.2576	0.046
Mof_C 	C 	0.9685	0.195	0.3169	-0.107
Mof_H 	H 	0.9754	0.2035	0.3631	0.071
Mof_C 	C 	0.9453	0.153	0.3078	0.04
Mof_H 	H 	0.9364	0.1333	0.3475	0.046
Mof_C 	C 	0.936	0.1416	0.2394	-0.104
Mof_C 	C 	0.9506	0.1699	0.1812	0.076
Mof_H 	H 	0.9446	0.1602	0.1345	0.01
Mof_C 	C 	0.9111	0.0967	0.2262	0.321
Mof_C 	C 	0.0777	0.6937	0.5994	0.461
Mof_C 	C 	0.0421	0.7111	0.5001	0.106
Mof_H 	H 	0.0525	0.7497	0.4835	-0.003
Mof_C 	C 	0.0512	0.6725	0.561	-0.173
Mof_C 	C 	0.03539	0.6155	0.5843	0.087
Mof_H 	H 	0.0407	0.5889	0.6247	0.006
Mof_C 	C 	0.0116	0.5974	0.5478	-0.14
Mof_H 	H 	0.0007	0.5598	0.5641	0.08
Mof_C 	C 	0.00457	0.6368	0.4866	0.05
Mof_C 	C 	0.98113	0.6204	0.4394	0.065
Mof_C 	C 	0.9627	0.5676	0.4542	-0.153
Mof_H 	H 	0.9644	0.5401	0.4961	0.087
Mof_C 	C 	0.94136	0.5548	0.4065	0.111
Mof_H 	H 	0.9285	0.5196	0.4165	0.01
Mof_C 	C 	0.93978	0.5961	0.3433	-0.205
Mof_C 	C 	0.95895	0.6501	0.3331	0.125
Mof_H 	H 	0.958	0.6782	0.2914	-0.01
Mof_C 	C 	0.9179	0.5816	0.2883	0.526
Mof_C 	C 	0.1636	0.4876	0.1875	0.338
Mof_C 	C 	0.2038	0.538	0.1216	0.08
Mof_H 	H 	0.1985	0.5833	0.1379	0.005
Mof_C 	C 	0.1886	0.4793	0.1418	-0.114
Mof_C 	C 	0.1969	0.411	0.1198	0.044
Mof_H 	H 	0.187	0.3701	0.1323	0.038
Mof_C 	C 	0.2207	0.4057	0.0781	-0.113
Mof_H 	H 	0.2268	0.3607	0.0627	0.074
Mof_C 	C 	0.2348	0.4666	0.0601	0.052
Mof_C 	C 	0.2596	0.4672	0.0152	0.04
Mof_C 	C 	0.2739	0.4064	0.9968	-0.1
Mof_H 	H 	0.2679	0.3613	0.0121	0.069
Mof_C 	C 	0.2974	0.4121	0.9555	0.032
Mof_H 	H 	0.3079	0.3717	0.9453	0.041
Mof_C 	C 	0.3045	0.4782	0.9303	-0.096
Mof_C 	C 	0.2896	0.5388	0.9505	0.069
Mof_H 	H 	0.2953	0.5838	0.9342	0.011
Mof_C 	C 	0.3294	0.4915	0.8833	0.326
Mof_C 	C 	0.1579	0.5433	0.8614	0.546
Mof_C 	C 	0.19928	0.5809	0.9363	0.135
Mof_H 	H 	0.1974	0.5387	0.9633	-0.013
Mof_C 	C 	0.17981	0.5965	0.8814	-0.232
Mof_C 	C 	0.18247	0.6611	0.8449	0.151
Mof_H 	H 	0.1697	0.6744	0.8105	-0.045
Mof_C 	C 	0.20422	0.706	0.8597	-0.175
Mof_H 	H 	0.2059	0.7501	0.836	0.093
Mof_C 	C 	0.22368	0.6845	0.9103	0.071
Mof_C 	C 	0.2489	0.7233	0.9229	0.045
Mof_C 	C 	0.2567	0.7836	0.8807	-0.134
Mof_H 	H 	0.2448	0.8043	0.8478	0.078
Mof_C 	C 	0.28238	0.8107	0.8896	0.082
Mof_H 	H 	0.2882	0.849	0.861	0.009
Mof_C 	C 	0.2999	0.7806	0.942	-0.174
Mof_C 	C 	0.2901	0.7236	0.9835	0.113
Mof_H 	H 	0.3013	0.704	0.019	-0.008
Mof_C 	C 	0.3284	0.8079	0.9496	0.45
Mof_C 	C 	0.1609	0.4315	0.7029	0.539
Mof_C 	C 	0.2043	0.4069	0.633	0.129
Mof_H 	H 	0.2015	0.4502	0.6086	-0.011
Mof_C 	C 	0.1852	0.385	0.6834	-0.218
Mof_C 	C 	0.1885	0.3198	0.7173	0.13
Mof_H 	H 	0.1753	0.3029	0.7489	-0.013
Mof_C 	C 	0.2116	0.279	0.7043	-0.162
Mof_H 	H 	0.2144	0.2352	0.7277	0.087
Mof_C 	C 	0.2305	0.3059	0.6549	0.062
Mof_C 	C 	0.2569	0.271	0.6408	0.051
Mof_C 	C 	0.2662	0.2092	0.6782	-0.15
Mof_H 	H 	0.2552	0.187	0.7124	0.082
Mof_C 	C 	0.2913	0.1824	0.6637	0.102
Mof_H 	H 	0.2976	0.142	0.6883	-0.006
Mof_C 	C 	0.3072	0.2154	0.6126	-0.182
Mof_C 	C 	0.2974	0.2765	0.5767	0.104
Mof_H 	H 	0.3085	0.2994	0.543	-0
Mof_C 	C 	0.3353	0.1877	0.5909	0.465
Mof_Eu	Eu	0.37869	0.41932	0.19833	2.495
Mof_Eu	Eu	0.62222	0.39886	0.64371	2.399
Mof_Eu	Eu	0.37566	0.52157	0.7988	2.315
Mof_Co	Co	0.25342	0.38342	0.53495	1.144
Mof_Co	Co	0.49765	0.24815	0.38617	1.16
Mof_O 	O 	0.60013	0.2892	0.6163	-0.555
Mof_O 	O 	0.58935	0.1918	0.5507	-0.296
Mof_O 	O 	0.40703	0.5058	0.3704	-0.639
Mof_O 	O 	0.41152	0.4106	0.295	-0.582
Mof_O 	O 	0.41311	0.5865	0.7069	-0.386
Mof_O 	O 	0.42286	0.5538	0.8165	-0.467
Mof_O 	O 	0.59654	0.9145	0.6636	-0.414
Mof_O 	O 	0.59981	0.9322	0.7814	-0.407
Mof_O 	O 	0.41307	0.2466	0.0861	-0.309
Mof_O 	O 	0.41345	0.3532	0.1417	-0.58
Mof_O 	O 	0.58601	0.3748	0.7379	-0.507
Mof_O 	O 	0.59559	0.4749	0.7993	-0.596
Mof_O 	O 	0.35218	0.5655	0.6934	-0.474
Mof_O 	O 	0.34038	0.4552	0.7223	-0.41
Mof_O 	O 	0.15269	0.5569	0.381	-0.4
Mof_O 	O 	0.16849	0.4493	0.35	-0.453
Mof_O 	O 	0.34559	0.5109	0.3999	-0.553
Mof_O 	O 	0.35454	0.4422	0.3038	-0.652
Mof_O 	O 	0.16111	0.1933	0.5114	-0.308
Mof_O 	O 	0.16022	0.1688	0.3946	-0.546
Mof_O 	O 	0.35385	0.5936	0.2537	-0.637
Mof_O 	O 	0.34299	0.5115	0.1687	-0.517
Mof_O 	O 	0.15379	0.8548	0.135	-0.601
Mof_O 	O 	0.15537	0.7901	0.0327	-0.302
Mof_O 	O 	0.38455	0.4625	0.0707	-0.724
Mof_H 	H 	0.3942	0.4245	0.0654	0.269
Mof_H 	H 	0.368	0.4501	0.0657	0.279
Mof_O 	O 	0.38568	0.5556	0.9255	-0.436
Mof_H 	H 	0.4014	0.5674	0.9398	0.269
Mof_H 	H 	0.384	0.5696	0.8819	-0.098
Mof_N 	N 	0.52269	0.29	0.4627	-0.247
Mof_N 	N 	0.47708	0.3356	0.4084	-0.268
Mof_N 	N 	0.48564	0.7074	0.6973	-0.264
Mof_N 	N 	0.52729	0.7898	0.6897	-0.25
Mof_N 	N 	0.48056	0.3054	0.9655	-0.261
Mof_N 	N 	0.52133	0.3367	0.8809	-0.265
Mof_N 	N 	0.27403	0.4662	0.5797	-0.25
Mof_N 	N 	0.23252	0.4653	0.4927	-0.251
Mof_N 	N 	0.28019	0.3757	0.4501	-0.259
Mof_N 	N 	0.23457	0.304	0.4745	-0.245
Mof_N 	N 	0.27328	0.6314	0.1177	-0.258
Mof_N 	N 	0.22739	0.6969	0.0895	-0.252
Mof_C 	C 	0.5853	0.2542	0.5736	0.435
Mof_C 	C 	0.54666	0.2641	0.4865	0.105
Mof_H 	H 	0.5548	0.2267	0.4609	0.001
Mof_C 	C 	0.5596	0.2911	0.5476	-0.196
Mof_C 	C 	0.54792	0.3484	0.5844	0.094
Mof_H 	H 	0.5564	0.368	0.6248	-0.02
Mof_C 	C 	0.5233	0.3761	0.5602	-0.147
Mof_H 	H 	0.5151	0.4141	0.5845	0.079
Mof_C 	C 	0.51122	0.3463	0.4993	0.048
Mof_C 	C 	0.48591	0.3714	0.4685	0.065
Mof_C 	C 	0.47084	0.4291	0.4958	-0.166
Mof_H 	H 	0.476	0.4513	0.5388	0.088
Mof_C 	C 	0.44845	0.453	0.4594	0.133
Mof_H 	H 	0.4383	0.4911	0.4776	-0.017
Mof_C 	C 	0.44107	0.4198	0.3951	-0.225
Mof_C 	C 	0.45543	0.3595	0.3719	0.135
Mof_H 	H 	0.4499	0.3354	0.3302	-0.018
Mof_C 	C 	0.41754	0.447	0.3489	0.564
Mof_C 	C 	0.4278	0.5884	0.7598	0.363
Mof_C 	C 	0.464	0.6612	0.6961	0.085
Mof_H 	H 	0.4571	0.6464	0.6518	0
Mof_C 	C 	0.4522	0.6359	0.7594	-0.137
Mof_C 	C 	0.4618	0.6584	0.8244	0.068
Mof_H 	H 	0.4539	0.6425	0.8671	0.025
Mof_C 	C 	0.4838	0.7056	0.8266	-0.132
Mof_H 	H 	0.4907	0.7217	0.8705	0.082
Mof_C 	C 	0.495	0.7279	0.7614	0.065
Mof_C 	C 	0.5189	0.7766	0.7576	0.047
Mof_C 	C 	0.5315	0.805	0.8169	-0.108
Mof_H 	H 	0.5246	0.7965	0.8631	0.072
Mof_C 	C 	0.5547	0.847	0.8078	0.04
Mof_H 	H 	0.5636	0.8667	0.8475	0.046
Mof_C 	C 	0.564	0.8584	0.7394	-0.105
Mof_C 	C 	0.5494	0.8301	0.6812	0.077
Mof_H 	H 	0.5554	0.8398	0.6345	0.01
Mof_C 	C 	0.5889	0.9033	0.7262	0.321
Mof_C 	C 	0.4223	0.3063	0.0994	0.462
Mof_C 	C 	0.4579	0.2889	0.0001	0.109
Mof_H 	H 	0.4475	0.2503	0.9835	-0.005
Mof_C 	C 	0.4488	0.3275	0.061	-0.174
Mof_C 	C 	0.46461	0.3845	0.0843	0.087
Mof_H 	H 	0.4593	0.4111	0.1247	0.006
Mof_C 	C 	0.4884	0.4026	0.0478	-0.139
Mof_H 	H 	0.4993	0.4402	0.0641	0.08
Mof_C 	C 	0.49543	0.3632	0.9866	0.049
Mof_C 	C 	0.51887	0.3796	0.9394	0.065
Mof_C 	C 	0.5373	0.4324	0.9542	-0.153
Mof_H 	H 	0.5356	0.4599	0.9961	0.087
Mof_C 	C 	0.55864	0.4452	0.9065	0.11
Mof_H 	H 	0.5715	0.4804	0.9165	0.01
Mof_C 	C 	0.56022	0.4039	0.8433	-0.205
Mof_C 	C 	0.54105	0.3499	0.8331	0.125
Mof_H 	H 	0.542	0.3218	0.7914	-0.01
Mof_C 	C 	0.5821	0.4184	0.7883	0.526
Mof_C 	C 	0.3364	0.5124	0.6875	0.338
Mof_C 	C 	0.2962	0.462	0.6216	0.08
Mof_H 	H 	0.3015	0.4167	0.6379	0.005
Mof_C 	C 	0.3114	0.5207	0.6418	-0.113
Mof_C 	C 	0.3031	0.589	0.6198	0.044
Mof_H 	H 	0.313	0.6299	0.6323	0.038
Mof_C 	C 	0.2793	0.5943	0.5781	-0.112
Mof_H 	H 	0.2732	0.6393	0.5627	0.074
Mof_C 	C 	0.2652	0.5334	0.5601	0.05
Mof_C 	C 	0.2404	0.5328	0.5152	0.046
Mof_C 	C 	0.2261	0.5936	0.4968	-0.109
Mof_H 	H 	0.2321	0.6387	0.5121	0.073
Mof_C 	C 	0.2026	0.5879	0.4555	0.037
Mof_H 	H 	0.1921	0.6283	0.4453	0.039
Mof_C 	C 	0.1955	0.5218	0.4303	-0.099
Mof_C 	C 	0.2104	0.4612	0.4505	0.07
Mof_H 	H 	0.2047	0.4162	0.4342	0.011
Mof_C 	C 	0.1706	0.5085	0.3833	0.326
Mof_C 	C 	0.3421	0.4567	0.3614	0.546
Mof_C 	C 	0.30072	0.4191	0.4363	0.135
Mof_H 	H 	0.3026	0.4613	0.4633	-0.013
Mof_C 	C 	0.32019	0.4035	0.3814	-0.232
Mof_C 	C 	0.31753	0.3389	0.3449	0.151
Mof_H 	H 	0.3303	0.3256	0.3105	-0.045
Mof_C 	C 	0.29578	0.294	0.3597	-0.175
Mof_H 	H 	0.2941	0.2499	0.336	0.093
Mof_C 	C 	0.27632	0.3155	0.4103	0.071
Mof_C 	C 	0.2511	0.2767	0.4229	0.043
Mof_C 	C 	0.2433	0.2164	0.3807	-0.133
Mof_H 	H 	0.2552	0.1957	0.3478	0.077
Mof_C 	C 	0.21762	0.1893	0.3896	0.079
Mof_H 	H 	0.2118	0.151	0.361	0.01
Mof_C 	C 	0.2001	0.2194	0.442	-0.17
Mof_C 	C 	0.2099	0.2764	0.4835	0.104
Mof_H 	H 	0.1987	0.296	0.519	-0.003
Mof_C 	C 	0.1716	0.1921	0.4496	0.444
Mof_C 	C 	0.3391	0.5685	0.2029	0.539
Mof_C 	C 	0.2957	0.5931	0.133	0.129
Mof_H 	H 	0.2985	0.5498	0.1086	-0.012
Mof_C 	C 	0.3148	0.615	0.1834	-0.219
Mof_C 	C 	0.3115	0.6802	0.2173	0.13
Mof_H 	H 	0.3247	0.6971	0.2489	-0.013
Mof_C 	C 	0.2884	0.721	0.2043	-0.162
Mof_H 	H 	0.2856	0.7648	0.2277	0.087
Mof_C 	C 	0.2695	0.6941	0.1549	0.062
Mof_C 	C 	0.2431	0.729	0.1408	0.051
Mof_C 	C 	0.2338	0.7908	0.1782	-0.15
Mof_H 	H 	0.2448	0.813	0.2124	0.082
Mof_C 	C 	0.2087	0.8176	0.1637	0.102
Mof_H 	H 	0.2024	0.858	0.1883	-0.006
Mof_C 	C 	0.1928	0.7846	0.1126	-0.183
Mof_C 	C 	0.2026	0.7235	0.0767	0.104
Mof_H 	H 	0.1915	0.7006	0.043	-0.001
Mof_C 	C 	0.1647	0.8123	0.0909	0.465
Mof_Eu	Eu	0.87869	0.08068	0.80167	2.491
Mof_Eu	Eu	0.12222	0.10114	0.35629	2.4
Mof_Eu	Eu	0.87566	0.97843	0.2012	2.311
Mof_Co	Co	0.75342	0.11658	0.46505	1.144
Mof_Co	Co	0.99765	0.25185	0.61383	1.16
Mof_O 	O 	0.10013	0.2108	0.3837	-0.555
Mof_O 	O 	0.08935	0.3082	0.4493	-0.296
Mof_O 	O 	0.90703	0.9942	0.6296	-0.637
Mof_O 	O 	0.91152	0.0894	0.705	-0.581
Mof_O 	O 	0.91311	0.9135	0.2931	-0.386
Mof_O 	O 	0.92286	0.9462	0.1835	-0.468
Mof_O 	O 	0.09654	0.5855	0.3364	-0.415
Mof_O 	O 	0.09981	0.5678	0.2186	-0.408
Mof_O 	O 	0.91307	0.2534	0.9139	-0.309
Mof_O 	O 	0.91345	0.1468	0.8583	-0.58
Mof_O 	O 	0.08601	0.1252	0.2621	-0.506
Mof_O 	O 	0.09559	0.0251	0.2007	-0.595
Mof_O 	O 	0.85218	0.9345	0.3066	-0.473
Mof_O 	O 	0.84038	0.0448	0.2777	-0.409
Mof_O 	O 	0.65269	0.9431	0.619	-0.4
Mof_O 	O 	0.66849	0.0507	0.65	-0.454
Mof_O 	O 	0.84559	0.9891	0.6001	-0.552
Mof_O 	O 	0.85454	0.0578	0.6962	-0.652
Mof_O 	O 	0.66111	0.3067	0.4886	-0.308
Mof_O 	O 	0.66022	0.3312	0.6054	-0.546
Mof_O 	O 	0.85385	0.9064	0.7463	-0.637
Mof_O 	O 	0.84299	0.9885	0.8313	-0.515
Mof_O 	O 	0.65379	0.6452	0.865	-0.601
Mof_O 	O 	0.65537	0.7099	0.9673	-0.301
Mof_O 	O 	0.88455	0.0375	0.9293	-0.725
Mof_H 	H 	0.8942	0.0755	0.9346	0.269
Mof_H 	H 	0.868	0.0499	0.9343	0.279
Mof_O 	O 	0.88568	0.9444	0.0745	-0.437
Mof_H 	H 	0.9014	0.9326	0.0602	0.269
Mof_H 	H 	0.884	0.9304	0.1181	-0.098
Mof_N 	N 	0.02269	0.21	0.5373	-0.247
Mof_N 	N 	0.97708	0.1644	0.5916	-0.268
Mof_N 	N 	0.98564	0.7926	0.3027	-0.264
Mof_N 	N 	0.02729	0.7102	0.3103	-0.25
Mof_N 	N 	0.98056	0.1946	0.0345	-0.259
Mof_N 	N 	0.02133	0.1633	0.1191	-0.265
Mof_N 	N 	0.77403	0.0338	0.4203	-0.25
Mof_N 	N 	0.73252	0.0347	0.5073	-0.251
Mof_N 	N 	0.78019	0.1243	0.5499	-0.259
Mof_N 	N 	0.73457	0.196	0.5255	-0.246
Mof_N 	N 	0.77328	0.8686	0.8823	-0.258
Mof_N 	N 	0.72739	0.8031	0.9105	-0.252
Mof_C 	C 	0.0853	0.2458	0.4264	0.435
Mof_C 	C 	0.04666	0.2359	0.5135	0.105
Mof_H 	H 	0.0548	0.2733	0.5391	0.001
Mof_C 	C 	0.0596	0.2089	0.4524	-0.196
Mof_C 	C 	0.04792	0.1516	0.4156	0.094
Mof_H 	H 	0.0564	0.132	0.3752	-0.02
Mof_C 	C 	0.0233	0.1239	0.4398	-0.147
Mof_H 	H 	0.0151	0.0859	0.4155	0.079
Mof_C 	C 	0.01122	0.1537	0.5007	0.049
Mof_C 	C 	0.98591	0.1286	0.5315	0.064
Mof_C 	C 	0.97084	0.0709	0.5042	-0.166
Mof_H 	H 	0.976	0.0487	0.4612	0.088
Mof_C 	C 	0.94845	0.047	0.5406	0.132
Mof_H 	H 	0.9383	0.0089	0.5224	-0.017
Mof_C 	C 	0.94107	0.0802	0.6049	-0.225
Mof_C 	C 	0.95543	0.1405	0.6281	0.135
Mof_H 	H 	0.9499	0.1646	0.6698	-0.018
Mof_C 	C 	0.91754	0.053	0.6511	0.563
Mof_C 	C 	0.9278	0.9116	0.2402	0.363
Mof_C 	C 	0.964	0.8388	0.3039	0.085
Mof_H 	H 	0.9571	0.8536	0.3482	0
Mof_C 	C 	0.9522	0.8641	0.2406	-0.137
Mof_C 	C 	0.9618	0.8416	0.1756	0.068
Mof_H 	H 	0.9539	0.8575	0.1329	0.025
Mof_C 	C 	0.9838	0.7944	0.1734	-0.132
Mof_H 	H 	0.9907	0.7783	0.1295	0.082
Mof_C 	C 	0.995	0.7721	0.2386	0.065
Mof_C 	C 	0.0189	0.7234	0.2424	0.046
Mof_C 	C 	0.0315	0.695	0.1831	-0.108
Mof_H 	H 	0.0246	0.7035	0.1369	0.071
Mof_C 	C 	0.0547	0.653	0.1922	0.041
Mof_H 	H 	0.0636	0.6333	0.1525	0.045
Mof_C 	C 	0.064	0.6416	0.2606	-0.105
Mof_C 	C 	0.0494	0.6699	0.3188	0.077
Mof_H 	H 	0.0554	0.6602	0.3655	0.01
Mof_C 	C 	0.0889	0.5967	0.2738	0.321
Mof_C 	C 	0.9223	0.1937	0.9006	0.46
Mof_C 	C 	0.9579	0.2111	0.9999	0.098
Mof_H 	H 	0.9475	0.2497	0.0165	0.001
Mof_C 	C 	0.9488	0.1725	0.939	-0.171
Mof_C 	C 	0.96461	0.1155	0.9157	0.087
Mof_H 	H 	0.9593	0.0889	0.8753	0.005
Mof_C 	C 	0.9884	0.0974	0.9522	-0.144
Mof_H 	H 	0.9993	0.0598	0.9359	0.081
Mof_C 	C 	0.99543	0.1368	0.0134	0.054
Mof_C 	C 	0.01887	0.1204	0.0606	0.064
Mof_C 	C 	0.0373	0.0676	0.0458	-0.151
Mof_H 	H 	0.0356	0.0401	0.0039	0.087
Mof_C 	C 	0.05864	0.0548	0.0935	0.11
Mof_H 	H 	0.0715	0.0196	0.0835	0.012
Mof_C 	C 	0.06022	0.0961	0.1567	-0.204
Mof_C 	C 	0.04105	0.1501	0.1669	0.125
Mof_H 	H 	0.042	0.1782	0.2086	-0.01
Mof_C 	C 	0.0821	0.0816	0.2117	0.525
Mof_C 	C 	0.8364	0.9876	0.3125	0.336
Mof_C 	C 	0.7962	0.038	0.3784	0.081
Mof_H 	H 	0.8015	0.0833	0.3621	0.005
Mof_C 	C 	0.8114	0.9793	0.3582	-0.114
Mof_C 	C 	0.8031	0.911	0.3802	0.044
Mof_H 	H 	0.813	0.8701	0.3677	0.038
Mof_C 	C 	0.7793	0.9057	0.4219	-0.112
Mof_H 	H 	0.7732	0.8607	0.4373	0.074
Mof_C 	C 	0.7652	0.9666	0.4399	0.05
Mof_C 	C 	0.7404	0.9672	0.4848	0.047
Mof_C 	C 	0.7261	0.9064	0.5032	-0.109
Mof_H 	H 	0.7321	0.8613	0.4879	0.073
Mof_C 	C 	0.7026	0.9121	0.5445	0.037
Mof_H 	H 	0.6921	0.8717	0.5547	0.039
Mof_C 	C 	0.6955	0.9782	0.5697	-0.098
Mof_C 	C 	0.7104	0.0388	0.5495	0.07
Mof_H 	H 	0.7047	0.0838	0.5658	0.011
Mof_C 	C 	0.6706	0.9915	0.6167	0.328
Mof_C 	C 	0.8421	0.0433	0.6386	0.545
Mof_C 	C 	0.80072	0.0809	0.5637	0.134
Mof_H 	H 	0.8026	0.0387	0.5367	-0.013
Mof_C 	C 	0.82019	0.0965	0.6186	-0.232
Mof_C 	C 	0.81753	0.1611	0.6551	0.15
Mof_H 	H 	0.8303	0.1744	0.6895	-0.045
Mof_C 	C 	0.79578	0.206	0.6403	-0.175
Mof_H 	H 	0.7941	0.2501	0.664	0.093
Mof_C 	C 	0.77632	0.1845	0.5897	0.071
Mof_C 	C 	0.7511	0.2233	0.5771	0.043
Mof_C 	C 	0.7433	0.2836	0.6193	-0.133
Mof_H 	H 	0.7552	0.3043	0.6522	0.077
Mof_C 	C 	0.71762	0.3107	0.6104	0.079
Mof_H 	H 	0.7118	0.349	0.639	0.01
Mof_C 	C 	0.7001	0.2806	0.558	-0.17
Mof_C 	C 	0.7099	0.2236	0.5165	0.104
Mof_H 	H 	0.6987	0.204	0.481	-0.003
Mof_C 	C 	0.6716	0.3079	0.5504	0.444
Mof_C 	C 	0.8391	0.9315	0.7971	0.539
Mof_C 	C 	0.7957	0.9069	0.867	0.129
Mof_H 	H 	0.7985	0.9502	0.8914	-0.011
Mof_C 	C 	0.8148	0.885	0.8166	-0.218
Mof_C 	C 	0.8115	0.8198	0.7827	0.13
Mof_H 	H 	0.8247	0.8029	0.7511	-0.013
Mof_C 	C 	0.7884	0.779	0.7957	-0.162
Mof_H 	H 	0.7856	0.7352	0.7723	0.087
Mof_C 	C 	0.7695	0.8059	0.8451	0.062
Mof_C 	C 	0.7431	0.771	0.8592	0.051
Mof_C 	C 	0.7338	0.7092	0.8218	-0.15
Mof_H 	H 	0.7448	0.687	0.7876	0.082
Mof_C 	C 	0.7087	0.6824	0.8363	0.102
Mof_H 	H 	0.7024	0.642	0.8117	-0.006
Mof_C 	C 	0.6928	0.7154	0.8874	-0.182
Mof_C 	C 	0.7026	0.7765	0.9233	0.104
Mof_H 	H 	0.6915	0.7994	0.957	-0
Mof_C 	C 	0.6647	0.6877	0.9091	0.465
Mof_Eu	Eu	0.62131	0.91932	0.30167	2.492
Mof_Eu	Eu	0.37778	0.89886	0.85629	2.402
Mof_Eu	Eu	0.62434	0.02157	0.7012	2.312
Mof_Co	Co	0.74658	0.88342	0.96505	1.145
Mof_Co	Co	0.50235	0.74815	0.11383	1.16
Mof_O 	O 	0.39987	0.7892	0.8837	-0.554
Mof_O 	O 	0.41065	0.6918	0.9493	-0.295
Mof_O 	O 	0.59297	0.0058	0.1296	-0.636
Mof_O 	O 	0.58848	0.9106	0.205	-0.581
Mof_O 	O 	0.58689	0.0865	0.7931	-0.387
Mof_O 	O 	0.57714	0.0538	0.6835	-0.467
Mof_O 	O 	0.40346	0.4145	0.8364	-0.415
Mof_O 	O 	0.40019	0.4322	0.7186	-0.408
Mof_O 	O 	0.58693	0.7466	0.4139	-0.309
Mof_O 	O 	0.58655	0.8532	0.3583	-0.58
Mof_O 	O 	0.41399	0.8748	0.7621	-0.507
Mof_O 	O 	0.40441	0.9749	0.7007	-0.595
Mof_O 	O 	0.64782	0.0655	0.8066	-0.474
Mof_O 	O 	0.65962	0.9552	0.7777	-0.408
Mof_O 	O 	0.84731	0.0569	0.119	-0.398
Mof_O 	O 	0.83151	0.9493	0.15	-0.454
Mof_O 	O 	0.65441	0.0109	0.1001	-0.55
Mof_O 	O 	0.64546	0.9422	0.1962	-0.651
Mof_O 	O 	0.83889	0.6933	0.9886	-0.308
Mof_O 	O 	0.83978	0.6688	0.1054	-0.546
Mof_O 	O 	0.64615	0.0936	0.2463	-0.637
Mof_O 	O 	0.65701	0.0115	0.3313	-0.516
Mof_O 	O 	0.84621	0.3548	0.365	-0.601
Mof_O 	O 	0.84463	0.2901	0.4673	-0.3
Mof_O 	O 	0.61545	0.9625	0.4293	-0.724
Mof_H 	H 	0.6058	0.9245	0.4346	0.269
Mof_H 	H 	0.632	0.9501	0.4343	0.28
Mof_O 	O 	0.61432	0.0556	0.5745	-0.436
Mof_H 	H 	0.5986	0.0674	0.5602	0.269
Mof_H 	H 	0.616	0.0696	0.6181	-0.098
Mof_N 	N 	0.47731	0.79	0.0373	-0.245
Mof_N 	N 	0.52292	0.8356	0.0916	-0.27
Mof_N 	N 	0.51436	0.2074	0.8027	-0.264
Mof_N 	N 	0.47271	0.2898	0.8103	-0.25
Mof_N 	N 	0.51944	0.8054	0.5345	-0.26
Mof_N 	N 	0.47867	0.8367	0.6191	-0.265
Mof_N 	N 	0.72597	0.9662	0.9203	-0.25
Mof_N 	N 	0.76748	0.9653	0.0073	-0.247
Mof_N 	N 	0.71981	0.8757	0.0499	-0.259
Mof_N 	N 	0.76543	0.804	0.0255	-0.246
Mof_N 	N 	0.72672	0.1314	0.3823	-0.258
Mof_N 	N 	0.77261	0.1969	0.4105	-0.252
Mof_C 	C 	0.4147	0.7542	0.9264	0.434
Mof_C 	C 	0.45334	0.7641	0.0135	0.099
Mof_H 	H 	0.4452	0.7267	0.0391	0.003
Mof_C 	C 	0.4404	0.7911	0.9524	-0.19
Mof_C 	C 	0.45208	0.8484	0.9156	0.089
Mof_H 	H 	0.4436	0.868	0.8752	-0.018
Mof_C 	C 	0.4767	0.8761	0.9398	-0.138
Mof_H 	H 	0.4849	0.9141	0.9155	0.077
Mof_C 	C 	0.48878	0.8463	0.0007	0.041
Mof_C 	C 	0.51409	0.8714	0.0315	0.069
Mof_C 	C 	0.52916	0.9291	0.0042	-0.177
Mof_H 	H 	0.524	0.9513	0.9612	0.094
Mof_C 	C 	0.55155	0.953	0.0406	0.138
Mof_H 	H 	0.5617	0.9911	0.0224	-0.02
Mof_C 	C 	0.55893	0.9198	0.1049	-0.228
Mof_C 	C 	0.54457	0.8595	0.1281	0.136
Mof_H 	H 	0.5501	0.8354	0.1698	-0.018
Mof_C 	C 	0.58246	0.947	0.1511	0.562
Mof_C 	C 	0.5722	0.0884	0.7402	0.363
Mof_C 	C 	0.536	0.1612	0.8039	0.085
Mof_H 	H 	0.5429	0.1464	0.8482	-0
Mof_C 	C 	0.5478	0.1359	0.7406	-0.137
Mof_C 	C 	0.5382	0.1584	0.6756	0.068
Mof_H 	H 	0.5461	0.1425	0.6329	0.025
Mof_C 	C 	0.5162	0.2056	0.6734	-0.132
Mof_H 	H 	0.5093	0.2217	0.6295	0.082
Mof_C 	C 	0.505	0.2279	0.7386	0.064
Mof_C 	C 	0.4811	0.2766	0.7424	0.047
Mof_C 	C 	0.4685	0.305	0.6831	-0.108
Mof_H 	H 	0.4754	0.2965	0.6369	0.071
Mof_C 	C 	0.4453	0.347	0.6922	0.04
Mof_H 	H 	0.4364	0.3667	0.6525	0.045
Mof_C 	C 	0.436	0.3584	0.7606	-0.105
Mof_C 	C 	0.4506	0.3301	0.8188	0.077
Mof_H 	H 	0.4446	0.3398	0.8655	0.01
Mof_C 	C 	0.4111	0.4033	0.7738	0.321
Mof_C 	C 	0.5777	0.8063	0.4006	0.461
Mof_C 	C 	0.5421	0.7889	0.4999	0.106
Mof_H 	H 	0.5525	0.7503	0.5165	-0.003
Mof_C 	C 	0.5512	0.8275	0.439	-0.173
Mof_C 	C 	0.53539	0.8845	0.4157	0.087
Mof_H 	H 	0.5407	0.9111	0.3753	0.006
Mof_C 	C 	0.5116	0.9026	0.4522	-0.14
Mof_H 	H 	0.5007	0.9402	0.4359	0.08
Mof_C 	C 	0.50457	0.8632	0.5134	0.05
Mof_C 	C 	0.48113	0.8796	0.5606	0.065
Mof_C 	C 	0.4627	0.9324	0.5458	-0.152
Mof_H 	H 	0.4644	0.9599	0.5039	0.087
Mof_C 	C 	0.44136	0.9452	0.5935	0.111
Mof_H 	H 	0.4285	0.9804	0.5835	0.011
Mof_C 	C 	0.43978	0.9039	0.6567	-0.205
Mof_C 	C 	0.45895	0.8499	0.6669	0.125
Mof_H 	H 	0.458	0.8218	0.7086	-0.01
Mof_C 	C 	0.4179	0.9184	0.7117	0.526
Mof_C 	C 	0.6636	0.0124	0.8125	0.337
Mof_C 	C 	0.7038	0.962	0.8784	0.084
Mof_H 	H 	0.6985	0.9167	0.8621	0.004
Mof_C 	C 	0.6886	0.0207	0.8582	-0.118
Mof_C 	C 	0.6969	0.089	0.8802	0.046
Mof_H 	H 	0.687	0.1299	0.8677	0.037
Mof_C 	C 	0.7207	0.0943	0.9219	-0.116
Mof_H 	H 	0.7268	0.1393	0.9373	0.075
Mof_C 	C 	0.7348	0.0334	0.9399	0.054
Mof_C 	C 	0.7596	0.0328	0.9848	0.03
Mof_C 	C 	0.7739	0.0936	0.0032	-0.08
Mof_H 	H 	0.7679	0.1387	0.9879	0.059
Mof_C 	C 	0.7974	0.0879	0.0445	0.019
Mof_H 	H 	0.8079	0.1283	0.0547	0.046
Mof_C 	C 	0.8045	0.0218	0.0697	-0.087
Mof_C 	C 	0.7896	0.9612	0.0495	0.061
Mof_H 	H 	0.7953	0.9162	0.0658	0.013
Mof_C 	C 	0.8294	0.0085	0.1167	0.326
Mof_C 	C 	0.6579	0.9567	0.1386	0.542
Mof_C 	C 	0.69928	0.9191	0.0637	0.134
Mof_H 	H 	0.6974	0.9613	0.0367	-0.013
Mof_C 	C 	0.67981	0.9035	0.1186	-0.231
Mof_C 	C 	0.68247	0.8389	0.1551	0.15
Mof_H 	H 	0.6697	0.8256	0.1895	-0.045
Mof_C 	C 	0.70422	0.794	0.1403	-0.175
Mof_H 	H 	0.7059	0.7499	0.164	0.092
Mof_C 	C 	0.72368	0.8155	0.0897	0.071
Mof_C 	C 	0.7489	0.7767	0.0771	0.043
Mof_C 	C 	0.7567	0.7164	0.1193	-0.133
Mof_H 	H 	0.7448	0.6957	0.1522	0.077
Mof_C 	C 	0.78238	0.6893	0.1104	0.079
Mof_H 	H 	0.7882	0.651	0.139	0.01
Mof_C 	C 	0.7999	0.7194	0.058	-0.17
Mof_C 	C 	0.7901	0.7764	0.0165	0.104
Mof_H 	H 	0.8013	0.796	0.981	-0.003
Mof_C 	C 	0.8284	0.6921	0.0504	0.444
Mof_C 	C 	0.6609	0.0685	0.2971	0.54
Mof_C 	C 	0.7043	0.0931	0.367	0.129
Mof_H 	H 	0.7015	0.0498	0.3914	-0.011
Mof_C 	C 	0.6852	0.115	0.3166	-0.218
Mof_C 	C 	0.6885	0.1802	0.2827	0.13
Mof_H 	H 	0.6753	0.1971	0.2511	-0.013
Mof_C 	C 	0.7116	0.221	0.2957	-0.162
Mof_H 	H 	0.7144	0.2648	0.2723	0.087
Mof_C 	C 	0.7305	0.1941	0.3451	0.062
Mof_C 	C 	0.7569	0.229	0.3592	0.051
Mof_C 	C 	0.7662	0.2908	0.3218	-0.15
Mof_H 	H 	0.7552	0.313	0.2876	0.082
Mof_C 	C 	0.7913	0.3176	0.3363	0.102
Mof_H 	H 	0.7976	0.358	0.3117	-0.006
Mof_C 	C 	0.8072	0.2846	0.3874	-0.182
Mof_C 	C 	0.7974	0.2235	0.4233	0.104
Mof_H 	H 	0.8085	0.2006	0.457	-0
Mof_C 	C 	0.8353	0.3123	0.4091	0.465
Mof_Eu	Eu	0.87869	0.41932	0.30167	2.495
Mof_Eu	Eu	0.12222	0.39886	0.85629	2.4
Mof_Eu	Eu	0.87566	0.52157	0.7012	2.315
Mof_Co	Co	0.75342	0.38342	0.96505	1.143
Mof_Co	Co	0.99765	0.24815	0.11383	1.16
Mof_O 	O 	0.10013	0.2892	0.8837	-0.555
Mof_O 	O 	0.08935	0.1918	0.9493	-0.297
Mof_O 	O 	0.90703	0.5058	0.1296	-0.639
Mof_O 	O 	0.91152	0.4106	0.205	-0.582
Mof_O 	O 	0.91311	0.5865	0.7931	-0.386
Mof_O 	O 	0.92286	0.5538	0.6835	-0.467
Mof_O 	O 	0.09654	0.9145	0.8364	-0.413
Mof_O 	O 	0.09981	0.9322	0.7186	-0.407
Mof_O 	O 	0.91307	0.2466	0.4139	-0.309
Mof_O 	O 	0.91345	0.3532	0.3583	-0.58
Mof_O 	O 	0.08601	0.3748	0.7621	-0.507
Mof_O 	O 	0.09559	0.4749	0.7007	-0.596
Mof_O 	O 	0.85218	0.5655	0.8066	-0.474
Mof_O 	O 	0.84038	0.4552	0.7777	-0.411
Mof_O 	O 	0.65269	0.5569	0.119	-0.4
Mof_O 	O 	0.66849	0.4493	0.15	-0.453
Mof_O 	O 	0.84559	0.5109	0.1001	-0.553
Mof_O 	O 	0.85454	0.4422	0.1962	-0.652
Mof_O 	O 	0.66111	0.1933	0.9886	-0.313
Mof_O 	O 	0.66022	0.1688	0.1054	-0.548
Mof_O 	O 	0.85385	0.5936	0.2463	-0.637
Mof_O 	O 	0.84299	0.5115	0.3313	-0.517
Mof_O 	O 	0.65379	0.8548	0.365	-0.601
Mof_O 	O 	0.65537	0.7901	0.4673	-0.3
Mof_O 	O 	0.88455	0.4625	0.4293	-0.724
Mof_H 	H 	0.8942	0.4245	0.4346	0.269
Mof_H 	H 	0.868	0.4501	0.4343	0.28
Mof_O 	O 	0.88568	0.5556	0.5745	-0.436
Mof_H 	H 	0.9014	0.5674	0.5602	0.269
Mof_H 	H 	0.884	0.5696	0.6181	-0.098
Mof_N 	N 	0.02269	0.29	0.0373	-0.248
Mof_N 	N 	0.97708	0.3356	0.0916	-0.268
Mof_N 	N 	0.98564	0.7074	0.8027	-0.264
Mof_N 	N 	0.02729	0.7898	0.8103	-0.25
Mof_N 	N 	0.98056	0.3054	0.5345	-0.26
Mof_N 	N 	0.02133	0.3367	0.6191	-0.265
Mof_N 	N 	0.77403	0.4662	0.9203	-0.251
Mof_N 	N 	0.73252	0.4653	0.0073	-0.249
Mof_N 	N 	0.78019	0.3757	0.0499	-0.258
Mof_N 	N 	0.73457	0.304	0.0255	-0.246
Mof_N 	N 	0.77328	0.6314	0.3823	-0.258
Mof_N 	N 	0.72739	0.6969	0.4105	-0.252
Mof_C 	C 	0.0853	0.2542	0.9264	0.436
Mof_C 	C 	0.04666	0.2641	0.0135	0.107
Mof_H 	H 	0.0548	0.2267	0.0391	0.001
Mof_C 	C 	0.0596	0.2911	0.9524	-0.198
Mof_C 	C 	0.04792	0.3484	0.9156	0.096
Mof_H 	H 	0.0564	0.368	0.8752	-0.021
Mof_C 	C 	0.0233	0.3761	0.9398	-0.149
Mof_H 	H 	0.0151	0.4141	0.9155	0.08
Mof_C 	C 	0.01122	0.3463	0.0007	0.05
Mof_C 	C 	0.98591	0.3714	0.0315	0.064
Mof_C 	C 	0.97084	0.4291	0.0042	-0.164
Mof_H 	H 	0.976	0.4513	0.9612	0.087
Mof_C 	C 	0.94845	0.453	0.0406	0.131
Mof_H 	H 	0.9383	0.4911	0.0224	-0.017
Mof_C 	C 	0.94107	0.4198	0.1049	-0.225
Mof_C 	C 	0.95543	0.3595	0.1281	0.135
Mof_H 	H 	0.9499	0.3354	0.1698	-0.018
Mof_C 	C 	0.91754	0.447	0.1511	0.564
Mof_C 	C 	0.9278	0.5884	0.7402	0.363
Mof_C 	C 	0.964	0.6612	0.8039	0.085
Mof_H 	H 	0.9571	0.6464	0.8482	0
Mof_C 	C 	0.9522	0.6359	0.7406	-0.137
Mof_C 	C 	0.9618	0.6584	0.6756	0.068
Mof_H 	H 	0.9539	0.6425	0.6329	0.025
Mof_C 	C 	0.9838	0.7056	0.6734	-0.132
Mof_H 	H 	0.9907	0.7217	0.6295	0.082
Mof_C 	C 	0.995	0.7279	0.7386	0.065
Mof_C 	C 	0.0189	0.7766	0.7424	0.046
Mof_C 	C 	0.0315	0.805	0.6831	-0.107
Mof_H 	H 	0.0246	0.7965	0.6369	0.071
Mof_C 	C 	0.0547	0.847	0.6922	0.04
Mof_H 	H 	0.0636	0.8667	0.6525	0.046
Mof_C 	C 	0.064	0.8584	0.7606	-0.104
Mof_C 	C 	0.0494	0.8301	0.8188	0.076
Mof_H 	H 	0.0554	0.8398	0.8655	0.01
Mof_C 	C 	0.0889	0.9033	0.7738	0.321
Mof_C 	C 	0.9223	0.3063	0.4006	0.461
Mof_C 	C 	0.9579	0.2889	0.4999	0.106
Mof_H 	H 	0.9475	0.2503	0.5165	-0.003
Mof_C 	C 	0.9488	0.3275	0.439	-0.173
Mof_C 	C 	0.96461	0.3845	0.4157	0.087
Mof_H 	H 	0.9593	0.4111	0.3753	0.006
Mof_C 	C 	0.9884	0.4026	0.4522	-0.14
Mof_H 	H 	0.9993	0.4402	0.4359	0.08
Mof_C 	C 	0.99543	0.3632	0.5134	0.05
Mof_C 	C 	0.01887	0.3796	0.5606	0.065
Mof_C 	C 	0.0373	0.4324	0.5458	-0.153
Mof_H 	H 	0.0356	0.4599	0.5039	0.087
Mof_C 	C 	0.05864	0.4452	0.5935	0.111
Mof_H 	H 	0.0715	0.4804	0.5835	0.01
Mof_C 	C 	0.06022	0.4039	0.6567	-0.205
Mof_C 	C 	0.04105	0.3499	0.6669	0.125
Mof_H 	H 	0.042	0.3218	0.7086	-0.01
Mof_C 	C 	0.0821	0.4184	0.7117	0.526
Mof_C 	C 	0.8364	0.5124	0.8125	0.338
Mof_C 	C 	0.7962	0.462	0.8784	0.08
Mof_H 	H 	0.8015	0.4167	0.8621	0.005
Mof_C 	C 	0.8114	0.5207	0.8582	-0.114
Mof_C 	C 	0.8031	0.589	0.8802	0.044
Mof_H 	H 	0.813	0.6299	0.8677	0.038
Mof_C 	C 	0.7793	0.5943	0.9219	-0.113
Mof_H 	H 	0.7732	0.6393	0.9373	0.074
Mof_C 	C 	0.7652	0.5334	0.9399	0.052
Mof_C 	C 	0.7404	0.5328	0.9848	0.04
Mof_C 	C 	0.7261	0.5936	0.0032	-0.1
Mof_H 	H 	0.7321	0.6387	0.9879	0.069
Mof_C 	C 	0.7026	0.5879	0.0445	0.032
Mof_H 	H 	0.6921	0.6283	0.0547	0.041
Mof_C 	C 	0.6955	0.5218	0.0697	-0.096
Mof_C 	C 	0.7104	0.4612	0.0495	0.069
Mof_H 	H 	0.7047	0.4162	0.0658	0.011
Mof_C 	C 	0.6706	0.5085	0.1167	0.326
Mof_C 	C 	0.8421	0.4567	0.1386	0.546
Mof_C 	C 	0.80072	0.4191	0.0637	0.135
Mof_H 	H 	0.8026	0.4613	0.0367	-0.013
Mof_C 	C 	0.82019	0.4035	0.1186	-0.232
Mof_C 	C 	0.81753	0.3389	0.1551	0.151
Mof_H 	H 	0.8303	0.3256	0.1895	-0.045
Mof_C 	C 	0.79578	0.294	0.1403	-0.175
Mof_H 	H 	0.7941	0.2499	0.164	0.093
Mof_C 	C 	0.77632	0.3155	0.0897	0.071
Mof_C 	C 	0.7511	0.2767	0.0771	0.045
Mof_C 	C 	0.7433	0.2164	0.1193	-0.134
Mof_H 	H 	0.7552	0.1957	0.1522	0.078
Mof_C 	C 	0.71762	0.1893	0.1104	0.082
Mof_H 	H 	0.7118	0.151	0.139	0.009
Mof_C 	C 	0.7001	0.2194	0.058	-0.174
Mof_C 	C 	0.7099	0.2764	0.0165	0.113
Mof_H 	H 	0.6987	0.296	0.981	-0.008
Mof_C 	C 	0.6716	0.1921	0.0504	0.45
Mof_C 	C 	0.8391	0.5685	0.2971	0.539
Mof_C 	C 	0.7957	0.5931	0.367	0.129
Mof_H 	H 	0.7985	0.5498	0.3914	-0.011
Mof_C 	C 	0.8148	0.615	0.3166	-0.218
Mof_C 	C 	0.8115	0.6802	0.2827	0.13
Mof_H 	H 	0.8247	0.6971	0.2511	-0.013
Mof_C 	C 	0.7884	0.721	0.2957	-0.162
Mof_H 	H 	0.7856	0.7648	0.2723	0.087
Mof_C 	C 	0.7695	0.6941	0.3451	0.062
Mof_C 	C 	0.7431	0.729	0.3592	0.051
Mof_C 	C 	0.7338	0.7908	0.3218	-0.15
Mof_H 	H 	0.7448	0.813	0.2876	0.082
Mof_C 	C 	0.7087	0.8176	0.3363	0.102
Mof_H 	H 	0.7024	0.858	0.3117	-0.006
Mof_C 	C 	0.6928	0.7846	0.3874	-0.182
Mof_C 	C 	0.7026	0.7235	0.4233	0.104
Mof_H 	H 	0.6915	0.7006	0.457	-0
Mof_C 	C 	0.6647	0.8123	0.4091	0.465
Mof_Eu	Eu	0.62131	0.58068	0.80167	2.495
Mof_Eu	Eu	0.37778	0.60114	0.35629	2.399
Mof_Eu	Eu	0.62434	0.47843	0.2012	2.315
Mof_Co	Co	0.74658	0.61658	0.46505	1.144
Mof_Co	Co	0.50235	0.75185	0.61383	1.16
Mof_O 	O 	0.39987	0.7108	0.3837	-0.555
Mof_O 	O 	0.41065	0.8082	0.4493	-0.296
Mof_O 	O 	0.59297	0.4942	0.6296	-0.639
Mof_O 	O 	0.58848	0.5894	0.705	-0.582
Mof_O 	O 	0.58689	0.4135	0.2931	-0.386
Mof_O 	O 	0.57714	0.4462	0.1835	-0.467
Mof_O 	O 	0.40346	0.0855	0.3364	-0.414
Mof_O 	O 	0.40019	0.0678	0.2186	-0.407
Mof_O 	O 	0.58693	0.7534	0.9139	-0.309
Mof_O 	O 	0.58655	0.6468	0.8583	-0.58
Mof_O 	O 	0.41399	0.6252	0.2621	-0.507
Mof_O 	O 	0.40441	0.5251	0.2007	-0.596
Mof_O 	O 	0.64782	0.4345	0.3066	-0.474
Mof_O 	O 	0.65962	0.5448	0.2777	-0.41
Mof_O 	O 	0.84731	0.4431	0.619	-0.4
Mof_O 	O 	0.83151	0.5507	0.65	-0.453
Mof_O 	O 	0.65441	0.4891	0.6001	-0.553
Mof_O 	O 	0.64546	0.5578	0.6962	-0.652
Mof_O 	O 	0.83889	0.8067	0.4886	-0.308
Mof_O 	O 	0.83978	0.8312	0.6054	-0.546
Mof_O 	O 	0.64615	0.4064	0.7463	-0.637
Mof_O 	O 	0.65701	0.4885	0.8313	-0.517
Mof_O 	O 	0.84621	0.1452	0.865	-0.601
Mof_O 	O 	0.84463	0.2099	0.9673	-0.302
Mof_O 	O 	0.61545	0.5375	0.9293	-0.724
Mof_H 	H 	0.6058	0.5755	0.9346	0.269
Mof_H 	H 	0.632	0.5499	0.9343	0.279
Mof_O 	O 	0.61432	0.4444	0.0745	-0.436
Mof_H 	H 	0.5986	0.4326	0.0602	0.269
Mof_H 	H 	0.616	0.4304	0.1181	-0.098
Mof_N 	N 	0.47731	0.71	0.5373	-0.247
Mof_N 	N 	0.52292	0.6644	0.5916	-0.268
Mof_N 	N 	0.51436	0.2926	0.3027	-0.264
Mof_N 	N 	0.47271	0.2102	0.3103	-0.25
Mof_N 	N 	0.51944	0.6946	0.0345	-0.261
Mof_N 	N 	0.47867	0.6633	0.1191	-0.265
Mof_N 	N 	0.72597	0.5338	0.4203	-0.25
Mof_N 	N 	0.76748	0.5347	0.5073	-0.251
Mof_N 	N 	0.71981	0.6243	0.5499	-0.259
Mof_N 	N 	0.76543	0.696	0.5255	-0.245
Mof_N 	N 	0.72672	0.3686	0.8823	-0.258
Mof_N 	N 	0.77261	0.3031	0.9105	-0.252
Mof_C 	C 	0.4147	0.7458	0.4264	0.435
Mof_C 	C 	0.45334	0.7359	0.5135	0.105
Mof_H 	H 	0.4452	0.7733	0.5391	0.001
Mof_C 	C 	0.4404	0.7089	0.4524	-0.196
Mof_C 	C 	0.45208	0.6516	0.4156	0.094
Mof_H 	H 	0.4436	0.632	0.3752	-0.02
Mof_C 	C 	0.4767	0.6239	0.4398	-0.147
Mof_H 	H 	0.4849	0.5859	0.4155	0.079
Mof_C 	C 	0.48878	0.6537	0.5007	0.048
Mof_C 	C 	0.51409	0.6286	0.5315	0.065
Mof_C 	C 	0.52916	0.5709	0.5042	-0.166
Mof_H 	H 	0.524	0.5487	0.4612	0.088
Mof_C 	C 	0.55155	0.547	0.5406	0.133
Mof_H 	H 	0.5617	0.5089	0.5224	-0.017
Mof_C 	C 	0.55893	0.5802	0.6049	-0.225
Mof_C 	C 	0.54457	0.6405	0.6281	0.135
Mof_H 	H 	0.5501	0.6646	0.6698	-0.018
Mof_C 	C 	0.58246	0.553	0.6511	0.564
Mof_C 	C 	0.5722	0.4116	0.2402	0.363
Mof_C 	C 	0.536	0.3388	0.3039	0.085
Mof_H 	H 	0.5429	0.3536	0.3482	0
Mof_C 	C 	0.5478	0.3641	0.2406	-0.137
Mof_C 	C 	0.5382	0.3416	0.1756	0.068
Mof_H 	H 	0.5461	0.3575	0.1329	0.025
Mof_C 	C 	0.5162	0.2944	0.1734	-0.132
Mof_H 	H 	0.5093	0.2783	0.1295	0.082
Mof_C 	C 	0.505	0.2721	0.2386	0.065
Mof_C 	C 	0.4811	0.2234	0.2424	0.047
Mof_C 	C 	0.4685	0.195	0.1831	-0.108
Mof_H 	H 	0.4754	0.2035	0.1369	0.072
Mof_C 	C 	0.4453	0.153	0.1922	0.04
Mof_H 	H 	0.4364	0.1333	0.1525	0.046
Mof_C 	C 	0.436	0.1416	0.2606	-0.105
Mof_C 	C 	0.4506	0.1699	0.3188	0.077
Mof_H 	H 	0.4446	0.1602	0.3655	0.01
Mof_C 	C 	0.4111	0.0967	0.2738	0.321
Mof_C 	C 	0.5777	0.6937	0.9006	0.462
Mof_C 	C 	0.5421	0.7111	0.9999	0.109
Mof_H 	H 	0.5525	0.7497	0.0165	-0.005
Mof_C 	C 	0.5512	0.6725	0.939	-0.174
Mof_C 	C 	0.53539	0.6155	0.9157	0.087
Mof_H 	H 	0.5407	0.5889	0.8753	0.006
Mof_C 	C 	0.5116	0.5974	0.9522	-0.139
Mof_H 	H 	0.5007	0.5598	0.9359	0.08
Mof_C 	C 	0.50457	0.6368	0.0134	0.049
Mof_C 	C 	0.48113	0.6204	0.0606	0.065
Mof_C 	C 	0.4627	0.5676	0.0458	-0.153
Mof_H 	H 	0.4644	0.5401	0.0039	0.087
Mof_C 	C 	0.44136	0.5548	0.0935	0.11
Mof_H 	H 	0.4285	0.5196	0.0835	0.01
Mof_C 	C 	0.43978	0.5961	0.1567	-0.205
Mof_C 	C 	0.45895	0.6501	0.1669	0.125
Mof_H 	H 	0.458	0.6782	0.2086	-0.01
Mof_C 	C 	0.4179	0.5816	0.2117	0.526
Mof_C 	C 	0.6636	0.4876	0.3125	0.338
Mof_C 	C 	0.7038	0.538	0.3784	0.08
Mof_H 	H 	0.6985	0.5833	0.3621	0.005
Mof_C 	C 	0.6886	0.4793	0.3582	-0.113
Mof_C 	C 	0.6969	0.411	0.3802	0.044
Mof_H 	H 	0.687	0.3701	0.3677	0.038
Mof_C 	C 	0.7207	0.4057	0.4219	-0.112
Mof_H 	H 	0.7268	0.3607	0.4373	0.074
Mof_C 	C 	0.7348	0.4666	0.4399	0.05
Mof_C 	C 	0.7596	0.4672	0.4848	0.046
Mof_C 	C 	0.7739	0.4064	0.5032	-0.109
Mof_H 	H 	0.7679	0.3613	0.4879	0.073
Mof_C 	C 	0.7974	0.4121	0.5445	0.037
Mof_H 	H 	0.8079	0.3717	0.5547	0.039
Mof_C 	C 	0.8045	0.4782	0.5697	-0.099
Mof_C 	C 	0.7896	0.5388	0.5495	0.07
Mof_H 	H 	0.7953	0.5838	0.5658	0.011
Mof_C 	C 	0.8294	0.4915	0.6167	0.326
Mof_C 	C 	0.6579	0.5433	0.6386	0.546
Mof_C 	C 	0.69928	0.5809	0.5637	0.135
Mof_H 	H 	0.6974	0.5387	0.5367	-0.013
Mof_C 	C 	0.67981	0.5965	0.6186	-0.232
Mof_C 	C 	0.68247	0.6611	0.6551	0.151
Mof_H 	H 	0.6697	0.6744	0.6895	-0.045
Mof_C 	C 	0.70422	0.706	0.6403	-0.175
Mof_H 	H 	0.7059	0.7501	0.664	0.093
Mof_C 	C 	0.72368	0.6845	0.5897	0.071
Mof_C 	C 	0.7489	0.7233	0.5771	0.043
Mof_C 	C 	0.7567	0.7836	0.6193	-0.133
Mof_H 	H 	0.7448	0.8043	0.6522	0.077
Mof_C 	C 	0.78238	0.8107	0.6104	0.079
Mof_H 	H 	0.7882	0.849	0.639	0.01
Mof_C 	C 	0.7999	0.7806	0.558	-0.17
Mof_C 	C 	0.7901	0.7236	0.5165	0.104
Mof_H 	H 	0.8013	0.704	0.481	-0.003
Mof_C 	C 	0.8284	0.8079	0.5504	0.444
Mof_C 	C 	0.6609	0.4315	0.7971	0.539
Mof_C 	C 	0.7043	0.4069	0.867	0.129
Mof_H 	H 	0.7015	0.4502	0.8914	-0.012
Mof_C 	C 	0.6852	0.385	0.8166	-0.219
Mof_C 	C 	0.6885	0.3198	0.7827	0.13
Mof_H 	H 	0.6753	0.3029	0.7511	-0.013
Mof_C 	C 	0.7116	0.279	0.7957	-0.162
Mof_H 	H 	0.7144	0.2352	0.7723	0.087
Mof_C 	C 	0.7305	0.3059	0.8451	0.062
Mof_C 	C 	0.7569	0.271	0.8592	0.051
Mof_C 	C 	0.7662	0.2092	0.8218	-0.15
Mof_H 	H 	0.7552	0.187	0.7876	0.082
Mof_C 	C 	0.7913	0.1824	0.8363	0.102
Mof_H 	H 	0.7976	0.142	0.8117	-0.006
Mof_C 	C 	0.8072	0.2154	0.8874	-0.183
Mof_C 	C 	0.7974	0.2765	0.9233	0.104
Mof_H 	H 	0.8085	0.2994	0.957	-0.001
Mof_C 	C 	0.8353	0.1877	0.9091	0.465
Mof_Eu	Eu	0.12131	0.91932	0.19833	2.491
Mof_Eu	Eu	0.87778	0.89886	0.64371	2.4
Mof_Eu	Eu	0.12434	0.02157	0.7988	2.311
Mof_Co	Co	0.24658	0.88342	0.53495	1.144
Mof_Co	Co	0.00235	0.74815	0.38617	1.16
Mof_O 	O 	0.89987	0.7892	0.6163	-0.555
Mof_O 	O 	0.91065	0.6918	0.5507	-0.296
Mof_O 	O 	0.09297	0.0058	0.3704	-0.637
Mof_O 	O 	0.08848	0.9106	0.295	-0.581
Mof_O 	O 	0.08689	0.0865	0.7069	-0.386
Mof_O 	O 	0.07714	0.0538	0.8165	-0.468
Mof_O 	O 	0.90346	0.4145	0.6636	-0.415
Mof_O 	O 	0.90019	0.4322	0.7814	-0.408
Mof_O 	O 	0.08693	0.7466	0.0861	-0.309
Mof_O 	O 	0.08655	0.8532	0.1417	-0.58
Mof_O 	O 	0.91399	0.8748	0.7379	-0.506
Mof_O 	O 	0.90441	0.9749	0.7993	-0.595
Mof_O 	O 	0.14782	0.0655	0.6934	-0.473
Mof_O 	O 	0.15962	0.9552	0.7223	-0.409
Mof_O 	O 	0.34731	0.0569	0.381	-0.4
Mof_O 	O 	0.33151	0.9493	0.35	-0.454
Mof_O 	O 	0.15441	0.0109	0.3999	-0.552
Mof_O 	O 	0.14546	0.9422	0.3038	-0.652
Mof_O 	O 	0.33889	0.6933	0.5114	-0.308
Mof_O 	O 	0.33978	0.6688	0.3946	-0.546
Mof_O 	O 	0.14615	0.0936	0.2537	-0.637
Mof_O 	O 	0.15701	0.0115	0.1687	-0.515
Mof_O 	O 	0.34621	0.3548	0.135	-0.601
Mof_O 	O 	0.34463	0.2901	0.0327	-0.301
Mof_O 	O 	0.11545	0.9625	0.0707	-0.725
Mof_H 	H 	0.1058	0.9245	0.0654	0.269
Mof_H 	H 	0.132	0.9501	0.0657	0.279
Mof_O 	O 	0.11432	0.0556	0.9255	-0.437
Mof_H 	H 	0.0986	0.0674	0.9398	0.269
Mof_H 	H 	0.116	0.0696	0.8819	-0.098
Mof_N 	N 	0.97731	0.79	0.4627	-0.247
Mof_N 	N 	0.02292	0.8356	0.4084	-0.268
Mof_N 	N 	0.01436	0.2074	0.6973	-0.264
Mof_N 	N 	0.97271	0.2898	0.6897	-0.25
Mof_N 	N 	0.01944	0.8054	0.9655	-0.259
Mof_N 	N 	0.97867	0.8367	0.8809	-0.265
Mof_N 	N 	0.22597	0.9662	0.5797	-0.25
Mof_N 	N 	0.26748	0.9653	0.4927	-0.251
Mof_N 	N 	0.21981	0.8757	0.4501	-0.259
Mof_N 	N 	0.26543	0.804	0.4745	-0.246
Mof_N 	N 	0.22672	0.1314	0.1177	-0.258
Mof_N 	N 	0.27261	0.1969	0.0895	-0.252
Mof_C 	C 	0.9147	0.7542	0.5736	0.435
Mof_C 	C 	0.95334	0.7641	0.4865	0.105
Mof_H 	H 	0.9452	0.7267	0.4609	0.001
Mof_C 	C 	0.9404	0.7911	0.5476	-0.196
Mof_C 	C 	0.95208	0.8484	0.5844	0.094
Mof_H 	H 	0.9436	0.868	0.6248	-0.02
Mof_C 	C 	0.9767	0.8761	0.5602	-0.147
Mof_H 	H 	0.9849	0.9141	0.5845	0.079
Mof_C 	C 	0.98878	0.8463	0.4993	0.049
Mof_C 	C 	0.01409	0.8714	0.4685	0.064
Mof_C 	C 	0.02916	0.9291	0.4958	-0.166
Mof_H 	H 	0.024	0.9513	0.5388	0.088
Mof_C 	C 	0.05155	0.953	0.4594	0.132
Mof_H 	H 	0.0617	0.9911	0.4776	-0.017
Mof_C 	C 	0.05893	0.9198	0.3951	-0.225
Mof_C 	C 	0.04457	0.8595	0.3719	0.135
Mof_H 	H 	0.0501	0.8354	0.3302	-0.018
Mof_C 	C 	0.08246	0.947	0.3489	0.563
Mof_C 	C 	0.0722	0.0884	0.7598	0.363
Mof_C 	C 	0.036	0.1612	0.6961	0.085
Mof_H 	H 	0.0429	0.1464	0.6518	0
Mof_C 	C 	0.0478	0.1359	0.7594	-0.137
Mof_C 	C 	0.0382	0.1584	0.8244	0.068
Mof_H 	H 	0.0461	0.1425	0.8671	0.025
Mof_C 	C 	0.0162	0.2056	0.8266	-0.132
Mof_H 	H 	0.0093	0.2217	0.8705	0.082
Mof_C 	C 	0.005	0.2279	0.7614	0.065
Mof_C 	C 	0.9811	0.2766	0.7576	0.046
Mof_C 	C 	0.9685	0.305	0.8169	-0.108
Mof_H 	H 	0.9754	0.2965	0.8631	0.071
Mof_C 	C 	0.9453	0.347	0.8078	0.041
Mof_H 	H 	0.9364	0.3667	0.8475	0.045
Mof_C 	C 	0.936	0.3584	0.7394	-0.105
Mof_C 	C 	0.9506	0.3301	0.6812	0.077
Mof_H 	H 	0.9446	0.3398	0.6345	0.01
Mof_C 	C 	0.9111	0.4033	0.7262	0.321
Mof_C 	C 	0.0777	0.8063	0.0994	0.46
Mof_C 	C 	0.0421	0.7889	0.0001	0.098
Mof_H 	H 	0.0525	0.7503	0.9835	0.001
Mof_C 	C 	0.0512	0.8275	0.061	-0.171
Mof_C 	C 	0.03539	0.8845	0.0843	0.087
Mof_H 	H 	0.0407	0.9111	0.1247	0.005
Mof_C 	C 	0.0116	0.9026	0.0478	-0.144
Mof_H 	H 	0.0007	0.9402	0.0641	0.081
Mof_C 	C 	0.00457	0.8632	0.9866	0.054
Mof_C 	C 	0.98113	0.8796	0.9394	0.064
Mof_C 	C 	0.9627	0.9324	0.9542	-0.151
Mof_H 	H 	0.9644	0.9599	0.9961	0.087
Mof_C 	C 	0.94136	0.9452	0.9065	0.11
Mof_H 	H 	0.9285	0.9804	0.9165	0.012
Mof_C 	C 	0.93978	0.9039	0.8433	-0.204
Mof_C 	C 	0.95895	0.8499	0.8331	0.125
Mof_H 	H 	0.958	0.8218	0.7914	-0.01
Mof_C 	C 	0.9179	0.9184	0.7883	0.525
Mof_C 	C 	0.1636	0.0124	0.6875	0.336
Mof_C 	C 	0.2038	0.962	0.6216	0.081
Mof_H 	H 	0.1985	0.9167	0.6379	0.005
Mof_C 	C 	0.1886	0.0207	0.6418	-0.114
Mof_C 	C 	0.1969	0.089	0.6198	0.044
Mof_H 	H 	0.187	0.1299	0.6323	0.038
Mof_C 	C 	0.2207	0.0943	0.5781	-0.112
Mof_H 	H 	0.2268	0.1393	0.5627	0.074
Mof_C 	C 	0.2348	0.0334	0.5601	0.05
Mof_C 	C 	0.2596	0.0328	0.5152	0.047
Mof_C 	C 	0.2739	0.0936	0.4968	-0.109
Mof_H 	H 	0.2679	0.1387	0.5121	0.073
Mof_C 	C 	0.2974	0.0879	0.4555	0.037
Mof_H 	H 	0.3079	0.1283	0.4453	0.039
Mof_C 	C 	0.3045	0.0218	0.4303	-0.098
Mof_C 	C 	0.2896	0.9612	0.4505	0.07
Mof_H 	H 	0.2953	0.9162	0.4342	0.011
Mof_C 	C 	0.3294	0.0085	0.3833	0.328
Mof_C 	C 	0.1579	0.9567	0.3614	0.545
Mof_C 	C 	0.19928	0.9191	0.4363	0.134
Mof_H 	H 	0.1974	0.9613	0.4633	-0.013
Mof_C 	C 	0.17981	0.9035	0.3814	-0.232
Mof_C 	C 	0.18247	0.8389	0.3449	0.15
Mof_H 	H 	0.1697	0.8256	0.3105	-0.045
Mof_C 	C 	0.20422	0.794	0.3597	-0.175
Mof_H 	H 	0.2059	0.7499	0.336	0.093
Mof_C 	C 	0.22368	0.8155	0.4103	0.071
Mof_C 	C 	0.2489	0.7767	0.4229	0.043
Mof_C 	C 	0.2567	0.7164	0.3807	-0.133
Mof_H 	H 	0.2448	0.6957	0.3478	0.077
Mof_C 	C 	0.28238	0.6893	0.3896	0.079
Mof_H 	H 	0.2882	0.651	0.361	0.01
Mof_C 	C 	0.2999	0.7194	0.442	-0.17
Mof_C 	C 	0.2901	0.7764	0.4835	0.104
Mof_H 	H 	0.3013	0.796	0.519	-0.003
Mof_C 	C 	0.3284	0.6921	0.4496	0.444
Mof_C 	C 	0.1609	0.0685	0.2029	0.539
Mof_C 	C 	0.2043	0.0931	0.133	0.129
Mof_H 	H 	0.2015	0.0498	0.1086	-0.011
Mof_C 	C 	0.1852	0.115	0.1834	-0.218
Mof_C 	C 	0.1885	0.1802	0.2173	0.13
Mof_H 	H 	0.1753	0.1971	0.2489	-0.013
Mof_C 	C 	0.2116	0.221	0.2043	-0.162
Mof_H 	H 	0.2144	0.2648	0.2277	0.087
Mof_C 	C 	0.2305	0.1941	0.1549	0.062
Mof_C 	C 	0.2569	0.229	0.1408	0.051
Mof_C 	C 	0.2662	0.2908	0.1782	-0.15
Mof_H 	H 	0.2552	0.313	0.2124	0.082
Mof_C 	C 	0.2913	0.3176	0.1637	0.102
Mof_H 	H 	0.2976	0.358	0.1883	-0.006
Mof_C 	C 	0.3072	0.2846	0.1126	-0.182
Mof_C 	C 	0.2974	0.2235	0.0767	0.104
Mof_H 	H 	0.3085	0.2006	0.043	-0
Mof_C 	C 	0.3353	0.3123	0.0909	0.465
Mof_Eu	Eu	0.37869	0.08068	0.69833	2.492
Mof_Eu	Eu	0.62222	0.10114	0.14371	2.402
Mof_Eu	Eu	0.37566	0.97843	0.2988	2.312
Mof_Co	Co	0.25342	0.11658	0.03495	1.145
Mof_Co	Co	0.49765	0.25185	0.88617	1.16
Mof_O 	O 	0.60013	0.2108	0.1163	-0.554
Mof_O 	O 	0.58935	0.3082	0.0507	-0.295
Mof_O 	O 	0.40703	0.9942	0.8704	-0.636
Mof_O 	O 	0.41152	0.0894	0.795	-0.581
Mof_O 	O 	0.41311	0.9135	0.2069	-0.387
Mof_O 	O 	0.42286	0.9462	0.3165	-0.467
Mof_O 	O 	0.59654	0.5855	0.1636	-0.415
Mof_O 	O 	0.59981	0.5678	0.2814	-0.408
Mof_O 	O 	0.41307	0.2534	0.5861	-0.309
Mof_O 	O 	0.41345	0.1468	0.6417	-0.58
Mof_O 	O 	0.58601	0.1252	0.2379	-0.507
Mof_O 	O 	0.59559	0.0251	0.2993	-0.595
Mof_O 	O 	0.35218	0.9345	0.1934	-0.474
Mof_O 	O 	0.34038	0.0448	0.2223	-0.408
Mof_O 	O 	0.15269	0.9431	0.881	-0.398
Mof_O 	O 	0.16849	0.0507	0.85	-0.454
Mof_O 	O 	0.34559	0.9891	0.8999	-0.55
Mof_O 	O 	0.35454	0.0578	0.8038	-0.651
Mof_O 	O 	0.16111	0.3067	0.0114	-0.308
Mof_O 	O 	0.16022	0.3312	0.8946	-0.546
Mof_O 	O 	0.35385	0.9064	0.7537	-0.637
Mof_O 	O 	0.34299	0.9885	0.6687	-0.516
Mof_O 	O 	0.15379	0.6452	0.635	-0.601
Mof_O 	O 	0.15537	0.7099	0.5327	-0.3
Mof_O 	O 	0.38455	0.0375	0.5707	-0.724
Mof_H 	H 	0.3942	0.0755	0.5654	0.269
Mof_H 	H 	0.368	0.0499	0.5657	0.28
Mof_O 	O 	0.38568	0.9444	0.4255	-0.436
Mof_H 	H 	0.4014	0.9326	0.4398	0.269
Mof_H 	H 	0.384	0.9304	0.3819	-0.098
Mof_N 	N 	0.52269	0.21	0.9627	-0.245
Mof_N 	N 	0.47708	0.1644	0.9084	-0.27
Mof_N 	N 	0.48564	0.7926	0.1973	-0.264
Mof_N 	N 	0.52729	0.7102	0.1897	-0.25
Mof_N 	N 	0.48056	0.1946	0.4655	-0.26
Mof_N 	N 	0.52133	0.1633	0.3809	-0.265
Mof_N 	N 	0.27403	0.0338	0.0797	-0.25
Mof_N 	N 	0.23252	0.0347	0.9927	-0.247
Mof_N 	N 	0.28019	0.1243	0.9501	-0.259
Mof_N 	N 	0.23457	0.196	0.9745	-0.246
Mof_N 	N 	0.27328	0.8686	0.6177	-0.258
Mof_N 	N 	0.22739	0.8031	0.5895	-0.252
Mof_C 	C 	0.5853	0.2458	0.0736	0.434
Mof_C 	C 	0.54666	0.2359	0.9865	0.099
Mof_H 	H 	0.5548	0.2733	0.9609	0.003
Mof_C 	C 	0.5596	0.2089	0.0476	-0.19
Mof_C 	C 	0.54792	0.1516	0.0844	0.089
Mof_H 	H 	0.5564	0.132	0.1248	-0.018
Mof_C 	C 	0.5233	0.1239	0.0602	-0.138
Mof_H 	H 	0.5151	0.0859	0.0845	0.077
Mof_C 	C 	0.51122	0.1537	0.9993	0.041
Mof_C 	C 	0.48591	0.1286	0.9685	0.069
Mof_C 	C 	0.47084	0.0709	0.9958	-0.177
Mof_H 	H 	0.476	0.0487	0.0388	0.094
Mof_C 	C 	0.44845	0.047	0.9594	0.138
Mof_H 	H 	0.4383	0.0089	0.9776	-0.02
Mof_C 	C 	0.44107	0.0802	0.8951	-0.228
Mof_C 	C 	0.45543	0.1405	0.8719	0.136
Mof_H 	H 	0.4499	0.1646	0.8302	-0.018
Mof_C 	C 	0.41754	0.053	0.8489	0.562
Mof_C 	C 	0.4278	0.9116	0.2598	0.363
Mof_C 	C 	0.464	0.8388	0.1961	0.085
Mof_H 	H 	0.4571	0.8536	0.1518	-0
Mof_C 	C 	0.4522	0.8641	0.2594	-0.137
Mof_C 	C 	0.4618	0.8416	0.3244	0.068
Mof_H 	H 	0.4539	0.8575	0.3671	0.025
Mof_C 	C 	0.4838	0.7944	0.3266	-0.132
Mof_H 	H 	0.4907	0.7783	0.3705	0.082
Mof_C 	C 	0.495	0.7721	0.2614	0.064
Mof_C 	C 	0.5189	0.7234	0.2576	0.047
Mof_C 	C 	0.5315	0.695	0.3169	-0.108
Mof_H 	H 	0.5246	0.7035	0.3631	0.071
Mof_C 	C 	0.5547	0.653	0.3078	0.04
Mof_H 	H 	0.5636	0.6333	0.3475	0.045
Mof_C 	C 	0.564	0.6416	0.2394	-0.105
Mof_C 	C 	0.5494	0.6699	0.1812	0.077
Mof_H 	H 	0.5554	0.6602	0.1345	0.01
Mof_C 	C 	0.5889	0.5967	0.2262	0.321
Mof_C 	C 	0.4223	0.1937	0.5994	0.461
Mof_C 	C 	0.4579	0.2111	0.5001	0.106
Mof_H 	H 	0.4475	0.2497	0.4835	-0.003
Mof_C 	C 	0.4488	0.1725	0.561	-0.173
Mof_C 	C 	0.46461	0.1155	0.5843	0.087
Mof_H 	H 	0.4593	0.0889	0.6247	0.006
Mof_C 	C 	0.4884	0.0974	0.5478	-0.14
Mof_H 	H 	0.4993	0.0598	0.5641	0.08
Mof_C 	C 	0.49543	0.1368	0.4866	0.05
Mof_C 	C 	0.51887	0.1204	0.4394	0.065
Mof_C 	C 	0.5373	0.0676	0.4542	-0.152
Mof_H 	H 	0.5356	0.0401	0.4961	0.087
Mof_C 	C 	0.55864	0.0548	0.4065	0.111
Mof_H 	H 	0.5715	0.0196	0.4165	0.011
Mof_C 	C 	0.56022	0.0961	0.3433	-0.205
Mof_C 	C 	0.54105	0.1501	0.3331	0.125
Mof_H 	H 	0.542	0.1782	0.2914	-0.01
Mof_C 	C 	0.5821	0.0816	0.2883	0.526
Mof_C 	C 	0.3364	0.9876	0.1875	0.337
Mof_C 	C 	0.2962	0.038	0.1216	0.084
Mof_H 	H 	0.3015	0.0833	0.1379	0.004
Mof_C 	C 	0.3114	0.9793	0.1418	-0.118
Mof_C 	C 	0.3031	0.911	0.1198	0.046
Mof_H 	H 	0.313	0.8701	0.1323	0.037
Mof_C 	C 	0.2793	0.9057	0.0781	-0.116
Mof_H 	H 	0.2732	0.8607	0.0627	0.075
Mof_C 	C 	0.2652	0.9666	0.0601	0.054
Mof_C 	C 	0.2404	0.9672	0.0152	0.03
Mof_C 	C 	0.2261	0.9064	0.9968	-0.08
Mof_H 	H 	0.2321	0.8613	0.0121	0.059
Mof_C 	C 	0.2026	0.9121	0.9555	0.019
Mof_H 	H 	0.1921	0.8717	0.9453	0.046
Mof_C 	C 	0.1955	0.9782	0.9303	-0.087
Mof_C 	C 	0.2104	0.0388	0.9505	0.061
Mof_H 	H 	0.2047	0.0838	0.9342	0.013
Mof_C 	C 	0.1706	0.9915	0.8833	0.326
Mof_C 	C 	0.3421	0.0433	0.8614	0.542
Mof_C 	C 	0.30072	0.0809	0.9363	0.134
Mof_H 	H 	0.3026	0.0387	0.9633	-0.013
Mof_C 	C 	0.32019	0.0965	0.8814	-0.231
Mof_C 	C 	0.31753	0.1611	0.8449	0.15
Mof_H 	H 	0.3303	0.1744	0.8105	-0.045
Mof_C 	C 	0.29578	0.206	0.8597	-0.175
Mof_H 	H 	0.2941	0.2501	0.836	0.092
Mof_C 	C 	0.27632	0.1845	0.9103	0.071
Mof_C 	C 	0.2511	0.2233	0.9229	0.043
Mof_C 	C 	0.2433	0.2836	0.8807	-0.133
Mof_H 	H 	0.2552	0.3043	0.8478	0.077
Mof_C 	C 	0.21762	0.3107	0.8896	0.079
Mof_H 	H 	0.2118	0.349	0.861	0.01
Mof_C 	C 	0.2001	0.2806	0.942	-0.17
Mof_C 	C 	0.2099	0.2236	0.9835	0.104
Mof_H 	H 	0.1987	0.204	0.019	-0.003
Mof_C 	C 	0.1716	0.3079	0.9496	0.444
Mof_C 	C 	0.3391	0.9315	0.7029	0.54
Mof_C 	C 	0.2957	0.9069	0.633	0.129
Mof_H 	H 	0.2985	0.9502	0.6086	-0.011
Mof_C 	C 	0.3148	0.885	0.6834	-0.218
Mof_C 	C 	0.3115	0.8198	0.7173	0.13
Mof_H 	H 	0.3247	0.8029	0.7489	-0.013
Mof_C 	C 	0.2884	0.779	0.7043	-0.162
Mof_H 	H 	0.2856	0.7352	0.7277	0.087
Mof_C 	C 	0.2695	0.8059	0.6549	0.062
Mof_C 	C 	0.2431	0.771	0.6408	0.051
Mof_C 	C 	0.2338	0.7092	0.6782	-0.15
Mof_H 	H 	0.2448	0.687	0.7124	0.082
Mof_C 	C 	0.2087	0.6824	0.6637	0.102
Mof_H 	H 	0.2024	0.642	0.6883	-0.006
Mof_C 	C 	0.1928	0.7154	0.6126	-0.182
Mof_C 	C 	0.2026	0.7765	0.5767	0.104
Mof_H 	H 	0.1915	0.7994	0.543	-0
Mof_C 	C 	0.1647	0.6877	0.5909	0.465
_end
