data_functionalizedCrystal
_audit_creation_method	'EQeq! by Chris Wilmer'
_symmetry_space_group_name_H-M	'P1'
_symmetry_Int_Tables_number	1
_symmetry_cell_setting	triclinic
loop_
_symmetry_equiv_pos_as_xyz
  x,y,z
_cell_length_a	10.284
_cell_length_b	16.5149
_cell_length_c	20.904
_cell_angle_alpha	85.9263
_cell_angle_beta	76.8111
_cell_angle_gamma	71.8591
loop_
_atom_site_label
_atom_site_type_symbol
_atom_site_fract_x
_atom_site_fract_y
_atom_site_fract_z
_atom_site_charge
Mof_Ag	Ag	0.76826	0.61326	0.04063	0.6
Mof_Ag	Ag	0.38152	0.38674	0.54063	0.6
Mof_H 	H 	0.2584	0.184	0.7386	0.086
Mof_H 	H 	0.1415	0.1024	0.2423	0.255
Mof_H 	H 	0.1048	0.7944	0.9744	0.089
Mof_H 	H 	0.4397	0.4606	0.1702	0.063
Mof_H 	H 	0.9798	0.6406	0.491	0.069
Mof_H 	H 	0.6373	0.8094	0.0207	0.011
Mof_H 	H 	0.2439	0.8976	0.7423	0.255
Mof_H 	H 	0.4467	0.1906	0.5207	0.012
Mof_H 	H 	0.4484	0.0582	0.5743	0.097
Mof_H 	H 	0.6313	0.837	0.629	0.279
Mof_H 	H 	0.7578	0.3484	0.3288	0.084
Mof_H 	H 	0.1996	0.5468	0.4758	-0.016
Mof_H 	H 	0.948	0.7366	0.0395	-0.016
Mof_H 	H 	0.4683	0.163	0.129	0.279
Mof_H 	H 	0.9501	0.5964	0.8997	-0.021
Mof_H 	H 	0.5715	0.5502	0.1495	-0.009
Mof_H 	H 	0.6846	0.2634	0.5395	-0.013
Mof_H 	H 	0.5066	0.9418	0.0743	0.096
Mof_H 	H 	0.1217	0.4498	0.6495	-0.009
Mof_H 	H 	0.4951	0.6544	0.7335	0.24
Mof_H 	H 	0.8992	0.2056	0.4744	0.087
Mof_H 	H 	0.9003	0.5394	0.6702	0.063
Mof_H 	H 	0.596	0.6938	0.1837	-0.021
Mof_H 	H 	0.1062	0.6516	0.8288	0.085
Mof_H 	H 	0.4424	0.816	0.2386	0.086
Mof_H 	H 	0.2898	0.3062	0.6837	-0.021
Mof_H 	H 	0.7464	0.4532	0.9758	-0.016
Mof_H 	H 	0.6204	0.3594	0.991	0.069
Mof_H 	H 	0.5465	0.4036	0.3997	-0.02
Mof_H 	H 	0.1495	0.3456	0.2335	0.24
Mof_C 	C 	0.7723	0.6632	0.5913	0.317
Mof_C 	C 	0.745	0.3308	0.3724	-0.103
Mof_C 	C 	0.47917	0.71126	0.7208	-0.537
Mof_C 	C 	0.9138	0.6004	0.5838	-0.025
Mof_C 	C 	0.0923	0.4886	0.6173	0.051
Mof_C 	C 	0.00643	0.60234	0.5239	-0.095
Mof_C 	C 	0.1246	0.7272	0.8944	0.008
Mof_C 	C 	0.4355	0.3368	0.0913	0.317
Mof_C 	C 	0.3057	0.1822	0.6949	-0.133
Mof_C 	C 	0.60877	0.39766	0.0239	-0.094
Mof_C 	C 	0.3126	0.1228	0.1837	0.538
Mof_C 	C 	0.56115	0.8203	0.6579	-0.57
Mof_C 	C 	0.57954	0.73692	0.6766	0.519
Mof_C 	C 	0.8293	0.2462	0.4579	-0.118
Mof_C 	C 	0.4354	0.8772	0.6837	0.538
Mof_C 	C 	0.31646	0.26308	0.1766	0.519
Mof_C 	C 	0.38145	0.1797	0.1579	-0.57
Mof_C 	C 	0.2299	0.7644	0.853	0.314
Mof_C 	C 	0.4879	0.8178	0.1949	-0.133
Mof_C 	C 	0.13772	0.54556	0.5157	0.078
Mof_C 	C 	0.0758	0.6692	0.8724	-0.106
Mof_C 	C 	0.1264	0.228	0.2458	0.502
Mof_C 	C 	0.68328	0.45444	0.0157	0.077
Mof_C 	C 	0.3649	0.111	0.6618	0.035
Mof_C 	C 	0.5142	0.3996	0.0838	-0.025
Mof_C 	C 	0.3183	0.2558	0.6599	0.092
Mof_C 	C 	0.50235	0.4579	0.1299	-0.08
Mof_C 	C 	0.4126	0.1898	0.5659	0.085
Mof_C 	C 	0.4143	0.109	0.5977	-0.116
Mof_C 	C 	0.5809	0.5114	0.1173	0.051
Mof_C 	C 	0.96025	0.5421	0.6299	-0.08
Mof_C 	C 	0.3664	0.0256	0.6974	0.3
Mof_C 	C 	0.5741	0.7442	0.1599	0.092
Mof_C 	C 	0.5233	0.891	0.0977	-0.116
Mof_C 	C 	0.9819	0.6368	0.9149	0.073
Mof_C 	C 	0.6024	0.8102	0.0659	0.085
Mof_C 	C 	0.4759	0.889	0.1618	0.035
Mof_C 	C 	0.8518	0.2728	0.3944	0.006
Mof_C 	C 	0.19043	0.28874	0.2208	-0.537
Mof_C 	C 	0.9817	0.7186	0.996	0.096
Mof_C 	C 	0.1859	0.1434	0.2266	-0.546
Mof_C 	C 	0.0755	0.7538	0.9579	-0.122
Mof_C 	C 	0.392	0.9744	0.1974	0.3
Mof_C 	C 	0.3544	0.772	0.7458	0.502
Mof_C 	C 	0.9943	0.2356	0.353	0.315
Mof_C 	C 	0.3293	0.8566	0.7266	-0.546
Mof_C 	C 	0.6187	0.3632	0.4149	0.071
Mof_C 	C 	0.7003	0.2814	0.496	0.09
Mof_N 	N 	0.93496	0.66168	0.9772	-0.207
Mof_N 	N 	0.18373	0.48954	0.5594	-0.203
Mof_N 	N 	0.59664	0.33832	0.4772	-0.206
Mof_N 	N 	0.36605	0.2599	0.5975	-0.194
Mof_N 	N 	0.67327	0.51046	0.0594	-0.202
Mof_N 	N 	0.62595	0.7401	0.0975	-0.194
Mof_O 	O 	0.41476	0.96088	0.6595	-0.364
Mof_O 	O 	0.37564	0.03912	0.1595	-0.363
Mof_O 	O 	0.38484	0.32512	0.1565	-0.352
Mof_O 	O 	0.09425	0.1973	0.3727	-0.261
Mof_O 	O 	0.25011	0.74478	0.79	-0.348
Mof_O 	O 	0.70996	0.67488	0.6565	-0.352
Mof_O 	O 	0.35585	0.9785	0.259	-0.237
Mof_O 	O 	0.33435	0.0215	0.759	-0.237
Mof_O 	O 	0.41347	0.30086	0.0503	-0.303
Mof_O 	O 	0.99489	0.25522	0.29	-0.348
Mof_O 	O 	0.71433	0.69914	0.5503	-0.304
Mof_O 	O 	0.29155	0.8027	0.8727	-0.261
Mof_Ag	Ag	0.23174	0.38674	0.95937	0.599
Mof_Ag	Ag	0.61848	0.61326	0.45937	0.599
Mof_H 	H 	0.7416	0.816	0.2614	0.086
Mof_H 	H 	0.5603	0.5394	0.8298	0.063
Mof_H 	H 	0.3687	0.163	0.371	0.279
Mof_H 	H 	0.1008	0.7944	0.5256	0.087
Mof_H 	H 	0.8952	0.2056	0.0256	0.089
Mof_H 	H 	0.8004	0.4532	0.5242	-0.016
Mof_H 	H 	0.4285	0.4498	0.8505	-0.009
Mof_H 	H 	0.5516	0.9418	0.4257	0.097
Mof_H 	H 	0.3627	0.1906	0.9793	0.011
Mof_H 	H 	0.052	0.2634	0.9605	-0.016
Mof_H 	H 	0.2536	0.5468	0.0242	-0.016
Mof_H 	H 	0.7102	0.6938	0.3163	-0.021
Mof_H 	H 	0.0202	0.3594	0.509	0.069
Mof_H 	H 	0.8505	0.6544	0.7665	0.24
Mof_H 	H 	0.5533	0.8094	0.4793	0.012
Mof_H 	H 	0.5576	0.184	0.7614	0.086
Mof_H 	H 	0.4934	0.0582	0.9257	0.096
Mof_H 	H 	0.404	0.3062	0.8163	-0.021
Mof_H 	H 	0.4535	0.5964	0.6003	-0.02
Mof_H 	H 	0.0997	0.4606	0.3298	0.063
Mof_H 	H 	0.0499	0.4036	0.1003	-0.021
Mof_H 	H 	0.8938	0.3484	0.1712	0.085
Mof_H 	H 	0.5049	0.3456	0.2665	0.24
Mof_H 	H 	0.2422	0.6516	0.6712	0.084
Mof_H 	H 	0.8585	0.8976	0.7577	0.255
Mof_H 	H 	0.7561	0.1024	0.2577	0.255
Mof_H 	H 	0.5317	0.837	0.871	0.279
Mof_H 	H 	0.3154	0.7366	0.4605	-0.013
Mof_H 	H 	0.8783	0.5502	0.3505	-0.009
Mof_H 	H 	0.3796	0.6406	0.009	0.069
Mof_C 	C 	0.5857	0.891	0.4023	-0.116
Mof_C 	C 	0.42046	0.26308	0.3234	0.519
Mof_C 	C 	0.43885	0.1797	0.3421	-0.57
Mof_C 	C 	0.8754	0.2728	0.1056	0.008
Mof_C 	C 	0.6874	0.8772	0.8163	0.538
Mof_C 	C 	0.6943	0.8178	0.3051	-0.133
Mof_C 	C 	0.86228	0.45444	0.4843	0.078
Mof_C 	C 	0.6336	0.9744	0.3026	0.3
Mof_C 	C 	0.0183	0.2814	0.004	0.096
Mof_C 	C 	0.0862	0.3996	0.4162	-0.025
Mof_C 	C 	0.9245	0.2462	0.0421	-0.122
Mof_C 	C 	0.6351	0.889	0.3382	0.035
Mof_C 	C 	0.39123	0.60234	0.9761	-0.094
Mof_C 	C 	0.1482	0.7272	0.6056	0.006
Mof_C 	C 	0.9077	0.5114	0.3827	0.051
Mof_C 	C 	0.99357	0.39766	0.4761	-0.095
Mof_C 	C 	0.6817	0.7442	0.3401	0.092
Mof_C 	C 	0.5121	0.1822	0.8051	-0.133
Mof_C 	C 	0.5874	0.8102	0.4341	0.085
Mof_C 	C 	0.608	0.0256	0.8026	0.3
Mof_C 	C 	0.4259	0.2558	0.8401	0.092
Mof_C 	C 	0.4767	0.109	0.9023	-0.116
Mof_C 	C 	0.8736	0.772	0.7542	0.502
Mof_C 	C 	0.4191	0.4886	0.8827	0.051
Mof_C 	C 	0.5646	0.1228	0.3163	0.538
Mof_C 	C 	0.7701	0.2356	0.147	0.314
Mof_C 	C 	0.61855	0.8203	0.8421	-0.57
Mof_C 	C 	0.2997	0.7186	0.504	0.09
Mof_C 	C 	0.6707	0.1434	0.2734	-0.546
Mof_C 	C 	0.49765	0.5421	0.8701	-0.08
Mof_C 	C 	0.3813	0.6368	0.5851	0.071
Mof_C 	C 	0.255	0.6692	0.6276	-0.103
Mof_C 	C 	0.5241	0.111	0.8382	0.035
Mof_C 	C 	0.3976	0.1898	0.9341	0.085
Mof_C 	C 	0.80957	0.71126	0.7792	-0.537
Mof_C 	C 	0.31672	0.54556	0.9843	0.077
Mof_C 	C 	0.0057	0.7644	0.647	0.315
Mof_C 	C 	0.52083	0.28874	0.2792	-0.537
Mof_C 	C 	0.5645	0.6632	0.9087	0.317
Mof_C 	C 	0.68354	0.73692	0.8234	0.519
Mof_C 	C 	0.8141	0.8566	0.7734	-0.546
Mof_C 	C 	0.9242	0.3308	0.1276	-0.106
Mof_C 	C 	0.03975	0.4579	0.3701	-0.08
Mof_C 	C 	0.1707	0.7538	0.5421	-0.118
Mof_C 	C 	0.6456	0.228	0.2542	0.502
Mof_C 	C 	0.2277	0.3368	0.4087	0.317
Mof_C 	C 	0.4858	0.6004	0.9162	-0.025
Mof_C 	C 	0.0181	0.3632	0.0851	0.073
Mof_N 	N 	0.40336	0.66168	0.5228	-0.206
Mof_N 	N 	0.06504	0.33832	0.0228	-0.207
Mof_N 	N 	0.32673	0.48954	0.9406	-0.202
Mof_N 	N 	0.63395	0.7401	0.4025	-0.194
Mof_N 	N 	0.37405	0.2599	0.9025	-0.194
Mof_N 	N 	0.81627	0.51046	0.4406	-0.203
Mof_O 	O 	0.74989	0.25522	0.21	-0.348
Mof_O 	O 	0.70845	0.1973	0.1273	-0.261
Mof_O 	O 	0.61516	0.67488	0.8435	-0.352
Mof_O 	O 	0.64415	0.0215	0.741	-0.237
Mof_O 	O 	0.62436	0.96088	0.8405	-0.363
Mof_O 	O 	0.58524	0.03912	0.3405	-0.364
Mof_O 	O 	0.66565	0.9785	0.241	-0.237
Mof_O 	O 	0.90575	0.8027	0.6273	-0.261
Mof_O 	O 	0.28567	0.30086	0.4497	-0.304
Mof_O 	O 	0.58653	0.69914	0.9497	-0.303
Mof_O 	O 	0.29004	0.32512	0.3435	-0.352
Mof_O 	O 	0.00511	0.74478	0.71	-0.348
_end
