data_functionalizedCrystal
_audit_creation_method	'EQeq! by Chris Wilmer'
_symmetry_space_group_name_H-M	'P1'
_symmetry_Int_Tables_number	1
_symmetry_cell_setting	triclinic
loop_
_symmetry_equiv_pos_as_xyz
  x,y,z
_cell_length_a	17.8531
_cell_length_b	12.6225
_cell_length_c	11.1909
_cell_angle_alpha	90
_cell_angle_beta	94.8394
_cell_angle_gamma	90
loop_
_atom_site_label
_atom_site_type_symbol
_atom_site_fract_x
_atom_site_fract_y
_atom_site_fract_z
_atom_site_charge
Mof_Co	Co	0.42133	0.55929	0.50051	1.13
Mof_N 	N 	0.87397	0.9348	0.1623	-0.208
Mof_N 	N 	0.91086	0.9829	0.2561	-0.164
Mof_N 	N 	0.87731	0.9705	0.3562	-0.217
Mof_C 	C 	0.81189	0.8874	0.2054	0.04
Mof_C 	C 	0.81485	0.9109	0.3281	0.076
Mof_C 	C 	0.7598	0.8736	0.4006	-0.138
Mof_H 	H 	0.7622	0.8885	0.4831	0.063
Mof_C 	C 	0.7028	0.8147	0.3452	0.035
Mof_H 	H 	0.6652	0.7884	0.3911	0.02
Mof_C 	C 	0.69862	0.7919	0.2204	-0.091
Mof_C 	C 	0.7528	0.8274	0.1491	-0.051
Mof_H 	H 	0.7503	0.8121	0.0666	0.058
Mof_C 	C 	0.6332	0.7264	0.1685	0.365
Mof_O 	O 	0.52018	0.58038	0.4321	-0.742
Mof_H 	H 	0.543	0.641	0.467	0.188
Mof_O 	O 	0.63586	0.6902	0.0632	-0.454
Mof_O 	O 	0.58102	0.7124	0.235	-0.44
Mof_Co	Co	0.92133	0.05929	0.50051	1.153
Mof_N 	N 	0.37397	0.4348	0.1623	-0.215
Mof_N 	N 	0.41086	0.4829	0.2561	-0.189
Mof_N 	N 	0.37731	0.4705	0.3562	-0.225
Mof_C 	C 	0.31189	0.3874	0.2054	0.034
Mof_C 	C 	0.31485	0.4109	0.3281	0.073
Mof_C 	C 	0.2598	0.3736	0.4006	-0.145
Mof_H 	H 	0.2622	0.3885	0.4831	0.06
Mof_C 	C 	0.2028	0.3147	0.3452	0.035
Mof_H 	H 	0.1652	0.2884	0.3911	0.012
Mof_C 	C 	0.19862	0.2919	0.2204	-0.1
Mof_C 	C 	0.2528	0.3274	0.1491	-0.052
Mof_H 	H 	0.2503	0.3121	0.0666	0.056
Mof_C 	C 	0.1332	0.2264	0.1685	0.365
Mof_O 	O 	0.02018	0.08038	0.4321	-0.792
Mof_H 	H 	0.043	0.141	0.467	0.179
Mof_O 	O 	0.13586	0.1902	0.0632	-0.467
Mof_O 	O 	0.08102	0.2124	0.235	-0.468
Mof_Co	Co	0.57867	0.55929	0.99949	1.132
Mof_N 	N 	0.12603	0.9348	0.3377	-0.22
Mof_N 	N 	0.08914	0.9829	0.2439	-0.202
Mof_N 	N 	0.12269	0.9705	0.1438	-0.232
Mof_C 	C 	0.18811	0.8874	0.2946	0.033
Mof_C 	C 	0.18515	0.9109	0.1719	0.071
Mof_C 	C 	0.2402	0.8736	0.0994	-0.142
Mof_H 	H 	0.2378	0.8885	0.0169	0.062
Mof_C 	C 	0.2972	0.8147	0.1548	0.033
Mof_H 	H 	0.3348	0.7884	0.1089	0.02
Mof_C 	C 	0.30138	0.7919	0.2796	-0.093
Mof_C 	C 	0.2472	0.8274	0.3509	-0.056
Mof_H 	H 	0.2497	0.8121	0.4334	0.059
Mof_C 	C 	0.3668	0.7264	0.3315	0.363
Mof_O 	O 	0.47982	0.58038	0.0679	-0.743
Mof_H 	H 	0.457	0.641	0.033	0.187
Mof_O 	O 	0.36414	0.6902	0.4368	-0.453
Mof_O 	O 	0.41898	0.7124	0.265	-0.44
Mof_Co	Co	0.07867	0.05929	0.99949	1.107
Mof_N 	N 	0.62603	0.4348	0.3377	-0.215
Mof_N 	N 	0.58914	0.4829	0.2439	-0.188
Mof_N 	N 	0.62269	0.4705	0.1438	-0.225
Mof_C 	C 	0.68811	0.3874	0.2946	0.041
Mof_C 	C 	0.68515	0.4109	0.1719	0.072
Mof_C 	C 	0.7402	0.3736	0.0994	-0.133
Mof_H 	H 	0.7378	0.3885	0.0169	0.063
Mof_C 	C 	0.7972	0.3147	0.1548	0.031
Mof_H 	H 	0.8348	0.2884	0.1089	0.03
Mof_C 	C 	0.80138	0.2919	0.2796	-0.08
Mof_C 	C 	0.7472	0.3274	0.3509	-0.057
Mof_H 	H 	0.7497	0.3121	0.4334	0.064
Mof_C 	C 	0.8668	0.2264	0.3315	0.358
Mof_O 	O 	0.97982	0.08038	0.0679	-0.676
Mof_H 	H 	0.957	0.141	0.033	0.195
Mof_O 	O 	0.86414	0.1902	0.4368	-0.433
Mof_O 	O 	0.91898	0.2124	0.265	-0.395
Mof_Co	Co	0.57867	0.44071	0.49949	1.129
Mof_N 	N 	0.12603	0.0652	0.8377	-0.22
Mof_N 	N 	0.08914	0.0171	0.7439	-0.203
Mof_N 	N 	0.12269	0.0295	0.6438	-0.231
Mof_C 	C 	0.18811	0.1126	0.7946	0.033
Mof_C 	C 	0.18515	0.0891	0.6719	0.071
Mof_C 	C 	0.2402	0.1264	0.5994	-0.141
Mof_H 	H 	0.2378	0.1115	0.5169	0.063
Mof_C 	C 	0.2972	0.1853	0.6548	0.033
Mof_H 	H 	0.3348	0.2116	0.6089	0.02
Mof_C 	C 	0.30138	0.2081	0.7796	-0.092
Mof_C 	C 	0.2472	0.1726	0.8509	-0.056
Mof_H 	H 	0.2497	0.1879	0.9334	0.06
Mof_C 	C 	0.3668	0.2736	0.8315	0.363
Mof_O 	O 	0.47982	0.41962	0.5679	-0.742
Mof_H 	H 	0.457	0.359	0.533	0.188
Mof_O 	O 	0.36414	0.3098	0.9368	-0.452
Mof_O 	O 	0.41898	0.2876	0.765	-0.44
Mof_Co	Co	0.07867	0.94071	0.49949	1.107
Mof_N 	N 	0.62603	0.5652	0.8377	-0.214
Mof_N 	N 	0.58914	0.5171	0.7439	-0.188
Mof_N 	N 	0.62269	0.5295	0.6438	-0.224
Mof_C 	C 	0.68811	0.6126	0.7946	0.043
Mof_C 	C 	0.68515	0.5891	0.6719	0.072
Mof_C 	C 	0.7402	0.6264	0.5994	-0.132
Mof_H 	H 	0.7378	0.6115	0.5169	0.064
Mof_C 	C 	0.7972	0.6853	0.6548	0.03
Mof_H 	H 	0.8348	0.7116	0.6089	0.031
Mof_C 	C 	0.80138	0.7081	0.7796	-0.078
Mof_C 	C 	0.7472	0.6726	0.8509	-0.057
Mof_H 	H 	0.7497	0.6879	0.9334	0.067
Mof_C 	C 	0.8668	0.7736	0.8315	0.358
Mof_O 	O 	0.97982	0.91962	0.5679	-0.674
Mof_H 	H 	0.957	0.859	0.533	0.196
Mof_O 	O 	0.86414	0.8098	0.9368	-0.429
Mof_O 	O 	0.91898	0.7876	0.765	-0.393
Mof_Co	Co	0.42133	0.44071	0.00051	1.128
Mof_N 	N 	0.87397	0.0652	0.6623	-0.208
Mof_N 	N 	0.91086	0.0171	0.7561	-0.164
Mof_N 	N 	0.87731	0.0295	0.8562	-0.216
Mof_C 	C 	0.81189	0.1126	0.7054	0.042
Mof_C 	C 	0.81485	0.0891	0.8281	0.076
Mof_C 	C 	0.7598	0.1264	0.9006	-0.137
Mof_H 	H 	0.7622	0.1115	0.9831	0.063
Mof_C 	C 	0.7028	0.1853	0.8452	0.035
Mof_H 	H 	0.6652	0.2116	0.8911	0.021
Mof_C 	C 	0.69862	0.2081	0.7204	-0.09
Mof_C 	C 	0.7528	0.1726	0.6491	-0.052
Mof_H 	H 	0.7503	0.1879	0.5666	0.061
Mof_C 	C 	0.6332	0.2736	0.6685	0.364
Mof_O 	O 	0.52018	0.41962	0.9321	-0.741
Mof_H 	H 	0.543	0.359	0.967	0.188
Mof_O 	O 	0.63586	0.3098	0.5632	-0.451
Mof_O 	O 	0.58102	0.2876	0.735	-0.44
Mof_Co	Co	0.92133	0.94071	0.00051	1.149
Mof_N 	N 	0.37397	0.5652	0.6623	-0.215
Mof_N 	N 	0.41086	0.5171	0.7561	-0.188
Mof_N 	N 	0.37731	0.5295	0.8562	-0.224
Mof_C 	C 	0.31189	0.6126	0.7054	0.034
Mof_C 	C 	0.31485	0.5891	0.8281	0.074
Mof_C 	C 	0.2598	0.6264	0.9006	-0.144
Mof_H 	H 	0.2622	0.6115	0.9831	0.062
Mof_C 	C 	0.2028	0.6853	0.8452	0.036
Mof_H 	H 	0.1652	0.7116	0.8911	0.013
Mof_C 	C 	0.19862	0.7081	0.7204	-0.1
Mof_C 	C 	0.2528	0.6726	0.6491	-0.052
Mof_H 	H 	0.2503	0.6879	0.5666	0.056
Mof_C 	C 	0.1332	0.7736	0.6685	0.365
Mof_O 	O 	0.02018	0.91962	0.9321	-0.79
Mof_H 	H 	0.043	0.859	0.967	0.18
Mof_O 	O 	0.13586	0.8098	0.5632	-0.468
Mof_O 	O 	0.08102	0.7876	0.735	-0.468
Mof_Co	Co	0.5	0.5958	0.25	1.153
Mof_Co	Co	2.82759e-18	0.0958	0.25	1.106
Mof_Co	Co	0.5	0.4042	0.75	1.153
Mof_Co	Co	-5.65519e-18	0.9042	0.75	1.105
_end
