data_functionalizedCrystal
_audit_creation_method	'EQeq! by Chris Wilmer'
_symmetry_space_group_name_H-M	'P1'
_symmetry_Int_Tables_number	1
_symmetry_cell_setting	triclinic
loop_
_symmetry_equiv_pos_as_xyz
  x,y,z
_cell_length_a	15.9473
_cell_length_b	6.631
_cell_length_c	13.9205
_cell_angle_alpha	90
_cell_angle_beta	90
_cell_angle_gamma	90
loop_
_atom_site_label
_atom_site_type_symbol
_atom_site_fract_x
_atom_site_fract_y
_atom_site_fract_z
_atom_site_charge
Mof_C 	C 	0.21636	0.5651	0.71871	0.094
Mof_O 	O 	0.08062	0.57422	0.58505	-1.91
Mof_H 	H 	0.19167	0.42223	0.69458	0.013
Mof_C 	C 	0.71722	0.06557	0.21719	0.278
Mof_O 	O 	0.58134	0.07542	0.08297	-0.775
Mof_H 	H 	0.6924	0.92279	0.19292	-0.249
Mof_C 	C 	0.78381	0.92729	0.7167	-0.166
Mof_O 	O 	0.92025	0.91622	0.58289	-1.246
Mof_H 	H 	0.80897	0.0698	0.69266	0.305
Mof_C 	C 	0.28434	0.4276	0.21808	-0.041
Mof_O 	O 	0.42024	0.41808	0.08417	-1.356
Mof_H 	H 	0.30901	0.57065	0.19401	-0.034
Mof_C 	C 	0.78444	0.06532	0.28298	0.345
Mof_O 	O 	0.92045	0.07429	0.41733	-0.976
Mof_H 	H 	0.80904	0.92247	0.30738	-0.219
Mof_C 	C 	0.284	0.56528	0.78389	-0.032
Mof_O 	O 	0.41955	0.57549	0.91758	-0.979
Mof_H 	H 	0.30922	0.42239	0.80767	0.085
Mof_C 	C 	0.21653	0.42718	0.28305	0.064
Mof_O 	O 	0.08166	0.41647	0.41779	-1.935
Mof_H 	H 	0.19125	0.56976	0.30689	-0.06
Mof_C 	C 	0.71607	0.92774	0.78188	-0.262
Mof_O 	O 	0.58038	0.91824	0.91689	-0.699
Mof_H 	H 	0.69135	0.0708	0.80595	0.323
Mof_C 	C 	0.78453	0.42846	0.28316	0.078
Mof_O 	O 	0.92017	0.41743	0.4182	-1.539
Mof_H 	H 	0.80922	0.57124	0.30769	0.014
Mof_C 	C 	0.28392	0.92859	0.78378	-0.312
Mof_O 	O 	0.41953	0.9183	0.91797	-0.716
Mof_H 	H 	0.30906	0.07148	0.80749	0.308
Mof_C 	C 	0.21676	0.06386	0.28278	0.343
Mof_O 	O 	0.08136	0.07312	0.41698	-1.355
Mof_H 	H 	0.1917	0.92074	0.30637	-0.3
Mof_C 	C 	0.7158	0.56462	0.78208	0.014
Mof_O 	O 	0.58003	0.57496	0.91643	-0.96
Mof_H 	H 	0.69084	0.42201	0.80632	0.105
Mof_C 	C 	0.21628	0.92831	0.71853	-0.192
Mof_O 	O 	0.08094	0.91732	0.58415	-1.64
Mof_H 	H 	0.19151	0.07109	0.69425	0.242
Mof_C 	C 	0.71731	0.4287	0.21729	0.007
Mof_O 	O 	0.58133	0.4185	0.08258	-1.342
Mof_H 	H 	0.69255	0.57148	0.19308	-0.015
Mof_C 	C 	0.78356	0.56418	0.71696	0.112
Mof_O 	O 	0.92054	0.57338	0.5837	-1.509
Mof_H 	H 	0.80848	0.42109	0.69317	0.085
Mof_C 	C 	0.2846	0.06433	0.21787	0.236
Mof_O 	O 	0.42062	0.07495	0.08463	-0.786
Mof_H 	H 	0.3095	0.92173	0.1936	-0.272
Mof_Al	Al	0.00127	0.49458	0.50093	7.692
Mof_Al	Al	0.50021	0.99641	0.00072	2.524
Mof_Al	Al	0.001	0.99515	0.50031	5.407
Mof_Al	Al	0.50004	0.49638	0.0004	4.773
Mof_O 	O 	0.00339	0.74456	0.44919	-3.352
Mof_O 	O 	0.49828	0.24616	0.94921	-1.384
Mof_O 	O 	0.00294	0.2446	0.55192	-3.26
Mof_O 	O 	0.49957	0.74618	0.05199	-2.147
Mof_C 	C 	0.6824	0.24727	0.18287	-0.262
Mof_C 	C 	0.61065	0.24714	0.1118	0.768
Mof_C 	C 	0.18111	0.7465	0.68495	-0.313
Mof_C 	C 	0.10966	0.74595	0.61402	1.127
Mof_C 	C 	0.31984	0.24621	0.1845	-0.277
Mof_C 	C 	0.39149	0.24649	0.11377	0.756
Mof_C 	C 	0.81895	0.74548	0.68299	-0.195
Mof_C 	C 	0.89112	0.74508	0.61241	1.122
Mof_C 	C 	0.31892	0.7471	0.81776	-0.069
Mof_C 	C 	0.39047	0.74704	0.88852	0.712
Mof_C 	C 	0.81947	0.24668	0.31727	-0.313
Mof_C 	C 	0.89109	0.24608	0.38855	1.146
Mof_C 	C 	0.68084	0.74639	0.81599	-0.052
Mof_C 	C 	0.60929	0.74659	0.88729	0.721
Mof_C 	C 	0.18174	0.24533	0.31692	-0.437
Mof_C 	C 	0.11049	0.24486	0.38808	1.155
Mof_H 	H 	0.0057	0.24441	0.61384	0.939
Mof_H 	H 	0.00693	0.74436	0.38739	0.8
Mof_H 	H 	0.4985	0.74597	0.11392	0.66
Mof_H 	H 	0.49513	0.24599	0.88731	0.585
_end
