data_functionalizedCrystal
_audit_creation_method	'EQeq! by Chris Wilmer'
_symmetry_space_group_name_H-M	'P1'
_symmetry_Int_Tables_number	1
_symmetry_cell_setting	triclinic
loop_
_symmetry_equiv_pos_as_xyz
  x,y,z
_cell_length_a	61.1492
_cell_length_b	15.5084
_cell_length_c	17.77
_cell_angle_alpha	90
_cell_angle_beta	95.6666
_cell_angle_gamma	90
loop_
_atom_site_label
_atom_site_type_symbol
_atom_site_fract_x
_atom_site_fract_y
_atom_site_fract_z
_atom_site_charge
Mof_Cu	Cu	0.15451	0.05627	0.52131	0.944
Mof_Cu	Cu	0.2927	0.19371	0.63561	0.892
Mof_O 	O 	0.13848	0.097	0.4201	-0.196
Mof_O 	O 	0.2982	0.1389	0.54008	-0.268
Mof_O 	O 	0.17086	0.0179	0.621	-0.142
Mof_O 	O 	0.15147	0.182	0.5757	-0.203
Mof_O 	O 	0.16038	0.9263	0.4786	-0.237
Mof_O 	O 	0.12716	0.0156	0.5562	-0.571
Mof_O 	O 	0.28512	0.2579	0.7262	-0.241
Mof_O 	O 	0.32721	0.1938	0.6919	-0.241
Mof_O 	O 	0.01348	0.1113	0.4703	-0.216
Mof_O 	O 	0.97427	0.0164	0.4082	-0.189
Mof_O 	O 	0.02457	0.7455	0.1905	-0.228
Mof_O 	O 	0.98638	0.6402	0.1807	-0.152
Mof_N 	N 	0.01845	0.9345	0.4282	-0.193
Mof_N 	N 	0.01829	0.8389	0.3252	-0.177
Mof_N 	N 	0.11733	0.0999	0.4069	-0.203
Mof_N 	N 	0.20347	0.1922	0.4169	-0.205
Mof_N 	N 	0.18273	0.0923	0.4798	-0.195
Mof_N 	N 	0.29994	0.056	0.5322	-0.205
Mof_C 	C 	0.04004	0.948	0.4258	0.089
Mof_H 	H 	0.0475	0.9857	0.4619	0.042
Mof_C 	C 	0.00845	0.8797	0.3787	0.136
Mof_H 	H 	0.9933	0.8688	0.3816	0.03
Mof_C 	C 	0.03972	0.8537	0.3224	0.091
Mof_H 	H 	0.047	0.8254	0.2846	0.073
Mof_C 	C 	0.05185	0.9091	0.373	-0.045
Mof_C 	C 	0.07549	0.9263	0.366	0.201
Mof_C 	C 	0.08492	0.0043	0.3902	-0.211
Mof_H 	H 	0.0763	0.0462	0.413	0.116
Mof_C 	C 	0.10686	0.0214	0.3815	0.208
Mof_C 	C 	0.11941	0.9605	0.3474	-0.173
Mof_H 	H 	0.1343	0.9722	0.3407	0.182
Mof_C 	C 	0.11011	0.8838	0.3234	0.15
Mof_H 	H 	0.1187	0.8423	0.3002	0.104
Mof_C 	C 	0.08837	0.8658	0.3327	-0.155
Mof_H 	H 	0.0822	0.8119	0.3164	0.187
Mof_C 	C 	0.10604	0.1853	0.4133	1
Mof_C 	C 	0.08997	0.1988	0.3432	-1.403
Mof_H 	H 	0.0787	0.1536	0.3405	0.512
Mof_H 	H 	0.0979	0.1963	0.2979	0.49
Mof_H 	H 	0.0829	0.2554	0.3459	0.538
Mof_C 	C 	0.09511	0.188	0.4874	-1.437
Mof_H 	H 	0.0838	0.1433	0.4865	0.514
Mof_H 	H 	0.0884	0.2447	0.4929	0.564
Mof_H 	H 	0.1062	0.1778	0.5301	0.519
Mof_C 	C 	0.12379	0.2552	0.4165	-1.349
Mof_H 	H 	0.131	0.2541	0.3696	0.489
Mof_H 	H 	0.1347	0.2444	0.4596	0.449
Mof_H 	H 	0.117	0.3118	0.4223	0.476
Mof_C 	C 	0.221	0.1407	0.4273	0.091
Mof_H 	H 	0.2341	0.157	0.4065	0.027
Mof_C 	C 	0.18479	0.1663	0.4435	0.172
Mof_H 	H 	0.1723	0.203	0.4361	-0.029
Mof_C 	C 	0.20061	0.0417	0.493	0.071
Mof_H 	H 	0.1995	0.9894	0.5202	0.09
Mof_C 	C 	0.22068	0.0638	0.4677	-0.042
Mof_C 	C 	0.24091	0.0128	0.4857	0.157
Mof_C 	C 	0.26094	0.0548	0.4985	-0.177
Mof_H 	H 	0.2615	0.1158	0.4935	0.103
Mof_C 	C 	0.28025	0.0089	0.5185	0.172
Mof_C 	C 	0.27919	0.9192	0.5263	-0.168
Mof_H 	H 	0.2921	0.8869	0.541	0.122
Mof_C 	C 	0.25933	0.8785	0.5125	0.166
Mof_H 	H 	0.2588	0.8175	0.517	0.084
Mof_C 	C 	0.24016	0.9229	0.4924	-0.138
Mof_H 	H 	0.2266	0.893	0.4832	0.178
Mof_C 	C 	0.32295	0.0187	0.5355	0.996
Mof_C 	C 	0.32454	0.9653	0.4641	-1.464
Mof_H 	H 	0.3145	0.9162	0.4639	0.532
Mof_H 	H 	0.3206	0.0012	0.4195	0.524
Mof_H 	H 	0.3396	0.9442	0.4632	0.587
Mof_C 	C 	0.33894	0.0944	0.5351	-1.352
Mof_H 	H 	0.3359	0.1272	0.4881	0.481
Mof_H 	H 	0.3372	0.1321	0.5784	0.441
Mof_H 	H 	0.354	0.0726	0.5385	0.48
Mof_C 	C 	0.32821	0.9687	0.6091	-1.397
Mof_H 	H 	0.3179	0.9204	0.6109	0.506
Mof_H 	H 	0.3433	0.9464	0.6115	0.548
Mof_H 	H 	0.3268	0.007	0.6522	0.49
Mof_C 	C 	0.1787	0.9963	0.7501	1.196
Mof_C 	C 	0.16951	0.0513	0.6852	-0.192
Mof_C 	C 	0.16065	0.1313	0.7017	0.133
Mof_H 	H 	0.1598	0.1461	0.7532	0.101
Mof_C 	C 	0.15306	0.1902	0.6464	-0.13
Mof_C 	C 	0.14626	0.2789	0.6728	1.178
Mof_C 	C 	0.15498	0.7803	0.4566	0.92
Mof_C 	C 	0.14826	0.8648	0.4914	0.291
Mof_C 	C 	0.12988	0.8647	0.5328	-0.755
Mof_H 	H 	0.1231	0.811	0.5418	0.651
Mof_C 	C 	0.12124	0.9379	0.561	1.218
Mof_C 	C 	0.10109	0.9301	0.6042	-1.882
Mof_C 	C 	0.28161	0.2912	0.8513	0.547
Mof_C 	C 	0.29529	0.2552	0.7916	0.192
Mof_C 	C 	0.31625	0.2262	0.8131	-0.08
Mof_H 	H 	0.3212	0.2251	0.8655	0.195
Mof_C 	C 	0.33052	0.1986	0.7623	0.036
Mof_C 	C 	0.35381	0.1727	0.7933	0.948
Mof_C 	C 	0.02225	0.2318	0.4032	0.852
Mof_C 	C 	0.00763	0.1547	0.4119	-0
Mof_C 	C 	0.99018	0.1406	0.3573	0.05
Mof_H 	H 	0.9884	0.1791	0.3155	0.134
Mof_C 	C 	0.97515	0.0735	0.3597	-0.1
Mof_C 	C 	0.95706	0.0705	0.2936	1.085
Mof_C 	C 	0.05365	0.7019	0.1255	1.045
Mof_C 	C 	0.03075	0.6845	0.1496	-0.017
Mof_C 	C 	0.0196	0.6111	0.1265	0.03
Mof_H 	H 	0.0266	0.5702	0.0972	0.199
Mof_C 	C 	0.99832	0.5941	0.1445	0.053
Mof_C 	C 	0.9874	0.5018	0.1101	1.26
Mof_F 	F 	0.20163	0.9919	0.7515	-0.266
Mof_F 	F 	0.17453	0.02	0.8161	-0.766
Mof_F 	F 	0.1729	0.9206	0.7538	-1.24
Mof_F 	F 	0.19708	0.9604	0.7383	-0.183
Mof_F 	F 	0.18145	0.0425	0.8204	0.221
Mof_F 	F 	0.1646	0.9233	0.7495	0.728
Mof_F 	F 	0.1427	0.2769	0.743	-0.051
Mof_F 	F 	0.1332	0.3227	0.6209	-0.068
Mof_F 	F 	0.165	0.3285	0.6964	-0.48
Mof_F 	F 	0.1455	0.2933	0.7422	-0.079
Mof_F 	F 	0.1213	0.2691	0.6785	-0.151
Mof_F 	F 	0.1555	0.342	0.6477	-0.592
Mof_F 	F 	0.1564	0.2992	0.7433	-0.158
Mof_F 	F 	0.1662	0.3315	0.6619	0.403
Mof_F 	F 	0.1267	0.2989	0.6322	-0.278
Mof_F 	F 	0.1333	0.2804	0.7284	-0.249
Mof_F 	F 	0.1425	0.3387	0.6276	-0.079
Mof_F 	F 	0.15969	0.7917	0.3856	-0.383
Mof_F 	F 	0.169	0.7385	0.4968	0.091
Mof_F 	F 	0.14009	0.7148	0.4633	0.185
Mof_F 	F 	0.151	0.7117	0.4945	-0.495
Mof_F 	F 	0.1505	0.775	0.3863	-0.025
Mof_F 	F 	0.1759	0.7544	0.4899	-0.472
Mof_F 	F 	0.1384	0.7368	0.4234	-0.458
Mof_F 	F 	0.1781	0.7726	0.4647	0.014
Mof_F 	F 	0.105	0.9223	0.6717	0.163
Mof_F 	F 	0.0885	0.8618	0.5868	4.734
Mof_F 	F 	0.086	0.0007	0.5863	0.945
Mof_F 	F 	0.08405	0.9735	0.5704	-1.38
Mof_F 	F 	0.1065	0.9534	0.6776	-1.917
Mof_F 	F 	0.0955	0.8374	0.6075	-9.434
Mof_F 	F 	0.0978	0.8564	0.6349	6.467
Mof_F 	F 	0.0835	0.9401	0.5641	0.139
Mof_F 	F 	0.1025	0.9825	0.6671	1.447
Mof_F 	F 	0.25975	0.2629	0.8411	-0.932
Mof_F 	F 	0.2877	0.2642	0.9215	0.227
Mof_F 	F 	0.2801	0.3745	0.8522	1.247
Mof_F 	F 	0.2033	0.1457	0.1069	-0.421
Mof_F 	F 	0.2282	0.1322	0.1698	-2.147
Mof_F 	F 	0.2212	0.2683	0.0994	-0.628
Mof_F 	F 	0.2342	0.1697	0.1723	1.13
Mof_F 	F 	0.2352	0.2689	0.1373	0.5
Mof_F 	F 	0.2078	0.1936	0.0805	-0.305
Mof_F 	F 	0.3562	0.1674	0.8695	-0.398
Mof_F 	F 	0.3663	0.1471	0.753	-0.206
Mof_F 	F 	0.36697	0.2536	0.7846	-0.181
Mof_F 	F 	0.1408	0.307	0.1348	0.075
Mof_F 	F 	0.1418	0.4072	0.2277	0.161
Mof_F 	F 	0.1308	0.2874	0.2276	-0.276
Mof_F 	F 	0.1485	0.4307	0.2021	-0.359
Mof_F 	F 	0.1429	0.3686	0.1446	-0.078
Mof_F 	F 	0.1374	0.3882	0.2521	-0.281
Mof_F 	F 	0.018	0.2951	0.446	-0.093
Mof_F 	F 	0.0207	0.2634	0.3301	0.267
Mof_F 	F 	0.04356	0.2166	0.4239	-0.567
Mof_F 	F 	0.04293	0.2043	0.4008	0.104
Mof_F 	F 	0.021	0.2862	0.4654	-0.242
Mof_F 	F 	0.01625	0.2808	0.3446	-0.65
Mof_F 	F 	0.96317	0.0827	0.2271	-0.409
Mof_F 	F 	0.94629	0.9847	0.296	0.133
Mof_F 	F 	0.94112	0.1233	0.3031	-0.503
Mof_F 	F 	0.96781	0.051	0.2306	-0.165
Mof_F 	F 	0.94229	0.0205	0.2943	-0.729
Mof_F 	F 	0.9467	0.1549	0.2862	-0.1
Mof_F 	F 	0.05849	0.651	0.0677	-0.233
Mof_F 	F 	0.05742	0.7742	0.1058	-0.766
Mof_F 	F 	0.06754	0.6861	0.1929	-0.112
Mof_F 	F 	0.062	0.6326	0.0938	-0.218
Mof_F 	F 	0.05157	0.7812	0.0803	0.258
Mof_F 	F 	0.06845	0.7204	0.1794	-0.318
Mof_F 	F 	0.0043	0.4435	0.1158	-0.183
Mof_F 	F 	0.975	0.476	0.1621	-0.24
Mof_F 	F 	0.976	0.5186	0.0486	-0.32
Mof_F 	F 	0.9885	0.4551	0.1844	-0.177
Mof_F 	F 	0.9987	0.4646	0.0699	-0.392
Mof_F 	F 	0.9681	0.5102	0.1037	-0.355
Mof_Cu	Cu	0.65451	0.55627	0.52131	0.947
Mof_Cu	Cu	0.7927	0.69371	0.63561	0.893
Mof_O 	O 	0.63848	0.597	0.4201	-0.193
Mof_O 	O 	0.7982	0.6389	0.54008	-0.267
Mof_O 	O 	0.67086	0.5179	0.621	-0.141
Mof_O 	O 	0.65147	0.682	0.5757	-0.203
Mof_O 	O 	0.66038	0.4263	0.4786	-0.238
Mof_O 	O 	0.62716	0.5156	0.5562	-0.558
Mof_O 	O 	0.78512	0.7579	0.7262	-0.239
Mof_O 	O 	0.82721	0.6938	0.6919	-0.24
Mof_O 	O 	0.51348	0.6113	0.4703	-0.213
Mof_O 	O 	0.47427	0.5164	0.4082	-0.184
Mof_O 	O 	0.52457	0.2455	0.1905	-0.227
Mof_O 	O 	0.48638	0.1402	0.1807	-0.151
Mof_N 	N 	0.51845	0.4345	0.4282	-0.194
Mof_N 	N 	0.51829	0.3389	0.3252	-0.176
Mof_N 	N 	0.61733	0.5999	0.4069	-0.203
Mof_N 	N 	0.70347	0.6922	0.4169	-0.205
Mof_N 	N 	0.68273	0.5923	0.4798	-0.197
Mof_N 	N 	0.79994	0.556	0.5322	-0.21
Mof_C 	C 	0.54004	0.448	0.4258	0.086
Mof_H 	H 	0.5475	0.4857	0.4619	0.04
Mof_C 	C 	0.50845	0.3797	0.3787	0.135
Mof_H 	H 	0.4933	0.3688	0.3816	0.028
Mof_C 	C 	0.53972	0.3537	0.3224	0.089
Mof_H 	H 	0.547	0.3254	0.2846	0.073
Mof_C 	C 	0.55185	0.4091	0.373	-0.043
Mof_C 	C 	0.57549	0.4263	0.366	0.189
Mof_C 	C 	0.58492	0.5043	0.3902	-0.2
Mof_H 	H 	0.5763	0.5462	0.413	0.115
Mof_C 	C 	0.60686	0.5214	0.3815	0.216
Mof_C 	C 	0.61941	0.4605	0.3474	-0.186
Mof_H 	H 	0.6343	0.4722	0.3407	0.184
Mof_C 	C 	0.61011	0.3838	0.3234	0.152
Mof_H 	H 	0.6187	0.3423	0.3002	0.103
Mof_C 	C 	0.58837	0.3658	0.3327	-0.154
Mof_H 	H 	0.5822	0.3119	0.3164	0.186
Mof_C 	C 	0.60604	0.6853	0.4133	1.001
Mof_C 	C 	0.58997	0.6988	0.3432	-1.403
Mof_H 	H 	0.5787	0.6536	0.3405	0.512
Mof_H 	H 	0.5979	0.6963	0.2979	0.49
Mof_H 	H 	0.5829	0.7554	0.3459	0.538
Mof_C 	C 	0.59511	0.688	0.4874	-1.439
Mof_H 	H 	0.5838	0.6433	0.4865	0.516
Mof_H 	H 	0.5884	0.7447	0.4929	0.565
Mof_H 	H 	0.6062	0.6778	0.5301	0.52
Mof_C 	C 	0.62379	0.7552	0.4165	-1.35
Mof_H 	H 	0.631	0.7541	0.3696	0.49
Mof_H 	H 	0.6347	0.7444	0.4596	0.449
Mof_H 	H 	0.617	0.8118	0.4223	0.476
Mof_C 	C 	0.721	0.6407	0.4273	0.097
Mof_H 	H 	0.7341	0.657	0.4065	0.025
Mof_C 	C 	0.68479	0.6663	0.4435	0.174
Mof_H 	H 	0.6723	0.703	0.4361	-0.029
Mof_C 	C 	0.70061	0.5417	0.493	0.091
Mof_H 	H 	0.6995	0.4894	0.5202	0.078
Mof_C 	C 	0.72068	0.5638	0.4677	-0.054
Mof_C 	C 	0.74091	0.5128	0.4857	0.179
Mof_C 	C 	0.76094	0.5548	0.4985	-0.192
Mof_H 	H 	0.7615	0.6158	0.4935	0.108
Mof_C 	C 	0.78025	0.5089	0.5185	0.189
Mof_C 	C 	0.77919	0.4192	0.5263	-0.19
Mof_H 	H 	0.7921	0.3869	0.541	0.128
Mof_C 	C 	0.75933	0.3785	0.5125	0.185
Mof_H 	H 	0.7588	0.3175	0.517	0.077
Mof_C 	C 	0.74016	0.4229	0.4924	-0.162
Mof_H 	H 	0.7266	0.393	0.4832	0.186
Mof_C 	C 	0.82295	0.5187	0.5355	1.027
Mof_C 	C 	0.82454	0.4653	0.4641	-1.512
Mof_H 	H 	0.8145	0.4162	0.4639	0.544
Mof_H 	H 	0.8206	0.5012	0.4195	0.541
Mof_H 	H 	0.8396	0.4442	0.4632	0.599
Mof_C 	C 	0.83894	0.5944	0.5351	-1.378
Mof_H 	H 	0.8359	0.6272	0.4881	0.489
Mof_H 	H 	0.8372	0.6321	0.5784	0.449
Mof_H 	H 	0.854	0.5726	0.5385	0.488
Mof_C 	C 	0.82821	0.4687	0.6091	-1.442
Mof_H 	H 	0.8179	0.4204	0.6109	0.518
Mof_H 	H 	0.8433	0.4464	0.6115	0.56
Mof_H 	H 	0.8268	0.507	0.6522	0.506
Mof_C 	C 	0.6787	0.4963	0.7501	1.171
Mof_C 	C 	0.66951	0.5513	0.6852	-0.176
Mof_C 	C 	0.66065	0.6313	0.7017	0.126
Mof_H 	H 	0.6598	0.6461	0.7532	0.104
Mof_C 	C 	0.65306	0.6902	0.6464	-0.126
Mof_C 	C 	0.64626	0.7789	0.6728	1.176
Mof_C 	C 	0.65498	0.2803	0.4566	0.922
Mof_C 	C 	0.64826	0.3648	0.4914	0.286
Mof_C 	C 	0.62988	0.3647	0.5328	-0.744
Mof_H 	H 	0.6231	0.311	0.5418	0.645
Mof_C 	C 	0.62124	0.4379	0.561	1.196
Mof_C 	C 	0.60109	0.4301	0.6042	-1.859
Mof_C 	C 	0.78161	0.7912	0.8513	0.546
Mof_C 	C 	0.79529	0.7552	0.7916	0.193
Mof_C 	C 	0.81625	0.7262	0.8131	-0.08
Mof_H 	H 	0.8212	0.7251	0.8655	0.195
Mof_C 	C 	0.83052	0.6986	0.7623	0.037
Mof_C 	C 	0.85381	0.6727	0.7933	0.947
Mof_C 	C 	0.52225	0.7318	0.4032	0.852
Mof_C 	C 	0.50763	0.6547	0.4119	0
Mof_C 	C 	0.49018	0.6406	0.3573	0.049
Mof_H 	H 	0.4884	0.6791	0.3155	0.135
Mof_C 	C 	0.47515	0.5735	0.3597	-0.096
Mof_C 	C 	0.45706	0.5705	0.2936	1.077
Mof_C 	C 	0.55365	0.2019	0.1255	1.045
Mof_C 	C 	0.53075	0.1845	0.1496	-0.017
Mof_C 	C 	0.5196	0.1111	0.1265	0.03
Mof_H 	H 	0.5266	0.0702	0.0972	0.198
Mof_C 	C 	0.49832	0.0941	0.1445	0.053
Mof_C 	C 	0.4874	0.0018	0.1101	1.254
Mof_F 	F 	0.70163	0.4919	0.7515	-0.268
Mof_F 	F 	0.67453	0.52	0.8161	-0.748
Mof_F 	F 	0.6729	0.4206	0.7538	-1.207
Mof_F 	F 	0.69708	0.4604	0.7383	-0.181
Mof_F 	F 	0.68145	0.5425	0.8204	0.213
Mof_F 	F 	0.6646	0.4233	0.7495	0.698
Mof_F 	F 	0.6427	0.7769	0.743	-0.051
Mof_F 	F 	0.6332	0.8227	0.6209	-0.069
Mof_F 	F 	0.665	0.8285	0.6964	-0.477
Mof_F 	F 	0.6455	0.7933	0.7422	-0.079
Mof_F 	F 	0.6213	0.7691	0.6785	-0.15
Mof_F 	F 	0.6555	0.842	0.6477	-0.591
Mof_F 	F 	0.6564	0.7992	0.7433	-0.158
Mof_F 	F 	0.6662	0.8315	0.6619	0.4
Mof_F 	F 	0.6267	0.7989	0.6322	-0.277
Mof_F 	F 	0.6333	0.7804	0.7284	-0.249
Mof_F 	F 	0.6425	0.8387	0.6276	-0.079
Mof_F 	F 	0.65969	0.2917	0.3856	-0.384
Mof_F 	F 	0.669	0.2385	0.4968	0.091
Mof_F 	F 	0.64009	0.2148	0.4633	0.185
Mof_F 	F 	0.651	0.2117	0.4945	-0.497
Mof_F 	F 	0.6505	0.275	0.3863	-0.024
Mof_F 	F 	0.6759	0.2544	0.4899	-0.473
Mof_F 	F 	0.6384	0.2368	0.4234	-0.459
Mof_F 	F 	0.6781	0.2726	0.4647	0.014
Mof_F 	F 	0.605	0.4223	0.6717	0.165
Mof_F 	F 	0.5885	0.3618	0.5868	4.705
Mof_F 	F 	0.586	0.5007	0.5863	0.932
Mof_F 	F 	0.58405	0.4735	0.5704	-1.348
Mof_F 	F 	0.6065	0.4534	0.6776	-1.912
Mof_F 	F 	0.5955	0.3374	0.6075	-9.372
Mof_F 	F 	0.5978	0.3564	0.6349	6.42
Mof_F 	F 	0.5835	0.4401	0.5641	0.112
Mof_F 	F 	0.6025	0.4825	0.6671	1.435
Mof_F 	F 	0.75975	0.7629	0.8411	-0.932
Mof_F 	F 	0.7877	0.7642	0.9215	0.228
Mof_F 	F 	0.7801	0.8745	0.8522	1.248
Mof_F 	F 	0.7033	0.6457	0.1069	-0.421
Mof_F 	F 	0.7282	0.6322	0.1698	-2.147
Mof_F 	F 	0.7212	0.7683	0.0994	-0.628
Mof_F 	F 	0.7342	0.6697	0.1723	1.13
Mof_F 	F 	0.7352	0.7689	0.1373	0.501
Mof_F 	F 	0.7078	0.6936	0.0805	-0.305
Mof_F 	F 	0.8562	0.6674	0.8695	-0.397
Mof_F 	F 	0.8663	0.6471	0.753	-0.205
Mof_F 	F 	0.86697	0.7536	0.7846	-0.181
Mof_F 	F 	0.6408	0.807	0.1348	0.075
Mof_F 	F 	0.6418	0.9072	0.2277	0.161
Mof_F 	F 	0.6308	0.7874	0.2276	-0.276
Mof_F 	F 	0.6485	0.9307	0.2021	-0.358
Mof_F 	F 	0.6429	0.8686	0.1446	-0.077
Mof_F 	F 	0.6374	0.8882	0.2521	-0.282
Mof_F 	F 	0.518	0.7951	0.446	-0.094
Mof_F 	F 	0.5207	0.7634	0.3301	0.272
Mof_F 	F 	0.54356	0.7166	0.4239	-0.566
Mof_F 	F 	0.54293	0.7043	0.4008	0.104
Mof_F 	F 	0.521	0.7862	0.4654	-0.241
Mof_F 	F 	0.51625	0.7808	0.3446	-0.654
Mof_F 	F 	0.46317	0.5827	0.2271	-0.413
Mof_F 	F 	0.44629	0.4847	0.296	0.092
Mof_F 	F 	0.44112	0.6233	0.3031	-0.509
Mof_F 	F 	0.46781	0.551	0.2306	-0.156
Mof_F 	F 	0.44229	0.5205	0.2943	-0.688
Mof_F 	F 	0.4467	0.6549	0.2862	-0.096
Mof_F 	F 	0.55849	0.151	0.0677	-0.232
Mof_F 	F 	0.55742	0.2742	0.1058	-0.766
Mof_F 	F 	0.56754	0.1861	0.1929	-0.113
Mof_F 	F 	0.562	0.1326	0.0938	-0.219
Mof_F 	F 	0.55157	0.2812	0.0803	0.257
Mof_F 	F 	0.56845	0.2204	0.1794	-0.318
Mof_F 	F 	0.5043	0.9435	0.1158	-0.182
Mof_F 	F 	0.475	0.976	0.1621	-0.237
Mof_F 	F 	0.476	0.0186	0.0486	-0.32
Mof_F 	F 	0.4885	0.9551	0.1844	-0.177
Mof_F 	F 	0.4987	0.9646	0.0699	-0.39
Mof_F 	F 	0.4681	0.0102	0.1037	-0.355
Mof_Cu	Cu	0.84549	0.05627	0.97869	0.949
Mof_Cu	Cu	0.7073	0.19371	0.86439	0.893
Mof_O 	O 	0.86152	0.097	0.0799	-0.198
Mof_O 	O 	0.7018	0.1389	0.95992	-0.263
Mof_O 	O 	0.82914	0.0179	0.879	-0.139
Mof_O 	O 	0.84853	0.182	0.9243	-0.198
Mof_O 	O 	0.83962	0.9263	0.0214	-0.237
Mof_O 	O 	0.87284	0.0156	0.9438	-0.567
Mof_O 	O 	0.71488	0.2579	0.7738	-0.239
Mof_O 	O 	0.67279	0.1938	0.8081	-0.239
Mof_O 	O 	0.98652	0.1113	0.0297	-0.219
Mof_O 	O 	0.02573	0.0164	0.0918	-0.19
Mof_O 	O 	0.97543	0.7455	0.3095	-0.226
Mof_O 	O 	0.01362	0.6402	0.3193	-0.15
Mof_N 	N 	0.98155	0.9345	0.0718	-0.194
Mof_N 	N 	0.98171	0.8389	0.1748	-0.177
Mof_N 	N 	0.88267	0.0999	0.0931	-0.204
Mof_N 	N 	0.79653	0.1922	0.0831	-0.204
Mof_N 	N 	0.81727	0.0923	0.0202	-0.194
Mof_N 	N 	0.70006	0.056	0.9678	-0.206
Mof_C 	C 	0.95996	0.948	0.0742	0.089
Mof_H 	H 	0.9525	0.9857	0.0381	0.04
Mof_C 	C 	0.99155	0.8797	0.1213	0.136
Mof_H 	H 	0.0067	0.8688	0.1184	0.028
Mof_C 	C 	0.96028	0.8537	0.1776	0.09
Mof_H 	H 	0.953	0.8254	0.2154	0.073
Mof_C 	C 	0.94815	0.9091	0.127	-0.046
Mof_C 	C 	0.92451	0.9263	0.134	0.199
Mof_C 	C 	0.91508	0.0043	0.1098	-0.211
Mof_H 	H 	0.9237	0.0462	0.087	0.115
Mof_C 	C 	0.89314	0.0214	0.1185	0.207
Mof_C 	C 	0.88059	0.9605	0.1526	-0.173
Mof_H 	H 	0.8657	0.9722	0.1593	0.182
Mof_C 	C 	0.88989	0.8838	0.1766	0.149
Mof_H 	H 	0.8813	0.8423	0.1998	0.104
Mof_C 	C 	0.91163	0.8658	0.1673	-0.156
Mof_H 	H 	0.9178	0.8119	0.1836	0.186
Mof_C 	C 	0.89396	0.1853	0.0867	1.01
Mof_C 	C 	0.91003	0.1988	0.1568	-1.411
Mof_H 	H 	0.9213	0.1536	0.1595	0.514
Mof_H 	H 	0.9021	0.1963	0.2021	0.493
Mof_H 	H 	0.9171	0.2554	0.1541	0.54
Mof_C 	C 	0.90489	0.188	0.0126	-1.471
Mof_H 	H 	0.9162	0.1433	0.0135	0.521
Mof_H 	H 	0.9116	0.2447	0.0071	0.57
Mof_H 	H 	0.8938	0.1778	0.9699	0.536
Mof_C 	C 	0.87621	0.2552	0.0835	-1.354
Mof_H 	H 	0.869	0.2541	0.1304	0.491
Mof_H 	H 	0.8653	0.2444	0.0404	0.447
Mof_H 	H 	0.883	0.3118	0.0777	0.476
Mof_C 	C 	0.779	0.1407	0.0727	0.091
Mof_H 	H 	0.7659	0.157	0.0935	0.025
Mof_C 	C 	0.81521	0.1663	0.0565	0.171
Mof_H 	H 	0.8277	0.203	0.0639	-0.03
Mof_C 	C 	0.79939	0.0417	0.007	0.055
Mof_H 	H 	0.8005	0.9894	0.9798	0.103
Mof_C 	C 	0.77932	0.0638	0.0323	-0.044
Mof_C 	C 	0.75909	0.0128	0.0143	0.174
Mof_C 	C 	0.73906	0.0548	0.0015	-0.207
Mof_H 	H 	0.7385	0.1158	0.0065	0.109
Mof_C 	C 	0.71975	0.0089	0.9815	0.198
Mof_C 	C 	0.72081	0.9192	0.9737	-0.193
Mof_H 	H 	0.7079	0.8869	0.959	0.133
Mof_C 	C 	0.74067	0.8785	0.9875	0.204
Mof_H 	H 	0.7412	0.8175	0.983	0.074
Mof_C 	C 	0.75984	0.9229	0.0076	-0.173
Mof_H 	H 	0.7734	0.893	0.0168	0.187
Mof_C 	C 	0.67705	0.0187	0.9645	0.998
Mof_C 	C 	0.67546	0.9653	0.0359	-1.474
Mof_H 	H 	0.6855	0.9162	0.0361	0.53
Mof_H 	H 	0.6794	0.0012	0.0805	0.525
Mof_H 	H 	0.6604	0.9442	0.0368	0.586
Mof_C 	C 	0.66106	0.0944	0.9649	-1.32
Mof_H 	H 	0.6641	0.1272	0.0119	0.464
Mof_H 	H 	0.6628	0.1321	0.9216	0.433
Mof_H 	H 	0.646	0.0726	0.9615	0.473
Mof_C 	C 	0.67179	0.9687	0.8909	-1.398
Mof_H 	H 	0.6821	0.9204	0.8891	0.507
Mof_H 	H 	0.6567	0.9464	0.8885	0.549
Mof_H 	H 	0.6732	0.007	0.8478	0.49
Mof_C 	C 	0.8213	0.9963	0.7499	1.196
Mof_C 	C 	0.83049	0.0513	0.8148	-0.193
Mof_C 	C 	0.83935	0.1313	0.7983	0.135
Mof_H 	H 	0.8402	0.1461	0.7468	0.1
Mof_C 	C 	0.84694	0.1902	0.8536	-0.131
Mof_C 	C 	0.85374	0.2789	0.8272	1.178
Mof_C 	C 	0.84502	0.7803	0.0434	0.925
Mof_C 	C 	0.85174	0.8648	0.0086	0.275
Mof_C 	C 	0.87012	0.8647	0.9672	-0.738
Mof_H 	H 	0.8769	0.811	0.9582	0.649
Mof_C 	C 	0.87876	0.9379	0.939	1.215
Mof_C 	C 	0.89891	0.9301	0.8958	-1.886
Mof_C 	C 	0.71839	0.2912	0.6487	0.547
Mof_C 	C 	0.70471	0.2552	0.7084	0.191
Mof_C 	C 	0.68375	0.2262	0.6869	-0.078
Mof_H 	H 	0.6788	0.2251	0.6345	0.192
Mof_C 	C 	0.66948	0.1986	0.7377	0.035
Mof_C 	C 	0.64619	0.1727	0.7067	0.949
Mof_C 	C 	0.97775	0.2318	0.0968	0.853
Mof_C 	C 	0.99237	0.1547	0.0881	-0
Mof_C 	C 	0.00982	0.1406	0.1427	0.048
Mof_H 	H 	0.0116	0.1791	0.1845	0.135
Mof_C 	C 	0.02485	0.0735	0.1403	-0.099
Mof_C 	C 	0.04294	0.0705	0.2064	1.085
Mof_C 	C 	0.94635	0.7019	0.3745	1.046
Mof_C 	C 	0.96925	0.6845	0.3504	-0.016
Mof_C 	C 	0.9804	0.6111	0.3735	0.031
Mof_H 	H 	0.9734	0.5702	0.4028	0.2
Mof_C 	C 	0.00168	0.5941	0.3555	0.054
Mof_C 	C 	0.0126	0.5018	0.3899	1.259
Mof_F 	F 	0.79837	0.9919	0.7485	-0.266
Mof_F 	F 	0.82547	0.02	0.6839	-0.766
Mof_F 	F 	0.8271	0.9206	0.7462	-1.24
Mof_F 	F 	0.80292	0.9604	0.7617	-0.183
Mof_F 	F 	0.81855	0.0425	0.6796	0.221
Mof_F 	F 	0.8354	0.9233	0.7505	0.728
Mof_F 	F 	0.8573	0.2769	0.757	-0.052
Mof_F 	F 	0.8668	0.3227	0.8791	-0.066
Mof_F 	F 	0.835	0.3285	0.8036	-0.482
Mof_F 	F 	0.8545	0.2933	0.7578	-0.079
Mof_F 	F 	0.8787	0.2691	0.8215	-0.15
Mof_F 	F 	0.8445	0.342	0.8523	-0.594
Mof_F 	F 	0.8436	0.2992	0.7567	-0.157
Mof_F 	F 	0.8338	0.3315	0.8381	0.407
Mof_F 	F 	0.8733	0.2989	0.8678	-0.279
Mof_F 	F 	0.8667	0.2804	0.7716	-0.249
Mof_F 	F 	0.8575	0.3387	0.8724	-0.078
Mof_F 	F 	0.84031	0.7917	0.1144	-0.384
Mof_F 	F 	0.831	0.7385	0.0032	0.089
Mof_F 	F 	0.85991	0.7148	0.0367	0.185
Mof_F 	F 	0.849	0.7117	0.0055	-0.5
Mof_F 	F 	0.8495	0.775	0.1137	-0.025
Mof_F 	F 	0.8241	0.7544	0.0101	-0.474
Mof_F 	F 	0.8616	0.7368	0.0766	-0.46
Mof_F 	F 	0.8219	0.7726	0.0353	0.013
Mof_F 	F 	0.895	0.9223	0.8283	0.163
Mof_F 	F 	0.9115	0.8618	0.9132	4.746
Mof_F 	F 	0.914	0.0007	0.9137	0.947
Mof_F 	F 	0.91595	0.9735	0.9296	-1.381
Mof_F 	F 	0.8935	0.9534	0.8224	-1.92
Mof_F 	F 	0.9045	0.8374	0.8925	-9.453
Mof_F 	F 	0.9022	0.8564	0.8651	6.48
Mof_F 	F 	0.9165	0.9401	0.9359	0.14
Mof_F 	F 	0.8975	0.9825	0.8329	1.45
Mof_F 	F 	0.74025	0.2629	0.6589	-0.933
Mof_F 	F 	0.7123	0.2642	0.5785	0.225
Mof_F 	F 	0.7199	0.3745	0.6478	1.25
Mof_F 	F 	0.7967	0.1457	0.3931	-0.419
Mof_F 	F 	0.7718	0.1322	0.3302	-2.143
Mof_F 	F 	0.7788	0.2683	0.4006	-0.627
Mof_F 	F 	0.7658	0.1697	0.3277	1.127
Mof_F 	F 	0.7648	0.2689	0.3627	0.5
Mof_F 	F 	0.7922	0.1936	0.4195	-0.304
Mof_F 	F 	0.6438	0.1674	0.6305	-0.399
Mof_F 	F 	0.6337	0.1471	0.747	-0.206
Mof_F 	F 	0.63303	0.2536	0.7154	-0.181
Mof_F 	F 	0.8592	0.307	0.3652	0.076
Mof_F 	F 	0.8582	0.4072	0.2723	0.161
Mof_F 	F 	0.8692	0.2874	0.2724	-0.276
Mof_F 	F 	0.8515	0.4307	0.2979	-0.358
Mof_F 	F 	0.8571	0.3686	0.3554	-0.077
Mof_F 	F 	0.8626	0.3882	0.2479	-0.281
Mof_F 	F 	0.982	0.2951	0.054	-0.103
Mof_F 	F 	0.9793	0.2634	0.1699	0.28
Mof_F 	F 	0.95644	0.2166	0.0761	-0.555
Mof_F 	F 	0.95707	0.2043	0.0992	0.089
Mof_F 	F 	0.979	0.2862	0.0346	-0.235
Mof_F 	F 	0.98375	0.2808	0.1554	-0.663
Mof_F 	F 	0.03683	0.0827	0.2729	-0.408
Mof_F 	F 	0.05371	0.9847	0.204	0.132
Mof_F 	F 	0.05888	0.1233	0.1969	-0.503
Mof_F 	F 	0.03219	0.051	0.2694	-0.165
Mof_F 	F 	0.05771	0.0205	0.2057	-0.728
Mof_F 	F 	0.0533	0.1549	0.2138	-0.101
Mof_F 	F 	0.94151	0.651	0.4323	-0.228
Mof_F 	F 	0.94258	0.7742	0.3942	-0.77
Mof_F 	F 	0.93246	0.6861	0.3071	-0.113
Mof_F 	F 	0.938	0.6326	0.4062	-0.22
Mof_F 	F 	0.94843	0.7812	0.4197	0.264
Mof_F 	F 	0.93155	0.7204	0.3206	-0.316
Mof_F 	F 	0.9957	0.4435	0.3842	-0.183
Mof_F 	F 	0.025	0.476	0.3379	-0.239
Mof_F 	F 	0.024	0.5186	0.4514	-0.316
Mof_F 	F 	0.0115	0.4551	0.3156	-0.178
Mof_F 	F 	0.0013	0.4646	0.4301	-0.39
Mof_F 	F 	0.0319	0.5102	0.3963	-0.354
Mof_Cu	Cu	0.34549	0.55627	0.97869	0.951
Mof_Cu	Cu	0.2073	0.69371	0.86439	0.893
Mof_O 	O 	0.36152	0.597	0.0799	-0.196
Mof_O 	O 	0.2018	0.6389	0.95992	-0.263
Mof_O 	O 	0.32914	0.5179	0.879	-0.139
Mof_O 	O 	0.34853	0.682	0.9243	-0.199
Mof_O 	O 	0.33962	0.4263	0.0214	-0.239
Mof_O 	O 	0.37284	0.5156	0.9438	-0.554
Mof_O 	O 	0.21488	0.7579	0.7738	-0.239
Mof_O 	O 	0.17279	0.6938	0.8081	-0.239
Mof_O 	O 	0.48652	0.6113	0.0297	-0.217
Mof_O 	O 	0.52573	0.5164	0.0918	-0.187
Mof_O 	O 	0.47543	0.2455	0.3095	-0.227
Mof_O 	O 	0.51362	0.1402	0.3193	-0.151
Mof_N 	N 	0.48155	0.4345	0.0718	-0.196
Mof_N 	N 	0.48171	0.3389	0.1748	-0.176
Mof_N 	N 	0.38267	0.5999	0.0931	-0.205
Mof_N 	N 	0.29653	0.6922	0.0831	-0.206
Mof_N 	N 	0.31727	0.5923	0.0202	-0.197
Mof_N 	N 	0.20006	0.556	0.9678	-0.212
Mof_C 	C 	0.45996	0.448	0.0742	0.086
Mof_H 	H 	0.4525	0.4857	0.0381	0.037
Mof_C 	C 	0.49155	0.3797	0.1213	0.134
Mof_H 	H 	0.5067	0.3688	0.1184	0.027
Mof_C 	C 	0.46028	0.3537	0.1776	0.088
Mof_H 	H 	0.453	0.3254	0.2154	0.073
Mof_C 	C 	0.44815	0.4091	0.127	-0.044
Mof_C 	C 	0.42451	0.4263	0.134	0.188
Mof_C 	C 	0.41508	0.5043	0.1098	-0.2
Mof_H 	H 	0.4237	0.5462	0.087	0.113
Mof_C 	C 	0.39314	0.5214	0.1185	0.215
Mof_C 	C 	0.38059	0.4605	0.1526	-0.187
Mof_H 	H 	0.3657	0.4722	0.1593	0.184
Mof_C 	C 	0.38989	0.3838	0.1766	0.152
Mof_H 	H 	0.3813	0.3423	0.1998	0.103
Mof_C 	C 	0.41163	0.3658	0.1673	-0.154
Mof_H 	H 	0.4178	0.3119	0.1836	0.186
Mof_C 	C 	0.39396	0.6853	0.0867	1.011
Mof_C 	C 	0.41003	0.6988	0.1568	-1.412
Mof_H 	H 	0.4213	0.6536	0.1595	0.514
Mof_H 	H 	0.4021	0.6963	0.2021	0.492
Mof_H 	H 	0.4171	0.7554	0.1541	0.54
Mof_C 	C 	0.40489	0.688	0.0126	-1.474
Mof_H 	H 	0.4162	0.6433	0.0135	0.523
Mof_H 	H 	0.4116	0.7447	0.0071	0.571
Mof_H 	H 	0.3938	0.6778	0.9699	0.537
Mof_C 	C 	0.37621	0.7552	0.0835	-1.356
Mof_H 	H 	0.369	0.7541	0.1304	0.491
Mof_H 	H 	0.3653	0.7444	0.0404	0.448
Mof_H 	H 	0.383	0.8118	0.0777	0.476
Mof_C 	C 	0.279	0.6407	0.0727	0.097
Mof_H 	H 	0.2659	0.657	0.0935	0.023
Mof_C 	C 	0.31521	0.6663	0.0565	0.173
Mof_H 	H 	0.3277	0.703	0.0639	-0.03
Mof_C 	C 	0.29939	0.5417	0.007	0.074
Mof_H 	H 	0.3005	0.4894	0.9798	0.092
Mof_C 	C 	0.27932	0.5638	0.0323	-0.056
Mof_C 	C 	0.25909	0.5128	0.0143	0.195
Mof_C 	C 	0.23906	0.5548	0.0015	-0.222
Mof_H 	H 	0.2385	0.6158	0.0065	0.114
Mof_C 	C 	0.21975	0.5089	0.9815	0.215
Mof_C 	C 	0.22081	0.4192	0.9737	-0.215
Mof_H 	H 	0.2079	0.3869	0.959	0.138
Mof_C 	C 	0.24067	0.3785	0.9875	0.223
Mof_H 	H 	0.2412	0.3175	0.983	0.068
Mof_C 	C 	0.25984	0.4229	0.0076	-0.197
Mof_H 	H 	0.2734	0.393	0.0168	0.194
Mof_C 	C 	0.17705	0.5187	0.9645	1.029
Mof_C 	C 	0.17546	0.4653	0.0359	-1.522
Mof_H 	H 	0.1855	0.4162	0.0361	0.542
Mof_H 	H 	0.1794	0.5012	0.0805	0.542
Mof_H 	H 	0.1604	0.4442	0.0368	0.599
Mof_C 	C 	0.16106	0.5944	0.9649	-1.347
Mof_H 	H 	0.1641	0.6272	0.0119	0.472
Mof_H 	H 	0.1628	0.6321	0.9216	0.44
Mof_H 	H 	0.146	0.5726	0.9615	0.482
Mof_C 	C 	0.17179	0.4687	0.8909	-1.442
Mof_H 	H 	0.1821	0.4204	0.8891	0.518
Mof_H 	H 	0.1567	0.4464	0.8885	0.561
Mof_H 	H 	0.1732	0.507	0.8478	0.505
Mof_C 	C 	0.3213	0.4963	0.7499	1.171
Mof_C 	C 	0.33049	0.5513	0.8148	-0.177
Mof_C 	C 	0.33935	0.6313	0.7983	0.128
Mof_H 	H 	0.3402	0.6461	0.7468	0.104
Mof_C 	C 	0.34694	0.6902	0.8536	-0.127
Mof_C 	C 	0.35374	0.7789	0.8272	1.177
Mof_C 	C 	0.34502	0.2803	0.0434	0.927
Mof_C 	C 	0.35174	0.3648	0.0086	0.27
Mof_C 	C 	0.37012	0.3647	0.9672	-0.726
Mof_H 	H 	0.3769	0.311	0.9582	0.643
Mof_C 	C 	0.37876	0.4379	0.939	1.193
Mof_C 	C 	0.39891	0.4301	0.8958	-1.863
Mof_C 	C 	0.21839	0.7912	0.6487	0.546
Mof_C 	C 	0.20471	0.7552	0.7084	0.192
Mof_C 	C 	0.18375	0.7262	0.6869	-0.078
Mof_H 	H 	0.1788	0.7251	0.6345	0.193
Mof_C 	C 	0.16948	0.6986	0.7377	0.036
Mof_C 	C 	0.14619	0.6727	0.7067	0.948
Mof_C 	C 	0.47775	0.7318	0.0968	0.854
Mof_C 	C 	0.49237	0.6547	0.0881	0
Mof_C 	C 	0.50982	0.6406	0.1427	0.048
Mof_H 	H 	0.5116	0.6791	0.1845	0.135
Mof_C 	C 	0.52485	0.5735	0.1403	-0.096
Mof_C 	C 	0.54294	0.5705	0.2064	1.077
Mof_C 	C 	0.44635	0.2019	0.3745	1.046
Mof_C 	C 	0.46925	0.1845	0.3504	-0.016
Mof_C 	C 	0.4804	0.1111	0.3735	0.03
Mof_H 	H 	0.4734	0.0702	0.4028	0.2
Mof_C 	C 	0.50168	0.0941	0.3555	0.055
Mof_C 	C 	0.5126	0.0018	0.3899	1.253
Mof_F 	F 	0.29837	0.4919	0.7485	-0.268
Mof_F 	F 	0.32547	0.52	0.6839	-0.748
Mof_F 	F 	0.3271	0.4206	0.7462	-1.208
Mof_F 	F 	0.30292	0.4604	0.7617	-0.181
Mof_F 	F 	0.31855	0.5425	0.6796	0.213
Mof_F 	F 	0.3354	0.4233	0.7505	0.698
Mof_F 	F 	0.3573	0.7769	0.757	-0.051
Mof_F 	F 	0.3668	0.8227	0.8791	-0.067
Mof_F 	F 	0.335	0.8285	0.8036	-0.48
Mof_F 	F 	0.3545	0.7933	0.7578	-0.079
Mof_F 	F 	0.3787	0.7691	0.8215	-0.15
Mof_F 	F 	0.3445	0.842	0.8523	-0.592
Mof_F 	F 	0.3436	0.7992	0.7567	-0.157
Mof_F 	F 	0.3338	0.8315	0.8381	0.404
Mof_F 	F 	0.3733	0.7989	0.8678	-0.278
Mof_F 	F 	0.3667	0.7804	0.7716	-0.248
Mof_F 	F 	0.3575	0.8387	0.8724	-0.078
Mof_F 	F 	0.34031	0.2917	0.1144	-0.385
Mof_F 	F 	0.331	0.2385	0.0032	0.089
Mof_F 	F 	0.35991	0.2148	0.0367	0.185
Mof_F 	F 	0.349	0.2117	0.0055	-0.501
Mof_F 	F 	0.3495	0.275	0.1137	-0.025
Mof_F 	F 	0.3241	0.2544	0.0101	-0.475
Mof_F 	F 	0.3616	0.2368	0.0766	-0.461
Mof_F 	F 	0.3219	0.2726	0.0353	0.013
Mof_F 	F 	0.395	0.4223	0.8283	0.165
Mof_F 	F 	0.4115	0.3618	0.9132	4.716
Mof_F 	F 	0.414	0.5007	0.9137	0.933
Mof_F 	F 	0.41595	0.4735	0.9296	-1.348
Mof_F 	F 	0.3935	0.4534	0.8224	-1.914
Mof_F 	F 	0.4045	0.3374	0.8925	-9.389
Mof_F 	F 	0.4022	0.3564	0.8651	6.432
Mof_F 	F 	0.4165	0.4401	0.9359	0.113
Mof_F 	F 	0.3975	0.4825	0.8329	1.438
Mof_F 	F 	0.24025	0.7629	0.6589	-0.933
Mof_F 	F 	0.2123	0.7642	0.5785	0.226
Mof_F 	F 	0.2199	0.8745	0.6478	1.25
Mof_F 	F 	0.2967	0.6457	0.3931	-0.419
Mof_F 	F 	0.2718	0.6322	0.3302	-2.142
Mof_F 	F 	0.2788	0.7683	0.4006	-0.626
Mof_F 	F 	0.2658	0.6697	0.3277	1.128
Mof_F 	F 	0.2648	0.7689	0.3627	0.501
Mof_F 	F 	0.2922	0.6936	0.4195	-0.304
Mof_F 	F 	0.1438	0.6674	0.6305	-0.398
Mof_F 	F 	0.1337	0.6471	0.747	-0.205
Mof_F 	F 	0.13303	0.7536	0.7154	-0.181
Mof_F 	F 	0.3592	0.807	0.3652	0.075
Mof_F 	F 	0.3582	0.9072	0.2723	0.161
Mof_F 	F 	0.3692	0.7874	0.2724	-0.276
Mof_F 	F 	0.3515	0.9307	0.2979	-0.357
Mof_F 	F 	0.3571	0.8686	0.3554	-0.077
Mof_F 	F 	0.3626	0.8882	0.2479	-0.282
Mof_F 	F 	0.482	0.7951	0.054	-0.104
Mof_F 	F 	0.4793	0.7634	0.1699	0.286
Mof_F 	F 	0.45644	0.7166	0.0761	-0.554
Mof_F 	F 	0.45707	0.7043	0.0992	0.089
Mof_F 	F 	0.479	0.7862	0.0346	-0.235
Mof_F 	F 	0.48375	0.7808	0.1554	-0.668
Mof_F 	F 	0.53683	0.5827	0.2729	-0.413
Mof_F 	F 	0.55371	0.4847	0.204	0.091
Mof_F 	F 	0.55888	0.6233	0.1969	-0.509
Mof_F 	F 	0.53219	0.551	0.2694	-0.156
Mof_F 	F 	0.55771	0.5205	0.2057	-0.688
Mof_F 	F 	0.5533	0.6549	0.2138	-0.097
Mof_F 	F 	0.44151	0.151	0.4323	-0.228
Mof_F 	F 	0.44258	0.2742	0.3942	-0.77
Mof_F 	F 	0.43246	0.1861	0.3071	-0.113
Mof_F 	F 	0.438	0.1326	0.4062	-0.221
Mof_F 	F 	0.44843	0.2812	0.4197	0.263
Mof_F 	F 	0.43155	0.2204	0.3206	-0.316
Mof_F 	F 	0.4957	0.9435	0.3842	-0.182
Mof_F 	F 	0.525	0.976	0.3379	-0.236
Mof_F 	F 	0.524	0.0186	0.4514	-0.316
Mof_F 	F 	0.5115	0.9551	0.3156	-0.177
Mof_F 	F 	0.5013	0.9646	0.4301	-0.387
Mof_F 	F 	0.5319	0.0102	0.3963	-0.354
Mof_Cu	Cu	0.84549	0.94373	0.47869	0.948
Mof_Cu	Cu	0.7073	0.80629	0.36439	0.893
Mof_O 	O 	0.86152	0.903	0.5799	-0.191
Mof_O 	O 	0.7018	0.8611	0.45992	-0.267
Mof_O 	O 	0.82914	0.9821	0.379	-0.14
Mof_O 	O 	0.84853	0.818	0.4243	-0.204
Mof_O 	O 	0.83962	0.0737	0.5214	-0.24
Mof_O 	O 	0.87284	0.9844	0.4438	-0.546
Mof_O 	O 	0.71488	0.7421	0.2738	-0.239
Mof_O 	O 	0.67279	0.8062	0.3081	-0.241
Mof_O 	O 	0.98652	0.8887	0.5297	-0.209
Mof_O 	O 	0.02573	0.9836	0.5918	-0.179
Mof_O 	O 	0.97543	0.2545	0.8095	-0.226
Mof_O 	O 	0.01362	0.3598	0.8193	-0.15
Mof_N 	N 	0.98155	0.0655	0.5718	-0.195
Mof_N 	N 	0.98171	0.1611	0.6748	-0.176
Mof_N 	N 	0.88267	0.9001	0.5931	-0.204
Mof_N 	N 	0.79653	0.8078	0.5831	-0.207
Mof_N 	N 	0.81727	0.9077	0.5202	-0.199
Mof_N 	N 	0.70006	0.944	0.4678	-0.215
Mof_C 	C 	0.95996	0.052	0.5742	0.083
Mof_H 	H 	0.9525	0.0143	0.5381	0.038
Mof_C 	C 	0.99155	0.1203	0.6213	0.134
Mof_H 	H 	0.0067	0.1312	0.6184	0.028
Mof_C 	C 	0.96028	0.1463	0.6776	0.086
Mof_H 	H 	0.953	0.1746	0.7154	0.075
Mof_C 	C 	0.94815	0.0909	0.627	-0.04
Mof_C 	C 	0.92451	0.0737	0.634	0.178
Mof_C 	C 	0.91508	0.9957	0.6098	-0.187
Mof_H 	H 	0.9237	0.9538	0.587	0.113
Mof_C 	C 	0.89314	0.9786	0.6185	0.224
Mof_C 	C 	0.88059	0.0395	0.6526	-0.2
Mof_H 	H 	0.8657	0.0278	0.6593	0.185
Mof_C 	C 	0.88989	0.1162	0.6766	0.155
Mof_H 	H 	0.8813	0.1577	0.6998	0.102
Mof_C 	C 	0.91163	0.1342	0.6673	-0.152
Mof_H 	H 	0.9178	0.1881	0.6836	0.186
Mof_C 	C 	0.89396	0.8147	0.5867	1.002
Mof_C 	C 	0.91003	0.8012	0.6568	-1.403
Mof_H 	H 	0.9213	0.8464	0.6595	0.512
Mof_H 	H 	0.9021	0.8037	0.7021	0.489
Mof_H 	H 	0.9171	0.7446	0.6541	0.538
Mof_C 	C 	0.90489	0.812	0.5126	-1.44
Mof_H 	H 	0.9162	0.8567	0.5135	0.517
Mof_H 	H 	0.9116	0.7553	0.5071	0.565
Mof_H 	H 	0.8938	0.8222	0.4699	0.521
Mof_C 	C 	0.87621	0.7448	0.5835	-1.35
Mof_H 	H 	0.869	0.7459	0.6304	0.49
Mof_H 	H 	0.8653	0.7556	0.5404	0.45
Mof_H 	H 	0.883	0.6882	0.5777	0.477
Mof_C 	C 	0.779	0.8593	0.5727	0.104
Mof_H 	H 	0.7659	0.843	0.5935	0.023
Mof_C 	C 	0.81521	0.8337	0.5565	0.176
Mof_H 	H 	0.8277	0.797	0.5639	-0.029
Mof_C 	C 	0.79939	0.9583	0.507	0.111
Mof_H 	H 	0.8005	0.0106	0.4798	0.066
Mof_C 	C 	0.77932	0.9362	0.5323	-0.067
Mof_C 	C 	0.75909	0.9872	0.5143	0.202
Mof_C 	C 	0.73906	0.9452	0.5015	-0.208
Mof_H 	H 	0.7385	0.8842	0.5065	0.113
Mof_C 	C 	0.71975	0.9911	0.4815	0.206
Mof_C 	C 	0.72081	0.0808	0.4737	-0.214
Mof_H 	H 	0.7079	0.1131	0.459	0.134
Mof_C 	C 	0.74067	0.1215	0.4875	0.205
Mof_H 	H 	0.7412	0.1825	0.483	0.07
Mof_C 	C 	0.75984	0.0771	0.5076	-0.187
Mof_H 	H 	0.7734	0.107	0.5168	0.193
Mof_C 	C 	0.67705	0.9813	0.4645	1.059
Mof_C 	C 	0.67546	0.0347	0.5359	-1.56
Mof_H 	H 	0.6855	0.0838	0.5361	0.557
Mof_H 	H 	0.6794	0.9988	0.5805	0.558
Mof_H 	H 	0.6604	0.0558	0.5368	0.612
Mof_C 	C 	0.66106	0.9056	0.4649	-1.405
Mof_H 	H 	0.6641	0.8728	0.5119	0.496
Mof_H 	H 	0.6628	0.8679	0.4216	0.456
Mof_H 	H 	0.646	0.9274	0.4615	0.496
Mof_C 	C 	0.67179	0.0313	0.3909	-1.487
Mof_H 	H 	0.6821	0.0796	0.3891	0.529
Mof_H 	H 	0.6567	0.0536	0.3885	0.571
Mof_H 	H 	0.6732	0.993	0.3478	0.521
Mof_C 	C 	0.8213	0.0037	0.2499	1.147
Mof_C 	C 	0.83049	0.9487	0.3148	-0.161
Mof_C 	C 	0.83935	0.8687	0.2983	0.12
Mof_H 	H 	0.8402	0.8539	0.2468	0.107
Mof_C 	C 	0.84694	0.8098	0.3536	-0.123
Mof_C 	C 	0.85374	0.7211	0.3272	1.175
Mof_C 	C 	0.84502	0.2197	0.5434	0.923
Mof_C 	C 	0.85174	0.1352	0.5086	0.282
Mof_C 	C 	0.87012	0.1353	0.4672	-0.734
Mof_H 	H 	0.8769	0.189	0.4582	0.641
Mof_C 	C 	0.87876	0.0621	0.439	1.175
Mof_C 	C 	0.89891	0.0699	0.3958	-1.837
Mof_C 	C 	0.71839	0.7088	0.1487	0.548
Mof_C 	C 	0.70471	0.7448	0.2084	0.19
Mof_C 	C 	0.68375	0.7738	0.1869	-0.078
Mof_H 	H 	0.6788	0.7749	0.1345	0.191
Mof_C 	C 	0.66948	0.8014	0.2377	0.035
Mof_C 	C 	0.64619	0.8273	0.2067	0.948
Mof_C 	C 	0.97775	0.7682	0.5968	0.853
Mof_C 	C 	0.99237	0.8453	0.5881	0
Mof_C 	C 	0.00982	0.8594	0.6427	0.048
Mof_H 	H 	0.0116	0.8209	0.6845	0.135
Mof_C 	C 	0.02485	0.9265	0.6403	-0.093
Mof_C 	C 	0.04294	0.9295	0.7064	1.07
Mof_C 	C 	0.94635	0.2981	0.8745	1.047
Mof_C 	C 	0.96925	0.3155	0.8504	-0.015
Mof_C 	C 	0.9804	0.3889	0.8735	0.031
Mof_H 	H 	0.9734	0.4298	0.9028	0.203
Mof_C 	C 	0.00168	0.4059	0.8555	0.056
Mof_C 	C 	0.0126	0.4982	0.8899	1.256
Mof_F 	F 	0.79837	0.0081	0.2485	-0.269
Mof_F 	F 	0.82547	0.98	0.1839	-0.728
Mof_F 	F 	0.8271	0.0794	0.2462	-1.176
Mof_F 	F 	0.80292	0.0396	0.2617	-0.18
Mof_F 	F 	0.81855	0.9575	0.1796	0.203
Mof_F 	F 	0.8354	0.0767	0.2505	0.669
Mof_F 	F 	0.8573	0.7231	0.257	-0.051
Mof_F 	F 	0.8668	0.6773	0.3791	-0.069
Mof_F 	F 	0.835	0.6715	0.3036	-0.479
Mof_F 	F 	0.8545	0.7067	0.2578	-0.079
Mof_F 	F 	0.8787	0.7309	0.3215	-0.15
Mof_F 	F 	0.8445	0.658	0.3523	-0.591
Mof_F 	F 	0.8436	0.7008	0.2567	-0.158
Mof_F 	F 	0.8338	0.6685	0.3381	0.402
Mof_F 	F 	0.8733	0.7011	0.3678	-0.277
Mof_F 	F 	0.8667	0.7196	0.2716	-0.249
Mof_F 	F 	0.8575	0.6613	0.3724	-0.079
Mof_F 	F 	0.84031	0.2083	0.6144	-0.384
Mof_F 	F 	0.831	0.2615	0.5032	0.091
Mof_F 	F 	0.85991	0.2852	0.5367	0.186
Mof_F 	F 	0.849	0.2883	0.5055	-0.496
Mof_F 	F 	0.8495	0.225	0.6137	-0.024
Mof_F 	F 	0.8241	0.2456	0.5101	-0.473
Mof_F 	F 	0.8616	0.2632	0.5766	-0.459
Mof_F 	F 	0.8219	0.2274	0.5353	0.014
Mof_F 	F 	0.895	0.0777	0.3283	0.167
Mof_F 	F 	0.9115	0.1382	0.4132	4.678
Mof_F 	F 	0.914	0.9993	0.4137	0.919
Mof_F 	F 	0.91595	0.0265	0.4296	-1.316
Mof_F 	F 	0.8935	0.0466	0.3224	-1.906
Mof_F 	F 	0.9045	0.1626	0.3925	-9.311
Mof_F 	F 	0.9022	0.1436	0.3651	6.374
Mof_F 	F 	0.9165	0.0599	0.4359	0.086
Mof_F 	F 	0.8975	0.0175	0.3329	1.424
Mof_F 	F 	0.74025	0.7371	0.1589	-0.935
Mof_F 	F 	0.7123	0.7358	0.0785	0.224
Mof_F 	F 	0.7199	0.6255	0.1478	1.251
Mof_F 	F 	0.7967	0.8543	0.8931	-0.416
Mof_F 	F 	0.7718	0.8678	0.8302	-2.139
Mof_F 	F 	0.7788	0.7317	0.9006	-0.625
Mof_F 	F 	0.7658	0.8303	0.8277	1.127
Mof_F 	F 	0.7648	0.7311	0.8627	0.501
Mof_F 	F 	0.7922	0.8064	0.9195	-0.303
Mof_F 	F 	0.6438	0.8326	0.1305	-0.4
Mof_F 	F 	0.6337	0.8529	0.247	-0.205
Mof_F 	F 	0.63303	0.7464	0.2154	-0.181
Mof_F 	F 	0.8592	0.693	0.8652	0.076
Mof_F 	F 	0.8582	0.5928	0.7723	0.161
Mof_F 	F 	0.8692	0.7126	0.7724	-0.275
Mof_F 	F 	0.8515	0.5693	0.7979	-0.357
Mof_F 	F 	0.8571	0.6314	0.8554	-0.078
Mof_F 	F 	0.8626	0.6118	0.7479	-0.282
Mof_F 	F 	0.982	0.7049	0.554	-0.095
Mof_F 	F 	0.9793	0.7366	0.6699	0.282
Mof_F 	F 	0.95644	0.7834	0.5761	-0.566
Mof_F 	F 	0.95707	0.7957	0.5992	0.104
Mof_F 	F 	0.979	0.7138	0.5346	-0.24
Mof_F 	F 	0.98375	0.7192	0.6554	-0.664
Mof_F 	F 	0.03683	0.9173	0.7729	-0.419
Mof_F 	F 	0.05371	0.0153	0.704	0.05
Mof_F 	F 	0.05888	0.8767	0.6969	-0.514
Mof_F 	F 	0.03219	0.949	0.7694	-0.145
Mof_F 	F 	0.05771	0.9795	0.7057	-0.646
Mof_F 	F 	0.0533	0.8451	0.7138	-0.092
Mof_F 	F 	0.94151	0.349	0.9323	-0.224
Mof_F 	F 	0.94258	0.2258	0.8942	-0.774
Mof_F 	F 	0.93246	0.3139	0.8071	-0.112
Mof_F 	F 	0.938	0.3674	0.9062	-0.221
Mof_F 	F 	0.94843	0.2188	0.9197	0.268
Mof_F 	F 	0.93155	0.2796	0.8206	-0.317
Mof_F 	F 	0.9957	0.5565	0.8842	-0.183
Mof_F 	F 	0.025	0.524	0.8379	-0.238
Mof_F 	F 	0.024	0.4814	0.9514	-0.313
Mof_F 	F 	0.0115	0.5449	0.8156	-0.177
Mof_F 	F 	0.0013	0.5354	0.9301	-0.387
Mof_F 	F 	0.0319	0.4898	0.8963	-0.352
Mof_Cu	Cu	0.34549	0.44373	0.47869	0.947
Mof_Cu	Cu	0.2073	0.30629	0.36439	0.893
Mof_O 	O 	0.36152	0.403	0.5799	-0.193
Mof_O 	O 	0.2018	0.3611	0.45992	-0.267
Mof_O 	O 	0.32914	0.4821	0.379	-0.141
Mof_O 	O 	0.34853	0.318	0.4243	-0.203
Mof_O 	O 	0.33962	0.5737	0.5214	-0.238
Mof_O 	O 	0.37284	0.4844	0.4438	-0.558
Mof_O 	O 	0.21488	0.2421	0.2738	-0.24
Mof_O 	O 	0.17279	0.3062	0.3081	-0.24
Mof_O 	O 	0.48652	0.3887	0.5297	-0.213
Mof_O 	O 	0.52573	0.4836	0.5918	-0.184
Mof_O 	O 	0.47543	0.7545	0.8095	-0.226
Mof_O 	O 	0.51362	0.8598	0.8193	-0.15
Mof_N 	N 	0.48155	0.5655	0.5718	-0.194
Mof_N 	N 	0.48171	0.6611	0.6748	-0.176
Mof_N 	N 	0.38267	0.4001	0.5931	-0.203
Mof_N 	N 	0.29653	0.3078	0.5831	-0.205
Mof_N 	N 	0.31727	0.4077	0.5202	-0.197
Mof_N 	N 	0.20006	0.444	0.4678	-0.21
Mof_C 	C 	0.45996	0.552	0.5742	0.086
Mof_H 	H 	0.4525	0.5143	0.5381	0.04
Mof_C 	C 	0.49155	0.6203	0.6213	0.135
Mof_H 	H 	0.5067	0.6312	0.6184	0.028
Mof_C 	C 	0.46028	0.6463	0.6776	0.089
Mof_H 	H 	0.453	0.6746	0.7154	0.074
Mof_C 	C 	0.44815	0.5909	0.627	-0.043
Mof_C 	C 	0.42451	0.5737	0.634	0.19
Mof_C 	C 	0.41508	0.4957	0.6098	-0.2
Mof_H 	H 	0.4237	0.4538	0.587	0.115
Mof_C 	C 	0.39314	0.4786	0.6185	0.216
Mof_C 	C 	0.38059	0.5395	0.6526	-0.186
Mof_H 	H 	0.3657	0.5278	0.6593	0.184
Mof_C 	C 	0.38989	0.6162	0.6766	0.153
Mof_H 	H 	0.3813	0.6577	0.6998	0.103
Mof_C 	C 	0.41163	0.6342	0.6673	-0.154
Mof_H 	H 	0.4178	0.6881	0.6836	0.187
Mof_C 	C 	0.39396	0.3147	0.5867	1.001
Mof_C 	C 	0.41003	0.3012	0.6568	-1.402
Mof_H 	H 	0.4213	0.3464	0.6595	0.511
Mof_H 	H 	0.4021	0.3037	0.7021	0.49
Mof_H 	H 	0.4171	0.2446	0.6541	0.538
Mof_C 	C 	0.40489	0.312	0.5126	-1.438
Mof_H 	H 	0.4162	0.3567	0.5135	0.516
Mof_H 	H 	0.4116	0.2553	0.5071	0.564
Mof_H 	H 	0.3938	0.3222	0.4699	0.52
Mof_C 	C 	0.37621	0.2448	0.5835	-1.349
Mof_H 	H 	0.369	0.2459	0.6304	0.49
Mof_H 	H 	0.3653	0.2556	0.5404	0.449
Mof_H 	H 	0.383	0.1882	0.5777	0.476
Mof_C 	C 	0.279	0.3593	0.5727	0.098
Mof_H 	H 	0.2659	0.343	0.5935	0.025
Mof_C 	C 	0.31521	0.3337	0.5565	0.174
Mof_H 	H 	0.3277	0.297	0.5639	-0.029
Mof_C 	C 	0.29939	0.4583	0.507	0.091
Mof_H 	H 	0.3005	0.5106	0.4798	0.078
Mof_C 	C 	0.27932	0.4362	0.5323	-0.054
Mof_C 	C 	0.25909	0.4872	0.5143	0.179
Mof_C 	C 	0.23906	0.4452	0.5015	-0.192
Mof_H 	H 	0.2385	0.3842	0.5065	0.108
Mof_C 	C 	0.21975	0.4911	0.4815	0.189
Mof_C 	C 	0.22081	0.5808	0.4737	-0.191
Mof_H 	H 	0.2079	0.6131	0.459	0.128
Mof_C 	C 	0.24067	0.6215	0.4875	0.186
Mof_H 	H 	0.2412	0.6825	0.483	0.077
Mof_C 	C 	0.25984	0.5771	0.5076	-0.162
Mof_H 	H 	0.2734	0.607	0.5168	0.186
Mof_C 	C 	0.17705	0.4813	0.4645	1.027
Mof_C 	C 	0.17546	0.5347	0.5359	-1.512
Mof_H 	H 	0.1855	0.5838	0.5361	0.544
Mof_H 	H 	0.1794	0.4988	0.5805	0.541
Mof_H 	H 	0.1604	0.5558	0.5368	0.599
Mof_C 	C 	0.16106	0.4056	0.4649	-1.378
Mof_H 	H 	0.1641	0.3728	0.5119	0.489
Mof_H 	H 	0.1628	0.3679	0.4216	0.449
Mof_H 	H 	0.146	0.4274	0.4615	0.488
Mof_C 	C 	0.17179	0.5313	0.3909	-1.442
Mof_H 	H 	0.1821	0.5796	0.3891	0.518
Mof_H 	H 	0.1567	0.5536	0.3885	0.559
Mof_H 	H 	0.1732	0.493	0.3478	0.505
Mof_C 	C 	0.3213	0.5037	0.2499	1.17
Mof_C 	C 	0.33049	0.4487	0.3148	-0.176
Mof_C 	C 	0.33935	0.3687	0.2983	0.127
Mof_H 	H 	0.3402	0.3539	0.2468	0.104
Mof_C 	C 	0.34694	0.3098	0.3536	-0.126
Mof_C 	C 	0.35374	0.2211	0.3272	1.177
Mof_C 	C 	0.34502	0.7197	0.5434	0.921
Mof_C 	C 	0.35174	0.6352	0.5086	0.287
Mof_C 	C 	0.37012	0.6353	0.4672	-0.745
Mof_H 	H 	0.3769	0.689	0.4582	0.646
Mof_C 	C 	0.37876	0.5621	0.439	1.197
Mof_C 	C 	0.39891	0.5699	0.3958	-1.861
Mof_C 	C 	0.21839	0.2088	0.1487	0.548
Mof_C 	C 	0.20471	0.2448	0.2084	0.189
Mof_C 	C 	0.18375	0.2738	0.1869	-0.078
Mof_H 	H 	0.1788	0.2749	0.1345	0.191
Mof_C 	C 	0.16948	0.3014	0.2377	0.035
Mof_C 	C 	0.14619	0.3273	0.2067	0.949
Mof_C 	C 	0.47775	0.2682	0.5968	0.852
Mof_C 	C 	0.49237	0.3453	0.5881	0
Mof_C 	C 	0.50982	0.3594	0.6427	0.049
Mof_H 	H 	0.5116	0.3209	0.6845	0.135
Mof_C 	C 	0.52485	0.4265	0.6403	-0.096
Mof_C 	C 	0.54294	0.4295	0.7064	1.077
Mof_C 	C 	0.44635	0.7981	0.8745	1.048
Mof_C 	C 	0.46925	0.8155	0.8504	-0.015
Mof_C 	C 	0.4804	0.8889	0.8735	0.031
Mof_H 	H 	0.4734	0.9298	0.9028	0.203
Mof_C 	C 	0.50168	0.9059	0.8555	0.056
Mof_C 	C 	0.5126	0.9982	0.8899	1.261
Mof_F 	F 	0.29837	0.5081	0.2485	-0.268
Mof_F 	F 	0.32547	0.48	0.1839	-0.746
Mof_F 	F 	0.3271	0.5794	0.2462	-1.207
Mof_F 	F 	0.30292	0.5396	0.2617	-0.181
Mof_F 	F 	0.31855	0.4575	0.1796	0.211
Mof_F 	F 	0.3354	0.5767	0.2505	0.697
Mof_F 	F 	0.3573	0.2231	0.257	-0.051
Mof_F 	F 	0.3668	0.1773	0.3791	-0.068
Mof_F 	F 	0.335	0.1715	0.3036	-0.481
Mof_F 	F 	0.3545	0.2067	0.2578	-0.079
Mof_F 	F 	0.3787	0.2309	0.3215	-0.15
Mof_F 	F 	0.3445	0.158	0.3523	-0.593
Mof_F 	F 	0.3436	0.2008	0.2567	-0.158
Mof_F 	F 	0.3338	0.1685	0.3381	0.405
Mof_F 	F 	0.3733	0.2011	0.3678	-0.278
Mof_F 	F 	0.3667	0.2196	0.2716	-0.25
Mof_F 	F 	0.3575	0.1613	0.3724	-0.079
Mof_F 	F 	0.34031	0.7083	0.6144	-0.383
Mof_F 	F 	0.331	0.7615	0.5032	0.091
Mof_F 	F 	0.35991	0.7852	0.5367	0.185
Mof_F 	F 	0.349	0.7883	0.5055	-0.495
Mof_F 	F 	0.3495	0.725	0.6137	-0.024
Mof_F 	F 	0.3241	0.7456	0.5101	-0.472
Mof_F 	F 	0.3616	0.7632	0.5766	-0.458
Mof_F 	F 	0.3219	0.7274	0.5353	0.014
Mof_F 	F 	0.395	0.5777	0.3283	0.165
Mof_F 	F 	0.4115	0.6382	0.4132	4.708
Mof_F 	F 	0.414	0.4993	0.4137	0.932
Mof_F 	F 	0.41595	0.5265	0.4296	-1.348
Mof_F 	F 	0.3935	0.5466	0.3224	-1.912
Mof_F 	F 	0.4045	0.6626	0.3925	-9.376
Mof_F 	F 	0.4022	0.6436	0.3651	6.423
Mof_F 	F 	0.4165	0.5599	0.4359	0.112
Mof_F 	F 	0.3975	0.5175	0.3329	1.436
Mof_F 	F 	0.24025	0.2371	0.1589	-0.935
Mof_F 	F 	0.2123	0.2358	0.0785	0.224
Mof_F 	F 	0.2199	0.1255	0.1478	1.25
Mof_F 	F 	0.2967	0.3543	0.8931	-0.417
Mof_F 	F 	0.2718	0.3678	0.8302	-2.139
Mof_F 	F 	0.2788	0.2317	0.9006	-0.625
Mof_F 	F 	0.2658	0.3303	0.8277	1.126
Mof_F 	F 	0.2648	0.2311	0.8627	0.5
Mof_F 	F 	0.2922	0.3064	0.9195	-0.303
Mof_F 	F 	0.1438	0.3326	0.1305	-0.401
Mof_F 	F 	0.1337	0.3529	0.247	-0.206
Mof_F 	F 	0.13303	0.2464	0.2154	-0.181
Mof_F 	F 	0.3592	0.193	0.8652	0.076
Mof_F 	F 	0.3582	0.0928	0.7723	0.161
Mof_F 	F 	0.3692	0.2126	0.7724	-0.275
Mof_F 	F 	0.3515	0.0693	0.7979	-0.358
Mof_F 	F 	0.3571	0.1314	0.8554	-0.078
Mof_F 	F 	0.3626	0.1118	0.7479	-0.281
Mof_F 	F 	0.482	0.2049	0.554	-0.094
Mof_F 	F 	0.4793	0.2366	0.6699	0.276
Mof_F 	F 	0.45644	0.2834	0.5761	-0.567
Mof_F 	F 	0.45707	0.2957	0.5992	0.104
Mof_F 	F 	0.479	0.2138	0.5346	-0.241
Mof_F 	F 	0.48375	0.2192	0.6554	-0.658
Mof_F 	F 	0.53683	0.4173	0.7729	-0.413
Mof_F 	F 	0.55371	0.5153	0.704	0.092
Mof_F 	F 	0.55888	0.3767	0.6969	-0.509
Mof_F 	F 	0.53219	0.449	0.7694	-0.156
Mof_F 	F 	0.55771	0.4795	0.7057	-0.688
Mof_F 	F 	0.5533	0.3451	0.7138	-0.096
Mof_F 	F 	0.44151	0.849	0.9323	-0.224
Mof_F 	F 	0.44258	0.7258	0.8942	-0.774
Mof_F 	F 	0.43246	0.8139	0.8071	-0.112
Mof_F 	F 	0.438	0.8674	0.9062	-0.221
Mof_F 	F 	0.44843	0.7188	0.9197	0.269
Mof_F 	F 	0.43155	0.7796	0.8206	-0.317
Mof_F 	F 	0.4957	0.0565	0.8842	-0.184
Mof_F 	F 	0.525	0.024	0.8379	-0.241
Mof_F 	F 	0.524	0.9814	0.9514	-0.313
Mof_F 	F 	0.5115	0.0449	0.8156	-0.178
Mof_F 	F 	0.5013	0.0354	0.9301	-0.389
Mof_F 	F 	0.5319	0.9898	0.8963	-0.352
Mof_Cu	Cu	0.15451	0.94373	0.02131	0.944
Mof_Cu	Cu	0.2927	0.80629	0.13561	0.892
Mof_O 	O 	0.13848	0.903	0.9201	-0.188
Mof_O 	O 	0.2982	0.8611	0.04008	-0.27
Mof_O 	O 	0.17086	0.9821	0.121	-0.143
Mof_O 	O 	0.15147	0.818	0.0757	-0.207
Mof_O 	O 	0.16038	0.0737	0.9786	-0.239
Mof_O 	O 	0.12716	0.9844	0.0562	-0.55
Mof_O 	O 	0.28512	0.7421	0.2262	-0.24
Mof_O 	O 	0.32721	0.8062	0.1919	-0.241
Mof_O 	O 	0.01348	0.8887	0.9703	-0.203
Mof_O 	O 	0.97427	0.9836	0.9082	-0.174
Mof_O 	O 	0.02457	0.2545	0.6905	-0.226
Mof_O 	O 	0.98638	0.3598	0.6807	-0.15
Mof_N 	N 	0.01845	0.0655	0.9282	-0.193
Mof_N 	N 	0.01829	0.1611	0.8252	-0.176
Mof_N 	N 	0.11733	0.9001	0.9069	-0.202
Mof_N 	N 	0.20347	0.8078	0.9169	-0.206
Mof_N 	N 	0.18273	0.9077	0.9798	-0.199
Mof_N 	N 	0.29994	0.944	0.0322	-0.213
Mof_C 	C 	0.04004	0.052	0.9258	0.084
Mof_H 	H 	0.0475	0.0143	0.9619	0.041
Mof_C 	C 	0.00845	0.1203	0.8787	0.134
Mof_H 	H 	0.9933	0.1312	0.8816	0.029
Mof_C 	C 	0.03972	0.1463	0.8224	0.087
Mof_H 	H 	0.047	0.1746	0.7846	0.075
Mof_C 	C 	0.05185	0.0909	0.873	-0.039
Mof_C 	C 	0.07549	0.0737	0.866	0.178
Mof_C 	C 	0.08492	0.9957	0.8902	-0.186
Mof_H 	H 	0.0763	0.9538	0.913	0.114
Mof_C 	C 	0.10686	0.9786	0.8815	0.226
Mof_C 	C 	0.11941	0.0395	0.8474	-0.2
Mof_H 	H 	0.1343	0.0278	0.8407	0.185
Mof_C 	C 	0.11011	0.1162	0.8234	0.155
Mof_H 	H 	0.1187	0.1577	0.8002	0.102
Mof_C 	C 	0.08837	0.1342	0.8327	-0.152
Mof_H 	H 	0.0822	0.1881	0.8164	0.186
Mof_C 	C 	0.10604	0.8147	0.9133	0.992
Mof_C 	C 	0.08997	0.8012	0.8432	-1.394
Mof_H 	H 	0.0787	0.8464	0.8405	0.509
Mof_H 	H 	0.0979	0.8037	0.7979	0.487
Mof_H 	H 	0.0829	0.7446	0.8459	0.536
Mof_C 	C 	0.09511	0.812	0.9874	-1.403
Mof_H 	H 	0.0838	0.8567	0.9865	0.51
Mof_H 	H 	0.0884	0.7553	0.9929	0.558
Mof_H 	H 	0.1062	0.8222	0.0301	0.503
Mof_C 	C 	0.12379	0.7448	0.9165	-1.345
Mof_H 	H 	0.131	0.7459	0.8696	0.489
Mof_H 	H 	0.1347	0.7556	0.9596	0.451
Mof_H 	H 	0.117	0.6882	0.9223	0.477
Mof_C 	C 	0.221	0.8593	0.9273	0.104
Mof_H 	H 	0.2341	0.843	0.9065	0.024
Mof_C 	C 	0.18479	0.8337	0.9435	0.177
Mof_H 	H 	0.1723	0.797	0.9361	-0.028
Mof_C 	C 	0.20061	0.9583	0.993	0.128
Mof_H 	H 	0.1995	0.0106	0.0202	0.053
Mof_C 	C 	0.22068	0.9362	0.9677	-0.065
Mof_C 	C 	0.24091	0.9872	0.9857	0.186
Mof_C 	C 	0.26094	0.9452	0.9985	-0.179
Mof_H 	H 	0.2615	0.8842	0.9935	0.108
Mof_C 	C 	0.28025	0.9911	0.0185	0.18
Mof_C 	C 	0.27919	0.0808	0.0263	-0.189
Mof_H 	H 	0.2921	0.1131	0.041	0.124
Mof_C 	C 	0.25933	0.1215	0.0125	0.168
Mof_H 	H 	0.2588	0.1825	0.017	0.079
Mof_C 	C 	0.24016	0.0771	0.9924	-0.153
Mof_H 	H 	0.2266	0.107	0.9832	0.185
Mof_C 	C 	0.32295	0.9813	0.0355	1.057
Mof_C 	C 	0.32454	0.0347	0.9641	-1.549
Mof_H 	H 	0.3145	0.0838	0.9639	0.558
Mof_H 	H 	0.3206	0.9988	0.9195	0.556
Mof_H 	H 	0.3396	0.0558	0.9632	0.613
Mof_C 	C 	0.33894	0.9056	0.0351	-1.435
Mof_H 	H 	0.3359	0.8728	0.9881	0.513
Mof_H 	H 	0.3372	0.8679	0.0784	0.464
Mof_H 	H 	0.354	0.9274	0.0385	0.502
Mof_C 	C 	0.32821	0.0313	0.1091	-1.486
Mof_H 	H 	0.3179	0.0796	0.1109	0.529
Mof_H 	H 	0.3433	0.0536	0.1115	0.57
Mof_H 	H 	0.3268	0.993	0.1522	0.521
Mof_C 	C 	0.1787	0.0037	0.2501	1.147
Mof_C 	C 	0.16951	0.9487	0.1852	-0.16
Mof_C 	C 	0.16065	0.8687	0.2017	0.118
Mof_H 	H 	0.1598	0.8539	0.2532	0.108
Mof_C 	C 	0.15306	0.8098	0.1464	-0.122
Mof_C 	C 	0.14626	0.7211	0.1728	1.175
Mof_C 	C 	0.15498	0.2197	0.9566	0.917
Mof_C 	C 	0.14826	0.1352	0.9914	0.297
Mof_C 	C 	0.12988	0.1353	0.0328	-0.751
Mof_H 	H 	0.1231	0.189	0.0418	0.643
Mof_C 	C 	0.12124	0.0621	0.061	1.178
Mof_C 	C 	0.10109	0.0699	0.1042	-1.834
Mof_C 	C 	0.28161	0.7088	0.3513	0.547
Mof_C 	C 	0.29529	0.7448	0.2916	0.191
Mof_C 	C 	0.31625	0.7738	0.3131	-0.079
Mof_H 	H 	0.3212	0.7749	0.3655	0.193
Mof_C 	C 	0.33052	0.8014	0.2623	0.036
Mof_C 	C 	0.35381	0.8273	0.2933	0.948
Mof_C 	C 	0.02225	0.7682	0.9032	0.852
Mof_C 	C 	0.00763	0.8453	0.9119	-0
Mof_C 	C 	0.99018	0.8594	0.8573	0.051
Mof_H 	H 	0.9884	0.8209	0.8155	0.135
Mof_C 	C 	0.97515	0.9265	0.8597	-0.094
Mof_C 	C 	0.95706	0.9295	0.7936	1.07
Mof_C 	C 	0.05365	0.2981	0.6255	1.046
Mof_C 	C 	0.03075	0.3155	0.6496	-0.016
Mof_C 	C 	0.0196	0.3889	0.6265	0.03
Mof_H 	H 	0.0266	0.4298	0.5972	0.201
Mof_C 	C 	0.99832	0.4059	0.6445	0.055
Mof_C 	C 	0.9874	0.4982	0.6101	1.258
Mof_F 	F 	0.20163	0.0081	0.2515	-0.27
Mof_F 	F 	0.17453	0.98	0.3161	-0.728
Mof_F 	F 	0.1729	0.0794	0.2538	-1.176
Mof_F 	F 	0.19708	0.0396	0.2383	-0.18
Mof_F 	F 	0.18145	0.9575	0.3204	0.203
Mof_F 	F 	0.1646	0.0767	0.2495	0.669
Mof_F 	F 	0.1427	0.7231	0.243	-0.05
Mof_F 	F 	0.1332	0.6773	0.1209	-0.07
Mof_F 	F 	0.165	0.6715	0.1964	-0.476
Mof_F 	F 	0.1455	0.7067	0.2422	-0.079
Mof_F 	F 	0.1213	0.7309	0.1785	-0.151
Mof_F 	F 	0.1555	0.658	0.1477	-0.589
Mof_F 	F 	0.1564	0.7008	0.2433	-0.159
Mof_F 	F 	0.1662	0.6685	0.1619	0.398
Mof_F 	F 	0.1267	0.7011	0.1322	-0.276
Mof_F 	F 	0.1333	0.7196	0.2284	-0.25
Mof_F 	F 	0.1425	0.6613	0.1276	-0.079
Mof_F 	F 	0.15969	0.2083	0.8856	-0.383
Mof_F 	F 	0.169	0.2615	0.9968	0.093
Mof_F 	F 	0.14009	0.2852	0.9633	0.186
Mof_F 	F 	0.151	0.2883	0.9945	-0.492
Mof_F 	F 	0.1505	0.225	0.8863	-0.024
Mof_F 	F 	0.1759	0.2456	0.9899	-0.471
Mof_F 	F 	0.1384	0.2632	0.9234	-0.457
Mof_F 	F 	0.1781	0.2274	0.9647	0.014
Mof_F 	F 	0.105	0.0777	0.1717	0.167
Mof_F 	F 	0.0885	0.1382	0.0868	4.668
Mof_F 	F 	0.086	0.9993	0.0863	0.918
Mof_F 	F 	0.08405	0.0265	0.0704	-1.317
Mof_F 	F 	0.1065	0.0466	0.1776	-1.904
Mof_F 	F 	0.0955	0.1626	0.1075	-9.297
Mof_F 	F 	0.0978	0.1436	0.1349	6.364
Mof_F 	F 	0.0835	0.0599	0.0641	0.086
Mof_F 	F 	0.1025	0.0175	0.1671	1.422
Mof_F 	F 	0.25975	0.7371	0.3411	-0.933
Mof_F 	F 	0.2877	0.7358	0.4215	0.226
Mof_F 	F 	0.2801	0.6255	0.3522	1.249
Mof_F 	F 	0.2033	0.8543	0.6069	-0.418
Mof_F 	F 	0.2282	0.8678	0.6698	-2.143
Mof_F 	F 	0.2212	0.7317	0.5994	-0.627
Mof_F 	F 	0.2342	0.8303	0.6723	1.129
Mof_F 	F 	0.2352	0.7311	0.6373	0.501
Mof_F 	F 	0.2078	0.8064	0.5805	-0.304
Mof_F 	F 	0.3562	0.8326	0.3695	-0.398
Mof_F 	F 	0.3663	0.8529	0.253	-0.205
Mof_F 	F 	0.36697	0.7464	0.2846	-0.181
Mof_F 	F 	0.1408	0.693	0.6348	0.075
Mof_F 	F 	0.1418	0.5928	0.7277	0.161
Mof_F 	F 	0.1308	0.7126	0.7276	-0.275
Mof_F 	F 	0.1485	0.5693	0.7021	-0.358
Mof_F 	F 	0.1429	0.6314	0.6446	-0.078
Mof_F 	F 	0.1374	0.6118	0.7521	-0.282
Mof_F 	F 	0.018	0.7049	0.946	-0.084
Mof_F 	F 	0.0207	0.7366	0.8301	0.268
Mof_F 	F 	0.04356	0.7834	0.9239	-0.579
Mof_F 	F 	0.04293	0.7957	0.9008	0.12
Mof_F 	F 	0.021	0.7138	0.9654	-0.247
Mof_F 	F 	0.01625	0.7192	0.8446	-0.65
Mof_F 	F 	0.96317	0.9173	0.7271	-0.419
Mof_F 	F 	0.94629	0.0153	0.796	0.051
Mof_F 	F 	0.94112	0.8767	0.8031	-0.514
Mof_F 	F 	0.96781	0.949	0.7306	-0.145
Mof_F 	F 	0.94229	0.9795	0.7943	-0.646
Mof_F 	F 	0.9467	0.8451	0.7862	-0.092
Mof_F 	F 	0.05849	0.349	0.5677	-0.228
Mof_F 	F 	0.05742	0.2258	0.6058	-0.769
Mof_F 	F 	0.06754	0.3139	0.6929	-0.111
Mof_F 	F 	0.062	0.3674	0.5938	-0.219
Mof_F 	F 	0.05157	0.2188	0.5803	0.262
Mof_F 	F 	0.06845	0.2796	0.6794	-0.318
Mof_F 	F 	0.0043	0.5565	0.6158	-0.183
Mof_F 	F 	0.975	0.524	0.6621	-0.239
Mof_F 	F 	0.976	0.4814	0.5486	-0.316
Mof_F 	F 	0.9885	0.5449	0.6844	-0.177
Mof_F 	F 	0.9987	0.5354	0.5699	-0.39
Mof_F 	F 	0.9681	0.4898	0.6037	-0.353
Mof_Cu	Cu	0.65451	0.44373	0.02131	0.942
Mof_Cu	Cu	0.7927	0.30629	0.13561	0.892
Mof_O 	O 	0.63848	0.403	0.9201	-0.19
Mof_O 	O 	0.7982	0.3611	0.04008	-0.271
Mof_O 	O 	0.67086	0.4821	0.121	-0.143
Mof_O 	O 	0.65147	0.318	0.0757	-0.206
Mof_O 	O 	0.66038	0.5737	0.9786	-0.237
Mof_O 	O 	0.62716	0.4844	0.0562	-0.562
Mof_O 	O 	0.78512	0.2421	0.2262	-0.24
Mof_O 	O 	0.82721	0.3062	0.1919	-0.241
Mof_O 	O 	0.51348	0.3887	0.9703	-0.207
Mof_O 	O 	0.47427	0.4836	0.9082	-0.18
Mof_O 	O 	0.52457	0.7545	0.6905	-0.226
Mof_O 	O 	0.48638	0.8598	0.6807	-0.15
Mof_N 	N 	0.51845	0.5655	0.9282	-0.192
Mof_N 	N 	0.51829	0.6611	0.8252	-0.176
Mof_N 	N 	0.61733	0.4001	0.9069	-0.201
Mof_N 	N 	0.70347	0.3078	0.9169	-0.205
Mof_N 	N 	0.68273	0.4077	0.9798	-0.197
Mof_N 	N 	0.79994	0.444	0.0322	-0.207
Mof_C 	C 	0.54004	0.552	0.9258	0.087
Mof_H 	H 	0.5475	0.5143	0.9619	0.043
Mof_C 	C 	0.50845	0.6203	0.8787	0.136
Mof_H 	H 	0.4933	0.6312	0.8816	0.03
Mof_C 	C 	0.53972	0.6463	0.8224	0.089
Mof_H 	H 	0.547	0.6746	0.7846	0.074
Mof_C 	C 	0.55185	0.5909	0.873	-0.042
Mof_C 	C 	0.57549	0.5737	0.866	0.191
Mof_C 	C 	0.58492	0.4957	0.8902	-0.199
Mof_H 	H 	0.5763	0.4538	0.913	0.116
Mof_C 	C 	0.60686	0.4786	0.8815	0.218
Mof_C 	C 	0.61941	0.5395	0.8474	-0.186
Mof_H 	H 	0.6343	0.5278	0.8407	0.184
Mof_C 	C 	0.61011	0.6162	0.8234	0.153
Mof_H 	H 	0.6187	0.6577	0.8002	0.103
Mof_C 	C 	0.58837	0.6342	0.8327	-0.154
Mof_H 	H 	0.5822	0.6881	0.8164	0.187
Mof_C 	C 	0.60604	0.3147	0.9133	0.991
Mof_C 	C 	0.58997	0.3012	0.8432	-1.393
Mof_H 	H 	0.5787	0.3464	0.8405	0.509
Mof_H 	H 	0.5979	0.3037	0.7979	0.487
Mof_H 	H 	0.5829	0.2446	0.8459	0.536
Mof_C 	C 	0.59511	0.312	0.9874	-1.401
Mof_H 	H 	0.5838	0.3567	0.9865	0.508
Mof_H 	H 	0.5884	0.2553	0.9929	0.558
Mof_H 	H 	0.6062	0.3222	0.0301	0.502
Mof_C 	C 	0.62379	0.2448	0.9165	-1.344
Mof_H 	H 	0.631	0.2459	0.8696	0.488
Mof_H 	H 	0.6347	0.2556	0.9596	0.451
Mof_H 	H 	0.617	0.1882	0.9223	0.477
Mof_C 	C 	0.721	0.3593	0.9273	0.098
Mof_H 	H 	0.7341	0.343	0.9065	0.026
Mof_C 	C 	0.68479	0.3337	0.9435	0.175
Mof_H 	H 	0.6723	0.297	0.9361	-0.027
Mof_C 	C 	0.70061	0.4583	0.993	0.109
Mof_H 	H 	0.6995	0.5106	0.0202	0.064
Mof_C 	C 	0.72068	0.4362	0.9677	-0.053
Mof_C 	C 	0.74091	0.4872	0.9857	0.163
Mof_C 	C 	0.76094	0.4452	0.9985	-0.163
Mof_H 	H 	0.7615	0.3842	0.9935	0.102
Mof_C 	C 	0.78025	0.4911	0.0185	0.162
Mof_C 	C 	0.77919	0.5808	0.0263	-0.166
Mof_H 	H 	0.7921	0.6131	0.041	0.118
Mof_C 	C 	0.75933	0.6215	0.0125	0.148
Mof_H 	H 	0.7588	0.6825	0.017	0.086
Mof_C 	C 	0.74016	0.5771	0.9924	-0.127
Mof_H 	H 	0.7266	0.607	0.9832	0.178
Mof_C 	C 	0.82295	0.4813	0.0355	1.025
Mof_C 	C 	0.82454	0.5347	0.9641	-1.502
Mof_H 	H 	0.8145	0.5838	0.9639	0.546
Mof_H 	H 	0.8206	0.4988	0.9195	0.54
Mof_H 	H 	0.8396	0.5558	0.9632	0.6
Mof_C 	C 	0.83894	0.4056	0.0351	-1.409
Mof_H 	H 	0.8359	0.3728	0.9881	0.505
Mof_H 	H 	0.8372	0.3679	0.0784	0.457
Mof_H 	H 	0.854	0.4274	0.0385	0.494
Mof_C 	C 	0.82821	0.5313	0.1091	-1.441
Mof_H 	H 	0.8179	0.5796	0.1109	0.517
Mof_H 	H 	0.8433	0.5536	0.1115	0.558
Mof_H 	H 	0.8268	0.493	0.1522	0.506
Mof_C 	C 	0.6787	0.5037	0.2501	1.17
Mof_C 	C 	0.66951	0.4487	0.1852	-0.176
Mof_C 	C 	0.66065	0.3687	0.2017	0.125
Mof_H 	H 	0.6598	0.3539	0.2532	0.104
Mof_C 	C 	0.65306	0.3098	0.1464	-0.125
Mof_C 	C 	0.64626	0.2211	0.1728	1.176
Mof_C 	C 	0.65498	0.7197	0.9566	0.915
Mof_C 	C 	0.64826	0.6352	0.9914	0.303
Mof_C 	C 	0.62988	0.6353	0.0328	-0.763
Mof_H 	H 	0.6231	0.689	0.0418	0.648
Mof_C 	C 	0.62124	0.5621	0.061	1.2
Mof_C 	C 	0.60109	0.5699	0.1042	-1.857
Mof_C 	C 	0.78161	0.2088	0.3513	0.548
Mof_C 	C 	0.79529	0.2448	0.2916	0.19
Mof_C 	C 	0.81625	0.2738	0.3131	-0.079
Mof_H 	H 	0.8212	0.2749	0.3655	0.193
Mof_C 	C 	0.83052	0.3014	0.2623	0.036
Mof_C 	C 	0.85381	0.3273	0.2933	0.948
Mof_C 	C 	0.52225	0.2682	0.9032	0.851
Mof_C 	C 	0.50763	0.3453	0.9119	0
Mof_C 	C 	0.49018	0.3594	0.8573	0.051
Mof_H 	H 	0.4884	0.3209	0.8155	0.134
Mof_C 	C 	0.47515	0.4265	0.8597	-0.097
Mof_C 	C 	0.45706	0.4295	0.7936	1.078
Mof_C 	C 	0.55365	0.7981	0.6255	1.046
Mof_C 	C 	0.53075	0.8155	0.6496	-0.016
Mof_C 	C 	0.5196	0.8889	0.6265	0.031
Mof_H 	H 	0.5266	0.9298	0.5972	0.201
Mof_C 	C 	0.49832	0.9059	0.6445	0.054
Mof_C 	C 	0.4874	0.9982	0.6101	1.264
Mof_F 	F 	0.70163	0.5081	0.2515	-0.269
Mof_F 	F 	0.67453	0.48	0.3161	-0.746
Mof_F 	F 	0.6729	0.5794	0.2538	-1.207
Mof_F 	F 	0.69708	0.5396	0.2383	-0.181
Mof_F 	F 	0.68145	0.4575	0.3204	0.211
Mof_F 	F 	0.6646	0.5767	0.2495	0.697
Mof_F 	F 	0.6427	0.2231	0.243	-0.051
Mof_F 	F 	0.6332	0.1773	0.1209	-0.07
Mof_F 	F 	0.665	0.1715	0.1964	-0.479
Mof_F 	F 	0.6455	0.2067	0.2422	-0.079
Mof_F 	F 	0.6213	0.2309	0.1785	-0.151
Mof_F 	F 	0.6555	0.158	0.1477	-0.591
Mof_F 	F 	0.6564	0.2008	0.2433	-0.159
Mof_F 	F 	0.6662	0.1685	0.1619	0.401
Mof_F 	F 	0.6267	0.2011	0.1322	-0.278
Mof_F 	F 	0.6333	0.2196	0.2284	-0.25
Mof_F 	F 	0.6425	0.1613	0.1276	-0.079
Mof_F 	F 	0.65969	0.7083	0.8856	-0.382
Mof_F 	F 	0.669	0.7615	0.9968	0.092
Mof_F 	F 	0.64009	0.7852	0.9633	0.186
Mof_F 	F 	0.651	0.7883	0.9945	-0.491
Mof_F 	F 	0.6505	0.725	0.8863	-0.024
Mof_F 	F 	0.6759	0.7456	0.9899	-0.47
Mof_F 	F 	0.6384	0.7632	0.9234	-0.456
Mof_F 	F 	0.6781	0.7274	0.9647	0.015
Mof_F 	F 	0.605	0.5777	0.1717	0.165
Mof_F 	F 	0.5885	0.6382	0.0868	4.697
Mof_F 	F 	0.586	0.4993	0.0863	0.93
Mof_F 	F 	0.58405	0.5265	0.0704	-1.348
Mof_F 	F 	0.6065	0.5466	0.1776	-1.909
Mof_F 	F 	0.5955	0.6626	0.1075	-9.359
Mof_F 	F 	0.5978	0.6436	0.1349	6.411
Mof_F 	F 	0.5835	0.5599	0.0641	0.111
Mof_F 	F 	0.6025	0.5175	0.1671	1.433
Mof_F 	F 	0.75975	0.2371	0.3411	-0.934
Mof_F 	F 	0.7877	0.2358	0.4215	0.225
Mof_F 	F 	0.7801	0.1255	0.3522	1.248
Mof_F 	F 	0.7033	0.3543	0.6069	-0.419
Mof_F 	F 	0.7282	0.3678	0.6698	-2.144
Mof_F 	F 	0.7212	0.2317	0.5994	-0.627
Mof_F 	F 	0.7342	0.3303	0.6723	1.129
Mof_F 	F 	0.7352	0.2311	0.6373	0.5
Mof_F 	F 	0.7078	0.3064	0.5805	-0.304
Mof_F 	F 	0.8562	0.3326	0.3695	-0.399
Mof_F 	F 	0.8663	0.3529	0.253	-0.206
Mof_F 	F 	0.86697	0.2464	0.2846	-0.181
Mof_F 	F 	0.6408	0.193	0.6348	0.076
Mof_F 	F 	0.6418	0.0928	0.7277	0.161
Mof_F 	F 	0.6308	0.2126	0.7276	-0.275
Mof_F 	F 	0.6485	0.0693	0.7021	-0.359
Mof_F 	F 	0.6429	0.1314	0.6446	-0.078
Mof_F 	F 	0.6374	0.1118	0.7521	-0.281
Mof_F 	F 	0.518	0.2049	0.946	-0.083
Mof_F 	F 	0.5207	0.2366	0.8301	0.26
Mof_F 	F 	0.54356	0.2834	0.9239	-0.58
Mof_F 	F 	0.54293	0.2957	0.9008	0.12
Mof_F 	F 	0.521	0.2138	0.9654	-0.248
Mof_F 	F 	0.51625	0.2192	0.8446	-0.643
Mof_F 	F 	0.46317	0.4173	0.7271	-0.413
Mof_F 	F 	0.44629	0.5153	0.796	0.093
Mof_F 	F 	0.44112	0.3767	0.8031	-0.509
Mof_F 	F 	0.46781	0.449	0.7306	-0.156
Mof_F 	F 	0.44229	0.4795	0.7943	-0.689
Mof_F 	F 	0.4467	0.3451	0.7862	-0.096
Mof_F 	F 	0.55849	0.849	0.5677	-0.229
Mof_F 	F 	0.55742	0.7258	0.6058	-0.77
Mof_F 	F 	0.56754	0.8139	0.6929	-0.111
Mof_F 	F 	0.562	0.8674	0.5938	-0.219
Mof_F 	F 	0.55157	0.7188	0.5803	0.263
Mof_F 	F 	0.56845	0.7796	0.6794	-0.318
Mof_F 	F 	0.5043	0.0565	0.6158	-0.184
Mof_F 	F 	0.475	0.024	0.6621	-0.241
Mof_F 	F 	0.476	0.9814	0.5486	-0.316
Mof_F 	F 	0.4885	0.0449	0.6844	-0.178
Mof_F 	F 	0.4987	0.0354	0.5699	-0.392
Mof_F 	F 	0.4681	0.9898	0.6037	-0.353
Mof_Cu	Cu	5.98581e-34	0	0.5	0.923
Mof_Cu	Cu	0.5	0.5	0.5	0.928
Mof_Cu	Cu	-0	0	-0	0.919
Mof_Cu	Cu	0.5	0.5	-0	0.923
Mof_Cu	Cu	2.99291e-34	0.74328	0.25	0.934
Mof_Cu	Cu	0.5	0.24328	0.25	0.934
Mof_Cu	Cu	8.97872e-34	0.25672	0.75	0.934
Mof_Cu	Cu	0.5	0.75672	0.75	0.935
_end
