data_functionalizedCrystal
_audit_creation_method	'EQeq! by Chris Wilmer'
_symmetry_space_group_name_H-M	'P1'
_symmetry_Int_Tables_number	1
_symmetry_cell_setting	triclinic
loop_
_symmetry_equiv_pos_as_xyz
  x,y,z
_cell_length_a	10.8783
_cell_length_b	28.3945
_cell_length_c	9.2141
_cell_angle_alpha	90
_cell_angle_beta	90
_cell_angle_gamma	90
loop_
_atom_site_label
_atom_site_type_symbol
_atom_site_fract_x
_atom_site_fract_y
_atom_site_fract_z
_atom_site_charge
Mof_Ba	Ba	0.1408	0.44519	0.02788	1.215
Mof_Li	Li	0.41	0.1613	0.8425	2.457
Mof_Li	Li	0.4182	0.3853	0.9409	5.394
Mof_Li	Li	0.7223	0.4396	0.0884	5.414
Mof_O 	O 	0.0747	0.34533	0.0785	-1.201
Mof_O 	O 	0.2658	0.35896	0.0025	-1.764
Mof_O 	O 	0.0823	0.13693	0.0434	-1.966
Mof_O 	O 	0.2626	0.12653	0.9286	-2.082
Mof_O 	O 	0.4213	0.44529	0.0614	-1.588
Mof_O 	O 	0.5821	0.45078	0.2116	-1.572
Mof_O 	O 	0.172	0.41855	0.7266	-0.572
Mof_O 	O 	0.3748	0.42055	0.7681	-1.558
Mof_O 	O 	0.7267	0.47477	0.9049	-1.488
Mof_O 	O 	0.9234	0.45523	0.8853	-0.678
Mof_O 	O 	0.847	0.47275	0.1924	-1.526
Mof_O 	O 	0.0088	0.4346	0.282	-0.623
Mof_N 	N 	0.2997	0.26627	0.9348	-0.025
Mof_H 	H 	0.355	0.2855	0.8981	-0.197
Mof_N 	N 	0.3035	0.21928	0.9207	-0.38
Mof_N 	N 	0.2685	0.42856	0.2918	-0.161
Mof_N 	N 	0.2217	0.42172	0.4242	-0.114
Mof_H 	H 	0.143	0.4172	0.4412	0.048
Mof_N 	N 	0.701	0.46605	0.605	-0.137
Mof_N 	N 	0.7302	0.46405	0.4634	-0.131
Mof_H 	H 	0.6766	0.4682	0.393	0.038
Mof_C 	C 	0.1793	0.3322	0.0344	1.092
Mof_C 	C 	0.2011	0.28053	0.012	-0.578
Mof_C 	C 	0.1374	0.24067	0.0516	0.401
Mof_H 	H 	0.0641	0.2389	0.1075	-0.317
Mof_C 	C 	0.2042	0.2035	0.9917	-0.547
Mof_C 	C 	0.1807	0.1514	0.9892	1.088
Mof_C 	C 	0.4703	0.44411	0.1855	0.811
Mof_C 	C 	0.3896	0.4338	0.3115	-0.334
Mof_C 	C 	0.419	0.43006	0.4598	0.199
Mof_H 	H 	0.4982	0.4322	0.5027	-0.132
Mof_C 	C 	0.3087	0.42258	0.5297	-0.272
Mof_C 	C 	0.2805	0.41952	0.6868	0.682
Mof_C 	C 	0.8208	0.462	0.8324	0.443
Mof_C 	C 	0.8089	0.4585	0.6725	-0.15
Mof_C 	C 	0.9041	0.45118	0.5749	0.078
Mof_H 	H 	0.9879	0.4449	0.5966	-0.017
Mof_C 	C 	0.8515	0.45499	0.4407	-0.255
Mof_C 	C 	0.9064	0.45372	0.2935	0.576
Mof_Ba	Ba	0.8592	0.55481	0.02788	1.253
Mof_Li	Li	0.59	0.8387	0.8425	2.452
Mof_Li	Li	0.5818	0.6147	0.9409	5.377
Mof_Li	Li	0.2777	0.5604	0.0884	5.411
Mof_O 	O 	0.9253	0.65467	0.0785	-1.163
Mof_O 	O 	0.7342	0.64104	0.0025	-1.757
Mof_O 	O 	0.9177	0.86307	0.0434	-1.909
Mof_O 	O 	0.7374	0.87347	0.9286	-2.083
Mof_O 	O 	0.5787	0.55471	0.0614	-1.587
Mof_O 	O 	0.4179	0.54922	0.2116	-1.57
Mof_O 	O 	0.828	0.58145	0.7266	-0.563
Mof_O 	O 	0.6252	0.57945	0.7681	-1.554
Mof_O 	O 	0.2733	0.52523	0.9049	-1.488
Mof_O 	O 	0.0766	0.54477	0.8853	-0.694
Mof_O 	O 	0.153	0.52725	0.1924	-1.517
Mof_O 	O 	0.9912	0.5654	0.282	-0.585
Mof_N 	N 	0.7003	0.73373	0.9348	-0.027
Mof_H 	H 	0.645	0.7145	0.8981	-0.195
Mof_N 	N 	0.6965	0.78072	0.9207	-0.379
Mof_N 	N 	0.7315	0.57144	0.2918	-0.162
Mof_N 	N 	0.7783	0.57828	0.4242	-0.115
Mof_H 	H 	0.857	0.5828	0.4412	0.055
Mof_N 	N 	0.299	0.53395	0.605	-0.136
Mof_N 	N 	0.2698	0.53595	0.4634	-0.132
Mof_H 	H 	0.3234	0.5318	0.393	0.04
Mof_C 	C 	0.8207	0.6678	0.0344	1.079
Mof_C 	C 	0.7989	0.71947	0.012	-0.562
Mof_C 	C 	0.8626	0.75933	0.0516	0.392
Mof_H 	H 	0.9359	0.7611	0.1075	-0.297
Mof_C 	C 	0.7958	0.7965	0.9917	-0.532
Mof_C 	C 	0.8193	0.8486	0.9892	1.069
Mof_C 	C 	0.5297	0.55589	0.1855	0.811
Mof_C 	C 	0.6104	0.5662	0.3115	-0.332
Mof_C 	C 	0.581	0.56994	0.4598	0.197
Mof_H 	H 	0.5018	0.5678	0.5027	-0.131
Mof_C 	C 	0.6913	0.57742	0.5297	-0.267
Mof_C 	C 	0.7195	0.58048	0.6868	0.679
Mof_C 	C 	0.1792	0.538	0.8324	0.446
Mof_C 	C 	0.1911	0.5415	0.6725	-0.153
Mof_C 	C 	0.0959	0.54882	0.5749	0.071
Mof_H 	H 	0.0121	0.5551	0.5966	-0.028
Mof_C 	C 	0.1485	0.54501	0.4407	-0.248
Mof_C 	C 	0.0936	0.54628	0.2935	0.535
Mof_Ba	Ba	0.3592	0.94519	0.97212	1.249
Mof_Li	Li	0.09	0.6613	0.1575	2.367
Mof_Li	Li	0.0818	0.8853	0.0591	5.295
Mof_Li	Li	0.7777	0.9396	0.9116	5.432
Mof_O 	O 	0.4253	0.84533	0.9215	-1.193
Mof_O 	O 	0.2342	0.85896	0.9975	-1.747
Mof_O 	O 	0.4177	0.63693	0.9566	-1.948
Mof_O 	O 	0.2374	0.62653	0.0714	-2.072
Mof_O 	O 	0.0787	0.94529	0.9386	-1.565
Mof_O 	O 	0.9179	0.95078	0.7884	-1.546
Mof_O 	O 	0.328	0.91855	0.2734	-0.564
Mof_O 	O 	0.1252	0.92055	0.2319	-1.534
Mof_O 	O 	0.7733	0.97477	0.0951	-1.47
Mof_O 	O 	0.5766	0.95523	0.1147	-0.678
Mof_O 	O 	0.653	0.97275	0.8076	-1.52
Mof_O 	O 	0.4912	0.9346	0.718	-0.608
Mof_N 	N 	0.2003	0.76627	0.0652	-0.025
Mof_H 	H 	0.145	0.7855	0.1019	-0.198
Mof_N 	N 	0.1965	0.71928	0.0793	-0.374
Mof_N 	N 	0.2315	0.92856	0.7082	-0.162
Mof_N 	N 	0.2783	0.92172	0.5758	-0.114
Mof_H 	H 	0.357	0.9172	0.5588	0.051
Mof_N 	N 	0.799	0.96605	0.395	-0.127
Mof_N 	N 	0.7698	0.96405	0.5366	-0.131
Mof_H 	H 	0.8234	0.9682	0.607	0.045
Mof_C 	C 	0.3207	0.8322	0.9656	1.08
Mof_C 	C 	0.2989	0.78053	0.988	-0.573
Mof_C 	C 	0.3626	0.74067	0.9484	0.389
Mof_H 	H 	0.4359	0.7389	0.8925	-0.309
Mof_C 	C 	0.2958	0.7035	0.0083	-0.534
Mof_C 	C 	0.3193	0.6514	0.0108	1.081
Mof_C 	C 	0.0297	0.94411	0.8145	0.779
Mof_C 	C 	0.1104	0.9338	0.6885	-0.325
Mof_C 	C 	0.081	0.93006	0.5402	0.191
Mof_H 	H 	0.0018	0.9322	0.4973	-0.135
Mof_C 	C 	0.1913	0.92258	0.4703	-0.265
Mof_C 	C 	0.2195	0.91952	0.3132	0.675
Mof_C 	C 	0.6792	0.962	0.1676	0.443
Mof_C 	C 	0.6911	0.9585	0.3275	-0.144
Mof_C 	C 	0.5959	0.95118	0.4251	0.074
Mof_H 	H 	0.5121	0.9449	0.4034	-0.018
Mof_C 	C 	0.6485	0.95499	0.5593	-0.248
Mof_C 	C 	0.5936	0.95372	0.7065	0.56
Mof_Ba	Ba	0.6408	0.05481	0.97212	1.195
Mof_Li	Li	0.91	0.3387	0.1575	2.474
Mof_Li	Li	0.9182	0.1147	0.0591	5.465
Mof_Li	Li	0.2223	0.0604	0.9116	5.38
Mof_O 	O 	0.5747	0.15467	0.9215	-1.196
Mof_O 	O 	0.7658	0.14104	0.9975	-1.78
Mof_O 	O 	0.5823	0.36307	0.9566	-1.953
Mof_O 	O 	0.7626	0.37347	0.0714	-2.089
Mof_O 	O 	0.9213	0.05471	0.9386	-1.598
Mof_O 	O 	0.0821	0.04922	0.7884	-1.578
Mof_O 	O 	0.672	0.08145	0.2734	-0.569
Mof_O 	O 	0.8748	0.07945	0.2319	-1.563
Mof_O 	O 	0.2267	0.02523	0.0951	-1.48
Mof_O 	O 	0.4234	0.04477	0.1147	-0.681
Mof_O 	O 	0.347	0.02725	0.8076	-1.522
Mof_O 	O 	0.5088	0.0654	0.718	-0.608
Mof_N 	N 	0.7997	0.23373	0.0652	-0.022
Mof_H 	H 	0.855	0.2145	0.1019	-0.198
Mof_N 	N 	0.8035	0.28072	0.0793	-0.382
Mof_N 	N 	0.7685	0.07144	0.7082	-0.162
Mof_N 	N 	0.7217	0.07828	0.5758	-0.115
Mof_H 	H 	0.643	0.0828	0.5588	0.049
Mof_N 	N 	0.201	0.03395	0.395	-0.138
Mof_N 	N 	0.2302	0.03595	0.5366	-0.132
Mof_H 	H 	0.1766	0.0318	0.607	0.036
Mof_C 	C 	0.6793	0.1678	0.9656	1.097
Mof_C 	C 	0.7011	0.21947	0.988	-0.58
Mof_C 	C 	0.6374	0.25933	0.9484	0.396
Mof_H 	H 	0.5641	0.2611	0.8925	-0.313
Mof_C 	C 	0.7042	0.2965	0.0083	-0.54
Mof_C 	C 	0.6807	0.3486	0.0108	1.086
Mof_C 	C 	0.9703	0.05589	0.8145	0.822
Mof_C 	C 	0.8896	0.0662	0.6885	-0.339
Mof_C 	C 	0.919	0.06994	0.5402	0.2
Mof_H 	H 	0.9982	0.0678	0.4973	-0.128
Mof_C 	C 	0.8087	0.07742	0.4703	-0.272
Mof_C 	C 	0.7805	0.08048	0.3132	0.682
Mof_C 	C 	0.3208	0.038	0.1676	0.44
Mof_C 	C 	0.3089	0.0415	0.3275	-0.151
Mof_C 	C 	0.4041	0.04882	0.4251	0.072
Mof_H 	H 	0.4879	0.0551	0.4034	-0.022
Mof_C 	C 	0.3515	0.04501	0.5593	-0.254
Mof_C 	C 	0.4064	0.04628	0.7065	0.558
Mof_Ba	Ba	0.5	0.5	0.82337	0.812
Mof_Ba	Ba	-5.47753e-34	-5.54348e-34	0.17663	0.745
_end
