data_functionalizedCrystal
_audit_creation_method	'EQeq! by Chris Wilmer'
_symmetry_space_group_name_H-M	'P1'
_symmetry_Int_Tables_number	1
_symmetry_cell_setting	triclinic
loop_
_symmetry_equiv_pos_as_xyz
  x,y,z
_cell_length_a	18.3965
_cell_length_b	18.5561
_cell_length_c	48.8513
_cell_angle_alpha	90
_cell_angle_beta	90
_cell_angle_gamma	90
loop_
_atom_site_label
_atom_site_type_symbol
_atom_site_fract_x
_atom_site_fract_y
_atom_site_fract_z
_atom_site_charge
Mof_Dy	Dy	0.79993	0.57146	0.87826	2.512
Mof_Dy	Dy	0.63108	0.40166	0.87774	2.383
Mof_Dy	Dy	0.68263	0.51288	0.62402	2.265
Mof_Dy	Dy	0.29993	0.42854	0.62174	2.513
Mof_Dy	Dy	0.13108	0.59834	0.62226	2.383
Mof_Dy	Dy	0.18263	0.48712	0.87598	2.265
Mof_Dy	Dy	0.70007	0.07146	0.12174	2.509
Mof_Dy	Dy	0.86892	0.90166	0.12226	2.383
Mof_Dy	Dy	0.81737	0.01288	0.37598	2.259
Mof_Dy	Dy	0.20007	0.92854	0.37826	2.508
Mof_Dy	Dy	0.36892	0.09834	0.37774	2.383
Mof_Dy	Dy	0.31737	0.98712	0.12402	2.261
Mof_Dy	Dy	0.20007	0.42854	0.12174	2.512
Mof_Dy	Dy	0.36892	0.59834	0.12226	2.383
Mof_Dy	Dy	0.31737	0.48712	0.37598	2.265
Mof_Dy	Dy	0.70007	0.57146	0.37826	2.513
Mof_Dy	Dy	0.86892	0.40166	0.37774	2.383
Mof_Dy	Dy	0.81737	0.51288	0.12402	2.265
Mof_Dy	Dy	0.29993	0.92854	0.87826	2.509
Mof_Dy	Dy	0.13108	0.09834	0.87774	2.383
Mof_Dy	Dy	0.18263	0.98712	0.62402	2.26
Mof_Dy	Dy	0.79993	0.07146	0.62174	2.509
Mof_Dy	Dy	0.63108	0.90166	0.62226	2.384
Mof_Dy	Dy	0.68263	0.01288	0.87598	2.262
Mof_Co	Co	0.10867	0.74748	0.9979	1.17
Mof_Co	Co	0.45475	0.61441	0.75517	1.131
Mof_Co	Co	0.60867	0.25252	0.5021	1.17
Mof_Co	Co	0.95475	0.38559	0.74483	1.13
Mof_Co	Co	0.39133	0.24748	0.0021	1.17
Mof_Co	Co	0.04525	0.11441	0.24483	1.132
Mof_Co	Co	0.89133	0.75252	0.4979	1.17
Mof_Co	Co	0.54525	0.88559	0.25517	1.131
Mof_Co	Co	0.89133	0.25252	0.0021	1.17
Mof_Co	Co	0.54525	0.38559	0.24483	1.131
Mof_Co	Co	0.39133	0.74748	0.4979	1.17
Mof_Co	Co	0.04525	0.61441	0.25517	1.13
Mof_Co	Co	0.60867	0.75252	0.9979	1.17
Mof_Co	Co	0.95475	0.88559	0.75517	1.132
Mof_Co	Co	0.10867	0.24748	0.5021	1.17
Mof_Co	Co	0.45475	0.11441	0.74483	1.131
Mof_H 	H 	0.9623	0.5449	0.8682	0.371
Mof_H 	H 	0.9353	0.4756	0.8724	0.347
Mof_H 	H 	0.7968	0.7229	0.8886	0.405
Mof_H 	H 	0.7534	0.7216	0.8658	0.388
Mof_H 	H 	0.0049	0.7431	0.9482	-0.001
Mof_H 	H 	0.8743	0.5758	0.964	0.037
Mof_H 	H 	0.5304	0.502	0.9402	-0.006
Mof_H 	H 	0.667	0.6667	0.9499	-0.007
Mof_H 	H 	0.6818	0.6846	0.8323	-0.031
Mof_H 	H 	0.5321	0.5444	0.8062	-0.01
Mof_H 	H 	0.943	0.7981	0.8109	0.002
Mof_H 	H 	0.8022	0.6375	0.7997	0.015
Mof_H 	H 	0.9384	0.5537	0.0033	0.085
Mof_H 	H 	0.462	0.5449	0.9777	0.105
Mof_H 	H 	0.6555	0.7574	0.7944	0.096
Mof_H 	H 	0.7794	0.682	0.756	0.099
Mof_H 	H 	0.2082	0.6861	0.0434	-0.008
Mof_H 	H 	0.0078	0.5394	0.0401	0.08
Mof_H 	H 	0.4096	0.5921	0.0151	0.114
Mof_H 	H 	0.5381	0.7753	0.0547	-0.007
Mof_H 	H 	0.6441	0.8043	0.7536	0.089
Mof_H 	H 	0.4739	0.6989	0.6987	-0.001
Mof_H 	H 	0.5494	0.5754	0.7048	0.008
Mof_H 	H 	0.3546	0.5774	0.8048	0.005
Mof_H 	H 	0.7628	0.7304	0.7158	0.097
Mof_H 	H 	0.8742	0.9483	0.7026	-0.015
Mof_H 	H 	0.0903	0.5248	0.075	-0.002
Mof_H 	H 	0.3721	0.6381	0.0574	-0.011
Mof_H 	H 	0.6269	0.85	0.7106	0.029
Mof_H 	H 	0.4736	0.3538	0.7339	0.078
Mof_H 	H 	0.4258	0.3539	0.7761	0.076
Mof_H 	H 	0.739	0.7959	0.6765	-0.026
Mof_H 	H 	0.5383	0.3626	0.6935	0.026
Mof_H 	H 	0.3561	0.3638	0.8157	0.026
Mof_H 	H 	0.6328	0.6668	0.6255	0.399
Mof_H 	H 	0.7066	0.6716	0.6329	0.342
Mof_H 	H 	0.5201	0.5473	0.6063	0.379
Mof_H 	H 	0.5707	0.5313	0.5866	0.366
Mof_H 	H 	0.8649	0.6386	0.5397	0
Mof_H 	H 	0.6484	0.6316	0.5483	0.017
Mof_H 	H 	0.6373	0.7132	0.5128	0.087
Mof_H 	H 	0.6418	0.7915	0.4755	0.075
Mof_H 	H 	0.8734	0.8368	0.4449	0.011
Mof_H 	H 	0.6582	0.8597	0.4354	0.048
Mof_H 	H 	0.4651	0.4252	0.8921	0.421
Mof_H 	H 	0.519	0.394	0.9075	0.336
Mof_H 	H 	0.4623	0.4551	0.6318	0.371
Mof_H 	H 	0.4353	0.5244	0.6276	0.347
Mof_H 	H 	0.2968	0.2771	0.6114	0.405
Mof_H 	H 	0.2534	0.2784	0.6342	0.388
Mof_H 	H 	0.5049	0.2569	0.5518	0.001
Mof_H 	H 	0.3743	0.4242	0.536	0.037
Mof_H 	H 	0.0304	0.498	0.5598	-0.006
Mof_H 	H 	0.167	0.3333	0.5501	-0.007
Mof_H 	H 	0.1818	0.3154	0.6677	-0.031
Mof_H 	H 	0.0321	0.4556	0.6938	-0.01
Mof_H 	H 	0.443	0.2019	0.6891	0.002
Mof_H 	H 	0.3022	0.3625	0.7003	0.015
Mof_H 	H 	0.4384	0.4463	0.4967	0.086
Mof_H 	H 	0.962	0.4551	0.5223	0.104
Mof_H 	H 	0.1555	0.2426	0.7056	0.096
Mof_H 	H 	0.2794	0.318	0.744	0.099
Mof_H 	H 	0.7082	0.3139	0.4566	-0.008
Mof_H 	H 	0.5078	0.4606	0.4599	0.08
Mof_H 	H 	0.9096	0.4079	0.4849	0.114
Mof_H 	H 	0.0381	0.2247	0.4453	-0.007
Mof_H 	H 	0.1441	0.1957	0.7464	0.09
Mof_H 	H 	0.9739	0.3011	0.8013	-0.006
Mof_H 	H 	0.0494	0.4246	0.7952	0.007
Mof_H 	H 	0.8546	0.4226	0.6952	0.005
Mof_H 	H 	0.2628	0.2696	0.7842	0.097
Mof_H 	H 	0.3742	0.0517	0.7974	-0.015
Mof_H 	H 	0.5903	0.4752	0.425	-0.002
Mof_H 	H 	0.8721	0.3619	0.4426	-0.011
Mof_H 	H 	0.1269	0.15	0.7894	0.029
Mof_H 	H 	0.9736	0.6462	0.7661	0.079
Mof_H 	H 	0.9258	0.6461	0.7239	0.075
Mof_H 	H 	0.239	0.2041	0.8235	-0.027
Mof_H 	H 	0.0383	0.6374	0.8065	0.025
Mof_H 	H 	0.8561	0.6362	0.6843	0.026
Mof_H 	H 	0.1328	0.3332	0.8745	0.4
Mof_H 	H 	0.2066	0.3284	0.8671	0.342
Mof_H 	H 	0.0201	0.4527	0.8937	0.379
Mof_H 	H 	0.0707	0.4687	0.9134	0.366
Mof_H 	H 	0.3649	0.3614	0.9603	-0
Mof_H 	H 	0.1484	0.3684	0.9517	0.017
Mof_H 	H 	0.1373	0.2868	0.9872	0.087
Mof_H 	H 	0.1418	0.2085	0.0245	0.075
Mof_H 	H 	0.3734	0.1632	0.0551	0.01
Mof_H 	H 	0.1582	0.1403	0.0646	0.048
Mof_H 	H 	0.9651	0.5748	0.6079	0.42
Mof_H 	H 	0.019	0.606	0.5925	0.336
Mof_H 	H 	0.5377	0.0449	0.1318	0.371
Mof_H 	H 	0.5647	0.9756	0.1276	0.348
Mof_H 	H 	0.7032	0.2229	0.1114	0.405
Mof_H 	H 	0.7466	0.2216	0.1342	0.387
Mof_H 	H 	0.4951	0.2431	0.0518	0.001
Mof_H 	H 	0.6257	0.0758	0.036	0.037
Mof_H 	H 	0.9696	0.002	0.0598	-0.009
Mof_H 	H 	0.833	0.1667	0.0501	-0.007
Mof_H 	H 	0.8182	0.1846	0.1677	-0.03
Mof_H 	H 	0.9679	0.0444	0.1938	-0.011
Mof_H 	H 	0.557	0.2981	0.1891	0.002
Mof_H 	H 	0.6978	0.1375	0.2003	0.015
Mof_H 	H 	0.5616	0.0537	0.9967	0.086
Mof_H 	H 	0.038	0.0449	0.0223	0.111
Mof_H 	H 	0.8445	0.2574	0.2056	0.096
Mof_H 	H 	0.7206	0.182	0.244	0.099
Mof_H 	H 	0.2918	0.1861	0.9566	-0.008
Mof_H 	H 	0.4922	0.0394	0.9599	0.08
Mof_H 	H 	0.0904	0.0921	0.9849	0.115
Mof_H 	H 	0.9619	0.2753	0.9453	-0.006
Mof_H 	H 	0.8559	0.3043	0.2464	0.089
Mof_H 	H 	0.0261	0.1989	0.3013	-0
Mof_H 	H 	0.9506	0.0754	0.2952	0.01
Mof_H 	H 	0.1454	0.0774	0.1952	0.004
Mof_H 	H 	0.7372	0.2304	0.2842	0.097
Mof_H 	H 	0.6258	0.4483	0.2974	-0.016
Mof_H 	H 	0.4097	0.0248	0.925	-0.001
Mof_H 	H 	0.1279	0.1381	0.9426	-0.01
Mof_H 	H 	0.8731	0.35	0.2894	0.03
Mof_H 	H 	0.0264	0.8538	0.2661	0.08
Mof_H 	H 	0.0742	0.8539	0.2239	0.075
Mof_H 	H 	0.761	0.2959	0.3235	-0.027
Mof_H 	H 	0.9617	0.8626	0.3065	0.024
Mof_H 	H 	0.1439	0.8638	0.1843	0.026
Mof_H 	H 	0.8672	0.1668	0.3745	0.399
Mof_H 	H 	0.7934	0.1716	0.3671	0.342
Mof_H 	H 	0.9799	0.0473	0.3937	0.377
Mof_H 	H 	0.9293	0.0313	0.4134	0.365
Mof_H 	H 	0.6351	0.1386	0.4603	-0
Mof_H 	H 	0.8516	0.1316	0.4517	0.017
Mof_H 	H 	0.8627	0.2132	0.4872	0.087
Mof_H 	H 	0.8582	0.2915	0.5245	0.075
Mof_H 	H 	0.6266	0.3368	0.5551	0.01
Mof_H 	H 	0.8418	0.3597	0.5646	0.047
Mof_H 	H 	0.0349	0.9252	0.1079	0.414
Mof_H 	H 	0.981	0.894	0.0925	0.335
Mof_H 	H 	0.0377	0.9551	0.3682	0.372
Mof_H 	H 	0.0647	0.0244	0.3724	0.352
Mof_H 	H 	0.2032	0.7771	0.3886	0.405
Mof_H 	H 	0.2466	0.7784	0.3658	0.387
Mof_H 	H 	0.9951	0.7569	0.4482	0.006
Mof_H 	H 	0.1257	0.9242	0.464	0.036
Mof_H 	H 	0.4696	0.998	0.4402	-0.006
Mof_H 	H 	0.333	0.8333	0.4499	-0.007
Mof_H 	H 	0.3182	0.8154	0.3323	-0.031
Mof_H 	H 	0.4679	0.9556	0.3062	-0.01
Mof_H 	H 	0.057	0.7019	0.3109	0.001
Mof_H 	H 	0.1978	0.8625	0.2997	0.015
Mof_H 	H 	0.0616	0.9463	0.5033	0.086
Mof_H 	H 	0.538	0.9551	0.4777	0.105
Mof_H 	H 	0.3445	0.7426	0.2944	0.096
Mof_H 	H 	0.2206	0.818	0.256	0.099
Mof_H 	H 	0.7918	0.8139	0.5434	-0.008
Mof_H 	H 	0.9922	0.9606	0.5401	0.081
Mof_H 	H 	0.5904	0.9079	0.5151	0.114
Mof_H 	H 	0.4619	0.7247	0.5547	-0.007
Mof_H 	H 	0.3559	0.6957	0.2536	0.089
Mof_H 	H 	0.5261	0.8011	0.1987	-0.001
Mof_H 	H 	0.4506	0.9246	0.2048	0.008
Mof_H 	H 	0.6454	0.9226	0.3048	0.004
Mof_H 	H 	0.2372	0.7696	0.2158	0.097
Mof_H 	H 	0.1258	0.5517	0.2026	-0.016
Mof_H 	H 	0.9097	0.9752	0.575	0
Mof_H 	H 	0.6279	0.8619	0.5574	-0.011
Mof_H 	H 	0.3731	0.65	0.2106	0.029
Mof_H 	H 	0.5264	0.1462	0.2339	0.078
Mof_H 	H 	0.5742	0.1461	0.2761	0.076
Mof_H 	H 	0.261	0.7041	0.1765	-0.027
Mof_H 	H 	0.4617	0.1374	0.1935	0.026
Mof_H 	H 	0.6439	0.1362	0.3157	0.026
Mof_H 	H 	0.3672	0.8332	0.1255	0.399
Mof_H 	H 	0.2934	0.8284	0.1329	0.342
Mof_H 	H 	0.4799	0.9527	0.1063	0.379
Mof_H 	H 	0.4293	0.9687	0.0866	0.366
Mof_H 	H 	0.1351	0.8614	0.0397	-0
Mof_H 	H 	0.3516	0.8684	0.0483	0.017
Mof_H 	H 	0.3627	0.7868	0.0128	0.087
Mof_H 	H 	0.3582	0.7085	0.9755	0.075
Mof_H 	H 	0.1266	0.6632	0.9449	0.01
Mof_H 	H 	0.3418	0.6403	0.9354	0.047
Mof_H 	H 	0.5349	0.0748	0.3921	0.421
Mof_H 	H 	0.481	0.106	0.4075	0.336
Mof_H 	H 	0.0377	0.4551	0.1318	0.371
Mof_H 	H 	0.0647	0.5244	0.1276	0.347
Mof_H 	H 	0.2032	0.2771	0.1114	0.405
Mof_H 	H 	0.2466	0.2784	0.1342	0.388
Mof_H 	H 	0.9951	0.2569	0.0518	-0.001
Mof_H 	H 	0.1257	0.4242	0.036	0.037
Mof_H 	H 	0.4696	0.498	0.0598	-0.006
Mof_H 	H 	0.333	0.3333	0.0501	-0.007
Mof_H 	H 	0.3182	0.3154	0.1677	-0.031
Mof_H 	H 	0.4679	0.4556	0.1938	-0.01
Mof_H 	H 	0.057	0.2019	0.1891	0.002
Mof_H 	H 	0.1978	0.3625	0.2003	0.015
Mof_H 	H 	0.0616	0.4463	0.9967	0.085
Mof_H 	H 	0.538	0.4551	0.0223	0.105
Mof_H 	H 	0.3445	0.2426	0.2056	0.096
Mof_H 	H 	0.2206	0.318	0.244	0.099
Mof_H 	H 	0.7918	0.3139	0.9566	-0.008
Mof_H 	H 	0.9922	0.4606	0.9599	0.08
Mof_H 	H 	0.5904	0.4079	0.9849	0.114
Mof_H 	H 	0.4619	0.2247	0.9453	-0.007
Mof_H 	H 	0.3559	0.1957	0.2464	0.089
Mof_H 	H 	0.5261	0.3011	0.3013	-0.001
Mof_H 	H 	0.4506	0.4246	0.2952	0.008
Mof_H 	H 	0.6454	0.4226	0.1952	0.005
Mof_H 	H 	0.2372	0.2696	0.2842	0.097
Mof_H 	H 	0.1258	0.0517	0.2974	-0.015
Mof_H 	H 	0.9097	0.4752	0.925	-0.002
Mof_H 	H 	0.6279	0.3619	0.9426	-0.011
Mof_H 	H 	0.3731	0.15	0.2894	0.029
Mof_H 	H 	0.5264	0.6462	0.2661	0.078
Mof_H 	H 	0.5742	0.6461	0.2239	0.076
Mof_H 	H 	0.261	0.2041	0.3235	-0.026
Mof_H 	H 	0.4617	0.6374	0.3065	0.026
Mof_H 	H 	0.6439	0.6362	0.1843	0.026
Mof_H 	H 	0.3672	0.3332	0.3745	0.399
Mof_H 	H 	0.2934	0.3284	0.3671	0.342
Mof_H 	H 	0.4799	0.4527	0.3937	0.379
Mof_H 	H 	0.4293	0.4687	0.4134	0.366
Mof_H 	H 	0.1351	0.3614	0.4603	0
Mof_H 	H 	0.3516	0.3684	0.4517	0.017
Mof_H 	H 	0.3627	0.2868	0.4872	0.087
Mof_H 	H 	0.3582	0.2085	0.5245	0.075
Mof_H 	H 	0.1266	0.1632	0.5551	0.011
Mof_H 	H 	0.3418	0.1403	0.5646	0.048
Mof_H 	H 	0.5349	0.5748	0.1079	0.421
Mof_H 	H 	0.481	0.606	0.0925	0.336
Mof_H 	H 	0.5377	0.5449	0.3682	0.371
Mof_H 	H 	0.5647	0.4756	0.3724	0.347
Mof_H 	H 	0.7032	0.7229	0.3886	0.405
Mof_H 	H 	0.7466	0.7216	0.3658	0.388
Mof_H 	H 	0.4951	0.7431	0.4482	0.001
Mof_H 	H 	0.6257	0.5758	0.464	0.037
Mof_H 	H 	0.9696	0.502	0.4402	-0.006
Mof_H 	H 	0.833	0.6667	0.4499	-0.007
Mof_H 	H 	0.8182	0.6846	0.3323	-0.031
Mof_H 	H 	0.9679	0.5444	0.3062	-0.01
Mof_H 	H 	0.557	0.7981	0.3109	0.002
Mof_H 	H 	0.6978	0.6375	0.2997	0.015
Mof_H 	H 	0.5616	0.5537	0.5033	0.086
Mof_H 	H 	0.038	0.5449	0.4777	0.104
Mof_H 	H 	0.8445	0.7574	0.2944	0.096
Mof_H 	H 	0.7206	0.682	0.256	0.099
Mof_H 	H 	0.2918	0.6861	0.5434	-0.008
Mof_H 	H 	0.4922	0.5394	0.5401	0.08
Mof_H 	H 	0.0904	0.5921	0.5151	0.114
Mof_H 	H 	0.9619	0.7753	0.5547	-0.007
Mof_H 	H 	0.8559	0.8043	0.2536	0.09
Mof_H 	H 	0.0261	0.6989	0.1987	-0.006
Mof_H 	H 	0.9506	0.5754	0.2048	0.007
Mof_H 	H 	0.1454	0.5774	0.3048	0.005
Mof_H 	H 	0.7372	0.7304	0.2158	0.097
Mof_H 	H 	0.6258	0.9483	0.2026	-0.015
Mof_H 	H 	0.4097	0.5248	0.575	-0.002
Mof_H 	H 	0.1279	0.6381	0.5574	-0.011
Mof_H 	H 	0.8731	0.85	0.2106	0.029
Mof_H 	H 	0.0264	0.3538	0.2339	0.079
Mof_H 	H 	0.0742	0.3539	0.2761	0.075
Mof_H 	H 	0.761	0.7959	0.1765	-0.027
Mof_H 	H 	0.9617	0.3626	0.1935	0.025
Mof_H 	H 	0.1439	0.3638	0.3157	0.026
Mof_H 	H 	0.8672	0.6668	0.1255	0.4
Mof_H 	H 	0.7934	0.6716	0.1329	0.342
Mof_H 	H 	0.9799	0.5473	0.1063	0.379
Mof_H 	H 	0.9293	0.5313	0.0866	0.366
Mof_H 	H 	0.6351	0.6386	0.0397	-0
Mof_H 	H 	0.8516	0.6316	0.0483	0.017
Mof_H 	H 	0.8627	0.7132	0.0128	0.087
Mof_H 	H 	0.8582	0.7915	0.9755	0.075
Mof_H 	H 	0.6266	0.8368	0.9449	0.01
Mof_H 	H 	0.8418	0.8597	0.9354	0.048
Mof_H 	H 	0.0349	0.4252	0.3921	0.42
Mof_H 	H 	0.981	0.394	0.4075	0.336
Mof_H 	H 	0.4623	0.9551	0.8682	0.371
Mof_H 	H 	0.4353	0.0244	0.8724	0.348
Mof_H 	H 	0.2968	0.7771	0.8886	0.405
Mof_H 	H 	0.2534	0.7784	0.8658	0.387
Mof_H 	H 	0.5049	0.7569	0.9482	0.001
Mof_H 	H 	0.3743	0.9242	0.964	0.037
Mof_H 	H 	0.0304	0.998	0.9402	-0.009
Mof_H 	H 	0.167	0.8333	0.9499	-0.007
Mof_H 	H 	0.1818	0.8154	0.8323	-0.03
Mof_H 	H 	0.0321	0.9556	0.8062	-0.011
Mof_H 	H 	0.443	0.7019	0.8109	0.002
Mof_H 	H 	0.3022	0.8625	0.7997	0.015
Mof_H 	H 	0.4384	0.9463	0.0033	0.086
Mof_H 	H 	0.962	0.9551	0.9777	0.111
Mof_H 	H 	0.1555	0.7426	0.7944	0.096
Mof_H 	H 	0.2794	0.818	0.756	0.099
Mof_H 	H 	0.7082	0.8139	0.0434	-0.008
Mof_H 	H 	0.5078	0.9606	0.0401	0.08
Mof_H 	H 	0.9096	0.9079	0.0151	0.115
Mof_H 	H 	0.0381	0.7247	0.0547	-0.006
Mof_H 	H 	0.1441	0.6957	0.7536	0.089
Mof_H 	H 	0.9739	0.8011	0.6987	-0
Mof_H 	H 	0.0494	0.9246	0.7048	0.01
Mof_H 	H 	0.8546	0.9226	0.8048	0.004
Mof_H 	H 	0.2628	0.7696	0.7158	0.097
Mof_H 	H 	0.3742	0.5517	0.7026	-0.016
Mof_H 	H 	0.5903	0.9752	0.075	-0.001
Mof_H 	H 	0.8721	0.8619	0.0574	-0.01
Mof_H 	H 	0.1269	0.65	0.7106	0.03
Mof_H 	H 	0.9736	0.1462	0.7339	0.08
Mof_H 	H 	0.9258	0.1461	0.7761	0.075
Mof_H 	H 	0.239	0.7041	0.6765	-0.027
Mof_H 	H 	0.0383	0.1374	0.6935	0.024
Mof_H 	H 	0.8561	0.1362	0.8157	0.026
Mof_H 	H 	0.1328	0.8332	0.6255	0.399
Mof_H 	H 	0.2066	0.8284	0.6329	0.342
Mof_H 	H 	0.0201	0.9527	0.6063	0.377
Mof_H 	H 	0.0707	0.9687	0.5866	0.365
Mof_H 	H 	0.3649	0.8614	0.5397	-0
Mof_H 	H 	0.1484	0.8684	0.5483	0.017
Mof_H 	H 	0.1373	0.7868	0.5128	0.087
Mof_H 	H 	0.1418	0.7085	0.4755	0.075
Mof_H 	H 	0.3734	0.6632	0.4449	0.01
Mof_H 	H 	0.1582	0.6403	0.4354	0.047
Mof_H 	H 	0.9651	0.0748	0.8921	0.414
Mof_H 	H 	0.019	0.106	0.9075	0.335
Mof_H 	H 	0.9623	0.0449	0.6318	0.372
Mof_H 	H 	0.9353	0.9756	0.6276	0.352
Mof_H 	H 	0.7968	0.2229	0.6114	0.405
Mof_H 	H 	0.7534	0.2216	0.6342	0.387
Mof_H 	H 	0.0049	0.2431	0.5518	0.006
Mof_H 	H 	0.8743	0.0758	0.536	0.036
Mof_H 	H 	0.5304	0.002	0.5598	-0.006
Mof_H 	H 	0.667	0.1667	0.5501	-0.007
Mof_H 	H 	0.6818	0.1846	0.6677	-0.031
Mof_H 	H 	0.5321	0.0444	0.6938	-0.01
Mof_H 	H 	0.943	0.2981	0.6891	0.001
Mof_H 	H 	0.8022	0.1375	0.7003	0.015
Mof_H 	H 	0.9384	0.0537	0.4967	0.086
Mof_H 	H 	0.462	0.0449	0.5223	0.105
Mof_H 	H 	0.6555	0.2574	0.7056	0.096
Mof_H 	H 	0.7794	0.182	0.744	0.099
Mof_H 	H 	0.2082	0.1861	0.4566	-0.008
Mof_H 	H 	0.0078	0.0394	0.4599	0.081
Mof_H 	H 	0.4096	0.0921	0.4849	0.114
Mof_H 	H 	0.5381	0.2753	0.4453	-0.007
Mof_H 	H 	0.6441	0.3043	0.7464	0.089
Mof_H 	H 	0.4739	0.1989	0.8013	-0.001
Mof_H 	H 	0.5494	0.0754	0.7952	0.008
Mof_H 	H 	0.3546	0.0774	0.6952	0.004
Mof_H 	H 	0.7628	0.2304	0.7842	0.097
Mof_H 	H 	0.8742	0.4483	0.7974	-0.016
Mof_H 	H 	0.0903	0.0248	0.425	0
Mof_H 	H 	0.3721	0.1381	0.4426	-0.011
Mof_H 	H 	0.6269	0.35	0.7894	0.029
Mof_H 	H 	0.4736	0.8538	0.7661	0.078
Mof_H 	H 	0.4258	0.8539	0.7239	0.076
Mof_H 	H 	0.739	0.2959	0.8235	-0.027
Mof_H 	H 	0.5383	0.8626	0.8065	0.026
Mof_H 	H 	0.3561	0.8638	0.6843	0.026
Mof_H 	H 	0.6328	0.1668	0.8745	0.399
Mof_H 	H 	0.7066	0.1716	0.8671	0.342
Mof_H 	H 	0.5201	0.0473	0.8937	0.379
Mof_H 	H 	0.5707	0.0313	0.9134	0.366
Mof_H 	H 	0.8649	0.1386	0.9603	-0
Mof_H 	H 	0.6484	0.1316	0.9517	0.017
Mof_H 	H 	0.6373	0.2132	0.9872	0.087
Mof_H 	H 	0.6418	0.2915	0.0245	0.075
Mof_H 	H 	0.8734	0.3368	0.0551	0.01
Mof_H 	H 	0.6582	0.3597	0.0646	0.047
Mof_H 	H 	0.4651	0.9252	0.6079	0.421
Mof_H 	H 	0.519	0.894	0.5925	0.336
Mof_C 	C 	0.8941	0.6695	0.924	0.441
Mof_C 	C 	0.6556	0.5495	0.9195	0.572
Mof_C 	C 	0.6348	0.5519	0.8449	0.589
Mof_C 	C 	0.8956	0.6893	0.8385	0.435
Mof_C 	C 	0.9357	0.6592	0.9511	-0.149
Mof_C 	C 	0.6081	0.5777	0.9425	-0.209
Mof_C 	C 	0.6113	0.6046	0.823	-0.222
Mof_C 	C 	0.875	0.7131	0.8098	-0.174
Mof_C 	C 	0.9929	0.7035	0.9589	0.097
Mof_C 	C 	0.9145	0.6039	0.9684	0.075
Mof_C 	C 	0.5455	0.5425	0.9498	0.137
Mof_C 	C 	0.6264	0.6411	0.9558	0.151
Mof_C 	C 	0.6475	0.6699	0.8194	0.152
Mof_C 	C 	0.5583	0.5867	0.8037	0.154
Mof_C 	C 	0.9097	0.7747	0.7997	0.096
Mof_C 	C 	0.8261	0.6785	0.7935	0.096
Mof_C 	C 	0.9524	0.5908	0.9916	-0.132
Mof_C 	C 	0.5043	0.5682	0.9721	-0.16
Mof_C 	C 	0.6326	0.7131	0.7968	-0.173
Mof_C 	C 	0.8121	0.7052	0.7675	-0.147
Mof_C 	C 	0.012	0.633	0.9977	0.053
Mof_C 	C 	0.5291	0.6299	0.9854	0.076
Mof_C 	C 	0.5822	0.6876	0.7779	0.085
Mof_C 	C 	0.8479	0.7673	0.7589	0.058
Mof_C 	C 	0.0611	0.6206	0.0212	0.065
Mof_C 	C 	0.4969	0.6566	0.0109	0.062
Mof_C 	C 	0.5706	0.7248	0.7511	0.054
Mof_C 	C 	0.8333	0.8026	0.7323	0.073
Mof_C 	C 	0.1677	0.6562	0.0427	0.142
Mof_C 	C 	0.049	0.5684	0.041	-0.152
Mof_C 	C 	0.4357	0.629	0.0234	-0.162
Mof_C 	C 	0.5117	0.7382	0.0466	0.117
Mof_C 	C 	0.6101	0.7831	0.742	-0.132
Mof_C 	C 	0.5088	0.7202	0.7098	0.094
Mof_C 	C 	0.5329	0.5304	0.7104	0.092
Mof_C 	C 	0.4743	0.4598	0.7424	0.068
Mof_C 	C 	0.4303	0.4605	0.7681	0.066
Mof_C 	C 	0.3692	0.5319	0.7991	0.092
Mof_C 	C 	0.785	0.7748	0.713	-0.177
Mof_C 	C 	0.8516	0.904	0.7053	0.162
Mof_C 	C 	0.1595	0.6025	0.0627	-0.2
Mof_C 	C 	0.0982	0.5597	0.0616	0.12
Mof_C 	C 	0.4129	0.6566	0.0487	0.107
Mof_C 	C 	0.4522	0.7118	0.0602	-0.216
Mof_C 	C 	0.6003	0.8103	0.7164	0.081
Mof_C 	C 	0.5498	0.7778	0.6991	-0.161
Mof_C 	C 	0.55	0.47	0.6943	-0.116
Mof_C 	C 	0.4893	0.3985	0.7276	-0.118
Mof_C 	C 	0.4109	0.3989	0.7823	-0.113
Mof_C 	C 	0.3469	0.4723	0.8142	-0.11
Mof_C 	C 	0.7706	0.8141	0.6897	0.158
Mof_C 	C 	0.803	0.8804	0.6858	-0.242
Mof_C 	C 	0.2155	0.5902	0.0852	0.534
Mof_C 	C 	0.4294	0.7466	0.0869	0.451
Mof_C 	C 	0.5373	0.7996	0.6698	0.429
Mof_C 	C 	0.5909	0.4829	0.6682	0.34
Mof_C 	C 	0.5276	0.4038	0.7035	0.063
Mof_C 	C 	0.3691	0.4046	0.8058	0.056
Mof_C 	C 	0.2954	0.4814	0.8381	0.347
Mof_C 	C 	0.7839	0.9263	0.6617	0.578
Mof_C 	C 	0.7718	0.571	0.5702	0.439
Mof_C 	C 	0.7569	0.6259	0.5474	-0.141
Mof_C 	C 	0.8188	0.654	0.5344	0.109
Mof_C 	C 	0.6897	0.649	0.5395	0.099
Mof_C 	C 	0.683	0.6982	0.5185	-0.135
Mof_C 	C 	0.7444	0.725	0.5061	0.072
Mof_C 	C 	0.747	0.7745	0.4821	0.059
Mof_C 	C 	0.6883	0.8005	0.4689	-0.096
Mof_C 	C 	0.8262	0.8276	0.4509	0.086
Mof_C 	C 	0.698	0.8414	0.4449	0.05
Mof_C 	C 	0.7679	0.8535	0.4358	-0.097
Mof_C 	C 	0.7842	0.8972	0.4101	0.336
Mof_C 	C 	0.3941	0.3305	0.576	0.441
Mof_C 	C 	0.1556	0.4505	0.5805	0.572
Mof_C 	C 	0.1348	0.4481	0.6551	0.589
Mof_C 	C 	0.3956	0.3107	0.6615	0.435
Mof_C 	C 	0.4357	0.3408	0.5489	-0.148
Mof_C 	C 	0.1081	0.4223	0.5575	-0.208
Mof_C 	C 	0.1113	0.3954	0.677	-0.222
Mof_C 	C 	0.375	0.2869	0.6902	-0.174
Mof_C 	C 	0.4929	0.2965	0.5411	0.092
Mof_C 	C 	0.4145	0.3961	0.5316	0.074
Mof_C 	C 	0.0455	0.4575	0.5502	0.137
Mof_C 	C 	0.1264	0.3589	0.5442	0.151
Mof_C 	C 	0.1475	0.3301	0.6806	0.152
Mof_C 	C 	0.0583	0.4133	0.6963	0.154
Mof_C 	C 	0.4097	0.2253	0.7003	0.096
Mof_C 	C 	0.3261	0.3215	0.7065	0.096
Mof_C 	C 	0.4524	0.4092	0.5084	-0.134
Mof_C 	C 	0.0043	0.4318	0.5279	-0.159
Mof_C 	C 	0.1326	0.2869	0.7032	-0.173
Mof_C 	C 	0.3121	0.2948	0.7325	-0.147
Mof_C 	C 	0.512	0.367	0.5023	0.054
Mof_C 	C 	0.0291	0.3701	0.5146	0.078
Mof_C 	C 	0.0822	0.3124	0.7221	0.085
Mof_C 	C 	0.3479	0.2327	0.7411	0.058
Mof_C 	C 	0.5611	0.3794	0.4788	0.065
Mof_C 	C 	0.9969	0.3434	0.4891	0.06
Mof_C 	C 	0.0706	0.2752	0.7489	0.056
Mof_C 	C 	0.3333	0.1974	0.7677	0.073
Mof_C 	C 	0.6677	0.3438	0.4573	0.142
Mof_C 	C 	0.549	0.4316	0.459	-0.151
Mof_C 	C 	0.9357	0.371	0.4766	-0.161
Mof_C 	C 	0.0117	0.2618	0.4534	0.119
Mof_C 	C 	0.1101	0.2169	0.758	-0.134
Mof_C 	C 	0.0088	0.2798	0.7902	0.103
Mof_C 	C 	0.0329	0.4696	0.7896	0.096
Mof_C 	C 	0.9743	0.5402	0.7576	0.069
Mof_C 	C 	0.9303	0.5395	0.7319	0.065
Mof_C 	C 	0.8692	0.4681	0.7009	0.092
Mof_C 	C 	0.285	0.2252	0.787	-0.177
Mof_C 	C 	0.3516	0.096	0.7947	0.162
Mof_C 	C 	0.6595	0.3975	0.4373	-0.2
Mof_C 	C 	0.5982	0.4403	0.4384	0.12
Mof_C 	C 	0.9129	0.3434	0.4513	0.107
Mof_C 	C 	0.9522	0.2882	0.4398	-0.218
Mof_C 	C 	0.1003	0.1897	0.7836	0.084
Mof_C 	C 	0.0498	0.2222	0.8009	-0.165
Mof_C 	C 	0.05	0.53	0.8057	-0.118
Mof_C 	C 	0.9893	0.6015	0.7724	-0.122
Mof_C 	C 	0.9109	0.6011	0.7177	-0.112
Mof_C 	C 	0.8469	0.5277	0.6858	-0.11
Mof_C 	C 	0.2706	0.1859	0.8103	0.158
Mof_C 	C 	0.303	0.1196	0.8142	-0.243
Mof_C 	C 	0.7155	0.4098	0.4148	0.534
Mof_C 	C 	0.9294	0.2534	0.4131	0.451
Mof_C 	C 	0.0373	0.2004	0.8302	0.436
Mof_C 	C 	0.0909	0.5171	0.8318	0.341
Mof_C 	C 	0.0276	0.5962	0.7965	0.067
Mof_C 	C 	0.8691	0.5954	0.6942	0.056
Mof_C 	C 	0.7954	0.5186	0.6619	0.347
Mof_C 	C 	0.2839	0.0737	0.8383	0.579
Mof_C 	C 	0.2718	0.429	0.9298	0.439
Mof_C 	C 	0.2569	0.3741	0.9526	-0.141
Mof_C 	C 	0.3188	0.346	0.9656	0.109
Mof_C 	C 	0.1897	0.351	0.9605	0.099
Mof_C 	C 	0.183	0.3018	0.9815	-0.135
Mof_C 	C 	0.2444	0.275	0.9939	0.073
Mof_C 	C 	0.247	0.2255	0.0179	0.059
Mof_C 	C 	0.1883	0.1995	0.0311	-0.096
Mof_C 	C 	0.3262	0.1724	0.0491	0.086
Mof_C 	C 	0.198	0.1586	0.0551	0.05
Mof_C 	C 	0.2679	0.1465	0.0642	-0.097
Mof_C 	C 	0.2842	0.1028	0.0899	0.336
Mof_C 	C 	0.6059	0.1695	0.076	0.441
Mof_C 	C 	0.8444	0.0495	0.0805	0.568
Mof_C 	C 	0.8652	0.0519	0.1551	0.584
Mof_C 	C 	0.6044	0.1893	0.1615	0.435
Mof_C 	C 	0.5643	0.1592	0.0489	-0.148
Mof_C 	C 	0.8919	0.0777	0.0575	-0.21
Mof_C 	C 	0.8887	0.1046	0.177	-0.221
Mof_C 	C 	0.625	0.2131	0.1902	-0.174
Mof_C 	C 	0.5071	0.2035	0.0411	0.092
Mof_C 	C 	0.5855	0.1039	0.0316	0.075
Mof_C 	C 	0.9545	0.0425	0.0502	0.141
Mof_C 	C 	0.8736	0.1411	0.0442	0.152
Mof_C 	C 	0.8525	0.1699	0.1806	0.151
Mof_C 	C 	0.9417	0.0867	0.1963	0.153
Mof_C 	C 	0.5903	0.2747	0.2003	0.096
Mof_C 	C 	0.6739	0.1785	0.2065	0.096
Mof_C 	C 	0.5476	0.0908	0.0084	-0.134
Mof_C 	C 	0.9957	0.0682	0.0279	-0.169
Mof_C 	C 	0.8674	0.2131	0.2032	-0.172
Mof_C 	C 	0.6879	0.2052	0.2325	-0.147
Mof_C 	C 	0.488	0.133	0.0023	0.054
Mof_C 	C 	0.9709	0.1299	0.0146	0.076
Mof_C 	C 	0.9178	0.1876	0.2221	0.084
Mof_C 	C 	0.6521	0.2673	0.2411	0.058
Mof_C 	C 	0.4389	0.1206	0.9788	0.065
Mof_C 	C 	0.0031	0.1566	0.9891	0.066
Mof_C 	C 	0.9294	0.2248	0.2489	0.054
Mof_C 	C 	0.6667	0.3026	0.2677	0.073
Mof_C 	C 	0.3323	0.1562	0.9573	0.142
Mof_C 	C 	0.451	0.0684	0.959	-0.151
Mof_C 	C 	0.0643	0.129	0.9766	-0.162
Mof_C 	C 	0.9883	0.2382	0.9534	0.112
Mof_C 	C 	0.8899	0.2831	0.258	-0.132
Mof_C 	C 	0.9912	0.2202	0.2902	0.092
Mof_C 	C 	0.9671	0.0304	0.2896	0.086
Mof_C 	C 	0.0257	0.9598	0.2576	0.067
Mof_C 	C 	0.0697	0.9605	0.2319	0.062
Mof_C 	C 	0.1308	0.0319	0.2009	0.096
Mof_C 	C 	0.715	0.2748	0.287	-0.177
Mof_C 	C 	0.6484	0.404	0.2947	0.162
Mof_C 	C 	0.3405	0.1025	0.9373	-0.199
Mof_C 	C 	0.4018	0.0597	0.9384	0.12
Mof_C 	C 	0.0871	0.1566	0.9513	0.106
Mof_C 	C 	0.0478	0.2118	0.9398	-0.212
Mof_C 	C 	0.8997	0.3103	0.2836	0.08
Mof_C 	C 	0.9502	0.2778	0.3009	-0.16
Mof_C 	C 	0.95	0.97	0.3057	-0.114
Mof_C 	C 	0.0107	0.8985	0.2724	-0.127
Mof_C 	C 	0.0891	0.8989	0.2177	-0.113
Mof_C 	C 	0.1531	0.9723	0.1858	-0.113
Mof_C 	C 	0.7294	0.3141	0.3103	0.158
Mof_C 	C 	0.697	0.3804	0.3142	-0.243
Mof_C 	C 	0.2845	0.0902	0.9148	0.534
Mof_C 	C 	0.0706	0.2466	0.9131	0.45
Mof_C 	C 	0.9627	0.2996	0.3302	0.428
Mof_C 	C 	0.9091	0.9829	0.3318	0.344
Mof_C 	C 	0.9724	0.9038	0.2965	0.071
Mof_C 	C 	0.1309	0.9046	0.1942	0.056
Mof_C 	C 	0.2046	0.9814	0.1619	0.345
Mof_C 	C 	0.7161	0.4263	0.3383	0.579
Mof_C 	C 	0.7282	0.071	0.4298	0.438
Mof_C 	C 	0.7431	0.1259	0.4526	-0.141
Mof_C 	C 	0.6812	0.154	0.4656	0.109
Mof_C 	C 	0.8103	0.149	0.4605	0.099
Mof_C 	C 	0.817	0.1982	0.4815	-0.135
Mof_C 	C 	0.7556	0.225	0.4939	0.072
Mof_C 	C 	0.753	0.2745	0.5179	0.059
Mof_C 	C 	0.8117	0.3005	0.5311	-0.097
Mof_C 	C 	0.6738	0.3276	0.5491	0.086
Mof_C 	C 	0.802	0.3414	0.5551	0.05
Mof_C 	C 	0.7321	0.3535	0.5642	-0.097
Mof_C 	C 	0.7158	0.3972	0.5899	0.336
Mof_C 	C 	0.1059	0.8305	0.424	0.44
Mof_C 	C 	0.3444	0.9505	0.4195	0.57
Mof_C 	C 	0.3652	0.9481	0.3449	0.587
Mof_C 	C 	0.1044	0.8107	0.3385	0.435
Mof_C 	C 	0.0643	0.8408	0.4511	-0.146
Mof_C 	C 	0.3919	0.9223	0.4425	-0.208
Mof_C 	C 	0.3887	0.8954	0.323	-0.222
Mof_C 	C 	0.125	0.7869	0.3098	-0.175
Mof_C 	C 	0.0071	0.7965	0.4589	0.084
Mof_C 	C 	0.0855	0.8961	0.4684	0.075
Mof_C 	C 	0.4545	0.9575	0.4498	0.137
Mof_C 	C 	0.3736	0.8589	0.4558	0.151
Mof_C 	C 	0.3525	0.8301	0.3194	0.152
Mof_C 	C 	0.4417	0.9133	0.3037	0.153
Mof_C 	C 	0.0903	0.7253	0.2997	0.096
Mof_C 	C 	0.1739	0.8215	0.2935	0.096
Mof_C 	C 	0.0476	0.9092	0.4916	-0.139
Mof_C 	C 	0.4957	0.9318	0.4721	-0.16
Mof_C 	C 	0.3674	0.7869	0.2968	-0.173
Mof_C 	C 	0.1879	0.7948	0.2675	-0.147
Mof_C 	C 	0.988	0.867	0.4977	0.059
Mof_C 	C 	0.4709	0.8701	0.4854	0.076
Mof_C 	C 	0.4178	0.8124	0.2779	0.085
Mof_C 	C 	0.1521	0.7327	0.2589	0.058
Mof_C 	C 	0.9389	0.8794	0.5212	0.064
Mof_C 	C 	0.5031	0.8434	0.5109	0.062
Mof_C 	C 	0.4294	0.7752	0.2511	0.054
Mof_C 	C 	0.1667	0.6974	0.2323	0.073
Mof_C 	C 	0.8323	0.8438	0.5427	0.141
Mof_C 	C 	0.951	0.9316	0.541	-0.15
Mof_C 	C 	0.5643	0.871	0.5234	-0.162
Mof_C 	C 	0.4883	0.7618	0.5466	0.117
Mof_C 	C 	0.3899	0.7169	0.242	-0.132
Mof_C 	C 	0.4912	0.7798	0.2098	0.094
Mof_C 	C 	0.4671	0.9696	0.2104	0.092
Mof_C 	C 	0.5257	0.0402	0.2424	0.068
Mof_C 	C 	0.5697	0.0395	0.2681	0.065
Mof_C 	C 	0.6308	0.9681	0.2991	0.094
Mof_C 	C 	0.215	0.7252	0.213	-0.177
Mof_C 	C 	0.1484	0.596	0.2053	0.162
Mof_C 	C 	0.8405	0.8975	0.5627	-0.199
Mof_C 	C 	0.9018	0.9403	0.5616	0.12
Mof_C 	C 	0.5871	0.8434	0.5487	0.107
Mof_C 	C 	0.5478	0.7882	0.5602	-0.216
Mof_C 	C 	0.3997	0.6897	0.2164	0.081
Mof_C 	C 	0.4502	0.7222	0.1991	-0.161
Mof_C 	C 	0.45	0.03	0.1943	-0.116
Mof_C 	C 	0.5107	0.1015	0.2276	-0.118
Mof_C 	C 	0.5891	0.1011	0.2823	-0.113
Mof_C 	C 	0.6531	0.0277	0.3142	-0.111
Mof_C 	C 	0.2294	0.6859	0.1897	0.158
Mof_C 	C 	0.197	0.6196	0.1858	-0.243
Mof_C 	C 	0.7845	0.9098	0.5852	0.534
Mof_C 	C 	0.5706	0.7534	0.5869	0.451
Mof_C 	C 	0.4627	0.7004	0.1698	0.429
Mof_C 	C 	0.4091	0.0171	0.1682	0.341
Mof_C 	C 	0.4724	0.0962	0.2035	0.063
Mof_C 	C 	0.6309	0.0954	0.3058	0.056
Mof_C 	C 	0.7046	0.0186	0.3381	0.345
Mof_C 	C 	0.2161	0.5737	0.1617	0.579
Mof_C 	C 	0.2282	0.929	0.0702	0.438
Mof_C 	C 	0.2431	0.8741	0.0474	-0.141
Mof_C 	C 	0.1812	0.846	0.0344	0.109
Mof_C 	C 	0.3103	0.851	0.0395	0.099
Mof_C 	C 	0.317	0.8018	0.0185	-0.135
Mof_C 	C 	0.2556	0.775	0.0061	0.072
Mof_C 	C 	0.253	0.7255	0.9821	0.059
Mof_C 	C 	0.3117	0.6995	0.9689	-0.097
Mof_C 	C 	0.1738	0.6724	0.9509	0.086
Mof_C 	C 	0.302	0.6586	0.9449	0.05
Mof_C 	C 	0.2321	0.6465	0.9358	-0.097
Mof_C 	C 	0.2158	0.6028	0.9101	0.336
Mof_C 	C 	0.1059	0.3305	0.076	0.441
Mof_C 	C 	0.3444	0.4505	0.0805	0.572
Mof_C 	C 	0.3652	0.4481	0.1551	0.589
Mof_C 	C 	0.1044	0.3107	0.1615	0.435
Mof_C 	C 	0.0643	0.3408	0.0489	-0.149
Mof_C 	C 	0.3919	0.4223	0.0575	-0.209
Mof_C 	C 	0.3887	0.3954	0.177	-0.222
Mof_C 	C 	0.125	0.2869	0.1902	-0.174
Mof_C 	C 	0.0071	0.2965	0.0411	0.097
Mof_C 	C 	0.0855	0.3961	0.0316	0.075
Mof_C 	C 	0.4545	0.4575	0.0502	0.137
Mof_C 	C 	0.3736	0.3589	0.0442	0.151
Mof_C 	C 	0.3525	0.3301	0.1806	0.152
Mof_C 	C 	0.4417	0.4133	0.1963	0.154
Mof_C 	C 	0.0903	0.2253	0.2003	0.096
Mof_C 	C 	0.1739	0.3215	0.2065	0.096
Mof_C 	C 	0.0476	0.4092	0.0084	-0.132
Mof_C 	C 	0.4957	0.4318	0.0279	-0.16
Mof_C 	C 	0.3674	0.2869	0.2032	-0.173
Mof_C 	C 	0.1879	0.2948	0.2325	-0.147
Mof_C 	C 	0.988	0.367	0.0023	0.053
Mof_C 	C 	0.4709	0.3701	0.0146	0.076
Mof_C 	C 	0.4178	0.3124	0.2221	0.085
Mof_C 	C 	0.1521	0.2327	0.2411	0.058
Mof_C 	C 	0.9389	0.3794	0.9788	0.065
Mof_C 	C 	0.5031	0.3434	0.9891	0.062
Mof_C 	C 	0.4294	0.2752	0.2489	0.054
Mof_C 	C 	0.1667	0.1974	0.2677	0.073
Mof_C 	C 	0.8323	0.3438	0.9573	0.142
Mof_C 	C 	0.951	0.4316	0.959	-0.152
Mof_C 	C 	0.5643	0.371	0.9766	-0.162
Mof_C 	C 	0.4883	0.2618	0.9534	0.117
Mof_C 	C 	0.3899	0.2169	0.258	-0.132
Mof_C 	C 	0.4912	0.2798	0.2902	0.094
Mof_C 	C 	0.4671	0.4696	0.2896	0.092
Mof_C 	C 	0.5257	0.5402	0.2576	0.068
Mof_C 	C 	0.5697	0.5395	0.2319	0.066
Mof_C 	C 	0.6308	0.4681	0.2009	0.092
Mof_C 	C 	0.215	0.2252	0.287	-0.177
Mof_C 	C 	0.1484	0.096	0.2947	0.162
Mof_C 	C 	0.8405	0.3975	0.9373	-0.2
Mof_C 	C 	0.9018	0.4403	0.9384	0.12
Mof_C 	C 	0.5871	0.3434	0.9513	0.107
Mof_C 	C 	0.5478	0.2882	0.9398	-0.216
Mof_C 	C 	0.3997	0.1897	0.2836	0.081
Mof_C 	C 	0.4502	0.2222	0.3009	-0.161
Mof_C 	C 	0.45	0.53	0.3057	-0.116
Mof_C 	C 	0.5107	0.6015	0.2724	-0.118
Mof_C 	C 	0.5891	0.6011	0.2177	-0.113
Mof_C 	C 	0.6531	0.5277	0.1858	-0.11
Mof_C 	C 	0.2294	0.1859	0.3103	0.158
Mof_C 	C 	0.197	0.1196	0.3142	-0.242
Mof_C 	C 	0.7845	0.4098	0.9148	0.534
Mof_C 	C 	0.5706	0.2534	0.9131	0.451
Mof_C 	C 	0.4627	0.2004	0.3302	0.429
Mof_C 	C 	0.4091	0.5171	0.3318	0.34
Mof_C 	C 	0.4724	0.5962	0.2965	0.063
Mof_C 	C 	0.6309	0.5954	0.1942	0.056
Mof_C 	C 	0.7046	0.5186	0.1619	0.347
Mof_C 	C 	0.2161	0.0737	0.3383	0.578
Mof_C 	C 	0.2282	0.429	0.4298	0.439
Mof_C 	C 	0.2431	0.3741	0.4526	-0.141
Mof_C 	C 	0.1812	0.346	0.4656	0.109
Mof_C 	C 	0.3103	0.351	0.4605	0.099
Mof_C 	C 	0.317	0.3018	0.4815	-0.135
Mof_C 	C 	0.2556	0.275	0.4939	0.072
Mof_C 	C 	0.253	0.2255	0.5179	0.059
Mof_C 	C 	0.3117	0.1995	0.5311	-0.096
Mof_C 	C 	0.1738	0.1724	0.5491	0.086
Mof_C 	C 	0.302	0.1586	0.5551	0.05
Mof_C 	C 	0.2321	0.1465	0.5642	-0.097
Mof_C 	C 	0.2158	0.1028	0.5899	0.336
Mof_C 	C 	0.6059	0.6695	0.424	0.441
Mof_C 	C 	0.8444	0.5495	0.4195	0.572
Mof_C 	C 	0.8652	0.5519	0.3449	0.589
Mof_C 	C 	0.6044	0.6893	0.3385	0.435
Mof_C 	C 	0.5643	0.6592	0.4511	-0.148
Mof_C 	C 	0.8919	0.5777	0.4425	-0.208
Mof_C 	C 	0.8887	0.6046	0.323	-0.222
Mof_C 	C 	0.625	0.7131	0.3098	-0.174
Mof_C 	C 	0.5071	0.7035	0.4589	0.092
Mof_C 	C 	0.5855	0.6039	0.4684	0.074
Mof_C 	C 	0.9545	0.5425	0.4498	0.137
Mof_C 	C 	0.8736	0.6411	0.4558	0.151
Mof_C 	C 	0.8525	0.6699	0.3194	0.152
Mof_C 	C 	0.9417	0.5867	0.3037	0.154
Mof_C 	C 	0.5903	0.7747	0.2997	0.096
Mof_C 	C 	0.6739	0.6785	0.2935	0.096
Mof_C 	C 	0.5476	0.5908	0.4916	-0.134
Mof_C 	C 	0.9957	0.5682	0.4721	-0.159
Mof_C 	C 	0.8674	0.7131	0.2968	-0.173
Mof_C 	C 	0.6879	0.7052	0.2675	-0.147
Mof_C 	C 	0.488	0.633	0.4977	0.054
Mof_C 	C 	0.9709	0.6299	0.4854	0.078
Mof_C 	C 	0.9178	0.6876	0.2779	0.085
Mof_C 	C 	0.6521	0.7673	0.2589	0.058
Mof_C 	C 	0.4389	0.6206	0.5212	0.065
Mof_C 	C 	0.0031	0.6566	0.5109	0.06
Mof_C 	C 	0.9294	0.7248	0.2511	0.056
Mof_C 	C 	0.6667	0.8026	0.2323	0.073
Mof_C 	C 	0.3323	0.6562	0.5427	0.142
Mof_C 	C 	0.451	0.5684	0.541	-0.151
Mof_C 	C 	0.0643	0.629	0.5234	-0.161
Mof_C 	C 	0.9883	0.7382	0.5466	0.119
Mof_C 	C 	0.8899	0.7831	0.242	-0.134
Mof_C 	C 	0.9912	0.7202	0.2098	0.103
Mof_C 	C 	0.9671	0.5304	0.2104	0.096
Mof_C 	C 	0.0257	0.4598	0.2424	0.069
Mof_C 	C 	0.0697	0.4605	0.2681	0.065
Mof_C 	C 	0.1308	0.5319	0.2991	0.092
Mof_C 	C 	0.715	0.7748	0.213	-0.177
Mof_C 	C 	0.6484	0.904	0.2053	0.162
Mof_C 	C 	0.3405	0.6025	0.5627	-0.2
Mof_C 	C 	0.4018	0.5597	0.5616	0.12
Mof_C 	C 	0.0871	0.6566	0.5487	0.107
Mof_C 	C 	0.0478	0.7118	0.5602	-0.218
Mof_C 	C 	0.8997	0.8103	0.2164	0.084
Mof_C 	C 	0.9502	0.7778	0.1991	-0.165
Mof_C 	C 	0.95	0.47	0.1943	-0.118
Mof_C 	C 	0.0107	0.3985	0.2276	-0.122
Mof_C 	C 	0.0891	0.3989	0.2823	-0.112
Mof_C 	C 	0.1531	0.4723	0.3142	-0.11
Mof_C 	C 	0.7294	0.8141	0.1897	0.158
Mof_C 	C 	0.697	0.8804	0.1858	-0.243
Mof_C 	C 	0.2845	0.5902	0.5852	0.534
Mof_C 	C 	0.0706	0.7466	0.5869	0.451
Mof_C 	C 	0.9627	0.7996	0.1698	0.436
Mof_C 	C 	0.9091	0.4829	0.1682	0.341
Mof_C 	C 	0.9724	0.4038	0.2035	0.067
Mof_C 	C 	0.1309	0.4046	0.3058	0.056
Mof_C 	C 	0.2046	0.4814	0.3381	0.347
Mof_C 	C 	0.7161	0.9263	0.1617	0.579
Mof_C 	C 	0.7282	0.571	0.0702	0.439
Mof_C 	C 	0.7431	0.6259	0.0474	-0.141
Mof_C 	C 	0.6812	0.654	0.0344	0.109
Mof_C 	C 	0.8103	0.649	0.0395	0.099
Mof_C 	C 	0.817	0.6982	0.0185	-0.135
Mof_C 	C 	0.7556	0.725	0.0061	0.073
Mof_C 	C 	0.753	0.7745	0.9821	0.059
Mof_C 	C 	0.8117	0.8005	0.9689	-0.096
Mof_C 	C 	0.6738	0.8276	0.9509	0.086
Mof_C 	C 	0.802	0.8414	0.9449	0.05
Mof_C 	C 	0.7321	0.8535	0.9358	-0.097
Mof_C 	C 	0.7158	0.8972	0.9101	0.336
Mof_C 	C 	0.3941	0.8305	0.924	0.441
Mof_C 	C 	0.1556	0.9505	0.9195	0.568
Mof_C 	C 	0.1348	0.9481	0.8449	0.584
Mof_C 	C 	0.3956	0.8107	0.8385	0.435
Mof_C 	C 	0.4357	0.8408	0.9511	-0.148
Mof_C 	C 	0.1081	0.9223	0.9425	-0.21
Mof_C 	C 	0.1113	0.8954	0.823	-0.221
Mof_C 	C 	0.375	0.7869	0.8098	-0.174
Mof_C 	C 	0.4929	0.7965	0.9589	0.092
Mof_C 	C 	0.4145	0.8961	0.9684	0.075
Mof_C 	C 	0.0455	0.9575	0.9498	0.141
Mof_C 	C 	0.1264	0.8589	0.9558	0.152
Mof_C 	C 	0.1475	0.8301	0.8194	0.151
Mof_C 	C 	0.0583	0.9133	0.8037	0.153
Mof_C 	C 	0.4097	0.7253	0.7997	0.096
Mof_C 	C 	0.3261	0.8215	0.7935	0.096
Mof_C 	C 	0.4524	0.9092	0.9916	-0.134
Mof_C 	C 	0.0043	0.9318	0.9721	-0.169
Mof_C 	C 	0.1326	0.7869	0.7968	-0.172
Mof_C 	C 	0.3121	0.7948	0.7675	-0.147
Mof_C 	C 	0.512	0.867	0.9977	0.054
Mof_C 	C 	0.0291	0.8701	0.9854	0.076
Mof_C 	C 	0.0822	0.8124	0.7779	0.084
Mof_C 	C 	0.3479	0.7327	0.7589	0.058
Mof_C 	C 	0.5611	0.8794	0.0212	0.065
Mof_C 	C 	0.9969	0.8434	0.0109	0.066
Mof_C 	C 	0.0706	0.7752	0.7511	0.054
Mof_C 	C 	0.3333	0.6974	0.7323	0.073
Mof_C 	C 	0.6677	0.8438	0.0427	0.142
Mof_C 	C 	0.549	0.9316	0.041	-0.151
Mof_C 	C 	0.9357	0.871	0.0234	-0.162
Mof_C 	C 	0.0117	0.7618	0.0466	0.112
Mof_C 	C 	0.1101	0.7169	0.742	-0.132
Mof_C 	C 	0.0088	0.7798	0.7098	0.092
Mof_C 	C 	0.0329	0.9696	0.7104	0.086
Mof_C 	C 	0.9743	0.0402	0.7424	0.067
Mof_C 	C 	0.9303	0.0395	0.7681	0.062
Mof_C 	C 	0.8692	0.9681	0.7991	0.096
Mof_C 	C 	0.285	0.7252	0.713	-0.177
Mof_C 	C 	0.3516	0.596	0.7053	0.162
Mof_C 	C 	0.6595	0.8975	0.0627	-0.199
Mof_C 	C 	0.5982	0.9403	0.0616	0.12
Mof_C 	C 	0.9129	0.8434	0.0487	0.106
Mof_C 	C 	0.9522	0.7882	0.0602	-0.212
Mof_C 	C 	0.1003	0.6897	0.7164	0.08
Mof_C 	C 	0.0498	0.7222	0.6991	-0.16
Mof_C 	C 	0.05	0.03	0.6943	-0.114
Mof_C 	C 	0.9893	0.1015	0.7276	-0.127
Mof_C 	C 	0.9109	0.1011	0.7823	-0.113
Mof_C 	C 	0.8469	0.0277	0.8142	-0.113
Mof_C 	C 	0.2706	0.6859	0.6897	0.158
Mof_C 	C 	0.303	0.6196	0.6858	-0.243
Mof_C 	C 	0.7155	0.9098	0.0852	0.534
Mof_C 	C 	0.9294	0.7534	0.0869	0.45
Mof_C 	C 	0.0373	0.7004	0.6698	0.428
Mof_C 	C 	0.0909	0.0171	0.6682	0.344
Mof_C 	C 	0.0276	0.0962	0.7035	0.071
Mof_C 	C 	0.8691	0.0954	0.8058	0.056
Mof_C 	C 	0.7954	0.0186	0.8381	0.345
Mof_C 	C 	0.2839	0.5737	0.6617	0.579
Mof_C 	C 	0.2718	0.929	0.5702	0.438
Mof_C 	C 	0.2569	0.8741	0.5474	-0.141
Mof_C 	C 	0.3188	0.846	0.5344	0.109
Mof_C 	C 	0.1897	0.851	0.5395	0.099
Mof_C 	C 	0.183	0.8018	0.5185	-0.135
Mof_C 	C 	0.2444	0.775	0.5061	0.072
Mof_C 	C 	0.247	0.7255	0.4821	0.059
Mof_C 	C 	0.1883	0.6995	0.4689	-0.097
Mof_C 	C 	0.3262	0.6724	0.4509	0.086
Mof_C 	C 	0.198	0.6586	0.4449	0.05
Mof_C 	C 	0.2679	0.6465	0.4358	-0.097
Mof_C 	C 	0.2842	0.6028	0.4101	0.336
Mof_C 	C 	0.8941	0.1695	0.576	0.44
Mof_C 	C 	0.6556	0.0495	0.5805	0.57
Mof_C 	C 	0.6348	0.0519	0.6551	0.587
Mof_C 	C 	0.8956	0.1893	0.6615	0.435
Mof_C 	C 	0.9357	0.1592	0.5489	-0.146
Mof_C 	C 	0.6081	0.0777	0.5575	-0.208
Mof_C 	C 	0.6113	0.1046	0.677	-0.222
Mof_C 	C 	0.875	0.2131	0.6902	-0.175
Mof_C 	C 	0.9929	0.2035	0.5411	0.084
Mof_C 	C 	0.9145	0.1039	0.5316	0.075
Mof_C 	C 	0.5455	0.0425	0.5502	0.137
Mof_C 	C 	0.6264	0.1411	0.5442	0.151
Mof_C 	C 	0.6475	0.1699	0.6806	0.152
Mof_C 	C 	0.5583	0.0867	0.6963	0.153
Mof_C 	C 	0.9097	0.2747	0.7003	0.096
Mof_C 	C 	0.8261	0.1785	0.7065	0.096
Mof_C 	C 	0.9524	0.0908	0.5084	-0.139
Mof_C 	C 	0.5043	0.0682	0.5279	-0.16
Mof_C 	C 	0.6326	0.2131	0.7032	-0.173
Mof_C 	C 	0.8121	0.2052	0.7325	-0.147
Mof_C 	C 	0.012	0.133	0.5023	0.059
Mof_C 	C 	0.5291	0.1299	0.5146	0.076
Mof_C 	C 	0.5822	0.1876	0.7221	0.085
Mof_C 	C 	0.8479	0.2673	0.7411	0.058
Mof_C 	C 	0.0611	0.1206	0.4788	0.064
Mof_C 	C 	0.4969	0.1566	0.4891	0.062
Mof_C 	C 	0.5706	0.2248	0.7489	0.054
Mof_C 	C 	0.8333	0.3026	0.7677	0.073
Mof_C 	C 	0.1677	0.1562	0.4573	0.141
Mof_C 	C 	0.049	0.0684	0.459	-0.15
Mof_C 	C 	0.4357	0.129	0.4766	-0.162
Mof_C 	C 	0.5117	0.2382	0.4534	0.117
Mof_C 	C 	0.6101	0.2831	0.758	-0.132
Mof_C 	C 	0.5088	0.2202	0.7902	0.094
Mof_C 	C 	0.5329	0.0304	0.7896	0.092
Mof_C 	C 	0.4743	0.9598	0.7576	0.068
Mof_C 	C 	0.4303	0.9605	0.7319	0.065
Mof_C 	C 	0.3692	0.0319	0.7009	0.094
Mof_C 	C 	0.785	0.2748	0.787	-0.177
Mof_C 	C 	0.8516	0.404	0.7947	0.162
Mof_C 	C 	0.1595	0.1025	0.4373	-0.199
Mof_C 	C 	0.0982	0.0597	0.4384	0.12
Mof_C 	C 	0.4129	0.1566	0.4513	0.107
Mof_C 	C 	0.4522	0.2118	0.4398	-0.216
Mof_C 	C 	0.6003	0.3103	0.7836	0.081
Mof_C 	C 	0.5498	0.2778	0.8009	-0.161
Mof_C 	C 	0.55	0.97	0.8057	-0.116
Mof_C 	C 	0.4893	0.8985	0.7724	-0.118
Mof_C 	C 	0.4109	0.8989	0.7177	-0.113
Mof_C 	C 	0.3469	0.9723	0.6858	-0.111
Mof_C 	C 	0.7706	0.3141	0.8103	0.158
Mof_C 	C 	0.803	0.3804	0.8142	-0.243
Mof_C 	C 	0.2155	0.0902	0.4148	0.534
Mof_C 	C 	0.4294	0.2466	0.4131	0.451
Mof_C 	C 	0.5373	0.2996	0.8302	0.429
Mof_C 	C 	0.5909	0.9829	0.8318	0.341
Mof_C 	C 	0.5276	0.9038	0.7965	0.063
Mof_C 	C 	0.3691	0.9046	0.6942	0.056
Mof_C 	C 	0.2954	0.9814	0.6619	0.345
Mof_C 	C 	0.7839	0.4263	0.8383	0.579
Mof_C 	C 	0.7718	0.071	0.9298	0.438
Mof_C 	C 	0.7569	0.1259	0.9526	-0.141
Mof_C 	C 	0.8188	0.154	0.9656	0.109
Mof_C 	C 	0.6897	0.149	0.9605	0.099
Mof_C 	C 	0.683	0.1982	0.9815	-0.135
Mof_C 	C 	0.7444	0.225	0.9939	0.072
Mof_C 	C 	0.747	0.2745	0.0179	0.059
Mof_C 	C 	0.6883	0.3005	0.0311	-0.097
Mof_C 	C 	0.8262	0.3276	0.0491	0.086
Mof_C 	C 	0.698	0.3414	0.0551	0.05
Mof_C 	C 	0.7679	0.3535	0.0642	-0.097
Mof_C 	C 	0.7842	0.3972	0.0899	0.336
Mof_N 	N 	0.0315	0.6897	0.9819	-0.259
Mof_N 	N 	0.5875	0.6668	0.9768	-0.269
Mof_N 	N 	0.5432	0.627	0.7818	-0.252
Mof_N 	N 	0.8973	0.8017	0.7746	-0.243
Mof_N 	N 	0.1196	0.6658	0.0228	-0.261
Mof_N 	N 	0.8159	0.7897	0.4739	-0.252
Mof_N 	N 	0.8114	0.7029	0.5146	-0.261
Mof_N 	N 	0.5338	0.7126	0.0219	-0.261
Mof_N 	N 	0.5179	0.6948	0.7352	-0.238
Mof_N 	N 	0.4942	0.5259	0.7333	-0.24
Mof_N 	N 	0.411	0.5267	0.7767	-0.239
Mof_N 	N 	0.8679	0.8669	0.7278	-0.251
Mof_N 	N 	0.5315	0.3103	0.5181	-0.257
Mof_N 	N 	0.0875	0.3332	0.5232	-0.269
Mof_N 	N 	0.0432	0.373	0.7182	-0.251
Mof_N 	N 	0.3973	0.1983	0.7254	-0.244
Mof_N 	N 	0.6196	0.3342	0.4772	-0.261
Mof_N 	N 	0.3159	0.2103	0.0261	-0.252
Mof_N 	N 	0.3114	0.2971	0.9854	-0.261
Mof_N 	N 	0.0338	0.2874	0.4781	-0.261
Mof_N 	N 	0.0179	0.3052	0.7648	-0.238
Mof_N 	N 	0.9942	0.4741	0.7667	-0.242
Mof_N 	N 	0.911	0.4733	0.7233	-0.239
Mof_N 	N 	0.3679	0.1331	0.7722	-0.251
Mof_N 	N 	0.4685	0.1897	0.0181	-0.257
Mof_N 	N 	0.9125	0.1668	0.0232	-0.269
Mof_N 	N 	0.9568	0.127	0.2182	-0.252
Mof_N 	N 	0.6027	0.3017	0.2254	-0.244
Mof_N 	N 	0.3804	0.1658	0.9772	-0.261
Mof_N 	N 	0.6841	0.2897	0.5261	-0.252
Mof_N 	N 	0.6886	0.2029	0.4854	-0.261
Mof_N 	N 	0.9662	0.2126	0.9781	-0.262
Mof_N 	N 	0.9821	0.1948	0.2648	-0.238
Mof_N 	N 	0.0058	0.0259	0.2667	-0.237
Mof_N 	N 	0.089	0.0267	0.2233	-0.237
Mof_N 	N 	0.6321	0.3669	0.2722	-0.251
Mof_N 	N 	0.9685	0.8103	0.4819	-0.256
Mof_N 	N 	0.4125	0.8332	0.4768	-0.269
Mof_N 	N 	0.4568	0.873	0.2818	-0.252
Mof_N 	N 	0.1027	0.6983	0.2746	-0.244
Mof_N 	N 	0.8804	0.8342	0.5228	-0.26
Mof_N 	N 	0.1841	0.7103	0.9739	-0.252
Mof_N 	N 	0.1886	0.7971	0.0146	-0.261
Mof_N 	N 	0.4662	0.7874	0.5219	-0.261
Mof_N 	N 	0.4821	0.8052	0.2352	-0.238
Mof_N 	N 	0.5058	0.9741	0.2333	-0.24
Mof_N 	N 	0.589	0.9733	0.2767	-0.239
Mof_N 	N 	0.1321	0.6331	0.2278	-0.251
Mof_N 	N 	0.9685	0.3103	0.0181	-0.259
Mof_N 	N 	0.4125	0.3332	0.0232	-0.269
Mof_N 	N 	0.4568	0.373	0.2182	-0.252
Mof_N 	N 	0.1027	0.1983	0.2254	-0.243
Mof_N 	N 	0.8804	0.3342	0.9772	-0.261
Mof_N 	N 	0.1841	0.2103	0.5261	-0.252
Mof_N 	N 	0.1886	0.2971	0.4854	-0.261
Mof_N 	N 	0.4662	0.2874	0.9781	-0.261
Mof_N 	N 	0.4821	0.3052	0.2648	-0.238
Mof_N 	N 	0.5058	0.4741	0.2667	-0.24
Mof_N 	N 	0.589	0.4733	0.2233	-0.239
Mof_N 	N 	0.1321	0.1331	0.2722	-0.251
Mof_N 	N 	0.4685	0.6897	0.4819	-0.257
Mof_N 	N 	0.9125	0.6668	0.4768	-0.269
Mof_N 	N 	0.9568	0.627	0.2818	-0.251
Mof_N 	N 	0.6027	0.8017	0.2746	-0.244
Mof_N 	N 	0.3804	0.6658	0.5228	-0.261
Mof_N 	N 	0.6841	0.7897	0.9739	-0.252
Mof_N 	N 	0.6886	0.7029	0.0146	-0.261
Mof_N 	N 	0.9662	0.7126	0.5219	-0.261
Mof_N 	N 	0.9821	0.6948	0.2352	-0.238
Mof_N 	N 	0.0058	0.5259	0.2333	-0.242
Mof_N 	N 	0.089	0.5267	0.2767	-0.239
Mof_N 	N 	0.6321	0.8669	0.2278	-0.251
Mof_N 	N 	0.5315	0.8103	0.9819	-0.257
Mof_N 	N 	0.0875	0.8332	0.9768	-0.269
Mof_N 	N 	0.0432	0.873	0.7818	-0.252
Mof_N 	N 	0.3973	0.6983	0.7746	-0.244
Mof_N 	N 	0.6196	0.8342	0.0228	-0.261
Mof_N 	N 	0.3159	0.7103	0.4739	-0.252
Mof_N 	N 	0.3114	0.7971	0.5146	-0.261
Mof_N 	N 	0.0338	0.7874	0.0219	-0.262
Mof_N 	N 	0.0179	0.8052	0.7352	-0.238
Mof_N 	N 	0.9942	0.9741	0.7333	-0.237
Mof_N 	N 	0.911	0.9733	0.7767	-0.237
Mof_N 	N 	0.3679	0.6331	0.7278	-0.251
Mof_N 	N 	0.0315	0.1897	0.5181	-0.256
Mof_N 	N 	0.5875	0.1668	0.5232	-0.269
Mof_N 	N 	0.5432	0.127	0.7182	-0.252
Mof_N 	N 	0.8973	0.3017	0.7254	-0.244
Mof_N 	N 	0.1196	0.1658	0.4772	-0.26
Mof_N 	N 	0.8159	0.2897	0.0261	-0.252
Mof_N 	N 	0.8114	0.2029	0.9854	-0.261
Mof_N 	N 	0.5338	0.2126	0.4781	-0.261
Mof_N 	N 	0.5179	0.1948	0.7648	-0.238
Mof_N 	N 	0.4942	0.0259	0.7667	-0.24
Mof_N 	N 	0.411	0.0267	0.7233	-0.239
Mof_N 	N 	0.8679	0.3669	0.7722	-0.251
Mof_O 	O 	0.8678	0.6129	0.91461	-0.526
Mof_O 	O 	0.7111	0.5859	0.91389	-0.515
Mof_O 	O 	0.6918	0.5678	0.85652	-0.644
Mof_O 	O 	0.8686	0.6294	0.8456	-0.539
Mof_O 	O 	0.9329	0.5192	0.8771	-0.846
Mof_O 	O 	0.7667	0.6974	0.8797	-0.936
Mof_O 	O 	0.2051	0.5347	0.09866	-0.613
Mof_O 	O 	0.8177	0.9828	0.6575	-0.542
Mof_O 	O 	0.8878	0.7319	0.9151	-0.313
Mof_O 	O 	0.635	0.4924	0.90892	-0.607
Mof_O 	O 	0.5952	0.4986	0.8489	-0.536
Mof_O 	O 	0.9336	0.7289	0.8524	-0.295
Mof_O 	O 	0.2683	0.6327	0.08818	-0.472
Mof_O 	O 	0.4488	0.81	0.0905	-0.305
Mof_O 	O 	0.3927	0.7092	0.10327	-0.556
Mof_O 	O 	0.582	0.8425	0.6598	-0.516
Mof_O 	O 	0.4825	0.7726	0.6577	-0.287
Mof_O 	O 	0.6135	0.5453	0.6637	-0.441
Mof_O 	O 	0.6009	0.4321	0.652	-0.411
Mof_O 	O 	0.251	0.5328	0.8373	-0.429
Mof_O 	O 	0.2963	0.4383	0.8574	-0.439
Mof_O 	O 	0.7306	0.9034	0.6477	-0.638
Mof_O 	O 	0.7153	0.5516	0.5822	-0.525
Mof_O 	O 	0.6722	0.6435	0.6265	-0.857
Mof_O 	O 	0.5654	0.5437	0.6032	-0.874
Mof_O 	O 	0.8494	0.9165	0.4068	-0.434
Mof_O 	O 	0.7356	0.9131	0.3941	-0.399
Mof_O 	O 	0.8364	0.5518	0.5738	-0.298
Mof_O 	O 	0.5104	0.4162	0.8927	-0.932
Mof_O 	O 	0.3678	0.3871	0.58539	-0.526
Mof_O 	O 	0.2111	0.4141	0.58611	-0.515
Mof_O 	O 	0.1918	0.4322	0.64348	-0.644
Mof_O 	O 	0.3686	0.3706	0.6544	-0.539
Mof_O 	O 	0.4329	0.4808	0.6229	-0.846
Mof_O 	O 	0.2667	0.3026	0.6203	-0.936
Mof_O 	O 	0.7051	0.4653	0.40134	-0.613
Mof_O 	O 	0.3177	0.0172	0.8425	-0.543
Mof_O 	O 	0.3878	0.2681	0.5849	-0.314
Mof_O 	O 	0.135	0.5076	0.59108	-0.607
Mof_O 	O 	0.0952	0.5014	0.6511	-0.536
Mof_O 	O 	0.4336	0.2711	0.6476	-0.296
Mof_O 	O 	0.7683	0.3673	0.41182	-0.472
Mof_O 	O 	0.9488	0.19	0.4095	-0.306
Mof_O 	O 	0.8927	0.2908	0.39673	-0.556
Mof_O 	O 	0.082	0.1575	0.8402	-0.517
Mof_O 	O 	0.9825	0.2274	0.8423	-0.292
Mof_O 	O 	0.1135	0.4547	0.8363	-0.441
Mof_O 	O 	0.1009	0.5679	0.848	-0.412
Mof_O 	O 	0.751	0.4672	0.6627	-0.429
Mof_O 	O 	0.7963	0.5617	0.6426	-0.439
Mof_O 	O 	0.2306	0.0966	0.8523	-0.638
Mof_O 	O 	0.2153	0.4484	0.9178	-0.525
Mof_O 	O 	0.1722	0.3565	0.8735	-0.857
Mof_O 	O 	0.0654	0.4563	0.8968	-0.874
Mof_O 	O 	0.3494	0.0835	0.0932	-0.435
Mof_O 	O 	0.2356	0.0869	0.1059	-0.399
Mof_O 	O 	0.3364	0.4482	0.9262	-0.298
Mof_O 	O 	0.0104	0.5838	0.6073	-0.931
Mof_O 	O 	0.6322	0.1129	0.08539	-0.526
Mof_O 	O 	0.7889	0.0859	0.08611	-0.514
Mof_O 	O 	0.8082	0.0678	0.14348	-0.643
Mof_O 	O 	0.6314	0.1294	0.1544	-0.539
Mof_O 	O 	0.5671	0.0192	0.1229	-0.847
Mof_O 	O 	0.7333	0.1974	0.1203	-0.936
Mof_O 	O 	0.2949	0.0347	0.90134	-0.612
Mof_O 	O 	0.6823	0.4828	0.3425	-0.544
Mof_O 	O 	0.6122	0.2319	0.0849	-0.314
Mof_O 	O 	0.865	0.9924	0.09108	-0.604
Mof_O 	O 	0.9048	0.9986	0.1511	-0.532
Mof_O 	O 	0.5664	0.2289	0.1476	-0.296
Mof_O 	O 	0.2317	0.1327	0.91182	-0.472
Mof_O 	O 	0.0512	0.31	0.9095	-0.304
Mof_O 	O 	0.1073	0.2092	0.89673	-0.556
Mof_O 	O 	0.918	0.3425	0.3402	-0.516
Mof_O 	O 	0.0175	0.2726	0.3423	-0.287
Mof_O 	O 	0.8865	0.0453	0.3363	-0.443
Mof_O 	O 	0.8991	0.9321	0.348	-0.411
Mof_O 	O 	0.249	0.0328	0.1627	-0.427
Mof_O 	O 	0.2037	0.9383	0.1426	-0.438
Mof_O 	O 	0.7694	0.4034	0.3523	-0.639
Mof_O 	O 	0.7847	0.0516	0.4178	-0.525
Mof_O 	O 	0.8278	0.1435	0.3735	-0.856
Mof_O 	O 	0.9346	0.0437	0.3968	-0.873
Mof_O 	O 	0.6506	0.4165	0.5932	-0.436
Mof_O 	O 	0.7644	0.4131	0.6059	-0.4
Mof_O 	O 	0.6636	0.0518	0.4262	-0.298
Mof_O 	O 	0.9896	0.9162	0.1073	-0.923
Mof_O 	O 	0.1322	0.8871	0.41461	-0.526
Mof_O 	O 	0.2889	0.9141	0.41389	-0.514
Mof_O 	O 	0.3082	0.9322	0.35652	-0.644
Mof_O 	O 	0.1314	0.8706	0.3456	-0.54
Mof_O 	O 	0.0671	0.9808	0.3771	-0.853
Mof_O 	O 	0.2333	0.8026	0.3797	-0.936
Mof_O 	O 	0.7949	0.9653	0.59866	-0.612
Mof_O 	O 	0.1823	0.5172	0.1575	-0.544
Mof_O 	O 	0.1122	0.7681	0.4151	-0.314
Mof_O 	O 	0.365	0.0076	0.40892	-0.606
Mof_O 	O 	0.4048	0.0014	0.3489	-0.535
Mof_O 	O 	0.0664	0.7711	0.3524	-0.297
Mof_O 	O 	0.7317	0.8673	0.58818	-0.472
Mof_O 	O 	0.5512	0.69	0.5905	-0.305
Mof_O 	O 	0.6073	0.7908	0.60327	-0.556
Mof_O 	O 	0.418	0.6575	0.1598	-0.516
Mof_O 	O 	0.5175	0.7274	0.1577	-0.287
Mof_O 	O 	0.3865	0.9547	0.1637	-0.441
Mof_O 	O 	0.3991	0.0679	0.152	-0.411
Mof_O 	O 	0.749	0.9672	0.3373	-0.426
Mof_O 	O 	0.7037	0.0617	0.3574	-0.438
Mof_O 	O 	0.2694	0.5966	0.1477	-0.639
Mof_O 	O 	0.2847	0.9484	0.0822	-0.525
Mof_O 	O 	0.3278	0.8565	0.1265	-0.856
Mof_O 	O 	0.4346	0.9563	0.1032	-0.874
Mof_O 	O 	0.1506	0.5835	0.9068	-0.436
Mof_O 	O 	0.2644	0.5869	0.8941	-0.4
Mof_O 	O 	0.1636	0.9482	0.0738	-0.299
Mof_O 	O 	0.4896	0.0838	0.3927	-0.932
Mof_O 	O 	0.1322	0.3871	0.08539	-0.526
Mof_O 	O 	0.2889	0.4141	0.08611	-0.515
Mof_O 	O 	0.3082	0.4322	0.14348	-0.644
Mof_O 	O 	0.1314	0.3706	0.1544	-0.539
Mof_O 	O 	0.0671	0.4808	0.1229	-0.846
Mof_O 	O 	0.2333	0.3026	0.1203	-0.936
Mof_O 	O 	0.7949	0.4653	0.90134	-0.613
Mof_O 	O 	0.1823	0.0172	0.3425	-0.542
Mof_O 	O 	0.1122	0.2681	0.0849	-0.313
Mof_O 	O 	0.365	0.5076	0.09108	-0.607
Mof_O 	O 	0.4048	0.5014	0.1511	-0.536
Mof_O 	O 	0.0664	0.2711	0.1476	-0.295
Mof_O 	O 	0.7317	0.3673	0.91182	-0.472
Mof_O 	O 	0.5512	0.19	0.9095	-0.305
Mof_O 	O 	0.6073	0.2908	0.89673	-0.556
Mof_O 	O 	0.418	0.1575	0.3402	-0.516
Mof_O 	O 	0.5175	0.2274	0.3423	-0.287
Mof_O 	O 	0.3865	0.4547	0.3363	-0.441
Mof_O 	O 	0.3991	0.5679	0.348	-0.411
Mof_O 	O 	0.749	0.4672	0.1627	-0.429
Mof_O 	O 	0.7037	0.5617	0.1426	-0.439
Mof_O 	O 	0.2694	0.0966	0.3523	-0.638
Mof_O 	O 	0.2847	0.4484	0.4178	-0.525
Mof_O 	O 	0.3278	0.3565	0.3735	-0.857
Mof_O 	O 	0.4346	0.4563	0.3968	-0.874
Mof_O 	O 	0.1506	0.0835	0.5932	-0.434
Mof_O 	O 	0.2644	0.0869	0.6059	-0.399
Mof_O 	O 	0.1636	0.4482	0.4262	-0.298
Mof_O 	O 	0.4896	0.5838	0.1073	-0.932
Mof_O 	O 	0.6322	0.6129	0.41461	-0.526
Mof_O 	O 	0.7889	0.5859	0.41389	-0.515
Mof_O 	O 	0.8082	0.5678	0.35652	-0.644
Mof_O 	O 	0.6314	0.6294	0.3456	-0.539
Mof_O 	O 	0.5671	0.5192	0.3771	-0.846
Mof_O 	O 	0.7333	0.6974	0.3797	-0.936
Mof_O 	O 	0.2949	0.5347	0.59866	-0.613
Mof_O 	O 	0.6823	0.9828	0.1575	-0.543
Mof_O 	O 	0.6122	0.7319	0.4151	-0.314
Mof_O 	O 	0.865	0.4924	0.40892	-0.607
Mof_O 	O 	0.9048	0.4986	0.3489	-0.536
Mof_O 	O 	0.5664	0.7289	0.3524	-0.296
Mof_O 	O 	0.2317	0.6327	0.58818	-0.472
Mof_O 	O 	0.0512	0.81	0.5905	-0.306
Mof_O 	O 	0.1073	0.7092	0.60327	-0.556
Mof_O 	O 	0.918	0.8425	0.1598	-0.517
Mof_O 	O 	0.0175	0.7726	0.1577	-0.292
Mof_O 	O 	0.8865	0.5453	0.1637	-0.441
Mof_O 	O 	0.8991	0.4321	0.152	-0.412
Mof_O 	O 	0.249	0.5328	0.3373	-0.429
Mof_O 	O 	0.2037	0.4383	0.3574	-0.439
Mof_O 	O 	0.7694	0.9034	0.1477	-0.638
Mof_O 	O 	0.7847	0.5516	0.0822	-0.525
Mof_O 	O 	0.8278	0.6435	0.1265	-0.857
Mof_O 	O 	0.9346	0.5437	0.1032	-0.874
Mof_O 	O 	0.6506	0.9165	0.9068	-0.435
Mof_O 	O 	0.7644	0.9131	0.8941	-0.399
Mof_O 	O 	0.6636	0.5518	0.0738	-0.298
Mof_O 	O 	0.9896	0.4162	0.3927	-0.931
Mof_O 	O 	0.3678	0.8871	0.91461	-0.526
Mof_O 	O 	0.2111	0.9141	0.91389	-0.514
Mof_O 	O 	0.1918	0.9322	0.85652	-0.643
Mof_O 	O 	0.3686	0.8706	0.8456	-0.539
Mof_O 	O 	0.4329	0.9808	0.8771	-0.847
Mof_O 	O 	0.2667	0.8026	0.8797	-0.936
Mof_O 	O 	0.7051	0.9653	0.09866	-0.612
Mof_O 	O 	0.3177	0.5172	0.6575	-0.544
Mof_O 	O 	0.3878	0.7681	0.9151	-0.314
Mof_O 	O 	0.135	0.0076	0.90892	-0.604
Mof_O 	O 	0.0952	0.0014	0.8489	-0.532
Mof_O 	O 	0.4336	0.7711	0.8524	-0.296
Mof_O 	O 	0.7683	0.8673	0.08818	-0.472
Mof_O 	O 	0.9488	0.69	0.0905	-0.304
Mof_O 	O 	0.8927	0.7908	0.10327	-0.556
Mof_O 	O 	0.082	0.6575	0.6598	-0.516
Mof_O 	O 	0.9825	0.7274	0.6577	-0.287
Mof_O 	O 	0.1135	0.9547	0.6637	-0.443
Mof_O 	O 	0.1009	0.0679	0.652	-0.411
Mof_O 	O 	0.751	0.9672	0.8373	-0.427
Mof_O 	O 	0.7963	0.0617	0.8574	-0.438
Mof_O 	O 	0.2306	0.5966	0.6477	-0.639
Mof_O 	O 	0.2153	0.9484	0.5822	-0.525
Mof_O 	O 	0.1722	0.8565	0.6265	-0.856
Mof_O 	O 	0.0654	0.9563	0.6032	-0.873
Mof_O 	O 	0.3494	0.5835	0.4068	-0.436
Mof_O 	O 	0.2356	0.5869	0.3941	-0.4
Mof_O 	O 	0.3364	0.9482	0.5738	-0.298
Mof_O 	O 	0.0104	0.0838	0.8927	-0.923
Mof_O 	O 	0.8678	0.1129	0.58539	-0.526
Mof_O 	O 	0.7111	0.0859	0.58611	-0.514
Mof_O 	O 	0.6918	0.0678	0.64348	-0.644
Mof_O 	O 	0.8686	0.1294	0.6544	-0.54
Mof_O 	O 	0.9329	0.0192	0.6229	-0.853
Mof_O 	O 	0.7667	0.1974	0.6203	-0.936
Mof_O 	O 	0.2051	0.0347	0.40134	-0.612
Mof_O 	O 	0.8177	0.4828	0.8425	-0.544
Mof_O 	O 	0.8878	0.2319	0.5849	-0.314
Mof_O 	O 	0.635	0.9924	0.59108	-0.606
Mof_O 	O 	0.5952	0.9986	0.6511	-0.535
Mof_O 	O 	0.9336	0.2289	0.6476	-0.297
Mof_O 	O 	0.2683	0.1327	0.41182	-0.472
Mof_O 	O 	0.4488	0.31	0.4095	-0.305
Mof_O 	O 	0.3927	0.2092	0.39673	-0.556
Mof_O 	O 	0.582	0.3425	0.8402	-0.516
Mof_O 	O 	0.4825	0.2726	0.8423	-0.287
Mof_O 	O 	0.6135	0.0453	0.8363	-0.441
Mof_O 	O 	0.6009	0.9321	0.848	-0.411
Mof_O 	O 	0.251	0.0328	0.6627	-0.426
Mof_O 	O 	0.2963	0.9383	0.6426	-0.438
Mof_O 	O 	0.7306	0.4034	0.8523	-0.639
Mof_O 	O 	0.7153	0.0516	0.9178	-0.525
Mof_O 	O 	0.6722	0.1435	0.8735	-0.856
Mof_O 	O 	0.5654	0.0437	0.8968	-0.874
Mof_O 	O 	0.8494	0.4165	0.0932	-0.436
Mof_O 	O 	0.7356	0.4131	0.1059	-0.4
Mof_O 	O 	0.8364	0.0518	0.9262	-0.299
Mof_O 	O 	0.5104	0.9162	0.6073	-0.932
Mof_Cl	Cl	0.725	0.4941	0.99216	-0.212
Mof_O 	O 	0.6581	0.5034	0.0071	-0.047
Mof_O 	O 	0.7087	0.4542	0.968	-0.048
Mof_O 	O 	0.7535	0.5633	0.9848	-0.038
Mof_O 	O 	0.7775	0.455	0.0078	-0.037
Mof_Cl	Cl	0.7051	0.5089	0.76134	-0.214
Mof_O 	O 	0.6414	0.4696	0.7597	-0.031
Mof_O 	O 	0.7073	0.5026	0.7918	-0.055
Mof_O 	O 	0.6769	0.5759	0.7488	-0.05
Mof_O 	O 	0.7602	0.4865	0.7437	-0.036
Mof_Cl	Cl	0.225	0.5059	0.50784	-0.212
Mof_O 	O 	0.1581	0.4966	0.4929	-0.047
Mof_O 	O 	0.2087	0.5458	0.532	-0.048
Mof_O 	O 	0.2535	0.4367	0.5152	-0.038
Mof_O 	O 	0.2775	0.545	0.4922	-0.037
Mof_Cl	Cl	0.2051	0.4911	0.73866	-0.214
Mof_O 	O 	0.1414	0.5304	0.7403	-0.031
Mof_O 	O 	0.2073	0.4974	0.7082	-0.055
Mof_O 	O 	0.1769	0.4241	0.7512	-0.05
Mof_O 	O 	0.2602	0.5135	0.7563	-0.036
Mof_Cl	Cl	0.775	0.9941	0.00784	-0.207
Mof_O 	O 	0.8419	0.0034	0.9929	-0.05
Mof_O 	O 	0.7913	0.9542	0.032	-0.048
Mof_O 	O 	0.7465	0.0633	0.0152	-0.04
Mof_O 	O 	0.7225	0.955	0.9922	-0.037
Mof_Cl	Cl	0.7949	0.0089	0.23866	-0.219
Mof_O 	O 	0.8586	0.9696	0.2403	-0.027
Mof_O 	O 	0.7927	0.0026	0.2082	-0.055
Mof_O 	O 	0.8231	0.0759	0.2512	-0.05
Mof_O 	O 	0.7398	0.9865	0.2563	-0.033
Mof_Cl	Cl	0.275	0.0059	0.49216	-0.209
Mof_O 	O 	0.3419	0.9966	0.5071	-0.049
Mof_O 	O 	0.2913	0.0458	0.468	-0.048
Mof_O 	O 	0.2465	0.9367	0.4848	-0.04
Mof_O 	O 	0.2225	0.045	0.5078	-0.037
Mof_Cl	Cl	0.2949	0.9911	0.26134	-0.218
Mof_O 	O 	0.3586	0.0304	0.2597	-0.029
Mof_O 	O 	0.2927	0.9974	0.2918	-0.055
Mof_O 	O 	0.3231	0.9241	0.2488	-0.05
Mof_O 	O 	0.2398	0.0135	0.2437	-0.033
Mof_Cl	Cl	0.275	0.5059	0.00784	-0.212
Mof_O 	O 	0.3419	0.4966	0.9929	-0.047
Mof_O 	O 	0.2913	0.5458	0.032	-0.048
Mof_O 	O 	0.2465	0.4367	0.0152	-0.038
Mof_O 	O 	0.2225	0.545	0.9922	-0.037
Mof_Cl	Cl	0.2949	0.4911	0.23866	-0.214
Mof_O 	O 	0.3586	0.5304	0.2403	-0.031
Mof_O 	O 	0.2927	0.4974	0.2082	-0.055
Mof_O 	O 	0.3231	0.4241	0.2512	-0.05
Mof_O 	O 	0.2398	0.5135	0.2563	-0.036
Mof_Cl	Cl	0.775	0.4941	0.49216	-0.212
Mof_O 	O 	0.8419	0.5034	0.5071	-0.047
Mof_O 	O 	0.7913	0.4542	0.468	-0.048
Mof_O 	O 	0.7465	0.5633	0.4848	-0.038
Mof_O 	O 	0.7225	0.455	0.5078	-0.037
Mof_Cl	Cl	0.7949	0.5089	0.26134	-0.214
Mof_O 	O 	0.8586	0.4696	0.2597	-0.031
Mof_O 	O 	0.7927	0.5026	0.2918	-0.055
Mof_O 	O 	0.8231	0.5759	0.2488	-0.05
Mof_O 	O 	0.7398	0.4865	0.2437	-0.036
Mof_Cl	Cl	0.225	0.0059	0.99216	-0.207
Mof_O 	O 	0.1581	0.9966	0.0071	-0.05
Mof_O 	O 	0.2087	0.0458	0.968	-0.048
Mof_O 	O 	0.2535	0.9367	0.9848	-0.04
Mof_O 	O 	0.2775	0.045	0.0078	-0.037
Mof_Cl	Cl	0.2051	0.9911	0.76134	-0.219
Mof_O 	O 	0.1414	0.0304	0.7597	-0.027
Mof_O 	O 	0.2073	0.9974	0.7918	-0.055
Mof_O 	O 	0.1769	0.9241	0.7488	-0.05
Mof_O 	O 	0.2602	0.0135	0.7437	-0.033
Mof_Cl	Cl	0.725	0.9941	0.50784	-0.209
Mof_O 	O 	0.6581	0.0034	0.4929	-0.049
Mof_O 	O 	0.7087	0.9542	0.532	-0.048
Mof_O 	O 	0.7535	0.0633	0.5152	-0.04
Mof_O 	O 	0.7775	0.955	0.4922	-0.037
Mof_Cl	Cl	0.7051	0.0089	0.73866	-0.218
Mof_O 	O 	0.6414	0.9696	0.7403	-0.029
Mof_O 	O 	0.7073	0.0026	0.7082	-0.055
Mof_O 	O 	0.6769	0.0759	0.7512	-0.05
Mof_O 	O 	0.7602	0.9865	0.7563	-0.033
_end
