data_functionalizedCrystal
_audit_creation_method	'EQeq! by Chris Wilmer'
_symmetry_space_group_name_H-M	'P1'
_symmetry_Int_Tables_number	1
_symmetry_cell_setting	triclinic
loop_
_symmetry_equiv_pos_as_xyz
  x,y,z
_cell_length_a	9.582
_cell_length_b	10.467
_cell_length_c	17.92
_cell_angle_alpha	74.753
_cell_angle_beta	77.643
_cell_angle_gamma	73.093
loop_
_atom_site_label
_atom_site_type_symbol
_atom_site_fract_x
_atom_site_fract_y
_atom_site_fract_z
_atom_site_charge
Mof_N 	N 	0.0989	0.8497	0.8472	-0.037
Mof_N 	N 	0.7323	0.849	0.0853	-0.028
Mof_N 	N 	0.2996	0.1137	0.3671	0.017
Mof_O 	O 	0.0533	0.8399	0.9227	-0.265
Mof_O 	O 	0.1667	0.8088	0.5703	-0.259
Mof_O 	O 	0.3858	0.8276	0.5816	-0.483
Mof_O 	O 	0.8615	0.8589	0.0949	-0.254
Mof_O 	O 	0.2001	0.8749	0.0797	-0.398
Mof_O 	O 	0.3371	0.7083	0.0186	-0.65
Mof_O 	O 	0.318	0.0088	0.4289	-0.5
Mof_O 	O 	0.168	0.5539	0.1789	-0.299
Mof_O 	O 	0.299	0.4112	0.0998	-0.527
Mof_C 	C 	0.2396	0.8485	0.8168	0.037
Mof_H 	H 	0.3044	0.8497	0.8484	0.042
Mof_C 	C 	0.2889	0.8455	0.7393	-0.051
Mof_H 	H 	0.3866	0.8459	0.7189	0.04
Mof_C 	C 	0.1958	0.842	0.6912	-0.026
Mof_C 	C 	0.0548	0.8425	0.7235	-0.15
Mof_H 	H 	0.9905	0.8366	0.6931	0.168
Mof_C 	C 	0.0034	0.8515	0.8008	-0.051
Mof_H 	H 	0.9041	0.8588	0.8207	0.135
Mof_C 	C 	0.2544	0.8229	0.6076	0.351
Mof_C 	C 	0.6164	0.8655	0.1432	0.026
Mof_H 	H 	0.6274	0.8849	0.1891	0.061
Mof_C 	C 	0.4812	0.8535	0.1339	-0.033
Mof_H 	H 	0.4013	0.8663	0.1735	0.065
Mof_C 	C 	0.4637	0.8224	0.0663	-0.065
Mof_C 	C 	0.5849	0.8067	0.0084	-0.242
Mof_H 	H 	0.5765	0.787	0.9622	0.186
Mof_C 	C 	0.7176	0.82	0.0187	-0.173
Mof_H 	H 	0.7982	0.809	0.9793	0.218
Mof_C 	C 	0.3241	0.7979	0.0535	0.399
Mof_C 	C 	0.2394	0.2423	0.3755	-0.086
Mof_H 	H 	0.2105	0.2615	0.4252	0.005
Mof_C 	C 	0.2206	0.345	0.3109	0.064
Mof_H 	H 	0.1735	0.4337	0.3168	0.005
Mof_C 	C 	0.2705	0.32	0.2361	-0.22
Mof_C 	C 	0.353	0.0809	0.2938	-0.461
Mof_H 	H 	0.3978	0.9912	0.2889	0.312
Mof_C 	C 	0.3366	0.186	0.2293	0.235
Mof_H 	H 	0.3706	0.167	0.1798	-0.099
Mof_C 	C 	0.2444	0.4381	0.1672	0.367
Mof_N 	N 	0.9011	0.1503	0.1528	-0.068
Mof_N 	N 	0.2677	0.151	0.9147	-0.076
Mof_N 	N 	0.7004	0.8863	0.6329	-0.139
Mof_O 	O 	0.9467	0.1601	0.0773	-0.364
Mof_O 	O 	0.8333	0.1912	0.4297	-0.284
Mof_O 	O 	0.6142	0.1724	0.4184	-0.57
Mof_O 	O 	0.1385	0.1411	0.9051	-0.329
Mof_O 	O 	0.7999	0.1251	0.9203	-0.419
Mof_O 	O 	0.6629	0.2917	0.9814	-0.515
Mof_O 	O 	0.682	0.9912	0.5711	-0.28
Mof_O 	O 	0.832	0.4461	0.8211	-0.225
Mof_O 	O 	0.701	0.5888	0.9002	-0.406
Mof_C 	C 	0.7604	0.1515	0.1832	-0.034
Mof_H 	H 	0.6956	0.1503	0.1516	-0.023
Mof_C 	C 	0.7111	0.1545	0.2607	-0.022
Mof_H 	H 	0.6134	0.1541	0.2811	0
Mof_C 	C 	0.8042	0.158	0.3088	-0.155
Mof_C 	C 	0.9452	0.1575	0.2765	0.096
Mof_H 	H 	0.0095	0.1634	0.3069	-0.058
Mof_C 	C 	0.9966	0.1485	0.1992	0.095
Mof_H 	H 	0.0959	0.1412	0.1793	-0.074
Mof_C 	C 	0.7456	0.1771	0.3924	0.388
Mof_C 	C 	0.3836	0.1345	0.8568	-0.059
Mof_H 	H 	0.3726	0.1151	0.8109	0.009
Mof_C 	C 	0.5188	0.1465	0.8661	0.032
Mof_H 	H 	0.5987	0.1337	0.8265	-0.007
Mof_C 	C 	0.5363	0.1776	0.9337	-0.246
Mof_C 	C 	0.4151	0.1933	0.9916	0.23
Mof_H 	H 	0.4235	0.213	0.0378	-0.207
Mof_C 	C 	0.2824	0.18	0.9813	0.143
Mof_H 	H 	0.2018	0.191	0.0207	-0.157
Mof_C 	C 	0.6759	0.2021	0.9465	0.474
Mof_C 	C 	0.7606	0.7577	0.6245	0.085
Mof_H 	H 	0.7895	0.7385	0.5748	-0.002
Mof_C 	C 	0.7794	0.655	0.6891	-0.145
Mof_H 	H 	0.8265	0.5663	0.6832	0.094
Mof_C 	C 	0.7295	0.68	0.7639	0.065
Mof_C 	C 	0.647	0.9191	0.7062	0.431
Mof_H 	H 	0.6022	0.0088	0.7111	-0.253
Mof_C 	C 	0.6634	0.814	0.7707	-0.298
Mof_H 	H 	0.6294	0.833	0.8202	0.162
Mof_C 	C 	0.7556	0.5619	0.8328	0.267
Mof_Na	Na	-0	0	-0	1.556
Mof_Na	Na	0.5	0	0.5	1.935
Mof_Na	Na	0.5	0.5	-0	1.977
_end
