data_functionalizedCrystal
_audit_creation_method	'EQeq! by Chris Wilmer'
_symmetry_space_group_name_H-M	'P1'
_symmetry_Int_Tables_number	1
_symmetry_cell_setting	triclinic
loop_
_symmetry_equiv_pos_as_xyz
  x,y,z
_cell_length_a	28.708
_cell_length_b	28.708
_cell_length_c	3.5249
_cell_angle_alpha	90
_cell_angle_beta	90
_cell_angle_gamma	90
loop_
_atom_site_label
_atom_site_type_symbol
_atom_site_fract_x
_atom_site_fract_y
_atom_site_fract_z
_atom_site_charge
Mof_Ag	Ag	0.04316	0.57418	0.245	0.325
Mof_N 	N 	0.1105	0.5542	0.438	-0.197
Mof_N 	N 	0.1229	0.5089	0.434	-0.197
Mof_N 	N 	0.1825	0.5488	0.641	-0.252
Mof_C 	C 	0.1478	0.5768	0.556	0.158
Mof_C 	C 	0.1449	0.6285	0.56	0.144
Mof_H 	H 	0.1167	0.6378	0.6895	-0.045
Mof_H 	H 	0.145	0.6403	0.3095	-0.042
Mof_H 	H 	0.1712	0.6409	0.6996	-0.046
Mof_C 	C 	0.166	0.508	0.566	0.167
Mof_H 	H 	0.1828	0.4806	0.6007	-0.134
Mof_C 	C 	0.1897	0.4632	0.627	0.131
Mof_H 	H 	0.1727	0.4453	0.8105	-0.041
Mof_H 	H 	0.2207	0.4687	0.7175	-0.037
Mof_H 	H 	0.191	0.4463	0.3916	-0.029
Mof_H 	H 	0.1494	0.6091	0.5772	-0.136
Mof_Ag	Ag	0.54316	0.07418	0.745	0.326
Mof_N 	N 	0.6105	0.0542	0.938	-0.19
Mof_N 	N 	0.6229	0.0089	0.934	-0.19
Mof_N 	N 	0.6825	0.0488	0.141	-0.25
Mof_C 	C 	0.6478	0.0768	0.056	0.15
Mof_C 	C 	0.6449	0.1285	0.06	0.158
Mof_H 	H 	0.6167	0.1378	0.1895	-0.049
Mof_H 	H 	0.645	0.1403	0.8095	-0.043
Mof_H 	H 	0.6712	0.1409	0.1996	-0.049
Mof_C 	C 	0.666	0.008	0.066	0.159
Mof_H 	H 	0.6828	0.9806	0.1007	-0.141
Mof_C 	C 	0.6897	0.9632	0.127	0.142
Mof_H 	H 	0.6727	0.9453	0.3105	-0.042
Mof_H 	H 	0.7207	0.9687	0.2175	-0.039
Mof_H 	H 	0.691	0.9463	0.8916	-0.028
Mof_H 	H 	0.6494	0.1091	0.0772	-0.144
Mof_Ag	Ag	0.95684	0.42582	0.245	0.326
Mof_N 	N 	0.8895	0.4458	0.438	-0.196
Mof_N 	N 	0.8771	0.4911	0.434	-0.196
Mof_N 	N 	0.8175	0.4512	0.641	-0.251
Mof_C 	C 	0.8522	0.4232	0.556	0.158
Mof_C 	C 	0.8551	0.3715	0.56	0.144
Mof_H 	H 	0.8833	0.3622	0.6895	-0.045
Mof_H 	H 	0.855	0.3597	0.3095	-0.042
Mof_H 	H 	0.8288	0.3591	0.6996	-0.046
Mof_C 	C 	0.834	0.492	0.566	0.167
Mof_H 	H 	0.8172	0.5194	0.6007	-0.134
Mof_C 	C 	0.8103	0.5368	0.627	0.131
Mof_H 	H 	0.8273	0.5547	0.8105	-0.041
Mof_H 	H 	0.7793	0.5313	0.7175	-0.037
Mof_H 	H 	0.809	0.5537	0.3916	-0.029
Mof_H 	H 	0.8506	0.3909	0.5772	-0.136
Mof_Ag	Ag	0.45684	0.92582	0.745	0.326
Mof_N 	N 	0.3895	0.9458	0.938	-0.19
Mof_N 	N 	0.3771	0.9911	0.934	-0.19
Mof_N 	N 	0.3175	0.9512	0.141	-0.25
Mof_C 	C 	0.3522	0.9232	0.056	0.15
Mof_C 	C 	0.3551	0.8715	0.06	0.158
Mof_H 	H 	0.3833	0.8622	0.1895	-0.049
Mof_H 	H 	0.355	0.8597	0.8095	-0.043
Mof_H 	H 	0.3288	0.8591	0.1996	-0.049
Mof_C 	C 	0.334	0.992	0.066	0.159
Mof_H 	H 	0.3172	0.0194	0.1007	-0.141
Mof_C 	C 	0.3103	0.0368	0.127	0.142
Mof_H 	H 	0.3273	0.0547	0.3105	-0.042
Mof_H 	H 	0.2793	0.0313	0.2175	-0.039
Mof_H 	H 	0.309	0.0537	0.8916	-0.028
Mof_H 	H 	0.3506	0.8909	0.0772	-0.144
Mof_Ag	Ag	0.57418	0.95684	0.755	0.326
Mof_N 	N 	0.5542	0.8895	0.562	-0.196
Mof_N 	N 	0.5089	0.8771	0.566	-0.196
Mof_N 	N 	0.5488	0.8175	0.359	-0.251
Mof_C 	C 	0.5768	0.8522	0.444	0.158
Mof_C 	C 	0.6285	0.8551	0.44	0.144
Mof_H 	H 	0.6378	0.8833	0.3105	-0.045
Mof_H 	H 	0.6403	0.855	0.6905	-0.042
Mof_H 	H 	0.6409	0.8288	0.3004	-0.046
Mof_C 	C 	0.508	0.834	0.434	0.167
Mof_H 	H 	0.4806	0.8172	0.3993	-0.134
Mof_C 	C 	0.4632	0.8103	0.373	0.131
Mof_H 	H 	0.4453	0.8273	0.1895	-0.041
Mof_H 	H 	0.4687	0.7793	0.2825	-0.037
Mof_H 	H 	0.4463	0.809	0.6084	-0.029
Mof_H 	H 	0.6091	0.8506	0.4228	-0.136
Mof_Ag	Ag	0.07418	0.45684	0.255	0.326
Mof_N 	N 	0.0542	0.3895	0.062	-0.19
Mof_N 	N 	0.0089	0.3771	0.066	-0.19
Mof_N 	N 	0.0488	0.3175	0.859	-0.25
Mof_C 	C 	0.0768	0.3522	0.944	0.15
Mof_C 	C 	0.1285	0.3551	0.94	0.158
Mof_H 	H 	0.1378	0.3833	0.8105	-0.049
Mof_H 	H 	0.1403	0.355	0.1905	-0.043
Mof_H 	H 	0.1409	0.3288	0.8004	-0.049
Mof_C 	C 	0.008	0.334	0.934	0.159
Mof_H 	H 	0.9806	0.3172	0.8993	-0.141
Mof_C 	C 	0.9632	0.3103	0.873	0.142
Mof_H 	H 	0.9453	0.3273	0.6895	-0.042
Mof_H 	H 	0.9687	0.2793	0.7825	-0.039
Mof_H 	H 	0.9463	0.309	0.1084	-0.028
Mof_H 	H 	0.1091	0.3506	0.9228	-0.144
Mof_Ag	Ag	0.42582	0.04316	0.755	0.326
Mof_N 	N 	0.4458	0.1105	0.562	-0.196
Mof_N 	N 	0.4911	0.1229	0.566	-0.196
Mof_N 	N 	0.4512	0.1825	0.359	-0.251
Mof_C 	C 	0.4232	0.1478	0.444	0.158
Mof_C 	C 	0.3715	0.1449	0.44	0.144
Mof_H 	H 	0.3622	0.1167	0.3105	-0.045
Mof_H 	H 	0.3597	0.145	0.6905	-0.042
Mof_H 	H 	0.3591	0.1712	0.3004	-0.046
Mof_C 	C 	0.492	0.166	0.434	0.167
Mof_H 	H 	0.5194	0.1828	0.3993	-0.134
Mof_C 	C 	0.5368	0.1897	0.373	0.131
Mof_H 	H 	0.5547	0.1727	0.1895	-0.041
Mof_H 	H 	0.5313	0.2207	0.2825	-0.037
Mof_H 	H 	0.5537	0.191	0.6084	-0.029
Mof_H 	H 	0.3909	0.1494	0.4228	-0.136
Mof_Ag	Ag	0.92582	0.54316	0.255	0.326
Mof_N 	N 	0.9458	0.6105	0.062	-0.19
Mof_N 	N 	0.9911	0.6229	0.066	-0.19
Mof_N 	N 	0.9512	0.6825	0.859	-0.25
Mof_C 	C 	0.9232	0.6478	0.944	0.15
Mof_C 	C 	0.8715	0.6449	0.94	0.158
Mof_H 	H 	0.8622	0.6167	0.8105	-0.049
Mof_H 	H 	0.8597	0.645	0.1905	-0.043
Mof_H 	H 	0.8591	0.6712	0.8004	-0.049
Mof_C 	C 	0.992	0.666	0.934	0.159
Mof_H 	H 	0.0194	0.6828	0.8993	-0.141
Mof_C 	C 	0.0368	0.6897	0.873	0.142
Mof_H 	H 	0.0547	0.6727	0.6895	-0.042
Mof_H 	H 	0.0313	0.7207	0.7825	-0.039
Mof_H 	H 	0.0537	0.691	0.1084	-0.028
Mof_H 	H 	0.8909	0.6494	0.9228	-0.144
Mof_Ag	Ag	0.45684	0.57418	0.505	0.322
Mof_N 	N 	0.3895	0.5542	0.312	-0.196
Mof_N 	N 	0.3771	0.5089	0.316	-0.196
Mof_N 	N 	0.3175	0.5488	0.109	-0.248
Mof_C 	C 	0.3522	0.5768	0.194	0.159
Mof_C 	C 	0.3551	0.6285	0.19	0.145
Mof_H 	H 	0.3833	0.6378	0.0605	-0.043
Mof_H 	H 	0.355	0.6403	0.4405	-0.045
Mof_H 	H 	0.3288	0.6409	0.0504	-0.043
Mof_C 	C 	0.334	0.508	0.184	0.167
Mof_H 	H 	0.3172	0.4806	0.1493	-0.132
Mof_C 	C 	0.3103	0.4632	0.123	0.129
Mof_H 	H 	0.3273	0.4453	0.9395	-0.04
Mof_H 	H 	0.2793	0.4687	0.0325	-0.031
Mof_H 	H 	0.309	0.4463	0.3584	-0.031
Mof_H 	H 	0.3506	0.6091	0.1728	-0.137
Mof_Ag	Ag	0.95684	0.07418	0.005	0.325
Mof_N 	N 	0.8895	0.0542	0.812	-0.195
Mof_N 	N 	0.8771	0.0089	0.816	-0.196
Mof_N 	N 	0.8175	0.0488	0.609	-0.252
Mof_C 	C 	0.8522	0.0768	0.694	0.158
Mof_C 	C 	0.8551	0.1285	0.69	0.144
Mof_H 	H 	0.8833	0.1378	0.5605	-0.044
Mof_H 	H 	0.855	0.1403	0.9405	-0.044
Mof_H 	H 	0.8288	0.1409	0.5504	-0.045
Mof_C 	C 	0.834	0.008	0.684	0.168
Mof_H 	H 	0.8172	0.9806	0.6493	-0.135
Mof_C 	C 	0.8103	0.9632	0.623	0.131
Mof_H 	H 	0.8273	0.9453	0.4395	-0.039
Mof_H 	H 	0.7793	0.9687	0.5325	-0.035
Mof_H 	H 	0.809	0.9463	0.8584	-0.03
Mof_H 	H 	0.8506	0.1091	0.6728	-0.136
Mof_Ag	Ag	0.54316	0.42582	0.505	0.322
Mof_N 	N 	0.6105	0.4458	0.312	-0.196
Mof_N 	N 	0.6229	0.4911	0.316	-0.196
Mof_N 	N 	0.6825	0.4512	0.109	-0.248
Mof_C 	C 	0.6478	0.4232	0.194	0.159
Mof_C 	C 	0.6449	0.3715	0.19	0.145
Mof_H 	H 	0.6167	0.3622	0.0605	-0.043
Mof_H 	H 	0.645	0.3597	0.4405	-0.045
Mof_H 	H 	0.6712	0.3591	0.0504	-0.043
Mof_C 	C 	0.666	0.492	0.184	0.167
Mof_H 	H 	0.6828	0.5194	0.1493	-0.132
Mof_C 	C 	0.6897	0.5368	0.123	0.129
Mof_H 	H 	0.6727	0.5547	0.9395	-0.04
Mof_H 	H 	0.7207	0.5313	0.0325	-0.031
Mof_H 	H 	0.691	0.5537	0.3584	-0.031
Mof_H 	H 	0.6494	0.3909	0.1728	-0.137
Mof_Ag	Ag	0.04316	0.92582	0.005	0.325
Mof_N 	N 	0.1105	0.9458	0.812	-0.195
Mof_N 	N 	0.1229	0.9911	0.816	-0.196
Mof_N 	N 	0.1825	0.9512	0.609	-0.252
Mof_C 	C 	0.1478	0.9232	0.694	0.158
Mof_C 	C 	0.1449	0.8715	0.69	0.144
Mof_H 	H 	0.1167	0.8622	0.5605	-0.044
Mof_H 	H 	0.145	0.8597	0.9405	-0.044
Mof_H 	H 	0.1712	0.8591	0.5504	-0.045
Mof_C 	C 	0.166	0.992	0.684	0.168
Mof_H 	H 	0.1828	0.0194	0.6493	-0.135
Mof_C 	C 	0.1897	0.0368	0.623	0.131
Mof_H 	H 	0.1727	0.0547	0.4395	-0.039
Mof_H 	H 	0.2207	0.0313	0.5325	-0.035
Mof_H 	H 	0.191	0.0537	0.8584	-0.03
Mof_H 	H 	0.1494	0.8909	0.6728	-0.136
Mof_Ag	Ag	0.92582	0.95684	0.995	0.325
Mof_N 	N 	0.9458	0.8895	0.188	-0.195
Mof_N 	N 	0.9911	0.8771	0.184	-0.196
Mof_N 	N 	0.9512	0.8175	0.391	-0.252
Mof_C 	C 	0.9232	0.8522	0.306	0.158
Mof_C 	C 	0.8715	0.8551	0.31	0.144
Mof_H 	H 	0.8622	0.8833	0.4395	-0.044
Mof_H 	H 	0.8597	0.855	0.0595	-0.044
Mof_H 	H 	0.8591	0.8288	0.4496	-0.045
Mof_C 	C 	0.992	0.834	0.316	0.168
Mof_H 	H 	0.0194	0.8172	0.3507	-0.135
Mof_C 	C 	0.0368	0.8103	0.377	0.131
Mof_H 	H 	0.0547	0.8273	0.5605	-0.039
Mof_H 	H 	0.0313	0.7793	0.4675	-0.035
Mof_H 	H 	0.0537	0.809	0.1416	-0.03
Mof_H 	H 	0.8909	0.8506	0.3272	-0.136
Mof_Ag	Ag	0.42582	0.45684	0.495	0.322
Mof_N 	N 	0.4458	0.3895	0.688	-0.196
Mof_N 	N 	0.4911	0.3771	0.684	-0.196
Mof_N 	N 	0.4512	0.3175	0.891	-0.248
Mof_C 	C 	0.4232	0.3522	0.806	0.159
Mof_C 	C 	0.3715	0.3551	0.81	0.145
Mof_H 	H 	0.3622	0.3833	0.9395	-0.043
Mof_H 	H 	0.3597	0.355	0.5595	-0.045
Mof_H 	H 	0.3591	0.3288	0.9496	-0.043
Mof_C 	C 	0.492	0.334	0.816	0.167
Mof_H 	H 	0.5194	0.3172	0.8507	-0.132
Mof_C 	C 	0.5368	0.3103	0.877	0.129
Mof_H 	H 	0.5547	0.3273	0.0605	-0.04
Mof_H 	H 	0.5313	0.2793	0.9675	-0.031
Mof_H 	H 	0.5537	0.309	0.6416	-0.031
Mof_H 	H 	0.3909	0.3506	0.8272	-0.137
Mof_Ag	Ag	0.07418	0.04316	0.995	0.325
Mof_N 	N 	0.0542	0.1105	0.188	-0.195
Mof_N 	N 	0.0089	0.1229	0.184	-0.196
Mof_N 	N 	0.0488	0.1825	0.391	-0.252
Mof_C 	C 	0.0768	0.1478	0.306	0.158
Mof_C 	C 	0.1285	0.1449	0.31	0.144
Mof_H 	H 	0.1378	0.1167	0.4395	-0.044
Mof_H 	H 	0.1403	0.145	0.0595	-0.044
Mof_H 	H 	0.1409	0.1712	0.4496	-0.045
Mof_C 	C 	0.008	0.166	0.316	0.168
Mof_H 	H 	0.9806	0.1828	0.3507	-0.135
Mof_C 	C 	0.9632	0.1897	0.377	0.131
Mof_H 	H 	0.9453	0.1727	0.5605	-0.039
Mof_H 	H 	0.9687	0.2207	0.4675	-0.035
Mof_H 	H 	0.9463	0.191	0.1416	-0.03
Mof_H 	H 	0.1091	0.1494	0.3272	-0.136
Mof_Ag	Ag	0.57418	0.54316	0.495	0.322
Mof_N 	N 	0.5542	0.6105	0.688	-0.196
Mof_N 	N 	0.5089	0.6229	0.684	-0.196
Mof_N 	N 	0.5488	0.6825	0.891	-0.248
Mof_C 	C 	0.5768	0.6478	0.806	0.159
Mof_C 	C 	0.6285	0.6449	0.81	0.145
Mof_H 	H 	0.6378	0.6167	0.9395	-0.043
Mof_H 	H 	0.6403	0.645	0.5595	-0.045
Mof_H 	H 	0.6409	0.6712	0.9496	-0.043
Mof_C 	C 	0.508	0.666	0.816	0.167
Mof_H 	H 	0.4806	0.6828	0.8507	-0.132
Mof_C 	C 	0.4632	0.6897	0.877	0.129
Mof_H 	H 	0.4453	0.6727	0.0605	-0.04
Mof_H 	H 	0.4687	0.7207	0.9675	-0.031
Mof_H 	H 	0.4463	0.691	0.6416	-0.031
Mof_H 	H 	0.6091	0.6494	0.8272	-0.137
Mof_Ag	Ag	0.25	0.56653	0.875	0.446
Mof_Ag	Ag	0.75	0.06653	0.375	0.457
Mof_Ag	Ag	0.75	0.43347	0.875	0.446
Mof_Ag	Ag	0.25	0.93347	0.375	0.457
Mof_Ag	Ag	0.56653	0.75	0.125	0.446
Mof_Ag	Ag	0.43347	0.25	0.125	0.446
Mof_Ag	Ag	0.93347	0.75	0.625	0.457
Mof_Ag	Ag	0.06653	0.25	0.625	0.457
_end
