data_functionalizedCrystal
_audit_creation_method	'EQeq! by Chris Wilmer'
_symmetry_space_group_name_H-M	'P1'
_symmetry_Int_Tables_number	1
_symmetry_cell_setting	triclinic
loop_
_symmetry_equiv_pos_as_xyz
  x,y,z
_cell_length_a	15.0954
_cell_length_b	25.789
_cell_length_c	32.274
_cell_angle_alpha	90
_cell_angle_beta	90
_cell_angle_gamma	90
loop_
_atom_site_label
_atom_site_type_symbol
_atom_site_fract_x
_atom_site_fract_y
_atom_site_fract_z
_atom_site_charge
Mof_O 	O 	0.8529	0.4361	0.1161	-0.498
Mof_O 	O 	0.9883	0.413	0.10224	-0.507
Mof_O 	O 	0.0091	0.5882	0.2812	-0.523
Mof_O 	O 	0.1445	0.5623	0.26929	-0.549
Mof_C 	C 	0.9353	0.4384	0.1238	0.302
Mof_C 	C 	0.0621	0.561	0.2606	0.348
Mof_N 	N 	0.1801	0.4946	0.2102	-0.194
Mof_H 	H 	0.205	0.512	0.2306	0.109
Mof_H 	H 	0.2118	0.473	0.1952	0.109
Mof_C 	C 	0.9661	0.4761	0.1572	-0.019
Mof_C 	C 	0.0547	0.4723	0.1685	-0.049
Mof_H 	H 	0.0933	0.4498	0.1537	0.055
Mof_C 	C 	0.0869	0.5014	0.2015	0.108
Mof_C 	C 	0.0305	0.5343	0.2232	-0.045
Mof_C 	C 	0.9419	0.538	0.2118	0.054
Mof_C 	C 	0.9097	0.5089	0.1789	-0.024
Mof_H 	H 	0.8491	0.5115	0.1711	0.042
Mof_N 	N 	0.1649	0.4676	0.2244	-0.168
Mof_H 	H 	0.187	0.4817	0.2469	0.098
Mof_H 	H 	0.1953	0.4439	0.2108	0.078
Mof_C 	C 	0.9656	0.4648	0.161	0.006
Mof_C 	C 	0.0504	0.4552	0.176	-0.05
Mof_H 	H 	0.0868	0.43	0.163	0.037
Mof_C 	C 	0.0817	0.4826	0.2101	0.035
Mof_C 	C 	0.0284	0.5195	0.2292	-0.107
Mof_C 	C 	0.9437	0.529	0.2141	0.098
Mof_C 	C 	0.9123	0.5017	0.18	-0.059
Mof_H 	H 	0.8544	0.5082	0.1698	0.02
Mof_N 	N 	0.889	0.564	0.2303	-0.322
Mof_H 	H 	0.9062	0.5822	0.2518	0.191
Mof_H 	H 	0.8363	0.5682	0.2196	0.153
Mof_O 	O 	0.8529	0.9361	0.6161	-0.497
Mof_O 	O 	0.9883	0.913	0.60224	-0.506
Mof_O 	O 	0.0091	0.0882	0.7812	-0.522
Mof_O 	O 	0.1445	0.0623	0.76929	-0.548
Mof_C 	C 	0.9353	0.9384	0.6238	0.303
Mof_C 	C 	0.0621	0.061	0.7606	0.349
Mof_N 	N 	0.1801	0.9946	0.7102	-0.194
Mof_H 	H 	0.205	0.012	0.7306	0.109
Mof_H 	H 	0.2118	0.973	0.6952	0.109
Mof_C 	C 	0.9661	0.9761	0.6572	-0.019
Mof_C 	C 	0.0547	0.9723	0.6685	-0.05
Mof_H 	H 	0.0933	0.9498	0.6537	0.055
Mof_C 	C 	0.0869	0.0014	0.7015	0.106
Mof_C 	C 	0.0305	0.0343	0.7232	-0.046
Mof_C 	C 	0.9419	0.038	0.7118	0.053
Mof_C 	C 	0.9097	0.0089	0.6789	-0.025
Mof_H 	H 	0.8491	0.0115	0.6711	0.042
Mof_N 	N 	0.1649	0.9676	0.7244	-0.169
Mof_H 	H 	0.187	0.9817	0.7469	0.098
Mof_H 	H 	0.1953	0.9439	0.7108	0.079
Mof_C 	C 	0.9656	0.9648	0.661	0.006
Mof_C 	C 	0.0504	0.9552	0.676	-0.049
Mof_H 	H 	0.0868	0.93	0.663	0.036
Mof_C 	C 	0.0817	0.9826	0.7101	0.037
Mof_C 	C 	0.0284	0.0195	0.7292	-0.105
Mof_C 	C 	0.9437	0.029	0.7141	0.098
Mof_C 	C 	0.9123	0.0017	0.68	-0.059
Mof_H 	H 	0.8544	0.0082	0.6698	0.02
Mof_N 	N 	0.889	0.064	0.7303	-0.322
Mof_H 	H 	0.9062	0.0822	0.7518	0.191
Mof_H 	H 	0.8363	0.0682	0.7196	0.152
Mof_O 	O 	0.3529	0.4361	0.6161	-0.497
Mof_O 	O 	0.4883	0.413	0.60224	-0.506
Mof_O 	O 	0.5091	0.5882	0.7812	-0.522
Mof_O 	O 	0.6445	0.5623	0.76929	-0.548
Mof_C 	C 	0.4353	0.4384	0.6238	0.303
Mof_C 	C 	0.5621	0.561	0.7606	0.349
Mof_N 	N 	0.6801	0.4946	0.7102	-0.194
Mof_H 	H 	0.705	0.512	0.7306	0.109
Mof_H 	H 	0.7118	0.473	0.6952	0.109
Mof_C 	C 	0.4661	0.4761	0.6572	-0.019
Mof_C 	C 	0.5547	0.4723	0.6685	-0.049
Mof_H 	H 	0.5933	0.4498	0.6537	0.055
Mof_C 	C 	0.5869	0.5014	0.7015	0.108
Mof_C 	C 	0.5305	0.5343	0.7232	-0.045
Mof_C 	C 	0.4419	0.538	0.7118	0.053
Mof_C 	C 	0.4097	0.5089	0.6789	-0.024
Mof_H 	H 	0.3491	0.5115	0.6711	0.042
Mof_N 	N 	0.6649	0.4676	0.7244	-0.168
Mof_H 	H 	0.687	0.4817	0.7469	0.098
Mof_H 	H 	0.6953	0.4439	0.7108	0.078
Mof_C 	C 	0.4656	0.4648	0.661	0.006
Mof_C 	C 	0.5504	0.4552	0.676	-0.05
Mof_H 	H 	0.5868	0.43	0.663	0.037
Mof_C 	C 	0.5817	0.4826	0.7101	0.035
Mof_C 	C 	0.5284	0.5195	0.7292	-0.106
Mof_C 	C 	0.4437	0.529	0.7141	0.098
Mof_C 	C 	0.4123	0.5017	0.68	-0.059
Mof_H 	H 	0.3544	0.5082	0.6698	0.02
Mof_N 	N 	0.389	0.564	0.7303	-0.322
Mof_H 	H 	0.4062	0.5822	0.7518	0.191
Mof_H 	H 	0.3363	0.5682	0.7196	0.153
Mof_O 	O 	0.3529	0.9361	0.1161	-0.497
Mof_O 	O 	0.4883	0.913	0.10224	-0.506
Mof_O 	O 	0.5091	0.0882	0.2812	-0.522
Mof_O 	O 	0.6445	0.0623	0.26929	-0.548
Mof_C 	C 	0.4353	0.9384	0.1238	0.303
Mof_C 	C 	0.5621	0.061	0.2606	0.349
Mof_N 	N 	0.6801	0.9946	0.2102	-0.194
Mof_H 	H 	0.705	0.012	0.2306	0.109
Mof_H 	H 	0.7118	0.973	0.1952	0.109
Mof_C 	C 	0.4661	0.9761	0.1572	-0.019
Mof_C 	C 	0.5547	0.9723	0.1685	-0.049
Mof_H 	H 	0.5933	0.9498	0.1537	0.054
Mof_C 	C 	0.5869	0.0014	0.2015	0.109
Mof_C 	C 	0.5305	0.0343	0.2232	-0.045
Mof_C 	C 	0.4419	0.038	0.2118	0.053
Mof_C 	C 	0.4097	0.0089	0.1789	-0.024
Mof_H 	H 	0.3491	0.0115	0.1711	0.042
Mof_N 	N 	0.6649	0.9676	0.2244	-0.168
Mof_H 	H 	0.687	0.9817	0.2469	0.098
Mof_H 	H 	0.6953	0.9439	0.2108	0.078
Mof_C 	C 	0.4656	0.9648	0.161	0.006
Mof_C 	C 	0.5504	0.9552	0.176	-0.05
Mof_H 	H 	0.5868	0.93	0.163	0.037
Mof_C 	C 	0.5817	0.9826	0.2101	0.034
Mof_C 	C 	0.5284	0.0195	0.2292	-0.107
Mof_C 	C 	0.4437	0.029	0.2141	0.097
Mof_C 	C 	0.4123	0.0017	0.18	-0.059
Mof_H 	H 	0.3544	0.0082	0.1698	0.02
Mof_N 	N 	0.389	0.064	0.2303	-0.322
Mof_H 	H 	0.4062	0.0822	0.2518	0.191
Mof_H 	H 	0.3363	0.0682	0.2196	0.153
Mof_O 	O 	0.8971	0.3139	0.1161	-0.497
Mof_O 	O 	0.7617	0.337	0.10224	-0.506
Mof_O 	O 	0.7409	0.1618	0.2812	-0.522
Mof_O 	O 	0.6055	0.1877	0.26929	-0.548
Mof_C 	C 	0.8147	0.3116	0.1238	0.303
Mof_C 	C 	0.6879	0.189	0.2606	0.349
Mof_N 	N 	0.5699	0.2554	0.2102	-0.194
Mof_H 	H 	0.545	0.238	0.2306	0.109
Mof_H 	H 	0.5382	0.277	0.1952	0.109
Mof_C 	C 	0.7839	0.2739	0.1572	-0.019
Mof_C 	C 	0.6953	0.2777	0.1685	-0.049
Mof_H 	H 	0.6567	0.3002	0.1537	0.055
Mof_C 	C 	0.6631	0.2486	0.2015	0.108
Mof_C 	C 	0.7195	0.2157	0.2232	-0.045
Mof_C 	C 	0.8081	0.212	0.2118	0.053
Mof_C 	C 	0.8403	0.2411	0.1789	-0.024
Mof_H 	H 	0.9009	0.2385	0.1711	0.042
Mof_N 	N 	0.5851	0.2824	0.2244	-0.168
Mof_H 	H 	0.563	0.2683	0.2469	0.098
Mof_H 	H 	0.5547	0.3061	0.2108	0.078
Mof_C 	C 	0.7844	0.2852	0.161	0.006
Mof_C 	C 	0.6996	0.2948	0.176	-0.05
Mof_H 	H 	0.6632	0.32	0.163	0.037
Mof_C 	C 	0.6683	0.2674	0.2101	0.035
Mof_C 	C 	0.7216	0.2305	0.2292	-0.106
Mof_C 	C 	0.8063	0.221	0.2141	0.097
Mof_C 	C 	0.8377	0.2483	0.18	-0.059
Mof_H 	H 	0.8956	0.2418	0.1698	0.02
Mof_N 	N 	0.861	0.186	0.2303	-0.322
Mof_H 	H 	0.8438	0.1678	0.2518	0.191
Mof_H 	H 	0.9137	0.1818	0.2196	0.152
Mof_O 	O 	0.8971	0.8139	0.6161	-0.497
Mof_O 	O 	0.7617	0.837	0.60224	-0.506
Mof_O 	O 	0.7409	0.6618	0.7812	-0.522
Mof_O 	O 	0.6055	0.6877	0.76929	-0.548
Mof_C 	C 	0.8147	0.8116	0.6238	0.303
Mof_C 	C 	0.6879	0.689	0.7606	0.349
Mof_N 	N 	0.5699	0.7554	0.7102	-0.194
Mof_H 	H 	0.545	0.738	0.7306	0.109
Mof_H 	H 	0.5382	0.777	0.6952	0.109
Mof_C 	C 	0.7839	0.7739	0.6572	-0.019
Mof_C 	C 	0.6953	0.7777	0.6685	-0.049
Mof_H 	H 	0.6567	0.8002	0.6537	0.055
Mof_C 	C 	0.6631	0.7486	0.7015	0.108
Mof_C 	C 	0.7195	0.7157	0.7232	-0.045
Mof_C 	C 	0.8081	0.712	0.7118	0.053
Mof_C 	C 	0.8403	0.7411	0.6789	-0.024
Mof_H 	H 	0.9009	0.7385	0.6711	0.042
Mof_N 	N 	0.5851	0.7824	0.7244	-0.168
Mof_H 	H 	0.563	0.7683	0.7469	0.098
Mof_H 	H 	0.5547	0.8061	0.7108	0.078
Mof_C 	C 	0.7844	0.7852	0.661	0.006
Mof_C 	C 	0.6996	0.7948	0.676	-0.05
Mof_H 	H 	0.6632	0.82	0.663	0.037
Mof_C 	C 	0.6683	0.7674	0.7101	0.035
Mof_C 	C 	0.7216	0.7305	0.7292	-0.106
Mof_C 	C 	0.8063	0.721	0.7141	0.098
Mof_C 	C 	0.8377	0.7483	0.68	-0.059
Mof_H 	H 	0.8956	0.7418	0.6698	0.02
Mof_N 	N 	0.861	0.686	0.7303	-0.322
Mof_H 	H 	0.8438	0.6678	0.7518	0.191
Mof_H 	H 	0.9137	0.6818	0.7196	0.152
Mof_O 	O 	0.3971	0.3139	0.6161	-0.497
Mof_O 	O 	0.2617	0.337	0.60224	-0.506
Mof_O 	O 	0.2409	0.1618	0.7812	-0.522
Mof_O 	O 	0.1055	0.1877	0.76929	-0.548
Mof_C 	C 	0.3147	0.3116	0.6238	0.303
Mof_C 	C 	0.1879	0.189	0.7606	0.349
Mof_N 	N 	0.0699	0.2554	0.7102	-0.194
Mof_H 	H 	0.045	0.238	0.7306	0.109
Mof_H 	H 	0.0382	0.277	0.6952	0.109
Mof_C 	C 	0.2839	0.2739	0.6572	-0.019
Mof_C 	C 	0.1953	0.2777	0.6685	-0.049
Mof_H 	H 	0.1567	0.3002	0.6537	0.055
Mof_C 	C 	0.1631	0.2486	0.7015	0.108
Mof_C 	C 	0.2195	0.2157	0.7232	-0.045
Mof_C 	C 	0.3081	0.212	0.7118	0.053
Mof_C 	C 	0.3403	0.2411	0.6789	-0.024
Mof_H 	H 	0.4009	0.2385	0.6711	0.042
Mof_N 	N 	0.0851	0.2824	0.7244	-0.168
Mof_H 	H 	0.063	0.2683	0.7469	0.098
Mof_H 	H 	0.0547	0.3061	0.7108	0.078
Mof_C 	C 	0.2844	0.2852	0.661	0.006
Mof_C 	C 	0.1996	0.2948	0.676	-0.05
Mof_H 	H 	0.1632	0.32	0.663	0.037
Mof_C 	C 	0.1683	0.2674	0.7101	0.035
Mof_C 	C 	0.2216	0.2305	0.7292	-0.106
Mof_C 	C 	0.3063	0.221	0.7141	0.098
Mof_C 	C 	0.3377	0.2483	0.68	-0.059
Mof_H 	H 	0.3956	0.2418	0.6698	0.02
Mof_N 	N 	0.361	0.186	0.7303	-0.322
Mof_H 	H 	0.3438	0.1678	0.7518	0.191
Mof_H 	H 	0.4137	0.1818	0.7196	0.153
Mof_O 	O 	0.3971	0.8139	0.1161	-0.497
Mof_O 	O 	0.2617	0.837	0.10224	-0.506
Mof_O 	O 	0.2409	0.6618	0.2812	-0.522
Mof_O 	O 	0.1055	0.6877	0.26929	-0.548
Mof_C 	C 	0.3147	0.8116	0.1238	0.303
Mof_C 	C 	0.1879	0.689	0.2606	0.349
Mof_N 	N 	0.0699	0.7554	0.2102	-0.194
Mof_H 	H 	0.045	0.738	0.2306	0.109
Mof_H 	H 	0.0382	0.777	0.1952	0.109
Mof_C 	C 	0.2839	0.7739	0.1572	-0.019
Mof_C 	C 	0.1953	0.7777	0.1685	-0.049
Mof_H 	H 	0.1567	0.8002	0.1537	0.055
Mof_C 	C 	0.1631	0.7486	0.2015	0.108
Mof_C 	C 	0.2195	0.7157	0.2232	-0.045
Mof_C 	C 	0.3081	0.712	0.2118	0.053
Mof_C 	C 	0.3403	0.7411	0.1789	-0.024
Mof_H 	H 	0.4009	0.7385	0.1711	0.042
Mof_N 	N 	0.0851	0.7824	0.2244	-0.168
Mof_H 	H 	0.063	0.7683	0.2469	0.098
Mof_H 	H 	0.0547	0.8061	0.2108	0.078
Mof_C 	C 	0.2844	0.7852	0.161	0.006
Mof_C 	C 	0.1996	0.7948	0.176	-0.05
Mof_H 	H 	0.1632	0.82	0.163	0.037
Mof_C 	C 	0.1683	0.7674	0.2101	0.035
Mof_C 	C 	0.2216	0.7305	0.2292	-0.106
Mof_C 	C 	0.3063	0.721	0.2141	0.098
Mof_C 	C 	0.3377	0.7483	0.18	-0.059
Mof_H 	H 	0.3956	0.7418	0.1698	0.02
Mof_N 	N 	0.361	0.686	0.2303	-0.322
Mof_H 	H 	0.3438	0.6678	0.2518	0.191
Mof_H 	H 	0.4137	0.6818	0.2196	0.153
Mof_O 	O 	0.1029	0.5639	0.3661	-0.497
Mof_O 	O 	0.2383	0.587	0.35224	-0.506
Mof_O 	O 	0.2591	0.4118	0.5312	-0.522
Mof_O 	O 	0.3945	0.4377	0.51929	-0.548
Mof_C 	C 	0.1853	0.5616	0.3738	0.303
Mof_C 	C 	0.3121	0.439	0.5106	0.349
Mof_N 	N 	0.4301	0.5054	0.4602	-0.194
Mof_H 	H 	0.455	0.488	0.4806	0.109
Mof_H 	H 	0.4618	0.527	0.4452	0.109
Mof_C 	C 	0.2161	0.5239	0.4072	-0.019
Mof_C 	C 	0.3047	0.5277	0.4185	-0.049
Mof_H 	H 	0.3433	0.5502	0.4037	0.055
Mof_C 	C 	0.3369	0.4986	0.4515	0.108
Mof_C 	C 	0.2805	0.4657	0.4732	-0.045
Mof_C 	C 	0.1919	0.462	0.4618	0.053
Mof_C 	C 	0.1597	0.4911	0.4289	-0.024
Mof_H 	H 	0.0991	0.4885	0.4211	0.042
Mof_N 	N 	0.4149	0.5324	0.4744	-0.168
Mof_H 	H 	0.437	0.5183	0.4969	0.098
Mof_H 	H 	0.4453	0.5561	0.4608	0.078
Mof_C 	C 	0.2156	0.5352	0.411	0.006
Mof_C 	C 	0.3004	0.5448	0.426	-0.05
Mof_H 	H 	0.3368	0.57	0.413	0.037
Mof_C 	C 	0.3317	0.5174	0.4601	0.035
Mof_C 	C 	0.2784	0.4805	0.4792	-0.106
Mof_C 	C 	0.1937	0.471	0.4641	0.098
Mof_C 	C 	0.1623	0.4983	0.43	-0.059
Mof_H 	H 	0.1044	0.4918	0.4198	0.02
Mof_N 	N 	0.139	0.436	0.4803	-0.322
Mof_H 	H 	0.1562	0.4178	0.5018	0.191
Mof_H 	H 	0.0863	0.4318	0.4696	0.152
Mof_O 	O 	0.1029	0.0639	0.8661	-0.497
Mof_O 	O 	0.2383	0.087	0.85224	-0.506
Mof_O 	O 	0.2591	0.9118	0.0312	-0.522
Mof_O 	O 	0.3945	0.9377	0.01929	-0.548
Mof_C 	C 	0.1853	0.0616	0.8738	0.303
Mof_C 	C 	0.3121	0.939	0.0106	0.349
Mof_N 	N 	0.4301	0.0054	0.9602	-0.194
Mof_H 	H 	0.455	0.988	0.9806	0.109
Mof_H 	H 	0.4618	0.027	0.9452	0.109
Mof_C 	C 	0.2161	0.0239	0.9072	-0.019
Mof_C 	C 	0.3047	0.0277	0.9185	-0.049
Mof_H 	H 	0.3433	0.0502	0.9037	0.054
Mof_C 	C 	0.3369	0.9986	0.9515	0.11
Mof_C 	C 	0.2805	0.9657	0.9732	-0.045
Mof_C 	C 	0.1919	0.962	0.9618	0.053
Mof_C 	C 	0.1597	0.9911	0.9289	-0.025
Mof_H 	H 	0.0991	0.9885	0.9211	0.042
Mof_N 	N 	0.4149	0.0324	0.9744	-0.168
Mof_H 	H 	0.437	0.0183	0.9969	0.098
Mof_H 	H 	0.4453	0.0561	0.9608	0.078
Mof_C 	C 	0.2156	0.0352	0.911	0.006
Mof_C 	C 	0.3004	0.0448	0.926	-0.05
Mof_H 	H 	0.3368	0.07	0.913	0.037
Mof_C 	C 	0.3317	0.0174	0.9601	0.033
Mof_C 	C 	0.2784	0.9805	0.9792	-0.107
Mof_C 	C 	0.1937	0.971	0.9641	0.097
Mof_C 	C 	0.1623	0.9983	0.93	-0.059
Mof_H 	H 	0.1044	0.9918	0.9198	0.02
Mof_N 	N 	0.139	0.936	0.9803	-0.322
Mof_H 	H 	0.1562	0.9178	0.0018	0.191
Mof_H 	H 	0.0863	0.9318	0.9696	0.152
Mof_O 	O 	0.6029	0.5639	0.8661	-0.497
Mof_O 	O 	0.7383	0.587	0.85224	-0.506
Mof_O 	O 	0.7591	0.4118	0.0312	-0.522
Mof_O 	O 	0.8945	0.4377	0.01929	-0.548
Mof_C 	C 	0.6853	0.5616	0.8738	0.303
Mof_C 	C 	0.8121	0.439	0.0106	0.35
Mof_N 	N 	0.9301	0.5054	0.9602	-0.194
Mof_H 	H 	0.955	0.488	0.9806	0.109
Mof_H 	H 	0.9618	0.527	0.9452	0.109
Mof_C 	C 	0.7161	0.5239	0.9072	-0.019
Mof_C 	C 	0.8047	0.5277	0.9185	-0.049
Mof_H 	H 	0.8433	0.5502	0.9037	0.055
Mof_C 	C 	0.8369	0.4986	0.9515	0.108
Mof_C 	C 	0.7805	0.4657	0.9732	-0.045
Mof_C 	C 	0.6919	0.462	0.9618	0.053
Mof_C 	C 	0.6597	0.4911	0.9289	-0.024
Mof_H 	H 	0.5991	0.4885	0.9211	0.042
Mof_N 	N 	0.9149	0.5324	0.9744	-0.168
Mof_H 	H 	0.937	0.5183	0.9969	0.098
Mof_H 	H 	0.9453	0.5561	0.9608	0.078
Mof_C 	C 	0.7156	0.5352	0.911	0.006
Mof_C 	C 	0.8004	0.5448	0.926	-0.05
Mof_H 	H 	0.8368	0.57	0.913	0.037
Mof_C 	C 	0.8317	0.5174	0.9601	0.035
Mof_C 	C 	0.7784	0.4805	0.9792	-0.107
Mof_C 	C 	0.6937	0.471	0.9641	0.098
Mof_C 	C 	0.6623	0.4983	0.93	-0.059
Mof_H 	H 	0.6044	0.4918	0.9198	0.02
Mof_N 	N 	0.639	0.436	0.9803	-0.322
Mof_H 	H 	0.6562	0.4178	0.0018	0.191
Mof_H 	H 	0.5863	0.4318	0.9696	0.153
Mof_O 	O 	0.6029	0.0639	0.3661	-0.497
Mof_O 	O 	0.7383	0.087	0.35224	-0.506
Mof_O 	O 	0.7591	0.9118	0.5312	-0.522
Mof_O 	O 	0.8945	0.9377	0.51929	-0.548
Mof_C 	C 	0.6853	0.0616	0.3738	0.303
Mof_C 	C 	0.8121	0.939	0.5106	0.349
Mof_N 	N 	0.9301	0.0054	0.4602	-0.194
Mof_H 	H 	0.955	0.988	0.4806	0.109
Mof_H 	H 	0.9618	0.027	0.4452	0.109
Mof_C 	C 	0.7161	0.0239	0.4072	-0.019
Mof_C 	C 	0.8047	0.0277	0.4185	-0.05
Mof_H 	H 	0.8433	0.0502	0.4037	0.055
Mof_C 	C 	0.8369	0.9986	0.4515	0.107
Mof_C 	C 	0.7805	0.9657	0.4732	-0.046
Mof_C 	C 	0.6919	0.962	0.4618	0.053
Mof_C 	C 	0.6597	0.9911	0.4289	-0.024
Mof_H 	H 	0.5991	0.9885	0.4211	0.042
Mof_N 	N 	0.9149	0.0324	0.4744	-0.169
Mof_H 	H 	0.937	0.0183	0.4969	0.098
Mof_H 	H 	0.9453	0.0561	0.4608	0.078
Mof_C 	C 	0.7156	0.0352	0.411	0.006
Mof_C 	C 	0.8004	0.0448	0.426	-0.049
Mof_H 	H 	0.8368	0.07	0.413	0.036
Mof_C 	C 	0.8317	0.0174	0.4601	0.036
Mof_C 	C 	0.7784	0.9805	0.4792	-0.106
Mof_C 	C 	0.6937	0.971	0.4641	0.098
Mof_C 	C 	0.6623	0.9983	0.43	-0.059
Mof_H 	H 	0.6044	0.9918	0.4198	0.02
Mof_N 	N 	0.639	0.936	0.4803	-0.322
Mof_H 	H 	0.6562	0.9178	0.5018	0.191
Mof_H 	H 	0.5863	0.9318	0.4696	0.153
Mof_O 	O 	0.1471	0.6861	0.3661	-0.497
Mof_O 	O 	0.0117	0.663	0.35224	-0.506
Mof_O 	O 	0.9909	0.8382	0.5312	-0.522
Mof_O 	O 	0.8555	0.8123	0.51929	-0.548
Mof_C 	C 	0.0647	0.6884	0.3738	0.303
Mof_C 	C 	0.9379	0.811	0.5106	0.349
Mof_N 	N 	0.8199	0.7446	0.4602	-0.194
Mof_H 	H 	0.795	0.762	0.4806	0.109
Mof_H 	H 	0.7882	0.723	0.4452	0.109
Mof_C 	C 	0.0339	0.7261	0.4072	-0.019
Mof_C 	C 	0.9453	0.7223	0.4185	-0.049
Mof_H 	H 	0.9067	0.6998	0.4037	0.055
Mof_C 	C 	0.9131	0.7514	0.4515	0.108
Mof_C 	C 	0.9695	0.7843	0.4732	-0.045
Mof_C 	C 	0.0581	0.788	0.4618	0.053
Mof_C 	C 	0.0903	0.7589	0.4289	-0.024
Mof_H 	H 	0.1509	0.7615	0.4211	0.042
Mof_N 	N 	0.8351	0.7176	0.4744	-0.168
Mof_H 	H 	0.813	0.7317	0.4969	0.098
Mof_H 	H 	0.8047	0.6939	0.4608	0.078
Mof_C 	C 	0.0344	0.7148	0.411	0.006
Mof_C 	C 	0.9496	0.7052	0.426	-0.05
Mof_H 	H 	0.9132	0.68	0.413	0.037
Mof_C 	C 	0.9183	0.7326	0.4601	0.035
Mof_C 	C 	0.9716	0.7695	0.4792	-0.106
Mof_C 	C 	0.0563	0.779	0.4641	0.097
Mof_C 	C 	0.0877	0.7517	0.43	-0.059
Mof_H 	H 	0.1456	0.7582	0.4198	0.02
Mof_N 	N 	0.111	0.814	0.4803	-0.322
Mof_H 	H 	0.0938	0.8322	0.5018	0.191
Mof_H 	H 	0.1637	0.8182	0.4696	0.152
Mof_O 	O 	0.1471	0.1861	0.8661	-0.497
Mof_O 	O 	0.0117	0.163	0.85224	-0.506
Mof_O 	O 	0.9909	0.3382	0.0312	-0.522
Mof_O 	O 	0.8555	0.3123	0.01929	-0.548
Mof_C 	C 	0.0647	0.1884	0.8738	0.303
Mof_C 	C 	0.9379	0.311	0.0106	0.35
Mof_N 	N 	0.8199	0.2446	0.9602	-0.194
Mof_H 	H 	0.795	0.262	0.9806	0.109
Mof_H 	H 	0.7882	0.223	0.9452	0.109
Mof_C 	C 	0.0339	0.2261	0.9072	-0.019
Mof_C 	C 	0.9453	0.2223	0.9185	-0.049
Mof_H 	H 	0.9067	0.1998	0.9037	0.055
Mof_C 	C 	0.9131	0.2514	0.9515	0.108
Mof_C 	C 	0.9695	0.2843	0.9732	-0.046
Mof_C 	C 	0.0581	0.288	0.9618	0.054
Mof_C 	C 	0.0903	0.2589	0.9289	-0.025
Mof_H 	H 	0.1509	0.2615	0.9211	0.042
Mof_N 	N 	0.8351	0.2176	0.9744	-0.168
Mof_H 	H 	0.813	0.2317	0.9969	0.098
Mof_H 	H 	0.8047	0.1939	0.9608	0.078
Mof_C 	C 	0.0344	0.2148	0.911	0.006
Mof_C 	C 	0.9496	0.2052	0.926	-0.05
Mof_H 	H 	0.9132	0.18	0.913	0.037
Mof_C 	C 	0.9183	0.2326	0.9601	0.035
Mof_C 	C 	0.9716	0.2695	0.9792	-0.107
Mof_C 	C 	0.0563	0.279	0.9641	0.098
Mof_C 	C 	0.0877	0.2517	0.93	-0.059
Mof_H 	H 	0.1456	0.2582	0.9198	0.02
Mof_N 	N 	0.111	0.314	0.9803	-0.322
Mof_H 	H 	0.0938	0.3322	0.0018	0.191
Mof_H 	H 	0.1637	0.3182	0.9696	0.153
Mof_O 	O 	0.6471	0.6861	0.8661	-0.497
Mof_O 	O 	0.5117	0.663	0.85224	-0.506
Mof_O 	O 	0.4909	0.8382	0.0312	-0.522
Mof_O 	O 	0.3555	0.8123	0.01929	-0.548
Mof_C 	C 	0.5647	0.6884	0.8738	0.303
Mof_C 	C 	0.4379	0.811	0.0106	0.349
Mof_N 	N 	0.3199	0.7446	0.9602	-0.194
Mof_H 	H 	0.295	0.762	0.9806	0.109
Mof_H 	H 	0.2882	0.723	0.9452	0.109
Mof_C 	C 	0.5339	0.7261	0.9072	-0.019
Mof_C 	C 	0.4453	0.7223	0.9185	-0.049
Mof_H 	H 	0.4067	0.6998	0.9037	0.055
Mof_C 	C 	0.4131	0.7514	0.9515	0.108
Mof_C 	C 	0.4695	0.7843	0.9732	-0.045
Mof_C 	C 	0.5581	0.788	0.9618	0.053
Mof_C 	C 	0.5903	0.7589	0.9289	-0.024
Mof_H 	H 	0.6509	0.7615	0.9211	0.042
Mof_N 	N 	0.3351	0.7176	0.9744	-0.168
Mof_H 	H 	0.313	0.7317	0.9969	0.098
Mof_H 	H 	0.3047	0.6939	0.9608	0.078
Mof_C 	C 	0.5344	0.7148	0.911	0.006
Mof_C 	C 	0.4496	0.7052	0.926	-0.05
Mof_H 	H 	0.4132	0.68	0.913	0.037
Mof_C 	C 	0.4183	0.7326	0.9601	0.035
Mof_C 	C 	0.4716	0.7695	0.9792	-0.106
Mof_C 	C 	0.5563	0.779	0.9641	0.098
Mof_C 	C 	0.5877	0.7517	0.93	-0.059
Mof_H 	H 	0.6456	0.7582	0.9198	0.02
Mof_N 	N 	0.611	0.814	0.9803	-0.322
Mof_H 	H 	0.5938	0.8322	0.0018	0.191
Mof_H 	H 	0.6637	0.8182	0.9696	0.153
Mof_O 	O 	0.6471	0.1861	0.3661	-0.497
Mof_O 	O 	0.5117	0.163	0.35224	-0.506
Mof_O 	O 	0.4909	0.3382	0.5312	-0.522
Mof_O 	O 	0.3555	0.3123	0.51929	-0.548
Mof_C 	C 	0.5647	0.1884	0.3738	0.303
Mof_C 	C 	0.4379	0.311	0.5106	0.349
Mof_N 	N 	0.3199	0.2446	0.4602	-0.194
Mof_H 	H 	0.295	0.262	0.4806	0.109
Mof_H 	H 	0.2882	0.223	0.4452	0.109
Mof_C 	C 	0.5339	0.2261	0.4072	-0.019
Mof_C 	C 	0.4453	0.2223	0.4185	-0.049
Mof_H 	H 	0.4067	0.1998	0.4037	0.055
Mof_C 	C 	0.4131	0.2514	0.4515	0.108
Mof_C 	C 	0.4695	0.2843	0.4732	-0.045
Mof_C 	C 	0.5581	0.288	0.4618	0.053
Mof_C 	C 	0.5903	0.2589	0.4289	-0.024
Mof_H 	H 	0.6509	0.2615	0.4211	0.042
Mof_N 	N 	0.3351	0.2176	0.4744	-0.168
Mof_H 	H 	0.313	0.2317	0.4969	0.098
Mof_H 	H 	0.3047	0.1939	0.4608	0.078
Mof_C 	C 	0.5344	0.2148	0.411	0.006
Mof_C 	C 	0.4496	0.2052	0.426	-0.05
Mof_H 	H 	0.4132	0.18	0.413	0.037
Mof_C 	C 	0.4183	0.2326	0.4601	0.035
Mof_C 	C 	0.4716	0.2695	0.4792	-0.106
Mof_C 	C 	0.5563	0.279	0.4641	0.098
Mof_C 	C 	0.5877	0.2517	0.43	-0.059
Mof_H 	H 	0.6456	0.2582	0.4198	0.02
Mof_N 	N 	0.611	0.314	0.4803	-0.322
Mof_H 	H 	0.5938	0.3322	0.5018	0.191
Mof_H 	H 	0.6637	0.3182	0.4696	0.153
Mof_In	In	0.875	0.375	0.06641	2.533
Mof_In	In	0.875	0.875	0.56641	2.533
Mof_In	In	0.375	0.375	0.56641	2.533
Mof_In	In	0.375	0.875	0.06641	2.533
Mof_In	In	0.125	0.625	0.31641	2.533
Mof_In	In	0.125	0.125	0.81641	2.533
Mof_In	In	0.625	0.625	0.81641	2.533
Mof_In	In	0.625	0.125	0.31641	2.533
Mof_O 	O 	0.8971	0.4361	0.6339	-0.497
Mof_O 	O 	0.7617	0.413	0.64776	-0.506
Mof_O 	O 	0.7409	0.5882	0.4688	-0.522
Mof_O 	O 	0.6055	0.5623	0.48071	-0.548
Mof_C 	C 	0.8147	0.4384	0.6262	0.303
Mof_C 	C 	0.6879	0.561	0.4894	0.349
Mof_N 	N 	0.5699	0.4946	0.5398	-0.194
Mof_H 	H 	0.545	0.512	0.5194	0.109
Mof_H 	H 	0.5382	0.473	0.5548	0.109
Mof_C 	C 	0.7839	0.4761	0.5928	-0.019
Mof_C 	C 	0.6953	0.4723	0.5815	-0.049
Mof_H 	H 	0.6567	0.4498	0.5963	0.055
Mof_C 	C 	0.6631	0.5014	0.5485	0.108
Mof_C 	C 	0.7195	0.5343	0.5268	-0.045
Mof_C 	C 	0.8081	0.538	0.5382	0.053
Mof_C 	C 	0.8403	0.5089	0.5711	-0.024
Mof_H 	H 	0.9009	0.5115	0.5789	0.042
Mof_N 	N 	0.5851	0.4676	0.5256	-0.168
Mof_H 	H 	0.563	0.4817	0.5031	0.098
Mof_H 	H 	0.5547	0.4439	0.5392	0.078
Mof_C 	C 	0.7844	0.4648	0.589	0.006
Mof_C 	C 	0.6996	0.4552	0.574	-0.05
Mof_H 	H 	0.6632	0.43	0.587	0.037
Mof_C 	C 	0.6683	0.4826	0.5399	0.035
Mof_C 	C 	0.7216	0.5195	0.5208	-0.106
Mof_C 	C 	0.8063	0.529	0.5359	0.098
Mof_C 	C 	0.8377	0.5017	0.57	-0.059
Mof_H 	H 	0.8956	0.5082	0.5802	0.02
Mof_N 	N 	0.861	0.564	0.5197	-0.322
Mof_H 	H 	0.8438	0.5822	0.4982	0.191
Mof_H 	H 	0.9137	0.5682	0.5304	0.152
Mof_O 	O 	0.8971	0.9361	0.1339	-0.497
Mof_O 	O 	0.7617	0.913	0.14776	-0.506
Mof_O 	O 	0.7409	0.0882	0.9688	-0.522
Mof_O 	O 	0.6055	0.0623	0.98071	-0.548
Mof_C 	C 	0.8147	0.9384	0.1262	0.303
Mof_C 	C 	0.6879	0.061	0.9894	0.349
Mof_N 	N 	0.5699	0.9946	0.0398	-0.194
Mof_H 	H 	0.545	0.012	0.0194	0.109
Mof_H 	H 	0.5382	0.973	0.0548	0.109
Mof_C 	C 	0.7839	0.9761	0.0928	-0.019
Mof_C 	C 	0.6953	0.9723	0.0815	-0.049
Mof_H 	H 	0.6567	0.9498	0.0963	0.054
Mof_C 	C 	0.6631	0.0014	0.0485	0.11
Mof_C 	C 	0.7195	0.0343	0.0268	-0.045
Mof_C 	C 	0.8081	0.038	0.0382	0.053
Mof_C 	C 	0.8403	0.0089	0.0711	-0.025
Mof_H 	H 	0.9009	0.0115	0.0789	0.042
Mof_N 	N 	0.5851	0.9676	0.0256	-0.168
Mof_H 	H 	0.563	0.9817	0.0031	0.098
Mof_H 	H 	0.5547	0.9439	0.0392	0.078
Mof_C 	C 	0.7844	0.9648	0.089	0.006
Mof_C 	C 	0.6996	0.9552	0.074	-0.05
Mof_H 	H 	0.6632	0.93	0.087	0.037
Mof_C 	C 	0.6683	0.9826	0.0399	0.033
Mof_C 	C 	0.7216	0.0195	0.0208	-0.107
Mof_C 	C 	0.8063	0.029	0.0359	0.097
Mof_C 	C 	0.8377	0.0017	0.07	-0.059
Mof_H 	H 	0.8956	0.0082	0.0802	0.02
Mof_N 	N 	0.861	0.064	0.0197	-0.322
Mof_H 	H 	0.8438	0.0822	0.9982	0.191
Mof_H 	H 	0.9137	0.0682	0.0304	0.152
Mof_O 	O 	0.3971	0.4361	0.1339	-0.497
Mof_O 	O 	0.2617	0.413	0.14776	-0.506
Mof_O 	O 	0.2409	0.5882	0.9688	-0.522
Mof_O 	O 	0.1055	0.5623	0.98071	-0.548
Mof_C 	C 	0.3147	0.4384	0.1262	0.303
Mof_C 	C 	0.1879	0.561	0.9894	0.35
Mof_N 	N 	0.0699	0.4946	0.0398	-0.194
Mof_H 	H 	0.045	0.512	0.0194	0.109
Mof_H 	H 	0.0382	0.473	0.0548	0.109
Mof_C 	C 	0.2839	0.4761	0.0928	-0.019
Mof_C 	C 	0.1953	0.4723	0.0815	-0.049
Mof_H 	H 	0.1567	0.4498	0.0963	0.055
Mof_C 	C 	0.1631	0.5014	0.0485	0.108
Mof_C 	C 	0.2195	0.5343	0.0268	-0.045
Mof_C 	C 	0.3081	0.538	0.0382	0.053
Mof_C 	C 	0.3403	0.5089	0.0711	-0.024
Mof_H 	H 	0.4009	0.5115	0.0789	0.042
Mof_N 	N 	0.0851	0.4676	0.0256	-0.168
Mof_H 	H 	0.063	0.4817	0.0031	0.098
Mof_H 	H 	0.0547	0.4439	0.0392	0.078
Mof_C 	C 	0.2844	0.4648	0.089	0.006
Mof_C 	C 	0.1996	0.4552	0.074	-0.05
Mof_H 	H 	0.1632	0.43	0.087	0.037
Mof_C 	C 	0.1683	0.4826	0.0399	0.035
Mof_C 	C 	0.2216	0.5195	0.0208	-0.107
Mof_C 	C 	0.3063	0.529	0.0359	0.098
Mof_C 	C 	0.3377	0.5017	0.07	-0.059
Mof_H 	H 	0.3956	0.5082	0.0802	0.02
Mof_N 	N 	0.361	0.564	0.0197	-0.322
Mof_H 	H 	0.3438	0.5822	0.9982	0.191
Mof_H 	H 	0.4137	0.5682	0.0304	0.153
Mof_O 	O 	0.3971	0.9361	0.6339	-0.497
Mof_O 	O 	0.2617	0.913	0.64776	-0.506
Mof_O 	O 	0.2409	0.0882	0.4688	-0.522
Mof_O 	O 	0.1055	0.0623	0.48071	-0.548
Mof_C 	C 	0.3147	0.9384	0.6262	0.303
Mof_C 	C 	0.1879	0.061	0.4894	0.349
Mof_N 	N 	0.0699	0.9946	0.5398	-0.194
Mof_H 	H 	0.045	0.012	0.5194	0.109
Mof_H 	H 	0.0382	0.973	0.5548	0.109
Mof_C 	C 	0.2839	0.9761	0.5928	-0.019
Mof_C 	C 	0.1953	0.9723	0.5815	-0.05
Mof_H 	H 	0.1567	0.9498	0.5963	0.055
Mof_C 	C 	0.1631	0.0014	0.5485	0.107
Mof_C 	C 	0.2195	0.0343	0.5268	-0.046
Mof_C 	C 	0.3081	0.038	0.5382	0.053
Mof_C 	C 	0.3403	0.0089	0.5711	-0.024
Mof_H 	H 	0.4009	0.0115	0.5789	0.042
Mof_N 	N 	0.0851	0.9676	0.5256	-0.169
Mof_H 	H 	0.063	0.9817	0.5031	0.098
Mof_H 	H 	0.0547	0.9439	0.5392	0.078
Mof_C 	C 	0.2844	0.9648	0.589	0.006
Mof_C 	C 	0.1996	0.9552	0.574	-0.049
Mof_H 	H 	0.1632	0.93	0.587	0.036
Mof_C 	C 	0.1683	0.9826	0.5399	0.036
Mof_C 	C 	0.2216	0.0195	0.5208	-0.106
Mof_C 	C 	0.3063	0.029	0.5359	0.098
Mof_C 	C 	0.3377	0.0017	0.57	-0.059
Mof_H 	H 	0.3956	0.0082	0.5802	0.02
Mof_N 	N 	0.361	0.064	0.5197	-0.322
Mof_H 	H 	0.3438	0.0822	0.4982	0.191
Mof_H 	H 	0.4137	0.0682	0.5304	0.153
Mof_O 	O 	0.8529	0.3139	0.6339	-0.497
Mof_O 	O 	0.9883	0.337	0.64776	-0.506
Mof_O 	O 	0.0091	0.1618	0.4688	-0.522
Mof_O 	O 	0.1445	0.1877	0.48071	-0.548
Mof_C 	C 	0.9353	0.3116	0.6262	0.303
Mof_C 	C 	0.0621	0.189	0.4894	0.349
Mof_N 	N 	0.1801	0.2554	0.5398	-0.194
Mof_H 	H 	0.205	0.238	0.5194	0.109
Mof_H 	H 	0.2118	0.277	0.5548	0.109
Mof_C 	C 	0.9661	0.2739	0.5928	-0.019
Mof_C 	C 	0.0547	0.2777	0.5815	-0.049
Mof_H 	H 	0.0933	0.3002	0.5963	0.055
Mof_C 	C 	0.0869	0.2486	0.5485	0.108
Mof_C 	C 	0.0305	0.2157	0.5268	-0.045
Mof_C 	C 	0.9419	0.212	0.5382	0.053
Mof_C 	C 	0.9097	0.2411	0.5711	-0.024
Mof_H 	H 	0.8491	0.2385	0.5789	0.042
Mof_N 	N 	0.1649	0.2824	0.5256	-0.168
Mof_H 	H 	0.187	0.2683	0.5031	0.098
Mof_H 	H 	0.1953	0.3061	0.5392	0.078
Mof_C 	C 	0.9656	0.2852	0.589	0.006
Mof_C 	C 	0.0504	0.2948	0.574	-0.05
Mof_H 	H 	0.0868	0.32	0.587	0.037
Mof_C 	C 	0.0817	0.2674	0.5399	0.035
Mof_C 	C 	0.0284	0.2305	0.5208	-0.106
Mof_C 	C 	0.9437	0.221	0.5359	0.097
Mof_C 	C 	0.9123	0.2483	0.57	-0.059
Mof_H 	H 	0.8544	0.2418	0.5802	0.02
Mof_N 	N 	0.889	0.186	0.5197	-0.322
Mof_H 	H 	0.9062	0.1678	0.4982	0.191
Mof_H 	H 	0.8363	0.1818	0.5304	0.152
Mof_O 	O 	0.8529	0.8139	0.1339	-0.497
Mof_O 	O 	0.9883	0.837	0.14776	-0.506
Mof_O 	O 	0.0091	0.6618	0.9688	-0.522
Mof_O 	O 	0.1445	0.6877	0.98071	-0.548
Mof_C 	C 	0.9353	0.8116	0.1262	0.303
Mof_C 	C 	0.0621	0.689	0.9894	0.35
Mof_N 	N 	0.1801	0.7554	0.0398	-0.194
Mof_H 	H 	0.205	0.738	0.0194	0.109
Mof_H 	H 	0.2118	0.777	0.0548	0.109
Mof_C 	C 	0.9661	0.7739	0.0928	-0.019
Mof_C 	C 	0.0547	0.7777	0.0815	-0.049
Mof_H 	H 	0.0933	0.8002	0.0963	0.055
Mof_C 	C 	0.0869	0.7486	0.0485	0.108
Mof_C 	C 	0.0305	0.7157	0.0268	-0.046
Mof_C 	C 	0.9419	0.712	0.0382	0.054
Mof_C 	C 	0.9097	0.7411	0.0711	-0.025
Mof_H 	H 	0.8491	0.7385	0.0789	0.042
Mof_N 	N 	0.1649	0.7824	0.0256	-0.168
Mof_H 	H 	0.187	0.7683	0.0031	0.098
Mof_H 	H 	0.1953	0.8061	0.0392	0.078
Mof_C 	C 	0.9656	0.7852	0.089	0.006
Mof_C 	C 	0.0504	0.7948	0.074	-0.05
Mof_H 	H 	0.0868	0.82	0.087	0.037
Mof_C 	C 	0.0817	0.7674	0.0399	0.035
Mof_C 	C 	0.0284	0.7305	0.0208	-0.107
Mof_C 	C 	0.9437	0.721	0.0359	0.098
Mof_C 	C 	0.9123	0.7483	0.07	-0.059
Mof_H 	H 	0.8544	0.7418	0.0802	0.02
Mof_N 	N 	0.889	0.686	0.0197	-0.322
Mof_H 	H 	0.9062	0.6678	0.9982	0.191
Mof_H 	H 	0.8363	0.6818	0.0304	0.153
Mof_O 	O 	0.3529	0.3139	0.1339	-0.497
Mof_O 	O 	0.4883	0.337	0.14776	-0.506
Mof_O 	O 	0.5091	0.1618	0.9688	-0.522
Mof_O 	O 	0.6445	0.1877	0.98071	-0.548
Mof_C 	C 	0.4353	0.3116	0.1262	0.303
Mof_C 	C 	0.5621	0.189	0.9894	0.349
Mof_N 	N 	0.6801	0.2554	0.0398	-0.194
Mof_H 	H 	0.705	0.238	0.0194	0.109
Mof_H 	H 	0.7118	0.277	0.0548	0.109
Mof_C 	C 	0.4661	0.2739	0.0928	-0.019
Mof_C 	C 	0.5547	0.2777	0.0815	-0.049
Mof_H 	H 	0.5933	0.3002	0.0963	0.055
Mof_C 	C 	0.5869	0.2486	0.0485	0.108
Mof_C 	C 	0.5305	0.2157	0.0268	-0.045
Mof_C 	C 	0.4419	0.212	0.0382	0.053
Mof_C 	C 	0.4097	0.2411	0.0711	-0.024
Mof_H 	H 	0.3491	0.2385	0.0789	0.042
Mof_N 	N 	0.6649	0.2824	0.0256	-0.168
Mof_H 	H 	0.687	0.2683	0.0031	0.098
Mof_H 	H 	0.6953	0.3061	0.0392	0.078
Mof_C 	C 	0.4656	0.2852	0.089	0.006
Mof_C 	C 	0.5504	0.2948	0.074	-0.05
Mof_H 	H 	0.5868	0.32	0.087	0.037
Mof_C 	C 	0.5817	0.2674	0.0399	0.035
Mof_C 	C 	0.5284	0.2305	0.0208	-0.106
Mof_C 	C 	0.4437	0.221	0.0359	0.098
Mof_C 	C 	0.4123	0.2483	0.07	-0.059
Mof_H 	H 	0.3544	0.2418	0.0802	0.02
Mof_N 	N 	0.389	0.186	0.0197	-0.322
Mof_H 	H 	0.4062	0.1678	0.9982	0.191
Mof_H 	H 	0.3363	0.1818	0.0304	0.153
Mof_O 	O 	0.3529	0.8139	0.6339	-0.497
Mof_O 	O 	0.4883	0.837	0.64776	-0.506
Mof_O 	O 	0.5091	0.6618	0.4688	-0.522
Mof_O 	O 	0.6445	0.6877	0.48071	-0.548
Mof_C 	C 	0.4353	0.8116	0.6262	0.303
Mof_C 	C 	0.5621	0.689	0.4894	0.349
Mof_N 	N 	0.6801	0.7554	0.5398	-0.194
Mof_H 	H 	0.705	0.738	0.5194	0.109
Mof_H 	H 	0.7118	0.777	0.5548	0.109
Mof_C 	C 	0.4661	0.7739	0.5928	-0.019
Mof_C 	C 	0.5547	0.7777	0.5815	-0.049
Mof_H 	H 	0.5933	0.8002	0.5963	0.055
Mof_C 	C 	0.5869	0.7486	0.5485	0.108
Mof_C 	C 	0.5305	0.7157	0.5268	-0.045
Mof_C 	C 	0.4419	0.712	0.5382	0.053
Mof_C 	C 	0.4097	0.7411	0.5711	-0.024
Mof_H 	H 	0.3491	0.7385	0.5789	0.042
Mof_N 	N 	0.6649	0.7824	0.5256	-0.168
Mof_H 	H 	0.687	0.7683	0.5031	0.098
Mof_H 	H 	0.6953	0.8061	0.5392	0.078
Mof_C 	C 	0.4656	0.7852	0.589	0.006
Mof_C 	C 	0.5504	0.7948	0.574	-0.05
Mof_H 	H 	0.5868	0.82	0.587	0.037
Mof_C 	C 	0.5817	0.7674	0.5399	0.035
Mof_C 	C 	0.5284	0.7305	0.5208	-0.106
Mof_C 	C 	0.4437	0.721	0.5359	0.098
Mof_C 	C 	0.4123	0.7483	0.57	-0.059
Mof_H 	H 	0.3544	0.7418	0.5802	0.02
Mof_N 	N 	0.389	0.686	0.5197	-0.322
Mof_H 	H 	0.4062	0.6678	0.4982	0.191
Mof_H 	H 	0.3363	0.6818	0.5304	0.153
Mof_O 	O 	0.1471	0.5639	0.8839	-0.497
Mof_O 	O 	0.0117	0.587	0.89776	-0.506
Mof_O 	O 	0.9909	0.4118	0.7188	-0.522
Mof_O 	O 	0.8555	0.4377	0.73071	-0.548
Mof_C 	C 	0.0647	0.5616	0.8762	0.303
Mof_C 	C 	0.9379	0.439	0.7394	0.349
Mof_N 	N 	0.8199	0.5054	0.7898	-0.194
Mof_H 	H 	0.795	0.488	0.7694	0.109
Mof_H 	H 	0.7882	0.527	0.8048	0.109
Mof_C 	C 	0.0339	0.5239	0.8428	-0.019
Mof_C 	C 	0.9453	0.5277	0.8315	-0.049
Mof_H 	H 	0.9067	0.5502	0.8463	0.055
Mof_C 	C 	0.9131	0.4986	0.7985	0.108
Mof_C 	C 	0.9695	0.4657	0.7768	-0.045
Mof_C 	C 	0.0581	0.462	0.7882	0.054
Mof_C 	C 	0.0903	0.4911	0.8211	-0.024
Mof_H 	H 	0.1509	0.4885	0.8289	0.042
Mof_N 	N 	0.8351	0.5324	0.7756	-0.168
Mof_H 	H 	0.813	0.5183	0.7531	0.098
Mof_H 	H 	0.8047	0.5561	0.7892	0.078
Mof_C 	C 	0.0344	0.5352	0.839	0.006
Mof_C 	C 	0.9496	0.5448	0.824	-0.05
Mof_H 	H 	0.9132	0.57	0.837	0.037
Mof_C 	C 	0.9183	0.5174	0.7899	0.035
Mof_C 	C 	0.9716	0.4805	0.7708	-0.107
Mof_C 	C 	0.0563	0.471	0.7859	0.098
Mof_C 	C 	0.0877	0.4983	0.82	-0.059
Mof_H 	H 	0.1456	0.4918	0.8302	0.02
Mof_N 	N 	0.111	0.436	0.7697	-0.322
Mof_H 	H 	0.0938	0.4178	0.7482	0.191
Mof_H 	H 	0.1637	0.4318	0.7804	0.153
Mof_O 	O 	0.1471	0.0639	0.3839	-0.497
Mof_O 	O 	0.0117	0.087	0.39776	-0.506
Mof_O 	O 	0.9909	0.9118	0.2188	-0.522
Mof_O 	O 	0.8555	0.9377	0.23071	-0.548
Mof_C 	C 	0.0647	0.0616	0.3762	0.303
Mof_C 	C 	0.9379	0.939	0.2394	0.349
Mof_N 	N 	0.8199	0.0054	0.2898	-0.194
Mof_H 	H 	0.795	0.988	0.2694	0.109
Mof_H 	H 	0.7882	0.027	0.3048	0.109
Mof_C 	C 	0.0339	0.0239	0.3428	-0.019
Mof_C 	C 	0.9453	0.0277	0.3315	-0.05
Mof_H 	H 	0.9067	0.0502	0.3463	0.055
Mof_C 	C 	0.9131	0.9986	0.2985	0.106
Mof_C 	C 	0.9695	0.9657	0.2768	-0.046
Mof_C 	C 	0.0581	0.962	0.2882	0.053
Mof_C 	C 	0.0903	0.9911	0.3211	-0.025
Mof_H 	H 	0.1509	0.9885	0.3289	0.042
Mof_N 	N 	0.8351	0.0324	0.2756	-0.169
Mof_H 	H 	0.813	0.0183	0.2531	0.098
Mof_H 	H 	0.8047	0.0561	0.2892	0.079
Mof_C 	C 	0.0344	0.0352	0.339	0.006
Mof_C 	C 	0.9496	0.0448	0.324	-0.049
Mof_H 	H 	0.9132	0.07	0.337	0.036
Mof_C 	C 	0.9183	0.0174	0.2899	0.037
Mof_C 	C 	0.9716	0.9805	0.2708	-0.105
Mof_C 	C 	0.0563	0.971	0.2859	0.098
Mof_C 	C 	0.0877	0.9983	0.32	-0.059
Mof_H 	H 	0.1456	0.9918	0.3302	0.02
Mof_N 	N 	0.111	0.936	0.2697	-0.322
Mof_H 	H 	0.0938	0.9178	0.2482	0.191
Mof_H 	H 	0.1637	0.9318	0.2804	0.152
Mof_O 	O 	0.6471	0.5639	0.3839	-0.497
Mof_O 	O 	0.5117	0.587	0.39776	-0.506
Mof_O 	O 	0.4909	0.4118	0.2188	-0.522
Mof_O 	O 	0.3555	0.4377	0.23071	-0.548
Mof_C 	C 	0.5647	0.5616	0.3762	0.303
Mof_C 	C 	0.4379	0.439	0.2394	0.349
Mof_N 	N 	0.3199	0.5054	0.2898	-0.194
Mof_H 	H 	0.295	0.488	0.2694	0.109
Mof_H 	H 	0.2882	0.527	0.3048	0.109
Mof_C 	C 	0.5339	0.5239	0.3428	-0.019
Mof_C 	C 	0.4453	0.5277	0.3315	-0.049
Mof_H 	H 	0.4067	0.5502	0.3463	0.055
Mof_C 	C 	0.4131	0.4986	0.2985	0.108
Mof_C 	C 	0.4695	0.4657	0.2768	-0.045
Mof_C 	C 	0.5581	0.462	0.2882	0.053
Mof_C 	C 	0.5903	0.4911	0.3211	-0.024
Mof_H 	H 	0.6509	0.4885	0.3289	0.042
Mof_N 	N 	0.3351	0.5324	0.2756	-0.168
Mof_H 	H 	0.313	0.5183	0.2531	0.098
Mof_H 	H 	0.3047	0.5561	0.2892	0.078
Mof_C 	C 	0.5344	0.5352	0.339	0.006
Mof_C 	C 	0.4496	0.5448	0.324	-0.05
Mof_H 	H 	0.4132	0.57	0.337	0.037
Mof_C 	C 	0.4183	0.5174	0.2899	0.035
Mof_C 	C 	0.4716	0.4805	0.2708	-0.106
Mof_C 	C 	0.5563	0.471	0.2859	0.098
Mof_C 	C 	0.5877	0.4983	0.32	-0.059
Mof_H 	H 	0.6456	0.4918	0.3302	0.02
Mof_N 	N 	0.611	0.436	0.2697	-0.322
Mof_H 	H 	0.5938	0.4178	0.2482	0.191
Mof_H 	H 	0.6637	0.4318	0.2804	0.153
Mof_O 	O 	0.6471	0.0639	0.8839	-0.497
Mof_O 	O 	0.5117	0.087	0.89776	-0.506
Mof_O 	O 	0.4909	0.9118	0.7188	-0.522
Mof_O 	O 	0.3555	0.9377	0.73071	-0.548
Mof_C 	C 	0.5647	0.0616	0.8762	0.303
Mof_C 	C 	0.4379	0.939	0.7394	0.349
Mof_N 	N 	0.3199	0.0054	0.7898	-0.194
Mof_H 	H 	0.295	0.988	0.7694	0.109
Mof_H 	H 	0.2882	0.027	0.8048	0.109
Mof_C 	C 	0.5339	0.0239	0.8428	-0.019
Mof_C 	C 	0.4453	0.0277	0.8315	-0.049
Mof_H 	H 	0.4067	0.0502	0.8463	0.054
Mof_C 	C 	0.4131	0.9986	0.7985	0.109
Mof_C 	C 	0.4695	0.9657	0.7768	-0.045
Mof_C 	C 	0.5581	0.962	0.7882	0.053
Mof_C 	C 	0.5903	0.9911	0.8211	-0.024
Mof_H 	H 	0.6509	0.9885	0.8289	0.042
Mof_N 	N 	0.3351	0.0324	0.7756	-0.168
Mof_H 	H 	0.313	0.0183	0.7531	0.098
Mof_H 	H 	0.3047	0.0561	0.7892	0.078
Mof_C 	C 	0.5344	0.0352	0.839	0.006
Mof_C 	C 	0.4496	0.0448	0.824	-0.05
Mof_H 	H 	0.4132	0.07	0.837	0.037
Mof_C 	C 	0.4183	0.0174	0.7899	0.034
Mof_C 	C 	0.4716	0.9805	0.7708	-0.107
Mof_C 	C 	0.5563	0.971	0.7859	0.097
Mof_C 	C 	0.5877	0.9983	0.82	-0.059
Mof_H 	H 	0.6456	0.9918	0.8302	0.02
Mof_N 	N 	0.611	0.936	0.7697	-0.322
Mof_H 	H 	0.5938	0.9178	0.7482	0.191
Mof_H 	H 	0.6637	0.9318	0.7804	0.153
Mof_O 	O 	0.1029	0.6861	0.8839	-0.497
Mof_O 	O 	0.2383	0.663	0.89776	-0.506
Mof_O 	O 	0.2591	0.8382	0.7188	-0.522
Mof_O 	O 	0.3945	0.8123	0.73071	-0.548
Mof_C 	C 	0.1853	0.6884	0.8762	0.303
Mof_C 	C 	0.3121	0.811	0.7394	0.349
Mof_N 	N 	0.4301	0.7446	0.7898	-0.194
Mof_H 	H 	0.455	0.762	0.7694	0.109
Mof_H 	H 	0.4618	0.723	0.8048	0.109
Mof_C 	C 	0.2161	0.7261	0.8428	-0.019
Mof_C 	C 	0.3047	0.7223	0.8315	-0.049
Mof_H 	H 	0.3433	0.6998	0.8463	0.055
Mof_C 	C 	0.3369	0.7514	0.7985	0.108
Mof_C 	C 	0.2805	0.7843	0.7768	-0.045
Mof_C 	C 	0.1919	0.788	0.7882	0.053
Mof_C 	C 	0.1597	0.7589	0.8211	-0.024
Mof_H 	H 	0.0991	0.7615	0.8289	0.042
Mof_N 	N 	0.4149	0.7176	0.7756	-0.168
Mof_H 	H 	0.437	0.7317	0.7531	0.098
Mof_H 	H 	0.4453	0.6939	0.7892	0.078
Mof_C 	C 	0.2156	0.7148	0.839	0.006
Mof_C 	C 	0.3004	0.7052	0.824	-0.05
Mof_H 	H 	0.3368	0.68	0.837	0.037
Mof_C 	C 	0.3317	0.7326	0.7899	0.035
Mof_C 	C 	0.2784	0.7695	0.7708	-0.106
Mof_C 	C 	0.1937	0.779	0.7859	0.097
Mof_C 	C 	0.1623	0.7517	0.82	-0.059
Mof_H 	H 	0.1044	0.7582	0.8302	0.02
Mof_N 	N 	0.139	0.814	0.7697	-0.322
Mof_H 	H 	0.1562	0.8322	0.7482	0.191
Mof_H 	H 	0.0863	0.8182	0.7804	0.152
Mof_O 	O 	0.1029	0.1861	0.3839	-0.497
Mof_O 	O 	0.2383	0.163	0.39776	-0.506
Mof_O 	O 	0.2591	0.3382	0.2188	-0.522
Mof_O 	O 	0.3945	0.3123	0.23071	-0.548
Mof_C 	C 	0.1853	0.1884	0.3762	0.303
Mof_C 	C 	0.3121	0.311	0.2394	0.349
Mof_N 	N 	0.4301	0.2446	0.2898	-0.194
Mof_H 	H 	0.455	0.262	0.2694	0.109
Mof_H 	H 	0.4618	0.223	0.3048	0.109
Mof_C 	C 	0.2161	0.2261	0.3428	-0.019
Mof_C 	C 	0.3047	0.2223	0.3315	-0.049
Mof_H 	H 	0.3433	0.1998	0.3463	0.055
Mof_C 	C 	0.3369	0.2514	0.2985	0.108
Mof_C 	C 	0.2805	0.2843	0.2768	-0.045
Mof_C 	C 	0.1919	0.288	0.2882	0.053
Mof_C 	C 	0.1597	0.2589	0.3211	-0.024
Mof_H 	H 	0.0991	0.2615	0.3289	0.042
Mof_N 	N 	0.4149	0.2176	0.2756	-0.168
Mof_H 	H 	0.437	0.2317	0.2531	0.098
Mof_H 	H 	0.4453	0.1939	0.2892	0.078
Mof_C 	C 	0.2156	0.2148	0.339	0.006
Mof_C 	C 	0.3004	0.2052	0.324	-0.05
Mof_H 	H 	0.3368	0.18	0.337	0.037
Mof_C 	C 	0.3317	0.2326	0.2899	0.035
Mof_C 	C 	0.2784	0.2695	0.2708	-0.106
Mof_C 	C 	0.1937	0.279	0.2859	0.098
Mof_C 	C 	0.1623	0.2517	0.32	-0.059
Mof_H 	H 	0.1044	0.2582	0.3302	0.02
Mof_N 	N 	0.139	0.314	0.2697	-0.322
Mof_H 	H 	0.1562	0.3322	0.2482	0.191
Mof_H 	H 	0.0863	0.3182	0.2804	0.152
Mof_O 	O 	0.6029	0.6861	0.3839	-0.497
Mof_O 	O 	0.7383	0.663	0.39776	-0.506
Mof_O 	O 	0.7591	0.8382	0.2188	-0.522
Mof_O 	O 	0.8945	0.8123	0.23071	-0.548
Mof_C 	C 	0.6853	0.6884	0.3762	0.303
Mof_C 	C 	0.8121	0.811	0.2394	0.349
Mof_N 	N 	0.9301	0.7446	0.2898	-0.194
Mof_H 	H 	0.955	0.762	0.2694	0.109
Mof_H 	H 	0.9618	0.723	0.3048	0.109
Mof_C 	C 	0.7161	0.7261	0.3428	-0.019
Mof_C 	C 	0.8047	0.7223	0.3315	-0.049
Mof_H 	H 	0.8433	0.6998	0.3463	0.055
Mof_C 	C 	0.8369	0.7514	0.2985	0.108
Mof_C 	C 	0.7805	0.7843	0.2768	-0.045
Mof_C 	C 	0.6919	0.788	0.2882	0.053
Mof_C 	C 	0.6597	0.7589	0.3211	-0.024
Mof_H 	H 	0.5991	0.7615	0.3289	0.042
Mof_N 	N 	0.9149	0.7176	0.2756	-0.168
Mof_H 	H 	0.937	0.7317	0.2531	0.098
Mof_H 	H 	0.9453	0.6939	0.2892	0.078
Mof_C 	C 	0.7156	0.7148	0.339	0.006
Mof_C 	C 	0.8004	0.7052	0.324	-0.05
Mof_H 	H 	0.8368	0.68	0.337	0.037
Mof_C 	C 	0.8317	0.7326	0.2899	0.035
Mof_C 	C 	0.7784	0.7695	0.2708	-0.106
Mof_C 	C 	0.6937	0.779	0.2859	0.098
Mof_C 	C 	0.6623	0.7517	0.32	-0.059
Mof_H 	H 	0.6044	0.7582	0.3302	0.02
Mof_N 	N 	0.639	0.814	0.2697	-0.322
Mof_H 	H 	0.6562	0.8322	0.2482	0.191
Mof_H 	H 	0.5863	0.8182	0.2804	0.153
Mof_O 	O 	0.6029	0.1861	0.8839	-0.497
Mof_O 	O 	0.7383	0.163	0.89776	-0.506
Mof_O 	O 	0.7591	0.3382	0.7188	-0.522
Mof_O 	O 	0.8945	0.3123	0.73071	-0.548
Mof_C 	C 	0.6853	0.1884	0.8762	0.303
Mof_C 	C 	0.8121	0.311	0.7394	0.349
Mof_N 	N 	0.9301	0.2446	0.7898	-0.194
Mof_H 	H 	0.955	0.262	0.7694	0.109
Mof_H 	H 	0.9618	0.223	0.8048	0.109
Mof_C 	C 	0.7161	0.2261	0.8428	-0.019
Mof_C 	C 	0.8047	0.2223	0.8315	-0.049
Mof_H 	H 	0.8433	0.1998	0.8463	0.055
Mof_C 	C 	0.8369	0.2514	0.7985	0.108
Mof_C 	C 	0.7805	0.2843	0.7768	-0.045
Mof_C 	C 	0.6919	0.288	0.7882	0.053
Mof_C 	C 	0.6597	0.2589	0.8211	-0.024
Mof_H 	H 	0.5991	0.2615	0.8289	0.042
Mof_N 	N 	0.9149	0.2176	0.7756	-0.168
Mof_H 	H 	0.937	0.2317	0.7531	0.098
Mof_H 	H 	0.9453	0.1939	0.7892	0.078
Mof_C 	C 	0.7156	0.2148	0.839	0.006
Mof_C 	C 	0.8004	0.2052	0.824	-0.05
Mof_H 	H 	0.8368	0.18	0.837	0.037
Mof_C 	C 	0.8317	0.2326	0.7899	0.035
Mof_C 	C 	0.7784	0.2695	0.7708	-0.106
Mof_C 	C 	0.6937	0.279	0.7859	0.098
Mof_C 	C 	0.6623	0.2517	0.82	-0.059
Mof_H 	H 	0.6044	0.2582	0.8302	0.02
Mof_N 	N 	0.639	0.314	0.7697	-0.322
Mof_H 	H 	0.6562	0.3322	0.7482	0.191
Mof_H 	H 	0.5863	0.3182	0.7804	0.153
Mof_In	In	0.875	0.375	0.68359	2.533
Mof_In	In	0.875	0.875	0.18359	2.533
Mof_In	In	0.375	0.375	0.18359	2.533
Mof_In	In	0.375	0.875	0.68359	2.533
Mof_In	In	0.125	0.625	0.93359	2.533
Mof_In	In	0.125	0.125	0.43359	2.533
Mof_In	In	0.625	0.625	0.43359	2.533
Mof_In	In	0.625	0.125	0.93359	2.533
_end
