data_functionalizedCrystal
_audit_creation_method	'EQeq! by Chris Wilmer'
_symmetry_space_group_name_H-M	'P1'
_symmetry_Int_Tables_number	1
_symmetry_cell_setting	triclinic
loop_
_symmetry_equiv_pos_as_xyz
  x,y,z
_cell_length_a	24.26
_cell_length_b	24.415
_cell_length_c	24.531
_cell_angle_alpha	83.566
_cell_angle_beta	62.292
_cell_angle_gamma	61.717
loop_
_atom_site_label
_atom_site_type_symbol
_atom_site_fract_x
_atom_site_fract_y
_atom_site_fract_z
_atom_site_charge
Mof_Yb	Yb	0.15864	0.27999	0.13753	1.706
Mof_O 	O 	0.0636	0.2761	0.2247	-0.281
Mof_O 	O 	0.2193	0.2629	0.0251	-0.26
Mof_O 	O 	0.2135	0.2043	0.1912	-0.267
Mof_O 	O 	0.131	0.3805	0.1106	-0.285
Mof_O 	O 	0.2674	0.2763	0.1055	-0.284
Mof_O 	O 	0.0648	0.309	0.1138	-0.27
Mof_O 	O 	0.1331	0.3427	0.2216	-0.272
Mof_O 	O 	0.1773	0.1826	0.1072	-0.281
Mof_N 	N 	0.0429	0.2784	0.2855	-0.062
Mof_N 	N 	0.235	0.2153	0.9899	-0.07
Mof_N 	N 	0.2602	0.2035	0.2063	-0.068
Mof_N 	N 	0.0945	0.4126	0.0801	-0.066
Mof_N 	N 	0.312	0.2857	0.0525	-0.06
Mof_N 	N 	0.0203	0.2863	0.1357	-0.064
Mof_N 	N 	0.1453	0.3906	0.2179	-0.064
Mof_N 	N 	0.1913	0.1311	0.1343	-0.064
Mof_C 	C 	0.0756	0.2274	0.3089	0.05
Mof_C 	C 	0.987	0.3313	0.3237	0.062
Mof_C 	C 	0.1869	0.2194	0.9747	0.061
Mof_C 	C 	0.2969	0.1646	0.9708	0.063
Mof_C 	C 	0.2363	0.2375	0.2602	0.055
Mof_C 	C 	0.3295	0.1673	0.1692	0.065
Mof_C 	C 	0.1269	0.4024	0.018	0.053
Mof_C 	C 	0.0271	0.4545	0.111	0.067
Mof_C 	C 	0.3759	0.2361	0.015	0.055
Mof_C 	C 	0.2942	0.3458	0.038	0.047
Mof_C 	C 	0.0374	0.2321	0.1095	0.057
Mof_C 	C 	0.9561	0.319	0.187	0.058
Mof_C 	C 	0.0923	0.4494	0.2325	0.063
Mof_C 	C 	0.2116	0.3797	0.2021	0.05
Mof_C 	C 	0.1379	0.1248	0.182	0.051
Mof_C 	C 	0.2582	0.0858	0.1132	0.064
Mof_H 	H 	0.1177	0.1917	0.2816	0.034
Mof_C 	C 	0.0478	0.2273	0.3718	-0.108
Mof_C 	C 	0.9602	0.3322	0.3858	-0.113
Mof_H 	H 	0.9664	0.3679	0.3069	0.02
Mof_H 	H 	0.1431	0.2571	0.9873	0.027
Mof_C 	C 	0.201	0.1692	0.9412	-0.115
Mof_C 	C 	0.3141	0.1122	0.9354	-0.113
Mof_H 	H 	0.3307	0.1633	0.981	0.017
Mof_H 	H 	0.1868	0.2608	0.2875	0.032
Mof_C 	C 	0.2838	0.2377	0.2744	-0.107
Mof_C 	C 	0.3779	0.1667	0.1832	-0.109
Mof_H 	H 	0.345	0.142	0.133	0.018
Mof_C 	C 	0.0898	0.437	0.9858	-0.105
Mof_H 	H 	0.1753	0.3714	0.9958	0.034
Mof_C 	C 	0.9891	0.4883	0.0809	-0.112
Mof_H 	H 	0.0046	0.4613	0.1552	0.017
Mof_C 	C 	0.4226	0.2456	0.9621	-0.108
Mof_H 	H 	0.3878	0.1949	0.026	0.019
Mof_H 	H 	0.2497	0.3802	0.0645	0.035
Mof_C 	C 	0.3414	0.3552	0.9852	-0.102
Mof_C 	C 	0.9919	0.2073	0.133	-0.108
Mof_H 	H 	0.0819	0.2101	0.0736	0.029
Mof_C 	C 	0.9084	0.2954	0.212	-0.105
Mof_H 	H 	0.944	0.3578	0.2055	0.024
Mof_H 	H 	0.0459	0.4563	0.2446	0.021
Mof_C 	C 	0.1029	0.4999	0.2306	-0.109
Mof_C 	C 	0.2248	0.429	0.1991	-0.104
Mof_H 	H 	0.249	0.3378	0.193	0.036
Mof_C 	C 	0.1531	0.0706	0.2101	-0.106
Mof_H 	H 	0.0902	0.1571	0.1964	0.032
Mof_C 	C 	0.2751	0.0318	0.1396	-0.11
Mof_H 	H 	0.295	0.0912	0.0792	0.018
Mof_H 	H 	0.0704	0.191	0.3878	0.066
Mof_C 	C 	0.9875	0.2791	0.4124	0.046
Mof_H 	H 	0.9216	0.3701	0.4122	0.067
Mof_H 	H 	0.1663	0.1724	0.9312	0.069
Mof_C 	C 	0.2637	0.1146	0.9214	0.049
Mof_H 	H 	0.3593	0.0759	0.9213	0.067
Mof_C 	C 	0.3566	0.2032	0.2364	0.042
Mof_H 	H 	0.2669	0.2623	0.3116	0.066
Mof_H 	H 	0.4271	0.1411	0.1563	0.065
Mof_C 	C 	0.0205	0.4814	0.0163	0.047
Mof_H 	H 	0.1134	0.4294	0.9416	0.065
Mof_H 	H 	0.9401	0.5173	0.1044	0.067
Mof_H 	H 	0.4661	0.2104	0.9357	0.066
Mof_C 	C 	0.4089	0.3046	0.9454	0.041
Mof_H 	H 	0.3291	0.3965	0.9746	0.065
Mof_H 	H 	0.0055	0.1684	0.1133	0.064
Mof_C 	C 	0.9268	0.238	0.1848	0.045
Mof_H 	H 	0.8636	0.3182	0.2474	0.065
Mof_C 	C 	0.1708	0.4909	0.2131	0.042
Mof_H 	H 	0.0642	0.5412	0.241	0.067
Mof_H 	H 	0.2715	0.4208	0.1874	0.067
Mof_H 	H 	0.1154	0.0667	0.2444	0.066
Mof_C 	C 	0.2209	0.0229	0.1895	0.045
Mof_H 	H 	0.3233	0.0003	0.1244	0.065
Mof_C 	C 	0.9545	0.2762	0.4796	0.042
Mof_C 	C 	0.2792	0.0563	0.8887	0.048
Mof_C 	C 	0.4089	0.2068	0.2493	0.051
Mof_C 	C 	0.462	0.3162	0.8902	0.047
Mof_C 	C 	0.8789	0.209	0.2124	0.044
Mof_C 	C 	0.1864	0.5428	0.2102	0.048
Mof_C 	C 	0.2378	0.9638	0.2172	0.045
Mof_C 	C 	0.9608	0.2199	0.5019	-0.108
Mof_C 	C 	0.9142	0.3295	0.5245	-0.104
Mof_C 	C 	0.2314	0.0356	0.9093	-0.112
Mof_C 	C 	0.3445	0.0223	0.8376	-0.108
Mof_C 	C 	0.476	0.1908	0.2017	-0.11
Mof_C 	C 	0.3943	0.2247	0.3074	-0.117
Mof_C 	C 	0.4736	0.3662	0.895	-0.111
Mof_C 	C 	0.5035	0.2778	0.8335	-0.11
Mof_C 	C 	0.8166	0.2346	0.2688	-0.104
Mof_C 	C 	0.8971	0.1536	0.1826	-0.107
Mof_C 	C 	0.1346	0.6014	0.2465	-0.107
Mof_C 	C 	0.2524	0.537	0.1711	-0.113
Mof_C 	C 	0.1926	0.961	0.2778	-0.11
Mof_C 	C 	0.2985	0.9076	0.1834	-0.109
Mof_H 	H 	0.9877	0.1826	0.4732	0.064
Mof_C 	C 	0.9293	0.2164	0.564	0.058
Mof_C 	C 	0.8833	0.3248	0.5868	0.054
Mof_H 	H 	0.9082	0.3692	0.5116	0.065
Mof_H 	H 	0.1858	0.0595	0.9435	0.067
Mof_C 	C 	0.2476	0.9796	0.8813	0.055
Mof_H 	H 	0.3787	0.0365	0.822	0.068
Mof_C 	C 	0.3597	0.9674	0.8092	0.05
Mof_C 	C 	0.524	0.1971	0.2122	0.054
Mof_H 	H 	0.4894	0.1754	0.1612	0.068
Mof_C 	C 	0.4428	0.2301	0.3168	0.068
Mof_H 	H 	0.3496	0.2336	0.3419	0.069
Mof_H 	H 	0.4439	0.3953	0.9321	0.067
Mof_C 	C 	0.5275	0.3733	0.8466	0.063
Mof_H 	H 	0.4956	0.2447	0.828	0.068
Mof_C 	C 	0.5557	0.2872	0.7854	0.055
Mof_H 	H 	0.8025	0.2725	0.2906	0.066
Mof_C 	C 	0.7755	0.2055	0.2928	0.051
Mof_H 	H 	0.9395	0.1347	0.1443	0.063
Mof_C 	C 	0.8543	0.1254	0.208	0.059
Mof_C 	C 	0.1498	0.6489	0.2431	0.055
Mof_H 	H 	0.0879	0.6081	0.274	0.067
Mof_H 	H 	0.289	0.4985	0.1448	0.067
Mof_C 	C 	0.2666	0.5853	0.1691	0.063
Mof_H 	H 	0.151	0.9982	0.303	0.065
Mof_C 	C 	0.2078	0.9053	0.301	0.061
Mof_C 	C 	0.3121	0.8532	0.2074	0.055
Mof_H 	H 	0.3312	0.9077	0.1424	0.066
Mof_N 	N 	0.89	0.2691	0.6057	-0.065
Mof_H 	H 	0.9348	0.1771	0.578	0.017
Mof_H 	H 	0.8571	0.3611	0.6167	0.031
Mof_N 	N 	0.312	0.9463	0.8323	-0.061
Mof_H 	H 	0.2137	0.9651	0.8966	0.02
Mof_H 	H 	0.404	0.9446	0.7732	0.034
Mof_N 	N 	0.5068	0.2161	0.2696	-0.067
Mof_H 	H 	0.5694	0.188	0.1787	0.034
Mof_H 	H 	0.431	0.244	0.3573	0.018
Mof_N 	N 	0.5681	0.3336	0.7929	-0.068
Mof_H 	H 	0.5363	0.4062	0.8507	0.016
Mof_H 	H 	0.5835	0.261	0.7466	0.031
Mof_N 	N 	0.7954	0.151	0.2624	-0.061
Mof_H 	H 	0.7328	0.2237	0.331	0.034
Mof_H 	H 	0.8669	0.0879	0.1866	0.019
Mof_N 	N 	0.2154	0.641	0.205	-0.065
Mof_H 	H 	0.1136	0.6883	0.268	0.033
Mof_H 	H 	0.3129	0.5795	0.1421	0.018
Mof_H 	H 	0.1765	0.904	0.3423	0.018
Mof_N 	N 	0.267	0.8516	0.266	-0.065
Mof_H 	H 	0.3537	0.8156	0.183	0.031
Mof_O 	O 	0.8604	0.2641	0.6659	-0.27
Mof_O 	O 	0.3284	0.892	0.8077	-0.276
Mof_O 	O 	0.5525	0.2229	0.2799	-0.272
Mof_O 	O 	0.6227	0.3395	0.7479	-0.263
Mof_O 	O 	0.757	0.1218	0.287	-0.283
Mof_O 	O 	0.2312	0.6867	0.2008	-0.272
Mof_O 	O 	0.2795	0.7977	0.2891	-0.271
Mof_Yb	Yb	0.74312	0.28067	0.7304	1.698
Mof_Yb	Yb	0.34818	0.85676	0.71125	1.692
Mof_O 	O 	0.7549	0.2872	0.6301	-0.278
Mof_O 	O 	0.821	0.1837	0.7461	-0.276
Mof_O 	O 	0.6699	0.2711	0.8318	-0.276
Mof_O 	O 	0.7245	0.3827	0.7136	-0.279
Mof_O 	O 	0.6323	0.1196	0.3907	-0.269
Mof_O 	O 	0.566	0.11	0.325	-0.278
Mof_O 	O 	0.7005	0.2004	0.214	-0.266
Mof_O 	O 	0.6131	0.2365	0.3495	-0.266
Mof_O 	O 	0.7193	0.0313	0.2713	-0.266
Mof_N 	N 	0.7334	0.2635	0.6027	-0.065
Mof_N 	N 	0.8858	0.1604	0.7399	-0.061
Mof_N 	N 	0.6783	0.2623	0.8825	-0.066
Mof_N 	N 	0.6749	0.4298	0.7014	-0.068
Mof_N 	N 	0.6463	0.1422	0.4274	-0.071
Mof_N 	N 	0.5489	0.0795	0.3733	-0.07
Mof_C 	C 	0.7784	0.2066	0.5685	0.068
Mof_C 	C 	0.6681	0.2955	0.609	0.054
Mof_C 	C 	0.8953	0.1822	0.7813	0.046
Mof_C 	C 	0.9399	0.1145	0.6933	0.054
Mof_C 	C 	0.6393	0.3102	0.9285	0.064
Mof_C 	C 	0.7238	0.2062	0.8883	0.055
Mof_C 	C 	0.6141	0.4707	0.7494	0.068
Mof_C 	C 	0.6867	0.4375	0.6428	0.063
Mof_C 	C 	0.5938	0.1886	0.4723	0.065
Mof_C 	C 	0.7127	0.117	0.4184	0.061
Mof_C 	C 	0.4957	0.1108	0.4281	0.072
Mof_C 	C 	0.5859	0.0177	0.3669	0.06
Mof_H 	H 	0.8239	0.1833	0.5665	0.016
Mof_C 	C 	0.7604	0.1816	0.5369	-0.116
Mof_H 	H 	0.6358	0.3352	0.6344	0.033
Mof_C 	C 	0.6473	0.2707	0.578	-0.107
Mof_C 	C 	0.9616	0.1535	0.7782	-0.102
Mof_H 	H 	0.8568	0.217	0.8122	0.036
Mof_C 	C 	0.0089	0.0859	0.6875	-0.106
Mof_H 	H 	0.932	0.101	0.664	0.021
Mof_H 	H 	0.6083	0.3503	0.9234	0.018
Mof_C 	C 	0.6437	0.302	0.9824	-0.113
Mof_C 	C 	0.7301	0.1962	0.9411	-0.111
Mof_H 	H 	0.752	0.1727	0.855	0.033
Mof_C 	C 	0.5648	0.5214	0.739	-0.117
Mof_H 	H 	0.6057	0.464	0.7908	0.015
Mof_C 	C 	0.6386	0.4876	0.6309	-0.117
Mof_H 	H 	0.7292	0.4076	0.6093	0.028
Mof_H 	H 	0.5467	0.205	0.4789	0.021
Mof_C 	C 	0.6067	0.2141	0.5104	-0.107
Mof_H 	H 	0.7498	0.083	0.3861	0.03
Mof_C 	C 	0.7277	0.1395	0.4547	-0.109
Mof_H 	H 	0.4707	0.1553	0.4327	0.015
Mof_C 	C 	0.4754	0.0814	0.478	-0.118
Mof_C 	C 	0.5676	0.9855	0.416	-0.109
Mof_H 	H 	0.6255	0.9953	0.3279	0.031
Mof_C 	C 	0.6946	0.2137	0.5397	0.05
Mof_H 	H 	0.7936	0.1415	0.5125	0.067
Mof_H 	H 	0.6003	0.2931	0.5833	0.066
Mof_C 	C 	0.0196	0.1045	0.7308	0.042
Mof_H 	H 	0.9678	0.1673	0.8087	0.065
Mof_H 	H 	0.0476	0.0541	0.6537	0.065
Mof_C 	C 	0.6904	0.244	0.9899	0.047
Mof_H 	H 	0.6147	0.3361	0.0151	0.066
Mof_H 	H 	0.7625	0.1559	0.9445	0.067
Mof_H 	H 	0.5218	0.5497	0.7732	0.069
Mof_C 	C 	0.5766	0.5322	0.6786	0.051
Mof_H 	H 	0.6474	0.4922	0.5891	0.069
Mof_C 	C 	0.6758	0.1893	0.5023	0.043
Mof_H 	H 	0.5685	0.2484	0.542	0.066
Mof_H 	H 	0.7753	0.1206	0.4474	0.066
Mof_C 	C 	0.5094	0.0176	0.4736	0.05
Mof_H 	H 	0.4369	0.1057	0.5167	0.068
Mof_H 	H 	0.5947	0.9411	0.4108	0.066
Mof_C 	C 	0.0888	0.0715	0.7298	0.047
Mof_C 	C 	0.6937	0.2337	0.05	0.048
Mof_C 	C 	0.5257	0.5909	0.6673	0.044
Mof_C 	C 	0.093	0.0552	0.7849	-0.113
Mof_C 	C 	0.1518	0.0548	0.675	-0.11
Mof_C 	C 	0.6376	0.2717	0.1053	-0.113
Mof_C 	C 	0.753	0.1856	0.0519	-0.113
Mof_C 	C 	0.4517	0.6168	0.7051	-0.108
Mof_C 	C 	0.5492	0.624	0.6211	-0.111
Mof_H 	H 	0.0508	0.068	0.8235	0.066
Mof_C 	C 	0.1585	0.0204	0.783	0.064
Mof_C 	C 	0.2162	0.0214	0.6753	0.055
Mof_H 	H 	0.1505	0.0663	0.6372	0.068
Mof_H 	H 	0.5966	0.3062	0.1053	0.066
Mof_C 	C 	0.6407	0.26	0.1589	0.057
Mof_C 	C 	0.7546	0.1757	0.1075	0.063
Mof_H 	H 	0.7928	0.1593	0.0147	0.066
Mof_C 	C 	0.4062	0.6731	0.6976	0.057
Mof_H 	H 	0.4335	0.5943	0.7363	0.067
Mof_C 	C 	0.5019	0.6816	0.6161	0.063
Mof_H 	H 	0.5983	0.6068	0.5926	0.067
Mof_N 	N 	0.2171	0.0035	0.7295	-0.071
Mof_H 	H 	0.1613	0.0085	0.8202	0.016
Mof_H 	H 	0.2592	0.0111	0.6381	0.028
Mof_N 	N 	0.6985	0.2118	0.1606	-0.067
Mof_H 	H 	0.6016	0.2862	0.1964	0.03
Mof_H 	H 	0.796	0.1429	0.1083	0.018
Mof_H 	H 	0.3565	0.6895	0.723	0.03
Mof_N 	N 	0.4316	0.7059	0.6539	-0.068
Mof_H 	H 	0.519	0.7049	0.5853	0.017
Mof_Yb	Yb	0.84136	0.72001	0.86247	1.707
Mof_O 	O 	0.9364	0.7239	0.7753	-0.28
Mof_O 	O 	0.7807	0.7371	0.9749	-0.26
Mof_O 	O 	0.7865	0.7957	0.8088	-0.267
Mof_O 	O 	0.869	0.6195	0.8894	-0.285
Mof_O 	O 	0.7326	0.7237	0.8945	-0.284
Mof_O 	O 	0.9352	0.691	0.8862	-0.27
Mof_O 	O 	0.8669	0.6573	0.7784	-0.272
Mof_O 	O 	0.8227	0.8174	0.8928	-0.281
Mof_N 	N 	0.9571	0.7216	0.7145	-0.062
Mof_N 	N 	0.765	0.7847	0.0101	-0.07
Mof_N 	N 	0.7398	0.7965	0.7937	-0.068
Mof_N 	N 	0.9055	0.5874	0.9199	-0.066
Mof_N 	N 	0.688	0.7143	0.9475	-0.06
Mof_N 	N 	0.9797	0.7137	0.8643	-0.064
Mof_N 	N 	0.8547	0.6094	0.7821	-0.064
Mof_N 	N 	0.8087	0.8689	0.8657	-0.064
Mof_C 	C 	0.9244	0.7726	0.6911	0.05
Mof_C 	C 	0.013	0.6687	0.6763	0.062
Mof_C 	C 	0.8131	0.7806	0.0253	0.061
Mof_C 	C 	0.7031	0.8354	0.0292	0.063
Mof_C 	C 	0.7637	0.7625	0.7398	0.055
Mof_C 	C 	0.6705	0.8327	0.8308	0.065
Mof_C 	C 	0.8731	0.5976	0.982	0.053
Mof_C 	C 	0.9729	0.5455	0.889	0.067
Mof_C 	C 	0.6241	0.7639	0.985	0.055
Mof_C 	C 	0.7058	0.6542	0.962	0.047
Mof_C 	C 	0.9626	0.7679	0.8905	0.057
Mof_C 	C 	0.0439	0.681	0.813	0.058
Mof_C 	C 	0.9077	0.5506	0.7675	0.063
Mof_C 	C 	0.7884	0.6203	0.7979	0.05
Mof_C 	C 	0.8621	0.8752	0.818	0.051
Mof_C 	C 	0.7418	0.9142	0.8868	0.064
Mof_H 	H 	0.8823	0.8083	0.7184	0.034
Mof_C 	C 	0.9522	0.7727	0.6282	-0.108
Mof_C 	C 	0.0398	0.6678	0.6142	-0.113
Mof_H 	H 	0.0336	0.6321	0.6931	0.02
Mof_H 	H 	0.8569	0.7429	0.0127	0.027
Mof_C 	C 	0.799	0.8308	0.0588	-0.115
Mof_C 	C 	0.6859	0.8878	0.0646	-0.113
Mof_H 	H 	0.6693	0.8367	0.019	0.017
Mof_H 	H 	0.8132	0.7392	0.7125	0.032
Mof_C 	C 	0.7162	0.7623	0.7256	-0.107
Mof_C 	C 	0.6221	0.8333	0.8168	-0.109
Mof_H 	H 	0.655	0.858	0.867	0.018
Mof_C 	C 	0.9102	0.563	0.0142	-0.105
Mof_H 	H 	0.8247	0.6286	0.0042	0.034
Mof_C 	C 	0.0109	0.5117	0.9191	-0.112
Mof_H 	H 	0.9954	0.5387	0.8448	0.017
Mof_C 	C 	0.5774	0.7544	0.0379	-0.108
Mof_H 	H 	0.6122	0.8051	0.974	0.019
Mof_H 	H 	0.7503	0.6198	0.9355	0.035
Mof_C 	C 	0.6586	0.6448	0.0148	-0.102
Mof_C 	C 	0.0081	0.7927	0.867	-0.108
Mof_H 	H 	0.9181	0.7899	0.9264	0.029
Mof_C 	C 	0.0916	0.7046	0.788	-0.105
Mof_H 	H 	0.056	0.6422	0.7945	0.024
Mof_H 	H 	0.9541	0.5437	0.7554	0.021
Mof_C 	C 	0.8971	0.5001	0.7694	-0.109
Mof_C 	C 	0.7752	0.571	0.8009	-0.104
Mof_H 	H 	0.751	0.6622	0.807	0.036
Mof_C 	C 	0.8469	0.9294	0.7899	-0.106
Mof_H 	H 	0.9098	0.8429	0.8036	0.032
Mof_C 	C 	0.7249	0.9682	0.8604	-0.11
Mof_H 	H 	0.705	0.9088	0.9208	0.018
Mof_H 	H 	0.9296	0.809	0.6122	0.066
Mof_C 	C 	0.0125	0.7209	0.5876	0.046
Mof_H 	H 	0.0784	0.6299	0.5878	0.067
Mof_H 	H 	0.8337	0.8276	0.0688	0.069
Mof_C 	C 	0.7363	0.8854	0.0786	0.049
Mof_H 	H 	0.6407	0.9241	0.0787	0.067
Mof_C 	C 	0.6434	0.7968	0.7636	0.042
Mof_H 	H 	0.7331	0.7377	0.6884	0.066
Mof_H 	H 	0.5729	0.8589	0.8437	0.065
Mof_C 	C 	0.9795	0.5186	0.9837	0.047
Mof_H 	H 	0.8866	0.5706	0.0584	0.065
Mof_H 	H 	0.0599	0.4827	0.8956	0.067
Mof_H 	H 	0.5339	0.7896	0.0643	0.066
Mof_C 	C 	0.5911	0.6954	0.0546	0.041
Mof_H 	H 	0.6709	0.6035	0.0254	0.065
Mof_H 	H 	0.9945	0.8316	0.8867	0.064
Mof_C 	C 	0.0732	0.762	0.8152	0.045
Mof_H 	H 	0.1364	0.6818	0.7526	0.065
Mof_C 	C 	0.8292	0.5091	0.7869	0.042
Mof_H 	H 	0.9358	0.4588	0.759	0.067
Mof_H 	H 	0.7285	0.5792	0.8126	0.067
Mof_H 	H 	0.8846	0.9333	0.7556	0.066
Mof_C 	C 	0.7791	0.9771	0.8105	0.045
Mof_H 	H 	0.6767	0.9997	0.8756	0.065
Mof_C 	C 	0.0455	0.7238	0.5204	0.042
Mof_C 	C 	0.7208	0.9437	0.1113	0.048
Mof_C 	C 	0.5911	0.7932	0.7507	0.051
Mof_C 	C 	0.538	0.6838	0.1098	0.047
Mof_C 	C 	0.1211	0.791	0.7876	0.044
Mof_C 	C 	0.8136	0.4572	0.7898	0.048
Mof_C 	C 	0.7622	0.0362	0.7828	0.045
Mof_C 	C 	0.0392	0.7801	0.4981	-0.108
Mof_C 	C 	0.0858	0.6705	0.4755	-0.104
Mof_C 	C 	0.7686	0.9644	0.0907	-0.112
Mof_C 	C 	0.6555	0.9777	0.1624	-0.108
Mof_C 	C 	0.524	0.8092	0.7983	-0.11
Mof_C 	C 	0.6057	0.7753	0.6926	-0.117
Mof_C 	C 	0.5264	0.6338	0.105	-0.111
Mof_C 	C 	0.4965	0.7222	0.1665	-0.11
Mof_C 	C 	0.1834	0.7654	0.7312	-0.104
Mof_C 	C 	0.1029	0.8464	0.8174	-0.107
Mof_C 	C 	0.8654	0.3986	0.7535	-0.107
Mof_C 	C 	0.7476	0.463	0.8289	-0.113
Mof_C 	C 	0.8074	0.039	0.7222	-0.11
Mof_C 	C 	0.7015	0.0924	0.8166	-0.109
Mof_H 	H 	0.0123	0.8174	0.5268	0.064
Mof_C 	C 	0.0707	0.7836	0.436	0.058
Mof_C 	C 	0.1167	0.6752	0.4132	0.054
Mof_H 	H 	0.0918	0.6308	0.4884	0.065
Mof_H 	H 	0.8142	0.9405	0.0565	0.067
Mof_C 	C 	0.7524	0.0204	0.1187	0.055
Mof_H 	H 	0.6213	0.9635	0.178	0.068
Mof_C 	C 	0.6403	0.0326	0.1908	0.05
Mof_C 	C 	0.476	0.8029	0.7878	0.054
Mof_H 	H 	0.5106	0.8246	0.8388	0.068
Mof_C 	C 	0.5572	0.7699	0.6832	0.068
Mof_H 	H 	0.6504	0.7664	0.6581	0.069
Mof_H 	H 	0.5561	0.6047	0.0679	0.067
Mof_C 	C 	0.4725	0.6267	0.1534	0.063
Mof_H 	H 	0.5044	0.7553	0.172	0.068
Mof_C 	C 	0.4443	0.7128	0.2146	0.055
Mof_H 	H 	0.1975	0.7275	0.7094	0.066
Mof_C 	C 	0.2245	0.7945	0.7072	0.051
Mof_H 	H 	0.0605	0.8653	0.8557	0.063
Mof_C 	C 	0.1457	0.8746	0.792	0.059
Mof_C 	C 	0.8502	0.3511	0.7569	0.055
Mof_H 	H 	0.9121	0.3919	0.726	0.067
Mof_H 	H 	0.711	0.5015	0.8552	0.067
Mof_C 	C 	0.7334	0.4147	0.8309	0.063
Mof_H 	H 	0.849	0.0018	0.697	0.065
Mof_C 	C 	0.7922	0.0947	0.699	0.061
Mof_C 	C 	0.6879	0.1468	0.7926	0.055
Mof_H 	H 	0.6688	0.0923	0.8576	0.066
Mof_N 	N 	0.11	0.7309	0.3943	-0.065
Mof_H 	H 	0.0652	0.8229	0.422	0.017
Mof_H 	H 	0.1429	0.6389	0.3833	0.031
Mof_N 	N 	0.688	0.0537	0.1677	-0.061
Mof_H 	H 	0.7863	0.0349	0.1034	0.02
Mof_H 	H 	0.596	0.0554	0.2268	0.034
Mof_N 	N 	0.4932	0.7839	0.7304	-0.067
Mof_H 	H 	0.4306	0.812	0.8213	0.034
Mof_H 	H 	0.569	0.756	0.6427	0.018
Mof_N 	N 	0.4319	0.6664	0.2071	-0.068
Mof_H 	H 	0.4637	0.5938	0.1493	0.016
Mof_H 	H 	0.4165	0.739	0.2534	0.031
Mof_N 	N 	0.2046	0.849	0.7376	-0.061
Mof_H 	H 	0.2672	0.7763	0.669	0.034
Mof_H 	H 	0.1331	0.9121	0.8134	0.019
Mof_N 	N 	0.7846	0.359	0.795	-0.065
Mof_H 	H 	0.8864	0.3117	0.732	0.033
Mof_H 	H 	0.6871	0.4205	0.8579	0.018
Mof_H 	H 	0.8235	0.096	0.6577	0.018
Mof_N 	N 	0.733	0.1484	0.734	-0.065
Mof_H 	H 	0.6463	0.1844	0.817	0.031
Mof_O 	O 	0.1396	0.7359	0.3341	-0.27
Mof_O 	O 	0.6716	0.108	0.1923	-0.276
Mof_O 	O 	0.4475	0.7771	0.7201	-0.272
Mof_O 	O 	0.3773	0.6605	0.2521	-0.263
Mof_O 	O 	0.243	0.8782	0.713	-0.283
Mof_O 	O 	0.7688	0.3133	0.7992	-0.272
Mof_O 	O 	0.7205	0.2023	0.7109	-0.271
Mof_Yb	Yb	0.25688	0.71933	0.2696	1.698
Mof_Yb	Yb	0.65182	0.14324	0.28875	1.692
Mof_O 	O 	0.2451	0.7128	0.3699	-0.278
Mof_O 	O 	0.179	0.8163	0.2539	-0.276
Mof_O 	O 	0.3301	0.7289	0.1682	-0.276
Mof_O 	O 	0.2755	0.6173	0.2864	-0.279
Mof_O 	O 	0.3677	0.8804	0.6093	-0.269
Mof_O 	O 	0.434	0.89	0.675	-0.278
Mof_O 	O 	0.2995	0.7996	0.786	-0.266
Mof_O 	O 	0.3869	0.7635	0.6505	-0.266
Mof_O 	O 	0.2807	0.9687	0.7287	-0.266
Mof_N 	N 	0.2666	0.7365	0.3973	-0.065
Mof_N 	N 	0.1142	0.8396	0.2601	-0.061
Mof_N 	N 	0.3217	0.7377	0.1175	-0.066
Mof_N 	N 	0.3251	0.5702	0.2986	-0.068
Mof_N 	N 	0.3537	0.8578	0.5726	-0.071
Mof_N 	N 	0.4511	0.9205	0.6267	-0.07
Mof_C 	C 	0.2216	0.7934	0.4315	0.068
Mof_C 	C 	0.3319	0.7045	0.391	0.054
Mof_C 	C 	0.1047	0.8178	0.2187	0.046
Mof_C 	C 	0.0601	0.8855	0.3067	0.054
Mof_C 	C 	0.3607	0.6898	0.0715	0.064
Mof_C 	C 	0.2762	0.7938	0.1117	0.055
Mof_C 	C 	0.3859	0.5293	0.2506	0.068
Mof_C 	C 	0.3133	0.5625	0.3572	0.063
Mof_C 	C 	0.4062	0.8114	0.5277	0.065
Mof_C 	C 	0.2873	0.883	0.5816	0.061
Mof_C 	C 	0.5043	0.8892	0.5719	0.072
Mof_C 	C 	0.4141	0.9823	0.6331	0.06
Mof_H 	H 	0.1761	0.8167	0.4335	0.016
Mof_C 	C 	0.2396	0.8184	0.4631	-0.116
Mof_H 	H 	0.3642	0.6648	0.3656	0.033
Mof_C 	C 	0.3527	0.7293	0.422	-0.107
Mof_C 	C 	0.0384	0.8465	0.2218	-0.102
Mof_H 	H 	0.1432	0.783	0.1878	0.036
Mof_C 	C 	0.9911	0.9141	0.3125	-0.106
Mof_H 	H 	0.068	0.899	0.336	0.021
Mof_H 	H 	0.3917	0.6497	0.0766	0.018
Mof_C 	C 	0.3563	0.698	0.0176	-0.113
Mof_C 	C 	0.2699	0.8038	0.0589	-0.111
Mof_H 	H 	0.248	0.8273	0.145	0.033
Mof_C 	C 	0.4352	0.4786	0.261	-0.117
Mof_H 	H 	0.3943	0.536	0.2092	0.015
Mof_C 	C 	0.3614	0.5124	0.3691	-0.117
Mof_H 	H 	0.2708	0.5924	0.3907	0.028
Mof_H 	H 	0.4533	0.795	0.5211	0.021
Mof_C 	C 	0.3933	0.7859	0.4896	-0.107
Mof_H 	H 	0.2502	0.917	0.6139	0.03
Mof_C 	C 	0.2723	0.8605	0.5453	-0.109
Mof_H 	H 	0.5293	0.8447	0.5673	0.015
Mof_C 	C 	0.5246	0.9186	0.522	-0.118
Mof_C 	C 	0.4324	0.0145	0.584	-0.109
Mof_H 	H 	0.3745	0.0047	0.6721	0.031
Mof_C 	C 	0.3054	0.7863	0.4603	0.05
Mof_H 	H 	0.2064	0.8585	0.4875	0.067
Mof_H 	H 	0.3997	0.7069	0.4167	0.066
Mof_C 	C 	0.9804	0.8955	0.2692	0.042
Mof_H 	H 	0.0322	0.8327	0.1913	0.065
Mof_H 	H 	0.9524	0.9459	0.3463	0.065
Mof_C 	C 	0.3096	0.756	0.0101	0.047
Mof_H 	H 	0.3853	0.6639	0.9849	0.066
Mof_H 	H 	0.2375	0.8441	0.0555	0.067
Mof_H 	H 	0.4782	0.4503	0.2268	0.069
Mof_C 	C 	0.4234	0.4678	0.3214	0.051
Mof_H 	H 	0.3526	0.5078	0.4109	0.069
Mof_C 	C 	0.3242	0.8107	0.4977	0.043
Mof_H 	H 	0.4315	0.7516	0.458	0.066
Mof_H 	H 	0.2247	0.8794	0.5526	0.066
Mof_C 	C 	0.4906	0.9824	0.5264	0.05
Mof_H 	H 	0.5631	0.8943	0.4833	0.068
Mof_H 	H 	0.4053	0.0589	0.5892	0.066
Mof_C 	C 	0.9112	0.9285	0.2702	0.047
Mof_C 	C 	0.3063	0.7663	0.95	0.048
Mof_C 	C 	0.4743	0.4091	0.3327	0.044
Mof_C 	C 	0.907	0.9448	0.2151	-0.113
Mof_C 	C 	0.8482	0.9452	0.325	-0.11
Mof_C 	C 	0.3624	0.7283	0.8947	-0.113
Mof_C 	C 	0.247	0.8144	0.9481	-0.113
Mof_C 	C 	0.5483	0.3832	0.2949	-0.108
Mof_C 	C 	0.4508	0.376	0.3789	-0.111
Mof_H 	H 	0.9492	0.932	0.1765	0.066
Mof_C 	C 	0.8415	0.9796	0.217	0.064
Mof_C 	C 	0.7838	0.9786	0.3247	0.055
Mof_H 	H 	0.8495	0.9337	0.3628	0.068
Mof_H 	H 	0.4034	0.6938	0.8947	0.066
Mof_C 	C 	0.3593	0.74	0.8411	0.057
Mof_C 	C 	0.2454	0.8243	0.8925	0.063
Mof_H 	H 	0.2072	0.8407	0.9853	0.066
Mof_C 	C 	0.5938	0.3269	0.3024	0.057
Mof_H 	H 	0.5665	0.4057	0.2637	0.067
Mof_C 	C 	0.4981	0.3184	0.3839	0.063
Mof_H 	H 	0.4017	0.3932	0.4074	0.067
Mof_N 	N 	0.7829	0.9965	0.2705	-0.071
Mof_H 	H 	0.8387	0.9915	0.1798	0.016
Mof_H 	H 	0.7408	0.9889	0.3619	0.028
Mof_N 	N 	0.3015	0.7882	0.8394	-0.067
Mof_H 	H 	0.3984	0.7138	0.8036	0.03
Mof_H 	H 	0.204	0.8571	0.8917	0.018
Mof_H 	H 	0.6435	0.3105	0.277	0.03
Mof_N 	N 	0.5684	0.2941	0.3461	-0.068
Mof_H 	H 	0.481	0.2951	0.4147	0.017
_end
