data_functionalizedCrystal
_audit_creation_method	'EQeq! by Chris Wilmer'
_symmetry_space_group_name_H-M	'P1'
_symmetry_Int_Tables_number	1
_symmetry_cell_setting	triclinic
loop_
_symmetry_equiv_pos_as_xyz
  x,y,z
_cell_length_a	17.898
_cell_length_b	20.275
_cell_length_c	21.796
_cell_angle_alpha	63.375
_cell_angle_beta	76.644
_cell_angle_gamma	84.876
loop_
_atom_site_label
_atom_site_type_symbol
_atom_site_fract_x
_atom_site_fract_y
_atom_site_fract_z
_atom_site_charge
Mof_C 	C 	0.05389	0.04147	0.13588	0.081
Mof_H 	H 	0.019	0.0319	0.1779	0.001
Mof_C 	C 	0.289	0.1083	0.09663	-0.138
Mof_H 	H 	0.2526	0.1298	0.1198	0.081
Mof_C 	C 	0.12948	0.0477	0.13302	-0.133
Mof_H 	H 	0.1457	0.0436	0.1722	0.078
Mof_C 	C 	0.36518	0.11572	0.09228	0.077
Mof_H 	H 	0.3798	0.1425	0.1129	0.007
Mof_C 	C 	0.64044	0.51039	0.3598	0.146
Mof_C 	C 	0.63842	0.66392	0.2857	-0.08
Mof_C 	C 	0.18319	0.06023	0.07063	0.057
Mof_C 	C 	0.62591	0.98126	0.13296	0.437
Mof_C 	C 	0.63704	0.74498	0.24576	0.127
Mof_C 	C 	0.56752	0.19048	0.91883	0.31
Mof_C 	C 	0.63843	0.39777	0.46994	0.141
Mof_C 	C 	0.32099	0.03625	0.03429	-0.15
Mof_H 	H 	0.3077	0.0079	0.0146	0.099
Mof_C 	C 	0.07842	0.05959	0.02071	0.085
Mof_H 	H 	0.0605	0.0634	0.9825	-0.006
Mof_C 	C 	0.6005	0.28084	0.23777	0.123
Mof_C 	C 	0.58248	0.21066	0.15701	-0.182
Mof_C 	C 	0.87774	0.91781	0.19482	0.322
Mof_C 	C 	0.67923	0.86694	0.21774	0.109
Mof_H 	H 	0.7102	0.8967	0.2242	0.011
Mof_C 	C 	0.61949	0.29651	0.69283	0.083
Mof_C 	C 	0.88056	0.24966	0.66894	-0.079
Mof_C 	C 	0.57373	0.17334	0.1138	0.396
Mof_C 	C 	0.26569	0.06799	0.06615	0.069
Mof_C 	C 	0.88441	0.79145	0.20063	0.058
Mof_H 	H 	0.8864	0.8124	0.1526	0.025
Mof_C 	C 	0.63099	0.39095	0.36007	0.142
Mof_C 	C 	0.6312	0.89939	0.17118	-0.18
Mof_C 	C 	0.15627	0.06547	0.0137	-0.136
Mof_H 	H 	0.1902	0.0728	0.9717	0.091
Mof_C 	C 	0.61092	0.31856	0.28023	-0.08
Mof_C 	C 	0.82779	0.1284	0.16112	0.431
Mof_C 	C 	0.60036	0.18531	0.8031	0.038
Mof_H 	H 	0.5987	0.1341	0.8271	0.031
Mof_C 	C 	0.84382	0.09979	0.96949	0.417
Mof_C 	C 	0.65974	0.29559	0.5756	0.029
Mof_H 	H 	0.6767	0.2477	0.5979	0.017
Mof_C 	C 	0.68226	0.79131	0.25486	-0.179
Mof_H 	H 	0.7147	0.7709	0.2863	0.099
Mof_C 	C 	0.57703	0.62052	0.29693	0.04
Mof_H 	H 	0.5343	0.6431	0.2788	0.019
Mof_C 	C 	0.5902	0.22786	0.8402	-0.107
Mof_C 	C 	0.57674	0.54413	0.33436	-0.164
Mof_H 	H 	0.534	0.5162	0.3421	0.09
Mof_C 	C 	0.66495	0.32701	0.50401	-0.158
Mof_H 	H 	0.6862	0.3008	0.4786	0.087
Mof_C 	C 	0.59018	0.7781	0.19739	-0.182
Mof_H 	H 	0.5611	0.7487	0.1888	0.102
Mof_C 	C 	0.87412	0.83624	0.23475	-0.122
Mof_C 	C 	0.39671	0.04658	0.03154	0.099
Mof_H 	H 	0.4338	0.025	0.009	-0.007
Mof_C 	C 	0.92404	0.15126	0.84891	0.113
Mof_H 	H 	0.9671	0.138	0.8687	0.005
Mof_C 	C 	0.89552	0.60288	0.34683	-0.079
Mof_C 	C 	0.58438	0.2877	0.35247	0.037
Mof_H 	H 	0.5598	0.2418	0.3752	0.015
Mof_C 	C 	0.88616	0.6824	0.30905	0.094
Mof_C 	C 	0.8387	0.15548	0.21152	-0.171
Mof_C 	C 	0.60968	0.43732	0.50869	-0.154
Mof_H 	H 	0.5924	0.4851	0.4865	0.089
Mof_C 	C 	0.90041	0.32897	0.52359	0.147
Mof_C 	C 	0.86013	0.21641	0.29853	0.114
Mof_C 	C 	0.64443	0.25873	0.13477	0.101
Mof_H 	H 	0.6798	0.2676	0.0931	-0.017
Mof_C 	C 	0.65891	0.42221	0.28741	-0.16
Mof_H 	H 	0.6845	0.4676	0.2649	0.091
Mof_C 	C 	0.70301	0.55166	0.3495	-0.17
Mof_H 	H 	0.746	0.5288	0.3669	0.096
Mof_C 	C 	0.61284	0.21976	0.73101	-0.133
Mof_H 	H 	0.617	0.1912	0.7069	0.077
Mof_C 	C 	0.85264	0.13298	0.8915	-0.184
Mof_C 	C 	0.60701	0.40511	0.58018	0.029
Mof_H 	H 	0.5893	0.4326	0.605	0.018
Mof_C 	C 	0.59631	0.30411	0.8037	0.04
Mof_H 	H 	0.589	0.3326	0.8282	0.029
Mof_C 	C 	0.62969	0.33358	0.6158	-0.061
Mof_C 	C 	0.7979	0.18579	0.78985	-0.183
Mof_H 	H 	0.7549	0.1964	0.77	0.1
Mof_C 	C 	0.58628	0.85353	0.16222	0.11
Mof_H 	H 	0.5528	0.8742	0.1318	0.008
Mof_C 	C 	0.54031	0.23326	0.25841	-0.178
Mof_H 	H 	0.5049	0.2242	0.3001	0.093
Mof_C 	C 	0.59329	0.32313	0.39161	-0.163
Mof_H 	H 	0.5737	0.3012	0.4399	0.089
Mof_C 	C 	0.83807	0.35094	0.37685	-0.164
Mof_H 	H 	0.8065	0.39	0.3768	0.092
Mof_C 	C 	0.87131	0.72764	0.34416	-0.146
Mof_H 	H 	0.8652	0.7062	0.3927	0.081
Mof_C 	C 	0.78837	0.14922	0.86189	0.103
Mof_H 	H 	0.7395	0.1356	0.8904	0.008
Mof_C 	C 	0.70125	0.62704	0.3133	0.043
Mof_H 	H 	0.7436	0.6546	0.3069	0.018
Mof_C 	C 	0.86955	0.20696	0.74658	0.13
Mof_C 	C 	0.64912	0.38679	0.24867	0.038
Mof_H 	H 	0.6684	0.4088	0.2004	0.016
Mof_C 	C 	0.786	0.20145	0.29698	-0.166
Mof_H 	H 	0.7436	0.2122	0.3247	0.091
Mof_C 	C 	0.5305	0.19775	0.21859	0.106
Mof_H 	H 	0.489	0.1656	0.2337	0.008
Mof_C 	C 	0.83957	0.23097	0.63191	0.041
Mof_H 	H 	0.8049	0.1914	0.6559	0.015
Mof_C 	C 	0.89164	0.71713	0.23671	-0.151
Mof_H 	H 	0.9005	0.6887	0.2122	0.082
Mof_C 	C 	0.61311	0.3378	0.73134	-0.132
Mof_H 	H 	0.6204	0.3887	0.7074	0.075
Mof_C 	C 	0.7756	0.17058	0.25398	0.091
Mof_H 	H 	0.7263	0.16	0.2536	0.017
Mof_C 	C 	0.65306	0.29353	0.17554	-0.175
Mof_H 	H 	0.6945	0.3256	0.1608	0.091
Mof_C 	C 	0.8981	0.33197	0.41164	0.146
Mof_C 	C 	0.93318	0.18925	0.77678	-0.188
Mof_H 	H 	0.9821	0.203	0.7485	0.105
Mof_C 	C 	0.86564	0.80299	0.30775	0.049
Mof_H 	H 	0.8561	0.8319	0.3318	0.027
Mof_C 	C 	0.9417	0.34884	0.56003	-0.162
Mof_H 	H 	0.976	0.3887	0.5358	0.09
Mof_C 	C 	0.87175	0.2549	0.3398	-0.076
Mof_C 	C 	0.84974	0.27046	0.5597	-0.165
Mof_H 	H 	0.822	0.2572	0.5356	0.092
Mof_C 	C 	0.936	0.5618	0.31333	0.043
Mof_H 	H 	0.9595	0.5862	0.266	0.012
Mof_C 	C 	0.9421	0.48746	0.34726	-0.171
Mof_H 	H 	0.9707	0.4626	0.3229	0.093
Mof_C 	C 	0.82525	0.31154	0.34208	0.035
Mof_H 	H 	0.7841	0.3239	0.3198	0.021
Mof_C 	C 	0.90688	0.44749	0.41742	0.154
Mof_C 	C 	0.93148	0.30939	0.63184	0.039
Mof_H 	H 	0.9591	0.3229	0.6559	0.02
Mof_C 	C 	0.91197	0.16739	0.21507	0.097
Mof_H 	H 	0.9542	0.1548	0.1887	0.008
Mof_C 	C 	0.92269	0.1982	0.25797	-0.17
Mof_H 	H 	0.9722	0.2067	0.2596	0.089
Mof_C 	C 	0.8627	0.56271	0.41768	0.039
Mof_H 	H 	0.8362	0.5876	0.4428	0.013
Mof_C 	C 	0.8683	0.48689	0.45179	-0.174
Mof_H 	H 	0.8453	0.462	0.4992	0.095
Mof_C 	C 	0.9442	0.2738	0.4111	-0.165
Mof_H 	H 	0.984	0.2599	0.4351	0.092
Mof_C 	C 	0.9316	0.2365	0.37537	0.039
Mof_H 	H 	0.9636	0.198	0.3748	0.016
Mof_N 	N 	0.42019	0.08577	0.05923	-0.252
Mof_N 	N 	0.02708	0.0486	0.08035	-0.254
Mof_N 	N 	0.64114	0.43092	0.39691	-0.179
Mof_N 	N 	0.91093	0.37028	0.44928	-0.182
Mof_O 	O 	0.7614	0.11601	0.16006	-0.507
Mof_O 	O 	0.90553	0.09053	0.9908	-0.504
Mof_O 	O 	0.57558	0.00604	0.09729	-0.49
Mof_O 	O 	0.77831	0.08351	0.00812	-0.521
Mof_O 	O 	0.67226	0.01884	0.14096	-0.471
Mof_O 	O 	0.6287	0.17091	0.06709	-0.55
Mof_O 	O 	0.87902	0.94418	0.12873	-0.456
Mof_O 	O 	0.50999	0.14549	0.12334	-0.441
Mof_O 	O 	0.57841	0.12253	0.95049	-0.431
Mof_O 	O 	0.8874	0.12174	0.12111	-0.523
Mof_O 	O 	0.88394	0.95708	0.22328	-0.326
Mof_O 	O 	0.53913	0.22803	0.95106	-0.337
Mof_Zn	Zn	0.53496	0.10612	0.04959	1.224
Mof_Zn	Zn	0.72771	0.11702	0.08063	1.214
Mof_Zn	Zn	0.91141	0.0458	0.08897	1.219
Mof_C 	C 	0.94611	0.95853	0.86412	0.08
Mof_H 	H 	0.981	0.9681	0.8221	-0
Mof_C 	C 	0.711	0.8917	0.90337	-0.139
Mof_H 	H 	0.7474	0.8702	0.8802	0.08
Mof_C 	C 	0.87052	0.9523	0.86698	-0.133
Mof_H 	H 	0.8543	0.9564	0.8278	0.078
Mof_C 	C 	0.63482	0.88428	0.90772	0.077
Mof_H 	H 	0.6202	0.8575	0.8871	0.007
Mof_C 	C 	0.35956	0.48961	0.6402	0.146
Mof_C 	C 	0.36158	0.33608	0.7143	-0.08
Mof_C 	C 	0.81681	0.93977	0.92937	0.057
Mof_C 	C 	0.37409	0.01874	0.86704	0.437
Mof_C 	C 	0.36296	0.25502	0.75424	0.127
Mof_C 	C 	0.43248	0.80952	0.08117	0.31
Mof_C 	C 	0.36157	0.60223	0.53006	0.141
Mof_C 	C 	0.67901	0.96375	0.96571	-0.15
Mof_H 	H 	0.6923	0.9921	0.9854	0.099
Mof_C 	C 	0.92158	0.94041	0.97929	0.085
Mof_H 	H 	0.9395	0.9366	0.0175	-0.006
Mof_C 	C 	0.3995	0.71916	0.76223	0.123
Mof_C 	C 	0.41752	0.78934	0.84299	-0.182
Mof_C 	C 	0.12226	0.08219	0.80518	0.322
Mof_C 	C 	0.32077	0.13306	0.78226	0.109
Mof_H 	H 	0.2898	0.1033	0.7758	0.011
Mof_C 	C 	0.38051	0.70349	0.30717	0.083
Mof_C 	C 	0.11944	0.75034	0.33106	-0.079
Mof_C 	C 	0.42627	0.82666	0.8862	0.396
Mof_C 	C 	0.73431	0.93201	0.93385	0.069
Mof_C 	C 	0.11559	0.20855	0.79937	0.058
Mof_H 	H 	0.1136	0.1876	0.8474	0.025
Mof_C 	C 	0.36901	0.60905	0.63993	0.142
Mof_C 	C 	0.3688	0.10061	0.82882	-0.18
Mof_C 	C 	0.84373	0.93453	0.9863	-0.136
Mof_H 	H 	0.8098	0.9272	0.0283	0.091
Mof_C 	C 	0.38908	0.68144	0.71977	-0.08
Mof_C 	C 	0.17221	0.8716	0.83888	0.431
Mof_C 	C 	0.39964	0.81469	0.1969	0.038
Mof_H 	H 	0.4013	0.8659	0.1729	0.031
Mof_C 	C 	0.15618	0.90021	0.03051	0.417
Mof_C 	C 	0.34026	0.70441	0.4244	0.029
Mof_H 	H 	0.3233	0.7523	0.4021	0.017
Mof_C 	C 	0.31774	0.20869	0.74514	-0.179
Mof_H 	H 	0.2853	0.2291	0.7137	0.099
Mof_C 	C 	0.42297	0.37948	0.70307	0.04
Mof_H 	H 	0.4657	0.3569	0.7212	0.019
Mof_C 	C 	0.4098	0.77214	0.1598	-0.107
Mof_C 	C 	0.42326	0.45587	0.66564	-0.164
Mof_H 	H 	0.466	0.4838	0.6579	0.09
Mof_C 	C 	0.33505	0.67299	0.49599	-0.158
Mof_H 	H 	0.3138	0.6992	0.5214	0.087
Mof_C 	C 	0.40982	0.2219	0.80261	-0.182
Mof_H 	H 	0.4389	0.2513	0.8112	0.102
Mof_C 	C 	0.12588	0.16376	0.76525	-0.122
Mof_C 	C 	0.60329	0.95342	0.96846	0.099
Mof_H 	H 	0.5662	0.975	0.991	-0.007
Mof_C 	C 	0.07596	0.84874	0.15109	0.113
Mof_H 	H 	0.0329	0.862	0.1313	0.005
Mof_C 	C 	0.10448	0.39712	0.65317	-0.079
Mof_C 	C 	0.41562	0.7123	0.64753	0.037
Mof_H 	H 	0.4402	0.7582	0.6248	0.015
Mof_C 	C 	0.11384	0.3176	0.69095	0.094
Mof_C 	C 	0.1613	0.84452	0.78848	-0.171
Mof_C 	C 	0.39032	0.56268	0.49131	-0.154
Mof_H 	H 	0.4076	0.5149	0.5135	0.089
Mof_C 	C 	0.09959	0.67103	0.47641	0.147
Mof_C 	C 	0.13987	0.78359	0.70147	0.114
Mof_C 	C 	0.35557	0.74127	0.86523	0.101
Mof_H 	H 	0.3202	0.7324	0.9069	-0.017
Mof_C 	C 	0.34109	0.57779	0.71259	-0.16
Mof_H 	H 	0.3155	0.5324	0.7351	0.091
Mof_C 	C 	0.29699	0.44834	0.6505	-0.17
Mof_H 	H 	0.254	0.4712	0.6331	0.096
Mof_C 	C 	0.38716	0.78024	0.26899	-0.133
Mof_H 	H 	0.383	0.8088	0.2931	0.077
Mof_C 	C 	0.14736	0.86702	0.1085	-0.184
Mof_C 	C 	0.39299	0.59489	0.41982	0.029
Mof_H 	H 	0.4107	0.5674	0.395	0.018
Mof_C 	C 	0.40369	0.69589	0.1963	0.04
Mof_H 	H 	0.411	0.6674	0.1718	0.029
Mof_C 	C 	0.37031	0.66642	0.3842	-0.061
Mof_C 	C 	0.2021	0.81421	0.21015	-0.183
Mof_H 	H 	0.2451	0.8036	0.23	0.1
Mof_C 	C 	0.41372	0.14647	0.83778	0.11
Mof_H 	H 	0.4472	0.1258	0.8682	0.008
Mof_C 	C 	0.45969	0.76674	0.74159	-0.178
Mof_H 	H 	0.4951	0.7758	0.6999	0.093
Mof_C 	C 	0.40671	0.67687	0.60839	-0.163
Mof_H 	H 	0.4263	0.6988	0.5601	0.089
Mof_C 	C 	0.16193	0.64906	0.62315	-0.164
Mof_H 	H 	0.1935	0.61	0.6232	0.092
Mof_C 	C 	0.12869	0.27236	0.65584	-0.146
Mof_H 	H 	0.1348	0.2938	0.6073	0.081
Mof_C 	C 	0.21163	0.85078	0.13811	0.103
Mof_H 	H 	0.2605	0.8644	0.1096	0.008
Mof_C 	C 	0.29875	0.37296	0.6867	0.043
Mof_H 	H 	0.2564	0.3454	0.6931	0.018
Mof_C 	C 	0.13045	0.79304	0.25342	0.13
Mof_C 	C 	0.35088	0.61321	0.75133	0.038
Mof_H 	H 	0.3316	0.5912	0.7996	0.016
Mof_C 	C 	0.214	0.79855	0.70302	-0.166
Mof_H 	H 	0.2564	0.7878	0.6753	0.091
Mof_C 	C 	0.4695	0.80225	0.78141	0.106
Mof_H 	H 	0.511	0.8344	0.7663	0.008
Mof_C 	C 	0.16043	0.76903	0.36809	0.041
Mof_H 	H 	0.1951	0.8086	0.3441	0.015
Mof_C 	C 	0.10836	0.28287	0.76329	-0.151
Mof_H 	H 	0.0995	0.3113	0.7878	0.082
Mof_C 	C 	0.38689	0.6622	0.26866	-0.132
Mof_H 	H 	0.3796	0.6113	0.2926	0.075
Mof_C 	C 	0.2244	0.82942	0.74602	0.091
Mof_H 	H 	0.2737	0.84	0.7464	0.017
Mof_C 	C 	0.34694	0.70647	0.82446	-0.175
Mof_H 	H 	0.3055	0.6744	0.8392	0.091
Mof_C 	C 	0.1019	0.66803	0.58836	0.146
Mof_C 	C 	0.06682	0.81075	0.22322	-0.188
Mof_H 	H 	0.0179	0.797	0.2515	0.105
Mof_C 	C 	0.13436	0.19701	0.69225	0.049
Mof_H 	H 	0.1439	0.1681	0.6682	0.027
Mof_C 	C 	0.0583	0.65116	0.43997	-0.162
Mof_H 	H 	0.024	0.6113	0.4642	0.09
Mof_C 	C 	0.12825	0.7451	0.6602	-0.076
Mof_C 	C 	0.15026	0.72954	0.4403	-0.165
Mof_H 	H 	0.178	0.7428	0.4644	0.092
Mof_C 	C 	0.064	0.4382	0.68667	0.043
Mof_H 	H 	0.0405	0.4138	0.734	0.012
Mof_C 	C 	0.0579	0.51254	0.65274	-0.171
Mof_H 	H 	0.0293	0.5374	0.6771	0.093
Mof_C 	C 	0.17475	0.68846	0.65792	0.035
Mof_H 	H 	0.2159	0.6761	0.6802	0.021
Mof_C 	C 	0.09312	0.55251	0.58258	0.154
Mof_C 	C 	0.06852	0.69061	0.36816	0.039
Mof_H 	H 	0.0409	0.6771	0.3441	0.02
Mof_C 	C 	0.08803	0.83261	0.78493	0.097
Mof_H 	H 	0.0458	0.8452	0.8113	0.008
Mof_C 	C 	0.07731	0.8018	0.74203	-0.17
Mof_H 	H 	0.0278	0.7933	0.7404	0.089
Mof_C 	C 	0.1373	0.43729	0.58232	0.039
Mof_H 	H 	0.1638	0.4124	0.5572	0.013
Mof_C 	C 	0.1317	0.51311	0.54821	-0.174
Mof_H 	H 	0.1547	0.538	0.5008	0.095
Mof_C 	C 	0.0558	0.7262	0.5889	-0.165
Mof_H 	H 	0.016	0.7401	0.5649	0.092
Mof_C 	C 	0.0684	0.7635	0.62463	0.039
Mof_H 	H 	0.0364	0.802	0.6252	0.016
Mof_N 	N 	0.57981	0.91423	0.94077	-0.252
Mof_N 	N 	0.97292	0.9514	0.91965	-0.254
Mof_N 	N 	0.35886	0.56908	0.60309	-0.179
Mof_N 	N 	0.08907	0.62972	0.55072	-0.182
Mof_O 	O 	0.2386	0.88399	0.83994	-0.507
Mof_O 	O 	0.09447	0.90947	0.0092	-0.504
Mof_O 	O 	0.42442	0.99396	0.90271	-0.49
Mof_O 	O 	0.22169	0.91649	0.99188	-0.521
Mof_O 	O 	0.32774	0.98116	0.85904	-0.471
Mof_O 	O 	0.3713	0.82909	0.93291	-0.55
Mof_O 	O 	0.12098	0.05582	0.87127	-0.456
Mof_O 	O 	0.49001	0.85451	0.87666	-0.441
Mof_O 	O 	0.42159	0.87747	0.04951	-0.431
Mof_O 	O 	0.1126	0.87826	0.87889	-0.523
Mof_O 	O 	0.11606	0.04292	0.77672	-0.326
Mof_O 	O 	0.46087	0.77197	0.04894	-0.337
Mof_Zn	Zn	0.46504	0.89388	0.95041	1.224
Mof_Zn	Zn	0.27229	0.88298	0.91937	1.214
Mof_Zn	Zn	0.08859	0.9542	0.91103	1.219
_end
