data_functionalizedCrystal
_audit_creation_method	'EQeq! by Chris Wilmer'
_symmetry_space_group_name_H-M	'P1'
_symmetry_Int_Tables_number	1
_symmetry_cell_setting	triclinic
loop_
_symmetry_equiv_pos_as_xyz
  x,y,z
_cell_length_a	11.5228
_cell_length_b	11.5228
_cell_length_c	25.7692
_cell_angle_alpha	90
_cell_angle_beta	90
_cell_angle_gamma	90
loop_
_atom_site_label
_atom_site_type_symbol
_atom_site_fract_x
_atom_site_fract_y
_atom_site_fract_z
_atom_site_charge
Mof_Zn	Zn	0.59861	0.59861	0.79218	1.173
Mof_Zn	Zn	0.40139	0.40139	0.79218	1.173
Mof_Zn	Zn	0.40139	0.59861	0.29218	1.173
Mof_Zn	Zn	0.59861	0.40139	0.29218	1.173
Mof_Zn	Zn	0.40139	0.59861	0.70782	1.173
Mof_Zn	Zn	0.59861	0.40139	0.70782	1.173
Mof_Zn	Zn	0.59861	0.59861	0.20782	1.173
Mof_Zn	Zn	0.40139	0.40139	0.20782	1.173
Mof_H 	H 	0.9095	0.7159	0.8128	0.205
Mof_H 	H 	0.8278	0.6451	0.8498	0.194
Mof_H 	H 	0.9588	0.6106	0.8444	0.22
Mof_H 	H 	0.0905	0.2841	0.8128	0.205
Mof_H 	H 	0.1722	0.3549	0.8498	0.194
Mof_H 	H 	0.0412	0.3894	0.8444	0.22
Mof_H 	H 	0.2841	0.9095	0.3128	0.205
Mof_H 	H 	0.3549	0.8278	0.3498	0.194
Mof_H 	H 	0.3894	0.9588	0.3444	0.221
Mof_H 	H 	0.7159	0.0905	0.3128	0.206
Mof_H 	H 	0.6451	0.1722	0.3498	0.195
Mof_H 	H 	0.6106	0.0412	0.3444	0.221
Mof_H 	H 	0.0905	0.7159	0.6872	0.206
Mof_H 	H 	0.1722	0.6451	0.6502	0.195
Mof_H 	H 	0.0412	0.6106	0.6556	0.221
Mof_H 	H 	0.9095	0.2841	0.6872	0.206
Mof_H 	H 	0.8278	0.3549	0.6502	0.195
Mof_H 	H 	0.9588	0.3894	0.6556	0.221
Mof_H 	H 	0.7159	0.9095	0.1872	0.206
Mof_H 	H 	0.6451	0.8278	0.1502	0.195
Mof_H 	H 	0.6106	0.9588	0.1556	0.221
Mof_H 	H 	0.2841	0.0905	0.1872	0.206
Mof_H 	H 	0.3549	0.1722	0.1502	0.195
Mof_H 	H 	0.3894	0.0412	0.1556	0.221
Mof_H 	H 	0.0905	0.2841	0.1872	0.206
Mof_H 	H 	0.1722	0.3549	0.1502	0.195
Mof_H 	H 	0.0412	0.3894	0.1556	0.221
Mof_H 	H 	0.9095	0.7159	0.1872	0.206
Mof_H 	H 	0.8278	0.6451	0.1502	0.195
Mof_H 	H 	0.9588	0.6106	0.1556	0.221
Mof_H 	H 	0.7159	0.0905	0.6872	0.206
Mof_H 	H 	0.6451	0.1722	0.6502	0.195
Mof_H 	H 	0.6106	0.0412	0.6556	0.221
Mof_H 	H 	0.2841	0.9095	0.6872	0.206
Mof_H 	H 	0.3549	0.8278	0.6502	0.195
Mof_H 	H 	0.3894	0.9588	0.6556	0.221
Mof_H 	H 	0.9095	0.2841	0.3128	0.206
Mof_H 	H 	0.8278	0.3549	0.3498	0.195
Mof_H 	H 	0.9588	0.3894	0.3444	0.221
Mof_H 	H 	0.0905	0.7159	0.3128	0.206
Mof_H 	H 	0.1722	0.6451	0.3498	0.195
Mof_H 	H 	0.0412	0.6106	0.3444	0.221
Mof_H 	H 	0.2841	0.0905	0.8128	0.206
Mof_H 	H 	0.3549	0.1722	0.8498	0.195
Mof_H 	H 	0.3894	0.0412	0.8444	0.221
Mof_H 	H 	0.7159	0.9095	0.8128	0.206
Mof_H 	H 	0.6451	0.8278	0.8498	0.195
Mof_H 	H 	0.6106	0.9588	0.8444	0.221
Mof_H 	H 	0.6211	0.6211	0.9556	0.021
Mof_H 	H 	0.3789	0.3789	0.9556	0.021
Mof_H 	H 	0.3789	0.6211	0.4556	0.021
Mof_H 	H 	0.6211	0.3789	0.4556	0.021
Mof_H 	H 	0.3789	0.6211	0.5444	0.021
Mof_H 	H 	0.6211	0.3789	0.5444	0.021
Mof_H 	H 	0.6211	0.6211	0.0444	0.021
Mof_H 	H 	0.3789	0.3789	0.0444	0.021
Mof_C 	C 	0.8923	0.6401	0.8263	-0.726
Mof_C 	C 	0.8625	0.561	0.78278	0.243
Mof_C 	C 	0.1077	0.3599	0.8263	-0.726
Mof_C 	C 	0.1375	0.439	0.78278	0.243
Mof_C 	C 	0.3599	0.8923	0.3263	-0.726
Mof_C 	C 	0.439	0.8625	0.28278	0.243
Mof_C 	C 	0.6401	0.1077	0.3263	-0.726
Mof_C 	C 	0.561	0.1375	0.28278	0.243
Mof_C 	C 	0.1077	0.6401	0.6737	-0.726
Mof_C 	C 	0.1375	0.561	0.71722	0.243
Mof_C 	C 	0.8923	0.3599	0.6737	-0.726
Mof_C 	C 	0.8625	0.439	0.71722	0.243
Mof_C 	C 	0.6401	0.8923	0.1737	-0.726
Mof_C 	C 	0.561	0.8625	0.21722	0.243
Mof_C 	C 	0.3599	0.1077	0.1737	-0.726
Mof_C 	C 	0.439	0.1375	0.21722	0.243
Mof_C 	C 	0.1077	0.3599	0.1737	-0.726
Mof_C 	C 	0.1375	0.439	0.21722	0.243
Mof_C 	C 	0.8923	0.6401	0.1737	-0.726
Mof_C 	C 	0.8625	0.561	0.21722	0.243
Mof_C 	C 	0.6401	0.1077	0.6737	-0.726
Mof_C 	C 	0.561	0.1375	0.71722	0.243
Mof_C 	C 	0.3599	0.8923	0.6737	-0.726
Mof_C 	C 	0.439	0.8625	0.71722	0.243
Mof_C 	C 	0.8923	0.3599	0.3263	-0.726
Mof_C 	C 	0.8625	0.439	0.28278	0.243
Mof_C 	C 	0.1077	0.6401	0.3263	-0.726
Mof_C 	C 	0.1375	0.561	0.28278	0.243
Mof_C 	C 	0.3599	0.1077	0.8263	-0.726
Mof_C 	C 	0.439	0.1375	0.78278	0.243
Mof_C 	C 	0.6401	0.8923	0.8263	-0.726
Mof_C 	C 	0.561	0.8625	0.78278	0.243
Mof_C 	C 	0.5714	0.5714	0.9733	-0.016
Mof_C 	C 	0.4286	0.4286	0.9733	-0.016
Mof_C 	C 	0.4286	0.5714	0.4733	-0.016
Mof_C 	C 	0.5714	0.4286	0.4733	-0.016
Mof_C 	C 	0.4286	0.5714	0.5267	-0.016
Mof_C 	C 	0.5714	0.4286	0.5267	-0.016
Mof_C 	C 	0.5714	0.5714	0.0267	-0.016
Mof_C 	C 	0.4286	0.4286	0.0267	-0.016
Mof_C 	C 	0.9352	0.5	0.75	-0.165
Mof_C 	C 	0.0648	0.5	0.75	-0.165
Mof_C 	C 	0.5	0.9352	0.25	-0.165
Mof_C 	C 	0.5	0.0648	0.25	-0.165
Mof_C 	C 	0.0648	0.5	0.25	-0.165
Mof_C 	C 	0.9352	0.5	0.25	-0.165
Mof_C 	C 	0.5	0.0648	0.75	-0.165
Mof_C 	C 	0.5	0.9352	0.75	-0.165
Mof_C 	C 	0.5	0.5	0.8881	0.414
Mof_C 	C 	0.5	0.5	0.946	-0.123
Mof_C 	C 	0.5	0.5	0.3881	0.414
Mof_C 	C 	0.5	0.5	0.446	-0.123
Mof_C 	C 	0.5	0.5	0.6119	0.414
Mof_C 	C 	0.5	0.5	0.554	-0.123
Mof_C 	C 	0.5	0.5	0.1119	0.414
Mof_C 	C 	0.5	0.5	0.054	-0.123
Mof_N 	N 	0.7523	0.5385	0.77058	-0.315
Mof_N 	N 	0.2477	0.4615	0.77058	-0.315
Mof_N 	N 	0.4615	0.7523	0.27058	-0.315
Mof_N 	N 	0.5385	0.2477	0.27058	-0.315
Mof_N 	N 	0.2477	0.5385	0.72942	-0.315
Mof_N 	N 	0.7523	0.4615	0.72942	-0.315
Mof_N 	N 	0.5385	0.7523	0.22942	-0.315
Mof_N 	N 	0.4615	0.2477	0.22942	-0.315
Mof_N 	N 	0.2477	0.4615	0.22942	-0.315
Mof_N 	N 	0.7523	0.5385	0.22942	-0.315
Mof_N 	N 	0.5385	0.2477	0.72942	-0.315
Mof_N 	N 	0.4615	0.7523	0.72942	-0.315
Mof_N 	N 	0.7523	0.4615	0.27058	-0.315
Mof_N 	N 	0.2477	0.5385	0.27058	-0.315
Mof_N 	N 	0.4615	0.2477	0.77058	-0.315
Mof_N 	N 	0.5385	0.7523	0.77058	-0.315
Mof_O 	O 	0.5684	0.5684	0.86619	-0.56
Mof_O 	O 	0.4316	0.4316	0.86619	-0.56
Mof_O 	O 	0.4316	0.5684	0.36619	-0.56
Mof_O 	O 	0.5684	0.4316	0.36619	-0.56
Mof_O 	O 	0.4316	0.5684	0.63381	-0.56
Mof_O 	O 	0.5684	0.4316	0.63381	-0.56
Mof_O 	O 	0.5684	0.5684	0.13381	-0.56
Mof_O 	O 	0.4316	0.4316	0.13381	-0.56
Mof_O 	O 	0.5	0.5	0.75	-0.982
Mof_O 	O 	0.5	0.5	0.25	-0.982
_end
