data_functionalizedCrystal
_audit_creation_method	'EQeq! by Chris Wilmer'
_symmetry_space_group_name_H-M	'P1'
_symmetry_Int_Tables_number	1
_symmetry_cell_setting	triclinic
loop_
_symmetry_equiv_pos_as_xyz
  x,y,z
_cell_length_a	35.0765
_cell_length_b	35.0765
_cell_length_c	35.0765
_cell_angle_alpha	90
_cell_angle_beta	90
_cell_angle_gamma	90
loop_
_atom_site_label
_atom_site_type_symbol
_atom_site_fract_x
_atom_site_fract_y
_atom_site_fract_z
_atom_site_charge
Mof_C 	C 	0.29734	0.45348	0.90348	-0.171
Mof_C 	C 	0.33057	0.46932	0.91997	0.125
Mof_C 	C 	0.34767	0.45326	0.95289	-0.199
Mof_C 	C 	0.32979	0.42124	0.96983	0.124
Mof_C 	C 	0.29653	0.40476	0.95413	-0.17
Mof_C 	C 	0.28052	0.42146	0.92115	0.113
Mof_H 	H 	0.34413	0.49328	0.906	0.053
Mof_H 	H 	0.34278	0.4079	0.99447	0.053
Mof_H 	H 	0.25575	0.4084	0.90816	0.054
Mof_C 	C 	0.45387	0.84574	0.45415	-0.166
Mof_C 	C 	0.4705	0.82848	0.42181	0.111
Mof_C 	C 	0.45483	0.79528	0.40531	-0.165
Mof_C 	C 	0.42236	0.77875	0.42247	0.109
Mof_C 	C 	0.40504	0.79526	0.45484	-0.164
Mof_C 	C 	0.42146	0.82848	0.47061	0.111
Mof_H 	H 	0.49464	0.84211	0.40821	0.057
Mof_H 	H 	0.4093	0.75405	0.40935	0.057
Mof_H 	H 	0.40776	0.84213	0.49468	0.057
Mof_C 	C 	0.95351	0.90251	0.79807	-0.206
Mof_C 	C 	0.92149	0.92045	0.7813	0.13
Mof_C 	C 	0.90502	0.95361	0.79716	-0.176
Mof_C 	C 	0.92169	0.96943	0.83027	0.13
Mof_C 	C 	0.95377	0.95253	0.84807	-0.205
Mof_C 	C 	0.96967	0.91944	0.83107	0.142
Mof_H 	H 	0.90816	0.90761	0.75658	0.052
Mof_H 	H 	0.90847	0.99418	0.84316	0.052
Mof_H 	H 	0.99376	0.90572	0.84468	0.051
Mof_C 	C 	0.45355	0.90497	0.29714	-0.176
Mof_C 	C 	0.42053	0.92169	0.28126	0.13
Mof_C 	C 	0.40275	0.95378	0.29811	-0.206
Mof_C 	C 	0.41969	0.96972	0.33117	0.143
Mof_C 	C 	0.45262	0.95355	0.34819	-0.206
Mof_C 	C 	0.46938	0.92144	0.33034	0.13
Mof_H 	H 	0.40768	0.9085	0.25647	0.053
Mof_H 	H 	0.40606	0.99385	0.34482	0.05
Mof_H 	H 	0.49403	0.90805	0.34327	0.052
Mof_C 	C 	0.79672	0.29576	0.34487	-0.162
Mof_C 	C 	0.82982	0.27986	0.32831	0.11
Mof_C 	C 	0.84748	0.29668	0.29625	-0.16
Mof_C 	C 	0.83085	0.32971	0.28029	0.111
Mof_C 	C 	0.79776	0.34637	0.2961	-0.16
Mof_C 	C 	0.78084	0.3288	0.32815	0.109
Mof_H 	H 	0.84294	0.25523	0.34151	0.059
Mof_H 	H 	0.84472	0.34351	0.2564	0.06
Mof_H 	H 	0.75617	0.34194	0.34125	0.057
Mof_C 	C 	0.79637	0.84504	0.79621	-0.17
Mof_C 	C 	0.82977	0.82873	0.7807	0.128
Mof_C 	C 	0.84747	0.79658	0.79749	-0.2
Mof_C 	C 	0.82999	0.78007	0.82998	0.139
Mof_C 	C 	0.79663	0.7958	0.84656	-0.198
Mof_C 	C 	0.77995	0.82798	0.82879	0.126
Mof_H 	H 	0.84305	0.84238	0.75639	0.056
Mof_H 	H 	0.84357	0.75592	0.84362	0.055
Mof_H 	H 	0.75501	0.84108	0.84144	0.057
Mof_C 	C 	0.95381	0.34611	0.45282	-0.165
Mof_C 	C 	0.96989	0.32951	0.41983	0.113
Mof_C 	C 	0.95419	0.29636	0.40318	-0.165
Mof_C 	C 	0.92219	0.27935	0.42074	0.111
Mof_C 	C 	0.90542	0.29521	0.45375	-0.161
Mof_C 	C 	0.92187	0.32834	0.46966	0.11
Mof_H 	H 	0.99369	0.34347	0.406	0.056
Mof_H 	H 	0.90914	0.25465	0.4076	0.059
Mof_H 	H 	0.90861	0.34145	0.49426	0.057
Mof_C 	C 	0.45216	0.45236	0.84663	-0.169
Mof_C 	C 	0.41943	0.46862	0.82978	0.116
Mof_C 	C 	0.40237	0.45242	0.79713	-0.165
Mof_C 	C 	0.41922	0.41965	0.78086	0.114
Mof_C 	C 	0.452	0.40272	0.79698	-0.169
Mof_C 	C 	0.46832	0.41966	0.82964	0.116
Mof_H 	H 	0.40616	0.49308	0.84315	0.058
Mof_H 	H 	0.4058	0.40629	0.75647	0.055
Mof_H 	H 	0.49281	0.40635	0.84293	0.055
Mof_C 	C 	0.79686	0.9059	0.95512	-0.169
Mof_C 	C 	0.78018	0.9233	0.92289	0.112
Mof_C 	C 	0.79672	0.95556	0.90546	-0.168
Mof_C 	C 	0.8303	0.97106	0.92157	0.124
Mof_C 	C 	0.84802	0.95438	0.95384	-0.197
Mof_C 	C 	0.83041	0.92207	0.97054	0.124
Mof_H 	H 	0.75519	0.91045	0.9101	0.056
Mof_H 	H 	0.84372	0.99516	0.90768	0.055
Mof_H 	H 	0.84388	0.90818	0.99461	0.054
Mof_C 	C 	0.2966	0.84773	0.29604	-0.195
Mof_C 	C 	0.27965	0.83012	0.32821	0.124
Mof_C 	C 	0.29486	0.7965	0.34439	-0.165
Mof_C 	C 	0.32711	0.77973	0.3271	0.112
Mof_C 	C 	0.34467	0.79628	0.29489	-0.165
Mof_C 	C 	0.32877	0.82992	0.27942	0.124
Mof_H 	H 	0.25558	0.84367	0.34201	0.058
Mof_H 	H 	0.33981	0.75471	0.33996	0.059
Mof_H 	H 	0.34276	0.84333	0.25538	0.058
Mof_C 	C 	0.79693	0.40436	0.45348	-0.169
Mof_C 	C 	0.78086	0.42106	0.42055	0.116
Mof_C 	C 	0.79753	0.4532	0.40299	-0.171
Mof_C 	C 	0.83062	0.46917	0.41953	0.129
Mof_C 	C 	0.84777	0.45314	0.45238	-0.196
Mof_C 	C 	0.83008	0.42099	0.46926	0.125
Mof_H 	H 	0.75617	0.4079	0.40749	0.055
Mof_H 	H 	0.84405	0.49324	0.40561	0.056
Mof_H 	H 	0.84314	0.40765	0.49387	0.054
Mof_C 	C 	0.95381	0.84816	0.95362	-0.198
Mof_C 	C 	0.92178	0.83031	0.97054	0.128
Mof_C 	C 	0.90541	0.79701	0.95482	-0.171
Mof_C 	C 	0.92219	0.78099	0.92198	0.117
Mof_C 	C 	0.95411	0.79789	0.90433	-0.173
Mof_C 	C 	0.96995	0.83106	0.92078	0.129
Mof_H 	H 	0.90833	0.84335	0.99509	0.057
Mof_H 	H 	0.90918	0.75619	0.90899	0.055
Mof_H 	H 	0.99387	0.84464	0.90675	0.054
Mof_C 	C 	0.29662	0.34664	0.79674	-0.162
Mof_C 	C 	0.27975	0.32911	0.82885	0.109
Mof_C 	C 	0.29563	0.29609	0.8456	-0.158
Mof_C 	C 	0.32871	0.28013	0.82903	0.108
Mof_C 	C 	0.34636	0.29688	0.79694	-0.159
Mof_C 	C 	0.32972	0.32993	0.78093	0.11
Mof_H 	H 	0.2551	0.34228	0.84196	0.059
Mof_H 	H 	0.34182	0.25552	0.84225	0.06
Mof_H 	H 	0.34357	0.34369	0.75702	0.057
Mof_C 	C 	0.15423	0.54599	0.54481	-0.163
Mof_C 	C 	0.17144	0.52942	0.57723	0.108
Mof_C 	C 	0.20377	0.54593	0.5946	-0.163
Mof_C 	C 	0.21946	0.57927	0.57825	0.109
Mof_C 	C 	0.20299	0.59657	0.54581	-0.164
Mof_C 	C 	0.17064	0.5793	0.5292	0.109
Mof_H 	H 	0.15841	0.50462	0.59021	0.057
Mof_H 	H 	0.24354	0.5929	0.59195	0.056
Mof_H 	H 	0.15703	0.59291	0.50507	0.057
Mof_C 	C 	0.59678	0.70319	0.04641	-0.16
Mof_C 	C 	0.57915	0.67106	0.02969	0.109
Mof_C 	C 	0.54606	0.65449	0.04567	-0.162
Mof_C 	C 	0.53021	0.67127	0.07869	0.109
Mof_C 	C 	0.54711	0.70338	0.09619	-0.164
Mof_C 	C 	0.58015	0.71921	0.07945	0.11
Mof_H 	H 	0.59228	0.65782	0.00509	0.059
Mof_H 	H 	0.50556	0.65817	0.09186	0.057
Mof_H 	H 	0.59397	0.74315	0.09319	0.056
Mof_C 	C 	0.70375	0.20329	0.65357	-0.167
Mof_C 	C 	0.71971	0.1703	0.67025	0.114
Mof_C 	C 	0.7038	0.15364	0.70325	-0.167
Mof_C 	C 	0.67175	0.17119	0.72012	0.111
Mof_C 	C 	0.65505	0.20419	0.7042	-0.165
Mof_C 	C 	0.67167	0.22012	0.67113	0.111
Mof_H 	H 	0.74362	0.15648	0.65645	0.056
Mof_H 	H 	0.65859	0.15802	0.74475	0.056
Mof_H 	H 	0.65846	0.2447	0.65793	0.056
Mof_C 	C 	0.09515	0.04412	0.20541	-0.16
Mof_C 	C 	0.07799	0.07673	0.22162	0.105
Mof_C 	C 	0.04532	0.09365	0.20525	-0.159
Mof_C 	C 	0.02911	0.07657	0.1726	0.105
Mof_C 	C 	0.04547	0.04394	0.1556	-0.158
Mof_C 	C 	0.07824	0.0278	0.17265	0.106
Mof_H 	H 	0.0914	0.09027	0.2459	0.058
Mof_H 	H 	0.00481	0.09	0.15909	0.061
Mof_H 	H 	0.09183	0.00359	0.15916	0.06
Mof_C 	C 	0.04684	0.15493	0.04598	-0.174
Mof_C 	C 	0.08019	0.17126	0.03034	0.129
Mof_C 	C 	0.09786	0.20354	0.04697	-0.201
Mof_C 	C 	0.08043	0.22014	0.07944	0.138
Mof_C 	C 	0.04721	0.20438	0.09622	-0.202
Mof_C 	C 	0.03053	0.17207	0.0786	0.127
Mof_H 	H 	0.09344	0.15757	0.00604	0.056
Mof_H 	H 	0.09397	0.2444	0.09294	0.052
Mof_H 	H 	0.00566	0.15896	0.09137	0.053
Mof_C 	C 	0.15448	0.70539	0.70429	-0.162
Mof_C 	C 	0.17086	0.72108	0.67101	0.109
Mof_C 	C 	0.20323	0.70455	0.65369	-0.164
Mof_C 	C 	0.21979	0.67212	0.67094	0.109
Mof_C 	C 	0.20417	0.65568	0.70424	-0.159
Mof_C 	C 	0.17178	0.67296	0.72079	0.106
Mof_H 	H 	0.1572	0.7452	0.65741	0.057
Mof_H 	H 	0.24389	0.65848	0.65729	0.059
Mof_H 	H 	0.15878	0.65993	0.74558	0.058
Mof_C 	C 	0.20489	0.15523	0.20527	-0.169
Mof_C 	C 	0.17222	0.17223	0.22165	0.123
Mof_C 	C 	0.15462	0.20458	0.20505	-0.197
Mof_C 	C 	0.17147	0.22054	0.17201	0.125
Mof_C 	C 	0.20396	0.20411	0.15483	-0.172
Mof_C 	C 	0.22058	0.17178	0.1721	0.115
Mof_H 	H 	0.15935	0.15896	0.24638	0.055
Mof_H 	H 	0.15808	0.24473	0.15827	0.054
Mof_H 	H 	0.24481	0.15828	0.15855	0.055
Mof_C 	C 	0.65468	0.04571	0.54717	-0.167
Mof_C 	C 	0.67148	0.07868	0.5313	0.113
Mof_C 	C 	0.70348	0.09627	0.54825	-0.166
Mof_C 	C 	0.71921	0.07967	0.58145	0.125
Mof_C 	C 	0.70308	0.04672	0.59844	-0.194
Mof_C 	C 	0.67103	0.0299	0.58049	0.124
Mof_H 	H 	0.65852	0.09172	0.5065	0.055
Mof_H 	H 	0.74319	0.09358	0.59505	0.057
Mof_H 	H 	0.65762	0.00527	0.59341	0.057
Mof_C 	C 	0.54495	0.5453	0.15488	-0.158
Mof_C 	C 	0.5774	0.52888	0.17218	0.107
Mof_C 	C 	0.59475	0.54558	0.20446	-0.161
Mof_C 	C 	0.57835	0.57895	0.21998	0.108
Mof_C 	C 	0.54589	0.59614	0.2034	-0.159
Mof_C 	C 	0.52931	0.57868	0.17114	0.108
Mof_H 	H 	0.5904	0.50404	0.15925	0.06
Mof_H 	H 	0.59205	0.5927	0.24399	0.058
Mof_H 	H 	0.50516	0.59222	0.15748	0.06
Mof_C 	C 	0.65336	0.70349	0.20281	-0.166
Mof_C 	C 	0.66997	0.71947	0.16977	0.113
Mof_C 	C 	0.70296	0.70357	0.15303	-0.166
Mof_C 	C 	0.71983	0.67147	0.17054	0.111
Mof_C 	C 	0.70397	0.65476	0.20357	-0.164
Mof_C 	C 	0.67095	0.67139	0.21956	0.111
Mof_H 	H 	0.65616	0.7434	0.156	0.056
Mof_H 	H 	0.74445	0.65831	0.15734	0.056
Mof_H 	H 	0.65782	0.65819	0.24419	0.056
Mof_C 	C 	0.15573	0.04638	0.04544	-0.167
Mof_C 	C 	0.17304	0.02984	0.07785	0.11
Mof_C 	C 	0.20535	0.04644	0.0953	-0.163
Mof_C 	C 	0.2208	0.08001	0.07911	0.121
Mof_C 	C 	0.20416	0.09762	0.04676	-0.196
Mof_C 	C 	0.17193	0.07991	0.03002	0.122
Mof_H 	H 	0.16018	0.00489	0.09069	0.058
Mof_H 	H 	0.24489	0.09347	0.09297	0.055
Mof_H 	H 	0.15814	0.09328	0.00583	0.055
Mof_C 	C 	0.59632	0.20369	0.54589	-0.163
Mof_C 	C 	0.57894	0.17134	0.52938	0.109
Mof_C 	C 	0.54564	0.15499	0.54512	-0.16
Mof_C 	C 	0.52922	0.17228	0.57754	0.108
Mof_C 	C 	0.54585	0.20461	0.59482	-0.163
Mof_C 	C 	0.57914	0.22023	0.57836	0.109
Mof_H 	H 	0.59249	0.15767	0.50524	0.058
Mof_H 	H 	0.50444	0.15929	0.59059	0.06
Mof_H 	H 	0.59284	0.24429	0.59202	0.057
Mof_C 	C 	0.0935	0.54525	0.70518	-0.159
Mof_C 	C 	0.07652	0.529	0.67244	0.105
Mof_C 	C 	0.04385	0.54526	0.65534	-0.16
Mof_C 	C 	0.02757	0.57799	0.67233	0.105
Mof_C 	C 	0.04376	0.59499	0.70508	-0.157
Mof_C 	C 	0.07644	0.57795	0.72139	0.104
Mof_H 	H 	0.09	0.5047	0.659	0.058
Mof_H 	H 	0.00333	0.59149	0.6588	0.06
Mof_H 	H 	0.08989	0.5914	0.74571	0.059
Mof_C 	C 	0.65498	0.54563	0.04456	-0.161
Mof_C 	C 	0.67232	0.52904	0.07691	0.106
Mof_C 	C 	0.70478	0.5455	0.09417	-0.158
Mof_C 	C 	0.72044	0.57882	0.07777	0.107
Mof_C 	C 	0.70388	0.59619	0.04542	-0.162
Mof_C 	C 	0.67139	0.57896	0.02893	0.108
Mof_H 	H 	0.65931	0.50425	0.08992	0.06
Mof_H 	H 	0.7446	0.59238	0.09139	0.057
Mof_H 	H 	0.6577	0.59264	0.00487	0.058
Mof_C 	C 	0.04471	0.70535	0.59485	-0.16
Mof_C 	C 	0.02809	0.67293	0.5776	0.105
Mof_C 	C 	0.04451	0.6556	0.54513	-0.157
Mof_C 	C 	0.07787	0.67194	0.52946	0.106
Mof_C 	C 	0.09527	0.7043	0.54597	-0.159
Mof_C 	C 	0.07804	0.7209	0.57839	0.106
Mof_H 	H 	0.0033	0.65997	0.59065	0.06
Mof_H 	H 	0.09142	0.65828	0.50532	0.06
Mof_H 	H 	0.09173	0.745	0.592	0.057
Mof_C 	C 	0.5467	0.0447	0.65539	-0.167
Mof_C 	C 	0.58022	0.0292	0.67162	0.122
Mof_C 	C 	0.59786	0.04587	0.70398	-0.195
Mof_C 	C 	0.58022	0.07821	0.7206	0.122
Mof_C 	C 	0.54669	0.09441	0.70507	-0.164
Mof_C 	C 	0.53013	0.07701	0.67276	0.111
Mof_H 	H 	0.59363	0.00507	0.65779	0.055
Mof_H 	H 	0.59361	0.09206	0.74473	0.054
Mof_H 	H 	0.50519	0.08986	0.6599	0.059
Mof_C 	C 	0.45284	0.34793	0.95305	-0.195
Mof_C 	C 	0.42083	0.33	0.96994	0.125
Mof_C 	C 	0.40446	0.29669	0.95421	-0.168
Mof_C 	C 	0.42123	0.28073	0.92128	0.115
Mof_C 	C 	0.45323	0.29763	0.90364	-0.17
Mof_C 	C 	0.46898	0.33087	0.92015	0.126
Mof_H 	H 	0.40743	0.34297	0.99455	0.057
Mof_H 	H 	0.40824	0.25592	0.90829	0.056
Mof_H 	H 	0.49292	0.34447	0.90618	0.054
Mof_C 	C 	0.95246	0.45192	0.34824	-0.2
Mof_C 	C 	0.91982	0.46815	0.33083	0.128
Mof_C 	C 	0.90316	0.45203	0.29788	-0.173
Mof_C 	C 	0.92028	0.41938	0.28169	0.118
Mof_C 	C 	0.95297	0.40243	0.298	-0.172
Mof_C 	C 	0.9689	0.41926	0.33101	0.128
Mof_H 	H 	0.90624	0.49263	0.34386	0.052
Mof_H 	H 	0.90718	0.40617	0.25705	0.054
Mof_H 	H 	0.99337	0.40583	0.34422	0.052
Mof_C 	C 	0.29823	0.95382	0.40227	-0.206
Mof_C 	C 	0.28138	0.92179	0.42011	0.131
Mof_C 	C 	0.2972	0.90522	0.45323	-0.176
Mof_C 	C 	0.33036	0.92174	0.46908	0.13
Mof_C 	C 	0.34823	0.9538	0.45225	-0.202
Mof_C 	C 	0.33126	0.96986	0.41924	0.143
Mof_H 	H 	0.25662	0.90856	0.40723	0.051
Mof_H 	H 	0.34321	0.90843	0.4938	0.052
Mof_H 	H 	0.34493	0.99395	0.40559	0.053
Mof_O 	O 	0.14784	0.54964	0.74665	-0.646
Mof_O 	O 	0.16189	0.54505	0.81444	-0.568
Mof_O 	O 	0.24605	0.60177	0.70037	-0.631
Mof_O 	O 	0.31033	0.59148	0.70379	-0.557
Mof_O 	O 	0.1997	0.50383	0.64847	-0.646
Mof_O 	O 	0.20474	0.43578	0.66233	-0.569
Mof_O 	O 	0.34928	0.49529	0.80042	-0.631
Mof_O 	O 	0.33922	0.56259	0.79205	-0.578
Mof_O 	O 	0.25449	0.45012	0.85008	-0.648
Mof_O 	O 	0.18393	0.45481	0.83676	-0.555
Mof_O 	O 	0.29972	0.40018	0.75422	-0.648
Mof_O 	O 	0.29468	0.41374	0.68408	-0.555
Mof_O 	O 	0.34922	0.44976	0.75438	-0.65
Mof_O 	O 	0.33586	0.45515	0.6841	-0.555
Mof_O 	O 	0.25417	0.40019	0.80021	-0.649
Mof_O 	O 	0.18391	0.41356	0.79574	-0.554
Mof_O 	O 	0.30033	0.49584	0.84991	-0.648
Mof_O 	O 	0.29426	0.56539	0.83723	-0.582
Mof_O 	O 	0.14763	0.50368	0.70087	-0.648
Mof_O 	O 	0.16143	0.43585	0.70572	-0.568
Mof_O 	O 	0.24551	0.54976	0.64848	-0.65
Mof_O 	O 	0.314	0.54192	0.66228	-0.596
Mof_O 	O 	0.20014	0.60182	0.74623	-0.646
Mof_O 	O 	0.20536	0.58812	0.81431	-0.569
Mof_Zr	Zr	0.20329	0.54659	0.77069	3.225
Mof_O 	O 	0.2371	0.51264	0.80748	-1.497
Mof_Zr	Zr	0.27013	0.54648	0.70351	3.225
Mof_O 	O 	0.30703	0.51274	0.73753	-1.493
Mof_Zr	Zr	0.20294	0.47948	0.70378	3.225
Mof_O 	O 	0.2369	0.44265	0.73758	-1.494
Mof_Zr	Zr	0.29524	0.5215	0.79562	3.225
Mof_O 	O 	0.26154	0.559	0.76178	-1.282
Mof_Zr	Zr	0.22824	0.45452	0.79576	3.224
Mof_O 	O 	0.19077	0.48838	0.76202	-1.281
Mof_Zr	Zr	0.29499	0.45459	0.72852	3.224
Mof_O 	O 	0.26103	0.48832	0.69119	-1.284
Mof_O 	O 	0.2127	0.53688	0.71327	-1.542
Mof_O 	O 	0.28595	0.46373	0.78634	-1.29
Mof_C 	C 	0.13165	0.5314	0.71904	0.492
Mof_C 	C 	0.21828	0.6178	0.71845	0.491
Mof_C 	C 	0.2178	0.53164	0.63247	0.494
Mof_C 	C 	0.36486	0.46711	0.78271	0.51
Mof_C 	C 	0.28277	0.46772	0.8657	0.508
Mof_C 	C 	0.28226	0.38447	0.78247	0.507
Mof_H 	H 	0.23097	0.51863	0.83429	0.285
Mof_H 	H 	0.23083	0.41582	0.73153	0.286
Mof_H 	H 	0.19634	0.55313	0.69712	0.341
Mof_H 	H 	0.33396	0.5188	0.73191	0.289
Mof_H 	H 	0.32789	0.58555	0.78015	0.185
Mof_H 	H 	0.33385	0.58181	0.71598	0.168
Mof_H 	H 	0.18786	0.39654	0.77361	0.166
Mof_H 	H 	0.14917	0.43764	0.73108	0.186
Mof_H 	H 	0.27212	0.56112	0.85414	0.174
Mof_H 	H 	0.23052	0.60072	0.81215	0.185
Mof_H 	H 	0.27257	0.39673	0.68811	0.167
Mof_H 	H 	0.22984	0.43788	0.6496	0.187
Mof_H 	H 	0.14966	0.51965	0.81294	0.186
Mof_H 	H 	0.1883	0.4766	0.85411	0.166
Mof_H 	H 	0.30967	0.51778	0.64832	0.198
Mof_H 	H 	0.35318	0.47695	0.68852	0.168
Mof_O 	O 	0.24718	0.10158	0.20147	-0.647
Mof_O 	O 	0.31528	0.08798	0.20641	-0.569
Mof_O 	O 	0.20171	0.00384	0.14893	-0.629
Mof_O 	O 	0.20619	0.93918	0.15893	-0.559
Mof_O 	O 	0.14922	0.04869	0.24717	-0.646
Mof_O 	O 	0.16321	0.04385	0.31516	-0.569
Mof_O 	O 	0.30169	0.90004	0.25512	-0.636
Mof_O 	O 	0.29459	0.91079	0.18817	-0.576
Mof_O 	O 	0.35111	0.99576	0.30146	-0.654
Mof_O 	O 	0.33723	0.06633	0.29594	-0.557
Mof_O 	O 	0.25628	0.94975	0.35059	-0.655
Mof_O 	O 	0.18524	0.95486	0.3367	-0.557
Mof_O 	O 	0.25557	0.89982	0.30046	-0.654
Mof_O 	O 	0.18629	0.91273	0.29656	-0.55
Mof_O 	O 	0.30164	0.99581	0.35078	-0.655
Mof_O 	O 	0.29615	0.06588	0.33749	-0.554
Mof_O 	O 	0.35136	0.94981	0.25596	-0.653
Mof_O 	O 	0.33923	0.95593	0.18601	-0.581
Mof_O 	O 	0.20111	0.1013	0.24715	-0.648
Mof_O 	O 	0.2061	0.08765	0.31498	-0.568
Mof_O 	O 	0.14967	0.00316	0.20098	-0.649
Mof_O 	O 	0.16408	0.93497	0.20809	-0.595
Mof_O 	O 	0.24739	0.04991	0.14922	-0.646
Mof_O 	O 	0.31535	0.04468	0.16294	-0.569
Mof_Zr	Zr	0.27172	0.04639	0.20447	3.225
Mof_O 	O 	0.30868	0.01276	0.23845	-1.497
Mof_Zr	Zr	0.20503	0.97916	0.20411	3.225
Mof_O 	O 	0.23917	0.94249	0.23805	-1.492
Mof_Zr	Zr	0.20459	0.04605	0.27142	3.225
Mof_O 	O 	0.23861	0.01239	0.30831	-1.495
Mof_Zr	Zr	0.29727	0.95453	0.22957	3.224
Mof_O 	O 	0.26332	0.98808	0.19194	-1.281
Mof_Zr	Zr	0.29672	0.02157	0.2965	3.224
Mof_O 	O 	0.26273	0.05877	0.26265	-1.281
Mof_Zr	Zr	0.23006	0.95427	0.29626	3.224
Mof_O 	O 	0.19255	0.98789	0.26233	-1.282
Mof_O 	O 	0.21432	0.03656	0.21401	-1.543
Mof_O 	O 	0.28782	0.96371	0.28732	-1.29
Mof_C 	C 	0.21924	0.11743	0.21948	0.495
Mof_C 	C 	0.21965	0.03186	0.13309	0.49
Mof_C 	C 	0.13334	0.03054	0.21934	0.493
Mof_C 	C 	0.28376	0.88401	0.28297	0.53
Mof_C 	C 	0.367	0.96741	0.28422	0.533
Mof_C 	C 	0.28442	0.96739	0.36647	0.535
Mof_H 	H 	0.33547	0.01908	0.23256	0.285
Mof_H 	H 	0.23247	0.01835	0.33514	0.286
Mof_H 	H 	0.19797	0.05278	0.19781	0.341
Mof_H 	H 	0.23368	0.91555	0.23189	0.288
Mof_H 	H 	0.28246	0.92204	0.16529	0.184
Mof_H 	H 	0.21831	0.91566	0.1687	0.169
Mof_H 	H 	0.27406	0.06169	0.35449	0.167
Mof_H 	H 	0.23134	0.10015	0.3132	0.186
Mof_H 	H 	0.35629	0.97785	0.19076	0.174
Mof_H 	H 	0.31361	0.01937	0.15058	0.184
Mof_H 	H 	0.19037	0.97562	0.35507	0.168
Mof_H 	H 	0.15081	0.01858	0.31315	0.188
Mof_H 	H 	0.31328	0.10045	0.23165	0.187
Mof_H 	H 	0.35521	0.06155	0.27476	0.167
Mof_H 	H 	0.15027	0.93878	0.2324	0.196
Mof_H 	H 	0.18906	0.89718	0.2732	0.166
Mof_O 	O 	0.45038	0.85174	0.25413	-0.646
Mof_O 	O 	0.45603	0.83848	0.18581	-0.57
Mof_O 	O 	0.39827	0.7539	0.29898	-0.631
Mof_O 	O 	0.40831	0.68948	0.2955	-0.557
Mof_O 	O 	0.49678	0.79924	0.35154	-0.648
Mof_O 	O 	0.56465	0.79436	0.33745	-0.569
Mof_O 	O 	0.50417	0.65024	0.19919	-0.63
Mof_O 	O 	0.43714	0.66105	0.20677	-0.576
Mof_O 	O 	0.55027	0.74588	0.14976	-0.649
Mof_O 	O 	0.54533	0.81636	0.16362	-0.555
Mof_O 	O 	0.5997	0.69979	0.24506	-0.65
Mof_O 	O 	0.58609	0.70452	0.31553	-0.555
Mof_O 	O 	0.5496	0.64998	0.24532	-0.648
Mof_O 	O 	0.5451	0.66324	0.31511	-0.553
Mof_O 	O 	0.60001	0.74597	0.1997	-0.652
Mof_O 	O 	0.58687	0.81579	0.20438	-0.553
Mof_O 	O 	0.50471	0.69988	0.14966	-0.648
Mof_O 	O 	0.43494	0.7061	0.16197	-0.581
Mof_O 	O 	0.49618	0.85152	0.30008	-0.648
Mof_O 	O 	0.56431	0.83804	0.29421	-0.57
Mof_O 	O 	0.45046	0.75383	0.35121	-0.65
Mof_O 	O 	0.45762	0.68538	0.33702	-0.595
Mof_O 	O 	0.39855	0.79982	0.25315	-0.648
Mof_O 	O 	0.41252	0.79525	0.18534	-0.568
Mof_Zr	Zr	0.45384	0.79669	0.22917	3.225
Mof_O 	O 	0.48764	0.7629	0.19227	-1.498
Mof_Zr	Zr	0.45348	0.72947	0.29599	3.225
Mof_O 	O 	0.48718	0.69265	0.26186	-1.494
Mof_Zr	Zr	0.52078	0.79642	0.2962	3.225
Mof_O 	O 	0.55751	0.76252	0.2623	-1.495
Mof_Zr	Zr	0.47862	0.7047	0.20379	3.224
Mof_O 	O 	0.44119	0.73841	0.23772	-1.281
Mof_Zr	Zr	0.5457	0.77165	0.20419	3.224
Mof_O 	O 	0.512	0.80908	0.23808	-1.284
Mof_Zr	Zr	0.54536	0.7044	0.27097	3.224
Mof_O 	O 	0.51168	0.73827	0.30844	-1.282
Mof_O 	O 	0.46337	0.78683	0.28655	-1.543
Mof_O 	O 	0.53641	0.71381	0.21318	-1.289
Mof_C 	C 	0.46826	0.86753	0.28221	0.495
Mof_C 	C 	0.38243	0.78177	0.28085	0.495
Mof_C 	C 	0.46886	0.78127	0.3674	0.496
Mof_C 	C 	0.53201	0.6343	0.21714	0.505
Mof_C 	C 	0.53279	0.71764	0.134	0.507
Mof_C 	C 	0.61556	0.71764	0.21712	0.509
Mof_H 	H 	0.48171	0.7692	0.16549	0.286
Mof_H 	H 	0.58434	0.76846	0.26843	0.287
Mof_H 	H 	0.44706	0.80295	0.30288	0.342
Mof_H 	H 	0.48097	0.66572	0.26739	0.288
Mof_H 	H 	0.4143	0.67241	0.21887	0.184
Mof_H 	H 	0.41783	0.66607	0.28298	0.168
Mof_H 	H 	0.60313	0.81236	0.22716	0.166
Mof_H 	H 	0.56185	0.85101	0.26927	0.187
Mof_H 	H 	0.43965	0.72802	0.14489	0.174
Mof_H 	H 	0.40015	0.76993	0.18689	0.184
Mof_H 	H 	0.60368	0.72611	0.31116	0.167
Mof_H 	H 	0.5627	0.76911	0.34991	0.187
Mof_H 	H 	0.48109	0.85122	0.18824	0.187
Mof_H 	H 	0.52367	0.81204	0.14611	0.167
Mof_H 	H 	0.48181	0.68942	0.35099	0.197
Mof_H 	H 	0.52243	0.64688	0.31151	0.168
Mof_O 	O 	0.10068	0.70124	0.74626	-0.648
Mof_O 	O 	0.08736	0.70585	0.81414	-0.568
Mof_O 	O 	0.00216	0.64926	0.70093	-0.63
Mof_O 	O 	0.93787	0.65991	0.70431	-0.556
Mof_O 	O 	0.04855	0.74747	0.64864	-0.647
Mof_O 	O 	0.0434	0.81522	0.66234	-0.568
Mof_O 	O 	0.89963	0.75536	0.80176	-0.636
Mof_O 	O 	0.90987	0.68867	0.79396	-0.574
Mof_O 	O 	0.99624	0.8009	0.85067	-0.651
Mof_O 	O 	0.06594	0.79642	0.8365	-0.553
Mof_O 	O 	0.94931	0.851	0.75591	-0.654
Mof_O 	O 	0.95344	0.83761	0.68533	-0.554
Mof_O 	O 	0.89924	0.80086	0.75581	-0.653
Mof_O 	O 	0.91214	0.79675	0.68578	-0.552
Mof_O 	O 	0.99527	0.85077	0.80138	-0.656
Mof_O 	O 	0.06576	0.83726	0.79484	-0.557
Mof_O 	O 	0.94982	0.75576	0.85077	-0.65
Mof_O 	O 	0.95565	0.68562	0.83793	-0.582
Mof_O 	O 	0.10064	0.74734	0.7006	-0.648
Mof_O 	O 	0.08678	0.81546	0.70579	-0.57
Mof_O 	O 	0.00282	0.70147	0.64883	-0.649
Mof_O 	O 	0.9342	0.70946	0.66306	-0.595
Mof_O 	O 	0.04832	0.64917	0.74652	-0.647
Mof_O 	O 	0.04372	0.66302	0.81451	-0.569
Mof_Zr	Zr	0.04553	0.70445	0.77079	3.225
Mof_O 	O 	0.01222	0.73847	0.80785	-1.499
Mof_Zr	Zr	0.97827	0.70472	0.70405	3.225
Mof_O 	O 	0.94172	0.73846	0.73855	-1.493
Mof_Zr	Zr	0.04542	0.77168	0.70394	3.225
Mof_O 	O 	0.01177	0.80856	0.738	-1.496
Mof_Zr	Zr	0.95396	0.72971	0.79655	3.225
Mof_O 	O 	0.98721	0.69217	0.76228	-1.28
Mof_Zr	Zr	0.02119	0.79656	0.79599	3.224
Mof_O 	O 	0.05822	0.76259	0.76199	-1.282
Mof_Zr	Zr	0.95354	0.79667	0.72969	3.224
Mof_O 	O 	0.98718	0.76297	0.69191	-1.282
Mof_O 	O 	0.03572	0.71424	0.71344	-1.543
Mof_O 	O 	0.96324	0.78749	0.78734	-1.289
Mof_C 	C 	0.11665	0.71948	0.71856	0.494
Mof_C 	C 	0.02994	0.63314	0.71896	0.49
Mof_C 	C 	0.03051	0.71961	0.63272	0.492
Mof_C 	C 	0.88357	0.78336	0.78413	0.531
Mof_C 	C 	0.96798	0.78357	0.86647	0.512
Mof_C 	C 	0.96695	0.86667	0.78417	0.534
Mof_H 	H 	0.01863	0.73245	0.83459	0.286
Mof_H 	H 	0.01777	0.83539	0.73193	0.286
Mof_H 	H 	0.0519	0.69789	0.6972	0.341
Mof_H 	H 	0.91474	0.73239	0.73316	0.288
Mof_H 	H 	0.92075	0.66594	0.78123	0.183
Mof_H 	H 	0.91464	0.66949	0.71709	0.168
Mof_H 	H 	0.06059	0.85527	0.77377	0.168
Mof_H 	H 	0.09969	0.81322	0.73079	0.188
Mof_H 	H 	0.97716	0.69064	0.85544	0.176
Mof_H 	H 	0.01851	0.65048	0.81261	0.185
Mof_H 	H 	0.97534	0.85489	0.68943	0.167
Mof_H 	H 	0.01794	0.81354	0.65028	0.185
Mof_H 	H 	0.09995	0.73104	0.81227	0.186
Mof_H 	H 	0.0625	0.77391	0.85312	0.165
Mof_H 	H 	0.93859	0.73356	0.64904	0.197
Mof_H 	H 	0.89583	0.77402	0.68928	0.168
Mof_O 	O 	0.0045	0.10116	0.04961	-0.647
Mof_O 	O 	0.93665	0.08791	0.04446	-0.568
Mof_O 	O 	0.0499	0.00261	0.10126	-0.631
Mof_O 	O 	0.04728	0.93861	0.09058	-0.556
Mof_O 	O 	0.10201	0.04969	0.00309	-0.645
Mof_O 	O 	0.08825	0.04442	0.93523	-0.569
Mof_O 	O 	0.94963	0.89993	0.99519	-0.636
Mof_O 	O 	0.9574	0.91028	0.06198	-0.575
Mof_O 	O 	0.90011	0.99576	0.94954	-0.651
Mof_O 	O 	0.91352	0.06513	0.95305	-0.551
Mof_O 	O 	0.99578	0.94899	0.89968	-0.652
Mof_O 	O 	0.0656	0.95362	0.91267	-0.553
Mof_O 	O 	0.99554	0.89978	0.94963	-0.654
Mof_O 	O 	0.06626	0.9134	0.95501	-0.557
Mof_O 	O 	0.95011	0.99475	0.89953	-0.655
Mof_O 	O 	0.95599	0.06584	0.91322	-0.558
Mof_O 	O 	0.90019	0.9497	0.99494	-0.652
Mof_O 	O 	0.91313	0.95577	0.06491	-0.582
Mof_O 	O 	0.05005	0.10138	0.00342	-0.647
Mof_O 	O 	0.04442	0.08765	0.93514	-0.571
Mof_O 	O 	0.10204	0.00401	0.04913	-0.648
Mof_O 	O 	0.08806	0.93501	0.04077	-0.596
Mof_O 	O 	0.00408	0.04854	0.10135	-0.647
Mof_O 	O 	0.93593	0.04398	0.08714	-0.57
Mof_Zr	Zr	0.97989	0.04597	0.04598	3.225
Mof_O 	O 	0.943	0.01242	0.01191	-1.497
Mof_Zr	Zr	0.04699	0.97899	0.04576	3.225
Mof_O 	O 	0.01261	0.94221	0.01218	-1.493
Mof_Zr	Zr	0.0467	0.04621	0.97883	3.225
Mof_O 	O 	0.01292	0.01217	0.94198	-1.495
Mof_Zr	Zr	0.95453	0.95424	0.02084	3.225
Mof_O 	O 	0.98869	0.98769	0.05829	-1.279
Mof_Zr	Zr	0.9548	0.02111	0.95375	3.224
Mof_O 	O 	0.98851	0.05852	0.98777	-1.281
Mof_Zr	Zr	0.02163	0.95403	0.95402	3.224
Mof_O 	O 	0.05917	0.98805	0.98756	-1.283
Mof_O 	O 	0.03726	0.03639	0.03625	-1.544
Mof_O 	O 	0.96384	0.96333	0.96304	-1.289
Mof_C 	C 	0.03225	0.11724	0.03149	0.494
Mof_C 	C 	0.0317	0.03023	0.1174	0.491
Mof_C 	C 	0.118	0.03182	0.03102	0.493
Mof_C 	C 	0.96724	0.88406	0.96708	0.532
Mof_C 	C 	0.88424	0.96752	0.967	0.529
Mof_C 	C 	0.9675	0.96637	0.88384	0.533
Mof_H 	H 	0.91622	0.0187	0.01788	0.286
Mof_H 	H 	0.019	0.01813	0.91513	0.285
Mof_H 	H 	0.05341	0.05256	0.05268	0.342
Mof_H 	H 	0.01811	0.91526	0.0183	0.288
Mof_H 	H 	0.97007	0.9213	0.08468	0.183
Mof_H 	H 	0.03423	0.91544	0.08121	0.167
Mof_H 	H 	0.97668	0.06041	0.89485	0.169
Mof_H 	H 	0.01942	0.10051	0.93761	0.189
Mof_H 	H 	0.89566	0.97734	0.05998	0.176
Mof_H 	H 	0.93806	0.0189	0.09991	0.186
Mof_H 	H 	0.06228	0.97632	0.89629	0.165
Mof_H 	H 	0.10059	0.0191	0.93702	0.184
Mof_H 	H 	0.9385	0.10035	0.0192	0.184
Mof_H 	H 	0.89816	0.06289	0.97658	0.164
Mof_H 	H 	0.10258	0.93996	0.01707	0.2
Mof_H 	H 	0.06137	0.89566	0.97637	0.17
Mof_O 	O 	0.10035	0.54984	0.50294	-0.647
Mof_O 	O 	0.08661	0.54511	0.43511	-0.568
Mof_O 	O 	0.00231	0.60176	0.54897	-0.63
Mof_O 	O 	0.93787	0.5914	0.54517	-0.557
Mof_O 	O 	0.04832	0.50368	0.60116	-0.647
Mof_O 	O 	0.04362	0.4359	0.58733	-0.568
Mof_O 	O 	0.89933	0.49502	0.44837	-0.636
Mof_O 	O 	0.90925	0.5619	0.45588	-0.576
Mof_O 	O 	0.99474	0.44902	0.39963	-0.654
Mof_O 	O 	0.06536	0.45518	0.41306	-0.557
Mof_O 	O 	0.94952	0.39991	0.49484	-0.649
Mof_O 	O 	0.95363	0.41379	0.56521	-0.554
Mof_O 	O 	0.89929	0.44956	0.49438	-0.653
Mof_O 	O 	0.91207	0.45453	0.56446	-0.553
Mof_O 	O 	0.99575	0.39983	0.44952	-0.651
Mof_O 	O 	0.06554	0.41385	0.45427	-0.554
Mof_O 	O 	0.94866	0.49438	0.39937	-0.653
Mof_O 	O 	0.9552	0.56497	0.4118	-0.585
Mof_O 	O 	0.10048	0.50405	0.54891	-0.649
Mof_O 	O 	0.08695	0.43598	0.54403	-0.569
Mof_O 	O 	0.00245	0.54954	0.60101	-0.648
Mof_O 	O 	0.93391	0.54193	0.58662	-0.595
Mof_O 	O 	0.04822	0.60178	0.50312	-0.646
Mof_O 	O 	0.04292	0.58806	0.43509	-0.569
Mof_Zr	Zr	0.04508	0.54656	0.47873	3.225
Mof_O 	O 	0.01168	0.51239	0.44179	-1.498
Mof_Zr	Zr	0.97808	0.54643	0.54571	3.225
Mof_O 	O 	0.94147	0.51252	0.51144	-1.492
Mof_Zr	Zr	0.04535	0.47954	0.54581	3.225
Mof_O 	O 	0.0117	0.44259	0.51195	-1.495
Mof_Zr	Zr	0.95347	0.52102	0.45333	3.225
Mof_O 	O 	0.98676	0.55875	0.48739	-1.28
Mof_Zr	Zr	0.02084	0.4544	0.45384	3.224
Mof_O 	O 	0.05791	0.48847	0.48768	-1.282
Mof_Zr	Zr	0.95349	0.4544	0.52055	3.224
Mof_O 	O 	0.98716	0.48826	0.55807	-1.282
Mof_O 	O 	0.03551	0.53691	0.53618	-1.543
Mof_O 	O 	0.96296	0.46335	0.46282	-1.29
Mof_C 	C 	0.1164	0.53179	0.53071	0.495
Mof_C 	C 	0.03014	0.61777	0.53092	0.489
Mof_C 	C 	0.03008	0.53136	0.61718	0.492
Mof_C 	C 	0.88356	0.46684	0.46597	0.531
Mof_C 	C 	0.96625	0.46607	0.38381	0.532
Mof_C 	C 	0.96756	0.38409	0.46699	0.51
Mof_H 	H 	0.01791	0.51831	0.41498	0.285
Mof_H 	H 	0.01782	0.4158	0.51813	0.286
Mof_H 	H 	0.05172	0.55318	0.55246	0.342
Mof_H 	H 	0.91448	0.51855	0.51687	0.287
Mof_H 	H 	0.92014	0.58479	0.46831	0.184
Mof_H 	H 	0.91459	0.5818	0.53249	0.168
Mof_H 	H 	0.06184	0.39714	0.47667	0.166
Mof_H 	H 	0.09986	0.43828	0.51904	0.187
Mof_H 	H 	0.97586	0.55919	0.39351	0.176
Mof_H 	H 	0.01764	0.60043	0.43707	0.186
Mof_H 	H 	0.97564	0.39663	0.56123	0.167
Mof_H 	H 	0.01832	0.43767	0.59971	0.186
Mof_H 	H 	0.09892	0.51976	0.43667	0.186
Mof_H 	H 	0.06024	0.47617	0.39494	0.166
Mof_H 	H 	0.93807	0.51774	0.60054	0.198
Mof_H 	H 	0.89535	0.47689	0.5605	0.167
Mof_O 	O 	0.60142	0.0491	0.50422	-0.646
Mof_O 	O 	0.58803	0.04369	0.43596	-0.57
Mof_O 	O 	0.50358	0.1012	0.54933	-0.631
Mof_O 	O 	0.43933	0.09107	0.54702	-0.556
Mof_O 	O 	0.54986	0.00257	0.60153	-0.647
Mof_O 	O 	0.54398	0.93475	0.58745	-0.57
Mof_O 	O 	0.39995	0.99564	0.44873	-0.635
Mof_O 	O 	0.41042	0.06257	0.45731	-0.577
Mof_O 	O 	0.49472	0.9496	0.39978	-0.654
Mof_O 	O 	0.56564	0.95474	0.41346	-0.556
Mof_O 	O 	0.44968	0.89979	0.49574	-0.649
Mof_O 	O 	0.45285	0.91314	0.56503	-0.55
Mof_O 	O 	0.39968	0.94992	0.49447	-0.653
Mof_O 	O 	0.41299	0.9556	0.56544	-0.557
Mof_O 	O 	0.49556	0.89961	0.45006	-0.651
Mof_O 	O 	0.5649	0.91269	0.45362	-0.55
Mof_O 	O 	0.44906	0.99538	0.39985	-0.654
Mof_O 	O 	0.45619	0.06556	0.41286	-0.585
Mof_O 	O 	0.60131	0.00303	0.54991	-0.647
Mof_O 	O 	0.58747	0.9348	0.54368	-0.572
Mof_O 	O 	0.5044	0.04884	0.60163	-0.648
Mof_O 	O 	0.43534	0.04132	0.58762	-0.596
Mof_O 	O 	0.54946	0.10104	0.50344	-0.648
Mof_O 	O 	0.54482	0.0872	0.43564	-0.568
Mof_Zr	Zr	0.54629	0.04578	0.47937	3.225
Mof_O 	O 	0.51237	0.01219	0.44236	-1.498
Mof_Zr	Zr	0.47934	0.04591	0.54653	3.225
Mof_O 	O 	0.44226	0.01262	0.51213	-1.493
Mof_Zr	Zr	0.54615	0.9786	0.54618	3.226
Mof_O 	O 	0.51198	0.9422	0.51224	-1.493
Mof_Zr	Zr	0.45425	0.02131	0.45406	3.224
Mof_O 	O 	0.48806	0.05845	0.48824	-1.279
Mof_Zr	Zr	0.52099	0.95408	0.4541	3.224
Mof_O 	O 	0.55861	0.98755	0.48803	-1.282
Mof_Zr	Zr	0.45384	0.9544	0.521	3.224
Mof_O 	O 	0.48804	0.98765	0.55864	-1.283
Mof_O 	O 	0.53663	0.03605	0.53675	-1.545
Mof_O 	O 	0.46321	0.96348	0.46324	-1.29
Mof_C 	C 	0.61726	0.03106	0.53217	0.493
Mof_C 	C 	0.53137	0.11712	0.53114	0.493
Mof_C 	C 	0.53212	0.03052	0.61759	0.493
Mof_C 	C 	0.38404	0.96739	0.46609	0.532
Mof_C 	C 	0.46643	0.96711	0.38403	0.533
Mof_C 	C 	0.46756	0.88389	0.46786	0.509
Mof_H 	H 	0.51861	0.01819	0.41557	0.286
Mof_H 	H 	0.51789	0.91534	0.51831	0.287
Mof_H 	H 	0.55282	0.05237	0.55298	0.343
Mof_H 	H 	0.41534	0.01885	0.51765	0.288
Mof_H 	H 	0.42166	0.0853	0.46971	0.183
Mof_H 	H 	0.41613	0.08195	0.53385	0.167
Mof_H 	H 	0.56245	0.8973	0.47711	0.166
Mof_H 	H 	0.60082	0.93777	0.51899	0.187
Mof_H 	H 	0.47701	0.05994	0.39471	0.175
Mof_H 	H 	0.51955	0.09965	0.43731	0.185
Mof_H 	H 	0.4763	0.89766	0.56279	0.165
Mof_H 	H 	0.51904	0.93722	0.60043	0.185
Mof_H 	H 	0.60057	0.0185	0.43812	0.187
Mof_H 	H 	0.56073	0.97586	0.39545	0.168
Mof_H 	H 	0.43985	0.01736	0.60183	0.199
Mof_H 	H 	0.39506	0.97671	0.5602	0.17
Mof_O 	O 	0.50347	0.60101	0.0492	-0.645
Mof_O 	O 	0.43531	0.58746	0.04398	-0.57
Mof_O 	O 	0.54895	0.50312	0.10113	-0.631
Mof_O 	O 	0.54598	0.43882	0.09095	-0.556
Mof_O 	O 	0.60105	0.54929	0.00266	-0.646
Mof_O 	O 	0.58704	0.54401	0.93488	-0.569
Mof_O 	O 	0.44873	0.3996	0.99492	-0.635
Mof_O 	O 	0.45652	0.40993	0.06198	-0.576
Mof_O 	O 	0.39941	0.49505	0.94916	-0.653
Mof_O 	O 	0.41282	0.56532	0.95413	-0.555
Mof_O 	O 	0.49487	0.44922	0.89982	-0.651
Mof_O 	O 	0.56509	0.45379	0.91323	-0.555
Mof_O 	O 	0.49461	0.3996	0.94934	-0.653
Mof_O 	O 	0.56493	0.41275	0.95473	-0.555
Mof_O 	O 	0.44921	0.49509	0.89972	-0.652
Mof_O 	O 	0.4542	0.56538	0.91306	-0.555
Mof_O 	O 	0.39929	0.4492	0.99476	-0.653
Mof_O 	O 	0.41205	0.45531	0.06483	-0.582
Mof_O 	O 	0.54921	0.60105	0.00318	-0.647
Mof_O 	O 	0.54341	0.58738	0.93501	-0.571
Mof_O 	O 	0.60107	0.50369	0.04879	-0.648
Mof_O 	O 	0.58697	0.43485	0.04132	-0.596
Mof_O 	O 	0.50304	0.54897	0.10107	-0.647
Mof_O 	O 	0.43514	0.54404	0.08731	-0.568
Mof_Zr	Zr	0.47882	0.54582	0.04584	3.225
Mof_O 	O 	0.44191	0.51209	0.01199	-1.498
Mof_Zr	Zr	0.54592	0.47889	0.04585	3.225
Mof_O 	O 	0.51166	0.44198	0.01227	-1.493
Mof_Zr	Zr	0.5457	0.54592	0.97868	3.225
Mof_O 	O 	0.51186	0.51193	0.942	-1.494
Mof_Zr	Zr	0.45355	0.4539	0.02084	3.224
Mof_O 	O 	0.4876	0.48754	0.05827	-1.28
Mof_Zr	Zr	0.45376	0.52095	0.95393	3.224
Mof_O 	O 	0.48756	0.55838	0.98768	-1.283
Mof_Zr	Zr	0.52069	0.45381	0.95412	3.224
Mof_O 	O 	0.55818	0.48781	0.98765	-1.283
Mof_O 	O 	0.53622	0.53623	0.03611	-1.544
Mof_O 	O 	0.46291	0.46315	0.96314	-1.29
Mof_C 	C 	0.53134	0.61695	0.03115	0.492
Mof_C 	C 	0.53082	0.53092	0.11708	0.492
Mof_C 	C 	0.61708	0.53135	0.03051	0.493
Mof_C 	C 	0.4663	0.38381	0.96671	0.53
Mof_C 	C 	0.38355	0.46677	0.96654	0.531
Mof_C 	C 	0.46671	0.46683	0.88414	0.512
Mof_H 	H 	0.41511	0.51831	0.01796	0.286
Mof_H 	H 	0.51794	0.5179	0.91516	0.287
Mof_H 	H 	0.55248	0.55242	0.0524	0.343
Mof_H 	H 	0.51719	0.41504	0.01841	0.288
Mof_H 	H 	0.46897	0.42104	0.08476	0.183
Mof_H 	H 	0.53311	0.41553	0.0816	0.167
Mof_H 	H 	0.47617	0.56118	0.89591	0.167
Mof_H 	H 	0.51846	0.60033	0.93756	0.188
Mof_H 	H 	0.39454	0.47683	0.05987	0.175
Mof_H 	H 	0.43695	0.51875	0.09971	0.185
Mof_H 	H 	0.56113	0.47585	0.89613	0.166
Mof_H 	H 	0.59959	0.51881	0.93685	0.186
Mof_H 	H 	0.43736	0.60004	0.0188	0.186
Mof_H 	H 	0.39568	0.56123	0.97614	0.166
Mof_H 	H 	0.60107	0.43922	0.01726	0.198
Mof_H 	H 	0.56049	0.39555	0.97662	0.168
Mof_O 	O 	0.80033	0.35084	0.49593	-0.647
Mof_O 	O 	0.79519	0.33744	0.56385	-0.568
Mof_O 	O 	0.85196	0.25273	0.45025	-0.631
Mof_O 	O 	0.84169	0.1884	0.45364	-0.557
Mof_O 	O 	0.75412	0.29916	0.39826	-0.647
Mof_O 	O 	0.68624	0.29395	0.41181	-0.569
Mof_O 	O 	0.74597	0.14982	0.55127	-0.63
Mof_O 	O 	0.81276	0.1599	0.54294	-0.576
Mof_O 	O 	0.70024	0.24547	0.59986	-0.65
Mof_O 	O 	0.70477	0.31554	0.58618	-0.553
Mof_O 	O 	0.65029	0.19959	0.50407	-0.648
Mof_O 	O 	0.6637	0.20273	0.43472	-0.551
Mof_O 	O 	0.70031	0.14957	0.50536	-0.648
Mof_O 	O 	0.70606	0.1628	0.43434	-0.557
Mof_O 	O 	0.65028	0.24547	0.54972	-0.651
Mof_O 	O 	0.66394	0.31555	0.54483	-0.554
Mof_O 	O 	0.74595	0.19961	0.60008	-0.65
Mof_O 	O 	0.81594	0.20569	0.58713	-0.583
Mof_O 	O 	0.75436	0.35093	0.45015	-0.648
Mof_O 	O 	0.68599	0.33718	0.45556	-0.571
Mof_O 	O 	0.80005	0.25335	0.39838	-0.649
Mof_O 	O 	0.79195	0.18452	0.41245	-0.596
Mof_O 	O 	0.85196	0.29872	0.49603	-0.648
Mof_O 	O 	0.83817	0.29371	0.56421	-0.57
Mof_Zr	Zr	0.7968	0.29569	0.52044	3.225
Mof_O 	O 	0.7628	0.26219	0.55733	-1.498
Mof_Zr	Zr	0.79669	0.22858	0.45346	3.225
Mof_O 	O 	0.76308	0.19182	0.48782	-1.494
Mof_Zr	Zr	0.72974	0.29579	0.45347	3.225
Mof_O 	O 	0.69296	0.26187	0.48728	-1.494
Mof_Zr	Zr	0.77176	0.20401	0.54584	3.225
Mof_O 	O 	0.80924	0.23742	0.51172	-1.281
Mof_Zr	Zr	0.70473	0.27105	0.54537	3.224
Mof_O 	O 	0.73866	0.30835	0.51159	-1.283
Mof_Zr	Zr	0.70493	0.20365	0.47877	3.224
Mof_O 	O 	0.73849	0.23759	0.44118	-1.282
Mof_O 	O 	0.78707	0.28597	0.46309	-1.544
Mof_O 	O 	0.71396	0.21319	0.53651	-1.289
Mof_C 	C 	0.78233	0.36681	0.46807	0.495
Mof_C 	C 	0.86788	0.28064	0.46822	0.493
Mof_C 	C 	0.78206	0.2812	0.3824	0.493
Mof_C 	C 	0.71783	0.13401	0.53371	0.507
Mof_C 	C 	0.71787	0.21739	0.61571	0.509
Mof_C 	C 	0.63447	0.21744	0.53201	0.508
Mof_H 	H 	0.76877	0.26852	0.58411	0.286
Mof_H 	H 	0.66614	0.26787	0.48111	0.287
Mof_H 	H 	0.80339	0.30219	0.44688	0.343
Mof_H 	H 	0.7692	0.16486	0.4824	0.288
Mof_H 	H 	0.83555	0.17089	0.53041	0.183
Mof_H 	H 	0.83217	0.16504	0.46624	0.168
Mof_H 	H 	0.64709	0.31159	0.52258	0.167
Mof_H 	H 	0.68863	0.35036	0.48038	0.187
Mof_H 	H 	0.811	0.22726	0.60459	0.175
Mof_H 	H 	0.85106	0.26871	0.56191	0.186
Mof_H 	H 	0.64831	0.22625	0.43688	0.164
Mof_H 	H 	0.68832	0.26878	0.39922	0.184
Mof_H 	H 	0.76995	0.34994	0.56196	0.185
Mof_H 	H 	0.72704	0.31182	0.60306	0.166
Mof_H 	H 	0.76805	0.18914	0.39817	0.199
Mof_H 	H 	0.72708	0.14477	0.43964	0.17
Mof_O 	O 	0.85206	0.75446	0.95102	-0.648
Mof_O 	O 	0.83832	0.68628	0.95561	-0.57
Mof_O 	O 	0.75468	0.80015	0.89822	-0.635
Mof_O 	O 	0.69018	0.79707	0.90805	-0.556
Mof_O 	O 	0.80017	0.85203	0.99712	-0.647
Mof_O 	O 	0.79425	0.83791	0.06491	-0.57
Mof_O 	O 	0.65047	0.69962	0.00401	-0.629
Mof_O 	O 	0.66091	0.70808	0.93689	-0.577
Mof_O 	O 	0.74581	0.65013	0.04943	-0.648
Mof_O 	O 	0.81585	0.66375	0.04556	-0.553
Mof_O 	O 	0.69964	0.74589	0.09942	-0.65
Mof_O 	O 	0.7044	0.81623	0.08575	-0.555
Mof_O 	O 	0.65012	0.74575	0.04944	-0.649
Mof_O 	O 	0.66317	0.81574	0.04458	-0.554
Mof_O 	O 	0.74537	0.70007	0.0996	-0.652
Mof_O 	O 	0.81566	0.70491	0.08655	-0.554
Mof_O 	O 	0.70011	0.65018	0.00357	-0.647
Mof_O 	O 	0.70611	0.66329	0.93404	-0.581
Mof_O 	O 	0.85182	0.8002	0.99703	-0.649
Mof_O 	O 	0.83775	0.79435	0.06496	-0.57
Mof_O 	O 	0.75483	0.85214	0.95074	-0.649
Mof_O 	O 	0.68603	0.83818	0.9576	-0.595
Mof_O 	O 	0.80069	0.75451	0.8986	-0.652
Mof_O 	O 	0.79525	0.68651	0.91196	-0.568
Mof_Zr	Zr	0.79684	0.72995	0.95369	3.225
Mof_O 	O 	0.7629	0.69302	0.98728	-1.498
Mof_Zr	Zr	0.72999	0.79702	0.95338	3.225
Mof_O 	O 	0.69289	0.76278	0.98678	-1.492
Mof_Zr	Zr	0.79655	0.79666	0.02104	3.225
Mof_O 	O 	0.76241	0.76273	0.05747	-1.496
Mof_Zr	Zr	0.70476	0.70468	0.97812	3.224
Mof_O 	O 	0.73865	0.73873	0.94089	-1.281
Mof_Zr	Zr	0.77145	0.70466	0.04544	3.224
Mof_O 	O 	0.80906	0.73854	0.01196	-1.283
Mof_Zr	Zr	0.7044	0.77165	0.04505	3.224
Mof_O 	O 	0.73852	0.80917	0.01168	-1.283
Mof_O 	O 	0.78724	0.78731	0.96352	-1.544
Mof_O 	O 	0.71369	0.71385	0.03597	-1.289
Mof_C 	C 	0.86788	0.78231	0.96919	0.497
Mof_C 	C 	0.78282	0.78233	0.88238	0.516
Mof_C 	C 	0.78242	0.86809	0.96918	0.496
Mof_C 	C 	0.63459	0.7174	0.03201	0.506
Mof_C 	C 	0.71781	0.63433	0.0316	0.505
Mof_C 	C 	0.71722	0.71775	0.11521	0.509
Mof_H 	H 	0.76919	0.66625	0.98124	0.286
Mof_H 	H 	0.76826	0.76876	0.08435	0.287
Mof_H 	H 	0.80358	0.80358	0.94738	0.342
Mof_H 	H 	0.66598	0.76835	0.98052	0.287
Mof_H 	H 	0.6722	0.72033	0.91409	0.184
Mof_H 	H 	0.66674	0.78445	0.91735	0.168
Mof_H 	H 	0.81147	0.72692	0.10365	0.167
Mof_H 	H 	0.85062	0.76935	0.06254	0.187
Mof_H 	H 	0.72843	0.6466	0.93821	0.174
Mof_H 	H 	0.77018	0.68865	0.89916	0.184
Mof_H 	H 	0.72614	0.81203	0.1032	0.167
Mof_H 	H 	0.76921	0.85071	0.06254	0.187
Mof_H 	H 	0.85091	0.68832	0.98079	0.186
Mof_H 	H 	0.81237	0.64712	0.02306	0.166
Mof_H 	H 	0.69009	0.85206	0.98184	0.197
Mof_H 	H 	0.64664	0.81189	0.02207	0.167
Mof_O 	O 	0.10246	0.19994	0.24619	-0.652
Mof_O 	O 	0.08866	0.20489	0.31399	-0.568
Mof_O 	O 	0.00405	0.14796	0.20049	-0.632
Mof_O 	O 	0.93992	0.15873	0.20263	-0.555
Mof_O 	O 	0.05129	0.24593	0.14819	-0.652
Mof_O 	O 	0.04583	0.31389	0.1618	-0.569
Mof_O 	O 	0.90106	0.25436	0.30003	-0.63
Mof_O 	O 	0.91121	0.18738	0.29202	-0.576
Mof_O 	O 	0.99675	0.29959	0.34978	-0.649
Mof_O 	O 	0.06688	0.29515	0.33612	-0.555
Mof_O 	O 	0.95051	0.34948	0.25463	-0.649
Mof_O 	O 	0.95597	0.33638	0.18398	-0.557
Mof_O 	O 	0.90101	0.29976	0.25386	-0.647
Mof_O 	O 	0.9146	0.29519	0.18384	-0.554
Mof_O 	O 	0.99617	0.34943	0.3005	-0.65
Mof_O 	O 	0.06673	0.33632	0.29477	-0.556
Mof_O 	O 	0.95047	0.2543	0.34948	-0.648
Mof_O 	O 	0.95647	0.18435	0.33666	-0.582
Mof_O 	O 	0.10273	0.24593	0.20053	-0.654
Mof_O 	O 	0.08898	0.31406	0.20554	-0.57
Mof_O 	O 	0.00553	0.20008	0.14801	-0.655
Mof_O 	O 	0.9367	0.20823	0.1616	-0.595
Mof_O 	O 	0.04989	0.14796	0.2464	-0.648
Mof_O 	O 	0.0451	0.16202	0.31422	-0.568
Mof_Zr	Zr	0.04711	0.20331	0.27038	3.225
Mof_O 	O 	0.01339	0.23726	0.30713	-1.498
Mof_Zr	Zr	0.98039	0.20347	0.20299	3.225
Mof_O 	O 	0.94351	0.23717	0.23713	-1.492
Mof_Zr	Zr	0.04755	0.27036	0.20342	3.225
Mof_O 	O 	0.01359	0.30726	0.23719	-1.495
Mof_Zr	Zr	0.95525	0.22842	0.29525	3.225
Mof_O 	O 	0.98887	0.19096	0.26132	-1.28
Mof_Zr	Zr	0.0224	0.29534	0.29532	3.224
Mof_O 	O 	0.0598	0.26144	0.26162	-1.283
Mof_Zr	Zr	0.95547	0.29535	0.22825	3.224
Mof_O 	O 	0.98945	0.26166	0.19081	-1.283
Mof_O 	O 	0.03776	0.21294	0.21292	-1.543
Mof_O 	O 	0.96462	0.28616	0.28601	-1.29
Mof_C 	C 	0.11867	0.21797	0.21845	0.518
Mof_C 	C 	0.03161	0.13186	0.21883	0.493
Mof_C 	C 	0.03351	0.21798	0.13206	0.518
Mof_C 	C 	0.88532	0.28235	0.28216	0.507
Mof_C 	C 	0.96839	0.28217	0.36535	0.508
Mof_C 	C 	0.96785	0.36504	0.28307	0.51
Mof_H 	H 	0.01955	0.23125	0.33393	0.286
Mof_H 	H 	0.01963	0.33409	0.23117	0.285
Mof_H 	H 	0.05403	0.1965	0.19687	0.341
Mof_H 	H 	0.91658	0.2311	0.2315	0.288
Mof_H 	H 	0.92231	0.16459	0.2796	0.184
Mof_H 	H 	0.91666	0.1682	0.21545	0.168
Mof_H 	H 	0.06191	0.35409	0.27341	0.167
Mof_H 	H 	0.10144	0.31203	0.23078	0.187
Mof_H 	H 	0.97797	0.18922	0.35422	0.176
Mof_H 	H 	0.01986	0.14953	0.31227	0.185
Mof_H 	H 	0.97754	0.35392	0.18863	0.167
Mof_H 	H 	0.02054	0.31208	0.14941	0.186
Mof_H 	H 	0.10124	0.23009	0.31212	0.186
Mof_H 	H 	0.06306	0.27289	0.35299	0.166
Mof_H 	H 	0.94137	0.2322	0.14744	0.198
Mof_H 	H 	0.89797	0.27272	0.18751	0.168
Mof_O 	O 	0.75435	0.95131	0.85176	-0.646
Mof_O 	O 	0.68609	0.95592	0.83802	-0.57
Mof_O 	O 	0.79979	0.89859	0.75374	-0.631
Mof_O 	O 	0.79648	0.90865	0.68938	-0.557
Mof_O 	O 	0.85176	0.99659	0.80001	-0.646
Mof_O 	O 	0.83815	0.06475	0.79357	-0.572
Mof_O 	O 	0.69919	0.00468	0.65009	-0.634
Mof_O 	O 	0.70752	0.93749	0.66052	-0.576
Mof_O 	O 	0.64995	0.05018	0.7454	-0.653
Mof_O 	O 	0.66377	0.04554	0.81583	-0.555
Mof_O 	O 	0.74595	0.09999	0.69975	-0.65
Mof_O 	O 	0.81577	0.08635	0.70367	-0.553
Mof_O 	O 	0.74502	0.05031	0.65	-0.653
Mof_O 	O 	0.81553	0.04461	0.66295	-0.556
Mof_O 	O 	0.70008	0.1001	0.74543	-0.651
Mof_O 	O 	0.70453	0.08698	0.81538	-0.553
Mof_O 	O 	0.64984	0.00442	0.6997	-0.652
Mof_O 	O 	0.66281	0.93469	0.70578	-0.581
Mof_O 	O 	0.80005	0.99736	0.85153	-0.648
Mof_O 	O 	0.79463	0.06518	0.83728	-0.571
Mof_O 	O 	0.85166	0.95045	0.75443	-0.648
Mof_O 	O 	0.83781	0.95835	0.68547	-0.596
Mof_O 	O 	0.75416	0.8988	0.79987	-0.647
Mof_O 	O 	0.68623	0.91231	0.79502	-0.568
Mof_Zr	Zr	0.7297	0.95401	0.79648	3.225
Mof_O 	O 	0.69271	0.9877	0.7626	-1.496
Mof_Zr	Zr	0.79664	0.9538	0.7294	3.225
Mof_O 	O 	0.76235	0.9873	0.69242	-1.492
Mof_Zr	Zr	0.79661	0.02117	0.79617	3.225
Mof_O 	O 	0.76259	0.0577	0.76219	-1.494
Mof_Zr	Zr	0.70425	0.97872	0.70439	3.224
Mof_O 	O 	0.73834	0.94141	0.73819	-1.279
Mof_Zr	Zr	0.70446	0.04581	0.77124	3.224
Mof_O 	O 	0.73844	0.01225	0.80873	-1.282
Mof_Zr	Zr	0.77136	0.04548	0.70409	3.224
Mof_O 	O 	0.80896	0.01202	0.73808	-1.285
Mof_O 	O 	0.78701	0.96373	0.78674	-1.545
Mof_O 	O 	0.71355	0.0365	0.71345	-1.29
Mof_C 	C 	0.78215	0.96957	0.86765	0.494
Mof_C 	C 	0.78189	0.88274	0.78174	0.494
Mof_C 	C 	0.86761	0.96848	0.7823	0.496
Mof_C 	C 	0.71666	0.03295	0.63427	0.529
Mof_C 	C 	0.634	0.03259	0.71728	0.528
Mof_C 	C 	0.71785	0.11577	0.71738	0.51
Mof_H 	H 	0.66593	0.98171	0.76888	0.286
Mof_H 	H 	0.76867	0.08456	0.7681	0.287
Mof_H 	H 	0.80312	0.94749	0.80312	0.343
Mof_H 	H 	0.76784	0.98112	0.66548	0.288
Mof_H 	H 	0.71987	0.91473	0.67176	0.184
Mof_H 	H 	0.78407	0.91815	0.66591	0.168
Mof_H 	H 	0.72702	0.10357	0.8117	0.166
Mof_H 	H 	0.76959	0.063	0.85012	0.186
Mof_H 	H 	0.64584	0.93916	0.72783	0.174
Mof_H 	H 	0.68796	0.89989	0.76974	0.184
Mof_H 	H 	0.81265	0.1027	0.72642	0.166
Mof_H 	H 	0.85124	0.06188	0.76874	0.187
Mof_H 	H 	0.68809	0.98114	0.85052	0.187
Mof_H 	H 	0.64638	0.02375	0.81161	0.167
Mof_H 	H 	0.85202	0.98232	0.68998	0.198
Mof_H 	H 	0.81083	0.02288	0.64562	0.169
Mof_O 	O 	0.74641	0.60126	0.2	-0.647
Mof_O 	O 	0.81442	0.58775	0.20504	-0.569
Mof_O 	O 	0.70081	0.50337	0.14798	-0.631
Mof_O 	O 	0.70396	0.439	0.15819	-0.556
Mof_O 	O 	0.64865	0.54939	0.24638	-0.647
Mof_O 	O 	0.66257	0.54422	0.31414	-0.569
Mof_O 	O 	0.80112	0.39996	0.25379	-0.63
Mof_O 	O 	0.7934	0.41041	0.18698	-0.576
Mof_O 	O 	0.85014	0.49519	0.30017	-0.65
Mof_O 	O 	0.83674	0.56579	0.29478	-0.556
Mof_O 	O 	0.75507	0.44955	0.34944	-0.649
Mof_O 	O 	0.68477	0.45394	0.336	-0.554
Mof_O 	O 	0.75524	0.3998	0.29948	-0.647
Mof_O 	O 	0.68496	0.41293	0.29462	-0.554
Mof_O 	O 	0.80046	0.4957	0.34961	-0.651
Mof_O 	O 	0.79563	0.56571	0.33614	-0.554
Mof_O 	O 	0.85019	0.4491	0.25472	-0.649
Mof_O 	O 	0.83773	0.45623	0.18425	-0.585
Mof_O 	O 	0.70059	0.60126	0.24594	-0.648
Mof_O 	O 	0.70613	0.58757	0.3141	-0.571
Mof_O 	O 	0.6487	0.50376	0.20028	-0.649
Mof_O 	O 	0.66285	0.43503	0.20771	-0.595
Mof_O 	O 	0.74666	0.54928	0.14804	-0.647
Mof_O 	O 	0.81465	0.54423	0.16187	-0.569
Mof_Zr	Zr	0.77092	0.54609	0.20328	3.225
Mof_O 	O 	0.80786	0.51244	0.23719	-1.497
Mof_Zr	Zr	0.70387	0.4791	0.20326	3.225
Mof_O 	O 	0.73814	0.44228	0.23688	-1.492
Mof_Zr	Zr	0.70399	0.54612	0.27042	3.225
Mof_O 	O 	0.73784	0.5122	0.30715	-1.495
Mof_Zr	Zr	0.79623	0.45429	0.22823	3.224
Mof_O 	O 	0.76215	0.48783	0.19079	-1.281
Mof_Zr	Zr	0.79593	0.5213	0.29526	3.224
Mof_O 	O 	0.76211	0.55865	0.26145	-1.283
Mof_Zr	Zr	0.72914	0.45406	0.29508	3.224
Mof_O 	O 	0.69161	0.48798	0.26148	-1.283
Mof_O 	O 	0.71351	0.53646	0.21299	-1.543
Mof_O 	O 	0.78685	0.4635	0.28598	-1.29
Mof_C 	C 	0.71855	0.61719	0.21804	0.494
Mof_C 	C 	0.71891	0.53119	0.13201	0.491
Mof_C 	C 	0.63265	0.5314	0.21854	0.493
Mof_C 	C 	0.78347	0.38418	0.28188	0.507
Mof_C 	C 	0.86576	0.46674	0.28294	0.51
Mof_C 	C 	0.78306	0.46738	0.36523	0.511
Mof_H 	H 	0.83466	0.51868	0.23125	0.286
Mof_H 	H 	0.73175	0.51818	0.33399	0.287
Mof_H 	H 	0.69725	0.55266	0.19671	0.343
Mof_H 	H 	0.73263	0.41535	0.23071	0.288
Mof_H 	H 	0.78106	0.42157	0.16417	0.184
Mof_H 	H 	0.7169	0.41576	0.16756	0.167
Mof_H 	H 	0.7733	0.56187	0.35292	0.167
Mof_H 	H 	0.73105	0.60057	0.31159	0.187
Mof_H 	H 	0.85608	0.4768	0.19017	0.176
Mof_H 	H 	0.81277	0.51898	0.1494	0.186
Mof_H 	H 	0.68869	0.47603	0.35307	0.166
Mof_H 	H 	0.65018	0.51893	0.31229	0.186
Mof_H 	H 	0.81261	0.6001	0.23035	0.186
Mof_H 	H 	0.8545	0.5611	0.27339	0.166
Mof_H 	H 	0.64882	0.43929	0.23182	0.198
Mof_H 	H 	0.68912	0.39602	0.27245	0.168
Mof_O 	O 	0.60158	0.20061	0.74664	-0.647
Mof_O 	O 	0.58786	0.20583	0.81472	-0.57
Mof_O 	O 	0.50418	0.14798	0.70109	-0.631
Mof_O 	O 	0.43968	0.15783	0.70433	-0.557
Mof_O 	O 	0.54961	0.24652	0.64866	-0.647
Mof_O 	O 	0.54433	0.31422	0.66237	-0.568
Mof_O 	O 	0.40007	0.25457	0.80085	-0.629
Mof_O 	O 	0.41046	0.18741	0.79335	-0.577
Mof_O 	O 	0.49569	0.3005	0.85008	-0.649
Mof_O 	O 	0.56533	0.29643	0.83682	-0.552
Mof_O 	O 	0.44908	0.34936	0.75434	-0.65
Mof_O 	O 	0.45437	0.33548	0.68386	-0.556
Mof_O 	O 	0.39975	0.29965	0.75438	-0.648
Mof_O 	O 	0.41298	0.29426	0.68446	-0.554
Mof_O 	O 	0.49494	0.34979	0.80003	-0.653
Mof_O 	O 	0.5658	0.33645	0.79446	-0.557
Mof_O 	O 	0.44967	0.25497	0.85027	-0.647
Mof_O 	O 	0.45575	0.18493	0.83797	-0.582
Mof_O 	O 	0.60146	0.24638	0.70064	-0.649
Mof_O 	O 	0.58753	0.31448	0.706	-0.57
Mof_O 	O 	0.50417	0.20023	0.64883	-0.649
Mof_O 	O 	0.43544	0.20709	0.6629	-0.595
Mof_O 	O 	0.55005	0.1484	0.74696	-0.647
Mof_O 	O 	0.54452	0.16235	0.81487	-0.569
Mof_Zr	Zr	0.54636	0.20369	0.77108	3.225
Mof_O 	O 	0.51254	0.2377	0.80775	-1.497
Mof_Zr	Zr	0.4795	0.20314	0.70399	3.225
Mof_O 	O 	0.44247	0.23684	0.73799	-1.493
Mof_Zr	Zr	0.54625	0.27063	0.70392	3.225
Mof_O 	O 	0.51213	0.30742	0.7375	-1.495
Mof_Zr	Zr	0.45436	0.22862	0.79616	3.224
Mof_O 	O 	0.48812	0.19104	0.76236	-1.281
Mof_Zr	Zr	0.52123	0.29575	0.79562	3.224
Mof_O 	O 	0.55875	0.26186	0.76209	-1.283
Mof_Zr	Zr	0.45409	0.29501	0.72865	3.224
Mof_O 	O 	0.4882	0.26132	0.69143	-1.283
Mof_O 	O 	0.53679	0.21319	0.71363	-1.543
Mof_O 	O 	0.46346	0.28631	0.78648	-1.29
Mof_C 	C 	0.61747	0.21861	0.71872	0.494
Mof_C 	C 	0.53211	0.1322	0.71921	0.492
Mof_C 	C 	0.5317	0.21862	0.63273	0.495
Mof_C 	C 	0.3842	0.28243	0.78285	0.506
Mof_C 	C 	0.46745	0.2831	0.86588	0.508
Mof_C 	C 	0.4666	0.3652	0.78248	0.511
Mof_H 	H 	0.51878	0.23189	0.83458	0.286
Mof_H 	H 	0.51802	0.33425	0.7313	0.287
Mof_H 	H 	0.55308	0.19695	0.69741	0.342
Mof_H 	H 	0.41556	0.23057	0.73247	0.288
Mof_H 	H 	0.42165	0.16452	0.78117	0.183
Mof_H 	H 	0.41631	0.16719	0.71702	0.168
Mof_H 	H 	0.56064	0.35442	0.77336	0.168
Mof_H 	H 	0.60047	0.31213	0.73097	0.189
Mof_H 	H 	0.47757	0.18975	0.85515	0.174
Mof_H 	H 	0.51935	0.14973	0.81289	0.184
Mof_H 	H 	0.47568	0.35336	0.68844	0.167
Mof_H 	H 	0.51906	0.3123	0.64995	0.186
Mof_H 	H 	0.60048	0.23097	0.81251	0.186
Mof_H 	H 	0.56236	0.27357	0.85305	0.165
Mof_H 	H 	0.4395	0.23122	0.64884	0.197
Mof_H 	H 	0.39633	0.27188	0.68852	0.168
Mof_O 	O 	0.35088	0.75377	0.45035	-0.647
Mof_O 	O 	0.33675	0.68601	0.45472	-0.568
Mof_O 	O 	0.25281	0.80027	0.39818	-0.631
Mof_O 	O 	0.18856	0.79754	0.40858	-0.556
Mof_O 	O 	0.3	0.85184	0.49602	-0.647
Mof_O 	O 	0.294	0.83848	0.56395	-0.569
Mof_O 	O 	0.1492	0.70026	0.50406	-0.631
Mof_O 	O 	0.15957	0.70814	0.43727	-0.575
Mof_O 	O 	0.24496	0.65043	0.54962	-0.65
Mof_O 	O 	0.31481	0.66381	0.54541	-0.552
Mof_O 	O 	0.19935	0.74649	0.59979	-0.649
Mof_O 	O 	0.2034	0.81617	0.58637	-0.552
Mof_O 	O 	0.1492	0.74625	0.54962	-0.648
Mof_O 	O 	0.16298	0.81658	0.5446	-0.554
Mof_O 	O 	0.24494	0.70055	0.59974	-0.652
Mof_O 	O 	0.31519	0.70526	0.58604	-0.554
Mof_O 	O 	0.19895	0.65057	0.50408	-0.648
Mof_O 	O 	0.20473	0.66359	0.43427	-0.581
Mof_O 	O 	0.35117	0.79934	0.49654	-0.649
Mof_O 	O 	0.33696	0.79452	0.56457	-0.57
Mof_O 	O 	0.25419	0.8521	0.4501	-0.65
Mof_O 	O 	0.18514	0.83865	0.45833	-0.597
Mof_O 	O 	0.29866	0.75437	0.39813	-0.647
Mof_O 	O 	0.29323	0.68629	0.41173	-0.569
Mof_Zr	Zr	0.29543	0.72984	0.45331	3.225
Mof_O 	O 	0.26167	0.69312	0.48726	-1.498
Mof_Zr	Zr	0.22883	0.79726	0.45351	3.225
Mof_O 	O 	0.19184	0.76309	0.48707	-1.493
Mof_Zr	Zr	0.29586	0.79672	0.52055	3.225
Mof_O 	O 	0.26177	0.76302	0.55726	-1.496
Mof_Zr	Zr	0.20354	0.70496	0.47838	3.224
Mof_O 	O 	0.23721	0.73893	0.44094	-1.281
Mof_Zr	Zr	0.27059	0.7049	0.54535	3.224
Mof_O 	O 	0.30806	0.73852	0.51149	-1.282
Mof_Zr	Zr	0.20366	0.77199	0.54526	3.224
Mof_O 	O 	0.23779	0.80943	0.51172	-1.284
Mof_O 	O 	0.28616	0.78724	0.46313	-1.544
Mof_O 	O 	0.21274	0.71414	0.53621	-1.288
Mof_C 	C 	0.36707	0.78126	0.46872	0.495
Mof_C 	C 	0.28058	0.78219	0.38217	0.494
Mof_C 	C 	0.28223	0.86785	0.46803	0.496
Mof_C 	C 	0.1334	0.71813	0.53201	0.505
Mof_C 	C 	0.21684	0.63469	0.53196	0.506
Mof_C 	C 	0.21703	0.71841	0.61557	0.508
Mof_H 	H 	0.26785	0.66631	0.48124	0.286
Mof_H 	H 	0.26782	0.76908	0.58409	0.287
Mof_H 	H 	0.30262	0.80324	0.44684	0.342
Mof_H 	H 	0.16493	0.76874	0.48093	0.288
Mof_H 	H 	0.17064	0.72077	0.41458	0.183
Mof_H 	H 	0.16516	0.78498	0.41807	0.168
Mof_H 	H 	0.31093	0.72706	0.6034	0.168
Mof_H 	H 	0.34978	0.76948	0.56228	0.187
Mof_H 	H 	0.22661	0.64642	0.43876	0.175
Mof_H 	H 	0.26815	0.68863	0.39901	0.186
Mof_H 	H 	0.22648	0.81327	0.60229	0.166
Mof_H 	H 	0.26898	0.85133	0.56162	0.185
Mof_H 	H 	0.34922	0.68763	0.47999	0.185
Mof_H 	H 	0.31132	0.64728	0.52285	0.166
Mof_H 	H 	0.19	0.853	0.48214	0.198
Mof_H 	H 	0.14584	0.81235	0.52261	0.169
Mof_O 	O 	0.35108	0.25393	0.9509	-0.646
Mof_O 	O 	0.33756	0.18578	0.95609	-0.57
Mof_O 	O 	0.25312	0.29953	0.8991	-0.63
Mof_O 	O 	0.18871	0.29601	0.90936	-0.558
Mof_O 	O 	0.29958	0.35145	0.99691	-0.647
Mof_O 	O 	0.29401	0.33784	0.06497	-0.57
Mof_O 	O 	0.14976	0.19916	0.00541	-0.636
Mof_O 	O 	0.16005	0.20692	0.93845	-0.575
Mof_O 	O 	0.24547	0.14978	0.05099	-0.653
Mof_O 	O 	0.31559	0.16342	0.04625	-0.553
Mof_O 	O 	0.19992	0.24586	0.10083	-0.65
Mof_O 	O 	0.2037	0.3156	0.08707	-0.552
Mof_O 	O 	0.14972	0.24512	0.0509	-0.654
Mof_O 	O 	0.16297	0.31545	0.04557	-0.554
Mof_O 	O 	0.24573	0.20013	0.1009	-0.652
Mof_O 	O 	0.3157	0.20467	0.08714	-0.553
Mof_O 	O 	0.19958	0.14962	0.00542	-0.653
Mof_O 	O 	0.2053	0.16244	0.93559	-0.581
Mof_O 	O 	0.35115	0.29972	0.99688	-0.648
Mof_O 	O 	0.3375	0.2942	0.06507	-0.571
Mof_O 	O 	0.25384	0.35137	0.95091	-0.648
Mof_O 	O 	0.18496	0.33747	0.95904	-0.597
Mof_O 	O 	0.29907	0.25371	0.89913	-0.646
Mof_O 	O 	0.29396	0.18562	0.91286	-0.57
Mof_Zr	Zr	0.2959	0.22929	0.95433	3.225
Mof_O 	O 	0.26226	0.19242	0.98833	-1.498
Mof_Zr	Zr	0.2289	0.29632	0.95437	3.225
Mof_O 	O 	0.19211	0.26208	0.98808	-1.493
Mof_Zr	Zr	0.29604	0.29627	0.02139	3.225
Mof_O 	O 	0.26216	0.26244	0.05817	-1.495
Mof_Zr	Zr	0.20405	0.20397	0.97955	3.224
Mof_O 	O 	0.23759	0.238	0.94198	-1.28
Mof_Zr	Zr	0.27117	0.2043	0.0464	3.224
Mof_O 	O 	0.30851	0.2381	0.01249	-1.282
Mof_Zr	Zr	0.20399	0.27117	0.04622	3.224
Mof_O 	O 	0.23789	0.30868	0.01255	-1.283
Mof_O 	O 	0.28624	0.28663	0.96405	-1.546
Mof_O 	O 	0.21329	0.21333	0.03732	-1.289
Mof_C 	C 	0.36702	0.28185	0.96888	0.494
Mof_C 	C 	0.28104	0.28156	0.88318	0.491
Mof_C 	C 	0.28174	0.36731	0.9689	0.494
Mof_C 	C 	0.13389	0.21684	0.0335	0.532
Mof_C 	C 	0.21731	0.1338	0.0335	0.528
Mof_C 	C 	0.21775	0.21792	0.11669	0.511
Mof_H 	H 	0.26852	0.16563	0.98237	0.286
Mof_H 	H 	0.26821	0.2686	0.08498	0.287
Mof_H 	H 	0.30248	0.30279	0.94772	0.344
Mof_H 	H 	0.16515	0.26758	0.98198	0.288
Mof_H 	H 	0.1711	0.21944	0.91569	0.183
Mof_H 	H 	0.16527	0.28365	0.91899	0.168
Mof_H 	H 	0.31198	0.22707	0.10383	0.167
Mof_H 	H 	0.35055	0.2693	0.06253	0.187
Mof_H 	H 	0.2273	0.1454	0.94008	0.174
Mof_H 	H 	0.2688	0.18771	0.90024	0.185
Mof_H 	H 	0.22658	0.31257	0.10326	0.166
Mof_H 	H 	0.26901	0.35072	0.06257	0.186
Mof_H 	H 	0.35019	0.18785	0.98125	0.186
Mof_H 	H 	0.31175	0.1465	0.02403	0.166
Mof_H 	H 	0.18959	0.35175	0.98294	0.198
Mof_H 	H 	0.14583	0.31106	0.02362	0.169
_end
