data_functionalizedCrystal
_audit_creation_method	'EQeq! by Chris Wilmer'
_symmetry_space_group_name_H-M	'P1'
_symmetry_Int_Tables_number	1
_symmetry_cell_setting	triclinic
loop_
_symmetry_equiv_pos_as_xyz
  x,y,z
_cell_length_a	13.9129
_cell_length_b	14.2767
_cell_length_c	18.623
_cell_angle_alpha	94.191
_cell_angle_beta	90
_cell_angle_gamma	90
loop_
_atom_site_label
_atom_site_type_symbol
_atom_site_fract_x
_atom_site_fract_y
_atom_site_fract_z
_atom_site_charge
Mof_Ca	Ca	0.70195	0.58458	0.37205	1.089
Mof_Ca	Ca	0.29805	0.41542	0.62795	1.089
Mof_Ca	Ca	0.20195	0.91542	0.12795	1.085
Mof_Ca	Ca	0.79805	0.08458	0.87205	1.085
Mof_Cd	Cd	0.54301	0.50258	0.22642	0.485
Mof_Cd	Cd	0.95699	0.00258	0.72642	0.482
Mof_Cd	Cd	0.45699	0.49742	0.77358	0.484
Mof_Cd	Cd	0.04301	0.99742	0.27358	0.481
Mof_H 	H 	0.7803	0.2365	0.2488	0.046
Mof_H 	H 	0.82	0.129	0.4393	0.063
Mof_H 	H 	0.68	0.629	0.9393	0.064
Mof_H 	H 	0.18	0.871	0.5607	0.063
Mof_H 	H 	0.918	0.8151	0.0248	0.03
Mof_H 	H 	0.1415	0.1541	0.0757	0.03
Mof_H 	H 	0.1914	0.8512	0.4509	0.047
Mof_H 	H 	0.8492	0.7362	0.2204	0.017
Mof_H 	H 	0.3086	0.3512	0.9509	0.047
Mof_H 	H 	0.6914	0.6488	0.0491	0.047
Mof_H 	H 	0.2803	0.2635	0.2512	0.047
Mof_H 	H 	0.6508	0.2362	0.7204	0.017
Mof_H 	H 	0.8086	0.1488	0.5491	0.047
Mof_H 	H 	0.082	0.1849	0.9752	0.03
Mof_H 	H 	0.1508	0.2638	0.7796	0.017
Mof_H 	H 	0.3585	0.6541	0.5757	0.028
Mof_H 	H 	0.3492	0.7638	0.2796	0.017
Mof_H 	H 	0.7197	0.7365	0.7488	0.047
Mof_H 	H 	0.8585	0.8459	0.9243	0.03
Mof_H 	H 	0.418	0.6849	0.4752	0.03
Mof_H 	H 	0.582	0.3151	0.5248	0.03
Mof_H 	H 	0.6415	0.3459	0.4243	0.028
Mof_H 	H 	0.32	0.371	0.0607	0.064
Mof_H 	H 	0.2197	0.7635	0.7512	0.046
Mof_C 	C 	0.3164	0.6986	0.5968	-0.038
Mof_C 	C 	0.8774	0.7828	0.05409	-0.005
Mof_C 	C 	0.799	0.7329	0.02343	-0.025
Mof_C 	C 	0.5244	0.3463	0.65947	0.377
Mof_C 	C 	0.7248	0.2354	0.44532	0.007
Mof_C 	C 	0.2612	0.8171	0.35848	-0.118
Mof_C 	C 	0.796	0.8017	0.83047	-0.093
Mof_C 	C 	0.1836	0.1986	0.0968	-0.04
Mof_C 	C 	0.1857	0.8249	0.66	-0.06
Mof_C 	C 	0.1975	0.8729	0.31259	0.372
Mof_C 	C 	0.2388	0.3171	0.85848	-0.119
Mof_C 	C 	0.6975	0.6271	0.18741	0.373
Mof_C 	C 	0.8954	0.7849	0.12735	-0.118
Mof_C 	C 	0.8143	0.1751	0.34	-0.06
Mof_C 	C 	0.8025	0.1271	0.68741	0.372
Mof_C 	C 	0.2092	0.8268	0.58778	-0.048
Mof_C 	C 	0.6562	0.3728	0.28704	0.318
Mof_C 	C 	0.9756	0.8463	0.15947	0.379
Mof_C 	C 	0.7683	0.2376	0.29802	0.001
Mof_C 	C 	0.2569	0.3167	0.93152	-0.004
Mof_C 	C 	0.6627	0.2349	0.67125	0.049
Mof_C 	C 	0.8927	0.1115	0.30919	0.292
Mof_C 	C 	0.7752	0.7354	0.94532	0.011
Mof_C 	C 	0.6046	0.2849	0.62735	-0.117
Mof_C 	C 	0.7388	0.1829	0.64152	-0.118
Mof_C 	C 	0.1562	0.1272	0.21296	0.317
Mof_C 	C 	0.7317	0.7376	0.79802	-0
Mof_C 	C 	0.701	0.2329	0.52343	-0.022
Mof_C 	C 	0.7092	0.6732	0.91222	-0.05
Mof_C 	C 	0.3438	0.6272	0.71296	0.318
Mof_C 	C 	0.3373	0.7651	0.32875	0.049
Mof_C 	C 	0.7612	0.6829	0.14152	-0.119
Mof_C 	C 	0.8373	0.7349	0.17125	0.05
Mof_C 	C 	0.2908	0.3268	0.08778	-0.05
Mof_C 	C 	0.2317	0.7624	0.70198	0.001
Mof_C 	C 	0.8438	0.8728	0.78704	0.317
Mof_C 	C 	0.2248	0.2646	0.05468	0.011
Mof_C 	C 	0.1073	0.8885	0.69081	0.292
Mof_C 	C 	0.3025	0.3729	0.81259	0.373
Mof_C 	C 	0.296	0.6983	0.66953	-0.095
Mof_C 	C 	0.2683	0.2624	0.20198	-0
Mof_C 	C 	0.2431	0.8167	0.43152	-0.006
Mof_C 	C 	0.6226	0.2828	0.55409	-0.007
Mof_C 	C 	0.704	0.3017	0.33047	-0.095
Mof_C 	C 	0.201	0.2671	0.97657	-0.025
Mof_C 	C 	0.1226	0.2172	0.94591	-0.005
Mof_C 	C 	0.1627	0.2651	0.82875	0.05
Mof_C 	C 	0.3927	0.3885	0.19081	0.292
Mof_C 	C 	0.204	0.1983	0.16953	-0.093
Mof_C 	C 	0.299	0.7671	0.47657	-0.022
Mof_C 	C 	0.7569	0.1833	0.56848	-0.006
Mof_C 	C 	0.2752	0.7646	0.55468	0.007
Mof_C 	C 	0.8164	0.8014	0.9032	-0.04
Mof_C 	C 	0.6857	0.6751	0.84	-0.059
Mof_C 	C 	0.3143	0.3249	0.16	-0.059
Mof_C 	C 	0.7908	0.1732	0.41222	-0.048
Mof_C 	C 	0.7431	0.6833	0.06848	-0.004
Mof_C 	C 	0.4756	0.6537	0.34053	0.377
Mof_C 	C 	0.0244	0.1537	0.84053	0.379
Mof_C 	C 	0.1046	0.2151	0.87265	-0.118
Mof_C 	C 	0.3774	0.7172	0.44591	-0.007
Mof_C 	C 	0.6073	0.6115	0.80919	0.292
Mof_C 	C 	0.3954	0.7151	0.37265	-0.117
Mof_C 	C 	0.6836	0.3014	0.4032	-0.038
Mof_O 	O 	0.91236	0.11098	0.24362	-0.262
Mof_O 	O 	0.95658	0.13408	0.87989	-0.433
Mof_O 	O 	0.64669	0.35836	0.22084	-0.279
Mof_O 	O 	0.78934	0.13009	0.7538	-0.43
Mof_O 	O 	0.03466	0.12609	0.77565	-0.318
Mof_O 	O 	0.93607	0.06242	0.3519	-0.272
Mof_O 	O 	0.85331	0.85836	0.72084	-0.277
Mof_O 	O 	0.04342	0.86592	0.12011	-0.433
Mof_O 	O 	0.87526	0.94785	0.82118	-0.408
Mof_O 	O 	0.21066	0.86991	0.2462	-0.43
Mof_O 	O 	0.45658	0.36592	0.62011	-0.431
Mof_O 	O 	0.14669	0.14164	0.27916	-0.277
Mof_O 	O 	0.35331	0.64164	0.77916	-0.279
Mof_O 	O 	0.41236	0.38902	0.25638	-0.262
Mof_O 	O 	0.37526	0.55215	0.67882	-0.412
Mof_O 	O 	0.63311	0.57936	0.15469	-0.308
Mof_O 	O 	0.12474	0.05215	0.17882	-0.408
Mof_O 	O 	0.36689	0.42064	0.84531	-0.308
Mof_O 	O 	0.08764	0.88902	0.75638	-0.262
Mof_O 	O 	0.28934	0.36991	0.7462	-0.43
Mof_O 	O 	0.58764	0.61098	0.74362	-0.262
Mof_O 	O 	0.86689	0.07936	0.65469	-0.308
Mof_O 	O 	0.43607	0.43758	0.1481	-0.272
Mof_O 	O 	0.96534	0.87391	0.22435	-0.318
Mof_O 	O 	0.54342	0.63408	0.37989	-0.431
Mof_O 	O 	0.06393	0.93758	0.6481	-0.272
Mof_O 	O 	0.56393	0.56242	0.8519	-0.272
Mof_O 	O 	0.53466	0.37391	0.72435	-0.318
Mof_O 	O 	0.13311	0.92064	0.34531	-0.308
Mof_O 	O 	0.71066	0.63009	0.2538	-0.43
Mof_O 	O 	0.46534	0.62609	0.27565	-0.318
Mof_O 	O 	0.62474	0.44785	0.32118	-0.412
_end
