data_functionalizedCrystal
_audit_creation_method	'EQeq! by Chris Wilmer'
_symmetry_space_group_name_H-M	'P1'
_symmetry_Int_Tables_number	1
_symmetry_cell_setting	triclinic
loop_
_symmetry_equiv_pos_as_xyz
  x,y,z
_cell_length_a	34.1668
_cell_length_b	34.1668
_cell_length_c	19.3425
_cell_angle_alpha	90
_cell_angle_beta	90
_cell_angle_gamma	90
loop_
_atom_site_label
_atom_site_type_symbol
_atom_site_fract_x
_atom_site_fract_y
_atom_site_fract_z
_atom_site_charge
Mof_Cu	Cu	0.24755	0.24618	0.81631	0.915
Mof_O 	O 	0.27576	0.19798	0.8037	-0.399
Mof_O 	O 	0.53306	0.45959	0.9262	-0.382
Mof_O 	O 	0.45863	0.03549	0.5683	-0.349
Mof_O 	O 	0.30309	0.28098	0.6982	-0.403
Mof_O 	O 	0.2793	0.20243	0.6869	-0.391
Mof_O 	O 	0.29839	0.27229	0.8137	-0.394
Mof_C 	C 	0.4642	0.3613	0.8038	-0.072
Mof_C 	C 	0.3142	0.2844	0.7579	0.356
Mof_C 	C 	0.3965	0.0352	0.6571	-0.028
Mof_H 	H 	0.4099	0.0582	0.6471	0.066
Mof_C 	C 	0.3403	0.0761	0.7126	0.131
Mof_C 	C 	0.3602	0.0349	0.6942	-0.064
Mof_C 	C 	0.2855	0.1851	0.7444	0.349
Mof_C 	C 	0.4045	0.3291	0.8462	-0.144
Mof_H 	H 	0.4141	0.3326	0.8907	0.092
Mof_C 	C 	0.3309	0.0964	0.6581	-0.169
Mof_H 	H 	0.335	0.0864	0.614	0.097
Mof_H 	H 	0.4763	0.3	0.7329	0.149
Mof_C 	C 	0.4249	0.3401	0.7929	0.103
Mof_C 	C 	0.4659	0.3947	0.8449	0.014
Mof_H 	H 	0.4428	0.4068	0.8585	0.048
Mof_C 	C 	0.3136	0.1354	0.6675	0.078
Mof_H 	H 	0.3092	0.1521	0.6302	0.025
Mof_C 	C 	0.3045	0.146	0.733	-0.14
Mof_C 	C 	0.3304	0.0868	0.7753	-0.169
Mof_H 	H 	0.334	0.07	0.8126	0.09
Mof_C 	C 	0.3133	0.1268	0.7856	0.082
Mof_H 	H 	0.3094	0.137	0.8297	0.022
Mof_C 	C 	0.3666	0.3114	0.8351	0.046
Mof_H 	H 	0.3509	0.3047	0.8726	0.041
Mof_C 	C 	0.3538	0.3046	0.768	-0.098
Mof_C 	C 	0.4124	0.3342	0.7249	-0.131
Mof_H 	H 	0.428	0.3422	0.6882	0.077
Mof_C 	C 	0.3738	0.3149	0.711	0.036
Mof_H 	H 	0.3644	0.3105	0.6665	0.038
Mof_N 	N 	0.2465	0.244	0.9278	-0.185
Mof_C 	C 	0.2581	0.2122	0.95776	0.054
Mof_H 	H 	0.2661	0.1905	0.9325	0.03
Mof_C 	C 	0.2231	0.2623	0.96	0.081
Mof_H 	H 	0.2044	0.2769	0.9365	0.019
Mof_H 	H 	0.2996	0.978	0.777	0.142
Mof_O 	O 	0.5121	0.1025	0.4797	-0.001
Mof_Cu	Cu	0.74755	0.74618	0.31631	0.914
Mof_O 	O 	0.77576	0.69798	0.3037	-0.402
Mof_O 	O 	0.03306	0.95959	0.4262	-0.392
Mof_O 	O 	0.95863	0.53549	0.0683	-0.349
Mof_O 	O 	0.80309	0.78098	0.1982	-0.405
Mof_O 	O 	0.7793	0.70243	0.1869	-0.393
Mof_O 	O 	0.79839	0.77229	0.3137	-0.397
Mof_C 	C 	0.9642	0.8613	0.3038	-0.072
Mof_C 	C 	0.8142	0.7844	0.2579	0.356
Mof_C 	C 	0.8965	0.5352	0.1571	-0.034
Mof_H 	H 	0.9099	0.5582	0.1471	0.067
Mof_C 	C 	0.8403	0.5761	0.2126	0.13
Mof_C 	C 	0.8602	0.5349	0.1942	-0.064
Mof_C 	C 	0.7855	0.6851	0.2444	0.349
Mof_C 	C 	0.9045	0.8291	0.3462	-0.145
Mof_H 	H 	0.9141	0.8326	0.3907	0.088
Mof_C 	C 	0.8309	0.5964	0.1581	-0.17
Mof_H 	H 	0.835	0.5864	0.114	0.093
Mof_H 	H 	0.9763	0.8	0.2329	0.152
Mof_C 	C 	0.9249	0.8401	0.2929	0.102
Mof_C 	C 	0.9659	0.8947	0.3449	0.024
Mof_H 	H 	0.9428	0.9068	0.3585	0.043
Mof_C 	C 	0.8136	0.6354	0.1675	0.077
Mof_H 	H 	0.8092	0.6521	0.1302	0.022
Mof_C 	C 	0.8045	0.646	0.233	-0.142
Mof_C 	C 	0.8304	0.5868	0.2753	-0.17
Mof_H 	H 	0.834	0.57	0.3126	0.088
Mof_C 	C 	0.8133	0.6268	0.2856	0.082
Mof_H 	H 	0.8094	0.637	0.3297	0.019
Mof_C 	C 	0.8666	0.8114	0.3351	0.045
Mof_H 	H 	0.8509	0.8047	0.3726	0.037
Mof_C 	C 	0.8538	0.8046	0.268	-0.1
Mof_C 	C 	0.9124	0.8342	0.2249	-0.132
Mof_H 	H 	0.928	0.8422	0.1882	0.076
Mof_C 	C 	0.8738	0.8149	0.211	0.036
Mof_H 	H 	0.8644	0.8105	0.1665	0.035
Mof_N 	N 	0.7465	0.744	0.4278	-0.171
Mof_C 	C 	0.7581	0.7122	0.45776	0.015
Mof_H 	H 	0.7661	0.6905	0.4325	0.037
Mof_C 	C 	0.7231	0.7623	0.46	0.033
Mof_H 	H 	0.7044	0.7769	0.4365	0.029
Mof_H 	H 	0.7996	0.478	0.277	0.133
Mof_O 	O 	0.0121	0.6025	0.9797	-0.005
Mof_Cu	Cu	0.75245	0.75382	0.81631	0.914
Mof_O 	O 	0.72424	0.80202	0.8037	-0.399
Mof_O 	O 	0.46694	0.54041	0.9262	-0.383
Mof_O 	O 	0.54137	0.96451	0.5683	-0.343
Mof_O 	O 	0.69691	0.71902	0.6982	-0.403
Mof_O 	O 	0.7207	0.79757	0.6869	-0.391
Mof_O 	O 	0.70161	0.72771	0.8137	-0.394
Mof_C 	C 	0.5358	0.6387	0.8038	-0.072
Mof_C 	C 	0.6858	0.7156	0.7579	0.356
Mof_C 	C 	0.6035	0.9648	0.6571	-0.02
Mof_H 	H 	0.5901	0.9418	0.6471	0.065
Mof_C 	C 	0.6597	0.9239	0.7126	0.131
Mof_C 	C 	0.6398	0.9651	0.6942	-0.059
Mof_C 	C 	0.7145	0.8149	0.7444	0.349
Mof_C 	C 	0.5955	0.6709	0.8462	-0.144
Mof_H 	H 	0.5859	0.6674	0.8907	0.092
Mof_C 	C 	0.6691	0.9036	0.6581	-0.169
Mof_H 	H 	0.665	0.9136	0.614	0.098
Mof_H 	H 	0.5237	0.7	0.7329	0.149
Mof_C 	C 	0.5751	0.6599	0.7929	0.103
Mof_C 	C 	0.5341	0.6053	0.8449	0.014
Mof_H 	H 	0.5572	0.5932	0.8585	0.048
Mof_C 	C 	0.6864	0.8646	0.6675	0.079
Mof_H 	H 	0.6908	0.8479	0.6302	0.026
Mof_C 	C 	0.6955	0.854	0.733	-0.14
Mof_C 	C 	0.6696	0.9132	0.7753	-0.169
Mof_H 	H 	0.666	0.93	0.8126	0.092
Mof_C 	C 	0.6867	0.8732	0.7856	0.083
Mof_H 	H 	0.6906	0.863	0.8297	0.023
Mof_C 	C 	0.6334	0.6886	0.8351	0.046
Mof_H 	H 	0.6491	0.6953	0.8726	0.041
Mof_C 	C 	0.6462	0.6954	0.768	-0.098
Mof_C 	C 	0.5876	0.6658	0.7249	-0.131
Mof_H 	H 	0.572	0.6578	0.6882	0.077
Mof_C 	C 	0.6262	0.6851	0.711	0.037
Mof_H 	H 	0.6356	0.6895	0.6665	0.038
Mof_N 	N 	0.7535	0.756	0.9278	-0.185
Mof_C 	C 	0.7419	0.7878	0.95776	0.054
Mof_H 	H 	0.7339	0.8095	0.9325	0.03
Mof_C 	C 	0.7769	0.7377	0.96	0.081
Mof_H 	H 	0.7956	0.7231	0.9365	0.019
Mof_H 	H 	0.7004	0.022	0.777	0.136
Mof_O 	O 	0.4879	0.8975	0.4797	-0.001
Mof_Cu	Cu	0.25245	0.25382	0.31631	0.914
Mof_O 	O 	0.22424	0.30202	0.3037	-0.402
Mof_O 	O 	0.96694	0.04041	0.4262	-0.392
Mof_O 	O 	0.04137	0.46451	0.0683	-0.353
Mof_O 	O 	0.19691	0.21902	0.1982	-0.405
Mof_O 	O 	0.2207	0.29757	0.1869	-0.393
Mof_O 	O 	0.20161	0.22771	0.3137	-0.397
Mof_C 	C 	0.0358	0.1387	0.3038	-0.077
Mof_C 	C 	0.1858	0.2156	0.2579	0.356
Mof_C 	C 	0.1035	0.4648	0.1571	-0.033
Mof_H 	H 	0.0901	0.4418	0.1471	0.065
Mof_C 	C 	0.1597	0.4239	0.2126	0.129
Mof_C 	C 	0.1398	0.4651	0.1942	-0.065
Mof_C 	C 	0.2145	0.3149	0.2444	0.349
Mof_C 	C 	0.0955	0.1709	0.3462	-0.145
Mof_H 	H 	0.0859	0.1674	0.3907	0.086
Mof_C 	C 	0.1691	0.4036	0.1581	-0.17
Mof_H 	H 	0.165	0.4136	0.114	0.093
Mof_H 	H 	0.0237	0.2	0.2329	0.146
Mof_C 	C 	0.0751	0.1599	0.2929	0.102
Mof_C 	C 	0.0341	0.1053	0.3449	0.018
Mof_H 	H 	0.0572	0.0932	0.3585	0.042
Mof_C 	C 	0.1864	0.3646	0.1675	0.077
Mof_H 	H 	0.1908	0.3479	0.1302	0.022
Mof_C 	C 	0.1955	0.354	0.233	-0.142
Mof_C 	C 	0.1696	0.4132	0.2753	-0.17
Mof_H 	H 	0.166	0.43	0.3126	0.088
Mof_C 	C 	0.1867	0.3732	0.2856	0.081
Mof_H 	H 	0.1906	0.363	0.3297	0.019
Mof_C 	C 	0.1334	0.1886	0.3351	0.045
Mof_H 	H 	0.1491	0.1953	0.3726	0.037
Mof_C 	C 	0.1462	0.1954	0.268	-0.101
Mof_C 	C 	0.0876	0.1658	0.2249	-0.133
Mof_H 	H 	0.072	0.1578	0.1882	0.073
Mof_C 	C 	0.1262	0.1851	0.211	0.035
Mof_H 	H 	0.1356	0.1895	0.1665	0.034
Mof_N 	N 	0.2535	0.256	0.4278	-0.171
Mof_C 	C 	0.2419	0.2878	0.45776	0.015
Mof_H 	H 	0.2339	0.3095	0.4325	0.037
Mof_C 	C 	0.2769	0.2377	0.46	0.032
Mof_H 	H 	0.2956	0.2231	0.4365	0.029
Mof_H 	H 	0.2004	0.522	0.277	0.133
Mof_O 	O 	0.9879	0.3975	0.9797	0.017
Mof_Cu	Cu	0.75245	0.24618	0.18369	0.913
Mof_O 	O 	0.72424	0.19798	0.1963	-0.404
Mof_O 	O 	0.46694	0.45959	0.0738	-0.402
Mof_O 	O 	0.54137	0.03549	0.4317	-0.35
Mof_O 	O 	0.69691	0.28098	0.3018	-0.403
Mof_O 	O 	0.7207	0.20243	0.3131	-0.391
Mof_O 	O 	0.70161	0.27229	0.1863	-0.399
Mof_C 	C 	0.5358	0.3613	0.1962	-0.077
Mof_C 	C 	0.6858	0.2844	0.2421	0.356
Mof_C 	C 	0.6035	0.0352	0.3429	-0.029
Mof_H 	H 	0.5901	0.0582	0.3529	0.064
Mof_C 	C 	0.6597	0.0761	0.2874	0.13
Mof_C 	C 	0.6398	0.0349	0.3058	-0.066
Mof_C 	C 	0.7145	0.1851	0.2556	0.349
Mof_C 	C 	0.5955	0.3291	0.1538	-0.146
Mof_H 	H 	0.5859	0.3326	0.1093	0.082
Mof_C 	C 	0.6691	0.0964	0.3419	-0.17
Mof_H 	H 	0.665	0.0864	0.386	0.097
Mof_H 	H 	0.5237	0.3	0.2671	0.147
Mof_C 	C 	0.5751	0.3401	0.2071	0.101
Mof_C 	C 	0.5341	0.3947	0.1551	0.016
Mof_H 	H 	0.5572	0.4068	0.1415	0.042
Mof_C 	C 	0.6864	0.1354	0.3325	0.078
Mof_H 	H 	0.6908	0.1521	0.3698	0.025
Mof_C 	C 	0.6955	0.146	0.267	-0.142
Mof_C 	C 	0.6696	0.0868	0.2247	-0.171
Mof_H 	H 	0.666	0.07	0.1874	0.084
Mof_C 	C 	0.6867	0.1268	0.2144	0.081
Mof_H 	H 	0.6906	0.137	0.1703	0.015
Mof_C 	C 	0.6334	0.3114	0.1649	0.044
Mof_H 	H 	0.6491	0.3047	0.1274	0.033
Mof_C 	C 	0.6462	0.3046	0.232	-0.101
Mof_C 	C 	0.5876	0.3342	0.2751	-0.132
Mof_H 	H 	0.572	0.3422	0.3118	0.077
Mof_C 	C 	0.6262	0.3149	0.289	0.036
Mof_H 	H 	0.6356	0.3105	0.3335	0.037
Mof_N 	N 	0.7535	0.244	0.0722	-0.157
Mof_C 	C 	0.7419	0.2122	0.04224	-0.025
Mof_H 	H 	0.7339	0.1905	0.0675	0.045
Mof_C 	C 	0.7769	0.2623	0.04	-0.016
Mof_H 	H 	0.7956	0.2769	0.0635	0.04
Mof_H 	H 	0.7004	0.978	0.223	0.137
Mof_O 	O 	0.4879	0.1025	0.5203	0.001
Mof_Cu	Cu	0.25245	0.74618	0.68369	0.914
Mof_O 	O 	0.22424	0.69798	0.6963	-0.401
Mof_O 	O 	0.96694	0.95959	0.5738	-0.386
Mof_O 	O 	0.04137	0.53549	0.9317	-0.338
Mof_O 	O 	0.19691	0.78098	0.8018	-0.401
Mof_O 	O 	0.2207	0.70243	0.8131	-0.389
Mof_O 	O 	0.20161	0.77229	0.6863	-0.397
Mof_C 	C 	0.0358	0.8613	0.6962	-0.074
Mof_C 	C 	0.1858	0.7844	0.7421	0.356
Mof_C 	C 	0.1035	0.5352	0.8429	-0.032
Mof_H 	H 	0.0901	0.5582	0.8529	0.069
Mof_C 	C 	0.1597	0.5761	0.7874	0.131
Mof_C 	C 	0.1398	0.5349	0.8058	-0.062
Mof_C 	C 	0.2145	0.6851	0.7556	0.349
Mof_C 	C 	0.0955	0.8291	0.6538	-0.144
Mof_H 	H 	0.0859	0.8326	0.6093	0.086
Mof_C 	C 	0.1691	0.5964	0.8419	-0.169
Mof_H 	H 	0.165	0.5864	0.886	0.103
Mof_H 	H 	0.0237	0.8	0.7671	0.151
Mof_C 	C 	0.0751	0.8401	0.7071	0.102
Mof_C 	C 	0.0341	0.8947	0.6551	0.018
Mof_H 	H 	0.0572	0.9068	0.6415	0.045
Mof_C 	C 	0.1864	0.6354	0.8325	0.08
Mof_H 	H 	0.1908	0.6521	0.8698	0.029
Mof_C 	C 	0.1955	0.646	0.767	-0.14
Mof_C 	C 	0.1696	0.5868	0.7247	-0.17
Mof_H 	H 	0.166	0.57	0.6874	0.088
Mof_C 	C 	0.1867	0.6268	0.7144	0.082
Mof_H 	H 	0.1906	0.637	0.6703	0.019
Mof_C 	C 	0.1334	0.8114	0.6649	0.045
Mof_H 	H 	0.1491	0.8047	0.6274	0.037
Mof_C 	C 	0.1462	0.8046	0.732	-0.098
Mof_C 	C 	0.0876	0.8342	0.7751	-0.13
Mof_H 	H 	0.072	0.8422	0.8118	0.08
Mof_C 	C 	0.1262	0.8149	0.789	0.037
Mof_H 	H 	0.1356	0.8105	0.8335	0.041
Mof_N 	N 	0.2535	0.744	0.5722	-0.171
Mof_C 	C 	0.2419	0.7122	0.54224	0.015
Mof_H 	H 	0.2339	0.6905	0.5675	0.037
Mof_C 	C 	0.2769	0.7623	0.54	0.032
Mof_H 	H 	0.2956	0.7769	0.5635	0.029
Mof_H 	H 	0.2004	0.478	0.723	0.134
Mof_O 	O 	0.9879	0.6025	0.0203	-0.062
Mof_Cu	Cu	0.24755	0.75382	0.18369	0.913
Mof_O 	O 	0.27576	0.80202	0.1963	-0.403
Mof_O 	O 	0.53306	0.54041	0.0738	-0.402
Mof_O 	O 	0.45863	0.96451	0.4317	-0.344
Mof_O 	O 	0.30309	0.71902	0.3018	-0.403
Mof_O 	O 	0.2793	0.79757	0.3131	-0.391
Mof_O 	O 	0.29839	0.72771	0.1863	-0.399
Mof_C 	C 	0.4642	0.6387	0.1962	-0.077
Mof_C 	C 	0.3142	0.7156	0.2421	0.356
Mof_C 	C 	0.3965	0.9648	0.3429	-0.021
Mof_H 	H 	0.4099	0.9418	0.3529	0.063
Mof_C 	C 	0.3403	0.9239	0.2874	0.13
Mof_C 	C 	0.3602	0.9651	0.3058	-0.06
Mof_C 	C 	0.2855	0.8149	0.2556	0.349
Mof_C 	C 	0.4045	0.6709	0.1538	-0.146
Mof_H 	H 	0.4141	0.6674	0.1093	0.082
Mof_C 	C 	0.3309	0.9036	0.3419	-0.17
Mof_H 	H 	0.335	0.9136	0.386	0.098
Mof_H 	H 	0.4763	0.7	0.2671	0.147
Mof_C 	C 	0.4249	0.6599	0.2071	0.101
Mof_C 	C 	0.4659	0.6053	0.1551	0.016
Mof_H 	H 	0.4428	0.5932	0.1415	0.042
Mof_C 	C 	0.3136	0.8646	0.3325	0.079
Mof_H 	H 	0.3092	0.8479	0.3698	0.025
Mof_C 	C 	0.3045	0.854	0.267	-0.142
Mof_C 	C 	0.3304	0.9132	0.2247	-0.171
Mof_H 	H 	0.334	0.93	0.1874	0.086
Mof_C 	C 	0.3133	0.8732	0.2144	0.081
Mof_H 	H 	0.3094	0.863	0.1703	0.016
Mof_C 	C 	0.3666	0.6886	0.1649	0.044
Mof_H 	H 	0.3509	0.6953	0.1274	0.033
Mof_C 	C 	0.3538	0.6954	0.232	-0.101
Mof_C 	C 	0.4124	0.6658	0.2751	-0.132
Mof_H 	H 	0.428	0.6578	0.3118	0.077
Mof_C 	C 	0.3738	0.6851	0.289	0.036
Mof_H 	H 	0.3644	0.6895	0.3335	0.037
Mof_N 	N 	0.2465	0.756	0.0722	-0.157
Mof_C 	C 	0.2581	0.7878	0.04224	-0.025
Mof_H 	H 	0.2661	0.8095	0.0675	0.045
Mof_C 	C 	0.2231	0.7377	0.04	-0.016
Mof_H 	H 	0.2044	0.7231	0.0635	0.04
Mof_H 	H 	0.2996	0.022	0.223	0.131
Mof_O 	O 	0.5121	0.8975	0.5203	0
Mof_Cu	Cu	0.74755	0.25382	0.68369	0.914
Mof_O 	O 	0.77576	0.30202	0.6963	-0.401
Mof_O 	O 	0.03306	0.04041	0.5738	-0.397
Mof_O 	O 	0.95863	0.46451	0.9317	-0.335
Mof_O 	O 	0.80309	0.21902	0.8018	-0.401
Mof_O 	O 	0.7793	0.29757	0.8131	-0.389
Mof_O 	O 	0.79839	0.22771	0.6863	-0.397
Mof_C 	C 	0.9642	0.1387	0.6962	-0.072
Mof_C 	C 	0.8142	0.2156	0.7421	0.356
Mof_C 	C 	0.8965	0.4648	0.8429	-0.032
Mof_H 	H 	0.9099	0.4418	0.8529	0.07
Mof_C 	C 	0.8403	0.4239	0.7874	0.132
Mof_C 	C 	0.8602	0.4651	0.8058	-0.061
Mof_C 	C 	0.7855	0.3149	0.7556	0.349
Mof_C 	C 	0.9045	0.1709	0.6538	-0.144
Mof_H 	H 	0.9141	0.1674	0.6093	0.087
Mof_C 	C 	0.8309	0.4036	0.8419	-0.169
Mof_H 	H 	0.835	0.4136	0.886	0.103
Mof_H 	H 	0.9763	0.2	0.7671	0.156
Mof_C 	C 	0.9249	0.1599	0.7071	0.103
Mof_C 	C 	0.9659	0.1053	0.6551	0.026
Mof_H 	H 	0.9428	0.0932	0.6415	0.042
Mof_C 	C 	0.8136	0.3646	0.8325	0.08
Mof_H 	H 	0.8092	0.3479	0.8698	0.029
Mof_C 	C 	0.8045	0.354	0.767	-0.14
Mof_C 	C 	0.8304	0.4132	0.7247	-0.17
Mof_H 	H 	0.834	0.43	0.6874	0.088
Mof_C 	C 	0.8133	0.3732	0.7144	0.082
Mof_H 	H 	0.8094	0.363	0.6703	0.019
Mof_C 	C 	0.8666	0.1886	0.6649	0.045
Mof_H 	H 	0.8509	0.1953	0.6274	0.037
Mof_C 	C 	0.8538	0.1954	0.732	-0.098
Mof_C 	C 	0.9124	0.1658	0.7751	-0.131
Mof_H 	H 	0.928	0.1578	0.8118	0.081
Mof_C 	C 	0.8738	0.1851	0.789	0.037
Mof_H 	H 	0.8644	0.1895	0.8335	0.041
Mof_N 	N 	0.7465	0.256	0.5722	-0.171
Mof_C 	C 	0.7581	0.2878	0.54224	0.015
Mof_H 	H 	0.7661	0.3095	0.5675	0.038
Mof_C 	C 	0.7231	0.2377	0.54	0.032
Mof_H 	H 	0.7044	0.2231	0.5635	0.029
Mof_H 	H 	0.7996	0.522	0.723	0.134
Mof_O 	O 	0.0121	0.3975	0.0203	-0.067
Mof_Cu	Cu	0.75245	0.75382	0.18369	0.913
Mof_O 	O 	0.72424	0.80202	0.1963	-0.403
Mof_O 	O 	0.46694	0.54041	0.0738	-0.402
Mof_O 	O 	0.54137	0.96451	0.4317	-0.344
Mof_O 	O 	0.69691	0.71902	0.3018	-0.403
Mof_O 	O 	0.7207	0.79757	0.3131	-0.391
Mof_O 	O 	0.70161	0.72771	0.1863	-0.399
Mof_C 	C 	0.5358	0.6387	0.1962	-0.077
Mof_C 	C 	0.6858	0.7156	0.2421	0.356
Mof_C 	C 	0.6035	0.9648	0.3429	-0.021
Mof_H 	H 	0.5901	0.9418	0.3529	0.063
Mof_C 	C 	0.6597	0.9239	0.2874	0.13
Mof_C 	C 	0.6398	0.9651	0.3058	-0.06
Mof_C 	C 	0.7145	0.8149	0.2556	0.349
Mof_C 	C 	0.5955	0.6709	0.1538	-0.146
Mof_H 	H 	0.5859	0.6674	0.1093	0.082
Mof_C 	C 	0.6691	0.9036	0.3419	-0.17
Mof_H 	H 	0.665	0.9136	0.386	0.098
Mof_H 	H 	0.5237	0.7	0.2671	0.147
Mof_C 	C 	0.5751	0.6599	0.2071	0.101
Mof_C 	C 	0.5341	0.6053	0.1551	0.016
Mof_H 	H 	0.5572	0.5932	0.1415	0.042
Mof_C 	C 	0.6864	0.8646	0.3325	0.079
Mof_H 	H 	0.6908	0.8479	0.3698	0.025
Mof_C 	C 	0.6955	0.854	0.267	-0.142
Mof_C 	C 	0.6696	0.9132	0.2247	-0.171
Mof_H 	H 	0.666	0.93	0.1874	0.086
Mof_C 	C 	0.6867	0.8732	0.2144	0.081
Mof_H 	H 	0.6906	0.863	0.1703	0.016
Mof_C 	C 	0.6334	0.6886	0.1649	0.044
Mof_H 	H 	0.6491	0.6953	0.1274	0.033
Mof_C 	C 	0.6462	0.6954	0.232	-0.101
Mof_C 	C 	0.5876	0.6658	0.2751	-0.132
Mof_H 	H 	0.572	0.6578	0.3118	0.077
Mof_C 	C 	0.6262	0.6851	0.289	0.036
Mof_H 	H 	0.6356	0.6895	0.3335	0.037
Mof_N 	N 	0.7535	0.756	0.0722	-0.157
Mof_C 	C 	0.7419	0.7878	0.04224	-0.025
Mof_H 	H 	0.7339	0.8095	0.0675	0.045
Mof_C 	C 	0.7769	0.7377	0.04	-0.016
Mof_H 	H 	0.7956	0.7231	0.0635	0.04
Mof_H 	H 	0.7004	0.022	0.223	0.131
Mof_O 	O 	0.4879	0.8975	0.5203	0
Mof_Cu	Cu	0.25245	0.25382	0.68369	0.914
Mof_O 	O 	0.22424	0.30202	0.6963	-0.401
Mof_O 	O 	0.96694	0.04041	0.5738	-0.391
Mof_O 	O 	0.04137	0.46451	0.9317	-0.338
Mof_O 	O 	0.19691	0.21902	0.8018	-0.401
Mof_O 	O 	0.2207	0.29757	0.8131	-0.389
Mof_O 	O 	0.20161	0.22771	0.6863	-0.397
Mof_C 	C 	0.0358	0.1387	0.6962	-0.076
Mof_C 	C 	0.1858	0.2156	0.7421	0.356
Mof_C 	C 	0.1035	0.4648	0.8429	-0.032
Mof_H 	H 	0.0901	0.4418	0.8529	0.069
Mof_C 	C 	0.1597	0.4239	0.7874	0.131
Mof_C 	C 	0.1398	0.4651	0.8058	-0.062
Mof_C 	C 	0.2145	0.3149	0.7556	0.349
Mof_C 	C 	0.0955	0.1709	0.6538	-0.145
Mof_H 	H 	0.0859	0.1674	0.6093	0.086
Mof_C 	C 	0.1691	0.4036	0.8419	-0.169
Mof_H 	H 	0.165	0.4136	0.886	0.103
Mof_H 	H 	0.0237	0.2	0.7671	0.151
Mof_C 	C 	0.0751	0.1599	0.7071	0.102
Mof_C 	C 	0.0341	0.1053	0.6551	0.019
Mof_H 	H 	0.0572	0.0932	0.6415	0.043
Mof_C 	C 	0.1864	0.3646	0.8325	0.08
Mof_H 	H 	0.1908	0.3479	0.8698	0.029
Mof_C 	C 	0.1955	0.354	0.767	-0.14
Mof_C 	C 	0.1696	0.4132	0.7247	-0.17
Mof_H 	H 	0.166	0.43	0.6874	0.088
Mof_C 	C 	0.1867	0.3732	0.7144	0.082
Mof_H 	H 	0.1906	0.363	0.6703	0.019
Mof_C 	C 	0.1334	0.1886	0.6649	0.045
Mof_H 	H 	0.1491	0.1953	0.6274	0.037
Mof_C 	C 	0.1462	0.1954	0.732	-0.098
Mof_C 	C 	0.0876	0.1658	0.7751	-0.131
Mof_H 	H 	0.072	0.1578	0.8118	0.08
Mof_C 	C 	0.1262	0.1851	0.789	0.037
Mof_H 	H 	0.1356	0.1895	0.8335	0.041
Mof_N 	N 	0.2535	0.256	0.5722	-0.171
Mof_C 	C 	0.2419	0.2878	0.54224	0.015
Mof_H 	H 	0.2339	0.3095	0.5675	0.037
Mof_C 	C 	0.2769	0.2377	0.54	0.032
Mof_H 	H 	0.2956	0.2231	0.5635	0.029
Mof_H 	H 	0.2004	0.522	0.723	0.134
Mof_O 	O 	0.9879	0.3975	0.0203	-0.062
Mof_Cu	Cu	0.24755	0.24618	0.18369	0.913
Mof_O 	O 	0.27576	0.19798	0.1963	-0.404
Mof_O 	O 	0.53306	0.45959	0.0738	-0.402
Mof_O 	O 	0.45863	0.03549	0.4317	-0.35
Mof_O 	O 	0.30309	0.28098	0.3018	-0.403
Mof_O 	O 	0.2793	0.20243	0.3131	-0.391
Mof_O 	O 	0.29839	0.27229	0.1863	-0.399
Mof_C 	C 	0.4642	0.3613	0.1962	-0.077
Mof_C 	C 	0.3142	0.2844	0.2421	0.356
Mof_C 	C 	0.3965	0.0352	0.3429	-0.029
Mof_H 	H 	0.4099	0.0582	0.3529	0.064
Mof_C 	C 	0.3403	0.0761	0.2874	0.13
Mof_C 	C 	0.3602	0.0349	0.3058	-0.066
Mof_C 	C 	0.2855	0.1851	0.2556	0.349
Mof_C 	C 	0.4045	0.3291	0.1538	-0.146
Mof_H 	H 	0.4141	0.3326	0.1093	0.082
Mof_C 	C 	0.3309	0.0964	0.3419	-0.17
Mof_H 	H 	0.335	0.0864	0.386	0.097
Mof_H 	H 	0.4763	0.3	0.2671	0.147
Mof_C 	C 	0.4249	0.3401	0.2071	0.101
Mof_C 	C 	0.4659	0.3947	0.1551	0.016
Mof_H 	H 	0.4428	0.4068	0.1415	0.042
Mof_C 	C 	0.3136	0.1354	0.3325	0.078
Mof_H 	H 	0.3092	0.1521	0.3698	0.025
Mof_C 	C 	0.3045	0.146	0.267	-0.142
Mof_C 	C 	0.3304	0.0868	0.2247	-0.171
Mof_H 	H 	0.334	0.07	0.1874	0.084
Mof_C 	C 	0.3133	0.1268	0.2144	0.081
Mof_H 	H 	0.3094	0.137	0.1703	0.015
Mof_C 	C 	0.3666	0.3114	0.1649	0.044
Mof_H 	H 	0.3509	0.3047	0.1274	0.033
Mof_C 	C 	0.3538	0.3046	0.232	-0.101
Mof_C 	C 	0.4124	0.3342	0.2751	-0.132
Mof_H 	H 	0.428	0.3422	0.3118	0.077
Mof_C 	C 	0.3738	0.3149	0.289	0.036
Mof_H 	H 	0.3644	0.3105	0.3335	0.037
Mof_N 	N 	0.2465	0.244	0.0722	-0.157
Mof_C 	C 	0.2581	0.2122	0.04224	-0.025
Mof_H 	H 	0.2661	0.1905	0.0675	0.045
Mof_C 	C 	0.2231	0.2623	0.04	-0.016
Mof_H 	H 	0.2044	0.2769	0.0635	0.04
Mof_H 	H 	0.2996	0.978	0.223	0.137
Mof_O 	O 	0.5121	0.1025	0.5203	0.001
Mof_Cu	Cu	0.74755	0.74618	0.68369	0.914
Mof_O 	O 	0.77576	0.69798	0.6963	-0.401
Mof_O 	O 	0.03306	0.95959	0.5738	-0.391
Mof_O 	O 	0.95863	0.53549	0.9317	-0.335
Mof_O 	O 	0.80309	0.78098	0.8018	-0.401
Mof_O 	O 	0.7793	0.70243	0.8131	-0.389
Mof_O 	O 	0.79839	0.77229	0.6863	-0.396
Mof_C 	C 	0.9642	0.8613	0.6962	-0.07
Mof_C 	C 	0.8142	0.7844	0.7421	0.356
Mof_C 	C 	0.8965	0.5352	0.8429	-0.032
Mof_H 	H 	0.9099	0.5582	0.8529	0.07
Mof_C 	C 	0.8403	0.5761	0.7874	0.132
Mof_C 	C 	0.8602	0.5349	0.8058	-0.061
Mof_C 	C 	0.7855	0.6851	0.7556	0.349
Mof_C 	C 	0.9045	0.8291	0.6538	-0.144
Mof_H 	H 	0.9141	0.8326	0.6093	0.087
Mof_C 	C 	0.8309	0.5964	0.8419	-0.169
Mof_H 	H 	0.835	0.5864	0.886	0.103
Mof_H 	H 	0.9763	0.8	0.7671	0.156
Mof_C 	C 	0.9249	0.8401	0.7071	0.103
Mof_C 	C 	0.9659	0.8947	0.6551	0.025
Mof_H 	H 	0.9428	0.9068	0.6415	0.044
Mof_C 	C 	0.8136	0.6354	0.8325	0.08
Mof_H 	H 	0.8092	0.6521	0.8698	0.029
Mof_C 	C 	0.8045	0.646	0.767	-0.14
Mof_C 	C 	0.8304	0.5868	0.7247	-0.17
Mof_H 	H 	0.834	0.57	0.6874	0.088
Mof_C 	C 	0.8133	0.6268	0.7144	0.082
Mof_H 	H 	0.8094	0.637	0.6703	0.019
Mof_C 	C 	0.8666	0.8114	0.6649	0.045
Mof_H 	H 	0.8509	0.8047	0.6274	0.038
Mof_C 	C 	0.8538	0.8046	0.732	-0.098
Mof_C 	C 	0.9124	0.8342	0.7751	-0.13
Mof_H 	H 	0.928	0.8422	0.8118	0.082
Mof_C 	C 	0.8738	0.8149	0.789	0.038
Mof_H 	H 	0.8644	0.8105	0.8335	0.041
Mof_N 	N 	0.7465	0.744	0.5722	-0.171
Mof_C 	C 	0.7581	0.7122	0.54224	0.015
Mof_H 	H 	0.7661	0.6905	0.5675	0.038
Mof_C 	C 	0.7231	0.7623	0.54	0.032
Mof_H 	H 	0.7044	0.7769	0.5635	0.029
Mof_H 	H 	0.7996	0.478	0.723	0.134
Mof_O 	O 	0.0121	0.6025	0.0203	-0.067
Mof_Cu	Cu	0.24755	0.75382	0.81631	0.914
Mof_O 	O 	0.27576	0.80202	0.8037	-0.399
Mof_O 	O 	0.53306	0.54041	0.9262	-0.383
Mof_O 	O 	0.45863	0.96451	0.5683	-0.343
Mof_O 	O 	0.30309	0.71902	0.6982	-0.403
Mof_O 	O 	0.2793	0.79757	0.6869	-0.391
Mof_O 	O 	0.29839	0.72771	0.8137	-0.394
Mof_C 	C 	0.4642	0.6387	0.8038	-0.072
Mof_C 	C 	0.3142	0.7156	0.7579	0.356
Mof_C 	C 	0.3965	0.9648	0.6571	-0.02
Mof_H 	H 	0.4099	0.9418	0.6471	0.065
Mof_C 	C 	0.3403	0.9239	0.7126	0.131
Mof_C 	C 	0.3602	0.9651	0.6942	-0.059
Mof_C 	C 	0.2855	0.8149	0.7444	0.349
Mof_C 	C 	0.4045	0.6709	0.8462	-0.144
Mof_H 	H 	0.4141	0.6674	0.8907	0.092
Mof_C 	C 	0.3309	0.9036	0.6581	-0.169
Mof_H 	H 	0.335	0.9136	0.614	0.098
Mof_H 	H 	0.4763	0.7	0.7329	0.149
Mof_C 	C 	0.4249	0.6599	0.7929	0.103
Mof_C 	C 	0.4659	0.6053	0.8449	0.014
Mof_H 	H 	0.4428	0.5932	0.8585	0.048
Mof_C 	C 	0.3136	0.8646	0.6675	0.079
Mof_H 	H 	0.3092	0.8479	0.6302	0.026
Mof_C 	C 	0.3045	0.854	0.733	-0.14
Mof_C 	C 	0.3304	0.9132	0.7753	-0.169
Mof_H 	H 	0.334	0.93	0.8126	0.092
Mof_C 	C 	0.3133	0.8732	0.7856	0.083
Mof_H 	H 	0.3094	0.863	0.8297	0.023
Mof_C 	C 	0.3666	0.6886	0.8351	0.046
Mof_H 	H 	0.3509	0.6953	0.8726	0.041
Mof_C 	C 	0.3538	0.6954	0.768	-0.098
Mof_C 	C 	0.4124	0.6658	0.7249	-0.131
Mof_H 	H 	0.428	0.6578	0.6882	0.077
Mof_C 	C 	0.3738	0.6851	0.711	0.037
Mof_H 	H 	0.3644	0.6895	0.6665	0.038
Mof_N 	N 	0.2465	0.756	0.9278	-0.185
Mof_C 	C 	0.2581	0.7878	0.95776	0.055
Mof_H 	H 	0.2661	0.8095	0.9325	0.03
Mof_C 	C 	0.2231	0.7377	0.96	0.081
Mof_H 	H 	0.2044	0.7231	0.9365	0.019
Mof_H 	H 	0.2996	0.022	0.777	0.136
Mof_O 	O 	0.5121	0.8975	0.4797	-0.001
Mof_Cu	Cu	0.74755	0.25382	0.31631	0.914
Mof_O 	O 	0.77576	0.30202	0.3037	-0.402
Mof_O 	O 	0.03306	0.04041	0.4262	-0.398
Mof_O 	O 	0.95863	0.46451	0.0683	-0.349
Mof_O 	O 	0.80309	0.21902	0.1982	-0.405
Mof_O 	O 	0.7793	0.29757	0.1869	-0.393
Mof_O 	O 	0.79839	0.22771	0.3137	-0.397
Mof_C 	C 	0.9642	0.1387	0.3038	-0.073
Mof_C 	C 	0.8142	0.2156	0.2579	0.356
Mof_C 	C 	0.8965	0.4648	0.1571	-0.034
Mof_H 	H 	0.9099	0.4418	0.1471	0.067
Mof_C 	C 	0.8403	0.4239	0.2126	0.13
Mof_C 	C 	0.8602	0.4651	0.1942	-0.064
Mof_C 	C 	0.7855	0.3149	0.2444	0.349
Mof_C 	C 	0.9045	0.1709	0.3462	-0.145
Mof_H 	H 	0.9141	0.1674	0.3907	0.087
Mof_C 	C 	0.8309	0.4036	0.1581	-0.17
Mof_H 	H 	0.835	0.4136	0.114	0.093
Mof_H 	H 	0.9763	0.2	0.2329	0.152
Mof_C 	C 	0.9249	0.1599	0.2929	0.102
Mof_C 	C 	0.9659	0.1053	0.3449	0.026
Mof_H 	H 	0.9428	0.0932	0.3585	0.041
Mof_C 	C 	0.8136	0.3646	0.1675	0.077
Mof_H 	H 	0.8092	0.3479	0.1302	0.022
Mof_C 	C 	0.8045	0.354	0.233	-0.142
Mof_C 	C 	0.8304	0.4132	0.2753	-0.17
Mof_H 	H 	0.834	0.43	0.3126	0.088
Mof_C 	C 	0.8133	0.3732	0.2856	0.082
Mof_H 	H 	0.8094	0.363	0.3297	0.019
Mof_C 	C 	0.8666	0.1886	0.3351	0.045
Mof_H 	H 	0.8509	0.1953	0.3726	0.037
Mof_C 	C 	0.8538	0.1954	0.268	-0.1
Mof_C 	C 	0.9124	0.1658	0.2249	-0.133
Mof_H 	H 	0.928	0.1578	0.1882	0.075
Mof_C 	C 	0.8738	0.1851	0.211	0.036
Mof_H 	H 	0.8644	0.1895	0.1665	0.034
Mof_N 	N 	0.7465	0.256	0.4278	-0.171
Mof_C 	C 	0.7581	0.2878	0.45776	0.015
Mof_H 	H 	0.7661	0.3095	0.4325	0.037
Mof_C 	C 	0.7231	0.2377	0.46	0.032
Mof_H 	H 	0.7044	0.2231	0.4365	0.029
Mof_H 	H 	0.7996	0.522	0.277	0.133
Mof_O 	O 	0.0121	0.3975	0.9797	-0.005
Mof_Cu	Cu	0.75245	0.24618	0.81631	0.914
Mof_O 	O 	0.72424	0.19798	0.8037	-0.4
Mof_O 	O 	0.46694	0.45959	0.9262	-0.383
Mof_O 	O 	0.54137	0.03549	0.5683	-0.349
Mof_O 	O 	0.69691	0.28098	0.6982	-0.403
Mof_O 	O 	0.7207	0.20243	0.6869	-0.391
Mof_O 	O 	0.70161	0.27229	0.8137	-0.394
Mof_C 	C 	0.5358	0.3613	0.8038	-0.072
Mof_C 	C 	0.6858	0.2844	0.7579	0.356
Mof_C 	C 	0.6035	0.0352	0.6571	-0.028
Mof_H 	H 	0.5901	0.0582	0.6471	0.066
Mof_C 	C 	0.6597	0.0761	0.7126	0.131
Mof_C 	C 	0.6398	0.0349	0.6942	-0.064
Mof_C 	C 	0.7145	0.1851	0.7444	0.349
Mof_C 	C 	0.5955	0.3291	0.8462	-0.144
Mof_H 	H 	0.5859	0.3326	0.8907	0.092
Mof_C 	C 	0.6691	0.0964	0.6581	-0.169
Mof_H 	H 	0.665	0.0864	0.614	0.097
Mof_H 	H 	0.5237	0.3	0.7329	0.149
Mof_C 	C 	0.5751	0.3401	0.7929	0.103
Mof_C 	C 	0.5341	0.3947	0.8449	0.014
Mof_H 	H 	0.5572	0.4068	0.8585	0.048
Mof_C 	C 	0.6864	0.1354	0.6675	0.078
Mof_H 	H 	0.6908	0.1521	0.6302	0.025
Mof_C 	C 	0.6955	0.146	0.733	-0.14
Mof_C 	C 	0.6696	0.0868	0.7753	-0.169
Mof_H 	H 	0.666	0.07	0.8126	0.09
Mof_C 	C 	0.6867	0.1268	0.7856	0.082
Mof_H 	H 	0.6906	0.137	0.8297	0.022
Mof_C 	C 	0.6334	0.3114	0.8351	0.046
Mof_H 	H 	0.6491	0.3047	0.8726	0.041
Mof_C 	C 	0.6462	0.3046	0.768	-0.098
Mof_C 	C 	0.5876	0.3342	0.7249	-0.131
Mof_H 	H 	0.572	0.3422	0.6882	0.077
Mof_C 	C 	0.6262	0.3149	0.711	0.036
Mof_H 	H 	0.6356	0.3105	0.6665	0.038
Mof_N 	N 	0.7535	0.244	0.9278	-0.185
Mof_C 	C 	0.7419	0.2122	0.95776	0.054
Mof_H 	H 	0.7339	0.1905	0.9325	0.03
Mof_C 	C 	0.7769	0.2623	0.96	0.081
Mof_H 	H 	0.7956	0.2769	0.9365	0.019
Mof_H 	H 	0.7004	0.978	0.777	0.142
Mof_O 	O 	0.4879	0.1025	0.4797	-0.001
Mof_Cu	Cu	0.25245	0.74618	0.31631	0.914
Mof_O 	O 	0.22424	0.69798	0.3037	-0.402
Mof_O 	O 	0.96694	0.95959	0.4262	-0.387
Mof_O 	O 	0.04137	0.53549	0.0683	-0.353
Mof_O 	O 	0.19691	0.78098	0.1982	-0.405
Mof_O 	O 	0.2207	0.70243	0.1869	-0.393
Mof_O 	O 	0.20161	0.77229	0.3137	-0.397
Mof_C 	C 	0.0358	0.8613	0.3038	-0.076
Mof_C 	C 	0.1858	0.7844	0.2579	0.356
Mof_C 	C 	0.1035	0.5352	0.1571	-0.033
Mof_H 	H 	0.0901	0.5582	0.1471	0.065
Mof_C 	C 	0.1597	0.5761	0.2126	0.129
Mof_C 	C 	0.1398	0.5349	0.1942	-0.065
Mof_C 	C 	0.2145	0.6851	0.2444	0.349
Mof_C 	C 	0.0955	0.8291	0.3462	-0.145
Mof_H 	H 	0.0859	0.8326	0.3907	0.086
Mof_C 	C 	0.1691	0.5964	0.1581	-0.17
Mof_H 	H 	0.165	0.5864	0.114	0.093
Mof_H 	H 	0.0237	0.8	0.2329	0.147
Mof_C 	C 	0.0751	0.8401	0.2929	0.102
Mof_C 	C 	0.0341	0.8947	0.3449	0.017
Mof_H 	H 	0.0572	0.9068	0.3585	0.044
Mof_C 	C 	0.1864	0.6354	0.1675	0.077
Mof_H 	H 	0.1908	0.6521	0.1302	0.022
Mof_C 	C 	0.1955	0.646	0.233	-0.142
Mof_C 	C 	0.1696	0.5868	0.2753	-0.171
Mof_H 	H 	0.166	0.57	0.3126	0.088
Mof_C 	C 	0.1867	0.6268	0.2856	0.081
Mof_H 	H 	0.1906	0.637	0.3297	0.019
Mof_C 	C 	0.1334	0.8114	0.3351	0.045
Mof_H 	H 	0.1491	0.8047	0.3726	0.037
Mof_C 	C 	0.1462	0.8046	0.268	-0.1
Mof_C 	C 	0.0876	0.8342	0.2249	-0.133
Mof_H 	H 	0.072	0.8422	0.1882	0.074
Mof_C 	C 	0.1262	0.8149	0.211	0.035
Mof_H 	H 	0.1356	0.8105	0.1665	0.034
Mof_N 	N 	0.2535	0.744	0.4278	-0.171
Mof_C 	C 	0.2419	0.7122	0.45776	0.015
Mof_H 	H 	0.2339	0.6905	0.4325	0.037
Mof_C 	C 	0.2769	0.7623	0.46	0.032
Mof_H 	H 	0.2956	0.7769	0.4365	0.029
Mof_H 	H 	0.2004	0.478	0.277	0.133
Mof_O 	O 	0.9879	0.6025	0.9797	0.017
Mof_Cu	Cu	0.5	0.03849	0.5	0.917
Mof_O 	O 	0.5	0.1038	0.5	-0.199
Mof_Cu	Cu	-0	0.53849	-0	0.905
Mof_O 	O 	-0	0.6038	-0	-0.103
Mof_Cu	Cu	0.5	0.96151	0.5	0.919
Mof_O 	O 	0.5	0.8962	0.5	-0.198
Mof_Cu	Cu	-4.47187e-33	0.46151	-0	0.905
Mof_O 	O 	4.47187e-33	0.3962	-0	-0.103
Mof_Cu	Cu	0.5379	0.5	-0	0.878
Mof_Cu	Cu	0.0379	-2.23594e-33	0.5	0.887
Mof_Cu	Cu	0.4621	0.5	-0	0.878
Mof_Cu	Cu	0.9621	-2.23594e-33	0.5	0.889
Mof_C 	C 	0.5	0.4097	0.8653	-0.088
Mof_C 	C 	0.5	0.445	0.9111	0.335
Mof_N 	N 	0.5	0.3069	0.7458	-0.291
Mof_C 	C 	0.5	0.343	0.7793	0.102
Mof_C 	C 	1.19551e-32	0.9097	0.3653	-0.102
Mof_C 	C 	5.34447e-33	0.945	0.4111	0.33
Mof_N 	N 	1.6397e-33	0.8069	0.2458	-0.297
Mof_C 	C 	2.82878e-33	0.843	0.2793	0.096
Mof_C 	C 	0.5	0.5903	0.8653	-0.088
Mof_C 	C 	0.5	0.555	0.9111	0.335
Mof_N 	N 	0.5	0.6931	0.7458	-0.291
Mof_C 	C 	0.5	0.657	0.7793	0.102
Mof_C 	C 	7.75389e-34	0.0903	0.3653	-0.104
Mof_C 	C 	8.72605e-34	0.055	0.4111	0.331
Mof_N 	N 	-5.9623e-34	0.1931	0.2458	-0.297
Mof_C 	C 	2.82878e-33	0.157	0.2793	0.096
Mof_C 	C 	0.5	0.4097	0.1347	-0.098
Mof_C 	C 	0.5	0.445	0.0889	0.336
Mof_N 	N 	0.5	0.3069	0.2542	-0.292
Mof_C 	C 	0.5	0.343	0.2207	0.102
Mof_C 	C 	1.34722e-33	0.9097	0.6347	-0.1
Mof_C 	C 	1.25e-33	0.945	0.5889	0.331
Mof_N 	N 	6.07274e-33	0.8069	0.7542	-0.298
Mof_C 	C 	1.52976e-33	0.843	0.7207	0.098
Mof_C 	C 	0.5	0.5903	0.1347	-0.098
Mof_C 	C 	0.5	0.555	0.0889	0.336
Mof_N 	N 	0.5	0.6931	0.2542	-0.292
Mof_C 	C 	0.5	0.657	0.2207	0.102
Mof_C 	C 	-3.12465e-33	0.0903	0.6347	-0.103
Mof_C 	C 	1.25e-33	0.055	0.5889	0.332
Mof_N 	N 	1.60087e-33	0.1931	0.7542	-0.298
Mof_C 	C 	1.52976e-33	0.157	0.7207	0.098
Mof_N 	N 	0.3087	4.47187e-33	0.7586	-0.287
Mof_C 	C 	0.4097	0	0.6378	-0.026
Mof_C 	C 	0.4449	0	0.5844	0.23
Mof_C 	C 	0.3414	0	0.7192	0.105
Mof_N 	N 	0.8087	0.5	0.2586	-0.281
Mof_C 	C 	0.9097	0.5	0.1378	-0.016
Mof_C 	C 	0.9449	0.5	0.0844	0.231
Mof_C 	C 	0.8414	0.5	0.2192	0.108
Mof_N 	N 	0.6913	4.47187e-33	0.7586	-0.287
Mof_C 	C 	0.5903	0	0.6378	-0.026
Mof_C 	C 	0.5551	0	0.5844	0.23
Mof_C 	C 	0.6586	0	0.7192	0.105
Mof_N 	N 	0.1913	0.5	0.2586	-0.281
Mof_C 	C 	0.0903	0.5	0.1378	-0.018
Mof_C 	C 	0.0551	0.5	0.0844	0.23
Mof_C 	C 	0.1586	0.5	0.2192	0.108
Mof_N 	N 	0.6913	1.11797e-33	0.2414	-0.286
Mof_C 	C 	0.5903	0	0.3622	-0.027
Mof_C 	C 	0.5551	2.23594e-33	0.4156	0.229
Mof_C 	C 	0.6586	0	0.2808	0.102
Mof_N 	N 	0.1913	0.5	0.7414	-0.281
Mof_C 	C 	0.0903	0.5	0.8622	-0.013
Mof_C 	C 	0.0551	0.5	0.9156	0.236
Mof_C 	C 	0.1586	0.5	0.7808	0.11
Mof_N 	N 	0.3087	1.11797e-33	0.2414	-0.286
Mof_C 	C 	0.4097	0	0.3622	-0.027
Mof_C 	C 	0.4449	2.23594e-33	0.4156	0.229
Mof_C 	C 	0.3414	0	0.2808	0.102
Mof_N 	N 	0.8087	0.5	0.7414	-0.281
Mof_C 	C 	0.9097	0.5	0.8622	-0.012
Mof_C 	C 	0.9449	0.5	0.9156	0.237
Mof_C 	C 	0.8414	0.5	0.7808	0.11
_end
