data_functionalizedCrystal
_audit_creation_method	'EQeq! by Chris Wilmer'
_symmetry_space_group_name_H-M	'P1'
_symmetry_Int_Tables_number	1
_symmetry_cell_setting	triclinic
loop_
_symmetry_equiv_pos_as_xyz
  x,y,z
_cell_length_a	12.9653
_cell_length_b	13.906
_cell_length_c	14.62
_cell_angle_alpha	95.9483
_cell_angle_beta	90
_cell_angle_gamma	117.786
loop_
_atom_site_label
_atom_site_type_symbol
_atom_site_fract_x
_atom_site_fract_y
_atom_site_fract_z
_atom_site_charge
Mof_Tb	Tb	0.46749	0.34548	0.4679	2.111
Mof_Tb	Tb	0.12201	0.65452	0.0321	2.056
Mof_Tb	Tb	0.53251	0.65452	0.5321	2.111
Mof_Tb	Tb	0.87799	0.34548	0.9679	2.056
Mof_H 	H 	0.3306	0.2628	0.7283	0.106
Mof_H 	H 	0.3183	0.5436	0.7901	0.052
Mof_H 	H 	0.1338	0.2866	0.9315	0.061
Mof_H 	H 	0.3375	0.0012	0.8912	0.195
Mof_H 	H 	0.04	0.092	0.8847	-0
Mof_H 	H 	0.0083	0.9262	0.9351	0.102
Mof_H 	H 	0.523	0.1928	0.4092	0.214
Mof_H 	H 	0.0678	0.7372	0.7717	0.118
Mof_H 	H 	0.7747	0.4564	0.7099	0.054
Mof_H 	H 	0.8472	0.7134	0.5685	0.061
Mof_H 	H 	0.3363	0.9988	0.6088	0.195
Mof_H 	H 	0.948	0.908	0.6153	-0.007
Mof_H 	H 	0.0821	0.0738	0.5649	0.102
Mof_H 	H 	0.3302	0.8072	0.0908	0.211
Mof_H 	H 	0.6694	0.7372	0.2717	0.106
Mof_H 	H 	0.6817	0.4564	0.2099	0.052
Mof_H 	H 	0.8662	0.7134	0.0685	0.061
Mof_H 	H 	0.6625	0.9988	0.1088	0.195
Mof_H 	H 	0.96	0.908	0.1153	-0
Mof_H 	H 	0.9917	0.0738	0.0649	0.102
Mof_H 	H 	0.477	0.8072	0.5908	0.214
Mof_H 	H 	0.9322	0.2628	0.2283	0.118
Mof_H 	H 	0.2253	0.5436	0.2901	0.054
Mof_H 	H 	0.1528	0.2866	0.4315	0.061
Mof_H 	H 	0.6637	0.0012	0.3912	0.195
Mof_H 	H 	0.052	0.092	0.3847	-0.007
Mof_H 	H 	0.9179	0.9262	0.4351	0.102
Mof_H 	H 	0.6698	0.1928	0.9092	0.211
Mof_C 	C 	0.2329	0.2568	0.8368	0.113
Mof_C 	C 	0.3024	0.3034	0.7647	-0.051
Mof_C 	C 	0.3308	0.4076	0.7453	-0.098
Mof_C 	C 	0.2939	0.4714	0.8	0.04
Mof_C 	C 	0.2191	0.426	0.8709	-0.103
Mof_C 	C 	0.1867	0.318	0.887	-0.064
Mof_C 	C 	0.2103	0.1478	0.8609	-0.204
Mof_C 	C 	0.2933	0.1148	0.8608	0.463
Mof_C 	C 	0.2765	0.0188	0.8911	-0.32
Mof_C 	C 	0.1012	0.0748	0.8871	0.091
Mof_C 	C 	0.4046	0.4516	0.6645	0.472
Mof_C 	C 	0.1519	0.8468	0.9607	0.275
Mof_C 	C 	0.1713	0.9492	0.9211	0.113
Mof_C 	C 	0.0818	0.9746	0.9176	-0.162
Mof_C 	C 	0.1776	0.4934	0.9289	0.432
Mof_C 	C 	0.9761	0.7432	0.6632	0.119
Mof_C 	C 	0.999	0.6966	0.7353	-0.074
Mof_C 	C 	0.9232	0.5924	0.7547	-0.085
Mof_C 	C 	0.8225	0.5286	0.7	0.032
Mof_C 	C 	0.7931	0.574	0.6291	-0.102
Mof_C 	C 	0.8687	0.682	0.613	-0.069
Mof_C 	C 	0.0625	0.8522	0.6391	-0.207
Mof_C 	C 	0.1785	0.8852	0.6392	0.462
Mof_C 	C 	0.2577	0.9812	0.6089	-0.31
Mof_C 	C 	0.0264	0.9252	0.6129	0.105
Mof_C 	C 	0.953	0.5484	0.8355	0.449
Mof_C 	C 	0.3051	0.1532	0.5393	0.278
Mof_C 	C 	0.2221	0.0508	0.5789	0.104
Mof_C 	C 	0.1072	0.0254	0.5824	-0.172
Mof_C 	C 	0.6842	0.5066	0.5711	0.435
Mof_C 	C 	0.7671	0.7432	0.1632	0.113
Mof_C 	C 	0.6976	0.6966	0.2353	-0.051
Mof_C 	C 	0.6692	0.5924	0.2547	-0.098
Mof_C 	C 	0.7061	0.5286	0.2	0.04
Mof_C 	C 	0.7809	0.574	0.1291	-0.103
Mof_C 	C 	0.8133	0.682	0.113	-0.064
Mof_C 	C 	0.7897	0.8522	0.1391	-0.204
Mof_C 	C 	0.7067	0.8852	0.1392	0.463
Mof_C 	C 	0.7235	0.9812	0.1089	-0.32
Mof_C 	C 	0.8988	0.9252	0.1129	0.091
Mof_C 	C 	0.5954	0.5484	0.3355	0.472
Mof_C 	C 	0.8481	0.1532	0.0393	0.275
Mof_C 	C 	0.8287	0.0508	0.0789	0.113
Mof_C 	C 	0.9182	0.0254	0.0824	-0.162
Mof_C 	C 	0.8224	0.5066	0.0711	0.432
Mof_C 	C 	0.0239	0.2568	0.3368	0.119
Mof_C 	C 	0.001	0.3034	0.2647	-0.074
Mof_C 	C 	0.0768	0.4076	0.2453	-0.085
Mof_C 	C 	0.1775	0.4714	0.3	0.032
Mof_C 	C 	0.2069	0.426	0.3709	-0.102
Mof_C 	C 	0.1313	0.318	0.387	-0.069
Mof_C 	C 	0.9375	0.1478	0.3609	-0.207
Mof_C 	C 	0.8215	0.1148	0.3608	0.462
Mof_C 	C 	0.7423	0.0188	0.3911	-0.31
Mof_C 	C 	0.9736	0.0748	0.3871	0.105
Mof_C 	C 	0.047	0.4516	0.1645	0.449
Mof_C 	C 	0.6949	0.8468	0.4607	0.278
Mof_C 	C 	0.7779	0.9492	0.4211	0.104
Mof_C 	C 	0.8928	0.9746	0.4176	-0.172
Mof_C 	C 	0.3158	0.4934	0.4289	0.435
Mof_O 	O 	0.4275	0.5454	0.6481	-0.514
Mof_O 	O 	0.437	0.3886	0.621	-0.503
Mof_O 	O 	0.2443	0.5952	0.945	-0.426
Mof_O 	O 	0.0782	0.449	0.9606	-0.6
Mof_O 	O 	0.2342	0.8228	0.9628	-0.4
Mof_O 	O 	0.0591	0.7914	0.9942	-0.411
Mof_O 	O 	0.5674	0.2536	0.3898	-0.46
Mof_O 	O 	0.8821	0.4546	0.8519	-0.506
Mof_O 	O 	0.0484	0.6114	0.879	-0.483
Mof_O 	O 	0.6491	0.4048	0.555	-0.436
Mof_O 	O 	0.6292	0.551	0.5394	-0.616
Mof_O 	O 	0.4114	0.1772	0.5372	-0.411
Mof_O 	O 	0.2677	0.2086	0.5058	-0.423
Mof_O 	O 	0.3138	0.7464	0.1102	-0.457
Mof_O 	O 	0.5725	0.4546	0.3519	-0.514
Mof_O 	O 	0.563	0.6114	0.379	-0.503
Mof_O 	O 	0.7557	0.4048	0.055	-0.426
Mof_O 	O 	0.9218	0.551	0.0394	-0.6
Mof_O 	O 	0.7658	0.1772	0.0372	-0.4
Mof_O 	O 	0.9409	0.2086	0.0058	-0.411
Mof_O 	O 	0.4326	0.7464	0.6102	-0.46
Mof_O 	O 	0.1179	0.5454	0.1481	-0.506
Mof_O 	O 	0.9516	0.3886	0.121	-0.483
Mof_O 	O 	0.3509	0.5952	0.445	-0.436
Mof_O 	O 	0.3708	0.449	0.4606	-0.616
Mof_O 	O 	0.5886	0.8228	0.4628	-0.411
Mof_O 	O 	0.7323	0.7914	0.4942	-0.423
Mof_O 	O 	0.6862	0.2536	0.8898	-0.457
Mof_F 	F 	0.3967	0.1758	0.8276	-0.474
Mof_F 	F 	0.2209	0.8242	0.6724	-0.473
Mof_F 	F 	0.6033	0.8242	0.1724	-0.474
Mof_F 	F 	0.7791	0.1758	0.3276	-0.473
_end
