data_functionalizedCrystal
_audit_creation_method	'EQeq! by Chris Wilmer'
_symmetry_space_group_name_H-M	'P1'
_symmetry_Int_Tables_number	1
_symmetry_cell_setting	triclinic
loop_
_symmetry_equiv_pos_as_xyz
  x,y,z
_cell_length_a	24.043
_cell_length_b	24.043
_cell_length_c	24.043
_cell_angle_alpha	90
_cell_angle_beta	90
_cell_angle_gamma	90
loop_
_atom_site_label
_atom_site_type_symbol
_atom_site_fract_x
_atom_site_fract_y
_atom_site_fract_z
_atom_site_charge
Mof_Na	Na	0.14155	0.85845	0.35845	3.806
Mof_Na	Na	0.35845	0.14155	0.85845	3.806
Mof_Na	Na	0.85845	0.35845	0.14155	3.806
Mof_Na	Na	0.64155	0.64155	0.64155	3.806
Mof_Mn	Mn	0.15589	0.98675	0.15091	1.244
Mof_Mn	Mn	0.20468	0.03857	0.05105	1.191
Mof_Mn	Mn	0.09337	0.97447	0.03716	1.192
Mof_Mn	Mn	0.05531	0.76985	0.41644	0.934
Mof_Mn	Mn	0.03426	0.93334	0.14352	1.208
Mof_Mn	Mn	0.08408	0.52966	0.53024	0.925
Mof_Mn	Mn	0.34411	0.01325	0.65091	1.246
Mof_Mn	Mn	0.29532	0.96143	0.55105	1.187
Mof_Mn	Mn	0.40663	0.02553	0.53716	1.193
Mof_Mn	Mn	0.44469	0.23015	0.91644	0.934
Mof_Mn	Mn	0.46574	0.06666	0.64352	1.208
Mof_Mn	Mn	0.41592	0.47034	0.03024	0.925
Mof_Mn	Mn	0.84411	0.48675	0.34909	1.246
Mof_Mn	Mn	0.79532	0.53857	0.44895	1.187
Mof_Mn	Mn	0.90663	0.47447	0.46284	1.193
Mof_Mn	Mn	0.94469	0.26985	0.08356	0.933
Mof_Mn	Mn	0.96574	0.43334	0.35648	1.207
Mof_Mn	Mn	0.91592	0.02966	0.96976	0.924
Mof_Mn	Mn	0.65589	0.51325	0.84909	1.246
Mof_Mn	Mn	0.70468	0.46143	0.94895	1.188
Mof_Mn	Mn	0.59337	0.52553	0.96284	1.193
Mof_Mn	Mn	0.55531	0.73015	0.58356	0.934
Mof_Mn	Mn	0.53426	0.56666	0.85648	1.208
Mof_Mn	Mn	0.58408	0.97034	0.46976	0.925
Mof_Mn	Mn	0.15091	0.15589	0.98675	1.243
Mof_Mn	Mn	0.05105	0.20468	0.03857	1.19
Mof_Mn	Mn	0.03716	0.09337	0.97447	1.191
Mof_Mn	Mn	0.41644	0.05531	0.76985	0.933
Mof_Mn	Mn	0.14352	0.03426	0.93334	1.208
Mof_Mn	Mn	0.53024	0.08408	0.52966	0.925
Mof_Mn	Mn	0.65091	0.34411	0.01325	1.246
Mof_Mn	Mn	0.55105	0.29532	0.96143	1.187
Mof_Mn	Mn	0.53716	0.40663	0.02553	1.193
Mof_Mn	Mn	0.91644	0.44469	0.23015	0.934
Mof_Mn	Mn	0.64352	0.46574	0.06666	1.208
Mof_Mn	Mn	0.03024	0.41592	0.47034	0.925
Mof_Mn	Mn	0.34909	0.84411	0.48675	1.246
Mof_Mn	Mn	0.44895	0.79532	0.53857	1.187
Mof_Mn	Mn	0.46284	0.90663	0.47447	1.193
Mof_Mn	Mn	0.08356	0.94469	0.26985	0.933
Mof_Mn	Mn	0.35648	0.96574	0.43334	1.207
Mof_Mn	Mn	0.96976	0.91592	0.02966	0.924
Mof_Mn	Mn	0.84909	0.65589	0.51325	1.246
Mof_Mn	Mn	0.94895	0.70468	0.46143	1.188
Mof_Mn	Mn	0.96284	0.59337	0.52553	1.193
Mof_Mn	Mn	0.58356	0.55531	0.73015	0.934
Mof_Mn	Mn	0.85648	0.53426	0.56666	1.208
Mof_Mn	Mn	0.46976	0.58408	0.97034	0.925
Mof_Mn	Mn	0.98675	0.15091	0.15589	1.243
Mof_Mn	Mn	0.03857	0.05105	0.20468	1.19
Mof_Mn	Mn	0.97447	0.03716	0.09337	1.191
Mof_Mn	Mn	0.76985	0.41644	0.05531	0.933
Mof_Mn	Mn	0.93334	0.14352	0.03426	1.208
Mof_Mn	Mn	0.52966	0.53024	0.08408	0.925
Mof_Mn	Mn	0.01325	0.65091	0.34411	1.246
Mof_Mn	Mn	0.96143	0.55105	0.29532	1.187
Mof_Mn	Mn	0.02553	0.53716	0.40663	1.193
Mof_Mn	Mn	0.23015	0.91644	0.44469	0.934
Mof_Mn	Mn	0.06666	0.64352	0.46574	1.208
Mof_Mn	Mn	0.47034	0.03024	0.41592	0.925
Mof_Mn	Mn	0.48675	0.34909	0.84411	1.246
Mof_Mn	Mn	0.53857	0.44895	0.79532	1.187
Mof_Mn	Mn	0.47447	0.46284	0.90663	1.193
Mof_Mn	Mn	0.26985	0.08356	0.94469	0.933
Mof_Mn	Mn	0.43334	0.35648	0.96574	1.207
Mof_Mn	Mn	0.02966	0.96976	0.91592	0.924
Mof_Mn	Mn	0.51325	0.84909	0.65589	1.246
Mof_Mn	Mn	0.46143	0.94895	0.70468	1.188
Mof_Mn	Mn	0.52553	0.96284	0.59337	1.193
Mof_Mn	Mn	0.73015	0.58356	0.55531	0.934
Mof_Mn	Mn	0.56666	0.85648	0.53426	1.208
Mof_Mn	Mn	0.97034	0.46976	0.58408	0.925
Mof_Mn	Mn	0.11344	0.11344	0.11344	0.994
Mof_Mn	Mn	0.38656	0.88656	0.61344	0.994
Mof_Mn	Mn	0.88656	0.61344	0.38656	0.994
Mof_Mn	Mn	0.61344	0.38656	0.88656	0.994
Mof_H 	H 	0.1508	0.8488	0.1097	-0.135
Mof_H 	H 	0.1168	0.8485	0.0539	-0.123
Mof_H 	H 	0.2185	0.9024	0.07	0.205
Mof_H 	H 	0.2113	0.8472	0.0367	0.188
Mof_H 	H 	0.1693	0.8953	0.963	-0.118
Mof_H 	H 	0.2278	0.9216	0.9757	-0.133
Mof_H 	H 	0.2825	0.0018	0.1726	-0.187
Mof_H 	H 	0.2922	0.9505	0.1336	-0.185
Mof_H 	H 	0.3152	0.0606	0.1076	0.258
Mof_H 	H 	0.3593	0.0136	0.1169	0.259
Mof_H 	H 	0.3241	0.9688	0.0374	-0.174
Mof_H 	H 	0.3542	0.0253	0.0253	-0.182
Mof_H 	H 	0.1846	0.7059	0.4363	-0.224
Mof_H 	H 	0.1724	0.7521	0.4805	-0.219
Mof_H 	H 	0.1775	0.6956	0.5497	0.248
Mof_H 	H 	0.2266	0.6786	0.5115	0.263
Mof_H 	H 	0.1802	0.6084	0.5624	-0.174
Mof_H 	H 	0.1968	0.5952	0.5007	-0.173
Mof_H 	H 	0.2332	0.1233	0.2584	0.393
Mof_H 	H 	0.1779	0.1567	0.2676	0.391
Mof_H 	H 	0.1904	0.1038	0.3036	0.398
Mof_H 	H 	0.0594	0.8229	0.5346	0.42
Mof_H 	H 	0.1143	0.7982	0.5597	0.396
Mof_H 	H 	0.0989	0.8606	0.5703	0.396
Mof_H 	H 	0.2756	0.8803	0.2313	0.477
Mof_H 	H 	0.2435	0.8397	0.2709	0.384
Mof_H 	H 	0.2427	0.8299	0.2065	0.448
Mof_H 	H 	0.3492	0.1512	0.6097	-0.135
Mof_H 	H 	0.3832	0.1515	0.5539	-0.123
Mof_H 	H 	0.2815	0.0976	0.57	0.205
Mof_H 	H 	0.2887	0.1528	0.5367	0.188
Mof_H 	H 	0.3307	0.1047	0.463	-0.118
Mof_H 	H 	0.2722	0.0784	0.4757	-0.133
Mof_H 	H 	0.2175	0.9982	0.6726	-0.192
Mof_H 	H 	0.2078	0.0495	0.6336	-0.187
Mof_H 	H 	0.1848	0.9394	0.6076	0.259
Mof_H 	H 	0.1407	0.9864	0.6169	0.26
Mof_H 	H 	0.1759	0.0312	0.5374	-0.171
Mof_H 	H 	0.1458	0.9747	0.5253	-0.182
Mof_H 	H 	0.3154	0.2941	0.9363	-0.223
Mof_H 	H 	0.3276	0.2479	0.9805	-0.218
Mof_H 	H 	0.3225	0.3044	0.0497	0.247
Mof_H 	H 	0.2734	0.3214	0.0115	0.262
Mof_H 	H 	0.3198	0.3916	0.0624	-0.173
Mof_H 	H 	0.3032	0.4048	0.0007	-0.172
Mof_H 	H 	0.2668	0.8767	0.7584	0.393
Mof_H 	H 	0.3221	0.8433	0.7676	0.391
Mof_H 	H 	0.3096	0.8962	0.8036	0.398
Mof_H 	H 	0.4406	0.1771	0.0346	0.42
Mof_H 	H 	0.3857	0.2018	0.0597	0.396
Mof_H 	H 	0.4011	0.1394	0.0703	0.395
Mof_H 	H 	0.2244	0.1197	0.7313	0.478
Mof_H 	H 	0.2565	0.1603	0.7709	0.384
Mof_H 	H 	0.2573	0.1701	0.7065	0.449
Mof_H 	H 	0.8492	0.3488	0.3903	-0.135
Mof_H 	H 	0.8832	0.3485	0.4461	-0.123
Mof_H 	H 	0.7815	0.4024	0.43	0.205
Mof_H 	H 	0.7887	0.3472	0.4633	0.188
Mof_H 	H 	0.8307	0.3953	0.537	-0.118
Mof_H 	H 	0.7722	0.4216	0.5243	-0.133
Mof_H 	H 	0.7175	0.5018	0.3274	-0.191
Mof_H 	H 	0.7078	0.4505	0.3664	-0.187
Mof_H 	H 	0.6848	0.5606	0.3924	0.259
Mof_H 	H 	0.6407	0.5136	0.3831	0.261
Mof_H 	H 	0.6759	0.4688	0.4626	-0.172
Mof_H 	H 	0.6458	0.5253	0.4747	-0.182
Mof_H 	H 	0.8154	0.2059	0.0637	-0.223
Mof_H 	H 	0.8276	0.2521	0.0195	-0.219
Mof_H 	H 	0.8225	0.1956	0.9503	0.248
Mof_H 	H 	0.7734	0.1786	0.9885	0.263
Mof_H 	H 	0.8198	0.1084	0.9376	-0.174
Mof_H 	H 	0.8032	0.0952	0.9993	-0.173
Mof_H 	H 	0.7668	0.6233	0.2416	0.393
Mof_H 	H 	0.8221	0.6567	0.2324	0.391
Mof_H 	H 	0.8096	0.6038	0.1964	0.398
Mof_H 	H 	0.9406	0.3229	0.9654	0.42
Mof_H 	H 	0.8857	0.2982	0.9403	0.396
Mof_H 	H 	0.9011	0.3606	0.9297	0.396
Mof_H 	H 	0.7244	0.3803	0.2687	0.478
Mof_H 	H 	0.7565	0.3397	0.2291	0.384
Mof_H 	H 	0.7573	0.3299	0.2935	0.449
Mof_H 	H 	0.6508	0.6512	0.8903	-0.135
Mof_H 	H 	0.6168	0.6515	0.9461	-0.122
Mof_H 	H 	0.7185	0.5976	0.93	0.205
Mof_H 	H 	0.7113	0.6528	0.9633	0.188
Mof_H 	H 	0.6693	0.6047	0.037	-0.117
Mof_H 	H 	0.7278	0.5784	0.0243	-0.133
Mof_H 	H 	0.7825	0.4982	0.8274	-0.191
Mof_H 	H 	0.7922	0.5495	0.8664	-0.187
Mof_H 	H 	0.8152	0.4394	0.8924	0.259
Mof_H 	H 	0.8593	0.4864	0.8831	0.261
Mof_H 	H 	0.8241	0.5312	0.9626	-0.171
Mof_H 	H 	0.8542	0.4747	0.9747	-0.181
Mof_H 	H 	0.6846	0.7941	0.5637	-0.224
Mof_H 	H 	0.6724	0.7479	0.5195	-0.219
Mof_H 	H 	0.6775	0.8044	0.4503	0.248
Mof_H 	H 	0.7266	0.8214	0.4885	0.263
Mof_H 	H 	0.6802	0.8916	0.4376	-0.174
Mof_H 	H 	0.6968	0.9048	0.4993	-0.172
Mof_H 	H 	0.7332	0.3767	0.7416	0.393
Mof_H 	H 	0.6779	0.3433	0.7324	0.391
Mof_H 	H 	0.6904	0.3962	0.6964	0.398
Mof_H 	H 	0.5594	0.6771	0.4654	0.421
Mof_H 	H 	0.6143	0.7018	0.4403	0.396
Mof_H 	H 	0.5989	0.6394	0.4297	0.396
Mof_H 	H 	0.7756	0.6197	0.7687	0.478
Mof_H 	H 	0.7435	0.6603	0.7291	0.384
Mof_H 	H 	0.7427	0.6701	0.7935	0.449
Mof_H 	H 	0.1097	0.1508	0.8488	-0.135
Mof_H 	H 	0.0539	0.1168	0.8485	-0.123
Mof_H 	H 	0.07	0.2185	0.9024	0.205
Mof_H 	H 	0.0367	0.2113	0.8472	0.188
Mof_H 	H 	0.963	0.1693	0.8953	-0.118
Mof_H 	H 	0.9757	0.2278	0.9216	-0.133
Mof_H 	H 	0.1726	0.2825	0.0018	-0.187
Mof_H 	H 	0.1336	0.2922	0.9505	-0.185
Mof_H 	H 	0.1076	0.3152	0.0606	0.258
Mof_H 	H 	0.1169	0.3593	0.0136	0.259
Mof_H 	H 	0.0374	0.3241	0.9688	-0.174
Mof_H 	H 	0.0253	0.3542	0.0253	-0.182
Mof_H 	H 	0.4363	0.1846	0.7059	-0.224
Mof_H 	H 	0.4805	0.1724	0.7521	-0.219
Mof_H 	H 	0.5497	0.1775	0.6956	0.248
Mof_H 	H 	0.5115	0.2266	0.6786	0.263
Mof_H 	H 	0.5624	0.1802	0.6084	-0.174
Mof_H 	H 	0.5007	0.1968	0.5952	-0.173
Mof_H 	H 	0.2584	0.2332	0.1233	0.393
Mof_H 	H 	0.2676	0.1779	0.1567	0.391
Mof_H 	H 	0.3036	0.1904	0.1038	0.398
Mof_H 	H 	0.5346	0.0594	0.8229	0.42
Mof_H 	H 	0.5597	0.1143	0.7982	0.396
Mof_H 	H 	0.5703	0.0989	0.8606	0.396
Mof_H 	H 	0.2313	0.2756	0.8803	0.477
Mof_H 	H 	0.2709	0.2435	0.8397	0.384
Mof_H 	H 	0.2065	0.2427	0.8299	0.448
Mof_H 	H 	0.6097	0.3492	0.1512	-0.135
Mof_H 	H 	0.5539	0.3832	0.1515	-0.123
Mof_H 	H 	0.57	0.2815	0.0976	0.205
Mof_H 	H 	0.5367	0.2887	0.1528	0.188
Mof_H 	H 	0.463	0.3307	0.1047	-0.118
Mof_H 	H 	0.4757	0.2722	0.0784	-0.133
Mof_H 	H 	0.6726	0.2175	0.9982	-0.192
Mof_H 	H 	0.6336	0.2078	0.0495	-0.187
Mof_H 	H 	0.6076	0.1848	0.9394	0.259
Mof_H 	H 	0.6169	0.1407	0.9864	0.26
Mof_H 	H 	0.5374	0.1759	0.0312	-0.171
Mof_H 	H 	0.5253	0.1458	0.9747	-0.182
Mof_H 	H 	0.9363	0.3154	0.2941	-0.223
Mof_H 	H 	0.9805	0.3276	0.2479	-0.218
Mof_H 	H 	0.0497	0.3225	0.3044	0.247
Mof_H 	H 	0.0115	0.2734	0.3214	0.262
Mof_H 	H 	0.0624	0.3198	0.3916	-0.173
Mof_H 	H 	0.0007	0.3032	0.4048	-0.172
Mof_H 	H 	0.7584	0.2668	0.8767	0.393
Mof_H 	H 	0.7676	0.3221	0.8433	0.391
Mof_H 	H 	0.8036	0.3096	0.8962	0.398
Mof_H 	H 	0.0346	0.4406	0.1771	0.42
Mof_H 	H 	0.0597	0.3857	0.2018	0.396
Mof_H 	H 	0.0703	0.4011	0.1394	0.395
Mof_H 	H 	0.7313	0.2244	0.1197	0.478
Mof_H 	H 	0.7709	0.2565	0.1603	0.384
Mof_H 	H 	0.7065	0.2573	0.1701	0.449
Mof_H 	H 	0.3903	0.8492	0.3488	-0.135
Mof_H 	H 	0.4461	0.8832	0.3485	-0.123
Mof_H 	H 	0.43	0.7815	0.4024	0.205
Mof_H 	H 	0.4633	0.7887	0.3472	0.188
Mof_H 	H 	0.537	0.8307	0.3953	-0.118
Mof_H 	H 	0.5243	0.7722	0.4216	-0.133
Mof_H 	H 	0.3274	0.7175	0.5018	-0.191
Mof_H 	H 	0.3664	0.7078	0.4505	-0.187
Mof_H 	H 	0.3924	0.6848	0.5606	0.259
Mof_H 	H 	0.3831	0.6407	0.5136	0.261
Mof_H 	H 	0.4626	0.6759	0.4688	-0.172
Mof_H 	H 	0.4747	0.6458	0.5253	-0.182
Mof_H 	H 	0.0637	0.8154	0.2059	-0.223
Mof_H 	H 	0.0195	0.8276	0.2521	-0.219
Mof_H 	H 	0.9503	0.8225	0.1956	0.248
Mof_H 	H 	0.9885	0.7734	0.1786	0.263
Mof_H 	H 	0.9376	0.8198	0.1084	-0.174
Mof_H 	H 	0.9993	0.8032	0.0952	-0.173
Mof_H 	H 	0.2416	0.7668	0.6233	0.393
Mof_H 	H 	0.2324	0.8221	0.6567	0.391
Mof_H 	H 	0.1964	0.8096	0.6038	0.398
Mof_H 	H 	0.9654	0.9406	0.3229	0.42
Mof_H 	H 	0.9403	0.8857	0.2982	0.396
Mof_H 	H 	0.9297	0.9011	0.3606	0.396
Mof_H 	H 	0.2687	0.7244	0.3803	0.478
Mof_H 	H 	0.2291	0.7565	0.3397	0.384
Mof_H 	H 	0.2935	0.7573	0.3299	0.449
Mof_H 	H 	0.8903	0.6508	0.6512	-0.135
Mof_H 	H 	0.9461	0.6168	0.6515	-0.122
Mof_H 	H 	0.93	0.7185	0.5976	0.205
Mof_H 	H 	0.9633	0.7113	0.6528	0.188
Mof_H 	H 	0.037	0.6693	0.6047	-0.117
Mof_H 	H 	0.0243	0.7278	0.5784	-0.133
Mof_H 	H 	0.8274	0.7825	0.4982	-0.191
Mof_H 	H 	0.8664	0.7922	0.5495	-0.187
Mof_H 	H 	0.8924	0.8152	0.4394	0.259
Mof_H 	H 	0.8831	0.8593	0.4864	0.261
Mof_H 	H 	0.9626	0.8241	0.5312	-0.171
Mof_H 	H 	0.9747	0.8542	0.4747	-0.181
Mof_H 	H 	0.5637	0.6846	0.7941	-0.224
Mof_H 	H 	0.5195	0.6724	0.7479	-0.219
Mof_H 	H 	0.4503	0.6775	0.8044	0.248
Mof_H 	H 	0.4885	0.7266	0.8214	0.263
Mof_H 	H 	0.4376	0.6802	0.8916	-0.174
Mof_H 	H 	0.4993	0.6968	0.9048	-0.172
Mof_H 	H 	0.7416	0.7332	0.3767	0.393
Mof_H 	H 	0.7324	0.6779	0.3433	0.391
Mof_H 	H 	0.6964	0.6904	0.3962	0.398
Mof_H 	H 	0.4654	0.5594	0.6771	0.421
Mof_H 	H 	0.4403	0.6143	0.7018	0.396
Mof_H 	H 	0.4297	0.5989	0.6394	0.396
Mof_H 	H 	0.7687	0.7756	0.6197	0.478
Mof_H 	H 	0.7291	0.7435	0.6603	0.384
Mof_H 	H 	0.7935	0.7427	0.6701	0.449
Mof_H 	H 	0.8488	0.1097	0.1508	-0.135
Mof_H 	H 	0.8485	0.0539	0.1168	-0.123
Mof_H 	H 	0.9024	0.07	0.2185	0.205
Mof_H 	H 	0.8472	0.0367	0.2113	0.188
Mof_H 	H 	0.8953	0.963	0.1693	-0.118
Mof_H 	H 	0.9216	0.9757	0.2278	-0.133
Mof_H 	H 	0.0018	0.1726	0.2825	-0.187
Mof_H 	H 	0.9505	0.1336	0.2922	-0.185
Mof_H 	H 	0.0606	0.1076	0.3152	0.258
Mof_H 	H 	0.0136	0.1169	0.3593	0.259
Mof_H 	H 	0.9688	0.0374	0.3241	-0.174
Mof_H 	H 	0.0253	0.0253	0.3542	-0.182
Mof_H 	H 	0.7059	0.4363	0.1846	-0.224
Mof_H 	H 	0.7521	0.4805	0.1724	-0.219
Mof_H 	H 	0.6956	0.5497	0.1775	0.248
Mof_H 	H 	0.6786	0.5115	0.2266	0.263
Mof_H 	H 	0.6084	0.5624	0.1802	-0.174
Mof_H 	H 	0.5952	0.5007	0.1968	-0.173
Mof_H 	H 	0.1233	0.2584	0.2332	0.393
Mof_H 	H 	0.1567	0.2676	0.1779	0.391
Mof_H 	H 	0.1038	0.3036	0.1904	0.398
Mof_H 	H 	0.8229	0.5346	0.0594	0.42
Mof_H 	H 	0.7982	0.5597	0.1143	0.396
Mof_H 	H 	0.8606	0.5703	0.0989	0.396
Mof_H 	H 	0.8803	0.2313	0.2756	0.477
Mof_H 	H 	0.8397	0.2709	0.2435	0.384
Mof_H 	H 	0.8299	0.2065	0.2427	0.448
Mof_H 	H 	0.1512	0.6097	0.3492	-0.135
Mof_H 	H 	0.1515	0.5539	0.3832	-0.123
Mof_H 	H 	0.0976	0.57	0.2815	0.205
Mof_H 	H 	0.1528	0.5367	0.2887	0.188
Mof_H 	H 	0.1047	0.463	0.3307	-0.118
Mof_H 	H 	0.0784	0.4757	0.2722	-0.133
Mof_H 	H 	0.9982	0.6726	0.2175	-0.192
Mof_H 	H 	0.0495	0.6336	0.2078	-0.187
Mof_H 	H 	0.9394	0.6076	0.1848	0.259
Mof_H 	H 	0.9864	0.6169	0.1407	0.26
Mof_H 	H 	0.0312	0.5374	0.1759	-0.171
Mof_H 	H 	0.9747	0.5253	0.1458	-0.182
Mof_H 	H 	0.2941	0.9363	0.3154	-0.223
Mof_H 	H 	0.2479	0.9805	0.3276	-0.218
Mof_H 	H 	0.3044	0.0497	0.3225	0.247
Mof_H 	H 	0.3214	0.0115	0.2734	0.262
Mof_H 	H 	0.3916	0.0624	0.3198	-0.173
Mof_H 	H 	0.4048	0.0007	0.3032	-0.172
Mof_H 	H 	0.8767	0.7584	0.2668	0.393
Mof_H 	H 	0.8433	0.7676	0.3221	0.391
Mof_H 	H 	0.8962	0.8036	0.3096	0.398
Mof_H 	H 	0.1771	0.0346	0.4406	0.42
Mof_H 	H 	0.2018	0.0597	0.3857	0.396
Mof_H 	H 	0.1394	0.0703	0.4011	0.395
Mof_H 	H 	0.1197	0.7313	0.2244	0.478
Mof_H 	H 	0.1603	0.7709	0.2565	0.384
Mof_H 	H 	0.1701	0.7065	0.2573	0.449
Mof_H 	H 	0.3488	0.3903	0.8492	-0.135
Mof_H 	H 	0.3485	0.4461	0.8832	-0.123
Mof_H 	H 	0.4024	0.43	0.7815	0.205
Mof_H 	H 	0.3472	0.4633	0.7887	0.188
Mof_H 	H 	0.3953	0.537	0.8307	-0.118
Mof_H 	H 	0.4216	0.5243	0.7722	-0.133
Mof_H 	H 	0.5018	0.3274	0.7175	-0.191
Mof_H 	H 	0.4505	0.3664	0.7078	-0.187
Mof_H 	H 	0.5606	0.3924	0.6848	0.259
Mof_H 	H 	0.5136	0.3831	0.6407	0.261
Mof_H 	H 	0.4688	0.4626	0.6759	-0.172
Mof_H 	H 	0.5253	0.4747	0.6458	-0.182
Mof_H 	H 	0.2059	0.0637	0.8154	-0.223
Mof_H 	H 	0.2521	0.0195	0.8276	-0.219
Mof_H 	H 	0.1956	0.9503	0.8225	0.248
Mof_H 	H 	0.1786	0.9885	0.7734	0.263
Mof_H 	H 	0.1084	0.9376	0.8198	-0.174
Mof_H 	H 	0.0952	0.9993	0.8032	-0.173
Mof_H 	H 	0.6233	0.2416	0.7668	0.393
Mof_H 	H 	0.6567	0.2324	0.8221	0.391
Mof_H 	H 	0.6038	0.1964	0.8096	0.398
Mof_H 	H 	0.3229	0.9654	0.9406	0.42
Mof_H 	H 	0.2982	0.9403	0.8857	0.396
Mof_H 	H 	0.3606	0.9297	0.9011	0.396
Mof_H 	H 	0.3803	0.2687	0.7244	0.478
Mof_H 	H 	0.3397	0.2291	0.7565	0.384
Mof_H 	H 	0.3299	0.2935	0.7573	0.449
Mof_H 	H 	0.6512	0.8903	0.6508	-0.135
Mof_H 	H 	0.6515	0.9461	0.6168	-0.122
Mof_H 	H 	0.5976	0.93	0.7185	0.205
Mof_H 	H 	0.6528	0.9633	0.7113	0.188
Mof_H 	H 	0.6047	0.037	0.6693	-0.117
Mof_H 	H 	0.5784	0.0243	0.7278	-0.133
Mof_H 	H 	0.4982	0.8274	0.7825	-0.191
Mof_H 	H 	0.5495	0.8664	0.7922	-0.187
Mof_H 	H 	0.4394	0.8924	0.8152	0.259
Mof_H 	H 	0.4864	0.8831	0.8593	0.261
Mof_H 	H 	0.5312	0.9626	0.8241	-0.171
Mof_H 	H 	0.4747	0.9747	0.8542	-0.181
Mof_H 	H 	0.7941	0.5637	0.6846	-0.224
Mof_H 	H 	0.7479	0.5195	0.6724	-0.219
Mof_H 	H 	0.8044	0.4503	0.6775	0.248
Mof_H 	H 	0.8214	0.4885	0.7266	0.263
Mof_H 	H 	0.8916	0.4376	0.6802	-0.174
Mof_H 	H 	0.9048	0.4993	0.6968	-0.172
Mof_H 	H 	0.3767	0.7416	0.7332	0.393
Mof_H 	H 	0.3433	0.7324	0.6779	0.391
Mof_H 	H 	0.3962	0.6964	0.6904	0.398
Mof_H 	H 	0.6771	0.4654	0.5594	0.421
Mof_H 	H 	0.7018	0.4403	0.6143	0.396
Mof_H 	H 	0.6394	0.4297	0.5989	0.396
Mof_H 	H 	0.6197	0.7687	0.7756	0.478
Mof_H 	H 	0.6603	0.7291	0.7435	0.384
Mof_H 	H 	0.6701	0.7935	0.7427	0.449
Mof_C 	C 	0.1418	0.8703	0.0768	0.464
Mof_C 	C 	0.1937	0.8826	0.0452	-0.593
Mof_C 	C 	0.1906	0.9161	0.9903	0.435
Mof_C 	C 	0.2817	0.9894	0.1342	0.677
Mof_C 	C 	0.3224	0.0213	0.1024	-0.839
Mof_C 	C 	0.3217	0.0088	0.0425	0.598
Mof_C 	C 	0.1646	0.7138	0.4705	0.694
Mof_C 	C 	0.1864	0.6771	0.5149	-0.83
Mof_C 	C 	0.1729	0.618	0.5239	0.623
Mof_C 	C 	0.1665	0.0854	0.226	0.777
Mof_C 	C 	0.1944	0.1203	0.2675	-1.323
Mof_C 	C 	0.1286	0.8472	0.492	0.87
Mof_C 	C 	0.0975	0.8307	0.5439	-1.324
Mof_C 	C 	0.1935	0.8923	0.2306	1.004
Mof_C 	C 	0.2431	0.8576	0.2352	-1.546
Mof_C 	C 	0.3582	0.1297	0.5768	0.464
Mof_C 	C 	0.3063	0.1174	0.5452	-0.593
Mof_C 	C 	0.3094	0.0839	0.4903	0.434
Mof_C 	C 	0.2183	0.0106	0.6342	0.687
Mof_C 	C 	0.1776	0.9787	0.6024	-0.845
Mof_C 	C 	0.1783	0.9912	0.5425	0.595
Mof_C 	C 	0.3354	0.2862	0.9705	0.691
Mof_C 	C 	0.3136	0.3229	0.0149	-0.827
Mof_C 	C 	0.3271	0.382	0.0239	0.621
Mof_C 	C 	0.3335	0.9146	0.726	0.777
Mof_C 	C 	0.3056	0.8797	0.7675	-1.323
Mof_C 	C 	0.3714	0.1528	0.992	0.868
Mof_C 	C 	0.4025	0.1693	0.0439	-1.321
Mof_C 	C 	0.3065	0.1077	0.7306	1.005
Mof_C 	C 	0.2569	0.1424	0.7352	-1.547
Mof_C 	C 	0.8582	0.3703	0.4232	0.464
Mof_C 	C 	0.8063	0.3826	0.4548	-0.593
Mof_C 	C 	0.8094	0.4161	0.5097	0.434
Mof_C 	C 	0.7183	0.4894	0.3658	0.685
Mof_C 	C 	0.6776	0.5213	0.3976	-0.845
Mof_C 	C 	0.6783	0.5088	0.4575	0.597
Mof_C 	C 	0.8354	0.2138	0.0295	0.694
Mof_C 	C 	0.8136	0.1771	0.9851	-0.83
Mof_C 	C 	0.8271	0.118	0.9761	0.623
Mof_C 	C 	0.8335	0.5854	0.274	0.777
Mof_C 	C 	0.8056	0.6203	0.2325	-1.323
Mof_C 	C 	0.8714	0.3472	0.008	0.869
Mof_C 	C 	0.9025	0.3307	0.9561	-1.323
Mof_C 	C 	0.8065	0.3923	0.2694	1.005
Mof_C 	C 	0.7569	0.3576	0.2648	-1.547
Mof_C 	C 	0.6418	0.6297	0.9232	0.463
Mof_C 	C 	0.6937	0.6174	0.9548	-0.591
Mof_C 	C 	0.6906	0.5839	0.0097	0.433
Mof_C 	C 	0.7817	0.5106	0.8658	0.685
Mof_C 	C 	0.8224	0.4787	0.8976	-0.844
Mof_C 	C 	0.8217	0.4912	0.9575	0.597
Mof_C 	C 	0.6646	0.7862	0.5295	0.694
Mof_C 	C 	0.6864	0.8229	0.4851	-0.83
Mof_C 	C 	0.6729	0.882	0.4761	0.623
Mof_C 	C 	0.6665	0.4146	0.774	0.777
Mof_C 	C 	0.6944	0.3797	0.7325	-1.323
Mof_C 	C 	0.6286	0.6528	0.508	0.87
Mof_C 	C 	0.5975	0.6693	0.4561	-1.325
Mof_C 	C 	0.6935	0.6077	0.7694	1.005
Mof_C 	C 	0.7431	0.6424	0.7648	-1.548
Mof_C 	C 	0.0768	0.1418	0.8703	0.464
Mof_C 	C 	0.0452	0.1937	0.8826	-0.593
Mof_C 	C 	0.9903	0.1906	0.9161	0.435
Mof_C 	C 	0.1342	0.2817	0.9894	0.677
Mof_C 	C 	0.1024	0.3224	0.0213	-0.839
Mof_C 	C 	0.0425	0.3217	0.0088	0.598
Mof_C 	C 	0.4705	0.1646	0.7138	0.694
Mof_C 	C 	0.5149	0.1864	0.6771	-0.83
Mof_C 	C 	0.5239	0.1729	0.618	0.623
Mof_C 	C 	0.226	0.1665	0.0854	0.777
Mof_C 	C 	0.2675	0.1944	0.1203	-1.323
Mof_C 	C 	0.492	0.1286	0.8472	0.87
Mof_C 	C 	0.5439	0.0975	0.8307	-1.324
Mof_C 	C 	0.2306	0.1935	0.8923	1.004
Mof_C 	C 	0.2352	0.2431	0.8576	-1.546
Mof_C 	C 	0.5768	0.3582	0.1297	0.464
Mof_C 	C 	0.5452	0.3063	0.1174	-0.593
Mof_C 	C 	0.4903	0.3094	0.0839	0.434
Mof_C 	C 	0.6342	0.2183	0.0106	0.687
Mof_C 	C 	0.6024	0.1776	0.9787	-0.845
Mof_C 	C 	0.5425	0.1783	0.9912	0.595
Mof_C 	C 	0.9705	0.3354	0.2862	0.691
Mof_C 	C 	0.0149	0.3136	0.3229	-0.827
Mof_C 	C 	0.0239	0.3271	0.382	0.621
Mof_C 	C 	0.726	0.3335	0.9146	0.777
Mof_C 	C 	0.7675	0.3056	0.8797	-1.323
Mof_C 	C 	0.992	0.3714	0.1528	0.868
Mof_C 	C 	0.0439	0.4025	0.1693	-1.321
Mof_C 	C 	0.7306	0.3065	0.1077	1.005
Mof_C 	C 	0.7352	0.2569	0.1424	-1.547
Mof_C 	C 	0.4232	0.8582	0.3703	0.464
Mof_C 	C 	0.4548	0.8063	0.3826	-0.593
Mof_C 	C 	0.5097	0.8094	0.4161	0.434
Mof_C 	C 	0.3658	0.7183	0.4894	0.685
Mof_C 	C 	0.3976	0.6776	0.5213	-0.845
Mof_C 	C 	0.4575	0.6783	0.5088	0.597
Mof_C 	C 	0.0295	0.8354	0.2138	0.694
Mof_C 	C 	0.9851	0.8136	0.1771	-0.83
Mof_C 	C 	0.9761	0.8271	0.118	0.623
Mof_C 	C 	0.274	0.8335	0.5854	0.777
Mof_C 	C 	0.2325	0.8056	0.6203	-1.323
Mof_C 	C 	0.008	0.8714	0.3472	0.869
Mof_C 	C 	0.9561	0.9025	0.3307	-1.323
Mof_C 	C 	0.2694	0.8065	0.3923	1.005
Mof_C 	C 	0.2648	0.7569	0.3576	-1.547
Mof_C 	C 	0.9232	0.6418	0.6297	0.463
Mof_C 	C 	0.9548	0.6937	0.6174	-0.591
Mof_C 	C 	0.0097	0.6906	0.5839	0.433
Mof_C 	C 	0.8658	0.7817	0.5106	0.685
Mof_C 	C 	0.8976	0.8224	0.4787	-0.844
Mof_C 	C 	0.9575	0.8217	0.4912	0.597
Mof_C 	C 	0.5295	0.6646	0.7862	0.694
Mof_C 	C 	0.4851	0.6864	0.8229	-0.83
Mof_C 	C 	0.4761	0.6729	0.882	0.623
Mof_C 	C 	0.774	0.6665	0.4146	0.777
Mof_C 	C 	0.7325	0.6944	0.3797	-1.323
Mof_C 	C 	0.508	0.6286	0.6528	0.87
Mof_C 	C 	0.4561	0.5975	0.6693	-1.325
Mof_C 	C 	0.7694	0.6935	0.6077	1.005
Mof_C 	C 	0.7648	0.7431	0.6424	-1.548
Mof_C 	C 	0.8703	0.0768	0.1418	0.464
Mof_C 	C 	0.8826	0.0452	0.1937	-0.593
Mof_C 	C 	0.9161	0.9903	0.1906	0.435
Mof_C 	C 	0.9894	0.1342	0.2817	0.677
Mof_C 	C 	0.0213	0.1024	0.3224	-0.839
Mof_C 	C 	0.0088	0.0425	0.3217	0.598
Mof_C 	C 	0.7138	0.4705	0.1646	0.694
Mof_C 	C 	0.6771	0.5149	0.1864	-0.83
Mof_C 	C 	0.618	0.5239	0.1729	0.623
Mof_C 	C 	0.0854	0.226	0.1665	0.777
Mof_C 	C 	0.1203	0.2675	0.1944	-1.323
Mof_C 	C 	0.8472	0.492	0.1286	0.87
Mof_C 	C 	0.8307	0.5439	0.0975	-1.324
Mof_C 	C 	0.8923	0.2306	0.1935	1.004
Mof_C 	C 	0.8576	0.2352	0.2431	-1.546
Mof_C 	C 	0.1297	0.5768	0.3582	0.464
Mof_C 	C 	0.1174	0.5452	0.3063	-0.593
Mof_C 	C 	0.0839	0.4903	0.3094	0.434
Mof_C 	C 	0.0106	0.6342	0.2183	0.687
Mof_C 	C 	0.9787	0.6024	0.1776	-0.845
Mof_C 	C 	0.9912	0.5425	0.1783	0.595
Mof_C 	C 	0.2862	0.9705	0.3354	0.691
Mof_C 	C 	0.3229	0.0149	0.3136	-0.827
Mof_C 	C 	0.382	0.0239	0.3271	0.621
Mof_C 	C 	0.9146	0.726	0.3335	0.777
Mof_C 	C 	0.8797	0.7675	0.3056	-1.323
Mof_C 	C 	0.1528	0.992	0.3714	0.868
Mof_C 	C 	0.1693	0.0439	0.4025	-1.321
Mof_C 	C 	0.1077	0.7306	0.3065	1.005
Mof_C 	C 	0.1424	0.7352	0.2569	-1.547
Mof_C 	C 	0.3703	0.4232	0.8582	0.464
Mof_C 	C 	0.3826	0.4548	0.8063	-0.593
Mof_C 	C 	0.4161	0.5097	0.8094	0.434
Mof_C 	C 	0.4894	0.3658	0.7183	0.685
Mof_C 	C 	0.5213	0.3976	0.6776	-0.845
Mof_C 	C 	0.5088	0.4575	0.6783	0.597
Mof_C 	C 	0.2138	0.0295	0.8354	0.694
Mof_C 	C 	0.1771	0.9851	0.8136	-0.83
Mof_C 	C 	0.118	0.9761	0.8271	0.623
Mof_C 	C 	0.5854	0.274	0.8335	0.777
Mof_C 	C 	0.6203	0.2325	0.8056	-1.323
Mof_C 	C 	0.3472	0.008	0.8714	0.869
Mof_C 	C 	0.3307	0.9561	0.9025	-1.323
Mof_C 	C 	0.3923	0.2694	0.8065	1.005
Mof_C 	C 	0.3576	0.2648	0.7569	-1.547
Mof_C 	C 	0.6297	0.9232	0.6418	0.463
Mof_C 	C 	0.6174	0.9548	0.6937	-0.591
Mof_C 	C 	0.5839	0.0097	0.6906	0.433
Mof_C 	C 	0.5106	0.8658	0.7817	0.685
Mof_C 	C 	0.4787	0.8976	0.8224	-0.844
Mof_C 	C 	0.4912	0.9575	0.8217	0.597
Mof_C 	C 	0.7862	0.5295	0.6646	0.694
Mof_C 	C 	0.8229	0.4851	0.6864	-0.83
Mof_C 	C 	0.882	0.4761	0.6729	0.623
Mof_C 	C 	0.4146	0.774	0.6665	0.777
Mof_C 	C 	0.3797	0.7325	0.6944	-1.323
Mof_C 	C 	0.6528	0.508	0.6286	0.87
Mof_C 	C 	0.6693	0.4561	0.5975	-1.325
Mof_C 	C 	0.6077	0.7694	0.6935	1.005
Mof_C 	C 	0.6424	0.7648	0.7431	-1.548
Mof_O 	O 	0.115	0.9217	0.0929	-0.593
Mof_O 	O 	0.1647	0.9692	0.9995	-0.587
Mof_O 	O 	0.2274	0.9947	0.1136	-0.633
Mof_O 	O 	0.2724	0.029	0.0143	-0.571
Mof_O 	O 	0.1083	0.7089	0.4601	-0.603
Mof_O 	O 	0.1164	0.6064	0.5112	-0.607
Mof_O 	O 	0.1881	0.0396	0.2132	-0.543
Mof_O 	O 	0.121	0.101	0.2046	-0.615
Mof_O 	O 	0.1079	0.8344	0.4454	-0.987
Mof_O 	O 	0.1752	0.8698	0.4978	-0.588
Mof_O 	O 	0.1556	0.8912	0.2678	-1.028
Mof_O 	O 	0.1895	0.9232	0.189	-0.645
Mof_O 	O 	0.0572	0.9064	0.9822	-0.393
Mof_O 	O 	0.0819	0.9859	0.1832	-0.728
Mof_O 	O 	0.1344	0.0327	0.0886	-0.745
Mof_O 	O 	0.0754	0.0243	0.978	-0.76
Mof_O 	O 	0.1516	0.5037	0.5834	-0.263
Mof_O 	O 	0.385	0.0783	0.5929	-0.594
Mof_O 	O 	0.3353	0.0308	0.4995	-0.587
Mof_O 	O 	0.2726	0.0053	0.6136	-0.633
Mof_O 	O 	0.2276	0.971	0.5143	-0.572
Mof_O 	O 	0.3917	0.2911	0.9601	-0.603
Mof_O 	O 	0.3836	0.3936	0.0112	-0.606
Mof_O 	O 	0.3119	0.9604	0.7132	-0.544
Mof_O 	O 	0.379	0.899	0.7046	-0.615
Mof_O 	O 	0.3921	0.1656	0.9454	-0.986
Mof_O 	O 	0.3248	0.1302	0.9978	-0.589
Mof_O 	O 	0.3444	0.1088	0.7678	-1.029
Mof_O 	O 	0.3105	0.0768	0.689	-0.646
Mof_O 	O 	0.4428	0.0936	0.4822	-0.393
Mof_O 	O 	0.4181	0.0141	0.6832	-0.727
Mof_O 	O 	0.3656	0.9673	0.5886	-0.747
Mof_O 	O 	0.4246	0.9757	0.478	-0.76
Mof_O 	O 	0.3484	0.4963	0.0834	-0.263
Mof_O 	O 	0.885	0.4217	0.4071	-0.594
Mof_O 	O 	0.8353	0.4692	0.5005	-0.587
Mof_O 	O 	0.7726	0.4947	0.3864	-0.633
Mof_O 	O 	0.7276	0.529	0.4857	-0.572
Mof_O 	O 	0.8917	0.2089	0.0399	-0.603
Mof_O 	O 	0.8836	0.1064	0.9888	-0.607
Mof_O 	O 	0.8119	0.5396	0.2868	-0.544
Mof_O 	O 	0.879	0.601	0.2954	-0.615
Mof_O 	O 	0.8921	0.3344	0.0546	-0.987
Mof_O 	O 	0.8248	0.3698	0.0022	-0.589
Mof_O 	O 	0.8444	0.3912	0.2322	-1.029
Mof_O 	O 	0.8105	0.4232	0.311	-0.646
Mof_O 	O 	0.9428	0.4064	0.5178	-0.393
Mof_O 	O 	0.9181	0.4859	0.3168	-0.726
Mof_O 	O 	0.8656	0.5327	0.4114	-0.747
Mof_O 	O 	0.9246	0.5243	0.522	-0.76
Mof_O 	O 	0.8484	0.0037	0.9166	-0.264
Mof_O 	O 	0.615	0.5783	0.9071	-0.593
Mof_O 	O 	0.6647	0.5308	0.0005	-0.587
Mof_O 	O 	0.7274	0.5053	0.8864	-0.633
Mof_O 	O 	0.7724	0.471	0.9857	-0.572
Mof_O 	O 	0.6083	0.7911	0.5399	-0.604
Mof_O 	O 	0.6164	0.8936	0.4888	-0.607
Mof_O 	O 	0.6881	0.4604	0.7868	-0.544
Mof_O 	O 	0.621	0.399	0.7954	-0.615
Mof_O 	O 	0.6079	0.6656	0.5546	-0.987
Mof_O 	O 	0.6752	0.6302	0.5022	-0.589
Mof_O 	O 	0.6556	0.6088	0.7322	-1.029
Mof_O 	O 	0.6895	0.5768	0.811	-0.646
Mof_O 	O 	0.5572	0.5936	0.0178	-0.393
Mof_O 	O 	0.5819	0.5141	0.8168	-0.727
Mof_O 	O 	0.6344	0.4673	0.9114	-0.747
Mof_O 	O 	0.5754	0.4757	0.022	-0.76
Mof_O 	O 	0.6516	0.9963	0.4166	-0.263
Mof_O 	O 	0.0929	0.115	0.9217	-0.593
Mof_O 	O 	0.9995	0.1647	0.9692	-0.587
Mof_O 	O 	0.1136	0.2274	0.9947	-0.633
Mof_O 	O 	0.0143	0.2724	0.029	-0.571
Mof_O 	O 	0.4601	0.1083	0.7089	-0.603
Mof_O 	O 	0.5112	0.1164	0.6064	-0.607
Mof_O 	O 	0.2132	0.1881	0.0396	-0.543
Mof_O 	O 	0.2046	0.121	0.101	-0.615
Mof_O 	O 	0.4454	0.1079	0.8344	-0.987
Mof_O 	O 	0.4978	0.1752	0.8698	-0.588
Mof_O 	O 	0.2678	0.1556	0.8912	-1.028
Mof_O 	O 	0.189	0.1895	0.9232	-0.645
Mof_O 	O 	0.9822	0.0572	0.9064	-0.393
Mof_O 	O 	0.1832	0.0819	0.9859	-0.728
Mof_O 	O 	0.0886	0.1344	0.0327	-0.745
Mof_O 	O 	0.978	0.0754	0.0243	-0.76
Mof_O 	O 	0.5834	0.1516	0.5037	-0.263
Mof_O 	O 	0.5929	0.385	0.0783	-0.594
Mof_O 	O 	0.4995	0.3353	0.0308	-0.587
Mof_O 	O 	0.6136	0.2726	0.0053	-0.633
Mof_O 	O 	0.5143	0.2276	0.971	-0.572
Mof_O 	O 	0.9601	0.3917	0.2911	-0.603
Mof_O 	O 	0.0112	0.3836	0.3936	-0.606
Mof_O 	O 	0.7132	0.3119	0.9604	-0.544
Mof_O 	O 	0.7046	0.379	0.899	-0.615
Mof_O 	O 	0.9454	0.3921	0.1656	-0.986
Mof_O 	O 	0.9978	0.3248	0.1302	-0.589
Mof_O 	O 	0.7678	0.3444	0.1088	-1.029
Mof_O 	O 	0.689	0.3105	0.0768	-0.646
Mof_O 	O 	0.4822	0.4428	0.0936	-0.393
Mof_O 	O 	0.6832	0.4181	0.0141	-0.727
Mof_O 	O 	0.5886	0.3656	0.9673	-0.747
Mof_O 	O 	0.478	0.4246	0.9757	-0.76
Mof_O 	O 	0.0834	0.3484	0.4963	-0.263
Mof_O 	O 	0.4071	0.885	0.4217	-0.594
Mof_O 	O 	0.5005	0.8353	0.4692	-0.587
Mof_O 	O 	0.3864	0.7726	0.4947	-0.633
Mof_O 	O 	0.4857	0.7276	0.529	-0.572
Mof_O 	O 	0.0399	0.8917	0.2089	-0.603
Mof_O 	O 	0.9888	0.8836	0.1064	-0.607
Mof_O 	O 	0.2868	0.8119	0.5396	-0.544
Mof_O 	O 	0.2954	0.879	0.601	-0.615
Mof_O 	O 	0.0546	0.8921	0.3344	-0.987
Mof_O 	O 	0.0022	0.8248	0.3698	-0.589
Mof_O 	O 	0.2322	0.8444	0.3912	-1.029
Mof_O 	O 	0.311	0.8105	0.4232	-0.646
Mof_O 	O 	0.5178	0.9428	0.4064	-0.393
Mof_O 	O 	0.3168	0.9181	0.4859	-0.726
Mof_O 	O 	0.4114	0.8656	0.5327	-0.747
Mof_O 	O 	0.522	0.9246	0.5243	-0.76
Mof_O 	O 	0.9166	0.8484	0.0037	-0.264
Mof_O 	O 	0.9071	0.615	0.5783	-0.593
Mof_O 	O 	0.0005	0.6647	0.5308	-0.587
Mof_O 	O 	0.8864	0.7274	0.5053	-0.633
Mof_O 	O 	0.9857	0.7724	0.471	-0.572
Mof_O 	O 	0.5399	0.6083	0.7911	-0.604
Mof_O 	O 	0.4888	0.6164	0.8936	-0.607
Mof_O 	O 	0.7868	0.6881	0.4604	-0.544
Mof_O 	O 	0.7954	0.621	0.399	-0.615
Mof_O 	O 	0.5546	0.6079	0.6656	-0.987
Mof_O 	O 	0.5022	0.6752	0.6302	-0.589
Mof_O 	O 	0.7322	0.6556	0.6088	-1.029
Mof_O 	O 	0.811	0.6895	0.5768	-0.646
Mof_O 	O 	0.0178	0.5572	0.5936	-0.393
Mof_O 	O 	0.8168	0.5819	0.5141	-0.727
Mof_O 	O 	0.9114	0.6344	0.4673	-0.747
Mof_O 	O 	0.022	0.5754	0.4757	-0.76
Mof_O 	O 	0.4166	0.6516	0.9963	-0.263
Mof_O 	O 	0.9217	0.0929	0.115	-0.593
Mof_O 	O 	0.9692	0.9995	0.1647	-0.587
Mof_O 	O 	0.9947	0.1136	0.2274	-0.633
Mof_O 	O 	0.029	0.0143	0.2724	-0.571
Mof_O 	O 	0.7089	0.4601	0.1083	-0.603
Mof_O 	O 	0.6064	0.5112	0.1164	-0.607
Mof_O 	O 	0.0396	0.2132	0.1881	-0.543
Mof_O 	O 	0.101	0.2046	0.121	-0.615
Mof_O 	O 	0.8344	0.4454	0.1079	-0.987
Mof_O 	O 	0.8698	0.4978	0.1752	-0.588
Mof_O 	O 	0.8912	0.2678	0.1556	-1.028
Mof_O 	O 	0.9232	0.189	0.1895	-0.645
Mof_O 	O 	0.9064	0.9822	0.0572	-0.393
Mof_O 	O 	0.9859	0.1832	0.0819	-0.728
Mof_O 	O 	0.0327	0.0886	0.1344	-0.745
Mof_O 	O 	0.0243	0.978	0.0754	-0.76
Mof_O 	O 	0.5037	0.5834	0.1516	-0.263
Mof_O 	O 	0.0783	0.5929	0.385	-0.594
Mof_O 	O 	0.0308	0.4995	0.3353	-0.587
Mof_O 	O 	0.0053	0.6136	0.2726	-0.633
Mof_O 	O 	0.971	0.5143	0.2276	-0.572
Mof_O 	O 	0.2911	0.9601	0.3917	-0.603
Mof_O 	O 	0.3936	0.0112	0.3836	-0.606
Mof_O 	O 	0.9604	0.7132	0.3119	-0.544
Mof_O 	O 	0.899	0.7046	0.379	-0.615
Mof_O 	O 	0.1656	0.9454	0.3921	-0.986
Mof_O 	O 	0.1302	0.9978	0.3248	-0.589
Mof_O 	O 	0.1088	0.7678	0.3444	-1.029
Mof_O 	O 	0.0768	0.689	0.3105	-0.646
Mof_O 	O 	0.0936	0.4822	0.4428	-0.393
Mof_O 	O 	0.0141	0.6832	0.4181	-0.727
Mof_O 	O 	0.9673	0.5886	0.3656	-0.747
Mof_O 	O 	0.9757	0.478	0.4246	-0.76
Mof_O 	O 	0.4963	0.0834	0.3484	-0.263
Mof_O 	O 	0.4217	0.4071	0.885	-0.594
Mof_O 	O 	0.4692	0.5005	0.8353	-0.587
Mof_O 	O 	0.4947	0.3864	0.7726	-0.633
Mof_O 	O 	0.529	0.4857	0.7276	-0.572
Mof_O 	O 	0.2089	0.0399	0.8917	-0.603
Mof_O 	O 	0.1064	0.9888	0.8836	-0.607
Mof_O 	O 	0.5396	0.2868	0.8119	-0.544
Mof_O 	O 	0.601	0.2954	0.879	-0.615
Mof_O 	O 	0.3344	0.0546	0.8921	-0.987
Mof_O 	O 	0.3698	0.0022	0.8248	-0.589
Mof_O 	O 	0.3912	0.2322	0.8444	-1.029
Mof_O 	O 	0.4232	0.311	0.8105	-0.646
Mof_O 	O 	0.4064	0.5178	0.9428	-0.393
Mof_O 	O 	0.4859	0.3168	0.9181	-0.726
Mof_O 	O 	0.5327	0.4114	0.8656	-0.747
Mof_O 	O 	0.5243	0.522	0.9246	-0.76
Mof_O 	O 	0.0037	0.9166	0.8484	-0.264
Mof_O 	O 	0.5783	0.9071	0.615	-0.593
Mof_O 	O 	0.5308	0.0005	0.6647	-0.587
Mof_O 	O 	0.5053	0.8864	0.7274	-0.633
Mof_O 	O 	0.471	0.9857	0.7724	-0.572
Mof_O 	O 	0.7911	0.5399	0.6083	-0.604
Mof_O 	O 	0.8936	0.4888	0.6164	-0.607
Mof_O 	O 	0.4604	0.7868	0.6881	-0.544
Mof_O 	O 	0.399	0.7954	0.621	-0.615
Mof_O 	O 	0.6656	0.5546	0.6079	-0.987
Mof_O 	O 	0.6302	0.5022	0.6752	-0.589
Mof_O 	O 	0.6088	0.7322	0.6556	-1.029
Mof_O 	O 	0.5768	0.811	0.6895	-0.646
Mof_O 	O 	0.5936	0.0178	0.5572	-0.393
Mof_O 	O 	0.5141	0.8168	0.5819	-0.727
Mof_O 	O 	0.4673	0.9114	0.6344	-0.747
Mof_O 	O 	0.4757	0.022	0.5754	-0.76
Mof_O 	O 	0.9963	0.4166	0.6516	-0.263
Mof_O 	O 	0.0398	0.4602	0.5398	-0.554
Mof_O 	O 	0.4602	0.5398	0.0398	-0.554
Mof_O 	O 	0.9602	0.9602	0.9602	-0.55
Mof_O 	O 	0.5398	0.0398	0.4602	-0.554
_end
