data_functionalizedCrystal
_audit_creation_method	'EQeq! by Chris Wilmer'
_symmetry_space_group_name_H-M	'P1'
_symmetry_Int_Tables_number	1
_symmetry_cell_setting	triclinic
loop_
_symmetry_equiv_pos_as_xyz
  x,y,z
_cell_length_a	15.392
_cell_length_b	15.392
_cell_length_c	12.425
_cell_angle_alpha	90
_cell_angle_beta	90
_cell_angle_gamma	120
loop_
_atom_site_label
_atom_site_type_symbol
_atom_site_fract_x
_atom_site_fract_y
_atom_site_fract_z
_atom_site_charge
Mof_O 	O 	0.2327	0.4756	0.6353	-0.386
Mof_O 	O 	0.1428	0.5525	0.6368	-0.361
Mof_C 	C 	0.1584	0.4827	0.6098	0.327
Mof_C 	C 	0.07579	0.3931	0.5525	-0.073
Mof_C 	C 	0.0758	0.3028	0.5526	-0.064
Mof_H 	H 	0.1281	0.2978	0.5891	0.079
Mof_Br	Br	0.1058	0.197	0.3151	-0.174
Mof_H 	H 	0.977	0.4392	0.5385	0.634
Mof_C 	C 	0.0938	0.4122	0.5221	0.9
Mof_C 	C 	0.1272	0.3565	0.4655	-0.643
Mof_H 	H 	0.1918	0.3643	0.4814	0.255
Mof_C 	C 	0.0668	0.2891	0.3868	0.489
Mof_C 	C 	0.9396	0.3331	0.4213	0.919
Mof_C 	C 	0.973	0.2774	0.3647	-0.748
Mof_H 	H 	0.9314	0.2308	0.3103	0.271
Mof_O 	O 	0.5244	0.7571	0.6353	-0.404
Mof_O 	O 	0.4475	0.5903	0.6368	-0.387
Mof_C 	C 	0.5173	0.6757	0.6098	0.409
Mof_C 	C 	0.6069	0.68269	0.5525	-0.064
Mof_C 	C 	0.6972	0.773	0.5526	0.016
Mof_H 	H 	0.7022	0.8303	0.5891	0.048
Mof_Br	Br	0.803	0.9088	0.3151	-0.166
Mof_H 	H 	0.5608	0.5378	0.5385	-0.322
Mof_C 	C 	0.5878	0.6816	0.5221	0.153
Mof_C 	C 	0.6435	0.7707	0.4655	-0.183
Mof_H 	H 	0.6357	0.8275	0.4814	0.111
Mof_C 	C 	0.7109	0.7777	0.3868	0.165
Mof_C 	C 	0.6669	0.6065	0.4213	0.109
Mof_C 	C 	0.7226	0.6956	0.3647	-0.17
Mof_H 	H 	0.7692	0.7006	0.3103	0.104
Mof_O 	O 	0.2429	0.7673	0.6353	-0.382
Mof_O 	O 	0.4097	0.8572	0.6368	-0.403
Mof_C 	C 	0.3243	0.8416	0.6098	0.35
Mof_C 	C 	0.31731	0.92421	0.5525	-0.014
Mof_C 	C 	0.227	0.9242	0.5526	-0.041
Mof_H 	H 	0.1697	0.8719	0.5891	0.072
Mof_Br	Br	0.0912	0.8942	0.3151	-0.109
Mof_H 	H 	0.4622	0.023	0.5385	0.435
Mof_C 	C 	0.3184	0.9062	0.5221	-0.325
Mof_C 	C 	0.2293	0.8728	0.4655	0.108
Mof_H 	H 	0.1725	0.8082	0.4814	0.029
Mof_C 	C 	0.2223	0.9332	0.3868	-0.061
Mof_C 	C 	0.3935	0.0604	0.4213	-0.216
Mof_C 	C 	0.3044	0.027	0.3647	0.132
Mof_H 	H 	0.2994	0.0686	0.3103	0.027
Mof_O 	O 	0.2327	0.4756	0.8647	-0.374
Mof_O 	O 	0.1428	0.5525	0.8632	-0.37
Mof_C 	C 	0.1584	0.4827	0.8902	0.33
Mof_C 	C 	0.07579	0.3931	0.9475	-0.006
Mof_C 	C 	0.0758	0.3028	0.9474	-0.092
Mof_H 	H 	0.1281	0.2978	0.9109	0.086
Mof_Br	Br	0.1058	0.197	0.1849	-0.091
Mof_H 	H 	0.977	0.4392	0.9615	0.64
Mof_C 	C 	0.0938	0.4122	0.9779	-0.052
Mof_C 	C 	0.1272	0.3565	0.0345	-0.057
Mof_H 	H 	0.1918	0.3643	0.0186	0.077
Mof_C 	C 	0.0668	0.2891	0.1132	0.132
Mof_C 	C 	0.9396	0.3331	0.0787	0.009
Mof_C 	C 	0.973	0.2774	0.1353	-0.17
Mof_H 	H 	0.9314	0.2308	0.1897	0.07
Mof_O 	O 	0.5244	0.7571	0.8647	-0.395
Mof_O 	O 	0.4475	0.5903	0.8632	-0.39
Mof_C 	C 	0.5173	0.6757	0.8902	0.407
Mof_C 	C 	0.6069	0.68269	0.9475	-0.027
Mof_C 	C 	0.6972	0.773	0.9474	0.003
Mof_H 	H 	0.7022	0.8303	0.9109	0.052
Mof_Br	Br	0.803	0.9088	0.1849	-0.125
Mof_H 	H 	0.5608	0.5378	0.9615	-0.268
Mof_C 	C 	0.5878	0.6816	0.9779	-0.345
Mof_C 	C 	0.6435	0.7707	0.0345	0.119
Mof_H 	H 	0.6357	0.8275	0.0186	0.019
Mof_C 	C 	0.7109	0.7777	0.1132	-0.016
Mof_C 	C 	0.6669	0.6065	0.0787	-0.348
Mof_C 	C 	0.7226	0.6956	0.1353	0.119
Mof_H 	H 	0.7692	0.7006	0.1897	0.003
Mof_O 	O 	0.2429	0.7673	0.8647	-0.367
Mof_O 	O 	0.4097	0.8572	0.8632	-0.404
Mof_C 	C 	0.3243	0.8416	0.8902	0.331
Mof_C 	C 	0.31731	0.92421	0.9475	0.044
Mof_C 	C 	0.227	0.9242	0.9474	-0.029
Mof_H 	H 	0.1697	0.8719	0.9109	0.069
Mof_Br	Br	0.0912	0.8942	0.1849	-0.068
Mof_H 	H 	0.4622	0.023	0.9615	0.687
Mof_C 	C 	0.3184	0.9062	0.9779	-0.831
Mof_C 	C 	0.2293	0.8728	0.0345	0.397
Mof_H 	H 	0.1725	0.8082	0.0186	-0.059
Mof_C 	C 	0.2223	0.9332	0.1132	-0.253
Mof_C 	C 	0.3935	0.0604	0.0787	-0.79
Mof_C 	C 	0.3044	0.027	0.1353	0.461
Mof_H 	H 	0.2994	0.0686	0.1897	-0.088
Mof_O 	O 	0.4756	0.2327	0.3647	-0.381
Mof_O 	O 	0.5525	0.1428	0.3632	-0.366
Mof_C 	C 	0.4827	0.1584	0.3902	0.347
Mof_C 	C 	0.3931	0.07579	0.4475	-0.035
Mof_C 	C 	0.3028	0.0758	0.4474	-0.054
Mof_H 	H 	0.2978	0.1281	0.4109	0.077
Mof_Br	Br	0.197	0.1058	0.6849	-0.113
Mof_H 	H 	0.4392	0.977	0.4615	0.435
Mof_C 	C 	0.4122	0.0938	0.4779	0.276
Mof_C 	C 	0.3565	0.1272	0.5345	-0.266
Mof_H 	H 	0.3643	0.1918	0.5186	0.139
Mof_C 	C 	0.2891	0.0668	0.6132	0.242
Mof_C 	C 	0.3331	0.9396	0.5787	0.325
Mof_C 	C 	0.2774	0.973	0.6353	-0.344
Mof_H 	H 	0.2308	0.9314	0.6897	0.128
Mof_O 	O 	0.7571	0.5244	0.3647	-0.398
Mof_O 	O 	0.5903	0.4475	0.3632	-0.387
Mof_C 	C 	0.6757	0.5173	0.3902	0.414
Mof_C 	C 	0.68269	0.6069	0.4475	-0.039
Mof_C 	C 	0.773	0.6972	0.4474	0.014
Mof_H 	H 	0.8303	0.7022	0.4109	0.048
Mof_Br	Br	0.9088	0.803	0.6849	-0.132
Mof_H 	H 	0.5378	0.5608	0.4615	-0.353
Mof_C 	C 	0.6816	0.5878	0.4779	-0.19
Mof_C 	C 	0.7707	0.6435	0.5345	0.021
Mof_H 	H 	0.8275	0.6357	0.5186	0.047
Mof_C 	C 	0.7777	0.7109	0.6132	0.035
Mof_C 	C 	0.6065	0.6669	0.5787	-0.204
Mof_C 	C 	0.6956	0.7226	0.6353	0.037
Mof_H 	H 	0.7006	0.7692	0.6897	0.025
Mof_O 	O 	0.7673	0.2429	0.3647	-0.37
Mof_O 	O 	0.8572	0.4097	0.3632	-0.408
Mof_C 	C 	0.8416	0.3243	0.3902	0.347
Mof_C 	C 	0.92421	0.31731	0.4475	0.035
Mof_C 	C 	0.9242	0.227	0.4474	-0.052
Mof_H 	H 	0.8719	0.1697	0.4109	0.075
Mof_Br	Br	0.8942	0.0912	0.6849	-0.057
Mof_H 	H 	0.023	0.4622	0.4615	0.532
Mof_C 	C 	0.9062	0.3184	0.4779	-0.956
Mof_C 	C 	0.8728	0.2293	0.5345	0.484
Mof_H 	H 	0.8082	0.1725	0.5186	-0.087
Mof_C 	C 	0.9332	0.2223	0.6132	-0.304
Mof_C 	C 	0.0604	0.3935	0.5787	-0.767
Mof_C 	C 	0.027	0.3044	0.6353	0.512
Mof_H 	H 	0.0686	0.2994	0.6897	-0.111
Mof_O 	O 	0.4756	0.2327	0.1353	-0.382
Mof_O 	O 	0.5525	0.1428	0.1368	-0.358
Mof_C 	C 	0.4827	0.1584	0.1098	0.313
Mof_C 	C 	0.3931	0.07579	0.0525	-0.05
Mof_C 	C 	0.3028	0.0758	0.0526	-0.009
Mof_H 	H 	0.2978	0.1281	0.0891	0.064
Mof_Br	Br	0.197	0.1058	0.8151	-0.175
Mof_H 	H 	0.4392	0.977	0.0385	0.806
Mof_C 	C 	0.4122	0.0938	0.0221	0.944
Mof_C 	C 	0.3565	0.1272	0.9655	-0.703
Mof_H 	H 	0.3643	0.1918	0.9814	0.268
Mof_C 	C 	0.2891	0.0668	0.8868	0.478
Mof_C 	C 	0.3331	0.9396	0.9213	0.824
Mof_C 	C 	0.2774	0.973	0.8647	-0.703
Mof_H 	H 	0.2308	0.9314	0.8103	0.253
Mof_O 	O 	0.7571	0.5244	0.1353	-0.404
Mof_O 	O 	0.5903	0.4475	0.1368	-0.383
Mof_C 	C 	0.6757	0.5173	0.1098	0.399
Mof_C 	C 	0.68269	0.6069	0.0525	-0.066
Mof_C 	C 	0.773	0.6972	0.0526	0.028
Mof_H 	H 	0.8303	0.7022	0.0891	0.044
Mof_Br	Br	0.9088	0.803	0.8151	-0.178
Mof_H 	H 	0.5378	0.5608	0.0385	-0.196
Mof_C 	C 	0.6816	0.5878	0.0221	0.324
Mof_C 	C 	0.7707	0.6435	0.9655	-0.301
Mof_H 	H 	0.8275	0.6357	0.9814	0.142
Mof_C 	C 	0.7777	0.7109	0.8868	0.225
Mof_C 	C 	0.6065	0.6669	0.9213	0.263
Mof_C 	C 	0.6956	0.7226	0.8647	-0.267
Mof_H 	H 	0.7006	0.7692	0.8103	0.132
Mof_O 	O 	0.7673	0.2429	0.1353	-0.379
Mof_O 	O 	0.8572	0.4097	0.1368	-0.398
Mof_C 	C 	0.8416	0.3243	0.1098	0.326
Mof_C 	C 	0.92421	0.31731	0.0525	-0.021
Mof_C 	C 	0.9242	0.227	0.0526	-0.025
Mof_H 	H 	0.8719	0.1697	0.0891	0.068
Mof_Br	Br	0.8942	0.0912	0.8151	-0.149
Mof_H 	H 	0.023	0.4622	0.0385	0.729
Mof_C 	C 	0.9062	0.3184	0.0221	0.055
Mof_C 	C 	0.8728	0.2293	0.9655	-0.141
Mof_H 	H 	0.8082	0.1725	0.9814	0.098
Mof_C 	C 	0.9332	0.2223	0.8868	0.057
Mof_C 	C 	0.0604	0.3935	0.9213	0.115
Mof_C 	C 	0.027	0.3044	0.8647	-0.061
Mof_H 	H 	0.0686	0.2994	0.8103	0.089
Mof_Fe	Fe	0.2065	0.6606	0.75	0.959
Mof_Fe	Fe	0.3394	0.5459	0.75	0.965
Mof_Fe	Fe	0.4541	0.7935	0.75	0.952
Mof_Fe	Fe	0.6606	0.2065	0.25	0.96
Mof_Fe	Fe	0.5459	0.3394	0.25	0.967
Mof_Fe	Fe	0.7935	0.4541	0.25	0.951
Mof_O 	O 	0.33333	0.66667	0.75	-0.533
Mof_O 	O 	0.66667	0.33333	0.25	-0.534
Mof_Br	Br	-4.83334e-18	0.0991	0.5	-0.047
Mof_C 	C 	1.74645e-17	0.4004	0.5	-0.336
Mof_H 	H 	3.97624e-17	0.4621	0.5	-0.734
Mof_C 	C 	-4.83334e-18	0.2197	0.5	0.148
Mof_Br	Br	0.9009	0.9009	0.5	-0.177
Mof_C 	C 	0.5996	0.5996	0.5	0.237
Mof_H 	H 	0.5379	0.5379	0.5	0.513
Mof_C 	C 	0.7803	0.7803	0.5	0.057
Mof_Br	Br	0.0991	0	0.5	-0.048
Mof_C 	C 	0.4004	0	0.5	-0.246
Mof_H 	H 	0.4621	0	0.5	-0.533
Mof_C 	C 	0.2197	0	0.5	0.132
Mof_Br	Br	-0	0.0991	-0	-0.041
Mof_C 	C 	-0	0.4004	-0	-0.403
Mof_H 	H 	-0	0.4621	-0	-0.871
Mof_C 	C 	-0	0.2197	-0	0.154
Mof_Br	Br	0.9009	0.9009	-0	-0.177
Mof_C 	C 	0.5996	0.5996	-0	0.17
Mof_H 	H 	0.5379	0.5379	-0	0.371
Mof_C 	C 	0.7803	0.7803	-0	0.062
Mof_Br	Br	0.0991	0	-0	-0.038
Mof_C 	C 	0.4004	0	-0	-0.455
Mof_H 	H 	0.4621	0	-0	-0.952
Mof_C 	C 	0.2197	0	-0	0.125
_end
