data_functionalizedCrystal
_audit_creation_method	'EQeq! by Chris Wilmer'
_symmetry_space_group_name_H-M	'P1'
_symmetry_Int_Tables_number	1
_symmetry_cell_setting	triclinic
loop_
_symmetry_equiv_pos_as_xyz
  x,y,z
_cell_length_a	16.8431
_cell_length_b	16.8431
_cell_length_c	30.288
_cell_angle_alpha	90
_cell_angle_beta	90
_cell_angle_gamma	120
loop_
_atom_site_label
_atom_site_type_symbol
_atom_site_fract_x
_atom_site_fract_y
_atom_site_fract_z
_atom_site_charge
Mof_O 	O 	0.3474	0.5178	0.6998	-0.756
Mof_N 	N 	0.4666	0.4744	0.5116	-0.051
Mof_C 	C 	0.3817	0.4752	0.6176	0.161
Mof_H 	H 	0.3295	0.4328	0.6327	-0.016
Mof_C 	C 	0.3974	0.4548	0.5743	-0.23
Mof_H 	H 	0.3573	0.4004	0.56	0.121
Mof_O 	O 	0.4822	0.8296	0.6998	-0.756
Mof_N 	N 	0.5256	0.9922	0.5116	-0.051
Mof_C 	C 	0.5248	0.9065	0.6176	0.161
Mof_H 	H 	0.5672	0.8967	0.6327	-0.016
Mof_C 	C 	0.5452	0.9426	0.5743	-0.23
Mof_H 	H 	0.5996	0.9569	0.56	0.121
Mof_O 	O 	0.1704	0.6526	0.6998	-0.756
Mof_N 	N 	0.0078	0.5334	0.5116	-0.051
Mof_C 	C 	0.0935	0.6183	0.6176	0.161
Mof_H 	H 	0.1033	0.6705	0.6327	-0.016
Mof_C 	C 	0.0574	0.6026	0.5743	-0.23
Mof_H 	H 	0.0431	0.6427	0.56	0.121
Mof_O 	O 	0.6526	0.4822	0.1998	-0.756
Mof_N 	N 	0.5334	0.5256	0.0116	-0.051
Mof_C 	C 	0.6183	0.5248	0.1176	0.16
Mof_H 	H 	0.6705	0.5672	0.1327	-0.017
Mof_C 	C 	0.6026	0.5452	0.0743	-0.231
Mof_H 	H 	0.6427	0.5996	0.06	0.12
Mof_O 	O 	0.5178	0.1704	0.1998	-0.757
Mof_N 	N 	0.4744	0.0078	0.0116	-0.052
Mof_C 	C 	0.4752	0.0935	0.1176	0.16
Mof_H 	H 	0.4328	0.1033	0.1327	-0.017
Mof_C 	C 	0.4548	0.0574	0.0743	-0.231
Mof_H 	H 	0.4004	0.0431	0.06	0.12
Mof_O 	O 	0.8296	0.3474	0.1998	-0.757
Mof_N 	N 	0.9922	0.4666	0.0116	-0.052
Mof_C 	C 	0.9065	0.3817	0.1176	0.16
Mof_H 	H 	0.8967	0.3295	0.1327	-0.017
Mof_C 	C 	0.9426	0.3974	0.0743	-0.231
Mof_H 	H 	0.9569	0.3573	0.06	0.12
Mof_O 	O 	0.5178	0.3474	0.3002	-0.757
Mof_N 	N 	0.4744	0.4666	0.4884	-0.052
Mof_C 	C 	0.4752	0.3817	0.3824	0.16
Mof_H 	H 	0.4328	0.3295	0.3673	-0.017
Mof_C 	C 	0.4548	0.3974	0.4257	-0.231
Mof_H 	H 	0.4004	0.3573	0.44	0.12
Mof_O 	O 	0.8296	0.4822	0.3002	-0.757
Mof_N 	N 	0.9922	0.5256	0.4884	-0.052
Mof_C 	C 	0.9065	0.5248	0.3824	0.16
Mof_H 	H 	0.8967	0.5672	0.3673	-0.017
Mof_C 	C 	0.9426	0.5452	0.4257	-0.231
Mof_H 	H 	0.9569	0.5996	0.44	0.12
Mof_O 	O 	0.6526	0.1704	0.3002	-0.757
Mof_N 	N 	0.5334	0.0078	0.4884	-0.052
Mof_C 	C 	0.6183	0.0935	0.3824	0.16
Mof_H 	H 	0.6705	0.1033	0.3673	-0.017
Mof_C 	C 	0.6026	0.0574	0.4257	-0.231
Mof_H 	H 	0.6427	0.0431	0.44	0.12
Mof_O 	O 	0.4822	0.6526	0.8002	-0.757
Mof_N 	N 	0.5256	0.5334	0.9884	-0.052
Mof_C 	C 	0.5248	0.6183	0.8824	0.16
Mof_H 	H 	0.5672	0.6705	0.8673	-0.017
Mof_C 	C 	0.5452	0.6026	0.9257	-0.231
Mof_H 	H 	0.5996	0.6427	0.94	0.12
Mof_O 	O 	0.1704	0.5178	0.8002	-0.757
Mof_N 	N 	0.0078	0.4744	0.9884	-0.052
Mof_C 	C 	0.0935	0.4752	0.8824	0.16
Mof_H 	H 	0.1033	0.4328	0.8673	-0.017
Mof_C 	C 	0.0574	0.4548	0.9257	-0.231
Mof_H 	H 	0.0431	0.4004	0.94	0.12
Mof_O 	O 	0.3474	0.8296	0.8002	-0.757
Mof_N 	N 	0.4666	0.9922	0.9884	-0.052
Mof_C 	C 	0.3817	0.9065	0.8824	0.16
Mof_H 	H 	0.3295	0.8967	0.8673	-0.017
Mof_C 	C 	0.3974	0.9426	0.9257	-0.231
Mof_H 	H 	0.3573	0.9569	0.94	0.12
Mof_O 	O 	0.6526	0.4822	0.3002	-0.757
Mof_N 	N 	0.5334	0.5256	0.4884	-0.052
Mof_C 	C 	0.6183	0.5248	0.3824	0.16
Mof_H 	H 	0.6705	0.5672	0.3673	-0.017
Mof_C 	C 	0.6026	0.5452	0.4257	-0.231
Mof_H 	H 	0.6427	0.5996	0.44	0.12
Mof_O 	O 	0.5178	0.1704	0.3002	-0.757
Mof_N 	N 	0.4744	0.0078	0.4884	-0.052
Mof_C 	C 	0.4752	0.0935	0.3824	0.16
Mof_H 	H 	0.4328	0.1033	0.3673	-0.017
Mof_C 	C 	0.4548	0.0574	0.4257	-0.231
Mof_H 	H 	0.4004	0.0431	0.44	0.12
Mof_O 	O 	0.8296	0.3474	0.3002	-0.757
Mof_N 	N 	0.9922	0.4666	0.4884	-0.052
Mof_C 	C 	0.9065	0.3817	0.3824	0.16
Mof_H 	H 	0.8967	0.3295	0.3673	-0.017
Mof_C 	C 	0.9426	0.3974	0.4257	-0.231
Mof_H 	H 	0.9569	0.3573	0.44	0.12
Mof_O 	O 	0.3474	0.5178	0.8002	-0.757
Mof_N 	N 	0.4666	0.4744	0.9884	-0.052
Mof_C 	C 	0.3817	0.4752	0.8824	0.16
Mof_H 	H 	0.3295	0.4328	0.8673	-0.017
Mof_C 	C 	0.3974	0.4548	0.9257	-0.231
Mof_H 	H 	0.3573	0.4004	0.94	0.12
Mof_O 	O 	0.4822	0.8296	0.8002	-0.757
Mof_N 	N 	0.5256	0.9922	0.9884	-0.052
Mof_C 	C 	0.5248	0.9065	0.8824	0.16
Mof_H 	H 	0.5672	0.8967	0.8673	-0.017
Mof_C 	C 	0.5452	0.9426	0.9257	-0.231
Mof_H 	H 	0.5996	0.9569	0.94	0.12
Mof_O 	O 	0.1704	0.6526	0.8002	-0.757
Mof_N 	N 	0.0078	0.5334	0.9884	-0.052
Mof_C 	C 	0.0935	0.6183	0.8824	0.16
Mof_H 	H 	0.1033	0.6705	0.8673	-0.017
Mof_C 	C 	0.0574	0.6026	0.9257	-0.231
Mof_H 	H 	0.0431	0.6427	0.94	0.12
Mof_O 	O 	0.4822	0.6526	0.6998	-0.757
Mof_N 	N 	0.5256	0.5334	0.5116	-0.052
Mof_C 	C 	0.5248	0.6183	0.6176	0.16
Mof_H 	H 	0.5672	0.6705	0.6327	-0.017
Mof_C 	C 	0.5452	0.6026	0.5743	-0.231
Mof_H 	H 	0.5996	0.6427	0.56	0.12
Mof_O 	O 	0.1704	0.5178	0.6998	-0.757
Mof_N 	N 	0.0078	0.4744	0.5116	-0.052
Mof_C 	C 	0.0935	0.4752	0.6176	0.16
Mof_H 	H 	0.1033	0.4328	0.6327	-0.017
Mof_C 	C 	0.0574	0.4548	0.5743	-0.231
Mof_H 	H 	0.0431	0.4004	0.56	0.12
Mof_O 	O 	0.3474	0.8296	0.6998	-0.757
Mof_N 	N 	0.4666	0.9922	0.5116	-0.052
Mof_C 	C 	0.3817	0.9065	0.6176	0.16
Mof_H 	H 	0.3295	0.8967	0.6327	-0.017
Mof_C 	C 	0.3974	0.9426	0.5743	-0.231
Mof_H 	H 	0.3573	0.9569	0.56	0.12
Mof_O 	O 	0.5178	0.3474	0.1998	-0.757
Mof_N 	N 	0.4744	0.4666	0.0116	-0.052
Mof_C 	C 	0.4752	0.3817	0.1176	0.16
Mof_H 	H 	0.4328	0.3295	0.1327	-0.017
Mof_C 	C 	0.4548	0.3974	0.0743	-0.231
Mof_H 	H 	0.4004	0.3573	0.06	0.12
Mof_O 	O 	0.8296	0.4822	0.1998	-0.757
Mof_N 	N 	0.9922	0.5256	0.0116	-0.052
Mof_C 	C 	0.9065	0.5248	0.1176	0.16
Mof_H 	H 	0.8967	0.5672	0.1327	-0.017
Mof_C 	C 	0.9426	0.5452	0.0743	-0.231
Mof_H 	H 	0.9569	0.5996	0.06	0.12
Mof_O 	O 	0.6526	0.1704	0.1998	-0.757
Mof_N 	N 	0.5334	0.0078	0.0116	-0.052
Mof_C 	C 	0.6183	0.0935	0.1176	0.16
Mof_H 	H 	0.6705	0.1033	0.1327	-0.017
Mof_C 	C 	0.6026	0.0574	0.0743	-0.231
Mof_H 	H 	0.6427	0.0431	0.06	0.12
Mof_In	In	0.26407	0.52813	0.75	2.844
Mof_N 	N 	0.19	0.38	0.75	-0.397
Mof_C 	C 	0.09515	0.1903	0.75	0.09
Mof_C 	C 	0.0447	0.0894	0.75	0.085
Mof_In	In	0.47187	0.73593	0.75	2.844
Mof_N 	N 	0.62	0.81	0.75	-0.397
Mof_C 	C 	0.8097	0.90485	0.75	0.09
Mof_C 	C 	0.9106	0.9553	0.75	0.085
Mof_In	In	0.26407	0.73593	0.75	2.845
Mof_N 	N 	0.19	0.81	0.75	-0.398
Mof_C 	C 	0.09515	0.90485	0.75	0.091
Mof_C 	C 	0.0447	0.9553	0.75	0.084
Mof_In	In	0.73593	0.47187	0.25	2.844
Mof_N 	N 	0.81	0.62	0.25	-0.397
Mof_C 	C 	0.90485	0.8097	0.25	0.09
Mof_C 	C 	0.9553	0.9106	0.25	0.085
Mof_In	In	0.52813	0.26407	0.25	2.844
Mof_N 	N 	0.38	0.19	0.25	-0.397
Mof_C 	C 	0.1903	0.09515	0.25	0.09
Mof_C 	C 	0.0894	0.0447	0.25	0.085
Mof_In	In	0.73593	0.26407	0.25	2.845
Mof_N 	N 	0.81	0.19	0.25	-0.398
Mof_C 	C 	0.90485	0.09515	0.25	0.091
Mof_C 	C 	0.9553	0.0447	0.25	0.084
Mof_O 	O 	0.33333	0.66667	0.75	-1.502
Mof_O 	O 	0.66667	0.33333	0.25	-1.502
Mof_N 	N 	0.0943	0.04715	0.75	-0.136
Mof_N 	N 	0.95285	0.04715	0.75	-0.136
Mof_N 	N 	0.95285	0.9057	0.75	-0.136
Mof_N 	N 	0.9057	0.95285	0.25	-0.136
Mof_N 	N 	0.04715	0.95285	0.25	-0.136
Mof_N 	N 	0.04715	0.0943	0.25	-0.136
Mof_C 	C 	0.0972	0.3314	0.75	0.132
Mof_H 	H 	0.0654	0.3633	0.75	-0.037
Mof_C 	C 	0.0469	0.2355	0.75	-0.171
Mof_H 	H 	0.9831	0.2039	0.75	0.095
Mof_C 	C 	0.6686	0.7658	0.75	0.132
Mof_H 	H 	0.6367	0.7021	0.75	-0.037
Mof_C 	C 	0.7645	0.8114	0.75	-0.172
Mof_H 	H 	0.7961	0.7792	0.75	0.095
Mof_C 	C 	0.2342	0.9028	0.75	0.133
Mof_H 	H 	0.2979	0.9346	0.75	-0.037
Mof_C 	C 	0.1886	0.9531	0.75	-0.172
Mof_H 	H 	0.2208	0.0169	0.75	0.095
Mof_C 	C 	0.9028	0.6686	0.25	0.132
Mof_H 	H 	0.9346	0.6367	0.25	-0.037
Mof_C 	C 	0.9531	0.7645	0.25	-0.171
Mof_H 	H 	0.0169	0.7961	0.25	0.095
Mof_C 	C 	0.3314	0.2342	0.25	0.132
Mof_H 	H 	0.3633	0.2979	0.25	-0.037
Mof_C 	C 	0.2355	0.1886	0.25	-0.172
Mof_H 	H 	0.2039	0.2208	0.25	0.095
Mof_C 	C 	0.7658	0.0972	0.25	0.133
Mof_H 	H 	0.7021	0.0654	0.25	-0.037
Mof_C 	C 	0.8114	0.0469	0.25	-0.172
Mof_H 	H 	0.7792	0.9831	0.25	0.095
Mof_C 	C 	0.3314	0.0972	0.25	0.132
Mof_H 	H 	0.3633	0.0654	0.25	-0.037
Mof_C 	C 	0.2355	0.0469	0.25	-0.171
Mof_H 	H 	0.2039	0.9831	0.25	0.095
Mof_C 	C 	0.7658	0.6686	0.25	0.132
Mof_H 	H 	0.7021	0.6367	0.25	-0.037
Mof_C 	C 	0.8114	0.7645	0.25	-0.172
Mof_H 	H 	0.7792	0.7961	0.25	0.095
Mof_C 	C 	0.9028	0.2342	0.25	0.133
Mof_H 	H 	0.9346	0.2979	0.25	-0.037
Mof_C 	C 	0.9531	0.1886	0.25	-0.172
Mof_H 	H 	0.0169	0.2208	0.25	0.095
Mof_C 	C 	0.6686	0.9028	0.75	0.132
Mof_H 	H 	0.6367	0.9346	0.75	-0.037
Mof_C 	C 	0.7645	0.9531	0.75	-0.171
Mof_H 	H 	0.7961	0.0169	0.75	0.095
Mof_C 	C 	0.2342	0.3314	0.75	0.132
Mof_H 	H 	0.2979	0.3633	0.75	-0.037
Mof_C 	C 	0.1886	0.2355	0.75	-0.172
Mof_H 	H 	0.2208	0.2039	0.75	0.095
Mof_C 	C 	0.0972	0.7658	0.75	0.133
Mof_H 	H 	0.0654	0.7021	0.75	-0.037
Mof_C 	C 	0.0469	0.8114	0.75	-0.172
Mof_H 	H 	0.9831	0.7792	0.75	0.095
Mof_C 	C 	0.4428	0.5572	0.638	-0.265
Mof_C 	C 	0.4774	0.5226	0.5548	0.192
Mof_C 	C 	0.4227	0.5773	0.6835	0.614
Mof_C 	C 	0.4428	0.8856	0.638	-0.265
Mof_C 	C 	0.4774	0.9548	0.5548	0.192
Mof_C 	C 	0.4227	0.8454	0.6835	0.614
Mof_C 	C 	0.1144	0.5572	0.638	-0.265
Mof_C 	C 	0.0452	0.5226	0.5548	0.192
Mof_C 	C 	0.1546	0.5773	0.6835	0.614
Mof_C 	C 	0.5572	0.4428	0.138	-0.265
Mof_C 	C 	0.5226	0.4774	0.0548	0.192
Mof_C 	C 	0.5773	0.4227	0.1835	0.614
Mof_C 	C 	0.5572	0.1144	0.138	-0.265
Mof_C 	C 	0.5226	0.0452	0.0548	0.192
Mof_C 	C 	0.5773	0.1546	0.1835	0.614
Mof_C 	C 	0.8856	0.4428	0.138	-0.265
Mof_C 	C 	0.9548	0.4774	0.0548	0.192
Mof_C 	C 	0.8454	0.4227	0.1835	0.614
Mof_C 	C 	0.5572	0.4428	0.362	-0.265
Mof_C 	C 	0.5226	0.4774	0.4452	0.192
Mof_C 	C 	0.5773	0.4227	0.3165	0.614
Mof_C 	C 	0.8856	0.4428	0.362	-0.265
Mof_C 	C 	0.9548	0.4774	0.4452	0.192
Mof_C 	C 	0.8454	0.4227	0.3165	0.614
Mof_C 	C 	0.5572	0.1144	0.362	-0.265
Mof_C 	C 	0.5226	0.0452	0.4452	0.192
Mof_C 	C 	0.5773	0.1546	0.3165	0.614
Mof_C 	C 	0.4428	0.5572	0.862	-0.265
Mof_C 	C 	0.4774	0.5226	0.9452	0.192
Mof_C 	C 	0.4227	0.5773	0.8165	0.614
Mof_C 	C 	0.1144	0.5572	0.862	-0.265
Mof_C 	C 	0.0452	0.5226	0.9452	0.192
Mof_C 	C 	0.1546	0.5773	0.8165	0.614
Mof_C 	C 	0.4428	0.8856	0.862	-0.265
Mof_C 	C 	0.4774	0.9548	0.9452	0.192
Mof_C 	C 	0.4227	0.8454	0.8165	0.614
_end
