data_functionalizedCrystal
_audit_creation_method	'EQeq! by Chris Wilmer'
_symmetry_space_group_name_H-M	'P1'
_symmetry_Int_Tables_number	1
_symmetry_cell_setting	triclinic
loop_
_symmetry_equiv_pos_as_xyz
  x,y,z
_cell_length_a	32.0564
_cell_length_b	32.0564
_cell_length_c	32.0564
_cell_angle_alpha	109.471
_cell_angle_beta	109.471
_cell_angle_gamma	109.471
loop_
_atom_site_label
_atom_site_type_symbol
_atom_site_fract_x
_atom_site_fract_y
_atom_site_fract_z
_atom_site_charge
Mof_Zn	Zn	0.38484	0	-0	1.184
Mof_Zn	Zn	0.5	0	-0	1.231
Mof_Zn	Zn	0.5	0.11516	0.5	1.202
Mof_Zn	Zn	0.5	0.88484	0.5	1.203
Mof_Zn	Zn	1.79326e-17	0.5	0.5	1.24
Mof_Zn	Zn	-3.58653e-17	0.5	-0	1.232
Mof_Zn	Zn	0.61516	0.61516	0.11516	1.202
Mof_Zn	Zn	0.5	0.38484	0.5	1.202
Mof_Zn	Zn	0.5	3.58653e-17	0.5	1.24
Mof_Zn	Zn	5.37979e-17	0.5	0.88484	1.191
Mof_Zn	Zn	0.88484	0.88484	0.38484	1.203
Mof_Zn	Zn	0.5	0.61516	0.5	1.202
Mof_Zn	Zn	-5.37979e-17	0.5	0.61516	1.19
Mof_Zn	Zn	0.61516	0	-0	1.184
Mof_Zn	Zn	-1.79326e-17	0.5	0.11516	1.194
Mof_Zn	Zn	0.11516	0	-0	1.182
Mof_Zn	Zn	-0	0	-0	1.222
Mof_Zn	Zn	0.5	0.5	0.5	1.249
Mof_Zn	Zn	0.11516	0.11516	0.61516	1.2
Mof_Zn	Zn	1.79326e-17	3.58653e-17	0.5	1.23
Mof_Zn	Zn	0.38484	0.38484	0.88484	1.202
Mof_Zn	Zn	4.48316e-17	0.5	0.38484	1.194
Mof_Zn	Zn	0.5	0.5	-0	1.239
Mof_Zn	Zn	0.88484	0	-0	1.184
Mof_B 	B 	0.4368	0.7184	0.9684	1.052
Mof_B 	B 	0.0316	0.25	0.9684	1.052
Mof_B 	B 	0.4684	0.4368	0.2184	1.054
Mof_B 	B 	0.25	0.7816	0.2184	1.052
Mof_B 	B 	0.5316	0.9684	0.25	1.054
Mof_B 	B 	0.7184	0.25	0.2816	1.053
Mof_B 	B 	0.25	0.4684	0.5316	1.053
Mof_B 	B 	0.2816	0.75	0.7184	1.05
Mof_B 	B 	0.7816	0.0632	0.5316	1.085
Mof_B 	B 	0.5316	0.5632	0.7816	1.049
Mof_B 	B 	0.9368	0.9684	0.7184	1.018
Mof_B 	B 	0.75	0.2184	0.7816	1.05
Mof_B 	B 	0.7184	0.4684	0.9368	1.016
Mof_B 	B 	0.0316	0.7816	0.5632	1.047
Mof_B 	B 	0.2816	0.5316	0.0632	1.087
Mof_B 	B 	0.0632	0.0316	0.2816	1.084
Mof_B 	B 	0.9684	0.75	0.0316	1.052
Mof_B 	B 	0.2184	0.9368	0.4684	1.017
Mof_B 	B 	0.75	0.5316	0.4684	1.05
Mof_B 	B 	0.4684	0.0316	0.75	1.05
Mof_B 	B 	0.2184	0.2816	0.25	1.055
Mof_B 	B 	0.5632	0.2816	0.0316	1.05
Mof_B 	B 	0.7816	0.7184	0.75	1.049
Mof_B 	B 	0.9684	0.2184	0.4368	1.056
Mof_H 	H 	0.3848	0.6348	0.2696	0.006
Mof_H 	H 	0.5962	0.696	0.9894	0.182
Mof_H 	H 	0.2141	0.436	0.2327	0.086
Mof_H 	H 	0.0399	0.2563	0.2078	0.081
Mof_H 	H 	0.1348	0.8848	0.7696	0.029
Mof_H 	H 	0.3653	0.3975	0.254	0.21
Mof_H 	H 	0.5667	0.404	0.9547	0.16
Mof_H 	H 	0.7469	0.6069	0.5182	0.257
Mof_H 	H 	0.061	0.6526	0.647	0.154
Mof_H 	H 	0.1842	0.8968	0.5156	0.195
Mof_H 	H 	0.7075	0.957	0.4243	0.21
Mof_H 	H 	0.7287	0.0887	0.4818	0.254
Mof_H 	H 	0.2665	0.7436	0.1055	0.257
Mof_H 	H 	0.1069	0.86	0.5887	0.242
Mof_H 	H 	0.2836	0.5399	0.8321	0.083
Mof_H 	H 	0.3373	0.9333	0.388	0.195
Mof_H 	H 	0.7354	0.3693	0.2983	0.198
Mof_H 	H 	0.4493	0.5453	0.612	0.169
Mof_H 	H 	0.2999	0.4416	0.3865	0.15
Mof_H 	H 	0.9673	0.2505	0.543	0.216
Mof_H 	H 	0.9333	0.888	0.8373	0.186
Mof_H 	H 	0.2001	0.6135	0.5584	0.149
Mof_H 	H 	0.8321	0.0399	0.2836	0.072
Mof_H 	H 	0.839	0.7335	0.9771	0.195
Mof_H 	H 	0.9896	0.9187	0.7087	0.222
Mof_H 	H 	0.5056	0.414	0.853	0.164
Mof_H 	H 	0.2967	0.0186	0.7327	0.09
Mof_H 	H 	0.2691	0.6632	0.1991	0.218
Mof_H 	H 	0.6113	0.1435	0.746	0.212
Mof_H 	H 	0.1381	0.9771	0.2436	0.174
Mof_H 	H 	0.1417	0.0551	0.4416	0.151
Mof_H 	H 	0.7841	0.4919	0.8704	0.272
Mof_H 	H 	0.2925	0.2495	0.2168	0.223
Mof_H 	H 	0.2809	0.2913	0.21	0.197
Mof_H 	H 	0.7809	0.21	0.2913	0.196
Mof_H 	H 	0.9084	0.3474	0.9944	0.217
Mof_H 	H 	0.3321	0.0485	0.7922	0.101
Mof_H 	H 	0.3704	0.7841	0.9919	0.378
Mof_H 	H 	0.5528	0.4046	0.38	0.149
Mof_H 	H 	0.2219	0.0186	0.2859	0.089
Mof_H 	H 	0.2922	0.9601	0.2437	0.101
Mof_H 	H 	0.4472	0.5954	0.62	0.15
Mof_H 	H 	0.8565	0.1025	0.4678	0.223
Mof_H 	H 	0.2913	0.71	0.7809	0.196
Mof_H 	H 	0.9896	0.0709	0.7809	0.227
Mof_H 	H 	0.807	0.0417	0.2335	0.078
Mof_H 	H 	0.2696	0.1348	0.3848	0.021
Mof_H 	H 	0.4771	0.839	0.2335	0.272
Mof_H 	H 	0.7646	0.7017	0.6307	0.199
Mof_H 	H 	0.0056	0.1526	0.0916	0.107
Mof_H 	H 	0.8932	0.2934	0.9894	0.2
Mof_H 	H 	0.8565	0.754	0.8887	0.211
Mof_H 	H 	0.9601	0.7437	0.7922	0.104
Mof_H 	H 	0.1068	0.4002	0.5962	0.13
Mof_H 	H 	0.7033	0.7219	0.936	0.101
Mof_H 	H 	0.0962	0.9894	0.696	0.189
Mof_H 	H 	0.9275	0.893	0.5105	0.169
Mof_H 	H 	0.929	0.1307	0.8661	0.228
Mof_H 	H 	0.7327	0.2141	0.936	0.099
Mof_H 	H 	0.7335	0.9265	0.6918	0.097
Mof_H 	H 	0.936	0.2219	0.7033	0.099
Mof_H 	H 	0.29	0.7191	0.2087	0.199
Mof_H 	H 	0.8704	0.8785	0.5863	0.285
Mof_H 	H 	0.0629	0.1339	0.2646	0.207
Mof_H 	H 	0.3825	0.393	0.4655	0.177
Mof_H 	H 	0.5182	0.4113	0.2713	0.259
Mof_H 	H 	0.3812	0.9844	0.6686	0.245
Mof_H 	H 	0.7563	0.5399	0.7078	0.095
Mof_H 	H 	0.9002	0.6068	0.0962	0.163
Mof_H 	H 	0.4371	0.7354	0.8661	0.202
Mof_H 	H 	0.7327	0.5186	0.2967	0.089
Mof_H 	H 	0.0056	0.853	0.414	0.129
Mof_H 	H 	0.7017	0.1307	0.2646	0.196
Mof_H 	H 	0.2001	0.5866	0.1417	0.148
Mof_H 	H 	0.1632	0.3941	0.9641	0.204
Mof_H 	H 	0.12	0.4472	0.0954	0.173
Mof_H 	H 	0.2191	0.4291	0.0104	0.158
Mof_H 	H 	0.0887	0.9818	0.2287	0.169
Mof_H 	H 	0.2841	0.4137	0.2922	0.273
Mof_H 	H 	0.2999	0.8583	0.4134	0.152
Mof_H 	H 	0.7219	0.2859	0.0186	0.092
Mof_H 	H 	0.3082	0.7347	0.5417	0.101
Mof_H 	H 	0.4818	0.5887	0.7287	0.255
Mof_H 	H 	0.2287	0.7469	0.64	0.256
Mof_H 	H 	0.0229	0.2564	0.3619	0.344
Mof_H 	H 	0.8968	0.0156	0.6842	0.158
Mof_H 	H 	0.6482	0.0528	0.1728	0.129
Mof_H 	H 	0.1025	0.1347	0.246	0.221
Mof_H 	H 	0.9046	0.0528	0.88	0.109
Mof_H 	H 	0.7168	0.4243	0.4673	0.225
Mof_H 	H 	0.0399	0.7836	0.3321	0.084
Mof_H 	H 	0.6686	0.4844	0.3812	0.208
Mof_H 	H 	0.4641	0.1632	0.8941	0.222
Mof_H 	H 	0.3009	0.7309	0.8368	0.215
Mof_H 	H 	0.0485	0.2922	0.8321	0.092
Mof_H 	H 	0.6435	0.1113	0.246	0.208
Mof_H 	H 	0.9895	0.0725	0.607	0.223
Mof_H 	H 	0.7922	0.2841	0.9137	0.271
Mof_H 	H 	0.7335	0.807	0.5417	0.095
Mof_H 	H 	0.7983	0.7354	0.8693	0.2
Mof_H 	H 	0.7309	0.3941	0.43	0.217
Mof_H 	H 	0.9113	0.8931	0.64	0.271
Mof_H 	H 	0.4046	0.88	0.0528	0.122
Mof_H 	H 	0.0916	0.439	0.586	0.143
Mof_H 	H 	0.4919	0.1215	0.7078	0.258
Mof_H 	H 	0.7033	0.9814	0.2673	0.085
Mof_H 	H 	0.9291	0.7191	0.5104	0.209
Mof_H 	H 	0.4896	0.7087	0.9187	0.183
Mof_H 	H 	0.7563	0.2164	0.5485	0.093
Mof_H 	H 	0.304	0.7934	0.9002	0.155
Mof_H 	H 	0.7713	0.5182	0.9113	0.259
Mof_H 	H 	0.2563	0.5485	0.2164	0.091
Mof_H 	H 	0.3314	0.5156	0.6188	0.207
Mof_H 	H 	0.3158	0.4844	0.1032	0.221
Mof_H 	H 	0.3693	0.571	0.6339	0.199
Mof_H 	H 	0.7531	0.2713	0.86	0.257
Mof_H 	H 	0.9818	0.2531	0.8931	0.189
Mof_H 	H 	0.064	0.2859	0.2673	0.076
Mof_H 	H 	0.596	0.0507	0.1627	0.15
Mof_H 	H 	0.14	0.2287	0.2469	0.258
Mof_H 	H 	0.6417	0.2001	0.0866	0.145
Mof_H 	H 	0.8932	0.5998	0.4038	0.168
Mof_H 	H 	0.9844	0.1686	0.8812	0.247
Mof_H 	H 	0.043	0.0757	0.7925	0.231
Mof_H 	H 	0.9046	0.8518	0.5246	0.137
Mof_H 	H 	0.0182	0.2713	0.4113	0.342
Mof_H 	H 	0.7859	0.2219	0.5186	0.089
Mof_H 	H 	0.6627	0.0667	0.612	0.143
Mof_H 	H 	0.7078	0.0399	0.7563	0.085
Mof_H 	H 	0.1175	0.583	0.0105	0.143
Mof_H 	H 	0.161	0.2665	0.0229	0.329
Mof_H 	H 	0.4265	0.193	0.7347	0.108
Mof_H 	H 	0.147	0.086	0.4944	0.169
Mof_H 	H 	0.4601	0.7922	0.7437	0.094
Mof_H 	H 	0.3968	0.6842	0.0156	0.17
Mof_H 	H 	0.36	0.7531	0.7713	0.256
Mof_H 	H 	0.3082	0.5735	0.2665	0.099
Mof_H 	H 	0.4291	0.9187	0.21	0.181
Mof_H 	H 	0.07	0.8009	0.4641	0.233
Mof_H 	H 	0.8848	0.6152	0.75	0.013
Mof_H 	H 	0.429	0.8661	0.1307	0.2
Mof_H 	H 	0.6069	0.0182	0.2469	0.342
Mof_H 	H 	0.9187	0.2087	0.4896	0.182
Mof_H 	H 	0.5322	0.1347	0.8887	0.209
Mof_H 	H 	0.439	0.086	0.5916	0.171
Mof_H 	H 	0.6188	0.6032	0.7874	0.208
Mof_H 	H 	0.4084	0.9944	0.3474	0.2
Mof_H 	H 	0.7335	0.2564	0.8945	0.261
Mof_H 	H 	0.5735	0.7665	0.8082	0.107
Mof_H 	H 	0.3945	0.661	0.1381	0.26
Mof_H 	H 	0.0584	0.2001	0.1135	0.104
Mof_H 	H 	0.79	0.5813	0.5709	0.199
Mof_H 	H 	0.2126	0.3158	0.3314	0.207
Mof_H 	H 	0.2335	0.339	0.4771	0.259
Mof_H 	H 	0.8975	0.0322	0.6435	0.164
Mof_H 	H 	0.5345	0.107	0.6175	0.173
Mof_H 	H 	0.5551	0.6417	0.9416	0.179
Mof_H 	H 	0.5584	0.1135	0.2001	0.132
Mof_H 	H 	0.1032	0.1188	0.2874	0.219
Mof_H 	H 	0.6069	0.5887	0.86	0.255
Mof_H 	H 	0.5998	0.696	0.7066	0.15
Mof_H 	H 	0.7354	0.3661	0.9371	0.187
Mof_H 	H 	0.5453	0.4333	0.096	0.164
Mof_H 	H 	0.0998	0.7066	0.696	0.144
Mof_H 	H 	0.3704	0.5863	0.8785	0.286
Mof_H 	H 	0.9275	0.0345	0.917	0.141
Mof_H 	H 	0.7696	0.3848	0.1348	0.025
Mof_H 	H 	0.254	0.8975	0.3653	0.195
Mof_H 	H 	0.612	0.0453	0.4493	0.178
Mof_H 	H 	0.2665	0.5229	0.661	0.26
Mof_H 	H 	0.5863	0.3785	0.8704	0.272
Mof_H 	H 	0.3932	0.4038	0.5998	0.148
Mof_H 	H 	0.6435	0.5322	0.8975	0.196
Mof_H 	H 	0.9919	0.7078	0.1215	0.365
Mof_H 	H 	0.6025	0.3565	0.9678	0.244
Mof_H 	H 	0.3474	0.4944	0.4084	0.163
Mof_H 	H 	0.6918	0.4265	0.7335	0.102
Mof_H 	H 	0.7087	0.4187	0.9896	0.239
Mof_H 	H 	0.4243	0.9673	0.2168	0.214
Mof_H 	H 	0.096	0.9333	0.5453	0.19
Mof_H 	H 	0.2832	0.7075	0.2505	0.227
Mof_H 	H 	0.853	0.939	0.8474	0.175
Mof_H 	H 	0.1175	0.5345	0.607	0.176
Mof_H 	H 	0.7191	0.0104	0.4291	0.157
Mof_H 	H 	0.061	0.4084	0.914	0.146
Mof_H 	H 	0.5105	0.1175	0.083	0.182
Mof_H 	H 	0.5863	0.2078	0.2159	0.272
Mof_H 	H 	0.696	0.4894	0.0962	0.157
Mof_H 	H 	0.4046	0.5246	0.8518	0.151
Mof_H 	H 	0.1632	0.7691	0.6991	0.22
Mof_H 	H 	0.3887	0.5322	0.6347	0.21
Mof_H 	H 	0.4472	0.8518	0.3272	0.152
Mof_H 	H 	0.8693	0.6339	0.571	0.201
Mof_H 	H 	0.3321	0.2836	0.0399	0.08
Mof_H 	H 	0.0528	0.38	0.4046	0.13
Mof_H 	H 	0.2287	0.4818	0.0887	0.255
Mof_H 	H 	0.5182	0.1069	0.7469	0.244
Mof_H 	H 	0.2832	0.5757	0.5327	0.226
Mof_H 	H 	0.86	0.7713	0.7531	0.256
Mof_H 	H 	0.2354	0.9371	0.3661	0.187
Mof_H 	H 	0.6526	0.5056	0.5916	0.163
Mof_H 	H 	0.5916	0.0056	0.6526	0.127
Mof_H 	H 	0.88	0.3272	0.4754	0.141
Mof_H 	H 	0.8619	0.0229	0.7564	0.336
Mof_H 	H 	0.939	0.3474	0.353	0.172
Mof_H 	H 	0.0507	0.6627	0.096	0.147
Mof_H 	H 	0.1686	0.3812	0.4844	0.207
Mof_H 	H 	0.4655	0.893	0.3825	0.182
Mof_H 	H 	0.75	0.1152	0.8848	0.008
Mof_H 	H 	0.7436	0.1381	0.4771	0.258
Mof_H 	H 	0.8518	0.0246	0.4046	0.124
Mof_H 	H 	0.9371	0.071	0.7017	0.16
Mof_H 	H 	0.9493	0.3373	0.904	0.191
Mof_H 	H 	0.3941	0.4641	0.6632	0.217
Mof_H 	H 	0.0528	0.6728	0.1482	0.129
Mof_H 	H 	0.5528	0.1482	0.6728	0.147
Mof_H 	H 	0.2327	0.936	0.2141	0.098
Mof_H 	H 	0.7287	0.64	0.7469	0.255
Mof_H 	H 	0.4678	0.8653	0.1113	0.212
Mof_H 	H 	0.2934	0.4894	0.3932	0.149
Mof_H 	H 	0.4113	0.7713	0.0182	0.336
Mof_H 	H 	0.9134	0.6135	0.0551	0.157
Mof_H 	H 	0.888	0.3373	0.4333	0.16
Mof_H 	H 	0.6135	0.5551	0.4134	0.15
Mof_H 	H 	0.583	0.5105	0.6175	0.177
Mof_H 	H 	0.25	0.3652	0.6348	0.006
Mof_H 	H 	0.7066	0.5106	0.6068	0.149
Mof_H 	H 	0.112	0.4493	0.0453	0.186
Mof_H 	H 	0.4038	0.0998	0.8932	0.162
Mof_H 	H 	0.083	0.4655	0.0725	0.196
Mof_H 	H 	0.4515	0.1679	0.7078	0.101
Mof_H 	H 	0.3619	0.7564	0.0229	0.337
Mof_H 	H 	0.86	0.0887	0.6069	0.254
Mof_H 	H 	0.0106	0.804	0.4038	0.117
Mof_H 	H 	0.3661	0.929	0.6307	0.227
Mof_H 	H 	0.4333	0.596	0.0453	0.177
Mof_H 	H 	0.436	0.7033	0.2219	0.087
Mof_H 	H 	0.4134	0.3583	0.2999	0.15
Mof_H 	H 	0.6526	0.147	0.561	0.161
Mof_H 	H 	0.9678	0.8565	0.6025	0.242
Mof_H 	H 	0.2859	0.5186	0.2219	0.087
Mof_H 	H 	0.7653	0.5735	0.307	0.102
Mof_H 	H 	0.2075	0.4243	0.957	0.21
Mof_H 	H 	0.4416	0.5551	0.1417	0.149
Mof_H 	H 	0.8272	0.38	0.9754	0.179
Mof_H 	H 	0.1347	0.746	0.6025	0.207
Mof_H 	H 	0.2437	0.7836	0.4515	0.092
Mof_H 	H 	0.9137	0.7841	0.7922	0.27
Mof_H 	H 	0.7691	0.1991	0.6632	0.218
Mof_H 	H 	0.7001	0.1417	0.5866	0.149
Mof_H 	H 	0.6215	0.9919	0.2078	0.386
Mof_H 	H 	0.9333	0.0453	0.596	0.202
Mof_H 	H 	0.2436	0.7665	0.6055	0.259
Mof_H 	H 	0.5345	0.4275	0.417	0.177
Mof_H 	H 	0.607	0.5725	0.9895	0.211
Mof_H 	H 	0.5962	0.9002	0.1068	0.138
Mof_H 	H 	0.8009	0.8368	0.7309	0.216
Mof_H 	H 	0.4449	0.3583	0.0584	0.12
Mof_H 	H 	0.0725	0.9655	0.083	0.215
Mof_H 	H 	0.3314	0.8158	0.2126	0.206
Mof_H 	H 	0.1055	0.8619	0.339	0.258
Mof_H 	H 	0.7141	0.2327	0.436	0.088
Mof_H 	H 	0.2126	0.8968	0.3812	0.194
Mof_H 	H 	0.4275	0.5105	0.893	0.181
Mof_H 	H 	0.0186	0.7859	0.7219	0.094
Mof_H 	H 	0.0866	0.3865	0.9449	0.144
Mof_H 	H 	0.2505	0.2075	0.2832	0.226
Mof_H 	H 	0.436	0.7327	0.7141	0.089
Mof_H 	H 	0.2934	0.804	0.4002	0.149
Mof_H 	H 	0.5629	0.2646	0.1339	0.195
Mof_H 	H 	0.8825	0.4655	0.393	0.179
Mof_H 	H 	0.5757	0.0327	0.7832	0.237
Mof_H 	H 	0.9601	0.2164	0.6679	0.102
Mof_H 	H 	0.0156	0.8314	0.1188	0.17
Mof_H 	H 	0.0322	0.8887	0.1347	0.178
Mof_H 	H 	0.6307	0.429	0.3661	0.199
Mof_H 	H 	0.2164	0.1679	0.4601	0.1
Mof_H 	H 	0.746	0.1025	0.6347	0.225
Mof_H 	H 	0.8314	0.2126	0.8158	0.207
Mof_H 	H 	0.7781	0.7967	0.564	0.081
Mof_H 	H 	0.5813	0.0709	0.29	0.187
Mof_H 	H 	0.1381	0.161	0.3945	0.246
Mof_H 	H 	0.5667	0.1627	0.112	0.177
Mof_H 	H 	0.1348	0.25	0.8652	0.005
Mof_H 	H 	0.2033	0.936	0.7219	0.11
Mof_H 	H 	0.0104	0.9291	0.2191	0.173
Mof_H 	H 	0.4919	0.3704	0.2841	0.274
Mof_H 	H 	0.6175	0.607	0.5345	0.177
Mof_H 	H 	0.388	0.4333	0.3373	0.169
Mof_H 	H 	0.8887	0.6347	0.5322	0.212
Mof_H 	H 	0.6627	0.596	0.5507	0.169
Mof_H 	H 	0.1918	0.7335	0.4265	0.099
Mof_H 	H 	0.957	0.0327	0.2495	0.219
Mof_H 	H 	0.6347	0.6025	0.746	0.21
Mof_H 	H 	0.693	0.7665	0.9583	0.116
Mof_H 	H 	0.147	0.061	0.1526	0.15
Mof_H 	H 	0.6059	0.07	0.7691	0.234
Mof_H 	H 	0.6632	0.6991	0.7691	0.219
Mof_H 	H 	0.0629	0.929	0.2983	0.239
Mof_H 	H 	0.5954	0.12	0.9472	0.178
Mof_H 	H 	0.3887	0.8565	0.254	0.209
Mof_H 	H 	0.8865	0.2999	0.9416	0.195
Mof_H 	H 	0.21	0.4187	0.4291	0.197
Mof_H 	H 	0.7874	0.1032	0.6188	0.221
Mof_H 	H 	0.0182	0.7469	0.1069	0.324
Mof_H 	H 	0.7983	0.0629	0.429	0.209
Mof_H 	H 	0.5887	0.2287	0.9818	0.172
Mof_H 	H 	0.6188	0.0156	0.3314	0.168
Mof_H 	H 	0.5156	0.3968	0.1842	0.208
Mof_H 	H 	0.2087	0.9896	0.4187	0.24
Mof_H 	H 	0.8652	0.1152	0.2304	-0.015
Mof_H 	H 	0.38	0.4754	0.3272	0.15
Mof_H 	H 	0.7967	0.7327	0.0186	0.081
Mof_H 	H 	0.5725	0.4895	0.107	0.173
Mof_H 	H 	0.5399	0.2078	0.2563	0.091
Mof_H 	H 	0.8941	0.6632	0.4641	0.221
Mof_H 	H 	0.4547	0.5667	0.904	0.174
Mof_H 	H 	0.353	0.5056	0.914	0.154
Mof_H 	H 	0.36	0.6069	0.0887	0.255
Mof_H 	H 	0.3945	0.7335	0.7564	0.259
Mof_H 	H 	0.3693	0.7983	0.2354	0.197
Mof_H 	H 	0.7066	0.196	0.5998	0.148
Mof_H 	H 	0.8704	0.9919	0.7841	0.377
Mof_H 	H 	0.0584	0.8583	0.4449	0.123
Mof_H 	H 	0.7564	0.2335	0.3945	0.259
Mof_H 	H 	0.9547	0.904	0.5667	0.165
Mof_H 	H 	0.4771	0.6381	0.7436	0.257
Mof_H 	H 	0.7309	0.3368	0.8009	0.217
Mof_H 	H 	0.9291	0.21	0.9187	0.192
Mof_H 	H 	0.2168	0.4673	0.4243	0.225
Mof_H 	H 	0.1188	0.3314	0.0156	0.167
Mof_H 	H 	0.1135	0.7001	0.0584	0.106
Mof_H 	H 	0.4493	0.904	0.3373	0.174
Mof_H 	H 	0.2505	0.043	0.4673	0.242
Mof_H 	H 	0.7665	0.4583	0.193	0.112
Mof_H 	H 	0.7437	0.4515	0.7836	0.094
Mof_H 	H 	0.8931	0.14	0.4113	0.271
Mof_H 	H 	0.5104	0.2191	0.9291	0.21
Mof_H 	H 	0.0327	0.2832	0.0757	0.226
Mof_H 	H 	0.0735	0.2653	0.807	0.098
Mof_H 	H 	0.0709	0.79	0.0813	0.204
Mof_H 	H 	0.2354	0.2983	0.3693	0.198
Mof_H 	H 	0.6679	0.9515	0.2078	0.083
Mof_H 	H 	0.2159	0.7078	0.5863	0.271
Mof_H 	H 	0.107	0.9895	0.5725	0.207
Mof_H 	H 	0.9472	0.62	0.5954	0.169
Mof_H 	H 	0.2066	0.6068	0.5106	0.147
Mof_H 	H 	0.3652	0.1348	0.75	0.022
Mof_H 	H 	0.7191	0.7087	0.79	0.2
Mof_H 	H 	0.5417	0.307	0.7335	0.101
Mof_H 	H 	0.904	0.8373	0.9493	0.19
Mof_H 	H 	0.93	0.1991	0.5359	0.201
Mof_H 	H 	0.2469	0.7287	0.14	0.256
Mof_H 	H 	0.2327	0.2967	0.5186	0.087
Mof_H 	H 	0.8825	0.417	0.9895	0.212
Mof_H 	H 	0.8474	0.439	0.853	0.166
Mof_H 	H 	0.3373	0.404	0.4493	0.169
Mof_H 	H 	0.5359	0.6991	0.93	0.203
Mof_H 	H 	0.1339	0.3693	0.071	0.166
Mof_H 	H 	0.339	0.3619	0.1055	0.259
Mof_H 	H 	0.0081	0.2922	0.8785	0.177
Mof_H 	H 	0.64	0.3931	0.9113	0.258
Mof_H 	H 	0.1152	0.3848	0.25	0.001
Mof_H 	H 	0.9673	0.7168	0.9243	0.226
Mof_H 	H 	0.7922	0.5485	0.3321	0.093
Mof_H 	H 	0.2495	0.7168	0.7925	0.224
Mof_H 	H 	0.9265	0.7347	0.193	0.103
Mof_H 	H 	0.7219	0.436	0.2033	0.1
Mof_H 	H 	0.7934	0.3932	0.4894	0.151
Mof_H 	H 	0.6381	0.3945	0.161	0.246
Mof_H 	H 	0.0757	0.2925	0.543	0.215
Mof_H 	H 	0.583	0.0725	0.4655	0.19
Mof_H 	H 	0.88	0.5528	0.9046	0.127
Mof_H 	H 	0.414	0.353	0.0056	0.126
Mof_H 	H 	0.5998	0.9038	0.3932	0.141
Mof_H 	H 	0.2309	0.8009	0.3368	0.217
Mof_H 	H 	0.914	0.0056	0.353	0.119
Mof_H 	H 	0.8373	0.4493	0.404	0.17
Mof_H 	H 	0.4583	0.693	0.2665	0.1
Mof_H 	H 	0.4583	0.7653	0.6918	0.103
Mof_H 	H 	0.8812	0.6686	0.9844	0.247
Mof_H 	H 	0.586	0.647	0.9944	0.198
Mof_H 	H 	0.0104	0.0813	0.2913	0.173
Mof_H 	H 	0.2066	0.5998	0.196	0.146
Mof_H 	H 	0.3865	0.9416	0.2999	0.18
Mof_H 	H 	0.2437	0.4601	0.2922	0.09
Mof_H 	H 	0.8619	0.839	0.6055	0.271
Mof_H 	H 	0.8368	0.2309	0.3009	0.215
Mof_H 	H 	0.0735	0.8082	0.7665	0.112
Mof_H 	H 	0.393	0.9655	0.8825	0.197
Mof_H 	H 	0.7564	0.5229	0.8619	0.259
Mof_H 	H 	0.3368	0.0359	0.6059	0.232
Mof_H 	H 	0.2347	0.4265	0.693	0.099
Mof_H 	H 	0.2646	0.6307	0.7017	0.199
Mof_H 	H 	0.071	0.8693	0.1339	0.171
Mof_H 	H 	0.571	0.4371	0.2017	0.199
Mof_H 	H 	0.888	0.5507	0.9547	0.153
Mof_H 	H 	0.853	0.914	0.5056	0.156
Mof_H 	H 	0.1686	0.7874	0.1842	0.208
Mof_H 	H 	0.1307	0.3661	0.429	0.196
Mof_H 	H 	0.2191	0.79	0.7087	0.2
Mof_H 	H 	0.1339	0.7646	0.5629	0.195
Mof_H 	H 	0.9449	0.0584	0.3583	0.12
Mof_H 	H 	0.8865	0.5866	0.4449	0.167
Mof_H 	H 	0.2087	0.2191	0.29	0.199
Mof_H 	H 	0.0667	0.112	0.1627	0.151
Mof_H 	H 	0.8314	0.6188	0.5156	0.208
Mof_H 	H 	0.6347	0.0322	0.3887	0.175
Mof_H 	H 	0.6152	0.3652	0.7304	0.008
Mof_H 	H 	0.696	0.2066	0.0998	0.142
Mof_H 	H 	0.4134	0.0551	0.6135	0.153
Mof_H 	H 	0.14	0.9113	0.3931	0.259
Mof_H 	H 	0.2967	0.2781	0.064	0.074
Mof_H 	H 	0.7335	0.4771	0.339	0.259
Mof_H 	H 	0.4896	0.7809	0.0709	0.187
Mof_H 	H 	0.8785	0.7922	0.0081	0.181
Mof_H 	H 	0.4137	0.7922	0.7841	0.271
Mof_H 	H 	0.9371	0.8661	0.7354	0.191
Mof_H 	H 	0.5106	0.1068	0.2066	0.127
Mof_H 	H 	0.0998	0.3932	0.9038	0.135
Mof_H 	H 	0.4844	0.6032	0.8158	0.207
Mof_H 	H 	0.6918	0.2653	0.4583	0.1
Mof_H 	H 	0.254	0.3565	0.3887	0.21
Mof_H 	H 	0.543	0.7925	0.0757	0.216
Mof_H 	H 	0.6113	0.4678	0.3653	0.21
Mof_H 	H 	0.8082	0.2665	0.5735	0.103
Mof_H 	H 	0.1417	0.0866	0.2001	0.143
Mof_H 	H 	0.2665	0.193	0.4583	0.108
Mof_H 	H 	0.1991	0.0359	0.43	0.232
Mof_H 	H 	0.7078	0.0863	0.7159	0.271
Mof_H 	H 	0.939	0.5916	0.086	0.18
Mof_H 	H 	0.596	0.5453	0.9333	0.194
Mof_H 	H 	0.9187	0.71	0.9291	0.193
Mof_H 	H 	0.0359	0.93	0.6991	0.216
Mof_H 	H 	0.8272	0.4472	0.3518	0.151
Mof_H 	H 	0.457	0.2075	0.9243	0.236
Mof_H 	H 	0.2859	0.7673	0.564	0.088
Mof_H 	H 	0.9515	0.7078	0.1679	0.093
Mof_H 	H 	0.2713	0.9113	0.5182	0.26
Mof_H 	H 	0.1032	0.9844	0.3158	0.26
Mof_H 	H 	0.64	0.2469	0.2287	0.257
Mof_H 	H 	0.0551	0.9416	0.6417	0.181
Mof_H 	H 	0.7653	0.1918	0.9583	0.112
Mof_H 	H 	0.5359	0.8368	0.1059	0.212
Mof_H 	H 	0.2673	0.7859	0.064	0.079
Mof_H 	H 	0.2841	0.8704	0.4919	0.273
Mof_H 	H 	0.2347	0.8082	0.0417	0.091
Mof_H 	H 	0.043	0.9673	0.7505	0.231
Mof_H 	H 	0.6339	0.071	0.3693	0.169
Mof_H 	H 	0.0813	0.7913	0.5104	0.214
Mof_H 	H 	0.2922	0.3785	0.5081	0.272
Mof_H 	H 	0.414	0.061	0.9084	0.174
Mof_H 	H 	0.0345	0.6175	0.107	0.154
Mof_H 	H 	0.5056	0.0916	0.1526	0.14
Mof_H 	H 	0.1068	0.7066	0.0106	0.099
Mof_H 	H 	0.8931	0.7531	0.9818	0.192
Mof_H 	H 	0.2713	0.36	0.2531	0.258
Mof_H 	H 	0.1482	0.1728	0.0528	0.127
Mof_H 	H 	0.3518	0.4046	0.0246	0.121
Mof_H 	H 	0.3272	0.3518	0.4472	0.149
Mof_H 	H 	0.0105	0.9275	0.393	0.132
Mof_H 	H 	0.4673	0.543	0.2505	0.226
Mof_H 	H 	0.7017	0.571	0.9371	0.187
Mof_H 	H 	0.7078	0.6215	0.4919	0.272
Mof_H 	H 	0.6135	0.0584	0.7001	0.121
Mof_H 	H 	0.9754	0.88	0.8272	0.17
Mof_H 	H 	0.0105	0.083	0.1175	0.148
Mof_H 	H 	0.8652	0.75	0.1348	0.007
Mof_H 	H 	0.807	0.7653	0.0735	0.1
Mof_H 	H 	0.4673	0.9243	0.7168	0.235
Mof_H 	H 	0.79	0.2087	0.7191	0.199
Mof_H 	H 	0.9583	0.2665	0.693	0.112
Mof_H 	H 	0.0485	0.7563	0.7164	0.104
Mof_H 	H 	0.2017	0.2646	0.1307	0.197
Mof_H 	H 	0.7126	0.3812	0.8968	0.194
Mof_H 	H 	0.2665	0.0735	0.3082	0.105
Mof_H 	H 	0.5551	0.9134	0.1135	0.14
Mof_H 	H 	0.4895	0.607	0.0725	0.189
Mof_H 	H 	0.607	0.0345	0.1175	0.156
Mof_H 	H 	0.8583	0.9449	0.5584	0.149
Mof_H 	H 	0.393	0.4275	0.0105	0.143
Mof_H 	H 	0.3661	0.4371	0.2354	0.198
Mof_H 	H 	0.9771	0.2335	0.839	0.192
Mof_H 	H 	0.9493	0.612	0.5453	0.187
Mof_H 	H 	0.7832	0.2505	0.7075	0.227
Mof_H 	H 	0.2653	0.9583	0.1918	0.11
Mof_H 	H 	0.1482	0.9754	0.5954	0.176
Mof_H 	H 	0.9134	0.2999	0.3583	0.154
Mof_H 	H 	0.8812	0.2126	0.3968	0.21
Mof_H 	H 	0.4137	0.6215	0.1296	0.272
Mof_H 	H 	0.4187	0.4896	0.2087	0.198
Mof_H 	H 	0.7913	0.0104	0.5813	0.159
Mof_H 	H 	0.5709	0.0813	0.79	0.215
Mof_H 	H 	0.647	0.4944	0.086	0.171
Mof_H 	H 	0.1526	0.5916	0.5056	0.16
Mof_H 	H 	0.6842	0.5156	0.8968	0.194
Mof_H 	H 	0.3785	0.3704	0.0863	0.274
Mof_H 	H 	0.246	0.6113	0.6435	0.21
Mof_H 	H 	0.404	0.9493	0.8373	0.186
Mof_H 	H 	0.6152	0.25	0.3848	0.006
Mof_H 	H 	0.2335	0.5417	0.807	0.09
Mof_H 	H 	0.6068	0.0106	0.7066	0.116
Mof_H 	H 	0.4944	0.9084	0.8474	0.183
Mof_H 	H 	0.7665	0.3082	0.0735	0.109
Mof_H 	H 	0.1627	0.612	0.0667	0.144
Mof_H 	H 	0.339	0.9771	0.7335	0.18
Mof_H 	H 	0.71	0.2809	0.7913	0.198
Mof_H 	H 	0.457	0.2495	0.0327	0.235
Mof_H 	H 	0.2075	0.7832	0.7505	0.228
Mof_H 	H 	0.7665	0.1055	0.7436	0.257
Mof_H 	H 	0.2164	0.0485	0.2563	0.099
Mof_H 	H 	0.5081	0.6296	0.7159	0.27
Mof_H 	H 	0.4894	0.8932	0.7934	0.168
Mof_H 	H 	0.3565	0.4678	0.1025	0.224
Mof_H 	H 	0.2836	0.7437	0.9515	0.083
Mof_H 	H 	0.4416	0.8865	0.7999	0.167
Mof_H 	H 	0.561	0.914	0.4084	0.155
Mof_H 	H 	0.4113	0.64	0.8931	0.27
Mof_H 	H 	0.9113	0.0182	0.7713	0.337
Mof_H 	H 	0.1679	0.9601	0.7164	0.112
Mof_H 	H 	0.8661	0.6307	0.929	0.23
Mof_H 	H 	0.9084	0.561	0.414	0.182
Mof_H 	H 	0.5156	0.1188	0.8314	0.206
Mof_H 	H 	0.353	0.8474	0.939	0.173
Mof_H 	H 	0.4038	0.304	0.0106	0.114
Mof_H 	H 	0.7781	0.9814	0.7141	0.088
Mof_H 	H 	0.3474	0.853	0.439	0.164
Mof_H 	H 	0.9038	0.8932	0.0998	0.153
Mof_H 	H 	0.0962	0.1068	0.9002	0.145
Mof_H 	H 	0.9002	0.2934	0.304	0.154
Mof_H 	H 	0.107	0.1175	0.0345	0.152
Mof_H 	H 	0.304	0.5106	0.9038	0.14
Mof_H 	H 	0.5186	0.7967	0.2327	0.078
Mof_H 	H 	0.6032	0.2874	0.1188	0.205
Mof_H 	H 	0.9944	0.147	0.586	0.198
Mof_H 	H 	0.6679	0.7164	0.9601	0.104
Mof_H 	H 	0.62	0.5246	0.6728	0.15
Mof_H 	H 	0.4944	0.586	0.147	0.161
Mof_H 	H 	0.4002	0.304	0.2934	0.148
Mof_H 	H 	0.3785	0.0081	0.7922	0.164
Mof_H 	H 	0.4641	0.3009	0.07	0.233
Mof_H 	H 	0.1435	0.246	0.1113	0.209
Mof_H 	H 	0.7495	0.7925	0.7168	0.225
Mof_H 	H 	0.0709	0.2809	0.4896	0.187
Mof_H 	H 	0.2922	0.9137	0.2841	0.272
Mof_H 	H 	0.8785	0.0863	0.3704	0.288
Mof_H 	H 	0.9895	0.917	0.8825	0.206
Mof_H 	H 	0.93	0.7309	0.8941	0.206
Mof_H 	H 	0.0866	0.7001	0.6417	0.146
Mof_H 	H 	0.1728	0.62	0.0246	0.121
Mof_H 	H 	0.0725	0.107	0.4895	0.186
Mof_H 	H 	0.5106	0.4038	0.804	0.149
Mof_H 	H 	0.62	0.0954	0.4472	0.165
Mof_H 	H 	0.5916	0.586	0.439	0.163
Mof_H 	H 	0.2564	0.3945	0.2335	0.26
Mof_H 	H 	0.8945	0.7564	0.7335	0.26
Mof_H 	H 	0.9754	0.0954	0.6482	0.192
Mof_H 	H 	0.9641	0.07	0.3009	0.218
Mof_H 	H 	0.6032	0.3158	0.9844	0.246
Mof_H 	H 	0.6055	0.339	0.8619	0.259
Mof_H 	H 	0.404	0.4547	0.0667	0.143
Mof_H 	H 	0.5507	0.096	0.6627	0.164
Mof_H 	H 	0.3518	0.9472	0.8272	0.169
Mof_H 	H 	0.7469	0.14	0.7287	0.256
Mof_H 	H 	0.5866	0.6417	0.7001	0.151
Mof_H 	H 	0.4243	0.457	0.7075	0.225
Mof_H 	H 	0.7075	0.7505	0.7832	0.228
Mof_H 	H 	0.8848	0.2696	0.6348	0.011
Mof_H 	H 	0.5186	0.7219	0.7859	0.092
Mof_H 	H 	0.564	0.2673	0.2859	0.087
Mof_H 	H 	0.4601	0.6679	0.2164	0.092
Mof_H 	H 	0.2335	0.8945	0.2564	0.261
Mof_H 	H 	0.754	0.3887	0.3565	0.21
Mof_H 	H 	0.6296	0.4137	0.1215	0.257
Mof_H 	H 	0.246	0.6347	0.1025	0.224
Mof_H 	H 	0.7347	0.693	0.4265	0.102
Mof_H 	H 	0.7159	0.5863	0.7078	0.27
Mof_H 	H 	0.6482	0.5954	0.9754	0.178
Mof_H 	H 	0.4754	0.8272	0.88	0.143
Mof_H 	H 	0.4449	0.0866	0.8865	0.163
Mof_H 	H 	0.2781	0.7141	0.9814	0.085
Mof_H 	H 	0.0327	0.7495	0.457	0.236
Mof_H 	H 	0.2436	0.4771	0.1381	0.259
Mof_H 	H 	0.839	0.1055	0.3619	0.271
Mof_H 	H 	0.2691	0.6059	0.57	0.218
Mof_H 	H 	0.9919	0.2841	0.3704	0.386
Mof_H 	H 	0.561	0.647	0.6526	0.163
Mof_H 	H 	0.0954	0.9472	0.12	0.191
Mof_H 	H 	0.43	0.5359	0.1991	0.217
Mof_H 	H 	0.4547	0.888	0.0507	0.143
Mof_H 	H 	0.9243	0.2168	0.9673	0.225
Mof_H 	H 	0.1918	0.4583	0.2653	0.098
Mof_H 	H 	0.2168	0.7495	0.2925	0.225
Mof_H 	H 	0.3158	0.8314	0.7126	0.208
Mof_H 	H 	0.8583	0.9134	0.7999	0.157
Mof_H 	H 	0.2646	0.6339	0.0629	0.21
Mof_H 	H 	0.9416	0.1417	0.5551	0.179
Mof_H 	H 	0.6381	0.2436	0.9771	0.176
Mof_H 	H 	0.6728	0.0246	0.62	0.121
Mof_H 	H 	0.7874	0.6842	0.6686	0.208
Mof_H 	H 	0.1069	0.2469	0.0182	0.327
Mof_H 	H 	0.161	0.8945	0.6381	0.247
Mof_H 	H 	0.7691	0.57	0.6059	0.218
Mof_H 	H 	0.9655	0.583	0.5725	0.197
Mof_H 	H 	0.4678	0.6025	0.8565	0.209
Mof_H 	H 	0.6417	0.4416	0.0551	0.153
Mof_H 	H 	0.7168	0.2925	0.7495	0.225
Mof_H 	H 	0.3812	0.3968	0.2126	0.207
Mof_H 	H 	0.9894	0.7934	0.8932	0.198
Mof_H 	H 	0.2078	0.7563	0.0399	0.084
Mof_H 	H 	0.6842	0.1686	0.2874	0.207
Mof_H 	H 	0.71	0.4291	0.4187	0.197
Mof_H 	H 	0.0359	0.1059	0.8368	0.227
Mof_H 	H 	0.9038	0.0106	0.304	0.108
Mof_H 	H 	0.647	0.1526	0.061	0.152
Mof_H 	H 	0.5327	0.457	0.7495	0.225
Mof_H 	H 	0.9814	0.7673	0.2033	0.096
Mof_H 	H 	0.7859	0.564	0.7673	0.091
Mof_H 	H 	0.4655	0.5725	0.583	0.177
Mof_H 	H 	0.612	0.5667	0.6627	0.169
Mof_H 	H 	0.0322	0.1435	0.3975	0.177
Mof_H 	H 	0.9814	0.2141	0.2781	0.082
Mof_H 	H 	0.7141	0.4814	0.7781	0.089
Mof_H 	H 	0.7967	0.064	0.2781	0.065
Mof_H 	H 	0.2469	0.5182	0.6069	0.257
Mof_H 	H 	0.7665	0.661	0.5229	0.26
Mof_H 	H 	0.0246	0.12	0.1728	0.129
Mof_H 	H 	0.196	0.0998	0.2066	0.14
Mof_H 	H 	0.0757	0.7832	0.0327	0.228
Mof_H 	H 	0.9243	0.7075	0.457	0.236
Mof_H 	H 	0.7646	0.0629	0.6339	0.211
Mof_H 	H 	0.571	0.1339	0.8693	0.198
Mof_H 	H 	0.8158	0.7126	0.8314	0.207
Mof_H 	H 	0.2078	0.7159	0.0863	0.272
Mof_H 	H 	0.57	0.4641	0.8009	0.217
Mof_H 	H 	0.7347	0.0417	0.8082	0.092
Mof_H 	H 	0.5104	0.2913	0.0813	0.214
Mof_H 	H 	0.071	0.2017	0.4371	0.17
Mof_H 	H 	0.2653	0.307	0.5735	0.099
Mof_H 	H 	0.6025	0.246	0.1347	0.207
Mof_H 	H 	0.7925	0.5757	0.043	0.241
Mof_H 	H 	0.196	0.0962	0.4894	0.156
Mof_H 	H 	0.8945	0.1381	0.661	0.261
Mof_H 	H 	0.4894	0.5962	0.196	0.148
Mof_H 	H 	0.7001	0.5584	0.6135	0.15
Mof_H 	H 	0.8693	0.2354	0.7983	0.2
Mof_H 	H 	0.7164	0.4601	0.1679	0.103
Mof_H 	H 	0.0916	0.6526	0.0056	0.109
Mof_H 	H 	0.6686	0.1842	0.7874	0.209
Mof_H 	H 	0.193	0.2347	0.9265	0.101
Mof_H 	H 	0.661	0.6381	0.8945	0.26
Mof_H 	H 	0.2983	0.429	0.0629	0.21
Mof_H 	H 	0.0667	0.9547	0.404	0.137
Mof_H 	H 	0.9449	0.8865	0.0866	0.159
Mof_H 	H 	0.1152	0.7304	0.3652	0.003
Mof_H 	H 	0.7159	0.1296	0.5081	0.27
Mof_H 	H 	0.4895	0.8825	0.917	0.174
Mof_H 	H 	0.7126	0.3314	0.3158	0.207
Mof_H 	H 	0.9515	0.2437	0.2836	0.081
Mof_H 	H 	0.6991	0.2691	0.1632	0.22
Mof_H 	H 	0.2531	0.86	0.2713	0.257
Mof_H 	H 	0.564	0.2967	0.7781	0.089
Mof_H 	H 	0.3368	0.3009	0.2309	0.216
Mof_H 	H 	0.917	0.5345	0.9275	0.16
Mof_H 	H 	0.7304	0.8652	0.6152	-0.006
Mof_H 	H 	0.1113	0.3653	0.4678	0.208
Mof_H 	H 	0.8321	0.7922	0.0485	0.093
Mof_H 	H 	0.086	0.0916	0.939	0.162
Mof_H 	H 	0.5629	0.2983	0.929	0.228
Mof_H 	H 	0.0453	0.096	0.4333	0.173
Mof_H 	H 	0.4084	0.414	0.561	0.162
Mof_H 	H 	0.5229	0.161	0.7665	0.248
Mof_H 	H 	0.307	0.0735	0.7653	0.107
Mof_H 	H 	0.6348	0.8652	0.25	-0.009
Mof_H 	H 	0.929	0.7983	0.5629	0.227
Mof_H 	H 	0.2304	0.6152	0.8652	-0.01
Mof_H 	H 	0.8887	0.254	0.8565	0.211
Mof_H 	H 	0.2495	0.5327	0.957	0.21
Mof_H 	H 	0.38	0.9046	0.5528	0.135
Mof_H 	H 	0.1215	0.9137	0.6296	0.256
Mof_H 	H 	0.3272	0.9754	0.38	0.179
Mof_H 	H 	0.7836	0.8321	0.5399	0.086
Mof_H 	H 	0.1842	0.2874	0.1686	0.208
Mof_H 	H 	0.1135	0.4134	0.5551	0.134
Mof_H 	H 	0.4844	0.8812	0.1686	0.21
Mof_H 	H 	0.7841	0.2922	0.4137	0.272
Mof_H 	H 	0.1347	0.3887	0.0322	0.173
Mof_H 	H 	0.7505	0.4673	0.043	0.242
Mof_H 	H 	0.9137	0.1296	0.6215	0.271
Mof_H 	H 	0.417	0.9275	0.5345	0.165
Mof_H 	H 	0.1728	0.5528	0.6482	0.149
Mof_H 	H 	0.417	0.4895	0.3825	0.177
Mof_H 	H 	0.4265	0.2335	0.1918	0.095
Mof_H 	H 	0.8653	0.6113	0.9678	0.246
Mof_H 	H 	0.2159	0.5081	0.1296	0.271
Mof_H 	H 	0.5081	0.8785	0.2922	0.287
Mof_H 	H 	0.12	0.6728	0.5246	0.158
Mof_H 	H 	0.5735	0.807	0.2653	0.092
Mof_H 	H 	0.957	0.9243	0.2075	0.223
Mof_H 	H 	0.1025	0.9678	0.3565	0.258
Mof_H 	H 	0.8518	0.8272	0.9472	0.171
Mof_H 	H 	0.9416	0.7999	0.8865	0.194
Mof_H 	H 	0.2874	0.6188	0.1032	0.221
Mof_H 	H 	0.4754	0.6482	0.0954	0.164
Mof_H 	H 	0.746	0.6435	0.6113	0.21
Mof_H 	H 	0.0863	0.8704	0.3785	0.273
Mof_H 	H 	0.3975	0.6435	0.0322	0.177
Mof_H 	H 	0.0417	0.7335	0.307	0.09
Mof_H 	H 	0.2673	0.4814	0.7033	0.087
Mof_H 	H 	0.0507	0.388	0.4547	0.151
Mof_H 	H 	0.388	0.9547	0.5507	0.161
Mof_H 	H 	0.5813	0.5104	0.7913	0.198
Mof_H 	H 	0.5954	0.4754	0.1482	0.148
Mof_H 	H 	0.096	0.1627	0.0507	0.146
Mof_H 	H 	0.5399	0.3321	0.7836	0.093
Mof_H 	H 	0.1435	0.8975	0.5322	0.197
Mof_H 	H 	0.1113	0.746	0.1435	0.209
Mof_H 	H 	0.7999	0.4134	0.8583	0.153
Mof_H 	H 	0.893	0.0105	0.4275	0.148
Mof_H 	H 	0.29	0.5709	0.5813	0.199
Mof_H 	H 	0.2078	0.4919	0.6215	0.273
Mof_H 	H 	0.1991	0.1632	0.2691	0.219
Mof_H 	H 	0.9894	0.196	0.5962	0.182
Mof_H 	H 	0.086	0.9944	0.647	0.206
Mof_H 	H 	0.2219	0.2033	0.436	0.096
Mof_H 	H 	0.4814	0.2781	0.2141	0.084
Mof_H 	H 	0.0186	0.2327	0.7967	0.08
Mof_H 	H 	0.7713	0.2531	0.36	0.257
Mof_H 	H 	0.439	0.353	0.3474	0.162
Mof_H 	H 	0.064	0.7781	0.2967	0.078
Mof_H 	H 	0.3653	0.9678	0.6113	0.244
Mof_H 	H 	0.43	0.8941	0.7309	0.221
Mof_H 	H 	0.3652	0.2304	0.1152	-0.001
Mof_H 	H 	0.3931	0.9818	0.7531	0.176
Mof_H 	H 	0.0453	0.9493	0.112	0.203
Mof_H 	H 	0.4187	0.9291	0.71	0.209
Mof_H 	H 	0.5246	0.3518	0.9046	0.134
Mof_H 	H 	0.7913	0.7809	0.71	0.197
Mof_H 	H 	0.7999	0.3865	0.4416	0.152
Mof_H 	H 	0.8082	0.5417	0.7347	0.104
Mof_H 	H 	0.7832	0.5327	0.5757	0.227
Mof_H 	H 	0.0551	0.1135	0.9134	0.141
Mof_H 	H 	0.5507	0.4547	0.388	0.169
Mof_H 	H 	0.9678	0.1113	0.8653	0.244
Mof_H 	H 	0.8373	0.388	0.9333	0.195
Mof_H 	H 	0.5327	0.0757	0.2832	0.216
Mof_H 	H 	0.6175	0.0105	0.583	0.143
Mof_H 	H 	0.9771	0.7436	0.6381	0.176
Mof_H 	H 	0.7436	0.6055	0.7665	0.258
Mof_H 	H 	0.2017	0.9371	0.571	0.188
Mof_H 	H 	0.6991	0.43	0.0359	0.233
Mof_H 	H 	0.754	0.3653	0.8975	0.196
Mof_H 	H 	0.8941	0.2309	0.93	0.205
Mof_H 	H 	0.9818	0.7287	0.5887	0.173
Mof_H 	H 	0.8975	0.8653	0.754	0.199
Mof_H 	H 	0.6215	0.6296	0.9137	0.27
Mof_H 	H 	0.1296	0.0081	0.2159	0.156
Mof_H 	H 	0.804	0.9002	0.7934	0.157
Mof_H 	H 	0.4818	0.8931	0.2531	0.27
Mof_H 	H 	0.429	0.5629	0.7983	0.198
Mof_H 	H 	0.8368	0.6059	0.0359	0.231
Mof_H 	H 	0.693	0.9265	0.2347	0.094
Mof_H 	H 	0.9944	0.8474	0.9084	0.216
Mof_H 	H 	0.4275	0.917	0.0345	0.153
Mof_H 	H 	0.5725	0.083	0.9655	0.203
Mof_H 	H 	0.2335	0.6918	0.9265	0.093
Mof_H 	H 	0.0954	0.1482	0.4754	0.162
Mof_H 	H 	0.586	0.939	0.0916	0.155
Mof_H 	H 	0.2309	0.43	0.3941	0.217
Mof_H 	H 	0.8474	0.4084	0.4944	0.165
Mof_H 	H 	0.7836	0.9515	0.7437	0.087
Mof_H 	H 	0.9583	0.6918	0.7653	0.115
Mof_H 	H 	0.5584	0.4449	0.8583	0.151
Mof_H 	H 	0.5485	0.8321	0.2922	0.084
Mof_H 	H 	0.5229	0.3619	0.2564	0.261
Mof_H 	H 	0.2078	0.4515	0.6679	0.091
Mof_H 	H 	0.0345	0.417	0.4275	0.157
Mof_H 	H 	0.2913	0.5813	0.0104	0.158
Mof_H 	H 	0.0229	0.7665	0.161	0.327
Mof_H 	H 	0.21	0.7913	0.2809	0.197
Mof_H 	H 	0.6296	0.2159	0.0081	0.159
Mof_H 	H 	0.2874	0.6686	0.6842	0.208
Mof_H 	H 	0.0081	0.7159	0.6296	0.16
Mof_H 	H 	0.083	0.6175	0.5105	0.183
Mof_H 	H 	0.6348	0.7696	0.8848	0.015
Mof_H 	H 	0.8968	0.8812	0.7126	0.197
Mof_H 	H 	0.3932	0.9894	0.2934	0.183
Mof_H 	H 	0.307	0.2335	0.0417	0.085
Mof_H 	H 	0.4515	0.2836	0.2437	0.088
Mof_H 	H 	0.6307	0.2017	0.7646	0.2
Mof_H 	H 	0.7505	0.2832	0.2075	0.228
Mof_H 	H 	0.2983	0.8693	0.7354	0.201
Mof_H 	H 	0.3583	0.7999	0.9134	0.155
Mof_H 	H 	0.917	0.3825	0.4895	0.171
Mof_H 	H 	0.914	0.9084	0.061	0.164
Mof_H 	H 	0.3619	0.6055	0.839	0.272
Mof_H 	H 	0.4814	0.2033	0.7673	0.097
Mof_H 	H 	0.5105	0.393	0.9275	0.164
Mof_H 	H 	0.3941	0.93	0.2309	0.2
Mof_H 	H 	0.07	0.2691	0.1059	0.229
Mof_H 	H 	0.9844	0.8158	0.6032	0.245
Mof_H 	H 	0.936	0.7141	0.7327	0.101
Mof_H 	H 	0.5887	0.36	0.1069	0.242
Mof_H 	H 	0.9265	0.1918	0.2335	0.09
Mof_H 	H 	0.5866	0.9449	0.3865	0.149
Mof_H 	H 	0.1296	0.1215	0.4137	0.257
Mof_H 	H 	0.1627	0.5507	0.596	0.168
Mof_H 	H 	0.6059	0.5359	0.3368	0.218
Mof_H 	H 	0.25	0.8848	0.1152	0.007
Mof_H 	H 	0.1215	0.2078	0.9919	0.37
Mof_H 	H 	0.904	0.0667	0.4547	0.149
Mof_H 	H 	0.0106	0.2066	0.1068	0.097
Mof_H 	H 	0.5485	0.7164	0.7563	0.096
Mof_H 	H 	0.2922	0.3321	0.5485	0.092
Mof_H 	H 	0.5453	0.112	0.9493	0.195
Mof_H 	H 	0.1307	0.7646	0.2017	0.197
Mof_H 	H 	0.3825	0.9895	0.417	0.212
Mof_H 	H 	0.8158	0.1032	0.4844	0.22
Mof_H 	H 	0.7087	0.29	0.2191	0.2
Mof_H 	H 	0.3975	0.754	0.8653	0.213
Mof_H 	H 	0.3931	0.4113	0.14	0.258
Mof_H 	H 	0.2564	0.8619	0.5229	0.26
Mof_H 	H 	0.7164	0.2563	0.0485	0.103
Mof_H 	H 	0.3565	0.8887	0.754	0.212
Mof_H 	H 	0.7922	0.2437	0.9601	0.102
Mof_H 	H 	0.5709	0.4896	0.2809	0.198
Mof_H 	H 	0.661	0.0229	0.2665	0.343
Mof_H 	H 	0.1188	0.7874	0.6032	0.205
Mof_H 	H 	0.7078	0.6679	0.4515	0.093
Mof_H 	H 	0.8653	0.254	0.3975	0.213
Mof_H 	H 	0.6068	0.5962	0.4002	0.149
Mof_H 	H 	0.2563	0.7078	0.5399	0.092
Mof_H 	H 	0.0417	0.3082	0.2347	0.087
Mof_H 	H 	0.1679	0.2078	0.9515	0.091
Mof_H 	H 	0.0887	0.1069	0.36	0.241
Mof_H 	H 	0.893	0.8825	0.9655	0.201
Mof_H 	H 	0.6728	0.6482	0.5528	0.15
Mof_H 	H 	0.6632	0.9641	0.3941	0.203
Mof_H 	H 	0.0813	0.29	0.0709	0.203
Mof_H 	H 	0.4371	0.7017	0.071	0.17
Mof_H 	H 	0.0246	0.9046	0.3518	0.108
Mof_H 	H 	0.7531	0.4818	0.3931	0.256
Mof_H 	H 	0.7495	0.957	0.5327	0.211
Mof_H 	H 	0.4333	0.8373	0.888	0.162
Mof_H 	H 	0.0156	0.1842	0.3968	0.169
Mof_H 	H 	0.2781	0.564	0.7967	0.077
Mof_H 	H 	0.6339	0.5629	0.7646	0.199
Mof_H 	H 	0.543	0.7505	0.9673	0.217
Mof_H 	H 	0.2809	0.9896	0.5709	0.239
Mof_H 	H 	0.1059	0.7691	0.07	0.23
Mof_H 	H 	0.7809	0.5709	0.9896	0.237
Mof_H 	H 	0.7922	0.5081	0.3785	0.271
Mof_H 	H 	0.7673	0.7033	0.4814	0.089
Mof_H 	H 	0.2033	0.2673	0.9814	0.095
Mof_H 	H 	0.7925	0.2168	0.2495	0.224
Mof_H 	H 	0.3848	0.75	0.6152	0.008
Mof_H 	H 	0.5246	0.1728	0.12	0.157
Mof_H 	H 	0.2531	0.3931	0.4818	0.257
Mof_H 	H 	0.1526	0.561	0.147	0.159
Mof_H 	H 	0.1055	0.2436	0.2665	0.259
Mof_H 	H 	0.7437	0.2922	0.4601	0.093
Mof_H 	H 	0.9472	0.3272	0.8518	0.171
Mof_H 	H 	0.4291	0.5104	0.7191	0.198
Mof_H 	H 	0.5417	0.2347	0.3082	0.098
Mof_H 	H 	0.6055	0.2665	0.2436	0.26
Mof_H 	H 	0.3009	0.57	0.9641	0.203
Mof_H 	H 	0.2925	0.043	0.5757	0.241
Mof_H 	H 	0.8009	0.9641	0.57	0.203
Mof_H 	H 	0.804	0.9038	0.5106	0.142
Mof_H 	H 	0.7673	0.064	0.7859	0.08
Mof_H 	H 	0.1059	0.3368	0.5359	0.213
Mof_H 	H 	0.9641	0.8941	0.1632	0.21
Mof_H 	H 	0.3968	0.7126	0.8812	0.209
Mof_H 	H 	0.9547	0.0507	0.888	0.136
Mof_H 	H 	0.5757	0.543	0.2925	0.226
Mof_H 	H 	0.75	0.6348	0.3652	0.008
Mof_H 	H 	0.3865	0.4449	0.5866	0.15
Mof_H 	H 	0.193	0.9583	0.7665	0.123
Mof_H 	H 	0.57	0.1059	0.2691	0.214
Mof_H 	H 	0.0863	0.2159	0.2078	0.273
Mof_H 	H 	0.112	0.6627	0.5667	0.178
Mof_H 	H 	0.3583	0.5584	0.9449	0.148
Mof_H 	H 	0.4002	0.0962	0.6068	0.157
Mof_H 	H 	0.2141	0.7781	0.4814	0.087
Mof_H 	H 	0.7934	0.4002	0.804	0.151
Mof_H 	H 	0.8661	0.2354	0.4371	0.202
Mof_H 	H 	0.5322	0.3975	0.1435	0.211
Mof_H 	H 	0.9655	0.3825	0.893	0.201
Mof_C 	C 	0.85447	0.83585	0.88612	0.057
Mof_C 	C 	0.13581	0.67412	0.66531	0.032
Mof_C 	C 	0.883	0.133	0.266	0.075
Mof_C 	C 	0.34682	0.37814	0.44252	-0.502
Mof_C 	C 	0.28628	0.80966	0.3149	0.245
Mof_C 	C 	0.0068	0.5801	0.9611	0.306
Mof_C 	C 	0.90831	0.59265	0.07056	-0.529
Mof_C 	C 	0.4199	0.5389	0.4932	0.409
Mof_C 	C 	0.9542	0.2098	0.3488	0.525
Mof_C 	C 	0.97791	0.81566	0.90735	-0.63
Mof_C 	C 	0.36419	0.33469	0.32588	0.037
Mof_C 	C 	0.0801	0.5733	0.119	0.409
Mof_C 	C 	0.1536	0.71461	0.17051	0.264
Mof_C 	C 	0.97138	0.6851	0.49476	0.264
Mof_C 	C 	0.11388	0.66415	0.14553	0.029
Mof_C 	C 	0.53568	0.11747	0.86023	-0.698
Mof_C 	C 	0.5295	0.66531	0.99119	0.126
Mof_C 	C 	0.8699	0.7561	0.0756	-0.094
Mof_C 	C 	0.29607	0.48845	0.5211	-0.573
Mof_C 	C 	0.09169	0.40735	0.92944	-0.445
Mof_C 	C 	0.0068	0.4267	0.5457	0.323
Mof_C 	C 	0.381	0.4611	0.9543	0.392
Mof_C 	C 	0.6884	0.25	0.3116	-0.679
Mof_C 	C 	0.7439	0.6301	0.4244	-0.117
Mof_C 	C 	0.47662	0.97138	0.78628	0.262
Mof_C 	C 	0.8217	0.7622	0.0517	-0.329
Mof_C 	C 	0.9543	0.9611	0.381	0.372
Mof_C 	C 	0.64553	0.11388	0.16415	0.03
Mof_C 	C 	0.9932	0.5733	0.4543	0.493
Mof_C 	C 	0.37459	0.9991	0.75891	-0.608
Mof_C 	C 	0.0176	0.14218	0.51616	-0.232
Mof_C 	C 	0.37542	0.85782	0.37398	-0.15
Mof_C 	C 	0.59265	0.02209	0.68434	-0.393
Mof_C 	C 	0.6054	0.9542	0.2444	0.523
Mof_C 	C 	0.87459	0.11568	0.37549	-0.949
Mof_C 	C 	0.7098	0.4542	0.8488	0.388
Mof_C 	C 	0.55748	0.12186	0.65318	-0.496
Mof_C 	C 	0.42944	0.33775	0.02209	-0.39
Mof_C 	C 	0.2439	0.8195	0.1138	-0.123
Mof_C 	C 	0.4542	0.3488	0.2098	0.398
Mof_C 	C 	0.3217	0.0517	0.7622	-0.358
Mof_C 	C 	0.2098	0.8488	0.4542	0.391
Mof_C 	C 	0.4991	0.62451	0.74019	-0.895
Mof_C 	C 	0.50144	0.0176	0.37542	-0.234
Mof_C 	C 	0.1884	0.3116	0.25	-0.682
Mof_C 	C 	0.2105	0.4405	0.2622	-0.312
Mof_C 	C 	0.05027	0.66415	0.51862	0.075
Mof_C 	C 	0.32455	0.46432	0.08179	-0.752
Mof_C 	C 	0.0389	0.119	0.5457	0.43
Mof_C 	C 	0.78553	0.98016	0.55485	-0.64
Mof_C 	C 	0.66415	0.64553	0.61388	0.043
Mof_C 	C 	0.49476	0.30966	0.02338	0.301
Mof_C 	C 	0.59169	0.66225	0.68434	-0.488
Mof_C 	C 	0.00144	0.37542	0.0176	-0.317
Mof_C 	C 	0.80966	0.99476	0.52338	0.287
Mof_C 	C 	0.84682	0.4043	0.96868	-0.585
Mof_C 	C 	0.51691	0.4559	0.17051	0.26
Mof_C 	C 	0.96835	0.11388	0.94973	-0.052
Mof_C 	C 	0.6301	0.7057	0.8862	-0.106
Mof_C 	C 	0.71447	0.44515	0.01984	-0.787
Mof_C 	C 	0.74109	0.62541	0.5009	-0.902
Mof_C 	C 	0.59265	0.57056	0.40831	-0.487
Mof_C 	C 	0.09265	0.40831	0.57056	-0.43
Mof_C 	C 	0.9244	0.7439	0.1301	-0.144
Mof_C 	C 	0.96169	0.63581	0.4705	0.096
Mof_C 	C 	0.1783	0.9405	0.73	-0.374
Mof_C 	C 	0.62451	0.38432	0.12541	-0.857
Mof_C 	C 	0.77	0.8217	0.5595	-0.294
Mof_C 	C 	0.1783	0.2378	0.9483	-0.306
Mof_C 	C 	0.62541	0.0009	0.24109	-1.214
Mof_C 	C 	0.03165	0.88612	0.05027	0.133
Mof_C 	C 	0.63977	0.17545	0.75724	-0.709
Mof_C 	C 	0.17051	0.9559	0.51691	0.213
Mof_C 	C 	0.53132	0.37814	0.93562	-0.453
Mof_C 	C 	0.53831	0.00881	0.67412	-0.052
Mof_C 	C 	0.69463	0.98016	0.42531	-0.638
Mof_C 	C 	0.94515	0.21447	0.51984	-0.661
Mof_C 	C 	0.05748	0.65318	0.12186	-0.463
Mof_C 	C 	0.4244	0.1301	0.7439	-0.086
Mof_C 	C 	0.55027	0.51862	0.66415	0.043
Mof_C 	C 	0.6805	0.4244	0.7943	-0.115
Mof_C 	C 	0.0957	0.44252	0.06438	-0.583
Mof_C 	C 	0.02862	0.3149	0.50524	0.228
Mof_C 	C 	0.2902	0.5458	0.1512	0.398
Mof_C 	C 	0.1054	0.2444	0.9542	0.485
Mof_C 	C 	0.3195	0.5756	0.2057	-0.122
Mof_C 	C 	0.52338	0.49476	0.80966	0.245
Mof_C 	C 	0.62458	0.14218	0.62602	-0.15
Mof_C 	C 	0.32588	0.49119	0.46169	0.038
Mof_C 	C 	0.17412	0.53831	0.50881	0.034
Mof_C 	C 	0.1301	0.8862	0.7057	-0.073
Mof_C 	C 	0.64218	0.12458	0.12602	-0.144
Mof_C 	C 	0.87398	0.49856	0.01616	-0.218
Mof_C 	C 	0.5211	0.98845	0.29607	-0.501
Mof_C 	C 	0.9991	0.25891	0.87459	-0.646
Mof_C 	C 	0.03568	0.17545	0.41821	-0.616
Mof_C 	C 	0.66415	0.01862	0.55027	-0.036
Mof_C 	C 	0.42531	0.48016	0.69463	-0.711
Mof_C 	C 	0.03265	0.0211	0.22503	-0.653
Mof_C 	C 	0.0756	0.8195	0.7057	-0.051
Mof_C 	C 	0.2943	0.6805	0.9244	-0.177
Mof_C 	C 	0.97662	0.78628	0.97138	0.212
Mof_C 	C 	0.37542	0.5176	0.50144	-0.15
Mof_C 	C 	0.49119	0.5295	0.16531	0.037
Mof_C 	C 	0.37549	0.61568	0.87459	-0.943
Mof_C 	C 	0.0457	0.0068	0.9267	0.344
Mof_C 	C 	0.867	0.234	0.617	0.01
Mof_C 	C 	0.62602	0.64218	0.62458	-0.15
Mof_C 	C 	0.82949	0.78539	0.8464	0.25
Mof_C 	C 	0.12541	0.24109	0.0009	-1.167
Mof_C 	C 	0.4483	0.1783	0.7378	-0.348
Mof_C 	C 	0.2902	0.7444	0.639	0.392
Mof_C 	C 	0.11747	0.36023	0.03568	-0.605
Mof_C 	C 	0.98845	0.79607	0.0211	-0.524
Mof_C 	C 	0.47791	0.90735	0.81566	-0.544
Mof_C 	C 	0.59169	0.92944	0.40735	-0.458
Mof_C 	C 	0.4932	0.4543	0.5733	0.409
Mof_C 	C 	0.4542	0.1054	0.7444	0.358
Mof_C 	C 	0.73	0.2895	0.0517	-0.364
Mof_C 	C 	0.1232	0.0616	0.3116	-0.649
Mof_C 	C 	0.21372	0.6851	0.19034	0.25
Mof_C 	C 	0.50881	0.4705	0.83469	0.038
Mof_C 	C 	0.46835	0.94973	0.11388	-0.001
Mof_C 	C 	0.49119	0.96169	0.82588	0.095
Mof_C 	C 	0.11568	0.24019	0.24109	-0.906
Mof_C 	C 	0.94252	0.34682	0.87814	-0.544
Mof_C 	C 	0.67412	0.16531	0.63581	0.037
Mof_C 	C 	0.9199	0.4267	0.881	0.407
Mof_C 	C 	0.2556	0.861	0.2098	0.392
Mof_C 	C 	0.5595	0.2378	0.2895	-0.314
Mof_C 	C 	0.3195	0.7439	0.6138	-0.117
Mof_C 	C 	0.31566	0.47791	0.40735	-0.487
Mof_C 	C 	0.5733	0.9543	0.4932	0.392
Mof_C 	C 	0.42531	0.94515	0.23068	-0.657
Mof_C 	C 	0.0595	0.2895	0.2378	-0.294
Mof_C 	C 	0.48016	0.28553	0.05485	-0.763
Mof_C 	C 	0.97138	0.28628	0.97662	0.21
Mof_C 	C 	0.78628	0.47138	0.47662	0.244
Mof_C 	C 	0.2098	0.361	0.2556	0.397
Mof_C 	C 	0.5068	0.9611	0.5801	0.389
Mof_C 	C 	0.7895	0.5595	0.7378	-0.325
Mof_C 	C 	0.56101	0.5441	0.71461	0.257
Mof_C 	C 	0.5756	0.7057	0.8195	-0.11
Mof_C 	C 	0.2895	0.7378	0.5595	-0.319
Mof_C 	C 	0.83775	0.92944	0.52209	-0.46
Mof_C 	C 	0.67051	0.51691	0.9559	0.212
Mof_C 	C 	0.46835	0.51862	0.85447	0.045
Mof_C 	C 	0.67412	0.50881	0.53831	0.037
Mof_C 	C 	0.4267	0.381	0.4199	0.409
Mof_C 	C 	0.90735	0.59169	0.42944	-0.544
Mof_C 	C 	0.381	0.9199	0.9267	0.405
Mof_C 	C 	0.86419	0.32588	0.33469	0.043
Mof_C 	C 	0.9559	0.93899	0.78539	0.223
Mof_C 	C 	0.69034	0.21372	0.1851	0.252
Mof_C 	C 	0.48138	0.83585	0.94973	0.016
Mof_C 	C 	0.23068	0.78553	0.30537	-0.71
Mof_C 	C 	0.16531	0.13581	0.17412	0.027
Mof_C 	C 	0.88612	0.55027	0.53165	0.054
Mof_C 	C 	0.57056	0.66225	0.97791	-0.58
Mof_C 	C 	0.8464	0.28539	0.82949	0.251
Mof_C 	C 	0.03265	0.01155	0.30762	-0.703
Mof_C 	C 	0.2378	0.7895	0.0595	-0.301
Mof_C 	C 	0.5517	0.73	0.7895	-0.33
Mof_C 	C 	0.63581	0.9705	0.46169	0.006
Mof_C 	C 	0.30537	0.28553	0.23068	-0.709
Mof_C 	C 	0.01155	0.20393	0.9789	-0.624
Mof_C 	C 	0.35782	0.87542	0.87398	-0.154
Mof_C 	C 	0.78628	0.3149	0.80966	0.243
Mof_C 	C 	0.0801	0.5068	0.4611	0.408
Mof_C 	C 	0.9824	0.85782	0.48384	-0.07
Mof_C 	C 	0.28553	0.73068	0.80537	-0.706
Mof_C 	C 	0.361	0.7556	0.7098	0.392
Mof_C 	C 	0.13977	0.38253	0.46432	-0.706
Mof_C 	C 	0.01984	0.07469	0.80537	-0.768
Mof_C 	C 	0.12451	0.9991	0.24019	-0.588
Mof_C 	C 	0.881	0.9267	0.9199	0.404
Mof_C 	C 	0.81566	0.40735	0.47791	-0.492
Mof_C 	C 	0.38612	0.53165	0.55027	0.043
Mof_C 	C 	0.49856	0.51616	0.37398	-0.15
Mof_C 	C 	0.7902	0.1512	0.5458	0.395
Mof_C 	C 	0.14553	0.16415	0.11388	0.027
Mof_C 	C 	0.55485	0.07469	0.26932	-0.699
Mof_C 	C 	0.17051	0.21461	0.1536	0.265
Mof_C 	C 	0.25724	0.63977	0.67545	-0.707
Mof_C 	C 	0.3217	0.27	0.0595	-0.291
Mof_C 	C 	0.867	0.633	0.75	0.005
Mof_C 	C 	0.0458	0.2556	0.8946	0.306
Mof_C 	C 	0.1138	0.3195	0.2439	-0.129
Mof_C 	C 	0.633	0.25	0.367	0.015
Mof_C 	C 	0.21372	0.52862	0.52338	0.249
Mof_C 	C 	0.119	0.0457	0.5389	0.426
Mof_C 	C 	0.14218	0.01616	0.5176	-0.22
Mof_C 	C 	0.01862	0.05027	0.16415	-0.007
Mof_C 	C 	0.9543	0.9932	0.0733	0.474
Mof_C 	C 	0.65318	0.62186	0.55748	-0.503
Mof_C 	C 	0.78553	0.80537	0.73068	-0.708
Mof_C 	C 	0.64218	0.5176	0.01616	-0.219
Mof_C 	C 	0.4611	0.0068	0.0801	0.32
Mof_C 	C 	0.42944	0.09169	0.90735	-0.532
Mof_C 	C 	0.81566	0.40831	0.83775	-0.494
Mof_C 	C 	0.86023	0.61747	0.53568	-0.707
Mof_C 	C 	0.78539	0.3464	0.32949	0.257
Mof_C 	C 	0.01616	0.99856	0.87398	-0.135
Mof_C 	C 	0.46868	0.84682	0.9043	-0.477
Mof_C 	C 	0.01155	0.80762	0.53265	-0.641
Mof_C 	C 	0.00881	0.83469	0.4705	-0.05
Mof_C 	C 	0.0176	0.87542	0.00144	-0.309
Mof_C 	C 	0.57056	0.90831	0.09265	-0.45
Mof_C 	C 	0.61388	0.46835	0.44973	0.043
Mof_C 	C 	0.25	0.8116	0.1884	-0.678
Mof_C 	C 	0.76932	0.21447	0.69463	-0.714
Mof_C 	C 	0.75891	0.25981	0.88432	-0.902
Mof_C 	C 	0.7444	0.139	0.7902	0.393
Mof_C 	C 	0.62186	0.05748	0.15318	-0.465
Mof_C 	C 	0.5176	0.00144	0.87542	-0.237
Mof_C 	C 	0.4611	0.4543	0.881	0.407
Mof_C 	C 	0.69238	0.48845	0.96735	-0.514
Mof_C 	C 	0.4384	0.0616	0.75	-0.637
Mof_C 	C 	0.99476	0.02338	0.30966	0.341
Mof_C 	C 	0.37398	0.01616	0.49856	-0.221
Mof_C 	C 	0.83469	0.9705	0.50881	0.006
Mof_C 	C 	0.46735	0.69238	0.98845	-0.505
Mof_C 	C 	0.2622	0.9405	0.2105	-0.335
Mof_C 	C 	0.7556	0.2098	0.861	0.39
Mof_C 	C 	0.133	0.766	0.383	0.017
Mof_C 	C 	0.0595	0.77	0.3217	-0.3
Mof_C 	C 	0.119	0.0733	0.0801	0.41
Mof_C 	C 	0.44973	0.48138	0.33585	0.043
Mof_C 	C 	0.8149	0.52862	0.00524	0.203
Mof_C 	C 	0.69238	0.20393	0.22503	-0.577
Mof_C 	C 	0.01691	0.17051	0.4559	0.175
Mof_C 	C 	0.3149	0.00524	0.52862	0.203
Mof_C 	C 	0.1851	0.47138	0.99476	0.289
Mof_C 	C 	0.7561	0.1805	0.8862	-0.112
Mof_C 	C 	0.8488	0.8946	0.639	0.421
Mof_C 	C 	0.7561	0.5756	0.3699	-0.117
Mof_C 	C 	0.11747	0.75724	0.58179	-0.697
Mof_C 	C 	0.9405	0.23	0.6783	-0.337
Mof_C 	C 	0.78539	0.43899	0.9559	0.211
Mof_C 	C 	0.98016	0.05485	0.28553	-0.687
Mof_C 	C 	0.883	0.75	0.117	0.014
Mof_C 	C 	0.6783	0.73	0.9405	-0.345
Mof_C 	C 	0.92944	0.02209	0.33775	-0.365
Mof_C 	C 	0.53132	0.15318	0.0957	-0.533
Mof_C 	C 	0.32588	0.83469	0.36419	0.038
Mof_C 	C 	0.36419	0.0295	0.53831	0.07
Mof_C 	C 	0.73068	0.42531	0.44515	-0.709
Mof_C 	C 	0.6138	0.2439	0.3195	-0.12
Mof_C 	C 	0.67545	0.13977	0.25724	-0.707
Mof_C 	C 	0.16225	0.07056	0.47791	-0.514
Mof_C 	C 	0.383	0.117	0.75	-0.036
Mof_C 	C 	0.12451	0.12541	0.38432	-0.861
Mof_C 	C 	0.5957	0.53132	0.65318	-0.503
Mof_C 	C 	0.79607	0.27497	0.80762	-0.57
Mof_C 	C 	0.62458	0.4824	0.49856	-0.15
Mof_C 	C 	0.16415	0.61388	0.64553	0.041
Mof_C 	C 	0.5517	0.8217	0.2622	-0.287
Mof_C 	C 	0.83469	0.86419	0.82588	0.046
Mof_C 	C 	0.85782	0.98384	0.4824	-0.081
Mof_C 	C 	0.5389	0.9932	0.9199	0.486
Mof_C 	C 	0.85782	0.87398	0.87542	-0.154
Mof_C 	C 	0.75	0.133	0.867	0.012
Mof_C 	C 	0.12458	0.62602	0.14218	-0.145
Mof_C 	C 	0.53165	0.48138	0.14553	0.04
Mof_C 	C 	0.48016	0.19463	0.92531	-0.729
Mof_C 	C 	0.98309	0.82949	0.5441	0.338
Mof_C 	C 	0.1805	0.3862	0.2561	-0.124
Mof_C 	C 	0.37459	0.37549	0.11568	-0.907
Mof_C 	C 	0.24276	0.91821	0.38253	-0.659
Mof_C 	C 	0.71461	0.67051	0.6536	0.257
Mof_C 	C 	0.75981	0.5009	0.87549	-0.9
Mof_C 	C 	0.2057	0.0756	0.3195	-0.06
Mof_C 	C 	0.28553	0.55485	0.98016	-0.64
Mof_C 	C 	0.51862	0.16415	0.05027	0.074
Mof_C 	C 	0.0517	0.7895	0.73	-0.368
Mof_C 	C 	0.0616	0.25	0.9384	-0.68
Mof_C 	C 	0.7902	0.639	0.7444	0.389
Mof_C 	C 	0.52862	0.02338	0.71372	0.301
Mof_C 	C 	0.5441	0.21461	0.06101	0.246
Mof_C 	C 	0.5211	0.53265	0.72503	-0.572
Mof_C 	C 	0.82588	0.46169	0.49119	0.041
Mof_C 	C 	0.79607	0.5211	0.48845	-0.571
Mof_C 	C 	0.8946	0.139	0.3488	0.435
Mof_C 	C 	0.99119	0.16531	0.5295	0.128
Mof_C 	C 	0.9483	0.2105	0.27	-0.268
Mof_C 	C 	0.5733	0.619	0.5801	0.409
Mof_C 	C 	0.56438	0.0957	0.94252	-0.569
Mof_C 	C 	0.63581	0.66531	0.67412	0.038
Mof_C 	C 	0.0389	0.9199	0.9932	0.5
Mof_C 	C 	0.30762	0.79607	0.77497	-0.57
Mof_C 	C 	0.0733	0.4932	0.9543	0.394
Mof_C 	C 	0.30762	0.51155	0.03265	-0.633
Mof_C 	C 	0.44515	0.92531	0.73068	-0.725
Mof_C 	C 	0.82455	0.08179	0.46432	-0.749
Mof_C 	C 	0.61747	0.03568	0.36023	-0.612
Mof_C 	C 	0.96868	0.06438	0.62186	-0.63
Mof_C 	C 	0.28628	0.47662	0.47138	0.246
Mof_C 	C 	0.96868	0.9043	0.84682	-0.554
Mof_C 	C 	0.40831	0.33775	0.31566	-0.486
Mof_C 	C 	0.12458	0.49856	0.4824	-0.145
Mof_C 	C 	0.0616	0.8116	0.6232	-0.631
Mof_C 	C 	0.4199	0.881	0.4267	0.407
Mof_C 	C 	0.88432	0.12451	0.62541	-0.902
Mof_C 	C 	0.55485	0.48016	0.78553	-0.711
Mof_C 	C 	0.7439	0.1138	0.8195	-0.121
Mof_C 	C 	0.25891	0.37459	0.4991	-0.902
Mof_C 	C 	0.00524	0.02862	0.8149	0.187
Mof_C 	C 	0.00144	0.62602	0.48384	-0.239
Mof_C 	C 	0.1805	0.7943	0.4244	-0.12
Mof_C 	C 	0.71372	0.19034	0.6851	0.247
Mof_C 	C 	0.72503	0.69238	0.70393	-0.572
Mof_C 	C 	0.35447	0.46835	0.01862	-0.037
Mof_C 	C 	0.38432	0.75891	0.75981	-0.901
Mof_C 	C 	0.2105	0.77	0.4483	-0.316
Mof_C 	C 	0.22503	0.5211	0.03265	-0.633
Mof_C 	C 	0.9705	0.00881	0.33469	-0.082
Mof_C 	C 	0.25	0.383	0.617	0.015
Mof_C 	C 	0.83585	0.38612	0.35447	0.044
Mof_C 	C 	0.4824	0.99856	0.12458	-0.052
Mof_C 	C 	0.5595	0.3217	0.77	-0.321
Mof_C 	C 	0.7556	0.5458	0.3946	0.391
Mof_C 	C 	0.58179	0.32455	0.96432	-0.799
Mof_C 	C 	0.14553	0.98138	0.53165	0.12
Mof_C 	C 	0.0517	0.2622	0.8217	-0.326
Mof_C 	C 	0.5457	0.9267	0.0068	0.328
Mof_C 	C 	0.766	0.883	0.633	0.057
Mof_C 	C 	0.83775	0.90831	0.81566	-0.505
Mof_C 	C 	0.96432	0.13977	0.88253	-0.804
Mof_C 	C 	0.36023	0.53568	0.61747	-0.706
Mof_C 	C 	0.9542	0.7444	0.1054	0.48
Mof_C 	C 	0.7057	0.3862	0.1301	-0.081
Mof_C 	C 	0.37398	0.35782	0.37542	-0.15
Mof_C 	C 	0.75	0.617	0.383	0.012
Mof_C 	C 	0.20393	0.72503	0.19238	-0.576
Mof_C 	C 	0.6138	0.3699	0.7943	-0.115
Mof_C 	C 	0.2444	0.7902	0.139	0.395
Mof_C 	C 	0.8946	0.7556	0.0458	0.309
Mof_C 	C 	0.90735	0.31566	0.97791	-0.636
Mof_C 	C 	0.8862	0.2057	0.6301	-0.112
Mof_C 	C 	0.619	0.5389	0.0457	0.425
Mof_C 	C 	0.94515	0.73068	0.92531	-0.677
Mof_C 	C 	0.57469	0.51984	0.30537	-0.712
Mof_C 	C 	0.62602	0.98384	0.50144	-0.08
Mof_C 	C 	0.51984	0.80537	0.07469	-0.695
Mof_C 	C 	0.617	0.734	0.867	0.003
Mof_C 	C 	0.139	0.8488	0.3946	0.392
Mof_C 	C 	0.4405	0.7622	0.7105	-0.322
Mof_C 	C 	0.66531	0.49119	0.0295	0.069
Mof_C 	C 	0.27	0.5595	0.8217	-0.285
Mof_C 	C 	0.51984	0.71447	0.94515	-0.663
Mof_C 	C 	0.639	0.2444	0.2902	0.394
Mof_C 	C 	0.07056	0.09265	0.90831	-0.477
Mof_C 	C 	0.06438	0.12186	0.46868	-0.545
Mof_C 	C 	0.15318	0.5957	0.03132	-0.422
Mof_C 	C 	0.01616	0.0176	0.64218	-0.298
Mof_C 	C 	0.9611	0.881	0.4543	0.387
Mof_C 	C 	0.96735	0.98845	0.69238	-0.448
Mof_C 	C 	0.7622	0.5517	0.3217	-0.321
Mof_C 	C 	0.51155	0.9789	0.20393	-0.556
Mof_C 	C 	0.43899	0.4559	0.28539	0.258
Mof_C 	C 	0.7098	0.2556	0.361	0.394
Mof_C 	C 	0.19034	0.00524	0.47662	0.205
Mof_C 	C 	0.5009	0.37549	0.25981	-0.909
Mof_C 	C 	0.3768	0.6884	0.9384	-0.719
Mof_C 	C 	0.80762	0.77497	0.79607	-0.569
Mof_C 	C 	0.16531	0.0295	0.49119	0.069
Mof_C 	C 	0.88432	0.75981	0.75891	-0.898
Mof_C 	C 	0.37814	0.43562	0.03132	-0.421
Mof_C 	C 	0.75724	0.67545	0.63977	-0.707
Mof_C 	C 	0.8699	0.1138	0.2943	-0.164
Mof_C 	C 	0.24109	0.74019	0.11568	-0.901
Mof_C 	C 	0.87542	0.50144	0.5176	-0.154
Mof_C 	C 	0.361	0.6054	0.1512	0.398
Mof_C 	C 	0.61388	0.14553	0.66415	0.04
Mof_C 	C 	0.12186	0.96868	0.56438	-0.578
Mof_C 	C 	0.48384	0.12602	0.00144	-0.24
Mof_C 	C 	0.27497	0.96735	0.4789	-0.513
Mof_C 	C 	0.8217	0.0595	0.27	-0.262
Mof_C 	C 	0.82588	0.36419	0.83469	0.041
Mof_C 	C 	0.53265	0.22503	0.0211	-0.594
Mof_C 	C 	0.76932	0.55485	0.57469	-0.714
Mof_C 	C 	0.88612	0.33585	0.85447	0.057
Mof_C 	C 	0.30966	0.52338	0.99476	0.288
Mof_C 	C 	0.01691	0.8464	0.06101	0.164
Mof_C 	C 	0.9267	0.4199	0.381	0.406
Mof_C 	C 	0.6054	0.6512	0.861	0.386
Mof_C 	C 	0.13977	0.75724	0.17545	-0.709
Mof_C 	C 	0.23	0.0517	0.2895	-0.355
Mof_C 	C 	0.9824	0.12458	0.99856	0.021
Mof_C 	C 	0.46432	0.88253	0.13977	-0.717
Mof_C 	C 	0.30537	0.01984	0.57469	-0.785
Mof_C 	C 	0.77	0.9483	0.7105	-0.286
Mof_C 	C 	0.9483	0.7378	0.1783	-0.31
Mof_C 	C 	0.633	0.383	0.766	0.01
Mof_C 	C 	0.03165	0.14553	0.48138	0.095
Mof_C 	C 	0.93562	0.87814	0.53132	-0.461
Mof_C 	C 	0.33469	0.50881	0.9705	0.005
Mof_C 	C 	0.05748	0.4043	0.43562	-0.467
Mof_C 	C 	0.5616	0.9384	0.25	-0.722
Mof_C 	C 	0.02209	0.83775	0.42944	-0.396
Mof_C 	C 	0.44973	0.96835	0.61388	-0.011
Mof_C 	C 	0.72503	0.03265	0.5211	-0.632
Mof_C 	C 	0.5957	0.06438	0.44252	-0.553
Mof_C 	C 	0.367	0.617	0.234	0.018
Mof_C 	C 	0.75	0.1884	0.8116	-0.677
Mof_C 	C 	0.70393	0.19238	0.72503	-0.574
Mof_C 	C 	0.97791	0.16225	0.57056	-0.58
Mof_C 	C 	0.19238	0.22503	0.20393	-0.578
Mof_C 	C 	0.86419	0.53831	0.0295	0.074
Mof_C 	C 	0.62541	0.62451	0.88432	-0.897
Mof_C 	C 	0.97662	0.19034	0.50524	0.193
Mof_C 	C 	0.05485	0.78553	0.48016	-0.762
Mof_C 	C 	0.09169	0.68434	0.66225	-0.475
Mof_C 	C 	0.2444	0.4542	0.6054	0.394
Mof_C 	C 	0.9043	0.55748	0.93562	-0.426
Mof_C 	C 	0.16415	0.55027	0.01862	-0.036
Mof_C 	C 	0.9043	0.34682	0.46868	-0.47
Mof_C 	C 	0.9789	0.27497	0.46735	-0.554
Mof_C 	C 	0.35447	0.88612	0.83585	0.055
Mof_C 	C 	0.21461	0.56101	0.0441	0.304
Mof_C 	C 	0.75	0.5616	0.4384	-0.677
Mof_C 	C 	0.6884	0.4384	0.8768	-0.662
Mof_C 	C 	0.03568	0.86023	0.11747	-0.613
Mof_C 	C 	0.53265	0.30762	0.01155	-0.644
Mof_C 	C 	0.08179	0.11747	0.25724	-0.744
Mof_C 	C 	0.51616	0.87398	0.99856	-0.068
Mof_C 	C 	0.9991	0.74019	0.62451	-0.595
Mof_C 	C 	0.234	0.117	0.367	-0.035
Mof_C 	C 	0.91821	0.88253	0.74276	-0.671
Mof_C 	C 	0.37814	0.94252	0.84682	-0.538
Mof_C 	C 	0.68434	0.16225	0.59169	-0.485
Mof_C 	C 	0.11388	0.44973	0.46835	0.031
Mof_C 	C 	0.44515	0.51984	0.21447	-0.713
Mof_C 	C 	0.17545	0.25724	0.13977	-0.709
Mof_C 	C 	0.03132	0.93562	0.37814	-0.376
Mof_C 	C 	0.62451	0.24019	0.9991	-0.592
Mof_C 	C 	0.91821	0.03568	0.67545	-0.573
Mof_C 	C 	0.80537	0.57469	0.01984	-0.781
Mof_C 	C 	0.80762	0.03265	0.51155	-0.631
Mof_C 	C 	0.92944	0.90735	0.09169	-0.498
Mof_C 	C 	0.7378	0.0595	0.7895	-0.305
Mof_C 	C 	0.139	0.2902	0.2444	0.399
Mof_C 	C 	0.9199	0.4932	0.5389	0.408
Mof_C 	C 	0.77497	0.29607	0.30762	-0.572
Mof_C 	C 	0.0009	0.25981	0.37549	-1.215
Mof_C 	C 	0.28539	0.9559	0.43899	0.21
Mof_C 	C 	0.48309	0.93899	0.1536	0.274
Mof_C 	C 	0.46169	0.4705	0.63581	0.038
Mof_C 	C 	0.5176	0.51616	0.14218	-0.149
Mof_C 	C 	0.98138	0.03165	0.64553	0.173
Mof_C 	C 	0.6536	0.48309	0.43899	0.257
Mof_C 	C 	0.08179	0.96432	0.32455	-0.844
Mof_C 	C 	0.43899	0.98309	0.6536	0.341
Mof_C 	C 	0.74276	0.38253	0.91821	-0.661
Mof_C 	C 	0.63977	0.46432	0.38253	-0.706
Mof_C 	C 	0.3946	0.3488	0.139	0.399
Mof_C 	C 	0.43562	0.53132	0.87814	-0.509
Mof_C 	C 	0.861	0.7098	0.7556	0.387
Mof_C 	C 	0.11568	0.87549	0.37459	-0.902
Mof_C 	C 	0.3862	0.6301	0.2057	-0.122
Mof_C 	C 	0.38253	0.41821	0.24276	-0.706
Mof_C 	C 	0.87549	0.87459	0.61568	-0.939
Mof_C 	C 	0.47791	0.57056	0.16225	-0.485
Mof_C 	C 	0.96432	0.82455	0.58179	-0.794
Mof_C 	C 	0.21447	0.19463	0.26932	-0.717
Mof_C 	C 	0.41821	0.74276	0.88253	-0.714
Mof_C 	C 	0.88253	0.63977	0.96432	-0.804
Mof_C 	C 	0.4559	0.78539	0.93899	0.266
Mof_C 	C 	0.6536	0.17051	0.71461	0.26
Mof_C 	C 	0.65318	0.03132	0.5957	-0.421
Mof_C 	C 	0.70393	0.51155	0.4789	-0.573
Mof_C 	C 	0.57469	0.05485	0.76932	-0.766
Mof_C 	C 	0.74019	0.12451	0.4991	-0.9
Mof_C 	C 	0.34682	0.96868	0.4043	-0.586
Mof_C 	C 	0.7895	0.23	0.5517	-0.321
Mof_C 	C 	0.25	0.867	0.133	0.014
Mof_C 	C 	0.18434	0.59169	0.16225	-0.48
Mof_C 	C 	0.4824	0.48384	0.85782	-0.15
Mof_C 	C 	0.23	0.1783	0.4405	-0.346
Mof_C 	C 	0.117	0.25	0.883	0.016
Mof_C 	C 	0.51691	0.06101	0.8464	0.243
Mof_C 	C 	0.2622	0.3217	0.5517	-0.316
Mof_C 	C 	0.0211	0.29607	0.98845	-0.522
Mof_C 	C 	0.1512	0.1054	0.361	0.361
Mof_C 	C 	0.50524	0.69034	0.97662	0.194
Mof_C 	C 	0.3488	0.639	0.8946	0.429
Mof_C 	C 	0.4789	0.01155	0.70393	-0.643
Mof_C 	C 	0.47138	0.97662	0.28628	0.19
Mof_C 	C 	0.36023	0.82455	0.24276	-0.703
Mof_C 	C 	0.90831	0.31566	0.33775	-0.5
Mof_C 	C 	0.8195	0.6138	0.7439	-0.112
Mof_C 	C 	0.5458	0.6512	0.7902	0.387
Mof_C 	C 	0.32455	0.86023	0.74276	-0.706
Mof_C 	C 	0.29607	0.80762	0.27497	-0.573
Mof_C 	C 	0.53568	0.41821	0.17545	-0.709
Mof_C 	C 	0.2378	0.4483	0.6783	-0.316
Mof_C 	C 	0.87814	0.03132	0.43562	-0.429
Mof_C 	C 	0.06101	0.71461	0.5441	0.245
Mof_C 	C 	0.02338	0.21372	0.02862	0.283
Mof_C 	C 	0.5009	0.12541	0.74109	-0.862
Mof_C 	C 	0.7943	0.8699	0.6138	-0.145
Mof_C 	C 	0.02209	0.18434	0.09265	-0.336
Mof_C 	C 	0.4267	0.0457	0.5068	0.426
Mof_C 	C 	0.19463	0.76932	0.71447	-0.717
Mof_C 	C 	0.3464	0.51691	0.56101	0.257
Mof_C 	C 	0.98309	0.1536	0.93899	0.355
Mof_C 	C 	0.48384	0.35782	0.9824	-0.067
Mof_C 	C 	0.99119	0.82588	0.96169	0.176
Mof_C 	C 	0.2556	0.3946	0.5458	0.394
Mof_C 	C 	0.96735	0.9789	0.77497	-0.496
Mof_C 	C 	0.44252	0.56438	0.5957	-0.503
Mof_C 	C 	0.24276	0.32455	0.36023	-0.706
Mof_C 	C 	0.9405	0.7105	0.7622	-0.343
Mof_C 	C 	0.0441	0.06101	0.21461	0.294
Mof_C 	C 	0.51616	0.64218	0.0176	-0.23
Mof_C 	C 	0.24019	0.74109	0.61568	-0.901
Mof_C 	C 	0.0441	0.98309	0.32949	0.388
Mof_C 	C 	0.25981	0.87549	0.5009	-0.903
Mof_C 	C 	0.26932	0.69463	0.21447	-0.715
Mof_C 	C 	0.1054	0.861	0.6512	0.351
Mof_C 	C 	0.5616	0.6232	0.8116	-0.674
Mof_C 	C 	0.12541	0.88432	0.62451	-0.856
Mof_C 	C 	0.40735	0.42944	0.59169	-0.487
Mof_C 	C 	0.0295	0.99119	0.66531	0.156
Mof_C 	C 	0.5068	0.5457	0.4267	0.409
Mof_C 	C 	0.4705	0.13581	0.96169	0.092
Mof_C 	C 	0.71372	0.52338	0.52862	0.247
Mof_C 	C 	0.52209	0.42944	0.83775	-0.489
Mof_C 	C 	0.9559	0.01691	0.67051	0.131
Mof_C 	C 	0.367	0.75	0.633	0.012
Mof_C 	C 	0.96169	0.32588	0.99119	0.183
Mof_C 	C 	0.61747	0.58179	0.75724	-0.707
Mof_C 	C 	0.84682	0.44252	0.37814	-0.505
Mof_C 	C 	0.4789	0.46735	0.27497	-0.574
Mof_C 	C 	0.4543	0.0733	0.9932	0.496
Mof_C 	C 	0.07469	0.30537	0.51984	-0.697
Mof_C 	C 	0.33469	0.82588	0.86419	0.045
Mof_C 	C 	0.03831	0.36419	0.5295	-0.022
Mof_C 	C 	0.40735	0.97791	0.31566	-0.584
Mof_C 	C 	0.7943	0.9244	0.6805	-0.17
Mof_C 	C 	0.32949	0.8464	0.78539	0.252
Mof_C 	C 	0.67051	0.1536	0.21461	0.263
Mof_C 	C 	0.17545	0.91821	0.53568	-0.662
Mof_C 	C 	0.53831	0.5295	0.36419	0.038
Mof_C 	C 	0.33585	0.98138	0.44973	0.124
Mof_C 	C 	0.38432	0.62541	0.12451	-0.905
Mof_C 	C 	0.02338	0.80966	0.49476	0.298
Mof_C 	C 	0.5389	0.5457	0.119	0.41
Mof_C 	C 	0.7444	0.6054	0.4542	0.392
Mof_C 	C 	0.74109	0.11568	0.74019	-0.9
Mof_C 	C 	0.99476	0.97138	0.1851	0.311
Mof_C 	C 	0.99856	0.37398	0.51616	-0.059
Mof_C 	C 	0.56101	0.01691	0.3464	0.17
Mof_C 	C 	0.93899	0.6536	0.98309	0.349
Mof_C 	C 	0.48845	0.46735	0.19238	-0.575
Mof_C 	C 	0.24109	0.5009	0.62541	-0.904
Mof_C 	C 	0.94973	0.33585	0.48138	0.01
Mof_C 	C 	0.3946	0.0458	0.7556	0.271
Mof_C 	C 	0.9384	0.1884	0.3768	-0.725
Mof_C 	C 	0.27497	0.30762	0.29607	-0.574
Mof_C 	C 	0.62186	0.56438	0.96868	-0.583
Mof_C 	C 	0.3116	0.5616	0.1232	-0.694
Mof_C 	C 	0.7622	0.2105	0.9405	-0.338
Mof_C 	C 	0.26932	0.57469	0.55485	-0.715
Mof_C 	C 	0.77497	0.4789	0.96735	-0.513
Mof_C 	C 	0.35782	0.4824	0.98384	-0.08
Mof_C 	C 	0.17412	0.63581	0.16531	0.033
Mof_C 	C 	0.881	0.9543	0.4611	0.391
Mof_C 	C 	0.68434	0.52209	0.59265	-0.487
Mof_C 	C 	0.73068	0.30537	0.78553	-0.709
Mof_C 	C 	0.73	0.4405	0.1783	-0.354
Mof_C 	C 	0.44252	0.87814	0.34682	-0.51
Mof_C 	C 	0.98384	0.9824	0.35782	-0.002
Mof_C 	C 	0.00881	0.17412	0.03831	-0.11
Mof_C 	C 	0.8768	0.9384	0.6884	-0.702
Mof_C 	C 	0.7378	0.6783	0.4483	-0.32
Mof_C 	C 	0.22503	0.70393	0.69238	-0.574
Mof_C 	C 	0.02862	0.71372	0.02338	0.282
Mof_C 	C 	0.4384	0.3768	0.1884	-0.682
Mof_C 	C 	0.98384	0.00144	0.12602	-0.165
Mof_C 	C 	0.18434	0.59265	0.52209	-0.482
Mof_C 	C 	0.03132	0.0957	0.15318	-0.451
Mof_C 	C 	0.38253	0.96432	0.63977	-0.797
Mof_C 	C 	0.25981	0.38432	0.25891	-0.906
Mof_C 	C 	0.46169	0.99119	0.32588	0.13
Mof_C 	C 	0.13581	0.46169	0.9705	0.001
Mof_C 	C 	0.82949	0.0441	0.48309	0.301
Mof_C 	C 	0.3862	0.7561	0.6805	-0.117
Mof_C 	C 	0.85447	0.01862	0.46835	-0.033
Mof_C 	C 	0.3464	0.82949	0.28539	0.255
Mof_C 	C 	0.41821	0.67545	0.03568	-0.617
Mof_C 	C 	0.71447	0.26932	0.19463	-0.719
Mof_C 	C 	0.55748	0.43562	0.4043	-0.502
Mof_C 	C 	0.383	0.266	0.133	0.025
Mof_C 	C 	0.87398	0.37542	0.35782	-0.15
Mof_C 	C 	0.48845	0.0211	0.79607	-0.59
Mof_C 	C 	0.9932	0.4199	0.0389	0.511
Mof_C 	C 	0.75891	0.4991	0.37459	-0.9
Mof_C 	C 	0.1851	0.71372	0.69034	0.25
Mof_C 	C 	0.00524	0.97662	0.69034	0.154
Mof_C 	C 	0.33585	0.35447	0.38612	0.042
Mof_C 	C 	0.05485	0.26932	0.07469	-0.749
Mof_C 	C 	0.6851	0.99476	0.47138	0.288
Mof_C 	C 	0.0458	0.7902	0.6512	0.263
Mof_C 	C 	0.5295	0.86419	0.03831	-0.01
Mof_C 	C 	0.07469	0.76932	0.05485	-0.75
Mof_C 	C 	0.8149	0.28628	0.30966	0.243
Mof_C 	C 	0.2561	0.8862	0.1805	-0.114
Mof_C 	C 	0.117	0.867	0.734	-0.047
Mof_C 	C 	0.93899	0.28539	0.4559	0.269
Mof_C 	C 	0.4991	0.87459	0.25891	-0.945
Mof_C 	C 	0.51155	0.53265	0.80762	-0.572
Mof_C 	C 	0.9244	0.1805	0.2943	-0.187
Mof_C 	C 	0.8116	0.6884	0.75	-0.674
Mof_C 	C 	0.133	0.367	0.25	0.022
Mof_C 	C 	0.38612	0.85447	0.33585	0.045
Mof_C 	C 	0.46868	0.62186	0.06438	-0.55
Mof_C 	C 	0.48309	0.5441	0.82949	0.255
Mof_C 	C 	0.0009	0.74109	0.12541	-1.155
Mof_C 	C 	0.52862	0.50524	0.3149	0.247
Mof_C 	C 	0.01862	0.96835	0.35447	-0.087
Mof_C 	C 	0.6805	0.2561	0.3862	-0.119
Mof_C 	C 	0.82455	0.74276	0.86023	-0.704
Mof_C 	C 	0.4043	0.46868	0.34682	-0.503
Mof_C 	C 	0.6851	0.69034	0.71372	0.247
Mof_C 	C 	0.98016	0.92531	0.19463	-0.664
Mof_C 	C 	0.12602	0.50144	0.98384	-0.081
Mof_C 	C 	0.734	0.367	0.117	-0.041
Mof_C 	C 	0.4705	0.33469	0.00881	-0.054
Mof_C 	C 	0.98138	0.94973	0.83585	0.091
Mof_C 	C 	0.8195	0.2057	0.5756	-0.117
Mof_C 	C 	0.86023	0.24276	0.82455	-0.704
Mof_C 	C 	0.2943	0.6138	0.8699	-0.153
Mof_C 	C 	0.3116	0.75	0.6884	-0.677
Mof_C 	C 	0.06101	0.3464	0.01691	0.162
Mof_C 	C 	0.5756	0.8699	0.2561	-0.153
Mof_C 	C 	0.1138	0.7943	0.3699	-0.124
Mof_C 	C 	0.71461	0.0441	0.56101	0.304
Mof_C 	C 	0.5458	0.8946	0.2556	0.43
Mof_C 	C 	0.92531	0.69463	0.48016	-0.726
Mof_C 	C 	0.0295	0.03831	0.86419	0.02
Mof_C 	C 	0.619	0.0801	0.0733	0.409
Mof_C 	C 	0.46735	0.77497	0.9789	-0.553
Mof_C 	C 	0.49476	0.1851	0.97138	0.267
Mof_C 	C 	0.58179	0.25724	0.11747	-0.697
Mof_C 	C 	0.75724	0.08179	0.61747	-0.753
Mof_C 	C 	0.4043	0.93562	0.55748	-0.455
Mof_C 	C 	0.5457	0.619	0.0389	0.428
Mof_C 	C 	0.01984	0.94515	0.71447	-0.734
Mof_C 	C 	0.83585	0.44973	0.98138	0.122
Mof_C 	C 	0.4244	0.2943	0.1805	-0.127
Mof_C 	C 	0.80966	0.8149	0.78628	0.241
Mof_C 	C 	0.06438	0.94252	0.0957	-0.613
Mof_C 	C 	0.4559	0.67051	0.01691	0.175
Mof_C 	C 	0.87549	0.0009	0.75981	-1.186
Mof_C 	C 	0.19463	0.42531	0.98016	-0.64
Mof_C 	C 	0.64553	0.53165	0.98138	0.121
Mof_C 	C 	0.5441	0.32949	0.98309	0.343
Mof_C 	C 	0.31566	0.83775	0.40831	-0.489
Mof_C 	C 	0.15318	0.55748	0.62186	-0.501
Mof_C 	C 	0.87814	0.84682	0.94252	-0.544
Mof_C 	C 	0.99856	0.62458	0.9824	0.015
Mof_C 	C 	0.3488	0.7098	0.9542	0.513
Mof_C 	C 	0.8862	0.6805	0.7561	-0.107
Mof_C 	C 	0.66531	0.17412	0.13581	0.028
Mof_C 	C 	0.74019	0.61568	0.74109	-0.897
Mof_C 	C 	0.25724	0.61747	0.08179	-0.752
Mof_C 	C 	0.19238	0.96735	0.48845	-0.514
Mof_C 	C 	0.6301	0.9244	0.2439	-0.18
Mof_C 	C 	0.2561	0.3699	0.5756	-0.12
Mof_C 	C 	0.61568	0.37459	0.87549	-0.899
Mof_C 	C 	0.93562	0.05748	0.9043	-0.392
Mof_C 	C 	0.8464	0.56101	0.51691	0.253
Mof_C 	C 	0.03831	0.67412	0.00881	-0.105
Mof_C 	C 	0.21447	0.01984	0.44515	-0.789
Mof_C 	C 	0.3699	0.2943	0.1138	-0.131
Mof_C 	C 	0.55027	0.03165	0.38612	0.099
Mof_C 	C 	0.9705	0.96169	0.13581	0.055
Mof_C 	C 	0.09265	0.68434	0.02209	-0.342
Mof_C 	C 	0.52209	0.09265	0.18434	-0.423
Mof_C 	C 	0.4405	0.6783	0.23	-0.316
Mof_C 	C 	0.48138	0.64553	0.03165	0.096
Mof_C 	C 	0.3149	0.30966	0.28628	0.246
Mof_C 	C 	0.51862	0.35447	0.96835	-0.013
Mof_C 	C 	0.28539	0.32949	0.3464	0.257
Mof_C 	C 	0.88253	0.24276	0.41821	-0.716
Mof_C 	C 	0.46432	0.58179	0.82455	-0.704
Mof_C 	C 	0.0756	0.2561	0.8699	-0.094
Mof_C 	C 	0.7105	0.2622	0.4405	-0.318
Mof_C 	C 	0.94252	0.5957	0.56438	-0.538
Mof_C 	C 	0.98845	0.19238	0.46735	-0.503
Mof_C 	C 	0.49856	0.9824	0.62458	-0.069
Mof_C 	C 	0.87542	0.37398	0.85782	-0.154
Mof_C 	C 	0.6783	0.9483	0.2378	-0.276
Mof_C 	C 	0.8116	0.1232	0.5616	-0.691
Mof_C 	C 	0.33775	0.81566	0.90831	-0.503
Mof_C 	C 	0.66225	0.47791	0.07056	-0.517
Mof_C 	C 	0.47662	0.50524	0.19034	0.247
Mof_C 	C 	0.43562	0.9043	0.05748	-0.437
Mof_C 	C 	0.2057	0.1301	0.3862	-0.088
Mof_C 	C 	0.9789	0.70393	0.01155	-0.622
Mof_C 	C 	0.4543	0.381	0.9611	0.388
Mof_C 	C 	0.2895	0.5517	0.23	-0.314
Mof_C 	C 	0.4932	0.0389	0.4199	0.43
Mof_C 	C 	0.0211	0.72503	0.53265	-0.591
Mof_C 	C 	0.52338	0.02862	0.21372	0.23
Mof_C 	C 	0.9267	0.5068	0.0457	0.422
Mof_C 	C 	0.40831	0.07056	0.59265	-0.517
Mof_C 	C 	0.87459	0.75891	0.9991	-0.657
Mof_C 	C 	0.7057	0.3195	0.0756	-0.055
Mof_C 	C 	0.20393	0.4789	0.51155	-0.576
Mof_C 	C 	0.12602	0.62458	0.64218	-0.149
Mof_C 	C 	0.25891	0.88432	0.25981	-0.903
Mof_C 	C 	0.80537	0.23068	0.28553	-0.707
Mof_C 	C 	0.5801	0.119	0.5733	0.41
Mof_C 	C 	0.2439	0.4244	0.6301	-0.12
Mof_C 	C 	0.32949	0.48309	0.0441	0.304
Mof_C 	C 	0.1301	0.2439	0.9244	-0.147
Mof_C 	C 	0.9611	0.0801	0.0068	0.305
Mof_C 	C 	0.0457	0.0389	0.619	0.444
Mof_C 	C 	0.05027	0.38612	0.03165	0.128
Mof_C 	C 	0.74276	0.36023	0.32455	-0.706
Mof_C 	C 	0.94973	0.61388	0.96835	-0.04
Mof_C 	C 	0.37549	0.75981	0.0009	-1.191
Mof_C 	C 	0.9384	0.75	0.0616	-0.679
Mof_C 	C 	0.6512	0.361	0.1054	0.354
Mof_C 	C 	0.25	0.4384	0.5616	-0.679
Mof_C 	C 	0.33775	0.52209	0.92944	-0.456
Mof_C 	C 	0.30966	0.78628	0.8149	0.242
Mof_C 	C 	0.3699	0.0756	0.7561	-0.06
Mof_C 	C 	0.61568	0.24109	0.24019	-0.903
Mof_C 	C 	0.5801	0.4611	0.5068	0.409
Mof_C 	C 	0.19034	0.1851	0.21372	0.252
Mof_C 	C 	0.92531	0.23068	0.94515	-0.674
Mof_C 	C 	0.53165	0.05027	0.88612	0.084
Mof_C 	C 	0.21461	0.6536	0.67051	0.258
Mof_C 	C 	0.23068	0.44515	0.42531	-0.71
Mof_C 	C 	0.266	0.633	0.883	0.065
Mof_C 	C 	0.7105	0.4483	0.77	-0.322
Mof_C 	C 	0.75981	0.25891	0.38432	-0.903
Mof_C 	C 	0.1884	0.8768	0.4384	-0.665
Mof_C 	C 	0.69463	0.71447	0.76932	-0.715
Mof_C 	C 	0.50881	0.03831	0.17412	-0.027
Mof_C 	C 	0.66225	0.18434	0.09169	-0.47
Mof_C 	C 	0.24019	0.4991	0.12451	-0.904
Mof_C 	C 	0.617	0.883	0.25	0.067
Mof_C 	C 	0.16225	0.09169	0.18434	-0.466
Mof_C 	C 	0.56438	0.46868	0.12186	-0.496
Mof_C 	C 	0.1536	0.43899	0.48309	0.262
Mof_C 	C 	0.07056	0.97791	0.66225	-0.608
Mof_C 	C 	0.861	0.1512	0.6054	0.394
Mof_C 	C 	0.47138	0.49476	0.6851	0.246
Mof_C 	C 	0.0957	0.65318	0.53132	-0.535
Mof_C 	C 	0.12186	0.15318	0.05748	-0.459
Mof_C 	C 	0.8488	0.9542	0.7098	0.506
Mof_C 	C 	0.50144	0.48384	0.62602	-0.15
Mof_C 	C 	0.4483	0.27	0.2105	-0.307
Mof_C 	C 	0.0733	0.5801	0.619	0.41
Mof_C 	C 	0.69034	0.47662	0.00524	0.205
Mof_C 	C 	0.6512	0.2902	0.0458	0.264
Mof_C 	C 	0.1512	0.0458	0.2902	0.267
Mof_C 	C 	0.639	0.3946	0.8488	0.388
Mof_C 	C 	0.27	0.7105	0.9483	-0.277
Mof_C 	C 	0.14218	0.12602	0.12458	-0.144
Mof_C 	C 	0.50524	0.8149	0.02862	0.226
Mof_C 	C 	0.6232	0.3116	0.0616	-0.633
Mof_C 	C 	0.96835	0.85447	0.51862	-0.008
Mof_C 	C 	0.67545	0.53568	0.91821	-0.661
Mof_O 	O 	0.45732	0.42767	0.43573	-0.462
Mof_O 	O 	0.08274	0.93873	0.00059	-0.584
Mof_O 	O 	0.35599	0.93873	0.93814	-0.522
Mof_O 	O 	0.45732	0.02965	0.52159	-0.477
Mof_O 	O 	0.50059	0.08274	0.43873	-0.556
Mof_O 	O 	0.99941	0.43814	0.58215	-0.492
Mof_O 	O 	0.00059	0.43873	0.08274	-0.601
Mof_O 	O 	0.02159	0.56427	0.99194	-0.427
Mof_O 	O 	0.47841	0.47035	0.54268	-0.462
Mof_O 	O 	0.91726	0.06127	0.99941	-0.487
Mof_O 	O 	0.64401	0.58274	0.08215	-0.554
Mof_O 	O 	0.08215	0.99941	0.93814	-0.496
Mof_O 	O 	0.49941	0.91726	0.56127	-0.531
Mof_O 	O 	0.56186	0.91785	0.50059	-0.532
Mof_O 	O 	0.06427	0.52159	0.49194	-0.467
Mof_O 	O 	0.85599	0.91785	0.41726	-0.531
Mof_O 	O 	0.56427	0.07233	0.54268	-0.468
Mof_O 	O 	0.56427	0.49194	0.52159	-0.462
Mof_O 	O 	0.52965	0.95732	0.02159	-0.437
Mof_O 	O 	0.91726	0.85599	0.41785	-0.531
Mof_O 	O 	0.97035	0.97841	0.04268	-0.459
Mof_O 	O 	0.52159	0.52965	0.45732	-0.462
Mof_O 	O 	0.97841	0.43573	0.00806	-0.49
Mof_O 	O 	0.57233	0.50806	0.02965	-0.477
Mof_O 	O 	0.50806	0.97841	0.93573	-0.458
Mof_O 	O 	0.93814	0.49941	0.08215	-0.542
Mof_O 	O 	0.43573	0.92767	0.45732	-0.452
Mof_O 	O 	0.49941	0.58215	0.43814	-0.544
Mof_O 	O 	0.06127	0.56186	0.14401	-0.55
Mof_O 	O 	0.52965	0.57233	0.00806	-0.483
Mof_O 	O 	0.14401	0.06186	0.06127	-0.559
Mof_O 	O 	0.07233	0.02965	0.50806	-0.483
Mof_O 	O 	0.97035	0.99194	0.42767	-0.418
Mof_O 	O 	0.50059	0.41785	0.56186	-0.544
Mof_O 	O 	0.93873	0.43814	0.85599	-0.532
Mof_O 	O 	0.41785	0.06186	0.00059	-0.599
Mof_O 	O 	0.56186	0.64401	0.56127	-0.543
Mof_O 	O 	0.93814	0.43873	0.35599	-0.531
Mof_O 	O 	0.04268	0.56427	0.57233	-0.472
Mof_O 	O 	0.52159	0.99194	0.56427	-0.436
Mof_O 	O 	0.07233	0.04268	0.06427	-0.484
Mof_O 	O 	0.95732	0.52159	0.02965	-0.462
Mof_O 	O 	0.43814	0.08215	0.49941	-0.556
Mof_O 	O 	0.92767	0.95732	0.93573	-0.43
Mof_O 	O 	0.93573	0.45732	0.92767	-0.443
Mof_O 	O 	0.54268	0.97035	0.47841	-0.443
Mof_O 	O 	0.91785	0.00059	0.06186	-0.585
Mof_O 	O 	0.85599	0.93814	0.93873	-0.521
Mof_O 	O 	0.00806	0.07233	0.52965	-0.49
Mof_O 	O 	0.42767	0.93573	0.95732	-0.438
Mof_O 	O 	0.57233	0.06427	0.04268	-0.478
Mof_O 	O 	0.42767	0.49194	0.97035	-0.443
Mof_O 	O 	0.00059	0.56186	0.41785	-0.59
Mof_O 	O 	0.47841	0.00806	0.43573	-0.484
Mof_O 	O 	0.08215	0.08274	0.64401	-0.566
Mof_O 	O 	0.43873	0.85599	0.43814	-0.543
Mof_O 	O 	0.41726	0.41785	0.85599	-0.543
Mof_O 	O 	0.50806	0.52965	0.07233	-0.468
Mof_O 	O 	0.93573	0.47841	0.50806	-0.451
Mof_O 	O 	0.97841	0.54268	0.47035	-0.468
Mof_O 	O 	0.06186	0.50059	0.91785	-0.541
Mof_O 	O 	0.99194	0.06427	0.02159	-0.431
Mof_O 	O 	0.06186	0.56127	0.64401	-0.552
Mof_O 	O 	0.49194	0.47035	0.92767	-0.452
Mof_O 	O 	0.41785	0.35599	0.91726	-0.532
Mof_O 	O 	0.02965	0.02159	0.95732	-0.452
Mof_O 	O 	0.56127	0.41726	0.49941	-0.544
Mof_O 	O 	0.02159	0.45732	0.52965	-0.451
Mof_O 	O 	0.41726	0.99941	0.06127	-0.496
Mof_O 	O 	0.47035	0.42767	0.99194	-0.436
Mof_O 	O 	0.64401	0.06127	0.06186	-0.557
Mof_O 	O 	0.99941	0.56127	0.91726	-0.482
Mof_O 	O 	0.99194	0.92767	0.47035	-0.428
Mof_O 	O 	0.56127	0.14401	0.56186	-0.545
Mof_O 	O 	0.02965	0.00806	0.57233	-0.499
Mof_O 	O 	0.95732	0.43573	0.42767	-0.447
Mof_O 	O 	0.54268	0.57233	0.56427	-0.462
Mof_O 	O 	0.14401	0.08215	0.58274	-0.556
Mof_O 	O 	0.04268	0.47841	0.97035	-0.454
Mof_O 	O 	0.00806	0.93573	0.97841	-0.479
Mof_O 	O 	0.91785	0.91726	0.35599	-0.521
Mof_O 	O 	0.92767	0.97035	0.49194	-0.434
Mof_O 	O 	0.43573	0.50806	0.47841	-0.462
Mof_O 	O 	0.35599	0.41726	0.91785	-0.533
Mof_O 	O 	0.06127	0.49941	0.41726	-0.55
Mof_O 	O 	0.49194	0.02159	0.06427	-0.456
Mof_O 	O 	0.58215	0.64401	0.08274	-0.555
Mof_O 	O 	0.43873	0.58274	0.50059	-0.544
Mof_O 	O 	0.43814	0.35599	0.43873	-0.545
Mof_O 	O 	0.06427	0.54268	0.07233	-0.473
Mof_O 	O 	0.08274	0.14401	0.58215	-0.557
Mof_O 	O 	0.58215	0.93814	0.99941	-0.484
Mof_O 	O 	0.93873	0.50059	0.58274	-0.533
Mof_O 	O 	0.58274	0.00059	0.93873	-0.576
Mof_O 	O 	0.47035	0.04268	0.97841	-0.478
Mof_O 	O 	0.58274	0.58215	0.14401	-0.544
_end
