data_functionalizedCrystal
_audit_creation_method	'EQeq! by Chris Wilmer'
_symmetry_space_group_name_H-M	'P1'
_symmetry_Int_Tables_number	1
_symmetry_cell_setting	triclinic
loop_
_symmetry_equiv_pos_as_xyz
  x,y,z
_cell_length_a	14.0828
_cell_length_b	21.4518
_cell_length_c	28.2518
_cell_angle_alpha	90
_cell_angle_beta	90
_cell_angle_gamma	93.56
loop_
_atom_site_label
_atom_site_type_symbol
_atom_site_fract_x
_atom_site_fract_y
_atom_site_fract_z
_atom_site_charge
Mof_Zn	Zn	0.89093	0.74522	0.30998	1.215
Mof_Zn	Zn	0.10358	0.75466	0.31025	1.218
Mof_Zn	Zn	0.10907	0.25478	0.80998	1.217
Mof_Zn	Zn	0.89642	0.24534	0.81025	1.218
Mof_H 	H 	0.1364	0.6425	0.4281	0.086
Mof_H 	H 	0.8484	0.6107	0.4295	0.05
Mof_H 	H 	0.8619	0.5567	0.4997	0.067
Mof_H 	H 	0.8665	0.433	0.6204	0.064
Mof_H 	H 	0.859	0.3624	0.685	0.055
Mof_H 	H 	0.1428	0.4	0.707	0.082
Mof_H 	H 	0.144	0.8853	0.4306	0.048
Mof_H 	H 	0.8569	0.8601	0.4271	0.085
Mof_H 	H 	0.1345	0.947	0.4971	0.067
Mof_H 	H 	0.1334	0.0791	0.6132	0.071
Mof_H 	H 	0.8584	0.0992	0.7069	0.082
Mof_H 	H 	0.142	0.1397	0.6818	0.048
Mof_H 	H 	0.7378	0.7925	0.2486	0.013
Mof_H 	H 	0.7282	0.7071	0.3729	0.01
Mof_H 	H 	0.5762	0.7965	0.2482	0.096
Mof_H 	H 	0.5645	0.7151	0.3773	0.082
Mof_H 	H 	0.4219	0.7125	0.2485	0.114
Mof_H 	H 	0.4264	0.7979	0.3768	0.093
Mof_H 	H 	0.2642	0.7977	0.3716	-0
Mof_H 	H 	0.259	0.7113	0.2509	0.001
Mof_H 	H 	0.8636	0.3575	0.9281	0.051
Mof_H 	H 	0.1516	0.3893	0.9295	0.01
Mof_H 	H 	0.1381	0.4433	0.9997	0.106
Mof_H 	H 	0.1335	0.567	0.1204	0.06
Mof_H 	H 	0.141	0.6376	0.185	0.057
Mof_H 	H 	0.8572	0.6	0.207	0.084
Mof_H 	H 	0.856	0.1147	0.9306	0.006
Mof_H 	H 	0.1431	0.1399	0.9271	0.048
Mof_H 	H 	0.8655	0.053	0.9971	0.11
Mof_H 	H 	0.8666	0.9209	0.1132	0.067
Mof_H 	H 	0.1416	0.9008	0.2069	0.084
Mof_H 	H 	0.858	0.8603	0.1818	0.05
Mof_H 	H 	0.2622	0.2075	0.7486	0.014
Mof_H 	H 	0.2718	0.2929	0.8729	0.008
Mof_H 	H 	0.4238	0.2035	0.7482	0.096
Mof_H 	H 	0.4355	0.2849	0.8773	0.077
Mof_H 	H 	0.5781	0.2875	0.7485	0.114
Mof_H 	H 	0.5736	0.2021	0.8768	0.088
Mof_H 	H 	0.7358	0.2023	0.8716	-0.002
Mof_H 	H 	0.741	0.2887	0.7509	0.001
Mof_C 	C 	0.0055	0.168	0.7428	0.382
Mof_C 	C 	0.9842	0.6713	0.3776	0.39
Mof_C 	C 	0.992	0.6326	0.4228	-0.061
Mof_C 	C 	0.0804	0.6256	0.4433	-0.063
Mof_C 	C 	0.909	0.6062	0.4435	0.002
Mof_C 	C 	0.0873	0.5936	0.4864	0.106
Mof_C 	C 	0.9183	0.5736	0.4848	-0.062
Mof_C 	C 	0.0029	0.5637	0.5059	-0.001
Mof_C 	C 	0.0084	0.5277	0.5489	0.014
Mof_C 	C 	0.0098	0.4945	0.5822	0.018
Mof_C 	C 	0.0097	0.4556	0.6219	-0.007
Mof_C 	C 	0.0913	0.4445	0.647	0.105
Mof_C 	C 	0.9231	0.4254	0.6371	-0.056
Mof_C 	C 	0.9174	0.3841	0.6765	-0.007
Mof_C 	C 	0.0869	0.4055	0.6891	-0.06
Mof_C 	C 	0.0011	0.3765	0.7027	-0.061
Mof_C 	C 	0.9993	0.3313	0.7439	0.377
Mof_C 	C 	0.0067	0.8297	0.3782	0.378
Mof_C 	C 	0.0016	0.8685	0.422	-0.067
Mof_C 	C 	0.0836	0.893	0.4435	0.008
Mof_C 	C 	0.9136	0.8771	0.4416	-0.056
Mof_C 	C 	0.91	0.9119	0.4838	0.102
Mof_C 	C 	0.0777	0.9286	0.4834	-0.065
Mof_C 	C 	0.9936	0.9384	0.504	0.004
Mof_C 	C 	0.9872	0.9775	0.547	0.013
Mof_C 	C 	0.9864	0.0103	0.5794	0.024
Mof_C 	C 	0.9917	0.0498	0.6208	0.004
Mof_C 	C 	0.0788	0.0823	0.6325	-0.066
Mof_C 	C 	0.9115	0.057	0.6499	0.108
Mof_C 	C 	0.9141	0.0944	0.6886	-0.061
Mof_C 	C 	0.0828	0.1191	0.6732	0.015
Mof_C 	C 	0.0043	0.1271	0.7015	-0.08
Mof_C 	C 	0.7014	0.7757	0.2744	0.074
Mof_C 	C 	0.696	0.7262	0.3478	0.075
Mof_C 	C 	0.6057	0.7779	0.2745	-0.107
Mof_C 	C 	0.598	0.7295	0.3498	-0.104
Mof_C 	C 	0.5474	0.7537	0.3117	0.052
Mof_C 	C 	0.4442	0.7566	0.3118	0.087
Mof_C 	C 	0.3911	0.7304	0.2747	-0.144
Mof_C 	C 	0.3941	0.7811	0.3497	-0.143
Mof_C 	C 	0.2982	0.7798	0.3464	0.104
Mof_C 	C 	0.2947	0.7304	0.2761	0.108
Mof_C 	C 	0.9945	0.832	0.2428	0.38
Mof_C 	C 	0.0158	0.3287	0.8776	0.414
Mof_C 	C 	0.008	0.3674	0.9228	-0.135
Mof_C 	C 	0.9196	0.3744	0.9433	0.025
Mof_C 	C 	0.091	0.3938	0.9435	0.108
Mof_C 	C 	0.9127	0.4064	0.9864	-0.042
Mof_C 	C 	0.0817	0.4264	0.9848	-0.238
Mof_C 	C 	0.9971	0.4363	0.0059	0.19
Mof_C 	C 	0.9916	0.4723	0.0489	-0.047
Mof_C 	C 	0.9902	0.5055	0.0822	0.065
Mof_C 	C 	0.9903	0.5444	0.1219	-0.03
Mof_C 	C 	0.9087	0.5555	0.147	0.114
Mof_C 	C 	0.0769	0.5746	0.1371	-0.042
Mof_C 	C 	0.0826	0.6159	0.1765	-0.014
Mof_C 	C 	0.9131	0.5945	0.1891	-0.065
Mof_C 	C 	0.9989	0.6235	0.2027	-0.057
Mof_C 	C 	0.0007	0.6687	0.2439	0.376
Mof_C 	C 	0.9933	0.1703	0.8782	0.405
Mof_C 	C 	0.9984	0.1315	0.922	-0.15
Mof_C 	C 	0.9164	0.107	0.9435	0.125
Mof_C 	C 	0.0864	0.1229	0.9416	0.038
Mof_C 	C 	0.09	0.0881	0.9838	-0.049
Mof_C 	C 	0.9223	0.0714	0.9834	-0.249
Mof_C 	C 	0.0064	0.0616	0.004	0.198
Mof_C 	C 	0.0128	0.0225	0.047	-0.04
Mof_C 	C 	0.0136	0.9897	0.0794	0.063
Mof_C 	C 	0.0083	0.9502	0.1208	-0.014
Mof_C 	C 	0.9212	0.9177	0.1325	-0.055
Mof_C 	C 	0.0885	0.943	0.1499	0.115
Mof_C 	C 	0.0859	0.9056	0.1886	-0.066
Mof_C 	C 	0.9172	0.8809	0.1732	0.009
Mof_C 	C 	0.9957	0.8729	0.2015	-0.077
Mof_C 	C 	0.2986	0.2243	0.7744	0.074
Mof_C 	C 	0.304	0.2738	0.8478	0.073
Mof_C 	C 	0.3943	0.2221	0.7745	-0.107
Mof_C 	C 	0.402	0.2705	0.8498	-0.104
Mof_C 	C 	0.4526	0.2463	0.8117	0.051
Mof_C 	C 	0.5558	0.2434	0.8118	0.086
Mof_C 	C 	0.6089	0.2696	0.7747	-0.143
Mof_C 	C 	0.6059	0.2189	0.8497	-0.143
Mof_C 	C 	0.7018	0.2202	0.8464	0.102
Mof_C 	C 	0.7053	0.2696	0.7761	0.108
Mof_Br	Br	0.20603	0.58627	0.51412	-0.217
Mof_Br	Br	0.20835	0.48189	0.63012	-0.198
Mof_Br	Br	0.79009	0.92056	0.51268	-0.221
Mof_Br	Br	0.79503	0.01405	0.63309	-0.214
Mof_Br	Br	0.79397	0.41373	0.01412	-0.135
Mof_Br	Br	0.79165	0.51811	0.13012	-0.192
Mof_Br	Br	0.20991	0.07944	0.01268	-0.144
Mof_Br	Br	0.20497	0.98595	0.13309	-0.215
Mof_N 	N 	0.7449	0.7496	0.3113	-0.242
Mof_N 	N 	0.249	0.7556	0.3108	-0.26
Mof_N 	N 	0.2551	0.2504	0.8113	-0.241
Mof_N 	N 	0.751	0.2444	0.8108	-0.26
Mof_O 	O 	0.9061	0.6868	0.3644	-0.468
Mof_O 	O 	0.0628	0.6871	0.358	-0.462
Mof_O 	O 	0.9198	0.3056	0.75499	-0.454
Mof_O 	O 	0.0772	0.3234	0.76331	-0.463
Mof_O 	O 	0.9296	0.8155	0.3573	-0.45
Mof_O 	O 	0.0871	0.8146	0.36476	-0.449
Mof_O 	O 	0.9297	0.1773	0.76428	-0.465
Mof_O 	O 	0.0857	0.1943	0.75454	-0.446
Mof_O 	O 	0.0939	0.3132	0.8644	-0.476
Mof_O 	O 	0.9372	0.3129	0.858	-0.469
Mof_O 	O 	0.0802	0.6944	0.25499	-0.454
Mof_O 	O 	0.9228	0.6766	0.26331	-0.464
Mof_O 	O 	0.0704	0.1845	0.8573	-0.458
Mof_O 	O 	0.9129	0.1854	0.86476	-0.458
Mof_O 	O 	0.0703	0.8227	0.26428	-0.464
Mof_O 	O 	0.9143	0.8057	0.25454	-0.446
Mof_Zn	Zn	0.20437	0.11308	0.48463	1.215
Mof_Zn	Zn	0.41647	0.1215	0.48594	1.219
Mof_Zn	Zn	0.20096	0.60978	0.98657	1.2
Mof_Zn	Zn	0.41216	0.62354	0.98463	1.205
Mof_H 	H 	0.57	0.0616	0.538	0.005
Mof_H 	H 	0.7309	0.0571	0.5417	0.132
Mof_H 	H 	0.8713	0.0594	0.4311	0.082
Mof_H 	H 	0.8861	0.1784	0.5421	0.08
Mof_H 	H 	0.0522	0.1742	0.5395	0.008
Mof_H 	H 	0.036	0.0552	0.4325	0.014
Mof_H 	H 	0.4536	0.9864	0.5976	0.072
Mof_H 	H 	0.1667	0.9677	0.5887	0.087
Mof_H 	H 	0.4467	0.9291	0.6688	0.083
Mof_H 	H 	0.1603	0.7801	0.7917	0.071
Mof_H 	H 	0.1608	0.7223	0.8607	0.045
Mof_H 	H 	0.4473	0.76	0.8713	0.09
Mof_H 	H 	0.4473	0.2743	0.5862	0.084
Mof_H 	H 	0.1734	0.2259	0.6135	0.043
Mof_H 	H 	0.1776	0.2857	0.6807	0.062
Mof_H 	H 	0.1688	0.4184	0.7983	0.068
Mof_H 	H 	0.1603	0.4789	0.8672	0.05
Mof_H 	H 	0.4516	0.4902	0.876	0.097
Mof_H 	H 	0.4354	0.7903	0.0773	0.093
Mof_H 	H 	0.1739	0.7212	0.113	0.05
Mof_H 	H 	0.1798	0.782	0.1822	0.059
Mof_H 	H 	0.1715	0.9136	0.3001	0.069
Mof_H 	H 	0.1681	0.9719	0.371	0.05
Mof_H 	H 	0.4475	0.0217	0.3592	0.096
Mof_H 	H 	0.4598	0.5072	0.1067	0.111
Mof_H 	H 	0.1794	0.4564	0.092	0.052
Mof_H 	H 	0.1907	0.385	0.1514	0.069
Mof_H 	H 	0.2287	0.2396	0.2704	0.071
Mof_H 	H 	0.2147	0.1891	0.3435	0.051
Mof_H 	H 	0.4347	0.2989	0.3936	0.08
Mof_H 	H 	0.5541	0.5333	0.9607	0.008
Mof_H 	H 	0.5847	0.7105	0.9981	-0.014
Mof_H 	H 	0.7472	0.7079	0.9952	0.075
Mof_H 	H 	0.7207	0.5281	0.9557	0.091
Mof_H 	H 	0.8789	0.6721	0.0398	0.063
Mof_H 	H 	0.8696	0.5484	0.9314	0.069
Mof_H 	H 	0.036	0.5493	0.9342	0.013
Mof_H 	H 	0.0435	0.6695	0.0406	0.011
Mof_H 	H 	0.5881	0.2029	0.4609	0.002
Mof_H 	H 	0.7473	0.2057	0.464	0.099
Mof_C 	C 	0.6065	0.0868	0.5162	0.138
Mof_C 	C 	0.7031	0.0833	0.5192	-0.178
Mof_C 	C 	0.7565	0.1186	0.4891	0.107
Mof_C 	C 	0.8639	0.1194	0.49	0.046
Mof_C 	C 	0.9084	0.0822	0.454	-0.103
Mof_C 	C 	0.9149	0.1529	0.5194	-0.117
Mof_C 	C 	0.0149	0.1506	0.5171	0.07
Mof_C 	C 	0.0058	0.0814	0.4543	0.06
Mof_C 	C 	0.3117	0.0317	0.5493	0.354
Mof_C 	C 	0.3081	0.9859	0.5907	-0.039
Mof_C 	C 	0.3944	0.9719	0.6111	-0.005
Mof_C 	C 	0.2231	0.9601	0.6056	-0.078
Mof_C 	C 	0.2192	0.9238	0.6443	0.113
Mof_C 	C 	0.3902	0.9362	0.6518	-0.038
Mof_C 	C 	0.3017	0.9106	0.668	-0.001
Mof_C 	C 	0.3002	0.8703	0.7108	0.032
Mof_C 	C 	0.3012	0.8433	0.7479	0.024
Mof_C 	C 	0.3001	0.8069	0.7901	0.006
Mof_C 	C 	0.2187	0.7766	0.8081	-0.059
Mof_C 	C 	0.3857	0.8019	0.8154	0.111
Mof_C 	C 	0.2187	0.7414	0.8489	0.011
Mof_C 	C 	0.3887	0.7648	0.8555	-0.055
Mof_C 	C 	0.3033	0.734	0.8727	-0.073
Mof_C 	C 	0.3055	0.6958	0.9152	0.373
Mof_C 	C 	0.3093	0.1981	0.5523	0.384
Mof_C 	C 	0.3111	0.2426	0.5943	-0.061
Mof_C 	C 	0.3926	0.2766	0.6056	-0.058
Mof_C 	C 	0.2312	0.2481	0.6222	0.004
Mof_C 	C 	0.2327	0.2841	0.6615	-0.061
Mof_C 	C 	0.3961	0.3147	0.6456	0.109
Mof_C 	C 	0.3174	0.3195	0.6736	-0.001
Mof_C 	C 	0.3202	0.3577	0.7162	0.022
Mof_C 	C 	0.319	0.3864	0.7519	0.022
Mof_C 	C 	0.3159	0.4212	0.7949	0.002
Mof_C 	C 	0.3997	0.4438	0.82	0.121
Mof_C 	C 	0.2254	0.434	0.8137	-0.058
Mof_C 	C 	0.2204	0.4696	0.8547	0.003
Mof_C 	C 	0.3948	0.4769	0.8599	-0.067
Mof_C 	C 	0.3062	0.4923	0.8782	-0.058
Mof_C 	C 	0.3023	0.5341	0.9209	0.393
Mof_C 	C 	0.3051	0.7022	0.0495	0.364
Mof_C 	C 	0.3067	0.7472	0.0904	-0.042
Mof_C 	C 	0.3843	0.7878	0.0993	-0.075
Mof_C 	C 	0.2295	0.7468	0.1201	-0.009
Mof_C 	C 	0.2323	0.7841	0.1611	-0.053
Mof_C 	C 	0.3897	0.8239	0.1381	0.116
Mof_C 	C 	0.3123	0.8246	0.171	-0.002
Mof_C 	C 	0.3169	0.8616	0.2124	0.017
Mof_C 	C 	0.3187	0.893	0.2465	0.02
Mof_C 	C 	0.3156	0.9307	0.2882	0
Mof_C 	C 	0.3936	0.9644	0.3075	0.109
Mof_C 	C 	0.228	0.9346	0.312	-0.061
Mof_C 	C 	0.2264	0.9709	0.3542	0.005
Mof_C 	C 	0.3914	0	0.3477	-0.059
Mof_C 	C 	0.303	0.0038	0.3717	-0.062
Mof_C 	C 	0.3009	0.0397	0.416	0.366
Mof_C 	C 	0.314	0.5361	0.052	0.394
Mof_C 	C 	0.3175	0.4892	0.0917	-0.054
Mof_C 	C 	0.4045	0.4826	0.116	-0.059
Mof_C 	C 	0.2389	0.4525	0.1072	0.006
Mof_C 	C 	0.2444	0.4116	0.1429	-0.053
Mof_C 	C 	0.4095	0.4424	0.1519	0.108
Mof_C 	C 	0.3334	0.4087	0.1684	0.002
Mof_C 	C 	0.3338	0.3681	0.2099	0.025
Mof_C 	C 	0.3386	0.3382	0.2455	0.027
Mof_C 	C 	0.3353	0.3044	0.2882	0.005
Mof_C 	C 	0.398	0.3204	0.3265	0.111
Mof_C 	C 	0.2696	0.2532	0.2956	-0.05
Mof_C 	C 	0.2629	0.2216	0.3389	0.007
Mof_C 	C 	0.3922	0.2872	0.3686	-0.06
Mof_C 	C 	0.3265	0.2375	0.3752	-0.058
Mof_C 	C 	0.3235	0.1999	0.4193	0.366
Mof_C 	C 	0.5946	0.5686	0.969	0.08
Mof_C 	C 	0.6123	0.6722	0.9911	0.092
Mof_C 	C 	0.7087	0.6704	0.9905	-0.151
Mof_C 	C 	0.6936	0.5645	0.9674	-0.13
Mof_C 	C 	0.751	0.6155	0.9833	0.088
Mof_C 	C 	0.8583	0.6132	0.9853	-0.022
Mof_C 	C 	0.9098	0.6472	0.0175	-0.029
Mof_C 	C 	0.9046	0.5742	0.9534	-0.085
Mof_C 	C 	0.004	0.575	0.9555	0.049
Mof_C 	C 	0.0078	0.6455	0.0178	0.078
Mof_C 	C 	0.617	0.1674	0.4731	0.107
Mof_C 	C 	0.7113	0.1691	0.4739	-0.165
Mof_Br	Br	0.09647	0.89236	0.66789	-0.22
Mof_Br	Br	0.49873	0.83947	0.79198	-0.222
Mof_Br	Br	0.513	0.3593	0.66106	-0.22
Mof_Br	Br	0.51846	0.42432	0.79519	-0.21
Mof_Br	Br	0.49852	0.87879	0.14892	-0.228
Mof_Br	Br	0.51312	0.96111	0.2755	-0.211
Mof_Br	Br	0.53312	0.45222	0.18897	-0.156
Mof_Br	Br	0.48821	0.38792	0.32027	-0.211
Mof_N 	N 	0.0605	0.1172	0.4851	-0.245
Mof_N 	N 	0.5591	0.1193	0.4881	-0.269
Mof_N 	N 	0.556	0.6219	0.982	-0.258
Mof_N 	N 	0.0556	0.6098	0.9858	-0.266
Mof_O 	O 	0.231	0.0493	0.53457	-0.452
Mof_O 	O 	0.3911	0.0502	0.5324	-0.438
Mof_O 	O 	0.2284	0.6772	0.93559	-0.461
Mof_O 	O 	0.3864	0.6833	0.9302	-0.449
Mof_O 	O 	0.229	0.179	0.53744	-0.458
Mof_O 	O 	0.3875	0.1826	0.53779	-0.462
Mof_O 	O 	0.22	0.5468	0.93412	-0.461
Mof_O 	O 	0.3773	0.5515	0.94007	-0.478
Mof_O 	O 	0.2272	0.6758	0.03827	-0.44
Mof_O 	O 	0.3853	0.6947	0.03031	-0.416
Mof_O 	O 	0.219	0.0477	0.43302	-0.44
Mof_O 	O 	0.3791	0.0634	0.43159	-0.453
Mof_O 	O 	0.2337	0.543	0.0352	-0.442
Mof_O 	O 	0.3899	0.5629	0.0392	-0.432
Mof_O 	O 	0.2449	0.1763	0.43396	-0.463
Mof_O 	O 	0.4037	0.1934	0.43819	-0.433
Mof_Zn	Zn	0.79563	0.88692	0.98463	1.202
Mof_Zn	Zn	0.58353	0.8785	0.98594	1.205
Mof_Zn	Zn	0.79904	0.39022	0.48657	1.213
Mof_Zn	Zn	0.58784	0.37646	0.48463	1.217
Mof_H 	H 	0.43	0.9384	0.038	-0.002
Mof_H 	H 	0.2691	0.9429	0.0417	0.12
Mof_H 	H 	0.1287	0.9406	0.9311	0.071
Mof_H 	H 	0.1139	0.8216	0.0421	0.063
Mof_H 	H 	0.9478	0.8258	0.0395	0.007
Mof_H 	H 	0.964	0.9448	0.9325	0.017
Mof_H 	H 	0.5464	0.0136	0.0976	0.077
Mof_H 	H 	0.8333	0.0323	0.0887	0.094
Mof_H 	H 	0.5533	0.0709	0.1688	0.083
Mof_H 	H 	0.8397	0.2199	0.2917	0.072
Mof_H 	H 	0.8392	0.2777	0.3607	0.047
Mof_H 	H 	0.5527	0.24	0.3713	0.09
Mof_H 	H 	0.5527	0.7257	0.0862	0.091
Mof_H 	H 	0.8266	0.7741	0.1135	0.045
Mof_H 	H 	0.8224	0.7143	0.1807	0.061
Mof_H 	H 	0.8312	0.5816	0.2983	0.068
Mof_H 	H 	0.8397	0.5211	0.3672	0.051
Mof_H 	H 	0.5484	0.5098	0.376	0.099
Mof_H 	H 	0.5646	0.2097	0.5773	0.086
Mof_H 	H 	0.8261	0.2788	0.613	0.047
Mof_H 	H 	0.8202	0.218	0.6822	0.06
Mof_H 	H 	0.8285	0.0864	0.8001	0.072
Mof_H 	H 	0.8319	0.0281	0.871	0.047
Mof_H 	H 	0.5525	0.9783	0.8592	0.088
Mof_H 	H 	0.5402	0.4928	0.6067	0.105
Mof_H 	H 	0.8206	0.5436	0.592	0.045
Mof_H 	H 	0.8093	0.615	0.6514	0.068
Mof_H 	H 	0.7713	0.7604	0.7704	0.07
Mof_H 	H 	0.7853	0.8109	0.8435	0.051
Mof_H 	H 	0.5653	0.7011	0.8936	0.08
Mof_H 	H 	0.4459	0.4667	0.4607	0.017
Mof_H 	H 	0.4153	0.2895	0.4981	0.002
Mof_H 	H 	0.2528	0.2921	0.4952	0.084
Mof_H 	H 	0.2793	0.4719	0.4557	0.093
Mof_H 	H 	0.1211	0.3279	0.5398	0.079
Mof_H 	H 	0.1304	0.4516	0.4314	0.081
Mof_H 	H 	0.964	0.4507	0.4342	0.008
Mof_H 	H 	0.9565	0.3305	0.5406	0.01
Mof_H 	H 	0.4119	0.7971	0.9609	0.003
Mof_H 	H 	0.2527	0.7943	0.964	0.087
Mof_C 	C 	0.3935	0.9132	0.0162	0.178
Mof_C 	C 	0.2969	0.9167	0.0192	-0.121
Mof_C 	C 	0.2435	0.8814	0.9891	0.059
Mof_C 	C 	0.1361	0.8806	0.99	-0.024
Mof_C 	C 	0.0916	0.9178	0.954	-0.084
Mof_C 	C 	0.0851	0.8471	0.0194	-0.038
Mof_C 	C 	0.9851	0.8494	0.0171	0.094
Mof_C 	C 	0.9942	0.9186	0.9543	0.036
Mof_C 	C 	0.6883	0.9683	0.0493	0.347
Mof_C 	C 	0.6919	0.0141	0.0907	-0.028
Mof_C 	C 	0.6056	0.0281	0.1111	-0.008
Mof_C 	C 	0.7769	0.0399	0.1056	-0.082
Mof_C 	C 	0.7808	0.0762	0.1443	0.118
Mof_C 	C 	0.6098	0.0638	0.1518	-0.033
Mof_C 	C 	0.6983	0.0894	0.168	-0.002
Mof_C 	C 	0.6998	0.1297	0.2108	0.034
Mof_C 	C 	0.6988	0.1567	0.2479	0.025
Mof_C 	C 	0.6999	0.1931	0.2901	0.006
Mof_C 	C 	0.7813	0.2234	0.3081	-0.058
Mof_C 	C 	0.6143	0.1981	0.3154	0.112
Mof_C 	C 	0.7813	0.2586	0.3489	0.01
Mof_C 	C 	0.6113	0.2352	0.3555	-0.055
Mof_C 	C 	0.6967	0.266	0.3727	-0.072
Mof_C 	C 	0.6945	0.3042	0.4152	0.372
Mof_C 	C 	0.6907	0.8019	0.0523	0.383
Mof_C 	C 	0.6889	0.7574	0.0943	-0.051
Mof_C 	C 	0.6074	0.7234	0.1056	-0.06
Mof_C 	C 	0.7688	0.7519	0.1222	0.001
Mof_C 	C 	0.7673	0.7159	0.1615	-0.057
Mof_C 	C 	0.6039	0.6853	0.1456	0.113
Mof_C 	C 	0.6826	0.6805	0.1736	-0.002
Mof_C 	C 	0.6798	0.6423	0.2162	0.023
Mof_C 	C 	0.681	0.6136	0.2519	0.021
Mof_C 	C 	0.6841	0.5788	0.2949	0.002
Mof_C 	C 	0.6003	0.5562	0.32	0.122
Mof_C 	C 	0.7746	0.566	0.3137	-0.057
Mof_C 	C 	0.7796	0.5304	0.3547	0.002
Mof_C 	C 	0.6052	0.5231	0.3599	-0.068
Mof_C 	C 	0.6938	0.5077	0.3782	-0.056
Mof_C 	C 	0.6977	0.4659	0.4209	0.393
Mof_C 	C 	0.6949	0.2978	0.5495	0.368
Mof_C 	C 	0.6933	0.2528	0.5904	-0.051
Mof_C 	C 	0.6157	0.2122	0.5993	-0.071
Mof_C 	C 	0.7705	0.2532	0.6201	-0.005
Mof_C 	C 	0.7677	0.2159	0.6611	-0.056
Mof_C 	C 	0.6103	0.1761	0.6381	0.113
Mof_C 	C 	0.6877	0.1754	0.671	-0.001
Mof_C 	C 	0.6831	0.1384	0.7124	0.018
Mof_C 	C 	0.6813	0.107	0.7465	0.018
Mof_C 	C 	0.6844	0.0693	0.7882	0.005
Mof_C 	C 	0.6064	0.0356	0.8075	0.103
Mof_C 	C 	0.772	0.0654	0.812	-0.069
Mof_C 	C 	0.7736	0.0291	0.8542	0.019
Mof_C 	C 	0.6086	0	0.8477	-0.046
Mof_C 	C 	0.697	0.9962	0.8717	-0.079
Mof_C 	C 	0.6991	0.9603	0.916	0.37
Mof_C 	C 	0.686	0.4639	0.552	0.399
Mof_C 	C 	0.6825	0.5108	0.5917	-0.064
Mof_C 	C 	0.5955	0.5174	0.616	-0.055
Mof_C 	C 	0.7611	0.5475	0.6072	0.009
Mof_C 	C 	0.7556	0.5884	0.6429	-0.058
Mof_C 	C 	0.5905	0.5576	0.6519	0.103
Mof_C 	C 	0.6666	0.5913	0.6684	0.004
Mof_C 	C 	0.6662	0.6319	0.7099	0.023
Mof_C 	C 	0.6614	0.6618	0.7455	0.027
Mof_C 	C 	0.6647	0.6956	0.7882	0.005
Mof_C 	C 	0.602	0.6796	0.8265	0.111
Mof_C 	C 	0.7304	0.7468	0.7956	-0.05
Mof_C 	C 	0.7371	0.7784	0.8389	0.007
Mof_C 	C 	0.6078	0.7128	0.8686	-0.059
Mof_C 	C 	0.6735	0.7625	0.8752	-0.059
Mof_C 	C 	0.6765	0.8001	0.9193	0.368
Mof_C 	C 	0.4054	0.4314	0.469	0.081
Mof_C 	C 	0.3877	0.3278	0.4911	0.091
Mof_C 	C 	0.2913	0.3296	0.4905	-0.13
Mof_C 	C 	0.3064	0.4355	0.4674	-0.112
Mof_C 	C 	0.249	0.3845	0.4833	0.071
Mof_C 	C 	0.1417	0.3868	0.4853	0.06
Mof_C 	C 	0.0902	0.3528	0.5175	-0.114
Mof_C 	C 	0.0954	0.4258	0.4534	-0.113
Mof_C 	C 	0.996	0.425	0.4555	0.076
Mof_C 	C 	0.9922	0.3545	0.5178	0.061
Mof_C 	C 	0.383	0.8326	0.9731	0.083
Mof_C 	C 	0.2887	0.8309	0.9739	-0.155
Mof_Br	Br	0.90353	0.10764	0.16789	-0.214
Mof_Br	Br	0.50127	0.16053	0.29198	-0.22
Mof_Br	Br	0.487	0.6407	0.16106	-0.219
Mof_Br	Br	0.48154	0.57568	0.29519	-0.208
Mof_Br	Br	0.50148	0.12121	0.64892	-0.227
Mof_Br	Br	0.48688	0.03889	0.7755	-0.209
Mof_Br	Br	0.46688	0.54778	0.68897	-0.159
Mof_Br	Br	0.51179	0.61208	0.82027	-0.211
Mof_N 	N 	0.9395	0.8828	0.9851	-0.27
Mof_N 	N 	0.4409	0.8807	0.9881	-0.299
Mof_N 	N 	0.444	0.3781	0.482	-0.248
Mof_N 	N 	0.9444	0.3902	0.4858	-0.244
Mof_O 	O 	0.769	0.9507	0.03457	-0.431
Mof_O 	O 	0.6089	0.9498	0.0324	-0.417
Mof_O 	O 	0.7716	0.3228	0.43559	-0.451
Mof_O 	O 	0.6136	0.3167	0.4302	-0.441
Mof_O 	O 	0.771	0.821	0.03744	-0.436
Mof_O 	O 	0.6125	0.8174	0.03779	-0.439
Mof_O 	O 	0.78	0.4532	0.43412	-0.453
Mof_O 	O 	0.6227	0.4485	0.44007	-0.468
Mof_O 	O 	0.7728	0.3242	0.53827	-0.46
Mof_O 	O 	0.6147	0.3053	0.53031	-0.443
Mof_O 	O 	0.781	0.9523	0.93302	-0.451
Mof_O 	O 	0.6209	0.9366	0.93159	-0.465
Mof_O 	O 	0.7663	0.457	0.5352	-0.465
Mof_O 	O 	0.6101	0.4371	0.5392	-0.456
Mof_O 	O 	0.7551	0.8237	0.93396	-0.472
Mof_O 	O 	0.5963	0.8066	0.93819	-0.44
_end
