data_functionalizedCrystal
_audit_creation_method	'EQeq! by Chris Wilmer'
_symmetry_space_group_name_H-M	'P1'
_symmetry_Int_Tables_number	1
_symmetry_cell_setting	triclinic
loop_
_symmetry_equiv_pos_as_xyz
  x,y,z
_cell_length_a	34.7076
_cell_length_b	15.0136
_cell_length_c	29.9475
_cell_angle_alpha	90
_cell_angle_beta	100.783
_cell_angle_gamma	90
loop_
_atom_site_label
_atom_site_type_symbol
_atom_site_fract_x
_atom_site_fract_y
_atom_site_fract_z
_atom_site_charge
Mof_Zn	Zn	0.63196	0.40599	0.54837	0.571
Mof_I 	I 	0.61987	0.26016	0.57576	-3.784
Mof_I 	I 	0.66107	0.4366	0.47095	-0.052
Mof_Zn	Zn	0.4208	0.12734	0.40668	-1.183
Mof_I 	I 	0.38406	0.2394	0.44604	-18.108
Mof_I 	I 	0.47529	0.15633	0.36301	-20.719
Mof_Zn	Zn	0.3304	0.362	0.2339	1634.33
Mof_I 	I 	0.37629	0.3468	0.30833	944.868
Mof_I 	I 	0.26977	0.26672	0.20845	-20.48
Mof_N 	N 	0.58348	0.4869	0.54715	-1.678
Mof_C 	C 	0.56917	0.4969	0.5846	-7.941
Mof_H 	H 	0.5813	0.4653	0.611	-14.529
Mof_C 	C 	0.5378	0.5503	0.5876	-7.915
Mof_H 	H 	0.528	0.5544	0.6151	-14.721
Mof_C 	C 	0.52066	0.5984	0.54949	-3.258
Mof_C 	C 	0.53573	0.5906	0.5109	-0.417
Mof_H 	H 	0.5248	0.6237	0.4845	-0.392
Mof_C 	C 	0.56729	0.5336	0.51029	-2.433
Mof_H 	H 	0.5776	0.5278	0.4832	0.254
Mof_N 	N 	0.43937	0.0259	0.45311	-0.125
Mof_C 	C 	0.41881	0.0102	0.48572	-0.24
Mof_H 	H 	0.3998	0.0526	0.4908	0.449
Mof_C 	C 	0.42409	0.9346	0.51231	0.154
Mof_H 	H 	0.409	0.9255	0.5354	0.272
Mof_C 	C 	0.4516	0.872	0.50504	-0.015
Mof_C 	C 	0.47408	0.8902	0.47267	0.053
Mof_H 	H 	0.4939	0.8499	0.4677	-0.419
Mof_C 	C 	0.46733	0.9677	0.4476	-0.333
Mof_H 	H 	0.4831	0.9802	0.4256	0.281
Mof_N 	N 	0.36182	0.6532	0.67845	10.49
Mof_C 	C 	0.3525	0.7141	0.6457	-6.419
Mof_H 	H 	0.3285	0.746	0.6433	0.991
Mof_C 	C 	0.3768	0.7318	0.6151	5.671
Mof_H 	H 	0.3699	0.7762	0.5925	-1.333
Mof_C 	C 	0.41128	0.6844	0.6179	-4.04
Mof_C 	C 	0.41962	0.6204	0.6508	2.703
Mof_H 	H 	0.443	0.5862	0.6536	-6.173
Mof_C 	C 	0.3939	0.6061	0.6797	-5.674
Mof_H 	H 	0.3996	0.56	0.7017	-7.473
Mof_C 	C 	0.48794	0.6598	0.55249	-2.605
Mof_N 	N 	0.48406	0.7313	0.52489	-0.527
Mof_C 	C 	0.45594	0.7875	0.53151	-0.203
Mof_N 	N 	0.43151	0.7756	0.5605	-0.017
Mof_C 	C 	0.43755	0.7007	0.58491	0.015
Mof_N 	N 	0.46578	0.6415	0.58306	-2.041
Mof_N 	N 	0.37952	0.0551	0.36122	0.623
Mof_C 	C 	0.35157	0.0959	0.33205	-4.336
Mof_H 	H 	0.3478	0.158	0.3355	20.121
Mof_C 	C 	0.3277	0.0516	0.29686	8.617
Mof_H 	H 	0.3082	0.083	0.2764	10.75
Mof_C 	C 	0.33261	0.9616	0.29187	-1.917
Mof_C 	C 	0.36098	0.9191	0.3229	2.127
Mof_H 	H 	0.3648	0.8566	0.321	-1.113
Mof_C 	C 	0.38356	0.9683	0.3566	-0.353
Mof_H 	H 	0.4031	0.9384	0.3777	-0.028
Mof_N 	N 	0.31544	0.4987	0.22227	-13.64
Mof_C 	C 	0.28726	0.533	0.1919	1.55
Mof_H 	H 	0.2714	0.4939	0.1713	-10.546
Mof_C 	C 	0.27941	0.6247	0.1883	-2.425
Mof_H 	H 	0.2586	0.647	0.1659	4.408
Mof_C 	C 	0.30236	0.681	0.21757	5.631
Mof_C 	C 	0.33238	0.6444	0.249	-7.54
Mof_H 	H 	0.349	0.6814	0.27	0.307
Mof_C 	C 	0.338	0.5534	0.2496	7.028
Mof_H 	H 	0.3592	0.5292	0.2708	-27.411
Mof_N 	N 	0.17236	0.0323	0.0978	-3.151
Mof_C 	C 	0.19427	0.0765	0.1321	-2.106
Mof_H 	H 	0.1897	0.1384	0.1352	0.684
Mof_C 	C 	0.22315	0.0362	0.163	-4.024
Mof_H 	H 	0.2383	0.07	0.1868	4.199
Mof_C 	C 	0.22996	0.9466	0.15933	4.333
Mof_C 	C 	0.20697	0.8996	0.12425	-2.531
Mof_H 	H 	0.2104	0.8373	0.1211	4.919
Mof_C 	C 	0.1791	0.9454	0.09417	-6.744
Mof_H 	H 	0.1639	0.9135	0.0696	-2.781
Mof_C 	C 	0.3091	0.9094	0.2539	1.598
Mof_N 	N 	0.3185	0.8242	0.25106	-0.003
Mof_C 	C 	0.29561	0.7791	0.21778	1.326
Mof_N 	N 	0.26686	0.8144	0.18657	4.888
Mof_C 	C 	0.26099	0.901	0.1924	2.906
Mof_N 	N 	0.28047	0.95183	0.2261	0.282
Mof_I 	I 	0.61026	0.2561	0.5885	0.933
Mof_I 	I 	0.64979	0.4208	0.4792	-1.917
Mof_Zn	Zn	0.326	0.3648	0.2226	-1847.56
Mof_I 	I 	0.3668	0.3373	0.3022	69.254
Mof_I 	I 	0.2631	0.28	0.1941	9.102
Mof_Zn	Zn	0.3132	0.3634	0.2061	627.837
Mof_I 	I 	0.3528	0.3219	0.2851	-1271.31
Mof_I 	I 	0.2502	0.2859	0.1721	-27.881
Mof_Zn	Zn	0.13196	0.90599	0.54837	0.574
Mof_I 	I 	0.11987	0.76016	0.57576	-3.756
Mof_I 	I 	0.16107	0.9366	0.47095	-0.054
Mof_Zn	Zn	0.9208	0.62734	0.40668	-1.179
Mof_I 	I 	0.88406	0.7394	0.44604	-18.058
Mof_I 	I 	0.97529	0.65633	0.36301	-20.674
Mof_Zn	Zn	0.8304	0.862	0.2339	1629.39
Mof_I 	I 	0.87629	0.8468	0.30833	942.004
Mof_I 	I 	0.76977	0.76672	0.20845	-20.417
Mof_N 	N 	0.08348	0.9869	0.54715	-1.678
Mof_C 	C 	0.06917	0.9969	0.5846	-7.829
Mof_H 	H 	0.0813	0.9653	0.611	-14.492
Mof_C 	C 	0.0378	0.0503	0.5876	-7.968
Mof_H 	H 	0.028	0.0544	0.6151	-14.654
Mof_C 	C 	0.02066	0.0984	0.54949	-3.216
Mof_C 	C 	0.03573	0.0906	0.5109	-0.43
Mof_H 	H 	0.0248	0.1237	0.4845	-0.377
Mof_C 	C 	0.06729	0.0336	0.51029	-2.427
Mof_H 	H 	0.0776	0.0278	0.4832	0.266
Mof_N 	N 	0.93937	0.5259	0.45311	-0.139
Mof_C 	C 	0.91881	0.5102	0.48572	-0.244
Mof_H 	H 	0.8998	0.5526	0.4908	0.449
Mof_C 	C 	0.92409	0.4346	0.51231	0.156
Mof_H 	H 	0.909	0.4255	0.5354	0.264
Mof_C 	C 	0.9516	0.372	0.50504	-0.013
Mof_C 	C 	0.97408	0.3902	0.47267	0.046
Mof_H 	H 	0.9939	0.3499	0.4677	-0.408
Mof_C 	C 	0.96733	0.4677	0.4476	-0.313
Mof_H 	H 	0.9831	0.4802	0.4256	0.288
Mof_N 	N 	0.86182	0.1532	0.67845	10.417
Mof_C 	C 	0.8525	0.2141	0.6457	-6.382
Mof_H 	H 	0.8285	0.246	0.6433	0.981
Mof_C 	C 	0.8768	0.2318	0.6151	5.634
Mof_H 	H 	0.8699	0.2762	0.5925	-1.328
Mof_C 	C 	0.91128	0.1844	0.6179	-4.019
Mof_C 	C 	0.91962	0.1204	0.6508	2.683
Mof_H 	H 	0.943	0.0862	0.6536	-6.146
Mof_C 	C 	0.8939	0.1061	0.6797	-5.642
Mof_H 	H 	0.8996	0.06	0.7017	-7.438
Mof_C 	C 	0.98794	0.1598	0.55249	-2.602
Mof_N 	N 	0.98406	0.2313	0.52489	-0.522
Mof_C 	C 	0.95594	0.2875	0.53151	-0.202
Mof_N 	N 	0.93151	0.2756	0.5605	-0.018
Mof_C 	C 	0.93755	0.2007	0.58491	0.012
Mof_N 	N 	0.96578	0.1415	0.58306	-2.032
Mof_N 	N 	0.87952	0.5551	0.36122	0.566
Mof_C 	C 	0.85157	0.5959	0.33205	-4.261
Mof_H 	H 	0.8478	0.658	0.3355	20.037
Mof_C 	C 	0.8277	0.5516	0.29686	8.426
Mof_H 	H 	0.8082	0.583	0.2764	10.751
Mof_C 	C 	0.83261	0.4616	0.29187	-1.774
Mof_C 	C 	0.86098	0.4191	0.3229	2.028
Mof_H 	H 	0.8648	0.3566	0.321	-1.071
Mof_C 	C 	0.88356	0.4683	0.3566	-0.245
Mof_H 	H 	0.9031	0.4384	0.3777	-0.054
Mof_N 	N 	0.81544	0.9987	0.22227	-13.753
Mof_C 	C 	0.78726	0.033	0.1919	1.902
Mof_H 	H 	0.7714	0.9939	0.1713	-10.681
Mof_C 	C 	0.77941	0.1247	0.1883	-2.604
Mof_H 	H 	0.7586	0.147	0.1659	4.511
Mof_C 	C 	0.80236	0.181	0.21757	5.766
Mof_C 	C 	0.83238	0.1444	0.249	-7.644
Mof_H 	H 	0.849	0.1814	0.27	0.361
Mof_C 	C 	0.838	0.0534	0.2496	7.183
Mof_H 	H 	0.8592	0.0292	0.2708	-27.348
Mof_N 	N 	0.67236	0.5323	0.0978	-3.265
Mof_C 	C 	0.69427	0.5765	0.1321	-2.046
Mof_H 	H 	0.6897	0.6384	0.1352	0.643
Mof_C 	C 	0.72315	0.5362	0.163	-4.267
Mof_H 	H 	0.7383	0.57	0.1868	4.244
Mof_C 	C 	0.72996	0.4466	0.15933	4.542
Mof_C 	C 	0.70697	0.3996	0.12425	-2.677
Mof_H 	H 	0.7104	0.3373	0.1211	5.002
Mof_C 	C 	0.6791	0.4454	0.09417	-6.623
Mof_H 	H 	0.6639	0.4135	0.0696	-2.837
Mof_C 	C 	0.8091	0.4094	0.2539	1.566
Mof_N 	N 	0.8185	0.3242	0.25106	0.016
Mof_C 	C 	0.79561	0.2791	0.21778	1.314
Mof_N 	N 	0.76686	0.3144	0.18657	4.938
Mof_C 	C 	0.76099	0.401	0.1924	2.882
Mof_N 	N 	0.78047	0.45183	0.2261	0.309
Mof_I 	I 	0.11026	0.7561	0.5885	0.925
Mof_I 	I 	0.14979	0.9208	0.4792	-1.896
Mof_Zn	Zn	0.826	0.8648	0.2226	-1841.97
Mof_I 	I 	0.8668	0.8373	0.3022	69.034
Mof_I 	I 	0.7631	0.78	0.1941	9.059
Mof_Zn	Zn	0.8132	0.8634	0.2061	625.941
Mof_I 	I 	0.8528	0.8219	0.2851	-1267.47
Mof_I 	I 	0.7502	0.7859	0.1721	-27.807
Mof_Zn	Zn	0.63196	0.59401	0.04837	0.565
Mof_I 	I 	0.61987	0.73984	0.07576	-3.784
Mof_I 	I 	0.66107	0.5634	0.97095	-0.051
Mof_Zn	Zn	0.4208	0.87266	0.90668	-1.181
Mof_I 	I 	0.38406	0.7606	0.94604	-18.104
Mof_I 	I 	0.47529	0.84367	0.86301	-20.707
Mof_Zn	Zn	0.3304	0.638	0.7339	1634.74
Mof_I 	I 	0.37629	0.6532	0.80833	945.11
Mof_I 	I 	0.26977	0.73328	0.70845	-20.484
Mof_N 	N 	0.58348	0.5131	0.04715	-1.676
Mof_C 	C 	0.56917	0.5031	0.0846	-7.954
Mof_H 	H 	0.5813	0.5347	0.111	-14.53
Mof_C 	C 	0.5378	0.4497	0.0876	-7.904
Mof_H 	H 	0.528	0.4456	0.1151	-14.73
Mof_C 	C 	0.52066	0.4016	0.04949	-3.281
Mof_C 	C 	0.53573	0.4094	0.0109	-0.371
Mof_H 	H 	0.5248	0.3763	0.9845	-0.43
Mof_C 	C 	0.56729	0.4664	0.01029	-2.458
Mof_H 	H 	0.5776	0.4722	0.9832	0.252
Mof_N 	N 	0.43937	0.9741	0.95311	-0.096
Mof_C 	C 	0.41881	0.9898	0.98572	-0.186
Mof_H 	H 	0.3998	0.9474	0.9908	0.443
Mof_C 	C 	0.42409	0.0654	0.01231	0.115
Mof_H 	H 	0.409	0.0745	0.0354	0.293
Mof_C 	C 	0.4516	0.128	0.00504	0.084
Mof_C 	C 	0.47408	0.1098	0.97267	-0.052
Mof_H 	H 	0.4939	0.1501	0.9677	-0.408
Mof_C 	C 	0.46733	0.0323	0.9476	-0.375
Mof_H 	H 	0.4831	0.0198	0.9256	0.271
Mof_N 	N 	0.36182	0.3468	0.17845	10.487
Mof_C 	C 	0.3525	0.2859	0.1457	-6.417
Mof_H 	H 	0.3285	0.254	0.1433	0.993
Mof_C 	C 	0.3768	0.2682	0.1151	5.67
Mof_H 	H 	0.3699	0.2238	0.0925	-1.329
Mof_C 	C 	0.41128	0.3156	0.1179	-4.039
Mof_C 	C 	0.41962	0.3796	0.1508	2.702
Mof_H 	H 	0.443	0.4138	0.1536	-6.174
Mof_C 	C 	0.3939	0.3939	0.1797	-5.674
Mof_H 	H 	0.3996	0.44	0.2017	-7.472
Mof_C 	C 	0.48794	0.3402	0.05249	-2.598
Mof_N 	N 	0.48406	0.2687	0.02489	-0.518
Mof_C 	C 	0.45594	0.2125	0.03151	-0.223
Mof_N 	N 	0.43151	0.2244	0.0605	-0.011
Mof_C 	C 	0.43755	0.2993	0.08491	0.016
Mof_N 	N 	0.46578	0.3585	0.08306	-2.043
Mof_N 	N 	0.37952	0.9449	0.86122	0.656
Mof_C 	C 	0.35157	0.9041	0.83205	-4.357
Mof_H 	H 	0.3478	0.842	0.8355	20.134
Mof_C 	C 	0.3277	0.9484	0.79686	8.67
Mof_H 	H 	0.3082	0.917	0.7764	10.736
Mof_C 	C 	0.33261	0.0384	0.79187	-1.965
Mof_C 	C 	0.36098	0.0809	0.8229	2.17
Mof_H 	H 	0.3648	0.1434	0.821	-1.127
Mof_C 	C 	0.38356	0.0317	0.8566	-0.422
Mof_H 	H 	0.4031	0.0616	0.8777	-0.02
Mof_N 	N 	0.31544	0.5013	0.72227	-13.644
Mof_C 	C 	0.28726	0.467	0.6919	1.555
Mof_H 	H 	0.2714	0.5061	0.6713	-10.548
Mof_C 	C 	0.27941	0.3753	0.6883	-2.425
Mof_H 	H 	0.2586	0.353	0.6659	4.422
Mof_C 	C 	0.30236	0.319	0.71757	5.644
Mof_C 	C 	0.33238	0.3556	0.749	-7.544
Mof_H 	H 	0.349	0.3186	0.77	0.31
Mof_C 	C 	0.338	0.4466	0.7496	7.033
Mof_H 	H 	0.3592	0.4708	0.7708	-27.419
Mof_N 	N 	0.17236	0.9677	0.5978	-3.209
Mof_C 	C 	0.19427	0.9235	0.6321	-2.084
Mof_H 	H 	0.1897	0.8616	0.6352	0.669
Mof_C 	C 	0.22315	0.9638	0.663	-4.116
Mof_H 	H 	0.2383	0.93	0.6868	4.225
Mof_C 	C 	0.22996	0.0534	0.65933	4.418
Mof_C 	C 	0.20697	0.1004	0.62425	-2.595
Mof_H 	H 	0.2104	0.1627	0.6211	4.959
Mof_C 	C 	0.1791	0.0546	0.59417	-6.678
Mof_H 	H 	0.1639	0.0865	0.5696	-2.802
Mof_C 	C 	0.3091	0.0906	0.7539	1.612
Mof_N 	N 	0.3185	0.1758	0.75106	-0.003
Mof_C 	C 	0.29561	0.2209	0.71778	1.335
Mof_N 	N 	0.26686	0.1856	0.68657	4.909
Mof_C 	C 	0.26099	0.099	0.6924	2.899
Mof_N 	N 	0.28047	0.04817	0.7261	0.282
Mof_I 	I 	0.61026	0.7439	0.0885	0.897
Mof_I 	I 	0.64979	0.5792	0.9792	-1.931
Mof_Zn	Zn	0.326	0.6352	0.7226	-1848.03
Mof_I 	I 	0.3668	0.6627	0.8022	69.272
Mof_I 	I 	0.2631	0.72	0.6941	9.102
Mof_Zn	Zn	0.3132	0.6366	0.7061	627.998
Mof_I 	I 	0.3528	0.6781	0.7851	-1271.64
Mof_I 	I 	0.2502	0.7141	0.6721	-27.891
Mof_Zn	Zn	0.13196	0.09401	0.04837	0.59
Mof_I 	I 	0.11987	0.23984	0.07576	-3.745
Mof_I 	I 	0.16107	0.0634	0.97095	-0.113
Mof_Zn	Zn	0.9208	0.37266	0.90668	-1.171
Mof_I 	I 	0.88406	0.2606	0.94604	-18.035
Mof_I 	I 	0.97529	0.34367	0.86301	-20.615
Mof_Zn	Zn	0.8304	0.138	0.7339	1624.21
Mof_I 	I 	0.87629	0.1532	0.80833	938.98
Mof_I 	I 	0.76977	0.23328	0.70845	-20.372
Mof_N 	N 	0.08348	0.0131	0.04715	-1.621
Mof_C 	C 	0.06917	0.0031	0.0846	-7.686
Mof_H 	H 	0.0813	0.0347	0.111	-14.475
Mof_C 	C 	0.0378	0.9497	0.0876	-8.063
Mof_H 	H 	0.028	0.9456	0.1151	-14.579
Mof_C 	C 	0.02066	0.9016	0.04949	-3.152
Mof_C 	C 	0.03573	0.9094	0.0109	-0.514
Mof_H 	H 	0.0248	0.8763	0.9845	-0.297
Mof_C 	C 	0.06729	0.9664	0.01029	-2.604
Mof_H 	H 	0.0776	0.9722	0.9832	0.389
Mof_N 	N 	0.93937	0.4741	0.95311	-0.136
Mof_C 	C 	0.91881	0.4898	0.98572	-0.248
Mof_H 	H 	0.8998	0.4474	0.9908	0.441
Mof_C 	C 	0.92409	0.5654	0.01231	0.165
Mof_H 	H 	0.909	0.5745	0.0354	0.26
Mof_C 	C 	0.9516	0.628	0.00504	-0.056
Mof_C 	C 	0.97408	0.6098	0.97267	0.086
Mof_H 	H 	0.9939	0.6501	0.9677	-0.413
Mof_C 	C 	0.96733	0.5323	0.9476	-0.331
Mof_H 	H 	0.9831	0.5198	0.9256	0.293
Mof_N 	N 	0.86182	0.8468	0.17845	10.45
Mof_C 	C 	0.8525	0.7859	0.1457	-6.401
Mof_H 	H 	0.8285	0.754	0.1433	0.982
Mof_C 	C 	0.8768	0.7682	0.1151	5.649
Mof_H 	H 	0.8699	0.7238	0.0925	-1.335
Mof_C 	C 	0.91128	0.8156	0.1179	-4.027
Mof_C 	C 	0.91962	0.8796	0.1508	2.688
Mof_H 	H 	0.943	0.9138	0.1536	-6.149
Mof_C 	C 	0.8939	0.8939	0.1797	-5.655
Mof_H 	H 	0.8996	0.94	0.2017	-7.459
Mof_C 	C 	0.98794	0.8402	0.05249	-2.626
Mof_N 	N 	0.98406	0.7687	0.02489	-0.532
Mof_C 	C 	0.95594	0.7125	0.03151	-0.202
Mof_N 	N 	0.93151	0.7244	0.0605	-0.021
Mof_C 	C 	0.93755	0.7993	0.08491	0.012
Mof_N 	N 	0.96578	0.8585	0.08306	-2.029
Mof_N 	N 	0.87952	0.4449	0.86122	0.563
Mof_C 	C 	0.85157	0.4041	0.83205	-4.249
Mof_H 	H 	0.8478	0.342	0.8355	19.973
Mof_C 	C 	0.8277	0.4484	0.79686	8.398
Mof_H 	H 	0.8082	0.417	0.7764	10.716
Mof_C 	C 	0.83261	0.5384	0.79187	-1.77
Mof_C 	C 	0.86098	0.5809	0.8229	2.022
Mof_H 	H 	0.8648	0.6434	0.821	-1.067
Mof_C 	C 	0.88356	0.5317	0.8566	-0.245
Mof_H 	H 	0.9031	0.5616	0.8777	-0.053
Mof_N 	N 	0.81544	0.0013	0.72227	-13.682
Mof_C 	C 	0.78726	0.967	0.6919	1.814
Mof_H 	H 	0.7714	0.0061	0.6713	-10.6
Mof_C 	C 	0.77941	0.8753	0.6883	-2.551
Mof_H 	H 	0.7586	0.853	0.6659	4.486
Mof_C 	C 	0.80236	0.819	0.71757	5.729
Mof_C 	C 	0.83238	0.8556	0.749	-7.597
Mof_H 	H 	0.849	0.8186	0.77	0.353
Mof_C 	C 	0.838	0.9466	0.7496	7.134
Mof_H 	H 	0.8592	0.9708	0.7708	-27.252
Mof_N 	N 	0.67236	0.4677	0.5978	-3.262
Mof_C 	C 	0.69427	0.4235	0.6321	-2.047
Mof_H 	H 	0.6897	0.3616	0.6352	0.641
Mof_C 	C 	0.72315	0.4638	0.663	-4.263
Mof_H 	H 	0.7383	0.43	0.6868	4.232
Mof_C 	C 	0.72996	0.5534	0.65933	4.537
Mof_C 	C 	0.70697	0.6004	0.62425	-2.674
Mof_H 	H 	0.7104	0.6627	0.6211	4.999
Mof_C 	C 	0.6791	0.5546	0.59417	-6.621
Mof_H 	H 	0.6639	0.5865	0.5696	-2.834
Mof_C 	C 	0.8091	0.5906	0.7539	1.56
Mof_N 	N 	0.8185	0.6758	0.75106	0.015
Mof_C 	C 	0.79561	0.7209	0.71778	1.323
Mof_N 	N 	0.76686	0.6856	0.68657	4.934
Mof_C 	C 	0.76099	0.599	0.6924	2.881
Mof_N 	N 	0.78047	0.54817	0.7261	0.306
Mof_I 	I 	0.11026	0.2439	0.0885	0.94
Mof_I 	I 	0.14979	0.0792	0.9792	-1.934
Mof_Zn	Zn	0.826	0.1352	0.7226	-1836.12
Mof_I 	I 	0.8668	0.1627	0.8022	68.8
Mof_I 	I 	0.7631	0.22	0.6941	9.03
Mof_Zn	Zn	0.8132	0.1366	0.7061	623.955
Mof_I 	I 	0.8528	0.1781	0.7851	-1263.41
Mof_I 	I 	0.7502	0.2141	0.6721	-27.693
Mof_Zn	Zn	0.36804	0.40599	0.95163	0.565
Mof_I 	I 	0.38013	0.26016	0.92424	-3.784
Mof_I 	I 	0.33893	0.4366	0.02905	-0.051
Mof_Zn	Zn	0.5792	0.12734	0.09332	-1.181
Mof_I 	I 	0.61594	0.2394	0.05396	-18.104
Mof_I 	I 	0.52471	0.15633	0.13699	-20.707
Mof_Zn	Zn	0.6696	0.362	0.2661	1634.74
Mof_I 	I 	0.62371	0.3468	0.19167	945.11
Mof_I 	I 	0.73023	0.26672	0.29155	-20.484
Mof_N 	N 	0.41652	0.4869	0.95285	-1.676
Mof_C 	C 	0.43083	0.4969	0.9154	-7.954
Mof_H 	H 	0.4187	0.4653	0.889	-14.53
Mof_C 	C 	0.4622	0.5503	0.9124	-7.904
Mof_H 	H 	0.472	0.5544	0.8849	-14.73
Mof_C 	C 	0.47934	0.5984	0.95051	-3.281
Mof_C 	C 	0.46427	0.5906	0.9891	-0.371
Mof_H 	H 	0.4752	0.6237	0.0155	-0.43
Mof_C 	C 	0.43271	0.5336	0.98971	-2.458
Mof_H 	H 	0.4224	0.5278	0.0168	0.252
Mof_N 	N 	0.56063	0.0259	0.04689	-0.096
Mof_C 	C 	0.58119	0.0102	0.01428	-0.186
Mof_H 	H 	0.6002	0.0526	0.0092	0.443
Mof_C 	C 	0.57591	0.9346	0.98769	0.115
Mof_H 	H 	0.591	0.9255	0.9646	0.293
Mof_C 	C 	0.5484	0.872	0.99496	0.084
Mof_C 	C 	0.52592	0.8902	0.02733	-0.052
Mof_H 	H 	0.5061	0.8499	0.0323	-0.408
Mof_C 	C 	0.53267	0.9677	0.0524	-0.375
Mof_H 	H 	0.5169	0.9802	0.0744	0.271
Mof_N 	N 	0.63818	0.6532	0.82155	10.487
Mof_C 	C 	0.6475	0.7141	0.8543	-6.417
Mof_H 	H 	0.6715	0.746	0.8567	0.993
Mof_C 	C 	0.6232	0.7318	0.8849	5.67
Mof_H 	H 	0.6301	0.7762	0.9075	-1.329
Mof_C 	C 	0.58872	0.6844	0.8821	-4.039
Mof_C 	C 	0.58038	0.6204	0.8492	2.702
Mof_H 	H 	0.557	0.5862	0.8464	-6.174
Mof_C 	C 	0.6061	0.6061	0.8203	-5.674
Mof_H 	H 	0.6004	0.56	0.7983	-7.472
Mof_C 	C 	0.51206	0.6598	0.94751	-2.598
Mof_N 	N 	0.51594	0.7313	0.97511	-0.518
Mof_C 	C 	0.54406	0.7875	0.96849	-0.223
Mof_N 	N 	0.56849	0.7756	0.9395	-0.011
Mof_C 	C 	0.56245	0.7007	0.91509	0.016
Mof_N 	N 	0.53422	0.6415	0.91694	-2.043
Mof_N 	N 	0.62048	0.0551	0.13878	0.656
Mof_C 	C 	0.64843	0.0959	0.16795	-4.357
Mof_H 	H 	0.6522	0.158	0.1645	20.134
Mof_C 	C 	0.6723	0.0516	0.20314	8.67
Mof_H 	H 	0.6918	0.083	0.2236	10.736
Mof_C 	C 	0.66739	0.9616	0.20813	-1.965
Mof_C 	C 	0.63902	0.9191	0.1771	2.17
Mof_H 	H 	0.6352	0.8566	0.179	-1.127
Mof_C 	C 	0.61644	0.9683	0.1434	-0.422
Mof_H 	H 	0.5969	0.9384	0.1223	-0.02
Mof_N 	N 	0.68456	0.4987	0.27773	-13.644
Mof_C 	C 	0.71274	0.533	0.3081	1.555
Mof_H 	H 	0.7286	0.4939	0.3287	-10.548
Mof_C 	C 	0.72059	0.6247	0.3117	-2.425
Mof_H 	H 	0.7414	0.647	0.3341	4.422
Mof_C 	C 	0.69764	0.681	0.28243	5.644
Mof_C 	C 	0.66762	0.6444	0.251	-7.544
Mof_H 	H 	0.651	0.6814	0.23	0.31
Mof_C 	C 	0.662	0.5534	0.2504	7.033
Mof_H 	H 	0.6408	0.5292	0.2292	-27.419
Mof_N 	N 	0.82764	0.0323	0.4022	-3.209
Mof_C 	C 	0.80573	0.0765	0.3679	-2.084
Mof_H 	H 	0.8103	0.1384	0.3648	0.669
Mof_C 	C 	0.77685	0.0362	0.337	-4.116
Mof_H 	H 	0.7617	0.07	0.3132	4.225
Mof_C 	C 	0.77004	0.9466	0.34067	4.418
Mof_C 	C 	0.79303	0.8996	0.37575	-2.595
Mof_H 	H 	0.7896	0.8373	0.3789	4.959
Mof_C 	C 	0.8209	0.9454	0.40583	-6.678
Mof_H 	H 	0.8361	0.9135	0.4304	-2.802
Mof_C 	C 	0.6909	0.9094	0.2461	1.612
Mof_N 	N 	0.6815	0.8242	0.24894	-0.003
Mof_C 	C 	0.70439	0.7791	0.28222	1.335
Mof_N 	N 	0.73314	0.8144	0.31343	4.909
Mof_C 	C 	0.73901	0.901	0.3076	2.899
Mof_N 	N 	0.71953	0.95183	0.2739	0.282
Mof_I 	I 	0.38974	0.2561	0.9115	0.897
Mof_I 	I 	0.35021	0.4208	0.0208	-1.931
Mof_Zn	Zn	0.674	0.3648	0.2774	-1848.03
Mof_I 	I 	0.6332	0.3373	0.1978	69.272
Mof_I 	I 	0.7369	0.28	0.3059	9.102
Mof_Zn	Zn	0.6868	0.3634	0.2939	627.998
Mof_I 	I 	0.6472	0.3219	0.2149	-1271.64
Mof_I 	I 	0.7498	0.2859	0.3279	-27.891
Mof_Zn	Zn	0.86804	0.90599	0.95163	0.59
Mof_I 	I 	0.88013	0.76016	0.92424	-3.745
Mof_I 	I 	0.83893	0.9366	0.02905	-0.113
Mof_Zn	Zn	0.0792	0.62734	0.09332	-1.171
Mof_I 	I 	0.11594	0.7394	0.05396	-18.035
Mof_I 	I 	0.02471	0.65633	0.13699	-20.615
Mof_Zn	Zn	0.1696	0.862	0.2661	1624.21
Mof_I 	I 	0.12371	0.8468	0.19167	938.98
Mof_I 	I 	0.23023	0.76672	0.29155	-20.372
Mof_N 	N 	0.91652	0.9869	0.95285	-1.621
Mof_C 	C 	0.93083	0.9969	0.9154	-7.686
Mof_H 	H 	0.9187	0.9653	0.889	-14.475
Mof_C 	C 	0.9622	0.0503	0.9124	-8.063
Mof_H 	H 	0.972	0.0544	0.8849	-14.579
Mof_C 	C 	0.97934	0.0984	0.95051	-3.152
Mof_C 	C 	0.96427	0.0906	0.9891	-0.514
Mof_H 	H 	0.9752	0.1237	0.0155	-0.297
Mof_C 	C 	0.93271	0.0336	0.98971	-2.604
Mof_H 	H 	0.9224	0.0278	0.0168	0.389
Mof_N 	N 	0.06063	0.5259	0.04689	-0.136
Mof_C 	C 	0.08119	0.5102	0.01428	-0.248
Mof_H 	H 	0.1002	0.5526	0.0092	0.441
Mof_C 	C 	0.07591	0.4346	0.98769	0.165
Mof_H 	H 	0.091	0.4255	0.9646	0.26
Mof_C 	C 	0.0484	0.372	0.99496	-0.056
Mof_C 	C 	0.02592	0.3902	0.02733	0.086
Mof_H 	H 	0.0061	0.3499	0.0323	-0.413
Mof_C 	C 	0.03267	0.4677	0.0524	-0.331
Mof_H 	H 	0.0169	0.4802	0.0744	0.293
Mof_N 	N 	0.13818	0.1532	0.82155	10.45
Mof_C 	C 	0.1475	0.2141	0.8543	-6.401
Mof_H 	H 	0.1715	0.246	0.8567	0.982
Mof_C 	C 	0.1232	0.2318	0.8849	5.649
Mof_H 	H 	0.1301	0.2762	0.9075	-1.335
Mof_C 	C 	0.08872	0.1844	0.8821	-4.027
Mof_C 	C 	0.08038	0.1204	0.8492	2.688
Mof_H 	H 	0.057	0.0862	0.8464	-6.149
Mof_C 	C 	0.1061	0.1061	0.8203	-5.655
Mof_H 	H 	0.1004	0.06	0.7983	-7.459
Mof_C 	C 	0.01206	0.1598	0.94751	-2.626
Mof_N 	N 	0.01594	0.2313	0.97511	-0.532
Mof_C 	C 	0.04406	0.2875	0.96849	-0.202
Mof_N 	N 	0.06849	0.2756	0.9395	-0.021
Mof_C 	C 	0.06245	0.2007	0.91509	0.012
Mof_N 	N 	0.03422	0.1415	0.91694	-2.029
Mof_N 	N 	0.12048	0.5551	0.13878	0.563
Mof_C 	C 	0.14843	0.5959	0.16795	-4.249
Mof_H 	H 	0.1522	0.658	0.1645	19.973
Mof_C 	C 	0.1723	0.5516	0.20314	8.398
Mof_H 	H 	0.1918	0.583	0.2236	10.716
Mof_C 	C 	0.16739	0.4616	0.20813	-1.77
Mof_C 	C 	0.13902	0.4191	0.1771	2.022
Mof_H 	H 	0.1352	0.3566	0.179	-1.067
Mof_C 	C 	0.11644	0.4683	0.1434	-0.245
Mof_H 	H 	0.0969	0.4384	0.1223	-0.053
Mof_N 	N 	0.18456	0.9987	0.27773	-13.682
Mof_C 	C 	0.21274	0.033	0.3081	1.814
Mof_H 	H 	0.2286	0.9939	0.3287	-10.6
Mof_C 	C 	0.22059	0.1247	0.3117	-2.551
Mof_H 	H 	0.2414	0.147	0.3341	4.486
Mof_C 	C 	0.19764	0.181	0.28243	5.729
Mof_C 	C 	0.16762	0.1444	0.251	-7.597
Mof_H 	H 	0.151	0.1814	0.23	0.353
Mof_C 	C 	0.162	0.0534	0.2504	7.134
Mof_H 	H 	0.1408	0.0292	0.2292	-27.252
Mof_N 	N 	0.32764	0.5323	0.4022	-3.262
Mof_C 	C 	0.30573	0.5765	0.3679	-2.047
Mof_H 	H 	0.3103	0.6384	0.3648	0.641
Mof_C 	C 	0.27685	0.5362	0.337	-4.263
Mof_H 	H 	0.2617	0.57	0.3132	4.232
Mof_C 	C 	0.27004	0.4466	0.34067	4.537
Mof_C 	C 	0.29303	0.3996	0.37575	-2.674
Mof_H 	H 	0.2896	0.3373	0.3789	4.999
Mof_C 	C 	0.3209	0.4454	0.40583	-6.621
Mof_H 	H 	0.3361	0.4135	0.4304	-2.834
Mof_C 	C 	0.1909	0.4094	0.2461	1.56
Mof_N 	N 	0.1815	0.3242	0.24894	0.015
Mof_C 	C 	0.20439	0.2791	0.28222	1.323
Mof_N 	N 	0.23314	0.3144	0.31343	4.934
Mof_C 	C 	0.23901	0.401	0.3076	2.881
Mof_N 	N 	0.21953	0.45183	0.2739	0.306
Mof_I 	I 	0.88974	0.7561	0.9115	0.94
Mof_I 	I 	0.85021	0.9208	0.0208	-1.934
Mof_Zn	Zn	0.174	0.8648	0.2774	-1836.12
Mof_I 	I 	0.1332	0.8373	0.1978	68.8
Mof_I 	I 	0.2369	0.78	0.3059	9.03
Mof_Zn	Zn	0.1868	0.8634	0.2939	623.955
Mof_I 	I 	0.1472	0.8219	0.2149	-1263.41
Mof_I 	I 	0.2498	0.7859	0.3279	-27.693
Mof_Zn	Zn	0.36804	0.59401	0.45163	0.57
Mof_I 	I 	0.38013	0.73984	0.42424	-3.785
Mof_I 	I 	0.33893	0.5634	0.52905	-0.053
Mof_Zn	Zn	0.5792	0.87266	0.59332	-1.184
Mof_I 	I 	0.61594	0.7606	0.55396	-18.109
Mof_I 	I 	0.52471	0.84367	0.63699	-20.72
Mof_Zn	Zn	0.6696	0.638	0.7661	1634.33
Mof_I 	I 	0.62371	0.6532	0.69167	944.867
Mof_I 	I 	0.73023	0.73328	0.79155	-20.48
Mof_N 	N 	0.41652	0.5131	0.45285	-1.678
Mof_C 	C 	0.43083	0.5031	0.4154	-7.941
Mof_H 	H 	0.4187	0.5347	0.389	-14.529
Mof_C 	C 	0.4622	0.4497	0.4124	-7.915
Mof_H 	H 	0.472	0.4456	0.3849	-14.721
Mof_C 	C 	0.47934	0.4016	0.45051	-3.258
Mof_C 	C 	0.46427	0.4094	0.4891	-0.417
Mof_H 	H 	0.4752	0.3763	0.5155	-0.392
Mof_C 	C 	0.43271	0.4664	0.48971	-2.433
Mof_H 	H 	0.4224	0.4722	0.5168	0.254
Mof_N 	N 	0.56063	0.9741	0.54689	-0.125
Mof_C 	C 	0.58119	0.9898	0.51428	-0.24
Mof_H 	H 	0.6002	0.9474	0.5092	0.449
Mof_C 	C 	0.57591	0.0654	0.48769	0.154
Mof_H 	H 	0.591	0.0745	0.4646	0.272
Mof_C 	C 	0.5484	0.128	0.49496	-0.015
Mof_C 	C 	0.52592	0.1098	0.52733	0.053
Mof_H 	H 	0.5061	0.1501	0.5323	-0.419
Mof_C 	C 	0.53267	0.0323	0.5524	-0.333
Mof_H 	H 	0.5169	0.0198	0.5744	0.281
Mof_N 	N 	0.63818	0.3468	0.32155	10.49
Mof_C 	C 	0.6475	0.2859	0.3543	-6.419
Mof_H 	H 	0.6715	0.254	0.3567	0.991
Mof_C 	C 	0.6232	0.2682	0.3849	5.671
Mof_H 	H 	0.6301	0.2238	0.4075	-1.333
Mof_C 	C 	0.58872	0.3156	0.3821	-4.04
Mof_C 	C 	0.58038	0.3796	0.3492	2.703
Mof_H 	H 	0.557	0.4138	0.3464	-6.173
Mof_C 	C 	0.6061	0.3939	0.3203	-5.674
Mof_H 	H 	0.6004	0.44	0.2983	-7.473
Mof_C 	C 	0.51206	0.3402	0.44751	-2.605
Mof_N 	N 	0.51594	0.2687	0.47511	-0.527
Mof_C 	C 	0.54406	0.2125	0.46849	-0.203
Mof_N 	N 	0.56849	0.2244	0.4395	-0.017
Mof_C 	C 	0.56245	0.2993	0.41509	0.015
Mof_N 	N 	0.53422	0.3585	0.41694	-2.041
Mof_N 	N 	0.62048	0.9449	0.63878	0.623
Mof_C 	C 	0.64843	0.9041	0.66795	-4.336
Mof_H 	H 	0.6522	0.842	0.6645	20.121
Mof_C 	C 	0.6723	0.9484	0.70314	8.617
Mof_H 	H 	0.6918	0.917	0.7236	10.75
Mof_C 	C 	0.66739	0.0384	0.70813	-1.917
Mof_C 	C 	0.63902	0.0809	0.6771	2.127
Mof_H 	H 	0.6352	0.1434	0.679	-1.113
Mof_C 	C 	0.61644	0.0317	0.6434	-0.353
Mof_H 	H 	0.5969	0.0616	0.6223	-0.028
Mof_N 	N 	0.68456	0.5013	0.77773	-13.64
Mof_C 	C 	0.71274	0.467	0.8081	1.55
Mof_H 	H 	0.7286	0.5061	0.8287	-10.546
Mof_C 	C 	0.72059	0.3753	0.8117	-2.425
Mof_H 	H 	0.7414	0.353	0.8341	4.408
Mof_C 	C 	0.69764	0.319	0.78243	5.631
Mof_C 	C 	0.66762	0.3556	0.751	-7.54
Mof_H 	H 	0.651	0.3186	0.73	0.307
Mof_C 	C 	0.662	0.4466	0.7504	7.028
Mof_H 	H 	0.6408	0.4708	0.7292	-27.411
Mof_N 	N 	0.82764	0.9677	0.9022	-3.151
Mof_C 	C 	0.80573	0.9235	0.8679	-2.106
Mof_H 	H 	0.8103	0.8616	0.8648	0.684
Mof_C 	C 	0.77685	0.9638	0.837	-4.024
Mof_H 	H 	0.7617	0.93	0.8132	4.199
Mof_C 	C 	0.77004	0.0534	0.84067	4.333
Mof_C 	C 	0.79303	0.1004	0.87575	-2.531
Mof_H 	H 	0.7896	0.1627	0.8789	4.919
Mof_C 	C 	0.8209	0.0546	0.90583	-6.744
Mof_H 	H 	0.8361	0.0865	0.9304	-2.781
Mof_C 	C 	0.6909	0.0906	0.7461	1.598
Mof_N 	N 	0.6815	0.1758	0.74894	-0.003
Mof_C 	C 	0.70439	0.2209	0.78222	1.326
Mof_N 	N 	0.73314	0.1856	0.81343	4.888
Mof_C 	C 	0.73901	0.099	0.8076	2.906
Mof_N 	N 	0.71953	0.04817	0.7739	0.282
Mof_I 	I 	0.38974	0.7439	0.4115	0.933
Mof_I 	I 	0.35021	0.5792	0.5208	-1.917
Mof_Zn	Zn	0.674	0.6352	0.7774	-1847.56
Mof_I 	I 	0.6332	0.6627	0.6978	69.254
Mof_I 	I 	0.7369	0.72	0.8059	9.102
Mof_Zn	Zn	0.6868	0.6366	0.7939	627.837
Mof_I 	I 	0.6472	0.6781	0.7149	-1271.31
Mof_I 	I 	0.7498	0.7141	0.8279	-27.881
Mof_Zn	Zn	0.86804	0.09401	0.45163	0.574
Mof_I 	I 	0.88013	0.23984	0.42424	-3.756
Mof_I 	I 	0.83893	0.0634	0.52905	-0.054
Mof_Zn	Zn	0.0792	0.37266	0.59332	-1.179
Mof_I 	I 	0.11594	0.2606	0.55396	-18.058
Mof_I 	I 	0.02471	0.34367	0.63699	-20.674
Mof_Zn	Zn	0.1696	0.138	0.7661	1629.39
Mof_I 	I 	0.12371	0.1532	0.69167	942.004
Mof_I 	I 	0.23023	0.23328	0.79155	-20.417
Mof_N 	N 	0.91652	0.0131	0.45285	-1.678
Mof_C 	C 	0.93083	0.0031	0.4154	-7.829
Mof_H 	H 	0.9187	0.0347	0.389	-14.492
Mof_C 	C 	0.9622	0.9497	0.4124	-7.968
Mof_H 	H 	0.972	0.9456	0.3849	-14.654
Mof_C 	C 	0.97934	0.9016	0.45051	-3.216
Mof_C 	C 	0.96427	0.9094	0.4891	-0.43
Mof_H 	H 	0.9752	0.8763	0.5155	-0.377
Mof_C 	C 	0.93271	0.9664	0.48971	-2.427
Mof_H 	H 	0.9224	0.9722	0.5168	0.266
Mof_N 	N 	0.06063	0.4741	0.54689	-0.139
Mof_C 	C 	0.08119	0.4898	0.51428	-0.244
Mof_H 	H 	0.1002	0.4474	0.5092	0.449
Mof_C 	C 	0.07591	0.5654	0.48769	0.156
Mof_H 	H 	0.091	0.5745	0.4646	0.264
Mof_C 	C 	0.0484	0.628	0.49496	-0.013
Mof_C 	C 	0.02592	0.6098	0.52733	0.046
Mof_H 	H 	0.0061	0.6501	0.5323	-0.408
Mof_C 	C 	0.03267	0.5323	0.5524	-0.313
Mof_H 	H 	0.0169	0.5198	0.5744	0.288
Mof_N 	N 	0.13818	0.8468	0.32155	10.417
Mof_C 	C 	0.1475	0.7859	0.3543	-6.382
Mof_H 	H 	0.1715	0.754	0.3567	0.981
Mof_C 	C 	0.1232	0.7682	0.3849	5.634
Mof_H 	H 	0.1301	0.7238	0.4075	-1.328
Mof_C 	C 	0.08872	0.8156	0.3821	-4.019
Mof_C 	C 	0.08038	0.8796	0.3492	2.683
Mof_H 	H 	0.057	0.9138	0.3464	-6.146
Mof_C 	C 	0.1061	0.8939	0.3203	-5.642
Mof_H 	H 	0.1004	0.94	0.2983	-7.438
Mof_C 	C 	0.01206	0.8402	0.44751	-2.602
Mof_N 	N 	0.01594	0.7687	0.47511	-0.522
Mof_C 	C 	0.04406	0.7125	0.46849	-0.202
Mof_N 	N 	0.06849	0.7244	0.4395	-0.018
Mof_C 	C 	0.06245	0.7993	0.41509	0.012
Mof_N 	N 	0.03422	0.8585	0.41694	-2.032
Mof_N 	N 	0.12048	0.4449	0.63878	0.566
Mof_C 	C 	0.14843	0.4041	0.66795	-4.261
Mof_H 	H 	0.1522	0.342	0.6645	20.037
Mof_C 	C 	0.1723	0.4484	0.70314	8.426
Mof_H 	H 	0.1918	0.417	0.7236	10.751
Mof_C 	C 	0.16739	0.5384	0.70813	-1.774
Mof_C 	C 	0.13902	0.5809	0.6771	2.028
Mof_H 	H 	0.1352	0.6434	0.679	-1.071
Mof_C 	C 	0.11644	0.5317	0.6434	-0.245
Mof_H 	H 	0.0969	0.5616	0.6223	-0.054
Mof_N 	N 	0.18456	0.0013	0.77773	-13.753
Mof_C 	C 	0.21274	0.967	0.8081	1.902
Mof_H 	H 	0.2286	0.0061	0.8287	-10.681
Mof_C 	C 	0.22059	0.8753	0.8117	-2.604
Mof_H 	H 	0.2414	0.853	0.8341	4.511
Mof_C 	C 	0.19764	0.819	0.78243	5.766
Mof_C 	C 	0.16762	0.8556	0.751	-7.644
Mof_H 	H 	0.151	0.8186	0.73	0.361
Mof_C 	C 	0.162	0.9466	0.7504	7.183
Mof_H 	H 	0.1408	0.9708	0.7292	-27.348
Mof_N 	N 	0.32764	0.4677	0.9022	-3.265
Mof_C 	C 	0.30573	0.4235	0.8679	-2.046
Mof_H 	H 	0.3103	0.3616	0.8648	0.643
Mof_C 	C 	0.27685	0.4638	0.837	-4.267
Mof_H 	H 	0.2617	0.43	0.8132	4.244
Mof_C 	C 	0.27004	0.5534	0.84067	4.542
Mof_C 	C 	0.29303	0.6004	0.87575	-2.677
Mof_H 	H 	0.2896	0.6627	0.8789	5.002
Mof_C 	C 	0.3209	0.5546	0.90583	-6.623
Mof_H 	H 	0.3361	0.5865	0.9304	-2.837
Mof_C 	C 	0.1909	0.5906	0.7461	1.566
Mof_N 	N 	0.1815	0.6758	0.74894	0.016
Mof_C 	C 	0.20439	0.7209	0.78222	1.314
Mof_N 	N 	0.23314	0.6856	0.81343	4.938
Mof_C 	C 	0.23901	0.599	0.8076	2.882
Mof_N 	N 	0.21953	0.54817	0.7739	0.309
Mof_I 	I 	0.88974	0.2439	0.4115	0.925
Mof_I 	I 	0.85021	0.0792	0.5208	-1.896
Mof_Zn	Zn	0.174	0.1352	0.7774	-1841.97
Mof_I 	I 	0.1332	0.1627	0.6978	69.034
Mof_I 	I 	0.2369	0.22	0.8059	9.059
Mof_Zn	Zn	0.1868	0.1366	0.7939	625.941
Mof_I 	I 	0.1472	0.1781	0.7149	-1267.47
Mof_I 	I 	0.2498	0.2141	0.8279	-27.807
_end
