data_functionalizedCrystal
_audit_creation_method	'EQeq! by Chris Wilmer'
_symmetry_space_group_name_H-M	'P1'
_symmetry_Int_Tables_number	1
_symmetry_cell_setting	triclinic
loop_
_symmetry_equiv_pos_as_xyz
  x,y,z
_cell_length_a	9.1267
_cell_length_b	15.361
_cell_length_c	17.61
_cell_angle_alpha	90
_cell_angle_beta	90
_cell_angle_gamma	93.06
loop_
_atom_site_label
_atom_site_type_symbol
_atom_site_fract_x
_atom_site_fract_y
_atom_site_fract_z
_atom_site_charge
Mof_V 	V 	0.07003	0.66758	0.98824	1.715
Mof_V 	V 	0.92997	0.83242	0.48824	1.718
Mof_V 	V 	0.92997	0.33242	0.01176	1.715
Mof_V 	V 	0.07003	0.16758	0.51176	1.718
Mof_Cd	Cd	0.17945	0.36591	0.75685	0.371
Mof_Cd	Cd	0.82055	0.13409	0.25685	0.371
Mof_Cd	Cd	0.82055	0.63409	0.24315	0.37
Mof_Cd	Cd	0.17945	0.86591	0.74315	0.37
Mof_P 	P 	0.04823	0.49277	0.8953	0.444
Mof_P 	P 	0.95177	0.00723	0.3953	0.454
Mof_P 	P 	0.95177	0.50723	0.1047	0.444
Mof_P 	P 	0.04823	0.99277	0.6047	0.454
Mof_H 	H 	0.2174	0.4711	0.9945	0.082
Mof_H 	H 	0.2996	0.4682	0.914	0.101
Mof_H 	H 	0.3093	0.5883	0.8388	0.143
Mof_H 	H 	0.4384	0.6408	0.8835	0.135
Mof_H 	H 	0.4831	0.6059	0.995	0.122
Mof_H 	H 	0.368	0.5604	0.0533	0.124
Mof_H 	H 	0.5219	0.3906	0.8077	0.014
Mof_H 	H 	0.7215	0.4903	0.8035	0.085
Mof_H 	H 	0.4845	0.6423	0.6668	0.101
Mof_H 	H 	0.2939	0.536	0.6729	0.002
Mof_H 	H 	0.1031	0.6649	0.7207	0.013
Mof_H 	H 	0.912	0.5594	0.7242	0.082
Mof_H 	H 	0.6292	0.7528	0.7435	0.084
Mof_H 	H 	0.8291	0.8525	0.7422	0.013
Mof_H 	H 	0.7826	0.0289	0.4945	0.085
Mof_H 	H 	0.7004	0.0318	0.414	0.101
Mof_H 	H 	0.6907	0.9117	0.3388	0.143
Mof_H 	H 	0.5616	0.8592	0.3835	0.135
Mof_H 	H 	0.5169	0.8941	0.495	0.125
Mof_H 	H 	0.632	0.9396	0.5533	0.125
Mof_H 	H 	0.4781	0.1094	0.3077	0.016
Mof_H 	H 	0.2785	0.0097	0.3035	0.08
Mof_H 	H 	0.5155	0.8577	0.1668	0.1
Mof_H 	H 	0.7061	0.964	0.1729	0.001
Mof_H 	H 	0.8969	0.8351	0.2207	0.015
Mof_H 	H 	0.088	0.9406	0.2242	0.081
Mof_H 	H 	0.3708	0.7472	0.2435	0.084
Mof_H 	H 	0.1709	0.6475	0.2422	0.013
Mof_H 	H 	0.7826	0.5289	0.0055	0.082
Mof_H 	H 	0.7004	0.5318	0.086	0.101
Mof_H 	H 	0.6907	0.4117	0.1612	0.143
Mof_H 	H 	0.5616	0.3592	0.1165	0.135
Mof_H 	H 	0.5169	0.3941	0.005	0.122
Mof_H 	H 	0.632	0.4396	0.9467	0.124
Mof_H 	H 	0.4781	0.6094	0.1923	0.014
Mof_H 	H 	0.2785	0.5097	0.1965	0.085
Mof_H 	H 	0.5155	0.3577	0.3332	0.101
Mof_H 	H 	0.7061	0.464	0.3271	0.002
Mof_H 	H 	0.8969	0.3351	0.2793	0.013
Mof_H 	H 	0.088	0.4406	0.2758	0.082
Mof_H 	H 	0.3708	0.2472	0.2565	0.084
Mof_H 	H 	0.1709	0.1475	0.2578	0.013
Mof_H 	H 	0.2174	0.9711	0.5055	0.085
Mof_H 	H 	0.2996	0.9682	0.586	0.101
Mof_H 	H 	0.3093	0.0883	0.6612	0.143
Mof_H 	H 	0.4384	0.1408	0.6165	0.135
Mof_H 	H 	0.4831	0.1059	0.505	0.125
Mof_H 	H 	0.368	0.0604	0.4467	0.125
Mof_H 	H 	0.5219	0.8906	0.6923	0.016
Mof_H 	H 	0.7215	0.9903	0.6965	0.08
Mof_H 	H 	0.4845	0.1423	0.8332	0.1
Mof_H 	H 	0.2939	0.036	0.8271	0.001
Mof_H 	H 	0.1031	0.1649	0.7793	0.015
Mof_H 	H 	0.912	0.0594	0.7758	0.081
Mof_H 	H 	0.6292	0.2528	0.7565	0.084
Mof_H 	H 	0.8291	0.3525	0.7578	0.013
Mof_C 	C 	0.2267	0.4991	0.944	-0.277
Mof_C 	C 	0.3306	0.6307	0.8802	-0.344
Mof_C 	C 	0.2632	0.7159	0.8603	0.417
Mof_C 	C 	0.382	0.6075	0.0151	-0.329
Mof_C 	C 	0.362	0.6953	0.053	0.412
Mof_C 	C 	0.5147	0.4424	0.7788	0.067
Mof_C 	C 	0.6341	0.5016	0.7768	-0.14
Mof_C 	C 	0.6247	0.5781	0.7351	0.063
Mof_C 	C 	0.495	0.591	0.696	-0.14
Mof_C 	C 	0.3814	0.5275	0.7005	0.077
Mof_C 	C 	0.0055	0.6827	0.726	0.053
Mof_C 	C 	0.8921	0.6193	0.7273	-0.112
Mof_C 	C 	0.7491	0.6444	0.7333	0.048
Mof_C 	C 	0.7258	0.7332	0.7391	-0.117
Mof_C 	C 	0.8455	0.7921	0.7382	0.064
Mof_C 	C 	0.7733	0.0009	0.444	-0.279
Mof_C 	C 	0.6694	0.8693	0.3802	-0.344
Mof_C 	C 	0.7368	0.7841	0.3603	0.417
Mof_C 	C 	0.618	0.8925	0.5151	-0.338
Mof_C 	C 	0.638	0.8047	0.553	0.414
Mof_C 	C 	0.4853	0.0576	0.2788	0.061
Mof_C 	C 	0.3659	0.9984	0.2768	-0.132
Mof_C 	C 	0.3753	0.9219	0.2351	0.061
Mof_C 	C 	0.505	0.909	0.196	-0.139
Mof_C 	C 	0.6186	0.9725	0.2005	0.078
Mof_C 	C 	0.9945	0.8173	0.226	0.046
Mof_C 	C 	0.1079	0.8807	0.2273	-0.107
Mof_C 	C 	0.2509	0.8556	0.2333	0.047
Mof_C 	C 	0.2742	0.7668	0.2391	-0.116
Mof_C 	C 	0.1545	0.7079	0.2382	0.063
Mof_C 	C 	0.7733	0.5009	0.056	-0.277
Mof_C 	C 	0.6694	0.3693	0.1198	-0.344
Mof_C 	C 	0.7368	0.2841	0.1397	0.417
Mof_C 	C 	0.618	0.3925	0.9849	-0.329
Mof_C 	C 	0.638	0.3047	0.947	0.412
Mof_C 	C 	0.4853	0.5576	0.2212	0.067
Mof_C 	C 	0.3659	0.4984	0.2232	-0.14
Mof_C 	C 	0.3753	0.4219	0.2649	0.063
Mof_C 	C 	0.505	0.409	0.304	-0.14
Mof_C 	C 	0.6186	0.4725	0.2995	0.077
Mof_C 	C 	0.9945	0.3173	0.274	0.053
Mof_C 	C 	0.1079	0.3807	0.2727	-0.112
Mof_C 	C 	0.2509	0.3556	0.2667	0.048
Mof_C 	C 	0.2742	0.2668	0.2609	-0.117
Mof_C 	C 	0.1545	0.2079	0.2618	0.064
Mof_C 	C 	0.2267	0.9991	0.556	-0.279
Mof_C 	C 	0.3306	0.1307	0.6198	-0.344
Mof_C 	C 	0.2632	0.2159	0.6397	0.417
Mof_C 	C 	0.382	0.1075	0.4849	-0.338
Mof_C 	C 	0.362	0.1953	0.447	0.414
Mof_C 	C 	0.5147	0.9424	0.7212	0.061
Mof_C 	C 	0.6341	0.0016	0.7232	-0.132
Mof_C 	C 	0.6247	0.0781	0.7649	0.061
Mof_C 	C 	0.495	0.091	0.804	-0.139
Mof_C 	C 	0.3814	0.0275	0.7995	0.078
Mof_C 	C 	0.0055	0.1827	0.774	0.046
Mof_C 	C 	0.8921	0.1193	0.7727	-0.107
Mof_C 	C 	0.7491	0.1444	0.7667	0.047
Mof_C 	C 	0.7258	0.2332	0.7609	-0.116
Mof_C 	C 	0.8455	0.2921	0.7618	0.063
Mof_N 	N 	0.2758	0.59255	0.95268	-0.095
Mof_N 	N 	0.3892	0.4548	0.74179	-0.155
Mof_N 	N 	0.984	0.7678	0.7319	-0.155
Mof_N 	N 	0.7242	0.90745	0.45268	-0.092
Mof_N 	N 	0.6108	0.0452	0.24179	-0.155
Mof_N 	N 	0.016	0.7322	0.2319	-0.153
Mof_N 	N 	0.7242	0.40745	0.04732	-0.095
Mof_N 	N 	0.6108	0.5452	0.25821	-0.155
Mof_N 	N 	0.016	0.2322	0.2681	-0.155
Mof_N 	N 	0.2758	0.09255	0.54732	-0.092
Mof_N 	N 	0.3892	0.9548	0.75821	-0.155
Mof_N 	N 	0.984	0.2678	0.7681	-0.153
Mof_O 	O 	0.071	0.4785	0.81133	-0.295
Mof_O 	O 	0.9509	0.4192	0.93022	-0.518
Mof_O 	O 	0.9854	0.58208	0.91232	-0.489
Mof_O 	O 	0.1549	0.73909	0.90003	-0.529
Mof_O 	O 	0.3133	0.75765	0.8044	-0.319
Mof_O 	O 	0.2358	0.72609	0.0475	-0.514
Mof_O 	O 	0.4663	0.7308	0.08834	-0.3
Mof_O 	O 	0.929	0.0215	0.31133	-0.296
Mof_O 	O 	0.0491	0.0808	0.43022	-0.526
Mof_O 	O 	0.0146	0.91792	0.41232	-0.495
Mof_O 	O 	0.8451	0.76091	0.40003	-0.527
Mof_O 	O 	0.6867	0.74235	0.3044	-0.318
Mof_O 	O 	0.7642	0.77391	0.5475	-0.519
Mof_O 	O 	0.5337	0.7692	0.58834	-0.301
Mof_O 	O 	0.929	0.5215	0.18867	-0.295
Mof_O 	O 	0.0491	0.5808	0.06978	-0.518
Mof_O 	O 	0.0146	0.41792	0.08768	-0.489
Mof_O 	O 	0.8451	0.26091	0.09997	-0.529
Mof_O 	O 	0.6867	0.24235	0.1956	-0.319
Mof_O 	O 	0.7642	0.27391	0.9525	-0.514
Mof_O 	O 	0.5337	0.2692	0.91166	-0.3
Mof_O 	O 	0.071	0.9785	0.68867	-0.296
Mof_O 	O 	0.9509	0.9192	0.56978	-0.526
Mof_O 	O 	0.9854	0.08208	0.58768	-0.495
Mof_O 	O 	0.1549	0.23909	0.59997	-0.527
Mof_O 	O 	0.3133	0.25765	0.6956	-0.318
Mof_O 	O 	0.2358	0.22609	0.4525	-0.519
Mof_O 	O 	0.4663	0.2308	0.41166	-0.301
_end
