data_functionalizedCrystal
_audit_creation_method	'EQeq! by Chris Wilmer'
_symmetry_space_group_name_H-M	'P1'
_symmetry_Int_Tables_number	1
_symmetry_cell_setting	triclinic
loop_
_symmetry_equiv_pos_as_xyz
  x,y,z
_cell_length_a	26.9768
_cell_length_b	26.9768
_cell_length_c	39.206
_cell_angle_alpha	90
_cell_angle_beta	90
_cell_angle_gamma	90
loop_
_atom_site_label
_atom_site_type_symbol
_atom_site_fract_x
_atom_site_fract_y
_atom_site_fract_z
_atom_site_charge
Mof_Cu	Cu	0.1265	0.24749	0.30212	0.937
Mof_Cu	Cu	0.09332	0.18407	0.34926	0.91
Mof_O 	O 	0.15024	0.18552	0.28192	-0.393
Mof_O 	O 	0.12634	0.13275	0.3227	-0.405
Mof_O 	O 	0.18193	0.9626	0.31755	-0.407
Mof_O 	O 	0.23647	0.9376	0.27835	-0.371
Mof_O 	O 	0.33932	0.155	0.03562	-0.41
Mof_O 	O 	0.36412	0.2337	0.03596	-0.411
Mof_O 	O 	0.30528	0.34418	0.12699	-0.4
Mof_O 	O 	0.25408	0.31516	0.16705	-0.389
Mof_O 	O 	0.06595	0.24426	0.36913	-0.407
Mof_O 	O 	0.09383	0.29808	0.3305	-0.377
Mof_O 	O 	0.96054	0.29626	0.46388	-0.405
Mof_O 	O 	0.93472	0.37521	0.46488	-0.404
Mof_O 	O 	0.15405	0.30083	0.26708	-0.402
Mof_N 	N 	0.24022	0.13246	0.18195	-0.24
Mof_H 	H 	0.2338	0.1592	0.193	0.143
Mof_N 	N 	0.2476	0.05491	0.16841	-0.089
Mof_N 	N 	0.2637	0.08202	0.14134	-0.091
Mof_N 	N 	0.0041	0.47471	0.33285	-0.086
Mof_C 	C 	0.172	0.10209	0.27623	-0.091
Mof_C 	C 	0.17558	0.05541	0.29058	0.033
Mof_H 	H 	0.1615	0.0492	0.3118	0.054
Mof_C 	C 	0.20049	0.01748	0.27314	-0.081
Mof_C 	C 	0.21537	0.07353	0.22646	-0.045
Mof_C 	C 	0.19232	0.11043	0.24435	0.015
Mof_H 	H 	0.1903	0.1419	0.2348	0.046
Mof_C 	C 	0.22013	0.02635	0.24136	0.011
Mof_H 	H 	0.2365	0.0012	0.2297	0.061
Mof_C 	C 	0.234	0.08637	0.19265	0.153
Mof_C 	C 	0.2583	0.12907	0.15075	0.154
Mof_C 	C 	0.31181	0.20639	0.07987	-0.097
Mof_C 	C 	0.30659	0.25359	0.09344	0.042
Mof_H 	H 	0.3186	0.2809	0.0815	0.048
Mof_C 	C 	0.2833	0.26018	0.125	-0.094
Mof_C 	C 	0.26675	0.21878	0.14286	0.018
Mof_H 	H 	0.2513	0.2231	0.1639	0.044
Mof_C 	C 	0.27282	0.17157	0.13008	-0.05
Mof_C 	C 	0.29476	0.16513	0.09807	0.016
Mof_H 	H 	0.298	0.1335	0.0889	0.055
Mof_C 	C 	0.14714	0.1431	0.29538	0.365
Mof_C 	C 	0.20709	0.96831	0.29096	0.356
Mof_C 	C 	0.34058	0.19794	0.04762	0.376
Mof_C 	C 	0.28031	0.31039	0.14096	0.361
Mof_C 	C 	0.0413	0.32673	0.37456	-0.088
Mof_C 	C 	0.01666	0.31556	0.40464	0.04
Mof_H 	H 	0.0186	0.2837	0.4136	0.051
Mof_C 	C 	0.98891	0.35167	0.42174	-0.097
Mof_C 	C 	0.9871	0.3992	0.40812	0.011
Mof_H 	H 	0.9698	0.424	0.4196	0.046
Mof_C 	C 	0.01052	0.41	0.37789	-0.041
Mof_C 	C 	0.03807	0.37447	0.36088	0.01
Mof_H 	H 	0.0542	0.3823	0.3406	0.063
Mof_C 	C 	0.00581	0.4613	0.36492	0.153
Mof_C 	C 	0.06946	0.28683	0.35636	0.363
Mof_C 	C 	0.95968	0.33945	0.45278	0.365
Mof_Cu	Cu	0.8735	0.75251	0.30212	0.936
Mof_Cu	Cu	0.90668	0.81593	0.34926	0.909
Mof_O 	O 	0.84976	0.81448	0.28192	-0.395
Mof_O 	O 	0.87366	0.86725	0.3227	-0.407
Mof_O 	O 	0.81807	0.0374	0.31755	-0.408
Mof_O 	O 	0.76353	0.0624	0.27835	-0.373
Mof_O 	O 	0.66068	0.845	0.03562	-0.411
Mof_O 	O 	0.63588	0.7663	0.03596	-0.413
Mof_O 	O 	0.69472	0.65582	0.12699	-0.401
Mof_O 	O 	0.74592	0.68484	0.16705	-0.39
Mof_O 	O 	0.93405	0.75574	0.36913	-0.408
Mof_O 	O 	0.90617	0.70192	0.3305	-0.378
Mof_O 	O 	0.03946	0.70374	0.46388	-0.404
Mof_O 	O 	0.06528	0.62479	0.46488	-0.405
Mof_O 	O 	0.84595	0.69917	0.26708	-0.403
Mof_N 	N 	0.75978	0.86754	0.18195	-0.24
Mof_H 	H 	0.7662	0.8408	0.193	0.143
Mof_N 	N 	0.7524	0.94509	0.16841	-0.09
Mof_N 	N 	0.7363	0.91798	0.14134	-0.091
Mof_N 	N 	0.9959	0.52529	0.33285	-0.088
Mof_C 	C 	0.828	0.89791	0.27623	-0.094
Mof_C 	C 	0.82442	0.94459	0.29058	0.036
Mof_H 	H 	0.8385	0.9508	0.3118	0.051
Mof_C 	C 	0.79951	0.98252	0.27314	-0.088
Mof_C 	C 	0.78463	0.92647	0.22646	-0.048
Mof_C 	C 	0.80768	0.88957	0.24435	0.017
Mof_H 	H 	0.8097	0.8581	0.2348	0.045
Mof_C 	C 	0.77987	0.97365	0.24136	0.014
Mof_H 	H 	0.7635	0.9988	0.2297	0.058
Mof_C 	C 	0.766	0.91363	0.19265	0.153
Mof_C 	C 	0.7417	0.87093	0.15075	0.154
Mof_C 	C 	0.68819	0.79361	0.07987	-0.097
Mof_C 	C 	0.69341	0.74641	0.09344	0.043
Mof_H 	H 	0.6814	0.7191	0.0815	0.048
Mof_C 	C 	0.7167	0.73982	0.125	-0.095
Mof_C 	C 	0.73325	0.78122	0.14286	0.018
Mof_H 	H 	0.7487	0.7769	0.1639	0.044
Mof_C 	C 	0.72718	0.82843	0.13008	-0.051
Mof_C 	C 	0.70524	0.83487	0.09807	0.016
Mof_H 	H 	0.702	0.8665	0.0889	0.054
Mof_C 	C 	0.85286	0.8569	0.29538	0.366
Mof_C 	C 	0.79291	0.03169	0.29096	0.362
Mof_C 	C 	0.65942	0.80206	0.04762	0.376
Mof_C 	C 	0.71969	0.68961	0.14096	0.361
Mof_C 	C 	0.9587	0.67327	0.37456	-0.087
Mof_C 	C 	0.98334	0.68444	0.40464	0.034
Mof_H 	H 	0.9814	0.7163	0.4136	0.051
Mof_C 	C 	0.01109	0.64833	0.42174	-0.093
Mof_C 	C 	0.0129	0.6008	0.40812	0.016
Mof_H 	H 	0.0302	0.576	0.4196	0.046
Mof_C 	C 	0.98948	0.59	0.37789	-0.046
Mof_C 	C 	0.96193	0.62553	0.36088	0.011
Mof_H 	H 	0.9458	0.6177	0.3406	0.062
Mof_C 	C 	0.99419	0.5387	0.36492	0.151
Mof_C 	C 	0.93054	0.71317	0.35636	0.363
Mof_C 	C 	0.04032	0.66055	0.45278	0.364
Mof_Cu	Cu	0.75251	0.1265	0.30212	0.936
Mof_Cu	Cu	0.81593	0.09332	0.34926	0.909
Mof_O 	O 	0.81448	0.15024	0.28192	-0.395
Mof_O 	O 	0.86725	0.12634	0.3227	-0.407
Mof_O 	O 	0.0374	0.18193	0.31755	-0.408
Mof_O 	O 	0.0624	0.23647	0.27835	-0.373
Mof_O 	O 	0.845	0.33932	0.03562	-0.411
Mof_O 	O 	0.7663	0.36412	0.03596	-0.412
Mof_O 	O 	0.65582	0.30528	0.12699	-0.401
Mof_O 	O 	0.68484	0.25408	0.16705	-0.39
Mof_O 	O 	0.75574	0.06595	0.36913	-0.408
Mof_O 	O 	0.70192	0.09383	0.3305	-0.378
Mof_O 	O 	0.70374	0.96054	0.46388	-0.406
Mof_O 	O 	0.62479	0.93472	0.46488	-0.405
Mof_O 	O 	0.69917	0.15405	0.26708	-0.403
Mof_N 	N 	0.86754	0.24022	0.18195	-0.24
Mof_H 	H 	0.8408	0.2338	0.193	0.143
Mof_N 	N 	0.94509	0.2476	0.16841	-0.089
Mof_N 	N 	0.91798	0.2637	0.14134	-0.091
Mof_N 	N 	0.52529	0.0041	0.33285	-0.086
Mof_C 	C 	0.89791	0.172	0.27623	-0.093
Mof_C 	C 	0.94459	0.17558	0.29058	0.036
Mof_H 	H 	0.9508	0.1615	0.3118	0.052
Mof_C 	C 	0.98252	0.20049	0.27314	-0.088
Mof_C 	C 	0.92647	0.21537	0.22646	-0.048
Mof_C 	C 	0.88957	0.19232	0.24435	0.017
Mof_H 	H 	0.8581	0.1903	0.2348	0.045
Mof_C 	C 	0.97365	0.22013	0.24136	0.014
Mof_H 	H 	0.9988	0.2365	0.2297	0.059
Mof_C 	C 	0.91363	0.234	0.19265	0.153
Mof_C 	C 	0.87093	0.2583	0.15075	0.154
Mof_C 	C 	0.79361	0.31181	0.07987	-0.097
Mof_C 	C 	0.74641	0.30659	0.09344	0.043
Mof_H 	H 	0.7191	0.3186	0.0815	0.048
Mof_C 	C 	0.73982	0.2833	0.125	-0.094
Mof_C 	C 	0.78122	0.26675	0.14286	0.018
Mof_H 	H 	0.7769	0.2513	0.1639	0.044
Mof_C 	C 	0.82843	0.27282	0.13008	-0.05
Mof_C 	C 	0.83487	0.29476	0.09807	0.016
Mof_H 	H 	0.8665	0.298	0.0889	0.054
Mof_C 	C 	0.8569	0.14714	0.29538	0.366
Mof_C 	C 	0.03169	0.20709	0.29096	0.362
Mof_C 	C 	0.80206	0.34058	0.04762	0.376
Mof_C 	C 	0.68961	0.28031	0.14096	0.361
Mof_C 	C 	0.67327	0.0413	0.37456	-0.088
Mof_C 	C 	0.68444	0.01666	0.40464	0.04
Mof_H 	H 	0.7163	0.0186	0.4136	0.051
Mof_C 	C 	0.64833	0.98891	0.42174	-0.097
Mof_C 	C 	0.6008	0.9871	0.40812	0.011
Mof_H 	H 	0.576	0.9698	0.4196	0.046
Mof_C 	C 	0.59	0.01052	0.37789	-0.041
Mof_C 	C 	0.62553	0.03807	0.36088	0.01
Mof_H 	H 	0.6177	0.0542	0.3406	0.063
Mof_C 	C 	0.5387	0.00581	0.36492	0.153
Mof_C 	C 	0.71317	0.06946	0.35636	0.363
Mof_C 	C 	0.66055	0.95968	0.45278	0.365
Mof_Cu	Cu	0.24749	0.8735	0.30212	0.936
Mof_Cu	Cu	0.18407	0.90668	0.34926	0.909
Mof_O 	O 	0.18552	0.84976	0.28192	-0.395
Mof_O 	O 	0.13275	0.87366	0.3227	-0.407
Mof_O 	O 	0.9626	0.81807	0.31755	-0.408
Mof_O 	O 	0.9376	0.76353	0.27835	-0.372
Mof_O 	O 	0.155	0.66068	0.03562	-0.411
Mof_O 	O 	0.2337	0.63588	0.03596	-0.412
Mof_O 	O 	0.34418	0.69472	0.12699	-0.401
Mof_O 	O 	0.31516	0.74592	0.16705	-0.39
Mof_O 	O 	0.24426	0.93405	0.36913	-0.408
Mof_O 	O 	0.29808	0.90617	0.3305	-0.378
Mof_O 	O 	0.29626	0.03946	0.46388	-0.404
Mof_O 	O 	0.37521	0.06528	0.46488	-0.405
Mof_O 	O 	0.30083	0.84595	0.26708	-0.403
Mof_N 	N 	0.13246	0.75978	0.18195	-0.24
Mof_H 	H 	0.1592	0.7662	0.193	0.143
Mof_N 	N 	0.05491	0.7524	0.16841	-0.089
Mof_N 	N 	0.08202	0.7363	0.14134	-0.091
Mof_N 	N 	0.47471	0.9959	0.33285	-0.088
Mof_C 	C 	0.10209	0.828	0.27623	-0.091
Mof_C 	C 	0.05541	0.82442	0.29058	0.033
Mof_H 	H 	0.0492	0.8385	0.3118	0.054
Mof_C 	C 	0.01748	0.79951	0.27314	-0.081
Mof_C 	C 	0.07353	0.78463	0.22646	-0.046
Mof_C 	C 	0.11043	0.80768	0.24435	0.015
Mof_H 	H 	0.1419	0.8097	0.2348	0.046
Mof_C 	C 	0.02635	0.77987	0.24136	0.011
Mof_H 	H 	0.0012	0.7635	0.2297	0.061
Mof_C 	C 	0.08637	0.766	0.19265	0.153
Mof_C 	C 	0.12907	0.7417	0.15075	0.154
Mof_C 	C 	0.20639	0.68819	0.07987	-0.097
Mof_C 	C 	0.25359	0.69341	0.09344	0.042
Mof_H 	H 	0.2809	0.6814	0.0815	0.048
Mof_C 	C 	0.26018	0.7167	0.125	-0.094
Mof_C 	C 	0.21878	0.73325	0.14286	0.018
Mof_H 	H 	0.2231	0.7487	0.1639	0.044
Mof_C 	C 	0.17157	0.72718	0.13008	-0.05
Mof_C 	C 	0.16513	0.70524	0.09807	0.016
Mof_H 	H 	0.1335	0.702	0.0889	0.054
Mof_C 	C 	0.1431	0.85286	0.29538	0.365
Mof_C 	C 	0.96831	0.79291	0.29096	0.357
Mof_C 	C 	0.19794	0.65942	0.04762	0.376
Mof_C 	C 	0.31039	0.71969	0.14096	0.361
Mof_C 	C 	0.32673	0.9587	0.37456	-0.087
Mof_C 	C 	0.31556	0.98334	0.40464	0.034
Mof_H 	H 	0.2837	0.9814	0.4136	0.051
Mof_C 	C 	0.35167	0.01109	0.42174	-0.093
Mof_C 	C 	0.3992	0.0129	0.40812	0.016
Mof_H 	H 	0.424	0.0302	0.4196	0.046
Mof_C 	C 	0.41	0.98948	0.37789	-0.046
Mof_C 	C 	0.37447	0.96193	0.36088	0.01
Mof_H 	H 	0.3823	0.9458	0.3406	0.062
Mof_C 	C 	0.4613	0.99419	0.36492	0.151
Mof_C 	C 	0.28683	0.93054	0.35636	0.362
Mof_C 	C 	0.33945	0.04032	0.45278	0.364
Mof_Cu	Cu	0.3735	0.74749	0.19788	0.936
Mof_Cu	Cu	0.40668	0.68407	0.15074	0.909
Mof_O 	O 	0.34976	0.68552	0.21808	-0.394
Mof_O 	O 	0.37366	0.63275	0.1773	-0.407
Mof_O 	O 	0.31807	0.4626	0.18245	-0.408
Mof_O 	O 	0.26353	0.4376	0.22165	-0.372
Mof_O 	O 	0.16068	0.655	0.46438	-0.408
Mof_O 	O 	0.13588	0.7337	0.46404	-0.409
Mof_O 	O 	0.19472	0.84418	0.37301	-0.4
Mof_O 	O 	0.24592	0.81516	0.33295	-0.39
Mof_O 	O 	0.43405	0.74426	0.13087	-0.409
Mof_O 	O 	0.40617	0.79808	0.1695	-0.379
Mof_O 	O 	0.53946	0.79626	0.03612	-0.408
Mof_O 	O 	0.56528	0.87521	0.03512	-0.409
Mof_O 	O 	0.34595	0.80083	0.23292	-0.403
Mof_N 	N 	0.25978	0.63246	0.31805	-0.24
Mof_H 	H 	0.2662	0.6592	0.307	0.143
Mof_N 	N 	0.2524	0.55491	0.33159	-0.089
Mof_N 	N 	0.2363	0.58202	0.35866	-0.09
Mof_N 	N 	0.4959	0.97471	0.16715	-0.088
Mof_C 	C 	0.328	0.60209	0.22377	-0.092
Mof_C 	C 	0.32442	0.55541	0.20942	0.035
Mof_H 	H 	0.3385	0.5492	0.1882	0.052
Mof_C 	C 	0.29951	0.51748	0.22686	-0.084
Mof_C 	C 	0.28463	0.57353	0.27354	-0.047
Mof_C 	C 	0.30768	0.61043	0.25565	0.016
Mof_H 	H 	0.3097	0.6419	0.2652	0.046
Mof_C 	C 	0.27987	0.52635	0.25864	0.012
Mof_H 	H 	0.2635	0.5012	0.2703	0.06
Mof_C 	C 	0.266	0.58637	0.30735	0.153
Mof_C 	C 	0.2417	0.62907	0.34925	0.154
Mof_C 	C 	0.18819	0.70639	0.42013	-0.095
Mof_C 	C 	0.19341	0.75359	0.40656	0.042
Mof_H 	H 	0.1814	0.7809	0.4185	0.05
Mof_C 	C 	0.2167	0.76018	0.375	-0.093
Mof_C 	C 	0.23325	0.71878	0.35714	0.017
Mof_H 	H 	0.2487	0.7231	0.3361	0.044
Mof_C 	C 	0.22718	0.67157	0.36992	-0.049
Mof_C 	C 	0.20524	0.66513	0.40193	0.016
Mof_H 	H 	0.202	0.6335	0.4111	0.056
Mof_C 	C 	0.35286	0.6431	0.20462	0.365
Mof_C 	C 	0.29291	0.46831	0.20904	0.359
Mof_C 	C 	0.15942	0.69794	0.45238	0.375
Mof_C 	C 	0.21969	0.81039	0.35904	0.361
Mof_C 	C 	0.4587	0.82673	0.12544	-0.089
Mof_C 	C 	0.48334	0.81556	0.09536	0.038
Mof_H 	H 	0.4814	0.7837	0.0864	0.05
Mof_C 	C 	0.51109	0.85167	0.07826	-0.097
Mof_C 	C 	0.5129	0.8992	0.09188	0.014
Mof_H 	H 	0.5302	0.924	0.0804	0.044
Mof_C 	C 	0.48948	0.91	0.12211	-0.044
Mof_C 	C 	0.46193	0.87447	0.13912	0.01
Mof_H 	H 	0.4458	0.8823	0.1594	0.062
Mof_C 	C 	0.49419	0.9613	0.13508	0.151
Mof_C 	C 	0.43054	0.78683	0.14364	0.363
Mof_C 	C 	0.54032	0.83945	0.04722	0.365
Mof_Cu	Cu	0.6265	0.25251	0.19788	0.936
Mof_Cu	Cu	0.59332	0.31593	0.15074	0.909
Mof_O 	O 	0.65024	0.31448	0.21808	-0.394
Mof_O 	O 	0.62634	0.36725	0.1773	-0.407
Mof_O 	O 	0.68193	0.5374	0.18245	-0.408
Mof_O 	O 	0.73647	0.5624	0.22165	-0.372
Mof_O 	O 	0.83932	0.345	0.46438	-0.408
Mof_O 	O 	0.86412	0.2663	0.46404	-0.409
Mof_O 	O 	0.80528	0.15582	0.37301	-0.4
Mof_O 	O 	0.75408	0.18484	0.33295	-0.39
Mof_O 	O 	0.56595	0.25574	0.13087	-0.409
Mof_O 	O 	0.59383	0.20192	0.1695	-0.378
Mof_O 	O 	0.46054	0.20374	0.03612	-0.408
Mof_O 	O 	0.43472	0.12479	0.03512	-0.408
Mof_O 	O 	0.65405	0.19917	0.23292	-0.403
Mof_N 	N 	0.74022	0.36754	0.31805	-0.24
Mof_H 	H 	0.7338	0.3408	0.307	0.143
Mof_N 	N 	0.7476	0.44509	0.33159	-0.089
Mof_N 	N 	0.7637	0.41798	0.35866	-0.09
Mof_N 	N 	0.5041	0.02529	0.16715	-0.086
Mof_C 	C 	0.672	0.39791	0.22377	-0.092
Mof_C 	C 	0.67558	0.44459	0.20942	0.035
Mof_H 	H 	0.6615	0.4508	0.1882	0.052
Mof_C 	C 	0.70049	0.48252	0.22686	-0.085
Mof_C 	C 	0.71537	0.42647	0.27354	-0.047
Mof_C 	C 	0.69232	0.38957	0.25565	0.016
Mof_H 	H 	0.6903	0.3581	0.2652	0.046
Mof_C 	C 	0.72013	0.47365	0.25864	0.012
Mof_H 	H 	0.7365	0.4988	0.2703	0.06
Mof_C 	C 	0.734	0.41363	0.30735	0.153
Mof_C 	C 	0.7583	0.37093	0.34925	0.154
Mof_C 	C 	0.81181	0.29361	0.42013	-0.095
Mof_C 	C 	0.80659	0.24641	0.40656	0.042
Mof_H 	H 	0.8186	0.2191	0.4185	0.05
Mof_C 	C 	0.7833	0.23982	0.375	-0.093
Mof_C 	C 	0.76675	0.28122	0.35714	0.017
Mof_H 	H 	0.7513	0.2769	0.3361	0.044
Mof_C 	C 	0.77282	0.32843	0.36992	-0.049
Mof_C 	C 	0.79476	0.33487	0.40193	0.016
Mof_H 	H 	0.798	0.3665	0.4111	0.056
Mof_C 	C 	0.64714	0.3569	0.20462	0.365
Mof_C 	C 	0.70709	0.53169	0.20904	0.359
Mof_C 	C 	0.84058	0.30206	0.45238	0.375
Mof_C 	C 	0.78031	0.18961	0.35904	0.361
Mof_C 	C 	0.5413	0.17327	0.12544	-0.088
Mof_C 	C 	0.51666	0.18444	0.09536	0.038
Mof_H 	H 	0.5186	0.2163	0.0864	0.05
Mof_C 	C 	0.48891	0.14833	0.07826	-0.096
Mof_C 	C 	0.4871	0.1008	0.09188	0.014
Mof_H 	H 	0.4698	0.076	0.0804	0.045
Mof_C 	C 	0.51052	0.09	0.12211	-0.044
Mof_C 	C 	0.53807	0.12553	0.13912	0.011
Mof_H 	H 	0.5542	0.1177	0.1594	0.063
Mof_C 	C 	0.50581	0.0387	0.13508	0.153
Mof_C 	C 	0.56946	0.21317	0.14364	0.363
Mof_C 	C 	0.45968	0.16055	0.04722	0.365
Mof_Cu	Cu	0.74749	0.6265	0.19788	0.936
Mof_Cu	Cu	0.68407	0.59332	0.15074	0.909
Mof_O 	O 	0.68552	0.65024	0.21808	-0.394
Mof_O 	O 	0.63275	0.62634	0.1773	-0.407
Mof_O 	O 	0.4626	0.68193	0.18245	-0.408
Mof_O 	O 	0.4376	0.73647	0.22165	-0.372
Mof_O 	O 	0.655	0.83932	0.46438	-0.408
Mof_O 	O 	0.7337	0.86412	0.46404	-0.409
Mof_O 	O 	0.84418	0.80528	0.37301	-0.4
Mof_O 	O 	0.81516	0.75408	0.33295	-0.39
Mof_O 	O 	0.74426	0.56595	0.13087	-0.409
Mof_O 	O 	0.79808	0.59383	0.1695	-0.379
Mof_O 	O 	0.79626	0.46054	0.03612	-0.408
Mof_O 	O 	0.87521	0.43472	0.03512	-0.409
Mof_O 	O 	0.80083	0.65405	0.23292	-0.403
Mof_N 	N 	0.63246	0.74022	0.31805	-0.24
Mof_H 	H 	0.6592	0.7338	0.307	0.143
Mof_N 	N 	0.55491	0.7476	0.33159	-0.089
Mof_N 	N 	0.58202	0.7637	0.35866	-0.09
Mof_N 	N 	0.97471	0.5041	0.16715	-0.088
Mof_C 	C 	0.60209	0.672	0.22377	-0.092
Mof_C 	C 	0.55541	0.67558	0.20942	0.035
Mof_H 	H 	0.5492	0.6615	0.1882	0.052
Mof_C 	C 	0.51748	0.70049	0.22686	-0.085
Mof_C 	C 	0.57353	0.71537	0.27354	-0.047
Mof_C 	C 	0.61043	0.69232	0.25565	0.016
Mof_H 	H 	0.6419	0.6903	0.2652	0.046
Mof_C 	C 	0.52635	0.72013	0.25864	0.012
Mof_H 	H 	0.5012	0.7365	0.2703	0.06
Mof_C 	C 	0.58637	0.734	0.30735	0.153
Mof_C 	C 	0.62907	0.7583	0.34925	0.154
Mof_C 	C 	0.70639	0.81181	0.42013	-0.095
Mof_C 	C 	0.75359	0.80659	0.40656	0.042
Mof_H 	H 	0.7809	0.8186	0.4185	0.049
Mof_C 	C 	0.76018	0.7833	0.375	-0.093
Mof_C 	C 	0.71878	0.76675	0.35714	0.017
Mof_H 	H 	0.7231	0.7513	0.3361	0.044
Mof_C 	C 	0.67157	0.77282	0.36992	-0.049
Mof_C 	C 	0.66513	0.79476	0.40193	0.016
Mof_H 	H 	0.6335	0.798	0.4111	0.055
Mof_C 	C 	0.6431	0.64714	0.20462	0.365
Mof_C 	C 	0.46831	0.70709	0.20904	0.359
Mof_C 	C 	0.69794	0.84058	0.45238	0.375
Mof_C 	C 	0.81039	0.78031	0.35904	0.361
Mof_C 	C 	0.82673	0.5413	0.12544	-0.089
Mof_C 	C 	0.81556	0.51666	0.09536	0.038
Mof_H 	H 	0.7837	0.5186	0.0864	0.05
Mof_C 	C 	0.85167	0.48891	0.07826	-0.097
Mof_C 	C 	0.8992	0.4871	0.09188	0.014
Mof_H 	H 	0.924	0.4698	0.0804	0.044
Mof_C 	C 	0.91	0.51052	0.12211	-0.044
Mof_C 	C 	0.87447	0.53807	0.13912	0.01
Mof_H 	H 	0.8823	0.5542	0.1594	0.062
Mof_C 	C 	0.9613	0.50581	0.13508	0.151
Mof_C 	C 	0.78683	0.56946	0.14364	0.363
Mof_C 	C 	0.83945	0.45968	0.04722	0.365
Mof_Cu	Cu	0.25251	0.3735	0.19788	0.936
Mof_Cu	Cu	0.31593	0.40668	0.15074	0.909
Mof_O 	O 	0.31448	0.34976	0.21808	-0.394
Mof_O 	O 	0.36725	0.37366	0.1773	-0.407
Mof_O 	O 	0.5374	0.31807	0.18245	-0.408
Mof_O 	O 	0.5624	0.26353	0.22165	-0.372
Mof_O 	O 	0.345	0.16068	0.46438	-0.408
Mof_O 	O 	0.2663	0.13588	0.46404	-0.409
Mof_O 	O 	0.15582	0.19472	0.37301	-0.399
Mof_O 	O 	0.18484	0.24592	0.33295	-0.39
Mof_O 	O 	0.25574	0.43405	0.13087	-0.409
Mof_O 	O 	0.20192	0.40617	0.1695	-0.378
Mof_O 	O 	0.20374	0.53946	0.03612	-0.408
Mof_O 	O 	0.12479	0.56528	0.03512	-0.408
Mof_O 	O 	0.19917	0.34595	0.23292	-0.403
Mof_N 	N 	0.36754	0.25978	0.31805	-0.24
Mof_H 	H 	0.3408	0.2662	0.307	0.143
Mof_N 	N 	0.44509	0.2524	0.33159	-0.089
Mof_N 	N 	0.41798	0.2363	0.35866	-0.09
Mof_N 	N 	0.02529	0.4959	0.16715	-0.086
Mof_C 	C 	0.39791	0.328	0.22377	-0.092
Mof_C 	C 	0.44459	0.32442	0.20942	0.035
Mof_H 	H 	0.4508	0.3385	0.1882	0.052
Mof_C 	C 	0.48252	0.29951	0.22686	-0.084
Mof_C 	C 	0.42647	0.28463	0.27354	-0.047
Mof_C 	C 	0.38957	0.30768	0.25565	0.016
Mof_H 	H 	0.3581	0.3097	0.2652	0.046
Mof_C 	C 	0.47365	0.27987	0.25864	0.012
Mof_H 	H 	0.4988	0.2635	0.2703	0.06
Mof_C 	C 	0.41363	0.266	0.30735	0.153
Mof_C 	C 	0.37093	0.2417	0.34925	0.154
Mof_C 	C 	0.29361	0.18819	0.42013	-0.095
Mof_C 	C 	0.24641	0.19341	0.40656	0.042
Mof_H 	H 	0.2191	0.1814	0.4185	0.05
Mof_C 	C 	0.23982	0.2167	0.375	-0.093
Mof_C 	C 	0.28122	0.23325	0.35714	0.017
Mof_H 	H 	0.2769	0.2487	0.3361	0.044
Mof_C 	C 	0.32843	0.22718	0.36992	-0.049
Mof_C 	C 	0.33487	0.20524	0.40193	0.015
Mof_H 	H 	0.3665	0.202	0.4111	0.056
Mof_C 	C 	0.3569	0.35286	0.20462	0.365
Mof_C 	C 	0.53169	0.29291	0.20904	0.359
Mof_C 	C 	0.30206	0.15942	0.45238	0.375
Mof_C 	C 	0.18961	0.21969	0.35904	0.361
Mof_C 	C 	0.17327	0.4587	0.12544	-0.088
Mof_C 	C 	0.18444	0.48334	0.09536	0.038
Mof_H 	H 	0.2163	0.4814	0.0864	0.05
Mof_C 	C 	0.14833	0.51109	0.07826	-0.096
Mof_C 	C 	0.1008	0.5129	0.09188	0.014
Mof_H 	H 	0.076	0.5302	0.0804	0.045
Mof_C 	C 	0.09	0.48948	0.12211	-0.044
Mof_C 	C 	0.12553	0.46193	0.13912	0.011
Mof_H 	H 	0.1177	0.4458	0.1594	0.063
Mof_C 	C 	0.0387	0.49419	0.13508	0.153
Mof_C 	C 	0.21317	0.43054	0.14364	0.363
Mof_C 	C 	0.16055	0.54032	0.04722	0.365
Mof_Cu	Cu	0.8735	0.75251	0.69788	0.936
Mof_Cu	Cu	0.90668	0.81593	0.65074	0.909
Mof_O 	O 	0.84976	0.81448	0.71808	-0.395
Mof_O 	O 	0.87366	0.86725	0.6773	-0.407
Mof_O 	O 	0.81807	0.0374	0.68245	-0.408
Mof_O 	O 	0.76353	0.0624	0.72165	-0.372
Mof_O 	O 	0.66068	0.845	0.96438	-0.402
Mof_O 	O 	0.63588	0.7663	0.96404	-0.403
Mof_O 	O 	0.69472	0.65582	0.87301	-0.399
Mof_O 	O 	0.74592	0.68484	0.83295	-0.39
Mof_O 	O 	0.93405	0.75574	0.63087	-0.408
Mof_O 	O 	0.90617	0.70192	0.6695	-0.379
Mof_O 	O 	0.03946	0.70374	0.53612	-0.404
Mof_O 	O 	0.06528	0.62479	0.53512	-0.405
Mof_O 	O 	0.84595	0.69917	0.73292	-0.403
Mof_N 	N 	0.75978	0.86754	0.81805	-0.24
Mof_H 	H 	0.7662	0.8408	0.807	0.143
Mof_N 	N 	0.7524	0.94509	0.83159	-0.089
Mof_N 	N 	0.7363	0.91798	0.85866	-0.09
Mof_N 	N 	0.9959	0.52529	0.66715	-0.088
Mof_C 	C 	0.828	0.89791	0.72377	-0.094
Mof_C 	C 	0.82442	0.94459	0.70942	0.036
Mof_H 	H 	0.8385	0.9508	0.6882	0.051
Mof_C 	C 	0.79951	0.98252	0.72686	-0.088
Mof_C 	C 	0.78463	0.92647	0.77354	-0.048
Mof_C 	C 	0.80768	0.88957	0.75565	0.017
Mof_H 	H 	0.8097	0.8581	0.7652	0.045
Mof_C 	C 	0.77987	0.97365	0.75864	0.014
Mof_H 	H 	0.7635	0.9988	0.7703	0.059
Mof_C 	C 	0.766	0.91363	0.80735	0.154
Mof_C 	C 	0.7417	0.87093	0.84925	0.154
Mof_C 	C 	0.68819	0.79361	0.92013	-0.093
Mof_C 	C 	0.69341	0.74641	0.90656	0.04
Mof_H 	H 	0.6814	0.7191	0.9185	0.051
Mof_C 	C 	0.7167	0.73982	0.875	-0.092
Mof_C 	C 	0.73325	0.78122	0.85714	0.016
Mof_H 	H 	0.7487	0.7769	0.8361	0.045
Mof_C 	C 	0.72718	0.82843	0.86992	-0.048
Mof_C 	C 	0.70524	0.83487	0.90193	0.014
Mof_H 	H 	0.702	0.8665	0.9111	0.057
Mof_C 	C 	0.85286	0.8569	0.70462	0.366
Mof_C 	C 	0.79291	0.03169	0.70904	0.362
Mof_C 	C 	0.65942	0.80206	0.95238	0.374
Mof_C 	C 	0.71969	0.68961	0.85904	0.361
Mof_C 	C 	0.9587	0.67327	0.62544	-0.087
Mof_C 	C 	0.98334	0.68444	0.59536	0.034
Mof_H 	H 	0.9814	0.7163	0.5864	0.051
Mof_C 	C 	0.01109	0.64833	0.57826	-0.093
Mof_C 	C 	0.0129	0.6008	0.59188	0.016
Mof_H 	H 	0.0302	0.576	0.5804	0.046
Mof_C 	C 	0.98948	0.59	0.62211	-0.046
Mof_C 	C 	0.96193	0.62553	0.63912	0.01
Mof_H 	H 	0.9458	0.6177	0.6594	0.062
Mof_C 	C 	0.99419	0.5387	0.63508	0.151
Mof_C 	C 	0.93054	0.71317	0.64364	0.362
Mof_C 	C 	0.04032	0.66055	0.54722	0.364
Mof_Cu	Cu	0.1265	0.24749	0.69788	0.936
Mof_Cu	Cu	0.09332	0.18407	0.65074	0.909
Mof_O 	O 	0.15024	0.18552	0.71808	-0.394
Mof_O 	O 	0.12634	0.13275	0.6773	-0.406
Mof_O 	O 	0.18193	0.9626	0.68245	-0.408
Mof_O 	O 	0.23647	0.9376	0.72165	-0.372
Mof_O 	O 	0.33932	0.155	0.96438	-0.401
Mof_O 	O 	0.36412	0.2337	0.96404	-0.403
Mof_O 	O 	0.30528	0.34418	0.87301	-0.399
Mof_O 	O 	0.25408	0.31516	0.83295	-0.389
Mof_O 	O 	0.06595	0.24426	0.63087	-0.408
Mof_O 	O 	0.09383	0.29808	0.6695	-0.378
Mof_O 	O 	0.96054	0.29626	0.53612	-0.406
Mof_O 	O 	0.93472	0.37521	0.53512	-0.405
Mof_O 	O 	0.15405	0.30083	0.73292	-0.403
Mof_N 	N 	0.24022	0.13246	0.81805	-0.24
Mof_H 	H 	0.2338	0.1592	0.807	0.144
Mof_N 	N 	0.2476	0.05491	0.83159	-0.088
Mof_N 	N 	0.2637	0.08202	0.85866	-0.089
Mof_N 	N 	0.0041	0.47471	0.66715	-0.086
Mof_C 	C 	0.172	0.10209	0.72377	-0.091
Mof_C 	C 	0.17558	0.05541	0.70942	0.033
Mof_H 	H 	0.1615	0.0492	0.6882	0.054
Mof_C 	C 	0.20049	0.01748	0.72686	-0.081
Mof_C 	C 	0.21537	0.07353	0.77354	-0.045
Mof_C 	C 	0.19232	0.11043	0.75565	0.015
Mof_H 	H 	0.1903	0.1419	0.7652	0.046
Mof_C 	C 	0.22013	0.02635	0.75864	0.011
Mof_H 	H 	0.2365	0.0012	0.7703	0.061
Mof_C 	C 	0.234	0.08637	0.80735	0.153
Mof_C 	C 	0.2583	0.12907	0.84925	0.154
Mof_C 	C 	0.31181	0.20639	0.92013	-0.092
Mof_C 	C 	0.30659	0.25359	0.90656	0.04
Mof_H 	H 	0.3186	0.2809	0.9185	0.051
Mof_C 	C 	0.2833	0.26018	0.875	-0.091
Mof_C 	C 	0.26675	0.21878	0.85714	0.016
Mof_H 	H 	0.2513	0.2231	0.8361	0.045
Mof_C 	C 	0.27282	0.17157	0.86992	-0.048
Mof_C 	C 	0.29476	0.16513	0.90193	0.014
Mof_H 	H 	0.298	0.1335	0.9111	0.057
Mof_C 	C 	0.14714	0.1431	0.70462	0.365
Mof_C 	C 	0.20709	0.96831	0.70904	0.356
Mof_C 	C 	0.34058	0.19794	0.95238	0.373
Mof_C 	C 	0.28031	0.31039	0.85904	0.361
Mof_C 	C 	0.0413	0.32673	0.62544	-0.088
Mof_C 	C 	0.01666	0.31556	0.59536	0.04
Mof_H 	H 	0.0186	0.2837	0.5864	0.051
Mof_C 	C 	0.98891	0.35167	0.57826	-0.097
Mof_C 	C 	0.9871	0.3992	0.59188	0.011
Mof_H 	H 	0.9698	0.424	0.5804	0.046
Mof_C 	C 	0.01052	0.41	0.62211	-0.041
Mof_C 	C 	0.03807	0.37447	0.63912	0.01
Mof_H 	H 	0.0542	0.3823	0.6594	0.063
Mof_C 	C 	0.00581	0.4613	0.63508	0.153
Mof_C 	C 	0.06946	0.28683	0.64364	0.363
Mof_C 	C 	0.95968	0.33945	0.54722	0.365
Mof_Cu	Cu	0.24749	0.8735	0.69788	0.936
Mof_Cu	Cu	0.18407	0.90668	0.65074	0.909
Mof_O 	O 	0.18552	0.84976	0.71808	-0.394
Mof_O 	O 	0.13275	0.87366	0.6773	-0.407
Mof_O 	O 	0.9626	0.81807	0.68245	-0.408
Mof_O 	O 	0.9376	0.76353	0.72165	-0.372
Mof_O 	O 	0.155	0.66068	0.96438	-0.401
Mof_O 	O 	0.2337	0.63588	0.96404	-0.403
Mof_O 	O 	0.34418	0.69472	0.87301	-0.399
Mof_O 	O 	0.31516	0.74592	0.83295	-0.39
Mof_O 	O 	0.24426	0.93405	0.63087	-0.408
Mof_O 	O 	0.29808	0.90617	0.6695	-0.379
Mof_O 	O 	0.29626	0.03946	0.53612	-0.404
Mof_O 	O 	0.37521	0.06528	0.53512	-0.405
Mof_O 	O 	0.30083	0.84595	0.73292	-0.403
Mof_N 	N 	0.13246	0.75978	0.81805	-0.24
Mof_H 	H 	0.1592	0.7662	0.807	0.143
Mof_N 	N 	0.05491	0.7524	0.83159	-0.088
Mof_N 	N 	0.08202	0.7363	0.85866	-0.089
Mof_N 	N 	0.47471	0.9959	0.66715	-0.088
Mof_C 	C 	0.10209	0.828	0.72377	-0.091
Mof_C 	C 	0.05541	0.82442	0.70942	0.033
Mof_H 	H 	0.0492	0.8385	0.6882	0.054
Mof_C 	C 	0.01748	0.79951	0.72686	-0.081
Mof_C 	C 	0.07353	0.78463	0.77354	-0.045
Mof_C 	C 	0.11043	0.80768	0.75565	0.015
Mof_H 	H 	0.1419	0.8097	0.7652	0.046
Mof_C 	C 	0.02635	0.77987	0.75864	0.011
Mof_H 	H 	0.0012	0.7635	0.7703	0.061
Mof_C 	C 	0.08637	0.766	0.80735	0.153
Mof_C 	C 	0.12907	0.7417	0.84925	0.154
Mof_C 	C 	0.20639	0.68819	0.92013	-0.092
Mof_C 	C 	0.25359	0.69341	0.90656	0.04
Mof_H 	H 	0.2809	0.6814	0.9185	0.051
Mof_C 	C 	0.26018	0.7167	0.875	-0.092
Mof_C 	C 	0.21878	0.73325	0.85714	0.016
Mof_H 	H 	0.2231	0.7487	0.8361	0.045
Mof_C 	C 	0.17157	0.72718	0.86992	-0.048
Mof_C 	C 	0.16513	0.70524	0.90193	0.014
Mof_H 	H 	0.1335	0.702	0.9111	0.057
Mof_C 	C 	0.1431	0.85286	0.70462	0.365
Mof_C 	C 	0.96831	0.79291	0.70904	0.356
Mof_C 	C 	0.19794	0.65942	0.95238	0.373
Mof_C 	C 	0.31039	0.71969	0.85904	0.361
Mof_C 	C 	0.32673	0.9587	0.62544	-0.087
Mof_C 	C 	0.31556	0.98334	0.59536	0.034
Mof_H 	H 	0.2837	0.9814	0.5864	0.051
Mof_C 	C 	0.35167	0.01109	0.57826	-0.093
Mof_C 	C 	0.3992	0.0129	0.59188	0.016
Mof_H 	H 	0.424	0.0302	0.5804	0.046
Mof_C 	C 	0.41	0.98948	0.62211	-0.046
Mof_C 	C 	0.37447	0.96193	0.63912	0.01
Mof_H 	H 	0.3823	0.9458	0.6594	0.062
Mof_C 	C 	0.4613	0.99419	0.63508	0.151
Mof_C 	C 	0.28683	0.93054	0.64364	0.362
Mof_C 	C 	0.33945	0.04032	0.54722	0.364
Mof_Cu	Cu	0.75251	0.1265	0.69788	0.936
Mof_Cu	Cu	0.81593	0.09332	0.65074	0.909
Mof_O 	O 	0.81448	0.15024	0.71808	-0.394
Mof_O 	O 	0.86725	0.12634	0.6773	-0.407
Mof_O 	O 	0.0374	0.18193	0.68245	-0.408
Mof_O 	O 	0.0624	0.23647	0.72165	-0.372
Mof_O 	O 	0.845	0.33932	0.96438	-0.402
Mof_O 	O 	0.7663	0.36412	0.96404	-0.403
Mof_O 	O 	0.65582	0.30528	0.87301	-0.399
Mof_O 	O 	0.68484	0.25408	0.83295	-0.39
Mof_O 	O 	0.75574	0.06595	0.63087	-0.408
Mof_O 	O 	0.70192	0.09383	0.6695	-0.378
Mof_O 	O 	0.70374	0.96054	0.53612	-0.406
Mof_O 	O 	0.62479	0.93472	0.53512	-0.405
Mof_O 	O 	0.69917	0.15405	0.73292	-0.403
Mof_N 	N 	0.86754	0.24022	0.81805	-0.24
Mof_H 	H 	0.8408	0.2338	0.807	0.144
Mof_N 	N 	0.94509	0.2476	0.83159	-0.089
Mof_N 	N 	0.91798	0.2637	0.85866	-0.09
Mof_N 	N 	0.52529	0.0041	0.66715	-0.086
Mof_C 	C 	0.89791	0.172	0.72377	-0.093
Mof_C 	C 	0.94459	0.17558	0.70942	0.036
Mof_H 	H 	0.9508	0.1615	0.6882	0.052
Mof_C 	C 	0.98252	0.20049	0.72686	-0.088
Mof_C 	C 	0.92647	0.21537	0.77354	-0.047
Mof_C 	C 	0.88957	0.19232	0.75565	0.017
Mof_H 	H 	0.8581	0.1903	0.7652	0.046
Mof_C 	C 	0.97365	0.22013	0.75864	0.014
Mof_H 	H 	0.9988	0.2365	0.7703	0.059
Mof_C 	C 	0.91363	0.234	0.80735	0.154
Mof_C 	C 	0.87093	0.2583	0.84925	0.154
Mof_C 	C 	0.79361	0.31181	0.92013	-0.092
Mof_C 	C 	0.74641	0.30659	0.90656	0.04
Mof_H 	H 	0.7191	0.3186	0.9185	0.051
Mof_C 	C 	0.73982	0.2833	0.875	-0.092
Mof_C 	C 	0.78122	0.26675	0.85714	0.016
Mof_H 	H 	0.7769	0.2513	0.8361	0.045
Mof_C 	C 	0.82843	0.27282	0.86992	-0.048
Mof_C 	C 	0.83487	0.29476	0.90193	0.014
Mof_H 	H 	0.8665	0.298	0.9111	0.057
Mof_C 	C 	0.8569	0.14714	0.70462	0.366
Mof_C 	C 	0.03169	0.20709	0.70904	0.362
Mof_C 	C 	0.80206	0.34058	0.95238	0.374
Mof_C 	C 	0.68961	0.28031	0.85904	0.361
Mof_C 	C 	0.67327	0.0413	0.62544	-0.088
Mof_C 	C 	0.68444	0.01666	0.59536	0.04
Mof_H 	H 	0.7163	0.0186	0.5864	0.051
Mof_C 	C 	0.64833	0.98891	0.57826	-0.097
Mof_C 	C 	0.6008	0.9871	0.59188	0.011
Mof_H 	H 	0.576	0.9698	0.5804	0.046
Mof_C 	C 	0.59	0.01052	0.62211	-0.041
Mof_C 	C 	0.62553	0.03807	0.63912	0.01
Mof_H 	H 	0.6177	0.0542	0.6594	0.063
Mof_C 	C 	0.5387	0.00581	0.63508	0.153
Mof_C 	C 	0.71317	0.06946	0.64364	0.363
Mof_C 	C 	0.66055	0.95968	0.54722	0.365
Mof_Cu	Cu	0.6265	0.25251	0.80212	0.936
Mof_Cu	Cu	0.59332	0.31593	0.84926	0.909
Mof_O 	O 	0.65024	0.31448	0.78192	-0.394
Mof_O 	O 	0.62634	0.36725	0.8227	-0.406
Mof_O 	O 	0.68193	0.5374	0.81755	-0.408
Mof_O 	O 	0.73647	0.5624	0.77835	-0.372
Mof_O 	O 	0.83932	0.345	0.53562	-0.408
Mof_O 	O 	0.86412	0.2663	0.53596	-0.409
Mof_O 	O 	0.80528	0.15582	0.62699	-0.4
Mof_O 	O 	0.75408	0.18484	0.66705	-0.39
Mof_O 	O 	0.56595	0.25574	0.86913	-0.407
Mof_O 	O 	0.59383	0.20192	0.8305	-0.378
Mof_O 	O 	0.46054	0.20374	0.96388	-0.399
Mof_O 	O 	0.43472	0.12479	0.96488	-0.398
Mof_O 	O 	0.65405	0.19917	0.76708	-0.403
Mof_N 	N 	0.74022	0.36754	0.68195	-0.24
Mof_H 	H 	0.7338	0.3408	0.693	0.143
Mof_N 	N 	0.7476	0.44509	0.66841	-0.089
Mof_N 	N 	0.7637	0.41798	0.64134	-0.09
Mof_N 	N 	0.5041	0.02529	0.83285	-0.086
Mof_C 	C 	0.672	0.39791	0.77623	-0.092
Mof_C 	C 	0.67558	0.44459	0.79058	0.034
Mof_H 	H 	0.6615	0.4508	0.8118	0.053
Mof_C 	C 	0.70049	0.48252	0.77314	-0.084
Mof_C 	C 	0.71537	0.42647	0.72646	-0.046
Mof_C 	C 	0.69232	0.38957	0.74435	0.016
Mof_H 	H 	0.6903	0.3581	0.7348	0.046
Mof_C 	C 	0.72013	0.47365	0.74136	0.012
Mof_H 	H 	0.7365	0.4988	0.7297	0.06
Mof_C 	C 	0.734	0.41363	0.69265	0.153
Mof_C 	C 	0.7583	0.37093	0.65075	0.154
Mof_C 	C 	0.81181	0.29361	0.57987	-0.095
Mof_C 	C 	0.80659	0.24641	0.59344	0.042
Mof_H 	H 	0.8186	0.2191	0.5815	0.05
Mof_C 	C 	0.7833	0.23982	0.625	-0.093
Mof_C 	C 	0.76675	0.28122	0.64286	0.017
Mof_H 	H 	0.7513	0.2769	0.6639	0.044
Mof_C 	C 	0.77282	0.32843	0.63008	-0.049
Mof_C 	C 	0.79476	0.33487	0.59807	0.016
Mof_H 	H 	0.798	0.3665	0.5889	0.055
Mof_C 	C 	0.64714	0.3569	0.79538	0.365
Mof_C 	C 	0.70709	0.53169	0.79096	0.359
Mof_C 	C 	0.84058	0.30206	0.54762	0.375
Mof_C 	C 	0.78031	0.18961	0.64096	0.361
Mof_C 	C 	0.5413	0.17327	0.87456	-0.086
Mof_C 	C 	0.51666	0.18444	0.90464	0.036
Mof_H 	H 	0.5186	0.2163	0.9136	0.053
Mof_C 	C 	0.48891	0.14833	0.92174	-0.092
Mof_C 	C 	0.4871	0.1008	0.90812	0.012
Mof_H 	H 	0.4698	0.076	0.9196	0.048
Mof_C 	C 	0.51052	0.09	0.87789	-0.042
Mof_C 	C 	0.53807	0.12553	0.86088	0.01
Mof_H 	H 	0.5542	0.1177	0.8406	0.063
Mof_C 	C 	0.50581	0.0387	0.86492	0.153
Mof_C 	C 	0.56946	0.21317	0.85636	0.362
Mof_C 	C 	0.45968	0.16055	0.95278	0.363
Mof_Cu	Cu	0.3735	0.74749	0.80212	0.936
Mof_Cu	Cu	0.40668	0.68407	0.84926	0.909
Mof_O 	O 	0.34976	0.68552	0.78192	-0.394
Mof_O 	O 	0.37366	0.63275	0.8227	-0.406
Mof_O 	O 	0.31807	0.4626	0.81755	-0.408
Mof_O 	O 	0.26353	0.4376	0.77835	-0.372
Mof_O 	O 	0.16068	0.655	0.53562	-0.408
Mof_O 	O 	0.13588	0.7337	0.53596	-0.409
Mof_O 	O 	0.19472	0.84418	0.62699	-0.4
Mof_O 	O 	0.24592	0.81516	0.66705	-0.39
Mof_O 	O 	0.43405	0.74426	0.86913	-0.407
Mof_O 	O 	0.40617	0.79808	0.8305	-0.378
Mof_O 	O 	0.53946	0.79626	0.96388	-0.399
Mof_O 	O 	0.56528	0.87521	0.96488	-0.399
Mof_O 	O 	0.34595	0.80083	0.76708	-0.403
Mof_N 	N 	0.25978	0.63246	0.68195	-0.24
Mof_H 	H 	0.2662	0.6592	0.693	0.143
Mof_N 	N 	0.2524	0.55491	0.66841	-0.089
Mof_N 	N 	0.2363	0.58202	0.64134	-0.09
Mof_N 	N 	0.4959	0.97471	0.83285	-0.088
Mof_C 	C 	0.328	0.60209	0.77623	-0.092
Mof_C 	C 	0.32442	0.55541	0.79058	0.034
Mof_H 	H 	0.3385	0.5492	0.8118	0.053
Mof_C 	C 	0.29951	0.51748	0.77314	-0.084
Mof_C 	C 	0.28463	0.57353	0.72646	-0.046
Mof_C 	C 	0.30768	0.61043	0.74435	0.016
Mof_H 	H 	0.3097	0.6419	0.7348	0.046
Mof_C 	C 	0.27987	0.52635	0.74136	0.012
Mof_H 	H 	0.2635	0.5012	0.7297	0.06
Mof_C 	C 	0.266	0.58637	0.69265	0.153
Mof_C 	C 	0.2417	0.62907	0.65075	0.154
Mof_C 	C 	0.18819	0.70639	0.57987	-0.095
Mof_C 	C 	0.19341	0.75359	0.59344	0.042
Mof_H 	H 	0.1814	0.7809	0.5815	0.05
Mof_C 	C 	0.2167	0.76018	0.625	-0.093
Mof_C 	C 	0.23325	0.71878	0.64286	0.017
Mof_H 	H 	0.2487	0.7231	0.6639	0.044
Mof_C 	C 	0.22718	0.67157	0.63008	-0.049
Mof_C 	C 	0.20524	0.66513	0.59807	0.016
Mof_H 	H 	0.202	0.6335	0.5889	0.056
Mof_C 	C 	0.35286	0.6431	0.79538	0.365
Mof_C 	C 	0.29291	0.46831	0.79096	0.359
Mof_C 	C 	0.15942	0.69794	0.54762	0.375
Mof_C 	C 	0.21969	0.81039	0.64096	0.361
Mof_C 	C 	0.4587	0.82673	0.87456	-0.086
Mof_C 	C 	0.48334	0.81556	0.90464	0.036
Mof_H 	H 	0.4814	0.7837	0.9136	0.053
Mof_C 	C 	0.51109	0.85167	0.92174	-0.092
Mof_C 	C 	0.5129	0.8992	0.90812	0.012
Mof_H 	H 	0.5302	0.924	0.9196	0.047
Mof_C 	C 	0.48948	0.91	0.87789	-0.042
Mof_C 	C 	0.46193	0.87447	0.86088	0.009
Mof_H 	H 	0.4458	0.8823	0.8406	0.063
Mof_C 	C 	0.49419	0.9613	0.86492	0.151
Mof_C 	C 	0.43054	0.78683	0.85636	0.362
Mof_C 	C 	0.54032	0.83945	0.95278	0.363
Mof_Cu	Cu	0.25251	0.3735	0.80212	0.936
Mof_Cu	Cu	0.31593	0.40668	0.84926	0.909
Mof_O 	O 	0.31448	0.34976	0.78192	-0.394
Mof_O 	O 	0.36725	0.37366	0.8227	-0.406
Mof_O 	O 	0.5374	0.31807	0.81755	-0.408
Mof_O 	O 	0.5624	0.26353	0.77835	-0.372
Mof_O 	O 	0.345	0.16068	0.53562	-0.408
Mof_O 	O 	0.2663	0.13588	0.53596	-0.409
Mof_O 	O 	0.15582	0.19472	0.62699	-0.4
Mof_O 	O 	0.18484	0.24592	0.66705	-0.39
Mof_O 	O 	0.25574	0.43405	0.86913	-0.407
Mof_O 	O 	0.20192	0.40617	0.8305	-0.378
Mof_O 	O 	0.20374	0.53946	0.96388	-0.399
Mof_O 	O 	0.12479	0.56528	0.96488	-0.398
Mof_O 	O 	0.19917	0.34595	0.76708	-0.403
Mof_N 	N 	0.36754	0.25978	0.68195	-0.24
Mof_H 	H 	0.3408	0.2662	0.693	0.143
Mof_N 	N 	0.44509	0.2524	0.66841	-0.089
Mof_N 	N 	0.41798	0.2363	0.64134	-0.09
Mof_N 	N 	0.02529	0.4959	0.83285	-0.086
Mof_C 	C 	0.39791	0.328	0.77623	-0.092
Mof_C 	C 	0.44459	0.32442	0.79058	0.034
Mof_H 	H 	0.4508	0.3385	0.8118	0.053
Mof_C 	C 	0.48252	0.29951	0.77314	-0.084
Mof_C 	C 	0.42647	0.28463	0.72646	-0.046
Mof_C 	C 	0.38957	0.30768	0.74435	0.016
Mof_H 	H 	0.3581	0.3097	0.7348	0.046
Mof_C 	C 	0.47365	0.27987	0.74136	0.012
Mof_H 	H 	0.4988	0.2635	0.7297	0.06
Mof_C 	C 	0.41363	0.266	0.69265	0.153
Mof_C 	C 	0.37093	0.2417	0.65075	0.154
Mof_C 	C 	0.29361	0.18819	0.57987	-0.095
Mof_C 	C 	0.24641	0.19341	0.59344	0.042
Mof_H 	H 	0.2191	0.1814	0.5815	0.05
Mof_C 	C 	0.23982	0.2167	0.625	-0.093
Mof_C 	C 	0.28122	0.23325	0.64286	0.017
Mof_H 	H 	0.2769	0.2487	0.6639	0.044
Mof_C 	C 	0.32843	0.22718	0.63008	-0.049
Mof_C 	C 	0.33487	0.20524	0.59807	0.015
Mof_H 	H 	0.3665	0.202	0.5889	0.056
Mof_C 	C 	0.3569	0.35286	0.79538	0.365
Mof_C 	C 	0.53169	0.29291	0.79096	0.359
Mof_C 	C 	0.30206	0.15942	0.54762	0.375
Mof_C 	C 	0.18961	0.21969	0.64096	0.361
Mof_C 	C 	0.17327	0.4587	0.87456	-0.086
Mof_C 	C 	0.18444	0.48334	0.90464	0.036
Mof_H 	H 	0.2163	0.4814	0.9136	0.053
Mof_C 	C 	0.14833	0.51109	0.92174	-0.092
Mof_C 	C 	0.1008	0.5129	0.90812	0.012
Mof_H 	H 	0.076	0.5302	0.9196	0.048
Mof_C 	C 	0.09	0.48948	0.87789	-0.042
Mof_C 	C 	0.12553	0.46193	0.86088	0.01
Mof_H 	H 	0.1177	0.4458	0.8406	0.063
Mof_C 	C 	0.0387	0.49419	0.86492	0.153
Mof_C 	C 	0.21317	0.43054	0.85636	0.362
Mof_C 	C 	0.16055	0.54032	0.95278	0.363
Mof_Cu	Cu	0.74749	0.6265	0.80212	0.936
Mof_Cu	Cu	0.68407	0.59332	0.84926	0.909
Mof_O 	O 	0.68552	0.65024	0.78192	-0.394
Mof_O 	O 	0.63275	0.62634	0.8227	-0.406
Mof_O 	O 	0.4626	0.68193	0.81755	-0.408
Mof_O 	O 	0.4376	0.73647	0.77835	-0.372
Mof_O 	O 	0.655	0.83932	0.53562	-0.408
Mof_O 	O 	0.7337	0.86412	0.53596	-0.409
Mof_O 	O 	0.84418	0.80528	0.62699	-0.4
Mof_O 	O 	0.81516	0.75408	0.66705	-0.39
Mof_O 	O 	0.74426	0.56595	0.86913	-0.407
Mof_O 	O 	0.79808	0.59383	0.8305	-0.378
Mof_O 	O 	0.79626	0.46054	0.96388	-0.399
Mof_O 	O 	0.87521	0.43472	0.96488	-0.399
Mof_O 	O 	0.80083	0.65405	0.76708	-0.403
Mof_N 	N 	0.63246	0.74022	0.68195	-0.24
Mof_H 	H 	0.6592	0.7338	0.693	0.143
Mof_N 	N 	0.55491	0.7476	0.66841	-0.089
Mof_N 	N 	0.58202	0.7637	0.64134	-0.09
Mof_N 	N 	0.97471	0.5041	0.83285	-0.088
Mof_C 	C 	0.60209	0.672	0.77623	-0.092
Mof_C 	C 	0.55541	0.67558	0.79058	0.034
Mof_H 	H 	0.5492	0.6615	0.8118	0.053
Mof_C 	C 	0.51748	0.70049	0.77314	-0.084
Mof_C 	C 	0.57353	0.71537	0.72646	-0.046
Mof_C 	C 	0.61043	0.69232	0.74435	0.016
Mof_H 	H 	0.6419	0.6903	0.7348	0.046
Mof_C 	C 	0.52635	0.72013	0.74136	0.012
Mof_H 	H 	0.5012	0.7365	0.7297	0.06
Mof_C 	C 	0.58637	0.734	0.69265	0.153
Mof_C 	C 	0.62907	0.7583	0.65075	0.154
Mof_C 	C 	0.70639	0.81181	0.57987	-0.095
Mof_C 	C 	0.75359	0.80659	0.59344	0.042
Mof_H 	H 	0.7809	0.8186	0.5815	0.049
Mof_C 	C 	0.76018	0.7833	0.625	-0.093
Mof_C 	C 	0.71878	0.76675	0.64286	0.017
Mof_H 	H 	0.7231	0.7513	0.6639	0.044
Mof_C 	C 	0.67157	0.77282	0.63008	-0.049
Mof_C 	C 	0.66513	0.79476	0.59807	0.016
Mof_H 	H 	0.6335	0.798	0.5889	0.055
Mof_C 	C 	0.6431	0.64714	0.79538	0.365
Mof_C 	C 	0.46831	0.70709	0.79096	0.359
Mof_C 	C 	0.69794	0.84058	0.54762	0.375
Mof_C 	C 	0.81039	0.78031	0.64096	0.361
Mof_C 	C 	0.82673	0.5413	0.87456	-0.086
Mof_C 	C 	0.81556	0.51666	0.90464	0.036
Mof_H 	H 	0.7837	0.5186	0.9136	0.053
Mof_C 	C 	0.85167	0.48891	0.92174	-0.092
Mof_C 	C 	0.8992	0.4871	0.90812	0.012
Mof_H 	H 	0.924	0.4698	0.9196	0.047
Mof_C 	C 	0.91	0.51052	0.87789	-0.042
Mof_C 	C 	0.87447	0.53807	0.86088	0.009
Mof_H 	H 	0.8823	0.5542	0.8406	0.063
Mof_C 	C 	0.9613	0.50581	0.86492	0.151
Mof_C 	C 	0.78683	0.56946	0.85636	0.362
Mof_C 	C 	0.83945	0.45968	0.95278	0.363
Mof_Cu	Cu	0.91484	0.27342	0.5	0.903
Mof_Cu	Cu	0.8844	0.36735	0.5	0.91
Mof_Cu	Cu	0.08516	0.72658	0.5	0.903
Mof_Cu	Cu	0.1156	0.63265	0.5	0.91
Mof_Cu	Cu	0.72658	0.91484	0.5	0.903
Mof_Cu	Cu	0.63265	0.8844	0.5	0.91
Mof_Cu	Cu	0.27342	0.08516	0.5	0.903
Mof_Cu	Cu	0.36735	0.1156	0.5	0.91
Mof_Cu	Cu	0.58516	0.77342	-0	0.897
Mof_Cu	Cu	0.6156	0.86735	-0	0.904
Mof_Cu	Cu	0.41484	0.22658	-0	0.897
Mof_Cu	Cu	0.3844	0.13265	-0	0.905
Mof_Cu	Cu	0.77342	0.41484	-0	0.897
Mof_Cu	Cu	0.86735	0.3844	-0	0.904
Mof_Cu	Cu	0.22658	0.58516	-0	0.897
Mof_Cu	Cu	0.13265	0.6156	-0	0.905
Mof_N 	N 	-1.20558e-32	0.5	0.38541	-0.238
Mof_H 	H 	2.21941e-33	0.5	0.4073	0.142
Mof_N 	N 	0.5	0	0.38541	-0.238
Mof_H 	H 	0.5	0	0.4073	0.142
Mof_N 	N 	0.5	0	0.11459	-0.237
Mof_H 	H 	0.5	-1.76949e-33	0.0927	0.141
Mof_N 	N 	4.16338e-33	0.5	0.11459	-0.237
Mof_H 	H 	5.0513e-34	0.5	0.0927	0.141
Mof_N 	N 	-1.08069e-32	0.5	0.61459	-0.238
Mof_H 	H 	-3.84827e-33	0.5	0.5927	0.142
Mof_N 	N 	0.5	0	0.61459	-0.238
Mof_H 	H 	0.5	-7.07794e-33	0.5927	0.142
Mof_N 	N 	0.5	0	0.88541	-0.238
Mof_H 	H 	0.5	-1.41559e-32	0.9073	0.143
Mof_N 	N 	-9.33121e-33	0.5	0.88541	-0.238
Mof_H 	H 	-9.21193e-33	0.5	0.9073	0.143
Mof_C 	C 	0.18927	0.31073	0.25	0.581
Mof_H 	H 	0.2136	0.2864	0.25	-0.142
Mof_C 	C 	0.81073	0.68927	0.25	0.581
Mof_H 	H 	0.7864	0.7136	0.25	-0.142
Mof_C 	C 	0.68927	0.18927	0.25	0.581
Mof_H 	H 	0.7136	0.2136	0.25	-0.142
Mof_C 	C 	0.31073	0.81073	0.25	0.581
Mof_H 	H 	0.2864	0.7864	0.25	-0.142
Mof_C 	C 	0.81073	0.68927	0.75	0.581
Mof_H 	H 	0.7864	0.7136	0.75	-0.142
Mof_C 	C 	0.18927	0.31073	0.75	0.581
Mof_H 	H 	0.2136	0.2864	0.75	-0.142
Mof_C 	C 	0.31073	0.81073	0.75	0.581
Mof_H 	H 	0.2864	0.7864	0.75	-0.142
Mof_C 	C 	0.68927	0.18927	0.75	0.581
Mof_H 	H 	0.7136	0.2136	0.75	-0.142
_end
