data_functionalizedCrystal
_audit_creation_method	'EQeq! by Chris Wilmer'
_symmetry_space_group_name_H-M	'P1'
_symmetry_Int_Tables_number	1
_symmetry_cell_setting	triclinic
loop_
_symmetry_equiv_pos_as_xyz
  x,y,z
_cell_length_a	21.893
_cell_length_b	21.893
_cell_length_c	7.1812
_cell_angle_alpha	90
_cell_angle_beta	90
_cell_angle_gamma	90
loop_
_atom_site_label
_atom_site_type_symbol
_atom_site_fract_x
_atom_site_fract_y
_atom_site_fract_z
_atom_site_charge
Mof_H 	H 	0.7336	0.0533	0.5115	0.031
Mof_H 	H 	0.8355	0.1048	0.9588	0.049
Mof_H 	H 	0.8673	0.0527	0.6944	0.055
Mof_C 	C 	0.7624	0.1317	0.2606	0.674
Mof_C 	C 	0.7714	0.0643	0.2555	-0.19
Mof_C 	C 	0.7487	0.0321	0.4091	0.004
Mof_C 	C 	0.7988	0.0335	0.1038	-0.08
Mof_C 	C 	0.8299	0.0627	0.9532	0.124
Mof_C 	C 	0.8525	0.0312	0.7967	-0.059
Mof_O 	O 	0.7577	0.1574	0.4054	-0.84
Mof_O 	O 	0.7595	0.1574	0.1034	-0.765
Mof_H 	H 	0.8165	0.6835	0.2545	0.256
Mof_H 	H 	0.2664	0.9467	0.5115	0.031
Mof_H 	H 	0.1645	0.8952	0.9588	0.049
Mof_H 	H 	0.1327	0.9473	0.6944	0.055
Mof_C 	C 	0.2376	0.8683	0.2606	0.674
Mof_C 	C 	0.2286	0.9357	0.2555	-0.189
Mof_C 	C 	0.2513	0.9679	0.4091	0.005
Mof_C 	C 	0.2012	0.9665	0.1038	-0.079
Mof_C 	C 	0.1701	0.9373	0.9532	0.125
Mof_C 	C 	0.1475	0.9688	0.7967	-0.058
Mof_O 	O 	0.2423	0.8426	0.4054	-0.839
Mof_O 	O 	0.2405	0.8426	0.1034	-0.764
Mof_H 	H 	0.4467	0.2336	0.5115	0.032
Mof_H 	H 	0.3952	0.3355	0.9588	0.05
Mof_H 	H 	0.4473	0.3673	0.6944	0.056
Mof_C 	C 	0.3683	0.2624	0.2606	0.674
Mof_C 	C 	0.4357	0.2714	0.2555	-0.188
Mof_C 	C 	0.4679	0.2487	0.4091	0.005
Mof_C 	C 	0.4665	0.2988	0.1038	-0.08
Mof_C 	C 	0.4373	0.3299	0.9532	0.126
Mof_C 	C 	0.4688	0.3525	0.7967	-0.058
Mof_O 	O 	0.3426	0.2577	0.4054	-0.839
Mof_O 	O 	0.3426	0.2595	0.1034	-0.764
Mof_H 	H 	0.8165	0.3165	0.2545	0.257
Mof_H 	H 	0.5533	0.7664	0.5115	0.032
Mof_H 	H 	0.6048	0.6645	0.9588	0.05
Mof_H 	H 	0.5527	0.6327	0.6944	0.056
Mof_C 	C 	0.6317	0.7376	0.2606	0.674
Mof_C 	C 	0.5643	0.7286	0.2555	-0.188
Mof_C 	C 	0.5321	0.7513	0.4091	0.005
Mof_C 	C 	0.5335	0.7012	0.1038	-0.08
Mof_C 	C 	0.5627	0.6701	0.9532	0.126
Mof_C 	C 	0.5312	0.6475	0.7967	-0.058
Mof_O 	O 	0.6574	0.7423	0.4054	-0.839
Mof_O 	O 	0.6574	0.7405	0.1034	-0.764
Mof_H 	H 	0.1835	0.6835	0.2545	0.257
Mof_H 	H 	0.7664	0.5533	0.4885	0.005
Mof_H 	H 	0.6645	0.6048	0.0412	0.071
Mof_H 	H 	0.6327	0.5527	0.3056	0.018
Mof_C 	C 	0.7376	0.6317	0.7394	0.7
Mof_C 	C 	0.7286	0.5643	0.7445	-0.244
Mof_C 	C 	0.7513	0.5321	0.5909	0.029
Mof_C 	C 	0.7012	0.5335	0.8962	0.217
Mof_C 	C 	0.6701	0.5627	0.0468	-0.302
Mof_C 	C 	0.6475	0.5312	0.2033	-0
Mof_O 	O 	0.7423	0.6574	0.5946	-0.842
Mof_O 	O 	0.7405	0.6574	0.8966	-0.625
Mof_H 	H 	0.2336	0.4467	0.4885	0.005
Mof_H 	H 	0.3355	0.3952	0.0412	0.071
Mof_H 	H 	0.3673	0.4473	0.3056	0.018
Mof_C 	C 	0.2624	0.3683	0.7394	0.7
Mof_C 	C 	0.2714	0.4357	0.7445	-0.244
Mof_C 	C 	0.2487	0.4679	0.5909	0.029
Mof_C 	C 	0.2988	0.4665	0.8962	0.217
Mof_C 	C 	0.3299	0.4373	0.0468	-0.302
Mof_C 	C 	0.3525	0.4688	0.2033	-0
Mof_O 	O 	0.2577	0.3426	0.5946	-0.842
Mof_O 	O 	0.2595	0.3426	0.8966	-0.625
Mof_H 	H 	0.0533	0.7336	0.4885	0.005
Mof_H 	H 	0.1048	0.8355	0.0412	0.07
Mof_H 	H 	0.0527	0.8673	0.3056	0.018
Mof_C 	C 	0.1317	0.7624	0.7394	0.7
Mof_C 	C 	0.0643	0.7714	0.7445	-0.244
Mof_C 	C 	0.0321	0.7487	0.5909	0.029
Mof_C 	C 	0.0335	0.7988	0.8962	0.216
Mof_C 	C 	0.0627	0.8299	0.0468	-0.3
Mof_C 	C 	0.0312	0.8525	0.2033	-0.001
Mof_O 	O 	0.1574	0.7577	0.5946	-0.842
Mof_O 	O 	0.1574	0.7595	0.8966	-0.625
Mof_H 	H 	0.6835	0.8165	0.7455	0.308
Mof_H 	H 	0.9467	0.2664	0.4885	0.005
Mof_H 	H 	0.8952	0.1645	0.0412	0.07
Mof_H 	H 	0.9473	0.1327	0.3056	0.018
Mof_C 	C 	0.8683	0.2376	0.7394	0.7
Mof_C 	C 	0.9357	0.2286	0.7445	-0.244
Mof_C 	C 	0.9679	0.2513	0.5909	0.029
Mof_C 	C 	0.9665	0.2012	0.8962	0.216
Mof_C 	C 	0.9373	0.1701	0.0468	-0.3
Mof_C 	C 	0.9688	0.1475	0.2033	-0.001
Mof_O 	O 	0.8426	0.2423	0.5946	-0.842
Mof_O 	O 	0.8426	0.2405	0.8966	-0.625
Mof_H 	H 	0.3165	0.1835	0.7455	0.308
Mof_H 	H 	0.7664	0.4467	0.4885	0.005
Mof_H 	H 	0.6645	0.3952	0.0412	0.071
Mof_H 	H 	0.6327	0.4473	0.3056	0.018
Mof_C 	C 	0.7376	0.3683	0.7394	0.7
Mof_C 	C 	0.7286	0.4357	0.7445	-0.244
Mof_C 	C 	0.7513	0.4679	0.5909	0.029
Mof_C 	C 	0.7012	0.4665	0.8962	0.217
Mof_C 	C 	0.6701	0.4373	0.0468	-0.302
Mof_C 	C 	0.6475	0.4688	0.2033	-0
Mof_O 	O 	0.7423	0.3426	0.5946	-0.842
Mof_O 	O 	0.7405	0.3426	0.8966	-0.625
Mof_H 	H 	0.2336	0.5533	0.4885	0.005
Mof_H 	H 	0.3355	0.6048	0.0412	0.071
Mof_H 	H 	0.3673	0.5527	0.3056	0.018
Mof_C 	C 	0.2624	0.6317	0.7394	0.7
Mof_C 	C 	0.2714	0.5643	0.7445	-0.244
Mof_C 	C 	0.2487	0.5321	0.5909	0.029
Mof_C 	C 	0.2988	0.5335	0.8962	0.217
Mof_C 	C 	0.3299	0.5627	0.0468	-0.302
Mof_C 	C 	0.3525	0.5312	0.2033	-0
Mof_O 	O 	0.2577	0.6574	0.5946	-0.842
Mof_O 	O 	0.2595	0.6574	0.8966	-0.625
Mof_H 	H 	0.0533	0.2664	0.4885	0.005
Mof_H 	H 	0.1048	0.1645	0.0412	0.07
Mof_H 	H 	0.0527	0.1327	0.3056	0.018
Mof_C 	C 	0.1317	0.2376	0.7394	0.7
Mof_C 	C 	0.0643	0.2286	0.7445	-0.244
Mof_C 	C 	0.0321	0.2513	0.5909	0.029
Mof_C 	C 	0.0335	0.2012	0.8962	0.216
Mof_C 	C 	0.0627	0.1701	0.0468	-0.3
Mof_C 	C 	0.0312	0.1475	0.2033	-0.001
Mof_O 	O 	0.1574	0.2423	0.5946	-0.842
Mof_O 	O 	0.1574	0.2405	0.8966	-0.625
Mof_H 	H 	0.6835	0.1835	0.7455	0.308
Mof_H 	H 	0.9467	0.7336	0.4885	0.005
Mof_H 	H 	0.8952	0.8355	0.0412	0.07
Mof_H 	H 	0.9473	0.8673	0.3056	0.018
Mof_C 	C 	0.8683	0.7624	0.7394	0.7
Mof_C 	C 	0.9357	0.7714	0.7445	-0.244
Mof_C 	C 	0.9679	0.7487	0.5909	0.029
Mof_C 	C 	0.9665	0.7988	0.8962	0.216
Mof_C 	C 	0.9373	0.8299	0.0468	-0.3
Mof_C 	C 	0.9688	0.8525	0.2033	-0.001
Mof_O 	O 	0.8426	0.7577	0.5946	-0.842
Mof_O 	O 	0.8426	0.7595	0.8966	-0.625
Mof_H 	H 	0.3165	0.8165	0.7455	0.308
Mof_H 	H 	0.7336	0.9467	0.5115	0.032
Mof_H 	H 	0.8355	0.8952	0.9588	0.05
Mof_H 	H 	0.8673	0.9473	0.6944	0.056
Mof_C 	C 	0.7624	0.8683	0.2606	0.675
Mof_C 	C 	0.7714	0.9357	0.2555	-0.189
Mof_C 	C 	0.7487	0.9679	0.4091	0.005
Mof_C 	C 	0.7988	0.9665	0.1038	-0.079
Mof_C 	C 	0.8299	0.9373	0.9532	0.125
Mof_C 	C 	0.8525	0.9688	0.7967	-0.058
Mof_O 	O 	0.7577	0.8426	0.4054	-0.839
Mof_O 	O 	0.7595	0.8426	0.1034	-0.764
Mof_H 	H 	0.2664	0.0533	0.5115	0.032
Mof_H 	H 	0.1645	0.1048	0.9588	0.05
Mof_H 	H 	0.1327	0.0527	0.6944	0.056
Mof_C 	C 	0.2376	0.1317	0.2606	0.675
Mof_C 	C 	0.2286	0.0643	0.2555	-0.189
Mof_C 	C 	0.2513	0.0321	0.4091	0.005
Mof_C 	C 	0.2012	0.0335	0.1038	-0.079
Mof_C 	C 	0.1701	0.0627	0.9532	0.125
Mof_C 	C 	0.1475	0.0312	0.7967	-0.058
Mof_O 	O 	0.2423	0.1574	0.4054	-0.839
Mof_O 	O 	0.2405	0.1574	0.1034	-0.764
Mof_H 	H 	0.4467	0.7664	0.5115	0.032
Mof_H 	H 	0.3952	0.6645	0.9588	0.05
Mof_H 	H 	0.4473	0.6327	0.6944	0.056
Mof_C 	C 	0.3683	0.7376	0.2606	0.674
Mof_C 	C 	0.4357	0.7286	0.2555	-0.188
Mof_C 	C 	0.4679	0.7513	0.4091	0.005
Mof_C 	C 	0.4665	0.7012	0.1038	-0.08
Mof_C 	C 	0.4373	0.6701	0.9532	0.126
Mof_C 	C 	0.4688	0.6475	0.7967	-0.058
Mof_O 	O 	0.3426	0.7423	0.4054	-0.839
Mof_O 	O 	0.3426	0.7405	0.1034	-0.764
Mof_H 	H 	0.5533	0.2336	0.5115	0.032
Mof_H 	H 	0.6048	0.3355	0.9588	0.05
Mof_H 	H 	0.5527	0.3673	0.6944	0.056
Mof_C 	C 	0.6317	0.2624	0.2606	0.674
Mof_C 	C 	0.5643	0.2714	0.2555	-0.188
Mof_C 	C 	0.5321	0.2487	0.4091	0.005
Mof_C 	C 	0.5335	0.2988	0.1038	-0.08
Mof_C 	C 	0.5627	0.3299	0.9532	0.126
Mof_C 	C 	0.5312	0.3525	0.7967	-0.058
Mof_O 	O 	0.6574	0.2577	0.4054	-0.839
Mof_O 	O 	0.6574	0.2595	0.1034	-0.764
Mof_H 	H 	0.1835	0.3165	0.2545	0.257
Mof_In	In	0.75	0.25	-0	2.347
Mof_In	In	0.25	0.75	-0	2.347
Mof_In	In	0.25	0.25	-0	2.347
Mof_In	In	0.75	0.75	-0	2.347
Mof_In	In	0.75	0.25	0.5	3.208
Mof_In	In	0.25	0.75	0.5	3.208
Mof_In	In	0.25	0.25	0.5	3.208
Mof_In	In	0.75	0.75	0.5	3.208
Mof_O 	O 	0.7842	0.2842	0.2545	-1.129
Mof_O 	O 	0.2158	0.7158	0.2545	-1.129
Mof_O 	O 	0.2158	0.2842	0.2545	-1.129
Mof_O 	O 	0.7842	0.7158	0.2545	-1.129
Mof_O 	O 	0.7158	0.7842	0.7455	-1.068
Mof_O 	O 	0.2842	0.2158	0.7455	-1.068
Mof_O 	O 	0.2842	0.7842	0.7455	-1.068
Mof_O 	O 	0.7158	0.2158	0.7455	-1.068
_end
