data_functionalizedCrystal
_audit_creation_method	'EQeq! by Chris Wilmer'
_symmetry_space_group_name_H-M	'P1'
_symmetry_Int_Tables_number	1
_symmetry_cell_setting	triclinic
loop_
_symmetry_equiv_pos_as_xyz
  x,y,z
_cell_length_a	12.7731
_cell_length_b	29.872
_cell_length_c	33.792
_cell_angle_alpha	90
_cell_angle_beta	90
_cell_angle_gamma	90
loop_
_atom_site_label
_atom_site_type_symbol
_atom_site_fract_x
_atom_site_fract_y
_atom_site_fract_z
_atom_site_charge
Mof_S 	S 	0.74993	0.19766	0.04497	-0.021
Mof_S 	S 	0.49117	0.29184	0.03681	-0.025
Mof_S 	S 	0.2542	0.29208	0.94419	-0.023
Mof_N 	N 	0.9992	0.17016	0.09691	-0.197
Mof_N 	N 	0.9972	0.34037	0.91368	-0.201
Mof_C 	C 	0.926	0.1908	0.09009	0.093
Mof_C 	C 	0.8355	0.216	0.0808	-0.043
Mof_C 	C 	0.8047	0.2556	0.09674	-0.028
Mof_H 	H 	0.8419	0.2708	0.1171	0.037
Mof_C 	C 	0.7119	0.2717	0.07973	-0.068
Mof_H 	H 	0.6794	0.2989	0.0874	0.051
Mof_C 	C 	0.6728	0.2442	0.05101	0.006
Mof_C 	C 	0.5812	0.25019	0.02631	0.005
Mof_C 	C 	0.5521	0.2262	0.9932	-0.051
Mof_H 	H 	0.5906	0.2014	0.9832	0.048
Mof_C 	C 	0.4588	0.2423	0.97566	-0.05
Mof_H 	H 	0.4286	0.2298	0.9525	0.047
Mof_C 	C 	0.4162	0.2781	0.99587	0.005
Mof_C 	C 	0.3196	0.30226	0.98789	0.008
Mof_C 	C 	0.2684	0.3328	0.01055	-0.067
Mof_H 	H 	0.294	0.3431	0.0353	0.052
Mof_C 	C 	0.1745	0.3475	0.99396	-0.026
Mof_H 	H 	0.1282	0.3679	0.0064	0.037
Mof_C 	C 	0.1573	0.329	0.9578	-0.042
Mof_C 	C 	0.0681	0.33512	0.93331	0.096
Mof_S 	S 	0.74993	0.69766	0.54497	-0.021
Mof_S 	S 	0.49117	0.79184	0.53681	-0.025
Mof_S 	S 	0.2542	0.79208	0.44419	-0.023
Mof_N 	N 	0.9992	0.67016	0.59691	-0.198
Mof_N 	N 	0.9972	0.84037	0.41368	-0.201
Mof_C 	C 	0.926	0.6908	0.59009	0.092
Mof_C 	C 	0.8355	0.716	0.5808	-0.043
Mof_C 	C 	0.8047	0.7556	0.59674	-0.028
Mof_H 	H 	0.8419	0.7708	0.6171	0.037
Mof_C 	C 	0.7119	0.7717	0.57973	-0.069
Mof_H 	H 	0.6794	0.7989	0.5874	0.051
Mof_C 	C 	0.6728	0.7442	0.55101	0.007
Mof_C 	C 	0.5812	0.75019	0.52631	0.005
Mof_C 	C 	0.5521	0.7262	0.4932	-0.05
Mof_H 	H 	0.5906	0.7014	0.4832	0.048
Mof_C 	C 	0.4588	0.7423	0.47566	-0.05
Mof_H 	H 	0.4286	0.7298	0.4525	0.047
Mof_C 	C 	0.4162	0.7781	0.49587	0.005
Mof_C 	C 	0.3196	0.80226	0.48789	0.008
Mof_C 	C 	0.2684	0.8328	0.51055	-0.066
Mof_H 	H 	0.294	0.8431	0.5353	0.053
Mof_C 	C 	0.1745	0.8475	0.49396	-0.025
Mof_H 	H 	0.1282	0.8679	0.5064	0.039
Mof_C 	C 	0.1573	0.829	0.4578	-0.041
Mof_C 	C 	0.0681	0.83512	0.43331	0.097
Mof_S 	S 	0.24993	0.19766	0.54497	-0.02
Mof_S 	S 	0.99117	0.29184	0.53681	-0.024
Mof_S 	S 	0.7542	0.29208	0.44419	-0.022
Mof_N 	N 	0.4992	0.17016	0.59691	-0.197
Mof_N 	N 	0.4972	0.34037	0.41368	-0.2
Mof_C 	C 	0.426	0.1908	0.59009	0.094
Mof_C 	C 	0.3355	0.216	0.5808	-0.042
Mof_C 	C 	0.3047	0.2556	0.59674	-0.027
Mof_H 	H 	0.3419	0.2708	0.6171	0.038
Mof_C 	C 	0.2119	0.2717	0.57973	-0.067
Mof_H 	H 	0.1794	0.2989	0.5874	0.052
Mof_C 	C 	0.1728	0.2442	0.55101	0.007
Mof_C 	C 	0.0812	0.25019	0.52631	0.006
Mof_C 	C 	0.0521	0.2262	0.4932	-0.049
Mof_H 	H 	0.0906	0.2014	0.4832	0.049
Mof_C 	C 	0.9588	0.2423	0.47566	-0.049
Mof_H 	H 	0.9286	0.2298	0.4525	0.048
Mof_C 	C 	0.9162	0.2781	0.49587	0.006
Mof_C 	C 	0.8196	0.30226	0.48789	0.009
Mof_C 	C 	0.7684	0.3328	0.51055	-0.066
Mof_H 	H 	0.794	0.3431	0.5353	0.053
Mof_C 	C 	0.6745	0.3475	0.49396	-0.025
Mof_H 	H 	0.6282	0.3679	0.5064	0.039
Mof_C 	C 	0.6573	0.329	0.4578	-0.041
Mof_C 	C 	0.5681	0.33512	0.43331	0.097
Mof_S 	S 	0.24993	0.69766	0.04497	-0.02
Mof_S 	S 	0.99117	0.79184	0.03681	-0.024
Mof_S 	S 	0.7542	0.79208	0.94419	-0.022
Mof_N 	N 	0.4992	0.67016	0.09691	-0.197
Mof_N 	N 	0.4972	0.84037	0.91368	-0.2
Mof_C 	C 	0.426	0.6908	0.09009	0.094
Mof_C 	C 	0.3355	0.716	0.0808	-0.042
Mof_C 	C 	0.3047	0.7556	0.09674	-0.027
Mof_H 	H 	0.3419	0.7708	0.1171	0.038
Mof_C 	C 	0.2119	0.7717	0.07973	-0.068
Mof_H 	H 	0.1794	0.7989	0.0874	0.052
Mof_C 	C 	0.1728	0.7442	0.05101	0.008
Mof_C 	C 	0.0812	0.75019	0.02631	0.006
Mof_C 	C 	0.0521	0.7262	0.9932	-0.049
Mof_H 	H 	0.0906	0.7014	0.9832	0.049
Mof_C 	C 	0.9588	0.7423	0.97566	-0.049
Mof_H 	H 	0.9286	0.7298	0.9525	0.049
Mof_C 	C 	0.9162	0.7781	0.99587	0.006
Mof_C 	C 	0.8196	0.80226	0.98789	0.009
Mof_C 	C 	0.7684	0.8328	0.01055	-0.066
Mof_H 	H 	0.794	0.8431	0.0353	0.053
Mof_C 	C 	0.6745	0.8475	0.99396	-0.025
Mof_H 	H 	0.6282	0.8679	0.0064	0.039
Mof_C 	C 	0.6573	0.829	0.9578	-0.041
Mof_C 	C 	0.5681	0.83512	0.93331	0.097
Mof_S 	S 	7e-05	0.55234	0.04497	-0.02
Mof_S 	S 	0.25883	0.45816	0.03681	-0.024
Mof_S 	S 	0.4958	0.45792	0.94419	-0.022
Mof_N 	N 	0.7508	0.57984	0.09691	-0.197
Mof_N 	N 	0.7528	0.40963	0.91368	-0.2
Mof_C 	C 	0.824	0.5592	0.09009	0.093
Mof_C 	C 	0.9145	0.534	0.0808	-0.042
Mof_C 	C 	0.9453	0.4944	0.09674	-0.027
Mof_H 	H 	0.9081	0.4792	0.1171	0.038
Mof_C 	C 	0.0381	0.4783	0.07973	-0.068
Mof_H 	H 	0.0706	0.4511	0.0874	0.052
Mof_C 	C 	0.0772	0.5058	0.05101	0.008
Mof_C 	C 	0.1688	0.49981	0.02631	0.006
Mof_C 	C 	0.1979	0.5238	0.9932	-0.049
Mof_H 	H 	0.1594	0.5486	0.9832	0.049
Mof_C 	C 	0.2912	0.5077	0.97566	-0.049
Mof_H 	H 	0.3214	0.5202	0.9525	0.048
Mof_C 	C 	0.3338	0.4719	0.99587	0.006
Mof_C 	C 	0.4304	0.44774	0.98789	0.009
Mof_C 	C 	0.4816	0.4172	0.01055	-0.066
Mof_H 	H 	0.456	0.4069	0.0353	0.053
Mof_C 	C 	0.5755	0.4025	0.99396	-0.025
Mof_H 	H 	0.6218	0.3821	0.0064	0.039
Mof_C 	C 	0.5927	0.421	0.9578	-0.041
Mof_C 	C 	0.6819	0.41488	0.93331	0.097
Mof_S 	S 	7e-05	0.05234	0.54497	-0.02
Mof_S 	S 	0.25883	0.95816	0.53681	-0.024
Mof_S 	S 	0.4958	0.95792	0.44419	-0.022
Mof_N 	N 	0.7508	0.07984	0.59691	-0.196
Mof_N 	N 	0.7528	0.90963	0.41368	-0.2
Mof_C 	C 	0.824	0.0592	0.59009	0.093
Mof_C 	C 	0.9145	0.034	0.5808	-0.042
Mof_C 	C 	0.9453	0.9944	0.59674	-0.027
Mof_H 	H 	0.9081	0.9792	0.6171	0.038
Mof_C 	C 	0.0381	0.9783	0.57973	-0.067
Mof_H 	H 	0.0706	0.9511	0.5874	0.052
Mof_C 	C 	0.0772	0.0058	0.55101	0.007
Mof_C 	C 	0.1688	0.99981	0.52631	0.006
Mof_C 	C 	0.1979	0.0238	0.4932	-0.05
Mof_H 	H 	0.1594	0.0486	0.4832	0.049
Mof_C 	C 	0.2912	0.0077	0.47566	-0.049
Mof_H 	H 	0.3214	0.0202	0.4525	0.048
Mof_C 	C 	0.3338	0.9719	0.49587	0.006
Mof_C 	C 	0.4304	0.94774	0.48789	0.009
Mof_C 	C 	0.4816	0.9172	0.51055	-0.066
Mof_H 	H 	0.456	0.9069	0.5353	0.053
Mof_C 	C 	0.5755	0.9025	0.49396	-0.025
Mof_H 	H 	0.6218	0.8821	0.5064	0.039
Mof_C 	C 	0.5927	0.921	0.4578	-0.041
Mof_C 	C 	0.6819	0.91488	0.43331	0.097
Mof_S 	S 	0.50007	0.55234	0.54497	-0.02
Mof_S 	S 	0.75883	0.45816	0.53681	-0.024
Mof_S 	S 	0.9958	0.45792	0.44419	-0.022
Mof_N 	N 	0.2508	0.57984	0.59691	-0.197
Mof_N 	N 	0.2528	0.40963	0.41368	-0.2
Mof_C 	C 	0.324	0.5592	0.59009	0.094
Mof_C 	C 	0.4145	0.534	0.5808	-0.042
Mof_C 	C 	0.4453	0.4944	0.59674	-0.027
Mof_H 	H 	0.4081	0.4792	0.6171	0.038
Mof_C 	C 	0.5381	0.4783	0.57973	-0.068
Mof_H 	H 	0.5706	0.4511	0.5874	0.052
Mof_C 	C 	0.5772	0.5058	0.55101	0.008
Mof_C 	C 	0.6688	0.49981	0.52631	0.006
Mof_C 	C 	0.6979	0.5238	0.4932	-0.049
Mof_H 	H 	0.6594	0.5486	0.4832	0.049
Mof_C 	C 	0.7912	0.5077	0.47566	-0.049
Mof_H 	H 	0.8214	0.5202	0.4525	0.048
Mof_C 	C 	0.8338	0.4719	0.49587	0.006
Mof_C 	C 	0.9304	0.44774	0.48789	0.009
Mof_C 	C 	0.9816	0.4172	0.51055	-0.066
Mof_H 	H 	0.956	0.4069	0.5353	0.053
Mof_C 	C 	0.0755	0.4025	0.49396	-0.025
Mof_H 	H 	0.1218	0.3821	0.5064	0.039
Mof_C 	C 	0.0927	0.421	0.4578	-0.041
Mof_C 	C 	0.1819	0.41488	0.43331	0.097
Mof_S 	S 	0.50007	0.05234	0.04497	-0.02
Mof_S 	S 	0.75883	0.95816	0.03681	-0.024
Mof_S 	S 	0.9958	0.95792	0.94419	-0.023
Mof_N 	N 	0.2508	0.07984	0.09691	-0.197
Mof_N 	N 	0.2528	0.90963	0.91368	-0.2
Mof_C 	C 	0.324	0.0592	0.09009	0.093
Mof_C 	C 	0.4145	0.034	0.0808	-0.042
Mof_C 	C 	0.4453	0.9944	0.09674	-0.027
Mof_H 	H 	0.4081	0.9792	0.1171	0.038
Mof_C 	C 	0.5381	0.9783	0.07973	-0.068
Mof_H 	H 	0.5706	0.9511	0.0874	0.052
Mof_C 	C 	0.5772	0.0058	0.05101	0.008
Mof_C 	C 	0.6688	0.99981	0.02631	0.006
Mof_C 	C 	0.6979	0.0238	0.9932	-0.05
Mof_H 	H 	0.6594	0.0486	0.9832	0.049
Mof_C 	C 	0.7912	0.0077	0.97566	-0.049
Mof_H 	H 	0.8214	0.0202	0.9525	0.048
Mof_C 	C 	0.8338	0.9719	0.99587	0.005
Mof_C 	C 	0.9304	0.94774	0.98789	0.009
Mof_C 	C 	0.9816	0.9172	0.01055	-0.066
Mof_H 	H 	0.956	0.9069	0.0353	0.053
Mof_C 	C 	0.0755	0.9025	0.99396	-0.025
Mof_H 	H 	0.1218	0.8821	0.0064	0.038
Mof_C 	C 	0.0927	0.921	0.9578	-0.041
Mof_C 	C 	0.1819	0.91488	0.93331	0.097
Mof_S 	S 	7e-05	0.19766	0.70503	-0.02
Mof_S 	S 	0.25883	0.29184	0.71319	-0.024
Mof_S 	S 	0.4958	0.29208	0.80581	-0.022
Mof_N 	N 	0.7508	0.17016	0.65309	-0.197
Mof_N 	N 	0.7528	0.34037	0.83632	-0.2
Mof_C 	C 	0.824	0.1908	0.65991	0.093
Mof_C 	C 	0.9145	0.216	0.6692	-0.042
Mof_C 	C 	0.9453	0.2556	0.65326	-0.027
Mof_H 	H 	0.9081	0.2708	0.6329	0.038
Mof_C 	C 	0.0381	0.2717	0.67027	-0.068
Mof_H 	H 	0.0706	0.2989	0.6626	0.052
Mof_C 	C 	0.0772	0.2442	0.69899	0.008
Mof_C 	C 	0.1688	0.25019	0.72369	0.006
Mof_C 	C 	0.1979	0.2262	0.7568	-0.049
Mof_H 	H 	0.1594	0.2014	0.7668	0.049
Mof_C 	C 	0.2912	0.2423	0.77434	-0.049
Mof_H 	H 	0.3214	0.2298	0.7975	0.048
Mof_C 	C 	0.3338	0.2781	0.75413	0.006
Mof_C 	C 	0.4304	0.30226	0.76211	0.009
Mof_C 	C 	0.4816	0.3328	0.73945	-0.066
Mof_H 	H 	0.456	0.3431	0.7147	0.053
Mof_C 	C 	0.5755	0.3475	0.75604	-0.025
Mof_H 	H 	0.6218	0.3679	0.7436	0.039
Mof_C 	C 	0.5927	0.329	0.7922	-0.041
Mof_C 	C 	0.6819	0.33512	0.81669	0.097
Mof_S 	S 	7e-05	0.69766	0.20503	-0.02
Mof_S 	S 	0.25883	0.79184	0.21319	-0.024
Mof_S 	S 	0.4958	0.79208	0.30581	-0.022
Mof_N 	N 	0.7508	0.67016	0.15309	-0.197
Mof_N 	N 	0.7528	0.84037	0.33632	-0.2
Mof_C 	C 	0.824	0.6908	0.15991	0.093
Mof_C 	C 	0.9145	0.716	0.1692	-0.042
Mof_C 	C 	0.9453	0.7556	0.15326	-0.027
Mof_H 	H 	0.9081	0.7708	0.1329	0.038
Mof_C 	C 	0.0381	0.7717	0.17027	-0.068
Mof_H 	H 	0.0706	0.7989	0.1626	0.052
Mof_C 	C 	0.0772	0.7442	0.19899	0.008
Mof_C 	C 	0.1688	0.75019	0.22369	0.006
Mof_C 	C 	0.1979	0.7262	0.2568	-0.049
Mof_H 	H 	0.1594	0.7014	0.2668	0.049
Mof_C 	C 	0.2912	0.7423	0.27434	-0.049
Mof_H 	H 	0.3214	0.7298	0.2975	0.048
Mof_C 	C 	0.3338	0.7781	0.25413	0.006
Mof_C 	C 	0.4304	0.80226	0.26211	0.009
Mof_C 	C 	0.4816	0.8328	0.23945	-0.066
Mof_H 	H 	0.456	0.8431	0.2147	0.053
Mof_C 	C 	0.5755	0.8475	0.25604	-0.025
Mof_H 	H 	0.6218	0.8679	0.2436	0.039
Mof_C 	C 	0.5927	0.829	0.2922	-0.041
Mof_C 	C 	0.6819	0.83512	0.31669	0.097
Mof_S 	S 	0.50007	0.19766	0.20503	-0.02
Mof_S 	S 	0.75883	0.29184	0.21319	-0.024
Mof_S 	S 	0.9958	0.29208	0.30581	-0.022
Mof_N 	N 	0.2508	0.17016	0.15309	-0.197
Mof_N 	N 	0.2528	0.34037	0.33632	-0.2
Mof_C 	C 	0.324	0.1908	0.15991	0.093
Mof_C 	C 	0.4145	0.216	0.1692	-0.042
Mof_C 	C 	0.4453	0.2556	0.15326	-0.027
Mof_H 	H 	0.4081	0.2708	0.1329	0.038
Mof_C 	C 	0.5381	0.2717	0.17027	-0.068
Mof_H 	H 	0.5706	0.2989	0.1626	0.052
Mof_C 	C 	0.5772	0.2442	0.19899	0.008
Mof_C 	C 	0.6688	0.25019	0.22369	0.006
Mof_C 	C 	0.6979	0.2262	0.2568	-0.049
Mof_H 	H 	0.6594	0.2014	0.2668	0.049
Mof_C 	C 	0.7912	0.2423	0.27434	-0.049
Mof_H 	H 	0.8214	0.2298	0.2975	0.048
Mof_C 	C 	0.8338	0.2781	0.25413	0.006
Mof_C 	C 	0.9304	0.30226	0.26211	0.009
Mof_C 	C 	0.9816	0.3328	0.23945	-0.066
Mof_H 	H 	0.956	0.3431	0.2147	0.053
Mof_C 	C 	0.0755	0.3475	0.25604	-0.025
Mof_H 	H 	0.1218	0.3679	0.2436	0.039
Mof_C 	C 	0.0927	0.329	0.2922	-0.041
Mof_C 	C 	0.1819	0.33512	0.31669	0.097
Mof_S 	S 	0.50007	0.69766	0.70503	-0.02
Mof_S 	S 	0.75883	0.79184	0.71319	-0.024
Mof_S 	S 	0.9958	0.79208	0.80581	-0.023
Mof_N 	N 	0.2508	0.67016	0.65309	-0.197
Mof_N 	N 	0.2528	0.84037	0.83632	-0.2
Mof_C 	C 	0.324	0.6908	0.65991	0.094
Mof_C 	C 	0.4145	0.716	0.6692	-0.042
Mof_C 	C 	0.4453	0.7556	0.65326	-0.027
Mof_H 	H 	0.4081	0.7708	0.6329	0.038
Mof_C 	C 	0.5381	0.7717	0.67027	-0.068
Mof_H 	H 	0.5706	0.7989	0.6626	0.052
Mof_C 	C 	0.5772	0.7442	0.69899	0.008
Mof_C 	C 	0.6688	0.75019	0.72369	0.006
Mof_C 	C 	0.6979	0.7262	0.7568	-0.05
Mof_H 	H 	0.6594	0.7014	0.7668	0.049
Mof_C 	C 	0.7912	0.7423	0.77434	-0.049
Mof_H 	H 	0.8214	0.7298	0.7975	0.048
Mof_C 	C 	0.8338	0.7781	0.75413	0.006
Mof_C 	C 	0.9304	0.80226	0.76211	0.009
Mof_C 	C 	0.9816	0.8328	0.73945	-0.066
Mof_H 	H 	0.956	0.8431	0.7147	0.053
Mof_C 	C 	0.0755	0.8475	0.75604	-0.025
Mof_H 	H 	0.1218	0.8679	0.7436	0.039
Mof_C 	C 	0.0927	0.829	0.7922	-0.041
Mof_C 	C 	0.1819	0.83512	0.81669	0.097
Mof_S 	S 	0.74993	0.55234	0.70503	-0.02
Mof_S 	S 	0.49117	0.45816	0.71319	-0.024
Mof_S 	S 	0.2542	0.45792	0.80581	-0.022
Mof_N 	N 	0.9992	0.57984	0.65309	-0.197
Mof_N 	N 	0.9972	0.40963	0.83632	-0.2
Mof_C 	C 	0.926	0.5592	0.65991	0.093
Mof_C 	C 	0.8355	0.534	0.6692	-0.042
Mof_C 	C 	0.8047	0.4944	0.65326	-0.027
Mof_H 	H 	0.8419	0.4792	0.6329	0.038
Mof_C 	C 	0.7119	0.4783	0.67027	-0.068
Mof_H 	H 	0.6794	0.4511	0.6626	0.052
Mof_C 	C 	0.6728	0.5058	0.69899	0.008
Mof_C 	C 	0.5812	0.49981	0.72369	0.006
Mof_C 	C 	0.5521	0.5238	0.7568	-0.049
Mof_H 	H 	0.5906	0.5486	0.7668	0.049
Mof_C 	C 	0.4588	0.5077	0.77434	-0.049
Mof_H 	H 	0.4286	0.5202	0.7975	0.048
Mof_C 	C 	0.4162	0.4719	0.75413	0.006
Mof_C 	C 	0.3196	0.44774	0.76211	0.009
Mof_C 	C 	0.2684	0.4172	0.73945	-0.066
Mof_H 	H 	0.294	0.4069	0.7147	0.053
Mof_C 	C 	0.1745	0.4025	0.75604	-0.025
Mof_H 	H 	0.1282	0.3821	0.7436	0.039
Mof_C 	C 	0.1573	0.421	0.7922	-0.041
Mof_C 	C 	0.0681	0.41488	0.81669	0.097
Mof_S 	S 	0.74993	0.05234	0.20503	-0.02
Mof_S 	S 	0.49117	0.95816	0.21319	-0.024
Mof_S 	S 	0.2542	0.95792	0.30581	-0.022
Mof_N 	N 	0.9992	0.07984	0.15309	-0.196
Mof_N 	N 	0.9972	0.90963	0.33632	-0.2
Mof_C 	C 	0.926	0.0592	0.15991	0.094
Mof_C 	C 	0.8355	0.034	0.1692	-0.042
Mof_C 	C 	0.8047	0.9944	0.15326	-0.027
Mof_H 	H 	0.8419	0.9792	0.1329	0.038
Mof_C 	C 	0.7119	0.9783	0.17027	-0.068
Mof_H 	H 	0.6794	0.9511	0.1626	0.052
Mof_C 	C 	0.6728	0.0058	0.19899	0.008
Mof_C 	C 	0.5812	0.99981	0.22369	0.006
Mof_C 	C 	0.5521	0.0238	0.2568	-0.049
Mof_H 	H 	0.5906	0.0486	0.2668	0.049
Mof_C 	C 	0.4588	0.0077	0.27434	-0.049
Mof_H 	H 	0.4286	0.0202	0.2975	0.048
Mof_C 	C 	0.4162	0.9719	0.25413	0.006
Mof_C 	C 	0.3196	0.94774	0.26211	0.009
Mof_C 	C 	0.2684	0.9172	0.23945	-0.066
Mof_H 	H 	0.294	0.9069	0.2147	0.053
Mof_C 	C 	0.1745	0.9025	0.25604	-0.025
Mof_H 	H 	0.1282	0.8821	0.2436	0.039
Mof_C 	C 	0.1573	0.921	0.2922	-0.041
Mof_C 	C 	0.0681	0.91488	0.31669	0.097
Mof_S 	S 	0.24993	0.55234	0.20503	-0.02
Mof_S 	S 	0.99117	0.45816	0.21319	-0.024
Mof_S 	S 	0.7542	0.45792	0.30581	-0.022
Mof_N 	N 	0.4992	0.57984	0.15309	-0.197
Mof_N 	N 	0.4972	0.40963	0.33632	-0.2
Mof_C 	C 	0.426	0.5592	0.15991	0.094
Mof_C 	C 	0.3355	0.534	0.1692	-0.042
Mof_C 	C 	0.3047	0.4944	0.15326	-0.027
Mof_H 	H 	0.3419	0.4792	0.1329	0.038
Mof_C 	C 	0.2119	0.4783	0.17027	-0.067
Mof_H 	H 	0.1794	0.4511	0.1626	0.052
Mof_C 	C 	0.1728	0.5058	0.19899	0.008
Mof_C 	C 	0.0812	0.49981	0.22369	0.006
Mof_C 	C 	0.0521	0.5238	0.2568	-0.049
Mof_H 	H 	0.0906	0.5486	0.2668	0.049
Mof_C 	C 	0.9588	0.5077	0.27434	-0.049
Mof_H 	H 	0.9286	0.5202	0.2975	0.048
Mof_C 	C 	0.9162	0.4719	0.25413	0.006
Mof_C 	C 	0.8196	0.44774	0.26211	0.009
Mof_C 	C 	0.7684	0.4172	0.23945	-0.066
Mof_H 	H 	0.794	0.4069	0.2147	0.053
Mof_C 	C 	0.6745	0.4025	0.25604	-0.025
Mof_H 	H 	0.6282	0.3821	0.2436	0.039
Mof_C 	C 	0.6573	0.421	0.2922	-0.041
Mof_C 	C 	0.5681	0.41488	0.31669	0.097
Mof_S 	S 	0.24993	0.05234	0.70503	-0.02
Mof_S 	S 	0.99117	0.95816	0.71319	-0.024
Mof_S 	S 	0.7542	0.95792	0.80581	-0.022
Mof_N 	N 	0.4992	0.07984	0.65309	-0.197
Mof_N 	N 	0.4972	0.90963	0.83632	-0.2
Mof_C 	C 	0.426	0.0592	0.65991	0.093
Mof_C 	C 	0.3355	0.034	0.6692	-0.042
Mof_C 	C 	0.3047	0.9944	0.65326	-0.027
Mof_H 	H 	0.3419	0.9792	0.6329	0.038
Mof_C 	C 	0.2119	0.9783	0.67027	-0.067
Mof_H 	H 	0.1794	0.9511	0.6626	0.052
Mof_C 	C 	0.1728	0.0058	0.69899	0.007
Mof_C 	C 	0.0812	0.99981	0.72369	0.006
Mof_C 	C 	0.0521	0.0238	0.7568	-0.05
Mof_H 	H 	0.0906	0.0486	0.7668	0.049
Mof_C 	C 	0.9588	0.0077	0.77434	-0.049
Mof_H 	H 	0.9286	0.0202	0.7975	0.048
Mof_C 	C 	0.9162	0.9719	0.75413	0.006
Mof_C 	C 	0.8196	0.94774	0.76211	0.009
Mof_C 	C 	0.7684	0.9172	0.73945	-0.066
Mof_H 	H 	0.794	0.9069	0.7147	0.053
Mof_C 	C 	0.6745	0.9025	0.75604	-0.025
Mof_H 	H 	0.6282	0.8821	0.7436	0.039
Mof_C 	C 	0.6573	0.921	0.7922	-0.041
Mof_C 	C 	0.5681	0.91488	0.81669	0.097
Mof_Ag	Ag	0.125	0.125	0.125	0.662
Mof_Ag	Ag	0.125	0.625	0.625	0.662
Mof_Ag	Ag	0.625	0.625	0.125	0.662
Mof_Ag	Ag	0.625	0.125	0.625	0.662
Mof_Ag	Ag	0.875	0.375	0.875	0.671
Mof_Ag	Ag	0.875	0.875	0.375	0.671
Mof_Ag	Ag	0.375	0.375	0.375	0.671
Mof_Ag	Ag	0.375	0.875	0.875	0.671
Mof_S 	S 	0.25007	0.80234	0.95503	-0.02
Mof_S 	S 	0.50883	0.70816	0.96319	-0.024
Mof_S 	S 	0.7458	0.70792	0.05581	-0.022
Mof_N 	N 	0.0008	0.82984	0.90309	-0.196
Mof_N 	N 	0.0028	0.65963	0.08632	-0.2
Mof_C 	C 	0.074	0.8092	0.90991	0.094
Mof_C 	C 	0.1645	0.784	0.9192	-0.042
Mof_C 	C 	0.1953	0.7444	0.90326	-0.027
Mof_H 	H 	0.1581	0.7292	0.8829	0.038
Mof_C 	C 	0.2881	0.7283	0.92027	-0.067
Mof_H 	H 	0.3206	0.7011	0.9126	0.052
Mof_C 	C 	0.3272	0.7558	0.94899	0.007
Mof_C 	C 	0.4188	0.74981	0.97369	0.006
Mof_C 	C 	0.4479	0.7738	0.0068	-0.05
Mof_H 	H 	0.4094	0.7986	0.0168	0.049
Mof_C 	C 	0.5412	0.7577	0.02434	-0.049
Mof_H 	H 	0.5714	0.7702	0.0475	0.048
Mof_C 	C 	0.5838	0.7219	0.00413	0.006
Mof_C 	C 	0.6804	0.69774	0.01211	0.009
Mof_C 	C 	0.7316	0.6672	0.98945	-0.066
Mof_H 	H 	0.706	0.6569	0.9647	0.053
Mof_C 	C 	0.8255	0.6525	0.00604	-0.025
Mof_H 	H 	0.8718	0.6321	0.9936	0.038
Mof_C 	C 	0.8427	0.671	0.0422	-0.041
Mof_C 	C 	0.9319	0.66488	0.06669	0.097
Mof_S 	S 	0.25007	0.30234	0.45503	-0.02
Mof_S 	S 	0.50883	0.20816	0.46319	-0.024
Mof_S 	S 	0.7458	0.20792	0.55581	-0.022
Mof_N 	N 	0.0008	0.32984	0.40309	-0.197
Mof_N 	N 	0.0028	0.15963	0.58632	-0.2
Mof_C 	C 	0.074	0.3092	0.40991	0.093
Mof_C 	C 	0.1645	0.284	0.4192	-0.042
Mof_C 	C 	0.1953	0.2444	0.40326	-0.027
Mof_H 	H 	0.1581	0.2292	0.3829	0.038
Mof_C 	C 	0.2881	0.2283	0.42027	-0.068
Mof_H 	H 	0.3206	0.2011	0.4126	0.052
Mof_C 	C 	0.3272	0.2558	0.44899	0.008
Mof_C 	C 	0.4188	0.24981	0.47369	0.006
Mof_C 	C 	0.4479	0.2738	0.5068	-0.049
Mof_H 	H 	0.4094	0.2986	0.5168	0.049
Mof_C 	C 	0.5412	0.2577	0.52434	-0.049
Mof_H 	H 	0.5714	0.2702	0.5475	0.048
Mof_C 	C 	0.5838	0.2219	0.50413	0.006
Mof_C 	C 	0.6804	0.19774	0.51211	0.009
Mof_C 	C 	0.7316	0.1672	0.48945	-0.066
Mof_H 	H 	0.706	0.1569	0.4647	0.053
Mof_C 	C 	0.8255	0.1525	0.50604	-0.025
Mof_H 	H 	0.8718	0.1321	0.4936	0.039
Mof_C 	C 	0.8427	0.171	0.5422	-0.041
Mof_C 	C 	0.9319	0.16488	0.56669	0.097
Mof_S 	S 	0.75007	0.80234	0.45503	-0.02
Mof_S 	S 	0.00883	0.70816	0.46319	-0.024
Mof_S 	S 	0.2458	0.70792	0.55581	-0.022
Mof_N 	N 	0.5008	0.82984	0.40309	-0.197
Mof_N 	N 	0.5028	0.65963	0.58632	-0.2
Mof_C 	C 	0.574	0.8092	0.40991	0.094
Mof_C 	C 	0.6645	0.784	0.4192	-0.042
Mof_C 	C 	0.6953	0.7444	0.40326	-0.027
Mof_H 	H 	0.6581	0.7292	0.3829	0.038
Mof_C 	C 	0.7881	0.7283	0.42027	-0.067
Mof_H 	H 	0.8206	0.7011	0.4126	0.052
Mof_C 	C 	0.8272	0.7558	0.44899	0.007
Mof_C 	C 	0.9188	0.74981	0.47369	0.006
Mof_C 	C 	0.9479	0.7738	0.5068	-0.049
Mof_H 	H 	0.9094	0.7986	0.5168	0.049
Mof_C 	C 	0.0412	0.7577	0.52434	-0.049
Mof_H 	H 	0.0714	0.7702	0.5475	0.048
Mof_C 	C 	0.0838	0.7219	0.50413	0.006
Mof_C 	C 	0.1804	0.69774	0.51211	0.009
Mof_C 	C 	0.2316	0.6672	0.48945	-0.066
Mof_H 	H 	0.206	0.6569	0.4647	0.053
Mof_C 	C 	0.3255	0.6525	0.50604	-0.025
Mof_H 	H 	0.3718	0.6321	0.4936	0.039
Mof_C 	C 	0.3427	0.671	0.5422	-0.041
Mof_C 	C 	0.4319	0.66488	0.56669	0.097
Mof_S 	S 	0.75007	0.30234	0.95503	-0.02
Mof_S 	S 	0.00883	0.20816	0.96319	-0.024
Mof_S 	S 	0.2458	0.20792	0.05581	-0.022
Mof_N 	N 	0.5008	0.32984	0.90309	-0.197
Mof_N 	N 	0.5028	0.15963	0.08632	-0.2
Mof_C 	C 	0.574	0.3092	0.90991	0.094
Mof_C 	C 	0.6645	0.284	0.9192	-0.042
Mof_C 	C 	0.6953	0.2444	0.90326	-0.027
Mof_H 	H 	0.6581	0.2292	0.8829	0.038
Mof_C 	C 	0.7881	0.2283	0.92027	-0.068
Mof_H 	H 	0.8206	0.2011	0.9126	0.052
Mof_C 	C 	0.8272	0.2558	0.94899	0.008
Mof_C 	C 	0.9188	0.24981	0.97369	0.006
Mof_C 	C 	0.9479	0.2738	0.0068	-0.049
Mof_H 	H 	0.9094	0.2986	0.0168	0.049
Mof_C 	C 	0.0412	0.2577	0.02434	-0.049
Mof_H 	H 	0.0714	0.2702	0.0475	0.049
Mof_C 	C 	0.0838	0.2219	0.00413	0.006
Mof_C 	C 	0.1804	0.19774	0.01211	0.009
Mof_C 	C 	0.2316	0.1672	0.98945	-0.066
Mof_H 	H 	0.206	0.1569	0.9647	0.053
Mof_C 	C 	0.3255	0.1525	0.00604	-0.025
Mof_H 	H 	0.3718	0.1321	0.9936	0.039
Mof_C 	C 	0.3427	0.171	0.0422	-0.041
Mof_C 	C 	0.4319	0.16488	0.06669	0.097
Mof_S 	S 	0.99993	0.44766	0.95503	-0.02
Mof_S 	S 	0.74117	0.54184	0.96319	-0.024
Mof_S 	S 	0.5042	0.54208	0.05581	-0.022
Mof_N 	N 	0.2492	0.42016	0.90309	-0.197
Mof_N 	N 	0.2472	0.59037	0.08632	-0.2
Mof_C 	C 	0.176	0.4408	0.90991	0.093
Mof_C 	C 	0.0855	0.466	0.9192	-0.042
Mof_C 	C 	0.0547	0.5056	0.90326	-0.027
Mof_H 	H 	0.0919	0.5208	0.8829	0.038
Mof_C 	C 	0.9619	0.5217	0.92027	-0.068
Mof_H 	H 	0.9294	0.5489	0.9126	0.052
Mof_C 	C 	0.9228	0.4942	0.94899	0.008
Mof_C 	C 	0.8312	0.50019	0.97369	0.006
Mof_C 	C 	0.8021	0.4762	0.0068	-0.049
Mof_H 	H 	0.8406	0.4514	0.0168	0.049
Mof_C 	C 	0.7088	0.4923	0.02434	-0.049
Mof_H 	H 	0.6786	0.4798	0.0475	0.048
Mof_C 	C 	0.6662	0.5281	0.00413	0.006
Mof_C 	C 	0.5696	0.55226	0.01211	0.009
Mof_C 	C 	0.5184	0.5828	0.98945	-0.066
Mof_H 	H 	0.544	0.5931	0.9647	0.053
Mof_C 	C 	0.4245	0.5975	0.00604	-0.025
Mof_H 	H 	0.3782	0.6179	0.9936	0.039
Mof_C 	C 	0.4073	0.579	0.0422	-0.041
Mof_C 	C 	0.3181	0.58512	0.06669	0.097
Mof_S 	S 	0.99993	0.94766	0.45503	-0.02
Mof_S 	S 	0.74117	0.04184	0.46319	-0.024
Mof_S 	S 	0.5042	0.04208	0.55581	-0.022
Mof_N 	N 	0.2492	0.92016	0.40309	-0.196
Mof_N 	N 	0.2472	0.09037	0.58632	-0.2
Mof_C 	C 	0.176	0.9408	0.40991	0.093
Mof_C 	C 	0.0855	0.966	0.4192	-0.042
Mof_C 	C 	0.0547	0.0056	0.40326	-0.027
Mof_H 	H 	0.0919	0.0208	0.3829	0.038
Mof_C 	C 	0.9619	0.0217	0.42027	-0.067
Mof_H 	H 	0.9294	0.0489	0.4126	0.052
Mof_C 	C 	0.9228	0.9942	0.44899	0.007
Mof_C 	C 	0.8312	0.00019	0.47369	0.006
Mof_C 	C 	0.8021	0.9762	0.5068	-0.05
Mof_H 	H 	0.8406	0.9514	0.5168	0.049
Mof_C 	C 	0.7088	0.9923	0.52434	-0.049
Mof_H 	H 	0.6786	0.9798	0.5475	0.048
Mof_C 	C 	0.6662	0.0281	0.50413	0.006
Mof_C 	C 	0.5696	0.05226	0.51211	0.009
Mof_C 	C 	0.5184	0.0828	0.48945	-0.066
Mof_H 	H 	0.544	0.0931	0.4647	0.053
Mof_C 	C 	0.4245	0.0975	0.50604	-0.025
Mof_H 	H 	0.3782	0.1179	0.4936	0.039
Mof_C 	C 	0.4073	0.079	0.5422	-0.041
Mof_C 	C 	0.3181	0.08512	0.56669	0.097
Mof_S 	S 	0.49993	0.44766	0.45503	-0.02
Mof_S 	S 	0.24117	0.54184	0.46319	-0.024
Mof_S 	S 	0.0042	0.54208	0.55581	-0.022
Mof_N 	N 	0.7492	0.42016	0.40309	-0.197
Mof_N 	N 	0.7472	0.59037	0.58632	-0.2
Mof_C 	C 	0.676	0.4408	0.40991	0.094
Mof_C 	C 	0.5855	0.466	0.4192	-0.042
Mof_C 	C 	0.5547	0.5056	0.40326	-0.027
Mof_H 	H 	0.5919	0.5208	0.3829	0.038
Mof_C 	C 	0.4619	0.5217	0.42027	-0.068
Mof_H 	H 	0.4294	0.5489	0.4126	0.052
Mof_C 	C 	0.4228	0.4942	0.44899	0.008
Mof_C 	C 	0.3312	0.50019	0.47369	0.006
Mof_C 	C 	0.3021	0.4762	0.5068	-0.049
Mof_H 	H 	0.3406	0.4514	0.5168	0.049
Mof_C 	C 	0.2088	0.4923	0.52434	-0.049
Mof_H 	H 	0.1786	0.4798	0.5475	0.048
Mof_C 	C 	0.1662	0.5281	0.50413	0.006
Mof_C 	C 	0.0696	0.55226	0.51211	0.009
Mof_C 	C 	0.0184	0.5828	0.48945	-0.066
Mof_H 	H 	0.044	0.5931	0.4647	0.053
Mof_C 	C 	0.9245	0.5975	0.50604	-0.025
Mof_H 	H 	0.8782	0.6179	0.4936	0.039
Mof_C 	C 	0.9073	0.579	0.5422	-0.041
Mof_C 	C 	0.8181	0.58512	0.56669	0.097
Mof_S 	S 	0.49993	0.94766	0.95503	-0.02
Mof_S 	S 	0.24117	0.04184	0.96319	-0.024
Mof_S 	S 	0.0042	0.04208	0.05581	-0.023
Mof_N 	N 	0.7492	0.92016	0.90309	-0.197
Mof_N 	N 	0.7472	0.09037	0.08632	-0.2
Mof_C 	C 	0.676	0.9408	0.90991	0.093
Mof_C 	C 	0.5855	0.966	0.9192	-0.042
Mof_C 	C 	0.5547	0.0056	0.90326	-0.027
Mof_H 	H 	0.5919	0.0208	0.8829	0.038
Mof_C 	C 	0.4619	0.0217	0.92027	-0.068
Mof_H 	H 	0.4294	0.0489	0.9126	0.052
Mof_C 	C 	0.4228	0.9942	0.94899	0.008
Mof_C 	C 	0.3312	0.00019	0.97369	0.006
Mof_C 	C 	0.3021	0.9762	0.0068	-0.05
Mof_H 	H 	0.3406	0.9514	0.0168	0.049
Mof_C 	C 	0.2088	0.9923	0.02434	-0.049
Mof_H 	H 	0.1786	0.9798	0.0475	0.048
Mof_C 	C 	0.1662	0.0281	0.00413	0.005
Mof_C 	C 	0.0696	0.05226	0.01211	0.009
Mof_C 	C 	0.0184	0.0828	0.98945	-0.066
Mof_H 	H 	0.044	0.0931	0.9647	0.053
Mof_C 	C 	0.9245	0.0975	0.00604	-0.025
Mof_H 	H 	0.8782	0.1179	0.9936	0.038
Mof_C 	C 	0.9073	0.079	0.0422	-0.041
Mof_C 	C 	0.8181	0.08512	0.06669	0.097
Mof_S 	S 	0.99993	0.80234	0.29497	-0.02
Mof_S 	S 	0.74117	0.70816	0.28681	-0.024
Mof_S 	S 	0.5042	0.70792	0.19419	-0.022
Mof_N 	N 	0.2492	0.82984	0.34691	-0.197
Mof_N 	N 	0.2472	0.65963	0.16368	-0.2
Mof_C 	C 	0.176	0.8092	0.34009	0.093
Mof_C 	C 	0.0855	0.784	0.3308	-0.042
Mof_C 	C 	0.0547	0.7444	0.34674	-0.027
Mof_H 	H 	0.0919	0.7292	0.3671	0.038
Mof_C 	C 	0.9619	0.7283	0.32973	-0.068
Mof_H 	H 	0.9294	0.7011	0.3374	0.052
Mof_C 	C 	0.9228	0.7558	0.30101	0.008
Mof_C 	C 	0.8312	0.74981	0.27631	0.006
Mof_C 	C 	0.8021	0.7738	0.2432	-0.049
Mof_H 	H 	0.8406	0.7986	0.2332	0.049
Mof_C 	C 	0.7088	0.7577	0.22566	-0.049
Mof_H 	H 	0.6786	0.7702	0.2025	0.048
Mof_C 	C 	0.6662	0.7219	0.24587	0.006
Mof_C 	C 	0.5696	0.69774	0.23789	0.009
Mof_C 	C 	0.5184	0.6672	0.26055	-0.066
Mof_H 	H 	0.544	0.6569	0.2853	0.053
Mof_C 	C 	0.4245	0.6525	0.24396	-0.025
Mof_H 	H 	0.3782	0.6321	0.2564	0.039
Mof_C 	C 	0.4073	0.671	0.2078	-0.041
Mof_C 	C 	0.3181	0.66488	0.18331	0.097
Mof_S 	S 	0.99993	0.30234	0.79497	-0.02
Mof_S 	S 	0.74117	0.20816	0.78681	-0.024
Mof_S 	S 	0.5042	0.20792	0.69419	-0.022
Mof_N 	N 	0.2492	0.32984	0.84691	-0.197
Mof_N 	N 	0.2472	0.15963	0.66368	-0.2
Mof_C 	C 	0.176	0.3092	0.84009	0.093
Mof_C 	C 	0.0855	0.284	0.8308	-0.042
Mof_C 	C 	0.0547	0.2444	0.84674	-0.027
Mof_H 	H 	0.0919	0.2292	0.8671	0.038
Mof_C 	C 	0.9619	0.2283	0.82973	-0.068
Mof_H 	H 	0.9294	0.2011	0.8374	0.052
Mof_C 	C 	0.9228	0.2558	0.80101	0.008
Mof_C 	C 	0.8312	0.24981	0.77631	0.006
Mof_C 	C 	0.8021	0.2738	0.7432	-0.049
Mof_H 	H 	0.8406	0.2986	0.7332	0.049
Mof_C 	C 	0.7088	0.2577	0.72566	-0.049
Mof_H 	H 	0.6786	0.2702	0.7025	0.048
Mof_C 	C 	0.6662	0.2219	0.74587	0.006
Mof_C 	C 	0.5696	0.19774	0.73789	0.009
Mof_C 	C 	0.5184	0.1672	0.76055	-0.066
Mof_H 	H 	0.544	0.1569	0.7853	0.053
Mof_C 	C 	0.4245	0.1525	0.74396	-0.025
Mof_H 	H 	0.3782	0.1321	0.7564	0.039
Mof_C 	C 	0.4073	0.171	0.7078	-0.041
Mof_C 	C 	0.3181	0.16488	0.68331	0.097
Mof_S 	S 	0.49993	0.80234	0.79497	-0.02
Mof_S 	S 	0.24117	0.70816	0.78681	-0.024
Mof_S 	S 	0.0042	0.70792	0.69419	-0.022
Mof_N 	N 	0.7492	0.82984	0.84691	-0.197
Mof_N 	N 	0.7472	0.65963	0.66368	-0.2
Mof_C 	C 	0.676	0.8092	0.84009	0.093
Mof_C 	C 	0.5855	0.784	0.8308	-0.042
Mof_C 	C 	0.5547	0.7444	0.84674	-0.027
Mof_H 	H 	0.5919	0.7292	0.8671	0.038
Mof_C 	C 	0.4619	0.7283	0.82973	-0.068
Mof_H 	H 	0.4294	0.7011	0.8374	0.052
Mof_C 	C 	0.4228	0.7558	0.80101	0.008
Mof_C 	C 	0.3312	0.74981	0.77631	0.006
Mof_C 	C 	0.3021	0.7738	0.7432	-0.049
Mof_H 	H 	0.3406	0.7986	0.7332	0.049
Mof_C 	C 	0.2088	0.7577	0.72566	-0.049
Mof_H 	H 	0.1786	0.7702	0.7025	0.048
Mof_C 	C 	0.1662	0.7219	0.74587	0.006
Mof_C 	C 	0.0696	0.69774	0.73789	0.009
Mof_C 	C 	0.0184	0.6672	0.76055	-0.066
Mof_H 	H 	0.044	0.6569	0.7853	0.053
Mof_C 	C 	0.9245	0.6525	0.74396	-0.025
Mof_H 	H 	0.8782	0.6321	0.7564	0.039
Mof_C 	C 	0.9073	0.671	0.7078	-0.041
Mof_C 	C 	0.8181	0.66488	0.68331	0.097
Mof_S 	S 	0.49993	0.30234	0.29497	-0.02
Mof_S 	S 	0.24117	0.20816	0.28681	-0.024
Mof_S 	S 	0.0042	0.20792	0.19419	-0.023
Mof_N 	N 	0.7492	0.32984	0.34691	-0.197
Mof_N 	N 	0.7472	0.15963	0.16368	-0.2
Mof_C 	C 	0.676	0.3092	0.34009	0.094
Mof_C 	C 	0.5855	0.284	0.3308	-0.042
Mof_C 	C 	0.5547	0.2444	0.34674	-0.027
Mof_H 	H 	0.5919	0.2292	0.3671	0.038
Mof_C 	C 	0.4619	0.2283	0.32973	-0.068
Mof_H 	H 	0.4294	0.2011	0.3374	0.052
Mof_C 	C 	0.4228	0.2558	0.30101	0.008
Mof_C 	C 	0.3312	0.24981	0.27631	0.006
Mof_C 	C 	0.3021	0.2738	0.2432	-0.05
Mof_H 	H 	0.3406	0.2986	0.2332	0.049
Mof_C 	C 	0.2088	0.2577	0.22566	-0.049
Mof_H 	H 	0.1786	0.2702	0.2025	0.048
Mof_C 	C 	0.1662	0.2219	0.24587	0.006
Mof_C 	C 	0.0696	0.19774	0.23789	0.009
Mof_C 	C 	0.0184	0.1672	0.26055	-0.066
Mof_H 	H 	0.044	0.1569	0.2853	0.053
Mof_C 	C 	0.9245	0.1525	0.24396	-0.025
Mof_H 	H 	0.8782	0.1321	0.2564	0.039
Mof_C 	C 	0.9073	0.171	0.2078	-0.041
Mof_C 	C 	0.8181	0.16488	0.18331	0.097
Mof_S 	S 	0.25007	0.44766	0.29497	-0.02
Mof_S 	S 	0.50883	0.54184	0.28681	-0.024
Mof_S 	S 	0.7458	0.54208	0.19419	-0.022
Mof_N 	N 	0.0008	0.42016	0.34691	-0.197
Mof_N 	N 	0.0028	0.59037	0.16368	-0.2
Mof_C 	C 	0.074	0.4408	0.34009	0.093
Mof_C 	C 	0.1645	0.466	0.3308	-0.042
Mof_C 	C 	0.1953	0.5056	0.34674	-0.027
Mof_H 	H 	0.1581	0.5208	0.3671	0.038
Mof_C 	C 	0.2881	0.5217	0.32973	-0.068
Mof_H 	H 	0.3206	0.5489	0.3374	0.052
Mof_C 	C 	0.3272	0.4942	0.30101	0.008
Mof_C 	C 	0.4188	0.50019	0.27631	0.006
Mof_C 	C 	0.4479	0.4762	0.2432	-0.049
Mof_H 	H 	0.4094	0.4514	0.2332	0.049
Mof_C 	C 	0.5412	0.4923	0.22566	-0.049
Mof_H 	H 	0.5714	0.4798	0.2025	0.048
Mof_C 	C 	0.5838	0.5281	0.24587	0.006
Mof_C 	C 	0.6804	0.55226	0.23789	0.009
Mof_C 	C 	0.7316	0.5828	0.26055	-0.066
Mof_H 	H 	0.706	0.5931	0.2853	0.053
Mof_C 	C 	0.8255	0.5975	0.24396	-0.025
Mof_H 	H 	0.8718	0.6179	0.2564	0.039
Mof_C 	C 	0.8427	0.579	0.2078	-0.041
Mof_C 	C 	0.9319	0.58512	0.18331	0.097
Mof_S 	S 	0.25007	0.94766	0.79497	-0.02
Mof_S 	S 	0.50883	0.04184	0.78681	-0.024
Mof_S 	S 	0.7458	0.04208	0.69419	-0.022
Mof_N 	N 	0.0008	0.92016	0.84691	-0.196
Mof_N 	N 	0.0028	0.09037	0.66368	-0.2
Mof_C 	C 	0.074	0.9408	0.84009	0.094
Mof_C 	C 	0.1645	0.966	0.8308	-0.042
Mof_C 	C 	0.1953	0.0056	0.84674	-0.027
Mof_H 	H 	0.1581	0.0208	0.8671	0.038
Mof_C 	C 	0.2881	0.0217	0.82973	-0.068
Mof_H 	H 	0.3206	0.0489	0.8374	0.052
Mof_C 	C 	0.3272	0.9942	0.80101	0.008
Mof_C 	C 	0.4188	0.00019	0.77631	0.006
Mof_C 	C 	0.4479	0.9762	0.7432	-0.049
Mof_H 	H 	0.4094	0.9514	0.7332	0.049
Mof_C 	C 	0.5412	0.9923	0.72566	-0.049
Mof_H 	H 	0.5714	0.9798	0.7025	0.048
Mof_C 	C 	0.5838	0.0281	0.74587	0.006
Mof_C 	C 	0.6804	0.05226	0.73789	0.009
Mof_C 	C 	0.7316	0.0828	0.76055	-0.066
Mof_H 	H 	0.706	0.0931	0.7853	0.053
Mof_C 	C 	0.8255	0.0975	0.74396	-0.025
Mof_H 	H 	0.8718	0.1179	0.7564	0.039
Mof_C 	C 	0.8427	0.079	0.7078	-0.041
Mof_C 	C 	0.9319	0.08512	0.68331	0.097
Mof_S 	S 	0.75007	0.44766	0.79497	-0.02
Mof_S 	S 	0.00883	0.54184	0.78681	-0.024
Mof_S 	S 	0.2458	0.54208	0.69419	-0.022
Mof_N 	N 	0.5008	0.42016	0.84691	-0.197
Mof_N 	N 	0.5028	0.59037	0.66368	-0.2
Mof_C 	C 	0.574	0.4408	0.84009	0.094
Mof_C 	C 	0.6645	0.466	0.8308	-0.042
Mof_C 	C 	0.6953	0.5056	0.84674	-0.027
Mof_H 	H 	0.6581	0.5208	0.8671	0.038
Mof_C 	C 	0.7881	0.5217	0.82973	-0.067
Mof_H 	H 	0.8206	0.5489	0.8374	0.052
Mof_C 	C 	0.8272	0.4942	0.80101	0.008
Mof_C 	C 	0.9188	0.50019	0.77631	0.006
Mof_C 	C 	0.9479	0.4762	0.7432	-0.049
Mof_H 	H 	0.9094	0.4514	0.7332	0.049
Mof_C 	C 	0.0412	0.4923	0.72566	-0.049
Mof_H 	H 	0.0714	0.4798	0.7025	0.048
Mof_C 	C 	0.0838	0.5281	0.74587	0.006
Mof_C 	C 	0.1804	0.55226	0.73789	0.009
Mof_C 	C 	0.2316	0.5828	0.76055	-0.066
Mof_H 	H 	0.206	0.5931	0.7853	0.053
Mof_C 	C 	0.3255	0.5975	0.74396	-0.025
Mof_H 	H 	0.3718	0.6179	0.7564	0.039
Mof_C 	C 	0.3427	0.579	0.7078	-0.041
Mof_C 	C 	0.4319	0.58512	0.68331	0.097
Mof_S 	S 	0.75007	0.94766	0.29497	-0.02
Mof_S 	S 	0.00883	0.04184	0.28681	-0.024
Mof_S 	S 	0.2458	0.04208	0.19419	-0.022
Mof_N 	N 	0.5008	0.92016	0.34691	-0.197
Mof_N 	N 	0.5028	0.09037	0.16368	-0.2
Mof_C 	C 	0.574	0.9408	0.34009	0.093
Mof_C 	C 	0.6645	0.966	0.3308	-0.042
Mof_C 	C 	0.6953	0.0056	0.34674	-0.027
Mof_H 	H 	0.6581	0.0208	0.3671	0.038
Mof_C 	C 	0.7881	0.0217	0.32973	-0.067
Mof_H 	H 	0.8206	0.0489	0.3374	0.052
Mof_C 	C 	0.8272	0.9942	0.30101	0.007
Mof_C 	C 	0.9188	0.00019	0.27631	0.006
Mof_C 	C 	0.9479	0.9762	0.2432	-0.05
Mof_H 	H 	0.9094	0.9514	0.2332	0.049
Mof_C 	C 	0.0412	0.9923	0.22566	-0.049
Mof_H 	H 	0.0714	0.9798	0.2025	0.048
Mof_C 	C 	0.0838	0.0281	0.24587	0.006
Mof_C 	C 	0.1804	0.05226	0.23789	0.009
Mof_C 	C 	0.2316	0.0828	0.26055	-0.066
Mof_H 	H 	0.206	0.0931	0.2853	0.053
Mof_C 	C 	0.3255	0.0975	0.24396	-0.025
Mof_H 	H 	0.3718	0.1179	0.2564	0.039
Mof_C 	C 	0.3427	0.079	0.2078	-0.041
Mof_C 	C 	0.4319	0.08512	0.18331	0.097
Mof_Ag	Ag	0.875	0.875	0.875	0.662
Mof_Ag	Ag	0.875	0.375	0.375	0.662
Mof_Ag	Ag	0.375	0.375	0.875	0.662
Mof_Ag	Ag	0.375	0.875	0.375	0.662
Mof_Ag	Ag	0.125	0.625	0.125	0.671
Mof_Ag	Ag	0.125	0.125	0.625	0.671
Mof_Ag	Ag	0.625	0.625	0.625	0.671
Mof_Ag	Ag	0.625	0.125	0.125	0.671
_end
