data_functionalizedCrystal
_audit_creation_method	'EQeq! by Chris Wilmer'
_symmetry_space_group_name_H-M	'P1'
_symmetry_Int_Tables_number	1
_symmetry_cell_setting	triclinic
loop_
_symmetry_equiv_pos_as_xyz
  x,y,z
_cell_length_a	6.9107
_cell_length_b	15.2451
_cell_length_c	15.2451
_cell_angle_alpha	62.2411
_cell_angle_beta	81.3092
_cell_angle_gamma	98.6908
loop_
_atom_site_label
_atom_site_type_symbol
_atom_site_fract_x
_atom_site_fract_y
_atom_site_fract_z
_atom_site_charge
Mof_Fe	Fe	0.8892	0.6792	0.5877	0.795
Mof_Fe	Fe	0.4769	0.5877	0.7331	0.795
Mof_Fe	Fe	0.21	0.7331	0.6792	0.795
Mof_Fe	Fe	0.1108	0.3208	0.4123	0.795
Mof_Fe	Fe	0.5231	0.4123	0.2669	0.796
Mof_Fe	Fe	0.79	0.2669	0.3208	0.796
Mof_H 	H 	0.6482	0.0307	0.5381	0.058
Mof_H 	H 	0.1863	0.5381	0.4312	0.058
Mof_H 	H 	0.6175	0.4312	0.0307	0.058
Mof_H 	H 	0.3518	0.9693	0.4619	0.058
Mof_H 	H 	0.8137	0.4619	0.5688	0.058
Mof_H 	H 	0.3825	0.5688	0.9693	0.058
Mof_C 	C 	0.6236	0.8251	0.6193	0.567
Mof_C 	C 	0.8413	0.9121	0.5512	-0.178
Mof_C 	C 	0.0355	0.9009	0.5364	0.228
Mof_C 	C 	0.7989	0.0059	0.5262	-0.056
Mof_C 	C 	0.2429	0.6193	0.5556	0.567
Mof_C 	C 	0.3925	0.5512	0.5367	-0.178
Mof_C 	C 	0.5719	0.5364	0.5627	0.228
Mof_C 	C 	0.3251	0.5262	0.4679	-0.056
Mof_C 	C 	0.7985	0.5556	0.8251	0.567
Mof_C 	C 	0.9292	0.5367	0.9121	-0.176
Mof_C 	C 	0.1346	0.5627	0.9009	0.227
Mof_C 	C 	0.793	0.4679	0.0059	-0.058
Mof_C 	C 	0.3764	0.1749	0.3807	0.567
Mof_C 	C 	0.1587	0.0879	0.4488	-0.178
Mof_C 	C 	0.9645	0.0991	0.4636	0.228
Mof_C 	C 	0.2011	0.9941	0.4738	-0.056
Mof_C 	C 	0.7571	0.3807	0.4444	0.567
Mof_C 	C 	0.6075	0.4488	0.4633	-0.178
Mof_C 	C 	0.4281	0.4636	0.4373	0.228
Mof_C 	C 	0.6749	0.4738	0.5321	-0.056
Mof_C 	C 	0.2015	0.4444	0.1749	0.567
Mof_C 	C 	0.0708	0.4633	0.0879	-0.176
Mof_C 	C 	0.8654	0.4373	0.0991	0.227
Mof_C 	C 	0.207	0.5321	0.9941	-0.058
Mof_O 	O 	0.68	0.7477	0.6487	-0.492
Mof_O 	O 	0.4716	0.8389	0.6301	-0.508
Mof_O 	O 	0.0722	0.8125	0.5629	-0.414
Mof_O 	O 	0.3287	0.6487	0.6036	-0.492
Mof_O 	O 	0.1017	0.6301	0.531	-0.508
Mof_O 	O 	0.6351	0.5629	0.6246	-0.414
Mof_O 	O 	0.9323	0.6036	0.7477	-0.492
Mof_O 	O 	0.6327	0.531	0.8389	-0.508
Mof_O 	O 	0.2597	0.6246	0.8125	-0.414
Mof_O 	O 	0.32	0.2523	0.3513	-0.492
Mof_O 	O 	0.5284	0.1611	0.3699	-0.508
Mof_O 	O 	0.9278	0.1875	0.4371	-0.414
Mof_O 	O 	0.6713	0.3513	0.3964	-0.492
Mof_O 	O 	0.8983	0.3699	0.469	-0.508
Mof_O 	O 	0.3649	0.4371	0.3754	-0.414
Mof_O 	O 	0.0677	0.3964	0.2523	-0.492
Mof_O 	O 	0.3673	0.469	0.1611	-0.508
Mof_O 	O 	0.7403	0.3754	0.1875	-0.414
_end
