data_functionalizedCrystal
_audit_creation_method	'EQeq! by Chris Wilmer'
_symmetry_space_group_name_H-M	'P1'
_symmetry_Int_Tables_number	1
_symmetry_cell_setting	triclinic
loop_
_symmetry_equiv_pos_as_xyz
  x,y,z
_cell_length_a	35.7936
_cell_length_b	14.8908
_cell_length_c	31.3707
_cell_angle_alpha	90
_cell_angle_beta	102.673
_cell_angle_gamma	90
loop_
_atom_site_label
_atom_site_type_symbol
_atom_site_fract_x
_atom_site_fract_y
_atom_site_fract_z
_atom_site_charge
Mof_I 	I 	0.73682	0.76626	0.30057	-0.376
Mof_I 	I 	0.61663	0.26252	0.56143	0.234
Mof_I 	I 	0.63109	0.82789	0.20006	-0.407
Mof_I 	I 	0.52519	0.35683	0.62924	-0.685
Mof_I 	I 	0.89665	0.26665	0.89506	-0.519
Mof_I 	I 	0.8629	0.41137	0.00677	-0.362
Mof_Zn	Zn	0.88018	0.40964	0.93245	1.164
Mof_Zn	Zn	0.6751	0.85367	0.27473	1.165
Mof_Zn	Zn	0.58495	0.38196	0.59525	1.144
Mof_N 	N 	0.5733	0.4878	0.5513	-0.277
Mof_N 	N 	0.64166	0.8338	0.3194	-0.284
Mof_N 	N 	0.72255	0.5541	0.77339	-0.14
Mof_N 	N 	0.68641	0.0091	0.7801	-0.273
Mof_N 	N 	0.83588	0.4724	0.8904	-0.281
Mof_N 	N 	0.73696	0.693	0.8108	-0.137
Mof_N 	N 	0.54017	0.8459	0.407	-0.129
Mof_N 	N 	0.6229	0.4478	0.6441	-0.277
Mof_N 	N 	0.68334	0.681	0.7516	-0.133
Mof_N 	N 	0.57786	0.7192	0.4364	-0.131
Mof_C 	C 	0.7833	0.4702	0.8282	-0.137
Mof_H 	H 	0.7685	0.4383	0.805	0.099
Mof_C 	C 	0.77518	0.5607	0.8354	0.062
Mof_N 	N 	0.42485	0.0027	0.4353	-0.285
Mof_C 	C 	0.8282	0.5566	0.8968	0.091
Mof_H 	H 	0.8435	0.5865	0.9203	-0.009
Mof_C 	C 	0.70749	0.7269	0.7827	0.105
Mof_C 	C 	0.487	0.8913	0.4372	0.071
Mof_C 	C 	0.6779	0.4558	0.7033	-0.138
Mof_H 	H 	0.6994	0.4278	0.7199	0.087
Mof_C 	C 	0.69267	0.5955	0.7483	0.102
Mof_C 	C 	0.56936	0.7879	0.4093	0.109
Mof_C 	C 	0.7	0.8252	0.7835	0.069
Mof_C 	C 	0.5204	0.8322	0.4378	0.088
Mof_C 	C 	0.7981	0.604	0.8703	-0.137
Mof_H 	H 	0.7937	0.6638	0.8762	0.101
Mof_C 	C 	0.6357	0.5807	0.6869	-0.135
Mof_H 	H 	0.6287	0.6392	0.692	0.105
Mof_C 	C 	0.4412	0.9572	0.4709	0.089
Mof_H 	H 	0.4311	0.9634	0.4957	-0.014
Mof_C 	C 	0.6686	0.5431	0.7125	0.07
Mof_C 	C 	0.6543	0.4109	0.6684	0.082
Mof_H 	H 	0.6607	0.3527	0.662	-0.015
Mof_C 	C 	0.6624	0.9535	0.7538	0.07
Mof_H 	H 	0.6413	0.9773	0.7345	-0.015
Mof_C 	C 	0.5621	0.6349	0.4954	0.059
Mof_C 	C 	0.5999	0.5128	0.5297	0.075
Mof_H 	H 	0.6224	0.4794	0.5337	-0.01
Mof_C 	C 	0.8137	0.4299	0.8565	0.08
Mof_H 	H 	0.819	0.3701	0.8518	-0.008
Mof_C 	C 	0.55578	0.7126	0.4651	0.095
Mof_C 	C 	0.717	0.9748	0.8068	0.085
Mof_H 	H 	0.734	0.0137	0.8245	-0.016
Mof_C 	C 	0.7431	0.6051	0.8049	0.086
Mof_C 	C 	0.5349	0.6092	0.5178	-0.128
Mof_H 	H 	0.5122	0.6415	0.5145	0.074
Mof_C 	C 	0.4721	0.9016	0.4732	-0.159
Mof_H 	H 	0.4828	0.8715	0.499	0.088
Mof_C 	C 	0.7247	0.8838	0.8095	-0.137
Mof_H 	H 	0.7465	0.8623	0.8287	0.089
Mof_C 	C 	0.5412	0.536	0.5448	0.079
Mof_H 	H 	0.5222	0.5192	0.5593	-0.011
Mof_C 	C 	0.6682	0.8611	0.7547	-0.128
Mof_H 	H 	0.6511	0.8237	0.7362	0.091
Mof_C 	C 	0.6138	0.5308	0.6542	0.089
Mof_H 	H 	0.5914	0.5561	0.6381	-0.008
Mof_N 	N 	0.52747	0.7691	0.4687	-0.149
Mof_C 	C 	0.5945	0.8025	0.3776	0.087
Mof_C 	C 	0.596	0.5854	0.5018	-0.127
Mof_H 	H 	0.6153	0.6009	0.4877	0.087
Mof_C 	C 	0.652	0.7799	0.3541	0.093
Mof_H 	H 	0.6758	0.752	0.3587	-0.017
Mof_C 	C 	0.6296	0.7638	0.383	-0.146
Mof_H 	H 	0.6383	0.726	0.4067	0.098
Mof_C 	C 	0.4388	0.9901	0.4003	0.094
Mof_H 	H 	0.4274	0.0202	0.3748	-0.023
Mof_C 	C 	0.5833	0.8602	0.3419	-0.144
Mof_H 	H 	0.5598	0.8895	0.3369	0.097
Mof_C 	C 	0.4693	0.9345	0.3996	-0.156
Mof_H 	H 	0.4779	0.9263	0.374	0.099
Mof_C 	C 	0.608	0.8726	0.3142	0.1
Mof_H 	H 	0.6004	0.9108	0.2905	-0.025
Mof_I 	I 	0.8866	0.2714	0.9098	0.131
Mof_I 	I 	0.63399	0.2762	0.55535	-0.575
Mof_I 	I 	0.53475	0.34	0.61589	0.312
Mof_I 	I 	0.23682	0.26626	0.30057	-0.377
Mof_I 	I 	0.11663	0.76252	0.56143	0.233
Mof_I 	I 	0.13109	0.32789	0.20006	-0.409
Mof_I 	I 	0.02519	0.85683	0.62924	-0.686
Mof_I 	I 	0.39665	0.76665	0.89506	-0.52
Mof_I 	I 	0.3629	0.91137	0.00677	-0.363
Mof_Zn	Zn	0.38018	0.90964	0.93245	1.163
Mof_Zn	Zn	0.1751	0.35367	0.27473	1.164
Mof_Zn	Zn	0.08495	0.88196	0.59525	1.143
Mof_N 	N 	0.0733	0.9878	0.5513	-0.278
Mof_N 	N 	0.14166	0.3338	0.3194	-0.285
Mof_N 	N 	0.22255	0.0541	0.77339	-0.141
Mof_N 	N 	0.18641	0.5091	0.7801	-0.274
Mof_N 	N 	0.33588	0.9724	0.8904	-0.282
Mof_N 	N 	0.23696	0.193	0.8108	-0.138
Mof_N 	N 	0.04017	0.3459	0.407	-0.13
Mof_N 	N 	0.1229	0.9478	0.6441	-0.278
Mof_N 	N 	0.18334	0.181	0.7516	-0.134
Mof_N 	N 	0.07786	0.2192	0.4364	-0.132
Mof_C 	C 	0.2833	0.9702	0.8282	-0.138
Mof_H 	H 	0.2685	0.9383	0.805	0.098
Mof_C 	C 	0.27518	0.0607	0.8354	0.061
Mof_N 	N 	0.92485	0.5027	0.4353	-0.286
Mof_C 	C 	0.3282	0.0566	0.8968	0.091
Mof_H 	H 	0.3435	0.0865	0.9203	-0.01
Mof_C 	C 	0.20749	0.2269	0.7827	0.104
Mof_C 	C 	0.987	0.3913	0.4372	0.07
Mof_C 	C 	0.1779	0.9558	0.7033	-0.139
Mof_H 	H 	0.1994	0.9278	0.7199	0.086
Mof_C 	C 	0.19267	0.0955	0.7483	0.101
Mof_C 	C 	0.06936	0.2879	0.4093	0.108
Mof_C 	C 	0.2	0.3252	0.7835	0.068
Mof_C 	C 	0.0204	0.3322	0.4378	0.087
Mof_C 	C 	0.2981	0.104	0.8703	-0.138
Mof_H 	H 	0.2937	0.1638	0.8762	0.101
Mof_C 	C 	0.1357	0.0807	0.6869	-0.135
Mof_H 	H 	0.1287	0.1392	0.692	0.105
Mof_C 	C 	0.9412	0.4572	0.4709	0.089
Mof_H 	H 	0.9311	0.4634	0.4957	-0.014
Mof_C 	C 	0.1686	0.0431	0.7125	0.07
Mof_C 	C 	0.1543	0.9109	0.6684	0.082
Mof_H 	H 	0.1607	0.8527	0.662	-0.015
Mof_C 	C 	0.1624	0.4535	0.7538	0.07
Mof_H 	H 	0.1413	0.4773	0.7345	-0.015
Mof_C 	C 	0.0621	0.1349	0.4954	0.059
Mof_C 	C 	0.0999	0.0128	0.5297	0.075
Mof_H 	H 	0.1224	0.9794	0.5337	-0.01
Mof_C 	C 	0.3137	0.9299	0.8565	0.08
Mof_H 	H 	0.319	0.8701	0.8518	-0.008
Mof_C 	C 	0.05578	0.2126	0.4651	0.095
Mof_C 	C 	0.217	0.4748	0.8068	0.085
Mof_H 	H 	0.234	0.5137	0.8245	-0.016
Mof_C 	C 	0.2431	0.1051	0.8049	0.086
Mof_C 	C 	0.0349	0.1092	0.5178	-0.128
Mof_H 	H 	0.0122	0.1415	0.5145	0.074
Mof_C 	C 	0.9721	0.4016	0.4732	-0.159
Mof_H 	H 	0.9828	0.3715	0.499	0.088
Mof_C 	C 	0.2247	0.3838	0.8095	-0.138
Mof_H 	H 	0.2465	0.3623	0.8287	0.089
Mof_C 	C 	0.0412	0.036	0.5448	0.079
Mof_H 	H 	0.0222	0.0192	0.5593	-0.011
Mof_C 	C 	0.1682	0.3611	0.7547	-0.128
Mof_H 	H 	0.1511	0.3237	0.7362	0.091
Mof_C 	C 	0.1138	0.0308	0.6542	0.089
Mof_H 	H 	0.0914	0.0561	0.6381	-0.008
Mof_N 	N 	0.02747	0.2691	0.4687	-0.149
Mof_C 	C 	0.0945	0.3025	0.3776	0.087
Mof_C 	C 	0.096	0.0854	0.5018	-0.127
Mof_H 	H 	0.1153	0.1009	0.4877	0.087
Mof_C 	C 	0.152	0.2799	0.3541	0.093
Mof_H 	H 	0.1758	0.252	0.3587	-0.017
Mof_C 	C 	0.1296	0.2638	0.383	-0.146
Mof_H 	H 	0.1383	0.226	0.4067	0.098
Mof_C 	C 	0.9388	0.4901	0.4003	0.094
Mof_H 	H 	0.9274	0.5202	0.3748	-0.023
Mof_C 	C 	0.0833	0.3602	0.3419	-0.144
Mof_H 	H 	0.0598	0.3895	0.3369	0.097
Mof_C 	C 	0.9693	0.4345	0.3996	-0.156
Mof_H 	H 	0.9779	0.4263	0.374	0.099
Mof_C 	C 	0.108	0.3726	0.3142	0.1
Mof_H 	H 	0.1004	0.4108	0.2905	-0.025
Mof_I 	I 	0.3866	0.7714	0.9098	0.131
Mof_I 	I 	0.13399	0.7762	0.55535	-0.575
Mof_I 	I 	0.03475	0.84	0.61589	0.312
Mof_I 	I 	0.73682	0.23374	0.80057	-0.377
Mof_I 	I 	0.61663	0.73748	0.06143	0.233
Mof_I 	I 	0.63109	0.17211	0.70006	-0.409
Mof_I 	I 	0.52519	0.64317	0.12924	-0.686
Mof_I 	I 	0.89665	0.73335	0.39506	-0.52
Mof_I 	I 	0.8629	0.58863	0.50677	-0.363
Mof_Zn	Zn	0.88018	0.59036	0.43245	1.163
Mof_Zn	Zn	0.6751	0.14633	0.77473	1.164
Mof_Zn	Zn	0.58495	0.61804	0.09525	1.143
Mof_N 	N 	0.5733	0.5122	0.0513	-0.278
Mof_N 	N 	0.64166	0.1662	0.8194	-0.285
Mof_N 	N 	0.72255	0.4459	0.27339	-0.141
Mof_N 	N 	0.68641	0.9909	0.2801	-0.274
Mof_N 	N 	0.83588	0.5276	0.3904	-0.282
Mof_N 	N 	0.73696	0.307	0.3108	-0.138
Mof_N 	N 	0.54017	0.1541	0.907	-0.13
Mof_N 	N 	0.6229	0.5522	0.1441	-0.278
Mof_N 	N 	0.68334	0.319	0.2516	-0.134
Mof_N 	N 	0.57786	0.2808	0.9364	-0.132
Mof_C 	C 	0.7833	0.5298	0.3282	-0.138
Mof_H 	H 	0.7685	0.5617	0.305	0.098
Mof_C 	C 	0.77518	0.4393	0.3354	0.061
Mof_N 	N 	0.42485	0.9973	0.9353	-0.287
Mof_C 	C 	0.8282	0.4434	0.3968	0.09
Mof_H 	H 	0.8435	0.4135	0.4203	-0.01
Mof_C 	C 	0.70749	0.2731	0.2827	0.104
Mof_C 	C 	0.487	0.1087	0.9372	0.07
Mof_C 	C 	0.6779	0.5442	0.2033	-0.139
Mof_H 	H 	0.6994	0.5722	0.2199	0.086
Mof_C 	C 	0.69267	0.4045	0.2483	0.101
Mof_C 	C 	0.56936	0.2121	0.9093	0.108
Mof_C 	C 	0.7	0.1748	0.2835	0.068
Mof_C 	C 	0.5204	0.1678	0.9378	0.087
Mof_C 	C 	0.7981	0.396	0.3703	-0.138
Mof_H 	H 	0.7937	0.3362	0.3762	0.101
Mof_C 	C 	0.6357	0.4193	0.1869	-0.135
Mof_H 	H 	0.6287	0.3608	0.192	0.105
Mof_C 	C 	0.4412	0.0428	0.9709	0.089
Mof_H 	H 	0.4311	0.0366	0.9957	-0.014
Mof_C 	C 	0.6686	0.4569	0.2125	0.07
Mof_C 	C 	0.6543	0.5891	0.1684	0.082
Mof_H 	H 	0.6607	0.6473	0.162	-0.015
Mof_C 	C 	0.6624	0.0465	0.2538	0.07
Mof_H 	H 	0.6413	0.0227	0.2345	-0.015
Mof_C 	C 	0.5621	0.3651	0.9954	0.059
Mof_C 	C 	0.5999	0.4872	0.0297	0.075
Mof_H 	H 	0.6224	0.5206	0.0337	-0.01
Mof_C 	C 	0.8137	0.5701	0.3565	0.08
Mof_H 	H 	0.819	0.6299	0.3518	-0.008
Mof_C 	C 	0.55578	0.2874	0.9651	0.095
Mof_C 	C 	0.717	0.0252	0.3068	0.085
Mof_H 	H 	0.734	0.9863	0.3245	-0.016
Mof_C 	C 	0.7431	0.3949	0.3049	0.086
Mof_C 	C 	0.5349	0.3908	0.0178	-0.128
Mof_H 	H 	0.5122	0.3585	0.0145	0.074
Mof_C 	C 	0.4721	0.0984	0.9732	-0.16
Mof_H 	H 	0.4828	0.1285	0.999	0.088
Mof_C 	C 	0.7247	0.1162	0.3095	-0.138
Mof_H 	H 	0.7465	0.1377	0.3287	0.089
Mof_C 	C 	0.5412	0.464	0.0448	0.079
Mof_H 	H 	0.5222	0.4808	0.0593	-0.011
Mof_C 	C 	0.6682	0.1389	0.2547	-0.128
Mof_H 	H 	0.6511	0.1763	0.2362	0.091
Mof_C 	C 	0.6138	0.4692	0.1542	0.089
Mof_H 	H 	0.5914	0.4439	0.1381	-0.008
Mof_N 	N 	0.52747	0.2309	0.9687	-0.149
Mof_C 	C 	0.5945	0.1975	0.8776	0.087
Mof_C 	C 	0.596	0.4146	0.0018	-0.127
Mof_H 	H 	0.6153	0.3991	0.9877	0.087
Mof_C 	C 	0.652	0.2201	0.8541	0.093
Mof_H 	H 	0.6758	0.248	0.8587	-0.017
Mof_C 	C 	0.6296	0.2362	0.883	-0.146
Mof_H 	H 	0.6383	0.274	0.9067	0.098
Mof_C 	C 	0.4388	0.0099	0.9003	0.095
Mof_H 	H 	0.4274	0.9798	0.8748	-0.023
Mof_C 	C 	0.5833	0.1398	0.8419	-0.144
Mof_H 	H 	0.5598	0.1105	0.8369	0.097
Mof_C 	C 	0.4693	0.0655	0.8996	-0.156
Mof_H 	H 	0.4779	0.0737	0.874	0.099
Mof_C 	C 	0.608	0.1274	0.8142	0.1
Mof_H 	H 	0.6004	0.0892	0.7905	-0.025
Mof_I 	I 	0.8866	0.7286	0.4098	0.131
Mof_I 	I 	0.63399	0.7238	0.05535	-0.575
Mof_I 	I 	0.53475	0.66	0.11589	0.312
Mof_I 	I 	0.23682	0.73374	0.80057	-0.377
Mof_I 	I 	0.11663	0.23748	0.06143	0.233
Mof_I 	I 	0.13109	0.67211	0.70006	-0.409
Mof_I 	I 	0.02519	0.14317	0.12924	-0.686
Mof_I 	I 	0.39665	0.23335	0.39506	-0.52
Mof_I 	I 	0.3629	0.08863	0.50677	-0.363
Mof_Zn	Zn	0.38018	0.09036	0.43245	1.163
Mof_Zn	Zn	0.1751	0.64633	0.77473	1.164
Mof_Zn	Zn	0.08495	0.11804	0.09525	1.143
Mof_N 	N 	0.0733	0.0122	0.0513	-0.278
Mof_N 	N 	0.14166	0.6662	0.8194	-0.285
Mof_N 	N 	0.22255	0.9459	0.27339	-0.141
Mof_N 	N 	0.18641	0.4909	0.2801	-0.274
Mof_N 	N 	0.33588	0.0276	0.3904	-0.282
Mof_N 	N 	0.23696	0.807	0.3108	-0.138
Mof_N 	N 	0.04017	0.6541	0.907	-0.13
Mof_N 	N 	0.1229	0.0522	0.1441	-0.278
Mof_N 	N 	0.18334	0.819	0.2516	-0.134
Mof_N 	N 	0.07786	0.7808	0.9364	-0.132
Mof_C 	C 	0.2833	0.0298	0.3282	-0.138
Mof_H 	H 	0.2685	0.0617	0.305	0.098
Mof_C 	C 	0.27518	0.9393	0.3354	0.061
Mof_N 	N 	0.92485	0.4973	0.9353	-0.286
Mof_C 	C 	0.3282	0.9434	0.3968	0.09
Mof_H 	H 	0.3435	0.9135	0.4203	-0.01
Mof_C 	C 	0.20749	0.7731	0.2827	0.104
Mof_C 	C 	0.987	0.6087	0.9372	0.069
Mof_C 	C 	0.1779	0.0442	0.2033	-0.139
Mof_H 	H 	0.1994	0.0722	0.2199	0.087
Mof_C 	C 	0.19267	0.9045	0.2483	0.101
Mof_C 	C 	0.06936	0.7121	0.9093	0.108
Mof_C 	C 	0.2	0.6748	0.2835	0.068
Mof_C 	C 	0.0204	0.6678	0.9378	0.087
Mof_C 	C 	0.2981	0.896	0.3703	-0.138
Mof_H 	H 	0.2937	0.8362	0.3762	0.101
Mof_C 	C 	0.1357	0.9193	0.1869	-0.135
Mof_H 	H 	0.1287	0.8608	0.192	0.105
Mof_C 	C 	0.9412	0.5428	0.9709	0.088
Mof_H 	H 	0.9311	0.5366	0.9957	-0.014
Mof_C 	C 	0.1686	0.9569	0.2125	0.07
Mof_C 	C 	0.1543	0.0891	0.1684	0.082
Mof_H 	H 	0.1607	0.1473	0.162	-0.015
Mof_C 	C 	0.1624	0.5465	0.2538	0.07
Mof_H 	H 	0.1413	0.5227	0.2345	-0.015
Mof_C 	C 	0.0621	0.8651	0.9954	0.058
Mof_C 	C 	0.0999	0.9872	0.0297	0.075
Mof_H 	H 	0.1224	0.0206	0.0337	-0.01
Mof_C 	C 	0.3137	0.0701	0.3565	0.08
Mof_H 	H 	0.319	0.1299	0.3518	-0.008
Mof_C 	C 	0.05578	0.7874	0.9651	0.095
Mof_C 	C 	0.217	0.5252	0.3068	0.085
Mof_H 	H 	0.234	0.4863	0.3245	-0.016
Mof_C 	C 	0.2431	0.8949	0.3049	0.086
Mof_C 	C 	0.0349	0.8908	0.0178	-0.128
Mof_H 	H 	0.0122	0.8585	0.0145	0.074
Mof_C 	C 	0.9721	0.5984	0.9732	-0.159
Mof_H 	H 	0.9828	0.6285	0.999	0.087
Mof_C 	C 	0.2247	0.6162	0.3095	-0.138
Mof_H 	H 	0.2465	0.6377	0.3287	0.089
Mof_C 	C 	0.0412	0.964	0.0448	0.079
Mof_H 	H 	0.0222	0.9808	0.0593	-0.011
Mof_C 	C 	0.1682	0.6389	0.2547	-0.128
Mof_H 	H 	0.1511	0.6763	0.2362	0.091
Mof_C 	C 	0.1138	0.9692	0.1542	0.089
Mof_H 	H 	0.0914	0.9439	0.1381	-0.008
Mof_N 	N 	0.02747	0.7309	0.9687	-0.149
Mof_C 	C 	0.0945	0.6975	0.8776	0.087
Mof_C 	C 	0.096	0.9146	0.0018	-0.127
Mof_H 	H 	0.1153	0.8991	0.9877	0.087
Mof_C 	C 	0.152	0.7201	0.8541	0.093
Mof_H 	H 	0.1758	0.748	0.8587	-0.017
Mof_C 	C 	0.1296	0.7362	0.883	-0.146
Mof_H 	H 	0.1383	0.774	0.9067	0.098
Mof_C 	C 	0.9388	0.5099	0.9003	0.094
Mof_H 	H 	0.9274	0.4798	0.8748	-0.023
Mof_C 	C 	0.0833	0.6398	0.8419	-0.144
Mof_H 	H 	0.0598	0.6105	0.8369	0.097
Mof_C 	C 	0.9693	0.5655	0.8996	-0.156
Mof_H 	H 	0.9779	0.5737	0.874	0.099
Mof_C 	C 	0.108	0.6274	0.8142	0.1
Mof_H 	H 	0.1004	0.5892	0.7905	-0.025
Mof_I 	I 	0.3866	0.2286	0.4098	0.131
Mof_I 	I 	0.13399	0.2238	0.05535	-0.575
Mof_I 	I 	0.03475	0.16	0.11589	0.312
Mof_I 	I 	0.26318	0.76626	0.19943	-0.377
Mof_I 	I 	0.38337	0.26252	0.93857	0.233
Mof_I 	I 	0.36891	0.82789	0.29994	-0.409
Mof_I 	I 	0.47481	0.35683	0.87076	-0.686
Mof_I 	I 	0.10335	0.26665	0.60494	-0.52
Mof_I 	I 	0.1371	0.41137	0.49323	-0.363
Mof_Zn	Zn	0.11982	0.40964	0.56755	1.163
Mof_Zn	Zn	0.3249	0.85367	0.22527	1.164
Mof_Zn	Zn	0.41505	0.38196	0.90475	1.143
Mof_N 	N 	0.4267	0.4878	0.9487	-0.278
Mof_N 	N 	0.35834	0.8338	0.1806	-0.285
Mof_N 	N 	0.27745	0.5541	0.72661	-0.141
Mof_N 	N 	0.31359	0.0091	0.7199	-0.274
Mof_N 	N 	0.16412	0.4724	0.6096	-0.282
Mof_N 	N 	0.26304	0.693	0.6892	-0.138
Mof_N 	N 	0.45983	0.8459	0.093	-0.13
Mof_N 	N 	0.3771	0.4478	0.8559	-0.278
Mof_N 	N 	0.31666	0.681	0.7484	-0.134
Mof_N 	N 	0.42214	0.7192	0.0636	-0.132
Mof_C 	C 	0.2167	0.4702	0.6718	-0.138
Mof_H 	H 	0.2315	0.4383	0.695	0.098
Mof_C 	C 	0.22482	0.5607	0.6646	0.061
Mof_N 	N 	0.57515	0.0027	0.0647	-0.287
Mof_C 	C 	0.1718	0.5566	0.6032	0.09
Mof_H 	H 	0.1565	0.5865	0.5797	-0.01
Mof_C 	C 	0.29251	0.7269	0.7173	0.104
Mof_C 	C 	0.513	0.8913	0.0628	0.07
Mof_C 	C 	0.3221	0.4558	0.7967	-0.139
Mof_H 	H 	0.3006	0.4278	0.7801	0.086
Mof_C 	C 	0.30733	0.5955	0.7517	0.101
Mof_C 	C 	0.43064	0.7879	0.0907	0.108
Mof_C 	C 	0.3	0.8252	0.7165	0.068
Mof_C 	C 	0.4796	0.8322	0.0622	0.087
Mof_C 	C 	0.2019	0.604	0.6297	-0.138
Mof_H 	H 	0.2063	0.6638	0.6238	0.101
Mof_C 	C 	0.3643	0.5807	0.8131	-0.135
Mof_H 	H 	0.3713	0.6392	0.808	0.105
Mof_C 	C 	0.5588	0.9572	0.0291	0.089
Mof_H 	H 	0.5689	0.9634	0.0043	-0.014
Mof_C 	C 	0.3314	0.5431	0.7875	0.07
Mof_C 	C 	0.3457	0.4109	0.8316	0.082
Mof_H 	H 	0.3393	0.3527	0.838	-0.015
Mof_C 	C 	0.3376	0.9535	0.7462	0.07
Mof_H 	H 	0.3587	0.9773	0.7655	-0.015
Mof_C 	C 	0.4379	0.6349	0.0046	0.059
Mof_C 	C 	0.4001	0.5128	0.9703	0.075
Mof_H 	H 	0.3776	0.4794	0.9663	-0.01
Mof_C 	C 	0.1863	0.4299	0.6435	0.08
Mof_H 	H 	0.181	0.3701	0.6482	-0.008
Mof_C 	C 	0.44422	0.7126	0.0349	0.095
Mof_C 	C 	0.283	0.9748	0.6932	0.085
Mof_H 	H 	0.266	0.0137	0.6755	-0.016
Mof_C 	C 	0.2569	0.6051	0.6951	0.086
Mof_C 	C 	0.4651	0.6092	0.9822	-0.128
Mof_H 	H 	0.4878	0.6415	0.9855	0.074
Mof_C 	C 	0.5279	0.9016	0.0268	-0.16
Mof_H 	H 	0.5172	0.8715	0.001	0.088
Mof_C 	C 	0.2753	0.8838	0.6905	-0.138
Mof_H 	H 	0.2535	0.8623	0.6713	0.089
Mof_C 	C 	0.4588	0.536	0.9552	0.079
Mof_H 	H 	0.4778	0.5192	0.9407	-0.011
Mof_C 	C 	0.3318	0.8611	0.7453	-0.128
Mof_H 	H 	0.3489	0.8237	0.7638	0.091
Mof_C 	C 	0.3862	0.5308	0.8458	0.089
Mof_H 	H 	0.4086	0.5561	0.8619	-0.008
Mof_N 	N 	0.47253	0.7691	0.0313	-0.149
Mof_C 	C 	0.4055	0.8025	0.1224	0.087
Mof_C 	C 	0.404	0.5854	0.9982	-0.127
Mof_H 	H 	0.3847	0.6009	0.0123	0.087
Mof_C 	C 	0.348	0.7799	0.1459	0.093
Mof_H 	H 	0.3242	0.752	0.1413	-0.017
Mof_C 	C 	0.3704	0.7638	0.117	-0.146
Mof_H 	H 	0.3617	0.726	0.0933	0.098
Mof_C 	C 	0.5612	0.9901	0.0997	0.095
Mof_H 	H 	0.5726	0.0202	0.1252	-0.023
Mof_C 	C 	0.4167	0.8602	0.1581	-0.144
Mof_H 	H 	0.4402	0.8895	0.1631	0.097
Mof_C 	C 	0.5307	0.9345	0.1004	-0.156
Mof_H 	H 	0.5221	0.9263	0.126	0.099
Mof_C 	C 	0.392	0.8726	0.1858	0.1
Mof_H 	H 	0.3996	0.9108	0.2095	-0.025
Mof_I 	I 	0.1134	0.2714	0.5902	0.131
Mof_I 	I 	0.36601	0.2762	0.94465	-0.575
Mof_I 	I 	0.46525	0.34	0.88411	0.312
Mof_I 	I 	0.76318	0.26626	0.19943	-0.377
Mof_I 	I 	0.88337	0.76252	0.93857	0.233
Mof_I 	I 	0.86891	0.32789	0.29994	-0.409
Mof_I 	I 	0.97481	0.85683	0.87076	-0.686
Mof_I 	I 	0.60335	0.76665	0.60494	-0.52
Mof_I 	I 	0.6371	0.91137	0.49323	-0.363
Mof_Zn	Zn	0.61982	0.90964	0.56755	1.163
Mof_Zn	Zn	0.8249	0.35367	0.22527	1.164
Mof_Zn	Zn	0.91505	0.88196	0.90475	1.143
Mof_N 	N 	0.9267	0.9878	0.9487	-0.278
Mof_N 	N 	0.85834	0.3338	0.1806	-0.285
Mof_N 	N 	0.77745	0.0541	0.72661	-0.141
Mof_N 	N 	0.81359	0.5091	0.7199	-0.274
Mof_N 	N 	0.66412	0.9724	0.6096	-0.282
Mof_N 	N 	0.76304	0.193	0.6892	-0.138
Mof_N 	N 	0.95983	0.3459	0.093	-0.13
Mof_N 	N 	0.8771	0.9478	0.8559	-0.278
Mof_N 	N 	0.81666	0.181	0.7484	-0.134
Mof_N 	N 	0.92214	0.2192	0.0636	-0.132
Mof_C 	C 	0.7167	0.9702	0.6718	-0.138
Mof_H 	H 	0.7315	0.9383	0.695	0.098
Mof_C 	C 	0.72482	0.0607	0.6646	0.061
Mof_N 	N 	0.07515	0.5027	0.0647	-0.286
Mof_C 	C 	0.6718	0.0566	0.6032	0.09
Mof_H 	H 	0.6565	0.0865	0.5797	-0.01
Mof_C 	C 	0.79251	0.2269	0.7173	0.104
Mof_C 	C 	0.013	0.3913	0.0628	0.069
Mof_C 	C 	0.8221	0.9558	0.7967	-0.139
Mof_H 	H 	0.8006	0.9278	0.7801	0.087
Mof_C 	C 	0.80733	0.0955	0.7517	0.101
Mof_C 	C 	0.93064	0.2879	0.0907	0.108
Mof_C 	C 	0.8	0.3252	0.7165	0.068
Mof_C 	C 	0.9796	0.3322	0.0622	0.087
Mof_C 	C 	0.7019	0.104	0.6297	-0.138
Mof_H 	H 	0.7063	0.1638	0.6238	0.101
Mof_C 	C 	0.8643	0.0807	0.8131	-0.135
Mof_H 	H 	0.8713	0.1392	0.808	0.105
Mof_C 	C 	0.0588	0.4572	0.0291	0.088
Mof_H 	H 	0.0689	0.4634	0.0043	-0.014
Mof_C 	C 	0.8314	0.0431	0.7875	0.07
Mof_C 	C 	0.8457	0.9109	0.8316	0.082
Mof_H 	H 	0.8393	0.8527	0.838	-0.015
Mof_C 	C 	0.8376	0.4535	0.7462	0.07
Mof_H 	H 	0.8587	0.4773	0.7655	-0.015
Mof_C 	C 	0.9379	0.1349	0.0046	0.058
Mof_C 	C 	0.9001	0.0128	0.9703	0.075
Mof_H 	H 	0.8776	0.9794	0.9663	-0.01
Mof_C 	C 	0.6863	0.9299	0.6435	0.08
Mof_H 	H 	0.681	0.8701	0.6482	-0.008
Mof_C 	C 	0.94422	0.2126	0.0349	0.095
Mof_C 	C 	0.783	0.4748	0.6932	0.085
Mof_H 	H 	0.766	0.5137	0.6755	-0.016
Mof_C 	C 	0.7569	0.1051	0.6951	0.086
Mof_C 	C 	0.9651	0.1092	0.9822	-0.128
Mof_H 	H 	0.9878	0.1415	0.9855	0.074
Mof_C 	C 	0.0279	0.4016	0.0268	-0.159
Mof_H 	H 	0.0172	0.3715	0.001	0.087
Mof_C 	C 	0.7753	0.3838	0.6905	-0.138
Mof_H 	H 	0.7535	0.3623	0.6713	0.089
Mof_C 	C 	0.9588	0.036	0.9552	0.079
Mof_H 	H 	0.9778	0.0192	0.9407	-0.011
Mof_C 	C 	0.8318	0.3611	0.7453	-0.128
Mof_H 	H 	0.8489	0.3237	0.7638	0.091
Mof_C 	C 	0.8862	0.0308	0.8458	0.089
Mof_H 	H 	0.9086	0.0561	0.8619	-0.008
Mof_N 	N 	0.97253	0.2691	0.0313	-0.149
Mof_C 	C 	0.9055	0.3025	0.1224	0.087
Mof_C 	C 	0.904	0.0854	0.9982	-0.127
Mof_H 	H 	0.8847	0.1009	0.0123	0.087
Mof_C 	C 	0.848	0.2799	0.1459	0.093
Mof_H 	H 	0.8242	0.252	0.1413	-0.017
Mof_C 	C 	0.8704	0.2638	0.117	-0.146
Mof_H 	H 	0.8617	0.226	0.0933	0.098
Mof_C 	C 	0.0612	0.4901	0.0997	0.094
Mof_H 	H 	0.0726	0.5202	0.1252	-0.023
Mof_C 	C 	0.9167	0.3602	0.1581	-0.144
Mof_H 	H 	0.9402	0.3895	0.1631	0.097
Mof_C 	C 	0.0307	0.4345	0.1004	-0.156
Mof_H 	H 	0.0221	0.4263	0.126	0.099
Mof_C 	C 	0.892	0.3726	0.1858	0.1
Mof_H 	H 	0.8996	0.4108	0.2095	-0.025
Mof_I 	I 	0.6134	0.7714	0.5902	0.131
Mof_I 	I 	0.86601	0.7762	0.94465	-0.575
Mof_I 	I 	0.96525	0.84	0.88411	0.312
Mof_I 	I 	0.26318	0.23374	0.69943	-0.377
Mof_I 	I 	0.38337	0.73748	0.43857	0.233
Mof_I 	I 	0.36891	0.17211	0.79994	-0.408
Mof_I 	I 	0.47481	0.64317	0.37076	-0.686
Mof_I 	I 	0.10335	0.73335	0.10494	-0.52
Mof_I 	I 	0.1371	0.58863	0.99323	-0.363
Mof_Zn	Zn	0.11982	0.59036	0.06755	1.163
Mof_Zn	Zn	0.3249	0.14633	0.72527	1.164
Mof_Zn	Zn	0.41505	0.61804	0.40475	1.143
Mof_N 	N 	0.4267	0.5122	0.4487	-0.278
Mof_N 	N 	0.35834	0.1662	0.6806	-0.285
Mof_N 	N 	0.27745	0.4459	0.22661	-0.141
Mof_N 	N 	0.31359	0.9909	0.2199	-0.274
Mof_N 	N 	0.16412	0.5276	0.1096	-0.282
Mof_N 	N 	0.26304	0.307	0.1892	-0.138
Mof_N 	N 	0.45983	0.1541	0.593	-0.13
Mof_N 	N 	0.3771	0.5522	0.3559	-0.278
Mof_N 	N 	0.31666	0.319	0.2484	-0.134
Mof_N 	N 	0.42214	0.2808	0.5636	-0.132
Mof_C 	C 	0.2167	0.5298	0.1718	-0.138
Mof_H 	H 	0.2315	0.5617	0.195	0.098
Mof_C 	C 	0.22482	0.4393	0.1646	0.061
Mof_N 	N 	0.57515	0.9973	0.5647	-0.286
Mof_C 	C 	0.1718	0.4434	0.1032	0.09
Mof_H 	H 	0.1565	0.4135	0.0797	-0.01
Mof_C 	C 	0.29251	0.2731	0.2173	0.104
Mof_C 	C 	0.513	0.1087	0.5628	0.07
Mof_C 	C 	0.3221	0.5442	0.2967	-0.139
Mof_H 	H 	0.3006	0.5722	0.2801	0.086
Mof_C 	C 	0.30733	0.4045	0.2517	0.101
Mof_C 	C 	0.43064	0.2121	0.5907	0.108
Mof_C 	C 	0.3	0.1748	0.2165	0.068
Mof_C 	C 	0.4796	0.1678	0.5622	0.087
Mof_C 	C 	0.2019	0.396	0.1297	-0.138
Mof_H 	H 	0.2063	0.3362	0.1238	0.101
Mof_C 	C 	0.3643	0.4193	0.3131	-0.135
Mof_H 	H 	0.3713	0.3608	0.308	0.105
Mof_C 	C 	0.5588	0.0428	0.5291	0.089
Mof_H 	H 	0.5689	0.0366	0.5043	-0.014
Mof_C 	C 	0.3314	0.4569	0.2875	0.07
Mof_C 	C 	0.3457	0.5891	0.3316	0.082
Mof_H 	H 	0.3393	0.6473	0.338	-0.015
Mof_C 	C 	0.3376	0.0465	0.2462	0.07
Mof_H 	H 	0.3587	0.0227	0.2655	-0.015
Mof_C 	C 	0.4379	0.3651	0.5046	0.059
Mof_C 	C 	0.4001	0.4872	0.4703	0.075
Mof_H 	H 	0.3776	0.5206	0.4663	-0.01
Mof_C 	C 	0.1863	0.5701	0.1435	0.08
Mof_H 	H 	0.181	0.6299	0.1482	-0.008
Mof_C 	C 	0.44422	0.2874	0.5349	0.095
Mof_C 	C 	0.283	0.0252	0.1932	0.085
Mof_H 	H 	0.266	0.9863	0.1755	-0.016
Mof_C 	C 	0.2569	0.3949	0.1951	0.086
Mof_C 	C 	0.4651	0.3908	0.4822	-0.128
Mof_H 	H 	0.4878	0.3585	0.4855	0.074
Mof_C 	C 	0.5279	0.0984	0.5268	-0.159
Mof_H 	H 	0.5172	0.1285	0.501	0.088
Mof_C 	C 	0.2753	0.1162	0.1905	-0.137
Mof_H 	H 	0.2535	0.1377	0.1713	0.089
Mof_C 	C 	0.4588	0.464	0.4552	0.079
Mof_H 	H 	0.4778	0.4808	0.4407	-0.011
Mof_C 	C 	0.3318	0.1389	0.2453	-0.128
Mof_H 	H 	0.3489	0.1763	0.2638	0.091
Mof_C 	C 	0.3862	0.4692	0.3458	0.089
Mof_H 	H 	0.4086	0.4439	0.3619	-0.008
Mof_N 	N 	0.47253	0.2309	0.5313	-0.149
Mof_C 	C 	0.4055	0.1975	0.6224	0.087
Mof_C 	C 	0.404	0.4146	0.4982	-0.127
Mof_H 	H 	0.3847	0.3991	0.5123	0.087
Mof_C 	C 	0.348	0.2201	0.6459	0.093
Mof_H 	H 	0.3242	0.248	0.6413	-0.017
Mof_C 	C 	0.3704	0.2362	0.617	-0.146
Mof_H 	H 	0.3617	0.274	0.5933	0.098
Mof_C 	C 	0.5612	0.0099	0.5997	0.094
Mof_H 	H 	0.5726	0.9798	0.6252	-0.023
Mof_C 	C 	0.4167	0.1398	0.6581	-0.144
Mof_H 	H 	0.4402	0.1105	0.6631	0.097
Mof_C 	C 	0.5307	0.0655	0.6004	-0.156
Mof_H 	H 	0.5221	0.0737	0.626	0.099
Mof_C 	C 	0.392	0.1274	0.6858	0.1
Mof_H 	H 	0.3996	0.0892	0.7095	-0.025
Mof_I 	I 	0.1134	0.7286	0.0902	0.131
Mof_I 	I 	0.36601	0.7238	0.44465	-0.575
Mof_I 	I 	0.46525	0.66	0.38411	0.312
Mof_I 	I 	0.76318	0.73374	0.69943	-0.377
Mof_I 	I 	0.88337	0.23748	0.43857	0.233
Mof_I 	I 	0.86891	0.67211	0.79994	-0.409
Mof_I 	I 	0.97481	0.14317	0.37076	-0.686
Mof_I 	I 	0.60335	0.23335	0.10494	-0.52
Mof_I 	I 	0.6371	0.08863	0.99323	-0.363
Mof_Zn	Zn	0.61982	0.09036	0.06755	1.163
Mof_Zn	Zn	0.8249	0.64633	0.72527	1.164
Mof_Zn	Zn	0.91505	0.11804	0.40475	1.143
Mof_N 	N 	0.9267	0.0122	0.4487	-0.278
Mof_N 	N 	0.85834	0.6662	0.6806	-0.285
Mof_N 	N 	0.77745	0.9459	0.22661	-0.141
Mof_N 	N 	0.81359	0.4909	0.2199	-0.274
Mof_N 	N 	0.66412	0.0276	0.1096	-0.282
Mof_N 	N 	0.76304	0.807	0.1892	-0.138
Mof_N 	N 	0.95983	0.6541	0.593	-0.13
Mof_N 	N 	0.8771	0.0522	0.3559	-0.278
Mof_N 	N 	0.81666	0.819	0.2484	-0.134
Mof_N 	N 	0.92214	0.7808	0.5636	-0.132
Mof_C 	C 	0.7167	0.0298	0.1718	-0.138
Mof_H 	H 	0.7315	0.0617	0.195	0.098
Mof_C 	C 	0.72482	0.9393	0.1646	0.061
Mof_N 	N 	0.07515	0.4973	0.5647	-0.286
Mof_C 	C 	0.6718	0.9434	0.1032	0.091
Mof_H 	H 	0.6565	0.9135	0.0797	-0.01
Mof_C 	C 	0.79251	0.7731	0.2173	0.104
Mof_C 	C 	0.013	0.6087	0.5628	0.07
Mof_C 	C 	0.8221	0.0442	0.2967	-0.139
Mof_H 	H 	0.8006	0.0722	0.2801	0.086
Mof_C 	C 	0.80733	0.9045	0.2517	0.101
Mof_C 	C 	0.93064	0.7121	0.5907	0.108
Mof_C 	C 	0.8	0.6748	0.2165	0.068
Mof_C 	C 	0.9796	0.6678	0.5622	0.087
Mof_C 	C 	0.7019	0.896	0.1297	-0.138
Mof_H 	H 	0.7063	0.8362	0.1238	0.101
Mof_C 	C 	0.8643	0.9193	0.3131	-0.135
Mof_H 	H 	0.8713	0.8608	0.308	0.105
Mof_C 	C 	0.0588	0.5428	0.5291	0.089
Mof_H 	H 	0.0689	0.5366	0.5043	-0.014
Mof_C 	C 	0.8314	0.9569	0.2875	0.07
Mof_C 	C 	0.8457	0.0891	0.3316	0.082
Mof_H 	H 	0.8393	0.1473	0.338	-0.015
Mof_C 	C 	0.8376	0.5465	0.2462	0.07
Mof_H 	H 	0.8587	0.5227	0.2655	-0.015
Mof_C 	C 	0.9379	0.8651	0.5046	0.059
Mof_C 	C 	0.9001	0.9872	0.4703	0.075
Mof_H 	H 	0.8776	0.0206	0.4663	-0.01
Mof_C 	C 	0.6863	0.0701	0.1435	0.08
Mof_H 	H 	0.681	0.1299	0.1482	-0.008
Mof_C 	C 	0.94422	0.7874	0.5349	0.095
Mof_C 	C 	0.783	0.5252	0.1932	0.085
Mof_H 	H 	0.766	0.4863	0.1755	-0.016
Mof_C 	C 	0.7569	0.8949	0.1951	0.086
Mof_C 	C 	0.9651	0.8908	0.4822	-0.128
Mof_H 	H 	0.9878	0.8585	0.4855	0.074
Mof_C 	C 	0.0279	0.5984	0.5268	-0.159
Mof_H 	H 	0.0172	0.6285	0.501	0.088
Mof_C 	C 	0.7753	0.6162	0.1905	-0.138
Mof_H 	H 	0.7535	0.6377	0.1713	0.089
Mof_C 	C 	0.9588	0.964	0.4552	0.079
Mof_H 	H 	0.9778	0.9808	0.4407	-0.011
Mof_C 	C 	0.8318	0.6389	0.2453	-0.128
Mof_H 	H 	0.8489	0.6763	0.2638	0.091
Mof_C 	C 	0.8862	0.9692	0.3458	0.089
Mof_H 	H 	0.9086	0.9439	0.3619	-0.008
Mof_N 	N 	0.97253	0.7309	0.5313	-0.149
Mof_C 	C 	0.9055	0.6975	0.6224	0.087
Mof_C 	C 	0.904	0.9146	0.4982	-0.127
Mof_H 	H 	0.8847	0.8991	0.5123	0.087
Mof_C 	C 	0.848	0.7201	0.6459	0.093
Mof_H 	H 	0.8242	0.748	0.6413	-0.017
Mof_C 	C 	0.8704	0.7362	0.617	-0.146
Mof_H 	H 	0.8617	0.774	0.5933	0.098
Mof_C 	C 	0.0612	0.5099	0.5997	0.094
Mof_H 	H 	0.0726	0.4798	0.6252	-0.023
Mof_C 	C 	0.9167	0.6398	0.6581	-0.144
Mof_H 	H 	0.9402	0.6105	0.6631	0.097
Mof_C 	C 	0.0307	0.5655	0.6004	-0.156
Mof_H 	H 	0.0221	0.5737	0.626	0.099
Mof_C 	C 	0.892	0.6274	0.6858	0.1
Mof_H 	H 	0.8996	0.5892	0.7095	-0.025
Mof_I 	I 	0.6134	0.2286	0.0902	0.131
Mof_I 	I 	0.86601	0.2238	0.44465	-0.575
Mof_I 	I 	0.96525	0.16	0.38411	0.312
_end
