data_functionalizedCrystal
_audit_creation_method	'EQeq! by Chris Wilmer'
_symmetry_space_group_name_H-M	'P1'
_symmetry_Int_Tables_number	1
_symmetry_cell_setting	triclinic
loop_
_symmetry_equiv_pos_as_xyz
  x,y,z
_cell_length_a	9.9261
_cell_length_b	9.9261
_cell_length_c	18.2873
_cell_angle_alpha	84.2229
_cell_angle_beta	76.6868
_cell_angle_gamma	112.974
loop_
_atom_site_label
_atom_site_type_symbol
_atom_site_fract_x
_atom_site_fract_y
_atom_site_fract_z
_atom_site_charge
Mof_Ca	Ca	0.40156	0.74136	0.04872	1.353
Mof_Ca	Ca	0.29008	0.45028	0.45128	1.353
Mof_Ca	Ca	0.59844	0.25864	0.95128	1.353
Mof_Ca	Ca	0.70992	0.54972	0.54872	1.353
Mof_Ca	Ca	0.20626	0.45626	0.25	1.224
Mof_Ca	Ca	0.79374	0.54374	0.75	1.224
Mof_H 	H 	0.5446	0.6104	0.2752	-0.026
Mof_H 	H 	0.8692	0.6788	0.08	-0.006
Mof_H 	H 	0.952	0.6274	0.2836	-0.031
Mof_H 	H 	0.3856	0.8198	0.2248	-0.026
Mof_H 	H 	0.2588	0.9492	0.42	-0.007
Mof_H 	H 	0.411	0.2356	0.2164	-0.033
Mof_H 	H 	0.4554	0.3896	0.7248	-0.027
Mof_H 	H 	0.1308	0.3212	0.92	-0.007
Mof_H 	H 	0.048	0.3726	0.7164	-0.032
Mof_H 	H 	0.6144	0.1802	0.7752	-0.027
Mof_H 	H 	0.7412	0.0508	0.58	-0.007
Mof_H 	H 	0.589	0.7644	0.7836	-0.033
Mof_C 	C 	0.64263	0.6221	0.25027	0.139
Mof_C 	C 	0.69023	0.6438	0.17077	-0.207
Mof_C 	C 	0.93477	0.65436	0.17587	-0.214
Mof_C 	C 	0.5827	0.6524	0.1263	0.392
Mof_C 	C 	0.83657	0.66186	0.13337	0.12
Mof_C 	C 	0.09238	0.6736	0.13462	0.396
Mof_C 	C 	0.68554	0.5931	0.37936	0.447
Mof_C 	C 	0.88675	0.6324	0.25525	0.132
Mof_C 	C 	0.74107	0.6178	0.29293	-0.225
Mof_C 	C 	0.37237	0.8929	0.24973	0.139
Mof_C 	C 	0.31457	0.861	0.32923	-0.207
Mof_C 	C 	0.33023	0.11064	0.32413	-0.215
Mof_C 	C 	0.2787	0.709	0.3737	0.392
Mof_C 	C 	0.29523	0.96994	0.36663	0.12
Mof_C 	C 	0.30822	0.227	0.36538	0.396
Mof_C 	C 	0.47246	0.0649	0.12064	0.447
Mof_C 	C 	0.38765	0.142	0.24475	0.133
Mof_C 	C 	0.41073	0.034	0.20707	-0.225
Mof_C 	C 	0.35737	0.3779	0.74973	0.139
Mof_C 	C 	0.30977	0.3562	0.82923	-0.207
Mof_C 	C 	0.06523	0.34564	0.82413	-0.214
Mof_C 	C 	0.4173	0.3476	0.8737	0.392
Mof_C 	C 	0.16343	0.33814	0.86663	0.12
Mof_C 	C 	0.90762	0.3264	0.86538	0.396
Mof_C 	C 	0.31446	0.4069	0.62064	0.447
Mof_C 	C 	0.11325	0.3676	0.74475	0.132
Mof_C 	C 	0.25893	0.3822	0.70707	-0.225
Mof_C 	C 	0.62763	0.1071	0.75027	0.139
Mof_C 	C 	0.68543	0.139	0.67077	-0.207
Mof_C 	C 	0.66977	0.88936	0.67587	-0.215
Mof_C 	C 	0.7213	0.291	0.6263	0.392
Mof_C 	C 	0.70477	0.03006	0.63337	0.12
Mof_C 	C 	0.69178	0.773	0.63462	0.396
Mof_C 	C 	0.52754	0.9351	0.87936	0.447
Mof_C 	C 	0.61235	0.858	0.75525	0.133
Mof_C 	C 	0.58927	0.966	0.79293	-0.225
Mof_O 	O 	0.44292	0.6064	0.16148	-0.532
Mof_O 	O 	0.63596	0.70881	0.05503	-0.42
Mof_O 	O 	0.16281	0.62387	0.17152	-0.534
Mof_O 	O 	0.1511	0.73857	0.06533	-0.429
Mof_O 	O 	0.77964	0.5962	0.41576	-0.478
Mof_O 	O 	0.54983	0.57199	0.40978	-0.486
Mof_O 	O 	0.26788	0.6044	0.33852	-0.532
Mof_O 	O 	0.26384	0.69099	0.44497	-0.42
Mof_O 	O 	0.29539	0.33433	0.32848	-0.535
Mof_O 	O 	0.3039	0.21643	0.43467	-0.429
Mof_O 	O 	0.51196	0.1954	0.08424	-0.478
Mof_O 	O 	0.48177	0.95961	0.09022	-0.486
Mof_O 	O 	0.55708	0.3936	0.83852	-0.532
Mof_O 	O 	0.36404	0.29119	0.94497	-0.42
Mof_O 	O 	0.83719	0.37613	0.82848	-0.534
Mof_O 	O 	0.8489	0.26143	0.93467	-0.429
Mof_O 	O 	0.22036	0.4038	0.58424	-0.478
Mof_O 	O 	0.45017	0.42801	0.59022	-0.486
Mof_O 	O 	0.73212	0.3956	0.66148	-0.532
Mof_O 	O 	0.73616	0.30901	0.55503	-0.42
Mof_O 	O 	0.70461	0.66567	0.67152	-0.535
Mof_O 	O 	0.6961	0.78357	0.56533	-0.429
Mof_O 	O 	0.48804	0.8046	0.91576	-0.478
Mof_O 	O 	0.51823	0.04039	0.90978	-0.486
_end
