data_functionalizedCrystal
_audit_creation_method	'EQeq! by Chris Wilmer'
_symmetry_space_group_name_H-M	'P1'
_symmetry_Int_Tables_number	1
_symmetry_cell_setting	triclinic
loop_
_symmetry_equiv_pos_as_xyz
  x,y,z
_cell_length_a	27.0118
_cell_length_b	27.0118
_cell_length_c	25.0254
_cell_angle_alpha	90
_cell_angle_beta	90
_cell_angle_gamma	120
loop_
_atom_site_label
_atom_site_type_symbol
_atom_site_fract_x
_atom_site_fract_y
_atom_site_fract_z
_atom_site_charge
Mof_C 	C 	0.6238	0.8837	0.75579	0.257
Mof_C 	C 	0.6274	0.9158	0.8076	0.076
Mof_H 	H 	0.656	0.9563	0.8032	-0.005
Mof_C 	C 	0.5686	0.91	0.8185	-0.683
Mof_H 	H 	0.5419	0.8708	0.8285	0.19
Mof_H 	H 	0.5547	0.9181	0.7858	0.193
Mof_C 	C 	0.5697	0.9506	0.8633	1.057
Mof_H 	H 	0.587	0.9442	0.895	-0.305
Mof_C 	C 	0.5106	0.9351	0.8775	-1.585
Mof_H 	H 	0.4892	0.8953	0.8867	0.468
Mof_H 	H 	0.4928	0.9424	0.8476	0.436
Mof_H 	H 	0.5113	0.9577	0.9075	0.457
Mof_C 	C 	0.606	0.0135	0.8481	-1.51
Mof_H 	H 	0.6438	0.0216	0.8385	0.471
Mof_H 	H 	0.6083	0.0369	0.8779	0.449
Mof_H 	H 	0.5889	0.0217	0.8182	0.421
Mof_C 	C 	0.7064	0.9203	0.8609	-0.09
Mof_H 	H 	0.724	0.9154	0.8291	0.01
Mof_H 	H 	0.714	0.9015	0.8902	0.033
Mof_C 	C 	0.7342	0.98373	0.87331	0.026
Mof_C 	C 	0.7226	0.0018	0.921	-0.069
Mof_H 	H 	0.6991	0.9747	0.946	0.052
Mof_C 	C 	0.7706	0.0243	0.8372	-0.077
Mof_H 	H 	0.7794	0.0127	0.8053	0.028
Mof_C 	C 	0.7451	0.0598	0.9326	-0.096
Mof_H 	H 	0.7363	0.071	0.9646	0.055
Mof_C 	C 	0.7946	0.0831	0.848	-0.103
Mof_H 	H 	0.8192	0.1101	0.8235	0.047
Mof_C 	C 	0.7811	0.1007	0.89548	0.041
Mof_C 	C 	0.8049	0.1632	0.9075	-0.118
Mof_H 	H 	0.8246	0.1852	0.876	0.04
Mof_H 	H 	0.7734	0.1698	0.9147	0.041
Mof_C 	C 	0.945	0.2449	0.9245	0.243
Mof_C 	C 	0.8995	0.1853	0.9432	0.093
Mof_H 	H 	0.8934	0.1575	0.9151	0.002
Mof_C 	C 	0.9227	0.1711	0.9929	-0.653
Mof_H 	H 	0.9623	0.1822	0.9867	0.22
Mof_H 	H 	0.9217	0.1938	0.0225	0.217
Mof_C 	C 	0.7683	0.277	0.9855	0.212
Mof_C 	C 	0.8137	0.3386	0.9704	0.165
Mof_H 	H 	0.797	0.3549	0.9462	-0.033
Mof_C 	C 	0.8338	0.3737	0.0216	-0.85
Mof_H 	H 	0.8006	0.3646	0.0435	0.259
Mof_H 	H 	0.8575	0.3626	0.0414	0.259
Mof_C 	C 	0.8673	0.4381	0.0125	1.22
Mof_H 	H 	0.8993	0.4464	0.9886	-0.352
Mof_C 	C 	0.8918	0.4687	0.0642	-1.723
Mof_H 	H 	0.9131	0.5091	0.0579	0.507
Mof_H 	H 	0.9167	0.4564	0.079	0.488
Mof_H 	H 	0.8614	0.4601	0.0889	0.495
Mof_C 	C 	0.8318	0.4608	0.9864	-1.715
Mof_H 	H 	0.8162	0.4409	0.9534	0.537
Mof_H 	H 	0.8555	0.5009	0.9794	0.521
Mof_H 	H 	0.8012	0.4549	0.0099	0.503
Mof_C 	C 	0.854	0.3302	0.8834	-0.121
Mof_H 	H 	0.8844	0.3254	0.8681	0.051
Mof_H 	H 	0.818	0.2959	0.8759	0.035
Mof_C 	C 	0.8542	0.3799	0.85722	0.044
Mof_C 	C 	0.9052	0.4292	0.84532	-0.075
Mof_H 	H 	0.9398	0.4311	0.8534	0.053
Mof_C 	C 	0.8032	0.3788	0.844	-0.09
Mof_H 	H 	0.7685	0.3456	0.85	0.035
Mof_O 	O 	0.62777	0.83866	0.76014	-0.41
Mof_O 	O 	0.61839	0.90332	0.71334	-0.369
Mof_O 	O 	0.93483	0.28587	0.93201	-0.369
Mof_O 	O 	0.9887	0.2501	0.9037	-0.241
Mof_O 	O 	0.78523	0.24053	0.98903	-0.369
Mof_O 	O 	0.7194	0.2672	0.9964	-0.258
Mof_Cu	Cu	0.86294	0.26566	0.96703	0.909
Mof_N 	N 	0.64454	0.89188	0.85259	-0.258
Mof_H 	H 	0.6267	0.8925	0.8832	0.106
Mof_N 	N 	0.84512	0.18456	0.95351	-0.25
Mof_H 	H 	0.8278	0.1627	0.9828	0.113
Mof_N 	N 	0.8622	0.33693	0.94311	-0.26
Mof_H 	H 	0.896	0.3687	0.9512	0.111
Mof_C 	C 	0.9149	0.0993	0.0614	-1.387
Mof_H 	H 	0.8938	0.0597	0.0714	0.524
Mof_H 	H 	0.9121	0.1222	0.0892	0.429
Mof_H 	H 	0.9544	0.1104	0.0561	0.407
Mof_C 	C 	0.8901	0.1083	0.0089	0.836
Mof_H 	H 	0.8485	0.0915	0.0091	-0.188
Mof_C 	C 	0.9139	0.0803	0.9642	-0.026
Mof_H 	H 	0.8958	0.0397	0.9698	0.088
Mof_H 	H 	0.9545	0.0971	0.9679	-0.072
Mof_H 	H 	0.9051	0.0877	0.929	0.021
Mof_C 	C 	0.8746	0.0607	0.9667	-1.246
Mof_H 	H 	0.855	0.024	0.9838	0.331
Mof_H 	H 	0.9089	0.0657	0.9502	0.352
Mof_H 	H 	0.8503	0.0629	0.9399	0.412
Mof_H 	H 	0.865	0.053	0.074	-0.158
Mof_C 	C 	0.1163	0.7401	0.08912	0.258
Mof_C 	C 	0.0842	0.7116	0.14093	0.077
Mof_H 	H 	0.0437	0.6997	0.13653	-0.004
Mof_C 	C 	0.09	0.6586	0.15183	-0.682
Mof_H 	H 	0.1292	0.6711	0.16183	0.191
Mof_H 	H 	0.0819	0.6366	0.11913	0.194
Mof_C 	C 	0.0494	0.6191	0.19663	1.057
Mof_H 	H 	0.0558	0.6428	0.22833	-0.304
Mof_C 	C 	0.0649	0.5755	0.21083	-1.584
Mof_H 	H 	0.1047	0.5939	0.22003	0.469
Mof_H 	H 	0.0576	0.5504	0.18093	0.437
Mof_H 	H 	0.0423	0.5536	0.24083	0.458
Mof_C 	C 	0.9865	0.5925	0.18143	-1.508
Mof_H 	H 	0.9784	0.6222	0.17183	0.472
Mof_H 	H 	0.9631	0.5714	0.21123	0.45
Mof_H 	H 	0.9783	0.5672	0.15153	0.422
Mof_C 	C 	0.0797	0.7861	0.19423	-0.089
Mof_H 	H 	0.0846	0.8086	0.16243	0.011
Mof_H 	H 	0.0985	0.8125	0.22353	0.034
Mof_C 	C 	0.01627	0.75047	0.20664	0.027
Mof_C 	C 	0.9982	0.7208	0.25433	-0.068
Mof_H 	H 	0.0253	0.7244	0.27933	0.053
Mof_C 	C 	0.9757	0.7463	0.17053	-0.076
Mof_H 	H 	0.9873	0.7667	0.13863	0.029
Mof_C 	C 	0.9402	0.6853	0.26593	-0.095
Mof_H 	H 	0.929	0.6653	0.29793	0.056
Mof_C 	C 	0.9169	0.7115	0.18133	-0.102
Mof_H 	H 	0.8899	0.7091	0.15683	0.048
Mof_C 	C 	0.8993	0.6804	0.22881	0.042
Mof_C 	C 	0.8368	0.6417	0.24083	-0.117
Mof_H 	H 	0.8148	0.6394	0.20933	0.041
Mof_H 	H 	0.8302	0.6036	0.24803	0.042
Mof_C 	C 	0.7551	0.7001	0.25783	0.243
Mof_C 	C 	0.8147	0.7142	0.27653	0.093
Mof_H 	H 	0.8425	0.7359	0.24843	0.003
Mof_C 	C 	0.8289	0.7516	0.32623	-0.652
Mof_H 	H 	0.8178	0.7801	0.32003	0.219
Mof_H 	H 	0.8062	0.7279	0.35583	0.217
Mof_C 	C 	0.723	0.4913	0.31883	0.212
Mof_C 	C 	0.6614	0.4751	0.30373	0.165
Mof_H 	H 	0.6451	0.4421	0.27953	-0.033
Mof_C 	C 	0.6263	0.4601	0.35493	-0.848
Mof_H 	H 	0.6354	0.436	0.37683	0.258
Mof_H 	H 	0.6374	0.4949	0.37473	0.258
Mof_C 	C 	0.5619	0.4292	0.34583	1.217
Mof_H 	H 	0.5536	0.4529	0.32193	-0.351
Mof_C 	C 	0.5313	0.4231	0.39753	-1.72
Mof_H 	H 	0.4909	0.404	0.39123	0.506
Mof_H 	H 	0.5436	0.4603	0.41233	0.487
Mof_H 	H 	0.5399	0.4013	0.42223	0.494
Mof_C 	C 	0.5392	0.371	0.31973	-1.711
Mof_H 	H 	0.5591	0.3753	0.28673	0.536
Mof_H 	H 	0.4991	0.3546	0.31273	0.52
Mof_H 	H 	0.5451	0.3463	0.34323	0.502
Mof_C 	C 	0.6698	0.5238	0.21673	-0.121
Mof_H 	H 	0.6746	0.559	0.20143	0.051
Mof_H 	H 	0.7041	0.5221	0.20923	0.035
Mof_C 	C 	0.6201	0.4743	0.19055	0.044
Mof_C 	C 	0.5708	0.476	0.17865	-0.075
Mof_H 	H 	0.5689	0.5087	0.18673	0.053
Mof_C 	C 	0.6212	0.4244	0.17733	-0.09
Mof_H 	H 	0.6544	0.4229	0.18333	0.035
Mof_O 	O 	0.16134	0.78911	0.09347	-0.41
Mof_O 	O 	0.09668	0.71507	0.04667	-0.369
Mof_O 	O 	0.71413	0.64896	0.26534	-0.369
Mof_O 	O 	0.7499	0.7386	0.23703	-0.241
Mof_O 	O 	0.75947	0.5447	0.32236	-0.369
Mof_O 	O 	0.7328	0.4522	0.32973	-0.258
Mof_Cu	Cu	0.73434	0.59728	0.30036	0.909
Mof_N 	N 	0.10812	0.75266	0.18592	-0.258
Mof_H 	H 	0.1075	0.7342	0.21653	0.106
Mof_N 	N 	0.81544	0.66056	0.28684	-0.25
Mof_H 	H 	0.8373	0.6651	0.31613	0.113
Mof_N 	N 	0.66307	0.52527	0.27644	-0.26
Mof_H 	H 	0.6313	0.5273	0.28453	0.111
Mof_C 	C 	0.9007	0.8156	0.39473	-1.386
Mof_H 	H 	0.9403	0.8341	0.40473	0.523
Mof_H 	H 	0.8778	0.7899	0.42253	0.429
Mof_H 	H 	0.8896	0.844	0.38943	0.406
Mof_C 	C 	0.8917	0.7818	0.34223	0.835
Mof_H 	H 	0.9085	0.757	0.34243	-0.188
Mof_C 	C 	0.9197	0.8336	0.29753	-0.025
Mof_H 	H 	0.9603	0.8561	0.30313	0.088
Mof_H 	H 	0.9029	0.8574	0.30123	-0.072
Mof_H 	H 	0.9123	0.8174	0.26233	0.021
Mof_C 	C 	0.9393	0.8139	0.30003	-1.244
Mof_H 	H 	0.976	0.831	0.31713	0.33
Mof_H 	H 	0.9343	0.8432	0.28353	0.351
Mof_H 	H 	0.9371	0.7874	0.27323	0.412
Mof_H 	H 	0.947	0.812	0.40733	-0.157
Mof_C 	C 	0.2599	0.3762	0.42246	0.258
Mof_C 	C 	0.2884	0.3726	0.47427	0.077
Mof_H 	H 	0.3003	0.344	0.46987	-0.004
Mof_C 	C 	0.3414	0.4314	0.48517	-0.682
Mof_H 	H 	0.3289	0.4581	0.49517	0.191
Mof_H 	H 	0.3634	0.4453	0.45247	0.194
Mof_C 	C 	0.3809	0.4303	0.52997	1.058
Mof_H 	H 	0.3572	0.413	0.56167	-0.304
Mof_C 	C 	0.4245	0.4894	0.54417	-1.584
Mof_H 	H 	0.4061	0.5108	0.55337	0.469
Mof_H 	H 	0.4496	0.5072	0.51427	0.437
Mof_H 	H 	0.4464	0.4887	0.57417	0.458
Mof_C 	C 	0.4075	0.394	0.51477	-1.509
Mof_H 	H 	0.3778	0.3562	0.50517	0.472
Mof_H 	H 	0.4286	0.3917	0.54457	0.451
Mof_H 	H 	0.4328	0.4111	0.48487	0.422
Mof_C 	C 	0.2139	0.2936	0.52757	-0.089
Mof_H 	H 	0.1914	0.276	0.49577	0.011
Mof_H 	H 	0.1875	0.286	0.55687	0.034
Mof_C 	C 	0.24953	0.2658	0.53998	0.027
Mof_C 	C 	0.2792	0.2774	0.58767	-0.068
Mof_H 	H 	0.2756	0.3009	0.61267	0.053
Mof_C 	C 	0.2537	0.2294	0.50387	-0.076
Mof_H 	H 	0.2333	0.2206	0.47197	0.029
Mof_C 	C 	0.3147	0.2549	0.59927	-0.095
Mof_H 	H 	0.3347	0.2637	0.63127	0.056
Mof_C 	C 	0.2885	0.2054	0.51467	-0.102
Mof_H 	H 	0.2909	0.1808	0.49017	0.048
Mof_C 	C 	0.3196	0.2189	0.56215	0.042
Mof_C 	C 	0.3583	0.1951	0.57417	-0.117
Mof_H 	H 	0.3606	0.1754	0.54267	0.041
Mof_H 	H 	0.3964	0.2266	0.58137	0.042
Mof_C 	C 	0.2999	0.055	0.59117	0.243
Mof_C 	C 	0.2858	0.1005	0.60987	0.093
Mof_H 	H 	0.2641	0.1066	0.58177	0.003
Mof_C 	C 	0.2484	0.0773	0.65957	-0.652
Mof_H 	H 	0.2199	0.0377	0.65337	0.219
Mof_H 	H 	0.2721	0.0783	0.68917	0.217
Mof_C 	C 	0.5087	0.2317	0.65217	0.212
Mof_C 	C 	0.5249	0.1863	0.63707	0.165
Mof_H 	H 	0.5579	0.203	0.61287	-0.033
Mof_C 	C 	0.5399	0.1662	0.68827	-0.848
Mof_H 	H 	0.564	0.1994	0.71017	0.258
Mof_H 	H 	0.5051	0.1425	0.70807	0.258
Mof_C 	C 	0.5708	0.1327	0.67917	1.217
Mof_H 	H 	0.5471	0.1007	0.65527	-0.351
Mof_C 	C 	0.5769	0.1082	0.73087	-1.72
Mof_H 	H 	0.596	0.0869	0.72457	0.506
Mof_H 	H 	0.5397	0.0833	0.74567	0.487
Mof_H 	H 	0.5987	0.1386	0.75557	0.494
Mof_C 	C 	0.629	0.1682	0.65307	-1.711
Mof_H 	H 	0.6247	0.1838	0.62007	0.536
Mof_H 	H 	0.6454	0.1445	0.64607	0.52
Mof_H 	H 	0.6537	0.1988	0.67657	0.502
Mof_C 	C 	0.4762	0.146	0.55007	-0.121
Mof_H 	H 	0.441	0.1156	0.53477	0.051
Mof_H 	H 	0.4779	0.182	0.54257	0.035
Mof_C 	C 	0.5257	0.1458	0.52389	0.044
Mof_C 	C 	0.524	0.0948	0.51199	-0.075
Mof_H 	H 	0.4913	0.0602	0.52007	0.053
Mof_C 	C 	0.5756	0.1968	0.51067	-0.09
Mof_H 	H 	0.5771	0.2315	0.51667	0.035
Mof_O 	O 	0.21089	0.37223	0.42681	-0.41
Mof_O 	O 	0.28493	0.38161	0.38001	-0.369
Mof_O 	O 	0.35104	0.06517	0.59868	-0.369
Mof_O 	O 	0.2614	0.0113	0.57037	-0.241
Mof_O 	O 	0.4553	0.21477	0.6557	-0.369
Mof_O 	O 	0.5478	0.2806	0.66307	-0.258
Mof_Cu	Cu	0.40272	0.13706	0.6337	0.909
Mof_N 	N 	0.24734	0.35546	0.51926	-0.258
Mof_H 	H 	0.2658	0.3733	0.54987	0.106
Mof_N 	N 	0.33944	0.15488	0.62018	-0.25
Mof_H 	H 	0.3349	0.1722	0.64947	0.113
Mof_N 	N 	0.47473	0.1378	0.60978	-0.26
Mof_H 	H 	0.4727	0.104	0.61787	0.111
Mof_C 	C 	0.1844	0.0851	0.72807	-1.385
Mof_H 	H 	0.1659	0.1062	0.73807	0.523
Mof_H 	H 	0.2101	0.0879	0.75587	0.429
Mof_H 	H 	0.156	0.0456	0.72277	0.406
Mof_C 	C 	0.2182	0.1099	0.67557	0.835
Mof_H 	H 	0.243	0.1515	0.67577	-0.188
Mof_C 	C 	0.1664	0.0861	0.63087	-0.025
Mof_H 	H 	0.1439	0.1042	0.63647	0.088
Mof_H 	H 	0.1426	0.0455	0.63457	-0.072
Mof_H 	H 	0.1826	0.0949	0.59567	0.021
Mof_C 	C 	0.1861	0.1254	0.63337	-1.244
Mof_H 	H 	0.169	0.145	0.65047	0.33
Mof_H 	H 	0.1568	0.0911	0.61687	0.351
Mof_H 	H 	0.2126	0.1497	0.60657	0.412
Mof_H 	H 	0.188	0.135	0.74067	-0.157
Mof_C 	C 	0.3762	0.1163	0.75579	0.258
Mof_C 	C 	0.3726	0.0842	0.8076	0.077
Mof_H 	H 	0.344	0.0437	0.8032	-0.004
Mof_C 	C 	0.4314	0.09	0.8185	-0.682
Mof_H 	H 	0.4581	0.1292	0.8285	0.191
Mof_H 	H 	0.4453	0.0819	0.7858	0.194
Mof_C 	C 	0.4303	0.0494	0.8633	1.058
Mof_H 	H 	0.413	0.0558	0.895	-0.304
Mof_C 	C 	0.4894	0.0649	0.8775	-1.584
Mof_H 	H 	0.5108	0.1047	0.8867	0.469
Mof_H 	H 	0.5072	0.0576	0.8476	0.437
Mof_H 	H 	0.4887	0.0423	0.9075	0.458
Mof_C 	C 	0.394	0.9865	0.8481	-1.509
Mof_H 	H 	0.3562	0.9784	0.8385	0.472
Mof_H 	H 	0.3917	0.9631	0.8779	0.45
Mof_H 	H 	0.4111	0.9783	0.8182	0.422
Mof_C 	C 	0.2936	0.0797	0.8609	-0.089
Mof_H 	H 	0.276	0.0846	0.8291	0.011
Mof_H 	H 	0.286	0.0985	0.8902	0.034
Mof_C 	C 	0.2658	0.01627	0.87331	0.027
Mof_C 	C 	0.2774	0.9982	0.921	-0.068
Mof_H 	H 	0.3009	0.0253	0.946	0.053
Mof_C 	C 	0.2294	0.9757	0.8372	-0.076
Mof_H 	H 	0.2206	0.9873	0.8053	0.029
Mof_C 	C 	0.2549	0.9402	0.9326	-0.095
Mof_H 	H 	0.2637	0.929	0.9646	0.056
Mof_C 	C 	0.2054	0.9169	0.848	-0.102
Mof_H 	H 	0.1808	0.8899	0.8235	0.048
Mof_C 	C 	0.2189	0.8993	0.89548	0.042
Mof_C 	C 	0.1951	0.8368	0.9075	-0.117
Mof_H 	H 	0.1754	0.8148	0.876	0.041
Mof_H 	H 	0.2266	0.8302	0.9147	0.042
Mof_C 	C 	0.055	0.7551	0.9245	0.243
Mof_C 	C 	0.1005	0.8147	0.9432	0.093
Mof_H 	H 	0.1066	0.8425	0.9151	0.002
Mof_C 	C 	0.0773	0.8289	0.9929	-0.653
Mof_H 	H 	0.0377	0.8178	0.9867	0.22
Mof_H 	H 	0.0783	0.8062	0.0225	0.217
Mof_C 	C 	0.2317	0.723	0.9855	0.212
Mof_C 	C 	0.1863	0.6614	0.9704	0.165
Mof_H 	H 	0.203	0.6451	0.9462	-0.033
Mof_C 	C 	0.1662	0.6263	0.0216	-0.85
Mof_H 	H 	0.1994	0.6354	0.0435	0.259
Mof_H 	H 	0.1425	0.6374	0.0414	0.259
Mof_C 	C 	0.1327	0.5619	0.0125	1.22
Mof_H 	H 	0.1007	0.5536	0.9886	-0.352
Mof_C 	C 	0.1082	0.5313	0.0642	-1.723
Mof_H 	H 	0.0869	0.4909	0.0579	0.507
Mof_H 	H 	0.0833	0.5436	0.079	0.488
Mof_H 	H 	0.1386	0.5399	0.0889	0.495
Mof_C 	C 	0.1682	0.5392	0.9864	-1.715
Mof_H 	H 	0.1838	0.5591	0.9534	0.537
Mof_H 	H 	0.1445	0.4991	0.9794	0.521
Mof_H 	H 	0.1988	0.5451	0.0099	0.503
Mof_C 	C 	0.146	0.6698	0.8834	-0.121
Mof_H 	H 	0.1156	0.6746	0.8681	0.051
Mof_H 	H 	0.182	0.7041	0.8759	0.035
Mof_C 	C 	0.1458	0.6201	0.85722	0.044
Mof_C 	C 	0.0948	0.5708	0.84532	-0.075
Mof_H 	H 	0.0602	0.5689	0.8534	0.053
Mof_C 	C 	0.1968	0.6212	0.844	-0.09
Mof_H 	H 	0.2315	0.6544	0.85	0.035
Mof_O 	O 	0.37223	0.16134	0.76014	-0.41
Mof_O 	O 	0.38161	0.09668	0.71334	-0.369
Mof_O 	O 	0.06517	0.71413	0.93201	-0.369
Mof_O 	O 	0.0113	0.7499	0.9037	-0.241
Mof_O 	O 	0.21477	0.75947	0.98903	-0.369
Mof_O 	O 	0.2806	0.7328	0.9964	-0.258
Mof_Cu	Cu	0.13706	0.73434	0.96703	0.909
Mof_N 	N 	0.35546	0.10812	0.85259	-0.258
Mof_H 	H 	0.3733	0.1075	0.8832	0.106
Mof_N 	N 	0.15488	0.81544	0.95351	-0.25
Mof_H 	H 	0.1722	0.8373	0.9828	0.113
Mof_N 	N 	0.1378	0.66307	0.94311	-0.26
Mof_H 	H 	0.104	0.6313	0.9512	0.111
Mof_C 	C 	0.0851	0.9007	0.0614	-1.387
Mof_H 	H 	0.1062	0.9403	0.0714	0.524
Mof_H 	H 	0.0879	0.8778	0.0892	0.429
Mof_H 	H 	0.0456	0.8896	0.0561	0.407
Mof_C 	C 	0.1099	0.8917	0.0089	0.836
Mof_H 	H 	0.1515	0.9085	0.0091	-0.188
Mof_C 	C 	0.0861	0.9197	0.9642	-0.026
Mof_H 	H 	0.1042	0.9603	0.9698	0.088
Mof_H 	H 	0.0455	0.9029	0.9679	-0.072
Mof_H 	H 	0.0949	0.9123	0.929	0.021
Mof_C 	C 	0.1254	0.9393	0.9667	-1.246
Mof_H 	H 	0.145	0.976	0.9838	0.331
Mof_H 	H 	0.0911	0.9343	0.9502	0.352
Mof_H 	H 	0.1497	0.9371	0.9399	0.412
Mof_H 	H 	0.135	0.947	0.074	-0.158
Mof_C 	C 	0.8837	0.2599	0.08912	0.258
Mof_C 	C 	0.9158	0.2884	0.14093	0.077
Mof_H 	H 	0.9563	0.3003	0.13653	-0.004
Mof_C 	C 	0.91	0.3414	0.15183	-0.682
Mof_H 	H 	0.8708	0.3289	0.16183	0.191
Mof_H 	H 	0.9181	0.3634	0.11913	0.194
Mof_C 	C 	0.9506	0.3809	0.19663	1.057
Mof_H 	H 	0.9442	0.3572	0.22833	-0.304
Mof_C 	C 	0.9351	0.4245	0.21083	-1.584
Mof_H 	H 	0.8953	0.4061	0.22003	0.469
Mof_H 	H 	0.9424	0.4496	0.18093	0.437
Mof_H 	H 	0.9577	0.4464	0.24083	0.458
Mof_C 	C 	0.0135	0.4075	0.18143	-1.508
Mof_H 	H 	0.0216	0.3778	0.17183	0.472
Mof_H 	H 	0.0369	0.4286	0.21123	0.45
Mof_H 	H 	0.0217	0.4328	0.15153	0.422
Mof_C 	C 	0.9203	0.2139	0.19423	-0.089
Mof_H 	H 	0.9154	0.1914	0.16243	0.011
Mof_H 	H 	0.9015	0.1875	0.22353	0.034
Mof_C 	C 	0.98373	0.24953	0.20664	0.027
Mof_C 	C 	0.0018	0.2792	0.25433	-0.068
Mof_H 	H 	0.9747	0.2756	0.27933	0.053
Mof_C 	C 	0.0243	0.2537	0.17053	-0.076
Mof_H 	H 	0.0127	0.2333	0.13863	0.029
Mof_C 	C 	0.0598	0.3147	0.26593	-0.095
Mof_H 	H 	0.071	0.3347	0.29793	0.056
Mof_C 	C 	0.0831	0.2885	0.18133	-0.102
Mof_H 	H 	0.1101	0.2909	0.15683	0.048
Mof_C 	C 	0.1007	0.3196	0.22881	0.042
Mof_C 	C 	0.1632	0.3583	0.24083	-0.117
Mof_H 	H 	0.1852	0.3606	0.20933	0.041
Mof_H 	H 	0.1698	0.3964	0.24803	0.042
Mof_C 	C 	0.2449	0.2999	0.25783	0.243
Mof_C 	C 	0.1853	0.2858	0.27653	0.093
Mof_H 	H 	0.1575	0.2641	0.24843	0.003
Mof_C 	C 	0.1711	0.2484	0.32623	-0.652
Mof_H 	H 	0.1822	0.2199	0.32003	0.219
Mof_H 	H 	0.1938	0.2721	0.35583	0.217
Mof_C 	C 	0.277	0.5087	0.31883	0.212
Mof_C 	C 	0.3386	0.5249	0.30373	0.165
Mof_H 	H 	0.3549	0.5579	0.27953	-0.033
Mof_C 	C 	0.3737	0.5399	0.35493	-0.848
Mof_H 	H 	0.3646	0.564	0.37683	0.258
Mof_H 	H 	0.3626	0.5051	0.37473	0.258
Mof_C 	C 	0.4381	0.5708	0.34583	1.217
Mof_H 	H 	0.4464	0.5471	0.32193	-0.351
Mof_C 	C 	0.4687	0.5769	0.39753	-1.72
Mof_H 	H 	0.5091	0.596	0.39123	0.506
Mof_H 	H 	0.4564	0.5397	0.41233	0.487
Mof_H 	H 	0.4601	0.5987	0.42223	0.494
Mof_C 	C 	0.4608	0.629	0.31973	-1.711
Mof_H 	H 	0.4409	0.6247	0.28673	0.536
Mof_H 	H 	0.5009	0.6454	0.31273	0.52
Mof_H 	H 	0.4549	0.6537	0.34323	0.502
Mof_C 	C 	0.3302	0.4762	0.21673	-0.121
Mof_H 	H 	0.3254	0.441	0.20143	0.051
Mof_H 	H 	0.2959	0.4779	0.20923	0.035
Mof_C 	C 	0.3799	0.5257	0.19055	0.044
Mof_C 	C 	0.4292	0.524	0.17865	-0.075
Mof_H 	H 	0.4311	0.4913	0.18673	0.053
Mof_C 	C 	0.3788	0.5756	0.17733	-0.09
Mof_H 	H 	0.3456	0.5771	0.18333	0.035
Mof_O 	O 	0.83866	0.21089	0.09347	-0.41
Mof_O 	O 	0.90332	0.28493	0.04667	-0.369
Mof_O 	O 	0.28587	0.35104	0.26534	-0.369
Mof_O 	O 	0.2501	0.2614	0.23703	-0.241
Mof_O 	O 	0.24053	0.4553	0.32236	-0.369
Mof_O 	O 	0.2672	0.5478	0.32973	-0.258
Mof_Cu	Cu	0.26566	0.40272	0.30036	0.909
Mof_N 	N 	0.89188	0.24734	0.18592	-0.258
Mof_H 	H 	0.8925	0.2658	0.21653	0.106
Mof_N 	N 	0.18456	0.33944	0.28684	-0.25
Mof_H 	H 	0.1627	0.3349	0.31613	0.113
Mof_N 	N 	0.33693	0.47473	0.27644	-0.26
Mof_H 	H 	0.3687	0.4727	0.28453	0.111
Mof_C 	C 	0.0993	0.1844	0.39473	-1.386
Mof_H 	H 	0.0597	0.1659	0.40473	0.523
Mof_H 	H 	0.1222	0.2101	0.42253	0.429
Mof_H 	H 	0.1104	0.156	0.38943	0.406
Mof_C 	C 	0.1083	0.2182	0.34223	0.835
Mof_H 	H 	0.0915	0.243	0.34243	-0.188
Mof_C 	C 	0.0803	0.1664	0.29753	-0.025
Mof_H 	H 	0.0397	0.1439	0.30313	0.088
Mof_H 	H 	0.0971	0.1426	0.30123	-0.072
Mof_H 	H 	0.0877	0.1826	0.26233	0.021
Mof_C 	C 	0.0607	0.1861	0.30003	-1.244
Mof_H 	H 	0.024	0.169	0.31713	0.33
Mof_H 	H 	0.0657	0.1568	0.28353	0.351
Mof_H 	H 	0.0629	0.2126	0.27323	0.412
Mof_H 	H 	0.053	0.188	0.40733	-0.157
Mof_C 	C 	0.7401	0.6238	0.42246	0.258
Mof_C 	C 	0.7116	0.6274	0.47427	0.077
Mof_H 	H 	0.6997	0.656	0.46987	-0.004
Mof_C 	C 	0.6586	0.5686	0.48517	-0.682
Mof_H 	H 	0.6711	0.5419	0.49517	0.191
Mof_H 	H 	0.6366	0.5547	0.45247	0.194
Mof_C 	C 	0.6191	0.5697	0.52997	1.058
Mof_H 	H 	0.6428	0.587	0.56167	-0.304
Mof_C 	C 	0.5755	0.5106	0.54417	-1.584
Mof_H 	H 	0.5939	0.4892	0.55337	0.469
Mof_H 	H 	0.5504	0.4928	0.51427	0.437
Mof_H 	H 	0.5536	0.5113	0.57417	0.458
Mof_C 	C 	0.5925	0.606	0.51477	-1.509
Mof_H 	H 	0.6222	0.6438	0.50517	0.472
Mof_H 	H 	0.5714	0.6083	0.54457	0.451
Mof_H 	H 	0.5672	0.5889	0.48487	0.422
Mof_C 	C 	0.7861	0.7064	0.52757	-0.089
Mof_H 	H 	0.8086	0.724	0.49577	0.011
Mof_H 	H 	0.8125	0.714	0.55687	0.034
Mof_C 	C 	0.75047	0.7342	0.53998	0.027
Mof_C 	C 	0.7208	0.7226	0.58767	-0.068
Mof_H 	H 	0.7244	0.6991	0.61267	0.053
Mof_C 	C 	0.7463	0.7706	0.50387	-0.076
Mof_H 	H 	0.7667	0.7794	0.47197	0.029
Mof_C 	C 	0.6853	0.7451	0.59927	-0.095
Mof_H 	H 	0.6653	0.7363	0.63127	0.056
Mof_C 	C 	0.7115	0.7946	0.51467	-0.102
Mof_H 	H 	0.7091	0.8192	0.49017	0.048
Mof_C 	C 	0.6804	0.7811	0.56215	0.042
Mof_C 	C 	0.6417	0.8049	0.57417	-0.117
Mof_H 	H 	0.6394	0.8246	0.54267	0.041
Mof_H 	H 	0.6036	0.7734	0.58137	0.042
Mof_C 	C 	0.7001	0.945	0.59117	0.243
Mof_C 	C 	0.7142	0.8995	0.60987	0.093
Mof_H 	H 	0.7359	0.8934	0.58177	0.003
Mof_C 	C 	0.7516	0.9227	0.65957	-0.652
Mof_H 	H 	0.7801	0.9623	0.65337	0.219
Mof_H 	H 	0.7279	0.9217	0.68917	0.217
Mof_C 	C 	0.4913	0.7683	0.65217	0.212
Mof_C 	C 	0.4751	0.8137	0.63707	0.165
Mof_H 	H 	0.4421	0.797	0.61287	-0.033
Mof_C 	C 	0.4601	0.8338	0.68827	-0.848
Mof_H 	H 	0.436	0.8006	0.71017	0.258
Mof_H 	H 	0.4949	0.8575	0.70807	0.258
Mof_C 	C 	0.4292	0.8673	0.67917	1.217
Mof_H 	H 	0.4529	0.8993	0.65527	-0.351
Mof_C 	C 	0.4231	0.8918	0.73087	-1.72
Mof_H 	H 	0.404	0.9131	0.72457	0.506
Mof_H 	H 	0.4603	0.9167	0.74567	0.487
Mof_H 	H 	0.4013	0.8614	0.75557	0.494
Mof_C 	C 	0.371	0.8318	0.65307	-1.711
Mof_H 	H 	0.3753	0.8162	0.62007	0.536
Mof_H 	H 	0.3546	0.8555	0.64607	0.52
Mof_H 	H 	0.3463	0.8012	0.67657	0.502
Mof_C 	C 	0.5238	0.854	0.55007	-0.121
Mof_H 	H 	0.559	0.8844	0.53477	0.051
Mof_H 	H 	0.5221	0.818	0.54257	0.035
Mof_C 	C 	0.4743	0.8542	0.52389	0.044
Mof_C 	C 	0.476	0.9052	0.51199	-0.075
Mof_H 	H 	0.5087	0.9398	0.52007	0.053
Mof_C 	C 	0.4244	0.8032	0.51067	-0.09
Mof_H 	H 	0.4229	0.7685	0.51667	0.035
Mof_O 	O 	0.78911	0.62777	0.42681	-0.41
Mof_O 	O 	0.71507	0.61839	0.38001	-0.369
Mof_O 	O 	0.64896	0.93483	0.59868	-0.369
Mof_O 	O 	0.7386	0.9887	0.57037	-0.241
Mof_O 	O 	0.5447	0.78523	0.6557	-0.369
Mof_O 	O 	0.4522	0.7194	0.66307	-0.258
Mof_Cu	Cu	0.59728	0.86294	0.6337	0.909
Mof_N 	N 	0.75266	0.64454	0.51926	-0.258
Mof_H 	H 	0.7342	0.6267	0.54987	0.106
Mof_N 	N 	0.66056	0.84512	0.62018	-0.25
Mof_H 	H 	0.6651	0.8278	0.64947	0.113
Mof_N 	N 	0.52527	0.8622	0.60978	-0.26
Mof_H 	H 	0.5273	0.896	0.61787	0.111
Mof_C 	C 	0.8156	0.9149	0.72807	-1.385
Mof_H 	H 	0.8341	0.8938	0.73807	0.523
Mof_H 	H 	0.7899	0.9121	0.75587	0.429
Mof_H 	H 	0.844	0.9544	0.72277	0.406
Mof_C 	C 	0.7818	0.8901	0.67557	0.835
Mof_H 	H 	0.757	0.8485	0.67577	-0.188
Mof_C 	C 	0.8336	0.9139	0.63087	-0.025
Mof_H 	H 	0.8561	0.8958	0.63647	0.088
Mof_H 	H 	0.8574	0.9545	0.63457	-0.072
Mof_H 	H 	0.8174	0.9051	0.59567	0.021
Mof_C 	C 	0.8139	0.8746	0.63337	-1.244
Mof_H 	H 	0.831	0.855	0.65047	0.33
Mof_H 	H 	0.8432	0.9089	0.61687	0.351
Mof_H 	H 	0.7874	0.8503	0.60657	0.412
Mof_H 	H 	0.812	0.865	0.74067	-0.157
Mof_C 	C 	0.8837	0.6238	0.57754	0.258
Mof_C 	C 	0.9158	0.6274	0.52573	0.077
Mof_H 	H 	0.9563	0.656	0.53013	-0.004
Mof_C 	C 	0.91	0.5686	0.51483	-0.682
Mof_H 	H 	0.8708	0.5419	0.50483	0.191
Mof_H 	H 	0.9181	0.5547	0.54753	0.194
Mof_C 	C 	0.9506	0.5697	0.47003	1.058
Mof_H 	H 	0.9442	0.587	0.43833	-0.304
Mof_C 	C 	0.9351	0.5106	0.45583	-1.584
Mof_H 	H 	0.8953	0.4892	0.44663	0.469
Mof_H 	H 	0.9424	0.4928	0.48573	0.437
Mof_H 	H 	0.9577	0.5113	0.42583	0.458
Mof_C 	C 	0.0135	0.606	0.48523	-1.509
Mof_H 	H 	0.0216	0.6438	0.49483	0.472
Mof_H 	H 	0.0369	0.6083	0.45543	0.451
Mof_H 	H 	0.0217	0.5889	0.51513	0.422
Mof_C 	C 	0.9203	0.7064	0.47243	-0.089
Mof_H 	H 	0.9154	0.724	0.50423	0.011
Mof_H 	H 	0.9015	0.714	0.44313	0.034
Mof_C 	C 	0.98373	0.7342	0.46002	0.027
Mof_C 	C 	0.0018	0.7226	0.41233	-0.068
Mof_H 	H 	0.9747	0.6991	0.38733	0.053
Mof_C 	C 	0.0243	0.7706	0.49613	-0.076
Mof_H 	H 	0.0127	0.7794	0.52803	0.029
Mof_C 	C 	0.0598	0.7451	0.40073	-0.095
Mof_H 	H 	0.071	0.7363	0.36873	0.056
Mof_C 	C 	0.0831	0.7946	0.48533	-0.102
Mof_H 	H 	0.1101	0.8192	0.50983	0.048
Mof_C 	C 	0.1007	0.7811	0.43785	0.042
Mof_C 	C 	0.1632	0.8049	0.42583	-0.117
Mof_H 	H 	0.1852	0.8246	0.45733	0.041
Mof_H 	H 	0.1698	0.7734	0.41863	0.042
Mof_C 	C 	0.2449	0.945	0.40883	0.243
Mof_C 	C 	0.1853	0.8995	0.39013	0.093
Mof_H 	H 	0.1575	0.8934	0.41823	0.003
Mof_C 	C 	0.1711	0.9227	0.34043	-0.652
Mof_H 	H 	0.1822	0.9623	0.34663	0.219
Mof_H 	H 	0.1938	0.9217	0.31083	0.217
Mof_C 	C 	0.277	0.7683	0.34783	0.212
Mof_C 	C 	0.3386	0.8137	0.36293	0.165
Mof_H 	H 	0.3549	0.797	0.38713	-0.033
Mof_C 	C 	0.3737	0.8338	0.31173	-0.848
Mof_H 	H 	0.3646	0.8006	0.28983	0.258
Mof_H 	H 	0.3626	0.8575	0.29193	0.258
Mof_C 	C 	0.4381	0.8673	0.32083	1.217
Mof_H 	H 	0.4464	0.8993	0.34473	-0.351
Mof_C 	C 	0.4687	0.8918	0.26913	-1.72
Mof_H 	H 	0.5091	0.9131	0.27543	0.506
Mof_H 	H 	0.4564	0.9167	0.25433	0.487
Mof_H 	H 	0.4601	0.8614	0.24443	0.494
Mof_C 	C 	0.4608	0.8318	0.34693	-1.711
Mof_H 	H 	0.4409	0.8162	0.37993	0.536
Mof_H 	H 	0.5009	0.8555	0.35393	0.52
Mof_H 	H 	0.4549	0.8012	0.32343	0.502
Mof_C 	C 	0.3302	0.854	0.44993	-0.121
Mof_H 	H 	0.3254	0.8844	0.46523	0.051
Mof_H 	H 	0.2959	0.818	0.45743	0.035
Mof_C 	C 	0.3799	0.8542	0.47611	0.044
Mof_C 	C 	0.4292	0.9052	0.48801	-0.075
Mof_H 	H 	0.4311	0.9398	0.47993	0.053
Mof_C 	C 	0.3788	0.8032	0.48933	-0.09
Mof_H 	H 	0.3456	0.7685	0.48333	0.035
Mof_O 	O 	0.83866	0.62777	0.57319	-0.41
Mof_O 	O 	0.90332	0.61839	0.61999	-0.369
Mof_O 	O 	0.28587	0.93483	0.40132	-0.369
Mof_O 	O 	0.2501	0.9887	0.42963	-0.241
Mof_O 	O 	0.24053	0.78523	0.3443	-0.369
Mof_O 	O 	0.2672	0.7194	0.33693	-0.258
Mof_Cu	Cu	0.26566	0.86294	0.3663	0.909
Mof_N 	N 	0.89188	0.64454	0.48074	-0.258
Mof_H 	H 	0.8925	0.6267	0.45013	0.106
Mof_N 	N 	0.18456	0.84512	0.37982	-0.25
Mof_H 	H 	0.1627	0.8278	0.35053	0.113
Mof_N 	N 	0.33693	0.8622	0.39022	-0.26
Mof_H 	H 	0.3687	0.896	0.38213	0.111
Mof_C 	C 	0.0993	0.9149	0.27193	-1.385
Mof_H 	H 	0.0597	0.8938	0.26193	0.523
Mof_H 	H 	0.1222	0.9121	0.24413	0.429
Mof_H 	H 	0.1104	0.9544	0.27723	0.406
Mof_C 	C 	0.1083	0.8901	0.32443	0.835
Mof_H 	H 	0.0915	0.8485	0.32423	-0.188
Mof_C 	C 	0.0803	0.9139	0.36913	-0.025
Mof_H 	H 	0.0397	0.8958	0.36353	0.088
Mof_H 	H 	0.0971	0.9545	0.36543	-0.072
Mof_H 	H 	0.0877	0.9051	0.40433	0.021
Mof_C 	C 	0.0607	0.8746	0.36663	-1.244
Mof_H 	H 	0.024	0.855	0.34953	0.33
Mof_H 	H 	0.0657	0.9089	0.38313	0.351
Mof_H 	H 	0.0629	0.8503	0.39343	0.412
Mof_H 	H 	0.053	0.865	0.25933	-0.157
Mof_C 	C 	0.7401	0.1163	0.24421	0.258
Mof_C 	C 	0.7116	0.0842	0.1924	0.077
Mof_H 	H 	0.6997	0.0437	0.1968	-0.004
Mof_C 	C 	0.6586	0.09	0.1815	-0.682
Mof_H 	H 	0.6711	0.1292	0.1715	0.191
Mof_H 	H 	0.6366	0.0819	0.2142	0.194
Mof_C 	C 	0.6191	0.0494	0.1367	1.058
Mof_H 	H 	0.6428	0.0558	0.105	-0.304
Mof_C 	C 	0.5755	0.0649	0.1225	-1.584
Mof_H 	H 	0.5939	0.1047	0.1133	0.469
Mof_H 	H 	0.5504	0.0576	0.1524	0.437
Mof_H 	H 	0.5536	0.0423	0.0925	0.458
Mof_C 	C 	0.5925	0.9865	0.1519	-1.509
Mof_H 	H 	0.6222	0.9784	0.1615	0.472
Mof_H 	H 	0.5714	0.9631	0.1221	0.451
Mof_H 	H 	0.5672	0.9783	0.1818	0.422
Mof_C 	C 	0.7861	0.0797	0.1391	-0.089
Mof_H 	H 	0.8086	0.0846	0.1709	0.011
Mof_H 	H 	0.8125	0.0985	0.1098	0.034
Mof_C 	C 	0.75047	0.01627	0.12669	0.027
Mof_C 	C 	0.7208	0.9982	0.079	-0.068
Mof_H 	H 	0.7244	0.0253	0.054	0.053
Mof_C 	C 	0.7463	0.9757	0.1628	-0.076
Mof_H 	H 	0.7667	0.9873	0.1947	0.029
Mof_C 	C 	0.6853	0.9402	0.0674	-0.095
Mof_H 	H 	0.6653	0.929	0.0354	0.056
Mof_C 	C 	0.7115	0.9169	0.152	-0.102
Mof_H 	H 	0.7091	0.8899	0.1765	0.048
Mof_C 	C 	0.6804	0.8993	0.10452	0.042
Mof_C 	C 	0.6417	0.8368	0.0925	-0.117
Mof_H 	H 	0.6394	0.8148	0.124	0.041
Mof_H 	H 	0.6036	0.8302	0.0853	0.042
Mof_C 	C 	0.7001	0.7551	0.0755	0.243
Mof_C 	C 	0.7142	0.8147	0.0568	0.092
Mof_H 	H 	0.7359	0.8425	0.0849	0.003
Mof_C 	C 	0.7516	0.8289	0.0071	-0.65
Mof_H 	H 	0.7801	0.8178	0.0133	0.219
Mof_H 	H 	0.7279	0.8062	0.9775	0.216
Mof_C 	C 	0.4913	0.723	0.0145	0.212
Mof_C 	C 	0.4751	0.6614	0.0296	0.164
Mof_H 	H 	0.4421	0.6451	0.0538	-0.033
Mof_C 	C 	0.4601	0.6263	0.9784	-0.847
Mof_H 	H 	0.436	0.6354	0.9565	0.258
Mof_H 	H 	0.4949	0.6374	0.9586	0.258
Mof_C 	C 	0.4292	0.5619	0.9875	1.214
Mof_H 	H 	0.4529	0.5536	0.0114	-0.35
Mof_C 	C 	0.4231	0.5313	0.9358	-1.716
Mof_H 	H 	0.404	0.4909	0.9421	0.505
Mof_H 	H 	0.4603	0.5436	0.921	0.486
Mof_H 	H 	0.4013	0.5399	0.9111	0.493
Mof_C 	C 	0.371	0.5392	0.0136	-1.707
Mof_H 	H 	0.3753	0.5591	0.0466	0.535
Mof_H 	H 	0.3546	0.4991	0.0206	0.519
Mof_H 	H 	0.3463	0.5451	0.9901	0.5
Mof_C 	C 	0.5238	0.6698	0.1166	-0.121
Mof_H 	H 	0.559	0.6746	0.1319	0.051
Mof_H 	H 	0.5221	0.7041	0.1241	0.035
Mof_C 	C 	0.4743	0.6201	0.14278	0.044
Mof_C 	C 	0.476	0.5708	0.15468	-0.075
Mof_H 	H 	0.5087	0.5689	0.1466	0.053
Mof_C 	C 	0.4244	0.6212	0.156	-0.09
Mof_H 	H 	0.4229	0.6544	0.15	0.035
Mof_O 	O 	0.78911	0.16134	0.23986	-0.41
Mof_O 	O 	0.71507	0.09668	0.28666	-0.369
Mof_O 	O 	0.64896	0.71413	0.06799	-0.369
Mof_O 	O 	0.7386	0.7499	0.0963	-0.241
Mof_O 	O 	0.5447	0.75947	0.01097	-0.369
Mof_O 	O 	0.4522	0.7328	0.0036	-0.258
Mof_Cu	Cu	0.59728	0.73434	0.03297	0.909
Mof_N 	N 	0.75266	0.10812	0.14741	-0.258
Mof_H 	H 	0.7342	0.1075	0.1168	0.106
Mof_N 	N 	0.66056	0.81544	0.04649	-0.249
Mof_H 	H 	0.6651	0.8373	0.0172	0.113
Mof_N 	N 	0.52527	0.66307	0.05689	-0.26
Mof_H 	H 	0.5273	0.6313	0.0488	0.111
Mof_C 	C 	0.8156	0.9007	0.9386	-1.383
Mof_H 	H 	0.8341	0.9403	0.9286	0.522
Mof_H 	H 	0.7899	0.8778	0.9108	0.428
Mof_H 	H 	0.844	0.8896	0.9439	0.406
Mof_C 	C 	0.7818	0.8917	0.9911	0.832
Mof_H 	H 	0.757	0.9085	0.9909	-0.187
Mof_C 	C 	0.8336	0.9197	0.0358	-0.025
Mof_H 	H 	0.8561	0.9603	0.0302	0.088
Mof_H 	H 	0.8574	0.9029	0.0321	-0.071
Mof_H 	H 	0.8174	0.9123	0.071	0.02
Mof_C 	C 	0.8139	0.9393	0.0333	-1.242
Mof_H 	H 	0.831	0.976	0.0162	0.329
Mof_H 	H 	0.8432	0.9343	0.0498	0.35
Mof_H 	H 	0.7874	0.9371	0.0601	0.411
Mof_H 	H 	0.812	0.947	0.926	-0.157
Mof_C 	C 	0.3762	0.2599	0.91088	0.258
Mof_C 	C 	0.3726	0.2884	0.85907	0.077
Mof_H 	H 	0.344	0.3003	0.86347	-0.004
Mof_C 	C 	0.4314	0.3414	0.84817	-0.682
Mof_H 	H 	0.4581	0.3289	0.83817	0.192
Mof_H 	H 	0.4453	0.3634	0.88087	0.194
Mof_C 	C 	0.4303	0.3809	0.80337	1.058
Mof_H 	H 	0.413	0.3572	0.77167	-0.304
Mof_C 	C 	0.4894	0.4245	0.78917	-1.585
Mof_H 	H 	0.5108	0.4061	0.77997	0.469
Mof_H 	H 	0.5072	0.4496	0.81907	0.437
Mof_H 	H 	0.4887	0.4464	0.75917	0.458
Mof_C 	C 	0.394	0.4075	0.81857	-1.509
Mof_H 	H 	0.3562	0.3778	0.82817	0.472
Mof_H 	H 	0.3917	0.4286	0.78877	0.451
Mof_H 	H 	0.4111	0.4328	0.84847	0.423
Mof_C 	C 	0.2936	0.2139	0.80577	-0.089
Mof_H 	H 	0.276	0.1914	0.83757	0.011
Mof_H 	H 	0.286	0.1875	0.77647	0.034
Mof_C 	C 	0.2658	0.24953	0.79336	0.027
Mof_C 	C 	0.2774	0.2792	0.74567	-0.068
Mof_H 	H 	0.3009	0.2756	0.72067	0.053
Mof_C 	C 	0.2294	0.2537	0.82947	-0.076
Mof_H 	H 	0.2206	0.2333	0.86137	0.029
Mof_C 	C 	0.2549	0.3147	0.73407	-0.094
Mof_H 	H 	0.2637	0.3347	0.70207	0.056
Mof_C 	C 	0.2054	0.2885	0.81867	-0.102
Mof_H 	H 	0.1808	0.2909	0.84317	0.048
Mof_C 	C 	0.2189	0.3196	0.77119	0.042
Mof_C 	C 	0.1951	0.3583	0.75917	-0.117
Mof_H 	H 	0.1754	0.3606	0.79067	0.041
Mof_H 	H 	0.2266	0.3964	0.75197	0.042
Mof_C 	C 	0.055	0.2999	0.74217	0.243
Mof_C 	C 	0.1005	0.2858	0.72347	0.093
Mof_H 	H 	0.1066	0.2641	0.75157	0.003
Mof_C 	C 	0.0773	0.2484	0.67377	-0.652
Mof_H 	H 	0.0377	0.2199	0.67997	0.219
Mof_H 	H 	0.0783	0.2721	0.64417	0.217
Mof_C 	C 	0.2317	0.5087	0.68117	0.212
Mof_C 	C 	0.1863	0.5249	0.69627	0.165
Mof_H 	H 	0.203	0.5579	0.72047	-0.033
Mof_C 	C 	0.1662	0.5399	0.64507	-0.848
Mof_H 	H 	0.1994	0.564	0.62317	0.258
Mof_H 	H 	0.1425	0.5051	0.62527	0.258
Mof_C 	C 	0.1327	0.5708	0.65417	1.217
Mof_H 	H 	0.1007	0.5471	0.67807	-0.351
Mof_C 	C 	0.1082	0.5769	0.60247	-1.72
Mof_H 	H 	0.0869	0.596	0.60877	0.506
Mof_H 	H 	0.0833	0.5397	0.58767	0.487
Mof_H 	H 	0.1386	0.5987	0.57777	0.494
Mof_C 	C 	0.1682	0.629	0.68027	-1.711
Mof_H 	H 	0.1838	0.6247	0.71327	0.536
Mof_H 	H 	0.1445	0.6454	0.68727	0.52
Mof_H 	H 	0.1988	0.6537	0.65677	0.502
Mof_C 	C 	0.146	0.4762	0.78327	-0.121
Mof_H 	H 	0.1156	0.441	0.79857	0.051
Mof_H 	H 	0.182	0.4779	0.79077	0.035
Mof_C 	C 	0.1458	0.5257	0.80945	0.044
Mof_C 	C 	0.0948	0.524	0.82135	-0.075
Mof_H 	H 	0.0602	0.4913	0.81327	0.053
Mof_C 	C 	0.1968	0.5756	0.82267	-0.09
Mof_H 	H 	0.2315	0.5771	0.81667	0.035
Mof_O 	O 	0.37223	0.21089	0.90653	-0.41
Mof_O 	O 	0.38161	0.28493	0.95333	-0.369
Mof_O 	O 	0.06517	0.35104	0.73466	-0.369
Mof_O 	O 	0.0113	0.2614	0.76297	-0.241
Mof_O 	O 	0.21477	0.4553	0.67764	-0.369
Mof_O 	O 	0.2806	0.5478	0.67027	-0.258
Mof_Cu	Cu	0.13706	0.40272	0.69964	0.909
Mof_N 	N 	0.35546	0.24734	0.81408	-0.258
Mof_H 	H 	0.3733	0.2658	0.78347	0.106
Mof_N 	N 	0.15488	0.33944	0.71316	-0.25
Mof_H 	H 	0.1722	0.3349	0.68387	0.113
Mof_N 	N 	0.1378	0.47473	0.72356	-0.26
Mof_H 	H 	0.104	0.4727	0.71547	0.111
Mof_C 	C 	0.0851	0.1844	0.60527	-1.385
Mof_H 	H 	0.1062	0.1659	0.59527	0.523
Mof_H 	H 	0.0879	0.2101	0.57747	0.429
Mof_H 	H 	0.0456	0.156	0.61057	0.406
Mof_C 	C 	0.1099	0.2182	0.65777	0.835
Mof_H 	H 	0.1515	0.243	0.65757	-0.188
Mof_C 	C 	0.0861	0.1664	0.70247	-0.025
Mof_H 	H 	0.1042	0.1439	0.69687	0.088
Mof_H 	H 	0.0455	0.1426	0.69877	-0.072
Mof_H 	H 	0.0949	0.1826	0.73767	0.021
Mof_C 	C 	0.1254	0.1861	0.69997	-1.244
Mof_H 	H 	0.145	0.169	0.68287	0.33
Mof_H 	H 	0.0911	0.1568	0.71647	0.351
Mof_H 	H 	0.1497	0.2126	0.72677	0.412
Mof_H 	H 	0.135	0.188	0.59267	-0.157
Mof_C 	C 	0.1163	0.3762	0.57754	0.258
Mof_C 	C 	0.0842	0.3726	0.52573	0.077
Mof_H 	H 	0.0437	0.344	0.53013	-0.004
Mof_C 	C 	0.09	0.4314	0.51483	-0.682
Mof_H 	H 	0.1292	0.4581	0.50483	0.191
Mof_H 	H 	0.0819	0.4453	0.54753	0.194
Mof_C 	C 	0.0494	0.4303	0.47003	1.058
Mof_H 	H 	0.0558	0.413	0.43833	-0.304
Mof_C 	C 	0.0649	0.4894	0.45583	-1.584
Mof_H 	H 	0.1047	0.5108	0.44663	0.469
Mof_H 	H 	0.0576	0.5072	0.48573	0.437
Mof_H 	H 	0.0423	0.4887	0.42583	0.458
Mof_C 	C 	0.9865	0.394	0.48523	-1.509
Mof_H 	H 	0.9784	0.3562	0.49483	0.472
Mof_H 	H 	0.9631	0.3917	0.45543	0.451
Mof_H 	H 	0.9783	0.4111	0.51513	0.422
Mof_C 	C 	0.0797	0.2936	0.47243	-0.089
Mof_H 	H 	0.0846	0.276	0.50423	0.011
Mof_H 	H 	0.0985	0.286	0.44313	0.034
Mof_C 	C 	0.01627	0.2658	0.46002	0.027
Mof_C 	C 	0.9982	0.2774	0.41233	-0.068
Mof_H 	H 	0.0253	0.3009	0.38733	0.053
Mof_C 	C 	0.9757	0.2294	0.49613	-0.076
Mof_H 	H 	0.9873	0.2206	0.52803	0.029
Mof_C 	C 	0.9402	0.2549	0.40073	-0.095
Mof_H 	H 	0.929	0.2637	0.36873	0.056
Mof_C 	C 	0.9169	0.2054	0.48533	-0.102
Mof_H 	H 	0.8899	0.1808	0.50983	0.048
Mof_C 	C 	0.8993	0.2189	0.43785	0.042
Mof_C 	C 	0.8368	0.1951	0.42583	-0.117
Mof_H 	H 	0.8148	0.1754	0.45733	0.041
Mof_H 	H 	0.8302	0.2266	0.41863	0.042
Mof_C 	C 	0.7551	0.055	0.40883	0.243
Mof_C 	C 	0.8147	0.1005	0.39013	0.093
Mof_H 	H 	0.8425	0.1066	0.41823	0.003
Mof_C 	C 	0.8289	0.0773	0.34043	-0.652
Mof_H 	H 	0.8178	0.0377	0.34663	0.219
Mof_H 	H 	0.8062	0.0783	0.31083	0.217
Mof_C 	C 	0.723	0.2317	0.34783	0.212
Mof_C 	C 	0.6614	0.1863	0.36293	0.165
Mof_H 	H 	0.6451	0.203	0.38713	-0.033
Mof_C 	C 	0.6263	0.1662	0.31173	-0.848
Mof_H 	H 	0.6354	0.1994	0.28983	0.258
Mof_H 	H 	0.6374	0.1425	0.29193	0.258
Mof_C 	C 	0.5619	0.1327	0.32083	1.217
Mof_H 	H 	0.5536	0.1007	0.34473	-0.351
Mof_C 	C 	0.5313	0.1082	0.26913	-1.72
Mof_H 	H 	0.4909	0.0869	0.27543	0.506
Mof_H 	H 	0.5436	0.0833	0.25433	0.487
Mof_H 	H 	0.5399	0.1386	0.24443	0.494
Mof_C 	C 	0.5392	0.1682	0.34693	-1.711
Mof_H 	H 	0.5591	0.1838	0.37993	0.536
Mof_H 	H 	0.4991	0.1445	0.35393	0.52
Mof_H 	H 	0.5451	0.1988	0.32343	0.502
Mof_C 	C 	0.6698	0.146	0.44993	-0.121
Mof_H 	H 	0.6746	0.1156	0.46523	0.051
Mof_H 	H 	0.7041	0.182	0.45743	0.035
Mof_C 	C 	0.6201	0.1458	0.47611	0.044
Mof_C 	C 	0.5708	0.0948	0.48801	-0.075
Mof_H 	H 	0.5689	0.0602	0.47993	0.053
Mof_C 	C 	0.6212	0.1968	0.48933	-0.09
Mof_H 	H 	0.6544	0.2315	0.48333	0.035
Mof_O 	O 	0.16134	0.37223	0.57319	-0.41
Mof_O 	O 	0.09668	0.38161	0.61999	-0.369
Mof_O 	O 	0.71413	0.06517	0.40132	-0.369
Mof_O 	O 	0.7499	0.0113	0.42963	-0.241
Mof_O 	O 	0.75947	0.21477	0.3443	-0.369
Mof_O 	O 	0.7328	0.2806	0.33693	-0.258
Mof_Cu	Cu	0.73434	0.13706	0.3663	0.909
Mof_N 	N 	0.10812	0.35546	0.48074	-0.258
Mof_H 	H 	0.1075	0.3733	0.45013	0.106
Mof_N 	N 	0.81544	0.15488	0.37982	-0.25
Mof_H 	H 	0.8373	0.1722	0.35053	0.113
Mof_N 	N 	0.66307	0.1378	0.39022	-0.26
Mof_H 	H 	0.6313	0.104	0.38213	0.111
Mof_C 	C 	0.9007	0.0851	0.27193	-1.385
Mof_H 	H 	0.9403	0.1062	0.26193	0.523
Mof_H 	H 	0.8778	0.0879	0.24413	0.429
Mof_H 	H 	0.8896	0.0456	0.27723	0.406
Mof_C 	C 	0.8917	0.1099	0.32443	0.835
Mof_H 	H 	0.9085	0.1515	0.32423	-0.188
Mof_C 	C 	0.9197	0.0861	0.36913	-0.025
Mof_H 	H 	0.9603	0.1042	0.36353	0.088
Mof_H 	H 	0.9029	0.0455	0.36543	-0.072
Mof_H 	H 	0.9123	0.0949	0.40433	0.021
Mof_C 	C 	0.9393	0.1254	0.36663	-1.244
Mof_H 	H 	0.976	0.145	0.34953	0.33
Mof_H 	H 	0.9343	0.0911	0.38313	0.351
Mof_H 	H 	0.9371	0.1497	0.39343	0.412
Mof_H 	H 	0.947	0.135	0.25933	-0.157
Mof_C 	C 	0.2599	0.8837	0.24421	0.258
Mof_C 	C 	0.2884	0.9158	0.1924	0.077
Mof_H 	H 	0.3003	0.9563	0.1968	-0.004
Mof_C 	C 	0.3414	0.91	0.1815	-0.682
Mof_H 	H 	0.3289	0.8708	0.1715	0.191
Mof_H 	H 	0.3634	0.9181	0.2142	0.194
Mof_C 	C 	0.3809	0.9506	0.1367	1.058
Mof_H 	H 	0.3572	0.9442	0.105	-0.304
Mof_C 	C 	0.4245	0.9351	0.1225	-1.584
Mof_H 	H 	0.4061	0.8953	0.1133	0.469
Mof_H 	H 	0.4496	0.9424	0.1524	0.437
Mof_H 	H 	0.4464	0.9577	0.0925	0.458
Mof_C 	C 	0.4075	0.0135	0.1519	-1.509
Mof_H 	H 	0.3778	0.0216	0.1615	0.472
Mof_H 	H 	0.4286	0.0369	0.1221	0.451
Mof_H 	H 	0.4328	0.0217	0.1818	0.422
Mof_C 	C 	0.2139	0.9203	0.1391	-0.089
Mof_H 	H 	0.1914	0.9154	0.1709	0.011
Mof_H 	H 	0.1875	0.9015	0.1098	0.034
Mof_C 	C 	0.24953	0.98373	0.12669	0.027
Mof_C 	C 	0.2792	0.0018	0.079	-0.068
Mof_H 	H 	0.2756	0.9747	0.054	0.053
Mof_C 	C 	0.2537	0.0243	0.1628	-0.076
Mof_H 	H 	0.2333	0.0127	0.1947	0.029
Mof_C 	C 	0.3147	0.0598	0.0674	-0.095
Mof_H 	H 	0.3347	0.071	0.0354	0.056
Mof_C 	C 	0.2885	0.0831	0.152	-0.102
Mof_H 	H 	0.2909	0.1101	0.1765	0.048
Mof_C 	C 	0.3196	0.1007	0.10452	0.042
Mof_C 	C 	0.3583	0.1632	0.0925	-0.117
Mof_H 	H 	0.3606	0.1852	0.124	0.041
Mof_H 	H 	0.3964	0.1698	0.0853	0.042
Mof_C 	C 	0.2999	0.2449	0.0755	0.243
Mof_C 	C 	0.2858	0.1853	0.0568	0.092
Mof_H 	H 	0.2641	0.1575	0.0849	0.003
Mof_C 	C 	0.2484	0.1711	0.0071	-0.65
Mof_H 	H 	0.2199	0.1822	0.0133	0.219
Mof_H 	H 	0.2721	0.1938	0.9775	0.216
Mof_C 	C 	0.5087	0.277	0.0145	0.212
Mof_C 	C 	0.5249	0.3386	0.0296	0.164
Mof_H 	H 	0.5579	0.3549	0.0538	-0.033
Mof_C 	C 	0.5399	0.3737	0.9784	-0.847
Mof_H 	H 	0.564	0.3646	0.9565	0.258
Mof_H 	H 	0.5051	0.3626	0.9586	0.258
Mof_C 	C 	0.5708	0.4381	0.9875	1.214
Mof_H 	H 	0.5471	0.4464	0.0114	-0.35
Mof_C 	C 	0.5769	0.4687	0.9358	-1.716
Mof_H 	H 	0.596	0.5091	0.9421	0.505
Mof_H 	H 	0.5397	0.4564	0.921	0.486
Mof_H 	H 	0.5987	0.4601	0.9111	0.493
Mof_C 	C 	0.629	0.4608	0.0136	-1.707
Mof_H 	H 	0.6247	0.4409	0.0466	0.535
Mof_H 	H 	0.6454	0.5009	0.0206	0.519
Mof_H 	H 	0.6537	0.4549	0.9901	0.5
Mof_C 	C 	0.4762	0.3302	0.1166	-0.121
Mof_H 	H 	0.441	0.3254	0.1319	0.051
Mof_H 	H 	0.4779	0.2959	0.1241	0.035
Mof_C 	C 	0.5257	0.3799	0.14278	0.044
Mof_C 	C 	0.524	0.4292	0.15468	-0.075
Mof_H 	H 	0.4913	0.4311	0.1466	0.053
Mof_C 	C 	0.5756	0.3788	0.156	-0.09
Mof_H 	H 	0.5771	0.3456	0.15	0.035
Mof_O 	O 	0.21089	0.83866	0.23986	-0.41
Mof_O 	O 	0.28493	0.90332	0.28666	-0.369
Mof_O 	O 	0.35104	0.28587	0.06799	-0.369
Mof_O 	O 	0.2614	0.2501	0.0963	-0.241
Mof_O 	O 	0.4553	0.24053	0.01097	-0.369
Mof_O 	O 	0.5478	0.2672	0.0036	-0.258
Mof_Cu	Cu	0.40272	0.26566	0.03297	0.909
Mof_N 	N 	0.24734	0.89188	0.14741	-0.258
Mof_H 	H 	0.2658	0.8925	0.1168	0.106
Mof_N 	N 	0.33944	0.18456	0.04649	-0.249
Mof_H 	H 	0.3349	0.1627	0.0172	0.113
Mof_N 	N 	0.47473	0.33693	0.05689	-0.26
Mof_H 	H 	0.4727	0.3687	0.0488	0.111
Mof_C 	C 	0.1844	0.0993	0.9386	-1.383
Mof_H 	H 	0.1659	0.0597	0.9286	0.522
Mof_H 	H 	0.2101	0.1222	0.9108	0.428
Mof_H 	H 	0.156	0.1104	0.9439	0.406
Mof_C 	C 	0.2182	0.1083	0.9911	0.832
Mof_H 	H 	0.243	0.0915	0.9909	-0.187
Mof_C 	C 	0.1664	0.0803	0.0358	-0.025
Mof_H 	H 	0.1439	0.0397	0.0302	0.088
Mof_H 	H 	0.1426	0.0971	0.0321	-0.071
Mof_H 	H 	0.1826	0.0877	0.071	0.02
Mof_C 	C 	0.1861	0.0607	0.0333	-1.242
Mof_H 	H 	0.169	0.024	0.0162	0.329
Mof_H 	H 	0.1568	0.0657	0.0498	0.35
Mof_H 	H 	0.2126	0.0629	0.0601	0.411
Mof_H 	H 	0.188	0.053	0.926	-0.157
Mof_C 	C 	0.6238	0.7401	0.91088	0.258
Mof_C 	C 	0.6274	0.7116	0.85907	0.077
Mof_H 	H 	0.656	0.6997	0.86347	-0.004
Mof_C 	C 	0.5686	0.6586	0.84817	-0.682
Mof_H 	H 	0.5419	0.6711	0.83817	0.192
Mof_H 	H 	0.5547	0.6366	0.88087	0.194
Mof_C 	C 	0.5697	0.6191	0.80337	1.058
Mof_H 	H 	0.587	0.6428	0.77167	-0.304
Mof_C 	C 	0.5106	0.5755	0.78917	-1.585
Mof_H 	H 	0.4892	0.5939	0.77997	0.469
Mof_H 	H 	0.4928	0.5504	0.81907	0.437
Mof_H 	H 	0.5113	0.5536	0.75917	0.458
Mof_C 	C 	0.606	0.5925	0.81857	-1.509
Mof_H 	H 	0.6438	0.6222	0.82817	0.472
Mof_H 	H 	0.6083	0.5714	0.78877	0.451
Mof_H 	H 	0.5889	0.5672	0.84847	0.423
Mof_C 	C 	0.7064	0.7861	0.80577	-0.089
Mof_H 	H 	0.724	0.8086	0.83757	0.011
Mof_H 	H 	0.714	0.8125	0.77647	0.034
Mof_C 	C 	0.7342	0.75047	0.79336	0.027
Mof_C 	C 	0.7226	0.7208	0.74567	-0.068
Mof_H 	H 	0.6991	0.7244	0.72067	0.053
Mof_C 	C 	0.7706	0.7463	0.82947	-0.076
Mof_H 	H 	0.7794	0.7667	0.86137	0.029
Mof_C 	C 	0.7451	0.6853	0.73407	-0.094
Mof_H 	H 	0.7363	0.6653	0.70207	0.056
Mof_C 	C 	0.7946	0.7115	0.81867	-0.102
Mof_H 	H 	0.8192	0.7091	0.84317	0.048
Mof_C 	C 	0.7811	0.6804	0.77119	0.042
Mof_C 	C 	0.8049	0.6417	0.75917	-0.117
Mof_H 	H 	0.8246	0.6394	0.79067	0.041
Mof_H 	H 	0.7734	0.6036	0.75197	0.042
Mof_C 	C 	0.945	0.7001	0.74217	0.243
Mof_C 	C 	0.8995	0.7142	0.72347	0.093
Mof_H 	H 	0.8934	0.7359	0.75157	0.003
Mof_C 	C 	0.9227	0.7516	0.67377	-0.652
Mof_H 	H 	0.9623	0.7801	0.67997	0.219
Mof_H 	H 	0.9217	0.7279	0.64417	0.217
Mof_C 	C 	0.7683	0.4913	0.68117	0.212
Mof_C 	C 	0.8137	0.4751	0.69627	0.165
Mof_H 	H 	0.797	0.4421	0.72047	-0.033
Mof_C 	C 	0.8338	0.4601	0.64507	-0.848
Mof_H 	H 	0.8006	0.436	0.62317	0.258
Mof_H 	H 	0.8575	0.4949	0.62527	0.258
Mof_C 	C 	0.8673	0.4292	0.65417	1.217
Mof_H 	H 	0.8993	0.4529	0.67807	-0.351
Mof_C 	C 	0.8918	0.4231	0.60247	-1.72
Mof_H 	H 	0.9131	0.404	0.60877	0.506
Mof_H 	H 	0.9167	0.4603	0.58767	0.487
Mof_H 	H 	0.8614	0.4013	0.57777	0.494
Mof_C 	C 	0.8318	0.371	0.68027	-1.711
Mof_H 	H 	0.8162	0.3753	0.71327	0.536
Mof_H 	H 	0.8555	0.3546	0.68727	0.52
Mof_H 	H 	0.8012	0.3463	0.65677	0.502
Mof_C 	C 	0.854	0.5238	0.78327	-0.121
Mof_H 	H 	0.8844	0.559	0.79857	0.051
Mof_H 	H 	0.818	0.5221	0.79077	0.035
Mof_C 	C 	0.8542	0.4743	0.80945	0.044
Mof_C 	C 	0.9052	0.476	0.82135	-0.075
Mof_H 	H 	0.9398	0.5087	0.81327	0.053
Mof_C 	C 	0.8032	0.4244	0.82267	-0.09
Mof_H 	H 	0.7685	0.4229	0.81667	0.035
Mof_O 	O 	0.62777	0.78911	0.90653	-0.41
Mof_O 	O 	0.61839	0.71507	0.95333	-0.369
Mof_O 	O 	0.93483	0.64896	0.73466	-0.369
Mof_O 	O 	0.9887	0.7386	0.76297	-0.241
Mof_O 	O 	0.78523	0.5447	0.67764	-0.369
Mof_O 	O 	0.7194	0.4522	0.67027	-0.258
Mof_Cu	Cu	0.86294	0.59728	0.69964	0.909
Mof_N 	N 	0.64454	0.75266	0.81408	-0.258
Mof_H 	H 	0.6267	0.7342	0.78347	0.106
Mof_N 	N 	0.84512	0.66056	0.71316	-0.25
Mof_H 	H 	0.8278	0.6651	0.68387	0.113
Mof_N 	N 	0.8622	0.52527	0.72356	-0.26
Mof_H 	H 	0.896	0.5273	0.71547	0.111
Mof_C 	C 	0.9149	0.8156	0.60527	-1.385
Mof_H 	H 	0.8938	0.8341	0.59527	0.523
Mof_H 	H 	0.9121	0.7899	0.57747	0.429
Mof_H 	H 	0.9544	0.844	0.61057	0.406
Mof_C 	C 	0.8901	0.7818	0.65777	0.835
Mof_H 	H 	0.8485	0.757	0.65757	-0.188
Mof_C 	C 	0.9139	0.8336	0.70247	-0.025
Mof_H 	H 	0.8958	0.8561	0.69687	0.088
Mof_H 	H 	0.9545	0.8574	0.69877	-0.072
Mof_H 	H 	0.9051	0.8174	0.73767	0.021
Mof_C 	C 	0.8746	0.8139	0.69997	-1.244
Mof_H 	H 	0.855	0.831	0.68287	0.33
Mof_H 	H 	0.9089	0.8432	0.71647	0.351
Mof_H 	H 	0.8503	0.7874	0.72677	0.412
Mof_H 	H 	0.865	0.812	0.59267	-0.157
Mof_Cu	Cu	0.62195	0.81097	0.83333	0.875
Mof_Cu	Cu	0.18903	0.81097	0.16667	0.875
Mof_Cu	Cu	0.18903	0.37805	0.5	0.875
Mof_Cu	Cu	0.37805	0.18903	0.83333	0.875
Mof_Cu	Cu	0.81097	0.18903	0.16667	0.875
Mof_Cu	Cu	0.81097	0.62195	0.5	0.875
_end
