data_functionalizedCrystal
_audit_creation_method	'EQeq! by Chris Wilmer'
_symmetry_space_group_name_H-M	'P1'
_symmetry_Int_Tables_number	1
_symmetry_cell_setting	triclinic
loop_
_symmetry_equiv_pos_as_xyz
  x,y,z
_cell_length_a	17.3714
_cell_length_b	19.3101
_cell_length_c	18.1903
_cell_angle_alpha	99.346
_cell_angle_beta	90
_cell_angle_gamma	90
loop_
_atom_site_label
_atom_site_type_symbol
_atom_site_fract_x
_atom_site_fract_y
_atom_site_fract_z
_atom_site_charge
Mof_Ag	Ag	0.86448	0.74271	0.7447	0.396
Mof_Ag	Ag	0.97894	0.61062	0.65912	0.47
Mof_Ag	Ag	0.9282	0.23864	0.24021	0.378
Mof_Ag	Ag	0.05295	0.10674	0.15644	0.463
Mof_Ag	Ag	0.36448	0.25729	0.7553	0.396
Mof_Ag	Ag	0.47894	0.38938	0.84088	0.47
Mof_Ag	Ag	0.4282	0.76136	0.25979	0.376
Mof_Ag	Ag	0.55295	0.89326	0.34356	0.466
Mof_Ag	Ag	0.13552	0.25729	0.2553	0.396
Mof_Ag	Ag	0.02106	0.38938	0.34088	0.47
Mof_Ag	Ag	0.0718	0.76136	0.75979	0.378
Mof_Ag	Ag	0.94705	0.89326	0.84356	0.463
Mof_Ag	Ag	0.63552	0.74271	0.2447	0.395
Mof_Ag	Ag	0.52106	0.61062	0.15912	0.469
Mof_Ag	Ag	0.5718	0.23864	0.74021	0.375
Mof_Ag	Ag	0.44705	0.10674	0.65644	0.465
Mof_H 	H 	0.8142	0.6824	0.8872	-0.022
Mof_H 	H 	0.835	0.5895	0.9511	0.063
Mof_H 	H 	0.9807	0.5159	0.7885	0.014
Mof_H 	H 	0.092	0.1667	0.0109	-0.01
Mof_H 	H 	0.0597	0.256	0.9447	0.052
Mof_H 	H 	0.9206	0.3312	0.1116	0.006
Mof_H 	H 	0.0349	0.4637	0.8706	0.035
Mof_H 	H 	0.0641	0.3673	0.9273	0.044
Mof_H 	H 	0.8588	0.3856	0.0289	0.049
Mof_H 	H 	0.8298	0.4781	0.9719	0.037
Mof_H 	H 	0.0423	0.337	0.4916	-0.006
Mof_H 	H 	0.0224	0.2439	0.5534	0.056
Mof_H 	H 	0.9195	0.1459	0.3688	0.006
Mof_H 	H 	0.8176	0.796	0.5978	-0.019
Mof_H 	H 	0.8362	0.8894	0.5327	0.058
Mof_H 	H 	0.9494	0.984	0.7123	0.012
Mof_H 	H 	0.0395	0.1337	0.5755	0.04
Mof_H 	H 	0.0137	0.0373	0.6329	0.036
Mof_H 	H 	0.8223	0.9959	0.506	0.039
Mof_H 	H 	0.8521	0.0916	0.4465	0.048
Mof_H 	H 	0.9543	0.4565	0.6807	-0.014
Mof_H 	H 	0.8738	0.3669	0.6447	0.061
Mof_H 	H 	0.8453	0.4275	0.4506	0.022
Mof_H 	H 	0.6644	0.0073	0.3003	-0.004
Mof_H 	H 	0.7181	0.1099	0.3396	0.051
Mof_H 	H 	0.6296	0.1123	0.5424	0.019
Mof_H 	H 	0.8133	0.3191	0.4086	0.026
Mof_H 	H 	0.7475	0.2157	0.3684	0.032
Mof_H 	H 	0.7077	0.1964	0.5805	0.03
Mof_H 	H 	0.7767	0.2965	0.6214	0.033
Mof_H 	H 	0.3142	0.3176	0.6128	-0.022
Mof_H 	H 	0.335	0.4105	0.5489	0.063
Mof_H 	H 	0.4807	0.4841	0.7115	0.014
Mof_H 	H 	0.592	0.8333	0.4891	-0.009
Mof_H 	H 	0.5597	0.744	0.5553	0.052
Mof_H 	H 	0.4206	0.6688	0.3884	0.006
Mof_H 	H 	0.5349	0.5363	0.6294	0.036
Mof_H 	H 	0.5641	0.6327	0.5727	0.043
Mof_H 	H 	0.3588	0.6144	0.4711	0.049
Mof_H 	H 	0.3298	0.5219	0.5281	0.038
Mof_H 	H 	0.5423	0.663	0.0084	-0.007
Mof_H 	H 	0.5224	0.7561	0.9466	0.057
Mof_H 	H 	0.4195	0.8541	0.1312	0.006
Mof_H 	H 	0.3176	0.204	0.9022	-0.019
Mof_H 	H 	0.3362	0.1106	0.9673	0.058
Mof_H 	H 	0.4494	0.016	0.7877	0.012
Mof_H 	H 	0.5395	0.8663	0.9245	0.041
Mof_H 	H 	0.5137	0.9627	0.8671	0.039
Mof_H 	H 	0.3223	0.0041	0.994	0.041
Mof_H 	H 	0.3521	0.9084	0.0535	0.047
Mof_H 	H 	0.4543	0.5435	0.8193	-0.014
Mof_H 	H 	0.3738	0.6331	0.8553	0.061
Mof_H 	H 	0.3453	0.5725	0.0494	0.023
Mof_H 	H 	0.1644	0.9927	0.1997	-0.003
Mof_H 	H 	0.2181	0.8901	0.1604	0.051
Mof_H 	H 	0.1296	0.8877	0.9576	0.019
Mof_H 	H 	0.3133	0.6809	0.0914	0.026
Mof_H 	H 	0.2475	0.7843	0.1316	0.033
Mof_H 	H 	0.2077	0.8036	0.9195	0.031
Mof_H 	H 	0.2767	0.7035	0.8786	0.033
Mof_H 	H 	0.1858	0.3176	0.1128	-0.022
Mof_H 	H 	0.165	0.4105	0.0489	0.063
Mof_H 	H 	0.0193	0.4841	0.2115	0.014
Mof_H 	H 	0.908	0.8333	0.9891	-0.01
Mof_H 	H 	0.9403	0.744	0.0553	0.052
Mof_H 	H 	0.0794	0.6688	0.8884	0.006
Mof_H 	H 	0.9651	0.5363	0.1294	0.035
Mof_H 	H 	0.9359	0.6327	0.0727	0.044
Mof_H 	H 	0.1412	0.6144	0.9711	0.049
Mof_H 	H 	0.1702	0.5219	0.0281	0.037
Mof_H 	H 	0.9577	0.663	0.5084	-0.006
Mof_H 	H 	0.9776	0.7561	0.4466	0.056
Mof_H 	H 	0.0805	0.8541	0.6312	0.006
Mof_H 	H 	0.1824	0.204	0.4022	-0.019
Mof_H 	H 	0.1638	0.1106	0.4673	0.058
Mof_H 	H 	0.0506	0.016	0.2877	0.012
Mof_H 	H 	0.9605	0.8663	0.4245	0.04
Mof_H 	H 	0.9863	0.9627	0.3671	0.036
Mof_H 	H 	0.1777	0.0041	0.494	0.039
Mof_H 	H 	0.1479	0.9084	0.5535	0.048
Mof_H 	H 	0.0457	0.5435	0.3193	-0.014
Mof_H 	H 	0.1262	0.6331	0.3553	0.061
Mof_H 	H 	0.1547	0.5725	0.5494	0.022
Mof_H 	H 	0.3356	0.9927	0.6997	-0.004
Mof_H 	H 	0.2819	0.8901	0.6604	0.051
Mof_H 	H 	0.3704	0.8877	0.4576	0.019
Mof_H 	H 	0.1867	0.6809	0.5914	0.026
Mof_H 	H 	0.2525	0.7843	0.6316	0.032
Mof_H 	H 	0.2923	0.8036	0.4195	0.03
Mof_H 	H 	0.2233	0.7035	0.3786	0.033
Mof_H 	H 	0.6858	0.6824	0.3872	-0.022
Mof_H 	H 	0.665	0.5895	0.4511	0.063
Mof_H 	H 	0.5193	0.5159	0.2885	0.014
Mof_H 	H 	0.408	0.1667	0.5109	-0.009
Mof_H 	H 	0.4403	0.256	0.4447	0.052
Mof_H 	H 	0.5794	0.3312	0.6116	0.006
Mof_H 	H 	0.4651	0.4637	0.3706	0.036
Mof_H 	H 	0.4359	0.3673	0.4273	0.043
Mof_H 	H 	0.6412	0.3856	0.5289	0.049
Mof_H 	H 	0.6702	0.4781	0.4719	0.038
Mof_H 	H 	0.4577	0.337	0.9916	-0.007
Mof_H 	H 	0.4776	0.2439	0.0534	0.057
Mof_H 	H 	0.5805	0.1459	0.8688	0.006
Mof_H 	H 	0.6824	0.796	0.0978	-0.019
Mof_H 	H 	0.6638	0.8894	0.0327	0.058
Mof_H 	H 	0.5506	0.984	0.2123	0.012
Mof_H 	H 	0.4605	0.1337	0.0755	0.041
Mof_H 	H 	0.4863	0.0373	0.1329	0.039
Mof_H 	H 	0.6777	0.9959	0.006	0.041
Mof_H 	H 	0.6479	0.0916	0.9465	0.047
Mof_H 	H 	0.5457	0.4565	0.1807	-0.014
Mof_H 	H 	0.6262	0.3669	0.1447	0.061
Mof_H 	H 	0.6547	0.4275	0.9506	0.023
Mof_H 	H 	0.8356	0.0073	0.8003	-0.003
Mof_H 	H 	0.7819	0.1099	0.8396	0.051
Mof_H 	H 	0.8704	0.1123	0.0424	0.019
Mof_H 	H 	0.6867	0.3191	0.9086	0.026
Mof_H 	H 	0.7525	0.2157	0.8684	0.033
Mof_H 	H 	0.7923	0.1964	0.0805	0.031
Mof_H 	H 	0.7233	0.2965	0.1214	0.033
Mof_C 	C 	0.8495	0.6475	0.8671	0.079
Mof_C 	C 	0.8608	0.5914	0.9061	-0.122
Mof_C 	C 	0.9101	0.54	0.8766	0.027
Mof_C 	C 	0.9453	0.5498	0.8105	-0.013
Mof_C 	C 	0.0554	0.2005	0.0307	0.046
Mof_C 	C 	0.0369	0.2545	0.9913	-0.095
Mof_C 	C 	0.9855	0.3052	0.0206	0.006
Mof_C 	C 	0.9551	0.2968	0.0888	0.014
Mof_C 	C 	0.9277	0.4797	0.9123	-0.003
Mof_C 	C 	0.9983	0.4471	0.9017	-0.04
Mof_C 	C 	0.0162	0.3897	0.9364	-0.066
Mof_C 	C 	0.9653	0.3658	0.9833	0.024
Mof_C 	C 	0.8946	0.4007	0.9961	-0.066
Mof_C 	C 	0.8775	0.4554	0.9619	-0.04
Mof_C 	C 	0.0179	0.2966	0.4663	0.055
Mof_C 	C 	0.0048	0.2419	0.5042	-0.102
Mof_C 	C 	0.9654	0.1841	0.469	0.014
Mof_C 	C 	0.9447	0.1853	0.3953	0.011
Mof_C 	C 	0.8464	0.8349	0.6204	0.068
Mof_C 	C 	0.8565	0.8912	0.5809	-0.111
Mof_C 	C 	0.896	0.9478	0.6141	0.018
Mof_C 	C 	0.9228	0.945	0.6867	-0.004
Mof_C 	C 	0.9486	0.1226	0.507	0.017
Mof_C 	C 	0.9957	0.1061	0.5616	-0.056
Mof_C 	C 	0.9798	0.0493	0.5968	-0.045
Mof_C 	C 	0.9126	0.0095	0.5782	0.005
Mof_C 	C 	0.8656	0.024	0.5207	-0.047
Mof_C 	C 	0.8836	0.0811	0.4852	-0.06
Mof_C 	C 	0.9257	0.4543	0.6365	0.068
Mof_C 	C 	0.8812	0.3994	0.6121	-0.115
Mof_C 	C 	0.8446	0.3853	0.5434	0.024
Mof_C 	C 	0.8621	0.434	0.5003	-0.024
Mof_C 	C 	0.6549	0.0304	0.349	0.049
Mof_C 	C 	0.6876	0.0896	0.3731	-0.102
Mof_C 	C 	0.6803	0.1259	0.4467	0.014
Mof_C 	C 	0.6351	0.0927	0.4919	-0.009
Mof_C 	C 	0.8012	0.3194	0.5185	0.002
Mof_C 	C 	0.7922	0.294	0.444	-0.043
Mof_C 	C 	0.7526	0.2322	0.4198	-0.057
Mof_C 	C 	0.7202	0.1942	0.4712	0.009
Mof_C 	C 	0.7298	0.2207	0.545	-0.05
Mof_C 	C 	0.7701	0.2811	0.57	-0.054
Mof_C 	C 	0.3495	0.3525	0.6329	0.078
Mof_C 	C 	0.3608	0.4086	0.5939	-0.121
Mof_C 	C 	0.4101	0.46	0.6234	0.027
Mof_C 	C 	0.4453	0.4502	0.6895	-0.013
Mof_C 	C 	0.5554	0.7995	0.4693	0.047
Mof_C 	C 	0.5369	0.7455	0.5087	-0.094
Mof_C 	C 	0.4855	0.6948	0.4794	0.006
Mof_C 	C 	0.4551	0.7032	0.4112	0.013
Mof_C 	C 	0.4277	0.5203	0.5877	-0.001
Mof_C 	C 	0.4983	0.5529	0.5983	-0.043
Mof_C 	C 	0.5162	0.6103	0.5636	-0.063
Mof_C 	C 	0.4653	0.6342	0.5167	0.022
Mof_C 	C 	0.3946	0.5993	0.5039	-0.064
Mof_C 	C 	0.3775	0.5446	0.5381	-0.042
Mof_C 	C 	0.5179	0.7034	0.0337	0.057
Mof_C 	C 	0.5048	0.7581	0.9958	-0.103
Mof_C 	C 	0.4654	0.8159	0.031	0.014
Mof_C 	C 	0.4447	0.8147	0.1047	0.01
Mof_C 	C 	0.3464	0.1651	0.8796	0.068
Mof_C 	C 	0.3565	0.1088	0.9191	-0.112
Mof_C 	C 	0.396	0.0522	0.8859	0.019
Mof_C 	C 	0.4228	0.055	0.8133	-0.005
Mof_C 	C 	0.4486	0.8774	0.993	0.015
Mof_C 	C 	0.4957	0.8939	0.9384	-0.056
Mof_C 	C 	0.4798	0.9507	0.9032	-0.049
Mof_C 	C 	0.4126	0.9905	0.9218	0.006
Mof_C 	C 	0.3656	0.976	0.9793	-0.052
Mof_C 	C 	0.3836	0.9189	0.0148	-0.057
Mof_C 	C 	0.4257	0.5457	0.8635	0.069
Mof_C 	C 	0.3812	0.6006	0.8879	-0.116
Mof_C 	C 	0.3446	0.6147	0.9566	0.025
Mof_C 	C 	0.3621	0.566	0.9997	-0.025
Mof_C 	C 	0.1549	0.9696	0.151	0.048
Mof_C 	C 	0.1876	0.9104	0.1269	-0.102
Mof_C 	C 	0.1803	0.8741	0.0533	0.013
Mof_C 	C 	0.1351	0.9073	0.0081	-0.007
Mof_C 	C 	0.3012	0.6806	0.9815	0.001
Mof_C 	C 	0.2922	0.706	0.056	-0.042
Mof_C 	C 	0.2526	0.7678	0.0802	-0.059
Mof_C 	C 	0.2202	0.8058	0.0288	0.011
Mof_C 	C 	0.2298	0.7793	0.955	-0.052
Mof_C 	C 	0.2701	0.7189	0.93	-0.053
Mof_C 	C 	0.1505	0.3525	0.1329	0.079
Mof_C 	C 	0.1392	0.4086	0.0939	-0.122
Mof_C 	C 	0.0899	0.46	0.1234	0.027
Mof_C 	C 	0.0547	0.4502	0.1895	-0.013
Mof_C 	C 	0.9446	0.7995	0.9693	0.046
Mof_C 	C 	0.9631	0.7455	0.0087	-0.095
Mof_C 	C 	0.0145	0.6948	0.9794	0.006
Mof_C 	C 	0.0449	0.7032	0.9112	0.014
Mof_C 	C 	0.0723	0.5203	0.0877	-0.003
Mof_C 	C 	0.0017	0.5529	0.0983	-0.04
Mof_C 	C 	0.9838	0.6103	0.0636	-0.066
Mof_C 	C 	0.0347	0.6342	0.0167	0.024
Mof_C 	C 	0.1054	0.5993	0.0039	-0.066
Mof_C 	C 	0.1225	0.5446	0.0381	-0.04
Mof_C 	C 	0.9821	0.7034	0.5337	0.055
Mof_C 	C 	0.9952	0.7581	0.4958	-0.102
Mof_C 	C 	0.0346	0.8159	0.531	0.014
Mof_C 	C 	0.0553	0.8147	0.6047	0.011
Mof_C 	C 	0.1536	0.1651	0.3796	0.068
Mof_C 	C 	0.1435	0.1088	0.4191	-0.111
Mof_C 	C 	0.104	0.0522	0.3859	0.018
Mof_C 	C 	0.0772	0.055	0.3133	-0.004
Mof_C 	C 	0.0514	0.8774	0.493	0.017
Mof_C 	C 	0.0043	0.8939	0.4384	-0.056
Mof_C 	C 	0.0202	0.9507	0.4032	-0.045
Mof_C 	C 	0.0874	0.9905	0.4218	0.005
Mof_C 	C 	0.1344	0.976	0.4793	-0.047
Mof_C 	C 	0.1164	0.9189	0.5148	-0.06
Mof_C 	C 	0.0743	0.5457	0.3635	0.068
Mof_C 	C 	0.1188	0.6006	0.3879	-0.115
Mof_C 	C 	0.1554	0.6147	0.4566	0.024
Mof_C 	C 	0.1379	0.566	0.4997	-0.024
Mof_C 	C 	0.3451	0.9696	0.651	0.049
Mof_C 	C 	0.3124	0.9104	0.6269	-0.102
Mof_C 	C 	0.3197	0.8741	0.5533	0.014
Mof_C 	C 	0.3649	0.9073	0.5081	-0.009
Mof_C 	C 	0.1988	0.6806	0.4815	0.002
Mof_C 	C 	0.2078	0.706	0.556	-0.043
Mof_C 	C 	0.2474	0.7678	0.5802	-0.057
Mof_C 	C 	0.2798	0.8058	0.5288	0.009
Mof_C 	C 	0.2702	0.7793	0.455	-0.05
Mof_C 	C 	0.2299	0.7189	0.43	-0.054
Mof_C 	C 	0.6505	0.6475	0.3671	0.078
Mof_C 	C 	0.6392	0.5914	0.4061	-0.121
Mof_C 	C 	0.5899	0.54	0.3766	0.027
Mof_C 	C 	0.5547	0.5498	0.3105	-0.013
Mof_C 	C 	0.4446	0.2005	0.5307	0.047
Mof_C 	C 	0.4631	0.2545	0.4913	-0.094
Mof_C 	C 	0.5145	0.3052	0.5206	0.006
Mof_C 	C 	0.5449	0.2968	0.5888	0.013
Mof_C 	C 	0.5723	0.4797	0.4123	-0.001
Mof_C 	C 	0.5017	0.4471	0.4017	-0.043
Mof_C 	C 	0.4838	0.3897	0.4364	-0.063
Mof_C 	C 	0.5347	0.3658	0.4833	0.022
Mof_C 	C 	0.6054	0.4007	0.4961	-0.064
Mof_C 	C 	0.6225	0.4554	0.4619	-0.042
Mof_C 	C 	0.4821	0.2966	0.9663	0.057
Mof_C 	C 	0.4952	0.2419	0.0042	-0.103
Mof_C 	C 	0.5346	0.1841	0.969	0.014
Mof_C 	C 	0.5553	0.1853	0.8953	0.01
Mof_C 	C 	0.6536	0.8349	0.1204	0.068
Mof_C 	C 	0.6435	0.8912	0.0809	-0.112
Mof_C 	C 	0.604	0.9478	0.1141	0.019
Mof_C 	C 	0.5772	0.945	0.1867	-0.005
Mof_C 	C 	0.5514	0.1226	0.007	0.015
Mof_C 	C 	0.5043	0.1061	0.0616	-0.056
Mof_C 	C 	0.5202	0.0493	0.0968	-0.049
Mof_C 	C 	0.5874	0.0095	0.0782	0.006
Mof_C 	C 	0.6344	0.024	0.0207	-0.052
Mof_C 	C 	0.6164	0.0811	0.9852	-0.057
Mof_C 	C 	0.5743	0.4543	0.1365	0.069
Mof_C 	C 	0.6188	0.3994	0.1121	-0.116
Mof_C 	C 	0.6554	0.3853	0.0434	0.025
Mof_C 	C 	0.6379	0.434	0.0003	-0.025
Mof_C 	C 	0.8451	0.0304	0.849	0.048
Mof_C 	C 	0.8124	0.0896	0.8731	-0.102
Mof_C 	C 	0.8197	0.1259	0.9467	0.013
Mof_C 	C 	0.8649	0.0927	0.9919	-0.007
Mof_C 	C 	0.6988	0.3194	0.0185	0.001
Mof_C 	C 	0.7078	0.294	0.944	-0.042
Mof_C 	C 	0.7474	0.2322	0.9198	-0.059
Mof_C 	C 	0.7798	0.1942	0.9712	0.011
Mof_C 	C 	0.7702	0.2207	0.045	-0.052
Mof_C 	C 	0.7299	0.2811	0.07	-0.053
Mof_N 	N 	0.8832	0.6551	0.8065	-0.168
Mof_N 	N 	0.931	0.6056	0.7764	-0.145
Mof_N 	N 	0.0224	0.1957	0.0959	-0.165
Mof_N 	N 	0.9709	0.2442	0.1243	-0.151
Mof_N 	N 	0.9979	0.2955	0.3956	-0.167
Mof_N 	N 	0.9588	0.239	0.3607	-0.15
Mof_N 	N 	0.8745	0.8339	0.6857	-0.165
Mof_N 	N 	0.9122	0.8899	0.7205	-0.148
Mof_N 	N 	0.9286	0.5045	0.5978	-0.146
Mof_N 	N 	0.9052	0.4945	0.5288	-0.088
Mof_N 	N 	0.607	0.0016	0.394	-0.142
Mof_N 	N 	0.5973	0.0308	0.4646	-0.093
Mof_N 	N 	0.3832	0.3449	0.6935	-0.168
Mof_N 	N 	0.431	0.3944	0.7236	-0.145
Mof_N 	N 	0.5224	0.8043	0.4041	-0.165
Mof_N 	N 	0.4709	0.7558	0.3757	-0.151
Mof_N 	N 	0.4979	0.7045	0.1044	-0.168
Mof_N 	N 	0.4588	0.761	0.1393	-0.15
Mof_N 	N 	0.3745	0.1661	0.8143	-0.165
Mof_N 	N 	0.4122	0.1101	0.7795	-0.148
Mof_N 	N 	0.4286	0.4955	0.9022	-0.146
Mof_N 	N 	0.4052	0.5055	0.9712	-0.088
Mof_N 	N 	0.107	0.9984	0.106	-0.141
Mof_N 	N 	0.0973	0.9692	0.0354	-0.093
Mof_N 	N 	0.1168	0.3449	0.1935	-0.168
Mof_N 	N 	0.069	0.3944	0.2236	-0.145
Mof_N 	N 	0.9776	0.8043	0.9041	-0.165
Mof_N 	N 	0.0291	0.7558	0.8757	-0.151
Mof_N 	N 	0.0021	0.7045	0.6044	-0.167
Mof_N 	N 	0.0412	0.761	0.6393	-0.15
Mof_N 	N 	0.1255	0.1661	0.3143	-0.165
Mof_N 	N 	0.0878	0.1101	0.2795	-0.148
Mof_N 	N 	0.0714	0.4955	0.4022	-0.146
Mof_N 	N 	0.0948	0.5055	0.4712	-0.088
Mof_N 	N 	0.393	0.9984	0.606	-0.142
Mof_N 	N 	0.4027	0.9692	0.5354	-0.093
Mof_N 	N 	0.6168	0.6551	0.3065	-0.168
Mof_N 	N 	0.569	0.6056	0.2764	-0.145
Mof_N 	N 	0.4776	0.1957	0.5959	-0.165
Mof_N 	N 	0.5291	0.2442	0.6243	-0.151
Mof_N 	N 	0.5021	0.2955	0.8956	-0.168
Mof_N 	N 	0.5412	0.239	0.8607	-0.15
Mof_N 	N 	0.6255	0.8339	0.1857	-0.165
Mof_N 	N 	0.5878	0.8899	0.2205	-0.148
Mof_N 	N 	0.5714	0.5045	0.0978	-0.146
Mof_N 	N 	0.5948	0.4945	0.0288	-0.088
Mof_N 	N 	0.893	0.0016	0.894	-0.141
Mof_N 	N 	0.9027	0.0308	0.9646	-0.093
_end
