data_functionalizedCrystal
_audit_creation_method	'EQeq! by Chris Wilmer'
_symmetry_space_group_name_H-M	'P1'
_symmetry_Int_Tables_number	1
_symmetry_cell_setting	triclinic
loop_
_symmetry_equiv_pos_as_xyz
  x,y,z
_cell_length_a	18.4666
_cell_length_b	19.6976
_cell_length_c	23.031
_cell_angle_alpha	115.174
_cell_angle_beta	90
_cell_angle_gamma	117.953
loop_
_atom_site_label
_atom_site_type_symbol
_atom_site_fract_x
_atom_site_fract_y
_atom_site_fract_z
_atom_site_charge
Mof_Cd	Cd	0.32075	0.42034	0.30573	0.502
Mof_Cd	Cd	0.73104	0.35282	0.03547	0.423
Mof_Cd	Cd	0.19886	0.64164	0.82219	0.455
Mof_Cd	Cd	0.90041	0.57966	0.19427	0.503
Mof_Cd	Cd	0.37822	0.64718	0.46453	0.422
Mof_Cd	Cd	0.55722	0.35836	0.67781	0.455
Mof_Cd	Cd	0.67925	0.57966	0.69427	0.501
Mof_Cd	Cd	0.26896	0.64718	0.96453	0.422
Mof_Cd	Cd	0.80114	0.35836	0.17781	0.454
Mof_Cd	Cd	0.09959	0.42034	0.80573	0.502
Mof_Cd	Cd	0.62178	0.35282	0.53547	0.421
Mof_Cd	Cd	0.44278	0.64164	0.32219	0.454
Mof_H 	H 	0.2213	0.1458	0.0916	0.045
Mof_H 	H 	0.1563	0.9938	0.0271	0.067
Mof_H 	H 	0.109	0.9708	0.1909	0.071
Mof_H 	H 	0.1758	0.121	0.2533	0.044
Mof_H 	H 	0.9402	0.4892	0.9501	0.076
Mof_H 	H 	0.1126	0.7346	0.9893	0.089
Mof_H 	H 	0.943	0.6956	0.0987	0.101
Mof_H 	H 	0.5315	0.0872	0.4589	0.022
Mof_H 	H 	0.4454	0.9398	0.3831	0.086
Mof_H 	H 	0.2589	0.9306	0.4722	0.091
Mof_H 	H 	0.3442	0.0758	0.5463	0.027
Mof_H 	H 	0.0771	0.4406	0.2629	0.082
Mof_H 	H 	0.0608	0.6562	0.3173	0.102
Mof_H 	H 	0.2851	0.6804	0.3651	0.089
Mof_H 	H 	0.0755	0.8542	0.4084	0.039
Mof_H 	H 	0.1625	0.0062	0.4729	0.077
Mof_H 	H 	0.1382	0.0292	0.3091	0.08
Mof_H 	H 	0.0548	0.879	0.2467	0.038
Mof_H 	H 	0.451	0.5108	0.5499	0.076
Mof_H 	H 	0.378	0.2654	0.5107	0.09
Mof_H 	H 	0.2474	0.3044	0.4013	0.101
Mof_H 	H 	0.4443	0.9128	0.0411	0.024
Mof_H 	H 	0.5056	0.0602	0.1169	0.084
Mof_H 	H 	0.3283	0.0694	0.0278	0.089
Mof_H 	H 	0.2684	0.9242	0.9537	0.028
Mof_H 	H 	0.6365	0.5594	0.2371	0.082
Mof_H 	H 	0.4046	0.3438	0.1827	0.102
Mof_H 	H 	0.6047	0.3196	0.1349	0.089
Mof_H 	H 	0.7787	0.8542	0.9084	0.045
Mof_H 	H 	0.8437	0.0062	0.9729	0.067
Mof_H 	H 	0.891	0.0292	0.8091	0.071
Mof_H 	H 	0.8242	0.879	0.7467	0.044
Mof_H 	H 	0.0598	0.5108	0.0499	0.076
Mof_H 	H 	0.8874	0.2654	0.0107	0.089
Mof_H 	H 	0.057	0.3044	0.9013	0.101
Mof_H 	H 	0.4685	0.9128	0.5411	0.022
Mof_H 	H 	0.5546	0.0602	0.6169	0.086
Mof_H 	H 	0.7411	0.0694	0.5278	0.091
Mof_H 	H 	0.6558	0.9242	0.4537	0.027
Mof_H 	H 	0.9229	0.5594	0.7371	0.082
Mof_H 	H 	0.9392	0.3438	0.6827	0.102
Mof_H 	H 	0.7149	0.3196	0.6349	0.089
Mof_H 	H 	0.9245	0.1458	0.5916	0.039
Mof_H 	H 	0.8375	0.9938	0.5271	0.077
Mof_H 	H 	0.8618	0.9708	0.6909	0.08
Mof_H 	H 	0.9452	0.121	0.7533	0.038
Mof_H 	H 	0.549	0.4892	0.4501	0.076
Mof_H 	H 	0.622	0.7346	0.4893	0.09
Mof_H 	H 	0.7526	0.6956	0.5987	0.101
Mof_H 	H 	0.5557	0.0872	0.9589	0.024
Mof_H 	H 	0.4944	0.9398	0.8831	0.084
Mof_H 	H 	0.6717	0.9306	0.9722	0.089
Mof_H 	H 	0.7316	0.0758	0.0463	0.028
Mof_H 	H 	0.3635	0.4406	0.7629	0.082
Mof_H 	H 	0.5954	0.6562	0.8173	0.102
Mof_H 	H 	0.3953	0.6804	0.8651	0.089
Mof_C 	C 	0.2466	0.2464	0.2214	0.31
Mof_C 	C 	0.2053	0.148	0.1782	-0.076
Mof_C 	C 	0.1996	0.1104	0.1115	0.018
Mof_C 	C 	0.1616	0.0192	0.0727	-0.088
Mof_C 	C 	0.1317	0.9672	0.1038	0.044
Mof_C 	C 	0.1337	0.0058	0.171	-0.085
Mof_C 	C 	0.1721	0.0954	0.2079	0.017
Mof_C 	C 	0.0925	0.8716	0.063	0.039
Mof_C 	C 	0.85526	0.52152	0.0412	0.28
Mof_C 	C 	0.92849	0.58198	0.0257	-0.011
Mof_C 	C 	0.9633	0.5494	0.9751	-0.04
Mof_C 	C 	0.03251	0.60602	0.9617	-0.013
Mof_C 	C 	0.06651	0.69662	0.9983	-0.103
Mof_C 	C 	0.0315	0.7294	0.0479	0.121
Mof_C 	C 	0.96417	0.67294	0.0634	-0.098
Mof_C 	C 	0.07391	0.57062	0.9103	0.292
Mof_C 	C 	0.5034	0.1892	0.5631	0.331
Mof_C 	C 	0.4474	0.096	0.511	-0.127
Mof_C 	C 	0.4766	0.0556	0.4621	0.063
Mof_C 	C 	0.4249	0.967	0.4167	-0.134
Mof_C 	C 	0.3438	0.9192	0.4209	0.083
Mof_C 	C 	0.314	0.9612	0.4694	-0.137
Mof_C 	C 	0.3653	0.0482	0.5136	0.064
Mof_C 	C 	0.2932	0.823	0.3763	0.028
Mof_C 	C 	0.23988	0.51356	0.3138	0.283
Mof_C 	C 	0.18985	0.5551	0.3142	-0.018
Mof_C 	C 	0.10282	0.50124	0.2836	-0.042
Mof_C 	C 	0.05515	0.5399	0.2846	-0.008
Mof_C 	C 	0.09278	0.63076	0.3161	-0.106
Mof_C 	C 	0.1805	0.6836	0.3461	0.123
Mof_C 	C 	0.22741	0.64502	0.3449	-0.11
Mof_C 	C 	0.96217	0.48034	0.2514	0.282
Mof_C 	C 	0.0002	0.7536	0.2786	0.312
Mof_C 	C 	0.0573	0.852	0.3218	-0.086
Mof_C 	C 	0.0892	0.8896	0.3885	0.032
Mof_C 	C 	0.1424	0.9808	0.4273	-0.11
Mof_C 	C 	0.1645	0.0328	0.3962	0.063
Mof_C 	C 	0.1279	0.9942	0.329	-0.107
Mof_C 	C 	0.0767	0.9046	0.2921	0.032
Mof_C 	C 	0.2209	0.1284	0.437	0.035
Mof_C 	C 	0.33374	0.47848	0.4588	0.279
Mof_C 	C 	0.34651	0.41802	0.4743	-0.01
Mof_C 	C 	0.4139	0.4506	0.5249	-0.04
Mof_C 	C 	0.42649	0.39398	0.5383	-0.013
Mof_C 	C 	0.36989	0.30338	0.5017	-0.105
Mof_C 	C 	0.3021	0.2706	0.4521	0.124
Mof_C 	C 	0.29123	0.32706	0.4366	-0.101
Mof_C 	C 	0.50329	0.42938	0.5897	0.292
Mof_C 	C 	0.3142	0.8108	0.9369	0.329
Mof_C 	C 	0.3514	0.904	0.989	-0.122
Mof_C 	C 	0.421	0.9444	0.0379	0.056
Mof_C 	C 	0.4579	0.033	0.0833	-0.128
Mof_C 	C 	0.4246	0.0808	0.0791	0.079
Mof_C 	C 	0.3528	0.0388	0.0306	-0.131
Mof_C 	C 	0.3171	0.9518	0.9864	0.058
Mof_C 	C 	0.4702	0.177	0.1237	0.03
Mof_C 	C 	0.72632	0.48644	0.1862	0.283
Mof_C 	C 	0.63475	0.4449	0.1858	-0.018
Mof_C 	C 	0.60158	0.49876	0.2164	-0.043
Mof_C 	C 	0.51525	0.4601	0.2154	-0.007
Mof_C 	C 	0.46202	0.36924	0.1839	-0.106
Mof_C 	C 	0.4969	0.3164	0.1539	0.124
Mof_C 	C 	0.58239	0.35498	0.1551	-0.111
Mof_C 	C 	0.48183	0.51966	0.2486	0.282
Mof_C 	C 	0.7534	0.7536	0.7786	0.31
Mof_C 	C 	0.7947	0.852	0.8218	-0.076
Mof_C 	C 	0.8004	0.8896	0.8885	0.018
Mof_C 	C 	0.8384	0.9808	0.9273	-0.088
Mof_C 	C 	0.8683	0.0328	0.8962	0.044
Mof_C 	C 	0.8663	0.9942	0.829	-0.085
Mof_C 	C 	0.8279	0.9046	0.7921	0.017
Mof_C 	C 	0.9075	0.1284	0.937	0.039
Mof_C 	C 	0.14474	0.47848	0.9588	0.28
Mof_C 	C 	0.07151	0.41802	0.9743	-0.011
Mof_C 	C 	0.0367	0.4506	0.0249	-0.04
Mof_C 	C 	0.96749	0.39398	0.0383	-0.013
Mof_C 	C 	0.93349	0.30338	0.0017	-0.103
Mof_C 	C 	0.9685	0.2706	0.9521	0.121
Mof_C 	C 	0.03583	0.32706	0.9366	-0.098
Mof_C 	C 	0.92609	0.42938	0.0897	0.292
Mof_C 	C 	0.4966	0.8108	0.4369	0.331
Mof_C 	C 	0.5526	0.904	0.489	-0.127
Mof_C 	C 	0.5234	0.9444	0.5379	0.063
Mof_C 	C 	0.5751	0.033	0.5833	-0.134
Mof_C 	C 	0.6562	0.0808	0.5791	0.083
Mof_C 	C 	0.686	0.0388	0.5306	-0.137
Mof_C 	C 	0.6347	0.9518	0.4864	0.064
Mof_C 	C 	0.7068	0.177	0.6237	0.028
Mof_C 	C 	0.76012	0.48644	0.6862	0.283
Mof_C 	C 	0.81015	0.4449	0.6858	-0.018
Mof_C 	C 	0.89718	0.49876	0.7164	-0.042
Mof_C 	C 	0.94485	0.4601	0.7154	-0.008
Mof_C 	C 	0.90722	0.36924	0.6839	-0.106
Mof_C 	C 	0.8195	0.3164	0.6539	0.123
Mof_C 	C 	0.77259	0.35498	0.6551	-0.11
Mof_C 	C 	0.03783	0.51966	0.7486	0.282
Mof_C 	C 	0.9998	0.2464	0.7214	0.312
Mof_C 	C 	0.9427	0.148	0.6782	-0.086
Mof_C 	C 	0.9108	0.1104	0.6115	0.032
Mof_C 	C 	0.8576	0.0192	0.5727	-0.11
Mof_C 	C 	0.8355	0.9672	0.6038	0.063
Mof_C 	C 	0.8721	0.0058	0.671	-0.107
Mof_C 	C 	0.9233	0.0954	0.7079	0.032
Mof_C 	C 	0.7791	0.8716	0.563	0.035
Mof_C 	C 	0.66626	0.52152	0.5412	0.279
Mof_C 	C 	0.65349	0.58198	0.5257	-0.01
Mof_C 	C 	0.5861	0.5494	0.4751	-0.04
Mof_C 	C 	0.57351	0.60602	0.4617	-0.013
Mof_C 	C 	0.63011	0.69662	0.4983	-0.105
Mof_C 	C 	0.6979	0.7294	0.5479	0.124
Mof_C 	C 	0.70877	0.67294	0.5634	-0.101
Mof_C 	C 	0.49671	0.57062	0.4103	0.292
Mof_C 	C 	0.6858	0.1892	0.0631	0.329
Mof_C 	C 	0.6486	0.096	0.011	-0.122
Mof_C 	C 	0.579	0.0556	0.9621	0.056
Mof_C 	C 	0.5421	0.967	0.9167	-0.128
Mof_C 	C 	0.5754	0.9192	0.9209	0.079
Mof_C 	C 	0.6472	0.9612	0.9694	-0.131
Mof_C 	C 	0.6829	0.0482	0.0136	0.058
Mof_C 	C 	0.5298	0.823	0.8763	0.03
Mof_C 	C 	0.27368	0.51356	0.8138	0.283
Mof_C 	C 	0.36525	0.5551	0.8142	-0.018
Mof_C 	C 	0.39842	0.50124	0.7836	-0.043
Mof_C 	C 	0.48475	0.5399	0.7846	-0.007
Mof_C 	C 	0.53798	0.63076	0.8161	-0.106
Mof_C 	C 	0.5031	0.6836	0.8461	0.124
Mof_C 	C 	0.41761	0.64502	0.8449	-0.111
Mof_C 	C 	0.51817	0.48034	0.7514	0.282
Mof_N 	N 	0.06403	0.82046	0.0892	-0.126
Mof_N 	N 	0.21773	0.77546	0.3804	-0.126
Mof_N 	N 	0.24357	0.17954	0.4108	-0.125
Mof_N 	N 	0.44227	0.22454	0.1196	-0.126
Mof_N 	N 	0.93597	0.17954	0.9108	-0.126
Mof_N 	N 	0.78227	0.22454	0.6196	-0.126
Mof_N 	N 	0.75643	0.82046	0.5892	-0.125
Mof_N 	N 	0.55773	0.77546	0.8804	-0.126
Mof_O 	O 	0.26245	0.2919	0.1918	-0.25
Mof_O 	O 	0.26758	0.27916	0.281	-0.281
Mof_O 	O 	0.81711	0.43982	0.9978	-0.272
Mof_O 	O 	0.83433	0.55046	0.0943	-0.261
Mof_O 	O 	0.14683	0.62706	0.9106	-0.286
Mof_O 	O 	0.03602	0.48964	0.8719	-0.27
Mof_O 	O 	0.47837	0.21774	0.6137	-0.29
Mof_O 	O 	0.57435	0.2365	0.5565	-0.301
Mof_O 	O 	0.31787	0.56554	0.3483	-0.298
Mof_O 	O 	0.20955	0.4341	0.2789	-0.254
Mof_O 	O 	0.93259	0.39918	0.2242	-0.263
Mof_O 	O 	0.91737	0.51334	0.2524	-0.275
Mof_O 	O 	0.97055	0.7081	0.3082	-0.249
Mof_O 	O 	0.98842	0.72084	0.219	-0.281
Mof_O 	O 	0.37729	0.56018	0.5022	-0.271
Mof_O 	O 	0.28387	0.44954	0.4057	-0.261
Mof_O 	O 	0.51977	0.37294	0.5894	-0.286
Mof_O 	O 	0.54638	0.51036	0.6281	-0.27
Mof_O 	O 	0.26063	0.78226	0.8863	-0.29
Mof_O 	O 	0.33785	0.7635	0.9435	-0.3
Mof_O 	O 	0.75233	0.43446	0.1517	-0.298
Mof_O 	O 	0.77545	0.5659	0.2211	-0.254
Mof_O 	O 	0.53341	0.60082	0.2758	-0.263
Mof_O 	O 	0.40403	0.48666	0.2476	-0.275
Mof_O 	O 	0.73755	0.7081	0.8082	-0.25
Mof_O 	O 	0.73242	0.72084	0.719	-0.281
Mof_O 	O 	0.18289	0.56018	0.0022	-0.272
Mof_O 	O 	0.16567	0.44954	0.9057	-0.261
Mof_O 	O 	0.85317	0.37294	0.0894	-0.286
Mof_O 	O 	0.96398	0.51036	0.1281	-0.27
Mof_O 	O 	0.52163	0.78226	0.3863	-0.29
Mof_O 	O 	0.42565	0.7635	0.4435	-0.301
Mof_O 	O 	0.68213	0.43446	0.6517	-0.298
Mof_O 	O 	0.79045	0.5659	0.7211	-0.254
Mof_O 	O 	0.06741	0.60082	0.7758	-0.263
Mof_O 	O 	0.08263	0.48666	0.7476	-0.275
Mof_O 	O 	0.02945	0.2919	0.6918	-0.249
Mof_O 	O 	0.01158	0.27916	0.781	-0.281
Mof_O 	O 	0.62271	0.43982	0.4978	-0.271
Mof_O 	O 	0.71613	0.55046	0.5943	-0.261
Mof_O 	O 	0.48023	0.62706	0.4106	-0.286
Mof_O 	O 	0.45362	0.48964	0.3719	-0.27
Mof_O 	O 	0.73937	0.21774	0.1137	-0.29
Mof_O 	O 	0.66215	0.2365	0.0565	-0.3
Mof_O 	O 	0.24767	0.56554	0.8483	-0.298
Mof_O 	O 	0.22455	0.4341	0.7789	-0.254
Mof_O 	O 	0.46659	0.39918	0.7242	-0.263
Mof_O 	O 	0.59597	0.51334	0.7524	-0.275
_end
