data_functionalizedCrystal
_audit_creation_method	'EQeq! by Chris Wilmer'
_symmetry_space_group_name_H-M	'P1'
_symmetry_Int_Tables_number	1
_symmetry_cell_setting	triclinic
loop_
_symmetry_equiv_pos_as_xyz
  x,y,z
_cell_length_a	15.0418
_cell_length_b	15.0418
_cell_length_c	11.9611
_cell_angle_alpha	90
_cell_angle_beta	90
_cell_angle_gamma	90
loop_
_atom_site_label
_atom_site_type_symbol
_atom_site_fract_x
_atom_site_fract_y
_atom_site_fract_z
_atom_site_charge
Mof_O 	O 	0.8761	0.1336	0.2361	-0.509
Mof_O 	O 	0.8439	0.0395	0.3729	-0.438
Mof_C 	C 	0.8388	0.1188	0.3318	0.418
Mof_C 	C 	0.7937	0.1876	0.3899	-0.149
Mof_C 	C 	0.7495	0.2533	0.3308	0.097
Mof_C 	C 	0.7938	0.189	0.5056	0.028
Mof_C 	C 	0.7055	0.3204	0.3875	-0.152
Mof_H 	H 	0.7494	0.2523	0.2531	0.04
Mof_C 	C 	0.7497	0.2561	0.56226	-0.018
Mof_H 	H 	0.8234	0.1449	0.5453	0.035
Mof_C 	C 	0.7056	0.3218	0.5032	0.028
Mof_C 	C 	0.6602	0.3877	0.3269	0.43
Mof_H 	H 	0.676	0.3668	0.5413	0.039
Mof_O 	O 	0.6427	0.4638	0.3723	-0.539
Mof_O 	O 	0.6352	0.3749	0.2247	-0.478
Mof_O 	O 	0.1239	0.8664	0.7361	-0.519
Mof_O 	O 	0.1561	0.9605	0.8729	-0.521
Mof_C 	C 	0.1612	0.8812	0.8318	0.46
Mof_C 	C 	0.2063	0.8124	0.8899	-0.256
Mof_C 	C 	0.2505	0.7467	0.8308	0.183
Mof_C 	C 	0.2062	0.811	0.0056	0.146
Mof_C 	C 	0.2945	0.6796	0.8875	-0.253
Mof_H 	H 	0.2506	0.7477	0.7531	0.006
Mof_C 	C 	0.2503	0.7439	0.06226	-0.09
Mof_H 	H 	0.1766	0.8551	0.0453	-0.003
Mof_C 	C 	0.2944	0.6782	0.0032	0.144
Mof_C 	C 	0.3398	0.6123	0.8269	0.466
Mof_H 	H 	0.324	0.6332	0.0413	0.01
Mof_O 	O 	0.3573	0.5362	0.8723	-0.554
Mof_O 	O 	0.3648	0.6251	0.7247	-0.491
Mof_O 	O 	0.8664	0.8761	0.4861	-0.535
Mof_O 	O 	0.9605	0.8439	0.6229	-0.514
Mof_C 	C 	0.8812	0.8388	0.5818	0.432
Mof_C 	C 	0.8124	0.7937	0.6399	-0.187
Mof_C 	C 	0.7467	0.7495	0.5808	0.118
Mof_C 	C 	0.811	0.7938	0.7556	0.057
Mof_C 	C 	0.6796	0.7055	0.6375	-0.177
Mof_H 	H 	0.7477	0.7494	0.5031	0.023
Mof_C 	C 	0.7439	0.7497	0.81226	-0.061
Mof_H 	H 	0.8551	0.8234	0.7953	0.004
Mof_C 	C 	0.6782	0.7056	0.7532	0.053
Mof_C 	C 	0.6123	0.6602	0.5769	0.437
Mof_H 	H 	0.6332	0.676	0.7913	0.025
Mof_O 	O 	0.5362	0.6427	0.6223	-0.542
Mof_O 	O 	0.6251	0.6352	0.4747	-0.486
Mof_O 	O 	0.1336	0.1239	0.9861	-0.527
Mof_O 	O 	0.0395	0.1561	0.1229	-0.434
Mof_C 	C 	0.1188	0.1612	0.0818	0.466
Mof_C 	C 	0.1876	0.2063	0.1399	-0.156
Mof_C 	C 	0.2533	0.2505	0.0808	0.121
Mof_C 	C 	0.189	0.2062	0.2556	0.043
Mof_C 	C 	0.3204	0.2945	0.1375	-0.164
Mof_H 	H 	0.2523	0.2506	0.0031	0.048
Mof_C 	C 	0.2561	0.2503	0.31226	-0.017
Mof_H 	H 	0.1449	0.1766	0.2953	0.042
Mof_C 	C 	0.3218	0.2944	0.2532	0.044
Mof_C 	C 	0.3877	0.3398	0.0769	0.475
Mof_H 	H 	0.3668	0.324	0.2913	0.037
Mof_O 	O 	0.4638	0.3573	0.1223	-0.538
Mof_O 	O 	0.3749	0.3648	0.9747	-0.515
Mof_O 	O 	0.1239	0.1336	0.7639	-0.489
Mof_O 	O 	0.1561	0.0395	0.6271	-0.43
Mof_C 	C 	0.1612	0.1188	0.6682	0.418
Mof_C 	C 	0.2063	0.1876	0.6101	-0.135
Mof_C 	C 	0.2505	0.2533	0.6692	0.095
Mof_C 	C 	0.2062	0.189	0.4944	0.022
Mof_C 	C 	0.2945	0.3204	0.6125	-0.144
Mof_H 	H 	0.2506	0.2523	0.7469	0.039
Mof_C 	C 	0.2503	0.2561	0.43774	-0
Mof_H 	H 	0.1766	0.1449	0.4547	0.05
Mof_C 	C 	0.2944	0.3218	0.4968	0.023
Mof_C 	C 	0.3398	0.3877	0.6731	0.43
Mof_H 	H 	0.324	0.3668	0.4587	0.045
Mof_O 	O 	0.3573	0.4638	0.6277	-0.534
Mof_O 	O 	0.3648	0.3749	0.7753	-0.479
Mof_O 	O 	0.8761	0.8664	0.2639	-0.525
Mof_O 	O 	0.8439	0.9605	0.1271	-0.499
Mof_C 	C 	0.8388	0.8812	0.1682	0.397
Mof_C 	C 	0.7937	0.8124	0.1101	-0.085
Mof_C 	C 	0.7495	0.7467	0.1692	0.034
Mof_C 	C 	0.7938	0.811	0.9944	-0.066
Mof_C 	C 	0.7055	0.6796	0.1125	-0.074
Mof_H 	H 	0.7494	0.7477	0.2469	0.053
Mof_C 	C 	0.7497	0.7439	0.93774	0.041
Mof_H 	H 	0.8234	0.8551	0.9547	0.042
Mof_C 	C 	0.7056	0.6782	0.9968	-0.072
Mof_C 	C 	0.6602	0.6123	0.1731	0.402
Mof_H 	H 	0.676	0.6332	0.9587	0.063
Mof_O 	O 	0.6427	0.5362	0.1277	-0.526
Mof_O 	O 	0.6352	0.6251	0.2753	-0.476
Mof_O 	O 	0.1336	0.8761	0.5139	-0.508
Mof_O 	O 	0.0395	0.8439	0.3771	-0.435
Mof_C 	C 	0.1188	0.8388	0.4182	0.412
Mof_C 	C 	0.1876	0.7937	0.3601	-0.133
Mof_C 	C 	0.2533	0.7495	0.4192	0.081
Mof_C 	C 	0.189	0.7938	0.2444	-0
Mof_C 	C 	0.3204	0.7055	0.3625	-0.135
Mof_H 	H 	0.2523	0.7494	0.4969	0.042
Mof_C 	C 	0.2561	0.7497	0.18774	0.028
Mof_H 	H 	0.1449	0.8234	0.2047	0.049
Mof_C 	C 	0.3218	0.7056	0.2468	-0
Mof_C 	C 	0.3877	0.6602	0.4231	0.423
Mof_H 	H 	0.3668	0.676	0.2087	0.052
Mof_O 	O 	0.4638	0.6427	0.3777	-0.536
Mof_O 	O 	0.3749	0.6352	0.5253	-0.478
Mof_O 	O 	0.8664	0.1239	0.0139	-0.477
Mof_O 	O 	0.9605	0.1561	0.8771	-0.502
Mof_C 	C 	0.8812	0.1612	0.9182	0.386
Mof_C 	C 	0.8124	0.2063	0.8601	-0.14
Mof_C 	C 	0.7467	0.2505	0.9192	0.08
Mof_C 	C 	0.811	0.2062	0.7444	0.017
Mof_C 	C 	0.6796	0.2945	0.8625	-0.135
Mof_H 	H 	0.7477	0.2506	0.9969	0.029
Mof_C 	C 	0.7439	0.2503	0.68774	-0.006
Mof_H 	H 	0.8551	0.1766	0.7047	0.033
Mof_C 	C 	0.6782	0.2944	0.7468	0.014
Mof_C 	C 	0.6123	0.3398	0.9231	0.39
Mof_H 	H 	0.6332	0.324	0.7087	0.046
Mof_O 	O 	0.5362	0.3573	0.8777	-0.533
Mof_O 	O 	0.6251	0.3648	0.0253	-0.449
Mof_V 	V 	0.936	0.064	0.125	1.814
Mof_V 	V 	0.064	0.936	0.625	1.815
Mof_V 	V 	0.936	0.936	0.375	1.79
Mof_V 	V 	0.064	0.064	0.875	1.832
Mof_O 	O 	0.9766	0	0.25	-0.652
Mof_O 	O 	0.0234	9.32781e-33	0.75	-0.601
Mof_O 	O 	-3.17316e-33	0.9766	0.5	-0.654
Mof_O 	O 	-0	0.0234	-0	-0.574
Mof_V 	V 	0.556	0.556	0.375	1.803
Mof_V 	V 	0.444	0.444	0.875	1.799
Mof_V 	V 	0.444	0.556	0.625	1.804
Mof_V 	V 	0.556	0.444	0.125	1.804
Mof_O 	O 	0.4878	0.5	0.25	-0.589
Mof_O 	O 	0.5122	0.5	0.75	-0.596
Mof_O 	O 	0.5	0.4878	0.5	-0.59
Mof_O 	O 	0.5	0.5122	-0	-0.572
_end
