data_functionalizedCrystal
_audit_creation_method	'EQeq! by Chris Wilmer'
_symmetry_space_group_name_H-M	'P1'
_symmetry_Int_Tables_number	1
_symmetry_cell_setting	triclinic
loop_
_symmetry_equiv_pos_as_xyz
  x,y,z
_cell_length_a	12.7621
_cell_length_b	12.7621
_cell_length_c	12.7621
_cell_angle_alpha	90
_cell_angle_beta	90
_cell_angle_gamma	90
loop_
_atom_site_label
_atom_site_type_symbol
_atom_site_fract_x
_atom_site_fract_y
_atom_site_fract_z
_atom_site_charge
Mof_N 	N 	0.06126	0.0438	0.35894	-0.21
Mof_N 	N 	0.01984	0.03456	0.27582	-0.167
Mof_N 	N 	0.98319	0.02907	0.19299	-0.075
Mof_N 	N 	0.43874	0.9562	0.85894	-0.037
Mof_N 	N 	0.48016	0.96544	0.77582	0.006
Mof_N 	N 	0.51681	0.97093	0.69299	-0.168
Mof_N 	N 	0.93874	0.5438	0.14106	-0.144
Mof_N 	N 	0.98016	0.53456	0.22418	0.085
Mof_N 	N 	0.01681	0.52907	0.30701	-0.356
Mof_N 	N 	0.56126	0.4562	0.64106	-0.227
Mof_N 	N 	0.51984	0.46544	0.72418	-0.023
Mof_N 	N 	0.48319	0.47093	0.80701	-0.205
Mof_N 	N 	0.35894	0.06126	0.0438	-0.209
Mof_N 	N 	0.27582	0.01984	0.03456	-0.166
Mof_N 	N 	0.19299	0.98319	0.02907	-0.074
Mof_N 	N 	0.85894	0.43874	0.9562	-0.037
Mof_N 	N 	0.77582	0.48016	0.96544	0.006
Mof_N 	N 	0.69299	0.51681	0.97093	-0.168
Mof_N 	N 	0.14106	0.93874	0.5438	-0.144
Mof_N 	N 	0.22418	0.98016	0.53456	0.085
Mof_N 	N 	0.30701	0.01681	0.52907	-0.356
Mof_N 	N 	0.64106	0.56126	0.4562	-0.227
Mof_N 	N 	0.72418	0.51984	0.46544	-0.023
Mof_N 	N 	0.80701	0.48319	0.47093	-0.205
Mof_N 	N 	0.0438	0.35894	0.06126	-0.209
Mof_N 	N 	0.03456	0.27582	0.01984	-0.166
Mof_N 	N 	0.02907	0.19299	0.98319	-0.074
Mof_N 	N 	0.9562	0.85894	0.43874	-0.037
Mof_N 	N 	0.96544	0.77582	0.48016	0.006
Mof_N 	N 	0.97093	0.69299	0.51681	-0.168
Mof_N 	N 	0.5438	0.14106	0.93874	-0.144
Mof_N 	N 	0.53456	0.22418	0.98016	0.085
Mof_N 	N 	0.52907	0.30701	0.01681	-0.356
Mof_N 	N 	0.4562	0.64106	0.56126	-0.227
Mof_N 	N 	0.46544	0.72418	0.51984	-0.023
Mof_N 	N 	0.47093	0.80701	0.48319	-0.205
Mof_N 	N 	0.93874	0.9562	0.64106	-0.041
Mof_N 	N 	0.98016	0.96544	0.72418	0.112
Mof_N 	N 	0.01681	0.97093	0.80701	-0.158
Mof_N 	N 	0.56126	0.0438	0.14106	-0.221
Mof_N 	N 	0.51984	0.03456	0.22418	-0.054
Mof_N 	N 	0.48319	0.02907	0.30701	-0.284
Mof_N 	N 	0.06126	0.4562	0.85894	-0.115
Mof_N 	N 	0.01984	0.46544	0.77582	-0.129
Mof_N 	N 	0.98319	0.47093	0.69299	-0.097
Mof_N 	N 	0.43874	0.5438	0.35894	-0.24
Mof_N 	N 	0.48016	0.53456	0.27582	-0.032
Mof_N 	N 	0.51681	0.52907	0.19299	-0.263
Mof_N 	N 	0.64106	0.93874	0.9562	-0.041
Mof_N 	N 	0.72418	0.98016	0.96544	0.112
Mof_N 	N 	0.80701	0.01681	0.97093	-0.158
Mof_N 	N 	0.14106	0.56126	0.0438	-0.221
Mof_N 	N 	0.22418	0.51984	0.03456	-0.054
Mof_N 	N 	0.30701	0.48319	0.02907	-0.284
Mof_N 	N 	0.85894	0.06126	0.4562	-0.115
Mof_N 	N 	0.77582	0.01984	0.46544	-0.129
Mof_N 	N 	0.69299	0.98319	0.47093	-0.097
Mof_N 	N 	0.35894	0.43874	0.5438	-0.24
Mof_N 	N 	0.27582	0.48016	0.53456	-0.032
Mof_N 	N 	0.19299	0.51681	0.52907	-0.263
Mof_N 	N 	0.9562	0.64106	0.93874	-0.041
Mof_N 	N 	0.96544	0.72418	0.98016	0.112
Mof_N 	N 	0.97093	0.80701	0.01681	-0.158
Mof_N 	N 	0.0438	0.14106	0.56126	-0.221
Mof_N 	N 	0.03456	0.22418	0.51984	-0.054
Mof_N 	N 	0.02907	0.30701	0.48319	-0.284
Mof_N 	N 	0.4562	0.85894	0.06126	-0.115
Mof_N 	N 	0.46544	0.77582	0.01984	-0.129
Mof_N 	N 	0.47093	0.69299	0.98319	-0.097
Mof_N 	N 	0.5438	0.35894	0.43874	-0.24
Mof_N 	N 	0.53456	0.27582	0.48016	-0.032
Mof_N 	N 	0.52907	0.19299	0.51681	-0.263
Mof_Cr	Cr	1.8747e-33	0	0.5	0.623
Mof_Cr	Cr	0.5	0	-0	0.623
Mof_Cr	Cr	-0	0.5	-0	0.623
Mof_Cr	Cr	0.5	0.5	0.5	1.383
Mof_Na	Na	-0	0	-0	0.723
Mof_Na	Na	0.5	0	0.5	1.716
Mof_Na	Na	1.8747e-33	0.5	0.5	1.716
Mof_Na	Na	0.5	0.5	-0	1.716
_end
