data_functionalizedCrystal
_audit_creation_method	'EQeq! by Chris Wilmer'
_symmetry_space_group_name_H-M	'P1'
_symmetry_Int_Tables_number	1
_symmetry_cell_setting	triclinic
loop_
_symmetry_equiv_pos_as_xyz
  x,y,z
_cell_length_a	35.1743
_cell_length_b	35.1743
_cell_length_c	35.1743
_cell_angle_alpha	60
_cell_angle_beta	60
_cell_angle_gamma	60
loop_
_atom_site_label
_atom_site_type_symbol
_atom_site_fract_x
_atom_site_fract_y
_atom_site_fract_z
_atom_site_charge
Mof_Ni	Ni	0.53315	0.05541	0.94459	1.112
Mof_Ni	Ni	0.05541	0.53315	0.46685	1.112
Mof_Ni	Ni	0.94459	0.46685	0.53315	1.112
Mof_Ni	Ni	0.46685	0.94459	0.05541	1.112
Mof_Ni	Ni	0.53315	0.94459	0.46685	1.112
Mof_Ni	Ni	0.05541	0.46685	0.94459	1.112
Mof_Ni	Ni	0.94459	0.53315	0.05541	1.112
Mof_Ni	Ni	0.46685	0.05541	0.53315	1.112
Mof_Ni	Ni	0.53315	0.46685	0.05541	1.112
Mof_Ni	Ni	0.05541	0.94459	0.53315	1.112
Mof_Ni	Ni	0.94459	0.05541	0.46685	1.112
Mof_Ni	Ni	0.46685	0.53315	0.94459	1.112
Mof_Ni	Ni	0.44459	0.96685	0.55541	1.112
Mof_Ni	Ni	0.96685	0.44459	0.03315	1.112
Mof_Ni	Ni	0.03315	0.55541	0.96685	1.112
Mof_Ni	Ni	0.55541	0.03315	0.44459	1.112
Mof_Ni	Ni	0.55541	0.96685	0.03315	1.112
Mof_Ni	Ni	0.03315	0.44459	0.55541	1.112
Mof_Ni	Ni	0.96685	0.55541	0.44459	1.112
Mof_Ni	Ni	0.44459	0.03315	0.96685	1.112
Mof_Ni	Ni	0.03315	0.96685	0.44459	1.112
Mof_Ni	Ni	0.55541	0.44459	0.96685	1.112
Mof_Ni	Ni	0.44459	0.55541	0.03315	1.112
Mof_Ni	Ni	0.96685	0.03315	0.55541	1.112
Mof_H 	H 	0.5539	0.1481	0.9771	0.006
Mof_H 	H 	0.5489	0.0355	0.0923	-0.008
Mof_H 	H 	0.5524	0.1888	0.0154	0.035
Mof_H 	H 	0.6226	0.0332	0.1278	0.236
Mof_H 	H 	0.5928	0.0018	0.1448	0.235
Mof_H 	H 	0.5964	0.012	0.1822	0.236
Mof_H 	H 	0.4818	0.0834	0.1782	0.217
Mof_H 	H 	0.5093	0.0421	0.2133	0.217
Mof_H 	H 	0.5075	0.0321	0.1747	0.23
Mof_H 	H 	0.1481	0.5539	0.3209	0.006
Mof_H 	H 	0.0355	0.5489	0.3233	-0.008
Mof_H 	H 	0.1888	0.5524	0.2434	0.035
Mof_H 	H 	0.0332	0.6226	0.2164	0.236
Mof_H 	H 	0.0018	0.5928	0.2606	0.235
Mof_H 	H 	0.012	0.5964	0.2094	0.236
Mof_H 	H 	0.0834	0.4818	0.2566	0.217
Mof_H 	H 	0.0421	0.5093	0.2353	0.217
Mof_H 	H 	0.0321	0.5075	0.2857	0.23
Mof_H 	H 	0.9771	0.3209	0.5539	0.006
Mof_H 	H 	0.0923	0.3233	0.5489	-0.008
Mof_H 	H 	0.0154	0.2434	0.5524	0.035
Mof_H 	H 	0.1278	0.2164	0.6226	0.236
Mof_H 	H 	0.1448	0.2606	0.5928	0.235
Mof_H 	H 	0.1822	0.2094	0.5964	0.236
Mof_H 	H 	0.1782	0.2566	0.4818	0.217
Mof_H 	H 	0.2133	0.2353	0.5093	0.217
Mof_H 	H 	0.1747	0.2857	0.5075	0.23
Mof_H 	H 	0.3209	0.9771	0.1481	0.006
Mof_H 	H 	0.3233	0.0923	0.0355	-0.008
Mof_H 	H 	0.2434	0.0154	0.1888	0.035
Mof_H 	H 	0.2164	0.1278	0.0332	0.236
Mof_H 	H 	0.2606	0.1448	0.0018	0.235
Mof_H 	H 	0.2094	0.1822	0.012	0.236
Mof_H 	H 	0.2566	0.1782	0.0834	0.217
Mof_H 	H 	0.2353	0.2133	0.0421	0.217
Mof_H 	H 	0.2857	0.1747	0.0321	0.23
Mof_H 	H 	0.5539	0.9771	0.3209	0.006
Mof_H 	H 	0.5489	0.0923	0.3233	-0.008
Mof_H 	H 	0.5524	0.0154	0.2434	0.036
Mof_H 	H 	0.6226	0.1278	0.2164	0.237
Mof_H 	H 	0.5928	0.1448	0.2606	0.236
Mof_H 	H 	0.5964	0.1822	0.2094	0.237
Mof_H 	H 	0.4818	0.1782	0.2566	0.218
Mof_H 	H 	0.5093	0.2133	0.2353	0.218
Mof_H 	H 	0.5075	0.1747	0.2857	0.231
Mof_H 	H 	0.1481	0.3209	0.9771	0.007
Mof_H 	H 	0.0355	0.3233	0.0923	-0.007
Mof_H 	H 	0.1888	0.2434	0.0154	0.036
Mof_H 	H 	0.0332	0.2164	0.1278	0.237
Mof_H 	H 	0.0018	0.2606	0.1448	0.236
Mof_H 	H 	0.012	0.2094	0.1822	0.237
Mof_H 	H 	0.0834	0.2566	0.1782	0.218
Mof_H 	H 	0.0421	0.2353	0.2133	0.218
Mof_H 	H 	0.0321	0.2857	0.1747	0.231
Mof_H 	H 	0.9771	0.5539	0.1481	0.007
Mof_H 	H 	0.0923	0.5489	0.0355	-0.007
Mof_H 	H 	0.0154	0.5524	0.1888	0.036
Mof_H 	H 	0.1278	0.6226	0.0332	0.237
Mof_H 	H 	0.1448	0.5928	0.0018	0.236
Mof_H 	H 	0.1822	0.5964	0.012	0.237
Mof_H 	H 	0.1782	0.4818	0.0834	0.218
Mof_H 	H 	0.2133	0.5093	0.0421	0.218
Mof_H 	H 	0.1747	0.5075	0.0321	0.231
Mof_H 	H 	0.3209	0.1481	0.5539	0.007
Mof_H 	H 	0.3233	0.0355	0.5489	-0.007
Mof_H 	H 	0.2434	0.1888	0.5524	0.036
Mof_H 	H 	0.2164	0.0332	0.6226	0.237
Mof_H 	H 	0.2606	0.0018	0.5928	0.236
Mof_H 	H 	0.2094	0.012	0.5964	0.237
Mof_H 	H 	0.2566	0.0834	0.4818	0.218
Mof_H 	H 	0.2353	0.0421	0.5093	0.218
Mof_H 	H 	0.2857	0.0321	0.5075	0.231
Mof_H 	H 	0.5539	0.3209	0.1481	0.007
Mof_H 	H 	0.5489	0.3233	0.0355	-0.007
Mof_H 	H 	0.5524	0.2434	0.1888	0.036
Mof_H 	H 	0.6226	0.2164	0.0332	0.237
Mof_H 	H 	0.5928	0.2606	0.0018	0.236
Mof_H 	H 	0.5964	0.2094	0.012	0.237
Mof_H 	H 	0.4818	0.2566	0.0834	0.218
Mof_H 	H 	0.5093	0.2353	0.0421	0.218
Mof_H 	H 	0.5075	0.2857	0.0321	0.231
Mof_H 	H 	0.1481	0.9771	0.5539	0.007
Mof_H 	H 	0.0355	0.0923	0.5489	-0.007
Mof_H 	H 	0.1888	0.0154	0.5524	0.036
Mof_H 	H 	0.0332	0.1278	0.6226	0.237
Mof_H 	H 	0.0018	0.1448	0.5928	0.236
Mof_H 	H 	0.012	0.1822	0.5964	0.237
Mof_H 	H 	0.0834	0.1782	0.4818	0.218
Mof_H 	H 	0.0421	0.2133	0.5093	0.218
Mof_H 	H 	0.0321	0.1747	0.5075	0.231
Mof_H 	H 	0.9771	0.1481	0.3209	0.007
Mof_H 	H 	0.0923	0.0355	0.3233	-0.007
Mof_H 	H 	0.0154	0.1888	0.2434	0.036
Mof_H 	H 	0.1278	0.0332	0.2164	0.237
Mof_H 	H 	0.1448	0.0018	0.2606	0.236
Mof_H 	H 	0.1822	0.012	0.2094	0.237
Mof_H 	H 	0.1782	0.0834	0.2566	0.218
Mof_H 	H 	0.2133	0.0421	0.2353	0.218
Mof_H 	H 	0.1747	0.0321	0.2857	0.231
Mof_H 	H 	0.3209	0.5539	0.9771	0.007
Mof_H 	H 	0.3233	0.5489	0.0923	-0.007
Mof_H 	H 	0.2434	0.5524	0.0154	0.036
Mof_H 	H 	0.2164	0.6226	0.1278	0.237
Mof_H 	H 	0.2606	0.5928	0.1448	0.236
Mof_H 	H 	0.2094	0.5964	0.1822	0.237
Mof_H 	H 	0.2566	0.4818	0.1782	0.218
Mof_H 	H 	0.2353	0.5093	0.2133	0.218
Mof_H 	H 	0.2857	0.5075	0.1747	0.231
Mof_H 	H 	0.3519	0.9461	0.5229	0.007
Mof_H 	H 	0.4645	0.9511	0.4077	-0.007
Mof_H 	H 	0.3112	0.9476	0.4846	0.036
Mof_H 	H 	0.4668	0.8774	0.3722	0.237
Mof_H 	H 	0.4982	0.9072	0.3552	0.236
Mof_H 	H 	0.488	0.9036	0.3178	0.237
Mof_H 	H 	0.4166	0.0182	0.3218	0.218
Mof_H 	H 	0.4579	0.9907	0.2867	0.218
Mof_H 	H 	0.4679	0.9925	0.3253	0.231
Mof_H 	H 	0.9461	0.3519	0.1791	0.007
Mof_H 	H 	0.9511	0.4645	0.1767	-0.007
Mof_H 	H 	0.9476	0.3112	0.2566	0.036
Mof_H 	H 	0.8774	0.4668	0.2836	0.237
Mof_H 	H 	0.9072	0.4982	0.2394	0.236
Mof_H 	H 	0.9036	0.488	0.2906	0.237
Mof_H 	H 	0.0182	0.4166	0.2434	0.218
Mof_H 	H 	0.9907	0.4579	0.2647	0.218
Mof_H 	H 	0.9925	0.4679	0.2143	0.231
Mof_H 	H 	0.1791	0.5229	0.9461	0.007
Mof_H 	H 	0.1767	0.4077	0.9511	-0.007
Mof_H 	H 	0.2566	0.4846	0.9476	0.036
Mof_H 	H 	0.2836	0.3722	0.8774	0.237
Mof_H 	H 	0.2394	0.3552	0.9072	0.236
Mof_H 	H 	0.2906	0.3178	0.9036	0.237
Mof_H 	H 	0.2434	0.3218	0.0182	0.218
Mof_H 	H 	0.2647	0.2867	0.9907	0.218
Mof_H 	H 	0.2143	0.3253	0.9925	0.231
Mof_H 	H 	0.5229	0.1791	0.3519	0.007
Mof_H 	H 	0.4077	0.1767	0.4645	-0.007
Mof_H 	H 	0.4846	0.2566	0.3112	0.036
Mof_H 	H 	0.3722	0.2836	0.4668	0.237
Mof_H 	H 	0.3552	0.2394	0.4982	0.236
Mof_H 	H 	0.3178	0.2906	0.488	0.237
Mof_H 	H 	0.3218	0.2434	0.4166	0.218
Mof_H 	H 	0.2867	0.2647	0.4579	0.218
Mof_H 	H 	0.3253	0.2143	0.4679	0.231
Mof_H 	H 	0.5229	0.9461	0.1791	0.007
Mof_H 	H 	0.4077	0.9511	0.1767	-0.007
Mof_H 	H 	0.4846	0.9476	0.2566	0.036
Mof_H 	H 	0.3722	0.8774	0.2836	0.237
Mof_H 	H 	0.3552	0.9072	0.2394	0.236
Mof_H 	H 	0.3178	0.9036	0.2906	0.237
Mof_H 	H 	0.3218	0.0182	0.2434	0.218
Mof_H 	H 	0.2867	0.9907	0.2647	0.218
Mof_H 	H 	0.3253	0.9925	0.2143	0.231
Mof_H 	H 	0.1791	0.3519	0.5229	0.007
Mof_H 	H 	0.1767	0.4645	0.4077	-0.007
Mof_H 	H 	0.2566	0.3112	0.4846	0.036
Mof_H 	H 	0.2836	0.4668	0.3722	0.237
Mof_H 	H 	0.2394	0.4982	0.3552	0.236
Mof_H 	H 	0.2906	0.488	0.3178	0.237
Mof_H 	H 	0.2434	0.4166	0.3218	0.218
Mof_H 	H 	0.2647	0.4579	0.2867	0.218
Mof_H 	H 	0.2143	0.4679	0.3253	0.231
Mof_H 	H 	0.9461	0.5229	0.3519	0.007
Mof_H 	H 	0.9511	0.4077	0.4645	-0.007
Mof_H 	H 	0.9476	0.4846	0.3112	0.036
Mof_H 	H 	0.8774	0.3722	0.4668	0.237
Mof_H 	H 	0.9072	0.3552	0.4982	0.236
Mof_H 	H 	0.9036	0.3178	0.488	0.237
Mof_H 	H 	0.0182	0.3218	0.4166	0.218
Mof_H 	H 	0.9907	0.2867	0.4579	0.218
Mof_H 	H 	0.9925	0.3253	0.4679	0.231
Mof_H 	H 	0.3519	0.1791	0.9461	0.007
Mof_H 	H 	0.4645	0.1767	0.9511	-0.007
Mof_H 	H 	0.3112	0.2566	0.9476	0.036
Mof_H 	H 	0.4668	0.2836	0.8774	0.237
Mof_H 	H 	0.4982	0.2394	0.9072	0.236
Mof_H 	H 	0.488	0.2906	0.9036	0.237
Mof_H 	H 	0.4166	0.2434	0.0182	0.218
Mof_H 	H 	0.4579	0.2647	0.9907	0.218
Mof_H 	H 	0.4679	0.2143	0.9925	0.231
Mof_H 	H 	0.1791	0.9461	0.3519	0.007
Mof_H 	H 	0.1767	0.9511	0.4645	-0.007
Mof_H 	H 	0.2566	0.9476	0.3112	0.036
Mof_H 	H 	0.2836	0.8774	0.4668	0.237
Mof_H 	H 	0.2394	0.9072	0.4982	0.236
Mof_H 	H 	0.2906	0.9036	0.488	0.237
Mof_H 	H 	0.2434	0.0182	0.4166	0.218
Mof_H 	H 	0.2647	0.9907	0.4579	0.218
Mof_H 	H 	0.2143	0.9925	0.4679	0.231
Mof_H 	H 	0.5229	0.3519	0.9461	0.007
Mof_H 	H 	0.4077	0.4645	0.9511	-0.007
Mof_H 	H 	0.4846	0.3112	0.9476	0.036
Mof_H 	H 	0.3722	0.4668	0.8774	0.237
Mof_H 	H 	0.3552	0.4982	0.9072	0.236
Mof_H 	H 	0.3178	0.488	0.9036	0.237
Mof_H 	H 	0.3218	0.4166	0.0182	0.218
Mof_H 	H 	0.2867	0.4579	0.9907	0.218
Mof_H 	H 	0.3253	0.4679	0.9925	0.231
Mof_H 	H 	0.3519	0.5229	0.1791	0.007
Mof_H 	H 	0.4645	0.4077	0.1767	-0.007
Mof_H 	H 	0.3112	0.4846	0.2566	0.036
Mof_H 	H 	0.4668	0.3722	0.2836	0.237
Mof_H 	H 	0.4982	0.3552	0.2394	0.236
Mof_H 	H 	0.488	0.3178	0.2906	0.237
Mof_H 	H 	0.4166	0.3218	0.2434	0.218
Mof_H 	H 	0.4579	0.2867	0.2647	0.218
Mof_H 	H 	0.4679	0.3253	0.2143	0.231
Mof_H 	H 	0.9461	0.1791	0.5229	0.007
Mof_H 	H 	0.9511	0.1767	0.4077	-0.007
Mof_H 	H 	0.9476	0.2566	0.4846	0.036
Mof_H 	H 	0.8774	0.2836	0.3722	0.237
Mof_H 	H 	0.9072	0.2394	0.3552	0.236
Mof_H 	H 	0.9036	0.2906	0.3178	0.237
Mof_H 	H 	0.0182	0.2434	0.3218	0.218
Mof_H 	H 	0.9907	0.2647	0.2867	0.218
Mof_H 	H 	0.9925	0.2143	0.3253	0.231
Mof_H 	H 	0.4461	0.8519	0.0229	0.007
Mof_H 	H 	0.4511	0.9645	0.9077	-0.007
Mof_H 	H 	0.4476	0.8112	0.9846	0.036
Mof_H 	H 	0.3774	0.9668	0.8722	0.237
Mof_H 	H 	0.4072	0.9982	0.8552	0.236
Mof_H 	H 	0.4036	0.988	0.8178	0.237
Mof_H 	H 	0.5182	0.9166	0.8218	0.218
Mof_H 	H 	0.4907	0.9579	0.7867	0.218
Mof_H 	H 	0.4925	0.9679	0.8253	0.231
Mof_H 	H 	0.8519	0.4461	0.6791	0.007
Mof_H 	H 	0.9645	0.4511	0.6767	-0.007
Mof_H 	H 	0.8112	0.4476	0.7566	0.036
Mof_H 	H 	0.9668	0.3774	0.7836	0.237
Mof_H 	H 	0.9982	0.4072	0.7394	0.236
Mof_H 	H 	0.988	0.4036	0.7906	0.237
Mof_H 	H 	0.9166	0.5182	0.7434	0.218
Mof_H 	H 	0.9579	0.4907	0.7647	0.218
Mof_H 	H 	0.9679	0.4925	0.7143	0.231
Mof_H 	H 	0.0229	0.6791	0.4461	0.007
Mof_H 	H 	0.9077	0.6767	0.4511	-0.007
Mof_H 	H 	0.9846	0.7566	0.4476	0.036
Mof_H 	H 	0.8722	0.7836	0.3774	0.237
Mof_H 	H 	0.8552	0.7394	0.4072	0.236
Mof_H 	H 	0.8178	0.7906	0.4036	0.237
Mof_H 	H 	0.8218	0.7434	0.5182	0.218
Mof_H 	H 	0.7867	0.7647	0.4907	0.218
Mof_H 	H 	0.8253	0.7143	0.4925	0.231
Mof_H 	H 	0.6791	0.0229	0.8519	0.007
Mof_H 	H 	0.6767	0.9077	0.9645	-0.007
Mof_H 	H 	0.7566	0.9846	0.8112	0.036
Mof_H 	H 	0.7836	0.8722	0.9668	0.237
Mof_H 	H 	0.7394	0.8552	0.9982	0.236
Mof_H 	H 	0.7906	0.8178	0.988	0.237
Mof_H 	H 	0.7434	0.8218	0.9166	0.218
Mof_H 	H 	0.7647	0.7867	0.9579	0.218
Mof_H 	H 	0.7143	0.8253	0.9679	0.231
Mof_H 	H 	0.4461	0.0229	0.6791	0.007
Mof_H 	H 	0.4511	0.9077	0.6767	-0.007
Mof_H 	H 	0.4476	0.9846	0.7566	0.036
Mof_H 	H 	0.3774	0.8722	0.7836	0.237
Mof_H 	H 	0.4072	0.8552	0.7394	0.236
Mof_H 	H 	0.4036	0.8178	0.7906	0.237
Mof_H 	H 	0.5182	0.8218	0.7434	0.218
Mof_H 	H 	0.4907	0.7867	0.7647	0.218
Mof_H 	H 	0.4925	0.8253	0.7143	0.231
Mof_H 	H 	0.8519	0.6791	0.0229	0.007
Mof_H 	H 	0.9645	0.6767	0.9077	-0.007
Mof_H 	H 	0.8112	0.7566	0.9846	0.036
Mof_H 	H 	0.9668	0.7836	0.8722	0.237
Mof_H 	H 	0.9982	0.7394	0.8552	0.236
Mof_H 	H 	0.988	0.7906	0.8178	0.237
Mof_H 	H 	0.9166	0.7434	0.8218	0.218
Mof_H 	H 	0.9579	0.7647	0.7867	0.218
Mof_H 	H 	0.9679	0.7143	0.8253	0.231
Mof_H 	H 	0.0229	0.4461	0.8519	0.007
Mof_H 	H 	0.9077	0.4511	0.9645	-0.007
Mof_H 	H 	0.9846	0.4476	0.8112	0.036
Mof_H 	H 	0.8722	0.3774	0.9668	0.237
Mof_H 	H 	0.8552	0.4072	0.9982	0.236
Mof_H 	H 	0.8178	0.4036	0.988	0.237
Mof_H 	H 	0.8218	0.5182	0.9166	0.218
Mof_H 	H 	0.7867	0.4907	0.9579	0.218
Mof_H 	H 	0.8253	0.4925	0.9679	0.231
Mof_H 	H 	0.6791	0.8519	0.4461	0.007
Mof_H 	H 	0.6767	0.9645	0.4511	-0.007
Mof_H 	H 	0.7566	0.8112	0.4476	0.036
Mof_H 	H 	0.7836	0.9668	0.3774	0.237
Mof_H 	H 	0.7394	0.9982	0.4072	0.236
Mof_H 	H 	0.7906	0.988	0.4036	0.237
Mof_H 	H 	0.7434	0.9166	0.5182	0.218
Mof_H 	H 	0.7647	0.9579	0.4907	0.218
Mof_H 	H 	0.7143	0.9679	0.4925	0.231
Mof_H 	H 	0.4461	0.6791	0.8519	0.007
Mof_H 	H 	0.4511	0.6767	0.9645	-0.007
Mof_H 	H 	0.4476	0.7566	0.8112	0.036
Mof_H 	H 	0.3774	0.7836	0.9668	0.237
Mof_H 	H 	0.4072	0.7394	0.9982	0.236
Mof_H 	H 	0.4036	0.7906	0.988	0.237
Mof_H 	H 	0.5182	0.7434	0.9166	0.218
Mof_H 	H 	0.4907	0.7647	0.9579	0.218
Mof_H 	H 	0.4925	0.7143	0.9679	0.231
Mof_H 	H 	0.8519	0.0229	0.4461	0.007
Mof_H 	H 	0.9645	0.9077	0.4511	-0.007
Mof_H 	H 	0.8112	0.9846	0.4476	0.036
Mof_H 	H 	0.9668	0.8722	0.3774	0.237
Mof_H 	H 	0.9982	0.8552	0.4072	0.236
Mof_H 	H 	0.988	0.8178	0.4036	0.237
Mof_H 	H 	0.9166	0.8218	0.5182	0.218
Mof_H 	H 	0.9579	0.7867	0.4907	0.218
Mof_H 	H 	0.9679	0.8253	0.4925	0.231
Mof_H 	H 	0.0229	0.8519	0.6791	0.007
Mof_H 	H 	0.9077	0.9645	0.6767	-0.007
Mof_H 	H 	0.9846	0.8112	0.7566	0.036
Mof_H 	H 	0.8722	0.9668	0.7836	0.237
Mof_H 	H 	0.8552	0.9982	0.7394	0.236
Mof_H 	H 	0.8178	0.988	0.7906	0.237
Mof_H 	H 	0.8218	0.9166	0.7434	0.218
Mof_H 	H 	0.7867	0.9579	0.7647	0.218
Mof_H 	H 	0.8253	0.9679	0.7143	0.231
Mof_H 	H 	0.6791	0.4461	0.0229	0.007
Mof_H 	H 	0.6767	0.4511	0.9077	-0.007
Mof_H 	H 	0.7566	0.4476	0.9846	0.036
Mof_H 	H 	0.7836	0.3774	0.8722	0.237
Mof_H 	H 	0.7394	0.4072	0.8552	0.236
Mof_H 	H 	0.7906	0.4036	0.8178	0.237
Mof_H 	H 	0.7434	0.5182	0.8218	0.218
Mof_H 	H 	0.7647	0.4907	0.7867	0.218
Mof_H 	H 	0.7143	0.4925	0.8253	0.231
Mof_H 	H 	0.6481	0.0539	0.4771	0.007
Mof_H 	H 	0.5355	0.0489	0.5923	-0.007
Mof_H 	H 	0.6888	0.0524	0.5154	0.036
Mof_H 	H 	0.5332	0.1226	0.6278	0.237
Mof_H 	H 	0.5018	0.0928	0.6448	0.236
Mof_H 	H 	0.512	0.0964	0.6822	0.237
Mof_H 	H 	0.5834	0.9818	0.6782	0.218
Mof_H 	H 	0.5421	0.0093	0.7133	0.218
Mof_H 	H 	0.5321	0.0075	0.6747	0.231
Mof_H 	H 	0.0539	0.6481	0.8209	0.007
Mof_H 	H 	0.0489	0.5355	0.8233	-0.007
Mof_H 	H 	0.0524	0.6888	0.7434	0.036
Mof_H 	H 	0.1226	0.5332	0.7164	0.237
Mof_H 	H 	0.0928	0.5018	0.7606	0.236
Mof_H 	H 	0.0964	0.512	0.7094	0.237
Mof_H 	H 	0.9818	0.5834	0.7566	0.218
Mof_H 	H 	0.0093	0.5421	0.7353	0.218
Mof_H 	H 	0.0075	0.5321	0.7857	0.231
Mof_H 	H 	0.8209	0.4771	0.0539	0.007
Mof_H 	H 	0.8233	0.5923	0.0489	-0.007
Mof_H 	H 	0.7434	0.5154	0.0524	0.036
Mof_H 	H 	0.7164	0.6278	0.1226	0.237
Mof_H 	H 	0.7606	0.6448	0.0928	0.236
Mof_H 	H 	0.7094	0.6822	0.0964	0.237
Mof_H 	H 	0.7566	0.6782	0.9818	0.218
Mof_H 	H 	0.7353	0.7133	0.0093	0.218
Mof_H 	H 	0.7857	0.6747	0.0075	0.231
Mof_H 	H 	0.4771	0.8209	0.6481	0.007
Mof_H 	H 	0.5923	0.8233	0.5355	-0.007
Mof_H 	H 	0.5154	0.7434	0.6888	0.036
Mof_H 	H 	0.6278	0.7164	0.5332	0.237
Mof_H 	H 	0.6448	0.7606	0.5018	0.236
Mof_H 	H 	0.6822	0.7094	0.512	0.237
Mof_H 	H 	0.6782	0.7566	0.5834	0.218
Mof_H 	H 	0.7133	0.7353	0.5421	0.218
Mof_H 	H 	0.6747	0.7857	0.5321	0.231
Mof_H 	H 	0.4771	0.0539	0.8209	0.007
Mof_H 	H 	0.5923	0.0489	0.8233	-0.007
Mof_H 	H 	0.5154	0.0524	0.7434	0.036
Mof_H 	H 	0.6278	0.1226	0.7164	0.237
Mof_H 	H 	0.6448	0.0928	0.7606	0.236
Mof_H 	H 	0.6822	0.0964	0.7094	0.237
Mof_H 	H 	0.6782	0.9818	0.7566	0.218
Mof_H 	H 	0.7133	0.0093	0.7353	0.218
Mof_H 	H 	0.6747	0.0075	0.7857	0.231
Mof_H 	H 	0.8209	0.6481	0.4771	0.007
Mof_H 	H 	0.8233	0.5355	0.5923	-0.007
Mof_H 	H 	0.7434	0.6888	0.5154	0.036
Mof_H 	H 	0.7164	0.5332	0.6278	0.237
Mof_H 	H 	0.7606	0.5018	0.6448	0.236
Mof_H 	H 	0.7094	0.512	0.6822	0.237
Mof_H 	H 	0.7566	0.5834	0.6782	0.218
Mof_H 	H 	0.7353	0.5421	0.7133	0.218
Mof_H 	H 	0.7857	0.5321	0.6747	0.231
Mof_H 	H 	0.0539	0.4771	0.6481	0.007
Mof_H 	H 	0.0489	0.5923	0.5355	-0.007
Mof_H 	H 	0.0524	0.5154	0.6888	0.036
Mof_H 	H 	0.1226	0.6278	0.5332	0.237
Mof_H 	H 	0.0928	0.6448	0.5018	0.236
Mof_H 	H 	0.0964	0.6822	0.512	0.237
Mof_H 	H 	0.9818	0.6782	0.5834	0.218
Mof_H 	H 	0.0093	0.7133	0.5421	0.218
Mof_H 	H 	0.0075	0.6747	0.5321	0.231
Mof_H 	H 	0.6481	0.8209	0.0539	0.007
Mof_H 	H 	0.5355	0.8233	0.0489	-0.007
Mof_H 	H 	0.6888	0.7434	0.0524	0.036
Mof_H 	H 	0.5332	0.7164	0.1226	0.237
Mof_H 	H 	0.5018	0.7606	0.0928	0.236
Mof_H 	H 	0.512	0.7094	0.0964	0.237
Mof_H 	H 	0.5834	0.7566	0.9818	0.218
Mof_H 	H 	0.5421	0.7353	0.0093	0.218
Mof_H 	H 	0.5321	0.7857	0.0075	0.231
Mof_H 	H 	0.8209	0.0539	0.6481	0.007
Mof_H 	H 	0.8233	0.0489	0.5355	-0.007
Mof_H 	H 	0.7434	0.0524	0.6888	0.036
Mof_H 	H 	0.7164	0.1226	0.5332	0.237
Mof_H 	H 	0.7606	0.0928	0.5018	0.236
Mof_H 	H 	0.7094	0.0964	0.512	0.237
Mof_H 	H 	0.7566	0.9818	0.5834	0.218
Mof_H 	H 	0.7353	0.0093	0.5421	0.218
Mof_H 	H 	0.7857	0.0075	0.5321	0.231
Mof_H 	H 	0.4771	0.6481	0.0539	0.007
Mof_H 	H 	0.5923	0.5355	0.0489	-0.007
Mof_H 	H 	0.5154	0.6888	0.0524	0.036
Mof_H 	H 	0.6278	0.5332	0.1226	0.237
Mof_H 	H 	0.6448	0.5018	0.0928	0.236
Mof_H 	H 	0.6822	0.512	0.0964	0.237
Mof_H 	H 	0.6782	0.5834	0.9818	0.218
Mof_H 	H 	0.7133	0.5421	0.0093	0.218
Mof_H 	H 	0.6747	0.5321	0.0075	0.231
Mof_H 	H 	0.6481	0.4771	0.8209	0.007
Mof_H 	H 	0.5355	0.5923	0.8233	-0.007
Mof_H 	H 	0.6888	0.5154	0.7434	0.036
Mof_H 	H 	0.5332	0.6278	0.7164	0.237
Mof_H 	H 	0.5018	0.6448	0.7606	0.236
Mof_H 	H 	0.512	0.6822	0.7094	0.237
Mof_H 	H 	0.5834	0.6782	0.7566	0.218
Mof_H 	H 	0.5421	0.7133	0.7353	0.218
Mof_H 	H 	0.5321	0.6747	0.7857	0.231
Mof_H 	H 	0.0539	0.8209	0.4771	0.007
Mof_H 	H 	0.0489	0.8233	0.5923	-0.007
Mof_H 	H 	0.0524	0.7434	0.5154	0.036
Mof_H 	H 	0.1226	0.7164	0.6278	0.237
Mof_H 	H 	0.0928	0.7606	0.6448	0.236
Mof_H 	H 	0.0964	0.7094	0.6822	0.237
Mof_H 	H 	0.9818	0.7566	0.6782	0.218
Mof_H 	H 	0.0093	0.7353	0.7133	0.218
Mof_H 	H 	0.0075	0.7857	0.6747	0.231
Mof_C 	C 	0.5489	0.0667	0.0049	0.441
Mof_C 	C 	0.5505	0.0881	0.0321	-0.175
Mof_C 	C 	0.5526	0.1332	0.0088	0.054
Mof_C 	C 	0.5505	0.0661	0.0761	0.101
Mof_C 	C 	0.5528	0.1574	0.0308	-0.128
Mof_C 	C 	0.55374	0.13286	0.07618	0.038
Mof_C 	C 	0.55265	0.08747	0.09745	-0.172
Mof_C 	C 	0.55314	0.06684	0.14758	0.413
Mof_C 	C 	0.59465	0.02495	0.15095	-0.762
Mof_C 	C 	0.50903	0.05503	0.18137	-0.719
Mof_C 	C 	0.55484	0.10728	0.1516	-0.18
Mof_C 	C 	0.55359	0.14583	0.11085	0.076
Mof_C 	C 	0.0667	0.5489	0.3795	0.441
Mof_C 	C 	0.0881	0.5505	0.3293	-0.175
Mof_C 	C 	0.1332	0.5526	0.3054	0.054
Mof_C 	C 	0.0661	0.5505	0.3073	0.101
Mof_C 	C 	0.1574	0.5528	0.259	-0.129
Mof_C 	C 	0.13286	0.55374	0.23722	0.038
Mof_C 	C 	0.08747	0.55265	0.26243	-0.173
Mof_C 	C 	0.06684	0.55314	0.23244	0.413
Mof_C 	C 	0.02495	0.59465	0.22945	-0.762
Mof_C 	C 	0.05503	0.50903	0.25457	-0.719
Mof_C 	C 	0.10728	0.55484	0.18628	-0.18
Mof_C 	C 	0.14583	0.55359	0.18973	0.076
Mof_C 	C 	0.0049	0.3795	0.5489	0.441
Mof_C 	C 	0.0321	0.3293	0.5505	-0.175
Mof_C 	C 	0.0088	0.3054	0.5526	0.054
Mof_C 	C 	0.0761	0.3073	0.5505	0.101
Mof_C 	C 	0.0308	0.259	0.5528	-0.129
Mof_C 	C 	0.07618	0.23722	0.55374	0.038
Mof_C 	C 	0.09745	0.26243	0.55265	-0.173
Mof_C 	C 	0.14758	0.23244	0.55314	0.413
Mof_C 	C 	0.15095	0.22945	0.59465	-0.762
Mof_C 	C 	0.18137	0.25457	0.50903	-0.719
Mof_C 	C 	0.1516	0.18628	0.55484	-0.18
Mof_C 	C 	0.11085	0.18973	0.55359	0.076
Mof_C 	C 	0.3795	0.0049	0.0667	0.441
Mof_C 	C 	0.3293	0.0321	0.0881	-0.175
Mof_C 	C 	0.3054	0.0088	0.1332	0.054
Mof_C 	C 	0.3073	0.0761	0.0661	0.1
Mof_C 	C 	0.259	0.0308	0.1574	-0.128
Mof_C 	C 	0.23722	0.07618	0.13286	0.038
Mof_C 	C 	0.26243	0.09745	0.08747	-0.172
Mof_C 	C 	0.23244	0.14758	0.06684	0.413
Mof_C 	C 	0.22945	0.15095	0.02495	-0.762
Mof_C 	C 	0.25457	0.18137	0.05503	-0.719
Mof_C 	C 	0.18628	0.1516	0.10728	-0.18
Mof_C 	C 	0.18973	0.11085	0.14583	0.076
Mof_C 	C 	0.5489	0.0049	0.3795	0.441
Mof_C 	C 	0.5505	0.0321	0.3293	-0.175
Mof_C 	C 	0.5526	0.0088	0.3054	0.054
Mof_C 	C 	0.5505	0.0761	0.3073	0.101
Mof_C 	C 	0.5528	0.0308	0.259	-0.129
Mof_C 	C 	0.55374	0.07618	0.23722	0.038
Mof_C 	C 	0.55265	0.09745	0.26243	-0.173
Mof_C 	C 	0.55314	0.14758	0.23244	0.413
Mof_C 	C 	0.59465	0.15095	0.22945	-0.762
Mof_C 	C 	0.50903	0.18137	0.25457	-0.719
Mof_C 	C 	0.55484	0.1516	0.18628	-0.18
Mof_C 	C 	0.55359	0.11085	0.18973	0.076
Mof_C 	C 	0.0667	0.3795	0.0049	0.441
Mof_C 	C 	0.0881	0.3293	0.0321	-0.175
Mof_C 	C 	0.1332	0.3054	0.0088	0.054
Mof_C 	C 	0.0661	0.3073	0.0761	0.1
Mof_C 	C 	0.1574	0.259	0.0308	-0.128
Mof_C 	C 	0.13286	0.23722	0.07618	0.038
Mof_C 	C 	0.08747	0.26243	0.09745	-0.172
Mof_C 	C 	0.06684	0.23244	0.14758	0.413
Mof_C 	C 	0.02495	0.22945	0.15095	-0.762
Mof_C 	C 	0.05503	0.25457	0.18137	-0.719
Mof_C 	C 	0.10728	0.18628	0.1516	-0.18
Mof_C 	C 	0.14583	0.18973	0.11085	0.076
Mof_C 	C 	0.0049	0.5489	0.0667	0.441
Mof_C 	C 	0.0321	0.5505	0.0881	-0.175
Mof_C 	C 	0.0088	0.5526	0.1332	0.054
Mof_C 	C 	0.0761	0.5505	0.0661	0.101
Mof_C 	C 	0.0308	0.5528	0.1574	-0.128
Mof_C 	C 	0.07618	0.55374	0.13286	0.038
Mof_C 	C 	0.09745	0.55265	0.08747	-0.172
Mof_C 	C 	0.14758	0.55314	0.06684	0.413
Mof_C 	C 	0.15095	0.59465	0.02495	-0.762
Mof_C 	C 	0.18137	0.50903	0.05503	-0.719
Mof_C 	C 	0.1516	0.55484	0.10728	-0.18
Mof_C 	C 	0.11085	0.55359	0.14583	0.076
Mof_C 	C 	0.3795	0.0667	0.5489	0.441
Mof_C 	C 	0.3293	0.0881	0.5505	-0.175
Mof_C 	C 	0.3054	0.1332	0.5526	0.054
Mof_C 	C 	0.3073	0.0661	0.5505	0.101
Mof_C 	C 	0.259	0.1574	0.5528	-0.129
Mof_C 	C 	0.23722	0.13286	0.55374	0.038
Mof_C 	C 	0.26243	0.08747	0.55265	-0.173
Mof_C 	C 	0.23244	0.06684	0.55314	0.413
Mof_C 	C 	0.22945	0.02495	0.59465	-0.762
Mof_C 	C 	0.25457	0.05503	0.50903	-0.719
Mof_C 	C 	0.18628	0.10728	0.55484	-0.18
Mof_C 	C 	0.18973	0.14583	0.55359	0.076
Mof_C 	C 	0.5489	0.3795	0.0667	0.441
Mof_C 	C 	0.5505	0.3293	0.0881	-0.175
Mof_C 	C 	0.5526	0.3054	0.1332	0.054
Mof_C 	C 	0.5505	0.3073	0.0661	0.101
Mof_C 	C 	0.5528	0.259	0.1574	-0.129
Mof_C 	C 	0.55374	0.23722	0.13286	0.038
Mof_C 	C 	0.55265	0.26243	0.08747	-0.173
Mof_C 	C 	0.55314	0.23244	0.06684	0.413
Mof_C 	C 	0.59465	0.22945	0.02495	-0.762
Mof_C 	C 	0.50903	0.25457	0.05503	-0.719
Mof_C 	C 	0.55484	0.18628	0.10728	-0.18
Mof_C 	C 	0.55359	0.18973	0.14583	0.076
Mof_C 	C 	0.0667	0.0049	0.5489	0.441
Mof_C 	C 	0.0881	0.0321	0.5505	-0.175
Mof_C 	C 	0.1332	0.0088	0.5526	0.054
Mof_C 	C 	0.0661	0.0761	0.5505	0.101
Mof_C 	C 	0.1574	0.0308	0.5528	-0.128
Mof_C 	C 	0.13286	0.07618	0.55374	0.038
Mof_C 	C 	0.08747	0.09745	0.55265	-0.172
Mof_C 	C 	0.06684	0.14758	0.55314	0.413
Mof_C 	C 	0.02495	0.15095	0.59465	-0.762
Mof_C 	C 	0.05503	0.18137	0.50903	-0.719
Mof_C 	C 	0.10728	0.1516	0.55484	-0.18
Mof_C 	C 	0.14583	0.11085	0.55359	0.076
Mof_C 	C 	0.0049	0.0667	0.3795	0.441
Mof_C 	C 	0.0321	0.0881	0.3293	-0.175
Mof_C 	C 	0.0088	0.1332	0.3054	0.054
Mof_C 	C 	0.0761	0.0661	0.3073	0.1
Mof_C 	C 	0.0308	0.1574	0.259	-0.128
Mof_C 	C 	0.07618	0.13286	0.23722	0.038
Mof_C 	C 	0.09745	0.08747	0.26243	-0.172
Mof_C 	C 	0.14758	0.06684	0.23244	0.413
Mof_C 	C 	0.15095	0.02495	0.22945	-0.762
Mof_C 	C 	0.18137	0.05503	0.25457	-0.719
Mof_C 	C 	0.1516	0.10728	0.18628	-0.18
Mof_C 	C 	0.11085	0.14583	0.18973	0.076
Mof_C 	C 	0.3795	0.5489	0.0049	0.441
Mof_C 	C 	0.3293	0.5505	0.0321	-0.175
Mof_C 	C 	0.3054	0.5526	0.0088	0.054
Mof_C 	C 	0.3073	0.5505	0.0761	0.101
Mof_C 	C 	0.259	0.5528	0.0308	-0.129
Mof_C 	C 	0.23722	0.55374	0.07618	0.038
Mof_C 	C 	0.26243	0.55265	0.09745	-0.173
Mof_C 	C 	0.23244	0.55314	0.14758	0.413
Mof_C 	C 	0.22945	0.59465	0.15095	-0.762
Mof_C 	C 	0.25457	0.50903	0.18137	-0.719
Mof_C 	C 	0.18628	0.55484	0.1516	-0.18
Mof_C 	C 	0.18973	0.55359	0.11085	0.076
Mof_C 	C 	0.4333	0.9511	0.4951	0.441
Mof_C 	C 	0.4119	0.9495	0.4679	-0.175
Mof_C 	C 	0.3668	0.9474	0.4912	0.054
Mof_C 	C 	0.4339	0.9495	0.4239	0.101
Mof_C 	C 	0.3426	0.9472	0.4692	-0.129
Mof_C 	C 	0.36714	0.94626	0.42382	0.038
Mof_C 	C 	0.41253	0.94735	0.40255	-0.173
Mof_C 	C 	0.43316	0.94686	0.35242	0.413
Mof_C 	C 	0.47505	0.90535	0.34905	-0.762
Mof_C 	C 	0.44497	0.99097	0.31863	-0.719
Mof_C 	C 	0.39272	0.94516	0.3484	-0.18
Mof_C 	C 	0.35417	0.94641	0.38915	0.076
Mof_C 	C 	0.9511	0.4333	0.1205	0.441
Mof_C 	C 	0.9495	0.4119	0.1707	-0.175
Mof_C 	C 	0.9474	0.3668	0.1946	0.054
Mof_C 	C 	0.9495	0.4339	0.1927	0.101
Mof_C 	C 	0.9472	0.3426	0.241	-0.129
Mof_C 	C 	0.94626	0.36714	0.26278	0.038
Mof_C 	C 	0.94735	0.41253	0.23757	-0.173
Mof_C 	C 	0.94686	0.43316	0.26756	0.413
Mof_C 	C 	0.90535	0.47505	0.27055	-0.762
Mof_C 	C 	0.99097	0.44497	0.24543	-0.719
Mof_C 	C 	0.94516	0.39272	0.31372	-0.18
Mof_C 	C 	0.94641	0.35417	0.31027	0.076
Mof_C 	C 	0.1205	0.4951	0.9511	0.441
Mof_C 	C 	0.1707	0.4679	0.9495	-0.175
Mof_C 	C 	0.1946	0.4912	0.9474	0.054
Mof_C 	C 	0.1927	0.4239	0.9495	0.101
Mof_C 	C 	0.241	0.4692	0.9472	-0.129
Mof_C 	C 	0.26278	0.42382	0.94626	0.038
Mof_C 	C 	0.23757	0.40255	0.94735	-0.173
Mof_C 	C 	0.26756	0.35242	0.94686	0.413
Mof_C 	C 	0.27055	0.34905	0.90535	-0.762
Mof_C 	C 	0.24543	0.31863	0.99097	-0.719
Mof_C 	C 	0.31372	0.3484	0.94516	-0.18
Mof_C 	C 	0.31027	0.38915	0.94641	0.076
Mof_C 	C 	0.4951	0.1205	0.4333	0.441
Mof_C 	C 	0.4679	0.1707	0.4119	-0.175
Mof_C 	C 	0.4912	0.1946	0.3668	0.054
Mof_C 	C 	0.4239	0.1927	0.4339	0.101
Mof_C 	C 	0.4692	0.241	0.3426	-0.129
Mof_C 	C 	0.42382	0.26278	0.36714	0.038
Mof_C 	C 	0.40255	0.23757	0.41253	-0.173
Mof_C 	C 	0.35242	0.26756	0.43316	0.413
Mof_C 	C 	0.34905	0.27055	0.47505	-0.762
Mof_C 	C 	0.31863	0.24543	0.44497	-0.719
Mof_C 	C 	0.3484	0.31372	0.39272	-0.18
Mof_C 	C 	0.38915	0.31027	0.35417	0.076
Mof_C 	C 	0.4951	0.9511	0.1205	0.441
Mof_C 	C 	0.4679	0.9495	0.1707	-0.175
Mof_C 	C 	0.4912	0.9474	0.1946	0.054
Mof_C 	C 	0.4239	0.9495	0.1927	0.101
Mof_C 	C 	0.4692	0.9472	0.241	-0.129
Mof_C 	C 	0.42382	0.94626	0.26278	0.038
Mof_C 	C 	0.40255	0.94735	0.23757	-0.173
Mof_C 	C 	0.35242	0.94686	0.26756	0.413
Mof_C 	C 	0.34905	0.90535	0.27055	-0.762
Mof_C 	C 	0.31863	0.99097	0.24543	-0.719
Mof_C 	C 	0.3484	0.94516	0.31372	-0.18
Mof_C 	C 	0.38915	0.94641	0.31027	0.076
Mof_C 	C 	0.1205	0.4333	0.4951	0.441
Mof_C 	C 	0.1707	0.4119	0.4679	-0.175
Mof_C 	C 	0.1946	0.3668	0.4912	0.054
Mof_C 	C 	0.1927	0.4339	0.4239	0.101
Mof_C 	C 	0.241	0.3426	0.4692	-0.129
Mof_C 	C 	0.26278	0.36714	0.42382	0.038
Mof_C 	C 	0.23757	0.41253	0.40255	-0.173
Mof_C 	C 	0.26756	0.43316	0.35242	0.413
Mof_C 	C 	0.27055	0.47505	0.34905	-0.762
Mof_C 	C 	0.24543	0.44497	0.31863	-0.719
Mof_C 	C 	0.31372	0.39272	0.3484	-0.18
Mof_C 	C 	0.31027	0.35417	0.38915	0.076
Mof_C 	C 	0.9511	0.4951	0.4333	0.441
Mof_C 	C 	0.9495	0.4679	0.4119	-0.175
Mof_C 	C 	0.9474	0.4912	0.3668	0.054
Mof_C 	C 	0.9495	0.4239	0.4339	0.101
Mof_C 	C 	0.9472	0.4692	0.3426	-0.129
Mof_C 	C 	0.94626	0.42382	0.36714	0.038
Mof_C 	C 	0.94735	0.40255	0.41253	-0.173
Mof_C 	C 	0.94686	0.35242	0.43316	0.413
Mof_C 	C 	0.90535	0.34905	0.47505	-0.762
Mof_C 	C 	0.99097	0.31863	0.44497	-0.719
Mof_C 	C 	0.94516	0.3484	0.39272	-0.18
Mof_C 	C 	0.94641	0.38915	0.35417	0.076
Mof_C 	C 	0.4333	0.1205	0.9511	0.441
Mof_C 	C 	0.4119	0.1707	0.9495	-0.175
Mof_C 	C 	0.3668	0.1946	0.9474	0.054
Mof_C 	C 	0.4339	0.1927	0.9495	0.101
Mof_C 	C 	0.3426	0.241	0.9472	-0.129
Mof_C 	C 	0.36714	0.26278	0.94626	0.038
Mof_C 	C 	0.41253	0.23757	0.94735	-0.173
Mof_C 	C 	0.43316	0.26756	0.94686	0.413
Mof_C 	C 	0.47505	0.27055	0.90535	-0.762
Mof_C 	C 	0.44497	0.24543	0.99097	-0.719
Mof_C 	C 	0.39272	0.31372	0.94516	-0.18
Mof_C 	C 	0.35417	0.31027	0.94641	0.076
Mof_C 	C 	0.1205	0.9511	0.4333	0.441
Mof_C 	C 	0.1707	0.9495	0.4119	-0.175
Mof_C 	C 	0.1946	0.9474	0.3668	0.054
Mof_C 	C 	0.1927	0.9495	0.4339	0.101
Mof_C 	C 	0.241	0.9472	0.3426	-0.129
Mof_C 	C 	0.26278	0.94626	0.36714	0.038
Mof_C 	C 	0.23757	0.94735	0.41253	-0.173
Mof_C 	C 	0.26756	0.94686	0.43316	0.413
Mof_C 	C 	0.27055	0.90535	0.47505	-0.762
Mof_C 	C 	0.24543	0.99097	0.44497	-0.719
Mof_C 	C 	0.31372	0.94516	0.39272	-0.18
Mof_C 	C 	0.31027	0.94641	0.35417	0.076
Mof_C 	C 	0.4951	0.4333	0.9511	0.441
Mof_C 	C 	0.4679	0.4119	0.9495	-0.175
Mof_C 	C 	0.4912	0.3668	0.9474	0.054
Mof_C 	C 	0.4239	0.4339	0.9495	0.101
Mof_C 	C 	0.4692	0.3426	0.9472	-0.129
Mof_C 	C 	0.42382	0.36714	0.94626	0.038
Mof_C 	C 	0.40255	0.41253	0.94735	-0.173
Mof_C 	C 	0.35242	0.43316	0.94686	0.413
Mof_C 	C 	0.34905	0.47505	0.90535	-0.762
Mof_C 	C 	0.31863	0.44497	0.99097	-0.719
Mof_C 	C 	0.3484	0.39272	0.94516	-0.18
Mof_C 	C 	0.38915	0.35417	0.94641	0.076
Mof_C 	C 	0.4333	0.4951	0.1205	0.441
Mof_C 	C 	0.4119	0.4679	0.1707	-0.175
Mof_C 	C 	0.3668	0.4912	0.1946	0.054
Mof_C 	C 	0.4339	0.4239	0.1927	0.101
Mof_C 	C 	0.3426	0.4692	0.241	-0.129
Mof_C 	C 	0.36714	0.42382	0.26278	0.038
Mof_C 	C 	0.41253	0.40255	0.23757	-0.173
Mof_C 	C 	0.43316	0.35242	0.26756	0.413
Mof_C 	C 	0.47505	0.34905	0.27055	-0.762
Mof_C 	C 	0.44497	0.31863	0.24543	-0.719
Mof_C 	C 	0.39272	0.3484	0.31372	-0.18
Mof_C 	C 	0.35417	0.38915	0.31027	0.076
Mof_C 	C 	0.9511	0.1205	0.4951	0.441
Mof_C 	C 	0.9495	0.1707	0.4679	-0.175
Mof_C 	C 	0.9474	0.1946	0.4912	0.054
Mof_C 	C 	0.9495	0.1927	0.4239	0.101
Mof_C 	C 	0.9472	0.241	0.4692	-0.129
Mof_C 	C 	0.94626	0.26278	0.42382	0.038
Mof_C 	C 	0.94735	0.23757	0.40255	-0.173
Mof_C 	C 	0.94686	0.26756	0.35242	0.413
Mof_C 	C 	0.90535	0.27055	0.34905	-0.762
Mof_C 	C 	0.99097	0.24543	0.31863	-0.719
Mof_C 	C 	0.94516	0.31372	0.3484	-0.18
Mof_C 	C 	0.94641	0.31027	0.38915	0.076
Mof_C 	C 	0.4511	0.9333	0.9951	0.441
Mof_C 	C 	0.4495	0.9119	0.9679	-0.175
Mof_C 	C 	0.4474	0.8668	0.9912	0.054
Mof_C 	C 	0.4495	0.9339	0.9239	0.101
Mof_C 	C 	0.4472	0.8426	0.9692	-0.128
Mof_C 	C 	0.44626	0.86714	0.92382	0.038
Mof_C 	C 	0.44735	0.91253	0.90255	-0.172
Mof_C 	C 	0.44686	0.93316	0.85242	0.413
Mof_C 	C 	0.40535	0.97505	0.84905	-0.762
Mof_C 	C 	0.49097	0.94497	0.81863	-0.719
Mof_C 	C 	0.44516	0.89272	0.8484	-0.18
Mof_C 	C 	0.44641	0.85417	0.88915	0.076
Mof_C 	C 	0.9333	0.4511	0.6205	0.441
Mof_C 	C 	0.9119	0.4495	0.6707	-0.175
Mof_C 	C 	0.8668	0.4474	0.6946	0.054
Mof_C 	C 	0.9339	0.4495	0.6927	0.101
Mof_C 	C 	0.8426	0.4472	0.741	-0.129
Mof_C 	C 	0.86714	0.44626	0.76278	0.038
Mof_C 	C 	0.91253	0.44735	0.73757	-0.173
Mof_C 	C 	0.93316	0.44686	0.76756	0.413
Mof_C 	C 	0.97505	0.40535	0.77055	-0.762
Mof_C 	C 	0.94497	0.49097	0.74543	-0.719
Mof_C 	C 	0.89272	0.44516	0.81372	-0.18
Mof_C 	C 	0.85417	0.44641	0.81027	0.076
Mof_C 	C 	0.9951	0.6205	0.4511	0.441
Mof_C 	C 	0.9679	0.6707	0.4495	-0.175
Mof_C 	C 	0.9912	0.6946	0.4474	0.054
Mof_C 	C 	0.9239	0.6927	0.4495	0.101
Mof_C 	C 	0.9692	0.741	0.4472	-0.129
Mof_C 	C 	0.92382	0.76278	0.44626	0.038
Mof_C 	C 	0.90255	0.73757	0.44735	-0.173
Mof_C 	C 	0.85242	0.76756	0.44686	0.413
Mof_C 	C 	0.84905	0.77055	0.40535	-0.762
Mof_C 	C 	0.81863	0.74543	0.49097	-0.719
Mof_C 	C 	0.8484	0.81372	0.44516	-0.18
Mof_C 	C 	0.88915	0.81027	0.44641	0.076
Mof_C 	C 	0.6205	0.9951	0.9333	0.441
Mof_C 	C 	0.6707	0.9679	0.9119	-0.175
Mof_C 	C 	0.6946	0.9912	0.8668	0.054
Mof_C 	C 	0.6927	0.9239	0.9339	0.1
Mof_C 	C 	0.741	0.9692	0.8426	-0.128
Mof_C 	C 	0.76278	0.92382	0.86714	0.038
Mof_C 	C 	0.73757	0.90255	0.91253	-0.172
Mof_C 	C 	0.76756	0.85242	0.93316	0.413
Mof_C 	C 	0.77055	0.84905	0.97505	-0.762
Mof_C 	C 	0.74543	0.81863	0.94497	-0.719
Mof_C 	C 	0.81372	0.8484	0.89272	-0.18
Mof_C 	C 	0.81027	0.88915	0.85417	0.076
Mof_C 	C 	0.4511	0.9951	0.6205	0.441
Mof_C 	C 	0.4495	0.9679	0.6707	-0.175
Mof_C 	C 	0.4474	0.9912	0.6946	0.054
Mof_C 	C 	0.4495	0.9239	0.6927	0.101
Mof_C 	C 	0.4472	0.9692	0.741	-0.129
Mof_C 	C 	0.44626	0.92382	0.76278	0.038
Mof_C 	C 	0.44735	0.90255	0.73757	-0.173
Mof_C 	C 	0.44686	0.85242	0.76756	0.413
Mof_C 	C 	0.40535	0.84905	0.77055	-0.762
Mof_C 	C 	0.49097	0.81863	0.74543	-0.719
Mof_C 	C 	0.44516	0.8484	0.81372	-0.18
Mof_C 	C 	0.44641	0.88915	0.81027	0.076
Mof_C 	C 	0.9333	0.6205	0.9951	0.441
Mof_C 	C 	0.9119	0.6707	0.9679	-0.175
Mof_C 	C 	0.8668	0.6946	0.9912	0.054
Mof_C 	C 	0.9339	0.6927	0.9239	0.1
Mof_C 	C 	0.8426	0.741	0.9692	-0.128
Mof_C 	C 	0.86714	0.76278	0.92382	0.038
Mof_C 	C 	0.91253	0.73757	0.90255	-0.172
Mof_C 	C 	0.93316	0.76756	0.85242	0.413
Mof_C 	C 	0.97505	0.77055	0.84905	-0.762
Mof_C 	C 	0.94497	0.74543	0.81863	-0.719
Mof_C 	C 	0.89272	0.81372	0.8484	-0.18
Mof_C 	C 	0.85417	0.81027	0.88915	0.076
Mof_C 	C 	0.9951	0.4511	0.9333	0.441
Mof_C 	C 	0.9679	0.4495	0.9119	-0.175
Mof_C 	C 	0.9912	0.4474	0.8668	0.054
Mof_C 	C 	0.9239	0.4495	0.9339	0.101
Mof_C 	C 	0.9692	0.4472	0.8426	-0.128
Mof_C 	C 	0.92382	0.44626	0.86714	0.038
Mof_C 	C 	0.90255	0.44735	0.91253	-0.172
Mof_C 	C 	0.85242	0.44686	0.93316	0.413
Mof_C 	C 	0.84905	0.40535	0.97505	-0.762
Mof_C 	C 	0.81863	0.49097	0.94497	-0.719
Mof_C 	C 	0.8484	0.44516	0.89272	-0.18
Mof_C 	C 	0.88915	0.44641	0.85417	0.076
Mof_C 	C 	0.6205	0.9333	0.4511	0.441
Mof_C 	C 	0.6707	0.9119	0.4495	-0.175
Mof_C 	C 	0.6946	0.8668	0.4474	0.054
Mof_C 	C 	0.6927	0.9339	0.4495	0.101
Mof_C 	C 	0.741	0.8426	0.4472	-0.129
Mof_C 	C 	0.76278	0.86714	0.44626	0.038
Mof_C 	C 	0.73757	0.91253	0.44735	-0.173
Mof_C 	C 	0.76756	0.93316	0.44686	0.413
Mof_C 	C 	0.77055	0.97505	0.40535	-0.762
Mof_C 	C 	0.74543	0.94497	0.49097	-0.719
Mof_C 	C 	0.81372	0.89272	0.44516	-0.18
Mof_C 	C 	0.81027	0.85417	0.44641	0.076
Mof_C 	C 	0.4511	0.6205	0.9333	0.441
Mof_C 	C 	0.4495	0.6707	0.9119	-0.175
Mof_C 	C 	0.4474	0.6946	0.8668	0.054
Mof_C 	C 	0.4495	0.6927	0.9339	0.101
Mof_C 	C 	0.4472	0.741	0.8426	-0.129
Mof_C 	C 	0.44626	0.76278	0.86714	0.038
Mof_C 	C 	0.44735	0.73757	0.91253	-0.173
Mof_C 	C 	0.44686	0.76756	0.93316	0.413
Mof_C 	C 	0.40535	0.77055	0.97505	-0.762
Mof_C 	C 	0.49097	0.74543	0.94497	-0.719
Mof_C 	C 	0.44516	0.81372	0.89272	-0.18
Mof_C 	C 	0.44641	0.81027	0.85417	0.076
Mof_C 	C 	0.9333	0.9951	0.4511	0.441
Mof_C 	C 	0.9119	0.9679	0.4495	-0.175
Mof_C 	C 	0.8668	0.9912	0.4474	0.054
Mof_C 	C 	0.9339	0.9239	0.4495	0.101
Mof_C 	C 	0.8426	0.9692	0.4472	-0.128
Mof_C 	C 	0.86714	0.92382	0.44626	0.038
Mof_C 	C 	0.91253	0.90255	0.44735	-0.172
Mof_C 	C 	0.93316	0.85242	0.44686	0.413
Mof_C 	C 	0.97505	0.84905	0.40535	-0.762
Mof_C 	C 	0.94497	0.81863	0.49097	-0.719
Mof_C 	C 	0.89272	0.8484	0.44516	-0.18
Mof_C 	C 	0.85417	0.88915	0.44641	0.076
Mof_C 	C 	0.9951	0.9333	0.6205	0.441
Mof_C 	C 	0.9679	0.9119	0.6707	-0.175
Mof_C 	C 	0.9912	0.8668	0.6946	0.054
Mof_C 	C 	0.9239	0.9339	0.6927	0.1
Mof_C 	C 	0.9692	0.8426	0.741	-0.128
Mof_C 	C 	0.92382	0.86714	0.76278	0.038
Mof_C 	C 	0.90255	0.91253	0.73757	-0.172
Mof_C 	C 	0.85242	0.93316	0.76756	0.413
Mof_C 	C 	0.84905	0.97505	0.77055	-0.762
Mof_C 	C 	0.81863	0.94497	0.74543	-0.719
Mof_C 	C 	0.8484	0.89272	0.81372	-0.18
Mof_C 	C 	0.88915	0.85417	0.81027	0.076
Mof_C 	C 	0.6205	0.4511	0.9951	0.441
Mof_C 	C 	0.6707	0.4495	0.9679	-0.175
Mof_C 	C 	0.6946	0.4474	0.9912	0.054
Mof_C 	C 	0.6927	0.4495	0.9239	0.101
Mof_C 	C 	0.741	0.4472	0.9692	-0.129
Mof_C 	C 	0.76278	0.44626	0.92382	0.038
Mof_C 	C 	0.73757	0.44735	0.90255	-0.173
Mof_C 	C 	0.76756	0.44686	0.85242	0.413
Mof_C 	C 	0.77055	0.40535	0.84905	-0.762
Mof_C 	C 	0.74543	0.49097	0.81863	-0.719
Mof_C 	C 	0.81372	0.44516	0.8484	-0.18
Mof_C 	C 	0.81027	0.44641	0.88915	0.076
Mof_C 	C 	0.5667	0.0489	0.5049	0.441
Mof_C 	C 	0.5881	0.0505	0.5321	-0.175
Mof_C 	C 	0.6332	0.0526	0.5088	0.054
Mof_C 	C 	0.5661	0.0505	0.5761	0.101
Mof_C 	C 	0.6574	0.0528	0.5308	-0.129
Mof_C 	C 	0.63286	0.05374	0.57618	0.038
Mof_C 	C 	0.58747	0.05265	0.59745	-0.173
Mof_C 	C 	0.56684	0.05314	0.64758	0.413
Mof_C 	C 	0.52495	0.09465	0.65095	-0.762
Mof_C 	C 	0.55503	0.00903	0.68137	-0.719
Mof_C 	C 	0.60728	0.05484	0.6516	-0.18
Mof_C 	C 	0.64583	0.05359	0.61085	0.076
Mof_C 	C 	0.0489	0.5667	0.8795	0.441
Mof_C 	C 	0.0505	0.5881	0.8293	-0.175
Mof_C 	C 	0.0526	0.6332	0.8054	0.054
Mof_C 	C 	0.0505	0.5661	0.8073	0.101
Mof_C 	C 	0.0528	0.6574	0.759	-0.129
Mof_C 	C 	0.05374	0.63286	0.73722	0.038
Mof_C 	C 	0.05265	0.58747	0.76243	-0.173
Mof_C 	C 	0.05314	0.56684	0.73244	0.413
Mof_C 	C 	0.09465	0.52495	0.72945	-0.762
Mof_C 	C 	0.00903	0.55503	0.75457	-0.719
Mof_C 	C 	0.05484	0.60728	0.68628	-0.18
Mof_C 	C 	0.05359	0.64583	0.68973	0.076
Mof_C 	C 	0.8795	0.5049	0.0489	0.441
Mof_C 	C 	0.8293	0.5321	0.0505	-0.175
Mof_C 	C 	0.8054	0.5088	0.0526	0.054
Mof_C 	C 	0.8073	0.5761	0.0505	0.101
Mof_C 	C 	0.759	0.5308	0.0528	-0.129
Mof_C 	C 	0.73722	0.57618	0.05374	0.038
Mof_C 	C 	0.76243	0.59745	0.05265	-0.173
Mof_C 	C 	0.73244	0.64758	0.05314	0.413
Mof_C 	C 	0.72945	0.65095	0.09465	-0.762
Mof_C 	C 	0.75457	0.68137	0.00903	-0.719
Mof_C 	C 	0.68628	0.6516	0.05484	-0.18
Mof_C 	C 	0.68973	0.61085	0.05359	0.076
Mof_C 	C 	0.5049	0.8795	0.5667	0.441
Mof_C 	C 	0.5321	0.8293	0.5881	-0.175
Mof_C 	C 	0.5088	0.8054	0.6332	0.054
Mof_C 	C 	0.5761	0.8073	0.5661	0.101
Mof_C 	C 	0.5308	0.759	0.6574	-0.129
Mof_C 	C 	0.57618	0.73722	0.63286	0.038
Mof_C 	C 	0.59745	0.76243	0.58747	-0.173
Mof_C 	C 	0.64758	0.73244	0.56684	0.413
Mof_C 	C 	0.65095	0.72945	0.52495	-0.762
Mof_C 	C 	0.68137	0.75457	0.55503	-0.719
Mof_C 	C 	0.6516	0.68628	0.60728	-0.18
Mof_C 	C 	0.61085	0.68973	0.64583	0.076
Mof_C 	C 	0.5049	0.0489	0.8795	0.441
Mof_C 	C 	0.5321	0.0505	0.8293	-0.175
Mof_C 	C 	0.5088	0.0526	0.8054	0.054
Mof_C 	C 	0.5761	0.0505	0.8073	0.101
Mof_C 	C 	0.5308	0.0528	0.759	-0.129
Mof_C 	C 	0.57618	0.05374	0.73722	0.038
Mof_C 	C 	0.59745	0.05265	0.76243	-0.173
Mof_C 	C 	0.64758	0.05314	0.73244	0.413
Mof_C 	C 	0.65095	0.09465	0.72945	-0.762
Mof_C 	C 	0.68137	0.00903	0.75457	-0.719
Mof_C 	C 	0.6516	0.05484	0.68628	-0.18
Mof_C 	C 	0.61085	0.05359	0.68973	0.076
Mof_C 	C 	0.8795	0.5667	0.5049	0.441
Mof_C 	C 	0.8293	0.5881	0.5321	-0.175
Mof_C 	C 	0.8054	0.6332	0.5088	0.054
Mof_C 	C 	0.8073	0.5661	0.5761	0.101
Mof_C 	C 	0.759	0.6574	0.5308	-0.129
Mof_C 	C 	0.73722	0.63286	0.57618	0.038
Mof_C 	C 	0.76243	0.58747	0.59745	-0.173
Mof_C 	C 	0.73244	0.56684	0.64758	0.413
Mof_C 	C 	0.72945	0.52495	0.65095	-0.762
Mof_C 	C 	0.75457	0.55503	0.68137	-0.719
Mof_C 	C 	0.68628	0.60728	0.6516	-0.18
Mof_C 	C 	0.68973	0.64583	0.61085	0.076
Mof_C 	C 	0.0489	0.5049	0.5667	0.441
Mof_C 	C 	0.0505	0.5321	0.5881	-0.175
Mof_C 	C 	0.0526	0.5088	0.6332	0.054
Mof_C 	C 	0.0505	0.5761	0.5661	0.101
Mof_C 	C 	0.0528	0.5308	0.6574	-0.129
Mof_C 	C 	0.05374	0.57618	0.63286	0.038
Mof_C 	C 	0.05265	0.59745	0.58747	-0.173
Mof_C 	C 	0.05314	0.64758	0.56684	0.413
Mof_C 	C 	0.09465	0.65095	0.52495	-0.762
Mof_C 	C 	0.00903	0.68137	0.55503	-0.719
Mof_C 	C 	0.05484	0.6516	0.60728	-0.18
Mof_C 	C 	0.05359	0.61085	0.64583	0.076
Mof_C 	C 	0.5667	0.8795	0.0489	0.441
Mof_C 	C 	0.5881	0.8293	0.0505	-0.175
Mof_C 	C 	0.6332	0.8054	0.0526	0.054
Mof_C 	C 	0.5661	0.8073	0.0505	0.101
Mof_C 	C 	0.6574	0.759	0.0528	-0.129
Mof_C 	C 	0.63286	0.73722	0.05374	0.038
Mof_C 	C 	0.58747	0.76243	0.05265	-0.173
Mof_C 	C 	0.56684	0.73244	0.05314	0.413
Mof_C 	C 	0.52495	0.72945	0.09465	-0.762
Mof_C 	C 	0.55503	0.75457	0.00903	-0.719
Mof_C 	C 	0.60728	0.68628	0.05484	-0.18
Mof_C 	C 	0.64583	0.68973	0.05359	0.076
Mof_C 	C 	0.8795	0.0489	0.5667	0.441
Mof_C 	C 	0.8293	0.0505	0.5881	-0.175
Mof_C 	C 	0.8054	0.0526	0.6332	0.054
Mof_C 	C 	0.8073	0.0505	0.5661	0.101
Mof_C 	C 	0.759	0.0528	0.6574	-0.129
Mof_C 	C 	0.73722	0.05374	0.63286	0.038
Mof_C 	C 	0.76243	0.05265	0.58747	-0.173
Mof_C 	C 	0.73244	0.05314	0.56684	0.413
Mof_C 	C 	0.72945	0.09465	0.52495	-0.762
Mof_C 	C 	0.75457	0.00903	0.55503	-0.719
Mof_C 	C 	0.68628	0.05484	0.60728	-0.18
Mof_C 	C 	0.68973	0.05359	0.64583	0.076
Mof_C 	C 	0.5049	0.5667	0.0489	0.441
Mof_C 	C 	0.5321	0.5881	0.0505	-0.175
Mof_C 	C 	0.5088	0.6332	0.0526	0.054
Mof_C 	C 	0.5761	0.5661	0.0505	0.101
Mof_C 	C 	0.5308	0.6574	0.0528	-0.129
Mof_C 	C 	0.57618	0.63286	0.05374	0.038
Mof_C 	C 	0.59745	0.58747	0.05265	-0.173
Mof_C 	C 	0.64758	0.56684	0.05314	0.413
Mof_C 	C 	0.65095	0.52495	0.09465	-0.762
Mof_C 	C 	0.68137	0.55503	0.00903	-0.719
Mof_C 	C 	0.6516	0.60728	0.05484	-0.18
Mof_C 	C 	0.61085	0.64583	0.05359	0.076
Mof_C 	C 	0.5667	0.5049	0.8795	0.441
Mof_C 	C 	0.5881	0.5321	0.8293	-0.175
Mof_C 	C 	0.6332	0.5088	0.8054	0.054
Mof_C 	C 	0.5661	0.5761	0.8073	0.101
Mof_C 	C 	0.6574	0.5308	0.759	-0.129
Mof_C 	C 	0.63286	0.57618	0.73722	0.038
Mof_C 	C 	0.58747	0.59745	0.76243	-0.173
Mof_C 	C 	0.56684	0.64758	0.73244	0.413
Mof_C 	C 	0.52495	0.65095	0.72945	-0.762
Mof_C 	C 	0.55503	0.68137	0.75457	-0.719
Mof_C 	C 	0.60728	0.6516	0.68628	-0.18
Mof_C 	C 	0.64583	0.61085	0.68973	0.076
Mof_C 	C 	0.0489	0.8795	0.5049	0.441
Mof_C 	C 	0.0505	0.8293	0.5321	-0.175
Mof_C 	C 	0.0526	0.8054	0.5088	0.054
Mof_C 	C 	0.0505	0.8073	0.5761	0.101
Mof_C 	C 	0.0528	0.759	0.5308	-0.129
Mof_C 	C 	0.05374	0.73722	0.57618	0.038
Mof_C 	C 	0.05265	0.76243	0.59745	-0.173
Mof_C 	C 	0.05314	0.73244	0.64758	0.413
Mof_C 	C 	0.09465	0.72945	0.65095	-0.762
Mof_C 	C 	0.00903	0.75457	0.68137	-0.719
Mof_C 	C 	0.05484	0.68628	0.6516	-0.18
Mof_C 	C 	0.05359	0.68973	0.61085	0.076
Mof_Cl	Cl	0.49195	0.00805	0.00805	-0.408
Mof_Cl	Cl	0.00805	0.49195	0.49195	-0.408
Mof_Cl	Cl	0.49195	0.00805	0.49195	-0.408
Mof_Cl	Cl	0.00805	0.49195	0.00805	-0.408
Mof_Cl	Cl	0.49195	0.49195	0.00805	-0.408
Mof_Cl	Cl	0.00805	0.00805	0.49195	-0.408
Mof_Cl	Cl	0.50805	0.99195	0.99195	-0.408
Mof_Cl	Cl	0.99195	0.50805	0.50805	-0.408
Mof_Cl	Cl	0.50805	0.99195	0.50805	-0.408
Mof_Cl	Cl	0.99195	0.50805	0.99195	-0.408
Mof_Cl	Cl	0.50805	0.50805	0.99195	-0.408
Mof_Cl	Cl	0.99195	0.99195	0.50805	-0.408
Mof_O 	O 	0.5463	0.0875	0.9671	-0.462
Mof_O 	O 	0.5269	0.0415	0.0267	-0.423
Mof_O 	O 	0.0875	0.5463	0.3991	-0.463
Mof_O 	O 	0.0415	0.5269	0.4049	-0.423
Mof_O 	O 	0.9671	0.3991	0.5463	-0.463
Mof_O 	O 	0.0267	0.4049	0.5269	-0.423
Mof_O 	O 	0.3991	0.9671	0.0875	-0.462
Mof_O 	O 	0.4049	0.0267	0.0415	-0.423
Mof_O 	O 	0.5463	0.9671	0.3991	-0.463
Mof_O 	O 	0.5269	0.0267	0.4049	-0.423
Mof_O 	O 	0.0875	0.3991	0.9671	-0.462
Mof_O 	O 	0.0415	0.4049	0.0267	-0.423
Mof_O 	O 	0.9671	0.5463	0.0875	-0.462
Mof_O 	O 	0.0267	0.5269	0.0415	-0.423
Mof_O 	O 	0.3991	0.0875	0.5463	-0.463
Mof_O 	O 	0.4049	0.0415	0.5269	-0.423
Mof_O 	O 	0.5463	0.3991	0.0875	-0.463
Mof_O 	O 	0.5269	0.4049	0.0415	-0.423
Mof_O 	O 	0.0875	0.9671	0.5463	-0.462
Mof_O 	O 	0.0415	0.0267	0.5269	-0.423
Mof_O 	O 	0.9671	0.0875	0.3991	-0.462
Mof_O 	O 	0.0267	0.0415	0.4049	-0.423
Mof_O 	O 	0.3991	0.5463	0.9671	-0.463
Mof_O 	O 	0.4049	0.5269	0.0267	-0.423
Mof_O 	O 	0.4125	0.9537	0.5329	-0.463
Mof_O 	O 	0.4585	0.9731	0.4733	-0.423
Mof_O 	O 	0.9537	0.4125	0.1009	-0.463
Mof_O 	O 	0.9731	0.4585	0.0951	-0.423
Mof_O 	O 	0.1009	0.5329	0.9537	-0.463
Mof_O 	O 	0.0951	0.4733	0.9731	-0.423
Mof_O 	O 	0.5329	0.1009	0.4125	-0.463
Mof_O 	O 	0.4733	0.0951	0.4585	-0.423
Mof_O 	O 	0.5329	0.9537	0.1009	-0.463
Mof_O 	O 	0.4733	0.9731	0.0951	-0.423
Mof_O 	O 	0.1009	0.4125	0.5329	-0.463
Mof_O 	O 	0.0951	0.4585	0.4733	-0.423
Mof_O 	O 	0.9537	0.5329	0.4125	-0.463
Mof_O 	O 	0.9731	0.4733	0.4585	-0.423
Mof_O 	O 	0.4125	0.1009	0.9537	-0.463
Mof_O 	O 	0.4585	0.0951	0.9731	-0.423
Mof_O 	O 	0.1009	0.9537	0.4125	-0.463
Mof_O 	O 	0.0951	0.9731	0.4585	-0.423
Mof_O 	O 	0.5329	0.4125	0.9537	-0.463
Mof_O 	O 	0.4733	0.4585	0.9731	-0.423
Mof_O 	O 	0.4125	0.5329	0.1009	-0.463
Mof_O 	O 	0.4585	0.4733	0.0951	-0.423
Mof_O 	O 	0.9537	0.1009	0.5329	-0.463
Mof_O 	O 	0.9731	0.0951	0.4733	-0.423
Mof_O 	O 	0.4537	0.9125	0.0329	-0.462
Mof_O 	O 	0.4731	0.9585	0.9733	-0.423
Mof_O 	O 	0.9125	0.4537	0.6009	-0.463
Mof_O 	O 	0.9585	0.4731	0.5951	-0.423
Mof_O 	O 	0.0329	0.6009	0.4537	-0.463
Mof_O 	O 	0.9733	0.5951	0.4731	-0.423
Mof_O 	O 	0.6009	0.0329	0.9125	-0.462
Mof_O 	O 	0.5951	0.9733	0.9585	-0.423
Mof_O 	O 	0.4537	0.0329	0.6009	-0.463
Mof_O 	O 	0.4731	0.9733	0.5951	-0.423
Mof_O 	O 	0.9125	0.6009	0.0329	-0.462
Mof_O 	O 	0.9585	0.5951	0.9733	-0.423
Mof_O 	O 	0.0329	0.4537	0.9125	-0.462
Mof_O 	O 	0.9733	0.4731	0.9585	-0.423
Mof_O 	O 	0.6009	0.9125	0.4537	-0.463
Mof_O 	O 	0.5951	0.9585	0.4731	-0.423
Mof_O 	O 	0.4537	0.6009	0.9125	-0.463
Mof_O 	O 	0.4731	0.5951	0.9585	-0.423
Mof_O 	O 	0.9125	0.0329	0.4537	-0.462
Mof_O 	O 	0.9585	0.9733	0.4731	-0.423
Mof_O 	O 	0.0329	0.9125	0.6009	-0.462
Mof_O 	O 	0.9733	0.9585	0.5951	-0.423
Mof_O 	O 	0.6009	0.4537	0.0329	-0.463
Mof_O 	O 	0.5951	0.4731	0.9733	-0.423
Mof_O 	O 	0.5875	0.0463	0.4671	-0.463
Mof_O 	O 	0.5415	0.0269	0.5267	-0.423
Mof_O 	O 	0.0463	0.5875	0.8991	-0.463
Mof_O 	O 	0.0269	0.5415	0.9049	-0.423
Mof_O 	O 	0.8991	0.4671	0.0463	-0.463
Mof_O 	O 	0.9049	0.5267	0.0269	-0.423
Mof_O 	O 	0.4671	0.8991	0.5875	-0.463
Mof_O 	O 	0.5267	0.9049	0.5415	-0.423
Mof_O 	O 	0.4671	0.0463	0.8991	-0.463
Mof_O 	O 	0.5267	0.0269	0.9049	-0.423
Mof_O 	O 	0.8991	0.5875	0.4671	-0.463
Mof_O 	O 	0.9049	0.5415	0.5267	-0.423
Mof_O 	O 	0.0463	0.4671	0.5875	-0.463
Mof_O 	O 	0.0269	0.5267	0.5415	-0.423
Mof_O 	O 	0.5875	0.8991	0.0463	-0.463
Mof_O 	O 	0.5415	0.9049	0.0269	-0.423
Mof_O 	O 	0.8991	0.0463	0.5875	-0.463
Mof_O 	O 	0.9049	0.0269	0.5415	-0.423
Mof_O 	O 	0.4671	0.5875	0.0463	-0.463
Mof_O 	O 	0.5267	0.5415	0.0269	-0.423
Mof_O 	O 	0.5875	0.4671	0.8991	-0.463
Mof_O 	O 	0.5415	0.5267	0.9049	-0.423
Mof_O 	O 	0.0463	0.8991	0.4671	-0.463
Mof_O 	O 	0.0269	0.9049	0.5267	-0.423
Mof_Ni	Ni	0.25	0.25	0.25	0.82
Mof_Ni	Ni	0.75	0.75	0.75	0.82
_end
