data_functionalizedCrystal
_audit_creation_method	'EQeq! by Chris Wilmer'
_symmetry_space_group_name_H-M	'P1'
_symmetry_Int_Tables_number	1
_symmetry_cell_setting	triclinic
loop_
_symmetry_equiv_pos_as_xyz
  x,y,z
_cell_length_a	9.9008
_cell_length_b	11.6556
_cell_length_c	13.4354
_cell_angle_alpha	66.832
_cell_angle_beta	87.019
_cell_angle_gamma	76.377
loop_
_atom_site_label
_atom_site_type_symbol
_atom_site_fract_x
_atom_site_fract_y
_atom_site_fract_z
_atom_site_charge
Mof_Gd	Gd	0.76372	0.97369	0.99516	1.556
Mof_Gd	Gd	0.23628	0.02631	0.00484	1.556
Mof_H 	H 	0.9855	0.3726	0.5566	0.03
Mof_H 	H 	0.9452	0.2666	0.734	0.054
Mof_H 	H 	0.5624	0.4934	0.6802	0.081
Mof_H 	H 	0.6956	0.6741	0.3432	0.057
Mof_H 	H 	0.3156	0.9005	0.2943	0.049
Mof_H 	H 	0.2813	0.8002	0.4741	0.037
Mof_H 	H 	0.6882	0.9064	0.4437	0.03
Mof_H 	H 	0.7626	0.9255	0.276	0.046
Mof_H 	H 	0.0928	0.0301	0.3389	0.068
Mof_H 	H 	0.0145	0.6274	0.4434	0.03
Mof_H 	H 	0.0548	0.7334	0.266	0.054
Mof_H 	H 	0.4376	0.5066	0.3198	0.081
Mof_H 	H 	0.3044	0.3259	0.6568	0.057
Mof_H 	H 	0.6844	0.0995	0.7057	0.049
Mof_H 	H 	0.7187	0.1998	0.5259	0.037
Mof_H 	H 	0.3118	0.0936	0.5563	0.03
Mof_H 	H 	0.2374	0.0745	0.724	0.046
Mof_H 	H 	0.9072	0.9699	0.6611	0.068
Mof_C 	C 	0.7101	0.2896	0.8415	0.341
Mof_C 	C 	0.9002	0.3989	0.5829	0.041
Mof_C 	C 	0.8756	0.3327	0.6885	-0.061
Mof_C 	C 	0.7493	0.3643	0.7263	-0.034
Mof_C 	C 	0.6497	0.4675	0.6563	-0.081
Mof_C 	C 	0.6826	0.5287	0.5536	0.076
Mof_C 	C 	0.5802	0.6407	0.4752	0.047
Mof_C 	C 	0.6092	0.7006	0.3678	-0.032
Mof_C 	C 	0.5107	0.7986	0.2981	-0.1
Mof_C 	C 	0.386	0.8349	0.3392	-0.024
Mof_C 	C 	0.3662	0.7736	0.4473	0.024
Mof_C 	C 	0.5351	0.8673	0.1792	0.457
Mof_C 	C 	0.7722	0.9297	0.4233	0.034
Mof_C 	C 	0.8141	0.9438	0.3214	-0.049
Mof_C 	C 	0.9354	0.9861	0.2868	-0.061
Mof_C 	C 	0.0094	0.0053	0.3584	-0.07
Mof_C 	C 	0.9603	0.9878	0.4621	0.059
Mof_C 	C 	0.9884	0.0033	0.1774	0.396
Mof_C 	C 	0.2899	0.7104	0.1585	0.341
Mof_C 	C 	0.0998	0.6011	0.4171	0.041
Mof_C 	C 	0.1244	0.6673	0.3115	-0.061
Mof_C 	C 	0.2507	0.6357	0.2737	-0.034
Mof_C 	C 	0.3503	0.5325	0.3437	-0.081
Mof_C 	C 	0.3174	0.4713	0.4464	0.076
Mof_C 	C 	0.4198	0.3593	0.5248	0.047
Mof_C 	C 	0.3908	0.2994	0.6322	-0.032
Mof_C 	C 	0.4893	0.2014	0.7019	-0.1
Mof_C 	C 	0.614	0.1651	0.6608	-0.024
Mof_C 	C 	0.6338	0.2264	0.5527	0.024
Mof_C 	C 	0.4649	0.1327	0.8208	0.457
Mof_C 	C 	0.2278	0.0703	0.5767	0.034
Mof_C 	C 	0.1859	0.0562	0.6786	-0.049
Mof_C 	C 	0.0646	0.0139	0.7132	-0.061
Mof_C 	C 	0.9906	0.9947	0.6416	-0.07
Mof_C 	C 	0.0397	0.0122	0.5379	0.059
Mof_C 	C 	0.0116	0.9967	0.8226	0.396
Mof_N 	N 	0.4615	0.6784	0.516	-0.114
Mof_N 	N 	0.808	0.4991	0.5158	-0.124
Mof_N 	N 	0.8434	0.947	0.4951	-0.122
Mof_N 	N 	0.5385	0.3216	0.484	-0.114
Mof_N 	N 	0.192	0.5009	0.4842	-0.124
Mof_N 	N 	0.1566	0.053	0.5049	-0.122
Mof_O 	O 	0.6038	0.335	0.8781	-0.282
Mof_O 	O 	0.795	0.1861	0.8926	-0.409
Mof_O 	O 	0.4328	0.941	0.1213	-0.503
Mof_O 	O 	0.6575	0.8503	0.1502	-0.483
Mof_O 	O 	0.1056	0.0277	0.158	-0.461
Mof_O 	O 	0.9102	0.9936	0.1111	-0.473
Mof_O 	O 	0.3962	0.665	0.1219	-0.282
Mof_O 	O 	0.205	0.8139	0.1074	-0.409
Mof_O 	O 	0.5672	0.059	0.8787	-0.503
Mof_O 	O 	0.3425	0.1497	0.8498	-0.483
Mof_O 	O 	0.8944	0.9723	0.842	-0.461
Mof_O 	O 	0.0898	0.0064	0.8889	-0.473
_end
