data_functionalizedCrystal
_audit_creation_method	'EQeq! by Chris Wilmer'
_symmetry_space_group_name_H-M	'P1'
_symmetry_Int_Tables_number	1
_symmetry_cell_setting	triclinic
loop_
_symmetry_equiv_pos_as_xyz
  x,y,z
_cell_length_a	11.647
_cell_length_b	12.247
_cell_length_c	13.604
_cell_angle_alpha	65.01
_cell_angle_beta	67.88
_cell_angle_gamma	88.32
loop_
_atom_site_label
_atom_site_type_symbol
_atom_site_fract_x
_atom_site_fract_y
_atom_site_fract_z
_atom_site_charge
Mof_O 	O 	0.4751	0.0307	0.3117	-0.743
Mof_O 	O 	0.5403	0.19	0.3197	-0.488
Mof_O 	O 	0.2824	0.9522	0.5804	-0.497
Mof_O 	O 	0.5673	0.8423	0.4421	-0.616
Mof_C 	C 	0.491	0.8557	0.735	0.418
Mof_Sm	Sm	0.57053	0.17117	0.67186	2.248
Mof_C 	C 	0.7691	0.1275	0.4322	0.446
Mof_C 	C 	0.4923	0.7727	0.8524	-0.109
Mof_O 	O 	0.7397	0.3255	0.5936	-0.487
Mof_O 	O 	0.7093	0.192	0.4779	-0.534
Mof_O 	O 	0.5004	0.3023	0.776	-0.436
Mof_O 	O 	0.56	0.1292	0.8713	-0.459
Mof_O 	O 	0.4748	0.3319	0.5556	-0.475
Mof_O 	O 	0.7352	0.0566	0.7051	-0.509
Mof_C 	C 	0.9082	0.1373	0.3928	-0.096
Mof_C 	C 	0.4891	0.8148	0.9338	0.052
Mof_C 	C 	0.4962	0.65	0.8795	-0.027
Mof_C 	C 	0.976	0.221	0.4033	-0.007
Mof_C 	C 	0.9683	0.0514	0.3575	-0.103
Mof_C 	C 	0.4859	0.7311	0.0422	-0.056
Mof_H 	H 	0.4891	0.897	0.9157	0.031
Mof_C 	C 	0.4977	0.5645	0.9864	0.046
Mof_H 	H 	0.4979	0.624	0.8239	0.058
Mof_C 	C 	0.1028	0.2192	0.3796	-0.016
Mof_H 	H 	0.936	0.2783	0.4264	0.059
Mof_H 	H 	0.9235	0.9962	0.3496	0.16
Mof_C 	C 	0.0928	0.0486	0.3345	-0.175
Mof_C 	C 	0.4909	0.609	0.0685	-0.062
Mof_C 	C 	0.4752	0.7705	0.1364	0.292
Mof_C 	C 	0.1608	0.1319	0.3438	0.011
Mof_C 	C 	0.1752	0.2981	0.4005	-0.018
Mof_C 	C 	0.1555	0.9482	0.3088	0.489
Mof_H 	H 	0.4898	0.5553	0.1418	0.072
Mof_H 	H 	0.2459	0.1303	0.3262	0.011
Mof_C 	C 	0.1585	0.4197	0.3745	0.006
Mof_C 	C 	0.2605	0.2512	0.4508	0.035
Mof_O 	O 	0.0826	0.8689	0.3103	-0.25
Mof_C 	C 	0.2274	0.4899	0.3969	-0.12
Mof_H 	H 	0.1009	0.4533	0.3421	0.049
Mof_C 	C 	0.33	0.3223	0.4725	-0.146
Mof_H 	H 	0.2715	0.1702	0.4705	0.002
Mof_C 	C 	0.2083	0.6216	0.37	0.408
Mof_C 	C 	0.3134	0.4433	0.4439	0.08
Mof_C 	C 	0.4198	0.268	0.5299	0.441
Mof_O 	O 	0.142	0.6702	0.3132	-0.25
Mof_H 	H 	0.3603	0.4923	0.4566	0.028
Mof_O 	O 	0.5249	0.9693	0.6883	-0.598
Mof_O 	O 	0.4597	0.81	0.6803	-0.455
Mof_O 	O 	0.7176	0.0478	0.4196	-0.585
Mof_O 	O 	0.4327	0.1577	0.5579	-0.667
Mof_C 	C 	0.509	0.1443	0.265	0.457
Mof_Sm	Sm	0.42948	0.82883	0.32814	2.473
Mof_C 	C 	0.2309	0.8725	0.5678	0.508
Mof_C 	C 	0.5077	0.2273	0.1476	-0.177
Mof_O 	O 	0.2603	0.6745	0.4064	-0.514
Mof_O 	O 	0.2907	0.808	0.5221	-0.55
Mof_O 	O 	0.4996	0.6977	0.224	-0.44
Mof_O 	O 	0.44	0.8708	0.1287	-0.419
Mof_O 	O 	0.5252	0.6681	0.4444	-0.483
Mof_O 	O 	0.2648	0.9434	0.2949	-0.493
Mof_C 	C 	0.0918	0.8627	0.6072	-0.201
Mof_C 	C 	0.5109	0.1852	0.0662	0.079
Mof_C 	C 	0.5038	0.35	0.1205	0.036
Mof_C 	C 	0.024	0.779	0.5967	0.044
Mof_C 	C 	0.0317	0.9486	0.6425	0.253
Mof_C 	C 	0.5141	0.2689	0.9578	-0.098
Mof_H 	H 	0.5109	0.103	0.0843	-0.037
Mof_C 	C 	0.5023	0.4355	0.0136	-0.05
Mof_H 	H 	0.5021	0.376	0.1761	0.034
Mof_C 	C 	0.8972	0.7808	0.6204	-0.019
Mof_H 	H 	0.064	0.7217	0.5736	0.037
Mof_H 	H 	0.0765	0.0038	0.6504	-0.099
Mof_C 	C 	0.9072	0.9514	0.6655	-0.089
Mof_C 	C 	0.5091	0.391	0.9315	0.013
Mof_C 	C 	0.5248	0.2295	0.8636	0.305
Mof_C 	C 	0.8392	0.8681	0.6562	0.023
Mof_C 	C 	0.8248	0.7019	0.5995	0.009
Mof_C 	C 	0.8445	0.0518	0.6912	0.341
Mof_H 	H 	0.5102	0.4447	0.8582	0.046
Mof_H 	H 	0.7541	0.8697	0.6738	0.046
Mof_C 	C 	0.8415	0.5803	0.6255	-0.011
Mof_C 	C 	0.7395	0.7488	0.5492	0.007
Mof_O 	O 	0.9174	0.1311	0.6897	-0.243
Mof_C 	C 	0.7726	0.5101	0.6031	-0.1
Mof_H 	H 	0.8991	0.5467	0.6579	0.058
Mof_C 	C 	0.67	0.6777	0.5275	-0.115
Mof_H 	H 	0.7285	0.8298	0.5295	0.043
Mof_C 	C 	0.7917	0.3784	0.63	0.397
Mof_C 	C 	0.6866	0.5567	0.5561	0.06
Mof_C 	C 	0.5802	0.732	0.4701	0.425
Mof_O 	O 	0.858	0.3298	0.6868	-0.25
Mof_H 	H 	0.6397	0.5077	0.5434	0.038
Mof_Sm	Sm	0.5	-3.5311e-17	0.5	2.198
_end
