data_functionalizedCrystal
_audit_creation_method	'EQeq! by Chris Wilmer'
_symmetry_space_group_name_H-M	'P1'
_symmetry_Int_Tables_number	1
_symmetry_cell_setting	triclinic
loop_
_symmetry_equiv_pos_as_xyz
  x,y,z
_cell_length_a	26.0087
_cell_length_b	26.0087
_cell_length_c	6.8131
_cell_angle_alpha	90
_cell_angle_beta	90
_cell_angle_gamma	120
loop_
_atom_site_label
_atom_site_type_symbol
_atom_site_fract_x
_atom_site_fract_y
_atom_site_fract_z
_atom_site_charge
Mof_Fe	Fe	0.3804	0.3479	0.141	0.813
Mof_O 	O 	0.3266	0.2968	0.3491	-0.453
Mof_O 	O 	0.2997	0.2206	0.608	-0.315
Mof_O 	O 	0.3568	0.273	0.0073	-0.428
Mof_C 	C 	0.3175	0.2465	0.4145	0.308
Mof_C 	C 	0.3336	0.2091	0.3005	-0.153
Mof_C 	C 	0.346	0.2259	0.0971	0.214
Mof_C 	C 	0.3537	0.1823	0.9839	-0.051
Mof_H 	H 	0.3701	0.1922	0.82	0.068
Mof_Fe	Fe	0.04707	0.68123	0.47433	0.812
Mof_O 	O 	0.99327	0.63013	0.68243	-0.454
Mof_O 	O 	0.96637	0.55393	0.94133	-0.316
Mof_O 	O 	0.02347	0.60633	0.34063	-0.429
Mof_C 	C 	0.98417	0.57983	0.74783	0.308
Mof_C 	C 	0.00027	0.54243	0.63383	-0.153
Mof_C 	C 	0.01267	0.55923	0.43043	0.214
Mof_C 	C 	0.02037	0.51563	0.31723	-0.051
Mof_H 	H 	0.03677	0.52553	0.15333	0.068
Mof_Fe	Fe	0.71373	0.01457	0.80767	0.813
Mof_O 	O 	0.65993	0.96347	0.01577	-0.454
Mof_O 	O 	0.63303	0.88727	0.27467	-0.316
Mof_O 	O 	0.69013	0.93967	0.67397	-0.429
Mof_C 	C 	0.65083	0.91317	0.08117	0.309
Mof_C 	C 	0.66693	0.87577	0.96717	-0.153
Mof_C 	C 	0.67933	0.89257	0.76377	0.214
Mof_C 	C 	0.68703	0.84897	0.65057	-0.051
Mof_H 	H 	0.70343	0.85887	0.48667	0.069
Mof_Fe	Fe	0.6521	0.0325	0.141	0.812
Mof_O 	O 	0.7032	0.0298	0.3491	-0.454
Mof_O 	O 	0.7794	0.0791	0.608	-0.316
Mof_O 	O 	0.727	0.0838	0.0073	-0.429
Mof_C 	C 	0.7535	0.071	0.4145	0.308
Mof_C 	C 	0.7909	0.1245	0.3005	-0.153
Mof_C 	C 	0.7741	0.1201	0.0971	0.214
Mof_C 	C 	0.8177	0.1714	0.9839	-0.05
Mof_H 	H 	0.8078	0.1779	0.82	0.068
Mof_Fe	Fe	0.31877	0.36583	0.47433	0.812
Mof_O 	O 	0.36987	0.36313	0.68243	-0.454
Mof_O 	O 	0.44607	0.41243	0.94133	-0.316
Mof_O 	O 	0.39367	0.41713	0.34063	-0.429
Mof_C 	C 	0.42017	0.40433	0.74783	0.308
Mof_C 	C 	0.45757	0.45783	0.63383	-0.153
Mof_C 	C 	0.44077	0.45343	0.43043	0.214
Mof_C 	C 	0.48437	0.50473	0.31723	-0.051
Mof_H 	H 	0.47447	0.51123	0.15333	0.068
Mof_Fe	Fe	0.98543	0.69917	0.80767	0.812
Mof_O 	O 	0.03653	0.69647	0.01577	-0.454
Mof_O 	O 	0.11273	0.74577	0.27467	-0.316
Mof_O 	O 	0.06033	0.75047	0.67397	-0.429
Mof_C 	C 	0.08683	0.73767	0.08117	0.309
Mof_C 	C 	0.12423	0.79117	0.96717	-0.154
Mof_C 	C 	0.10743	0.78677	0.76377	0.214
Mof_C 	C 	0.15103	0.83807	0.65057	-0.051
Mof_H 	H 	0.14113	0.84457	0.48667	0.069
Mof_Fe	Fe	0.9675	0.6196	0.141	0.812
Mof_O 	O 	0.9702	0.6734	0.3491	-0.454
Mof_O 	O 	0.9209	0.7003	0.608	-0.316
Mof_O 	O 	0.9162	0.6432	0.0073	-0.429
Mof_C 	C 	0.929	0.6825	0.4145	0.308
Mof_C 	C 	0.8755	0.6664	0.3005	-0.153
Mof_C 	C 	0.8799	0.654	0.0971	0.214
Mof_C 	C 	0.8286	0.6463	0.9839	-0.051
Mof_H 	H 	0.8221	0.6299	0.82	0.068
Mof_Fe	Fe	0.63417	0.95293	0.47433	0.812
Mof_O 	O 	0.63687	0.00673	0.68243	-0.454
Mof_O 	O 	0.58757	0.03363	0.94133	-0.316
Mof_O 	O 	0.58287	0.97653	0.34063	-0.429
Mof_C 	C 	0.59567	0.01583	0.74783	0.309
Mof_C 	C 	0.54217	0.99973	0.63383	-0.153
Mof_C 	C 	0.54657	0.98733	0.43043	0.214
Mof_C 	C 	0.49527	0.97963	0.31723	-0.051
Mof_H 	H 	0.48877	0.96323	0.15333	0.068
Mof_Fe	Fe	0.30083	0.28627	0.80767	0.812
Mof_O 	O 	0.30353	0.34007	0.01577	-0.454
Mof_O 	O 	0.25423	0.36697	0.27467	-0.316
Mof_O 	O 	0.24953	0.30987	0.67397	-0.429
Mof_C 	C 	0.26233	0.34917	0.08117	0.309
Mof_C 	C 	0.20883	0.33307	0.96717	-0.153
Mof_C 	C 	0.21323	0.32067	0.76377	0.214
Mof_C 	C 	0.16193	0.31297	0.65057	-0.051
Mof_H 	H 	0.15543	0.29657	0.48667	0.068
Mof_Fe	Fe	0.6196	0.6521	0.859	0.812
Mof_O 	O 	0.6734	0.7032	0.6509	-0.454
Mof_O 	O 	0.7003	0.7794	0.392	-0.316
Mof_O 	O 	0.6432	0.727	0.9927	-0.429
Mof_C 	C 	0.6825	0.7535	0.5855	0.308
Mof_C 	C 	0.6664	0.7909	0.6995	-0.153
Mof_C 	C 	0.654	0.7741	0.9029	0.214
Mof_C 	C 	0.6463	0.8177	0.0161	-0.051
Mof_H 	H 	0.6299	0.8078	0.18	0.068
Mof_Fe	Fe	0.28627	0.98543	0.19233	0.813
Mof_O 	O 	0.34007	0.03653	0.98423	-0.454
Mof_O 	O 	0.36697	0.11273	0.72533	-0.316
Mof_O 	O 	0.30987	0.06033	0.32603	-0.429
Mof_C 	C 	0.34917	0.08683	0.91883	0.309
Mof_C 	C 	0.33307	0.12423	0.03283	-0.153
Mof_C 	C 	0.32067	0.10743	0.23623	0.214
Mof_C 	C 	0.31297	0.15103	0.34943	-0.051
Mof_H 	H 	0.29657	0.14113	0.51333	0.069
Mof_Fe	Fe	0.95293	0.31877	0.52567	0.812
Mof_O 	O 	0.00673	0.36987	0.31757	-0.454
Mof_O 	O 	0.03363	0.44607	0.05867	-0.316
Mof_O 	O 	0.97653	0.39367	0.65937	-0.429
Mof_C 	C 	0.01583	0.42017	0.25217	0.308
Mof_C 	C 	0.99973	0.45757	0.36617	-0.153
Mof_C 	C 	0.98733	0.44077	0.56957	0.214
Mof_C 	C 	0.97963	0.48437	0.68277	-0.051
Mof_H 	H 	0.96323	0.47447	0.84667	0.068
Mof_Fe	Fe	0.3479	0.9675	0.859	0.812
Mof_O 	O 	0.2968	0.9702	0.6509	-0.454
Mof_O 	O 	0.2206	0.9209	0.392	-0.316
Mof_O 	O 	0.273	0.9162	0.9927	-0.429
Mof_C 	C 	0.2465	0.929	0.5855	0.308
Mof_C 	C 	0.2091	0.8755	0.6995	-0.153
Mof_C 	C 	0.2259	0.8799	0.9029	0.214
Mof_C 	C 	0.1823	0.8286	0.0161	-0.05
Mof_H 	H 	0.1922	0.8221	0.18	0.068
Mof_Fe	Fe	0.01457	0.30083	0.19233	0.812
Mof_O 	O 	0.96347	0.30353	0.98423	-0.454
Mof_O 	O 	0.88727	0.25423	0.72533	-0.316
Mof_O 	O 	0.93967	0.24953	0.32603	-0.429
Mof_C 	C 	0.91317	0.26233	0.91883	0.309
Mof_C 	C 	0.87577	0.20883	0.03283	-0.154
Mof_C 	C 	0.89257	0.21323	0.23623	0.214
Mof_C 	C 	0.84897	0.16193	0.34943	-0.051
Mof_H 	H 	0.85887	0.15543	0.51333	0.069
Mof_Fe	Fe	0.68123	0.63417	0.52567	0.812
Mof_O 	O 	0.63013	0.63687	0.31757	-0.454
Mof_O 	O 	0.55393	0.58757	0.05867	-0.316
Mof_O 	O 	0.60633	0.58287	0.65937	-0.429
Mof_C 	C 	0.57983	0.59567	0.25217	0.308
Mof_C 	C 	0.54243	0.54217	0.36617	-0.153
Mof_C 	C 	0.55923	0.54657	0.56957	0.214
Mof_C 	C 	0.51563	0.49527	0.68277	-0.051
Mof_H 	H 	0.52553	0.48877	0.84667	0.068
Mof_Fe	Fe	0.0325	0.3804	0.859	0.812
Mof_O 	O 	0.0298	0.3266	0.6509	-0.454
Mof_O 	O 	0.0791	0.2997	0.392	-0.316
Mof_O 	O 	0.0838	0.3568	0.9927	-0.429
Mof_C 	C 	0.071	0.3175	0.5855	0.308
Mof_C 	C 	0.1245	0.3336	0.6995	-0.153
Mof_C 	C 	0.1201	0.346	0.9029	0.214
Mof_C 	C 	0.1714	0.3537	0.0161	-0.051
Mof_H 	H 	0.1779	0.3701	0.18	0.068
Mof_Fe	Fe	0.69917	0.71373	0.19233	0.812
Mof_O 	O 	0.69647	0.65993	0.98423	-0.454
Mof_O 	O 	0.74577	0.63303	0.72533	-0.316
Mof_O 	O 	0.75047	0.69013	0.32603	-0.429
Mof_C 	C 	0.73767	0.65083	0.91883	0.309
Mof_C 	C 	0.79117	0.66693	0.03283	-0.153
Mof_C 	C 	0.78677	0.67933	0.23623	0.214
Mof_C 	C 	0.83807	0.68703	0.34943	-0.051
Mof_H 	H 	0.84457	0.70343	0.51333	0.068
Mof_Fe	Fe	0.36583	0.04707	0.52567	0.812
Mof_O 	O 	0.36313	0.99327	0.31757	-0.454
Mof_O 	O 	0.41243	0.96637	0.05867	-0.316
Mof_O 	O 	0.41713	0.02347	0.65937	-0.429
Mof_C 	C 	0.40433	0.98417	0.25217	0.309
Mof_C 	C 	0.45783	0.00027	0.36617	-0.153
Mof_C 	C 	0.45343	0.01267	0.56957	0.214
Mof_C 	C 	0.50473	0.02037	0.68277	-0.051
Mof_H 	H 	0.51123	0.03677	0.84667	0.068
_end
