data_functionalizedCrystal
_audit_creation_method	'EQeq! by Chris Wilmer'
_symmetry_space_group_name_H-M	'P1'
_symmetry_Int_Tables_number	1
_symmetry_cell_setting	triclinic
loop_
_symmetry_equiv_pos_as_xyz
  x,y,z
_cell_length_a	10.335
_cell_length_b	10.335
_cell_length_c	17.015
_cell_angle_alpha	84.8412
_cell_angle_beta	74.6906
_cell_angle_gamma	114.663
loop_
_atom_site_label
_atom_site_type_symbol
_atom_site_fract_x
_atom_site_fract_y
_atom_site_fract_z
_atom_site_charge
Mof_Ag	Ag	0.85369	0.37452	0.30825	0.589
Mof_Ag	Ag	0.81723	0.83806	0.80825	0.595
Mof_H 	H 	0.4548	0.5996	0.508	0.049
Mof_H 	H 	0.4379	0.7943	0.5602	0.06
Mof_H 	H 	0.8906	0.037	0.4574	0.034
Mof_H 	H 	0.907	0.8431	0.4039	0.042
Mof_H 	H 	0.7321	0.3395	0.532	0.071
Mof_H 	H 	0.1246	0.4765	0.5795	0.054
Mof_H 	H 	0.8635	0.0454	0.6039	0.066
Mof_H 	H 	0.0574	0.8574	0.5532	0.077
Mof_H 	H 	0.2909	0.0597	0.4844	0.051
Mof_H 	H 	0.4258	0.8068	0.3486	0.046
Mof_H 	H 	0.191	0.6035	0.4205	0.05
Mof_H 	H 	0.1174	0.4165	0.7159	0.049
Mof_H 	H 	0.3101	0.5821	0.7556	0.043
Mof_H 	H 	0.586	0.4174	0.644	0.061
Mof_H 	H 	0.3911	0.2486	0.6059	0.069
Mof_H 	H 	0.3924	0.0372	0.008	0.058
Mof_H 	H 	0.1455	0.0019	0.0602	0.053
Mof_H 	H 	0.0056	0.652	0.9574	0.054
Mof_H 	H 	0.253	0.6891	0.9039	0.044
Mof_H 	H 	0.6285	0.7359	0.032	0.073
Mof_H 	H 	0.444	0.2959	0.0795	0.059
Mof_H 	H 	0.8507	0.5326	0.1039	0.058
Mof_H 	H 	0.0894	0.3894	0.0532	0.068
Mof_H 	H 	0.9559	0.2247	0.9844	0.032
Mof_H 	H 	0.3446	0.2256	0.8486	0.045
Mof_H 	H 	0.476	0.3885	0.9205	0.037
Mof_H 	H 	0.3676	0.1667	0.2159	0.046
Mof_H 	H 	0.1623	0.9343	0.2556	0.048
Mof_H 	H 	0.4386	0.77	0.144	0.067
Mof_H 	H 	0.6455	0.003	0.1059	0.057
Mof_C 	C 	0.6971	0.5817	0.4202	0.083
Mof_C 	C 	0.6827	0.7031	0.451	-0.007
Mof_C 	C 	0.5425	0.6881	0.4978	-0.041
Mof_C 	C 	0.53249	0.80341	0.5293	-0.042
Mof_C 	C 	0.66346	0.93404	0.5151	-0.005
Mof_C 	C 	0.8029	0.9486	0.4677	-0.045
Mof_C 	C 	0.8127	0.8333	0.4358	-0.04
Mof_C 	C 	0.64843	0.06018	0.54719	0.101
Mof_C 	C 	0.78187	0.17547	0.56246	0.013
Mof_C 	C 	0.80389	0.31861	0.5469	-0.085
Mof_C 	C 	0.93228	0.43132	0.5534	-0.007
Mof_C 	C 	0.03586	0.39987	0.57767	-0.066
Mof_C 	C 	0.00924	0.25483	0.59953	0.024
Mof_C 	C 	0.88164	0.14308	0.59068	-0.106
Mof_C 	C 	0.95017	0.58471	0.53792	0.083
Mof_C 	C 	0.10447	0.71101	0.49452	0.022
Mof_C 	C 	0.1328	0.8475	0.5127	-0.062
Mof_C 	C 	0.2706	0.9681	0.4717	-0.016
Mof_C 	C 	0.37975	0.9509	0.41055	-0.021
Mof_C 	C 	0.3519	0.8162	0.3903	-0.03
Mof_C 	C 	0.212	0.6952	0.4332	-0.066
Mof_C 	C 	0.5282	0.0748	0.3698	0.1
Mof_C 	C 	0.11609	0.21231	0.6266	0.11
Mof_C 	C 	0.23679	0.32034	0.65447	-0.004
Mof_C 	C 	0.21235	0.41796	0.70069	-0.053
Mof_C 	C 	0.3265	0.5167	0.7242	-0.039
Mof_C 	C 	0.4668	0.517	0.7002	-0.017
Mof_C 	C 	0.4918	0.4175	0.6575	-0.04
Mof_C 	C 	0.3759	0.3175	0.6346	-0.048
Mof_C 	C 	0.5901	0.6282	0.7197	0.094
Mof_C 	C 	0.4981	0.8827	0.9202	0.081
Mof_C 	C 	0.3459	0.8663	0.951	-0.004
Mof_C 	C 	0.3141	0.9597	0.9978	-0.063
Mof_C 	C 	0.16729	0.93821	0.0293	-0.023
Mof_C 	C 	0.05086	0.82144	0.0151	0.022
Mof_C 	C 	0.0837	0.7294	0.9677	-0.069
Mof_C 	C 	0.2309	0.7515	0.9358	-0.03
Mof_C 	C 	0.89263	0.80438	0.04719	0.084
Mof_C 	C 	0.76207	0.65567	0.06246	0.012
Mof_C 	C 	0.63449	0.64921	0.0469	-0.085
Mof_C 	C 	0.51528	0.51432	0.0534	0.009
Mof_C 	C 	0.52246	0.38647	0.07767	-0.082
Mof_C 	C 	0.64564	0.39123	0.09953	0.004
Mof_C 	C 	0.76624	0.52768	0.09068	-0.082
Mof_C 	C 	0.37737	0.51191	0.03792	0.114
Mof_C 	C 	0.29447	0.40101	0.99452	-0.022
Mof_C 	C 	0.1398	0.3545	0.0127	-0.038
Mof_C 	C 	0.0602	0.2577	0.9717	-0.006
Mof_C 	C 	0.13855	0.2097	0.91055	-0.035
Mof_C 	C 	0.2935	0.2578	0.8903	-0.035
Mof_C 	C 	0.3716	0.3548	0.9332	-0.05
Mof_C 	C 	0.0554	0.102	0.8698	0.13
Mof_C 	C 	0.66109	0.25731	0.1266	0.118
Mof_C 	C 	0.52519	0.10874	0.15447	-0.019
Mof_C 	C 	0.38135	0.08696	0.20069	-0.051
Mof_C 	C 	0.2591	0.9493	0.2242	-0.038
Mof_C 	C 	0.2828	0.833	0.2002	-0.009
Mof_C 	C 	0.425	0.8507	0.1575	-0.052
Mof_C 	C 	0.5479	0.9895	0.1346	-0.024
Mof_C 	C 	0.1521	0.6902	0.2197	0.097
Mof_N 	N 	0.7151	0.4892	0.3963	-0.175
Mof_N 	N 	0.64457	0.1701	0.33993	-0.201
Mof_N 	N 	0.6838	0.7173	0.7345	-0.206
Mof_N 	N 	0.6145	0.8886	0.8963	-0.176
Mof_N 	N 	0.98997	0.0155	0.83993	-0.223
Mof_N 	N 	0.0482	0.5817	0.2345	-0.195
Mof_O 	O 	0.53354	0.07258	0.55656	-0.207
Mof_O 	O 	0.83932	0.60548	0.5594	-0.206
Mof_O 	O 	0.10743	0.09186	0.62511	-0.22
Mof_O 	O 	0.87086	0.9099	0.05656	-0.204
Mof_O 	O 	0.33512	0.60128	0.0594	-0.205
Mof_O 	O 	0.78303	0.26746	0.12511	-0.231
_end
