data_functionalizedCrystal
_audit_creation_method	'EQeq! by Chris Wilmer'
_symmetry_space_group_name_H-M	'P1'
_symmetry_Int_Tables_number	1
_symmetry_cell_setting	triclinic
loop_
_symmetry_equiv_pos_as_xyz
  x,y,z
_cell_length_a	19.3307
_cell_length_b	19.3307
_cell_length_c	19.481
_cell_angle_alpha	119.745
_cell_angle_beta	119.745
_cell_angle_gamma	90.0001
loop_
_atom_site_label
_atom_site_type_symbol
_atom_site_fract_x
_atom_site_fract_y
_atom_site_fract_z
_atom_site_charge
Mof_Fe	Fe	0.72045	0.72045	0.4409	0.729
Mof_Fe	Fe	0.27955	0.27955	0.5591	0.729
Mof_Fe	Fe	0.52955	0.02955	0.0591	0.707
Mof_Fe	Fe	0.97045	0.47045	0.9409	0.706
Mof_Fe	Fe	0.92024	0.875	0.25	0.698
Mof_Fe	Fe	0.32976	0.375	0.25	0.707
Mof_Fe	Fe	0.125	0.67024	0.75	0.709
Mof_Fe	Fe	0.625	0.07976	0.75	0.696
Mof_H 	H 	0.839	0.8827	0.995	0.092
Mof_H 	H 	0.725	0.7766	0.8416	0.014
Mof_H 	H 	0.6295	0.6796	0.8184	0.052
Mof_H 	H 	0.6536	0.6864	0.9502	0.038
Mof_H 	H 	0.6596	0.7594	0.0828	0.047
Mof_H 	H 	0.5948	0.7401	0.1532	0.081
Mof_H 	H 	0.6024	0.718	0.2632	0.004
Mof_H 	H 	0.8403	0.7364	0.377	0.001
Mof_H 	H 	0.8423	0.7585	0.2726	0.09
Mof_H 	H 	0.8395	0.515	0.4296	0.096
Mof_H 	H 	0.8317	0.4456	0.4948	0.012
Mof_H 	H 	0.7857	0.4986	0.599	0.056
Mof_H 	H 	0.7307	0.6075	0.6144	0.038
Mof_H 	H 	0.6544	0.6809	0.5848	0.047
Mof_H 	H 	0.5427	0.759	0.5692	0.084
Mof_H 	H 	0.5238	0.8892	0.621	0.008
Mof_H 	H 	0.7471	0.9947	0.7032	0.013
Mof_H 	H 	0.7741	0.8688	0.6546	0.08
Mof_H 	H 	0.156	0.1123	0.995	0.09
Mof_H 	H 	0.1166	0.065	0.8416	0.014
Mof_H 	H 	0.1889	0.1388	0.8184	0.051
Mof_H 	H 	0.2966	0.2638	0.9502	0.037
Mof_H 	H 	0.4232	0.3234	0.0828	0.045
Mof_H 	H 	0.5584	0.4131	0.1532	0.08
Mof_H 	H 	0.6608	0.5452	0.2632	0.003
Mof_H 	H 	0.5367	0.6406	0.377	0.004
Mof_H 	H 	0.4303	0.5141	0.2726	0.091
Mof_H 	H 	0.5901	0.9146	0.4296	0.098
Mof_H 	H 	0.6631	0.0492	0.4948	0.011
Mof_H 	H 	0.8133	0.1004	0.599	0.073
Mof_H 	H 	0.8837	0.0069	0.6144	-0.004
Mof_H 	H 	0.9304	0.9039	0.5848	0.043
Mof_H 	H 	0.0265	0.8102	0.5692	0.074
Mof_H 	H 	0.0972	0.7318	0.621	0.01
Mof_H 	H 	0.9561	0.7085	0.7032	0.013
Mof_H 	H 	0.8805	0.7858	0.6546	0.069
Mof_H 	H 	0.1173	0.844	0.005	0.096
Mof_H 	H 	0.2234	0.8834	0.1584	0.019
Mof_H 	H 	0.3204	0.8111	0.1816	0.053
Mof_H 	H 	0.3136	0.7034	0.0498	0.038
Mof_H 	H 	0.2406	0.5768	0.9172	0.046
Mof_H 	H 	0.2599	0.4416	0.8468	0.081
Mof_H 	H 	0.282	0.3392	0.7368	0.004
Mof_H 	H 	0.2636	0.4633	0.623	0.004
Mof_H 	H 	0.2415	0.5697	0.7274	0.09
Mof_H 	H 	0.485	0.4099	0.5704	0.097
Mof_H 	H 	0.5544	0.3369	0.5052	0.014
Mof_H 	H 	0.5014	0.1867	0.401	0.056
Mof_H 	H 	0.3925	0.1163	0.3856	0.036
Mof_H 	H 	0.3191	0.0696	0.4152	0.037
Mof_H 	H 	0.241	0.9735	0.4308	0.073
Mof_H 	H 	0.1108	0.9028	0.379	0.015
Mof_H 	H 	0.0053	0.0439	0.2968	0.02
Mof_H 	H 	0.1312	0.1195	0.3454	0.069
Mof_H 	H 	0.8877	0.161	0.005	0.085
Mof_H 	H 	0.935	0.275	0.1584	0.009
Mof_H 	H 	0.8612	0.3705	0.1816	0.05
Mof_H 	H 	0.7362	0.3464	0.0498	0.037
Mof_H 	H 	0.6766	0.3404	0.9172	0.046
Mof_H 	H 	0.5869	0.4052	0.8468	0.08
Mof_H 	H 	0.4548	0.3976	0.7368	0.004
Mof_H 	H 	0.3594	0.1597	0.623	0.001
Mof_H 	H 	0.4859	0.1577	0.7274	0.09
Mof_H 	H 	0.0854	0.1605	0.5704	0.096
Mof_H 	H 	0.9508	0.1683	0.5052	0.008
Mof_H 	H 	0.8996	0.2143	0.401	0.073
Mof_H 	H 	0.9931	0.2693	0.3856	-0.001
Mof_H 	H 	0.0961	0.3456	0.4152	0.053
Mof_H 	H 	0.1898	0.4573	0.4308	0.085
Mof_H 	H 	0.2682	0.4762	0.379	0.004
Mof_H 	H 	0.2915	0.2529	0.2968	0.006
Mof_H 	H 	0.2142	0.2259	0.3454	0.08
Mof_H 	H 	0.094	0.8673	0.505	0.078
Mof_H 	H 	0.1334	0.9734	0.6584	0.029
Mof_H 	H 	0.0611	0.0704	0.6816	0.038
Mof_H 	H 	0.9534	0.0636	0.5498	0.057
Mof_H 	H 	0.8268	0.9906	0.4172	0.052
Mof_H 	H 	0.6916	0.0099	0.3468	0.082
Mof_H 	H 	0.5892	0.032	0.2368	-0.002
Mof_H 	H 	0.7133	0.0136	0.123	0.006
Mof_H 	H 	0.8197	0.9915	0.2274	0.085
Mof_H 	H 	0.6599	0.235	0.0704	0.097
Mof_H 	H 	0.5869	0.3044	0.0052	0.013
Mof_H 	H 	0.4367	0.2514	0.901	0.057
Mof_H 	H 	0.3663	0.1425	0.8856	0.037
Mof_H 	H 	0.3196	0.0691	0.9152	0.054
Mof_H 	H 	0.2235	0.991	0.9308	0.097
Mof_H 	H 	0.1528	0.8608	0.879	0.004
Mof_H 	H 	0.2939	0.7553	0.7968	0.004
Mof_H 	H 	0.3695	0.8812	0.8454	0.088
Mof_H 	H 	0.411	0.6377	0.505	0.092
Mof_H 	H 	0.525	0.685	0.6584	0.015
Mof_H 	H 	0.6205	0.6112	0.6816	0.052
Mof_H 	H 	0.5964	0.4862	0.5498	0.037
Mof_H 	H 	0.5904	0.4266	0.4172	0.046
Mof_H 	H 	0.6552	0.3369	0.3468	0.08
Mof_H 	H 	0.6476	0.2048	0.2368	0.003
Mof_H 	H 	0.4097	0.1094	0.123	-0
Mof_H 	H 	0.4077	0.2359	0.2274	0.09
Mof_H 	H 	0.4105	0.8354	0.0704	0.098
Mof_H 	H 	0.4183	0.7008	0.0052	0.016
Mof_H 	H 	0.4643	0.6496	0.901	0.056
Mof_H 	H 	0.5193	0.7431	0.8856	0.04
Mof_H 	H 	0.5956	0.8461	0.9152	0.042
Mof_H 	H 	0.7073	0.9398	0.9308	0.07
Mof_H 	H 	0.7262	0.0182	0.879	0.011
Mof_H 	H 	0.5029	0.0415	0.7968	0.018
Mof_H 	H 	0.4759	0.9642	0.8454	0.068
Mof_H 	H 	0.3623	0.906	0.495	0.074
Mof_H 	H 	0.315	0.8666	0.3416	0.035
Mof_H 	H 	0.3888	0.9389	0.3184	0.031
Mof_H 	H 	0.5138	0.0466	0.4502	0.057
Mof_H 	H 	0.5734	0.1732	0.5828	0.044
Mof_H 	H 	0.6631	0.3084	0.6532	0.079
Mof_H 	H 	0.7952	0.4108	0.7632	0.004
Mof_H 	H 	0.8906	0.2867	0.877	-0
Mof_H 	H 	0.7641	0.1803	0.7726	0.089
Mof_H 	H 	0.1646	0.3401	0.9296	0.097
Mof_H 	H 	0.2992	0.4131	0.9948	0.017
Mof_H 	H 	0.3504	0.5633	0.099	0.056
Mof_H 	H 	0.2569	0.6337	0.1144	0.04
Mof_H 	H 	0.1539	0.6804	0.0848	0.042
Mof_H 	H 	0.0602	0.7765	0.0692	0.072
Mof_H 	H 	0.9818	0.8472	0.121	0.015
Mof_H 	H 	0.9585	0.7061	0.2032	0.017
Mof_H 	H 	0.0358	0.6305	0.1546	0.068
Mof_H 	H 	0.1327	0.589	0.495	0.096
Mof_H 	H 	0.0266	0.475	0.3416	0.01
Mof_H 	H 	0.9296	0.3795	0.3184	0.058
Mof_H 	H 	0.9364	0.4036	0.4502	0.038
Mof_H 	H 	0.0094	0.4096	0.5828	0.053
Mof_H 	H 	0.9901	0.3448	0.6532	0.082
Mof_H 	H 	0.968	0.3524	0.7632	-0.002
Mof_H 	H 	0.9864	0.5903	0.877	0.007
Mof_H 	H 	0.0085	0.5923	0.7726	0.087
Mof_H 	H 	0.765	0.5895	0.9296	0.098
Mof_H 	H 	0.6956	0.5817	0.9948	0.012
Mof_H 	H 	0.7486	0.5357	0.099	0.058
Mof_H 	H 	0.8575	0.4807	0.1144	0.036
Mof_H 	H 	0.9309	0.4044	0.0848	0.054
Mof_H 	H 	0.009	0.2927	0.0692	0.095
Mof_H 	H 	0.1392	0.2738	0.121	0.001
Mof_H 	H 	0.2447	0.4971	0.2032	0.004
Mof_H 	H 	0.1188	0.5241	0.1546	0.088
Mof_C 	C 	0.8156	0.8501	0.0688	0.175
Mof_C 	C 	0.8014	0.8434	0.9872	-0.166
Mof_C 	C 	0.7332	0.7801	0.8956	0.034
Mof_C 	C 	0.6769	0.722	0.8814	-0.086
Mof_C 	C 	0.6909	0.7272	0.9596	-0.027
Mof_C 	C 	0.7572	0.7893	0.052	-0.017
Mof_C 	C 	0.71412	0.76912	0.13324	-0.031
Mof_C 	C 	0.7199	0.7552	0.2028	0.091
Mof_C 	C 	0.6464	0.7402	0.199	-0.151
Mof_C 	C 	0.6514	0.7257	0.264	0.091
Mof_C 	C 	0.7898	0.7364	0.3302	0.096
Mof_C 	C 	0.7919	0.7511	0.2694	-0.155
Mof_C 	C 	0.7847	0.6013	0.4762	0.183
Mof_C 	C 	0.816	0.5336	0.466	-0.169
Mof_C 	C 	0.8134	0.4935	0.5066	0.037
Mof_C 	C 	0.7836	0.5232	0.5664	-0.088
Mof_C 	C 	0.7519	0.588	0.5758	-0.022
Mof_C 	C 	0.7498	0.6266	0.5308	-0.023
Mof_C 	C 	0.67738	0.71858	0.57796	-0.037
Mof_C 	C 	0.66217	0.79907	0.60694	0.094
Mof_C 	C 	0.5862	0.8067	0.597	-0.154
Mof_C 	C 	0.5757	0.885	0.6284	0.099
Mof_C 	C 	0.7051	0.9459	0.6758	0.092
Mof_C 	C 	0.7218	0.871	0.647	-0.146
Mof_C 	C 	0.2532	0.2187	0.0688	0.171
Mof_C 	C 	0.1858	0.1438	0.9872	-0.163
Mof_C 	C 	0.1624	0.1155	0.8956	0.032
Mof_C 	C 	0.2045	0.1594	0.8814	-0.086
Mof_C 	C 	0.2687	0.2324	0.9596	-0.025
Mof_C 	C 	0.2948	0.2627	0.052	-0.02
Mof_C 	C 	0.41912	0.36412	0.13324	-0.031
Mof_C 	C 	0.4829	0.4476	0.2028	0.09
Mof_C 	C 	0.5526	0.4588	0.199	-0.152
Mof_C 	C 	0.6126	0.5383	0.264	0.09
Mof_C 	C 	0.5404	0.5938	0.3302	0.095
Mof_C 	C 	0.4775	0.5183	0.2694	-0.154
Mof_C 	C 	0.6915	0.8749	0.4762	0.191
Mof_C 	C 	0.65	0.9324	0.466	-0.156
Mof_C 	C 	0.6932	0.0131	0.5066	0.037
Mof_C 	C 	0.7828	0.0432	0.5664	-0.143
Mof_C 	C 	0.8239	0.9878	0.5758	0.059
Mof_C 	C 	0.781	0.9042	0.5308	-0.047
Mof_C 	C 	0.90058	0.85938	0.57796	-0.023
Mof_C 	C 	0.94477	0.80787	0.60694	0.054
Mof_C 	C 	0.0108	0.7903	0.597	-0.11
Mof_C 	C 	0.0527	0.7434	0.6284	0.081
Mof_C 	C 	0.9707	0.7299	0.6758	0.055
Mof_C 	C 	0.9252	0.776	0.647	-0.119
Mof_C 	C 	0.1499	0.7468	0.9312	0.174
Mof_C 	C 	0.1566	0.8142	0.0128	-0.163
Mof_C 	C 	0.2199	0.8376	0.1044	0.034
Mof_C 	C 	0.278	0.7955	0.1186	-0.084
Mof_C 	C 	0.2728	0.7313	0.0404	-0.026
Mof_C 	C 	0.2107	0.7052	0.948	-0.018
Mof_C 	C 	0.23088	0.58088	0.86676	-0.031
Mof_C 	C 	0.2448	0.5171	0.7972	0.09
Mof_C 	C 	0.2598	0.4474	0.801	-0.151
Mof_C 	C 	0.2743	0.3874	0.736	0.091
Mof_C 	C 	0.2636	0.4596	0.6698	0.095
Mof_C 	C 	0.2489	0.5225	0.7306	-0.154
Mof_C 	C 	0.3987	0.3085	0.5238	0.183
Mof_C 	C 	0.4664	0.35	0.534	-0.168
Mof_C 	C 	0.5065	0.3068	0.4934	0.039
Mof_C 	C 	0.4768	0.2172	0.4336	-0.087
Mof_C 	C 	0.412	0.1761	0.4242	-0.022
Mof_C 	C 	0.3734	0.219	0.4692	-0.023
Mof_C 	C 	0.28142	0.09942	0.42204	-0.021
Mof_C 	C 	0.20093	0.05523	0.39306	0.051
Mof_C 	C 	0.1933	0.9892	0.403	-0.107
Mof_C 	C 	0.115	0.9473	0.3716	0.081
Mof_C 	C 	0.0541	0.0293	0.3242	0.055
Mof_C 	C 	0.129	0.0748	0.353	-0.116
Mof_C 	C 	0.7813	0.1844	0.9312	0.173
Mof_C 	C 	0.8562	0.1986	0.0128	-0.166
Mof_C 	C 	0.8845	0.2668	0.1044	0.031
Mof_C 	C 	0.8406	0.3231	0.1186	-0.087
Mof_C 	C 	0.7676	0.3091	0.0404	-0.026
Mof_C 	C 	0.7373	0.2428	0.948	-0.019
Mof_C 	C 	0.63588	0.28588	0.86676	-0.031
Mof_C 	C 	0.5524	0.2801	0.7972	0.09
Mof_C 	C 	0.5412	0.3536	0.801	-0.152
Mof_C 	C 	0.4617	0.3486	0.736	0.09
Mof_C 	C 	0.4062	0.2102	0.6698	0.095
Mof_C 	C 	0.4817	0.2081	0.7306	-0.155
Mof_C 	C 	0.1251	0.2153	0.5238	0.191
Mof_C 	C 	0.0676	0.184	0.534	-0.157
Mof_C 	C 	0.9869	0.1866	0.4934	0.036
Mof_C 	C 	0.9568	0.2164	0.4336	-0.144
Mof_C 	C 	0.0122	0.2481	0.4242	0.058
Mof_C 	C 	0.0958	0.2502	0.4692	-0.047
Mof_C 	C 	0.14062	0.32262	0.42204	-0.04
Mof_C 	C 	0.19213	0.33783	0.39306	0.097
Mof_C 	C 	0.2097	0.4138	0.403	-0.155
Mof_C 	C 	0.2566	0.4243	0.3716	0.099
Mof_C 	C 	0.2701	0.2949	0.3242	0.092
Mof_C 	C 	0.224	0.2782	0.353	-0.148
Mof_C 	C 	0.9968	0.8999	0.4312	0.127
Mof_C 	C 	0.0642	0.9066	0.5128	-0.111
Mof_C 	C 	0.0876	0.9699	0.6044	0.01
Mof_C 	C 	0.0455	0.028	0.6186	-0.036
Mof_C 	C 	0.9813	0.0228	0.5404	-0.11
Mof_C 	C 	0.9552	0.9607	0.448	0.03
Mof_C 	C 	0.83088	0.98088	0.36676	-0.031
Mof_C 	C 	0.7671	0.9948	0.2972	0.106
Mof_C 	C 	0.6974	0.0098	0.301	-0.178
Mof_C 	C 	0.6374	0.0243	0.236	0.094
Mof_C 	C 	0.7096	0.0136	0.1698	0.064
Mof_C 	C 	0.7725	0.9989	0.2306	-0.127
Mof_C 	C 	0.5585	0.1487	0.0238	0.182
Mof_C 	C 	0.6	0.2164	0.034	-0.169
Mof_C 	C 	0.5568	0.2565	0.9934	0.041
Mof_C 	C 	0.4672	0.2268	0.9336	-0.088
Mof_C 	C 	0.4261	0.162	0.9242	-0.021
Mof_C 	C 	0.469	0.1234	0.9692	-0.025
Mof_C 	C 	0.34942	0.03142	0.92204	-0.068
Mof_C 	C 	0.30523	0.95093	0.89306	0.127
Mof_C 	C 	0.2392	0.9433	0.903	-0.17
Mof_C 	C 	0.1973	0.865	0.8716	0.108
Mof_C 	C 	0.2793	0.8041	0.8242	0.1
Mof_C 	C 	0.3248	0.879	0.853	-0.164
Mof_C 	C 	0.4344	0.5313	0.4312	0.173
Mof_C 	C 	0.4486	0.6062	0.5128	-0.164
Mof_C 	C 	0.5168	0.6345	0.6044	0.034
Mof_C 	C 	0.5731	0.5906	0.6186	-0.086
Mof_C 	C 	0.5591	0.5176	0.5404	-0.026
Mof_C 	C 	0.4928	0.4873	0.448	-0.019
Mof_C 	C 	0.53588	0.38588	0.36676	-0.031
Mof_C 	C 	0.5301	0.3024	0.2972	0.09
Mof_C 	C 	0.6036	0.2912	0.301	-0.152
Mof_C 	C 	0.5986	0.2117	0.236	0.09
Mof_C 	C 	0.4602	0.1562	0.1698	0.095
Mof_C 	C 	0.4581	0.2317	0.2306	-0.155
Mof_C 	C 	0.4653	0.8751	0.0238	0.182
Mof_C 	C 	0.434	0.8176	0.034	-0.163
Mof_C 	C 	0.4366	0.7369	0.9934	0.035
Mof_C 	C 	0.4664	0.7068	0.9336	-0.084
Mof_C 	C 	0.4981	0.7622	0.9242	-0.024
Mof_C 	C 	0.5002	0.8458	0.9692	-0.019
Mof_C 	C 	0.57262	0.89062	0.92204	-0.02
Mof_C 	C 	0.58783	0.94213	0.89306	0.065
Mof_C 	C 	0.6638	0.9597	0.903	-0.105
Mof_C 	C 	0.6743	0.0066	0.8716	0.054
Mof_C 	C 	0.5449	0.0201	0.8242	0.048
Mof_C 	C 	0.5282	0.974	0.853	-0.095
Mof_C 	C 	0.4687	0.0032	0.5688	0.124
Mof_C 	C 	0.3938	0.9358	0.4872	-0.1
Mof_C 	C 	0.3655	0.9124	0.3956	-0.023
Mof_C 	C 	0.4094	0.9545	0.3814	-0.007
Mof_C 	C 	0.4824	0.0187	0.4596	-0.097
Mof_C 	C 	0.5127	0.0448	0.552	0.014
Mof_C 	C 	0.61412	0.16912	0.63324	-0.03
Mof_C 	C 	0.6976	0.2329	0.7028	0.089
Mof_C 	C 	0.7088	0.3026	0.699	-0.151
Mof_C 	C 	0.7883	0.3626	0.764	0.09
Mof_C 	C 	0.8438	0.2904	0.8302	0.094
Mof_C 	C 	0.7683	0.2275	0.7694	-0.154
Mof_C 	C 	0.1249	0.4415	0.9762	0.182
Mof_C 	C 	0.1824	0.4	0.966	-0.162
Mof_C 	C 	0.2631	0.4432	0.0066	0.033
Mof_C 	C 	0.2932	0.5328	0.0664	-0.082
Mof_C 	C 	0.2378	0.5739	0.0758	-0.025
Mof_C 	C 	0.1542	0.531	0.0308	-0.018
Mof_C 	C 	0.10938	0.65058	0.07796	-0.02
Mof_C 	C 	0.05787	0.69477	0.10694	0.065
Mof_C 	C 	0.0403	0.7608	0.097	-0.104
Mof_C 	C 	0.9934	0.8027	0.1284	0.055
Mof_C 	C 	0.9799	0.7207	0.1758	0.048
Mof_C 	C 	0.026	0.6752	0.147	-0.096
Mof_C 	C 	0.1001	0.5656	0.5688	0.174
Mof_C 	C 	0.0934	0.5514	0.4872	-0.174
Mof_C 	C 	0.0301	0.4832	0.3956	0.065
Mof_C 	C 	0.972	0.4269	0.3814	-0.112
Mof_C 	C 	0.9772	0.4409	0.4596	-0.042
Mof_C 	C 	0.0393	0.5072	0.552	-0.001
Mof_C 	C 	0.01912	0.46412	0.63324	-0.032
Mof_C 	C 	0.0052	0.4699	0.7028	0.107
Mof_C 	C 	0.9902	0.3964	0.699	-0.178
Mof_C 	C 	0.9757	0.4014	0.764	0.094
Mof_C 	C 	0.9864	0.5398	0.8302	0.065
Mof_C 	C 	0.0011	0.5419	0.7694	-0.128
Mof_C 	C 	0.8513	0.5347	0.9762	0.183
Mof_C 	C 	0.7836	0.566	0.966	-0.17
Mof_C 	C 	0.7435	0.5634	0.0066	0.043
Mof_C 	C 	0.7732	0.5336	0.0664	-0.089
Mof_C 	C 	0.838	0.5019	0.0758	-0.02
Mof_C 	C 	0.8766	0.4998	0.0308	-0.025
Mof_C 	C 	0.96858	0.42738	0.07796	-0.068
Mof_C 	C 	0.04907	0.41217	0.10694	0.126
Mof_C 	C 	0.0567	0.3362	0.097	-0.171
Mof_C 	C 	0.135	0.3257	0.1284	0.108
Mof_C 	C 	0.1959	0.4551	0.1758	0.1
Mof_C 	C 	0.121	0.4718	0.147	-0.164
Mof_N 	N 	0.77739	0.79359	0.13498	-0.138
Mof_N 	N 	0.72016	0.72186	0.32732	-0.184
Mof_N 	N 	0.72198	0.69748	0.54276	-0.146
Mof_N 	N 	0.63284	0.95414	0.66768	-0.178
Mof_N 	N 	0.35759	0.34139	0.13498	-0.138
Mof_N 	N 	0.60716	0.60546	0.32732	-0.184
Mof_N 	N 	0.82078	0.84528	0.54276	-0.144
Mof_N 	N 	0.03484	0.71354	0.66768	-0.168
Mof_N 	N 	0.20641	0.64241	0.86502	-0.139
Mof_N 	N 	0.27814	0.39284	0.67268	-0.184
Mof_N 	N 	0.30252	0.17922	0.45724	-0.15
Mof_N 	N 	0.04586	0.96516	0.33232	-0.16
Mof_N 	N 	0.65861	0.22261	0.86502	-0.138
Mof_N 	N 	0.39454	0.27984	0.67268	-0.184
Mof_N 	N 	0.15472	0.27802	0.45724	-0.141
Mof_N 	N 	0.28646	0.36716	0.33232	-0.185
Mof_N 	N 	0.89241	0.95641	0.36502	-0.144
Mof_N 	N 	0.64284	0.02814	0.17268	-0.183
Mof_N 	N 	0.42922	0.05252	0.95724	-0.143
Mof_N 	N 	0.21516	0.79586	0.83232	-0.188
Mof_N 	N 	0.47261	0.40861	0.36502	-0.138
Mof_N 	N 	0.52984	0.14454	0.17268	-0.184
Mof_N 	N 	0.52802	0.90472	0.95724	-0.145
Mof_N 	N 	0.61716	0.03646	0.83232	-0.172
Mof_N 	N 	0.59139	0.10759	0.63498	-0.145
Mof_N 	N 	0.85546	0.35716	0.82732	-0.184
Mof_N 	N 	0.09528	0.57078	0.04276	-0.145
Mof_N 	N 	0.96354	0.78484	0.16768	-0.172
Mof_N 	N 	0.04359	0.52739	0.63498	-0.138
Mof_N 	N 	0.97186	0.47016	0.82732	-0.183
Mof_N 	N 	0.94748	0.47198	0.04276	-0.143
Mof_N 	N 	0.20414	0.38284	0.16768	-0.188
Mof_O 	O 	0.87914	0.90984	0.15716	-0.313
Mof_O 	O 	0.78777	0.64062	0.43864	-0.314
Mof_O 	O 	0.27802	0.24732	0.15716	-0.314
Mof_O 	O 	0.65087	0.79802	0.43864	-0.314
Mof_O 	O 	0.09016	0.72198	0.84284	-0.309
Mof_O 	O 	0.35938	0.34913	0.56136	-0.313
Mof_O 	O 	0.75268	0.12086	0.84284	-0.318
Mof_O 	O 	0.20198	0.21223	0.56136	-0.315
Mof_O 	O 	0.97198	0.84016	0.34284	-0.308
Mof_O 	O 	0.59913	0.10938	0.06136	-0.314
Mof_O 	O 	0.37086	0.50268	0.34284	-0.314
Mof_O 	O 	0.46223	0.95198	0.06136	-0.299
Mof_O 	O 	0.49732	0.02802	0.65716	-0.307
Mof_O 	O 	0.04802	0.40087	0.93864	-0.299
Mof_O 	O 	0.15984	0.62914	0.65716	-0.314
Mof_O 	O 	0.89062	0.53777	0.93864	-0.314
_end
