data_functionalizedCrystal
_audit_creation_method	'EQeq! by Chris Wilmer'
_symmetry_space_group_name_H-M	'P1'
_symmetry_Int_Tables_number	1
_symmetry_cell_setting	triclinic
loop_
_symmetry_equiv_pos_as_xyz
  x,y,z
_cell_length_a	24.272
_cell_length_b	24.272
_cell_length_c	4.937
_cell_angle_alpha	90
_cell_angle_beta	90
_cell_angle_gamma	90
loop_
_atom_site_label
_atom_site_type_symbol
_atom_site_fract_x
_atom_site_fract_y
_atom_site_fract_z
_atom_site_charge
Mof_N 	N 	0.9297	0.471	0.5178	-0.199
Mof_C 	C 	0.8553	0.4653	0.8819	-0.069
Mof_C 	C 	0.8356	0.5133	0.976	0.015
Mof_C 	C 	0.7923	0.5134	0.17	-0.11
Mof_C 	C 	0.7718	0.4645	0.2732	0.053
Mof_C 	C 	0.7959	0.4147	0.166	-0.118
Mof_C 	C 	0.8347	0.4157	0.985	0.03
Mof_C 	C 	0.8966	0.4682	0.6767	0.099
Mof_H 	H 	0.8502	0.5465	0.915	0.022
Mof_H 	H 	0.7775	0.5467	0.228	0.062
Mof_H 	H 	0.7831	0.3808	0.228	0.065
Mof_H 	H 	0.8492	0.3825	0.922	0.017
Mof_N 	N 	0.4297	0.971	0.0178	-0.191
Mof_C 	C 	0.3553	0.9653	0.3819	-0.001
Mof_C 	C 	0.3356	0.0133	0.476	-0.067
Mof_C 	C 	0.2923	0.0134	0.67	-0.081
Mof_C 	C 	0.2718	0.9645	0.7732	0.03
Mof_C 	C 	0.2959	0.9147	0.666	-0.058
Mof_C 	C 	0.3347	0.9157	0.485	-0.038
Mof_C 	C 	0.3966	0.9682	0.1767	0.081
Mof_H 	H 	0.3502	0.0465	0.415	0.044
Mof_H 	H 	0.2775	0.0467	0.728	0.05
Mof_H 	H 	0.2831	0.8808	0.728	0.045
Mof_H 	H 	0.3492	0.8825	0.422	0.037
Mof_N 	N 	0.0703	0.529	0.5178	-0.21
Mof_C 	C 	0.1447	0.5347	0.8819	-0.072
Mof_C 	C 	0.1644	0.4867	0.976	0.016
Mof_C 	C 	0.2077	0.4866	0.17	-0.111
Mof_C 	C 	0.2282	0.5355	0.2732	0.054
Mof_C 	C 	0.2041	0.5853	0.166	-0.12
Mof_C 	C 	0.1653	0.5843	0.985	0.031
Mof_C 	C 	0.1034	0.5318	0.6767	0.095
Mof_H 	H 	0.1498	0.4535	0.915	0.021
Mof_H 	H 	0.2225	0.4533	0.228	0.063
Mof_H 	H 	0.2169	0.6192	0.228	0.065
Mof_H 	H 	0.1508	0.6175	0.922	0.014
Mof_N 	N 	0.5703	0.029	0.0178	-0.208
Mof_C 	C 	0.6447	0.0347	0.3819	-0.073
Mof_C 	C 	0.6644	0.9867	0.476	0.007
Mof_C 	C 	0.7077	0.9866	0.67	-0.049
Mof_C 	C 	0.7282	0.0355	0.7732	-0.002
Mof_C 	C 	0.7041	0.0853	0.666	-0.072
Mof_C 	C 	0.6653	0.0843	0.485	-0.008
Mof_C 	C 	0.6034	0.0318	0.1767	0.087
Mof_H 	H 	0.6498	0.9535	0.415	0.027
Mof_H 	H 	0.7225	0.9533	0.728	0.046
Mof_H 	H 	0.7169	0.1192	0.728	0.051
Mof_H 	H 	0.6508	0.1175	0.422	0.027
Mof_N 	N 	0.471	0.0703	0.4822	-0.207
Mof_C 	C 	0.4653	0.1447	0.1181	-0.046
Mof_C 	C 	0.5133	0.1644	0.024	-0.019
Mof_C 	C 	0.5134	0.2077	0.83	-0.077
Mof_C 	C 	0.4645	0.2282	0.7268	0.026
Mof_C 	C 	0.4147	0.2041	0.834	-0.078
Mof_C 	C 	0.4157	0.1653	0.015	-0.011
Mof_C 	C 	0.4682	0.1034	0.3233	0.085
Mof_H 	H 	0.5465	0.1498	0.085	0.031
Mof_H 	H 	0.5467	0.2225	0.772	0.052
Mof_H 	H 	0.3808	0.2169	0.772	0.052
Mof_H 	H 	0.3825	0.1508	0.078	0.027
Mof_N 	N 	0.971	0.5703	0.9822	-0.189
Mof_C 	C 	0.9653	0.6447	0.6181	-0.015
Mof_C 	C 	0.0133	0.6644	0.524	-0.05
Mof_C 	C 	0.0134	0.7077	0.33	-0.104
Mof_C 	C 	0.9645	0.7282	0.2268	0.06
Mof_C 	C 	0.9147	0.7041	0.334	-0.084
Mof_C 	C 	0.9157	0.6653	0.515	-0.018
Mof_C 	C 	0.9682	0.6034	0.8233	0.088
Mof_H 	H 	0.0465	0.6498	0.585	0.038
Mof_H 	H 	0.0467	0.7225	0.272	0.056
Mof_H 	H 	0.8808	0.7169	0.272	0.053
Mof_H 	H 	0.8825	0.6508	0.578	0.031
Mof_N 	N 	0.529	0.9297	0.4822	-0.197
Mof_C 	C 	0.5347	0.8553	0.1181	-0.043
Mof_C 	C 	0.4867	0.8356	0.024	-0.02
Mof_C 	C 	0.4866	0.7923	0.83	-0.075
Mof_C 	C 	0.5355	0.7718	0.7268	0.025
Mof_C 	C 	0.5853	0.7959	0.834	-0.076
Mof_C 	C 	0.5843	0.8347	0.015	-0.013
Mof_C 	C 	0.5318	0.8966	0.3233	0.089
Mof_H 	H 	0.4535	0.8502	0.085	0.032
Mof_H 	H 	0.4533	0.7775	0.772	0.051
Mof_H 	H 	0.6192	0.7831	0.772	0.052
Mof_H 	H 	0.6175	0.8492	0.078	0.029
Mof_N 	N 	0.029	0.4297	0.9822	-0.206
Mof_C 	C 	0.0347	0.3553	0.6181	-0.085
Mof_C 	C 	0.9867	0.3356	0.524	0.023
Mof_C 	C 	0.9866	0.2923	0.33	-0.071
Mof_C 	C 	0.0355	0.2718	0.2268	0.027
Mof_C 	C 	0.0853	0.2959	0.334	-0.097
Mof_C 	C 	0.0843	0.3347	0.515	0.011
Mof_C 	C 	0.0318	0.3966	0.8233	0.094
Mof_H 	H 	0.9535	0.3502	0.585	0.022
Mof_H 	H 	0.9533	0.2775	0.272	0.052
Mof_H 	H 	0.1192	0.2831	0.272	0.057
Mof_H 	H 	0.1175	0.3492	0.578	0.021
Mof_N 	N 	0.5703	0.471	0.2322	-0.205
Mof_C 	C 	0.6447	0.4653	0.8681	-0.028
Mof_C 	C 	0.6644	0.5133	0.774	-0.038
Mof_C 	C 	0.7077	0.5134	0.58	-0.056
Mof_C 	C 	0.7282	0.4645	0.4768	0.005
Mof_C 	C 	0.7041	0.4147	0.584	-0.056
Mof_C 	C 	0.6653	0.4157	0.765	-0.031
Mof_C 	C 	0.6034	0.4682	0.0733	0.077
Mof_H 	H 	0.6498	0.5465	0.835	0.038
Mof_H 	H 	0.7225	0.5467	0.522	0.044
Mof_H 	H 	0.7169	0.3808	0.522	0.044
Mof_H 	H 	0.6508	0.3825	0.828	0.035
Mof_N 	N 	0.0703	0.971	0.7322	-0.189
Mof_C 	C 	0.1447	0.9653	0.3681	-0.014
Mof_C 	C 	0.1644	0.0133	0.274	-0.051
Mof_C 	C 	0.2077	0.0134	0.08	-0.104
Mof_C 	C 	0.2282	0.9645	0.9768	0.058
Mof_C 	C 	0.2041	0.9147	0.084	-0.084
Mof_C 	C 	0.1653	0.9157	0.265	-0.019
Mof_C 	C 	0.1034	0.9682	0.5733	0.084
Mof_H 	H 	0.1498	0.0465	0.335	0.038
Mof_H 	H 	0.2225	0.0467	0.022	0.057
Mof_H 	H 	0.2169	0.8808	0.022	0.052
Mof_H 	H 	0.1508	0.8825	0.328	0.029
Mof_N 	N 	0.4297	0.529	0.2322	-0.205
Mof_C 	C 	0.3553	0.5347	0.8681	-0.028
Mof_C 	C 	0.3356	0.4867	0.774	-0.038
Mof_C 	C 	0.2923	0.4866	0.58	-0.056
Mof_C 	C 	0.2718	0.5355	0.4768	0.004
Mof_C 	C 	0.2959	0.5853	0.584	-0.055
Mof_C 	C 	0.3347	0.5843	0.765	-0.032
Mof_C 	C 	0.3966	0.5318	0.0733	0.076
Mof_H 	H 	0.3502	0.4535	0.835	0.038
Mof_H 	H 	0.2775	0.4533	0.522	0.044
Mof_H 	H 	0.2831	0.6192	0.522	0.044
Mof_H 	H 	0.3492	0.6175	0.828	0.035
Mof_N 	N 	0.9297	0.029	0.7322	-0.196
Mof_C 	C 	0.8553	0.0347	0.3681	-0.084
Mof_C 	C 	0.8356	0.9867	0.274	0.024
Mof_C 	C 	0.7923	0.9866	0.08	-0.073
Mof_C 	C 	0.7718	0.0355	0.9768	0.029
Mof_C 	C 	0.7959	0.0853	0.084	-0.099
Mof_C 	C 	0.8347	0.0843	0.265	0.012
Mof_C 	C 	0.8966	0.0318	0.5733	0.095
Mof_H 	H 	0.8502	0.9535	0.335	0.022
Mof_H 	H 	0.7775	0.9533	0.022	0.053
Mof_H 	H 	0.7831	0.1192	0.022	0.058
Mof_H 	H 	0.8492	0.1175	0.328	0.021
Mof_N 	N 	0.029	0.0703	0.2678	-0.206
Mof_C 	C 	0.0347	0.1447	0.6319	-0.051
Mof_C 	C 	0.9867	0.1644	0.726	-0.016
Mof_C 	C 	0.9866	0.2077	0.92	-0.014
Mof_C 	C 	0.0355	0.2282	0.0232	-0.036
Mof_C 	C 	0.0853	0.2041	0.916	-0.035
Mof_C 	C 	0.0843	0.1653	0.735	-0.036
Mof_C 	C 	0.0318	0.1034	0.4267	0.078
Mof_H 	H 	0.9535	0.1498	0.665	0.036
Mof_H 	H 	0.9533	0.2225	0.978	0.037
Mof_H 	H 	0.1192	0.2169	0.978	0.04
Mof_H 	H 	0.1175	0.1508	0.672	0.036
Mof_N 	N 	0.529	0.5703	0.7678	-0.208
Mof_C 	C 	0.5347	0.6447	0.1319	-0.048
Mof_C 	C 	0.4867	0.6644	0.226	-0.021
Mof_C 	C 	0.4866	0.7077	0.42	-0.074
Mof_C 	C 	0.5355	0.7282	0.5232	0.025
Mof_C 	C 	0.5853	0.7041	0.416	-0.076
Mof_C 	C 	0.5843	0.6653	0.235	-0.013
Mof_C 	C 	0.5318	0.6034	0.9267	0.089
Mof_H 	H 	0.4535	0.6498	0.165	0.031
Mof_H 	H 	0.4533	0.7225	0.478	0.051
Mof_H 	H 	0.6192	0.7169	0.478	0.051
Mof_H 	H 	0.6175	0.6508	0.172	0.027
Mof_N 	N 	0.971	0.9297	0.2678	-0.18
Mof_C 	C 	0.9653	0.8553	0.6319	0.023
Mof_C 	C 	0.0133	0.8356	0.726	-0.091
Mof_C 	C 	0.0134	0.7923	0.92	-0.043
Mof_C 	C 	0.9645	0.7718	0.0232	-0.007
Mof_C 	C 	0.9147	0.7959	0.916	-0.018
Mof_C 	C 	0.9157	0.8347	0.735	-0.067
Mof_C 	C 	0.9682	0.8966	0.4267	0.075
Mof_H 	H 	0.0465	0.8502	0.665	0.054
Mof_H 	H 	0.0467	0.7775	0.978	0.041
Mof_H 	H 	0.8808	0.7831	0.978	0.035
Mof_H 	H 	0.8825	0.8492	0.672	0.049
Mof_N 	N 	0.471	0.4297	0.7678	-0.208
Mof_C 	C 	0.4653	0.3553	0.1319	-0.047
Mof_C 	C 	0.5133	0.3356	0.226	-0.022
Mof_C 	C 	0.5134	0.2923	0.42	-0.073
Mof_C 	C 	0.4645	0.2718	0.5232	0.024
Mof_C 	C 	0.4147	0.2959	0.416	-0.075
Mof_C 	C 	0.4157	0.3347	0.235	-0.013
Mof_C 	C 	0.4682	0.3966	0.9267	0.089
Mof_H 	H 	0.5465	0.3502	0.165	0.031
Mof_H 	H 	0.5467	0.2775	0.478	0.05
Mof_H 	H 	0.3808	0.2831	0.478	0.051
Mof_H 	H 	0.3825	0.3492	0.172	0.027
Mof_Ag	Ag	6.15756e-33	0.5	0.25	0.607
Mof_Ag	Ag	0.5	0	0.75	0.617
Mof_Ag	Ag	0.5	0.5	0.5	0.658
Mof_Ag	Ag	-0	0	-0	0.571
_end
