data_functionalizedCrystal
_audit_creation_method	'EQeq! by Chris Wilmer'
_symmetry_space_group_name_H-M	'P1'
_symmetry_Int_Tables_number	1
_symmetry_cell_setting	triclinic
loop_
_symmetry_equiv_pos_as_xyz
  x,y,z
_cell_length_a	8.261
_cell_length_b	11.6414
_cell_length_c	8.8332
_cell_angle_alpha	90
_cell_angle_beta	90
_cell_angle_gamma	90
loop_
_atom_site_label
_atom_site_type_symbol
_atom_site_fract_x
_atom_site_fract_y
_atom_site_fract_z
_atom_site_charge
Mof_O 	O 	0.2557	0.405	0.36248	-0.389
Mof_O 	O 	0.40781	0.18375	0.41197	-0.395
Mof_O 	O 	0.56754	0.19269	0.61169	-0.379
Mof_C 	C 	0.5248	0.22462	0.483	0.476
Mof_H 	H 	0.5842	0.2828	0.4369	-0.101
Mof_O 	O 	0.2443	0.595	0.36248	-0.387
Mof_O 	O 	0.09219	0.81625	0.41197	-0.368
Mof_O 	O 	0.93246	0.80731	0.61169	-0.357
Mof_C 	C 	0.9752	0.77538	0.483	0.468
Mof_H 	H 	0.9158	0.7172	0.4369	-0.096
Mof_O 	O 	0.2443	0.905	0.13752	-0.315
Mof_O 	O 	0.09219	0.68375	0.08803	-0.375
Mof_O 	O 	0.93246	0.69269	0.88831	-0.36
Mof_C 	C 	0.9752	0.72462	0.017	0.453
Mof_H 	H 	0.9158	0.7828	0.0631	-0.088
Mof_O 	O 	0.2557	0.095	0.13752	-0.369
Mof_O 	O 	0.40781	0.31625	0.08803	-0.388
Mof_O 	O 	0.56754	0.30731	0.88831	-0.374
Mof_C 	C 	0.5248	0.27538	0.017	0.476
Mof_H 	H 	0.5842	0.2172	0.0631	-0.106
Mof_O 	O 	0.7443	0.595	0.63752	-0.388
Mof_O 	O 	0.59219	0.81625	0.58803	-0.372
Mof_O 	O 	0.43246	0.80731	0.38831	-0.358
Mof_C 	C 	0.4752	0.77538	0.517	0.474
Mof_H 	H 	0.4158	0.7172	0.5631	-0.097
Mof_O 	O 	0.7557	0.405	0.63752	-0.388
Mof_O 	O 	0.90781	0.18375	0.58803	-0.393
Mof_O 	O 	0.06754	0.19269	0.38831	-0.378
Mof_C 	C 	0.0248	0.22462	0.517	0.472
Mof_H 	H 	0.0842	0.2828	0.5631	-0.1
Mof_O 	O 	0.7557	0.095	0.86248	-0.37
Mof_O 	O 	0.90781	0.31625	0.91197	-0.379
Mof_O 	O 	0.06754	0.30731	0.11169	-0.365
Mof_C 	C 	0.0248	0.27538	0.983	0.456
Mof_H 	H 	0.0842	0.2172	0.9369	-0.101
Mof_O 	O 	0.7443	0.905	0.86248	-0.319
Mof_O 	O 	0.59219	0.68375	0.91197	-0.385
Mof_O 	O 	0.43246	0.69269	0.11169	-0.369
Mof_C 	C 	0.4752	0.72462	0.983	0.474
Mof_H 	H 	0.4158	0.7828	0.9369	-0.094
Mof_Ni	Ni	0.25405	0.25	0.25	1.152
Mof_Ni	Ni	0.24595	0.75	0.25	1.153
Mof_Ni	Ni	0.74595	0.75	0.75	1.153
Mof_Ni	Ni	0.75405	0.25	0.75	1.152
Mof_C 	C 	0.25	0.5	0.2993	0.478
Mof_H 	H 	0.25	0.5	0.194	-0.095
Mof_C 	C 	0.25	-1.85727e-33	0.2007	0.366
Mof_H 	H 	0.25	-1.85727e-33	0.306	-0.079
Mof_C 	C 	0.75	0.5	0.7007	0.478
Mof_H 	H 	0.75	0.5	0.806	-0.095
Mof_C 	C 	0.75	0	0.7993	0.371
Mof_H 	H 	0.75	0	0.694	-0.08
_end
