data_functionalizedCrystal
_audit_creation_method	'EQeq! by Chris Wilmer'
_symmetry_space_group_name_H-M	'P1'
_symmetry_Int_Tables_number	1
_symmetry_cell_setting	triclinic
loop_
_symmetry_equiv_pos_as_xyz
  x,y,z
_cell_length_a	38.3937
_cell_length_b	38.3937
_cell_length_c	38.3937
_cell_angle_alpha	90
_cell_angle_beta	90
_cell_angle_gamma	90
loop_
_atom_site_label
_atom_site_type_symbol
_atom_site_fract_x
_atom_site_fract_y
_atom_site_fract_z
_atom_site_charge
Mof_O 	O 	0.67214	0.81407	0.2785	-0.782
Mof_C 	C 	0.63332	0.87617	0.2202	0.171
Mof_H 	H 	0.645	0.8703	0.1992	-0.037
Mof_C 	C 	0.60839	0.9024	0.2204	-0.253
Mof_H 	H 	0.6039	0.9153	0.1998	0.11
Mof_C 	C 	0.52882	0.92662	0.2485	0.144
Mof_C 	C 	0.51743	0.89068	0.2478	-0.087
Mof_H 	H 	0.5321	0.8707	0.2475	0.052
Mof_O 	O 	0.17214	0.31407	0.7785	-0.782
Mof_C 	C 	0.13332	0.37617	0.7202	0.171
Mof_H 	H 	0.145	0.3703	0.6992	-0.037
Mof_C 	C 	0.10839	0.4024	0.7204	-0.253
Mof_H 	H 	0.1039	0.4153	0.6998	0.11
Mof_C 	C 	0.02882	0.42662	0.7485	0.143
Mof_C 	C 	0.01743	0.39068	0.7478	-0.083
Mof_H 	H 	0.0321	0.3707	0.7475	0.051
Mof_O 	O 	0.32786	0.18593	0.2785	-0.782
Mof_C 	C 	0.36668	0.12383	0.2202	0.171
Mof_H 	H 	0.355	0.1297	0.1992	-0.037
Mof_C 	C 	0.39161	0.0976	0.2204	-0.253
Mof_H 	H 	0.3961	0.0847	0.1998	0.111
Mof_C 	C 	0.47118	0.07338	0.2485	0.144
Mof_C 	C 	0.48257	0.10932	0.2478	-0.087
Mof_H 	H 	0.4679	0.1293	0.2475	0.052
Mof_O 	O 	0.82786	0.68593	0.7785	-0.782
Mof_C 	C 	0.86668	0.62383	0.7202	0.171
Mof_H 	H 	0.855	0.6297	0.6992	-0.037
Mof_C 	C 	0.89161	0.5976	0.7204	-0.253
Mof_H 	H 	0.8961	0.5847	0.6998	0.11
Mof_C 	C 	0.97118	0.57338	0.7485	0.143
Mof_C 	C 	0.98257	0.60932	0.7478	-0.092
Mof_H 	H 	0.9679	0.6293	0.7475	0.053
Mof_O 	O 	0.32786	0.81407	0.7215	-0.782
Mof_C 	C 	0.36668	0.87617	0.7798	0.171
Mof_H 	H 	0.355	0.8703	0.8008	-0.037
Mof_C 	C 	0.39161	0.9024	0.7796	-0.253
Mof_H 	H 	0.3961	0.9153	0.8002	0.109
Mof_C 	C 	0.47118	0.92662	0.7515	0.143
Mof_C 	C 	0.48257	0.89068	0.7522	-0.089
Mof_H 	H 	0.4679	0.8707	0.7525	0.051
Mof_O 	O 	0.82786	0.31407	0.2215	-0.783
Mof_C 	C 	0.86668	0.37617	0.2798	0.17
Mof_H 	H 	0.855	0.3703	0.3008	-0.038
Mof_C 	C 	0.89161	0.4024	0.2796	-0.254
Mof_H 	H 	0.8961	0.4153	0.3002	0.109
Mof_C 	C 	0.97118	0.42662	0.2515	0.142
Mof_C 	C 	0.98257	0.39068	0.2522	-0.093
Mof_H 	H 	0.9679	0.3707	0.2525	0.052
Mof_O 	O 	0.67214	0.18593	0.7215	-0.783
Mof_C 	C 	0.63332	0.12383	0.7798	0.17
Mof_H 	H 	0.645	0.1297	0.8008	-0.038
Mof_C 	C 	0.60839	0.0976	0.7796	-0.254
Mof_H 	H 	0.6039	0.0847	0.8002	0.109
Mof_C 	C 	0.52882	0.07338	0.7515	0.143
Mof_C 	C 	0.51743	0.10932	0.7522	-0.088
Mof_H 	H 	0.5321	0.1293	0.7525	0.051
Mof_O 	O 	0.17214	0.68593	0.2215	-0.782
Mof_C 	C 	0.13332	0.62383	0.2798	0.17
Mof_H 	H 	0.145	0.6297	0.3008	-0.038
Mof_C 	C 	0.10839	0.5976	0.2796	-0.254
Mof_H 	H 	0.1039	0.5847	0.3002	0.109
Mof_C 	C 	0.02882	0.57338	0.2515	0.142
Mof_C 	C 	0.01743	0.60932	0.2522	-0.084
Mof_H 	H 	0.0321	0.6293	0.2525	0.05
Mof_O 	O 	0.2785	0.67214	0.81407	-0.783
Mof_C 	C 	0.2202	0.63332	0.87617	0.17
Mof_H 	H 	0.1992	0.645	0.8703	-0.038
Mof_C 	C 	0.2204	0.60839	0.9024	-0.254
Mof_H 	H 	0.1998	0.6039	0.9153	0.109
Mof_C 	C 	0.2485	0.52882	0.92662	0.143
Mof_C 	C 	0.2478	0.51743	0.89068	-0.088
Mof_H 	H 	0.2475	0.5321	0.8707	0.051
Mof_O 	O 	0.7785	0.17214	0.31407	-0.783
Mof_C 	C 	0.7202	0.13332	0.37617	0.17
Mof_H 	H 	0.6992	0.145	0.3703	-0.038
Mof_C 	C 	0.7204	0.10839	0.4024	-0.254
Mof_H 	H 	0.6998	0.1039	0.4153	0.109
Mof_C 	C 	0.7485	0.02882	0.42662	0.142
Mof_C 	C 	0.7478	0.01743	0.39068	-0.084
Mof_H 	H 	0.7475	0.0321	0.3707	0.05
Mof_O 	O 	0.2785	0.32786	0.18593	-0.783
Mof_C 	C 	0.2202	0.36668	0.12383	0.17
Mof_H 	H 	0.1992	0.355	0.1297	-0.038
Mof_C 	C 	0.2204	0.39161	0.0976	-0.254
Mof_H 	H 	0.1998	0.3961	0.0847	0.11
Mof_C 	C 	0.2485	0.47118	0.07338	0.143
Mof_C 	C 	0.2478	0.48257	0.10932	-0.088
Mof_H 	H 	0.2475	0.4679	0.1293	0.051
Mof_O 	O 	0.7785	0.82786	0.68593	-0.783
Mof_C 	C 	0.7202	0.86668	0.62383	0.17
Mof_H 	H 	0.6992	0.855	0.6297	-0.038
Mof_C 	C 	0.7204	0.89161	0.5976	-0.254
Mof_H 	H 	0.6998	0.8961	0.5847	0.109
Mof_C 	C 	0.7485	0.97118	0.57338	0.142
Mof_C 	C 	0.7478	0.98257	0.60932	-0.093
Mof_H 	H 	0.7475	0.9679	0.6293	0.052
Mof_O 	O 	0.7215	0.32786	0.81407	-0.783
Mof_C 	C 	0.7798	0.36668	0.87617	0.17
Mof_H 	H 	0.8008	0.355	0.8703	-0.038
Mof_C 	C 	0.7796	0.39161	0.9024	-0.254
Mof_H 	H 	0.8002	0.3961	0.9153	0.109
Mof_C 	C 	0.7515	0.47118	0.92662	0.143
Mof_C 	C 	0.7522	0.48257	0.89068	-0.089
Mof_H 	H 	0.7525	0.4679	0.8707	0.051
Mof_O 	O 	0.2215	0.82786	0.31407	-0.783
Mof_C 	C 	0.2798	0.86668	0.37617	0.17
Mof_H 	H 	0.3008	0.855	0.3703	-0.038
Mof_C 	C 	0.2796	0.89161	0.4024	-0.254
Mof_H 	H 	0.3002	0.8961	0.4153	0.109
Mof_C 	C 	0.2515	0.97118	0.42662	0.142
Mof_C 	C 	0.2522	0.98257	0.39068	-0.093
Mof_H 	H 	0.2525	0.9679	0.3707	0.052
Mof_O 	O 	0.7215	0.67214	0.18593	-0.783
Mof_C 	C 	0.7798	0.63332	0.12383	0.17
Mof_H 	H 	0.8008	0.645	0.1297	-0.038
Mof_C 	C 	0.7796	0.60839	0.0976	-0.254
Mof_H 	H 	0.8002	0.6039	0.0847	0.109
Mof_C 	C 	0.7515	0.52882	0.07338	0.143
Mof_C 	C 	0.7522	0.51743	0.10932	-0.088
Mof_H 	H 	0.7525	0.5321	0.1293	0.051
Mof_O 	O 	0.2215	0.17214	0.68593	-0.782
Mof_C 	C 	0.2798	0.13332	0.62383	0.17
Mof_H 	H 	0.3008	0.145	0.6297	-0.038
Mof_C 	C 	0.2796	0.10839	0.5976	-0.254
Mof_H 	H 	0.3002	0.1039	0.5847	0.109
Mof_C 	C 	0.2515	0.02882	0.57338	0.142
Mof_C 	C 	0.2522	0.01743	0.60932	-0.084
Mof_H 	H 	0.2525	0.0321	0.6293	0.05
Mof_O 	O 	0.81407	0.2785	0.67214	-0.783
Mof_C 	C 	0.87617	0.2202	0.63332	0.17
Mof_H 	H 	0.8703	0.1992	0.645	-0.038
Mof_C 	C 	0.9024	0.2204	0.60839	-0.254
Mof_H 	H 	0.9153	0.1998	0.6039	0.109
Mof_C 	C 	0.92662	0.2485	0.52882	0.143
Mof_C 	C 	0.89068	0.2478	0.51743	-0.088
Mof_H 	H 	0.8707	0.2475	0.5321	0.051
Mof_O 	O 	0.31407	0.7785	0.17214	-0.783
Mof_C 	C 	0.37617	0.7202	0.13332	0.17
Mof_H 	H 	0.3703	0.6992	0.145	-0.038
Mof_C 	C 	0.4024	0.7204	0.10839	-0.254
Mof_H 	H 	0.4153	0.6998	0.1039	0.109
Mof_C 	C 	0.42662	0.7485	0.02882	0.142
Mof_C 	C 	0.39068	0.7478	0.01743	-0.084
Mof_H 	H 	0.3707	0.7475	0.0321	0.05
Mof_O 	O 	0.18593	0.2785	0.32786	-0.783
Mof_C 	C 	0.12383	0.2202	0.36668	0.17
Mof_H 	H 	0.1297	0.1992	0.355	-0.038
Mof_C 	C 	0.0976	0.2204	0.39161	-0.254
Mof_H 	H 	0.0847	0.1998	0.3961	0.11
Mof_C 	C 	0.07338	0.2485	0.47118	0.143
Mof_C 	C 	0.10932	0.2478	0.48257	-0.088
Mof_H 	H 	0.1293	0.2475	0.4679	0.051
Mof_O 	O 	0.68593	0.7785	0.82786	-0.783
Mof_C 	C 	0.62383	0.7202	0.86668	0.17
Mof_H 	H 	0.6297	0.6992	0.855	-0.038
Mof_C 	C 	0.5976	0.7204	0.89161	-0.254
Mof_H 	H 	0.5847	0.6998	0.8961	0.109
Mof_C 	C 	0.57338	0.7485	0.97118	0.142
Mof_C 	C 	0.60932	0.7478	0.98257	-0.093
Mof_H 	H 	0.6293	0.7475	0.9679	0.052
Mof_O 	O 	0.81407	0.7215	0.32786	-0.783
Mof_C 	C 	0.87617	0.7798	0.36668	0.17
Mof_H 	H 	0.8703	0.8008	0.355	-0.038
Mof_C 	C 	0.9024	0.7796	0.39161	-0.254
Mof_H 	H 	0.9153	0.8002	0.3961	0.109
Mof_C 	C 	0.92662	0.7515	0.47118	0.143
Mof_C 	C 	0.89068	0.7522	0.48257	-0.089
Mof_H 	H 	0.8707	0.7525	0.4679	0.051
Mof_O 	O 	0.31407	0.2215	0.82786	-0.783
Mof_C 	C 	0.37617	0.2798	0.86668	0.17
Mof_H 	H 	0.3703	0.3008	0.855	-0.038
Mof_C 	C 	0.4024	0.2796	0.89161	-0.254
Mof_H 	H 	0.4153	0.3002	0.8961	0.109
Mof_C 	C 	0.42662	0.2515	0.97118	0.142
Mof_C 	C 	0.39068	0.2522	0.98257	-0.093
Mof_H 	H 	0.3707	0.2525	0.9679	0.052
Mof_O 	O 	0.18593	0.7215	0.67214	-0.783
Mof_C 	C 	0.12383	0.7798	0.63332	0.17
Mof_H 	H 	0.1297	0.8008	0.645	-0.038
Mof_C 	C 	0.0976	0.7796	0.60839	-0.254
Mof_H 	H 	0.0847	0.8002	0.6039	0.109
Mof_C 	C 	0.07338	0.7515	0.52882	0.143
Mof_C 	C 	0.10932	0.7522	0.51743	-0.088
Mof_H 	H 	0.1293	0.7525	0.5321	0.051
Mof_O 	O 	0.68593	0.2215	0.17214	-0.782
Mof_C 	C 	0.62383	0.2798	0.13332	0.17
Mof_H 	H 	0.6297	0.3008	0.145	-0.038
Mof_C 	C 	0.5976	0.2796	0.10839	-0.254
Mof_H 	H 	0.5847	0.3002	0.1039	0.109
Mof_C 	C 	0.57338	0.2515	0.02882	0.142
Mof_C 	C 	0.60932	0.2522	0.01743	-0.084
Mof_H 	H 	0.6293	0.2525	0.0321	0.05
Mof_O 	O 	0.81407	0.67214	0.7215	-0.783
Mof_C 	C 	0.87617	0.63332	0.7798	0.17
Mof_H 	H 	0.8703	0.645	0.8008	-0.038
Mof_C 	C 	0.9024	0.60839	0.7796	-0.254
Mof_H 	H 	0.9153	0.6039	0.8002	0.109
Mof_C 	C 	0.92662	0.52882	0.7515	0.143
Mof_C 	C 	0.89068	0.51743	0.7522	-0.089
Mof_H 	H 	0.8707	0.5321	0.7525	0.051
Mof_O 	O 	0.31407	0.17214	0.2215	-0.782
Mof_C 	C 	0.37617	0.13332	0.2798	0.17
Mof_H 	H 	0.3703	0.145	0.3008	-0.038
Mof_C 	C 	0.4024	0.10839	0.2796	-0.254
Mof_H 	H 	0.4153	0.1039	0.3002	0.109
Mof_C 	C 	0.42662	0.02882	0.2515	0.142
Mof_C 	C 	0.39068	0.01743	0.2522	-0.084
Mof_H 	H 	0.3707	0.0321	0.2525	0.05
Mof_O 	O 	0.18593	0.32786	0.7215	-0.783
Mof_C 	C 	0.12383	0.36668	0.7798	0.17
Mof_H 	H 	0.1297	0.355	0.8008	-0.038
Mof_C 	C 	0.0976	0.39161	0.7796	-0.254
Mof_H 	H 	0.0847	0.3961	0.8002	0.109
Mof_C 	C 	0.07338	0.47118	0.7515	0.143
Mof_C 	C 	0.10932	0.48257	0.7522	-0.088
Mof_H 	H 	0.1293	0.4679	0.7525	0.051
Mof_O 	O 	0.68593	0.82786	0.2215	-0.783
Mof_C 	C 	0.62383	0.86668	0.2798	0.17
Mof_H 	H 	0.6297	0.855	0.3008	-0.038
Mof_C 	C 	0.5976	0.89161	0.2796	-0.254
Mof_H 	H 	0.5847	0.8961	0.3002	0.109
Mof_C 	C 	0.57338	0.97118	0.2515	0.142
Mof_C 	C 	0.60932	0.98257	0.2522	-0.093
Mof_H 	H 	0.6293	0.9679	0.2525	0.052
Mof_O 	O 	0.81407	0.32786	0.2785	-0.783
Mof_C 	C 	0.87617	0.36668	0.2202	0.17
Mof_H 	H 	0.8703	0.355	0.1992	-0.038
Mof_C 	C 	0.9024	0.39161	0.2204	-0.254
Mof_H 	H 	0.9153	0.3961	0.1998	0.109
Mof_C 	C 	0.92662	0.47118	0.2485	0.143
Mof_C 	C 	0.89068	0.48257	0.2478	-0.088
Mof_H 	H 	0.8707	0.4679	0.2475	0.051
Mof_O 	O 	0.31407	0.82786	0.7785	-0.783
Mof_C 	C 	0.37617	0.86668	0.7202	0.17
Mof_H 	H 	0.3703	0.855	0.6992	-0.038
Mof_C 	C 	0.4024	0.89161	0.7204	-0.254
Mof_H 	H 	0.4153	0.8961	0.6998	0.109
Mof_C 	C 	0.42662	0.97118	0.7485	0.142
Mof_C 	C 	0.39068	0.98257	0.7478	-0.093
Mof_H 	H 	0.3707	0.9679	0.7475	0.052
Mof_O 	O 	0.18593	0.67214	0.2785	-0.783
Mof_C 	C 	0.12383	0.63332	0.2202	0.17
Mof_H 	H 	0.1297	0.645	0.1992	-0.038
Mof_C 	C 	0.0976	0.60839	0.2204	-0.254
Mof_H 	H 	0.0847	0.6039	0.1998	0.11
Mof_C 	C 	0.07338	0.52882	0.2485	0.143
Mof_C 	C 	0.10932	0.51743	0.2478	-0.088
Mof_H 	H 	0.1293	0.5321	0.2475	0.051
Mof_O 	O 	0.68593	0.17214	0.7785	-0.783
Mof_C 	C 	0.62383	0.13332	0.7202	0.17
Mof_H 	H 	0.6297	0.145	0.6992	-0.038
Mof_C 	C 	0.5976	0.10839	0.7204	-0.254
Mof_H 	H 	0.5847	0.1039	0.6998	0.109
Mof_C 	C 	0.57338	0.02882	0.7485	0.142
Mof_C 	C 	0.60932	0.01743	0.7478	-0.084
Mof_H 	H 	0.6293	0.0321	0.7475	0.05
Mof_O 	O 	0.67214	0.2785	0.18593	-0.783
Mof_C 	C 	0.63332	0.2202	0.12383	0.17
Mof_H 	H 	0.645	0.1992	0.1297	-0.038
Mof_C 	C 	0.60839	0.2204	0.0976	-0.254
Mof_H 	H 	0.6039	0.1998	0.0847	0.11
Mof_C 	C 	0.52882	0.2485	0.07338	0.143
Mof_C 	C 	0.51743	0.2478	0.10932	-0.088
Mof_H 	H 	0.5321	0.2475	0.1293	0.051
Mof_O 	O 	0.17214	0.7785	0.68593	-0.783
Mof_C 	C 	0.13332	0.7202	0.62383	0.17
Mof_H 	H 	0.145	0.6992	0.6297	-0.038
Mof_C 	C 	0.10839	0.7204	0.5976	-0.254
Mof_H 	H 	0.1039	0.6998	0.5847	0.109
Mof_C 	C 	0.02882	0.7485	0.57338	0.142
Mof_C 	C 	0.01743	0.7478	0.60932	-0.084
Mof_H 	H 	0.0321	0.7475	0.6293	0.05
Mof_O 	O 	0.32786	0.2785	0.81407	-0.783
Mof_C 	C 	0.36668	0.2202	0.87617	0.17
Mof_H 	H 	0.355	0.1992	0.8703	-0.038
Mof_C 	C 	0.39161	0.2204	0.9024	-0.254
Mof_H 	H 	0.3961	0.1998	0.9153	0.109
Mof_C 	C 	0.47118	0.2485	0.92662	0.143
Mof_C 	C 	0.48257	0.2478	0.89068	-0.088
Mof_H 	H 	0.4679	0.2475	0.8707	0.051
Mof_O 	O 	0.82786	0.7785	0.31407	-0.783
Mof_C 	C 	0.86668	0.7202	0.37617	0.17
Mof_H 	H 	0.855	0.6992	0.3703	-0.038
Mof_C 	C 	0.89161	0.7204	0.4024	-0.254
Mof_H 	H 	0.8961	0.6998	0.4153	0.109
Mof_C 	C 	0.97118	0.7485	0.42662	0.142
Mof_C 	C 	0.98257	0.7478	0.39068	-0.093
Mof_H 	H 	0.9679	0.7475	0.3707	0.052
Mof_O 	O 	0.32786	0.7215	0.18593	-0.783
Mof_C 	C 	0.36668	0.7798	0.12383	0.17
Mof_H 	H 	0.355	0.8008	0.1297	-0.038
Mof_C 	C 	0.39161	0.7796	0.0976	-0.254
Mof_H 	H 	0.3961	0.8002	0.0847	0.109
Mof_C 	C 	0.47118	0.7515	0.07338	0.143
Mof_C 	C 	0.48257	0.7522	0.10932	-0.088
Mof_H 	H 	0.4679	0.7525	0.1293	0.051
Mof_O 	O 	0.82786	0.2215	0.68593	-0.783
Mof_C 	C 	0.86668	0.2798	0.62383	0.17
Mof_H 	H 	0.855	0.3008	0.6297	-0.038
Mof_C 	C 	0.89161	0.2796	0.5976	-0.254
Mof_H 	H 	0.8961	0.3002	0.5847	0.109
Mof_C 	C 	0.97118	0.2515	0.57338	0.142
Mof_C 	C 	0.98257	0.2522	0.60932	-0.093
Mof_H 	H 	0.9679	0.2525	0.6293	0.052
Mof_O 	O 	0.67214	0.7215	0.81407	-0.783
Mof_C 	C 	0.63332	0.7798	0.87617	0.17
Mof_H 	H 	0.645	0.8008	0.8703	-0.038
Mof_C 	C 	0.60839	0.7796	0.9024	-0.254
Mof_H 	H 	0.6039	0.8002	0.9153	0.109
Mof_C 	C 	0.52882	0.7515	0.92662	0.143
Mof_C 	C 	0.51743	0.7522	0.89068	-0.089
Mof_H 	H 	0.5321	0.7525	0.8707	0.051
Mof_O 	O 	0.17214	0.2215	0.31407	-0.782
Mof_C 	C 	0.13332	0.2798	0.37617	0.17
Mof_H 	H 	0.145	0.3008	0.3703	-0.038
Mof_C 	C 	0.10839	0.2796	0.4024	-0.254
Mof_H 	H 	0.1039	0.3002	0.4153	0.109
Mof_C 	C 	0.02882	0.2515	0.42662	0.142
Mof_C 	C 	0.01743	0.2522	0.39068	-0.084
Mof_H 	H 	0.0321	0.2525	0.3707	0.05
Mof_O 	O 	0.2785	0.81407	0.32786	-0.783
Mof_C 	C 	0.2202	0.87617	0.36668	0.17
Mof_H 	H 	0.1992	0.8703	0.355	-0.038
Mof_C 	C 	0.2204	0.9024	0.39161	-0.254
Mof_H 	H 	0.1998	0.9153	0.3961	0.109
Mof_C 	C 	0.2485	0.92662	0.47118	0.143
Mof_C 	C 	0.2478	0.89068	0.48257	-0.088
Mof_H 	H 	0.2475	0.8707	0.4679	0.051
Mof_O 	O 	0.7785	0.31407	0.82786	-0.783
Mof_C 	C 	0.7202	0.37617	0.86668	0.17
Mof_H 	H 	0.6992	0.3703	0.855	-0.038
Mof_C 	C 	0.7204	0.4024	0.89161	-0.254
Mof_H 	H 	0.6998	0.4153	0.8961	0.109
Mof_C 	C 	0.7485	0.42662	0.97118	0.142
Mof_C 	C 	0.7478	0.39068	0.98257	-0.093
Mof_H 	H 	0.7475	0.3707	0.9679	0.052
Mof_O 	O 	0.2785	0.18593	0.67214	-0.783
Mof_C 	C 	0.2202	0.12383	0.63332	0.17
Mof_H 	H 	0.1992	0.1297	0.645	-0.038
Mof_C 	C 	0.2204	0.0976	0.60839	-0.254
Mof_H 	H 	0.1998	0.0847	0.6039	0.11
Mof_C 	C 	0.2485	0.07338	0.52882	0.143
Mof_C 	C 	0.2478	0.10932	0.51743	-0.088
Mof_H 	H 	0.2475	0.1293	0.5321	0.051
Mof_O 	O 	0.7785	0.68593	0.17214	-0.783
Mof_C 	C 	0.7202	0.62383	0.13332	0.17
Mof_H 	H 	0.6992	0.6297	0.145	-0.038
Mof_C 	C 	0.7204	0.5976	0.10839	-0.254
Mof_H 	H 	0.6998	0.5847	0.1039	0.109
Mof_C 	C 	0.7485	0.57338	0.02882	0.142
Mof_C 	C 	0.7478	0.60932	0.01743	-0.084
Mof_H 	H 	0.7475	0.6293	0.0321	0.05
Mof_O 	O 	0.7215	0.81407	0.67214	-0.783
Mof_C 	C 	0.7798	0.87617	0.63332	0.17
Mof_H 	H 	0.8008	0.8703	0.645	-0.038
Mof_C 	C 	0.7796	0.9024	0.60839	-0.254
Mof_H 	H 	0.8002	0.9153	0.6039	0.109
Mof_C 	C 	0.7515	0.92662	0.52882	0.143
Mof_C 	C 	0.7522	0.89068	0.51743	-0.089
Mof_H 	H 	0.7525	0.8707	0.5321	0.051
Mof_O 	O 	0.2215	0.31407	0.17214	-0.782
Mof_C 	C 	0.2798	0.37617	0.13332	0.17
Mof_H 	H 	0.3008	0.3703	0.145	-0.038
Mof_C 	C 	0.2796	0.4024	0.10839	-0.254
Mof_H 	H 	0.3002	0.4153	0.1039	0.109
Mof_C 	C 	0.2515	0.42662	0.02882	0.142
Mof_C 	C 	0.2522	0.39068	0.01743	-0.084
Mof_H 	H 	0.2525	0.3707	0.0321	0.05
Mof_O 	O 	0.7215	0.18593	0.32786	-0.783
Mof_C 	C 	0.7798	0.12383	0.36668	0.17
Mof_H 	H 	0.8008	0.1297	0.355	-0.038
Mof_C 	C 	0.7796	0.0976	0.39161	-0.254
Mof_H 	H 	0.8002	0.0847	0.3961	0.109
Mof_C 	C 	0.7515	0.07338	0.47118	0.143
Mof_C 	C 	0.7522	0.10932	0.48257	-0.088
Mof_H 	H 	0.7525	0.1293	0.4679	0.051
Mof_O 	O 	0.2215	0.68593	0.82786	-0.783
Mof_C 	C 	0.2798	0.62383	0.86668	0.17
Mof_H 	H 	0.3008	0.6297	0.855	-0.038
Mof_C 	C 	0.2796	0.5976	0.89161	-0.254
Mof_H 	H 	0.3002	0.5847	0.8961	0.109
Mof_C 	C 	0.2515	0.57338	0.97118	0.142
Mof_C 	C 	0.2522	0.60932	0.98257	-0.093
Mof_H 	H 	0.2525	0.6293	0.9679	0.052
Mof_O 	O 	0.32786	0.18593	0.7215	-0.783
Mof_C 	C 	0.36668	0.12383	0.7798	0.17
Mof_H 	H 	0.355	0.1297	0.8008	-0.038
Mof_C 	C 	0.39161	0.0976	0.7796	-0.254
Mof_H 	H 	0.3961	0.0847	0.8002	0.109
Mof_C 	C 	0.47118	0.07338	0.7515	0.143
Mof_C 	C 	0.48257	0.10932	0.7522	-0.088
Mof_H 	H 	0.4679	0.1293	0.7525	0.051
Mof_O 	O 	0.82786	0.68593	0.2215	-0.783
Mof_C 	C 	0.86668	0.62383	0.2798	0.17
Mof_H 	H 	0.855	0.6297	0.3008	-0.038
Mof_C 	C 	0.89161	0.5976	0.2796	-0.254
Mof_H 	H 	0.8961	0.5847	0.3002	0.109
Mof_C 	C 	0.97118	0.57338	0.2515	0.142
Mof_C 	C 	0.98257	0.60932	0.2522	-0.093
Mof_H 	H 	0.9679	0.6293	0.2525	0.052
Mof_O 	O 	0.67214	0.81407	0.7215	-0.783
Mof_C 	C 	0.63332	0.87617	0.7798	0.17
Mof_H 	H 	0.645	0.8703	0.8008	-0.038
Mof_C 	C 	0.60839	0.9024	0.7796	-0.254
Mof_H 	H 	0.6039	0.9153	0.8002	0.109
Mof_C 	C 	0.52882	0.92662	0.7515	0.143
Mof_C 	C 	0.51743	0.89068	0.7522	-0.089
Mof_H 	H 	0.5321	0.8707	0.7525	0.051
Mof_O 	O 	0.17214	0.31407	0.2215	-0.782
Mof_C 	C 	0.13332	0.37617	0.2798	0.17
Mof_H 	H 	0.145	0.3703	0.3008	-0.038
Mof_C 	C 	0.10839	0.4024	0.2796	-0.254
Mof_H 	H 	0.1039	0.4153	0.3002	0.109
Mof_C 	C 	0.02882	0.42662	0.2515	0.142
Mof_C 	C 	0.01743	0.39068	0.2522	-0.084
Mof_H 	H 	0.0321	0.3707	0.2525	0.05
Mof_O 	O 	0.67214	0.18593	0.2785	-0.783
Mof_C 	C 	0.63332	0.12383	0.2202	0.17
Mof_H 	H 	0.645	0.1297	0.1992	-0.038
Mof_C 	C 	0.60839	0.0976	0.2204	-0.254
Mof_H 	H 	0.6039	0.0847	0.1998	0.11
Mof_C 	C 	0.52882	0.07338	0.2485	0.143
Mof_C 	C 	0.51743	0.10932	0.2478	-0.088
Mof_H 	H 	0.5321	0.1293	0.2475	0.051
Mof_O 	O 	0.17214	0.68593	0.7785	-0.783
Mof_C 	C 	0.13332	0.62383	0.7202	0.17
Mof_H 	H 	0.145	0.6297	0.6992	-0.038
Mof_C 	C 	0.10839	0.5976	0.7204	-0.254
Mof_H 	H 	0.1039	0.5847	0.6998	0.109
Mof_C 	C 	0.02882	0.57338	0.7485	0.142
Mof_C 	C 	0.01743	0.60932	0.7478	-0.084
Mof_H 	H 	0.0321	0.6293	0.7475	0.05
Mof_O 	O 	0.32786	0.81407	0.2785	-0.783
Mof_C 	C 	0.36668	0.87617	0.2202	0.17
Mof_H 	H 	0.355	0.8703	0.1992	-0.038
Mof_C 	C 	0.39161	0.9024	0.2204	-0.254
Mof_H 	H 	0.3961	0.9153	0.1998	0.109
Mof_C 	C 	0.47118	0.92662	0.2485	0.143
Mof_C 	C 	0.48257	0.89068	0.2478	-0.088
Mof_H 	H 	0.4679	0.8707	0.2475	0.051
Mof_O 	O 	0.82786	0.31407	0.7785	-0.783
Mof_C 	C 	0.86668	0.37617	0.7202	0.17
Mof_H 	H 	0.855	0.3703	0.6992	-0.038
Mof_C 	C 	0.89161	0.4024	0.7204	-0.254
Mof_H 	H 	0.8961	0.4153	0.6998	0.109
Mof_C 	C 	0.97118	0.42662	0.7485	0.142
Mof_C 	C 	0.98257	0.39068	0.7478	-0.093
Mof_H 	H 	0.9679	0.3707	0.7475	0.052
Mof_O 	O 	0.7215	0.32786	0.18593	-0.783
Mof_C 	C 	0.7798	0.36668	0.12383	0.17
Mof_H 	H 	0.8008	0.355	0.1297	-0.038
Mof_C 	C 	0.7796	0.39161	0.0976	-0.254
Mof_H 	H 	0.8002	0.3961	0.0847	0.109
Mof_C 	C 	0.7515	0.47118	0.07338	0.143
Mof_C 	C 	0.7522	0.48257	0.10932	-0.088
Mof_H 	H 	0.7525	0.4679	0.1293	0.051
Mof_O 	O 	0.2215	0.82786	0.68593	-0.783
Mof_C 	C 	0.2798	0.86668	0.62383	0.17
Mof_H 	H 	0.3008	0.855	0.6297	-0.038
Mof_C 	C 	0.2796	0.89161	0.5976	-0.254
Mof_H 	H 	0.3002	0.8961	0.5847	0.109
Mof_C 	C 	0.2515	0.97118	0.57338	0.142
Mof_C 	C 	0.2522	0.98257	0.60932	-0.093
Mof_H 	H 	0.2525	0.9679	0.6293	0.052
Mof_O 	O 	0.7215	0.67214	0.81407	-0.783
Mof_C 	C 	0.7798	0.63332	0.87617	0.17
Mof_H 	H 	0.8008	0.645	0.8703	-0.038
Mof_C 	C 	0.7796	0.60839	0.9024	-0.254
Mof_H 	H 	0.8002	0.6039	0.9153	0.109
Mof_C 	C 	0.7515	0.52882	0.92662	0.143
Mof_C 	C 	0.7522	0.51743	0.89068	-0.089
Mof_H 	H 	0.7525	0.5321	0.8707	0.051
Mof_O 	O 	0.2215	0.17214	0.31407	-0.782
Mof_C 	C 	0.2798	0.13332	0.37617	0.17
Mof_H 	H 	0.3008	0.145	0.3703	-0.038
Mof_C 	C 	0.2796	0.10839	0.4024	-0.254
Mof_H 	H 	0.3002	0.1039	0.4153	0.109
Mof_C 	C 	0.2515	0.02882	0.42662	0.142
Mof_C 	C 	0.2522	0.01743	0.39068	-0.084
Mof_H 	H 	0.2525	0.0321	0.3707	0.05
Mof_O 	O 	0.2785	0.67214	0.18593	-0.783
Mof_C 	C 	0.2202	0.63332	0.12383	0.17
Mof_H 	H 	0.1992	0.645	0.1297	-0.038
Mof_C 	C 	0.2204	0.60839	0.0976	-0.254
Mof_H 	H 	0.1998	0.6039	0.0847	0.11
Mof_C 	C 	0.2485	0.52882	0.07338	0.143
Mof_C 	C 	0.2478	0.51743	0.10932	-0.088
Mof_H 	H 	0.2475	0.5321	0.1293	0.051
Mof_O 	O 	0.7785	0.17214	0.68593	-0.783
Mof_C 	C 	0.7202	0.13332	0.62383	0.17
Mof_H 	H 	0.6992	0.145	0.6297	-0.038
Mof_C 	C 	0.7204	0.10839	0.5976	-0.254
Mof_H 	H 	0.6998	0.1039	0.5847	0.109
Mof_C 	C 	0.7485	0.02882	0.57338	0.142
Mof_C 	C 	0.7478	0.01743	0.60932	-0.084
Mof_H 	H 	0.7475	0.0321	0.6293	0.05
Mof_O 	O 	0.2785	0.32786	0.81407	-0.783
Mof_C 	C 	0.2202	0.36668	0.87617	0.17
Mof_H 	H 	0.1992	0.355	0.8703	-0.038
Mof_C 	C 	0.2204	0.39161	0.9024	-0.254
Mof_H 	H 	0.1998	0.3961	0.9153	0.109
Mof_C 	C 	0.2485	0.47118	0.92662	0.143
Mof_C 	C 	0.2478	0.48257	0.89068	-0.088
Mof_H 	H 	0.2475	0.4679	0.8707	0.051
Mof_O 	O 	0.7785	0.82786	0.31407	-0.783
Mof_C 	C 	0.7202	0.86668	0.37617	0.17
Mof_H 	H 	0.6992	0.855	0.3703	-0.038
Mof_C 	C 	0.7204	0.89161	0.4024	-0.254
Mof_H 	H 	0.6998	0.8961	0.4153	0.109
Mof_C 	C 	0.7485	0.97118	0.42662	0.142
Mof_C 	C 	0.7478	0.98257	0.39068	-0.093
Mof_H 	H 	0.7475	0.9679	0.3707	0.052
Mof_O 	O 	0.18593	0.7215	0.32786	-0.783
Mof_C 	C 	0.12383	0.7798	0.36668	0.17
Mof_H 	H 	0.1297	0.8008	0.355	-0.038
Mof_C 	C 	0.0976	0.7796	0.39161	-0.254
Mof_H 	H 	0.0847	0.8002	0.3961	0.109
Mof_C 	C 	0.07338	0.7515	0.47118	0.143
Mof_C 	C 	0.10932	0.7522	0.48257	-0.088
Mof_H 	H 	0.1293	0.7525	0.4679	0.051
Mof_O 	O 	0.68593	0.2215	0.82786	-0.783
Mof_C 	C 	0.62383	0.2798	0.86668	0.17
Mof_H 	H 	0.6297	0.3008	0.855	-0.038
Mof_C 	C 	0.5976	0.2796	0.89161	-0.254
Mof_H 	H 	0.5847	0.3002	0.8961	0.109
Mof_C 	C 	0.57338	0.2515	0.97118	0.142
Mof_C 	C 	0.60932	0.2522	0.98257	-0.093
Mof_H 	H 	0.6293	0.2525	0.9679	0.052
Mof_O 	O 	0.81407	0.7215	0.67214	-0.783
Mof_C 	C 	0.87617	0.7798	0.63332	0.17
Mof_H 	H 	0.8703	0.8008	0.645	-0.038
Mof_C 	C 	0.9024	0.7796	0.60839	-0.254
Mof_H 	H 	0.9153	0.8002	0.6039	0.109
Mof_C 	C 	0.92662	0.7515	0.52882	0.143
Mof_C 	C 	0.89068	0.7522	0.51743	-0.089
Mof_H 	H 	0.8707	0.7525	0.5321	0.051
Mof_O 	O 	0.31407	0.2215	0.17214	-0.782
Mof_C 	C 	0.37617	0.2798	0.13332	0.17
Mof_H 	H 	0.3703	0.3008	0.145	-0.038
Mof_C 	C 	0.4024	0.2796	0.10839	-0.254
Mof_H 	H 	0.4153	0.3002	0.1039	0.109
Mof_C 	C 	0.42662	0.2515	0.02882	0.142
Mof_C 	C 	0.39068	0.2522	0.01743	-0.084
Mof_H 	H 	0.3707	0.2525	0.0321	0.05
Mof_O 	O 	0.18593	0.2785	0.67214	-0.783
Mof_C 	C 	0.12383	0.2202	0.63332	0.17
Mof_H 	H 	0.1297	0.1992	0.645	-0.038
Mof_C 	C 	0.0976	0.2204	0.60839	-0.254
Mof_H 	H 	0.0847	0.1998	0.6039	0.11
Mof_C 	C 	0.07338	0.2485	0.52882	0.143
Mof_C 	C 	0.10932	0.2478	0.51743	-0.088
Mof_H 	H 	0.1293	0.2475	0.5321	0.051
Mof_O 	O 	0.68593	0.7785	0.17214	-0.783
Mof_C 	C 	0.62383	0.7202	0.13332	0.17
Mof_H 	H 	0.6297	0.6992	0.145	-0.038
Mof_C 	C 	0.5976	0.7204	0.10839	-0.254
Mof_H 	H 	0.5847	0.6998	0.1039	0.109
Mof_C 	C 	0.57338	0.7485	0.02882	0.142
Mof_C 	C 	0.60932	0.7478	0.01743	-0.084
Mof_H 	H 	0.6293	0.7475	0.0321	0.05
Mof_O 	O 	0.81407	0.2785	0.32786	-0.783
Mof_C 	C 	0.87617	0.2202	0.36668	0.17
Mof_H 	H 	0.8703	0.1992	0.355	-0.038
Mof_C 	C 	0.9024	0.2204	0.39161	-0.254
Mof_H 	H 	0.9153	0.1998	0.3961	0.109
Mof_C 	C 	0.92662	0.2485	0.47118	0.143
Mof_C 	C 	0.89068	0.2478	0.48257	-0.088
Mof_H 	H 	0.8707	0.2475	0.4679	0.051
Mof_O 	O 	0.31407	0.7785	0.82786	-0.783
Mof_C 	C 	0.37617	0.7202	0.86668	0.17
Mof_H 	H 	0.3703	0.6992	0.855	-0.038
Mof_C 	C 	0.4024	0.7204	0.89161	-0.254
Mof_H 	H 	0.4153	0.6998	0.8961	0.109
Mof_C 	C 	0.42662	0.7485	0.97118	0.142
Mof_C 	C 	0.39068	0.7478	0.98257	-0.093
Mof_H 	H 	0.3707	0.7475	0.9679	0.052
Mof_O 	O 	0.18593	0.32786	0.2785	-0.783
Mof_C 	C 	0.12383	0.36668	0.2202	0.17
Mof_H 	H 	0.1297	0.355	0.1992	-0.038
Mof_C 	C 	0.0976	0.39161	0.2204	-0.254
Mof_H 	H 	0.0847	0.3961	0.1998	0.11
Mof_C 	C 	0.07338	0.47118	0.2485	0.143
Mof_C 	C 	0.10932	0.48257	0.2478	-0.088
Mof_H 	H 	0.1293	0.4679	0.2475	0.051
Mof_O 	O 	0.68593	0.82786	0.7785	-0.783
Mof_C 	C 	0.62383	0.86668	0.7202	0.17
Mof_H 	H 	0.6297	0.855	0.6992	-0.038
Mof_C 	C 	0.5976	0.89161	0.7204	-0.254
Mof_H 	H 	0.5847	0.8961	0.6998	0.109
Mof_C 	C 	0.57338	0.97118	0.7485	0.142
Mof_C 	C 	0.60932	0.98257	0.7478	-0.093
Mof_H 	H 	0.6293	0.9679	0.7475	0.052
Mof_O 	O 	0.81407	0.67214	0.2785	-0.783
Mof_C 	C 	0.87617	0.63332	0.2202	0.17
Mof_H 	H 	0.8703	0.645	0.1992	-0.038
Mof_C 	C 	0.9024	0.60839	0.2204	-0.254
Mof_H 	H 	0.9153	0.6039	0.1998	0.109
Mof_C 	C 	0.92662	0.52882	0.2485	0.143
Mof_C 	C 	0.89068	0.51743	0.2478	-0.088
Mof_H 	H 	0.8707	0.5321	0.2475	0.051
Mof_O 	O 	0.31407	0.17214	0.7785	-0.783
Mof_C 	C 	0.37617	0.13332	0.7202	0.17
Mof_H 	H 	0.3703	0.145	0.6992	-0.038
Mof_C 	C 	0.4024	0.10839	0.7204	-0.254
Mof_H 	H 	0.4153	0.1039	0.6998	0.109
Mof_C 	C 	0.42662	0.02882	0.7485	0.142
Mof_C 	C 	0.39068	0.01743	0.7478	-0.084
Mof_H 	H 	0.3707	0.0321	0.7475	0.05
Mof_O 	O 	0.18593	0.67214	0.7215	-0.783
Mof_C 	C 	0.12383	0.63332	0.7798	0.17
Mof_H 	H 	0.1297	0.645	0.8008	-0.038
Mof_C 	C 	0.0976	0.60839	0.7796	-0.254
Mof_H 	H 	0.0847	0.6039	0.8002	0.109
Mof_C 	C 	0.07338	0.52882	0.7515	0.143
Mof_C 	C 	0.10932	0.51743	0.7522	-0.088
Mof_H 	H 	0.1293	0.5321	0.7525	0.051
Mof_O 	O 	0.68593	0.17214	0.2215	-0.782
Mof_C 	C 	0.62383	0.13332	0.2798	0.17
Mof_H 	H 	0.6297	0.145	0.3008	-0.038
Mof_C 	C 	0.5976	0.10839	0.2796	-0.254
Mof_H 	H 	0.5847	0.1039	0.3002	0.109
Mof_C 	C 	0.57338	0.02882	0.2515	0.142
Mof_C 	C 	0.60932	0.01743	0.2522	-0.084
Mof_H 	H 	0.6293	0.0321	0.2525	0.05
Mof_O 	O 	0.81407	0.32786	0.7215	-0.783
Mof_C 	C 	0.87617	0.36668	0.7798	0.17
Mof_H 	H 	0.8703	0.355	0.8008	-0.038
Mof_C 	C 	0.9024	0.39161	0.7796	-0.254
Mof_H 	H 	0.9153	0.3961	0.8002	0.109
Mof_C 	C 	0.92662	0.47118	0.7515	0.143
Mof_C 	C 	0.89068	0.48257	0.7522	-0.089
Mof_H 	H 	0.8707	0.4679	0.7525	0.051
Mof_O 	O 	0.31407	0.82786	0.2215	-0.783
Mof_C 	C 	0.37617	0.86668	0.2798	0.17
Mof_H 	H 	0.3703	0.855	0.3008	-0.038
Mof_C 	C 	0.4024	0.89161	0.2796	-0.254
Mof_H 	H 	0.4153	0.8961	0.3002	0.109
Mof_C 	C 	0.42662	0.97118	0.2515	0.142
Mof_C 	C 	0.39068	0.98257	0.2522	-0.093
Mof_H 	H 	0.3707	0.9679	0.2525	0.052
Mof_O 	O 	0.32786	0.7215	0.81407	-0.783
Mof_C 	C 	0.36668	0.7798	0.87617	0.17
Mof_H 	H 	0.355	0.8008	0.8703	-0.038
Mof_C 	C 	0.39161	0.7796	0.9024	-0.254
Mof_H 	H 	0.3961	0.8002	0.9153	0.109
Mof_C 	C 	0.47118	0.7515	0.92662	0.143
Mof_C 	C 	0.48257	0.7522	0.89068	-0.089
Mof_H 	H 	0.4679	0.7525	0.8707	0.051
Mof_O 	O 	0.82786	0.2215	0.31407	-0.783
Mof_C 	C 	0.86668	0.2798	0.37617	0.17
Mof_H 	H 	0.855	0.3008	0.3703	-0.038
Mof_C 	C 	0.89161	0.2796	0.4024	-0.254
Mof_H 	H 	0.8961	0.3002	0.4153	0.109
Mof_C 	C 	0.97118	0.2515	0.42662	0.142
Mof_C 	C 	0.98257	0.2522	0.39068	-0.093
Mof_H 	H 	0.9679	0.2525	0.3707	0.052
Mof_O 	O 	0.67214	0.7215	0.18593	-0.783
Mof_C 	C 	0.63332	0.7798	0.12383	0.17
Mof_H 	H 	0.645	0.8008	0.1297	-0.038
Mof_C 	C 	0.60839	0.7796	0.0976	-0.254
Mof_H 	H 	0.6039	0.8002	0.0847	0.109
Mof_C 	C 	0.52882	0.7515	0.07338	0.143
Mof_C 	C 	0.51743	0.7522	0.10932	-0.088
Mof_H 	H 	0.5321	0.7525	0.1293	0.051
Mof_O 	O 	0.17214	0.2215	0.68593	-0.782
Mof_C 	C 	0.13332	0.2798	0.62383	0.17
Mof_H 	H 	0.145	0.3008	0.6297	-0.038
Mof_C 	C 	0.10839	0.2796	0.5976	-0.254
Mof_H 	H 	0.1039	0.3002	0.5847	0.109
Mof_C 	C 	0.02882	0.2515	0.57338	0.142
Mof_C 	C 	0.01743	0.2522	0.60932	-0.084
Mof_H 	H 	0.0321	0.2525	0.6293	0.05
Mof_O 	O 	0.67214	0.2785	0.81407	-0.783
Mof_C 	C 	0.63332	0.2202	0.87617	0.17
Mof_H 	H 	0.645	0.1992	0.8703	-0.038
Mof_C 	C 	0.60839	0.2204	0.9024	-0.254
Mof_H 	H 	0.6039	0.1998	0.9153	0.109
Mof_C 	C 	0.52882	0.2485	0.92662	0.143
Mof_C 	C 	0.51743	0.2478	0.89068	-0.088
Mof_H 	H 	0.5321	0.2475	0.8707	0.051
Mof_O 	O 	0.17214	0.7785	0.31407	-0.783
Mof_C 	C 	0.13332	0.7202	0.37617	0.17
Mof_H 	H 	0.145	0.6992	0.3703	-0.038
Mof_C 	C 	0.10839	0.7204	0.4024	-0.254
Mof_H 	H 	0.1039	0.6998	0.4153	0.109
Mof_C 	C 	0.02882	0.7485	0.42662	0.142
Mof_C 	C 	0.01743	0.7478	0.39068	-0.084
Mof_H 	H 	0.0321	0.7475	0.3707	0.05
Mof_O 	O 	0.32786	0.2785	0.18593	-0.783
Mof_C 	C 	0.36668	0.2202	0.12383	0.17
Mof_H 	H 	0.355	0.1992	0.1297	-0.038
Mof_C 	C 	0.39161	0.2204	0.0976	-0.254
Mof_H 	H 	0.3961	0.1998	0.0847	0.11
Mof_C 	C 	0.47118	0.2485	0.07338	0.143
Mof_C 	C 	0.48257	0.2478	0.10932	-0.088
Mof_H 	H 	0.4679	0.2475	0.1293	0.051
Mof_O 	O 	0.82786	0.7785	0.68593	-0.783
Mof_C 	C 	0.86668	0.7202	0.62383	0.17
Mof_H 	H 	0.855	0.6992	0.6297	-0.038
Mof_C 	C 	0.89161	0.7204	0.5976	-0.254
Mof_H 	H 	0.8961	0.6998	0.5847	0.109
Mof_C 	C 	0.97118	0.7485	0.57338	0.142
Mof_C 	C 	0.98257	0.7478	0.60932	-0.093
Mof_H 	H 	0.9679	0.7475	0.6293	0.052
Mof_O 	O 	0.7215	0.18593	0.67214	-0.783
Mof_C 	C 	0.7798	0.12383	0.63332	0.17
Mof_H 	H 	0.8008	0.1297	0.645	-0.038
Mof_C 	C 	0.7796	0.0976	0.60839	-0.254
Mof_H 	H 	0.8002	0.0847	0.6039	0.109
Mof_C 	C 	0.7515	0.07338	0.52882	0.143
Mof_C 	C 	0.7522	0.10932	0.51743	-0.088
Mof_H 	H 	0.7525	0.1293	0.5321	0.051
Mof_O 	O 	0.2215	0.68593	0.17214	-0.782
Mof_C 	C 	0.2798	0.62383	0.13332	0.17
Mof_H 	H 	0.3008	0.6297	0.145	-0.038
Mof_C 	C 	0.2796	0.5976	0.10839	-0.254
Mof_H 	H 	0.3002	0.5847	0.1039	0.109
Mof_C 	C 	0.2515	0.57338	0.02882	0.142
Mof_C 	C 	0.2522	0.60932	0.01743	-0.084
Mof_H 	H 	0.2525	0.6293	0.0321	0.05
Mof_O 	O 	0.7215	0.81407	0.32786	-0.783
Mof_C 	C 	0.7798	0.87617	0.36668	0.17
Mof_H 	H 	0.8008	0.8703	0.355	-0.038
Mof_C 	C 	0.7796	0.9024	0.39161	-0.254
Mof_H 	H 	0.8002	0.9153	0.3961	0.109
Mof_C 	C 	0.7515	0.92662	0.47118	0.143
Mof_C 	C 	0.7522	0.89068	0.48257	-0.089
Mof_H 	H 	0.7525	0.8707	0.4679	0.051
Mof_O 	O 	0.2215	0.31407	0.82786	-0.783
Mof_C 	C 	0.2798	0.37617	0.86668	0.17
Mof_H 	H 	0.3008	0.3703	0.855	-0.038
Mof_C 	C 	0.2796	0.4024	0.89161	-0.254
Mof_H 	H 	0.3002	0.4153	0.8961	0.109
Mof_C 	C 	0.2515	0.42662	0.97118	0.142
Mof_C 	C 	0.2522	0.39068	0.98257	-0.093
Mof_H 	H 	0.2525	0.3707	0.9679	0.052
Mof_O 	O 	0.2785	0.18593	0.32786	-0.783
Mof_C 	C 	0.2202	0.12383	0.36668	0.17
Mof_H 	H 	0.1992	0.1297	0.355	-0.038
Mof_C 	C 	0.2204	0.0976	0.39161	-0.254
Mof_H 	H 	0.1998	0.0847	0.3961	0.11
Mof_C 	C 	0.2485	0.07338	0.47118	0.143
Mof_C 	C 	0.2478	0.10932	0.48257	-0.088
Mof_H 	H 	0.2475	0.1293	0.4679	0.051
Mof_O 	O 	0.7785	0.68593	0.82786	-0.783
Mof_C 	C 	0.7202	0.62383	0.86668	0.17
Mof_H 	H 	0.6992	0.6297	0.855	-0.038
Mof_C 	C 	0.7204	0.5976	0.89161	-0.254
Mof_H 	H 	0.6998	0.5847	0.8961	0.109
Mof_C 	C 	0.7485	0.57338	0.97118	0.142
Mof_C 	C 	0.7478	0.60932	0.98257	-0.093
Mof_H 	H 	0.7475	0.6293	0.9679	0.052
Mof_O 	O 	0.2785	0.81407	0.67214	-0.783
Mof_C 	C 	0.2202	0.87617	0.63332	0.17
Mof_H 	H 	0.1992	0.8703	0.645	-0.038
Mof_C 	C 	0.2204	0.9024	0.60839	-0.254
Mof_H 	H 	0.1998	0.9153	0.6039	0.109
Mof_C 	C 	0.2485	0.92662	0.52882	0.143
Mof_C 	C 	0.2478	0.89068	0.51743	-0.088
Mof_H 	H 	0.2475	0.8707	0.5321	0.051
Mof_O 	O 	0.7785	0.31407	0.17214	-0.783
Mof_C 	C 	0.7202	0.37617	0.13332	0.17
Mof_H 	H 	0.6992	0.3703	0.145	-0.038
Mof_C 	C 	0.7204	0.4024	0.10839	-0.254
Mof_H 	H 	0.6998	0.4153	0.1039	0.109
Mof_C 	C 	0.7485	0.42662	0.02882	0.142
Mof_C 	C 	0.7478	0.39068	0.01743	-0.084
Mof_H 	H 	0.7475	0.3707	0.0321	0.05
Mof_Ir	Ir	0.5	1.78415e-33	0.25	0.558
Mof_Ir	Ir	0.5	7.13659e-33	0.75	0.558
Mof_Ir	Ir	1.16422e-32	0.5	0.25	0.558
Mof_Ir	Ir	0.25	0.5	-0	0.558
Mof_Ir	Ir	0.75	0.5	-0	0.558
Mof_Ir	Ir	0.25	3.56829e-33	0.5	0.558
Mof_Ir	Ir	9.01129e-33	0.25	0.5	0.558
Mof_Ir	Ir	1.8747e-33	0.75	0.5	0.558
Mof_Ir	Ir	2.81205e-33	0.5	0.75	0.558
Mof_Ir	Ir	0.5	0.25	-0	0.558
Mof_Ir	Ir	0.5	0.75	-0	0.558
Mof_Ir	Ir	0.75	3.56829e-33	0.5	0.558
Mof_Zr	Zr	0.70694	0.77136	0.29306	3.17
Mof_O 	O 	0.74272	0.8078	0.25728	-1.389
Mof_Zr	Zr	0.20694	0.27136	0.79306	3.17
Mof_O 	O 	0.24272	0.3078	0.75728	-1.389
Mof_Zr	Zr	0.29306	0.22864	0.29306	3.17
Mof_O 	O 	0.25728	0.1922	0.25728	-1.388
Mof_Zr	Zr	0.79306	0.72864	0.79306	3.17
Mof_O 	O 	0.75728	0.6922	0.75728	-1.389
Mof_Zr	Zr	0.29306	0.77136	0.70694	3.17
Mof_O 	O 	0.25728	0.8078	0.74272	-1.389
Mof_Zr	Zr	0.79306	0.27136	0.20694	3.17
Mof_O 	O 	0.75728	0.3078	0.24272	-1.389
Mof_Zr	Zr	0.70694	0.22864	0.70694	3.17
Mof_O 	O 	0.74272	0.1922	0.74272	-1.389
Mof_Zr	Zr	0.20694	0.72864	0.20694	3.17
Mof_O 	O 	0.24272	0.6922	0.24272	-1.389
Mof_Zr	Zr	0.29306	0.70694	0.77136	3.17
Mof_O 	O 	0.25728	0.74272	0.8078	-1.389
Mof_Zr	Zr	0.79306	0.20694	0.27136	3.17
Mof_O 	O 	0.75728	0.24272	0.3078	-1.389
Mof_Zr	Zr	0.29306	0.29306	0.22864	3.17
Mof_O 	O 	0.25728	0.25728	0.1922	-1.388
Mof_Zr	Zr	0.79306	0.79306	0.72864	3.17
Mof_O 	O 	0.75728	0.75728	0.6922	-1.389
Mof_Zr	Zr	0.70694	0.29306	0.77136	3.17
Mof_O 	O 	0.74272	0.25728	0.8078	-1.389
Mof_Zr	Zr	0.20694	0.79306	0.27136	3.17
Mof_O 	O 	0.24272	0.75728	0.3078	-1.389
Mof_Zr	Zr	0.70694	0.70694	0.22864	3.17
Mof_O 	O 	0.74272	0.74272	0.1922	-1.389
Mof_Zr	Zr	0.20694	0.20694	0.72864	3.17
Mof_O 	O 	0.24272	0.24272	0.6922	-1.389
Mof_Zr	Zr	0.77136	0.29306	0.70694	3.17
Mof_O 	O 	0.8078	0.25728	0.74272	-1.389
Mof_Zr	Zr	0.27136	0.79306	0.20694	3.17
Mof_O 	O 	0.3078	0.75728	0.24272	-1.389
Mof_Zr	Zr	0.22864	0.29306	0.29306	3.17
Mof_O 	O 	0.1922	0.25728	0.25728	-1.388
Mof_Zr	Zr	0.72864	0.79306	0.79306	3.17
Mof_O 	O 	0.6922	0.75728	0.75728	-1.389
Mof_Zr	Zr	0.77136	0.70694	0.29306	3.17
Mof_O 	O 	0.8078	0.74272	0.25728	-1.389
Mof_Zr	Zr	0.27136	0.20694	0.79306	3.17
Mof_O 	O 	0.3078	0.24272	0.75728	-1.389
Mof_Zr	Zr	0.22864	0.70694	0.70694	3.17
Mof_O 	O 	0.1922	0.74272	0.74272	-1.389
Mof_Zr	Zr	0.72864	0.20694	0.20694	3.17
Mof_O 	O 	0.6922	0.24272	0.24272	-1.389
Mof_Zr	Zr	0.77136	0.70694	0.70694	3.17
Mof_O 	O 	0.8078	0.74272	0.74272	-1.389
Mof_Zr	Zr	0.27136	0.20694	0.20694	3.17
Mof_O 	O 	0.3078	0.24272	0.24272	-1.389
Mof_Zr	Zr	0.22864	0.29306	0.70694	3.17
Mof_O 	O 	0.1922	0.25728	0.74272	-1.389
Mof_Zr	Zr	0.72864	0.79306	0.20694	3.17
Mof_O 	O 	0.6922	0.75728	0.24272	-1.389
Mof_Zr	Zr	0.77136	0.29306	0.29306	3.17
Mof_O 	O 	0.8078	0.25728	0.25728	-1.389
Mof_Zr	Zr	0.27136	0.79306	0.79306	3.17
Mof_O 	O 	0.3078	0.75728	0.75728	-1.389
Mof_Zr	Zr	0.22864	0.70694	0.29306	3.17
Mof_O 	O 	0.1922	0.74272	0.25728	-1.389
Mof_Zr	Zr	0.72864	0.20694	0.79306	3.17
Mof_O 	O 	0.6922	0.24272	0.75728	-1.389
Mof_Zr	Zr	0.70694	0.29306	0.22864	3.17
Mof_O 	O 	0.74272	0.25728	0.1922	-1.389
Mof_Zr	Zr	0.20694	0.79306	0.72864	3.17
Mof_O 	O 	0.24272	0.75728	0.6922	-1.389
Mof_Zr	Zr	0.29306	0.29306	0.77136	3.17
Mof_O 	O 	0.25728	0.25728	0.8078	-1.389
Mof_Zr	Zr	0.79306	0.79306	0.27136	3.17
Mof_O 	O 	0.75728	0.75728	0.3078	-1.389
Mof_Zr	Zr	0.29306	0.70694	0.22864	3.17
Mof_O 	O 	0.25728	0.74272	0.1922	-1.389
Mof_Zr	Zr	0.79306	0.20694	0.72864	3.17
Mof_O 	O 	0.75728	0.24272	0.6922	-1.389
Mof_Zr	Zr	0.70694	0.70694	0.77136	3.17
Mof_O 	O 	0.74272	0.74272	0.8078	-1.389
Mof_Zr	Zr	0.20694	0.20694	0.27136	3.17
Mof_O 	O 	0.24272	0.24272	0.3078	-1.389
Mof_Zr	Zr	0.29306	0.77136	0.29306	3.17
Mof_O 	O 	0.25728	0.8078	0.25728	-1.389
Mof_Zr	Zr	0.79306	0.27136	0.79306	3.17
Mof_O 	O 	0.75728	0.3078	0.75728	-1.389
Mof_Zr	Zr	0.29306	0.22864	0.70694	3.17
Mof_O 	O 	0.25728	0.1922	0.74272	-1.389
Mof_Zr	Zr	0.79306	0.72864	0.20694	3.17
Mof_O 	O 	0.75728	0.6922	0.24272	-1.389
Mof_Zr	Zr	0.70694	0.77136	0.70694	3.17
Mof_O 	O 	0.74272	0.8078	0.74272	-1.389
Mof_Zr	Zr	0.20694	0.27136	0.20694	3.17
Mof_O 	O 	0.24272	0.3078	0.24272	-1.389
Mof_Zr	Zr	0.70694	0.22864	0.29306	3.17
Mof_O 	O 	0.74272	0.1922	0.25728	-1.389
Mof_Zr	Zr	0.20694	0.72864	0.79306	3.17
Mof_O 	O 	0.24272	0.6922	0.75728	-1.389
Mof_N 	N 	0.5	0.94695	0.2497	-0.171
Mof_N 	N 	1.70841e-32	0.44695	0.7497	-0.169
Mof_N 	N 	0.5	0.05305	0.2497	-0.17
Mof_N 	N 	1.70841e-32	0.55305	0.7497	-0.169
Mof_N 	N 	0.5	0.94695	0.7503	-0.171
Mof_N 	N 	1.16434e-32	0.44695	0.2503	-0.169
Mof_N 	N 	0.5	0.05305	0.7503	-0.17
Mof_N 	N 	9.38475e-34	0.55305	0.2503	-0.169
Mof_N 	N 	0.2497	0.5	0.94695	-0.171
Mof_N 	N 	0.7497	7.13659e-33	0.44695	-0.169
Mof_N 	N 	0.2497	0.5	0.05305	-0.17
Mof_N 	N 	0.7497	7.13659e-33	0.55305	-0.169
Mof_N 	N 	0.7503	0.5	0.94695	-0.171
Mof_N 	N 	0.2503	7.13659e-33	0.44695	-0.169
Mof_N 	N 	0.7503	0.5	0.05305	-0.17
Mof_N 	N 	0.2503	7.13659e-33	0.55305	-0.169
Mof_N 	N 	0.94695	0.2497	0.5	-0.171
Mof_N 	N 	0.44695	0.7497	-0	-0.169
Mof_N 	N 	0.05305	0.2497	0.5	-0.17
Mof_N 	N 	0.55305	0.7497	-0	-0.169
Mof_N 	N 	0.94695	0.7503	0.5	-0.171
Mof_N 	N 	0.44695	0.2503	-0	-0.169
Mof_N 	N 	0.05305	0.7503	0.5	-0.17
Mof_N 	N 	0.55305	0.2503	-0	-0.169
Mof_N 	N 	0.94695	0.5	0.7503	-0.171
Mof_N 	N 	0.44695	3.56829e-33	0.2503	-0.169
Mof_N 	N 	0.05305	0.5	0.7503	-0.17
Mof_N 	N 	0.55305	3.56829e-33	0.2503	-0.169
Mof_N 	N 	0.94695	0.5	0.2497	-0.171
Mof_N 	N 	0.44695	7.13659e-33	0.7497	-0.169
Mof_N 	N 	0.05305	0.5	0.2497	-0.17
Mof_N 	N 	0.55305	7.13659e-33	0.7497	-0.169
Mof_N 	N 	0.5	0.2497	0.05305	-0.17
Mof_N 	N 	1.63468e-32	0.7497	0.55305	-0.169
Mof_N 	N 	0.5	0.2497	0.94695	-0.171
Mof_N 	N 	1.23807e-32	0.7497	0.44695	-0.169
Mof_N 	N 	0.5	0.7503	0.05305	-0.17
Mof_N 	N 	2.07361e-33	0.2503	0.55305	-0.169
Mof_N 	N 	0.5	0.7503	0.94695	-0.171
Mof_N 	N 	1.23807e-32	0.2503	0.44695	-0.169
Mof_N 	N 	0.2497	0.94695	0.5	-0.171
Mof_N 	N 	0.7497	0.44695	-0	-0.169
Mof_N 	N 	0.2497	0.05305	0.5	-0.17
Mof_N 	N 	0.7497	0.55305	-0	-0.169
Mof_N 	N 	0.7503	0.94695	0.5	-0.171
Mof_N 	N 	0.2503	0.44695	-0	-0.169
Mof_N 	N 	0.7503	0.05305	0.5	-0.17
Mof_N 	N 	0.2503	0.55305	-0	-0.169
Mof_O 	O 	0.71713	0.71713	0.28287	-1.537
Mof_O 	O 	0.21713	0.21713	0.78287	-1.537
Mof_O 	O 	0.28287	0.28287	0.28287	-1.537
Mof_O 	O 	0.78287	0.78287	0.78287	-1.537
Mof_O 	O 	0.28287	0.71713	0.71713	-1.537
Mof_O 	O 	0.78287	0.21713	0.21713	-1.537
Mof_O 	O 	0.71713	0.28287	0.71713	-1.537
Mof_O 	O 	0.21713	0.78287	0.21713	-1.537
Mof_O 	O 	0.71713	0.71713	0.71713	-1.537
Mof_O 	O 	0.21713	0.21713	0.21713	-1.536
Mof_O 	O 	0.28287	0.28287	0.71713	-1.537
Mof_O 	O 	0.78287	0.78287	0.21713	-1.537
Mof_O 	O 	0.71713	0.28287	0.28287	-1.537
Mof_O 	O 	0.21713	0.78287	0.78287	-1.537
Mof_O 	O 	0.28287	0.71713	0.28287	-1.537
Mof_O 	O 	0.78287	0.21713	0.78287	-1.537
Mof_Cl	Cl	0.5	1.78415e-33	0.1899	-0.366
Mof_Cl	Cl	9.7233e-33	0.5	0.6899	-0.366
Mof_Cl	Cl	0.5	7.13659e-33	0.8101	-0.366
Mof_Cl	Cl	8.29927e-33	0.5	0.3101	-0.366
Mof_Cl	Cl	0.1899	0.5	-0	-0.366
Mof_Cl	Cl	0.6899	3.56829e-33	0.5	-0.366
Mof_Cl	Cl	0.8101	0.5	-0	-0.366
Mof_Cl	Cl	0.3101	3.56829e-33	0.5	-0.366
Mof_Cl	Cl	5.44299e-33	0.1899	0.5	-0.366
Mof_Cl	Cl	0.5	0.6899	-0	-0.366
Mof_Cl	Cl	1.61479e-32	0.8101	0.5	-0.366
Mof_Cl	Cl	0.5	0.3101	-0	-0.366
Mof_Cl	Cl	1.0174e-32	0.5	0.8101	-0.366
Mof_Cl	Cl	0.5	0	0.3101	-0.366
Mof_Cl	Cl	6.06445e-33	0.5	0.1899	-0.366
Mof_Cl	Cl	0.5	0	0.6899	-0.366
Mof_Cl	Cl	0.5	0.1899	-0	-0.366
Mof_Cl	Cl	9.01129e-33	0.6899	0.5	-0.366
Mof_Cl	Cl	0.5	0.8101	-0	-0.366
Mof_Cl	Cl	5.44299e-33	0.3101	0.5	-0.366
Mof_Cl	Cl	0.1899	3.56829e-33	0.5	-0.366
Mof_Cl	Cl	0.6899	0.5	-0	-0.366
Mof_Cl	Cl	0.8101	3.56829e-33	0.5	-0.366
Mof_Cl	Cl	0.3101	0.5	-0	-0.366
Mof_C 	C 	0.66931	0.83069	0.25	0.559
Mof_C 	C 	0.64101	0.85899	0.25	-0.268
Mof_C 	C 	0.59039	0.90961	0.25	0.195
Mof_C 	C 	0.56278	0.93722	0.25	-0.161
Mof_C 	C 	0.33069	0.16931	0.25	0.559
Mof_C 	C 	0.35899	0.14101	0.25	-0.268
Mof_C 	C 	0.40961	0.09039	0.25	0.195
Mof_C 	C 	0.43722	0.06278	0.25	-0.161
Mof_C 	C 	0.33069	0.83069	0.75	0.559
Mof_C 	C 	0.35899	0.85899	0.75	-0.268
Mof_C 	C 	0.40961	0.90961	0.75	0.195
Mof_C 	C 	0.43722	0.93722	0.75	-0.161
Mof_C 	C 	0.66931	0.16931	0.75	0.559
Mof_C 	C 	0.64101	0.14101	0.75	-0.268
Mof_C 	C 	0.59039	0.09039	0.75	0.195
Mof_C 	C 	0.56278	0.06278	0.75	-0.161
Mof_C 	C 	0.25	0.66931	0.83069	0.559
Mof_C 	C 	0.25	0.64101	0.85899	-0.268
Mof_C 	C 	0.25	0.59039	0.90961	0.195
Mof_C 	C 	0.25	0.56278	0.93722	-0.161
Mof_C 	C 	0.25	0.33069	0.16931	0.559
Mof_C 	C 	0.25	0.35899	0.14101	-0.268
Mof_C 	C 	0.25	0.40961	0.09039	0.195
Mof_C 	C 	0.25	0.43722	0.06278	-0.161
Mof_C 	C 	0.75	0.33069	0.83069	0.559
Mof_C 	C 	0.75	0.35899	0.85899	-0.268
Mof_C 	C 	0.75	0.40961	0.90961	0.195
Mof_C 	C 	0.75	0.43722	0.93722	-0.161
Mof_C 	C 	0.75	0.66931	0.16931	0.559
Mof_C 	C 	0.75	0.64101	0.14101	-0.268
Mof_C 	C 	0.75	0.59039	0.09039	0.195
Mof_C 	C 	0.75	0.56278	0.06278	-0.161
Mof_C 	C 	0.83069	0.25	0.66931	0.559
Mof_C 	C 	0.85899	0.25	0.64101	-0.268
Mof_C 	C 	0.90961	0.25	0.59039	0.195
Mof_C 	C 	0.93722	0.25	0.56278	-0.161
Mof_C 	C 	0.16931	0.25	0.33069	0.559
Mof_C 	C 	0.14101	0.25	0.35899	-0.268
Mof_C 	C 	0.09039	0.25	0.40961	0.195
Mof_C 	C 	0.06278	0.25	0.43722	-0.161
Mof_C 	C 	0.83069	0.75	0.33069	0.559
Mof_C 	C 	0.85899	0.75	0.35899	-0.268
Mof_C 	C 	0.90961	0.75	0.40961	0.195
Mof_C 	C 	0.93722	0.75	0.43722	-0.161
Mof_C 	C 	0.16931	0.75	0.66931	0.559
Mof_C 	C 	0.14101	0.75	0.64101	-0.268
Mof_C 	C 	0.09039	0.75	0.59039	0.195
Mof_C 	C 	0.06278	0.75	0.56278	-0.161
Mof_C 	C 	0.83069	0.66931	0.75	0.559
Mof_C 	C 	0.85899	0.64101	0.75	-0.268
Mof_C 	C 	0.90961	0.59039	0.75	0.195
Mof_C 	C 	0.93722	0.56278	0.75	-0.161
Mof_C 	C 	0.16931	0.33069	0.75	0.559
Mof_C 	C 	0.14101	0.35899	0.75	-0.268
Mof_C 	C 	0.09039	0.40961	0.75	0.195
Mof_C 	C 	0.06278	0.43722	0.75	-0.161
Mof_C 	C 	0.83069	0.33069	0.25	0.559
Mof_C 	C 	0.85899	0.35899	0.25	-0.268
Mof_C 	C 	0.90961	0.40961	0.25	0.195
Mof_C 	C 	0.93722	0.43722	0.25	-0.161
Mof_C 	C 	0.16931	0.66931	0.25	0.559
Mof_C 	C 	0.14101	0.64101	0.25	-0.268
Mof_C 	C 	0.09039	0.59039	0.25	0.195
Mof_C 	C 	0.06278	0.56278	0.25	-0.161
Mof_C 	C 	0.66931	0.25	0.16931	0.559
Mof_C 	C 	0.64101	0.25	0.14101	-0.268
Mof_C 	C 	0.59039	0.25	0.09039	0.195
Mof_C 	C 	0.56278	0.25	0.06278	-0.161
Mof_C 	C 	0.33069	0.25	0.83069	0.559
Mof_C 	C 	0.35899	0.25	0.85899	-0.268
Mof_C 	C 	0.40961	0.25	0.90961	0.195
Mof_C 	C 	0.43722	0.25	0.93722	-0.161
Mof_C 	C 	0.33069	0.75	0.16931	0.559
Mof_C 	C 	0.35899	0.75	0.14101	-0.268
Mof_C 	C 	0.40961	0.75	0.09039	0.195
Mof_C 	C 	0.43722	0.75	0.06278	-0.161
Mof_C 	C 	0.66931	0.75	0.83069	0.559
Mof_C 	C 	0.64101	0.75	0.85899	-0.268
Mof_C 	C 	0.59039	0.75	0.90961	0.195
Mof_C 	C 	0.56278	0.75	0.93722	-0.161
Mof_C 	C 	0.25	0.83069	0.33069	0.559
Mof_C 	C 	0.25	0.85899	0.35899	-0.268
Mof_C 	C 	0.25	0.90961	0.40961	0.195
Mof_C 	C 	0.25	0.93722	0.43722	-0.161
Mof_C 	C 	0.25	0.16931	0.66931	0.559
Mof_C 	C 	0.25	0.14101	0.64101	-0.268
Mof_C 	C 	0.25	0.09039	0.59039	0.195
Mof_C 	C 	0.25	0.06278	0.56278	-0.161
Mof_C 	C 	0.75	0.83069	0.66931	0.559
Mof_C 	C 	0.75	0.85899	0.64101	-0.268
Mof_C 	C 	0.75	0.90961	0.59039	0.195
Mof_C 	C 	0.75	0.93722	0.56278	-0.161
Mof_C 	C 	0.75	0.16931	0.33069	0.559
Mof_C 	C 	0.75	0.14101	0.35899	-0.268
Mof_C 	C 	0.75	0.09039	0.40961	0.195
Mof_C 	C 	0.75	0.06278	0.43722	-0.161
Mof_C 	C 	0.33069	0.16931	0.75	0.559
Mof_C 	C 	0.35899	0.14101	0.75	-0.268
Mof_C 	C 	0.40961	0.09039	0.75	0.195
Mof_C 	C 	0.43722	0.06278	0.75	-0.161
Mof_C 	C 	0.66931	0.83069	0.75	0.559
Mof_C 	C 	0.64101	0.85899	0.75	-0.268
Mof_C 	C 	0.59039	0.90961	0.75	0.195
Mof_C 	C 	0.56278	0.93722	0.75	-0.161
Mof_C 	C 	0.66931	0.16931	0.25	0.559
Mof_C 	C 	0.64101	0.14101	0.25	-0.268
Mof_C 	C 	0.59039	0.09039	0.25	0.195
Mof_C 	C 	0.56278	0.06278	0.25	-0.161
Mof_C 	C 	0.33069	0.83069	0.25	0.559
Mof_C 	C 	0.35899	0.85899	0.25	-0.268
Mof_C 	C 	0.40961	0.90961	0.25	0.195
Mof_C 	C 	0.43722	0.93722	0.25	-0.161
Mof_C 	C 	0.75	0.33069	0.16931	0.559
Mof_C 	C 	0.75	0.35899	0.14101	-0.268
Mof_C 	C 	0.75	0.40961	0.09039	0.195
Mof_C 	C 	0.75	0.43722	0.06278	-0.161
Mof_C 	C 	0.75	0.66931	0.83069	0.559
Mof_C 	C 	0.75	0.64101	0.85899	-0.268
Mof_C 	C 	0.75	0.59039	0.90961	0.195
Mof_C 	C 	0.75	0.56278	0.93722	-0.161
Mof_C 	C 	0.25	0.66931	0.16931	0.559
Mof_C 	C 	0.25	0.64101	0.14101	-0.268
Mof_C 	C 	0.25	0.59039	0.09039	0.195
Mof_C 	C 	0.25	0.56278	0.06278	-0.161
Mof_C 	C 	0.25	0.33069	0.83069	0.559
Mof_C 	C 	0.25	0.35899	0.85899	-0.268
Mof_C 	C 	0.25	0.40961	0.90961	0.195
Mof_C 	C 	0.25	0.43722	0.93722	-0.161
Mof_C 	C 	0.16931	0.75	0.33069	0.559
Mof_C 	C 	0.14101	0.75	0.35899	-0.268
Mof_C 	C 	0.09039	0.75	0.40961	0.195
Mof_C 	C 	0.06278	0.75	0.43722	-0.161
Mof_C 	C 	0.83069	0.75	0.66931	0.559
Mof_C 	C 	0.85899	0.75	0.64101	-0.268
Mof_C 	C 	0.90961	0.75	0.59039	0.195
Mof_C 	C 	0.93722	0.75	0.56278	-0.161
Mof_C 	C 	0.16931	0.25	0.66931	0.559
Mof_C 	C 	0.14101	0.25	0.64101	-0.268
Mof_C 	C 	0.09039	0.25	0.59039	0.195
Mof_C 	C 	0.06278	0.25	0.56278	-0.161
Mof_C 	C 	0.83069	0.25	0.33069	0.559
Mof_C 	C 	0.85899	0.25	0.35899	-0.268
Mof_C 	C 	0.90961	0.25	0.40961	0.195
Mof_C 	C 	0.93722	0.25	0.43722	-0.161
Mof_C 	C 	0.16931	0.33069	0.25	0.559
Mof_C 	C 	0.14101	0.35899	0.25	-0.268
Mof_C 	C 	0.09039	0.40961	0.25	0.195
Mof_C 	C 	0.06278	0.43722	0.25	-0.161
Mof_C 	C 	0.83069	0.66931	0.25	0.559
Mof_C 	C 	0.85899	0.64101	0.25	-0.268
Mof_C 	C 	0.90961	0.59039	0.25	0.195
Mof_C 	C 	0.93722	0.56278	0.25	-0.161
Mof_C 	C 	0.16931	0.66931	0.75	0.559
Mof_C 	C 	0.14101	0.64101	0.75	-0.268
Mof_C 	C 	0.09039	0.59039	0.75	0.195
Mof_C 	C 	0.06278	0.56278	0.75	-0.161
Mof_C 	C 	0.83069	0.33069	0.75	0.559
Mof_C 	C 	0.85899	0.35899	0.75	-0.268
Mof_C 	C 	0.90961	0.40961	0.75	0.195
Mof_C 	C 	0.93722	0.43722	0.75	-0.161
Mof_C 	C 	0.33069	0.75	0.83069	0.559
Mof_C 	C 	0.35899	0.75	0.85899	-0.268
Mof_C 	C 	0.40961	0.75	0.90961	0.195
Mof_C 	C 	0.43722	0.75	0.93722	-0.161
Mof_C 	C 	0.66931	0.75	0.16931	0.559
Mof_C 	C 	0.64101	0.75	0.14101	-0.268
Mof_C 	C 	0.59039	0.75	0.09039	0.195
Mof_C 	C 	0.56278	0.75	0.06278	-0.161
Mof_C 	C 	0.66931	0.25	0.83069	0.559
Mof_C 	C 	0.64101	0.25	0.85899	-0.268
Mof_C 	C 	0.59039	0.25	0.90961	0.195
Mof_C 	C 	0.56278	0.25	0.93722	-0.161
Mof_C 	C 	0.33069	0.25	0.16931	0.559
Mof_C 	C 	0.35899	0.25	0.14101	-0.268
Mof_C 	C 	0.40961	0.25	0.09039	0.195
Mof_C 	C 	0.43722	0.25	0.06278	-0.161
Mof_C 	C 	0.75	0.16931	0.66931	0.559
Mof_C 	C 	0.75	0.14101	0.64101	-0.268
Mof_C 	C 	0.75	0.09039	0.59039	0.195
Mof_C 	C 	0.75	0.06278	0.56278	-0.161
Mof_C 	C 	0.75	0.83069	0.33069	0.559
Mof_C 	C 	0.75	0.85899	0.35899	-0.268
Mof_C 	C 	0.75	0.90961	0.40961	0.195
Mof_C 	C 	0.75	0.93722	0.43722	-0.161
Mof_C 	C 	0.25	0.16931	0.33069	0.559
Mof_C 	C 	0.25	0.14101	0.35899	-0.268
Mof_C 	C 	0.25	0.09039	0.40961	0.195
Mof_C 	C 	0.25	0.06278	0.43722	-0.161
Mof_C 	C 	0.25	0.83069	0.66931	0.559
Mof_C 	C 	0.25	0.85899	0.64101	-0.268
Mof_C 	C 	0.25	0.90961	0.59039	0.195
Mof_C 	C 	0.25	0.93722	0.56278	-0.161
_end
