data_functionalizedCrystal
_audit_creation_method	'EQeq! by Chris Wilmer'
_symmetry_space_group_name_H-M	'P1'
_symmetry_Int_Tables_number	1
_symmetry_cell_setting	triclinic
loop_
_symmetry_equiv_pos_as_xyz
  x,y,z
_cell_length_a	12.653
_cell_length_b	25.497
_cell_length_c	28.551
_cell_angle_alpha	90
_cell_angle_beta	90.945
_cell_angle_gamma	90
loop_
_atom_site_label
_atom_site_type_symbol
_atom_site_fract_x
_atom_site_fract_y
_atom_site_fract_z
_atom_site_charge
Mof_Co	Co	0.74478	0.99815	0.81303	1.18
Mof_Co	Co	0.24573	0.49964	0.18707	1.18
Mof_Co	Co	0.88687	0.75065	0.03238	1.164
Mof_Co	Co	0.60457	0.74899	0.02427	1.181
Mof_O 	O 	0.7417	0.74959	0.07063	-0.367
Mof_O 	O 	0.8462	0.8125	0.99027	-0.449
Mof_O 	O 	0.6727	0.80072	0.97909	-0.435
Mof_O 	O 	0.4602	0.18868	0.94041	-0.391
Mof_O 	O 	0.3331	0.16943	0.88802	-0.247
Mof_O 	O 	0.6609	0.68362	0.99125	-0.43
Mof_O 	O 	0.8348	0.69559	0.98369	-0.44
Mof_O 	O 	0.9418	0.68954	0.07332	-0.408
Mof_O 	O 	0.81	0.66861	0.1209	-0.243
Mof_O 	O 	0.8651	0.04423	0.84118	-0.392
Mof_O 	O 	0.9023	0.0968	0.78113	-0.244
Mof_O 	O 	0.3465	0.55094	0.15417	-0.385
Mof_O 	O 	0.3911	0.60433	0.21334	-0.241
Mof_O 	O 	0.2702	0.74911	0.82239	-0.417
Mof_O 	O 	0.1452	0.74799	0.87687	-0.279
Mof_O 	O 	0.6414	0.5537	0.71309	-0.44
Mof_O 	O 	0.6208	0.54213	0.79001	-0.421
Mof_O 	O 	0.6164	0.9565	0.78837	-0.428
Mof_O 	O 	0.6466	0.94367	0.71216	-0.422
Mof_N 	N 	0.7474	0.95113	0.87473	-0.206
Mof_N 	N 	0.6331	0.05003	0.84505	-0.208
Mof_N 	N 	0.7544	0.54808	0.87437	-0.206
Mof_N 	N 	0.1172	0.54572	0.15884	-0.209
Mof_N 	N 	0.051	0.19271	0.91933	-0.218
Mof_N 	N 	0.5287	0.69699	0.07131	-0.213
Mof_N 	N 	0.4765	0.74824	0.97302	-0.204
Mof_N 	N 	0.3668	0.68642	0.74942	-0.209
Mof_N 	N 	0.368	0.8113	0.74846	-0.208
Mof_C 	C 	0.8405	0.93372	0.89236	0.033
Mof_H 	H 	0.9037	0.9498	0.882	0.026
Mof_C 	C 	0.8483	0.89366	0.92476	-0.042
Mof_H 	H 	0.9153	0.8827	0.9367	0.057
Mof_C 	C 	0.7549	0.86956	0.93969	-0.061
Mof_C 	C 	0.661	0.8881	0.92195	-0.042
Mof_H 	H 	0.5965	0.8729	0.9318	0.06
Mof_C 	C 	0.6591	0.92859	0.88988	0.035
Mof_H 	H 	0.5928	0.9408	0.8782	0.019
Mof_C 	C 	0.7593	0.82365	0.97287	0.391
Mof_C 	C 	0.5374	0.06141	0.82517	0.048
Mof_H 	H 	0.518	0.0444	0.7967	0.031
Mof_C 	C 	0.4662	0.0968	0.84454	-0.06
Mof_H 	H 	0.4007	0.104	0.8292	0.073
Mof_C 	C 	0.4924	0.12117	0.88643	-0.025
Mof_C 	C 	0.5871	0.1085	0.90784	-0.064
Mof_H 	H 	0.6073	0.1243	0.9368	0.066
Mof_C 	C 	0.6529	0.0723	0.8866	0.049
Mof_H 	H 	0.7162	0.0626	0.9027	0.012
Mof_C 	C 	0.4212	0.16188	0.90691	0.31
Mof_C 	C 	0.664	0.56558	0.89196	0.04
Mof_H 	H 	0.5994	0.5502	0.8814	0.025
Mof_C 	C 	0.6605	0.60478	0.92457	-0.049
Mof_H 	H 	0.5944	0.6162	0.9361	0.061
Mof_C 	C 	0.7528	0.62777	0.94069	-0.054
Mof_C 	C 	0.8472	0.60899	0.92367	-0.047
Mof_H 	H 	0.9127	0.6231	0.9345	0.06
Mof_C 	C 	0.8449	0.56975	0.89103	0.035
Mof_H 	H 	0.9101	0.5571	0.8795	0.018
Mof_C 	C 	0.7509	0.67332	0.97489	0.383
Mof_C 	C 	0.1223	0.5649	0.1154	0.045
Mof_H 	H 	0.1778	0.5527	0.0962	0.013
Mof_C 	C 	0.0523	0.6016	0.0961	-0.058
Mof_H 	H 	0.0617	0.6146	0.0652	0.063
Mof_C 	C 	0.9703	0.6185	0.12244	-0.03
Mof_C 	C 	0.9571	0.5969	0.1658	-0.058
Mof_H 	H 	0.8977	0.6062	0.1839	0.072
Mof_C 	C 	0.0313	0.561	0.1833	0.05
Mof_H 	H 	0.0212	0.5467	0.2136	0.027
Mof_C 	C 	0.9005	0.6618	0.104	0.323
Mof_C 	C 	0.0048	0.1496	0.9337	0.052
Mof_H 	H 	0.0028	0.1438	0.9665	0.007
Mof_C 	C 	0.9587	0.112	0.905	-0.067
Mof_H 	H 	0.9272	0.0814	0.9175	0.067
Mof_C 	C 	0.9605	0.1212	0.8567	-0.023
Mof_C 	C 	0.011	0.1661	0.8402	-0.065
Mof_H 	H 	0.0148	0.173	0.8076	0.076
Mof_C 	C 	0.0552	0.2002	0.8729	0.054
Mof_H 	H 	0.0903	0.2306	0.8617	0.029
Mof_C 	C 	0.9052	0.0845	0.8236	0.316
Mof_C 	C 	0.4819	0.6529	0.0589	0.059
Mof_H 	H 	0.4807	0.6445	0.0265	0.011
Mof_C 	C 	0.4338	0.6173	0.08917	-0.071
Mof_H 	H 	0.3988	0.5869	0.0776	0.069
Mof_C 	C 	0.4389	0.628	0.1361	-0.02
Mof_C 	C 	0.4864	0.6744	0.1516	-0.06
Mof_H 	H 	0.4891	0.6832	0.184	0.076
Mof_C 	C 	0.5294	0.7072	0.1184	0.048
Mof_H 	H 	0.5615	0.7388	0.1289	0.032
Mof_C 	C 	0.3896	0.5919	0.17096	0.309
Mof_C 	C 	0.377	0.75378	0.9836	0.046
Mof_H 	H 	0.3584	0.7572	0.0156	0.009
Mof_C 	C 	0.2973	0.7548	0.9493	-0.059
Mof_H 	H 	0.2257	0.7593	0.958	0.056
Mof_C 	C 	0.3226	0.7493	0.9025	-0.043
Mof_C 	C 	0.43	0.74361	0.8914	-0.054
Mof_H 	H 	0.4507	0.7399	0.8597	0.059
Mof_C 	C 	0.5043	0.74347	0.92712	0.034
Mof_H 	H 	0.5769	0.74	0.9197	0.024
Mof_C 	C 	0.2371	0.74903	0.8644	0.336
Mof_C 	C 	0.3765	0.65312	0.78605	0.032
Mof_H 	H 	0.33	0.6573	0.8116	0.019
Mof_C 	C 	0.4498	0.61369	0.78821	-0.045
Mof_H 	H 	0.4541	0.5915	0.8149	0.06
Mof_C 	C 	0.5189	0.60625	0.75058	-0.059
Mof_C 	C 	0.5076	0.63956	0.7127	-0.038
Mof_H 	H 	0.5513	0.6353	0.6862	0.059
Mof_C 	C 	0.4329	0.67898	0.71336	0.023
Mof_H 	H 	0.4278	0.702	0.6872	0.03
Mof_C 	C 	0.6006	0.56312	0.75189	0.38
Mof_C 	C 	0.4302	0.82041	0.71126	0.023
Mof_H 	H 	0.4227	0.7984	0.6846	0.031
Mof_C 	C 	0.5038	0.85988	0.71015	-0.038
Mof_H 	H 	0.5447	0.8651	0.6829	0.059
Mof_C 	C 	0.5183	0.89223	0.74895	-0.061
Mof_C 	C 	0.4528	0.8832	0.78662	-0.042
Mof_H 	H 	0.4589	0.9046	0.8138	0.058
Mof_C 	C 	0.3801	0.844	0.78506	0.032
Mof_H 	H 	0.3355	0.8394	0.8112	0.019
Mof_C 	C 	0.5999	0.93465	0.74935	0.376
Mof_Co	Co	0.75522	0.99815	0.68697	1.179
Mof_Co	Co	0.25427	0.49964	0.31293	1.179
Mof_Co	Co	0.61313	0.75065	0.46762	1.163
Mof_Co	Co	0.89543	0.74899	0.47573	1.18
Mof_O 	O 	0.7583	0.74959	0.42937	-0.368
Mof_O 	O 	0.6538	0.8125	0.50973	-0.45
Mof_O 	O 	0.8273	0.80072	0.52091	-0.436
Mof_O 	O 	0.0398	0.18868	0.55959	-0.392
Mof_O 	O 	0.1669	0.16943	0.61198	-0.248
Mof_O 	O 	0.8391	0.68362	0.50875	-0.431
Mof_O 	O 	0.6652	0.69559	0.51631	-0.44
Mof_O 	O 	0.5582	0.68954	0.42668	-0.408
Mof_O 	O 	0.69	0.66861	0.3791	-0.243
Mof_O 	O 	0.6349	0.04423	0.65882	-0.392
Mof_O 	O 	0.5977	0.0968	0.71887	-0.245
Mof_O 	O 	0.1535	0.55094	0.34583	-0.385
Mof_O 	O 	0.1089	0.60433	0.28666	-0.241
Mof_O 	O 	0.2298	0.74911	0.67761	-0.417
Mof_O 	O 	0.3548	0.74799	0.62313	-0.279
Mof_O 	O 	0.8586	0.5537	0.78691	-0.44
Mof_O 	O 	0.8792	0.54213	0.70999	-0.421
Mof_O 	O 	0.8836	0.9565	0.71163	-0.429
Mof_O 	O 	0.8534	0.94367	0.78784	-0.422
Mof_N 	N 	0.7526	0.95113	0.62527	-0.205
Mof_N 	N 	0.8669	0.05003	0.65495	-0.208
Mof_N 	N 	0.7456	0.54808	0.62563	-0.206
Mof_N 	N 	0.3828	0.54572	0.34116	-0.209
Mof_N 	N 	0.449	0.19271	0.58067	-0.218
Mof_N 	N 	0.9713	0.69699	0.42869	-0.213
Mof_N 	N 	0.0235	0.74824	0.52698	-0.203
Mof_N 	N 	0.1332	0.68642	0.75058	-0.209
Mof_N 	N 	0.132	0.8113	0.75154	-0.208
Mof_C 	C 	0.6595	0.93372	0.60764	0.033
Mof_H 	H 	0.5963	0.9498	0.618	0.026
Mof_C 	C 	0.6517	0.89366	0.57524	-0.042
Mof_H 	H 	0.5847	0.8827	0.5633	0.057
Mof_C 	C 	0.7451	0.86956	0.56031	-0.061
Mof_C 	C 	0.839	0.8881	0.57805	-0.042
Mof_H 	H 	0.9035	0.8729	0.5682	0.06
Mof_C 	C 	0.8409	0.92859	0.61012	0.035
Mof_H 	H 	0.9072	0.9408	0.6218	0.018
Mof_C 	C 	0.7407	0.82365	0.52713	0.391
Mof_C 	C 	0.9626	0.06141	0.67483	0.051
Mof_H 	H 	0.982	0.0444	0.7033	0.031
Mof_C 	C 	0.0338	0.0968	0.65546	-0.062
Mof_H 	H 	0.0993	0.104	0.6708	0.074
Mof_C 	C 	0.0076	0.12117	0.61357	-0.027
Mof_C 	C 	0.9129	0.1085	0.59216	-0.062
Mof_H 	H 	0.8927	0.1243	0.5632	0.066
Mof_C 	C 	0.8471	0.0723	0.6134	0.048
Mof_H 	H 	0.7838	0.0626	0.5973	0.012
Mof_C 	C 	0.0788	0.16188	0.59309	0.31
Mof_C 	C 	0.836	0.56558	0.60804	0.04
Mof_H 	H 	0.9006	0.5502	0.6186	0.025
Mof_C 	C 	0.8395	0.60478	0.57543	-0.049
Mof_H 	H 	0.9056	0.6162	0.5639	0.06
Mof_C 	C 	0.7472	0.62777	0.55931	-0.054
Mof_C 	C 	0.6528	0.60899	0.57633	-0.047
Mof_H 	H 	0.5873	0.6231	0.5655	0.06
Mof_C 	C 	0.6551	0.56975	0.60897	0.035
Mof_H 	H 	0.5899	0.5571	0.6205	0.018
Mof_C 	C 	0.7491	0.67332	0.52511	0.383
Mof_C 	C 	0.3777	0.5649	0.3846	0.046
Mof_H 	H 	0.3222	0.5527	0.4038	0.012
Mof_C 	C 	0.4477	0.6016	0.4039	-0.06
Mof_H 	H 	0.4383	0.6146	0.4348	0.063
Mof_C 	C 	0.5297	0.6185	0.37756	-0.029
Mof_C 	C 	0.5429	0.5969	0.3342	-0.057
Mof_H 	H 	0.6023	0.6062	0.3161	0.071
Mof_C 	C 	0.4687	0.561	0.3167	0.049
Mof_H 	H 	0.4788	0.5467	0.2864	0.027
Mof_C 	C 	0.5995	0.6618	0.396	0.322
Mof_C 	C 	0.4952	0.1496	0.5663	0.054
Mof_H 	H 	0.4972	0.1438	0.5335	0.007
Mof_C 	C 	0.5413	0.112	0.595	-0.07
Mof_H 	H 	0.5728	0.0814	0.5825	0.067
Mof_C 	C 	0.5395	0.1212	0.6433	-0.024
Mof_C 	C 	0.489	0.1661	0.6598	-0.063
Mof_H 	H 	0.4852	0.173	0.6924	0.076
Mof_C 	C 	0.4448	0.2002	0.6271	0.054
Mof_H 	H 	0.4097	0.2306	0.6383	0.03
Mof_C 	C 	0.5948	0.0845	0.6764	0.316
Mof_C 	C 	0.0181	0.6529	0.4411	0.06
Mof_H 	H 	0.0193	0.6445	0.4735	0.011
Mof_C 	C 	0.0662	0.6173	0.41083	-0.071
Mof_H 	H 	0.1012	0.5869	0.4224	0.069
Mof_C 	C 	0.0611	0.628	0.3639	-0.02
Mof_C 	C 	0.0136	0.6744	0.3484	-0.059
Mof_H 	H 	0.0109	0.6832	0.316	0.075
Mof_C 	C 	0.9706	0.7072	0.3816	0.046
Mof_H 	H 	0.9385	0.7388	0.3711	0.033
Mof_C 	C 	0.1104	0.5919	0.32904	0.309
Mof_C 	C 	0.123	0.75378	0.5164	0.046
Mof_H 	H 	0.1416	0.7572	0.4844	0.009
Mof_C 	C 	0.2027	0.7548	0.5507	-0.058
Mof_H 	H 	0.2743	0.7593	0.542	0.056
Mof_C 	C 	0.1774	0.7493	0.5975	-0.043
Mof_C 	C 	0.07	0.74361	0.6086	-0.052
Mof_H 	H 	0.0493	0.7399	0.6403	0.058
Mof_C 	C 	0.9957	0.74347	0.57288	0.032
Mof_H 	H 	0.9231	0.74	0.5803	0.025
Mof_C 	C 	0.2629	0.74903	0.6356	0.336
Mof_C 	C 	0.1235	0.65312	0.71395	0.032
Mof_H 	H 	0.17	0.6573	0.6884	0.019
Mof_C 	C 	0.0502	0.61369	0.71179	-0.045
Mof_H 	H 	0.0459	0.5915	0.6851	0.06
Mof_C 	C 	0.9811	0.60625	0.74942	-0.059
Mof_C 	C 	0.9924	0.63956	0.7873	-0.038
Mof_H 	H 	0.9487	0.6353	0.8138	0.059
Mof_C 	C 	0.0671	0.67898	0.78664	0.023
Mof_H 	H 	0.0722	0.702	0.8128	0.03
Mof_C 	C 	0.8994	0.56312	0.74811	0.38
Mof_C 	C 	0.0698	0.82041	0.78874	0.024
Mof_H 	H 	0.0773	0.7984	0.8154	0.031
Mof_C 	C 	0.9962	0.85988	0.78985	-0.038
Mof_H 	H 	0.9553	0.8651	0.8171	0.06
Mof_C 	C 	0.9817	0.89223	0.75105	-0.062
Mof_C 	C 	0.0472	0.8832	0.71338	-0.041
Mof_H 	H 	0.0411	0.9046	0.6862	0.058
Mof_C 	C 	0.1199	0.844	0.71494	0.032
Mof_H 	H 	0.1645	0.8394	0.6888	0.019
Mof_C 	C 	0.9001	0.93465	0.75065	0.376
Mof_Co	Co	0.25522	0.00185	0.18697	1.179
Mof_Co	Co	0.75427	0.50036	0.81293	1.179
Mof_Co	Co	0.11313	0.24935	0.96762	1.163
Mof_Co	Co	0.39543	0.25101	0.97573	1.18
Mof_O 	O 	0.2583	0.25041	0.92937	-0.368
Mof_O 	O 	0.1538	0.1875	0.00973	-0.45
Mof_O 	O 	0.3273	0.19928	0.02091	-0.436
Mof_O 	O 	0.5398	0.81132	0.05959	-0.392
Mof_O 	O 	0.6669	0.83057	0.11198	-0.248
Mof_O 	O 	0.3391	0.31638	0.00875	-0.431
Mof_O 	O 	0.1652	0.30441	0.01631	-0.44
Mof_O 	O 	0.0582	0.31046	0.92668	-0.408
Mof_O 	O 	0.19	0.33139	0.8791	-0.243
Mof_O 	O 	0.1349	0.95577	0.15882	-0.392
Mof_O 	O 	0.0977	0.9032	0.21887	-0.244
Mof_O 	O 	0.6535	0.44906	0.84583	-0.385
Mof_O 	O 	0.6089	0.39567	0.78666	-0.241
Mof_O 	O 	0.7298	0.25089	0.17761	-0.417
Mof_O 	O 	0.8548	0.25201	0.12313	-0.279
Mof_O 	O 	0.3586	0.4463	0.28691	-0.44
Mof_O 	O 	0.3792	0.45787	0.20999	-0.421
Mof_O 	O 	0.3836	0.0435	0.21163	-0.428
Mof_O 	O 	0.3534	0.05633	0.28784	-0.422
Mof_N 	N 	0.2526	0.04887	0.12527	-0.206
Mof_N 	N 	0.3669	0.94997	0.15495	-0.208
Mof_N 	N 	0.2456	0.45192	0.12563	-0.206
Mof_N 	N 	0.8828	0.45428	0.84116	-0.209
Mof_N 	N 	0.949	0.80729	0.08067	-0.218
Mof_N 	N 	0.4713	0.30301	0.92869	-0.213
Mof_N 	N 	0.5235	0.25176	0.02698	-0.204
Mof_N 	N 	0.6332	0.31358	0.25058	-0.209
Mof_N 	N 	0.632	0.1887	0.25154	-0.208
Mof_C 	C 	0.1595	0.06628	0.10764	0.033
Mof_H 	H 	0.0963	0.0502	0.118	0.026
Mof_C 	C 	0.1517	0.10634	0.07524	-0.042
Mof_H 	H 	0.0847	0.1173	0.0633	0.057
Mof_C 	C 	0.2451	0.13044	0.06031	-0.061
Mof_C 	C 	0.339	0.1119	0.07805	-0.042
Mof_H 	H 	0.4035	0.1271	0.0682	0.06
Mof_C 	C 	0.3409	0.07141	0.11012	0.035
Mof_H 	H 	0.4072	0.0592	0.1218	0.019
Mof_C 	C 	0.2407	0.17635	0.02713	0.391
Mof_C 	C 	0.4626	0.93859	0.17483	0.048
Mof_H 	H 	0.482	0.9556	0.2033	0.031
Mof_C 	C 	0.5338	0.9032	0.15546	-0.06
Mof_H 	H 	0.5993	0.896	0.1708	0.073
Mof_C 	C 	0.5076	0.87883	0.11357	-0.025
Mof_C 	C 	0.4129	0.8915	0.09216	-0.064
Mof_H 	H 	0.3927	0.8757	0.0632	0.066
Mof_C 	C 	0.3471	0.9277	0.1134	0.049
Mof_H 	H 	0.2838	0.9374	0.0973	0.012
Mof_C 	C 	0.5788	0.83812	0.09309	0.31
Mof_C 	C 	0.336	0.43442	0.10804	0.04
Mof_H 	H 	0.4006	0.4498	0.1186	0.025
Mof_C 	C 	0.3395	0.39522	0.07543	-0.049
Mof_H 	H 	0.4056	0.3838	0.0639	0.061
Mof_C 	C 	0.2472	0.37223	0.05931	-0.054
Mof_C 	C 	0.1528	0.39101	0.07633	-0.047
Mof_H 	H 	0.0873	0.3769	0.0655	0.06
Mof_C 	C 	0.1551	0.43025	0.10897	0.035
Mof_H 	H 	0.0899	0.4429	0.1205	0.018
Mof_C 	C 	0.2491	0.32668	0.02511	0.383
Mof_C 	C 	0.8777	0.4351	0.8846	0.045
Mof_H 	H 	0.8222	0.4473	0.9038	0.013
Mof_C 	C 	0.9477	0.3984	0.9039	-0.058
Mof_H 	H 	0.9383	0.3854	0.9348	0.063
Mof_C 	C 	0.0297	0.3815	0.87756	-0.03
Mof_C 	C 	0.0429	0.4031	0.8342	-0.058
Mof_H 	H 	0.1023	0.3938	0.8161	0.072
Mof_C 	C 	0.9687	0.439	0.8167	0.05
Mof_H 	H 	0.9788	0.4533	0.7864	0.027
Mof_C 	C 	0.0995	0.3382	0.896	0.323
Mof_C 	C 	0.9952	0.8504	0.0663	0.052
Mof_H 	H 	0.9972	0.8562	0.0335	0.007
Mof_C 	C 	0.0413	0.888	0.095	-0.067
Mof_H 	H 	0.0728	0.9186	0.0825	0.067
Mof_C 	C 	0.0395	0.8788	0.1433	-0.023
Mof_C 	C 	0.989	0.8339	0.1598	-0.065
Mof_H 	H 	0.9852	0.827	0.1924	0.076
Mof_C 	C 	0.9448	0.7998	0.1271	0.054
Mof_H 	H 	0.9097	0.7694	0.1383	0.029
Mof_C 	C 	0.0948	0.9155	0.1764	0.316
Mof_C 	C 	0.5181	0.3471	0.9411	0.059
Mof_H 	H 	0.5193	0.3555	0.9735	0.011
Mof_C 	C 	0.5662	0.3827	0.91083	-0.071
Mof_H 	H 	0.6012	0.4131	0.9224	0.069
Mof_C 	C 	0.5611	0.372	0.8639	-0.02
Mof_C 	C 	0.5136	0.3256	0.8484	-0.06
Mof_H 	H 	0.5109	0.3168	0.816	0.076
Mof_C 	C 	0.4706	0.2928	0.8816	0.048
Mof_H 	H 	0.4385	0.2612	0.8711	0.032
Mof_C 	C 	0.6104	0.4081	0.82904	0.309
Mof_C 	C 	0.623	0.24622	0.0164	0.046
Mof_H 	H 	0.6416	0.2428	0.9844	0.009
Mof_C 	C 	0.7027	0.2452	0.0507	-0.059
Mof_H 	H 	0.7743	0.2407	0.042	0.056
Mof_C 	C 	0.6774	0.2507	0.0975	-0.043
Mof_C 	C 	0.57	0.25639	0.1086	-0.054
Mof_H 	H 	0.5493	0.2601	0.1403	0.059
Mof_C 	C 	0.4957	0.25653	0.07288	0.034
Mof_H 	H 	0.4231	0.26	0.0803	0.024
Mof_C 	C 	0.7629	0.25097	0.1356	0.336
Mof_C 	C 	0.6235	0.34688	0.21395	0.032
Mof_H 	H 	0.67	0.3427	0.1884	0.019
Mof_C 	C 	0.5502	0.38631	0.21179	-0.045
Mof_H 	H 	0.5459	0.4085	0.1851	0.06
Mof_C 	C 	0.4811	0.39375	0.24942	-0.059
Mof_C 	C 	0.4924	0.36044	0.2873	-0.038
Mof_H 	H 	0.4487	0.3647	0.3138	0.059
Mof_C 	C 	0.5671	0.32102	0.28664	0.023
Mof_H 	H 	0.5722	0.298	0.3128	0.03
Mof_C 	C 	0.3994	0.43688	0.24811	0.38
Mof_C 	C 	0.5698	0.17959	0.28874	0.023
Mof_H 	H 	0.5773	0.2016	0.3154	0.031
Mof_C 	C 	0.4962	0.14012	0.28985	-0.038
Mof_H 	H 	0.4553	0.1349	0.3171	0.059
Mof_C 	C 	0.4817	0.10777	0.25105	-0.061
Mof_C 	C 	0.5472	0.1168	0.21338	-0.042
Mof_H 	H 	0.5411	0.0954	0.1862	0.058
Mof_C 	C 	0.6199	0.156	0.21494	0.032
Mof_H 	H 	0.6645	0.1606	0.1888	0.019
Mof_C 	C 	0.4001	0.06535	0.25065	0.376
Mof_Co	Co	0.24478	0.00185	0.31303	1.179
Mof_Co	Co	0.74573	0.50036	0.68707	1.179
Mof_Co	Co	0.38687	0.24935	0.53238	1.163
Mof_Co	Co	0.10457	0.25101	0.52427	1.18
Mof_O 	O 	0.2417	0.25041	0.57063	-0.368
Mof_O 	O 	0.3462	0.1875	0.49027	-0.45
Mof_O 	O 	0.1727	0.19928	0.47909	-0.436
Mof_O 	O 	0.9602	0.81132	0.44041	-0.392
Mof_O 	O 	0.8331	0.83057	0.38802	-0.248
Mof_O 	O 	0.1609	0.31638	0.49125	-0.431
Mof_O 	O 	0.3348	0.30441	0.48369	-0.44
Mof_O 	O 	0.4418	0.31046	0.57332	-0.408
Mof_O 	O 	0.31	0.33139	0.6209	-0.243
Mof_O 	O 	0.3651	0.95577	0.34118	-0.392
Mof_O 	O 	0.4023	0.9032	0.28113	-0.245
Mof_O 	O 	0.8465	0.44906	0.65417	-0.385
Mof_O 	O 	0.8911	0.39567	0.71334	-0.241
Mof_O 	O 	0.7702	0.25089	0.32239	-0.417
Mof_O 	O 	0.6452	0.25201	0.37687	-0.279
Mof_O 	O 	0.1414	0.4463	0.21309	-0.44
Mof_O 	O 	0.1208	0.45787	0.29001	-0.421
Mof_O 	O 	0.1164	0.0435	0.28837	-0.429
Mof_O 	O 	0.1466	0.05633	0.21216	-0.422
Mof_N 	N 	0.2474	0.04887	0.37473	-0.205
Mof_N 	N 	0.1331	0.94997	0.34505	-0.208
Mof_N 	N 	0.2544	0.45192	0.37437	-0.206
Mof_N 	N 	0.6172	0.45428	0.65884	-0.209
Mof_N 	N 	0.551	0.80729	0.41933	-0.218
Mof_N 	N 	0.0287	0.30301	0.57131	-0.213
Mof_N 	N 	0.9765	0.25176	0.47302	-0.203
Mof_N 	N 	0.8668	0.31358	0.24942	-0.209
Mof_N 	N 	0.868	0.1887	0.24846	-0.208
Mof_C 	C 	0.3405	0.06628	0.39236	0.033
Mof_H 	H 	0.4037	0.0502	0.382	0.026
Mof_C 	C 	0.3483	0.10634	0.42476	-0.042
Mof_H 	H 	0.4153	0.1173	0.4367	0.057
Mof_C 	C 	0.2549	0.13044	0.43969	-0.061
Mof_C 	C 	0.161	0.1119	0.42195	-0.042
Mof_H 	H 	0.0965	0.1271	0.4318	0.06
Mof_C 	C 	0.1591	0.07141	0.38988	0.035
Mof_H 	H 	0.0928	0.0592	0.3782	0.018
Mof_C 	C 	0.2593	0.17635	0.47287	0.391
Mof_C 	C 	0.0374	0.93859	0.32517	0.051
Mof_H 	H 	0.018	0.9556	0.2967	0.031
Mof_C 	C 	0.9662	0.9032	0.34454	-0.062
Mof_H 	H 	0.9007	0.896	0.3292	0.074
Mof_C 	C 	0.9924	0.87883	0.38643	-0.027
Mof_C 	C 	0.0871	0.8915	0.40784	-0.062
Mof_H 	H 	0.1073	0.8757	0.4368	0.066
Mof_C 	C 	0.1529	0.9277	0.3866	0.048
Mof_H 	H 	0.2162	0.9374	0.4027	0.012
Mof_C 	C 	0.9212	0.83812	0.40691	0.31
Mof_C 	C 	0.164	0.43442	0.39196	0.04
Mof_H 	H 	0.0994	0.4498	0.3814	0.025
Mof_C 	C 	0.1605	0.39522	0.42457	-0.049
Mof_H 	H 	0.0944	0.3838	0.4361	0.06
Mof_C 	C 	0.2528	0.37223	0.44069	-0.054
Mof_C 	C 	0.3472	0.39101	0.42367	-0.047
Mof_H 	H 	0.4127	0.3769	0.4345	0.06
Mof_C 	C 	0.3449	0.43025	0.39103	0.035
Mof_H 	H 	0.4101	0.4429	0.3795	0.018
Mof_C 	C 	0.2509	0.32668	0.47489	0.383
Mof_C 	C 	0.6223	0.4351	0.6154	0.046
Mof_H 	H 	0.6778	0.4473	0.5962	0.012
Mof_C 	C 	0.5523	0.3984	0.5961	-0.06
Mof_H 	H 	0.5617	0.3854	0.5652	0.063
Mof_C 	C 	0.4703	0.3815	0.62244	-0.029
Mof_C 	C 	0.4571	0.4031	0.6658	-0.057
Mof_H 	H 	0.3977	0.3938	0.6839	0.071
Mof_C 	C 	0.5313	0.439	0.6833	0.049
Mof_H 	H 	0.5212	0.4533	0.7136	0.027
Mof_C 	C 	0.4005	0.3382	0.604	0.322
Mof_C 	C 	0.5048	0.8504	0.4337	0.054
Mof_H 	H 	0.5028	0.8562	0.4665	0.007
Mof_C 	C 	0.4587	0.888	0.405	-0.07
Mof_H 	H 	0.4272	0.9186	0.4175	0.067
Mof_C 	C 	0.4605	0.8788	0.3567	-0.024
Mof_C 	C 	0.511	0.8339	0.3402	-0.063
Mof_H 	H 	0.5148	0.827	0.3076	0.076
Mof_C 	C 	0.5552	0.7998	0.3729	0.054
Mof_H 	H 	0.5903	0.7694	0.3617	0.03
Mof_C 	C 	0.4052	0.9155	0.3236	0.316
Mof_C 	C 	0.9819	0.3471	0.5589	0.06
Mof_H 	H 	0.9807	0.3555	0.5265	0.011
Mof_C 	C 	0.9338	0.3827	0.58917	-0.071
Mof_H 	H 	0.8988	0.4131	0.5776	0.069
Mof_C 	C 	0.9389	0.372	0.6361	-0.02
Mof_C 	C 	0.9864	0.3256	0.6516	-0.059
Mof_H 	H 	0.9891	0.3168	0.684	0.075
Mof_C 	C 	0.0294	0.2928	0.6184	0.046
Mof_H 	H 	0.0615	0.2612	0.6289	0.033
Mof_C 	C 	0.8896	0.4081	0.67096	0.309
Mof_C 	C 	0.877	0.24622	0.4836	0.046
Mof_H 	H 	0.8584	0.2428	0.5156	0.009
Mof_C 	C 	0.7973	0.2452	0.4493	-0.058
Mof_H 	H 	0.7257	0.2407	0.458	0.056
Mof_C 	C 	0.8226	0.2507	0.4025	-0.043
Mof_C 	C 	0.93	0.25639	0.3914	-0.052
Mof_H 	H 	0.9507	0.2601	0.3597	0.058
Mof_C 	C 	0.0043	0.25653	0.42712	0.032
Mof_H 	H 	0.0769	0.26	0.4197	0.025
Mof_C 	C 	0.7371	0.25097	0.3644	0.336
Mof_C 	C 	0.8765	0.34688	0.28605	0.032
Mof_H 	H 	0.83	0.3427	0.3116	0.019
Mof_C 	C 	0.9498	0.38631	0.28821	-0.045
Mof_H 	H 	0.9541	0.4085	0.3149	0.06
Mof_C 	C 	0.0189	0.39375	0.25058	-0.059
Mof_C 	C 	0.0076	0.36044	0.2127	-0.038
Mof_H 	H 	0.0513	0.3647	0.1862	0.059
Mof_C 	C 	0.9329	0.32102	0.21336	0.023
Mof_H 	H 	0.9278	0.298	0.1872	0.03
Mof_C 	C 	0.1006	0.43688	0.25189	0.38
Mof_C 	C 	0.9302	0.17959	0.21126	0.024
Mof_H 	H 	0.9227	0.2016	0.1846	0.031
Mof_C 	C 	0.0038	0.14012	0.21015	-0.038
Mof_H 	H 	0.0447	0.1349	0.1829	0.06
Mof_C 	C 	0.0183	0.10777	0.24895	-0.062
Mof_C 	C 	0.9528	0.1168	0.28662	-0.041
Mof_H 	H 	0.9589	0.0954	0.3138	0.058
Mof_C 	C 	0.8801	0.156	0.28506	0.032
Mof_H 	H 	0.8355	0.1606	0.3112	0.019
Mof_C 	C 	0.0999	0.06535	0.24935	0.376
Mof_Co	Co	0.25	0.74901	0.75	1.15
Mof_Co	Co	0.75	0.25099	0.25	1.15
Mof_O 	O 	0.75	0.04243	0.75	-0.374
Mof_O 	O 	0.25	0.95757	0.25	-0.374
Mof_O 	O 	0.25	0.54577	0.25	-0.371
Mof_O 	O 	0.75	0.45423	0.75	-0.371
_end
