data_functionalizedCrystal
_audit_creation_method	'EQeq! by Chris Wilmer'
_symmetry_space_group_name_H-M	'P1'
_symmetry_Int_Tables_number	1
_symmetry_cell_setting	triclinic
loop_
_symmetry_equiv_pos_as_xyz
  x,y,z
_cell_length_a	23.714
_cell_length_b	23.714
_cell_length_c	16.575
_cell_angle_alpha	90
_cell_angle_beta	90
_cell_angle_gamma	90
loop_
_atom_site_label
_atom_site_type_symbol
_atom_site_fract_x
_atom_site_fract_y
_atom_site_fract_z
_atom_site_charge
Mof_Ce	Ce	0.37054	0.64558	0.0894	1.708
Mof_O 	O 	0.3369	0.5571	0.0289	-0.493
Mof_O 	O 	0.3179	0.6367	0.9644	-0.505
Mof_O 	O 	0.2027	0.6282	0.7113	-0.51
Mof_O 	O 	0.1909	0.5469	0.6499	-0.488
Mof_O 	O 	0.1599	0.403	0.8606	-0.231
Mof_O 	O 	0.3521	0.3936	0.8399	-0.244
Mof_C 	C 	0.3158	0.5826	0.9697	0.291
Mof_C 	C 	0.2864	0.5497	0.9044	-0.059
Mof_C 	C 	0.2629	0.5771	0.8408	-0.013
Mof_H 	H 	0.2645	0.6171	0.838	0.034
Mof_C 	C 	0.2081	0.5752	0.7103	0.302
Mof_C 	C 	0.236	0.5461	0.7784	-0.065
Mof_C 	C 	0.2337	0.4892	0.7831	-0.07
Mof_H 	H 	0.2146	0.4685	0.7423	0.074
Mof_C 	C 	0.2595	0.46	0.8484	0.108
Mof_C 	C 	0.2855	0.4902	0.9094	-0.079
Mof_H 	H 	0.3023	0.4713	0.9538	0.068
Mof_C 	C 	0.202	0.3731	0.8568	0.201
Mof_C 	C 	0.2013	0.3106	0.857	-0.055
Mof_C 	C 	0.2513	0.2801	0.8567	0.029
Mof_C 	C 	0.3037	0.3072	0.8554	-0.064
Mof_C 	C 	0.3085	0.3695	0.8504	0.219
Mof_C 	C 	0.3534	0.2752	0.8563	-0.024
Mof_H 	H 	0.389	0.2937	0.8554	0.045
Mof_C 	C 	0.351	0.2146	0.8586	-0.032
Mof_H 	H 	0.3844	0.1927	0.8611	0.051
Mof_N 	N 	0.257	0.3987	0.8535	-0.177
Mof_Ce	Ce	0.12946	0.85442	0.0894	1.705
Mof_O 	O 	0.1631	0.9429	0.0289	-0.495
Mof_O 	O 	0.1821	0.8633	0.9644	-0.506
Mof_O 	O 	0.2973	0.8718	0.7113	-0.511
Mof_O 	O 	0.3091	0.9531	0.6499	-0.489
Mof_O 	O 	0.3401	0.097	0.8606	-0.232
Mof_O 	O 	0.1479	0.1064	0.8399	-0.245
Mof_C 	C 	0.1842	0.9174	0.9697	0.291
Mof_C 	C 	0.2136	0.9503	0.9044	-0.06
Mof_C 	C 	0.2371	0.9229	0.8408	-0.014
Mof_H 	H 	0.2355	0.8829	0.838	0.033
Mof_C 	C 	0.2919	0.9248	0.7103	0.301
Mof_C 	C 	0.264	0.9539	0.7784	-0.065
Mof_C 	C 	0.2663	0.0108	0.7831	-0.072
Mof_H 	H 	0.2854	0.0315	0.7423	0.073
Mof_C 	C 	0.2405	0.04	0.8484	0.108
Mof_C 	C 	0.2145	0.0098	0.9094	-0.081
Mof_H 	H 	0.1977	0.0287	0.9538	0.068
Mof_C 	C 	0.298	0.1269	0.8568	0.2
Mof_C 	C 	0.2987	0.1894	0.857	-0.056
Mof_C 	C 	0.2487	0.2199	0.8567	0.028
Mof_C 	C 	0.1963	0.1928	0.8554	-0.065
Mof_C 	C 	0.1915	0.1305	0.8504	0.218
Mof_C 	C 	0.1466	0.2248	0.8563	-0.025
Mof_H 	H 	0.111	0.2063	0.8554	0.045
Mof_C 	C 	0.149	0.2854	0.8586	-0.032
Mof_H 	H 	0.1156	0.3073	0.8611	0.051
Mof_N 	N 	0.243	0.1013	0.8535	-0.177
Mof_Ce	Ce	0.35442	0.87054	0.5894	1.708
Mof_O 	O 	0.4429	0.8369	0.5289	-0.493
Mof_O 	O 	0.3633	0.8179	0.4644	-0.506
Mof_O 	O 	0.3718	0.7027	0.2113	-0.511
Mof_O 	O 	0.4531	0.6909	0.1499	-0.489
Mof_O 	O 	0.597	0.6599	0.3606	-0.232
Mof_O 	O 	0.6064	0.8521	0.3399	-0.245
Mof_C 	C 	0.4174	0.8158	0.4697	0.289
Mof_C 	C 	0.4503	0.7864	0.4044	-0.06
Mof_C 	C 	0.4229	0.7629	0.3408	-0.014
Mof_H 	H 	0.3829	0.7645	0.338	0.033
Mof_C 	C 	0.4248	0.7081	0.2103	0.301
Mof_C 	C 	0.4539	0.736	0.2784	-0.066
Mof_C 	C 	0.5108	0.7337	0.2831	-0.071
Mof_H 	H 	0.5315	0.7146	0.2423	0.073
Mof_C 	C 	0.54	0.7595	0.3484	0.107
Mof_C 	C 	0.5098	0.7855	0.4094	-0.08
Mof_H 	H 	0.5287	0.8023	0.4538	0.067
Mof_C 	C 	0.6269	0.702	0.3568	0.2
Mof_C 	C 	0.6894	0.7013	0.357	-0.056
Mof_C 	C 	0.7199	0.7513	0.3567	0.028
Mof_C 	C 	0.6928	0.8037	0.3554	-0.065
Mof_C 	C 	0.6305	0.8085	0.3504	0.218
Mof_C 	C 	0.7248	0.8534	0.3563	-0.025
Mof_H 	H 	0.7063	0.889	0.3554	0.045
Mof_C 	C 	0.7854	0.851	0.3586	-0.032
Mof_H 	H 	0.8073	0.8844	0.3611	0.051
Mof_N 	N 	0.6013	0.757	0.3535	-0.177
Mof_Ce	Ce	0.14558	0.62946	0.5894	1.708
Mof_O 	O 	0.0571	0.6631	0.5289	-0.494
Mof_O 	O 	0.1367	0.6821	0.4644	-0.506
Mof_O 	O 	0.1282	0.7973	0.2113	-0.511
Mof_O 	O 	0.0469	0.8091	0.1499	-0.489
Mof_O 	O 	0.903	0.8401	0.3606	-0.232
Mof_O 	O 	0.8936	0.6479	0.3399	-0.245
Mof_C 	C 	0.0826	0.6842	0.4697	0.29
Mof_C 	C 	0.0497	0.7136	0.4044	-0.062
Mof_C 	C 	0.0771	0.7371	0.3408	-0.013
Mof_H 	H 	0.1171	0.7355	0.338	0.033
Mof_C 	C 	0.0752	0.7919	0.2103	0.302
Mof_C 	C 	0.0461	0.764	0.2784	-0.068
Mof_C 	C 	0.9892	0.7663	0.2831	-0.069
Mof_H 	H 	0.9685	0.7854	0.2423	0.072
Mof_C 	C 	0.96	0.7405	0.3484	0.106
Mof_C 	C 	0.9902	0.7145	0.4094	-0.079
Mof_H 	H 	0.9713	0.6977	0.4538	0.067
Mof_C 	C 	0.8731	0.798	0.3568	0.199
Mof_C 	C 	0.8106	0.7987	0.357	-0.056
Mof_C 	C 	0.7801	0.7487	0.3567	0.028
Mof_C 	C 	0.8072	0.6963	0.3554	-0.065
Mof_C 	C 	0.8695	0.6915	0.3504	0.218
Mof_C 	C 	0.7752	0.6466	0.3563	-0.025
Mof_H 	H 	0.7937	0.611	0.3554	0.045
Mof_C 	C 	0.7146	0.649	0.3586	-0.032
Mof_H 	H 	0.6927	0.6156	0.3611	0.051
Mof_N 	N 	0.8987	0.743	0.3535	-0.176
Mof_Ce	Ce	0.62946	0.35442	0.9106	1.707
Mof_O 	O 	0.6631	0.4429	0.9711	-0.494
Mof_O 	O 	0.6821	0.3633	0.0356	-0.506
Mof_O 	O 	0.7973	0.3718	0.2887	-0.511
Mof_O 	O 	0.8091	0.4531	0.3501	-0.489
Mof_O 	O 	0.8401	0.597	0.1394	-0.232
Mof_O 	O 	0.6479	0.6064	0.1601	-0.245
Mof_C 	C 	0.6842	0.4174	0.0303	0.29
Mof_C 	C 	0.7136	0.4503	0.0956	-0.06
Mof_C 	C 	0.7371	0.4229	0.1592	-0.014
Mof_H 	H 	0.7355	0.3829	0.162	0.033
Mof_C 	C 	0.7919	0.4248	0.2897	0.301
Mof_C 	C 	0.764	0.4539	0.2216	-0.066
Mof_C 	C 	0.7663	0.5108	0.2169	-0.071
Mof_H 	H 	0.7854	0.5315	0.2577	0.073
Mof_C 	C 	0.7405	0.54	0.1516	0.107
Mof_C 	C 	0.7145	0.5098	0.0906	-0.08
Mof_H 	H 	0.6977	0.5287	0.0462	0.067
Mof_C 	C 	0.798	0.6269	0.1432	0.2
Mof_C 	C 	0.7987	0.6894	0.143	-0.056
Mof_C 	C 	0.7487	0.7199	0.1433	0.028
Mof_C 	C 	0.6963	0.6928	0.1446	-0.065
Mof_C 	C 	0.6915	0.6305	0.1496	0.218
Mof_C 	C 	0.6466	0.7248	0.1437	-0.025
Mof_H 	H 	0.611	0.7063	0.1446	0.045
Mof_C 	C 	0.649	0.7854	0.1414	-0.032
Mof_H 	H 	0.6156	0.8073	0.1389	0.051
Mof_N 	N 	0.743	0.6013	0.1465	-0.177
Mof_Ce	Ce	0.87054	0.14558	0.9106	1.705
Mof_O 	O 	0.8369	0.0571	0.9711	-0.495
Mof_O 	O 	0.8179	0.1367	0.0356	-0.506
Mof_O 	O 	0.7027	0.1282	0.2887	-0.511
Mof_O 	O 	0.6909	0.0469	0.3501	-0.489
Mof_O 	O 	0.6599	0.903	0.1394	-0.232
Mof_O 	O 	0.8521	0.8936	0.1601	-0.245
Mof_C 	C 	0.8158	0.0826	0.0303	0.291
Mof_C 	C 	0.7864	0.0497	0.0956	-0.06
Mof_C 	C 	0.7629	0.0771	0.1592	-0.014
Mof_H 	H 	0.7645	0.1171	0.162	0.033
Mof_C 	C 	0.7081	0.0752	0.2897	0.301
Mof_C 	C 	0.736	0.0461	0.2216	-0.065
Mof_C 	C 	0.7337	0.9892	0.2169	-0.072
Mof_H 	H 	0.7146	0.9685	0.2577	0.073
Mof_C 	C 	0.7595	0.96	0.1516	0.108
Mof_C 	C 	0.7855	0.9902	0.0906	-0.081
Mof_H 	H 	0.8023	0.9713	0.0462	0.068
Mof_C 	C 	0.702	0.8731	0.1432	0.2
Mof_C 	C 	0.7013	0.8106	0.143	-0.056
Mof_C 	C 	0.7513	0.7801	0.1433	0.028
Mof_C 	C 	0.8037	0.8072	0.1446	-0.065
Mof_C 	C 	0.8085	0.8695	0.1496	0.218
Mof_C 	C 	0.8534	0.7752	0.1437	-0.025
Mof_H 	H 	0.889	0.7937	0.1446	0.045
Mof_C 	C 	0.851	0.7146	0.1414	-0.032
Mof_H 	H 	0.8844	0.6927	0.1389	0.051
Mof_N 	N 	0.757	0.8987	0.1465	-0.177
Mof_Ce	Ce	0.64558	0.12946	0.4106	1.708
Mof_O 	O 	0.5571	0.1631	0.4711	-0.493
Mof_O 	O 	0.6367	0.1821	0.5356	-0.506
Mof_O 	O 	0.6282	0.2973	0.7887	-0.511
Mof_O 	O 	0.5469	0.3091	0.8501	-0.489
Mof_O 	O 	0.403	0.3401	0.6394	-0.232
Mof_O 	O 	0.3936	0.1479	0.6601	-0.245
Mof_C 	C 	0.5826	0.1842	0.5303	0.289
Mof_C 	C 	0.5497	0.2136	0.5956	-0.06
Mof_C 	C 	0.5771	0.2371	0.6592	-0.014
Mof_H 	H 	0.6171	0.2355	0.662	0.033
Mof_C 	C 	0.5752	0.2919	0.7897	0.301
Mof_C 	C 	0.5461	0.264	0.7216	-0.066
Mof_C 	C 	0.4892	0.2663	0.7169	-0.071
Mof_H 	H 	0.4685	0.2854	0.7577	0.073
Mof_C 	C 	0.46	0.2405	0.6516	0.107
Mof_C 	C 	0.4902	0.2145	0.5906	-0.08
Mof_H 	H 	0.4713	0.1977	0.5462	0.067
Mof_C 	C 	0.3731	0.298	0.6432	0.2
Mof_C 	C 	0.3106	0.2987	0.643	-0.056
Mof_C 	C 	0.2801	0.2487	0.6433	0.028
Mof_C 	C 	0.3072	0.1963	0.6446	-0.065
Mof_C 	C 	0.3695	0.1915	0.6496	0.218
Mof_C 	C 	0.2752	0.1466	0.6437	-0.025
Mof_H 	H 	0.2937	0.111	0.6446	0.045
Mof_C 	C 	0.2146	0.149	0.6414	-0.032
Mof_H 	H 	0.1927	0.1156	0.6389	0.051
Mof_N 	N 	0.3987	0.243	0.6465	-0.177
Mof_Ce	Ce	0.85442	0.37054	0.4106	1.708
Mof_O 	O 	0.9429	0.3369	0.4711	-0.494
Mof_O 	O 	0.8633	0.3179	0.5356	-0.506
Mof_O 	O 	0.8718	0.2027	0.7887	-0.511
Mof_O 	O 	0.9531	0.1909	0.8501	-0.489
Mof_O 	O 	0.097	0.1599	0.6394	-0.232
Mof_O 	O 	0.1064	0.3521	0.6601	-0.245
Mof_C 	C 	0.9174	0.3158	0.5303	0.29
Mof_C 	C 	0.9503	0.2864	0.5956	-0.062
Mof_C 	C 	0.9229	0.2629	0.6592	-0.013
Mof_H 	H 	0.8829	0.2645	0.662	0.033
Mof_C 	C 	0.9248	0.2081	0.7897	0.302
Mof_C 	C 	0.9539	0.236	0.7216	-0.068
Mof_C 	C 	0.0108	0.2337	0.7169	-0.069
Mof_H 	H 	0.0315	0.2146	0.7577	0.072
Mof_C 	C 	0.04	0.2595	0.6516	0.106
Mof_C 	C 	0.0098	0.2855	0.5906	-0.079
Mof_H 	H 	0.0287	0.3023	0.5462	0.067
Mof_C 	C 	0.1269	0.202	0.6432	0.199
Mof_C 	C 	0.1894	0.2013	0.643	-0.056
Mof_C 	C 	0.2199	0.2513	0.6433	0.028
Mof_C 	C 	0.1928	0.3037	0.6446	-0.065
Mof_C 	C 	0.1305	0.3085	0.6496	0.218
Mof_C 	C 	0.2248	0.3534	0.6437	-0.025
Mof_H 	H 	0.2063	0.389	0.6446	0.045
Mof_C 	C 	0.2854	0.351	0.6414	-0.032
Mof_H 	H 	0.3073	0.3844	0.6389	0.051
Mof_N 	N 	0.1013	0.257	0.6465	-0.176
_end
