data_functionalizedCrystal
_audit_creation_method	'EQeq! by Chris Wilmer'
_symmetry_space_group_name_H-M	'P1'
_symmetry_Int_Tables_number	1
_symmetry_cell_setting	triclinic
loop_
_symmetry_equiv_pos_as_xyz
  x,y,z
_cell_length_a	18.346
_cell_length_b	18.346
_cell_length_c	18.346
_cell_angle_alpha	90
_cell_angle_beta	90
_cell_angle_gamma	90
loop_
_atom_site_label
_atom_site_type_symbol
_atom_site_fract_x
_atom_site_fract_y
_atom_site_fract_z
_atom_site_charge
Mof_Cu	Cu	0.3785	0.1988	0.9468	0.141
Mof_O 	O 	0.332	0.208	0.038	1.964
Mof_O 	O 	0.2235	0.1954	0.097	-0.352
Mof_O 	O 	0.2904	0.1471	0.9221	-0.552
Mof_O 	O 	0.1754	0.1914	0.9469	-0.323
Mof_H 	H 	0.1593	0.1715	0.9096	0.236
Mof_O 	O 	0.2269	0.0245	0.9475	-0.409
Mof_O 	O 	0.1651	0.062	0.0417	-0.319
Mof_C 	C 	0.2626	0.1906	0.0418	0.454
Mof_C 	C 	0.2353	0.151	0.9737	-0.02
Mof_C 	C 	0.2069	0.0735	0.9903	0.287
Mof_Cu	Cu	0.362	0.2208	0.9404	0.744
Mof_O 	O 	0.316	0.2323	0.036	-2.416
Mof_Cu	Cu	0.1215	0.8012	0.4468	0.141
Mof_O 	O 	0.168	0.792	0.538	1.98
Mof_O 	O 	0.2765	0.8046	0.597	-0.353
Mof_O 	O 	0.2096	0.8529	0.4221	-0.552
Mof_O 	O 	0.3246	0.8086	0.4469	-0.322
Mof_H 	H 	0.3407	0.8285	0.4096	0.236
Mof_O 	O 	0.2731	0.9755	0.4475	-0.41
Mof_O 	O 	0.3349	0.938	0.5417	-0.324
Mof_C 	C 	0.2374	0.8094	0.5418	0.453
Mof_C 	C 	0.2647	0.849	0.4737	-0.019
Mof_C 	C 	0.2931	0.9265	0.4903	0.292
Mof_Cu	Cu	0.138	0.7792	0.4404	0.745
Mof_O 	O 	0.184	0.7677	0.536	-2.432
Mof_Cu	Cu	0.6215	0.6988	0.5532	0.141
Mof_O 	O 	0.668	0.708	0.462	1.982
Mof_O 	O 	0.7765	0.6954	0.403	-0.352
Mof_O 	O 	0.7096	0.6471	0.5779	-0.552
Mof_O 	O 	0.8246	0.6914	0.5531	-0.321
Mof_H 	H 	0.8407	0.6715	0.5904	0.236
Mof_O 	O 	0.7731	0.5245	0.5525	-0.41
Mof_O 	O 	0.8349	0.562	0.4583	-0.324
Mof_C 	C 	0.7374	0.6906	0.4582	0.453
Mof_C 	C 	0.7647	0.651	0.5263	-0.019
Mof_C 	C 	0.7931	0.5735	0.5097	0.292
Mof_Cu	Cu	0.638	0.7208	0.5596	0.745
Mof_O 	O 	0.684	0.7323	0.464	-2.434
Mof_Cu	Cu	0.8785	0.3012	0.0532	0.142
Mof_O 	O 	0.832	0.292	0.962	1.964
Mof_O 	O 	0.7235	0.3046	0.903	-0.352
Mof_O 	O 	0.7904	0.3529	0.0779	-0.552
Mof_O 	O 	0.6754	0.3086	0.0531	-0.322
Mof_H 	H 	0.6593	0.3285	0.0904	0.237
Mof_O 	O 	0.7269	0.4755	0.0525	-0.41
Mof_O 	O 	0.6651	0.438	0.9583	-0.323
Mof_C 	C 	0.7626	0.3094	0.9582	0.452
Mof_C 	C 	0.7353	0.349	0.0263	-0.019
Mof_C 	C 	0.7069	0.4265	0.0097	0.291
Mof_Cu	Cu	0.862	0.2792	0.0596	0.744
Mof_O 	O 	0.816	0.2677	0.964	-2.416
Mof_Cu	Cu	0.9468	0.3785	0.1988	0.142
Mof_O 	O 	0.038	0.332	0.208	1.965
Mof_O 	O 	0.097	0.2235	0.1954	-0.352
Mof_O 	O 	0.9221	0.2904	0.1471	-0.552
Mof_O 	O 	0.9469	0.1754	0.1914	-0.323
Mof_H 	H 	0.9096	0.1593	0.1715	0.236
Mof_O 	O 	0.9475	0.2269	0.0245	-0.409
Mof_O 	O 	0.0417	0.1651	0.062	-0.319
Mof_C 	C 	0.0418	0.2626	0.1906	0.454
Mof_C 	C 	0.9737	0.2353	0.151	-0.02
Mof_C 	C 	0.9903	0.2069	0.0735	0.287
Mof_Cu	Cu	0.9404	0.362	0.2208	0.744
Mof_O 	O 	0.036	0.316	0.2323	-2.416
Mof_Cu	Cu	0.4468	0.1215	0.8012	0.141
Mof_O 	O 	0.538	0.168	0.792	1.98
Mof_O 	O 	0.597	0.2765	0.8046	-0.353
Mof_O 	O 	0.4221	0.2096	0.8529	-0.552
Mof_O 	O 	0.4469	0.3246	0.8086	-0.322
Mof_H 	H 	0.4096	0.3407	0.8285	0.236
Mof_O 	O 	0.4475	0.2731	0.9755	-0.41
Mof_O 	O 	0.5417	0.3349	0.938	-0.324
Mof_C 	C 	0.5418	0.2374	0.8094	0.453
Mof_C 	C 	0.4737	0.2647	0.849	-0.019
Mof_C 	C 	0.4903	0.2931	0.9265	0.292
Mof_Cu	Cu	0.4404	0.138	0.7792	0.745
Mof_O 	O 	0.536	0.184	0.7677	-2.432
Mof_Cu	Cu	0.5532	0.6215	0.6988	0.141
Mof_O 	O 	0.462	0.668	0.708	1.982
Mof_O 	O 	0.403	0.7765	0.6954	-0.352
Mof_O 	O 	0.5779	0.7096	0.6471	-0.552
Mof_O 	O 	0.5531	0.8246	0.6914	-0.321
Mof_H 	H 	0.5904	0.8407	0.6715	0.236
Mof_O 	O 	0.5525	0.7731	0.5245	-0.41
Mof_O 	O 	0.4583	0.8349	0.562	-0.324
Mof_C 	C 	0.4582	0.7374	0.6906	0.453
Mof_C 	C 	0.5263	0.7647	0.651	-0.019
Mof_C 	C 	0.5097	0.7931	0.5735	0.292
Mof_Cu	Cu	0.5596	0.638	0.7208	0.745
Mof_O 	O 	0.464	0.684	0.7323	-2.434
Mof_Cu	Cu	0.0532	0.8785	0.3012	0.142
Mof_O 	O 	0.962	0.832	0.292	1.964
Mof_O 	O 	0.903	0.7235	0.3046	-0.352
Mof_O 	O 	0.0779	0.7904	0.3529	-0.552
Mof_O 	O 	0.0531	0.6754	0.3086	-0.322
Mof_H 	H 	0.0904	0.6593	0.3285	0.237
Mof_O 	O 	0.0525	0.7269	0.4755	-0.41
Mof_O 	O 	0.9583	0.6651	0.438	-0.323
Mof_C 	C 	0.9582	0.7626	0.3094	0.452
Mof_C 	C 	0.0263	0.7353	0.349	-0.019
Mof_C 	C 	0.0097	0.7069	0.4265	0.291
Mof_Cu	Cu	0.0596	0.862	0.2792	0.744
Mof_O 	O 	0.964	0.816	0.2677	-2.416
Mof_Cu	Cu	0.1988	0.9468	0.3785	0.142
Mof_O 	O 	0.208	0.038	0.332	1.965
Mof_O 	O 	0.1954	0.097	0.2235	-0.352
Mof_O 	O 	0.1471	0.9221	0.2904	-0.552
Mof_O 	O 	0.1914	0.9469	0.1754	-0.323
Mof_H 	H 	0.1715	0.9096	0.1593	0.236
Mof_O 	O 	0.0245	0.9475	0.2269	-0.409
Mof_O 	O 	0.062	0.0417	0.1651	-0.319
Mof_C 	C 	0.1906	0.0418	0.2626	0.454
Mof_C 	C 	0.151	0.9737	0.2353	-0.02
Mof_C 	C 	0.0735	0.9903	0.2069	0.287
Mof_Cu	Cu	0.2208	0.9404	0.362	0.744
Mof_O 	O 	0.2323	0.036	0.316	-2.416
Mof_Cu	Cu	0.8012	0.4468	0.1215	0.141
Mof_O 	O 	0.792	0.538	0.168	1.98
Mof_O 	O 	0.8046	0.597	0.2765	-0.353
Mof_O 	O 	0.8529	0.4221	0.2096	-0.552
Mof_O 	O 	0.8086	0.4469	0.3246	-0.322
Mof_H 	H 	0.8285	0.4096	0.3407	0.236
Mof_O 	O 	0.9755	0.4475	0.2731	-0.41
Mof_O 	O 	0.938	0.5417	0.3349	-0.324
Mof_C 	C 	0.8094	0.5418	0.2374	0.453
Mof_C 	C 	0.849	0.4737	0.2647	-0.019
Mof_C 	C 	0.9265	0.4903	0.2931	0.292
Mof_Cu	Cu	0.7792	0.4404	0.138	0.745
Mof_O 	O 	0.7677	0.536	0.184	-2.432
Mof_Cu	Cu	0.6988	0.5532	0.6215	0.141
Mof_O 	O 	0.708	0.462	0.668	1.982
Mof_O 	O 	0.6954	0.403	0.7765	-0.352
Mof_O 	O 	0.6471	0.5779	0.7096	-0.552
Mof_O 	O 	0.6914	0.5531	0.8246	-0.321
Mof_H 	H 	0.6715	0.5904	0.8407	0.236
Mof_O 	O 	0.5245	0.5525	0.7731	-0.41
Mof_O 	O 	0.562	0.4583	0.8349	-0.324
Mof_C 	C 	0.6906	0.4582	0.7374	0.453
Mof_C 	C 	0.651	0.5263	0.7647	-0.019
Mof_C 	C 	0.5735	0.5097	0.7931	0.292
Mof_Cu	Cu	0.7208	0.5596	0.638	0.745
Mof_O 	O 	0.7323	0.464	0.684	-2.434
Mof_Cu	Cu	0.3012	0.0532	0.8785	0.142
Mof_O 	O 	0.292	0.962	0.832	1.964
Mof_O 	O 	0.3046	0.903	0.7235	-0.352
Mof_O 	O 	0.3529	0.0779	0.7904	-0.552
Mof_O 	O 	0.3086	0.0531	0.6754	-0.322
Mof_H 	H 	0.3285	0.0904	0.6593	0.237
Mof_O 	O 	0.4755	0.0525	0.7269	-0.41
Mof_O 	O 	0.438	0.9583	0.6651	-0.323
Mof_C 	C 	0.3094	0.9582	0.7626	0.452
Mof_C 	C 	0.349	0.0263	0.7353	-0.019
Mof_C 	C 	0.4265	0.0097	0.7069	0.291
Mof_Cu	Cu	0.2792	0.0596	0.862	0.744
Mof_O 	O 	0.2677	0.964	0.816	-2.416
Mof_Cu	Cu	0.6215	0.8012	0.0532	0.142
Mof_O 	O 	0.668	0.792	0.962	1.965
Mof_O 	O 	0.7765	0.8046	0.903	-0.352
Mof_O 	O 	0.7096	0.8529	0.0779	-0.552
Mof_O 	O 	0.8246	0.8086	0.0531	-0.323
Mof_H 	H 	0.8407	0.8285	0.0904	0.236
Mof_O 	O 	0.7731	0.9755	0.0525	-0.409
Mof_O 	O 	0.8349	0.938	0.9583	-0.319
Mof_C 	C 	0.7374	0.8094	0.9582	0.454
Mof_C 	C 	0.7647	0.849	0.0263	-0.02
Mof_C 	C 	0.7931	0.9265	0.0097	0.287
Mof_Cu	Cu	0.638	0.7792	0.0596	0.744
Mof_O 	O 	0.684	0.7677	0.964	-2.416
Mof_Cu	Cu	0.8785	0.1988	0.5532	0.141
Mof_O 	O 	0.832	0.208	0.462	1.98
Mof_O 	O 	0.7235	0.1954	0.403	-0.353
Mof_O 	O 	0.7904	0.1471	0.5779	-0.552
Mof_O 	O 	0.6754	0.1914	0.5531	-0.322
Mof_H 	H 	0.6593	0.1715	0.5904	0.236
Mof_O 	O 	0.7269	0.0245	0.5525	-0.41
Mof_O 	O 	0.6651	0.062	0.4583	-0.324
Mof_C 	C 	0.7626	0.1906	0.4582	0.453
Mof_C 	C 	0.7353	0.151	0.5263	-0.019
Mof_C 	C 	0.7069	0.0735	0.5097	0.292
Mof_Cu	Cu	0.862	0.2208	0.5596	0.745
Mof_O 	O 	0.816	0.2323	0.464	-2.432
Mof_Cu	Cu	0.3785	0.3012	0.4468	0.141
Mof_O 	O 	0.332	0.292	0.538	1.982
Mof_O 	O 	0.2235	0.3046	0.597	-0.352
Mof_O 	O 	0.2904	0.3529	0.4221	-0.552
Mof_O 	O 	0.1754	0.3086	0.4469	-0.321
Mof_H 	H 	0.1593	0.3285	0.4096	0.236
Mof_O 	O 	0.2269	0.4755	0.4475	-0.41
Mof_O 	O 	0.1651	0.438	0.5417	-0.324
Mof_C 	C 	0.2626	0.3094	0.5418	0.453
Mof_C 	C 	0.2353	0.349	0.4737	-0.019
Mof_C 	C 	0.2069	0.4265	0.4903	0.292
Mof_Cu	Cu	0.362	0.2792	0.4404	0.745
Mof_O 	O 	0.316	0.2677	0.536	-2.434
Mof_Cu	Cu	0.1215	0.6988	0.9468	0.142
Mof_O 	O 	0.168	0.708	0.038	1.964
Mof_O 	O 	0.2765	0.6954	0.097	-0.352
Mof_O 	O 	0.2096	0.6471	0.9221	-0.552
Mof_O 	O 	0.3246	0.6914	0.9469	-0.322
Mof_H 	H 	0.3407	0.6715	0.9096	0.237
Mof_O 	O 	0.2731	0.5245	0.9475	-0.41
Mof_O 	O 	0.3349	0.562	0.0417	-0.323
Mof_C 	C 	0.2374	0.6906	0.0418	0.452
Mof_C 	C 	0.2647	0.651	0.9737	-0.019
Mof_C 	C 	0.2931	0.5735	0.9903	0.291
Mof_Cu	Cu	0.138	0.7208	0.9404	0.744
Mof_O 	O 	0.184	0.7323	0.036	-2.416
Mof_Cu	Cu	0.0532	0.6215	0.8012	0.142
Mof_O 	O 	0.962	0.668	0.792	1.965
Mof_O 	O 	0.903	0.7765	0.8046	-0.352
Mof_O 	O 	0.0779	0.7096	0.8529	-0.552
Mof_O 	O 	0.0531	0.8246	0.8086	-0.323
Mof_H 	H 	0.0904	0.8407	0.8285	0.236
Mof_O 	O 	0.0525	0.7731	0.9755	-0.409
Mof_O 	O 	0.9583	0.8349	0.938	-0.319
Mof_C 	C 	0.9582	0.7374	0.8094	0.454
Mof_C 	C 	0.0263	0.7647	0.849	-0.02
Mof_C 	C 	0.0097	0.7931	0.9265	0.287
Mof_Cu	Cu	0.0596	0.638	0.7792	0.744
Mof_O 	O 	0.964	0.684	0.7677	-2.416
Mof_Cu	Cu	0.5532	0.8785	0.1988	0.141
Mof_O 	O 	0.462	0.832	0.208	1.98
Mof_O 	O 	0.403	0.7235	0.1954	-0.353
Mof_O 	O 	0.5779	0.7904	0.1471	-0.552
Mof_O 	O 	0.5531	0.6754	0.1914	-0.322
Mof_H 	H 	0.5904	0.6593	0.1715	0.236
Mof_O 	O 	0.5525	0.7269	0.0245	-0.41
Mof_O 	O 	0.4583	0.6651	0.062	-0.324
Mof_C 	C 	0.4582	0.7626	0.1906	0.453
Mof_C 	C 	0.5263	0.7353	0.151	-0.019
Mof_C 	C 	0.5097	0.7069	0.0735	0.292
Mof_Cu	Cu	0.5596	0.862	0.2208	0.745
Mof_O 	O 	0.464	0.816	0.2323	-2.432
Mof_Cu	Cu	0.4468	0.3785	0.3012	0.141
Mof_O 	O 	0.538	0.332	0.292	1.982
Mof_O 	O 	0.597	0.2235	0.3046	-0.352
Mof_O 	O 	0.4221	0.2904	0.3529	-0.552
Mof_O 	O 	0.4469	0.1754	0.3086	-0.321
Mof_H 	H 	0.4096	0.1593	0.3285	0.236
Mof_O 	O 	0.4475	0.2269	0.4755	-0.41
Mof_O 	O 	0.5417	0.1651	0.438	-0.324
Mof_C 	C 	0.5418	0.2626	0.3094	0.453
Mof_C 	C 	0.4737	0.2353	0.349	-0.019
Mof_C 	C 	0.4903	0.2069	0.4265	0.292
Mof_Cu	Cu	0.4404	0.362	0.2792	0.745
Mof_O 	O 	0.536	0.316	0.2677	-2.434
Mof_Cu	Cu	0.9468	0.1215	0.6988	0.142
Mof_O 	O 	0.038	0.168	0.708	1.964
Mof_O 	O 	0.097	0.2765	0.6954	-0.352
Mof_O 	O 	0.9221	0.2096	0.6471	-0.552
Mof_O 	O 	0.9469	0.3246	0.6914	-0.322
Mof_H 	H 	0.9096	0.3407	0.6715	0.237
Mof_O 	O 	0.9475	0.2731	0.5245	-0.41
Mof_O 	O 	0.0417	0.3349	0.562	-0.323
Mof_C 	C 	0.0418	0.2374	0.6906	0.452
Mof_C 	C 	0.9737	0.2647	0.651	-0.019
Mof_C 	C 	0.9903	0.2931	0.5735	0.291
Mof_Cu	Cu	0.9404	0.138	0.7208	0.744
Mof_O 	O 	0.036	0.184	0.7323	-2.416
Mof_Cu	Cu	0.8012	0.0532	0.6215	0.142
Mof_O 	O 	0.792	0.962	0.668	1.965
Mof_O 	O 	0.8046	0.903	0.7765	-0.352
Mof_O 	O 	0.8529	0.0779	0.7096	-0.552
Mof_O 	O 	0.8086	0.0531	0.8246	-0.323
Mof_H 	H 	0.8285	0.0904	0.8407	0.236
Mof_O 	O 	0.9755	0.0525	0.7731	-0.409
Mof_O 	O 	0.938	0.9583	0.8349	-0.319
Mof_C 	C 	0.8094	0.9582	0.7374	0.454
Mof_C 	C 	0.849	0.0263	0.7647	-0.02
Mof_C 	C 	0.9265	0.0097	0.7931	0.287
Mof_Cu	Cu	0.7792	0.0596	0.638	0.744
Mof_O 	O 	0.7677	0.964	0.684	-2.416
Mof_Cu	Cu	0.1988	0.5532	0.8785	0.141
Mof_O 	O 	0.208	0.462	0.832	1.98
Mof_O 	O 	0.1954	0.403	0.7235	-0.353
Mof_O 	O 	0.1471	0.5779	0.7904	-0.552
Mof_O 	O 	0.1914	0.5531	0.6754	-0.322
Mof_H 	H 	0.1715	0.5904	0.6593	0.236
Mof_O 	O 	0.0245	0.5525	0.7269	-0.41
Mof_O 	O 	0.062	0.4583	0.6651	-0.324
Mof_C 	C 	0.1906	0.4582	0.7626	0.453
Mof_C 	C 	0.151	0.5263	0.7353	-0.019
Mof_C 	C 	0.0735	0.5097	0.7069	0.292
Mof_Cu	Cu	0.2208	0.5596	0.862	0.745
Mof_O 	O 	0.2323	0.464	0.816	-2.432
Mof_Cu	Cu	0.3012	0.4468	0.3785	0.141
Mof_O 	O 	0.292	0.538	0.332	1.982
Mof_O 	O 	0.3046	0.597	0.2235	-0.352
Mof_O 	O 	0.3529	0.4221	0.2904	-0.552
Mof_O 	O 	0.3086	0.4469	0.1754	-0.321
Mof_H 	H 	0.3285	0.4096	0.1593	0.236
Mof_O 	O 	0.4755	0.4475	0.2269	-0.41
Mof_O 	O 	0.438	0.5417	0.1651	-0.324
Mof_C 	C 	0.3094	0.5418	0.2626	0.453
Mof_C 	C 	0.349	0.4737	0.2353	-0.019
Mof_C 	C 	0.4265	0.4903	0.2069	0.292
Mof_Cu	Cu	0.2792	0.4404	0.362	0.745
Mof_O 	O 	0.2677	0.536	0.316	-2.434
Mof_Cu	Cu	0.6988	0.9468	0.1215	0.142
Mof_O 	O 	0.708	0.038	0.168	1.964
Mof_O 	O 	0.6954	0.097	0.2765	-0.352
Mof_O 	O 	0.6471	0.9221	0.2096	-0.552
Mof_O 	O 	0.6914	0.9469	0.3246	-0.322
Mof_H 	H 	0.6715	0.9096	0.3407	0.237
Mof_O 	O 	0.5245	0.9475	0.2731	-0.41
Mof_O 	O 	0.562	0.0417	0.3349	-0.323
Mof_C 	C 	0.6906	0.0418	0.2374	0.452
Mof_C 	C 	0.651	0.9737	0.2647	-0.019
Mof_C 	C 	0.5735	0.9903	0.2931	0.291
Mof_Cu	Cu	0.7208	0.9404	0.138	0.744
Mof_O 	O 	0.7323	0.036	0.184	-2.416
Mof_Mn	Mn	0.13092	0.13092	0.13092	1.011
Mof_Mn	Mn	0.36908	0.86908	0.63092	1.01
Mof_Mn	Mn	0.86908	0.63092	0.36908	1.01
Mof_Mn	Mn	0.63092	0.36908	0.86908	1.01
Mof_Mn	Mn	0.86908	0.86908	0.86908	1.011
Mof_Mn	Mn	0.63092	0.13092	0.36908	1.01
Mof_Mn	Mn	0.13092	0.36908	0.63092	1.01
Mof_Mn	Mn	0.36908	0.63092	0.13092	1.01
Mof_K 	K 	0.4366	0.0634	0.9366	0.681
Mof_K 	K 	0.0634	0.9366	0.4366	0.681
Mof_K 	K 	0.5634	0.5634	0.5634	0.682
Mof_K 	K 	0.9366	0.4366	0.0634	0.681
Mof_K 	K 	0.5634	0.9366	0.0634	0.681
Mof_K 	K 	0.9366	0.0634	0.5634	0.681
Mof_K 	K 	0.4366	0.4366	0.4366	0.682
Mof_K 	K 	0.0634	0.5634	0.9366	0.681
_end
