data_functionalizedCrystal
_audit_creation_method	'EQeq! by Chris Wilmer'
_symmetry_space_group_name_H-M	'P1'
_symmetry_Int_Tables_number	1
_symmetry_cell_setting	triclinic
loop_
_symmetry_equiv_pos_as_xyz
  x,y,z
_cell_length_a	20.0483
_cell_length_b	20.0481
_cell_length_c	20.0481
_cell_angle_alpha	109.471
_cell_angle_beta	109.471
_cell_angle_gamma	109.471
loop_
_atom_site_label
_atom_site_type_symbol
_atom_site_fract_x
_atom_site_fract_y
_atom_site_fract_z
_atom_site_charge
Mof_Co	Co	0.5	0	-0	1.162
Mof_Co	Co	-3.66551e-17	3.66551e-17	0.5	1.162
Mof_Co	Co	-3.66551e-17	0.5	-0	1.162
Mof_Co	Co	0.5	0.5	0.5	1.198
Mof_H 	H 	0.5746	0.0932	0.1934	0.045
Mof_H 	H 	0.8498	0.726	0.6642	0.071
Mof_H 	H 	0.1856	0.3358	0.0618	0.03
Mof_H 	H 	0.6642	0.9382	0.8144	0.104
Mof_H 	H 	0.6372	0.6663	0.7459	0.034
Mof_H 	H 	0.0932	0.5186	0.8998	0.047
Mof_H 	H 	0.274	0.1238	0.9382	0.096
Mof_H 	H 	0.3867	0.1091	0.8104	0.075
Mof_H 	H 	0.4237	0.7224	0.6133	0.064
Mof_H 	H 	0.6133	0.8909	0.1896	0.064
Mof_H 	H 	0.274	0.3358	0.1502	0.063
Mof_H 	H 	0.1002	0.6188	0.1934	0.043
Mof_H 	H 	0.3358	0.1502	0.274	0.063
Mof_H 	H 	0.8104	0.7013	0.4237	0.078
Mof_H 	H 	0.2987	0.1091	0.7224	0.059
Mof_H 	H 	0.3358	0.0618	0.1856	0.029
Mof_H 	H 	0.1502	0.8144	0.8762	0.074
Mof_H 	H 	0.9068	0.8066	0.4254	0.042
Mof_H 	H 	0.8913	0.9709	0.6372	0.093
Mof_H 	H 	0.3867	0.5763	0.2776	0.073
Mof_H 	H 	0.6372	0.8913	0.9709	0.093
Mof_H 	H 	0.3628	0.1087	0.0291	-0.041
Mof_H 	H 	0.2541	0.3628	0.3337	0.022
Mof_H 	H 	0.8066	0.8998	0.3812	0.043
Mof_H 	H 	0.2776	0.7013	0.8909	0.078
Mof_H 	H 	0.7013	0.4237	0.8104	0.078
Mof_H 	H 	0.726	0.8762	0.0618	0.042
Mof_H 	H 	0.8144	0.6642	0.9382	0.103
Mof_H 	H 	0.4254	0.6188	0.5186	0.044
Mof_H 	H 	0.1091	0.7224	0.2987	0.059
Mof_H 	H 	0.1896	0.2987	0.5763	0.059
Mof_H 	H 	0.6188	0.1934	0.1002	0.043
Mof_H 	H 	0.1934	0.1002	0.6188	0.043
Mof_H 	H 	0.6642	0.8498	0.726	0.07
Mof_H 	H 	0.7224	0.6133	0.4237	0.064
Mof_H 	H 	0.6188	0.5186	0.4254	0.044
Mof_H 	H 	0.5186	0.8998	0.0932	0.046
Mof_H 	H 	0.5763	0.2776	0.3867	0.073
Mof_H 	H 	0.8998	0.0932	0.5186	0.046
Mof_H 	H 	0.2541	0.9204	0.8913	0.036
Mof_H 	H 	0.8998	0.3812	0.8066	0.043
Mof_H 	H 	0.9068	0.4814	0.1002	0.04
Mof_H 	H 	0.6663	0.0291	0.9204	-0.024
Mof_H 	H 	0.9709	0.6372	0.8913	0.093
Mof_H 	H 	0.1934	0.5746	0.0932	0.044
Mof_H 	H 	0.5763	0.1896	0.2987	0.059
Mof_H 	H 	0.1087	0.0291	0.3628	-0.041
Mof_H 	H 	0.9382	0.8144	0.6642	0.103
Mof_H 	H 	0.3337	0.9709	0.0796	0.084
Mof_H 	H 	0.8104	0.3867	0.1091	0.074
Mof_H 	H 	0.4814	0.1002	0.9068	0.04
Mof_H 	H 	0.5746	0.3812	0.4814	0.042
Mof_H 	H 	0.1502	0.274	0.3358	0.063
Mof_H 	H 	0.1896	0.6133	0.8909	0.064
Mof_H 	H 	0.0291	0.3628	0.1087	-0.041
Mof_H 	H 	0.3812	0.4814	0.5746	0.042
Mof_H 	H 	0.8762	0.1502	0.8144	0.074
Mof_H 	H 	0.726	0.6642	0.8498	0.07
Mof_H 	H 	0.3337	0.2541	0.3628	0.022
Mof_H 	H 	0.8762	0.0618	0.726	0.042
Mof_H 	H 	0.0796	0.3337	0.9709	0.084
Mof_H 	H 	0.8498	0.1856	0.1238	0.06
Mof_H 	H 	0.4254	0.9068	0.8066	0.042
Mof_H 	H 	0.7013	0.8909	0.2776	0.078
Mof_H 	H 	0.8144	0.8762	0.1502	0.074
Mof_H 	H 	0.0932	0.1934	0.5746	0.044
Mof_H 	H 	0.8909	0.1896	0.6133	0.064
Mof_H 	H 	0.8066	0.4254	0.9068	0.042
Mof_H 	H 	0.0796	0.1087	0.7459	0.02
Mof_H 	H 	0.9204	0.6663	0.0291	-0.024
Mof_H 	H 	0.0618	0.1856	0.3358	0.029
Mof_H 	H 	0.7224	0.2987	0.1091	0.059
Mof_H 	H 	0.4237	0.8104	0.7013	0.078
Mof_H 	H 	0.7459	0.6372	0.6663	0.033
Mof_H 	H 	0.9382	0.274	0.1238	0.095
Mof_H 	H 	0.1238	0.9382	0.274	0.095
Mof_H 	H 	0.1238	0.8498	0.1856	0.06
Mof_H 	H 	0.2776	0.3867	0.5763	0.073
Mof_H 	H 	0.1856	0.1238	0.8498	0.06
Mof_H 	H 	0.2987	0.5763	0.1896	0.059
Mof_H 	H 	0.0291	0.9204	0.6663	-0.024
Mof_H 	H 	0.6133	0.4237	0.7224	0.064
Mof_H 	H 	0.0618	0.726	0.8762	0.042
Mof_H 	H 	0.5186	0.4254	0.6188	0.044
Mof_H 	H 	0.7459	0.0796	0.1087	0.02
Mof_H 	H 	0.4814	0.5746	0.3812	0.042
Mof_H 	H 	0.9709	0.0796	0.3337	0.084
Mof_H 	H 	0.9204	0.8913	0.2541	0.036
Mof_H 	H 	0.1002	0.9068	0.4814	0.04
Mof_H 	H 	0.8913	0.2541	0.9204	0.036
Mof_H 	H 	0.3812	0.8066	0.8998	0.043
Mof_H 	H 	0.1091	0.8104	0.3867	0.074
Mof_H 	H 	0.1087	0.7459	0.0796	0.02
Mof_H 	H 	0.8909	0.2776	0.7013	0.078
Mof_H 	H 	0.6663	0.7459	0.6372	0.033
Mof_H 	H 	0.3628	0.3337	0.2541	0.022
Mof_C 	C 	0.52573	0.08734	0.19107	0.015
Mof_C 	C 	0.2542	0.5266	0.1456	-0.073
Mof_C 	C 	0.10373	0.66534	0.19107	0.021
Mof_C 	C 	0.88366	0.19806	0.8134	-0.122
Mof_C 	C 	0.1086	0.8544	0.381	-0.125
Mof_C 	C 	0.6314	0.6167	0.7411	0.051
Mof_C 	C 	0.25172	0.1127	0.79522	0.027
Mof_C 	C 	0.8873	0.20478	0.74828	0.069
Mof_C 	C 	0.08734	0.56161	0.89627	0.026
Mof_C 	C 	0.6167	0.7411	0.6314	0.051
Mof_C 	C 	0.6167	0.9853	0.8756	0.16
Mof_C 	C 	0.43839	0.52573	0.33466	0.039
Mof_C 	C 	0.8914	0.2724	0.7458	-0.109
Mof_C 	C 	0.13902	0.68252	0.8873	0.018
Mof_C 	C 	0.381	0.5266	0.2724	-0.11
Mof_C 	C 	0.8756	0.6167	0.9853	0.16
Mof_C 	C 	0.07026	0.6856	0.88366	-0.048
Mof_C 	C 	0.3833	0.2589	0.3686	0.057
Mof_C 	C 	0.61534	0.80194	0.6856	-0.101
Mof_C 	C 	0.66534	0.19107	0.10373	0.021
Mof_C 	C 	0.19107	0.52573	0.08734	0.015
Mof_C 	C 	0.61534	0.92974	0.8134	-0.174
Mof_C 	C 	0.3144	0.38466	0.19806	-0.124
Mof_C 	C 	0.7411	0.1244	0.1097	0.042
Mof_C 	C 	0.56161	0.89627	0.08734	0.026
Mof_C 	C 	0.47427	0.66534	0.56161	0.031
Mof_C 	C 	0.07026	0.1866	0.38466	-0.046
Mof_C 	C 	0.2724	0.381	0.5266	-0.11
Mof_C 	C 	0.2724	0.7458	0.8914	-0.109
Mof_C 	C 	0.11634	0.92974	0.3144	-0.181
Mof_C 	C 	0.4565	0.20478	0.31748	0.062
Mof_C 	C 	0.3833	0.0147	0.1244	-0.058
Mof_C 	C 	0.79522	0.68252	0.5435	0.035
Mof_C 	C 	0.619	0.4734	0.7276	-0.087
Mof_C 	C 	0.20478	0.31748	0.4565	0.062
Mof_C 	C 	0.1866	0.11634	0.80194	-0.102
Mof_C 	C 	0.2542	0.1086	0.7276	-0.087
Mof_C 	C 	0.3144	0.11634	0.92974	-0.181
Mof_C 	C 	0.619	0.8914	0.1456	-0.074
Mof_C 	C 	0.25172	0.4565	0.13902	0.009
Mof_C 	C 	0.381	0.1086	0.8544	-0.125
Mof_C 	C 	0.33466	0.43839	0.52573	0.039
Mof_C 	C 	0.86098	0.74828	0.5435	0.086
Mof_C 	C 	0.5266	0.2724	0.381	-0.11
Mof_C 	C 	0.80194	0.1866	0.11634	-0.102
Mof_C 	C 	0.08734	0.19107	0.52573	0.015
Mof_C 	C 	0.66534	0.56161	0.47427	0.031
Mof_C 	C 	0.68252	0.5435	0.79522	0.035
Mof_C 	C 	0.91266	0.80893	0.47427	0.055
Mof_C 	C 	0.2589	0.8756	0.8903	0.067
Mof_C 	C 	0.7276	0.2542	0.1086	-0.087
Mof_C 	C 	0.79522	0.25172	0.1127	0.027
Mof_C 	C 	0.31748	0.4565	0.20478	0.062
Mof_C 	C 	0.6314	0.8903	0.0147	-0.042
Mof_C 	C 	0.80893	0.89627	0.33466	0.049
Mof_C 	C 	0.1866	0.38466	0.07026	-0.046
Mof_C 	C 	0.13902	0.25172	0.4565	0.009
Mof_C 	C 	0.38466	0.07026	0.1866	-0.046
Mof_C 	C 	0.5435	0.86098	0.74828	0.086
Mof_C 	C 	0.47427	0.91266	0.80893	0.055
Mof_C 	C 	0.8903	0.0147	0.6314	-0.042
Mof_C 	C 	0.8873	0.13902	0.68252	0.018
Mof_C 	C 	0.7458	0.4734	0.8544	-0.123
Mof_C 	C 	0.6856	0.61534	0.80194	-0.101
Mof_C 	C 	0.5266	0.1456	0.2542	-0.073
Mof_C 	C 	0.9853	0.3686	0.1097	0.159
Mof_C 	C 	0.8134	0.61534	0.92974	-0.174
Mof_C 	C 	0.11634	0.80194	0.1866	-0.102
Mof_C 	C 	0.3686	0.3833	0.2589	0.057
Mof_C 	C 	0.86098	0.31748	0.1127	0.081
Mof_C 	C 	0.74828	0.8873	0.20478	0.069
Mof_C 	C 	0.19806	0.3144	0.38466	-0.124
Mof_C 	C 	0.9853	0.8756	0.6167	0.16
Mof_C 	C 	0.1097	0.7411	0.1244	0.042
Mof_C 	C 	0.91266	0.43839	0.10373	0.047
Mof_C 	C 	0.7276	0.619	0.4734	-0.087
Mof_C 	C 	0.8544	0.7458	0.4734	-0.123
Mof_C 	C 	0.1244	0.3833	0.0147	-0.058
Mof_C 	C 	0.8903	0.2589	0.8756	0.067
Mof_C 	C 	0.38466	0.19806	0.3144	-0.124
Mof_C 	C 	0.1456	0.2542	0.5266	-0.073
Mof_C 	C 	0.88366	0.07026	0.6856	-0.048
Mof_C 	C 	0.1127	0.86098	0.31748	0.081
Mof_C 	C 	0.1127	0.79522	0.25172	0.027
Mof_C 	C 	0.1097	0.9853	0.3686	0.159
Mof_C 	C 	0.92974	0.8134	0.61534	-0.174
Mof_C 	C 	0.4734	0.8544	0.7458	-0.123
Mof_C 	C 	0.52573	0.33466	0.43839	0.039
Mof_C 	C 	0.33466	0.80893	0.89627	0.049
Mof_C 	C 	0.1456	0.619	0.8914	-0.074
Mof_C 	C 	0.19107	0.10373	0.66534	0.021
Mof_C 	C 	0.0147	0.6314	0.8903	-0.042
Mof_C 	C 	0.4734	0.7276	0.619	-0.087
Mof_C 	C 	0.20478	0.74828	0.8873	0.069
Mof_C 	C 	0.89627	0.08734	0.56161	0.026
Mof_C 	C 	0.4565	0.13902	0.25172	0.009
Mof_C 	C 	0.5435	0.79522	0.68252	0.035
Mof_C 	C 	0.8756	0.8903	0.2589	0.067
Mof_C 	C 	0.19806	0.8134	0.88366	-0.122
Mof_C 	C 	0.80194	0.6856	0.61534	-0.101
Mof_C 	C 	0.80893	0.47427	0.91266	0.055
Mof_C 	C 	0.7411	0.6314	0.6167	0.051
Mof_C 	C 	0.2589	0.3686	0.3833	0.057
Mof_C 	C 	0.31748	0.1127	0.86098	0.081
Mof_C 	C 	0.89627	0.33466	0.80893	0.049
Mof_C 	C 	0.3686	0.1097	0.9853	0.159
Mof_C 	C 	0.8914	0.1456	0.619	-0.074
Mof_C 	C 	0.74828	0.5435	0.86098	0.086
Mof_C 	C 	0.10373	0.91266	0.43839	0.047
Mof_C 	C 	0.8544	0.381	0.1086	-0.125
Mof_C 	C 	0.8134	0.88366	0.19806	-0.122
Mof_C 	C 	0.0147	0.1244	0.3833	-0.058
Mof_C 	C 	0.1086	0.7276	0.2542	-0.087
Mof_C 	C 	0.7458	0.8914	0.2724	-0.109
Mof_C 	C 	0.56161	0.47427	0.66534	0.031
Mof_C 	C 	0.68252	0.8873	0.13902	0.018
Mof_C 	C 	0.1244	0.1097	0.7411	0.042
Mof_C 	C 	0.6856	0.88366	0.07026	-0.048
Mof_C 	C 	0.92974	0.3144	0.11634	-0.181
Mof_C 	C 	0.43839	0.10373	0.91266	0.047
Mof_N 	N 	0.12767	0.10422	0.67261	-0.067
Mof_N 	N 	0.87233	0.89578	0.32739	-0.07
Mof_N 	N 	0.45506	0.32739	0.43161	-0.071
Mof_N 	N 	0.67261	0.12767	0.10422	-0.067
Mof_N 	N 	0.32739	0.87233	0.89578	-0.07
Mof_N 	N 	0.10422	0.97655	0.43161	-0.072
Mof_N 	N 	0.67261	0.56839	0.54494	-0.067
Mof_N 	N 	0.97655	0.43161	0.10422	-0.072
Mof_N 	N 	0.87233	0.54494	0.97655	-0.071
Mof_N 	N 	0.54494	0.67261	0.56839	-0.067
Mof_N 	N 	0.89578	0.32739	0.87233	-0.07
Mof_N 	N 	0.56839	0.54494	0.67261	-0.067
Mof_N 	N 	0.10422	0.67261	0.12767	-0.067
Mof_N 	N 	0.02345	0.56839	0.89578	-0.067
Mof_N 	N 	0.89578	0.02345	0.56839	-0.067
Mof_N 	N 	0.32739	0.43161	0.45506	-0.071
Mof_N 	N 	0.12767	0.45506	0.02345	-0.067
Mof_N 	N 	0.56839	0.89578	0.02345	-0.067
Mof_N 	N 	0.43161	0.45506	0.32739	-0.071
Mof_N 	N 	0.43161	0.10422	0.97655	-0.072
Mof_N 	N 	0.02345	0.12767	0.45506	-0.067
Mof_N 	N 	0.45506	0.02345	0.12767	-0.067
Mof_N 	N 	0.54494	0.97655	0.87233	-0.071
Mof_N 	N 	0.97655	0.87233	0.54494	-0.071
Mof_O 	O 	0.96547	0.51261	0.89848	-0.226
Mof_O 	O 	0.48739	0.45286	0.38587	-0.265
Mof_O 	O 	0.54714	0.61413	0.51261	-0.264
Mof_O 	O 	0.89848	0.96547	0.51261	-0.226
Mof_O 	O 	0.54714	0.03453	0.93301	-0.269
Mof_O 	O 	0.93301	0.54714	0.03453	-0.269
Mof_O 	O 	0.03453	0.93301	0.54714	-0.269
Mof_O 	O 	0.48739	0.10152	0.03453	-0.294
Mof_O 	O 	0.51261	0.54714	0.61413	-0.264
Mof_O 	O 	0.51261	0.89848	0.96547	-0.226
Mof_O 	O 	0.03453	0.48739	0.10152	-0.294
Mof_O 	O 	0.10152	0.61413	0.06699	-0.282
Mof_O 	O 	0.06699	0.10152	0.61413	-0.282
Mof_O 	O 	0.89848	0.38587	0.93301	-0.237
Mof_O 	O 	0.38587	0.93301	0.89848	-0.237
Mof_O 	O 	0.06699	0.45286	0.96547	-0.247
Mof_O 	O 	0.96547	0.06699	0.45286	-0.247
Mof_O 	O 	0.61413	0.06699	0.10152	-0.282
Mof_O 	O 	0.45286	0.38587	0.48739	-0.265
Mof_O 	O 	0.93301	0.89848	0.38587	-0.237
Mof_O 	O 	0.61413	0.51261	0.54714	-0.264
Mof_O 	O 	0.10152	0.03453	0.48739	-0.294
Mof_O 	O 	0.38587	0.48739	0.45286	-0.265
Mof_O 	O 	0.45286	0.96547	0.06699	-0.247
_end
