data_functionalizedCrystal
_audit_creation_method	'EQeq! by Chris Wilmer'
_symmetry_space_group_name_H-M	'P1'
_symmetry_Int_Tables_number	1
_symmetry_cell_setting	triclinic
loop_
_symmetry_equiv_pos_as_xyz
  x,y,z
_cell_length_a	13.707
_cell_length_b	17.121
_cell_length_c	36.018
_cell_angle_alpha	90
_cell_angle_beta	90
_cell_angle_gamma	90
loop_
_atom_site_label
_atom_site_type_symbol
_atom_site_fract_x
_atom_site_fract_y
_atom_site_fract_z
_atom_site_charge
Mof_Zn	Zn	0.13536	0.36494	0.1531	1.235
Mof_Zn	Zn	0.98659	0.35277	0.07217	1.236
Mof_Zn	Zn	0.92631	0.15834	0.12795	1.234
Mof_Zn	Zn	0.36464	0.63506	0.6531	1.235
Mof_Zn	Zn	0.51341	0.64723	0.57217	1.236
Mof_Zn	Zn	0.57369	0.84166	0.62795	1.235
Mof_Zn	Zn	0.86464	0.86494	0.3469	1.235
Mof_Zn	Zn	0.01341	0.85277	0.42783	1.234
Mof_Zn	Zn	0.07369	0.65834	0.37205	1.235
Mof_Zn	Zn	0.63536	0.13506	0.8469	1.235
Mof_Zn	Zn	0.48659	0.14723	0.92783	1.236
Mof_Zn	Zn	0.42631	0.34166	0.87205	1.235
Mof_Zn	Zn	0.86464	0.63506	0.8469	1.235
Mof_Zn	Zn	0.01341	0.64723	0.92783	1.236
Mof_Zn	Zn	0.07369	0.84166	0.87205	1.234
Mof_Zn	Zn	0.63536	0.36494	0.3469	1.235
Mof_Zn	Zn	0.48659	0.35277	0.42783	1.236
Mof_Zn	Zn	0.42631	0.15834	0.37205	1.235
Mof_Zn	Zn	0.13536	0.13506	0.6531	1.235
Mof_Zn	Zn	0.98659	0.14723	0.57217	1.234
Mof_Zn	Zn	0.92631	0.34166	0.62795	1.235
Mof_Zn	Zn	0.36464	0.86494	0.1531	1.235
Mof_Zn	Zn	0.51341	0.85277	0.07217	1.236
Mof_Zn	Zn	0.57369	0.65834	0.12795	1.235
Mof_P 	P 	0.90207	0.3326	0.1486	0.476
Mof_P 	P 	0.12499	0.21781	0.10306	0.456
Mof_P 	P 	0.59793	0.6674	0.6486	0.479
Mof_P 	P 	0.37501	0.78219	0.60306	0.457
Mof_P 	P 	0.09793	0.8326	0.3514	0.474
Mof_P 	P 	0.87501	0.71781	0.39694	0.456
Mof_P 	P 	0.40207	0.1674	0.8514	0.478
Mof_P 	P 	0.62499	0.28219	0.89694	0.456
Mof_P 	P 	0.09793	0.6674	0.8514	0.476
Mof_P 	P 	0.87501	0.78219	0.89694	0.456
Mof_P 	P 	0.40207	0.3326	0.3514	0.479
Mof_P 	P 	0.62499	0.21781	0.39694	0.457
Mof_P 	P 	0.90207	0.1674	0.6486	0.474
Mof_P 	P 	0.12499	0.28219	0.60306	0.456
Mof_P 	P 	0.59793	0.8326	0.1486	0.478
Mof_P 	P 	0.37501	0.71781	0.10306	0.456
Mof_H 	H 	0.8494	0.3177	0.2231	0.041
Mof_H 	H 	0.6466	0.4794	0.2436	-0.003
Mof_H 	H 	0.762	0.4588	0.1417	0.041
Mof_H 	H 	0.2308	0.2351	0.0344	0.04
Mof_H 	H 	0.4143	0.0523	0.0312	0.038
Mof_H 	H 	0.2306	0.0761	0.1164	0.015
Mof_H 	H 	0.6506	0.6823	0.7231	0.042
Mof_H 	H 	0.8534	0.5206	0.7436	-0.003
Mof_H 	H 	0.738	0.5412	0.6417	0.041
Mof_H 	H 	0.2692	0.7649	0.5344	0.039
Mof_H 	H 	0.0857	0.9477	0.5312	0.033
Mof_H 	H 	0.2694	0.9239	0.6164	0.011
Mof_H 	H 	0.1506	0.8177	0.2769	0.04
Mof_H 	H 	0.3534	0.9794	0.2564	-0.004
Mof_H 	H 	0.238	0.9588	0.3583	0.039
Mof_H 	H 	0.7692	0.7351	0.4656	0.04
Mof_H 	H 	0.5857	0.5523	0.4688	0.037
Mof_H 	H 	0.7694	0.5761	0.3836	0.013
Mof_H 	H 	0.3494	0.1823	0.7769	0.043
Mof_H 	H 	0.1466	0.0206	0.7564	0.004
Mof_H 	H 	0.262	0.0412	0.8583	0.044
Mof_H 	H 	0.7308	0.2649	0.9656	0.039
Mof_H 	H 	0.9143	0.4477	0.9688	0.037
Mof_H 	H 	0.7306	0.4239	0.8836	0.013
Mof_H 	H 	0.1506	0.6823	0.7769	0.041
Mof_H 	H 	0.3534	0.5206	0.7564	-0.003
Mof_H 	H 	0.238	0.5412	0.8583	0.041
Mof_H 	H 	0.7692	0.7649	0.9656	0.04
Mof_H 	H 	0.5857	0.9477	0.9688	0.038
Mof_H 	H 	0.7694	0.9239	0.8836	0.015
Mof_H 	H 	0.3494	0.3177	0.2769	0.042
Mof_H 	H 	0.1466	0.4794	0.2564	-0.003
Mof_H 	H 	0.262	0.4588	0.3583	0.041
Mof_H 	H 	0.7308	0.2351	0.4656	0.039
Mof_H 	H 	0.9143	0.0523	0.4688	0.033
Mof_H 	H 	0.7306	0.0761	0.3836	0.011
Mof_H 	H 	0.8494	0.1823	0.7231	0.04
Mof_H 	H 	0.6466	0.0206	0.7436	-0.004
Mof_H 	H 	0.762	0.0412	0.6417	0.039
Mof_H 	H 	0.2308	0.2649	0.5344	0.04
Mof_H 	H 	0.4143	0.4477	0.5312	0.037
Mof_H 	H 	0.2306	0.4239	0.6164	0.013
Mof_H 	H 	0.6506	0.8177	0.2231	0.043
Mof_H 	H 	0.8534	0.9794	0.2436	0.004
Mof_H 	H 	0.738	0.9588	0.1417	0.044
Mof_H 	H 	0.2692	0.7351	0.0344	0.039
Mof_H 	H 	0.0857	0.5523	0.0312	0.037
Mof_H 	H 	0.2694	0.5761	0.1164	0.013
Mof_C 	C 	0.8179	0.3824	0.1782	-0.107
Mof_C 	C 	0.8111	0.3591	0.215	0.033
Mof_C 	C 	0.7494	0.3953	0.2398	-0.213
Mof_C 	C 	0.6895	0.4551	0.2272	0.045
Mof_C 	C 	0.6932	0.4789	0.1906	-0.135
Mof_C 	C 	0.7585	0.4424	0.1663	0.03
Mof_C 	C 	0.7452	0.3682	0.2797	0.363
Mof_C 	C 	0.631	0.5456	0.1778	0.349
Mof_C 	C 	0.2181	0.1631	0.0792	-0.098
Mof_C 	C 	0.2554	0.1897	0.045	0.049
Mof_C 	C 	0.3295	0.1478	0.0271	-0.123
Mof_C 	C 	0.365	0.0801	0.043	0.082
Mof_C 	C 	0.3281	0.0529	0.0765	-0.169
Mof_C 	C 	0.2554	0.0945	0.094	0.073
Mof_C 	C 	0.3701	0.175	0.9904	0.377
Mof_C 	C 	0.3657	0.9787	0.0922	0.455
Mof_C 	C 	0.6821	0.6176	0.6782	-0.107
Mof_C 	C 	0.6889	0.6409	0.715	0.033
Mof_C 	C 	0.7506	0.6047	0.7398	-0.212
Mof_C 	C 	0.8105	0.5449	0.7272	0.045
Mof_C 	C 	0.8068	0.5211	0.6906	-0.135
Mof_C 	C 	0.7415	0.5576	0.6663	0.03
Mof_C 	C 	0.7548	0.6318	0.7797	0.363
Mof_C 	C 	0.869	0.4544	0.6778	0.35
Mof_C 	C 	0.2819	0.8369	0.5792	-0.103
Mof_C 	C 	0.2446	0.8103	0.545	0.053
Mof_C 	C 	0.1705	0.8522	0.5271	-0.128
Mof_C 	C 	0.135	0.9199	0.543	0.09
Mof_C 	C 	0.1719	0.9471	0.5765	-0.183
Mof_C 	C 	0.2446	0.9055	0.594	0.081
Mof_C 	C 	0.1299	0.825	0.4904	0.378
Mof_C 	C 	0.1343	0.0213	0.5922	0.467
Mof_C 	C 	0.1821	0.8824	0.3218	-0.109
Mof_C 	C 	0.1889	0.8591	0.285	0.034
Mof_C 	C 	0.2506	0.8953	0.2602	-0.214
Mof_C 	C 	0.3105	0.9551	0.2728	0.046
Mof_C 	C 	0.3068	0.9789	0.3094	-0.14
Mof_C 	C 	0.2415	0.9424	0.3337	0.032
Mof_C 	C 	0.2548	0.8682	0.2203	0.363
Mof_C 	C 	0.369	0.0456	0.3222	0.353
Mof_C 	C 	0.7819	0.6631	0.4208	-0.099
Mof_C 	C 	0.7446	0.6897	0.455	0.05
Mof_C 	C 	0.6705	0.6478	0.4729	-0.124
Mof_C 	C 	0.635	0.5801	0.457	0.084
Mof_C 	C 	0.6719	0.5529	0.4235	-0.173
Mof_C 	C 	0.7446	0.5945	0.406	0.075
Mof_C 	C 	0.6299	0.675	0.5096	0.377
Mof_C 	C 	0.6343	0.4787	0.4078	0.459
Mof_C 	C 	0.3179	0.1176	0.8218	-0.103
Mof_C 	C 	0.3111	0.1409	0.785	0.03
Mof_C 	C 	0.2494	0.1047	0.7602	-0.206
Mof_C 	C 	0.1895	0.0449	0.7728	0.039
Mof_C 	C 	0.1932	0.0211	0.8094	-0.123
Mof_C 	C 	0.2585	0.0576	0.8337	0.024
Mof_C 	C 	0.2452	0.1318	0.7203	0.362
Mof_C 	C 	0.131	0.9544	0.8222	0.342
Mof_C 	C 	0.7181	0.3369	0.9208	-0.1
Mof_C 	C 	0.7554	0.3103	0.955	0.05
Mof_C 	C 	0.8295	0.3522	0.9729	-0.125
Mof_C 	C 	0.865	0.4199	0.957	0.084
Mof_C 	C 	0.8281	0.4471	0.9235	-0.173
Mof_C 	C 	0.7554	0.4055	0.906	0.075
Mof_C 	C 	0.8701	0.325	0.0096	0.377
Mof_C 	C 	0.8657	0.5213	0.9078	0.459
Mof_C 	C 	0.1821	0.6176	0.8218	-0.107
Mof_C 	C 	0.1889	0.6409	0.785	0.033
Mof_C 	C 	0.2506	0.6047	0.7602	-0.213
Mof_C 	C 	0.3105	0.5449	0.7728	0.045
Mof_C 	C 	0.3068	0.5211	0.8094	-0.135
Mof_C 	C 	0.2415	0.5576	0.8337	0.03
Mof_C 	C 	0.2548	0.6318	0.7203	0.363
Mof_C 	C 	0.369	0.4544	0.8222	0.349
Mof_C 	C 	0.7819	0.8369	0.9208	-0.098
Mof_C 	C 	0.7446	0.8103	0.955	0.049
Mof_C 	C 	0.6705	0.8522	0.9729	-0.123
Mof_C 	C 	0.635	0.9199	0.957	0.082
Mof_C 	C 	0.6719	0.9471	0.9235	-0.169
Mof_C 	C 	0.7446	0.9055	0.906	0.073
Mof_C 	C 	0.6299	0.825	0.0096	0.377
Mof_C 	C 	0.6343	0.0213	0.9078	0.455
Mof_C 	C 	0.3179	0.3824	0.3218	-0.107
Mof_C 	C 	0.3111	0.3591	0.285	0.033
Mof_C 	C 	0.2494	0.3953	0.2602	-0.212
Mof_C 	C 	0.1895	0.4551	0.2728	0.045
Mof_C 	C 	0.1932	0.4789	0.3094	-0.135
Mof_C 	C 	0.2585	0.4424	0.3337	0.03
Mof_C 	C 	0.2452	0.3682	0.2203	0.363
Mof_C 	C 	0.131	0.5456	0.3222	0.35
Mof_C 	C 	0.7181	0.1631	0.4208	-0.103
Mof_C 	C 	0.7554	0.1897	0.455	0.053
Mof_C 	C 	0.8295	0.1478	0.4729	-0.128
Mof_C 	C 	0.865	0.0801	0.457	0.09
Mof_C 	C 	0.8281	0.0529	0.4235	-0.183
Mof_C 	C 	0.7554	0.0945	0.406	0.081
Mof_C 	C 	0.8701	0.175	0.5096	0.378
Mof_C 	C 	0.8657	0.9787	0.4078	0.467
Mof_C 	C 	0.8179	0.1176	0.6782	-0.109
Mof_C 	C 	0.8111	0.1409	0.715	0.034
Mof_C 	C 	0.7494	0.1047	0.7398	-0.214
Mof_C 	C 	0.6895	0.0449	0.7272	0.046
Mof_C 	C 	0.6932	0.0211	0.6906	-0.14
Mof_C 	C 	0.7585	0.0576	0.6663	0.032
Mof_C 	C 	0.7452	0.1318	0.7797	0.363
Mof_C 	C 	0.631	0.9544	0.6778	0.353
Mof_C 	C 	0.2181	0.3369	0.5792	-0.099
Mof_C 	C 	0.2554	0.3103	0.545	0.05
Mof_C 	C 	0.3295	0.3522	0.5271	-0.124
Mof_C 	C 	0.365	0.4199	0.543	0.084
Mof_C 	C 	0.3281	0.4471	0.5765	-0.173
Mof_C 	C 	0.2554	0.4055	0.594	0.075
Mof_C 	C 	0.3701	0.325	0.4904	0.377
Mof_C 	C 	0.3657	0.5213	0.5922	0.459
Mof_C 	C 	0.6821	0.8824	0.1782	-0.103
Mof_C 	C 	0.6889	0.8591	0.215	0.03
Mof_C 	C 	0.7506	0.8953	0.2398	-0.206
Mof_C 	C 	0.8105	0.9551	0.2272	0.039
Mof_C 	C 	0.8068	0.9789	0.1906	-0.123
Mof_C 	C 	0.7415	0.9424	0.1663	0.024
Mof_C 	C 	0.7548	0.8682	0.2797	0.362
Mof_C 	C 	0.869	0.0456	0.1778	0.342
Mof_C 	C 	0.2819	0.6631	0.0792	-0.1
Mof_C 	C 	0.2446	0.6897	0.045	0.05
Mof_C 	C 	0.1705	0.6478	0.0271	-0.125
Mof_C 	C 	0.135	0.5801	0.043	0.084
Mof_C 	C 	0.1719	0.5529	0.0765	-0.173
Mof_C 	C 	0.2446	0.5945	0.094	0.075
Mof_C 	C 	0.1299	0.675	0.9904	0.377
Mof_C 	C 	0.1343	0.4787	0.0922	0.459
Mof_O 	O 	0.0008	0.3473	0.16404	-0.48
Mof_O 	O 	0.8736	0.2479	0.1515	-0.451
Mof_O 	O 	0.8883	0.3638	0.10996	-0.473
Mof_O 	O 	0.8024	0.3192	0.2896	-0.38
Mof_O 	O 	0.6815	0.3987	0.29969	-0.523
Mof_O 	O 	0.5785	0.58	0.1993	-0.31
Mof_O 	O 	0.6373	0.5631	0.14367	-0.453
Mof_O 	O 	0.1817	0.2727	0.12866	-0.458
Mof_O 	O 	0.0653	0.2618	0.07459	-0.485
Mof_O 	O 	0.0651	0.1593	0.12453	-0.455
Mof_O 	O 	0.3405	0.2371	0.9769	-0.277
Mof_O 	O 	0.4321	0.1323	0.97619	-0.459
Mof_O 	O 	0.429	0.9447	0.07389	-0.511
Mof_O 	O 	0.3344	0.9562	0.12286	-0.518
Mof_O 	O 	0.8696	0.1548	0.0759	-0.304
Mof_O 	O 	0.4992	0.6527	0.66404	-0.482
Mof_O 	O 	0.6264	0.7521	0.6515	-0.45
Mof_O 	O 	0.6117	0.6362	0.60996	-0.473
Mof_O 	O 	0.6976	0.6808	0.7896	-0.38
Mof_O 	O 	0.8185	0.6013	0.79969	-0.523
Mof_O 	O 	0.9215	0.42	0.6993	-0.311
Mof_O 	O 	0.8627	0.4369	0.64367	-0.453
Mof_O 	O 	0.3183	0.7273	0.62866	-0.458
Mof_O 	O 	0.4347	0.7382	0.57459	-0.487
Mof_O 	O 	0.4349	0.8407	0.62453	-0.458
Mof_O 	O 	0.1595	0.7629	0.4769	-0.278
Mof_O 	O 	0.0679	0.8677	0.47619	-0.462
Mof_O 	O 	0.071	0.0553	0.57389	-0.508
Mof_O 	O 	0.1656	0.0438	0.62286	-0.517
Mof_O 	O 	0.6304	0.8452	0.5759	-0.301
Mof_O 	O 	0.9992	0.8473	0.33596	-0.476
Mof_O 	O 	0.1264	0.7479	0.3485	-0.451
Mof_O 	O 	0.1117	0.8638	0.39004	-0.474
Mof_O 	O 	0.1976	0.8192	0.2104	-0.379
Mof_O 	O 	0.3185	0.8987	0.20031	-0.524
Mof_O 	O 	0.4215	0.08	0.3007	-0.311
Mof_O 	O 	0.3627	0.0631	0.35633	-0.452
Mof_O 	O 	0.8183	0.7727	0.37134	-0.457
Mof_O 	O 	0.9347	0.7618	0.42541	-0.484
Mof_O 	O 	0.9349	0.6593	0.37547	-0.457
Mof_O 	O 	0.6595	0.7371	0.5231	-0.277
Mof_O 	O 	0.5679	0.6323	0.52381	-0.459
Mof_O 	O 	0.571	0.4447	0.42611	-0.511
Mof_O 	O 	0.6656	0.4562	0.37714	-0.518
Mof_O 	O 	0.1304	0.6548	0.4241	-0.303
Mof_O 	O 	0.5008	0.1527	0.83596	-0.482
Mof_O 	O 	0.3736	0.2521	0.8485	-0.449
Mof_O 	O 	0.3883	0.1362	0.89004	-0.472
Mof_O 	O 	0.3024	0.1808	0.7104	-0.38
Mof_O 	O 	0.1815	0.1013	0.70031	-0.519
Mof_O 	O 	0.0785	0.92	0.8007	-0.311
Mof_O 	O 	0.1373	0.9369	0.85633	-0.454
Mof_O 	O 	0.6817	0.2273	0.87134	-0.458
Mof_O 	O 	0.5653	0.2382	0.92541	-0.487
Mof_O 	O 	0.5651	0.3407	0.87547	-0.458
Mof_O 	O 	0.8405	0.2629	0.0231	-0.279
Mof_O 	O 	0.9321	0.3677	0.02381	-0.46
Mof_O 	O 	0.929	0.5553	0.92611	-0.51
Mof_O 	O 	0.8344	0.5438	0.87714	-0.518
Mof_O 	O 	0.3696	0.3452	0.9241	-0.302
Mof_O 	O 	0.9992	0.6527	0.83596	-0.48
Mof_O 	O 	0.1264	0.7521	0.8485	-0.451
Mof_O 	O 	0.1117	0.6362	0.89004	-0.473
Mof_O 	O 	0.1976	0.6808	0.7104	-0.38
Mof_O 	O 	0.3185	0.6013	0.70031	-0.523
Mof_O 	O 	0.4215	0.42	0.8007	-0.31
Mof_O 	O 	0.3627	0.4369	0.85633	-0.453
Mof_O 	O 	0.8183	0.7273	0.87134	-0.458
Mof_O 	O 	0.9347	0.7382	0.92541	-0.485
Mof_O 	O 	0.9349	0.8407	0.87547	-0.455
Mof_O 	O 	0.6595	0.7629	0.0231	-0.277
Mof_O 	O 	0.5679	0.8677	0.02381	-0.459
Mof_O 	O 	0.571	0.0553	0.92611	-0.511
Mof_O 	O 	0.6656	0.0438	0.87714	-0.518
Mof_O 	O 	0.1304	0.8452	0.9241	-0.304
Mof_O 	O 	0.5008	0.3473	0.33596	-0.482
Mof_O 	O 	0.3736	0.2479	0.3485	-0.45
Mof_O 	O 	0.3883	0.3638	0.39004	-0.473
Mof_O 	O 	0.3024	0.3192	0.2104	-0.38
Mof_O 	O 	0.1815	0.3987	0.20031	-0.523
Mof_O 	O 	0.0785	0.58	0.3007	-0.311
Mof_O 	O 	0.1373	0.5631	0.35633	-0.453
Mof_O 	O 	0.6817	0.2727	0.37134	-0.458
Mof_O 	O 	0.5653	0.2618	0.42541	-0.487
Mof_O 	O 	0.5651	0.1593	0.37547	-0.458
Mof_O 	O 	0.8405	0.2371	0.5231	-0.278
Mof_O 	O 	0.9321	0.1323	0.52381	-0.462
Mof_O 	O 	0.929	0.9447	0.42611	-0.508
Mof_O 	O 	0.8344	0.9562	0.37714	-0.517
Mof_O 	O 	0.3696	0.1548	0.4241	-0.301
Mof_O 	O 	0.0008	0.1527	0.66404	-0.476
Mof_O 	O 	0.8736	0.2521	0.6515	-0.451
Mof_O 	O 	0.8883	0.1362	0.60996	-0.474
Mof_O 	O 	0.8024	0.1808	0.7896	-0.379
Mof_O 	O 	0.6815	0.1013	0.79969	-0.524
Mof_O 	O 	0.5785	0.92	0.6993	-0.311
Mof_O 	O 	0.6373	0.9369	0.64367	-0.452
Mof_O 	O 	0.1817	0.2273	0.62866	-0.457
Mof_O 	O 	0.0653	0.2382	0.57459	-0.484
Mof_O 	O 	0.0651	0.3407	0.62453	-0.457
Mof_O 	O 	0.3405	0.2629	0.4769	-0.277
Mof_O 	O 	0.4321	0.3677	0.47619	-0.459
Mof_O 	O 	0.429	0.5553	0.57389	-0.511
Mof_O 	O 	0.3344	0.5438	0.62286	-0.518
Mof_O 	O 	0.8696	0.3452	0.5759	-0.303
Mof_O 	O 	0.4992	0.8473	0.16404	-0.482
Mof_O 	O 	0.6264	0.7479	0.1515	-0.449
Mof_O 	O 	0.6117	0.8638	0.10996	-0.472
Mof_O 	O 	0.6976	0.8192	0.2896	-0.38
Mof_O 	O 	0.8185	0.8987	0.29969	-0.519
Mof_O 	O 	0.9215	0.08	0.1993	-0.311
Mof_O 	O 	0.8627	0.0631	0.14367	-0.454
Mof_O 	O 	0.3183	0.7727	0.12866	-0.458
Mof_O 	O 	0.4347	0.7618	0.07459	-0.487
Mof_O 	O 	0.4349	0.6593	0.12453	-0.458
Mof_O 	O 	0.1595	0.7371	0.9769	-0.279
Mof_O 	O 	0.0679	0.6323	0.97619	-0.46
Mof_O 	O 	0.071	0.4447	0.07389	-0.51
Mof_O 	O 	0.1656	0.4562	0.12286	-0.518
Mof_O 	O 	0.6304	0.6548	0.0759	-0.302
Mof_H 	H 	0.54	0.5912	0.3026	0.369
Mof_H 	H 	0.4614	0.5349	0.3194	0.371
Mof_H 	H 	0.5161	0.512	0.2828	0.379
Mof_H 	H 	0.3739	0.6302	0.2904	-0.268
Mof_H 	H 	0.3637	0.5559	0.2656	-0.181
Mof_H 	H 	0.3108	0.6915	0.2366	-0.135
Mof_H 	H 	0.3828	0.7001	0.2029	-0.106
Mof_H 	H 	0.428	0.7494	0.2906	1.717
Mof_H 	H 	0.5144	0.801	0.276	1.793
Mof_H 	H 	0.4131	0.8031	0.2558	1.764
Mof_H 	H 	0.4907	0.7332	0.2217	-1.077
Mof_H 	H 	0.5538	0.6994	0.2537	-1.077
Mof_H 	H 	0.2763	0.6149	0.1825	0.32
Mof_H 	H 	0.3626	0.5616	0.1957	0.328
Mof_H 	H 	0.2702	0.5721	0.2209	0.33
Mof_C 	C 	0.4893	0.5546	0.2968	-1.174
Mof_C 	C 	0.4093	0.5957	0.2738	0.723
Mof_C 	C 	0.3584	0.6642	0.2215	0.445
Mof_C 	C 	0.4587	0.7705	0.2688	-5.783
Mof_C 	C 	0.4874	0.7119	0.2466	3.708
Mof_C 	C 	0.3131	0.5976	0.2037	-0.947
Mof_N 	N 	0.4353	0.6378	0.2438	-0.781
Mof_H 	H 	0.96	0.4088	0.8026	0.362
Mof_H 	H 	0.0386	0.4651	0.8194	0.364
Mof_H 	H 	0.9839	0.488	0.7828	0.372
Mof_H 	H 	0.1261	0.3698	0.7904	-0.26
Mof_H 	H 	0.1363	0.4441	0.7656	-0.176
Mof_H 	H 	0.1892	0.3085	0.7366	-0.135
Mof_H 	H 	0.1172	0.2999	0.7029	-0.107
Mof_H 	H 	0.072	0.2506	0.7906	1.67
Mof_H 	H 	0.9856	0.199	0.776	1.739
Mof_H 	H 	0.0869	0.1969	0.7558	1.715
Mof_H 	H 	0.0093	0.2668	0.7217	-1.044
Mof_H 	H 	0.9462	0.3006	0.7537	-1.048
Mof_H 	H 	0.2237	0.3851	0.6825	0.321
Mof_H 	H 	0.1374	0.4384	0.6957	0.33
Mof_H 	H 	0.2298	0.4279	0.7209	0.332
Mof_C 	C 	0.0107	0.4454	0.7968	-1.15
Mof_C 	C 	0.0907	0.4043	0.7738	0.706
Mof_C 	C 	0.1416	0.3358	0.7215	0.449
Mof_C 	C 	0.0413	0.2295	0.7688	-5.616
Mof_C 	C 	0.0126	0.2881	0.7466	3.605
Mof_C 	C 	0.1869	0.4024	0.7037	-0.953
Mof_N 	N 	0.0647	0.3622	0.7438	-0.765
Mof_H 	H 	0.46	0.0912	0.1974	0.37
Mof_H 	H 	0.5386	0.0349	0.1806	0.371
Mof_H 	H 	0.4839	0.012	0.2172	0.379
Mof_H 	H 	0.6261	0.1302	0.2096	-0.268
Mof_H 	H 	0.6363	0.0559	0.2344	-0.182
Mof_H 	H 	0.6892	0.1915	0.2634	-0.134
Mof_H 	H 	0.6172	0.2001	0.2971	-0.105
Mof_H 	H 	0.572	0.2494	0.2094	1.717
Mof_H 	H 	0.4856	0.301	0.224	1.793
Mof_H 	H 	0.5869	0.3031	0.2442	1.764
Mof_H 	H 	0.5093	0.2332	0.2783	-1.077
Mof_H 	H 	0.4462	0.1994	0.2463	-1.077
Mof_H 	H 	0.7237	0.1149	0.3175	0.318
Mof_H 	H 	0.6374	0.0616	0.3043	0.326
Mof_H 	H 	0.7298	0.0721	0.2791	0.328
Mof_C 	C 	0.5107	0.0546	0.2032	-1.175
Mof_C 	C 	0.5907	0.0957	0.2262	0.724
Mof_C 	C 	0.6416	0.1642	0.2785	0.442
Mof_C 	C 	0.5413	0.2705	0.2312	-5.782
Mof_C 	C 	0.5126	0.2119	0.2534	3.707
Mof_C 	C 	0.6869	0.0976	0.2963	-0.942
Mof_N 	N 	0.5647	0.1378	0.2562	-0.781
Mof_H 	H 	0.04	0.9088	0.6974	0.329
Mof_H 	H 	0.9614	0.9651	0.6806	0.339
Mof_H 	H 	0.0161	0.988	0.7172	0.337
Mof_H 	H 	0.8739	0.8698	0.7096	-0.249
Mof_H 	H 	0.8637	0.9441	0.7344	-0.163
Mof_H 	H 	0.8108	0.8085	0.7634	-0.134
Mof_H 	H 	0.8828	0.7999	0.7971	-0.105
Mof_H 	H 	0.928	0.7506	0.7094	1.699
Mof_H 	H 	0.0144	0.699	0.724	1.771
Mof_H 	H 	0.9131	0.6969	0.7442	1.745
Mof_H 	H 	0.9907	0.7668	0.7783	-1.065
Mof_H 	H 	0.0538	0.8006	0.7463	-1.069
Mof_H 	H 	0.7763	0.8851	0.8175	0.321
Mof_H 	H 	0.8626	0.9384	0.8043	0.33
Mof_H 	H 	0.7702	0.9279	0.7791	0.332
Mof_C 	C 	0.9893	0.9454	0.7032	-1.057
Mof_C 	C 	0.9093	0.9043	0.7262	0.667
Mof_C 	C 	0.8584	0.8358	0.7785	0.443
Mof_C 	C 	0.9587	0.7295	0.7312	-5.718
Mof_C 	C 	0.9874	0.7881	0.7534	3.673
Mof_C 	C 	0.8131	0.9024	0.7963	-0.948
Mof_N 	N 	0.9353	0.8622	0.7562	-0.765
Mof_H 	H 	0.46	0.4088	0.6974	0.369
Mof_H 	H 	0.5386	0.4651	0.6806	0.371
Mof_H 	H 	0.4839	0.488	0.7172	0.379
Mof_H 	H 	0.6261	0.3698	0.7096	-0.268
Mof_H 	H 	0.6363	0.4441	0.7344	-0.181
Mof_H 	H 	0.6892	0.3085	0.7634	-0.135
Mof_H 	H 	0.6172	0.2999	0.7971	-0.106
Mof_H 	H 	0.572	0.2506	0.7094	1.717
Mof_H 	H 	0.4856	0.199	0.724	1.793
Mof_H 	H 	0.5869	0.1969	0.7442	1.764
Mof_H 	H 	0.5093	0.2668	0.7783	-1.077
Mof_H 	H 	0.4462	0.3006	0.7463	-1.077
Mof_H 	H 	0.7237	0.3851	0.8175	0.32
Mof_H 	H 	0.6374	0.4384	0.8043	0.328
Mof_H 	H 	0.7298	0.4279	0.7791	0.33
Mof_C 	C 	0.5107	0.4454	0.7032	-1.174
Mof_C 	C 	0.5907	0.4043	0.7262	0.723
Mof_C 	C 	0.6416	0.3358	0.7785	0.445
Mof_C 	C 	0.5413	0.2295	0.7312	-5.783
Mof_C 	C 	0.5126	0.2881	0.7534	3.708
Mof_C 	C 	0.6869	0.4024	0.7963	-0.947
Mof_N 	N 	0.5647	0.3622	0.7562	-0.781
Mof_H 	H 	0.04	0.5912	0.1974	0.362
Mof_H 	H 	0.9614	0.5349	0.1806	0.364
Mof_H 	H 	0.0161	0.512	0.2172	0.372
Mof_H 	H 	0.8739	0.6302	0.2096	-0.26
Mof_H 	H 	0.8637	0.5559	0.2344	-0.176
Mof_H 	H 	0.8108	0.6915	0.2634	-0.135
Mof_H 	H 	0.8828	0.7001	0.2971	-0.107
Mof_H 	H 	0.928	0.7494	0.2094	1.67
Mof_H 	H 	0.0144	0.801	0.224	1.739
Mof_H 	H 	0.9131	0.8031	0.2442	1.715
Mof_H 	H 	0.9907	0.7332	0.2783	-1.044
Mof_H 	H 	0.0538	0.6994	0.2463	-1.048
Mof_H 	H 	0.7763	0.6149	0.3175	0.321
Mof_H 	H 	0.8626	0.5616	0.3043	0.33
Mof_H 	H 	0.7702	0.5721	0.2791	0.332
Mof_C 	C 	0.9893	0.5546	0.2032	-1.15
Mof_C 	C 	0.9093	0.5957	0.2262	0.706
Mof_C 	C 	0.8584	0.6642	0.2785	0.449
Mof_C 	C 	0.9587	0.7705	0.2312	-5.616
Mof_C 	C 	0.9874	0.7119	0.2534	3.605
Mof_C 	C 	0.8131	0.5976	0.2963	-0.953
Mof_N 	N 	0.9353	0.6378	0.2562	-0.765
Mof_H 	H 	0.54	0.9088	0.8026	0.37
Mof_H 	H 	0.4614	0.9651	0.8194	0.371
Mof_H 	H 	0.5161	0.988	0.7828	0.379
Mof_H 	H 	0.3739	0.8698	0.7904	-0.268
Mof_H 	H 	0.3637	0.9441	0.7656	-0.182
Mof_H 	H 	0.3108	0.8085	0.7366	-0.134
Mof_H 	H 	0.3828	0.7999	0.7029	-0.105
Mof_H 	H 	0.428	0.7506	0.7906	1.717
Mof_H 	H 	0.5144	0.699	0.776	1.793
Mof_H 	H 	0.4131	0.6969	0.7558	1.764
Mof_H 	H 	0.4907	0.7668	0.7217	-1.077
Mof_H 	H 	0.5538	0.8006	0.7537	-1.077
Mof_H 	H 	0.2763	0.8851	0.6825	0.318
Mof_H 	H 	0.3626	0.9384	0.6957	0.326
Mof_H 	H 	0.2702	0.9279	0.7209	0.328
Mof_C 	C 	0.4893	0.9454	0.7968	-1.175
Mof_C 	C 	0.4093	0.9043	0.7738	0.724
Mof_C 	C 	0.3584	0.8358	0.7215	0.442
Mof_C 	C 	0.4587	0.7295	0.7688	-5.782
Mof_C 	C 	0.4874	0.7881	0.7466	3.707
Mof_C 	C 	0.3131	0.9024	0.7037	-0.942
Mof_N 	N 	0.4353	0.8622	0.7438	-0.781
Mof_H 	H 	0.96	0.0912	0.3026	0.329
Mof_H 	H 	0.0386	0.0349	0.3194	0.339
Mof_H 	H 	0.9839	0.012	0.2828	0.337
Mof_H 	H 	0.1261	0.1302	0.2904	-0.249
Mof_H 	H 	0.1363	0.0559	0.2656	-0.163
Mof_H 	H 	0.1892	0.1915	0.2366	-0.134
Mof_H 	H 	0.1172	0.2001	0.2029	-0.105
Mof_H 	H 	0.072	0.2494	0.2906	1.699
Mof_H 	H 	0.9856	0.301	0.276	1.771
Mof_H 	H 	0.0869	0.3031	0.2558	1.745
Mof_H 	H 	0.0093	0.2332	0.2217	-1.065
Mof_H 	H 	0.9462	0.1994	0.2537	-1.069
Mof_H 	H 	0.2237	0.1149	0.1825	0.321
Mof_H 	H 	0.1374	0.0616	0.1957	0.33
Mof_H 	H 	0.2298	0.0721	0.2209	0.332
Mof_C 	C 	0.0107	0.0546	0.2968	-1.057
Mof_C 	C 	0.0907	0.0957	0.2738	0.667
Mof_C 	C 	0.1416	0.1642	0.2215	0.443
Mof_C 	C 	0.0413	0.2705	0.2688	-5.718
Mof_C 	C 	0.0126	0.2119	0.2466	3.673
Mof_C 	C 	0.1869	0.0976	0.2037	-0.948
Mof_N 	N 	0.0647	0.1378	0.2438	-0.765
_end
