data_functionalizedCrystal
_audit_creation_method	'EQeq! by Chris Wilmer'
_symmetry_space_group_name_H-M	'P1'
_symmetry_Int_Tables_number	1
_symmetry_cell_setting	triclinic
loop_
_symmetry_equiv_pos_as_xyz
  x,y,z
_cell_length_a	25.5782
_cell_length_b	25.6108
_cell_length_c	11.5927
_cell_angle_alpha	90
_cell_angle_beta	90
_cell_angle_gamma	90
loop_
_atom_site_label
_atom_site_type_symbol
_atom_site_fract_x
_atom_site_fract_y
_atom_site_fract_z
_atom_site_charge
Mof_Ag	Ag	0.2678	0.17241	0.2806	0.343
Mof_Ag	Ag	0.33822	0.28348	0.22372	0.323
Mof_Ag	Ag	0.15444	0.2369	0.21459	0.335
Mof_Ag	Ag	0.22353	0.34835	0.27064	0.327
Mof_Ag	Ag	0.9916	0.37101	0.49451	0.532
Mof_Ag	Ag	0.1302	0.00151	0.03035	0.534
Mof_N 	N 	0.34459	0.18228	0.3552	-0.166
Mof_N 	N 	0.37894	0.22075	0.3162	-0.161
Mof_N 	N 	0.42434	0.16952	0.4282	-0.188
Mof_N 	N 	0.28737	0.39072	0.1859	-0.162
Mof_N 	N 	0.32541	0.3584	0.1394	-0.161
Mof_N 	N 	0.3314	0.43572	0.0521	-0.188
Mof_N 	N 	0.16264	0.15503	0.1644	-0.157
Mof_N 	N 	0.1993	0.12841	0.2269	-0.159
Mof_N 	N 	0.15654	0.07095	0.1203	-0.183
Mof_N 	N 	0.11311	0.30751	0.2647	-0.162
Mof_N 	N 	0.14249	0.3407	0.3345	-0.162
Mof_N 	N 	0.05989	0.34363	0.3942	-0.185
Mof_N 	N 	0.04365	0.9978	0.9891	-0.17
Mof_N 	N 	0.9998	0.4562	0.536	-0.164
Mof_C 	C 	0.372	0.15325	0.4228	0.018
Mof_C 	C 	0.3471	0.109	0.4899	0.192
Mof_H 	H 	0.3087	0.1128	0.475	-0.057
Mof_C 	C 	0.3631	0.0556	0.424	-0.506
Mof_H 	H 	0.3503	0.0568	0.3443	0.143
Mof_H 	H 	0.3474	0.0257	0.4638	0.153
Mof_H 	H 	0.4012	0.052	0.4238	0.155
Mof_C 	C 	0.3521	0.1149	0.614	-0.521
Mof_H 	H 	0.34	0.1497	0.6367	0.145
Mof_H 	H 	0.3889	0.1107	0.6361	0.135
Mof_H 	H 	0.331	0.0883	0.6529	0.146
Mof_C 	C 	0.42453	0.21131	0.3602	0.033
Mof_C 	C 	0.474	0.2424	0.3381	0.179
Mof_H 	H 	0.4999	0.232	0.3985	-0.06
Mof_C 	C 	0.498	0.2292	0.2217	-0.498
Mof_H 	H 	0.5338	0.2429	0.2183	0.141
Mof_H 	H 	0.4771	0.2451	0.1602	0.139
Mof_H 	H 	0.4987	0.1913	0.2117	0.145
Mof_C 	C 	0.4651	0.3015	0.3508	-0.476
Mof_H 	H 	0.4635	0.3106	0.4328	0.133
Mof_H 	H 	0.4321	0.3112	0.3134	0.125
Mof_H 	H 	0.494	0.3204	0.3143	0.136
Mof_C 	C 	0.2927	0.4353	0.1333	0.042
Mof_C 	C 	0.2616	0.48353	0.1593	0.139
Mof_H 	H 	0.2717	0.5109	0.1021	-0.049
Mof_C 	C 	0.2746	0.5046	0.2819	-0.445
Mof_H 	H 	0.3107	0.5174	0.2834	0.125
Mof_H 	H 	0.2706	0.4764	0.3384	0.127
Mof_H 	H 	0.2507	0.5332	0.3011	0.127
Mof_C 	C 	0.2016	0.4749	0.1501	-0.438
Mof_H 	H 	0.1927	0.4644	0.0712	0.121
Mof_H 	H 	0.1834	0.5075	0.169	0.124
Mof_H 	H 	0.1909	0.4475	0.2041	0.117
Mof_C 	C 	0.34965	0.38535	0.0563	0.018
Mof_C 	C 	0.3921	0.36689	0.9787	0.176
Mof_H 	H 	0.4231	0.3904	0.9856	-0.05
Mof_C 	C 	0.4079	0.3131	0.9944	-0.49
Mof_H 	H 	0.4333	0.311	0.0575	0.131
Mof_H 	H 	0.4238	0.3002	0.9232	0.141
Mof_H 	H 	0.3772	0.2919	0.0133	0.122
Mof_C 	C 	0.3693	0.3695	0.8514	-0.44
Mof_H 	H 	0.361	0.4058	0.832	0.111
Mof_H 	H 	0.3376	0.3482	0.8465	0.124
Mof_H 	H 	0.3954	0.3561	0.7971	0.122
Mof_C 	C 	0.13817	0.1201	0.1007	0.009
Mof_C 	C 	0.0972	0.1323	0.0128	0.229
Mof_H 	H 	0.0766	0.0991	0.0091	-0.057
Mof_C 	C 	0.0575	0.1711	0.0475	-0.558
Mof_H 	H 	0.0428	0.1613	0.1225	0.163
Mof_H 	H 	0.0296	0.1721	0.9897	0.165
Mof_H 	H 	0.0739	0.2056	0.0533	0.153
Mof_C 	C 	0.1205	0.1362	0.8918	-0.526
Mof_H 	H 	0.0923	0.1364	0.8346	0.15
Mof_H 	H 	0.1435	0.1062	0.8779	0.145
Mof_H 	H 	0.1408	0.1685	0.8853	0.144
Mof_C 	C 	0.19421	0.0774	0.1984	0.013
Mof_C 	C 	0.2263	0.037	0.2607	0.217
Mof_H 	H 	0.2492	0.0556	0.3172	-0.064
Mof_C 	C 	0.1932	0.9979	0.3274	-0.497
Mof_H 	H 	0.1738	0.0161	0.3881	0.142
Mof_H 	H 	0.216	0.9715	0.3624	0.14
Mof_H 	H 	0.1686	0.9808	0.2748	0.132
Mof_C 	C 	0.2606	0.0093	0.1771	-0.549
Mof_H 	H 	0.2785	0.9805	0.2163	0.157
Mof_H 	H 	0.2865	0.0337	0.1462	0.152
Mof_H 	H 	0.2394	0.9954	0.1139	0.156
Mof_C 	C 	0.06422	0.31151	0.3049	0.015
Mof_C 	C 	0.0191	0.2795	0.2506	0.232
Mof_H 	H 	0.0328	0.2637	0.1777	-0.073
Mof_C 	C 	0.9741	0.3144	0.2182	-0.523
Mof_H 	H 	0.9513	0.2962	0.1634	0.147
Mof_H 	H 	0.9876	0.3464	0.1826	0.148
Mof_H 	H 	0.9541	0.3234	0.2876	0.135
Mof_C 	C 	0.0053	0.2354	0.3298	-0.574
Mof_H 	H 	0.9882	0.2075	0.2857	0.164
Mof_H 	H 	0.9814	0.248	0.3898	0.167
Mof_H 	H 	0.0371	0.2217	0.3658	0.16
Mof_C 	C 	0.10956	0.36093	0.4095	0.034
Mof_C 	C 	0.12451	0.39661	0.5067	0.149
Mof_H 	H 	0.0995	0.4266	0.5071	-0.035
Mof_C 	C 	0.1799	0.4187	0.5003	-0.439
Mof_H 	H 	0.1846	0.4371	0.4268	0.117
Mof_H 	H 	0.2053	0.3901	0.5057	0.11
Mof_H 	H 	0.1854	0.4432	0.5642	0.124
Mof_C 	C 	0.1181	0.367	0.6201	-0.446
Mof_H 	H 	0.0859	0.3462	0.6174	0.123
Mof_H 	H 	0.116	0.3919	0.6841	0.127
Mof_H 	H 	0.1481	0.3438	0.6316	0.124
Mof_C 	C 	0.0208	0.9515	0.2364	-0.189
Mof_H 	H 	0.0201	0.9531	0.3209	0.047
Mof_H 	H 	0.0569	0.9467	0.21	0.037
Mof_H 	H 	0.9994	0.9221	0.21	0.044
Mof_C 	C 	0.054	0.5007	0.2839	-0.549
Mof_H 	H 	0.0503	0.5135	0.2046	0.154
Mof_H 	H 	0.0684	0.4653	0.2829	0.166
Mof_H 	H 	0.0775	0.5238	0.3269	0.159
Mof_C 	C 	0.02676	0.9983	0.8777	-0.039
Mof_C 	C 	0.0643	0.9924	0.7762	0.236
Mof_H 	H 	0.0968	0.9907	0.8238	-0.058
Mof_C 	C 	0.0892	0.0181	0.6742	-0.544
Mof_H 	H 	0.1011	0.9913	0.6198	0.158
Mof_H 	H 	0.1192	0.039	0.6998	0.149
Mof_H 	H 	0.0637	0.0409	0.6362	0.152
Mof_C 	C 	0.0629	0.9343	0.7461	-0.523
Mof_H 	H 	0.0862	0.9275	0.6808	0.152
Mof_H 	H 	0.0271	0.9242	0.7255	0.152
Mof_H 	H 	0.0744	0.9138	0.8129	0.166
Mof_C 	C 	0.9984	0.4347	0.7479	0.329
Mof_H 	H 	0.0103	0.4004	0.7159	-0.108
Mof_C 	C 	0.9449	0.4266	0.798	-0.649
Mof_H 	H 	0.9209	0.4152	0.7371	0.192
Mof_H 	H 	0.9323	0.4595	0.8311	0.181
Mof_H 	H 	0.9465	0.4	0.8585	0.186
Mof_C 	C 	0.0387	0.4524	0.8329	-0.648
Mof_H 	H 	0.0727	0.4549	0.7946	0.187
Mof_H 	H 	0.0408	0.4273	0.8964	0.183
Mof_H 	H 	0.0288	0.4867	0.8634	0.179
Mof_C 	C 	-5.54294e-33	0.47424	0.6504	-0.016
Mof_C 	C 	0.0173	0.0501	0.2361	-0.143
Mof_H 	H 	0.0168	0.0486	0.3206	0.033
Mof_H 	H 	0.0062	0.9222	0.2096	0.071
Mof_H 	H 	0.962	0.9987	0.2097	0.026
Mof_H 	H 	0.9995	0.539	0.3427	-0.051
Mof_H 	H 	0.0529	0.0574	0.2095	0.032
Mof_N 	N 	1.10524e-33	0.52576	0.6504	-0.137
Mof_Ag	Ag	0.7322	0.82758	0.2806	0.345
Mof_Ag	Ag	0.66178	0.71652	0.22372	0.323
Mof_Ag	Ag	0.84556	0.7631	0.21459	0.337
Mof_Ag	Ag	0.77647	0.65165	0.27064	0.327
Mof_Ag	Ag	0.0084	0.62899	0.49451	0.524
Mof_Ag	Ag	0.8698	0.99849	0.03035	0.543
Mof_N 	N 	0.65541	0.81772	0.3552	-0.166
Mof_N 	N 	0.62106	0.77925	0.3162	-0.161
Mof_N 	N 	0.57566	0.83048	0.4282	-0.187
Mof_N 	N 	0.71263	0.60928	0.1859	-0.162
Mof_N 	N 	0.67459	0.6416	0.1394	-0.161
Mof_N 	N 	0.6686	0.56428	0.0521	-0.188
Mof_N 	N 	0.83736	0.84497	0.1644	-0.157
Mof_N 	N 	0.8007	0.87159	0.2269	-0.159
Mof_N 	N 	0.84346	0.92905	0.1203	-0.183
Mof_N 	N 	0.88689	0.69249	0.2647	-0.163
Mof_N 	N 	0.85751	0.6593	0.3345	-0.162
Mof_N 	N 	0.94011	0.65637	0.3942	-0.183
Mof_N 	N 	0.95635	0.0022	0.9891	-0.173
Mof_N 	N 	0.0002	0.5438	0.536	-0.148
Mof_C 	C 	0.628	0.84675	0.4228	0.019
Mof_C 	C 	0.6529	0.891	0.4899	0.193
Mof_H 	H 	0.6913	0.8872	0.475	-0.057
Mof_C 	C 	0.6369	0.9444	0.424	-0.507
Mof_H 	H 	0.6497	0.9432	0.3443	0.145
Mof_H 	H 	0.6526	0.9743	0.4638	0.155
Mof_H 	H 	0.5988	0.948	0.4238	0.155
Mof_C 	C 	0.6479	0.8851	0.614	-0.524
Mof_H 	H 	0.66	0.8503	0.6367	0.146
Mof_H 	H 	0.6111	0.8893	0.6361	0.136
Mof_H 	H 	0.669	0.9117	0.6529	0.148
Mof_C 	C 	0.57547	0.78869	0.3602	0.033
Mof_C 	C 	0.526	0.7576	0.3381	0.179
Mof_H 	H 	0.5001	0.768	0.3985	-0.06
Mof_C 	C 	0.502	0.7708	0.2217	-0.498
Mof_H 	H 	0.4662	0.7571	0.2183	0.141
Mof_H 	H 	0.5229	0.7549	0.1602	0.14
Mof_H 	H 	0.5013	0.8087	0.2117	0.145
Mof_C 	C 	0.5349	0.6985	0.3508	-0.476
Mof_H 	H 	0.5365	0.6894	0.4328	0.133
Mof_H 	H 	0.5679	0.6888	0.3134	0.125
Mof_H 	H 	0.506	0.6796	0.3143	0.136
Mof_C 	C 	0.7073	0.5647	0.1333	0.042
Mof_C 	C 	0.7384	0.51647	0.1593	0.139
Mof_H 	H 	0.7283	0.4891	0.1021	-0.049
Mof_C 	C 	0.7254	0.4954	0.2819	-0.445
Mof_H 	H 	0.6893	0.4826	0.2834	0.125
Mof_H 	H 	0.7294	0.5236	0.3384	0.127
Mof_H 	H 	0.7493	0.4668	0.3011	0.127
Mof_C 	C 	0.7984	0.5251	0.1501	-0.438
Mof_H 	H 	0.8073	0.5356	0.0712	0.121
Mof_H 	H 	0.8166	0.4925	0.169	0.124
Mof_H 	H 	0.8091	0.5525	0.2041	0.117
Mof_C 	C 	0.65035	0.61465	0.0563	0.018
Mof_C 	C 	0.6079	0.63311	0.9787	0.177
Mof_H 	H 	0.5769	0.6096	0.9856	-0.05
Mof_C 	C 	0.5921	0.6869	0.9944	-0.491
Mof_H 	H 	0.5667	0.689	0.0575	0.131
Mof_H 	H 	0.5762	0.6998	0.9232	0.141
Mof_H 	H 	0.6228	0.7081	0.0133	0.122
Mof_C 	C 	0.6307	0.6305	0.8514	-0.44
Mof_H 	H 	0.639	0.5942	0.832	0.111
Mof_H 	H 	0.6624	0.6518	0.8465	0.124
Mof_H 	H 	0.6046	0.6439	0.7971	0.122
Mof_C 	C 	0.86183	0.8799	0.1007	0.007
Mof_C 	C 	0.9028	0.8677	0.0128	0.234
Mof_H 	H 	0.9234	0.9009	0.0091	-0.057
Mof_C 	C 	0.9425	0.8289	0.0475	-0.566
Mof_H 	H 	0.9572	0.8387	0.1225	0.168
Mof_H 	H 	0.9704	0.8279	0.9897	0.17
Mof_H 	H 	0.9261	0.7944	0.0533	0.156
Mof_C 	C 	0.8795	0.8638	0.8918	-0.532
Mof_H 	H 	0.9077	0.8636	0.8346	0.153
Mof_H 	H 	0.8565	0.8938	0.8779	0.147
Mof_H 	H 	0.8592	0.8315	0.8853	0.146
Mof_C 	C 	0.80579	0.9226	0.1984	0.015
Mof_C 	C 	0.7737	0.963	0.2607	0.215
Mof_H 	H 	0.7508	0.9444	0.3172	-0.063
Mof_C 	C 	0.8068	0.0021	0.3274	-0.516
Mof_H 	H 	0.8262	0.9839	0.3881	0.151
Mof_H 	H 	0.784	0.0285	0.3624	0.145
Mof_H 	H 	0.8314	0.0192	0.2748	0.135
Mof_C 	C 	0.7394	0.9907	0.1771	-0.513
Mof_H 	H 	0.7215	0.0195	0.2163	0.143
Mof_H 	H 	0.7135	0.9663	0.1462	0.143
Mof_H 	H 	0.7606	0.0046	0.1139	0.142
Mof_C 	C 	0.93578	0.68849	0.3049	0.023
Mof_C 	C 	0.9809	0.7205	0.2506	0.212
Mof_H 	H 	0.9672	0.7363	0.1777	-0.065
Mof_C 	C 	0.0259	0.6856	0.2182	-0.512
Mof_H 	H 	0.0487	0.7038	0.1634	0.143
Mof_H 	H 	0.0124	0.6536	0.1826	0.141
Mof_H 	H 	0.0459	0.6766	0.2876	0.132
Mof_C 	C 	0.9947	0.7646	0.3298	-0.501
Mof_H 	H 	0.0118	0.7925	0.2857	0.137
Mof_H 	H 	0.0186	0.752	0.3898	0.141
Mof_H 	H 	0.9629	0.7783	0.3658	0.142
Mof_C 	C 	0.89044	0.63907	0.4095	0.034
Mof_C 	C 	0.87549	0.60339	0.5067	0.15
Mof_H 	H 	0.9005	0.5734	0.5071	-0.033
Mof_C 	C 	0.8201	0.5813	0.5003	-0.44
Mof_H 	H 	0.8154	0.5629	0.4268	0.118
Mof_H 	H 	0.7947	0.6099	0.5057	0.11
Mof_H 	H 	0.8146	0.5568	0.5642	0.124
Mof_C 	C 	0.8819	0.633	0.6201	-0.449
Mof_H 	H 	0.9141	0.6538	0.6174	0.126
Mof_H 	H 	0.884	0.6081	0.6841	0.129
Mof_H 	H 	0.8519	0.6562	0.6316	0.125
Mof_C 	C 	0.9792	0.0485	0.2364	-0.253
Mof_H 	H 	0.9799	0.0469	0.3209	0.071
Mof_H 	H 	0.9431	0.0533	0.21	0.056
Mof_H 	H 	0.0006	0.0779	0.21	0.075
Mof_C 	C 	0.946	0.4993	0.2839	-0.544
Mof_H 	H 	0.9497	0.4865	0.2046	0.155
Mof_H 	H 	0.9316	0.5347	0.2829	0.166
Mof_H 	H 	0.9225	0.4762	0.3269	0.158
Mof_C 	C 	0.97324	0.0017	0.8777	-0.027
Mof_C 	C 	0.9357	0.0076	0.7762	0.216
Mof_H 	H 	0.9032	0.0093	0.8238	-0.055
Mof_C 	C 	0.9108	0.9819	0.6742	-0.506
Mof_H 	H 	0.8989	0.0087	0.6198	0.144
Mof_H 	H 	0.8808	0.961	0.6998	0.14
Mof_H 	H 	0.9363	0.9591	0.6362	0.144
Mof_C 	C 	0.9371	0.0657	0.7461	-0.51
Mof_H 	H 	0.9138	0.0725	0.6808	0.148
Mof_H 	H 	0.9729	0.0758	0.7255	0.15
Mof_H 	H 	0.9256	0.0862	0.8129	0.162
Mof_C 	C 	0.0016	0.5653	0.7479	0.377
Mof_H 	H 	0.9897	0.5996	0.7159	-0.112
Mof_C 	C 	0.0551	0.5734	0.798	-0.689
Mof_H 	H 	0.0791	0.5848	0.7371	0.205
Mof_H 	H 	0.0677	0.5405	0.8311	0.194
Mof_H 	H 	0.0535	0.6	0.8585	0.196
Mof_C 	C 	0.9613	0.5476	0.8329	-0.681
Mof_H 	H 	0.9273	0.5451	0.7946	0.199
Mof_H 	H 	0.9592	0.5727	0.8964	0.194
Mof_H 	H 	0.9712	0.5133	0.8634	0.193
Mof_C 	C 	0.9827	0.9499	0.2361	-0.205
Mof_H 	H 	0.9832	0.9514	0.3206	0.059
Mof_H 	H 	0.9938	0.0778	0.2096	0.04
Mof_H 	H 	0.038	0.0013	0.2097	0.011
Mof_H 	H 	0.0005	0.461	0.3427	-0.056
Mof_H 	H 	0.9471	0.9426	0.2095	0.053
Mof_Ag	Ag	0.2322	0.67241	0.7194	0.344
Mof_Ag	Ag	0.16178	0.78348	0.77628	0.322
Mof_Ag	Ag	0.34556	0.7369	0.78541	0.336
Mof_Ag	Ag	0.27647	0.84835	0.72936	0.326
Mof_Ag	Ag	0.5084	0.87101	0.50549	0.527
Mof_Ag	Ag	0.3698	0.50151	0.96965	0.538
Mof_N 	N 	0.15541	0.68228	0.6448	-0.166
Mof_N 	N 	0.12106	0.72075	0.6838	-0.16
Mof_N 	N 	0.07566	0.66952	0.5718	-0.187
Mof_N 	N 	0.21263	0.89072	0.8141	-0.161
Mof_N 	N 	0.17459	0.8584	0.8606	-0.161
Mof_N 	N 	0.1686	0.93572	0.9479	-0.187
Mof_N 	N 	0.33736	0.65503	0.8356	-0.157
Mof_N 	N 	0.3007	0.62841	0.7731	-0.159
Mof_N 	N 	0.34346	0.57095	0.8797	-0.183
Mof_N 	N 	0.38689	0.80751	0.7353	-0.163
Mof_N 	N 	0.35751	0.8407	0.6655	-0.162
Mof_N 	N 	0.44011	0.84363	0.6058	-0.184
Mof_N 	N 	0.45635	0.4978	0.0109	-0.172
Mof_N 	N 	0.5002	0.9562	0.464	-0.169
Mof_C 	C 	0.128	0.65325	0.5772	0.018
Mof_C 	C 	0.1529	0.609	0.5101	0.194
Mof_H 	H 	0.1913	0.6128	0.525	-0.057
Mof_C 	C 	0.1369	0.5556	0.576	-0.509
Mof_H 	H 	0.1497	0.5568	0.6557	0.144
Mof_H 	H 	0.1526	0.5257	0.5362	0.154
Mof_H 	H 	0.0988	0.552	0.5762	0.156
Mof_C 	C 	0.1479	0.6149	0.386	-0.523
Mof_H 	H 	0.16	0.6497	0.3633	0.146
Mof_H 	H 	0.1111	0.6107	0.3639	0.136
Mof_H 	H 	0.169	0.5883	0.3471	0.148
Mof_C 	C 	0.07547	0.71131	0.6398	0.03
Mof_C 	C 	0.026	0.7424	0.6619	0.187
Mof_H 	H 	0.0001	0.732	0.6015	-0.063
Mof_C 	C 	0.002	0.7292	0.7783	-0.517
Mof_H 	H 	0.9662	0.7429	0.7817	0.149
Mof_H 	H 	0.0229	0.7451	0.8398	0.144
Mof_H 	H 	0.0013	0.6913	0.7883	0.149
Mof_C 	C 	0.0349	0.8015	0.6492	-0.482
Mof_H 	H 	0.0365	0.8106	0.5672	0.134
Mof_H 	H 	0.0679	0.8112	0.6866	0.126
Mof_H 	H 	0.006	0.8204	0.6857	0.136
Mof_C 	C 	0.2073	0.9353	0.8667	0.04
Mof_C 	C 	0.2384	0.98353	0.8407	0.149
Mof_H 	H 	0.2283	0.0109	0.8979	-0.053
Mof_C 	C 	0.2254	0.0046	0.7181	-0.462
Mof_H 	H 	0.1893	0.0174	0.7166	0.129
Mof_H 	H 	0.2294	0.9764	0.6616	0.133
Mof_H 	H 	0.2493	0.0332	0.6989	0.132
Mof_C 	C 	0.2984	0.9749	0.8499	-0.438
Mof_H 	H 	0.3073	0.9644	0.9288	0.121
Mof_H 	H 	0.3166	0.0075	0.831	0.122
Mof_H 	H 	0.3091	0.9475	0.7959	0.117
Mof_C 	C 	0.15035	0.88535	0.9437	0.018
Mof_C 	C 	0.1079	0.86689	0.0213	0.176
Mof_H 	H 	0.0769	0.8904	0.0144	-0.05
Mof_C 	C 	0.0921	0.8131	0.0056	-0.489
Mof_H 	H 	0.0667	0.811	0.9425	0.129
Mof_H 	H 	0.0762	0.8002	0.0768	0.14
Mof_H 	H 	0.1228	0.7919	0.9867	0.121
Mof_C 	C 	0.1307	0.8695	0.1486	-0.44
Mof_H 	H 	0.139	0.9058	0.168	0.112
Mof_H 	H 	0.1624	0.8482	0.1535	0.124
Mof_H 	H 	0.1046	0.8561	0.2029	0.122
Mof_C 	C 	0.36183	0.6201	0.8993	0.008
Mof_C 	C 	0.4028	0.6323	0.9872	0.232
Mof_H 	H 	0.4234	0.5991	0.9909	-0.057
Mof_C 	C 	0.4425	0.6711	0.9525	-0.563
Mof_H 	H 	0.4572	0.6613	0.8775	0.165
Mof_H 	H 	0.4704	0.6721	0.0103	0.168
Mof_H 	H 	0.4261	0.7056	0.9467	0.155
Mof_C 	C 	0.3795	0.6362	0.1082	-0.529
Mof_H 	H 	0.4077	0.6364	0.1654	0.152
Mof_H 	H 	0.3565	0.6062	0.1221	0.146
Mof_H 	H 	0.3592	0.6685	0.1147	0.145
Mof_C 	C 	0.30579	0.5774	0.8016	0.014
Mof_C 	C 	0.2737	0.537	0.7393	0.216
Mof_H 	H 	0.2508	0.5556	0.6828	-0.063
Mof_C 	C 	0.3068	0.4979	0.6726	-0.505
Mof_H 	H 	0.3262	0.5161	0.6119	0.146
Mof_H 	H 	0.284	0.4715	0.6376	0.142
Mof_H 	H 	0.3314	0.4808	0.7252	0.133
Mof_C 	C 	0.2394	0.5093	0.8229	-0.531
Mof_H 	H 	0.2215	0.4805	0.7837	0.15
Mof_H 	H 	0.2135	0.5337	0.8538	0.147
Mof_H 	H 	0.2606	0.4954	0.8861	0.149
Mof_C 	C 	0.43578	0.81151	0.6951	0.019
Mof_C 	C 	0.4809	0.7795	0.7494	0.222
Mof_H 	H 	0.4672	0.7637	0.8223	-0.069
Mof_C 	C 	0.5259	0.8144	0.7818	-0.518
Mof_H 	H 	0.5487	0.7962	0.8366	0.145
Mof_H 	H 	0.5124	0.8464	0.8174	0.145
Mof_H 	H 	0.5459	0.8234	0.7124	0.134
Mof_C 	C 	0.4947	0.7354	0.6702	-0.539
Mof_H 	H 	0.5118	0.7075	0.7143	0.151
Mof_H 	H 	0.5186	0.748	0.6102	0.154
Mof_H 	H 	0.4629	0.7217	0.6342	0.151
Mof_C 	C 	0.39044	0.86093	0.5905	0.034
Mof_C 	C 	0.37549	0.89661	0.4933	0.15
Mof_H 	H 	0.4005	0.9266	0.4929	-0.035
Mof_C 	C 	0.3201	0.9187	0.4997	-0.441
Mof_H 	H 	0.3154	0.9371	0.5732	0.118
Mof_H 	H 	0.2947	0.8901	0.4943	0.11
Mof_H 	H 	0.3146	0.9432	0.4358	0.125
Mof_C 	C 	0.3819	0.867	0.3799	-0.449
Mof_H 	H 	0.4141	0.8462	0.3826	0.124
Mof_H 	H 	0.384	0.8919	0.3159	0.129
Mof_H 	H 	0.3519	0.8438	0.3684	0.125
Mof_C 	C 	0.4792	0.4515	0.7636	-0.233
Mof_H 	H 	0.4799	0.4531	0.6791	0.063
Mof_H 	H 	0.4431	0.4467	0.79	0.051
Mof_H 	H 	0.5006	0.4221	0.79	0.063
Mof_C 	C 	0.446	0.0007	0.7161	-0.565
Mof_H 	H 	0.4497	0.0135	0.7954	0.159
Mof_H 	H 	0.4316	0.9653	0.7171	0.173
Mof_H 	H 	0.4225	0.0238	0.6731	0.163
Mof_C 	C 	0.47324	0.4983	0.1223	-0.033
Mof_C 	C 	0.4357	0.4924	0.2238	0.226
Mof_H 	H 	0.4032	0.4907	0.1762	-0.056
Mof_C 	C 	0.4108	0.5181	0.3258	-0.526
Mof_H 	H 	0.3989	0.4913	0.3802	0.151
Mof_H 	H 	0.3808	0.539	0.3002	0.145
Mof_H 	H 	0.4363	0.5409	0.3638	0.148
Mof_C 	C 	0.4371	0.4343	0.2539	-0.517
Mof_H 	H 	0.4138	0.4275	0.3192	0.15
Mof_H 	H 	0.4729	0.4242	0.2745	0.151
Mof_H 	H 	0.4256	0.4138	0.1871	0.164
Mof_C 	C 	0.5016	0.9347	0.2521	0.294
Mof_H 	H 	0.4897	0.9004	0.2841	-0.095
Mof_C 	C 	0.5551	0.9266	0.202	-0.619
Mof_H 	H 	0.5791	0.9152	0.2629	0.184
Mof_H 	H 	0.5677	0.9595	0.1689	0.173
Mof_H 	H 	0.5535	0.9	0.1415	0.177
Mof_C 	C 	0.4613	0.9524	0.1671	-0.614
Mof_H 	H 	0.4273	0.9549	0.2054	0.177
Mof_H 	H 	0.4592	0.9273	0.1036	0.174
Mof_H 	H 	0.4712	0.9867	0.1366	0.171
Mof_C 	C 	0.5	0.97424	0.3496	0.002
Mof_C 	C 	0.4827	0.5501	0.7639	-0.183
Mof_H 	H 	0.4832	0.5486	0.6794	0.049
Mof_H 	H 	0.4938	0.4222	0.7904	0.058
Mof_H 	H 	0.538	0.4987	0.7903	0.01
Mof_H 	H 	0.5005	0.039	0.6573	-0.058
Mof_H 	H 	0.4471	0.5574	0.7905	0.045
Mof_N 	N 	0.5	0.02576	0.3496	-0.143
Mof_Ag	Ag	0.7678	0.32758	0.7194	0.345
Mof_Ag	Ag	0.83822	0.21652	0.77628	0.323
Mof_Ag	Ag	0.65444	0.2631	0.78541	0.336
Mof_Ag	Ag	0.72353	0.15165	0.72936	0.327
Mof_Ag	Ag	0.4916	0.12899	0.50549	0.53
Mof_Ag	Ag	0.6302	0.49849	0.96965	0.538
Mof_N 	N 	0.84459	0.31772	0.6448	-0.166
Mof_N 	N 	0.87894	0.27925	0.6838	-0.161
Mof_N 	N 	0.92434	0.33048	0.5718	-0.188
Mof_N 	N 	0.78737	0.10928	0.8141	-0.162
Mof_N 	N 	0.82541	0.1416	0.8606	-0.161
Mof_N 	N 	0.8314	0.06428	0.9479	-0.19
Mof_N 	N 	0.66264	0.34497	0.8356	-0.157
Mof_N 	N 	0.6993	0.37159	0.7731	-0.159
Mof_N 	N 	0.65654	0.42905	0.8797	-0.183
Mof_N 	N 	0.61311	0.19249	0.7353	-0.163
Mof_N 	N 	0.64249	0.1593	0.6655	-0.162
Mof_N 	N 	0.55989	0.15637	0.6058	-0.184
Mof_N 	N 	0.54365	0.5022	0.0109	-0.172
Mof_N 	N 	0.4998	0.0438	0.464	-0.147
Mof_C 	C 	0.872	0.34675	0.5772	0.019
Mof_C 	C 	0.8471	0.391	0.5101	0.192
Mof_H 	H 	0.8087	0.3872	0.525	-0.057
Mof_C 	C 	0.8631	0.4444	0.576	-0.506
Mof_H 	H 	0.8503	0.4432	0.6557	0.144
Mof_H 	H 	0.8474	0.4743	0.5362	0.154
Mof_H 	H 	0.9012	0.448	0.5762	0.154
Mof_C 	C 	0.8521	0.3851	0.386	-0.522
Mof_H 	H 	0.84	0.3503	0.3633	0.145
Mof_H 	H 	0.8889	0.3893	0.3639	0.136
Mof_H 	H 	0.831	0.4117	0.3471	0.147
Mof_C 	C 	0.92453	0.28869	0.6398	0.035
Mof_C 	C 	0.974	0.2576	0.6619	0.172
Mof_H 	H 	0.9999	0.268	0.6015	-0.057
Mof_C 	C 	0.998	0.2708	0.7783	-0.48
Mof_H 	H 	0.0338	0.2571	0.7817	0.133
Mof_H 	H 	0.9771	0.2549	0.8398	0.135
Mof_H 	H 	0.9987	0.3087	0.7883	0.141
Mof_C 	C 	0.9651	0.1985	0.6492	-0.471
Mof_H 	H 	0.9635	0.1894	0.5672	0.131
Mof_H 	H 	0.9321	0.1888	0.6866	0.123
Mof_H 	H 	0.994	0.1796	0.6857	0.136
Mof_C 	C 	0.7927	0.0647	0.8667	0.045
Mof_C 	C 	0.7616	0.01647	0.8407	0.128
Mof_H 	H 	0.7717	0.9891	0.8979	-0.044
Mof_C 	C 	0.7746	0.9954	0.7181	-0.426
Mof_H 	H 	0.8107	0.9826	0.7166	0.12
Mof_H 	H 	0.7706	0.0236	0.6616	0.12
Mof_H 	H 	0.7507	0.9668	0.6989	0.122
Mof_C 	C 	0.7016	0.0251	0.8499	-0.438
Mof_H 	H 	0.6927	0.0356	0.9288	0.12
Mof_H 	H 	0.6834	0.9925	0.831	0.125
Mof_H 	H 	0.6909	0.0525	0.7959	0.117
Mof_C 	C 	0.84965	0.11465	0.9437	0.018
Mof_C 	C 	0.8921	0.13311	0.0213	0.175
Mof_H 	H 	0.9231	0.1096	0.0144	-0.049
Mof_C 	C 	0.9079	0.1869	0.0056	-0.488
Mof_H 	H 	0.9333	0.189	0.9425	0.131
Mof_H 	H 	0.9238	0.1998	0.0768	0.141
Mof_H 	H 	0.8772	0.2081	0.9867	0.121
Mof_C 	C 	0.8693	0.1305	0.1486	-0.438
Mof_H 	H 	0.861	0.0942	0.168	0.11
Mof_H 	H 	0.8376	0.1518	0.1535	0.123
Mof_H 	H 	0.8954	0.1439	0.2029	0.122
Mof_C 	C 	0.63817	0.3799	0.8993	0.008
Mof_C 	C 	0.5972	0.3677	0.9872	0.231
Mof_H 	H 	0.5766	0.4009	0.9909	-0.057
Mof_C 	C 	0.5575	0.3289	0.9525	-0.562
Mof_H 	H 	0.5428	0.3387	0.8775	0.165
Mof_H 	H 	0.5296	0.3279	0.0103	0.168
Mof_H 	H 	0.5739	0.2944	0.9467	0.155
Mof_C 	C 	0.6205	0.3638	0.1082	-0.529
Mof_H 	H 	0.5923	0.3636	0.1654	0.152
Mof_H 	H 	0.6435	0.3938	0.1221	0.146
Mof_H 	H 	0.6408	0.3315	0.1147	0.145
Mof_C 	C 	0.69421	0.4226	0.8016	0.014
Mof_C 	C 	0.7263	0.463	0.7393	0.216
Mof_H 	H 	0.7492	0.4444	0.6828	-0.063
Mof_C 	C 	0.6932	0.5021	0.6726	-0.505
Mof_H 	H 	0.6738	0.4839	0.6119	0.146
Mof_H 	H 	0.716	0.5285	0.6376	0.142
Mof_H 	H 	0.6686	0.5192	0.7252	0.133
Mof_C 	C 	0.7606	0.4907	0.8229	-0.531
Mof_H 	H 	0.7785	0.5195	0.7837	0.15
Mof_H 	H 	0.7865	0.4663	0.8538	0.147
Mof_H 	H 	0.7394	0.5046	0.8861	0.149
Mof_C 	C 	0.56422	0.18849	0.6951	0.019
Mof_C 	C 	0.5191	0.2205	0.7494	0.221
Mof_H 	H 	0.5328	0.2363	0.8223	-0.069
Mof_C 	C 	0.4741	0.1856	0.7818	-0.516
Mof_H 	H 	0.4513	0.2038	0.8366	0.145
Mof_H 	H 	0.4876	0.1536	0.8174	0.144
Mof_H 	H 	0.4541	0.1766	0.7124	0.133
Mof_C 	C 	0.5053	0.2646	0.6702	-0.538
Mof_H 	H 	0.4882	0.2925	0.7143	0.151
Mof_H 	H 	0.4814	0.252	0.6102	0.154
Mof_H 	H 	0.5371	0.2783	0.6342	0.151
Mof_C 	C 	0.60956	0.13907	0.5905	0.034
Mof_C 	C 	0.62451	0.10339	0.4933	0.149
Mof_H 	H 	0.5995	0.0734	0.4929	-0.034
Mof_C 	C 	0.6799	0.0813	0.4997	-0.439
Mof_H 	H 	0.6846	0.0629	0.5732	0.117
Mof_H 	H 	0.7053	0.1099	0.4943	0.11
Mof_H 	H 	0.6854	0.0568	0.4358	0.123
Mof_C 	C 	0.6181	0.133	0.3799	-0.447
Mof_H 	H 	0.5859	0.1538	0.3826	0.124
Mof_H 	H 	0.616	0.1081	0.3159	0.128
Mof_H 	H 	0.6481	0.1562	0.3684	0.124
Mof_C 	C 	0.5208	0.5485	0.7636	-0.233
Mof_H 	H 	0.5201	0.5469	0.6791	0.063
Mof_H 	H 	0.5569	0.5533	0.79	0.051
Mof_H 	H 	0.4994	0.5779	0.79	0.063
Mof_C 	C 	0.554	0.9993	0.7161	-0.547
Mof_H 	H 	0.5503	0.9865	0.7954	0.156
Mof_H 	H 	0.5684	0.0347	0.7171	0.164
Mof_H 	H 	0.5775	0.9762	0.6731	0.159
Mof_C 	C 	0.52676	0.5017	0.1223	-0.033
Mof_C 	C 	0.5643	0.5076	0.2238	0.226
Mof_H 	H 	0.5968	0.5093	0.1762	-0.056
Mof_C 	C 	0.5892	0.4819	0.3258	-0.526
Mof_H 	H 	0.6011	0.5087	0.3802	0.151
Mof_H 	H 	0.6192	0.461	0.3002	0.145
Mof_H 	H 	0.5637	0.4591	0.3638	0.148
Mof_C 	C 	0.5629	0.5657	0.2539	-0.517
Mof_H 	H 	0.5862	0.5725	0.3192	0.15
Mof_H 	H 	0.5271	0.5758	0.2745	0.151
Mof_H 	H 	0.5744	0.5862	0.1871	0.164
Mof_C 	C 	0.4984	0.0653	0.2521	0.399
Mof_H 	H 	0.5103	0.0996	0.2841	-0.122
Mof_C 	C 	0.4449	0.0734	0.202	-0.707
Mof_H 	H 	0.4209	0.0848	0.2629	0.21
Mof_H 	H 	0.4323	0.0405	0.1689	0.198
Mof_H 	H 	0.4465	0.1	0.1415	0.202
Mof_C 	C 	0.5387	0.0476	0.1671	-0.703
Mof_H 	H 	0.5727	0.0451	0.2054	0.205
Mof_H 	H 	0.5408	0.0727	0.1036	0.199
Mof_H 	H 	0.5288	0.0133	0.1366	0.198
Mof_C 	C 	0.5173	0.4499	0.7639	-0.183
Mof_H 	H 	0.5168	0.4514	0.6794	0.049
Mof_H 	H 	0.5062	0.5778	0.7904	0.058
Mof_H 	H 	0.462	0.5013	0.7903	0.01
Mof_H 	H 	0.4995	0.961	0.6573	-0.057
Mof_H 	H 	0.5529	0.4426	0.7905	0.045
Mof_C 	C 	-1.24319e-34	0	0.0491	0.065
Mof_C 	C 	-5.0934e-34	0	0.1893	0.085
Mof_C 	C 	0.5	0.5	0.9509	0.065
Mof_C 	C 	0.5	0.5	0.8107	0.116
Mof_C 	C 	2.46566e-33	0.5	0.4729	0.016
Mof_C 	C 	3.90645e-33	0.5	0.3427	0.247
Mof_C 	C 	0.5	1.66204e-33	0.5271	0.015
Mof_C 	C 	0.5	0	0.6573	0.259
_end
