data_functionalizedCrystal
_audit_creation_method	'EQeq! by Chris Wilmer'
_symmetry_space_group_name_H-M	'P1'
_symmetry_Int_Tables_number	1
_symmetry_cell_setting	triclinic
loop_
_symmetry_equiv_pos_as_xyz
  x,y,z
_cell_length_a	11.3106
_cell_length_b	12.6698
_cell_length_c	14.7397
_cell_angle_alpha	90
_cell_angle_beta	90
_cell_angle_gamma	90
loop_
_atom_site_label
_atom_site_type_symbol
_atom_site_fract_x
_atom_site_fract_y
_atom_site_fract_z
_atom_site_charge
Mof_Ce	Ce	0.1494	0.8851	0.493	2.371
Mof_O 	O 	0.3544	0.8827	0.437	-0.616
Mof_O 	O 	0.2217	0.0677	0.468	-0.641
Mof_O 	O 	0.5366	0.9314	0.402	-0.437
Mof_O 	O 	0.3181	0.2117	0.426	-0.673
Mof_C 	C 	0.4285	0.9478	0.4044	0.596
Mof_C 	C 	0.3818	0.0491	0.3631	-0.79
Mof_H 	H 	0.4487	0.0923	0.3452	0.23
Mof_H 	H 	0.3382	0.0315	0.3085	0.226
Mof_C 	C 	0.3026	0.114	0.4241	0.69
Mof_O 	O 	0.103	0.9133	0.325	-0.559
Mof_O 	O 	0.9851	0.0083	0.4082	-0.77
Mof_C 	C 	0.0298	0.9861	0.3322	0.565
Mof_H 	H 	0.0667	0.0965	0.2357	0.107
Mof_Ce	Ce	0.3506	0.6149	0.993	2.361
Mof_O 	O 	0.1456	0.6173	0.937	-0.616
Mof_O 	O 	0.2783	0.4323	0.968	-0.645
Mof_O 	O 	0.9634	0.5686	0.902	-0.454
Mof_O 	O 	0.1819	0.2883	0.926	-0.671
Mof_C 	C 	0.0715	0.5522	0.9044	0.624
Mof_C 	C 	0.1182	0.4509	0.8631	-0.805
Mof_H 	H 	0.0513	0.4077	0.8452	0.239
Mof_H 	H 	0.1618	0.4685	0.8085	0.23
Mof_C 	C 	0.1974	0.386	0.9241	0.692
Mof_O 	O 	0.397	0.5867	0.825	-0.571
Mof_O 	O 	0.5149	0.4917	0.9082	-0.753
Mof_C 	C 	0.4702	0.5139	0.8322	0.586
Mof_H 	H 	0.4333	0.4035	0.7357	0.15
Mof_Ce	Ce	0.8506	0.8851	0.007	2.264
Mof_O 	O 	0.6456	0.8827	0.063	-0.605
Mof_O 	O 	0.7783	0.0677	0.032	-0.631
Mof_O 	O 	0.4634	0.9314	0.098	-0.433
Mof_O 	O 	0.6819	0.2117	0.074	-0.672
Mof_C 	C 	0.5715	0.9478	0.0956	0.58
Mof_C 	C 	0.6182	0.0491	0.1369	-0.768
Mof_H 	H 	0.5513	0.0923	0.1548	0.226
Mof_H 	H 	0.6618	0.0315	0.1915	0.219
Mof_C 	C 	0.6974	0.114	0.0759	0.683
Mof_O 	O 	0.897	0.9133	0.175	-0.539
Mof_O 	O 	0.0149	0.0083	0.0918	-0.661
Mof_C 	C 	0.9702	0.9861	0.1678	0.441
Mof_H 	H 	0.9333	0.0965	0.2643	0.079
Mof_Ce	Ce	0.6494	0.6149	0.507	2.335
Mof_O 	O 	0.8544	0.6173	0.563	-0.61
Mof_O 	O 	0.7217	0.4323	0.532	-0.638
Mof_O 	O 	0.0366	0.5686	0.598	-0.406
Mof_O 	O 	0.8181	0.2883	0.574	-0.671
Mof_C 	C 	0.9285	0.5522	0.5956	0.555
Mof_C 	C 	0.8818	0.4509	0.6369	-0.762
Mof_H 	H 	0.9487	0.4077	0.6548	0.211
Mof_H 	H 	0.8382	0.4685	0.6915	0.213
Mof_C 	C 	0.8026	0.386	0.5759	0.677
Mof_O 	O 	0.603	0.5867	0.675	-0.569
Mof_O 	O 	0.4851	0.4917	0.5918	-0.752
Mof_C 	C 	0.5298	0.5139	0.6678	0.586
Mof_H 	H 	0.5667	0.4035	0.7643	0.149
Mof_Ce	Ce	0.8506	0.1149	0.507	2.31
Mof_O 	O 	0.6456	0.1173	0.563	-0.611
Mof_O 	O 	0.7783	0.9323	0.532	-0.643
Mof_O 	O 	0.4634	0.0686	0.598	-0.436
Mof_O 	O 	0.6819	0.7883	0.574	-0.674
Mof_C 	C 	0.5715	0.0522	0.5956	0.59
Mof_C 	C 	0.6182	0.9509	0.6369	-0.783
Mof_H 	H 	0.5513	0.9077	0.6548	0.228
Mof_H 	H 	0.6618	0.9685	0.6915	0.224
Mof_C 	C 	0.6974	0.886	0.5759	0.686
Mof_O 	O 	0.897	0.0867	0.675	-0.55
Mof_O 	O 	0.0149	0.9917	0.5918	-0.7
Mof_C 	C 	0.9702	0.0139	0.6678	0.485
Mof_H 	H 	0.9333	0.9035	0.7643	0.099
Mof_Ce	Ce	0.6494	0.3851	0.007	2.353
Mof_O 	O 	0.8544	0.3827	0.063	-0.606
Mof_O 	O 	0.7217	0.5677	0.032	-0.637
Mof_O 	O 	0.0366	0.4314	0.098	-0.386
Mof_O 	O 	0.8181	0.7117	0.074	-0.667
Mof_C 	C 	0.9285	0.4478	0.0956	0.536
Mof_C 	C 	0.8818	0.5491	0.1369	-0.75
Mof_H 	H 	0.9487	0.5923	0.1548	0.204
Mof_H 	H 	0.8382	0.5315	0.1915	0.208
Mof_C 	C 	0.8026	0.614	0.0759	0.67
Mof_O 	O 	0.603	0.4133	0.175	-0.571
Mof_O 	O 	0.4851	0.5083	0.0918	-0.751
Mof_C 	C 	0.5298	0.4861	0.1678	0.586
Mof_H 	H 	0.5667	0.5965	0.2643	0.149
Mof_Ce	Ce	0.1494	0.1149	0.993	2.305
Mof_O 	O 	0.3544	0.1173	0.937	-0.61
Mof_O 	O 	0.2217	0.9323	0.968	-0.627
Mof_O 	O 	0.5366	0.0686	0.902	-0.436
Mof_O 	O 	0.3181	0.7883	0.926	-0.67
Mof_C 	C 	0.4285	0.0522	0.9044	0.58
Mof_C 	C 	0.3818	0.9509	0.8631	-0.767
Mof_H 	H 	0.4487	0.9077	0.8452	0.225
Mof_H 	H 	0.3382	0.9685	0.8085	0.22
Mof_C 	C 	0.3026	0.886	0.9241	0.684
Mof_O 	O 	0.103	0.0867	0.825	-0.554
Mof_O 	O 	0.9851	0.9917	0.9082	-0.736
Mof_C 	C 	0.0298	0.0139	0.8322	0.544
Mof_H 	H 	0.0667	0.9035	0.7357	0.114
Mof_Ce	Ce	0.3506	0.3851	0.493	2.354
Mof_O 	O 	0.1456	0.3827	0.437	-0.62
Mof_O 	O 	0.2783	0.5677	0.468	-0.646
Mof_O 	O 	0.9634	0.4314	0.402	-0.472
Mof_O 	O 	0.1819	0.7117	0.426	-0.677
Mof_C 	C 	0.0715	0.4478	0.4044	0.645
Mof_C 	C 	0.1182	0.5491	0.3631	-0.819
Mof_H 	H 	0.0513	0.5923	0.3452	0.247
Mof_H 	H 	0.1618	0.5315	0.3085	0.236
Mof_C 	C 	0.1974	0.614	0.4241	0.7
Mof_O 	O 	0.397	0.4133	0.325	-0.57
Mof_O 	O 	0.5149	0.5083	0.4082	-0.751
Mof_C 	C 	0.4702	0.4861	0.3322	0.585
Mof_H 	H 	0.4333	0.5965	0.2357	0.15
Mof_C 	C 	1.22153e-33	0.0514	0.25	-0.489
Mof_C 	C 	0.5	0.4486	0.75	-0.673
Mof_C 	C 	-8.28646e-33	0.9486	0.75	-0.53
Mof_C 	C 	0.5	0.5514	0.25	-0.672
_end
