data_functionalizedCrystal
_audit_creation_method	'EQeq! by Chris Wilmer'
_symmetry_space_group_name_H-M	'P1'
_symmetry_Int_Tables_number	1
_symmetry_cell_setting	triclinic
loop_
_symmetry_equiv_pos_as_xyz
  x,y,z
_cell_length_a	12.77
_cell_length_b	16.428
_cell_length_c	30.195
_cell_angle_alpha	90
_cell_angle_beta	90
_cell_angle_gamma	108.083
loop_
_atom_site_label
_atom_site_type_symbol
_atom_site_fract_x
_atom_site_fract_y
_atom_site_fract_z
_atom_site_charge
Mof_Cu	Cu	0.4859	0.26947	0.65542	0.9
Mof_Cu	Cu	0.61954	0.64601	0.88437	0.826
Mof_Cu	Cu	0.55345	0.2804	0.05925	0.826
Mof_Cu	Cu	0.5141	0.23053	0.15542	0.901
Mof_Cu	Cu	0.38046	0.85399	0.38437	0.827
Mof_Cu	Cu	0.44655	0.2196	0.55925	0.826
Mof_Cu	Cu	0.5141	0.73053	0.34458	0.901
Mof_Cu	Cu	0.38046	0.35399	0.11563	0.827
Mof_Cu	Cu	0.44655	0.7196	0.94075	0.826
Mof_Cu	Cu	0.4859	0.76947	0.84458	0.901
Mof_Cu	Cu	0.61954	0.14601	0.61563	0.827
Mof_Cu	Cu	0.55345	0.7804	0.44075	0.826
Mof_H 	H 	0.3662	0.3914	0.6884	-0.023
Mof_H 	H 	0.2725	0.4057	0.7522	0.092
Mof_H 	H 	0.2874	0.1781	0.7954	0.095
Mof_H 	H 	0.3811	0.1638	0.7315	-0.04
Mof_H 	H 	0.961	0.2737	0.7986	0.242
Mof_H 	H 	0.0364	0.2305	0.7729	0.241
Mof_H 	H 	0.059	0.3297	0.7697	0.238
Mof_H 	H 	0.1381	0.3029	0.9761	0.224
Mof_H 	H 	0.0272	0.2393	0.9586	0.222
Mof_H 	H 	0.0454	0.3382	0.9582	0.217
Mof_H 	H 	0.4299	0.338	0.8254	0.272
Mof_H 	H 	0.44	0.3008	0.8724	0.263
Mof_H 	H 	0.445	0.3969	0.8673	0.261
Mof_H 	H 	0.4974	0.4231	0.0115	-0.051
Mof_H 	H 	0.3901	0.167	0.9991	-0.038
Mof_H 	H 	0.2715	0.1787	0.943	0.087
Mof_H 	H 	0.3788	0.4349	0.9553	0.068
Mof_H 	H 	0.5573	0.1537	0.879	0.258
Mof_H 	H 	0.5617	0.241	0.8568	0.242
Mof_H 	H 	0.569	0.2346	0.9085	0.246
Mof_H 	H 	0.8667	0.0628	0.8715	0.243
Mof_H 	H 	0.9683	0.1193	0.8985	0.237
Mof_H 	H 	0.9696	0.1226	0.8466	0.238
Mof_H 	H 	0.9324	0.4716	0.8783	0.236
Mof_H 	H 	0.014	0.4416	0.8485	0.23
Mof_H 	H 	0.0257	0.4418	0.9002	0.224
Mof_H 	H 	0.6777	0.5297	0.95	-0.041
Mof_H 	H 	0.7411	0.4118	0.9485	0.073
Mof_H 	H 	0.717	0.4047	0.8158	0.075
Mof_H 	H 	0.6536	0.5226	0.8173	-0.02
Mof_H 	H 	0.5178	0.9173	0.9188	-0.043
Mof_H 	H 	0.6243	0.0582	0.9307	0.089
Mof_H 	H 	0.7292	0.0748	0.8046	0.078
Mof_H 	H 	0.6227	0.9339	0.7926	-0.009
Mof_H 	H 	0.7027	0.2907	0.7665	0.425
Mof_H 	H 	0.8093	0.2839	0.743	0.413
Mof_H 	H 	0.7249	0.2021	0.7637	0.42
Mof_H 	H 	0.2444	0.2628	0.6421	0.012
Mof_H 	H 	0.2095	0.1962	0.6035	-0.012
Mof_H 	H 	0.255	0.2943	0.5929	-0.005
Mof_H 	H 	0.6338	0.1086	0.1884	-0.023
Mof_H 	H 	0.7275	0.0943	0.2522	0.092
Mof_H 	H 	0.7126	0.3219	0.2954	0.095
Mof_H 	H 	0.6189	0.3362	0.2315	-0.04
Mof_H 	H 	0.039	0.2263	0.2986	0.245
Mof_H 	H 	0.9636	0.2695	0.2729	0.244
Mof_H 	H 	0.941	0.1703	0.2697	0.241
Mof_H 	H 	0.8619	0.1971	0.4761	0.224
Mof_H 	H 	0.9728	0.2607	0.4586	0.222
Mof_H 	H 	0.9546	0.1618	0.4582	0.217
Mof_H 	H 	0.5701	0.162	0.3254	0.273
Mof_H 	H 	0.56	0.1992	0.3724	0.264
Mof_H 	H 	0.555	0.1031	0.3673	0.262
Mof_H 	H 	0.5026	0.0769	0.5115	-0.051
Mof_H 	H 	0.6099	0.333	0.4991	-0.038
Mof_H 	H 	0.7285	0.3213	0.443	0.087
Mof_H 	H 	0.6212	0.0651	0.4553	0.069
Mof_H 	H 	0.4427	0.3463	0.379	0.257
Mof_H 	H 	0.4383	0.259	0.3568	0.241
Mof_H 	H 	0.431	0.2654	0.4085	0.245
Mof_H 	H 	0.1333	0.4372	0.3715	0.243
Mof_H 	H 	0.0317	0.3807	0.3985	0.237
Mof_H 	H 	0.0304	0.3774	0.3466	0.238
Mof_H 	H 	0.0676	0.0284	0.3783	0.231
Mof_H 	H 	0.986	0.0584	0.3485	0.224
Mof_H 	H 	0.9743	0.0582	0.4002	0.219
Mof_H 	H 	0.3223	0.9703	0.45	-0.04
Mof_H 	H 	0.2589	0.0882	0.4485	0.072
Mof_H 	H 	0.283	0.0953	0.3158	0.074
Mof_H 	H 	0.3464	0.9774	0.3173	-0.02
Mof_H 	H 	0.4822	0.5827	0.4188	-0.042
Mof_H 	H 	0.3757	0.4418	0.4307	0.089
Mof_H 	H 	0.2708	0.4252	0.3046	0.078
Mof_H 	H 	0.3773	0.5661	0.2926	-0.008
Mof_H 	H 	0.2973	0.2093	0.2665	0.425
Mof_H 	H 	0.1907	0.2161	0.243	0.413
Mof_H 	H 	0.2751	0.2979	0.2637	0.42
Mof_H 	H 	0.7556	0.2372	0.1421	0.011
Mof_H 	H 	0.7905	0.3038	0.1035	-0.013
Mof_H 	H 	0.745	0.2057	0.0929	-0.006
Mof_H 	H 	0.6338	0.6086	0.3116	-0.023
Mof_H 	H 	0.7275	0.5943	0.2478	0.092
Mof_H 	H 	0.7126	0.8219	0.2046	0.095
Mof_H 	H 	0.6189	0.8362	0.2685	-0.04
Mof_H 	H 	0.039	0.7263	0.2014	0.242
Mof_H 	H 	0.9636	0.7695	0.2271	0.241
Mof_H 	H 	0.941	0.6703	0.2303	0.238
Mof_H 	H 	0.8619	0.6971	0.0239	0.224
Mof_H 	H 	0.9728	0.7607	0.0414	0.222
Mof_H 	H 	0.9546	0.6618	0.0418	0.217
Mof_H 	H 	0.5701	0.662	0.1746	0.272
Mof_H 	H 	0.56	0.6992	0.1276	0.263
Mof_H 	H 	0.555	0.6031	0.1327	0.261
Mof_H 	H 	0.5026	0.5769	0.9885	-0.051
Mof_H 	H 	0.6099	0.833	0.0009	-0.038
Mof_H 	H 	0.7285	0.8213	0.057	0.087
Mof_H 	H 	0.6212	0.5651	0.0447	0.068
Mof_H 	H 	0.4427	0.8463	0.121	0.258
Mof_H 	H 	0.4383	0.759	0.1432	0.242
Mof_H 	H 	0.431	0.7654	0.0915	0.246
Mof_H 	H 	0.1333	0.9372	0.1285	0.243
Mof_H 	H 	0.0317	0.8807	0.1015	0.237
Mof_H 	H 	0.0304	0.8774	0.1534	0.238
Mof_H 	H 	0.0676	0.5284	0.1217	0.236
Mof_H 	H 	0.986	0.5584	0.1515	0.23
Mof_H 	H 	0.9743	0.5582	0.0998	0.224
Mof_H 	H 	0.3223	0.4703	0.05	-0.041
Mof_H 	H 	0.2589	0.5882	0.0515	0.073
Mof_H 	H 	0.283	0.5953	0.1842	0.075
Mof_H 	H 	0.3464	0.4774	0.1827	-0.02
Mof_H 	H 	0.4822	0.0827	0.0812	-0.043
Mof_H 	H 	0.3757	0.9418	0.0693	0.089
Mof_H 	H 	0.2708	0.9252	0.1954	0.078
Mof_H 	H 	0.3773	0.0661	0.2074	-0.009
Mof_H 	H 	0.2973	0.7093	0.2335	0.425
Mof_H 	H 	0.1907	0.7161	0.257	0.413
Mof_H 	H 	0.2751	0.7979	0.2363	0.42
Mof_H 	H 	0.7556	0.7372	0.3579	0.012
Mof_H 	H 	0.7905	0.8038	0.3965	-0.012
Mof_H 	H 	0.745	0.7057	0.4071	-0.005
Mof_H 	H 	0.3662	0.8914	0.8116	-0.023
Mof_H 	H 	0.2725	0.9057	0.7478	0.092
Mof_H 	H 	0.2874	0.6781	0.7046	0.095
Mof_H 	H 	0.3811	0.6638	0.7685	-0.04
Mof_H 	H 	0.961	0.7737	0.7014	0.245
Mof_H 	H 	0.0364	0.7305	0.7271	0.244
Mof_H 	H 	0.059	0.8297	0.7303	0.241
Mof_H 	H 	0.1381	0.8029	0.5239	0.224
Mof_H 	H 	0.0272	0.7393	0.5414	0.222
Mof_H 	H 	0.0454	0.8382	0.5418	0.217
Mof_H 	H 	0.4299	0.838	0.6746	0.273
Mof_H 	H 	0.44	0.8008	0.6276	0.264
Mof_H 	H 	0.445	0.8969	0.6327	0.262
Mof_H 	H 	0.4974	0.9231	0.4885	-0.051
Mof_H 	H 	0.3901	0.667	0.5009	-0.038
Mof_H 	H 	0.2715	0.6787	0.557	0.087
Mof_H 	H 	0.3788	0.9349	0.5447	0.069
Mof_H 	H 	0.5573	0.6537	0.621	0.257
Mof_H 	H 	0.5617	0.741	0.6432	0.241
Mof_H 	H 	0.569	0.7346	0.5915	0.245
Mof_H 	H 	0.8667	0.5628	0.6285	0.243
Mof_H 	H 	0.9683	0.6193	0.6015	0.237
Mof_H 	H 	0.9696	0.6226	0.6534	0.238
Mof_H 	H 	0.9324	0.9716	0.6217	0.231
Mof_H 	H 	0.014	0.9416	0.6515	0.224
Mof_H 	H 	0.0257	0.9418	0.5998	0.219
Mof_H 	H 	0.6777	0.0297	0.55	-0.04
Mof_H 	H 	0.7411	0.9118	0.5515	0.072
Mof_H 	H 	0.717	0.9047	0.6842	0.074
Mof_H 	H 	0.6536	0.0226	0.6827	-0.02
Mof_H 	H 	0.5178	0.4173	0.5812	-0.042
Mof_H 	H 	0.6243	0.5582	0.5693	0.089
Mof_H 	H 	0.7292	0.5748	0.6954	0.078
Mof_H 	H 	0.6227	0.4339	0.7074	-0.008
Mof_H 	H 	0.7027	0.7907	0.7335	0.425
Mof_H 	H 	0.8093	0.7839	0.757	0.413
Mof_H 	H 	0.7249	0.7021	0.7363	0.42
Mof_H 	H 	0.2444	0.7628	0.8579	0.011
Mof_H 	H 	0.2095	0.6962	0.8965	-0.013
Mof_H 	H 	0.255	0.7943	0.9071	-0.006
Mof_C 	C 	0.3504	0.3486	0.7098	0.097
Mof_C 	C 	0.2943	0.3572	0.7481	-0.233
Mof_C 	C 	0.2707	0.2934	0.7801	0.195
Mof_C 	C 	0.3032	0.2209	0.7739	-0.236
Mof_C 	C 	0.3593	0.2123	0.7356	0.097
Mof_C 	C 	0.0348	0.2807	0.7888	-0.777
Mof_C 	C 	0.2223	0.3051	0.82407	-0.319
Mof_C 	C 	0.1102	0.2935	0.8284	0.301
Mof_C 	C 	0.0639	0.2913	0.8702	-0.185
Mof_C 	C 	0.1297	0.3007	0.90772	0.27
Mof_C 	C 	0.2418	0.3123	0.9034	-0.299
Mof_C 	C 	0.2881	0.3145	0.8616	0.35
Mof_C 	C 	0.0805	0.2947	0.9545	-0.709
Mof_C 	C 	0.4121	0.3399	0.8562	-0.84
Mof_C 	C 	0.4522	0.3742	0.9977	0.056
Mof_C 	C 	0.3878	0.2207	0.9904	0.07
Mof_C 	C 	0.3168	0.2277	0.9568	-0.216
Mof_C 	C 	0.3134	0.3079	0.9436	0.164
Mof_C 	C 	0.3811	0.3812	0.9641	-0.207
Mof_C 	C 	0.7832	0.3231	0.879	-0.301
Mof_C 	C 	0.7145	0.2389	0.8776	0.322
Mof_C 	C 	0.7595	0.1721	0.875	-0.301
Mof_C 	C 	0.8732	0.1895	0.8737	0.279
Mof_C 	C 	0.9419	0.2738	0.8751	-0.184
Mof_C 	C 	0.8968	0.3406	0.8777	0.276
Mof_C 	C 	0.5889	0.2148	0.8808	-0.796
Mof_C 	C 	0.9242	0.1168	0.8725	-0.751
Mof_C 	C 	0.9744	0.4324	0.876	-0.733
Mof_C 	C 	0.6856	0.5046	0.9231	0.066
Mof_C 	C 	0.7236	0.434	0.9222	-0.211
Mof_C 	C 	0.7353	0.3966	0.882	0.168
Mof_C 	C 	0.7091	0.4298	0.8427	-0.209
Mof_C 	C 	0.6711	0.5004	0.8436	0.069
Mof_C 	C 	0.5602	0.9489	0.8959	0.095
Mof_C 	C 	0.624	0.0333	0.903	-0.23
Mof_C 	C 	0.6873	0.0805	0.8688	0.176
Mof_C 	C 	0.6868	0.0432	0.8275	-0.218
Mof_C 	C 	0.623	0.9588	0.8203	0.083
Mof_C 	C 	0.7327	0.255	0.7485	-1.35
Mof_C 	C 	0.673	0.2371	0.7061	0.788
Mof_C 	C 	0.2608	0.2499	0.6124	0.005
Mof_C 	C 	0.6496	0.1514	0.2098	0.097
Mof_C 	C 	0.7057	0.1428	0.2481	-0.233
Mof_C 	C 	0.7293	0.2066	0.2801	0.196
Mof_C 	C 	0.6968	0.2791	0.2739	-0.236
Mof_C 	C 	0.6407	0.2877	0.2356	0.097
Mof_C 	C 	0.9652	0.2193	0.2888	-0.787
Mof_C 	C 	0.7777	0.1949	0.32407	-0.321
Mof_C 	C 	0.8898	0.2065	0.3284	0.305
Mof_C 	C 	0.9361	0.2087	0.3702	-0.189
Mof_C 	C 	0.8703	0.1993	0.40772	0.272
Mof_C 	C 	0.7582	0.1877	0.4034	-0.3
Mof_C 	C 	0.7119	0.1855	0.3616	0.351
Mof_C 	C 	0.9195	0.2053	0.4545	-0.711
Mof_C 	C 	0.5879	0.1601	0.3562	-0.842
Mof_C 	C 	0.5478	0.1258	0.4977	0.056
Mof_C 	C 	0.6122	0.2793	0.4904	0.07
Mof_C 	C 	0.6832	0.2723	0.4568	-0.216
Mof_C 	C 	0.6866	0.1921	0.4436	0.164
Mof_C 	C 	0.6189	0.1188	0.4641	-0.207
Mof_C 	C 	0.2168	0.1769	0.379	-0.297
Mof_C 	C 	0.2855	0.2611	0.3776	0.32
Mof_C 	C 	0.2405	0.3279	0.375	-0.299
Mof_C 	C 	0.1268	0.3105	0.3737	0.277
Mof_C 	C 	0.0581	0.2262	0.3751	-0.179
Mof_C 	C 	0.1032	0.1594	0.3777	0.27
Mof_C 	C 	0.4111	0.2852	0.3808	-0.793
Mof_C 	C 	0.0758	0.3832	0.3725	-0.749
Mof_C 	C 	0.0256	0.0676	0.376	-0.716
Mof_C 	C 	0.3144	0.9954	0.4231	0.064
Mof_C 	C 	0.2764	0.066	0.4222	-0.208
Mof_C 	C 	0.2647	0.1034	0.382	0.166
Mof_C 	C 	0.2909	0.0702	0.3427	-0.206
Mof_C 	C 	0.3289	0.9996	0.3436	0.067
Mof_C 	C 	0.4398	0.5511	0.3959	0.094
Mof_C 	C 	0.376	0.4667	0.403	-0.229
Mof_C 	C 	0.3127	0.4195	0.3688	0.174
Mof_C 	C 	0.3132	0.4568	0.3275	-0.217
Mof_C 	C 	0.377	0.5412	0.3203	0.082
Mof_C 	C 	0.2673	0.245	0.2485	-1.35
Mof_C 	C 	0.327	0.2629	0.2061	0.788
Mof_C 	C 	0.7392	0.2501	0.1124	0.006
Mof_C 	C 	0.6496	0.6514	0.2902	0.097
Mof_C 	C 	0.7057	0.6428	0.2519	-0.233
Mof_C 	C 	0.7293	0.7066	0.2199	0.195
Mof_C 	C 	0.6968	0.7791	0.2261	-0.236
Mof_C 	C 	0.6407	0.7877	0.2644	0.097
Mof_C 	C 	0.9652	0.7193	0.2112	-0.777
Mof_C 	C 	0.7777	0.6949	0.17593	-0.319
Mof_C 	C 	0.8898	0.7065	0.1716	0.301
Mof_C 	C 	0.9361	0.7087	0.1298	-0.185
Mof_C 	C 	0.8703	0.6993	0.09228	0.27
Mof_C 	C 	0.7582	0.6877	0.0966	-0.299
Mof_C 	C 	0.7119	0.6855	0.1384	0.35
Mof_C 	C 	0.9195	0.7053	0.0455	-0.709
Mof_C 	C 	0.5879	0.6601	0.1438	-0.84
Mof_C 	C 	0.5478	0.6258	0.0023	0.056
Mof_C 	C 	0.6122	0.7793	0.0096	0.07
Mof_C 	C 	0.6832	0.7723	0.0432	-0.216
Mof_C 	C 	0.6866	0.6921	0.0564	0.164
Mof_C 	C 	0.6189	0.6188	0.0359	-0.207
Mof_C 	C 	0.2168	0.6769	0.121	-0.301
Mof_C 	C 	0.2855	0.7611	0.1224	0.322
Mof_C 	C 	0.2405	0.8279	0.125	-0.301
Mof_C 	C 	0.1268	0.8105	0.1263	0.279
Mof_C 	C 	0.0581	0.7262	0.1249	-0.184
Mof_C 	C 	0.1032	0.6594	0.1223	0.276
Mof_C 	C 	0.4111	0.7852	0.1192	-0.796
Mof_C 	C 	0.0758	0.8832	0.1275	-0.751
Mof_C 	C 	0.0256	0.5676	0.124	-0.733
Mof_C 	C 	0.3144	0.4954	0.0769	0.066
Mof_C 	C 	0.2764	0.566	0.0778	-0.211
Mof_C 	C 	0.2647	0.6034	0.118	0.168
Mof_C 	C 	0.2909	0.5702	0.1573	-0.209
Mof_C 	C 	0.3289	0.4996	0.1564	0.069
Mof_C 	C 	0.4398	0.0511	0.1041	0.095
Mof_C 	C 	0.376	0.9667	0.097	-0.23
Mof_C 	C 	0.3127	0.9195	0.1312	0.176
Mof_C 	C 	0.3132	0.9568	0.1725	-0.218
Mof_C 	C 	0.377	0.0412	0.1797	0.083
Mof_C 	C 	0.2673	0.745	0.2515	-1.35
Mof_C 	C 	0.327	0.7629	0.2939	0.788
Mof_C 	C 	0.7392	0.7501	0.3876	0.005
Mof_C 	C 	0.3504	0.8486	0.7902	0.097
Mof_C 	C 	0.2943	0.8572	0.7519	-0.233
Mof_C 	C 	0.2707	0.7934	0.7199	0.196
Mof_C 	C 	0.3032	0.7209	0.7261	-0.236
Mof_C 	C 	0.3593	0.7123	0.7644	0.097
Mof_C 	C 	0.0348	0.7807	0.7112	-0.787
Mof_C 	C 	0.2223	0.8051	0.67593	-0.321
Mof_C 	C 	0.1102	0.7935	0.6716	0.305
Mof_C 	C 	0.0639	0.7913	0.6298	-0.189
Mof_C 	C 	0.1297	0.8007	0.59228	0.272
Mof_C 	C 	0.2418	0.8123	0.5966	-0.3
Mof_C 	C 	0.2881	0.8145	0.6384	0.351
Mof_C 	C 	0.0805	0.7947	0.5455	-0.711
Mof_C 	C 	0.4121	0.8399	0.6438	-0.842
Mof_C 	C 	0.4522	0.8742	0.5023	0.056
Mof_C 	C 	0.3878	0.7207	0.5096	0.07
Mof_C 	C 	0.3168	0.7277	0.5432	-0.216
Mof_C 	C 	0.3134	0.8079	0.5564	0.164
Mof_C 	C 	0.3811	0.8812	0.5359	-0.207
Mof_C 	C 	0.7832	0.8231	0.621	-0.297
Mof_C 	C 	0.7145	0.7389	0.6224	0.32
Mof_C 	C 	0.7595	0.6721	0.625	-0.299
Mof_C 	C 	0.8732	0.6895	0.6263	0.277
Mof_C 	C 	0.9419	0.7738	0.6249	-0.179
Mof_C 	C 	0.8968	0.8406	0.6223	0.27
Mof_C 	C 	0.5889	0.7148	0.6192	-0.793
Mof_C 	C 	0.9242	0.6168	0.6275	-0.749
Mof_C 	C 	0.9744	0.9324	0.624	-0.716
Mof_C 	C 	0.6856	0.0046	0.5769	0.064
Mof_C 	C 	0.7236	0.934	0.5778	-0.208
Mof_C 	C 	0.7353	0.8966	0.618	0.166
Mof_C 	C 	0.7091	0.9298	0.6573	-0.206
Mof_C 	C 	0.6711	0.0004	0.6564	0.067
Mof_C 	C 	0.5602	0.4489	0.6041	0.094
Mof_C 	C 	0.624	0.5333	0.597	-0.229
Mof_C 	C 	0.6873	0.5805	0.6312	0.174
Mof_C 	C 	0.6868	0.5432	0.6725	-0.217
Mof_C 	C 	0.623	0.4588	0.6797	0.082
Mof_C 	C 	0.7327	0.755	0.7515	-1.35
Mof_C 	C 	0.673	0.7371	0.7939	0.788
Mof_C 	C 	0.2608	0.7499	0.8876	0.006
Mof_N 	N 	0.383	0.2762	0.7036	-0.233
Mof_N 	N 	0.4555	0.2939	0.0109	-0.269
Mof_N 	N 	0.6594	0.5378	0.8838	-0.257
Mof_N 	N 	0.5597	0.9117	0.8545	-0.203
Mof_N 	N 	0.617	0.2238	0.2036	-0.233
Mof_N 	N 	0.5445	0.2061	0.5109	-0.269
Mof_N 	N 	0.3406	0.9622	0.3838	-0.257
Mof_N 	N 	0.4403	0.5883	0.3545	-0.203
Mof_N 	N 	0.617	0.7238	0.2964	-0.233
Mof_N 	N 	0.5445	0.7061	0.9891	-0.269
Mof_N 	N 	0.3406	0.4622	0.1162	-0.257
Mof_N 	N 	0.4403	0.0883	0.1455	-0.203
Mof_N 	N 	0.383	0.7762	0.7964	-0.233
Mof_N 	N 	0.4555	0.7939	0.4891	-0.269
Mof_N 	N 	0.6594	0.0378	0.6162	-0.257
Mof_N 	N 	0.5597	0.4117	0.6455	-0.203
Mof_O 	O 	0.5965	0.2697	0.7016	-0.558
Mof_O 	O 	0.699	0.1922	0.6788	-0.561
Mof_O 	O 	0.3731	0.2442	0.6107	-0.489
Mof_O 	O 	0.5652	0.2434	0.6043	-0.585
Mof_O 	O 	0.4035	0.2303	0.2016	-0.558
Mof_O 	O 	0.301	0.3078	0.1788	-0.561
Mof_O 	O 	0.6269	0.2558	0.1107	-0.489
Mof_O 	O 	0.4348	0.2566	0.1043	-0.585
Mof_O 	O 	0.4035	0.7303	0.2984	-0.558
Mof_O 	O 	0.301	0.8078	0.3212	-0.561
Mof_O 	O 	0.6269	0.7558	0.3893	-0.489
Mof_O 	O 	0.4348	0.7566	0.3957	-0.585
Mof_O 	O 	0.5965	0.7697	0.7984	-0.558
Mof_O 	O 	0.699	0.6922	0.8212	-0.561
Mof_O 	O 	0.3731	0.7442	0.8893	-0.489
Mof_O 	O 	0.5652	0.7434	0.8957	-0.585
_end
