data_functionalizedCrystal
_audit_creation_method	'EQeq! by Chris Wilmer'
_symmetry_space_group_name_H-M	'P1'
_symmetry_Int_Tables_number	1
_symmetry_cell_setting	triclinic
loop_
_symmetry_equiv_pos_as_xyz
  x,y,z
_cell_length_a	23.1439
_cell_length_b	23.1439
_cell_length_c	23.1439
_cell_angle_alpha	60
_cell_angle_beta	60
_cell_angle_gamma	60
loop_
_atom_site_label
_atom_site_type_symbol
_atom_site_fract_x
_atom_site_fract_y
_atom_site_fract_z
_atom_site_charge
Mof_Zr	Zr	0.57549	0.57549	0.42451	3.227
Mof_Zr	Zr	0.42451	0.42451	0.57549	3.227
Mof_Zr	Zr	0.42451	0.57549	0.57549	3.227
Mof_Zr	Zr	0.57549	0.42451	0.42451	3.227
Mof_Zr	Zr	0.57549	0.42451	0.57549	3.227
Mof_Zr	Zr	0.42451	0.57549	0.42451	3.227
Mof_O 	O 	0.53662	0.53662	0.39014	-1.53
Mof_H 	H 	0.55173	0.55173	0.3448	0.424
Mof_O 	O 	0.53662	0.53662	0.53662	-1.531
Mof_H 	H 	0.55173	0.55173	0.55173	0.424
Mof_O 	O 	0.39014	0.53662	0.53662	-1.53
Mof_H 	H 	0.3448	0.55173	0.55173	0.424
Mof_O 	O 	0.53662	0.39014	0.53662	-1.53
Mof_H 	H 	0.55173	0.3448	0.55173	0.424
Mof_O 	O 	0.46338	0.46338	0.46338	-1.531
Mof_H 	H 	0.44827	0.44827	0.44827	0.424
Mof_O 	O 	0.46338	0.46338	0.60986	-1.53
Mof_H 	H 	0.44827	0.44827	0.6552	0.424
Mof_O 	O 	0.60986	0.46338	0.46338	-1.53
Mof_H 	H 	0.6552	0.44827	0.44827	0.424
Mof_O 	O 	0.46338	0.60986	0.46338	-1.53
Mof_H 	H 	0.44827	0.6552	0.44827	0.424
Mof_O 	O 	0.66779	0.55089	0.44911	-0.641
Mof_C 	C 	0.7848	0.5526	0.4474	0.064
Mof_H 	H 	0.764	0.588	0.412	0.027
Mof_C 	C 	0.8453	0.5523	0.4477	-0.129
Mof_H 	H 	0.8663	0.5877	0.4123	0.077
Mof_O 	O 	0.55089	0.66779	0.33221	-0.641
Mof_C 	C 	0.5526	0.7848	0.2152	0.064
Mof_H 	H 	0.588	0.764	0.236	0.027
Mof_C 	C 	0.5523	0.8453	0.1547	-0.129
Mof_H 	H 	0.5877	0.8663	0.1337	0.077
Mof_O 	O 	0.44911	0.33221	0.66779	-0.641
Mof_C 	C 	0.4474	0.2152	0.7848	0.064
Mof_H 	H 	0.412	0.236	0.764	0.027
Mof_C 	C 	0.4477	0.1547	0.8453	-0.129
Mof_H 	H 	0.4123	0.1337	0.8663	0.077
Mof_O 	O 	0.33221	0.44911	0.55089	-0.641
Mof_C 	C 	0.2152	0.4474	0.5526	0.064
Mof_H 	H 	0.236	0.412	0.588	0.027
Mof_C 	C 	0.1547	0.4477	0.5523	-0.129
Mof_H 	H 	0.1337	0.4123	0.5877	0.077
Mof_O 	O 	0.44911	0.66779	0.55089	-0.641
Mof_C 	C 	0.4474	0.7848	0.5526	0.064
Mof_H 	H 	0.412	0.764	0.588	0.027
Mof_C 	C 	0.4477	0.8453	0.5523	-0.129
Mof_H 	H 	0.4123	0.8663	0.5877	0.077
Mof_O 	O 	0.33221	0.55089	0.66779	-0.641
Mof_C 	C 	0.2152	0.5526	0.7848	0.064
Mof_H 	H 	0.236	0.588	0.764	0.027
Mof_C 	C 	0.1547	0.5523	0.8453	-0.129
Mof_H 	H 	0.1337	0.5877	0.8663	0.077
Mof_O 	O 	0.66779	0.44911	0.33221	-0.641
Mof_C 	C 	0.7848	0.4474	0.2152	0.064
Mof_H 	H 	0.764	0.412	0.236	0.027
Mof_C 	C 	0.8453	0.4477	0.1547	-0.129
Mof_H 	H 	0.8663	0.4123	0.1337	0.077
Mof_O 	O 	0.55089	0.33221	0.44911	-0.641
Mof_C 	C 	0.5526	0.2152	0.4474	0.064
Mof_H 	H 	0.588	0.236	0.412	0.027
Mof_C 	C 	0.5523	0.1547	0.4477	-0.129
Mof_H 	H 	0.5877	0.1337	0.4123	0.077
Mof_O 	O 	0.55089	0.44911	0.66779	-0.641
Mof_C 	C 	0.5526	0.4474	0.7848	0.064
Mof_H 	H 	0.588	0.412	0.764	0.027
Mof_C 	C 	0.5523	0.4477	0.8453	-0.129
Mof_H 	H 	0.5877	0.4123	0.8663	0.077
Mof_O 	O 	0.66779	0.33221	0.55089	-0.641
Mof_C 	C 	0.7848	0.2152	0.5526	0.064
Mof_H 	H 	0.764	0.236	0.588	0.027
Mof_C 	C 	0.8453	0.1547	0.5523	-0.129
Mof_H 	H 	0.8663	0.1337	0.5877	0.077
Mof_O 	O 	0.33221	0.66779	0.44911	-0.641
Mof_C 	C 	0.2152	0.7848	0.4474	0.064
Mof_H 	H 	0.236	0.764	0.412	0.027
Mof_C 	C 	0.1547	0.8453	0.4477	-0.129
Mof_H 	H 	0.1337	0.8663	0.4123	0.077
Mof_O 	O 	0.44911	0.55089	0.33221	-0.641
Mof_C 	C 	0.4474	0.5526	0.2152	0.064
Mof_H 	H 	0.412	0.588	0.236	0.027
Mof_C 	C 	0.4477	0.5523	0.1547	-0.129
Mof_H 	H 	0.4123	0.5877	0.1337	0.077
Mof_O 	O 	0.33221	0.44911	0.66779	-0.641
Mof_C 	C 	0.2152	0.4474	0.7848	0.064
Mof_H 	H 	0.236	0.412	0.764	0.027
Mof_C 	C 	0.1547	0.4477	0.8453	-0.129
Mof_H 	H 	0.1337	0.4123	0.8663	0.077
Mof_O 	O 	0.44911	0.33221	0.55089	-0.641
Mof_C 	C 	0.4474	0.2152	0.5526	0.064
Mof_H 	H 	0.412	0.236	0.588	0.027
Mof_C 	C 	0.4477	0.1547	0.5523	-0.129
Mof_H 	H 	0.4123	0.1337	0.5877	0.077
Mof_O 	O 	0.55089	0.66779	0.44911	-0.641
Mof_C 	C 	0.5526	0.7848	0.4474	0.064
Mof_H 	H 	0.588	0.764	0.412	0.027
Mof_C 	C 	0.5523	0.8453	0.4477	-0.129
Mof_H 	H 	0.5877	0.8663	0.4123	0.077
Mof_O 	O 	0.66779	0.55089	0.33221	-0.641
Mof_C 	C 	0.7848	0.5526	0.2152	0.064
Mof_H 	H 	0.764	0.588	0.236	0.027
Mof_C 	C 	0.8453	0.5523	0.1547	-0.129
Mof_H 	H 	0.8663	0.5877	0.1337	0.077
Mof_O 	O 	0.55089	0.33221	0.66779	-0.641
Mof_C 	C 	0.5526	0.2152	0.7848	0.064
Mof_H 	H 	0.588	0.236	0.764	0.027
Mof_C 	C 	0.5523	0.1547	0.8453	-0.129
Mof_H 	H 	0.5877	0.1337	0.8663	0.077
Mof_O 	O 	0.66779	0.44911	0.55089	-0.641
Mof_C 	C 	0.7848	0.4474	0.5526	0.064
Mof_H 	H 	0.764	0.412	0.588	0.027
Mof_C 	C 	0.8453	0.4477	0.5523	-0.129
Mof_H 	H 	0.8663	0.4123	0.5877	0.077
Mof_O 	O 	0.33221	0.55089	0.44911	-0.641
Mof_C 	C 	0.2152	0.5526	0.4474	0.064
Mof_H 	H 	0.236	0.588	0.412	0.027
Mof_C 	C 	0.1547	0.5523	0.4477	-0.129
Mof_H 	H 	0.1337	0.5877	0.4123	0.077
Mof_O 	O 	0.44911	0.66779	0.33221	-0.641
Mof_C 	C 	0.4474	0.7848	0.2152	0.064
Mof_H 	H 	0.412	0.764	0.236	0.027
Mof_C 	C 	0.4477	0.8453	0.1547	-0.129
Mof_H 	H 	0.4123	0.8663	0.1337	0.077
Mof_O 	O 	0.44911	0.55089	0.66779	-0.641
Mof_C 	C 	0.4474	0.5526	0.7848	0.064
Mof_H 	H 	0.412	0.588	0.764	0.027
Mof_C 	C 	0.4477	0.5523	0.8453	-0.129
Mof_H 	H 	0.4123	0.5877	0.8663	0.077
Mof_O 	O 	0.33221	0.66779	0.55089	-0.641
Mof_C 	C 	0.2152	0.7848	0.5526	0.064
Mof_H 	H 	0.236	0.764	0.588	0.027
Mof_C 	C 	0.1547	0.8453	0.5523	-0.129
Mof_H 	H 	0.1337	0.8663	0.5877	0.077
Mof_O 	O 	0.66779	0.33221	0.44911	-0.641
Mof_C 	C 	0.7848	0.2152	0.4474	0.064
Mof_H 	H 	0.764	0.236	0.412	0.027
Mof_C 	C 	0.8453	0.1547	0.4477	-0.129
Mof_H 	H 	0.8663	0.1337	0.4123	0.077
Mof_O 	O 	0.55089	0.44911	0.33221	-0.641
Mof_C 	C 	0.5526	0.4474	0.2152	0.064
Mof_H 	H 	0.588	0.412	0.236	0.027
Mof_C 	C 	0.5523	0.4477	0.1547	-0.129
Mof_H 	H 	0.5877	0.4123	0.1337	0.077
Mof_C 	C 	0.69232	0.5	0.5	0.424
Mof_C 	C 	0.7562	0.5	0.5	-0.143
Mof_C 	C 	0.874	0.5	0.5	0.082
Mof_C 	C 	0.942	0.5	0.5	-0.021
Mof_C 	C 	0.5	0.69232	0.30768	0.424
Mof_C 	C 	0.5	0.7562	0.2438	-0.143
Mof_C 	C 	0.5	0.874	0.126	0.082
Mof_C 	C 	0.5	0.942	0.058	-0.021
Mof_C 	C 	0.5	0.30768	0.69232	0.424
Mof_C 	C 	0.5	0.2438	0.7562	-0.143
Mof_C 	C 	0.5	0.126	0.874	0.082
Mof_C 	C 	0.5	0.058	0.942	-0.021
Mof_C 	C 	0.30768	0.5	0.5	0.424
Mof_C 	C 	0.2438	0.5	0.5	-0.143
Mof_C 	C 	0.126	0.5	0.5	0.082
Mof_C 	C 	0.058	0.5	0.5	-0.021
Mof_C 	C 	0.5	0.69232	0.5	0.424
Mof_C 	C 	0.5	0.7562	0.5	-0.143
Mof_C 	C 	0.5	0.874	0.5	0.082
Mof_C 	C 	0.5	0.942	0.5	-0.021
Mof_C 	C 	0.30768	0.5	0.69232	0.424
Mof_C 	C 	0.2438	0.5	0.7562	-0.143
Mof_C 	C 	0.126	0.5	0.874	0.082
Mof_C 	C 	0.058	0.5	0.942	-0.021
Mof_C 	C 	0.69232	0.5	0.30768	0.424
Mof_C 	C 	0.7562	0.5	0.2438	-0.143
Mof_C 	C 	0.874	0.5	0.126	0.082
Mof_C 	C 	0.942	0.5	0.058	-0.021
Mof_C 	C 	0.5	0.30768	0.5	0.424
Mof_C 	C 	0.5	0.2438	0.5	-0.143
Mof_C 	C 	0.5	0.126	0.5	0.082
Mof_C 	C 	0.5	0.058	0.5	-0.021
Mof_C 	C 	0.5	0.5	0.69232	0.424
Mof_C 	C 	0.5	0.5	0.7562	-0.143
Mof_C 	C 	0.5	0.5	0.874	0.082
Mof_C 	C 	0.5	0.5	0.942	-0.021
Mof_C 	C 	0.69232	0.30768	0.5	0.424
Mof_C 	C 	0.7562	0.2438	0.5	-0.143
Mof_C 	C 	0.874	0.126	0.5	0.082
Mof_C 	C 	0.942	0.058	0.5	-0.021
Mof_C 	C 	0.30768	0.69232	0.5	0.424
Mof_C 	C 	0.2438	0.7562	0.5	-0.143
Mof_C 	C 	0.126	0.874	0.5	0.082
Mof_C 	C 	0.058	0.942	0.5	-0.021
Mof_C 	C 	0.5	0.5	0.30768	0.424
Mof_C 	C 	0.5	0.5	0.2438	-0.143
Mof_C 	C 	0.5	0.5	0.126	0.082
Mof_C 	C 	0.5	0.5	0.058	-0.021
Mof_C 	C 	0.00766	0.462	0.462	-0.016
Mof_C 	C 	0.0103	0.4261	0.4261	0.047
Mof_C 	C 	0.0091	0.3977	0.3977	-0.108
Mof_H 	H 	0.0083	0.3743	0.3743	0.07
Mof_C 	C 	0.462	0.00766	0.06834	-0.016
Mof_C 	C 	0.4261	0.0103	0.1375	0.047
Mof_C 	C 	0.3977	0.0091	0.1955	-0.108
Mof_H 	H 	0.3743	0.0083	0.2431	0.07
Mof_C 	C 	0.462	0.06834	0.00766	-0.016
Mof_C 	C 	0.4261	0.1375	0.0103	0.047
Mof_C 	C 	0.3977	0.1955	0.0091	-0.108
Mof_H 	H 	0.3743	0.2431	0.0083	0.07
Mof_C 	C 	0.06834	0.462	0.462	-0.016
Mof_C 	C 	0.1375	0.4261	0.4261	0.047
Mof_C 	C 	0.1955	0.3977	0.3977	-0.108
Mof_H 	H 	0.2431	0.3743	0.3743	0.07
Mof_C 	C 	0.462	0.00766	0.462	-0.016
Mof_C 	C 	0.4261	0.0103	0.4261	0.047
Mof_C 	C 	0.3977	0.0091	0.3977	-0.108
Mof_H 	H 	0.3743	0.0083	0.3743	0.07
Mof_C 	C 	0.06834	0.462	0.00766	-0.016
Mof_C 	C 	0.1375	0.4261	0.0103	0.047
Mof_C 	C 	0.1955	0.3977	0.0091	-0.108
Mof_H 	H 	0.2431	0.3743	0.0083	0.07
Mof_C 	C 	0.00766	0.462	0.06834	-0.016
Mof_C 	C 	0.0103	0.4261	0.1375	0.047
Mof_C 	C 	0.0091	0.3977	0.1955	-0.108
Mof_H 	H 	0.0083	0.3743	0.2431	0.07
Mof_C 	C 	0.462	0.06834	0.462	-0.016
Mof_C 	C 	0.4261	0.1375	0.4261	0.047
Mof_C 	C 	0.3977	0.1955	0.3977	-0.108
Mof_H 	H 	0.3743	0.2431	0.3743	0.07
Mof_C 	C 	0.462	0.462	0.00766	-0.016
Mof_C 	C 	0.4261	0.4261	0.0103	0.047
Mof_C 	C 	0.3977	0.3977	0.0091	-0.108
Mof_H 	H 	0.3743	0.3743	0.0083	0.07
Mof_C 	C 	0.00766	0.06834	0.462	-0.016
Mof_C 	C 	0.0103	0.1375	0.4261	0.047
Mof_C 	C 	0.0091	0.1955	0.3977	-0.108
Mof_H 	H 	0.0083	0.2431	0.3743	0.07
Mof_C 	C 	0.06834	0.00766	0.462	-0.016
Mof_C 	C 	0.1375	0.0103	0.4261	0.047
Mof_C 	C 	0.1955	0.0091	0.3977	-0.108
Mof_H 	H 	0.2431	0.0083	0.3743	0.07
Mof_C 	C 	0.462	0.462	0.06834	-0.016
Mof_C 	C 	0.4261	0.4261	0.1375	0.047
Mof_C 	C 	0.3977	0.3977	0.1955	-0.108
Mof_H 	H 	0.3743	0.3743	0.2431	0.07
Mof_C 	C 	0.99234	0.538	0.93166	-0.016
Mof_C 	C 	0.9897	0.5739	0.8625	0.047
Mof_C 	C 	0.9909	0.6023	0.8045	-0.108
Mof_H 	H 	0.9917	0.6257	0.7569	0.07
Mof_C 	C 	0.538	0.99234	0.538	-0.016
Mof_C 	C 	0.5739	0.9897	0.5739	0.047
Mof_C 	C 	0.6023	0.9909	0.6023	-0.108
Mof_H 	H 	0.6257	0.9917	0.6257	0.07
Mof_C 	C 	0.538	0.93166	0.538	-0.016
Mof_C 	C 	0.5739	0.8625	0.5739	0.047
Mof_C 	C 	0.6023	0.8045	0.6023	-0.108
Mof_H 	H 	0.6257	0.7569	0.6257	0.07
Mof_C 	C 	0.93166	0.538	0.99234	-0.016
Mof_C 	C 	0.8625	0.5739	0.9897	0.047
Mof_C 	C 	0.8045	0.6023	0.9909	-0.108
Mof_H 	H 	0.7569	0.6257	0.9917	0.07
Mof_C 	C 	0.538	0.99234	0.93166	-0.016
Mof_C 	C 	0.5739	0.9897	0.8625	0.047
Mof_C 	C 	0.6023	0.9909	0.8045	-0.108
Mof_H 	H 	0.6257	0.9917	0.7569	0.07
Mof_C 	C 	0.93166	0.538	0.538	-0.016
Mof_C 	C 	0.8625	0.5739	0.5739	0.047
Mof_C 	C 	0.8045	0.6023	0.6023	-0.108
Mof_H 	H 	0.7569	0.6257	0.6257	0.07
Mof_C 	C 	0.99234	0.538	0.538	-0.016
Mof_C 	C 	0.9897	0.5739	0.5739	0.047
Mof_C 	C 	0.9909	0.6023	0.6023	-0.108
Mof_H 	H 	0.9917	0.6257	0.6257	0.07
Mof_C 	C 	0.538	0.93166	0.99234	-0.016
Mof_C 	C 	0.5739	0.8625	0.9897	0.047
Mof_C 	C 	0.6023	0.8045	0.9909	-0.108
Mof_H 	H 	0.6257	0.7569	0.9917	0.07
Mof_C 	C 	0.538	0.538	0.93166	-0.016
Mof_C 	C 	0.5739	0.5739	0.8625	0.047
Mof_C 	C 	0.6023	0.6023	0.8045	-0.108
Mof_H 	H 	0.6257	0.6257	0.7569	0.07
Mof_C 	C 	0.99234	0.93166	0.538	-0.016
Mof_C 	C 	0.9897	0.8625	0.5739	0.047
Mof_C 	C 	0.9909	0.8045	0.6023	-0.108
Mof_H 	H 	0.9917	0.7569	0.6257	0.07
Mof_C 	C 	0.93166	0.99234	0.538	-0.016
Mof_C 	C 	0.8625	0.9897	0.5739	0.047
Mof_C 	C 	0.8045	0.9909	0.6023	-0.108
Mof_H 	H 	0.7569	0.9917	0.6257	0.07
Mof_C 	C 	0.538	0.538	0.99234	-0.016
Mof_C 	C 	0.5739	0.5739	0.9897	0.047
Mof_C 	C 	0.6023	0.6023	0.9909	-0.108
Mof_H 	H 	0.6257	0.6257	0.9917	0.07
_end
