data_functionalizedCrystal
_audit_creation_method	'EQeq! by Chris Wilmer'
_symmetry_space_group_name_H-M	'P1'
_symmetry_Int_Tables_number	1
_symmetry_cell_setting	triclinic
loop_
_symmetry_equiv_pos_as_xyz
  x,y,z
_cell_length_a	6.2081
_cell_length_b	12.681
_cell_length_c	10.414
_cell_angle_alpha	90
_cell_angle_beta	91.21
_cell_angle_gamma	90
loop_
_atom_site_label
_atom_site_type_symbol
_atom_site_fract_x
_atom_site_fract_y
_atom_site_fract_z
_atom_site_charge
Mof_Co	Co	0.1658	0.7466	0.27566	1.15
Mof_O 	O 	0.9037	0.1532	0.8421	-0.371
Mof_N 	N 	0.018	0.8546	0.1511	-0.257
Mof_O 	O 	0.5906	0.1428	0.9367	-0.352
Mof_O 	O 	0.4364	0.3649	0.8219	-0.39
Mof_C 	C 	0.8651	0.0237	0.0066	0.004
Mof_N 	N 	0.3146	0.6574	0.137	-0.237
Mof_O 	O 	0.7537	0.3847	0.9133	-0.333
Mof_C 	C 	0.603	0.5441	0.0779	-0.11
Mof_H 	H 	0.7432	0.5212	0.0938	0.092
Mof_C 	C 	0.0647	0.9816	0.9844	-0.082
Mof_H 	H 	0.1496	0.009	0.9199	0.076
Mof_C 	C 	0.2742	0.5413	0.9563	-0.054
Mof_H 	H 	0.1876	0.5145	0.89	0.069
Mof_C 	C 	0.5642	0.4111	0.9008	0.283
Mof_C 	C 	0.5115	0.6213	0.1538	0.069
Mof_H 	H 	0.5948	0.6491	0.2209	0.012
Mof_C 	C 	0.4784	0.5014	0.976	0.006
Mof_C 	C 	0.1396	0.8971	0.0596	0.029
Mof_H 	H 	0.2763	0.8699	0.0459	0.003
Mof_C 	C 	0.8235	0.8969	0.1747	0.093
Mof_H 	H 	0.7413	0.8685	0.2398	0.01
Mof_C 	C 	0.1957	0.6208	0.0336	0.017
Mof_H 	H 	0.0608	0.6497	0.0153	-0.003
Mof_C 	C 	0.7425	0.9818	0.1043	-0.09
Mof_H 	H 	0.6082	0.0101	0.1223	0.075
Mof_C 	C 	0.778	0.1151	0.9266	0.291
Mof_Co	Co	0.6658	0.2534	0.77566	1.16
Mof_O 	O 	0.4037	0.8468	0.3421	-0.388
Mof_N 	N 	0.518	0.1454	0.6511	-0.235
Mof_O 	O 	0.0906	0.8572	0.4367	-0.368
Mof_O 	O 	0.9364	0.6351	0.3219	-0.328
Mof_C 	C 	0.3651	0.9763	0.5066	0.005
Mof_N 	N 	0.8146	0.3426	0.637	-0.227
Mof_O 	O 	0.2537	0.6153	0.4133	-0.324
Mof_C 	C 	0.103	0.4559	0.5779	-0.181
Mof_H 	H 	0.2432	0.4788	0.5938	0.112
Mof_C 	C 	0.5647	0.0184	0.4844	-0.091
Mof_H 	H 	0.6496	0.991	0.4199	0.091
Mof_C 	C 	0.7742	0.4587	0.4563	-0.141
Mof_H 	H 	0.6876	0.4855	0.39	0.104
Mof_C 	C 	0.0642	0.5889	0.4008	0.169
Mof_C 	C 	0.0115	0.3787	0.6538	0.059
Mof_H 	H 	0.0948	0.3509	0.7209	0.006
Mof_C 	C 	0.9784	0.4986	0.476	0.121
Mof_C 	C 	0.6396	0.1029	0.5596	0.058
Mof_H 	H 	0.7763	0.1301	0.5459	0.005
Mof_C 	C 	0.3235	0.1031	0.6747	0.052
Mof_H 	H 	0.2413	0.1315	0.7398	0.01
Mof_C 	C 	0.6957	0.3792	0.5336	0.086
Mof_H 	H 	0.5608	0.3503	0.5153	-0.012
Mof_C 	C 	0.2425	0.0182	0.6043	-0.095
Mof_H 	H 	0.1082	0.9899	0.6223	0.074
Mof_C 	C 	0.278	0.8849	0.4266	0.278
_end
