data_functionalizedCrystal
_audit_creation_method	'EQeq! by Chris Wilmer'
_symmetry_space_group_name_H-M	'P1'
_symmetry_Int_Tables_number	1
_symmetry_cell_setting	triclinic
loop_
_symmetry_equiv_pos_as_xyz
  x,y,z
_cell_length_a	11.69
_cell_length_b	25.29
_cell_length_c	25.29
_cell_angle_alpha	120
_cell_angle_beta	90
_cell_angle_gamma	90
loop_
_atom_site_label
_atom_site_type_symbol
_atom_site_fract_x
_atom_site_fract_y
_atom_site_fract_z
_atom_site_charge
Mof_Cd	Cd	2.33915e-32	0.41239	0.93747	0.465
Mof_Cd	Cd	-7.79718e-33	0.52508	0.58761	0.465
Mof_Cd	Cd	1.16958e-32	0.06253	0.47492	0.465
Mof_Cd	Cd	1.12084e-32	0.58761	0.06253	0.465
Mof_Cd	Cd	-1.9493e-32	0.47492	0.41239	0.465
Mof_Cd	Cd	1.9493e-32	0.93747	0.52508	0.465
Mof_H 	H 	0.2202	0.3825	0.9887	0.014
Mof_H 	H 	0.415	0.3865	0.9928	0.082
Mof_H 	H 	0.4105	0.4471	0.8797	0.084
Mof_H 	H 	0.2163	0.4493	0.8842	0.003
Mof_H 	H 	0.2202	0.6062	0.6175	0.014
Mof_H 	H 	0.415	0.6063	0.6135	0.082
Mof_H 	H 	0.4105	0.4326	0.5529	0.084
Mof_H 	H 	0.2163	0.4349	0.5507	0.003
Mof_H 	H 	0.2202	0.0113	0.3938	0.014
Mof_H 	H 	0.415	0.0072	0.3937	0.082
Mof_H 	H 	0.4105	0.1203	0.5674	0.084
Mof_H 	H 	0.2163	0.1158	0.5651	0.003
Mof_H 	H 	0.2202	0.6175	0.0113	0.014
Mof_H 	H 	0.415	0.6135	0.0072	0.082
Mof_H 	H 	0.4105	0.5529	0.1203	0.084
Mof_H 	H 	0.2163	0.5507	0.1158	0.003
Mof_H 	H 	0.2202	0.3938	0.3825	0.014
Mof_H 	H 	0.415	0.3937	0.3865	0.082
Mof_H 	H 	0.4105	0.5674	0.4471	0.084
Mof_H 	H 	0.2163	0.5651	0.4493	0.003
Mof_H 	H 	0.2202	0.9887	0.6062	0.014
Mof_H 	H 	0.415	0.9928	0.6063	0.082
Mof_H 	H 	0.4105	0.8797	0.4326	0.084
Mof_H 	H 	0.2163	0.8842	0.4349	0.003
Mof_H 	H 	0.7798	0.6175	0.0113	0.014
Mof_H 	H 	0.585	0.6135	0.0072	0.082
Mof_H 	H 	0.5895	0.5529	0.1203	0.084
Mof_H 	H 	0.7837	0.5507	0.1158	0.003
Mof_H 	H 	0.7798	0.3938	0.3825	0.014
Mof_H 	H 	0.585	0.3937	0.3865	0.082
Mof_H 	H 	0.5895	0.5674	0.4471	0.084
Mof_H 	H 	0.7837	0.5651	0.4493	0.003
Mof_H 	H 	0.7798	0.9887	0.6062	0.014
Mof_H 	H 	0.585	0.9928	0.6063	0.082
Mof_H 	H 	0.5895	0.8797	0.4326	0.084
Mof_H 	H 	0.7837	0.8842	0.4349	0.003
Mof_H 	H 	0.7798	0.3825	0.9887	0.014
Mof_H 	H 	0.585	0.3865	0.9928	0.082
Mof_H 	H 	0.5895	0.4471	0.8797	0.084
Mof_H 	H 	0.7837	0.4493	0.8842	0.003
Mof_H 	H 	0.7798	0.6062	0.6175	0.014
Mof_H 	H 	0.585	0.6063	0.6135	0.082
Mof_H 	H 	0.5895	0.4326	0.5529	0.084
Mof_H 	H 	0.7837	0.4349	0.5507	0.003
Mof_H 	H 	0.7798	0.0113	0.3938	0.014
Mof_H 	H 	0.585	0.0072	0.3937	0.082
Mof_H 	H 	0.5895	0.1203	0.5674	0.084
Mof_H 	H 	0.7837	0.1158	0.5651	0.003
Mof_H 	H 	1.9493e-33	0.5484	0.1717	0.119
Mof_H 	H 	7.79718e-33	0.5829	0.3194	0.177
Mof_H 	H 	7.79718e-33	0.6073	0.2766	0.151
Mof_H 	H 	2.14422e-32	0.3789	0.1953	0.018
Mof_H 	H 	1.9493e-33	0.3683	0.1003	0.095
Mof_H 	H 	1.55944e-32	0.6233	0.4516	0.119
Mof_H 	H 	-0	0.7365	0.4171	0.177
Mof_H 	H 	3.89859e-33	0.6693	0.3927	0.151
Mof_H 	H 	4.67831e-32	0.8164	0.6211	0.018
Mof_H 	H 	3.11887e-32	0.732	0.6317	0.095
Mof_H 	H 	1.16958e-32	0.8283	0.3767	0.119
Mof_H 	H 	-0	0.6806	0.2635	0.177
Mof_H 	H 	1.55944e-32	0.7234	0.3307	0.151
Mof_H 	H 	5.84789e-33	0.8047	0.1836	0.018
Mof_H 	H 	-1.55944e-32	0.8997	0.268	0.095
Mof_H 	H 	-7.79718e-33	0.4516	0.8283	0.119
Mof_H 	H 	3.11887e-32	0.4171	0.6806	0.177
Mof_H 	H 	1.55944e-32	0.3927	0.7234	0.151
Mof_H 	H 	3.11887e-32	0.6211	0.8047	0.018
Mof_H 	H 	2.33915e-32	0.6317	0.8997	0.095
Mof_H 	H 	7.79718e-33	0.3767	0.5484	0.119
Mof_H 	H 	2.33915e-32	0.2635	0.5829	0.177
Mof_H 	H 	-0	0.3307	0.6073	0.151
Mof_H 	H 	3.89859e-33	0.1836	0.3789	0.018
Mof_H 	H 	-0	0.268	0.3683	0.095
Mof_H 	H 	1.55944e-32	0.1717	0.6233	0.119
Mof_H 	H 	1.55944e-32	0.3194	0.7365	0.177
Mof_H 	H 	3.89859e-32	0.2766	0.6693	0.151
Mof_H 	H 	2.33915e-32	0.1953	0.8164	0.018
Mof_H 	H 	2.33915e-32	0.1003	0.732	0.095
Mof_C 	C 	0.2584	0.3978	0.967	0.099
Mof_C 	C 	0.3767	0.3985	0.9682	-0.15
Mof_C 	C 	0.4368	0.4162	0.9349	0.077
Mof_C 	C 	0.3743	0.4342	0.904	-0.16
Mof_C 	C 	0.2557	0.4349	0.9064	0.112
Mof_C 	C 	0.2584	0.5692	0.6022	0.099
Mof_C 	C 	0.3767	0.5697	0.6015	-0.15
Mof_C 	C 	0.4368	0.5187	0.5838	0.077
Mof_C 	C 	0.3743	0.4698	0.5658	-0.16
Mof_C 	C 	0.2557	0.4715	0.5651	0.112
Mof_C 	C 	0.2584	0.033	0.4308	0.099
Mof_C 	C 	0.3767	0.0318	0.4303	-0.15
Mof_C 	C 	0.4368	0.0651	0.4813	0.077
Mof_C 	C 	0.3743	0.096	0.5302	-0.16
Mof_C 	C 	0.2557	0.0936	0.5285	0.112
Mof_C 	C 	0.2584	0.6022	0.033	0.099
Mof_C 	C 	0.3767	0.6015	0.0318	-0.15
Mof_C 	C 	0.4368	0.5838	0.0651	0.077
Mof_C 	C 	0.3743	0.5658	0.096	-0.16
Mof_C 	C 	0.2557	0.5651	0.0936	0.112
Mof_C 	C 	0.2584	0.4308	0.3978	0.099
Mof_C 	C 	0.3767	0.4303	0.3985	-0.15
Mof_C 	C 	0.4368	0.4813	0.4162	0.077
Mof_C 	C 	0.3743	0.5302	0.4342	-0.16
Mof_C 	C 	0.2557	0.5285	0.4349	0.112
Mof_C 	C 	0.2584	0.967	0.5692	0.099
Mof_C 	C 	0.3767	0.9682	0.5697	-0.15
Mof_C 	C 	0.4368	0.9349	0.5187	0.077
Mof_C 	C 	0.3743	0.904	0.4698	-0.16
Mof_C 	C 	0.2557	0.9064	0.4715	0.112
Mof_C 	C 	0.7416	0.6022	0.033	0.099
Mof_C 	C 	0.6233	0.6015	0.0318	-0.15
Mof_C 	C 	0.5632	0.5838	0.0651	0.077
Mof_C 	C 	0.6257	0.5658	0.096	-0.16
Mof_C 	C 	0.7443	0.5651	0.0936	0.112
Mof_C 	C 	0.7416	0.4308	0.3978	0.099
Mof_C 	C 	0.6233	0.4303	0.3985	-0.15
Mof_C 	C 	0.5632	0.4813	0.4162	0.077
Mof_C 	C 	0.6257	0.5302	0.4342	-0.16
Mof_C 	C 	0.7443	0.5285	0.4349	0.112
Mof_C 	C 	0.7416	0.967	0.5692	0.099
Mof_C 	C 	0.6233	0.9682	0.5697	-0.15
Mof_C 	C 	0.5632	0.9349	0.5187	0.077
Mof_C 	C 	0.6257	0.904	0.4698	-0.16
Mof_C 	C 	0.7443	0.9064	0.4715	0.112
Mof_C 	C 	0.7416	0.3978	0.967	0.099
Mof_C 	C 	0.6233	0.3985	0.9682	-0.15
Mof_C 	C 	0.5632	0.4162	0.9349	0.077
Mof_C 	C 	0.6257	0.4342	0.904	-0.16
Mof_C 	C 	0.7443	0.4349	0.9064	0.112
Mof_C 	C 	0.7416	0.5692	0.6022	0.099
Mof_C 	C 	0.6233	0.5697	0.6015	-0.15
Mof_C 	C 	0.5632	0.5187	0.5838	0.077
Mof_C 	C 	0.6257	0.4698	0.5658	-0.16
Mof_C 	C 	0.7443	0.4715	0.5651	0.112
Mof_C 	C 	0.7416	0.033	0.4308	0.099
Mof_C 	C 	0.6233	0.0318	0.4303	-0.15
Mof_C 	C 	0.5632	0.0651	0.4813	0.077
Mof_C 	C 	0.6257	0.096	0.5302	-0.16
Mof_C 	C 	0.7443	0.0936	0.5285	0.112
Mof_C 	C 	-1.02338e-32	0.4495	0.0649	0.26
Mof_C 	C 	9.74648e-34	0.4576	0.1275	0.047
Mof_C 	C 	3.89859e-33	0.5142	0.1764	-0.199
Mof_C 	C 	-1.9493e-33	0.5202	0.2356	0.23
Mof_C 	C 	9.74648e-33	0.4706	0.244	-0.2
Mof_C 	C 	3.89859e-33	0.4137	0.1916	0.095
Mof_C 	C 	1.16958e-32	0.4072	0.1346	-0.137
Mof_C 	C 	-3.89859e-33	0.475	0.3046	0.352
Mof_C 	C 	2.33915e-32	0.6154	0.5505	0.26
Mof_C 	C 	3.11887e-32	0.6699	0.5424	0.047
Mof_C 	C 	1.16958e-32	0.6622	0.4858	-0.199
Mof_C 	C 	1.16958e-32	0.7154	0.4798	0.23
Mof_C 	C 	-0	0.7734	0.5294	-0.2
Mof_C 	C 	-0	0.7779	0.5863	0.095
Mof_C 	C 	-0	0.7274	0.5928	-0.137
Mof_C 	C 	-0	0.8296	0.525	0.352
Mof_C 	C 	-3.89859e-33	0.9351	0.3846	0.26
Mof_C 	C 	-1.55944e-32	0.8725	0.3301	0.047
Mof_C 	C 	-1.16958e-32	0.8236	0.3378	-0.199
Mof_C 	C 	2.33915e-32	0.7644	0.2846	0.23
Mof_C 	C 	2.72901e-32	0.756	0.2266	-0.2
Mof_C 	C 	9.74648e-33	0.8084	0.2221	0.095
Mof_C 	C 	2.72901e-32	0.8654	0.2726	-0.137
Mof_C 	C 	-3.89859e-33	0.6954	0.1704	0.352
Mof_C 	C 	-0	0.5505	0.9351	0.26
Mof_C 	C 	1.55944e-32	0.5424	0.8725	0.047
Mof_C 	C 	-7.79718e-33	0.4858	0.8236	-0.199
Mof_C 	C 	2.33915e-32	0.4798	0.7644	0.23
Mof_C 	C 	1.55944e-32	0.5294	0.756	-0.2
Mof_C 	C 	6.23774e-32	0.5863	0.8084	0.095
Mof_C 	C 	1.55944e-32	0.5928	0.8654	-0.137
Mof_C 	C 	-7.79718e-33	0.525	0.6954	0.352
Mof_C 	C 	7.79718e-33	0.3846	0.4495	0.26
Mof_C 	C 	1.55944e-32	0.3301	0.4576	0.047
Mof_C 	C 	-3.89859e-33	0.3378	0.5142	-0.199
Mof_C 	C 	3.89859e-33	0.2846	0.5202	0.23
Mof_C 	C 	2.33915e-32	0.2266	0.4706	-0.2
Mof_C 	C 	7.79718e-33	0.2221	0.4137	0.095
Mof_C 	C 	-0	0.2726	0.4072	-0.137
Mof_C 	C 	-0	0.1704	0.475	0.352
Mof_C 	C 	2.33915e-32	0.0649	0.6154	0.26
Mof_C 	C 	1.55944e-32	0.1275	0.6699	0.047
Mof_C 	C 	1.55944e-32	0.1764	0.6622	-0.199
Mof_C 	C 	3.89859e-32	0.2356	0.7154	0.23
Mof_C 	C 	1.55944e-32	0.244	0.7734	-0.2
Mof_C 	C 	7.79718e-33	0.1916	0.7779	0.095
Mof_C 	C 	2.33915e-32	0.1346	0.7274	-0.137
Mof_C 	C 	7.79718e-33	0.3046	0.8296	0.352
Mof_N 	N 	0.1975	0.417	0.937	-0.161
Mof_N 	N 	0.1975	0.52	0.583	-0.161
Mof_N 	N 	0.1975	0.063	0.48	-0.161
Mof_N 	N 	0.1975	0.583	0.063	-0.161
Mof_N 	N 	0.1975	0.48	0.417	-0.161
Mof_N 	N 	0.1975	0.937	0.52	-0.161
Mof_N 	N 	0.8025	0.583	0.063	-0.161
Mof_N 	N 	0.8025	0.48	0.417	-0.161
Mof_N 	N 	0.8025	0.937	0.52	-0.161
Mof_N 	N 	0.8025	0.417	0.937	-0.161
Mof_N 	N 	0.8025	0.52	0.583	-0.161
Mof_N 	N 	0.8025	0.063	0.48	-0.161
Mof_N 	N 	2.33915e-32	0.5768	0.2828	-0.345
Mof_N 	N 	-1.55944e-32	0.706	0.4232	-0.345
Mof_N 	N 	3.89859e-33	0.7172	0.294	-0.345
Mof_N 	N 	1.55944e-32	0.4232	0.7172	-0.345
Mof_N 	N 	1.55944e-32	0.294	0.5768	-0.345
Mof_N 	N 	1.55944e-32	0.2828	0.706	-0.345
Mof_O 	O 	6.33521e-33	0.3974	0.0192	-0.264
Mof_O 	O 	-8.2845e-33	0.497	0.0597	-0.281
Mof_O 	O 	7.79718e-33	0.4276	0.3081	-0.281
Mof_O 	O 	3.89859e-33	0.5269	0.3523	-0.302
Mof_O 	O 	1.55944e-32	0.6218	0.6026	-0.264
Mof_O 	O 	7.79718e-33	0.5627	0.503	-0.281
Mof_O 	O 	3.11887e-32	0.8805	0.5724	-0.281
Mof_O 	O 	3.89859e-32	0.8254	0.4731	-0.302
Mof_O 	O 	2.33915e-32	0.9808	0.3782	-0.264
Mof_O 	O 	-2.72901e-32	0.9403	0.4373	-0.281
Mof_O 	O 	1.9493e-33	0.6919	0.1195	-0.281
Mof_O 	O 	1.16958e-32	0.6477	0.1746	-0.302
Mof_O 	O 	-1.55944e-32	0.6026	0.9808	-0.264
Mof_O 	O 	3.11887e-32	0.503	0.9403	-0.281
Mof_O 	O 	2.33915e-32	0.5724	0.6919	-0.281
Mof_O 	O 	1.55944e-32	0.4731	0.6477	-0.302
Mof_O 	O 	1.9493e-32	0.3782	0.3974	-0.264
Mof_O 	O 	7.79718e-33	0.4373	0.497	-0.281
Mof_O 	O 	7.79718e-33	0.1195	0.4276	-0.281
Mof_O 	O 	-0	0.1746	0.5269	-0.302
Mof_O 	O 	7.79718e-33	0.0192	0.6218	-0.264
Mof_O 	O 	3.11887e-32	0.0597	0.5627	-0.281
Mof_O 	O 	-0	0.3081	0.8805	-0.281
Mof_O 	O 	5.45803e-32	0.3523	0.8254	-0.302
_end
