data_functionalizedCrystal
_audit_creation_method	'EQeq! by Chris Wilmer'
_symmetry_space_group_name_H-M	'P1'
_symmetry_Int_Tables_number	1
_symmetry_cell_setting	triclinic
loop_
_symmetry_equiv_pos_as_xyz
  x,y,z
_cell_length_a	13.6363
_cell_length_b	16.8584
_cell_length_c	8.226
_cell_angle_alpha	90
_cell_angle_beta	99.159
_cell_angle_gamma	90
loop_
_atom_site_label
_atom_site_type_symbol
_atom_site_fract_x
_atom_site_fract_y
_atom_site_fract_z
_atom_site_charge
Mof_Zn	Zn	0.36334	0.02255	0.37069	1.242
Mof_O 	O 	0.41806	0.97879	0.597	-0.444
Mof_O 	O 	0.5435	0.89583	0.6773	-0.421
Mof_O 	O 	0.4615	0.5986	0.6432	-0.102
Mof_O 	O 	0.32057	0.57198	0.7407	-0.417
Mof_O 	O 	0.76629	0.86646	0.8111	-0.266
Mof_O 	O 	0.75757	0.93192	0.5704	-0.408
Mof_C 	C 	0.8025	0.8869	0.688	0.302
Mof_C 	C 	0.451	0.9115	0.6408	0.371
Mof_C 	C 	0.3815	0.6164	0.6836	-0.019
Mof_C 	C 	0.906	0.8612	0.6728	-0.075
Mof_C 	C 	0.9577	0.8984	0.5607	0.024
Mof_H 	H 	0.9255	0.9351	0.4862	0.042
Mof_C 	C 	0.0565	0.88097	0.5601	-0.106
Mof_H 	H 	0.0912	0.9079	0.4886	0.073
Mof_C 	C 	0.1054	0.82269	0.6669	0.062
Mof_C 	C 	0.0518	0.7833	0.7726	-0.104
Mof_H 	H 	0.0819	0.7434	0.8409	0.075
Mof_C 	C 	0.9538	0.8033	0.7768	0.025
Mof_H 	H 	0.9194	0.7775	0.8504	0.048
Mof_C 	C 	0.2119	0.80354	0.6674	-0.018
Mof_C 	C 	0.2795	0.863	0.6486	-0.008
Mof_H 	H 	0.2574	0.9149	0.6302	0.047
Mof_C 	C 	0.3798	0.8459	0.6569	-0.093
Mof_C 	C 	0.4126	0.7684	0.6796	0.033
Mof_H 	H 	0.4798	0.7569	0.6853	0.069
Mof_C 	C 	0.3459	0.7076	0.6939	-0.074
Mof_C 	C 	0.2462	0.7257	0.6894	-0.013
Mof_H 	H 	0.2015	0.6852	0.7013	0.052
Mof_O 	O 	0.4744	0.6235	0.8033	-0.244
Mof_C 	C 	0.3838	0.6311	0.7566	0.351
Mof_Zn	Zn	0.63666	0.52255	0.12931	1.241
Mof_O 	O 	0.58194	0.47879	0.903	-0.445
Mof_O 	O 	0.4565	0.39583	0.8227	-0.422
Mof_O 	O 	0.5385	0.0986	0.8568	-0.103
Mof_O 	O 	0.67943	0.07198	0.7593	-0.417
Mof_O 	O 	0.23371	0.36646	0.6889	-0.267
Mof_O 	O 	0.24243	0.43192	0.9296	-0.408
Mof_C 	C 	0.1975	0.3869	0.812	0.301
Mof_C 	C 	0.549	0.4115	0.8592	0.371
Mof_C 	C 	0.6185	0.1164	0.8164	-0.02
Mof_C 	C 	0.094	0.3612	0.8272	-0.073
Mof_C 	C 	0.0423	0.3984	0.9393	0.02
Mof_H 	H 	0.0745	0.4351	0.0138	0.045
Mof_C 	C 	0.9435	0.38097	0.9399	-0.102
Mof_H 	H 	0.9088	0.4079	0.0114	0.07
Mof_C 	C 	0.8946	0.32269	0.8331	0.059
Mof_C 	C 	0.9482	0.2833	0.7274	-0.101
Mof_H 	H 	0.9181	0.2434	0.6591	0.074
Mof_C 	C 	0.0462	0.3033	0.7232	0.022
Mof_H 	H 	0.0806	0.2775	0.6496	0.05
Mof_C 	C 	0.7881	0.30354	0.8326	-0.016
Mof_C 	C 	0.7205	0.363	0.8514	-0.009
Mof_H 	H 	0.7426	0.4149	0.8698	0.047
Mof_C 	C 	0.6202	0.3459	0.8431	-0.092
Mof_C 	C 	0.5874	0.2684	0.8204	0.033
Mof_H 	H 	0.5202	0.2569	0.8147	0.069
Mof_C 	C 	0.6541	0.2076	0.8061	-0.074
Mof_C 	C 	0.7538	0.2257	0.8106	-0.014
Mof_H 	H 	0.7985	0.1852	0.7987	0.053
Mof_O 	O 	0.5256	0.1235	0.6967	-0.244
Mof_C 	C 	0.6162	0.1311	0.7434	0.351
Mof_Zn	Zn	0.63666	0.97745	0.62931	1.241
Mof_O 	O 	0.58194	0.02121	0.403	-0.445
Mof_O 	O 	0.4565	0.10417	0.3227	-0.422
Mof_O 	O 	0.5385	0.4014	0.3568	-0.103
Mof_O 	O 	0.67943	0.42802	0.2593	-0.418
Mof_O 	O 	0.23371	0.13354	0.1889	-0.267
Mof_O 	O 	0.24243	0.06808	0.4296	-0.408
Mof_C 	C 	0.1975	0.1131	0.312	0.302
Mof_C 	C 	0.549	0.0885	0.3592	0.371
Mof_C 	C 	0.6185	0.3836	0.3164	-0.019
Mof_C 	C 	0.094	0.1388	0.3272	-0.075
Mof_C 	C 	0.0423	0.1016	0.4393	0.024
Mof_H 	H 	0.0745	0.0649	0.5138	0.042
Mof_C 	C 	0.9435	0.11903	0.4399	-0.106
Mof_H 	H 	0.9088	0.0921	0.5114	0.073
Mof_C 	C 	0.8946	0.17731	0.3331	0.062
Mof_C 	C 	0.9482	0.2167	0.2274	-0.104
Mof_H 	H 	0.9181	0.2566	0.1591	0.075
Mof_C 	C 	0.0462	0.1967	0.2232	0.025
Mof_H 	H 	0.0806	0.2225	0.1496	0.048
Mof_C 	C 	0.7881	0.19646	0.3326	-0.018
Mof_C 	C 	0.7205	0.137	0.3514	-0.008
Mof_H 	H 	0.7426	0.0851	0.3698	0.047
Mof_C 	C 	0.6202	0.1541	0.3431	-0.093
Mof_C 	C 	0.5874	0.2316	0.3204	0.033
Mof_H 	H 	0.5202	0.2431	0.3147	0.069
Mof_C 	C 	0.6541	0.2924	0.3061	-0.074
Mof_C 	C 	0.7538	0.2743	0.3106	-0.013
Mof_H 	H 	0.7985	0.3148	0.2987	0.052
Mof_O 	O 	0.5256	0.3765	0.1967	-0.244
Mof_C 	C 	0.6162	0.3689	0.2434	0.351
Mof_Zn	Zn	0.36334	0.47745	0.87069	1.241
Mof_O 	O 	0.41806	0.52121	0.097	-0.445
Mof_O 	O 	0.5435	0.60417	0.1773	-0.422
Mof_O 	O 	0.4615	0.9014	0.1432	-0.103
Mof_O 	O 	0.32057	0.92802	0.2407	-0.417
Mof_O 	O 	0.76629	0.63354	0.3111	-0.267
Mof_O 	O 	0.75757	0.56808	0.0704	-0.408
Mof_C 	C 	0.8025	0.6131	0.188	0.301
Mof_C 	C 	0.451	0.5885	0.1408	0.371
Mof_C 	C 	0.3815	0.8836	0.1836	-0.02
Mof_C 	C 	0.906	0.6388	0.1728	-0.073
Mof_C 	C 	0.9577	0.6016	0.0607	0.02
Mof_H 	H 	0.9255	0.5649	0.9862	0.045
Mof_C 	C 	0.0565	0.61903	0.0601	-0.102
Mof_H 	H 	0.0912	0.5921	0.9886	0.07
Mof_C 	C 	0.1054	0.67731	0.1669	0.059
Mof_C 	C 	0.0518	0.7167	0.2726	-0.101
Mof_H 	H 	0.0819	0.7566	0.3409	0.074
Mof_C 	C 	0.9538	0.6967	0.2768	0.022
Mof_H 	H 	0.9194	0.7225	0.3504	0.05
Mof_C 	C 	0.2119	0.69646	0.1674	-0.016
Mof_C 	C 	0.2795	0.637	0.1486	-0.009
Mof_H 	H 	0.2574	0.5851	0.1302	0.047
Mof_C 	C 	0.3798	0.6541	0.1569	-0.092
Mof_C 	C 	0.4126	0.7316	0.1796	0.033
Mof_H 	H 	0.4798	0.7431	0.1853	0.069
Mof_C 	C 	0.3459	0.7924	0.1939	-0.074
Mof_C 	C 	0.2462	0.7743	0.1894	-0.014
Mof_H 	H 	0.2015	0.8148	0.2013	0.053
Mof_O 	O 	0.4744	0.8765	0.3033	-0.244
Mof_C 	C 	0.3838	0.8689	0.2566	0.351
_end
