data_functionalizedCrystal
_audit_creation_method	'EQeq! by Chris Wilmer'
_symmetry_space_group_name_H-M	'P1'
_symmetry_Int_Tables_number	1
_symmetry_cell_setting	triclinic
loop_
_symmetry_equiv_pos_as_xyz
  x,y,z
_cell_length_a	16.6995
_cell_length_b	16.6995
_cell_length_c	26.7579
_cell_angle_alpha	90
_cell_angle_beta	90
_cell_angle_gamma	90
loop_
_atom_site_label
_atom_site_type_symbol
_atom_site_fract_x
_atom_site_fract_y
_atom_site_fract_z
_atom_site_charge
Mof_C 	C 	0.5014	0.3367	0.7957	0.055
Mof_C 	C 	0.5028	0.2737	0.75932	0.006
Mof_C 	C 	0.4375	0.2643	0.7272	-0.103
Mof_H 	H 	0.394	0.2989	0.7294	0.055
Mof_C 	C 	0.4378	0.203	0.6921	0.014
Mof_H 	H 	0.3948	0.1983	0.6701	0.009
Mof_C 	C 	0.5003	0.1489	0.68877	-0.112
Mof_C 	C 	0.5676	0.1612	0.7209	0.003
Mof_H 	H 	0.6116	0.1273	0.7184	0.019
Mof_C 	C 	0.5687	0.2218	0.7554	-0.093
Mof_H 	H 	0.6129	0.2286	0.7761	0.053
Mof_C 	C 	0.4997	0.0765	0.65353	0.292
Mof_C 	C 	0.5748	0.0761	0.62	-0.438
Mof_H 	H 	0.5751	0.1236	0.5992	0.162
Mof_H 	H 	0.6224	0.077	0.6407	0.16
Mof_H 	H 	0.547	0.0002	0.7075	0.15
Mof_C 	C 	0.4242	0.075	0.6208	-0.411
Mof_H 	H 	0.4226	0.1225	0.6	0.151
Mof_H 	H 	0.377	0.0749	0.6419	0.15
Mof_C 	C 	0.5759	0.0014	0.58692	0.313
Mof_H 	H 	0.5009	0.9531	0.5339	0.15
Mof_C 	C 	0.8538	0.9927	0.4606	0.058
Mof_C 	C 	0.7851	0.9945	0.4932	0.017
Mof_C 	C 	0.712	0.0059	0.4716	-0.102
Mof_H 	H 	0.7075	0.0123	0.4372	0.052
Mof_C 	C 	0.6443	0.0079	0.5018	0.038
Mof_H 	H 	0.5943	0.0155	0.4874	-0.002
Mof_C 	C 	0.6504	0.9986	0.5538	-0.14
Mof_C 	C 	0.7245	0.99	0.5737	0.031
Mof_H 	H 	0.7296	0.9862	0.6083	0.006
Mof_C 	C 	0.7931	0.9866	0.5445	-0.099
Mof_H 	H 	0.8432	0.9792	0.559	0.049
Mof_N 	N 	0.5024	0.3881	0.82376	-0.2
Mof_N 	N 	0.9056	0.9895	0.4323	-0.199
Mof_C 	C 	0.0014	0.8367	0.2957	0.058
Mof_C 	C 	0.0028	0.7737	0.25932	0.009
Mof_C 	C 	0.9375	0.7643	0.2272	-0.101
Mof_H 	H 	0.894	0.7989	0.2294	0.055
Mof_C 	C 	0.9378	0.703	0.1921	0.001
Mof_H 	H 	0.8948	0.6983	0.1701	0.015
Mof_C 	C 	0.0003	0.6489	0.18877	-0.093
Mof_C 	C 	0.0676	0.6612	0.2209	-0.005
Mof_H 	H 	0.1116	0.6273	0.2184	0.022
Mof_C 	C 	0.0687	0.7218	0.2554	-0.088
Mof_H 	H 	0.1129	0.7286	0.2761	0.052
Mof_C 	C 	0.9997	0.5765	0.15353	0.274
Mof_C 	C 	0.0748	0.5761	0.12	-0.421
Mof_H 	H 	0.0751	0.6236	0.0992	0.158
Mof_H 	H 	0.1224	0.577	0.1407	0.154
Mof_H 	H 	0.047	0.5002	0.2075	0.148
Mof_C 	C 	0.9242	0.575	0.1208	-0.413
Mof_H 	H 	0.9226	0.6225	0.1	0.151
Mof_H 	H 	0.877	0.5749	0.1419	0.149
Mof_C 	C 	0.0759	0.5014	0.08692	0.3
Mof_H 	H 	0.0009	0.4531	0.0339	0.155
Mof_C 	C 	0.3538	0.4927	0.9606	0.06
Mof_C 	C 	0.2851	0.4945	0.9932	0.021
Mof_C 	C 	0.212	0.5059	0.9716	-0.106
Mof_H 	H 	0.2075	0.5123	0.9372	0.052
Mof_C 	C 	0.1443	0.5079	0.0018	0.03
Mof_H 	H 	0.0943	0.5155	0.9874	-0
Mof_C 	C 	0.1504	0.4986	0.0538	-0.125
Mof_C 	C 	0.2245	0.49	0.0737	0.024
Mof_H 	H 	0.2296	0.4862	0.1083	0.009
Mof_C 	C 	0.2931	0.4866	0.0445	-0.096
Mof_H 	H 	0.3432	0.4792	0.059	0.051
Mof_N 	N 	0.0024	0.8881	0.32376	-0.202
Mof_N 	N 	0.4056	0.4895	0.9323	-0.194
Mof_C 	C 	0.4986	0.6633	0.7957	0.056
Mof_C 	C 	0.4972	0.7263	0.75932	0.007
Mof_C 	C 	0.5625	0.7357	0.7272	-0.102
Mof_H 	H 	0.606	0.7011	0.7294	0.056
Mof_C 	C 	0.5622	0.797	0.6921	0.015
Mof_H 	H 	0.6052	0.8017	0.6701	0.01
Mof_C 	C 	0.4997	0.8511	0.68877	-0.112
Mof_C 	C 	0.4324	0.8388	0.7209	0.003
Mof_H 	H 	0.3884	0.8727	0.7184	0.018
Mof_C 	C 	0.4313	0.7782	0.7554	-0.093
Mof_H 	H 	0.3871	0.7714	0.7761	0.053
Mof_C 	C 	0.5003	0.9235	0.65353	0.289
Mof_C 	C 	0.4252	0.9239	0.62	-0.426
Mof_H 	H 	0.4249	0.8764	0.5992	0.158
Mof_H 	H 	0.3776	0.923	0.6407	0.154
Mof_H 	H 	0.453	0.9998	0.7075	0.143
Mof_C 	C 	0.5758	0.925	0.6208	-0.43
Mof_H 	H 	0.5774	0.8775	0.6	0.156
Mof_H 	H 	0.623	0.9251	0.6419	0.154
Mof_C 	C 	0.4241	0.9986	0.58692	0.285
Mof_H 	H 	0.4991	0.0469	0.5339	0.154
Mof_C 	C 	0.1462	0.0073	0.4606	0.063
Mof_C 	C 	0.2149	0.0055	0.4932	0.022
Mof_C 	C 	0.288	0.9941	0.4716	-0.104
Mof_H 	H 	0.2925	0.9877	0.4372	0.05
Mof_C 	C 	0.3557	0.9921	0.5018	0.014
Mof_H 	H 	0.4057	0.9845	0.4874	0.004
Mof_C 	C 	0.3496	0.0014	0.5538	-0.107
Mof_C 	C 	0.2755	0.01	0.5737	0.015
Mof_H 	H 	0.2704	0.0138	0.6083	0.014
Mof_C 	C 	0.2069	0.0134	0.5445	-0.09
Mof_H 	H 	0.1568	0.0208	0.559	0.049
Mof_N 	N 	0.4976	0.6119	0.82376	-0.2
Mof_N 	N 	0.0944	0.0105	0.4323	-0.193
Mof_C 	C 	0.9986	0.1633	0.2957	0.056
Mof_C 	C 	0.9972	0.2263	0.25932	0.003
Mof_C 	C 	0.0625	0.2357	0.2272	-0.101
Mof_H 	H 	0.106	0.2011	0.2294	0.057
Mof_C 	C 	0.0622	0.297	0.1921	0.029
Mof_H 	H 	0.1052	0.3017	0.1701	0.006
Mof_C 	C 	0.9997	0.3511	0.18877	-0.129
Mof_C 	C 	0.9324	0.3388	0.2209	0.01
Mof_H 	H 	0.8884	0.3727	0.2184	0.016
Mof_C 	C 	0.9313	0.2782	0.2554	-0.097
Mof_H 	H 	0.8871	0.2714	0.2761	0.055
Mof_C 	C 	0.0003	0.4235	0.15353	0.305
Mof_C 	C 	0.9252	0.4239	0.12	-0.442
Mof_H 	H 	0.9249	0.3764	0.0992	0.161
Mof_H 	H 	0.8776	0.423	0.1407	0.16
Mof_H 	H 	0.953	0.4998	0.2075	0.144
Mof_C 	C 	0.0758	0.425	0.1208	-0.426
Mof_H 	H 	0.0774	0.3775	0.1	0.156
Mof_H 	H 	0.123	0.4251	0.1419	0.154
Mof_C 	C 	0.9241	0.4986	0.08692	0.296
Mof_H 	H 	0.9991	0.5469	0.0339	0.148
Mof_C 	C 	0.6462	0.5073	0.9606	0.06
Mof_C 	C 	0.7149	0.5055	0.9932	0.019
Mof_C 	C 	0.788	0.4941	0.9716	-0.1
Mof_H 	H 	0.7925	0.4877	0.9372	0.05
Mof_C 	C 	0.8557	0.4921	0.0018	0.022
Mof_H 	H 	0.9057	0.4845	0.9874	0.002
Mof_C 	C 	0.8496	0.5014	0.0538	-0.122
Mof_C 	C 	0.7755	0.51	0.0737	0.022
Mof_H 	H 	0.7704	0.5138	0.1083	0.01
Mof_C 	C 	0.7069	0.5134	0.0445	-0.095
Mof_H 	H 	0.6568	0.5208	0.059	0.05
Mof_N 	N 	0.9976	0.1119	0.32376	-0.203
Mof_N 	N 	0.5944	0.5105	0.9323	-0.194
Mof_C 	C 	0.5	0	0.6862	-0.402
Mof_C 	C 	0.5	-1.35317e-32	0.5552	-0.422
Mof_C 	C 	1.11864e-33	0.5	0.1862	-0.401
Mof_C 	C 	-5.14103e-34	0.5	0.0552	-0.419
Mof_Ag	Ag	0.5	0.5	0.87186	0.629
Mof_Ag	Ag	2.23403e-33	0	0.37186	0.647
Mof_C 	C 	0.3367	0.4986	0.2043	0.056
Mof_C 	C 	0.2737	0.4972	0.24068	0.007
Mof_C 	C 	0.2643	0.5625	0.2728	-0.102
Mof_H 	H 	0.2989	0.606	0.2706	0.056
Mof_C 	C 	0.203	0.5622	0.3079	0.015
Mof_H 	H 	0.1983	0.6052	0.3299	0.01
Mof_C 	C 	0.1489	0.4997	0.31123	-0.112
Mof_C 	C 	0.1612	0.4324	0.2791	0.003
Mof_H 	H 	0.1273	0.3884	0.2816	0.02
Mof_C 	C 	0.2218	0.4313	0.2446	-0.093
Mof_H 	H 	0.2286	0.3871	0.2239	0.053
Mof_C 	C 	0.0765	0.5003	0.34647	0.292
Mof_C 	C 	0.0761	0.4252	0.38	-0.439
Mof_H 	H 	0.1236	0.4249	0.4008	0.162
Mof_H 	H 	0.077	0.3776	0.3593	0.16
Mof_H 	H 	0.0002	0.453	0.2925	0.15
Mof_C 	C 	0.075	0.5758	0.3792	-0.411
Mof_H 	H 	0.1225	0.5774	0.4	0.151
Mof_H 	H 	0.0749	0.623	0.3581	0.15
Mof_C 	C 	0.0014	0.4241	0.41308	0.314
Mof_H 	H 	0.9531	0.4991	0.4661	0.15
Mof_C 	C 	0.9927	0.1462	0.5394	0.059
Mof_C 	C 	0.9945	0.2149	0.5068	0.017
Mof_C 	C 	0.0059	0.288	0.5284	-0.102
Mof_H 	H 	0.0123	0.2925	0.5628	0.053
Mof_C 	C 	0.0079	0.3557	0.4982	0.039
Mof_H 	H 	0.0155	0.4057	0.5126	-0.002
Mof_C 	C 	0.9986	0.3496	0.4462	-0.141
Mof_C 	C 	0.99	0.2755	0.4263	0.032
Mof_H 	H 	0.9862	0.2704	0.3917	0.006
Mof_C 	C 	0.9866	0.2069	0.4555	-0.1
Mof_H 	H 	0.9792	0.1568	0.441	0.051
Mof_N 	N 	0.3881	0.4976	0.17624	-0.2
Mof_N 	N 	0.9895	0.0944	0.5677	-0.196
Mof_C 	C 	0.8367	0.9986	0.7043	0.055
Mof_C 	C 	0.7737	0.9972	0.74068	0.003
Mof_C 	C 	0.7643	0.0625	0.7728	-0.101
Mof_H 	H 	0.7989	0.106	0.7706	0.056
Mof_C 	C 	0.703	0.0622	0.8079	0.028
Mof_H 	H 	0.6983	0.1052	0.8299	0.006
Mof_C 	C 	0.6489	0.9997	0.81123	-0.129
Mof_C 	C 	0.6612	0.9324	0.7791	0.01
Mof_H 	H 	0.6273	0.8884	0.7816	0.016
Mof_C 	C 	0.7218	0.9313	0.7446	-0.097
Mof_H 	H 	0.7286	0.8871	0.7239	0.054
Mof_C 	C 	0.5765	0.0003	0.84647	0.305
Mof_C 	C 	0.5761	0.9252	0.88	-0.442
Mof_H 	H 	0.6236	0.9249	0.9008	0.161
Mof_H 	H 	0.577	0.8776	0.8593	0.16
Mof_H 	H 	0.5002	0.953	0.7925	0.144
Mof_C 	C 	0.575	0.0758	0.8792	-0.425
Mof_H 	H 	0.6225	0.0774	0.9	0.156
Mof_H 	H 	0.5749	0.123	0.8581	0.154
Mof_C 	C 	0.5014	0.9241	0.91308	0.296
Mof_H 	H 	0.4531	0.9991	0.9661	0.147
Mof_C 	C 	0.4927	0.6462	0.0394	0.06
Mof_C 	C 	0.4945	0.7149	0.0068	0.019
Mof_C 	C 	0.5059	0.788	0.0284	-0.1
Mof_H 	H 	0.5123	0.7925	0.0628	0.05
Mof_C 	C 	0.5079	0.8557	0.9982	0.022
Mof_H 	H 	0.5155	0.9057	0.0126	0.002
Mof_C 	C 	0.4986	0.8496	0.9462	-0.122
Mof_C 	C 	0.49	0.7755	0.9263	0.022
Mof_H 	H 	0.4862	0.7704	0.8917	0.01
Mof_C 	C 	0.4866	0.7069	0.9555	-0.095
Mof_H 	H 	0.4792	0.6568	0.941	0.05
Mof_N 	N 	0.8881	0.9976	0.67624	-0.205
Mof_N 	N 	0.4895	0.5944	0.0677	-0.194
Mof_C 	C 	0.6633	0.5014	0.2043	0.056
Mof_C 	C 	0.7263	0.5028	0.24068	0.007
Mof_C 	C 	0.7357	0.4375	0.2728	-0.102
Mof_H 	H 	0.7011	0.394	0.2706	0.056
Mof_C 	C 	0.797	0.4378	0.3079	0.015
Mof_H 	H 	0.8017	0.3948	0.3299	0.01
Mof_C 	C 	0.8511	0.5003	0.31123	-0.112
Mof_C 	C 	0.8388	0.5676	0.2791	0.003
Mof_H 	H 	0.8727	0.6116	0.2816	0.018
Mof_C 	C 	0.7782	0.5687	0.2446	-0.093
Mof_H 	H 	0.7714	0.6129	0.2239	0.053
Mof_C 	C 	0.9235	0.4997	0.34647	0.289
Mof_C 	C 	0.9239	0.5748	0.38	-0.426
Mof_H 	H 	0.8764	0.5751	0.4008	0.158
Mof_H 	H 	0.923	0.6224	0.3593	0.154
Mof_H 	H 	0.9998	0.547	0.2925	0.143
Mof_C 	C 	0.925	0.4242	0.3792	-0.43
Mof_H 	H 	0.8775	0.4226	0.4	0.157
Mof_H 	H 	0.9251	0.377	0.3581	0.154
Mof_C 	C 	0.9986	0.5759	0.41308	0.285
Mof_H 	H 	0.0469	0.5009	0.4661	0.154
Mof_C 	C 	0.0073	0.8538	0.5394	0.061
Mof_C 	C 	0.0055	0.7851	0.5068	0.021
Mof_C 	C 	0.9941	0.712	0.5284	-0.103
Mof_H 	H 	0.9877	0.7075	0.5628	0.049
Mof_C 	C 	0.9921	0.6443	0.4982	0.013
Mof_H 	H 	0.9845	0.5943	0.5126	0.004
Mof_C 	C 	0.0014	0.6504	0.4462	-0.107
Mof_C 	C 	0.01	0.7245	0.4263	0.014
Mof_H 	H 	0.0138	0.7296	0.3917	0.014
Mof_C 	C 	0.0134	0.7931	0.4555	-0.09
Mof_H 	H 	0.0208	0.8432	0.441	0.048
Mof_N 	N 	0.6119	0.5024	0.17624	-0.2
Mof_N 	N 	0.0105	0.9056	0.5677	-0.196
Mof_C 	C 	0.1633	0.0014	0.7043	0.059
Mof_C 	C 	0.2263	0.0028	0.74068	0.009
Mof_C 	C 	0.2357	0.9375	0.7728	-0.102
Mof_H 	H 	0.2011	0.894	0.7706	0.056
Mof_C 	C 	0.297	0.9378	0.8079	0.001
Mof_H 	H 	0.3017	0.8948	0.8299	0.015
Mof_C 	C 	0.3511	0.0003	0.81123	-0.093
Mof_C 	C 	0.3388	0.0676	0.7791	-0.004
Mof_H 	H 	0.3727	0.1116	0.7816	0.022
Mof_C 	C 	0.2782	0.0687	0.7446	-0.088
Mof_H 	H 	0.2714	0.1129	0.7239	0.052
Mof_C 	C 	0.4235	0.9997	0.84647	0.273
Mof_C 	C 	0.4239	0.0748	0.88	-0.42
Mof_H 	H 	0.3764	0.0751	0.9008	0.158
Mof_H 	H 	0.423	0.1224	0.8593	0.154
Mof_H 	H 	0.4998	0.047	0.7925	0.148
Mof_C 	C 	0.425	0.9242	0.8792	-0.413
Mof_H 	H 	0.3775	0.9226	0.9	0.151
Mof_H 	H 	0.4251	0.877	0.8581	0.149
Mof_C 	C 	0.4986	0.0759	0.91308	0.299
Mof_H 	H 	0.5469	0.0009	0.9661	0.155
Mof_C 	C 	0.5073	0.3538	0.0394	0.06
Mof_C 	C 	0.5055	0.2851	0.0068	0.021
Mof_C 	C 	0.4941	0.212	0.0284	-0.105
Mof_H 	H 	0.4877	0.2075	0.0628	0.052
Mof_C 	C 	0.4921	0.1443	0.9982	0.03
Mof_H 	H 	0.4845	0.0943	0.0126	0
Mof_C 	C 	0.5014	0.1504	0.9462	-0.124
Mof_C 	C 	0.51	0.2245	0.9263	0.024
Mof_H 	H 	0.5138	0.2296	0.8917	0.01
Mof_C 	C 	0.5134	0.2931	0.9555	-0.096
Mof_H 	H 	0.5208	0.3432	0.941	0.05
Mof_N 	N 	0.1119	0.0024	0.67624	-0.2
Mof_N 	N 	0.5105	0.4056	0.0677	-0.194
Mof_C 	C 	1.88523e-33	0.5	0.3138	-0.402
Mof_C 	C 	2.67224e-33	0.5	0.4448	-0.422
Mof_C 	C 	0.5	0	0.8138	-0.4
Mof_C 	C 	0.5	0	0.9448	-0.418
Mof_Ag	Ag	0.5	0.5	0.12814	0.629
Mof_Ag	Ag	-9.75798e-33	-1.35317e-32	0.62814	0.647
Mof_C 	C 	0.9986	0.3367	0.9543	0.056
Mof_C 	C 	0.9972	0.2737	0.99068	0.002
Mof_C 	C 	0.0625	0.2643	0.0228	-0.1
Mof_H 	H 	0.106	0.2989	0.0206	0.056
Mof_C 	C 	0.0622	0.203	0.0579	0.026
Mof_H 	H 	0.1052	0.1983	0.0799	0.007
Mof_C 	C 	0.9997	0.1489	0.06123	-0.124
Mof_C 	C 	0.9324	0.1612	0.0291	0.005
Mof_H 	H 	0.8884	0.1273	0.0316	0.018
Mof_C 	C 	0.9313	0.2218	0.9946	-0.092
Mof_H 	H 	0.8871	0.2286	0.9739	0.053
Mof_C 	C 	0.0003	0.0765	0.09647	0.294
Mof_C 	C 	0.9252	0.0761	0.13	-0.436
Mof_H 	H 	0.9249	0.1236	0.1508	0.16
Mof_H 	H 	0.8776	0.077	0.1093	0.159
Mof_H 	H 	0.953	0.0002	0.0425	0.138
Mof_C 	C 	0.0758	0.075	0.1292	-0.406
Mof_H 	H 	0.0774	0.1225	0.15	0.151
Mof_H 	H 	0.123	0.0749	0.1081	0.148
Mof_C 	C 	0.9241	0.0014	0.16308	0.295
Mof_H 	H 	0.9991	0.9531	0.2161	0.138
Mof_C 	C 	0.6462	0.9927	0.2894	0.06
Mof_C 	C 	0.7149	0.9945	0.2568	0.014
Mof_C 	C 	0.788	0.0059	0.2784	-0.098
Mof_H 	H 	0.7925	0.0123	0.3128	0.05
Mof_C 	C 	0.8557	0.0079	0.2482	0.031
Mof_H 	H 	0.9057	0.0155	0.2626	-0.001
Mof_C 	C 	0.8496	0.9986	0.1962	-0.13
Mof_C 	C 	0.7755	0.99	0.1763	0.024
Mof_H 	H 	0.7704	0.9862	0.1417	0.009
Mof_C 	C 	0.7069	0.9866	0.2055	-0.095
Mof_H 	H 	0.6568	0.9792	0.191	0.049
Mof_N 	N 	0.9976	0.3881	0.92624	-0.203
Mof_N 	N 	0.5944	0.9895	0.3177	-0.197
Mof_C 	C 	0.4986	0.8367	0.4543	0.055
Mof_C 	C 	0.4972	0.7737	0.49068	0.009
Mof_C 	C 	0.5625	0.7643	0.5228	-0.105
Mof_H 	H 	0.606	0.7989	0.5206	0.057
Mof_C 	C 	0.5622	0.703	0.5579	0.02
Mof_H 	H 	0.6052	0.6983	0.5799	0.008
Mof_C 	C 	0.4997	0.6489	0.56123	-0.119
Mof_C 	C 	0.4324	0.6612	0.5291	0.007
Mof_H 	H 	0.3884	0.6273	0.5316	0.017
Mof_C 	C 	0.4313	0.7218	0.4946	-0.096
Mof_H 	H 	0.3871	0.7286	0.4739	0.054
Mof_C 	C 	0.5003	0.5765	0.59647	0.305
Mof_C 	C 	0.4252	0.5761	0.63	-0.447
Mof_H 	H 	0.4249	0.6236	0.6508	0.164
Mof_H 	H 	0.3776	0.577	0.6093	0.161
Mof_H 	H 	0.453	0.5002	0.5425	0.156
Mof_C 	C 	0.5758	0.575	0.6292	-0.434
Mof_H 	H 	0.5774	0.6225	0.65	0.158
Mof_H 	H 	0.623	0.5749	0.6081	0.156
Mof_C 	C 	0.4241	0.5014	0.66308	0.315
Mof_H 	H 	0.4991	0.4531	0.7161	0.162
Mof_C 	C 	0.1462	0.4927	0.7894	0.06
Mof_C 	C 	0.2149	0.4945	0.7568	0.024
Mof_C 	C 	0.288	0.5059	0.7784	-0.108
Mof_H 	H 	0.2925	0.5123	0.8128	0.053
Mof_C 	C 	0.3557	0.5079	0.7482	0.032
Mof_H 	H 	0.4057	0.5155	0.7626	-0.001
Mof_C 	C 	0.3496	0.4986	0.6962	-0.132
Mof_C 	C 	0.2755	0.49	0.6763	0.03
Mof_H 	H 	0.2704	0.4862	0.6417	0.007
Mof_C 	C 	0.2069	0.4866	0.7055	-0.1
Mof_H 	H 	0.1568	0.4792	0.691	0.052
Mof_N 	N 	0.4976	0.8881	0.42624	-0.202
Mof_N 	N 	0.0944	0.4895	0.8177	-0.193
Mof_C 	C 	0.0014	0.6633	0.9543	0.058
Mof_C 	C 	0.0028	0.7263	0.99068	0.007
Mof_C 	C 	0.9375	0.7357	0.0228	-0.098
Mof_H 	H 	0.894	0.7011	0.0206	0.054
Mof_C 	C 	0.9378	0.797	0.0579	-0.003
Mof_H 	H 	0.8948	0.8017	0.0799	0.016
Mof_C 	C 	0.0003	0.8511	0.06123	-0.089
Mof_C 	C 	0.0676	0.8388	0.0291	-0.005
Mof_H 	H 	0.1116	0.8727	0.0316	0.023
Mof_C 	C 	0.0687	0.7782	0.9946	-0.089
Mof_H 	H 	0.1129	0.7714	0.9739	0.052
Mof_C 	C 	0.9997	0.9235	0.09647	0.26
Mof_C 	C 	0.0748	0.9239	0.13	-0.404
Mof_H 	H 	0.0751	0.8764	0.1508	0.152
Mof_H 	H 	0.1224	0.923	0.1093	0.147
Mof_H 	H 	0.047	0.9998	0.0425	0.138
Mof_C 	C 	0.9242	0.925	0.1292	-0.41
Mof_H 	H 	0.9226	0.8775	0.15	0.15
Mof_H 	H 	0.877	0.9251	0.1081	0.148
Mof_C 	C 	0.0759	0.9986	0.16308	0.273
Mof_H 	H 	0.0009	0.0469	0.2161	0.148
Mof_C 	C 	0.3538	0.0073	0.2894	0.063
Mof_C 	C 	0.2851	0.0055	0.2568	0.019
Mof_C 	C 	0.212	0.9941	0.2784	-0.1
Mof_H 	H 	0.2075	0.9877	0.3128	0.048
Mof_C 	C 	0.1443	0.9921	0.2482	0.01
Mof_H 	H 	0.0943	0.9845	0.2626	0.006
Mof_C 	C 	0.1504	0.0014	0.1962	-0.101
Mof_C 	C 	0.2245	0.01	0.1763	0.011
Mof_H 	H 	0.2296	0.0138	0.1417	0.015
Mof_C 	C 	0.2931	0.0134	0.2055	-0.087
Mof_H 	H 	0.3432	0.0208	0.191	0.048
Mof_N 	N 	0.0024	0.6119	0.92624	-0.2
Mof_N 	N 	0.4056	0.0105	0.3177	-0.194
Mof_C 	C 	0.5014	0.1633	0.4543	0.056
Mof_C 	C 	0.5028	0.2263	0.49068	0.009
Mof_C 	C 	0.4375	0.2357	0.5228	-0.105
Mof_H 	H 	0.394	0.2011	0.5206	0.058
Mof_C 	C 	0.4378	0.297	0.5579	0.02
Mof_H 	H 	0.3948	0.3017	0.5799	0.008
Mof_C 	C 	0.5003	0.3511	0.56123	-0.119
Mof_C 	C 	0.5676	0.3388	0.5291	0.008
Mof_H 	H 	0.6116	0.3727	0.5316	0.017
Mof_C 	C 	0.5687	0.2782	0.4946	-0.096
Mof_H 	H 	0.6129	0.2714	0.4739	0.054
Mof_C 	C 	0.4997	0.4235	0.59647	0.306
Mof_C 	C 	0.5748	0.4239	0.63	-0.446
Mof_H 	H 	0.5751	0.3764	0.6508	0.164
Mof_H 	H 	0.6224	0.423	0.6093	0.161
Mof_H 	H 	0.547	0.4998	0.5425	0.156
Mof_C 	C 	0.4242	0.425	0.6292	-0.434
Mof_H 	H 	0.4226	0.3775	0.65	0.158
Mof_H 	H 	0.377	0.4251	0.6081	0.156
Mof_C 	C 	0.5759	0.4986	0.66308	0.315
Mof_H 	H 	0.5009	0.5469	0.7161	0.162
Mof_C 	C 	0.8538	0.5073	0.7894	0.058
Mof_C 	C 	0.7851	0.5055	0.7568	0.023
Mof_C 	C 	0.712	0.4941	0.7784	-0.107
Mof_H 	H 	0.7075	0.4877	0.8128	0.053
Mof_C 	C 	0.6443	0.4921	0.7482	0.032
Mof_H 	H 	0.5943	0.4845	0.7626	-0.001
Mof_C 	C 	0.6504	0.5014	0.6962	-0.132
Mof_C 	C 	0.7245	0.51	0.6763	0.029
Mof_H 	H 	0.7296	0.5138	0.6417	0.007
Mof_C 	C 	0.7931	0.5134	0.7055	-0.099
Mof_H 	H 	0.8432	0.5208	0.691	0.051
Mof_N 	N 	0.5024	0.1119	0.42624	-0.2
Mof_N 	N 	0.9056	0.5105	0.8177	-0.196
Mof_C 	C 	-4.62436e-34	0	0.0638	-0.377
Mof_C 	C 	-2.21261e-33	-3.38292e-33	0.1948	-0.394
Mof_C 	C 	0.5	0.5	0.5638	-0.431
Mof_C 	C 	0.5	0.5	0.6948	-0.452
Mof_Ag	Ag	-8.25604e-33	0.5	0.87814	0.637
Mof_Ag	Ag	0.5	-6.76584e-33	0.37814	0.637
Mof_C 	C 	0.1633	0.4986	0.5457	0.056
Mof_C 	C 	0.2263	0.4972	0.50932	0.009
Mof_C 	C 	0.2357	0.5625	0.4772	-0.105
Mof_H 	H 	0.2011	0.606	0.4794	0.057
Mof_C 	C 	0.297	0.5622	0.4421	0.02
Mof_H 	H 	0.3017	0.6052	0.4201	0.008
Mof_C 	C 	0.3511	0.4997	0.43877	-0.119
Mof_C 	C 	0.3388	0.4324	0.4709	0.008
Mof_H 	H 	0.3727	0.3884	0.4684	0.017
Mof_C 	C 	0.2782	0.4313	0.5054	-0.096
Mof_H 	H 	0.2714	0.3871	0.5261	0.055
Mof_C 	C 	0.4235	0.5003	0.40353	0.306
Mof_C 	C 	0.4239	0.4252	0.37	-0.447
Mof_H 	H 	0.3764	0.4249	0.3492	0.164
Mof_H 	H 	0.423	0.3776	0.3907	0.161
Mof_H 	H 	0.4998	0.453	0.4575	0.156
Mof_C 	C 	0.425	0.5758	0.3708	-0.434
Mof_H 	H 	0.3775	0.5774	0.35	0.158
Mof_H 	H 	0.4251	0.623	0.3919	0.156
Mof_C 	C 	0.4986	0.4241	0.33692	0.315
Mof_H 	H 	0.5469	0.4991	0.2839	0.162
Mof_C 	C 	0.5073	0.1462	0.2106	0.059
Mof_C 	C 	0.5055	0.2149	0.2432	0.024
Mof_C 	C 	0.4941	0.288	0.2216	-0.108
Mof_H 	H 	0.4877	0.2925	0.1872	0.053
Mof_C 	C 	0.4921	0.3557	0.2518	0.032
Mof_H 	H 	0.4845	0.4057	0.2374	-0.001
Mof_C 	C 	0.5014	0.3496	0.3038	-0.132
Mof_C 	C 	0.51	0.2755	0.3237	0.03
Mof_H 	H 	0.5138	0.2704	0.3583	0.007
Mof_C 	C 	0.5134	0.2069	0.2945	-0.1
Mof_H 	H 	0.5208	0.1568	0.309	0.052
Mof_N 	N 	0.1119	0.4976	0.57376	-0.2
Mof_N 	N 	0.5105	0.0944	0.1823	-0.193
Mof_C 	C 	0.6633	0.9986	0.0457	0.056
Mof_C 	C 	0.7263	0.9972	0.00932	0.002
Mof_C 	C 	0.7357	0.0625	0.9772	-0.098
Mof_H 	H 	0.7011	0.106	0.9794	0.056
Mof_C 	C 	0.797	0.0622	0.9421	0.025
Mof_H 	H 	0.8017	0.1052	0.9201	0.008
Mof_C 	C 	0.8511	0.9997	0.93877	-0.123
Mof_C 	C 	0.8388	0.9324	0.9709	0.006
Mof_H 	H 	0.8727	0.8884	0.9684	0.017
Mof_C 	C 	0.7782	0.9313	0.0054	-0.094
Mof_H 	H 	0.7714	0.8871	0.0261	0.054
Mof_C 	C 	0.9235	0.0003	0.90353	0.291
Mof_C 	C 	0.9239	0.9252	0.87	-0.426
Mof_H 	H 	0.8764	0.9249	0.8492	0.156
Mof_H 	H 	0.923	0.8776	0.8907	0.154
Mof_H 	H 	0.9998	0.953	0.9575	0.134
Mof_C 	C 	0.925	0.0758	0.8708	-0.423
Mof_H 	H 	0.8775	0.0774	0.85	0.155
Mof_H 	H 	0.9251	0.123	0.8919	0.152
Mof_C 	C 	0.9986	0.9241	0.83692	0.272
Mof_H 	H 	0.0469	0.9991	0.7839	0.141
Mof_C 	C 	0.0073	0.6462	0.7106	0.062
Mof_C 	C 	0.0055	0.7149	0.7432	0.02
Mof_C 	C 	0.9941	0.788	0.7216	-0.101
Mof_H 	H 	0.9877	0.7925	0.6872	0.048
Mof_C 	C 	0.9921	0.8557	0.7518	0.011
Mof_H 	H 	0.9845	0.9057	0.7374	0.003
Mof_C 	C 	0.0014	0.8496	0.8038	-0.103
Mof_C 	C 	0.01	0.7755	0.8237	0.012
Mof_H 	H 	0.0138	0.7704	0.8583	0.015
Mof_C 	C 	0.0134	0.7069	0.7945	-0.088
Mof_H 	H 	0.0208	0.6568	0.809	0.048
Mof_N 	N 	0.6119	0.9976	0.07376	-0.203
Mof_N 	N 	0.0105	0.5944	0.6823	-0.194
Mof_C 	C 	0.8367	0.5014	0.5457	0.055
Mof_C 	C 	0.7737	0.5028	0.50932	0.009
Mof_C 	C 	0.7643	0.4375	0.4772	-0.105
Mof_H 	H 	0.7989	0.394	0.4794	0.057
Mof_C 	C 	0.703	0.4378	0.4421	0.02
Mof_H 	H 	0.6983	0.3948	0.4201	0.008
Mof_C 	C 	0.6489	0.5003	0.43877	-0.119
Mof_C 	C 	0.6612	0.5676	0.4709	0.007
Mof_H 	H 	0.6273	0.6116	0.4684	0.017
Mof_C 	C 	0.7218	0.5687	0.5054	-0.096
Mof_H 	H 	0.7286	0.6129	0.5261	0.054
Mof_C 	C 	0.5765	0.4997	0.40353	0.305
Mof_C 	C 	0.5761	0.5748	0.37	-0.446
Mof_H 	H 	0.6236	0.5751	0.3492	0.164
Mof_H 	H 	0.577	0.6224	0.3907	0.161
Mof_H 	H 	0.5002	0.547	0.4575	0.156
Mof_C 	C 	0.575	0.4242	0.3708	-0.434
Mof_H 	H 	0.6225	0.4226	0.35	0.158
Mof_H 	H 	0.5749	0.377	0.3919	0.156
Mof_C 	C 	0.5014	0.5759	0.33692	0.315
Mof_H 	H 	0.4531	0.5009	0.2839	0.162
Mof_C 	C 	0.4927	0.8538	0.2106	0.058
Mof_C 	C 	0.4945	0.7851	0.2432	0.023
Mof_C 	C 	0.5059	0.712	0.2216	-0.107
Mof_H 	H 	0.5123	0.7075	0.1872	0.053
Mof_C 	C 	0.5079	0.6443	0.2518	0.032
Mof_H 	H 	0.5155	0.5943	0.2374	-0.001
Mof_C 	C 	0.4986	0.6504	0.3038	-0.132
Mof_C 	C 	0.49	0.7245	0.3237	0.029
Mof_H 	H 	0.4862	0.7296	0.3583	0.007
Mof_C 	C 	0.4866	0.7931	0.2945	-0.099
Mof_H 	H 	0.4792	0.8432	0.309	0.051
Mof_N 	N 	0.8881	0.5024	0.57376	-0.202
Mof_N 	N 	0.4895	0.9056	0.1823	-0.196
Mof_C 	C 	0.3367	0.0014	0.0457	0.059
Mof_C 	C 	0.2737	0.0028	0.00932	0.007
Mof_C 	C 	0.2643	0.9375	0.9772	-0.099
Mof_H 	H 	0.2989	0.894	0.9794	0.054
Mof_C 	C 	0.203	0.9378	0.9421	-0.004
Mof_H 	H 	0.1983	0.8948	0.9201	0.017
Mof_C 	C 	0.1489	0.0003	0.93877	-0.087
Mof_C 	C 	0.1612	0.0676	0.9709	-0.008
Mof_H 	H 	0.1273	0.1116	0.9684	0.024
Mof_C 	C 	0.2218	0.0687	0.0054	-0.086
Mof_H 	H 	0.2286	0.1129	0.0261	0.051
Mof_C 	C 	0.0765	0.9997	0.90353	0.261
Mof_C 	C 	0.0761	0.0748	0.87	-0.413
Mof_H 	H 	0.1236	0.0751	0.8492	0.156
Mof_H 	H 	0.077	0.1224	0.8907	0.153
Mof_H 	H 	0.0002	0.047	0.9575	0.143
Mof_C 	C 	0.075	0.9242	0.8708	-0.394
Mof_H 	H 	0.1225	0.9226	0.85	0.145
Mof_H 	H 	0.0749	0.877	0.8919	0.144
Mof_C 	C 	0.0014	0.0759	0.83692	0.298
Mof_H 	H 	0.9531	0.0009	0.7839	0.144
Mof_C 	C 	0.9927	0.3538	0.7106	0.06
Mof_C 	C 	0.9945	0.2851	0.7432	0.014
Mof_C 	C 	0.0059	0.212	0.7216	-0.097
Mof_H 	H 	0.0123	0.2075	0.6872	0.051
Mof_C 	C 	0.0079	0.1443	0.7518	0.032
Mof_H 	H 	0.0155	0.0943	0.7374	0.001
Mof_C 	C 	0.9986	0.1504	0.8038	-0.13
Mof_C 	C 	0.99	0.2245	0.8237	0.025
Mof_H 	H 	0.9862	0.2296	0.8583	0.008
Mof_C 	C 	0.9866	0.2931	0.7945	-0.095
Mof_H 	H 	0.9792	0.3432	0.809	0.049
Mof_N 	N 	0.3881	0.0024	0.07376	-0.2
Mof_N 	N 	0.9895	0.4056	0.6823	-0.197
Mof_C 	C 	0.5	0.5	0.4362	-0.431
Mof_C 	C 	0.5	0.5	0.3052	-0.452
Mof_C 	C 	5.62444e-33	0	0.9362	-0.377
Mof_C 	C 	4.83742e-33	0	0.8052	-0.394
Mof_Ag	Ag	-9.79571e-33	0.5	0.62186	0.637
Mof_Ag	Ag	0.5	-1.69146e-33	0.12186	0.637
_end
