data_functionalizedCrystal
_audit_creation_method	'EQeq! by Chris Wilmer'
_symmetry_space_group_name_H-M	'P1'
_symmetry_Int_Tables_number	1
_symmetry_cell_setting	triclinic
loop_
_symmetry_equiv_pos_as_xyz
  x,y,z
_cell_length_a	24.8718
_cell_length_b	13.7591
_cell_length_c	13.6832
_cell_angle_alpha	90
_cell_angle_beta	98.949
_cell_angle_gamma	90
loop_
_atom_site_label
_atom_site_type_symbol
_atom_site_fract_x
_atom_site_fract_y
_atom_site_fract_z
_atom_site_charge
Mof_Nd	Nd	0.16993	0.21598	0.46114	2.146
Mof_C 	C 	0.07445	0.28171	0.53794	0.333
Mof_C 	C 	0.02339	0.31325	0.57545	-0.129
Mof_C 	C 	0.98491	0.2441	0.5928	0.055
Mof_H 	H 	0.9921	0.178	0.588	0.009
Mof_C 	C 	0.93579	0.2756	0.6174	-0.151
Mof_H 	H 	0.9099	0.2296	0.6279	0.076
Mof_C 	C 	0.92389	0.37343	0.62696	0.101
Mof_C 	C 	0.96297	0.4411	0.61123	-0.149
Mof_H 	H 	0.9562	0.5072	0.6169	0.073
Mof_C 	C 	0.0121	0.40952	0.58702	0.057
Mof_H 	H 	0.0384	0.4554	0.5783	0.017
Mof_C 	C 	0.86872	0.40076	0.64894	-0.091
Mof_C 	C 	0.84673	0.34646	0.71905	0.06
Mof_H 	H 	0.8678	0.2991	0.7553	0.019
Mof_C 	C 	0.79315	0.36262	0.73541	-0.19
Mof_C 	C 	0.76212	0.43227	0.67891	0.113
Mof_H 	H 	0.7257	0.4402	0.6852	-0.004
Mof_C 	C 	0.78493	0.49013	0.61314	-0.195
Mof_C 	C 	0.83883	0.47531	0.59998	0.053
Mof_H 	H 	0.8546	0.5159	0.5581	0.005
Mof_C 	C 	0.77148	0.30586	0.81514	0.495
Mof_C 	C 	0.75045	0.56796	0.55919	0.452
Mof_O 	O 	0.10647	0.34469	0.5158	-0.451
Mof_O 	O 	0.0832	0.1917	0.52801	-0.481
Mof_O 	O 	0.77221	0.64288	0.52902	-0.639
Mof_O 	O 	0.69943	0.55746	0.54456	-0.495
Mof_O 	O 	0.72277	0.32574	0.82768	-0.557
Mof_O 	O 	0.80151	0.24627	0.86159	-0.529
Mof_Nd	Nd	0.66993	0.71598	0.46114	2.146
Mof_C 	C 	0.57445	0.78171	0.53794	0.333
Mof_C 	C 	0.52339	0.81325	0.57545	-0.129
Mof_C 	C 	0.48491	0.7441	0.5928	0.055
Mof_H 	H 	0.4921	0.678	0.588	0.009
Mof_C 	C 	0.43579	0.7756	0.6174	-0.152
Mof_H 	H 	0.4099	0.7296	0.6279	0.076
Mof_C 	C 	0.42389	0.87343	0.62696	0.101
Mof_C 	C 	0.46297	0.9411	0.61123	-0.15
Mof_H 	H 	0.4562	0.0072	0.6169	0.073
Mof_C 	C 	0.5121	0.90952	0.58702	0.058
Mof_H 	H 	0.5384	0.9554	0.5783	0.016
Mof_C 	C 	0.36872	0.90076	0.64894	-0.092
Mof_C 	C 	0.34673	0.84646	0.71905	0.06
Mof_H 	H 	0.3678	0.7991	0.7553	0.019
Mof_C 	C 	0.29315	0.86262	0.73541	-0.191
Mof_C 	C 	0.26212	0.93227	0.67891	0.113
Mof_H 	H 	0.2257	0.9402	0.6852	-0.004
Mof_C 	C 	0.28493	0.99013	0.61314	-0.196
Mof_C 	C 	0.33883	0.97531	0.59998	0.053
Mof_H 	H 	0.3546	0.0159	0.5581	0.005
Mof_C 	C 	0.27148	0.80586	0.81514	0.495
Mof_C 	C 	0.25045	0.06796	0.55919	0.452
Mof_O 	O 	0.60647	0.84469	0.5158	-0.451
Mof_O 	O 	0.5832	0.6917	0.52801	-0.481
Mof_O 	O 	0.27221	0.14288	0.52902	-0.639
Mof_O 	O 	0.19943	0.05746	0.54456	-0.495
Mof_O 	O 	0.22277	0.82574	0.82768	-0.556
Mof_O 	O 	0.30151	0.74627	0.86159	-0.53
Mof_Nd	Nd	0.83007	0.21598	0.03886	2.14
Mof_C 	C 	0.92555	0.28171	0.96206	0.332
Mof_C 	C 	0.97661	0.31325	0.92455	-0.127
Mof_C 	C 	0.01509	0.2441	0.9072	0.052
Mof_H 	H 	0.0079	0.178	0.912	0.009
Mof_C 	C 	0.06421	0.2756	0.8826	-0.151
Mof_H 	H 	0.0901	0.2296	0.8721	0.076
Mof_C 	C 	0.07611	0.37343	0.87304	0.101
Mof_C 	C 	0.03703	0.4411	0.88877	-0.152
Mof_H 	H 	0.0438	0.5072	0.8831	0.073
Mof_C 	C 	0.9879	0.40952	0.91298	0.06
Mof_H 	H 	0.9616	0.4554	0.9217	0.016
Mof_C 	C 	0.13128	0.40076	0.85106	-0.092
Mof_C 	C 	0.15327	0.34646	0.78095	0.06
Mof_H 	H 	0.1322	0.2991	0.7447	0.019
Mof_C 	C 	0.20685	0.36262	0.76459	-0.19
Mof_C 	C 	0.23788	0.43227	0.82109	0.113
Mof_H 	H 	0.2743	0.4402	0.8148	-0.004
Mof_C 	C 	0.21507	0.49013	0.88686	-0.196
Mof_C 	C 	0.16117	0.47531	0.90002	0.053
Mof_H 	H 	0.1454	0.5159	0.9419	0.005
Mof_C 	C 	0.22852	0.30586	0.68486	0.495
Mof_C 	C 	0.24955	0.56796	0.94081	0.452
Mof_O 	O 	0.89353	0.34469	0.9842	-0.45
Mof_O 	O 	0.9168	0.1917	0.97199	-0.479
Mof_O 	O 	0.22779	0.64288	0.97098	-0.639
Mof_O 	O 	0.30057	0.55746	0.95544	-0.495
Mof_O 	O 	0.27723	0.32574	0.67232	-0.557
Mof_O 	O 	0.19849	0.24627	0.63841	-0.53
Mof_Nd	Nd	0.33007	0.71598	0.03886	2.15
Mof_C 	C 	0.42555	0.78171	0.96206	0.333
Mof_C 	C 	0.47661	0.81325	0.92455	-0.129
Mof_C 	C 	0.51509	0.7441	0.9072	0.055
Mof_H 	H 	0.5079	0.678	0.912	0.008
Mof_C 	C 	0.56421	0.7756	0.8826	-0.152
Mof_H 	H 	0.5901	0.7296	0.8721	0.076
Mof_C 	C 	0.57611	0.87343	0.87304	0.102
Mof_C 	C 	0.53703	0.9411	0.88877	-0.152
Mof_H 	H 	0.5438	0.0072	0.8831	0.074
Mof_C 	C 	0.4879	0.90952	0.91298	0.059
Mof_H 	H 	0.4616	0.9554	0.9217	0.016
Mof_C 	C 	0.63128	0.90076	0.85106	-0.091
Mof_C 	C 	0.65327	0.84646	0.78095	0.06
Mof_H 	H 	0.6322	0.7991	0.7447	0.019
Mof_C 	C 	0.70685	0.86262	0.76459	-0.19
Mof_C 	C 	0.73788	0.93227	0.82109	0.113
Mof_H 	H 	0.7743	0.9402	0.8148	-0.004
Mof_C 	C 	0.71507	0.99013	0.88686	-0.196
Mof_C 	C 	0.66117	0.97531	0.90002	0.052
Mof_H 	H 	0.6454	0.0159	0.9419	0.006
Mof_C 	C 	0.72852	0.80586	0.68486	0.495
Mof_C 	C 	0.74955	0.06796	0.94081	0.453
Mof_O 	O 	0.39353	0.84469	0.9842	-0.452
Mof_O 	O 	0.4168	0.6917	0.97199	-0.481
Mof_O 	O 	0.72779	0.14288	0.97098	-0.638
Mof_O 	O 	0.80057	0.05746	0.95544	-0.494
Mof_O 	O 	0.77723	0.82574	0.67232	-0.557
Mof_O 	O 	0.69849	0.74627	0.63841	-0.53
Mof_Nd	Nd	0.83007	0.78402	0.53886	2.146
Mof_C 	C 	0.92555	0.71829	0.46206	0.333
Mof_C 	C 	0.97661	0.68675	0.42455	-0.129
Mof_C 	C 	0.01509	0.7559	0.4072	0.055
Mof_H 	H 	0.0079	0.822	0.412	0.009
Mof_C 	C 	0.06421	0.7244	0.3826	-0.151
Mof_H 	H 	0.0901	0.7704	0.3721	0.076
Mof_C 	C 	0.07611	0.62657	0.37304	0.101
Mof_C 	C 	0.03703	0.5589	0.38877	-0.149
Mof_H 	H 	0.0438	0.4928	0.3831	0.073
Mof_C 	C 	0.9879	0.59048	0.41298	0.057
Mof_H 	H 	0.9616	0.5446	0.4217	0.017
Mof_C 	C 	0.13128	0.59924	0.35106	-0.091
Mof_C 	C 	0.15327	0.65354	0.28095	0.06
Mof_H 	H 	0.1322	0.7009	0.2447	0.019
Mof_C 	C 	0.20685	0.63738	0.26459	-0.19
Mof_C 	C 	0.23788	0.56773	0.32109	0.113
Mof_H 	H 	0.2743	0.5598	0.3148	-0.004
Mof_C 	C 	0.21507	0.50987	0.38686	-0.195
Mof_C 	C 	0.16117	0.52469	0.40002	0.053
Mof_H 	H 	0.1454	0.4841	0.4419	0.005
Mof_C 	C 	0.22852	0.69414	0.18486	0.495
Mof_C 	C 	0.24955	0.43204	0.44081	0.452
Mof_O 	O 	0.89353	0.65531	0.4842	-0.451
Mof_O 	O 	0.9168	0.8083	0.47199	-0.481
Mof_O 	O 	0.22779	0.35712	0.47098	-0.639
Mof_O 	O 	0.30057	0.44254	0.45544	-0.495
Mof_O 	O 	0.27723	0.67426	0.17232	-0.557
Mof_O 	O 	0.19849	0.75373	0.13841	-0.529
Mof_Nd	Nd	0.33007	0.28402	0.53886	2.146
Mof_C 	C 	0.42555	0.21829	0.46206	0.333
Mof_C 	C 	0.47661	0.18675	0.42455	-0.129
Mof_C 	C 	0.51509	0.2559	0.4072	0.055
Mof_H 	H 	0.5079	0.322	0.412	0.009
Mof_C 	C 	0.56421	0.2244	0.3826	-0.152
Mof_H 	H 	0.5901	0.2704	0.3721	0.076
Mof_C 	C 	0.57611	0.12657	0.37304	0.101
Mof_C 	C 	0.53703	0.0589	0.38877	-0.15
Mof_H 	H 	0.5438	0.9928	0.3831	0.073
Mof_C 	C 	0.4879	0.09048	0.41298	0.058
Mof_H 	H 	0.4616	0.0446	0.4217	0.016
Mof_C 	C 	0.63128	0.09924	0.35106	-0.092
Mof_C 	C 	0.65327	0.15354	0.28095	0.06
Mof_H 	H 	0.6322	0.2009	0.2447	0.019
Mof_C 	C 	0.70685	0.13738	0.26459	-0.191
Mof_C 	C 	0.73788	0.06773	0.32109	0.113
Mof_H 	H 	0.7743	0.0598	0.3148	-0.004
Mof_C 	C 	0.71507	0.00987	0.38686	-0.196
Mof_C 	C 	0.66117	0.02469	0.40002	0.053
Mof_H 	H 	0.6454	0.9841	0.4419	0.005
Mof_C 	C 	0.72852	0.19414	0.18486	0.495
Mof_C 	C 	0.74955	0.93204	0.44081	0.452
Mof_O 	O 	0.39353	0.15531	0.4842	-0.451
Mof_O 	O 	0.4168	0.3083	0.47199	-0.481
Mof_O 	O 	0.72779	0.85712	0.47098	-0.639
Mof_O 	O 	0.80057	0.94254	0.45544	-0.495
Mof_O 	O 	0.77723	0.17426	0.17232	-0.556
Mof_O 	O 	0.69849	0.25373	0.13841	-0.53
Mof_Nd	Nd	0.16993	0.78402	0.96114	2.14
Mof_C 	C 	0.07445	0.71829	0.03794	0.332
Mof_C 	C 	0.02339	0.68675	0.07545	-0.127
Mof_C 	C 	0.98491	0.7559	0.0928	0.052
Mof_H 	H 	0.9921	0.822	0.088	0.009
Mof_C 	C 	0.93579	0.7244	0.1174	-0.151
Mof_H 	H 	0.9099	0.7704	0.1279	0.076
Mof_C 	C 	0.92389	0.62657	0.12696	0.101
Mof_C 	C 	0.96297	0.5589	0.11123	-0.152
Mof_H 	H 	0.9562	0.4928	0.1169	0.073
Mof_C 	C 	0.0121	0.59048	0.08702	0.06
Mof_H 	H 	0.0384	0.5446	0.0783	0.016
Mof_C 	C 	0.86872	0.59924	0.14894	-0.092
Mof_C 	C 	0.84673	0.65354	0.21905	0.06
Mof_H 	H 	0.8678	0.7009	0.2553	0.019
Mof_C 	C 	0.79315	0.63738	0.23541	-0.19
Mof_C 	C 	0.76212	0.56773	0.17891	0.113
Mof_H 	H 	0.7257	0.5598	0.1852	-0.004
Mof_C 	C 	0.78493	0.50987	0.11314	-0.196
Mof_C 	C 	0.83883	0.52469	0.09998	0.053
Mof_H 	H 	0.8546	0.4841	0.0581	0.005
Mof_C 	C 	0.77148	0.69414	0.31514	0.495
Mof_C 	C 	0.75045	0.43204	0.05919	0.452
Mof_O 	O 	0.10647	0.65531	0.0158	-0.45
Mof_O 	O 	0.0832	0.8083	0.02801	-0.479
Mof_O 	O 	0.77221	0.35712	0.02902	-0.639
Mof_O 	O 	0.69943	0.44254	0.04456	-0.495
Mof_O 	O 	0.72277	0.67426	0.32768	-0.557
Mof_O 	O 	0.80151	0.75373	0.36159	-0.53
Mof_Nd	Nd	0.66993	0.28402	0.96114	2.15
Mof_C 	C 	0.57445	0.21829	0.03794	0.333
Mof_C 	C 	0.52339	0.18675	0.07545	-0.129
Mof_C 	C 	0.48491	0.2559	0.0928	0.055
Mof_H 	H 	0.4921	0.322	0.088	0.008
Mof_C 	C 	0.43579	0.2244	0.1174	-0.152
Mof_H 	H 	0.4099	0.2704	0.1279	0.076
Mof_C 	C 	0.42389	0.12657	0.12696	0.102
Mof_C 	C 	0.46297	0.0589	0.11123	-0.152
Mof_H 	H 	0.4562	0.9928	0.1169	0.074
Mof_C 	C 	0.5121	0.09048	0.08702	0.059
Mof_H 	H 	0.5384	0.0446	0.0783	0.016
Mof_C 	C 	0.36872	0.09924	0.14894	-0.091
Mof_C 	C 	0.34673	0.15354	0.21905	0.06
Mof_H 	H 	0.3678	0.2009	0.2553	0.019
Mof_C 	C 	0.29315	0.13738	0.23541	-0.19
Mof_C 	C 	0.26212	0.06773	0.17891	0.113
Mof_H 	H 	0.2257	0.0598	0.1852	-0.004
Mof_C 	C 	0.28493	0.00987	0.11314	-0.196
Mof_C 	C 	0.33883	0.02469	0.09998	0.052
Mof_H 	H 	0.3546	0.9841	0.0581	0.006
Mof_C 	C 	0.27148	0.19414	0.31514	0.495
Mof_C 	C 	0.25045	0.93204	0.05919	0.453
Mof_O 	O 	0.60647	0.15531	0.0158	-0.452
Mof_O 	O 	0.5832	0.3083	0.02801	-0.481
Mof_O 	O 	0.27221	0.85712	0.02902	-0.638
Mof_O 	O 	0.19943	0.94254	0.04456	-0.494
Mof_O 	O 	0.22277	0.17426	0.32768	-0.557
Mof_O 	O 	0.30151	0.25373	0.36159	-0.53
_end
