data_functionalizedCrystal
_audit_creation_method	'EQeq! by Chris Wilmer'
_symmetry_space_group_name_H-M	'P1'
_symmetry_Int_Tables_number	1
_symmetry_cell_setting	triclinic
loop_
_symmetry_equiv_pos_as_xyz
  x,y,z
_cell_length_a	15.123
_cell_length_b	12.305
_cell_length_c	19.264
_cell_angle_alpha	90
_cell_angle_beta	98.62
_cell_angle_gamma	90
loop_
_atom_site_label
_atom_site_type_symbol
_atom_site_fract_x
_atom_site_fract_y
_atom_site_fract_z
_atom_site_charge
Mof_Mo	Mo	0.4826	0.3958	0.6766	1.054
Mof_Mo	Mo	0.3764	0.4927	0.576	1.151
Mof_Mo	Mo	0.2514	0.3417	0.4428	1.283
Mof_Mo	Mo	0.262	0.1305	0.4439	1.083
Mof_Mo	Mo	0.4	0.9964	0.579	1.1
Mof_Mo	Mo	0.4937	0.111	0.6809	1.181
Mof_Mo	Mo	0.5023	0.3927	0.322	1.086
Mof_Mo	Mo	0.5935	0.505	0.4191	1.098
Mof_Mo	Mo	0.7351	0.3692	0.5591	1.091
Mof_Mo	Mo	0.7447	0.1594	0.561	1.099
Mof_Mo	Mo	0.6149	0.0004	0.4252	1.082
Mof_Mo	Mo	0.5153	0.1031	0.3244	1.221
Mof_P 	P 	0.305	0.241	0.61	0.608
Mof_P 	P 	0.465	0.249	0.823	0.568
Mof_P 	P 	0.161	0.514	0.541	0.533
Mof_P 	P 	0.183	0.952	0.548	0.532
Mof_P 	P 	0.7	0.262	0.394	0.561
Mof_P 	P 	0.533	0.242	0.178	0.557
Mof_P 	P 	0.81	0.556	0.458	0.557
Mof_P 	P 	0.838	0.977	0.462	0.571
Mof_Cd	Cd	0.5	0.2457	0.5	0.584
Mof_Cd	Cd	0.5004	0.251	0.0006	0.513
Mof_O 	O 	0.364	0.47	0.671	-0.477
Mof_O 	O 	0.479	0.391	0.57	-0.51
Mof_O 	O 	0.464	0.356	0.78	-0.357
Mof_O 	O 	0.56	0.254	0.683	-0.488
Mof_O 	O 	0.386	0.249	0.663	-0.413
Mof_O 	O 	0.344	0.461	0.466	-0.498
Mof_O 	O 	0.255	0.569	0.561	-0.385
Mof_O 	O 	0.297	0.341	0.566	-0.435
Mof_O 	O 	0.35	0.248	0.444	-0.587
Mof_O 	O 	0.171	0.25	0.468	-0.519
Mof_O 	O 	0.161	0.444	0.474	-0.409
Mof_O 	O 	0.31	0.145	0.56	-0.427
Mof_O 	O 	0.184	0.007	0.472	-0.383
Mof_O 	O 	0.361	0.018	0.475	-0.494
Mof_O 	O 	0.391	0.013	0.68	-0.478
Mof_O 	O 	0.278	0.922	0.581	-0.377
Mof_O 	O 	0.492	0.116	0.579	-0.551
Mof_O 	O 	0.474	0.158	0.778	-0.422
Mof_O 	O 	0.603	0.259	0.347	-0.397
Mof_O 	O 	0.61	0.476	0.324	-0.489
Mof_O 	O 	0.508	0.392	0.425	-0.548
Mof_O 	O 	0.43	0.239	0.323	-0.462
Mof_O 	O 	0.521	0.354	0.219	-0.363
Mof_O 	O 	0.696	0.366	0.441	-0.397
Mof_O 	O 	0.626	0.482	0.535	-0.433
Mof_O 	O 	0.714	0.59	0.432	-0.394
Mof_O 	O 	0.637	0.263	0.558	-0.521
Mof_O 	O 	0.817	0.491	0.523	-0.382
Mof_O 	O 	0.826	0.266	0.541	-0.497
Mof_O 	O 	0.646	0.028	0.534	-0.451
Mof_O 	O 	0.832	0.045	0.529	-0.371
Mof_O 	O 	0.704	0.16	0.446	-0.39
Mof_O 	O 	0.748	0.943	0.43	-0.381
Mof_O 	O 	0.524	0.112	0.423	-0.591
Mof_O 	O 	0.622	0.028	0.324	-0.51
Mof_O 	O 	0.512	0.147	0.221	-0.419
Mof_O 	O 	0.214	0.225	0.642	-0.173
Mof_O 	O 	0.531	0.248	0.891	-0.265
Mof_O 	O 	0.363	0.243	0.837	-0.163
Mof_O 	O 	0.14	0.445	0.605	-0.18
Mof_O 	O 	0.094	0.609	0.528	-0.244
Mof_O 	O 	0.121	0.857	0.547	-0.237
Mof_O 	O 	0.143	0.032	0.594	-0.182
Mof_O 	O 	0.774	0.263	0.355	-0.204
Mof_O 	O 	0.474	0.236	0.112	-0.287
Mof_O 	O 	0.634	0.242	0.162	-0.165
Mof_O 	O 	0.842	0.475	0.397	-0.153
Mof_O 	O 	0.867	0.655	0.467	-0.243
Mof_O 	O 	0.866	0.07	0.407	-0.152
Mof_O 	O 	0.916	0.91	0.469	-0.245
Mof_Mo	Mo	0.9826	0.6042	0.1766	1.09
Mof_Mo	Mo	0.8764	0.5073	0.076	1.121
Mof_Mo	Mo	0.7514	0.6583	0.9428	1.303
Mof_Mo	Mo	0.762	0.8695	0.9439	1.109
Mof_Mo	Mo	0.9	0.0036	0.079	1.07
Mof_Mo	Mo	0.9937	0.889	0.1809	1.223
Mof_Mo	Mo	0.0023	0.6073	0.822	1.047
Mof_Mo	Mo	0.0935	0.495	0.9191	1.12
Mof_Mo	Mo	0.2351	0.6308	0.0591	1.064
Mof_Mo	Mo	0.2447	0.8406	0.061	1.072
Mof_Mo	Mo	0.1149	0.9996	0.9252	1.09
Mof_Mo	Mo	0.0153	0.8969	0.8244	1.176
Mof_P 	P 	0.805	0.759	0.11	0.61
Mof_P 	P 	0.965	0.751	0.323	0.595
Mof_P 	P 	0.661	0.486	0.041	0.51
Mof_P 	P 	0.683	0.048	0.048	0.516
Mof_P 	P 	0.2	0.738	0.894	0.56
Mof_P 	P 	0.033	0.758	0.678	0.527
Mof_P 	P 	0.31	0.444	0.958	0.581
Mof_P 	P 	0.338	0.023	0.962	0.598
Mof_Cd	Cd	-0	0.7543	-0	0.525
Mof_Cd	Cd	0.0004	0.749	0.5006	0.515
Mof_O 	O 	0.864	0.53	0.171	-0.476
Mof_O 	O 	0.979	0.609	0.07	-0.5
Mof_O 	O 	0.964	0.644	0.28	-0.358
Mof_O 	O 	0.06	0.746	0.183	-0.525
Mof_O 	O 	0.886	0.751	0.163	-0.416
Mof_O 	O 	0.844	0.539	0.966	-0.467
Mof_O 	O 	0.755	0.431	0.061	-0.385
Mof_O 	O 	0.797	0.659	0.066	-0.447
Mof_O 	O 	0.85	0.752	0.944	-0.568
Mof_O 	O 	0.671	0.75	0.968	-0.507
Mof_O 	O 	0.661	0.556	0.974	-0.38
Mof_O 	O 	0.81	0.855	0.06	-0.441
Mof_O 	O 	0.684	0.993	0.972	-0.363
Mof_O 	O 	0.861	0.982	0.975	-0.465
Mof_O 	O 	0.891	0.987	0.18	-0.478
Mof_O 	O 	0.778	0.078	0.081	-0.375
Mof_O 	O 	0.992	0.884	0.079	-0.537
Mof_O 	O 	0.974	0.842	0.278	-0.425
Mof_O 	O 	0.103	0.741	0.847	-0.392
Mof_O 	O 	0.11	0.524	0.824	-0.488
Mof_O 	O 	0.008	0.608	0.925	-0.545
Mof_O 	O 	0.93	0.761	0.823	-0.421
Mof_O 	O 	0.021	0.646	0.719	-0.363
Mof_O 	O 	0.196	0.634	0.941	-0.382
Mof_O 	O 	0.126	0.518	0.035	-0.456
Mof_O 	O 	0.214	0.41	0.932	-0.394
Mof_O 	O 	0.137	0.737	0.058	-0.524
Mof_O 	O 	0.317	0.509	0.023	-0.412
Mof_O 	O 	0.326	0.734	0.041	-0.507
Mof_O 	O 	0.146	0.972	0.034	-0.474
Mof_O 	O 	0.332	0.955	0.029	-0.399
Mof_O 	O 	0.204	0.84	0.946	-0.375
Mof_O 	O 	0.248	0.057	0.93	-0.376
Mof_O 	O 	0.024	0.888	0.923	-0.586
Mof_O 	O 	0.122	0.972	0.824	-0.508
Mof_O 	O 	0.012	0.853	0.721	-0.421
Mof_O 	O 	0.714	0.775	0.142	-0.176
Mof_O 	O 	0.031	0.752	0.391	-0.307
Mof_O 	O 	0.863	0.757	0.337	-0.165
Mof_O 	O 	0.64	0.555	0.105	-0.177
Mof_O 	O 	0.594	0.391	0.028	-0.244
Mof_O 	O 	0.621	0.143	0.047	-0.236
Mof_O 	O 	0.643	0.968	0.094	-0.185
Mof_O 	O 	0.274	0.737	0.855	-0.203
Mof_O 	O 	0.974	0.764	0.612	-0.243
Mof_O 	O 	0.134	0.758	0.662	-0.164
Mof_O 	O 	0.342	0.525	0.897	-0.155
Mof_O 	O 	0.367	0.345	0.967	-0.242
Mof_O 	O 	0.366	0.93	0.907	-0.157
Mof_O 	O 	0.416	0.09	0.969	-0.246
_end
