data_functionalizedCrystal
_audit_creation_method	'EQeq! by Chris Wilmer'
_symmetry_space_group_name_H-M	'P1'
_symmetry_Int_Tables_number	1
_symmetry_cell_setting	triclinic
loop_
_symmetry_equiv_pos_as_xyz
  x,y,z
_cell_length_a	28.0956
_cell_length_b	28.0956
_cell_length_c	64.0922
_cell_angle_alpha	90
_cell_angle_beta	90
_cell_angle_gamma	120
loop_
_atom_site_label
_atom_site_type_symbol
_atom_site_fract_x
_atom_site_fract_y
_atom_site_fract_z
_atom_site_charge
Mof_Rb	Rb	0.78724	0.9011	0.14256	3.951
Mof_O 	O 	0.7265	0.1865	0.1071	-0.723
Mof_C 	C 	0.5787	0.0259	0.06864	0.213
Mof_Rb	Rb	0.58794	0.78872	0.20662	3.139
Mof_O 	O 	0.6831	0.218	0.0932	-0.417
Mof_C 	C 	0.6134	0.0293	0.0847	-0.271
Mof_Rb	Rb	0.5449	0.08557	0.11973	3.657
Mof_O 	O 	0.5461	0.9761	0.05788	-0.512
Mof_C 	C 	0.6456	0.0765	0.093	0.124
Mof_H 	H 	0.669	0.0778	0.1036	-0.224
Mof_Rb	Rb	0.43666	0.87523	0.06157	2.583
Mof_O 	O 	0.3855	0.9209	0.0005	-0.869
Mof_C 	C 	0.6481	0.128	0.0872	-0.526
Mof_Rb	Rb	0.7724	0.1449	0.13378	1.904
Mof_O 	O 	0.3105	0.8829	0.0206	-0.471
Mof_C 	C 	0.6114	0.1226	0.07131	0.061
Mof_H 	H 	0.6097	0.1534	0.067	-0.02
Mof_O 	O 	0.4782	0.0639	0.08209	-0.588
Mof_C 	C 	0.5767	0.071	0.06142	-0.199
Mof_O 	O 	0.4265	0.103	0.1576	-0.316
Mof_C 	C 	0.6862	0.1801	0.0965	0.562
Mof_O 	O 	0.4585	0.0538	0.1771	-0.306
Mof_C 	C 	0.5745	0.9676	0.0407	0.075
Mof_H 	H 	0.5955	0.9517	0.0459	-0.028
Mof_H 	H 	0.5482	0.9433	0.0307	-0.117
Mof_H 	H 	0.5987	0.0021	0.0342	0.021
Mof_O 	O 	0.3947	0.9031	0.0993	-0.491
Mof_C 	C 	0.5367	0.0696	0.045	0.05
Mof_H 	H 	0.5481	0.0633	0.0315	0.017
Mof_H 	H 	0.5396	0.1054	0.0445	0.007
Mof_O 	O 	0.4435	0.7371	0.0971	-0.375
Mof_C 	C 	0.4775	0.0272	0.0482	-0.194
Mof_O 	O 	0.5115	0.7674	0.0758	-0.411
Mof_C 	C 	0.449	0.9932	0.0331	0.05
Mof_H 	H 	0.4666	0.9947	0.0207	-0.097
Mof_O 	O 	0.5506	0.9868	0.12384	-0.728
Mof_C 	C 	0.3918	0.9538	0.0352	-0.357
Mof_C 	C 	0.3665	0.9522	0.0543	0.03
Mof_H 	H 	0.3294	0.9271	0.0563	-0.024
Mof_C 	C 	0.3969	0.9879	0.0701	-0.207
Mof_C 	C 	0.4511	0.0273	0.0675	0.26
Mof_C 	C 	0.3603	0.9154	0.0157	0.522
Mof_C 	C 	0.4717	0.1108	0.078	0.107
Mof_H 	H 	0.439	0.1058	0.0847	-0.015
Mof_H 	H 	0.503	0.1434	0.0832	-0.07
Mof_H 	H 	0.4686	0.1143	0.0632	0.003
Mof_O 	O 	0.57	0.192	0.1132	-0.454
Mof_C 	C 	0.3679	0.9877	0.0912	-0.059
Mof_H 	H 	0.3306	0.957	0.0906	0.037
Mof_H 	H 	0.3653	0.0209	0.0914	0.064
Mof_O 	O 	0.863	0.022	0.2973	-0.437
Mof_C 	C 	0.3919	0.9844	0.1114	-0.117
Mof_C 	C 	0.4031	0.0222	0.1256	-0.103
Mof_H 	H 	0.3971	0.0512	0.1227	0.041
Mof_C 	C 	0.4233	0.0194	0.1444	-0.171
Mof_C 	C 	0.4371	0.9743	0.1447	-0.203
Mof_H 	H 	0.4538	0.9733	0.1571	0.068
Mof_O 	O 	0.8337	0.2326	0.1274	-0.798
Mof_C 	C 	0.4312	0.9374	0.132	-0.055
Mof_O 	O 	0.8434	0.11	0.1555	-0.143
Mof_C 	C 	0.4035	0.9393	0.1139	0.136
Mof_O 	O 	0.855	0.1311	0.1572	-0.344
Mof_C 	C 	0.4335	0.0636	0.1603	0.201
Mof_O 	O 	0.7692	0.0461	0.11022	-0.661
Mof_C 	C 	0.3417	0.8561	0.1041	0.044
Mof_H 	H 	0.3151	0.8534	0.0941	-0.033
Mof_H 	H 	0.3442	0.8232	0.1037	-0.057
Mof_H 	H 	0.3305	0.8603	0.1178	0.031
Mof_O 	O 	0.742	0.9717	0.0902	-0.231
Mof_C 	C 	0.4485	0.8997	0.1379	-0.05
Mof_H 	H 	0.4702	0.9129	0.1505	0.041
Mof_H 	H 	0.4164	0.8646	0.141	0.059
Mof_O 	O 	0.77	0.965	0.0897	-0.173
Mof_C 	C 	0.4834	0.891	0.1208	-0.189
Mof_O 	O 	0.599	0.8593	0.17148	-0.59
Mof_C 	C 	0.4715	0.8386	0.1113	0.029
Mof_H 	H 	0.4394	0.8069	0.1152	-0.011
Mof_O 	O 	0.4393	0.6477	0.1691	-0.339
Mof_C 	C 	0.5024	0.8342	0.0981	-0.307
Mof_O 	O 	0.4638	0.609	0.1911	1.328
Mof_C 	C 	0.5428	0.8739	0.0924	0.073
Mof_H 	H 	0.564	0.8691	0.0823	-0.037
Mof_O 	O 	0.4828	0.61	0.1889	-1.569
Mof_C 	C 	0.5628	0.9317	0.1	-0.26
Mof_O 	O 	0.6839	0.7948	0.14028	-0.624
Mof_C 	C 	0.5329	0.9369	0.1149	0.291
Mof_O 	O 	0.8891	0.815	0.148	-0.346
Mof_C 	C 	0.4864	0.7738	0.0896	0.346
Mof_O 	O 	0.9324	0.8889	0.1712	-0.375
Mof_C 	C 	0.5849	0.9926	0.1406	0.501
Mof_H 	H 	0.6101	0.9807	0.1365	-0.162
Mof_H 	H 	0.6051	0.0305	0.1447	-0.313
Mof_H 	H 	0.5631	0.9707	0.1521	-0.16
Mof_O 	O 	0.6867	0.7822	0.20338	-0.577
Mof_C 	C 	0.6155	0.9782	0.0918	0.123
Mof_H 	H 	0.6433	0.9892	0.1026	-0.048
Mof_H 	H 	0.6273	0.9649	0.08	-0.024
Mof_O 	O 	0.6517	0.8811	0.2717	-0.455
Mof_C 	C 	0.6773	0.9465	0.161	-0.201
Mof_O 	O 	0.5932	0.9004	0.2552	-0.384
Mof_C 	C 	0.7108	0.9791	0.145	0.017
Mof_H 	H 	0.736	0.0158	0.1476	-0.13
Mof_O 	O 	0.7634	0.9395	0.18313	-0.609
Mof_C 	C 	0.7078	0.9583	0.1249	-0.339
Mof_C 	C 	0.6685	0.9016	0.1208	-0.061
Mof_H 	H 	0.6666	0.8873	0.1076	-0.005
Mof_C 	C 	0.6336	0.8681	0.13619	-0.145
Mof_O 	O 	0.5278	0.6756	0.2248	-0.412
Mof_C 	C 	0.6372	0.8924	0.1562	0.17
Mof_O 	O 	0.5515	0.6739	0.2217	-0.059
Mof_C 	C 	0.7427	0.9958	0.1071	0.37
Mof_C 	C 	0.5498	0.8613	0.1708	0.312
Mof_H 	H 	0.5575	0.8978	0.174	-0.094
Mof_H 	H 	0.5244	0.8361	0.1809	-0.24
Mof_H 	H 	0.534	0.8511	0.1571	-0.075
Mof_O 	O 	0.9055	0.9715	0.1562	3.812
Mof_C 	C 	0.5901	0.8088	0.1318	-0.047
Mof_H 	H 	0.5543	0.806	0.1324	0.045
Mof_H 	H 	0.5952	0.7999	0.1176	0.034
Mof_O 	O 	0.9042	0.9572	0.15	-4.247
Mof_C 	C 	0.59	0.7665	0.14626	-0.093
Mof_O 	O 	0.8513	0.0146	0.1268	-0.934
Mof_C 	C 	0.5402	0.7292	0.1551	-0.158
Mof_H 	H 	0.5091	0.7317	0.1521	0.052
Mof_O 	O 	0.8463	0.0257	0.1333	0.447
Mof_C 	C 	0.5356	0.687	0.16886	-0.06
Mof_C 	C 	0.5832	0.6851	0.1732	-0.145
Mof_H 	H 	0.5811	0.6581	0.1821	0.115
Mof_C 	C 	0.6323	0.7214	0.1647	-0.098
Mof_C 	C 	0.6368	0.7611	0.15045	0.159
Mof_C 	C 	0.4765	0.6471	0.1768	0.141
Mof_C 	C 	0.6874	0.7709	0.1206	0.239
Mof_H 	H 	0.6798	0.734	0.123	-0.047
Mof_H 	H 	0.7236	0.7925	0.1149	-0.219
Mof_H 	H 	0.6609	0.7704	0.111	-0.075
Mof_C 	C 	0.6824	0.7162	0.1696	-0.045
Mof_H 	H 	0.6911	0.702	0.1572	0.037
Mof_H 	H 	0.6724	0.6888	0.1805	0.042
Mof_C 	C 	0.7352	0.7685	0.1765	-0.147
Mof_C 	C 	0.7864	0.7863	0.1676	-0.1
Mof_H 	H 	0.788	0.7665	0.1563	0.009
Mof_C 	C 	0.8342	0.83	0.1739	-0.183
Mof_C 	C 	0.8324	0.8614	0.1887	-0.072
Mof_H 	H 	0.8645	0.8933	0.1925	-0.011
Mof_C 	C 	0.7802	0.8472	0.1995	-0.196
Mof_C 	C 	0.7347	0.8003	0.1929	0.19
Mof_C 	C 	0.8911	0.8446	0.1614	0.342
Mof_C 	C 	0.6801	0.7476	0.2214	0.2
Mof_H 	H 	0.6996	0.7282	0.219	-0.025
Mof_H 	H 	0.6418	0.7217	0.2234	-0.149
Mof_H 	H 	0.6944	0.7702	0.2336	-0.126
Mof_C 	C 	0.7803	0.8806	0.2174	0.073
Mof_H 	H 	0.8163	0.9133	0.2182	-0.009
Mof_H 	H 	0.7752	0.8597	0.2301	-0.003
Mof_C 	C 	0.7377	0.8983	0.21696	-0.225
Mof_C 	C 	0.7054	0.8892	0.23437	0.053
Mof_H 	H 	0.7109	0.8721	0.2458	-0.09
Mof_C 	C 	0.665	0.9042	0.236	-0.361
Mof_Rb	Rb	0.78358	0.14122	0.12838	1.938
Mof_C 	C 	0.6583	0.9298	0.21859	-0.005
Mof_H 	H 	0.6312	0.9396	0.2188	-0.024
Mof_C 	C 	0.6907	0.9414	0.20075	-0.208
Mof_C 	C 	0.7276	0.9252	0.2004	0.201
Mof_C 	C 	0.6366	0.8935	0.2552	0.347
Mof_C 	C 	0.8138	0.9939	0.1843	0.276
Mof_H 	H 	0.8044	0.0222	0.183	-0.071
Mof_H 	H 	0.8383	0.9972	0.1732	-0.321
Mof_H 	H 	0.8315	0.9975	0.1975	-0.093
Mof_C 	C 	0.6818	0.9701	0.1819	0.036
Mof_H 	H 	0.6486	0.9716	0.1844	-0.01
Mof_H 	H 	0.7121	0.0077	0.1816	0.002
Mof_Rb	Rb	0.45391	0.23443	0.47589	3.997
Mof_O 	O 	0.39317	0.51983	0.44043	-0.725
Mof_C 	C 	0.24537	0.35923	0.40197	0.209
Mof_Rb	Rb	0.25461	0.12205	0.53995	3.147
Mof_O 	O 	0.34977	0.55133	0.42653	-0.418
Mof_C 	C 	0.28007	0.36263	0.41803	-0.299
Mof_Rb	Rb	0.21157	0.4189	0.45306	3.621
Mof_O 	O 	0.21277	0.30943	0.39121	-0.512
Mof_C 	C 	0.31227	0.40983	0.42633	0.14
Mof_H 	H 	0.33567	0.41113	0.43693	-0.234
Mof_Rb	Rb	0.10333	0.20856	0.3949	2.566
Mof_O 	O 	0.05217	0.25423	0.33383	-0.87
Mof_C 	C 	0.31477	0.46133	0.42053	-0.533
Mof_Rb	Rb	0.43907	0.47823	0.46711	1.905
Mof_O 	O 	0.97717	0.21623	0.35393	-0.45
Mof_C 	C 	0.27807	0.45593	0.40464	0.067
Mof_H 	H 	0.27637	0.48673	0.40033	-0.022
Mof_O 	O 	0.14487	0.39723	0.41542	-0.582
Mof_C 	C 	0.24337	0.40433	0.39475	-0.205
Mof_O 	O 	0.09317	0.43633	0.49093	-0.321
Mof_C 	C 	0.35287	0.51343	0.42983	0.564
Mof_O 	O 	0.12517	0.38713	0.51043	-0.315
Mof_C 	C 	0.24117	0.30093	0.37403	0.155
Mof_H 	H 	0.26217	0.28503	0.37923	-0.048
Mof_H 	H 	0.21487	0.27663	0.36403	-0.139
Mof_H 	H 	0.26537	0.33543	0.36753	-0.017
Mof_O 	O 	0.06137	0.23643	0.43263	-0.456
Mof_C 	C 	0.20337	0.40293	0.37833	0.058
Mof_H 	H 	0.21477	0.39663	0.36483	0.011
Mof_H 	H 	0.20627	0.43873	0.37783	0.005
Mof_O 	O 	0.11017	0.07043	0.43043	-0.374
Mof_C 	C 	0.14417	0.36053	0.38153	-0.211
Mof_O 	O 	0.17817	0.10073	0.40913	-0.41
Mof_C 	C 	0.11567	0.32653	0.36643	0.072
Mof_H 	H 	0.13327	0.32803	0.35403	-0.098
Mof_O 	O 	0.21727	0.32013	0.45717	-0.735
Mof_C 	C 	0.05847	0.28713	0.36853	-0.337
Mof_C 	C 	0.03317	0.28553	0.38763	-0.032
Mof_H 	H 	0.99607	0.26043	0.38963	0.01
Mof_C 	C 	0.06357	0.32123	0.40343	-0.156
Mof_C 	C 	0.11777	0.36063	0.40083	0.229
Mof_C 	C 	0.02697	0.24873	0.34903	0.495
Mof_C 	C 	0.13837	0.44413	0.41133	0.104
Mof_H 	H 	0.10567	0.43913	0.41803	-0.017
Mof_H 	H 	0.16967	0.47673	0.41653	-0.069
Mof_H 	H 	0.13527	0.44763	0.39653	0.004
Mof_O 	O 	0.23667	0.52533	0.44653	-0.451
Mof_C 	C 	0.03457	0.32103	0.42453	-0.099
Mof_H 	H 	0.99727	0.29033	0.42393	0.064
Mof_H 	H 	0.03197	0.35423	0.42473	0.056
Mof_O 	O 	0.52967	0.35533	0.63063	-0.445
Mof_C 	C 	0.05857	0.31773	0.44473	-0.072
Mof_C 	C 	0.06977	0.35553	0.45893	-0.15
Mof_H 	H 	0.06377	0.38453	0.45603	0.051
Mof_C 	C 	0.08997	0.35273	0.47773	-0.178
Mof_C 	C 	0.10377	0.30763	0.47803	-0.186
Mof_H 	H 	0.12047	0.30663	0.49043	0.067
Mof_O 	O 	0.50037	0.56593	0.46073	-0.799
Mof_C 	C 	0.09787	0.27073	0.46533	-0.053
Mof_O 	O 	0.51007	0.44333	0.48883	-0.139
Mof_C 	C 	0.07017	0.27263	0.44723	0.11
Mof_O 	O 	0.52167	0.46443	0.49053	-0.35
Mof_C 	C 	0.10017	0.39693	0.49363	0.197
Mof_O 	O 	0.43587	0.37943	0.44355	-0.684
Mof_C 	C 	0.00837	0.18943	0.43743	-0.141
Mof_H 	H 	0.98177	0.18673	0.42743	0.033
Mof_H 	H 	0.01087	0.15653	0.43703	-0.009
Mof_H 	H 	0.99717	0.19363	0.45113	0.1
Mof_O 	O 	0.40867	0.30503	0.42353	-0.241
Mof_C 	C 	0.11517	0.23303	0.47123	-0.049
Mof_H 	H 	0.13687	0.24623	0.48383	0.042
Mof_H 	H 	0.08307	0.19793	0.47433	0.056
Mof_O 	O 	0.43667	0.29833	0.42303	-0.162
Mof_C 	C 	0.15007	0.22433	0.45413	-0.193
Mof_O 	O 	0.26567	0.19263	0.50481	-0.595
Mof_C 	C 	0.13817	0.17193	0.44463	0.035
Mof_H 	H 	0.10607	0.14023	0.44853	-0.014
Mof_O 	O 	0.10597	0.98103	0.50243	-0.351
Mof_C 	C 	0.16907	0.16753	0.43143	-0.313
Mof_O 	O 	0.13047	0.94233	0.52443	1.332
Mof_C 	C 	0.20947	0.20723	0.42573	0.081
Mof_H 	H 	0.23067	0.20243	0.41563	-0.038
Mof_O 	O 	0.14947	0.94333	0.52223	-1.58
Mof_C 	C 	0.22947	0.26503	0.43333	-0.269
Mof_O 	O 	0.35057	0.12813	0.47361	-0.63
Mof_C 	C 	0.19957	0.27023	0.44823	0.301
Mof_O 	O 	0.55577	0.14833	0.48133	-0.348
Mof_C 	C 	0.15307	0.10713	0.42293	0.347
Mof_O 	O 	0.59907	0.22223	0.50453	-0.381
Mof_C 	C 	0.25157	0.32593	0.47393	0.59
Mof_H 	H 	0.27677	0.31403	0.46983	-0.184
Mof_H 	H 	0.27177	0.36383	0.47803	-0.351
Mof_H 	H 	0.22977	0.30403	0.48543	-0.182
Mof_O 	O 	0.35337	0.11553	0.53671	-0.577
Mof_C 	C 	0.28217	0.31153	0.42513	0.154
Mof_H 	H 	0.30997	0.32253	0.43593	-0.051
Mof_H 	H 	0.29397	0.29823	0.41333	-0.028
Mof_O 	O 	0.31837	0.21443	0.60503	-0.454
Mof_C 	C 	0.34397	0.27983	0.49433	-0.246
Mof_O 	O 	0.25987	0.23373	0.58853	-0.381
Mof_C 	C 	0.37747	0.31243	0.47833	0.092
Mof_H 	H 	0.40267	0.34913	0.48093	-0.168
Mof_O 	O 	0.43007	0.27283	0.51646	-0.63
Mof_C 	C 	0.37447	0.29163	0.45823	-0.376
Mof_C 	C 	0.33517	0.23493	0.45413	-0.038
Mof_H 	H 	0.33327	0.22063	0.44093	-0.013
Mof_C 	C 	0.30027	0.20143	0.46952	-0.164
Mof_O 	O 	0.19447	0.00893	0.55813	-0.408
Mof_C 	C 	0.30387	0.22573	0.48953	0.192
Mof_O 	O 	0.21817	0.00723	0.55503	-0.052
Mof_C 	C 	0.40937	0.32913	0.44043	0.411
Mof_C 	C 	0.21647	0.19463	0.50413	0.313
Mof_H 	H 	0.22417	0.23113	0.50733	-0.092
Mof_H 	H 	0.19107	0.16943	0.51423	-0.239
Mof_H 	H 	0.20067	0.18443	0.49043	-0.075
Mof_O 	O 	0.57217	0.30483	0.48953	3.952
Mof_C 	C 	0.25677	0.14213	0.46513	-0.033
Mof_H 	H 	0.22097	0.13933	0.46573	0.041
Mof_H 	H 	0.26187	0.13323	0.45093	0.029
Mof_O 	O 	0.57087	0.29053	0.48333	-4.384
Mof_C 	C 	0.25667	0.09983	0.47959	-0.103
Mof_O 	O 	0.51797	0.34793	0.46013	-0.978
Mof_C 	C 	0.20687	0.06253	0.48843	-0.154
Mof_H 	H 	0.17577	0.06503	0.48543	0.053
Mof_O 	O 	0.51297	0.35903	0.46663	0.474
Mof_C 	C 	0.20227	0.02033	0.50219	-0.059
Mof_C 	C 	0.24987	0.01843	0.50653	-0.1
Mof_H 	H 	0.24777	0.99143	0.51543	0.083
Mof_C 	C 	0.29897	0.05473	0.49803	-0.116
Mof_C 	C 	0.30347	0.09443	0.48378	0.168
Mof_C 	C 	0.14317	0.98043	0.51013	0.127
Mof_C 	C 	0.35407	0.10423	0.45393	0.242
Mof_H 	H 	0.34647	0.06733	0.45633	-0.045
Mof_H 	H 	0.39027	0.12583	0.44823	-0.221
Mof_H 	H 	0.32757	0.10373	0.44433	-0.077
Mof_C 	C 	0.34907	0.04953	0.50293	-0.037
Mof_H 	H 	0.35777	0.03533	0.49053	0.039
Mof_H 	H 	0.33907	0.02213	0.51383	0.044
Mof_C 	C 	0.40187	0.10183	0.50983	-0.15
Mof_C 	C 	0.45307	0.11963	0.50093	-0.1
Mof_H 	H 	0.45467	0.09983	0.48963	0.011
Mof_C 	C 	0.50087	0.16333	0.50723	-0.185
Mof_C 	C 	0.49907	0.19473	0.52203	-0.071
Mof_H 	H 	0.53117	0.22663	0.52583	-0.013
Mof_C 	C 	0.44687	0.18053	0.53283	-0.199
Mof_C 	C 	0.40137	0.13363	0.52623	0.192
Mof_C 	C 	0.55777	0.17793	0.49473	0.344
Mof_C 	C 	0.34677	0.08093	0.55473	0.194
Mof_H 	H 	0.36627	0.06153	0.55233	-0.021
Mof_H 	H 	0.30847	0.05503	0.55673	-0.145
Mof_H 	H 	0.36107	0.10353	0.56693	-0.123
Mof_C 	C 	0.44697	0.21393	0.55073	0.079
Mof_H 	H 	0.48297	0.24663	0.55153	-0.01
Mof_H 	H 	0.44187	0.19303	0.56343	-0.005
Mof_C 	C 	0.40437	0.23163	0.55029	-0.235
Mof_C 	C 	0.37207	0.22253	0.5677	0.062
Mof_H 	H 	0.37757	0.20543	0.57913	-0.092
Mof_C 	C 	0.33167	0.23753	0.56933	-0.369
Mof_Rb	Rb	0.45025	0.47455	0.46171	1.94
Mof_C 	C 	0.32497	0.26313	0.55192	0.013
Mof_H 	H 	0.29787	0.27293	0.55213	-0.026
Mof_C 	C 	0.35737	0.27473	0.53408	-0.232
Mof_C 	C 	0.39427	0.25853	0.53373	0.221
Mof_C 	C 	0.30327	0.22683	0.58853	0.352
Mof_C 	C 	0.48047	0.32723	0.51763	0.367
Mof_H 	H 	0.47107	0.35553	0.51633	-0.111
Mof_H 	H 	0.50497	0.33053	0.50653	-0.348
Mof_H 	H 	0.49817	0.33083	0.53083	-0.115
Mof_C 	C 	0.34847	0.30343	0.51523	0.111
Mof_H 	H 	0.31527	0.30493	0.51773	-0.025
Mof_H 	H 	0.37877	0.34103	0.51493	-0.032
Mof_Rb	Rb	0.12057	0.56777	0.80923	3.975
Mof_O 	O 	0.05983	0.85317	0.77377	-0.725
Mof_C 	C 	0.91203	0.69257	0.73531	0.217
Mof_Rb	Rb	0.92127	0.45539	0.87329	3.17
Mof_O 	O 	0.01643	0.88467	0.75987	-0.427
Mof_C 	C 	0.94673	0.69597	0.75137	-0.314
Mof_Rb	Rb	0.87823	0.75224	0.7864	3.636
Mof_O 	O 	0.87943	0.64277	0.72455	-0.515
Mof_C 	C 	0.97893	0.74317	0.75967	0.182
Mof_H 	H 	0.00233	0.74447	0.77027	-0.262
Mof_Rb	Rb	0.76999	0.5419	0.72824	2.595
Mof_O 	O 	0.71883	0.58757	0.66717	-0.879
Mof_C 	C 	0.98143	0.79467	0.75387	-0.524
Mof_Rb	Rb	0.10573	0.81157	0.80045	1.897
Mof_O 	O 	0.64383	0.54957	0.68727	-0.473
Mof_C 	C 	0.94473	0.78927	0.73798	0.068
Mof_H 	H 	0.94303	0.82007	0.73367	-0.018
Mof_O 	O 	0.81153	0.73057	0.74876	-0.589
Mof_C 	C 	0.91003	0.73767	0.72809	-0.209
Mof_O 	O 	0.75983	0.76967	0.82427	-0.319
Mof_C 	C 	0.01953	0.84677	0.76317	0.546
Mof_O 	O 	0.79183	0.72047	0.84377	-0.313
Mof_C 	C 	0.90783	0.63427	0.70737	0.148
Mof_H 	H 	0.92883	0.61837	0.71257	-0.043
Mof_H 	H 	0.88153	0.60997	0.69737	-0.137
Mof_H 	H 	0.93203	0.66877	0.70087	-0.01
Mof_O 	O 	0.72803	0.56977	0.76597	-0.493
Mof_C 	C 	0.87003	0.73627	0.71167	0.07
Mof_H 	H 	0.88143	0.72997	0.69817	0.008
Mof_H 	H 	0.87293	0.77207	0.71117	0.002
Mof_O 	O 	0.77683	0.40377	0.76377	-0.376
Mof_C 	C 	0.81083	0.69387	0.71487	-0.23
Mof_O 	O 	0.84483	0.43407	0.74247	-0.411
Mof_C 	C 	0.78233	0.65987	0.69977	0.095
Mof_H 	H 	0.79993	0.66137	0.68737	-0.106
Mof_O 	O 	0.88393	0.65347	0.79051	-0.733
Mof_C 	C 	0.72513	0.62047	0.70187	-0.368
Mof_C 	C 	0.69983	0.61887	0.72097	0.036
Mof_H 	H 	0.66273	0.59377	0.72297	-0.024
Mof_C 	C 	0.73023	0.65457	0.73677	-0.195
Mof_C 	C 	0.78443	0.69397	0.73417	0.25
Mof_C 	C 	0.69363	0.58207	0.68237	0.531
Mof_C 	C 	0.80503	0.77747	0.74467	0.106
Mof_H 	H 	0.77233	0.77247	0.75137	-0.015
Mof_H 	H 	0.83633	0.81007	0.74987	-0.069
Mof_H 	H 	0.80193	0.78097	0.72987	0.004
Mof_O 	O 	0.90333	0.85867	0.77987	-0.45
Mof_C 	C 	0.70123	0.65437	0.75787	-0.031
Mof_H 	H 	0.66393	0.62367	0.75727	0.032
Mof_H 	H 	0.69863	0.68757	0.75807	0.043
Mof_O 	O 	0.19633	0.68867	0.96397	-0.445
Mof_C 	C 	0.72523	0.65107	0.77807	-0.098
Mof_C 	C 	0.73643	0.68887	0.79227	-0.128
Mof_H 	H 	0.73043	0.71787	0.78937	0.047
Mof_C 	C 	0.75663	0.68607	0.81107	-0.186
Mof_C 	C 	0.77043	0.64097	0.81137	-0.174
Mof_H 	H 	0.78713	0.63997	0.82377	0.065
Mof_O 	O 	0.16703	0.89927	0.79407	-0.799
Mof_C 	C 	0.76453	0.60407	0.79867	-0.065
Mof_O 	O 	0.17673	0.77667	0.82217	-0.141
Mof_C 	C 	0.73683	0.60597	0.78057	0.138
Mof_O 	O 	0.18833	0.79777	0.82387	-0.346
Mof_C 	C 	0.76683	0.73027	0.82697	0.203
Mof_O 	O 	0.10253	0.71277	0.77689	-0.68
Mof_C 	C 	0.67503	0.52277	0.77077	0.043
Mof_H 	H 	0.64843	0.52007	0.76077	-0.033
Mof_H 	H 	0.67753	0.48987	0.77037	-0.058
Mof_H 	H 	0.66383	0.52697	0.78447	0.031
Mof_O 	O 	0.07533	0.63837	0.75687	-0.242
Mof_C 	C 	0.78183	0.56637	0.80457	-0.04
Mof_H 	H 	0.80353	0.57957	0.81717	0.04
Mof_H 	H 	0.74973	0.53127	0.80767	0.057
Mof_O 	O 	0.10333	0.63167	0.75637	-0.163
Mof_C 	C 	0.81673	0.55767	0.78747	-0.196
Mof_O 	O 	0.93233	0.52597	0.83815	-0.594
Mof_C 	C 	0.80483	0.50527	0.77797	0.036
Mof_H 	H 	0.77273	0.47357	0.78187	-0.014
Mof_O 	O 	0.77263	0.31437	0.83577	-0.34
Mof_C 	C 	0.83573	0.50087	0.76477	-0.315
Mof_O 	O 	0.79713	0.27567	0.85777	1.34
Mof_C 	C 	0.87613	0.54057	0.75907	0.082
Mof_H 	H 	0.89733	0.53577	0.74897	-0.038
Mof_O 	O 	0.81613	0.27667	0.85557	-1.581
Mof_C 	C 	0.89613	0.59837	0.76667	-0.27
Mof_O 	O 	0.01723	0.46147	0.80695	-0.629
Mof_C 	C 	0.86623	0.60357	0.78157	0.302
Mof_O 	O 	0.22243	0.48167	0.81467	-0.348
Mof_C 	C 	0.81973	0.44047	0.75627	0.348
Mof_O 	O 	0.26573	0.55557	0.83787	-0.381
Mof_C 	C 	0.91823	0.65927	0.80727	0.577
Mof_H 	H 	0.94343	0.64737	0.80317	-0.176
Mof_H 	H 	0.93843	0.69717	0.81137	-0.343
Mof_H 	H 	0.89643	0.63737	0.81877	-0.178
Mof_O 	O 	0.02003	0.44887	0.87005	-0.571
Mof_C 	C 	0.94883	0.64487	0.75847	0.16
Mof_H 	H 	0.97663	0.65587	0.76927	-0.045
Mof_H 	H 	0.96063	0.63157	0.74667	-0.025
Mof_O 	O 	0.98503	0.54777	0.93837	-0.44
Mof_C 	C 	0.01063	0.61317	0.82767	-0.244
Mof_O 	O 	0.92653	0.56707	0.92187	-0.378
Mof_C 	C 	0.04413	0.64577	0.81167	0.069
Mof_H 	H 	0.06933	0.68247	0.81427	-0.161
Mof_O 	O 	0.09673	0.60617	0.8498	-0.627
Mof_C 	C 	0.04113	0.62497	0.79157	-0.345
Mof_C 	C 	0.00183	0.56827	0.78747	-0.129
Mof_H 	H 	0.99993	0.55397	0.77427	0.032
Mof_C 	C 	0.96693	0.53477	0.80286	-0.112
Mof_O 	O 	0.86113	0.34227	0.89147	-0.414
Mof_C 	C 	0.97053	0.55907	0.82287	0.192
Mof_O 	O 	0.88483	0.34057	0.88837	-0.059
Mof_C 	C 	0.07603	0.66247	0.77377	0.396
Mof_C 	C 	0.88313	0.52797	0.83747	0.315
Mof_H 	H 	0.89083	0.56447	0.84067	-0.092
Mof_H 	H 	0.85773	0.50277	0.84757	-0.242
Mof_H 	H 	0.86733	0.51777	0.82377	-0.076
Mof_O 	O 	0.23883	0.63817	0.82287	3.936
Mof_C 	C 	0.92343	0.47547	0.79847	-0.065
Mof_H 	H 	0.88763	0.47267	0.79907	0.05
Mof_H 	H 	0.92853	0.46657	0.78427	0.04
Mof_O 	O 	0.23753	0.62387	0.81667	-4.366
Mof_C 	C 	0.92333	0.43317	0.81293	-0.087
Mof_O 	O 	0.18463	0.68127	0.79347	-0.974
Mof_C 	C 	0.87353	0.39587	0.82177	-0.165
Mof_H 	H 	0.84243	0.39837	0.81877	0.054
Mof_O 	O 	0.17963	0.69237	0.79997	0.473
Mof_C 	C 	0.86893	0.35367	0.83553	-0.054
Mof_C 	C 	0.91653	0.35177	0.83987	-0.159
Mof_H 	H 	0.91443	0.32477	0.84877	0.123
Mof_C 	C 	0.96563	0.38807	0.83137	-0.074
Mof_C 	C 	0.97013	0.42777	0.81712	0.165
Mof_C 	C 	0.80983	0.31377	0.84347	0.137
Mof_C 	C 	0.02073	0.43757	0.78727	0.167
Mof_H 	H 	0.01313	0.40067	0.78967	-0.033
Mof_H 	H 	0.05693	0.45917	0.78157	-0.201
Mof_H 	H 	0.99423	0.43707	0.77767	-0.041
Mof_C 	C 	0.01573	0.38287	0.83627	-0.073
Mof_H 	H 	0.02443	0.36867	0.82387	0.04
Mof_H 	H 	0.00573	0.35547	0.84717	0.043
Mof_C 	C 	0.06853	0.43517	0.84317	-0.139
Mof_C 	C 	0.11973	0.45297	0.83427	-0.106
Mof_H 	H 	0.12133	0.43317	0.82297	0.01
Mof_C 	C 	0.16753	0.49667	0.84057	-0.18
Mof_C 	C 	0.16573	0.52807	0.85537	-0.076
Mof_H 	H 	0.19783	0.55997	0.85917	-0.011
Mof_C 	C 	0.11353	0.51387	0.86617	-0.191
Mof_C 	C 	0.06803	0.46697	0.85957	0.181
Mof_C 	C 	0.22443	0.51127	0.82807	0.343
Mof_C 	C 	0.01343	0.41427	0.88807	0.111
Mof_H 	H 	0.03293	0.39487	0.88567	-0.001
Mof_H 	H 	0.97513	0.38837	0.89007	-0.11
Mof_H 	H 	0.02773	0.43687	0.90027	-0.103
Mof_C 	C 	0.11363	0.54727	0.88407	0.067
Mof_H 	H 	0.14963	0.57997	0.88487	-0.006
Mof_H 	H 	0.10853	0.52637	0.89677	-0.002
Mof_C 	C 	0.07103	0.56497	0.88363	-0.222
Mof_C 	C 	0.03873	0.55587	0.90104	0.024
Mof_H 	H 	0.04423	0.53877	0.91247	-0.084
Mof_C 	C 	0.99833	0.57087	0.90267	-0.342
Mof_Rb	Rb	0.11691	0.80789	0.79505	1.921
Mof_C 	C 	0.99163	0.59647	0.88526	0.024
Mof_H 	H 	0.96453	0.60627	0.88547	-0.028
Mof_C 	C 	0.02403	0.60807	0.86742	-0.24
Mof_C 	C 	0.06093	0.59187	0.86707	0.213
Mof_C 	C 	0.96993	0.56017	0.92187	0.343
Mof_C 	C 	0.14713	0.66057	0.85097	0.364
Mof_H 	H 	0.13773	0.68887	0.84967	-0.11
Mof_H 	H 	0.17163	0.66387	0.83987	-0.345
Mof_H 	H 	0.16483	0.66417	0.86417	-0.114
Mof_C 	C 	0.01513	0.63677	0.84857	0.068
Mof_H 	H 	0.98193	0.63827	0.85107	0
Mof_H 	H 	0.04543	0.67437	0.84827	-0.021
Mof_Rb	Rb	0.0989	0.88614	0.14256	3.927
Mof_O 	O 	0.8135	0.54	0.1071	-0.724
Mof_C 	C 	0.9741	0.5528	0.06864	0.212
Mof_Rb	Rb	0.21128	0.79922	0.20662	3.139
Mof_O 	O 	0.782	0.4651	0.0932	-0.417
Mof_C 	C 	0.9707	0.5841	0.0847	-0.272
Mof_Rb	Rb	0.91443	0.45933	0.11973	3.656
Mof_O 	O 	0.0239	0.57	0.05788	-0.513
Mof_C 	C 	0.9235	0.5691	0.093	0.123
Mof_H 	H 	0.9222	0.5912	0.1036	-0.225
Mof_Rb	Rb	0.12477	0.56143	0.06157	2.582
Mof_O 	O 	0.0791	0.4646	0.0005	-0.87
Mof_C 	C 	0.872	0.5201	0.0872	-0.527
Mof_Rb	Rb	0.8551	0.6275	0.13378	1.901
Mof_O 	O 	0.1171	0.4276	0.0206	-0.472
Mof_C 	C 	0.8774	0.4888	0.07131	0.06
Mof_H 	H 	0.8466	0.4563	0.067	-0.021
Mof_O 	O 	0.9361	0.4143	0.08209	-0.589
Mof_C 	C 	0.929	0.5057	0.06142	-0.2
Mof_O 	O 	0.897	0.3235	0.1576	-0.317
Mof_C 	C 	0.8199	0.5061	0.0965	0.56
Mof_O 	O 	0.9462	0.4047	0.1771	-0.307
Mof_C 	C 	0.0324	0.6069	0.0407	0.072
Mof_H 	H 	0.0483	0.6438	0.0459	-0.028
Mof_H 	H 	0.0567	0.6049	0.0307	-0.118
Mof_H 	H 	0.9979	0.5966	0.0342	0.02
Mof_O 	O 	0.0969	0.4916	0.0993	-0.492
Mof_C 	C 	0.9304	0.4671	0.045	0.049
Mof_H 	H 	0.9367	0.4848	0.0315	0.017
Mof_H 	H 	0.8946	0.4342	0.0445	0.007
Mof_O 	O 	0.2629	0.7064	0.0971	-0.375
Mof_C 	C 	0.9728	0.4503	0.0482	-0.194
Mof_O 	O 	0.2326	0.7441	0.0758	-0.411
Mof_C 	C 	0.0068	0.4558	0.0331	0.051
Mof_H 	H 	0.0053	0.4719	0.0207	-0.097
Mof_O 	O 	0.0132	0.5638	0.12384	-0.728
Mof_C 	C 	0.0462	0.438	0.0352	-0.357
Mof_C 	C 	0.0478	0.4143	0.0543	0.03
Mof_H 	H 	0.0729	0.4023	0.0563	-0.024
Mof_C 	C 	0.0121	0.409	0.0701	-0.207
Mof_C 	C 	0.9727	0.4238	0.0675	0.26
Mof_C 	C 	0.0846	0.4449	0.0157	0.522
Mof_C 	C 	0.8892	0.3609	0.078	0.107
Mof_H 	H 	0.8942	0.3332	0.0847	-0.015
Mof_H 	H 	0.8566	0.3596	0.0832	-0.07
Mof_H 	H 	0.8857	0.3543	0.0632	0.003
Mof_O 	O 	0.808	0.378	0.1132	-0.454
Mof_C 	C 	0.0123	0.3802	0.0912	-0.058
Mof_H 	H 	0.043	0.3736	0.0906	0.038
Mof_H 	H 	0.9791	0.3444	0.0914	0.063
Mof_O 	O 	0.978	0.841	0.2973	-0.439
Mof_C 	C 	0.0156	0.4075	0.1114	-0.117
Mof_C 	C 	0.9778	0.3809	0.1256	-0.104
Mof_H 	H 	0.9488	0.3459	0.1227	0.041
Mof_C 	C 	0.9806	0.4039	0.1444	-0.171
Mof_C 	C 	0.0257	0.4628	0.1447	-0.202
Mof_H 	H 	0.0267	0.4805	0.1571	0.068
Mof_O 	O 	0.7674	0.6011	0.1274	-0.798
Mof_C 	C 	0.0626	0.4938	0.132	-0.055
Mof_O 	O 	0.89	0.7334	0.1555	-0.149
Mof_C 	C 	0.0607	0.4642	0.1139	0.136
Mof_O 	O 	0.8689	0.7239	0.1572	-0.339
Mof_C 	C 	0.9364	0.3699	0.1603	0.201
Mof_O 	O 	0.9539	0.7231	0.11022	-0.66
Mof_C 	C 	0.1439	0.4856	0.1041	0.043
Mof_H 	H 	0.1466	0.4617	0.0941	-0.033
Mof_H 	H 	0.1768	0.521	0.1037	-0.057
Mof_H 	H 	0.1397	0.4702	0.1178	0.031
Mof_O 	O 	0.0283	0.7703	0.0902	-0.23
Mof_C 	C 	0.1003	0.5488	0.1379	-0.05
Mof_H 	H 	0.0871	0.5573	0.1505	0.041
Mof_H 	H 	0.1354	0.5518	0.141	0.059
Mof_O 	O 	0.035	0.805	0.0897	-0.176
Mof_C 	C 	0.109	0.5924	0.1208	-0.189
Mof_O 	O 	0.1407	0.7397	0.17148	-0.589
Mof_C 	C 	0.1614	0.6329	0.1113	0.029
Mof_H 	H 	0.1931	0.6325	0.1152	-0.011
Mof_O 	O 	0.3523	0.7916	0.1691	-0.34
Mof_C 	C 	0.1658	0.6682	0.0981	-0.307
Mof_O 	O 	0.391	0.8548	0.1911	1.293
Mof_C 	C 	0.1261	0.6689	0.0924	0.073
Mof_H 	H 	0.1309	0.6949	0.0823	-0.037
Mof_O 	O 	0.39	0.8728	0.1889	-1.538
Mof_C 	C 	0.0683	0.6311	0.1	-0.259
Mof_O 	O 	0.2052	0.8891	0.14028	-0.627
Mof_C 	C 	0.0631	0.596	0.1149	0.291
Mof_O 	O 	0.185	0.0741	0.148	-0.346
Mof_C 	C 	0.2262	0.7126	0.0896	0.346
Mof_O 	O 	0.1111	0.0435	0.1712	-0.379
Mof_C 	C 	0.0074	0.5923	0.1406	0.5
Mof_H 	H 	0.0193	0.6294	0.1365	-0.161
Mof_H 	H 	0.9695	0.5746	0.1447	-0.313
Mof_H 	H 	0.0293	0.5924	0.1521	-0.16
Mof_O 	O 	0.2178	0.9045	0.20338	-0.581
Mof_C 	C 	0.0218	0.6373	0.0918	0.122
Mof_H 	H 	0.0108	0.6541	0.1026	-0.048
Mof_H 	H 	0.0351	0.6624	0.08	-0.024
Mof_O 	O 	0.1189	0.7706	0.2717	-0.454
Mof_C 	C 	0.0535	0.7308	0.161	-0.199
Mof_O 	O 	0.0996	0.6928	0.2552	-0.384
Mof_C 	C 	0.0209	0.7317	0.145	0.014
Mof_H 	H 	0.9842	0.7202	0.1476	-0.129
Mof_O 	O 	0.0605	0.8239	0.18313	-0.608
Mof_C 	C 	0.0417	0.7495	0.1249	-0.337
Mof_C 	C 	0.0984	0.7669	0.1208	-0.061
Mof_H 	H 	0.1127	0.7793	0.1076	-0.005
Mof_C 	C 	0.1319	0.7655	0.13619	-0.145
Mof_O 	O 	0.3244	0.8522	0.2248	-0.41
Mof_C 	C 	0.1076	0.7448	0.1562	0.17
Mof_O 	O 	0.3261	0.8776	0.2217	-0.063
Mof_C 	C 	0.0042	0.7469	0.1071	0.368
Mof_C 	C 	0.1387	0.6885	0.1708	0.312
Mof_H 	H 	0.1022	0.6597	0.174	-0.094
Mof_H 	H 	0.1639	0.6883	0.1809	-0.24
Mof_H 	H 	0.1489	0.6829	0.1571	-0.075
Mof_O 	O 	0.0285	0.934	0.1562	3.896
Mof_C 	C 	0.1912	0.7813	0.1318	-0.045
Mof_H 	H 	0.194	0.7483	0.1324	0.044
Mof_H 	H 	0.2001	0.7953	0.1176	0.033
Mof_O 	O 	0.0428	0.947	0.15	-4.343
Mof_C 	C 	0.2335	0.8235	0.14626	-0.097
Mof_O 	O 	0.9854	0.8367	0.1268	-0.941
Mof_C 	C 	0.2708	0.811	0.1551	-0.153
Mof_H 	H 	0.2683	0.7774	0.1521	0.05
Mof_O 	O 	0.9743	0.8206	0.1333	0.453
Mof_C 	C 	0.313	0.8486	0.16886	-0.068
Mof_C 	C 	0.3149	0.8981	0.1732	-0.135
Mof_H 	H 	0.3419	0.923	0.1821	0.108
Mof_C 	C 	0.2786	0.9109	0.1647	-0.11
Mof_C 	C 	0.2389	0.8757	0.15045	0.165
Mof_C 	C 	0.3529	0.8294	0.1768	0.145
Mof_C 	C 	0.2291	0.9165	0.1206	0.251
Mof_H 	H 	0.266	0.9458	0.123	-0.054
Mof_H 	H 	0.2075	0.9311	0.1149	-0.227
Mof_H 	H 	0.2296	0.8905	0.111	-0.08
Mof_C 	C 	0.2838	0.9662	0.1696	-0.02
Mof_H 	H 	0.298	0.9891	0.1572	0.023
Mof_H 	H 	0.3112	0.9836	0.1805	0.028
Mof_C 	C 	0.2315	0.9667	0.1765	-0.178
Mof_C 	C 	0.2137	0.0001	0.1676	-0.07
Mof_H 	H 	0.2335	0.0215	0.1563	0.005
Mof_C 	C 	0.17	0.0042	0.1739	-0.164
Mof_C 	C 	0.1386	0.971	0.1887	-0.1
Mof_H 	H 	0.1067	0.9712	0.1925	-0.01
Mof_C 	C 	0.1528	0.933	0.1995	-0.196
Mof_C 	C 	0.1997	0.9344	0.1929	0.198
Mof_C 	C 	0.1554	0.0465	0.1614	0.343
Mof_C 	C 	0.2524	0.9325	0.2214	0.215
Mof_H 	H 	0.2718	0.9714	0.219	-0.036
Mof_H 	H 	0.2783	0.9201	0.2234	-0.155
Mof_H 	H 	0.2298	0.9242	0.2336	-0.133
Mof_C 	C 	0.1194	0.8997	0.2174	0.074
Mof_H 	H 	0.0867	0.903	0.2182	-0.011
Mof_H 	H 	0.1403	0.9155	0.2301	-0.006
Mof_C 	C 	0.1017	0.8394	0.21696	-0.225
Mof_C 	C 	0.1108	0.8162	0.23437	0.052
Mof_H 	H 	0.1279	0.8388	0.2458	-0.09
Mof_C 	C 	0.0958	0.7608	0.236	-0.36
Mof_Rb	Rb	0.85878	0.64236	0.12838	1.937
Mof_C 	C 	0.0702	0.7285	0.21859	-0.006
Mof_H 	H 	0.0604	0.6916	0.2188	-0.024
Mof_C 	C 	0.0586	0.7493	0.20075	-0.206
Mof_C 	C 	0.0748	0.8024	0.2004	0.2
Mof_C 	C 	0.1065	0.7431	0.2552	0.347
Mof_C 	C 	0.0061	0.8199	0.1843	0.277
Mof_H 	H 	0.9778	0.7822	0.183	-0.071
Mof_H 	H 	0.0028	0.8411	0.1732	-0.324
Mof_H 	H 	0.0025	0.834	0.1975	-0.095
Mof_C 	C 	0.0299	0.7117	0.1819	0.033
Mof_H 	H 	0.0284	0.677	0.1844	-0.009
Mof_H 	H 	0.9923	0.7044	0.1816	0.003
Mof_Rb	Rb	0.76557	0.21947	0.47589	3.994
Mof_O 	O 	0.48017	0.87333	0.44043	-0.72
Mof_C 	C 	0.64077	0.88613	0.40197	0.215
Mof_Rb	Rb	0.87795	0.13255	0.53995	3.168
Mof_O 	O 	0.44867	0.79843	0.42653	-0.417
Mof_C 	C 	0.63737	0.91743	0.41803	-0.308
Mof_Rb	Rb	0.5811	0.79266	0.45306	3.626
Mof_O 	O 	0.69057	0.90333	0.39121	-0.517
Mof_C 	C 	0.59017	0.90243	0.42633	0.143
Mof_H 	H 	0.58887	0.92453	0.43693	-0.234
Mof_Rb	Rb	0.79144	0.89476	0.3949	2.573
Mof_O 	O 	0.74577	0.79793	0.33383	-0.879
Mof_C 	C 	0.53867	0.85343	0.42053	-0.535
Mof_Rb	Rb	0.52177	0.96083	0.46711	1.854
Mof_O 	O 	0.78377	0.76093	0.35393	-0.472
Mof_C 	C 	0.54407	0.82213	0.40464	0.07
Mof_H 	H 	0.51327	0.78963	0.40033	-0.023
Mof_O 	O 	0.60277	0.74763	0.41542	-0.588
Mof_C 	C 	0.59567	0.83903	0.39475	-0.21
Mof_O 	O 	0.56367	0.65683	0.49093	-0.319
Mof_C 	C 	0.48657	0.83943	0.42983	0.562
Mof_O 	O 	0.61287	0.73803	0.51043	-0.313
Mof_C 	C 	0.69907	0.94023	0.37403	0.168
Mof_H 	H 	0.71497	0.97713	0.37923	-0.058
Mof_H 	H 	0.72337	0.93823	0.36403	-0.146
Mof_H 	H 	0.66457	0.92993	0.36753	-0.023
Mof_O 	O 	0.76357	0.82493	0.43263	-0.49
Mof_C 	C 	0.59707	0.80043	0.37833	0.071
Mof_H 	H 	0.60337	0.81813	0.36483	0.007
Mof_H 	H 	0.56127	0.76753	0.37783	0.001
Mof_O 	O 	0.92957	0.03973	0.43043	-0.362
Mof_C 	C 	0.63947	0.78363	0.38153	-0.229
Mof_O 	O 	0.89927	0.07743	0.40913	-0.404
Mof_C 	C 	0.67347	0.78913	0.36643	0.096
Mof_H 	H 	0.67197	0.80523	0.35403	-0.106
Mof_O 	O 	0.67987	0.89713	0.45717	-0.737
Mof_C 	C 	0.71287	0.77133	0.36853	-0.367
Mof_C 	C 	0.71447	0.74763	0.38763	0.036
Mof_H 	H 	0.73957	0.73563	0.38963	-0.024
Mof_C 	C 	0.67877	0.74233	0.40343	-0.194
Mof_C 	C 	0.63937	0.75713	0.40083	0.249
Mof_C 	C 	0.75127	0.77823	0.34903	0.531
Mof_C 	C 	0.55587	0.69423	0.41133	0.105
Mof_H 	H 	0.56087	0.66653	0.41803	-0.015
Mof_H 	H 	0.52327	0.69293	0.41653	-0.069
Mof_H 	H 	0.55237	0.68763	0.39653	0.004
Mof_O 	O 	0.47467	0.71133	0.44653	-0.451
Mof_C 	C 	0.67897	0.71353	0.42453	-0.032
Mof_H 	H 	0.70967	0.70693	0.42393	0.033
Mof_H 	H 	0.64577	0.67773	0.42473	0.043
Mof_O 	O 	0.64467	0.17433	0.63063	-0.447
Mof_C 	C 	0.68227	0.74083	0.44473	-0.096
Mof_C 	C 	0.64447	0.71423	0.45893	-0.129
Mof_H 	H 	0.61547	0.67923	0.45603	0.048
Mof_C 	C 	0.64727	0.73723	0.47773	-0.184
Mof_C 	C 	0.69237	0.79613	0.47803	-0.176
Mof_H 	H 	0.69337	0.81383	0.49043	0.066
Mof_O 	O 	0.43407	0.93443	0.46073	-0.794
Mof_C 	C 	0.72927	0.82713	0.46533	-0.06
Mof_O 	O 	0.55667	0.06673	0.48883	-0.103
Mof_C 	C 	0.72737	0.79753	0.44723	0.135
Mof_O 	O 	0.53557	0.05723	0.49053	-0.373
Mof_C 	C 	0.60307	0.70323	0.49363	0.202
Mof_O 	O 	0.62057	0.05643	0.44355	-0.672
Mof_C 	C 	0.81057	0.81893	0.43743	0.041
Mof_H 	H 	0.81327	0.79503	0.42743	-0.032
Mof_H 	H 	0.84347	0.85433	0.43703	-0.057
Mof_H 	H 	0.80637	0.80353	0.45113	0.032
Mof_O 	O 	0.69497	0.10363	0.42353	-0.236
Mof_C 	C 	0.76697	0.88213	0.47123	-0.049
Mof_H 	H 	0.75377	0.89063	0.48383	0.042
Mof_H 	H 	0.80207	0.88513	0.47433	0.059
Mof_O 	O 	0.70167	0.13833	0.42303	-0.163
Mof_C 	C 	0.77567	0.92573	0.45413	-0.186
Mof_O 	O 	0.80737	0.07303	0.50481	-0.612
Mof_C 	C 	0.82807	0.96623	0.44463	-0.006
Mof_H 	H 	0.85977	0.96583	0.44853	-0.004
Mof_O 	O 	0.01897	0.12493	0.50243	-0.341
Mof_C 	C 	0.83247	0.00153	0.43143	-0.279
Mof_O 	O 	0.05767	0.18813	0.52443	1.224
Mof_C 	C 	0.79277	0.00223	0.42573	0.088
Mof_H 	H 	0.79757	0.02823	0.41563	-0.036
Mof_O 	O 	0.05667	0.20613	0.52223	-1.47
Mof_C 	C 	0.73497	0.96443	0.43333	-0.286
Mof_O 	O 	0.87187	0.22243	0.47361	-0.63
Mof_C 	C 	0.72977	0.92933	0.44823	0.302
Mof_O 	O 	0.85167	0.40743	0.48133	-0.348
Mof_C 	C 	0.89287	0.04593	0.42293	0.339
Mof_O 	O 	0.77777	0.37683	0.50453	-0.381
Mof_C 	C 	0.67407	0.92563	0.47393	0.598
Mof_H 	H 	0.68597	0.96273	0.46983	-0.191
Mof_H 	H 	0.63617	0.90793	0.47803	-0.354
Mof_H 	H 	0.69597	0.92573	0.48543	-0.186
Mof_O 	O 	0.88447	0.23783	0.53671	-0.579
Mof_C 	C 	0.68847	0.97063	0.42513	0.169
Mof_H 	H 	0.67747	0.98743	0.43593	-0.06
Mof_H 	H 	0.70177	0.99573	0.41333	-0.039
Mof_O 	O 	0.78557	0.10393	0.60503	-0.452
Mof_C 	C 	0.72017	0.06413	0.49433	-0.239
Mof_O 	O 	0.76627	0.02613	0.58853	-0.372
Mof_C 	C 	0.68757	0.06503	0.47833	0.088
Mof_H 	H 	0.65087	0.05353	0.48093	-0.162
Mof_O 	O 	0.72717	0.15723	0.51646	-0.628
Mof_C 	C 	0.70837	0.08283	0.45823	-0.369
Mof_C 	C 	0.76507	0.10023	0.45413	-0.038
Mof_H 	H 	0.77937	0.11263	0.44093	-0.012
Mof_C 	C 	0.79857	0.09883	0.46952	-0.163
Mof_O 	O 	0.99107	0.18553	0.55813	-0.402
Mof_C 	C 	0.77427	0.07813	0.48953	0.197
Mof_O 	O 	0.99277	0.21093	0.55503	-0.059
Mof_C 	C 	0.67087	0.08023	0.44043	0.409
Mof_C 	C 	0.80537	0.02183	0.50413	0.401
Mof_H 	H 	0.76887	0.99303	0.50733	-0.134
Mof_H 	H 	0.83057	0.02163	0.51423	-0.261
Mof_H 	H 	0.81557	0.01623	0.49043	-0.095
Mof_O 	O 	0.69517	0.26733	0.48953	3.949
Mof_C 	C 	0.85787	0.11463	0.46513	-0.033
Mof_H 	H 	0.86067	0.08163	0.46573	0.043
Mof_H 	H 	0.86677	0.12863	0.45093	0.029
Mof_O 	O 	0.70947	0.28033	0.48333	-4.381
Mof_C 	C 	0.90017	0.15683	0.47959	-0.104
Mof_O 	O 	0.65207	0.17003	0.46013	-0.976
Mof_C 	C 	0.93747	0.14433	0.48843	-0.15
Mof_H 	H 	0.93497	0.11073	0.48543	0.054
Mof_O 	O 	0.64097	0.15393	0.46663	0.473
Mof_C 	C 	0.97967	0.18193	0.50219	-0.069
Mof_C 	C 	0.98157	0.23143	0.50653	-0.098
Mof_H 	H 	0.00857	0.25633	0.51543	0.08
Mof_C 	C 	0.94527	0.24423	0.49803	-0.118
Mof_C 	C 	0.90557	0.20903	0.48378	0.169
Mof_C 	C 	0.01957	0.16273	0.51013	0.136
Mof_C 	C 	0.89577	0.24983	0.45393	0.242
Mof_H 	H 	0.93267	0.27913	0.45633	-0.045
Mof_H 	H 	0.87417	0.26443	0.44823	-0.221
Mof_H 	H 	0.89627	0.22383	0.44433	-0.077
Mof_C 	C 	0.95047	0.29953	0.50293	-0.035
Mof_H 	H 	0.96467	0.32243	0.49053	0.038
Mof_H 	H 	0.97787	0.31693	0.51383	0.043
Mof_C 	C 	0.89817	0.30003	0.50983	-0.151
Mof_C 	C 	0.88037	0.33343	0.50093	-0.099
Mof_H 	H 	0.90017	0.35483	0.48963	0.01
Mof_C 	C 	0.83667	0.33753	0.50723	-0.185
Mof_C 	C 	0.80527	0.30433	0.52203	-0.071
Mof_H 	H 	0.77337	0.30453	0.52583	-0.013
Mof_C 	C 	0.81947	0.26633	0.53283	-0.199
Mof_C 	C 	0.86637	0.26773	0.52623	0.193
Mof_C 	C 	0.82207	0.37983	0.49473	0.344
Mof_C 	C 	0.91907	0.26583	0.55473	0.196
Mof_H 	H 	0.93847	0.30473	0.55233	-0.022
Mof_H 	H 	0.94497	0.25343	0.55673	-0.146
Mof_H 	H 	0.89647	0.25753	0.56693	-0.124
Mof_C 	C 	0.78607	0.23303	0.55073	0.078
Mof_H 	H 	0.75337	0.23633	0.55153	-0.009
Mof_H 	H 	0.80697	0.24883	0.56343	-0.005
Mof_C 	C 	0.76837	0.17273	0.55029	-0.233
Mof_C 	C 	0.77747	0.14953	0.5677	0.058
Mof_H 	H 	0.79457	0.17213	0.57913	-0.092
Mof_C 	C 	0.76247	0.09413	0.56933	-0.365
Mof_Rb	Rb	0.52545	0.97569	0.46171	1.917
Mof_C 	C 	0.73687	0.06183	0.55192	0.007
Mof_H 	H 	0.72707	0.02493	0.55213	-0.02
Mof_C 	C 	0.72527	0.08263	0.53408	-0.224
Mof_C 	C 	0.74147	0.13573	0.53373	0.217
Mof_C 	C 	0.77317	0.07643	0.58853	0.349
Mof_C 	C 	0.67277	0.15323	0.51763	0.365
Mof_H 	H 	0.64447	0.11553	0.51633	-0.11
Mof_H 	H 	0.66947	0.17443	0.50653	-0.347
Mof_H 	H 	0.66917	0.16733	0.53083	-0.115
Mof_C 	C 	0.69657	0.04503	0.51523	0.099
Mof_H 	H 	0.69507	0.01033	0.51773	-0.015
Mof_H 	H 	0.65897	0.03773	0.51493	-0.023
Mof_Rb	Rb	0.43223	0.55281	0.80923	3.997
Mof_O 	O 	0.14683	0.20667	0.77377	-0.727
Mof_C 	C 	0.30743	0.21947	0.73531	0.212
Mof_Rb	Rb	0.54461	0.46589	0.87329	3.139
Mof_O 	O 	0.11533	0.13177	0.75987	-0.42
Mof_C 	C 	0.30403	0.25077	0.75137	-0.302
Mof_Rb	Rb	0.24776	0.126	0.7864	3.635
Mof_O 	O 	0.35723	0.23667	0.72455	-0.516
Mof_C 	C 	0.25683	0.23577	0.75967	0.142
Mof_H 	H 	0.25553	0.25787	0.77027	-0.235
Mof_Rb	Rb	0.4581	0.2281	0.72824	2.594
Mof_O 	O 	0.41243	0.13127	0.66717	-0.878
Mof_C 	C 	0.20533	0.18677	0.75387	-0.536
Mof_Rb	Rb	0.18843	0.29417	0.80045	1.905
Mof_O 	O 	0.45043	0.09427	0.68727	-0.471
Mof_C 	C 	0.21073	0.15547	0.73798	0.069
Mof_H 	H 	0.17993	0.12297	0.73367	-0.022
Mof_O 	O 	0.26943	0.08097	0.74876	-0.604
Mof_C 	C 	0.26233	0.17237	0.72809	-0.209
Mof_O 	O 	0.23033	0.99017	0.82427	-0.344
Mof_C 	C 	0.15323	0.17277	0.76317	0.565
Mof_O 	O 	0.27953	0.07137	0.84377	-0.313
Mof_C 	C 	0.36573	0.27357	0.70737	0.159
Mof_H 	H 	0.38163	0.31047	0.71257	-0.05
Mof_H 	H 	0.39003	0.27157	0.69737	-0.141
Mof_H 	H 	0.33123	0.26327	0.70087	-0.018
Mof_O 	O 	0.43023	0.15827	0.76597	-0.493
Mof_C 	C 	0.26373	0.13377	0.71167	0.07
Mof_H 	H 	0.27003	0.15147	0.69817	0.007
Mof_H 	H 	0.22793	0.10087	0.71117	0.003
Mof_O 	O 	0.59623	0.37307	0.76377	-0.376
Mof_C 	C 	0.30613	0.11697	0.71487	-0.23
Mof_O 	O 	0.56593	0.41077	0.74247	-0.412
Mof_C 	C 	0.34013	0.12247	0.69977	0.095
Mof_H 	H 	0.33863	0.13857	0.68737	-0.107
Mof_O 	O 	0.34653	0.23047	0.79051	-0.737
Mof_C 	C 	0.37953	0.10467	0.70187	-0.367
Mof_C 	C 	0.38113	0.08097	0.72097	0.037
Mof_H 	H 	0.40623	0.06897	0.72297	-0.022
Mof_C 	C 	0.34543	0.07567	0.73677	-0.192
Mof_C 	C 	0.30603	0.09047	0.73417	0.255
Mof_C 	C 	0.41793	0.11157	0.68237	0.531
Mof_C 	C 	0.22253	0.02757	0.74467	0.197
Mof_H 	H 	0.22753	0.99987	0.75137	-0.059
Mof_H 	H 	0.18993	0.02627	0.74987	-0.092
Mof_H 	H 	0.21903	0.02097	0.72987	-0.018
Mof_O 	O 	0.14133	0.04467	0.77987	-0.449
Mof_C 	C 	0.34563	0.04687	0.75787	-0.036
Mof_H 	H 	0.37633	0.04027	0.75727	0.037
Mof_H 	H 	0.31243	0.01107	0.75807	0.052
Mof_O 	O 	0.31133	0.50767	0.96397	-0.445
Mof_C 	C 	0.34893	0.07417	0.77807	-0.096
Mof_C 	C 	0.31113	0.04757	0.79227	-0.125
Mof_H 	H 	0.28213	0.01257	0.78937	0.053
Mof_C 	C 	0.31393	0.07057	0.81107	-0.191
Mof_C 	C 	0.35903	0.12947	0.81137	-0.17
Mof_H 	H 	0.36003	0.14717	0.82377	0.064
Mof_O 	O 	0.10073	0.26777	0.79407	-0.802
Mof_C 	C 	0.39593	0.16047	0.79867	-0.067
Mof_O 	O 	0.22333	0.40007	0.82217	-0.142
Mof_C 	C 	0.39403	0.13087	0.78057	0.138
Mof_O 	O 	0.20223	0.39057	0.82387	-0.347
Mof_C 	C 	0.26973	0.03657	0.82697	0.23
Mof_O 	O 	0.28723	0.38977	0.77689	-0.684
Mof_C 	C 	0.47723	0.15227	0.77077	0.043
Mof_H 	H 	0.47993	0.12837	0.76077	-0.033
Mof_H 	H 	0.51013	0.18767	0.77037	-0.057
Mof_H 	H 	0.47303	0.13687	0.78447	0.032
Mof_O 	O 	0.36163	0.43697	0.75687	-0.241
Mof_C 	C 	0.43363	0.21547	0.80457	-0.039
Mof_H 	H 	0.42043	0.22397	0.81717	0.04
Mof_H 	H 	0.46873	0.21847	0.80767	0.056
Mof_O 	O 	0.36833	0.47167	0.75637	-0.161
Mof_C 	C 	0.44233	0.25907	0.78747	-0.197
Mof_O 	O 	0.47403	0.40637	0.83815	-0.595
Mof_C 	C 	0.49473	0.29957	0.77797	0.037
Mof_H 	H 	0.52643	0.29917	0.78187	-0.014
Mof_O 	O 	0.68563	0.45827	0.83577	-0.34
Mof_C 	C 	0.49913	0.33487	0.76477	-0.316
Mof_O 	O 	0.72433	0.52147	0.85777	1.341
Mof_C 	C 	0.45943	0.33557	0.75907	0.083
Mof_H 	H 	0.46423	0.36157	0.74897	-0.039
Mof_O 	O 	0.72333	0.53947	0.85557	-1.582
Mof_C 	C 	0.40163	0.29777	0.76667	-0.271
Mof_O 	O 	0.53853	0.55577	0.80695	-0.629
Mof_C 	C 	0.39643	0.26267	0.78157	0.303
Mof_O 	O 	0.51833	0.74077	0.81467	-0.348
Mof_C 	C 	0.55953	0.37927	0.75627	0.349
Mof_O 	O 	0.44443	0.71017	0.83787	-0.381
Mof_C 	C 	0.34073	0.25897	0.80727	0.592
Mof_H 	H 	0.35263	0.29607	0.80317	-0.185
Mof_H 	H 	0.30283	0.24127	0.81137	-0.352
Mof_H 	H 	0.36263	0.25907	0.81877	-0.183
Mof_O 	O 	0.55113	0.57117	0.87005	-0.578
Mof_C 	C 	0.35513	0.30397	0.75847	0.157
Mof_H 	H 	0.34413	0.32077	0.76927	-0.052
Mof_H 	H 	0.36843	0.32907	0.74667	-0.029
Mof_O 	O 	0.45223	0.43727	0.93837	-0.454
Mof_C 	C 	0.38683	0.39747	0.82767	-0.246
Mof_O 	O 	0.43293	0.35947	0.92187	-0.381
Mof_C 	C 	0.35423	0.39837	0.81167	0.091
Mof_H 	H 	0.31753	0.38687	0.81427	-0.168
Mof_O 	O 	0.39383	0.49057	0.8498	-0.629
Mof_C 	C 	0.37503	0.41617	0.79157	-0.375
Mof_C 	C 	0.43173	0.43357	0.78747	-0.038
Mof_H 	H 	0.44603	0.44597	0.77427	-0.013
Mof_C 	C 	0.46523	0.43217	0.80286	-0.163
Mof_O 	O 	0.65773	0.51887	0.89147	-0.413
Mof_C 	C 	0.44093	0.41147	0.82287	0.191
Mof_O 	O 	0.65943	0.54427	0.88837	-0.058
Mof_C 	C 	0.33753	0.41357	0.77377	0.411
Mof_C 	C 	0.47203	0.35517	0.83747	0.313
Mof_H 	H 	0.43553	0.32637	0.84067	-0.092
Mof_H 	H 	0.49723	0.35497	0.84757	-0.24
Mof_H 	H 	0.48223	0.34957	0.82377	-0.075
Mof_O 	O 	0.36183	0.60067	0.82287	3.951
Mof_C 	C 	0.52453	0.44797	0.79847	-0.036
Mof_H 	H 	0.52733	0.41497	0.79907	0.042
Mof_H 	H 	0.53343	0.46197	0.78427	0.031
Mof_O 	O 	0.37613	0.61367	0.81667	-4.383
Mof_C 	C 	0.56683	0.49017	0.81293	-0.098
Mof_O 	O 	0.31873	0.50337	0.79347	-0.978
Mof_C 	C 	0.60413	0.47767	0.82177	-0.155
Mof_H 	H 	0.60163	0.44407	0.81877	0.051
Mof_O 	O 	0.30763	0.48727	0.79997	0.475
Mof_C 	C 	0.64633	0.51527	0.83553	-0.061
Mof_C 	C 	0.64823	0.56477	0.83987	-0.144
Mof_H 	H 	0.67523	0.58967	0.84877	0.115
Mof_C 	C 	0.61193	0.57757	0.83137	-0.1
Mof_C 	C 	0.57223	0.54237	0.81712	0.162
Mof_C 	C 	0.68623	0.49607	0.84347	0.14
Mof_C 	C 	0.56243	0.58317	0.78727	0.243
Mof_H 	H 	0.59933	0.61247	0.78967	-0.048
Mof_H 	H 	0.54083	0.59777	0.78157	-0.222
Mof_H 	H 	0.56293	0.55717	0.77767	-0.076
Mof_C 	C 	0.61713	0.63287	0.83627	-0.043
Mof_H 	H 	0.63133	0.65577	0.82387	0.036
Mof_H 	H 	0.64453	0.65027	0.84717	0.041
Mof_C 	C 	0.56483	0.63337	0.84317	-0.149
Mof_C 	C 	0.54703	0.66677	0.83427	-0.1
Mof_H 	H 	0.56683	0.68817	0.82297	0.009
Mof_C 	C 	0.50333	0.67087	0.84057	-0.185
Mof_C 	C 	0.47193	0.63767	0.85537	-0.071
Mof_H 	H 	0.44003	0.63787	0.85917	-0.013
Mof_C 	C 	0.48613	0.59967	0.86617	-0.199
Mof_C 	C 	0.53303	0.60107	0.85957	0.192
Mof_C 	C 	0.48873	0.71317	0.82807	0.344
Mof_C 	C 	0.58573	0.59917	0.88807	0.201
Mof_H 	H 	0.60513	0.63807	0.88567	-0.025
Mof_H 	H 	0.61163	0.58677	0.89007	-0.15
Mof_H 	H 	0.56313	0.59087	0.90027	-0.126
Mof_C 	C 	0.45273	0.56637	0.88407	0.079
Mof_H 	H 	0.42003	0.56967	0.88487	-0.009
Mof_H 	H 	0.47363	0.58217	0.89677	-0.005
Mof_C 	C 	0.43503	0.50607	0.88363	-0.235
Mof_C 	C 	0.44413	0.48287	0.90104	0.062
Mof_H 	H 	0.46123	0.50547	0.91247	-0.093
Mof_C 	C 	0.42913	0.42747	0.90267	-0.369
Mof_Rb	Rb	0.19211	0.30903	0.79505	1.939
Mof_C 	C 	0.40353	0.39517	0.88526	0.013
Mof_H 	H 	0.39373	0.35827	0.88547	-0.026
Mof_C 	C 	0.39193	0.41597	0.86742	-0.232
Mof_C 	C 	0.40813	0.46907	0.86707	0.221
Mof_C 	C 	0.43983	0.40977	0.92187	0.352
Mof_C 	C 	0.33943	0.48657	0.85097	0.367
Mof_H 	H 	0.31113	0.44887	0.84967	-0.111
Mof_H 	H 	0.33613	0.50777	0.83987	-0.347
Mof_H 	H 	0.33583	0.50067	0.86417	-0.115
Mof_C 	C 	0.36323	0.37837	0.84857	0.11
Mof_H 	H 	0.36173	0.34367	0.85107	-0.025
Mof_H 	H 	0.32563	0.37107	0.84827	-0.032
Mof_Rb	Rb	0.11386	0.21276	0.14256	3.98
Mof_O 	O 	0.46	0.2735	0.1071	-0.726
Mof_C 	C 	0.4472	0.4213	0.06864	0.213
Mof_Rb	Rb	0.20078	0.41206	0.20662	3.141
Mof_O 	O 	0.5349	0.3169	0.0932	-0.419
Mof_C 	C 	0.4159	0.3866	0.0847	-0.302
Mof_Rb	Rb	0.54067	0.4551	0.11973	3.624
Mof_O 	O 	0.43	0.4539	0.05788	-0.516
Mof_C 	C 	0.4309	0.3544	0.093	0.142
Mof_H 	H 	0.4088	0.331	0.1036	-0.235
Mof_Rb	Rb	0.43857	0.56334	0.06157	2.596
Mof_O 	O 	0.5354	0.6145	0.0005	-0.878
Mof_C 	C 	0.4799	0.3519	0.0872	-0.535
Mof_Rb	Rb	0.3725	0.2276	0.13378	1.906
Mof_O 	O 	0.5724	0.6895	0.0206	-0.473
Mof_C 	C 	0.5112	0.3886	0.07131	0.07
Mof_H 	H 	0.5437	0.3903	0.067	-0.023
Mof_O 	O 	0.5857	0.5218	0.08209	-0.588
Mof_C 	C 	0.4943	0.4233	0.06142	-0.21
Mof_O 	O 	0.6765	0.5735	0.1576	-0.319
Mof_C 	C 	0.4939	0.3138	0.0965	0.565
Mof_O 	O 	0.5953	0.5415	0.1771	-0.313
Mof_C 	C 	0.3931	0.4255	0.0407	0.158
Mof_H 	H 	0.3562	0.4045	0.0459	-0.049
Mof_H 	H 	0.3951	0.4518	0.0307	-0.141
Mof_H 	H 	0.4034	0.4013	0.0342	-0.018
Mof_O 	O 	0.5084	0.6053	0.0993	-0.493
Mof_C 	C 	0.5329	0.4633	0.045	0.07
Mof_H 	H 	0.5152	0.4519	0.0315	0.007
Mof_H 	H 	0.5658	0.4604	0.0445	0.001
Mof_O 	O 	0.2936	0.5565	0.0971	-0.375
Mof_C 	C 	0.5497	0.5225	0.0482	-0.229
Mof_O 	O 	0.2559	0.4885	0.0758	-0.412
Mof_C 	C 	0.5442	0.551	0.0331	0.095
Mof_H 	H 	0.5281	0.5334	0.0207	-0.106
Mof_O 	O 	0.4362	0.4494	0.12384	-0.736
Mof_C 	C 	0.562	0.6082	0.0352	-0.368
Mof_C 	C 	0.5857	0.6335	0.0543	0.036
Mof_H 	H 	0.5977	0.6706	0.0563	-0.025
Mof_C 	C 	0.591	0.6031	0.0701	-0.195
Mof_C 	C 	0.5762	0.5489	0.0675	0.249
Mof_C 	C 	0.5551	0.6397	0.0157	0.531
Mof_C 	C 	0.6391	0.5283	0.078	0.106
Mof_H 	H 	0.6668	0.561	0.0847	-0.015
Mof_H 	H 	0.6404	0.497	0.0832	-0.069
Mof_H 	H 	0.6457	0.5314	0.0632	0.004
Mof_O 	O 	0.622	0.43	0.1132	-0.452
Mof_C 	C 	0.6198	0.6321	0.0912	-0.031
Mof_H 	H 	0.6264	0.6694	0.0906	0.032
Mof_H 	H 	0.6556	0.6347	0.0914	0.043
Mof_O 	O 	0.159	0.137	0.2973	-0.446
Mof_C 	C 	0.5925	0.6081	0.1114	-0.098
Mof_C 	C 	0.6191	0.5969	0.1256	-0.127
Mof_H 	H 	0.6541	0.6029	0.1227	0.047
Mof_C 	C 	0.5961	0.5767	0.1444	-0.186
Mof_C 	C 	0.5372	0.5629	0.1447	-0.173
Mof_H 	H 	0.5195	0.5462	0.1571	0.065
Mof_O 	O 	0.3989	0.1663	0.1274	-0.799
Mof_C 	C 	0.5062	0.5688	0.132	-0.065
Mof_O 	O 	0.2666	0.1566	0.1555	-0.133
Mof_C 	C 	0.5358	0.5965	0.1139	0.138
Mof_O 	O 	0.2761	0.145	0.1572	-0.355
Mof_C 	C 	0.6301	0.5665	0.1603	0.203
Mof_O 	O 	0.2769	0.2308	0.11022	-0.684
Mof_C 	C 	0.5144	0.6583	0.1041	0.043
Mof_H 	H 	0.5383	0.6849	0.0941	-0.034
Mof_H 	H 	0.479	0.6558	0.1037	-0.058
Mof_H 	H 	0.5298	0.6695	0.1178	0.031
Mof_O 	O 	0.2297	0.258	0.0902	-0.241
Mof_C 	C 	0.4512	0.5515	0.1379	-0.04
Mof_H 	H 	0.4427	0.5298	0.1505	0.04
Mof_H 	H 	0.4482	0.5836	0.141	0.057
Mof_O 	O 	0.195	0.23	0.0897	-0.162
Mof_C 	C 	0.4076	0.5166	0.1208	-0.196
Mof_O 	O 	0.2603	0.401	0.17148	-0.595
Mof_C 	C 	0.3671	0.5285	0.1113	0.037
Mof_H 	H 	0.3675	0.5606	0.1152	-0.014
Mof_O 	O 	0.2084	0.5607	0.1691	-0.34
Mof_C 	C 	0.3318	0.4976	0.0981	-0.316
Mof_O 	O 	0.1452	0.5362	0.1911	1.296
Mof_C 	C 	0.3311	0.4572	0.0924	0.083
Mof_H 	H 	0.3051	0.436	0.0823	-0.039
Mof_O 	O 	0.1272	0.5172	0.1889	-1.542
Mof_C 	C 	0.3689	0.4372	0.1	-0.271
Mof_O 	O 	0.1109	0.3161	0.14028	-0.632
Mof_C 	C 	0.404	0.4671	0.1149	0.303
Mof_O 	O 	0.9259	0.1109	0.148	-0.341
Mof_C 	C 	0.2874	0.5136	0.0896	0.348
Mof_O 	O 	0.9565	0.0676	0.1712	-0.361
Mof_C 	C 	0.4077	0.4151	0.1406	0.591
Mof_H 	H 	0.3706	0.3899	0.1365	-0.185
Mof_H 	H 	0.4254	0.3949	0.1447	-0.351
Mof_H 	H 	0.4076	0.4369	0.1521	-0.182
Mof_O 	O 	0.0955	0.3133	0.20338	-0.582
Mof_C 	C 	0.3627	0.3845	0.0918	0.157
Mof_H 	H 	0.3459	0.3567	0.1026	-0.052
Mof_H 	H 	0.3376	0.3727	0.08	-0.029
Mof_O 	O 	0.2294	0.3483	0.2717	-0.453
Mof_C 	C 	0.2692	0.3227	0.161	-0.246
Mof_O 	O 	0.3072	0.4068	0.2552	-0.38
Mof_C 	C 	0.2683	0.2892	0.145	0.092
Mof_H 	H 	0.2798	0.264	0.1476	-0.168
Mof_O 	O 	0.1761	0.2366	0.18313	-0.629
Mof_C 	C 	0.2505	0.2922	0.1249	-0.375
Mof_C 	C 	0.2331	0.3315	0.1208	-0.037
Mof_H 	H 	0.2207	0.3334	0.1076	-0.013
Mof_C 	C 	0.2345	0.3664	0.13619	-0.164
Mof_O 	O 	0.1478	0.4722	0.2248	-0.41
Mof_C 	C 	0.2552	0.3628	0.1562	0.192
Mof_O 	O 	0.1224	0.4485	0.2217	-0.063
Mof_C 	C 	0.2531	0.2573	0.1071	0.411
Mof_C 	C 	0.3115	0.4502	0.1708	0.313
Mof_H 	H 	0.3403	0.4425	0.174	-0.092
Mof_H 	H 	0.3117	0.4756	0.1809	-0.24
Mof_H 	H 	0.3171	0.466	0.1571	-0.075
Mof_O 	O 	0.066	0.0945	0.1562	4.02
Mof_C 	C 	0.2187	0.4099	0.1318	-0.033
Mof_H 	H 	0.2517	0.4457	0.1324	0.041
Mof_H 	H 	0.2047	0.4048	0.1176	0.03
Mof_O 	O 	0.053	0.0958	0.15	-4.454
Mof_C 	C 	0.1765	0.41	0.14626	-0.102
Mof_O 	O 	0.1633	0.1487	0.1268	-0.969
Mof_C 	C 	0.189	0.4598	0.1551	-0.15
Mof_H 	H 	0.2226	0.4909	0.1521	0.049
Mof_O 	O 	0.1794	0.1537	0.1333	0.467
Mof_C 	C 	0.1514	0.4644	0.16886	-0.069
Mof_C 	C 	0.1019	0.4168	0.1732	-0.134
Mof_H 	H 	0.077	0.4189	0.1821	0.107
Mof_C 	C 	0.0891	0.3677	0.1647	-0.113
Mof_C 	C 	0.1243	0.3632	0.15045	0.168
Mof_C 	C 	0.1706	0.5235	0.1768	0.146
Mof_C 	C 	0.0835	0.3126	0.1206	0.255
Mof_H 	H 	0.0542	0.3202	0.123	-0.056
Mof_H 	H 	0.0689	0.2764	0.1149	-0.229
Mof_H 	H 	0.1095	0.3391	0.111	-0.081
Mof_C 	C 	0.0338	0.3176	0.1696	-0.02
Mof_H 	H 	0.0109	0.3089	0.1572	0.023
Mof_H 	H 	0.0164	0.3276	0.1805	0.028
Mof_C 	C 	0.0333	0.2648	0.1765	-0.178
Mof_C 	C 	0.9999	0.2136	0.1676	-0.073
Mof_H 	H 	0.9785	0.212	0.1563	0.005
Mof_C 	C 	0.9958	0.1658	0.1739	-0.165
Mof_C 	C 	0.029	0.1676	0.1887	-0.099
Mof_H 	H 	0.0288	0.1355	0.1925	-0.008
Mof_C 	C 	0.067	0.2198	0.1995	-0.198
Mof_C 	C 	0.0656	0.2653	0.1929	0.198
Mof_C 	C 	0.9535	0.1089	0.1614	0.343
Mof_C 	C 	0.0675	0.3199	0.2214	0.215
Mof_H 	H 	0.0286	0.3004	0.219	-0.036
Mof_H 	H 	0.0799	0.3582	0.2234	-0.156
Mof_H 	H 	0.0758	0.3056	0.2336	-0.133
Mof_C 	C 	0.1003	0.2197	0.2174	0.078
Mof_H 	H 	0.097	0.1837	0.2182	-0.01
Mof_H 	H 	0.0845	0.2248	0.2301	-0.006
Mof_C 	C 	0.1606	0.2623	0.21696	-0.234
Mof_C 	C 	0.1838	0.2946	0.23437	0.061
Mof_H 	H 	0.1612	0.2891	0.2458	-0.092
Mof_C 	C 	0.2392	0.335	0.236	-0.368
Mof_Rb	Rb	0.35764	0.21642	0.12838	1.941
Mof_C 	C 	0.2715	0.3417	0.21859	0.013
Mof_H 	H 	0.3084	0.3688	0.2188	-0.026
Mof_C 	C 	0.2507	0.3093	0.20075	-0.232
Mof_C 	C 	0.1976	0.2724	0.2004	0.221
Mof_C 	C 	0.2569	0.3634	0.2552	0.351
Mof_C 	C 	0.1801	0.1862	0.1843	0.369
Mof_H 	H 	0.2178	0.1956	0.183	-0.112
Mof_H 	H 	0.1589	0.1617	0.1732	-0.349
Mof_H 	H 	0.166	0.1685	0.1975	-0.116
Mof_C 	C 	0.2883	0.3182	0.1819	0.11
Mof_H 	H 	0.323	0.3514	0.1844	-0.025
Mof_H 	H 	0.2956	0.2879	0.1816	-0.032
Mof_Rb	Rb	0.78053	0.54609	0.47589	3.994
Mof_O 	O 	0.12667	0.60683	0.44043	-0.719
Mof_C 	C 	0.11387	0.75463	0.40197	0.211
Mof_Rb	Rb	0.86745	0.74539	0.53995	3.153
Mof_O 	O 	0.20157	0.65023	0.42653	-0.417
Mof_C 	C 	0.08257	0.71993	0.41803	-0.305
Mof_Rb	Rb	0.20734	0.78843	0.45306	3.623
Mof_O 	O 	0.09667	0.78723	0.39121	-0.512
Mof_C 	C 	0.09757	0.68773	0.42633	0.141
Mof_H 	H 	0.07547	0.66433	0.43693	-0.234
Mof_Rb	Rb	0.10524	0.89667	0.3949	2.525
Mof_O 	O 	0.20207	0.94783	0.33383	-0.87
Mof_C 	C 	0.14657	0.68523	0.42053	-0.533
Mof_Rb	Rb	0.03917	0.56093	0.46711	1.854
Mof_O 	O 	0.23907	0.02283	0.35393	-0.449
Mof_C 	C 	0.17787	0.72193	0.40464	0.067
Mof_H 	H 	0.21037	0.72363	0.40033	-0.022
Mof_O 	O 	0.25237	0.85513	0.41542	-0.581
Mof_C 	C 	0.16097	0.75663	0.39475	-0.205
Mof_O 	O 	0.34317	0.90683	0.49093	-0.321
Mof_C 	C 	0.16057	0.64713	0.42983	0.562
Mof_O 	O 	0.26197	0.87483	0.51043	-0.315
Mof_C 	C 	0.05977	0.75883	0.37403	0.164
Mof_H 	H 	0.02287	0.73783	0.37923	-0.056
Mof_H 	H 	0.06177	0.78513	0.36403	-0.143
Mof_H 	H 	0.07007	0.73463	0.36753	-0.022
Mof_O 	O 	0.17507	0.93863	0.43263	-0.45
Mof_C 	C 	0.19957	0.79663	0.37833	0.058
Mof_H 	H 	0.18187	0.78523	0.36483	0.011
Mof_H 	H 	0.23247	0.79373	0.37783	0.005
Mof_O 	O 	0.96027	0.88983	0.43043	-0.37
Mof_C 	C 	0.21637	0.85583	0.38153	-0.209
Mof_O 	O 	0.92257	0.82183	0.40913	-0.406
Mof_C 	C 	0.21087	0.88433	0.36643	0.071
Mof_H 	H 	0.19477	0.86673	0.35403	-0.097
Mof_O 	O 	0.10287	0.78273	0.45717	-0.736
Mof_C 	C 	0.22867	0.94153	0.36853	-0.334
Mof_C 	C 	0.25237	0.96683	0.38763	-0.035
Mof_H 	H 	0.26437	0.00393	0.38963	0.012
Mof_C 	C 	0.25767	0.93643	0.40343	-0.154
Mof_C 	C 	0.24287	0.88223	0.40083	0.228
Mof_C 	C 	0.22177	0.97303	0.34903	0.493
Mof_C 	C 	0.30577	0.86163	0.41133	0.103
Mof_H 	H 	0.33347	0.89433	0.41803	-0.017
Mof_H 	H 	0.30707	0.83033	0.41653	-0.068
Mof_H 	H 	0.31237	0.86473	0.39653	0.004
Mof_O 	O 	0.28867	0.76333	0.44653	-0.451
Mof_C 	C 	0.28647	0.96543	0.42453	-0.104
Mof_H 	H 	0.29307	0.00273	0.42393	0.066
Mof_H 	H 	0.32227	0.96803	0.42473	0.057
Mof_O 	O 	0.82567	0.47033	0.63063	-0.447
Mof_C 	C 	0.25917	0.94143	0.44473	-0.068
Mof_C 	C 	0.28577	0.93023	0.45893	-0.153
Mof_H 	H 	0.32077	0.93623	0.45603	0.052
Mof_C 	C 	0.26277	0.91003	0.47773	-0.175
Mof_C 	C 	0.20387	0.89623	0.47803	-0.19
Mof_H 	H 	0.18617	0.87953	0.49043	0.069
Mof_O 	O 	0.06557	0.49963	0.46073	-0.794
Mof_C 	C 	0.17287	0.90213	0.46533	-0.047
Mof_O 	O 	0.93327	0.48993	0.48883	-0.104
Mof_C 	C 	0.20247	0.92983	0.44723	0.106
Mof_O 	O 	0.94277	0.47833	0.49053	-0.373
Mof_C 	C 	0.29677	0.89983	0.49363	0.197
Mof_O 	O 	0.94357	0.56413	0.44355	-0.672
Mof_C 	C 	0.18107	0.99163	0.43743	-0.152
Mof_H 	H 	0.20497	0.01823	0.42743	0.038
Mof_H 	H 	0.14567	0.98913	0.43703	-0.007
Mof_H 	H 	0.19647	0.00283	0.45113	0.104
Mof_O 	O 	0.89637	0.59133	0.42353	-0.236
Mof_C 	C 	0.11787	0.88483	0.47123	-0.058
Mof_H 	H 	0.10937	0.86313	0.48383	0.043
Mof_H 	H 	0.11487	0.91693	0.47433	0.058
Mof_O 	O 	0.86167	0.56333	0.42303	-0.163
Mof_C 	C 	0.07427	0.84993	0.45413	-0.184
Mof_O 	O 	0.92697	0.73433	0.50481	-0.612
Mof_C 	C 	0.03377	0.86183	0.44463	-0.007
Mof_H 	H 	0.03417	0.89393	0.44853	-0.008
Mof_O 	O 	0.87507	0.89403	0.50243	-0.341
Mof_C 	C 	0.99847	0.83093	0.43143	-0.278
Mof_O 	O 	0.81187	0.86953	0.52443	1.372
Mof_C 	C 	0.99777	0.79053	0.42573	0.09
Mof_H 	H 	0.97177	0.76933	0.41563	-0.035
Mof_O 	O 	0.79387	0.85053	0.52223	-1.615
Mof_C 	C 	0.03557	0.77053	0.43333	-0.286
Mof_O 	O 	0.77757	0.64943	0.47361	-0.629
Mof_C 	C 	0.07067	0.80043	0.44823	0.302
Mof_O 	O 	0.59257	0.44423	0.48133	-0.348
Mof_C 	C 	0.95407	0.84693	0.42293	0.341
Mof_O 	O 	0.62317	0.40093	0.50453	-0.381
Mof_C 	C 	0.07437	0.74843	0.47393	0.597
Mof_H 	H 	0.03727	0.72323	0.46983	-0.191
Mof_H 	H 	0.09207	0.72823	0.47803	-0.354
Mof_H 	H 	0.07427	0.77023	0.48543	-0.186
Mof_O 	O 	0.76217	0.64663	0.53671	-0.579
Mof_C 	C 	0.02937	0.71783	0.42513	0.168
Mof_H 	H 	0.01257	0.69003	0.43593	-0.06
Mof_H 	H 	0.00427	0.70603	0.41333	-0.039
Mof_O 	O 	0.89607	0.68163	0.60503	-0.452
Mof_C 	C 	0.93587	0.65603	0.49433	-0.238
Mof_O 	O 	0.97387	0.74013	0.58853	-0.372
Mof_C 	C 	0.93497	0.62253	0.47833	0.087
Mof_H 	H 	0.94647	0.59733	0.48093	-0.161
Mof_O 	O 	0.84277	0.56993	0.51646	-0.628
Mof_C 	C 	0.91717	0.62553	0.45823	-0.368
Mof_C 	C 	0.89977	0.66483	0.45413	-0.039
Mof_H 	H 	0.88737	0.66673	0.44093	-0.011
Mof_C 	C 	0.90117	0.69973	0.46952	-0.161
Mof_O 	O 	0.81447	0.80553	0.55813	-0.414
Mof_C 	C 	0.92187	0.69613	0.48953	0.196
Mof_O 	O 	0.78907	0.78183	0.55503	-0.058
Mof_C 	C 	0.91977	0.59063	0.44043	0.408
Mof_C 	C 	0.97817	0.78353	0.50413	0.408
Mof_H 	H 	0.00697	0.77583	0.50733	-0.137
Mof_H 	H 	0.97837	0.80893	0.51423	-0.264
Mof_H 	H 	0.98377	0.79933	0.49043	-0.097
Mof_O 	O 	0.73267	0.42783	0.48953	3.949
Mof_C 	C 	0.88537	0.74323	0.46513	-0.038
Mof_H 	H 	0.91837	0.77903	0.46573	0.045
Mof_H 	H 	0.87137	0.73813	0.45093	0.032
Mof_O 	O 	0.71967	0.42913	0.48333	-4.381
Mof_C 	C 	0.84317	0.74333	0.47959	-0.096
Mof_O 	O 	0.82997	0.48203	0.46013	-0.976
Mof_C 	C 	0.85567	0.79313	0.48843	-0.158
Mof_H 	H 	0.88927	0.82423	0.48543	0.053
Mof_O 	O 	0.84607	0.48703	0.46663	0.473
Mof_C 	C 	0.81807	0.79773	0.50219	-0.058
Mof_C 	C 	0.76857	0.75013	0.50653	-0.146
Mof_H 	H 	0.74367	0.75223	0.51543	0.117
Mof_C 	C 	0.75577	0.70103	0.49803	-0.099
Mof_C 	C 	0.79097	0.69653	0.48378	0.16
Mof_C 	C 	0.83727	0.85683	0.51013	0.138
Mof_C 	C 	0.75017	0.64593	0.45393	0.243
Mof_H 	H 	0.72087	0.65353	0.45633	-0.048
Mof_H 	H 	0.73557	0.60973	0.44823	-0.221
Mof_H 	H 	0.77617	0.67243	0.44433	-0.076
Mof_C 	C 	0.70047	0.65093	0.50293	-0.044
Mof_H 	H 	0.67757	0.64223	0.49053	0.037
Mof_H 	H 	0.68307	0.66093	0.51383	0.041
Mof_C 	C 	0.69997	0.59813	0.50983	-0.149
Mof_C 	C 	0.66657	0.54693	0.50093	-0.1
Mof_H 	H 	0.64517	0.54533	0.48963	0.009
Mof_C 	C 	0.66247	0.49913	0.50723	-0.185
Mof_C 	C 	0.69567	0.50093	0.52203	-0.071
Mof_H 	H 	0.69547	0.46883	0.52583	-0.013
Mof_C 	C 	0.73367	0.55313	0.53283	-0.199
Mof_C 	C 	0.73227	0.59863	0.52623	0.192
Mof_C 	C 	0.62017	0.44223	0.49473	0.344
Mof_C 	C 	0.73417	0.65323	0.55473	0.202
Mof_H 	H 	0.69527	0.63373	0.55233	-0.025
Mof_H 	H 	0.74657	0.69153	0.55673	-0.15
Mof_H 	H 	0.74247	0.63893	0.56693	-0.126
Mof_C 	C 	0.76697	0.55303	0.55073	0.078
Mof_H 	H 	0.76367	0.51703	0.55153	-0.009
Mof_H 	H 	0.75117	0.55813	0.56343	-0.005
Mof_C 	C 	0.82727	0.59563	0.55029	-0.232
Mof_C 	C 	0.85047	0.62793	0.5677	0.058
Mof_H 	H 	0.82787	0.62243	0.57913	-0.092
Mof_C 	C 	0.90587	0.66833	0.56933	-0.364
Mof_Rb	Rb	0.02431	0.54975	0.46171	1.916
Mof_C 	C 	0.93817	0.67503	0.55192	0.008
Mof_H 	H 	0.97507	0.70213	0.55213	-0.02
Mof_C 	C 	0.91737	0.64263	0.53408	-0.224
Mof_C 	C 	0.86427	0.60573	0.53373	0.217
Mof_C 	C 	0.92357	0.69673	0.58853	0.349
Mof_C 	C 	0.84677	0.51953	0.51763	0.364
Mof_H 	H 	0.88447	0.52893	0.51633	-0.11
Mof_H 	H 	0.82557	0.49503	0.50653	-0.347
Mof_H 	H 	0.83267	0.50183	0.53083	-0.114
Mof_C 	C 	0.95497	0.65153	0.51523	0.099
Mof_H 	H 	0.98967	0.68473	0.51773	-0.014
Mof_H 	H 	0.96227	0.62123	0.51493	-0.023
Mof_Rb	Rb	0.44719	0.87943	0.80923	3.975
Mof_O 	O 	0.79333	0.94017	0.77377	-0.722
Mof_C 	C 	0.78053	0.08797	0.73531	0.216
Mof_Rb	Rb	0.53411	0.07873	0.87329	3.171
Mof_O 	O 	0.86823	0.98357	0.75987	-0.419
Mof_C 	C 	0.74923	0.05327	0.75137	-0.313
Mof_Rb	Rb	0.874	0.12177	0.7864	3.65
Mof_O 	O 	0.76333	0.12057	0.72455	-0.515
Mof_C 	C 	0.76423	0.02107	0.75967	0.179
Mof_H 	H 	0.74213	0.99767	0.77027	-0.261
Mof_Rb	Rb	0.7719	0.23001	0.72824	2.594
Mof_O 	O 	0.86873	0.28117	0.66717	-0.878
Mof_C 	C 	0.81323	0.01857	0.75387	-0.523
Mof_Rb	Rb	0.70583	0.89427	0.80045	1.899
Mof_O 	O 	0.90573	0.35617	0.68727	-0.471
Mof_C 	C 	0.84453	0.05527	0.73798	0.065
Mof_H 	H 	0.87703	0.05697	0.73367	-0.016
Mof_O 	O 	0.91903	0.18847	0.74876	-0.605
Mof_C 	C 	0.82763	0.08997	0.72809	-0.208
Mof_O 	O 	0.00983	0.24017	0.82427	-0.343
Mof_C 	C 	0.82723	0.98047	0.76317	0.544
Mof_O 	O 	0.92863	0.20817	0.84377	-0.313
Mof_C 	C 	0.72643	0.09217	0.70737	0.148
Mof_H 	H 	0.68953	0.07117	0.71257	-0.043
Mof_H 	H 	0.72843	0.11847	0.69737	-0.137
Mof_H 	H 	0.73673	0.06797	0.70087	-0.01
Mof_O 	O 	0.84173	0.27197	0.76597	-0.493
Mof_C 	C 	0.86623	0.12997	0.71167	0.069
Mof_H 	H 	0.84853	0.11857	0.69817	0.008
Mof_H 	H 	0.89913	0.12707	0.71117	0.004
Mof_O 	O 	0.62693	0.22317	0.76377	-0.376
Mof_C 	C 	0.88303	0.18917	0.71487	-0.23
Mof_O 	O 	0.58923	0.15517	0.74247	-0.411
Mof_C 	C 	0.87753	0.21767	0.69977	0.095
Mof_H 	H 	0.86143	0.20007	0.68737	-0.106
Mof_O 	O 	0.76953	0.11607	0.79051	-0.735
Mof_C 	C 	0.89533	0.27487	0.70187	-0.367
Mof_C 	C 	0.91903	0.30017	0.72097	0.037
Mof_H 	H 	0.93103	0.33727	0.72297	-0.022
Mof_C 	C 	0.92433	0.26977	0.73677	-0.192
Mof_C 	C 	0.90953	0.21557	0.73417	0.255
Mof_C 	C 	0.88843	0.30637	0.68237	0.531
Mof_C 	C 	0.97243	0.19497	0.74467	0.192
Mof_H 	H 	0.00013	0.22767	0.75137	-0.057
Mof_H 	H 	0.97373	0.16367	0.74987	-0.09
Mof_H 	H 	0.97903	0.19807	0.72987	-0.016
Mof_O 	O 	0.95533	0.09667	0.77987	-0.444
Mof_C 	C 	0.95313	0.29877	0.75787	-0.036
Mof_H 	H 	0.95973	0.33607	0.75727	0.036
Mof_H 	H 	0.98893	0.30137	0.75807	0.052
Mof_O 	O 	0.49233	0.80367	0.96397	-0.445
Mof_C 	C 	0.92583	0.27477	0.77807	-0.096
Mof_C 	C 	0.95243	0.26357	0.79227	-0.125
Mof_H 	H 	0.98743	0.26957	0.78937	0.053
Mof_C 	C 	0.92943	0.24337	0.81107	-0.192
Mof_C 	C 	0.87053	0.22957	0.81137	-0.17
Mof_H 	H 	0.85283	0.21287	0.82377	0.064
Mof_O 	O 	0.73223	0.83297	0.79407	-0.796
Mof_C 	C 	0.83953	0.23547	0.79867	-0.067
Mof_O 	O 	0.59993	0.82327	0.82217	-0.138
Mof_C 	C 	0.86913	0.26317	0.78057	0.138
Mof_O 	O 	0.60943	0.81167	0.82387	-0.349
Mof_C 	C 	0.96343	0.23317	0.82697	0.229
Mof_O 	O 	0.61023	0.89747	0.77689	-0.68
Mof_C 	C 	0.84773	0.32497	0.77077	0.043
Mof_H 	H 	0.87163	0.35157	0.76077	-0.033
Mof_H 	H 	0.81233	0.32247	0.77037	-0.058
Mof_H 	H 	0.86313	0.33617	0.78447	0.032
Mof_O 	O 	0.56303	0.92467	0.75687	-0.242
Mof_C 	C 	0.78453	0.21817	0.80457	-0.039
Mof_H 	H 	0.77603	0.19647	0.81717	0.039
Mof_H 	H 	0.78153	0.25027	0.80767	0.056
Mof_O 	O 	0.52833	0.89667	0.75637	-0.163
Mof_C 	C 	0.74093	0.18327	0.78747	-0.197
Mof_O 	O 	0.59363	0.06767	0.83815	-0.594
Mof_C 	C 	0.70043	0.19517	0.77797	0.037
Mof_H 	H 	0.70083	0.22727	0.78187	-0.014
Mof_O 	O 	0.54173	0.22737	0.83577	-0.339
Mof_C 	C 	0.66513	0.16427	0.76477	-0.316
Mof_O 	O 	0.47853	0.20287	0.85777	1.336
Mof_C 	C 	0.66443	0.12387	0.75907	0.083
Mof_H 	H 	0.63843	0.10267	0.74897	-0.038
Mof_O 	O 	0.46053	0.18387	0.85557	-1.577
Mof_C 	C 	0.70223	0.10387	0.76667	-0.27
Mof_O 	O 	0.44423	0.98277	0.80695	-0.629
Mof_C 	C 	0.73733	0.13377	0.78157	0.303
Mof_O 	O 	0.25923	0.77757	0.81467	-0.348
Mof_C 	C 	0.62073	0.18027	0.75627	0.348
Mof_O 	O 	0.28983	0.73427	0.83787	-0.38
Mof_C 	C 	0.74103	0.08177	0.80727	0.579
Mof_H 	H 	0.70393	0.05657	0.80317	-0.177
Mof_H 	H 	0.75873	0.06157	0.81137	-0.344
Mof_H 	H 	0.74093	0.10357	0.81877	-0.178
Mof_O 	O 	0.42883	0.97997	0.87005	-0.571
Mof_C 	C 	0.69603	0.05117	0.75847	0.159
Mof_H 	H 	0.67923	0.02337	0.76927	-0.045
Mof_H 	H 	0.67093	0.03937	0.74667	-0.025
Mof_O 	O 	0.56273	0.01497	0.93837	-0.44
Mof_C 	C 	0.60253	0.98937	0.82767	-0.244
Mof_O 	O 	0.64053	0.07347	0.92187	-0.378
Mof_C 	C 	0.60163	0.95587	0.81167	0.069
Mof_H 	H 	0.61313	0.93067	0.81427	-0.161
Mof_O 	O 	0.50943	0.90327	0.8498	-0.627
Mof_C 	C 	0.58383	0.95887	0.79157	-0.346
Mof_C 	C 	0.56643	0.99817	0.78747	-0.128
Mof_H 	H 	0.55403	7e-05	0.77427	0.032
Mof_C 	C 	0.56783	0.03307	0.80286	-0.112
Mof_O 	O 	0.48113	0.13887	0.89147	-0.414
Mof_C 	C 	0.58853	0.02947	0.82287	0.192
Mof_O 	O 	0.45573	0.11517	0.88837	-0.059
Mof_C 	C 	0.58643	0.92397	0.77377	0.397
Mof_C 	C 	0.64483	0.11687	0.83747	0.315
Mof_H 	H 	0.67363	0.10917	0.84067	-0.092
Mof_H 	H 	0.64503	0.14227	0.84757	-0.242
Mof_H 	H 	0.65043	0.13267	0.82377	-0.076
Mof_O 	O 	0.39933	0.76117	0.82287	3.935
Mof_C 	C 	0.55203	0.07657	0.79847	-0.065
Mof_H 	H 	0.58503	0.11237	0.79907	0.05
Mof_H 	H 	0.53803	0.07147	0.78427	0.04
Mof_O 	O 	0.38633	0.76247	0.81667	-4.365
Mof_C 	C 	0.50983	0.07667	0.81293	-0.088
Mof_O 	O 	0.49663	0.81537	0.79347	-0.973
Mof_C 	C 	0.52233	0.12647	0.82177	-0.165
Mof_H 	H 	0.55593	0.15757	0.81877	0.054
Mof_O 	O 	0.51273	0.82037	0.79997	0.472
Mof_C 	C 	0.48473	0.13107	0.83553	-0.054
Mof_C 	C 	0.43523	0.08347	0.83987	-0.159
Mof_H 	H 	0.41033	0.08557	0.84877	0.123
Mof_C 	C 	0.42243	0.03437	0.83137	-0.074
Mof_C 	C 	0.45763	0.02987	0.81712	0.165
Mof_C 	C 	0.50393	0.19017	0.84347	0.138
Mof_C 	C 	0.41683	0.97927	0.78727	0.166
Mof_H 	H 	0.38753	0.98687	0.78967	-0.033
Mof_H 	H 	0.40223	0.94307	0.78157	-0.201
Mof_H 	H 	0.44283	0.00577	0.77767	-0.041
Mof_C 	C 	0.36713	0.98427	0.83627	-0.074
Mof_H 	H 	0.34423	0.97557	0.82387	0.04
Mof_H 	H 	0.34973	0.99427	0.84717	0.043
Mof_C 	C 	0.36663	0.93147	0.84317	-0.139
Mof_C 	C 	0.33323	0.88027	0.83427	-0.107
Mof_H 	H 	0.31183	0.87867	0.82297	0.011
Mof_C 	C 	0.32913	0.83247	0.84057	-0.18
Mof_C 	C 	0.36233	0.83427	0.85537	-0.076
Mof_H 	H 	0.36213	0.80217	0.85917	-0.01
Mof_C 	C 	0.40033	0.88647	0.86617	-0.191
Mof_C 	C 	0.39893	0.93197	0.85957	0.18
Mof_C 	C 	0.28683	0.77557	0.82807	0.343
Mof_C 	C 	0.40083	0.98657	0.88807	0.109
Mof_H 	H 	0.36193	0.96707	0.88567	-0
Mof_H 	H 	0.41323	0.02487	0.89007	-0.11
Mof_H 	H 	0.40913	0.97227	0.90027	-0.102
Mof_C 	C 	0.43363	0.88637	0.88407	0.067
Mof_H 	H 	0.43033	0.85037	0.88487	-0.006
Mof_H 	H 	0.41783	0.89147	0.89677	-0.002
Mof_C 	C 	0.49393	0.92897	0.88363	-0.222
Mof_C 	C 	0.51713	0.96127	0.90104	0.024
Mof_H 	H 	0.49453	0.95577	0.91247	-0.084
Mof_C 	C 	0.57253	0.00167	0.90267	-0.342
Mof_Rb	Rb	0.69097	0.88309	0.79505	1.925
Mof_C 	C 	0.60483	0.00837	0.88526	0.024
Mof_H 	H 	0.64173	0.03547	0.88547	-0.028
Mof_C 	C 	0.58403	0.97597	0.86742	-0.24
Mof_C 	C 	0.53093	0.93907	0.86707	0.214
Mof_C 	C 	0.59023	0.03007	0.92187	0.343
Mof_C 	C 	0.51343	0.85287	0.85097	0.364
Mof_H 	H 	0.55113	0.86227	0.84967	-0.11
Mof_H 	H 	0.49223	0.82837	0.83987	-0.345
Mof_H 	H 	0.49933	0.83517	0.86417	-0.114
Mof_C 	C 	0.62163	0.98487	0.84857	0.07
Mof_H 	H 	0.65633	0.01807	0.85107	-0.001
Mof_H 	H 	0.62893	0.95457	0.84827	-0.022
Mof_Rb	Rb	0.0989	0.21276	0.64256	3.95
Mof_O 	O 	0.8135	0.2735	0.6071	-0.724
Mof_C 	C 	0.9741	0.4213	0.56864	0.212
Mof_Rb	Rb	0.21128	0.41206	0.70662	3.138
Mof_O 	O 	0.782	0.3169	0.5932	-0.418
Mof_C 	C 	0.9707	0.3866	0.5847	-0.272
Mof_Rb	Rb	0.91443	0.4551	0.61973	3.656
Mof_O 	O 	0.0239	0.4539	0.55788	-0.513
Mof_C 	C 	0.9235	0.3544	0.593	0.123
Mof_H 	H 	0.9222	0.331	0.6036	-0.225
Mof_Rb	Rb	0.12477	0.56334	0.56157	2.582
Mof_O 	O 	0.0791	0.6145	0.5005	-0.87
Mof_C 	C 	0.872	0.3519	0.5872	-0.527
Mof_Rb	Rb	0.8551	0.2276	0.63378	1.903
Mof_O 	O 	0.1171	0.6895	0.5206	-0.472
Mof_C 	C 	0.8774	0.3886	0.57131	0.06
Mof_H 	H 	0.8466	0.3903	0.567	-0.021
Mof_O 	O 	0.9361	0.5218	0.58209	-0.589
Mof_C 	C 	0.929	0.4233	0.56142	-0.2
Mof_O 	O 	0.897	0.5735	0.6576	-0.317
Mof_C 	C 	0.8199	0.3138	0.5965	0.561
Mof_O 	O 	0.9462	0.5415	0.6771	-0.307
Mof_C 	C 	0.0324	0.4255	0.5407	0.074
Mof_H 	H 	0.0483	0.4045	0.5459	-0.029
Mof_H 	H 	0.0567	0.4518	0.5307	-0.118
Mof_H 	H 	0.9979	0.4013	0.5342	0.02
Mof_O 	O 	0.0969	0.6053	0.5993	-0.492
Mof_C 	C 	0.9304	0.4633	0.545	0.049
Mof_H 	H 	0.9367	0.4519	0.5315	0.017
Mof_H 	H 	0.8946	0.4604	0.5445	0.007
Mof_O 	O 	0.2629	0.5565	0.5971	-0.375
Mof_C 	C 	0.9728	0.5225	0.5482	-0.194
Mof_O 	O 	0.2326	0.4885	0.5758	-0.411
Mof_C 	C 	0.0068	0.551	0.5331	0.05
Mof_H 	H 	0.0053	0.5334	0.5207	-0.097
Mof_O 	O 	0.0132	0.4494	0.62384	-0.728
Mof_C 	C 	0.0462	0.6082	0.5352	-0.357
Mof_C 	C 	0.0478	0.6335	0.5543	0.03
Mof_H 	H 	0.0729	0.6706	0.5563	-0.024
Mof_C 	C 	0.0121	0.6031	0.5701	-0.207
Mof_C 	C 	0.9727	0.5489	0.5675	0.26
Mof_C 	C 	0.0846	0.6397	0.5157	0.522
Mof_C 	C 	0.8892	0.5283	0.578	0.107
Mof_H 	H 	0.8942	0.561	0.5847	-0.015
Mof_H 	H 	0.8566	0.497	0.5832	-0.07
Mof_H 	H 	0.8857	0.5314	0.5632	0.003
Mof_O 	O 	0.808	0.43	0.6132	-0.454
Mof_C 	C 	0.0123	0.6321	0.5912	-0.059
Mof_H 	H 	0.043	0.6694	0.5906	0.037
Mof_H 	H 	0.9791	0.6347	0.5914	0.064
Mof_O 	O 	0.978	0.137	0.7973	-0.437
Mof_C 	C 	0.0156	0.6081	0.6114	-0.117
Mof_C 	C 	0.9778	0.5969	0.6256	-0.103
Mof_H 	H 	0.9488	0.6029	0.6227	0.041
Mof_C 	C 	0.9806	0.5767	0.6444	-0.171
Mof_C 	C 	0.0257	0.5629	0.6447	-0.203
Mof_H 	H 	0.0267	0.5462	0.6571	0.068
Mof_O 	O 	0.7674	0.1663	0.6274	-0.798
Mof_C 	C 	0.0626	0.5688	0.632	-0.055
Mof_O 	O 	0.89	0.1566	0.6555	-0.143
Mof_C 	C 	0.0607	0.5965	0.6139	0.136
Mof_O 	O 	0.8689	0.145	0.6572	-0.344
Mof_C 	C 	0.9364	0.5665	0.6603	0.201
Mof_O 	O 	0.9539	0.2308	0.61022	-0.661
Mof_C 	C 	0.1439	0.6583	0.6041	0.044
Mof_H 	H 	0.1466	0.6849	0.5941	-0.033
Mof_H 	H 	0.1768	0.6558	0.6037	-0.057
Mof_H 	H 	0.1397	0.6695	0.6178	0.031
Mof_O 	O 	0.0283	0.258	0.5902	-0.231
Mof_C 	C 	0.1003	0.5515	0.6379	-0.05
Mof_H 	H 	0.0871	0.5298	0.6505	0.041
Mof_H 	H 	0.1354	0.5836	0.641	0.059
Mof_O 	O 	0.035	0.23	0.5897	-0.173
Mof_C 	C 	0.109	0.5166	0.6208	-0.189
Mof_O 	O 	0.1407	0.401	0.67148	-0.59
Mof_C 	C 	0.1614	0.5285	0.6113	0.029
Mof_H 	H 	0.1931	0.5606	0.6152	-0.011
Mof_O 	O 	0.3523	0.5607	0.6691	-0.339
Mof_C 	C 	0.1658	0.4976	0.5981	-0.307
Mof_O 	O 	0.391	0.5362	0.6911	1.328
Mof_C 	C 	0.1261	0.4572	0.5924	0.073
Mof_H 	H 	0.1309	0.436	0.5823	-0.037
Mof_O 	O 	0.39	0.5172	0.6889	-1.569
Mof_C 	C 	0.0683	0.4372	0.6	-0.26
Mof_O 	O 	0.2052	0.3161	0.64028	-0.624
Mof_C 	C 	0.0631	0.4671	0.6149	0.291
Mof_O 	O 	0.185	0.1109	0.648	-0.346
Mof_C 	C 	0.2262	0.5136	0.5896	0.346
Mof_O 	O 	0.1111	0.0676	0.6712	-0.375
Mof_C 	C 	0.0074	0.4151	0.6406	0.501
Mof_H 	H 	0.0193	0.3899	0.6365	-0.162
Mof_H 	H 	0.9695	0.3949	0.6447	-0.313
Mof_H 	H 	0.0293	0.4369	0.6521	-0.16
Mof_O 	O 	0.2178	0.3133	0.70338	-0.577
Mof_C 	C 	0.0218	0.3845	0.5918	0.123
Mof_H 	H 	0.0108	0.3567	0.6026	-0.048
Mof_H 	H 	0.0351	0.3727	0.58	-0.024
Mof_O 	O 	0.1189	0.3483	0.7717	-0.455
Mof_C 	C 	0.0535	0.3227	0.661	-0.201
Mof_O 	O 	0.0996	0.4068	0.7552	-0.384
Mof_C 	C 	0.0209	0.2892	0.645	0.017
Mof_H 	H 	0.9842	0.264	0.6476	-0.13
Mof_O 	O 	0.0605	0.2366	0.68313	-0.609
Mof_C 	C 	0.0417	0.2922	0.6249	-0.339
Mof_C 	C 	0.0984	0.3315	0.6208	-0.061
Mof_H 	H 	0.1127	0.3334	0.6076	-0.005
Mof_C 	C 	0.1319	0.3664	0.63619	-0.145
Mof_O 	O 	0.3244	0.4722	0.7248	-0.412
Mof_C 	C 	0.1076	0.3628	0.6562	0.17
Mof_O 	O 	0.3261	0.4485	0.7217	-0.059
Mof_C 	C 	0.0042	0.2573	0.6071	0.37
Mof_C 	C 	0.1387	0.4502	0.6708	0.312
Mof_H 	H 	0.1022	0.4425	0.674	-0.094
Mof_H 	H 	0.1639	0.4756	0.6809	-0.24
Mof_H 	H 	0.1489	0.466	0.6571	-0.075
Mof_O 	O 	0.0285	0.0945	0.6562	3.812
Mof_C 	C 	0.1912	0.4099	0.6318	-0.047
Mof_H 	H 	0.194	0.4457	0.6324	0.045
Mof_H 	H 	0.2001	0.4048	0.6176	0.034
Mof_O 	O 	0.0428	0.0958	0.65	-4.247
Mof_C 	C 	0.2335	0.41	0.64626	-0.093
Mof_O 	O 	0.9854	0.1487	0.6268	-0.934
Mof_C 	C 	0.2708	0.4598	0.6551	-0.158
Mof_H 	H 	0.2683	0.4909	0.6521	0.052
Mof_O 	O 	0.9743	0.1537	0.6333	0.447
Mof_C 	C 	0.313	0.4644	0.66886	-0.06
Mof_C 	C 	0.3149	0.4168	0.6732	-0.145
Mof_H 	H 	0.3419	0.4189	0.6821	0.115
Mof_C 	C 	0.2786	0.3677	0.6647	-0.098
Mof_C 	C 	0.2389	0.3632	0.65045	0.159
Mof_C 	C 	0.3529	0.5235	0.6768	0.141
Mof_C 	C 	0.2291	0.3126	0.6206	0.239
Mof_H 	H 	0.266	0.3202	0.623	-0.047
Mof_H 	H 	0.2075	0.2764	0.6149	-0.219
Mof_H 	H 	0.2296	0.3391	0.611	-0.075
Mof_C 	C 	0.2838	0.3176	0.6696	-0.045
Mof_H 	H 	0.298	0.3089	0.6572	0.037
Mof_H 	H 	0.3112	0.3276	0.6805	0.042
Mof_C 	C 	0.2315	0.2648	0.6765	-0.147
Mof_C 	C 	0.2137	0.2136	0.6676	-0.1
Mof_H 	H 	0.2335	0.212	0.6563	0.009
Mof_C 	C 	0.17	0.1658	0.6739	-0.183
Mof_C 	C 	0.1386	0.1676	0.6887	-0.072
Mof_H 	H 	0.1067	0.1355	0.6925	-0.011
Mof_C 	C 	0.1528	0.2198	0.6995	-0.196
Mof_C 	C 	0.1997	0.2653	0.6929	0.19
Mof_C 	C 	0.1554	0.1089	0.6614	0.342
Mof_C 	C 	0.2524	0.3199	0.7214	0.2
Mof_H 	H 	0.2718	0.3004	0.719	-0.025
Mof_H 	H 	0.2783	0.3582	0.7234	-0.149
Mof_H 	H 	0.2298	0.3056	0.7336	-0.126
Mof_C 	C 	0.1194	0.2197	0.7174	0.073
Mof_H 	H 	0.0867	0.1837	0.7182	-0.009
Mof_H 	H 	0.1403	0.2248	0.7301	-0.003
Mof_C 	C 	0.1017	0.2623	0.71696	-0.225
Mof_C 	C 	0.1108	0.2946	0.73437	0.053
Mof_H 	H 	0.1279	0.2891	0.7458	-0.09
Mof_C 	C 	0.0958	0.335	0.736	-0.361
Mof_Rb	Rb	0.85878	0.21642	0.62838	1.938
Mof_C 	C 	0.0702	0.3417	0.71859	-0.005
Mof_H 	H 	0.0604	0.3688	0.7188	-0.024
Mof_C 	C 	0.0586	0.3093	0.70075	-0.208
Mof_C 	C 	0.0748	0.2724	0.7004	0.201
Mof_C 	C 	0.1065	0.3634	0.7552	0.347
Mof_C 	C 	0.0061	0.1862	0.6843	0.276
Mof_H 	H 	0.9778	0.1956	0.683	-0.071
Mof_H 	H 	0.0028	0.1617	0.6732	-0.321
Mof_H 	H 	0.0025	0.1685	0.6975	-0.093
Mof_C 	C 	0.0299	0.3182	0.6819	0.036
Mof_H 	H 	0.0284	0.3514	0.6844	-0.01
Mof_H 	H 	0.9923	0.2879	0.6816	0.002
Mof_Rb	Rb	0.76557	0.54609	0.97589	3.996
Mof_O 	O 	0.48017	0.60683	0.94043	-0.725
Mof_C 	C 	0.64077	0.75463	0.90197	0.209
Mof_Rb	Rb	0.87795	0.74539	0.03995	3.148
Mof_O 	O 	0.44867	0.65023	0.92653	-0.418
Mof_C 	C 	0.63737	0.71993	0.91803	-0.299
Mof_Rb	Rb	0.5811	0.78843	0.95306	3.621
Mof_O 	O 	0.69057	0.78723	0.89121	-0.512
Mof_C 	C 	0.59017	0.68773	0.92633	0.14
Mof_H 	H 	0.58887	0.66433	0.93693	-0.234
Mof_Rb	Rb	0.79144	0.89667	0.8949	2.566
Mof_O 	O 	0.74577	0.94783	0.83383	-0.87
Mof_C 	C 	0.53867	0.68523	0.92053	-0.533
Mof_Rb	Rb	0.52177	0.56093	0.96711	1.905
Mof_O 	O 	0.78377	0.02283	0.85393	-0.45
Mof_C 	C 	0.54407	0.72193	0.90464	0.067
Mof_H 	H 	0.51327	0.72363	0.90033	-0.022
Mof_O 	O 	0.60277	0.85513	0.91542	-0.581
Mof_C 	C 	0.59567	0.75663	0.89475	-0.205
Mof_O 	O 	0.56367	0.90683	0.99093	-0.321
Mof_C 	C 	0.48657	0.64713	0.92983	0.564
Mof_O 	O 	0.61287	0.87483	0.01043	-0.315
Mof_C 	C 	0.69907	0.75883	0.87403	0.155
Mof_H 	H 	0.71497	0.73783	0.87923	-0.048
Mof_H 	H 	0.72337	0.78513	0.86403	-0.139
Mof_H 	H 	0.66457	0.73463	0.86753	-0.017
Mof_O 	O 	0.76357	0.93863	0.93263	-0.456
Mof_C 	C 	0.59707	0.79663	0.87833	0.058
Mof_H 	H 	0.60337	0.78523	0.86483	0.011
Mof_H 	H 	0.56127	0.79373	0.87783	0.005
Mof_O 	O 	0.92957	0.88983	0.93043	-0.374
Mof_C 	C 	0.63947	0.85583	0.88153	-0.211
Mof_O 	O 	0.89927	0.82183	0.90913	-0.41
Mof_C 	C 	0.67347	0.88433	0.86643	0.072
Mof_H 	H 	0.67197	0.86673	0.85403	-0.098
Mof_O 	O 	0.67987	0.78273	0.95717	-0.735
Mof_C 	C 	0.71287	0.94153	0.86853	-0.337
Mof_C 	C 	0.71447	0.96683	0.88763	-0.032
Mof_H 	H 	0.73957	0.00393	0.88963	0.01
Mof_C 	C 	0.67877	0.93643	0.90343	-0.156
Mof_C 	C 	0.63937	0.88223	0.90083	0.229
Mof_C 	C 	0.75127	0.97303	0.84903	0.495
Mof_C 	C 	0.55587	0.86163	0.91133	0.104
Mof_H 	H 	0.56087	0.89433	0.91803	-0.017
Mof_H 	H 	0.52327	0.83033	0.91653	-0.069
Mof_H 	H 	0.55237	0.86473	0.89653	0.004
Mof_O 	O 	0.47467	0.76333	0.94653	-0.451
Mof_C 	C 	0.67897	0.96543	0.92453	-0.099
Mof_H 	H 	0.70967	0.00273	0.92393	0.064
Mof_H 	H 	0.64577	0.96803	0.92473	0.056
Mof_O 	O 	0.64467	0.47033	0.13063	-0.445
Mof_C 	C 	0.68227	0.94143	0.94473	-0.072
Mof_C 	C 	0.64447	0.93023	0.95893	-0.15
Mof_H 	H 	0.61547	0.93623	0.95603	0.051
Mof_C 	C 	0.64727	0.91003	0.97773	-0.178
Mof_C 	C 	0.69237	0.89623	0.97803	-0.186
Mof_H 	H 	0.69337	0.87953	0.99043	0.067
Mof_O 	O 	0.43407	0.49963	0.96073	-0.799
Mof_C 	C 	0.72927	0.90213	0.96533	-0.053
Mof_O 	O 	0.55667	0.48993	0.98883	-0.139
Mof_C 	C 	0.72737	0.92983	0.94723	0.11
Mof_O 	O 	0.53557	0.47833	0.99053	-0.349
Mof_C 	C 	0.60307	0.89983	0.99363	0.197
Mof_O 	O 	0.62057	0.56413	0.94355	-0.684
Mof_C 	C 	0.81057	0.99163	0.93743	-0.141
Mof_H 	H 	0.81327	0.01823	0.92743	0.033
Mof_H 	H 	0.84347	0.98913	0.93703	-0.009
Mof_H 	H 	0.80637	0.00283	0.95113	0.1
Mof_O 	O 	0.69497	0.59133	0.92353	-0.241
Mof_C 	C 	0.76697	0.88483	0.97123	-0.049
Mof_H 	H 	0.75377	0.86313	0.98383	0.042
Mof_H 	H 	0.80207	0.91693	0.97433	0.056
Mof_O 	O 	0.70167	0.56333	0.92303	-0.162
Mof_C 	C 	0.77567	0.84993	0.95413	-0.193
Mof_O 	O 	0.80737	0.73433	0.00481	-0.595
Mof_C 	C 	0.82807	0.86183	0.94463	0.035
Mof_H 	H 	0.85977	0.89393	0.94853	-0.014
Mof_O 	O 	0.01897	0.89403	0.00243	-0.35
Mof_C 	C 	0.83247	0.83093	0.93143	-0.313
Mof_O 	O 	0.05767	0.86953	0.02443	1.332
Mof_C 	C 	0.79277	0.79053	0.92573	0.081
Mof_H 	H 	0.79757	0.76933	0.91563	-0.038
Mof_O 	O 	0.05667	0.85053	0.02223	-1.581
Mof_C 	C 	0.73497	0.77053	0.93333	-0.269
Mof_O 	O 	0.87187	0.64943	0.97361	-0.63
Mof_C 	C 	0.72977	0.80043	0.94823	0.301
Mof_O 	O 	0.85167	0.44423	0.98133	-0.348
Mof_C 	C 	0.89287	0.84693	0.92293	0.347
Mof_O 	O 	0.77777	0.40093	0.00453	-0.381
Mof_C 	C 	0.67407	0.74843	0.97393	0.59
Mof_H 	H 	0.68597	0.72323	0.96983	-0.184
Mof_H 	H 	0.63617	0.72823	0.97803	-0.351
Mof_H 	H 	0.69597	0.77023	0.98543	-0.182
Mof_O 	O 	0.88447	0.64663	0.03671	-0.577
Mof_C 	C 	0.68847	0.71783	0.92513	0.154
Mof_H 	H 	0.67747	0.69003	0.93593	-0.051
Mof_H 	H 	0.70177	0.70603	0.91333	-0.028
Mof_O 	O 	0.78557	0.68163	0.10503	-0.454
Mof_C 	C 	0.72017	0.65603	0.99433	-0.247
Mof_O 	O 	0.76627	0.74013	0.08853	-0.381
Mof_C 	C 	0.68757	0.62253	0.97833	0.092
Mof_H 	H 	0.65087	0.59733	0.98093	-0.168
Mof_O 	O 	0.72717	0.56993	0.01646	-0.629
Mof_C 	C 	0.70837	0.62553	0.95823	-0.376
Mof_C 	C 	0.76507	0.66483	0.95413	-0.038
Mof_H 	H 	0.77937	0.66673	0.94093	-0.013
Mof_C 	C 	0.79857	0.69973	0.96952	-0.164
Mof_O 	O 	0.99107	0.80553	0.05813	-0.408
Mof_C 	C 	0.77427	0.69613	0.98953	0.192
Mof_O 	O 	0.99277	0.78183	0.05503	-0.052
Mof_C 	C 	0.67087	0.59063	0.94043	0.411
Mof_C 	C 	0.80537	0.78353	0.00413	0.313
Mof_H 	H 	0.76887	0.77583	0.00733	-0.092
Mof_H 	H 	0.83057	0.80893	0.01423	-0.239
Mof_H 	H 	0.81557	0.79933	0.99043	-0.075
Mof_O 	O 	0.69517	0.42783	0.98953	3.95
Mof_C 	C 	0.85787	0.74323	0.96513	-0.033
Mof_H 	H 	0.86067	0.77903	0.96573	0.041
Mof_H 	H 	0.86677	0.73813	0.95093	0.029
Mof_O 	O 	0.70947	0.42913	0.98333	-4.382
Mof_C 	C 	0.90017	0.74333	0.97959	-0.103
Mof_O 	O 	0.65207	0.48203	0.96013	-0.977
Mof_C 	C 	0.93747	0.79313	0.98843	-0.154
Mof_H 	H 	0.93497	0.82423	0.98543	0.053
Mof_O 	O 	0.64097	0.48703	0.96663	0.474
Mof_C 	C 	0.97967	0.79773	0.00219	-0.059
Mof_C 	C 	0.98157	0.75013	0.00653	-0.099
Mof_H 	H 	0.00857	0.75223	0.01543	0.083
Mof_C 	C 	0.94527	0.70103	0.99803	-0.116
Mof_C 	C 	0.90557	0.69653	0.98378	0.168
Mof_C 	C 	0.01957	0.85683	0.01013	0.127
Mof_C 	C 	0.89577	0.64593	0.95393	0.242
Mof_H 	H 	0.93267	0.65353	0.95633	-0.045
Mof_H 	H 	0.87417	0.60973	0.94823	-0.221
Mof_H 	H 	0.89627	0.67243	0.94433	-0.077
Mof_C 	C 	0.95047	0.65093	0.00293	-0.036
Mof_H 	H 	0.96467	0.64223	0.99053	0.039
Mof_H 	H 	0.97787	0.66093	0.01383	0.044
Mof_C 	C 	0.89817	0.59813	0.00983	-0.15
Mof_C 	C 	0.88037	0.54693	0.00093	-0.099
Mof_H 	H 	0.90017	0.54533	0.98963	0.01
Mof_C 	C 	0.83667	0.49913	0.00723	-0.185
Mof_C 	C 	0.80527	0.50093	0.02203	-0.071
Mof_H 	H 	0.77337	0.46883	0.02583	-0.013
Mof_C 	C 	0.81947	0.55313	0.03283	-0.2
Mof_C 	C 	0.86637	0.59863	0.02623	0.192
Mof_C 	C 	0.82207	0.44223	0.99473	0.344
Mof_C 	C 	0.91907	0.65323	0.05473	0.194
Mof_H 	H 	0.93847	0.63373	0.05233	-0.021
Mof_H 	H 	0.94497	0.69153	0.05673	-0.145
Mof_H 	H 	0.89647	0.63893	0.06693	-0.123
Mof_C 	C 	0.78607	0.55303	0.05073	0.079
Mof_H 	H 	0.75337	0.51703	0.05153	-0.01
Mof_H 	H 	0.80697	0.55813	0.06343	-0.005
Mof_C 	C 	0.76837	0.59563	0.05029	-0.235
Mof_C 	C 	0.77747	0.62793	0.0677	0.062
Mof_H 	H 	0.79457	0.62243	0.07913	-0.092
Mof_C 	C 	0.76247	0.66833	0.06933	-0.369
Mof_Rb	Rb	0.52545	0.54975	0.96171	1.94
Mof_C 	C 	0.73687	0.67503	0.05192	0.013
Mof_H 	H 	0.72707	0.70213	0.05213	-0.026
Mof_C 	C 	0.72527	0.64263	0.03408	-0.232
Mof_C 	C 	0.74147	0.60573	0.03373	0.221
Mof_C 	C 	0.77317	0.69673	0.08853	0.352
Mof_C 	C 	0.67277	0.51953	0.01763	0.367
Mof_H 	H 	0.64447	0.52893	0.01633	-0.111
Mof_H 	H 	0.66947	0.49503	0.00653	-0.347
Mof_H 	H 	0.66917	0.50183	0.03083	-0.115
Mof_C 	C 	0.69657	0.65153	0.01523	0.111
Mof_H 	H 	0.69507	0.68473	0.01773	-0.026
Mof_H 	H 	0.65897	0.62123	0.01493	-0.032
Mof_Rb	Rb	0.43223	0.87943	0.30923	3.975
Mof_O 	O 	0.14683	0.94017	0.27377	-0.725
Mof_C 	C 	0.30743	0.08797	0.23531	0.217
Mof_Rb	Rb	0.54461	0.07873	0.37329	3.17
Mof_O 	O 	0.11533	0.98357	0.25987	-0.427
Mof_C 	C 	0.30403	0.05327	0.25137	-0.314
Mof_Rb	Rb	0.24776	0.12177	0.2864	3.636
Mof_O 	O 	0.35723	0.12057	0.22455	-0.515
Mof_C 	C 	0.25683	0.02107	0.25967	0.182
Mof_H 	H 	0.25553	0.99767	0.27027	-0.262
Mof_Rb	Rb	0.4581	0.23001	0.22824	2.595
Mof_O 	O 	0.41243	0.28117	0.16717	-0.879
Mof_C 	C 	0.20533	0.01857	0.25387	-0.524
Mof_Rb	Rb	0.18843	0.89427	0.30045	1.897
Mof_O 	O 	0.45043	0.35617	0.18727	-0.473
Mof_C 	C 	0.21073	0.05527	0.23798	0.068
Mof_H 	H 	0.17993	0.05697	0.23367	-0.018
Mof_O 	O 	0.26943	0.18847	0.24876	-0.589
Mof_C 	C 	0.26233	0.08997	0.22809	-0.209
Mof_O 	O 	0.23033	0.24017	0.32427	-0.319
Mof_C 	C 	0.15323	0.98047	0.26317	0.546
Mof_O 	O 	0.27953	0.20817	0.34377	-0.313
Mof_C 	C 	0.36573	0.09217	0.20737	0.148
Mof_H 	H 	0.38163	0.07117	0.21257	-0.043
Mof_H 	H 	0.39003	0.11847	0.19737	-0.137
Mof_H 	H 	0.33123	0.06797	0.20087	-0.01
Mof_O 	O 	0.43023	0.27197	0.26597	-0.493
Mof_C 	C 	0.26373	0.12997	0.21167	0.07
Mof_H 	H 	0.27003	0.11857	0.19817	0.008
Mof_H 	H 	0.22793	0.12707	0.21117	0.002
Mof_O 	O 	0.59623	0.22317	0.26377	-0.376
Mof_C 	C 	0.30613	0.18917	0.21487	-0.23
Mof_O 	O 	0.56593	0.15517	0.24247	-0.411
Mof_C 	C 	0.34013	0.21767	0.19977	0.095
Mof_H 	H 	0.33863	0.20007	0.18737	-0.106
Mof_O 	O 	0.34653	0.11607	0.29051	-0.733
Mof_C 	C 	0.37953	0.27487	0.20187	-0.368
Mof_C 	C 	0.38113	0.30017	0.22097	0.036
Mof_H 	H 	0.40623	0.33727	0.22297	-0.024
Mof_C 	C 	0.34543	0.26977	0.23677	-0.195
Mof_C 	C 	0.30603	0.21557	0.23417	0.25
Mof_C 	C 	0.41793	0.30637	0.18237	0.531
Mof_C 	C 	0.22253	0.19497	0.24467	0.106
Mof_H 	H 	0.22753	0.22767	0.25137	-0.015
Mof_H 	H 	0.18993	0.16367	0.24987	-0.069
Mof_H 	H 	0.21903	0.19807	0.22987	0.004
Mof_O 	O 	0.14133	0.09667	0.27987	-0.45
Mof_C 	C 	0.34563	0.29877	0.25787	-0.031
Mof_H 	H 	0.37633	0.33607	0.25727	0.032
Mof_H 	H 	0.31243	0.30137	0.25807	0.043
Mof_O 	O 	0.31133	0.80367	0.46397	-0.445
Mof_C 	C 	0.34893	0.27477	0.27807	-0.098
Mof_C 	C 	0.31113	0.26357	0.29227	-0.128
Mof_H 	H 	0.28213	0.26957	0.28937	0.047
Mof_C 	C 	0.31393	0.24337	0.31107	-0.186
Mof_C 	C 	0.35903	0.22957	0.31137	-0.174
Mof_H 	H 	0.36003	0.21287	0.32377	0.065
Mof_O 	O 	0.10073	0.83297	0.29407	-0.799
Mof_C 	C 	0.39593	0.23547	0.29867	-0.065
Mof_O 	O 	0.22333	0.82327	0.32217	-0.141
Mof_C 	C 	0.39403	0.26317	0.28057	0.138
Mof_O 	O 	0.20223	0.81167	0.32387	-0.346
Mof_C 	C 	0.26973	0.23317	0.32697	0.203
Mof_O 	O 	0.28723	0.89747	0.27689	-0.68
Mof_C 	C 	0.47723	0.32497	0.27077	0.043
Mof_H 	H 	0.47993	0.35157	0.26077	-0.033
Mof_H 	H 	0.51013	0.32247	0.27037	-0.058
Mof_H 	H 	0.47303	0.33617	0.28447	0.031
Mof_O 	O 	0.36163	0.92467	0.25687	-0.242
Mof_C 	C 	0.43363	0.21817	0.30457	-0.04
Mof_H 	H 	0.42043	0.19647	0.31717	0.04
Mof_H 	H 	0.46873	0.25027	0.30767	0.057
Mof_O 	O 	0.36833	0.89667	0.25637	-0.163
Mof_C 	C 	0.44233	0.18327	0.28747	-0.196
Mof_O 	O 	0.47403	0.06767	0.33815	-0.594
Mof_C 	C 	0.49473	0.19517	0.27797	0.036
Mof_H 	H 	0.52643	0.22727	0.28187	-0.014
Mof_O 	O 	0.68563	0.22737	0.33577	-0.34
Mof_C 	C 	0.49913	0.16427	0.26477	-0.315
Mof_O 	O 	0.72433	0.20287	0.35777	1.34
Mof_C 	C 	0.45943	0.12387	0.25907	0.082
Mof_H 	H 	0.46423	0.10267	0.24897	-0.038
Mof_O 	O 	0.72333	0.18387	0.35557	-1.581
Mof_C 	C 	0.40163	0.10387	0.26667	-0.27
Mof_O 	O 	0.53853	0.98277	0.30695	-0.629
Mof_C 	C 	0.39643	0.13377	0.28157	0.302
Mof_O 	O 	0.51833	0.77757	0.31467	-0.348
Mof_C 	C 	0.55953	0.18027	0.25627	0.348
Mof_O 	O 	0.44443	0.73427	0.33787	-0.381
Mof_C 	C 	0.34073	0.08177	0.30727	0.577
Mof_H 	H 	0.35263	0.05657	0.30317	-0.176
Mof_H 	H 	0.30283	0.06157	0.31137	-0.343
Mof_H 	H 	0.36263	0.10357	0.31877	-0.178
Mof_O 	O 	0.55113	0.97997	0.37005	-0.571
Mof_C 	C 	0.35513	0.05117	0.25847	0.16
Mof_H 	H 	0.34413	0.02337	0.26927	-0.045
Mof_H 	H 	0.36843	0.03937	0.24667	-0.025
Mof_O 	O 	0.45223	0.01497	0.43837	-0.44
Mof_C 	C 	0.38683	0.98937	0.32767	-0.244
Mof_O 	O 	0.43293	0.07347	0.42187	-0.378
Mof_C 	C 	0.35423	0.95587	0.31167	0.069
Mof_H 	H 	0.31753	0.93067	0.31427	-0.161
Mof_O 	O 	0.39383	0.90327	0.3498	-0.627
Mof_C 	C 	0.37503	0.95887	0.29157	-0.345
Mof_C 	C 	0.43173	0.99817	0.28747	-0.129
Mof_H 	H 	0.44603	7e-05	0.27427	0.032
Mof_C 	C 	0.46523	0.03307	0.30286	-0.112
Mof_O 	O 	0.65773	0.13887	0.39147	-0.414
Mof_C 	C 	0.44093	0.02947	0.32287	0.192
Mof_O 	O 	0.65943	0.11517	0.38837	-0.059
Mof_C 	C 	0.33753	0.92397	0.27377	0.396
Mof_C 	C 	0.47203	0.11687	0.33747	0.315
Mof_H 	H 	0.43553	0.10917	0.34067	-0.092
Mof_H 	H 	0.49723	0.14227	0.34757	-0.242
Mof_H 	H 	0.48223	0.13267	0.32377	-0.076
Mof_O 	O 	0.36183	0.76117	0.32287	3.936
Mof_C 	C 	0.52453	0.07657	0.29847	-0.065
Mof_H 	H 	0.52733	0.11237	0.29907	0.05
Mof_H 	H 	0.53343	0.07147	0.28427	0.04
Mof_O 	O 	0.37613	0.76247	0.31667	-4.366
Mof_C 	C 	0.56683	0.07667	0.31293	-0.087
Mof_O 	O 	0.31873	0.81537	0.29347	-0.974
Mof_C 	C 	0.60413	0.12647	0.32177	-0.165
Mof_H 	H 	0.60163	0.15757	0.31877	0.054
Mof_O 	O 	0.30763	0.82037	0.29997	0.473
Mof_C 	C 	0.64633	0.13107	0.33553	-0.054
Mof_C 	C 	0.64823	0.08347	0.33987	-0.159
Mof_H 	H 	0.67523	0.08557	0.34877	0.123
Mof_C 	C 	0.61193	0.03437	0.33137	-0.074
Mof_C 	C 	0.57223	0.02987	0.31712	0.165
Mof_C 	C 	0.68623	0.19017	0.34347	0.137
Mof_C 	C 	0.56243	0.97927	0.28727	0.167
Mof_H 	H 	0.59933	0.98687	0.28967	-0.033
Mof_H 	H 	0.54083	0.94307	0.28157	-0.201
Mof_H 	H 	0.56293	0.00577	0.27767	-0.041
Mof_C 	C 	0.61713	0.98427	0.33627	-0.073
Mof_H 	H 	0.63133	0.97557	0.32387	0.04
Mof_H 	H 	0.64453	0.99427	0.34717	0.043
Mof_C 	C 	0.56483	0.93147	0.34317	-0.139
Mof_C 	C 	0.54703	0.88027	0.33427	-0.106
Mof_H 	H 	0.56683	0.87867	0.32297	0.01
Mof_C 	C 	0.50333	0.83247	0.34057	-0.18
Mof_C 	C 	0.47193	0.83427	0.35537	-0.076
Mof_H 	H 	0.44003	0.80217	0.35917	-0.011
Mof_C 	C 	0.48613	0.88647	0.36617	-0.191
Mof_C 	C 	0.53303	0.93197	0.35957	0.181
Mof_C 	C 	0.48873	0.77557	0.32807	0.343
Mof_C 	C 	0.58573	0.98657	0.38807	0.111
Mof_H 	H 	0.60513	0.96707	0.38567	-0.001
Mof_H 	H 	0.61163	0.02487	0.39007	-0.11
Mof_H 	H 	0.56313	0.97227	0.40027	-0.103
Mof_C 	C 	0.45273	0.88637	0.38407	0.067
Mof_H 	H 	0.42003	0.85037	0.38487	-0.006
Mof_H 	H 	0.47363	0.89147	0.39677	-0.002
Mof_C 	C 	0.43503	0.92897	0.38363	-0.222
Mof_C 	C 	0.44413	0.96127	0.40104	0.024
Mof_H 	H 	0.46123	0.95577	0.41247	-0.084
Mof_C 	C 	0.42913	0.00167	0.40267	-0.342
Mof_Rb	Rb	0.19211	0.88309	0.29505	1.921
Mof_C 	C 	0.40353	0.00837	0.38526	0.024
Mof_H 	H 	0.39373	0.03547	0.38547	-0.028
Mof_C 	C 	0.39193	0.97597	0.36742	-0.24
Mof_C 	C 	0.40813	0.93907	0.36707	0.214
Mof_C 	C 	0.43983	0.03007	0.42187	0.343
Mof_C 	C 	0.33943	0.85287	0.35097	0.364
Mof_H 	H 	0.31113	0.86227	0.34967	-0.11
Mof_H 	H 	0.33613	0.82837	0.33987	-0.345
Mof_H 	H 	0.33583	0.83517	0.36417	-0.114
Mof_C 	C 	0.36323	0.98487	0.34857	0.068
Mof_H 	H 	0.36173	0.01807	0.35107	0
Mof_H 	H 	0.32563	0.95457	0.34827	-0.021
Mof_Rb	Rb	0.11386	0.9011	0.64256	3.927
Mof_O 	O 	0.46	0.1865	0.6071	-0.724
Mof_C 	C 	0.4472	0.0259	0.56864	0.212
Mof_Rb	Rb	0.20078	0.78872	0.70662	3.139
Mof_O 	O 	0.5349	0.218	0.5932	-0.417
Mof_C 	C 	0.4159	0.0293	0.5847	-0.272
Mof_Rb	Rb	0.54067	0.08557	0.61973	3.656
Mof_O 	O 	0.43	0.9761	0.55788	-0.513
Mof_C 	C 	0.4309	0.0765	0.593	0.123
Mof_H 	H 	0.4088	0.0778	0.6036	-0.225
Mof_Rb	Rb	0.43857	0.87523	0.56157	2.582
Mof_O 	O 	0.5354	0.9209	0.5005	-0.87
Mof_C 	C 	0.4799	0.128	0.5872	-0.527
Mof_Rb	Rb	0.3725	0.1449	0.63378	1.901
Mof_O 	O 	0.5724	0.8829	0.5206	-0.472
Mof_C 	C 	0.5112	0.1226	0.57131	0.06
Mof_H 	H 	0.5437	0.1534	0.567	-0.021
Mof_O 	O 	0.5857	0.0639	0.58209	-0.589
Mof_C 	C 	0.4943	0.071	0.56142	-0.2
Mof_O 	O 	0.6765	0.103	0.6576	-0.317
Mof_C 	C 	0.4939	0.1801	0.5965	0.56
Mof_O 	O 	0.5953	0.0538	0.6771	-0.307
Mof_C 	C 	0.3931	0.9676	0.5407	0.072
Mof_H 	H 	0.3562	0.9517	0.5459	-0.029
Mof_H 	H 	0.3951	0.9433	0.5307	-0.118
Mof_H 	H 	0.4034	0.0021	0.5342	0.02
Mof_O 	O 	0.5084	0.9031	0.5993	-0.492
Mof_C 	C 	0.5329	0.0696	0.545	0.049
Mof_H 	H 	0.5152	0.0633	0.5315	0.017
Mof_H 	H 	0.5658	0.1054	0.5445	0.007
Mof_O 	O 	0.2936	0.7371	0.5971	-0.375
Mof_C 	C 	0.5497	0.0272	0.5482	-0.194
Mof_O 	O 	0.2559	0.7674	0.5758	-0.411
Mof_C 	C 	0.5442	0.9932	0.5331	0.051
Mof_H 	H 	0.5281	0.9947	0.5207	-0.097
Mof_O 	O 	0.4362	0.9868	0.62384	-0.728
Mof_C 	C 	0.562	0.9538	0.5352	-0.357
Mof_C 	C 	0.5857	0.9522	0.5543	0.03
Mof_H 	H 	0.5977	0.9271	0.5563	-0.024
Mof_C 	C 	0.591	0.9879	0.5701	-0.207
Mof_C 	C 	0.5762	0.0273	0.5675	0.26
Mof_C 	C 	0.5551	0.9154	0.5157	0.522
Mof_C 	C 	0.6391	0.1108	0.578	0.107
Mof_H 	H 	0.6668	0.1058	0.5847	-0.015
Mof_H 	H 	0.6404	0.1434	0.5832	-0.07
Mof_H 	H 	0.6457	0.1143	0.5632	0.003
Mof_O 	O 	0.622	0.192	0.6132	-0.454
Mof_C 	C 	0.6198	0.9877	0.5912	-0.058
Mof_H 	H 	0.6264	0.957	0.5906	0.038
Mof_H 	H 	0.6556	0.0209	0.5914	0.063
Mof_O 	O 	0.159	0.022	0.7973	-0.439
Mof_C 	C 	0.5925	0.9844	0.6114	-0.117
Mof_C 	C 	0.6191	0.0222	0.6256	-0.104
Mof_H 	H 	0.6541	0.0512	0.6227	0.041
Mof_C 	C 	0.5961	0.0194	0.6444	-0.171
Mof_C 	C 	0.5372	0.9743	0.6447	-0.202
Mof_H 	H 	0.5195	0.9733	0.6571	0.068
Mof_O 	O 	0.3989	0.2326	0.6274	-0.798
Mof_C 	C 	0.5062	0.9374	0.632	-0.055
Mof_O 	O 	0.2666	0.11	0.6555	-0.149
Mof_C 	C 	0.5358	0.9393	0.6139	0.136
Mof_O 	O 	0.2761	0.1311	0.6572	-0.339
Mof_C 	C 	0.6301	0.0636	0.6603	0.201
Mof_O 	O 	0.2769	0.0461	0.61022	-0.66
Mof_C 	C 	0.5144	0.8561	0.6041	0.043
Mof_H 	H 	0.5383	0.8534	0.5941	-0.033
Mof_H 	H 	0.479	0.8232	0.6037	-0.057
Mof_H 	H 	0.5298	0.8603	0.6178	0.031
Mof_O 	O 	0.2297	0.9717	0.5902	-0.23
Mof_C 	C 	0.4512	0.8997	0.6379	-0.05
Mof_H 	H 	0.4427	0.9129	0.6505	0.041
Mof_H 	H 	0.4482	0.8646	0.641	0.059
Mof_O 	O 	0.195	0.965	0.5897	-0.176
Mof_C 	C 	0.4076	0.891	0.6208	-0.189
Mof_O 	O 	0.2603	0.8593	0.67148	-0.589
Mof_C 	C 	0.3671	0.8386	0.6113	0.029
Mof_H 	H 	0.3675	0.8069	0.6152	-0.011
Mof_O 	O 	0.2084	0.6477	0.6691	-0.34
Mof_C 	C 	0.3318	0.8342	0.5981	-0.307
Mof_O 	O 	0.1452	0.609	0.6911	1.293
Mof_C 	C 	0.3311	0.8739	0.5924	0.073
Mof_H 	H 	0.3051	0.8691	0.5823	-0.037
Mof_O 	O 	0.1272	0.61	0.6889	-1.538
Mof_C 	C 	0.3689	0.9317	0.6	-0.259
Mof_O 	O 	0.1109	0.7948	0.64028	-0.627
Mof_C 	C 	0.404	0.9369	0.6149	0.291
Mof_O 	O 	0.9259	0.815	0.648	-0.346
Mof_C 	C 	0.2874	0.7738	0.5896	0.346
Mof_O 	O 	0.9565	0.8889	0.6712	-0.379
Mof_C 	C 	0.4077	0.9926	0.6406	0.5
Mof_H 	H 	0.3706	0.9807	0.6365	-0.161
Mof_H 	H 	0.4254	0.0305	0.6447	-0.313
Mof_H 	H 	0.4076	0.9707	0.6521	-0.16
Mof_O 	O 	0.0955	0.7822	0.70338	-0.581
Mof_C 	C 	0.3627	0.9782	0.5918	0.122
Mof_H 	H 	0.3459	0.9892	0.6026	-0.048
Mof_H 	H 	0.3376	0.9649	0.58	-0.024
Mof_O 	O 	0.2294	0.8811	0.7717	-0.454
Mof_C 	C 	0.2692	0.9465	0.661	-0.199
Mof_O 	O 	0.3072	0.9004	0.7552	-0.384
Mof_C 	C 	0.2683	0.9791	0.645	0.014
Mof_H 	H 	0.2798	0.0158	0.6476	-0.129
Mof_O 	O 	0.1761	0.9395	0.68313	-0.608
Mof_C 	C 	0.2505	0.9583	0.6249	-0.337
Mof_C 	C 	0.2331	0.9016	0.6208	-0.061
Mof_H 	H 	0.2207	0.8873	0.6076	-0.005
Mof_C 	C 	0.2345	0.8681	0.63619	-0.145
Mof_O 	O 	0.1478	0.6756	0.7248	-0.41
Mof_C 	C 	0.2552	0.8924	0.6562	0.17
Mof_O 	O 	0.1224	0.6739	0.7217	-0.063
Mof_C 	C 	0.2531	0.9958	0.6071	0.368
Mof_C 	C 	0.3115	0.8613	0.6708	0.312
Mof_H 	H 	0.3403	0.8978	0.674	-0.094
Mof_H 	H 	0.3117	0.8361	0.6809	-0.24
Mof_H 	H 	0.3171	0.8511	0.6571	-0.075
Mof_O 	O 	0.066	0.9715	0.6562	3.896
Mof_C 	C 	0.2187	0.8088	0.6318	-0.045
Mof_H 	H 	0.2517	0.806	0.6324	0.044
Mof_H 	H 	0.2047	0.7999	0.6176	0.033
Mof_O 	O 	0.053	0.9572	0.65	-4.343
Mof_C 	C 	0.1765	0.7665	0.64626	-0.097
Mof_O 	O 	0.1633	0.0146	0.6268	-0.941
Mof_C 	C 	0.189	0.7292	0.6551	-0.153
Mof_H 	H 	0.2226	0.7317	0.6521	0.05
Mof_O 	O 	0.1794	0.0257	0.6333	0.453
Mof_C 	C 	0.1514	0.687	0.66886	-0.068
Mof_C 	C 	0.1019	0.6851	0.6732	-0.135
Mof_H 	H 	0.077	0.6581	0.6821	0.108
Mof_C 	C 	0.0891	0.7214	0.6647	-0.11
Mof_C 	C 	0.1243	0.7611	0.65045	0.165
Mof_C 	C 	0.1706	0.6471	0.6768	0.145
Mof_C 	C 	0.0835	0.7709	0.6206	0.251
Mof_H 	H 	0.0542	0.734	0.623	-0.054
Mof_H 	H 	0.0689	0.7925	0.6149	-0.227
Mof_H 	H 	0.1095	0.7704	0.611	-0.08
Mof_C 	C 	0.0338	0.7162	0.6696	-0.02
Mof_H 	H 	0.0109	0.702	0.6572	0.023
Mof_H 	H 	0.0164	0.6888	0.6805	0.028
Mof_C 	C 	0.0333	0.7685	0.6765	-0.178
Mof_C 	C 	0.9999	0.7863	0.6676	-0.07
Mof_H 	H 	0.9785	0.7665	0.6563	0.005
Mof_C 	C 	0.9958	0.83	0.6739	-0.164
Mof_C 	C 	0.029	0.8614	0.6887	-0.1
Mof_H 	H 	0.0288	0.8933	0.6925	-0.01
Mof_C 	C 	0.067	0.8472	0.6995	-0.196
Mof_C 	C 	0.0656	0.8003	0.6929	0.198
Mof_C 	C 	0.9535	0.8446	0.6614	0.343
Mof_C 	C 	0.0675	0.7476	0.7214	0.215
Mof_H 	H 	0.0286	0.7282	0.719	-0.036
Mof_H 	H 	0.0799	0.7217	0.7234	-0.155
Mof_H 	H 	0.0758	0.7702	0.7336	-0.133
Mof_C 	C 	0.1003	0.8806	0.7174	0.074
Mof_H 	H 	0.097	0.9133	0.7182	-0.011
Mof_H 	H 	0.0845	0.8597	0.7301	-0.006
Mof_C 	C 	0.1606	0.8983	0.71696	-0.225
Mof_C 	C 	0.1838	0.8892	0.73437	0.052
Mof_H 	H 	0.1612	0.8721	0.7458	-0.09
Mof_C 	C 	0.2392	0.9042	0.736	-0.36
Mof_Rb	Rb	0.35764	0.14122	0.62838	1.937
Mof_C 	C 	0.2715	0.9298	0.71859	-0.006
Mof_H 	H 	0.3084	0.9396	0.7188	-0.024
Mof_C 	C 	0.2507	0.9414	0.70075	-0.206
Mof_C 	C 	0.1976	0.9252	0.7004	0.2
Mof_C 	C 	0.2569	0.8935	0.7552	0.347
Mof_C 	C 	0.1801	0.9939	0.6843	0.277
Mof_H 	H 	0.2178	0.0222	0.683	-0.071
Mof_H 	H 	0.1589	0.9972	0.6732	-0.324
Mof_H 	H 	0.166	0.9975	0.6975	-0.095
Mof_C 	C 	0.2883	0.9701	0.6819	0.033
Mof_H 	H 	0.323	0.9716	0.6844	-0.009
Mof_H 	H 	0.2956	0.0077	0.6816	0.003
Mof_Rb	Rb	0.78053	0.23443	0.97589	3.993
Mof_O 	O 	0.12667	0.51983	0.94043	-0.72
Mof_C 	C 	0.11387	0.35923	0.90197	0.215
Mof_Rb	Rb	0.86745	0.12205	0.03995	3.169
Mof_O 	O 	0.20157	0.55133	0.92653	-0.417
Mof_C 	C 	0.08257	0.36263	0.91803	-0.308
Mof_Rb	Rb	0.20734	0.4189	0.95306	3.626
Mof_O 	O 	0.09667	0.30943	0.89121	-0.517
Mof_C 	C 	0.09757	0.40983	0.92633	0.143
Mof_H 	H 	0.07547	0.41113	0.93693	-0.234
Mof_Rb	Rb	0.10524	0.20856	0.8949	2.573
Mof_O 	O 	0.20207	0.25423	0.83383	-0.879
Mof_C 	C 	0.14657	0.46133	0.92053	-0.535
Mof_Rb	Rb	0.03917	0.47823	0.96711	1.854
Mof_O 	O 	0.23907	0.21623	0.85393	-0.472
Mof_C 	C 	0.17787	0.45593	0.90464	0.07
Mof_H 	H 	0.21037	0.48673	0.90033	-0.023
Mof_O 	O 	0.25237	0.39723	0.91542	-0.588
Mof_C 	C 	0.16097	0.40433	0.89475	-0.21
Mof_O 	O 	0.34317	0.43633	0.99093	-0.319
Mof_C 	C 	0.16057	0.51343	0.92983	0.562
Mof_O 	O 	0.26197	0.38713	0.01043	-0.313
Mof_C 	C 	0.05977	0.30093	0.87403	0.168
Mof_H 	H 	0.02287	0.28503	0.87923	-0.058
Mof_H 	H 	0.06177	0.27663	0.86403	-0.146
Mof_H 	H 	0.07007	0.33543	0.86753	-0.023
Mof_O 	O 	0.17507	0.23643	0.93263	-0.49
Mof_C 	C 	0.19957	0.40293	0.87833	0.071
Mof_H 	H 	0.18187	0.39663	0.86483	0.007
Mof_H 	H 	0.23247	0.43873	0.87783	0.001
Mof_O 	O 	0.96027	0.07043	0.93043	-0.362
Mof_C 	C 	0.21637	0.36053	0.88153	-0.229
Mof_O 	O 	0.92257	0.10073	0.90913	-0.404
Mof_C 	C 	0.21087	0.32653	0.86643	0.096
Mof_H 	H 	0.19477	0.32803	0.85403	-0.106
Mof_O 	O 	0.10287	0.32013	0.95717	-0.737
Mof_C 	C 	0.22867	0.28713	0.86853	-0.367
Mof_C 	C 	0.25237	0.28553	0.88763	0.036
Mof_H 	H 	0.26437	0.26043	0.88963	-0.024
Mof_C 	C 	0.25767	0.32123	0.90343	-0.194
Mof_C 	C 	0.24287	0.36063	0.90083	0.249
Mof_C 	C 	0.22177	0.24873	0.84903	0.531
Mof_C 	C 	0.30577	0.44413	0.91133	0.105
Mof_H 	H 	0.33347	0.43913	0.91803	-0.015
Mof_H 	H 	0.30707	0.47673	0.91653	-0.069
Mof_H 	H 	0.31237	0.44763	0.89653	0.004
Mof_O 	O 	0.28867	0.52533	0.94653	-0.451
Mof_C 	C 	0.28647	0.32103	0.92453	-0.032
Mof_H 	H 	0.29307	0.29033	0.92393	0.033
Mof_H 	H 	0.32227	0.35423	0.92473	0.043
Mof_O 	O 	0.82567	0.35533	0.13063	-0.447
Mof_C 	C 	0.25917	0.31773	0.94473	-0.096
Mof_C 	C 	0.28577	0.35553	0.95893	-0.129
Mof_H 	H 	0.32077	0.38453	0.95603	0.048
Mof_C 	C 	0.26277	0.35273	0.97773	-0.184
Mof_C 	C 	0.20387	0.30763	0.97803	-0.176
Mof_H 	H 	0.18617	0.30663	0.99043	0.066
Mof_O 	O 	0.06557	0.56593	0.96073	-0.794
Mof_C 	C 	0.17287	0.27073	0.96533	-0.06
Mof_O 	O 	0.93327	0.44333	0.98883	-0.104
Mof_C 	C 	0.20247	0.27263	0.94723	0.135
Mof_O 	O 	0.94277	0.46443	0.99053	-0.373
Mof_C 	C 	0.29677	0.39693	0.99363	0.202
Mof_O 	O 	0.94357	0.37943	0.94355	-0.672
Mof_C 	C 	0.18107	0.18943	0.93743	0.041
Mof_H 	H 	0.20497	0.18673	0.92743	-0.032
Mof_H 	H 	0.14567	0.15653	0.93703	-0.057
Mof_H 	H 	0.19647	0.19363	0.95113	0.032
Mof_O 	O 	0.89637	0.30503	0.92353	-0.236
Mof_C 	C 	0.11787	0.23303	0.97123	-0.048
Mof_H 	H 	0.10937	0.24623	0.98383	0.041
Mof_H 	H 	0.11487	0.19793	0.97433	0.059
Mof_O 	O 	0.86167	0.29833	0.92303	-0.163
Mof_C 	C 	0.07427	0.22433	0.95413	-0.186
Mof_O 	O 	0.92697	0.19263	0.00481	-0.612
Mof_C 	C 	0.03377	0.17193	0.94463	-0.006
Mof_H 	H 	0.03417	0.14023	0.94853	-0.004
Mof_O 	O 	0.87507	0.98103	0.00243	-0.341
Mof_C 	C 	0.99847	0.16753	0.93143	-0.279
Mof_O 	O 	0.81187	0.94233	0.02443	1.224
Mof_C 	C 	0.99777	0.20723	0.92573	0.088
Mof_H 	H 	0.97177	0.20243	0.91563	-0.036
Mof_O 	O 	0.79387	0.94333	0.02223	-1.471
Mof_C 	C 	0.03557	0.26503	0.93333	-0.286
Mof_O 	O 	0.77757	0.12813	0.97361	-0.63
Mof_C 	C 	0.07067	0.27023	0.94823	0.302
Mof_O 	O 	0.59257	0.14833	0.98133	-0.347
Mof_C 	C 	0.95407	0.10713	0.92293	0.339
Mof_O 	O 	0.62317	0.22223	0.00453	-0.381
Mof_C 	C 	0.07437	0.32593	0.97393	0.598
Mof_H 	H 	0.03727	0.31403	0.96983	-0.191
Mof_H 	H 	0.09207	0.36383	0.97803	-0.354
Mof_H 	H 	0.07427	0.30403	0.98543	-0.186
Mof_O 	O 	0.76217	0.11553	0.03671	-0.579
Mof_C 	C 	0.02937	0.31153	0.92513	0.169
Mof_H 	H 	0.01257	0.32253	0.93593	-0.06
Mof_H 	H 	0.00427	0.29823	0.91333	-0.039
Mof_O 	O 	0.89607	0.21443	0.10503	-0.452
Mof_C 	C 	0.93587	0.27983	0.99433	-0.239
Mof_O 	O 	0.97387	0.23373	0.08853	-0.372
Mof_C 	C 	0.93497	0.31243	0.97833	0.088
Mof_H 	H 	0.94647	0.34913	0.98093	-0.162
Mof_O 	O 	0.84277	0.27283	0.01646	-0.628
Mof_C 	C 	0.91717	0.29163	0.95823	-0.369
Mof_C 	C 	0.89977	0.23493	0.95413	-0.038
Mof_H 	H 	0.88737	0.22063	0.94093	-0.012
Mof_C 	C 	0.90117	0.20143	0.96952	-0.163
Mof_O 	O 	0.81447	0.00893	0.05813	-0.402
Mof_C 	C 	0.92187	0.22573	0.98953	0.197
Mof_O 	O 	0.78907	0.00723	0.05503	-0.059
Mof_C 	C 	0.91977	0.32913	0.94043	0.409
Mof_C 	C 	0.97817	0.19463	0.00413	0.402
Mof_H 	H 	0.00697	0.23113	0.00733	-0.134
Mof_H 	H 	0.97837	0.16943	0.01423	-0.261
Mof_H 	H 	0.98377	0.18443	0.99043	-0.095
Mof_O 	O 	0.73267	0.30483	0.98953	3.947
Mof_C 	C 	0.88537	0.14213	0.96513	-0.033
Mof_H 	H 	0.91837	0.13933	0.96573	0.043
Mof_H 	H 	0.87137	0.13323	0.95093	0.029
Mof_O 	O 	0.71967	0.29053	0.98333	-4.378
Mof_C 	C 	0.84317	0.09983	0.97959	-0.104
Mof_O 	O 	0.82997	0.34793	0.96013	-0.976
Mof_C 	C 	0.85567	0.06253	0.98843	-0.15
Mof_H 	H 	0.88927	0.06503	0.98543	0.054
Mof_O 	O 	0.84607	0.35903	0.96663	0.473
Mof_C 	C 	0.81807	0.02033	0.00219	-0.068
Mof_C 	C 	0.76857	0.01843	0.00653	-0.097
Mof_H 	H 	0.74367	0.99143	0.01543	0.079
Mof_C 	C 	0.75577	0.05473	0.99803	-0.119
Mof_C 	C 	0.79097	0.09443	0.98378	0.169
Mof_C 	C 	0.83727	0.98043	0.01013	0.136
Mof_C 	C 	0.75017	0.10423	0.95393	0.242
Mof_H 	H 	0.72087	0.06733	0.95633	-0.045
Mof_H 	H 	0.73557	0.12583	0.94823	-0.221
Mof_H 	H 	0.77617	0.10373	0.94433	-0.077
Mof_C 	C 	0.70047	0.04953	0.00293	-0.034
Mof_H 	H 	0.67757	0.03533	0.99053	0.038
Mof_H 	H 	0.68307	0.02213	0.01383	0.043
Mof_C 	C 	0.69997	0.10183	0.00983	-0.151
Mof_C 	C 	0.66657	0.11963	0.00093	-0.098
Mof_H 	H 	0.64517	0.09983	0.98963	0.01
Mof_C 	C 	0.66247	0.16333	0.00723	-0.185
Mof_C 	C 	0.69567	0.19473	0.02203	-0.071
Mof_H 	H 	0.69547	0.22663	0.02583	-0.013
Mof_C 	C 	0.73367	0.18053	0.03283	-0.2
Mof_C 	C 	0.73227	0.13363	0.02623	0.193
Mof_C 	C 	0.62017	0.17793	0.99473	0.344
Mof_C 	C 	0.73417	0.08093	0.05473	0.196
Mof_H 	H 	0.69527	0.06153	0.05233	-0.022
Mof_H 	H 	0.74657	0.05503	0.05673	-0.146
Mof_H 	H 	0.74247	0.10353	0.06693	-0.124
Mof_C 	C 	0.76697	0.21393	0.05073	0.078
Mof_H 	H 	0.76367	0.24663	0.05153	-0.009
Mof_H 	H 	0.75117	0.19303	0.06343	-0.005
Mof_C 	C 	0.82727	0.23163	0.05029	-0.233
Mof_C 	C 	0.85047	0.22253	0.0677	0.058
Mof_H 	H 	0.82787	0.20543	0.07913	-0.092
Mof_C 	C 	0.90587	0.23753	0.06933	-0.365
Mof_Rb	Rb	0.02431	0.47455	0.96171	1.916
Mof_C 	C 	0.93817	0.26313	0.05192	0.007
Mof_H 	H 	0.97507	0.27293	0.05213	-0.02
Mof_C 	C 	0.91737	0.27473	0.03408	-0.225
Mof_C 	C 	0.86427	0.25853	0.03373	0.217
Mof_C 	C 	0.92357	0.22683	0.08853	0.349
Mof_C 	C 	0.84677	0.32723	0.01763	0.364
Mof_H 	H 	0.88447	0.35553	0.01633	-0.11
Mof_H 	H 	0.82557	0.33053	0.00653	-0.347
Mof_H 	H 	0.83267	0.33083	0.03083	-0.114
Mof_C 	C 	0.95497	0.30343	0.01523	0.1
Mof_H 	H 	0.98967	0.30493	0.01773	-0.015
Mof_H 	H 	0.96227	0.34103	0.01493	-0.023
Mof_Rb	Rb	0.44719	0.56777	0.30923	3.997
Mof_O 	O 	0.79333	0.85317	0.27377	-0.727
Mof_C 	C 	0.78053	0.69257	0.23531	0.212
Mof_Rb	Rb	0.53411	0.45539	0.37329	3.139
Mof_O 	O 	0.86823	0.88467	0.25987	-0.42
Mof_C 	C 	0.74923	0.69597	0.25137	-0.302
Mof_Rb	Rb	0.874	0.75224	0.2864	3.635
Mof_O 	O 	0.76333	0.64277	0.22455	-0.516
Mof_C 	C 	0.76423	0.74317	0.25967	0.142
Mof_H 	H 	0.74213	0.74447	0.27027	-0.235
Mof_Rb	Rb	0.7719	0.5419	0.22824	2.594
Mof_O 	O 	0.86873	0.58757	0.16717	-0.878
Mof_C 	C 	0.81323	0.79467	0.25387	-0.536
Mof_Rb	Rb	0.70583	0.81157	0.30045	1.905
Mof_O 	O 	0.90573	0.54957	0.18727	-0.471
Mof_C 	C 	0.84453	0.78927	0.23798	0.069
Mof_H 	H 	0.87703	0.82007	0.23367	-0.022
Mof_O 	O 	0.91903	0.73057	0.24876	-0.604
Mof_C 	C 	0.82763	0.73767	0.22809	-0.209
Mof_O 	O 	0.00983	0.76967	0.32427	-0.344
Mof_C 	C 	0.82723	0.84677	0.26317	0.565
Mof_O 	O 	0.92863	0.72047	0.34377	-0.313
Mof_C 	C 	0.72643	0.63427	0.20737	0.159
Mof_H 	H 	0.68953	0.61837	0.21257	-0.05
Mof_H 	H 	0.72843	0.60997	0.19737	-0.141
Mof_H 	H 	0.73673	0.66877	0.20087	-0.018
Mof_O 	O 	0.84173	0.56977	0.26597	-0.493
Mof_C 	C 	0.86623	0.73627	0.21167	0.07
Mof_H 	H 	0.84853	0.72997	0.19817	0.007
Mof_H 	H 	0.89913	0.77207	0.21117	0.003
Mof_O 	O 	0.62693	0.40377	0.26377	-0.376
Mof_C 	C 	0.88303	0.69387	0.21487	-0.23
Mof_O 	O 	0.58923	0.43407	0.24247	-0.412
Mof_C 	C 	0.87753	0.65987	0.19977	0.095
Mof_H 	H 	0.86143	0.66137	0.18737	-0.107
Mof_O 	O 	0.76953	0.65347	0.29051	-0.737
Mof_C 	C 	0.89533	0.62047	0.20187	-0.367
Mof_C 	C 	0.91903	0.61887	0.22097	0.037
Mof_H 	H 	0.93103	0.59377	0.22297	-0.022
Mof_C 	C 	0.92433	0.65457	0.23677	-0.192
Mof_C 	C 	0.90953	0.69397	0.23417	0.255
Mof_C 	C 	0.88843	0.58207	0.18237	0.531
Mof_C 	C 	0.97243	0.77747	0.24467	0.197
Mof_H 	H 	0.00013	0.77247	0.25137	-0.059
Mof_H 	H 	0.97373	0.81007	0.24987	-0.092
Mof_H 	H 	0.97903	0.78097	0.22987	-0.018
Mof_O 	O 	0.95533	0.85867	0.27987	-0.449
Mof_C 	C 	0.95313	0.65437	0.25787	-0.036
Mof_H 	H 	0.95973	0.62367	0.25727	0.037
Mof_H 	H 	0.98893	0.68757	0.25807	0.052
Mof_O 	O 	0.49233	0.68867	0.46397	-0.445
Mof_C 	C 	0.92583	0.65107	0.27807	-0.096
Mof_C 	C 	0.95243	0.68887	0.29227	-0.125
Mof_H 	H 	0.98743	0.71787	0.28937	0.053
Mof_C 	C 	0.92943	0.68607	0.31107	-0.191
Mof_C 	C 	0.87053	0.64097	0.31137	-0.17
Mof_H 	H 	0.85283	0.63997	0.32377	0.064
Mof_O 	O 	0.73223	0.89927	0.29407	-0.802
Mof_C 	C 	0.83953	0.60407	0.29867	-0.067
Mof_O 	O 	0.59993	0.77667	0.32217	-0.142
Mof_C 	C 	0.86913	0.60597	0.28057	0.138
Mof_O 	O 	0.60943	0.79777	0.32387	-0.347
Mof_C 	C 	0.96343	0.73027	0.32697	0.23
Mof_O 	O 	0.61023	0.71277	0.27689	-0.684
Mof_C 	C 	0.84773	0.52277	0.27077	0.043
Mof_H 	H 	0.87163	0.52007	0.26077	-0.033
Mof_H 	H 	0.81233	0.48987	0.27037	-0.057
Mof_H 	H 	0.86313	0.52697	0.28447	0.032
Mof_O 	O 	0.56303	0.63837	0.25687	-0.241
Mof_C 	C 	0.78453	0.56637	0.30457	-0.039
Mof_H 	H 	0.77603	0.57957	0.31717	0.04
Mof_H 	H 	0.78153	0.53127	0.30767	0.056
Mof_O 	O 	0.52833	0.63167	0.25637	-0.161
Mof_C 	C 	0.74093	0.55767	0.28747	-0.197
Mof_O 	O 	0.59363	0.52597	0.33815	-0.595
Mof_C 	C 	0.70043	0.50527	0.27797	0.037
Mof_H 	H 	0.70083	0.47357	0.28187	-0.014
Mof_O 	O 	0.54173	0.31437	0.33577	-0.34
Mof_C 	C 	0.66513	0.50087	0.26477	-0.316
Mof_O 	O 	0.47853	0.27567	0.35777	1.341
Mof_C 	C 	0.66443	0.54057	0.25907	0.083
Mof_H 	H 	0.63843	0.53577	0.24897	-0.039
Mof_O 	O 	0.46053	0.27667	0.35557	-1.582
Mof_C 	C 	0.70223	0.59837	0.26667	-0.271
Mof_O 	O 	0.44423	0.46147	0.30695	-0.629
Mof_C 	C 	0.73733	0.60357	0.28157	0.303
Mof_O 	O 	0.25923	0.48167	0.31467	-0.348
Mof_C 	C 	0.62073	0.44047	0.25627	0.349
Mof_O 	O 	0.28983	0.55557	0.33787	-0.381
Mof_C 	C 	0.74103	0.65927	0.30727	0.592
Mof_H 	H 	0.70393	0.64737	0.30317	-0.185
Mof_H 	H 	0.75873	0.69717	0.31137	-0.352
Mof_H 	H 	0.74093	0.63737	0.31877	-0.183
Mof_O 	O 	0.42883	0.44887	0.37005	-0.578
Mof_C 	C 	0.69603	0.64487	0.25847	0.157
Mof_H 	H 	0.67923	0.65587	0.26927	-0.052
Mof_H 	H 	0.67093	0.63157	0.24667	-0.029
Mof_O 	O 	0.56273	0.54777	0.43837	-0.454
Mof_C 	C 	0.60253	0.61317	0.32767	-0.246
Mof_O 	O 	0.64053	0.56707	0.42187	-0.381
Mof_C 	C 	0.60163	0.64577	0.31167	0.091
Mof_H 	H 	0.61313	0.68247	0.31427	-0.168
Mof_O 	O 	0.50943	0.60617	0.3498	-0.629
Mof_C 	C 	0.58383	0.62497	0.29157	-0.375
Mof_C 	C 	0.56643	0.56827	0.28747	-0.038
Mof_H 	H 	0.55403	0.55397	0.27427	-0.013
Mof_C 	C 	0.56783	0.53477	0.30286	-0.163
Mof_O 	O 	0.48113	0.34227	0.39147	-0.413
Mof_C 	C 	0.58853	0.55907	0.32287	0.191
Mof_O 	O 	0.45573	0.34057	0.38837	-0.058
Mof_C 	C 	0.58643	0.66247	0.27377	0.411
Mof_C 	C 	0.64483	0.52797	0.33747	0.313
Mof_H 	H 	0.67363	0.56447	0.34067	-0.092
Mof_H 	H 	0.64503	0.50277	0.34757	-0.24
Mof_H 	H 	0.65043	0.51777	0.32377	-0.075
Mof_O 	O 	0.39933	0.63817	0.32287	3.951
Mof_C 	C 	0.55203	0.47547	0.29847	-0.036
Mof_H 	H 	0.58503	0.47267	0.29907	0.042
Mof_H 	H 	0.53803	0.46657	0.28427	0.031
Mof_O 	O 	0.38633	0.62387	0.31667	-4.383
Mof_C 	C 	0.50983	0.43317	0.31293	-0.098
Mof_O 	O 	0.49663	0.68127	0.29347	-0.978
Mof_C 	C 	0.52233	0.39587	0.32177	-0.155
Mof_H 	H 	0.55593	0.39837	0.31877	0.051
Mof_O 	O 	0.51273	0.69237	0.29997	0.475
Mof_C 	C 	0.48473	0.35367	0.33553	-0.061
Mof_C 	C 	0.43523	0.35177	0.33987	-0.144
Mof_H 	H 	0.41033	0.32477	0.34877	0.115
Mof_C 	C 	0.42243	0.38807	0.33137	-0.1
Mof_C 	C 	0.45763	0.42777	0.31712	0.162
Mof_C 	C 	0.50393	0.31377	0.34347	0.14
Mof_C 	C 	0.41683	0.43757	0.28727	0.243
Mof_H 	H 	0.38753	0.40067	0.28967	-0.048
Mof_H 	H 	0.40223	0.45917	0.28157	-0.222
Mof_H 	H 	0.44283	0.43707	0.27767	-0.076
Mof_C 	C 	0.36713	0.38287	0.33627	-0.043
Mof_H 	H 	0.34423	0.36867	0.32387	0.036
Mof_H 	H 	0.34973	0.35547	0.34717	0.041
Mof_C 	C 	0.36663	0.43517	0.34317	-0.149
Mof_C 	C 	0.33323	0.45297	0.33427	-0.1
Mof_H 	H 	0.31183	0.43317	0.32297	0.009
Mof_C 	C 	0.32913	0.49667	0.34057	-0.185
Mof_C 	C 	0.36233	0.52807	0.35537	-0.071
Mof_H 	H 	0.36213	0.55997	0.35917	-0.013
Mof_C 	C 	0.40033	0.51387	0.36617	-0.199
Mof_C 	C 	0.39893	0.46697	0.35957	0.192
Mof_C 	C 	0.28683	0.51127	0.32807	0.344
Mof_C 	C 	0.40083	0.41427	0.38807	0.201
Mof_H 	H 	0.36193	0.39487	0.38567	-0.025
Mof_H 	H 	0.41323	0.38837	0.39007	-0.15
Mof_H 	H 	0.40913	0.43687	0.40027	-0.126
Mof_C 	C 	0.43363	0.54727	0.38407	0.079
Mof_H 	H 	0.43033	0.57997	0.38487	-0.009
Mof_H 	H 	0.41783	0.52637	0.39677	-0.005
Mof_C 	C 	0.49393	0.56497	0.38363	-0.235
Mof_C 	C 	0.51713	0.55587	0.40104	0.062
Mof_H 	H 	0.49453	0.53877	0.41247	-0.093
Mof_C 	C 	0.57253	0.57087	0.40267	-0.369
Mof_Rb	Rb	0.69097	0.80789	0.29505	1.939
Mof_C 	C 	0.60483	0.59647	0.38526	0.013
Mof_H 	H 	0.64173	0.60627	0.38547	-0.026
Mof_C 	C 	0.58403	0.60807	0.36742	-0.232
Mof_C 	C 	0.53093	0.59187	0.36707	0.221
Mof_C 	C 	0.59023	0.56017	0.42187	0.352
Mof_C 	C 	0.51343	0.66057	0.35097	0.367
Mof_H 	H 	0.55113	0.68887	0.34967	-0.111
Mof_H 	H 	0.49223	0.66387	0.33987	-0.347
Mof_H 	H 	0.49933	0.66417	0.36417	-0.115
Mof_C 	C 	0.62163	0.63677	0.34857	0.11
Mof_H 	H 	0.65633	0.63827	0.35107	-0.025
Mof_H 	H 	0.62893	0.67437	0.34827	-0.032
Mof_Rb	Rb	0.78724	0.88614	0.64256	3.98
Mof_O 	O 	0.7265	0.54	0.6071	-0.726
Mof_C 	C 	0.5787	0.5528	0.56864	0.213
Mof_Rb	Rb	0.58794	0.79922	0.70662	3.141
Mof_O 	O 	0.6831	0.4651	0.5932	-0.419
Mof_C 	C 	0.6134	0.5841	0.5847	-0.302
Mof_Rb	Rb	0.5449	0.45933	0.61973	3.624
Mof_O 	O 	0.5461	0.57	0.55788	-0.516
Mof_C 	C 	0.6456	0.5691	0.593	0.142
Mof_H 	H 	0.669	0.5912	0.6036	-0.235
Mof_Rb	Rb	0.43666	0.56143	0.56157	2.595
Mof_O 	O 	0.3855	0.4646	0.5005	-0.878
Mof_C 	C 	0.6481	0.5201	0.5872	-0.535
Mof_Rb	Rb	0.7724	0.6275	0.63378	1.906
Mof_O 	O 	0.3105	0.4276	0.5206	-0.473
Mof_C 	C 	0.6114	0.4888	0.57131	0.07
Mof_H 	H 	0.6097	0.4563	0.567	-0.023
Mof_O 	O 	0.4782	0.4143	0.58209	-0.588
Mof_C 	C 	0.5767	0.5057	0.56142	-0.21
Mof_O 	O 	0.4265	0.3235	0.6576	-0.319
Mof_C 	C 	0.6862	0.5061	0.5965	0.565
Mof_O 	O 	0.4585	0.4047	0.6771	-0.313
Mof_C 	C 	0.5745	0.6069	0.5407	0.158
Mof_H 	H 	0.5955	0.6438	0.5459	-0.05
Mof_H 	H 	0.5482	0.6049	0.5307	-0.141
Mof_H 	H 	0.5987	0.5966	0.5342	-0.018
Mof_O 	O 	0.3947	0.4916	0.5993	-0.493
Mof_C 	C 	0.5367	0.4671	0.545	0.07
Mof_H 	H 	0.5481	0.4848	0.5315	0.007
Mof_H 	H 	0.5396	0.4342	0.5445	0.001
Mof_O 	O 	0.4435	0.7064	0.5971	-0.375
Mof_C 	C 	0.4775	0.4503	0.5482	-0.23
Mof_O 	O 	0.5115	0.7441	0.5758	-0.412
Mof_C 	C 	0.449	0.4558	0.5331	0.095
Mof_H 	H 	0.4666	0.4719	0.5207	-0.106
Mof_O 	O 	0.5506	0.5638	0.62384	-0.736
Mof_C 	C 	0.3918	0.438	0.5352	-0.368
Mof_C 	C 	0.3665	0.4143	0.5543	0.036
Mof_H 	H 	0.3294	0.4023	0.5563	-0.025
Mof_C 	C 	0.3969	0.409	0.5701	-0.195
Mof_C 	C 	0.4511	0.4238	0.5675	0.249
Mof_C 	C 	0.3603	0.4449	0.5157	0.531
Mof_C 	C 	0.4717	0.3609	0.578	0.106
Mof_H 	H 	0.439	0.3332	0.5847	-0.015
Mof_H 	H 	0.503	0.3596	0.5832	-0.069
Mof_H 	H 	0.4686	0.3543	0.5632	0.004
Mof_O 	O 	0.57	0.378	0.6132	-0.452
Mof_C 	C 	0.3679	0.3802	0.5912	-0.031
Mof_H 	H 	0.3306	0.3736	0.5906	0.032
Mof_H 	H 	0.3653	0.3444	0.5914	0.043
Mof_O 	O 	0.863	0.841	0.7973	-0.446
Mof_C 	C 	0.3919	0.4075	0.6114	-0.098
Mof_C 	C 	0.4031	0.3809	0.6256	-0.127
Mof_H 	H 	0.3971	0.3459	0.6227	0.047
Mof_C 	C 	0.4233	0.4039	0.6444	-0.186
Mof_C 	C 	0.4371	0.4628	0.6447	-0.173
Mof_H 	H 	0.4538	0.4805	0.6571	0.065
Mof_O 	O 	0.8337	0.6011	0.6274	-0.799
Mof_C 	C 	0.4312	0.4938	0.632	-0.065
Mof_O 	O 	0.8434	0.7334	0.6555	-0.133
Mof_C 	C 	0.4035	0.4642	0.6139	0.138
Mof_O 	O 	0.855	0.7239	0.6572	-0.355
Mof_C 	C 	0.4335	0.3699	0.6603	0.203
Mof_O 	O 	0.7692	0.7231	0.61022	-0.684
Mof_C 	C 	0.3417	0.4856	0.6041	0.043
Mof_H 	H 	0.3151	0.4617	0.5941	-0.034
Mof_H 	H 	0.3442	0.521	0.6037	-0.058
Mof_H 	H 	0.3305	0.4702	0.6178	0.031
Mof_O 	O 	0.742	0.7703	0.5902	-0.241
Mof_C 	C 	0.4485	0.5488	0.6379	-0.04
Mof_H 	H 	0.4702	0.5573	0.6505	0.04
Mof_H 	H 	0.4164	0.5518	0.641	0.057
Mof_O 	O 	0.77	0.805	0.5897	-0.162
Mof_C 	C 	0.4834	0.5924	0.6208	-0.196
Mof_O 	O 	0.599	0.7397	0.67148	-0.595
Mof_C 	C 	0.4715	0.6329	0.6113	0.037
Mof_H 	H 	0.4394	0.6325	0.6152	-0.014
Mof_O 	O 	0.4393	0.7916	0.6691	-0.34
Mof_C 	C 	0.5024	0.6682	0.5981	-0.316
Mof_O 	O 	0.4638	0.8548	0.6911	1.296
Mof_C 	C 	0.5428	0.6689	0.5924	0.083
Mof_H 	H 	0.564	0.6949	0.5823	-0.039
Mof_O 	O 	0.4828	0.8728	0.6889	-1.541
Mof_C 	C 	0.5628	0.6311	0.6	-0.271
Mof_O 	O 	0.6839	0.8891	0.64028	-0.632
Mof_C 	C 	0.5329	0.596	0.6149	0.303
Mof_O 	O 	0.8891	0.0741	0.648	-0.341
Mof_C 	C 	0.4864	0.7126	0.5896	0.348
Mof_O 	O 	0.9324	0.0435	0.6712	-0.361
Mof_C 	C 	0.5849	0.5923	0.6406	0.591
Mof_H 	H 	0.6101	0.6294	0.6365	-0.185
Mof_H 	H 	0.6051	0.5746	0.6447	-0.351
Mof_H 	H 	0.5631	0.5924	0.6521	-0.182
Mof_O 	O 	0.6867	0.9045	0.70338	-0.582
Mof_C 	C 	0.6155	0.6373	0.5918	0.157
Mof_H 	H 	0.6433	0.6541	0.6026	-0.052
Mof_H 	H 	0.6273	0.6624	0.58	-0.029
Mof_O 	O 	0.6517	0.7706	0.7717	-0.453
Mof_C 	C 	0.6773	0.7308	0.661	-0.246
Mof_O 	O 	0.5932	0.6928	0.7552	-0.38
Mof_C 	C 	0.7108	0.7317	0.645	0.092
Mof_H 	H 	0.736	0.7202	0.6476	-0.168
Mof_O 	O 	0.7634	0.8239	0.68313	-0.629
Mof_C 	C 	0.7078	0.7495	0.6249	-0.375
Mof_C 	C 	0.6685	0.7669	0.6208	-0.037
Mof_H 	H 	0.6666	0.7793	0.6076	-0.013
Mof_C 	C 	0.6336	0.7655	0.63619	-0.164
Mof_O 	O 	0.5278	0.8522	0.7248	-0.41
Mof_C 	C 	0.6372	0.7448	0.6562	0.192
Mof_O 	O 	0.5515	0.8776	0.7217	-0.063
Mof_C 	C 	0.7427	0.7469	0.6071	0.411
Mof_C 	C 	0.5498	0.6885	0.6708	0.313
Mof_H 	H 	0.5575	0.6597	0.674	-0.092
Mof_H 	H 	0.5244	0.6883	0.6809	-0.24
Mof_H 	H 	0.534	0.6829	0.6571	-0.075
Mof_O 	O 	0.9055	0.934	0.6562	4.02
Mof_C 	C 	0.5901	0.7813	0.6318	-0.033
Mof_H 	H 	0.5543	0.7483	0.6324	0.041
Mof_H 	H 	0.5952	0.7953	0.6176	0.03
Mof_O 	O 	0.9042	0.947	0.65	-4.454
Mof_C 	C 	0.59	0.8235	0.64626	-0.102
Mof_O 	O 	0.8513	0.8367	0.6268	-0.969
Mof_C 	C 	0.5402	0.811	0.6551	-0.15
Mof_H 	H 	0.5091	0.7774	0.6521	0.049
Mof_O 	O 	0.8463	0.8206	0.6333	0.467
Mof_C 	C 	0.5356	0.8486	0.66886	-0.069
Mof_C 	C 	0.5832	0.8981	0.6732	-0.134
Mof_H 	H 	0.5811	0.923	0.6821	0.107
Mof_C 	C 	0.6323	0.9109	0.6647	-0.113
Mof_C 	C 	0.6368	0.8757	0.65045	0.168
Mof_C 	C 	0.4765	0.8294	0.6768	0.146
Mof_C 	C 	0.6874	0.9165	0.6206	0.255
Mof_H 	H 	0.6798	0.9458	0.623	-0.056
Mof_H 	H 	0.7236	0.9311	0.6149	-0.229
Mof_H 	H 	0.6609	0.8905	0.611	-0.081
Mof_C 	C 	0.6824	0.9662	0.6696	-0.02
Mof_H 	H 	0.6911	0.9891	0.6572	0.023
Mof_H 	H 	0.6724	0.9836	0.6805	0.028
Mof_C 	C 	0.7352	0.9667	0.6765	-0.178
Mof_C 	C 	0.7864	0.0001	0.6676	-0.073
Mof_H 	H 	0.788	0.0215	0.6563	0.005
Mof_C 	C 	0.8342	0.0042	0.6739	-0.165
Mof_C 	C 	0.8324	0.971	0.6887	-0.099
Mof_H 	H 	0.8645	0.9712	0.6925	-0.008
Mof_C 	C 	0.7802	0.933	0.6995	-0.198
Mof_C 	C 	0.7347	0.9344	0.6929	0.198
Mof_C 	C 	0.8911	0.0465	0.6614	0.343
Mof_C 	C 	0.6801	0.9325	0.7214	0.215
Mof_H 	H 	0.6996	0.9714	0.719	-0.036
Mof_H 	H 	0.6418	0.9201	0.7234	-0.156
Mof_H 	H 	0.6944	0.9242	0.7336	-0.133
Mof_C 	C 	0.7803	0.8997	0.7174	0.078
Mof_H 	H 	0.8163	0.903	0.7182	-0.01
Mof_H 	H 	0.7752	0.9155	0.7301	-0.006
Mof_C 	C 	0.7377	0.8394	0.71696	-0.234
Mof_C 	C 	0.7054	0.8162	0.73437	0.061
Mof_H 	H 	0.7109	0.8388	0.7458	-0.092
Mof_C 	C 	0.665	0.7608	0.736	-0.368
Mof_Rb	Rb	0.78358	0.64236	0.62838	1.941
Mof_C 	C 	0.6583	0.7285	0.71859	0.013
Mof_H 	H 	0.6312	0.6916	0.7188	-0.026
Mof_C 	C 	0.6907	0.7493	0.70075	-0.232
Mof_C 	C 	0.7276	0.8024	0.7004	0.221
Mof_C 	C 	0.6366	0.7431	0.7552	0.351
Mof_C 	C 	0.8138	0.8199	0.6843	0.369
Mof_H 	H 	0.8044	0.7822	0.683	-0.112
Mof_H 	H 	0.8383	0.8411	0.6732	-0.349
Mof_H 	H 	0.8315	0.834	0.6975	-0.116
Mof_C 	C 	0.6818	0.7117	0.6819	0.11
Mof_H 	H 	0.6486	0.677	0.6844	-0.025
Mof_H 	H 	0.7121	0.7044	0.6816	-0.032
Mof_Rb	Rb	0.45391	0.21947	0.97589	3.993
Mof_O 	O 	0.39317	0.87333	0.94043	-0.719
Mof_C 	C 	0.24537	0.88613	0.90197	0.211
Mof_Rb	Rb	0.25461	0.13255	0.03995	3.153
Mof_O 	O 	0.34977	0.79843	0.92653	-0.417
Mof_C 	C 	0.28007	0.91743	0.91803	-0.305
Mof_Rb	Rb	0.21157	0.79266	0.95306	3.623
Mof_O 	O 	0.21277	0.90333	0.89121	-0.512
Mof_C 	C 	0.31227	0.90243	0.92633	0.141
Mof_H 	H 	0.33567	0.92453	0.93693	-0.234
Mof_Rb	Rb	0.10333	0.89476	0.8949	2.525
Mof_O 	O 	0.05217	0.79793	0.83383	-0.87
Mof_C 	C 	0.31477	0.85343	0.92053	-0.533
Mof_Rb	Rb	0.43907	0.96083	0.96711	1.854
Mof_O 	O 	0.97717	0.76093	0.85393	-0.449
Mof_C 	C 	0.27807	0.82213	0.90464	0.067
Mof_H 	H 	0.27637	0.78963	0.90033	-0.022
Mof_O 	O 	0.14487	0.74763	0.91542	-0.581
Mof_C 	C 	0.24337	0.83903	0.89475	-0.205
Mof_O 	O 	0.09317	0.65683	0.99093	-0.321
Mof_C 	C 	0.35287	0.83943	0.92983	0.562
Mof_O 	O 	0.12517	0.73803	0.01043	-0.314
Mof_C 	C 	0.24117	0.94023	0.87403	0.164
Mof_H 	H 	0.26217	0.97713	0.87923	-0.056
Mof_H 	H 	0.21487	0.93823	0.86403	-0.143
Mof_H 	H 	0.26537	0.92993	0.86753	-0.022
Mof_O 	O 	0.06137	0.82493	0.93263	-0.45
Mof_C 	C 	0.20337	0.80043	0.87833	0.058
Mof_H 	H 	0.21477	0.81813	0.86483	0.011
Mof_H 	H 	0.20627	0.76753	0.87783	0.005
Mof_O 	O 	0.11017	0.03973	0.93043	-0.37
Mof_C 	C 	0.14417	0.78363	0.88153	-0.209
Mof_O 	O 	0.17817	0.07743	0.90913	-0.406
Mof_C 	C 	0.11567	0.78913	0.86643	0.071
Mof_H 	H 	0.13327	0.80523	0.85403	-0.097
Mof_O 	O 	0.21727	0.89713	0.95717	-0.736
Mof_C 	C 	0.05847	0.77133	0.86853	-0.334
Mof_C 	C 	0.03317	0.74763	0.88763	-0.035
Mof_H 	H 	0.99607	0.73563	0.88963	0.012
Mof_C 	C 	0.06357	0.74233	0.90343	-0.154
Mof_C 	C 	0.11777	0.75713	0.90083	0.228
Mof_C 	C 	0.02697	0.77823	0.84903	0.493
Mof_C 	C 	0.13837	0.69423	0.91133	0.103
Mof_H 	H 	0.10567	0.66653	0.91803	-0.017
Mof_H 	H 	0.16967	0.69293	0.91653	-0.068
Mof_H 	H 	0.13527	0.68763	0.89653	0.004
Mof_O 	O 	0.23667	0.71133	0.94653	-0.451
Mof_C 	C 	0.03457	0.71353	0.92453	-0.104
Mof_H 	H 	0.99727	0.70693	0.92393	0.066
Mof_H 	H 	0.03197	0.67773	0.92473	0.057
Mof_O 	O 	0.52967	0.17433	0.13063	-0.447
Mof_C 	C 	0.05857	0.74083	0.94473	-0.068
Mof_C 	C 	0.06977	0.71423	0.95893	-0.153
Mof_H 	H 	0.06377	0.67923	0.95603	0.052
Mof_C 	C 	0.08997	0.73723	0.97773	-0.175
Mof_C 	C 	0.10377	0.79613	0.97803	-0.19
Mof_H 	H 	0.12047	0.81383	0.99043	0.069
Mof_O 	O 	0.50037	0.93443	0.96073	-0.794
Mof_C 	C 	0.09787	0.82713	0.96533	-0.047
Mof_O 	O 	0.51007	0.06673	0.98883	-0.104
Mof_C 	C 	0.07017	0.79753	0.94723	0.106
Mof_O 	O 	0.52167	0.05723	0.99053	-0.373
Mof_C 	C 	0.10017	0.70323	0.99363	0.196
Mof_O 	O 	0.43587	0.05643	0.94355	-0.672
Mof_C 	C 	0.00837	0.81893	0.93743	-0.151
Mof_H 	H 	0.98177	0.79503	0.92743	0.038
Mof_H 	H 	0.01087	0.85433	0.93703	-0.007
Mof_H 	H 	0.99717	0.80353	0.95113	0.104
Mof_O 	O 	0.40867	0.10363	0.92353	-0.236
Mof_C 	C 	0.11517	0.88213	0.97123	-0.058
Mof_H 	H 	0.13687	0.89063	0.98383	0.043
Mof_H 	H 	0.08307	0.88513	0.97433	0.058
Mof_O 	O 	0.43667	0.13833	0.92303	-0.163
Mof_C 	C 	0.15007	0.92573	0.95413	-0.184
Mof_O 	O 	0.26567	0.07303	0.00481	-0.612
Mof_C 	C 	0.13817	0.96623	0.94463	-0.007
Mof_H 	H 	0.10607	0.96583	0.94853	-0.008
Mof_O 	O 	0.10597	0.12493	0.00243	-0.341
Mof_C 	C 	0.16907	0.00153	0.93143	-0.278
Mof_O 	O 	0.13047	0.18813	0.02443	1.373
Mof_C 	C 	0.20947	0.00223	0.92573	0.09
Mof_H 	H 	0.23067	0.02823	0.91563	-0.035
Mof_O 	O 	0.14947	0.20613	0.02223	-1.616
Mof_C 	C 	0.22947	0.96443	0.93333	-0.286
Mof_O 	O 	0.35057	0.22243	0.97361	-0.629
Mof_C 	C 	0.19957	0.92933	0.94823	0.302
Mof_O 	O 	0.55577	0.40743	0.98133	-0.348
Mof_C 	C 	0.15307	0.04593	0.92293	0.341
Mof_O 	O 	0.59907	0.37683	0.00453	-0.381
Mof_C 	C 	0.25157	0.92563	0.97393	0.597
Mof_H 	H 	0.27677	0.96273	0.96983	-0.191
Mof_H 	H 	0.27177	0.90793	0.97803	-0.354
Mof_H 	H 	0.22977	0.92573	0.98543	-0.187
Mof_O 	O 	0.35337	0.23783	0.03671	-0.579
Mof_C 	C 	0.28217	0.97063	0.92513	0.168
Mof_H 	H 	0.30997	0.98743	0.93593	-0.06
Mof_H 	H 	0.29397	0.99573	0.91333	-0.039
Mof_O 	O 	0.31837	0.10393	0.10503	-0.452
Mof_C 	C 	0.34397	0.06413	0.99433	-0.238
Mof_O 	O 	0.25987	0.02613	0.08853	-0.372
Mof_C 	C 	0.37747	0.06503	0.97833	0.088
Mof_H 	H 	0.40267	0.05353	0.98093	-0.161
Mof_O 	O 	0.43007	0.15723	0.01646	-0.628
Mof_C 	C 	0.37447	0.08283	0.95823	-0.368
Mof_C 	C 	0.33517	0.10023	0.95413	-0.039
Mof_H 	H 	0.33327	0.11263	0.94093	-0.011
Mof_C 	C 	0.30027	0.09883	0.96952	-0.161
Mof_O 	O 	0.19447	0.18553	0.05813	-0.414
Mof_C 	C 	0.30387	0.07813	0.98953	0.196
Mof_O 	O 	0.21817	0.21093	0.05503	-0.058
Mof_C 	C 	0.40937	0.08023	0.94043	0.408
Mof_C 	C 	0.21647	0.02183	0.00413	0.409
Mof_H 	H 	0.22417	0.99303	0.00733	-0.137
Mof_H 	H 	0.19107	0.02163	0.01423	-0.264
Mof_H 	H 	0.20067	0.01623	0.99043	-0.098
Mof_O 	O 	0.57217	0.26733	0.98953	3.947
Mof_C 	C 	0.25677	0.11463	0.96513	-0.038
Mof_H 	H 	0.22097	0.08163	0.96573	0.045
Mof_H 	H 	0.26187	0.12863	0.95093	0.032
Mof_O 	O 	0.57087	0.28033	0.98333	-4.379
Mof_C 	C 	0.25667	0.15683	0.97959	-0.096
Mof_O 	O 	0.51797	0.17003	0.96013	-0.976
Mof_C 	C 	0.20687	0.14433	0.98843	-0.158
Mof_H 	H 	0.17577	0.11073	0.98543	0.053
Mof_O 	O 	0.51297	0.15393	0.96663	0.473
Mof_C 	C 	0.20227	0.18193	0.00219	-0.057
Mof_C 	C 	0.24987	0.23143	0.00653	-0.145
Mof_H 	H 	0.24777	0.25633	0.01543	0.116
Mof_C 	C 	0.29897	0.24423	0.99803	-0.1
Mof_C 	C 	0.30347	0.20903	0.98378	0.161
Mof_C 	C 	0.14317	0.16273	0.01013	0.138
Mof_C 	C 	0.35407	0.24983	0.95393	0.243
Mof_H 	H 	0.34647	0.27913	0.95633	-0.048
Mof_H 	H 	0.39027	0.26443	0.94823	-0.221
Mof_H 	H 	0.32757	0.22383	0.94433	-0.076
Mof_C 	C 	0.34907	0.29953	0.00293	-0.042
Mof_H 	H 	0.35777	0.32243	0.99053	0.036
Mof_H 	H 	0.33907	0.31693	0.01383	0.041
Mof_C 	C 	0.40187	0.30003	0.00983	-0.149
Mof_C 	C 	0.45307	0.33343	0.00093	-0.099
Mof_H 	H 	0.45467	0.35483	0.98963	0.008
Mof_C 	C 	0.50087	0.33753	0.00723	-0.185
Mof_C 	C 	0.49907	0.30433	0.02203	-0.071
Mof_H 	H 	0.53117	0.30453	0.02583	-0.013
Mof_C 	C 	0.44687	0.26633	0.03283	-0.199
Mof_C 	C 	0.40137	0.26773	0.02623	0.192
Mof_C 	C 	0.55777	0.37983	0.99473	0.344
Mof_C 	C 	0.34677	0.26583	0.05473	0.202
Mof_H 	H 	0.36627	0.30473	0.05233	-0.025
Mof_H 	H 	0.30847	0.25343	0.05673	-0.15
Mof_H 	H 	0.36107	0.25753	0.06693	-0.126
Mof_C 	C 	0.44697	0.23303	0.05073	0.078
Mof_H 	H 	0.48297	0.23633	0.05153	-0.009
Mof_H 	H 	0.44187	0.24883	0.06343	-0.005
Mof_C 	C 	0.40437	0.17273	0.05029	-0.232
Mof_C 	C 	0.37207	0.14953	0.0677	0.058
Mof_H 	H 	0.37757	0.17213	0.07913	-0.092
Mof_C 	C 	0.33167	0.09413	0.06933	-0.364
Mof_Rb	Rb	0.45025	0.97569	0.96171	1.916
Mof_C 	C 	0.32497	0.06183	0.05192	0.008
Mof_H 	H 	0.29787	0.02493	0.05213	-0.02
Mof_C 	C 	0.35737	0.08263	0.03408	-0.224
Mof_C 	C 	0.39427	0.13573	0.03373	0.217
Mof_C 	C 	0.30327	0.07643	0.08853	0.349
Mof_C 	C 	0.48047	0.15323	0.01763	0.364
Mof_H 	H 	0.47107	0.11553	0.01633	-0.109
Mof_H 	H 	0.50497	0.17443	0.00653	-0.346
Mof_H 	H 	0.49817	0.16733	0.03083	-0.114
Mof_C 	C 	0.34847	0.04503	0.01523	0.099
Mof_H 	H 	0.31527	0.01033	0.01773	-0.014
Mof_H 	H 	0.37877	0.03773	0.01493	-0.023
Mof_Rb	Rb	0.12057	0.55281	0.30923	3.975
Mof_O 	O 	0.05983	0.20667	0.27377	-0.722
Mof_C 	C 	0.91203	0.21947	0.23531	0.216
Mof_Rb	Rb	0.92127	0.46589	0.37329	3.171
Mof_O 	O 	0.01643	0.13177	0.25987	-0.419
Mof_C 	C 	0.94673	0.25077	0.25137	-0.313
Mof_Rb	Rb	0.87823	0.126	0.2864	3.65
Mof_O 	O 	0.87943	0.23667	0.22455	-0.515
Mof_C 	C 	0.97893	0.23577	0.25967	0.179
Mof_H 	H 	0.00233	0.25787	0.27027	-0.261
Mof_Rb	Rb	0.76999	0.2281	0.22824	2.594
Mof_O 	O 	0.71883	0.13127	0.16717	-0.878
Mof_C 	C 	0.98143	0.18677	0.25387	-0.523
Mof_Rb	Rb	0.10573	0.29417	0.30045	1.899
Mof_O 	O 	0.64383	0.09427	0.18727	-0.471
Mof_C 	C 	0.94473	0.15547	0.23798	0.065
Mof_H 	H 	0.94303	0.12297	0.23367	-0.016
Mof_O 	O 	0.81153	0.08097	0.24876	-0.605
Mof_C 	C 	0.91003	0.17237	0.22809	-0.208
Mof_O 	O 	0.75983	0.99017	0.32427	-0.343
Mof_C 	C 	0.01953	0.17277	0.26317	0.544
Mof_O 	O 	0.79183	0.07137	0.34377	-0.313
Mof_C 	C 	0.90783	0.27357	0.20737	0.148
Mof_H 	H 	0.92883	0.31047	0.21257	-0.043
Mof_H 	H 	0.88153	0.27157	0.19737	-0.137
Mof_H 	H 	0.93203	0.26327	0.20087	-0.01
Mof_O 	O 	0.72803	0.15827	0.26597	-0.493
Mof_C 	C 	0.87003	0.13377	0.21167	0.069
Mof_H 	H 	0.88143	0.15147	0.19817	0.008
Mof_H 	H 	0.87293	0.10087	0.21117	0.004
Mof_O 	O 	0.77683	0.37307	0.26377	-0.376
Mof_C 	C 	0.81083	0.11697	0.21487	-0.23
Mof_O 	O 	0.84483	0.41077	0.24247	-0.411
Mof_C 	C 	0.78233	0.12247	0.19977	0.095
Mof_H 	H 	0.79993	0.13857	0.18737	-0.106
Mof_O 	O 	0.88393	0.23047	0.29051	-0.735
Mof_C 	C 	0.72513	0.10467	0.20187	-0.367
Mof_C 	C 	0.69983	0.08097	0.22097	0.037
Mof_H 	H 	0.66273	0.06897	0.22297	-0.022
Mof_C 	C 	0.73023	0.07567	0.23677	-0.192
Mof_C 	C 	0.78443	0.09047	0.23417	0.255
Mof_C 	C 	0.69363	0.11157	0.18237	0.531
Mof_C 	C 	0.80503	0.02757	0.24467	0.192
Mof_H 	H 	0.77233	0.99987	0.25137	-0.057
Mof_H 	H 	0.83633	0.02627	0.24987	-0.09
Mof_H 	H 	0.80193	0.02097	0.22987	-0.016
Mof_O 	O 	0.90333	0.04467	0.27987	-0.444
Mof_C 	C 	0.70123	0.04687	0.25787	-0.036
Mof_H 	H 	0.66393	0.04027	0.25727	0.036
Mof_H 	H 	0.69863	0.01107	0.25807	0.052
Mof_O 	O 	0.19633	0.50767	0.46397	-0.445
Mof_C 	C 	0.72523	0.07417	0.27807	-0.096
Mof_C 	C 	0.73643	0.04757	0.29227	-0.125
Mof_H 	H 	0.73043	0.01257	0.28937	0.053
Mof_C 	C 	0.75663	0.07057	0.31107	-0.192
Mof_C 	C 	0.77043	0.12947	0.31137	-0.17
Mof_H 	H 	0.78713	0.14717	0.32377	0.064
Mof_O 	O 	0.16703	0.26777	0.29407	-0.796
Mof_C 	C 	0.76453	0.16047	0.29867	-0.067
Mof_O 	O 	0.17673	0.40007	0.32217	-0.138
Mof_C 	C 	0.73683	0.13087	0.28057	0.138
Mof_O 	O 	0.18833	0.39057	0.32387	-0.349
Mof_C 	C 	0.76683	0.03657	0.32697	0.229
Mof_O 	O 	0.10253	0.38977	0.27689	-0.68
Mof_C 	C 	0.67503	0.15227	0.27077	0.043
Mof_H 	H 	0.64843	0.12837	0.26077	-0.033
Mof_H 	H 	0.67753	0.18767	0.27037	-0.058
Mof_H 	H 	0.66383	0.13687	0.28447	0.032
Mof_O 	O 	0.07533	0.43697	0.25687	-0.242
Mof_C 	C 	0.78183	0.21547	0.30457	-0.039
Mof_H 	H 	0.80353	0.22397	0.31717	0.039
Mof_H 	H 	0.74973	0.21847	0.30767	0.056
Mof_O 	O 	0.10333	0.47167	0.25637	-0.163
Mof_C 	C 	0.81673	0.25907	0.28747	-0.197
Mof_O 	O 	0.93233	0.40637	0.33815	-0.594
Mof_C 	C 	0.80483	0.29957	0.27797	0.037
Mof_H 	H 	0.77273	0.29917	0.28187	-0.014
Mof_O 	O 	0.77263	0.45827	0.33577	-0.339
Mof_C 	C 	0.83573	0.33487	0.26477	-0.316
Mof_O 	O 	0.79713	0.52147	0.35777	1.336
Mof_C 	C 	0.87613	0.33557	0.25907	0.083
Mof_H 	H 	0.89733	0.36157	0.24897	-0.038
Mof_O 	O 	0.81613	0.53947	0.35557	-1.577
Mof_C 	C 	0.89613	0.29777	0.26667	-0.27
Mof_O 	O 	0.01723	0.55577	0.30695	-0.629
Mof_C 	C 	0.86623	0.26267	0.28157	0.303
Mof_O 	O 	0.22243	0.74077	0.31467	-0.348
Mof_C 	C 	0.81973	0.37927	0.25627	0.348
Mof_O 	O 	0.26573	0.71017	0.33787	-0.38
Mof_C 	C 	0.91823	0.25897	0.30727	0.579
Mof_H 	H 	0.94343	0.29607	0.30317	-0.177
Mof_H 	H 	0.93843	0.24127	0.31137	-0.344
Mof_H 	H 	0.89643	0.25907	0.31877	-0.178
Mof_O 	O 	0.02003	0.57117	0.37005	-0.571
Mof_C 	C 	0.94883	0.30397	0.25847	0.159
Mof_H 	H 	0.97663	0.32077	0.26927	-0.045
Mof_H 	H 	0.96063	0.32907	0.24667	-0.025
Mof_O 	O 	0.98503	0.43727	0.43837	-0.44
Mof_C 	C 	0.01063	0.39747	0.32767	-0.244
Mof_O 	O 	0.92653	0.35947	0.42187	-0.378
Mof_C 	C 	0.04413	0.39837	0.31167	0.069
Mof_H 	H 	0.06933	0.38687	0.31427	-0.161
Mof_O 	O 	0.09673	0.49057	0.3498	-0.627
Mof_C 	C 	0.04113	0.41617	0.29157	-0.346
Mof_C 	C 	0.00183	0.43357	0.28747	-0.128
Mof_H 	H 	0.99993	0.44597	0.27427	0.032
Mof_C 	C 	0.96693	0.43217	0.30286	-0.112
Mof_O 	O 	0.86113	0.51887	0.39147	-0.414
Mof_C 	C 	0.97053	0.41147	0.32287	0.192
Mof_O 	O 	0.88483	0.54427	0.38837	-0.059
Mof_C 	C 	0.07603	0.41357	0.27377	0.397
Mof_C 	C 	0.88313	0.35517	0.33747	0.315
Mof_H 	H 	0.89083	0.32637	0.34067	-0.092
Mof_H 	H 	0.85773	0.35497	0.34757	-0.242
Mof_H 	H 	0.86733	0.34957	0.32377	-0.076
Mof_O 	O 	0.23883	0.60067	0.32287	3.935
Mof_C 	C 	0.92343	0.44797	0.29847	-0.065
Mof_H 	H 	0.88763	0.41497	0.29907	0.05
Mof_H 	H 	0.92853	0.46197	0.28427	0.04
Mof_O 	O 	0.23753	0.61367	0.31667	-4.365
Mof_C 	C 	0.92333	0.49017	0.31293	-0.088
Mof_O 	O 	0.18463	0.50337	0.29347	-0.973
Mof_C 	C 	0.87353	0.47767	0.32177	-0.165
Mof_H 	H 	0.84243	0.44407	0.31877	0.054
Mof_O 	O 	0.17963	0.48727	0.29997	0.472
Mof_C 	C 	0.86893	0.51527	0.33553	-0.054
Mof_C 	C 	0.91653	0.56477	0.33987	-0.159
Mof_H 	H 	0.91443	0.58967	0.34877	0.123
Mof_C 	C 	0.96563	0.57757	0.33137	-0.074
Mof_C 	C 	0.97013	0.54237	0.31712	0.165
Mof_C 	C 	0.80983	0.49607	0.34347	0.138
Mof_C 	C 	0.02073	0.58317	0.28727	0.166
Mof_H 	H 	0.01313	0.61247	0.28967	-0.033
Mof_H 	H 	0.05693	0.59777	0.28157	-0.201
Mof_H 	H 	0.99423	0.55717	0.27767	-0.041
Mof_C 	C 	0.01573	0.63287	0.33627	-0.074
Mof_H 	H 	0.02443	0.65577	0.32387	0.04
Mof_H 	H 	0.00573	0.65027	0.34717	0.043
Mof_C 	C 	0.06853	0.63337	0.34317	-0.139
Mof_C 	C 	0.11973	0.66677	0.33427	-0.107
Mof_H 	H 	0.12133	0.68817	0.32297	0.011
Mof_C 	C 	0.16753	0.67087	0.34057	-0.18
Mof_C 	C 	0.16573	0.63767	0.35537	-0.076
Mof_H 	H 	0.19783	0.63787	0.35917	-0.01
Mof_C 	C 	0.11353	0.59967	0.36617	-0.191
Mof_C 	C 	0.06803	0.60107	0.35957	0.18
Mof_C 	C 	0.22443	0.71317	0.32807	0.343
Mof_C 	C 	0.01343	0.59917	0.38807	0.109
Mof_H 	H 	0.03293	0.63807	0.38567	-0
Mof_H 	H 	0.97513	0.58677	0.39007	-0.11
Mof_H 	H 	0.02773	0.59087	0.40027	-0.102
Mof_C 	C 	0.11363	0.56637	0.38407	0.067
Mof_H 	H 	0.14963	0.56967	0.38487	-0.006
Mof_H 	H 	0.10853	0.58217	0.39677	-0.002
Mof_C 	C 	0.07103	0.50607	0.38363	-0.223
Mof_C 	C 	0.03873	0.48287	0.40104	0.024
Mof_H 	H 	0.04423	0.50547	0.41247	-0.084
Mof_C 	C 	0.99833	0.42747	0.40267	-0.342
Mof_Rb	Rb	0.11691	0.30903	0.29505	1.925
Mof_C 	C 	0.99163	0.39517	0.38526	0.024
Mof_H 	H 	0.96453	0.35827	0.38547	-0.028
Mof_C 	C 	0.02403	0.41597	0.36742	-0.24
Mof_C 	C 	0.06093	0.46907	0.36707	0.214
Mof_C 	C 	0.96993	0.40977	0.42187	0.343
Mof_C 	C 	0.14713	0.48657	0.35097	0.364
Mof_H 	H 	0.13773	0.44887	0.34967	-0.11
Mof_H 	H 	0.17163	0.50777	0.33987	-0.345
Mof_H 	H 	0.16483	0.50067	0.36417	-0.114
Mof_C 	C 	0.01513	0.37837	0.34857	0.07
Mof_H 	H 	0.98193	0.34367	0.35107	-0.001
Mof_H 	H 	0.04543	0.37107	0.34827	-0.022
_end
