data_functionalizedCrystal
_audit_creation_method	'EQeq! by Chris Wilmer'
_symmetry_space_group_name_H-M	'P1'
_symmetry_Int_Tables_number	1
_symmetry_cell_setting	triclinic
loop_
_symmetry_equiv_pos_as_xyz
  x,y,z
_cell_length_a	8.1173
_cell_length_b	8.6088
_cell_length_c	19.8803
_cell_angle_alpha	88.2274
_cell_angle_beta	86.2381
_cell_angle_gamma	61.8711
loop_
_atom_site_label
_atom_site_type_symbol
_atom_site_fract_x
_atom_site_fract_y
_atom_site_fract_z
_atom_site_charge
Mof_Nd	Nd	0.2833	0.9246	0.5119	2.363
Mof_Nd	Nd	0.7921	0.9246	0.9881	2.336
Mof_Nd	Nd	0.7167	0.0754	0.4881	2.363
Mof_Nd	Nd	0.2079	0.0754	0.0119	2.336
Mof_H 	H 	0.2628	0.2456	0.3023	0.192
Mof_H 	H 	0.4038	0.2876	0.3382	0.181
Mof_H 	H 	0.0989	0.5432	0.3254	-0.088
Mof_H 	H 	0.0146	0.4562	0.3779	-0.076
Mof_H 	H 	0.2027	0.4706	0.4604	0.16
Mof_H 	H 	0.2853	0.5588	0.408	0.153
Mof_H 	H 	0.3903	0.5538	0.7077	0.151
Mof_H 	H 	0.2252	0.5348	0.6794	0.165
Mof_H 	H 	0.1815	0.8072	0.7665	-0.035
Mof_H 	H 	0.4916	0.2456	0.1977	0.19
Mof_H 	H 	0.3086	0.2876	0.1618	0.179
Mof_H 	H 	0.3579	0.5432	0.1746	-0.086
Mof_H 	H 	0.5292	0.4562	0.1221	-0.073
Mof_H 	H 	0.3267	0.4706	0.0396	0.16
Mof_H 	H 	0.1559	0.5588	0.092	0.152
Mof_H 	H 	0.0559	0.5538	0.7923	0.152
Mof_H 	H 	0.24	0.5348	0.8206	0.166
Mof_H 	H 	0.0113	0.8072	0.7335	-0.035
Mof_H 	H 	0.7372	0.7544	0.6977	0.191
Mof_H 	H 	0.5962	0.7124	0.6618	0.18
Mof_H 	H 	0.9011	0.4568	0.6746	-0.088
Mof_H 	H 	0.9854	0.5438	0.6221	-0.076
Mof_H 	H 	0.7973	0.5294	0.5396	0.16
Mof_H 	H 	0.7147	0.4412	0.592	0.153
Mof_H 	H 	0.6097	0.4462	0.2923	0.151
Mof_H 	H 	0.7748	0.4652	0.3206	0.165
Mof_H 	H 	0.8185	0.1928	0.2335	-0.035
Mof_H 	H 	0.5084	0.7544	0.8023	0.19
Mof_H 	H 	0.6914	0.7124	0.8382	0.179
Mof_H 	H 	0.6421	0.4568	0.8254	-0.086
Mof_H 	H 	0.4708	0.5438	0.8779	-0.073
Mof_H 	H 	0.6733	0.5294	0.9604	0.16
Mof_H 	H 	0.8441	0.4412	0.908	0.152
Mof_H 	H 	0.9441	0.4462	0.2077	0.152
Mof_H 	H 	0.76	0.4652	0.1794	0.166
Mof_H 	H 	0.9887	0.1928	0.2665	-0.035
Mof_C 	C 	0.3056	0.1484	0.3985	0.537
Mof_C 	C 	0.2873	0.282	0.3446	-0.577
Mof_C 	C 	0.1262	0.4664	0.3644	0.335
Mof_C 	C 	0.1738	0.5488	0.4218	-0.54
Mof_C 	C 	0.9798	0.2718	0.5568	0.537
Mof_C 	C 	0.2713	0.7242	0.6299	0.425
Mof_C 	C 	0.2649	0.6194	0.692	-0.475
Mof_C 	C 	0.546	0.1484	0.1015	0.534
Mof_C 	C 	0.4307	0.282	0.1554	-0.573
Mof_C 	C 	0.4074	0.4664	0.1356	0.33
Mof_C 	C 	0.2774	0.5488	0.0782	-0.536
Mof_C 	C 	0.7484	0.2718	0.9432	0.534
Mof_C 	C 	0.0045	0.7242	0.8701	0.43
Mof_C 	C 	0.1157	0.6194	0.808	-0.477
Mof_C 	C 	0.6944	0.8516	0.6015	0.537
Mof_C 	C 	0.7127	0.718	0.6554	-0.577
Mof_C 	C 	0.8738	0.5336	0.6356	0.335
Mof_C 	C 	0.8262	0.4512	0.5782	-0.54
Mof_C 	C 	0.0202	0.7282	0.4432	0.537
Mof_C 	C 	0.7287	0.2758	0.3701	0.425
Mof_C 	C 	0.7351	0.3806	0.308	-0.475
Mof_C 	C 	0.454	0.8516	0.8985	0.534
Mof_C 	C 	0.5693	0.718	0.8446	-0.573
Mof_C 	C 	0.5926	0.5336	0.8644	0.33
Mof_C 	C 	0.7226	0.4512	0.9218	-0.536
Mof_C 	C 	0.2516	0.7282	0.0568	0.534
Mof_C 	C 	0.9955	0.2758	0.1299	0.43
Mof_C 	C 	0.8843	0.3806	0.192	-0.477
Mof_C 	C 	0.134	0.732	0.75	0.262
Mof_C 	C 	0.866	0.268	0.25	0.262
Mof_O 	O 	0.441	0.0896	0.4384	-0.722
Mof_O 	O 	0.1823	0.0992	0.4057	-0.547
Mof_O 	O 	0.9353	0.1594	0.5344	-0.709
Mof_O 	O 	0.1503	0.2316	0.5599	-0.539
Mof_O 	O 	0.2085	0.8898	0.6335	-0.484
Mof_O 	O 	0.3457	0.6444	0.5742	-0.538
Mof_O 	O 	0.4694	0.0896	0.0616	-0.717
Mof_O 	O 	0.7185	0.0992	0.0943	-0.54
Mof_O 	O 	0.9053	0.1594	0.9656	-0.701
Mof_O 	O 	0.6181	0.2316	0.9401	-0.531
Mof_O 	O 	0.9017	0.8898	0.8665	-0.489
Mof_O 	O 	0.0099	0.6444	0.9258	-0.535
Mof_O 	O 	0.559	0.9104	0.5616	-0.722
Mof_O 	O 	0.8177	0.9008	0.5943	-0.547
Mof_O 	O 	0.0647	0.8406	0.4656	-0.709
Mof_O 	O 	0.8497	0.7684	0.4401	-0.539
Mof_O 	O 	0.7915	0.1102	0.3665	-0.484
Mof_O 	O 	0.6543	0.3556	0.4258	-0.538
Mof_O 	O 	0.5306	0.9104	0.9384	-0.717
Mof_O 	O 	0.2815	0.9008	0.9057	-0.54
Mof_O 	O 	0.0947	0.8406	0.0344	-0.701
Mof_O 	O 	0.3819	0.7684	0.0599	-0.531
Mof_O 	O 	0.0983	0.1102	0.1335	-0.489
Mof_O 	O 	0.9901	0.3556	0.0742	-0.535
_end
