data_functionalizedCrystal
_audit_creation_method	'EQeq! by Chris Wilmer'
_symmetry_space_group_name_H-M	'P1'
_symmetry_Int_Tables_number	1
_symmetry_cell_setting	triclinic
loop_
_symmetry_equiv_pos_as_xyz
  x,y,z
_cell_length_a	8.018
_cell_length_b	21.04
_cell_length_c	11.069
_cell_angle_alpha	90
_cell_angle_beta	91.26
_cell_angle_gamma	90
loop_
_atom_site_label
_atom_site_type_symbol
_atom_site_fract_x
_atom_site_fract_y
_atom_site_fract_z
_atom_site_charge
Mof_Zn	Zn	0.10337	0.61355	0.27669	1.199
Mof_Zn	Zn	0.81521	0.69168	0.13554	1.179
Mof_N 	N 	0.8641	0.7521	0.4951	-0.373
Mof_N 	N 	0.9816	0.6819	0.3745	-0.291
Mof_N 	N 	0.8799	0.7226	0.3042	-0.301
Mof_N 	N 	0.3159	0.6539	0.2122	-0.245
Mof_N 	N 	0.5632	0.6787	0.1503	-0.249
Mof_N 	N 	0.4483	0.7074	0.0773	-0.09
Mof_N 	N 	0.3005	0.6924	0.1135	-0.1
Mof_O 	O 	0.846	0.4513	0.6049	-0.484
Mof_O 	O 	0.7514	0.5207	0.7397	-0.34
Mof_O 	O 	0.9461	0.6141	0.1411	-0.846
Mof_H 	H 	0.9631	0.5939	0.0782	0.301
Mof_C 	C 	0.7704	0.5031	0.6342	0.332
Mof_C 	C 	0.698	0.5409	0.529	-0.09
Mof_C 	C 	0.5918	0.5922	0.5517	-0.008
Mof_H 	H 	0.568	0.6034	0.6308	0.02
Mof_C 	C 	0.7336	0.524	0.4106	-0.004
Mof_H 	H 	0.8045	0.4901	0.3955	0.027
Mof_C 	C 	0.5217	0.6266	0.4549	-0.072
Mof_H 	H 	0.4516	0.6608	0.4697	0.028
Mof_C 	C 	0.6623	0.5582	0.315	-0.084
Mof_H 	H 	0.6852	0.5466	0.236	0.033
Mof_C 	C 	0.5569	0.6097	0.3362	-0.043
Mof_C 	C 	0.4789	0.6469	0.2343	0.093
Mof_C 	C 	0.6958	0.8155	0.3386	-0.834
Mof_H 	H 	0.7467	0.8562	0.3527	0.246
Mof_H 	H 	0.5947	0.8126	0.3832	0.254
Mof_H 	H 	0.6705	0.8107	0.2539	0.239
Mof_C 	C 	0.813	0.7642	0.379	0.271
Mof_C 	C 	0.9685	0.7008	0.4876	0.302
Mof_C 	C 	0.0541	0.6687	0.5921	-0.87
Mof_H 	H 	0.1173	0.6332	0.5634	0.275
Mof_H 	H 	0.9724	0.654	0.6476	0.263
Mof_H 	H 	0.1277	0.6983	0.6323	0.257
Mof_Zn	Zn	0.89663	0.11355	0.22331	1.199
Mof_Zn	Zn	0.18479	0.19168	0.36446	1.181
Mof_N 	N 	0.1359	0.2521	0.0049	-0.371
Mof_N 	N 	0.0184	0.1819	0.1255	-0.288
Mof_N 	N 	0.1201	0.2226	0.1958	-0.3
Mof_N 	N 	0.6841	0.1539	0.2878	-0.245
Mof_N 	N 	0.4368	0.1787	0.3497	-0.249
Mof_N 	N 	0.5517	0.2074	0.4227	-0.09
Mof_N 	N 	0.6995	0.1924	0.3865	-0.1
Mof_O 	O 	0.154	0.9513	0.8951	-0.485
Mof_O 	O 	0.2486	0.0207	0.7603	-0.341
Mof_O 	O 	0.0539	0.1141	0.3589	-0.845
Mof_H 	H 	0.0369	0.0939	0.4218	0.301
Mof_C 	C 	0.2296	0.0031	0.8658	0.332
Mof_C 	C 	0.302	0.0409	0.971	-0.094
Mof_C 	C 	0.4082	0.0922	0.9483	-0.008
Mof_H 	H 	0.432	0.1034	0.8692	0.02
Mof_C 	C 	0.2664	0.024	0.0894	0.003
Mof_H 	H 	0.1955	0.9901	0.1045	0.025
Mof_C 	C 	0.4783	0.1266	0.0451	-0.072
Mof_H 	H 	0.5484	0.1608	0.0303	0.028
Mof_C 	C 	0.3377	0.0582	0.185	-0.087
Mof_H 	H 	0.3148	0.0466	0.264	0.035
Mof_C 	C 	0.4431	0.1097	0.1638	-0.042
Mof_C 	C 	0.5211	0.1469	0.2657	0.093
Mof_C 	C 	0.3042	0.3155	0.1614	-0.835
Mof_H 	H 	0.2533	0.3562	0.1473	0.247
Mof_H 	H 	0.4053	0.3126	0.1168	0.254
Mof_H 	H 	0.3295	0.3107	0.2461	0.239
Mof_C 	C 	0.187	0.2642	0.121	0.272
Mof_C 	C 	0.0315	0.2008	0.0124	0.3
Mof_C 	C 	0.9459	0.1687	0.9079	-0.857
Mof_H 	H 	0.8827	0.1332	0.9366	0.272
Mof_H 	H 	0.0276	0.154	0.8524	0.257
Mof_H 	H 	0.8723	0.1983	0.8677	0.254
Mof_Zn	Zn	0.89663	0.38645	0.72331	1.2
Mof_Zn	Zn	0.18479	0.30832	0.86446	1.18
Mof_N 	N 	0.1359	0.2479	0.5049	-0.372
Mof_N 	N 	0.0184	0.3181	0.6255	-0.29
Mof_N 	N 	0.1201	0.2774	0.6958	-0.301
Mof_N 	N 	0.6841	0.3461	0.7878	-0.245
Mof_N 	N 	0.4368	0.3213	0.8497	-0.249
Mof_N 	N 	0.5517	0.2926	0.9227	-0.09
Mof_N 	N 	0.6995	0.3076	0.8865	-0.1
Mof_O 	O 	0.154	0.5487	0.3951	-0.484
Mof_O 	O 	0.2486	0.4793	0.2603	-0.34
Mof_O 	O 	0.0539	0.3859	0.8589	-0.846
Mof_H 	H 	0.0369	0.4061	0.9218	0.301
Mof_C 	C 	0.2296	0.4969	0.3658	0.332
Mof_C 	C 	0.302	0.4591	0.471	-0.09
Mof_C 	C 	0.4082	0.4078	0.4483	-0.008
Mof_H 	H 	0.432	0.3966	0.3692	0.02
Mof_C 	C 	0.2664	0.476	0.5894	-0.004
Mof_H 	H 	0.1955	0.5099	0.6045	0.027
Mof_C 	C 	0.4783	0.3734	0.5451	-0.072
Mof_H 	H 	0.5484	0.3392	0.5303	0.028
Mof_C 	C 	0.3377	0.4418	0.685	-0.084
Mof_H 	H 	0.3148	0.4534	0.764	0.033
Mof_C 	C 	0.4431	0.3903	0.6638	-0.043
Mof_C 	C 	0.5211	0.3531	0.7657	0.093
Mof_C 	C 	0.3042	0.1845	0.6614	-0.834
Mof_H 	H 	0.2533	0.1438	0.6473	0.246
Mof_H 	H 	0.4053	0.1874	0.6168	0.254
Mof_H 	H 	0.3295	0.1893	0.7461	0.239
Mof_C 	C 	0.187	0.2358	0.621	0.271
Mof_C 	C 	0.0315	0.2992	0.5124	0.302
Mof_C 	C 	0.9459	0.3313	0.4079	-0.87
Mof_H 	H 	0.8827	0.3668	0.4366	0.275
Mof_H 	H 	0.0276	0.346	0.3524	0.263
Mof_H 	H 	0.8723	0.3017	0.3677	0.257
Mof_Zn	Zn	0.10337	0.88645	0.77669	1.199
Mof_Zn	Zn	0.81521	0.80832	0.63554	1.181
Mof_N 	N 	0.8641	0.7479	0.9951	-0.371
Mof_N 	N 	0.9816	0.8181	0.8745	-0.288
Mof_N 	N 	0.8799	0.7774	0.8042	-0.3
Mof_N 	N 	0.3159	0.8461	0.7122	-0.245
Mof_N 	N 	0.5632	0.8213	0.6503	-0.249
Mof_N 	N 	0.4483	0.7926	0.5773	-0.09
Mof_N 	N 	0.3005	0.8076	0.6135	-0.1
Mof_O 	O 	0.846	0.0487	0.1049	-0.485
Mof_O 	O 	0.7514	0.9793	0.2397	-0.341
Mof_O 	O 	0.9461	0.8859	0.6411	-0.845
Mof_H 	H 	0.9631	0.9061	0.5782	0.301
Mof_C 	C 	0.7704	0.9969	0.1342	0.332
Mof_C 	C 	0.698	0.9591	0.029	-0.094
Mof_C 	C 	0.5918	0.9078	0.0517	-0.008
Mof_H 	H 	0.568	0.8966	0.1308	0.02
Mof_C 	C 	0.7336	0.976	0.9106	0.003
Mof_H 	H 	0.8045	0.0099	0.8955	0.025
Mof_C 	C 	0.5217	0.8734	0.9549	-0.072
Mof_H 	H 	0.4516	0.8392	0.9697	0.028
Mof_C 	C 	0.6623	0.9418	0.815	-0.087
Mof_H 	H 	0.6852	0.9534	0.736	0.035
Mof_C 	C 	0.5569	0.8903	0.8362	-0.042
Mof_C 	C 	0.4789	0.8531	0.7343	0.093
Mof_C 	C 	0.6958	0.6845	0.8386	-0.835
Mof_H 	H 	0.7467	0.6438	0.8527	0.247
Mof_H 	H 	0.5947	0.6874	0.8832	0.254
Mof_H 	H 	0.6705	0.6893	0.7539	0.239
Mof_C 	C 	0.813	0.7358	0.879	0.272
Mof_C 	C 	0.9685	0.7992	0.9876	0.3
Mof_C 	C 	0.0541	0.8313	0.0921	-0.857
Mof_H 	H 	0.1173	0.8668	0.0634	0.272
Mof_H 	H 	0.9724	0.846	0.1476	0.257
Mof_H 	H 	0.1277	0.8017	0.1323	0.254
_end
