data_functionalizedCrystal
_audit_creation_method	'EQeq! by Chris Wilmer'
_symmetry_space_group_name_H-M	'P1'
_symmetry_Int_Tables_number	1
_symmetry_cell_setting	triclinic
loop_
_symmetry_equiv_pos_as_xyz
  x,y,z
_cell_length_a	16.2068
_cell_length_b	16.2068
_cell_length_c	31.3773
_cell_angle_alpha	99.4839
_cell_angle_beta	99.4839
_cell_angle_gamma	96.2572
loop_
_atom_site_label
_atom_site_type_symbol
_atom_site_fract_x
_atom_site_fract_y
_atom_site_fract_z
_atom_site_charge
Mof_Nd	Nd	0.81293	0.35659	0.79912	2.42
Mof_Nd	Nd	0.9783	0.35936	0.913	2.173
Mof_Nd	Nd	0.64341	0.18707	0.70088	2.421
Mof_Nd	Nd	0.64064	0.0217	0.587	2.175
Mof_Nd	Nd	0.18707	0.64341	0.20088	2.421
Mof_Nd	Nd	0.0217	0.64064	0.087	2.174
Mof_Nd	Nd	0.35659	0.81293	0.29912	2.422
Mof_Nd	Nd	0.35936	0.9783	0.413	2.176
Mof_H 	H 	0.9816	0.7154	0.664	0.062
Mof_H 	H 	0.0363	0.6243	0.7134	0.055
Mof_H 	H 	0.2015	0.3567	0.693	0.059
Mof_H 	H 	0.294	0.3092	0.6428	0.056
Mof_H 	H 	0.3674	0.3974	0.4957	0.057
Mof_H 	H 	0.2983	0.4779	0.4426	0.06
Mof_H 	H 	0.0359	0.6539	0.437	0.058
Mof_H 	H 	0.9471	0.6971	0.4888	0.055
Mof_H 	H 	0.1742	0.5802	0.7592	0.097
Mof_H 	H 	0.1393	0.5439	0.824	0.002
Mof_H 	H 	0.994	0.3314	0.7562	-0.016
Mof_H 	H 	0.0313	0.3641	0.6908	0.089
Mof_H 	H 	0.4493	0.4177	0.6086	0.106
Mof_H 	H 	0.5441	0.3211	0.6241	-0.037
Mof_H 	H 	0.3804	0.1366	0.5414	-0.009
Mof_H 	H 	0.2875	0.2355	0.5282	0.108
Mof_H 	H 	0.2757	0.6737	0.4465	0.126
Mof_H 	H 	0.289	0.7008	0.3779	-0.065
Mof_H 	H 	0.0956	0.5232	0.3209	-0.03
Mof_H 	H 	0.0809	0.4901	0.388	0.126
Mof_H 	H 	0.0099	0.8257	0.5579	0.081
Mof_H 	H 	0.9152	0.9242	0.5639	-0.001
Mof_H 	H 	0.752	0.7532	0.6003	0.01
Mof_H 	H 	0.8468	0.6546	0.5944	0.085
Mof_H 	H 	0.809	0.005	0.5645	0.17
Mof_H 	H 	0.0263	0.9377	0.8312	0.051
Mof_H 	H 	0.0899	0.8521	0.8828	0.063
Mof_H 	H 	0.3152	0.6412	0.8858	0.058
Mof_H 	H 	0.4001	0.5847	0.8353	0.056
Mof_H 	H 	0.1033	0.0789	0.789	0.076
Mof_H 	H 	0.0061	0.1775	0.7895	0.019
Mof_H 	H 	0.2807	0.8073	0.9389	0.094
Mof_H 	H 	0.2303	0.7847	0.0032	0.005
Mof_H 	H 	0.0353	0.6191	0.9307	0.008
Mof_H 	H 	0.0775	0.6485	0.8677	0.085
Mof_H 	H 	0.5212	0.638	0.7963	0.127
Mof_H 	H 	0.6199	0.5427	0.7976	-0.039
Mof_H 	H 	0.2846	0.0184	0.836	0.062
Mof_H 	H 	0.3757	0.9637	0.7866	0.055
Mof_H 	H 	0.6433	0.7985	0.807	0.059
Mof_H 	H 	0.6908	0.706	0.8572	0.056
Mof_H 	H 	0.6026	0.6326	0.0043	0.057
Mof_H 	H 	0.5221	0.7017	0.0574	0.06
Mof_H 	H 	0.3461	0.9641	0.063	0.058
Mof_H 	H 	0.3029	0.0529	0.0112	0.055
Mof_H 	H 	0.4198	0.8258	0.7408	0.097
Mof_H 	H 	0.4561	0.8607	0.676	0.002
Mof_H 	H 	0.6686	0.006	0.7438	-0.015
Mof_H 	H 	0.6359	0.9687	0.8092	0.089
Mof_H 	H 	0.5823	0.5507	0.8914	0.106
Mof_H 	H 	0.6789	0.4559	0.8759	-0.037
Mof_H 	H 	0.8634	0.6196	0.9586	-0.009
Mof_H 	H 	0.7645	0.7125	0.9718	0.108
Mof_H 	H 	0.3263	0.7243	0.0535	0.126
Mof_H 	H 	0.2992	0.711	0.1221	-0.065
Mof_H 	H 	0.4768	0.9044	0.1791	-0.03
Mof_H 	H 	0.5099	0.9191	0.112	0.126
Mof_H 	H 	0.1743	0.9901	0.9421	0.082
Mof_H 	H 	0.0758	0.0848	0.9361	-0.001
Mof_H 	H 	0.2468	0.248	0.8997	0.01
Mof_H 	H 	0.3454	0.1532	0.9056	0.085
Mof_H 	H 	0.995	0.191	0.9355	0.168
Mof_H 	H 	0.0623	0.9737	0.6688	0.051
Mof_H 	H 	0.1479	0.9101	0.6172	0.062
Mof_H 	H 	0.3588	0.6848	0.6142	0.058
Mof_H 	H 	0.4153	0.5999	0.6647	0.056
Mof_H 	H 	0.9211	0.8967	0.711	0.077
Mof_H 	H 	0.8225	0.9939	0.7105	0.018
Mof_H 	H 	0.1927	0.7193	0.5611	0.094
Mof_H 	H 	0.2153	0.7697	0.4968	0.006
Mof_H 	H 	0.3809	0.9647	0.5693	0.007
Mof_H 	H 	0.3515	0.9225	0.6323	0.085
Mof_H 	H 	0.362	0.4788	0.7037	0.127
Mof_H 	H 	0.4573	0.3801	0.7024	-0.039
Mof_H 	H 	0.0184	0.2846	0.336	0.062
Mof_H 	H 	0.9637	0.3757	0.2866	0.055
Mof_H 	H 	0.7985	0.6433	0.307	0.059
Mof_H 	H 	0.706	0.6908	0.3572	0.056
Mof_H 	H 	0.6326	0.6026	0.5043	0.057
Mof_H 	H 	0.7017	0.5221	0.5574	0.06
Mof_H 	H 	0.9641	0.3461	0.563	0.058
Mof_H 	H 	0.0529	0.3029	0.5112	0.055
Mof_H 	H 	0.8258	0.4198	0.2408	0.097
Mof_H 	H 	0.8607	0.4561	0.176	0.002
Mof_H 	H 	0.006	0.6686	0.2438	-0.016
Mof_H 	H 	0.9687	0.6359	0.3092	0.089
Mof_H 	H 	0.5507	0.5823	0.3914	0.106
Mof_H 	H 	0.4559	0.6789	0.3759	-0.037
Mof_H 	H 	0.6196	0.8634	0.4586	-0.009
Mof_H 	H 	0.7125	0.7645	0.4718	0.108
Mof_H 	H 	0.7243	0.3263	0.5535	0.126
Mof_H 	H 	0.711	0.2992	0.6221	-0.065
Mof_H 	H 	0.9044	0.4768	0.6791	-0.03
Mof_H 	H 	0.9191	0.5099	0.612	0.126
Mof_H 	H 	0.9901	0.1743	0.4421	0.081
Mof_H 	H 	0.0848	0.0758	0.4361	-0.001
Mof_H 	H 	0.248	0.2468	0.3997	0.01
Mof_H 	H 	0.1532	0.3454	0.4056	0.085
Mof_H 	H 	0.191	0.995	0.4355	0.17
Mof_H 	H 	0.9737	0.0623	0.1688	0.051
Mof_H 	H 	0.9101	0.1479	0.1172	0.063
Mof_H 	H 	0.6848	0.3588	0.1142	0.058
Mof_H 	H 	0.5999	0.4153	0.1647	0.056
Mof_H 	H 	0.8967	0.9211	0.211	0.076
Mof_H 	H 	0.9939	0.8225	0.2105	0.019
Mof_H 	H 	0.7193	0.1927	0.0611	0.094
Mof_H 	H 	0.7697	0.2153	0.9968	0.005
Mof_H 	H 	0.9647	0.3809	0.0693	0.008
Mof_H 	H 	0.9225	0.3515	0.1323	0.085
Mof_H 	H 	0.4788	0.362	0.2037	0.127
Mof_H 	H 	0.3801	0.4573	0.2024	-0.039
Mof_H 	H 	0.7154	0.9816	0.164	0.062
Mof_H 	H 	0.6243	0.0363	0.2134	0.055
Mof_H 	H 	0.3567	0.2015	0.193	0.059
Mof_H 	H 	0.3092	0.294	0.1428	0.056
Mof_H 	H 	0.3974	0.3674	0.9957	0.057
Mof_H 	H 	0.4779	0.2983	0.9426	0.06
Mof_H 	H 	0.6539	0.0359	0.937	0.058
Mof_H 	H 	0.6971	0.9471	0.9888	0.055
Mof_H 	H 	0.5802	0.1742	0.2592	0.097
Mof_H 	H 	0.5439	0.1393	0.324	0.002
Mof_H 	H 	0.3314	0.994	0.2562	-0.015
Mof_H 	H 	0.3641	0.0313	0.1908	0.089
Mof_H 	H 	0.4177	0.4493	0.1086	0.106
Mof_H 	H 	0.3211	0.5441	0.1241	-0.037
Mof_H 	H 	0.1366	0.3804	0.0414	-0.009
Mof_H 	H 	0.2355	0.2875	0.0282	0.108
Mof_H 	H 	0.6737	0.2757	0.9465	0.126
Mof_H 	H 	0.7008	0.289	0.8779	-0.065
Mof_H 	H 	0.5232	0.0956	0.8209	-0.03
Mof_H 	H 	0.4901	0.0809	0.888	0.126
Mof_H 	H 	0.8257	0.0099	0.0579	0.082
Mof_H 	H 	0.9242	0.9152	0.0639	-0.001
Mof_H 	H 	0.7532	0.752	0.1003	0.01
Mof_H 	H 	0.6546	0.8468	0.0944	0.085
Mof_H 	H 	0.005	0.809	0.0645	0.168
Mof_H 	H 	0.9377	0.0263	0.3312	0.051
Mof_H 	H 	0.8521	0.0899	0.3828	0.062
Mof_H 	H 	0.6412	0.3152	0.3858	0.058
Mof_H 	H 	0.5847	0.4001	0.3353	0.056
Mof_H 	H 	0.0789	0.1033	0.289	0.077
Mof_H 	H 	0.1775	0.0061	0.2895	0.018
Mof_H 	H 	0.8073	0.2807	0.4389	0.094
Mof_H 	H 	0.7847	0.2303	0.5032	0.006
Mof_H 	H 	0.6191	0.0353	0.4307	0.007
Mof_H 	H 	0.6485	0.0775	0.3677	0.085
Mof_H 	H 	0.638	0.5212	0.2963	0.127
Mof_H 	H 	0.5427	0.6199	0.2976	-0.039
Mof_Pt	Pt	0.14396	0.52832	0.57205	0.34
Mof_Pt	Pt	0.47168	0.85604	0.92795	0.341
Mof_Pt	Pt	0.85604	0.47168	0.42795	0.34
Mof_Pt	Pt	0.52832	0.14396	0.07205	0.341
Mof_Pt	Pt	0.22725	0.77275	0.75	0.335
Mof_Pt	Pt	0.77275	0.22725	0.25	0.335
Mof_C 	C 	0.0308	0.6422	0.6143	0.103
Mof_C 	C 	0.0116	0.6696	0.6564	-0.083
Mof_C 	C 	0.0424	0.621	0.6836	-0.082
Mof_C 	C 	0.0863	0.5627	0.6597	0.11
Mof_C 	C 	0.1203	0.4971	0.6754	-0.128
Mof_C 	C 	0.1688	0.4442	0.6532	0.107
Mof_C 	C 	0.2086	0.3786	0.6673	-0.087
Mof_C 	C 	0.2582	0.3512	0.6397	-0.087
Mof_C 	C 	0.2473	0.3971	0.6047	0.116
Mof_C 	C 	0.2906	0.3902	0.57	-0.146
Mof_C 	C 	0.2762	0.434	0.5344	0.115
Mof_C 	C 	0.3209	0.4275	0.4988	-0.082
Mof_C 	C 	0.284	0.4724	0.4702	-0.09
Mof_C 	C 	0.2197	0.5099	0.489	0.121
Mof_C 	C 	0.1649	0.5593	0.4682	-0.153
Mof_C 	C 	0.1015	0.5935	0.4865	0.117
Mof_C 	C 	0.0405	0.6423	0.466	-0.088
Mof_C 	C 	0.9939	0.6673	0.4943	-0.072
Mof_C 	C 	0.0243	0.6427	0.535	0.098
Mof_C 	C 	0.0005	0.6707	0.5754	-0.118
Mof_C 	C 	0.1035	0.4765	0.7189	0.135
Mof_C 	C 	0.1372	0.53	0.7582	-0.188
Mof_C 	C 	0.1152	0.5084	0.7965	0.105
Mof_C 	C 	0.0604	0.4382	0.7957	-0.2
Mof_C 	C 	0.0296	0.3824	0.7568	0.117
Mof_C 	C 	0.0518	0.402	0.7179	-0.182
Mof_C 	C 	0.0313	0.4229	0.8373	0.422
Mof_C 	C 	0.3554	0.3318	0.572	0.179
Mof_C 	C 	0.4333	0.3593	0.5967	-0.232
Mof_C 	C 	0.4912	0.302	0.6049	0.151
Mof_C 	C 	0.4706	0.2194	0.5853	-0.252
Mof_C 	C 	0.3946	0.1936	0.5564	0.137
Mof_C 	C 	0.3382	0.2524	0.5493	-0.23
Mof_C 	C 	0.5277	0.1573	0.5951	0.467
Mof_C 	C 	0.1763	0.5763	0.4242	0.193
Mof_C 	C 	0.239	0.6418	0.4209	-0.267
Mof_C 	C 	0.2458	0.6582	0.3802	0.223
Mof_C 	C 	0.1932	0.6162	0.3428	-0.325
Mof_C 	C 	0.1327	0.5537	0.3467	0.207
Mof_C 	C 	0.1238	0.5338	0.3865	-0.271
Mof_C 	C 	0.1982	0.6382	0.2991	0.576
Mof_C 	C 	0.9373	0.7309	0.5756	0.118
Mof_C 	C 	0.9576	0.811	0.56653	-0.157
Mof_C 	C 	0.9013	0.8695	0.57005	0.074
Mof_C 	C 	0.8247	0.8479	0.58265	-0.147
Mof_C 	C 	0.80434	0.76794	0.59173	0.071
Mof_C 	C 	0.8607	0.7093	0.5882	-0.158
Mof_C 	C 	0.7619	0.9093	0.58929	0.372
Mof_C 	C 	0.10216	0.88084	0.78682	0.098
Mof_C 	C 	0.06606	0.89994	0.82618	-0.068
Mof_C 	C 	0.101	0.8528	0.8541	-0.096
Mof_C 	C 	0.1563	0.8053	0.8342	0.119
Mof_C 	C 	0.2036	0.749	0.8535	-0.128
Mof_C 	C 	0.264	0.707	0.8364	0.105
Mof_C 	C 	0.3149	0.6527	0.8571	-0.079
Mof_C 	C 	0.3601	0.6221	0.8297	-0.077
Mof_C 	C 	0.34	0.6546	0.7877	0.116
Mof_C 	C 	0.0471	0.0617	0.7733	-0.128
Mof_C 	C 	0.9893	0.1211	0.7737	0.049
Mof_C 	C 	0.182	0.7322	0.8965	0.128
Mof_C 	C 	0.2296	0.771	0.9369	-0.177
Mof_C 	C 	0.2002	0.7554	0.9753	0.095
Mof_C 	C 	0.1294	0.699	0.9733	-0.184
Mof_C 	C 	0.0842	0.6586	0.9327	0.104
Mof_C 	C 	0.11	0.676	0.8955	-0.174
Mof_C 	C 	0.1013	0.6779	0.0159	0.514
Mof_C 	C 	0.5081	0.5847	0.777	-0.28
Mof_C 	C 	0.5672	0.528	0.7778	0.194
Mof_C 	C 	0.3578	0.9692	0.8857	0.103
Mof_C 	C 	0.3304	0.9884	0.8436	-0.084
Mof_C 	C 	0.379	0.9576	0.8164	-0.081
Mof_C 	C 	0.4373	0.9137	0.8403	0.11
Mof_C 	C 	0.5029	0.8797	0.8246	-0.128
Mof_C 	C 	0.5558	0.8312	0.8468	0.107
Mof_C 	C 	0.6214	0.7914	0.8327	-0.087
Mof_C 	C 	0.6488	0.7418	0.8603	-0.087
Mof_C 	C 	0.6029	0.7527	0.8953	0.116
Mof_C 	C 	0.6098	0.7094	0.93	-0.146
Mof_C 	C 	0.566	0.7238	0.9656	0.115
Mof_C 	C 	0.5725	0.6791	0.0012	-0.082
Mof_C 	C 	0.5276	0.716	0.0298	-0.09
Mof_C 	C 	0.4901	0.7803	0.011	0.121
Mof_C 	C 	0.4407	0.8351	0.0318	-0.153
Mof_C 	C 	0.4065	0.8985	0.0135	0.116
Mof_C 	C 	0.3577	0.9595	0.034	-0.088
Mof_C 	C 	0.3327	0.0061	0.0057	-0.072
Mof_C 	C 	0.3573	0.9757	0.965	0.098
Mof_C 	C 	0.3293	0.9995	0.9246	-0.118
Mof_C 	C 	0.5235	0.8965	0.7811	0.135
Mof_C 	C 	0.47	0.8628	0.7418	-0.188
Mof_C 	C 	0.4916	0.8848	0.7035	0.104
Mof_C 	C 	0.5618	0.9396	0.7043	-0.2
Mof_C 	C 	0.6176	0.9704	0.7432	0.116
Mof_C 	C 	0.598	0.9482	0.7821	-0.181
Mof_C 	C 	0.5771	0.9687	0.6627	0.421
Mof_C 	C 	0.6682	0.6446	0.928	0.179
Mof_C 	C 	0.6407	0.5667	0.9033	-0.232
Mof_C 	C 	0.698	0.5088	0.8951	0.151
Mof_C 	C 	0.7806	0.5294	0.9147	-0.252
Mof_C 	C 	0.8064	0.6054	0.9436	0.137
Mof_C 	C 	0.7476	0.6618	0.9507	-0.23
Mof_C 	C 	0.8427	0.4723	0.9049	0.467
Mof_C 	C 	0.4237	0.8237	0.0758	0.193
Mof_C 	C 	0.3582	0.761	0.0791	-0.267
Mof_C 	C 	0.3418	0.7542	0.1198	0.223
Mof_C 	C 	0.3838	0.8068	0.1572	-0.324
Mof_C 	C 	0.4463	0.8673	0.1533	0.207
Mof_C 	C 	0.4662	0.8762	0.1135	-0.271
Mof_C 	C 	0.3618	0.8018	0.2009	0.576
Mof_C 	C 	0.2691	0.0627	0.9244	0.118
Mof_C 	C 	0.189	0.0424	0.93347	-0.157
Mof_C 	C 	0.1305	0.0987	0.92995	0.074
Mof_C 	C 	0.1521	0.1753	0.91735	-0.146
Mof_C 	C 	0.23206	0.19566	0.90827	0.071
Mof_C 	C 	0.2907	0.1393	0.9118	-0.158
Mof_C 	C 	0.0907	0.2381	0.91071	0.371
Mof_C 	C 	0.11916	0.89784	0.71318	0.098
Mof_C 	C 	0.10006	0.93394	0.67382	-0.068
Mof_C 	C 	0.1472	0.899	0.6459	-0.096
Mof_C 	C 	0.1947	0.8437	0.6658	0.119
Mof_C 	C 	0.251	0.7964	0.6465	-0.128
Mof_C 	C 	0.293	0.736	0.6636	0.104
Mof_C 	C 	0.3473	0.6851	0.6429	-0.079
Mof_C 	C 	0.3779	0.6399	0.6703	-0.077
Mof_C 	C 	0.3454	0.66	0.7123	0.116
Mof_C 	C 	0.9383	0.9529	0.7267	-0.129
Mof_C 	C 	0.8789	0.0107	0.7263	0.051
Mof_C 	C 	0.2678	0.818	0.6035	0.127
Mof_C 	C 	0.229	0.7704	0.5631	-0.176
Mof_C 	C 	0.2446	0.7998	0.5247	0.093
Mof_C 	C 	0.301	0.8706	0.5267	-0.185
Mof_C 	C 	0.3414	0.9158	0.5673	0.104
Mof_C 	C 	0.324	0.89	0.6045	-0.174
Mof_C 	C 	0.3221	0.8987	0.4841	0.515
Mof_C 	C 	0.4153	0.4919	0.723	-0.28
Mof_C 	C 	0.472	0.4328	0.7222	0.194
Mof_C 	C 	0.9692	0.3578	0.3857	0.103
Mof_C 	C 	0.9884	0.3304	0.3436	-0.083
Mof_C 	C 	0.9576	0.379	0.3164	-0.082
Mof_C 	C 	0.9137	0.4373	0.3403	0.11
Mof_C 	C 	0.8797	0.5029	0.3246	-0.128
Mof_C 	C 	0.8312	0.5558	0.3468	0.107
Mof_C 	C 	0.7914	0.6214	0.3327	-0.087
Mof_C 	C 	0.7418	0.6488	0.3603	-0.087
Mof_C 	C 	0.7527	0.6029	0.3953	0.116
Mof_C 	C 	0.7094	0.6098	0.43	-0.146
Mof_C 	C 	0.7238	0.566	0.4656	0.115
Mof_C 	C 	0.6791	0.5725	0.5012	-0.082
Mof_C 	C 	0.716	0.5276	0.5298	-0.09
Mof_C 	C 	0.7803	0.4901	0.511	0.121
Mof_C 	C 	0.8351	0.4407	0.5318	-0.153
Mof_C 	C 	0.8985	0.4065	0.5135	0.117
Mof_C 	C 	0.9595	0.3577	0.534	-0.088
Mof_C 	C 	0.0061	0.3327	0.5057	-0.072
Mof_C 	C 	0.9757	0.3573	0.465	0.098
Mof_C 	C 	0.9995	0.3293	0.4246	-0.118
Mof_C 	C 	0.8965	0.5235	0.2811	0.135
Mof_C 	C 	0.8628	0.47	0.2418	-0.188
Mof_C 	C 	0.8848	0.4916	0.2035	0.105
Mof_C 	C 	0.9396	0.5618	0.2043	-0.2
Mof_C 	C 	0.9704	0.6176	0.2432	0.117
Mof_C 	C 	0.9482	0.598	0.2821	-0.182
Mof_C 	C 	0.9687	0.5771	0.1627	0.422
Mof_C 	C 	0.6446	0.6682	0.428	0.179
Mof_C 	C 	0.5667	0.6407	0.4033	-0.232
Mof_C 	C 	0.5088	0.698	0.3951	0.151
Mof_C 	C 	0.5294	0.7806	0.4147	-0.252
Mof_C 	C 	0.6054	0.8064	0.4436	0.137
Mof_C 	C 	0.6618	0.7476	0.4507	-0.23
Mof_C 	C 	0.4723	0.8427	0.4049	0.467
Mof_C 	C 	0.8237	0.4237	0.5758	0.193
Mof_C 	C 	0.761	0.3582	0.5791	-0.267
Mof_C 	C 	0.7542	0.3418	0.6198	0.223
Mof_C 	C 	0.8068	0.3838	0.6572	-0.325
Mof_C 	C 	0.8673	0.4463	0.6533	0.207
Mof_C 	C 	0.8762	0.4662	0.6135	-0.271
Mof_C 	C 	0.8018	0.3618	0.7009	0.576
Mof_C 	C 	0.0627	0.2691	0.4244	0.118
Mof_C 	C 	0.0424	0.189	0.43347	-0.157
Mof_C 	C 	0.0987	0.1305	0.42995	0.074
Mof_C 	C 	0.1753	0.1521	0.41735	-0.147
Mof_C 	C 	0.19566	0.23206	0.40827	0.071
Mof_C 	C 	0.1393	0.2907	0.4118	-0.158
Mof_C 	C 	0.2381	0.0907	0.41071	0.372
Mof_C 	C 	0.89784	0.11916	0.21318	0.098
Mof_C 	C 	0.93394	0.10006	0.17382	-0.068
Mof_C 	C 	0.899	0.1472	0.1459	-0.096
Mof_C 	C 	0.8437	0.1947	0.1658	0.119
Mof_C 	C 	0.7964	0.251	0.1465	-0.128
Mof_C 	C 	0.736	0.293	0.1636	0.105
Mof_C 	C 	0.6851	0.3473	0.1429	-0.079
Mof_C 	C 	0.6399	0.3779	0.1703	-0.077
Mof_C 	C 	0.66	0.3454	0.2123	0.116
Mof_C 	C 	0.9529	0.9383	0.2267	-0.128
Mof_C 	C 	0.0107	0.8789	0.2263	0.049
Mof_C 	C 	0.818	0.2678	0.1035	0.128
Mof_C 	C 	0.7704	0.229	0.0631	-0.177
Mof_C 	C 	0.7998	0.2446	0.0247	0.095
Mof_C 	C 	0.8706	0.301	0.0267	-0.184
Mof_C 	C 	0.9158	0.3414	0.0673	0.104
Mof_C 	C 	0.89	0.324	0.1045	-0.174
Mof_C 	C 	0.8987	0.3221	0.9841	0.514
Mof_C 	C 	0.4919	0.4153	0.223	-0.28
Mof_C 	C 	0.4328	0.472	0.2222	0.194
Mof_C 	C 	0.6422	0.0308	0.1143	0.103
Mof_C 	C 	0.6696	0.0116	0.1564	-0.084
Mof_C 	C 	0.621	0.0424	0.1836	-0.081
Mof_C 	C 	0.5627	0.0863	0.1597	0.11
Mof_C 	C 	0.4971	0.1203	0.1754	-0.128
Mof_C 	C 	0.4442	0.1688	0.1532	0.107
Mof_C 	C 	0.3786	0.2086	0.1673	-0.087
Mof_C 	C 	0.3512	0.2582	0.1397	-0.087
Mof_C 	C 	0.3971	0.2473	0.1047	0.116
Mof_C 	C 	0.3902	0.2906	0.07	-0.146
Mof_C 	C 	0.434	0.2762	0.0344	0.115
Mof_C 	C 	0.4275	0.3209	0.9988	-0.082
Mof_C 	C 	0.4724	0.284	0.9702	-0.09
Mof_C 	C 	0.5099	0.2197	0.989	0.121
Mof_C 	C 	0.5593	0.1649	0.9682	-0.153
Mof_C 	C 	0.5935	0.1015	0.9865	0.116
Mof_C 	C 	0.6423	0.0405	0.966	-0.088
Mof_C 	C 	0.6673	0.9939	0.9943	-0.072
Mof_C 	C 	0.6427	0.0243	0.035	0.098
Mof_C 	C 	0.6707	0.0005	0.0754	-0.118
Mof_C 	C 	0.4765	0.1035	0.2189	0.135
Mof_C 	C 	0.53	0.1372	0.2582	-0.188
Mof_C 	C 	0.5084	0.1152	0.2965	0.104
Mof_C 	C 	0.4382	0.0604	0.2957	-0.2
Mof_C 	C 	0.3824	0.0296	0.2568	0.116
Mof_C 	C 	0.402	0.0518	0.2179	-0.181
Mof_C 	C 	0.4229	0.0313	0.3373	0.421
Mof_C 	C 	0.3318	0.3554	0.072	0.179
Mof_C 	C 	0.3593	0.4333	0.0967	-0.232
Mof_C 	C 	0.302	0.4912	0.1049	0.151
Mof_C 	C 	0.2194	0.4706	0.0853	-0.252
Mof_C 	C 	0.1936	0.3946	0.0564	0.137
Mof_C 	C 	0.2524	0.3382	0.0493	-0.23
Mof_C 	C 	0.1573	0.5277	0.0951	0.467
Mof_C 	C 	0.5763	0.1763	0.9242	0.193
Mof_C 	C 	0.6418	0.239	0.9209	-0.267
Mof_C 	C 	0.6582	0.2458	0.8802	0.223
Mof_C 	C 	0.6162	0.1932	0.8428	-0.324
Mof_C 	C 	0.5537	0.1327	0.8467	0.207
Mof_C 	C 	0.5338	0.1238	0.8865	-0.271
Mof_C 	C 	0.6382	0.1982	0.7991	0.576
Mof_C 	C 	0.7309	0.9373	0.0756	0.118
Mof_C 	C 	0.811	0.9576	0.06653	-0.157
Mof_C 	C 	0.8695	0.9013	0.07005	0.074
Mof_C 	C 	0.8479	0.8247	0.08265	-0.146
Mof_C 	C 	0.76794	0.80434	0.09173	0.071
Mof_C 	C 	0.7093	0.8607	0.0882	-0.158
Mof_C 	C 	0.9093	0.7619	0.08929	0.371
Mof_C 	C 	0.88084	0.10216	0.28682	0.098
Mof_C 	C 	0.89994	0.06606	0.32618	-0.068
Mof_C 	C 	0.8528	0.101	0.3541	-0.096
Mof_C 	C 	0.8053	0.1563	0.3342	0.119
Mof_C 	C 	0.749	0.2036	0.3535	-0.128
Mof_C 	C 	0.707	0.264	0.3364	0.104
Mof_C 	C 	0.6527	0.3149	0.3571	-0.079
Mof_C 	C 	0.6221	0.3601	0.3297	-0.077
Mof_C 	C 	0.6546	0.34	0.2877	0.116
Mof_C 	C 	0.0617	0.0471	0.2733	-0.129
Mof_C 	C 	0.1211	0.9893	0.2737	0.051
Mof_C 	C 	0.7322	0.182	0.3965	0.127
Mof_C 	C 	0.771	0.2296	0.4369	-0.176
Mof_C 	C 	0.7554	0.2002	0.4753	0.093
Mof_C 	C 	0.699	0.1294	0.4733	-0.185
Mof_C 	C 	0.6586	0.0842	0.4327	0.104
Mof_C 	C 	0.676	0.11	0.3955	-0.174
Mof_C 	C 	0.6779	0.1013	0.5159	0.515
Mof_C 	C 	0.5847	0.5081	0.277	-0.28
Mof_C 	C 	0.528	0.5672	0.2778	0.194
Mof_C 	C 	0.08471	0.91529	0.75	-0.113
Mof_C 	C 	0.3698	0.6302	0.75	-0.157
Mof_C 	C 	0.0232	0.9768	0.75	0.085
Mof_C 	C 	0.9053	0.0947	0.75	-0.177
Mof_C 	C 	0.8421	0.1579	0.75	0.508
Mof_C 	C 	0.4345	0.5655	0.75	0.225
Mof_C 	C 	0.549	0.451	0.75	-0.288
Mof_C 	C 	0.6115	0.3885	0.75	0.56
Mof_C 	C 	0.91529	0.08471	0.25	-0.113
Mof_C 	C 	0.6302	0.3698	0.25	-0.157
Mof_C 	C 	0.9768	0.0232	0.25	0.085
Mof_C 	C 	0.0947	0.9053	0.25	-0.177
Mof_C 	C 	0.1579	0.8421	0.25	0.508
Mof_C 	C 	0.5655	0.4345	0.25	0.225
Mof_C 	C 	0.451	0.549	0.25	-0.288
Mof_C 	C 	0.3885	0.6115	0.25	0.56
Mof_N 	N 	0.0817	0.5797	0.6179	-0.172
Mof_N 	N 	0.1913	0.4533	0.613	-0.17
Mof_N 	N 	0.2161	0.4859	0.5282	-0.175
Mof_N 	N 	0.0883	0.5933	0.5288	-0.172
Mof_N 	N 	0.1597	0.8239	0.7941	-0.17
Mof_N 	N 	0.281	0.7076	0.7936	-0.173
Mof_N 	N 	0.4203	0.9183	0.8821	-0.172
Mof_N 	N 	0.5467	0.8087	0.887	-0.17
Mof_N 	N 	0.5141	0.7839	0.9718	-0.175
Mof_N 	N 	0.4067	0.9117	0.9712	-0.172
Mof_N 	N 	0.1761	0.8403	0.7059	-0.17
Mof_N 	N 	0.2924	0.719	0.7064	-0.173
Mof_N 	N 	0.9183	0.4203	0.3821	-0.172
Mof_N 	N 	0.8087	0.5467	0.387	-0.17
Mof_N 	N 	0.7839	0.5141	0.4718	-0.175
Mof_N 	N 	0.9117	0.4067	0.4712	-0.172
Mof_N 	N 	0.8403	0.1761	0.2059	-0.17
Mof_N 	N 	0.719	0.2924	0.2064	-0.173
Mof_N 	N 	0.5797	0.0817	0.1179	-0.172
Mof_N 	N 	0.4533	0.1913	0.113	-0.17
Mof_N 	N 	0.4859	0.2161	0.0282	-0.175
Mof_N 	N 	0.5933	0.0883	0.0288	-0.172
Mof_N 	N 	0.8239	0.1597	0.2941	-0.17
Mof_N 	N 	0.7076	0.281	0.2936	-0.173
Mof_O 	O 	0.9611	0.3715	0.83238	-0.716
Mof_O 	O 	0.0712	0.4574	0.8743	-0.458
Mof_O 	O 	0.5094	0.082	0.5754	-0.537
Mof_O 	O 	0.5957	0.1805	0.62299	-0.682
Mof_O 	O 	0.1519	0.5961	0.2659	-0.599
Mof_O 	O 	0.2499	0.7007	0.29613	-0.704
Mof_O 	O 	0.7264	0.916	0.61768	-0.497
Mof_O 	O 	0.7578	0.9628	0.55982	-0.581
Mof_O 	O 	0.8695	0.2313	0.77025	-0.594
Mof_O 	O 	0.1412	0.7064	0.0484	-0.532
Mof_O 	O 	0.0336	0.6338	0.01	-0.538
Mof_O 	O 	0.6837	0.4109	0.7739	-0.6
Mof_O 	O 	0.6285	0.0389	0.66762	-0.716
Mof_O 	O 	0.5426	0.9288	0.6257	-0.459
Mof_O 	O 	0.918	0.4906	0.9246	-0.537
Mof_O 	O 	0.8195	0.4043	0.87701	-0.682
Mof_O 	O 	0.4039	0.8481	0.2341	-0.599
Mof_O 	O 	0.2993	0.7501	0.20387	-0.704
Mof_O 	O 	0.084	0.2736	0.88232	-0.496
Mof_O 	O 	0.0372	0.2422	0.94018	-0.579
Mof_O 	O 	0.7687	0.1305	0.72975	-0.594
Mof_O 	O 	0.2936	0.8588	0.4516	-0.533
Mof_O 	O 	0.3662	0.9664	0.49	-0.538
Mof_O 	O 	0.5891	0.3163	0.7261	-0.6
Mof_O 	O 	0.0389	0.6285	0.16762	-0.716
Mof_O 	O 	0.9288	0.5426	0.1257	-0.458
Mof_O 	O 	0.4906	0.918	0.4246	-0.537
Mof_O 	O 	0.4043	0.8195	0.37701	-0.682
Mof_O 	O 	0.8481	0.4039	0.7341	-0.599
Mof_O 	O 	0.7501	0.2993	0.70387	-0.704
Mof_O 	O 	0.2736	0.084	0.38232	-0.497
Mof_O 	O 	0.2422	0.0372	0.44018	-0.581
Mof_O 	O 	0.1305	0.7687	0.22975	-0.594
Mof_O 	O 	0.8588	0.2936	0.9516	-0.532
Mof_O 	O 	0.9664	0.3662	0.99	-0.538
Mof_O 	O 	0.3163	0.5891	0.2261	-0.6
Mof_O 	O 	0.3715	0.9611	0.33238	-0.716
Mof_O 	O 	0.4574	0.0712	0.3743	-0.459
Mof_O 	O 	0.082	0.5094	0.0754	-0.537
Mof_O 	O 	0.1805	0.5957	0.12299	-0.682
Mof_O 	O 	0.5961	0.1519	0.7659	-0.599
Mof_O 	O 	0.7007	0.2499	0.79613	-0.704
Mof_O 	O 	0.916	0.7264	0.11768	-0.496
Mof_O 	O 	0.9628	0.7578	0.05982	-0.579
Mof_O 	O 	0.2313	0.8695	0.27025	-0.594
Mof_O 	O 	0.7064	0.1412	0.5484	-0.533
Mof_O 	O 	0.6338	0.0336	0.51	-0.538
Mof_O 	O 	0.4109	0.6837	0.2739	-0.6
_end
