data_functionalizedCrystal
_audit_creation_method	'EQeq! by Chris Wilmer'
_symmetry_space_group_name_H-M	'P1'
_symmetry_Int_Tables_number	1
_symmetry_cell_setting	triclinic
loop_
_symmetry_equiv_pos_as_xyz
  x,y,z
_cell_length_a	24.65
_cell_length_b	33.494
_cell_length_c	18.529
_cell_angle_alpha	90
_cell_angle_beta	90
_cell_angle_gamma	90
loop_
_atom_site_label
_atom_site_type_symbol
_atom_site_fract_x
_atom_site_fract_y
_atom_site_fract_z
_atom_site_charge
Mof_O 	O 	0.05702	0.43273	0.324	-0.412
Mof_C 	C 	0.07393	0.39938	0.3438	0.352
Mof_O 	O 	0.05437	0.36573	0.32398	-0.412
Mof_C 	C 	0.12097	0.39695	0.39399	-0.09
Mof_Cu	Cu	0.21002	0.23273	0.46367	0.906
Mof_O 	O 	0.24936	0.31657	0.51496	-0.412
Mof_C 	C 	0.14801	0.4315	0.41501	-0.014
Mof_H 	H 	0.1348	0.4569	0.4003	0.05
Mof_O 	O 	0.18241	0.28692	0.45465	-0.417
Mof_C 	C 	0.19461	0.42895	0.45779	-0.007
Mof_O 	O 	0.3237	0.27223	0.4415	-0.408
Mof_C 	C 	0.21331	0.39168	0.47918	-0.013
Mof_H 	H 	0.2454	0.3897	0.5073	0.052
Mof_O 	O 	0.25586	0.24346	0.38052	-0.413
Mof_C 	C 	0.18553	0.35751	0.45981	-0.087
Mof_C 	C 	0.13963	0.36061	0.4159	0.031
Mof_H 	H 	0.1212	0.3371	0.4011	0.05
Mof_C 	C 	0.20689	0.31655	0.47883	0.373
Mof_C 	C 	0.22315	0.46606	0.47939	0.017
Mof_C 	C 	0.2801	0.46763	0.47937	0.001
Mof_H 	H 	0.2997	0.4447	0.4641	0.043
Mof_C 	C 	0.30006	0.26134	0.38454	0.365
Mof_C 	C 	0.32742	0.27159	0.3146	-0.086
Mof_C 	C 	0.3752	0.29358	0.31471	-0.015
Mof_H 	H 	0.3916	0.3008	0.3593	0.055
Mof_C 	C 	0.45493	0.36262	0.29901	0.012
Mof_H 	H 	0.4221	0.3724	0.3191	0.039
Mof_O 	O 	0.55702	0.93273	0.324	-0.403
Mof_C 	C 	0.57393	0.89938	0.3438	0.352
Mof_O 	O 	0.55437	0.86573	0.32398	-0.402
Mof_C 	C 	0.62097	0.89695	0.39399	-0.084
Mof_Cu	Cu	0.71002	0.73273	0.46367	0.908
Mof_O 	O 	0.74936	0.81657	0.51496	-0.409
Mof_C 	C 	0.64801	0.9315	0.41501	-0.016
Mof_H 	H 	0.6348	0.9569	0.4003	0.054
Mof_O 	O 	0.68241	0.78692	0.45465	-0.413
Mof_C 	C 	0.69461	0.92895	0.45779	-0.002
Mof_O 	O 	0.8237	0.77223	0.4415	-0.404
Mof_C 	C 	0.71331	0.89168	0.47918	-0.015
Mof_H 	H 	0.7454	0.8897	0.5073	0.056
Mof_O 	O 	0.75586	0.74346	0.38052	-0.411
Mof_C 	C 	0.68553	0.85751	0.45981	-0.083
Mof_C 	C 	0.63963	0.86061	0.4159	0.029
Mof_H 	H 	0.6212	0.8371	0.4011	0.054
Mof_C 	C 	0.70689	0.81655	0.47883	0.372
Mof_C 	C 	0.72315	0.96606	0.47939	0.015
Mof_C 	C 	0.7801	0.96763	0.47937	0.001
Mof_H 	H 	0.7997	0.9447	0.4641	0.046
Mof_C 	C 	0.80006	0.76134	0.38454	0.366
Mof_C 	C 	0.82742	0.77159	0.3146	-0.087
Mof_C 	C 	0.8752	0.79358	0.31471	-0.005
Mof_H 	H 	0.8916	0.8008	0.3593	0.056
Mof_C 	C 	0.95493	0.86262	0.29901	0.037
Mof_H 	H 	0.9221	0.8724	0.3191	0.037
Mof_O 	O 	0.94298	0.56727	0.824	-0.387
Mof_C 	C 	0.92607	0.60062	0.8438	0.348
Mof_O 	O 	0.94563	0.63427	0.82398	-0.386
Mof_C 	C 	0.87903	0.60305	0.89399	-0.074
Mof_Cu	Cu	0.78998	0.76727	0.96367	0.908
Mof_O 	O 	0.75064	0.68343	0.01496	-0.405
Mof_C 	C 	0.85199	0.5685	0.91501	-0.021
Mof_H 	H 	0.8652	0.5431	0.9003	0.058
Mof_O 	O 	0.81759	0.71308	0.95465	-0.409
Mof_C 	C 	0.80539	0.57105	0.95779	0.005
Mof_O 	O 	0.6763	0.72777	0.9415	-0.409
Mof_C 	C 	0.78669	0.60832	0.97918	-0.027
Mof_H 	H 	0.7546	0.6103	0.0073	0.062
Mof_O 	O 	0.74414	0.75654	0.88052	-0.411
Mof_C 	C 	0.81447	0.64249	0.95981	-0.074
Mof_C 	C 	0.86037	0.63939	0.9159	0.022
Mof_H 	H 	0.8788	0.6629	0.9011	0.06
Mof_C 	C 	0.79311	0.68345	0.97883	0.365
Mof_C 	C 	0.77685	0.53394	0.97939	0.011
Mof_C 	C 	0.7199	0.53237	0.97937	0
Mof_H 	H 	0.7003	0.5553	0.9641	0.043
Mof_C 	C 	0.69994	0.73866	0.88454	0.364
Mof_C 	C 	0.67258	0.72841	0.8146	-0.085
Mof_C 	C 	0.6248	0.70642	0.81471	-0.015
Mof_H 	H 	0.6084	0.6992	0.8593	0.054
Mof_C 	C 	0.54507	0.63738	0.79901	0.012
Mof_H 	H 	0.5779	0.6276	0.8191	0.039
Mof_O 	O 	0.44298	0.06727	0.824	-0.403
Mof_C 	C 	0.42607	0.10062	0.8438	0.351
Mof_O 	O 	0.44563	0.13427	0.82398	-0.402
Mof_C 	C 	0.37903	0.10305	0.89399	-0.081
Mof_Cu	Cu	0.28998	0.26727	0.96367	0.907
Mof_O 	O 	0.25064	0.18343	0.01496	-0.407
Mof_C 	C 	0.35199	0.0685	0.91501	-0.019
Mof_H 	H 	0.3652	0.0431	0.9003	0.055
Mof_O 	O 	0.31759	0.21308	0.95465	-0.412
Mof_C 	C 	0.30539	0.07105	0.95779	0.003
Mof_O 	O 	0.1763	0.22777	0.9415	-0.412
Mof_C 	C 	0.28669	0.10832	0.97918	-0.025
Mof_H 	H 	0.2546	0.1103	0.0073	0.06
Mof_O 	O 	0.24414	0.25654	0.88052	-0.414
Mof_C 	C 	0.31447	0.14249	0.95981	-0.078
Mof_C 	C 	0.36037	0.13939	0.9159	0.025
Mof_H 	H 	0.3788	0.1629	0.9011	0.055
Mof_C 	C 	0.29311	0.18345	0.97883	0.366
Mof_C 	C 	0.27685	0.03394	0.97939	0.01
Mof_C 	C 	0.2199	0.03237	0.97937	0
Mof_H 	H 	0.2003	0.0553	0.9641	0.041
Mof_C 	C 	0.19994	0.23866	0.88454	0.367
Mof_C 	C 	0.17258	0.22841	0.8146	-0.094
Mof_C 	C 	0.1248	0.20642	0.81471	-0.005
Mof_H 	H 	0.1084	0.1992	0.8593	0.047
Mof_C 	C 	0.04507	0.13738	0.79901	-0
Mof_H 	H 	0.0779	0.1276	0.8191	0.04
Mof_O 	O 	0.94298	0.43273	0.176	-0.386
Mof_C 	C 	0.92607	0.39938	0.1562	0.35
Mof_O 	O 	0.94563	0.36573	0.17602	-0.385
Mof_C 	C 	0.87903	0.39695	0.10601	-0.079
Mof_Cu	Cu	0.78998	0.23273	0.03633	0.91
Mof_O 	O 	0.75064	0.31657	0.98504	-0.414
Mof_C 	C 	0.85199	0.4315	0.08499	-0.015
Mof_H 	H 	0.8652	0.4569	0.0997	0.057
Mof_O 	O 	0.81759	0.28692	0.04535	-0.41
Mof_C 	C 	0.80539	0.42895	0.04221	-0.003
Mof_O 	O 	0.6763	0.27223	0.0585	-0.405
Mof_C 	C 	0.78669	0.39168	0.02082	-0.006
Mof_H 	H 	0.7546	0.3897	0.9927	0.049
Mof_O 	O 	0.74414	0.24346	0.11948	-0.41
Mof_C 	C 	0.81447	0.35751	0.04019	-0.084
Mof_C 	C 	0.86037	0.36061	0.0841	0.03
Mof_H 	H 	0.8788	0.3371	0.0989	0.058
Mof_C 	C 	0.79311	0.31655	0.02117	0.378
Mof_C 	C 	0.77685	0.46606	0.02061	0.018
Mof_C 	C 	0.7199	0.46763	0.02063	0.003
Mof_H 	H 	0.7003	0.4447	0.0359	0.044
Mof_C 	C 	0.69994	0.26134	0.11546	0.364
Mof_C 	C 	0.67258	0.27159	0.1854	-0.084
Mof_C 	C 	0.6248	0.29358	0.18529	-0.016
Mof_H 	H 	0.6084	0.3008	0.1407	0.055
Mof_C 	C 	0.54507	0.36262	0.20099	0.012
Mof_H 	H 	0.5779	0.3724	0.1809	0.04
Mof_O 	O 	0.44298	0.93273	0.176	-0.403
Mof_C 	C 	0.42607	0.89938	0.1562	0.353
Mof_O 	O 	0.44563	0.86573	0.17602	-0.402
Mof_C 	C 	0.37903	0.89695	0.10601	-0.086
Mof_Cu	Cu	0.28998	0.73273	0.03633	0.909
Mof_O 	O 	0.25064	0.81657	0.98504	-0.417
Mof_C 	C 	0.35199	0.9315	0.08499	-0.013
Mof_H 	H 	0.3652	0.9569	0.0997	0.053
Mof_O 	O 	0.31759	0.78692	0.04535	-0.414
Mof_C 	C 	0.30539	0.92895	0.04221	-0.006
Mof_O 	O 	0.1763	0.77223	0.0585	-0.409
Mof_C 	C 	0.28669	0.89168	0.02082	-0.004
Mof_H 	H 	0.2546	0.8897	0.9927	0.047
Mof_O 	O 	0.24414	0.74346	0.11948	-0.412
Mof_C 	C 	0.31447	0.85751	0.04019	-0.089
Mof_C 	C 	0.36037	0.86061	0.0841	0.033
Mof_H 	H 	0.3788	0.8371	0.0989	0.053
Mof_C 	C 	0.29311	0.81655	0.02117	0.379
Mof_C 	C 	0.27685	0.96606	0.02061	0.014
Mof_C 	C 	0.2199	0.96763	0.02063	-0
Mof_H 	H 	0.2003	0.9447	0.0359	0.042
Mof_C 	C 	0.19994	0.76134	0.11546	0.366
Mof_C 	C 	0.17258	0.77159	0.1854	-0.093
Mof_C 	C 	0.1248	0.79358	0.18529	-0.005
Mof_H 	H 	0.1084	0.8008	0.1407	0.048
Mof_C 	C 	0.04507	0.86262	0.20099	-0
Mof_H 	H 	0.0779	0.8724	0.1809	0.041
Mof_O 	O 	0.05702	0.56727	0.676	-0.412
Mof_C 	C 	0.07393	0.60062	0.6562	0.353
Mof_O 	O 	0.05437	0.63427	0.67602	-0.411
Mof_C 	C 	0.12097	0.60305	0.60601	-0.089
Mof_Cu	Cu	0.21002	0.76727	0.53633	0.907
Mof_O 	O 	0.24936	0.68343	0.48504	-0.411
Mof_C 	C 	0.14801	0.5685	0.58499	-0.013
Mof_H 	H 	0.1348	0.5431	0.5997	0.051
Mof_O 	O 	0.18241	0.71308	0.54535	-0.416
Mof_C 	C 	0.19461	0.57105	0.54221	-0.006
Mof_O 	O 	0.3237	0.72777	0.5585	-0.407
Mof_C 	C 	0.21331	0.60832	0.52082	-0.012
Mof_H 	H 	0.2454	0.6103	0.4927	0.053
Mof_O 	O 	0.25586	0.75654	0.61948	-0.413
Mof_C 	C 	0.18553	0.64249	0.54019	-0.087
Mof_C 	C 	0.13963	0.63939	0.5841	0.031
Mof_H 	H 	0.1212	0.6629	0.5989	0.05
Mof_C 	C 	0.20689	0.68345	0.52117	0.373
Mof_C 	C 	0.22315	0.53394	0.52061	0.018
Mof_C 	C 	0.2801	0.53237	0.52063	0.001
Mof_H 	H 	0.2997	0.5553	0.5359	0.043
Mof_C 	C 	0.30006	0.73866	0.61546	0.365
Mof_C 	C 	0.32742	0.72841	0.6854	-0.086
Mof_C 	C 	0.3752	0.70642	0.68529	-0.014
Mof_H 	H 	0.3916	0.6992	0.6407	0.054
Mof_C 	C 	0.45493	0.63738	0.70099	0.012
Mof_H 	H 	0.4221	0.6276	0.6809	0.039
Mof_O 	O 	0.55702	0.06727	0.676	-0.402
Mof_C 	C 	0.57393	0.10062	0.6562	0.352
Mof_O 	O 	0.55437	0.13427	0.67602	-0.402
Mof_C 	C 	0.62097	0.10305	0.60601	-0.083
Mof_Cu	Cu	0.71002	0.26727	0.53633	0.908
Mof_O 	O 	0.74936	0.18343	0.48504	-0.409
Mof_C 	C 	0.64801	0.0685	0.58499	-0.016
Mof_H 	H 	0.6348	0.0431	0.5997	0.054
Mof_O 	O 	0.68241	0.21308	0.54535	-0.413
Mof_C 	C 	0.69461	0.07105	0.54221	-0.001
Mof_O 	O 	0.8237	0.22777	0.5585	-0.404
Mof_C 	C 	0.71331	0.10832	0.52082	-0.015
Mof_H 	H 	0.7454	0.1103	0.4927	0.056
Mof_O 	O 	0.75586	0.25654	0.61948	-0.411
Mof_C 	C 	0.68553	0.14249	0.54019	-0.082
Mof_C 	C 	0.63963	0.13939	0.5841	0.029
Mof_H 	H 	0.6212	0.1629	0.5989	0.054
Mof_C 	C 	0.70689	0.18345	0.52117	0.372
Mof_C 	C 	0.72315	0.03394	0.52061	0.017
Mof_C 	C 	0.7801	0.03237	0.52063	0.004
Mof_H 	H 	0.7997	0.0553	0.5359	0.046
Mof_C 	C 	0.80006	0.23866	0.61546	0.366
Mof_C 	C 	0.82742	0.22841	0.6854	-0.087
Mof_C 	C 	0.8752	0.20642	0.68529	-0.005
Mof_H 	H 	0.8916	0.1992	0.6407	0.056
Mof_C 	C 	0.95493	0.13738	0.70099	0.037
Mof_H 	H 	0.9221	0.1276	0.6809	0.037
Mof_O 	O 	0.94298	0.56727	0.676	-0.387
Mof_C 	C 	0.92607	0.60062	0.6562	0.349
Mof_O 	O 	0.94563	0.63427	0.67602	-0.385
Mof_C 	C 	0.87903	0.60305	0.60601	-0.077
Mof_Cu	Cu	0.78998	0.76727	0.53633	0.909
Mof_O 	O 	0.75064	0.68343	0.48504	-0.41
Mof_C 	C 	0.85199	0.5685	0.58499	-0.017
Mof_H 	H 	0.8652	0.5431	0.5997	0.057
Mof_O 	O 	0.81759	0.71308	0.54535	-0.41
Mof_C 	C 	0.80539	0.57105	0.54221	-0
Mof_O 	O 	0.6763	0.72777	0.5585	-0.407
Mof_C 	C 	0.78669	0.60832	0.52082	-0.015
Mof_H 	H 	0.7546	0.6103	0.4927	0.055
Mof_O 	O 	0.74414	0.75654	0.61948	-0.41
Mof_C 	C 	0.81447	0.64249	0.54019	-0.08
Mof_C 	C 	0.86037	0.63939	0.5841	0.026
Mof_H 	H 	0.8788	0.6629	0.5989	0.059
Mof_C 	C 	0.79311	0.68345	0.52117	0.371
Mof_C 	C 	0.77685	0.53394	0.52061	0.018
Mof_C 	C 	0.7199	0.53237	0.52063	0.002
Mof_H 	H 	0.7003	0.5553	0.5359	0.043
Mof_C 	C 	0.69994	0.73866	0.61546	0.364
Mof_C 	C 	0.67258	0.72841	0.6854	-0.085
Mof_C 	C 	0.6248	0.70642	0.68529	-0.015
Mof_H 	H 	0.6084	0.6992	0.6407	0.055
Mof_C 	C 	0.54507	0.63738	0.70099	0.012
Mof_H 	H 	0.5779	0.6276	0.6809	0.039
Mof_O 	O 	0.44298	0.06727	0.676	-0.403
Mof_C 	C 	0.42607	0.10062	0.6562	0.353
Mof_O 	O 	0.44563	0.13427	0.67602	-0.402
Mof_C 	C 	0.37903	0.10305	0.60601	-0.084
Mof_Cu	Cu	0.28998	0.26727	0.53633	0.908
Mof_O 	O 	0.25064	0.18343	0.48504	-0.412
Mof_C 	C 	0.35199	0.0685	0.58499	-0.015
Mof_H 	H 	0.3652	0.0431	0.5997	0.054
Mof_O 	O 	0.31759	0.21308	0.54535	-0.413
Mof_C 	C 	0.30539	0.07105	0.54221	-0.003
Mof_O 	O 	0.1763	0.22777	0.5585	-0.411
Mof_C 	C 	0.28669	0.10832	0.52082	-0.014
Mof_H 	H 	0.2546	0.1103	0.4927	0.053
Mof_O 	O 	0.24414	0.25654	0.61948	-0.413
Mof_C 	C 	0.31447	0.14249	0.54019	-0.084
Mof_C 	C 	0.36037	0.13939	0.5841	0.029
Mof_H 	H 	0.3788	0.1629	0.5989	0.054
Mof_C 	C 	0.29311	0.18345	0.52117	0.373
Mof_C 	C 	0.27685	0.03394	0.52061	0.016
Mof_C 	C 	0.2199	0.03237	0.52063	0.002
Mof_H 	H 	0.2003	0.0553	0.5359	0.041
Mof_C 	C 	0.19994	0.23866	0.61546	0.367
Mof_C 	C 	0.17258	0.22841	0.6854	-0.093
Mof_C 	C 	0.1248	0.20642	0.68529	-0.005
Mof_H 	H 	0.1084	0.1992	0.6407	0.048
Mof_C 	C 	0.04507	0.13738	0.70099	-0
Mof_H 	H 	0.0779	0.1276	0.6809	0.041
Mof_O 	O 	0.05702	0.43273	0.176	-0.411
Mof_C 	C 	0.07393	0.39938	0.1562	0.354
Mof_O 	O 	0.05437	0.36573	0.17602	-0.411
Mof_C 	C 	0.12097	0.39695	0.10601	-0.091
Mof_Cu	Cu	0.21002	0.23273	0.03633	0.908
Mof_O 	O 	0.24936	0.31657	0.98504	-0.416
Mof_C 	C 	0.14801	0.4315	0.08499	-0.011
Mof_H 	H 	0.1348	0.4569	0.0997	0.05
Mof_O 	O 	0.18241	0.28692	0.04535	-0.416
Mof_C 	C 	0.19461	0.42895	0.04221	-0.009
Mof_O 	O 	0.3237	0.27223	0.0585	-0.405
Mof_C 	C 	0.21331	0.39168	0.02082	-0.002
Mof_H 	H 	0.2454	0.3897	0.9927	0.047
Mof_O 	O 	0.25586	0.24346	0.11948	-0.412
Mof_C 	C 	0.18553	0.35751	0.04019	-0.092
Mof_C 	C 	0.13963	0.36061	0.0841	0.035
Mof_H 	H 	0.1212	0.3371	0.0989	0.05
Mof_C 	C 	0.20689	0.31655	0.02117	0.379
Mof_C 	C 	0.22315	0.46606	0.02061	0.018
Mof_C 	C 	0.2801	0.46763	0.02063	0.002
Mof_H 	H 	0.2997	0.4447	0.0359	0.044
Mof_C 	C 	0.30006	0.26134	0.11546	0.365
Mof_C 	C 	0.32742	0.27159	0.1854	-0.085
Mof_C 	C 	0.3752	0.29358	0.18529	-0.015
Mof_H 	H 	0.3916	0.3008	0.1407	0.055
Mof_C 	C 	0.45493	0.36262	0.20099	0.012
Mof_H 	H 	0.4221	0.3724	0.1809	0.04
Mof_O 	O 	0.55702	0.93273	0.176	-0.403
Mof_C 	C 	0.57393	0.89938	0.1562	0.353
Mof_O 	O 	0.55437	0.86573	0.17602	-0.402
Mof_C 	C 	0.62097	0.89695	0.10601	-0.085
Mof_Cu	Cu	0.71002	0.73273	0.03633	0.909
Mof_O 	O 	0.74936	0.81657	0.98504	-0.414
Mof_C 	C 	0.64801	0.9315	0.08499	-0.013
Mof_H 	H 	0.6348	0.9569	0.0997	0.053
Mof_O 	O 	0.68241	0.78692	0.04535	-0.413
Mof_C 	C 	0.69461	0.92895	0.04221	-0.005
Mof_O 	O 	0.8237	0.77223	0.0585	-0.402
Mof_C 	C 	0.71331	0.89168	0.02082	-0.005
Mof_H 	H 	0.7454	0.8897	0.9927	0.05
Mof_O 	O 	0.75586	0.74346	0.11948	-0.411
Mof_C 	C 	0.68553	0.85751	0.04019	-0.087
Mof_C 	C 	0.63963	0.86061	0.0841	0.032
Mof_H 	H 	0.6212	0.8371	0.0989	0.054
Mof_C 	C 	0.70689	0.81655	0.02117	0.378
Mof_C 	C 	0.72315	0.96606	0.02061	0.015
Mof_C 	C 	0.7801	0.96763	0.02063	0.002
Mof_H 	H 	0.7997	0.9447	0.0359	0.047
Mof_C 	C 	0.80006	0.76134	0.11546	0.366
Mof_C 	C 	0.82742	0.77159	0.1854	-0.087
Mof_C 	C 	0.8752	0.79358	0.18529	-0.005
Mof_H 	H 	0.8916	0.8008	0.1407	0.057
Mof_C 	C 	0.95493	0.86262	0.20099	0.037
Mof_H 	H 	0.9221	0.8724	0.1809	0.037
Mof_O 	O 	0.05702	0.56727	0.824	-0.411
Mof_C 	C 	0.07393	0.60062	0.8438	0.352
Mof_O 	O 	0.05437	0.63427	0.82398	-0.411
Mof_C 	C 	0.12097	0.60305	0.89399	-0.087
Mof_Cu	Cu	0.21002	0.76727	0.96367	0.906
Mof_O 	O 	0.24936	0.68343	0.01496	-0.407
Mof_C 	C 	0.14801	0.5685	0.91501	-0.017
Mof_H 	H 	0.1348	0.5431	0.9003	0.051
Mof_O 	O 	0.18241	0.71308	0.95465	-0.415
Mof_C 	C 	0.19461	0.57105	0.95779	-0
Mof_O 	O 	0.3237	0.72777	0.9415	-0.409
Mof_C 	C 	0.21331	0.60832	0.97918	-0.024
Mof_H 	H 	0.2454	0.6103	0.0073	0.06
Mof_O 	O 	0.25586	0.75654	0.88052	-0.414
Mof_C 	C 	0.18553	0.64249	0.95981	-0.081
Mof_C 	C 	0.13963	0.63939	0.9159	0.027
Mof_H 	H 	0.1212	0.6629	0.9011	0.051
Mof_C 	C 	0.20689	0.68345	0.97883	0.366
Mof_C 	C 	0.22315	0.53394	0.97939	0.011
Mof_C 	C 	0.2801	0.53237	0.97937	-0.001
Mof_H 	H 	0.2997	0.5553	0.9641	0.043
Mof_C 	C 	0.30006	0.73866	0.88454	0.365
Mof_C 	C 	0.32742	0.72841	0.8146	-0.087
Mof_C 	C 	0.3752	0.70642	0.81471	-0.014
Mof_H 	H 	0.3916	0.6992	0.8593	0.054
Mof_C 	C 	0.45493	0.63738	0.79901	0.012
Mof_H 	H 	0.4221	0.6276	0.8191	0.039
Mof_O 	O 	0.55702	0.06727	0.824	-0.402
Mof_C 	C 	0.57393	0.10062	0.8438	0.351
Mof_O 	O 	0.55437	0.13427	0.82398	-0.402
Mof_C 	C 	0.62097	0.10305	0.89399	-0.08
Mof_Cu	Cu	0.71002	0.26727	0.96367	0.907
Mof_O 	O 	0.74936	0.18343	0.01496	-0.404
Mof_C 	C 	0.64801	0.0685	0.91501	-0.02
Mof_H 	H 	0.6348	0.0431	0.9003	0.055
Mof_O 	O 	0.68241	0.21308	0.95465	-0.412
Mof_C 	C 	0.69461	0.07105	0.95779	0.004
Mof_O 	O 	0.8237	0.22777	0.9415	-0.406
Mof_C 	C 	0.71331	0.10832	0.97918	-0.026
Mof_H 	H 	0.7454	0.1103	0.0073	0.063
Mof_O 	O 	0.75586	0.25654	0.88052	-0.412
Mof_C 	C 	0.68553	0.14249	0.95981	-0.077
Mof_C 	C 	0.63963	0.13939	0.9159	0.024
Mof_H 	H 	0.6212	0.1629	0.9011	0.055
Mof_C 	C 	0.70689	0.18345	0.97883	0.365
Mof_C 	C 	0.72315	0.03394	0.97939	0.01
Mof_C 	C 	0.7801	0.03237	0.97937	0.002
Mof_H 	H 	0.7997	0.0553	0.9641	0.045
Mof_C 	C 	0.80006	0.23866	0.88454	0.366
Mof_C 	C 	0.82742	0.22841	0.8146	-0.088
Mof_C 	C 	0.8752	0.20642	0.81471	-0.005
Mof_H 	H 	0.8916	0.1992	0.8593	0.056
Mof_C 	C 	0.95493	0.13738	0.79901	0.037
Mof_H 	H 	0.9221	0.1276	0.8191	0.037
Mof_O 	O 	0.94298	0.43273	0.324	-0.386
Mof_C 	C 	0.92607	0.39938	0.3438	0.349
Mof_O 	O 	0.94563	0.36573	0.32398	-0.385
Mof_C 	C 	0.87903	0.39695	0.39399	-0.077
Mof_Cu	Cu	0.78998	0.23273	0.46367	0.909
Mof_O 	O 	0.75064	0.31657	0.51496	-0.41
Mof_C 	C 	0.85199	0.4315	0.41501	-0.017
Mof_H 	H 	0.8652	0.4569	0.4003	0.057
Mof_O 	O 	0.81759	0.28692	0.45465	-0.41
Mof_C 	C 	0.80539	0.42895	0.45779	-0
Mof_O 	O 	0.6763	0.27223	0.4415	-0.407
Mof_C 	C 	0.78669	0.39168	0.47918	-0.015
Mof_H 	H 	0.7546	0.3897	0.5073	0.055
Mof_O 	O 	0.74414	0.24346	0.38052	-0.41
Mof_C 	C 	0.81447	0.35751	0.45981	-0.08
Mof_C 	C 	0.86037	0.36061	0.4159	0.026
Mof_H 	H 	0.8788	0.3371	0.4011	0.059
Mof_C 	C 	0.79311	0.31655	0.47883	0.371
Mof_C 	C 	0.77685	0.46606	0.47939	0.018
Mof_C 	C 	0.7199	0.46763	0.47937	0.002
Mof_H 	H 	0.7003	0.4447	0.4641	0.043
Mof_C 	C 	0.69994	0.26134	0.38454	0.364
Mof_C 	C 	0.67258	0.27159	0.3146	-0.084
Mof_C 	C 	0.6248	0.29358	0.31471	-0.016
Mof_H 	H 	0.6084	0.3008	0.3593	0.055
Mof_C 	C 	0.54507	0.36262	0.29901	0.012
Mof_H 	H 	0.5779	0.3724	0.3191	0.039
Mof_O 	O 	0.44298	0.93273	0.324	-0.403
Mof_C 	C 	0.42607	0.89938	0.3438	0.353
Mof_O 	O 	0.44563	0.86573	0.32398	-0.402
Mof_C 	C 	0.37903	0.89695	0.39399	-0.084
Mof_Cu	Cu	0.28998	0.73273	0.46367	0.908
Mof_O 	O 	0.25064	0.81657	0.51496	-0.412
Mof_C 	C 	0.35199	0.9315	0.41501	-0.015
Mof_H 	H 	0.3652	0.9569	0.4003	0.053
Mof_O 	O 	0.31759	0.78692	0.45465	-0.413
Mof_C 	C 	0.30539	0.92895	0.45779	-0.003
Mof_O 	O 	0.1763	0.77223	0.4415	-0.411
Mof_C 	C 	0.28669	0.89168	0.47918	-0.014
Mof_H 	H 	0.2546	0.8897	0.5073	0.053
Mof_O 	O 	0.24414	0.74346	0.38052	-0.413
Mof_C 	C 	0.31447	0.85751	0.45981	-0.084
Mof_C 	C 	0.36037	0.86061	0.4159	0.029
Mof_H 	H 	0.3788	0.8371	0.4011	0.054
Mof_C 	C 	0.29311	0.81655	0.47883	0.373
Mof_C 	C 	0.27685	0.96606	0.47939	0.014
Mof_C 	C 	0.2199	0.96763	0.47937	-0.001
Mof_H 	H 	0.2003	0.9447	0.4641	0.041
Mof_C 	C 	0.19994	0.76134	0.38454	0.367
Mof_C 	C 	0.17258	0.77159	0.3146	-0.093
Mof_C 	C 	0.1248	0.79358	0.31471	-0.005
Mof_H 	H 	0.1084	0.8008	0.3593	0.048
Mof_C 	C 	0.04507	0.86262	0.29901	-0
Mof_H 	H 	0.0779	0.8724	0.3191	0.04
Mof_Cu	Cu	5.65494e-33	0.43918	0.25	0.887
Mof_Cu	Cu	-9.45526e-34	0.36021	0.25	0.897
Mof_Cu	Cu	0.5	0.93918	0.25	0.902
Mof_Cu	Cu	0.5	0.86021	0.25	0.912
Mof_Cu	Cu	8.71424e-33	0.56082	0.75	0.887
Mof_Cu	Cu	-1.10872e-32	0.63979	0.75	0.897
Mof_Cu	Cu	0.5	0.06082	0.75	0.902
Mof_Cu	Cu	0.5	0.13979	0.75	0.912
Mof_N 	N 	0.3079	0.5	0.5	-0.099
Mof_C 	C 	0.19527	0.5	0.5	-0.078
Mof_H 	H 	0.1567	0.5	0.5	0.061
Mof_N 	N 	0.8079	0	0.5	-0.094
Mof_C 	C 	0.69527	0	0.5	-0.073
Mof_H 	H 	0.6567	0	0.5	0.063
Mof_N 	N 	0.6921	0.5	-0	-0.097
Mof_C 	C 	0.80473	0.5	-0	-0.071
Mof_H 	H 	0.8433	0.5	-0	0.065
Mof_N 	N 	0.1921	0	-0	-0.098
Mof_C 	C 	0.30473	0	-0	-0.067
Mof_H 	H 	0.3433	0	-0	0.062
Mof_N 	N 	0.6921	0.5	0.5	-0.099
Mof_C 	C 	0.80473	0.5	0.5	-0.077
Mof_H 	H 	0.8433	0.5	0.5	0.066
Mof_N 	N 	0.1921	0	0.5	-0.1
Mof_C 	C 	0.30473	0	0.5	-0.073
Mof_H 	H 	0.3433	0	0.5	0.063
Mof_N 	N 	0.3079	0.5	-0	-0.097
Mof_C 	C 	0.19527	0.5	-0	-0.072
Mof_H 	H 	0.1567	0.5	-0	0.06
Mof_N 	N 	0.8079	0	-0	-0.092
Mof_C 	C 	0.69527	0	-0	-0.066
Mof_H 	H 	0.6567	0	-0	0.062
Mof_C 	C 	0.30433	0.26046	0.25	0.032
Mof_H 	H 	0.2721	0.2449	0.25	0.052
Mof_C 	C 	0.39936	0.30516	0.25	-0.006
Mof_C 	C 	0.45211	0.32713	0.25	0.012
Mof_C 	C 	0.80433	0.76046	0.25	0.036
Mof_H 	H 	0.7721	0.7449	0.25	0.052
Mof_C 	C 	0.89936	0.80516	0.25	-0.017
Mof_C 	C 	0.95211	0.82713	0.25	0.057
Mof_C 	C 	0.69567	0.73954	0.75	0.031
Mof_H 	H 	0.7279	0.7551	0.75	0.053
Mof_C 	C 	0.60064	0.69484	0.75	-0.005
Mof_C 	C 	0.54789	0.67287	0.75	0.012
Mof_C 	C 	0.19567	0.23954	0.75	0.038
Mof_H 	H 	0.2279	0.2551	0.75	0.05
Mof_C 	C 	0.10064	0.19484	0.75	-0.025
Mof_C 	C 	0.04789	0.17287	0.75	0.043
Mof_C 	C 	0.69567	0.26046	0.25	0.031
Mof_H 	H 	0.7279	0.2449	0.25	0.054
Mof_C 	C 	0.60064	0.30516	0.25	-0.005
Mof_C 	C 	0.54789	0.32713	0.25	0.012
Mof_C 	C 	0.19567	0.76046	0.25	0.037
Mof_H 	H 	0.2279	0.7449	0.25	0.05
Mof_C 	C 	0.10064	0.80516	0.25	-0.024
Mof_C 	C 	0.04789	0.82713	0.25	0.043
Mof_C 	C 	0.30433	0.73954	0.75	0.033
Mof_H 	H 	0.2721	0.7551	0.75	0.051
Mof_C 	C 	0.39936	0.69484	0.75	-0.006
Mof_C 	C 	0.45211	0.67287	0.75	0.012
Mof_C 	C 	0.80433	0.23954	0.75	0.036
Mof_H 	H 	0.7721	0.2551	0.75	0.052
Mof_C 	C 	0.89936	0.19484	0.75	-0.018
Mof_C 	C 	0.95211	0.17287	0.75	0.057
Mof_C 	C 	0.5	0.31042	0.25	-0.072
Mof_H 	H 	0.5	0.2821	0.25	0.065
Mof_C 	C 	1.22554e-32	0.81042	0.25	-0.146
Mof_H 	H 	-9.45526e-34	0.7821	0.25	0.078
Mof_C 	C 	0.5	0.68958	0.75	-0.072
Mof_H 	H 	0.5	0.7179	0.75	0.065
Mof_C 	C 	2.11377e-33	0.18958	0.75	-0.146
Mof_H 	H 	-4.48669e-33	0.2179	0.75	0.077
Mof_N 	N 	0.5	0.38085	0.3156	-0.1
Mof_N 	N 	1.73906e-32	0.88085	0.3156	-0.119
Mof_N 	N 	0.5	0.61915	0.8156	-0.1
Mof_N 	N 	2.29866e-33	0.11915	0.8156	-0.119
Mof_N 	N 	0.5	0.38085	0.1844	-0.1
Mof_N 	N 	1.8671e-32	0.88085	0.1844	-0.119
Mof_N 	N 	0.5	0.61915	0.6844	-0.1
Mof_N 	N 	1.92889e-33	0.11915	0.6844	-0.119
_end
