data_functionalizedCrystal
_audit_creation_method	'EQeq! by Chris Wilmer'
_symmetry_space_group_name_H-M	'P1'
_symmetry_Int_Tables_number	1
_symmetry_cell_setting	triclinic
loop_
_symmetry_equiv_pos_as_xyz
  x,y,z
_cell_length_a	11.559
_cell_length_b	20.748
_cell_length_c	23.684
_cell_angle_alpha	90
_cell_angle_beta	90
_cell_angle_gamma	90
loop_
_atom_site_label
_atom_site_type_symbol
_atom_site_fract_x
_atom_site_fract_y
_atom_site_fract_z
_atom_site_charge
Mof_Eu	Eu	0.91328	0.97691	0.77665	2.381
Mof_Eu	Eu	0.73952	0.88452	0.66927	2.365
Mof_Eu	Eu	0.57798	0.99073	0.77368	2.385
Mof_Eu	Eu	0.76212	0.0719	0.65905	2.411
Mof_Eu	Eu	0.58672	0.02309	0.27665	2.38
Mof_Eu	Eu	0.76048	0.11548	0.16927	2.364
Mof_Eu	Eu	0.92202	0.00927	0.27368	2.386
Mof_Eu	Eu	0.73788	0.9281	0.15904	2.412
Mof_Eu	Eu	0.08672	0.47691	0.72335	2.378
Mof_Eu	Eu	0.26048	0.38452	0.83073	2.364
Mof_Eu	Eu	0.42202	0.49073	0.72632	2.385
Mof_Eu	Eu	0.23788	0.5719	0.84095	2.408
Mof_Eu	Eu	0.41328	0.52309	0.22335	2.379
Mof_Eu	Eu	0.23952	0.61548	0.33073	2.364
Mof_Eu	Eu	0.07798	0.50927	0.22632	2.384
Mof_Eu	Eu	0.26212	0.4281	0.34096	2.408
Mof_H 	H 	0.1426	0.7797	0.7612	0.192
Mof_H 	H 	0.1041	0.7939	0.8183	0.181
Mof_H 	H 	0.1391	0.7288	0.8033	0.187
Mof_H 	H 	0.5691	0.9846	0.9663	0.161
Mof_H 	H 	0.6044	0.9175	0.9631	0.169
Mof_H 	H 	0.6208	0.9534	0.0151	0.184
Mof_H 	H 	0.6501	0.6986	0.7523	0.188
Mof_H 	H 	0.6108	0.6657	0.7016	0.176
Mof_H 	H 	0.6333	0.7346	0.7002	0.177
Mof_H 	H 	0.2098	0.1709	0.5362	0.202
Mof_H 	H 	0.3161	0.1912	0.5671	0.199
Mof_H 	H 	0.9415	0.7348	0.8081	0.041
Mof_H 	H 	0.022	0.7105	0.6976	0.201
Mof_H 	H 	0.8996	0.6901	0.7193	0.207
Mof_H 	H 	0.7975	0.9439	0.9689	0.057
Mof_H 	H 	0.8485	0.0526	0.9698	0.189
Mof_H 	H 	0.7176	0.0719	0.973	0.178
Mof_H 	H 	0.5253	0.7584	0.8121	0.19
Mof_H 	H 	0.3993	0.7736	0.7919	0.196
Mof_H 	H 	0.4441	0.7281	0.7032	0.027
Mof_H 	H 	0.1516	0.0559	0.5469	0.18
Mof_H 	H 	0.1454	0.032	0.6095	0.2
Mof_H 	H 	0.3154	0.0828	0.5929	0.015
Mof_H 	H 	0.3574	0.2203	0.2612	0.193
Mof_H 	H 	0.3959	0.2061	0.3183	0.181
Mof_H 	H 	0.3609	0.2712	0.3033	0.187
Mof_H 	H 	0.9309	0.0154	0.4663	0.162
Mof_H 	H 	0.8956	0.0825	0.4631	0.169
Mof_H 	H 	0.8792	0.0466	0.5151	0.182
Mof_H 	H 	0.8499	0.3014	0.2523	0.189
Mof_H 	H 	0.8892	0.3343	0.2016	0.176
Mof_H 	H 	0.8667	0.2654	0.2002	0.177
Mof_H 	H 	0.2902	0.8291	0.0362	0.202
Mof_H 	H 	0.1839	0.8088	0.0671	0.199
Mof_H 	H 	0.5585	0.2652	0.3081	0.041
Mof_H 	H 	0.478	0.2895	0.1976	0.203
Mof_H 	H 	0.6004	0.3099	0.2193	0.208
Mof_H 	H 	0.7025	0.0561	0.4689	0.057
Mof_H 	H 	0.6515	0.9474	0.4698	0.191
Mof_H 	H 	0.7824	0.9281	0.473	0.18
Mof_H 	H 	0.9747	0.2416	0.3121	0.19
Mof_H 	H 	0.1007	0.2264	0.2919	0.197
Mof_H 	H 	0.0559	0.2719	0.2032	0.027
Mof_H 	H 	0.3484	0.9441	0.0469	0.18
Mof_H 	H 	0.3546	0.968	0.1095	0.201
Mof_H 	H 	0.1846	0.9172	0.0929	0.015
Mof_H 	H 	0.8574	0.2797	0.7388	0.193
Mof_H 	H 	0.8959	0.2939	0.6817	0.181
Mof_H 	H 	0.8609	0.2288	0.6967	0.187
Mof_H 	H 	0.4309	0.4846	0.5337	0.162
Mof_H 	H 	0.3956	0.4175	0.5369	0.169
Mof_H 	H 	0.3792	0.4534	0.4849	0.182
Mof_H 	H 	0.3499	0.1986	0.7477	0.189
Mof_H 	H 	0.3892	0.1657	0.7984	0.176
Mof_H 	H 	0.3667	0.2346	0.7998	0.177
Mof_H 	H 	0.7902	0.6709	0.9638	0.202
Mof_H 	H 	0.6839	0.6912	0.9329	0.198
Mof_H 	H 	0.0585	0.2348	0.6919	0.041
Mof_H 	H 	0.978	0.2105	0.8024	0.203
Mof_H 	H 	0.1004	0.1901	0.7807	0.208
Mof_H 	H 	0.2025	0.4439	0.5311	0.057
Mof_H 	H 	0.1515	0.5526	0.5302	0.19
Mof_H 	H 	0.2824	0.5719	0.527	0.18
Mof_H 	H 	0.4747	0.2584	0.6879	0.19
Mof_H 	H 	0.6007	0.2736	0.7081	0.196
Mof_H 	H 	0.5559	0.2281	0.7968	0.027
Mof_H 	H 	0.8484	0.5559	0.9531	0.18
Mof_H 	H 	0.8546	0.532	0.8905	0.2
Mof_H 	H 	0.6846	0.5828	0.9071	0.014
Mof_H 	H 	0.6426	0.7203	0.2388	0.193
Mof_H 	H 	0.6041	0.7061	0.1817	0.181
Mof_H 	H 	0.6391	0.7712	0.1967	0.187
Mof_H 	H 	0.0691	0.5154	0.0337	0.161
Mof_H 	H 	0.1044	0.5825	0.0369	0.169
Mof_H 	H 	0.1208	0.5466	0.9849	0.181
Mof_H 	H 	0.1501	0.8014	0.2477	0.188
Mof_H 	H 	0.1108	0.8343	0.2984	0.176
Mof_H 	H 	0.1333	0.7654	0.2998	0.177
Mof_H 	H 	0.7098	0.3291	0.4638	0.202
Mof_H 	H 	0.8161	0.3088	0.4329	0.199
Mof_H 	H 	0.4415	0.7652	0.1919	0.041
Mof_H 	H 	0.522	0.7895	0.3024	0.203
Mof_H 	H 	0.3996	0.8099	0.2807	0.208
Mof_H 	H 	0.2975	0.5561	0.0311	0.057
Mof_H 	H 	0.3485	0.4474	0.0302	0.19
Mof_H 	H 	0.2176	0.4281	0.027	0.18
Mof_H 	H 	0.0253	0.7416	0.1879	0.188
Mof_H 	H 	0.8993	0.7264	0.2081	0.196
Mof_H 	H 	0.9441	0.7719	0.2968	0.028
Mof_H 	H 	0.6516	0.4441	0.4531	0.18
Mof_H 	H 	0.6454	0.468	0.3905	0.2
Mof_H 	H 	0.8154	0.4172	0.4071	0.015
Mof_C 	C 	0.9267	0.8118	0.7526	0.397
Mof_C 	C 	0.9836	0.7493	0.7745	0.077
Mof_C 	C 	0.9795	0.6963	0.7306	-0.487
Mof_C 	C 	0.0275	0.6326	0.749	0.589
Mof_C 	C 	0.7419	0.9828	0.8931	0.439
Mof_C 	C 	0.741	0.9767	0.9576	0.04
Mof_C 	C 	0.7735	0.0394	0.9841	-0.473
Mof_C 	C 	0.7787	0.0367	0.0471	0.602
Mof_C 	C 	0.5184	0.8338	0.758	0.57
Mof_C 	C 	0.4789	0.7696	0.7794	-0.474
Mof_C 	C 	0.486	0.7149	0.7373	0.066
Mof_C 	C 	0.4301	0.6522	0.7592	0.424
Mof_C 	C 	0.0302	0.103	0.5927	0.474
Mof_C 	C 	0.1446	0.0701	0.5858	-0.467
Mof_C 	C 	0.2477	0.1102	0.5999	0.144
Mof_C 	C 	0.2553	0.1309	0.6631	0.246
Mof_C 	C 	0.0915	0.8202	0.577	-0.047
Mof_C 	C 	0.2134	0.8376	0.6645	0.326
Mof_C 	C 	0.9761	0.8127	0.5996	0.39
Mof_C 	C 	0.1644	0.869	0.6106	-0.031
Mof_C 	C 	0.5733	0.1882	0.2526	0.397
Mof_C 	C 	0.5164	0.2507	0.2745	0.078
Mof_C 	C 	0.5205	0.3037	0.2306	-0.49
Mof_C 	C 	0.4725	0.3674	0.249	0.59
Mof_C 	C 	0.7581	0.0172	0.3931	0.438
Mof_C 	C 	0.759	0.0233	0.4576	0.044
Mof_C 	C 	0.7265	0.9606	0.4841	-0.481
Mof_C 	C 	0.7213	0.9633	0.5471	0.608
Mof_C 	C 	0.9816	0.1662	0.258	0.571
Mof_C 	C 	0.0211	0.2304	0.2794	-0.475
Mof_C 	C 	0.014	0.2851	0.2373	0.066
Mof_C 	C 	0.0699	0.3478	0.2592	0.424
Mof_C 	C 	0.4698	0.897	0.0927	0.474
Mof_C 	C 	0.3554	0.9299	0.0858	-0.467
Mof_C 	C 	0.2523	0.8898	0.0999	0.144
Mof_C 	C 	0.2447	0.8691	0.1631	0.246
Mof_C 	C 	0.4085	0.1798	0.077	-0.046
Mof_C 	C 	0.2866	0.1624	0.1645	0.327
Mof_C 	C 	0.5239	0.1873	0.0996	0.39
Mof_C 	C 	0.3356	0.131	0.1106	-0.031
Mof_C 	C 	0.0733	0.3118	0.7474	0.397
Mof_C 	C 	0.0164	0.2493	0.7255	0.078
Mof_C 	C 	0.0205	0.1963	0.7694	-0.49
Mof_C 	C 	0.9725	0.1326	0.751	0.59
Mof_C 	C 	0.2581	0.4828	0.6069	0.438
Mof_C 	C 	0.259	0.4767	0.5424	0.044
Mof_C 	C 	0.2265	0.5394	0.5159	-0.481
Mof_C 	C 	0.2213	0.5367	0.4529	0.608
Mof_C 	C 	0.4816	0.3338	0.742	0.57
Mof_C 	C 	0.5211	0.2696	0.7206	-0.474
Mof_C 	C 	0.514	0.2149	0.7627	0.066
Mof_C 	C 	0.5699	0.1522	0.7408	0.424
Mof_C 	C 	0.9698	0.603	0.9073	0.475
Mof_C 	C 	0.8554	0.5701	0.9142	-0.467
Mof_C 	C 	0.7523	0.6102	0.9001	0.144
Mof_C 	C 	0.7447	0.6309	0.8369	0.246
Mof_C 	C 	0.9085	0.3202	0.923	-0.046
Mof_C 	C 	0.7866	0.3376	0.8355	0.326
Mof_C 	C 	0.0239	0.3127	0.9004	0.389
Mof_C 	C 	0.8356	0.369	0.8894	-0.031
Mof_C 	C 	0.4267	0.6882	0.2474	0.397
Mof_C 	C 	0.4836	0.7507	0.2255	0.078
Mof_C 	C 	0.4795	0.8037	0.2694	-0.49
Mof_C 	C 	0.5275	0.8674	0.251	0.591
Mof_C 	C 	0.2419	0.5172	0.1069	0.438
Mof_C 	C 	0.241	0.5233	0.0424	0.044
Mof_C 	C 	0.2735	0.4606	0.0159	-0.482
Mof_C 	C 	0.2787	0.4633	0.9529	0.608
Mof_C 	C 	0.0184	0.6662	0.242	0.569
Mof_C 	C 	0.9789	0.7304	0.2206	-0.471
Mof_C 	C 	0.986	0.7851	0.2627	0.065
Mof_C 	C 	0.9301	0.8478	0.2408	0.424
Mof_C 	C 	0.5302	0.397	0.4073	0.474
Mof_C 	C 	0.6446	0.4299	0.4142	-0.467
Mof_C 	C 	0.7477	0.3898	0.4001	0.143
Mof_C 	C 	0.7553	0.3691	0.3369	0.246
Mof_C 	C 	0.5915	0.6798	0.423	-0.046
Mof_C 	C 	0.7134	0.6624	0.3355	0.326
Mof_C 	C 	0.4761	0.6873	0.4004	0.39
Mof_C 	C 	0.6644	0.631	0.3894	-0.031
Mof_N 	N 	0.1045	0.7645	0.791	-0.396
Mof_N 	N 	0.6214	0.9559	0.9776	-0.378
Mof_N 	N 	0.607	0.7022	0.7213	-0.39
Mof_N 	N 	0.2595	0.1648	0.5627	-0.317
Mof_N 	N 	0.1474	0.7586	0.5623	-0.067
Mof_N 	N 	0.3955	0.2355	0.291	-0.396
Mof_N 	N 	0.8786	0.0441	0.4776	-0.377
Mof_N 	N 	0.893	0.2978	0.2213	-0.39
Mof_N 	N 	0.2405	0.8352	0.0627	-0.317
Mof_N 	N 	0.3526	0.2414	0.0623	-0.067
Mof_N 	N 	0.8955	0.2645	0.709	-0.396
Mof_N 	N 	0.3786	0.4559	0.5224	-0.377
Mof_N 	N 	0.393	0.2022	0.7787	-0.39
Mof_N 	N 	0.7405	0.6648	0.9373	-0.316
Mof_N 	N 	0.8526	0.2586	0.9377	-0.067
Mof_N 	N 	0.6045	0.7355	0.209	-0.396
Mof_N 	N 	0.1214	0.5441	0.0224	-0.376
Mof_N 	N 	0.107	0.7978	0.2787	-0.39
Mof_N 	N 	0.7595	0.3352	0.4373	-0.317
Mof_N 	N 	0.6474	0.7414	0.4377	-0.067
Mof_O 	O 	0.8665	0.9741	0.6791	-0.813
Mof_O 	O 	0.7385	0.91879	0.76661	-0.816
Mof_O 	O 	0.7549	0.04676	0.75991	-0.813
Mof_O 	O 	0.6293	0.9827	0.6784	-0.811
Mof_O 	O 	0.9733	0.8648	0.7641	-0.512
Mof_O 	O 	0.8351	0.8032	0.725	-0.506
Mof_O 	O 	0.0865	0.6299	0.7934	-0.571
Mof_O 	O 	0.0065	0.5845	0.717	-0.542
Mof_O 	O 	0.8382	0.9839	0.8707	-0.539
Mof_O 	O 	0.6448	0.9874	0.8691	-0.54
Mof_O 	O 	0.7626	0.9835	0.07106	-0.566
Mof_O 	O 	0.7973	0.0884	0.0728	-0.573
Mof_O 	O 	0.5658	0.8378	0.7106	-0.569
Mof_O 	O 	0.5016	0.8827	0.7899	-0.528
Mof_O 	O 	0.4766	0.6014	0.7436	-0.538
Mof_O 	O 	0.3437	0.6582	0.7897	-0.498
Mof_O 	O 	0.9436	0.0662	0.5995	-0.469
Mof_O 	O 	0.0284	0.1635	0.5922	-0.267
Mof_O 	O 	0.2346	0.0868	0.6977	-0.202
Mof_O 	O 	0.2812	0.1871	0.6734	-0.245
Mof_O 	O 	0.916	0.8555	0.6194	-0.481
Mof_O 	O 	0.198	0.7842	0.6827	-0.277
Mof_O 	O 	0.2497	0.8812	0.6942	-0.222
Mof_O 	O 	0.0671	0.961	0.8464	-0.314
Mof_O 	O 	0.0982	0.9787	0.7222	-0.29
Mof_O 	O 	0.6993	0.7767	0.6244	-0.304
Mof_O 	O 	0.4173	0.0048	0.8412	-0.313
Mof_O 	O 	0.3931	0.9866	0.7193	-0.288
Mof_O 	O 	0.5746	0.1025	0.6114	-0.3
Mof_O 	O 	0.7973	0.1774	0.6071	-0.275
Mof_O 	O 	0.9298	0.7554	0.5984	-0.238
Mof_O 	O 	0.6335	0.0259	0.1791	-0.813
Mof_O 	O 	0.7615	0.08121	0.26661	-0.816
Mof_O 	O 	0.7451	0.95324	0.25991	-0.813
Mof_O 	O 	0.8707	0.0173	0.1784	-0.812
Mof_O 	O 	0.5267	0.1352	0.2641	-0.512
Mof_O 	O 	0.6649	0.1968	0.225	-0.505
Mof_O 	O 	0.4135	0.3701	0.2934	-0.571
Mof_O 	O 	0.4935	0.4155	0.217	-0.542
Mof_O 	O 	0.6618	0.0161	0.3707	-0.538
Mof_O 	O 	0.8552	0.0126	0.3691	-0.539
Mof_O 	O 	0.7374	0.0165	0.57106	-0.569
Mof_O 	O 	0.7027	0.9116	0.5728	-0.574
Mof_O 	O 	0.9342	0.1622	0.2106	-0.569
Mof_O 	O 	0.9984	0.1173	0.2899	-0.528
Mof_O 	O 	0.0234	0.3986	0.2436	-0.538
Mof_O 	O 	0.1563	0.3418	0.2897	-0.498
Mof_O 	O 	0.5564	0.9338	0.0995	-0.469
Mof_O 	O 	0.4716	0.8365	0.0922	-0.267
Mof_O 	O 	0.2654	0.9132	0.1977	-0.202
Mof_O 	O 	0.2188	0.8129	0.1734	-0.245
Mof_O 	O 	0.584	0.1445	0.1194	-0.481
Mof_O 	O 	0.302	0.2158	0.1827	-0.277
Mof_O 	O 	0.2503	0.1188	0.1942	-0.222
Mof_O 	O 	0.4329	0.039	0.3464	-0.313
Mof_O 	O 	0.4018	0.0213	0.2222	-0.29
Mof_O 	O 	0.8007	0.2233	0.1244	-0.305
Mof_O 	O 	0.0827	0.9952	0.3412	-0.314
Mof_O 	O 	0.1069	0.0134	0.2193	-0.288
Mof_O 	O 	0.9254	0.8975	0.1114	-0.3
Mof_O 	O 	0.7027	0.8226	0.1071	-0.274
Mof_O 	O 	0.5702	0.2446	0.0984	-0.239
Mof_O 	O 	0.1335	0.4741	0.8209	-0.813
Mof_O 	O 	0.2615	0.41879	0.73339	-0.816
Mof_O 	O 	0.2451	0.54676	0.74009	-0.814
Mof_O 	O 	0.3707	0.4827	0.8216	-0.811
Mof_O 	O 	0.0267	0.3648	0.7359	-0.512
Mof_O 	O 	0.1649	0.3032	0.775	-0.506
Mof_O 	O 	0.9135	0.1299	0.7066	-0.571
Mof_O 	O 	0.9935	0.0845	0.783	-0.541
Mof_O 	O 	0.1618	0.4839	0.6293	-0.538
Mof_O 	O 	0.3552	0.4874	0.6309	-0.539
Mof_O 	O 	0.2374	0.4835	0.42894	-0.569
Mof_O 	O 	0.2027	0.5884	0.4272	-0.574
Mof_O 	O 	0.4342	0.3378	0.7894	-0.569
Mof_O 	O 	0.4984	0.3827	0.7101	-0.528
Mof_O 	O 	0.5234	0.1014	0.7564	-0.538
Mof_O 	O 	0.6563	0.1582	0.7103	-0.498
Mof_O 	O 	0.0564	0.5662	0.9005	-0.469
Mof_O 	O 	0.9716	0.6635	0.9078	-0.267
Mof_O 	O 	0.7654	0.5868	0.8023	-0.203
Mof_O 	O 	0.7188	0.6871	0.8266	-0.245
Mof_O 	O 	0.084	0.3555	0.8806	-0.481
Mof_O 	O 	0.802	0.2842	0.8173	-0.277
Mof_O 	O 	0.7503	0.3812	0.8058	-0.222
Mof_O 	O 	0.9329	0.461	0.6536	-0.313
Mof_O 	O 	0.9018	0.4787	0.7778	-0.289
Mof_O 	O 	0.3007	0.2767	0.8756	-0.304
Mof_O 	O 	0.5827	0.5048	0.6588	-0.315
Mof_O 	O 	0.6069	0.4866	0.7807	-0.288
Mof_O 	O 	0.4254	0.6025	0.8886	-0.301
Mof_O 	O 	0.2027	0.6774	0.8929	-0.275
Mof_O 	O 	0.0702	0.2554	0.9016	-0.238
Mof_O 	O 	0.3665	0.5259	0.3209	-0.813
Mof_O 	O 	0.2385	0.58121	0.23339	-0.816
Mof_O 	O 	0.2549	0.45324	0.24009	-0.814
Mof_O 	O 	0.1293	0.5173	0.3216	-0.811
Mof_O 	O 	0.4733	0.6352	0.2359	-0.512
Mof_O 	O 	0.3351	0.6968	0.275	-0.506
Mof_O 	O 	0.5865	0.8701	0.2066	-0.571
Mof_O 	O 	0.5065	0.9155	0.283	-0.541
Mof_O 	O 	0.3382	0.5161	0.1293	-0.538
Mof_O 	O 	0.1448	0.5126	0.1309	-0.539
Mof_O 	O 	0.2626	0.5165	0.92894	-0.569
Mof_O 	O 	0.2973	0.4116	0.9272	-0.574
Mof_O 	O 	0.0658	0.6622	0.2894	-0.569
Mof_O 	O 	0.0016	0.6173	0.2101	-0.528
Mof_O 	O 	0.9766	0.8986	0.2564	-0.538
Mof_O 	O 	0.8437	0.8418	0.2103	-0.498
Mof_O 	O 	0.4436	0.4338	0.4005	-0.469
Mof_O 	O 	0.5284	0.3365	0.4078	-0.267
Mof_O 	O 	0.7346	0.4132	0.3023	-0.203
Mof_O 	O 	0.7812	0.3129	0.3266	-0.245
Mof_O 	O 	0.416	0.6445	0.3806	-0.481
Mof_O 	O 	0.698	0.7158	0.3173	-0.277
Mof_O 	O 	0.7497	0.6188	0.3058	-0.222
Mof_O 	O 	0.5671	0.539	0.1536	-0.313
Mof_O 	O 	0.5982	0.5213	0.2778	-0.289
Mof_O 	O 	0.1993	0.7233	0.3756	-0.305
Mof_O 	O 	0.9173	0.4952	0.1588	-0.314
Mof_O 	O 	0.8931	0.5134	0.2807	-0.288
Mof_O 	O 	0.0746	0.3975	0.3886	-0.301
Mof_O 	O 	0.2973	0.3226	0.3929	-0.275
Mof_O 	O 	0.4298	0.7446	0.4016	-0.238
Mof_Cl	Cl	0.3167	0.69168	0.01776	-0.276
Mof_Cl	Cl	0.1833	0.30832	0.51776	-0.276
Mof_Cl	Cl	0.6833	0.19168	0.48224	-0.276
Mof_Cl	Cl	0.8167	0.80832	0.98224	-0.278
_end
