data_functionalizedCrystal
_audit_creation_method	'EQeq! by Chris Wilmer'
_symmetry_space_group_name_H-M	'P1'
_symmetry_Int_Tables_number	1
_symmetry_cell_setting	triclinic
loop_
_symmetry_equiv_pos_as_xyz
  x,y,z
_cell_length_a	18.9031
_cell_length_b	18.9031
_cell_length_c	33.8935
_cell_angle_alpha	73.8077
_cell_angle_beta	73.8077
_cell_angle_gamma	89.9998
loop_
_atom_site_label
_atom_site_type_symbol
_atom_site_fract_x
_atom_site_fract_y
_atom_site_fract_z
_atom_site_charge
Mof_Cd	Cd	0.42847	0.90849	0.3694	0.443
Mof_Cd	Cd	0.70213	0.72211	0.3694	0.443
Mof_Cd	Cd	0.40849	0.20213	0.8694	0.443
Mof_Cd	Cd	0.22211	0.92847	0.8694	0.443
Mof_Cd	Cd	0.20213	0.40849	0.3694	0.443
Mof_Cd	Cd	0.92847	0.22211	0.3694	0.443
Mof_Cd	Cd	0.72211	0.70213	0.8694	0.443
Mof_Cd	Cd	0.90849	0.42847	0.8694	0.443
Mof_H 	H 	0.5327	0.8206	0.2956	0.043
Mof_H 	H 	0.4965	0.8021	0.2364	0.05
Mof_H 	H 	0.3342	0.8839	0.3064	0.008
Mof_H 	H 	0.3989	0.7572	0.2136	0.059
Mof_H 	H 	0.3201	0.7511	0.172	0.11
Mof_H 	H 	0.2185	0.9207	0.2032	0.113
Mof_H 	H 	0.2936	0.9234	0.2472	0.043
Mof_H 	H 	0.3826	0.9548	0.8924	0.038
Mof_H 	H 	0.3965	0.9371	0.9636	0.04
Mof_H 	H 	0.1921	0.8789	0.9748	0.006
Mof_H 	H 	0.3455	0.9533	0.0346	0.04
Mof_H 	H 	0.3175	0.9187	0.1088	0.108
Mof_H 	H 	0.1533	0.7798	0.1172	0.118
Mof_H 	H 	0.1819	0.8109	0.044	0.043
Mof_H 	H 	0.2821	0.1064	0.3068	0.055
Mof_H 	H 	0.1833	0.9673	0.4218	0.053
Mof_H 	H 	0.0767	0.0269	0.4234	0.052
Mof_H 	H 	0.1763	0.1687	0.309	0.055
Mof_H 	H 	0.6717	0.8838	0.2956	0.043
Mof_H 	H 	0.7671	0.9615	0.2364	0.05
Mof_H 	H 	0.8594	0.8097	0.3064	0.008
Mof_H 	H 	0.8875	0.0292	0.2136	0.059
Mof_H 	H 	0.0079	0.0769	0.172	0.11
Mof_H 	H 	0.0783	0.8761	0.2032	0.114
Mof_H 	H 	0.9592	0.8294	0.2472	0.043
Mof_H 	H 	0.225	0.1528	0.8924	0.038
Mof_H 	H 	0.1399	0.0993	0.9636	0.04
Mof_H 	H 	0.3331	0.1463	0.9748	0.006
Mof_H 	H 	0.1199	0.0121	0.0346	0.041
Mof_H 	H 	0.0737	0.9725	0.1088	0.106
Mof_H 	H 	0.2295	0.103	0.1172	0.117
Mof_H 	H 	0.2741	0.1451	0.044	0.044
Mof_H 	H 	0.9111	0.5868	0.3068	0.055
Mof_H 	H 	0.8949	0.6109	0.4218	0.054
Mof_H 	H 	0.9999	0.5497	0.4234	0.052
Mof_H 	H 	0.0147	0.5223	0.309	0.055
Mof_H 	H 	0.3206	0.1717	0.7956	0.043
Mof_H 	H 	0.3021	0.2671	0.7364	0.05
Mof_H 	H 	0.3839	0.3594	0.8064	0.008
Mof_H 	H 	0.2572	0.3875	0.7136	0.059
Mof_H 	H 	0.2511	0.5079	0.672	0.11
Mof_H 	H 	0.4207	0.5783	0.7032	0.113
Mof_H 	H 	0.4234	0.4592	0.7472	0.043
Mof_H 	H 	0.4548	0.725	0.3924	0.038
Mof_H 	H 	0.4371	0.6399	0.4636	0.04
Mof_H 	H 	0.3789	0.8331	0.4748	0.006
Mof_H 	H 	0.4533	0.6199	0.5346	0.04
Mof_H 	H 	0.4187	0.5737	0.6088	0.108
Mof_H 	H 	0.2798	0.7295	0.6172	0.117
Mof_H 	H 	0.3109	0.7741	0.544	0.043
Mof_H 	H 	0.6064	0.4111	0.8068	0.055
Mof_H 	H 	0.4673	0.3949	0.9218	0.054
Mof_H 	H 	0.5269	0.4999	0.9234	0.052
Mof_H 	H 	0.6687	0.5147	0.809	0.055
Mof_H 	H 	0.3838	0.0327	0.7956	0.043
Mof_H 	H 	0.4615	0.9965	0.7364	0.05
Mof_H 	H 	0.3097	0.8342	0.8064	0.008
Mof_H 	H 	0.5292	0.8989	0.7136	0.059
Mof_H 	H 	0.5769	0.8201	0.672	0.11
Mof_H 	H 	0.3761	0.7185	0.7032	0.113
Mof_H 	H 	0.3294	0.7936	0.7472	0.043
Mof_H 	H 	0.6528	0.8826	0.3924	0.038
Mof_H 	H 	0.5993	0.8965	0.4636	0.04
Mof_H 	H 	0.6463	0.6921	0.4748	0.006
Mof_H 	H 	0.5121	0.8455	0.5346	0.04
Mof_H 	H 	0.4725	0.8175	0.6088	0.108
Mof_H 	H 	0.603	0.6533	0.6172	0.117
Mof_H 	H 	0.6451	0.6819	0.544	0.043
Mof_H 	H 	0.0868	0.7821	0.8068	0.054
Mof_H 	H 	0.1109	0.6833	0.9218	0.054
Mof_H 	H 	0.0497	0.5767	0.9234	0.052
Mof_H 	H 	0.0223	0.6763	0.809	0.055
Mof_H 	H 	0.1717	0.3206	0.2956	0.043
Mof_H 	H 	0.2671	0.3021	0.2364	0.05
Mof_H 	H 	0.3594	0.3839	0.3064	0.008
Mof_H 	H 	0.3875	0.2572	0.2136	0.059
Mof_H 	H 	0.5079	0.2511	0.172	0.11
Mof_H 	H 	0.5783	0.4207	0.2032	0.113
Mof_H 	H 	0.4592	0.4234	0.2472	0.043
Mof_H 	H 	0.725	0.4548	0.8924	0.038
Mof_H 	H 	0.6399	0.4371	0.9636	0.04
Mof_H 	H 	0.8331	0.3789	0.9748	0.006
Mof_H 	H 	0.6199	0.4533	0.0346	0.041
Mof_H 	H 	0.5737	0.4187	0.1088	0.108
Mof_H 	H 	0.7295	0.2798	0.1172	0.117
Mof_H 	H 	0.7741	0.3109	0.044	0.044
Mof_H 	H 	0.4111	0.6064	0.3068	0.055
Mof_H 	H 	0.3949	0.4673	0.4218	0.054
Mof_H 	H 	0.4999	0.5269	0.4234	0.052
Mof_H 	H 	0.5147	0.6687	0.309	0.055
Mof_H 	H 	0.0327	0.3838	0.2956	0.043
Mof_H 	H 	0.9965	0.4615	0.2364	0.05
Mof_H 	H 	0.8342	0.3097	0.3064	0.008
Mof_H 	H 	0.8989	0.5292	0.2136	0.059
Mof_H 	H 	0.8201	0.5769	0.172	0.11
Mof_H 	H 	0.7185	0.3761	0.2032	0.113
Mof_H 	H 	0.7936	0.3294	0.2472	0.043
Mof_H 	H 	0.8826	0.6528	0.8924	0.038
Mof_H 	H 	0.8965	0.5993	0.9636	0.04
Mof_H 	H 	0.6921	0.6463	0.9748	0.006
Mof_H 	H 	0.8455	0.5121	0.0346	0.041
Mof_H 	H 	0.8175	0.4725	0.1088	0.108
Mof_H 	H 	0.6533	0.603	0.1172	0.117
Mof_H 	H 	0.6819	0.6451	0.044	0.044
Mof_H 	H 	0.7821	0.0868	0.3068	0.055
Mof_H 	H 	0.6833	0.1109	0.4218	0.054
Mof_H 	H 	0.5767	0.0497	0.4234	0.052
Mof_H 	H 	0.6763	0.0223	0.309	0.055
Mof_H 	H 	0.8838	0.6717	0.7956	0.043
Mof_H 	H 	0.9615	0.7671	0.7364	0.05
Mof_H 	H 	0.8097	0.8594	0.8064	0.009
Mof_H 	H 	0.0292	0.8875	0.7136	0.058
Mof_H 	H 	0.0769	0.0079	0.672	0.111
Mof_H 	H 	0.8761	0.0783	0.7032	0.114
Mof_H 	H 	0.8294	0.9592	0.7472	0.043
Mof_H 	H 	0.1528	0.225	0.3924	0.038
Mof_H 	H 	0.0993	0.1399	0.4636	0.04
Mof_H 	H 	0.1463	0.3331	0.4748	0.006
Mof_H 	H 	0.0121	0.1199	0.5346	0.041
Mof_H 	H 	0.9725	0.0737	0.6088	0.107
Mof_H 	H 	0.103	0.2295	0.6172	0.117
Mof_H 	H 	0.1451	0.2741	0.544	0.044
Mof_H 	H 	0.5868	0.9111	0.8068	0.055
Mof_H 	H 	0.6109	0.8949	0.9218	0.054
Mof_H 	H 	0.5497	0.9999	0.9234	0.052
Mof_H 	H 	0.5223	0.0147	0.809	0.054
Mof_H 	H 	0.8206	0.5327	0.7956	0.043
Mof_H 	H 	0.8021	0.4965	0.7364	0.05
Mof_H 	H 	0.8839	0.3342	0.8064	0.008
Mof_H 	H 	0.7572	0.3989	0.7136	0.059
Mof_H 	H 	0.7511	0.3201	0.672	0.11
Mof_H 	H 	0.9207	0.2185	0.7032	0.113
Mof_H 	H 	0.9234	0.2936	0.7472	0.043
Mof_H 	H 	0.9548	0.3826	0.3924	0.038
Mof_H 	H 	0.9371	0.3965	0.4636	0.04
Mof_H 	H 	0.8789	0.1921	0.4748	0.006
Mof_H 	H 	0.9533	0.3455	0.5346	0.04
Mof_H 	H 	0.9187	0.3175	0.6088	0.108
Mof_H 	H 	0.7798	0.1533	0.6172	0.117
Mof_H 	H 	0.8109	0.1819	0.544	0.043
Mof_H 	H 	0.1064	0.2821	0.8068	0.055
Mof_H 	H 	0.9673	0.1833	0.9218	0.053
Mof_H 	H 	0.0269	0.0767	0.9234	0.052
Mof_H 	H 	0.1687	0.1763	0.809	0.055
Mof_C 	C 	0.48736	0.83056	0.29048	0.008
Mof_C 	C 	0.46778	0.82018	0.25804	0.002
Mof_C 	C 	0.37889	0.86479	0.29682	0.104
Mof_C 	C 	0.35101	0.83921	0.23478	0.051
Mof_C 	C 	0.36143	0.78883	0.21234	-0.009
Mof_C 	C 	0.3142	0.7855	0.1874	-0.174
Mof_C 	C 	0.26036	0.83186	0.18568	0.231
Mof_C 	C 	0.25318	0.88628	0.20644	-0.172
Mof_C 	C 	0.29877	0.88857	0.23206	-0.005
Mof_C 	C 	0.34502	0.93862	0.91816	0.013
Mof_C 	C 	0.35282	0.92932	0.95736	0.005
Mof_C 	C 	0.24107	0.89837	0.96306	0.111
Mof_C 	C 	0.26712	0.88532	0.03176	0.044
Mof_C 	C 	0.30692	0.91762	0.05116	0.003
Mof_C 	C 	0.28988	0.89718	0.09564	-0.184
Mof_C 	C 	0.23252	0.84542	0.11996	0.242
Mof_C 	C 	0.19274	0.81444	0.10052	-0.187
Mof_C 	C 	0.20943	0.83323	0.05674	0.003
Mof_C 	C 	0.31197	0.99077	0.36346	0.298
Mof_C 	C 	0.24399	0.03039	0.36422	-0.059
Mof_C 	C 	0.2409	0.0907	0.3306	-0.024
Mof_C 	C 	0.18231	0.00771	0.39878	-0.024
Mof_C 	C 	0.04779	0.14509	0.36842	0.304
Mof_C 	C 	0.11596	0.10516	0.36688	-0.061
Mof_C 	C 	0.11842	0.04402	0.39996	-0.027
Mof_C 	C 	0.17732	0.12819	0.33182	-0.024
Mof_C 	C 	0.72216	0.87896	0.29048	0.008
Mof_C 	C 	0.77418	0.92178	0.25804	0.002
Mof_C 	C 	0.82429	0.83839	0.29682	0.104
Mof_C 	C 	0.91421	0.92601	0.23478	0.051
Mof_C 	C 	0.92623	0.99883	0.21234	-0.008
Mof_C 	C 	0.9984	0.0271	0.1874	-0.175
Mof_C 	C 	0.05396	0.98246	0.18568	0.23
Mof_C 	C 	0.04038	0.90728	0.20644	-0.173
Mof_C 	C 	0.96917	0.87937	0.23206	-0.004
Mof_C 	C 	0.23682	0.14322	0.91816	0.013
Mof_C 	C 	0.18982	0.11332	0.95736	0.005
Mof_C 	C 	0.29587	0.13857	0.96306	0.112
Mof_C 	C 	0.20112	0.08292	0.03176	0.046
Mof_C 	C 	0.14192	0.03122	0.05116	-0
Mof_C 	C 	0.11448	0.00718	0.09564	-0.18
Mof_C 	C 	0.14752	0.03462	0.11996	0.24
Mof_C 	C 	0.20674	0.08504	0.10052	-0.184
Mof_C 	C 	0.23383	0.11003	0.05674	0.001
Mof_C 	C 	0.82457	0.64577	0.36346	0.298
Mof_C 	C 	0.89179	0.60539	0.36422	-0.059
Mof_C 	C 	0.9285	0.5787	0.3306	-0.025
Mof_C 	C 	0.91891	0.59351	0.39878	-0.025
Mof_C 	C 	0.08379	0.48649	0.36842	0.304
Mof_C 	C 	0.01716	0.52796	0.36688	-0.062
Mof_C 	C 	0.98162	0.55602	0.39996	-0.026
Mof_C 	C 	0.99086	0.53999	0.33182	-0.023
Mof_C 	C 	0.33056	0.22216	0.79048	0.008
Mof_C 	C 	0.32018	0.27418	0.75804	0.002
Mof_C 	C 	0.36479	0.32429	0.79682	0.104
Mof_C 	C 	0.33921	0.41421	0.73478	0.051
Mof_C 	C 	0.28883	0.42623	0.71234	-0.009
Mof_C 	C 	0.2855	0.4984	0.6874	-0.174
Mof_C 	C 	0.33186	0.55396	0.68568	0.231
Mof_C 	C 	0.38628	0.54038	0.70644	-0.172
Mof_C 	C 	0.38857	0.46917	0.73206	-0.005
Mof_C 	C 	0.43862	0.73682	0.41816	0.013
Mof_C 	C 	0.42932	0.68982	0.45736	0.005
Mof_C 	C 	0.39837	0.79587	0.46306	0.111
Mof_C 	C 	0.38532	0.70112	0.53176	0.045
Mof_C 	C 	0.41762	0.64192	0.55116	0.002
Mof_C 	C 	0.39718	0.61448	0.59564	-0.184
Mof_C 	C 	0.34542	0.64752	0.61996	0.242
Mof_C 	C 	0.31444	0.70674	0.60052	-0.186
Mof_C 	C 	0.33323	0.73383	0.55674	0.003
Mof_C 	C 	0.49077	0.32457	0.86346	0.298
Mof_C 	C 	0.53039	0.39179	0.86422	-0.059
Mof_C 	C 	0.5907	0.4285	0.8306	-0.024
Mof_C 	C 	0.50771	0.41891	0.89878	-0.024
Mof_C 	C 	0.64509	0.58379	0.86842	0.304
Mof_C 	C 	0.60516	0.51716	0.86688	-0.061
Mof_C 	C 	0.54402	0.48162	0.89996	-0.026
Mof_C 	C 	0.62819	0.49086	0.83182	-0.024
Mof_C 	C 	0.37896	0.98736	0.79048	0.008
Mof_C 	C 	0.42178	0.96778	0.75804	0.002
Mof_C 	C 	0.33839	0.87889	0.79682	0.104
Mof_C 	C 	0.42601	0.85101	0.73478	0.051
Mof_C 	C 	0.49883	0.86143	0.71234	-0.009
Mof_C 	C 	0.5271	0.8142	0.6874	-0.174
Mof_C 	C 	0.48246	0.76036	0.68568	0.231
Mof_C 	C 	0.40728	0.75318	0.70644	-0.172
Mof_C 	C 	0.37937	0.79877	0.73206	-0.005
Mof_C 	C 	0.64322	0.84502	0.41816	0.013
Mof_C 	C 	0.61332	0.85282	0.45736	0.005
Mof_C 	C 	0.63857	0.74107	0.46306	0.111
Mof_C 	C 	0.58292	0.76712	0.53176	0.045
Mof_C 	C 	0.53122	0.80692	0.55116	0.002
Mof_C 	C 	0.50718	0.78988	0.59564	-0.184
Mof_C 	C 	0.53462	0.73252	0.61996	0.242
Mof_C 	C 	0.58504	0.69274	0.60052	-0.186
Mof_C 	C 	0.61003	0.70943	0.55674	0.003
Mof_C 	C 	0.14577	0.81197	0.86346	0.298
Mof_C 	C 	0.10539	0.74399	0.86422	-0.059
Mof_C 	C 	0.0787	0.7409	0.8306	-0.024
Mof_C 	C 	0.09351	0.68231	0.89878	-0.024
Mof_C 	C 	0.98649	0.54779	0.86842	0.303
Mof_C 	C 	0.02796	0.61596	0.86688	-0.061
Mof_C 	C 	0.05602	0.61842	0.89996	-0.027
Mof_C 	C 	0.03999	0.67732	0.83182	-0.024
Mof_C 	C 	0.22216	0.33056	0.29048	0.008
Mof_C 	C 	0.27418	0.32018	0.25804	0.002
Mof_C 	C 	0.32429	0.36479	0.29682	0.104
Mof_C 	C 	0.41421	0.33921	0.23478	0.051
Mof_C 	C 	0.42623	0.28883	0.21234	-0.009
Mof_C 	C 	0.4984	0.2855	0.1874	-0.174
Mof_C 	C 	0.55396	0.33186	0.18568	0.231
Mof_C 	C 	0.54038	0.38628	0.20644	-0.172
Mof_C 	C 	0.46917	0.38857	0.23206	-0.005
Mof_C 	C 	0.73682	0.43862	0.91816	0.013
Mof_C 	C 	0.68982	0.42932	0.95736	0.005
Mof_C 	C 	0.79587	0.39837	0.96306	0.111
Mof_C 	C 	0.70112	0.38532	0.03176	0.045
Mof_C 	C 	0.64192	0.41762	0.05116	0.002
Mof_C 	C 	0.61448	0.39718	0.09564	-0.183
Mof_C 	C 	0.64752	0.34542	0.11996	0.241
Mof_C 	C 	0.70674	0.31444	0.10052	-0.186
Mof_C 	C 	0.73383	0.33323	0.05674	0.002
Mof_C 	C 	0.32457	0.49077	0.36346	0.298
Mof_C 	C 	0.39179	0.53039	0.36422	-0.059
Mof_C 	C 	0.4285	0.5907	0.3306	-0.024
Mof_C 	C 	0.41891	0.50771	0.39878	-0.024
Mof_C 	C 	0.58379	0.64509	0.36842	0.304
Mof_C 	C 	0.51716	0.60516	0.36688	-0.061
Mof_C 	C 	0.48162	0.54402	0.39996	-0.026
Mof_C 	C 	0.49086	0.62819	0.33182	-0.024
Mof_C 	C 	0.98736	0.37896	0.29048	0.008
Mof_C 	C 	0.96778	0.42178	0.25804	0.002
Mof_C 	C 	0.87889	0.33839	0.29682	0.104
Mof_C 	C 	0.85101	0.42601	0.23478	0.051
Mof_C 	C 	0.86143	0.49883	0.21234	-0.009
Mof_C 	C 	0.8142	0.5271	0.1874	-0.174
Mof_C 	C 	0.76036	0.48246	0.18568	0.231
Mof_C 	C 	0.75318	0.40728	0.20644	-0.172
Mof_C 	C 	0.79877	0.37937	0.23206	-0.005
Mof_C 	C 	0.84502	0.64322	0.91816	0.013
Mof_C 	C 	0.85282	0.61332	0.95736	0.005
Mof_C 	C 	0.74107	0.63857	0.96306	0.111
Mof_C 	C 	0.76712	0.58292	0.03176	0.045
Mof_C 	C 	0.80692	0.53122	0.05116	0.002
Mof_C 	C 	0.78988	0.50718	0.09564	-0.183
Mof_C 	C 	0.73252	0.53462	0.11996	0.241
Mof_C 	C 	0.69274	0.58504	0.10052	-0.186
Mof_C 	C 	0.70943	0.61003	0.05674	0.003
Mof_C 	C 	0.81197	0.14577	0.36346	0.298
Mof_C 	C 	0.74399	0.10539	0.36422	-0.059
Mof_C 	C 	0.7409	0.0787	0.3306	-0.025
Mof_C 	C 	0.68231	0.09351	0.39878	-0.024
Mof_C 	C 	0.54779	0.98649	0.36842	0.304
Mof_C 	C 	0.61596	0.02796	0.36688	-0.061
Mof_C 	C 	0.61842	0.05602	0.39996	-0.026
Mof_C 	C 	0.67732	0.03999	0.33182	-0.024
Mof_C 	C 	0.87896	0.72216	0.79048	0.008
Mof_C 	C 	0.92178	0.77418	0.75804	0.002
Mof_C 	C 	0.83839	0.82429	0.79682	0.104
Mof_C 	C 	0.92601	0.91421	0.73478	0.05
Mof_C 	C 	0.99883	0.92623	0.71234	-0.006
Mof_C 	C 	0.0271	0.9984	0.6874	-0.177
Mof_C 	C 	0.98246	0.05396	0.68568	0.232
Mof_C 	C 	0.90728	0.04038	0.70644	-0.174
Mof_C 	C 	0.87937	0.96917	0.73206	-0.003
Mof_C 	C 	0.14322	0.23682	0.41816	0.013
Mof_C 	C 	0.11332	0.18982	0.45736	0.005
Mof_C 	C 	0.13857	0.29587	0.46306	0.112
Mof_C 	C 	0.08292	0.20112	0.53176	0.046
Mof_C 	C 	0.03122	0.14192	0.55116	0.001
Mof_C 	C 	0.00718	0.11448	0.59564	-0.182
Mof_C 	C 	0.03462	0.14752	0.61996	0.241
Mof_C 	C 	0.08504	0.20674	0.60052	-0.185
Mof_C 	C 	0.11003	0.23383	0.55674	0.002
Mof_C 	C 	0.64577	0.82457	0.86346	0.298
Mof_C 	C 	0.60539	0.89179	0.86422	-0.058
Mof_C 	C 	0.5787	0.9285	0.8306	-0.026
Mof_C 	C 	0.59351	0.91891	0.89878	-0.026
Mof_C 	C 	0.48649	0.08379	0.86842	0.304
Mof_C 	C 	0.52796	0.01716	0.86688	-0.063
Mof_C 	C 	0.55602	0.98162	0.89996	-0.024
Mof_C 	C 	0.53999	0.99086	0.83182	-0.021
Mof_C 	C 	0.83056	0.48736	0.79048	0.008
Mof_C 	C 	0.82018	0.46778	0.75804	0.002
Mof_C 	C 	0.86479	0.37889	0.79682	0.104
Mof_C 	C 	0.83921	0.35101	0.73478	0.051
Mof_C 	C 	0.78883	0.36143	0.71234	-0.009
Mof_C 	C 	0.7855	0.3142	0.6874	-0.174
Mof_C 	C 	0.83186	0.26036	0.68568	0.231
Mof_C 	C 	0.88628	0.25318	0.70644	-0.172
Mof_C 	C 	0.88857	0.29877	0.73206	-0.005
Mof_C 	C 	0.93862	0.34502	0.41816	0.013
Mof_C 	C 	0.92932	0.35282	0.45736	0.005
Mof_C 	C 	0.89837	0.24107	0.46306	0.111
Mof_C 	C 	0.88532	0.26712	0.53176	0.045
Mof_C 	C 	0.91762	0.30692	0.55116	0.002
Mof_C 	C 	0.89718	0.28988	0.59564	-0.184
Mof_C 	C 	0.84542	0.23252	0.61996	0.242
Mof_C 	C 	0.81444	0.19274	0.60052	-0.186
Mof_C 	C 	0.83323	0.20943	0.55674	0.003
Mof_C 	C 	0.99077	0.31197	0.86346	0.297
Mof_C 	C 	0.03039	0.24399	0.86422	-0.059
Mof_C 	C 	0.0907	0.2409	0.8306	-0.024
Mof_C 	C 	0.00771	0.18231	0.89878	-0.023
Mof_C 	C 	0.14509	0.04779	0.86842	0.304
Mof_C 	C 	0.10516	0.11596	0.86688	-0.06
Mof_C 	C 	0.04402	0.11842	0.89996	-0.027
Mof_C 	C 	0.12819	0.17732	0.83182	-0.024
Mof_N 	N 	0.43115	0.85815	0.3155	-0.145
Mof_N 	N 	0.39756	0.84081	0.26202	-0.129
Mof_N 	N 	0.27345	0.92075	0.9223	-0.148
Mof_N 	N 	0.28496	0.90616	0.98668	-0.131
Mof_N 	N 	0.75335	0.82635	0.3155	-0.145
Mof_N 	N 	0.84042	0.89717	0.26202	-0.128
Mof_N 	N 	0.30425	0.15695	0.9223	-0.148
Mof_N 	N 	0.22836	0.10716	0.98668	-0.131
Mof_N 	N 	0.35815	0.25335	0.8155	-0.145
Mof_N 	N 	0.34081	0.34042	0.76202	-0.129
Mof_N 	N 	0.42075	0.80425	0.4223	-0.148
Mof_N 	N 	0.40616	0.72836	0.48668	-0.131
Mof_N 	N 	0.32635	0.93115	0.8155	-0.145
Mof_N 	N 	0.39717	0.89756	0.76202	-0.129
Mof_N 	N 	0.65695	0.77345	0.4223	-0.148
Mof_N 	N 	0.60716	0.78496	0.48668	-0.131
Mof_N 	N 	0.25335	0.35815	0.3155	-0.145
Mof_N 	N 	0.34042	0.34081	0.26202	-0.129
Mof_N 	N 	0.80425	0.42075	0.9223	-0.148
Mof_N 	N 	0.72836	0.40616	0.98668	-0.131
Mof_N 	N 	0.93115	0.32635	0.3155	-0.145
Mof_N 	N 	0.89756	0.39717	0.26202	-0.129
Mof_N 	N 	0.77345	0.65695	0.9223	-0.148
Mof_N 	N 	0.78496	0.60716	0.98668	-0.131
Mof_N 	N 	0.82635	0.75335	0.8155	-0.145
Mof_N 	N 	0.89717	0.84042	0.76202	-0.128
Mof_N 	N 	0.15695	0.30425	0.4223	-0.148
Mof_N 	N 	0.10716	0.22836	0.48668	-0.131
Mof_N 	N 	0.85815	0.43115	0.8155	-0.145
Mof_N 	N 	0.84081	0.39756	0.76202	-0.129
Mof_N 	N 	0.92075	0.27345	0.4223	-0.148
Mof_N 	N 	0.90616	0.28496	0.48668	-0.131
Mof_O 	O 	0.36648	0.01017	0.33132	-0.273
Mof_O 	O 	0.31215	0.93702	0.3953	-0.281
Mof_O 	O 	0.05076	0.20526	0.34044	-0.282
Mof_O 	O 	0.99069	0.11945	0.39766	-0.274
Mof_O 	O 	0.20938	0.82593	0.16414	-0.286
Mof_O 	O 	0.8022	0.65851	0.33132	-0.273
Mof_O 	O 	0.79255	0.66768	0.3953	-0.281
Mof_O 	O 	0.1088	0.4543	0.34044	-0.283
Mof_O 	O 	0.11165	0.48289	0.39766	-0.273
Mof_O 	O 	0.12648	0.00993	0.16414	-0.285
Mof_O 	O 	0.51017	0.3022	0.83132	-0.273
Mof_O 	O 	0.43702	0.29255	0.8953	-0.281
Mof_O 	O 	0.70526	0.6088	0.84044	-0.282
Mof_O 	O 	0.61945	0.61165	0.89766	-0.273
Mof_O 	O 	0.32593	0.62648	0.66414	-0.286
Mof_O 	O 	0.15851	0.86648	0.83132	-0.273
Mof_O 	O 	0.16768	0.81215	0.8953	-0.281
Mof_O 	O 	0.9543	0.55076	0.84044	-0.282
Mof_O 	O 	0.98289	0.49069	0.89766	-0.273
Mof_O 	O 	0.50993	0.70938	0.66414	-0.286
Mof_O 	O 	0.3022	0.51017	0.33132	-0.273
Mof_O 	O 	0.29255	0.43702	0.3953	-0.281
Mof_O 	O 	0.6088	0.70526	0.34044	-0.282
Mof_O 	O 	0.61165	0.61945	0.39766	-0.273
Mof_O 	O 	0.62648	0.32593	0.16414	-0.286
Mof_O 	O 	0.86648	0.15851	0.33132	-0.273
Mof_O 	O 	0.81215	0.16768	0.3953	-0.281
Mof_O 	O 	0.55076	0.9543	0.34044	-0.282
Mof_O 	O 	0.49069	0.98289	0.39766	-0.273
Mof_O 	O 	0.70938	0.50993	0.16414	-0.286
Mof_O 	O 	0.65851	0.8022	0.83132	-0.273
Mof_O 	O 	0.66768	0.79255	0.8953	-0.281
Mof_O 	O 	0.4543	0.1088	0.84044	-0.283
Mof_O 	O 	0.48289	0.11165	0.89766	-0.274
Mof_O 	O 	0.00993	0.12648	0.66414	-0.285
Mof_O 	O 	0.01017	0.36648	0.83132	-0.273
Mof_O 	O 	0.93702	0.31215	0.8953	-0.281
Mof_O 	O 	0.20526	0.05076	0.84044	-0.282
Mof_O 	O 	0.11945	0.99069	0.89766	-0.273
Mof_O 	O 	0.82593	0.20938	0.66414	-0.286
Mof_Cd	Cd	0.79787	0.59151	0.6306	0.443
Mof_Cd	Cd	0.07153	0.77789	0.6306	0.443
Mof_Cd	Cd	0.27789	0.29787	0.1306	0.443
Mof_Cd	Cd	0.09151	0.57153	0.1306	0.443
Mof_Cd	Cd	0.57153	0.09151	0.6306	0.443
Mof_Cd	Cd	0.29787	0.27789	0.6306	0.443
Mof_Cd	Cd	0.59151	0.79787	0.1306	0.443
Mof_Cd	Cd	0.77789	0.07153	0.1306	0.443
Mof_H 	H 	0.8283	0.6794	0.7044	0.043
Mof_H 	H 	0.7329	0.6979	0.7636	0.05
Mof_H 	H 	0.6406	0.6161	0.6936	0.008
Mof_H 	H 	0.6125	0.7428	0.7864	0.059
Mof_H 	H 	0.4921	0.7489	0.828	0.11
Mof_H 	H 	0.4217	0.5793	0.7968	0.113
Mof_H 	H 	0.5408	0.5766	0.7528	0.043
Mof_H 	H 	0.275	0.5452	0.1076	0.038
Mof_H 	H 	0.3601	0.5629	0.0364	0.04
Mof_H 	H 	0.1669	0.6211	0.0252	0.006
Mof_H 	H 	0.3801	0.5467	0.9654	0.041
Mof_H 	H 	0.4263	0.5813	0.8912	0.108
Mof_H 	H 	0.2705	0.7202	0.8828	0.117
Mof_H 	H 	0.2259	0.6891	0.956	0.044
Mof_H 	H 	0.5889	0.3936	0.6932	0.055
Mof_H 	H 	0.6051	0.5327	0.5782	0.054
Mof_H 	H 	0.5001	0.4731	0.5766	0.052
Mof_H 	H 	0.4853	0.3313	0.691	0.055
Mof_H 	H 	0.9673	0.6162	0.7044	0.043
Mof_H 	H 	0.0035	0.5385	0.7636	0.05
Mof_H 	H 	0.1658	0.6903	0.6936	0.008
Mof_H 	H 	0.1011	0.4708	0.7864	0.059
Mof_H 	H 	0.1799	0.4231	0.828	0.11
Mof_H 	H 	0.2815	0.6239	0.7968	0.113
Mof_H 	H 	0.2064	0.6706	0.7528	0.043
Mof_H 	H 	0.1174	0.3472	0.1076	0.038
Mof_H 	H 	0.1035	0.4007	0.0364	0.04
Mof_H 	H 	0.3079	0.3537	0.0252	0.006
Mof_H 	H 	0.1545	0.4879	0.9654	0.041
Mof_H 	H 	0.1825	0.5275	0.8912	0.108
Mof_H 	H 	0.3467	0.397	0.8828	0.117
Mof_H 	H 	0.3181	0.3549	0.956	0.044
Mof_H 	H 	0.2179	0.9132	0.6932	0.055
Mof_H 	H 	0.3167	0.8891	0.5782	0.054
Mof_H 	H 	0.4233	0.9503	0.5766	0.052
Mof_H 	H 	0.3237	0.9777	0.691	0.055
Mof_H 	H 	0.1162	0.3283	0.2044	0.043
Mof_H 	H 	0.0385	0.2329	0.2636	0.05
Mof_H 	H 	0.1903	0.1406	0.1936	0.009
Mof_H 	H 	0.9708	0.1125	0.2864	0.058
Mof_H 	H 	0.9231	0.9921	0.328	0.111
Mof_H 	H 	0.1239	0.9217	0.2968	0.114
Mof_H 	H 	0.1706	0.0408	0.2528	0.043
Mof_H 	H 	0.8472	0.775	0.6076	0.038
Mof_H 	H 	0.9007	0.8601	0.5364	0.04
Mof_H 	H 	0.8537	0.6669	0.5252	0.006
Mof_H 	H 	0.9879	0.8801	0.4654	0.041
Mof_H 	H 	0.0275	0.9263	0.3912	0.107
Mof_H 	H 	0.897	0.7705	0.3828	0.117
Mof_H 	H 	0.8549	0.7259	0.456	0.044
Mof_H 	H 	0.4132	0.0889	0.1932	0.055
Mof_H 	H 	0.3891	0.1051	0.0782	0.054
Mof_H 	H 	0.4503	0.0001	0.0766	0.052
Mof_H 	H 	0.4777	0.9853	0.191	0.054
Mof_H 	H 	0.1794	0.4673	0.2044	0.043
Mof_H 	H 	0.1979	0.5035	0.2636	0.05
Mof_H 	H 	0.1161	0.6658	0.1936	0.008
Mof_H 	H 	0.2428	0.6011	0.2864	0.059
Mof_H 	H 	0.2489	0.6799	0.328	0.11
Mof_H 	H 	0.0793	0.7815	0.2968	0.113
Mof_H 	H 	0.0766	0.7064	0.2528	0.043
Mof_H 	H 	0.0452	0.6174	0.6076	0.038
Mof_H 	H 	0.0629	0.6035	0.5364	0.04
Mof_H 	H 	0.1211	0.8079	0.5252	0.006
Mof_H 	H 	0.0467	0.6545	0.4654	0.04
Mof_H 	H 	0.0813	0.6825	0.3912	0.108
Mof_H 	H 	0.2202	0.8467	0.3828	0.117
Mof_H 	H 	0.1891	0.8181	0.456	0.043
Mof_H 	H 	0.8936	0.7179	0.1932	0.055
Mof_H 	H 	0.0327	0.8167	0.0782	0.053
Mof_H 	H 	0.9731	0.9233	0.0766	0.052
Mof_H 	H 	0.8313	0.8237	0.191	0.055
Mof_H 	H 	0.4673	0.1794	0.7044	0.043
Mof_H 	H 	0.5035	0.1979	0.7636	0.05
Mof_H 	H 	0.6658	0.1161	0.6936	0.008
Mof_H 	H 	0.6011	0.2428	0.7864	0.059
Mof_H 	H 	0.6799	0.2489	0.828	0.11
Mof_H 	H 	0.7815	0.0793	0.7968	0.113
Mof_H 	H 	0.7064	0.0766	0.7528	0.043
Mof_H 	H 	0.6174	0.0452	0.1076	0.038
Mof_H 	H 	0.6035	0.0629	0.0364	0.04
Mof_H 	H 	0.8079	0.1211	0.0252	0.006
Mof_H 	H 	0.6545	0.0467	0.9654	0.04
Mof_H 	H 	0.6825	0.0813	0.8912	0.108
Mof_H 	H 	0.8467	0.2202	0.8828	0.118
Mof_H 	H 	0.8181	0.1891	0.956	0.043
Mof_H 	H 	0.7179	0.8936	0.6932	0.055
Mof_H 	H 	0.8167	0.0327	0.5782	0.053
Mof_H 	H 	0.9233	0.9731	0.5766	0.052
Mof_H 	H 	0.8237	0.8313	0.691	0.055
Mof_H 	H 	0.3283	0.1162	0.7044	0.043
Mof_H 	H 	0.2329	0.0385	0.7636	0.05
Mof_H 	H 	0.1406	0.1903	0.6936	0.008
Mof_H 	H 	0.1125	0.9708	0.7864	0.059
Mof_H 	H 	0.9921	0.9231	0.828	0.11
Mof_H 	H 	0.9217	0.1239	0.7968	0.114
Mof_H 	H 	0.0408	0.1706	0.7528	0.043
Mof_H 	H 	0.775	0.8472	0.1076	0.038
Mof_H 	H 	0.8601	0.9007	0.0364	0.04
Mof_H 	H 	0.6669	0.8537	0.0252	0.006
Mof_H 	H 	0.8801	0.9879	0.9654	0.041
Mof_H 	H 	0.9263	0.0275	0.8912	0.106
Mof_H 	H 	0.7705	0.897	0.8828	0.117
Mof_H 	H 	0.7259	0.8549	0.956	0.044
Mof_H 	H 	0.0889	0.4132	0.6932	0.055
Mof_H 	H 	0.1051	0.3891	0.5782	0.054
Mof_H 	H 	0.0001	0.4503	0.5766	0.052
Mof_H 	H 	0.9853	0.4777	0.691	0.055
Mof_H 	H 	0.6794	0.8283	0.2044	0.043
Mof_H 	H 	0.6979	0.7329	0.2636	0.05
Mof_H 	H 	0.6161	0.6406	0.1936	0.008
Mof_H 	H 	0.7428	0.6125	0.2864	0.059
Mof_H 	H 	0.7489	0.4921	0.328	0.11
Mof_H 	H 	0.5793	0.4217	0.2968	0.113
Mof_H 	H 	0.5766	0.5408	0.2528	0.043
Mof_H 	H 	0.5452	0.275	0.6076	0.038
Mof_H 	H 	0.5629	0.3601	0.5364	0.04
Mof_H 	H 	0.6211	0.1669	0.5252	0.006
Mof_H 	H 	0.5467	0.3801	0.4654	0.04
Mof_H 	H 	0.5813	0.4263	0.3912	0.108
Mof_H 	H 	0.7202	0.2705	0.3828	0.117
Mof_H 	H 	0.6891	0.2259	0.456	0.043
Mof_H 	H 	0.3936	0.5889	0.1932	0.055
Mof_H 	H 	0.5327	0.6051	0.0782	0.054
Mof_H 	H 	0.4731	0.5001	0.0766	0.052
Mof_H 	H 	0.3313	0.4853	0.191	0.055
Mof_H 	H 	0.6162	0.9673	0.2044	0.043
Mof_H 	H 	0.5385	0.0035	0.2636	0.05
Mof_H 	H 	0.6903	0.1658	0.1936	0.008
Mof_H 	H 	0.4708	0.1011	0.2864	0.059
Mof_H 	H 	0.4231	0.1799	0.328	0.11
Mof_H 	H 	0.6239	0.2815	0.2968	0.113
Mof_H 	H 	0.6706	0.2064	0.2528	0.043
Mof_H 	H 	0.3472	0.1174	0.6076	0.038
Mof_H 	H 	0.4007	0.1035	0.5364	0.04
Mof_H 	H 	0.3537	0.3079	0.5252	0.006
Mof_H 	H 	0.4879	0.1545	0.4654	0.04
Mof_H 	H 	0.5275	0.1825	0.3912	0.108
Mof_H 	H 	0.397	0.3467	0.3828	0.117
Mof_H 	H 	0.3549	0.3181	0.456	0.043
Mof_H 	H 	0.9132	0.2179	0.1932	0.054
Mof_H 	H 	0.8891	0.3167	0.0782	0.054
Mof_H 	H 	0.9503	0.4233	0.0766	0.052
Mof_H 	H 	0.9777	0.3237	0.191	0.055
Mof_C 	C 	0.77784	0.66944	0.70952	0.008
Mof_C 	C 	0.72582	0.67982	0.74196	0.002
Mof_C 	C 	0.67571	0.63521	0.70318	0.104
Mof_C 	C 	0.58579	0.66079	0.76522	0.051
Mof_C 	C 	0.57377	0.71117	0.78766	-0.009
Mof_C 	C 	0.5016	0.7145	0.8126	-0.174
Mof_C 	C 	0.44604	0.66814	0.81432	0.231
Mof_C 	C 	0.45962	0.61372	0.79356	-0.172
Mof_C 	C 	0.53083	0.61143	0.76794	-0.005
Mof_C 	C 	0.26318	0.56138	0.08184	0.013
Mof_C 	C 	0.31018	0.57068	0.04264	0.005
Mof_C 	C 	0.20413	0.60163	0.03694	0.111
Mof_C 	C 	0.29888	0.61468	0.96824	0.045
Mof_C 	C 	0.35808	0.58238	0.94884	0.002
Mof_C 	C 	0.38552	0.60282	0.90436	-0.183
Mof_C 	C 	0.35248	0.65458	0.88004	0.241
Mof_C 	C 	0.29326	0.68556	0.89948	-0.186
Mof_C 	C 	0.26617	0.66677	0.94326	0.002
Mof_C 	C 	0.67543	0.50923	0.63654	0.298
Mof_C 	C 	0.60821	0.46961	0.63578	-0.059
Mof_C 	C 	0.5715	0.4093	0.6694	-0.024
Mof_C 	C 	0.58109	0.49229	0.60122	-0.024
Mof_C 	C 	0.41621	0.35491	0.63158	0.304
Mof_C 	C 	0.48284	0.39484	0.63312	-0.061
Mof_C 	C 	0.51838	0.45598	0.60004	-0.026
Mof_C 	C 	0.50914	0.37181	0.66818	-0.024
Mof_C 	C 	0.01264	0.62104	0.70952	0.008
Mof_C 	C 	0.03222	0.57822	0.74196	0.002
Mof_C 	C 	0.12111	0.66161	0.70318	0.104
Mof_C 	C 	0.14899	0.57399	0.76522	0.051
Mof_C 	C 	0.13857	0.50117	0.78766	-0.009
Mof_C 	C 	0.1858	0.4729	0.8126	-0.174
Mof_C 	C 	0.23964	0.51754	0.81432	0.231
Mof_C 	C 	0.24682	0.59272	0.79356	-0.172
Mof_C 	C 	0.20123	0.62063	0.76794	-0.005
Mof_C 	C 	0.15498	0.35678	0.08184	0.013
Mof_C 	C 	0.14718	0.38668	0.04264	0.005
Mof_C 	C 	0.25893	0.36143	0.03694	0.111
Mof_C 	C 	0.23288	0.41708	0.96824	0.045
Mof_C 	C 	0.19308	0.46878	0.94884	0.002
Mof_C 	C 	0.21012	0.49282	0.90436	-0.183
Mof_C 	C 	0.26748	0.46538	0.88004	0.241
Mof_C 	C 	0.30726	0.41496	0.89948	-0.186
Mof_C 	C 	0.29057	0.38997	0.94326	0.003
Mof_C 	C 	0.18803	0.85423	0.63654	0.298
Mof_C 	C 	0.25601	0.89461	0.63578	-0.059
Mof_C 	C 	0.2591	0.9213	0.6694	-0.025
Mof_C 	C 	0.31769	0.90649	0.60122	-0.024
Mof_C 	C 	0.45221	0.01351	0.63158	0.304
Mof_C 	C 	0.38404	0.97204	0.63312	-0.061
Mof_C 	C 	0.38158	0.94398	0.60004	-0.026
Mof_C 	C 	0.32268	0.96001	0.66818	-0.024
Mof_C 	C 	0.12104	0.27784	0.20952	0.008
Mof_C 	C 	0.07822	0.22582	0.24196	0.002
Mof_C 	C 	0.16161	0.17571	0.20318	0.104
Mof_C 	C 	0.07399	0.08579	0.26522	0.05
Mof_C 	C 	0.00117	0.07377	0.28766	-0.006
Mof_C 	C 	0.9729	0.0016	0.3126	-0.177
Mof_C 	C 	0.01754	0.94604	0.31432	0.232
Mof_C 	C 	0.09272	0.95962	0.29356	-0.174
Mof_C 	C 	0.12063	0.03083	0.26794	-0.003
Mof_C 	C 	0.85678	0.76318	0.58184	0.013
Mof_C 	C 	0.88668	0.81018	0.54264	0.005
Mof_C 	C 	0.86143	0.70413	0.53694	0.112
Mof_C 	C 	0.91708	0.79888	0.46824	0.046
Mof_C 	C 	0.96878	0.85808	0.44884	0.001
Mof_C 	C 	0.99282	0.88552	0.40436	-0.182
Mof_C 	C 	0.96538	0.85248	0.38004	0.241
Mof_C 	C 	0.91496	0.79326	0.39948	-0.185
Mof_C 	C 	0.88997	0.76617	0.44326	0.002
Mof_C 	C 	0.35423	0.17543	0.13654	0.298
Mof_C 	C 	0.39461	0.10821	0.13578	-0.058
Mof_C 	C 	0.4213	0.0715	0.1694	-0.026
Mof_C 	C 	0.40649	0.08109	0.10122	-0.026
Mof_C 	C 	0.51351	0.91621	0.13158	0.304
Mof_C 	C 	0.47204	0.98284	0.13312	-0.063
Mof_C 	C 	0.44398	0.01838	0.10004	-0.024
Mof_C 	C 	0.46001	0.00914	0.16818	-0.021
Mof_C 	C 	0.16944	0.51264	0.20952	0.008
Mof_C 	C 	0.17982	0.53222	0.24196	0.002
Mof_C 	C 	0.13521	0.62111	0.20318	0.104
Mof_C 	C 	0.16079	0.64899	0.26522	0.051
Mof_C 	C 	0.21117	0.63857	0.28766	-0.009
Mof_C 	C 	0.2145	0.6858	0.3126	-0.174
Mof_C 	C 	0.16814	0.73964	0.31432	0.231
Mof_C 	C 	0.11372	0.74682	0.29356	-0.172
Mof_C 	C 	0.11143	0.70123	0.26794	-0.005
Mof_C 	C 	0.06138	0.65498	0.58184	0.013
Mof_C 	C 	0.07068	0.64718	0.54264	0.005
Mof_C 	C 	0.10163	0.75893	0.53694	0.111
Mof_C 	C 	0.11468	0.73288	0.46824	0.045
Mof_C 	C 	0.08238	0.69308	0.44884	0.002
Mof_C 	C 	0.10282	0.71012	0.40436	-0.184
Mof_C 	C 	0.15458	0.76748	0.38004	0.242
Mof_C 	C 	0.18556	0.80726	0.39948	-0.186
Mof_C 	C 	0.16677	0.79057	0.44326	0.003
Mof_C 	C 	0.00923	0.68803	0.13654	0.297
Mof_C 	C 	0.96961	0.75601	0.13578	-0.059
Mof_C 	C 	0.9093	0.7591	0.1694	-0.024
Mof_C 	C 	0.99229	0.81769	0.10122	-0.023
Mof_C 	C 	0.85491	0.95221	0.13158	0.304
Mof_C 	C 	0.89484	0.88404	0.13312	-0.06
Mof_C 	C 	0.95598	0.88158	0.10004	-0.027
Mof_C 	C 	0.87181	0.82268	0.16818	-0.024
Mof_C 	C 	0.51264	0.16944	0.70952	0.008
Mof_C 	C 	0.53222	0.17982	0.74196	0.002
Mof_C 	C 	0.62111	0.13521	0.70318	0.104
Mof_C 	C 	0.64899	0.16079	0.76522	0.051
Mof_C 	C 	0.63857	0.21117	0.78766	-0.009
Mof_C 	C 	0.6858	0.2145	0.8126	-0.174
Mof_C 	C 	0.73964	0.16814	0.81432	0.231
Mof_C 	C 	0.74682	0.11372	0.79356	-0.172
Mof_C 	C 	0.70123	0.11143	0.76794	-0.005
Mof_C 	C 	0.65498	0.06138	0.08184	0.013
Mof_C 	C 	0.64718	0.07068	0.04264	0.005
Mof_C 	C 	0.75893	0.10163	0.03694	0.111
Mof_C 	C 	0.73288	0.11468	0.96824	0.044
Mof_C 	C 	0.69308	0.08238	0.94884	0.003
Mof_C 	C 	0.71012	0.10282	0.90436	-0.184
Mof_C 	C 	0.76748	0.15458	0.88004	0.242
Mof_C 	C 	0.80726	0.18556	0.89948	-0.187
Mof_C 	C 	0.79057	0.16677	0.94326	0.003
Mof_C 	C 	0.68803	0.00923	0.63654	0.298
Mof_C 	C 	0.75601	0.96961	0.63578	-0.059
Mof_C 	C 	0.7591	0.9093	0.6694	-0.024
Mof_C 	C 	0.81769	0.99229	0.60122	-0.024
Mof_C 	C 	0.95221	0.85491	0.63158	0.304
Mof_C 	C 	0.88404	0.89484	0.63312	-0.061
Mof_C 	C 	0.88158	0.95598	0.60004	-0.027
Mof_C 	C 	0.82268	0.87181	0.66818	-0.024
Mof_C 	C 	0.27784	0.12104	0.70952	0.008
Mof_C 	C 	0.22582	0.07822	0.74196	0.002
Mof_C 	C 	0.17571	0.16161	0.70318	0.104
Mof_C 	C 	0.08579	0.07399	0.76522	0.051
Mof_C 	C 	0.07377	0.00117	0.78766	-0.008
Mof_C 	C 	0.0016	0.9729	0.8126	-0.175
Mof_C 	C 	0.94604	0.01754	0.81432	0.23
Mof_C 	C 	0.95962	0.09272	0.79356	-0.173
Mof_C 	C 	0.03083	0.12063	0.76794	-0.004
Mof_C 	C 	0.76318	0.85678	0.08184	0.013
Mof_C 	C 	0.81018	0.88668	0.04264	0.005
Mof_C 	C 	0.70413	0.86143	0.03694	0.112
Mof_C 	C 	0.79888	0.91708	0.96824	0.046
Mof_C 	C 	0.85808	0.96878	0.94884	-0
Mof_C 	C 	0.88552	0.99282	0.90436	-0.18
Mof_C 	C 	0.85248	0.96538	0.88004	0.24
Mof_C 	C 	0.79326	0.91496	0.89948	-0.184
Mof_C 	C 	0.76617	0.88997	0.94326	0.001
Mof_C 	C 	0.17543	0.35423	0.63654	0.298
Mof_C 	C 	0.10821	0.39461	0.63578	-0.059
Mof_C 	C 	0.0715	0.4213	0.6694	-0.025
Mof_C 	C 	0.08109	0.40649	0.60122	-0.025
Mof_C 	C 	0.91621	0.51351	0.63158	0.304
Mof_C 	C 	0.98284	0.47204	0.63312	-0.062
Mof_C 	C 	0.01838	0.44398	0.60004	-0.026
Mof_C 	C 	0.00914	0.46001	0.66818	-0.023
Mof_C 	C 	0.66944	0.77784	0.20952	0.008
Mof_C 	C 	0.67982	0.72582	0.24196	0.002
Mof_C 	C 	0.63521	0.67571	0.20318	0.104
Mof_C 	C 	0.66079	0.58579	0.26522	0.051
Mof_C 	C 	0.71117	0.57377	0.28766	-0.009
Mof_C 	C 	0.7145	0.5016	0.3126	-0.174
Mof_C 	C 	0.66814	0.44604	0.31432	0.231
Mof_C 	C 	0.61372	0.45962	0.29356	-0.172
Mof_C 	C 	0.61143	0.53083	0.26794	-0.005
Mof_C 	C 	0.56138	0.26318	0.58184	0.013
Mof_C 	C 	0.57068	0.31018	0.54264	0.005
Mof_C 	C 	0.60163	0.20413	0.53694	0.111
Mof_C 	C 	0.61468	0.29888	0.46824	0.045
Mof_C 	C 	0.58238	0.35808	0.44884	0.002
Mof_C 	C 	0.60282	0.38552	0.40436	-0.184
Mof_C 	C 	0.65458	0.35248	0.38004	0.242
Mof_C 	C 	0.68556	0.29326	0.39948	-0.186
Mof_C 	C 	0.66677	0.26617	0.44326	0.003
Mof_C 	C 	0.50923	0.67543	0.13654	0.298
Mof_C 	C 	0.46961	0.60821	0.13578	-0.059
Mof_C 	C 	0.4093	0.5715	0.1694	-0.024
Mof_C 	C 	0.49229	0.58109	0.10122	-0.024
Mof_C 	C 	0.35491	0.41621	0.13158	0.304
Mof_C 	C 	0.39484	0.48284	0.13312	-0.061
Mof_C 	C 	0.45598	0.51838	0.10004	-0.026
Mof_C 	C 	0.37181	0.50914	0.16818	-0.024
Mof_C 	C 	0.62104	0.01264	0.20952	0.008
Mof_C 	C 	0.57822	0.03222	0.24196	0.002
Mof_C 	C 	0.66161	0.12111	0.20318	0.104
Mof_C 	C 	0.57399	0.14899	0.26522	0.051
Mof_C 	C 	0.50117	0.13857	0.28766	-0.009
Mof_C 	C 	0.4729	0.1858	0.3126	-0.174
Mof_C 	C 	0.51754	0.23964	0.31432	0.231
Mof_C 	C 	0.59272	0.24682	0.29356	-0.172
Mof_C 	C 	0.62063	0.20123	0.26794	-0.005
Mof_C 	C 	0.35678	0.15498	0.58184	0.013
Mof_C 	C 	0.38668	0.14718	0.54264	0.005
Mof_C 	C 	0.36143	0.25893	0.53694	0.111
Mof_C 	C 	0.41708	0.23288	0.46824	0.045
Mof_C 	C 	0.46878	0.19308	0.44884	0.002
Mof_C 	C 	0.49282	0.21012	0.40436	-0.184
Mof_C 	C 	0.46538	0.26748	0.38004	0.242
Mof_C 	C 	0.41496	0.30726	0.39948	-0.186
Mof_C 	C 	0.38997	0.29057	0.44326	0.003
Mof_C 	C 	0.85423	0.18803	0.13654	0.298
Mof_C 	C 	0.89461	0.25601	0.13578	-0.059
Mof_C 	C 	0.9213	0.2591	0.1694	-0.024
Mof_C 	C 	0.90649	0.31769	0.10122	-0.024
Mof_C 	C 	0.01351	0.45221	0.13158	0.303
Mof_C 	C 	0.97204	0.38404	0.13312	-0.061
Mof_C 	C 	0.94398	0.38158	0.10004	-0.027
Mof_C 	C 	0.96001	0.32268	0.16818	-0.024
Mof_N 	N 	0.74665	0.64185	0.6845	-0.145
Mof_N 	N 	0.65958	0.65919	0.73798	-0.129
Mof_N 	N 	0.19575	0.57925	0.0777	-0.148
Mof_N 	N 	0.27164	0.59384	0.01332	-0.131
Mof_N 	N 	0.06885	0.67365	0.6845	-0.145
Mof_N 	N 	0.10244	0.60283	0.73798	-0.129
Mof_N 	N 	0.22655	0.34305	0.0777	-0.148
Mof_N 	N 	0.21504	0.39284	0.01332	-0.131
Mof_N 	N 	0.17365	0.24665	0.1845	-0.145
Mof_N 	N 	0.10283	0.15958	0.23798	-0.128
Mof_N 	N 	0.84305	0.69575	0.5777	-0.148
Mof_N 	N 	0.89284	0.77164	0.51332	-0.131
Mof_N 	N 	0.14185	0.56885	0.1845	-0.145
Mof_N 	N 	0.15919	0.60244	0.23798	-0.129
Mof_N 	N 	0.07925	0.72655	0.5777	-0.148
Mof_N 	N 	0.09384	0.71504	0.51332	-0.131
Mof_N 	N 	0.56885	0.14185	0.6845	-0.145
Mof_N 	N 	0.60244	0.15919	0.73798	-0.129
Mof_N 	N 	0.72655	0.07925	0.0777	-0.148
Mof_N 	N 	0.71504	0.09384	0.01332	-0.131
Mof_N 	N 	0.24665	0.17365	0.6845	-0.145
Mof_N 	N 	0.15958	0.10283	0.73798	-0.128
Mof_N 	N 	0.69575	0.84305	0.0777	-0.148
Mof_N 	N 	0.77164	0.89284	0.01332	-0.131
Mof_N 	N 	0.64185	0.74665	0.1845	-0.145
Mof_N 	N 	0.65919	0.65958	0.23798	-0.129
Mof_N 	N 	0.57925	0.19575	0.5777	-0.148
Mof_N 	N 	0.59384	0.27164	0.51332	-0.131
Mof_N 	N 	0.67365	0.06885	0.1845	-0.145
Mof_N 	N 	0.60283	0.10244	0.23798	-0.129
Mof_N 	N 	0.34305	0.22655	0.5777	-0.148
Mof_N 	N 	0.39284	0.21504	0.51332	-0.131
Mof_O 	O 	0.6978	0.48983	0.66868	-0.273
Mof_O 	O 	0.70745	0.56298	0.6047	-0.281
Mof_O 	O 	0.3912	0.29474	0.65956	-0.282
Mof_O 	O 	0.38835	0.38055	0.60234	-0.273
Mof_O 	O 	0.37352	0.67407	0.83586	-0.286
Mof_O 	O 	0.13352	0.84149	0.66868	-0.273
Mof_O 	O 	0.18785	0.83232	0.6047	-0.281
Mof_O 	O 	0.44924	0.0457	0.65956	-0.282
Mof_O 	O 	0.50931	0.01711	0.60234	-0.273
Mof_O 	O 	0.29062	0.49007	0.83586	-0.286
Mof_O 	O 	0.34149	0.1978	0.16868	-0.273
Mof_O 	O 	0.33232	0.20745	0.1047	-0.281
Mof_O 	O 	0.5457	0.8912	0.15956	-0.283
Mof_O 	O 	0.51711	0.88835	0.10234	-0.274
Mof_O 	O 	0.99007	0.87352	0.33586	-0.285
Mof_O 	O 	0.98983	0.63352	0.16868	-0.273
Mof_O 	O 	0.06298	0.68785	0.1047	-0.281
Mof_O 	O 	0.79474	0.94924	0.15956	-0.282
Mof_O 	O 	0.88055	0.00931	0.10234	-0.273
Mof_O 	O 	0.17407	0.79062	0.33586	-0.286
Mof_O 	O 	0.63352	0.98983	0.66868	-0.273
Mof_O 	O 	0.68785	0.06298	0.6047	-0.281
Mof_O 	O 	0.94924	0.79474	0.65956	-0.282
Mof_O 	O 	0.00931	0.88055	0.60234	-0.274
Mof_O 	O 	0.79062	0.17407	0.83586	-0.286
Mof_O 	O 	0.1978	0.34149	0.66868	-0.273
Mof_O 	O 	0.20745	0.33232	0.6047	-0.281
Mof_O 	O 	0.8912	0.5457	0.65956	-0.283
Mof_O 	O 	0.88835	0.51711	0.60234	-0.273
Mof_O 	O 	0.87352	0.99007	0.83586	-0.285
Mof_O 	O 	0.48983	0.6978	0.16868	-0.273
Mof_O 	O 	0.56298	0.70745	0.1047	-0.281
Mof_O 	O 	0.29474	0.3912	0.15956	-0.282
Mof_O 	O 	0.38055	0.38835	0.10234	-0.273
Mof_O 	O 	0.67407	0.37352	0.33586	-0.286
Mof_O 	O 	0.84149	0.13352	0.16868	-0.273
Mof_O 	O 	0.83232	0.18785	0.1047	-0.281
Mof_O 	O 	0.0457	0.44924	0.15956	-0.282
Mof_O 	O 	0.01711	0.50931	0.10234	-0.273
Mof_O 	O 	0.49007	0.29062	0.33586	-0.286
_end
