data_functionalizedCrystal
_audit_creation_method	'EQeq! by Chris Wilmer'
_symmetry_space_group_name_H-M	'P1'
_symmetry_Int_Tables_number	1
_symmetry_cell_setting	triclinic
loop_
_symmetry_equiv_pos_as_xyz
  x,y,z
_cell_length_a	10.2768
_cell_length_b	10.3016
_cell_length_c	18.8364
_cell_angle_alpha	90
_cell_angle_beta	90
_cell_angle_gamma	90
loop_
_atom_site_label
_atom_site_type_symbol
_atom_site_fract_x
_atom_site_fract_y
_atom_site_fract_z
_atom_site_charge
Mof_Co	Co	0.57218	0.86788	0.06058	1.179
Mof_Co	Co	0.59538	0.13696	0.20076	1.179
Mof_Co	Co	0.90936	0.89769	0.1947	1.177
Mof_Co	Co	0.8484	0.16533	0.0323	1.179
Mof_P 	P 	0.59429	0.84787	0.23152	0.53
Mof_P 	P 	0.89626	0.20874	0.20015	0.551
Mof_P 	P 	0.88902	0.84771	0.03261	0.554
Mof_P 	P 	0.56148	0.13503	0.0291	0.492
Mof_O 	O 	0.7452	0.8156	0.032	-0.448
Mof_O 	O 	0.5467	0.801	0.159	-0.433
Mof_O 	O 	0.9542	0.7724	0.9735	-0.375
Mof_O 	O 	0.5024	0.0106	0.998	-0.388
Mof_O 	O 	0.7604	0.2032	0.2341	-0.442
Mof_O 	O 	0.554	0.752	0.2895	-0.39
Mof_O 	O 	0.6208	0.0908	0.1007	-0.573
Mof_O 	O 	0.5321	0.98	0.2486	-0.418
Mof_O 	O 	0.7427	0.8607	0.2352	-0.455
Mof_O 	O 	0.9663	0.078	0.2079	-0.436
Mof_O 	O 	0.9747	0.3136	0.2377	-0.385
Mof_O 	O 	0.9509	0.8094	0.1047	-0.423
Mof_O 	O 	0.9147	0.9916	0.0199	-0.454
Mof_O 	O 	0.4599	0.241	0.0381	-0.394
Mof_O 	O 	0.8888	0.2479	0.1217	-0.437
Mof_O 	O 	0.6771	0.182	0.9839	-0.398
Mof_Co	Co	0.92782	0.13212	0.56058	1.179
Mof_Co	Co	0.90462	0.86304	0.70076	1.179
Mof_Co	Co	0.59064	0.10231	0.6947	1.178
Mof_Co	Co	0.6516	0.83467	0.5323	1.181
Mof_P 	P 	0.90571	0.15213	0.73152	0.53
Mof_P 	P 	0.60374	0.79126	0.70015	0.551
Mof_P 	P 	0.61098	0.15229	0.53261	0.558
Mof_P 	P 	0.93852	0.86497	0.5291	0.493
Mof_O 	O 	0.7548	0.1844	0.532	-0.448
Mof_O 	O 	0.9533	0.199	0.659	-0.433
Mof_O 	O 	0.5458	0.2276	0.4735	-0.379
Mof_O 	O 	0.9976	0.9894	0.498	-0.39
Mof_O 	O 	0.7396	0.7968	0.7341	-0.442
Mof_O 	O 	0.946	0.248	0.7895	-0.388
Mof_O 	O 	0.8792	0.9092	0.6007	-0.573
Mof_O 	O 	0.9679	0.02	0.7486	-0.416
Mof_O 	O 	0.7573	0.1393	0.7352	-0.454
Mof_O 	O 	0.5337	0.922	0.7079	-0.435
Mof_O 	O 	0.5253	0.6864	0.7377	-0.383
Mof_O 	O 	0.5491	0.1906	0.6047	-0.421
Mof_O 	O 	0.5853	0.0084	0.5199	-0.452
Mof_O 	O 	0.0401	0.759	0.5381	-0.393
Mof_O 	O 	0.6112	0.7521	0.6217	-0.436
Mof_O 	O 	0.8229	0.818	0.4839	-0.401
Mof_Co	Co	0.42782	0.36788	0.43942	1.179
Mof_Co	Co	0.40462	0.63696	0.29924	1.179
Mof_Co	Co	0.09064	0.39769	0.3053	1.178
Mof_Co	Co	0.1516	0.66533	0.4677	1.181
Mof_P 	P 	0.40571	0.34787	0.26848	0.53
Mof_P 	P 	0.10374	0.70874	0.29985	0.551
Mof_P 	P 	0.11098	0.34771	0.46739	0.558
Mof_P 	P 	0.43852	0.63503	0.4709	0.494
Mof_O 	O 	0.2548	0.3156	0.468	-0.448
Mof_O 	O 	0.4533	0.301	0.341	-0.434
Mof_O 	O 	0.0458	0.2724	0.5265	-0.38
Mof_O 	O 	0.4976	0.5106	0.502	-0.389
Mof_O 	O 	0.2396	0.7032	0.2659	-0.441
Mof_O 	O 	0.446	0.252	0.2105	-0.39
Mof_O 	O 	0.3792	0.5908	0.3993	-0.573
Mof_O 	O 	0.4679	0.48	0.2514	-0.419
Mof_O 	O 	0.2573	0.3607	0.2648	-0.454
Mof_O 	O 	0.0337	0.578	0.2921	-0.434
Mof_O 	O 	0.0253	0.8136	0.2623	-0.38
Mof_O 	O 	0.0491	0.3094	0.3953	-0.421
Mof_O 	O 	0.0853	0.4916	0.4801	-0.452
Mof_O 	O 	0.5401	0.741	0.4619	-0.394
Mof_O 	O 	0.1112	0.7479	0.3783	-0.435
Mof_O 	O 	0.3229	0.682	0.5161	-0.401
Mof_Co	Co	0.07218	0.63212	0.93942	1.177
Mof_Co	Co	0.09538	0.36304	0.79924	1.178
Mof_Co	Co	0.40936	0.60231	0.8053	1.178
Mof_Co	Co	0.3484	0.33467	0.9677	1.18
Mof_P 	P 	0.09429	0.65213	0.76848	0.531
Mof_P 	P 	0.39626	0.29126	0.79985	0.551
Mof_P 	P 	0.38902	0.65229	0.96739	0.557
Mof_P 	P 	0.06148	0.36497	0.9709	0.482
Mof_O 	O 	0.2452	0.6844	0.968	-0.449
Mof_O 	O 	0.0467	0.699	0.841	-0.435
Mof_O 	O 	0.4542	0.7276	0.0265	-0.377
Mof_O 	O 	0.0024	0.4894	0.002	-0.382
Mof_O 	O 	0.2604	0.2968	0.7659	-0.443
Mof_O 	O 	0.054	0.748	0.7105	-0.39
Mof_O 	O 	0.1208	0.4092	0.8993	-0.573
Mof_O 	O 	0.0321	0.52	0.7514	-0.42
Mof_O 	O 	0.2427	0.6393	0.7648	-0.455
Mof_O 	O 	0.4663	0.422	0.7921	-0.435
Mof_O 	O 	0.4747	0.1864	0.7623	-0.384
Mof_O 	O 	0.4509	0.6906	0.8953	-0.421
Mof_O 	O 	0.4147	0.5084	0.9801	-0.452
Mof_O 	O 	0.9599	0.259	0.9619	-0.388
Mof_O 	O 	0.3888	0.2521	0.8783	-0.436
Mof_O 	O 	0.1771	0.318	0.0161	-0.396
_end
