data_functionalizedCrystal
_audit_creation_method	'EQeq! by Chris Wilmer'
_symmetry_space_group_name_H-M	'P1'
_symmetry_Int_Tables_number	1
_symmetry_cell_setting	triclinic
loop_
_symmetry_equiv_pos_as_xyz
  x,y,z
_cell_length_a	15.1796
_cell_length_b	19.303
_cell_length_c	25.806
_cell_angle_alpha	90
_cell_angle_beta	90
_cell_angle_gamma	90
loop_
_atom_site_label
_atom_site_type_symbol
_atom_site_fract_x
_atom_site_fract_y
_atom_site_fract_z
_atom_site_charge
Mof_Zn	Zn	0.52963	0.96428	0.5485	1.213
Mof_Zn	Zn	0.57345	0.83853	0.76664	1.187
Mof_N 	N 	0.6397	0.8346	0.6598	-0.32
Mof_N 	N 	0.5803	0.8694	0.69184	-0.315
Mof_N 	N 	0.5737	0.9153	0.61318	-0.343
Mof_N 	N 	0.4607	0.7859	0.784	-0.303
Mof_O 	O 	0.5269	0.0656	0.5711	-0.477
Mof_O 	O 	0.4859	0.1207	0.499	-0.452
Mof_O 	O 	0.645	0.982	0.5091	-0.479
Mof_O 	O 	0.6027	0.0383	0.4384	-0.464
Mof_O 	O 	0.8397	0.1209	0.3177	-0.487
Mof_O 	O 	0.9582	0.0609	0.3098	-0.429
Mof_O 	O 	0.9625	0.9149	0.472	-0.312
Mof_C 	C 	0.6921	0.8442	0.569	-0.862
Mof_H 	H 	0.7392	0.8151	0.5809	0.234
Mof_H 	H 	0.7161	0.8851	0.5533	0.282
Mof_H 	H 	0.6575	0.8194	0.5439	0.271
Mof_C 	C 	0.6351	0.8642	0.6139	0.294
Mof_C 	C 	0.5424	0.9168	0.6621	0.328
Mof_C 	C 	0.4737	0.9658	0.6805	-0.923
Mof_H 	H 	0.4174	0.9433	0.6801	0.285
Mof_H 	H 	0.4721	0.0055	0.658	0.298
Mof_H 	H 	0.4873	0.9804	0.7151	0.283
Mof_C 	C 	0.5106	0.1189	0.5468	0.356
Mof_C 	C 	0.5157	0.1878	0.5741	-0.024
Mof_C 	C 	0.5262	0.1878	0.6267	-0.179
Mof_H 	H 	0.5309	0.1462	0.6447	0.103
Mof_C 	C 	0.8866	0.073	0.3321	0.32
Mof_C 	C 	0.8591	0.0311	0.3786	-0.063
Mof_C 	C 	0.9221	0.9875	0.402	-0.131
Mof_H 	H 	0.9766	0.9803	0.3864	0.089
Mof_C 	C 	0.9013	0.9551	0.4491	0.202
Mof_C 	C 	0.8153	0.9623	0.4689	-0.122
Mof_H 	H 	0.8002	0.9396	0.4995	0.07
Mof_C 	C 	0.7524	0.0026	0.4439	-0.06
Mof_C 	C 	0.7747	0.0375	0.3984	-0.02
Mof_H 	H 	0.7332	0.0647	0.3815	0.043
Mof_C 	C 	0.6599	0.008	0.4663	0.372
Mof_C 	C 	0.35	0.8784	0.798	-0.834
Mof_H 	H 	0.3961	0.9086	0.7862	0.251
Mof_H 	H 	0.3344	0.8902	0.833	0.249
Mof_H 	H 	0.2993	0.8836	0.7761	0.229
Mof_C 	C 	0.3812	0.8051	0.7961	0.28
Mof_C 	C 	0.57	0.186	0.7347	0.626
Mof_H 	H 	0.6308	0.171	0.7328	-0.173
Mof_H 	H 	0.5324	0.1482	0.7225	-0.174
Mof_C 	C 	0.526	0.2138	0.787	-1.362
Mof_H 	H 	0.5667	0.2129	0.8151	0.432
Mof_H 	H 	0.4863	0.1751	0.7896	0.369
Mof_H 	H 	0.4925	0.2557	0.7878	0.478
Mof_C 	C 	0.9499	0.8849	0.5207	0.378
Mof_H 	H 	0.9038	0.8501	0.5199	-0.101
Mof_H 	H 	0.9357	0.9195	0.5467	-0.088
Mof_C 	C 	0.0445	0.8511	0.5307	-0.774
Mof_H 	H 	0.0382	0.8026	0.5379	0.233
Mof_H 	H 	0.0734	0.8733	0.5593	0.259
Mof_H 	H 	0.0791	0.8571	0.4999	0.269
Mof_Zn	Zn	0.97037	0.03572	0.0485	1.213
Mof_Zn	Zn	0.92655	0.16147	0.26664	1.187
Mof_N 	N 	0.8603	0.1654	0.1598	-0.319
Mof_N 	N 	0.9197	0.1306	0.19184	-0.311
Mof_N 	N 	0.9263	0.0847	0.11318	-0.34
Mof_N 	N 	0.0393	0.2141	0.284	-0.302
Mof_O 	O 	0.9731	0.9344	0.0711	-0.475
Mof_O 	O 	0.0141	0.8793	0.999	-0.458
Mof_O 	O 	0.855	0.018	0.0091	-0.486
Mof_O 	O 	0.8973	0.9617	0.9384	-0.461
Mof_O 	O 	0.6603	0.8791	0.8177	-0.484
Mof_O 	O 	0.5418	0.9391	0.8098	-0.424
Mof_O 	O 	0.5375	0.0851	0.972	-0.316
Mof_C 	C 	0.8079	0.1558	0.069	-0.861
Mof_H 	H 	0.7608	0.1849	0.0809	0.233
Mof_H 	H 	0.7839	0.1149	0.0533	0.28
Mof_H 	H 	0.8425	0.1806	0.0439	0.271
Mof_C 	C 	0.8649	0.1358	0.1139	0.293
Mof_C 	C 	0.9576	0.0832	0.1621	0.307
Mof_C 	C 	0.0263	0.0342	0.1805	-0.862
Mof_H 	H 	0.0826	0.0567	0.1801	0.269
Mof_H 	H 	0.0279	0.9945	0.158	0.274
Mof_H 	H 	0.0127	0.0196	0.2151	0.268
Mof_C 	C 	0.9894	0.8811	0.0468	0.365
Mof_C 	C 	0.9843	0.8122	0.0741	-0.032
Mof_C 	C 	0.9738	0.8122	0.1267	-0.169
Mof_H 	H 	0.9691	0.8538	0.1447	0.101
Mof_C 	C 	0.6134	0.927	0.8321	0.315
Mof_C 	C 	0.6409	0.9689	0.8786	-0.045
Mof_C 	C 	0.5779	0.0125	0.902	-0.152
Mof_H 	H 	0.5234	0.0197	0.8864	0.093
Mof_C 	C 	0.5987	0.0449	0.9491	0.213
Mof_C 	C 	0.6847	0.0377	0.9689	-0.143
Mof_H 	H 	0.6998	0.0604	0.9995	0.075
Mof_C 	C 	0.7476	0.9974	0.9439	-0.043
Mof_C 	C 	0.7253	0.9625	0.8984	-0.033
Mof_H 	H 	0.7668	0.9353	0.8815	0.049
Mof_C 	C 	0.8401	0.992	0.9663	0.376
Mof_C 	C 	0.15	0.1216	0.298	-0.84
Mof_H 	H 	0.1039	0.0914	0.2862	0.255
Mof_H 	H 	0.1656	0.1098	0.333	0.252
Mof_H 	H 	0.2007	0.1164	0.2761	0.232
Mof_C 	C 	0.1188	0.1949	0.2961	0.283
Mof_C 	C 	0.93	0.814	0.2347	0.579
Mof_H 	H 	0.8692	0.829	0.2328	-0.157
Mof_H 	H 	0.9676	0.8518	0.2225	-0.157
Mof_C 	C 	0.974	0.7862	0.287	-1.263
Mof_H 	H 	0.9333	0.7871	0.3151	0.404
Mof_H 	H 	0.0137	0.8249	0.2896	0.34
Mof_H 	H 	0.0075	0.7443	0.2878	0.443
Mof_C 	C 	0.5501	0.1151	0.0207	0.372
Mof_H 	H 	0.5962	0.1499	0.0199	-0.1
Mof_H 	H 	0.5643	0.0805	0.0467	-0.087
Mof_C 	C 	0.4555	0.1489	0.0307	-0.761
Mof_H 	H 	0.4618	0.1974	0.0379	0.23
Mof_H 	H 	0.4266	0.1267	0.0593	0.257
Mof_H 	H 	0.4209	0.1429	0.9999	0.266
Mof_Zn	Zn	0.47037	0.46428	0.4515	1.214
Mof_Zn	Zn	0.42655	0.33853	0.23336	1.188
Mof_N 	N 	0.3603	0.3346	0.3402	-0.319
Mof_N 	N 	0.4197	0.3694	0.30816	-0.314
Mof_N 	N 	0.4263	0.4153	0.38682	-0.343
Mof_N 	N 	0.5393	0.2859	0.216	-0.303
Mof_O 	O 	0.4731	0.5656	0.4289	-0.477
Mof_O 	O 	0.5141	0.6207	0.501	-0.452
Mof_O 	O 	0.355	0.482	0.4909	-0.481
Mof_O 	O 	0.3973	0.5383	0.5616	-0.464
Mof_O 	O 	0.1603	0.6209	0.6823	-0.486
Mof_O 	O 	0.0418	0.5609	0.6902	-0.425
Mof_O 	O 	0.0375	0.4149	0.528	-0.314
Mof_C 	C 	0.3079	0.3442	0.431	-0.861
Mof_H 	H 	0.2608	0.3151	0.4191	0.233
Mof_H 	H 	0.2839	0.3851	0.4467	0.281
Mof_H 	H 	0.3425	0.3194	0.4561	0.271
Mof_C 	C 	0.3649	0.3642	0.3861	0.294
Mof_C 	C 	0.4576	0.4168	0.3379	0.327
Mof_C 	C 	0.5263	0.4658	0.3195	-0.922
Mof_H 	H 	0.5826	0.4433	0.3199	0.285
Mof_H 	H 	0.5279	0.5055	0.342	0.297
Mof_H 	H 	0.5127	0.4804	0.2849	0.283
Mof_C 	C 	0.4894	0.6189	0.4532	0.356
Mof_C 	C 	0.4843	0.6878	0.4259	-0.024
Mof_C 	C 	0.4738	0.6878	0.3733	-0.179
Mof_H 	H 	0.4691	0.6462	0.3553	0.103
Mof_C 	C 	0.1134	0.573	0.6679	0.316
Mof_C 	C 	0.1409	0.5311	0.6214	-0.051
Mof_C 	C 	0.0779	0.4875	0.598	-0.145
Mof_H 	H 	0.0234	0.4803	0.6136	0.091
Mof_C 	C 	0.0987	0.4551	0.5509	0.209
Mof_C 	C 	0.1847	0.4623	0.5311	-0.134
Mof_H 	H 	0.1998	0.4396	0.5005	0.073
Mof_C 	C 	0.2476	0.5026	0.5561	-0.05
Mof_C 	C 	0.2253	0.5375	0.6016	-0.028
Mof_H 	H 	0.2668	0.5647	0.6185	0.046
Mof_C 	C 	0.3401	0.508	0.5337	0.372
Mof_C 	C 	0.65	0.3784	0.202	-0.835
Mof_H 	H 	0.6039	0.4086	0.2138	0.251
Mof_H 	H 	0.6656	0.3902	0.167	0.249
Mof_H 	H 	0.7007	0.3836	0.2239	0.23
Mof_C 	C 	0.6188	0.3051	0.2039	0.28
Mof_C 	C 	0.43	0.686	0.2653	0.626
Mof_H 	H 	0.3692	0.671	0.2672	-0.172
Mof_H 	H 	0.4676	0.6482	0.2775	-0.173
Mof_C 	C 	0.474	0.7138	0.213	-1.361
Mof_H 	H 	0.4333	0.7129	0.1849	0.432
Mof_H 	H 	0.5137	0.6751	0.2104	0.369
Mof_H 	H 	0.5075	0.7557	0.2122	0.478
Mof_C 	C 	0.0501	0.3849	0.4793	0.374
Mof_H 	H 	0.0962	0.3501	0.4801	-0.1
Mof_H 	H 	0.0643	0.4195	0.4533	-0.087
Mof_C 	C 	0.9555	0.3511	0.4693	-0.766
Mof_H 	H 	0.9618	0.3026	0.4621	0.231
Mof_H 	H 	0.9266	0.3733	0.4407	0.258
Mof_H 	H 	0.9209	0.3571	0.5001	0.268
Mof_Zn	Zn	0.02963	0.53572	0.9515	1.214
Mof_Zn	Zn	0.07345	0.66147	0.73336	1.187
Mof_N 	N 	0.1397	0.6654	0.8402	-0.319
Mof_N 	N 	0.0803	0.6306	0.80816	-0.314
Mof_N 	N 	0.0737	0.5847	0.88682	-0.343
Mof_N 	N 	0.9607	0.7141	0.716	-0.302
Mof_O 	O 	0.0269	0.4344	0.9289	-0.478
Mof_O 	O 	0.9859	0.3793	0.001	-0.455
Mof_O 	O 	0.145	0.518	0.9909	-0.481
Mof_O 	O 	0.1027	0.4617	0.0616	-0.463
Mof_O 	O 	0.3397	0.3791	0.1823	-0.485
Mof_O 	O 	0.4582	0.4391	0.1902	-0.425
Mof_O 	O 	0.4625	0.5851	0.028	-0.315
Mof_C 	C 	0.1921	0.6558	0.931	-0.861
Mof_H 	H 	0.2392	0.6849	0.9191	0.233
Mof_H 	H 	0.2161	0.6149	0.9467	0.281
Mof_H 	H 	0.1575	0.6806	0.9561	0.271
Mof_C 	C 	0.1351	0.6358	0.8861	0.293
Mof_C 	C 	0.0424	0.5832	0.8379	0.326
Mof_C 	C 	0.9737	0.5342	0.8195	-0.918
Mof_H 	H 	0.9174	0.5567	0.8199	0.284
Mof_H 	H 	0.9721	0.4945	0.842	0.296
Mof_H 	H 	0.9873	0.5196	0.7849	0.282
Mof_C 	C 	0.0106	0.3811	0.9532	0.361
Mof_C 	C 	0.0157	0.3122	0.9259	-0.032
Mof_C 	C 	0.0262	0.3122	0.8733	-0.169
Mof_H 	H 	0.0309	0.3538	0.8553	0.1
Mof_C 	C 	0.3866	0.427	0.1679	0.316
Mof_C 	C 	0.3591	0.4689	0.1214	-0.051
Mof_C 	C 	0.4221	0.5125	0.098	-0.145
Mof_H 	H 	0.4766	0.5197	0.1136	0.091
Mof_C 	C 	0.4013	0.5449	0.0509	0.208
Mof_C 	C 	0.3153	0.5377	0.0311	-0.134
Mof_H 	H 	0.3002	0.5604	0.0005	0.073
Mof_C 	C 	0.2524	0.4974	0.0561	-0.05
Mof_C 	C 	0.2747	0.4625	0.1016	-0.028
Mof_H 	H 	0.2332	0.4353	0.1185	0.046
Mof_C 	C 	0.1599	0.492	0.0337	0.371
Mof_C 	C 	0.85	0.6216	0.702	-0.836
Mof_H 	H 	0.8961	0.5914	0.7138	0.252
Mof_H 	H 	0.8344	0.6098	0.667	0.25
Mof_H 	H 	0.7993	0.6164	0.7239	0.23
Mof_C 	C 	0.8812	0.6949	0.7039	0.281
Mof_C 	C 	0.07	0.314	0.7653	0.583
Mof_H 	H 	0.1308	0.329	0.7672	-0.159
Mof_H 	H 	0.0324	0.3518	0.7775	-0.16
Mof_C 	C 	0.026	0.2862	0.713	-1.272
Mof_H 	H 	0.0667	0.2871	0.6849	0.406
Mof_H 	H 	0.9863	0.3249	0.7104	0.345
Mof_H 	H 	0.9925	0.2443	0.7122	0.447
Mof_C 	C 	0.4499	0.6151	0.9793	0.37
Mof_H 	H 	0.4038	0.6499	0.9801	-0.1
Mof_H 	H 	0.4357	0.5805	0.9533	-0.087
Mof_C 	C 	0.5445	0.6489	0.9693	-0.761
Mof_H 	H 	0.5382	0.6974	0.9621	0.23
Mof_H 	H 	0.5734	0.6267	0.9407	0.256
Mof_H 	H 	0.5791	0.6429	0.0001	0.266
Mof_Zn	Zn	0.47037	0.03572	0.4515	1.214
Mof_Zn	Zn	0.42655	0.16147	0.23336	1.188
Mof_N 	N 	0.3603	0.1654	0.3402	-0.319
Mof_N 	N 	0.4197	0.1306	0.30816	-0.314
Mof_N 	N 	0.4263	0.0847	0.38682	-0.343
Mof_N 	N 	0.5393	0.2141	0.216	-0.303
Mof_O 	O 	0.4731	0.9344	0.4289	-0.477
Mof_O 	O 	0.5141	0.8793	0.501	-0.452
Mof_O 	O 	0.355	0.018	0.4909	-0.479
Mof_O 	O 	0.3973	0.9617	0.5616	-0.464
Mof_O 	O 	0.1603	0.8791	0.6823	-0.487
Mof_O 	O 	0.0418	0.9391	0.6902	-0.429
Mof_O 	O 	0.0375	0.0851	0.528	-0.312
Mof_C 	C 	0.3079	0.1558	0.431	-0.862
Mof_H 	H 	0.2608	0.1849	0.4191	0.234
Mof_H 	H 	0.2839	0.1149	0.4467	0.282
Mof_H 	H 	0.3425	0.1806	0.4561	0.271
Mof_C 	C 	0.3649	0.1358	0.3861	0.294
Mof_C 	C 	0.4576	0.0832	0.3379	0.328
Mof_C 	C 	0.5263	0.0342	0.3195	-0.923
Mof_H 	H 	0.5826	0.0567	0.3199	0.285
Mof_H 	H 	0.5279	0.9945	0.342	0.298
Mof_H 	H 	0.5127	0.0196	0.2849	0.283
Mof_C 	C 	0.4894	0.8811	0.4532	0.356
Mof_C 	C 	0.4843	0.8122	0.4259	-0.024
Mof_C 	C 	0.4738	0.8122	0.3733	-0.179
Mof_H 	H 	0.4691	0.8538	0.3553	0.103
Mof_C 	C 	0.1134	0.927	0.6679	0.32
Mof_C 	C 	0.1409	0.9689	0.6214	-0.063
Mof_C 	C 	0.0779	0.0125	0.598	-0.131
Mof_H 	H 	0.0234	0.0197	0.6136	0.089
Mof_C 	C 	0.0987	0.0449	0.5509	0.202
Mof_C 	C 	0.1847	0.0377	0.5311	-0.122
Mof_H 	H 	0.1998	0.0604	0.5005	0.07
Mof_C 	C 	0.2476	0.9974	0.5561	-0.06
Mof_C 	C 	0.2253	0.9625	0.6016	-0.02
Mof_H 	H 	0.2668	0.9353	0.6185	0.043
Mof_C 	C 	0.3401	0.992	0.5337	0.372
Mof_C 	C 	0.65	0.1216	0.202	-0.834
Mof_H 	H 	0.6039	0.0914	0.2138	0.251
Mof_H 	H 	0.6656	0.1098	0.167	0.249
Mof_H 	H 	0.7007	0.1164	0.2239	0.229
Mof_C 	C 	0.6188	0.1949	0.2039	0.28
Mof_C 	C 	0.43	0.814	0.2653	0.626
Mof_H 	H 	0.3692	0.829	0.2672	-0.173
Mof_H 	H 	0.4676	0.8518	0.2775	-0.174
Mof_C 	C 	0.474	0.7862	0.213	-1.362
Mof_H 	H 	0.4333	0.7871	0.1849	0.432
Mof_H 	H 	0.5137	0.8249	0.2104	0.369
Mof_H 	H 	0.5075	0.7443	0.2122	0.478
Mof_C 	C 	0.0501	0.1151	0.4793	0.378
Mof_H 	H 	0.0962	0.1499	0.4801	-0.101
Mof_H 	H 	0.0643	0.0805	0.4533	-0.088
Mof_C 	C 	0.9555	0.1489	0.4693	-0.774
Mof_H 	H 	0.9618	0.1974	0.4621	0.233
Mof_H 	H 	0.9266	0.1267	0.4407	0.259
Mof_H 	H 	0.9209	0.1429	0.5001	0.269
Mof_Zn	Zn	0.02963	0.96428	0.9515	1.213
Mof_Zn	Zn	0.07345	0.83853	0.73336	1.187
Mof_N 	N 	0.1397	0.8346	0.8402	-0.319
Mof_N 	N 	0.0803	0.8694	0.80816	-0.311
Mof_N 	N 	0.0737	0.9153	0.88682	-0.34
Mof_N 	N 	0.9607	0.7859	0.716	-0.302
Mof_O 	O 	0.0269	0.0656	0.9289	-0.475
Mof_O 	O 	0.9859	0.1207	0.001	-0.458
Mof_O 	O 	0.145	0.982	0.9909	-0.486
Mof_O 	O 	0.1027	0.0383	0.0616	-0.461
Mof_O 	O 	0.3397	0.1209	0.1823	-0.484
Mof_O 	O 	0.4582	0.0609	0.1902	-0.424
Mof_O 	O 	0.4625	0.9149	0.028	-0.316
Mof_C 	C 	0.1921	0.8442	0.931	-0.861
Mof_H 	H 	0.2392	0.8151	0.9191	0.233
Mof_H 	H 	0.2161	0.8851	0.9467	0.28
Mof_H 	H 	0.1575	0.8194	0.9561	0.271
Mof_C 	C 	0.1351	0.8642	0.8861	0.293
Mof_C 	C 	0.0424	0.9168	0.8379	0.307
Mof_C 	C 	0.9737	0.9658	0.8195	-0.862
Mof_H 	H 	0.9174	0.9433	0.8199	0.269
Mof_H 	H 	0.9721	0.0055	0.842	0.274
Mof_H 	H 	0.9873	0.9804	0.7849	0.268
Mof_C 	C 	0.0106	0.1189	0.9532	0.365
Mof_C 	C 	0.0157	0.1878	0.9259	-0.032
Mof_C 	C 	0.0262	0.1878	0.8733	-0.169
Mof_H 	H 	0.0309	0.1462	0.8553	0.101
Mof_C 	C 	0.3866	0.073	0.1679	0.315
Mof_C 	C 	0.3591	0.0311	0.1214	-0.045
Mof_C 	C 	0.4221	0.9875	0.098	-0.152
Mof_H 	H 	0.4766	0.9803	0.1136	0.093
Mof_C 	C 	0.4013	0.9551	0.0509	0.213
Mof_C 	C 	0.3153	0.9623	0.0311	-0.143
Mof_H 	H 	0.3002	0.9396	0.0005	0.075
Mof_C 	C 	0.2524	0.0026	0.0561	-0.043
Mof_C 	C 	0.2747	0.0375	0.1016	-0.033
Mof_H 	H 	0.2332	0.0647	0.1185	0.049
Mof_C 	C 	0.1599	0.008	0.0337	0.376
Mof_C 	C 	0.85	0.8784	0.702	-0.84
Mof_H 	H 	0.8961	0.9086	0.7138	0.255
Mof_H 	H 	0.8344	0.8902	0.667	0.252
Mof_H 	H 	0.7993	0.8836	0.7239	0.232
Mof_C 	C 	0.8812	0.8051	0.7039	0.283
Mof_C 	C 	0.07	0.186	0.7653	0.579
Mof_H 	H 	0.1308	0.171	0.7672	-0.157
Mof_H 	H 	0.0324	0.1482	0.7775	-0.157
Mof_C 	C 	0.026	0.2138	0.713	-1.263
Mof_H 	H 	0.0667	0.2129	0.6849	0.404
Mof_H 	H 	0.9863	0.1751	0.7104	0.34
Mof_H 	H 	0.9925	0.2557	0.7122	0.443
Mof_C 	C 	0.4499	0.8849	0.9793	0.372
Mof_H 	H 	0.4038	0.8501	0.9801	-0.1
Mof_H 	H 	0.4357	0.9195	0.9533	-0.087
Mof_C 	C 	0.5445	0.8511	0.9693	-0.761
Mof_H 	H 	0.5382	0.8026	0.9621	0.23
Mof_H 	H 	0.5734	0.8733	0.9407	0.257
Mof_H 	H 	0.5791	0.8571	0.0001	0.266
Mof_Zn	Zn	0.52963	0.53572	0.5485	1.214
Mof_Zn	Zn	0.57345	0.66147	0.76664	1.188
Mof_N 	N 	0.6397	0.6654	0.6598	-0.319
Mof_N 	N 	0.5803	0.6306	0.69184	-0.314
Mof_N 	N 	0.5737	0.5847	0.61318	-0.343
Mof_N 	N 	0.4607	0.7141	0.784	-0.303
Mof_O 	O 	0.5269	0.4344	0.5711	-0.477
Mof_O 	O 	0.4859	0.3793	0.499	-0.452
Mof_O 	O 	0.645	0.518	0.5091	-0.481
Mof_O 	O 	0.6027	0.4617	0.4384	-0.464
Mof_O 	O 	0.8397	0.3791	0.3177	-0.486
Mof_O 	O 	0.9582	0.4391	0.3098	-0.425
Mof_O 	O 	0.9625	0.5851	0.472	-0.314
Mof_C 	C 	0.6921	0.6558	0.569	-0.861
Mof_H 	H 	0.7392	0.6849	0.5809	0.233
Mof_H 	H 	0.7161	0.6149	0.5533	0.281
Mof_H 	H 	0.6575	0.6806	0.5439	0.271
Mof_C 	C 	0.6351	0.6358	0.6139	0.294
Mof_C 	C 	0.5424	0.5832	0.6621	0.327
Mof_C 	C 	0.4737	0.5342	0.6805	-0.922
Mof_H 	H 	0.4174	0.5567	0.6801	0.285
Mof_H 	H 	0.4721	0.4945	0.658	0.297
Mof_H 	H 	0.4873	0.5196	0.7151	0.283
Mof_C 	C 	0.5106	0.3811	0.5468	0.356
Mof_C 	C 	0.5157	0.3122	0.5741	-0.024
Mof_C 	C 	0.5262	0.3122	0.6267	-0.179
Mof_H 	H 	0.5309	0.3538	0.6447	0.103
Mof_C 	C 	0.8866	0.427	0.3321	0.316
Mof_C 	C 	0.8591	0.4689	0.3786	-0.051
Mof_C 	C 	0.9221	0.5125	0.402	-0.145
Mof_H 	H 	0.9766	0.5197	0.3864	0.091
Mof_C 	C 	0.9013	0.5449	0.4491	0.209
Mof_C 	C 	0.8153	0.5377	0.4689	-0.134
Mof_H 	H 	0.8002	0.5604	0.4995	0.073
Mof_C 	C 	0.7524	0.4974	0.4439	-0.05
Mof_C 	C 	0.7747	0.4625	0.3984	-0.028
Mof_H 	H 	0.7332	0.4353	0.3815	0.046
Mof_C 	C 	0.6599	0.492	0.4663	0.372
Mof_C 	C 	0.35	0.6216	0.798	-0.835
Mof_H 	H 	0.3961	0.5914	0.7862	0.251
Mof_H 	H 	0.3344	0.6098	0.833	0.249
Mof_H 	H 	0.2993	0.6164	0.7761	0.23
Mof_C 	C 	0.3812	0.6949	0.7961	0.28
Mof_C 	C 	0.57	0.314	0.7347	0.626
Mof_H 	H 	0.6308	0.329	0.7328	-0.172
Mof_H 	H 	0.5324	0.3518	0.7225	-0.173
Mof_C 	C 	0.526	0.2862	0.787	-1.361
Mof_H 	H 	0.5667	0.2871	0.8151	0.432
Mof_H 	H 	0.4863	0.3249	0.7896	0.369
Mof_H 	H 	0.4925	0.2443	0.7878	0.478
Mof_C 	C 	0.9499	0.6151	0.5207	0.374
Mof_H 	H 	0.9038	0.6499	0.5199	-0.1
Mof_H 	H 	0.9357	0.5805	0.5467	-0.087
Mof_C 	C 	0.0445	0.6489	0.5307	-0.766
Mof_H 	H 	0.0382	0.6974	0.5379	0.231
Mof_H 	H 	0.0734	0.6267	0.5593	0.258
Mof_H 	H 	0.0791	0.6429	0.4999	0.268
Mof_Zn	Zn	0.97037	0.46428	0.0485	1.214
Mof_Zn	Zn	0.92655	0.33853	0.26664	1.187
Mof_N 	N 	0.8603	0.3346	0.1598	-0.319
Mof_N 	N 	0.9197	0.3694	0.19184	-0.314
Mof_N 	N 	0.9263	0.4153	0.11318	-0.343
Mof_N 	N 	0.0393	0.2859	0.284	-0.302
Mof_O 	O 	0.9731	0.5656	0.0711	-0.478
Mof_O 	O 	0.0141	0.6207	0.999	-0.455
Mof_O 	O 	0.855	0.482	0.0091	-0.481
Mof_O 	O 	0.8973	0.5383	0.9384	-0.463
Mof_O 	O 	0.6603	0.6209	0.8177	-0.485
Mof_O 	O 	0.5418	0.5609	0.8098	-0.425
Mof_O 	O 	0.5375	0.4149	0.972	-0.315
Mof_C 	C 	0.8079	0.3442	0.069	-0.861
Mof_H 	H 	0.7608	0.3151	0.0809	0.233
Mof_H 	H 	0.7839	0.3851	0.0533	0.281
Mof_H 	H 	0.8425	0.3194	0.0439	0.271
Mof_C 	C 	0.8649	0.3642	0.1139	0.293
Mof_C 	C 	0.9576	0.4168	0.1621	0.326
Mof_C 	C 	0.0263	0.4658	0.1805	-0.918
Mof_H 	H 	0.0826	0.4433	0.1801	0.284
Mof_H 	H 	0.0279	0.5055	0.158	0.296
Mof_H 	H 	0.0127	0.4804	0.2151	0.282
Mof_C 	C 	0.9894	0.6189	0.0468	0.361
Mof_C 	C 	0.9843	0.6878	0.0741	-0.032
Mof_C 	C 	0.9738	0.6878	0.1267	-0.169
Mof_H 	H 	0.9691	0.6462	0.1447	0.1
Mof_C 	C 	0.6134	0.573	0.8321	0.316
Mof_C 	C 	0.6409	0.5311	0.8786	-0.051
Mof_C 	C 	0.5779	0.4875	0.902	-0.145
Mof_H 	H 	0.5234	0.4803	0.8864	0.091
Mof_C 	C 	0.5987	0.4551	0.9491	0.208
Mof_C 	C 	0.6847	0.4623	0.9689	-0.134
Mof_H 	H 	0.6998	0.4396	0.9995	0.073
Mof_C 	C 	0.7476	0.5026	0.9439	-0.05
Mof_C 	C 	0.7253	0.5375	0.8984	-0.028
Mof_H 	H 	0.7668	0.5647	0.8815	0.046
Mof_C 	C 	0.8401	0.508	0.9663	0.371
Mof_C 	C 	0.15	0.3784	0.298	-0.836
Mof_H 	H 	0.1039	0.4086	0.2862	0.252
Mof_H 	H 	0.1656	0.3902	0.333	0.25
Mof_H 	H 	0.2007	0.3836	0.2761	0.23
Mof_C 	C 	0.1188	0.3051	0.2961	0.281
Mof_C 	C 	0.93	0.686	0.2347	0.583
Mof_H 	H 	0.8692	0.671	0.2328	-0.159
Mof_H 	H 	0.9676	0.6482	0.2225	-0.16
Mof_C 	C 	0.974	0.7138	0.287	-1.272
Mof_H 	H 	0.9333	0.7129	0.3151	0.406
Mof_H 	H 	0.0137	0.6751	0.2896	0.345
Mof_H 	H 	0.0075	0.7557	0.2878	0.447
Mof_C 	C 	0.5501	0.3849	0.0207	0.37
Mof_H 	H 	0.5962	0.3501	0.0199	-0.1
Mof_H 	H 	0.5643	0.4195	0.0467	-0.087
Mof_C 	C 	0.4555	0.3511	0.0307	-0.761
Mof_H 	H 	0.4618	0.3026	0.0379	0.23
Mof_H 	H 	0.4266	0.3733	0.0593	0.256
Mof_H 	H 	0.4209	0.3571	0.9999	0.266
Mof_Zn	Zn	0.6991	0.75	0.68767	1.17
Mof_N 	N 	0.3292	0.75	0.8057	-0.387
Mof_O 	O 	0.6466	0.75	0.7575	-0.936
Mof_H 	H 	0.6886	0.75	0.7793	0.279
Mof_Zn	Zn	0.8009	0.25	0.18767	1.17
Mof_N 	N 	0.1708	0.25	0.3057	-0.388
Mof_O 	O 	0.8534	0.25	0.2575	-0.937
Mof_H 	H 	0.8114	0.25	0.2793	0.279
Mof_Zn	Zn	0.3009	0.25	0.31233	1.17
Mof_N 	N 	0.6708	0.25	0.1943	-0.387
Mof_O 	O 	0.3534	0.25	0.2425	-0.936
Mof_H 	H 	0.3114	0.25	0.2207	0.279
Mof_Zn	Zn	0.1991	0.75	0.81233	1.17
Mof_N 	N 	0.8292	0.75	0.6943	-0.388
Mof_O 	O 	0.1466	0.75	0.7425	-0.937
Mof_H 	H 	0.1886	0.75	0.7207	0.279
Mof_O 	O 	0.5449	0.25	0.7061	-0.424
Mof_C 	C 	0.5298	0.25	0.6528	0.256
Mof_C 	C 	0.5059	0.25	0.5475	-0.043
Mof_H 	H 	0.4931	0.25	0.5122	0.053
Mof_O 	O 	0.9551	0.75	0.2061	-0.408
Mof_C 	C 	0.9702	0.75	0.1528	0.246
Mof_C 	C 	0.9941	0.75	0.0475	-0.028
Mof_H 	H 	0.0069	0.75	0.0122	0.045
Mof_O 	O 	0.4551	0.75	0.2939	-0.424
Mof_C 	C 	0.4702	0.75	0.3472	0.256
Mof_C 	C 	0.4941	0.75	0.4525	-0.043
Mof_H 	H 	0.5069	0.75	0.4878	0.053
Mof_O 	O 	0.0449	0.25	0.7939	-0.408
Mof_C 	C 	0.0298	0.25	0.8472	0.246
Mof_C 	C 	0.0059	0.25	0.9525	-0.028
Mof_H 	H 	0.9931	0.25	0.9878	0.045
_end
