data_functionalizedCrystal
_audit_creation_method	'EQeq! by Chris Wilmer'
_symmetry_space_group_name_H-M	'P1'
_symmetry_Int_Tables_number	1
_symmetry_cell_setting	triclinic
loop_
_symmetry_equiv_pos_as_xyz
  x,y,z
_cell_length_a	11.0129
_cell_length_b	13.3554
_cell_length_c	15.843
_cell_angle_alpha	114.929
_cell_angle_beta	110.338
_cell_angle_gamma	90
loop_
_atom_site_label
_atom_site_type_symbol
_atom_site_fract_x
_atom_site_fract_y
_atom_site_fract_z
_atom_site_charge
Mof_Pr	Pr	0.4853	0.06861	0.4424	2.03
Mof_Pr	Pr	0.0429	0.93139	0.5576	2.289
Mof_Pr	Pr	0.5429	0.62621	0.5576	2.147
Mof_Pr	Pr	0.9853	0.37379	0.4424	2.032
Mof_Pr	Pr	0.9821	0	-0	1
Mof_Pr	Pr	0.4821	0	-0	1.119
Mof_P 	P 	0.7854	0.0104	0.389	0.339
Mof_P 	P 	0.0258	0.8859	0.1786	0.454
Mof_P 	P 	0.3964	0.9896	0.611	0.537
Mof_P 	P 	0.8472	0.1141	0.8214	0.346
Mof_P 	P 	0.8964	0.6214	0.611	0.429
Mof_P 	P 	0.3472	0.7073	0.8214	0.387
Mof_P 	P 	0.2854	0.3786	0.389	0.444
Mof_P 	P 	0.5258	0.2927	0.1786	0.388
Mof_C 	C 	0.913	0.1345	0.4572	-0.173
Mof_C 	C 	0.0568	0.1528	0.4764	0.308
Mof_C 	C 	0.1276	0.024	0.2534	-0.051
Mof_C 	C 	0.2225	0.0594	0.2144	0.225
Mof_C 	C 	0.4558	0.8655	0.5428	-0.112
Mof_C 	C 	0.5804	0.8472	0.5236	0.255
Mof_C 	C 	0.8742	0.976	0.7466	0.014
Mof_C 	C 	0.0081	0.9406	0.7856	0.357
Mof_C 	C 	0.9558	0.6773	0.5428	-0.146
Mof_C 	C 	0.0804	0.6764	0.5236	0.279
Mof_C 	C 	0.3742	0.7706	0.7466	-0.012
Mof_C 	C 	0.5081	0.845	0.7856	0.303
Mof_C 	C 	0.413	0.3227	0.4572	-0.119
Mof_C 	C 	0.5568	0.3236	0.4764	0.261
Mof_C 	C 	0.6276	0.2294	0.2534	-0.038
Mof_C 	C 	0.7225	0.155	0.2144	0.271
Mof_O 	O 	0.6552	0.0535	0.3816	-0.484
Mof_O 	O 	0.8095	0.934	0.4416	-0.406
Mof_O 	O 	0.7972	0.9441	0.2866	-0.184
Mof_O 	O 	0.8447	0.2229	0.458	-0.259
Mof_O 	O 	0.1196	0.0772	0.4942	-0.411
Mof_O 	O 	0.1092	0.1984	0.438	-0.332
Mof_O 	O 	0.9661	0.8654	0.2452	-0.248
Mof_O 	O 	0.1175	0.801	0.1504	-0.248
Mof_O 	O 	0.9186	0.8798	0.0826	-0.367
Mof_O 	O 	0.2154	0.0256	0.3446	-0.265
Mof_O 	O 	0.3391	0.0859	0.2848	-0.393
Mof_O 	O 	0.2175	0.9778	0.1324	-0.291
Mof_O 	O 	0.2736	0.9465	0.6184	-0.484
Mof_O 	O 	0.3679	0.066	0.5584	-0.479
Mof_O 	O 	0.5106	0.0559	0.7134	-0.276
Mof_O 	O 	0.3867	0.7771	0.542	-0.271
Mof_O 	O 	0.6254	0.9228	0.5058	-0.345
Mof_O 	O 	0.6712	0.8016	0.562	-0.337
Mof_O 	O 	0.7209	0.1346	0.7548	-0.222
Mof_O 	O 	0.9671	0.199	0.8496	-0.222
Mof_O 	O 	0.836	0.1202	0.9174	-0.285
Mof_O 	O 	0.8708	0.9744	0.6554	-0.255
Mof_O 	O 	0.0543	0.9141	0.7152	-0.397
Mof_O 	O 	0.0851	0.0222	0.8676	-0.335
Mof_O 	O 	0.7736	0.6719	0.6184	-0.476
Mof_O 	O 	0.8679	0.4924	0.5584	-0.436
Mof_O 	O 	0.0106	0.6575	0.7134	-0.194
Mof_O 	O 	0.8867	0.7649	0.542	-0.286
Mof_O 	O 	0.1254	0.583	0.5058	-0.366
Mof_O 	O 	0.1712	0.7604	0.562	-0.348
Mof_O 	O 	0.2209	0.6202	0.7548	-0.202
Mof_O 	O 	0.4671	0.6506	0.8496	-0.196
Mof_O 	O 	0.336	0.7972	0.9174	-0.264
Mof_O 	O 	0.3708	0.681	0.6554	-0.257
Mof_O 	O 	0.5543	0.8011	0.7152	-0.385
Mof_O 	O 	0.5851	0.8454	0.8676	-0.29
Mof_O 	O 	0.1552	0.3281	0.3816	-0.46
Mof_O 	O 	0.3095	0.5076	0.4416	-0.443
Mof_O 	O 	0.2972	0.3425	0.2866	-0.244
Mof_O 	O 	0.3447	0.2351	0.458	-0.258
Mof_O 	O 	0.6196	0.417	0.4942	-0.378
Mof_O 	O 	0.6092	0.2396	0.438	-0.335
Mof_O 	O 	0.4661	0.3798	0.2452	-0.235
Mof_O 	O 	0.6175	0.3494	0.1504	-0.267
Mof_O 	O 	0.4186	0.2028	0.0826	-0.39
Mof_O 	O 	0.7154	0.319	0.3446	-0.251
Mof_O 	O 	0.8391	0.1989	0.2848	-0.408
Mof_O 	O 	0.7175	0.1546	0.1324	-0.398
_end
