data_functionalizedCrystal
_audit_creation_method	'EQeq! by Chris Wilmer'
_symmetry_space_group_name_H-M	'P1'
_symmetry_Int_Tables_number	1
_symmetry_cell_setting	triclinic
loop_
_symmetry_equiv_pos_as_xyz
  x,y,z
_cell_length_a	15.416
_cell_length_b	28.6414
_cell_length_c	36.813
_cell_angle_alpha	90
_cell_angle_beta	90
_cell_angle_gamma	90
loop_
_atom_site_label
_atom_site_type_symbol
_atom_site_fract_x
_atom_site_fract_y
_atom_site_fract_z
_atom_site_charge
Mof_Cd	Cd	0.46182	0.25811	0.55221	0.366
Mof_O 	O 	0.37024	0.31562	0.52038	-0.265
Mof_O 	O 	0.50922	0.316	0.50994	-0.279
Mof_C 	C 	0.4331	0.32948	0.50289	0.282
Mof_C 	C 	0.4181	0.36334	0.47186	0.014
Mof_C 	C 	0.4834	0.3667	0.4486	-0.237
Mof_H 	H 	0.4787	0.3861	0.4284	0.117
Mof_H 	H 	0.5339	0.3496	0.4524	0.12
Mof_N 	N 	0.32518	0.23934	0.57763	-0.154
Mof_C 	C 	0.321	0.22562	0.61229	0.075
Mof_H 	H 	0.3724	0.2176	0.624	-0.003
Mof_C 	C 	0.2447	0.22274	0.63165	-0.141
Mof_H 	H 	0.2455	0.2133	0.6558	0.079
Mof_C 	C 	0.16646	0.23403	0.61489	0.057
Mof_C 	C 	0.1708	0.24691	0.57864	-0.135
Mof_H 	H 	0.1202	0.2536	0.5659	0.086
Mof_C 	C 	0.2502	0.24986	0.56147	0.078
Mof_H 	H 	0.2515	0.2597	0.5374	0.025
Mof_N 	N 	0.4594	0.2089	0.50108	-0.159
Mof_N 	N 	0.50856	0.05865	0.35038	-0.158
Mof_C 	C 	0.4102	0.14301	0.46699	-0.147
Mof_H 	H 	0.3706	0.1187	0.4646	0.098
Mof_C 	C 	0.4045	0.17388	0.49557	0.084
Mof_H 	H 	0.3593	0.17	0.512	0.01
Mof_C 	C 	0.52384	0.21396	0.47705	0.075
Mof_H 	H 	0.5634	0.2381	0.4805	0.008
Mof_C 	C 	0.53405	0.18519	0.44766	-0.144
Mof_H 	H 	0.5798	0.19	0.4316	0.081
Mof_C 	C 	0.4761	0.14885	0.44185	0.063
Mof_C 	C 	0.48508	0.11783	0.40984	0.055
Mof_C 	C 	0.4695	0.07013	0.41262	-0.137
Mof_H 	H 	0.4508	0.0571	0.4344	0.076
Mof_C 	C 	0.4824	0.0425	0.38249	0.078
Mof_H 	H 	0.4722	0.0106	0.3847	-0.008
Mof_C 	C 	0.5211	0.10432	0.34747	0.077
Mof_H 	H 	0.5379	0.1163	0.3251	0.023
Mof_C 	C 	0.51042	0.1349	0.37623	-0.131
Mof_H 	H 	0.5202	0.1667	0.373	0.085
Mof_Cd	Cd	0.46182	0.75811	0.05221	0.365
Mof_O 	O 	0.37024	0.81562	0.02038	-0.266
Mof_O 	O 	0.50922	0.816	0.00994	-0.28
Mof_C 	C 	0.4331	0.82948	0.00289	0.281
Mof_C 	C 	0.4181	0.86334	0.97186	0.013
Mof_C 	C 	0.4834	0.8667	0.9486	-0.238
Mof_H 	H 	0.4787	0.8861	0.9284	0.116
Mof_H 	H 	0.5339	0.8496	0.9524	0.119
Mof_N 	N 	0.32518	0.73934	0.07763	-0.155
Mof_C 	C 	0.321	0.72562	0.11229	0.074
Mof_H 	H 	0.3724	0.7176	0.124	-0.004
Mof_C 	C 	0.2447	0.72274	0.13165	-0.142
Mof_H 	H 	0.2455	0.7133	0.1558	0.078
Mof_C 	C 	0.16646	0.73403	0.11489	0.056
Mof_C 	C 	0.1708	0.74691	0.07864	-0.135
Mof_H 	H 	0.1202	0.7536	0.0659	0.086
Mof_C 	C 	0.2502	0.74986	0.06147	0.078
Mof_H 	H 	0.2515	0.7597	0.0374	0.025
Mof_N 	N 	0.4594	0.7089	0.00108	-0.159
Mof_N 	N 	0.50856	0.55865	0.85038	-0.158
Mof_C 	C 	0.4102	0.64301	0.96699	-0.147
Mof_H 	H 	0.3706	0.6187	0.9646	0.098
Mof_C 	C 	0.4045	0.67388	0.99557	0.084
Mof_H 	H 	0.3593	0.67	0.012	0.009
Mof_C 	C 	0.52384	0.71396	0.97705	0.075
Mof_H 	H 	0.5634	0.7381	0.9805	0.008
Mof_C 	C 	0.53405	0.68519	0.94766	-0.144
Mof_H 	H 	0.5798	0.69	0.9316	0.081
Mof_C 	C 	0.4761	0.64885	0.94185	0.064
Mof_C 	C 	0.48508	0.61783	0.90984	0.055
Mof_C 	C 	0.4695	0.57013	0.91262	-0.137
Mof_H 	H 	0.4508	0.5571	0.9344	0.076
Mof_C 	C 	0.4824	0.5425	0.88249	0.078
Mof_H 	H 	0.4722	0.5106	0.8847	-0.008
Mof_C 	C 	0.5211	0.60432	0.84747	0.077
Mof_H 	H 	0.5379	0.6163	0.8251	0.023
Mof_C 	C 	0.51042	0.6349	0.87623	-0.131
Mof_H 	H 	0.5202	0.6667	0.873	0.085
Mof_Cd	Cd	0.96182	0.25811	0.05221	0.365
Mof_O 	O 	0.87024	0.31562	0.02038	-0.266
Mof_O 	O 	0.00922	0.316	0.00994	-0.28
Mof_C 	C 	0.9331	0.32948	0.00289	0.281
Mof_C 	C 	0.9181	0.36334	0.97186	0.013
Mof_C 	C 	0.9834	0.3667	0.9486	-0.238
Mof_H 	H 	0.9787	0.3861	0.9284	0.116
Mof_H 	H 	0.0339	0.3496	0.9524	0.119
Mof_N 	N 	0.82518	0.23934	0.07763	-0.155
Mof_C 	C 	0.821	0.22562	0.11229	0.074
Mof_H 	H 	0.8724	0.2176	0.124	-0.004
Mof_C 	C 	0.7447	0.22274	0.13165	-0.142
Mof_H 	H 	0.7455	0.2133	0.1558	0.078
Mof_C 	C 	0.66646	0.23403	0.11489	0.056
Mof_C 	C 	0.6708	0.24691	0.07864	-0.135
Mof_H 	H 	0.6202	0.2536	0.0659	0.086
Mof_C 	C 	0.7502	0.24986	0.06147	0.078
Mof_H 	H 	0.7515	0.2597	0.0374	0.025
Mof_N 	N 	0.9594	0.2089	0.00108	-0.159
Mof_N 	N 	0.00856	0.05865	0.85038	-0.158
Mof_C 	C 	0.9102	0.14301	0.96699	-0.147
Mof_H 	H 	0.8706	0.1187	0.9646	0.098
Mof_C 	C 	0.9045	0.17388	0.99557	0.084
Mof_H 	H 	0.8593	0.17	0.012	0.009
Mof_C 	C 	0.02384	0.21396	0.97705	0.075
Mof_H 	H 	0.0634	0.2381	0.9805	0.008
Mof_C 	C 	0.03405	0.18519	0.94766	-0.144
Mof_H 	H 	0.0798	0.19	0.9316	0.081
Mof_C 	C 	0.9761	0.14885	0.94185	0.064
Mof_C 	C 	0.98508	0.11783	0.90984	0.056
Mof_C 	C 	0.9695	0.07013	0.91262	-0.137
Mof_H 	H 	0.9508	0.0571	0.9344	0.076
Mof_C 	C 	0.9824	0.0425	0.88249	0.079
Mof_H 	H 	0.9722	0.0106	0.8847	-0.008
Mof_C 	C 	0.0211	0.10432	0.84747	0.077
Mof_H 	H 	0.0379	0.1163	0.8251	0.023
Mof_C 	C 	0.01042	0.1349	0.87623	-0.132
Mof_H 	H 	0.0202	0.1667	0.873	0.085
Mof_Cd	Cd	0.96182	0.75811	0.55221	0.365
Mof_O 	O 	0.87024	0.81562	0.52038	-0.266
Mof_O 	O 	0.00922	0.816	0.50994	-0.28
Mof_C 	C 	0.9331	0.82948	0.50289	0.281
Mof_C 	C 	0.9181	0.86334	0.47186	0.014
Mof_C 	C 	0.9834	0.8667	0.4486	-0.239
Mof_H 	H 	0.9787	0.8861	0.4284	0.116
Mof_H 	H 	0.0339	0.8496	0.4524	0.119
Mof_N 	N 	0.82518	0.73934	0.57763	-0.155
Mof_C 	C 	0.821	0.72562	0.61229	0.074
Mof_H 	H 	0.8724	0.7176	0.624	-0.004
Mof_C 	C 	0.7447	0.72274	0.63165	-0.142
Mof_H 	H 	0.7455	0.7133	0.6558	0.078
Mof_C 	C 	0.66646	0.73403	0.61489	0.056
Mof_C 	C 	0.6708	0.74691	0.57864	-0.135
Mof_H 	H 	0.6202	0.7536	0.5659	0.086
Mof_C 	C 	0.7502	0.74986	0.56147	0.078
Mof_H 	H 	0.7515	0.7597	0.5374	0.025
Mof_N 	N 	0.9594	0.7089	0.50108	-0.159
Mof_N 	N 	0.00856	0.55865	0.35038	-0.158
Mof_C 	C 	0.9102	0.64301	0.46699	-0.147
Mof_H 	H 	0.8706	0.6187	0.4646	0.098
Mof_C 	C 	0.9045	0.67388	0.49557	0.083
Mof_H 	H 	0.8593	0.67	0.512	0.01
Mof_C 	C 	0.02384	0.71396	0.47705	0.075
Mof_H 	H 	0.0634	0.7381	0.4805	0.008
Mof_C 	C 	0.03405	0.68519	0.44766	-0.144
Mof_H 	H 	0.0798	0.69	0.4316	0.081
Mof_C 	C 	0.9761	0.64885	0.44185	0.063
Mof_C 	C 	0.98508	0.61783	0.40984	0.055
Mof_C 	C 	0.9695	0.57013	0.41262	-0.137
Mof_H 	H 	0.9508	0.5571	0.4344	0.076
Mof_C 	C 	0.9824	0.5425	0.38249	0.078
Mof_H 	H 	0.9722	0.5106	0.3847	-0.008
Mof_C 	C 	0.0211	0.60432	0.34747	0.077
Mof_H 	H 	0.0379	0.6163	0.3251	0.023
Mof_C 	C 	0.01042	0.6349	0.37623	-0.131
Mof_H 	H 	0.0202	0.6667	0.373	0.085
Mof_Cd	Cd	0.28818	0.49189	0.55221	0.365
Mof_O 	O 	0.37976	0.43438	0.52038	-0.266
Mof_O 	O 	0.24078	0.434	0.50994	-0.28
Mof_C 	C 	0.3169	0.42052	0.50289	0.281
Mof_C 	C 	0.3319	0.38666	0.47186	0.013
Mof_C 	C 	0.2666	0.3833	0.4486	-0.238
Mof_H 	H 	0.2713	0.3639	0.4284	0.116
Mof_H 	H 	0.2161	0.4004	0.4524	0.119
Mof_N 	N 	0.42482	0.51066	0.57763	-0.155
Mof_C 	C 	0.429	0.52438	0.61229	0.074
Mof_H 	H 	0.3776	0.5324	0.624	-0.004
Mof_C 	C 	0.5053	0.52726	0.63165	-0.142
Mof_H 	H 	0.5045	0.5367	0.6558	0.078
Mof_C 	C 	0.58354	0.51597	0.61489	0.056
Mof_C 	C 	0.5792	0.50309	0.57864	-0.135
Mof_H 	H 	0.6298	0.4964	0.5659	0.086
Mof_C 	C 	0.4998	0.50014	0.56147	0.078
Mof_H 	H 	0.4985	0.4903	0.5374	0.025
Mof_N 	N 	0.2906	0.5411	0.50108	-0.159
Mof_N 	N 	0.24144	0.69135	0.35038	-0.158
Mof_C 	C 	0.3398	0.60699	0.46699	-0.147
Mof_H 	H 	0.3794	0.6313	0.4646	0.098
Mof_C 	C 	0.3455	0.57612	0.49557	0.084
Mof_H 	H 	0.3907	0.58	0.512	0.01
Mof_C 	C 	0.22616	0.53604	0.47705	0.075
Mof_H 	H 	0.1866	0.5119	0.4805	0.008
Mof_C 	C 	0.21595	0.56481	0.44766	-0.144
Mof_H 	H 	0.1702	0.56	0.4316	0.081
Mof_C 	C 	0.2739	0.60115	0.44185	0.063
Mof_C 	C 	0.26492	0.63217	0.40984	0.055
Mof_C 	C 	0.2805	0.67987	0.41262	-0.137
Mof_H 	H 	0.2992	0.6929	0.4344	0.076
Mof_C 	C 	0.2676	0.7075	0.38249	0.078
Mof_H 	H 	0.2778	0.7394	0.3847	-0.008
Mof_C 	C 	0.2289	0.64568	0.34747	0.077
Mof_H 	H 	0.2121	0.6337	0.3251	0.023
Mof_C 	C 	0.23958	0.6151	0.37623	-0.131
Mof_H 	H 	0.2298	0.5833	0.373	0.085
Mof_Cd	Cd	0.28818	0.99189	0.05221	0.365
Mof_O 	O 	0.37976	0.93438	0.02038	-0.266
Mof_O 	O 	0.24078	0.934	0.00994	-0.28
Mof_C 	C 	0.3169	0.92052	0.00289	0.281
Mof_C 	C 	0.3319	0.88666	0.97186	0.013
Mof_C 	C 	0.2666	0.8833	0.9486	-0.238
Mof_H 	H 	0.2713	0.8639	0.9284	0.116
Mof_H 	H 	0.2161	0.9004	0.9524	0.119
Mof_N 	N 	0.42482	0.01066	0.07763	-0.155
Mof_C 	C 	0.429	0.02438	0.11229	0.074
Mof_H 	H 	0.3776	0.0324	0.124	-0.004
Mof_C 	C 	0.5053	0.02726	0.13165	-0.142
Mof_H 	H 	0.5045	0.0367	0.1558	0.078
Mof_C 	C 	0.58354	0.01597	0.11489	0.056
Mof_C 	C 	0.5792	0.00309	0.07864	-0.135
Mof_H 	H 	0.6298	0.9964	0.0659	0.086
Mof_C 	C 	0.4998	0.00014	0.06147	0.079
Mof_H 	H 	0.4985	0.9903	0.0374	0.025
Mof_N 	N 	0.2906	0.0411	0.00108	-0.159
Mof_N 	N 	0.24144	0.19135	0.85038	-0.158
Mof_C 	C 	0.3398	0.10699	0.96699	-0.147
Mof_H 	H 	0.3794	0.1313	0.9646	0.097
Mof_C 	C 	0.3455	0.07612	0.99557	0.083
Mof_H 	H 	0.3907	0.08	0.012	0.01
Mof_C 	C 	0.22616	0.03604	0.97705	0.075
Mof_H 	H 	0.1866	0.0119	0.9805	0.008
Mof_C 	C 	0.21595	0.06481	0.94766	-0.143
Mof_H 	H 	0.1702	0.06	0.9316	0.081
Mof_C 	C 	0.2739	0.10115	0.94185	0.063
Mof_C 	C 	0.26492	0.13217	0.90984	0.056
Mof_C 	C 	0.2805	0.17987	0.91262	-0.137
Mof_H 	H 	0.2992	0.1929	0.9344	0.076
Mof_C 	C 	0.2676	0.2075	0.88249	0.078
Mof_H 	H 	0.2778	0.2394	0.8847	-0.008
Mof_C 	C 	0.2289	0.14568	0.84747	0.077
Mof_H 	H 	0.2121	0.1337	0.8251	0.023
Mof_C 	C 	0.23958	0.1151	0.87623	-0.131
Mof_H 	H 	0.2298	0.0833	0.873	0.085
Mof_Cd	Cd	0.78818	0.49189	0.05221	0.365
Mof_O 	O 	0.87976	0.43438	0.02038	-0.266
Mof_O 	O 	0.74078	0.434	0.00994	-0.28
Mof_C 	C 	0.8169	0.42052	0.00289	0.281
Mof_C 	C 	0.8319	0.38666	0.97186	0.013
Mof_C 	C 	0.7666	0.3833	0.9486	-0.239
Mof_H 	H 	0.7713	0.3639	0.9284	0.116
Mof_H 	H 	0.7161	0.4004	0.9524	0.119
Mof_N 	N 	0.92482	0.51066	0.07763	-0.155
Mof_C 	C 	0.929	0.52438	0.11229	0.073
Mof_H 	H 	0.8776	0.5324	0.124	-0.004
Mof_C 	C 	0.0053	0.52726	0.13165	-0.141
Mof_H 	H 	0.0045	0.5367	0.1558	0.078
Mof_C 	C 	0.08354	0.51597	0.11489	0.056
Mof_C 	C 	0.0792	0.50309	0.07864	-0.135
Mof_H 	H 	0.1298	0.4964	0.0659	0.086
Mof_C 	C 	0.9998	0.50014	0.06147	0.078
Mof_H 	H 	0.9985	0.4903	0.0374	0.025
Mof_N 	N 	0.7906	0.5411	0.00108	-0.159
Mof_N 	N 	0.74144	0.69135	0.85038	-0.158
Mof_C 	C 	0.8398	0.60699	0.96699	-0.148
Mof_H 	H 	0.8794	0.6313	0.9646	0.098
Mof_C 	C 	0.8455	0.57612	0.99557	0.084
Mof_H 	H 	0.8907	0.58	0.012	0.009
Mof_C 	C 	0.72616	0.53604	0.97705	0.075
Mof_H 	H 	0.6866	0.5119	0.9805	0.008
Mof_C 	C 	0.71595	0.56481	0.94766	-0.144
Mof_H 	H 	0.6702	0.56	0.9316	0.081
Mof_C 	C 	0.7739	0.60115	0.94185	0.064
Mof_C 	C 	0.76492	0.63217	0.90984	0.055
Mof_C 	C 	0.7805	0.67987	0.91262	-0.137
Mof_H 	H 	0.7992	0.6929	0.9344	0.076
Mof_C 	C 	0.7676	0.7075	0.88249	0.078
Mof_H 	H 	0.7778	0.7394	0.8847	-0.008
Mof_C 	C 	0.7289	0.64568	0.84747	0.077
Mof_H 	H 	0.7121	0.6337	0.8251	0.023
Mof_C 	C 	0.73958	0.6151	0.87623	-0.131
Mof_H 	H 	0.7298	0.5833	0.873	0.085
Mof_Cd	Cd	0.78818	0.99189	0.55221	0.365
Mof_O 	O 	0.87976	0.93438	0.52038	-0.267
Mof_O 	O 	0.74078	0.934	0.50994	-0.28
Mof_C 	C 	0.8169	0.92052	0.50289	0.281
Mof_C 	C 	0.8319	0.88666	0.47186	0.013
Mof_C 	C 	0.7666	0.8833	0.4486	-0.238
Mof_H 	H 	0.7713	0.8639	0.4284	0.116
Mof_H 	H 	0.7161	0.9004	0.4524	0.119
Mof_N 	N 	0.92482	0.01066	0.57763	-0.155
Mof_C 	C 	0.929	0.02438	0.61229	0.074
Mof_H 	H 	0.8776	0.0324	0.624	-0.004
Mof_C 	C 	0.0053	0.02726	0.63165	-0.142
Mof_H 	H 	0.0045	0.0367	0.6558	0.078
Mof_C 	C 	0.08354	0.01597	0.61489	0.056
Mof_C 	C 	0.0792	0.00309	0.57864	-0.136
Mof_H 	H 	0.1298	0.9964	0.5659	0.087
Mof_C 	C 	0.9998	0.00014	0.56147	0.079
Mof_H 	H 	0.9985	0.9903	0.5374	0.024
Mof_N 	N 	0.7906	0.0411	0.50108	-0.159
Mof_N 	N 	0.74144	0.19135	0.35038	-0.158
Mof_C 	C 	0.8398	0.10699	0.46699	-0.147
Mof_H 	H 	0.8794	0.1313	0.4646	0.098
Mof_C 	C 	0.8455	0.07612	0.49557	0.084
Mof_H 	H 	0.8907	0.08	0.512	0.01
Mof_C 	C 	0.72616	0.03604	0.47705	0.075
Mof_H 	H 	0.6866	0.0119	0.4805	0.008
Mof_C 	C 	0.71595	0.06481	0.44766	-0.144
Mof_H 	H 	0.6702	0.06	0.4316	0.081
Mof_C 	C 	0.7739	0.10115	0.44185	0.063
Mof_C 	C 	0.76492	0.13217	0.40984	0.055
Mof_C 	C 	0.7805	0.17987	0.41262	-0.137
Mof_H 	H 	0.7992	0.1929	0.4344	0.076
Mof_C 	C 	0.7676	0.2075	0.38249	0.078
Mof_H 	H 	0.7778	0.2394	0.3847	-0.008
Mof_C 	C 	0.7289	0.14568	0.34747	0.077
Mof_H 	H 	0.7121	0.1337	0.3251	0.023
Mof_C 	C 	0.73958	0.1151	0.37623	-0.131
Mof_H 	H 	0.7298	0.0833	0.373	0.085
Mof_Cd	Cd	0.28818	0.25811	0.19779	0.365
Mof_O 	O 	0.37976	0.31562	0.22962	-0.266
Mof_O 	O 	0.24078	0.316	0.24006	-0.28
Mof_C 	C 	0.3169	0.32948	0.24711	0.281
Mof_C 	C 	0.3319	0.36334	0.27814	0.013
Mof_C 	C 	0.2666	0.3667	0.3014	-0.238
Mof_H 	H 	0.2713	0.3861	0.3216	0.116
Mof_H 	H 	0.2161	0.3496	0.2976	0.119
Mof_N 	N 	0.42482	0.23934	0.17237	-0.155
Mof_C 	C 	0.429	0.22562	0.13771	0.074
Mof_H 	H 	0.3776	0.2176	0.126	-0.004
Mof_C 	C 	0.5053	0.22274	0.11835	-0.142
Mof_H 	H 	0.5045	0.2133	0.0942	0.078
Mof_C 	C 	0.58354	0.23403	0.13511	0.056
Mof_C 	C 	0.5792	0.24691	0.17136	-0.135
Mof_H 	H 	0.6298	0.2536	0.1841	0.086
Mof_C 	C 	0.4998	0.24986	0.18853	0.078
Mof_H 	H 	0.4985	0.2597	0.2126	0.025
Mof_N 	N 	0.2906	0.2089	0.24892	-0.159
Mof_N 	N 	0.24144	0.05865	0.39962	-0.158
Mof_C 	C 	0.3398	0.14301	0.28301	-0.147
Mof_H 	H 	0.3794	0.1187	0.2854	0.098
Mof_C 	C 	0.3455	0.17388	0.25443	0.084
Mof_H 	H 	0.3907	0.17	0.238	0.01
Mof_C 	C 	0.22616	0.21396	0.27295	0.075
Mof_H 	H 	0.1866	0.2381	0.2695	0.008
Mof_C 	C 	0.21595	0.18519	0.30234	-0.144
Mof_H 	H 	0.1702	0.19	0.3184	0.081
Mof_C 	C 	0.2739	0.14885	0.30815	0.063
Mof_C 	C 	0.26492	0.11783	0.34016	0.055
Mof_C 	C 	0.2805	0.07013	0.33738	-0.137
Mof_H 	H 	0.2992	0.0571	0.3156	0.076
Mof_C 	C 	0.2676	0.0425	0.36751	0.078
Mof_H 	H 	0.2778	0.0106	0.3653	-0.008
Mof_C 	C 	0.2289	0.10432	0.40253	0.077
Mof_H 	H 	0.2121	0.1163	0.4249	0.023
Mof_C 	C 	0.23958	0.1349	0.37377	-0.131
Mof_H 	H 	0.2298	0.1667	0.377	0.085
Mof_Cd	Cd	0.28818	0.75811	0.69779	0.365
Mof_O 	O 	0.37976	0.81562	0.72962	-0.266
Mof_O 	O 	0.24078	0.816	0.74006	-0.28
Mof_C 	C 	0.3169	0.82948	0.74711	0.281
Mof_C 	C 	0.3319	0.86334	0.77814	0.013
Mof_C 	C 	0.2666	0.8667	0.8014	-0.238
Mof_H 	H 	0.2713	0.8861	0.8216	0.116
Mof_H 	H 	0.2161	0.8496	0.7976	0.119
Mof_N 	N 	0.42482	0.73934	0.67237	-0.155
Mof_C 	C 	0.429	0.72562	0.63771	0.074
Mof_H 	H 	0.3776	0.7176	0.626	-0.004
Mof_C 	C 	0.5053	0.72274	0.61835	-0.142
Mof_H 	H 	0.5045	0.7133	0.5942	0.078
Mof_C 	C 	0.58354	0.73403	0.63511	0.056
Mof_C 	C 	0.5792	0.74691	0.67136	-0.135
Mof_H 	H 	0.6298	0.7536	0.6841	0.086
Mof_C 	C 	0.4998	0.74986	0.68853	0.078
Mof_H 	H 	0.4985	0.7597	0.7126	0.025
Mof_N 	N 	0.2906	0.7089	0.74892	-0.159
Mof_N 	N 	0.24144	0.55865	0.89962	-0.158
Mof_C 	C 	0.3398	0.64301	0.78301	-0.147
Mof_H 	H 	0.3794	0.6187	0.7854	0.098
Mof_C 	C 	0.3455	0.67388	0.75443	0.083
Mof_H 	H 	0.3907	0.67	0.738	0.01
Mof_C 	C 	0.22616	0.71396	0.77295	0.075
Mof_H 	H 	0.1866	0.7381	0.7695	0.008
Mof_C 	C 	0.21595	0.68519	0.80234	-0.144
Mof_H 	H 	0.1702	0.69	0.8184	0.081
Mof_C 	C 	0.2739	0.64885	0.80815	0.063
Mof_C 	C 	0.26492	0.61783	0.84016	0.055
Mof_C 	C 	0.2805	0.57013	0.83738	-0.137
Mof_H 	H 	0.2992	0.5571	0.8156	0.076
Mof_C 	C 	0.2676	0.5425	0.86751	0.078
Mof_H 	H 	0.2778	0.5106	0.8653	-0.008
Mof_C 	C 	0.2289	0.60432	0.90253	0.077
Mof_H 	H 	0.2121	0.6163	0.9249	0.023
Mof_C 	C 	0.23958	0.6349	0.87377	-0.131
Mof_H 	H 	0.2298	0.6667	0.877	0.085
Mof_Cd	Cd	0.78818	0.25811	0.69779	0.365
Mof_O 	O 	0.87976	0.31562	0.72962	-0.266
Mof_O 	O 	0.74078	0.316	0.74006	-0.28
Mof_C 	C 	0.8169	0.32948	0.74711	0.281
Mof_C 	C 	0.8319	0.36334	0.77814	0.013
Mof_C 	C 	0.7666	0.3667	0.8014	-0.239
Mof_H 	H 	0.7713	0.3861	0.8216	0.116
Mof_H 	H 	0.7161	0.3496	0.7976	0.119
Mof_N 	N 	0.92482	0.23934	0.67237	-0.155
Mof_C 	C 	0.929	0.22562	0.63771	0.074
Mof_H 	H 	0.8776	0.2176	0.626	-0.004
Mof_C 	C 	0.0053	0.22274	0.61835	-0.142
Mof_H 	H 	0.0045	0.2133	0.5942	0.078
Mof_C 	C 	0.08354	0.23403	0.63511	0.056
Mof_C 	C 	0.0792	0.24691	0.67136	-0.135
Mof_H 	H 	0.1298	0.2536	0.6841	0.086
Mof_C 	C 	0.9998	0.24986	0.68853	0.079
Mof_H 	H 	0.9985	0.2597	0.7126	0.025
Mof_N 	N 	0.7906	0.2089	0.74892	-0.159
Mof_N 	N 	0.74144	0.05865	0.89962	-0.158
Mof_C 	C 	0.8398	0.14301	0.78301	-0.147
Mof_H 	H 	0.8794	0.1187	0.7854	0.098
Mof_C 	C 	0.8455	0.17388	0.75443	0.084
Mof_H 	H 	0.8907	0.17	0.738	0.01
Mof_C 	C 	0.72616	0.21396	0.77295	0.075
Mof_H 	H 	0.6866	0.2381	0.7695	0.008
Mof_C 	C 	0.71595	0.18519	0.80234	-0.144
Mof_H 	H 	0.6702	0.19	0.8184	0.081
Mof_C 	C 	0.7739	0.14885	0.80815	0.063
Mof_C 	C 	0.76492	0.11783	0.84016	0.055
Mof_C 	C 	0.7805	0.07013	0.83738	-0.137
Mof_H 	H 	0.7992	0.0571	0.8156	0.076
Mof_C 	C 	0.7676	0.0425	0.86751	0.078
Mof_H 	H 	0.7778	0.0106	0.8653	-0.008
Mof_C 	C 	0.7289	0.10432	0.90253	0.077
Mof_H 	H 	0.7121	0.1163	0.9249	0.023
Mof_C 	C 	0.73958	0.1349	0.87377	-0.131
Mof_H 	H 	0.7298	0.1667	0.877	0.085
Mof_Cd	Cd	0.78818	0.75811	0.19779	0.365
Mof_O 	O 	0.87976	0.81562	0.22962	-0.267
Mof_O 	O 	0.74078	0.816	0.24006	-0.28
Mof_C 	C 	0.8169	0.82948	0.24711	0.281
Mof_C 	C 	0.8319	0.86334	0.27814	0.013
Mof_C 	C 	0.7666	0.8667	0.3014	-0.238
Mof_H 	H 	0.7713	0.8861	0.3216	0.116
Mof_H 	H 	0.7161	0.8496	0.2976	0.119
Mof_N 	N 	0.92482	0.73934	0.17237	-0.155
Mof_C 	C 	0.929	0.72562	0.13771	0.073
Mof_H 	H 	0.8776	0.7176	0.126	-0.004
Mof_C 	C 	0.0053	0.72274	0.11835	-0.141
Mof_H 	H 	0.0045	0.7133	0.0942	0.078
Mof_C 	C 	0.08354	0.73403	0.13511	0.055
Mof_C 	C 	0.0792	0.74691	0.17136	-0.135
Mof_H 	H 	0.1298	0.7536	0.1841	0.086
Mof_C 	C 	0.9998	0.74986	0.18853	0.078
Mof_H 	H 	0.9985	0.7597	0.2126	0.025
Mof_N 	N 	0.7906	0.7089	0.24892	-0.159
Mof_N 	N 	0.74144	0.55865	0.39962	-0.158
Mof_C 	C 	0.8398	0.64301	0.28301	-0.147
Mof_H 	H 	0.8794	0.6187	0.2854	0.098
Mof_C 	C 	0.8455	0.67388	0.25443	0.084
Mof_H 	H 	0.8907	0.67	0.238	0.009
Mof_C 	C 	0.72616	0.71396	0.27295	0.075
Mof_H 	H 	0.6866	0.7381	0.2695	0.008
Mof_C 	C 	0.71595	0.68519	0.30234	-0.144
Mof_H 	H 	0.6702	0.69	0.3184	0.081
Mof_C 	C 	0.7739	0.64885	0.30815	0.063
Mof_C 	C 	0.76492	0.61783	0.34016	0.055
Mof_C 	C 	0.7805	0.57013	0.33738	-0.137
Mof_H 	H 	0.7992	0.5571	0.3156	0.076
Mof_C 	C 	0.7676	0.5425	0.36751	0.078
Mof_H 	H 	0.7778	0.5106	0.3653	-0.008
Mof_C 	C 	0.7289	0.60432	0.40253	0.077
Mof_H 	H 	0.7121	0.6163	0.4249	0.023
Mof_C 	C 	0.73958	0.6349	0.37377	-0.131
Mof_H 	H 	0.7298	0.6667	0.377	0.085
Mof_Cd	Cd	0.46182	0.49189	0.19779	0.365
Mof_O 	O 	0.37024	0.43438	0.22962	-0.266
Mof_O 	O 	0.50922	0.434	0.24006	-0.28
Mof_C 	C 	0.4331	0.42052	0.24711	0.281
Mof_C 	C 	0.4181	0.38666	0.27814	0.013
Mof_C 	C 	0.4834	0.3833	0.3014	-0.238
Mof_H 	H 	0.4787	0.3639	0.3216	0.116
Mof_H 	H 	0.5339	0.4004	0.2976	0.119
Mof_N 	N 	0.32518	0.51066	0.17237	-0.155
Mof_C 	C 	0.321	0.52438	0.13771	0.074
Mof_H 	H 	0.3724	0.5324	0.126	-0.004
Mof_C 	C 	0.2447	0.52726	0.11835	-0.142
Mof_H 	H 	0.2455	0.5367	0.0942	0.078
Mof_C 	C 	0.16646	0.51597	0.13511	0.056
Mof_C 	C 	0.1708	0.50309	0.17136	-0.135
Mof_H 	H 	0.1202	0.4964	0.1841	0.086
Mof_C 	C 	0.2502	0.50014	0.18853	0.078
Mof_H 	H 	0.2515	0.4903	0.2126	0.025
Mof_N 	N 	0.4594	0.5411	0.24892	-0.159
Mof_N 	N 	0.50856	0.69135	0.39962	-0.158
Mof_C 	C 	0.4102	0.60699	0.28301	-0.147
Mof_H 	H 	0.3706	0.6313	0.2854	0.098
Mof_C 	C 	0.4045	0.57612	0.25443	0.084
Mof_H 	H 	0.3593	0.58	0.238	0.01
Mof_C 	C 	0.52384	0.53604	0.27295	0.075
Mof_H 	H 	0.5634	0.5119	0.2695	0.008
Mof_C 	C 	0.53405	0.56481	0.30234	-0.144
Mof_H 	H 	0.5798	0.56	0.3184	0.081
Mof_C 	C 	0.4761	0.60115	0.30815	0.063
Mof_C 	C 	0.48508	0.63217	0.34016	0.055
Mof_C 	C 	0.4695	0.67987	0.33738	-0.137
Mof_H 	H 	0.4508	0.6929	0.3156	0.076
Mof_C 	C 	0.4824	0.7075	0.36751	0.078
Mof_H 	H 	0.4722	0.7394	0.3653	-0.008
Mof_C 	C 	0.5211	0.64568	0.40253	0.077
Mof_H 	H 	0.5379	0.6337	0.4249	0.023
Mof_C 	C 	0.51042	0.6151	0.37377	-0.131
Mof_H 	H 	0.5202	0.5833	0.377	0.085
Mof_Cd	Cd	0.46182	0.99189	0.69779	0.365
Mof_O 	O 	0.37024	0.93438	0.72962	-0.266
Mof_O 	O 	0.50922	0.934	0.74006	-0.28
Mof_C 	C 	0.4331	0.92052	0.74711	0.281
Mof_C 	C 	0.4181	0.88666	0.77814	0.013
Mof_C 	C 	0.4834	0.8833	0.8014	-0.238
Mof_H 	H 	0.4787	0.8639	0.8216	0.116
Mof_H 	H 	0.5339	0.9004	0.7976	0.119
Mof_N 	N 	0.32518	0.01066	0.67237	-0.155
Mof_C 	C 	0.321	0.02438	0.63771	0.074
Mof_H 	H 	0.3724	0.0324	0.626	-0.004
Mof_C 	C 	0.2447	0.02726	0.61835	-0.142
Mof_H 	H 	0.2455	0.0367	0.5942	0.078
Mof_C 	C 	0.16646	0.01597	0.63511	0.056
Mof_C 	C 	0.1708	0.00309	0.67136	-0.135
Mof_H 	H 	0.1202	0.9964	0.6841	0.086
Mof_C 	C 	0.2502	0.00014	0.68853	0.078
Mof_H 	H 	0.2515	0.9903	0.7126	0.025
Mof_N 	N 	0.4594	0.0411	0.74892	-0.159
Mof_N 	N 	0.50856	0.19135	0.89962	-0.158
Mof_C 	C 	0.4102	0.10699	0.78301	-0.147
Mof_H 	H 	0.3706	0.1313	0.7854	0.098
Mof_C 	C 	0.4045	0.07612	0.75443	0.084
Mof_H 	H 	0.3593	0.08	0.738	0.01
Mof_C 	C 	0.52384	0.03604	0.77295	0.075
Mof_H 	H 	0.5634	0.0119	0.7695	0.008
Mof_C 	C 	0.53405	0.06481	0.80234	-0.144
Mof_H 	H 	0.5798	0.06	0.8184	0.081
Mof_C 	C 	0.4761	0.10115	0.80815	0.063
Mof_C 	C 	0.48508	0.13217	0.84016	0.055
Mof_C 	C 	0.4695	0.17987	0.83738	-0.137
Mof_H 	H 	0.4508	0.1929	0.8156	0.076
Mof_C 	C 	0.4824	0.2075	0.86751	0.078
Mof_H 	H 	0.4722	0.2394	0.8653	-0.008
Mof_C 	C 	0.5211	0.14568	0.90253	0.077
Mof_H 	H 	0.5379	0.1337	0.9249	0.023
Mof_C 	C 	0.51042	0.1151	0.87377	-0.131
Mof_H 	H 	0.5202	0.0833	0.877	0.085
Mof_Cd	Cd	0.96182	0.49189	0.69779	0.365
Mof_O 	O 	0.87024	0.43438	0.72962	-0.267
Mof_O 	O 	0.00922	0.434	0.74006	-0.28
Mof_C 	C 	0.9331	0.42052	0.74711	0.281
Mof_C 	C 	0.9181	0.38666	0.77814	0.013
Mof_C 	C 	0.9834	0.3833	0.8014	-0.238
Mof_H 	H 	0.9787	0.3639	0.8216	0.116
Mof_H 	H 	0.0339	0.4004	0.7976	0.119
Mof_N 	N 	0.82518	0.51066	0.67237	-0.155
Mof_C 	C 	0.821	0.52438	0.63771	0.074
Mof_H 	H 	0.8724	0.5324	0.626	-0.004
Mof_C 	C 	0.7447	0.52726	0.61835	-0.142
Mof_H 	H 	0.7455	0.5367	0.5942	0.078
Mof_C 	C 	0.66646	0.51597	0.63511	0.056
Mof_C 	C 	0.6708	0.50309	0.67136	-0.135
Mof_H 	H 	0.6202	0.4964	0.6841	0.086
Mof_C 	C 	0.7502	0.50014	0.68853	0.078
Mof_H 	H 	0.7515	0.4903	0.7126	0.025
Mof_N 	N 	0.9594	0.5411	0.74892	-0.159
Mof_N 	N 	0.00856	0.69135	0.89962	-0.158
Mof_C 	C 	0.9102	0.60699	0.78301	-0.147
Mof_H 	H 	0.8706	0.6313	0.7854	0.098
Mof_C 	C 	0.9045	0.57612	0.75443	0.083
Mof_H 	H 	0.8593	0.58	0.738	0.01
Mof_C 	C 	0.02384	0.53604	0.77295	0.075
Mof_H 	H 	0.0634	0.5119	0.7695	0.008
Mof_C 	C 	0.03405	0.56481	0.80234	-0.144
Mof_H 	H 	0.0798	0.56	0.8184	0.081
Mof_C 	C 	0.9761	0.60115	0.80815	0.063
Mof_C 	C 	0.98508	0.63217	0.84016	0.056
Mof_C 	C 	0.9695	0.67987	0.83738	-0.137
Mof_H 	H 	0.9508	0.6929	0.8156	0.076
Mof_C 	C 	0.9824	0.7075	0.86751	0.078
Mof_H 	H 	0.9722	0.7394	0.8653	-0.008
Mof_C 	C 	0.0211	0.64568	0.90253	0.077
Mof_H 	H 	0.0379	0.6337	0.9249	0.023
Mof_C 	C 	0.01042	0.6151	0.87377	-0.132
Mof_H 	H 	0.0202	0.5833	0.877	0.085
Mof_Cd	Cd	0.96182	0.99189	0.19779	0.365
Mof_O 	O 	0.87024	0.93438	0.22962	-0.266
Mof_O 	O 	0.00922	0.934	0.24006	-0.28
Mof_C 	C 	0.9331	0.92052	0.24711	0.281
Mof_C 	C 	0.9181	0.88666	0.27814	0.014
Mof_C 	C 	0.9834	0.8833	0.3014	-0.239
Mof_H 	H 	0.9787	0.8639	0.3216	0.117
Mof_H 	H 	0.0339	0.9004	0.2976	0.119
Mof_N 	N 	0.82518	0.01066	0.17237	-0.155
Mof_C 	C 	0.821	0.02438	0.13771	0.074
Mof_H 	H 	0.8724	0.0324	0.126	-0.004
Mof_C 	C 	0.7447	0.02726	0.11835	-0.142
Mof_H 	H 	0.7455	0.0367	0.0942	0.078
Mof_C 	C 	0.66646	0.01597	0.13511	0.056
Mof_C 	C 	0.6708	0.00309	0.17136	-0.135
Mof_H 	H 	0.6202	0.9964	0.1841	0.086
Mof_C 	C 	0.7502	0.00014	0.18853	0.079
Mof_H 	H 	0.7515	0.9903	0.2126	0.024
Mof_N 	N 	0.9594	0.0411	0.24892	-0.159
Mof_N 	N 	0.00856	0.19135	0.39962	-0.158
Mof_C 	C 	0.9102	0.10699	0.28301	-0.147
Mof_H 	H 	0.8706	0.1313	0.2854	0.098
Mof_C 	C 	0.9045	0.07612	0.25443	0.083
Mof_H 	H 	0.8593	0.08	0.238	0.01
Mof_C 	C 	0.02384	0.03604	0.27295	0.075
Mof_H 	H 	0.0634	0.0119	0.2695	0.008
Mof_C 	C 	0.03405	0.06481	0.30234	-0.144
Mof_H 	H 	0.0798	0.06	0.3184	0.081
Mof_C 	C 	0.9761	0.10115	0.30815	0.063
Mof_C 	C 	0.98508	0.13217	0.34016	0.056
Mof_C 	C 	0.9695	0.17987	0.33738	-0.137
Mof_H 	H 	0.9508	0.1929	0.3156	0.076
Mof_C 	C 	0.9824	0.2075	0.36751	0.078
Mof_H 	H 	0.9722	0.2394	0.3653	-0.008
Mof_C 	C 	0.0211	0.14568	0.40253	0.077
Mof_H 	H 	0.0379	0.1337	0.4249	0.023
Mof_C 	C 	0.01042	0.1151	0.37377	-0.131
Mof_H 	H 	0.0202	0.0833	0.377	0.085
Mof_Cd	Cd	0.53818	0.74189	0.44779	0.365
Mof_O 	O 	0.62976	0.68438	0.47962	-0.266
Mof_O 	O 	0.49078	0.684	0.49006	-0.28
Mof_C 	C 	0.5669	0.67052	0.49711	0.281
Mof_C 	C 	0.5819	0.63666	0.52814	0.013
Mof_C 	C 	0.5166	0.6333	0.5514	-0.238
Mof_H 	H 	0.5213	0.6139	0.5716	0.116
Mof_H 	H 	0.4661	0.6504	0.5476	0.119
Mof_N 	N 	0.67482	0.76066	0.42237	-0.155
Mof_C 	C 	0.679	0.77438	0.38771	0.074
Mof_H 	H 	0.6276	0.7824	0.376	-0.004
Mof_C 	C 	0.7553	0.77726	0.36835	-0.142
Mof_H 	H 	0.7545	0.7867	0.3442	0.078
Mof_C 	C 	0.83354	0.76597	0.38511	0.056
Mof_C 	C 	0.8292	0.75309	0.42136	-0.135
Mof_H 	H 	0.8798	0.7464	0.4341	0.086
Mof_C 	C 	0.7498	0.75014	0.43853	0.078
Mof_H 	H 	0.7485	0.7403	0.4626	0.025
Mof_N 	N 	0.5406	0.7911	0.49892	-0.159
Mof_N 	N 	0.49144	0.94135	0.64962	-0.158
Mof_C 	C 	0.5898	0.85699	0.53301	-0.147
Mof_H 	H 	0.6294	0.8813	0.5354	0.098
Mof_C 	C 	0.5955	0.82612	0.50443	0.084
Mof_H 	H 	0.6407	0.83	0.488	0.01
Mof_C 	C 	0.47616	0.78604	0.52295	0.075
Mof_H 	H 	0.4366	0.7619	0.5195	0.008
Mof_C 	C 	0.46595	0.81481	0.55234	-0.144
Mof_H 	H 	0.4202	0.81	0.5684	0.081
Mof_C 	C 	0.5239	0.85115	0.55815	0.063
Mof_C 	C 	0.51492	0.88217	0.59016	0.055
Mof_C 	C 	0.5305	0.92987	0.58738	-0.137
Mof_H 	H 	0.5492	0.9429	0.5656	0.076
Mof_C 	C 	0.5176	0.9575	0.61751	0.078
Mof_H 	H 	0.5278	0.9894	0.6153	-0.008
Mof_C 	C 	0.4789	0.89568	0.65253	0.077
Mof_H 	H 	0.4621	0.8837	0.6749	0.023
Mof_C 	C 	0.48958	0.8651	0.62377	-0.131
Mof_H 	H 	0.4798	0.8333	0.627	0.085
Mof_Cd	Cd	0.53818	0.24189	0.94779	0.365
Mof_O 	O 	0.62976	0.18438	0.97962	-0.266
Mof_O 	O 	0.49078	0.184	0.99006	-0.28
Mof_C 	C 	0.5669	0.17052	0.99711	0.281
Mof_C 	C 	0.5819	0.13666	0.02814	0.013
Mof_C 	C 	0.5166	0.1333	0.0514	-0.238
Mof_H 	H 	0.5213	0.1139	0.0716	0.116
Mof_H 	H 	0.4661	0.1504	0.0476	0.119
Mof_N 	N 	0.67482	0.26066	0.92237	-0.155
Mof_C 	C 	0.679	0.27438	0.88771	0.074
Mof_H 	H 	0.6276	0.2824	0.876	-0.004
Mof_C 	C 	0.7553	0.27726	0.86835	-0.142
Mof_H 	H 	0.7545	0.2867	0.8442	0.078
Mof_C 	C 	0.83354	0.26597	0.88511	0.056
Mof_C 	C 	0.8292	0.25309	0.92136	-0.135
Mof_H 	H 	0.8798	0.2464	0.9341	0.086
Mof_C 	C 	0.7498	0.25014	0.93853	0.078
Mof_H 	H 	0.7485	0.2403	0.9626	0.025
Mof_N 	N 	0.5406	0.2911	0.99892	-0.159
Mof_N 	N 	0.49144	0.44135	0.14962	-0.158
Mof_C 	C 	0.5898	0.35699	0.03301	-0.147
Mof_H 	H 	0.6294	0.3813	0.0354	0.098
Mof_C 	C 	0.5955	0.32612	0.00443	0.084
Mof_H 	H 	0.6407	0.33	0.988	0.009
Mof_C 	C 	0.47616	0.28604	0.02295	0.075
Mof_H 	H 	0.4366	0.2619	0.0195	0.008
Mof_C 	C 	0.46595	0.31481	0.05234	-0.144
Mof_H 	H 	0.4202	0.31	0.0684	0.081
Mof_C 	C 	0.5239	0.35115	0.05815	0.064
Mof_C 	C 	0.51492	0.38217	0.09016	0.055
Mof_C 	C 	0.5305	0.42987	0.08738	-0.137
Mof_H 	H 	0.5492	0.4429	0.0656	0.076
Mof_C 	C 	0.5176	0.4575	0.11751	0.078
Mof_H 	H 	0.5278	0.4894	0.1153	-0.008
Mof_C 	C 	0.4789	0.39568	0.15253	0.077
Mof_H 	H 	0.4621	0.3837	0.1749	0.023
Mof_C 	C 	0.48958	0.3651	0.12377	-0.131
Mof_H 	H 	0.4798	0.3333	0.127	0.085
Mof_Cd	Cd	0.03818	0.74189	0.94779	0.365
Mof_O 	O 	0.12976	0.68438	0.97962	-0.266
Mof_O 	O 	0.99078	0.684	0.99006	-0.28
Mof_C 	C 	0.0669	0.67052	0.99711	0.281
Mof_C 	C 	0.0819	0.63666	0.02814	0.013
Mof_C 	C 	0.0166	0.6333	0.0514	-0.238
Mof_H 	H 	0.0213	0.6139	0.0716	0.116
Mof_H 	H 	0.9661	0.6504	0.0476	0.119
Mof_N 	N 	0.17482	0.76066	0.92237	-0.155
Mof_C 	C 	0.179	0.77438	0.88771	0.074
Mof_H 	H 	0.1276	0.7824	0.876	-0.004
Mof_C 	C 	0.2553	0.77726	0.86835	-0.142
Mof_H 	H 	0.2545	0.7867	0.8442	0.078
Mof_C 	C 	0.33354	0.76597	0.88511	0.056
Mof_C 	C 	0.3292	0.75309	0.92136	-0.135
Mof_H 	H 	0.3798	0.7464	0.9341	0.086
Mof_C 	C 	0.2498	0.75014	0.93853	0.078
Mof_H 	H 	0.2485	0.7403	0.9626	0.025
Mof_N 	N 	0.0406	0.7911	0.99892	-0.159
Mof_N 	N 	0.99144	0.94135	0.14962	-0.158
Mof_C 	C 	0.0898	0.85699	0.03301	-0.147
Mof_H 	H 	0.1294	0.8813	0.0354	0.098
Mof_C 	C 	0.0955	0.82612	0.00443	0.084
Mof_H 	H 	0.1407	0.83	0.988	0.009
Mof_C 	C 	0.97616	0.78604	0.02295	0.075
Mof_H 	H 	0.9366	0.7619	0.0195	0.008
Mof_C 	C 	0.96595	0.81481	0.05234	-0.144
Mof_H 	H 	0.9202	0.81	0.0684	0.081
Mof_C 	C 	0.0239	0.85115	0.05815	0.064
Mof_C 	C 	0.01492	0.88217	0.09016	0.056
Mof_C 	C 	0.0305	0.92987	0.08738	-0.137
Mof_H 	H 	0.0492	0.9429	0.0656	0.076
Mof_C 	C 	0.0176	0.9575	0.11751	0.079
Mof_H 	H 	0.0278	0.9894	0.1153	-0.008
Mof_C 	C 	0.9789	0.89568	0.15253	0.077
Mof_H 	H 	0.9621	0.8837	0.1749	0.023
Mof_C 	C 	0.98958	0.8651	0.12377	-0.132
Mof_H 	H 	0.9798	0.8333	0.127	0.085
Mof_Cd	Cd	0.03818	0.24189	0.44779	0.365
Mof_O 	O 	0.12976	0.18438	0.47962	-0.266
Mof_O 	O 	0.99078	0.184	0.49006	-0.28
Mof_C 	C 	0.0669	0.17052	0.49711	0.281
Mof_C 	C 	0.0819	0.13666	0.52814	0.014
Mof_C 	C 	0.0166	0.1333	0.5514	-0.239
Mof_H 	H 	0.0213	0.1139	0.5716	0.116
Mof_H 	H 	0.9661	0.1504	0.5476	0.119
Mof_N 	N 	0.17482	0.26066	0.42237	-0.155
Mof_C 	C 	0.179	0.27438	0.38771	0.074
Mof_H 	H 	0.1276	0.2824	0.376	-0.004
Mof_C 	C 	0.2553	0.27726	0.36835	-0.142
Mof_H 	H 	0.2545	0.2867	0.3442	0.078
Mof_C 	C 	0.33354	0.26597	0.38511	0.056
Mof_C 	C 	0.3292	0.25309	0.42136	-0.135
Mof_H 	H 	0.3798	0.2464	0.4341	0.086
Mof_C 	C 	0.2498	0.25014	0.43853	0.078
Mof_H 	H 	0.2485	0.2403	0.4626	0.025
Mof_N 	N 	0.0406	0.2911	0.49892	-0.159
Mof_N 	N 	0.99144	0.44135	0.64962	-0.158
Mof_C 	C 	0.0898	0.35699	0.53301	-0.147
Mof_H 	H 	0.1294	0.3813	0.5354	0.098
Mof_C 	C 	0.0955	0.32612	0.50443	0.083
Mof_H 	H 	0.1407	0.33	0.488	0.01
Mof_C 	C 	0.97616	0.28604	0.52295	0.075
Mof_H 	H 	0.9366	0.2619	0.5195	0.008
Mof_C 	C 	0.96595	0.31481	0.55234	-0.144
Mof_H 	H 	0.9202	0.31	0.5684	0.081
Mof_C 	C 	0.0239	0.35115	0.55815	0.063
Mof_C 	C 	0.01492	0.38217	0.59016	0.055
Mof_C 	C 	0.0305	0.42987	0.58738	-0.137
Mof_H 	H 	0.0492	0.4429	0.5656	0.076
Mof_C 	C 	0.0176	0.4575	0.61751	0.078
Mof_H 	H 	0.0278	0.4894	0.6153	-0.008
Mof_C 	C 	0.9789	0.39568	0.65253	0.077
Mof_H 	H 	0.9621	0.3837	0.6749	0.023
Mof_C 	C 	0.98958	0.3651	0.62377	-0.131
Mof_H 	H 	0.9798	0.3333	0.627	0.085
Mof_Cd	Cd	0.71182	0.50811	0.44779	0.365
Mof_O 	O 	0.62024	0.56562	0.47962	-0.266
Mof_O 	O 	0.75922	0.566	0.49006	-0.28
Mof_C 	C 	0.6831	0.57948	0.49711	0.281
Mof_C 	C 	0.6681	0.61334	0.52814	0.013
Mof_C 	C 	0.7334	0.6167	0.5514	-0.238
Mof_H 	H 	0.7287	0.6361	0.5716	0.116
Mof_H 	H 	0.7839	0.5996	0.5476	0.119
Mof_N 	N 	0.57518	0.48934	0.42237	-0.155
Mof_C 	C 	0.571	0.47562	0.38771	0.074
Mof_H 	H 	0.6224	0.4676	0.376	-0.004
Mof_C 	C 	0.4947	0.47274	0.36835	-0.142
Mof_H 	H 	0.4955	0.4633	0.3442	0.078
Mof_C 	C 	0.41646	0.48403	0.38511	0.056
Mof_C 	C 	0.4208	0.49691	0.42136	-0.135
Mof_H 	H 	0.3702	0.5036	0.4341	0.086
Mof_C 	C 	0.5002	0.49986	0.43853	0.078
Mof_H 	H 	0.5015	0.5097	0.4626	0.025
Mof_N 	N 	0.7094	0.4589	0.49892	-0.159
Mof_N 	N 	0.75856	0.30865	0.64962	-0.158
Mof_C 	C 	0.6602	0.39301	0.53301	-0.147
Mof_H 	H 	0.6206	0.3687	0.5354	0.098
Mof_C 	C 	0.6545	0.42388	0.50443	0.084
Mof_H 	H 	0.6093	0.42	0.488	0.01
Mof_C 	C 	0.77384	0.46396	0.52295	0.075
Mof_H 	H 	0.8134	0.4881	0.5195	0.008
Mof_C 	C 	0.78405	0.43519	0.55234	-0.144
Mof_H 	H 	0.8298	0.44	0.5684	0.081
Mof_C 	C 	0.7261	0.39885	0.55815	0.063
Mof_C 	C 	0.73508	0.36783	0.59016	0.055
Mof_C 	C 	0.7195	0.32013	0.58738	-0.137
Mof_H 	H 	0.7008	0.3071	0.5656	0.076
Mof_C 	C 	0.7324	0.2925	0.61751	0.078
Mof_H 	H 	0.7222	0.2606	0.6153	-0.008
Mof_C 	C 	0.7711	0.35432	0.65253	0.077
Mof_H 	H 	0.7879	0.3663	0.6749	0.023
Mof_C 	C 	0.76042	0.3849	0.62377	-0.131
Mof_H 	H 	0.7702	0.4167	0.627	0.085
Mof_Cd	Cd	0.71182	0.00811	0.94779	0.365
Mof_O 	O 	0.62024	0.06562	0.97962	-0.266
Mof_O 	O 	0.75922	0.066	0.99006	-0.28
Mof_C 	C 	0.6831	0.07948	0.99711	0.281
Mof_C 	C 	0.6681	0.11334	0.02814	0.013
Mof_C 	C 	0.7334	0.1167	0.0514	-0.238
Mof_H 	H 	0.7287	0.1361	0.0716	0.116
Mof_H 	H 	0.7839	0.0996	0.0476	0.119
Mof_N 	N 	0.57518	0.98934	0.92237	-0.155
Mof_C 	C 	0.571	0.97562	0.88771	0.074
Mof_H 	H 	0.6224	0.9676	0.876	-0.004
Mof_C 	C 	0.4947	0.97274	0.86835	-0.142
Mof_H 	H 	0.4955	0.9633	0.8442	0.078
Mof_C 	C 	0.41646	0.98403	0.88511	0.056
Mof_C 	C 	0.4208	0.99691	0.92136	-0.135
Mof_H 	H 	0.3702	0.0036	0.9341	0.086
Mof_C 	C 	0.5002	0.99986	0.93853	0.079
Mof_H 	H 	0.5015	0.0097	0.9626	0.025
Mof_N 	N 	0.7094	0.9589	0.99892	-0.159
Mof_N 	N 	0.75856	0.80865	0.14962	-0.158
Mof_C 	C 	0.6602	0.89301	0.03301	-0.147
Mof_H 	H 	0.6206	0.8687	0.0354	0.097
Mof_C 	C 	0.6545	0.92388	0.00443	0.083
Mof_H 	H 	0.6093	0.92	0.988	0.01
Mof_C 	C 	0.77384	0.96396	0.02295	0.075
Mof_H 	H 	0.8134	0.9881	0.0195	0.008
Mof_C 	C 	0.78405	0.93519	0.05234	-0.143
Mof_H 	H 	0.8298	0.94	0.0684	0.081
Mof_C 	C 	0.7261	0.89885	0.05815	0.063
Mof_C 	C 	0.73508	0.86783	0.09016	0.056
Mof_C 	C 	0.7195	0.82013	0.08738	-0.137
Mof_H 	H 	0.7008	0.8071	0.0656	0.076
Mof_C 	C 	0.7324	0.7925	0.11751	0.078
Mof_H 	H 	0.7222	0.7606	0.1153	-0.008
Mof_C 	C 	0.7711	0.85432	0.15253	0.077
Mof_H 	H 	0.7879	0.8663	0.1749	0.023
Mof_C 	C 	0.76042	0.8849	0.12377	-0.131
Mof_H 	H 	0.7702	0.9167	0.127	0.085
Mof_Cd	Cd	0.21182	0.50811	0.94779	0.365
Mof_O 	O 	0.12024	0.56562	0.97962	-0.266
Mof_O 	O 	0.25922	0.566	0.99006	-0.28
Mof_C 	C 	0.1831	0.57948	0.99711	0.281
Mof_C 	C 	0.1681	0.61334	0.02814	0.013
Mof_C 	C 	0.2334	0.6167	0.0514	-0.239
Mof_H 	H 	0.2287	0.6361	0.0716	0.116
Mof_H 	H 	0.2839	0.5996	0.0476	0.119
Mof_N 	N 	0.07518	0.48934	0.92237	-0.155
Mof_C 	C 	0.071	0.47562	0.88771	0.073
Mof_H 	H 	0.1224	0.4676	0.876	-0.004
Mof_C 	C 	0.9947	0.47274	0.86835	-0.141
Mof_H 	H 	0.9955	0.4633	0.8442	0.078
Mof_C 	C 	0.91646	0.48403	0.88511	0.056
Mof_C 	C 	0.9208	0.49691	0.92136	-0.135
Mof_H 	H 	0.8702	0.5036	0.9341	0.086
Mof_C 	C 	0.0002	0.49986	0.93853	0.078
Mof_H 	H 	0.0015	0.5097	0.9626	0.025
Mof_N 	N 	0.2094	0.4589	0.99892	-0.159
Mof_N 	N 	0.25856	0.30865	0.14962	-0.158
Mof_C 	C 	0.1602	0.39301	0.03301	-0.148
Mof_H 	H 	0.1206	0.3687	0.0354	0.098
Mof_C 	C 	0.1545	0.42388	0.00443	0.084
Mof_H 	H 	0.1093	0.42	0.988	0.009
Mof_C 	C 	0.27384	0.46396	0.02295	0.075
Mof_H 	H 	0.3134	0.4881	0.0195	0.008
Mof_C 	C 	0.28405	0.43519	0.05234	-0.144
Mof_H 	H 	0.3298	0.44	0.0684	0.081
Mof_C 	C 	0.2261	0.39885	0.05815	0.064
Mof_C 	C 	0.23508	0.36783	0.09016	0.055
Mof_C 	C 	0.2195	0.32013	0.08738	-0.137
Mof_H 	H 	0.2008	0.3071	0.0656	0.076
Mof_C 	C 	0.2324	0.2925	0.11751	0.078
Mof_H 	H 	0.2222	0.2606	0.1153	-0.008
Mof_C 	C 	0.2711	0.35432	0.15253	0.077
Mof_H 	H 	0.2879	0.3663	0.1749	0.023
Mof_C 	C 	0.26042	0.3849	0.12377	-0.131
Mof_H 	H 	0.2702	0.4167	0.127	0.085
Mof_Cd	Cd	0.21182	0.00811	0.44779	0.365
Mof_O 	O 	0.12024	0.06562	0.47962	-0.267
Mof_O 	O 	0.25922	0.066	0.49006	-0.28
Mof_C 	C 	0.1831	0.07948	0.49711	0.281
Mof_C 	C 	0.1681	0.11334	0.52814	0.013
Mof_C 	C 	0.2334	0.1167	0.5514	-0.238
Mof_H 	H 	0.2287	0.1361	0.5716	0.116
Mof_H 	H 	0.2839	0.0996	0.5476	0.119
Mof_N 	N 	0.07518	0.98934	0.42237	-0.155
Mof_C 	C 	0.071	0.97562	0.38771	0.074
Mof_H 	H 	0.1224	0.9676	0.376	-0.004
Mof_C 	C 	0.9947	0.97274	0.36835	-0.142
Mof_H 	H 	0.9955	0.9633	0.3442	0.078
Mof_C 	C 	0.91646	0.98403	0.38511	0.056
Mof_C 	C 	0.9208	0.99691	0.42136	-0.136
Mof_H 	H 	0.8702	0.0036	0.4341	0.087
Mof_C 	C 	0.0002	0.99986	0.43853	0.079
Mof_H 	H 	0.0015	0.0097	0.4626	0.024
Mof_N 	N 	0.2094	0.9589	0.49892	-0.159
Mof_N 	N 	0.25856	0.80865	0.64962	-0.158
Mof_C 	C 	0.1602	0.89301	0.53301	-0.147
Mof_H 	H 	0.1206	0.8687	0.5354	0.098
Mof_C 	C 	0.1545	0.92388	0.50443	0.084
Mof_H 	H 	0.1093	0.92	0.488	0.01
Mof_C 	C 	0.27384	0.96396	0.52295	0.075
Mof_H 	H 	0.3134	0.9881	0.5195	0.008
Mof_C 	C 	0.28405	0.93519	0.55234	-0.144
Mof_H 	H 	0.3298	0.94	0.5684	0.081
Mof_C 	C 	0.2261	0.89885	0.55815	0.063
Mof_C 	C 	0.23508	0.86783	0.59016	0.055
Mof_C 	C 	0.2195	0.82013	0.58738	-0.137
Mof_H 	H 	0.2008	0.8071	0.5656	0.076
Mof_C 	C 	0.2324	0.7925	0.61751	0.078
Mof_H 	H 	0.2222	0.7606	0.6153	-0.008
Mof_C 	C 	0.2711	0.85432	0.65253	0.077
Mof_H 	H 	0.2879	0.8663	0.6749	0.023
Mof_C 	C 	0.26042	0.8849	0.62377	-0.131
Mof_H 	H 	0.2702	0.9167	0.627	0.085
Mof_Cd	Cd	0.71182	0.74189	0.80221	0.365
Mof_O 	O 	0.62024	0.68438	0.77038	-0.266
Mof_O 	O 	0.75922	0.684	0.75994	-0.28
Mof_C 	C 	0.6831	0.67052	0.75289	0.281
Mof_C 	C 	0.6681	0.63666	0.72186	0.013
Mof_C 	C 	0.7334	0.6333	0.6986	-0.238
Mof_H 	H 	0.7287	0.6139	0.6784	0.116
Mof_H 	H 	0.7839	0.6504	0.7024	0.119
Mof_N 	N 	0.57518	0.76066	0.82763	-0.155
Mof_C 	C 	0.571	0.77438	0.86229	0.074
Mof_H 	H 	0.6224	0.7824	0.874	-0.004
Mof_C 	C 	0.4947	0.77726	0.88165	-0.142
Mof_H 	H 	0.4955	0.7867	0.9058	0.078
Mof_C 	C 	0.41646	0.76597	0.86489	0.056
Mof_C 	C 	0.4208	0.75309	0.82864	-0.135
Mof_H 	H 	0.3702	0.7464	0.8159	0.086
Mof_C 	C 	0.5002	0.75014	0.81147	0.078
Mof_H 	H 	0.5015	0.7403	0.7874	0.025
Mof_N 	N 	0.7094	0.7911	0.75108	-0.159
Mof_N 	N 	0.75856	0.94135	0.60038	-0.158
Mof_C 	C 	0.6602	0.85699	0.71699	-0.147
Mof_H 	H 	0.6206	0.8813	0.7146	0.098
Mof_C 	C 	0.6545	0.82612	0.74557	0.084
Mof_H 	H 	0.6093	0.83	0.762	0.01
Mof_C 	C 	0.77384	0.78604	0.72705	0.075
Mof_H 	H 	0.8134	0.7619	0.7305	0.008
Mof_C 	C 	0.78405	0.81481	0.69766	-0.144
Mof_H 	H 	0.8298	0.81	0.6816	0.081
Mof_C 	C 	0.7261	0.85115	0.69185	0.063
Mof_C 	C 	0.73508	0.88217	0.65984	0.055
Mof_C 	C 	0.7195	0.92987	0.66262	-0.137
Mof_H 	H 	0.7008	0.9429	0.6844	0.076
Mof_C 	C 	0.7324	0.9575	0.63249	0.078
Mof_H 	H 	0.7222	0.9894	0.6347	-0.008
Mof_C 	C 	0.7711	0.89568	0.59747	0.077
Mof_H 	H 	0.7879	0.8837	0.5751	0.023
Mof_C 	C 	0.76042	0.8651	0.62623	-0.131
Mof_H 	H 	0.7702	0.8333	0.623	0.085
Mof_Cd	Cd	0.71182	0.24189	0.30221	0.365
Mof_O 	O 	0.62024	0.18438	0.27038	-0.266
Mof_O 	O 	0.75922	0.184	0.25994	-0.28
Mof_C 	C 	0.6831	0.17052	0.25289	0.281
Mof_C 	C 	0.6681	0.13666	0.22186	0.013
Mof_C 	C 	0.7334	0.1333	0.1986	-0.238
Mof_H 	H 	0.7287	0.1139	0.1784	0.116
Mof_H 	H 	0.7839	0.1504	0.2024	0.119
Mof_N 	N 	0.57518	0.26066	0.32763	-0.155
Mof_C 	C 	0.571	0.27438	0.36229	0.074
Mof_H 	H 	0.6224	0.2824	0.374	-0.004
Mof_C 	C 	0.4947	0.27726	0.38165	-0.142
Mof_H 	H 	0.4955	0.2867	0.4058	0.078
Mof_C 	C 	0.41646	0.26597	0.36489	0.056
Mof_C 	C 	0.4208	0.25309	0.32864	-0.135
Mof_H 	H 	0.3702	0.2464	0.3159	0.086
Mof_C 	C 	0.5002	0.25014	0.31147	0.078
Mof_H 	H 	0.5015	0.2403	0.2874	0.025
Mof_N 	N 	0.7094	0.2911	0.25108	-0.159
Mof_N 	N 	0.75856	0.44135	0.10038	-0.158
Mof_C 	C 	0.6602	0.35699	0.21699	-0.147
Mof_H 	H 	0.6206	0.3813	0.2146	0.098
Mof_C 	C 	0.6545	0.32612	0.24557	0.083
Mof_H 	H 	0.6093	0.33	0.262	0.01
Mof_C 	C 	0.77384	0.28604	0.22705	0.075
Mof_H 	H 	0.8134	0.2619	0.2305	0.008
Mof_C 	C 	0.78405	0.31481	0.19766	-0.144
Mof_H 	H 	0.8298	0.31	0.1816	0.081
Mof_C 	C 	0.7261	0.35115	0.19185	0.063
Mof_C 	C 	0.73508	0.38217	0.15984	0.055
Mof_C 	C 	0.7195	0.42987	0.16262	-0.137
Mof_H 	H 	0.7008	0.4429	0.1844	0.076
Mof_C 	C 	0.7324	0.4575	0.13249	0.078
Mof_H 	H 	0.7222	0.4894	0.1347	-0.008
Mof_C 	C 	0.7711	0.39568	0.09747	0.077
Mof_H 	H 	0.7879	0.3837	0.0751	0.023
Mof_C 	C 	0.76042	0.3651	0.12623	-0.131
Mof_H 	H 	0.7702	0.3333	0.123	0.085
Mof_Cd	Cd	0.21182	0.74189	0.30221	0.365
Mof_O 	O 	0.12024	0.68438	0.27038	-0.266
Mof_O 	O 	0.25922	0.684	0.25994	-0.28
Mof_C 	C 	0.1831	0.67052	0.25289	0.281
Mof_C 	C 	0.1681	0.63666	0.22186	0.013
Mof_C 	C 	0.2334	0.6333	0.1986	-0.239
Mof_H 	H 	0.2287	0.6139	0.1784	0.116
Mof_H 	H 	0.2839	0.6504	0.2024	0.119
Mof_N 	N 	0.07518	0.76066	0.32763	-0.155
Mof_C 	C 	0.071	0.77438	0.36229	0.074
Mof_H 	H 	0.1224	0.7824	0.374	-0.004
Mof_C 	C 	0.9947	0.77726	0.38165	-0.142
Mof_H 	H 	0.9955	0.7867	0.4058	0.078
Mof_C 	C 	0.91646	0.76597	0.36489	0.056
Mof_C 	C 	0.9208	0.75309	0.32864	-0.135
Mof_H 	H 	0.8702	0.7464	0.3159	0.086
Mof_C 	C 	0.0002	0.75014	0.31147	0.079
Mof_H 	H 	0.0015	0.7403	0.2874	0.025
Mof_N 	N 	0.2094	0.7911	0.25108	-0.159
Mof_N 	N 	0.25856	0.94135	0.10038	-0.158
Mof_C 	C 	0.1602	0.85699	0.21699	-0.147
Mof_H 	H 	0.1206	0.8813	0.2146	0.098
Mof_C 	C 	0.1545	0.82612	0.24557	0.084
Mof_H 	H 	0.1093	0.83	0.262	0.01
Mof_C 	C 	0.27384	0.78604	0.22705	0.075
Mof_H 	H 	0.3134	0.7619	0.2305	0.008
Mof_C 	C 	0.28405	0.81481	0.19766	-0.144
Mof_H 	H 	0.3298	0.81	0.1816	0.081
Mof_C 	C 	0.2261	0.85115	0.19185	0.063
Mof_C 	C 	0.23508	0.88217	0.15984	0.055
Mof_C 	C 	0.2195	0.92987	0.16262	-0.137
Mof_H 	H 	0.2008	0.9429	0.1844	0.076
Mof_C 	C 	0.2324	0.9575	0.13249	0.078
Mof_H 	H 	0.2222	0.9894	0.1347	-0.008
Mof_C 	C 	0.2711	0.89568	0.09747	0.077
Mof_H 	H 	0.2879	0.8837	0.0751	0.023
Mof_C 	C 	0.26042	0.8651	0.12623	-0.131
Mof_H 	H 	0.2702	0.8333	0.123	0.085
Mof_Cd	Cd	0.21182	0.24189	0.80221	0.365
Mof_O 	O 	0.12024	0.18438	0.77038	-0.267
Mof_O 	O 	0.25922	0.184	0.75994	-0.28
Mof_C 	C 	0.1831	0.17052	0.75289	0.281
Mof_C 	C 	0.1681	0.13666	0.72186	0.013
Mof_C 	C 	0.2334	0.1333	0.6986	-0.238
Mof_H 	H 	0.2287	0.1139	0.6784	0.116
Mof_H 	H 	0.2839	0.1504	0.7024	0.119
Mof_N 	N 	0.07518	0.26066	0.82763	-0.155
Mof_C 	C 	0.071	0.27438	0.86229	0.073
Mof_H 	H 	0.1224	0.2824	0.874	-0.004
Mof_C 	C 	0.9947	0.27726	0.88165	-0.141
Mof_H 	H 	0.9955	0.2867	0.9058	0.078
Mof_C 	C 	0.91646	0.26597	0.86489	0.055
Mof_C 	C 	0.9208	0.25309	0.82864	-0.135
Mof_H 	H 	0.8702	0.2464	0.8159	0.086
Mof_C 	C 	0.0002	0.25014	0.81147	0.078
Mof_H 	H 	0.0015	0.2403	0.7874	0.025
Mof_N 	N 	0.2094	0.2911	0.75108	-0.159
Mof_N 	N 	0.25856	0.44135	0.60038	-0.158
Mof_C 	C 	0.1602	0.35699	0.71699	-0.147
Mof_H 	H 	0.1206	0.3813	0.7146	0.098
Mof_C 	C 	0.1545	0.32612	0.74557	0.084
Mof_H 	H 	0.1093	0.33	0.762	0.009
Mof_C 	C 	0.27384	0.28604	0.72705	0.075
Mof_H 	H 	0.3134	0.2619	0.7305	0.008
Mof_C 	C 	0.28405	0.31481	0.69766	-0.144
Mof_H 	H 	0.3298	0.31	0.6816	0.081
Mof_C 	C 	0.2261	0.35115	0.69185	0.063
Mof_C 	C 	0.23508	0.38217	0.65984	0.055
Mof_C 	C 	0.2195	0.42987	0.66262	-0.137
Mof_H 	H 	0.2008	0.4429	0.6844	0.076
Mof_C 	C 	0.2324	0.4575	0.63249	0.078
Mof_H 	H 	0.2222	0.4894	0.6347	-0.008
Mof_C 	C 	0.2711	0.39568	0.59747	0.077
Mof_H 	H 	0.2879	0.3837	0.5751	0.023
Mof_C 	C 	0.26042	0.3651	0.62623	-0.131
Mof_H 	H 	0.2702	0.3333	0.623	0.085
Mof_Cd	Cd	0.53818	0.50811	0.80221	0.365
Mof_O 	O 	0.62976	0.56562	0.77038	-0.266
Mof_O 	O 	0.49078	0.566	0.75994	-0.28
Mof_C 	C 	0.5669	0.57948	0.75289	0.281
Mof_C 	C 	0.5819	0.61334	0.72186	0.013
Mof_C 	C 	0.5166	0.6167	0.6986	-0.238
Mof_H 	H 	0.5213	0.6361	0.6784	0.116
Mof_H 	H 	0.4661	0.5996	0.7024	0.119
Mof_N 	N 	0.67482	0.48934	0.82763	-0.155
Mof_C 	C 	0.679	0.47562	0.86229	0.074
Mof_H 	H 	0.6276	0.4676	0.874	-0.004
Mof_C 	C 	0.7553	0.47274	0.88165	-0.142
Mof_H 	H 	0.7545	0.4633	0.9058	0.078
Mof_C 	C 	0.83354	0.48403	0.86489	0.056
Mof_C 	C 	0.8292	0.49691	0.82864	-0.135
Mof_H 	H 	0.8798	0.5036	0.8159	0.086
Mof_C 	C 	0.7498	0.49986	0.81147	0.078
Mof_H 	H 	0.7485	0.5097	0.7874	0.025
Mof_N 	N 	0.5406	0.4589	0.75108	-0.159
Mof_N 	N 	0.49144	0.30865	0.60038	-0.158
Mof_C 	C 	0.5898	0.39301	0.71699	-0.147
Mof_H 	H 	0.6294	0.3687	0.7146	0.098
Mof_C 	C 	0.5955	0.42388	0.74557	0.084
Mof_H 	H 	0.6407	0.42	0.762	0.01
Mof_C 	C 	0.47616	0.46396	0.72705	0.075
Mof_H 	H 	0.4366	0.4881	0.7305	0.008
Mof_C 	C 	0.46595	0.43519	0.69766	-0.144
Mof_H 	H 	0.4202	0.44	0.6816	0.081
Mof_C 	C 	0.5239	0.39885	0.69185	0.063
Mof_C 	C 	0.51492	0.36783	0.65984	0.055
Mof_C 	C 	0.5305	0.32013	0.66262	-0.137
Mof_H 	H 	0.5492	0.3071	0.6844	0.076
Mof_C 	C 	0.5176	0.2925	0.63249	0.078
Mof_H 	H 	0.5278	0.2606	0.6347	-0.008
Mof_C 	C 	0.4789	0.35432	0.59747	0.077
Mof_H 	H 	0.4621	0.3663	0.5751	0.023
Mof_C 	C 	0.48958	0.3849	0.62623	-0.131
Mof_H 	H 	0.4798	0.4167	0.623	0.085
Mof_Cd	Cd	0.53818	0.00811	0.30221	0.365
Mof_O 	O 	0.62976	0.06562	0.27038	-0.266
Mof_O 	O 	0.49078	0.066	0.25994	-0.28
Mof_C 	C 	0.5669	0.07948	0.25289	0.281
Mof_C 	C 	0.5819	0.11334	0.22186	0.013
Mof_C 	C 	0.5166	0.1167	0.1986	-0.238
Mof_H 	H 	0.5213	0.1361	0.1784	0.116
Mof_H 	H 	0.4661	0.0996	0.2024	0.119
Mof_N 	N 	0.67482	0.98934	0.32763	-0.155
Mof_C 	C 	0.679	0.97562	0.36229	0.074
Mof_H 	H 	0.6276	0.9676	0.374	-0.004
Mof_C 	C 	0.7553	0.97274	0.38165	-0.142
Mof_H 	H 	0.7545	0.9633	0.4058	0.078
Mof_C 	C 	0.83354	0.98403	0.36489	0.056
Mof_C 	C 	0.8292	0.99691	0.32864	-0.135
Mof_H 	H 	0.8798	0.0036	0.3159	0.086
Mof_C 	C 	0.7498	0.99986	0.31147	0.078
Mof_H 	H 	0.7485	0.0097	0.2874	0.025
Mof_N 	N 	0.5406	0.9589	0.25108	-0.159
Mof_N 	N 	0.49144	0.80865	0.10038	-0.158
Mof_C 	C 	0.5898	0.89301	0.21699	-0.147
Mof_H 	H 	0.6294	0.8687	0.2146	0.098
Mof_C 	C 	0.5955	0.92388	0.24557	0.084
Mof_H 	H 	0.6407	0.92	0.262	0.01
Mof_C 	C 	0.47616	0.96396	0.22705	0.075
Mof_H 	H 	0.4366	0.9881	0.2305	0.008
Mof_C 	C 	0.46595	0.93519	0.19766	-0.144
Mof_H 	H 	0.4202	0.94	0.1816	0.081
Mof_C 	C 	0.5239	0.89885	0.19185	0.063
Mof_C 	C 	0.51492	0.86783	0.15984	0.055
Mof_C 	C 	0.5305	0.82013	0.16262	-0.137
Mof_H 	H 	0.5492	0.8071	0.1844	0.076
Mof_C 	C 	0.5176	0.7925	0.13249	0.078
Mof_H 	H 	0.5278	0.7606	0.1347	-0.008
Mof_C 	C 	0.4789	0.85432	0.09747	0.077
Mof_H 	H 	0.4621	0.8663	0.0751	0.023
Mof_C 	C 	0.48958	0.8849	0.12623	-0.131
Mof_H 	H 	0.4798	0.9167	0.123	0.085
Mof_Cd	Cd	0.03818	0.50811	0.30221	0.365
Mof_O 	O 	0.12976	0.56562	0.27038	-0.267
Mof_O 	O 	0.99078	0.566	0.25994	-0.28
Mof_C 	C 	0.0669	0.57948	0.25289	0.281
Mof_C 	C 	0.0819	0.61334	0.22186	0.013
Mof_C 	C 	0.0166	0.6167	0.1986	-0.238
Mof_H 	H 	0.0213	0.6361	0.1784	0.116
Mof_H 	H 	0.9661	0.5996	0.2024	0.119
Mof_N 	N 	0.17482	0.48934	0.32763	-0.155
Mof_C 	C 	0.179	0.47562	0.36229	0.074
Mof_H 	H 	0.1276	0.4676	0.374	-0.004
Mof_C 	C 	0.2553	0.47274	0.38165	-0.142
Mof_H 	H 	0.2545	0.4633	0.4058	0.078
Mof_C 	C 	0.33354	0.48403	0.36489	0.056
Mof_C 	C 	0.3292	0.49691	0.32864	-0.135
Mof_H 	H 	0.3798	0.5036	0.3159	0.086
Mof_C 	C 	0.2498	0.49986	0.31147	0.078
Mof_H 	H 	0.2485	0.5097	0.2874	0.025
Mof_N 	N 	0.0406	0.4589	0.25108	-0.159
Mof_N 	N 	0.99144	0.30865	0.10038	-0.158
Mof_C 	C 	0.0898	0.39301	0.21699	-0.147
Mof_H 	H 	0.1294	0.3687	0.2146	0.098
Mof_C 	C 	0.0955	0.42388	0.24557	0.083
Mof_H 	H 	0.1407	0.42	0.262	0.01
Mof_C 	C 	0.97616	0.46396	0.22705	0.075
Mof_H 	H 	0.9366	0.4881	0.2305	0.008
Mof_C 	C 	0.96595	0.43519	0.19766	-0.144
Mof_H 	H 	0.9202	0.44	0.1816	0.081
Mof_C 	C 	0.0239	0.39885	0.19185	0.063
Mof_C 	C 	0.01492	0.36783	0.15984	0.056
Mof_C 	C 	0.0305	0.32013	0.16262	-0.137
Mof_H 	H 	0.0492	0.3071	0.1844	0.076
Mof_C 	C 	0.0176	0.2925	0.13249	0.078
Mof_H 	H 	0.0278	0.2606	0.1347	-0.008
Mof_C 	C 	0.9789	0.35432	0.09747	0.077
Mof_H 	H 	0.9621	0.3663	0.0751	0.023
Mof_C 	C 	0.98958	0.3849	0.12623	-0.132
Mof_H 	H 	0.9798	0.4167	0.123	0.085
Mof_Cd	Cd	0.03818	0.00811	0.80221	0.365
Mof_O 	O 	0.12976	0.06562	0.77038	-0.266
Mof_O 	O 	0.99078	0.066	0.75994	-0.28
Mof_C 	C 	0.0669	0.07948	0.75289	0.281
Mof_C 	C 	0.0819	0.11334	0.72186	0.014
Mof_C 	C 	0.0166	0.1167	0.6986	-0.239
Mof_H 	H 	0.0213	0.1361	0.6784	0.117
Mof_H 	H 	0.9661	0.0996	0.7024	0.119
Mof_N 	N 	0.17482	0.98934	0.82763	-0.155
Mof_C 	C 	0.179	0.97562	0.86229	0.074
Mof_H 	H 	0.1276	0.9676	0.874	-0.004
Mof_C 	C 	0.2553	0.97274	0.88165	-0.142
Mof_H 	H 	0.2545	0.9633	0.9058	0.078
Mof_C 	C 	0.33354	0.98403	0.86489	0.056
Mof_C 	C 	0.3292	0.99691	0.82864	-0.135
Mof_H 	H 	0.3798	0.0036	0.8159	0.086
Mof_C 	C 	0.2498	0.99986	0.81147	0.079
Mof_H 	H 	0.2485	0.0097	0.7874	0.024
Mof_N 	N 	0.0406	0.9589	0.75108	-0.159
Mof_N 	N 	0.99144	0.80865	0.60038	-0.158
Mof_C 	C 	0.0898	0.89301	0.71699	-0.147
Mof_H 	H 	0.1294	0.8687	0.7146	0.098
Mof_C 	C 	0.0955	0.92388	0.74557	0.083
Mof_H 	H 	0.1407	0.92	0.762	0.01
Mof_C 	C 	0.97616	0.96396	0.72705	0.075
Mof_H 	H 	0.9366	0.9881	0.7305	0.008
Mof_C 	C 	0.96595	0.93519	0.69766	-0.144
Mof_H 	H 	0.9202	0.94	0.6816	0.081
Mof_C 	C 	0.0239	0.89885	0.69185	0.063
Mof_C 	C 	0.01492	0.86783	0.65984	0.056
Mof_C 	C 	0.0305	0.82013	0.66262	-0.137
Mof_H 	H 	0.0492	0.8071	0.6844	0.076
Mof_C 	C 	0.0176	0.7925	0.63249	0.078
Mof_H 	H 	0.0278	0.7606	0.6347	-0.008
Mof_C 	C 	0.9789	0.85432	0.59747	0.077
Mof_H 	H 	0.9621	0.8663	0.5751	0.023
Mof_C 	C 	0.98958	0.8849	0.62623	-0.131
Mof_H 	H 	0.9798	0.9167	0.623	0.085
_end
