data_functionalizedCrystal
_audit_creation_method	'EQeq! by Chris Wilmer'
_symmetry_space_group_name_H-M	'P1'
_symmetry_Int_Tables_number	1
_symmetry_cell_setting	triclinic
loop_
_symmetry_equiv_pos_as_xyz
  x,y,z
_cell_length_a	12.219
_cell_length_b	12.815
_cell_length_c	20.585
_cell_angle_alpha	95.187
_cell_angle_beta	92.184
_cell_angle_gamma	105.724
loop_
_atom_site_label
_atom_site_type_symbol
_atom_site_fract_x
_atom_site_fract_y
_atom_site_fract_z
_atom_site_charge
Mof_Cd	Cd	0.29108	0.68231	0.23629	0.428
Mof_Cd	Cd	0.77683	0.54427	0.28985	0.419
Mof_S 	S 	0.54351	0.17446	0.50112	-0.022
Mof_S 	S 	0.3721	0.11449	0.48035	-0.031
Mof_S 	S 	0.93323	0.11714	0.07024	-0.04
Mof_S 	S 	0.06972	0.20991	0.02796	-0.02
Mof_O 	O 	0.4614	0.7925	0.1916	-0.246
Mof_O 	O 	0.2953	0.7706	0.13998	-0.287
Mof_O 	O 	0.259	0.5736	0.3329	-0.266
Mof_O 	O 	0.4322	0.6316	0.2995	-0.271
Mof_O 	O 	0.7619	0.4235	0.18712	-0.256
Mof_O 	O 	0.8688	0.5969	0.1983	-0.253
Mof_O 	O 	0.7947	0.7294	0.3248	-0.261
Mof_O 	O 	0.8855	0.6537	0.3875	-0.286
Mof_N 	N 	0.689	0.4184	0.3568	-0.16
Mof_N 	N 	0.3233	0.8292	0.3178	-0.144
Mof_N 	N 	0.2252	0.5189	0.1704	-0.147
Mof_N 	N 	0.0474	0.8516	0.1686	-0.123
Mof_C 	C 	0.7099	0.3266	0.4515	-0.156
Mof_H 	H 	0.7557	0.3142	0.4854	0.096
Mof_C 	C 	0.5942	0.2688	0.4432	0.091
Mof_C 	C 	0.5233	0.2886	0.3933	-0.151
Mof_H 	H 	0.4453	0.2552	0.3877	0.092
Mof_C 	C 	0.5841	0.3662	0.3513	0.097
Mof_H 	H 	0.5414	0.3795	0.3162	0.007
Mof_C 	C 	0.7532	0.3985	0.4111	0.085
Mof_H 	H 	0.8293	0.4382	0.4183	0.016
Mof_C 	C 	0.3947	0.8114	0.1454	0.29
Mof_C 	C 	0.4514	0.8921	0.0962	-0.041
Mof_C 	C 	0.5614	0.9648	0.1115	-0.002
Mof_H 	H 	0.6023	0.9631	0.1502	0.045
Mof_C 	C 	0.6051	0.0357	0.0694	-0.089
Mof_H 	H 	0.6737	0.0873	0.0826	0.069
Mof_C 	C 	0.5584	0.0394	0.0088	0.037
Mof_C 	C 	0.3947	0.8888	0.0373	-0.063
Mof_H 	H 	0.3241	0.8384	0.0274	0.069
Mof_C 	C 	0.266	0.5006	0.1103	0.078
Mof_H 	H 	0.3246	0.5561	0.0972	0.021
Mof_C 	C 	0.2265	0.4049	0.0672	-0.141
Mof_H 	H 	0.261	0.3938	0.0286	0.091
Mof_C 	C 	0.1322	0.3279	0.0861	0.088
Mof_C 	C 	0.0874	0.3451	0.1475	-0.148
Mof_H 	H 	0.0272	0.2919	0.1613	0.091
Mof_C 	C 	0.1331	0.4391	0.1857	0.087
Mof_H 	H 	0.1	0.4505	0.2247	0.014
Mof_C 	C 	0.1185	0.9168	0.1304	0.072
Mof_H 	H 	0.1889	0.9049	0.1228	0.03
Mof_C 	C 	0.0879	0.0028	0.1018	-0.146
Mof_H 	H 	0.14	0.0496	0.0784	0.09
Mof_C 	C 	0.9817	0.0163	0.1088	0.106
Mof_C 	C 	0.9129	0.9521	0.1447	-0.163
Mof_H 	H 	0.8398	0.9591	0.1497	0.095
Mof_C 	C 	0.3655	0.5862	0.3357	0.301
Mof_C 	C 	0.4518	0.9928	0.3789	-0.142
Mof_H 	H 	0.5241	0.0414	0.3858	0.088
Mof_C 	C 	0.426	0.9037	0.3302	0.078
Mof_H 	H 	0.4844	0.8952	0.3044	0.029
Mof_C 	C 	0.3595	0.0035	0.4168	0.093
Mof_C 	C 	0.2581	0.9309	0.4095	-0.149
Mof_H 	H 	0.1998	0.9361	0.4363	0.092
Mof_C 	C 	0.8766	0.4855	0.0986	-0.054
Mof_C 	C 	0.978	0.5662	0.0797	-0.046
Mof_H 	H 	0.0106	0.6292	0.1076	0.073
Mof_C 	C 	0.0277	0.5487	0.0184	0.016
Mof_C 	C 	0.1224	0.6312	0.9992	-0.012
Mof_C 	C 	0.8355	0.3853	0.0591	0.026
Mof_C 	C 	0.8324	0.5018	0.1649	0.266
Mof_C 	C 	0.4024	0.5434	0.4019	-0.037
Mof_C 	C 	0.8641	0.7343	0.3738	0.305
Mof_C 	C 	0.9023	0.8421	0.4163	-0.045
Mof_C 	C 	0.8736	0.9352	0.3955	-0.046
Mof_H 	H 	0.8299	0.9286	0.3566	0.066
Mof_C 	C 	0.9595	0.8483	0.4721	-0.048
Mof_H 	H 	0.9661	0.7844	0.488	0.062
Mof_C 	C 	0.9485	0.8731	0.1755	0.091
Mof_H 	H 	0.8989	0.8327	0.203	0.028
Mof_C 	C 	0.2426	0.8422	0.3572	0.078
Mof_H 	H 	0.1716	0.7913	0.3509	0.018
Mof_C 	C 	0.5401	0.5362	0.4896	0.032
Mof_C 	C 	0.6479	0.5849	0.5122	-0.08
Mof_H 	H 	0.6991	0.6408	0.4942	0.069
Mof_C 	C 	0.9098	0.0343	0.4323	-0.002
Mof_C 	C 	0.0137	0.9534	0.5105	0.004
Mof_C 	C 	0.3302	0.4644	0.4315	-0.012
Mof_H 	H 	0.2564	0.4392	0.4123	0.052
Mof_C 	C 	0.5309	0.5939	0.4231	-0.058
Mof_H 	H 	0.5868	0.6433	0.4033	0.071
Mof_Cd	Cd	0.70892	0.31769	0.76371	0.429
Mof_Cd	Cd	0.22317	0.45573	0.71015	0.42
Mof_S 	S 	0.45649	0.82554	0.49888	-0.021
Mof_S 	S 	0.6279	0.88551	0.51965	-0.03
Mof_S 	S 	0.06677	0.88286	0.92976	-0.04
Mof_S 	S 	0.93028	0.79009	0.97204	-0.02
Mof_O 	O 	0.5386	0.2075	0.8084	-0.246
Mof_O 	O 	0.7047	0.2294	0.86002	-0.287
Mof_O 	O 	0.741	0.4264	0.6671	-0.266
Mof_O 	O 	0.5678	0.3684	0.7005	-0.271
Mof_O 	O 	0.2381	0.5765	0.81288	-0.256
Mof_O 	O 	0.1312	0.4031	0.8017	-0.253
Mof_O 	O 	0.2053	0.2706	0.6752	-0.261
Mof_O 	O 	0.1145	0.3463	0.6125	-0.286
Mof_N 	N 	0.311	0.5816	0.6432	-0.16
Mof_N 	N 	0.6767	0.1708	0.6822	-0.144
Mof_N 	N 	0.7748	0.4811	0.8296	-0.147
Mof_N 	N 	0.9526	0.1484	0.8314	-0.123
Mof_C 	C 	0.2901	0.6734	0.5485	-0.156
Mof_H 	H 	0.2443	0.6858	0.5146	0.096
Mof_C 	C 	0.4058	0.7312	0.5568	0.091
Mof_C 	C 	0.4767	0.7114	0.6067	-0.151
Mof_H 	H 	0.5547	0.7448	0.6123	0.092
Mof_C 	C 	0.4159	0.6338	0.6487	0.097
Mof_H 	H 	0.4586	0.6205	0.6838	0.007
Mof_C 	C 	0.2468	0.6015	0.5889	0.085
Mof_H 	H 	0.1707	0.5618	0.5817	0.016
Mof_C 	C 	0.6053	0.1886	0.8546	0.29
Mof_C 	C 	0.5486	0.1079	0.9038	-0.041
Mof_C 	C 	0.4386	0.0352	0.8885	-0.002
Mof_H 	H 	0.3977	0.0369	0.8498	0.045
Mof_C 	C 	0.3949	0.9643	0.9306	-0.089
Mof_H 	H 	0.3263	0.9127	0.9174	0.069
Mof_C 	C 	0.4416	0.9606	0.9912	0.037
Mof_C 	C 	0.6053	0.1112	0.9627	-0.063
Mof_H 	H 	0.6759	0.1616	0.9726	0.069
Mof_C 	C 	0.734	0.4994	0.8897	0.078
Mof_H 	H 	0.6754	0.4439	0.9028	0.021
Mof_C 	C 	0.7735	0.5951	0.9328	-0.141
Mof_H 	H 	0.739	0.6062	0.9714	0.091
Mof_C 	C 	0.8678	0.6721	0.9139	0.088
Mof_C 	C 	0.9126	0.6549	0.8525	-0.148
Mof_H 	H 	0.9728	0.7081	0.8387	0.091
Mof_C 	C 	0.8669	0.5609	0.8143	0.087
Mof_H 	H 	0.9	0.5495	0.7753	0.014
Mof_C 	C 	0.8815	0.0832	0.8696	0.072
Mof_H 	H 	0.8111	0.0951	0.8772	0.03
Mof_C 	C 	0.9121	0.9972	0.8982	-0.146
Mof_H 	H 	0.86	0.9504	0.9216	0.09
Mof_C 	C 	0.0183	0.9837	0.8912	0.106
Mof_C 	C 	0.0871	0.0479	0.8553	-0.163
Mof_H 	H 	0.1602	0.0409	0.8503	0.095
Mof_C 	C 	0.6345	0.4138	0.6643	0.301
Mof_C 	C 	0.5482	0.0072	0.6211	-0.142
Mof_H 	H 	0.4759	0.9586	0.6142	0.088
Mof_C 	C 	0.574	0.0963	0.6698	0.078
Mof_H 	H 	0.5156	0.1048	0.6956	0.029
Mof_C 	C 	0.6405	0.9965	0.5832	0.093
Mof_C 	C 	0.7419	0.0691	0.5905	-0.149
Mof_H 	H 	0.8002	0.0639	0.5637	0.092
Mof_C 	C 	0.1234	0.5145	0.9014	-0.054
Mof_C 	C 	0.022	0.4338	0.9203	-0.046
Mof_H 	H 	0.9894	0.3708	0.8924	0.073
Mof_C 	C 	0.9723	0.4513	0.9816	0.016
Mof_C 	C 	0.8776	0.3688	0.0008	-0.012
Mof_C 	C 	0.1645	0.6147	0.9409	0.026
Mof_C 	C 	0.1676	0.4982	0.8351	0.266
Mof_C 	C 	0.5976	0.4566	0.5981	-0.037
Mof_C 	C 	0.1359	0.2657	0.6262	0.305
Mof_C 	C 	0.0977	0.1579	0.5837	-0.045
Mof_C 	C 	0.1264	0.0648	0.6045	-0.046
Mof_H 	H 	0.1701	0.0714	0.6434	0.066
Mof_C 	C 	0.0405	0.1517	0.5279	-0.048
Mof_H 	H 	0.0339	0.2156	0.512	0.062
Mof_C 	C 	0.0515	0.1269	0.8245	0.091
Mof_H 	H 	0.1011	0.1673	0.797	0.028
Mof_C 	C 	0.7574	0.1578	0.6428	0.078
Mof_H 	H 	0.8284	0.2087	0.6491	0.018
Mof_C 	C 	0.4599	0.4638	0.5104	0.032
Mof_C 	C 	0.3521	0.4151	0.4878	-0.08
Mof_H 	H 	0.3009	0.3592	0.5058	0.069
Mof_C 	C 	0.0902	0.9657	0.5677	-0.002
Mof_C 	C 	0.9863	0.0466	0.4895	0.004
Mof_C 	C 	0.6698	0.5356	0.5685	-0.012
Mof_H 	H 	0.7436	0.5608	0.5877	0.052
Mof_C 	C 	0.4691	0.4061	0.5769	-0.058
Mof_H 	H 	0.4132	0.3567	0.5967	0.071
_end
