data_functionalizedCrystal
_audit_creation_method	'EQeq! by Chris Wilmer'
_symmetry_space_group_name_H-M	'P1'
_symmetry_Int_Tables_number	1
_symmetry_cell_setting	triclinic
loop_
_symmetry_equiv_pos_as_xyz
  x,y,z
_cell_length_a	6.734
_cell_length_b	11.062
_cell_length_c	11.1809
_cell_angle_alpha	119.649
_cell_angle_beta	107.526
_cell_angle_gamma	90
loop_
_atom_site_label
_atom_site_type_symbol
_atom_site_fract_x
_atom_site_fract_y
_atom_site_fract_z
_atom_site_charge
Mof_Ga	Ga	9.2945e-33	0.5	-0	2.699
Mof_Ga	Ga	0.5	0.5	-0	3.312
Mof_H 	H 	0.8485	0.5122	0.6148	0.118
Mof_H 	H 	0.6515	0.8974	0.3852	0.162
Mof_H 	H 	0.7337	0.4878	0.3852	0.009
Mof_H 	H 	0.7663	0.1026	0.6148	-0.114
Mof_H 	H 	0.1515	0.4878	0.3852	-0.054
Mof_H 	H 	0.3485	0.1026	0.6148	-0.101
Mof_H 	H 	0.2663	0.5122	0.6148	0.058
Mof_H 	H 	0.2337	0.8974	0.3852	0.186
Mof_H 	H 	0.75	0.347	-0	0.6
Mof_H 	H 	0.25	0.653	-0	0.548
Mof_C 	C 	0.7056	0.5071	0.5694	-0.081
Mof_C 	C 	0.7944	0.9377	0.4306	-0.411
Mof_C 	C 	0.6362	0.4929	0.4306	0.13
Mof_C 	C 	0.8638	0.0623	0.5694	0.573
Mof_C 	C 	0.2944	0.4929	0.4306	0.119
Mof_C 	C 	0.2056	0.0623	0.5694	0.464
Mof_C 	C 	0.3638	0.5071	0.5694	-0.087
Mof_C 	C 	0.1362	0.9377	0.4306	-0.567
Mof_C 	C 	0.5687	0.5135	0.6374	-0.064
Mof_C 	C 	0.6442	0.5281	0.7884	0.673
Mof_C 	C 	0.9313	0.8761	0.3626	0.293
Mof_C 	C 	0.8558	0.7397	0.2116	0.595
Mof_C 	C 	0.4313	0.4865	0.3626	-0.308
Mof_C 	C 	0.3558	0.4719	0.2116	0.803
Mof_C 	C 	0.0687	0.1239	0.6374	-0.646
Mof_C 	C 	0.1442	0.2603	0.7884	0.874
Mof_O 	O 	0.8318	0.5325	0.842	-0.536
Mof_O 	O 	0.6682	0.6905	0.158	-0.915
Mof_O 	O 	0.4898	0.4675	0.158	-0.973
Mof_O 	O 	0.0102	0.3095	0.842	-0.707
Mof_O 	O 	0.1682	0.4675	0.158	-0.939
Mof_O 	O 	0.3318	0.3095	0.842	-0.733
Mof_O 	O 	0.5102	0.5325	0.842	-0.68
Mof_O 	O 	0.9898	0.6905	0.158	-0.743
Mof_O 	O 	0.75	0.4208	-0	-1.743
Mof_O 	O 	0.25	0.5792	-0	-1.814
_end
