data_functionalizedCrystal
_audit_creation_method	'EQeq! by Chris Wilmer'
_symmetry_space_group_name_H-M	'P1'
_symmetry_Int_Tables_number	1
_symmetry_cell_setting	triclinic
loop_
_symmetry_equiv_pos_as_xyz
  x,y,z
_cell_length_a	9.8669
_cell_length_b	10.425
_cell_length_c	12.4397
_cell_angle_alpha	111.316
_cell_angle_beta	102.568
_cell_angle_gamma	93.8625
loop_
_atom_site_label
_atom_site_type_symbol
_atom_site_fract_x
_atom_site_fract_y
_atom_site_fract_z
_atom_site_charge
Mof_C 	C 	0.7386	0.3028	0.408	0.301
Mof_C 	C 	0.8946	0.3224	0.4619	-0.001
Mof_C 	C 	0.9476	0.396	0.5844	-0.106
Mof_H 	H 	0.8878	0.4338	0.6319	0.111
Mof_C 	C 	0.0893	0.4121	0.6344	0.142
Mof_C 	C 	0.1819	0.36	0.5659	-0.106
Mof_H 	H 	0.2776	0.3721	0.6013	0.112
Mof_C 	C 	0.1285	0.2893	0.4432	-0.002
Mof_C 	C 	0.9846	0.2695	0.3914	-0.043
Mof_H 	H 	0.949	0.2208	0.3094	0.091
Mof_C 	C 	0.2262	0.2364	0.3668	0.284
Mof_C 	C 	0.2985	0.5299	0.9409	0.149
Mof_C 	C 	0.3266	0.6752	0.9896	-0.112
Mof_H 	H 	0.3056	0.7251	0.9411	0.119
Mof_C 	C 	0.3863	0.7443	0.1113	0.014
Mof_C 	C 	0.4168	0.6685	0.1829	-0.047
Mof_H 	H 	0.4562	0.7151	0.2647	0.091
Mof_C 	C 	0.3888	0.5237	0.1333	0.002
Mof_C 	C 	0.3318	0.4543	0.0109	-0.11
Mof_H 	H 	0.3163	0.3573	0.9765	0.119
Mof_C 	C 	0.4228	0.4414	0.2105	0.304
Mof_C 	C 	0.4144	0.901	0.1655	0.281
Mof_Cd	Cd	0.4533	0.17885	0.25827	0.51
Mof_N 	N 	0.1416	0.4905	0.7622	-0.043
Mof_N 	N 	0.2431	0.4517	0.8146	-0.05
Mof_O 	O 	0.6895	0.2246	0.3003	-0.26
Mof_O 	O 	0.6661	0.3634	0.4758	-0.275
Mof_O 	O 	0.1814	0.1457	0.2647	-0.221
Mof_O 	O 	0.3576	0.2862	0.4111	-0.283
Mof_O 	O 	0.3947	0.3106	0.1583	-0.264
Mof_O 	O 	0.4766	0.507	0.319	-0.278
Mof_O 	O 	0.3892	0.9661	0.099	-0.235
Mof_O 	O 	0.461	0.9618	0.2762	-0.237
Mof_O 	O 	0.0653	0.574	0.8131	-0.106
Mof_O 	O 	0.2503	0.3172	0.7779	-0.108
Mof_C 	C 	0.2614	0.6972	0.592	0.3
Mof_C 	C 	0.1054	0.6776	0.5381	-0.002
Mof_C 	C 	0.0524	0.604	0.4156	-0.107
Mof_H 	H 	0.1122	0.5662	0.3681	0.11
Mof_C 	C 	0.9107	0.5879	0.3656	0.142
Mof_C 	C 	0.8181	0.64	0.4341	-0.106
Mof_H 	H 	0.7224	0.6279	0.3987	0.112
Mof_C 	C 	0.8715	0.7107	0.5568	-0.002
Mof_C 	C 	0.0154	0.7305	0.6086	-0.043
Mof_H 	H 	0.051	0.7792	0.6906	0.091
Mof_C 	C 	0.7738	0.7636	0.6332	0.284
Mof_C 	C 	0.7015	0.4701	0.0591	0.149
Mof_C 	C 	0.6734	0.3248	0.0104	-0.112
Mof_H 	H 	0.6944	0.2749	0.0589	0.119
Mof_C 	C 	0.6137	0.2557	0.8887	0.014
Mof_C 	C 	0.5832	0.3315	0.8171	-0.047
Mof_H 	H 	0.5438	0.2849	0.7353	0.091
Mof_C 	C 	0.6112	0.4763	0.8667	0.002
Mof_C 	C 	0.6682	0.5457	0.9891	-0.11
Mof_H 	H 	0.6837	0.6427	0.0235	0.119
Mof_C 	C 	0.5772	0.5586	0.7895	0.304
Mof_C 	C 	0.5856	0.099	0.8345	0.281
Mof_Cd	Cd	0.5467	0.82115	0.74173	0.51
Mof_N 	N 	0.8584	0.5095	0.2378	-0.043
Mof_N 	N 	0.7569	0.5483	0.1854	-0.05
Mof_O 	O 	0.3105	0.7754	0.6997	-0.26
Mof_O 	O 	0.3339	0.6366	0.5242	-0.275
Mof_O 	O 	0.8186	0.8543	0.7353	-0.221
Mof_O 	O 	0.6424	0.7138	0.5889	-0.283
Mof_O 	O 	0.6053	0.6894	0.8417	-0.264
Mof_O 	O 	0.5234	0.493	0.681	-0.278
Mof_O 	O 	0.6108	0.0339	0.901	-0.235
Mof_O 	O 	0.539	0.0382	0.7238	-0.237
Mof_O 	O 	0.9347	0.426	0.1869	-0.106
Mof_O 	O 	0.7497	0.6828	0.2221	-0.108
Mof_Cd	Cd	0.5	0.5	0.5	0.518
_end
