data_functionalizedCrystal
_audit_creation_method	'EQeq! by Chris Wilmer'
_symmetry_space_group_name_H-M	'P1'
_symmetry_Int_Tables_number	1
_symmetry_cell_setting	triclinic
loop_
_symmetry_equiv_pos_as_xyz
  x,y,z
_cell_length_a	19.9818
_cell_length_b	19.9818
_cell_length_c	19.9818
_cell_angle_alpha	90
_cell_angle_beta	90
_cell_angle_gamma	90
loop_
_atom_site_label
_atom_site_type_symbol
_atom_site_fract_x
_atom_site_fract_y
_atom_site_fract_z
_atom_site_charge
Mof_La	La	0.74739	0.15339	0.00707	1.693
Mof_O 	O 	0.6443	0.2098	0.0467	-0.504
Mof_O 	O 	0.5858	0.2981	0.0809	-0.484
Mof_O 	O 	0.8437	0.2147	0.9586	-0.502
Mof_O 	O 	0.8891	0.3017	0.9061	-0.471
Mof_N 	N 	0.7424	0.2826	0.9994	-0.196
Mof_C 	C 	0.6348	0.2734	0.053	0.373
Mof_C 	C 	0.6882	0.3175	0.0247	-0.096
Mof_C 	C 	0.6865	0.386	0.027	-0.004
Mof_H 	H 	0.6508	0.4079	0.0473	0.002
Mof_C 	C 	0.7371	0.4214	0.9993	-0.073
Mof_H 	H 	0.7357	0.4679	0.0003	0.013
Mof_C 	C 	0.7917	0.389	0.9691	-0.016
Mof_H 	H 	0.8257	0.4126	0.9479	0.003
Mof_C 	C 	0.7916	0.3193	0.973	-0.083
Mof_C 	C 	0.8455	0.2773	0.9441	0.354
Mof_La	La	0.75261	0.84661	0.50707	1.691
Mof_O 	O 	0.8557	0.7902	0.5467	-0.505
Mof_O 	O 	0.9142	0.7019	0.5809	-0.484
Mof_O 	O 	0.6563	0.7853	0.4586	-0.503
Mof_O 	O 	0.6109	0.6983	0.4061	-0.472
Mof_N 	N 	0.7576	0.7174	0.4994	-0.197
Mof_C 	C 	0.8652	0.7266	0.553	0.373
Mof_C 	C 	0.8118	0.6825	0.5247	-0.098
Mof_C 	C 	0.8135	0.614	0.527	0
Mof_H 	H 	0.8492	0.5921	0.5473	0.001
Mof_C 	C 	0.7629	0.5786	0.4993	-0.079
Mof_H 	H 	0.7643	0.5321	0.5003	0.016
Mof_C 	C 	0.7083	0.611	0.4691	-0.013
Mof_H 	H 	0.6743	0.5874	0.4479	0.001
Mof_C 	C 	0.7084	0.6807	0.473	-0.085
Mof_C 	C 	0.6545	0.7227	0.4441	0.354
Mof_La	La	0.25261	0.65339	0.49293	1.69
Mof_O 	O 	0.3557	0.7098	0.4533	-0.505
Mof_O 	O 	0.4142	0.7981	0.4191	-0.485
Mof_O 	O 	0.1563	0.7147	0.5414	-0.503
Mof_O 	O 	0.1109	0.8017	0.5939	-0.472
Mof_N 	N 	0.2576	0.7826	0.5006	-0.197
Mof_C 	C 	0.3652	0.7734	0.447	0.373
Mof_C 	C 	0.3118	0.8175	0.4753	-0.098
Mof_C 	C 	0.3135	0.886	0.473	0
Mof_H 	H 	0.3492	0.9079	0.4527	0
Mof_C 	C 	0.2629	0.9214	0.5007	-0.08
Mof_H 	H 	0.2643	0.9679	0.4997	0.016
Mof_C 	C 	0.2083	0.889	0.5309	-0.013
Mof_H 	H 	0.1743	0.9126	0.5521	0.001
Mof_C 	C 	0.2084	0.8193	0.527	-0.085
Mof_C 	C 	0.1545	0.7773	0.5559	0.354
Mof_La	La	0.24739	0.34661	0.99293	1.685
Mof_O 	O 	0.1443	0.2902	0.9533	-0.505
Mof_O 	O 	0.0858	0.2019	0.9191	-0.485
Mof_O 	O 	0.3437	0.2853	0.0414	-0.501
Mof_O 	O 	0.3891	0.1983	0.0939	-0.471
Mof_N 	N 	0.2424	0.2174	0.0006	-0.196
Mof_C 	C 	0.1348	0.2266	0.947	0.371
Mof_C 	C 	0.1882	0.1825	0.9753	-0.093
Mof_C 	C 	0.1865	0.114	0.973	-0.019
Mof_H 	H 	0.1508	0.0921	0.9527	0.007
Mof_C 	C 	0.2371	0.0786	0.0007	-0.051
Mof_H 	H 	0.2357	0.0321	0.9997	0.004
Mof_C 	C 	0.2917	0.111	0.0309	-0.027
Mof_H 	H 	0.3257	0.0874	0.0521	0.007
Mof_C 	C 	0.2916	0.1807	0.027	-0.078
Mof_C 	C 	0.3455	0.2227	0.0559	0.352
Mof_La	La	0.00707	0.74739	0.15339	1.692
Mof_O 	O 	0.0467	0.6443	0.2098	-0.505
Mof_O 	O 	0.0809	0.5858	0.2981	-0.485
Mof_O 	O 	0.9586	0.8437	0.2147	-0.503
Mof_O 	O 	0.9061	0.8891	0.3017	-0.472
Mof_N 	N 	0.9994	0.7424	0.2826	-0.197
Mof_C 	C 	0.053	0.6348	0.2734	0.373
Mof_C 	C 	0.0247	0.6882	0.3175	-0.096
Mof_C 	C 	0.027	0.6865	0.386	-0.004
Mof_H 	H 	0.0473	0.6508	0.4079	0.002
Mof_C 	C 	0.9993	0.7371	0.4214	-0.073
Mof_H 	H 	0.0003	0.7357	0.4679	0.013
Mof_C 	C 	0.9691	0.7917	0.389	-0.016
Mof_H 	H 	0.9479	0.8257	0.4126	0.003
Mof_C 	C 	0.973	0.7916	0.3193	-0.083
Mof_C 	C 	0.9441	0.8455	0.2773	0.354
Mof_La	La	0.50707	0.75261	0.84661	1.691
Mof_O 	O 	0.5467	0.8557	0.7902	-0.505
Mof_O 	O 	0.5809	0.9142	0.7019	-0.484
Mof_O 	O 	0.4586	0.6563	0.7853	-0.503
Mof_O 	O 	0.4061	0.6109	0.6983	-0.472
Mof_N 	N 	0.4994	0.7576	0.7174	-0.197
Mof_C 	C 	0.553	0.8652	0.7266	0.373
Mof_C 	C 	0.5247	0.8118	0.6825	-0.098
Mof_C 	C 	0.527	0.8135	0.614	0
Mof_H 	H 	0.5473	0.8492	0.5921	0.001
Mof_C 	C 	0.4993	0.7629	0.5786	-0.079
Mof_H 	H 	0.5003	0.7643	0.5321	0.016
Mof_C 	C 	0.4691	0.7083	0.611	-0.013
Mof_H 	H 	0.4479	0.6743	0.5874	0.001
Mof_C 	C 	0.473	0.7084	0.6807	-0.085
Mof_C 	C 	0.4441	0.6545	0.7227	0.354
Mof_La	La	0.49293	0.25261	0.65339	1.69
Mof_O 	O 	0.4533	0.3557	0.7098	-0.505
Mof_O 	O 	0.4191	0.4142	0.7981	-0.485
Mof_O 	O 	0.5414	0.1563	0.7147	-0.503
Mof_O 	O 	0.5939	0.1109	0.8017	-0.472
Mof_N 	N 	0.5006	0.2576	0.7826	-0.197
Mof_C 	C 	0.447	0.3652	0.7734	0.373
Mof_C 	C 	0.4753	0.3118	0.8175	-0.098
Mof_C 	C 	0.473	0.3135	0.886	0
Mof_H 	H 	0.4527	0.3492	0.9079	0
Mof_C 	C 	0.5007	0.2629	0.9214	-0.08
Mof_H 	H 	0.4997	0.2643	0.9679	0.016
Mof_C 	C 	0.5309	0.2083	0.889	-0.013
Mof_H 	H 	0.5521	0.1743	0.9126	0.001
Mof_C 	C 	0.527	0.2084	0.8193	-0.085
Mof_C 	C 	0.5559	0.1545	0.7773	0.354
Mof_La	La	0.99293	0.24739	0.34661	1.685
Mof_O 	O 	0.9533	0.1443	0.2902	-0.505
Mof_O 	O 	0.9191	0.0858	0.2019	-0.485
Mof_O 	O 	0.0414	0.3437	0.2853	-0.501
Mof_O 	O 	0.0939	0.3891	0.1983	-0.471
Mof_N 	N 	0.0006	0.2424	0.2174	-0.196
Mof_C 	C 	0.947	0.1348	0.2266	0.371
Mof_C 	C 	0.9753	0.1882	0.1825	-0.093
Mof_C 	C 	0.973	0.1865	0.114	-0.019
Mof_H 	H 	0.9527	0.1508	0.0921	0.007
Mof_C 	C 	0.0007	0.2371	0.0786	-0.051
Mof_H 	H 	0.9997	0.2357	0.0321	0.004
Mof_C 	C 	0.0309	0.2917	0.111	-0.027
Mof_H 	H 	0.0521	0.3257	0.0874	0.007
Mof_C 	C 	0.027	0.2916	0.1807	-0.078
Mof_C 	C 	0.0559	0.3455	0.2227	0.352
Mof_La	La	0.15339	0.00707	0.74739	1.692
Mof_O 	O 	0.2098	0.0467	0.6443	-0.505
Mof_O 	O 	0.2981	0.0809	0.5858	-0.485
Mof_O 	O 	0.2147	0.9586	0.8437	-0.503
Mof_O 	O 	0.3017	0.9061	0.8891	-0.472
Mof_N 	N 	0.2826	0.9994	0.7424	-0.197
Mof_C 	C 	0.2734	0.053	0.6348	0.373
Mof_C 	C 	0.3175	0.0247	0.6882	-0.096
Mof_C 	C 	0.386	0.027	0.6865	-0.004
Mof_H 	H 	0.4079	0.0473	0.6508	0.002
Mof_C 	C 	0.4214	0.9993	0.7371	-0.073
Mof_H 	H 	0.4679	0.0003	0.7357	0.013
Mof_C 	C 	0.389	0.9691	0.7917	-0.016
Mof_H 	H 	0.4126	0.9479	0.8257	0.003
Mof_C 	C 	0.3193	0.973	0.7916	-0.083
Mof_C 	C 	0.2773	0.9441	0.8455	0.354
Mof_La	La	0.84661	0.50707	0.75261	1.691
Mof_O 	O 	0.7902	0.5467	0.8557	-0.505
Mof_O 	O 	0.7019	0.5809	0.9142	-0.484
Mof_O 	O 	0.7853	0.4586	0.6563	-0.503
Mof_O 	O 	0.6983	0.4061	0.6109	-0.472
Mof_N 	N 	0.7174	0.4994	0.7576	-0.197
Mof_C 	C 	0.7266	0.553	0.8652	0.373
Mof_C 	C 	0.6825	0.5247	0.8118	-0.098
Mof_C 	C 	0.614	0.527	0.8135	0
Mof_H 	H 	0.5921	0.5473	0.8492	0.001
Mof_C 	C 	0.5786	0.4993	0.7629	-0.079
Mof_H 	H 	0.5321	0.5003	0.7643	0.016
Mof_C 	C 	0.611	0.4691	0.7083	-0.013
Mof_H 	H 	0.5874	0.4479	0.6743	0.001
Mof_C 	C 	0.6807	0.473	0.7084	-0.085
Mof_C 	C 	0.7227	0.4441	0.6545	0.354
Mof_La	La	0.65339	0.49293	0.25261	1.69
Mof_O 	O 	0.7098	0.4533	0.3557	-0.505
Mof_O 	O 	0.7981	0.4191	0.4142	-0.485
Mof_O 	O 	0.7147	0.5414	0.1563	-0.503
Mof_O 	O 	0.8017	0.5939	0.1109	-0.472
Mof_N 	N 	0.7826	0.5006	0.2576	-0.197
Mof_C 	C 	0.7734	0.447	0.3652	0.373
Mof_C 	C 	0.8175	0.4753	0.3118	-0.098
Mof_C 	C 	0.886	0.473	0.3135	0
Mof_H 	H 	0.9079	0.4527	0.3492	0
Mof_C 	C 	0.9214	0.5007	0.2629	-0.08
Mof_H 	H 	0.9679	0.4997	0.2643	0.016
Mof_C 	C 	0.889	0.5309	0.2083	-0.013
Mof_H 	H 	0.9126	0.5521	0.1743	0.001
Mof_C 	C 	0.8193	0.527	0.2084	-0.085
Mof_C 	C 	0.7773	0.5559	0.1545	0.354
Mof_La	La	0.34661	0.99293	0.24739	1.685
Mof_O 	O 	0.2902	0.9533	0.1443	-0.505
Mof_O 	O 	0.2019	0.9191	0.0858	-0.485
Mof_O 	O 	0.2853	0.0414	0.3437	-0.501
Mof_O 	O 	0.1983	0.0939	0.3891	-0.471
Mof_N 	N 	0.2174	0.0006	0.2424	-0.196
Mof_C 	C 	0.2266	0.947	0.1348	0.371
Mof_C 	C 	0.1825	0.9753	0.1882	-0.093
Mof_C 	C 	0.114	0.973	0.1865	-0.019
Mof_H 	H 	0.0921	0.9527	0.1508	0.007
Mof_C 	C 	0.0786	0.0007	0.2371	-0.051
Mof_H 	H 	0.0321	0.9997	0.2357	0.004
Mof_C 	C 	0.111	0.0309	0.2917	-0.027
Mof_H 	H 	0.0874	0.0521	0.3257	0.007
Mof_C 	C 	0.1807	0.027	0.2916	-0.078
Mof_C 	C 	0.2227	0.0559	0.3455	0.352
Mof_La	La	0.25261	0.84661	0.99293	1.692
Mof_O 	O 	0.3557	0.7902	0.9533	-0.505
Mof_O 	O 	0.4142	0.7019	0.9191	-0.485
Mof_O 	O 	0.1563	0.7853	0.0414	-0.503
Mof_O 	O 	0.1109	0.6983	0.0939	-0.472
Mof_N 	N 	0.2576	0.7174	0.0006	-0.197
Mof_C 	C 	0.3652	0.7266	0.947	0.373
Mof_C 	C 	0.3118	0.6825	0.9753	-0.096
Mof_C 	C 	0.3135	0.614	0.973	-0.004
Mof_H 	H 	0.3492	0.5921	0.9527	0.002
Mof_C 	C 	0.2629	0.5786	0.0007	-0.073
Mof_H 	H 	0.2643	0.5321	0.9997	0.013
Mof_C 	C 	0.2083	0.611	0.0309	-0.016
Mof_H 	H 	0.1743	0.5874	0.0521	0.003
Mof_C 	C 	0.2084	0.6807	0.027	-0.083
Mof_C 	C 	0.1545	0.7227	0.0559	0.354
Mof_La	La	0.24739	0.15339	0.49293	1.691
Mof_O 	O 	0.1443	0.2098	0.4533	-0.505
Mof_O 	O 	0.0858	0.2981	0.4191	-0.484
Mof_O 	O 	0.3437	0.2147	0.5414	-0.503
Mof_O 	O 	0.3891	0.3017	0.5939	-0.472
Mof_N 	N 	0.2424	0.2826	0.5006	-0.197
Mof_C 	C 	0.1348	0.2734	0.447	0.373
Mof_C 	C 	0.1882	0.3175	0.4753	-0.098
Mof_C 	C 	0.1865	0.386	0.473	0
Mof_H 	H 	0.1508	0.4079	0.4527	0.001
Mof_C 	C 	0.2371	0.4214	0.5007	-0.079
Mof_H 	H 	0.2357	0.4679	0.4997	0.016
Mof_C 	C 	0.2917	0.389	0.5309	-0.013
Mof_H 	H 	0.3257	0.4126	0.5521	0.001
Mof_C 	C 	0.2916	0.3193	0.527	-0.085
Mof_C 	C 	0.3455	0.2773	0.5559	0.354
Mof_La	La	0.74739	0.34661	0.50707	1.69
Mof_O 	O 	0.6443	0.2902	0.5467	-0.505
Mof_O 	O 	0.5858	0.2019	0.5809	-0.485
Mof_O 	O 	0.8437	0.2853	0.4586	-0.503
Mof_O 	O 	0.8891	0.1983	0.4061	-0.472
Mof_N 	N 	0.7424	0.2174	0.4994	-0.197
Mof_C 	C 	0.6348	0.2266	0.553	0.373
Mof_C 	C 	0.6882	0.1825	0.5247	-0.098
Mof_C 	C 	0.6865	0.114	0.527	0
Mof_H 	H 	0.6508	0.0921	0.5473	0
Mof_C 	C 	0.7371	0.0786	0.4993	-0.08
Mof_H 	H 	0.7357	0.0321	0.5003	0.016
Mof_C 	C 	0.7917	0.111	0.4691	-0.013
Mof_H 	H 	0.8257	0.0874	0.4479	0.001
Mof_C 	C 	0.7916	0.1807	0.473	-0.085
Mof_C 	C 	0.8455	0.2227	0.4441	0.354
Mof_La	La	0.75261	0.65339	0.00707	1.685
Mof_O 	O 	0.8557	0.7098	0.0467	-0.505
Mof_O 	O 	0.9142	0.7981	0.0809	-0.485
Mof_O 	O 	0.6563	0.7147	0.9586	-0.501
Mof_O 	O 	0.6109	0.8017	0.9061	-0.471
Mof_N 	N 	0.7576	0.7826	0.9994	-0.196
Mof_C 	C 	0.8652	0.7734	0.053	0.371
Mof_C 	C 	0.8118	0.8175	0.0247	-0.093
Mof_C 	C 	0.8135	0.886	0.027	-0.019
Mof_H 	H 	0.8492	0.9079	0.0473	0.007
Mof_C 	C 	0.7629	0.9214	0.9993	-0.051
Mof_H 	H 	0.7643	0.9679	0.0003	0.004
Mof_C 	C 	0.7083	0.889	0.9691	-0.027
Mof_H 	H 	0.6743	0.9126	0.9479	0.007
Mof_C 	C 	0.7084	0.8193	0.973	-0.078
Mof_C 	C 	0.6545	0.7773	0.9441	0.352
Mof_La	La	0.99293	0.25261	0.84661	1.692
Mof_O 	O 	0.9533	0.3557	0.7902	-0.505
Mof_O 	O 	0.9191	0.4142	0.7019	-0.485
Mof_O 	O 	0.0414	0.1563	0.7853	-0.503
Mof_O 	O 	0.0939	0.1109	0.6983	-0.472
Mof_N 	N 	0.0006	0.2576	0.7174	-0.197
Mof_C 	C 	0.947	0.3652	0.7266	0.373
Mof_C 	C 	0.9753	0.3118	0.6825	-0.096
Mof_C 	C 	0.973	0.3135	0.614	-0.004
Mof_H 	H 	0.9527	0.3492	0.5921	0.002
Mof_C 	C 	0.0007	0.2629	0.5786	-0.073
Mof_H 	H 	0.9997	0.2643	0.5321	0.013
Mof_C 	C 	0.0309	0.2083	0.611	-0.016
Mof_H 	H 	0.0521	0.1743	0.5874	0.003
Mof_C 	C 	0.027	0.2084	0.6807	-0.083
Mof_C 	C 	0.0559	0.1545	0.7227	0.354
Mof_La	La	0.49293	0.24739	0.15339	1.691
Mof_O 	O 	0.4533	0.1443	0.2098	-0.505
Mof_O 	O 	0.4191	0.0858	0.2981	-0.484
Mof_O 	O 	0.5414	0.3437	0.2147	-0.503
Mof_O 	O 	0.5939	0.3891	0.3017	-0.472
Mof_N 	N 	0.5006	0.2424	0.2826	-0.197
Mof_C 	C 	0.447	0.1348	0.2734	0.373
Mof_C 	C 	0.4753	0.1882	0.3175	-0.098
Mof_C 	C 	0.473	0.1865	0.386	0
Mof_H 	H 	0.4527	0.1508	0.4079	0.001
Mof_C 	C 	0.5007	0.2371	0.4214	-0.079
Mof_H 	H 	0.4997	0.2357	0.4679	0.016
Mof_C 	C 	0.5309	0.2917	0.389	-0.013
Mof_H 	H 	0.5521	0.3257	0.4126	0.001
Mof_C 	C 	0.527	0.2916	0.3193	-0.085
Mof_C 	C 	0.5559	0.3455	0.2773	0.354
Mof_La	La	0.50707	0.74739	0.34661	1.69
Mof_O 	O 	0.5467	0.6443	0.2902	-0.505
Mof_O 	O 	0.5809	0.5858	0.2019	-0.485
Mof_O 	O 	0.4586	0.8437	0.2853	-0.503
Mof_O 	O 	0.4061	0.8891	0.1983	-0.472
Mof_N 	N 	0.4994	0.7424	0.2174	-0.197
Mof_C 	C 	0.553	0.6348	0.2266	0.373
Mof_C 	C 	0.5247	0.6882	0.1825	-0.098
Mof_C 	C 	0.527	0.6865	0.114	0
Mof_H 	H 	0.5473	0.6508	0.0921	0
Mof_C 	C 	0.4993	0.7371	0.0786	-0.08
Mof_H 	H 	0.5003	0.7357	0.0321	0.016
Mof_C 	C 	0.4691	0.7917	0.111	-0.013
Mof_H 	H 	0.4479	0.8257	0.0874	0.001
Mof_C 	C 	0.473	0.7916	0.1807	-0.085
Mof_C 	C 	0.4441	0.8455	0.2227	0.354
Mof_La	La	0.00707	0.75261	0.65339	1.685
Mof_O 	O 	0.0467	0.8557	0.7098	-0.505
Mof_O 	O 	0.0809	0.9142	0.7981	-0.485
Mof_O 	O 	0.9586	0.6563	0.7147	-0.501
Mof_O 	O 	0.9061	0.6109	0.8017	-0.471
Mof_N 	N 	0.9994	0.7576	0.7826	-0.196
Mof_C 	C 	0.053	0.8652	0.7734	0.371
Mof_C 	C 	0.0247	0.8118	0.8175	-0.093
Mof_C 	C 	0.027	0.8135	0.886	-0.019
Mof_H 	H 	0.0473	0.8492	0.9079	0.007
Mof_C 	C 	0.9993	0.7629	0.9214	-0.051
Mof_H 	H 	0.0003	0.7643	0.9679	0.004
Mof_C 	C 	0.9691	0.7083	0.889	-0.027
Mof_H 	H 	0.9479	0.6743	0.9126	0.007
Mof_C 	C 	0.973	0.7084	0.8193	-0.078
Mof_C 	C 	0.9441	0.6545	0.7773	0.352
Mof_La	La	0.84661	0.99293	0.25261	1.692
Mof_O 	O 	0.7902	0.9533	0.3557	-0.505
Mof_O 	O 	0.7019	0.9191	0.4142	-0.485
Mof_O 	O 	0.7853	0.0414	0.1563	-0.503
Mof_O 	O 	0.6983	0.0939	0.1109	-0.472
Mof_N 	N 	0.7174	0.0006	0.2576	-0.197
Mof_C 	C 	0.7266	0.947	0.3652	0.373
Mof_C 	C 	0.6825	0.9753	0.3118	-0.096
Mof_C 	C 	0.614	0.973	0.3135	-0.004
Mof_H 	H 	0.5921	0.9527	0.3492	0.002
Mof_C 	C 	0.5786	0.0007	0.2629	-0.073
Mof_H 	H 	0.5321	0.9997	0.2643	0.013
Mof_C 	C 	0.611	0.0309	0.2083	-0.016
Mof_H 	H 	0.5874	0.0521	0.1743	0.003
Mof_C 	C 	0.6807	0.027	0.2084	-0.083
Mof_C 	C 	0.7227	0.0559	0.1545	0.354
Mof_La	La	0.15339	0.49293	0.24739	1.691
Mof_O 	O 	0.2098	0.4533	0.1443	-0.505
Mof_O 	O 	0.2981	0.4191	0.0858	-0.484
Mof_O 	O 	0.2147	0.5414	0.3437	-0.503
Mof_O 	O 	0.3017	0.5939	0.3891	-0.472
Mof_N 	N 	0.2826	0.5006	0.2424	-0.197
Mof_C 	C 	0.2734	0.447	0.1348	0.373
Mof_C 	C 	0.3175	0.4753	0.1882	-0.098
Mof_C 	C 	0.386	0.473	0.1865	0
Mof_H 	H 	0.4079	0.4527	0.1508	0.001
Mof_C 	C 	0.4214	0.5007	0.2371	-0.079
Mof_H 	H 	0.4679	0.4997	0.2357	0.016
Mof_C 	C 	0.389	0.5309	0.2917	-0.013
Mof_H 	H 	0.4126	0.5521	0.3257	0.001
Mof_C 	C 	0.3193	0.527	0.2916	-0.085
Mof_C 	C 	0.2773	0.5559	0.3455	0.354
Mof_La	La	0.34661	0.50707	0.74739	1.69
Mof_O 	O 	0.2902	0.5467	0.6443	-0.505
Mof_O 	O 	0.2019	0.5809	0.5858	-0.485
Mof_O 	O 	0.2853	0.4586	0.8437	-0.503
Mof_O 	O 	0.1983	0.4061	0.8891	-0.472
Mof_N 	N 	0.2174	0.4994	0.7424	-0.197
Mof_C 	C 	0.2266	0.553	0.6348	0.373
Mof_C 	C 	0.1825	0.5247	0.6882	-0.098
Mof_C 	C 	0.114	0.527	0.6865	0
Mof_H 	H 	0.0921	0.5473	0.6508	0
Mof_C 	C 	0.0786	0.4993	0.7371	-0.08
Mof_H 	H 	0.0321	0.5003	0.7357	0.016
Mof_C 	C 	0.111	0.4691	0.7917	-0.013
Mof_H 	H 	0.0874	0.4479	0.8257	0.001
Mof_C 	C 	0.1807	0.473	0.7916	-0.085
Mof_C 	C 	0.2227	0.4441	0.8455	0.354
Mof_La	La	0.65339	0.00707	0.75261	1.685
Mof_O 	O 	0.7098	0.0467	0.8557	-0.505
Mof_O 	O 	0.7981	0.0809	0.9142	-0.485
Mof_O 	O 	0.7147	0.9586	0.6563	-0.501
Mof_O 	O 	0.8017	0.9061	0.6109	-0.471
Mof_N 	N 	0.7826	0.9994	0.7576	-0.196
Mof_C 	C 	0.7734	0.053	0.8652	0.371
Mof_C 	C 	0.8175	0.0247	0.8118	-0.093
Mof_C 	C 	0.886	0.027	0.8135	-0.019
Mof_H 	H 	0.9079	0.0473	0.8492	0.007
Mof_C 	C 	0.9214	0.9993	0.7629	-0.051
Mof_H 	H 	0.9679	0.0003	0.7643	0.004
Mof_C 	C 	0.889	0.9691	0.7083	-0.027
Mof_H 	H 	0.9126	0.9479	0.6743	0.007
Mof_C 	C 	0.8193	0.973	0.7084	-0.078
Mof_C 	C 	0.7773	0.9441	0.6545	0.352
_end
