data_functionalizedCrystal
_audit_creation_method	'EQeq! by Chris Wilmer'
_symmetry_space_group_name_H-M	'P1'
_symmetry_Int_Tables_number	1
_symmetry_cell_setting	triclinic
loop_
_symmetry_equiv_pos_as_xyz
  x,y,z
_cell_length_a	13.87
_cell_length_b	13.87
_cell_length_c	15.222
_cell_angle_alpha	90
_cell_angle_beta	90
_cell_angle_gamma	120
loop_
_atom_site_label
_atom_site_type_symbol
_atom_site_fract_x
_atom_site_fract_y
_atom_site_fract_z
_atom_site_charge
Mof_Al	Al	0.56603	0.67507	0.26611	4.46
Mof_P 	P 	0.56852	0.67509	0.05768	1.385
Mof_O 	O 	0.603	0.6761	0.1512	-1.482
Mof_O 	O 	0.6482	0.6625	0.9976	-1.368
Mof_O 	O 	0.4499	0.582	0.0436	-1.56
Mof_O 	O 	0.5766	0.7838	0.0356	-1.417
Mof_Al	Al	0.2327	0.0084	0.59944	4.45
Mof_P 	P 	0.23519	0.00842	0.39101	1.395
Mof_O 	O 	0.26967	0.00943	0.48453	-1.483
Mof_O 	O 	0.31487	0.99583	0.33093	-1.375
Mof_O 	O 	0.11657	0.91533	0.37693	-1.564
Mof_O 	O 	0.24327	0.11713	0.36893	-1.425
Mof_Al	Al	0.89936	0.34174	0.93278	4.4
Mof_P 	P 	0.90185	0.34176	0.72435	1.384
Mof_O 	O 	0.93633	0.34277	0.81787	-1.476
Mof_O 	O 	0.98153	0.32917	0.66427	-1.371
Mof_O 	O 	0.78323	0.24867	0.71027	-1.559
Mof_O 	O 	0.90993	0.45047	0.70227	-1.424
Mof_Al	Al	0.32493	0.89096	0.26611	4.452
Mof_P 	P 	0.32491	0.89343	0.05768	1.361
Mof_O 	O 	0.3239	0.9269	0.1512	-1.482
Mof_O 	O 	0.3375	0.9857	0.9976	-1.333
Mof_O 	O 	0.418	0.8679	0.0436	-1.549
Mof_O 	O 	0.2162	0.7928	0.0356	-1.417
Mof_Al	Al	0.9916	0.22429	0.59944	4.45
Mof_P 	P 	0.99158	0.22676	0.39101	1.395
Mof_O 	O 	0.99057	0.26023	0.48453	-1.483
Mof_O 	O 	0.00417	0.31903	0.33093	-1.375
Mof_O 	O 	0.08467	0.20123	0.37693	-1.565
Mof_O 	O 	0.88287	0.12613	0.36893	-1.419
Mof_Al	Al	0.65826	0.55763	0.93278	4.453
Mof_P 	P 	0.65824	0.5601	0.72435	1.388
Mof_O 	O 	0.65723	0.59357	0.81787	-1.483
Mof_O 	O 	0.67083	0.65237	0.66427	-1.372
Mof_O 	O 	0.75133	0.53457	0.71027	-1.561
Mof_O 	O 	0.54953	0.45947	0.70227	-1.425
Mof_Al	Al	0.10904	0.43397	0.26611	4.456
Mof_P 	P 	0.10657	0.43148	0.05768	1.372
Mof_O 	O 	0.0731	0.397	0.1512	-1.483
Mof_O 	O 	0.0143	0.3518	0.9976	-1.343
Mof_O 	O 	0.1321	0.5501	0.0436	-1.55
Mof_O 	O 	0.2072	0.4234	0.0356	-1.424
Mof_Al	Al	0.77571	0.7673	0.59944	4.461
Mof_P 	P 	0.77324	0.76481	0.39101	1.387
Mof_O 	O 	0.73977	0.73033	0.48453	-1.485
Mof_O 	O 	0.68097	0.68513	0.33093	-1.371
Mof_O 	O 	0.79877	0.88343	0.37693	-1.56
Mof_O 	O 	0.87387	0.75673	0.36893	-1.421
Mof_Al	Al	0.44237	0.10064	0.93278	4.402
Mof_P 	P 	0.4399	0.09815	0.72435	1.385
Mof_O 	O 	0.40643	0.06367	0.81787	-1.475
Mof_O 	O 	0.34763	0.01847	0.66427	-1.371
Mof_O 	O 	0.46543	0.21677	0.71027	-1.56
Mof_O 	O 	0.54053	0.09007	0.70227	-1.423
Mof_Al	Al	0.43397	0.32493	0.73389	4.459
Mof_P 	P 	0.43148	0.32491	0.94232	1.384
Mof_O 	O 	0.397	0.3239	0.8488	-1.483
Mof_O 	O 	0.3518	0.3375	0.0024	-1.369
Mof_O 	O 	0.5501	0.418	0.9564	-1.56
Mof_O 	O 	0.4234	0.2162	0.9644	-1.417
Mof_Al	Al	0.10064	0.65826	0.06722	4.4
Mof_P 	P 	0.09815	0.65824	0.27565	1.384
Mof_O 	O 	0.06367	0.65723	0.18213	-1.476
Mof_O 	O 	0.01847	0.67083	0.33573	-1.371
Mof_O 	O 	0.21677	0.75133	0.28973	-1.559
Mof_O 	O 	0.09007	0.54953	0.29773	-1.424
Mof_Al	Al	0.7673	0.9916	0.40056	4.45
Mof_P 	P 	0.76481	0.99158	0.60899	1.395
Mof_O 	O 	0.73033	0.99057	0.51547	-1.483
Mof_O 	O 	0.68513	0.00417	0.66907	-1.375
Mof_O 	O 	0.88343	0.08467	0.62307	-1.564
Mof_O 	O 	0.75673	0.88287	0.63107	-1.425
Mof_Al	Al	0.67507	0.10904	0.73389	4.452
Mof_P 	P 	0.67509	0.10657	0.94232	1.361
Mof_O 	O 	0.6761	0.0731	0.8488	-1.482
Mof_O 	O 	0.6625	0.0143	0.0024	-1.333
Mof_O 	O 	0.582	0.1321	0.9564	-1.549
Mof_O 	O 	0.7838	0.2072	0.9644	-1.417
Mof_Al	Al	0.34174	0.44237	0.06722	4.453
Mof_P 	P 	0.34176	0.4399	0.27565	1.388
Mof_O 	O 	0.34277	0.40643	0.18213	-1.483
Mof_O 	O 	0.32917	0.34763	0.33573	-1.372
Mof_O 	O 	0.24867	0.46543	0.28973	-1.561
Mof_O 	O 	0.45047	0.54053	0.29773	-1.425
Mof_Al	Al	0.0084	0.77571	0.40056	4.45
Mof_P 	P 	0.00842	0.77324	0.60899	1.395
Mof_O 	O 	0.00943	0.73977	0.51547	-1.483
Mof_O 	O 	0.99583	0.68097	0.66907	-1.375
Mof_O 	O 	0.91533	0.79877	0.62307	-1.565
Mof_O 	O 	0.11713	0.87387	0.63107	-1.419
Mof_Al	Al	0.89096	0.56603	0.73389	4.456
Mof_P 	P 	0.89343	0.56852	0.94232	1.372
Mof_O 	O 	0.9269	0.603	0.8488	-1.483
Mof_O 	O 	0.9857	0.6482	0.0024	-1.343
Mof_O 	O 	0.8679	0.4499	0.9564	-1.55
Mof_O 	O 	0.7928	0.5766	0.9644	-1.424
Mof_Al	Al	0.55763	0.89936	0.06722	4.402
Mof_P 	P 	0.5601	0.90185	0.27565	1.385
Mof_O 	O 	0.59357	0.93633	0.18213	-1.475
Mof_O 	O 	0.65237	0.98153	0.33573	-1.371
Mof_O 	O 	0.53457	0.78323	0.28973	-1.56
Mof_O 	O 	0.45947	0.90993	0.29773	-1.423
Mof_Al	Al	0.22429	0.2327	0.40056	4.461
Mof_P 	P 	0.22676	0.23519	0.60899	1.387
Mof_O 	O 	0.26023	0.26967	0.51547	-1.485
Mof_O 	O 	0.31903	0.31487	0.66907	-1.371
Mof_O 	O 	0.20123	0.11657	0.62307	-1.56
Mof_O 	O 	0.12613	0.24327	0.63107	-1.421
_end
