data_functionalizedCrystal
_audit_creation_method	'EQeq! by Chris Wilmer'
_symmetry_space_group_name_H-M	'P1'
_symmetry_Int_Tables_number	1
_symmetry_cell_setting	triclinic
loop_
_symmetry_equiv_pos_as_xyz
  x,y,z
_cell_length_a	10.421
_cell_length_b	23.3526
_cell_length_c	6.9214
_cell_angle_alpha	90
_cell_angle_beta	90
_cell_angle_gamma	90
loop_
_atom_site_label
_atom_site_type_symbol
_atom_site_fract_x
_atom_site_fract_y
_atom_site_fract_z
_atom_site_charge
Mof_Zn	Zn	0.5	0.36581	0.25	1.205
Mof_O 	O 	0.5	0.4511	0.25	-0.739
Mof_Zn	Zn	1.18627e-32	0.86581	0.25	1.191
Mof_O 	O 	-3.12416e-33	0.9511	0.25	-0.709
Mof_Zn	Zn	0.5	0.63419	0.75	1.225
Mof_O 	O 	0.5	0.5489	0.75	-0.681
Mof_Zn	Zn	5.61443e-33	0.13419	0.75	1.209
Mof_O 	O 	-1.87902e-33	0.0489	0.75	-0.729
Mof_Zn	Zn	0.5	0.5	-0	1.124
Mof_Zn	Zn	-0	0	-0	1.088
Mof_Zn	Zn	0.5	0.5	0.5	1.16
Mof_Zn	Zn	1.24513e-33	0	0.5	1.123
Mof_C 	C 	6.22567e-34	0.1629	0.25	0.139
Mof_C 	C 	1.18627e-32	0.346	0.25	-0.024
Mof_C 	C 	4.36929e-33	0.2269	0.25	-0.207
Mof_C 	C 	0.5	0.6629	0.25	0.133
Mof_C 	C 	0.5	0.846	0.25	0.096
Mof_C 	C 	0.5	0.7269	0.25	-0.091
Mof_C 	C 	5.61443e-33	0.8371	0.75	0.162
Mof_C 	C 	2.06013e-32	0.654	0.75	-0.006
Mof_C 	C 	2.06013e-32	0.7731	0.75	-0.16
Mof_C 	C 	0.5	0.3371	0.75	0.151
Mof_C 	C 	0.5	0.154	0.75	0.086
Mof_C 	C 	0.5	0.2731	0.75	-0.051
Mof_C 	C 	0.2408	0.3486	0.25	0.345
Mof_C 	C 	0.116	0.3163	0.25	-0.13
Mof_C 	C 	0.1152	0.2565	0.25	0.056
Mof_H 	H 	0.1923	0.2364	0.25	0.012
Mof_O 	O 	0.3422	0.31999	0.25	-0.487
Mof_O 	O 	0.2358	0.4023	0.25	-0.376
Mof_C 	C 	0.7408	0.8486	0.25	0.342
Mof_C 	C 	0.616	0.8163	0.25	-0.121
Mof_C 	C 	0.6152	0.7565	0.25	0.026
Mof_H 	H 	0.6923	0.7364	0.25	0.033
Mof_O 	O 	0.8422	0.81999	0.25	-0.434
Mof_O 	O 	0.7358	0.9023	0.25	-0.305
Mof_C 	C 	0.7592	0.6514	0.75	0.338
Mof_C 	C 	0.884	0.6837	0.75	-0.031
Mof_C 	C 	0.8848	0.7435	0.75	0.131
Mof_H 	H 	0.8077	0.7636	0.75	0.04
Mof_O 	O 	0.6578	0.68001	0.75	-0.427
Mof_O 	O 	0.7642	0.5977	0.75	-0.296
Mof_C 	C 	0.2592	0.1514	0.75	0.356
Mof_C 	C 	0.384	0.1837	0.75	-0.106
Mof_C 	C 	0.3848	0.2435	0.75	0.026
Mof_H 	H 	0.3077	0.2636	0.75	0.054
Mof_O 	O 	0.1578	0.18001	0.75	-0.448
Mof_O 	O 	0.2642	0.0977	0.75	-0.343
Mof_C 	C 	0.7592	0.3486	0.25	0.337
Mof_C 	C 	0.884	0.3163	0.25	-0.061
Mof_C 	C 	0.8848	0.2565	0.25	0.144
Mof_H 	H 	0.8077	0.2364	0.25	-0
Mof_O 	O 	0.6578	0.31999	0.25	-0.479
Mof_O 	O 	0.7642	0.4023	0.25	-0.337
Mof_C 	C 	0.2592	0.8486	0.25	0.352
Mof_C 	C 	0.384	0.8163	0.25	-0.132
Mof_C 	C 	0.3848	0.7565	0.25	0.032
Mof_H 	H 	0.3077	0.7364	0.25	0.019
Mof_O 	O 	0.1578	0.81999	0.25	-0.493
Mof_O 	O 	0.2642	0.9023	0.25	-0.34
Mof_C 	C 	0.2408	0.6514	0.75	0.345
Mof_C 	C 	0.116	0.6837	0.75	-0.098
Mof_C 	C 	0.1152	0.7435	0.75	0.048
Mof_H 	H 	0.1923	0.7636	0.75	0.052
Mof_O 	O 	0.3422	0.68001	0.75	-0.434
Mof_O 	O 	0.2358	0.5977	0.75	-0.333
Mof_C 	C 	0.7408	0.1514	0.75	0.346
Mof_C 	C 	0.616	0.1837	0.75	-0.095
Mof_C 	C 	0.6152	0.2435	0.75	0.021
Mof_H 	H 	0.6923	0.2636	0.75	0.067
Mof_O 	O 	0.8422	0.18001	0.75	-0.388
Mof_O 	O 	0.7358	0.0977	0.75	-0.308
Mof_N 	N 	4.60089e-33	0.0773	0.343	-0.235
Mof_N 	N 	4.76649e-33	0.13092	0.4095	-0.206
Mof_N 	N 	0.5	0.5773	0.343	-0.213
Mof_N 	N 	0.5	0.63092	0.4095	-0.187
Mof_N 	N 	1.70862e-32	0.9227	0.843	-0.165
Mof_N 	N 	-5.22855e-33	0.86908	0.9095	-0.162
Mof_N 	N 	0.5	0.4227	0.843	-0.179
Mof_N 	N 	0.5	0.36908	0.9095	-0.149
Mof_N 	N 	3.20102e-33	0.0773	0.157	-0.252
Mof_N 	N 	2.56707e-33	0.13092	0.0905	-0.24
Mof_N 	N 	0.5	0.5773	0.157	-0.23
Mof_N 	N 	0.5	0.63092	0.0905	-0.222
Mof_N 	N 	2.78632e-32	0.9227	0.657	-0.19
Mof_N 	N 	1.64574e-32	0.86908	0.5905	-0.198
Mof_N 	N 	0.5	0.4227	0.657	-0.203
Mof_N 	N 	0.5	0.36908	0.5905	-0.184
_end
