data_functionalizedCrystal
_audit_creation_method	'EQeq! by Chris Wilmer'
_symmetry_space_group_name_H-M	'P1'
_symmetry_Int_Tables_number	1
_symmetry_cell_setting	triclinic
loop_
_symmetry_equiv_pos_as_xyz
  x,y,z
_cell_length_a	35.1763
_cell_length_b	14.9671
_cell_length_c	30.2349
_cell_angle_alpha	90
_cell_angle_beta	100.759
_cell_angle_gamma	90
loop_
_atom_site_label
_atom_site_type_symbol
_atom_site_fract_x
_atom_site_fract_y
_atom_site_fract_z
_atom_site_charge
Mof_I 	I 	0.61563	0.23668	0.5584	-0.374
Mof_I 	I 	0.5208	0.15676	0.63481	-0.356
Mof_I 	I 	0.3491	0.42139	0.51575	-0.227
Mof_I 	I 	0.38946	0.27447	0.39862	-0.372
Mof_Zn	Zn	0.57858	0.1267	0.59799	1.165
Mof_Zn	Zn	0.37082	0.41258	0.43919	1.163
Mof_N 	N 	0.68633	0.4868	0.78146	-0.273
Mof_N 	N 	0.56553	0.0176	0.55453	-0.27
Mof_N 	N 	0.73172	0.8042	0.81111	-0.138
Mof_N 	N 	0.67848	0.8147	0.75012	-0.131
Mof_N 	N 	0.5365	0.6508	0.41401	-0.132
Mof_N 	N 	0.71792	0.9414	0.77183	-0.141
Mof_N 	N 	0.5744	0.7752	0.44434	-0.136
Mof_N 	N 	0.61714	0.0542	0.64483	-0.27
Mof_N 	N 	0.52063	0.7299	0.4762	-0.144
Mof_C 	C 	0.69617	0.6712	0.78313	0.067
Mof_C 	C 	0.55574	0.8648	0.50255	0.065
Mof_C 	C 	0.65343	0.7185	0.36109	0.079
Mof_H 	H 	0.6779	0.7445	0.3666	-0.014
Mof_C 	C 	0.66375	0.9528	0.71011	0.068
Mof_C 	C 	0.70244	0.7691	0.7819	0.099
Mof_C 	C 	0.68814	0.8997	0.74616	0.1
Mof_C 	C 	0.56655	0.7063	0.41601	0.1
Mof_C 	C 	0.55017	0.7844	0.47305	0.086
Mof_C 	C 	0.62877	0.7339	0.39066	-0.128
Mof_H 	H 	0.6362	0.7716	0.4152	0.088
Mof_C 	C 	0.65327	0.0801	0.6616	0.078
Mof_H 	H 	0.6626	0.1324	0.6508	-0.009
Mof_C 	C 	0.51478	0.6655	0.44525	0.086
Mof_C 	C 	0.59284	0.6929	0.38367	0.072
Mof_C 	C 	0.77791	0.0247	0.82939	-0.135
Mof_H 	H 	0.764	0.0561	0.8051	0.093
Mof_C 	C 	0.58882	0.9161	0.50537	-0.131
Mof_H 	H 	0.6081	0.8996	0.4898	0.086
Mof_C 	C 	0.4357	0.5335	0.48156	0.084
Mof_H 	H 	0.4274	0.5192	0.5081	-0.012
Mof_C 	C 	0.66785	0.631	0.75112	-0.135
Mof_H 	H 	0.6516	0.6654	0.73	0.093
Mof_C 	C 	0.52784	0.8903	0.52702	-0.134
Mof_H 	H 	0.5056	0.8564	0.5264	0.081
Mof_N 	N 	0.41623	0.5005	0.44281	-0.277
Mof_N 	N 	0.82795	0.0238	0.89435	-0.275
Mof_C 	C 	0.48053	0.608	0.44436	0.06
Mof_C 	C 	0.46029	0.575	0.40396	-0.138
Mof_H 	H 	0.4682	0.5881	0.377	0.091
Mof_C 	C 	0.53412	0.9676	0.55243	0.083
Mof_H 	H 	0.5155	0.9852	0.5688	-0.013
Mof_C 	C 	0.58232	0.6387	0.34584	-0.131
Mof_H 	H 	0.5584	0.6102	0.3401	0.091
Mof_C 	C 	0.80769	0.0656	0.85871	0.076
Mof_H 	H 	0.8138	0.1246	0.8533	-0.004
Mof_C 	C 	0.62675	0.9246	0.69217	-0.13
Mof_H 	H 	0.6172	0.8709	0.7012	0.095
Mof_C 	C 	0.4282	0.5223	0.40453	0.081
Mof_H 	H 	0.4143	0.501	0.3774	-0.018
Mof_C 	C 	0.60813	0.6283	0.31732	0.082
Mof_H 	H 	0.6011	0.593	0.2918	-0.021
Mof_C 	C 	0.7188	0.6166	0.81519	-0.137
Mof_H 	H 	0.7375	0.6414	0.8377	0.087
Mof_C 	C 	0.73793	0.8909	0.80476	0.085
Mof_C 	C 	0.7131	0.5264	0.813	0.079
Mof_H 	H 	0.7285	0.4906	0.8343	-0.014
Mof_C 	C 	0.78995	0.8932	0.87387	-0.126
Mof_H 	H 	0.7845	0.8341	0.8798	0.09
Mof_C 	C 	0.81897	0.9391	0.90213	0.076
Mof_H 	H 	0.8327	0.91	0.9273	-0.004
Mof_C 	C 	0.60421	0.9785	0.66037	0.083
Mof_H 	H 	0.5788	0.9612	0.6493	-0.014
Mof_C 	C 	0.59276	0.9918	0.53148	0.077
Mof_H 	H 	0.615	0.0262	0.5333	-0.017
Mof_C 	C 	0.67736	0.0317	0.69464	-0.136
Mof_H 	H 	0.7022	0.0517	0.7062	0.084
Mof_C 	C 	0.4676	0.5876	0.48374	-0.136
Mof_H 	H 	0.4803	0.6102	0.5112	0.086
Mof_C 	C 	0.66431	0.5397	0.75116	0.075
Mof_H 	H 	0.6458	0.5132	0.7291	-0.015
Mof_Zn	Zn	0.67877	0.34943	0.77818	1.163
Mof_I 	I 	0.74355	0.27619	0.81089	-0.396
Mof_I 	I 	0.6387	0.3164	0.70079	-0.408
Mof_N 	N 	0.64309	0.6671	0.3247	-0.276
Mof_C 	C 	0.7691	0.9366	0.83661	0.056
Mof_I 	I 	0.3506	0.4119	0.5115	-0.107
Mof_I 	I 	0.7328	0.2635	0.7955	0.019
Mof_I 	I 	0.11563	0.73668	0.5584	-0.375
Mof_I 	I 	0.0208	0.65676	0.63481	-0.357
Mof_I 	I 	0.8491	0.92139	0.51575	-0.228
Mof_I 	I 	0.88946	0.77447	0.39862	-0.373
Mof_Zn	Zn	0.07858	0.6267	0.59799	1.164
Mof_Zn	Zn	0.87082	0.91258	0.43919	1.162
Mof_N 	N 	0.18633	0.9868	0.78146	-0.273
Mof_N 	N 	0.06553	0.5176	0.55453	-0.271
Mof_N 	N 	0.23172	0.3042	0.81111	-0.139
Mof_N 	N 	0.17848	0.3147	0.75012	-0.132
Mof_N 	N 	0.0365	0.1508	0.41401	-0.133
Mof_N 	N 	0.21792	0.4414	0.77183	-0.142
Mof_N 	N 	0.0744	0.2752	0.44434	-0.137
Mof_N 	N 	0.11714	0.5542	0.64483	-0.271
Mof_N 	N 	0.02063	0.2299	0.4762	-0.145
Mof_C 	C 	0.19617	0.1712	0.78313	0.066
Mof_C 	C 	0.05574	0.3648	0.50255	0.063
Mof_C 	C 	0.15343	0.2185	0.36109	0.078
Mof_H 	H 	0.1779	0.2445	0.3666	-0.014
Mof_C 	C 	0.16375	0.4528	0.71011	0.068
Mof_C 	C 	0.20244	0.2691	0.7819	0.099
Mof_C 	C 	0.18814	0.3997	0.74616	0.1
Mof_C 	C 	0.06655	0.2063	0.41601	0.1
Mof_C 	C 	0.05017	0.2844	0.47305	0.086
Mof_C 	C 	0.12877	0.2339	0.39066	-0.128
Mof_H 	H 	0.1362	0.2716	0.4152	0.088
Mof_C 	C 	0.15327	0.5801	0.6616	0.077
Mof_H 	H 	0.1626	0.6324	0.6508	-0.009
Mof_C 	C 	0.01478	0.1655	0.44525	0.086
Mof_C 	C 	0.09284	0.1929	0.38367	0.072
Mof_C 	C 	0.27791	0.5247	0.82939	-0.134
Mof_H 	H 	0.264	0.5561	0.8051	0.093
Mof_C 	C 	0.08882	0.4161	0.50537	-0.131
Mof_H 	H 	0.1081	0.3996	0.4898	0.086
Mof_C 	C 	0.9357	0.0335	0.48156	0.084
Mof_H 	H 	0.9274	0.0192	0.5081	-0.012
Mof_C 	C 	0.16785	0.131	0.75112	-0.134
Mof_H 	H 	0.1516	0.1654	0.73	0.093
Mof_C 	C 	0.02784	0.3903	0.52702	-0.134
Mof_H 	H 	0.0056	0.3564	0.5264	0.081
Mof_N 	N 	0.91623	0.0005	0.44281	-0.277
Mof_N 	N 	0.32795	0.5238	0.89435	-0.274
Mof_C 	C 	0.98053	0.108	0.44436	0.06
Mof_C 	C 	0.96029	0.075	0.40396	-0.138
Mof_H 	H 	0.9682	0.0881	0.377	0.091
Mof_C 	C 	0.03412	0.4676	0.55243	0.083
Mof_H 	H 	0.0155	0.4852	0.5688	-0.013
Mof_C 	C 	0.08232	0.1387	0.34584	-0.131
Mof_H 	H 	0.0584	0.1102	0.3401	0.09
Mof_C 	C 	0.30769	0.5656	0.85871	0.075
Mof_H 	H 	0.3138	0.6246	0.8533	-0.004
Mof_C 	C 	0.12675	0.4246	0.69217	-0.129
Mof_H 	H 	0.1172	0.3709	0.7012	0.095
Mof_C 	C 	0.9282	0.0223	0.40453	0.081
Mof_H 	H 	0.9143	0.001	0.3774	-0.018
Mof_C 	C 	0.10813	0.1283	0.31732	0.082
Mof_H 	H 	0.1011	0.093	0.2918	-0.021
Mof_C 	C 	0.2188	0.1166	0.81519	-0.136
Mof_H 	H 	0.2375	0.1414	0.8377	0.086
Mof_C 	C 	0.23793	0.3909	0.80476	0.085
Mof_C 	C 	0.2131	0.0264	0.813	0.077
Mof_H 	H 	0.2285	0.9906	0.8343	-0.014
Mof_C 	C 	0.28995	0.3932	0.87387	-0.125
Mof_H 	H 	0.2845	0.3341	0.8798	0.09
Mof_C 	C 	0.31897	0.4391	0.90213	0.075
Mof_H 	H 	0.3327	0.41	0.9273	-0.003
Mof_C 	C 	0.10421	0.4785	0.66037	0.082
Mof_H 	H 	0.0788	0.4612	0.6493	-0.014
Mof_C 	C 	0.09276	0.4918	0.53148	0.076
Mof_H 	H 	0.115	0.5262	0.5333	-0.017
Mof_C 	C 	0.17736	0.5317	0.69464	-0.135
Mof_H 	H 	0.2022	0.5517	0.7062	0.084
Mof_C 	C 	0.9676	0.0876	0.48374	-0.136
Mof_H 	H 	0.9803	0.1102	0.5112	0.086
Mof_C 	C 	0.16431	0.0397	0.75116	0.074
Mof_H 	H 	0.1458	0.0132	0.7291	-0.015
Mof_Zn	Zn	0.17877	0.84943	0.77818	1.163
Mof_I 	I 	0.24355	0.77619	0.81089	-0.396
Mof_I 	I 	0.1387	0.8164	0.70079	-0.408
Mof_N 	N 	0.14309	0.1671	0.3247	-0.276
Mof_C 	C 	0.2691	0.4366	0.83661	0.055
Mof_I 	I 	0.8506	0.9119	0.5115	-0.107
Mof_I 	I 	0.2328	0.7635	0.7955	0.019
Mof_I 	I 	0.61563	0.76332	0.0584	-0.375
Mof_I 	I 	0.5208	0.84324	0.13481	-0.357
Mof_I 	I 	0.3491	0.57861	0.01575	-0.228
Mof_I 	I 	0.38946	0.72553	0.89862	-0.373
Mof_Zn	Zn	0.57858	0.8733	0.09799	1.164
Mof_Zn	Zn	0.37082	0.58742	0.93919	1.162
Mof_N 	N 	0.68633	0.5132	0.28146	-0.274
Mof_N 	N 	0.56553	0.9824	0.05453	-0.272
Mof_N 	N 	0.73172	0.1958	0.31111	-0.139
Mof_N 	N 	0.67848	0.1853	0.25012	-0.132
Mof_N 	N 	0.5365	0.3492	0.91401	-0.133
Mof_N 	N 	0.71792	0.0586	0.27183	-0.142
Mof_N 	N 	0.5744	0.2248	0.94434	-0.137
Mof_N 	N 	0.61714	0.9458	0.14483	-0.271
Mof_N 	N 	0.52063	0.2701	0.9762	-0.145
Mof_C 	C 	0.69617	0.3288	0.28313	0.066
Mof_C 	C 	0.55574	0.1352	0.00255	0.064
Mof_C 	C 	0.65343	0.2815	0.86109	0.078
Mof_H 	H 	0.6779	0.2555	0.8666	-0.014
Mof_C 	C 	0.66375	0.0472	0.21011	0.069
Mof_C 	C 	0.70244	0.2309	0.2819	0.099
Mof_C 	C 	0.68814	0.1003	0.24616	0.1
Mof_C 	C 	0.56655	0.2937	0.91601	0.1
Mof_C 	C 	0.55017	0.2156	0.97305	0.086
Mof_C 	C 	0.62877	0.2661	0.89066	-0.128
Mof_H 	H 	0.6362	0.2284	0.9152	0.088
Mof_C 	C 	0.65327	0.9199	0.1616	0.078
Mof_H 	H 	0.6626	0.8676	0.1508	-0.009
Mof_C 	C 	0.51478	0.3345	0.94525	0.086
Mof_C 	C 	0.59284	0.3071	0.88367	0.072
Mof_C 	C 	0.77791	0.9753	0.32939	-0.135
Mof_H 	H 	0.764	0.9439	0.3051	0.093
Mof_C 	C 	0.58882	0.0839	0.00537	-0.131
Mof_H 	H 	0.6081	0.1004	0.9898	0.085
Mof_C 	C 	0.4357	0.4665	0.98156	0.084
Mof_H 	H 	0.4274	0.4808	0.0081	-0.012
Mof_C 	C 	0.66785	0.369	0.25112	-0.135
Mof_H 	H 	0.6516	0.3346	0.23	0.093
Mof_C 	C 	0.52784	0.1097	0.02702	-0.135
Mof_H 	H 	0.5056	0.1436	0.0264	0.081
Mof_N 	N 	0.41623	0.4995	0.94281	-0.277
Mof_N 	N 	0.82795	0.9762	0.39435	-0.275
Mof_C 	C 	0.48053	0.392	0.94436	0.061
Mof_C 	C 	0.46029	0.425	0.90396	-0.139
Mof_H 	H 	0.4682	0.4119	0.877	0.091
Mof_C 	C 	0.53412	0.0324	0.05243	0.084
Mof_H 	H 	0.5155	0.0148	0.0688	-0.013
Mof_C 	C 	0.58232	0.3613	0.84584	-0.131
Mof_H 	H 	0.5584	0.3898	0.8401	0.091
Mof_C 	C 	0.80769	0.9344	0.35871	0.075
Mof_H 	H 	0.8138	0.8754	0.3533	-0.004
Mof_C 	C 	0.62675	0.0754	0.19217	-0.13
Mof_H 	H 	0.6172	0.1291	0.2012	0.096
Mof_C 	C 	0.4282	0.4777	0.90453	0.081
Mof_H 	H 	0.4143	0.499	0.8774	-0.018
Mof_C 	C 	0.60813	0.3717	0.81732	0.082
Mof_H 	H 	0.6011	0.407	0.7918	-0.021
Mof_C 	C 	0.7188	0.3834	0.31519	-0.137
Mof_H 	H 	0.7375	0.3586	0.3377	0.087
Mof_C 	C 	0.73793	0.1091	0.30476	0.085
Mof_C 	C 	0.7131	0.4736	0.313	0.079
Mof_H 	H 	0.7285	0.5094	0.3343	-0.014
Mof_C 	C 	0.78995	0.1068	0.37387	-0.126
Mof_H 	H 	0.7845	0.1659	0.3798	0.09
Mof_C 	C 	0.81897	0.0609	0.40213	0.075
Mof_H 	H 	0.8327	0.09	0.4273	-0.004
Mof_C 	C 	0.60421	0.0215	0.16037	0.083
Mof_H 	H 	0.5788	0.0388	0.1493	-0.014
Mof_C 	C 	0.59276	0.0082	0.03148	0.078
Mof_H 	H 	0.615	0.9738	0.0333	-0.017
Mof_C 	C 	0.67736	0.9683	0.19464	-0.136
Mof_H 	H 	0.7022	0.9483	0.2062	0.084
Mof_C 	C 	0.4676	0.4124	0.98374	-0.137
Mof_H 	H 	0.4803	0.3898	0.0112	0.087
Mof_C 	C 	0.66431	0.4603	0.25116	0.075
Mof_H 	H 	0.6458	0.4868	0.2291	-0.015
Mof_Zn	Zn	0.67877	0.65057	0.27818	1.163
Mof_I 	I 	0.74355	0.72381	0.31089	-0.396
Mof_I 	I 	0.6387	0.6836	0.20079	-0.408
Mof_N 	N 	0.64309	0.3329	0.8247	-0.276
Mof_C 	C 	0.7691	0.0634	0.33661	0.056
Mof_I 	I 	0.3506	0.5881	0.0115	-0.107
Mof_I 	I 	0.7328	0.7365	0.2955	0.019
Mof_I 	I 	0.11563	0.26332	0.0584	-0.375
Mof_I 	I 	0.0208	0.34324	0.13481	-0.357
Mof_I 	I 	0.8491	0.07861	0.01575	-0.228
Mof_I 	I 	0.88946	0.22553	0.89862	-0.373
Mof_Zn	Zn	0.07858	0.3733	0.09799	1.164
Mof_Zn	Zn	0.87082	0.08742	0.93919	1.162
Mof_N 	N 	0.18633	0.0132	0.28146	-0.274
Mof_N 	N 	0.06553	0.4824	0.05453	-0.271
Mof_N 	N 	0.23172	0.6958	0.31111	-0.139
Mof_N 	N 	0.17848	0.6853	0.25012	-0.132
Mof_N 	N 	0.0365	0.8492	0.91401	-0.133
Mof_N 	N 	0.21792	0.5586	0.27183	-0.142
Mof_N 	N 	0.0744	0.7248	0.94434	-0.137
Mof_N 	N 	0.11714	0.4458	0.14483	-0.271
Mof_N 	N 	0.02063	0.7701	0.9762	-0.145
Mof_C 	C 	0.19617	0.8288	0.28313	0.066
Mof_C 	C 	0.05574	0.6352	0.00255	0.063
Mof_C 	C 	0.15343	0.7815	0.86109	0.078
Mof_H 	H 	0.1779	0.7555	0.8666	-0.014
Mof_C 	C 	0.16375	0.5472	0.21011	0.068
Mof_C 	C 	0.20244	0.7309	0.2819	0.099
Mof_C 	C 	0.18814	0.6003	0.24616	0.1
Mof_C 	C 	0.06655	0.7937	0.91601	0.1
Mof_C 	C 	0.05017	0.7156	0.97305	0.086
Mof_C 	C 	0.12877	0.7661	0.89066	-0.128
Mof_H 	H 	0.1362	0.7284	0.9152	0.088
Mof_C 	C 	0.15327	0.4199	0.1616	0.077
Mof_H 	H 	0.1626	0.3676	0.1508	-0.009
Mof_C 	C 	0.01478	0.8345	0.94525	0.086
Mof_C 	C 	0.09284	0.8071	0.88367	0.072
Mof_C 	C 	0.27791	0.4753	0.32939	-0.134
Mof_H 	H 	0.264	0.4439	0.3051	0.093
Mof_C 	C 	0.08882	0.5839	0.00537	-0.131
Mof_H 	H 	0.1081	0.6004	0.9898	0.086
Mof_C 	C 	0.9357	0.9665	0.98156	0.085
Mof_H 	H 	0.9274	0.9808	0.0081	-0.013
Mof_C 	C 	0.16785	0.869	0.25112	-0.134
Mof_H 	H 	0.1516	0.8346	0.23	0.093
Mof_C 	C 	0.02784	0.6097	0.02702	-0.134
Mof_H 	H 	0.0056	0.6436	0.0264	0.081
Mof_N 	N 	0.91623	0.9995	0.94281	-0.277
Mof_N 	N 	0.32795	0.4762	0.39435	-0.274
Mof_C 	C 	0.98053	0.892	0.94436	0.06
Mof_C 	C 	0.96029	0.925	0.90396	-0.138
Mof_H 	H 	0.9682	0.9119	0.877	0.091
Mof_C 	C 	0.03412	0.5324	0.05243	0.083
Mof_H 	H 	0.0155	0.5148	0.0688	-0.013
Mof_C 	C 	0.08232	0.8613	0.84584	-0.131
Mof_H 	H 	0.0584	0.8898	0.8401	0.091
Mof_C 	C 	0.30769	0.4344	0.35871	0.075
Mof_H 	H 	0.3138	0.3754	0.3533	-0.004
Mof_C 	C 	0.12675	0.5754	0.19217	-0.129
Mof_H 	H 	0.1172	0.6291	0.2012	0.095
Mof_C 	C 	0.9282	0.9777	0.90453	0.081
Mof_H 	H 	0.9143	0.999	0.8774	-0.017
Mof_C 	C 	0.10813	0.8717	0.81732	0.082
Mof_H 	H 	0.1011	0.907	0.7918	-0.021
Mof_C 	C 	0.2188	0.8834	0.31519	-0.137
Mof_H 	H 	0.2375	0.8586	0.3377	0.086
Mof_C 	C 	0.23793	0.6091	0.30476	0.085
Mof_C 	C 	0.2131	0.9736	0.313	0.078
Mof_H 	H 	0.2285	0.0094	0.3343	-0.014
Mof_C 	C 	0.28995	0.6068	0.37387	-0.125
Mof_H 	H 	0.2845	0.6659	0.3798	0.09
Mof_C 	C 	0.31897	0.5609	0.40213	0.075
Mof_H 	H 	0.3327	0.59	0.4273	-0.003
Mof_C 	C 	0.10421	0.5215	0.16037	0.082
Mof_H 	H 	0.0788	0.5388	0.1493	-0.014
Mof_C 	C 	0.09276	0.5082	0.03148	0.076
Mof_H 	H 	0.115	0.4738	0.0333	-0.017
Mof_C 	C 	0.17736	0.4683	0.19464	-0.135
Mof_H 	H 	0.2022	0.4483	0.2062	0.084
Mof_C 	C 	0.9676	0.9124	0.98374	-0.136
Mof_H 	H 	0.9803	0.8898	0.0112	0.086
Mof_C 	C 	0.16431	0.9603	0.25116	0.074
Mof_H 	H 	0.1458	0.9868	0.2291	-0.015
Mof_Zn	Zn	0.17877	0.15057	0.27818	1.163
Mof_I 	I 	0.24355	0.22381	0.31089	-0.396
Mof_I 	I 	0.1387	0.1836	0.20079	-0.407
Mof_N 	N 	0.14309	0.8329	0.8247	-0.276
Mof_C 	C 	0.2691	0.5634	0.33661	0.055
Mof_I 	I 	0.8506	0.0881	0.0115	-0.107
Mof_I 	I 	0.2328	0.2365	0.2955	0.019
Mof_I 	I 	0.38437	0.23668	0.9416	-0.375
Mof_I 	I 	0.4792	0.15676	0.86519	-0.357
Mof_I 	I 	0.6509	0.42139	0.98425	-0.228
Mof_I 	I 	0.61054	0.27447	0.10138	-0.373
Mof_Zn	Zn	0.42142	0.1267	0.90201	1.164
Mof_Zn	Zn	0.62918	0.41258	0.06081	1.162
Mof_N 	N 	0.31367	0.4868	0.71854	-0.274
Mof_N 	N 	0.43447	0.0176	0.94547	-0.272
Mof_N 	N 	0.26828	0.8042	0.68889	-0.139
Mof_N 	N 	0.32152	0.8147	0.74988	-0.132
Mof_N 	N 	0.4635	0.6508	0.08599	-0.133
Mof_N 	N 	0.28208	0.9414	0.72817	-0.142
Mof_N 	N 	0.4256	0.7752	0.05566	-0.137
Mof_N 	N 	0.38286	0.0542	0.85517	-0.271
Mof_N 	N 	0.47937	0.7299	0.0238	-0.145
Mof_C 	C 	0.30383	0.6712	0.71687	0.066
Mof_C 	C 	0.44426	0.8648	0.99745	0.064
Mof_C 	C 	0.34657	0.7185	0.13891	0.078
Mof_H 	H 	0.3221	0.7445	0.1334	-0.014
Mof_C 	C 	0.33625	0.9528	0.78989	0.069
Mof_C 	C 	0.29756	0.7691	0.7181	0.099
Mof_C 	C 	0.31186	0.8997	0.75384	0.1
Mof_C 	C 	0.43345	0.7063	0.08399	0.1
Mof_C 	C 	0.44983	0.7844	0.02695	0.086
Mof_C 	C 	0.37123	0.7339	0.10934	-0.128
Mof_H 	H 	0.3638	0.7716	0.0848	0.088
Mof_C 	C 	0.34673	0.0801	0.8384	0.078
Mof_H 	H 	0.3374	0.1324	0.8492	-0.009
Mof_C 	C 	0.48522	0.6655	0.05475	0.086
Mof_C 	C 	0.40716	0.6929	0.11633	0.072
Mof_C 	C 	0.22209	0.0247	0.67061	-0.135
Mof_H 	H 	0.236	0.0561	0.6949	0.093
Mof_C 	C 	0.41118	0.9161	0.99463	-0.131
Mof_H 	H 	0.3919	0.8996	0.0102	0.085
Mof_C 	C 	0.5643	0.5335	0.01844	0.084
Mof_H 	H 	0.5726	0.5192	0.9919	-0.012
Mof_C 	C 	0.33215	0.631	0.74888	-0.135
Mof_H 	H 	0.3484	0.6654	0.77	0.093
Mof_C 	C 	0.47216	0.8903	0.97298	-0.135
Mof_H 	H 	0.4944	0.8564	0.9736	0.081
Mof_N 	N 	0.58377	0.5005	0.05719	-0.277
Mof_N 	N 	0.17205	0.0238	0.60565	-0.275
Mof_C 	C 	0.51947	0.608	0.05564	0.061
Mof_C 	C 	0.53971	0.575	0.09604	-0.139
Mof_H 	H 	0.5318	0.5881	0.123	0.091
Mof_C 	C 	0.46588	0.9676	0.94757	0.084
Mof_H 	H 	0.4845	0.9852	0.9312	-0.013
Mof_C 	C 	0.41768	0.6387	0.15416	-0.131
Mof_H 	H 	0.4416	0.6102	0.1599	0.091
Mof_C 	C 	0.19231	0.0656	0.64129	0.075
Mof_H 	H 	0.1862	0.1246	0.6467	-0.004
Mof_C 	C 	0.37325	0.9246	0.80783	-0.13
Mof_H 	H 	0.3828	0.8709	0.7988	0.096
Mof_C 	C 	0.5718	0.5223	0.09547	0.081
Mof_H 	H 	0.5857	0.501	0.1226	-0.018
Mof_C 	C 	0.39187	0.6283	0.18268	0.082
Mof_H 	H 	0.3989	0.593	0.2082	-0.021
Mof_C 	C 	0.2812	0.6166	0.68481	-0.137
Mof_H 	H 	0.2625	0.6414	0.6623	0.087
Mof_C 	C 	0.26207	0.8909	0.69524	0.085
Mof_C 	C 	0.2869	0.5264	0.687	0.079
Mof_H 	H 	0.2715	0.4906	0.6657	-0.014
Mof_C 	C 	0.21005	0.8932	0.62613	-0.126
Mof_H 	H 	0.2155	0.8341	0.6202	0.09
Mof_C 	C 	0.18103	0.9391	0.59787	0.075
Mof_H 	H 	0.1673	0.91	0.5727	-0.004
Mof_C 	C 	0.39579	0.9785	0.83963	0.083
Mof_H 	H 	0.4212	0.9612	0.8507	-0.014
Mof_C 	C 	0.40724	0.9918	0.96852	0.078
Mof_H 	H 	0.385	0.0262	0.9667	-0.017
Mof_C 	C 	0.32264	0.0317	0.80536	-0.136
Mof_H 	H 	0.2978	0.0517	0.7938	0.084
Mof_C 	C 	0.5324	0.5876	0.01626	-0.137
Mof_H 	H 	0.5197	0.6102	0.9888	0.087
Mof_C 	C 	0.33569	0.5397	0.74884	0.075
Mof_H 	H 	0.3542	0.5132	0.7709	-0.015
Mof_Zn	Zn	0.32123	0.34943	0.72182	1.163
Mof_I 	I 	0.25645	0.27619	0.68911	-0.396
Mof_I 	I 	0.3613	0.3164	0.79921	-0.408
Mof_N 	N 	0.35691	0.6671	0.1753	-0.276
Mof_C 	C 	0.2309	0.9366	0.66339	0.056
Mof_I 	I 	0.6494	0.4119	0.9885	-0.107
Mof_I 	I 	0.2672	0.2635	0.7045	0.019
Mof_I 	I 	0.88437	0.73668	0.9416	-0.375
Mof_I 	I 	0.9792	0.65676	0.86519	-0.357
Mof_I 	I 	0.1509	0.92139	0.98425	-0.228
Mof_I 	I 	0.11054	0.77447	0.10138	-0.373
Mof_Zn	Zn	0.92142	0.6267	0.90201	1.164
Mof_Zn	Zn	0.12918	0.91258	0.06081	1.162
Mof_N 	N 	0.81367	0.9868	0.71854	-0.274
Mof_N 	N 	0.93447	0.5176	0.94547	-0.271
Mof_N 	N 	0.76828	0.3042	0.68889	-0.139
Mof_N 	N 	0.82152	0.3147	0.74988	-0.132
Mof_N 	N 	0.9635	0.1508	0.08599	-0.133
Mof_N 	N 	0.78208	0.4414	0.72817	-0.142
Mof_N 	N 	0.9256	0.2752	0.05566	-0.137
Mof_N 	N 	0.88286	0.5542	0.85517	-0.271
Mof_N 	N 	0.97937	0.2299	0.0238	-0.145
Mof_C 	C 	0.80383	0.1712	0.71687	0.066
Mof_C 	C 	0.94426	0.3648	0.99745	0.063
Mof_C 	C 	0.84657	0.2185	0.13891	0.078
Mof_H 	H 	0.8221	0.2445	0.1334	-0.014
Mof_C 	C 	0.83625	0.4528	0.78989	0.068
Mof_C 	C 	0.79756	0.2691	0.7181	0.099
Mof_C 	C 	0.81186	0.3997	0.75384	0.1
Mof_C 	C 	0.93345	0.2063	0.08399	0.1
Mof_C 	C 	0.94983	0.2844	0.02695	0.086
Mof_C 	C 	0.87123	0.2339	0.10934	-0.128
Mof_H 	H 	0.8638	0.2716	0.0848	0.088
Mof_C 	C 	0.84673	0.5801	0.8384	0.077
Mof_H 	H 	0.8374	0.6324	0.8492	-0.009
Mof_C 	C 	0.98522	0.1655	0.05475	0.086
Mof_C 	C 	0.90716	0.1929	0.11633	0.072
Mof_C 	C 	0.72209	0.5247	0.67061	-0.134
Mof_H 	H 	0.736	0.5561	0.6949	0.093
Mof_C 	C 	0.91118	0.4161	0.99463	-0.131
Mof_H 	H 	0.8919	0.3996	0.0102	0.086
Mof_C 	C 	0.0643	0.0335	0.01844	0.085
Mof_H 	H 	0.0726	0.0192	0.9919	-0.013
Mof_C 	C 	0.83215	0.131	0.74888	-0.134
Mof_H 	H 	0.8484	0.1654	0.77	0.093
Mof_C 	C 	0.97216	0.3903	0.97298	-0.134
Mof_H 	H 	0.9944	0.3564	0.9736	0.081
Mof_N 	N 	0.08377	0.0005	0.05719	-0.277
Mof_N 	N 	0.67205	0.5238	0.60565	-0.274
Mof_C 	C 	0.01947	0.108	0.05564	0.06
Mof_C 	C 	0.03971	0.075	0.09604	-0.138
Mof_H 	H 	0.0318	0.0881	0.123	0.091
Mof_C 	C 	0.96588	0.4676	0.94757	0.083
Mof_H 	H 	0.9845	0.4852	0.9312	-0.013
Mof_C 	C 	0.91768	0.1387	0.15416	-0.131
Mof_H 	H 	0.9416	0.1102	0.1599	0.091
Mof_C 	C 	0.69231	0.5656	0.64129	0.075
Mof_H 	H 	0.6862	0.6246	0.6467	-0.004
Mof_C 	C 	0.87325	0.4246	0.80783	-0.129
Mof_H 	H 	0.8828	0.3709	0.7988	0.095
Mof_C 	C 	0.0718	0.0223	0.09547	0.081
Mof_H 	H 	0.0857	0.001	0.1226	-0.017
Mof_C 	C 	0.89187	0.1283	0.18268	0.082
Mof_H 	H 	0.8989	0.093	0.2082	-0.021
Mof_C 	C 	0.7812	0.1166	0.68481	-0.137
Mof_H 	H 	0.7625	0.1414	0.6623	0.086
Mof_C 	C 	0.76207	0.3909	0.69524	0.085
Mof_C 	C 	0.7869	0.0264	0.687	0.078
Mof_H 	H 	0.7715	0.9906	0.6657	-0.014
Mof_C 	C 	0.71005	0.3932	0.62613	-0.125
Mof_H 	H 	0.7155	0.3341	0.6202	0.09
Mof_C 	C 	0.68103	0.4391	0.59787	0.075
Mof_H 	H 	0.6673	0.41	0.5727	-0.003
Mof_C 	C 	0.89579	0.4785	0.83963	0.082
Mof_H 	H 	0.9212	0.4612	0.8507	-0.014
Mof_C 	C 	0.90724	0.4918	0.96852	0.076
Mof_H 	H 	0.885	0.5262	0.9667	-0.017
Mof_C 	C 	0.82264	0.5317	0.80536	-0.135
Mof_H 	H 	0.7978	0.5517	0.7938	0.084
Mof_C 	C 	0.0324	0.0876	0.01626	-0.136
Mof_H 	H 	0.0197	0.1102	0.9888	0.086
Mof_C 	C 	0.83569	0.0397	0.74884	0.074
Mof_H 	H 	0.8542	0.0132	0.7709	-0.015
Mof_Zn	Zn	0.82123	0.84943	0.72182	1.163
Mof_I 	I 	0.75645	0.77619	0.68911	-0.396
Mof_I 	I 	0.8613	0.8164	0.79921	-0.407
Mof_N 	N 	0.85691	0.1671	0.1753	-0.276
Mof_C 	C 	0.7309	0.4366	0.66339	0.055
Mof_I 	I 	0.1494	0.9119	0.9885	-0.107
Mof_I 	I 	0.7672	0.7635	0.7045	0.019
Mof_I 	I 	0.38437	0.76332	0.4416	-0.375
Mof_I 	I 	0.4792	0.84324	0.36519	-0.357
Mof_I 	I 	0.6509	0.57861	0.48425	-0.228
Mof_I 	I 	0.61054	0.72553	0.60138	-0.373
Mof_Zn	Zn	0.42142	0.8733	0.40201	1.164
Mof_Zn	Zn	0.62918	0.58742	0.56081	1.162
Mof_N 	N 	0.31367	0.5132	0.21854	-0.274
Mof_N 	N 	0.43447	0.9824	0.44547	-0.271
Mof_N 	N 	0.26828	0.1958	0.18889	-0.139
Mof_N 	N 	0.32152	0.1853	0.24988	-0.132
Mof_N 	N 	0.4635	0.3492	0.58599	-0.133
Mof_N 	N 	0.28208	0.0586	0.22817	-0.142
Mof_N 	N 	0.4256	0.2248	0.55566	-0.137
Mof_N 	N 	0.38286	0.9458	0.35517	-0.271
Mof_N 	N 	0.47937	0.2701	0.5238	-0.145
Mof_C 	C 	0.30383	0.3288	0.21687	0.066
Mof_C 	C 	0.44426	0.1352	0.49745	0.064
Mof_C 	C 	0.34657	0.2815	0.63891	0.078
Mof_H 	H 	0.3221	0.2555	0.6334	-0.014
Mof_C 	C 	0.33625	0.0472	0.28989	0.068
Mof_C 	C 	0.29756	0.2309	0.2181	0.099
Mof_C 	C 	0.31186	0.1003	0.25384	0.1
Mof_C 	C 	0.43345	0.2937	0.58399	0.1
Mof_C 	C 	0.44983	0.2156	0.52695	0.086
Mof_C 	C 	0.37123	0.2661	0.60934	-0.128
Mof_H 	H 	0.3638	0.2284	0.5848	0.088
Mof_C 	C 	0.34673	0.9199	0.3384	0.078
Mof_H 	H 	0.3374	0.8676	0.3492	-0.009
Mof_C 	C 	0.48522	0.3345	0.55475	0.086
Mof_C 	C 	0.40716	0.3071	0.61633	0.072
Mof_C 	C 	0.22209	0.9753	0.17061	-0.135
Mof_H 	H 	0.236	0.9439	0.1949	0.093
Mof_C 	C 	0.41118	0.0839	0.49463	-0.131
Mof_H 	H 	0.3919	0.1004	0.5102	0.086
Mof_C 	C 	0.5643	0.4665	0.51844	0.084
Mof_H 	H 	0.5726	0.4808	0.4919	-0.012
Mof_C 	C 	0.33215	0.369	0.24888	-0.135
Mof_H 	H 	0.3484	0.3346	0.27	0.093
Mof_C 	C 	0.47216	0.1097	0.47298	-0.134
Mof_H 	H 	0.4944	0.1436	0.4736	0.081
Mof_N 	N 	0.58377	0.4995	0.55719	-0.277
Mof_N 	N 	0.17205	0.9762	0.10565	-0.275
Mof_C 	C 	0.51947	0.392	0.55564	0.06
Mof_C 	C 	0.53971	0.425	0.59604	-0.138
Mof_H 	H 	0.5318	0.4119	0.623	0.091
Mof_C 	C 	0.46588	0.0324	0.44757	0.083
Mof_H 	H 	0.4845	0.0148	0.4312	-0.013
Mof_C 	C 	0.41768	0.3613	0.65416	-0.131
Mof_H 	H 	0.4416	0.3898	0.6599	0.091
Mof_C 	C 	0.19231	0.9344	0.14129	0.076
Mof_H 	H 	0.1862	0.8754	0.1467	-0.004
Mof_C 	C 	0.37325	0.0754	0.30783	-0.13
Mof_H 	H 	0.3828	0.1291	0.2988	0.095
Mof_C 	C 	0.5718	0.4777	0.59547	0.081
Mof_H 	H 	0.5857	0.499	0.6226	-0.018
Mof_C 	C 	0.39187	0.3717	0.68268	0.082
Mof_H 	H 	0.3989	0.407	0.7082	-0.021
Mof_C 	C 	0.2812	0.3834	0.18481	-0.137
Mof_H 	H 	0.2625	0.3586	0.1623	0.087
Mof_C 	C 	0.26207	0.1091	0.19524	0.085
Mof_C 	C 	0.2869	0.4736	0.187	0.079
Mof_H 	H 	0.2715	0.5094	0.1657	-0.014
Mof_C 	C 	0.21005	0.1068	0.12613	-0.126
Mof_H 	H 	0.2155	0.1659	0.1202	0.09
Mof_C 	C 	0.18103	0.0609	0.09787	0.076
Mof_H 	H 	0.1673	0.09	0.0727	-0.004
Mof_C 	C 	0.39579	0.0215	0.33963	0.083
Mof_H 	H 	0.4212	0.0388	0.3507	-0.014
Mof_C 	C 	0.40724	0.0082	0.46852	0.077
Mof_H 	H 	0.385	0.9738	0.4667	-0.017
Mof_C 	C 	0.32264	0.9683	0.30536	-0.136
Mof_H 	H 	0.2978	0.9483	0.2938	0.084
Mof_C 	C 	0.5324	0.4124	0.51626	-0.136
Mof_H 	H 	0.5197	0.3898	0.4888	0.086
Mof_C 	C 	0.33569	0.4603	0.24884	0.075
Mof_H 	H 	0.3542	0.4868	0.2709	-0.015
Mof_Zn	Zn	0.32123	0.65057	0.22182	1.163
Mof_I 	I 	0.25645	0.72381	0.18911	-0.396
Mof_I 	I 	0.3613	0.6836	0.29921	-0.408
Mof_N 	N 	0.35691	0.3329	0.6753	-0.276
Mof_C 	C 	0.2309	0.0634	0.16339	0.056
Mof_I 	I 	0.6494	0.5881	0.4885	-0.107
Mof_I 	I 	0.2672	0.7365	0.2045	0.019
Mof_I 	I 	0.88437	0.26332	0.4416	-0.375
Mof_I 	I 	0.9792	0.34324	0.36519	-0.357
Mof_I 	I 	0.1509	0.07861	0.48425	-0.228
Mof_I 	I 	0.11054	0.22553	0.60138	-0.373
Mof_Zn	Zn	0.92142	0.3733	0.40201	1.164
Mof_Zn	Zn	0.12918	0.08742	0.56081	1.162
Mof_N 	N 	0.81367	0.0132	0.21854	-0.273
Mof_N 	N 	0.93447	0.4824	0.44547	-0.271
Mof_N 	N 	0.76828	0.6958	0.18889	-0.139
Mof_N 	N 	0.82152	0.6853	0.24988	-0.132
Mof_N 	N 	0.9635	0.8492	0.58599	-0.133
Mof_N 	N 	0.78208	0.5586	0.22817	-0.142
Mof_N 	N 	0.9256	0.7248	0.55566	-0.137
Mof_N 	N 	0.88286	0.4458	0.35517	-0.271
Mof_N 	N 	0.97937	0.7701	0.5238	-0.145
Mof_C 	C 	0.80383	0.8288	0.21687	0.066
Mof_C 	C 	0.94426	0.6352	0.49745	0.063
Mof_C 	C 	0.84657	0.7815	0.63891	0.078
Mof_H 	H 	0.8221	0.7555	0.6334	-0.014
Mof_C 	C 	0.83625	0.5472	0.28989	0.068
Mof_C 	C 	0.79756	0.7309	0.2181	0.099
Mof_C 	C 	0.81186	0.6003	0.25384	0.1
Mof_C 	C 	0.93345	0.7937	0.58399	0.1
Mof_C 	C 	0.94983	0.7156	0.52695	0.086
Mof_C 	C 	0.87123	0.7661	0.60934	-0.128
Mof_H 	H 	0.8638	0.7284	0.5848	0.088
Mof_C 	C 	0.84673	0.4199	0.3384	0.077
Mof_H 	H 	0.8374	0.3676	0.3492	-0.009
Mof_C 	C 	0.98522	0.8345	0.55475	0.086
Mof_C 	C 	0.90716	0.8071	0.61633	0.072
Mof_C 	C 	0.72209	0.4753	0.17061	-0.134
Mof_H 	H 	0.736	0.4439	0.1949	0.093
Mof_C 	C 	0.91118	0.5839	0.49463	-0.131
Mof_H 	H 	0.8919	0.6004	0.5102	0.086
Mof_C 	C 	0.0643	0.9665	0.51844	0.084
Mof_H 	H 	0.0726	0.9808	0.4919	-0.012
Mof_C 	C 	0.83215	0.869	0.24888	-0.134
Mof_H 	H 	0.8484	0.8346	0.27	0.093
Mof_C 	C 	0.97216	0.6097	0.47298	-0.134
Mof_H 	H 	0.9944	0.6436	0.4736	0.081
Mof_N 	N 	0.08377	0.9995	0.55719	-0.277
Mof_N 	N 	0.67205	0.4762	0.10565	-0.274
Mof_C 	C 	0.01947	0.892	0.55564	0.06
Mof_C 	C 	0.03971	0.925	0.59604	-0.138
Mof_H 	H 	0.0318	0.9119	0.623	0.091
Mof_C 	C 	0.96588	0.5324	0.44757	0.083
Mof_H 	H 	0.9845	0.5148	0.4312	-0.013
Mof_C 	C 	0.91768	0.8613	0.65416	-0.131
Mof_H 	H 	0.9416	0.8898	0.6599	0.09
Mof_C 	C 	0.69231	0.4344	0.14129	0.075
Mof_H 	H 	0.6862	0.3754	0.1467	-0.004
Mof_C 	C 	0.87325	0.5754	0.30783	-0.129
Mof_H 	H 	0.8828	0.6291	0.2988	0.095
Mof_C 	C 	0.0718	0.9777	0.59547	0.081
Mof_H 	H 	0.0857	0.999	0.6226	-0.018
Mof_C 	C 	0.89187	0.8717	0.68268	0.082
Mof_H 	H 	0.8989	0.907	0.7082	-0.021
Mof_C 	C 	0.7812	0.8834	0.18481	-0.136
Mof_H 	H 	0.7625	0.8586	0.1623	0.086
Mof_C 	C 	0.76207	0.6091	0.19524	0.085
Mof_C 	C 	0.7869	0.9736	0.187	0.077
Mof_H 	H 	0.7715	0.0094	0.1657	-0.014
Mof_C 	C 	0.71005	0.6068	0.12613	-0.125
Mof_H 	H 	0.7155	0.6659	0.1202	0.09
Mof_C 	C 	0.68103	0.5609	0.09787	0.075
Mof_H 	H 	0.6673	0.59	0.0727	-0.003
Mof_C 	C 	0.89579	0.5215	0.33963	0.082
Mof_H 	H 	0.9212	0.5388	0.3507	-0.014
Mof_C 	C 	0.90724	0.5082	0.46852	0.076
Mof_H 	H 	0.885	0.4738	0.4667	-0.017
Mof_C 	C 	0.82264	0.4683	0.30536	-0.135
Mof_H 	H 	0.7978	0.4483	0.2938	0.084
Mof_C 	C 	0.0324	0.9124	0.51626	-0.136
Mof_H 	H 	0.0197	0.8898	0.4888	0.086
Mof_C 	C 	0.83569	0.9603	0.24884	0.074
Mof_H 	H 	0.8542	0.9868	0.2709	-0.015
Mof_Zn	Zn	0.82123	0.15057	0.22182	1.163
Mof_I 	I 	0.75645	0.22381	0.18911	-0.396
Mof_I 	I 	0.8613	0.1836	0.29921	-0.408
Mof_N 	N 	0.85691	0.8329	0.6753	-0.276
Mof_C 	C 	0.7309	0.5634	0.16339	0.055
Mof_I 	I 	0.1494	0.0881	0.4885	-0.107
Mof_I 	I 	0.7672	0.2365	0.2045	0.019
_end
