data_functionalizedCrystal
_audit_creation_method	'EQeq! by Chris Wilmer'
_symmetry_space_group_name_H-M	'P1'
_symmetry_Int_Tables_number	1
_symmetry_cell_setting	triclinic
loop_
_symmetry_equiv_pos_as_xyz
  x,y,z
_cell_length_a	34.6633
_cell_length_b	15.3199
_cell_length_c	32.2057
_cell_angle_alpha	90
_cell_angle_beta	103.837
_cell_angle_gamma	90
loop_
_atom_site_label
_atom_site_type_symbol
_atom_site_fract_x
_atom_site_fract_y
_atom_site_fract_z
_atom_site_charge
Mof_Br	Br	0.14602	0.42695	0.99541	-0.43
Mof_Br	Br	0.10968	0.265	0.09292	-0.447
Mof_Br	Br	0.99064	0.1064	0.87131	-0.42
Mof_Br	Br	0.89435	0.2253	0.92411	-0.442
Mof_C 	C 	0.0614	0.5417	0.0278	0.091
Mof_H 	H 	0.0734	0.5412	0.0049	-0.007
Mof_C 	C 	0.0288	0.5977	0.0258	-0.129
Mof_H 	H 	0.0192	0.6317	0.0016	0.087
Mof_C 	C 	0.0113	0.602	0.0597	0.059
Mof_C 	C 	0.0272	0.5483	0.0957	-0.129
Mof_H 	H 	0.0171	0.5504	0.1199	0.088
Mof_C 	C 	0.0569	0.495	0.0938	0.075
Mof_H 	H 	0.0658	0.4575	0.1168	-0.012
Mof_C 	C 	0.9795	0.6639	0.0594	0.095
Mof_C 	C 	0.9465	0.7866	0.0323	0.098
Mof_C 	C 	0.9276	0.7107	0.0842	0.109
Mof_C 	C 	0.9433	0.8637	0.0033	0.07
Mof_C 	C 	0.973	0.8823	0.9832	-0.132
Mof_H 	H 	0.996	0.8486	0.989	0.081
Mof_C 	C 	0.9694	0.9485	0.9552	0.076
Mof_H 	H 	0.9894	0.9582	0.941	-0.004
Mof_C 	C 	0.9088	0.987	0.969	0.085
Mof_H 	H 	0.8874	0.0251	0.9653	-0.011
Mof_C 	C 	0.9105	0.9187	0.9962	-0.129
Mof_H 	H 	0.8901	0.9088	0.0098	0.093
Mof_C 	C 	0.8364	0.7157	0.1296	0.088
Mof_H 	H 	0.8118	0.7434	0.124	-0.008
Mof_C 	C 	0.8621	0.7342	0.1021	-0.128
Mof_H 	H 	0.8542	0.7707	0.0785	0.096
Mof_C 	C 	0.8992	0.6955	0.1119	0.083
Mof_C 	C 	0.9097	0.6407	0.1469	-0.14
Mof_H 	H 	0.9348	0.6152	0.1546	0.095
Mof_C 	C 	0.8818	0.6254	0.1696	0.094
Mof_H 	H 	0.8884	0.5862	0.1922	-0.023
Mof_C 	C 	0.807	0.8899	0.7552	0.097
Mof_C 	C 	0.7876	0.7628	0.7212	0.106
Mof_C 	C 	0.7545	0.886	0.6998	0.099
Mof_C 	C 	0.8577	0.0697	0.8251	0.092
Mof_H 	H 	0.8548	0.1297	0.8273	0.006
Mof_C 	C 	0.8319	0.0264	0.7931	-0.156
Mof_H 	H 	0.812	0.0568	0.7741	0.108
Mof_C 	C 	0.8353	0.9402	0.7893	0.095
Mof_C 	C 	0.8652	0.897	0.8174	-0.157
Mof_H 	H 	0.8684	0.8371	0.8154	0.116
Mof_C 	C 	0.89	0.9448	0.8483	0.112
Mof_H 	H 	0.9104	0.9153	0.8671	-0.008
Mof_C 	C 	0.8258	0.5323	0.7384	0.091
Mof_H 	H 	0.8458	0.5022	0.7574	-0.02
Mof_C 	C 	0.8233	0.6238	0.7435	-0.15
Mof_H 	H 	0.8421	0.6534	0.7641	0.098
Mof_C 	C 	0.7934	0.6658	0.718	0.087
Mof_C 	C 	0.7652	0.6169	0.6865	-0.155
Mof_H 	H 	0.7438	0.6443	0.6683	0.103
Mof_C 	C 	0.7709	0.5311	0.6843	0.105
Mof_H 	H 	0.7521	0.4993	0.6647	-0.02
Mof_C 	C 	0.7219	0.9355	0.6689	0.077
Mof_C 	C 	0.6954	0.8901	0.6363	-0.138
Mof_H 	H 	0.6972	0.83	0.6335	0.109
Mof_C 	C 	0.6671	0.9375	0.6089	0.097
Mof_H 	H 	0.6489	0.907	0.5879	0.001
Mof_C 	C 	0.6888	0.0661	0.6422	0.072
Mof_H 	H 	0.6862	0.1261	0.6449	0.011
Mof_C 	C 	0.7185	0.0226	0.6712	-0.136
Mof_H 	H 	0.7362	0.0537	0.6923	0.103
Mof_N 	N 	0.0757	0.4905	0.0602	-0.276
Mof_N 	N 	0.8454	0.6621	0.1621	-0.278
Mof_N 	N 	0.9368	0.0021	0.947	-0.27
Mof_N 	N 	0.9206	0.7786	0.0571	-0.129
Mof_N 	N 	0.9572	0.653	0.0871	-0.133
Mof_N 	N 	0.9754	0.7308	0.0313	-0.143
Mof_N 	N 	0.8873	0.0297	0.8537	-0.276
Mof_N 	N 	0.8015	0.4875	0.7082	-0.276
Mof_N 	N 	0.6633	0.0234	0.6097	-0.276
Mof_N 	N 	0.7774	0.9329	0.7306	-0.141
Mof_N 	N 	0.8143	0.8032	0.7525	-0.127
Mof_N 	N 	0.758	0.7999	0.6938	-0.131
Mof_Zn	Zn	0.12339	0.4111	0.06401	1.179
Mof_Zn	Zn	0.9284	0.09592	0.90011	1.176
Mof_Zn	Zn	0.8089	0.35373	0.70261	1.195
Mof_Br	Br	0.73576	0.3019	0.65284	0.047
Mof_Br	Br	0.86138	0.3175	0.78314	0.072
Mof_Br	Br	0.75117	0.27579	0.68093	-0.513
Mof_Br	Br	0.83593	0.2892	0.76957	-0.525
Mof_Br	Br	0.64602	0.92695	0.99541	-0.428
Mof_Br	Br	0.60968	0.765	0.09292	-0.446
Mof_Br	Br	0.49064	0.6064	0.87131	-0.419
Mof_Br	Br	0.39435	0.7253	0.92411	-0.441
Mof_C 	C 	0.5614	0.0417	0.0278	0.092
Mof_H 	H 	0.5734	0.0412	0.0049	-0.006
Mof_C 	C 	0.5288	0.0977	0.0258	-0.128
Mof_H 	H 	0.5192	0.1317	0.0016	0.088
Mof_C 	C 	0.5113	0.102	0.0597	0.06
Mof_C 	C 	0.5272	0.0483	0.0957	-0.128
Mof_H 	H 	0.5171	0.0504	0.1199	0.088
Mof_C 	C 	0.5569	0.995	0.0938	0.075
Mof_H 	H 	0.5658	0.9575	0.1168	-0.012
Mof_C 	C 	0.4795	0.1639	0.0594	0.095
Mof_C 	C 	0.4465	0.2866	0.0323	0.098
Mof_C 	C 	0.4276	0.2107	0.0842	0.109
Mof_C 	C 	0.4433	0.3637	0.0033	0.071
Mof_C 	C 	0.473	0.3823	0.9832	-0.132
Mof_H 	H 	0.496	0.3486	0.989	0.081
Mof_C 	C 	0.4694	0.4485	0.9552	0.076
Mof_H 	H 	0.4894	0.4582	0.941	-0.004
Mof_C 	C 	0.4088	0.487	0.969	0.084
Mof_H 	H 	0.3874	0.5251	0.9653	-0.01
Mof_C 	C 	0.4105	0.4187	0.9962	-0.13
Mof_H 	H 	0.3901	0.4088	0.0098	0.093
Mof_C 	C 	0.3364	0.2157	0.1296	0.088
Mof_H 	H 	0.3118	0.2434	0.124	-0.008
Mof_C 	C 	0.3621	0.2342	0.1021	-0.128
Mof_H 	H 	0.3542	0.2707	0.0785	0.096
Mof_C 	C 	0.3992	0.1955	0.1119	0.083
Mof_C 	C 	0.4097	0.1407	0.1469	-0.14
Mof_H 	H 	0.4348	0.1152	0.1546	0.095
Mof_C 	C 	0.3818	0.1254	0.1696	0.094
Mof_H 	H 	0.3884	0.0862	0.1922	-0.023
Mof_C 	C 	0.307	0.3899	0.7552	0.097
Mof_C 	C 	0.2876	0.2628	0.7212	0.106
Mof_C 	C 	0.2545	0.386	0.6998	0.099
Mof_C 	C 	0.3577	0.5697	0.8251	0.092
Mof_H 	H 	0.3548	0.6297	0.8273	0.006
Mof_C 	C 	0.3319	0.5264	0.7931	-0.156
Mof_H 	H 	0.312	0.5568	0.7741	0.107
Mof_C 	C 	0.3353	0.4402	0.7893	0.095
Mof_C 	C 	0.3652	0.397	0.8174	-0.157
Mof_H 	H 	0.3684	0.3371	0.8154	0.116
Mof_C 	C 	0.39	0.4448	0.8483	0.111
Mof_H 	H 	0.4104	0.4153	0.8671	-0.008
Mof_C 	C 	0.3258	0.0323	0.7384	0.091
Mof_H 	H 	0.3458	0.0022	0.7574	-0.02
Mof_C 	C 	0.3233	0.1238	0.7435	-0.15
Mof_H 	H 	0.3421	0.1534	0.7641	0.098
Mof_C 	C 	0.2934	0.1658	0.718	0.087
Mof_C 	C 	0.2652	0.1169	0.6865	-0.155
Mof_H 	H 	0.2438	0.1443	0.6683	0.102
Mof_C 	C 	0.2709	0.0311	0.6843	0.104
Mof_H 	H 	0.2521	0.9993	0.6647	-0.019
Mof_C 	C 	0.2219	0.4355	0.6689	0.077
Mof_C 	C 	0.1954	0.3901	0.6363	-0.138
Mof_H 	H 	0.1972	0.33	0.6335	0.109
Mof_C 	C 	0.1671	0.4375	0.6089	0.097
Mof_H 	H 	0.1489	0.407	0.5879	0.001
Mof_C 	C 	0.1888	0.5661	0.6422	0.071
Mof_H 	H 	0.1862	0.6261	0.6449	0.011
Mof_C 	C 	0.2185	0.5226	0.6712	-0.136
Mof_H 	H 	0.2362	0.5537	0.6923	0.103
Mof_N 	N 	0.5757	0.9905	0.0602	-0.276
Mof_N 	N 	0.3454	0.1621	0.1621	-0.278
Mof_N 	N 	0.4368	0.5021	0.947	-0.27
Mof_N 	N 	0.4206	0.2786	0.0571	-0.129
Mof_N 	N 	0.4572	0.153	0.0871	-0.133
Mof_N 	N 	0.4754	0.2308	0.0313	-0.143
Mof_N 	N 	0.3873	0.5297	0.8537	-0.276
Mof_N 	N 	0.3015	0.9875	0.7082	-0.276
Mof_N 	N 	0.1633	0.5234	0.6097	-0.276
Mof_N 	N 	0.2774	0.4329	0.7306	-0.141
Mof_N 	N 	0.3143	0.3032	0.7525	-0.127
Mof_N 	N 	0.258	0.2999	0.6938	-0.131
Mof_Zn	Zn	0.62339	0.9111	0.06401	1.179
Mof_Zn	Zn	0.4284	0.59592	0.90011	1.176
Mof_Zn	Zn	0.3089	0.85373	0.70261	1.195
Mof_Br	Br	0.23576	0.8019	0.65284	0.047
Mof_Br	Br	0.36138	0.8175	0.78314	0.072
Mof_Br	Br	0.25117	0.77579	0.68093	-0.513
Mof_Br	Br	0.33593	0.7892	0.76957	-0.525
Mof_Br	Br	0.14602	0.57305	0.49541	-0.428
Mof_Br	Br	0.10968	0.735	0.59292	-0.446
Mof_Br	Br	0.99064	0.8936	0.37131	-0.419
Mof_Br	Br	0.89435	0.7747	0.42411	-0.441
Mof_C 	C 	0.0614	0.4583	0.5278	0.092
Mof_H 	H 	0.0734	0.4588	0.5049	-0.006
Mof_C 	C 	0.0288	0.4023	0.5258	-0.128
Mof_H 	H 	0.0192	0.3683	0.5016	0.088
Mof_C 	C 	0.0113	0.398	0.5597	0.06
Mof_C 	C 	0.0272	0.4517	0.5957	-0.128
Mof_H 	H 	0.0171	0.4496	0.6199	0.088
Mof_C 	C 	0.0569	0.505	0.5938	0.075
Mof_H 	H 	0.0658	0.5425	0.6168	-0.012
Mof_C 	C 	0.9795	0.3361	0.5594	0.095
Mof_C 	C 	0.9465	0.2134	0.5323	0.098
Mof_C 	C 	0.9276	0.2893	0.5842	0.109
Mof_C 	C 	0.9433	0.1363	0.5033	0.071
Mof_C 	C 	0.973	0.1177	0.4832	-0.132
Mof_H 	H 	0.996	0.1514	0.489	0.081
Mof_C 	C 	0.9694	0.0515	0.4552	0.076
Mof_H 	H 	0.9894	0.0418	0.441	-0.004
Mof_C 	C 	0.9088	0.013	0.469	0.084
Mof_H 	H 	0.8874	0.9749	0.4653	-0.01
Mof_C 	C 	0.9105	0.0813	0.4962	-0.129
Mof_H 	H 	0.8901	0.0912	0.5098	0.093
Mof_C 	C 	0.8364	0.2843	0.6296	0.088
Mof_H 	H 	0.8118	0.2566	0.624	-0.008
Mof_C 	C 	0.8621	0.2658	0.6021	-0.128
Mof_H 	H 	0.8542	0.2293	0.5785	0.096
Mof_C 	C 	0.8992	0.3045	0.6119	0.083
Mof_C 	C 	0.9097	0.3593	0.6469	-0.14
Mof_H 	H 	0.9348	0.3848	0.6546	0.095
Mof_C 	C 	0.8818	0.3746	0.6696	0.094
Mof_H 	H 	0.8884	0.4138	0.6922	-0.023
Mof_C 	C 	0.807	0.1101	0.2552	0.097
Mof_C 	C 	0.7876	0.2372	0.2212	0.106
Mof_C 	C 	0.7545	0.114	0.1998	0.099
Mof_C 	C 	0.8577	0.9303	0.3251	0.092
Mof_H 	H 	0.8548	0.8703	0.3273	0.006
Mof_C 	C 	0.8319	0.9736	0.2931	-0.156
Mof_H 	H 	0.812	0.9432	0.2741	0.108
Mof_C 	C 	0.8353	0.0598	0.2893	0.095
Mof_C 	C 	0.8652	0.103	0.3174	-0.157
Mof_H 	H 	0.8684	0.1629	0.3154	0.116
Mof_C 	C 	0.89	0.0552	0.3483	0.112
Mof_H 	H 	0.9104	0.0847	0.3671	-0.008
Mof_C 	C 	0.8258	0.4677	0.2384	0.091
Mof_H 	H 	0.8458	0.4978	0.2574	-0.02
Mof_C 	C 	0.8233	0.3762	0.2435	-0.15
Mof_H 	H 	0.8421	0.3466	0.2641	0.098
Mof_C 	C 	0.7934	0.3342	0.218	0.087
Mof_C 	C 	0.7652	0.3831	0.1865	-0.155
Mof_H 	H 	0.7438	0.3557	0.1683	0.103
Mof_C 	C 	0.7709	0.4689	0.1843	0.105
Mof_H 	H 	0.7521	0.5007	0.1647	-0.02
Mof_C 	C 	0.7219	0.0645	0.1689	0.077
Mof_C 	C 	0.6954	0.1099	0.1363	-0.138
Mof_H 	H 	0.6972	0.17	0.1335	0.109
Mof_C 	C 	0.6671	0.0625	0.1089	0.097
Mof_H 	H 	0.6489	0.093	0.0879	0.001
Mof_C 	C 	0.6888	0.9339	0.1422	0.072
Mof_H 	H 	0.6862	0.8739	0.1449	0.011
Mof_C 	C 	0.7185	0.9774	0.1712	-0.136
Mof_H 	H 	0.7362	0.9463	0.1923	0.103
Mof_N 	N 	0.0757	0.5095	0.5602	-0.276
Mof_N 	N 	0.8454	0.3379	0.6621	-0.278
Mof_N 	N 	0.9368	0.9979	0.447	-0.27
Mof_N 	N 	0.9206	0.2214	0.5571	-0.129
Mof_N 	N 	0.9572	0.347	0.5871	-0.133
Mof_N 	N 	0.9754	0.2692	0.5313	-0.143
Mof_N 	N 	0.8873	0.9703	0.3537	-0.276
Mof_N 	N 	0.8015	0.5125	0.2082	-0.276
Mof_N 	N 	0.6633	0.9766	0.1097	-0.276
Mof_N 	N 	0.7774	0.0671	0.2306	-0.141
Mof_N 	N 	0.8143	0.1968	0.2525	-0.127
Mof_N 	N 	0.758	0.2001	0.1938	-0.131
Mof_Zn	Zn	0.12339	0.5889	0.56401	1.179
Mof_Zn	Zn	0.9284	0.90408	0.40011	1.176
Mof_Zn	Zn	0.8089	0.64627	0.20261	1.195
Mof_Br	Br	0.73576	0.6981	0.15284	0.047
Mof_Br	Br	0.86138	0.6825	0.28314	0.072
Mof_Br	Br	0.75117	0.72421	0.18093	-0.513
Mof_Br	Br	0.83593	0.7108	0.26957	-0.525
Mof_Br	Br	0.64602	0.07305	0.49541	-0.428
Mof_Br	Br	0.60968	0.235	0.59292	-0.446
Mof_Br	Br	0.49064	0.3936	0.37131	-0.419
Mof_Br	Br	0.39435	0.2747	0.42411	-0.441
Mof_C 	C 	0.5614	0.9583	0.5278	0.092
Mof_H 	H 	0.5734	0.9588	0.5049	-0.006
Mof_C 	C 	0.5288	0.9023	0.5258	-0.128
Mof_H 	H 	0.5192	0.8683	0.5016	0.088
Mof_C 	C 	0.5113	0.898	0.5597	0.06
Mof_C 	C 	0.5272	0.9517	0.5957	-0.128
Mof_H 	H 	0.5171	0.9496	0.6199	0.088
Mof_C 	C 	0.5569	0.005	0.5938	0.075
Mof_H 	H 	0.5658	0.0425	0.6168	-0.012
Mof_C 	C 	0.4795	0.8361	0.5594	0.095
Mof_C 	C 	0.4465	0.7134	0.5323	0.098
Mof_C 	C 	0.4276	0.7893	0.5842	0.109
Mof_C 	C 	0.4433	0.6363	0.5033	0.071
Mof_C 	C 	0.473	0.6177	0.4832	-0.132
Mof_H 	H 	0.496	0.6514	0.489	0.081
Mof_C 	C 	0.4694	0.5515	0.4552	0.076
Mof_H 	H 	0.4894	0.5418	0.441	-0.004
Mof_C 	C 	0.4088	0.513	0.469	0.084
Mof_H 	H 	0.3874	0.4749	0.4653	-0.01
Mof_C 	C 	0.4105	0.5813	0.4962	-0.129
Mof_H 	H 	0.3901	0.5912	0.5098	0.093
Mof_C 	C 	0.3364	0.7843	0.6296	0.088
Mof_H 	H 	0.3118	0.7566	0.624	-0.008
Mof_C 	C 	0.3621	0.7658	0.6021	-0.128
Mof_H 	H 	0.3542	0.7293	0.5785	0.096
Mof_C 	C 	0.3992	0.8045	0.6119	0.083
Mof_C 	C 	0.4097	0.8593	0.6469	-0.14
Mof_H 	H 	0.4348	0.8848	0.6546	0.095
Mof_C 	C 	0.3818	0.8746	0.6696	0.094
Mof_H 	H 	0.3884	0.9138	0.6922	-0.023
Mof_C 	C 	0.307	0.6101	0.2552	0.097
Mof_C 	C 	0.2876	0.7372	0.2212	0.106
Mof_C 	C 	0.2545	0.614	0.1998	0.099
Mof_C 	C 	0.3577	0.4303	0.3251	0.092
Mof_H 	H 	0.3548	0.3703	0.3273	0.006
Mof_C 	C 	0.3319	0.4736	0.2931	-0.156
Mof_H 	H 	0.312	0.4432	0.2741	0.107
Mof_C 	C 	0.3353	0.5598	0.2893	0.095
Mof_C 	C 	0.3652	0.603	0.3174	-0.157
Mof_H 	H 	0.3684	0.6629	0.3154	0.116
Mof_C 	C 	0.39	0.5552	0.3483	0.111
Mof_H 	H 	0.4104	0.5847	0.3671	-0.008
Mof_C 	C 	0.3258	0.9677	0.2384	0.091
Mof_H 	H 	0.3458	0.9978	0.2574	-0.02
Mof_C 	C 	0.3233	0.8762	0.2435	-0.15
Mof_H 	H 	0.3421	0.8466	0.2641	0.098
Mof_C 	C 	0.2934	0.8342	0.218	0.087
Mof_C 	C 	0.2652	0.8831	0.1865	-0.155
Mof_H 	H 	0.2438	0.8557	0.1683	0.102
Mof_C 	C 	0.2709	0.9689	0.1843	0.104
Mof_H 	H 	0.2521	0.0007	0.1647	-0.019
Mof_C 	C 	0.2219	0.5645	0.1689	0.077
Mof_C 	C 	0.1954	0.6099	0.1363	-0.138
Mof_H 	H 	0.1972	0.67	0.1335	0.109
Mof_C 	C 	0.1671	0.5625	0.1089	0.097
Mof_H 	H 	0.1489	0.593	0.0879	0.001
Mof_C 	C 	0.1888	0.4339	0.1422	0.071
Mof_H 	H 	0.1862	0.3739	0.1449	0.011
Mof_C 	C 	0.2185	0.4774	0.1712	-0.136
Mof_H 	H 	0.2362	0.4463	0.1923	0.103
Mof_N 	N 	0.5757	0.0095	0.5602	-0.276
Mof_N 	N 	0.3454	0.8379	0.6621	-0.278
Mof_N 	N 	0.4368	0.4979	0.447	-0.27
Mof_N 	N 	0.4206	0.7214	0.5571	-0.129
Mof_N 	N 	0.4572	0.847	0.5871	-0.133
Mof_N 	N 	0.4754	0.7692	0.5313	-0.143
Mof_N 	N 	0.3873	0.4703	0.3537	-0.276
Mof_N 	N 	0.3015	0.0125	0.2082	-0.276
Mof_N 	N 	0.1633	0.4766	0.1097	-0.276
Mof_N 	N 	0.2774	0.5671	0.2306	-0.141
Mof_N 	N 	0.3143	0.6968	0.2525	-0.127
Mof_N 	N 	0.258	0.7001	0.1938	-0.131
Mof_Zn	Zn	0.62339	0.0889	0.56401	1.179
Mof_Zn	Zn	0.4284	0.40408	0.40011	1.176
Mof_Zn	Zn	0.3089	0.14627	0.20261	1.195
Mof_Br	Br	0.23576	0.1981	0.15284	0.047
Mof_Br	Br	0.36138	0.1825	0.28314	0.072
Mof_Br	Br	0.25117	0.22421	0.18093	-0.513
Mof_Br	Br	0.33593	0.2108	0.26957	-0.525
Mof_Br	Br	0.85398	0.42695	0.50459	-0.428
Mof_Br	Br	0.89032	0.265	0.40708	-0.446
Mof_Br	Br	0.00936	0.1064	0.62869	-0.419
Mof_Br	Br	0.10565	0.2253	0.57589	-0.441
Mof_C 	C 	0.9386	0.5417	0.4722	0.092
Mof_H 	H 	0.9266	0.5412	0.4951	-0.006
Mof_C 	C 	0.9712	0.5977	0.4742	-0.128
Mof_H 	H 	0.9808	0.6317	0.4984	0.088
Mof_C 	C 	0.9887	0.602	0.4403	0.06
Mof_C 	C 	0.9728	0.5483	0.4043	-0.128
Mof_H 	H 	0.9829	0.5504	0.3801	0.088
Mof_C 	C 	0.9431	0.495	0.4062	0.075
Mof_H 	H 	0.9342	0.4575	0.3832	-0.012
Mof_C 	C 	0.0205	0.6639	0.4406	0.095
Mof_C 	C 	0.0535	0.7866	0.4677	0.098
Mof_C 	C 	0.0724	0.7107	0.4158	0.109
Mof_C 	C 	0.0567	0.8637	0.4967	0.071
Mof_C 	C 	0.027	0.8823	0.5168	-0.132
Mof_H 	H 	0.004	0.8486	0.511	0.081
Mof_C 	C 	0.0306	0.9485	0.5448	0.076
Mof_H 	H 	0.0106	0.9582	0.559	-0.004
Mof_C 	C 	0.0912	0.987	0.531	0.084
Mof_H 	H 	0.1126	0.0251	0.5347	-0.01
Mof_C 	C 	0.0895	0.9187	0.5038	-0.129
Mof_H 	H 	0.1099	0.9088	0.4902	0.093
Mof_C 	C 	0.1636	0.7157	0.3704	0.088
Mof_H 	H 	0.1882	0.7434	0.376	-0.008
Mof_C 	C 	0.1379	0.7342	0.3979	-0.128
Mof_H 	H 	0.1458	0.7707	0.4215	0.096
Mof_C 	C 	0.1008	0.6955	0.3881	0.083
Mof_C 	C 	0.0903	0.6407	0.3531	-0.14
Mof_H 	H 	0.0652	0.6152	0.3454	0.095
Mof_C 	C 	0.1182	0.6254	0.3304	0.094
Mof_H 	H 	0.1116	0.5862	0.3078	-0.023
Mof_C 	C 	0.193	0.8899	0.7448	0.097
Mof_C 	C 	0.2124	0.7628	0.7788	0.106
Mof_C 	C 	0.2455	0.886	0.8002	0.099
Mof_C 	C 	0.1423	0.0697	0.6749	0.092
Mof_H 	H 	0.1452	0.1297	0.6727	0.006
Mof_C 	C 	0.1681	0.0264	0.7069	-0.156
Mof_H 	H 	0.188	0.0568	0.7259	0.108
Mof_C 	C 	0.1647	0.9402	0.7107	0.095
Mof_C 	C 	0.1348	0.897	0.6826	-0.157
Mof_H 	H 	0.1316	0.8371	0.6846	0.116
Mof_C 	C 	0.11	0.9448	0.6517	0.112
Mof_H 	H 	0.0896	0.9153	0.6329	-0.008
Mof_C 	C 	0.1742	0.5323	0.7616	0.091
Mof_H 	H 	0.1542	0.5022	0.7426	-0.02
Mof_C 	C 	0.1767	0.6238	0.7565	-0.15
Mof_H 	H 	0.1579	0.6534	0.7359	0.098
Mof_C 	C 	0.2066	0.6658	0.782	0.087
Mof_C 	C 	0.2348	0.6169	0.8135	-0.155
Mof_H 	H 	0.2562	0.6443	0.8317	0.103
Mof_C 	C 	0.2291	0.5311	0.8157	0.105
Mof_H 	H 	0.2479	0.4993	0.8353	-0.02
Mof_C 	C 	0.2781	0.9355	0.8311	0.077
Mof_C 	C 	0.3046	0.8901	0.8637	-0.138
Mof_H 	H 	0.3028	0.83	0.8665	0.109
Mof_C 	C 	0.3329	0.9375	0.8911	0.097
Mof_H 	H 	0.3511	0.907	0.9121	0.001
Mof_C 	C 	0.3112	0.0661	0.8578	0.072
Mof_H 	H 	0.3138	0.1261	0.8551	0.011
Mof_C 	C 	0.2815	0.0226	0.8288	-0.136
Mof_H 	H 	0.2638	0.0537	0.8077	0.103
Mof_N 	N 	0.9243	0.4905	0.4398	-0.276
Mof_N 	N 	0.1546	0.6621	0.3379	-0.278
Mof_N 	N 	0.0632	0.0021	0.553	-0.27
Mof_N 	N 	0.0794	0.7786	0.4429	-0.129
Mof_N 	N 	0.0428	0.653	0.4129	-0.133
Mof_N 	N 	0.0246	0.7308	0.4687	-0.143
Mof_N 	N 	0.1127	0.0297	0.6463	-0.276
Mof_N 	N 	0.1985	0.4875	0.7918	-0.276
Mof_N 	N 	0.3367	0.0234	0.8903	-0.276
Mof_N 	N 	0.2226	0.9329	0.7694	-0.141
Mof_N 	N 	0.1857	0.8032	0.7475	-0.127
Mof_N 	N 	0.242	0.7999	0.8062	-0.131
Mof_Zn	Zn	0.87661	0.4111	0.43599	1.179
Mof_Zn	Zn	0.0716	0.09592	0.59989	1.176
Mof_Zn	Zn	0.1911	0.35373	0.79739	1.195
Mof_Br	Br	0.26424	0.3019	0.84716	0.047
Mof_Br	Br	0.13862	0.3175	0.71686	0.072
Mof_Br	Br	0.24883	0.27579	0.81907	-0.513
Mof_Br	Br	0.16407	0.2892	0.73043	-0.525
Mof_Br	Br	0.35398	0.92695	0.50459	-0.428
Mof_Br	Br	0.39032	0.765	0.40708	-0.446
Mof_Br	Br	0.50936	0.6064	0.62869	-0.419
Mof_Br	Br	0.60565	0.7253	0.57589	-0.441
Mof_C 	C 	0.4386	0.0417	0.4722	0.092
Mof_H 	H 	0.4266	0.0412	0.4951	-0.006
Mof_C 	C 	0.4712	0.0977	0.4742	-0.128
Mof_H 	H 	0.4808	0.1317	0.4984	0.088
Mof_C 	C 	0.4887	0.102	0.4403	0.06
Mof_C 	C 	0.4728	0.0483	0.4043	-0.128
Mof_H 	H 	0.4829	0.0504	0.3801	0.088
Mof_C 	C 	0.4431	0.995	0.4062	0.075
Mof_H 	H 	0.4342	0.9575	0.3832	-0.012
Mof_C 	C 	0.5205	0.1639	0.4406	0.095
Mof_C 	C 	0.5535	0.2866	0.4677	0.098
Mof_C 	C 	0.5724	0.2107	0.4158	0.109
Mof_C 	C 	0.5567	0.3637	0.4967	0.071
Mof_C 	C 	0.527	0.3823	0.5168	-0.132
Mof_H 	H 	0.504	0.3486	0.511	0.081
Mof_C 	C 	0.5306	0.4485	0.5448	0.076
Mof_H 	H 	0.5106	0.4582	0.559	-0.004
Mof_C 	C 	0.5912	0.487	0.531	0.084
Mof_H 	H 	0.6126	0.5251	0.5347	-0.01
Mof_C 	C 	0.5895	0.4187	0.5038	-0.129
Mof_H 	H 	0.6099	0.4088	0.4902	0.093
Mof_C 	C 	0.6636	0.2157	0.3704	0.088
Mof_H 	H 	0.6882	0.2434	0.376	-0.008
Mof_C 	C 	0.6379	0.2342	0.3979	-0.128
Mof_H 	H 	0.6458	0.2707	0.4215	0.096
Mof_C 	C 	0.6008	0.1955	0.3881	0.083
Mof_C 	C 	0.5903	0.1407	0.3531	-0.14
Mof_H 	H 	0.5652	0.1152	0.3454	0.095
Mof_C 	C 	0.6182	0.1254	0.3304	0.094
Mof_H 	H 	0.6116	0.0862	0.3078	-0.023
Mof_C 	C 	0.693	0.3899	0.7448	0.097
Mof_C 	C 	0.7124	0.2628	0.7788	0.106
Mof_C 	C 	0.7455	0.386	0.8002	0.099
Mof_C 	C 	0.6423	0.5697	0.6749	0.092
Mof_H 	H 	0.6452	0.6297	0.6727	0.006
Mof_C 	C 	0.6681	0.5264	0.7069	-0.156
Mof_H 	H 	0.688	0.5568	0.7259	0.107
Mof_C 	C 	0.6647	0.4402	0.7107	0.095
Mof_C 	C 	0.6348	0.397	0.6826	-0.157
Mof_H 	H 	0.6316	0.3371	0.6846	0.116
Mof_C 	C 	0.61	0.4448	0.6517	0.111
Mof_H 	H 	0.5896	0.4153	0.6329	-0.008
Mof_C 	C 	0.6742	0.0323	0.7616	0.091
Mof_H 	H 	0.6542	0.0022	0.7426	-0.02
Mof_C 	C 	0.6767	0.1238	0.7565	-0.15
Mof_H 	H 	0.6579	0.1534	0.7359	0.098
Mof_C 	C 	0.7066	0.1658	0.782	0.087
Mof_C 	C 	0.7348	0.1169	0.8135	-0.155
Mof_H 	H 	0.7562	0.1443	0.8317	0.102
Mof_C 	C 	0.7291	0.0311	0.8157	0.104
Mof_H 	H 	0.7479	0.9993	0.8353	-0.019
Mof_C 	C 	0.7781	0.4355	0.8311	0.077
Mof_C 	C 	0.8046	0.3901	0.8637	-0.138
Mof_H 	H 	0.8028	0.33	0.8665	0.109
Mof_C 	C 	0.8329	0.4375	0.8911	0.097
Mof_H 	H 	0.8511	0.407	0.9121	0.001
Mof_C 	C 	0.8112	0.5661	0.8578	0.071
Mof_H 	H 	0.8138	0.6261	0.8551	0.011
Mof_C 	C 	0.7815	0.5226	0.8288	-0.136
Mof_H 	H 	0.7638	0.5537	0.8077	0.103
Mof_N 	N 	0.4243	0.9905	0.4398	-0.276
Mof_N 	N 	0.6546	0.1621	0.3379	-0.278
Mof_N 	N 	0.5632	0.5021	0.553	-0.27
Mof_N 	N 	0.5794	0.2786	0.4429	-0.129
Mof_N 	N 	0.5428	0.153	0.4129	-0.133
Mof_N 	N 	0.5246	0.2308	0.4687	-0.143
Mof_N 	N 	0.6127	0.5297	0.6463	-0.276
Mof_N 	N 	0.6985	0.9875	0.7918	-0.276
Mof_N 	N 	0.8367	0.5234	0.8903	-0.276
Mof_N 	N 	0.7226	0.4329	0.7694	-0.141
Mof_N 	N 	0.6857	0.3032	0.7475	-0.127
Mof_N 	N 	0.742	0.2999	0.8062	-0.131
Mof_Zn	Zn	0.37661	0.9111	0.43599	1.179
Mof_Zn	Zn	0.5716	0.59592	0.59989	1.176
Mof_Zn	Zn	0.6911	0.85373	0.79739	1.195
Mof_Br	Br	0.76424	0.8019	0.84716	0.047
Mof_Br	Br	0.63862	0.8175	0.71686	0.072
Mof_Br	Br	0.74883	0.77579	0.81907	-0.513
Mof_Br	Br	0.66407	0.7892	0.73043	-0.525
Mof_Br	Br	0.85398	0.57305	0.00459	-0.429
Mof_Br	Br	0.89032	0.735	0.90708	-0.446
Mof_Br	Br	0.00936	0.8936	0.12869	-0.419
Mof_Br	Br	0.10565	0.7747	0.07589	-0.441
Mof_C 	C 	0.9386	0.4583	0.9722	0.092
Mof_H 	H 	0.9266	0.4588	0.9951	-0.006
Mof_C 	C 	0.9712	0.4023	0.9742	-0.128
Mof_H 	H 	0.9808	0.3683	0.9984	0.088
Mof_C 	C 	0.9887	0.398	0.9403	0.06
Mof_C 	C 	0.9728	0.4517	0.9043	-0.128
Mof_H 	H 	0.9829	0.4496	0.8801	0.088
Mof_C 	C 	0.9431	0.505	0.9062	0.075
Mof_H 	H 	0.9342	0.5425	0.8832	-0.012
Mof_C 	C 	0.0205	0.3361	0.9406	0.095
Mof_C 	C 	0.0535	0.2134	0.9677	0.098
Mof_C 	C 	0.0724	0.2893	0.9158	0.109
Mof_C 	C 	0.0567	0.1363	0.9967	0.07
Mof_C 	C 	0.027	0.1177	0.0168	-0.132
Mof_H 	H 	0.004	0.1514	0.011	0.081
Mof_C 	C 	0.0306	0.0515	0.0448	0.076
Mof_H 	H 	0.0106	0.0418	0.059	-0.004
Mof_C 	C 	0.0912	0.013	0.031	0.085
Mof_H 	H 	0.1126	0.9749	0.0347	-0.011
Mof_C 	C 	0.0895	0.0813	0.0038	-0.129
Mof_H 	H 	0.1099	0.0912	0.9902	0.093
Mof_C 	C 	0.1636	0.2843	0.8704	0.088
Mof_H 	H 	0.1882	0.2566	0.876	-0.008
Mof_C 	C 	0.1379	0.2658	0.8979	-0.128
Mof_H 	H 	0.1458	0.2293	0.9215	0.096
Mof_C 	C 	0.1008	0.3045	0.8881	0.083
Mof_C 	C 	0.0903	0.3593	0.8531	-0.14
Mof_H 	H 	0.0652	0.3848	0.8454	0.095
Mof_C 	C 	0.1182	0.3746	0.8304	0.094
Mof_H 	H 	0.1116	0.4138	0.8078	-0.023
Mof_C 	C 	0.193	0.1101	0.2448	0.097
Mof_C 	C 	0.2124	0.2372	0.2788	0.106
Mof_C 	C 	0.2455	0.114	0.3002	0.099
Mof_C 	C 	0.1423	0.9303	0.1749	0.092
Mof_H 	H 	0.1452	0.8703	0.1727	0.006
Mof_C 	C 	0.1681	0.9736	0.2069	-0.156
Mof_H 	H 	0.188	0.9432	0.2259	0.108
Mof_C 	C 	0.1647	0.0598	0.2107	0.095
Mof_C 	C 	0.1348	0.103	0.1826	-0.157
Mof_H 	H 	0.1316	0.1629	0.1846	0.116
Mof_C 	C 	0.11	0.0552	0.1517	0.112
Mof_H 	H 	0.0896	0.0847	0.1329	-0.008
Mof_C 	C 	0.1742	0.4677	0.2616	0.091
Mof_H 	H 	0.1542	0.4978	0.2426	-0.02
Mof_C 	C 	0.1767	0.3762	0.2565	-0.15
Mof_H 	H 	0.1579	0.3466	0.2359	0.098
Mof_C 	C 	0.2066	0.3342	0.282	0.087
Mof_C 	C 	0.2348	0.3831	0.3135	-0.155
Mof_H 	H 	0.2562	0.3557	0.3317	0.103
Mof_C 	C 	0.2291	0.4689	0.3157	0.105
Mof_H 	H 	0.2479	0.5007	0.3353	-0.02
Mof_C 	C 	0.2781	0.0645	0.3311	0.077
Mof_C 	C 	0.3046	0.1099	0.3637	-0.138
Mof_H 	H 	0.3028	0.17	0.3665	0.109
Mof_C 	C 	0.3329	0.0625	0.3911	0.097
Mof_H 	H 	0.3511	0.093	0.4121	0.001
Mof_C 	C 	0.3112	0.9339	0.3578	0.072
Mof_H 	H 	0.3138	0.8739	0.3551	0.011
Mof_C 	C 	0.2815	0.9774	0.3288	-0.136
Mof_H 	H 	0.2638	0.9463	0.3077	0.103
Mof_N 	N 	0.9243	0.5095	0.9398	-0.276
Mof_N 	N 	0.1546	0.3379	0.8379	-0.278
Mof_N 	N 	0.0632	0.9979	0.053	-0.27
Mof_N 	N 	0.0794	0.2214	0.9429	-0.129
Mof_N 	N 	0.0428	0.347	0.9129	-0.133
Mof_N 	N 	0.0246	0.2692	0.9687	-0.143
Mof_N 	N 	0.1127	0.9703	0.1463	-0.276
Mof_N 	N 	0.1985	0.5125	0.2918	-0.276
Mof_N 	N 	0.3367	0.9766	0.3903	-0.276
Mof_N 	N 	0.2226	0.0671	0.2694	-0.141
Mof_N 	N 	0.1857	0.1968	0.2475	-0.127
Mof_N 	N 	0.242	0.2001	0.3062	-0.131
Mof_Zn	Zn	0.87661	0.5889	0.93599	1.179
Mof_Zn	Zn	0.0716	0.90408	0.09989	1.176
Mof_Zn	Zn	0.1911	0.64627	0.29739	1.195
Mof_Br	Br	0.26424	0.6981	0.34716	0.047
Mof_Br	Br	0.13862	0.6825	0.21686	0.072
Mof_Br	Br	0.24883	0.72421	0.31907	-0.513
Mof_Br	Br	0.16407	0.7108	0.23043	-0.525
Mof_Br	Br	0.35398	0.07305	0.00459	-0.428
Mof_Br	Br	0.39032	0.235	0.90708	-0.446
Mof_Br	Br	0.50936	0.3936	0.12869	-0.419
Mof_Br	Br	0.60565	0.2747	0.07589	-0.441
Mof_C 	C 	0.4386	0.9583	0.9722	0.092
Mof_H 	H 	0.4266	0.9588	0.9951	-0.006
Mof_C 	C 	0.4712	0.9023	0.9742	-0.128
Mof_H 	H 	0.4808	0.8683	0.9984	0.088
Mof_C 	C 	0.4887	0.898	0.9403	0.06
Mof_C 	C 	0.4728	0.9517	0.9043	-0.128
Mof_H 	H 	0.4829	0.9496	0.8801	0.088
Mof_C 	C 	0.4431	0.005	0.9062	0.075
Mof_H 	H 	0.4342	0.0425	0.8832	-0.012
Mof_C 	C 	0.5205	0.8361	0.9406	0.095
Mof_C 	C 	0.5535	0.7134	0.9677	0.098
Mof_C 	C 	0.5724	0.7893	0.9158	0.109
Mof_C 	C 	0.5567	0.6363	0.9967	0.071
Mof_C 	C 	0.527	0.6177	0.0168	-0.132
Mof_H 	H 	0.504	0.6514	0.011	0.081
Mof_C 	C 	0.5306	0.5515	0.0448	0.076
Mof_H 	H 	0.5106	0.5418	0.059	-0.004
Mof_C 	C 	0.5912	0.513	0.031	0.084
Mof_H 	H 	0.6126	0.4749	0.0347	-0.01
Mof_C 	C 	0.5895	0.5813	0.0038	-0.13
Mof_H 	H 	0.6099	0.5912	0.9902	0.093
Mof_C 	C 	0.6636	0.7843	0.8704	0.088
Mof_H 	H 	0.6882	0.7566	0.876	-0.008
Mof_C 	C 	0.6379	0.7658	0.8979	-0.128
Mof_H 	H 	0.6458	0.7293	0.9215	0.096
Mof_C 	C 	0.6008	0.8045	0.8881	0.083
Mof_C 	C 	0.5903	0.8593	0.8531	-0.14
Mof_H 	H 	0.5652	0.8848	0.8454	0.095
Mof_C 	C 	0.6182	0.8746	0.8304	0.094
Mof_H 	H 	0.6116	0.9138	0.8078	-0.023
Mof_C 	C 	0.693	0.6101	0.2448	0.097
Mof_C 	C 	0.7124	0.7372	0.2788	0.106
Mof_C 	C 	0.7455	0.614	0.3002	0.099
Mof_C 	C 	0.6423	0.4303	0.1749	0.092
Mof_H 	H 	0.6452	0.3703	0.1727	0.006
Mof_C 	C 	0.6681	0.4736	0.2069	-0.156
Mof_H 	H 	0.688	0.4432	0.2259	0.107
Mof_C 	C 	0.6647	0.5598	0.2107	0.095
Mof_C 	C 	0.6348	0.603	0.1826	-0.157
Mof_H 	H 	0.6316	0.6629	0.1846	0.116
Mof_C 	C 	0.61	0.5552	0.1517	0.111
Mof_H 	H 	0.5896	0.5847	0.1329	-0.008
Mof_C 	C 	0.6742	0.9677	0.2616	0.091
Mof_H 	H 	0.6542	0.9978	0.2426	-0.02
Mof_C 	C 	0.6767	0.8762	0.2565	-0.15
Mof_H 	H 	0.6579	0.8466	0.2359	0.098
Mof_C 	C 	0.7066	0.8342	0.282	0.087
Mof_C 	C 	0.7348	0.8831	0.3135	-0.155
Mof_H 	H 	0.7562	0.8557	0.3317	0.102
Mof_C 	C 	0.7291	0.9689	0.3157	0.104
Mof_H 	H 	0.7479	0.0007	0.3353	-0.019
Mof_C 	C 	0.7781	0.5645	0.3311	0.077
Mof_C 	C 	0.8046	0.6099	0.3637	-0.138
Mof_H 	H 	0.8028	0.67	0.3665	0.109
Mof_C 	C 	0.8329	0.5625	0.3911	0.097
Mof_H 	H 	0.8511	0.593	0.4121	0.001
Mof_C 	C 	0.8112	0.4339	0.3578	0.071
Mof_H 	H 	0.8138	0.3739	0.3551	0.011
Mof_C 	C 	0.7815	0.4774	0.3288	-0.136
Mof_H 	H 	0.7638	0.4463	0.3077	0.103
Mof_N 	N 	0.4243	0.0095	0.9398	-0.276
Mof_N 	N 	0.6546	0.8379	0.8379	-0.278
Mof_N 	N 	0.5632	0.4979	0.053	-0.27
Mof_N 	N 	0.5794	0.7214	0.9429	-0.129
Mof_N 	N 	0.5428	0.847	0.9129	-0.133
Mof_N 	N 	0.5246	0.7692	0.9687	-0.143
Mof_N 	N 	0.6127	0.4703	0.1463	-0.276
Mof_N 	N 	0.6985	0.0125	0.2918	-0.276
Mof_N 	N 	0.8367	0.4766	0.3903	-0.276
Mof_N 	N 	0.7226	0.5671	0.2694	-0.141
Mof_N 	N 	0.6857	0.6968	0.2475	-0.127
Mof_N 	N 	0.742	0.7001	0.3062	-0.131
Mof_Zn	Zn	0.37661	0.0889	0.93599	1.179
Mof_Zn	Zn	0.5716	0.40408	0.09989	1.176
Mof_Zn	Zn	0.6911	0.14627	0.29739	1.195
Mof_Br	Br	0.76424	0.1981	0.34716	0.047
Mof_Br	Br	0.63862	0.1825	0.21686	0.072
Mof_Br	Br	0.74883	0.22421	0.31907	-0.513
Mof_Br	Br	0.66407	0.2108	0.23043	-0.525
_end
