data_functionalizedCrystal
_audit_creation_method	'EQeq! by Chris Wilmer'
_symmetry_space_group_name_H-M	'P1'
_symmetry_Int_Tables_number	1
_symmetry_cell_setting	triclinic
loop_
_symmetry_equiv_pos_as_xyz
  x,y,z
_cell_length_a	11.4424
_cell_length_b	15.1352
_cell_length_c	15.2141
_cell_angle_alpha	112.002
_cell_angle_beta	96.433
_cell_angle_gamma	98.574
loop_
_atom_site_label
_atom_site_type_symbol
_atom_site_fract_x
_atom_site_fract_y
_atom_site_fract_z
_atom_site_charge
Mof_Zn	Zn	0.3504	0.13899	0.73096	1.208
Mof_O 	O 	0.3155	0.99482	0.69685	-0.426
Mof_O 	O 	0.3798	0.19461	0.87507	-0.439
Mof_O 	O 	0.4388	0.3469	0.89092	-0.304
Mof_O 	O 	0.2741	0.98325	0.5465	-0.32
Mof_C 	C 	0.3233	0.697	0.5958	-0.093
Mof_H 	H 	0.3274	0.6652	0.6375	0.063
Mof_N 	N 	0.3556	0.50767	0.36818	-0.134
Mof_C 	C 	0.3679	0.2822	0.1671	-0.091
Mof_H 	H 	0.3504	0.2362	0.1931	0.061
Mof_N 	N 	0.54	0.13771	0.72718	-0.235
Mof_C 	C 	0.4236	0.4162	0.0871	0.015
Mof_H 	H 	0.4437	0.4621	0.0614	0.051
Mof_C 	C 	0.3706	0.357	0.3788	-0.126
Mof_H 	H 	0.3819	0.2937	0.3491	0.072
Mof_N 	N 	0.3583	0.22076	0.64422	-0.259
Mof_C 	C 	0.3143	0.7939	0.6311	0.02
Mof_H 	H 	0.3148	0.827	0.6965	0.04
Mof_C 	C 	0.7419	0.2296	0.7681	-0.126
Mof_H 	H 	0.7938	0.2902	0.7957	0.075
Mof_C 	C 	0.9154	0.148	0.7296	0.089
Mof_C 	C 	0.3265	0.6469	0.4996	0.031
Mof_C 	C 	0.3192	0.6957	0.4396	-0.087
Mof_H 	H 	0.3219	0.6635	0.3747	0.071
Mof_C 	C 	0.3545	0.3921	0.4747	0.047
Mof_C 	C 	0.3845	0.3813	0.2253	0.026
Mof_C 	C 	0.3396	0.5431	0.4593	0.083
Mof_N 	N 	0.1608	0.1488	0.7299	-0.249
Mof_C 	C 	0.7862	0.1448	0.7301	0.044
Mof_C 	C 	0.9555	0.0846	0.655	-0.166
Mof_H 	H 	0.901	0.0392	0.6013	0.102
Mof_C 	C 	0.337	0.4883	0.5147	-0.121
Mof_H 	H 	0.3239	0.5149	0.5778	0.071
Mof_C 	C 	0.0032	0.2192	0.7997	-0.168
Mof_H 	H 	0.9825	0.2701	0.8485	0.091
Mof_C 	C 	0.3553	0.3328	0.5324	0.073
Mof_C 	C 	0.7041	0.0575	0.6897	-0.121
Mof_H 	H 	0.7299	0.9995	0.6615	0.076
Mof_C 	C 	0.4051	0.3184	0.0302	-0.09
Mof_C 	C 	0.3651	0.2365	0.4959	-0.146
Mof_H 	H 	0.3712	0.2065	0.4314	0.08
Mof_C 	C 	0.3078	0.7922	0.4744	0.014
Mof_H 	H 	0.3023	0.8238	0.4326	0.042
Mof_C 	C 	0.37	0.4155	0.3281	0.082
Mof_C 	C 	0.412	0.4462	0.1834	-0.085
Mof_H 	H 	0.4233	0.5126	0.2208	0.072
Mof_C 	C 	0.3774	0.2523	0.0705	0.021
Mof_H 	H 	0.3648	0.1861	0.0323	0.041
Mof_C 	C 	0.6199	0.222	0.7641	0.073
Mof_H 	H 	0.5914	0.2792	0.7886	0
Mof_C 	C 	0.2961	0.9476	0.6056	0.319
Mof_C 	C 	0.3045	0.8416	0.5708	-0.088
Mof_C 	C 	0.5832	0.0563	0.6914	0.075
Mof_H 	H 	0.5296	0.9965	0.6667	0.002
Mof_C 	C 	0.0772	0.0879	0.6591	0.107
Mof_H 	H 	0.1012	0.0431	0.6071	-0.008
Mof_C 	C 	0.4084	0.2857	0.9237	0.34
Mof_C 	C 	0.349	0.3695	0.6282	-0.145
Mof_H 	H 	0.3437	0.4344	0.6586	0.083
Mof_C 	C 	0.366	0.1841	0.5516	0.091
Mof_H 	H 	0.3724	0.1193	0.5233	-0.003
Mof_C 	C 	0.3504	0.3136	0.6801	0.087
Mof_H 	H 	0.3455	0.3423	0.745	-0.003
Mof_C 	C 	0.1214	0.2148	0.7973	0.11
Mof_H 	H 	0.1785	0.2625	0.8475	-0.012
Mof_Zn	Zn	0.6496	0.86101	0.26904	1.207
Mof_O 	O 	0.6845	0.00518	0.30315	-0.427
Mof_O 	O 	0.6202	0.80539	0.12493	-0.44
Mof_O 	O 	0.5612	0.6531	0.10908	-0.305
Mof_O 	O 	0.7259	0.01675	0.4535	-0.321
Mof_C 	C 	0.6767	0.303	0.4042	-0.094
Mof_H 	H 	0.6726	0.3348	0.3625	0.063
Mof_N 	N 	0.6444	0.49233	0.63182	-0.134
Mof_C 	C 	0.6321	0.7178	0.8329	-0.091
Mof_H 	H 	0.6496	0.7638	0.8069	0.061
Mof_N 	N 	0.46	0.86229	0.27282	-0.235
Mof_C 	C 	0.5764	0.5838	0.9129	0.015
Mof_H 	H 	0.5563	0.5379	0.9386	0.051
Mof_C 	C 	0.6294	0.643	0.6212	-0.126
Mof_H 	H 	0.6181	0.7063	0.6509	0.072
Mof_N 	N 	0.6417	0.77924	0.35578	-0.259
Mof_C 	C 	0.6857	0.2061	0.3689	0.02
Mof_H 	H 	0.6852	0.173	0.3035	0.04
Mof_C 	C 	0.2581	0.7704	0.2319	-0.126
Mof_H 	H 	0.2062	0.7098	0.2043	0.075
Mof_C 	C 	0.0846	0.852	0.2704	0.089
Mof_C 	C 	0.6735	0.3531	0.5004	0.031
Mof_C 	C 	0.6808	0.3043	0.5604	-0.087
Mof_H 	H 	0.6781	0.3365	0.6253	0.071
Mof_C 	C 	0.6455	0.6079	0.5253	0.047
Mof_C 	C 	0.6155	0.6187	0.7747	0.026
Mof_C 	C 	0.6604	0.4569	0.5407	0.083
Mof_N 	N 	0.8392	0.8512	0.2701	-0.249
Mof_C 	C 	0.2138	0.8552	0.2699	0.044
Mof_C 	C 	0.0445	0.9154	0.345	-0.166
Mof_H 	H 	0.099	0.9608	0.3987	0.102
Mof_C 	C 	0.663	0.5117	0.4853	-0.121
Mof_H 	H 	0.6761	0.4851	0.4222	0.071
Mof_C 	C 	0.9968	0.7808	0.2003	-0.168
Mof_H 	H 	0.0175	0.7299	0.1515	0.091
Mof_C 	C 	0.6447	0.6672	0.4676	0.073
Mof_C 	C 	0.2959	0.9425	0.3103	-0.121
Mof_H 	H 	0.2701	0.0005	0.3385	0.076
Mof_C 	C 	0.5949	0.6816	0.9698	-0.09
Mof_C 	C 	0.6349	0.7635	0.5041	-0.146
Mof_H 	H 	0.6288	0.7935	0.5686	0.08
Mof_C 	C 	0.6922	0.2078	0.5256	0.014
Mof_H 	H 	0.6977	0.1762	0.5674	0.042
Mof_C 	C 	0.63	0.5845	0.6719	0.082
Mof_C 	C 	0.588	0.5538	0.8166	-0.085
Mof_H 	H 	0.5767	0.4874	0.7792	0.072
Mof_C 	C 	0.6226	0.7477	0.9295	0.021
Mof_H 	H 	0.6352	0.8139	0.9677	0.041
Mof_C 	C 	0.3801	0.778	0.2359	0.073
Mof_H 	H 	0.4086	0.7208	0.2114	0
Mof_C 	C 	0.7039	0.0524	0.3944	0.319
Mof_C 	C 	0.6955	0.1584	0.4292	-0.088
Mof_C 	C 	0.4168	0.9437	0.3086	0.075
Mof_H 	H 	0.4704	0.0035	0.3333	0.002
Mof_C 	C 	0.9228	0.9121	0.3409	0.107
Mof_H 	H 	0.8988	0.9569	0.3929	-0.008
Mof_C 	C 	0.5916	0.7143	0.0763	0.34
Mof_C 	C 	0.651	0.6305	0.3718	-0.145
Mof_H 	H 	0.6563	0.5656	0.3414	0.083
Mof_C 	C 	0.634	0.8159	0.4484	0.091
Mof_H 	H 	0.6276	0.8807	0.4767	-0.003
Mof_C 	C 	0.6496	0.6864	0.3199	0.087
Mof_H 	H 	0.6545	0.6577	0.255	-0.003
Mof_C 	C 	0.8786	0.7852	0.2027	0.11
Mof_H 	H 	0.8215	0.7375	0.1525	-0.012
_end
