data_functionalizedCrystal
_audit_creation_method	'EQeq! by Chris Wilmer'
_symmetry_space_group_name_H-M	'P1'
_symmetry_Int_Tables_number	1
_symmetry_cell_setting	triclinic
loop_
_symmetry_equiv_pos_as_xyz
  x,y,z
_cell_length_a	20.8726
_cell_length_b	27.5137
_cell_length_c	43.553
_cell_angle_alpha	90
_cell_angle_beta	90
_cell_angle_gamma	90
loop_
_atom_site_label
_atom_site_type_symbol
_atom_site_fract_x
_atom_site_fract_y
_atom_site_fract_z
_atom_site_charge
Mof_Cd	Cd	0.68392	0.29306	0.15865	0.427
Mof_Cd	Cd	0.62726	0.36947	0.22585	0.437
Mof_Cl	Cl	0.72369	0.37235	0.18875	-0.379
Mof_N 	N 	0.6332	0.25905	0.25331	-0.09
Mof_N 	N 	0.6454	0.28718	0.22897	-0.064
Mof_N 	N 	0.6632	0.25976	0.20586	-0.071
Mof_N 	N 	0.6636	0.21344	0.214	-0.083
Mof_N 	N 	0.8022	0.10193	0.31489	-0.104
Mof_N 	N 	0.8336	0.08459	0.3397	-0.062
Mof_N 	N 	0.7931	0.0801	0.36218	-0.063
Mof_N 	N 	0.7341	0.09376	0.35362	-0.084
Mof_C 	C 	0.6449	0.21394	0.24342	0.044
Mof_C 	C 	0.6354	0.16998	0.26314	0.181
Mof_C 	C 	0.6948	0.16247	0.28355	-0.295
Mof_H 	H 	0.7018	0.1916	0.2965	0.118
Mof_H 	H 	0.7332	0.1577	0.2705	0.122
Mof_C 	C 	0.6846	0.11747	0.30408	0.175
Mof_H 	H 	0.6313	0.1537	0.3374	0.124
Mof_H 	H 	0.5871	0.1299	0.2296	0.126
Mof_C 	C 	0.5764	0.17773	0.2836	-0.293
Mof_H 	H 	0.5382	0.1834	0.2706	0.115
Mof_H 	H 	0.5829	0.2067	0.2967	0.12
Mof_C 	C 	0.741	0.10647	0.32402	0.049
Mof_O 	O 	0.5994	0.4483	0.2289	-0.643
Mof_N 	N 	0.6207	0.5209	0.2511	-0.02
Mof_C 	C 	0.6375	0.4792	0.2391	-0.087
Mof_H 	H 	0.682	0.4719	0.2381	-0.003
Mof_C 	C 	0.5534	0.5343	0.2539	-0.385
Mof_H 	H 	0.5276	0.5139	0.2402	0.173
Mof_H 	H 	0.548	0.5685	0.2482	0.188
Mof_H 	H 	0.5392	0.5295	0.2751	0.165
Mof_C 	C 	0.6659	0.5552	0.2653	-0.339
Mof_H 	H 	0.6487	0.5664	0.285	0.144
Mof_H 	H 	0.6721	0.5832	0.2517	0.141
Mof_H 	H 	0.7071	0.539	0.2687	0.119
Mof_O 	O 	0.7034	0.378	0.2673	-1.766
Mof_C 	C 	0.6972	0.3517	0.2896	0.382
Mof_H 	H 	0.6683	0.3262	0.2846	-0.058
Mof_N 	N 	0.7434	0.3408	0.309	-0.034
Mof_C 	C 	0.7389	0.2961	0.3273	-0.115
Mof_H 	H 	0.6992	0.2789	0.3222	0.023
Mof_H 	H 	0.7388	0.3044	0.3492	0.07
Mof_H 	H 	0.7757	0.2751	0.3228	0.058
Mof_C 	C 	0.7986	0.3737	0.3118	0.169
Mof_H 	H 	0.7933	0.4012	0.2978	-0.053
Mof_H 	H 	0.838	0.3561	0.3067	-0.017
Mof_H 	H 	0.8013	0.3858	0.333	0.078
Mof_H 	H 	0.805	0.3687	0.3227	-0.086
Mof_Cl	Cl	0.6173	0.4587	0.2251	0.496
Mof_Cl	Cl	0.6936	0.3949	0.2734	1.645
Mof_N 	N 	0.714	0.3466	0.3151	-0.177
Mof_C 	C 	0.6908	0.3118	0.3384	-0.087
Mof_C 	C 	0.7635	0.3721	0.3329	-0.2
Mof_H 	H 	0.6972	0.2785	0.331	0.052
Mof_H 	H 	0.7148	0.3164	0.3575	0.003
Mof_H 	H 	0.6452	0.3173	0.3422	0.04
Mof_H 	H 	0.766	0.358	0.3536	0.07
Mof_H 	H 	0.7524	0.4066	0.3345	0.034
Mof_Cd	Cd	0.68392	0.79306	0.65865	0.427
Mof_Cd	Cd	0.62726	0.86947	0.72585	0.437
Mof_Cl	Cl	0.72369	0.87235	0.68875	-0.379
Mof_N 	N 	0.6332	0.75905	0.75331	-0.09
Mof_N 	N 	0.6454	0.78718	0.72897	-0.064
Mof_N 	N 	0.6632	0.75976	0.70586	-0.071
Mof_N 	N 	0.6636	0.71344	0.714	-0.083
Mof_N 	N 	0.8022	0.60193	0.81489	-0.104
Mof_N 	N 	0.8336	0.58459	0.8397	-0.062
Mof_N 	N 	0.7931	0.5801	0.86218	-0.063
Mof_N 	N 	0.7341	0.59376	0.85362	-0.084
Mof_C 	C 	0.6449	0.71394	0.74342	0.044
Mof_C 	C 	0.6354	0.66998	0.76314	0.181
Mof_C 	C 	0.6948	0.66247	0.78355	-0.295
Mof_H 	H 	0.7018	0.6916	0.7965	0.119
Mof_H 	H 	0.7332	0.6577	0.7705	0.123
Mof_C 	C 	0.6846	0.61747	0.80408	0.176
Mof_H 	H 	0.6313	0.6537	0.8374	0.125
Mof_H 	H 	0.5871	0.6299	0.7296	0.127
Mof_C 	C 	0.5764	0.67773	0.7836	-0.292
Mof_H 	H 	0.5382	0.6834	0.7706	0.116
Mof_H 	H 	0.5829	0.7067	0.7967	0.121
Mof_C 	C 	0.741	0.60647	0.82402	0.05
Mof_O 	O 	0.5994	0.9483	0.7289	-0.642
Mof_N 	N 	0.6207	0.0209	0.7511	-0.019
Mof_C 	C 	0.6375	0.9792	0.7391	-0.086
Mof_H 	H 	0.682	0.9719	0.7381	-0.002
Mof_C 	C 	0.5534	0.0343	0.7539	-0.384
Mof_H 	H 	0.5276	0.0139	0.7402	0.174
Mof_H 	H 	0.548	0.0685	0.7482	0.189
Mof_H 	H 	0.5392	0.0295	0.7751	0.166
Mof_C 	C 	0.6659	0.0552	0.7653	-0.339
Mof_H 	H 	0.6487	0.0664	0.785	0.145
Mof_H 	H 	0.6721	0.0832	0.7517	0.142
Mof_H 	H 	0.7071	0.039	0.7687	0.12
Mof_O 	O 	0.7034	0.878	0.7673	-1.765
Mof_C 	C 	0.6972	0.8517	0.7896	0.383
Mof_H 	H 	0.6683	0.8262	0.7846	-0.057
Mof_N 	N 	0.7434	0.8408	0.809	-0.033
Mof_C 	C 	0.7389	0.7961	0.8273	-0.114
Mof_H 	H 	0.6992	0.7789	0.8222	0.024
Mof_H 	H 	0.7388	0.8044	0.8492	0.071
Mof_H 	H 	0.7757	0.7751	0.8228	0.059
Mof_C 	C 	0.7986	0.8737	0.8118	0.17
Mof_H 	H 	0.7933	0.9012	0.7978	-0.052
Mof_H 	H 	0.838	0.8561	0.8067	-0.016
Mof_H 	H 	0.8013	0.8858	0.833	0.079
Mof_H 	H 	0.805	0.8687	0.8227	-0.085
Mof_Cl	Cl	0.6173	0.9587	0.7251	0.497
Mof_Cl	Cl	0.6936	0.8949	0.7734	1.646
Mof_N 	N 	0.714	0.8466	0.8151	-0.176
Mof_C 	C 	0.6908	0.8118	0.8384	-0.086
Mof_C 	C 	0.7635	0.8721	0.8329	-0.199
Mof_H 	H 	0.6972	0.7785	0.831	0.053
Mof_H 	H 	0.7148	0.8164	0.8575	0.004
Mof_H 	H 	0.6452	0.8173	0.8422	0.041
Mof_H 	H 	0.766	0.858	0.8536	0.071
Mof_H 	H 	0.7524	0.9066	0.8345	0.035
Mof_Cd	Cd	0.18392	0.29306	0.65865	0.428
Mof_Cd	Cd	0.12726	0.36947	0.72585	0.438
Mof_Cl	Cl	0.22369	0.37235	0.68875	-0.378
Mof_N 	N 	0.1332	0.25905	0.75331	-0.089
Mof_N 	N 	0.1454	0.28718	0.72897	-0.063
Mof_N 	N 	0.1632	0.25976	0.70586	-0.07
Mof_N 	N 	0.1636	0.21344	0.714	-0.082
Mof_N 	N 	0.3022	0.10193	0.81489	-0.103
Mof_N 	N 	0.3336	0.08459	0.8397	-0.062
Mof_N 	N 	0.2931	0.0801	0.86218	-0.062
Mof_N 	N 	0.2341	0.09376	0.85362	-0.083
Mof_C 	C 	0.1449	0.21394	0.74342	0.045
Mof_C 	C 	0.1354	0.16998	0.76314	0.182
Mof_C 	C 	0.1948	0.16247	0.78355	-0.294
Mof_H 	H 	0.2018	0.1916	0.7965	0.119
Mof_H 	H 	0.2332	0.1577	0.7705	0.123
Mof_C 	C 	0.1846	0.11747	0.80408	0.176
Mof_H 	H 	0.1313	0.1537	0.8374	0.125
Mof_H 	H 	0.0871	0.1299	0.7296	0.127
Mof_C 	C 	0.0764	0.17773	0.7836	-0.292
Mof_H 	H 	0.0382	0.1834	0.7706	0.116
Mof_H 	H 	0.0829	0.2067	0.7967	0.121
Mof_C 	C 	0.241	0.10647	0.82402	0.05
Mof_O 	O 	0.0994	0.4483	0.7289	-0.642
Mof_N 	N 	0.1207	0.5209	0.7511	-0.019
Mof_C 	C 	0.1375	0.4792	0.7391	-0.086
Mof_H 	H 	0.182	0.4719	0.7381	-0.002
Mof_C 	C 	0.0534	0.5343	0.7539	-0.384
Mof_H 	H 	0.0276	0.5139	0.7402	0.174
Mof_H 	H 	0.048	0.5685	0.7482	0.189
Mof_H 	H 	0.0392	0.5295	0.7751	0.166
Mof_C 	C 	0.1659	0.5552	0.7653	-0.338
Mof_H 	H 	0.1487	0.5664	0.785	0.145
Mof_H 	H 	0.1721	0.5832	0.7517	0.142
Mof_H 	H 	0.2071	0.539	0.7687	0.12
Mof_O 	O 	0.2034	0.378	0.7673	-1.765
Mof_C 	C 	0.1972	0.3517	0.7896	0.383
Mof_H 	H 	0.1683	0.3262	0.7846	-0.057
Mof_N 	N 	0.2434	0.3408	0.809	-0.033
Mof_C 	C 	0.2389	0.2961	0.8273	-0.114
Mof_H 	H 	0.1992	0.2789	0.8222	0.024
Mof_H 	H 	0.2388	0.3044	0.8492	0.071
Mof_H 	H 	0.2757	0.2751	0.8228	0.059
Mof_C 	C 	0.2986	0.3737	0.8118	0.17
Mof_H 	H 	0.2933	0.4012	0.7978	-0.052
Mof_H 	H 	0.338	0.3561	0.8067	-0.016
Mof_H 	H 	0.3013	0.3858	0.833	0.079
Mof_H 	H 	0.305	0.3687	0.8227	-0.085
Mof_Cl	Cl	0.1173	0.4587	0.7251	0.497
Mof_Cl	Cl	0.1936	0.3949	0.7734	1.646
Mof_N 	N 	0.214	0.3466	0.8151	-0.176
Mof_C 	C 	0.1908	0.3118	0.8384	-0.086
Mof_C 	C 	0.2635	0.3721	0.8329	-0.199
Mof_H 	H 	0.1972	0.2785	0.831	0.053
Mof_H 	H 	0.2148	0.3164	0.8575	0.004
Mof_H 	H 	0.1452	0.3173	0.8422	0.041
Mof_H 	H 	0.266	0.358	0.8536	0.071
Mof_H 	H 	0.2524	0.4066	0.8345	0.035
Mof_Cd	Cd	0.18392	0.79306	0.15865	0.428
Mof_Cd	Cd	0.12726	0.86947	0.22585	0.438
Mof_Cl	Cl	0.22369	0.87235	0.18875	-0.378
Mof_N 	N 	0.1332	0.75905	0.25331	-0.089
Mof_N 	N 	0.1454	0.78718	0.22897	-0.063
Mof_N 	N 	0.1632	0.75976	0.20586	-0.07
Mof_N 	N 	0.1636	0.71344	0.214	-0.082
Mof_N 	N 	0.3022	0.60193	0.31489	-0.103
Mof_N 	N 	0.3336	0.58459	0.3397	-0.061
Mof_N 	N 	0.2931	0.5801	0.36218	-0.062
Mof_N 	N 	0.2341	0.59376	0.35362	-0.083
Mof_C 	C 	0.1449	0.71394	0.24342	0.045
Mof_C 	C 	0.1354	0.66998	0.26314	0.182
Mof_C 	C 	0.1948	0.66247	0.28355	-0.294
Mof_H 	H 	0.2018	0.6916	0.2965	0.119
Mof_H 	H 	0.2332	0.6577	0.2705	0.123
Mof_C 	C 	0.1846	0.61747	0.30408	0.176
Mof_H 	H 	0.1313	0.6537	0.3374	0.125
Mof_H 	H 	0.0871	0.6299	0.2296	0.127
Mof_C 	C 	0.0764	0.67773	0.2836	-0.292
Mof_H 	H 	0.0382	0.6834	0.2706	0.116
Mof_H 	H 	0.0829	0.7067	0.2967	0.121
Mof_C 	C 	0.241	0.60647	0.32402	0.05
Mof_O 	O 	0.0994	0.9483	0.2289	-0.642
Mof_N 	N 	0.1207	0.0209	0.2511	-0.019
Mof_C 	C 	0.1375	0.9792	0.2391	-0.086
Mof_H 	H 	0.182	0.9719	0.2381	-0.002
Mof_C 	C 	0.0534	0.0343	0.2539	-0.384
Mof_H 	H 	0.0276	0.0139	0.2402	0.174
Mof_H 	H 	0.048	0.0685	0.2482	0.189
Mof_H 	H 	0.0392	0.0295	0.2751	0.165
Mof_C 	C 	0.1659	0.0552	0.2653	-0.338
Mof_H 	H 	0.1487	0.0664	0.285	0.145
Mof_H 	H 	0.1721	0.0832	0.2517	0.142
Mof_H 	H 	0.2071	0.039	0.2687	0.12
Mof_O 	O 	0.2034	0.878	0.2673	-1.765
Mof_C 	C 	0.1972	0.8517	0.2896	0.383
Mof_H 	H 	0.1683	0.8262	0.2846	-0.057
Mof_N 	N 	0.2434	0.8408	0.309	-0.033
Mof_C 	C 	0.2389	0.7961	0.3273	-0.114
Mof_H 	H 	0.1992	0.7789	0.3222	0.024
Mof_H 	H 	0.2388	0.8044	0.3492	0.071
Mof_H 	H 	0.2757	0.7751	0.3228	0.059
Mof_C 	C 	0.2986	0.8737	0.3118	0.17
Mof_H 	H 	0.2933	0.9012	0.2978	-0.052
Mof_H 	H 	0.338	0.8561	0.3067	-0.016
Mof_H 	H 	0.3013	0.8858	0.333	0.079
Mof_H 	H 	0.305	0.8687	0.3227	-0.085
Mof_Cl	Cl	0.1173	0.9587	0.2251	0.497
Mof_Cl	Cl	0.1936	0.8949	0.2734	1.645
Mof_N 	N 	0.214	0.8466	0.3151	-0.176
Mof_C 	C 	0.1908	0.8118	0.3384	-0.086
Mof_C 	C 	0.2635	0.8721	0.3329	-0.199
Mof_H 	H 	0.1972	0.7785	0.331	0.053
Mof_H 	H 	0.2148	0.8164	0.3575	0.004
Mof_H 	H 	0.1452	0.8173	0.3422	0.041
Mof_H 	H 	0.266	0.858	0.3536	0.071
Mof_H 	H 	0.2524	0.9066	0.3345	0.035
Mof_Cd	Cd	0.06608	0.45694	0.15865	0.428
Mof_Cd	Cd	0.12274	0.38053	0.22585	0.438
Mof_Cl	Cl	0.02631	0.37765	0.18875	-0.378
Mof_N 	N 	0.1168	0.49095	0.25331	-0.089
Mof_N 	N 	0.1046	0.46282	0.22897	-0.063
Mof_N 	N 	0.0868	0.49024	0.20586	-0.07
Mof_N 	N 	0.0864	0.53656	0.214	-0.082
Mof_N 	N 	0.9478	0.64807	0.31489	-0.103
Mof_N 	N 	0.9164	0.66541	0.3397	-0.062
Mof_N 	N 	0.9569	0.6699	0.36218	-0.062
Mof_N 	N 	0.0159	0.65624	0.35362	-0.083
Mof_C 	C 	0.1051	0.53606	0.24342	0.045
Mof_C 	C 	0.1146	0.58002	0.26314	0.182
Mof_C 	C 	0.0552	0.58753	0.28355	-0.294
Mof_H 	H 	0.0482	0.5584	0.2965	0.119
Mof_H 	H 	0.0168	0.5923	0.2705	0.123
Mof_C 	C 	0.0654	0.63253	0.30408	0.176
Mof_H 	H 	0.1187	0.5963	0.3374	0.125
Mof_H 	H 	0.1629	0.6201	0.2296	0.127
Mof_C 	C 	0.1736	0.57227	0.2836	-0.292
Mof_H 	H 	0.2118	0.5666	0.2706	0.116
Mof_H 	H 	0.1671	0.5433	0.2967	0.121
Mof_C 	C 	0.009	0.64353	0.32402	0.05
Mof_O 	O 	0.1506	0.3017	0.2289	-0.642
Mof_N 	N 	0.1293	0.2291	0.2511	-0.019
Mof_C 	C 	0.1125	0.2708	0.2391	-0.086
Mof_H 	H 	0.068	0.2781	0.2381	-0.002
Mof_C 	C 	0.1966	0.2157	0.2539	-0.384
Mof_H 	H 	0.2224	0.2361	0.2402	0.174
Mof_H 	H 	0.202	0.1815	0.2482	0.189
Mof_H 	H 	0.2108	0.2205	0.2751	0.166
Mof_C 	C 	0.0841	0.1948	0.2653	-0.338
Mof_H 	H 	0.1013	0.1836	0.285	0.145
Mof_H 	H 	0.0779	0.1668	0.2517	0.142
Mof_H 	H 	0.0429	0.211	0.2687	0.12
Mof_O 	O 	0.0466	0.372	0.2673	-1.765
Mof_C 	C 	0.0528	0.3983	0.2896	0.383
Mof_H 	H 	0.0817	0.4238	0.2846	-0.057
Mof_N 	N 	0.0066	0.4092	0.309	-0.033
Mof_C 	C 	0.0111	0.4539	0.3273	-0.114
Mof_H 	H 	0.0508	0.4711	0.3222	0.024
Mof_H 	H 	0.0112	0.4456	0.3492	0.071
Mof_H 	H 	0.9743	0.4749	0.3228	0.059
Mof_C 	C 	0.9514	0.3763	0.3118	0.17
Mof_H 	H 	0.9567	0.3488	0.2978	-0.052
Mof_H 	H 	0.912	0.3939	0.3067	-0.016
Mof_H 	H 	0.9487	0.3642	0.333	0.079
Mof_H 	H 	0.945	0.3813	0.3227	-0.085
Mof_Cl	Cl	0.1327	0.2913	0.2251	0.497
Mof_Cl	Cl	0.0564	0.3551	0.2734	1.646
Mof_N 	N 	0.036	0.4034	0.3151	-0.176
Mof_C 	C 	0.0592	0.4382	0.3384	-0.086
Mof_C 	C 	0.9865	0.3779	0.3329	-0.199
Mof_H 	H 	0.0528	0.4715	0.331	0.053
Mof_H 	H 	0.0352	0.4336	0.3575	0.004
Mof_H 	H 	0.1048	0.4327	0.3422	0.041
Mof_H 	H 	0.984	0.392	0.3536	0.071
Mof_H 	H 	0.9976	0.3434	0.3345	0.035
Mof_Cd	Cd	0.06608	0.95694	0.65865	0.428
Mof_Cd	Cd	0.12274	0.88053	0.72585	0.438
Mof_Cl	Cl	0.02631	0.87765	0.68875	-0.378
Mof_N 	N 	0.1168	0.99095	0.75331	-0.088
Mof_N 	N 	0.1046	0.96282	0.72897	-0.063
Mof_N 	N 	0.0868	0.99024	0.70586	-0.07
Mof_N 	N 	0.0864	0.03656	0.714	-0.082
Mof_N 	N 	0.9478	0.14807	0.81489	-0.103
Mof_N 	N 	0.9164	0.16541	0.8397	-0.061
Mof_N 	N 	0.9569	0.1699	0.86218	-0.062
Mof_N 	N 	0.0159	0.15624	0.85362	-0.083
Mof_C 	C 	0.1051	0.03606	0.74342	0.045
Mof_C 	C 	0.1146	0.08002	0.76314	0.182
Mof_C 	C 	0.0552	0.08753	0.78355	-0.294
Mof_H 	H 	0.0482	0.0584	0.7965	0.119
Mof_H 	H 	0.0168	0.0923	0.7705	0.122
Mof_C 	C 	0.0654	0.13253	0.80408	0.176
Mof_H 	H 	0.1187	0.0963	0.8374	0.125
Mof_H 	H 	0.1629	0.1201	0.7296	0.127
Mof_C 	C 	0.1736	0.07227	0.7836	-0.292
Mof_H 	H 	0.2118	0.0666	0.7706	0.116
Mof_H 	H 	0.1671	0.0433	0.7967	0.121
Mof_C 	C 	0.009	0.14353	0.82402	0.05
Mof_O 	O 	0.1506	0.8017	0.7289	-0.642
Mof_N 	N 	0.1293	0.7291	0.7511	-0.019
Mof_C 	C 	0.1125	0.7708	0.7391	-0.086
Mof_H 	H 	0.068	0.7781	0.7381	-0.002
Mof_C 	C 	0.1966	0.7157	0.7539	-0.384
Mof_H 	H 	0.2224	0.7361	0.7402	0.174
Mof_H 	H 	0.202	0.6815	0.7482	0.189
Mof_H 	H 	0.2108	0.7205	0.7751	0.166
Mof_C 	C 	0.0841	0.6948	0.7653	-0.338
Mof_H 	H 	0.1013	0.6836	0.785	0.145
Mof_H 	H 	0.0779	0.6668	0.7517	0.142
Mof_H 	H 	0.0429	0.711	0.7687	0.12
Mof_O 	O 	0.0466	0.872	0.7673	-1.765
Mof_C 	C 	0.0528	0.8983	0.7896	0.383
Mof_H 	H 	0.0817	0.9238	0.7846	-0.057
Mof_N 	N 	0.0066	0.9092	0.809	-0.033
Mof_C 	C 	0.0111	0.9539	0.8273	-0.113
Mof_H 	H 	0.0508	0.9711	0.8222	0.024
Mof_H 	H 	0.0112	0.9456	0.8492	0.071
Mof_H 	H 	0.9743	0.9749	0.8228	0.058
Mof_C 	C 	0.9514	0.8763	0.8118	0.17
Mof_H 	H 	0.9567	0.8488	0.7978	-0.052
Mof_H 	H 	0.912	0.8939	0.8067	-0.016
Mof_H 	H 	0.9487	0.8642	0.833	0.079
Mof_H 	H 	0.945	0.8813	0.8227	-0.085
Mof_Cl	Cl	0.1327	0.7913	0.7251	0.497
Mof_Cl	Cl	0.0564	0.8551	0.7734	1.646
Mof_N 	N 	0.036	0.9034	0.8151	-0.176
Mof_C 	C 	0.0592	0.9382	0.8384	-0.086
Mof_C 	C 	0.9865	0.8779	0.8329	-0.199
Mof_H 	H 	0.0528	0.9715	0.831	0.052
Mof_H 	H 	0.0352	0.9336	0.8575	0.004
Mof_H 	H 	0.1048	0.9327	0.8422	0.042
Mof_H 	H 	0.984	0.892	0.8536	0.071
Mof_H 	H 	0.9976	0.8434	0.8345	0.035
Mof_Cd	Cd	0.56608	0.45694	0.65865	0.428
Mof_Cd	Cd	0.62274	0.38053	0.72585	0.438
Mof_Cl	Cl	0.52631	0.37765	0.68875	-0.378
Mof_N 	N 	0.6168	0.49095	0.75331	-0.089
Mof_N 	N 	0.6046	0.46282	0.72897	-0.063
Mof_N 	N 	0.5868	0.49024	0.70586	-0.07
Mof_N 	N 	0.5864	0.53656	0.714	-0.082
Mof_N 	N 	0.4478	0.64807	0.81489	-0.103
Mof_N 	N 	0.4164	0.66541	0.8397	-0.061
Mof_N 	N 	0.4569	0.6699	0.86218	-0.062
Mof_N 	N 	0.5159	0.65624	0.85362	-0.083
Mof_C 	C 	0.6051	0.53606	0.74342	0.045
Mof_C 	C 	0.6146	0.58002	0.76314	0.182
Mof_C 	C 	0.5552	0.58753	0.78355	-0.294
Mof_H 	H 	0.5482	0.5584	0.7965	0.119
Mof_H 	H 	0.5168	0.5923	0.7705	0.123
Mof_C 	C 	0.5654	0.63253	0.80408	0.176
Mof_H 	H 	0.6187	0.5963	0.8374	0.125
Mof_H 	H 	0.6629	0.6201	0.7296	0.127
Mof_C 	C 	0.6736	0.57227	0.7836	-0.292
Mof_H 	H 	0.7118	0.5666	0.7706	0.116
Mof_H 	H 	0.6671	0.5433	0.7967	0.121
Mof_C 	C 	0.509	0.64353	0.82402	0.05
Mof_O 	O 	0.6506	0.3017	0.7289	-0.642
Mof_N 	N 	0.6293	0.2291	0.7511	-0.019
Mof_C 	C 	0.6125	0.2708	0.7391	-0.086
Mof_H 	H 	0.568	0.2781	0.7381	-0.002
Mof_C 	C 	0.6966	0.2157	0.7539	-0.384
Mof_H 	H 	0.7224	0.2361	0.7402	0.174
Mof_H 	H 	0.702	0.1815	0.7482	0.189
Mof_H 	H 	0.7108	0.2205	0.7751	0.166
Mof_C 	C 	0.5841	0.1948	0.7653	-0.338
Mof_H 	H 	0.6013	0.1836	0.785	0.145
Mof_H 	H 	0.5779	0.1668	0.7517	0.142
Mof_H 	H 	0.5429	0.211	0.7687	0.12
Mof_O 	O 	0.5466	0.372	0.7673	-1.765
Mof_C 	C 	0.5528	0.3983	0.7896	0.383
Mof_H 	H 	0.5817	0.4238	0.7846	-0.057
Mof_N 	N 	0.5066	0.4092	0.809	-0.033
Mof_C 	C 	0.5111	0.4539	0.8273	-0.114
Mof_H 	H 	0.5508	0.4711	0.8222	0.024
Mof_H 	H 	0.5112	0.4456	0.8492	0.071
Mof_H 	H 	0.4743	0.4749	0.8228	0.059
Mof_C 	C 	0.4514	0.3763	0.8118	0.17
Mof_H 	H 	0.4567	0.3488	0.7978	-0.052
Mof_H 	H 	0.412	0.3939	0.8067	-0.016
Mof_H 	H 	0.4487	0.3642	0.833	0.079
Mof_H 	H 	0.445	0.3813	0.8227	-0.085
Mof_Cl	Cl	0.6327	0.2913	0.7251	0.497
Mof_Cl	Cl	0.5564	0.3551	0.7734	1.646
Mof_N 	N 	0.536	0.4034	0.8151	-0.176
Mof_C 	C 	0.5592	0.4382	0.8384	-0.086
Mof_C 	C 	0.4865	0.3779	0.8329	-0.199
Mof_H 	H 	0.5528	0.4715	0.831	0.053
Mof_H 	H 	0.5352	0.4336	0.8575	0.004
Mof_H 	H 	0.6048	0.4327	0.8422	0.041
Mof_H 	H 	0.484	0.392	0.8536	0.071
Mof_H 	H 	0.4976	0.3434	0.8345	0.035
Mof_Cd	Cd	0.56608	0.95694	0.15865	0.428
Mof_Cd	Cd	0.62274	0.88053	0.22585	0.438
Mof_Cl	Cl	0.52631	0.87765	0.18875	-0.378
Mof_N 	N 	0.6168	0.99095	0.25331	-0.089
Mof_N 	N 	0.6046	0.96282	0.22897	-0.063
Mof_N 	N 	0.5868	0.99024	0.20586	-0.07
Mof_N 	N 	0.5864	0.03656	0.214	-0.082
Mof_N 	N 	0.4478	0.14807	0.31489	-0.103
Mof_N 	N 	0.4164	0.16541	0.3397	-0.061
Mof_N 	N 	0.4569	0.1699	0.36218	-0.062
Mof_N 	N 	0.5159	0.15624	0.35362	-0.083
Mof_C 	C 	0.6051	0.03606	0.24342	0.045
Mof_C 	C 	0.6146	0.08002	0.26314	0.182
Mof_C 	C 	0.5552	0.08753	0.28355	-0.294
Mof_H 	H 	0.5482	0.0584	0.2965	0.119
Mof_H 	H 	0.5168	0.0923	0.2705	0.123
Mof_C 	C 	0.5654	0.13253	0.30408	0.176
Mof_H 	H 	0.6187	0.0963	0.3374	0.125
Mof_H 	H 	0.6629	0.1201	0.2296	0.127
Mof_C 	C 	0.6736	0.07227	0.2836	-0.292
Mof_H 	H 	0.7118	0.0666	0.2706	0.116
Mof_H 	H 	0.6671	0.0433	0.2967	0.121
Mof_C 	C 	0.509	0.14353	0.32402	0.05
Mof_O 	O 	0.6506	0.8017	0.2289	-0.642
Mof_N 	N 	0.6293	0.7291	0.2511	-0.019
Mof_C 	C 	0.6125	0.7708	0.2391	-0.086
Mof_H 	H 	0.568	0.7781	0.2381	-0.002
Mof_C 	C 	0.6966	0.7157	0.2539	-0.384
Mof_H 	H 	0.7224	0.7361	0.2402	0.174
Mof_H 	H 	0.702	0.6815	0.2482	0.189
Mof_H 	H 	0.7108	0.7205	0.2751	0.166
Mof_C 	C 	0.5841	0.6948	0.2653	-0.338
Mof_H 	H 	0.6013	0.6836	0.285	0.145
Mof_H 	H 	0.5779	0.6668	0.2517	0.142
Mof_H 	H 	0.5429	0.711	0.2687	0.12
Mof_O 	O 	0.5466	0.872	0.2673	-1.765
Mof_C 	C 	0.5528	0.8983	0.2896	0.383
Mof_H 	H 	0.5817	0.9238	0.2846	-0.057
Mof_N 	N 	0.5066	0.9092	0.309	-0.033
Mof_C 	C 	0.5111	0.9539	0.3273	-0.114
Mof_H 	H 	0.5508	0.9711	0.3222	0.024
Mof_H 	H 	0.5112	0.9456	0.3492	0.071
Mof_H 	H 	0.4743	0.9749	0.3228	0.059
Mof_C 	C 	0.4514	0.8763	0.3118	0.17
Mof_H 	H 	0.4567	0.8488	0.2978	-0.052
Mof_H 	H 	0.412	0.8939	0.3067	-0.016
Mof_H 	H 	0.4487	0.8642	0.333	0.079
Mof_H 	H 	0.445	0.8813	0.3227	-0.085
Mof_Cl	Cl	0.6327	0.7913	0.2251	0.497
Mof_Cl	Cl	0.5564	0.8551	0.2734	1.646
Mof_N 	N 	0.536	0.9034	0.3151	-0.176
Mof_C 	C 	0.5592	0.9382	0.3384	-0.086
Mof_C 	C 	0.4865	0.8779	0.3329	-0.199
Mof_H 	H 	0.5528	0.9715	0.331	0.053
Mof_H 	H 	0.5352	0.9336	0.3575	0.004
Mof_H 	H 	0.6048	0.9327	0.3422	0.041
Mof_H 	H 	0.484	0.892	0.3536	0.071
Mof_H 	H 	0.4976	0.8434	0.3345	0.035
Mof_Cd	Cd	0.06608	0.29306	0.59135	0.428
Mof_Cd	Cd	0.12274	0.36947	0.52415	0.438
Mof_Cl	Cl	0.02631	0.37235	0.56125	-0.378
Mof_N 	N 	0.1168	0.25905	0.49669	-0.089
Mof_N 	N 	0.1046	0.28718	0.52103	-0.063
Mof_N 	N 	0.0868	0.25976	0.54414	-0.07
Mof_N 	N 	0.0864	0.21344	0.536	-0.082
Mof_N 	N 	0.9478	0.10193	0.43511	-0.103
Mof_N 	N 	0.9164	0.08459	0.4103	-0.061
Mof_N 	N 	0.9569	0.0801	0.38782	-0.062
Mof_N 	N 	0.0159	0.09376	0.39638	-0.083
Mof_C 	C 	0.1051	0.21394	0.50658	0.045
Mof_C 	C 	0.1146	0.16998	0.48686	0.182
Mof_C 	C 	0.0552	0.16247	0.46645	-0.294
Mof_H 	H 	0.0482	0.1916	0.4535	0.119
Mof_H 	H 	0.0168	0.1577	0.4795	0.122
Mof_C 	C 	0.0654	0.11747	0.44592	0.176
Mof_H 	H 	0.1187	0.1537	0.4126	0.125
Mof_H 	H 	0.1629	0.1299	0.5204	0.127
Mof_C 	C 	0.1736	0.17773	0.4664	-0.292
Mof_H 	H 	0.2118	0.1834	0.4794	0.116
Mof_H 	H 	0.1671	0.2067	0.4533	0.121
Mof_C 	C 	0.009	0.10647	0.42598	0.05
Mof_O 	O 	0.1506	0.4483	0.5211	-0.642
Mof_N 	N 	0.1293	0.5209	0.4989	-0.019
Mof_C 	C 	0.1125	0.4792	0.5109	-0.086
Mof_H 	H 	0.068	0.4719	0.5119	-0.002
Mof_C 	C 	0.1966	0.5343	0.4961	-0.384
Mof_H 	H 	0.2224	0.5139	0.5098	0.174
Mof_H 	H 	0.202	0.5685	0.5018	0.189
Mof_H 	H 	0.2108	0.5295	0.4749	0.166
Mof_C 	C 	0.0841	0.5552	0.4847	-0.338
Mof_H 	H 	0.1013	0.5664	0.465	0.145
Mof_H 	H 	0.0779	0.5832	0.4983	0.142
Mof_H 	H 	0.0429	0.539	0.4813	0.12
Mof_O 	O 	0.0466	0.378	0.4827	-1.765
Mof_C 	C 	0.0528	0.3517	0.4604	0.383
Mof_H 	H 	0.0817	0.3262	0.4654	-0.057
Mof_N 	N 	0.0066	0.3408	0.441	-0.033
Mof_C 	C 	0.0111	0.2961	0.4227	-0.115
Mof_H 	H 	0.0508	0.2789	0.4278	0.024
Mof_H 	H 	0.0112	0.3044	0.4008	0.071
Mof_H 	H 	0.9743	0.2751	0.4272	0.059
Mof_C 	C 	0.9514	0.3737	0.4382	0.17
Mof_H 	H 	0.9567	0.4012	0.4522	-0.052
Mof_H 	H 	0.912	0.3561	0.4433	-0.016
Mof_H 	H 	0.9487	0.3858	0.417	0.079
Mof_H 	H 	0.945	0.3687	0.4273	-0.085
Mof_Cl	Cl	0.1327	0.4587	0.5249	0.497
Mof_Cl	Cl	0.0564	0.3949	0.4766	1.646
Mof_N 	N 	0.036	0.3466	0.4349	-0.176
Mof_C 	C 	0.0592	0.3118	0.4116	-0.086
Mof_C 	C 	0.9865	0.3721	0.4171	-0.199
Mof_H 	H 	0.0528	0.2785	0.419	0.053
Mof_H 	H 	0.0352	0.3164	0.3925	0.004
Mof_H 	H 	0.1048	0.3173	0.4078	0.041
Mof_H 	H 	0.984	0.358	0.3964	0.071
Mof_H 	H 	0.9976	0.4066	0.4155	0.035
Mof_Cd	Cd	0.06608	0.79306	0.09135	0.428
Mof_Cd	Cd	0.12274	0.86947	0.02415	0.438
Mof_Cl	Cl	0.02631	0.87235	0.06125	-0.378
Mof_N 	N 	0.1168	0.75905	0.99669	-0.089
Mof_N 	N 	0.1046	0.78718	0.02103	-0.063
Mof_N 	N 	0.0868	0.75976	0.04414	-0.07
Mof_N 	N 	0.0864	0.71344	0.036	-0.082
Mof_N 	N 	0.9478	0.60193	0.93511	-0.103
Mof_N 	N 	0.9164	0.58459	0.9103	-0.062
Mof_N 	N 	0.9569	0.5801	0.88782	-0.062
Mof_N 	N 	0.0159	0.59376	0.89638	-0.083
Mof_C 	C 	0.1051	0.71394	0.00658	0.045
Mof_C 	C 	0.1146	0.66998	0.98686	0.182
Mof_C 	C 	0.0552	0.66247	0.96645	-0.294
Mof_H 	H 	0.0482	0.6916	0.9535	0.119
Mof_H 	H 	0.0168	0.6577	0.9795	0.123
Mof_C 	C 	0.0654	0.61747	0.94592	0.176
Mof_H 	H 	0.1187	0.6537	0.9126	0.125
Mof_H 	H 	0.1629	0.6299	0.0204	0.127
Mof_C 	C 	0.1736	0.67773	0.9664	-0.292
Mof_H 	H 	0.2118	0.6834	0.9794	0.116
Mof_H 	H 	0.1671	0.7067	0.9533	0.121
Mof_C 	C 	0.009	0.60647	0.92598	0.05
Mof_O 	O 	0.1506	0.9483	0.0211	-0.642
Mof_N 	N 	0.1293	0.0209	0.9989	-0.019
Mof_C 	C 	0.1125	0.9792	0.0109	-0.086
Mof_H 	H 	0.068	0.9719	0.0119	-0.002
Mof_C 	C 	0.1966	0.0343	0.9961	-0.384
Mof_H 	H 	0.2224	0.0139	0.0098	0.174
Mof_H 	H 	0.202	0.0685	0.0018	0.189
Mof_H 	H 	0.2108	0.0295	0.9749	0.166
Mof_C 	C 	0.0841	0.0552	0.9847	-0.338
Mof_H 	H 	0.1013	0.0664	0.965	0.145
Mof_H 	H 	0.0779	0.0832	0.9983	0.142
Mof_H 	H 	0.0429	0.039	0.9813	0.12
Mof_O 	O 	0.0466	0.878	0.9827	-1.765
Mof_C 	C 	0.0528	0.8517	0.9604	0.383
Mof_H 	H 	0.0817	0.8262	0.9654	-0.057
Mof_N 	N 	0.0066	0.8408	0.941	-0.033
Mof_C 	C 	0.0111	0.7961	0.9227	-0.114
Mof_H 	H 	0.0508	0.7789	0.9278	0.024
Mof_H 	H 	0.0112	0.8044	0.9008	0.071
Mof_H 	H 	0.9743	0.7751	0.9272	0.059
Mof_C 	C 	0.9514	0.8737	0.9382	0.17
Mof_H 	H 	0.9567	0.9012	0.9522	-0.052
Mof_H 	H 	0.912	0.8561	0.9433	-0.016
Mof_H 	H 	0.9487	0.8858	0.917	0.079
Mof_H 	H 	0.945	0.8687	0.9273	-0.085
Mof_Cl	Cl	0.1327	0.9587	0.0249	0.497
Mof_Cl	Cl	0.0564	0.8949	0.9766	1.645
Mof_N 	N 	0.036	0.8466	0.9349	-0.176
Mof_C 	C 	0.0592	0.8118	0.9116	-0.086
Mof_C 	C 	0.9865	0.8721	0.9171	-0.199
Mof_H 	H 	0.0528	0.7785	0.919	0.052
Mof_H 	H 	0.0352	0.8164	0.8925	0.004
Mof_H 	H 	0.1048	0.8173	0.9078	0.041
Mof_H 	H 	0.984	0.858	0.8964	0.071
Mof_H 	H 	0.9976	0.9066	0.9155	0.035
Mof_Cd	Cd	0.56608	0.29306	0.09135	0.428
Mof_Cd	Cd	0.62274	0.36947	0.02415	0.438
Mof_Cl	Cl	0.52631	0.37235	0.06125	-0.378
Mof_N 	N 	0.6168	0.25905	0.99669	-0.089
Mof_N 	N 	0.6046	0.28718	0.02103	-0.063
Mof_N 	N 	0.5868	0.25976	0.04414	-0.07
Mof_N 	N 	0.5864	0.21344	0.036	-0.082
Mof_N 	N 	0.4478	0.10193	0.93511	-0.103
Mof_N 	N 	0.4164	0.08459	0.9103	-0.061
Mof_N 	N 	0.4569	0.0801	0.88782	-0.062
Mof_N 	N 	0.5159	0.09376	0.89638	-0.083
Mof_C 	C 	0.6051	0.21394	0.00658	0.045
Mof_C 	C 	0.6146	0.16998	0.98686	0.182
Mof_C 	C 	0.5552	0.16247	0.96645	-0.294
Mof_H 	H 	0.5482	0.1916	0.9535	0.119
Mof_H 	H 	0.5168	0.1577	0.9795	0.123
Mof_C 	C 	0.5654	0.11747	0.94592	0.176
Mof_H 	H 	0.6187	0.1537	0.9126	0.125
Mof_H 	H 	0.6629	0.1299	0.0204	0.127
Mof_C 	C 	0.6736	0.17773	0.9664	-0.292
Mof_H 	H 	0.7118	0.1834	0.9794	0.116
Mof_H 	H 	0.6671	0.2067	0.9533	0.121
Mof_C 	C 	0.509	0.10647	0.92598	0.05
Mof_O 	O 	0.6506	0.4483	0.0211	-0.642
Mof_N 	N 	0.6293	0.5209	0.9989	-0.019
Mof_C 	C 	0.6125	0.4792	0.0109	-0.086
Mof_H 	H 	0.568	0.4719	0.0119	-0.002
Mof_C 	C 	0.6966	0.5343	0.9961	-0.384
Mof_H 	H 	0.7224	0.5139	0.0098	0.174
Mof_H 	H 	0.702	0.5685	0.0018	0.189
Mof_H 	H 	0.7108	0.5295	0.9749	0.166
Mof_C 	C 	0.5841	0.5552	0.9847	-0.338
Mof_H 	H 	0.6013	0.5664	0.965	0.145
Mof_H 	H 	0.5779	0.5832	0.9983	0.142
Mof_H 	H 	0.5429	0.539	0.9813	0.12
Mof_O 	O 	0.5466	0.378	0.9827	-1.765
Mof_C 	C 	0.5528	0.3517	0.9604	0.383
Mof_H 	H 	0.5817	0.3262	0.9654	-0.057
Mof_N 	N 	0.5066	0.3408	0.941	-0.033
Mof_C 	C 	0.5111	0.2961	0.9227	-0.114
Mof_H 	H 	0.5508	0.2789	0.9278	0.024
Mof_H 	H 	0.5112	0.3044	0.9008	0.071
Mof_H 	H 	0.4743	0.2751	0.9272	0.059
Mof_C 	C 	0.4514	0.3737	0.9382	0.17
Mof_H 	H 	0.4567	0.4012	0.9522	-0.052
Mof_H 	H 	0.412	0.3561	0.9433	-0.016
Mof_H 	H 	0.4487	0.3858	0.917	0.079
Mof_H 	H 	0.445	0.3687	0.9273	-0.085
Mof_Cl	Cl	0.6327	0.4587	0.0249	0.497
Mof_Cl	Cl	0.5564	0.3949	0.9766	1.646
Mof_N 	N 	0.536	0.3466	0.9349	-0.176
Mof_C 	C 	0.5592	0.3118	0.9116	-0.086
Mof_C 	C 	0.4865	0.3721	0.9171	-0.199
Mof_H 	H 	0.5528	0.2785	0.919	0.053
Mof_H 	H 	0.5352	0.3164	0.8925	0.004
Mof_H 	H 	0.6048	0.3173	0.9078	0.041
Mof_H 	H 	0.484	0.358	0.8964	0.071
Mof_H 	H 	0.4976	0.4066	0.9155	0.035
Mof_Cd	Cd	0.56608	0.79306	0.59135	0.428
Mof_Cd	Cd	0.62274	0.86947	0.52415	0.438
Mof_Cl	Cl	0.52631	0.87235	0.56125	-0.378
Mof_N 	N 	0.6168	0.75905	0.49669	-0.089
Mof_N 	N 	0.6046	0.78718	0.52103	-0.063
Mof_N 	N 	0.5868	0.75976	0.54414	-0.07
Mof_N 	N 	0.5864	0.71344	0.536	-0.082
Mof_N 	N 	0.4478	0.60193	0.43511	-0.103
Mof_N 	N 	0.4164	0.58459	0.4103	-0.061
Mof_N 	N 	0.4569	0.5801	0.38782	-0.062
Mof_N 	N 	0.5159	0.59376	0.39638	-0.083
Mof_C 	C 	0.6051	0.71394	0.50658	0.045
Mof_C 	C 	0.6146	0.66998	0.48686	0.182
Mof_C 	C 	0.5552	0.66247	0.46645	-0.294
Mof_H 	H 	0.5482	0.6916	0.4535	0.119
Mof_H 	H 	0.5168	0.6577	0.4795	0.123
Mof_C 	C 	0.5654	0.61747	0.44592	0.176
Mof_H 	H 	0.6187	0.6537	0.4126	0.125
Mof_H 	H 	0.6629	0.6299	0.5204	0.127
Mof_C 	C 	0.6736	0.67773	0.4664	-0.292
Mof_H 	H 	0.7118	0.6834	0.4794	0.116
Mof_H 	H 	0.6671	0.7067	0.4533	0.121
Mof_C 	C 	0.509	0.60647	0.42598	0.05
Mof_O 	O 	0.6506	0.9483	0.5211	-0.642
Mof_N 	N 	0.6293	0.0209	0.4989	-0.019
Mof_C 	C 	0.6125	0.9792	0.5109	-0.086
Mof_H 	H 	0.568	0.9719	0.5119	-0.002
Mof_C 	C 	0.6966	0.0343	0.4961	-0.384
Mof_H 	H 	0.7224	0.0139	0.5098	0.174
Mof_H 	H 	0.702	0.0685	0.5018	0.189
Mof_H 	H 	0.7108	0.0295	0.4749	0.166
Mof_C 	C 	0.5841	0.0552	0.4847	-0.339
Mof_H 	H 	0.6013	0.0664	0.465	0.145
Mof_H 	H 	0.5779	0.0832	0.4983	0.142
Mof_H 	H 	0.5429	0.039	0.4813	0.12
Mof_O 	O 	0.5466	0.878	0.4827	-1.765
Mof_C 	C 	0.5528	0.8517	0.4604	0.383
Mof_H 	H 	0.5817	0.8262	0.4654	-0.057
Mof_N 	N 	0.5066	0.8408	0.441	-0.033
Mof_C 	C 	0.5111	0.7961	0.4227	-0.114
Mof_H 	H 	0.5508	0.7789	0.4278	0.024
Mof_H 	H 	0.5112	0.8044	0.4008	0.071
Mof_H 	H 	0.4743	0.7751	0.4272	0.059
Mof_C 	C 	0.4514	0.8737	0.4382	0.17
Mof_H 	H 	0.4567	0.9012	0.4522	-0.052
Mof_H 	H 	0.412	0.8561	0.4433	-0.016
Mof_H 	H 	0.4487	0.8858	0.417	0.079
Mof_H 	H 	0.445	0.8687	0.4273	-0.085
Mof_Cl	Cl	0.6327	0.9587	0.5249	0.497
Mof_Cl	Cl	0.5564	0.8949	0.4766	1.646
Mof_N 	N 	0.536	0.8466	0.4349	-0.176
Mof_C 	C 	0.5592	0.8118	0.4116	-0.086
Mof_C 	C 	0.4865	0.8721	0.4171	-0.199
Mof_H 	H 	0.5528	0.7785	0.419	0.053
Mof_H 	H 	0.5352	0.8164	0.3925	0.004
Mof_H 	H 	0.6048	0.8173	0.4078	0.041
Mof_H 	H 	0.484	0.858	0.3964	0.071
Mof_H 	H 	0.4976	0.9066	0.4155	0.035
Mof_Cd	Cd	0.68392	0.45694	0.59135	0.428
Mof_Cd	Cd	0.62726	0.38053	0.52415	0.438
Mof_Cl	Cl	0.72369	0.37765	0.56125	-0.378
Mof_N 	N 	0.6332	0.49095	0.49669	-0.089
Mof_N 	N 	0.6454	0.46282	0.52103	-0.063
Mof_N 	N 	0.6632	0.49024	0.54414	-0.07
Mof_N 	N 	0.6636	0.53656	0.536	-0.082
Mof_N 	N 	0.8022	0.64807	0.43511	-0.103
Mof_N 	N 	0.8336	0.66541	0.4103	-0.061
Mof_N 	N 	0.7931	0.6699	0.38782	-0.062
Mof_N 	N 	0.7341	0.65624	0.39638	-0.083
Mof_C 	C 	0.6449	0.53606	0.50658	0.045
Mof_C 	C 	0.6354	0.58002	0.48686	0.182
Mof_C 	C 	0.6948	0.58753	0.46645	-0.294
Mof_H 	H 	0.7018	0.5584	0.4535	0.119
Mof_H 	H 	0.7332	0.5923	0.4795	0.123
Mof_C 	C 	0.6846	0.63253	0.44592	0.176
Mof_H 	H 	0.6313	0.5963	0.4126	0.125
Mof_H 	H 	0.5871	0.6201	0.5204	0.127
Mof_C 	C 	0.5764	0.57227	0.4664	-0.292
Mof_H 	H 	0.5382	0.5666	0.4794	0.116
Mof_H 	H 	0.5829	0.5433	0.4533	0.121
Mof_C 	C 	0.741	0.64353	0.42598	0.05
Mof_O 	O 	0.5994	0.3017	0.5211	-0.642
Mof_N 	N 	0.6207	0.2291	0.4989	-0.019
Mof_C 	C 	0.6375	0.2708	0.5109	-0.086
Mof_H 	H 	0.682	0.2781	0.5119	-0.002
Mof_C 	C 	0.5534	0.2157	0.4961	-0.384
Mof_H 	H 	0.5276	0.2361	0.5098	0.174
Mof_H 	H 	0.548	0.1815	0.5018	0.189
Mof_H 	H 	0.5392	0.2205	0.4749	0.166
Mof_C 	C 	0.6659	0.1948	0.4847	-0.338
Mof_H 	H 	0.6487	0.1836	0.465	0.145
Mof_H 	H 	0.6721	0.1668	0.4983	0.142
Mof_H 	H 	0.7071	0.211	0.4813	0.12
Mof_O 	O 	0.7034	0.372	0.4827	-1.765
Mof_C 	C 	0.6972	0.3983	0.4604	0.383
Mof_H 	H 	0.6683	0.4238	0.4654	-0.057
Mof_N 	N 	0.7434	0.4092	0.441	-0.033
Mof_C 	C 	0.7389	0.4539	0.4227	-0.114
Mof_H 	H 	0.6992	0.4711	0.4278	0.024
Mof_H 	H 	0.7388	0.4456	0.4008	0.071
Mof_H 	H 	0.7757	0.4749	0.4272	0.059
Mof_C 	C 	0.7986	0.3763	0.4382	0.17
Mof_H 	H 	0.7933	0.3488	0.4522	-0.052
Mof_H 	H 	0.838	0.3939	0.4433	-0.016
Mof_H 	H 	0.8013	0.3642	0.417	0.079
Mof_H 	H 	0.805	0.3813	0.4273	-0.085
Mof_Cl	Cl	0.6173	0.2913	0.5249	0.497
Mof_Cl	Cl	0.6936	0.3551	0.4766	1.646
Mof_N 	N 	0.714	0.4034	0.4349	-0.176
Mof_C 	C 	0.6908	0.4382	0.4116	-0.086
Mof_C 	C 	0.7635	0.3779	0.4171	-0.199
Mof_H 	H 	0.6972	0.4715	0.419	0.053
Mof_H 	H 	0.7148	0.4336	0.3925	0.004
Mof_H 	H 	0.6452	0.4327	0.4078	0.041
Mof_H 	H 	0.766	0.392	0.3964	0.071
Mof_H 	H 	0.7524	0.3434	0.4155	0.035
Mof_Cd	Cd	0.68392	0.95694	0.09135	0.428
Mof_Cd	Cd	0.62726	0.88053	0.02415	0.438
Mof_Cl	Cl	0.72369	0.87765	0.06125	-0.378
Mof_N 	N 	0.6332	0.99095	0.99669	-0.089
Mof_N 	N 	0.6454	0.96282	0.02103	-0.063
Mof_N 	N 	0.6632	0.99024	0.04414	-0.07
Mof_N 	N 	0.6636	0.03656	0.036	-0.082
Mof_N 	N 	0.8022	0.14807	0.93511	-0.103
Mof_N 	N 	0.8336	0.16541	0.9103	-0.061
Mof_N 	N 	0.7931	0.1699	0.88782	-0.062
Mof_N 	N 	0.7341	0.15624	0.89638	-0.083
Mof_C 	C 	0.6449	0.03606	0.00658	0.045
Mof_C 	C 	0.6354	0.08002	0.98686	0.182
Mof_C 	C 	0.6948	0.08753	0.96645	-0.294
Mof_H 	H 	0.7018	0.0584	0.9535	0.119
Mof_H 	H 	0.7332	0.0923	0.9795	0.123
Mof_C 	C 	0.6846	0.13253	0.94592	0.176
Mof_H 	H 	0.6313	0.0963	0.9126	0.125
Mof_H 	H 	0.5871	0.1201	0.0204	0.127
Mof_C 	C 	0.5764	0.07227	0.9664	-0.292
Mof_H 	H 	0.5382	0.0666	0.9794	0.116
Mof_H 	H 	0.5829	0.0433	0.9533	0.121
Mof_C 	C 	0.741	0.14353	0.92598	0.05
Mof_O 	O 	0.5994	0.8017	0.0211	-0.642
Mof_N 	N 	0.6207	0.7291	0.9989	-0.019
Mof_C 	C 	0.6375	0.7708	0.0109	-0.086
Mof_H 	H 	0.682	0.7781	0.0119	-0.002
Mof_C 	C 	0.5534	0.7157	0.9961	-0.384
Mof_H 	H 	0.5276	0.7361	0.0098	0.174
Mof_H 	H 	0.548	0.6815	0.0018	0.189
Mof_H 	H 	0.5392	0.7205	0.9749	0.166
Mof_C 	C 	0.6659	0.6948	0.9847	-0.338
Mof_H 	H 	0.6487	0.6836	0.965	0.145
Mof_H 	H 	0.6721	0.6668	0.9983	0.142
Mof_H 	H 	0.7071	0.711	0.9813	0.12
Mof_O 	O 	0.7034	0.872	0.9827	-1.765
Mof_C 	C 	0.6972	0.8983	0.9604	0.383
Mof_H 	H 	0.6683	0.9238	0.9654	-0.057
Mof_N 	N 	0.7434	0.9092	0.941	-0.033
Mof_C 	C 	0.7389	0.9539	0.9227	-0.114
Mof_H 	H 	0.6992	0.9711	0.9278	0.024
Mof_H 	H 	0.7388	0.9456	0.9008	0.071
Mof_H 	H 	0.7757	0.9749	0.9272	0.059
Mof_C 	C 	0.7986	0.8763	0.9382	0.17
Mof_H 	H 	0.7933	0.8488	0.9522	-0.052
Mof_H 	H 	0.838	0.8939	0.9433	-0.016
Mof_H 	H 	0.8013	0.8642	0.917	0.079
Mof_H 	H 	0.805	0.8813	0.9273	-0.085
Mof_Cl	Cl	0.6173	0.7913	0.0249	0.497
Mof_Cl	Cl	0.6936	0.8551	0.9766	1.646
Mof_N 	N 	0.714	0.9034	0.9349	-0.176
Mof_C 	C 	0.6908	0.9382	0.9116	-0.086
Mof_C 	C 	0.7635	0.8779	0.9171	-0.199
Mof_H 	H 	0.6972	0.9715	0.919	0.053
Mof_H 	H 	0.7148	0.9336	0.8925	0.004
Mof_H 	H 	0.6452	0.9327	0.9078	0.041
Mof_H 	H 	0.766	0.892	0.8964	0.071
Mof_H 	H 	0.7524	0.8434	0.9155	0.035
Mof_Cd	Cd	0.18392	0.45694	0.09135	0.428
Mof_Cd	Cd	0.12726	0.38053	0.02415	0.438
Mof_Cl	Cl	0.22369	0.37765	0.06125	-0.378
Mof_N 	N 	0.1332	0.49095	0.99669	-0.089
Mof_N 	N 	0.1454	0.46282	0.02103	-0.063
Mof_N 	N 	0.1632	0.49024	0.04414	-0.07
Mof_N 	N 	0.1636	0.53656	0.036	-0.082
Mof_N 	N 	0.3022	0.64807	0.93511	-0.103
Mof_N 	N 	0.3336	0.66541	0.9103	-0.061
Mof_N 	N 	0.2931	0.6699	0.88782	-0.062
Mof_N 	N 	0.2341	0.65624	0.89638	-0.083
Mof_C 	C 	0.1449	0.53606	0.00658	0.045
Mof_C 	C 	0.1354	0.58002	0.98686	0.182
Mof_C 	C 	0.1948	0.58753	0.96645	-0.294
Mof_H 	H 	0.2018	0.5584	0.9535	0.119
Mof_H 	H 	0.2332	0.5923	0.9795	0.123
Mof_C 	C 	0.1846	0.63253	0.94592	0.176
Mof_H 	H 	0.1313	0.5963	0.9126	0.125
Mof_H 	H 	0.0871	0.6201	0.0204	0.127
Mof_C 	C 	0.0764	0.57227	0.9664	-0.292
Mof_H 	H 	0.0382	0.5666	0.9794	0.116
Mof_H 	H 	0.0829	0.5433	0.9533	0.121
Mof_C 	C 	0.241	0.64353	0.92598	0.05
Mof_O 	O 	0.0994	0.3017	0.0211	-0.642
Mof_N 	N 	0.1207	0.2291	0.9989	-0.019
Mof_C 	C 	0.1375	0.2708	0.0109	-0.086
Mof_H 	H 	0.182	0.2781	0.0119	-0.002
Mof_C 	C 	0.0534	0.2157	0.9961	-0.384
Mof_H 	H 	0.0276	0.2361	0.0098	0.174
Mof_H 	H 	0.048	0.1815	0.0018	0.189
Mof_H 	H 	0.0392	0.2205	0.9749	0.165
Mof_C 	C 	0.1659	0.1948	0.9847	-0.338
Mof_H 	H 	0.1487	0.1836	0.965	0.145
Mof_H 	H 	0.1721	0.1668	0.9983	0.142
Mof_H 	H 	0.2071	0.211	0.9813	0.12
Mof_O 	O 	0.2034	0.372	0.9827	-1.765
Mof_C 	C 	0.1972	0.3983	0.9604	0.383
Mof_H 	H 	0.1683	0.4238	0.9654	-0.057
Mof_N 	N 	0.2434	0.4092	0.941	-0.033
Mof_C 	C 	0.2389	0.4539	0.9227	-0.114
Mof_H 	H 	0.1992	0.4711	0.9278	0.024
Mof_H 	H 	0.2388	0.4456	0.9008	0.071
Mof_H 	H 	0.2757	0.4749	0.9272	0.059
Mof_C 	C 	0.2986	0.3763	0.9382	0.17
Mof_H 	H 	0.2933	0.3488	0.9522	-0.052
Mof_H 	H 	0.338	0.3939	0.9433	-0.016
Mof_H 	H 	0.3013	0.3642	0.917	0.079
Mof_H 	H 	0.305	0.3813	0.9273	-0.085
Mof_Cl	Cl	0.1173	0.2913	0.0249	0.497
Mof_Cl	Cl	0.1936	0.3551	0.9766	1.646
Mof_N 	N 	0.214	0.4034	0.9349	-0.176
Mof_C 	C 	0.1908	0.4382	0.9116	-0.086
Mof_C 	C 	0.2635	0.3779	0.9171	-0.199
Mof_H 	H 	0.1972	0.4715	0.919	0.053
Mof_H 	H 	0.2148	0.4336	0.8925	0.004
Mof_H 	H 	0.1452	0.4327	0.9078	0.041
Mof_H 	H 	0.266	0.392	0.8964	0.071
Mof_H 	H 	0.2524	0.3434	0.9155	0.035
Mof_Cd	Cd	0.18392	0.95694	0.59135	0.428
Mof_Cd	Cd	0.12726	0.88053	0.52415	0.438
Mof_Cl	Cl	0.22369	0.87765	0.56125	-0.378
Mof_N 	N 	0.1332	0.99095	0.49669	-0.088
Mof_N 	N 	0.1454	0.96282	0.52103	-0.063
Mof_N 	N 	0.1632	0.99024	0.54414	-0.07
Mof_N 	N 	0.1636	0.03656	0.536	-0.082
Mof_N 	N 	0.3022	0.14807	0.43511	-0.103
Mof_N 	N 	0.3336	0.16541	0.4103	-0.061
Mof_N 	N 	0.2931	0.1699	0.38782	-0.062
Mof_N 	N 	0.2341	0.15624	0.39638	-0.083
Mof_C 	C 	0.1449	0.03606	0.50658	0.045
Mof_C 	C 	0.1354	0.08002	0.48686	0.182
Mof_C 	C 	0.1948	0.08753	0.46645	-0.294
Mof_H 	H 	0.2018	0.0584	0.4535	0.119
Mof_H 	H 	0.2332	0.0923	0.4795	0.123
Mof_C 	C 	0.1846	0.13253	0.44592	0.176
Mof_H 	H 	0.1313	0.0963	0.4126	0.125
Mof_H 	H 	0.0871	0.1201	0.5204	0.127
Mof_C 	C 	0.0764	0.07227	0.4664	-0.292
Mof_H 	H 	0.0382	0.0666	0.4794	0.116
Mof_H 	H 	0.0829	0.0433	0.4533	0.12
Mof_C 	C 	0.241	0.14353	0.42598	0.05
Mof_O 	O 	0.0994	0.8017	0.5211	-0.642
Mof_N 	N 	0.1207	0.7291	0.4989	-0.019
Mof_C 	C 	0.1375	0.7708	0.5109	-0.086
Mof_H 	H 	0.182	0.7781	0.5119	-0.002
Mof_C 	C 	0.0534	0.7157	0.4961	-0.384
Mof_H 	H 	0.0276	0.7361	0.5098	0.174
Mof_H 	H 	0.048	0.6815	0.5018	0.189
Mof_H 	H 	0.0392	0.7205	0.4749	0.166
Mof_C 	C 	0.1659	0.6948	0.4847	-0.338
Mof_H 	H 	0.1487	0.6836	0.465	0.145
Mof_H 	H 	0.1721	0.6668	0.4983	0.142
Mof_H 	H 	0.2071	0.711	0.4813	0.12
Mof_O 	O 	0.2034	0.872	0.4827	-1.765
Mof_C 	C 	0.1972	0.8983	0.4604	0.383
Mof_H 	H 	0.1683	0.9238	0.4654	-0.057
Mof_N 	N 	0.2434	0.9092	0.441	-0.033
Mof_C 	C 	0.2389	0.9539	0.4227	-0.114
Mof_H 	H 	0.1992	0.9711	0.4278	0.024
Mof_H 	H 	0.2388	0.9456	0.4008	0.071
Mof_H 	H 	0.2757	0.9749	0.4272	0.059
Mof_C 	C 	0.2986	0.8763	0.4382	0.17
Mof_H 	H 	0.2933	0.8488	0.4522	-0.052
Mof_H 	H 	0.338	0.8939	0.4433	-0.016
Mof_H 	H 	0.3013	0.8642	0.417	0.079
Mof_H 	H 	0.305	0.8813	0.4273	-0.085
Mof_Cl	Cl	0.1173	0.7913	0.5249	0.497
Mof_Cl	Cl	0.1936	0.8551	0.4766	1.646
Mof_N 	N 	0.214	0.9034	0.4349	-0.176
Mof_C 	C 	0.1908	0.9382	0.4116	-0.086
Mof_C 	C 	0.2635	0.8779	0.4171	-0.199
Mof_H 	H 	0.1972	0.9715	0.419	0.053
Mof_H 	H 	0.2148	0.9336	0.3925	0.004
Mof_H 	H 	0.1452	0.9327	0.4078	0.041
Mof_H 	H 	0.266	0.892	0.3964	0.071
Mof_H 	H 	0.2524	0.8434	0.4155	0.035
Mof_Cd	Cd	0.31608	0.70694	0.84135	0.428
Mof_Cd	Cd	0.37274	0.63053	0.77415	0.438
Mof_Cl	Cl	0.27631	0.62765	0.81125	-0.378
Mof_N 	N 	0.3668	0.74095	0.74669	-0.089
Mof_N 	N 	0.3546	0.71282	0.77103	-0.063
Mof_N 	N 	0.3368	0.74024	0.79414	-0.07
Mof_N 	N 	0.3364	0.78656	0.786	-0.082
Mof_N 	N 	0.1978	0.89807	0.68511	-0.103
Mof_N 	N 	0.1664	0.91541	0.6603	-0.061
Mof_N 	N 	0.2069	0.9199	0.63782	-0.062
Mof_N 	N 	0.2659	0.90624	0.64638	-0.083
Mof_C 	C 	0.3551	0.78606	0.75658	0.045
Mof_C 	C 	0.3646	0.83002	0.73686	0.182
Mof_C 	C 	0.3052	0.83753	0.71645	-0.294
Mof_H 	H 	0.2982	0.8084	0.7035	0.119
Mof_H 	H 	0.2668	0.8423	0.7295	0.123
Mof_C 	C 	0.3154	0.88253	0.69592	0.176
Mof_H 	H 	0.3687	0.8463	0.6626	0.125
Mof_H 	H 	0.4129	0.8701	0.7704	0.127
Mof_C 	C 	0.4236	0.82227	0.7164	-0.292
Mof_H 	H 	0.4618	0.8166	0.7294	0.116
Mof_H 	H 	0.4171	0.7933	0.7033	0.121
Mof_C 	C 	0.259	0.89353	0.67598	0.05
Mof_O 	O 	0.4006	0.5517	0.7711	-0.642
Mof_N 	N 	0.3793	0.4791	0.7489	-0.019
Mof_C 	C 	0.3625	0.5208	0.7609	-0.086
Mof_H 	H 	0.318	0.5281	0.7619	-0.002
Mof_C 	C 	0.4466	0.4657	0.7461	-0.384
Mof_H 	H 	0.4724	0.4861	0.7598	0.174
Mof_H 	H 	0.452	0.4315	0.7518	0.189
Mof_H 	H 	0.4608	0.4705	0.7249	0.166
Mof_C 	C 	0.3341	0.4448	0.7347	-0.338
Mof_H 	H 	0.3513	0.4336	0.715	0.145
Mof_H 	H 	0.3279	0.4168	0.7483	0.142
Mof_H 	H 	0.2929	0.461	0.7313	0.12
Mof_O 	O 	0.2966	0.622	0.7327	-1.765
Mof_C 	C 	0.3028	0.6483	0.7104	0.383
Mof_H 	H 	0.3317	0.6738	0.7154	-0.057
Mof_N 	N 	0.2566	0.6592	0.691	-0.033
Mof_C 	C 	0.2611	0.7039	0.6727	-0.114
Mof_H 	H 	0.3008	0.7211	0.6778	0.024
Mof_H 	H 	0.2612	0.6956	0.6508	0.071
Mof_H 	H 	0.2243	0.7249	0.6772	0.059
Mof_C 	C 	0.2014	0.6263	0.6882	0.17
Mof_H 	H 	0.2067	0.5988	0.7022	-0.052
Mof_H 	H 	0.162	0.6439	0.6933	-0.016
Mof_H 	H 	0.1987	0.6142	0.667	0.079
Mof_H 	H 	0.195	0.6313	0.6773	-0.085
Mof_Cl	Cl	0.3827	0.5413	0.7749	0.497
Mof_Cl	Cl	0.3064	0.6051	0.7266	1.646
Mof_N 	N 	0.286	0.6534	0.6849	-0.176
Mof_C 	C 	0.3092	0.6882	0.6616	-0.086
Mof_C 	C 	0.2365	0.6279	0.6671	-0.199
Mof_H 	H 	0.3028	0.7215	0.669	0.053
Mof_H 	H 	0.2852	0.6836	0.6425	0.004
Mof_H 	H 	0.3548	0.6827	0.6578	0.041
Mof_H 	H 	0.234	0.642	0.6464	0.071
Mof_H 	H 	0.2476	0.5934	0.6655	0.035
Mof_Cd	Cd	0.31608	0.20694	0.34135	0.428
Mof_Cd	Cd	0.37274	0.13053	0.27415	0.438
Mof_Cl	Cl	0.27631	0.12765	0.31125	-0.378
Mof_N 	N 	0.3668	0.24095	0.24669	-0.089
Mof_N 	N 	0.3546	0.21282	0.27103	-0.063
Mof_N 	N 	0.3368	0.24024	0.29414	-0.07
Mof_N 	N 	0.3364	0.28656	0.286	-0.082
Mof_N 	N 	0.1978	0.39807	0.18511	-0.103
Mof_N 	N 	0.1664	0.41541	0.1603	-0.061
Mof_N 	N 	0.2069	0.4199	0.13782	-0.062
Mof_N 	N 	0.2659	0.40624	0.14638	-0.083
Mof_C 	C 	0.3551	0.28606	0.25658	0.045
Mof_C 	C 	0.3646	0.33002	0.23686	0.182
Mof_C 	C 	0.3052	0.33753	0.21645	-0.294
Mof_H 	H 	0.2982	0.3084	0.2035	0.119
Mof_H 	H 	0.2668	0.3423	0.2295	0.123
Mof_C 	C 	0.3154	0.38253	0.19592	0.176
Mof_H 	H 	0.3687	0.3463	0.1626	0.125
Mof_H 	H 	0.4129	0.3701	0.2704	0.127
Mof_C 	C 	0.4236	0.32227	0.2164	-0.292
Mof_H 	H 	0.4618	0.3166	0.2294	0.116
Mof_H 	H 	0.4171	0.2933	0.2033	0.121
Mof_C 	C 	0.259	0.39353	0.17598	0.05
Mof_O 	O 	0.4006	0.0517	0.2711	-0.642
Mof_N 	N 	0.3793	0.9791	0.2489	-0.019
Mof_C 	C 	0.3625	0.0208	0.2609	-0.086
Mof_H 	H 	0.318	0.0281	0.2619	-0.002
Mof_C 	C 	0.4466	0.9657	0.2461	-0.384
Mof_H 	H 	0.4724	0.9861	0.2598	0.174
Mof_H 	H 	0.452	0.9315	0.2518	0.189
Mof_H 	H 	0.4608	0.9705	0.2249	0.166
Mof_C 	C 	0.3341	0.9448	0.2347	-0.339
Mof_H 	H 	0.3513	0.9336	0.215	0.145
Mof_H 	H 	0.3279	0.9168	0.2483	0.142
Mof_H 	H 	0.2929	0.961	0.2313	0.12
Mof_O 	O 	0.2966	0.122	0.2327	-1.765
Mof_C 	C 	0.3028	0.1483	0.2104	0.383
Mof_H 	H 	0.3317	0.1738	0.2154	-0.057
Mof_N 	N 	0.2566	0.1592	0.191	-0.033
Mof_C 	C 	0.2611	0.2039	0.1727	-0.114
Mof_H 	H 	0.3008	0.2211	0.1778	0.024
Mof_H 	H 	0.2612	0.1956	0.1508	0.071
Mof_H 	H 	0.2243	0.2249	0.1772	0.059
Mof_C 	C 	0.2014	0.1263	0.1882	0.17
Mof_H 	H 	0.2067	0.0988	0.2022	-0.052
Mof_H 	H 	0.162	0.1439	0.1933	-0.016
Mof_H 	H 	0.1987	0.1142	0.167	0.079
Mof_H 	H 	0.195	0.1313	0.1773	-0.085
Mof_Cl	Cl	0.3827	0.0413	0.2749	0.497
Mof_Cl	Cl	0.3064	0.1051	0.2266	1.646
Mof_N 	N 	0.286	0.1534	0.1849	-0.176
Mof_C 	C 	0.3092	0.1882	0.1616	-0.086
Mof_C 	C 	0.2365	0.1279	0.1671	-0.199
Mof_H 	H 	0.3028	0.2215	0.169	0.053
Mof_H 	H 	0.2852	0.1836	0.1425	0.004
Mof_H 	H 	0.3548	0.1827	0.1578	0.041
Mof_H 	H 	0.234	0.142	0.1464	0.071
Mof_H 	H 	0.2476	0.0934	0.1655	0.035
Mof_Cd	Cd	0.81608	0.70694	0.34135	0.428
Mof_Cd	Cd	0.87274	0.63053	0.27415	0.438
Mof_Cl	Cl	0.77631	0.62765	0.31125	-0.378
Mof_N 	N 	0.8668	0.74095	0.24669	-0.089
Mof_N 	N 	0.8546	0.71282	0.27103	-0.063
Mof_N 	N 	0.8368	0.74024	0.29414	-0.07
Mof_N 	N 	0.8364	0.78656	0.286	-0.082
Mof_N 	N 	0.6978	0.89807	0.18511	-0.103
Mof_N 	N 	0.6664	0.91541	0.1603	-0.062
Mof_N 	N 	0.7069	0.9199	0.13782	-0.062
Mof_N 	N 	0.7659	0.90624	0.14638	-0.083
Mof_C 	C 	0.8551	0.78606	0.25658	0.045
Mof_C 	C 	0.8646	0.83002	0.23686	0.182
Mof_C 	C 	0.8052	0.83753	0.21645	-0.294
Mof_H 	H 	0.7982	0.8084	0.2035	0.119
Mof_H 	H 	0.7668	0.8423	0.2295	0.123
Mof_C 	C 	0.8154	0.88253	0.19592	0.176
Mof_H 	H 	0.8687	0.8463	0.1626	0.125
Mof_H 	H 	0.9129	0.8701	0.2704	0.127
Mof_C 	C 	0.9236	0.82227	0.2164	-0.292
Mof_H 	H 	0.9618	0.8166	0.2294	0.116
Mof_H 	H 	0.9171	0.7933	0.2033	0.121
Mof_C 	C 	0.759	0.89353	0.17598	0.05
Mof_O 	O 	0.9006	0.5517	0.2711	-0.642
Mof_N 	N 	0.8793	0.4791	0.2489	-0.019
Mof_C 	C 	0.8625	0.5208	0.2609	-0.086
Mof_H 	H 	0.818	0.5281	0.2619	-0.002
Mof_C 	C 	0.9466	0.4657	0.2461	-0.384
Mof_H 	H 	0.9724	0.4861	0.2598	0.174
Mof_H 	H 	0.952	0.4315	0.2518	0.189
Mof_H 	H 	0.9608	0.4705	0.2249	0.166
Mof_C 	C 	0.8341	0.4448	0.2347	-0.338
Mof_H 	H 	0.8513	0.4336	0.215	0.145
Mof_H 	H 	0.8279	0.4168	0.2483	0.142
Mof_H 	H 	0.7929	0.461	0.2313	0.12
Mof_O 	O 	0.7966	0.622	0.2327	-1.765
Mof_C 	C 	0.8028	0.6483	0.2104	0.383
Mof_H 	H 	0.8317	0.6738	0.2154	-0.057
Mof_N 	N 	0.7566	0.6592	0.191	-0.033
Mof_C 	C 	0.7611	0.7039	0.1727	-0.114
Mof_H 	H 	0.8008	0.7211	0.1778	0.024
Mof_H 	H 	0.7612	0.6956	0.1508	0.071
Mof_H 	H 	0.7243	0.7249	0.1772	0.059
Mof_C 	C 	0.7014	0.6263	0.1882	0.17
Mof_H 	H 	0.7067	0.5988	0.2022	-0.052
Mof_H 	H 	0.662	0.6439	0.1933	-0.016
Mof_H 	H 	0.6987	0.6142	0.167	0.079
Mof_H 	H 	0.695	0.6313	0.1773	-0.085
Mof_Cl	Cl	0.8827	0.5413	0.2749	0.497
Mof_Cl	Cl	0.8064	0.6051	0.2266	1.646
Mof_N 	N 	0.786	0.6534	0.1849	-0.176
Mof_C 	C 	0.8092	0.6882	0.1616	-0.086
Mof_C 	C 	0.7365	0.6279	0.1671	-0.199
Mof_H 	H 	0.8028	0.7215	0.169	0.053
Mof_H 	H 	0.7852	0.6836	0.1425	0.004
Mof_H 	H 	0.8548	0.6827	0.1578	0.041
Mof_H 	H 	0.734	0.642	0.1464	0.071
Mof_H 	H 	0.7476	0.5934	0.1655	0.035
Mof_Cd	Cd	0.81608	0.20694	0.84135	0.428
Mof_Cd	Cd	0.87274	0.13053	0.77415	0.438
Mof_Cl	Cl	0.77631	0.12765	0.81125	-0.378
Mof_N 	N 	0.8668	0.24095	0.74669	-0.089
Mof_N 	N 	0.8546	0.21282	0.77103	-0.063
Mof_N 	N 	0.8368	0.24024	0.79414	-0.07
Mof_N 	N 	0.8364	0.28656	0.786	-0.082
Mof_N 	N 	0.6978	0.39807	0.68511	-0.103
Mof_N 	N 	0.6664	0.41541	0.6603	-0.061
Mof_N 	N 	0.7069	0.4199	0.63782	-0.062
Mof_N 	N 	0.7659	0.40624	0.64638	-0.083
Mof_C 	C 	0.8551	0.28606	0.75658	0.045
Mof_C 	C 	0.8646	0.33002	0.73686	0.182
Mof_C 	C 	0.8052	0.33753	0.71645	-0.294
Mof_H 	H 	0.7982	0.3084	0.7035	0.119
Mof_H 	H 	0.7668	0.3423	0.7295	0.123
Mof_C 	C 	0.8154	0.38253	0.69592	0.176
Mof_H 	H 	0.8687	0.3463	0.6626	0.125
Mof_H 	H 	0.9129	0.3701	0.7704	0.127
Mof_C 	C 	0.9236	0.32227	0.7164	-0.292
Mof_H 	H 	0.9618	0.3166	0.7294	0.116
Mof_H 	H 	0.9171	0.2933	0.7033	0.121
Mof_C 	C 	0.759	0.39353	0.67598	0.05
Mof_O 	O 	0.9006	0.0517	0.7711	-0.642
Mof_N 	N 	0.8793	0.9791	0.7489	-0.019
Mof_C 	C 	0.8625	0.0208	0.7609	-0.086
Mof_H 	H 	0.818	0.0281	0.7619	-0.002
Mof_C 	C 	0.9466	0.9657	0.7461	-0.384
Mof_H 	H 	0.9724	0.9861	0.7598	0.174
Mof_H 	H 	0.952	0.9315	0.7518	0.189
Mof_H 	H 	0.9608	0.9705	0.7249	0.165
Mof_C 	C 	0.8341	0.9448	0.7347	-0.338
Mof_H 	H 	0.8513	0.9336	0.715	0.145
Mof_H 	H 	0.8279	0.9168	0.7483	0.142
Mof_H 	H 	0.7929	0.961	0.7313	0.12
Mof_O 	O 	0.7966	0.122	0.7327	-1.765
Mof_C 	C 	0.8028	0.1483	0.7104	0.383
Mof_H 	H 	0.8317	0.1738	0.7154	-0.057
Mof_N 	N 	0.7566	0.1592	0.691	-0.033
Mof_C 	C 	0.7611	0.2039	0.6727	-0.114
Mof_H 	H 	0.8008	0.2211	0.6778	0.024
Mof_H 	H 	0.7612	0.1956	0.6508	0.071
Mof_H 	H 	0.7243	0.2249	0.6772	0.059
Mof_C 	C 	0.7014	0.1263	0.6882	0.17
Mof_H 	H 	0.7067	0.0988	0.7022	-0.052
Mof_H 	H 	0.662	0.1439	0.6933	-0.016
Mof_H 	H 	0.6987	0.1142	0.667	0.079
Mof_H 	H 	0.695	0.1313	0.6773	-0.085
Mof_Cl	Cl	0.8827	0.0413	0.7749	0.497
Mof_Cl	Cl	0.8064	0.1051	0.7266	1.645
Mof_N 	N 	0.786	0.1534	0.6849	-0.176
Mof_C 	C 	0.8092	0.1882	0.6616	-0.086
Mof_C 	C 	0.7365	0.1279	0.6671	-0.199
Mof_H 	H 	0.8028	0.2215	0.669	0.053
Mof_H 	H 	0.7852	0.1836	0.6425	0.004
Mof_H 	H 	0.8548	0.1827	0.6578	0.041
Mof_H 	H 	0.734	0.142	0.6464	0.071
Mof_H 	H 	0.7476	0.0934	0.6655	0.035
Mof_Cd	Cd	0.93392	0.54306	0.84135	0.428
Mof_Cd	Cd	0.87726	0.61947	0.77415	0.438
Mof_Cl	Cl	0.97369	0.62235	0.81125	-0.378
Mof_N 	N 	0.8832	0.50905	0.74669	-0.089
Mof_N 	N 	0.8954	0.53718	0.77103	-0.063
Mof_N 	N 	0.9132	0.50976	0.79414	-0.07
Mof_N 	N 	0.9136	0.46344	0.786	-0.082
Mof_N 	N 	0.0522	0.35193	0.68511	-0.103
Mof_N 	N 	0.0836	0.33459	0.6603	-0.062
Mof_N 	N 	0.0431	0.3301	0.63782	-0.062
Mof_N 	N 	0.9841	0.34376	0.64638	-0.083
Mof_C 	C 	0.8949	0.46394	0.75658	0.045
Mof_C 	C 	0.8854	0.41998	0.73686	0.182
Mof_C 	C 	0.9448	0.41247	0.71645	-0.294
Mof_H 	H 	0.9518	0.4416	0.7035	0.119
Mof_H 	H 	0.9832	0.4077	0.7295	0.123
Mof_C 	C 	0.9346	0.36747	0.69592	0.176
Mof_H 	H 	0.8813	0.4037	0.6626	0.125
Mof_H 	H 	0.8371	0.3799	0.7704	0.127
Mof_C 	C 	0.8264	0.42773	0.7164	-0.292
Mof_H 	H 	0.7882	0.4334	0.7294	0.116
Mof_H 	H 	0.8329	0.4567	0.7033	0.121
Mof_C 	C 	0.991	0.35647	0.67598	0.05
Mof_O 	O 	0.8494	0.6983	0.7711	-0.642
Mof_N 	N 	0.8707	0.7709	0.7489	-0.019
Mof_C 	C 	0.8875	0.7292	0.7609	-0.086
Mof_H 	H 	0.932	0.7219	0.7619	-0.002
Mof_C 	C 	0.8034	0.7843	0.7461	-0.384
Mof_H 	H 	0.7776	0.7639	0.7598	0.174
Mof_H 	H 	0.798	0.8185	0.7518	0.189
Mof_H 	H 	0.7892	0.7795	0.7249	0.166
Mof_C 	C 	0.9159	0.8052	0.7347	-0.338
Mof_H 	H 	0.8987	0.8164	0.715	0.145
Mof_H 	H 	0.9221	0.8332	0.7483	0.142
Mof_H 	H 	0.9571	0.789	0.7313	0.12
Mof_O 	O 	0.9534	0.628	0.7327	-1.765
Mof_C 	C 	0.9472	0.6017	0.7104	0.383
Mof_H 	H 	0.9183	0.5762	0.7154	-0.057
Mof_N 	N 	0.9934	0.5908	0.691	-0.033
Mof_C 	C 	0.9889	0.5461	0.6727	-0.114
Mof_H 	H 	0.9492	0.5289	0.6778	0.024
Mof_H 	H 	0.9888	0.5544	0.6508	0.071
Mof_H 	H 	0.0257	0.5251	0.6772	0.059
Mof_C 	C 	0.0486	0.6237	0.6882	0.17
Mof_H 	H 	0.0433	0.6512	0.7022	-0.052
Mof_H 	H 	0.088	0.6061	0.6933	-0.016
Mof_H 	H 	0.0513	0.6358	0.667	0.079
Mof_H 	H 	0.055	0.6187	0.6773	-0.085
Mof_Cl	Cl	0.8673	0.7087	0.7749	0.497
Mof_Cl	Cl	0.9436	0.6449	0.7266	1.646
Mof_N 	N 	0.964	0.5966	0.6849	-0.176
Mof_C 	C 	0.9408	0.5618	0.6616	-0.086
Mof_C 	C 	0.0135	0.6221	0.6671	-0.199
Mof_H 	H 	0.9472	0.5285	0.669	0.053
Mof_H 	H 	0.9648	0.5664	0.6425	0.004
Mof_H 	H 	0.8952	0.5673	0.6578	0.041
Mof_H 	H 	0.016	0.608	0.6464	0.071
Mof_H 	H 	0.0024	0.6566	0.6655	0.035
Mof_Cd	Cd	0.93392	0.04306	0.34135	0.428
Mof_Cd	Cd	0.87726	0.11947	0.27415	0.438
Mof_Cl	Cl	0.97369	0.12235	0.31125	-0.378
Mof_N 	N 	0.8832	0.00905	0.24669	-0.088
Mof_N 	N 	0.8954	0.03718	0.27103	-0.063
Mof_N 	N 	0.9132	0.00976	0.29414	-0.07
Mof_N 	N 	0.9136	0.96344	0.286	-0.082
Mof_N 	N 	0.0522	0.85193	0.18511	-0.103
Mof_N 	N 	0.0836	0.83459	0.1603	-0.061
Mof_N 	N 	0.0431	0.8301	0.13782	-0.062
Mof_N 	N 	0.9841	0.84376	0.14638	-0.083
Mof_C 	C 	0.8949	0.96394	0.25658	0.045
Mof_C 	C 	0.8854	0.91998	0.23686	0.182
Mof_C 	C 	0.9448	0.91247	0.21645	-0.294
Mof_H 	H 	0.9518	0.9416	0.2035	0.119
Mof_H 	H 	0.9832	0.9077	0.2295	0.122
Mof_C 	C 	0.9346	0.86747	0.19592	0.176
Mof_H 	H 	0.8813	0.9037	0.1626	0.125
Mof_H 	H 	0.8371	0.8799	0.2704	0.127
Mof_C 	C 	0.8264	0.92773	0.2164	-0.292
Mof_H 	H 	0.7882	0.9334	0.2294	0.116
Mof_H 	H 	0.8329	0.9567	0.2033	0.121
Mof_C 	C 	0.991	0.85647	0.17598	0.05
Mof_O 	O 	0.8494	0.1983	0.2711	-0.642
Mof_N 	N 	0.8707	0.2709	0.2489	-0.019
Mof_C 	C 	0.8875	0.2292	0.2609	-0.086
Mof_H 	H 	0.932	0.2219	0.2619	-0.002
Mof_C 	C 	0.8034	0.2843	0.2461	-0.384
Mof_H 	H 	0.7776	0.2639	0.2598	0.174
Mof_H 	H 	0.798	0.3185	0.2518	0.189
Mof_H 	H 	0.7892	0.2795	0.2249	0.166
Mof_C 	C 	0.9159	0.3052	0.2347	-0.338
Mof_H 	H 	0.8987	0.3164	0.215	0.145
Mof_H 	H 	0.9221	0.3332	0.2483	0.142
Mof_H 	H 	0.9571	0.289	0.2313	0.12
Mof_O 	O 	0.9534	0.128	0.2327	-1.765
Mof_C 	C 	0.9472	0.1017	0.2104	0.383
Mof_H 	H 	0.9183	0.0762	0.2154	-0.057
Mof_N 	N 	0.9934	0.0908	0.191	-0.033
Mof_C 	C 	0.9889	0.0461	0.1727	-0.113
Mof_H 	H 	0.9492	0.0289	0.1778	0.024
Mof_H 	H 	0.9888	0.0544	0.1508	0.071
Mof_H 	H 	0.0257	0.0251	0.1772	0.058
Mof_C 	C 	0.0486	0.1237	0.1882	0.17
Mof_H 	H 	0.0433	0.1512	0.2022	-0.052
Mof_H 	H 	0.088	0.1061	0.1933	-0.016
Mof_H 	H 	0.0513	0.1358	0.167	0.079
Mof_H 	H 	0.055	0.1187	0.1773	-0.085
Mof_Cl	Cl	0.8673	0.2087	0.2749	0.497
Mof_Cl	Cl	0.9436	0.1449	0.2266	1.646
Mof_N 	N 	0.964	0.0966	0.1849	-0.176
Mof_C 	C 	0.9408	0.0618	0.1616	-0.086
Mof_C 	C 	0.0135	0.1221	0.1671	-0.199
Mof_H 	H 	0.9472	0.0285	0.169	0.052
Mof_H 	H 	0.9648	0.0664	0.1425	0.004
Mof_H 	H 	0.8952	0.0673	0.1578	0.042
Mof_H 	H 	0.016	0.108	0.1464	0.071
Mof_H 	H 	0.0024	0.1566	0.1655	0.035
Mof_Cd	Cd	0.43392	0.54306	0.34135	0.428
Mof_Cd	Cd	0.37726	0.61947	0.27415	0.438
Mof_Cl	Cl	0.47369	0.62235	0.31125	-0.378
Mof_N 	N 	0.3832	0.50905	0.24669	-0.089
Mof_N 	N 	0.3954	0.53718	0.27103	-0.063
Mof_N 	N 	0.4132	0.50976	0.29414	-0.07
Mof_N 	N 	0.4136	0.46344	0.286	-0.082
Mof_N 	N 	0.5522	0.35193	0.18511	-0.103
Mof_N 	N 	0.5836	0.33459	0.1603	-0.061
Mof_N 	N 	0.5431	0.3301	0.13782	-0.062
Mof_N 	N 	0.4841	0.34376	0.14638	-0.083
Mof_C 	C 	0.3949	0.46394	0.25658	0.045
Mof_C 	C 	0.3854	0.41998	0.23686	0.182
Mof_C 	C 	0.4448	0.41247	0.21645	-0.294
Mof_H 	H 	0.4518	0.4416	0.2035	0.119
Mof_H 	H 	0.4832	0.4077	0.2295	0.123
Mof_C 	C 	0.4346	0.36747	0.19592	0.176
Mof_H 	H 	0.3813	0.4037	0.1626	0.125
Mof_H 	H 	0.3371	0.3799	0.2704	0.127
Mof_C 	C 	0.3264	0.42773	0.2164	-0.292
Mof_H 	H 	0.2882	0.4334	0.2294	0.116
Mof_H 	H 	0.3329	0.4567	0.2033	0.121
Mof_C 	C 	0.491	0.35647	0.17598	0.05
Mof_O 	O 	0.3494	0.6983	0.2711	-0.642
Mof_N 	N 	0.3707	0.7709	0.2489	-0.019
Mof_C 	C 	0.3875	0.7292	0.2609	-0.086
Mof_H 	H 	0.432	0.7219	0.2619	-0.002
Mof_C 	C 	0.3034	0.7843	0.2461	-0.384
Mof_H 	H 	0.2776	0.7639	0.2598	0.174
Mof_H 	H 	0.298	0.8185	0.2518	0.189
Mof_H 	H 	0.2892	0.7795	0.2249	0.166
Mof_C 	C 	0.4159	0.8052	0.2347	-0.338
Mof_H 	H 	0.3987	0.8164	0.215	0.145
Mof_H 	H 	0.4221	0.8332	0.2483	0.142
Mof_H 	H 	0.4571	0.789	0.2313	0.12
Mof_O 	O 	0.4534	0.628	0.2327	-1.765
Mof_C 	C 	0.4472	0.6017	0.2104	0.383
Mof_H 	H 	0.4183	0.5762	0.2154	-0.057
Mof_N 	N 	0.4934	0.5908	0.191	-0.033
Mof_C 	C 	0.4889	0.5461	0.1727	-0.114
Mof_H 	H 	0.4492	0.5289	0.1778	0.024
Mof_H 	H 	0.4888	0.5544	0.1508	0.071
Mof_H 	H 	0.5257	0.5251	0.1772	0.059
Mof_C 	C 	0.5486	0.6237	0.1882	0.17
Mof_H 	H 	0.5433	0.6512	0.2022	-0.052
Mof_H 	H 	0.588	0.6061	0.1933	-0.016
Mof_H 	H 	0.5513	0.6358	0.167	0.079
Mof_H 	H 	0.555	0.6187	0.1773	-0.085
Mof_Cl	Cl	0.3673	0.7087	0.2749	0.497
Mof_Cl	Cl	0.4436	0.6449	0.2266	1.646
Mof_N 	N 	0.464	0.5966	0.1849	-0.176
Mof_C 	C 	0.4408	0.5618	0.1616	-0.086
Mof_C 	C 	0.5135	0.6221	0.1671	-0.199
Mof_H 	H 	0.4472	0.5285	0.169	0.053
Mof_H 	H 	0.4648	0.5664	0.1425	0.004
Mof_H 	H 	0.3952	0.5673	0.1578	0.041
Mof_H 	H 	0.516	0.608	0.1464	0.071
Mof_H 	H 	0.5024	0.6566	0.1655	0.035
Mof_Cd	Cd	0.43392	0.04306	0.84135	0.428
Mof_Cd	Cd	0.37726	0.11947	0.77415	0.438
Mof_Cl	Cl	0.47369	0.12235	0.81125	-0.378
Mof_N 	N 	0.3832	0.00905	0.74669	-0.089
Mof_N 	N 	0.3954	0.03718	0.77103	-0.063
Mof_N 	N 	0.4132	0.00976	0.79414	-0.07
Mof_N 	N 	0.4136	0.96344	0.786	-0.082
Mof_N 	N 	0.5522	0.85193	0.68511	-0.103
Mof_N 	N 	0.5836	0.83459	0.6603	-0.061
Mof_N 	N 	0.5431	0.8301	0.63782	-0.062
Mof_N 	N 	0.4841	0.84376	0.64638	-0.083
Mof_C 	C 	0.3949	0.96394	0.75658	0.045
Mof_C 	C 	0.3854	0.91998	0.73686	0.182
Mof_C 	C 	0.4448	0.91247	0.71645	-0.294
Mof_H 	H 	0.4518	0.9416	0.7035	0.119
Mof_H 	H 	0.4832	0.9077	0.7295	0.123
Mof_C 	C 	0.4346	0.86747	0.69592	0.176
Mof_H 	H 	0.3813	0.9037	0.6626	0.125
Mof_H 	H 	0.3371	0.8799	0.7704	0.127
Mof_C 	C 	0.3264	0.92773	0.7164	-0.292
Mof_H 	H 	0.2882	0.9334	0.7294	0.116
Mof_H 	H 	0.3329	0.9567	0.7033	0.121
Mof_C 	C 	0.491	0.85647	0.67598	0.05
Mof_O 	O 	0.3494	0.1983	0.7711	-0.642
Mof_N 	N 	0.3707	0.2709	0.7489	-0.019
Mof_C 	C 	0.3875	0.2292	0.7609	-0.086
Mof_H 	H 	0.432	0.2219	0.7619	-0.002
Mof_C 	C 	0.3034	0.2843	0.7461	-0.384
Mof_H 	H 	0.2776	0.2639	0.7598	0.174
Mof_H 	H 	0.298	0.3185	0.7518	0.189
Mof_H 	H 	0.2892	0.2795	0.7249	0.166
Mof_C 	C 	0.4159	0.3052	0.7347	-0.338
Mof_H 	H 	0.3987	0.3164	0.715	0.145
Mof_H 	H 	0.4221	0.3332	0.7483	0.142
Mof_H 	H 	0.4571	0.289	0.7313	0.12
Mof_O 	O 	0.4534	0.128	0.7327	-1.765
Mof_C 	C 	0.4472	0.1017	0.7104	0.383
Mof_H 	H 	0.4183	0.0762	0.7154	-0.057
Mof_N 	N 	0.4934	0.0908	0.691	-0.033
Mof_C 	C 	0.4889	0.0461	0.6727	-0.114
Mof_H 	H 	0.4492	0.0289	0.6778	0.024
Mof_H 	H 	0.4888	0.0544	0.6508	0.071
Mof_H 	H 	0.5257	0.0251	0.6772	0.059
Mof_C 	C 	0.5486	0.1237	0.6882	0.17
Mof_H 	H 	0.5433	0.1512	0.7022	-0.052
Mof_H 	H 	0.588	0.1061	0.6933	-0.016
Mof_H 	H 	0.5513	0.1358	0.667	0.079
Mof_H 	H 	0.555	0.1187	0.6773	-0.085
Mof_Cl	Cl	0.3673	0.2087	0.7749	0.497
Mof_Cl	Cl	0.4436	0.1449	0.7266	1.646
Mof_N 	N 	0.464	0.0966	0.6849	-0.176
Mof_C 	C 	0.4408	0.0618	0.6616	-0.086
Mof_C 	C 	0.5135	0.1221	0.6671	-0.199
Mof_H 	H 	0.4472	0.0285	0.669	0.053
Mof_H 	H 	0.4648	0.0664	0.6425	0.004
Mof_H 	H 	0.3952	0.0673	0.6578	0.041
Mof_H 	H 	0.516	0.108	0.6464	0.071
Mof_H 	H 	0.5024	0.1566	0.6655	0.035
Mof_Cd	Cd	0.93392	0.70694	0.40865	0.428
Mof_Cd	Cd	0.87726	0.63053	0.47585	0.438
Mof_Cl	Cl	0.97369	0.62765	0.43875	-0.378
Mof_N 	N 	0.8832	0.74095	0.50331	-0.089
Mof_N 	N 	0.8954	0.71282	0.47897	-0.063
Mof_N 	N 	0.9132	0.74024	0.45586	-0.07
Mof_N 	N 	0.9136	0.78656	0.464	-0.082
Mof_N 	N 	0.0522	0.89807	0.56489	-0.103
Mof_N 	N 	0.0836	0.91541	0.5897	-0.061
Mof_N 	N 	0.0431	0.9199	0.61218	-0.062
Mof_N 	N 	0.9841	0.90624	0.60362	-0.083
Mof_C 	C 	0.8949	0.78606	0.49342	0.045
Mof_C 	C 	0.8854	0.83002	0.51314	0.182
Mof_C 	C 	0.9448	0.83753	0.53355	-0.294
Mof_H 	H 	0.9518	0.8084	0.5465	0.119
Mof_H 	H 	0.9832	0.8423	0.5205	0.122
Mof_C 	C 	0.9346	0.88253	0.55408	0.176
Mof_H 	H 	0.8813	0.8463	0.5874	0.125
Mof_H 	H 	0.8371	0.8701	0.4796	0.127
Mof_C 	C 	0.8264	0.82227	0.5336	-0.292
Mof_H 	H 	0.7882	0.8166	0.5206	0.116
Mof_H 	H 	0.8329	0.7933	0.5467	0.121
Mof_C 	C 	0.991	0.89353	0.57402	0.05
Mof_O 	O 	0.8494	0.5517	0.4789	-0.642
Mof_N 	N 	0.8707	0.4791	0.5011	-0.019
Mof_C 	C 	0.8875	0.5208	0.4891	-0.086
Mof_H 	H 	0.932	0.5281	0.4881	-0.002
Mof_C 	C 	0.8034	0.4657	0.5039	-0.384
Mof_H 	H 	0.7776	0.4861	0.4902	0.174
Mof_H 	H 	0.798	0.4315	0.4982	0.189
Mof_H 	H 	0.7892	0.4705	0.5251	0.166
Mof_C 	C 	0.9159	0.4448	0.5153	-0.338
Mof_H 	H 	0.8987	0.4336	0.535	0.145
Mof_H 	H 	0.9221	0.4168	0.5017	0.142
Mof_H 	H 	0.9571	0.461	0.5187	0.12
Mof_O 	O 	0.9534	0.622	0.5173	-1.765
Mof_C 	C 	0.9472	0.6483	0.5396	0.383
Mof_H 	H 	0.9183	0.6738	0.5346	-0.057
Mof_N 	N 	0.9934	0.6592	0.559	-0.033
Mof_C 	C 	0.9889	0.7039	0.5773	-0.115
Mof_H 	H 	0.9492	0.7211	0.5722	0.024
Mof_H 	H 	0.9888	0.6956	0.5992	0.071
Mof_H 	H 	0.0257	0.7249	0.5728	0.059
Mof_C 	C 	0.0486	0.6263	0.5618	0.17
Mof_H 	H 	0.0433	0.5988	0.5478	-0.052
Mof_H 	H 	0.088	0.6439	0.5567	-0.016
Mof_H 	H 	0.0513	0.6142	0.583	0.079
Mof_H 	H 	0.055	0.6313	0.5727	-0.085
Mof_Cl	Cl	0.8673	0.5413	0.4751	0.497
Mof_Cl	Cl	0.9436	0.6051	0.5234	1.646
Mof_N 	N 	0.964	0.6534	0.5651	-0.176
Mof_C 	C 	0.9408	0.6882	0.5884	-0.086
Mof_C 	C 	0.0135	0.6279	0.5829	-0.199
Mof_H 	H 	0.9472	0.7215	0.581	0.053
Mof_H 	H 	0.9648	0.6836	0.6075	0.004
Mof_H 	H 	0.8952	0.6827	0.5922	0.041
Mof_H 	H 	0.016	0.642	0.6036	0.071
Mof_H 	H 	0.0024	0.5934	0.5845	0.035
Mof_Cd	Cd	0.93392	0.20694	0.90865	0.428
Mof_Cd	Cd	0.87726	0.13053	0.97585	0.438
Mof_Cl	Cl	0.97369	0.12765	0.93875	-0.378
Mof_N 	N 	0.8832	0.24095	0.00331	-0.089
Mof_N 	N 	0.8954	0.21282	0.97897	-0.063
Mof_N 	N 	0.9132	0.24024	0.95586	-0.07
Mof_N 	N 	0.9136	0.28656	0.964	-0.082
Mof_N 	N 	0.0522	0.39807	0.06489	-0.103
Mof_N 	N 	0.0836	0.41541	0.0897	-0.062
Mof_N 	N 	0.0431	0.4199	0.11218	-0.062
Mof_N 	N 	0.9841	0.40624	0.10362	-0.083
Mof_C 	C 	0.8949	0.28606	0.99342	0.045
Mof_C 	C 	0.8854	0.33002	0.01314	0.182
Mof_C 	C 	0.9448	0.33753	0.03355	-0.294
Mof_H 	H 	0.9518	0.3084	0.0465	0.119
Mof_H 	H 	0.9832	0.3423	0.0205	0.123
Mof_C 	C 	0.9346	0.38253	0.05408	0.176
Mof_H 	H 	0.8813	0.3463	0.0874	0.125
Mof_H 	H 	0.8371	0.3701	0.9796	0.127
Mof_C 	C 	0.8264	0.32227	0.0336	-0.292
Mof_H 	H 	0.7882	0.3166	0.0206	0.116
Mof_H 	H 	0.8329	0.2933	0.0467	0.121
Mof_C 	C 	0.991	0.39353	0.07402	0.05
Mof_O 	O 	0.8494	0.0517	0.9789	-0.642
Mof_N 	N 	0.8707	0.9791	0.0011	-0.019
Mof_C 	C 	0.8875	0.0208	0.9891	-0.086
Mof_H 	H 	0.932	0.0281	0.9881	-0.002
Mof_C 	C 	0.8034	0.9657	0.0039	-0.384
Mof_H 	H 	0.7776	0.9861	0.9902	0.174
Mof_H 	H 	0.798	0.9315	0.9982	0.189
Mof_H 	H 	0.7892	0.9705	0.0251	0.166
Mof_C 	C 	0.9159	0.9448	0.0153	-0.338
Mof_H 	H 	0.8987	0.9336	0.035	0.145
Mof_H 	H 	0.9221	0.9168	0.0017	0.142
Mof_H 	H 	0.9571	0.961	0.0187	0.12
Mof_O 	O 	0.9534	0.122	0.0173	-1.765
Mof_C 	C 	0.9472	0.1483	0.0396	0.383
Mof_H 	H 	0.9183	0.1738	0.0346	-0.057
Mof_N 	N 	0.9934	0.1592	0.059	-0.033
Mof_C 	C 	0.9889	0.2039	0.0773	-0.114
Mof_H 	H 	0.9492	0.2211	0.0722	0.024
Mof_H 	H 	0.9888	0.1956	0.0992	0.071
Mof_H 	H 	0.0257	0.2249	0.0728	0.059
Mof_C 	C 	0.0486	0.1263	0.0618	0.17
Mof_H 	H 	0.0433	0.0988	0.0478	-0.052
Mof_H 	H 	0.088	0.1439	0.0567	-0.016
Mof_H 	H 	0.0513	0.1142	0.083	0.079
Mof_H 	H 	0.055	0.1313	0.0727	-0.085
Mof_Cl	Cl	0.8673	0.0413	0.9751	0.497
Mof_Cl	Cl	0.9436	0.1051	0.0234	1.645
Mof_N 	N 	0.964	0.1534	0.0651	-0.176
Mof_C 	C 	0.9408	0.1882	0.0884	-0.086
Mof_C 	C 	0.0135	0.1279	0.0829	-0.199
Mof_H 	H 	0.9472	0.2215	0.081	0.052
Mof_H 	H 	0.9648	0.1836	0.1075	0.004
Mof_H 	H 	0.8952	0.1827	0.0922	0.041
Mof_H 	H 	0.016	0.142	0.1036	0.071
Mof_H 	H 	0.0024	0.0934	0.0845	0.035
Mof_Cd	Cd	0.43392	0.70694	0.90865	0.428
Mof_Cd	Cd	0.37726	0.63053	0.97585	0.438
Mof_Cl	Cl	0.47369	0.62765	0.93875	-0.378
Mof_N 	N 	0.3832	0.74095	0.00331	-0.089
Mof_N 	N 	0.3954	0.71282	0.97897	-0.063
Mof_N 	N 	0.4132	0.74024	0.95586	-0.07
Mof_N 	N 	0.4136	0.78656	0.964	-0.082
Mof_N 	N 	0.5522	0.89807	0.06489	-0.103
Mof_N 	N 	0.5836	0.91541	0.0897	-0.061
Mof_N 	N 	0.5431	0.9199	0.11218	-0.062
Mof_N 	N 	0.4841	0.90624	0.10362	-0.083
Mof_C 	C 	0.3949	0.78606	0.99342	0.045
Mof_C 	C 	0.3854	0.83002	0.01314	0.182
Mof_C 	C 	0.4448	0.83753	0.03355	-0.294
Mof_H 	H 	0.4518	0.8084	0.0465	0.119
Mof_H 	H 	0.4832	0.8423	0.0205	0.123
Mof_C 	C 	0.4346	0.88253	0.05408	0.176
Mof_H 	H 	0.3813	0.8463	0.0874	0.125
Mof_H 	H 	0.3371	0.8701	0.9796	0.127
Mof_C 	C 	0.3264	0.82227	0.0336	-0.292
Mof_H 	H 	0.2882	0.8166	0.0206	0.116
Mof_H 	H 	0.3329	0.7933	0.0467	0.121
Mof_C 	C 	0.491	0.89353	0.07402	0.05
Mof_O 	O 	0.3494	0.5517	0.9789	-0.642
Mof_N 	N 	0.3707	0.4791	0.0011	-0.019
Mof_C 	C 	0.3875	0.5208	0.9891	-0.086
Mof_H 	H 	0.432	0.5281	0.9881	-0.002
Mof_C 	C 	0.3034	0.4657	0.0039	-0.384
Mof_H 	H 	0.2776	0.4861	0.9902	0.174
Mof_H 	H 	0.298	0.4315	0.9982	0.189
Mof_H 	H 	0.2892	0.4705	0.0251	0.166
Mof_C 	C 	0.4159	0.4448	0.0153	-0.338
Mof_H 	H 	0.3987	0.4336	0.035	0.145
Mof_H 	H 	0.4221	0.4168	0.0017	0.142
Mof_H 	H 	0.4571	0.461	0.0187	0.12
Mof_O 	O 	0.4534	0.622	0.0173	-1.765
Mof_C 	C 	0.4472	0.6483	0.0396	0.383
Mof_H 	H 	0.4183	0.6738	0.0346	-0.057
Mof_N 	N 	0.4934	0.6592	0.059	-0.033
Mof_C 	C 	0.4889	0.7039	0.0773	-0.114
Mof_H 	H 	0.4492	0.7211	0.0722	0.024
Mof_H 	H 	0.4888	0.6956	0.0992	0.071
Mof_H 	H 	0.5257	0.7249	0.0728	0.059
Mof_C 	C 	0.5486	0.6263	0.0618	0.17
Mof_H 	H 	0.5433	0.5988	0.0478	-0.052
Mof_H 	H 	0.588	0.6439	0.0567	-0.016
Mof_H 	H 	0.5513	0.6142	0.083	0.079
Mof_H 	H 	0.555	0.6313	0.0727	-0.085
Mof_Cl	Cl	0.3673	0.5413	0.9751	0.497
Mof_Cl	Cl	0.4436	0.6051	0.0234	1.646
Mof_N 	N 	0.464	0.6534	0.0651	-0.176
Mof_C 	C 	0.4408	0.6882	0.0884	-0.086
Mof_C 	C 	0.5135	0.6279	0.0829	-0.199
Mof_H 	H 	0.4472	0.7215	0.081	0.053
Mof_H 	H 	0.4648	0.6836	0.1075	0.004
Mof_H 	H 	0.3952	0.6827	0.0922	0.041
Mof_H 	H 	0.516	0.642	0.1036	0.071
Mof_H 	H 	0.5024	0.5934	0.0845	0.035
Mof_Cd	Cd	0.43392	0.20694	0.40865	0.428
Mof_Cd	Cd	0.37726	0.13053	0.47585	0.438
Mof_Cl	Cl	0.47369	0.12765	0.43875	-0.378
Mof_N 	N 	0.3832	0.24095	0.50331	-0.089
Mof_N 	N 	0.3954	0.21282	0.47897	-0.063
Mof_N 	N 	0.4132	0.24024	0.45586	-0.07
Mof_N 	N 	0.4136	0.28656	0.464	-0.082
Mof_N 	N 	0.5522	0.39807	0.56489	-0.103
Mof_N 	N 	0.5836	0.41541	0.5897	-0.061
Mof_N 	N 	0.5431	0.4199	0.61218	-0.062
Mof_N 	N 	0.4841	0.40624	0.60362	-0.083
Mof_C 	C 	0.3949	0.28606	0.49342	0.045
Mof_C 	C 	0.3854	0.33002	0.51314	0.182
Mof_C 	C 	0.4448	0.33753	0.53355	-0.294
Mof_H 	H 	0.4518	0.3084	0.5465	0.119
Mof_H 	H 	0.4832	0.3423	0.5205	0.123
Mof_C 	C 	0.4346	0.38253	0.55408	0.176
Mof_H 	H 	0.3813	0.3463	0.5874	0.125
Mof_H 	H 	0.3371	0.3701	0.4796	0.127
Mof_C 	C 	0.3264	0.32227	0.5336	-0.292
Mof_H 	H 	0.2882	0.3166	0.5206	0.116
Mof_H 	H 	0.3329	0.2933	0.5467	0.121
Mof_C 	C 	0.491	0.39353	0.57402	0.05
Mof_O 	O 	0.3494	0.0517	0.4789	-0.642
Mof_N 	N 	0.3707	0.9791	0.5011	-0.019
Mof_C 	C 	0.3875	0.0208	0.4891	-0.086
Mof_H 	H 	0.432	0.0281	0.4881	-0.002
Mof_C 	C 	0.3034	0.9657	0.5039	-0.384
Mof_H 	H 	0.2776	0.9861	0.4902	0.174
Mof_H 	H 	0.298	0.9315	0.4982	0.189
Mof_H 	H 	0.2892	0.9705	0.5251	0.166
Mof_C 	C 	0.4159	0.9448	0.5153	-0.339
Mof_H 	H 	0.3987	0.9336	0.535	0.145
Mof_H 	H 	0.4221	0.9168	0.5017	0.142
Mof_H 	H 	0.4571	0.961	0.5187	0.12
Mof_O 	O 	0.4534	0.122	0.5173	-1.765
Mof_C 	C 	0.4472	0.1483	0.5396	0.383
Mof_H 	H 	0.4183	0.1738	0.5346	-0.057
Mof_N 	N 	0.4934	0.1592	0.559	-0.033
Mof_C 	C 	0.4889	0.2039	0.5773	-0.114
Mof_H 	H 	0.4492	0.2211	0.5722	0.024
Mof_H 	H 	0.4888	0.1956	0.5992	0.071
Mof_H 	H 	0.5257	0.2249	0.5728	0.059
Mof_C 	C 	0.5486	0.1263	0.5618	0.17
Mof_H 	H 	0.5433	0.0988	0.5478	-0.052
Mof_H 	H 	0.588	0.1439	0.5567	-0.016
Mof_H 	H 	0.5513	0.1142	0.583	0.079
Mof_H 	H 	0.555	0.1313	0.5727	-0.085
Mof_Cl	Cl	0.3673	0.0413	0.4751	0.497
Mof_Cl	Cl	0.4436	0.1051	0.5234	1.646
Mof_N 	N 	0.464	0.1534	0.5651	-0.176
Mof_C 	C 	0.4408	0.1882	0.5884	-0.086
Mof_C 	C 	0.5135	0.1279	0.5829	-0.199
Mof_H 	H 	0.4472	0.2215	0.581	0.053
Mof_H 	H 	0.4648	0.1836	0.6075	0.004
Mof_H 	H 	0.3952	0.1827	0.5922	0.041
Mof_H 	H 	0.516	0.142	0.6036	0.071
Mof_H 	H 	0.5024	0.0934	0.5845	0.035
Mof_Cd	Cd	0.31608	0.54306	0.40865	0.428
Mof_Cd	Cd	0.37274	0.61947	0.47585	0.438
Mof_Cl	Cl	0.27631	0.62235	0.43875	-0.378
Mof_N 	N 	0.3668	0.50905	0.50331	-0.089
Mof_N 	N 	0.3546	0.53718	0.47897	-0.063
Mof_N 	N 	0.3368	0.50976	0.45586	-0.07
Mof_N 	N 	0.3364	0.46344	0.464	-0.082
Mof_N 	N 	0.1978	0.35193	0.56489	-0.103
Mof_N 	N 	0.1664	0.33459	0.5897	-0.061
Mof_N 	N 	0.2069	0.3301	0.61218	-0.062
Mof_N 	N 	0.2659	0.34376	0.60362	-0.083
Mof_C 	C 	0.3551	0.46394	0.49342	0.045
Mof_C 	C 	0.3646	0.41998	0.51314	0.182
Mof_C 	C 	0.3052	0.41247	0.53355	-0.294
Mof_H 	H 	0.2982	0.4416	0.5465	0.119
Mof_H 	H 	0.2668	0.4077	0.5205	0.123
Mof_C 	C 	0.3154	0.36747	0.55408	0.176
Mof_H 	H 	0.3687	0.4037	0.5874	0.125
Mof_H 	H 	0.4129	0.3799	0.4796	0.127
Mof_C 	C 	0.4236	0.42773	0.5336	-0.292
Mof_H 	H 	0.4618	0.4334	0.5206	0.116
Mof_H 	H 	0.4171	0.4567	0.5467	0.121
Mof_C 	C 	0.259	0.35647	0.57402	0.05
Mof_O 	O 	0.4006	0.6983	0.4789	-0.642
Mof_N 	N 	0.3793	0.7709	0.5011	-0.019
Mof_C 	C 	0.3625	0.7292	0.4891	-0.086
Mof_H 	H 	0.318	0.7219	0.4881	-0.002
Mof_C 	C 	0.4466	0.7843	0.5039	-0.384
Mof_H 	H 	0.4724	0.7639	0.4902	0.174
Mof_H 	H 	0.452	0.8185	0.4982	0.189
Mof_H 	H 	0.4608	0.7795	0.5251	0.166
Mof_C 	C 	0.3341	0.8052	0.5153	-0.338
Mof_H 	H 	0.3513	0.8164	0.535	0.145
Mof_H 	H 	0.3279	0.8332	0.5017	0.142
Mof_H 	H 	0.2929	0.789	0.5187	0.12
Mof_O 	O 	0.2966	0.628	0.5173	-1.765
Mof_C 	C 	0.3028	0.6017	0.5396	0.383
Mof_H 	H 	0.3317	0.5762	0.5346	-0.057
Mof_N 	N 	0.2566	0.5908	0.559	-0.033
Mof_C 	C 	0.2611	0.5461	0.5773	-0.114
Mof_H 	H 	0.3008	0.5289	0.5722	0.024
Mof_H 	H 	0.2612	0.5544	0.5992	0.071
Mof_H 	H 	0.2243	0.5251	0.5728	0.059
Mof_C 	C 	0.2014	0.6237	0.5618	0.17
Mof_H 	H 	0.2067	0.6512	0.5478	-0.052
Mof_H 	H 	0.162	0.6061	0.5567	-0.016
Mof_H 	H 	0.1987	0.6358	0.583	0.079
Mof_H 	H 	0.195	0.6187	0.5727	-0.085
Mof_Cl	Cl	0.3827	0.7087	0.4751	0.497
Mof_Cl	Cl	0.3064	0.6449	0.5234	1.646
Mof_N 	N 	0.286	0.5966	0.5651	-0.176
Mof_C 	C 	0.3092	0.5618	0.5884	-0.086
Mof_C 	C 	0.2365	0.6221	0.5829	-0.199
Mof_H 	H 	0.3028	0.5285	0.581	0.053
Mof_H 	H 	0.2852	0.5664	0.6075	0.004
Mof_H 	H 	0.3548	0.5673	0.5922	0.041
Mof_H 	H 	0.234	0.608	0.6036	0.071
Mof_H 	H 	0.2476	0.6566	0.5845	0.035
Mof_Cd	Cd	0.31608	0.04306	0.90865	0.428
Mof_Cd	Cd	0.37274	0.11947	0.97585	0.438
Mof_Cl	Cl	0.27631	0.12235	0.93875	-0.378
Mof_N 	N 	0.3668	0.00905	0.00331	-0.089
Mof_N 	N 	0.3546	0.03718	0.97897	-0.063
Mof_N 	N 	0.3368	0.00976	0.95586	-0.07
Mof_N 	N 	0.3364	0.96344	0.964	-0.082
Mof_N 	N 	0.1978	0.85193	0.06489	-0.103
Mof_N 	N 	0.1664	0.83459	0.0897	-0.061
Mof_N 	N 	0.2069	0.8301	0.11218	-0.062
Mof_N 	N 	0.2659	0.84376	0.10362	-0.083
Mof_C 	C 	0.3551	0.96394	0.99342	0.045
Mof_C 	C 	0.3646	0.91998	0.01314	0.182
Mof_C 	C 	0.3052	0.91247	0.03355	-0.294
Mof_H 	H 	0.2982	0.9416	0.0465	0.119
Mof_H 	H 	0.2668	0.9077	0.0205	0.123
Mof_C 	C 	0.3154	0.86747	0.05408	0.176
Mof_H 	H 	0.3687	0.9037	0.0874	0.125
Mof_H 	H 	0.4129	0.8799	0.9796	0.127
Mof_C 	C 	0.4236	0.92773	0.0336	-0.292
Mof_H 	H 	0.4618	0.9334	0.0206	0.116
Mof_H 	H 	0.4171	0.9567	0.0467	0.121
Mof_C 	C 	0.259	0.85647	0.07402	0.05
Mof_O 	O 	0.4006	0.1983	0.9789	-0.642
Mof_N 	N 	0.3793	0.2709	0.0011	-0.019
Mof_C 	C 	0.3625	0.2292	0.9891	-0.086
Mof_H 	H 	0.318	0.2219	0.9881	-0.002
Mof_C 	C 	0.4466	0.2843	0.0039	-0.384
Mof_H 	H 	0.4724	0.2639	0.9902	0.174
Mof_H 	H 	0.452	0.3185	0.9982	0.189
Mof_H 	H 	0.4608	0.2795	0.0251	0.166
Mof_C 	C 	0.3341	0.3052	0.0153	-0.338
Mof_H 	H 	0.3513	0.3164	0.035	0.145
Mof_H 	H 	0.3279	0.3332	0.0017	0.142
Mof_H 	H 	0.2929	0.289	0.0187	0.12
Mof_O 	O 	0.2966	0.128	0.0173	-1.765
Mof_C 	C 	0.3028	0.1017	0.0396	0.383
Mof_H 	H 	0.3317	0.0762	0.0346	-0.057
Mof_N 	N 	0.2566	0.0908	0.059	-0.033
Mof_C 	C 	0.2611	0.0461	0.0773	-0.114
Mof_H 	H 	0.3008	0.0289	0.0722	0.024
Mof_H 	H 	0.2612	0.0544	0.0992	0.071
Mof_H 	H 	0.2243	0.0251	0.0728	0.059
Mof_C 	C 	0.2014	0.1237	0.0618	0.17
Mof_H 	H 	0.2067	0.1512	0.0478	-0.052
Mof_H 	H 	0.162	0.1061	0.0567	-0.016
Mof_H 	H 	0.1987	0.1358	0.083	0.079
Mof_H 	H 	0.195	0.1187	0.0727	-0.085
Mof_Cl	Cl	0.3827	0.2087	0.9751	0.497
Mof_Cl	Cl	0.3064	0.1449	0.0234	1.646
Mof_N 	N 	0.286	0.0966	0.0651	-0.176
Mof_C 	C 	0.3092	0.0618	0.0884	-0.086
Mof_C 	C 	0.2365	0.1221	0.0829	-0.199
Mof_H 	H 	0.3028	0.0285	0.081	0.053
Mof_H 	H 	0.2852	0.0664	0.1075	0.004
Mof_H 	H 	0.3548	0.0673	0.0922	0.041
Mof_H 	H 	0.234	0.108	0.1036	0.071
Mof_H 	H 	0.2476	0.1566	0.0845	0.035
Mof_Cd	Cd	0.81608	0.54306	0.90865	0.428
Mof_Cd	Cd	0.87274	0.61947	0.97585	0.438
Mof_Cl	Cl	0.77631	0.62235	0.93875	-0.378
Mof_N 	N 	0.8668	0.50905	0.00331	-0.089
Mof_N 	N 	0.8546	0.53718	0.97897	-0.063
Mof_N 	N 	0.8368	0.50976	0.95586	-0.07
Mof_N 	N 	0.8364	0.46344	0.964	-0.082
Mof_N 	N 	0.6978	0.35193	0.06489	-0.103
Mof_N 	N 	0.6664	0.33459	0.0897	-0.061
Mof_N 	N 	0.7069	0.3301	0.11218	-0.062
Mof_N 	N 	0.7659	0.34376	0.10362	-0.083
Mof_C 	C 	0.8551	0.46394	0.99342	0.045
Mof_C 	C 	0.8646	0.41998	0.01314	0.182
Mof_C 	C 	0.8052	0.41247	0.03355	-0.294
Mof_H 	H 	0.7982	0.4416	0.0465	0.119
Mof_H 	H 	0.7668	0.4077	0.0205	0.123
Mof_C 	C 	0.8154	0.36747	0.05408	0.176
Mof_H 	H 	0.8687	0.4037	0.0874	0.125
Mof_H 	H 	0.9129	0.3799	0.9796	0.127
Mof_C 	C 	0.9236	0.42773	0.0336	-0.292
Mof_H 	H 	0.9618	0.4334	0.0206	0.116
Mof_H 	H 	0.9171	0.4567	0.0467	0.121
Mof_C 	C 	0.759	0.35647	0.07402	0.05
Mof_O 	O 	0.9006	0.6983	0.9789	-0.642
Mof_N 	N 	0.8793	0.7709	0.0011	-0.019
Mof_C 	C 	0.8625	0.7292	0.9891	-0.086
Mof_H 	H 	0.818	0.7219	0.9881	-0.002
Mof_C 	C 	0.9466	0.7843	0.0039	-0.384
Mof_H 	H 	0.9724	0.7639	0.9902	0.174
Mof_H 	H 	0.952	0.8185	0.9982	0.189
Mof_H 	H 	0.9608	0.7795	0.0251	0.165
Mof_C 	C 	0.8341	0.8052	0.0153	-0.338
Mof_H 	H 	0.8513	0.8164	0.035	0.145
Mof_H 	H 	0.8279	0.8332	0.0017	0.142
Mof_H 	H 	0.7929	0.789	0.0187	0.12
Mof_O 	O 	0.7966	0.628	0.0173	-1.765
Mof_C 	C 	0.8028	0.6017	0.0396	0.383
Mof_H 	H 	0.8317	0.5762	0.0346	-0.057
Mof_N 	N 	0.7566	0.5908	0.059	-0.033
Mof_C 	C 	0.7611	0.5461	0.0773	-0.114
Mof_H 	H 	0.8008	0.5289	0.0722	0.024
Mof_H 	H 	0.7612	0.5544	0.0992	0.071
Mof_H 	H 	0.7243	0.5251	0.0728	0.059
Mof_C 	C 	0.7014	0.6237	0.0618	0.17
Mof_H 	H 	0.7067	0.6512	0.0478	-0.052
Mof_H 	H 	0.662	0.6061	0.0567	-0.016
Mof_H 	H 	0.6987	0.6358	0.083	0.079
Mof_H 	H 	0.695	0.6187	0.0727	-0.085
Mof_Cl	Cl	0.8827	0.7087	0.9751	0.497
Mof_Cl	Cl	0.8064	0.6449	0.0234	1.646
Mof_N 	N 	0.786	0.5966	0.0651	-0.176
Mof_C 	C 	0.8092	0.5618	0.0884	-0.086
Mof_C 	C 	0.7365	0.6221	0.0829	-0.199
Mof_H 	H 	0.8028	0.5285	0.081	0.053
Mof_H 	H 	0.7852	0.5664	0.1075	0.004
Mof_H 	H 	0.8548	0.5673	0.0922	0.041
Mof_H 	H 	0.734	0.608	0.1036	0.071
Mof_H 	H 	0.7476	0.6566	0.0845	0.035
Mof_Cd	Cd	0.81608	0.04306	0.40865	0.428
Mof_Cd	Cd	0.87274	0.11947	0.47585	0.438
Mof_Cl	Cl	0.77631	0.12235	0.43875	-0.378
Mof_N 	N 	0.8668	0.00905	0.50331	-0.088
Mof_N 	N 	0.8546	0.03718	0.47897	-0.063
Mof_N 	N 	0.8368	0.00976	0.45586	-0.07
Mof_N 	N 	0.8364	0.96344	0.464	-0.082
Mof_N 	N 	0.6978	0.85193	0.56489	-0.103
Mof_N 	N 	0.6664	0.83459	0.5897	-0.061
Mof_N 	N 	0.7069	0.8301	0.61218	-0.062
Mof_N 	N 	0.7659	0.84376	0.60362	-0.083
Mof_C 	C 	0.8551	0.96394	0.49342	0.045
Mof_C 	C 	0.8646	0.91998	0.51314	0.182
Mof_C 	C 	0.8052	0.91247	0.53355	-0.294
Mof_H 	H 	0.7982	0.9416	0.5465	0.119
Mof_H 	H 	0.7668	0.9077	0.5205	0.123
Mof_C 	C 	0.8154	0.86747	0.55408	0.176
Mof_H 	H 	0.8687	0.9037	0.5874	0.125
Mof_H 	H 	0.9129	0.8799	0.4796	0.127
Mof_C 	C 	0.9236	0.92773	0.5336	-0.292
Mof_H 	H 	0.9618	0.9334	0.5206	0.116
Mof_H 	H 	0.9171	0.9567	0.5467	0.12
Mof_C 	C 	0.759	0.85647	0.57402	0.05
Mof_O 	O 	0.9006	0.1983	0.4789	-0.642
Mof_N 	N 	0.8793	0.2709	0.5011	-0.019
Mof_C 	C 	0.8625	0.2292	0.4891	-0.086
Mof_H 	H 	0.818	0.2219	0.4881	-0.002
Mof_C 	C 	0.9466	0.2843	0.5039	-0.384
Mof_H 	H 	0.9724	0.2639	0.4902	0.174
Mof_H 	H 	0.952	0.3185	0.4982	0.189
Mof_H 	H 	0.9608	0.2795	0.5251	0.166
Mof_C 	C 	0.8341	0.3052	0.5153	-0.338
Mof_H 	H 	0.8513	0.3164	0.535	0.145
Mof_H 	H 	0.8279	0.3332	0.5017	0.142
Mof_H 	H 	0.7929	0.289	0.5187	0.12
Mof_O 	O 	0.7966	0.128	0.5173	-1.765
Mof_C 	C 	0.8028	0.1017	0.5396	0.383
Mof_H 	H 	0.8317	0.0762	0.5346	-0.057
Mof_N 	N 	0.7566	0.0908	0.559	-0.033
Mof_C 	C 	0.7611	0.0461	0.5773	-0.114
Mof_H 	H 	0.8008	0.0289	0.5722	0.024
Mof_H 	H 	0.7612	0.0544	0.5992	0.071
Mof_H 	H 	0.7243	0.0251	0.5728	0.059
Mof_C 	C 	0.7014	0.1237	0.5618	0.17
Mof_H 	H 	0.7067	0.1512	0.5478	-0.052
Mof_H 	H 	0.662	0.1061	0.5567	-0.016
Mof_H 	H 	0.6987	0.1358	0.583	0.079
Mof_H 	H 	0.695	0.1187	0.5727	-0.085
Mof_Cl	Cl	0.8827	0.2087	0.4751	0.497
Mof_Cl	Cl	0.8064	0.1449	0.5234	1.646
Mof_N 	N 	0.786	0.0966	0.5651	-0.176
Mof_C 	C 	0.8092	0.0618	0.5884	-0.086
Mof_C 	C 	0.7365	0.1221	0.5829	-0.199
Mof_H 	H 	0.8028	0.0285	0.581	0.053
Mof_H 	H 	0.7852	0.0664	0.6075	0.004
Mof_H 	H 	0.8548	0.0673	0.5922	0.041
Mof_H 	H 	0.734	0.108	0.6036	0.071
Mof_H 	H 	0.7476	0.1566	0.5845	0.035
Mof_Cl	Cl	0.625	0.22842	0.125	-0.372
Mof_Cl	Cl	0.625	0.72842	0.625	-0.372
Mof_Cl	Cl	0.125	0.52158	0.125	-0.372
Mof_Cl	Cl	0.125	0.02158	0.625	-0.372
Mof_Cl	Cl	0.625	0.52158	0.625	-0.372
Mof_Cl	Cl	0.125	0.22842	0.625	-0.372
Mof_Cl	Cl	0.125	0.72842	0.125	-0.372
Mof_Cl	Cl	0.625	0.02158	0.125	-0.372
Mof_Cl	Cl	0.375	0.77158	0.875	-0.372
Mof_Cl	Cl	0.375	0.27158	0.375	-0.372
Mof_Cl	Cl	0.875	0.47842	0.875	-0.372
Mof_Cl	Cl	0.875	0.97842	0.375	-0.372
Mof_Cl	Cl	0.875	0.77158	0.375	-0.372
Mof_Cl	Cl	0.875	0.27158	0.875	-0.372
Mof_Cl	Cl	0.375	0.47842	0.375	-0.372
Mof_Cl	Cl	0.375	0.97842	0.875	-0.372
Mof_C 	C 	0.625	0.125	0.32408	-0.296
Mof_C 	C 	0.625	0.125	0.24288	-0.302
Mof_C 	C 	0.625	0.625	0.82408	-0.296
Mof_C 	C 	0.625	0.625	0.74288	-0.302
Mof_C 	C 	0.125	0.625	0.32408	-0.296
Mof_C 	C 	0.125	0.625	0.24288	-0.302
Mof_C 	C 	0.125	0.125	0.82408	-0.296
Mof_C 	C 	0.125	0.125	0.74288	-0.302
Mof_C 	C 	0.125	0.125	0.42592	-0.296
Mof_C 	C 	0.125	0.125	0.50712	-0.302
Mof_C 	C 	0.125	0.625	0.92592	-0.296
Mof_C 	C 	0.125	0.625	0.00712	-0.302
Mof_C 	C 	0.625	0.625	0.42592	-0.296
Mof_C 	C 	0.625	0.625	0.50712	-0.302
Mof_C 	C 	0.625	0.125	0.92592	-0.296
Mof_C 	C 	0.625	0.125	0.00712	-0.302
Mof_C 	C 	0.375	0.875	0.67592	-0.296
Mof_C 	C 	0.375	0.875	0.75712	-0.302
Mof_C 	C 	0.375	0.375	0.17592	-0.296
Mof_C 	C 	0.375	0.375	0.25712	-0.302
Mof_C 	C 	0.875	0.375	0.67592	-0.296
Mof_C 	C 	0.875	0.375	0.75712	-0.302
Mof_C 	C 	0.875	0.875	0.17592	-0.296
Mof_C 	C 	0.875	0.875	0.25712	-0.302
Mof_C 	C 	0.875	0.875	0.57408	-0.296
Mof_C 	C 	0.875	0.875	0.49288	-0.302
Mof_C 	C 	0.875	0.375	0.07408	-0.296
Mof_C 	C 	0.875	0.375	0.99288	-0.302
Mof_C 	C 	0.375	0.375	0.57408	-0.296
Mof_C 	C 	0.375	0.375	0.49288	-0.302
Mof_C 	C 	0.375	0.875	0.07408	-0.296
Mof_C 	C 	0.375	0.875	0.99288	-0.302
_end
