data_functionalizedCrystal
_audit_creation_method	'EQeq! by Chris Wilmer'
_symmetry_space_group_name_H-M	'P1'
_symmetry_Int_Tables_number	1
_symmetry_cell_setting	triclinic
loop_
_symmetry_equiv_pos_as_xyz
  x,y,z
_cell_length_a	14.0828
_cell_length_b	23.9967
_cell_length_c	37.1516
_cell_angle_alpha	90
_cell_angle_beta	90
_cell_angle_gamma	90
loop_
_atom_site_label
_atom_site_type_symbol
_atom_site_fract_x
_atom_site_fract_y
_atom_site_fract_z
_atom_site_charge
Mof_C 	C 	0.9106	0.4025	0.84373	-1.149
Mof_H 	H 	0.9122	0.4061	0.818	0.364
Mof_H 	H 	0.8552	0.4209	0.853	0.362
Mof_H 	H 	0.9085	0.3637	0.8501	0.359
Mof_C 	C 	0.971	0.9305	0.8806	0.824
Mof_C 	C 	0.9584	0.8965	0.902	-0.556
Mof_C 	C 	0.875	0.9108	0.8921	-0.047
Mof_C 	C 	0.3292	0.2568	0.20886	0.086
Mof_H 	H 	0.3436	0.2191	0.2109	-0.012
Mof_C 	C 	0.3348	0.3458	0.21372	0.004
Mof_H 	H 	0.3541	0.3816	0.2199	0.023
Mof_C 	C 	0.2571	0.3331	0.1942	-0.01
Mof_H 	H 	0.2138	0.3582	0.1845	0.037
Mof_C 	C 	0.1847	0.2447	0.17047	-0.056
Mof_H 	H 	0.121	0.2546	0.1781	0.056
Mof_H 	H 	0.1937	0.2053	0.1751	0.048
Mof_C 	C 	0.1945	0.2556	0.13022	-0.106
Mof_H 	H 	0.1468	0.2341	0.1175	0.063
Mof_H 	H 	0.1822	0.2947	0.1256	0.067
Mof_C 	C 	0.2906	0.241	0.11543	-0.08
Mof_H 	H 	0.3007	0.2013	0.1185	0.044
Mof_H 	H 	0.3384	0.2602	0.1295	0.052
Mof_C 	C 	0.3051	0.2553	0.07597	-0.063
Mof_H 	H 	0.2947	0.2949	0.0725	0.049
Mof_H 	H 	0.3702	0.2472	0.0693	0.049
Mof_C 	C 	0.1619	0.2435	0.03664	0.083
Mof_H 	H 	0.1401	0.28	0.0385	-0.001
Mof_C 	C 	0.1749	0.1568	0.02183	-0
Mof_H 	H 	0.163	0.1222	0.0115	0.027
Mof_C 	C 	0.2493	0.1693	0.0429	-0.009
Mof_H 	H 	0.2976	0.1451	0.0497	0.037
Mof_N 	N 	0.3809	0.29737	0.22297	-0.267
Mof_N 	N 	0.2541	0.27691	0.19144	-0.119
Mof_N 	N 	0.241	0.22416	0.0525	-0.116
Mof_N 	N 	0.1189	0.20374	0.01803	-0.265
Mof_C 	C 	0.058	0.4792	0.9534	0.398
Mof_C 	C 	0.056	0.4341	0.9755	0.349
Mof_C 	C 	0.5894	0.5975	0.34373	-1.047
Mof_H 	H 	0.5878	0.5939	0.318	0.347
Mof_H 	H 	0.6448	0.5791	0.353	0.337
Mof_H 	H 	0.5915	0.6363	0.3501	0.34
Mof_C 	C 	0.529	0.0695	0.3806	0.013
Mof_C 	C 	0.5416	0.1035	0.402	-0.012
Mof_C 	C 	0.625	0.0892	0.3921	-0.04
Mof_C 	C 	0.1708	0.7432	0.70886	0.087
Mof_H 	H 	0.1564	0.7809	0.7109	-0.012
Mof_C 	C 	0.1652	0.6542	0.71372	0.006
Mof_H 	H 	0.1459	0.6184	0.7199	0.025
Mof_C 	C 	0.2429	0.6669	0.6942	-0.009
Mof_H 	H 	0.2862	0.6418	0.6845	0.039
Mof_C 	C 	0.3153	0.7553	0.67047	-0.051
Mof_H 	H 	0.379	0.7454	0.6781	0.053
Mof_H 	H 	0.3063	0.7947	0.6751	0.045
Mof_C 	C 	0.3055	0.7444	0.63022	-0.112
Mof_H 	H 	0.3532	0.7659	0.6175	0.066
Mof_H 	H 	0.3178	0.7053	0.6256	0.069
Mof_C 	C 	0.2094	0.759	0.61543	-0.075
Mof_H 	H 	0.1993	0.7987	0.6185	0.042
Mof_H 	H 	0.1616	0.7398	0.6295	0.053
Mof_C 	C 	0.1949	0.7447	0.57597	-0.066
Mof_H 	H 	0.2053	0.7051	0.5725	0.052
Mof_H 	H 	0.1298	0.7528	0.5693	0.05
Mof_C 	C 	0.3381	0.7565	0.53664	0.083
Mof_H 	H 	0.3599	0.72	0.5385	-0
Mof_C 	C 	0.3251	0.8432	0.52183	-0.002
Mof_H 	H 	0.337	0.8778	0.5115	0.022
Mof_C 	C 	0.2507	0.8307	0.5429	-0.003
Mof_H 	H 	0.2024	0.8549	0.5497	0.021
Mof_N 	N 	0.1191	0.70263	0.72297	-0.265
Mof_N 	N 	0.2459	0.72309	0.69144	-0.12
Mof_N 	N 	0.259	0.77584	0.5525	-0.116
Mof_N 	N 	0.3811	0.79626	0.51803	-0.266
Mof_C 	C 	0.442	0.5208	0.4534	0.046
Mof_C 	C 	0.444	0.5659	0.4755	0.067
Mof_C 	C 	0.4106	0.5975	0.34373	-1.061
Mof_H 	H 	0.4122	0.5939	0.318	0.355
Mof_H 	H 	0.3552	0.5791	0.353	0.35
Mof_H 	H 	0.4085	0.6363	0.3501	0.345
Mof_C 	C 	0.471	0.0695	0.3806	-0.006
Mof_C 	C 	0.4584	0.1035	0.402	-0.005
Mof_C 	C 	0.375	0.0892	0.3921	-0.035
Mof_C 	C 	0.8292	0.7432	0.70886	0.082
Mof_H 	H 	0.8436	0.7809	0.7109	-0.023
Mof_C 	C 	0.8348	0.6542	0.71372	0.001
Mof_H 	H 	0.8541	0.6184	0.7199	0.009
Mof_C 	C 	0.7571	0.6669	0.6942	-0.014
Mof_H 	H 	0.7138	0.6418	0.6845	0.036
Mof_C 	C 	0.6847	0.7553	0.67047	-0.052
Mof_H 	H 	0.621	0.7454	0.6781	0.053
Mof_H 	H 	0.6937	0.7947	0.6751	0.044
Mof_C 	C 	0.6945	0.7444	0.63022	-0.111
Mof_H 	H 	0.6468	0.7659	0.6175	0.065
Mof_H 	H 	0.6822	0.7053	0.6256	0.067
Mof_C 	C 	0.7906	0.759	0.61543	-0.075
Mof_H 	H 	0.8007	0.7987	0.6185	0.037
Mof_H 	H 	0.8384	0.7398	0.6295	0.042
Mof_C 	C 	0.8051	0.7447	0.57597	-0.059
Mof_H 	H 	0.7947	0.7051	0.5725	0.042
Mof_H 	H 	0.8702	0.7528	0.5693	0.033
Mof_C 	C 	0.6619	0.7565	0.53664	0.083
Mof_H 	H 	0.6401	0.72	0.5385	-0.002
Mof_C 	C 	0.6749	0.8432	0.52183	-0.003
Mof_H 	H 	0.663	0.8778	0.5115	0.021
Mof_C 	C 	0.7493	0.8307	0.5429	-0.004
Mof_H 	H 	0.7976	0.8549	0.5497	0.016
Mof_N 	N 	0.8809	0.70263	0.72297	-0.28
Mof_N 	N 	0.7541	0.72309	0.69144	-0.12
Mof_N 	N 	0.741	0.77584	0.5525	-0.118
Mof_N 	N 	0.6189	0.79626	0.51803	-0.266
Mof_C 	C 	0.558	0.5208	0.4534	0.041
Mof_C 	C 	0.556	0.5659	0.4755	0.065
Mof_C 	C 	0.0894	0.4025	0.84373	-1.112
Mof_H 	H 	0.0878	0.4061	0.818	0.373
Mof_H 	H 	0.1448	0.4209	0.853	0.358
Mof_H 	H 	0.0915	0.3637	0.8501	0.364
Mof_C 	C 	0.029	0.9305	0.8806	-0.856
Mof_C 	C 	0.0416	0.8965	0.902	0.549
Mof_C 	C 	0.125	0.9108	0.8921	-0.023
Mof_C 	C 	0.6708	0.2568	0.20886	0.085
Mof_H 	H 	0.6564	0.2191	0.2109	-0.015
Mof_C 	C 	0.6652	0.3458	0.21372	0.002
Mof_H 	H 	0.6459	0.3816	0.2199	0.021
Mof_C 	C 	0.7429	0.3331	0.1942	-0.01
Mof_H 	H 	0.7862	0.3582	0.1845	0.028
Mof_C 	C 	0.8153	0.2447	0.17047	-0.044
Mof_H 	H 	0.879	0.2546	0.1781	0.036
Mof_H 	H 	0.8063	0.2053	0.1751	0.035
Mof_C 	C 	0.8055	0.2556	0.13022	-0.112
Mof_H 	H 	0.8532	0.2341	0.1175	0.061
Mof_H 	H 	0.8178	0.2947	0.1256	0.061
Mof_C 	C 	0.7094	0.241	0.11543	-0.077
Mof_H 	H 	0.6993	0.2013	0.1185	0.044
Mof_H 	H 	0.6616	0.2602	0.1295	0.05
Mof_C 	C 	0.6949	0.2553	0.07597	-0.063
Mof_H 	H 	0.7053	0.2949	0.0725	0.047
Mof_H 	H 	0.6298	0.2472	0.0693	0.049
Mof_C 	C 	0.8381	0.2435	0.03664	0.084
Mof_H 	H 	0.8599	0.28	0.0385	-0.014
Mof_C 	C 	0.8251	0.1568	0.02183	0.006
Mof_H 	H 	0.837	0.1222	0.0115	0.019
Mof_C 	C 	0.7507	0.1693	0.0429	-0.004
Mof_H 	H 	0.7024	0.1451	0.0497	0.037
Mof_N 	N 	0.6191	0.29737	0.22297	-0.267
Mof_N 	N 	0.7459	0.27691	0.19144	-0.123
Mof_N 	N 	0.759	0.22416	0.0525	-0.115
Mof_N 	N 	0.8811	0.20374	0.01803	-0.279
Mof_C 	C 	0.942	0.4792	0.9534	0.349
Mof_C 	C 	0.944	0.4341	0.9755	0.296
Mof_C 	C 	8.15314e-33	0.5237	0.82428	0.125
Mof_H 	H 	-8.15129e-33	0.5058	0.8021	-0.006
Mof_C 	C 	-4.00883e-32	0.5818	0.82567	-0.15
Mof_C 	C 	-2.36671e-32	0.6077	0.85965	0.08
Mof_H 	H 	8.51437e-33	0.6464	0.8608	0.021
Mof_C 	C 	2.48981e-32	0.5778	0.891	-0.154
Mof_H 	H 	9.03267e-33	0.5957	0.9132	0.096
Mof_C 	C 	9.44217e-33	0.4836	0.9546	-0.664
Mof_C 	C 	9.63999e-33	0.4338	0.9746	-0.563
Mof_C 	C 	-5.48515e-32	0.381	0.9593	-0.056
Mof_C 	C 	9.11665e-33	0.3767	0.92169	0.051
Mof_H 	H 	9.00893e-33	0.3418	0.9108	0.018
Mof_C 	C 	4.0676e-32	0.4292	0.85994	0.609
Mof_C 	C 	-2.37103e-32	0.4927	0.85528	-0.237
Mof_C 	C 	-7.29372e-33	0.5196	0.8888	0.083
Mof_C 	C 	-2.31008e-32	0.4766	0.9169	0.06
Mof_C 	C 	-2.32611e-32	0.4242	0.9007	-0.225
Mof_C 	C 	7.83217e-33	0.6159	0.79183	0.361
Mof_C 	C 	4.18971e-32	0.3307	0.9834	0.317
Mof_C 	C 	7.51803e-33	0.8287	0.76007	0.355
Mof_C 	C 	-2.44336e-32	0.8802	0.78216	-0.105
Mof_C 	C 	7.58192e-33	0.9324	0.76653	0.044
Mof_H 	H 	7.33533e-33	0.9349	0.7416	0.013
Mof_C 	C 	-2.43924e-32	0.9808	0.78632	-0.117
Mof_H 	H 	-8.41935e-33	0.0154	0.775	0.094
Mof_C 	C 	-7.98314e-33	0.8767	0.8191	-0.016
Mof_H 	H 	8.2117e-33	0.8419	0.8302	0.058
Mof_C 	C 	8.30962e-33	0.9247	0.8401	0.007
Mof_C 	C 	8.14701e-33	0.9768	0.82366	0.033
Mof_C 	C 	-7.66168e-33	0.0203	0.8516	-0.006
Mof_C 	C 	-7.68047e-33	0.0778	0.8497	-0.056
Mof_H 	H 	-7.90006e-33	0.0958	0.8275	0.053
Mof_C 	C 	-7.36662e-33	0.1081	0.88143	-0.013
Mof_H 	H 	-7.37681e-33	0.1468	0.8804	0.051
Mof_C 	C 	-2.31252e-32	0.0824	0.91444	-0.048
Mof_C 	C 	-2.31078e-32	0.0243	0.9162	-0.056
Mof_H 	H 	9.28193e-33	0.0065	0.9384	0.078
Mof_C 	C 	-3.94984e-32	0.9935	0.8853	0.038
Mof_C 	C 	-2.27873e-32	0.1158	0.9486	0.309
Mof_O 	O 	-2.42923e-32	0.66836	0.79644	-0.448
Mof_O 	O 	-8.54259e-33	0.5926	0.76254	-0.33
Mof_O 	O 	-2.26158e-32	0.28444	0.96594	-0.444
Mof_O 	O 	2.67442e-33	0.3352	0.01629	-0.297
Mof_O 	O 	-8.39432e-33	0.78301	0.77753	-0.455
Mof_O 	O 	-8.89086e-33	0.8319	0.72733	-0.338
Mof_O 	O 	-2.28229e-32	0.16888	0.945	-0.439
Mof_O 	O 	9.67867e-33	0.0926	0.97851	-0.295
Mof_Zn	Zn	-8.64823e-33	0.7123	0.75186	1.215
Mof_Zn	Zn	-2.23809e-32	0.2119	0.98968	1.216
Mof_C 	C 	0.5	0.4763	0.32428	0.116
Mof_H 	H 	0.5	0.4942	0.3021	-0.008
Mof_C 	C 	0.5	0.4182	0.32567	-0.156
Mof_C 	C 	0.5	0.3923	0.35965	0.083
Mof_H 	H 	0.5	0.3536	0.3608	0.013
Mof_C 	C 	0.5	0.4222	0.391	-0.165
Mof_H 	H 	0.5	0.4043	0.4132	0.098
Mof_C 	C 	0.5	0.5164	0.4546	-0.102
Mof_C 	C 	0.5	0.5662	0.4746	-0.078
Mof_C 	C 	0.5	0.619	0.4593	-0.114
Mof_C 	C 	0.5	0.6233	0.42169	0.076
Mof_H 	H 	0.5	0.6582	0.4108	0.004
Mof_C 	C 	0.5	0.5708	0.35994	0.549
Mof_C 	C 	0.5	0.5073	0.35528	-0.229
Mof_C 	C 	0.5	0.4804	0.3888	0.098
Mof_C 	C 	0.5	0.5234	0.4169	0.028
Mof_C 	C 	0.5	0.5758	0.4007	-0.199
Mof_C 	C 	0.5	0.3841	0.29183	0.36
Mof_C 	C 	0.5	0.6693	0.4834	0.344
Mof_C 	C 	0.5	0.1713	0.26007	0.359
Mof_C 	C 	0.5	0.1198	0.28216	-0.123
Mof_C 	C 	0.5	0.0676	0.26653	0.051
Mof_H 	H 	0.5	0.0651	0.2416	0.005
Mof_C 	C 	0.5	0.0192	0.28632	-0.131
Mof_H 	H 	0.5	0.9846	0.275	0.093
Mof_C 	C 	0.5	0.1233	0.3191	-0.001
Mof_H 	H 	0.5	0.1581	0.3302	0.043
Mof_C 	C 	0.5	0.0753	0.3401	-0.026
Mof_C 	C 	0.5	0.0232	0.32366	0.036
Mof_C 	C 	0.5	0.9797	0.3516	-0.003
Mof_C 	C 	0.5	0.9222	0.3497	-0.071
Mof_H 	H 	0.5	0.9042	0.3275	0.05
Mof_C 	C 	0.5	0.8919	0.38143	-0.007
Mof_H 	H 	0.5	0.8532	0.3804	0.04
Mof_C 	C 	0.5	0.9176	0.41444	-0.068
Mof_C 	C 	0.5	0.9757	0.4162	-0.043
Mof_H 	H 	0.5	0.9935	0.4384	0.061
Mof_C 	C 	0.5	0.0065	0.3853	0.003
Mof_C 	C 	0.5	0.8842	0.4486	0.31
Mof_O 	O 	0.5	0.33164	0.29644	-0.459
Mof_O 	O 	0.5	0.4074	0.26254	-0.34
Mof_O 	O 	0.5	0.71556	0.46594	-0.46
Mof_O 	O 	0.5	0.6648	0.51629	-0.31
Mof_O 	O 	0.5	0.21699	0.27753	-0.468
Mof_O 	O 	0.5	0.1681	0.22733	-0.352
Mof_O 	O 	0.5	0.83112	0.445	-0.452
Mof_O 	O 	0.5	0.9074	0.47851	-0.313
Mof_Zn	Zn	0.5	0.2877	0.25186	1.208
Mof_Zn	Zn	0.5	0.7881	0.48968	1.209
Mof_C 	C 	0.4106	0.9025	0.84373	-1.061
Mof_H 	H 	0.4122	0.9061	0.818	0.355
Mof_H 	H 	0.3552	0.9209	0.853	0.35
Mof_H 	H 	0.4085	0.8637	0.8501	0.345
Mof_C 	C 	0.471	0.4305	0.8806	-0.006
Mof_C 	C 	0.4584	0.3965	0.902	-0.005
Mof_C 	C 	0.375	0.4108	0.8921	-0.035
Mof_C 	C 	0.8292	0.7568	0.20886	0.082
Mof_H 	H 	0.8436	0.7191	0.2109	-0.023
Mof_C 	C 	0.8348	0.8458	0.21372	0.001
Mof_H 	H 	0.8541	0.8816	0.2199	0.009
Mof_C 	C 	0.7571	0.8331	0.1942	-0.014
Mof_H 	H 	0.7138	0.8582	0.1845	0.036
Mof_C 	C 	0.6847	0.7447	0.17047	-0.052
Mof_H 	H 	0.621	0.7546	0.1781	0.053
Mof_H 	H 	0.6937	0.7053	0.1751	0.044
Mof_C 	C 	0.6945	0.7556	0.13022	-0.112
Mof_H 	H 	0.6468	0.7341	0.1175	0.065
Mof_H 	H 	0.6822	0.7947	0.1256	0.067
Mof_C 	C 	0.7906	0.741	0.11543	-0.075
Mof_H 	H 	0.8007	0.7013	0.1185	0.037
Mof_H 	H 	0.8384	0.7602	0.1295	0.042
Mof_C 	C 	0.8051	0.7553	0.07597	-0.059
Mof_H 	H 	0.7947	0.7949	0.0725	0.042
Mof_H 	H 	0.8702	0.7472	0.0693	0.033
Mof_C 	C 	0.6619	0.7435	0.03664	0.083
Mof_H 	H 	0.6401	0.78	0.0385	-0.002
Mof_C 	C 	0.6749	0.6568	0.02183	-0.003
Mof_H 	H 	0.663	0.6222	0.0115	0.021
Mof_C 	C 	0.7493	0.6693	0.0429	-0.004
Mof_H 	H 	0.7976	0.6451	0.0497	0.016
Mof_N 	N 	0.8809	0.79737	0.22297	-0.28
Mof_N 	N 	0.7541	0.77691	0.19144	-0.12
Mof_N 	N 	0.741	0.72416	0.0525	-0.118
Mof_N 	N 	0.6189	0.70374	0.01803	-0.266
Mof_C 	C 	0.558	0.9792	0.9534	0.041
Mof_C 	C 	0.556	0.9341	0.9755	0.065
Mof_C 	C 	0.0894	0.0975	0.34373	-1.112
Mof_H 	H 	0.0878	0.0939	0.318	0.372
Mof_H 	H 	0.1448	0.0791	0.353	0.358
Mof_H 	H 	0.0915	0.1363	0.3501	0.363
Mof_C 	C 	0.029	0.5695	0.3806	-0.867
Mof_C 	C 	0.0416	0.6035	0.402	0.555
Mof_C 	C 	0.125	0.5892	0.3921	-0.023
Mof_C 	C 	0.6708	0.2432	0.70886	0.085
Mof_H 	H 	0.6564	0.2809	0.7109	-0.015
Mof_C 	C 	0.6652	0.1542	0.71372	0.002
Mof_H 	H 	0.6459	0.1184	0.7199	0.021
Mof_C 	C 	0.7429	0.1669	0.6942	-0.01
Mof_H 	H 	0.7862	0.1418	0.6845	0.028
Mof_C 	C 	0.8153	0.2553	0.67047	-0.044
Mof_H 	H 	0.879	0.2454	0.6781	0.036
Mof_H 	H 	0.8063	0.2947	0.6751	0.035
Mof_C 	C 	0.8055	0.2444	0.63022	-0.112
Mof_H 	H 	0.8532	0.2659	0.6175	0.061
Mof_H 	H 	0.8178	0.2053	0.6256	0.061
Mof_C 	C 	0.7094	0.259	0.61543	-0.077
Mof_H 	H 	0.6993	0.2987	0.6185	0.044
Mof_H 	H 	0.6616	0.2398	0.6295	0.05
Mof_C 	C 	0.6949	0.2447	0.57597	-0.063
Mof_H 	H 	0.7053	0.2051	0.5725	0.047
Mof_H 	H 	0.6298	0.2528	0.5693	0.049
Mof_C 	C 	0.8381	0.2565	0.53664	0.084
Mof_H 	H 	0.8599	0.22	0.5385	-0.014
Mof_C 	C 	0.8251	0.3432	0.52183	0.006
Mof_H 	H 	0.837	0.3778	0.5115	0.019
Mof_C 	C 	0.7507	0.3307	0.5429	-0.004
Mof_H 	H 	0.7024	0.3549	0.5497	0.037
Mof_N 	N 	0.6191	0.20263	0.72297	-0.267
Mof_N 	N 	0.7459	0.22309	0.69144	-0.123
Mof_N 	N 	0.759	0.27584	0.5525	-0.115
Mof_N 	N 	0.8811	0.29626	0.51803	-0.279
Mof_C 	C 	0.942	0.0208	0.4534	0.346
Mof_C 	C 	0.944	0.0659	0.4755	0.294
Mof_C 	C 	0.9106	0.0975	0.34373	-1.149
Mof_H 	H 	0.9122	0.0939	0.318	0.363
Mof_H 	H 	0.8552	0.0791	0.353	0.36
Mof_H 	H 	0.9085	0.1363	0.3501	0.358
Mof_C 	C 	0.971	0.5695	0.3806	0.833
Mof_C 	C 	0.9584	0.6035	0.402	-0.563
Mof_C 	C 	0.875	0.5892	0.3921	-0.048
Mof_C 	C 	0.3292	0.2432	0.70886	0.085
Mof_H 	H 	0.3436	0.2809	0.7109	-0.012
Mof_C 	C 	0.3348	0.1542	0.71372	0.004
Mof_H 	H 	0.3541	0.1184	0.7199	0.023
Mof_C 	C 	0.2571	0.1669	0.6942	-0.01
Mof_H 	H 	0.2138	0.1418	0.6845	0.037
Mof_C 	C 	0.1847	0.2553	0.67047	-0.056
Mof_H 	H 	0.121	0.2454	0.6781	0.056
Mof_H 	H 	0.1937	0.2947	0.6751	0.048
Mof_C 	C 	0.1945	0.2444	0.63022	-0.106
Mof_H 	H 	0.1468	0.2659	0.6175	0.063
Mof_H 	H 	0.1822	0.2053	0.6256	0.067
Mof_C 	C 	0.2906	0.259	0.61543	-0.08
Mof_H 	H 	0.3007	0.2987	0.6185	0.044
Mof_H 	H 	0.3384	0.2398	0.6295	0.052
Mof_C 	C 	0.3051	0.2447	0.57597	-0.063
Mof_H 	H 	0.2947	0.2051	0.5725	0.049
Mof_H 	H 	0.3702	0.2528	0.5693	0.049
Mof_C 	C 	0.1619	0.2565	0.53664	0.083
Mof_H 	H 	0.1401	0.22	0.5385	-0.001
Mof_C 	C 	0.1749	0.3432	0.52183	-0
Mof_H 	H 	0.163	0.3778	0.5115	0.027
Mof_C 	C 	0.2493	0.3307	0.5429	-0.009
Mof_H 	H 	0.2976	0.3549	0.5497	0.037
Mof_N 	N 	0.3809	0.20263	0.72297	-0.267
Mof_N 	N 	0.2541	0.22309	0.69144	-0.119
Mof_N 	N 	0.241	0.27584	0.5525	-0.116
Mof_N 	N 	0.1189	0.29626	0.51803	-0.265
Mof_C 	C 	0.058	0.0208	0.4534	0.394
Mof_C 	C 	0.056	0.0659	0.4755	0.347
Mof_C 	C 	0.5894	0.9025	0.84373	-1.047
Mof_H 	H 	0.5878	0.9061	0.818	0.347
Mof_H 	H 	0.6448	0.9209	0.853	0.337
Mof_H 	H 	0.5915	0.8637	0.8501	0.34
Mof_C 	C 	0.529	0.4305	0.8806	0.014
Mof_C 	C 	0.5416	0.3965	0.902	-0.013
Mof_C 	C 	0.625	0.4108	0.8921	-0.04
Mof_C 	C 	0.1708	0.7568	0.20886	0.087
Mof_H 	H 	0.1564	0.7191	0.2109	-0.012
Mof_C 	C 	0.1652	0.8458	0.21372	0.006
Mof_H 	H 	0.1459	0.8816	0.2199	0.025
Mof_C 	C 	0.2429	0.8331	0.1942	-0.009
Mof_H 	H 	0.2862	0.8582	0.1845	0.039
Mof_C 	C 	0.3153	0.7447	0.17047	-0.051
Mof_H 	H 	0.379	0.7546	0.1781	0.053
Mof_H 	H 	0.3063	0.7053	0.1751	0.045
Mof_C 	C 	0.3055	0.7556	0.13022	-0.112
Mof_H 	H 	0.3532	0.7341	0.1175	0.066
Mof_H 	H 	0.3178	0.7947	0.1256	0.069
Mof_C 	C 	0.2094	0.741	0.11543	-0.075
Mof_H 	H 	0.1993	0.7013	0.1185	0.042
Mof_H 	H 	0.1616	0.7602	0.1295	0.053
Mof_C 	C 	0.1949	0.7553	0.07597	-0.066
Mof_H 	H 	0.2053	0.7949	0.0725	0.052
Mof_H 	H 	0.1298	0.7472	0.0693	0.05
Mof_C 	C 	0.3381	0.7435	0.03664	0.083
Mof_H 	H 	0.3599	0.78	0.0385	-0
Mof_C 	C 	0.3251	0.6568	0.02183	-0.002
Mof_H 	H 	0.337	0.6222	0.0115	0.022
Mof_C 	C 	0.2507	0.6693	0.0429	-0.003
Mof_H 	H 	0.2024	0.6451	0.0497	0.021
Mof_N 	N 	0.1191	0.79737	0.22297	-0.265
Mof_N 	N 	0.2459	0.77691	0.19144	-0.12
Mof_N 	N 	0.259	0.72416	0.0525	-0.116
Mof_N 	N 	0.3811	0.70374	0.01803	-0.266
Mof_C 	C 	0.442	0.9792	0.9534	0.045
Mof_C 	C 	0.444	0.9341	0.9755	0.067
Mof_C 	C 	0.5	0.0237	0.82428	0.116
Mof_H 	H 	0.5	0.0058	0.8021	-0.008
Mof_C 	C 	0.5	0.0818	0.82567	-0.156
Mof_C 	C 	0.5	0.1077	0.85965	0.082
Mof_H 	H 	0.5	0.1464	0.8608	0.013
Mof_C 	C 	0.5	0.0778	0.891	-0.165
Mof_H 	H 	0.5	0.0957	0.9132	0.098
Mof_C 	C 	0.5	0.9836	0.9546	-0.101
Mof_C 	C 	0.5	0.9338	0.9746	-0.078
Mof_C 	C 	0.5	0.881	0.9593	-0.114
Mof_C 	C 	0.5	0.8767	0.92169	0.076
Mof_H 	H 	0.5	0.8418	0.9108	0.004
Mof_C 	C 	0.5	0.9292	0.85994	0.548
Mof_C 	C 	0.5	0.9927	0.85528	-0.228
Mof_C 	C 	0.5	0.0196	0.8888	0.098
Mof_C 	C 	0.5	0.9766	0.9169	0.028
Mof_C 	C 	0.5	0.9242	0.9007	-0.199
Mof_C 	C 	0.5	0.1159	0.79183	0.359
Mof_C 	C 	0.5	0.8307	0.9834	0.344
Mof_C 	C 	0.5	0.3287	0.76007	0.359
Mof_C 	C 	0.5	0.3802	0.78216	-0.123
Mof_C 	C 	0.5	0.4324	0.76653	0.051
Mof_H 	H 	0.5	0.4349	0.7416	0.005
Mof_C 	C 	0.5	0.4808	0.78632	-0.131
Mof_H 	H 	0.5	0.5154	0.775	0.093
Mof_C 	C 	0.5	0.3767	0.8191	-0.001
Mof_H 	H 	0.5	0.3419	0.8302	0.043
Mof_C 	C 	0.5	0.4247	0.8401	-0.026
Mof_C 	C 	0.5	0.4768	0.82366	0.036
Mof_C 	C 	0.5	0.5203	0.8516	-0.003
Mof_C 	C 	0.5	0.5778	0.8497	-0.071
Mof_H 	H 	0.5	0.5958	0.8275	0.05
Mof_C 	C 	0.5	0.6081	0.88143	-0.006
Mof_H 	H 	0.5	0.6468	0.8804	0.04
Mof_C 	C 	0.5	0.5824	0.91444	-0.068
Mof_C 	C 	0.5	0.5243	0.9162	-0.043
Mof_H 	H 	0.5	0.5065	0.9384	0.061
Mof_C 	C 	0.5	0.4935	0.8853	0.003
Mof_C 	C 	0.5	0.6158	0.9486	0.31
Mof_O 	O 	0.5	0.16836	0.79644	-0.459
Mof_O 	O 	0.5	0.0926	0.76254	-0.34
Mof_O 	O 	0.5	0.78444	0.96594	-0.46
Mof_O 	O 	0.5	0.8352	0.01629	-0.311
Mof_O 	O 	0.5	0.28301	0.77753	-0.468
Mof_O 	O 	0.5	0.3319	0.72733	-0.352
Mof_O 	O 	0.5	0.66888	0.945	-0.452
Mof_O 	O 	0.5	0.5926	0.97851	-0.313
Mof_Zn	Zn	0.5	0.2123	0.75186	1.208
Mof_Zn	Zn	0.5	0.7119	0.98968	1.209
Mof_C 	C 	-3.70051e-32	0.9763	0.32428	0.125
Mof_H 	H 	-5.05438e-33	0.9942	0.3021	-0.006
Mof_C 	C 	-4.82125e-33	0.9182	0.32567	-0.15
Mof_C 	C 	-2.05702e-32	0.8923	0.35965	0.08
Mof_H 	H 	-2.86013e-32	0.8536	0.3608	0.021
Mof_C 	C 	2.7995e-32	0.9222	0.391	-0.154
Mof_H 	H 	2.01721e-32	0.9043	0.4132	0.096
Mof_C 	C 	-1.15885e-32	0.0164	0.4546	-0.659
Mof_C 	C 	4.69438e-33	0.0662	0.4746	-0.56
Mof_C 	C 	4.54304e-33	0.119	0.4593	-0.057
Mof_C 	C 	4.17103e-33	0.1233	0.42169	0.051
Mof_H 	H 	4.06332e-33	0.1582	0.4108	0.018
Mof_C 	C 	3.56025e-33	0.0708	0.35994	0.608
Mof_C 	C 	-4.52837e-33	0.0073	0.35528	-0.237
Mof_C 	C 	3.84571e-33	0.9804	0.3888	0.083
Mof_C 	C 	-1.19614e-32	0.0234	0.4169	0.06
Mof_C 	C 	-4.07911e-33	0.0758	0.4007	-0.225
Mof_C 	C 	-5.15597e-33	0.8841	0.29183	0.361
Mof_C 	C 	-1.13036e-32	0.1693	0.4834	0.318
Mof_C 	C 	2.57241e-33	0.6713	0.26007	0.355
Mof_C 	C 	-1.32941e-32	0.6198	0.28216	-0.105
Mof_C 	C 	-5.40621e-33	0.5676	0.26653	0.044
Mof_H 	H 	2.38972e-33	0.5651	0.2416	0.013
Mof_C 	C 	-5.21047e-33	0.5192	0.28632	-0.117
Mof_H 	H 	-5.32244e-33	0.4846	0.275	0.094
Mof_C 	C 	-4.88623e-33	0.6233	0.3191	-0.016
Mof_H 	H 	3.26608e-33	0.6581	0.3302	0.058
Mof_C 	C 	1.14065e-32	0.5753	0.3401	0.007
Mof_C 	C 	3.20139e-33	0.5232	0.32366	0.033
Mof_C 	C 	-4.56477e-33	0.4797	0.3516	-0.006
Mof_C 	C 	-1.26261e-32	0.4222	0.3497	-0.056
Mof_H 	H 	3.23938e-33	0.4042	0.3275	0.053
Mof_C 	C 	-4.26971e-33	0.3919	0.38143	-0.013
Mof_H 	H 	1.18051e-32	0.3532	0.3804	0.051
Mof_C 	C 	-3.9432e-33	0.4176	0.41444	-0.048
Mof_C 	C 	4.11673e-33	0.4757	0.4162	-0.056
Mof_H 	H 	-1.17487e-32	0.4935	0.4384	0.078
Mof_C 	C 	-1.2274e-32	0.5065	0.3853	0.038
Mof_C 	C 	-1.16478e-32	0.3842	0.4486	0.309
Mof_O 	O 	2.93216e-33	0.83164	0.29644	-0.448
Mof_O 	O 	-1.34882e-32	0.9074	0.26254	-0.33
Mof_O 	O 	-1.14763e-32	0.21556	0.46594	-0.444
Mof_O 	O 	5.10674e-33	0.1648	0.51629	-0.297
Mof_O 	O 	2.68727e-32	0.71699	0.27753	-0.455
Mof_O 	O 	-1.38365e-32	0.6681	0.22733	-0.338
Mof_O 	O 	-1.16835e-32	0.33112	0.445	-0.439
Mof_O 	O 	4.73305e-33	0.4074	0.47851	-0.295
Mof_Zn	Zn	2.4912e-33	0.7877	0.25186	1.215
Mof_Zn	Zn	-2.73266e-32	0.2881	0.48968	1.216
Mof_C 	C 	0.0894	0.9025	0.65627	-1.112
Mof_H 	H 	0.0878	0.9061	0.682	0.372
Mof_H 	H 	0.1448	0.9209	0.647	0.358
Mof_H 	H 	0.0915	0.8637	0.6499	0.363
Mof_C 	C 	0.029	0.4305	0.6194	-0.867
Mof_C 	C 	0.0416	0.3965	0.598	0.555
Mof_C 	C 	0.125	0.4108	0.6079	-0.023
Mof_C 	C 	0.6708	0.7568	0.29114	0.085
Mof_H 	H 	0.6564	0.7191	0.2891	-0.015
Mof_C 	C 	0.6652	0.8458	0.28628	0.002
Mof_H 	H 	0.6459	0.8816	0.2801	0.021
Mof_C 	C 	0.7429	0.8331	0.3058	-0.01
Mof_H 	H 	0.7862	0.8582	0.3155	0.028
Mof_C 	C 	0.8153	0.7447	0.32953	-0.044
Mof_H 	H 	0.879	0.7546	0.3219	0.036
Mof_H 	H 	0.8063	0.7053	0.3249	0.035
Mof_C 	C 	0.8055	0.7556	0.36978	-0.112
Mof_H 	H 	0.8532	0.7341	0.3825	0.061
Mof_H 	H 	0.8178	0.7947	0.3744	0.061
Mof_C 	C 	0.7094	0.741	0.38457	-0.077
Mof_H 	H 	0.6993	0.7013	0.3815	0.044
Mof_H 	H 	0.6616	0.7602	0.3705	0.05
Mof_C 	C 	0.6949	0.7553	0.42403	-0.063
Mof_H 	H 	0.7053	0.7949	0.4275	0.047
Mof_H 	H 	0.6298	0.7472	0.4307	0.049
Mof_C 	C 	0.8381	0.7435	0.46336	0.084
Mof_H 	H 	0.8599	0.78	0.4615	-0.014
Mof_C 	C 	0.8251	0.6568	0.47817	0.006
Mof_H 	H 	0.837	0.6222	0.4885	0.019
Mof_C 	C 	0.7507	0.6693	0.4571	-0.004
Mof_H 	H 	0.7024	0.6451	0.4503	0.037
Mof_N 	N 	0.6191	0.79737	0.27703	-0.267
Mof_N 	N 	0.7459	0.77691	0.30856	-0.123
Mof_N 	N 	0.759	0.72416	0.4475	-0.115
Mof_N 	N 	0.8811	0.70374	0.48197	-0.279
Mof_C 	C 	0.942	0.9792	0.5466	0.346
Mof_C 	C 	0.944	0.9341	0.5245	0.294
Mof_C 	C 	0.4106	0.0975	0.15627	-1.061
Mof_H 	H 	0.4122	0.0939	0.182	0.355
Mof_H 	H 	0.3552	0.0791	0.147	0.35
Mof_H 	H 	0.4085	0.1363	0.1499	0.345
Mof_C 	C 	0.471	0.5695	0.1194	-0.006
Mof_C 	C 	0.4584	0.6035	0.098	-0.005
Mof_C 	C 	0.375	0.5892	0.1079	-0.035
Mof_C 	C 	0.8292	0.2432	0.79114	0.082
Mof_H 	H 	0.8436	0.2809	0.7891	-0.023
Mof_C 	C 	0.8348	0.1542	0.78628	0.001
Mof_H 	H 	0.8541	0.1184	0.7801	0.009
Mof_C 	C 	0.7571	0.1669	0.8058	-0.014
Mof_H 	H 	0.7138	0.1418	0.8155	0.036
Mof_C 	C 	0.6847	0.2553	0.82953	-0.052
Mof_H 	H 	0.621	0.2454	0.8219	0.053
Mof_H 	H 	0.6937	0.2947	0.8249	0.044
Mof_C 	C 	0.6945	0.2444	0.86978	-0.112
Mof_H 	H 	0.6468	0.2659	0.8825	0.065
Mof_H 	H 	0.6822	0.2053	0.8744	0.067
Mof_C 	C 	0.7906	0.259	0.88457	-0.075
Mof_H 	H 	0.8007	0.2987	0.8815	0.037
Mof_H 	H 	0.8384	0.2398	0.8705	0.042
Mof_C 	C 	0.8051	0.2447	0.92403	-0.059
Mof_H 	H 	0.7947	0.2051	0.9275	0.042
Mof_H 	H 	0.8702	0.2528	0.9307	0.033
Mof_C 	C 	0.6619	0.2565	0.96336	0.083
Mof_H 	H 	0.6401	0.22	0.9615	-0.002
Mof_C 	C 	0.6749	0.3432	0.97817	-0.003
Mof_H 	H 	0.663	0.3778	0.9885	0.021
Mof_C 	C 	0.7493	0.3307	0.9571	-0.004
Mof_H 	H 	0.7976	0.3549	0.9503	0.016
Mof_N 	N 	0.8809	0.20263	0.77703	-0.28
Mof_N 	N 	0.7541	0.22309	0.80856	-0.12
Mof_N 	N 	0.741	0.27584	0.9475	-0.118
Mof_N 	N 	0.6189	0.29626	0.98197	-0.266
Mof_C 	C 	0.558	0.0208	0.0466	0.041
Mof_C 	C 	0.556	0.0659	0.0245	0.065
Mof_C 	C 	0.5894	0.0975	0.15627	-1.047
Mof_H 	H 	0.5878	0.0939	0.182	0.347
Mof_H 	H 	0.6448	0.0791	0.147	0.337
Mof_H 	H 	0.5915	0.1363	0.1499	0.34
Mof_C 	C 	0.529	0.5695	0.1194	0.014
Mof_C 	C 	0.5416	0.6035	0.098	-0.013
Mof_C 	C 	0.625	0.5892	0.1079	-0.04
Mof_C 	C 	0.1708	0.2432	0.79114	0.087
Mof_H 	H 	0.1564	0.2809	0.7891	-0.012
Mof_C 	C 	0.1652	0.1542	0.78628	0.006
Mof_H 	H 	0.1459	0.1184	0.7801	0.025
Mof_C 	C 	0.2429	0.1669	0.8058	-0.009
Mof_H 	H 	0.2862	0.1418	0.8155	0.039
Mof_C 	C 	0.3153	0.2553	0.82953	-0.051
Mof_H 	H 	0.379	0.2454	0.8219	0.053
Mof_H 	H 	0.3063	0.2947	0.8249	0.045
Mof_C 	C 	0.3055	0.2444	0.86978	-0.112
Mof_H 	H 	0.3532	0.2659	0.8825	0.066
Mof_H 	H 	0.3178	0.2053	0.8744	0.069
Mof_C 	C 	0.2094	0.259	0.88457	-0.075
Mof_H 	H 	0.1993	0.2987	0.8815	0.042
Mof_H 	H 	0.1616	0.2398	0.8705	0.053
Mof_C 	C 	0.1949	0.2447	0.92403	-0.066
Mof_H 	H 	0.2053	0.2051	0.9275	0.052
Mof_H 	H 	0.1298	0.2528	0.9307	0.05
Mof_C 	C 	0.3381	0.2565	0.96336	0.083
Mof_H 	H 	0.3599	0.22	0.9615	-0
Mof_C 	C 	0.3251	0.3432	0.97817	-0.002
Mof_H 	H 	0.337	0.3778	0.9885	0.022
Mof_C 	C 	0.2507	0.3307	0.9571	-0.003
Mof_H 	H 	0.2024	0.3549	0.9503	0.021
Mof_N 	N 	0.1191	0.20263	0.77703	-0.265
Mof_N 	N 	0.2459	0.22309	0.80856	-0.12
Mof_N 	N 	0.259	0.27584	0.9475	-0.116
Mof_N 	N 	0.3811	0.29626	0.98197	-0.266
Mof_C 	C 	0.442	0.0208	0.0466	0.045
Mof_C 	C 	0.444	0.0659	0.0245	0.067
Mof_C 	C 	0.9106	0.9025	0.65627	-1.149
Mof_H 	H 	0.9122	0.9061	0.682	0.363
Mof_H 	H 	0.8552	0.9209	0.647	0.36
Mof_H 	H 	0.9085	0.8637	0.6499	0.358
Mof_C 	C 	0.971	0.4305	0.6194	0.833
Mof_C 	C 	0.9584	0.3965	0.598	-0.563
Mof_C 	C 	0.875	0.4108	0.6079	-0.048
Mof_C 	C 	0.3292	0.7568	0.29114	0.085
Mof_H 	H 	0.3436	0.7191	0.2891	-0.012
Mof_C 	C 	0.3348	0.8458	0.28628	0.004
Mof_H 	H 	0.3541	0.8816	0.2801	0.023
Mof_C 	C 	0.2571	0.8331	0.3058	-0.01
Mof_H 	H 	0.2138	0.8582	0.3155	0.037
Mof_C 	C 	0.1847	0.7447	0.32953	-0.056
Mof_H 	H 	0.121	0.7546	0.3219	0.056
Mof_H 	H 	0.1937	0.7053	0.3249	0.048
Mof_C 	C 	0.1945	0.7556	0.36978	-0.106
Mof_H 	H 	0.1468	0.7341	0.3825	0.063
Mof_H 	H 	0.1822	0.7947	0.3744	0.067
Mof_C 	C 	0.2906	0.741	0.38457	-0.08
Mof_H 	H 	0.3007	0.7013	0.3815	0.044
Mof_H 	H 	0.3384	0.7602	0.3705	0.052
Mof_C 	C 	0.3051	0.7553	0.42403	-0.063
Mof_H 	H 	0.2947	0.7949	0.4275	0.049
Mof_H 	H 	0.3702	0.7472	0.4307	0.049
Mof_C 	C 	0.1619	0.7435	0.46336	0.083
Mof_H 	H 	0.1401	0.78	0.4615	-0.001
Mof_C 	C 	0.1749	0.6568	0.47817	-0
Mof_H 	H 	0.163	0.6222	0.4885	0.027
Mof_C 	C 	0.2493	0.6693	0.4571	-0.009
Mof_H 	H 	0.2976	0.6451	0.4503	0.037
Mof_N 	N 	0.3809	0.79737	0.27703	-0.267
Mof_N 	N 	0.2541	0.77691	0.30856	-0.119
Mof_N 	N 	0.241	0.72416	0.4475	-0.116
Mof_N 	N 	0.1189	0.70374	0.48197	-0.265
Mof_C 	C 	0.058	0.9792	0.5466	0.394
Mof_C 	C 	0.056	0.9341	0.5245	0.347
Mof_C 	C 	-9.40135e-33	0.0237	0.67572	0.125
Mof_H 	H 	-9.18196e-33	0.0058	0.6979	-0.006
Mof_C 	C 	-9.4151e-33	0.0818	0.67433	-0.15
Mof_C 	C 	6.33385e-33	0.1077	0.64035	0.08
Mof_H 	H 	-9.76257e-33	0.1464	0.6392	0.021
Mof_C 	C 	-1.00613e-32	0.0778	0.609	-0.154
Mof_H 	H 	-1.02809e-32	0.0957	0.5868	0.096
Mof_C 	C 	-2.67754e-32	0.9836	0.5454	-0.659
Mof_C 	C 	2.12819e-32	0.9338	0.5254	-0.56
Mof_C 	C 	-1.07369e-32	0.881	0.5407	-0.057
Mof_C 	C 	5.7202e-33	0.8767	0.57831	0.051
Mof_H 	H 	-1.02571e-32	0.8418	0.5892	0.018
Mof_C 	C 	-2.58391e-32	0.9292	0.64006	0.608
Mof_C 	C 	-9.70797e-33	0.9927	0.64472	-0.237
Mof_C 	C 	-1.00395e-32	0.0196	0.6112	0.083
Mof_C 	C 	2.18526e-32	0.9766	0.5831	0.06
Mof_C 	C 	5.92781e-33	0.9242	0.5993	-0.225
Mof_C 	C 	-2.51654e-32	0.1159	0.70817	0.361
Mof_C 	C 	-1.09752e-32	0.8307	0.5166	0.318
Mof_C 	C 	2.34039e-32	0.3287	0.73993	0.355
Mof_C 	C 	-2.50698e-32	0.3802	0.71784	-0.105
Mof_C 	C 	2.334e-32	0.4324	0.73347	0.044
Mof_H 	H 	-2.46686e-32	0.4349	0.7584	0.013
Mof_C 	C 	-4.1196e-32	0.4808	0.71368	-0.117
Mof_H 	H 	-8.91391e-33	0.5154	0.725	0.094
Mof_C 	C 	-9.35011e-33	0.3767	0.6809	-0.016
Mof_H 	H 	6.62514e-33	0.3419	0.6698	0.058
Mof_C 	C 	-9.55783e-33	0.4247	0.6599	0.007
Mof_C 	C 	2.27749e-32	0.4768	0.67634	0.033
Mof_C 	C 	6.41347e-33	0.5203	0.6484	-0.006
Mof_C 	C 	-9.65278e-33	0.5778	0.6503	-0.056
Mof_H 	H 	-9.4332e-33	0.5958	0.6725	0.053
Mof_C 	C 	-9.96663e-33	0.6081	0.61857	-0.013
Mof_H 	H 	-2.60415e-32	0.6468	0.6196	0.051
Mof_C 	C 	-1.02931e-32	0.5824	0.58556	-0.048
Mof_C 	C 	5.7745e-33	0.5243	0.5838	-0.056
Mof_H 	H 	2.164e-32	0.5065	0.5616	0.078
Mof_C 	C 	6.08014e-33	0.4935	0.6147	0.038
Mof_C 	C 	-1.0631e-32	0.6158	0.5514	0.309
Mof_O 	O 	-9.12597e-33	0.16836	0.70356	-0.448
Mof_O 	O 	-8.79066e-33	0.0926	0.73746	-0.33
Mof_O 	O 	5.28251e-33	0.78444	0.53406	-0.444
Mof_O 	O 	-1.13006e-32	0.8352	0.48371	-0.297
Mof_O 	O 	7.14612e-33	0.28301	0.72247	-0.455
Mof_O 	O 	-8.44239e-33	0.3319	0.77267	-0.338
Mof_O 	O 	5.48963e-33	0.66888	0.555	-0.439
Mof_O 	O 	5.15818e-33	0.5926	0.52149	-0.295
Mof_Zn	Zn	-2.47701e-32	0.2123	0.74814	1.215
Mof_Zn	Zn	2.11327e-32	0.7119	0.51032	1.216
Mof_C 	C 	0.5	0.9763	0.17572	0.116
Mof_H 	H 	0.5	0.9942	0.1979	-0.008
Mof_C 	C 	0.5	0.9182	0.17433	-0.156
Mof_C 	C 	0.5	0.8923	0.14035	0.082
Mof_H 	H 	0.5	0.8536	0.1392	0.013
Mof_C 	C 	0.5	0.9222	0.109	-0.165
Mof_H 	H 	0.5	0.9043	0.0868	0.098
Mof_C 	C 	0.5	0.0164	0.0454	-0.101
Mof_C 	C 	0.5	0.0662	0.0254	-0.078
Mof_C 	C 	0.5	0.119	0.0407	-0.114
Mof_C 	C 	0.5	0.1233	0.07831	0.076
Mof_H 	H 	0.5	0.1582	0.0892	0.004
Mof_C 	C 	0.5	0.0708	0.14006	0.548
Mof_C 	C 	0.5	0.0073	0.14472	-0.228
Mof_C 	C 	0.5	0.9804	0.1112	0.098
Mof_C 	C 	0.5	0.0234	0.0831	0.028
Mof_C 	C 	0.5	0.0758	0.0993	-0.199
Mof_C 	C 	0.5	0.8841	0.20817	0.359
Mof_C 	C 	0.5	0.1693	0.0166	0.344
Mof_C 	C 	0.5	0.6713	0.23993	0.359
Mof_C 	C 	0.5	0.6198	0.21784	-0.123
Mof_C 	C 	0.5	0.5676	0.23347	0.051
Mof_H 	H 	0.5	0.5651	0.2584	0.005
Mof_C 	C 	0.5	0.5192	0.21368	-0.131
Mof_H 	H 	0.5	0.4846	0.225	0.093
Mof_C 	C 	0.5	0.6233	0.1809	-0.001
Mof_H 	H 	0.5	0.6581	0.1698	0.043
Mof_C 	C 	0.5	0.5753	0.1599	-0.026
Mof_C 	C 	0.5	0.5232	0.17634	0.036
Mof_C 	C 	0.5	0.4797	0.1484	-0.003
Mof_C 	C 	0.5	0.4222	0.1503	-0.071
Mof_H 	H 	0.5	0.4042	0.1725	0.05
Mof_C 	C 	0.5	0.3919	0.11857	-0.006
Mof_H 	H 	0.5	0.3532	0.1196	0.04
Mof_C 	C 	0.5	0.4176	0.08556	-0.068
Mof_C 	C 	0.5	0.4757	0.0838	-0.043
Mof_H 	H 	0.5	0.4935	0.0616	0.061
Mof_C 	C 	0.5	0.5065	0.1147	0.003
Mof_C 	C 	0.5	0.3842	0.0514	0.31
Mof_O 	O 	0.5	0.83164	0.20356	-0.459
Mof_O 	O 	0.5	0.9074	0.23746	-0.34
Mof_O 	O 	0.5	0.21556	0.03406	-0.46
Mof_O 	O 	0.5	0.1648	0.98371	-0.311
Mof_O 	O 	0.5	0.71699	0.22247	-0.468
Mof_O 	O 	0.5	0.6681	0.27267	-0.352
Mof_O 	O 	0.5	0.33112	0.055	-0.452
Mof_O 	O 	0.5	0.4074	0.02149	-0.313
Mof_Zn	Zn	0.5	0.7877	0.24814	1.208
Mof_Zn	Zn	0.5	0.2881	0.01032	1.209
Mof_C 	C 	0.5894	0.4025	0.65627	-1.047
Mof_H 	H 	0.5878	0.4061	0.682	0.347
Mof_H 	H 	0.6448	0.4209	0.647	0.337
Mof_H 	H 	0.5915	0.3637	0.6499	0.34
Mof_C 	C 	0.529	0.9305	0.6194	0.013
Mof_C 	C 	0.5416	0.8965	0.598	-0.012
Mof_C 	C 	0.625	0.9108	0.6079	-0.04
Mof_C 	C 	0.1708	0.2568	0.29114	0.087
Mof_H 	H 	0.1564	0.2191	0.2891	-0.012
Mof_C 	C 	0.1652	0.3458	0.28628	0.006
Mof_H 	H 	0.1459	0.3816	0.2801	0.025
Mof_C 	C 	0.2429	0.3331	0.3058	-0.009
Mof_H 	H 	0.2862	0.3582	0.3155	0.039
Mof_C 	C 	0.3153	0.2447	0.32953	-0.051
Mof_H 	H 	0.379	0.2546	0.3219	0.053
Mof_H 	H 	0.3063	0.2053	0.3249	0.045
Mof_C 	C 	0.3055	0.2556	0.36978	-0.112
Mof_H 	H 	0.3532	0.2341	0.3825	0.066
Mof_H 	H 	0.3178	0.2947	0.3744	0.069
Mof_C 	C 	0.2094	0.241	0.38457	-0.075
Mof_H 	H 	0.1993	0.2013	0.3815	0.042
Mof_H 	H 	0.1616	0.2602	0.3705	0.053
Mof_C 	C 	0.1949	0.2553	0.42403	-0.066
Mof_H 	H 	0.2053	0.2949	0.4275	0.052
Mof_H 	H 	0.1298	0.2472	0.4307	0.05
Mof_C 	C 	0.3381	0.2435	0.46336	0.083
Mof_H 	H 	0.3599	0.28	0.4615	-0
Mof_C 	C 	0.3251	0.1568	0.47817	-0.002
Mof_H 	H 	0.337	0.1222	0.4885	0.022
Mof_C 	C 	0.2507	0.1693	0.4571	-0.003
Mof_H 	H 	0.2024	0.1451	0.4503	0.021
Mof_N 	N 	0.1191	0.29737	0.27703	-0.265
Mof_N 	N 	0.2459	0.27691	0.30856	-0.12
Mof_N 	N 	0.259	0.22416	0.4475	-0.116
Mof_N 	N 	0.3811	0.20374	0.48197	-0.266
Mof_C 	C 	0.442	0.4792	0.5466	0.046
Mof_C 	C 	0.444	0.4341	0.5245	0.067
Mof_C 	C 	0.9106	0.5975	0.15627	-1.15
Mof_H 	H 	0.9122	0.5939	0.182	0.363
Mof_H 	H 	0.8552	0.5791	0.147	0.361
Mof_H 	H 	0.9085	0.6363	0.1499	0.358
Mof_C 	C 	0.971	0.0695	0.1194	0.823
Mof_C 	C 	0.9584	0.1035	0.098	-0.557
Mof_C 	C 	0.875	0.0892	0.1079	-0.048
Mof_C 	C 	0.3292	0.7432	0.79114	0.085
Mof_H 	H 	0.3436	0.7809	0.7891	-0.012
Mof_C 	C 	0.3348	0.6542	0.78628	0.004
Mof_H 	H 	0.3541	0.6184	0.7801	0.023
Mof_C 	C 	0.2571	0.6669	0.8058	-0.01
Mof_H 	H 	0.2138	0.6418	0.8155	0.037
Mof_C 	C 	0.1847	0.7553	0.82953	-0.056
Mof_H 	H 	0.121	0.7454	0.8219	0.056
Mof_H 	H 	0.1937	0.7947	0.8249	0.048
Mof_C 	C 	0.1945	0.7444	0.86978	-0.106
Mof_H 	H 	0.1468	0.7659	0.8825	0.063
Mof_H 	H 	0.1822	0.7053	0.8744	0.067
Mof_C 	C 	0.2906	0.759	0.88457	-0.08
Mof_H 	H 	0.3007	0.7987	0.8815	0.044
Mof_H 	H 	0.3384	0.7398	0.8705	0.052
Mof_C 	C 	0.3051	0.7447	0.92403	-0.063
Mof_H 	H 	0.2947	0.7051	0.9275	0.049
Mof_H 	H 	0.3702	0.7528	0.9307	0.049
Mof_C 	C 	0.1619	0.7565	0.96336	0.083
Mof_H 	H 	0.1401	0.72	0.9615	-0.001
Mof_C 	C 	0.1749	0.8432	0.97817	-0
Mof_H 	H 	0.163	0.8778	0.9885	0.027
Mof_C 	C 	0.2493	0.8307	0.9571	-0.009
Mof_H 	H 	0.2976	0.8549	0.9503	0.037
Mof_N 	N 	0.3809	0.70263	0.77703	-0.267
Mof_N 	N 	0.2541	0.72309	0.80856	-0.119
Mof_N 	N 	0.241	0.77584	0.9475	-0.116
Mof_N 	N 	0.1189	0.79626	0.98197	-0.265
Mof_C 	C 	0.058	0.5208	0.0466	0.398
Mof_C 	C 	0.056	0.5659	0.0245	0.349
Mof_C 	C 	0.0894	0.5975	0.15627	-1.112
Mof_H 	H 	0.0878	0.5939	0.182	0.373
Mof_H 	H 	0.1448	0.5791	0.147	0.358
Mof_H 	H 	0.0915	0.6363	0.1499	0.364
Mof_C 	C 	0.029	0.0695	0.1194	-0.856
Mof_C 	C 	0.0416	0.1035	0.098	0.549
Mof_C 	C 	0.125	0.0892	0.1079	-0.023
Mof_C 	C 	0.6708	0.7432	0.79114	0.085
Mof_H 	H 	0.6564	0.7809	0.7891	-0.015
Mof_C 	C 	0.6652	0.6542	0.78628	0.002
Mof_H 	H 	0.6459	0.6184	0.7801	0.021
Mof_C 	C 	0.7429	0.6669	0.8058	-0.01
Mof_H 	H 	0.7862	0.6418	0.8155	0.028
Mof_C 	C 	0.8153	0.7553	0.82953	-0.044
Mof_H 	H 	0.879	0.7454	0.8219	0.036
Mof_H 	H 	0.8063	0.7947	0.8249	0.035
Mof_C 	C 	0.8055	0.7444	0.86978	-0.112
Mof_H 	H 	0.8532	0.7659	0.8825	0.061
Mof_H 	H 	0.8178	0.7053	0.8744	0.061
Mof_C 	C 	0.7094	0.759	0.88457	-0.077
Mof_H 	H 	0.6993	0.7987	0.8815	0.044
Mof_H 	H 	0.6616	0.7398	0.8705	0.05
Mof_C 	C 	0.6949	0.7447	0.92403	-0.063
Mof_H 	H 	0.7053	0.7051	0.9275	0.047
Mof_H 	H 	0.6298	0.7528	0.9307	0.049
Mof_C 	C 	0.8381	0.7565	0.96336	0.084
Mof_H 	H 	0.8599	0.72	0.9615	-0.014
Mof_C 	C 	0.8251	0.8432	0.97817	0.006
Mof_H 	H 	0.837	0.8778	0.9885	0.019
Mof_C 	C 	0.7507	0.8307	0.9571	-0.004
Mof_H 	H 	0.7024	0.8549	0.9503	0.037
Mof_N 	N 	0.6191	0.70263	0.77703	-0.267
Mof_N 	N 	0.7459	0.72309	0.80856	-0.123
Mof_N 	N 	0.759	0.77584	0.9475	-0.115
Mof_N 	N 	0.8811	0.79626	0.98197	-0.279
Mof_C 	C 	0.942	0.5208	0.0466	0.349
Mof_C 	C 	0.944	0.5659	0.0245	0.296
Mof_C 	C 	0.4106	0.4025	0.65627	-1.061
Mof_H 	H 	0.4122	0.4061	0.682	0.355
Mof_H 	H 	0.3552	0.4209	0.647	0.35
Mof_H 	H 	0.4085	0.3637	0.6499	0.345
Mof_C 	C 	0.471	0.9305	0.6194	-0.006
Mof_C 	C 	0.4584	0.8965	0.598	-0.005
Mof_C 	C 	0.375	0.9108	0.6079	-0.035
Mof_C 	C 	0.8292	0.2568	0.29114	0.082
Mof_H 	H 	0.8436	0.2191	0.2891	-0.023
Mof_C 	C 	0.8348	0.3458	0.28628	0.001
Mof_H 	H 	0.8541	0.3816	0.2801	0.009
Mof_C 	C 	0.7571	0.3331	0.3058	-0.014
Mof_H 	H 	0.7138	0.3582	0.3155	0.036
Mof_C 	C 	0.6847	0.2447	0.32953	-0.052
Mof_H 	H 	0.621	0.2546	0.3219	0.053
Mof_H 	H 	0.6937	0.2053	0.3249	0.044
Mof_C 	C 	0.6945	0.2556	0.36978	-0.111
Mof_H 	H 	0.6468	0.2341	0.3825	0.065
Mof_H 	H 	0.6822	0.2947	0.3744	0.067
Mof_C 	C 	0.7906	0.241	0.38457	-0.075
Mof_H 	H 	0.8007	0.2013	0.3815	0.037
Mof_H 	H 	0.8384	0.2602	0.3705	0.042
Mof_C 	C 	0.8051	0.2553	0.42403	-0.059
Mof_H 	H 	0.7947	0.2949	0.4275	0.042
Mof_H 	H 	0.8702	0.2472	0.4307	0.033
Mof_C 	C 	0.6619	0.2435	0.46336	0.083
Mof_H 	H 	0.6401	0.28	0.4615	-0.002
Mof_C 	C 	0.6749	0.1568	0.47817	-0.003
Mof_H 	H 	0.663	0.1222	0.4885	0.021
Mof_C 	C 	0.7493	0.1693	0.4571	-0.004
Mof_H 	H 	0.7976	0.1451	0.4503	0.016
Mof_N 	N 	0.8809	0.29737	0.27703	-0.28
Mof_N 	N 	0.7541	0.27691	0.30856	-0.12
Mof_N 	N 	0.741	0.22416	0.4475	-0.118
Mof_N 	N 	0.6189	0.20374	0.48197	-0.266
Mof_C 	C 	0.558	0.4792	0.5466	0.041
Mof_C 	C 	0.556	0.4341	0.5245	0.065
Mof_C 	C 	0.5	0.5237	0.67572	0.116
Mof_H 	H 	0.5	0.5058	0.6979	-0.008
Mof_C 	C 	0.5	0.5818	0.67433	-0.156
Mof_C 	C 	0.5	0.6077	0.64035	0.083
Mof_H 	H 	0.5	0.6464	0.6392	0.013
Mof_C 	C 	0.5	0.5778	0.609	-0.165
Mof_H 	H 	0.5	0.5957	0.5868	0.098
Mof_C 	C 	0.5	0.4836	0.5454	-0.102
Mof_C 	C 	0.5	0.4338	0.5254	-0.078
Mof_C 	C 	0.5	0.381	0.5407	-0.114
Mof_C 	C 	0.5	0.3767	0.57831	0.076
Mof_H 	H 	0.5	0.3418	0.5892	0.004
Mof_C 	C 	0.5	0.4292	0.64006	0.549
Mof_C 	C 	0.5	0.4927	0.64472	-0.229
Mof_C 	C 	0.5	0.5196	0.6112	0.098
Mof_C 	C 	0.5	0.4766	0.5831	0.028
Mof_C 	C 	0.5	0.4242	0.5993	-0.199
Mof_C 	C 	0.5	0.6159	0.70817	0.36
Mof_C 	C 	0.5	0.3307	0.5166	0.344
Mof_C 	C 	0.5	0.8287	0.73993	0.359
Mof_C 	C 	0.5	0.8802	0.71784	-0.123
Mof_C 	C 	0.5	0.9324	0.73347	0.051
Mof_H 	H 	0.5	0.9349	0.7584	0.005
Mof_C 	C 	0.5	0.9808	0.71368	-0.131
Mof_H 	H 	0.5	0.0154	0.725	0.093
Mof_C 	C 	0.5	0.8767	0.6809	-0.001
Mof_H 	H 	0.5	0.8419	0.6698	0.043
Mof_C 	C 	0.5	0.9247	0.6599	-0.026
Mof_C 	C 	0.5	0.9768	0.67634	0.036
Mof_C 	C 	0.5	0.0203	0.6484	-0.003
Mof_C 	C 	0.5	0.0778	0.6503	-0.071
Mof_H 	H 	0.5	0.0958	0.6725	0.05
Mof_C 	C 	0.5	0.1081	0.61857	-0.007
Mof_H 	H 	0.5	0.1468	0.6196	0.04
Mof_C 	C 	0.5	0.0824	0.58556	-0.068
Mof_C 	C 	0.5	0.0243	0.5838	-0.043
Mof_H 	H 	0.5	0.0065	0.5616	0.061
Mof_C 	C 	0.5	0.9935	0.6147	0.003
Mof_C 	C 	0.5	0.1158	0.5514	0.31
Mof_O 	O 	0.5	0.66836	0.70356	-0.459
Mof_O 	O 	0.5	0.5926	0.73746	-0.34
Mof_O 	O 	0.5	0.28444	0.53406	-0.46
Mof_O 	O 	0.5	0.3352	0.48371	-0.31
Mof_O 	O 	0.5	0.78301	0.72247	-0.468
Mof_O 	O 	0.5	0.8319	0.77267	-0.352
Mof_O 	O 	0.5	0.16888	0.555	-0.452
Mof_O 	O 	0.5	0.0926	0.52149	-0.313
Mof_Zn	Zn	0.5	0.7123	0.74814	1.208
Mof_Zn	Zn	0.5	0.2119	0.51032	1.209
Mof_C 	C 	-2.28318e-33	0.4763	0.17572	0.125
Mof_H 	H 	1.95747e-33	0.4942	0.1979	-0.006
Mof_C 	C 	-1.43607e-32	0.4182	0.17433	-0.15
Mof_C 	C 	-6.65429e-33	0.3923	0.14035	0.08
Mof_H 	H 	1.37686e-33	0.3536	0.1392	0.021
Mof_C 	C 	-1.29963e-32	0.4222	0.109	-0.154
Mof_H 	H 	6.89045e-33	0.4043	0.0868	0.096
Mof_C 	C 	1.45438e-33	0.5164	0.0454	-0.664
Mof_C 	C 	-3.26737e-33	0.5662	0.0254	-0.563
Mof_C 	C 	4.42383e-33	0.619	0.0407	-0.056
Mof_C 	C 	-7.26794e-33	0.6233	0.07831	0.051
Mof_H 	H 	-7.16023e-33	0.6582	0.0892	0.018
Mof_C 	C 	-1.46997e-32	0.5708	0.14006	0.609
Mof_C 	C 	5.45272e-33	0.5073	0.14472	-0.237
Mof_C 	C 	-9.10726e-34	0.4804	0.1112	0.083
Mof_C 	C 	8.86448e-33	0.5234	0.0831	0.06
Mof_C 	C 	-9.07096e-33	0.5758	0.0993	-0.225
Mof_C 	C 	1.01016e-32	0.3841	0.20817	0.361
Mof_C 	C 	-1.34378e-33	0.6693	0.0166	0.317
Mof_C 	C 	2.3732e-33	0.1713	0.23993	0.355
Mof_C 	C 	-5.88782e-33	0.1198	0.21784	-0.105
Mof_C 	C 	2.30931e-33	0.0676	0.23347	0.044
Mof_H 	H 	2.55589e-33	0.0651	0.2584	0.013
Mof_C 	C 	6.13482e-33	0.0192	0.21368	-0.117
Mof_H 	H 	-2.1902e-32	0.9846	0.225	0.094
Mof_C 	C 	-2.23194e-33	0.1233	0.1809	-0.016
Mof_H 	H 	-6.36299e-33	0.1581	0.1698	0.058
Mof_C 	C 	1.58161e-33	0.0753	0.1599	0.007
Mof_C 	C 	1.74422e-33	0.0232	0.17634	0.033
Mof_C 	C 	5.48912e-33	0.9797	0.1484	-0.006
Mof_C 	C 	5.50791e-33	0.9222	0.1503	-0.056
Mof_H 	H 	-6.33629e-33	0.9042	0.1725	0.053
Mof_C 	C 	5.19406e-33	0.8919	0.11857	-0.013
Mof_H 	H 	5.20425e-33	0.8532	0.1196	0.051
Mof_C 	C 	-1.72494e-32	0.9176	0.08556	-0.048
Mof_C 	C 	1.0882e-32	0.9757	0.0838	-0.056
Mof_H 	H 	8.65182e-33	0.9935	0.0616	0.078
Mof_C 	C 	1.13452e-33	0.0065	0.1147	0.038
Mof_C 	C 	-2.50754e-33	0.8842	0.0514	0.309
Mof_O 	O 	-6.02907e-33	0.33164	0.20356	-0.448
Mof_O 	O 	2.34877e-33	0.4074	0.23746	-0.33
Mof_O 	O 	3.35284e-33	0.71556	0.03406	-0.444
Mof_O 	O 	9.7301e-33	0.6648	0.98371	-0.297
Mof_O 	O 	-5.84202e-33	0.21699	0.22247	-0.455
Mof_O 	O 	1.07396e-32	0.1681	0.27267	-0.338
Mof_O 	O 	6.57591e-33	0.83112	0.055	-0.439
Mof_O 	O 	-6.32199e-33	0.9074	0.02149	-0.295
Mof_Zn	Zn	2.45441e-33	0.2877	0.24814	1.215
Mof_Zn	Zn	5.37998e-33	0.7881	0.01032	1.216
_end
