data_functionalizedCrystal
_audit_creation_method	'EQeq! by Chris Wilmer'
_symmetry_space_group_name_H-M	'P1'
_symmetry_Int_Tables_number	1
_symmetry_cell_setting	triclinic
loop_
_symmetry_equiv_pos_as_xyz
  x,y,z
_cell_length_a	9.6299
_cell_length_b	9.7698
_cell_length_c	24.5639
_cell_angle_alpha	90
_cell_angle_beta	90
_cell_angle_gamma	90
loop_
_atom_site_label
_atom_site_type_symbol
_atom_site_fract_x
_atom_site_fract_y
_atom_site_fract_z
_atom_site_charge
Mof_Zn	Zn	0.50017	0.88751	0.98318	1.216
Mof_Zn	Zn	0.36874	0.8793	0.50282	1.22
Mof_Zn	Zn	0.99983	0.11249	0.48318	1.218
Mof_Zn	Zn	0.13126	0.1207	0.00282	1.221
Mof_Zn	Zn	0.49983	0.38751	0.51682	1.218
Mof_Zn	Zn	0.63126	0.3793	0.99718	1.222
Mof_Zn	Zn	0.00017	0.61249	0.01682	1.217
Mof_Zn	Zn	0.86874	0.6207	0.49718	1.222
Mof_P 	P 	0.7298	0.66146	0.947	0.463
Mof_P 	P 	0.41945	0.17008	0.93599	0.463
Mof_P 	P 	0.7702	0.33854	0.447	0.463
Mof_P 	P 	0.08055	0.82992	0.43599	0.464
Mof_P 	P 	0.2702	0.16146	0.553	0.463
Mof_P 	P 	0.58055	0.67008	0.56401	0.463
Mof_P 	P 	0.2298	0.83854	0.053	0.463
Mof_P 	P 	0.91945	0.32992	0.06401	0.466
Mof_H 	H 	0.7499	0.849	0.0562	-0.021
Mof_H 	H 	0.8321	0.9288	0.1382	0.1
Mof_H 	H 	0.5178	0.2007	0.1413	0.1
Mof_H 	H 	0.4424	0.1138	0.0597	-0.041
Mof_H 	H 	0.8353	0.1126	0.207	0.11
Mof_H 	H 	0.719	0.2294	0.2044	0.11
Mof_H 	H 	0.5575	0.0733	0.246	-0.001
Mof_H 	H 	0.6802	0.9637	0.2517	0.001
Mof_H 	H 	0.683	0.2264	0.304	0.113
Mof_H 	H 	0.8022	0.1137	0.3107	0.114
Mof_H 	H 	0.785	0.9585	0.3851	0.107
Mof_H 	H 	0.6654	0.8724	0.459	-0.029
Mof_H 	H 	0.3266	0.0653	0.4132	-0.036
Mof_H 	H 	0.4382	0.1549	0.3383	0.103
Mof_H 	H 	0.8017	0.6903	0.902	-0.045
Mof_H 	H 	0.3901	0.2233	0.8885	-0.045
Mof_H 	H 	0.7501	0.151	0.5562	-0.023
Mof_H 	H 	0.6679	0.0712	0.6382	0.1
Mof_H 	H 	0.9822	0.7993	0.6413	0.101
Mof_H 	H 	0.0576	0.8862	0.5597	-0.042
Mof_H 	H 	0.6647	0.8874	0.707	0.11
Mof_H 	H 	0.781	0.7706	0.7044	0.11
Mof_H 	H 	0.9425	0.9267	0.746	-0.001
Mof_H 	H 	0.8198	0.0363	0.7517	0.001
Mof_H 	H 	0.817	0.7736	0.804	0.113
Mof_H 	H 	0.6978	0.8863	0.8107	0.113
Mof_H 	H 	0.715	0.0415	0.8851	0.107
Mof_H 	H 	0.8346	0.1276	0.959	-0.028
Mof_H 	H 	0.1734	0.9347	0.9132	-0.036
Mof_H 	H 	0.0618	0.8451	0.8383	0.102
Mof_H 	H 	0.6983	0.3097	0.402	-0.045
Mof_H 	H 	0.1099	0.7767	0.3885	-0.045
Mof_H 	H 	0.2501	0.349	0.4438	-0.023
Mof_H 	H 	0.1679	0.4288	0.3618	0.101
Mof_H 	H 	0.4822	0.7007	0.3587	0.102
Mof_H 	H 	0.5576	0.6138	0.4403	-0.042
Mof_H 	H 	0.1647	0.6126	0.293	0.112
Mof_H 	H 	0.281	0.7294	0.2956	0.112
Mof_H 	H 	0.4425	0.5733	0.254	-0.003
Mof_H 	H 	0.3198	0.4637	0.2483	-0.003
Mof_H 	H 	0.317	0.7264	0.196	0.115
Mof_H 	H 	0.1978	0.6137	0.1893	0.115
Mof_H 	H 	0.215	0.4585	0.1149	0.108
Mof_H 	H 	0.3346	0.3724	0.041	-0.03
Mof_H 	H 	0.6734	0.5653	0.0868	-0.037
Mof_H 	H 	0.5618	0.6549	0.1617	0.104
Mof_H 	H 	0.1983	0.1903	0.598	-0.045
Mof_H 	H 	0.6099	0.7233	0.6115	-0.045
Mof_H 	H 	0.2499	0.651	0.9438	-0.024
Mof_H 	H 	0.3321	0.5712	0.8618	0.101
Mof_H 	H 	0.0178	0.2993	0.8587	0.103
Mof_H 	H 	0.9424	0.3862	0.9403	-0.042
Mof_H 	H 	0.3353	0.3874	0.793	0.113
Mof_H 	H 	0.219	0.2706	0.7956	0.113
Mof_H 	H 	0.0575	0.4267	0.754	-0.003
Mof_H 	H 	0.1802	0.5363	0.7483	-0.004
Mof_H 	H 	0.183	0.2736	0.696	0.116
Mof_H 	H 	0.3022	0.3863	0.6893	0.116
Mof_H 	H 	0.285	0.5415	0.6149	0.109
Mof_H 	H 	0.1654	0.6276	0.541	-0.03
Mof_H 	H 	0.8266	0.4347	0.5868	-0.037
Mof_H 	H 	0.9382	0.3451	0.6617	0.105
Mof_H 	H 	0.3017	0.8097	0.098	-0.045
Mof_H 	H 	0.8901	0.2767	0.1115	-0.045
Mof_C 	C 	0.7017	0.9211	0.07389	0.107
Mof_C 	C 	0.7515	0.9691	0.12271	-0.216
Mof_C 	C 	0.6859	0.0748	0.14954	0.189
Mof_C 	C 	0.5675	0.128	0.12459	-0.222
Mof_C 	C 	0.5229	0.0755	0.07601	0.106
Mof_C 	C 	0.7344	0.1292	0.20331	-0.299
Mof_C 	C 	0.6589	0.0628	0.25106	0.09
Mof_C 	C 	0.7012	0.1267	0.30537	-0.305
Mof_C 	C 	0.6255	0.0669	0.35331	0.201
Mof_C 	C 	0.6901	0.9819	0.39006	-0.233
Mof_C 	C 	0.6183	0.9304	0.43408	0.113
Mof_C 	C 	0.4214	0.0427	0.4073	0.11
Mof_C 	C 	0.4874	0.097	0.36262	-0.229
Mof_C 	C 	0.7983	0.0789	0.57389	0.108
Mof_C 	C 	0.7485	0.0309	0.62271	-0.219
Mof_C 	C 	0.8141	0.9252	0.64954	0.192
Mof_C 	C 	0.9325	0.872	0.62459	-0.225
Mof_C 	C 	0.9771	0.9245	0.57601	0.109
Mof_C 	C 	0.7656	0.8708	0.70331	-0.301
Mof_C 	C 	0.8411	0.9372	0.75106	0.09
Mof_C 	C 	0.7988	0.8733	0.80537	-0.304
Mof_C 	C 	0.8745	0.9331	0.85331	0.2
Mof_C 	C 	0.8099	0.0181	0.89006	-0.23
Mof_C 	C 	0.8817	0.0696	0.93408	0.112
Mof_C 	C 	0.0786	0.9573	0.9073	0.105
Mof_C 	C 	0.0126	0.903	0.86262	-0.228
Mof_C 	C 	0.2983	0.4211	0.42611	0.11
Mof_C 	C 	0.2485	0.4691	0.37729	-0.224
Mof_C 	C 	0.3141	0.5748	0.35046	0.198
Mof_C 	C 	0.4325	0.628	0.37541	-0.228
Mof_C 	C 	0.4771	0.5755	0.42399	0.112
Mof_C 	C 	0.2656	0.6292	0.29669	-0.307
Mof_C 	C 	0.3411	0.5628	0.24894	0.1
Mof_C 	C 	0.2988	0.6267	0.19463	-0.311
Mof_C 	C 	0.3745	0.5669	0.14669	0.206
Mof_C 	C 	0.3099	0.4819	0.10994	-0.237
Mof_C 	C 	0.3817	0.4304	0.06592	0.115
Mof_C 	C 	0.5786	0.5427	0.0927	0.113
Mof_C 	C 	0.5126	0.597	0.13738	-0.232
Mof_C 	C 	0.2017	0.5789	0.92611	0.11
Mof_C 	C 	0.2515	0.5309	0.87729	-0.225
Mof_C 	C 	0.1859	0.4252	0.85046	0.199
Mof_C 	C 	0.0675	0.372	0.87541	-0.228
Mof_C 	C 	0.0229	0.4245	0.92399	0.112
Mof_C 	C 	0.2344	0.3708	0.79669	-0.308
Mof_C 	C 	0.1589	0.4372	0.74894	0.101
Mof_C 	C 	0.2012	0.3733	0.69463	-0.313
Mof_C 	C 	0.1255	0.4331	0.64669	0.21
Mof_C 	C 	0.1901	0.5181	0.60994	-0.24
Mof_C 	C 	0.1183	0.5696	0.56592	0.117
Mof_C 	C 	0.9214	0.4573	0.5927	0.114
Mof_C 	C 	0.9874	0.403	0.63738	-0.235
Mof_N 	N 	0.58743	0.97266	0.05036	-0.288
Mof_N 	N 	0.48375	0.95993	0.44278	-0.296
Mof_N 	N 	0.91257	0.02734	0.55036	-0.29
Mof_N 	N 	0.01625	0.04007	0.94278	-0.293
Mof_N 	N 	0.41257	0.47266	0.44964	-0.291
Mof_N 	N 	0.51625	0.45993	0.05722	-0.297
Mof_N 	N 	0.08743	0.52734	0.94964	-0.291
Mof_N 	N 	0.98375	0.54007	0.55722	-0.298
Mof_O 	O 	0.60465	0.75204	0.94586	-0.473
Mof_O 	O 	0.44275	0.01771	0.92669	-0.454
Mof_O 	O 	0.82523	0.69245	0.99414	-0.485
Mof_O 	O 	0.69166	0.51051	0.94314	-0.463
Mof_O 	O 	0.29817	0.20078	0.97269	-0.478
Mof_O 	O 	0.55135	0.23743	0.9551	-0.478
Mof_O 	O 	0.89535	0.24796	0.44586	-0.473
Mof_O 	O 	0.05725	0.98229	0.42669	-0.456
Mof_O 	O 	0.67477	0.30755	0.49414	-0.485
Mof_O 	O 	0.80834	0.48949	0.44314	-0.463
Mof_O 	O 	0.20183	0.79922	0.47269	-0.48
Mof_O 	O 	0.94865	0.76257	0.4551	-0.478
Mof_O 	O 	0.39535	0.25204	0.55414	-0.472
Mof_O 	O 	0.55725	0.51771	0.57331	-0.456
Mof_O 	O 	0.17477	0.19245	0.50586	-0.484
Mof_O 	O 	0.30834	0.01051	0.55686	-0.462
Mof_O 	O 	0.70183	0.70078	0.52731	-0.48
Mof_O 	O 	0.44865	0.73743	0.5449	-0.478
Mof_O 	O 	0.10465	0.74796	0.05414	-0.473
Mof_O 	O 	0.94275	0.48229	0.07331	-0.454
Mof_O 	O 	0.32523	0.80755	0.00586	-0.484
Mof_O 	O 	0.19166	0.98949	0.05686	-0.463
Mof_O 	O 	0.79817	0.29922	0.02731	-0.479
Mof_O 	O 	0.05135	0.26257	0.0449	-0.481
_end
