data_functionalizedCrystal
_audit_creation_method	'EQeq! by Chris Wilmer'
_symmetry_space_group_name_H-M	'P1'
_symmetry_Int_Tables_number	1
_symmetry_cell_setting	triclinic
loop_
_symmetry_equiv_pos_as_xyz
  x,y,z
_cell_length_a	28.3425
_cell_length_b	28.3425
_cell_length_c	28.3425
_cell_angle_alpha	109.471
_cell_angle_beta	109.471
_cell_angle_gamma	109.471
loop_
_atom_site_label
_atom_site_type_symbol
_atom_site_fract_x
_atom_site_fract_y
_atom_site_fract_z
_atom_site_charge
Mof_H 	H 	0.58566	0.13588	0.06299	0.011
Mof_H 	H 	0.62038	0.21622	0.03863	0.048
Mof_H 	H 	0.47139	0.09819	0.86918	0.051
Mof_H 	H 	0.44524	0.03014	0.89995	0.008
Mof_H 	H 	0.66087	0.19049	0.89775	0.062
Mof_H 	H 	0.58511	0.12941	0.85522	0.057
Mof_H 	H 	0.62886	0.15692	0.93383	0.061
Mof_C 	C 	0.56071	0.12786	0.01757	0.058
Mof_C 	C 	0.5791	0.1732	0.0045	-0.128
Mof_C 	C 	0.5456	0.1619	0.9513	0.11
Mof_C 	C 	0.5001	0.1103	0.9154	-0.141
Mof_C 	C 	0.48712	0.0734	0.93072	0.079
Mof_C 	C 	0.5658	0.2081	0.9369	-0.108
Mof_C 	C 	0.599	0.2107	0.9121	0.079
Mof_C 	C 	0.6196	0.1696	0.899	-0.181
Mof_N 	N 	0.51738	0.07762	0.98156	-0.158
Mof_H 	H 	0.5729	0.52267	0.43701	0.01
Mof_H 	H 	0.67759	0.58175	0.46137	0.048
Mof_H 	H 	0.72901	0.60221	0.63082	0.051
Mof_H 	H 	0.6302	0.54529	0.60005	0.01
Mof_H 	H 	0.7258	0.69923	0.56224	0.06
Mof_H 	H 	0.79774	0.76629	0.61079	0.062
Mof_H 	H 	0.76647	0.72251	0.64016	0.057
Mof_C 	C 	0.61029	0.54314	0.48243	0.063
Mof_C 	C 	0.6687	0.5746	0.4955	-0.119
Mof_C 	C 	0.7106	0.5943	0.5487	0.1
Mof_C 	C 	0.6949	0.5847	0.5846	-0.136
Mof_C 	C 	0.64268	0.5564	0.56928	0.077
Mof_C 	C 	0.7712	0.6289	0.5631	-0.106
Mof_C 	C 	0.7986	0.6869	0.5879	0.079
Mof_C 	C 	0.7706	0.7206	0.601	-0.18
Mof_N 	N 	0.59606	0.53582	0.51844	-0.161
Mof_H 	H 	0.9271	0.36412	0.94978	0.016
Mof_H 	H 	0.82241	0.28378	0.90416	0.05
Mof_H 	H 	0.77099	0.40181	0.8732	0.052
Mof_H 	H 	0.8698	0.46986	0.9151	0.013
Mof_H 	H 	0.77132	0.33162	0.97436	0.063
Mof_H 	H 	0.69933	0.31631	0.96713	0.066
Mof_H 	H 	0.73934	0.37526	0.95654	0.061
Mof_C 	C 	0.88971	0.37214	0.93285	0.065
Mof_C 	C 	0.8313	0.3268	0.9059	-0.116
Mof_C 	C 	0.7894	0.3381	0.8837	0.102
Mof_C 	C 	0.8051	0.3897	0.8898	-0.136
Mof_C 	C 	0.85732	0.4266	0.91372	0.078
Mof_C 	C 	0.7288	0.2919	0.8577	-0.106
Mof_C 	C 	0.7014	0.2893	0.8883	0.08
Mof_C 	C 	0.7294	0.3304	0.95	-0.181
Mof_N 	N 	0.90394	0.42238	0.93976	-0.158
Mof_H 	H 	0.91434	0.97733	0.55022	0.015
Mof_H 	H 	0.87962	0.91825	0.59584	0.048
Mof_H 	H 	0.02861	0.89779	0.6268	0.039
Mof_H 	H 	0.05476	0.95471	0.5849	0.019
Mof_H 	H 	0.83538	0.74077	0.5281	0.062
Mof_H 	H 	0.9112	0.76348	0.54431	0.058
Mof_H 	H 	0.87859	0.80772	0.52957	0.062
Mof_C 	C 	0.93929	0.95686	0.56715	0.061
Mof_C 	C 	0.9209	0.9254	0.5941	-0.107
Mof_C 	C 	0.9544	0.9057	0.6163	0.084
Mof_C 	C 	0.9999	0.9153	0.6102	-0.098
Mof_C 	C 	0.01288	0.9436	0.58628	0.045
Mof_C 	C 	0.9342	0.8711	0.6423	-0.097
Mof_C 	C 	0.901	0.8131	0.6117	0.077
Mof_C 	C 	0.8804	0.7794	0.55	-0.177
Mof_N 	N 	0.98262	0.96418	0.56024	-0.148
Mof_H 	H 	0.06299	0.58566	0.13588	0.012
Mof_H 	H 	0.03863	0.62038	0.21622	0.049
Mof_H 	H 	0.86918	0.47139	0.09819	0.052
Mof_H 	H 	0.89995	0.44524	0.03014	0.009
Mof_H 	H 	0.85293	0.58772	0.13206	0.057
Mof_H 	H 	0.93047	0.62337	0.15253	0.062
Mof_H 	H 	0.9034	0.66374	0.19222	0.062
Mof_C 	C 	0.01757	0.56071	0.12786	0.058
Mof_C 	C 	0.0045	0.5791	0.1732	-0.128
Mof_C 	C 	0.9513	0.5456	0.1619	0.111
Mof_C 	C 	0.9154	0.5001	0.1103	-0.141
Mof_C 	C 	0.93072	0.48712	0.0734	0.08
Mof_C 	C 	0.9369	0.5658	0.2081	-0.106
Mof_C 	C 	0.9121	0.599	0.2107	0.08
Mof_C 	C 	0.899	0.6196	0.1696	-0.179
Mof_N 	N 	0.98156	0.51738	0.07762	-0.156
Mof_H 	H 	0.43701	0.5729	0.52267	0.011
Mof_H 	H 	0.46137	0.67759	0.58175	0.049
Mof_H 	H 	0.63082	0.72901	0.60221	0.052
Mof_H 	H 	0.60005	0.6302	0.54529	0.011
Mof_H 	H 	0.63924	0.76512	0.72126	0.058
Mof_H 	H 	0.56172	0.72641	0.70006	0.061
Mof_H 	H 	0.61224	0.79848	0.7667	0.064
Mof_C 	C 	0.48243	0.61029	0.54314	0.064
Mof_C 	C 	0.4955	0.6687	0.5746	-0.117
Mof_C 	C 	0.5487	0.7106	0.5943	0.102
Mof_C 	C 	0.5846	0.6949	0.5847	-0.137
Mof_C 	C 	0.56928	0.64268	0.5564	0.077
Mof_C 	C 	0.5631	0.7712	0.6289	-0.106
Mof_C 	C 	0.5879	0.7986	0.6869	0.081
Mof_C 	C 	0.601	0.7706	0.7206	-0.18
Mof_N 	N 	0.51844	0.59606	0.53582	-0.162
Mof_H 	H 	0.94978	0.9271	0.36412	0.016
Mof_H 	H 	0.90416	0.82241	0.28378	0.05
Mof_H 	H 	0.8732	0.77099	0.40181	0.053
Mof_H 	H 	0.9151	0.8698	0.46986	0.012
Mof_H 	H 	0.97131	0.71039	0.30807	0.064
Mof_H 	H 	0.95566	0.72181	0.36848	0.06
Mof_H 	H 	0.97106	0.77779	0.34663	0.064
Mof_C 	C 	0.93285	0.88971	0.37214	0.065
Mof_C 	C 	0.9059	0.8313	0.3268	-0.116
Mof_C 	C 	0.8837	0.7894	0.3381	0.101
Mof_C 	C 	0.8898	0.8051	0.3897	-0.136
Mof_C 	C 	0.91372	0.85732	0.4266	0.078
Mof_C 	C 	0.8577	0.7288	0.2919	-0.106
Mof_C 	C 	0.8883	0.7014	0.2893	0.08
Mof_C 	C 	0.95	0.7294	0.3304	-0.18
Mof_N 	N 	0.93976	0.90394	0.42238	-0.158
Mof_H 	H 	0.55022	0.91434	0.97733	0.015
Mof_H 	H 	0.59584	0.87962	0.91825	0.048
Mof_H 	H 	0.6268	0.02861	0.89779	0.04
Mof_H 	H 	0.5849	0.05476	0.95471	0.018
Mof_H 	H 	0.52398	0.8438	0.78444	0.06
Mof_H 	H 	0.53672	0.86397	0.73188	0.064
Mof_H 	H 	0.54128	0.9174	0.79565	0.061
Mof_C 	C 	0.56715	0.93929	0.95686	0.061
Mof_C 	C 	0.5941	0.9209	0.9254	-0.108
Mof_C 	C 	0.6163	0.9544	0.9057	0.086
Mof_C 	C 	0.6102	0.9999	0.9153	-0.102
Mof_C 	C 	0.58628	0.01288	0.9436	0.049
Mof_C 	C 	0.6423	0.9342	0.8711	-0.099
Mof_C 	C 	0.6117	0.901	0.8131	0.077
Mof_C 	C 	0.55	0.8804	0.7794	-0.18
Mof_N 	N 	0.56024	0.98262	0.96418	-0.149
Mof_H 	H 	0.13588	0.06299	0.58566	0.012
Mof_H 	H 	0.21622	0.03863	0.62038	0.049
Mof_H 	H 	0.09819	0.86918	0.47139	0.052
Mof_H 	H 	0.03014	0.89995	0.44524	0.008
Mof_H 	H 	0.18599	0.88726	0.6541	0.064
Mof_H 	H 	0.12575	0.86109	0.58193	0.058
Mof_H 	H 	0.16507	0.93845	0.63881	0.062
Mof_C 	C 	0.12786	0.01757	0.56071	0.058
Mof_C 	C 	0.1732	0.0045	0.5791	-0.126
Mof_C 	C 	0.1619	0.9513	0.5456	0.111
Mof_C 	C 	0.1103	0.9154	0.5001	-0.141
Mof_C 	C 	0.0734	0.93072	0.48712	0.08
Mof_C 	C 	0.2081	0.9369	0.5658	-0.106
Mof_C 	C 	0.2107	0.9121	0.599	0.08
Mof_C 	C 	0.1696	0.899	0.6196	-0.18
Mof_N 	N 	0.07762	0.98156	0.51738	-0.157
Mof_H 	H 	0.52267	0.43701	0.5729	0.011
Mof_H 	H 	0.58175	0.46137	0.67759	0.049
Mof_H 	H 	0.60221	0.63082	0.72901	0.053
Mof_H 	H 	0.54529	0.60005	0.6302	0.011
Mof_H 	H 	0.69252	0.57032	0.72193	0.062
Mof_H 	H 	0.75969	0.59541	0.78794	0.062
Mof_H 	H 	0.73582	0.64747	0.78014	0.059
Mof_C 	C 	0.54314	0.48243	0.61029	0.063
Mof_C 	C 	0.5746	0.4955	0.6687	-0.118
Mof_C 	C 	0.5943	0.5487	0.7106	0.1
Mof_C 	C 	0.5847	0.5846	0.6949	-0.135
Mof_C 	C 	0.5564	0.56928	0.64268	0.076
Mof_C 	C 	0.6289	0.5631	0.7712	-0.106
Mof_C 	C 	0.6869	0.5879	0.7986	0.08
Mof_C 	C 	0.7206	0.601	0.7706	-0.18
Mof_N 	N 	0.53582	0.51844	0.59606	-0.161
Mof_H 	H 	0.36412	0.94978	0.9271	0.015
Mof_H 	H 	0.28378	0.90416	0.82241	0.05
Mof_H 	H 	0.40181	0.8732	0.77099	0.053
Mof_H 	H 	0.46986	0.9151	0.8698	0.013
Mof_H 	H 	0.30828	0.97116	0.70987	0.064
Mof_H 	H 	0.36884	0.95566	0.72244	0.059
Mof_H 	H 	0.34606	0.97121	0.77768	0.064
Mof_C 	C 	0.37214	0.93285	0.88971	0.065
Mof_C 	C 	0.3268	0.9059	0.8313	-0.117
Mof_C 	C 	0.3381	0.8837	0.7894	0.101
Mof_C 	C 	0.3897	0.8898	0.8051	-0.135
Mof_C 	C 	0.4266	0.91372	0.85732	0.078
Mof_C 	C 	0.2919	0.8577	0.7288	-0.106
Mof_C 	C 	0.2893	0.8883	0.7014	0.08
Mof_C 	C 	0.3304	0.95	0.7294	-0.18
Mof_N 	N 	0.42238	0.93976	0.90394	-0.158
Mof_H 	H 	0.97733	0.55022	0.91434	0.015
Mof_H 	H 	0.91825	0.59584	0.87962	0.048
Mof_H 	H 	0.89779	0.6268	0.02861	0.041
Mof_H 	H 	0.95471	0.5849	0.05476	0.018
Mof_H 	H 	0.80152	0.52679	0.86429	0.061
Mof_H 	H 	0.73414	0.53115	0.84356	0.063
Mof_H 	H 	0.77631	0.54403	0.91731	0.059
Mof_C 	C 	0.95686	0.56715	0.93929	0.061
Mof_C 	C 	0.9254	0.5941	0.9209	-0.109
Mof_C 	C 	0.9057	0.6163	0.9544	0.085
Mof_C 	C 	0.9153	0.6102	0.9999	-0.101
Mof_C 	C 	0.9436	0.58628	0.01288	0.048
Mof_C 	C 	0.8711	0.6423	0.9342	-0.098
Mof_C 	C 	0.8131	0.6117	0.901	0.077
Mof_C 	C 	0.7794	0.55	0.8804	-0.179
Mof_N 	N 	0.96418	0.56024	0.98262	-0.149
Mof_H 	H 	0.97733	0.9271	0.06299	0.016
Mof_H 	H 	0.91825	0.82241	0.03863	0.051
Mof_H 	H 	0.89779	0.77099	0.86918	0.054
Mof_H 	H 	0.95471	0.8698	0.89995	0.013
Mof_H 	H 	0.73384	0.69526	0.86152	0.064
Mof_H 	H 	0.801	0.76127	0.88662	0.061
Mof_H 	H 	0.77713	0.75347	0.93867	0.061
Mof_C 	C 	0.95686	0.88971	0.01757	0.059
Mof_C 	C 	0.9254	0.8313	0.0045	-0.125
Mof_C 	C 	0.9057	0.7894	0.9513	0.111
Mof_C 	C 	0.9153	0.8051	0.9154	-0.142
Mof_C 	C 	0.9436	0.85732	0.93072	0.081
Mof_C 	C 	0.8711	0.7288	0.9369	-0.107
Mof_C 	C 	0.8131	0.7014	0.9121	0.083
Mof_C 	C 	0.7794	0.7294	0.899	-0.181
Mof_N 	N 	0.96418	0.90394	0.98156	-0.153
Mof_H 	H 	0.36412	0.91434	0.43701	0.013
Mof_H 	H 	0.28378	0.87962	0.46137	0.048
Mof_H 	H 	0.40181	0.02861	0.63082	0.041
Mof_H 	H 	0.46986	0.05476	0.60005	0.017
Mof_H 	H 	0.36812	0.90421	0.59606	0.062
Mof_H 	H 	0.30787	0.83204	0.56988	0.059
Mof_H 	H 	0.3472	0.88892	0.64725	0.061
Mof_C 	C 	0.37214	0.93929	0.48243	0.06
Mof_C 	C 	0.3268	0.9209	0.4955	-0.108
Mof_C 	C 	0.3381	0.9544	0.5487	0.083
Mof_C 	C 	0.3897	0.9999	0.5846	-0.103
Mof_C 	C 	0.4266	0.01288	0.56928	0.048
Mof_C 	C 	0.2919	0.9342	0.5631	-0.098
Mof_C 	C 	0.2893	0.901	0.5879	0.079
Mof_C 	C 	0.3304	0.8804	0.601	-0.178
Mof_N 	N 	0.42238	0.98262	0.51844	-0.151
Mof_H 	H 	0.52267	0.58566	0.94978	0.014
Mof_H 	H 	0.58175	0.62038	0.90416	0.05
Mof_H 	H 	0.60221	0.47139	0.8732	0.053
Mof_H 	H 	0.54529	0.44524	0.9151	0.012
Mof_H 	H 	0.76021	0.61418	0.95881	0.064
Mof_H 	H 	0.69282	0.59345	0.96317	0.064
Mof_H 	H 	0.735	0.6672	0.97605	0.062
Mof_C 	C 	0.54314	0.56071	0.93285	0.064
Mof_C 	C 	0.5746	0.5791	0.9059	-0.115
Mof_C 	C 	0.5943	0.5456	0.8837	0.1
Mof_C 	C 	0.5847	0.5001	0.8898	-0.137
Mof_C 	C 	0.5564	0.48712	0.91372	0.078
Mof_C 	C 	0.6289	0.5658	0.8577	-0.106
Mof_C 	C 	0.6869	0.599	0.8883	0.083
Mof_C 	C 	0.7206	0.6196	0.95	-0.181
Mof_N 	N 	0.53582	0.51738	0.93976	-0.16
Mof_H 	H 	0.13588	0.5729	0.55022	0.012
Mof_H 	H 	0.21622	0.67759	0.59584	0.05
Mof_H 	H 	0.09819	0.72901	0.6268	0.051
Mof_H 	H 	0.03014	0.6302	0.5849	0.008
Mof_H 	H 	0.12616	0.73654	0.53914	0.061
Mof_H 	H 	0.18672	0.74911	0.52364	0.059
Mof_H 	H 	0.16394	0.80435	0.53919	0.063
Mof_C 	C 	0.12786	0.61029	0.56715	0.063
Mof_C 	C 	0.1732	0.6687	0.5941	-0.116
Mof_C 	C 	0.1619	0.7106	0.6163	0.099
Mof_C 	C 	0.1103	0.6949	0.6102	-0.138
Mof_C 	C 	0.0734	0.64268	0.58628	0.076
Mof_C 	C 	0.2081	0.7712	0.6423	-0.106
Mof_C 	C 	0.2107	0.7986	0.6117	0.082
Mof_C 	C 	0.1696	0.7706	0.55	-0.18
Mof_N 	N 	0.07762	0.59606	0.56024	-0.162
Mof_H 	H 	0.5729	0.55022	0.13588	0.012
Mof_H 	H 	0.67759	0.59584	0.21622	0.05
Mof_H 	H 	0.72901	0.6268	0.09819	0.052
Mof_H 	H 	0.6302	0.5849	0.03014	0.009
Mof_H 	H 	0.798	0.54235	0.14949	0.06
Mof_H 	H 	0.726	0.53511	0.13418	0.062
Mof_H 	H 	0.76601	0.52452	0.19313	0.059
Mof_C 	C 	0.61029	0.56715	0.12786	0.063
Mof_C 	C 	0.6687	0.5941	0.1732	-0.117
Mof_C 	C 	0.7106	0.6163	0.1619	0.098
Mof_C 	C 	0.6949	0.6102	0.1103	-0.137
Mof_C 	C 	0.64268	0.58628	0.0734	0.076
Mof_C 	C 	0.7712	0.6423	0.2081	-0.105
Mof_C 	C 	0.7986	0.6117	0.2107	0.082
Mof_C 	C 	0.7706	0.55	0.1696	-0.179
Mof_N 	N 	0.59606	0.56024	0.07762	-0.162
Mof_H 	H 	0.58566	0.94978	0.52267	0.013
Mof_H 	H 	0.62038	0.90416	0.58175	0.05
Mof_H 	H 	0.47139	0.8732	0.60221	0.052
Mof_H 	H 	0.44524	0.9151	0.54529	0.012
Mof_H 	H 	0.58527	0.96011	0.69946	0.063
Mof_H 	H 	0.66109	0.97632	0.72216	0.062
Mof_H 	H 	0.62848	0.96159	0.76641	0.066
Mof_C 	C 	0.56071	0.93285	0.54314	0.064
Mof_C 	C 	0.5791	0.9059	0.5746	-0.116
Mof_C 	C 	0.5456	0.8837	0.5943	0.1
Mof_C 	C 	0.5001	0.8898	0.5847	-0.137
Mof_C 	C 	0.48712	0.91372	0.5564	0.077
Mof_C 	C 	0.5658	0.8577	0.6289	-0.106
Mof_C 	C 	0.599	0.8883	0.6869	0.082
Mof_C 	C 	0.6196	0.95	0.7206	-0.182
Mof_N 	N 	0.51738	0.93976	0.53582	-0.16
Mof_H 	H 	0.91434	0.43701	0.36412	0.013
Mof_H 	H 	0.87962	0.46137	0.28378	0.047
Mof_H 	H 	0.02861	0.63082	0.40181	0.039
Mof_H 	H 	0.05476	0.60005	0.46986	0.017
Mof_H 	H 	0.91098	0.60655	0.37261	0.062
Mof_H 	H 	0.83522	0.56402	0.31154	0.059
Mof_H 	H 	0.87897	0.64263	0.33904	0.062
Mof_C 	C 	0.93929	0.48243	0.37214	0.059
Mof_C 	C 	0.9209	0.4955	0.3268	-0.106
Mof_C 	C 	0.9544	0.5487	0.3381	0.081
Mof_C 	C 	0.9999	0.5846	0.3897	-0.1
Mof_C 	C 	0.01288	0.56928	0.4266	0.044
Mof_C 	C 	0.9342	0.5631	0.2919	-0.097
Mof_C 	C 	0.901	0.5879	0.2893	0.079
Mof_C 	C 	0.8804	0.601	0.3304	-0.179
Mof_N 	N 	0.98262	0.51844	0.42238	-0.15
Mof_H 	H 	0.9271	0.06299	0.97733	0.016
Mof_H 	H 	0.82241	0.03863	0.91825	0.051
Mof_H 	H 	0.77099	0.86918	0.89779	0.054
Mof_H 	H 	0.8698	0.89995	0.95471	0.013
Mof_H 	H 	0.69913	0.85345	0.74054	0.062
Mof_H 	H 	0.77107	0.90199	0.8076	0.063
Mof_H 	H 	0.7398	0.93137	0.76383	0.061
Mof_C 	C 	0.88971	0.01757	0.95686	0.059
Mof_C 	C 	0.8313	0.0045	0.9254	-0.125
Mof_C 	C 	0.7894	0.9513	0.9057	0.109
Mof_C 	C 	0.8051	0.9154	0.9153	-0.141
Mof_C 	C 	0.85732	0.93072	0.9436	0.081
Mof_C 	C 	0.7288	0.9369	0.8711	-0.107
Mof_C 	C 	0.7014	0.9121	0.8131	0.083
Mof_C 	C 	0.7294	0.899	0.7794	-0.181
Mof_N 	N 	0.90394	0.98156	0.96418	-0.153
Mof_H 	H 	0.94978	0.52267	0.58566	0.014
Mof_H 	H 	0.90416	0.58175	0.62038	0.051
Mof_H 	H 	0.8732	0.60221	0.47139	0.053
Mof_H 	H 	0.9151	0.54529	0.44524	0.012
Mof_H 	H 	0.956	0.74313	0.59369	0.06
Mof_H 	H 	0.96873	0.69057	0.61386	0.064
Mof_H 	H 	0.97329	0.75433	0.66729	0.063
Mof_C 	C 	0.93285	0.54314	0.56071	0.064
Mof_C 	C 	0.9059	0.5746	0.5791	-0.116
Mof_C 	C 	0.8837	0.5943	0.5456	0.099
Mof_C 	C 	0.8898	0.5847	0.5001	-0.136
Mof_C 	C 	0.91372	0.5564	0.48712	0.077
Mof_C 	C 	0.8577	0.6289	0.5658	-0.105
Mof_C 	C 	0.8883	0.6869	0.599	0.082
Mof_C 	C 	0.95	0.7206	0.6196	-0.179
Mof_N 	N 	0.93976	0.53582	0.51738	-0.159
Mof_H 	H 	0.55022	0.13588	0.5729	0.012
Mof_H 	H 	0.59584	0.21622	0.67759	0.05
Mof_H 	H 	0.6268	0.09819	0.72901	0.051
Mof_H 	H 	0.5849	0.03014	0.6302	0.009
Mof_H 	H 	0.53929	0.12595	0.73707	0.061
Mof_H 	H 	0.52364	0.18636	0.74848	0.059
Mof_H 	H 	0.53904	0.16451	0.80446	0.063
Mof_C 	C 	0.56715	0.12786	0.61029	0.063
Mof_C 	C 	0.5941	0.1732	0.6687	-0.116
Mof_C 	C 	0.6163	0.1619	0.7106	0.099
Mof_C 	C 	0.6102	0.1103	0.6949	-0.137
Mof_C 	C 	0.58628	0.0734	0.64268	0.076
Mof_C 	C 	0.6423	0.2081	0.7712	-0.106
Mof_C 	C 	0.6117	0.2107	0.7986	0.082
Mof_C 	C 	0.55	0.1696	0.7706	-0.18
Mof_N 	N 	0.56024	0.07762	0.59606	-0.162
Mof_H 	H 	0.06299	0.97733	0.9271	0.016
Mof_H 	H 	0.03863	0.91825	0.82241	0.051
Mof_H 	H 	0.86918	0.89779	0.77099	0.054
Mof_H 	H 	0.89995	0.95471	0.8698	0.013
Mof_H 	H 	0.93044	0.76258	0.73845	0.061
Mof_H 	H 	0.85292	0.74138	0.69973	0.062
Mof_H 	H 	0.90345	0.80802	0.77181	0.063
Mof_C 	C 	0.01757	0.95686	0.88971	0.058
Mof_C 	C 	0.0045	0.9254	0.8313	-0.127
Mof_C 	C 	0.9513	0.9057	0.7894	0.11
Mof_C 	C 	0.9154	0.9153	0.8051	-0.141
Mof_C 	C 	0.93072	0.9436	0.85732	0.081
Mof_C 	C 	0.9369	0.8711	0.7288	-0.106
Mof_C 	C 	0.9121	0.8131	0.7014	0.082
Mof_C 	C 	0.899	0.7794	0.7294	-0.18
Mof_N 	N 	0.98156	0.96418	0.90394	-0.152
Mof_H 	H 	0.43701	0.36412	0.91434	0.013
Mof_H 	H 	0.46137	0.28378	0.87962	0.048
Mof_H 	H 	0.63082	0.40181	0.02861	0.04
Mof_H 	H 	0.60005	0.46986	0.05476	0.016
Mof_H 	H 	0.56173	0.31419	0.83783	0.059
Mof_H 	H 	0.63927	0.33466	0.87348	0.064
Mof_H 	H 	0.6122	0.37435	0.91385	0.062
Mof_C 	C 	0.48243	0.37214	0.93929	0.06
Mof_C 	C 	0.4955	0.3268	0.9209	-0.108
Mof_C 	C 	0.5487	0.3381	0.9544	0.084
Mof_C 	C 	0.5846	0.3897	0.9999	-0.104
Mof_C 	C 	0.56928	0.4266	0.01288	0.048
Mof_C 	C 	0.5631	0.2919	0.9342	-0.099
Mof_C 	C 	0.5879	0.2893	0.901	0.08
Mof_C 	C 	0.601	0.3304	0.8804	-0.179
Mof_N 	N 	0.51844	0.42238	0.98262	-0.151
Mof_H 	H 	0.41434	0.86412	0.93701	0.012
Mof_H 	H 	0.37962	0.78378	0.96137	0.05
Mof_H 	H 	0.52861	0.90181	0.13082	0.052
Mof_H 	H 	0.55476	0.96986	0.10005	0.014
Mof_H 	H 	0.33522	0.81154	0.06402	0.058
Mof_H 	H 	0.41098	0.87261	0.10655	0.062
Mof_H 	H 	0.37897	0.83904	0.14263	0.063
Mof_C 	C 	0.43929	0.87214	0.98243	0.068
Mof_C 	C 	0.4209	0.8268	0.9955	-0.106
Mof_C 	C 	0.4544	0.8381	0.0487	0.089
Mof_C 	C 	0.4999	0.8897	0.0846	-0.132
Mof_C 	C 	0.51288	0.9266	0.06928	0.073
Mof_C 	C 	0.4342	0.7919	0.0631	-0.104
Mof_C 	C 	0.401	0.7893	0.0879	0.081
Mof_C 	C 	0.3804	0.8304	0.101	-0.18
Mof_N 	N 	0.48262	0.92238	0.01844	-0.164
Mof_H 	H 	0.4271	0.47733	0.56299	0.012
Mof_H 	H 	0.32241	0.41825	0.53863	0.05
Mof_H 	H 	0.27099	0.39779	0.36918	0.052
Mof_H 	H 	0.3698	0.45471	0.39995	0.011
Mof_H 	H 	0.27107	0.3076	0.40199	0.062
Mof_H 	H 	0.19913	0.24054	0.35345	0.062
Mof_H 	H 	0.2398	0.26383	0.43137	0.06
Mof_C 	C 	0.38971	0.45686	0.51757	0.063
Mof_C 	C 	0.3313	0.4254	0.5045	-0.116
Mof_C 	C 	0.2894	0.4057	0.4513	0.099
Mof_C 	C 	0.3051	0.4153	0.4154	-0.137
Mof_C 	C 	0.35732	0.4436	0.43072	0.076
Mof_C 	C 	0.2288	0.3711	0.4369	-0.106
Mof_C 	C 	0.2014	0.3131	0.4121	0.082
Mof_C 	C 	0.2294	0.2794	0.399	-0.18
Mof_N 	N 	0.40394	0.46418	0.48156	-0.161
Mof_H 	H 	0.0729	0.63588	0.05022	0.008
Mof_H 	H 	0.17759	0.71622	0.09584	0.049
Mof_H 	H 	0.22901	0.59819	0.1268	0.052
Mof_H 	H 	0.1302	0.53014	0.0849	0.011
Mof_H 	H 	0.226	0.63418	0.03511	0.06
Mof_H 	H 	0.298	0.64949	0.04235	0.059
Mof_H 	H 	0.26601	0.69313	0.02452	0.058
Mof_C 	C 	0.11029	0.62786	0.06715	0.061
Mof_C 	C 	0.1687	0.6732	0.0941	-0.117
Mof_C 	C 	0.2106	0.6619	0.1163	0.098
Mof_C 	C 	0.1949	0.6103	0.1102	-0.137
Mof_C 	C 	0.14268	0.5734	0.08628	0.075
Mof_C 	C 	0.2712	0.7081	0.1423	-0.105
Mof_C 	C 	0.2986	0.7107	0.1117	0.081
Mof_C 	C 	0.2706	0.6696	0.05	-0.178
Mof_N 	N 	0.09606	0.57762	0.06024	-0.162
Mof_H 	H 	0.08566	0.02267	0.44978	0.009
Mof_H 	H 	0.12038	0.08175	0.40416	0.051
Mof_H 	H 	0.97139	0.10221	0.3732	0.064
Mof_H 	H 	0.94524	0.04529	0.4151	0.004
Mof_H 	H 	0.16109	0.22216	0.47632	0.059
Mof_H 	H 	0.08527	0.19946	0.46011	0.061
Mof_H 	H 	0.12848	0.26641	0.46159	0.064
Mof_C 	C 	0.06071	0.04314	0.43285	0.066
Mof_C 	C 	0.0791	0.0746	0.4059	-0.126
Mof_C 	C 	0.0456	0.0943	0.3837	0.116
Mof_C 	C 	0.0001	0.0847	0.3898	-0.172
Mof_C 	C 	0.98712	0.0564	0.41372	0.106
Mof_C 	C 	0.0658	0.1289	0.3577	-0.113
Mof_C 	C 	0.099	0.1869	0.3883	0.084
Mof_C 	C 	0.1196	0.2206	0.45	-0.182
Mof_N 	N 	0.01738	0.03582	0.43976	-0.171
Mof_H 	H 	0.93701	0.41434	0.86412	0.012
Mof_H 	H 	0.96137	0.37962	0.78378	0.05
Mof_H 	H 	0.13082	0.52861	0.90181	0.052
Mof_H 	H 	0.10005	0.55476	0.96986	0.014
Mof_H 	H 	0.13927	0.37348	0.83466	0.064
Mof_H 	H 	0.06173	0.33783	0.81419	0.058
Mof_H 	H 	0.1122	0.41385	0.87435	0.062
Mof_C 	C 	0.98243	0.43929	0.87214	0.069
Mof_C 	C 	0.9955	0.4209	0.8268	-0.105
Mof_C 	C 	0.0487	0.4544	0.8381	0.088
Mof_C 	C 	0.0846	0.4999	0.8897	-0.132
Mof_C 	C 	0.06928	0.51288	0.9266	0.073
Mof_C 	C 	0.0631	0.4342	0.7919	-0.105
Mof_C 	C 	0.0879	0.401	0.7893	0.082
Mof_C 	C 	0.101	0.3804	0.8304	-0.18
Mof_N 	N 	0.01844	0.48262	0.92238	-0.164
Mof_H 	H 	0.56299	0.4271	0.47733	0.012
Mof_H 	H 	0.53863	0.32241	0.41825	0.05
Mof_H 	H 	0.36918	0.27099	0.39779	0.052
Mof_H 	H 	0.39995	0.3698	0.45471	0.011
Mof_H 	H 	0.35292	0.19973	0.24138	0.062
Mof_H 	H 	0.43044	0.23845	0.26258	0.059
Mof_H 	H 	0.40345	0.27181	0.30802	0.062
Mof_C 	C 	0.51757	0.38971	0.45686	0.063
Mof_C 	C 	0.5045	0.3313	0.4254	-0.117
Mof_C 	C 	0.4513	0.2894	0.4057	0.098
Mof_C 	C 	0.4154	0.3051	0.4153	-0.136
Mof_C 	C 	0.43072	0.35732	0.4436	0.076
Mof_C 	C 	0.4369	0.2288	0.3711	-0.105
Mof_C 	C 	0.4121	0.2014	0.3131	0.081
Mof_C 	C 	0.399	0.2294	0.2794	-0.18
Mof_N 	N 	0.48156	0.40394	0.46418	-0.161
Mof_H 	H 	0.05022	0.0729	0.63588	0.008
Mof_H 	H 	0.09584	0.17759	0.71622	0.049
Mof_H 	H 	0.1268	0.22901	0.59819	0.052
Mof_H 	H 	0.0849	0.1302	0.53014	0.011
Mof_H 	H 	0.02364	0.24848	0.68636	0.057
Mof_H 	H 	0.03929	0.23707	0.62595	0.059
Mof_H 	H 	0.03904	0.30446	0.66451	0.062
Mof_C 	C 	0.06715	0.11029	0.62786	0.061
Mof_C 	C 	0.0941	0.1687	0.6732	-0.117
Mof_C 	C 	0.1163	0.2106	0.6619	0.099
Mof_C 	C 	0.1102	0.1949	0.6103	-0.137
Mof_C 	C 	0.08628	0.14268	0.5734	0.075
Mof_C 	C 	0.1423	0.2712	0.7081	-0.106
Mof_C 	C 	0.1117	0.2986	0.7107	0.082
Mof_C 	C 	0.05	0.2706	0.6696	-0.18
Mof_N 	N 	0.06024	0.09606	0.57762	-0.162
Mof_H 	H 	0.44978	0.08566	0.02267	0.009
Mof_H 	H 	0.40416	0.12038	0.08175	0.051
Mof_H 	H 	0.3732	0.97139	0.10221	0.063
Mof_H 	H 	0.4151	0.94524	0.04529	0.005
Mof_H 	H 	0.46873	0.11386	0.19057	0.062
Mof_H 	H 	0.456	0.09369	0.24313	0.058
Mof_H 	H 	0.47329	0.16729	0.25433	0.061
Mof_C 	C 	0.43285	0.06071	0.04314	0.065
Mof_C 	C 	0.4059	0.0791	0.0746	-0.125
Mof_C 	C 	0.3837	0.0456	0.0943	0.112
Mof_C 	C 	0.3898	0.0001	0.0847	-0.167
Mof_C 	C 	0.41372	0.98712	0.0564	0.102
Mof_C 	C 	0.3577	0.0658	0.1289	-0.113
Mof_C 	C 	0.3883	0.099	0.1869	0.084
Mof_C 	C 	0.45	0.1196	0.2206	-0.18
Mof_N 	N 	0.43976	0.01738	0.03582	-0.17
Mof_H 	H 	0.86412	0.93701	0.41434	0.012
Mof_H 	H 	0.78378	0.96137	0.37962	0.05
Mof_H 	H 	0.90181	0.13082	0.52861	0.053
Mof_H 	H 	0.96986	0.10005	0.55476	0.015
Mof_H 	H 	0.80787	0.06988	0.33204	0.059
Mof_H 	H 	0.86812	0.09606	0.40421	0.062
Mof_H 	H 	0.8472	0.14725	0.38892	0.061
Mof_C 	C 	0.87214	0.98243	0.43929	0.068
Mof_C 	C 	0.8268	0.9955	0.4209	-0.107
Mof_C 	C 	0.8381	0.0487	0.4544	0.089
Mof_C 	C 	0.8897	0.0846	0.4999	-0.132
Mof_C 	C 	0.9266	0.06928	0.51288	0.073
Mof_C 	C 	0.7919	0.0631	0.4342	-0.105
Mof_C 	C 	0.7893	0.0879	0.401	0.082
Mof_C 	C 	0.8304	0.101	0.3804	-0.179
Mof_N 	N 	0.92238	0.01844	0.48262	-0.163
Mof_H 	H 	0.47733	0.56299	0.4271	0.011
Mof_H 	H 	0.41825	0.53863	0.32241	0.049
Mof_H 	H 	0.39779	0.36918	0.27099	0.052
Mof_H 	H 	0.45471	0.39995	0.3698	0.011
Mof_H 	H 	0.301	0.38662	0.26127	0.061
Mof_H 	H 	0.23384	0.36152	0.19526	0.063
Mof_H 	H 	0.27713	0.43867	0.25347	0.059
Mof_C 	C 	0.45686	0.51757	0.38971	0.063
Mof_C 	C 	0.4254	0.5045	0.3313	-0.117
Mof_C 	C 	0.4057	0.4513	0.2894	0.1
Mof_C 	C 	0.4153	0.4154	0.3051	-0.137
Mof_C 	C 	0.4436	0.43072	0.35732	0.077
Mof_C 	C 	0.3711	0.4369	0.2288	-0.106
Mof_C 	C 	0.3131	0.4121	0.2014	0.082
Mof_C 	C 	0.2794	0.399	0.2294	-0.18
Mof_N 	N 	0.46418	0.48156	0.40394	-0.161
Mof_H 	H 	0.63588	0.05022	0.0729	0.009
Mof_H 	H 	0.71622	0.09584	0.17759	0.049
Mof_H 	H 	0.59819	0.1268	0.22901	0.052
Mof_H 	H 	0.53014	0.0849	0.1302	0.01
Mof_H 	H 	0.68672	0.02364	0.24911	0.057
Mof_H 	H 	0.62616	0.03914	0.23654	0.06
Mof_H 	H 	0.66394	0.03919	0.30435	0.062
Mof_C 	C 	0.62786	0.06715	0.11029	0.062
Mof_C 	C 	0.6732	0.0941	0.1687	-0.116
Mof_C 	C 	0.6619	0.1163	0.2106	0.099
Mof_C 	C 	0.6103	0.1102	0.1949	-0.138
Mof_C 	C 	0.5734	0.08628	0.14268	0.076
Mof_C 	C 	0.7081	0.1423	0.2712	-0.106
Mof_C 	C 	0.7107	0.1117	0.2986	0.081
Mof_C 	C 	0.6696	0.05	0.2706	-0.18
Mof_N 	N 	0.57762	0.06024	0.09606	-0.162
Mof_H 	H 	0.02267	0.44978	0.08566	0.009
Mof_H 	H 	0.08175	0.40416	0.12038	0.05
Mof_H 	H 	0.10221	0.3732	0.97139	0.063
Mof_H 	H 	0.04529	0.4151	0.94524	0.005
Mof_H 	H 	0.19282	0.46317	0.09345	0.062
Mof_H 	H 	0.26021	0.45881	0.11418	0.062
Mof_H 	H 	0.235	0.47605	0.1672	0.06
Mof_C 	C 	0.04314	0.43285	0.06071	0.065
Mof_C 	C 	0.0746	0.4059	0.0791	-0.124
Mof_C 	C 	0.0943	0.3837	0.0456	0.114
Mof_C 	C 	0.0847	0.3898	0.0001	-0.169
Mof_C 	C 	0.0564	0.41372	0.98712	0.102
Mof_C 	C 	0.1289	0.3577	0.0658	-0.114
Mof_C 	C 	0.1869	0.3883	0.099	0.085
Mof_C 	C 	0.2206	0.45	0.1196	-0.182
Mof_N 	N 	0.03582	0.43976	0.01738	-0.17
Mof_H 	H 	0.02267	0.0729	0.93701	0.008
Mof_H 	H 	0.08175	0.17759	0.96137	0.048
Mof_H 	H 	0.10221	0.22901	0.13082	0.051
Mof_H 	H 	0.04529	0.1302	0.10005	0.011
Mof_H 	H 	0.25969	0.28794	0.09541	0.061
Mof_H 	H 	0.19252	0.22193	0.07032	0.06
Mof_H 	H 	0.23582	0.28014	0.14747	0.059
Mof_C 	C 	0.04314	0.11029	0.98243	0.067
Mof_C 	C 	0.0746	0.1687	0.9955	-0.11
Mof_C 	C 	0.0943	0.2106	0.0487	0.09
Mof_C 	C 	0.0847	0.1949	0.0846	-0.132
Mof_C 	C 	0.0564	0.14268	0.06928	0.072
Mof_C 	C 	0.1289	0.2712	0.0631	-0.106
Mof_C 	C 	0.1869	0.2986	0.0879	0.079
Mof_C 	C 	0.2206	0.2706	0.101	-0.179
Mof_N 	N 	0.03582	0.09606	0.01844	-0.166
Mof_H 	H 	0.63588	0.08566	0.56299	0.01
Mof_H 	H 	0.71622	0.12038	0.53863	0.051
Mof_H 	H 	0.59819	0.97139	0.36918	0.064
Mof_H 	H 	0.53014	0.94524	0.39995	0.006
Mof_H 	H 	0.62575	0.08193	0.36109	0.058
Mof_H 	H 	0.68599	0.1541	0.38726	0.064
Mof_H 	H 	0.66507	0.13881	0.43845	0.061
Mof_C 	C 	0.62786	0.06071	0.51757	0.067
Mof_C 	C 	0.6732	0.0791	0.5045	-0.125
Mof_C 	C 	0.6619	0.0456	0.4513	0.116
Mof_C 	C 	0.6103	0.0001	0.4154	-0.17
Mof_C 	C 	0.5734	0.98712	0.43072	0.106
Mof_C 	C 	0.7081	0.0658	0.4369	-0.113
Mof_C 	C 	0.7107	0.099	0.4121	0.082
Mof_C 	C 	0.6696	0.1196	0.399	-0.182
Mof_N 	N 	0.57762	0.01738	0.48156	-0.17
Mof_H 	H 	0.47733	0.41434	0.05022	0.01
Mof_H 	H 	0.41825	0.37962	0.09584	0.048
Mof_H 	H 	0.39779	0.52861	0.1268	0.052
Mof_H 	H 	0.45471	0.55476	0.0849	0.01
Mof_H 	H 	0.23414	0.34356	0.03115	0.061
Mof_H 	H 	0.30152	0.36429	0.02679	0.059
Mof_H 	H 	0.27631	0.41731	0.04403	0.056
Mof_C 	C 	0.45686	0.43929	0.06715	0.062
Mof_C 	C 	0.4254	0.4209	0.0941	-0.117
Mof_C 	C 	0.4057	0.4544	0.1163	0.1
Mof_C 	C 	0.4153	0.4999	0.1102	-0.137
Mof_C 	C 	0.4436	0.51288	0.08628	0.076
Mof_C 	C 	0.3711	0.4342	0.1423	-0.105
Mof_C 	C 	0.3131	0.401	0.1117	0.078
Mof_C 	C 	0.2794	0.3804	0.05	-0.179
Mof_N 	N 	0.46418	0.48262	0.06024	-0.162
Mof_H 	H 	0.86412	0.4271	0.44978	0.012
Mof_H 	H 	0.78378	0.32241	0.40416	0.049
Mof_H 	H 	0.90181	0.27099	0.3732	0.053
Mof_H 	H 	0.96986	0.3698	0.4151	0.015
Mof_H 	H 	0.86884	0.22244	0.45566	0.058
Mof_H 	H 	0.80828	0.20987	0.47116	0.063
Mof_H 	H 	0.84606	0.27768	0.47121	0.062
Mof_C 	C 	0.87214	0.38971	0.43285	0.064
Mof_C 	C 	0.8268	0.3313	0.4059	-0.118
Mof_C 	C 	0.8381	0.2894	0.3837	0.101
Mof_C 	C 	0.8897	0.3051	0.3898	-0.135
Mof_C 	C 	0.9266	0.35732	0.41372	0.077
Mof_C 	C 	0.7919	0.2288	0.3577	-0.106
Mof_C 	C 	0.7893	0.2014	0.3883	0.079
Mof_C 	C 	0.8304	0.2294	0.45	-0.18
Mof_N 	N 	0.92238	0.40394	0.43976	-0.16
Mof_H 	H 	0.4271	0.44978	0.86412	0.012
Mof_H 	H 	0.32241	0.40416	0.78378	0.049
Mof_H 	H 	0.27099	0.3732	0.90181	0.053
Mof_H 	H 	0.3698	0.4151	0.96986	0.014
Mof_H 	H 	0.19933	0.46713	0.81631	0.065
Mof_H 	H 	0.27132	0.47436	0.83162	0.061
Mof_H 	H 	0.23934	0.45654	0.87526	0.06
Mof_C 	C 	0.38971	0.43285	0.87214	0.064
Mof_C 	C 	0.3313	0.4059	0.8268	-0.117
Mof_C 	C 	0.2894	0.3837	0.8381	0.102
Mof_C 	C 	0.3051	0.3898	0.8897	-0.136
Mof_C 	C 	0.35732	0.41372	0.9266	0.078
Mof_C 	C 	0.2288	0.3577	0.7919	-0.106
Mof_C 	C 	0.2014	0.3883	0.7893	0.079
Mof_C 	C 	0.2294	0.45	0.8304	-0.181
Mof_N 	N 	0.40394	0.43976	0.92238	-0.16
Mof_H 	H 	0.41434	0.05022	0.47733	0.01
Mof_H 	H 	0.37962	0.09584	0.41825	0.048
Mof_H 	H 	0.52861	0.1268	0.39779	0.052
Mof_H 	H 	0.55476	0.0849	0.45471	0.011
Mof_H 	H 	0.4112	0.04431	0.26348	0.056
Mof_H 	H 	0.33538	0.0281	0.24077	0.06
Mof_H 	H 	0.37859	0.02957	0.30772	0.06
Mof_C 	C 	0.43929	0.06715	0.45686	0.062
Mof_C 	C 	0.4209	0.0941	0.4254	-0.117
Mof_C 	C 	0.4544	0.1163	0.4057	0.1
Mof_C 	C 	0.4999	0.1102	0.4153	-0.136
Mof_C 	C 	0.51288	0.08628	0.4436	0.076
Mof_C 	C 	0.4342	0.1423	0.3711	-0.105
Mof_C 	C 	0.401	0.1117	0.3131	0.079
Mof_C 	C 	0.3804	0.05	0.2794	-0.178
Mof_N 	N 	0.48262	0.06024	0.46418	-0.162
Mof_H 	H 	0.08566	0.56299	0.63588	0.01
Mof_H 	H 	0.12038	0.53863	0.71622	0.051
Mof_H 	H 	0.97139	0.36918	0.59819	0.066
Mof_H 	H 	0.94524	0.39995	0.53014	0.005
Mof_H 	H 	0.08511	0.35522	0.62941	0.058
Mof_H 	H 	0.16087	0.39775	0.69049	0.063
Mof_H 	H 	0.12886	0.43383	0.65692	0.062
Mof_C 	C 	0.06071	0.51757	0.62786	0.067
Mof_C 	C 	0.0791	0.5045	0.6732	-0.127
Mof_C 	C 	0.0456	0.4513	0.6619	0.118
Mof_C 	C 	0.0001	0.4154	0.6103	-0.174
Mof_C 	C 	0.98712	0.43072	0.5734	0.109
Mof_C 	C 	0.0658	0.4369	0.7081	-0.114
Mof_C 	C 	0.099	0.4121	0.7107	0.083
Mof_C 	C 	0.1196	0.399	0.6696	-0.181
Mof_N 	N 	0.01738	0.48156	0.57762	-0.171
Mof_H 	H 	0.0729	0.93701	0.02267	0.008
Mof_H 	H 	0.17759	0.96137	0.08175	0.047
Mof_H 	H 	0.22901	0.13082	0.10221	0.051
Mof_H 	H 	0.1302	0.10005	0.04529	0.01
Mof_H 	H 	0.29774	0.11079	0.26629	0.063
Mof_H 	H 	0.2258	0.06224	0.19923	0.059
Mof_H 	H 	0.26647	0.14016	0.22251	0.058
Mof_C 	C 	0.11029	0.98243	0.04314	0.067
Mof_C 	C 	0.1687	0.9955	0.0746	-0.11
Mof_C 	C 	0.2106	0.0487	0.0943	0.092
Mof_C 	C 	0.1949	0.0846	0.0847	-0.132
Mof_C 	C 	0.14268	0.06928	0.0564	0.073
Mof_C 	C 	0.2712	0.0631	0.1289	-0.106
Mof_C 	C 	0.2986	0.0879	0.1869	0.079
Mof_C 	C 	0.2706	0.101	0.2206	-0.18
Mof_N 	N 	0.09606	0.01844	0.03582	-0.166
Mof_H 	H 	0.05022	0.47733	0.41434	0.01
Mof_H 	H 	0.09584	0.41825	0.37962	0.048
Mof_H 	H 	0.1268	0.39779	0.52861	0.052
Mof_H 	H 	0.0849	0.45471	0.55476	0.01
Mof_H 	H 	0.03672	0.23188	0.36397	0.063
Mof_H 	H 	0.02398	0.28444	0.3438	0.057
Mof_H 	H 	0.04128	0.29565	0.4174	0.059
Mof_C 	C 	0.06715	0.45686	0.43929	0.062
Mof_C 	C 	0.0941	0.4254	0.4209	-0.118
Mof_C 	C 	0.1163	0.4057	0.4544	0.101
Mof_C 	C 	0.1102	0.4153	0.4999	-0.137
Mof_C 	C 	0.08628	0.4436	0.51288	0.076
Mof_C 	C 	0.1423	0.3711	0.4342	-0.106
Mof_C 	C 	0.1117	0.3131	0.401	0.079
Mof_C 	C 	0.05	0.2794	0.3804	-0.18
Mof_N 	N 	0.06024	0.46418	0.48262	-0.162
Mof_H 	H 	0.44978	0.86412	0.4271	0.012
Mof_H 	H 	0.40416	0.78378	0.32241	0.049
Mof_H 	H 	0.3732	0.90181	0.27099	0.053
Mof_H 	H 	0.4151	0.96986	0.3698	0.014
Mof_H 	H 	0.45566	0.86848	0.22181	0.059
Mof_H 	H 	0.47131	0.80807	0.21039	0.062
Mof_H 	H 	0.47106	0.84663	0.27779	0.062
Mof_C 	C 	0.43285	0.87214	0.38971	0.064
Mof_C 	C 	0.4059	0.8268	0.3313	-0.117
Mof_C 	C 	0.3837	0.8381	0.2894	0.101
Mof_C 	C 	0.3898	0.8897	0.3051	-0.135
Mof_C 	C 	0.41372	0.9266	0.35732	0.077
Mof_C 	C 	0.3577	0.7919	0.2288	-0.105
Mof_C 	C 	0.3883	0.7893	0.2014	0.079
Mof_C 	C 	0.45	0.8304	0.2294	-0.18
Mof_N 	N 	0.43976	0.92238	0.40394	-0.16
Mof_H 	H 	0.93701	0.02267	0.0729	0.008
Mof_H 	H 	0.96137	0.08175	0.17759	0.047
Mof_H 	H 	0.13082	0.10221	0.22901	0.051
Mof_H 	H 	0.10005	0.04529	0.1302	0.011
Mof_H 	H 	0.06172	0.20006	0.22641	0.059
Mof_H 	H 	0.13924	0.22126	0.26512	0.058
Mof_H 	H 	0.11224	0.2667	0.29848	0.063
Mof_C 	C 	0.98243	0.04314	0.11029	0.068
Mof_C 	C 	0.9955	0.0746	0.1687	-0.107
Mof_C 	C 	0.0487	0.0943	0.2106	0.091
Mof_C 	C 	0.0846	0.0847	0.1949	-0.132
Mof_C 	C 	0.06928	0.0564	0.14268	0.073
Mof_C 	C 	0.0631	0.1289	0.2712	-0.105
Mof_C 	C 	0.0879	0.1869	0.2986	0.079
Mof_C 	C 	0.101	0.2206	0.2706	-0.18
Mof_N 	N 	0.01844	0.03582	0.09606	-0.166
Mof_H 	H 	0.56299	0.63588	0.08566	0.01
Mof_H 	H 	0.53863	0.71622	0.12038	0.051
Mof_H 	H 	0.36918	0.59819	0.97139	0.064
Mof_H 	H 	0.39995	0.53014	0.94524	0.006
Mof_H 	H 	0.43047	0.65253	0.12337	0.062
Mof_H 	H 	0.35293	0.63206	0.08772	0.057
Mof_H 	H 	0.4034	0.69222	0.16374	0.062
Mof_C 	C 	0.51757	0.62786	0.06071	0.067
Mof_C 	C 	0.5045	0.6732	0.0791	-0.126
Mof_C 	C 	0.4513	0.6619	0.0456	0.116
Mof_C 	C 	0.4154	0.6103	0.0001	-0.169
Mof_C 	C 	0.43072	0.5734	0.98712	0.105
Mof_C 	C 	0.4369	0.7081	0.0658	-0.113
Mof_C 	C 	0.4121	0.7107	0.099	0.082
Mof_C 	C 	0.399	0.6696	0.1196	-0.18
Mof_N 	N 	0.48156	0.57762	0.01738	-0.17
Mof_Cd	Cd	0.5	0	-0	0.354
Mof_Cd	Cd	0.5	0.5	0.5	0.367
Mof_Cd	Cd	-0	0.5	-0	0.353
Mof_Cd	Cd	1.29731e-17	0	0.5	0.353
Mof_Cd	Cd	-0	0	-0	0.347
Mof_Cd	Cd	0.5	0	0.5	0.36
Mof_Cd	Cd	0.5	0.5	-0	0.36
Mof_Cd	Cd	1.29731e-17	0.5	0.5	0.359
Mof_C 	C 	0.5149	0.25	0.9851	-0.162
Mof_C 	C 	0.5493	0.25	0.9507	0.075
Mof_C 	C 	0.6076	0.25	0.8924	-0.063
Mof_C 	C 	0.7649	0.5298	0.5149	-0.171
Mof_C 	C 	0.7993	0.5986	0.5493	0.077
Mof_C 	C 	0.8576	0.7152	0.6076	-0.061
Mof_C 	C 	0.7351	0.25	0.7649	-0.171
Mof_C 	C 	0.7007	0.25	0.7993	0.077
Mof_C 	C 	0.6424	0.25	0.8576	-0.063
Mof_C 	C 	0.9851	0.9702	0.7351	-0.161
Mof_C 	C 	0.9507	0.9014	0.7007	0.075
Mof_C 	C 	0.8924	0.7848	0.6424	-0.061
Mof_C 	C 	0.9851	0.5149	0.25	-0.161
Mof_C 	C 	0.9507	0.5493	0.25	0.075
Mof_C 	C 	0.8924	0.6076	0.25	-0.06
Mof_C 	C 	0.5149	0.7649	0.5298	-0.171
Mof_C 	C 	0.5493	0.7993	0.5986	0.078
Mof_C 	C 	0.6076	0.8576	0.7152	-0.063
Mof_C 	C 	0.7649	0.7351	0.25	-0.171
Mof_C 	C 	0.7993	0.7007	0.25	0.077
Mof_C 	C 	0.8576	0.6424	0.25	-0.062
Mof_C 	C 	0.7351	0.9851	0.9702	-0.162
Mof_C 	C 	0.7007	0.9507	0.9014	0.076
Mof_C 	C 	0.6424	0.8924	0.7848	-0.063
Mof_C 	C 	0.25	0.9851	0.5149	-0.162
Mof_C 	C 	0.25	0.9507	0.5493	0.075
Mof_C 	C 	0.25	0.8924	0.6076	-0.061
Mof_C 	C 	0.5298	0.5149	0.7649	-0.171
Mof_C 	C 	0.5986	0.5493	0.7993	0.078
Mof_C 	C 	0.7152	0.6076	0.8576	-0.064
Mof_C 	C 	0.25	0.7649	0.7351	-0.171
Mof_C 	C 	0.25	0.7993	0.7007	0.077
Mof_C 	C 	0.25	0.8576	0.6424	-0.063
Mof_C 	C 	0.9702	0.7351	0.9851	-0.163
Mof_C 	C 	0.9014	0.7007	0.9507	0.076
Mof_C 	C 	0.7848	0.6424	0.8924	-0.06
Mof_C 	C 	0.4851	0.75	0.0149	-0.18
Mof_C 	C 	0.4507	0.75	0.0493	0.079
Mof_C 	C 	0.3924	0.75	0.1076	-0.062
Mof_C 	C 	0.2351	0.4702	0.4851	-0.171
Mof_C 	C 	0.2007	0.4014	0.4507	0.077
Mof_C 	C 	0.1424	0.2848	0.3924	-0.064
Mof_C 	C 	0.2649	0.75	0.2351	-0.171
Mof_C 	C 	0.2993	0.75	0.2007	0.077
Mof_C 	C 	0.3576	0.75	0.1424	-0.061
Mof_C 	C 	0.0149	0.0298	0.2649	-0.18
Mof_C 	C 	0.0493	0.0986	0.2993	0.079
Mof_C 	C 	0.1076	0.2152	0.3576	-0.064
Mof_C 	C 	0.0149	0.4851	0.75	-0.182
Mof_C 	C 	0.0493	0.4507	0.75	0.08
Mof_C 	C 	0.1076	0.3924	0.75	-0.065
Mof_C 	C 	0.4851	0.2351	0.4702	-0.171
Mof_C 	C 	0.4507	0.2007	0.4014	0.077
Mof_C 	C 	0.3924	0.1424	0.2848	-0.062
Mof_C 	C 	0.2351	0.2649	0.75	-0.171
Mof_C 	C 	0.2007	0.2993	0.75	0.077
Mof_C 	C 	0.1424	0.3576	0.75	-0.062
Mof_C 	C 	0.2649	0.0149	0.0298	-0.187
Mof_C 	C 	0.2993	0.0493	0.0986	0.08
Mof_C 	C 	0.3576	0.1076	0.2152	-0.062
Mof_C 	C 	0.75	0.0149	0.4851	-0.18
Mof_C 	C 	0.75	0.0493	0.4507	0.079
Mof_C 	C 	0.75	0.1076	0.3924	-0.063
Mof_C 	C 	0.4702	0.4851	0.2351	-0.171
Mof_C 	C 	0.4014	0.4507	0.2007	0.077
Mof_C 	C 	0.2848	0.3924	0.1424	-0.061
Mof_C 	C 	0.75	0.2351	0.2649	-0.171
Mof_C 	C 	0.75	0.2007	0.2993	0.077
Mof_C 	C 	0.75	0.1424	0.3576	-0.062
Mof_C 	C 	0.0298	0.2649	0.0149	-0.187
Mof_C 	C 	0.0986	0.2993	0.0493	0.081
Mof_C 	C 	0.2152	0.3576	0.1076	-0.065
Mof_H 	H 	0.53877	0.24852	0.02539	0.053
Mof_H 	H 	0.46964	0.21054	0.95626	0.058
Mof_H 	H 	0.51166	0.29094	0.99828	0.062
Mof_H 	H 	0.78921	0.51338	0.49522	0.061
Mof_H 	H 	0.71993	0.51338	0.47904	0.06
Mof_H 	H 	0.76092	0.51338	0.54581	0.059
Mof_H 	H 	0.70626	0.21054	0.71964	0.062
Mof_H 	H 	0.77539	0.24852	0.78877	0.059
Mof_H 	H 	0.74828	0.29094	0.76166	0.059
Mof_H 	H 	0.95655	0.98662	0.71566	0.06
Mof_H 	H 	0.02583	0.98662	0.73184	0.054
Mof_H 	H 	0.99754	0.98662	0.78243	0.064
Mof_H 	H 	0.02539	0.53877	0.24852	0.052
Mof_H 	H 	0.95626	0.46964	0.21054	0.058
Mof_H 	H 	0.99828	0.51166	0.29094	0.062
Mof_H 	H 	0.46993	0.72904	0.51338	0.059
Mof_H 	H 	0.53921	0.74522	0.51338	0.059
Mof_H 	H 	0.51092	0.79581	0.51338	0.062
Mof_H 	H 	0.71964	0.70626	0.21054	0.062
Mof_H 	H 	0.78877	0.77539	0.24852	0.059
Mof_H 	H 	0.76166	0.74828	0.29094	0.059
Mof_H 	H 	0.77583	0.98184	0.98662	0.063
Mof_H 	H 	0.70655	0.96566	0.98662	0.061
Mof_H 	H 	0.74754	0.03243	0.98662	0.054
Mof_H 	H 	0.20643	0.96015	0.47353	0.058
Mof_H 	H 	0.28572	0.99017	0.50355	0.062
Mof_H 	H 	0.25785	0.02961	0.54298	0.053
Mof_H 	H 	0.51338	0.48986	0.71664	0.061
Mof_H 	H 	0.51338	0.54674	0.77352	0.058
Mof_H 	H 	0.51338	0.48347	0.77991	0.06
Mof_H 	H 	0.28572	0.75355	0.74017	0.059
Mof_H 	H 	0.20643	0.72353	0.71015	0.061
Mof_H 	H 	0.25785	0.79298	0.77961	0.06
Mof_H 	H 	0.98662	0.70326	0.97648	0.063
Mof_H 	H 	0.98662	0.76014	0.03336	0.054
Mof_H 	H 	0.98662	0.76653	0.97009	0.062
Mof_H 	H 	0.45626	0.71054	0.96964	0.065
Mof_H 	H 	0.52539	0.74852	0.03877	0.06
Mof_H 	H 	0.49828	0.79094	0.01166	0.061
Mof_H 	H 	0.20655	0.48662	0.46566	0.06
Mof_H 	H 	0.27583	0.48662	0.48184	0.061
Mof_H 	H 	0.24754	0.48662	0.53243	0.058
Mof_H 	H 	0.28877	0.74852	0.27539	0.059
Mof_H 	H 	0.21964	0.71054	0.20626	0.061
Mof_H 	H 	0.26166	0.79094	0.24828	0.059
Mof_H 	H 	0.03921	0.01338	0.24522	0.058
Mof_H 	H 	0.96993	0.01338	0.22904	0.063
Mof_H 	H 	0.01092	0.01338	0.29581	0.06
Mof_H 	H 	0.96964	0.45626	0.71054	0.066
Mof_H 	H 	0.03877	0.52539	0.74852	0.06
Mof_H 	H 	0.01166	0.49828	0.79094	0.061
Mof_H 	H 	0.52583	0.23184	0.48662	0.059
Mof_H 	H 	0.45655	0.21566	0.48662	0.059
Mof_H 	H 	0.49754	0.28243	0.48662	0.062
Mof_H 	H 	0.27539	0.28877	0.74852	0.059
Mof_H 	H 	0.20626	0.21964	0.71054	0.061
Mof_H 	H 	0.24828	0.26166	0.79094	0.059
Mof_H 	H 	0.21993	0.97904	0.01338	0.065
Mof_H 	H 	0.28921	0.99522	0.01338	0.068
Mof_H 	H 	0.26092	0.04581	0.01338	0.059
Mof_H 	H 	0.78572	0.00355	0.49017	0.061
Mof_H 	H 	0.70643	0.97353	0.46015	0.066
Mof_H 	H 	0.75785	0.04298	0.52961	0.06
Mof_H 	H 	0.48662	0.45326	0.22648	0.058
Mof_H 	H 	0.48662	0.51014	0.28336	0.061
Mof_H 	H 	0.48662	0.51653	0.22009	0.06
Mof_H 	H 	0.70643	0.21015	0.22353	0.061
Mof_H 	H 	0.78572	0.24017	0.25355	0.058
Mof_H 	H 	0.75785	0.27961	0.29298	0.06
Mof_H 	H 	0.01338	0.27352	0.04674	0.058
Mof_H 	H 	0.01338	0.21664	0.98986	0.067
Mof_H 	H 	0.01338	0.27991	0.98347	0.066
_end
