data_functionalizedCrystal
_audit_creation_method	'EQeq! by Chris Wilmer'
_symmetry_space_group_name_H-M	'P1'
_symmetry_Int_Tables_number	1
_symmetry_cell_setting	triclinic
loop_
_symmetry_equiv_pos_as_xyz
  x,y,z
_cell_length_a	20.757
_cell_length_b	20.757
_cell_length_c	20.757
_cell_angle_alpha	90
_cell_angle_beta	90
_cell_angle_gamma	90
loop_
_atom_site_label
_atom_site_type_symbol
_atom_site_fract_x
_atom_site_fract_y
_atom_site_fract_z
_atom_site_charge
Mof_Zr	Zr	0.11936	0	-0	3.251
Mof_Zr	Zr	0.11936	0.5	0.5	3.308
Mof_Zr	Zr	0.61936	-5.6453e-33	0.5	3.234
Mof_Zr	Zr	0.61936	0.5	-0	3.234
Mof_Zr	Zr	0.88064	0	-0	3.164
Mof_Zr	Zr	0.88064	0.5	0.5	3.216
Mof_Zr	Zr	0.38064	-5.6453e-33	0.5	3.236
Mof_Zr	Zr	0.38064	0.5	-0	3.236
Mof_Zr	Zr	-0	0.11936	-0	3.251
Mof_Zr	Zr	-3.7706e-33	0.61936	0.5	3.234
Mof_Zr	Zr	0.5	0.11936	0.5	3.308
Mof_Zr	Zr	0.5	0.61936	-0	3.234
Mof_Zr	Zr	-0	0.88064	-0	3.164
Mof_Zr	Zr	1.8747e-33	0.38064	0.5	3.236
Mof_Zr	Zr	0.5	0.88064	0.5	3.216
Mof_Zr	Zr	0.5	0.38064	-0	3.236
Mof_Zr	Zr	4.47528e-34	-1.41132e-33	0.11936	3.251
Mof_Zr	Zr	-3.32307e-33	0.5	0.61936	3.234
Mof_Zr	Zr	0.5	-5.6453e-33	0.61936	3.234
Mof_Zr	Zr	0.5	0.5	0.11936	3.308
Mof_Zr	Zr	3.30187e-33	-1.12906e-32	0.88064	3.164
Mof_Zr	Zr	4.24982e-33	0.5	0.38064	3.236
Mof_Zr	Zr	0.5	0	0.38064	3.236
Mof_Zr	Zr	0.5	0.5	0.88064	3.215
Mof_O 	O 	0.17035	0.09411	-0	0.155
Mof_C 	C 	0.2663	0.1863	-0	-0.044
Mof_H 	H 	0.2783	0.1421	-0	0.062
Mof_O 	O 	0.1921	0.0779	-0	-0.718
Mof_O 	O 	0.17035	0.59411	0.5	0.473
Mof_C 	C 	0.2663	0.6863	0.5	-0.001
Mof_H 	H 	0.2783	0.6421	0.5	0.123
Mof_O 	O 	0.1921	0.5779	0.5	-0.845
Mof_O 	O 	0.67035	0.09411	0.5	0.499
Mof_C 	C 	0.7663	0.1863	0.5	-0.001
Mof_H 	H 	0.7783	0.1421	0.5	0.134
Mof_O 	O 	0.6921	0.0779	0.5	-0.888
Mof_O 	O 	0.67035	0.59411	-0	0.376
Mof_C 	C 	0.7663	0.6863	-0	0.034
Mof_H 	H 	0.7783	0.6421	-0	0.09
Mof_O 	O 	0.6921	0.5779	-0	-0.84
Mof_O 	O 	0.82965	0.90589	-0	0.814
Mof_C 	C 	0.7337	0.8137	-0	-0.282
Mof_H 	H 	0.7217	0.8579	-0	0.245
Mof_O 	O 	0.8079	0.9221	-0	-1.018
Mof_O 	O 	0.82965	0.40589	0.5	1.328
Mof_C 	C 	0.7337	0.3137	0.5	-0.223
Mof_H 	H 	0.7217	0.3579	0.5	0.235
Mof_O 	O 	0.8079	0.4221	0.5	-1.552
Mof_O 	O 	0.32965	0.90589	0.5	0.214
Mof_C 	C 	0.2337	0.8137	0.5	-0.204
Mof_H 	H 	0.2217	0.8579	0.5	0.226
Mof_O 	O 	0.3079	0.9221	0.5	-0.406
Mof_O 	O 	0.32965	0.40589	-0	0.292
Mof_C 	C 	0.2337	0.3137	-0	-0.155
Mof_H 	H 	0.2217	0.3579	-0	0.113
Mof_O 	O 	0.3079	0.4221	-0	-0.769
Mof_O 	O 	0.82965	0.09411	-0	1.226
Mof_C 	C 	0.7337	0.1863	-0	-0.176
Mof_H 	H 	0.7217	0.1421	-0	0.157
Mof_O 	O 	0.8079	0.0779	-0	-1.625
Mof_O 	O 	0.82965	0.59411	0.5	1.33
Mof_C 	C 	0.7337	0.6863	0.5	-0.129
Mof_H 	H 	0.7217	0.6421	0.5	0.21
Mof_O 	O 	0.8079	0.5779	0.5	-1.55
Mof_O 	O 	0.32965	0.09411	0.5	0.811
Mof_C 	C 	0.2337	0.1863	0.5	-0.097
Mof_H 	H 	0.2217	0.1421	0.5	0.142
Mof_O 	O 	0.3079	0.0779	0.5	-1.195
Mof_O 	O 	0.32965	0.59411	-0	0.463
Mof_C 	C 	0.2337	0.6863	-0	-0.059
Mof_H 	H 	0.2217	0.6421	-0	0.092
Mof_O 	O 	0.3079	0.5779	-0	-0.928
Mof_O 	O 	0.17035	0.90589	-0	-0.246
Mof_C 	C 	0.2663	0.8137	-0	-0.154
Mof_H 	H 	0.2783	0.8579	-0	0.153
Mof_O 	O 	0.1921	0.9221	-0	-0.117
Mof_O 	O 	0.17035	0.40589	0.5	0.073
Mof_C 	C 	0.2663	0.3137	0.5	-0.093
Mof_H 	H 	0.2783	0.3579	0.5	0.137
Mof_O 	O 	0.1921	0.4221	0.5	-0.464
Mof_O 	O 	0.67035	0.90589	0.5	0.291
Mof_C 	C 	0.7663	0.8137	0.5	-0.11
Mof_H 	H 	0.7783	0.8579	0.5	0.227
Mof_O 	O 	0.6921	0.9221	0.5	-0.477
Mof_O 	O 	0.67035	0.40589	-0	0.207
Mof_C 	C 	0.7663	0.3137	-0	-0.059
Mof_H 	H 	0.7783	0.3579	-0	0.11
Mof_O 	O 	0.6921	0.4221	-0	-0.682
Mof_O 	O 	2.46984e-33	0.17035	0.09411	0.155
Mof_C 	C 	-2.12413e-33	0.2663	0.1863	-0.044
Mof_H 	H 	1.94411e-33	0.2783	0.1421	0.062
Mof_O 	O 	9.9774e-34	0.1921	0.0779	-0.718
Mof_O 	O 	-3.41774e-33	0.67035	0.59411	0.376
Mof_C 	C 	2.57321e-33	0.7663	0.6863	0.034
Mof_H 	H 	8.05278e-33	0.7783	0.6421	0.09
Mof_O 	O 	-3.47852e-33	0.6921	0.5779	-0.84
Mof_O 	O 	0.5	0.17035	0.59411	0.473
Mof_C 	C 	0.5	0.2663	0.6863	-0.001
Mof_H 	H 	0.5	0.2783	0.6421	0.123
Mof_O 	O 	0.5	0.1921	0.5779	-0.845
Mof_O 	O 	0.5	0.67035	0.09411	0.499
Mof_C 	C 	0.5	0.7663	0.1863	-0.001
Mof_H 	H 	0.5	0.7783	0.1421	0.134
Mof_O 	O 	0.5	0.6921	0.0779	-0.888
Mof_O 	O 	2.59777e-32	0.82965	0.90589	0.814
Mof_C 	C 	-1.3885e-32	0.7337	0.8137	-0.282
Mof_H 	H 	3.21661e-33	0.7217	0.8579	0.245
Mof_O 	O 	1.47479e-32	0.8079	0.9221	-1.018
Mof_O 	O 	4.34449e-33	0.32965	0.40589	0.292
Mof_C 	C 	1.17619e-33	0.2337	0.3137	-0.155
Mof_H 	H 	-4.30339e-33	0.2217	0.3579	0.113
Mof_O 	O 	1.58262e-33	0.3079	0.4221	-0.769
Mof_O 	O 	0.5	0.82965	0.40589	1.328
Mof_C 	C 	0.5	0.7337	0.3137	-0.223
Mof_H 	H 	0.5	0.7217	0.3579	0.235
Mof_O 	O 	0.5	0.8079	0.4221	-1.552
Mof_O 	O 	0.5	0.32965	0.90589	0.214
Mof_C 	C 	0.5	0.2337	0.8137	-0.204
Mof_H 	H 	0.5	0.2217	0.8579	0.226
Mof_O 	O 	0.5	0.3079	0.9221	-0.406
Mof_O 	O 	2.46984e-33	0.82965	0.09411	1.226
Mof_C 	C 	-4.94678e-33	0.7337	0.1863	-0.176
Mof_H 	H 	1.94411e-33	0.7217	0.1421	0.157
Mof_O 	O 	-4.64756e-33	0.8079	0.0779	-1.625
Mof_O 	O 	2.22756e-33	0.32965	0.59411	0.463
Mof_C 	C 	-3.07208e-33	0.2337	0.6863	-0.059
Mof_H 	H 	-8.8831e-33	0.2217	0.6421	0.092
Mof_O 	O 	2.16678e-33	0.3079	0.5779	-0.928
Mof_O 	O 	0.5	0.82965	0.59411	1.33
Mof_C 	C 	0.5	0.7337	0.6863	-0.129
Mof_H 	H 	0.5	0.7217	0.6421	0.21
Mof_O 	O 	0.5	0.8079	0.5779	-1.55
Mof_O 	O 	0.5	0.32965	0.09411	0.811
Mof_C 	C 	0.5	0.2337	0.1863	-0.097
Mof_H 	H 	0.5	0.2217	0.1421	0.142
Mof_O 	O 	0.5	0.3079	0.0779	-1.195
Mof_O 	O 	-7.89405e-33	0.17035	0.90589	-0.246
Mof_C 	C 	-2.59441e-33	0.2663	0.8137	-0.154
Mof_H 	H 	3.21661e-33	0.2783	0.8579	0.153
Mof_O 	O 	-7.83327e-33	0.1921	0.9221	-0.117
Mof_O 	O 	-6.9461e-33	0.67035	0.40589	0.207
Mof_C 	C 	1.17619e-33	0.7663	0.3137	-0.059
Mof_H 	H 	-7.12603e-33	0.7783	0.3579	0.11
Mof_O 	O 	-4.06267e-33	0.6921	0.4221	-0.682
Mof_O 	O 	0.5	0.17035	0.40589	0.073
Mof_C 	C 	0.5	0.2663	0.3137	-0.093
Mof_H 	H 	0.5	0.2783	0.3579	0.137
Mof_O 	O 	0.5	0.1921	0.4221	-0.464
Mof_O 	O 	0.5	0.67035	0.90589	0.291
Mof_C 	C 	0.5	0.7663	0.8137	-0.11
Mof_H 	H 	0.5	0.7783	0.8579	0.227
Mof_O 	O 	0.5	0.6921	0.9221	-0.477
Mof_O 	O 	0.09411	0	0.17035	0.155
Mof_C 	C 	0.1863	-2.82265e-33	0.2663	-0.044
Mof_H 	H 	0.1421	0	0.2783	0.062
Mof_O 	O 	0.0779	0	0.1921	-0.718
Mof_O 	O 	0.09411	0.5	0.67035	0.499
Mof_C 	C 	0.1863	0.5	0.7663	-0.001
Mof_H 	H 	0.1421	0.5	0.7783	0.134
Mof_O 	O 	0.0779	0.5	0.6921	-0.888
Mof_O 	O 	0.59411	0	0.67035	0.376
Mof_C 	C 	0.6863	-5.6453e-33	0.7663	0.034
Mof_H 	H 	0.6421	-1.12906e-32	0.7783	0.09
Mof_O 	O 	0.5779	-5.6453e-33	0.6921	-0.84
Mof_O 	O 	0.59411	0.5	0.17035	0.473
Mof_C 	C 	0.6863	0.5	0.2663	-0.001
Mof_H 	H 	0.6421	0.5	0.2783	0.123
Mof_O 	O 	0.5779	0.5	0.1921	-0.845
Mof_O 	O 	0.90589	0	0.82965	0.814
Mof_C 	C 	0.8137	0	0.7337	-0.282
Mof_H 	H 	0.8579	-5.6453e-33	0.7217	0.245
Mof_O 	O 	0.9221	-5.6453e-33	0.8079	-1.018
Mof_O 	O 	0.90589	0.5	0.32965	0.214
Mof_C 	C 	0.8137	0.5	0.2337	-0.204
Mof_H 	H 	0.8579	0.5	0.2217	0.226
Mof_O 	O 	0.9221	0.5	0.3079	-0.406
Mof_O 	O 	0.40589	0	0.32965	0.292
Mof_C 	C 	0.3137	-2.82265e-33	0.2337	-0.155
Mof_H 	H 	0.3579	-2.82265e-33	0.2217	0.113
Mof_O 	O 	0.4221	-2.82265e-33	0.3079	-0.769
Mof_O 	O 	0.40589	0.5	0.82965	1.328
Mof_C 	C 	0.3137	0.5	0.7337	-0.223
Mof_H 	H 	0.3579	0.5	0.7217	0.235
Mof_O 	O 	0.4221	0.5	0.8079	-1.552
Mof_O 	O 	0.09411	0	0.82965	1.226
Mof_C 	C 	0.1863	0	0.7337	-0.176
Mof_H 	H 	0.1421	-5.6453e-33	0.7217	0.157
Mof_O 	O 	0.0779	-5.6453e-33	0.8079	-1.625
Mof_O 	O 	0.09411	0.5	0.32965	0.811
Mof_C 	C 	0.1863	0.5	0.2337	-0.097
Mof_H 	H 	0.1421	0.5	0.2217	0.142
Mof_O 	O 	0.0779	0.5	0.3079	-1.195
Mof_O 	O 	0.59411	0	0.32965	0.463
Mof_C 	C 	0.6863	-2.82265e-33	0.2337	-0.059
Mof_H 	H 	0.6421	-2.82265e-33	0.2217	0.092
Mof_O 	O 	0.5779	-2.82265e-33	0.3079	-0.928
Mof_O 	O 	0.59411	0.5	0.82965	1.33
Mof_C 	C 	0.6863	0.5	0.7337	-0.129
Mof_H 	H 	0.6421	0.5	0.7217	0.21
Mof_O 	O 	0.5779	0.5	0.8079	-1.55
Mof_O 	O 	0.90589	0	0.17035	-0.246
Mof_C 	C 	0.8137	-2.82265e-33	0.2663	-0.154
Mof_H 	H 	0.8579	0	0.2783	0.153
Mof_O 	O 	0.9221	0	0.1921	-0.117
Mof_O 	O 	0.90589	0.5	0.67035	0.291
Mof_C 	C 	0.8137	0.5	0.7663	-0.11
Mof_H 	H 	0.8579	0.5	0.7783	0.227
Mof_O 	O 	0.9221	0.5	0.6921	-0.477
Mof_O 	O 	0.40589	0	0.67035	0.207
Mof_C 	C 	0.3137	-5.6453e-33	0.7663	-0.059
Mof_H 	H 	0.3579	-1.12906e-32	0.7783	0.11
Mof_O 	O 	0.4221	-5.6453e-33	0.6921	-0.682
Mof_O 	O 	0.40589	0.5	0.17035	0.073
Mof_C 	C 	0.3137	0.5	0.2663	-0.093
Mof_H 	H 	0.3579	0.5	0.2783	0.137
Mof_O 	O 	0.4221	0.5	0.1921	-0.464
Mof_O 	O 	0.09411	0.17035	-0	0.155
Mof_C 	C 	0.1863	0.2663	-0	-0.044
Mof_H 	H 	0.1421	0.2783	-0	0.062
Mof_O 	O 	0.0779	0.1921	-0	-0.718
Mof_O 	O 	0.09411	0.67035	0.5	0.499
Mof_C 	C 	0.1863	0.7663	0.5	-0.001
Mof_H 	H 	0.1421	0.7783	0.5	0.134
Mof_O 	O 	0.0779	0.6921	0.5	-0.888
Mof_O 	O 	0.59411	0.17035	0.5	0.473
Mof_C 	C 	0.6863	0.2663	0.5	-0.001
Mof_H 	H 	0.6421	0.2783	0.5	0.123
Mof_O 	O 	0.5779	0.1921	0.5	-0.845
Mof_O 	O 	0.59411	0.67035	-0	0.376
Mof_C 	C 	0.6863	0.7663	-0	0.034
Mof_H 	H 	0.6421	0.7783	-0	0.09
Mof_O 	O 	0.5779	0.6921	-0	-0.84
Mof_O 	O 	0.90589	0.82965	-0	0.814
Mof_C 	C 	0.8137	0.7337	-0	-0.282
Mof_H 	H 	0.8579	0.7217	-0	0.245
Mof_O 	O 	0.9221	0.8079	-0	-1.018
Mof_O 	O 	0.90589	0.32965	0.5	0.214
Mof_C 	C 	0.8137	0.2337	0.5	-0.204
Mof_H 	H 	0.8579	0.2217	0.5	0.226
Mof_O 	O 	0.9221	0.3079	0.5	-0.406
Mof_O 	O 	0.40589	0.82965	0.5	1.328
Mof_C 	C 	0.3137	0.7337	0.5	-0.223
Mof_H 	H 	0.3579	0.7217	0.5	0.235
Mof_O 	O 	0.4221	0.8079	0.5	-1.552
Mof_O 	O 	0.40589	0.32965	-0	0.292
Mof_C 	C 	0.3137	0.2337	-0	-0.155
Mof_H 	H 	0.3579	0.2217	-0	0.113
Mof_O 	O 	0.4221	0.3079	-0	-0.769
Mof_O 	O 	0.09411	0.82965	-0	1.226
Mof_C 	C 	0.1863	0.7337	-0	-0.176
Mof_H 	H 	0.1421	0.7217	-0	0.157
Mof_O 	O 	0.0779	0.8079	-0	-1.625
Mof_O 	O 	0.09411	0.32965	0.5	0.811
Mof_C 	C 	0.1863	0.2337	0.5	-0.097
Mof_H 	H 	0.1421	0.2217	0.5	0.142
Mof_O 	O 	0.0779	0.3079	0.5	-1.195
Mof_O 	O 	0.59411	0.82965	0.5	1.33
Mof_C 	C 	0.6863	0.7337	0.5	-0.129
Mof_H 	H 	0.6421	0.7217	0.5	0.21
Mof_O 	O 	0.5779	0.8079	0.5	-1.55
Mof_O 	O 	0.59411	0.32965	-0	0.463
Mof_C 	C 	0.6863	0.2337	-0	-0.059
Mof_H 	H 	0.6421	0.2217	-0	0.092
Mof_O 	O 	0.5779	0.3079	-0	-0.928
Mof_O 	O 	0.90589	0.17035	-0	-0.246
Mof_C 	C 	0.8137	0.2663	-0	-0.154
Mof_H 	H 	0.8579	0.2783	-0	0.153
Mof_O 	O 	0.9221	0.1921	-0	-0.117
Mof_O 	O 	0.90589	0.67035	0.5	0.291
Mof_C 	C 	0.8137	0.7663	0.5	-0.11
Mof_H 	H 	0.8579	0.7783	0.5	0.227
Mof_O 	O 	0.9221	0.6921	0.5	-0.477
Mof_O 	O 	0.40589	0.17035	0.5	0.073
Mof_C 	C 	0.3137	0.2663	0.5	-0.093
Mof_H 	H 	0.3579	0.2783	0.5	0.137
Mof_O 	O 	0.4221	0.1921	0.5	-0.464
Mof_O 	O 	0.40589	0.67035	-0	0.207
Mof_C 	C 	0.3137	0.7663	-0	-0.059
Mof_H 	H 	0.3579	0.7783	-0	0.11
Mof_O 	O 	0.4221	0.6921	-0	-0.682
Mof_O 	O 	0.17035	-1.12906e-32	0.90589	-0.246
Mof_C 	C 	0.2663	-5.6453e-33	0.8137	-0.154
Mof_H 	H 	0.2783	0	0.8579	0.153
Mof_O 	O 	0.1921	-1.12906e-32	0.9221	-0.117
Mof_O 	O 	0.17035	0.5	0.40589	0.073
Mof_C 	C 	0.2663	0.5	0.3137	-0.093
Mof_H 	H 	0.2783	0.5	0.3579	0.137
Mof_O 	O 	0.1921	0.5	0.4221	-0.464
Mof_O 	O 	0.67035	-2.82265e-33	0.40589	0.207
Mof_C 	C 	0.7663	-2.82265e-33	0.3137	-0.059
Mof_H 	H 	0.7783	-2.82265e-33	0.3579	0.11
Mof_O 	O 	0.6921	-5.6453e-33	0.4221	-0.682
Mof_O 	O 	0.67035	0.5	0.90589	0.291
Mof_C 	C 	0.7663	0.5	0.8137	-0.11
Mof_H 	H 	0.7783	0.5	0.8579	0.227
Mof_O 	O 	0.6921	0.5	0.9221	-0.477
Mof_O 	O 	0.82965	0	0.09411	1.226
Mof_C 	C 	0.7337	-2.82265e-33	0.1863	-0.176
Mof_H 	H 	0.7217	0	0.1421	0.157
Mof_O 	O 	0.8079	0	0.0779	-1.625
Mof_O 	O 	0.82965	0.5	0.59411	1.33
Mof_C 	C 	0.7337	0.5	0.6863	-0.129
Mof_H 	H 	0.7217	0.5	0.6421	0.21
Mof_O 	O 	0.8079	0.5	0.5779	-1.55
Mof_O 	O 	0.32965	-5.6453e-33	0.59411	0.463
Mof_C 	C 	0.2337	0	0.6863	-0.059
Mof_H 	H 	0.2217	0	0.6421	0.092
Mof_O 	O 	0.3079	-5.6453e-33	0.5779	-0.928
Mof_O 	O 	0.32965	0.5	0.09411	0.811
Mof_C 	C 	0.2337	0.5	0.1863	-0.097
Mof_H 	H 	0.2217	0.5	0.1421	0.142
Mof_O 	O 	0.3079	0.5	0.0779	-1.195
Mof_O 	O 	0.82965	-1.12906e-32	0.90589	0.814
Mof_C 	C 	0.7337	-5.6453e-33	0.8137	-0.282
Mof_H 	H 	0.7217	0	0.8579	0.245
Mof_O 	O 	0.8079	-1.12906e-32	0.9221	-1.018
Mof_O 	O 	0.82965	0.5	0.40589	1.328
Mof_C 	C 	0.7337	0.5	0.3137	-0.223
Mof_H 	H 	0.7217	0.5	0.3579	0.235
Mof_O 	O 	0.8079	0.5	0.4221	-1.552
Mof_O 	O 	0.32965	-2.82265e-33	0.40589	0.292
Mof_C 	C 	0.2337	-2.82265e-33	0.3137	-0.155
Mof_H 	H 	0.2217	-2.82265e-33	0.3579	0.113
Mof_O 	O 	0.3079	-5.6453e-33	0.4221	-0.769
Mof_O 	O 	0.32965	0.5	0.90589	0.214
Mof_C 	C 	0.2337	0.5	0.8137	-0.204
Mof_H 	H 	0.2217	0.5	0.8579	0.226
Mof_O 	O 	0.3079	0.5	0.9221	-0.406
Mof_O 	O 	0.17035	0	0.09411	0.155
Mof_C 	C 	0.2663	-2.82265e-33	0.1863	-0.044
Mof_H 	H 	0.2783	0	0.1421	0.062
Mof_O 	O 	0.1921	0	0.0779	-0.718
Mof_O 	O 	0.17035	0.5	0.59411	0.473
Mof_C 	C 	0.2663	0.5	0.6863	-0.001
Mof_H 	H 	0.2783	0.5	0.6421	0.123
Mof_O 	O 	0.1921	0.5	0.5779	-0.845
Mof_O 	O 	0.67035	-5.6453e-33	0.59411	0.376
Mof_C 	C 	0.7663	0	0.6863	0.034
Mof_H 	H 	0.7783	0	0.6421	0.09
Mof_O 	O 	0.6921	-5.6453e-33	0.5779	-0.84
Mof_O 	O 	0.67035	0.5	0.09411	0.499
Mof_C 	C 	0.7663	0.5	0.1863	-0.001
Mof_H 	H 	0.7783	0.5	0.1421	0.134
Mof_O 	O 	0.6921	0.5	0.0779	-0.888
Mof_O 	O 	3.11069e-33	0.09411	0.82965	1.226
Mof_C 	C 	-8.53966e-33	0.1863	0.7337	-0.176
Mof_H 	H 	2.70594e-33	0.1421	0.7217	0.157
Mof_O 	O 	-2.61616e-33	0.0779	0.8079	-1.625
Mof_O 	O 	4.05864e-33	0.59411	0.32965	0.463
Mof_C 	C 	-4.76906e-33	0.6863	0.2337	-0.059
Mof_H 	H 	-4.81405e-33	0.6421	0.2217	0.092
Mof_O 	O 	-1.66821e-33	0.5779	0.3079	-0.928
Mof_O 	O 	0.5	0.09411	0.32965	0.811
Mof_C 	C 	0.5	0.1863	0.2337	-0.097
Mof_H 	H 	0.5	0.1421	0.2217	0.142
Mof_O 	O 	0.5	0.0779	0.3079	-1.195
Mof_O 	O 	0.5	0.59411	0.82965	1.33
Mof_C 	C 	0.5	0.6863	0.7337	-0.129
Mof_H 	H 	0.5	0.6421	0.7217	0.21
Mof_O 	O 	0.5	0.5779	0.8079	-1.55
Mof_O 	O 	-7.82923e-33	0.90589	0.17035	-0.246
Mof_C 	C 	-1.82418e-33	0.8137	0.2663	-0.154
Mof_H 	H 	6.68875e-33	0.8579	0.2783	0.153
Mof_O 	O 	-1.05703e-32	0.9221	0.1921	-0.117
Mof_O 	O 	-8.77718e-33	0.40589	0.67035	0.207
Mof_C 	C 	-2.77213e-33	0.3137	0.7663	-0.059
Mof_H 	H 	-8.37243e-33	0.3579	0.7783	0.11
Mof_O 	O 	-3.05034e-33	0.4221	0.6921	-0.682
Mof_O 	O 	0.5	0.90589	0.67035	0.291
Mof_C 	C 	0.5	0.8137	0.7663	-0.11
Mof_H 	H 	0.5	0.8579	0.7783	0.227
Mof_O 	O 	0.5	0.9221	0.6921	-0.477
Mof_O 	O 	0.5	0.40589	0.17035	0.073
Mof_C 	C 	0.5	0.3137	0.2663	-0.093
Mof_H 	H 	0.5	0.3579	0.2783	0.137
Mof_O 	O 	0.5	0.4221	0.1921	-0.464
Mof_O 	O 	2.05003e-33	0.09411	0.17035	0.155
Mof_C 	C 	-1.82418e-33	0.1863	0.2663	-0.044
Mof_H 	H 	1.04346e-33	0.1421	0.2783	0.062
Mof_O 	O 	7.2026e-34	0.0779	0.1921	-0.718
Mof_O 	O 	-3.13189e-33	0.59411	0.67035	0.376
Mof_C 	C 	-2.77213e-33	0.6863	0.7663	0.034
Mof_H 	H 	2.91816e-33	0.6421	0.7783	0.09
Mof_O 	O 	-3.05034e-33	0.5779	0.6921	-0.84
Mof_O 	O 	0.5	0.09411	0.67035	0.499
Mof_C 	C 	0.5	0.1863	0.7663	-0.001
Mof_H 	H 	0.5	0.1421	0.7783	0.134
Mof_O 	O 	0.5	0.0779	0.6921	-0.888
Mof_O 	O 	0.5	0.59411	0.17035	0.473
Mof_C 	C 	0.5	0.6863	0.2663	-0.001
Mof_H 	H 	0.5	0.6421	0.2783	0.123
Mof_O 	O 	0.5	0.5779	0.1921	-0.845
Mof_O 	O 	2.00466e-32	0.90589	0.82965	0.814
Mof_C 	C 	-8.53966e-33	0.8137	0.7337	-0.282
Mof_H 	H 	2.70594e-33	0.8579	0.7217	0.245
Mof_O 	O 	8.67443e-33	0.9221	0.8079	-1.018
Mof_O 	O 	6.88128e-33	0.40589	0.32965	0.292
Mof_C 	C 	8.76235e-34	0.3137	0.2337	-0.155
Mof_H 	H 	-1.99141e-33	0.3579	0.2217	0.113
Mof_O 	O 	-1.66821e-33	0.4221	0.3079	-0.769
Mof_O 	O 	0.5	0.90589	0.32965	0.214
Mof_C 	C 	0.5	0.8137	0.2337	-0.204
Mof_H 	H 	0.5	0.8579	0.2217	0.226
Mof_O 	O 	0.5	0.9221	0.3079	-0.406
Mof_O 	O 	0.5	0.40589	0.82965	1.328
Mof_C 	C 	0.5	0.3137	0.7337	-0.223
Mof_H 	H 	0.5	0.3579	0.7217	0.235
Mof_O 	O 	0.5	0.4221	0.8079	-1.552
Mof_C 	C 	0.1518	0.1518	-0	-0.154
Mof_C 	C 	0.2028	0.2028	-0	0.101
Mof_C 	C 	0.1518	0.6518	0.5	-0.324
Mof_C 	C 	0.2028	0.7028	0.5	0.191
Mof_C 	C 	0.6518	0.1518	0.5	-0.324
Mof_C 	C 	0.7028	0.2028	0.5	0.191
Mof_C 	C 	0.6518	0.6518	-0	-0.309
Mof_C 	C 	0.7028	0.7028	-0	0.112
Mof_C 	C 	0.8482	0.8482	-0	-0.666
Mof_C 	C 	0.7972	0.7972	-0	0.46
Mof_C 	C 	0.8482	0.3482	0.5	-0.571
Mof_C 	C 	0.7972	0.2972	0.5	0.417
Mof_C 	C 	0.3482	0.8482	0.5	-0.571
Mof_C 	C 	0.2972	0.7972	0.5	0.417
Mof_C 	C 	0.3482	0.3482	-0	-0.293
Mof_C 	C 	0.2972	0.2972	-0	0.21
Mof_C 	C 	0.8482	0.1518	-0	-0.414
Mof_C 	C 	0.7972	0.2028	-0	0.284
Mof_C 	C 	0.8482	0.6518	0.5	-0.578
Mof_C 	C 	0.7972	0.7028	0.5	0.368
Mof_C 	C 	0.3482	0.1518	0.5	-0.314
Mof_C 	C 	0.2972	0.2028	0.5	0.238
Mof_C 	C 	0.3482	0.6518	-0	-0.301
Mof_C 	C 	0.2972	0.7028	-0	0.16
Mof_C 	C 	0.1518	0.8482	-0	-0.414
Mof_C 	C 	0.2028	0.7972	-0	0.284
Mof_C 	C 	0.1518	0.3482	0.5	-0.314
Mof_C 	C 	0.2028	0.2972	0.5	0.238
Mof_C 	C 	0.6518	0.8482	0.5	-0.578
Mof_C 	C 	0.7028	0.7972	0.5	0.368
Mof_C 	C 	0.6518	0.3482	-0	-0.301
Mof_C 	C 	0.7028	0.2972	-0	0.16
Mof_C 	C 	5.69159e-34	0.1518	0.1518	-0.154
Mof_C 	C 	7.60378e-34	0.2028	0.2028	0.101
Mof_C 	C 	-8.84673e-33	0.6518	0.6518	-0.309
Mof_C 	C 	-1.43008e-32	0.7028	0.7028	0.112
Mof_C 	C 	0.5	0.1518	0.6518	-0.324
Mof_C 	C 	0.5	0.2028	0.7028	0.191
Mof_C 	C 	0.5	0.6518	0.1518	-0.324
Mof_C 	C 	0.5	0.7028	0.2028	0.191
Mof_C 	C 	-1.94009e-32	0.8482	0.8482	-0.666
Mof_C 	C 	1.42796e-32	0.7972	0.7972	0.46
Mof_C 	C 	1.30554e-33	0.3482	0.3482	-0.293
Mof_C 	C 	1.11432e-33	0.2972	0.2972	0.21
Mof_C 	C 	0.5	0.8482	0.3482	-0.571
Mof_C 	C 	0.5	0.7972	0.2972	0.417
Mof_C 	C 	0.5	0.3482	0.8482	-0.571
Mof_C 	C 	0.5	0.2972	0.7972	0.417
Mof_C 	C 	-1.49554e-32	0.8482	0.1518	-0.414
Mof_C 	C 	1.06396e-32	0.7972	0.2028	0.284
Mof_C 	C 	-8.84673e-33	0.3482	0.6518	-0.301
Mof_C 	C 	-3.01022e-33	0.2972	0.7028	0.16
Mof_C 	C 	0.5	0.8482	0.6518	-0.578
Mof_C 	C 	0.5	0.7972	0.7028	0.368
Mof_C 	C 	0.5	0.3482	0.1518	-0.314
Mof_C 	C 	0.5	0.2972	0.2028	0.238
Mof_C 	C 	-1.94009e-32	0.1518	0.8482	-0.414
Mof_C 	C 	8.63432e-33	0.2028	0.7972	0.284
Mof_C 	C 	-7.1624e-33	0.6518	0.3482	-0.301
Mof_C 	C 	-4.53097e-33	0.7028	0.2972	0.16
Mof_C 	C 	0.5	0.1518	0.3482	-0.314
Mof_C 	C 	0.5	0.2028	0.2972	0.238
Mof_C 	C 	0.5	0.6518	0.8482	-0.578
Mof_C 	C 	0.5	0.7028	0.7972	0.368
Mof_C 	C 	0.1518	1.41132e-33	0.1518	-0.154
Mof_C 	C 	0.2028	1.41132e-33	0.2028	0.101
Mof_C 	C 	0.1518	0.5	0.6518	-0.324
Mof_C 	C 	0.2028	0.5	0.7028	0.191
Mof_C 	C 	0.6518	0	0.6518	-0.309
Mof_C 	C 	0.7028	-5.6453e-33	0.7028	0.112
Mof_C 	C 	0.6518	0.5	0.1518	-0.324
Mof_C 	C 	0.7028	0.5	0.2028	0.191
Mof_C 	C 	0.8482	0	0.8482	-0.666
Mof_C 	C 	0.7972	0	0.7972	0.46
Mof_C 	C 	0.8482	0.5	0.3482	-0.571
Mof_C 	C 	0.7972	0.5	0.2972	0.417
Mof_C 	C 	0.3482	0	0.3482	-0.293
Mof_C 	C 	0.2972	0	0.2972	0.21
Mof_C 	C 	0.3482	0.5	0.8482	-0.571
Mof_C 	C 	0.2972	0.5	0.7972	0.417
Mof_C 	C 	0.1518	0	0.8482	-0.414
Mof_C 	C 	0.2028	0	0.7972	0.284
Mof_C 	C 	0.1518	0.5	0.3482	-0.314
Mof_C 	C 	0.2028	0.5	0.2972	0.238
Mof_C 	C 	0.6518	0	0.3482	-0.301
Mof_C 	C 	0.7028	0	0.2972	0.16
Mof_C 	C 	0.6518	0.5	0.8482	-0.578
Mof_C 	C 	0.7028	0.5	0.7972	0.368
Mof_C 	C 	0.8482	1.41132e-33	0.1518	-0.414
Mof_C 	C 	0.7972	1.41132e-33	0.2028	0.284
Mof_C 	C 	0.8482	0.5	0.6518	-0.578
Mof_C 	C 	0.7972	0.5	0.7028	0.368
Mof_C 	C 	0.3482	0	0.6518	-0.301
Mof_C 	C 	0.2972	-5.6453e-33	0.7028	0.16
Mof_C 	C 	0.3482	0.5	0.1518	-0.314
Mof_C 	C 	0.2972	0.5	0.2028	0.238
Mof_O 	O 	0.0679	0.0679	0.0679	8.876
Mof_O 	O 	0.0509	0.0509	0.0509	-8.775
Mof_H 	H 	0.0958	0.0958	0.0958	-2.583
Mof_O 	O 	0.0679	0.5679	0.5679	4.457
Mof_O 	O 	0.0509	0.5509	0.5509	-4.867
Mof_H 	H 	0.0958	0.5958	0.5958	-1.334
Mof_O 	O 	0.5679	0.0679	0.5679	4.457
Mof_O 	O 	0.5509	0.0509	0.5509	-4.867
Mof_H 	H 	0.5958	0.0958	0.5958	-1.334
Mof_O 	O 	0.5679	0.5679	0.0679	4.457
Mof_O 	O 	0.5509	0.5509	0.0509	-4.867
Mof_H 	H 	0.5958	0.5958	0.0958	-1.334
Mof_O 	O 	0.9321	0.9321	0.0679	-0.198
Mof_O 	O 	0.9491	0.9491	0.0509	-0.653
Mof_H 	H 	0.9042	0.9042	0.0958	0.1
Mof_O 	O 	0.9321	0.4321	0.5679	-0.266
Mof_O 	O 	0.9491	0.4491	0.5509	-0.637
Mof_H 	H 	0.9042	0.4042	0.5958	0.06
Mof_O 	O 	0.4321	0.9321	0.5679	-0.266
Mof_O 	O 	0.4491	0.9491	0.5509	-0.637
Mof_H 	H 	0.4042	0.9042	0.5958	0.06
Mof_O 	O 	0.4321	0.4321	0.0679	4.544
Mof_O 	O 	0.4491	0.4491	0.0509	-4.936
Mof_H 	H 	0.4042	0.4042	0.0958	-1.361
Mof_O 	O 	0.9321	0.0679	0.9321	-0.198
Mof_O 	O 	0.9491	0.0509	0.9491	-0.653
Mof_H 	H 	0.9042	0.0958	0.9042	0.1
Mof_O 	O 	0.9321	0.5679	0.4321	-0.266
Mof_O 	O 	0.9491	0.5509	0.4491	-0.637
Mof_H 	H 	0.9042	0.5958	0.4042	0.06
Mof_O 	O 	0.4321	0.0679	0.4321	4.544
Mof_O 	O 	0.4491	0.0509	0.4491	-4.936
Mof_H 	H 	0.4042	0.0958	0.4042	-1.361
Mof_O 	O 	0.4321	0.5679	0.9321	-0.266
Mof_O 	O 	0.4491	0.5509	0.9491	-0.637
Mof_H 	H 	0.4042	0.5958	0.9042	0.06
Mof_O 	O 	0.0679	0.9321	0.9321	-0.198
Mof_O 	O 	0.0509	0.9491	0.9491	-0.653
Mof_H 	H 	0.0958	0.9042	0.9042	0.1
Mof_O 	O 	0.0679	0.4321	0.4321	4.544
Mof_O 	O 	0.0509	0.4491	0.4491	-4.936
Mof_H 	H 	0.0958	0.4042	0.4042	-1.361
Mof_O 	O 	0.5679	0.9321	0.4321	-0.266
Mof_O 	O 	0.5509	0.9491	0.4491	-0.637
Mof_H 	H 	0.5958	0.9042	0.4042	0.06
Mof_O 	O 	0.5679	0.4321	0.9321	-0.266
Mof_O 	O 	0.5509	0.4491	0.9491	-0.637
Mof_H 	H 	0.5958	0.4042	0.9042	0.06
Mof_O 	O 	0.0679	0.0679	0.9321	4.41
Mof_O 	O 	0.0509	0.0509	0.9491	-4.774
Mof_H 	H 	0.0958	0.0958	0.9042	-1.26
Mof_O 	O 	0.0679	0.5679	0.4321	4.501
Mof_O 	O 	0.0509	0.5509	0.4491	-4.902
Mof_H 	H 	0.0958	0.5958	0.4042	-1.348
Mof_O 	O 	0.5679	0.0679	0.4321	4.501
Mof_O 	O 	0.5509	0.0509	0.4491	-4.902
Mof_H 	H 	0.5958	0.0958	0.4042	-1.348
Mof_O 	O 	0.5679	0.5679	0.9321	-0.318
Mof_O 	O 	0.5509	0.5509	0.9491	-0.594
Mof_H 	H 	0.5958	0.5958	0.9042	0.075
Mof_O 	O 	0.9321	0.9321	0.9321	-4.947
Mof_O 	O 	0.9491	0.9491	0.9491	3.59
Mof_H 	H 	0.9042	0.9042	0.9042	1.497
Mof_O 	O 	0.9321	0.4321	0.4321	-0.215
Mof_O 	O 	0.9491	0.4491	0.4491	-0.678
Mof_H 	H 	0.9042	0.4042	0.4042	0.045
Mof_O 	O 	0.4321	0.9321	0.4321	-0.215
Mof_O 	O 	0.4491	0.9491	0.4491	-0.678
Mof_H 	H 	0.4042	0.9042	0.4042	0.045
Mof_O 	O 	0.4321	0.4321	0.9321	-0.215
Mof_O 	O 	0.4491	0.4491	0.9491	-0.678
Mof_H 	H 	0.4042	0.4042	0.9042	0.045
Mof_O 	O 	0.0679	0.9321	0.0679	4.41
Mof_O 	O 	0.0509	0.9491	0.0509	-4.774
Mof_H 	H 	0.0958	0.9042	0.0958	-1.26
Mof_O 	O 	0.0679	0.4321	0.5679	4.501
Mof_O 	O 	0.0509	0.4491	0.5509	-4.902
Mof_H 	H 	0.0958	0.4042	0.5958	-1.348
Mof_O 	O 	0.5679	0.9321	0.5679	-0.318
Mof_O 	O 	0.5509	0.9491	0.5509	-0.594
Mof_H 	H 	0.5958	0.9042	0.5958	0.075
Mof_O 	O 	0.5679	0.4321	0.0679	4.501
Mof_O 	O 	0.5509	0.4491	0.0509	-4.902
Mof_H 	H 	0.5958	0.4042	0.0958	-1.348
Mof_O 	O 	0.9321	0.0679	0.0679	4.41
Mof_O 	O 	0.9491	0.0509	0.0509	-4.774
Mof_H 	H 	0.9042	0.0958	0.0958	-1.26
Mof_O 	O 	0.9321	0.5679	0.5679	-0.318
Mof_O 	O 	0.9491	0.5509	0.5509	-0.594
Mof_H 	H 	0.9042	0.5958	0.5958	0.075
Mof_O 	O 	0.4321	0.0679	0.5679	4.501
Mof_O 	O 	0.4491	0.0509	0.5509	-4.902
Mof_H 	H 	0.4042	0.0958	0.5958	-1.348
Mof_O 	O 	0.4321	0.5679	0.0679	4.501
Mof_O 	O 	0.4491	0.5509	0.0509	-4.902
Mof_H 	H 	0.4042	0.5958	0.0958	-1.348
_end
