data_functionalizedCrystal
_audit_creation_method	'EQeq! by Chris Wilmer'
_symmetry_space_group_name_H-M	'P1'
_symmetry_Int_Tables_number	1
_symmetry_cell_setting	triclinic
loop_
_symmetry_equiv_pos_as_xyz
  x,y,z
_cell_length_a	27.2925
_cell_length_b	27.8988
_cell_length_c	16.2886
_cell_angle_alpha	90
_cell_angle_beta	100.1
_cell_angle_gamma	90
loop_
_atom_site_label
_atom_site_type_symbol
_atom_site_fract_x
_atom_site_fract_y
_atom_site_fract_z
_atom_site_charge
Mof_C 	C 	0.1727	0.4357	0.3071	0.412
Mof_C 	C 	0.2107	0.3991	0.3056	-0.175
Mof_C 	C 	0.2383	0.3801	0.3793	0.097
Mof_H 	H 	0.2327	0.3922	0.4301	0.008
Mof_C 	C 	0.2722	0.3457	0.3798	-0.173
Mof_H 	H 	0.2888	0.3338	0.4305	0.084
Mof_C 	C 	0.2837	0.3265	0.3036	0.107
Mof_C 	C 	0.2551	0.3464	0.2262	-0.169
Mof_H 	H 	0.2592	0.3344	0.1745	0.091
Mof_C 	C 	0.2232	0.3817	0.2313	0.1
Mof_H 	H 	0.208	0.396	0.1818	0.007
Mof_C 	C 	0.4909	0.1231	0.3721	0.117
Mof_H 	H 	0.5076	0.1099	0.4217	0.004
Mof_C 	C 	0.4577	0.16	0.3756	-0.185
Mof_H 	H 	0.4539	0.1729	0.4267	0.105
Mof_C 	C 	0.4301	0.1776	0.3022	0.127
Mof_C 	C 	0.4391	0.1596	0.2291	-0.188
Mof_H 	H 	0.4223	0.1725	0.1795	0.094
Mof_C 	C 	0.4721	0.1232	0.2256	0.113
Mof_H 	H 	0.4757	0.1104	0.1743	0.003
Mof_C 	C 	0.5003	0.1052	0.2986	-0.189
Mof_C 	C 	0.5373	0.0667	0.2945	0.432
Mof_C 	C 	0.3206	0.2877	0.3009	-0.084
Mof_C 	C 	0.3657	0.2932	0.3569	-0.013
Mof_C 	C 	0.4033	0.255	0.3516	-0.004
Mof_C 	C 	0.3928	0.2161	0.3036	-0.035
Mof_C 	C 	0.3432	0.2111	0.2495	-0.046
Mof_C 	C 	0.2991	0.2492	0.2344	0.171
Mof_C 	C 	0.2507	0.1995	0.1411	0.197
Mof_H 	H 	0.2376	0.1734	0.1701	-0.028
Mof_H 	H 	0.2795	0.1888	0.1186	-0.035
Mof_C 	C 	0.2076	0.2249	0.0694	-0.418
Mof_H 	H 	0.2212	0.253	0.0463	0.15
Mof_H 	H 	0.1964	0.2025	0.0244	0.142
Mof_C 	C 	0.1635	0.2394	0.1128	0.424
Mof_H 	H 	0.1454	0.2095	0.1135	-0.101
Mof_H 	H 	0.1796	0.2444	0.1701	-0.068
Mof_C 	C 	0.1302	0.2695	0.1035	-0.592
Mof_H 	H 	0.1035	0.2541	0.0655	0.191
Mof_H 	H 	0.1426	0.2944	0.071	0.191
Mof_C 	C 	0.1004	0.3002	0.1684	0.292
Mof_H 	H 	0.1103	0.3336	0.1729	-0.057
Mof_H 	H 	0.0645	0.2979	0.1527	-0.066
Mof_C 	C 	0.1215	0.2701	0.2531	-0.702
Mof_H 	H 	0.1079	0.2831	0.2988	0.237
Mof_H 	H 	0.1571	0.2724	0.2651	0.254
Mof_H 	H 	0.1119	0.2371	0.2452	0.24
Mof_C 	C 	0.4478	0.2894	0.4865	-1.398
Mof_H 	H 	0.4222	0.3127	0.4663	0.403
Mof_H 	H 	0.4319	0.2674	0.5197	0.433
Mof_C 	C 	0.4714	0.3108	0.5374	1.555
Mof_H 	H 	0.4694	0.2933	0.5882	-0.438
Mof_C 	C 	0.4686	0.3647	0.5618	-1.161
Mof_H 	H 	0.467	0.365	0.6208	0.368
Mof_H 	H 	0.5007	0.3784	0.5568	0.36
Mof_C 	C 	0.43	0.4007	0.5217	0.554
Mof_H 	H 	0.4041	0.4061	0.5546	-0.155
Mof_H 	H 	0.4152	0.3919	0.4652	-0.166
Mof_C 	C 	0.4676	0.4452	0.5251	-0.489
Mof_H 	H 	0.5027	0.4374	0.5387	0.193
Mof_H 	H 	0.459	0.4733	0.5546	0.168
Mof_O 	O 	0.1652	0.4498	0.378	-0.46
Mof_O 	O 	0.1488	0.4499	0.2386	-0.472
Mof_O 	O 	0.5601	0.0512	0.3626	-0.484
Mof_O 	O 	0.5437	0.0509	0.2256	-0.48
Mof_O 	O 	0.4471	0.2611	0.4123	0.108
Mof_O 	O 	0.2603	0.2405	0.1901	-0.285
Mof_H 	H 	0.5052	0.3064	0.5278	-0.318
Mof_C 	C 	0.6727	0.9357	0.3071	0.406
Mof_C 	C 	0.7107	0.8991	0.3056	-0.16
Mof_C 	C 	0.7383	0.8801	0.3793	0.091
Mof_H 	H 	0.7327	0.8922	0.4301	0.018
Mof_C 	C 	0.7722	0.8457	0.3798	-0.164
Mof_H 	H 	0.7888	0.8338	0.4305	0.085
Mof_C 	C 	0.7837	0.8265	0.3036	0.105
Mof_C 	C 	0.7551	0.8464	0.2262	-0.159
Mof_H 	H 	0.7592	0.8344	0.1745	0.092
Mof_C 	C 	0.7232	0.8817	0.2313	0.094
Mof_H 	H 	0.708	0.896	0.1818	0.017
Mof_C 	C 	0.9909	0.6231	0.3721	0.116
Mof_H 	H 	0.0076	0.6099	0.4217	0.004
Mof_C 	C 	0.9577	0.66	0.3756	-0.185
Mof_H 	H 	0.9539	0.6729	0.4267	0.105
Mof_C 	C 	0.9301	0.6776	0.3022	0.127
Mof_C 	C 	0.9391	0.6596	0.2291	-0.188
Mof_H 	H 	0.9223	0.6725	0.1795	0.095
Mof_C 	C 	0.9721	0.6232	0.2256	0.113
Mof_H 	H 	0.9757	0.6104	0.1743	0.003
Mof_C 	C 	0.0003	0.6052	0.2986	-0.189
Mof_C 	C 	0.0373	0.5667	0.2945	0.431
Mof_C 	C 	0.8206	0.7877	0.3009	-0.082
Mof_C 	C 	0.8657	0.7932	0.3569	-0.011
Mof_C 	C 	0.9033	0.755	0.3516	-0.003
Mof_C 	C 	0.8928	0.7161	0.3036	-0.035
Mof_C 	C 	0.8432	0.7111	0.2495	-0.045
Mof_C 	C 	0.7991	0.7492	0.2344	0.171
Mof_C 	C 	0.7507	0.6995	0.1411	0.197
Mof_H 	H 	0.7376	0.6734	0.1701	-0.027
Mof_H 	H 	0.7795	0.6888	0.1186	-0.034
Mof_C 	C 	0.7076	0.7249	0.0694	-0.421
Mof_H 	H 	0.7212	0.753	0.0463	0.152
Mof_H 	H 	0.6964	0.7025	0.0244	0.145
Mof_C 	C 	0.6635	0.7394	0.1128	0.43
Mof_H 	H 	0.6454	0.7095	0.1135	-0.101
Mof_H 	H 	0.6796	0.7444	0.1701	-0.069
Mof_C 	C 	0.6302	0.7695	0.1035	-0.599
Mof_H 	H 	0.6035	0.7541	0.0655	0.195
Mof_H 	H 	0.6426	0.7944	0.071	0.195
Mof_C 	C 	0.6004	0.8002	0.1684	0.296
Mof_H 	H 	0.6103	0.8336	0.1729	-0.055
Mof_H 	H 	0.5645	0.7979	0.1527	-0.065
Mof_C 	C 	0.6215	0.7701	0.2531	-0.707
Mof_H 	H 	0.6079	0.7831	0.2988	0.239
Mof_H 	H 	0.6571	0.7724	0.2651	0.256
Mof_H 	H 	0.6119	0.7371	0.2452	0.243
Mof_C 	C 	0.9478	0.7894	0.4865	-1.381
Mof_H 	H 	0.9222	0.8127	0.4663	0.4
Mof_H 	H 	0.9319	0.7674	0.5197	0.428
Mof_C 	C 	0.9714	0.8108	0.5374	1.534
Mof_H 	H 	0.9694	0.7933	0.5882	-0.431
Mof_C 	C 	0.9686	0.8647	0.5618	-1.149
Mof_H 	H 	0.967	0.865	0.6208	0.368
Mof_H 	H 	0.0007	0.8784	0.5568	0.358
Mof_C 	C 	0.93	0.9007	0.5217	0.547
Mof_H 	H 	0.9041	0.9061	0.5546	-0.146
Mof_H 	H 	0.9152	0.8919	0.4652	-0.159
Mof_C 	C 	0.9676	0.9452	0.5251	-0.485
Mof_H 	H 	0.0027	0.9374	0.5387	0.197
Mof_H 	H 	0.959	0.9733	0.5546	0.186
Mof_O 	O 	0.6652	0.9498	0.378	-0.437
Mof_O 	O 	0.6488	0.9499	0.2386	-0.448
Mof_O 	O 	0.0601	0.5512	0.3626	-0.478
Mof_O 	O 	0.0437	0.5509	0.2256	-0.474
Mof_O 	O 	0.9471	0.7611	0.4123	0.104
Mof_O 	O 	0.7603	0.7405	0.1901	-0.285
Mof_H 	H 	0.0052	0.8064	0.5278	-0.313
Mof_C 	C 	0.8273	0.4357	0.6929	0.413
Mof_C 	C 	0.7893	0.3991	0.6944	-0.174
Mof_C 	C 	0.7617	0.3801	0.6207	0.098
Mof_H 	H 	0.7673	0.3922	0.5699	0.009
Mof_C 	C 	0.7278	0.3457	0.6202	-0.172
Mof_H 	H 	0.7112	0.3338	0.5695	0.085
Mof_C 	C 	0.7163	0.3265	0.6964	0.108
Mof_C 	C 	0.7449	0.3464	0.7738	-0.168
Mof_H 	H 	0.7408	0.3344	0.8255	0.092
Mof_C 	C 	0.7768	0.3817	0.7687	0.101
Mof_H 	H 	0.792	0.396	0.8182	0.007
Mof_C 	C 	0.5091	0.1231	0.6279	0.117
Mof_H 	H 	0.4924	0.1099	0.5783	0.004
Mof_C 	C 	0.5423	0.16	0.6244	-0.185
Mof_H 	H 	0.5461	0.1729	0.5733	0.105
Mof_C 	C 	0.5699	0.1776	0.6978	0.127
Mof_C 	C 	0.5609	0.1596	0.7709	-0.188
Mof_H 	H 	0.5777	0.1725	0.8205	0.094
Mof_C 	C 	0.5279	0.1232	0.7744	0.113
Mof_H 	H 	0.5243	0.1104	0.8257	0.003
Mof_C 	C 	0.4997	0.1052	0.7014	-0.189
Mof_C 	C 	0.4627	0.0667	0.7055	0.432
Mof_C 	C 	0.6794	0.2877	0.6991	-0.084
Mof_C 	C 	0.6343	0.2932	0.6431	-0.013
Mof_C 	C 	0.5967	0.255	0.6484	-0.004
Mof_C 	C 	0.6072	0.2161	0.6964	-0.035
Mof_C 	C 	0.6568	0.2111	0.7505	-0.046
Mof_C 	C 	0.7009	0.2492	0.7656	0.171
Mof_C 	C 	0.7493	0.1995	0.8589	0.197
Mof_H 	H 	0.7624	0.1734	0.8299	-0.028
Mof_H 	H 	0.7205	0.1888	0.8814	-0.035
Mof_C 	C 	0.7924	0.2249	0.9306	-0.418
Mof_H 	H 	0.7788	0.253	0.9537	0.15
Mof_H 	H 	0.8036	0.2025	0.9756	0.142
Mof_C 	C 	0.8365	0.2394	0.8872	0.424
Mof_H 	H 	0.8546	0.2095	0.8865	-0.101
Mof_H 	H 	0.8204	0.2444	0.8299	-0.068
Mof_C 	C 	0.8698	0.2695	0.8965	-0.592
Mof_H 	H 	0.8965	0.2541	0.9345	0.191
Mof_H 	H 	0.8574	0.2944	0.929	0.191
Mof_C 	C 	0.8996	0.3002	0.8316	0.292
Mof_H 	H 	0.8897	0.3336	0.8271	-0.057
Mof_H 	H 	0.9355	0.2979	0.8473	-0.066
Mof_C 	C 	0.8785	0.2701	0.7469	-0.702
Mof_H 	H 	0.8921	0.2831	0.7012	0.237
Mof_H 	H 	0.8429	0.2724	0.7349	0.254
Mof_H 	H 	0.8881	0.2371	0.7548	0.24
Mof_C 	C 	0.5522	0.2894	0.5135	-1.398
Mof_H 	H 	0.5778	0.3127	0.5337	0.403
Mof_H 	H 	0.5681	0.2674	0.4803	0.433
Mof_C 	C 	0.5286	0.3108	0.4626	1.555
Mof_H 	H 	0.5306	0.2933	0.4118	-0.438
Mof_C 	C 	0.5314	0.3647	0.4382	-1.161
Mof_H 	H 	0.533	0.365	0.3792	0.368
Mof_H 	H 	0.4993	0.3784	0.4432	0.36
Mof_C 	C 	0.57	0.4007	0.4783	0.554
Mof_H 	H 	0.5959	0.4061	0.4454	-0.155
Mof_H 	H 	0.5848	0.3919	0.5348	-0.166
Mof_C 	C 	0.5324	0.4452	0.4749	-0.489
Mof_H 	H 	0.4973	0.4374	0.4613	0.193
Mof_H 	H 	0.541	0.4733	0.4454	0.168
Mof_O 	O 	0.8348	0.4498	0.622	-0.46
Mof_O 	O 	0.8512	0.4499	0.7614	-0.472
Mof_O 	O 	0.4399	0.0512	0.6374	-0.484
Mof_O 	O 	0.4563	0.0509	0.7744	-0.48
Mof_O 	O 	0.5529	0.2611	0.5877	0.108
Mof_O 	O 	0.7397	0.2405	0.8099	-0.285
Mof_H 	H 	0.4948	0.3064	0.4722	-0.318
Mof_C 	C 	0.3273	0.9357	0.6929	0.406
Mof_C 	C 	0.2893	0.8991	0.6944	-0.16
Mof_C 	C 	0.2617	0.8801	0.6207	0.091
Mof_H 	H 	0.2673	0.8922	0.5699	0.018
Mof_C 	C 	0.2278	0.8457	0.6202	-0.164
Mof_H 	H 	0.2112	0.8338	0.5695	0.085
Mof_C 	C 	0.2163	0.8265	0.6964	0.105
Mof_C 	C 	0.2449	0.8464	0.7738	-0.159
Mof_H 	H 	0.2408	0.8344	0.8255	0.092
Mof_C 	C 	0.2768	0.8817	0.7687	0.094
Mof_H 	H 	0.292	0.896	0.8182	0.017
Mof_C 	C 	0.0091	0.6231	0.6279	0.116
Mof_H 	H 	0.9924	0.6099	0.5783	0.004
Mof_C 	C 	0.0423	0.66	0.6244	-0.185
Mof_H 	H 	0.0461	0.6729	0.5733	0.105
Mof_C 	C 	0.0699	0.6776	0.6978	0.127
Mof_C 	C 	0.0609	0.6596	0.7709	-0.188
Mof_H 	H 	0.0777	0.6725	0.8205	0.095
Mof_C 	C 	0.0279	0.6232	0.7744	0.113
Mof_H 	H 	0.0243	0.6104	0.8257	0.003
Mof_C 	C 	0.9997	0.6052	0.7014	-0.189
Mof_C 	C 	0.9627	0.5667	0.7055	0.431
Mof_C 	C 	0.1794	0.7877	0.6991	-0.082
Mof_C 	C 	0.1343	0.7932	0.6431	-0.011
Mof_C 	C 	0.0967	0.755	0.6484	-0.003
Mof_C 	C 	0.1072	0.7161	0.6964	-0.035
Mof_C 	C 	0.1568	0.7111	0.7505	-0.045
Mof_C 	C 	0.2009	0.7492	0.7656	0.171
Mof_C 	C 	0.2493	0.6995	0.8589	0.197
Mof_H 	H 	0.2624	0.6734	0.8299	-0.027
Mof_H 	H 	0.2205	0.6888	0.8814	-0.034
Mof_C 	C 	0.2924	0.7249	0.9306	-0.421
Mof_H 	H 	0.2788	0.753	0.9537	0.152
Mof_H 	H 	0.3036	0.7025	0.9756	0.145
Mof_C 	C 	0.3365	0.7394	0.8872	0.43
Mof_H 	H 	0.3546	0.7095	0.8865	-0.101
Mof_H 	H 	0.3204	0.7444	0.8299	-0.069
Mof_C 	C 	0.3698	0.7695	0.8965	-0.599
Mof_H 	H 	0.3965	0.7541	0.9345	0.195
Mof_H 	H 	0.3574	0.7944	0.929	0.195
Mof_C 	C 	0.3996	0.8002	0.8316	0.296
Mof_H 	H 	0.3897	0.8336	0.8271	-0.055
Mof_H 	H 	0.4355	0.7979	0.8473	-0.065
Mof_C 	C 	0.3785	0.7701	0.7469	-0.707
Mof_H 	H 	0.3921	0.7831	0.7012	0.239
Mof_H 	H 	0.3429	0.7724	0.7349	0.256
Mof_H 	H 	0.3881	0.7371	0.7548	0.243
Mof_C 	C 	0.0522	0.7894	0.5135	-1.381
Mof_H 	H 	0.0778	0.8127	0.5337	0.4
Mof_H 	H 	0.0681	0.7674	0.4803	0.428
Mof_C 	C 	0.0286	0.8108	0.4626	1.534
Mof_H 	H 	0.0306	0.7933	0.4118	-0.431
Mof_C 	C 	0.0314	0.8647	0.4382	-1.149
Mof_H 	H 	0.033	0.865	0.3792	0.368
Mof_H 	H 	0.9993	0.8784	0.4432	0.358
Mof_C 	C 	0.07	0.9007	0.4783	0.547
Mof_H 	H 	0.0959	0.9061	0.4454	-0.146
Mof_H 	H 	0.0848	0.8919	0.5348	-0.159
Mof_C 	C 	0.0324	0.9452	0.4749	-0.485
Mof_H 	H 	0.9973	0.9374	0.4613	0.197
Mof_H 	H 	0.041	0.9733	0.4454	0.186
Mof_O 	O 	0.3348	0.9498	0.622	-0.437
Mof_O 	O 	0.3512	0.9499	0.7614	-0.448
Mof_O 	O 	0.9399	0.5512	0.6374	-0.478
Mof_O 	O 	0.9563	0.5509	0.7744	-0.474
Mof_O 	O 	0.0529	0.7611	0.5877	0.104
Mof_O 	O 	0.2397	0.7405	0.8099	-0.285
Mof_H 	H 	0.9948	0.8064	0.4722	-0.313
Mof_C 	C 	0.8273	0.5643	0.6929	0.413
Mof_C 	C 	0.7893	0.6009	0.6944	-0.174
Mof_C 	C 	0.7617	0.6199	0.6207	0.098
Mof_H 	H 	0.7673	0.6078	0.5699	0.009
Mof_C 	C 	0.7278	0.6543	0.6202	-0.172
Mof_H 	H 	0.7112	0.6662	0.5695	0.086
Mof_C 	C 	0.7163	0.6735	0.6964	0.108
Mof_C 	C 	0.7449	0.6536	0.7738	-0.168
Mof_H 	H 	0.7408	0.6656	0.8255	0.092
Mof_C 	C 	0.7768	0.6183	0.7687	0.101
Mof_H 	H 	0.792	0.604	0.8182	0.007
Mof_C 	C 	0.5091	0.8769	0.6279	0.109
Mof_H 	H 	0.4924	0.8901	0.5783	0.014
Mof_C 	C 	0.5423	0.84	0.6244	-0.174
Mof_H 	H 	0.5461	0.8271	0.5733	0.103
Mof_C 	C 	0.5699	0.8224	0.6978	0.123
Mof_C 	C 	0.5609	0.8404	0.7709	-0.177
Mof_H 	H 	0.5777	0.8275	0.8205	0.094
Mof_C 	C 	0.5279	0.8768	0.7744	0.105
Mof_H 	H 	0.5243	0.8896	0.8257	0.015
Mof_C 	C 	0.4997	0.8948	0.7014	-0.171
Mof_C 	C 	0.4627	0.9333	0.7055	0.424
Mof_C 	C 	0.6794	0.7123	0.6991	-0.084
Mof_C 	C 	0.6343	0.7068	0.6431	-0.013
Mof_C 	C 	0.5967	0.745	0.6484	-0.005
Mof_C 	C 	0.6072	0.7839	0.6964	-0.032
Mof_C 	C 	0.6568	0.7889	0.7505	-0.041
Mof_C 	C 	0.7009	0.7508	0.7656	0.17
Mof_C 	C 	0.7493	0.8005	0.8589	0.189
Mof_H 	H 	0.7624	0.8266	0.8299	-0.019
Mof_H 	H 	0.7205	0.8112	0.8814	-0.028
Mof_C 	C 	0.7924	0.7751	0.9306	-0.411
Mof_H 	H 	0.7788	0.747	0.9537	0.148
Mof_H 	H 	0.8036	0.7975	0.9756	0.145
Mof_C 	C 	0.8365	0.7606	0.8872	0.414
Mof_H 	H 	0.8546	0.7905	0.8865	-0.093
Mof_H 	H 	0.8204	0.7556	0.8299	-0.064
Mof_C 	C 	0.8698	0.7305	0.8965	-0.585
Mof_H 	H 	0.8965	0.7459	0.9345	0.191
Mof_H 	H 	0.8574	0.7056	0.929	0.189
Mof_C 	C 	0.8996	0.6998	0.8316	0.291
Mof_H 	H 	0.8897	0.6664	0.8271	-0.056
Mof_H 	H 	0.9355	0.7021	0.8473	-0.064
Mof_C 	C 	0.8785	0.7299	0.7469	-0.706
Mof_H 	H 	0.8921	0.7169	0.7012	0.239
Mof_H 	H 	0.8429	0.7276	0.7349	0.256
Mof_H 	H 	0.8881	0.7629	0.7548	0.244
Mof_C 	C 	0.5522	0.7106	0.5135	-1.396
Mof_H 	H 	0.5778	0.6873	0.5337	0.403
Mof_H 	H 	0.5681	0.7326	0.4803	0.433
Mof_C 	C 	0.5286	0.6892	0.4626	1.552
Mof_H 	H 	0.5306	0.7067	0.4118	-0.437
Mof_C 	C 	0.5314	0.6353	0.4382	-1.159
Mof_H 	H 	0.533	0.635	0.3792	0.367
Mof_H 	H 	0.4993	0.6216	0.4432	0.359
Mof_C 	C 	0.57	0.5993	0.4783	0.553
Mof_H 	H 	0.5959	0.5939	0.4454	-0.155
Mof_H 	H 	0.5848	0.6081	0.5348	-0.165
Mof_C 	C 	0.5324	0.5548	0.4749	-0.488
Mof_H 	H 	0.4973	0.5626	0.4613	0.193
Mof_H 	H 	0.541	0.5267	0.4454	0.167
Mof_O 	O 	0.8348	0.5502	0.622	-0.46
Mof_O 	O 	0.8512	0.5501	0.7614	-0.472
Mof_O 	O 	0.4399	0.9488	0.6374	-0.453
Mof_O 	O 	0.4563	0.9491	0.7744	-0.447
Mof_O 	O 	0.5529	0.7389	0.5877	0.107
Mof_O 	O 	0.7397	0.7595	0.8099	-0.282
Mof_H 	H 	0.4948	0.6936	0.4722	-0.318
Mof_C 	C 	0.3273	0.0643	0.6929	0.412
Mof_C 	C 	0.2893	0.1009	0.6944	-0.178
Mof_C 	C 	0.2617	0.1199	0.6207	0.098
Mof_H 	H 	0.2673	0.1078	0.5699	0.006
Mof_C 	C 	0.2278	0.1543	0.6202	-0.174
Mof_H 	H 	0.2112	0.1662	0.5695	0.085
Mof_C 	C 	0.2163	0.1735	0.6964	0.107
Mof_C 	C 	0.2449	0.1536	0.7738	-0.17
Mof_H 	H 	0.2408	0.1656	0.8255	0.092
Mof_C 	C 	0.2768	0.1183	0.7687	0.101
Mof_H 	H 	0.292	0.104	0.8182	0.004
Mof_C 	C 	0.0091	0.3769	0.6279	0.116
Mof_H 	H 	0.9924	0.3901	0.5783	0.004
Mof_C 	C 	0.0423	0.34	0.6244	-0.184
Mof_H 	H 	0.0461	0.3271	0.5733	0.105
Mof_C 	C 	0.0699	0.3224	0.6978	0.126
Mof_C 	C 	0.0609	0.3404	0.7709	-0.187
Mof_H 	H 	0.0777	0.3275	0.8205	0.094
Mof_C 	C 	0.0279	0.3768	0.7744	0.112
Mof_H 	H 	0.0243	0.3896	0.8257	0.003
Mof_C 	C 	0.9997	0.3948	0.7014	-0.188
Mof_C 	C 	0.9627	0.4333	0.7055	0.431
Mof_C 	C 	0.1794	0.2123	0.6991	-0.084
Mof_C 	C 	0.1343	0.2068	0.6431	-0.015
Mof_C 	C 	0.0967	0.245	0.6484	-0.006
Mof_C 	C 	0.1072	0.2839	0.6964	-0.034
Mof_C 	C 	0.1568	0.2889	0.7505	-0.046
Mof_C 	C 	0.2009	0.2508	0.7656	0.171
Mof_C 	C 	0.2493	0.3005	0.8589	0.195
Mof_H 	H 	0.2624	0.3266	0.8299	-0.026
Mof_H 	H 	0.2205	0.3112	0.8814	-0.033
Mof_C 	C 	0.2924	0.2751	0.9306	-0.416
Mof_H 	H 	0.2788	0.247	0.9537	0.149
Mof_H 	H 	0.3036	0.2975	0.9756	0.143
Mof_C 	C 	0.3365	0.2606	0.8872	0.42
Mof_H 	H 	0.3546	0.2905	0.8865	-0.098
Mof_H 	H 	0.3204	0.2556	0.8299	-0.067
Mof_C 	C 	0.3698	0.2305	0.8965	-0.59
Mof_H 	H 	0.3965	0.2459	0.9345	0.191
Mof_H 	H 	0.3574	0.2056	0.929	0.19
Mof_C 	C 	0.3996	0.1998	0.8316	0.291
Mof_H 	H 	0.3897	0.1664	0.8271	-0.056
Mof_H 	H 	0.4355	0.2021	0.8473	-0.065
Mof_C 	C 	0.3785	0.2299	0.7469	-0.704
Mof_H 	H 	0.3921	0.2169	0.7012	0.238
Mof_H 	H 	0.3429	0.2276	0.7349	0.255
Mof_H 	H 	0.3881	0.2629	0.7548	0.242
Mof_C 	C 	0.0522	0.2106	0.5135	-1.415
Mof_H 	H 	0.0778	0.1873	0.5337	0.407
Mof_H 	H 	0.0681	0.2326	0.4803	0.438
Mof_C 	C 	0.0286	0.1892	0.4626	1.575
Mof_H 	H 	0.0306	0.2067	0.4118	-0.444
Mof_C 	C 	0.0314	0.1353	0.4382	-1.172
Mof_H 	H 	0.033	0.135	0.3792	0.368
Mof_H 	H 	0.9993	0.1216	0.4432	0.362
Mof_C 	C 	0.07	0.0993	0.4783	0.559
Mof_H 	H 	0.0959	0.0939	0.4454	-0.162
Mof_H 	H 	0.0848	0.1081	0.5348	-0.171
Mof_C 	C 	0.0324	0.0548	0.4749	-0.491
Mof_H 	H 	0.9973	0.0626	0.4613	0.189
Mof_H 	H 	0.041	0.0267	0.4454	0.15
Mof_O 	O 	0.3348	0.0502	0.622	-0.469
Mof_O 	O 	0.3512	0.0501	0.7614	-0.48
Mof_O 	O 	0.9399	0.4488	0.6374	-0.478
Mof_O 	O 	0.9563	0.4491	0.7744	-0.474
Mof_O 	O 	0.0529	0.2389	0.5877	0.111
Mof_O 	O 	0.2397	0.2595	0.8099	-0.285
Mof_H 	H 	0.9948	0.1936	0.4722	-0.323
Mof_C 	C 	0.1727	0.5643	0.3071	0.413
Mof_C 	C 	0.2107	0.6009	0.3056	-0.174
Mof_C 	C 	0.2383	0.6199	0.3793	0.098
Mof_H 	H 	0.2327	0.6078	0.4301	0.009
Mof_C 	C 	0.2722	0.6543	0.3798	-0.172
Mof_H 	H 	0.2888	0.6662	0.4305	0.086
Mof_C 	C 	0.2837	0.6735	0.3036	0.108
Mof_C 	C 	0.2551	0.6536	0.2262	-0.168
Mof_H 	H 	0.2592	0.6656	0.1745	0.092
Mof_C 	C 	0.2232	0.6183	0.2313	0.101
Mof_H 	H 	0.208	0.604	0.1818	0.007
Mof_C 	C 	0.4909	0.8769	0.3721	0.109
Mof_H 	H 	0.5076	0.8901	0.4217	0.014
Mof_C 	C 	0.4577	0.84	0.3756	-0.174
Mof_H 	H 	0.4539	0.8271	0.4267	0.103
Mof_C 	C 	0.4301	0.8224	0.3022	0.123
Mof_C 	C 	0.4391	0.8404	0.2291	-0.177
Mof_H 	H 	0.4223	0.8275	0.1795	0.094
Mof_C 	C 	0.4721	0.8768	0.2256	0.105
Mof_H 	H 	0.4757	0.8896	0.1743	0.015
Mof_C 	C 	0.5003	0.8948	0.2986	-0.171
Mof_C 	C 	0.5373	0.9333	0.2945	0.424
Mof_C 	C 	0.3206	0.7123	0.3009	-0.084
Mof_C 	C 	0.3657	0.7068	0.3569	-0.013
Mof_C 	C 	0.4033	0.745	0.3516	-0.005
Mof_C 	C 	0.3928	0.7839	0.3036	-0.032
Mof_C 	C 	0.3432	0.7889	0.2495	-0.041
Mof_C 	C 	0.2991	0.7508	0.2344	0.17
Mof_C 	C 	0.2507	0.8005	0.1411	0.189
Mof_H 	H 	0.2376	0.8266	0.1701	-0.019
Mof_H 	H 	0.2795	0.8112	0.1186	-0.028
Mof_C 	C 	0.2076	0.7751	0.0694	-0.411
Mof_H 	H 	0.2212	0.747	0.0463	0.148
Mof_H 	H 	0.1964	0.7975	0.0244	0.145
Mof_C 	C 	0.1635	0.7606	0.1128	0.414
Mof_H 	H 	0.1454	0.7905	0.1135	-0.093
Mof_H 	H 	0.1796	0.7556	0.1701	-0.064
Mof_C 	C 	0.1302	0.7305	0.1035	-0.585
Mof_H 	H 	0.1035	0.7459	0.0655	0.191
Mof_H 	H 	0.1426	0.7056	0.071	0.189
Mof_C 	C 	0.1004	0.6998	0.1684	0.291
Mof_H 	H 	0.1103	0.6664	0.1729	-0.056
Mof_H 	H 	0.0645	0.7021	0.1527	-0.064
Mof_C 	C 	0.1215	0.7299	0.2531	-0.706
Mof_H 	H 	0.1079	0.7169	0.2988	0.239
Mof_H 	H 	0.1571	0.7276	0.2651	0.256
Mof_H 	H 	0.1119	0.7629	0.2452	0.244
Mof_C 	C 	0.4478	0.7106	0.4865	-1.396
Mof_H 	H 	0.4222	0.6873	0.4663	0.403
Mof_H 	H 	0.4319	0.7326	0.5197	0.433
Mof_C 	C 	0.4714	0.6892	0.5374	1.552
Mof_H 	H 	0.4694	0.7067	0.5882	-0.437
Mof_C 	C 	0.4686	0.6353	0.5618	-1.159
Mof_H 	H 	0.467	0.635	0.6208	0.367
Mof_H 	H 	0.5007	0.6216	0.5568	0.359
Mof_C 	C 	0.43	0.5993	0.5217	0.553
Mof_H 	H 	0.4041	0.5939	0.5546	-0.155
Mof_H 	H 	0.4152	0.6081	0.4652	-0.165
Mof_C 	C 	0.4676	0.5548	0.5251	-0.488
Mof_H 	H 	0.5027	0.5626	0.5387	0.193
Mof_H 	H 	0.459	0.5267	0.5546	0.167
Mof_O 	O 	0.1652	0.5502	0.378	-0.46
Mof_O 	O 	0.1488	0.5501	0.2386	-0.472
Mof_O 	O 	0.5601	0.9488	0.3626	-0.453
Mof_O 	O 	0.5437	0.9491	0.2256	-0.447
Mof_O 	O 	0.4471	0.7389	0.4123	0.107
Mof_O 	O 	0.2603	0.7595	0.1901	-0.282
Mof_H 	H 	0.5052	0.6936	0.5278	-0.318
Mof_C 	C 	0.6727	0.0643	0.3071	0.412
Mof_C 	C 	0.7107	0.1009	0.3056	-0.178
Mof_C 	C 	0.7383	0.1199	0.3793	0.098
Mof_H 	H 	0.7327	0.1078	0.4301	0.006
Mof_C 	C 	0.7722	0.1543	0.3798	-0.174
Mof_H 	H 	0.7888	0.1662	0.4305	0.085
Mof_C 	C 	0.7837	0.1735	0.3036	0.107
Mof_C 	C 	0.7551	0.1536	0.2262	-0.17
Mof_H 	H 	0.7592	0.1656	0.1745	0.092
Mof_C 	C 	0.7232	0.1183	0.2313	0.101
Mof_H 	H 	0.708	0.104	0.1818	0.004
Mof_C 	C 	0.9909	0.3769	0.3721	0.116
Mof_H 	H 	0.0076	0.3901	0.4217	0.004
Mof_C 	C 	0.9577	0.34	0.3756	-0.184
Mof_H 	H 	0.9539	0.3271	0.4267	0.105
Mof_C 	C 	0.9301	0.3224	0.3022	0.126
Mof_C 	C 	0.9391	0.3404	0.2291	-0.187
Mof_H 	H 	0.9223	0.3275	0.1795	0.094
Mof_C 	C 	0.9721	0.3768	0.2256	0.112
Mof_H 	H 	0.9757	0.3896	0.1743	0.003
Mof_C 	C 	0.0003	0.3948	0.2986	-0.188
Mof_C 	C 	0.0373	0.4333	0.2945	0.431
Mof_C 	C 	0.8206	0.2123	0.3009	-0.084
Mof_C 	C 	0.8657	0.2068	0.3569	-0.015
Mof_C 	C 	0.9033	0.245	0.3516	-0.006
Mof_C 	C 	0.8928	0.2839	0.3036	-0.034
Mof_C 	C 	0.8432	0.2889	0.2495	-0.046
Mof_C 	C 	0.7991	0.2508	0.2344	0.171
Mof_C 	C 	0.7507	0.3005	0.1411	0.195
Mof_H 	H 	0.7376	0.3266	0.1701	-0.026
Mof_H 	H 	0.7795	0.3112	0.1186	-0.033
Mof_C 	C 	0.7076	0.2751	0.0694	-0.416
Mof_H 	H 	0.7212	0.247	0.0463	0.149
Mof_H 	H 	0.6964	0.2975	0.0244	0.143
Mof_C 	C 	0.6635	0.2606	0.1128	0.42
Mof_H 	H 	0.6454	0.2905	0.1135	-0.098
Mof_H 	H 	0.6796	0.2556	0.1701	-0.067
Mof_C 	C 	0.6302	0.2305	0.1035	-0.59
Mof_H 	H 	0.6035	0.2459	0.0655	0.191
Mof_H 	H 	0.6426	0.2056	0.071	0.19
Mof_C 	C 	0.6004	0.1998	0.1684	0.291
Mof_H 	H 	0.6103	0.1664	0.1729	-0.056
Mof_H 	H 	0.5645	0.2021	0.1527	-0.065
Mof_C 	C 	0.6215	0.2299	0.2531	-0.704
Mof_H 	H 	0.6079	0.2169	0.2988	0.238
Mof_H 	H 	0.6571	0.2276	0.2651	0.255
Mof_H 	H 	0.6119	0.2629	0.2452	0.242
Mof_C 	C 	0.9478	0.2106	0.4865	-1.415
Mof_H 	H 	0.9222	0.1873	0.4663	0.407
Mof_H 	H 	0.9319	0.2326	0.5197	0.438
Mof_C 	C 	0.9714	0.1892	0.5374	1.575
Mof_H 	H 	0.9694	0.2067	0.5882	-0.444
Mof_C 	C 	0.9686	0.1353	0.5618	-1.172
Mof_H 	H 	0.967	0.135	0.6208	0.368
Mof_H 	H 	0.0007	0.1216	0.5568	0.362
Mof_C 	C 	0.93	0.0993	0.5217	0.559
Mof_H 	H 	0.9041	0.0939	0.5546	-0.162
Mof_H 	H 	0.9152	0.1081	0.4652	-0.171
Mof_C 	C 	0.9676	0.0548	0.5251	-0.491
Mof_H 	H 	0.0027	0.0626	0.5387	0.189
Mof_H 	H 	0.959	0.0267	0.5546	0.15
Mof_O 	O 	0.6652	0.0502	0.378	-0.469
Mof_O 	O 	0.6488	0.0501	0.2386	-0.48
Mof_O 	O 	0.0601	0.4488	0.3626	-0.478
Mof_O 	O 	0.0437	0.4491	0.2256	-0.474
Mof_O 	O 	0.9471	0.2389	0.4123	0.111
Mof_O 	O 	0.7603	0.2595	0.1901	-0.285
Mof_H 	H 	0.0052	0.1936	0.5278	-0.323
Mof_C 	C 	0.1313	0.5	0.0561	0.05
Mof_H 	H 	0.1617	0.5	0.0923	0.008
Mof_C 	C 	0.1297	0.5	0.9485	-0.134
Mof_H 	H 	0.1583	0.5	0.9248	0.068
Mof_C 	C 	0.0898	0.5	0.9088	0.077
Mof_C 	C 	0.0492	0.5	0.9467	-0.153
Mof_H 	H 	0.0186	0.5	0.9111	0.088
Mof_C 	C 	0.0472	0.5	0.0303	0.1
Mof_H 	H 	0.0167	0.5	0.0483	-0.021
Mof_C 	C 	0.1601	0.5	0.5758	0.1
Mof_H 	H 	0.19	0.5	0.5558	-0.012
Mof_C 	C 	0.1601	0.5	0.6555	-0.207
Mof_H 	H 	0.1905	0.5	0.6919	0.098
Mof_C 	C 	0.1114	0.5	0.6924	0.245
Mof_C 	C 	0.074	0.5	0.6451	-0.282
Mof_H 	H 	0.0439	0.5	0.6643	0.139
Mof_C 	C 	0.0746	0.5	0.5454	0.16
Mof_H 	H 	0.0443	0.5	0.5088	-0.026
Mof_C 	C 	0.0849	0.5	0.8172	0.082
Mof_H 	H 	0.0527	0.5	0.7864	0.011
Mof_C 	C 	0.1144	0.5	0.7834	-0.262
Mof_H 	H 	0.1463	0.5	0.8151	0.112
Mof_N 	N 	0.1121	0.5	0.5169	-0.278
Mof_N 	N 	0.0899	0.5	0.086	-0.254
Mof_Zn	Zn	0.11386	0.5	0.39395	1.218
Mof_Zn	Zn	0.09458	0.5	0.20999	1.219
Mof_C 	C 	0.6313	0	0.0561	0.044
Mof_H 	H 	0.6617	0	0.0923	-0.001
Mof_C 	C 	0.6297	0	0.9485	-0.138
Mof_H 	H 	0.6583	-8.26953e-33	0.9248	0.063
Mof_C 	C 	0.5898	0	0.9088	0.074
Mof_C 	C 	0.5492	0	0.9467	-0.155
Mof_H 	H 	0.5186	0	0.9111	0.083
Mof_C 	C 	0.5472	-2.58423e-34	0.0303	0.092
Mof_H 	H 	0.5167	-2.58423e-34	0.0483	-0.023
Mof_C 	C 	0.6601	-4.13476e-33	0.5758	0.091
Mof_H 	H 	0.69	-4.13476e-33	0.5558	-0.019
Mof_C 	C 	0.6601	-4.13476e-33	0.6555	-0.206
Mof_H 	H 	0.6905	-4.13476e-33	0.6919	0.09
Mof_C 	C 	0.6114	-4.13476e-33	0.6924	0.232
Mof_C 	C 	0.574	-4.13476e-33	0.6451	-0.279
Mof_H 	H 	0.5439	0	0.6643	0.13
Mof_C 	C 	0.5746	0	0.5454	0.151
Mof_H 	H 	0.5443	-4.13476e-33	0.5088	-0.032
Mof_C 	C 	0.5849	-8.26953e-33	0.8172	0.072
Mof_H 	H 	0.5527	-4.13476e-33	0.7864	0.007
Mof_C 	C 	0.6144	0	0.7834	-0.256
Mof_H 	H 	0.6463	-4.13476e-33	0.8151	0.105
Mof_N 	N 	0.6121	0	0.5169	-0.283
Mof_N 	N 	0.5899	0	0.086	-0.26
Mof_Zn	Zn	0.61386	0	0.39395	1.206
Mof_Zn	Zn	0.59458	0	0.20999	1.208
Mof_C 	C 	0.8687	0.5	0.9439	0.05
Mof_H 	H 	0.8383	0.5	0.9077	0.008
Mof_C 	C 	0.8703	0.5	0.0515	-0.134
Mof_H 	H 	0.8417	0.5	0.0752	0.068
Mof_C 	C 	0.9102	0.5	0.0912	0.077
Mof_C 	C 	0.9508	0.5	0.0533	-0.153
Mof_H 	H 	0.9814	0.5	0.0889	0.088
Mof_C 	C 	0.9528	0.5	0.9697	0.1
Mof_H 	H 	0.9833	0.5	0.9517	-0.021
Mof_C 	C 	0.8399	0.5	0.4242	0.1
Mof_H 	H 	0.81	0.5	0.4442	-0.012
Mof_C 	C 	0.8399	0.5	0.3445	-0.207
Mof_H 	H 	0.8095	0.5	0.3081	0.098
Mof_C 	C 	0.8886	0.5	0.3076	0.245
Mof_C 	C 	0.926	0.5	0.3549	-0.282
Mof_H 	H 	0.9561	0.5	0.3357	0.139
Mof_C 	C 	0.9254	0.5	0.4546	0.16
Mof_H 	H 	0.9557	0.5	0.4912	-0.026
Mof_C 	C 	0.9151	0.5	0.1828	0.082
Mof_H 	H 	0.9473	0.5	0.2136	0.011
Mof_C 	C 	0.8856	0.5	0.2166	-0.262
Mof_H 	H 	0.8537	0.5	0.1849	0.112
Mof_N 	N 	0.8879	0.5	0.4831	-0.278
Mof_N 	N 	0.9101	0.5	0.914	-0.254
Mof_Zn	Zn	0.88614	0.5	0.60605	1.218
Mof_Zn	Zn	0.90542	0.5	0.79001	1.219
Mof_C 	C 	0.3687	-8.26953e-33	0.9439	0.044
Mof_H 	H 	0.3383	0	0.9077	-0.001
Mof_C 	C 	0.3703	-2.58423e-34	0.0515	-0.138
Mof_H 	H 	0.3417	0	0.0752	0.063
Mof_C 	C 	0.4102	-5.16845e-34	0.0912	0.074
Mof_C 	C 	0.4508	0	0.0533	-0.155
Mof_H 	H 	0.4814	0	0.0889	0.083
Mof_C 	C 	0.4528	0	0.9697	0.092
Mof_H 	H 	0.4833	-8.26953e-33	0.9517	-0.023
Mof_C 	C 	0.3399	0	0.4242	0.091
Mof_H 	H 	0.31	-4.13476e-33	0.4442	-0.019
Mof_C 	C 	0.3399	-2.06738e-33	0.3445	-0.206
Mof_H 	H 	0.3095	-2.06738e-33	0.3081	0.09
Mof_C 	C 	0.3886	-2.06738e-33	0.3076	0.232
Mof_C 	C 	0.426	-2.06738e-33	0.3549	-0.279
Mof_H 	H 	0.4561	0	0.3357	0.13
Mof_C 	C 	0.4254	0	0.4546	0.151
Mof_H 	H 	0.4557	-4.13476e-33	0.4912	-0.032
Mof_C 	C 	0.4151	-1.03369e-33	0.1828	0.072
Mof_H 	H 	0.4473	0	0.2136	0.007
Mof_C 	C 	0.3856	-2.06738e-33	0.2166	-0.256
Mof_H 	H 	0.3537	-1.03369e-33	0.1849	0.105
Mof_N 	N 	0.3879	-4.13476e-33	0.4831	-0.283
Mof_N 	N 	0.4101	8.26953e-33	0.914	-0.26
Mof_Zn	Zn	0.38614	-4.13476e-33	0.60605	1.206
Mof_Zn	Zn	0.40542	-4.13476e-33	0.79001	1.208
_end
