data_functionalizedCrystal
_audit_creation_method	'EQeq! by Chris Wilmer'
_symmetry_space_group_name_H-M	'P1'
_symmetry_Int_Tables_number	1
_symmetry_cell_setting	triclinic
loop_
_symmetry_equiv_pos_as_xyz
  x,y,z
_cell_length_a	10.5778
_cell_length_b	19.6493
_cell_length_c	19.1872
_cell_angle_alpha	90
_cell_angle_beta	90
_cell_angle_gamma	90
loop_
_atom_site_label
_atom_site_type_symbol
_atom_site_fract_x
_atom_site_fract_y
_atom_site_fract_z
_atom_site_charge
Mof_Zn	Zn	0.61168	0.96894	0.53736	1.203
Mof_C 	C 	0.6021	0.97571	0.11868	0.413
Mof_O 	O 	0.3538	0.92831	0.4767	-0.461
Mof_O 	O 	0.6607	0.95837	0.06462	-0.475
Mof_O 	O 	0.5191	0.8792	0.52904	-0.495
Mof_O 	O 	0.4966	0.00477	0.12068	-0.482
Mof_C 	C 	0.2106	0.81087	0.4993	0.052
Mof_H 	H 	0.1655	0.8527	0.4981	0.015
Mof_C 	C 	0.6637	0.95813	0.1871	-0.147
Mof_C 	C 	0.342	0.81114	0.50047	-0.142
Mof_C 	C 	0.4103	0.87842	0.5021	0.407
Mof_C 	C 	0.7798	0.92451	0.31267	0.067
Mof_H 	H 	0.8197	0.9129	0.1446	0.002
Mof_N 	N 	0.205	0.0451	0.0702	-1.891
Mof_C 	C 	0.1148	0.0183	0.0292	0.537
Mof_H 	H 	0.1405	0.9946	0.9885	-0.129
Mof_C 	C 	0.9858	0.0233	0.043	-0.191
Mof_H 	H 	0.9248	0.0037	0.0127	0.03
Mof_C 	C 	0.9497	0.0583	0.1033	-0.231
Mof_H 	H 	0.8629	0.0627	0.1151	0.12
Mof_C 	C 	0.1679	0.0788	0.1274	-1.747
Mof_C 	C 	0.2693	0.1061	0.1751	0.794
Mof_H 	H 	0.3075	0.0684	0.2011	-0.206
Mof_H 	H 	0.2319	0.1386	0.2078	-0.171
Mof_H 	H 	0.3345	0.1289	0.1474	-0.267
Mof_C 	C 	0.0403	0.086	0.1449	-0.429
Mof_H 	H 	0.0168	0.1102	0.1858	0.039
Mof_C 	C 	0.008	0.055	0.3321	0.732
Mof_H 	H 	0.9309	0.0555	0.3067	-0.205
Mof_C 	C 	0.2066	0.0052	0.3586	0.223
Mof_H 	H 	0.2679	0.9707	0.3509	-0.069
Mof_C 	C 	0.0969	0.0046	0.3199	-0.185
Mof_H 	H 	0.0826	0.9706	0.2856	0.08
Mof_N 	N 	0.2296	0.053	0.4068	1.718
Mof_C 	C 	0.032	0.1042	0.3814	0.213
Mof_H 	H 	0.9721	0.1394	0.3894	-0.036
Mof_C 	C 	0.1458	0.1024	0.4198	1.578
Mof_C 	C 	0.1763	0.1553	0.4724	-1.921
Mof_H 	H 	0.262	0.1478	0.4902	0.56
Mof_H 	H 	0.1713	0.2004	0.4508	0.548
Mof_H 	H 	0.1157	0.1526	0.511	0.549
Mof_Zn	Zn	0.38832	0.03106	0.03736	1.202
Mof_C 	C 	0.3979	0.02429	0.61868	0.412
Mof_O 	O 	0.6462	0.07169	0.9767	-0.46
Mof_O 	O 	0.3393	0.04163	0.56462	-0.477
Mof_O 	O 	0.4809	0.1208	0.02904	-0.496
Mof_O 	O 	0.5034	0.99523	0.62068	-0.482
Mof_C 	C 	0.7894	0.18913	0.9993	0.053
Mof_H 	H 	0.8345	0.1473	0.9981	0.013
Mof_C 	C 	0.3363	0.04187	0.6871	-0.148
Mof_C 	C 	0.658	0.18886	0.00047	-0.143
Mof_C 	C 	0.5897	0.12158	0.0021	0.406
Mof_C 	C 	0.2202	0.07549	0.81267	0.067
Mof_H 	H 	0.1803	0.0871	0.6446	0.002
Mof_N 	N 	0.795	0.9549	0.5702	-1.899
Mof_C 	C 	0.8852	0.9817	0.5292	0.54
Mof_H 	H 	0.8595	0.0054	0.4885	-0.129
Mof_C 	C 	0.0142	0.9767	0.543	-0.191
Mof_H 	H 	0.0752	0.9963	0.5127	0.03
Mof_C 	C 	0.0503	0.9417	0.6033	-0.232
Mof_H 	H 	0.1371	0.9373	0.6151	0.12
Mof_C 	C 	0.8321	0.9212	0.6274	-1.756
Mof_C 	C 	0.7307	0.8939	0.6751	0.8
Mof_H 	H 	0.6925	0.9316	0.7011	-0.208
Mof_H 	H 	0.7681	0.8614	0.7078	-0.173
Mof_H 	H 	0.6655	0.8711	0.6474	-0.269
Mof_C 	C 	0.9597	0.914	0.6449	-0.431
Mof_H 	H 	0.9832	0.8898	0.6858	0.039
Mof_C 	C 	0.992	0.945	0.8321	0.731
Mof_H 	H 	0.0691	0.9445	0.8067	-0.205
Mof_C 	C 	0.7934	0.9948	0.8586	0.222
Mof_H 	H 	0.7321	0.0293	0.8509	-0.068
Mof_C 	C 	0.9031	0.9954	0.8199	-0.184
Mof_H 	H 	0.9174	0.0294	0.7856	0.08
Mof_N 	N 	0.7704	0.947	0.9068	1.716
Mof_C 	C 	0.968	0.8958	0.8814	0.213
Mof_H 	H 	0.0279	0.8606	0.8894	-0.036
Mof_C 	C 	0.8542	0.8976	0.9198	1.576
Mof_C 	C 	0.8237	0.8447	0.9724	-1.922
Mof_H 	H 	0.738	0.8522	0.9902	0.56
Mof_H 	H 	0.8287	0.7996	0.9508	0.548
Mof_H 	H 	0.8843	0.8474	0.011	0.55
Mof_Zn	Zn	0.38832	0.46894	0.96264	1.204
Mof_C 	C 	0.3979	0.47571	0.38132	0.411
Mof_O 	O 	0.6462	0.42831	0.0233	-0.463
Mof_O 	O 	0.3393	0.45837	0.43538	-0.475
Mof_O 	O 	0.4809	0.3792	0.97096	-0.495
Mof_O 	O 	0.5034	0.50477	0.37932	-0.482
Mof_C 	C 	0.7894	0.31087	0.0007	0.051
Mof_H 	H 	0.8345	0.3527	0.0019	0.014
Mof_C 	C 	0.3363	0.45813	0.3129	-0.147
Mof_C 	C 	0.658	0.31114	0.99953	-0.141
Mof_C 	C 	0.5897	0.37842	0.9979	0.407
Mof_C 	C 	0.2202	0.42451	0.18733	0.067
Mof_H 	H 	0.1803	0.4129	0.3554	0.004
Mof_N 	N 	0.795	0.5451	0.4298	-1.782
Mof_C 	C 	0.8852	0.5183	0.4708	0.521
Mof_H 	H 	0.8595	0.4946	0.5115	-0.132
Mof_C 	C 	0.0142	0.5233	0.457	-0.201
Mof_H 	H 	0.0752	0.5037	0.4873	0.04
Mof_C 	C 	0.0503	0.5583	0.3967	-0.213
Mof_H 	H 	0.1371	0.5627	0.3849	0.112
Mof_C 	C 	0.8321	0.5788	0.3726	-1.624
Mof_C 	C 	0.7307	0.6061	0.3249	0.708
Mof_H 	H 	0.6925	0.5684	0.2989	-0.181
Mof_H 	H 	0.7681	0.6386	0.2922	-0.15
Mof_H 	H 	0.6655	0.6289	0.3526	-0.239
Mof_C 	C 	0.9597	0.586	0.3551	-0.401
Mof_H 	H 	0.9832	0.6102	0.3142	0.039
Mof_C 	C 	0.992	0.555	0.1679	0.688
Mof_H 	H 	0.0691	0.5555	0.1933	-0.195
Mof_C 	C 	0.7934	0.5052	0.1414	0.21
Mof_H 	H 	0.7321	0.4707	0.1491	-0.066
Mof_C 	C 	0.9031	0.5046	0.1801	-0.17
Mof_H 	H 	0.9174	0.4706	0.2144	0.071
Mof_N 	N 	0.7704	0.553	0.0932	1.596
Mof_C 	C 	0.968	0.6042	0.1186	0.187
Mof_H 	H 	0.0279	0.6394	0.1106	-0.03
Mof_C 	C 	0.8542	0.6024	0.0802	1.484
Mof_C 	C 	0.8237	0.6553	0.0276	-1.827
Mof_H 	H 	0.738	0.6478	0.0098	0.533
Mof_H 	H 	0.8287	0.7004	0.0492	0.522
Mof_H 	H 	0.8843	0.6526	0.989	0.524
Mof_Zn	Zn	0.61168	0.53106	0.46264	1.204
Mof_C 	C 	0.6021	0.52429	0.88132	0.411
Mof_O 	O 	0.3538	0.57169	0.5233	-0.463
Mof_O 	O 	0.6607	0.54163	0.93538	-0.475
Mof_O 	O 	0.5191	0.6208	0.47096	-0.495
Mof_O 	O 	0.4966	0.49523	0.87932	-0.482
Mof_C 	C 	0.2106	0.68913	0.5007	0.051
Mof_H 	H 	0.1655	0.6473	0.5019	0.014
Mof_C 	C 	0.6637	0.54187	0.8129	-0.147
Mof_C 	C 	0.342	0.68886	0.49953	-0.142
Mof_C 	C 	0.4103	0.62158	0.4979	0.407
Mof_C 	C 	0.7798	0.57549	0.68733	0.067
Mof_H 	H 	0.8197	0.5871	0.8554	0.004
Mof_N 	N 	0.205	0.4549	0.9298	-1.78
Mof_C 	C 	0.1148	0.4817	0.9708	0.52
Mof_H 	H 	0.1405	0.5054	0.0115	-0.132
Mof_C 	C 	0.9858	0.4767	0.957	-0.2
Mof_H 	H 	0.9248	0.4963	0.9873	0.039
Mof_C 	C 	0.9497	0.4417	0.8967	-0.214
Mof_H 	H 	0.8629	0.4373	0.8849	0.113
Mof_C 	C 	0.1679	0.4212	0.8726	-1.623
Mof_C 	C 	0.2693	0.3939	0.8249	0.707
Mof_H 	H 	0.3075	0.4316	0.7989	-0.181
Mof_H 	H 	0.2319	0.3614	0.7922	-0.15
Mof_H 	H 	0.3345	0.3711	0.8526	-0.238
Mof_C 	C 	0.0403	0.414	0.8551	-0.4
Mof_H 	H 	0.0168	0.3898	0.8142	0.039
Mof_C 	C 	0.008	0.445	0.6679	0.687
Mof_H 	H 	0.9309	0.4445	0.6933	-0.195
Mof_C 	C 	0.2066	0.4948	0.6414	0.21
Mof_H 	H 	0.2679	0.5293	0.6491	-0.066
Mof_C 	C 	0.0969	0.4954	0.6801	-0.17
Mof_H 	H 	0.0826	0.5294	0.7144	0.072
Mof_N 	N 	0.2296	0.447	0.5932	1.591
Mof_C 	C 	0.032	0.3958	0.6186	0.186
Mof_H 	H 	0.9721	0.3606	0.6106	-0.03
Mof_C 	C 	0.1458	0.3976	0.5802	1.482
Mof_C 	C 	0.1763	0.3447	0.5276	-1.826
Mof_H 	H 	0.262	0.3522	0.5098	0.533
Mof_H 	H 	0.1713	0.2996	0.5492	0.521
Mof_H 	H 	0.1157	0.3474	0.489	0.524
Mof_Zn	Zn	0.38832	0.03106	0.46264	1.202
Mof_C 	C 	0.3979	0.02429	0.88132	0.412
Mof_O 	O 	0.6462	0.07169	0.5233	-0.462
Mof_O 	O 	0.3393	0.04163	0.93538	-0.476
Mof_O 	O 	0.4809	0.1208	0.47096	-0.496
Mof_O 	O 	0.5034	0.99523	0.87932	-0.483
Mof_C 	C 	0.7894	0.18913	0.5007	0.051
Mof_H 	H 	0.8345	0.1473	0.5019	0.014
Mof_C 	C 	0.3363	0.04187	0.8129	-0.148
Mof_C 	C 	0.658	0.18886	0.49953	-0.142
Mof_C 	C 	0.5897	0.12158	0.4979	0.407
Mof_C 	C 	0.2202	0.07549	0.68733	0.067
Mof_H 	H 	0.1803	0.0871	0.8554	0.003
Mof_N 	N 	0.795	0.9549	0.9298	-1.894
Mof_C 	C 	0.8852	0.9817	0.9708	0.538
Mof_H 	H 	0.8595	0.0054	0.0115	-0.129
Mof_C 	C 	0.0142	0.9767	0.957	-0.192
Mof_H 	H 	0.0752	0.9963	0.9873	0.031
Mof_C 	C 	0.0503	0.9417	0.8967	-0.231
Mof_H 	H 	0.1371	0.9373	0.8849	0.12
Mof_C 	C 	0.8321	0.9212	0.8726	-1.75
Mof_C 	C 	0.7307	0.8939	0.8249	0.795
Mof_H 	H 	0.6925	0.9316	0.7989	-0.206
Mof_H 	H 	0.7681	0.8614	0.7922	-0.172
Mof_H 	H 	0.6655	0.8711	0.8526	-0.267
Mof_C 	C 	0.9597	0.914	0.8551	-0.43
Mof_H 	H 	0.9832	0.8898	0.8142	0.039
Mof_C 	C 	0.992	0.945	0.6679	0.732
Mof_H 	H 	0.0691	0.9445	0.6933	-0.205
Mof_C 	C 	0.7934	0.9948	0.6414	0.223
Mof_H 	H 	0.7321	0.0293	0.6491	-0.069
Mof_C 	C 	0.9031	0.9954	0.6801	-0.185
Mof_H 	H 	0.9174	0.0294	0.7144	0.079
Mof_N 	N 	0.7704	0.947	0.5932	1.722
Mof_C 	C 	0.968	0.8958	0.6186	0.214
Mof_H 	H 	0.0279	0.8606	0.6106	-0.037
Mof_C 	C 	0.8542	0.8976	0.5802	1.58
Mof_C 	C 	0.8237	0.8447	0.5276	-1.923
Mof_H 	H 	0.738	0.8522	0.5098	0.56
Mof_H 	H 	0.8287	0.7996	0.5492	0.549
Mof_H 	H 	0.8843	0.8474	0.489	0.55
Mof_Zn	Zn	0.61168	0.96894	0.96264	1.202
Mof_C 	C 	0.6021	0.97571	0.38132	0.412
Mof_O 	O 	0.3538	0.92831	0.0233	-0.46
Mof_O 	O 	0.6607	0.95837	0.43538	-0.477
Mof_O 	O 	0.5191	0.8792	0.97096	-0.496
Mof_O 	O 	0.4966	0.00477	0.37932	-0.482
Mof_C 	C 	0.2106	0.81087	0.0007	0.052
Mof_H 	H 	0.1655	0.8527	0.0019	0.014
Mof_C 	C 	0.6637	0.95813	0.3129	-0.148
Mof_C 	C 	0.342	0.81114	0.99953	-0.143
Mof_C 	C 	0.4103	0.87842	0.9979	0.406
Mof_C 	C 	0.7798	0.92451	0.18733	0.067
Mof_H 	H 	0.8197	0.9129	0.3554	0.002
Mof_N 	N 	0.205	0.0451	0.4298	-1.896
Mof_C 	C 	0.1148	0.0183	0.4708	0.539
Mof_H 	H 	0.1405	0.9946	0.5115	-0.129
Mof_C 	C 	0.9858	0.0233	0.457	-0.191
Mof_H 	H 	0.9248	0.0037	0.4873	0.029
Mof_C 	C 	0.9497	0.0583	0.3967	-0.232
Mof_H 	H 	0.8629	0.0627	0.3849	0.12
Mof_C 	C 	0.1679	0.0788	0.3726	-1.753
Mof_C 	C 	0.2693	0.1061	0.3249	0.798
Mof_H 	H 	0.3075	0.0684	0.2989	-0.207
Mof_H 	H 	0.2319	0.1386	0.2922	-0.173
Mof_H 	H 	0.3345	0.1289	0.3526	-0.268
Mof_C 	C 	0.0403	0.086	0.3551	-0.43
Mof_H 	H 	0.0168	0.1102	0.3142	0.039
Mof_C 	C 	0.008	0.055	0.1679	0.73
Mof_H 	H 	0.9309	0.0555	0.1933	-0.205
Mof_C 	C 	0.2066	0.0052	0.1414	0.222
Mof_H 	H 	0.2679	0.9707	0.1491	-0.068
Mof_C 	C 	0.0969	0.0046	0.1801	-0.185
Mof_H 	H 	0.0826	0.9706	0.2144	0.08
Mof_N 	N 	0.2296	0.053	0.0932	1.712
Mof_C 	C 	0.032	0.1042	0.1186	0.212
Mof_H 	H 	0.9721	0.1394	0.1106	-0.036
Mof_C 	C 	0.1458	0.1024	0.0802	1.574
Mof_C 	C 	0.1763	0.1553	0.0276	-1.92
Mof_H 	H 	0.262	0.1478	0.0098	0.559
Mof_H 	H 	0.1713	0.2004	0.0492	0.548
Mof_H 	H 	0.1157	0.1526	0.989	0.55
Mof_Zn	Zn	0.61168	0.53106	0.03736	1.204
Mof_C 	C 	0.6021	0.52429	0.61868	0.411
Mof_O 	O 	0.3538	0.57169	0.9767	-0.463
Mof_O 	O 	0.6607	0.54163	0.56462	-0.475
Mof_O 	O 	0.5191	0.6208	0.02904	-0.495
Mof_O 	O 	0.4966	0.49523	0.62068	-0.482
Mof_C 	C 	0.2106	0.68913	0.9993	0.05
Mof_H 	H 	0.1655	0.6473	0.9981	0.014
Mof_C 	C 	0.6637	0.54187	0.6871	-0.147
Mof_C 	C 	0.342	0.68886	0.00047	-0.142
Mof_C 	C 	0.4103	0.62158	0.0021	0.407
Mof_C 	C 	0.7798	0.57549	0.81267	0.067
Mof_H 	H 	0.8197	0.5871	0.6446	0.004
Mof_N 	N 	0.205	0.4549	0.5702	-1.779
Mof_C 	C 	0.1148	0.4817	0.5292	0.52
Mof_H 	H 	0.1405	0.5054	0.4885	-0.132
Mof_C 	C 	0.9858	0.4767	0.543	-0.2
Mof_H 	H 	0.9248	0.4963	0.5127	0.039
Mof_C 	C 	0.9497	0.4417	0.6033	-0.213
Mof_H 	H 	0.8629	0.4373	0.6151	0.113
Mof_C 	C 	0.1679	0.4212	0.6274	-1.622
Mof_C 	C 	0.2693	0.3939	0.6751	0.707
Mof_H 	H 	0.3075	0.4316	0.7011	-0.18
Mof_H 	H 	0.2319	0.3614	0.7078	-0.15
Mof_H 	H 	0.3345	0.3711	0.6474	-0.238
Mof_C 	C 	0.0403	0.414	0.6449	-0.399
Mof_H 	H 	0.0168	0.3898	0.6858	0.039
Mof_C 	C 	0.008	0.445	0.8321	0.687
Mof_H 	H 	0.9309	0.4445	0.8067	-0.195
Mof_C 	C 	0.2066	0.4948	0.8586	0.21
Mof_H 	H 	0.2679	0.5293	0.8509	-0.066
Mof_C 	C 	0.0969	0.4954	0.8199	-0.17
Mof_H 	H 	0.0826	0.5294	0.7856	0.072
Mof_N 	N 	0.2296	0.447	0.9068	1.593
Mof_C 	C 	0.032	0.3958	0.8814	0.186
Mof_H 	H 	0.9721	0.3606	0.8894	-0.03
Mof_C 	C 	0.1458	0.3976	0.9198	1.482
Mof_C 	C 	0.1763	0.3447	0.9724	-1.826
Mof_H 	H 	0.262	0.3522	0.9902	0.533
Mof_H 	H 	0.1713	0.2996	0.9508	0.521
Mof_H 	H 	0.1157	0.3474	0.011	0.524
Mof_Zn	Zn	0.38832	0.46894	0.53736	1.204
Mof_C 	C 	0.3979	0.47571	0.11868	0.411
Mof_O 	O 	0.6462	0.42831	0.4767	-0.463
Mof_O 	O 	0.3393	0.45837	0.06462	-0.475
Mof_O 	O 	0.4809	0.3792	0.52904	-0.495
Mof_O 	O 	0.5034	0.50477	0.12068	-0.482
Mof_C 	C 	0.7894	0.31087	0.4993	0.051
Mof_H 	H 	0.8345	0.3527	0.4981	0.014
Mof_C 	C 	0.3363	0.45813	0.1871	-0.147
Mof_C 	C 	0.658	0.31114	0.50047	-0.142
Mof_C 	C 	0.5897	0.37842	0.5021	0.407
Mof_C 	C 	0.2202	0.42451	0.31267	0.067
Mof_H 	H 	0.1803	0.4129	0.1446	0.004
Mof_N 	N 	0.795	0.5451	0.0702	-1.783
Mof_C 	C 	0.8852	0.5183	0.0292	0.522
Mof_H 	H 	0.8595	0.4946	0.9885	-0.132
Mof_C 	C 	0.0142	0.5233	0.043	-0.201
Mof_H 	H 	0.0752	0.5037	0.0127	0.04
Mof_C 	C 	0.0503	0.5583	0.1033	-0.213
Mof_H 	H 	0.1371	0.5627	0.1151	0.113
Mof_C 	C 	0.8321	0.5788	0.1274	-1.626
Mof_C 	C 	0.7307	0.6061	0.1751	0.709
Mof_H 	H 	0.6925	0.5684	0.2011	-0.181
Mof_H 	H 	0.7681	0.6386	0.2078	-0.15
Mof_H 	H 	0.6655	0.6289	0.1474	-0.239
Mof_C 	C 	0.9597	0.586	0.1449	-0.401
Mof_H 	H 	0.9832	0.6102	0.1858	0.039
Mof_C 	C 	0.992	0.555	0.3321	0.687
Mof_H 	H 	0.0691	0.5555	0.3067	-0.195
Mof_C 	C 	0.7934	0.5052	0.3586	0.21
Mof_H 	H 	0.7321	0.4707	0.3509	-0.066
Mof_C 	C 	0.9031	0.5046	0.3199	-0.17
Mof_H 	H 	0.9174	0.4706	0.2856	0.071
Mof_N 	N 	0.7704	0.553	0.4068	1.594
Mof_C 	C 	0.968	0.6042	0.3814	0.187
Mof_H 	H 	0.0279	0.6394	0.3894	-0.03
Mof_C 	C 	0.8542	0.6024	0.4198	1.483
Mof_C 	C 	0.8237	0.6553	0.4724	-1.828
Mof_H 	H 	0.738	0.6478	0.4902	0.533
Mof_H 	H 	0.8287	0.7004	0.4508	0.522
Mof_H 	H 	0.8843	0.6526	0.511	0.524
Mof_C 	C 	0.6068	0.9753	0.25	0.082
Mof_H 	H 	0.5284	0.9989	0.25	0.037
Mof_C 	C 	0.8365	0.9082	0.25	-0.136
Mof_H 	H 	0.9158	0.8854	0.25	0.059
Mof_C 	C 	0.3932	0.0247	0.75	0.082
Mof_H 	H 	0.4716	0.0011	0.75	0.037
Mof_C 	C 	0.1635	0.0918	0.75	-0.136
Mof_H 	H 	0.0842	0.1146	0.75	0.059
Mof_C 	C 	0.3932	0.4753	0.25	0.082
Mof_H 	H 	0.4716	0.4989	0.25	0.035
Mof_C 	C 	0.1635	0.4082	0.25	-0.135
Mof_H 	H 	0.0842	0.3854	0.25	0.061
Mof_C 	C 	0.6068	0.5247	0.75	0.082
Mof_H 	H 	0.5284	0.5011	0.75	0.035
Mof_C 	C 	0.8365	0.5918	0.75	-0.135
Mof_H 	H 	0.9158	0.6146	0.75	0.061
Mof_C 	C 	0.1453	0.75	0.5	-0.118
Mof_H 	H 	0.0555	0.75	0.5	0.025
Mof_C 	C 	0.4074	0.75	0.5	0.085
Mof_H 	H 	0.4973	0.75	0.5	0.007
Mof_C 	C 	0.8547	0.25	-0	-0.119
Mof_H 	H 	0.9445	0.25	-0	0.025
Mof_C 	C 	0.5926	0.25	-0	0.084
Mof_H 	H 	0.5027	0.25	-0	0.008
Mof_C 	C 	0.8547	0.25	0.5	-0.118
Mof_H 	H 	0.9445	0.25	0.5	0.025
Mof_C 	C 	0.5926	0.25	0.5	0.085
Mof_H 	H 	0.5027	0.25	0.5	0.007
Mof_C 	C 	0.1453	0.75	-0	-0.118
Mof_H 	H 	0.0555	0.75	-0	0.025
Mof_C 	C 	0.4074	0.75	-0	0.086
Mof_H 	H 	0.4973	0.75	-0	0.007
_end
