data_functionalizedCrystal
_audit_creation_method	'EQeq! by Chris Wilmer'
_symmetry_space_group_name_H-M	'P1'
_symmetry_Int_Tables_number	1
_symmetry_cell_setting	triclinic
loop_
_symmetry_equiv_pos_as_xyz
  x,y,z
_cell_length_a	19.7427
_cell_length_b	18.433
_cell_length_c	27.8981
_cell_angle_alpha	90
_cell_angle_beta	107.333
_cell_angle_gamma	90
loop_
_atom_site_label
_atom_site_type_symbol
_atom_site_fract_x
_atom_site_fract_y
_atom_site_fract_z
_atom_site_charge
Mof_Tb	Tb	0.49663	0.01839	0.4133	2.293
Mof_Tb	Tb	0.45337	0.42854	0.44171	1.983
Mof_O 	O 	0.4118	0.928	0.36643	-0.4
Mof_O 	O 	0.4908	0.8896	0.4352	-0.446
Mof_O 	O 	0.5817	0.11	0.3958	0.281
Mof_O 	O 	0.089	0.699	0.1111	-0.363
Mof_O 	O 	0.0869	0.5897	0.1401	-0.541
Mof_O 	O 	0.4267	0.5499	0.425	-0.512
Mof_O 	O 	0.4945	0.6272	0.4807	-0.564
Mof_O 	O 	0.4377	0.5162	0.5314	-0.584
Mof_O 	O 	0.4672	0.5487	0.8577	-0.435
Mof_O 	O 	0.3601	0.5683	0.8609	-0.441
Mof_O 	O 	0.0826	0.4886	0.5409	-0.628
Mof_O 	O 	0.1071	0.5018	0.4694	-0.608
Mof_O 	O 	0.3571	0.4527	0.4739	-0.5
Mof_C 	C 	0.4388	0.8776	0.3967	0.334
Mof_C 	C 	0.4091	0.8022	0.3861	-0.107
Mof_C 	C 	0.4385	0.745	0.4187	0.072
Mof_H 	H 	0.4753	0.7547	0.4488	0.011
Mof_C 	C 	0.4149	0.6747	0.4075	-0.176
Mof_C 	C 	0.4487	0.613	0.4404	0.501
Mof_C 	C 	0.3584	0.6614	0.3628	0.039
Mof_H 	H 	0.3421	0.6132	0.3545	0.026
Mof_C 	C 	0.327	0.7181	0.3312	-0.066
Mof_C 	C 	0.3532	0.7882	0.3435	0.004
Mof_H 	H 	0.3322	0.8274	0.322	0.011
Mof_C 	C 	0.2691	0.7038	0.2835	0.065
Mof_C 	C 	0.2578	0.6346	0.2645	-0.065
Mof_H 	H 	0.2857	0.596	0.2827	0.051
Mof_C 	C 	0.2067	0.62	0.2194	0.015
Mof_H 	H 	0.2014	0.5718	0.2068	0.035
Mof_C 	C 	0.1679	0.7425	0.2112	0.044
Mof_H 	H 	0.1358	0.7788	0.1939	0.008
Mof_C 	C 	0.2207	0.7585	0.2562	-0.089
Mof_H 	H 	0.2246	0.8066	0.269	0.059
Mof_C 	C 	0.1638	0.673	0.1927	-0.156
Mof_C 	C 	0.1079	0.6542	0.145	0.451
Mof_C 	C 	0.3765	0.4903	0.5139	0.477
Mof_C 	C 	0.3242	0.5006	0.5423	-0.202
Mof_C 	C 	0.2521	0.4931	0.5172	0.132
Mof_H 	H 	0.237	0.483	0.4822	0.003
Mof_C 	C 	0.2025	0.5003	0.5431	-0.23
Mof_C 	C 	0.1256	0.4972	0.5161	0.563
Mof_C 	C 	0.2264	0.5117	0.5957	0.074
Mof_H 	H 	0.1929	0.5151	0.614	0.01
Mof_C 	C 	0.2985	0.518	0.6209	-0.085
Mof_C 	C 	0.3467	0.5141	0.5936	0.061
Mof_H 	H 	0.3958	0.5208	0.6102	0.007
Mof_C 	C 	0.3248	0.5285	0.6765	0.062
Mof_C 	C 	0.374	0.5442	0.7807	-0.085
Mof_C 	C 	0.4012	0.5549	0.8367	0.332
Mof_C 	C 	0.2741	0.5339	0.7034	-0.024
Mof_H 	H 	0.2247	0.5336	0.6862	0.035
Mof_C 	C 	0.2992	0.5399	0.7567	0.033
Mof_H 	H 	0.2668	0.5411	0.776	0.036
Mof_C 	C 	0.4166	0.5049	0.7559	0.057
Mof_H 	H 	0.4601	0.4832	0.7747	0.012
Mof_C 	C 	0.3927	0.4988	0.7024	-0.137
Mof_H 	H 	0.421	0.4758	0.6847	0.075
Mof_O 	O 	0.5499	0.9642	0.3567	-0.514
Mof_N 	N 	0.5735	0.9629	0.2825	-0.56
Mof_C 	C 	0.5613	0.9318	0.322	0.52
Mof_C 	C 	0.5989	0.9215	0.2455	3.026
Mof_H 	H 	0.601	0.8697	0.2539	-2.892
Mof_H 	H 	0.6464	0.9385	0.2465	-0.875
Mof_H 	H 	0.5662	0.9288	0.2118	-0.896
Mof_C 	C 	0.5503	0.0404	0.2756	0.08
Mof_H 	H 	0.5317	0.0549	0.303	0.029
Mof_H 	H 	0.5909	0.0711	0.2758	0
Mof_C 	C 	0.5841	0.8471	0.3214	0.133
Mof_H 	H 	0.5732	0.8213	0.3489	0.939
Mof_H 	H 	0.6351	0.8439	0.3257	-0.226
Mof_H 	H 	0.5577	0.8251	0.2893	-0.496
Mof_O 	O 	0.5566	0.1096	0.3787	-0.633
Mof_C 	C 	0.2302	0.6404	0.2797	-0.06
Mof_H 	H 	0.2392	0.6072	0.3069	0.049
Mof_C 	C 	0.1771	0.6267	0.2345	0.023
Mof_H 	H 	0.1488	0.5843	0.2321	0.027
Mof_C 	C 	0.205	0.7353	0.1997	0.001
Mof_H 	H 	0.1964	0.7691	0.1728	0.025
Mof_C 	C 	0.2581	0.751	0.2439	-0.041
Mof_H 	H 	0.2863	0.7935	0.2465	0.042
Mof_C 	C 	0.2839	0.5563	0.7063	-0.065
Mof_H 	H 	0.2363	0.5707	0.6902	0.05
Mof_C 	C 	0.3085	0.563	0.7541	-0.034
Mof_H 	H 	0.278	0.5824	0.7716	0.038
Mof_C 	C 	0.4141	0.5649	0.7528	-0.059
Mof_H 	H 	0.4593	0.5854	0.7687	0.048
Mof_C 	C 	0.3922	0.5575	0.7008	0.014
Mof_H 	H 	0.4225	0.572	0.6818	0.026
Mof_O 	O 	0.5455	0.8239	0.3326	-1.472
Mof_C 	C 	0.5617	0.7921	0.2991	0.905
Mof_N 	N 	0.5393	0.728	0.2776	-0.318
Mof_C 	C 	0.481	0.6893	0.2906	0.064
Mof_H 	H 	0.4698	0.7169	0.3164	0.022
Mof_H 	H 	0.4381	0.6795	0.2643	-0.041
Mof_H 	H 	0.5022	0.645	0.3045	0.017
Mof_C 	C 	0.567	0.699	0.2372	0.079
Mof_H 	H 	0.5987	0.7288	0.2261	-0.072
Mof_H 	H 	0.5902	0.6545	0.2498	0.019
Mof_H 	H 	0.526	0.689	0.2095	-0.035
Mof_C 	C 	0.6186	0.8353	0.2778	0.915
Mof_H 	H 	0.6302	0.8794	0.2961	-0.001
Mof_H 	H 	0.6606	0.8078	0.2818	-0.368
Mof_H 	H 	0.5973	0.8456	0.2428	1.77
Mof_H 	H 	0.5132	0.0459	0.2435	-0.014
Mof_Tb	Tb	0.99663	0.51839	0.4133	2.296
Mof_Tb	Tb	0.95337	0.92854	0.44171	1.984
Mof_O 	O 	0.9118	0.428	0.36643	-0.401
Mof_O 	O 	0.9908	0.3896	0.4352	-0.447
Mof_O 	O 	0.0817	0.61	0.3958	0.282
Mof_O 	O 	0.589	0.199	0.1111	-0.363
Mof_O 	O 	0.5869	0.0897	0.1401	-0.541
Mof_O 	O 	0.9267	0.0499	0.425	-0.512
Mof_O 	O 	0.9945	0.1272	0.4807	-0.564
Mof_O 	O 	0.9377	0.0162	0.5314	-0.584
Mof_O 	O 	0.9672	0.0487	0.8577	-0.436
Mof_O 	O 	0.8601	0.0683	0.8609	-0.442
Mof_O 	O 	0.5826	0.9886	0.5409	-0.627
Mof_O 	O 	0.6071	0.0018	0.4694	-0.608
Mof_O 	O 	0.8571	0.9527	0.4739	-0.5
Mof_C 	C 	0.9388	0.3776	0.3967	0.334
Mof_C 	C 	0.9091	0.3022	0.3861	-0.107
Mof_C 	C 	0.9385	0.245	0.4187	0.072
Mof_H 	H 	0.9753	0.2547	0.4488	0.011
Mof_C 	C 	0.9149	0.1747	0.4075	-0.176
Mof_C 	C 	0.9487	0.113	0.4404	0.502
Mof_C 	C 	0.8584	0.1614	0.3628	0.039
Mof_H 	H 	0.8421	0.1132	0.3545	0.026
Mof_C 	C 	0.827	0.2181	0.3312	-0.066
Mof_C 	C 	0.8532	0.2882	0.3435	0.004
Mof_H 	H 	0.8322	0.3274	0.322	0.011
Mof_C 	C 	0.7691	0.2038	0.2835	0.065
Mof_C 	C 	0.7578	0.1346	0.2645	-0.066
Mof_H 	H 	0.7857	0.096	0.2827	0.051
Mof_C 	C 	0.7067	0.12	0.2194	0.014
Mof_H 	H 	0.7014	0.0718	0.2068	0.034
Mof_C 	C 	0.6679	0.2425	0.2112	0.044
Mof_H 	H 	0.6358	0.2788	0.1939	0.008
Mof_C 	C 	0.7207	0.2585	0.2562	-0.089
Mof_H 	H 	0.7246	0.3066	0.269	0.059
Mof_C 	C 	0.6638	0.173	0.1927	-0.156
Mof_C 	C 	0.6079	0.1542	0.145	0.451
Mof_C 	C 	0.8765	0.9903	0.5139	0.477
Mof_C 	C 	0.8242	0.0006	0.5423	-0.202
Mof_C 	C 	0.7521	0.9931	0.5172	0.132
Mof_H 	H 	0.737	0.983	0.4822	0.003
Mof_C 	C 	0.7025	0.0003	0.5431	-0.23
Mof_C 	C 	0.6256	0.9972	0.5161	0.562
Mof_C 	C 	0.7264	0.0117	0.5957	0.075
Mof_H 	H 	0.6929	0.0151	0.614	0.01
Mof_C 	C 	0.7985	0.018	0.6209	-0.086
Mof_C 	C 	0.8467	0.0141	0.5936	0.062
Mof_H 	H 	0.8958	0.0208	0.6102	0.007
Mof_C 	C 	0.8248	0.0285	0.6765	0.065
Mof_C 	C 	0.874	0.0442	0.7807	-0.091
Mof_C 	C 	0.9012	0.0549	0.8367	0.335
Mof_C 	C 	0.7741	0.0339	0.7034	-0.024
Mof_H 	H 	0.7247	0.0336	0.6862	0.035
Mof_C 	C 	0.7992	0.0399	0.7567	0.033
Mof_H 	H 	0.7668	0.0411	0.776	0.037
Mof_C 	C 	0.9166	0.0049	0.7559	0.028
Mof_H 	H 	0.9601	0.9832	0.7747	0.021
Mof_C 	C 	0.8927	0.9988	0.7024	-0.106
Mof_H 	H 	0.921	0.9758	0.6847	0.064
Mof_O 	O 	0.0499	0.4642	0.3567	-0.515
Mof_N 	N 	0.0735	0.4629	0.2825	-0.561
Mof_C 	C 	0.0613	0.4318	0.322	0.52
Mof_C 	C 	0.0989	0.4215	0.2455	3.025
Mof_H 	H 	0.101	0.3697	0.2539	-2.891
Mof_H 	H 	0.1464	0.4385	0.2465	-0.875
Mof_H 	H 	0.0662	0.4288	0.2118	-0.896
Mof_C 	C 	0.0503	0.5404	0.2756	0.084
Mof_H 	H 	0.0317	0.5549	0.303	0.028
Mof_H 	H 	0.0909	0.5711	0.2758	-0.001
Mof_C 	C 	0.0841	0.3471	0.3214	0.134
Mof_H 	H 	0.0732	0.3213	0.3489	0.939
Mof_H 	H 	0.1351	0.3439	0.3257	-0.227
Mof_H 	H 	0.0577	0.3251	0.2893	-0.496
Mof_O 	O 	0.0566	0.6096	0.3787	-0.633
Mof_C 	C 	0.7302	0.1404	0.2797	-0.059
Mof_H 	H 	0.7392	0.1072	0.3069	0.049
Mof_C 	C 	0.6771	0.1267	0.2345	0.024
Mof_H 	H 	0.6488	0.0843	0.2321	0.027
Mof_C 	C 	0.705	0.2353	0.1997	0.001
Mof_H 	H 	0.6964	0.2691	0.1728	0.025
Mof_C 	C 	0.7581	0.251	0.2439	-0.041
Mof_H 	H 	0.7863	0.2935	0.2465	0.042
Mof_C 	C 	0.7839	0.0563	0.7063	-0.066
Mof_H 	H 	0.7363	0.0707	0.6902	0.051
Mof_C 	C 	0.8085	0.063	0.7541	-0.031
Mof_H 	H 	0.778	0.0824	0.7716	0.037
Mof_C 	C 	0.9141	0.0649	0.7528	-0.022
Mof_H 	H 	0.9593	0.0854	0.7687	0.036
Mof_C 	C 	0.8922	0.0575	0.7008	-0.023
Mof_H 	H 	0.9225	0.072	0.6818	0.039
Mof_O 	O 	0.0455	0.3239	0.3326	-1.473
Mof_C 	C 	0.0617	0.2921	0.2991	0.906
Mof_N 	N 	0.0393	0.228	0.2776	-0.318
Mof_C 	C 	0.981	0.1893	0.2906	0.064
Mof_H 	H 	0.9698	0.2169	0.3164	0.022
Mof_H 	H 	0.9381	0.1795	0.2643	-0.042
Mof_H 	H 	0.0022	0.145	0.3045	0.017
Mof_C 	C 	0.067	0.199	0.2372	0.079
Mof_H 	H 	0.0987	0.2288	0.2261	-0.072
Mof_H 	H 	0.0902	0.1545	0.2498	0.018
Mof_H 	H 	0.026	0.189	0.2095	-0.036
Mof_C 	C 	0.1186	0.3353	0.2778	0.914
Mof_H 	H 	0.1302	0.3794	0.2961	-0.001
Mof_H 	H 	0.1606	0.3078	0.2818	-0.368
Mof_H 	H 	0.0973	0.3456	0.2428	1.769
Mof_H 	H 	0.0132	0.5459	0.2435	-0.016
Mof_Tb	Tb	0.50337	0.01839	0.0867	2.287
Mof_Tb	Tb	0.54663	0.42854	0.05829	1.981
Mof_O 	O 	0.5882	0.928	0.13357	-0.4
Mof_O 	O 	0.5092	0.8896	0.0648	-0.445
Mof_O 	O 	0.4183	0.11	0.1042	0.277
Mof_O 	O 	0.911	0.699	0.3889	-0.363
Mof_O 	O 	0.9131	0.5897	0.3599	-0.541
Mof_O 	O 	0.5733	0.5499	0.075	-0.512
Mof_O 	O 	0.5055	0.6272	0.0193	-0.564
Mof_O 	O 	0.5623	0.5162	0.9686	-0.583
Mof_O 	O 	0.5328	0.5487	0.6423	-0.435
Mof_O 	O 	0.6399	0.5683	0.6391	-0.441
Mof_O 	O 	0.9174	0.4886	0.9591	-0.626
Mof_O 	O 	0.8929	0.5018	0.0306	-0.604
Mof_O 	O 	0.6429	0.4527	0.0261	-0.499
Mof_C 	C 	0.5612	0.8776	0.1033	0.334
Mof_C 	C 	0.5909	0.8022	0.1139	-0.107
Mof_C 	C 	0.5615	0.745	0.0813	0.072
Mof_H 	H 	0.5247	0.7547	0.0512	0.011
Mof_C 	C 	0.5851	0.6747	0.0925	-0.176
Mof_C 	C 	0.5513	0.613	0.0596	0.501
Mof_C 	C 	0.6416	0.6614	0.1372	0.039
Mof_H 	H 	0.6579	0.6132	0.1455	0.026
Mof_C 	C 	0.673	0.7181	0.1688	-0.066
Mof_C 	C 	0.6468	0.7882	0.1565	0.004
Mof_H 	H 	0.6678	0.8274	0.178	0.011
Mof_C 	C 	0.7309	0.7038	0.2165	0.065
Mof_C 	C 	0.7422	0.6346	0.2355	-0.065
Mof_H 	H 	0.7143	0.596	0.2173	0.051
Mof_C 	C 	0.7933	0.62	0.2806	0.014
Mof_H 	H 	0.7986	0.5718	0.2932	0.035
Mof_C 	C 	0.8321	0.7425	0.2888	0.044
Mof_H 	H 	0.8642	0.7788	0.3061	0.008
Mof_C 	C 	0.7793	0.7585	0.2438	-0.089
Mof_H 	H 	0.7754	0.8066	0.231	0.059
Mof_C 	C 	0.8362	0.673	0.3073	-0.156
Mof_C 	C 	0.8921	0.6542	0.355	0.452
Mof_C 	C 	0.6235	0.4903	0.9861	0.475
Mof_C 	C 	0.6758	0.5006	0.9577	-0.199
Mof_C 	C 	0.7479	0.4931	0.9828	0.127
Mof_H 	H 	0.763	0.483	0.0178	0.005
Mof_C 	C 	0.7975	0.5003	0.9569	-0.227
Mof_C 	C 	0.8744	0.4972	0.9839	0.558
Mof_C 	C 	0.7736	0.5117	0.9043	0.072
Mof_H 	H 	0.8071	0.5151	0.886	0.011
Mof_C 	C 	0.7015	0.518	0.8791	-0.084
Mof_C 	C 	0.6533	0.5141	0.9064	0.06
Mof_H 	H 	0.6042	0.5208	0.8898	0.007
Mof_C 	C 	0.6752	0.5285	0.8235	0.061
Mof_C 	C 	0.626	0.5442	0.7193	-0.085
Mof_C 	C 	0.5988	0.5549	0.6633	0.332
Mof_C 	C 	0.7259	0.5339	0.7966	-0.023
Mof_H 	H 	0.7753	0.5336	0.8138	0.035
Mof_C 	C 	0.7008	0.5399	0.7433	0.033
Mof_H 	H 	0.7332	0.5411	0.724	0.036
Mof_C 	C 	0.5834	0.5049	0.7441	0.056
Mof_H 	H 	0.5399	0.4832	0.7253	0.013
Mof_C 	C 	0.6073	0.4988	0.7976	-0.137
Mof_H 	H 	0.579	0.4758	0.8153	0.075
Mof_O 	O 	0.4501	0.9642	0.1433	-0.513
Mof_N 	N 	0.4265	0.9629	0.2175	-0.56
Mof_C 	C 	0.4387	0.9318	0.178	0.519
Mof_C 	C 	0.4011	0.9215	0.2545	3.027
Mof_H 	H 	0.399	0.8697	0.2461	-2.892
Mof_H 	H 	0.3536	0.9385	0.2535	-0.876
Mof_H 	H 	0.4338	0.9288	0.2882	-0.896
Mof_C 	C 	0.4497	0.0404	0.2244	0.08
Mof_H 	H 	0.4683	0.0549	0.197	0.029
Mof_H 	H 	0.4091	0.0711	0.2242	0
Mof_C 	C 	0.4159	0.8471	0.1786	0.134
Mof_H 	H 	0.4268	0.8213	0.1511	0.939
Mof_H 	H 	0.3649	0.8439	0.1743	-0.227
Mof_H 	H 	0.4423	0.8251	0.2107	-0.496
Mof_O 	O 	0.4434	0.1096	0.1213	-0.629
Mof_C 	C 	0.7698	0.6404	0.2203	-0.059
Mof_H 	H 	0.7608	0.6072	0.1931	0.049
Mof_C 	C 	0.8229	0.6267	0.2655	0.023
Mof_H 	H 	0.8512	0.5843	0.2679	0.027
Mof_C 	C 	0.795	0.7353	0.3003	0.001
Mof_H 	H 	0.8036	0.7691	0.3272	0.025
Mof_C 	C 	0.7419	0.751	0.2561	-0.041
Mof_H 	H 	0.7137	0.7935	0.2535	0.043
Mof_C 	C 	0.7161	0.5563	0.7937	-0.065
Mof_H 	H 	0.7637	0.5707	0.8098	0.05
Mof_C 	C 	0.6915	0.563	0.7459	-0.034
Mof_H 	H 	0.722	0.5824	0.7284	0.038
Mof_C 	C 	0.5859	0.5649	0.7472	-0.059
Mof_H 	H 	0.5407	0.5854	0.7313	0.048
Mof_C 	C 	0.6078	0.5575	0.7992	0.014
Mof_H 	H 	0.5775	0.572	0.8182	0.026
Mof_O 	O 	0.4545	0.8239	0.1674	-1.472
Mof_C 	C 	0.4383	0.7921	0.2009	0.906
Mof_N 	N 	0.4607	0.728	0.2224	-0.318
Mof_C 	C 	0.519	0.6893	0.2094	0.064
Mof_H 	H 	0.5302	0.7169	0.1836	0.022
Mof_H 	H 	0.5619	0.6795	0.2357	-0.041
Mof_H 	H 	0.4978	0.645	0.1955	0.017
Mof_C 	C 	0.433	0.699	0.2628	0.079
Mof_H 	H 	0.4013	0.7288	0.2739	-0.072
Mof_H 	H 	0.4098	0.6545	0.2502	0.019
Mof_H 	H 	0.474	0.689	0.2905	-0.035
Mof_C 	C 	0.3814	0.8353	0.2222	0.915
Mof_H 	H 	0.3698	0.8794	0.2039	-0.001
Mof_H 	H 	0.3394	0.8078	0.2182	-0.368
Mof_H 	H 	0.4027	0.8456	0.2572	1.77
Mof_H 	H 	0.4868	0.0459	0.2565	-0.014
Mof_Tb	Tb	0.00337	0.51839	0.0867	2.289
Mof_Tb	Tb	0.04663	0.92854	0.05829	1.981
Mof_O 	O 	0.0882	0.428	0.13357	-0.401
Mof_O 	O 	0.0092	0.3896	0.0648	-0.447
Mof_O 	O 	0.9183	0.61	0.1042	0.279
Mof_O 	O 	0.411	0.199	0.3889	-0.363
Mof_O 	O 	0.4131	0.0897	0.3599	-0.541
Mof_O 	O 	0.0733	0.0499	0.075	-0.514
Mof_O 	O 	0.0055	0.1272	0.0193	-0.566
Mof_O 	O 	0.0623	0.0162	0.9686	-0.576
Mof_O 	O 	0.0328	0.0487	0.6423	-0.435
Mof_O 	O 	0.1399	0.0683	0.6391	-0.442
Mof_O 	O 	0.4174	0.9886	0.9591	-0.626
Mof_O 	O 	0.3929	0.0018	0.0306	-0.607
Mof_O 	O 	0.1429	0.9527	0.0261	-0.496
Mof_C 	C 	0.0612	0.3776	0.1033	0.334
Mof_C 	C 	0.0909	0.3022	0.1139	-0.108
Mof_C 	C 	0.0615	0.245	0.0813	0.072
Mof_H 	H 	0.0247	0.2547	0.0512	0.01
Mof_C 	C 	0.0851	0.1747	0.0925	-0.177
Mof_C 	C 	0.0513	0.113	0.0596	0.501
Mof_C 	C 	0.1416	0.1614	0.1372	0.039
Mof_H 	H 	0.1579	0.1132	0.1455	0.026
Mof_C 	C 	0.173	0.2181	0.1688	-0.066
Mof_C 	C 	0.1468	0.2882	0.1565	0.005
Mof_H 	H 	0.1678	0.3274	0.178	0.011
Mof_C 	C 	0.2309	0.2038	0.2165	0.065
Mof_C 	C 	0.2422	0.1346	0.2355	-0.065
Mof_H 	H 	0.2143	0.096	0.2173	0.051
Mof_C 	C 	0.2933	0.12	0.2806	0.014
Mof_H 	H 	0.2986	0.0718	0.2932	0.035
Mof_C 	C 	0.3321	0.2425	0.2888	0.044
Mof_H 	H 	0.3642	0.2788	0.3061	0.008
Mof_C 	C 	0.2793	0.2585	0.2438	-0.09
Mof_H 	H 	0.2754	0.3066	0.231	0.059
Mof_C 	C 	0.3362	0.173	0.3073	-0.156
Mof_C 	C 	0.3921	0.1542	0.355	0.452
Mof_C 	C 	0.1235	0.9903	0.9861	0.465
Mof_C 	C 	0.1758	0.0006	0.9577	-0.185
Mof_C 	C 	0.2479	0.9931	0.9828	0.111
Mof_H 	H 	0.263	0.983	0.0178	0.011
Mof_C 	C 	0.2975	0.0003	0.9569	-0.215
Mof_C 	C 	0.3744	0.9972	0.9839	0.555
Mof_C 	C 	0.2736	0.0117	0.9043	0.066
Mof_H 	H 	0.3071	0.0151	0.886	0.013
Mof_C 	C 	0.2015	0.018	0.8791	-0.079
Mof_C 	C 	0.1533	0.0141	0.9064	0.053
Mof_H 	H 	0.1042	0.0208	0.8898	0.011
Mof_C 	C 	0.1752	0.0285	0.8235	0.064
Mof_C 	C 	0.126	0.0442	0.7193	-0.093
Mof_C 	C 	0.0988	0.0549	0.6633	0.335
Mof_C 	C 	0.2259	0.0339	0.7966	-0.023
Mof_H 	H 	0.2753	0.0336	0.8138	0.035
Mof_C 	C 	0.2008	0.0399	0.7433	0.033
Mof_H 	H 	0.2332	0.0411	0.724	0.037
Mof_C 	C 	0.0834	0.0049	0.7441	0.012
Mof_H 	H 	0.0399	0.9832	0.7253	0.027
Mof_C 	C 	0.1073	0.9988	0.7976	-0.089
Mof_H 	H 	0.079	0.9758	0.8153	0.058
Mof_O 	O 	0.9501	0.4642	0.1433	-0.513
Mof_N 	N 	0.9265	0.4629	0.2175	-0.56
Mof_C 	C 	0.9387	0.4318	0.178	0.52
Mof_C 	C 	0.9011	0.4215	0.2545	3.022
Mof_H 	H 	0.899	0.3697	0.2461	-2.888
Mof_H 	H 	0.8536	0.4385	0.2535	-0.874
Mof_H 	H 	0.9338	0.4288	0.2882	-0.895
Mof_C 	C 	0.9497	0.5404	0.2244	0.081
Mof_H 	H 	0.9683	0.5549	0.197	0.03
Mof_H 	H 	0.9091	0.5711	0.2242	0
Mof_C 	C 	0.9159	0.3471	0.1786	0.131
Mof_H 	H 	0.9268	0.3213	0.1511	0.938
Mof_H 	H 	0.8649	0.3439	0.1743	-0.225
Mof_H 	H 	0.9423	0.3251	0.2107	-0.493
Mof_O 	O 	0.9434	0.6096	0.1213	-0.629
Mof_C 	C 	0.2698	0.1404	0.2203	-0.059
Mof_H 	H 	0.2608	0.1072	0.1931	0.049
Mof_C 	C 	0.3229	0.1267	0.2655	0.023
Mof_H 	H 	0.3512	0.0843	0.2679	0.027
Mof_C 	C 	0.295	0.2353	0.3003	0.001
Mof_H 	H 	0.3036	0.2691	0.3272	0.025
Mof_C 	C 	0.2419	0.251	0.2561	-0.041
Mof_H 	H 	0.2137	0.2935	0.2535	0.042
Mof_C 	C 	0.2161	0.0563	0.7937	-0.066
Mof_H 	H 	0.2637	0.0707	0.8098	0.051
Mof_C 	C 	0.1915	0.063	0.7459	-0.03
Mof_H 	H 	0.222	0.0824	0.7284	0.037
Mof_C 	C 	0.0859	0.0649	0.7472	-0.003
Mof_H 	H 	0.0407	0.0854	0.7313	0.031
Mof_C 	C 	0.1078	0.0575	0.7992	-0.04
Mof_H 	H 	0.0775	0.072	0.8182	0.045
Mof_O 	O 	0.9545	0.3239	0.1674	-1.468
Mof_C 	C 	0.9383	0.2921	0.2009	0.903
Mof_N 	N 	0.9607	0.228	0.2224	-0.317
Mof_C 	C 	0.019	0.1893	0.2094	0.065
Mof_H 	H 	0.0302	0.2169	0.1836	0.022
Mof_H 	H 	0.0619	0.1795	0.2357	-0.041
Mof_H 	H 	0.9978	0.145	0.1955	0.019
Mof_C 	C 	0.933	0.199	0.2628	0.079
Mof_H 	H 	0.9013	0.2288	0.2739	-0.072
Mof_H 	H 	0.9098	0.1545	0.2502	0.019
Mof_H 	H 	0.974	0.189	0.2905	-0.034
Mof_C 	C 	0.8814	0.3353	0.2222	0.913
Mof_H 	H 	0.8698	0.3794	0.2039	-0.001
Mof_H 	H 	0.8394	0.3078	0.2182	-0.368
Mof_H 	H 	0.9027	0.3456	0.2572	1.768
Mof_H 	H 	0.9868	0.5459	0.2565	-0.012
Mof_Tb	Tb	0.50337	0.98161	0.5867	2.292
Mof_Tb	Tb	0.54663	0.57146	0.55829	1.982
Mof_O 	O 	0.5882	0.072	0.63357	-0.401
Mof_O 	O 	0.5092	0.1104	0.5648	-0.447
Mof_O 	O 	0.4183	0.89	0.6042	0.281
Mof_O 	O 	0.911	0.301	0.8889	-0.363
Mof_O 	O 	0.9131	0.4103	0.8599	-0.541
Mof_O 	O 	0.5733	0.4501	0.575	-0.512
Mof_O 	O 	0.5055	0.3728	0.5193	-0.564
Mof_O 	O 	0.5623	0.4838	0.4686	-0.584
Mof_O 	O 	0.5328	0.4513	0.1423	-0.435
Mof_O 	O 	0.6399	0.4317	0.1391	-0.441
Mof_O 	O 	0.9174	0.5114	0.4591	-0.628
Mof_O 	O 	0.8929	0.4982	0.5306	-0.608
Mof_O 	O 	0.6429	0.5473	0.5261	-0.5
Mof_C 	C 	0.5612	0.1224	0.6033	0.334
Mof_C 	C 	0.5909	0.1978	0.6139	-0.107
Mof_C 	C 	0.5615	0.255	0.5813	0.072
Mof_H 	H 	0.5247	0.2453	0.5512	0.011
Mof_C 	C 	0.5851	0.3253	0.5925	-0.176
Mof_C 	C 	0.5513	0.387	0.5596	0.501
Mof_C 	C 	0.6416	0.3386	0.6372	0.039
Mof_H 	H 	0.6579	0.3868	0.6455	0.026
Mof_C 	C 	0.673	0.2819	0.6688	-0.066
Mof_C 	C 	0.6468	0.2118	0.6565	0.004
Mof_H 	H 	0.6678	0.1726	0.678	0.011
Mof_C 	C 	0.7309	0.2962	0.7165	0.065
Mof_C 	C 	0.7422	0.3654	0.7355	-0.065
Mof_H 	H 	0.7143	0.404	0.7173	0.051
Mof_C 	C 	0.7933	0.38	0.7806	0.015
Mof_H 	H 	0.7986	0.4282	0.7932	0.035
Mof_C 	C 	0.8321	0.2575	0.7888	0.044
Mof_H 	H 	0.8642	0.2212	0.8061	0.008
Mof_C 	C 	0.7793	0.2415	0.7438	-0.089
Mof_H 	H 	0.7754	0.1934	0.731	0.059
Mof_C 	C 	0.8362	0.327	0.8073	-0.156
Mof_C 	C 	0.8921	0.3458	0.855	0.451
Mof_C 	C 	0.6235	0.5097	0.4861	0.477
Mof_C 	C 	0.6758	0.4994	0.4577	-0.202
Mof_C 	C 	0.7479	0.5069	0.4828	0.132
Mof_H 	H 	0.763	0.517	0.5178	0.003
Mof_C 	C 	0.7975	0.4997	0.4569	-0.23
Mof_C 	C 	0.8744	0.5028	0.4839	0.563
Mof_C 	C 	0.7736	0.4883	0.4043	0.074
Mof_H 	H 	0.8071	0.4849	0.386	0.01
Mof_C 	C 	0.7015	0.482	0.3791	-0.085
Mof_C 	C 	0.6533	0.4859	0.4064	0.061
Mof_H 	H 	0.6042	0.4792	0.3898	0.007
Mof_C 	C 	0.6752	0.4715	0.3235	0.062
Mof_C 	C 	0.626	0.4558	0.2193	-0.085
Mof_C 	C 	0.5988	0.4451	0.1633	0.332
Mof_C 	C 	0.7259	0.4661	0.2966	-0.024
Mof_H 	H 	0.7753	0.4664	0.3138	0.035
Mof_C 	C 	0.7008	0.4601	0.2433	0.033
Mof_H 	H 	0.7332	0.4589	0.224	0.036
Mof_C 	C 	0.5834	0.4951	0.2441	0.057
Mof_H 	H 	0.5399	0.5168	0.2253	0.012
Mof_C 	C 	0.6073	0.5012	0.2976	-0.137
Mof_H 	H 	0.579	0.5242	0.3153	0.075
Mof_O 	O 	0.4501	0.0358	0.6433	-0.514
Mof_N 	N 	0.4265	0.0371	0.7175	-0.56
Mof_C 	C 	0.4387	0.0682	0.678	0.52
Mof_C 	C 	0.4011	0.0785	0.7545	3.026
Mof_H 	H 	0.399	0.1303	0.7461	-2.892
Mof_H 	H 	0.3536	0.0615	0.7535	-0.875
Mof_H 	H 	0.4338	0.0712	0.7882	-0.896
Mof_C 	C 	0.4497	0.9596	0.7244	0.08
Mof_H 	H 	0.4683	0.9451	0.697	0.029
Mof_H 	H 	0.4091	0.9289	0.7242	0
Mof_C 	C 	0.4159	0.1529	0.6786	0.133
Mof_H 	H 	0.4268	0.1787	0.6511	0.939
Mof_H 	H 	0.3649	0.1561	0.6743	-0.226
Mof_H 	H 	0.4423	0.1749	0.7107	-0.496
Mof_O 	O 	0.4434	0.8904	0.6213	-0.633
Mof_C 	C 	0.7698	0.3596	0.7203	-0.06
Mof_H 	H 	0.7608	0.3928	0.6931	0.049
Mof_C 	C 	0.8229	0.3733	0.7655	0.023
Mof_H 	H 	0.8512	0.4157	0.7679	0.027
Mof_C 	C 	0.795	0.2647	0.8003	0.001
Mof_H 	H 	0.8036	0.2309	0.8272	0.025
Mof_C 	C 	0.7419	0.249	0.7561	-0.041
Mof_H 	H 	0.7137	0.2065	0.7535	0.042
Mof_C 	C 	0.7161	0.4437	0.2937	-0.065
Mof_H 	H 	0.7637	0.4293	0.3098	0.05
Mof_C 	C 	0.6915	0.437	0.2459	-0.034
Mof_H 	H 	0.722	0.4176	0.2284	0.038
Mof_C 	C 	0.5859	0.4351	0.2472	-0.059
Mof_H 	H 	0.5407	0.4146	0.2313	0.048
Mof_C 	C 	0.6078	0.4425	0.2992	0.014
Mof_H 	H 	0.5775	0.428	0.3182	0.026
Mof_O 	O 	0.4545	0.1761	0.6674	-1.472
Mof_C 	C 	0.4383	0.2079	0.7009	0.905
Mof_N 	N 	0.4607	0.272	0.7224	-0.318
Mof_C 	C 	0.519	0.3107	0.7094	0.064
Mof_H 	H 	0.5302	0.2831	0.6836	0.022
Mof_H 	H 	0.5619	0.3205	0.7357	-0.041
Mof_H 	H 	0.4978	0.355	0.6955	0.017
Mof_C 	C 	0.433	0.301	0.7628	0.079
Mof_H 	H 	0.4013	0.2712	0.7739	-0.072
Mof_H 	H 	0.4098	0.3455	0.7502	0.019
Mof_H 	H 	0.474	0.311	0.7905	-0.035
Mof_C 	C 	0.3814	0.1647	0.7222	0.915
Mof_H 	H 	0.3698	0.1206	0.7039	-0.001
Mof_H 	H 	0.3394	0.1922	0.7182	-0.368
Mof_H 	H 	0.4027	0.1544	0.7572	1.77
Mof_H 	H 	0.4868	0.9541	0.7565	-0.014
Mof_Tb	Tb	0.00337	0.48161	0.5867	2.296
Mof_Tb	Tb	0.04663	0.07146	0.55829	1.984
Mof_O 	O 	0.0882	0.572	0.63357	-0.401
Mof_O 	O 	0.0092	0.6104	0.5648	-0.447
Mof_O 	O 	0.9183	0.39	0.6042	0.282
Mof_O 	O 	0.411	0.801	0.8889	-0.363
Mof_O 	O 	0.4131	0.9103	0.8599	-0.541
Mof_O 	O 	0.0733	0.9501	0.575	-0.512
Mof_O 	O 	0.0055	0.8728	0.5193	-0.564
Mof_O 	O 	0.0623	0.9838	0.4686	-0.584
Mof_O 	O 	0.0328	0.9513	0.1423	-0.436
Mof_O 	O 	0.1399	0.9317	0.1391	-0.442
Mof_O 	O 	0.4174	0.0114	0.4591	-0.627
Mof_O 	O 	0.3929	0.9982	0.5306	-0.608
Mof_O 	O 	0.1429	0.0473	0.5261	-0.5
Mof_C 	C 	0.0612	0.6224	0.6033	0.334
Mof_C 	C 	0.0909	0.6978	0.6139	-0.107
Mof_C 	C 	0.0615	0.755	0.5813	0.072
Mof_H 	H 	0.0247	0.7453	0.5512	0.011
Mof_C 	C 	0.0851	0.8253	0.5925	-0.176
Mof_C 	C 	0.0513	0.887	0.5596	0.502
Mof_C 	C 	0.1416	0.8386	0.6372	0.039
Mof_H 	H 	0.1579	0.8868	0.6455	0.026
Mof_C 	C 	0.173	0.7819	0.6688	-0.066
Mof_C 	C 	0.1468	0.7118	0.6565	0.004
Mof_H 	H 	0.1678	0.6726	0.678	0.011
Mof_C 	C 	0.2309	0.7962	0.7165	0.065
Mof_C 	C 	0.2422	0.8654	0.7355	-0.066
Mof_H 	H 	0.2143	0.904	0.7173	0.051
Mof_C 	C 	0.2933	0.88	0.7806	0.014
Mof_H 	H 	0.2986	0.9282	0.7932	0.034
Mof_C 	C 	0.3321	0.7575	0.7888	0.044
Mof_H 	H 	0.3642	0.7212	0.8061	0.008
Mof_C 	C 	0.2793	0.7415	0.7438	-0.089
Mof_H 	H 	0.2754	0.6934	0.731	0.059
Mof_C 	C 	0.3362	0.827	0.8073	-0.156
Mof_C 	C 	0.3921	0.8458	0.855	0.451
Mof_C 	C 	0.1235	0.0097	0.4861	0.477
Mof_C 	C 	0.1758	0.9994	0.4577	-0.202
Mof_C 	C 	0.2479	0.0069	0.4828	0.132
Mof_H 	H 	0.263	0.017	0.5178	0.003
Mof_C 	C 	0.2975	0.9997	0.4569	-0.23
Mof_C 	C 	0.3744	0.0028	0.4839	0.562
Mof_C 	C 	0.2736	0.9883	0.4043	0.075
Mof_H 	H 	0.3071	0.9849	0.386	0.01
Mof_C 	C 	0.2015	0.982	0.3791	-0.086
Mof_C 	C 	0.1533	0.9859	0.4064	0.062
Mof_H 	H 	0.1042	0.9792	0.3898	0.007
Mof_C 	C 	0.1752	0.9715	0.3235	0.065
Mof_C 	C 	0.126	0.9558	0.2193	-0.091
Mof_C 	C 	0.0988	0.9451	0.1633	0.335
Mof_C 	C 	0.2259	0.9661	0.2966	-0.024
Mof_H 	H 	0.2753	0.9664	0.3138	0.035
Mof_C 	C 	0.2008	0.9601	0.2433	0.033
Mof_H 	H 	0.2332	0.9589	0.224	0.037
Mof_C 	C 	0.0834	0.9951	0.2441	0.028
Mof_H 	H 	0.0399	0.0168	0.2253	0.021
Mof_C 	C 	0.1073	0.0012	0.2976	-0.106
Mof_H 	H 	0.079	0.0242	0.3153	0.064
Mof_O 	O 	0.9501	0.5358	0.6433	-0.515
Mof_N 	N 	0.9265	0.5371	0.7175	-0.561
Mof_C 	C 	0.9387	0.5682	0.678	0.52
Mof_C 	C 	0.9011	0.5785	0.7545	3.025
Mof_H 	H 	0.899	0.6303	0.7461	-2.891
Mof_H 	H 	0.8536	0.5615	0.7535	-0.875
Mof_H 	H 	0.9338	0.5712	0.7882	-0.896
Mof_C 	C 	0.9497	0.4596	0.7244	0.084
Mof_H 	H 	0.9683	0.4451	0.697	0.028
Mof_H 	H 	0.9091	0.4289	0.7242	-0.001
Mof_C 	C 	0.9159	0.6529	0.6786	0.134
Mof_H 	H 	0.9268	0.6787	0.6511	0.939
Mof_H 	H 	0.8649	0.6561	0.6743	-0.227
Mof_H 	H 	0.9423	0.6749	0.7107	-0.496
Mof_O 	O 	0.9434	0.3904	0.6213	-0.633
Mof_C 	C 	0.2698	0.8596	0.7203	-0.059
Mof_H 	H 	0.2608	0.8928	0.6931	0.049
Mof_C 	C 	0.3229	0.8733	0.7655	0.024
Mof_H 	H 	0.3512	0.9157	0.7679	0.027
Mof_C 	C 	0.295	0.7647	0.8003	0.001
Mof_H 	H 	0.3036	0.7309	0.8272	0.025
Mof_C 	C 	0.2419	0.749	0.7561	-0.041
Mof_H 	H 	0.2137	0.7065	0.7535	0.042
Mof_C 	C 	0.2161	0.9437	0.2937	-0.066
Mof_H 	H 	0.2637	0.9293	0.3098	0.051
Mof_C 	C 	0.1915	0.937	0.2459	-0.031
Mof_H 	H 	0.222	0.9176	0.2284	0.037
Mof_C 	C 	0.0859	0.9351	0.2472	-0.022
Mof_H 	H 	0.0407	0.9146	0.2313	0.036
Mof_C 	C 	0.1078	0.9425	0.2992	-0.023
Mof_H 	H 	0.0775	0.928	0.3182	0.039
Mof_O 	O 	0.9545	0.6761	0.6674	-1.473
Mof_C 	C 	0.9383	0.7079	0.7009	0.906
Mof_N 	N 	0.9607	0.772	0.7224	-0.318
Mof_C 	C 	0.019	0.8107	0.7094	0.064
Mof_H 	H 	0.0302	0.7831	0.6836	0.022
Mof_H 	H 	0.0619	0.8205	0.7357	-0.042
Mof_H 	H 	0.9978	0.855	0.6955	0.017
Mof_C 	C 	0.933	0.801	0.7628	0.079
Mof_H 	H 	0.9013	0.7712	0.7739	-0.072
Mof_H 	H 	0.9098	0.8455	0.7502	0.018
Mof_H 	H 	0.974	0.811	0.7905	-0.036
Mof_C 	C 	0.8814	0.6647	0.7222	0.914
Mof_H 	H 	0.8698	0.6206	0.7039	-0.001
Mof_H 	H 	0.8394	0.6922	0.7182	-0.368
Mof_H 	H 	0.9027	0.6544	0.7572	1.769
Mof_H 	H 	0.9868	0.4541	0.7565	-0.016
Mof_Tb	Tb	0.49663	0.98161	0.9133	2.287
Mof_Tb	Tb	0.45337	0.57146	0.94171	1.981
Mof_O 	O 	0.4118	0.072	0.86643	-0.4
Mof_O 	O 	0.4908	0.1104	0.9352	-0.445
Mof_O 	O 	0.5817	0.89	0.8958	0.277
Mof_O 	O 	0.089	0.301	0.6111	-0.363
Mof_O 	O 	0.0869	0.4103	0.6401	-0.541
Mof_O 	O 	0.4267	0.4501	0.925	-0.512
Mof_O 	O 	0.4945	0.3728	0.9807	-0.564
Mof_O 	O 	0.4377	0.4838	0.0314	-0.583
Mof_O 	O 	0.4672	0.4513	0.3577	-0.435
Mof_O 	O 	0.3601	0.4317	0.3609	-0.441
Mof_O 	O 	0.0826	0.5114	0.0409	-0.626
Mof_O 	O 	0.1071	0.4982	0.9694	-0.604
Mof_O 	O 	0.3571	0.5473	0.9739	-0.499
Mof_C 	C 	0.4388	0.1224	0.8967	0.334
Mof_C 	C 	0.4091	0.1978	0.8861	-0.107
Mof_C 	C 	0.4385	0.255	0.9187	0.072
Mof_H 	H 	0.4753	0.2453	0.9488	0.011
Mof_C 	C 	0.4149	0.3253	0.9075	-0.176
Mof_C 	C 	0.4487	0.387	0.9404	0.501
Mof_C 	C 	0.3584	0.3386	0.8628	0.039
Mof_H 	H 	0.3421	0.3868	0.8545	0.026
Mof_C 	C 	0.327	0.2819	0.8312	-0.066
Mof_C 	C 	0.3532	0.2118	0.8435	0.004
Mof_H 	H 	0.3322	0.1726	0.822	0.011
Mof_C 	C 	0.2691	0.2962	0.7835	0.065
Mof_C 	C 	0.2578	0.3654	0.7645	-0.065
Mof_H 	H 	0.2857	0.404	0.7827	0.051
Mof_C 	C 	0.2067	0.38	0.7194	0.014
Mof_H 	H 	0.2014	0.4282	0.7068	0.035
Mof_C 	C 	0.1679	0.2575	0.7112	0.044
Mof_H 	H 	0.1358	0.2212	0.6939	0.008
Mof_C 	C 	0.2207	0.2415	0.7562	-0.089
Mof_H 	H 	0.2246	0.1934	0.769	0.059
Mof_C 	C 	0.1638	0.327	0.6927	-0.156
Mof_C 	C 	0.1079	0.3458	0.645	0.452
Mof_C 	C 	0.3765	0.5097	0.0139	0.475
Mof_C 	C 	0.3242	0.4994	0.0423	-0.199
Mof_C 	C 	0.2521	0.5069	0.0172	0.127
Mof_H 	H 	0.237	0.517	0.9822	0.005
Mof_C 	C 	0.2025	0.4997	0.0431	-0.227
Mof_C 	C 	0.1256	0.5028	0.0161	0.558
Mof_C 	C 	0.2264	0.4883	0.0957	0.072
Mof_H 	H 	0.1929	0.4849	0.114	0.011
Mof_C 	C 	0.2985	0.482	0.1209	-0.084
Mof_C 	C 	0.3467	0.4859	0.0936	0.06
Mof_H 	H 	0.3958	0.4792	0.1102	0.007
Mof_C 	C 	0.3248	0.4715	0.1765	0.061
Mof_C 	C 	0.374	0.4558	0.2807	-0.085
Mof_C 	C 	0.4012	0.4451	0.3367	0.332
Mof_C 	C 	0.2741	0.4661	0.2034	-0.023
Mof_H 	H 	0.2247	0.4664	0.1862	0.035
Mof_C 	C 	0.2992	0.4601	0.2567	0.033
Mof_H 	H 	0.2668	0.4589	0.276	0.036
Mof_C 	C 	0.4166	0.4951	0.2559	0.056
Mof_H 	H 	0.4601	0.5168	0.2747	0.013
Mof_C 	C 	0.3927	0.5012	0.2024	-0.137
Mof_H 	H 	0.421	0.5242	0.1847	0.075
Mof_O 	O 	0.5499	0.0358	0.8567	-0.513
Mof_N 	N 	0.5735	0.0371	0.7825	-0.56
Mof_C 	C 	0.5613	0.0682	0.822	0.519
Mof_C 	C 	0.5989	0.0785	0.7455	3.027
Mof_H 	H 	0.601	0.1303	0.7539	-2.892
Mof_H 	H 	0.6464	0.0615	0.7465	-0.876
Mof_H 	H 	0.5662	0.0712	0.7118	-0.896
Mof_C 	C 	0.5503	0.9596	0.7756	0.08
Mof_H 	H 	0.5317	0.9451	0.803	0.029
Mof_H 	H 	0.5909	0.9289	0.7758	0
Mof_C 	C 	0.5841	0.1529	0.8214	0.134
Mof_H 	H 	0.5732	0.1787	0.8489	0.939
Mof_H 	H 	0.6351	0.1561	0.8257	-0.227
Mof_H 	H 	0.5577	0.1749	0.7893	-0.496
Mof_O 	O 	0.5566	0.8904	0.8787	-0.629
Mof_C 	C 	0.2302	0.3596	0.7797	-0.059
Mof_H 	H 	0.2392	0.3928	0.8069	0.049
Mof_C 	C 	0.1771	0.3733	0.7345	0.023
Mof_H 	H 	0.1488	0.4157	0.7321	0.027
Mof_C 	C 	0.205	0.2647	0.6997	0.001
Mof_H 	H 	0.1964	0.2309	0.6728	0.025
Mof_C 	C 	0.2581	0.249	0.7439	-0.041
Mof_H 	H 	0.2863	0.2065	0.7465	0.043
Mof_C 	C 	0.2839	0.4437	0.2063	-0.065
Mof_H 	H 	0.2363	0.4293	0.1902	0.05
Mof_C 	C 	0.3085	0.437	0.2541	-0.034
Mof_H 	H 	0.278	0.4176	0.2716	0.038
Mof_C 	C 	0.4141	0.4351	0.2528	-0.059
Mof_H 	H 	0.4593	0.4146	0.2687	0.048
Mof_C 	C 	0.3922	0.4425	0.2008	0.014
Mof_H 	H 	0.4225	0.428	0.1818	0.026
Mof_O 	O 	0.5455	0.1761	0.8326	-1.472
Mof_C 	C 	0.5617	0.2079	0.7991	0.906
Mof_N 	N 	0.5393	0.272	0.7776	-0.318
Mof_C 	C 	0.481	0.3107	0.7906	0.064
Mof_H 	H 	0.4698	0.2831	0.8164	0.022
Mof_H 	H 	0.4381	0.3205	0.7643	-0.041
Mof_H 	H 	0.5022	0.355	0.8045	0.017
Mof_C 	C 	0.567	0.301	0.7372	0.079
Mof_H 	H 	0.5987	0.2712	0.7261	-0.072
Mof_H 	H 	0.5902	0.3455	0.7498	0.019
Mof_H 	H 	0.526	0.311	0.7095	-0.035
Mof_C 	C 	0.6186	0.1647	0.7778	0.915
Mof_H 	H 	0.6302	0.1206	0.7961	-0.001
Mof_H 	H 	0.6606	0.1922	0.7818	-0.368
Mof_H 	H 	0.5973	0.1544	0.7428	1.77
Mof_H 	H 	0.5132	0.9541	0.7435	-0.014
Mof_Tb	Tb	0.99663	0.48161	0.9133	2.289
Mof_Tb	Tb	0.95337	0.07146	0.94171	1.981
Mof_O 	O 	0.9118	0.572	0.86643	-0.401
Mof_O 	O 	0.9908	0.6104	0.9352	-0.447
Mof_O 	O 	0.0817	0.39	0.8958	0.279
Mof_O 	O 	0.589	0.801	0.6111	-0.363
Mof_O 	O 	0.5869	0.9103	0.6401	-0.541
Mof_O 	O 	0.9267	0.9501	0.925	-0.514
Mof_O 	O 	0.9945	0.8728	0.9807	-0.566
Mof_O 	O 	0.9377	0.9838	0.0314	-0.576
Mof_O 	O 	0.9672	0.9513	0.3577	-0.435
Mof_O 	O 	0.8601	0.9317	0.3609	-0.442
Mof_O 	O 	0.5826	0.0114	0.0409	-0.626
Mof_O 	O 	0.6071	0.9982	0.9694	-0.607
Mof_O 	O 	0.8571	0.0473	0.9739	-0.496
Mof_C 	C 	0.9388	0.6224	0.8967	0.334
Mof_C 	C 	0.9091	0.6978	0.8861	-0.108
Mof_C 	C 	0.9385	0.755	0.9187	0.072
Mof_H 	H 	0.9753	0.7453	0.9488	0.01
Mof_C 	C 	0.9149	0.8253	0.9075	-0.177
Mof_C 	C 	0.9487	0.887	0.9404	0.501
Mof_C 	C 	0.8584	0.8386	0.8628	0.039
Mof_H 	H 	0.8421	0.8868	0.8545	0.026
Mof_C 	C 	0.827	0.7819	0.8312	-0.066
Mof_C 	C 	0.8532	0.7118	0.8435	0.005
Mof_H 	H 	0.8322	0.6726	0.822	0.011
Mof_C 	C 	0.7691	0.7962	0.7835	0.065
Mof_C 	C 	0.7578	0.8654	0.7645	-0.065
Mof_H 	H 	0.7857	0.904	0.7827	0.051
Mof_C 	C 	0.7067	0.88	0.7194	0.014
Mof_H 	H 	0.7014	0.9282	0.7068	0.035
Mof_C 	C 	0.6679	0.7575	0.7112	0.044
Mof_H 	H 	0.6358	0.7212	0.6939	0.008
Mof_C 	C 	0.7207	0.7415	0.7562	-0.09
Mof_H 	H 	0.7246	0.6934	0.769	0.059
Mof_C 	C 	0.6638	0.827	0.6927	-0.156
Mof_C 	C 	0.6079	0.8458	0.645	0.452
Mof_C 	C 	0.8765	0.0097	0.0139	0.465
Mof_C 	C 	0.8242	0.9994	0.0423	-0.185
Mof_C 	C 	0.7521	0.0069	0.0172	0.111
Mof_H 	H 	0.737	0.017	0.9822	0.011
Mof_C 	C 	0.7025	0.9997	0.0431	-0.215
Mof_C 	C 	0.6256	0.0028	0.0161	0.555
Mof_C 	C 	0.7264	0.9883	0.0957	0.066
Mof_H 	H 	0.6929	0.9849	0.114	0.013
Mof_C 	C 	0.7985	0.982	0.1209	-0.079
Mof_C 	C 	0.8467	0.9859	0.0936	0.053
Mof_H 	H 	0.8958	0.9792	0.1102	0.011
Mof_C 	C 	0.8248	0.9715	0.1765	0.064
Mof_C 	C 	0.874	0.9558	0.2807	-0.093
Mof_C 	C 	0.9012	0.9451	0.3367	0.335
Mof_C 	C 	0.7741	0.9661	0.2034	-0.023
Mof_H 	H 	0.7247	0.9664	0.1862	0.035
Mof_C 	C 	0.7992	0.9601	0.2567	0.033
Mof_H 	H 	0.7668	0.9589	0.276	0.037
Mof_C 	C 	0.9166	0.9951	0.2559	0.012
Mof_H 	H 	0.9601	0.0168	0.2747	0.027
Mof_C 	C 	0.8927	0.0012	0.2024	-0.089
Mof_H 	H 	0.921	0.0242	0.1847	0.058
Mof_O 	O 	0.0499	0.5358	0.8567	-0.513
Mof_N 	N 	0.0735	0.5371	0.7825	-0.56
Mof_C 	C 	0.0613	0.5682	0.822	0.52
Mof_C 	C 	0.0989	0.5785	0.7455	3.022
Mof_H 	H 	0.101	0.6303	0.7539	-2.888
Mof_H 	H 	0.1464	0.5615	0.7465	-0.874
Mof_H 	H 	0.0662	0.5712	0.7118	-0.895
Mof_C 	C 	0.0503	0.4596	0.7756	0.081
Mof_H 	H 	0.0317	0.4451	0.803	0.03
Mof_H 	H 	0.0909	0.4289	0.7758	0
Mof_C 	C 	0.0841	0.6529	0.8214	0.131
Mof_H 	H 	0.0732	0.6787	0.8489	0.938
Mof_H 	H 	0.1351	0.6561	0.8257	-0.225
Mof_H 	H 	0.0577	0.6749	0.7893	-0.493
Mof_O 	O 	0.0566	0.3904	0.8787	-0.629
Mof_C 	C 	0.7302	0.8596	0.7797	-0.059
Mof_H 	H 	0.7392	0.8928	0.8069	0.049
Mof_C 	C 	0.6771	0.8733	0.7345	0.023
Mof_H 	H 	0.6488	0.9157	0.7321	0.027
Mof_C 	C 	0.705	0.7647	0.6997	0.001
Mof_H 	H 	0.6964	0.7309	0.6728	0.025
Mof_C 	C 	0.7581	0.749	0.7439	-0.041
Mof_H 	H 	0.7863	0.7065	0.7465	0.042
Mof_C 	C 	0.7839	0.9437	0.2063	-0.066
Mof_H 	H 	0.7363	0.9293	0.1902	0.051
Mof_C 	C 	0.8085	0.937	0.2541	-0.03
Mof_H 	H 	0.778	0.9176	0.2716	0.037
Mof_C 	C 	0.9141	0.9351	0.2528	-0.003
Mof_H 	H 	0.9593	0.9146	0.2687	0.031
Mof_C 	C 	0.8922	0.9425	0.2008	-0.04
Mof_H 	H 	0.9225	0.928	0.1818	0.045
Mof_O 	O 	0.0455	0.6761	0.8326	-1.468
Mof_C 	C 	0.0617	0.7079	0.7991	0.903
Mof_N 	N 	0.0393	0.772	0.7776	-0.317
Mof_C 	C 	0.981	0.8107	0.7906	0.065
Mof_H 	H 	0.9698	0.7831	0.8164	0.022
Mof_H 	H 	0.9381	0.8205	0.7643	-0.041
Mof_H 	H 	0.0022	0.855	0.8045	0.019
Mof_C 	C 	0.067	0.801	0.7372	0.079
Mof_H 	H 	0.0987	0.7712	0.7261	-0.072
Mof_H 	H 	0.0902	0.8455	0.7498	0.019
Mof_H 	H 	0.026	0.811	0.7095	-0.034
Mof_C 	C 	0.1186	0.6647	0.7778	0.913
Mof_H 	H 	0.1302	0.6206	0.7961	-0.001
Mof_H 	H 	0.1606	0.6922	0.7818	-0.368
Mof_H 	H 	0.0973	0.6544	0.7428	1.768
Mof_H 	H 	0.0132	0.4541	0.7435	-0.012
_end
