data_functionalizedCrystal
_audit_creation_method	'EQeq! by Chris Wilmer'
_symmetry_space_group_name_H-M	'P1'
_symmetry_Int_Tables_number	1
_symmetry_cell_setting	triclinic
loop_
_symmetry_equiv_pos_as_xyz
  x,y,z
_cell_length_a	14.097
_cell_length_b	14.2015
_cell_length_c	14.2649
_cell_angle_alpha	115.663
_cell_angle_beta	113.627
_cell_angle_gamma	97.603
loop_
_atom_site_label
_atom_site_type_symbol
_atom_site_fract_x
_atom_site_fract_y
_atom_site_fract_z
_atom_site_charge
Mof_Cd	Cd	0.99435	0.11337	0.81305	0.472
Mof_Cd	Cd	0.00565	0.88663	0.18695	0.486
Mof_Cd	Cd	-0	0	-0	0.446
Mof_Si	Si	0.73649	0.35164	0.31561	0.77
Mof_Si	Si	0.26351	0.64836	0.68439	0.778
Mof_H 	H 	0.4415	0.8635	0.8112	-0.017
Mof_H 	H 	0.3652	0.0642	0.0857	0.046
Mof_H 	H 	0.5566	0.4374	0.2343	-0.017
Mof_H 	H 	0.0005	0.7663	0.4569	0.074
Mof_H 	H 	0.9495	0.4169	0.1314	0.081
Mof_H 	H 	0.177	0.2435	0.5309	0.066
Mof_H 	H 	0.5585	0.1365	0.1888	-0.035
Mof_H 	H 	0.0505	0.5831	0.8686	0.087
Mof_H 	H 	0.7975	0.0912	0.0085	0.065
Mof_H 	H 	0.0773	0.321	0.2748	0.077
Mof_H 	H 	0.6473	0.2539	0.4217	-0.008
Mof_H 	H 	0.2843	0.8075	0.4465	0.088
Mof_H 	H 	0.4434	0.5626	0.7657	-0.016
Mof_H 	H 	0.2025	0.9088	0.9915	0.102
Mof_H 	H 	0.6348	0.9358	0.9143	0.074
Mof_H 	H 	0.9227	0.679	0.7252	0.087
Mof_H 	H 	0.7157	0.1925	0.5535	0.078
Mof_H 	H 	0.8533	0.4898	0.5761	-0.007
Mof_H 	H 	0.9306	0.2941	0.4108	-0.001
Mof_H 	H 	0.7214	0.1473	0.1317	-0.029
Mof_H 	H 	0.2786	0.8527	0.8683	-0.017
Mof_H 	H 	0.0694	0.7059	0.5892	-0.01
Mof_H 	H 	0.2512	0.4336	0.6811	-0.014
Mof_H 	H 	0.823	0.7565	0.4691	0.071
Mof_H 	H 	0.1467	0.5102	0.4239	-0.011
Mof_H 	H 	0.9995	0.2337	0.5431	0.078
Mof_H 	H 	0.88	0.4735	0.2619	-0.009
Mof_H 	H 	0.3626	0.36	0.1156	0.068
Mof_H 	H 	0.12	0.5265	0.7381	-0.018
Mof_H 	H 	0.3527	0.7461	0.5783	-0.008
Mof_H 	H 	0.6374	0.64	0.8844	0.074
Mof_H 	H 	0.7488	0.5664	0.3189	-0.016
Mof_C 	C 	0.15384	0.45668	0.44663	0.081
Mof_C 	C 	0.79319	0.50648	0.43042	-0.278
Mof_C 	C 	0.42041	0.7044	0.77459	-0.28
Mof_C 	C 	0.7692	0.20271	0.1335	0.088
Mof_C 	C 	0.57959	0.2956	0.22541	-0.28
Mof_C 	C 	0.78161	0.84429	0.98083	0.295
Mof_C 	C 	0.40231	0.31527	0.1336	-0.111
Mof_C 	C 	0.21839	0.15571	0.01917	0.273
Mof_C 	C 	0.78506	0.58873	0.40153	0.094
Mof_C 	C 	0.08806	0.82805	0.3495	0.254
Mof_C 	C 	0.11887	0.26359	0.38777	-0.015
Mof_C 	C 	0.88654	0.2742	0.44	0.086
Mof_C 	C 	0.48078	0.81625	0.8225	0.094
Mof_C 	C 	0.07227	0.7618	0.4811	-0.11
Mof_C 	C 	0.34433	0.20498	0.09098	-0.014
Mof_C 	C 	0.51922	0.18375	0.1775	0.088
Mof_C 	C 	0.20702	0.68322	0.78868	-0.29
Mof_C 	C 	0.86195	0.39563	0.20969	0.096
Mof_C 	C 	0.11823	0.75135	0.94104	0.027
Mof_C 	C 	0.17116	0.29775	0.50902	-0.107
Mof_C 	C 	0.88177	0.24865	0.05896	-0.008
Mof_C 	C 	0.1116	0.34369	0.35748	-0.107
Mof_C 	C 	0.28055	0.74965	0.5536	0.099
Mof_C 	C 	0.86522	0.20866	0.56275	-0.012
Mof_C 	C 	0.59619	0.86039	0.8862	-0.115
Mof_C 	C 	0.93286	0.21222	0.98142	0.276
Mof_C 	C 	0.88113	0.73641	0.61223	-0.001
Mof_C 	C 	0.21825	0.71808	0.59739	-0.28
Mof_C 	C 	0.92852	0.85851	0.71184	0.28
Mof_C 	C 	0.91194	0.17195	0.6505	0.283
Mof_C 	C 	0.13805	0.60437	0.79031	0.109
Mof_C 	C 	0.81365	0.16892	0.0592	-0.108
Mof_C 	C 	0.76006	0.21387	0.5253	-0.105
Mof_C 	C 	0.21494	0.41127	0.59847	0.089
Mof_C 	C 	0.78175	0.28192	0.40261	-0.276
Mof_C 	C 	0.8884	0.65631	0.64252	-0.11
Mof_C 	C 	0.71945	0.25035	0.4464	0.085
Mof_C 	C 	0.07148	0.14149	0.28816	0.288
Mof_C 	C 	0.09533	0.63781	0.8669	-0.133
Mof_C 	C 	0.84616	0.54332	0.55337	0.087
Mof_C 	C 	0.23994	0.78613	0.4747	-0.11
Mof_C 	C 	0.79298	0.31678	0.21132	-0.28
Mof_C 	C 	0.18635	0.83108	0.9408	-0.13
Mof_C 	C 	0.13478	0.79134	0.43725	0.009
Mof_C 	C 	0.65567	0.79502	0.90902	-0.008
Mof_C 	C 	0.2308	0.79729	0.8665	0.107
Mof_C 	C 	0.06714	0.78778	0.01858	0.246
Mof_C 	C 	0.92773	0.2382	0.5189	-0.102
Mof_C 	C 	0.59769	0.68473	0.8664	-0.111
Mof_C 	C 	0.51836	0.36074	0.2024	0.086
Mof_C 	C 	0.90467	0.36219	0.1331	-0.11
Mof_C 	C 	0.48164	0.63926	0.7976	0.089
Mof_C 	C 	0.20681	0.49352	0.56958	-0.28
Mof_C 	C 	0.40381	0.13961	0.1138	-0.116
Mof_C 	C 	0.11346	0.7258	0.56	0.097
Mof_C 	C 	0.82884	0.70225	0.49098	-0.11
Mof_O 	O 	0.00997	0.17442	0.68886	-0.285
Mof_O 	O 	0.05978	0.06926	0.31534	-0.314
Mof_O 	O 	0.17129	0.09204	0.03878	-0.3
Mof_O 	O 	0.98121	0.27979	0.96721	-0.25
Mof_O 	O 	0.82871	0.90796	0.96122	-0.266
Mof_O 	O 	0.01879	0.72021	0.03279	-0.26
Mof_O 	O 	0.94022	0.93074	0.68466	-0.27
Mof_O 	O 	0.14915	0.8611	0.31622	-0.285
Mof_O 	O 	0.8267	0.81659	0.05562	-0.283
Mof_O 	O 	0.85085	0.1389	0.68378	-0.309
Mof_O 	O 	0.99003	0.82558	0.31114	-0.245
Mof_O 	O 	0.07789	0.89195	0.07076	-0.276
Mof_O 	O 	0.92211	0.10805	0.92924	-0.296
Mof_O 	O 	0.95134	0.87683	0.81358	-0.263
Mof_O 	O 	0.04866	0.12317	0.18642	-0.298
Mof_O 	O 	0.1733	0.18341	0.94438	-0.277
Mof_Cd	Cd	0.5	0	0.5	0.507
Mof_H 	H 	0.6852	0.7217	0.6634	0.107
Mof_H 	H 	0.7459	0.865	0.1903	0.141
Mof_H 	H 	0.2257	0.0748	0.5387	0.129
Mof_H 	H 	0.7881	0.8371	0.355	0.131
Mof_H 	H 	0.5345	0.0287	0.7393	0.227
Mof_H 	H 	0.3192	0.0226	0.2803	0.25
Mof_H 	H 	0.5961	0.3348	0.6173	0.114
Mof_H 	H 	0.341	0.812	0.279	0.302
Mof_H 	H 	0.278	0.863	0.315	0.334
Mof_H 	H 	0.2119	0.1629	0.645	0.119
Mof_H 	H 	0.3805	0.1439	0.8737	0.11
Mof_H 	H 	0.4561	0.5698	0.3652	0.098
Mof_H 	H 	0.6077	0.4086	0.561	0.101
Mof_H 	H 	0.3923	0.5914	0.439	0.098
Mof_H 	H 	0.3626	0.388	0.4675	0.109
Mof_H 	H 	0.7743	0.9252	0.4613	0.151
Mof_H 	H 	0.2541	0.135	0.8097	0.132
Mof_H 	H 	0.7382	0.9002	0.6601	0.282
Mof_H 	H 	0.1489	0.0308	0.58	0.117
Mof_H 	H 	0.6374	0.612	0.5325	0.109
Mof_H 	H 	0.3148	0.2783	0.3366	0.107
Mof_H 	H 	0.4225	0.3828	0.3919	0.105
Mof_H 	H 	0.4656	0.0265	0.8048	0.21
Mof_H 	H 	0.6195	0.8561	0.1263	0.113
Mof_H 	H 	0.703	0.8815	0.7462	0.275
Mof_H 	H 	0.7191	0.9763	0.2123	0.131
Mof_H 	H 	0.2809	0.0237	0.7877	0.106
Mof_H 	H 	0.6808	0.9774	0.7197	0.295
Mof_H 	H 	0.722	0.137	0.685	0.334
Mof_H 	H 	0.2618	0.0998	0.3399	0.258
Mof_H 	H 	0.5344	0.9735	0.1952	0.241
Mof_H 	H 	0.4039	0.6652	0.3827	0.111
Mof_H 	H 	0.659	0.188	0.721	0.313
Mof_H 	H 	0.4655	0.9713	0.2607	0.262
Mof_H 	H 	0.8511	0.9692	0.42	0.152
Mof_H 	H 	0.5439	0.4302	0.6348	0.102
Mof_H 	H 	0.5775	0.6172	0.6081	0.105
Mof_H 	H 	0.5439	0.1441	0.8421	0.22
Mof_H 	H 	0.4561	0.8559	0.1579	0.231
Mof_H 	H 	0.297	0.1185	0.2538	0.251
Mof_C 	C 	0.6934	0.9019	0.1996	-0.299
Mof_C 	C 	0.6174	0.6611	0.5888	-0.265
Mof_C 	C 	0.42975	0.1809	0.4226	0.378
Mof_C 	C 	0.6024	0.9302	0.3199	0.369
Mof_C 	C 	0.4938	0.067	0.7748	-0.681
Mof_C 	C 	0.6828	0.9017	0.6852	-0.794
Mof_C 	C 	0.57025	0.8191	0.5774	0.395
Mof_C 	C 	0.5592	0.3728	0.5793	-0.254
Mof_C 	C 	0.3976	0.0698	0.6801	0.351
Mof_C 	C 	0.4408	0.6272	0.4207	-0.249
Mof_C 	C 	0.783	0.9112	0.3922	-0.309
Mof_C 	C 	0.217	0.0888	0.6078	-0.28
Mof_C 	C 	0.3066	0.0981	0.8004	-0.283
Mof_C 	C 	0.3826	0.3389	0.4112	-0.267
Mof_C 	C 	0.5062	0.933	0.2252	-0.72
Mof_C 	C 	0.3172	0.0983	0.3148	-0.747
Mof_N 	N 	0.45424	0.29064	0.4672	-0.117
Mof_N 	N 	0.54576	0.70936	0.5328	-0.121
Mof_N 	N 	0.6869	0.9141	0.3032	-0.098
Mof_N 	N 	0.3131	0.0859	0.6968	-0.106
Mof_O 	O 	0.3962	0.05682	0.58708	-0.302
Mof_O 	O 	0.6038	0.94318	0.41292	-0.283
Mof_O 	O 	0.3422	0.87574	0.3226	-0.662
Mof_O 	O 	0.6578	0.12426	0.6774	-0.692
Mof_O 	O 	0.50073	0.14788	0.47194	-0.317
Mof_O 	O 	0.49927	0.85212	0.52806	-0.304
_end
