data_functionalizedCrystal
_audit_creation_method	'EQeq! by Chris Wilmer'
_symmetry_space_group_name_H-M	'P1'
_symmetry_Int_Tables_number	1
_symmetry_cell_setting	triclinic
loop_
_symmetry_equiv_pos_as_xyz
  x,y,z
_cell_length_a	21.1634
_cell_length_b	29.3518
_cell_length_c	29.3518
_cell_angle_alpha	120
_cell_angle_beta	90
_cell_angle_gamma	90
loop_
_atom_site_label
_atom_site_type_symbol
_atom_site_fract_x
_atom_site_fract_y
_atom_site_fract_z
_atom_site_charge
Mof_Y 	Y 	0.5	0.4908	0.7454	8.502
Mof_Y 	Y 	0.4087	0.37674	0.75348	11.151
Mof_Y 	Y 	0.4087	0.75348	0.37674	0.692
Mof_Y 	Y 	0.90878	0.28977	0.57954	2.085
Mof_Y 	Y 	0.5913	0.37674	0.75348	0.812
Mof_Y 	Y 	0.5	0.07884	0.92116	5.508
Mof_Y 	Y 	0.90878	0.71023	0.28978	1.518
Mof_Y 	Y 	0.4087	0.24652	0.62326	0.662
Mof_Y 	Y 	0.5913	0.75348	0.37674	7.344
Mof_Y 	Y 	1.91843e-32	0.41204	0.82408	2.396
Mof_Y 	Y 	0.5	0.7454	0.2546	9.909
Mof_Y 	Y 	0.4087	0.37674	0.62326	-1.396
Mof_Y 	Y 	0.7421	0.66667	0.33334	2.97
Mof_Y 	Y 	0.2579	0.33333	0.66666	2.823
Mof_Y 	Y 	-6.39477e-33	0.41204	0.58796	2.079
Mof_Y 	Y 	1.43882e-32	0.58796	0.17592	2.605
Mof_Y 	Y 	9.59215e-33	0.82408	0.41204	2.418
Mof_Y 	Y 	1.91843e-32	0.17592	0.58796	2.076
Mof_Y 	Y 	0.4087	0.62326	0.37674	-1.389
Mof_Y 	Y 	0.5	0.15768	0.07884	3.832
Mof_Y 	Y 	0.90878	0.57955	0.28978	1.561
Mof_Y 	Y 	0.90878	0.28977	0.71022	1.671
Mof_Y 	Y 	0.09122	0.28977	0.57954	1.502
Mof_Y 	Y 	0.5	0.2546	0.7454	10.627
Mof_Y 	Y 	0.09122	0.71023	0.42046	1.525
Mof_Y 	Y 	0.90878	0.42045	0.71022	1.722
Mof_Y 	Y 	0.5	0.5092	0.2546	9.263
Mof_Y 	Y 	0.5	0.2546	0.5092	6.017
Mof_Y 	Y 	0.7421	0.33333	0.66666	2.979
Mof_Y 	Y 	0.5	0.92116	0.84232	3.495
Mof_Y 	Y 	0.5913	0.62326	0.37674	7.492
Mof_Y 	Y 	0.4087	0.62326	0.24652	11.117
Mof_Y 	Y 	0.2579	0.66667	0.33334	2.823
Mof_Y 	Y 	0.5	0.92116	0.07884	5.311
Mof_Y 	Y 	3.19738e-33	0.58796	0.41204	2.172
Mof_Y 	Y 	0.09122	0.71023	0.28978	2.015
Mof_Y 	Y 	0.5	0.84232	0.92116	4.734
Mof_Y 	Y 	0.5913	0.37674	0.62326	7.483
Mof_Y 	Y 	0.5	0.07884	0.15768	2.364
Mof_Y 	Y 	0.5	0.7454	0.4908	5.991
Mof_Y 	Y 	0.09122	0.42045	0.71022	1.947
Mof_Y 	Y 	0.90878	0.71023	0.42046	1.985
Mof_Y 	Y 	0.5913	0.62326	0.24652	0.774
Mof_Y 	Y 	0.5913	0.24652	0.62326	7.313
Mof_Y 	Y 	0.09122	0.28977	0.71022	1.983
Mof_Y 	Y 	0.09122	0.57955	0.28978	1.926
Mof_H 	H 	0.7695	0.276	0.0537	5.439
Mof_H 	H 	0.1995	0.7304	0.1715	5.89
Mof_H 	H 	0.6486	0.3271	0.0369	-73.698
Mof_H 	H 	0.3921	0.7298	0.7777	86.579
Mof_H 	H 	0.2467	0.8929	0.2544	3.253
Mof_H 	H 	0.7533	0.7456	0.1071	4.972
Mof_H 	H 	0.2216	0.3479	0.2405	-4.947
Mof_H 	H 	0.2072	0.2087	0.2583	-103.735
Mof_H 	H 	0.7142	0.637	0.6487	-499.256
Mof_H 	H 	0.7784	0.1074	0.3479	2.658
Mof_H 	H 	0.0816	0.4421	0.0564	-53.306
Mof_H 	H 	0.7142	0.0117	0.363	-438.743
Mof_H 	H 	0.103	0.3937	0.9419	57.073
Mof_H 	H 	0.2671	0.4227	0.9824	233.072
Mof_H 	H 	0.6079	0.2702	0.2223	-135.638
Mof_H 	H 	0.3514	0.6729	0.7098	-187.843
Mof_H 	H 	0.0816	0.9436	0.3857	4.975
Mof_H 	H 	0.6486	0.3271	0.2902	283.274
Mof_H 	H 	0.3982	0.8852	0.2771	-16.562
Mof_H 	H 	0.7142	0.363	0.0117	127.716
Mof_H 	H 	0.2994	0.84	0.7868	84.826
Mof_H 	H 	0.3514	0.3271	0.0369	504.019
Mof_H 	H 	0.897	0.3937	0.4518	31.94
Mof_H 	H 	0.7928	0.2583	0.0496	-46.486
Mof_H 	H 	0.6079	0.7777	0.7298	-137.281
Mof_H 	H 	0.1763	0.7417	0.5716	1.206
Mof_H 	H 	0.3139	0.0955	0.5904	-44.497
Mof_H 	H 	0.8237	0.2583	0.4284	-4.096
Mof_H 	H 	0.6544	0.7051	0.0445	31.228
Mof_H 	H 	0.6817	0.0491	0.3306	121.193
Mof_H 	H 	0.7006	0.84	0.0532	34.982
Mof_H 	H 	0.7928	0.2087	0.9504	-46.582
Mof_H 	H 	0.1995	0.5589	0.7304	-0.23
Mof_H 	H 	0.9184	0.4421	0.3857	-30.393
Mof_H 	H 	0.3183	0.9509	0.2815	-23.529
Mof_H 	H 	0.5897	0.721	0.7745	143.83
Mof_H 	H 	0.7142	0.0117	0.6487	-522.547
Mof_H 	H 	0.6079	0.7298	0.9521	26.288
Mof_H 	H 	0.4103	0.7745	0.0535	238.228
Mof_H 	H 	0.1763	0.4284	0.1701	-5.371
Mof_H 	H 	0.6079	0.0479	0.7777	-148.331
Mof_H 	H 	0.7695	0.276	0.2223	-12.896
Mof_H 	H 	0.4103	0.721	0.7745	-94.22
Mof_H 	H 	0.103	0.9419	0.5482	-10.484
Mof_H 	H 	0.2216	0.6521	0.7595	-4.769
Mof_H 	H 	0.8237	0.8299	0.5716	-4.309
Mof_H 	H 	0.3456	0.0445	0.7051	43.586
Mof_H 	H 	0.3982	0.2771	0.3919	-59.649
Mof_H 	H 	0.897	0.0581	0.4518	28.264
Mof_H 	H 	0.2671	0.4403	0.4227	-83.554
Mof_H 	H 	0.2994	0.7868	0.84	88.359
Mof_H 	H 	0.6018	0.3919	0.1148	-24.333
Mof_H 	H 	0.3982	0.6081	0.8852	145.449
Mof_H 	H 	0.7006	0.9468	0.7868	-135.94
Mof_H 	H 	0.7006	0.7868	0.9468	35.535
Mof_H 	H 	0.6018	0.6081	0.7229	89.134
Mof_H 	H 	0.2216	0.8926	0.6521	-1.821
Mof_H 	H 	0.3921	0.7777	0.7298	87.893
Mof_H 	H 	0.6486	0.0369	0.7098	300.763
Mof_H 	H 	0.8005	0.1715	0.4411	4.202
Mof_H 	H 	0.2216	0.8926	0.2405	-2.845
Mof_H 	H 	0.3139	0.9045	0.4096	-28.478
Mof_H 	H 	0.7006	0.0532	0.2132	-112.184
Mof_H 	H 	0.7784	0.2405	0.3479	2.867
Mof_H 	H 	0.3139	0.5051	0.0955	226.142
Mof_H 	H 	0.3183	0.9509	0.6694	-47.903
Mof_H 	H 	0.6861	0.5051	0.4096	129.104
Mof_H 	H 	0.897	0.0581	0.6063	33.497
Mof_H 	H 	0.3514	0.6729	0.9631	458.222
Mof_H 	H 	0.2305	0.9463	0.724	3.832
Mof_H 	H 	0.7784	0.2405	0.8926	-3.226
Mof_H 	H 	0.2858	0.0117	0.363	87.189
Mof_H 	H 	0.103	0.6063	0.5482	-20.558
Mof_H 	H 	0.7928	0.2087	0.2583	161.472
Mof_H 	H 	0.1995	0.8285	0.5589	0.235
Mof_H 	H 	0.6018	0.1148	0.3919	78.76
Mof_H 	H 	0.4103	0.279	0.2255	-91.846
Mof_H 	H 	0.0816	0.0564	0.6143	9.799
Mof_H 	H 	0.2994	0.2132	0.0532	-237.516
Mof_H 	H 	0.2305	0.7777	0.724	9.674
Mof_H 	H 	0.0816	0.0564	0.4421	5.103
Mof_H 	H 	0.2858	0.6487	0.0117	-798.06
Mof_H 	H 	0.7006	0.9468	0.16	-118.618
Mof_H 	H 	0.7928	0.0496	0.7913	170.066
Mof_H 	H 	0.1763	0.2583	0.8299	-6.023
Mof_H 	H 	0.1763	0.8299	0.5716	-0.144
Mof_H 	H 	0.4103	0.2255	0.9465	263.62
Mof_H 	H 	0.6861	0.4949	0.5904	129.574
Mof_H 	H 	0.103	0.5482	0.9419	51.676
Mof_H 	H 	0.8237	0.7417	0.5716	-4.08
Mof_H 	H 	0.2467	0.7456	0.6385	10.544
Mof_H 	H 	0.3514	0.2902	0.3271	-181.539
Mof_H 	H 	0.4103	0.7745	0.721	-95.002
Mof_H 	H 	0.6817	0.2815	0.9509	-34.289
Mof_H 	H 	0.8237	0.4284	0.1701	-1.497
Mof_H 	H 	0.3921	0.2223	0.9521	-252.279
Mof_H 	H 	0.6486	0.6729	0.9631	-75.37
Mof_H 	H 	0.5897	0.279	0.0535	-31.155
Mof_H 	H 	0.7695	0.0537	0.276	-11.065
Mof_H 	H 	0.3456	0.9555	0.2949	20.391
Mof_H 	H 	0.2777	0.8038	0.85	-95.735
Mof_H 	H 	0.7223	0.0462	0.85	149.031
Mof_H 	H 	0.103	0.4518	0.3937	-19.651
Mof_H 	H 	0.2305	0.724	0.7777	5.38
Mof_H 	H 	0.1763	0.2583	0.4284	1
Mof_H 	H 	0.7006	0.16	0.2132	-134.291
Mof_H 	H 	0.7533	0.7456	0.6385	-14.855
Mof_H 	H 	0.6486	0.2902	0.9631	-73.662
Mof_H 	H 	0.4103	0.279	0.0535	264.872
Mof_H 	H 	0.2994	0.16	0.2132	82.598
Mof_H 	H 	0.6018	0.8852	0.2771	79.429
Mof_H 	H 	0.2072	0.7913	0.0496	253.769
Mof_H 	H 	0.1763	0.5716	0.8299	-5.585
Mof_H 	H 	0.3139	0.5051	0.4096	-85.941
Mof_H 	H 	0.7784	0.3479	0.1074	-3.025
Mof_H 	H 	0.2994	0.84	0.0532	-205.032
Mof_H 	H 	0.6018	0.2771	0.3919	90.781
Mof_H 	H 	0.3456	0.0445	0.3394	18.218
Mof_H 	H 	0.7142	0.6487	0.0117	130.774
Mof_H 	H 	0.3514	0.2902	0.9631	501.382
Mof_H 	H 	0.8005	0.1715	0.7304	3.555
Mof_H 	H 	0.5897	0.0535	0.7745	155.8
Mof_H 	H 	0.3982	0.6081	0.7229	-60.88
Mof_H 	H 	0.0816	0.5579	0.6143	19.104
Mof_H 	H 	0.6486	0.7098	0.6729	286.581
Mof_H 	H 	0.7006	0.16	0.9468	34.776
Mof_H 	H 	0.6861	0.4949	0.9045	-36.204
Mof_H 	H 	0.2994	0.0532	0.84	45.034
Mof_H 	H 	0.103	0.6063	0.0581	51.606
Mof_H 	H 	0.897	0.9419	0.5482	33.985
Mof_H 	H 	0.897	0.4518	0.3937	32.105
Mof_H 	H 	0.897	0.4518	0.0581	-7.734
Mof_H 	H 	0.6817	0.3306	0.0491	-33.124
Mof_H 	H 	0.2305	0.2223	0.276	9.487
Mof_H 	H 	0.7695	0.7777	0.724	-7.614
Mof_H 	H 	0.2858	0.637	0.9883	-791.316
Mof_H 	H 	0.7223	0.9538	0.8038	145.479
Mof_H 	H 	0.7223	0.15	0.1962	141.049
Mof_H 	H 	0.897	0.9419	0.3937	28.581
Mof_H 	H 	0.3183	0.7185	0.0491	220.118
Mof_H 	H 	0.6817	0.9509	0.2815	122.566
Mof_H 	H 	0.2858	0.6487	0.637	327.201
Mof_H 	H 	0.3921	0.7298	0.9521	-227.885
Mof_H 	H 	0.6018	0.1148	0.7229	95.245
Mof_H 	H 	0.2671	0.5773	0.5597	-86.158
Mof_H 	H 	0.8237	0.2583	0.8299	-1.828
Mof_H 	H 	0.1995	0.5589	0.8285	5.694
Mof_H 	H 	0.103	0.5482	0.6063	-20.168
Mof_H 	H 	0.7533	0.2544	0.3615	-14.685
Mof_H 	H 	0.2671	0.9824	0.5597	-44.944
Mof_H 	H 	0.3921	0.9521	0.2223	16.148
Mof_H 	H 	0.9184	0.5579	0.9436	7.439
Mof_H 	H 	0.2994	0.0532	0.2132	24.975
Mof_H 	H 	0.103	0.3937	0.4518	-20.042
Mof_H 	H 	0.6544	0.6606	0.9555	29.98
Mof_H 	H 	0.2072	0.0496	0.2583	-31.493
Mof_H 	H 	0.2467	0.6385	0.8929	-23.745
Mof_H 	H 	0.103	0.0581	0.4518	-5.654
Mof_H 	H 	0.6079	0.9521	0.7298	-148.733
Mof_H 	H 	0.9184	0.6143	0.5579	-30.269
Mof_H 	H 	0.2467	0.7456	0.1071	-23.577
Mof_H 	H 	0.2467	0.1071	0.7456	5.982
Mof_H 	H 	0.2305	0.9463	0.2223	3.561
Mof_H 	H 	0.6018	0.3919	0.2771	88.733
Mof_H 	H 	0.897	0.3937	0.9419	-7.262
Mof_H 	H 	0.6079	0.2223	0.9521	24.022
Mof_H 	H 	0.7928	0.9504	0.2087	141.866
Mof_H 	H 	0.8237	0.5716	0.8299	-1.537
Mof_H 	H 	0.6486	0.2902	0.3271	285.108
Mof_H 	H 	0.7142	0.637	0.9883	131.91
Mof_H 	H 	0.6861	0.5051	0.0955	-36.16
Mof_H 	H 	0.2994	0.9468	0.16	21.632
Mof_H 	H 	0.2305	0.0537	0.7777	5.445
Mof_H 	H 	0.7784	0.7595	0.6521	2.834
Mof_H 	H 	0.2671	0.4227	0.4403	-83.655
Mof_H 	H 	0.2994	0.9468	0.7868	47.251
Mof_H 	H 	0.6079	0.7298	0.7777	-136.004
Mof_H 	H 	0.2671	0.5773	0.0176	209.607
Mof_H 	H 	0.0816	0.6143	0.5579	19.513
Mof_H 	H 	0.7784	0.8926	0.6521	3.678
Mof_H 	H 	0.7533	0.8929	0.2544	-12.335
Mof_H 	H 	0.2216	0.2405	0.8926	8.474
Mof_H 	H 	0.2072	0.9504	0.7417	-58.936
Mof_H 	H 	0.7928	0.7417	0.9504	-47.037
Mof_H 	H 	0.2305	0.724	0.9463	-11.209
Mof_H 	H 	0.2467	0.2544	0.3615	10.366
Mof_H 	H 	0.7533	0.3615	0.2544	-14.375
Mof_H 	H 	0.2216	0.2405	0.3479	-3.595
Mof_H 	H 	0.6861	0.4096	0.5051	129.115
Mof_H 	H 	0.3982	0.1148	0.3919	-18.762
Mof_H 	H 	0.5897	0.7745	0.0535	-32.974
Mof_H 	H 	0.7329	0.0176	0.4403	114.64
Mof_H 	H 	0.2777	0.9538	0.8038	-50.665
Mof_H 	H 	0.6486	0.9631	0.2902	252.023
Mof_H 	H 	0.2305	0.0537	0.276	3.493
Mof_H 	H 	0.2216	0.7595	0.1074	7.472
Mof_H 	H 	0.3139	0.4949	0.9045	211.734
Mof_H 	H 	0.0816	0.6143	0.0564	-48.877
Mof_H 	H 	0.3139	0.4949	0.5904	-87.642
Mof_H 	H 	0.3139	0.4096	0.5051	-85.817
Mof_H 	H 	0.1763	0.7417	0.1701	-5.937
Mof_H 	H 	0.8005	0.5589	0.7304	3.663
Mof_H 	H 	0.3139	0.4096	0.9045	226.484
Mof_H 	H 	0.7928	0.2583	0.2087	158.138
Mof_H 	H 	0.6817	0.3306	0.2815	136.301
Mof_H 	H 	0.6018	0.7229	0.1148	-24.921
Mof_H 	H 	0.2777	0.15	0.9538	246.242
Mof_H 	H 	0.7329	0.5773	0.0176	-35.527
Mof_H 	H 	0.2994	0.16	0.9468	-227.334
Mof_H 	H 	0.7695	0.9463	0.2223	-5.959
Mof_H 	H 	0.9184	0.4421	0.0564	7.114
Mof_H 	H 	0.6544	0.6606	0.7051	-124.42
Mof_H 	H 	0.3183	0.6694	0.7185	-90.487
Mof_H 	H 	0.2216	0.7595	0.6521	-3.426
Mof_H 	H 	0.3982	0.3919	0.2771	-58.982
Mof_H 	H 	0.2467	0.2544	0.8929	-26.141
Mof_H 	H 	0.103	0.9419	0.3937	-4.929
Mof_H 	H 	0.3183	0.3306	0.0491	246.815
Mof_H 	H 	0.4103	0.9465	0.721	-47.902
Mof_H 	H 	0.2671	0.9824	0.4227	-22.287
Mof_H 	H 	0.3921	0.9521	0.7298	42.512
Mof_H 	H 	0.6861	0.4096	0.9045	-35.658
Mof_H 	H 	0.2072	0.2583	0.0496	286.367
Mof_H 	H 	0.7142	0.363	0.3513	-496.654
Mof_H 	H 	0.6861	0.5904	0.4949	129.577
Mof_H 	H 	0.7223	0.1962	0.15	138.281
Mof_H 	H 	0.3514	0.9631	0.6729	-99.511
Mof_H 	H 	0.2858	0.0117	0.6487	173.671
Mof_H 	H 	0.3183	0.0491	0.3306	-23.642
Mof_H 	H 	0.2072	0.9504	0.2087	-30.619
Mof_H 	H 	0.8005	0.7304	0.1715	1.191
Mof_H 	H 	0.6544	0.2949	0.9555	29.167
Mof_H 	H 	0.7533	0.1071	0.3615	-12.449
Mof_H 	H 	0.3183	0.2815	0.3306	-86.608
Mof_H 	H 	0.0816	0.9436	0.5579	10.24
Mof_H 	H 	0.7784	0.6521	0.8926	-3.07
Mof_H 	H 	0.7533	0.2544	0.8929	5.318
Mof_H 	H 	0.1995	0.1715	0.4411	-0.229
Mof_H 	H 	0.3183	0.6694	0.9509	223.372
Mof_H 	H 	0.3183	0.2815	0.9509	242.102
Mof_H 	H 	0.1763	0.1701	0.4284	0.24
Mof_H 	H 	0.7928	0.9504	0.7417	166.531
Mof_H 	H 	0.6486	0.7098	0.0369	-75.363
Mof_H 	H 	0.0816	0.3857	0.4421	19.016
Mof_H 	H 	0.6079	0.9521	0.2223	-124.428
Mof_H 	H 	0.7533	0.6385	0.8929	5.272
Mof_H 	H 	0.7784	0.1074	0.7595	4.334
Mof_H 	H 	0.2467	0.3615	0.1071	-26.76
Mof_H 	H 	0.3921	0.0479	0.7777	40.329
Mof_H 	H 	0.8237	0.8299	0.2583	-4.04
Mof_H 	H 	0.7223	0.15	0.9538	-39.882
Mof_H 	H 	0.6544	0.0445	0.7051	-126.739
Mof_H 	H 	0.3514	0.0369	0.7098	-99.18
Mof_H 	H 	0.6486	0.9631	0.6729	299.433
Mof_H 	H 	0.6861	0.0955	0.5051	116.8
Mof_H 	H 	0.2777	0.9538	0.15	-26.687
Mof_H 	H 	0.3456	0.7051	0.0445	-196.734
Mof_H 	H 	0.7533	0.1071	0.7456	-15.674
Mof_H 	H 	0.7533	0.3615	0.1071	4.966
Mof_H 	H 	0.3982	0.7229	0.6081	-61.491
Mof_H 	H 	0.6079	0.7777	0.0479	26.21
Mof_H 	H 	0.8005	0.5589	0.8285	1.366
Mof_H 	H 	0.4103	0.9465	0.2255	-20.225
Mof_H 	H 	0.3183	0.0491	0.7185	-46.28
Mof_H 	H 	0.8237	0.4284	0.2583	-3.855
Mof_H 	H 	0.7223	0.8038	0.85	139.08
Mof_H 	H 	0.5897	0.721	0.9465	-32.877
Mof_H 	H 	0.897	0.5482	0.6063	32.186
Mof_H 	H 	0.9184	0.5579	0.6143	-30.462
Mof_H 	H 	0.4103	0.721	0.9465	239.603
Mof_H 	H 	0.2072	0.7417	0.9504	260.322
Mof_H 	H 	0.6544	0.7051	0.6606	-118.859
Mof_H 	H 	0.7533	0.6385	0.7456	-14.532
Mof_H 	H 	0.2858	0.9883	0.637	173.911
Mof_H 	H 	0.8005	0.8285	0.2696	4.054
Mof_H 	H 	0.7329	0.4227	0.4403	130.785
Mof_H 	H 	0.8237	0.7417	0.1701	-1.383
Mof_H 	H 	0.3982	0.1148	0.7229	-31.94
Mof_H 	H 	0.6817	0.9509	0.6694	144.396
Mof_H 	H 	0.7329	0.4227	0.9824	-32.82
Mof_H 	H 	0.2858	0.3513	0.9883	-878.056
Mof_H 	H 	0.3139	0.0955	0.5051	-28.905
Mof_H 	H 	0.9184	0.3857	0.9436	7.202
Mof_H 	H 	0.7223	0.0462	0.1962	120.221
Mof_H 	H 	0.7784	0.6521	0.7595	4.587
Mof_H 	H 	0.5897	0.279	0.2255	143.43
Mof_H 	H 	0.6079	0.2702	0.0479	23.906
Mof_H 	H 	0.7329	0.5597	0.9824	-33.654
Mof_H 	H 	0.1995	0.1715	0.7304	1.107
Mof_H 	H 	0.3982	0.7229	0.1148	143.483
Mof_H 	H 	0.6817	0.7185	0.6694	139.524
Mof_H 	H 	0.6817	0.0491	0.7185	147.254
Mof_H 	H 	0.2858	0.363	0.3513	316.162
Mof_H 	H 	0.2305	0.7777	0.0537	-20.342
Mof_H 	H 	0.7928	0.7913	0.7417	162.322
Mof_H 	H 	0.9184	0.3857	0.4421	-30.129
Mof_H 	H 	0.6079	0.2223	0.2702	-136.769
Mof_H 	H 	0.7329	0.5597	0.5773	131.892
Mof_H 	H 	0.7784	0.3479	0.2405	4.452
Mof_H 	H 	0.8005	0.2696	0.4411	3.993
Mof_H 	H 	0.0816	0.4421	0.3857	18.609
Mof_H 	H 	0.3982	0.8852	0.6081	-34.239
Mof_H 	H 	0.2858	0.9883	0.3513	90.309
Mof_H 	H 	0.6861	0.9045	0.4949	133.077
Mof_H 	H 	0.7223	0.85	0.0462	-40.302
Mof_H 	H 	0.7928	0.7913	0.0496	-46.805
Mof_H 	H 	0.8237	0.1701	0.4284	-4.362
Mof_H 	H 	0.7695	0.7777	0.0537	5.27
Mof_H 	H 	0.7006	0.84	0.7868	-135.093
Mof_H 	H 	0.7329	0.5773	0.5597	131.475
Mof_H 	H 	0.3921	0.2702	0.2223	84.328
Mof_H 	H 	0.4103	0.0535	0.7745	-45.989
Mof_H 	H 	0.6817	0.6694	0.9509	-35.288
Mof_H 	H 	0.2777	0.1962	0.0462	251.466
Mof_H 	H 	0.3514	0.3271	0.2902	-182.53
Mof_H 	H 	0.2216	0.1074	0.3479	-0.493
Mof_H 	H 	0.7329	0.4403	0.0176	-34.78
Mof_H 	H 	0.7223	0.8038	0.9538	-40.43
Mof_H 	H 	0.3456	0.2949	0.9555	-218.993
Mof_H 	H 	0.3514	0.9631	0.2902	-50.812
Mof_H 	H 	0.3514	0.0369	0.3271	-51.727
Mof_H 	H 	0.7142	0.3513	0.9883	129.006
Mof_H 	H 	0.897	0.6063	0.5482	32.091
Mof_H 	H 	0.2858	0.363	0.0117	-874.252
Mof_H 	H 	0.6861	0.5904	0.0955	-36.684
Mof_H 	H 	0.2305	0.276	0.2223	5.3
Mof_H 	H 	0.6486	0.0369	0.3271	250.167
Mof_H 	H 	0.7329	0.9824	0.4227	116.1
Mof_H 	H 	0.2777	0.0462	0.1962	-27.19
Mof_H 	H 	0.7329	0.4403	0.4227	131.189
Mof_H 	H 	0.1763	0.4284	0.2583	-0.239
Mof_H 	H 	0.897	0.6063	0.0581	-7.866
Mof_H 	H 	0.2305	0.276	0.0537	-11.467
Mof_H 	H 	0.8237	0.1701	0.7417	-3.608
Mof_H 	H 	0.5897	0.7745	0.721	145.731
Mof_H 	H 	0.2671	0.5597	0.5773	-86.051
Mof_H 	H 	0.6544	0.3394	0.0445	30.383
Mof_H 	H 	0.8005	0.8285	0.5589	4.124
Mof_H 	H 	0.3456	0.9555	0.6606	40.414
Mof_H 	H 	0.7006	0.2132	0.0532	34.359
Mof_H 	H 	0.1995	0.8285	0.2696	0.981
Mof_H 	H 	0.2467	0.6385	0.7456	10.577
Mof_H 	H 	0.6544	0.2949	0.3394	-118.251
Mof_H 	H 	0.7695	0.9463	0.724	-13.204
Mof_H 	H 	0.2072	0.0496	0.7913	-59.042
Mof_H 	H 	0.3921	0.0479	0.2702	17.944
Mof_H 	H 	0.3139	0.5904	0.0955	211.177
Mof_H 	H 	0.103	0.0581	0.6063	-10.496
Mof_H 	H 	0.1763	0.5716	0.7417	-0.021
Mof_H 	H 	0.6018	0.7229	0.6081	91.357
Mof_H 	H 	0.9184	0.9436	0.3857	-26.705
Mof_H 	H 	0.4103	0.2255	0.279	-92.645
Mof_H 	H 	0.7695	0.724	0.9463	3.434
Mof_H 	H 	0.5897	0.9465	0.721	155.873
Mof_H 	H 	0.897	0.5482	0.9419	-7.515
Mof_H 	H 	0.2072	0.2583	0.2087	-106.603
Mof_H 	H 	0.2671	0.5597	0.9824	210.597
Mof_H 	H 	0.3921	0.7777	0.0479	-227.873
Mof_H 	H 	0.1995	0.4411	0.1715	5.4
Mof_H 	H 	0.7006	0.2132	0.16	-127.357
Mof_H 	H 	0.3921	0.2702	0.0479	-252.715
Mof_H 	H 	0.7695	0.0537	0.7777	-6.587
Mof_H 	H 	0.8005	0.7304	0.5589	3.948
Mof_H 	H 	0.9184	0.9436	0.5579	-31.951
Mof_H 	H 	0.7784	0.7595	0.1074	-2.894
Mof_H 	H 	0.2777	0.85	0.8038	-92.508
Mof_H 	H 	0.7223	0.9538	0.15	124.838
Mof_H 	H 	0.3183	0.3306	0.2815	-87.884
Mof_H 	H 	0.0816	0.5579	0.9436	-48.419
Mof_H 	H 	0.7006	0.0532	0.84	-141.343
Mof_H 	H 	0.7142	0.9883	0.3513	-434.273
Mof_H 	H 	0.3456	0.7051	0.6606	79.1
Mof_H 	H 	0.8005	0.4411	0.1715	1.29
Mof_H 	H 	0.2305	0.2223	0.9463	-21.932
Mof_H 	H 	0.1763	0.1701	0.7417	-1.389
Mof_H 	H 	0.7223	0.1962	0.0462	-39.991
Mof_H 	H 	0.3982	0.2771	0.8852	158.237
Mof_H 	H 	0.2072	0.7417	0.7913	-109.22
Mof_H 	H 	0.2072	0.2087	0.9504	280.586
Mof_H 	H 	0.9184	0.0564	0.6143	-31.853
Mof_H 	H 	0.3514	0.7098	0.0369	455.097
Mof_H 	H 	0.6544	0.0445	0.3394	-107.62
Mof_H 	H 	0.7784	0.8926	0.2405	2.978
Mof_H 	H 	0.2671	0.0176	0.4403	-23.92
Mof_H 	H 	0.5897	0.2255	0.279	145.197
Mof_H 	H 	0.7223	0.85	0.8038	141.763
Mof_H 	H 	0.7142	0.3513	0.363	-493.161
Mof_H 	H 	0.5897	0.9465	0.2255	130.87
Mof_H 	H 	0.3456	0.6606	0.9555	-189.314
Mof_H 	H 	0.0816	0.3857	0.9436	-53.726
Mof_H 	H 	0.3514	0.7098	0.6729	-186.825
Mof_H 	H 	0.1995	0.7304	0.5589	-1.153
Mof_H 	H 	0.3183	0.7185	0.6694	-89.165
Mof_H 	H 	0.6861	0.9045	0.4096	117.386
Mof_H 	H 	0.2216	0.6521	0.8926	6.746
Mof_H 	H 	0.3982	0.3919	0.1148	160.305
Mof_H 	H 	0.7695	0.2223	0.276	-7.476
Mof_H 	H 	0.7142	0.6487	0.637	-495.714
Mof_H 	H 	0.7928	0.7417	0.7913	159.03
Mof_H 	H 	0.2777	0.15	0.1962	-90.409
Mof_H 	H 	0.6544	0.3394	0.2949	-123.672
Mof_H 	H 	0.1995	0.4411	0.2696	-0.061
Mof_H 	H 	0.7006	0.7868	0.84	-128.079
Mof_H 	H 	0.2467	0.1071	0.3615	3.169
Mof_H 	H 	0.2216	0.3479	0.1074	7.889
Mof_H 	H 	0.6486	0.6729	0.7098	284.73
Mof_H 	H 	0.2994	0.2132	0.16	86.011
Mof_H 	H 	0.1995	0.2696	0.4411	-0.992
Mof_H 	H 	0.2072	0.7913	0.7417	-106.284
Mof_H 	H 	0.1995	0.2696	0.8285	5.966
Mof_H 	H 	0.2777	0.1962	0.15	-93.56
Mof_H 	H 	0.3456	0.3394	0.0445	-210.642
Mof_H 	H 	0.6544	0.9555	0.6606	-131.194
Mof_H 	H 	0.3139	0.9045	0.4949	-43.917
Mof_H 	H 	0.2777	0.8038	0.9538	229.043
Mof_H 	H 	0.8005	0.2696	0.8285	1.613
Mof_H 	H 	0.3456	0.2949	0.3394	76.594
Mof_H 	H 	0.7329	0.0176	0.5773	137.703
Mof_H 	H 	0.5897	0.0535	0.279	130.674
Mof_H 	H 	0.7695	0.2223	0.9463	3.591
Mof_H 	H 	0.2671	0.0176	0.5773	-46.938
Mof_H 	H 	0.7695	0.724	0.7777	-13.013
Mof_H 	H 	0.4103	0.0535	0.279	-22.333
Mof_H 	H 	0.6018	0.8852	0.6081	94.583
Mof_H 	H 	0.3921	0.2223	0.2702	85.661
Mof_H 	H 	0.3456	0.6606	0.7051	77.102
Mof_H 	H 	0.2994	0.7868	0.9468	-216.183
Mof_H 	H 	0.9184	0.0564	0.4421	-26.909
Mof_H 	H 	0.6018	0.2771	0.8852	-24.448
Mof_H 	H 	0.7928	0.0496	0.2583	137.562
Mof_H 	H 	0.6817	0.7185	0.0491	-34.168
Mof_H 	H 	0.2858	0.637	0.6487	325.505
Mof_H 	H 	0.6018	0.6081	0.8852	-25.099
Mof_H 	H 	0.6861	0.0955	0.5904	132.733
Mof_H 	H 	0.2777	0.0462	0.85	-51.474
Mof_H 	H 	0.1763	0.8299	0.2583	-1.248
Mof_H 	H 	0.3456	0.3394	0.2949	74.692
Mof_H 	H 	0.7142	0.9883	0.637	-523.895
Mof_H 	H 	0.7329	0.9824	0.5597	139.601
Mof_H 	H 	0.2777	0.85	0.0462	222.683
Mof_H 	H 	0.7533	0.8929	0.6385	-15.305
Mof_H 	H 	0.2671	0.4403	0.0176	230.872
Mof_H 	H 	0.2467	0.3615	0.2544	10.394
Mof_H 	H 	0.2467	0.8929	0.6385	6.461
Mof_H 	H 	0.2216	0.1074	0.7595	-3.935
Mof_H 	H 	0.6817	0.2815	0.3306	138.804
Mof_H 	H 	0.8237	0.5716	0.7417	-3.682
Mof_H 	H 	0.5897	0.2255	0.9465	-31.108
Mof_H 	H 	0.9184	0.6143	0.0564	7.252
Mof_H 	H 	0.103	0.4518	0.0581	56.347
Mof_H 	H 	0.2858	0.3513	0.363	317.801
Mof_H 	H 	0.6544	0.9555	0.2949	-104.062
Mof_H 	H 	0.3139	0.5904	0.4949	-87.517
Mof_H 	H 	0.6817	0.6694	0.7185	136.989
Mof_H 	H 	0.6079	0.0479	0.2702	-125.126
Mof_H 	H 	0.8005	0.4411	0.2696	3.819
Mof_C 	C 	0.1704	0.0292	0.6354	25.368
Mof_C 	C 	0.1459	0.3807	0.3518	-47.568
Mof_C 	C 	0.665	0.3031	0.0266	17.063
Mof_C 	C 	0.8518	0.8796	0.3336	-21.69
Mof_C 	C 	0.7193	0.0031	0.2897	-205.945
Mof_C 	C 	0.6898	0.2939	0.2642	-130.121
Mof_C 	C 	0.678	0.469	0.3854	149.854
Mof_C 	C 	0.3831	0.8352	0.8376	-11.074
Mof_C 	C 	0.8732	0.1194	0.4437	27.878
Mof_C 	C 	0.3403	0.2019	0.2047	48.618
Mof_C 	C 	0.665	0.2765	0.9734	19.541
Mof_C 	C 	0.322	0.469	0.0836	266.285
Mof_C 	C 	0.8541	0.0289	0.6482	72.31
Mof_C 	C 	0.211	0.3666	0.322	-52.2
Mof_C 	C 	0.1907	0.8647	0.5722	-1.195
Mof_C 	C 	0.8152	0.0447	0.6925	-69.521
Mof_C 	C 	0.1118	0.3384	0.5002	4.52
Mof_C 	C 	0.3102	0.7061	0.7358	85.031
Mof_C 	C 	0.3076	0.7714	0.8034	-257.446
Mof_C 	C 	0.294	0.9621	0.569	155.497
Mof_C 	C 	0.1848	0.3075	0.9553	-114.228
Mof_C 	C 	0.2555	0.2745	0.0008	1058.51
Mof_C 	C 	0.1704	0.0292	0.3938	11.861
Mof_C 	C 	0.7445	0.2737	0.9992	-158.069
Mof_C 	C 	0.1482	0.3336	0.8796	-40.344
Mof_C 	C 	0.6924	0.2286	0.1966	377.98
Mof_C 	C 	0.6597	0.2047	0.0028	15.028
Mof_C 	C 	0.607	0.508	0.671	37.91
Mof_C 	C 	0.1907	0.1353	0.4278	-0.213
Mof_C 	C 	0.294	0.3931	0.431	283.596
Mof_C 	C 	0.3102	0.7358	0.0297	-210.993
Mof_C 	C 	0.4018	0.1758	0.003	60.193
Mof_C 	C 	0.3716	0.3067	0.905	271.65
Mof_C 	C 	0.1962	0.6321	0.9029	-42.78
Mof_C 	C 	0.1848	0.6478	0.6925	41.976
Mof_C 	C 	0.7559	0.2213	0.9716	142.097
Mof_C 	C 	0.6898	0.2642	0.9703	28.659
Mof_C 	C 	0.789	0.6334	0.678	83.816
Mof_C 	C 	0.7193	0.7103	0.9969	66.675
Mof_C 	C 	0.1459	0.3807	0.0289	122.741
Mof_C 	C 	0.8296	0.3938	0.3646	-60.523
Mof_C 	C 	0.1118	0.5002	0.1618	-14.23
Mof_C 	C 	0.1124	0.4253	0.0665	35.162
Mof_C 	C 	0.1677	0.7188	0.1338	5.897
Mof_C 	C 	0.211	0.3666	0.0446	147.821
Mof_C 	C 	0.706	0.3931	0.431	-444.26
Mof_C 	C 	0.7325	0.9673	0.2336	253.675
Mof_C 	C 	0.665	0.7235	0.6969	-69.756
Mof_C 	C 	0.7559	0.9716	0.7503	-524.305
Mof_C 	C 	0.3532	0.2285	0.9705	336.661
Mof_C 	C 	0.7559	0.7503	0.7787	-497.048
Mof_C 	C 	0.5982	0.8272	0.8242	29.294
Mof_C 	C 	0.4018	0.8272	0.003	54.986
Mof_C 	C 	0.8323	0.8662	0.585	3.835
Mof_C 	C 	0.7193	0.7134	0.7103	-239.032
Mof_C 	C 	0.322	0.9164	0.3854	-23.024
Mof_C 	C 	0.2208	0.6184	0.7157	-18.421
Mof_C 	C 	0.6395	0.5454	0.6579	-115.21
Mof_C 	C 	0.3102	0.0297	0.7358	40.913
Mof_C 	C 	0.3102	0.0297	0.2939	19.859
Mof_C 	C 	0.678	0.531	0.6146	150.758
Mof_C 	C 	0.211	0.322	0.3666	-53.698
Mof_C 	C 	0.1353	0.9322	0.368	5.111
Mof_C 	C 	0.6924	0.1966	0.2286	390.432
Mof_C 	C 	0.8038	0.7292	0.0971	8.37
Mof_C 	C 	0.789	0.3666	0.322	83.511
Mof_C 	C 	0.1124	0.9335	0.5747	-6.988
Mof_C 	C 	0.0958	0.668	0.5067	-3.428
Mof_C 	C 	0.706	0.0379	0.431	-391.069
Mof_C 	C 	0.2861	0.1867	0.2135	141.183
Mof_C 	C 	0.305	0.358	0.378	-554.569
Mof_C 	C 	0.706	0.3931	0.9621	113.663
Mof_C 	C 	0.8518	0.6664	0.1204	2.144
Mof_C 	C 	0.322	0.531	0.9164	238.164
Mof_C 	C 	0.8647	0.5642	0.632	-32.744
Mof_C 	C 	0.305	0.378	0.02	1529.85
Mof_C 	C 	0.3605	0.8875	0.5454	39.688
Mof_C 	C 	0.8296	0.6354	0.0292	20.496
Mof_C 	C 	0.6468	0.9705	0.2285	170.238
Mof_C 	C 	0.2675	0.7664	0.7337	-200.289
Mof_C 	C 	0.706	0.569	0.9621	116.465
Mof_C 	C 	0.1962	0.2708	0.9029	-47.723
Mof_C 	C 	0.678	0.3854	0.9164	-36.976
Mof_C 	C 	0.8323	0.2812	0.415	3.61
Mof_C 	C 	0.6924	0.8034	0.7714	392.434
Mof_C 	C 	0.6898	0.0297	0.2939	-117.355
Mof_C 	C 	0.6284	0.3067	0.905	-39.945
Mof_C 	C 	0.8296	0.9708	0.6062	-64.103
Mof_C 	C 	0.344	0.3633	0.0493	-773.483
Mof_C 	C 	0.1268	0.1194	0.6757	-6.831
Mof_C 	C 	0.789	0.322	0.3666	83.063
Mof_C 	C 	0.678	0.6146	0.0836	-38.36
Mof_C 	C 	0.211	0.6334	0.678	-53.684
Mof_C 	C 	0.1704	0.3646	0.9708	-108.758
Mof_C 	C 	0.2861	0.2135	0.0268	-376.134
Mof_C 	C 	0.2441	0.7503	0.7787	342.537
Mof_C 	C 	0.8323	0.1338	0.7188	3.342
Mof_C 	C 	0.3532	0.742	0.7715	-125.307
Mof_C 	C 	0.656	0.0493	0.686	-460.858
Mof_C 	C 	0.789	0.9554	0.6334	88.415
Mof_C 	C 	0.6597	0.2047	0.2019	-75.882
Mof_C 	C 	0.1118	0.6616	0.4998	4.688
Mof_C 	C 	0.656	0.314	0.9507	112.415
Mof_C 	C 	0.3076	0.2286	0.1966	-250.436
Mof_C 	C 	0.6169	0.9976	0.1624	10.605
Mof_C 	C 	0.3102	0.9703	0.7061	44.132
Mof_C 	C 	0.695	0.378	0.358	866.129
Mof_C 	C 	0.6597	0.0028	0.7981	-79.319
Mof_C 	C 	0.1482	0.3336	0.454	12.28
Mof_C 	C 	0.7445	0.7263	0.7255	598.352
Mof_C 	C 	0.789	0.678	0.0446	-21.22
Mof_C 	C 	0.695	0.98	0.358	763.396
Mof_C 	C 	0.6597	0.2019	0.9972	9.469
Mof_C 	C 	0.335	0.3031	0.2765	45.6
Mof_C 	C 	0.789	0.9554	0.322	72.87
Mof_C 	C 	0.8093	0.8647	0.2925	-3.355
Mof_C 	C 	0.665	0.6969	0.7235	-59.045
Mof_C 	C 	0.6169	0.0024	0.8376	21.242
Mof_C 	C 	0.607	0.492	0.163	-9.134
Mof_C 	C 	0.1118	0.1618	0.6616	1.356
Mof_C 	C 	0.2208	0.0973	0.3816	-5.554
Mof_C 	C 	0.393	0.837	0.329	-5.649
Mof_C 	C 	0.6597	0.9972	0.2019	-72.962
Mof_C 	C 	0.6468	0.9705	0.742	199.809
Mof_C 	C 	0.8647	0.4358	0.0678	8.275
Mof_C 	C 	0.9042	0.332	0.4933	6.91
Mof_C 	C 	0.8541	0.0289	0.3807	57.945
Mof_C 	C 	0.7139	0.2135	0.1867	-214.341
Mof_C 	C 	0.0958	0.1613	0.4933	-0.69
Mof_C 	C 	0.3605	0.8875	0.3421	18.637
Mof_C 	C 	0.6468	0.742	0.9705	-48.206
Mof_C 	C 	0.7445	0.7255	0.9992	-160.888
Mof_C 	C 	0.6169	0.8352	0.9976	-10.77
Mof_C 	C 	0.656	0.9507	0.6367	-453.881
Mof_C 	C 	0.2675	0.7664	0.0327	474.87
Mof_C 	C 	0.3532	0.258	0.2285	-122.077
Mof_C 	C 	0.1962	0.2708	0.3679	18.44
Mof_C 	C 	0.6254	0.2675	0.0307	33.853
Mof_C 	C 	0.1848	0.3075	0.3522	41.501
Mof_C 	C 	0.3605	0.5454	0.8875	-183.766
Mof_C 	C 	0.2675	0.2336	0.9673	523.269
Mof_C 	C 	0.9042	0.5067	0.668	6.902
Mof_C 	C 	0.2441	0.0284	0.2497	97.096
Mof_C 	C 	0.6597	0.9972	0.7953	-85.155
Mof_C 	C 	0.1118	0.8382	0.3384	0.542
Mof_C 	C 	0.3605	0.3421	0.4546	71.433
Mof_C 	C 	0.678	0.0836	0.469	129.944
Mof_C 	C 	0.211	0.9554	0.322	-14.022
Mof_C 	C 	0.7559	0.2497	0.0284	137.627
Mof_C 	C 	0.3716	0.095	0.4017	-27.046
Mof_C 	C 	0.1118	0.4998	0.6616	4.175
Mof_C 	C 	0.8152	0.6478	0.6925	-64.517
Mof_C 	C 	0.7325	0.2663	0.0327	-87.009
Mof_C 	C 	0.8518	0.546	0.6664	-23.225
Mof_C 	C 	0.607	0.163	0.492	32.559
Mof_C 	C 	0.8323	0.585	0.7188	3.704
Mof_C 	C 	0.6898	0.2939	0.0297	26.11
Mof_C 	C 	0.7559	0.7787	0.0284	139.526
Mof_C 	C 	0.8518	0.1204	0.454	-21.821
Mof_C 	C 	0.6254	0.7325	0.7632	-121.695
Mof_C 	C 	0.656	0.6367	0.9507	115.13
Mof_C 	C 	0.2441	0.7503	0.9716	-830.062
Mof_C 	C 	0.3403	0.9972	0.7953	18.641
Mof_C 	C 	0.2208	0.7157	0.6184	-18.606
Mof_C 	C 	0.8518	0.546	0.8796	2.105
Mof_C 	C 	0.6284	0.095	0.4017	135.61
Mof_C 	C 	0.3532	0.7715	0.0295	305.212
Mof_C 	C 	0.3076	0.7714	0.968	627.692
Mof_C 	C 	0.6395	0.1125	0.6579	-122.848
Mof_C 	C 	0.7139	0.0268	0.2135	-188.994
Mof_C 	C 	0.335	0.6969	0.7235	46.565
Mof_C 	C 	0.6169	0.1624	0.1648	21.081
Mof_C 	C 	0.2861	0.9732	0.1867	40.203
Mof_C 	C 	0.8323	0.1338	0.415	4.199
Mof_C 	C 	0.6924	0.7714	0.8034	379.742
Mof_C 	C 	0.8732	0.5563	0.8806	-4.309
Mof_C 	C 	0.1268	0.4437	0.1194	51.736
Mof_C 	C 	0.7792	0.0973	0.3816	21.915
Mof_C 	C 	0.8647	0.9322	0.5642	-34.645
Mof_C 	C 	0.5982	0.8242	0.997	-8.352
Mof_C 	C 	0.1704	0.6062	0.9708	-96.218
Mof_C 	C 	0.3532	0.2285	0.258	-121.465
Mof_C 	C 	0.607	0.329	0.492	37.627
Mof_C 	C 	0.5982	0.003	0.1758	32.556
Mof_C 	C 	0.8541	0.3807	0.3518	68.597
Mof_C 	C 	0.8323	0.415	0.2812	3.908
Mof_C 	C 	0.6468	0.258	0.2285	186.797
Mof_C 	C 	0.7559	0.0284	0.2497	-434.38
Mof_C 	C 	0.7193	0.0031	0.7134	-250.133
Mof_C 	C 	0.1482	0.454	0.1204	-39.27
Mof_C 	C 	0.393	0.508	0.671	-23.847
Mof_C 	C 	0.5982	0.1758	0.003	-2.573
Mof_C 	C 	0.3746	0.2675	0.2368	81.096
Mof_C 	C 	0.2441	0.2497	0.0284	-915.795
Mof_C 	C 	0.1677	0.8662	0.2812	1.008
Mof_C 	C 	0.322	0.0836	0.6146	-53.145
Mof_C 	C 	0.7792	0.6184	0.7157	25.435
Mof_C 	C 	0.7139	0.9732	0.7865	-226.412
Mof_C 	C 	0.1848	0.0447	0.6925	21.026
Mof_C 	C 	0.1962	0.7292	0.6321	18.806
Mof_C 	C 	0.6924	0.032	0.8034	410.42
Mof_C 	C 	0.8296	0.6062	0.6354	-61.129
Mof_C 	C 	0.1907	0.7075	0.5722	-0.021
Mof_C 	C 	0.3532	0.9705	0.742	-66.176
Mof_C 	C 	0.2441	0.0284	0.7787	177.306
Mof_C 	C 	0.9042	0.1613	0.668	7.068
Mof_C 	C 	0.4018	0.8242	0.997	50.782
Mof_C 	C 	0.1677	0.7188	0.585	-0.478
Mof_C 	C 	0.8647	0.9322	0.368	-28.789
Mof_C 	C 	0.393	0.163	0.492	-5.404
Mof_C 	C 	0.607	0.671	0.508	37.803
Mof_C 	C 	0.8882	0.5002	0.3384	-8.367
Mof_C 	C 	0.8647	0.5642	0.9322	8.036
Mof_C 	C 	0.7559	0.7503	0.9716	144.227
Mof_C 	C 	0.665	0.6969	0.9734	19.863
Mof_C 	C 	0.6924	0.2286	0.032	-102.192
Mof_C 	C 	0.8518	0.6664	0.546	-23.148
Mof_C 	C 	0.3605	0.6579	0.5454	73.732
Mof_C 	C 	0.7325	0.7664	0.7337	291.903
Mof_C 	C 	0.335	0.7235	0.6969	42.567
Mof_C 	C 	0.3746	0.0307	0.2675	24.792
Mof_C 	C 	0.1848	0.9553	0.3075	10.878
Mof_C 	C 	0.1124	0.3588	0.4253	-12.901
Mof_C 	C 	0.665	0.9734	0.2765	-61.765
Mof_C 	C 	0.3716	0.3067	0.4017	-97.184
Mof_C 	C 	0.3605	0.6579	0.1125	-182.473
Mof_C 	C 	0.2675	0.2663	0.2336	-188.898
Mof_C 	C 	0.1353	0.0678	0.4358	5.783
Mof_C 	C 	0.8296	0.6354	0.6062	-60.227
Mof_C 	C 	0.8038	0.6321	0.7292	-26.526
Mof_C 	C 	0.1704	0.3646	0.3938	41.702
Mof_C 	C 	0.6284	0.905	0.3067	137.991
Mof_C 	C 	0.1962	0.9029	0.6321	11.254
Mof_C 	C 	0.7792	0.6184	0.9027	-9.322
Mof_C 	C 	0.6898	0.7061	0.7358	-130.835
Mof_C 	C 	0.8876	0.0665	0.4253	17.71
Mof_C 	C 	0.393	0.329	0.492	-22.621
Mof_C 	C 	0.8093	0.4278	0.1353	-2.078
Mof_C 	C 	0.6924	0.968	0.1966	344.088
Mof_C 	C 	0.8732	0.8806	0.3243	27.921
Mof_C 	C 	0.211	0.6334	0.9554	133.388
Mof_C 	C 	0.344	0.686	0.0493	-692.039
Mof_C 	C 	0.6468	0.0295	0.7715	202.142
Mof_C 	C 	0.607	0.163	0.671	40.357
Mof_C 	C 	0.393	0.492	0.163	66.545
Mof_C 	C 	0.3831	0.1624	0.9976	27.589
Mof_C 	C 	0.6254	0.2368	0.9693	33.877
Mof_C 	C 	0.9042	0.668	0.1613	-0.202
Mof_C 	C 	0.9042	0.332	0.8387	-0.079
Mof_C 	C 	0.665	0.0266	0.7235	-70.531
Mof_C 	C 	0.1848	0.6925	0.0447	-104.15
Mof_C 	C 	0.344	0.686	0.6367	284.14
Mof_C 	C 	0.211	0.678	0.0446	135.038
Mof_C 	C 	0.3831	0.1648	0.0024	32.83
Mof_C 	C 	0.2807	0.2897	0.2866	153.11
Mof_C 	C 	0.7559	0.2497	0.2213	-494.736
Mof_C 	C 	0.706	0.431	0.3931	-445.033
Mof_C 	C 	0.656	0.3633	0.314	-429.315
Mof_C 	C 	0.1907	0.1353	0.7075	-1.837
Mof_C 	C 	0.9042	0.5067	0.8387	-0.246
Mof_C 	C 	0.7559	0.0284	0.7787	-545.254
Mof_C 	C 	0.6169	0.9976	0.8352	17.866
Mof_C 	C 	0.2861	0.8133	0.0268	-343.859
Mof_C 	C 	0.6924	0.968	0.7714	401.536
Mof_C 	C 	0.0958	0.8387	0.5067	-1.155
Mof_C 	C 	0.1118	0.6616	0.1618	-13.553
Mof_C 	C 	0.1353	0.5642	0.9322	-52.433
Mof_C 	C 	0.3831	0.0024	0.1648	-3.754
Mof_C 	C 	0.3605	0.1125	0.6579	40.194
Mof_C 	C 	0.1962	0.9029	0.2708	5.471
Mof_C 	C 	0.7193	0.7134	0.0031	71.883
Mof_C 	C 	0.2208	0.9027	0.2843	-5.676
Mof_C 	C 	0.335	0.6969	0.9734	-112.784
Mof_C 	C 	0.8541	0.3518	0.9711	-22.482
Mof_C 	C 	0.706	0.569	0.6069	-447.423
Mof_C 	C 	0.3831	0.9976	0.1624	-7.721
Mof_C 	C 	0.1907	0.7075	0.1353	-4.063
Mof_C 	C 	0.3605	0.3421	0.8875	-203.122
Mof_C 	C 	0.344	0.314	0.3633	276.234
Mof_C 	C 	0.1907	0.2925	0.8647	-3.96
Mof_C 	C 	0.6169	0.1624	0.9976	-12.158
Mof_C 	C 	0.3076	0.032	0.2286	-73.167
Mof_C 	C 	0.8876	0.9335	0.5747	21.137
Mof_C 	C 	0.393	0.837	0.508	-12.408
Mof_C 	C 	0.706	0.6069	0.569	-446.623
Mof_C 	C 	0.6284	0.5983	0.905	-40.786
Mof_C 	C 	0.2208	0.2843	0.9027	45.801
Mof_C 	C 	0.7325	0.2336	0.2663	290.375
Mof_C 	C 	0.393	0.163	0.671	-12.796
Mof_C 	C 	0.6401	0.7854	0.7854	-173.789
Mof_C 	C 	0.1124	0.4253	0.3588	-12.619
Mof_C 	C 	0.3605	0.1125	0.4546	18.179
Mof_C 	C 	0.3716	0.6933	0.5983	-99.984
Mof_C 	C 	0.8876	0.6412	0.0665	-5.37
Mof_C 	C 	0.9042	0.8387	0.332	6.645
Mof_C 	C 	0.294	0.431	0.0379	-787.014
Mof_C 	C 	0.8732	0.1194	0.6757	31.152
Mof_C 	C 	0.2861	0.7865	0.8133	140.921
Mof_C 	C 	0.2861	0.7865	0.9732	-341.67
Mof_C 	C 	0.2441	0.2497	0.2213	333.288
Mof_C 	C 	0.8093	0.1353	0.4278	-3.284
Mof_C 	C 	0.7325	0.7337	0.7664	297.719
Mof_C 	C 	0.6284	0.6933	0.5983	156.673
Mof_C 	C 	0.8647	0.0678	0.4358	-28.564
Mof_C 	C 	0.607	0.837	0.329	33.194
Mof_C 	C 	0.393	0.508	0.837	59.864
Mof_C 	C 	0.656	0.6367	0.686	-431.439
Mof_C 	C 	0.5982	0.003	0.8272	34.36
Mof_C 	C 	0.1353	0.368	0.9322	-58.197
Mof_C 	C 	0.8518	0.1204	0.6664	-23.92
Mof_C 	C 	0.3403	0.7953	0.7981	48.799
Mof_C 	C 	0.3831	0.1648	0.1624	-10.655
Mof_C 	C 	0.8518	0.454	0.3336	-23.426
Mof_C 	C 	0.7193	0.2897	0.2866	-241.154
Mof_C 	C 	0.305	0.02	0.378	-155.607
Mof_C 	C 	0.2208	0.3816	0.0973	46.84
Mof_C 	C 	0.789	0.322	0.9554	-21.264
Mof_C 	C 	0.5982	0.1728	0.1758	29.55
Mof_C 	C 	0.5982	0.1728	0.997	-8.084
Mof_C 	C 	0.9042	0.4933	0.332	6.982
Mof_C 	C 	0.789	0.0446	0.678	88.149
Mof_C 	C 	0.7792	0.9027	0.2843	21.417
Mof_C 	C 	0.2861	0.9732	0.7865	80.667
Mof_C 	C 	0.2555	0.2745	0.2737	-378.727
Mof_C 	C 	0.3532	0.742	0.9705	311.372
Mof_C 	C 	0.0958	0.332	0.8387	11.77
Mof_C 	C 	0.6395	0.4546	0.3421	-114.55
Mof_C 	C 	0.706	0.9621	0.3931	-391.462
Mof_C 	C 	0.4018	0.8272	0.8242	-21.975
Mof_C 	C 	0.2675	0.2663	0.0327	509.42
Mof_C 	C 	0.7792	0.0973	0.7157	27.44
Mof_C 	C 	0.3605	0.4546	0.1125	-204.396
Mof_C 	C 	0.3746	0.7325	0.7632	83.211
Mof_C 	C 	0.8647	0.368	0.4358	-32.453
Mof_C 	C 	0.3599	0	0.2146	38.358
Mof_C 	C 	0.665	0.3031	0.2765	-58.93
Mof_C 	C 	0.8093	0.7075	0.5722	-2.78
Mof_C 	C 	0.1268	0.6757	0.5563	-17.709
Mof_C 	C 	0.6468	0.7715	0.0295	-48.023
Mof_C 	C 	0.3716	0.5983	0.905	250.374
Mof_C 	C 	0.3076	0.1966	0.968	672.524
Mof_C 	C 	0.3831	0.1624	0.1648	-11.927
Mof_C 	C 	0.1118	0.1618	0.5002	1.143
Mof_C 	C 	0.6254	0.7632	0.0307	34.484
Mof_C 	C 	0.6898	0.2642	0.2939	-134.224
Mof_C 	C 	0.8152	0.3075	0.3522	-65.809
Mof_C 	C 	0.6395	0.8875	0.5454	-121.816
Mof_C 	C 	0.8296	0.9708	0.3646	-50.814
Mof_C 	C 	0.2861	0.2135	0.1867	136.957
Mof_C 	C 	0.2675	0.7337	0.7664	-193.932
Mof_C 	C 	0.1962	0.0971	0.3679	5.148
Mof_C 	C 	0.335	0.7235	0.0266	-98.515
Mof_C 	C 	0.9042	0.8387	0.5067	7.193
Mof_C 	C 	0.7139	0.8133	0.0268	61.802
Mof_C 	C 	0.294	0.6069	0.0379	-712.903
Mof_C 	C 	0.6898	0.9703	0.2642	-118.975
Mof_C 	C 	0.1677	0.8662	0.585	1.242
Mof_C 	C 	0.305	0.642	0.622	-570.955
Mof_C 	C 	0.7792	0.2843	0.3816	25.715
Mof_C 	C 	0.211	0.0446	0.3666	-14.492
Mof_C 	C 	0.305	0.98	0.358	-154.647
Mof_C 	C 	0.2675	0.9673	0.2336	-57.082
Mof_C 	C 	0.1704	0.3938	0.3646	41.93
Mof_C 	C 	0.6284	0.6933	0.095	-40.391
Mof_C 	C 	0.3746	0.7325	0.9693	-202.047
Mof_C 	C 	0.8296	0.3938	0.0292	20.51
Mof_C 	C 	0.6395	0.3421	0.4546	-114.944
Mof_C 	C 	0.294	0.569	0.9621	-712.621
Mof_C 	C 	0.8093	0.2925	0.4278	-2.861
Mof_C 	C 	0.3532	0.258	0.0295	342.204
Mof_C 	C 	0.6284	0.095	0.6933	164.761
Mof_C 	C 	0.211	0.322	0.9554	148.625
Mof_C 	C 	0.0958	0.668	0.1613	11.153
Mof_C 	C 	0.2555	0.0008	0.2745	-100.335
Mof_C 	C 	0.1677	0.2812	0.8662	5.805
Mof_C 	C 	0.344	0.9507	0.314	77.259
Mof_C 	C 	0.211	0.0446	0.678	-27.88
Mof_C 	C 	0.8647	0.368	0.9322	7.808
Mof_C 	C 	0.322	0.6146	0.0836	237.575
Mof_C 	C 	0.695	0.642	0.622	868.948
Mof_C 	C 	0.6924	0.7714	0.968	-104.976
Mof_C 	C 	0.335	0.2765	0.9734	-104.79
Mof_C 	C 	0.8647	0.632	0.0678	8.39
Mof_C 	C 	0.294	0.0379	0.431	77.944
Mof_C 	C 	0.7559	0.7787	0.7503	-521.009
Mof_C 	C 	0.6924	0.8034	0.032	-104.051
Mof_C 	C 	0.6395	0.4546	0.1125	28.534
Mof_C 	C 	0.2807	0.2897	0.0031	-419.554
Mof_C 	C 	0.7193	0.9969	0.7103	-257.579
Mof_C 	C 	0.1268	0.4437	0.3243	-15.887
Mof_C 	C 	0.335	0.0266	0.3031	16.923
Mof_C 	C 	0.607	0.492	0.329	37.71
Mof_C 	C 	0.1677	0.1338	0.7188	1.379
Mof_C 	C 	0.1353	0.0678	0.632	11.062
Mof_C 	C 	0.7792	0.2843	0.9027	-9.391
Mof_C 	C 	0.1268	0.1194	0.4437	-4.625
Mof_C 	C 	0.3599	0.7854	-0	-264.805
Mof_C 	C 	0.1124	0.5747	0.9335	31.871
Mof_C 	C 	0.0958	0.8387	0.332	-0.246
Mof_C 	C 	0.1962	0.3679	0.2708	18.265
Mof_C 	C 	0.8093	0.5722	0.8647	-2.272
Mof_C 	C 	0.344	0.6367	0.9507	-703.721
Mof_C 	C 	0.3716	0.905	0.3067	-27.074
Mof_C 	C 	0.1482	0.1204	0.454	2.886
Mof_C 	C 	0.2675	0.0327	0.7664	-108.442
Mof_C 	C 	0.8882	0.6616	0.4998	-8.296
Mof_C 	C 	0.3532	0.0295	0.7715	-63.304
Mof_C 	C 	0.305	0.642	0.02	1390.09
Mof_C 	C 	0.211	0.678	0.6334	-55.164
Mof_C 	C 	0.6401	5.7599e-17	0.7854	-176.839
Mof_C 	C 	0.1118	0.4998	0.8382	-13.415
Mof_C 	C 	0.6924	0.1966	0.968	-102.81
Mof_C 	C 	0.6254	0.2675	0.2368	-121.261
Mof_C 	C 	0.322	0.0836	0.469	-23.236
Mof_C 	C 	0.3599	0.7854	0.7854	114.085
Mof_C 	C 	0.3076	0.968	0.1966	-66.559
Mof_C 	C 	0.8518	0.454	0.1204	1.927
Mof_C 	C 	0.3746	0.9693	0.7325	45.189
Mof_C 	C 	0.5982	0.997	0.8242	30.912
Mof_C 	C 	0.607	0.671	0.163	-9.283
Mof_C 	C 	0.3716	0.4017	0.3067	-99.155
Mof_C 	C 	0.3076	0.1966	0.2286	-245.272
Mof_C 	C 	0.7792	0.9027	0.6184	26.852
Mof_C 	C 	0.8093	0.7075	0.1353	-1.959
Mof_C 	C 	0.3599	0.2146	-0	-293.921
Mof_C 	C 	0.335	0.9734	0.6969	25.602
Mof_C 	C 	0.1124	0.0665	0.6412	-6.934
Mof_C 	C 	0.322	0.3854	0.9164	266.383
Mof_C 	C 	0.6169	0.8376	0.8352	21.739
Mof_C 	C 	0.344	0.0493	0.686	148.777
Mof_C 	C 	0.3102	0.2642	0.2939	80.206
Mof_C 	C 	0.3831	0.9976	0.8352	-12.919
Mof_C 	C 	0.789	0.678	0.6334	83.556
Mof_C 	C 	0.695	0.98	0.622	916.213
Mof_C 	C 	0.8882	0.5002	0.1618	0.54
Mof_C 	C 	0.6254	0.2368	0.2675	-125.192
Mof_C 	C 	0.305	0.378	0.358	-553.868
Mof_C 	C 	0.789	0.6334	0.9554	-21.859
Mof_C 	C 	0.393	0.671	0.508	-23.349
Mof_C 	C 	0.3746	0.9693	0.2368	21.568
Mof_C 	C 	0.0958	0.332	0.4933	-3.31
Mof_C 	C 	0.4018	0.003	0.1758	-1.73
Mof_C 	C 	0.1482	0.6664	0.546	12.764
Mof_C 	C 	0.1268	0.6757	0.1194	48.809
Mof_C 	C 	0.6254	0.9693	0.7325	-129.456
Mof_C 	C 	0.1353	0.4358	0.0678	-57.493
Mof_C 	C 	0.1353	0.368	0.4358	20.61
Mof_C 	C 	0.8876	0.4253	0.3588	20.109
Mof_C 	C 	0.4018	0.1758	0.1728	-20.484
Mof_C 	C 	0.7139	0.0268	0.8133	-223.419
Mof_C 	C 	0.2861	0.0268	0.8133	76.16
Mof_C 	C 	0.5982	0.1758	0.1728	28.601
Mof_C 	C 	0.8541	0.6482	0.0289	-23.728
Mof_C 	C 	0.1353	0.632	0.5642	21.151
Mof_C 	C 	0.6924	0.032	0.2286	333.348
Mof_C 	C 	0.2441	0.7787	0.7503	330.538
Mof_C 	C 	0.8323	0.585	0.8662	2.056
Mof_C 	C 	0.8647	0.0678	0.632	-34.162
Mof_C 	C 	0.1962	0.7292	0.0971	-43.046
Mof_C 	C 	0.7325	0.0327	0.7664	302.602
Mof_C 	C 	0.7325	0.9673	0.7337	312.146
Mof_C 	C 	0.5982	0.8242	0.8272	28.221
Mof_C 	C 	0.6468	0.2285	0.9705	-46.621
Mof_C 	C 	0.2555	0.9992	0.7255	-212.539
Mof_C 	C 	0.8876	0.4253	0.0665	-5.316
Mof_C 	C 	0.7325	0.0327	0.2663	259.491
Mof_C 	C 	0.8152	0.6925	0.0447	16.195
Mof_C 	C 	0.8152	0.6478	0.9553	17.547
Mof_C 	C 	0.706	0.6069	0.0379	117.491
Mof_C 	C 	0.294	0.3931	0.9621	-788.923
Mof_C 	C 	0.2208	0.6184	0.9027	41.384
Mof_C 	C 	0.5982	0.8272	0.003	-3.99
Mof_C 	C 	0.8038	0.2708	0.3679	-26.485
Mof_C 	C 	0.344	0.9507	0.6367	152.758
Mof_C 	C 	0.7792	0.7157	0.0973	-8.669
Mof_C 	C 	0.305	0.02	0.642	-304.907
Mof_C 	C 	0.6169	0.8352	0.8376	20.613
Mof_C 	C 	0.9042	0.1613	0.4933	6.645
Mof_C 	C 	0.1482	0.6664	0.1204	-37.521
Mof_C 	C 	0.8732	0.5563	0.6757	30.22
Mof_C 	C 	0.3716	0.5983	0.6933	-101.984
Mof_C 	C 	0.1459	0.6482	0.0289	109.815
Mof_C 	C 	0.656	0.0493	0.3633	-380.974
Mof_C 	C 	0.3831	0.8352	0.9976	24.529
Mof_C 	C 	0.3403	0.2047	0.0028	-135.68
Mof_C 	C 	0.3599	0.2146	0.2146	110.751
Mof_C 	C 	0.2807	0.9969	0.2866	40.299
Mof_C 	C 	0.656	0.3633	0.0493	110.712
Mof_C 	C 	0.2807	0.7134	0.7103	159.636
Mof_C 	C 	0.2807	0.2866	0.9969	-429.816
Mof_C 	C 	0.4018	0.1728	0.997	54.917
Mof_C 	C 	0.789	0.0446	0.3666	74.092
Mof_C 	C 	0.1907	0.4278	0.1353	-3.235
Mof_C 	C 	0.8732	0.6757	0.5563	30.277
Mof_C 	C 	0.8541	0.6482	0.6193	69.024
Mof_C 	C 	0.8296	0.6062	0.9708	20.736
Mof_C 	C 	0.2555	0.7255	0.9992	951.47
Mof_C 	C 	0.6395	0.1125	0.4546	-99.908
Mof_C 	C 	0.7193	0.9969	0.2866	-207.503
Mof_C 	C 	0.1353	0.9322	0.5642	11.028
Mof_C 	C 	0.2861	0.0268	0.2135	44.343
Mof_C 	C 	0.305	0.622	0.98	1388.9
Mof_C 	C 	0.6284	0.5983	0.6933	154.713
Mof_C 	C 	0.8876	0.6412	0.5747	19.851
Mof_C 	C 	0.678	0.3854	0.469	149.882
Mof_C 	C 	0.8323	0.7188	0.585	3.494
Mof_C 	C 	0.8882	0.4998	0.8382	0.638
Mof_C 	C 	0.8093	0.8647	0.5722	-2.964
Mof_C 	C 	0.695	0.358	0.378	864.459
Mof_C 	C 	0.3403	0.0028	0.7981	23.915
Mof_C 	C 	0.2441	0.2213	0.9716	-878.005
Mof_C 	C 	0.695	0.622	0.98	-228.695
Mof_C 	C 	0.665	0.0266	0.3031	-54.982
Mof_C 	C 	0.3403	0.7981	0.7953	49.787
Mof_C 	C 	0.1704	0.6062	0.6354	42.776
Mof_C 	C 	0.0958	0.4933	0.1613	11.488
Mof_C 	C 	0.1459	0.6193	0.6482	-48.554
Mof_C 	C 	0.2675	0.7337	0.9673	464.354
Mof_C 	C 	0.6597	0.7981	0.0028	16.159
Mof_C 	C 	0.6468	0.742	0.7715	187.523
Mof_C 	C 	0.8732	0.3243	0.4437	30.223
Mof_C 	C 	0.4018	0.003	0.8272	-5.39
Mof_C 	C 	0.344	0.0493	0.3633	80.113
Mof_C 	C 	0.8152	0.6925	0.6478	-66.211
Mof_C 	C 	0.8882	0.8382	0.4998	-8.743
Mof_C 	C 	0.4018	0.997	0.8242	-11.362
Mof_C 	C 	0.8541	0.3518	0.3807	68.453
Mof_C 	C 	0.607	0.508	0.837	-9.329
Mof_C 	C 	0.3605	0.4546	0.3421	72.439
Mof_C 	C 	0.2208	0.3816	0.2843	-18.083
Mof_C 	C 	0.7445	0.9992	0.2737	518.798
Mof_C 	C 	0.0958	0.5067	0.668	-3.018
Mof_C 	C 	0.3403	0.2019	0.9972	-143.935
Mof_C 	C 	0.8882	0.1618	0.6616	-8.625
Mof_C 	C 	0.305	0.358	0.98	1533.9
Mof_C 	C 	0.3746	0.7632	0.7325	82.967
Mof_C 	C 	0.3403	0.7981	0.0028	-127.36
Mof_C 	C 	0.8296	0.0292	0.6354	-63.969
Mof_C 	C 	0.656	0.686	0.6367	-439.709
Mof_C 	C 	0.393	0.492	0.329	-23.095
Mof_C 	C 	0.393	0.671	0.163	59.362
Mof_C 	C 	0.8876	0.9335	0.3588	17.366
Mof_C 	C 	0.1459	0.6482	0.6193	-48.083
Mof_C 	C 	0.6597	0.2019	0.2047	-73.571
Mof_C 	C 	0.8296	0.3646	0.3938	-59.72
Mof_C 	C 	0.6254	0.0307	0.7632	-130.992
Mof_C 	C 	0.695	0.622	0.642	870.658
Mof_C 	C 	0.7139	0.1867	0.2135	-215.695
Mof_C 	C 	0.6597	0.7953	0.9972	11.461
Mof_C 	C 	0.6254	0.7632	0.7325	-125.799
Mof_C 	C 	0.1907	0.4278	0.2925	-1.051
Mof_C 	C 	0.1907	0.5722	0.8647	-3.96
Mof_C 	C 	0.3076	0.2286	0.032	690.121
Mof_C 	C 	0.7139	0.7865	0.8133	-215.265
Mof_C 	C 	0.8876	0.5747	0.9335	-5.39
Mof_C 	C 	0.1124	0.3588	0.9335	35.707
Mof_C 	C 	0.0958	0.1613	0.668	-0.713
Mof_C 	C 	0.1459	0.3518	0.9711	123.796
Mof_C 	C 	0.8296	0.0292	0.3938	-51.629
Mof_C 	C 	0.7792	0.7157	0.6184	26.018
Mof_C 	C 	0.3102	0.7061	0.9703	-215.817
Mof_C 	C 	0.2675	0.9673	0.7337	-107.017
Mof_C 	C 	0.2807	0.2866	0.2897	155.255
Mof_C 	C 	0.1482	0.454	0.3336	11.003
Mof_C 	C 	0.294	0.431	0.3931	283.413
Mof_C 	C 	0.9042	0.4933	0.1613	-0.149
Mof_C 	C 	0.3403	0.7953	0.9972	-127.808
Mof_C 	C 	0.6401	0.2146	-0	58.843
Mof_C 	C 	0.344	0.314	0.9507	-760.633
Mof_C 	C 	0.305	0.98	0.622	-302.627
Mof_C 	C 	0.8038	0.9029	0.6321	-28.012
Mof_C 	C 	0.1962	0.3679	0.0971	-48.387
Mof_C 	C 	0.1677	0.2812	0.415	-0.325
Mof_C 	C 	0.2807	0.0031	0.2897	44.565
Mof_C 	C 	0.8152	0.0447	0.3522	-57.226
Mof_C 	C 	0.9042	0.668	0.5067	6.914
Mof_C 	C 	0.6395	0.3421	0.8875	28.653
Mof_C 	C 	0.3403	0.9972	0.2019	7.07
Mof_C 	C 	0.3102	0.7358	0.7061	82.897
Mof_C 	C 	0.1704	0.6354	0.0292	-97.444
Mof_C 	C 	0.1907	0.8647	0.2925	-1.475
Mof_C 	C 	0.294	0.9621	0.3931	77.418
Mof_C 	C 	0.1848	0.6478	0.9553	-105.009
Mof_C 	C 	0.8882	0.1618	0.5002	-7.824
Mof_C 	C 	0.7325	0.2336	0.9673	-83.62
Mof_C 	C 	0.393	0.329	0.837	66.192
Mof_C 	C 	0.8038	0.9029	0.2708	-22.415
Mof_C 	C 	0.2807	0.7103	0.9969	-380.177
Mof_C 	C 	0.7139	0.2135	0.0268	61.132
Mof_C 	C 	0.4018	0.1728	0.1758	-21.646
Mof_C 	C 	0.2861	0.1867	0.9732	-377.899
Mof_C 	C 	0.8038	0.6321	0.9029	8.992
Mof_C 	C 	0.294	0.0379	0.6069	156.841
Mof_C 	C 	0.6284	0.4017	0.095	-39.559
Mof_C 	C 	0.344	0.6367	0.686	287.794
Mof_C 	C 	0.8732	0.6757	0.1194	-4.547
Mof_C 	C 	0.1118	0.8382	0.4998	1.924
Mof_C 	C 	0.1124	0.0665	0.4253	-3.52
Mof_C 	C 	0.1353	0.5642	0.632	20.774
Mof_C 	C 	0.6254	0.7325	0.9693	34.55
Mof_C 	C 	0.656	0.686	0.0493	113.387
Mof_C 	C 	0.6169	0.8376	0.0024	-6.396
Mof_C 	C 	0.8647	0.632	0.5642	-32.631
Mof_C 	C 	0.7559	0.2213	0.2497	-518.338
Mof_C 	C 	0.678	0.9164	0.3854	130.559
Mof_C 	C 	0.8038	0.0971	0.7292	-28.524
Mof_C 	C 	0.8038	0.7292	0.6321	-26.756
Mof_C 	C 	0.6468	0.2285	0.258	191.441
Mof_C 	C 	0.8518	0.3336	0.8796	1.57
Mof_C 	C 	0.1962	0.6321	0.7292	18.638
Mof_C 	C 	0.6597	0.7981	0.7953	-73.695
Mof_C 	C 	0.3831	0.8376	0.0024	28.727
Mof_C 	C 	0.7139	0.8133	0.7865	-216.976
Mof_C 	C 	0.706	0.9621	0.569	-471.941
Mof_C 	C 	0.1704	0.9708	0.6062	24.759
Mof_C 	C 	0.1459	0.9711	0.3518	-13.849
Mof_C 	C 	0.7792	0.3816	0.2843	25.175
Mof_C 	C 	0.3532	0.9705	0.2285	-30.897
Mof_C 	C 	0.1459	0.9711	0.6193	-27.226
Mof_C 	C 	0.695	0.02	0.642	913.432
Mof_C 	C 	0.8296	0.3646	0.9708	20.885
Mof_C 	C 	0.1268	0.5563	0.8806	48.433
Mof_C 	C 	0.8882	0.4998	0.6616	-8.27
Mof_C 	C 	0.8323	0.2812	0.8662	2.37
Mof_C 	C 	0.322	0.469	0.3854	-93.649
Mof_C 	C 	0.3746	0.2368	0.9693	-217.127
Mof_C 	C 	0.1482	0.8796	0.546	5.171
Mof_C 	C 	0.1677	0.415	0.2812	0.229
Mof_C 	C 	0.8876	0.3588	0.4253	19.737
Mof_C 	C 	0.8093	0.2925	0.8647	-2.575
Mof_C 	C 	0.8152	0.9553	0.6478	-67.896
Mof_C 	C 	0.8732	0.4437	0.1194	-4.325
Mof_C 	C 	0.678	0.6146	0.531	150.768
Mof_C 	C 	0.8093	0.1353	0.7075	-2.347
Mof_C 	C 	0.2208	0.7157	0.0973	41.364
Mof_C 	C 	0.294	0.569	0.6069	292.04
Mof_C 	C 	0.6284	0.3067	0.4017	155.914
Mof_C 	C 	0.6169	0.1648	0.0024	-6.617
Mof_C 	C 	0.7139	0.7865	0.9732	61.43
Mof_C 	C 	0.7193	0.2866	0.2897	-237.81
Mof_C 	C 	0.1459	0.6193	0.9711	110.89
Mof_C 	C 	0.1118	0.3384	0.8382	-14.577
Mof_C 	C 	0.8732	0.4437	0.3243	30.362
Mof_C 	C 	0.2861	0.8133	0.7865	145.158
Mof_C 	C 	0.1268	0.3243	0.8806	52.827
Mof_C 	C 	0.3716	0.4017	0.095	275.492
Mof_C 	C 	0.1118	0.5002	0.3384	4.005
Mof_C 	C 	0.6401	0.7854	-0	57.682
Mof_C 	C 	0.1704	0.9708	0.3646	13.16
Mof_C 	C 	0.695	0.358	0.98	-223.43
Mof_C 	C 	0.3716	0.905	0.5983	-53.316
Mof_C 	C 	0.656	0.9507	0.314	-386.841
Mof_C 	C 	0.6395	0.5454	0.8875	29.414
Mof_C 	C 	0.6254	0.0307	0.2675	-108.432
Mof_C 	C 	0.7445	0.0008	0.7263	632.993
Mof_C 	C 	0.6401	0	0.2146	-142.056
Mof_C 	C 	0.8518	0.8796	0.546	-24.473
Mof_C 	C 	0.2807	0.0031	0.7134	91.288
Mof_C 	C 	0.1124	0.6412	0.5747	-13.213
Mof_C 	C 	0.665	0.7235	0.0266	17.348
Mof_C 	C 	0.1268	0.8806	0.5563	-7.855
Mof_C 	C 	0.1704	0.6354	0.6062	42.572
Mof_C 	C 	0.305	0.622	0.642	-570.224
Mof_C 	C 	0.8882	0.6616	0.1618	0.609
Mof_C 	C 	0.3076	0.032	0.8034	-133.736
Mof_C 	C 	0.1704	0.3938	0.0292	-108.138
Mof_C 	C 	0.3716	0.095	0.6933	-53.419
Mof_C 	C 	0.7325	0.7337	0.9673	-84.41
Mof_C 	C 	0.8323	0.415	0.1338	1.876
Mof_C 	C 	0.6395	0.8875	0.3421	-100.911
Mof_C 	C 	0.706	0.431	0.0379	114.759
Mof_C 	C 	0.1848	0.9553	0.6478	24.133
Mof_C 	C 	0.8152	0.3522	0.0447	15.888
Mof_C 	C 	0.6254	0.9693	0.2368	-110.66
Mof_C 	C 	0.2441	0.7787	0.0284	-794.15
Mof_C 	C 	0.7193	0.2866	0.9969	65.84
Mof_C 	C 	0.322	0.6146	0.531	-96.625
Mof_C 	C 	0.3716	0.6933	0.095	246.501
Mof_C 	C 	0.1482	0.546	0.8796	-36.866
Mof_C 	C 	0.0958	0.5067	0.8387	10.985
Mof_C 	C 	0.3102	0.2939	0.0297	-239.593
Mof_C 	C 	0.678	0.0836	0.6146	160.507
Mof_C 	C 	0.8093	0.5722	0.7075	-2.596
Mof_C 	C 	0.1482	0.8796	0.3336	1.559
Mof_C 	C 	0.7193	0.7103	0.7134	-242.394
Mof_C 	C 	0.695	0.642	0.02	-230.538
Mof_C 	C 	0.706	0.0379	0.6069	-470.625
Mof_C 	C 	0.3403	0.2047	0.2019	47.669
Mof_C 	C 	0.8541	0.6193	0.9711	-22.416
Mof_C 	C 	0.8093	0.4278	0.2925	-2.798
Mof_C 	C 	0.1353	0.4358	0.368	20.23
Mof_C 	C 	0.3532	0.7715	0.742	-124.611
Mof_C 	C 	0.1124	0.6412	0.0665	32.517
Mof_C 	C 	0.3102	0.2642	0.9703	-231.334
Mof_C 	C 	0.1268	0.3243	0.4437	-17.137
Mof_C 	C 	0.607	0.329	0.837	-9.088
Mof_C 	C 	0.2208	0.9027	0.6184	-11.534
Mof_C 	C 	0.8038	0.0971	0.3679	-22.92
Mof_C 	C 	0.335	0.3031	0.0266	-121.117
Mof_C 	C 	0.1848	0.6925	0.6478	42.639
Mof_C 	C 	0.3746	0.2368	0.2675	80.909
Mof_C 	C 	0.8323	0.7188	0.1338	1.757
Mof_C 	C 	0.2807	0.7134	0.0031	-381.882
Mof_C 	C 	0.8541	0.9711	0.3518	59.205
Mof_C 	C 	0.678	0.469	0.0836	-37.361
Mof_C 	C 	0.2675	0.0327	0.2663	-59.423
Mof_C 	C 	0.2807	0.7103	0.7134	157.427
Mof_C 	C 	0.1848	0.3522	0.3075	40.786
Mof_C 	C 	0.335	0.0266	0.7235	19.529
Mof_C 	C 	0.8541	0.6193	0.6482	69.246
Mof_C 	C 	0.7139	0.1867	0.9732	60.887
Mof_C 	C 	0.4018	0.8242	0.8272	-20.797
Mof_C 	C 	0.344	0.3633	0.314	279.753
Mof_C 	C 	0.1459	0.3518	0.3807	-47.085
Mof_C 	C 	0.0958	0.4933	0.332	-2.895
Mof_C 	C 	0.7139	0.9732	0.1867	-185.94
Mof_C 	C 	0.8541	0.9711	0.6193	73.319
Mof_C 	C 	0.1677	0.585	0.8662	5.648
Mof_C 	C 	0.6169	0.1648	0.1624	20.091
Mof_C 	C 	0.3746	0.7632	0.0307	-197.162
Mof_C 	C 	0.3102	0.9703	0.2642	20.288
Mof_C 	C 	0.665	0.2765	0.3031	-69.387
Mof_C 	C 	0.695	0.378	0.02	-225.393
Mof_C 	C 	0.294	0.6069	0.569	292.236
Mof_C 	C 	0.1124	0.9335	0.3588	-3.592
Mof_C 	C 	0.656	0.314	0.3633	-437.435
Mof_C 	C 	0.8152	0.3522	0.3075	-64.346
Mof_C 	C 	0.335	0.9734	0.2765	12.999
Mof_C 	C 	0.335	0.2765	0.3031	41.783
Mof_C 	C 	0.8038	0.3679	0.0971	8.325
Mof_C 	C 	0.3076	0.8034	0.7714	-252.077
Mof_C 	C 	0.3746	0.2675	0.0307	-221.48
Mof_C 	C 	0.6395	0.6579	0.1125	29.255
Mof_C 	C 	0.6898	0.7061	0.9703	30.078
Mof_C 	C 	0.6597	0.7953	0.7981	-76.053
Mof_C 	C 	0.3076	0.968	0.7714	-138.417
Mof_C 	C 	0.2441	0.9716	0.2213	89.062
Mof_C 	C 	0.789	0.3666	0.0446	-20.802
Mof_C 	C 	0.3532	0.0295	0.258	-34.492
Mof_C 	C 	0.322	0.3854	0.469	-93.369
Mof_C 	C 	0.6898	0.9703	0.7061	-138.473
Mof_C 	C 	0.2208	0.2843	0.3816	-18.275
Mof_C 	C 	0.8038	0.2708	0.9029	8.986
Mof_C 	C 	0.1268	0.5563	0.6757	-16.473
Mof_C 	C 	0.1907	0.5722	0.7075	-0.869
Mof_C 	C 	0.1482	0.1204	0.6664	4.014
Mof_C 	C 	0.1677	0.415	0.1338	4.915
Mof_C 	C 	0.6169	0.0024	0.1648	16.799
Mof_C 	C 	0.8647	0.4358	0.368	-32.619
Mof_C 	C 	0.8541	0.3807	0.0289	-23.79
Mof_C 	C 	0.3102	0.2939	0.2642	82.268
Mof_C 	C 	0.7792	0.3816	0.0973	-8.654
Mof_C 	C 	0.6284	0.905	0.5983	162.366
Mof_C 	C 	0.1848	0.3522	0.0447	-116.724
Mof_C 	C 	0.5982	0.997	0.1728	26.411
Mof_C 	C 	0.1677	0.1338	0.415	0.238
Mof_C 	C 	0.695	0.02	0.378	763.167
Mof_C 	C 	0.8732	0.3243	0.8806	-3.786
Mof_C 	C 	0.6468	0.258	0.0295	-46.588
Mof_C 	C 	0.2807	0.9969	0.7103	85.971
Mof_C 	C 	0.2675	0.2336	0.2663	-195.13
Mof_C 	C 	0.8323	0.8662	0.2812	4.38
Mof_C 	C 	0.3605	0.5454	0.6579	74.751
Mof_C 	C 	0.1459	0.0289	0.3807	-14.58
Mof_C 	C 	0.3831	0.8376	0.8352	-12.361
Mof_C 	C 	0.678	0.9164	0.531	160.597
Mof_C 	C 	0.211	0.9554	0.6334	-29.718
Mof_C 	C 	0.1962	0.0971	0.7292	10.366
Mof_C 	C 	0.322	0.9164	0.531	-52.577
Mof_C 	C 	0.8732	0.8806	0.5563	31.852
Mof_C 	C 	0.1677	0.585	0.7188	0.069
Mof_C 	C 	0.1848	0.0447	0.3522	11.725
Mof_C 	C 	0.1124	0.5747	0.6412	-12.93
Mof_C 	C 	0.8518	0.3336	0.454	-23.146
Mof_C 	C 	0.3076	0.8034	0.032	608.452
Mof_C 	C 	0.3599	5.7599e-17	0.7854	69.903
Mof_C 	C 	0.3403	0.0028	0.2047	11.267
Mof_C 	C 	0.8876	0.5747	0.6412	20.208
Mof_C 	C 	0.6898	0.0297	0.7358	-143.624
Mof_C 	C 	0.2208	0.0973	0.7157	-10.38
Mof_C 	C 	0.8876	0.0665	0.6412	20.896
Mof_C 	C 	0.6898	0.7358	0.0297	27.689
Mof_C 	C 	0.6284	0.4017	0.3067	153.902
Mof_C 	C 	0.1268	0.8806	0.3243	-3.057
Mof_C 	C 	0.1459	0.0289	0.6482	-29.077
Mof_C 	C 	0.665	0.9734	0.6969	-61.759
Mof_C 	C 	0.6898	0.7358	0.7061	-134.992
Mof_C 	C 	0.1353	0.632	0.0678	-52.461
Mof_C 	C 	0.7193	0.2897	0.0031	71.609
Mof_C 	C 	0.8876	0.3588	0.9335	-5.303
Mof_C 	C 	0.678	0.531	0.9164	-38.015
Mof_C 	C 	0.4018	0.997	0.1728	-5.794
Mof_C 	C 	0.1907	0.2925	0.4278	-0.193
Mof_C 	C 	0.1482	0.546	0.6664	11.504
Mof_C 	C 	0.7559	0.9716	0.2213	-453.48
Mof_C 	C 	0.8882	0.8382	0.3384	-7.888
Mof_C 	C 	0.8038	0.3679	0.2708	-26.293
Mof_C 	C 	0.3831	0.0024	0.8376	-6.811
Mof_C 	C 	0.7445	0.2737	0.2745	595.248
Mof_C 	C 	0.8152	0.9553	0.3075	-57.078
Mof_C 	C 	0.8152	0.3075	0.9553	17.096
Mof_C 	C 	0.6468	0.0295	0.258	167.136
Mof_C 	C 	0.3746	0.0307	0.7632	42.577
Mof_C 	C 	0.322	0.531	0.6146	-96.907
Mof_C 	C 	0.6468	0.7715	0.742	192.355
Mof_C 	C 	0.2555	0.7255	0.7263	-389.836
Mof_C 	C 	0.6395	0.6579	0.5454	-115.555
Mof_C 	C 	0.2441	0.9716	0.7503	187.282
Mof_C 	C 	0.6401	0.2146	0.2146	-172.5
Mof_C 	C 	0.7325	0.7664	0.0327	-87.634
Mof_C 	C 	0.6597	0.0028	0.2047	-69.781
Mof_C 	C 	0.2441	0.2213	0.2497	321.703
Mof_C 	C 	0.7325	0.2663	0.2336	296.337
Mof_C 	C 	0.607	0.837	0.508	39.81
Mof_C 	C 	0.8882	0.3384	0.8382	0.407
Mof_C 	C 	0.8882	0.3384	0.5002	-8.288
Mof_N 	N 	0.7885	0.6911	-0	39.54
Mof_N 	N 	0.7885	0.3089	0.3089	-148.186
Mof_N 	N 	0.76	0.6755	-0	-48.764
Mof_N 	N 	0.24	0	0.6755	-63.268
Mof_N 	N 	0.2115	0.3089	0.3089	94.368
Mof_N 	N 	0.76	0.6755	0.6755	175.175
Mof_N 	N 	0.24	0.6755	0.6755	-115.418
Mof_N 	N 	0.76	0.3245	-0	-48.037
Mof_N 	N 	0.7885	-5.7599e-17	0.6911	-157.575
Mof_N 	N 	0.2115	0.6911	-0	-237.16
Mof_N 	N 	0.76	0.3245	0.3245	174.264
Mof_N 	N 	0.2115	0.3089	-0	-263.185
Mof_N 	N 	0.76	0	0.6755	184.091
Mof_N 	N 	0.7885	0.6911	0.6911	-148.956
Mof_N 	N 	0.24	0.6755	-0	278.231
Mof_N 	N 	0.24	0	0.3245	-31.743
Mof_N 	N 	0.7885	0.3089	-0	38.741
Mof_N 	N 	0.24	0.3245	-0	308.202
Mof_N 	N 	0.24	0.3245	0.3245	-112.136
Mof_N 	N 	0.2115	0.6911	0.6911	97.19
Mof_N 	N 	0.7885	0	0.3089	-129.905
Mof_N 	N 	0.2115	-5.7599e-17	0.6911	52.339
Mof_N 	N 	0.76	0	0.3245	151.87
Mof_N 	N 	0.2115	0	0.3089	25.064
Mof_O 	O 	0.5	0.6609	0.4234	-1.31
Mof_O 	O 	0.5728	0.8129	0.2929	-10.296
Mof_O 	O 	0.299	0.73	0.365	-1.416
Mof_O 	O 	0.9349	0.33333	0.66666	-0.748
Mof_O 	O 	0.3916	0.8404	0.874	36.096
Mof_O 	O 	0.63	0.8531	0.9707	-15.233
Mof_O 	O 	0.9297	0.479	0.8544	-1.001
Mof_O 	O 	0.5	0.0065	0.9112	2.239
Mof_O 	O 	9.59215e-33	0.4295	0.6733	-0.83
Mof_O 	O 	0.5	0.0953	0.0065	2.444
Mof_O 	O 	0.4194	0.8185	0.8596	27.003
Mof_O 	O 	0.701	0.73	0.365	1.405
Mof_O 	O 	0.9297	0.8544	0.3754	0.679
Mof_O 	O 	0.1942	0.70015	0.4003	-1.416
Mof_O 	O 	0.5728	0.52	0.7071	-11.775
Mof_O 	O 	0.0703	0.521	0.1456	1.822
Mof_O 	O 	0.6084	0.0336	0.874	-38.736
Mof_O 	O 	0.1942	0.29985	0.70015	0.635
Mof_O 	O 	0.1942	0.5997	0.29985	0.305
Mof_O 	O 	0.883	0.4893	0.698	0.798
Mof_O 	O 	0.3916	0.126	0.9664	-60.007
Mof_O 	O 	0.0975	0.61941	0.23882	1.73
Mof_O 	O 	0.5	0.2375	0.5766	-1.492
Mof_O 	O 	0.1942	0.70015	0.29985	0.63
Mof_O 	O 	0.605	0.713	0.287	-1.133
Mof_O 	O 	0.299	0.635	0.27	3.06
Mof_O 	O 	0.605	0.574	0.287	-1.092
Mof_O 	O 	6.39477e-33	0.3267	0.7562	-1.084
Mof_O 	O 	0.37	0.1469	0.0293	37.922
Mof_O 	O 	0.9025	0.76118	0.38059	0.724
Mof_O 	O 	0.4272	0.8129	0.52	2.795
Mof_O 	O 	0.63	0.8824	0.8531	15.25
Mof_O 	O 	0.3916	0.9664	0.8404	10.348
Mof_O 	O 	-0	0.7562	0.4295	-0.781
Mof_O 	O 	0.4272	0.2929	0.8129	-19.726
Mof_O 	O 	0.4272	0.8129	0.2929	2.301
Mof_O 	O 	0.37	0.8824	0.8531	-11.663
Mof_O 	O 	0.619	0.1791	0.5429	-2.869
Mof_O 	O 	0.3916	0.1596	0.0336	-59.396
Mof_O 	O 	0.6084	0.126	0.1596	-31.156
Mof_O 	O 	0.117	0.698	0.4893	-1.358
Mof_O 	O 	0.439	0.66667	0.33334	-1.3
Mof_O 	O 	0.0975	0.38059	0.76118	1.753
Mof_O 	O 	0.117	0.2087	0.698	-1.094
Mof_O 	O 	0.5	0.7625	0.4234	-1.47
Mof_O 	O 	0.299	0.635	0.365	-2.301
Mof_O 	O 	0.439	0.33333	0.66666	-1.3
Mof_O 	O 	0.605	0.287	0.574	-1.157
Mof_O 	O 	0.3916	0.0336	0.874	30.667
Mof_O 	O 	0.5	0.3391	0.7625	-2.309
Mof_O 	O 	0.9025	0.61941	0.38059	0.772
Mof_O 	O 	0.117	0.2087	0.5107	-0.778
Mof_O 	O 	0.0651	0.33333	0.66666	-0.656
Mof_O 	O 	0.4194	0.8185	0.9589	-50.627
Mof_O 	O 	0.381	0.6362	0.4571	1.475
Mof_O 	O 	0.3916	0.1596	0.126	35.845
Mof_O 	O 	0.5	0.7625	0.3391	-1.887
Mof_O 	O 	0.37	0.1469	0.1176	-29.615
Mof_O 	O 	0.5728	0.8129	0.52	-11.152
Mof_O 	O 	0.4194	0.0411	0.1815	1.775
Mof_O 	O 	0.5806	0.8596	0.8185	-24.849
Mof_O 	O 	0.9297	0.521	0.3754	0.781
Mof_O 	O 	0.63	0.1176	0.1469	16.043
Mof_O 	O 	0.5806	0.8596	0.0411	12.095
Mof_O 	O 	0.701	0.27	0.635	1.396
Mof_O 	O 	0.4375	0.85	0.8095	-10.865
Mof_O 	O 	0.5806	0.8185	0.9589	11.206
Mof_O 	O 	0.5	0.5766	0.3391	-1.654
Mof_O 	O 	0.6084	0.1596	0.126	-40.038
Mof_O 	O 	0.4194	0.9589	0.8185	4.37
Mof_O 	O 	0.619	0.1791	0.6362	-4.722
Mof_O 	O 	0.9297	0.6246	0.1456	-1.219
Mof_O 	O 	0.605	0.287	0.713	-1.14
Mof_O 	O 	0.395	0.426	0.713	-1.102
Mof_O 	O 	0.5806	0.9589	0.1404	-29.75
Mof_O 	O 	0.5	0.4234	0.7625	-2.081
Mof_O 	O 	0.4272	0.2929	0.48	5.981
Mof_O 	O 	0.5	0.9112	0.0065	2.009
Mof_O 	O 	0.0703	0.1456	0.521	-0.918
Mof_O 	O 	0.6084	0.874	0.8404	-30.656
Mof_O 	O 	0.0975	0.61941	0.38059	-1.395
Mof_O 	O 	0.6084	0.9664	0.126	-33.265
Mof_O 	O 	0.9297	0.6246	0.479	0.819
Mof_O 	O 	0.5	0.5766	0.2375	-2.181
Mof_O 	O 	0.381	0.8209	0.3638	-0.454
Mof_O 	O 	0.0703	0.479	0.8544	1.834
Mof_O 	O 	0.619	0.8209	0.4571	-4.427
Mof_O 	O 	0.3916	0.0336	0.1596	6.427
Mof_O 	O 	0.8058	0.29985	0.5997	1.06
Mof_O 	O 	0.883	0.2087	0.5107	0.65
Mof_O 	O 	0.4375	0.8095	0.9595	34.657
Mof_O 	O 	0.883	0.2087	0.698	0.774
Mof_O 	O 	0.4375	0.85	0.0405	27.768
Mof_O 	O 	0.701	0.635	0.365	1.477
Mof_O 	O 	0.37	0.1176	0.1469	-12.046
Mof_O 	O 	0.4272	0.48	0.2929	7.387
Mof_O 	O 	0.9025	0.23882	0.61941	0.746
Mof_O 	O 	0.9297	0.3754	0.521	0.838
Mof_O 	O 	0.3916	0.8404	0.9664	-56.727
Mof_O 	O 	0.4194	0.8596	0.8185	15.613
Mof_O 	O 	0.381	0.5429	0.1791	-7.028
Mof_O 	O 	0.619	0.3638	0.8209	0.2
Mof_O 	O 	0.395	0.713	0.287	-1.217
Mof_O 	O 	0.5625	0.15	0.9595	-15.623
Mof_O 	O 	0.619	0.8209	0.3638	-3.06
Mof_O 	O 	-3.19738e-33	0.2438	0.6733	-0.937
Mof_O 	O 	0.395	0.287	0.713	-1.251
Mof_O 	O 	0.5728	0.1871	0.7071	-12.457
Mof_O 	O 	0.381	0.6362	0.1791	-5.416
Mof_O 	O 	0.4194	0.9589	0.1404	12.356
Mof_O 	O 	0.381	0.3638	0.5429	1.321
Mof_O 	O 	0.0703	0.3754	0.8544	1.884
Mof_O 	O 	0.37	0.9707	0.1176	-17.287
Mof_O 	O 	0.4375	0.8095	0.85	-26.279
Mof_O 	O 	0.1942	0.4003	0.70015	0.281
Mof_O 	O 	0.0703	0.479	0.6246	-1.473
Mof_O 	O 	0.4375	0.9595	0.15	-16.522
Mof_O 	O 	0.37	0.1176	0.9707	40.187
Mof_O 	O 	0.5728	0.2929	0.8129	3.157
Mof_O 	O 	0.395	0.574	0.287	-1.105
Mof_O 	O 	0.5806	0.0411	0.1815	-19.607
Mof_O 	O 	0.561	0.33333	0.66666	-1.776
Mof_O 	O 	0.5	0.0953	0.0888	-0.427
Mof_O 	O 	0.9349	0.66667	0.33334	-0.772
Mof_O 	O 	0.63	0.0293	0.8824	25.526
Mof_O 	O 	0.1942	0.29985	0.5997	-1.389
Mof_O 	O 	6.39477e-33	0.4295	0.7562	-1.011
Mof_O 	O 	0.9297	0.1456	0.6246	0.765
Mof_O 	O 	0.5625	0.1905	0.0405	-19.402
Mof_O 	O 	0.4375	0.15	0.1905	-11.03
Mof_O 	O 	0.5806	0.1815	0.0411	12.997
Mof_O 	O 	0.4272	0.7071	0.1871	-17.658
Mof_O 	O 	0.701	0.365	0.73	-1.412
Mof_O 	O 	0.6084	0.126	0.9664	22.306
Mof_O 	O 	0.5806	0.0411	0.8596	-33.34
Mof_O 	O 	0.381	0.1791	0.6362	1.078
Mof_O 	O 	0.605	0.426	0.713	-1.063
Mof_O 	O 	0.5625	0.9595	0.8095	16.094
Mof_O 	O 	0.3916	0.9664	0.126	20.158
Mof_O 	O 	0.3916	0.874	0.0336	-51.018
Mof_O 	O 	0.395	0.713	0.426	-0.66
Mof_O 	O 	0.4272	0.1871	0.48	0.724
Mof_O 	O 	0.619	0.6362	0.4571	-3.799
Mof_O 	O 	0.5728	0.48	0.1871	3.17
Mof_O 	O 	0.381	0.8209	0.4571	0.933
Mof_O 	O 	1.43882e-32	0.6733	0.2438	-0.976
Mof_O 	O 	0.395	0.287	0.574	-0.628
Mof_O 	O 	0.63	0.8824	0.0293	-17.943
Mof_O 	O 	0.5	0.0888	0.0953	-0.723
Mof_O 	O 	0.5	0.0065	0.0953	2.438
Mof_O 	O 	0.5625	0.8095	0.85	26.445
Mof_O 	O 	0.4375	0.0405	0.1905	-3.042
Mof_O 	O 	1.59869e-33	0.5705	0.2438	-0.971
Mof_O 	O 	0.5625	0.9595	0.15	21.638
Mof_O 	O 	0.5806	0.9589	0.8185	-26.991
Mof_O 	O 	0.5	0.2375	0.6609	-1.979
Mof_O 	O 	0.3916	0.126	0.1596	21.492
Mof_O 	O 	0.6084	0.1596	0.0336	24.764
Mof_O 	O 	0.4375	0.9595	0.8095	-3.023
Mof_O 	O 	0.9025	0.61941	0.23882	-0.923
Mof_O 	O 	0.381	0.4571	0.6362	1.686
Mof_O 	O 	0.0703	0.521	0.3754	-1.474
Mof_O 	O 	0.5	0.9935	0.9047	-3.126
Mof_O 	O 	-1.59869e-33	0.7562	0.3267	-0.872
Mof_O 	O 	0.5728	0.2929	0.48	-10.712
Mof_O 	O 	0.883	0.302	0.7913	-0.981
Mof_O 	O 	0.561	0.66667	0.33334	-1.777
Mof_O 	O 	0.5806	0.8185	0.8596	-33.026
Mof_O 	O 	0.5728	0.1871	0.48	-9.067
Mof_O 	O 	0.5728	0.52	0.8129	3.235
Mof_O 	O 	0.5625	0.1905	0.15	25.422
Mof_O 	O 	0.0651	0.66667	0.33334	-0.644
Mof_O 	O 	0.883	0.7913	0.4893	0.788
Mof_O 	O 	0.37	0.9707	0.8531	-1.073
Mof_O 	O 	0.4272	0.52	0.7071	7.512
Mof_O 	O 	0.0703	0.6246	0.479	-1.448
Mof_O 	O 	0.8058	0.4003	0.70015	0.032
Mof_O 	O 	0.5728	0.48	0.2929	-11.734
Mof_O 	O 	0.4194	0.8596	0.0411	-46.092
Mof_O 	O 	0.883	0.698	0.4893	0.765
Mof_O 	O 	0.0703	0.8544	0.3754	-0.86
Mof_O 	O 	0.8058	0.5997	0.29985	0.052
Mof_O 	O 	0.5	0.9935	0.0888	-3.565
Mof_O 	O 	0.6084	0.8404	0.874	-40.996
Mof_O 	O 	0.0975	0.76118	0.38059	-0.883
Mof_O 	O 	0.5625	0.0405	0.1905	7.348
Mof_O 	O 	0.63	0.9707	0.1176	25.327
Mof_O 	O 	0.619	0.4571	0.6362	-3.942
Mof_O 	O 	0.4375	0.15	0.9595	35.657
Mof_O 	O 	0.0703	0.6246	0.1456	1.736
Mof_O 	O 	0.9025	0.38059	0.76118	-0.877
Mof_O 	O 	0.4272	0.48	0.1871	-19.978
Mof_O 	O 	0.4194	0.1404	0.9589	-53.524
Mof_O 	O 	3.19738e-33	0.3267	0.5705	-0.751
Mof_O 	O 	0.5	0.0888	0.9935	-3.731
Mof_O 	O 	0.701	0.365	0.635	1.471
Mof_O 	O 	0.883	0.5107	0.2087	-0.992
Mof_O 	O 	0.4194	0.1815	0.1404	27.046
Mof_O 	O 	0.5	0.9047	0.9935	-3.024
Mof_O 	O 	0.117	0.4893	0.7913	1.692
Mof_O 	O 	0.619	0.5429	0.1791	0.168
Mof_O 	O 	0.5	0.6609	0.2375	-2.25
Mof_O 	O 	0.117	0.4893	0.698	-1.5
Mof_O 	O 	0.5	0.3391	0.5766	-1.31
Mof_O 	O 	0.5625	0.85	0.0405	-17.464
Mof_O 	O 	0.4375	0.1905	0.15	-26.289
Mof_O 	O 	0.63	0.1469	0.1176	26.938
Mof_O 	O 	0.9297	0.479	0.6246	0.828
Mof_O 	O 	0.619	0.6362	0.1791	0.197
Mof_O 	O 	0.117	0.302	0.5107	-1.358
Mof_O 	O 	0.37	0.8824	0.0293	31.455
Mof_O 	O 	0.63	0.0293	0.1469	8.418
Mof_O 	O 	0.5806	0.1404	0.1815	-25.195
Mof_O 	O 	0.883	0.698	0.2087	-1.001
Mof_O 	O 	0.883	0.7913	0.302	0.665
Mof_O 	O 	0.37	0.0293	0.1469	-2.064
Mof_O 	O 	0.6084	0.9664	0.8404	-30.9
Mof_O 	O 	0.0975	0.23882	0.61941	-0.869
Mof_O 	O 	0.117	0.5107	0.302	-1.508
Mof_O 	O 	0.4272	0.1871	0.7071	4.446
Mof_O 	O 	0.299	0.365	0.73	3.062
Mof_O 	O 	3.19738e-33	0.2438	0.5705	-0.803
Mof_O 	O 	0.5	0.9047	0.9112	-0.187
Mof_O 	O 	0.63	0.1176	0.9707	-15.237
Mof_O 	O 	0.605	0.713	0.426	-1.135
Mof_O 	O 	0.8058	0.70015	0.29985	0.018
Mof_O 	O 	0.8058	0.29985	0.70015	0.024
Mof_O 	O 	0.9025	0.38059	0.61941	0.778
Mof_O 	O 	0.299	0.27	0.635	-1.418
Mof_O 	O 	0.5806	0.1404	0.9589	10.929
Mof_O 	O 	0.63	0.8531	0.8824	27.931
Mof_O 	O 	0.0703	0.3754	0.521	-1.439
Mof_O 	O 	0.5	0.4234	0.6609	-1.579
Mof_O 	O 	0.3916	0.874	0.8404	21.579
Mof_O 	O 	0.37	0.8531	0.8824	-29.434
Mof_O 	O 	0.381	0.5429	0.3638	1.517
Mof_O 	O 	0.381	0.3638	0.8209	-6.903
Mof_O 	O 	0.6084	0.0336	0.1596	-20.719
Mof_O 	O 	0.5625	0.85	0.8095	15.494
Mof_O 	O 	0.117	0.7913	0.4893	-0.879
Mof_O 	O 	0.4194	0.1404	0.1815	15.801
Mof_O 	O 	0.117	0.302	0.7913	1.763
Mof_O 	O 	0.5	0.9112	0.9047	-0.455
Mof_O 	O 	0.9297	0.521	0.1456	-1.221
Mof_O 	O 	0.4272	0.7071	0.52	6.06
Mof_O 	O 	0.6084	0.8404	0.9664	21.6
Mof_O 	O 	0.8058	0.70015	0.4003	1.104
Mof_O 	O 	0.5728	0.7071	0.1871	3.033
Mof_O 	O 	0.9297	0.3754	0.8544	-1.024
Mof_O 	O 	0.117	0.698	0.2087	1.632
Mof_O 	O 	0.619	0.5429	0.3638	-3.905
Mof_O 	O 	0.619	0.4571	0.8209	0.281
Mof_O 	O 	0.4375	0.1905	0.0405	33.826
Mof_O 	O 	0.5625	0.8095	0.9595	-15.204
Mof_O 	O 	0.883	0.302	0.5107	0.769
Mof_O 	O 	0.299	0.365	0.635	-2.299
Mof_O 	O 	0.619	0.3638	0.5429	-3.765
Mof_O 	O 	0.381	0.1791	0.5429	-0.688
Mof_O 	O 	0.9297	0.1456	0.521	0.685
Mof_O 	O 	0.5806	0.1815	0.1404	-32.238
Mof_O 	O 	0.5625	0.15	0.1905	16.035
Mof_O 	O 	0.883	0.5107	0.302	0.779
Mof_O 	O 	0.63	0.9707	0.8531	17.153
Mof_O 	O 	0.0703	0.8544	0.479	-0.928
Mof_O 	O 	0.37	0.0293	0.8824	-27.247
Mof_O 	O 	0.0703	0.1456	0.6246	-1.05
Mof_O 	O 	1.91843e-32	0.6733	0.4295	-0.71
Mof_O 	O 	0.117	0.7913	0.302	-0.932
Mof_O 	O 	0.381	0.4571	0.8209	-5.468
Mof_O 	O 	0.883	0.4893	0.7913	-0.95
Mof_O 	O 	0.4272	0.52	0.8129	-18.028
Mof_O 	O 	0.6084	0.874	0.0336	22.76
Mof_O 	O 	0.37	0.8531	0.9707	39.615
Mof_O 	O 	0.117	0.5107	0.2087	1.778
Mof_O 	O 	0.5625	0.0405	0.85	23.288
Mof_O 	O 	-1.59869e-33	0.5705	0.3267	-0.79
Mof_O 	O 	0.4194	0.0411	0.8596	20.248
Mof_O 	O 	0.63	0.1469	0.0293	-19.859
Mof_O 	O 	0.5728	0.7071	0.52	-10.647
Mof_O 	O 	0.9297	0.8544	0.479	0.801
Mof_O 	O 	0.701	0.635	0.27	-1.421
Mof_O 	O 	0.0975	0.38059	0.61941	-1.39
Mof_O 	O 	0.4375	0.0405	0.85	-25.673
Mof_O 	O 	0.4194	0.1815	0.0411	-52.998
Mof_F 	F 	0.593	0.735	0.612	-137.149
Mof_F 	F 	0.69	0.418	0.5192	-157.12
Mof_F 	F 	0.31	0.5192	0.418	102.839
Mof_F 	F 	0.69	0.1012	0.5192	-139.458
Mof_F 	F 	0.407	0.265	0.388	88.079
Mof_F 	F 	0.31	0.5192	0.1012	-277.604
Mof_F 	F 	0.31	0.4808	0.8988	-254.519
Mof_F 	F 	0.407	0.388	0.265	88.512
Mof_F 	F 	0.593	0.877	0.265	-120.047
Mof_F 	F 	0.593	0.735	0.123	36.777
Mof_F 	F 	0.407	0.265	0.877	-238.351
Mof_F 	F 	0.593	0.123	0.735	-143.771
Mof_F 	F 	0.31	0.582	0.1012	-253.952
Mof_F 	F 	0.69	0.1012	0.582	-164.654
Mof_F 	F 	0.407	0.123	0.388	26.307
Mof_F 	F 	0.593	0.265	0.388	-136.386
Mof_F 	F 	0.593	0.877	0.612	-142.171
Mof_F 	F 	0.31	0.8988	0.418	30.762
Mof_F 	F 	0.31	0.418	0.8988	-277.841
Mof_F 	F 	0.31	0.8988	0.4808	55.126
Mof_F 	F 	0.593	0.388	0.265	-133.992
Mof_F 	F 	0.31	0.4808	0.582	105.526
Mof_F 	F 	0.69	0.582	0.1012	43.44
Mof_F 	F 	0.69	0.582	0.4808	-157.85
Mof_F 	F 	0.593	0.265	0.877	36.237
Mof_F 	F 	0.31	0.418	0.5192	102.616
Mof_F 	F 	0.593	0.612	0.877	37.133
Mof_F 	F 	0.69	0.8988	0.418	-140.072
Mof_F 	F 	0.69	0.5192	0.418	-157.125
Mof_F 	F 	0.69	0.5192	0.1012	42.611
Mof_F 	F 	0.593	0.388	0.123	35.932
Mof_F 	F 	0.69	0.4808	0.582	-157.871
Mof_F 	F 	0.407	0.735	0.612	90.683
Mof_F 	F 	0.31	0.1012	0.5192	31.055
Mof_F 	F 	0.407	0.612	0.877	-219.317
Mof_F 	F 	0.407	0.877	0.612	49.566
Mof_F 	F 	0.407	0.612	0.735	91.168
Mof_F 	F 	0.31	0.1012	0.582	55.743
Mof_F 	F 	0.593	0.123	0.388	-118.54
Mof_F 	F 	0.593	0.612	0.735	-134.655
Mof_F 	F 	0.69	0.4808	0.8988	43.02
Mof_F 	F 	0.69	0.8988	0.4808	-164.868
Mof_F 	F 	0.407	0.877	0.265	24.81
Mof_F 	F 	0.407	0.388	0.123	-241.639
Mof_F 	F 	0.69	0.418	0.8988	42.158
Mof_F 	F 	0.407	0.123	0.735	47.939
Mof_F 	F 	0.407	0.735	0.123	-216.179
Mof_F 	F 	0.31	0.582	0.4808	105.301
_end
