data_functionalizedCrystal
_audit_creation_method	'EQeq! by Chris Wilmer'
_symmetry_space_group_name_H-M	'P1'
_symmetry_Int_Tables_number	1
_symmetry_cell_setting	triclinic
loop_
_symmetry_equiv_pos_as_xyz
  x,y,z
_cell_length_a	23.0687
_cell_length_b	23.0687
_cell_length_c	20.7587
_cell_angle_alpha	90
_cell_angle_beta	90
_cell_angle_gamma	120
loop_
_atom_site_label
_atom_site_type_symbol
_atom_site_fract_x
_atom_site_fract_y
_atom_site_fract_z
_atom_site_charge
Mof_Zn	Zn	0.18444	0.40745	0.18072	1.193
Mof_Zn	Zn	0.11137	0.25928	0.15279	1.196
Mof_Zn	Zn	0.07413	0.53033	0.4856	1.196
Mof_C 	C 	0.0014	0.3036	0.2969	-0.062
Mof_C 	C 	0.0128	0.3551	0.3324	0.022
Mof_H 	H 	0.0547	0.3955	0.3314	0.042
Mof_C 	C 	0.9618	0.3507	0.3758	-0.091
Mof_C 	C 	0.8992	0.2877	0.3764	-0.055
Mof_H 	H 	0.8648	0.2819	0.4053	0.065
Mof_C 	C 	0.8892	0.239	0.338	0.075
Mof_C 	C 	0.9383	0.24	0.2927	-0.055
Mof_H 	H 	0.9304	0.2044	0.2644	0.066
Mof_C 	C 	0.0562	0.3088	0.2446	0.387
Mof_C 	C 	0.6757	0.9535	0.2919	-0.111
Mof_C 	C 	0.7384	0.0175	0.2878	-0.031
Mof_H 	H 	0.7733	0.0236	0.2594	0.057
Mof_C 	C 	0.7447	0.0694	0.3279	0.062
Mof_C 	C 	0.7	0.0648	0.3647	-0.047
Mof_H 	H 	0.709	0.1018	0.3914	0.063
Mof_C 	C 	0.6341	0.0043	0.3685	-0.091
Mof_C 	C 	0.6233	0.9514	0.3281	0.044
Mof_H 	H 	0.5797	0.9134	0.3251	0.036
Mof_C 	C 	0.6717	0.8999	0.2514	0.42
Mof_C 	C 	0.5796	0.0015	0.4049	0.333
Mof_C 	C 	0.3014	0.3667	0.0449	-0.034
Mof_C 	C 	0.3606	0.4238	0.0486	-0.074
Mof_H 	H 	0.3657	0.4575	0.078	0.072
Mof_C 	C 	0.4158	0.4348	0.0095	0.096
Mof_C 	C 	0.4115	0.3818	0.9723	-0.076
Mof_H 	H 	0.45	0.3854	0.9518	0.078
Mof_C 	C 	0.3507	0.325	0.9665	-0.027
Mof_C 	C 	0.294	0.3148	0.0053	-0.029
Mof_H 	H 	0.2528	0.2737	0.0036	0.061
Mof_C 	C 	0.3322	0.2623	0.9179	0.358
Mof_C 	C 	0.2382	0.3494	0.0898	0.373
Mof_C 	C 	0.9673	0.4032	0.4167	0.373
Mof_O 	O 	0.1062	0.3713	0.2426	-0.472
Mof_O 	O 	0.0526	0.2598	0.2248	-0.503
Mof_O 	O 	0.0287	0.4509	0.4245	-0.46
Mof_O 	O 	0.9194	0.3997	0.4501	-0.46
Mof_O 	O 	0.5855	0.0478	0.4445	-0.469
Mof_O 	O 	0.5252	0.94	0.4157	-0.419
Mof_O 	O 	0.6107	0.848	0.2465	-0.464
Mof_O 	O 	0.719	0.9061	0.2234	-0.491
Mof_O 	O 	0.1919	0.2941	0.0916	-0.486
Mof_O 	O 	0.2471	0.4052	0.116	-0.468
Mof_O 	O 	0.3927	0.277	0.893	-0.443
Mof_O 	O 	0.2792	0.2158	0.9131	-0.511
Mof_N 	N 	0.8198	0.1764	0.3471	-0.081
Mof_N 	N 	0.8202	0.1356	0.3174	-0.076
Mof_N 	N 	0.4761	0.4946	0.0211	-0.093
Mof_Zn	Zn	0.59255	0.77699	0.18072	1.194
Mof_Zn	Zn	0.74072	0.85209	0.15279	1.197
Mof_Zn	Zn	0.46967	0.5438	0.4856	1.197
Mof_C 	C 	0.6964	0.6978	0.2969	-0.061
Mof_C 	C 	0.6449	0.6577	0.3324	0.023
Mof_H 	H 	0.6045	0.6592	0.3314	0.043
Mof_C 	C 	0.6493	0.6111	0.3758	-0.09
Mof_C 	C 	0.7123	0.6115	0.3764	-0.054
Mof_H 	H 	0.7181	0.5829	0.4053	0.066
Mof_C 	C 	0.761	0.6502	0.338	0.076
Mof_C 	C 	0.76	0.6983	0.2927	-0.054
Mof_H 	H 	0.7956	0.726	0.2644	0.067
Mof_C 	C 	0.6912	0.7474	0.2446	0.388
Mof_C 	C 	0.0465	0.7222	0.2919	-0.11
Mof_C 	C 	0.9825	0.7209	0.2878	-0.031
Mof_H 	H 	0.9764	0.7497	0.2594	0.057
Mof_C 	C 	0.9306	0.6753	0.3279	0.062
Mof_C 	C 	0.9352	0.6352	0.3647	-0.047
Mof_H 	H 	0.8982	0.6072	0.3914	0.063
Mof_C 	C 	0.9957	0.6298	0.3685	-0.091
Mof_C 	C 	0.0486	0.6719	0.3281	0.043
Mof_H 	H 	0.0866	0.6663	0.3251	0.036
Mof_C 	C 	0.1001	0.7718	0.2514	0.42
Mof_C 	C 	0.9985	0.5781	0.4049	0.333
Mof_C 	C 	0.6333	0.9347	0.0449	-0.034
Mof_C 	C 	0.5762	0.9368	0.0486	-0.074
Mof_H 	H 	0.5425	0.9082	0.078	0.072
Mof_C 	C 	0.5652	0.981	0.0095	0.096
Mof_C 	C 	0.6182	0.0297	0.9723	-0.076
Mof_H 	H 	0.6146	0.0646	0.9518	0.078
Mof_C 	C 	0.675	0.0257	0.9665	-0.027
Mof_C 	C 	0.6852	0.9792	0.0053	-0.029
Mof_H 	H 	0.7263	0.9791	0.0036	0.061
Mof_C 	C 	0.7377	0.0699	0.9179	0.358
Mof_C 	C 	0.6506	0.8888	0.0898	0.373
Mof_C 	C 	0.5968	0.5641	0.4167	0.373
Mof_O 	O 	0.6287	0.7349	0.2426	-0.472
Mof_O 	O 	0.7402	0.7928	0.2248	-0.503
Mof_O 	O 	0.5491	0.5778	0.4245	-0.46
Mof_O 	O 	0.6003	0.5197	0.4501	-0.46
Mof_O 	O 	0.9522	0.5377	0.4445	-0.469
Mof_O 	O 	0.06	0.5852	0.4157	-0.419
Mof_O 	O 	0.152	0.7627	0.2465	-0.464
Mof_O 	O 	0.0939	0.8129	0.2234	-0.491
Mof_O 	O 	0.7059	0.8978	0.0916	-0.486
Mof_O 	O 	0.5948	0.8419	0.116	-0.468
Mof_O 	O 	0.723	0.1157	0.893	-0.443
Mof_O 	O 	0.7842	0.0634	0.9131	-0.511
Mof_N 	N 	0.8236	0.6434	0.3471	-0.081
Mof_N 	N 	0.8644	0.6846	0.3174	-0.076
Mof_N 	N 	0.5054	0.9815	0.0211	-0.093
Mof_Zn	Zn	0.22301	0.81556	0.18072	1.194
Mof_Zn	Zn	0.14791	0.88863	0.15279	1.197
Mof_Zn	Zn	0.4562	0.92587	0.4856	1.197
Mof_C 	C 	0.3022	0.9986	0.2969	-0.061
Mof_C 	C 	0.3423	0.9872	0.3324	0.023
Mof_H 	H 	0.3408	0.9453	0.3314	0.043
Mof_C 	C 	0.3889	0.0382	0.3758	-0.09
Mof_C 	C 	0.3885	0.1008	0.3764	-0.054
Mof_H 	H 	0.4171	0.1352	0.4053	0.066
Mof_C 	C 	0.3498	0.1108	0.338	0.076
Mof_C 	C 	0.3017	0.0617	0.2927	-0.054
Mof_H 	H 	0.274	0.0696	0.2644	0.067
Mof_C 	C 	0.2526	0.9438	0.2446	0.388
Mof_C 	C 	0.2778	0.3243	0.2919	-0.11
Mof_C 	C 	0.2791	0.2616	0.2878	-0.031
Mof_H 	H 	0.2503	0.2267	0.2594	0.057
Mof_C 	C 	0.3247	0.2553	0.3279	0.062
Mof_C 	C 	0.3648	0.3	0.3647	-0.047
Mof_H 	H 	0.3928	0.291	0.3914	0.063
Mof_C 	C 	0.3702	0.3659	0.3685	-0.091
Mof_C 	C 	0.3281	0.3767	0.3281	0.043
Mof_H 	H 	0.3337	0.4203	0.3251	0.036
Mof_C 	C 	0.2282	0.3283	0.2514	0.42
Mof_C 	C 	0.4219	0.4204	0.4049	0.333
Mof_C 	C 	0.0653	0.6986	0.0449	-0.034
Mof_C 	C 	0.0632	0.6394	0.0486	-0.074
Mof_H 	H 	0.0918	0.6343	0.078	0.072
Mof_C 	C 	0.019	0.5842	0.0095	0.096
Mof_C 	C 	0.9703	0.5885	0.9723	-0.076
Mof_H 	H 	0.9354	0.55	0.9518	0.078
Mof_C 	C 	0.9743	0.6493	0.9665	-0.027
Mof_C 	C 	0.0208	0.706	0.0053	-0.029
Mof_H 	H 	0.0209	0.7472	0.0036	0.061
Mof_C 	C 	0.9301	0.6678	0.9179	0.358
Mof_C 	C 	0.1112	0.7618	0.0898	0.373
Mof_C 	C 	0.4359	0.0327	0.4167	0.373
Mof_O 	O 	0.2651	0.8938	0.2426	-0.472
Mof_O 	O 	0.2072	0.9474	0.2248	-0.503
Mof_O 	O 	0.4222	0.9713	0.4245	-0.46
Mof_O 	O 	0.4803	0.0806	0.4501	-0.46
Mof_O 	O 	0.4623	0.4145	0.4445	-0.469
Mof_O 	O 	0.4148	0.4748	0.4157	-0.419
Mof_O 	O 	0.2373	0.3893	0.2465	-0.464
Mof_O 	O 	0.1871	0.281	0.2234	-0.491
Mof_O 	O 	0.1022	0.8081	0.0916	-0.486
Mof_O 	O 	0.1581	0.7529	0.116	-0.468
Mof_O 	O 	0.8843	0.6073	0.893	-0.443
Mof_O 	O 	0.9366	0.7208	0.9131	-0.511
Mof_N 	N 	0.3566	0.1802	0.3471	-0.081
Mof_N 	N 	0.3154	0.1798	0.3174	-0.076
Mof_N 	N 	0.0185	0.5239	0.0211	-0.093
Mof_Zn	Zn	0.81556	0.59255	0.81928	1.194
Mof_Zn	Zn	0.88863	0.74072	0.84721	1.197
Mof_Zn	Zn	0.92587	0.46967	0.5144	1.197
Mof_C 	C 	0.9986	0.6964	0.7031	-0.061
Mof_C 	C 	0.9872	0.6449	0.6676	0.023
Mof_H 	H 	0.9453	0.6045	0.6686	0.043
Mof_C 	C 	0.0382	0.6493	0.6242	-0.09
Mof_C 	C 	0.1008	0.7123	0.6236	-0.054
Mof_H 	H 	0.1352	0.7181	0.5947	0.066
Mof_C 	C 	0.1108	0.761	0.662	0.076
Mof_C 	C 	0.0617	0.76	0.7073	-0.054
Mof_H 	H 	0.0696	0.7956	0.7356	0.067
Mof_C 	C 	0.9438	0.6912	0.7554	0.388
Mof_C 	C 	0.3243	0.0465	0.7081	-0.11
Mof_C 	C 	0.2616	0.9825	0.7122	-0.031
Mof_H 	H 	0.2267	0.9764	0.7406	0.057
Mof_C 	C 	0.2553	0.9306	0.6721	0.062
Mof_C 	C 	0.3	0.9352	0.6353	-0.047
Mof_H 	H 	0.291	0.8982	0.6086	0.063
Mof_C 	C 	0.3659	0.9957	0.6315	-0.091
Mof_C 	C 	0.3767	0.0486	0.6719	0.044
Mof_H 	H 	0.4203	0.0866	0.6749	0.036
Mof_C 	C 	0.3283	0.1001	0.7486	0.42
Mof_C 	C 	0.4204	0.9985	0.5951	0.333
Mof_C 	C 	0.6986	0.6333	0.9551	-0.034
Mof_C 	C 	0.6394	0.5762	0.9514	-0.074
Mof_H 	H 	0.6343	0.5425	0.922	0.072
Mof_C 	C 	0.5842	0.5652	0.9905	0.096
Mof_C 	C 	0.5885	0.6182	0.0277	-0.076
Mof_H 	H 	0.55	0.6146	0.0482	0.078
Mof_C 	C 	0.6493	0.675	0.0335	-0.027
Mof_C 	C 	0.706	0.6852	0.9947	-0.029
Mof_H 	H 	0.7472	0.7263	0.9964	0.061
Mof_C 	C 	0.6678	0.7377	0.0821	0.358
Mof_C 	C 	0.7618	0.6506	0.9102	0.373
Mof_C 	C 	0.0327	0.5968	0.5833	0.373
Mof_O 	O 	0.8938	0.6287	0.7574	-0.472
Mof_O 	O 	0.9474	0.7402	0.7752	-0.503
Mof_O 	O 	0.9713	0.5491	0.5755	-0.46
Mof_O 	O 	0.0806	0.6003	0.5499	-0.46
Mof_O 	O 	0.4145	0.9522	0.5555	-0.469
Mof_O 	O 	0.4748	0.06	0.5843	-0.419
Mof_O 	O 	0.3893	0.152	0.7535	-0.464
Mof_O 	O 	0.281	0.0939	0.7766	-0.491
Mof_O 	O 	0.8081	0.7059	0.9084	-0.486
Mof_O 	O 	0.7529	0.5948	0.884	-0.468
Mof_O 	O 	0.6073	0.723	0.107	-0.443
Mof_O 	O 	0.7208	0.7842	0.0869	-0.511
Mof_N 	N 	0.1802	0.8236	0.6529	-0.081
Mof_N 	N 	0.1798	0.8644	0.6826	-0.076
Mof_N 	N 	0.5239	0.5054	0.9789	-0.093
Mof_Zn	Zn	0.40745	0.22301	0.81928	1.194
Mof_Zn	Zn	0.25928	0.14791	0.84721	1.197
Mof_Zn	Zn	0.53033	0.4562	0.5144	1.197
Mof_C 	C 	0.3036	0.3022	0.7031	-0.061
Mof_C 	C 	0.3551	0.3423	0.6676	0.023
Mof_H 	H 	0.3955	0.3408	0.6686	0.043
Mof_C 	C 	0.3507	0.3889	0.6242	-0.09
Mof_C 	C 	0.2877	0.3885	0.6236	-0.054
Mof_H 	H 	0.2819	0.4171	0.5947	0.066
Mof_C 	C 	0.239	0.3498	0.662	0.076
Mof_C 	C 	0.24	0.3017	0.7073	-0.054
Mof_H 	H 	0.2044	0.274	0.7356	0.067
Mof_C 	C 	0.3088	0.2526	0.7554	0.388
Mof_C 	C 	0.9535	0.2778	0.7081	-0.11
Mof_C 	C 	0.0175	0.2791	0.7122	-0.031
Mof_H 	H 	0.0236	0.2503	0.7406	0.057
Mof_C 	C 	0.0694	0.3247	0.6721	0.062
Mof_C 	C 	0.0648	0.3648	0.6353	-0.047
Mof_H 	H 	0.1018	0.3928	0.6086	0.063
Mof_C 	C 	0.0043	0.3702	0.6315	-0.091
Mof_C 	C 	0.9514	0.3281	0.6719	0.043
Mof_H 	H 	0.9134	0.3337	0.6749	0.036
Mof_C 	C 	0.8999	0.2282	0.7486	0.42
Mof_C 	C 	0.0015	0.4219	0.5951	0.333
Mof_C 	C 	0.3667	0.0653	0.9551	-0.034
Mof_C 	C 	0.4238	0.0632	0.9514	-0.074
Mof_H 	H 	0.4575	0.0918	0.922	0.072
Mof_C 	C 	0.4348	0.019	0.9905	0.096
Mof_C 	C 	0.3818	0.9703	0.0277	-0.076
Mof_H 	H 	0.3854	0.9354	0.0482	0.078
Mof_C 	C 	0.325	0.9743	0.0335	-0.027
Mof_C 	C 	0.3148	0.0208	0.9947	-0.029
Mof_H 	H 	0.2737	0.0209	0.9964	0.061
Mof_C 	C 	0.2623	0.9301	0.0821	0.358
Mof_C 	C 	0.3494	0.1112	0.9102	0.373
Mof_C 	C 	0.4032	0.4359	0.5833	0.373
Mof_O 	O 	0.3713	0.2651	0.7574	-0.472
Mof_O 	O 	0.2598	0.2072	0.7752	-0.503
Mof_O 	O 	0.4509	0.4222	0.5755	-0.46
Mof_O 	O 	0.3997	0.4803	0.5499	-0.46
Mof_O 	O 	0.0478	0.4623	0.5555	-0.469
Mof_O 	O 	0.94	0.4148	0.5843	-0.419
Mof_O 	O 	0.848	0.2373	0.7535	-0.464
Mof_O 	O 	0.9061	0.1871	0.7766	-0.491
Mof_O 	O 	0.2941	0.1022	0.9084	-0.486
Mof_O 	O 	0.4052	0.1581	0.884	-0.468
Mof_O 	O 	0.277	0.8843	0.107	-0.443
Mof_O 	O 	0.2158	0.9366	0.0869	-0.511
Mof_N 	N 	0.1764	0.3566	0.6529	-0.081
Mof_N 	N 	0.1356	0.3154	0.6826	-0.076
Mof_N 	N 	0.4946	0.0185	0.9789	-0.093
Mof_Zn	Zn	0.77699	0.18444	0.81928	1.194
Mof_Zn	Zn	0.85209	0.11137	0.84721	1.197
Mof_Zn	Zn	0.5438	0.07413	0.5144	1.197
Mof_C 	C 	0.6978	0.0014	0.7031	-0.061
Mof_C 	C 	0.6577	0.0128	0.6676	0.023
Mof_H 	H 	0.6592	0.0547	0.6686	0.043
Mof_C 	C 	0.6111	0.9618	0.6242	-0.09
Mof_C 	C 	0.6115	0.8992	0.6236	-0.054
Mof_H 	H 	0.5829	0.8648	0.5947	0.066
Mof_C 	C 	0.6502	0.8892	0.662	0.076
Mof_C 	C 	0.6983	0.9383	0.7073	-0.054
Mof_H 	H 	0.726	0.9304	0.7356	0.067
Mof_C 	C 	0.7474	0.0562	0.7554	0.388
Mof_C 	C 	0.7222	0.6757	0.7081	-0.11
Mof_C 	C 	0.7209	0.7384	0.7122	-0.031
Mof_H 	H 	0.7497	0.7733	0.7406	0.057
Mof_C 	C 	0.6753	0.7447	0.6721	0.062
Mof_C 	C 	0.6352	0.7	0.6353	-0.047
Mof_H 	H 	0.6072	0.709	0.6086	0.063
Mof_C 	C 	0.6298	0.6341	0.6315	-0.091
Mof_C 	C 	0.6719	0.6233	0.6719	0.043
Mof_H 	H 	0.6663	0.5797	0.6749	0.036
Mof_C 	C 	0.7718	0.6717	0.7486	0.42
Mof_C 	C 	0.5781	0.5796	0.5951	0.333
Mof_C 	C 	0.9347	0.3014	0.9551	-0.034
Mof_C 	C 	0.9368	0.3606	0.9514	-0.074
Mof_H 	H 	0.9082	0.3657	0.922	0.072
Mof_C 	C 	0.981	0.4158	0.9905	0.096
Mof_C 	C 	0.0297	0.4115	0.0277	-0.076
Mof_H 	H 	0.0646	0.45	0.0482	0.078
Mof_C 	C 	0.0257	0.3507	0.0335	-0.027
Mof_C 	C 	0.9792	0.294	0.9947	-0.029
Mof_H 	H 	0.9791	0.2528	0.9964	0.061
Mof_C 	C 	0.0699	0.3322	0.0821	0.358
Mof_C 	C 	0.8888	0.2382	0.9102	0.373
Mof_C 	C 	0.5641	0.9673	0.5833	0.373
Mof_O 	O 	0.7349	0.1062	0.7574	-0.472
Mof_O 	O 	0.7928	0.0526	0.7752	-0.503
Mof_O 	O 	0.5778	0.0287	0.5755	-0.46
Mof_O 	O 	0.5197	0.9194	0.5499	-0.46
Mof_O 	O 	0.5377	0.5855	0.5555	-0.469
Mof_O 	O 	0.5852	0.5252	0.5843	-0.419
Mof_O 	O 	0.7627	0.6107	0.7535	-0.464
Mof_O 	O 	0.8129	0.719	0.7766	-0.491
Mof_O 	O 	0.8978	0.1919	0.9084	-0.486
Mof_O 	O 	0.8419	0.2471	0.884	-0.468
Mof_O 	O 	0.1157	0.3927	0.107	-0.443
Mof_O 	O 	0.0634	0.2792	0.0869	-0.511
Mof_N 	N 	0.6434	0.8198	0.6529	-0.081
Mof_N 	N 	0.6846	0.8202	0.6826	-0.076
Mof_N 	N 	0.9815	0.4761	0.9789	-0.093
_end
