data_functionalizedCrystal
_audit_creation_method	'EQeq! by Chris Wilmer'
_symmetry_space_group_name_H-M	'P1'
_symmetry_Int_Tables_number	1
_symmetry_cell_setting	triclinic
loop_
_symmetry_equiv_pos_as_xyz
  x,y,z
_cell_length_a	11.6608
_cell_length_b	39.3981
_cell_length_c	24.4617
_cell_angle_alpha	90
_cell_angle_beta	101.297
_cell_angle_gamma	90
loop_
_atom_site_label
_atom_site_type_symbol
_atom_site_fract_x
_atom_site_fract_y
_atom_site_fract_z
_atom_site_charge
Mof_Mn	Mn	0.69405	0.38032	0.61951	0.973
Mof_Mn	Mn	0.88221	0.04169	0.36714	0.813
Mof_Mn	Mn	0.72126	0.19883	0.37166	0.845
Mof_O 	O 	0.6033	0.2353	0.38061	-0.445
Mof_O 	O 	0.4728	0.24986	0.30544	-0.414
Mof_O 	O 	0.6949	0.30458	0.54476	-0.433
Mof_O 	O 	0.6061	0.35382	0.54961	-0.438
Mof_O 	O 	0.573	0.46191	0.54371	-0.421
Mof_O 	O 	0.7097	0.42376	0.56804	-0.445
Mof_O 	O 	0.4852	0.50269	0.34502	-0.459
Mof_O 	O 	0.612	0.49065	0.29322	-0.401
Mof_O 	O 	0.7251	0.08861	0.31203	-0.432
Mof_O 	O 	0.8122	0.04608	0.2775	-0.43
Mof_O 	O 	0.4891	0.17008	0.18741	-0.432
Mof_O 	O 	0.3602	0.14776	0.1188	-0.468
Mof_O 	O 	0.0328	0.09313	0.13117	-0.492
Mof_O 	O 	0.9403	0.07162	0.19403	-0.423
Mof_O 	O 	0.6978	0.20151	0.27462	-0.446
Mof_O 	O 	0.8164	0.16264	0.31899	-0.442
Mof_C 	C 	0.5292	0.25542	0.35356	0.423
Mof_C 	C 	0.626	0.32756	0.52427	0.427
Mof_C 	C 	0.6433	0.44136	0.53116	0.407
Mof_C 	C 	0.5704	0.48577	0.33633	0.413
Mof_C 	C 	0.7402	0.07051	0.27158	0.443
Mof_C 	C 	0.4553	0.14625	0.15482	0.459
Mof_C 	C 	0.9613	0.09543	0.16444	0.484
Mof_C 	C 	0.7685	0.17714	0.27402	0.433
Mof_C 	C 	0.5105	0.28764	0.38368	-0.314
Mof_C 	C 	0.4332	0.31254	0.35849	0.279
Mof_H 	H 	0.3907	0.309	0.3226	-0.107
Mof_C 	C 	0.4184	0.34283	0.3862	-0.541
Mof_C 	C 	0.4826	0.34712	0.43977	0.285
Mof_H 	H 	0.4741	0.3671	0.4588	-0.099
Mof_C 	C 	0.5591	0.32244	0.46569	-0.323
Mof_C 	C 	0.573	0.29266	0.43752	0.181
Mof_H 	H 	0.6242	0.276	0.4547	-0.03
Mof_C 	C 	0.3339	0.37021	0.3569	1.143
Mof_C 	C 	0.3043	0.3959	0.3977	-1.635
Mof_H 	H 	0.2652	0.3847	0.4238	0.455
Mof_H 	H 	0.3749	0.4062	0.4174	0.501
Mof_H 	H 	0.254	0.413	0.3779	0.463
Mof_C 	C 	0.3968	0.3883	0.3141	-1.523
Mof_H 	H 	0.3469	0.4057	0.2949	0.444
Mof_H 	H 	0.4684	0.3983	0.3334	0.468
Mof_H 	H 	0.4136	0.372	0.2876	0.437
Mof_C 	C 	0.2223	0.355	0.3243	-1.595
Mof_H 	H 	0.181	0.3438	0.3494	0.443
Mof_H 	H 	0.1742	0.3726	0.3048	0.439
Mof_H 	H 	0.2409	0.3388	0.298	0.464
Mof_C 	C 	0.6581	0.43804	0.47152	-0.32
Mof_C 	C 	0.7276	0.4124	0.45603	0.32
Mof_H 	H 	0.7625	0.3968	0.4826	-0.106
Mof_C 	C 	0.7459	0.40966	0.4017	-0.596
Mof_C 	C 	0.6931	0.434	0.36338	0.315
Mof_H 	H 	0.7048	0.433	0.3269	-0.131
Mof_C 	C 	0.6235	0.4596	0.37834	-0.337
Mof_C 	C 	0.6036	0.46134	0.43232	0.19
Mof_H 	H 	0.5544	0.4779	0.4421	-0.043
Mof_C 	C 	0.8191	0.38126	0.38317	1.282
Mof_C 	C 	0.9097	0.39616	0.3541	-1.777
Mof_H 	H 	0.8718	0.4093	0.3227	0.518
Mof_H 	H 	0.9539	0.3782	0.3416	0.501
Mof_H 	H 	0.9613	0.4105	0.3796	0.508
Mof_C 	C 	0.7368	0.35753	0.3442	-1.77
Mof_H 	H 	0.697	0.3701	0.3125	0.514
Mof_H 	H 	0.6805	0.3481	0.3637	0.548
Mof_H 	H 	0.7813	0.3396	0.3319	0.515
Mof_C 	C 	0.8824	0.36014	0.433	-1.71
Mof_H 	H 	0.9351	0.3745	0.458	0.495
Mof_H 	H 	0.9257	0.3422	0.4199	0.496
Mof_H 	H 	0.8259	0.3506	0.4524	0.532
Mof_C 	C 	0.6689	0.07849	0.2154	-0.316
Mof_C 	C 	0.6766	0.05923	0.16823	0.357
Mof_H 	H 	0.7252	0.0403	0.1719	-0.113
Mof_C 	C 	0.6127	0.06797	0.11572	-0.62
Mof_C 	C 	0.5369	0.09551	0.11198	0.369
Mof_H 	H 	0.4897	0.1008	0.0778	-0.133
Mof_C 	C 	0.5302	0.11546	0.15849	-0.335
Mof_C 	C 	0.5982	0.10718	0.21002	0.248
Mof_H 	H 	0.5964	0.1208	0.2409	-0.041
Mof_C 	C 	0.6344	0.04838	0.06416	1.372
Mof_C 	C 	0.6132	0.01051	0.0714	-1.825
Mof_H 	H 	0.6268	0.9984	0.0392	0.531
Mof_H 	H 	0.5339	0.007	0.0756	0.525
Mof_H 	H 	0.6657	0.0023	0.104	0.562
Mof_C 	C 	0.5551	0.06052	0.0111	-1.831
Mof_H 	H 	0.5683	0.0843	0.0059	0.521
Mof_H 	H 	0.475	0.057	0.0138	0.544
Mof_H 	H 	0.5719	0.048	0.9799	0.512
Mof_C 	C 	0.7616	0.05281	0.0594	-1.936
Mof_H 	H 	0.7772	0.0764	0.0545	0.592
Mof_H 	H 	0.7764	0.0402	0.028	0.586
Mof_H 	H 	0.8114	0.0447	0.0928	0.613
Mof_C 	C 	0.8958	0.12792	0.16718	-0.328
Mof_C 	C 	0.8609	0.14794	0.11992	0.363
Mof_H 	H 	0.8849	0.1422	0.087	-0.124
Mof_C 	C 	0.7903	0.17648	0.12118	-0.609
Mof_C 	C 	0.7605	0.18544	0.17181	0.353
Mof_H 	H 	0.7138	0.2044	0.1734	-0.101
Mof_C 	C 	0.7997	0.16645	0.22028	-0.315
Mof_C 	C 	0.8641	0.13718	0.21741	0.25
Mof_H 	H 	0.8863	0.1237	0.2489	-0.04
Mof_C 	C 	0.7431	0.19689	0.06777	1.401
Mof_C 	C 	0.754	0.2355	0.0831	-0.737
Mof_H 	H 	0.6873	0.2424	0.098	0.332
Mof_H 	H 	0.7569	0.2485	0.0502	0.182
Mof_H 	H 	0.824	0.2392	0.1104	0.207
Mof_C 	C 	0.711	0.1736	0.0205	-0.977
Mof_H 	H 	0.6403	0.1618	0.0235	0.251
Mof_H 	H 	0.7727	0.1574	0.0208	0.11
Mof_H 	H 	0.6987	0.1862	0.9863	0.104
Mof_C 	C 	0.6084	0.1902	0.0532	-0.833
Mof_H 	H 	0.5856	0.1771	0.0823	0.234
Mof_H 	H 	0.5895	0.178	0.0186	0.226
Mof_H 	H 	0.5675	0.2115	0.0495	0.223
Mof_C 	C 	0.864	0.2131	0.0532	-0.274
Mof_H 	H 	0.9286	0.2079	0.0827	0.056
Mof_H 	H 	0.8557	0.2373	0.0494	0.043
Mof_H 	H 	0.8774	0.2036	0.0189	0.161
Mof_C 	C 	0.8	0.1899	0.0221	-1.458
Mof_H 	H 	0.7557	0.1731	0.9983	0.749
Mof_H 	H 	0.8772	0.1815	0.036	0.425
Mof_H 	H 	0.804	0.2103	0.0012	0.379
Mof_C 	C 	0.66	0.2221	0.0723	-0.894
Mof_H 	H 	0.5912	0.2116	0.0807	0.328
Mof_H 	H 	0.6403	0.2342	0.0378	0.257
Mof_H 	H 	0.6923	0.2375	0.1017	0.106
Mof_Mn	Mn	0.19405	0.88032	0.61951	0.971
Mof_Mn	Mn	0.38221	0.54169	0.36714	0.807
Mof_Mn	Mn	0.22126	0.69883	0.37166	0.84
Mof_O 	O 	0.1033	0.7353	0.38061	-0.445
Mof_O 	O 	0.9728	0.74986	0.30544	-0.385
Mof_O 	O 	0.1949	0.80458	0.54476	-0.44
Mof_O 	O 	0.1061	0.85382	0.54961	-0.45
Mof_O 	O 	0.073	0.96191	0.54371	-0.427
Mof_O 	O 	0.2097	0.92376	0.56804	-0.445
Mof_O 	O 	0.9852	0.00269	0.34502	-0.427
Mof_O 	O 	0.112	0.99065	0.29322	-0.393
Mof_O 	O 	0.2251	0.58861	0.31203	-0.434
Mof_O 	O 	0.3122	0.54608	0.2775	-0.436
Mof_O 	O 	0.9891	0.67008	0.18741	-0.417
Mof_O 	O 	0.8602	0.64776	0.1188	-0.468
Mof_O 	O 	0.5328	0.59313	0.13117	-0.468
Mof_O 	O 	0.4403	0.57162	0.19403	-0.43
Mof_O 	O 	0.1978	0.70151	0.27462	-0.445
Mof_O 	O 	0.3164	0.66264	0.31899	-0.444
Mof_C 	C 	0.0292	0.75542	0.35356	0.411
Mof_C 	C 	0.126	0.82756	0.52427	0.448
Mof_C 	C 	0.1433	0.94136	0.53116	0.404
Mof_C 	C 	0.0704	0.98577	0.33633	0.376
Mof_C 	C 	0.2402	0.57051	0.27158	0.444
Mof_C 	C 	0.9553	0.64625	0.15482	0.476
Mof_C 	C 	0.4613	0.59543	0.16444	0.454
Mof_C 	C 	0.2685	0.67714	0.27402	0.429
Mof_C 	C 	0.0105	0.78764	0.38368	-0.377
Mof_C 	C 	0.9332	0.81254	0.35849	0.364
Mof_H 	H 	0.8907	0.809	0.3226	-0.133
Mof_C 	C 	0.9184	0.84283	0.3862	-0.615
Mof_C 	C 	0.9826	0.84712	0.43977	0.376
Mof_H 	H 	0.9741	0.8671	0.4588	-0.123
Mof_C 	C 	0.0591	0.82244	0.46569	-0.394
Mof_C 	C 	0.073	0.79266	0.43752	0.232
Mof_H 	H 	0.1242	0.776	0.4547	-0.05
Mof_C 	C 	0.8339	0.87021	0.3569	1.242
Mof_C 	C 	0.8043	0.8959	0.3977	-1.756
Mof_H 	H 	0.7652	0.8847	0.4238	0.494
Mof_H 	H 	0.8749	0.9062	0.4174	0.543
Mof_H 	H 	0.754	0.913	0.3779	0.502
Mof_C 	C 	0.8968	0.8883	0.3141	-1.634
Mof_H 	H 	0.8469	0.9057	0.2949	0.48
Mof_H 	H 	0.9684	0.8983	0.3334	0.51
Mof_H 	H 	0.9136	0.872	0.2876	0.476
Mof_C 	C 	0.7223	0.855	0.3243	-1.714
Mof_H 	H 	0.681	0.8438	0.3494	0.483
Mof_H 	H 	0.6742	0.8726	0.3048	0.478
Mof_H 	H 	0.7409	0.8388	0.298	0.502
Mof_C 	C 	0.1581	0.93804	0.47152	-0.314
Mof_C 	C 	0.2276	0.9124	0.45603	0.302
Mof_H 	H 	0.2625	0.8968	0.4826	-0.1
Mof_C 	C 	0.2459	0.90966	0.4017	-0.572
Mof_C 	C 	0.1931	0.934	0.36338	0.291
Mof_H 	H 	0.2048	0.933	0.3269	-0.123
Mof_C 	C 	0.1235	0.9596	0.37834	-0.324
Mof_C 	C 	0.1036	0.96134	0.43232	0.175
Mof_H 	H 	0.0544	0.9779	0.4421	-0.046
Mof_C 	C 	0.3191	0.88126	0.38317	1.226
Mof_C 	C 	0.4097	0.89616	0.3541	-1.702
Mof_H 	H 	0.3718	0.9093	0.3227	0.493
Mof_H 	H 	0.4539	0.8782	0.3416	0.472
Mof_H 	H 	0.4613	0.9105	0.3796	0.479
Mof_C 	C 	0.2368	0.85753	0.3442	-1.704
Mof_H 	H 	0.197	0.8701	0.3125	0.492
Mof_H 	H 	0.1805	0.8481	0.3637	0.523
Mof_H 	H 	0.2813	0.8396	0.3319	0.494
Mof_C 	C 	0.3824	0.86014	0.433	-1.642
Mof_H 	H 	0.4351	0.8745	0.458	0.47
Mof_H 	H 	0.4257	0.8422	0.4199	0.47
Mof_H 	H 	0.3259	0.8506	0.4524	0.509
Mof_C 	C 	0.1689	0.57849	0.2154	-0.321
Mof_C 	C 	0.1766	0.55923	0.16823	0.361
Mof_H 	H 	0.2252	0.5403	0.1719	-0.116
Mof_C 	C 	0.1127	0.56797	0.11572	-0.625
Mof_C 	C 	0.0369	0.59551	0.11198	0.339
Mof_H 	H 	0.9897	0.6008	0.0778	-0.109
Mof_C 	C 	0.0302	0.61546	0.15849	-0.348
Mof_C 	C 	0.0982	0.60718	0.21002	0.251
Mof_H 	H 	0.0964	0.6208	0.2409	-0.047
Mof_C 	C 	0.1344	0.54838	0.06416	1.405
Mof_C 	C 	0.1132	0.51051	0.0714	-1.856
Mof_H 	H 	0.1268	0.4984	0.0392	0.539
Mof_H 	H 	0.0339	0.507	0.0756	0.529
Mof_H 	H 	0.1657	0.5023	0.104	0.57
Mof_C 	C 	0.0551	0.56052	0.0111	-1.931
Mof_H 	H 	0.0683	0.5843	0.0059	0.543
Mof_H 	H 	0.975	0.557	0.0138	0.587
Mof_H 	H 	0.0719	0.548	0.9799	0.534
Mof_C 	C 	0.2616	0.55281	0.0594	-1.964
Mof_H 	H 	0.2772	0.5764	0.0545	0.598
Mof_H 	H 	0.2764	0.5402	0.028	0.592
Mof_H 	H 	0.3114	0.5447	0.0928	0.618
Mof_C 	C 	0.3958	0.62792	0.16718	-0.32
Mof_C 	C 	0.3609	0.64794	0.11992	0.347
Mof_H 	H 	0.3849	0.6422	0.087	-0.123
Mof_C 	C 	0.2903	0.67648	0.12118	-0.591
Mof_C 	C 	0.2605	0.68544	0.17181	0.34
Mof_H 	H 	0.2138	0.7044	0.1734	-0.099
Mof_C 	C 	0.2997	0.66645	0.22028	-0.311
Mof_C 	C 	0.3641	0.63718	0.21741	0.241
Mof_H 	H 	0.3863	0.6237	0.2489	-0.042
Mof_C 	C 	0.2431	0.69689	0.06777	1.357
Mof_C 	C 	0.254	0.7355	0.0831	-0.722
Mof_H 	H 	0.1873	0.7424	0.098	0.323
Mof_H 	H 	0.2569	0.7485	0.0502	0.178
Mof_H 	H 	0.324	0.7392	0.1104	0.201
Mof_C 	C 	0.211	0.6736	0.0205	-0.949
Mof_H 	H 	0.1403	0.6618	0.0235	0.242
Mof_H 	H 	0.2727	0.6574	0.0208	0.105
Mof_H 	H 	0.1987	0.6862	0.9863	0.098
Mof_C 	C 	0.1084	0.6902	0.0532	-0.801
Mof_H 	H 	0.0856	0.6771	0.0823	0.22
Mof_H 	H 	0.0895	0.678	0.0186	0.211
Mof_H 	H 	0.0675	0.7115	0.0495	0.21
Mof_C 	C 	0.364	0.7131	0.0532	-0.259
Mof_H 	H 	0.4286	0.7079	0.0827	0.046
Mof_H 	H 	0.3557	0.7373	0.0494	0.037
Mof_H 	H 	0.3774	0.7036	0.0189	0.152
Mof_C 	C 	0.3	0.6899	0.0221	-1.42
Mof_H 	H 	0.2557	0.6731	0.9983	0.729
Mof_H 	H 	0.3772	0.6815	0.036	0.412
Mof_H 	H 	0.304	0.7103	0.0012	0.369
Mof_C 	C 	0.16	0.7221	0.0723	-0.866
Mof_H 	H 	0.0912	0.7116	0.0807	0.315
Mof_H 	H 	0.1403	0.7342	0.0378	0.247
Mof_H 	H 	0.1923	0.7375	0.1017	0.102
Mof_Mn	Mn	0.30595	0.38032	0.88049	0.971
Mof_Mn	Mn	0.11779	0.04169	0.13286	0.806
Mof_Mn	Mn	0.27874	0.19883	0.12834	0.839
Mof_O 	O 	0.3967	0.2353	0.11939	-0.445
Mof_O 	O 	0.5272	0.24986	0.19456	-0.413
Mof_O 	O 	0.3051	0.30458	0.95524	-0.434
Mof_O 	O 	0.3939	0.35382	0.95039	-0.437
Mof_O 	O 	0.427	0.46191	0.95629	-0.419
Mof_O 	O 	0.2903	0.42376	0.93196	-0.446
Mof_O 	O 	0.5148	0.50269	0.15498	-0.457
Mof_O 	O 	0.388	0.49065	0.20678	-0.4
Mof_O 	O 	0.2749	0.08861	0.18797	-0.431
Mof_O 	O 	0.1878	0.04608	0.2225	-0.434
Mof_O 	O 	0.5109	0.17008	0.31259	-0.431
Mof_O 	O 	0.6398	0.14776	0.3812	-0.467
Mof_O 	O 	0.9672	0.09313	0.36883	-0.442
Mof_O 	O 	0.0597	0.07162	0.30597	-0.426
Mof_O 	O 	0.3022	0.20151	0.22538	-0.447
Mof_O 	O 	0.1836	0.16264	0.18101	-0.449
Mof_C 	C 	0.4708	0.25542	0.14644	0.426
Mof_C 	C 	0.374	0.32756	0.97573	0.429
Mof_C 	C 	0.3567	0.44136	0.96884	0.402
Mof_C 	C 	0.4296	0.48577	0.16367	0.408
Mof_C 	C 	0.2598	0.07051	0.22842	0.442
Mof_C 	C 	0.5447	0.14625	0.34518	0.459
Mof_C 	C 	0.0387	0.09543	0.33556	0.421
Mof_C 	C 	0.2315	0.17714	0.22598	0.43
Mof_C 	C 	0.4895	0.28764	0.11632	-0.32
Mof_C 	C 	0.5668	0.31254	0.14151	0.292
Mof_H 	H 	0.6093	0.309	0.1774	-0.111
Mof_C 	C 	0.5816	0.34283	0.1138	-0.561
Mof_C 	C 	0.5174	0.34712	0.06023	0.297
Mof_H 	H 	0.5259	0.3671	0.0412	-0.103
Mof_C 	C 	0.4409	0.32244	0.03431	-0.328
Mof_C 	C 	0.427	0.29266	0.06248	0.187
Mof_H 	H 	0.3758	0.276	0.0453	-0.032
Mof_C 	C 	0.6661	0.37021	0.1431	1.19
Mof_C 	C 	0.6957	0.3959	0.1023	-1.7
Mof_H 	H 	0.7348	0.3847	0.0762	0.479
Mof_H 	H 	0.6251	0.4062	0.0826	0.522
Mof_H 	H 	0.746	0.413	0.1221	0.489
Mof_C 	C 	0.6032	0.3883	0.1859	-1.571
Mof_H 	H 	0.6531	0.4057	0.2051	0.459
Mof_H 	H 	0.5316	0.3983	0.1666	0.482
Mof_H 	H 	0.5864	0.372	0.2124	0.451
Mof_C 	C 	0.7777	0.355	0.1757	-1.667
Mof_H 	H 	0.819	0.3438	0.1506	0.473
Mof_H 	H 	0.8258	0.3726	0.1952	0.469
Mof_H 	H 	0.7591	0.3388	0.202	0.488
Mof_C 	C 	0.3419	0.43804	0.02848	-0.308
Mof_C 	C 	0.2724	0.4124	0.04397	0.299
Mof_H 	H 	0.2375	0.3968	0.0174	-0.098
Mof_C 	C 	0.2541	0.40966	0.0983	-0.563
Mof_C 	C 	0.3069	0.434	0.13662	0.293
Mof_H 	H 	0.2952	0.433	0.1731	-0.122
Mof_C 	C 	0.3765	0.4596	0.12166	-0.327
Mof_C 	C 	0.3964	0.46134	0.06768	0.178
Mof_H 	H 	0.4456	0.4779	0.0579	-0.039
Mof_C 	C 	0.1809	0.38126	0.11683	1.204
Mof_C 	C 	0.0903	0.39616	0.1459	-1.665
Mof_H 	H 	0.1282	0.4093	0.1773	0.48
Mof_H 	H 	0.0461	0.3782	0.1584	0.456
Mof_H 	H 	0.0387	0.4105	0.1204	0.464
Mof_C 	C 	0.2632	0.35753	0.1558	-1.685
Mof_H 	H 	0.303	0.3701	0.1875	0.489
Mof_H 	H 	0.3195	0.3481	0.1363	0.522
Mof_H 	H 	0.2187	0.3396	0.1681	0.487
Mof_C 	C 	0.1176	0.36014	0.067	-1.611
Mof_H 	H 	0.0649	0.3745	0.042	0.457
Mof_H 	H 	0.0743	0.3422	0.0801	0.455
Mof_H 	H 	0.1741	0.3506	0.0476	0.499
Mof_C 	C 	0.3311	0.07849	0.2846	-0.315
Mof_C 	C 	0.3234	0.05923	0.33177	0.354
Mof_H 	H 	0.2748	0.0403	0.3281	-0.112
Mof_C 	C 	0.3873	0.06797	0.38428	-0.614
Mof_C 	C 	0.4631	0.09551	0.38802	0.366
Mof_H 	H 	0.5103	0.1008	0.4222	-0.132
Mof_C 	C 	0.4698	0.11546	0.34151	-0.333
Mof_C 	C 	0.4018	0.10718	0.28998	0.247
Mof_H 	H 	0.4036	0.1208	0.2591	-0.04
Mof_C 	C 	0.3656	0.04838	0.43584	1.358
Mof_C 	C 	0.3868	0.01051	0.4286	-1.812
Mof_H 	H 	0.3732	0.9984	0.4608	0.527
Mof_H 	H 	0.4661	0.007	0.4244	0.521
Mof_H 	H 	0.3343	0.0023	0.396	0.558
Mof_C 	C 	0.4449	0.06052	0.4889	-1.818
Mof_H 	H 	0.4317	0.0843	0.4941	0.517
Mof_H 	H 	0.525	0.057	0.4862	0.539
Mof_H 	H 	0.4281	0.048	0.5201	0.508
Mof_C 	C 	0.2384	0.05281	0.4406	-1.906
Mof_H 	H 	0.2228	0.0764	0.4455	0.579
Mof_H 	H 	0.2236	0.0402	0.472	0.572
Mof_H 	H 	0.1886	0.0447	0.4072	0.598
Mof_C 	C 	0.1042	0.12792	0.33282	-0.317
Mof_C 	C 	0.1391	0.14794	0.38008	0.347
Mof_H 	H 	0.1151	0.1422	0.413	-0.127
Mof_C 	C 	0.2097	0.17648	0.37882	-0.598
Mof_C 	C 	0.2395	0.18544	0.32819	0.343
Mof_H 	H 	0.2862	0.2044	0.3266	-0.099
Mof_C 	C 	0.2003	0.16645	0.27972	-0.314
Mof_C 	C 	0.1359	0.13718	0.28259	0.237
Mof_H 	H 	0.1137	0.1237	0.2511	-0.045
Mof_C 	C 	0.2569	0.19689	0.43223	1.378
Mof_C 	C 	0.246	0.2355	0.4169	-0.735
Mof_H 	H 	0.3127	0.2424	0.402	0.328
Mof_H 	H 	0.2431	0.2485	0.4498	0.183
Mof_H 	H 	0.176	0.2392	0.3896	0.202
Mof_C 	C 	0.289	0.1736	0.4795	-0.979
Mof_H 	H 	0.3597	0.1618	0.4765	0.254
Mof_H 	H 	0.2273	0.1574	0.4792	0.111
Mof_H 	H 	0.3013	0.1862	0.5137	0.106
Mof_C 	C 	0.3916	0.1902	0.4468	-0.818
Mof_H 	H 	0.4144	0.1771	0.4177	0.23
Mof_H 	H 	0.4105	0.178	0.4814	0.22
Mof_H 	H 	0.4325	0.2115	0.4505	0.219
Mof_C 	C 	0.136	0.2131	0.4468	-0.246
Mof_H 	H 	0.0714	0.2079	0.4173	0.036
Mof_H 	H 	0.1443	0.2373	0.4506	0.03
Mof_H 	H 	0.1226	0.2036	0.4811	0.145
Mof_C 	C 	0.2	0.1899	0.4779	-1.433
Mof_H 	H 	0.2443	0.1731	0.5017	0.741
Mof_H 	H 	0.1228	0.1815	0.464	0.412
Mof_H 	H 	0.196	0.2103	0.4988	0.372
Mof_C 	C 	0.34	0.2221	0.4277	-0.877
Mof_H 	H 	0.4088	0.2116	0.4193	0.321
Mof_H 	H 	0.3597	0.2342	0.4622	0.253
Mof_H 	H 	0.3077	0.2375	0.3983	0.105
Mof_Mn	Mn	0.80595	0.88032	0.88049	0.974
Mof_Mn	Mn	0.61779	0.54169	0.13286	0.811
Mof_Mn	Mn	0.77874	0.69883	0.12834	0.847
Mof_O 	O 	0.8967	0.7353	0.11939	-0.442
Mof_O 	O 	0.0272	0.74986	0.19456	-0.43
Mof_O 	O 	0.8051	0.80458	0.95524	-0.426
Mof_O 	O 	0.8939	0.85382	0.95039	-0.424
Mof_O 	O 	0.927	0.96191	0.95629	-0.411
Mof_O 	O 	0.7903	0.92376	0.93196	-0.445
Mof_O 	O 	0.0148	0.00269	0.15498	-0.482
Mof_O 	O 	0.888	0.99065	0.20678	-0.397
Mof_O 	O 	0.7749	0.58861	0.18797	-0.428
Mof_O 	O 	0.6878	0.54608	0.2225	-0.434
Mof_O 	O 	0.0109	0.67008	0.31259	-0.434
Mof_O 	O 	0.1398	0.64776	0.3812	-0.465
Mof_O 	O 	0.4672	0.59313	0.36883	-0.468
Mof_O 	O 	0.5597	0.57162	0.30597	-0.43
Mof_O 	O 	0.8022	0.70151	0.22538	-0.439
Mof_O 	O 	0.6836	0.66264	0.18101	-0.445
Mof_C 	C 	0.9708	0.75542	0.14644	0.436
Mof_C 	C 	0.874	0.82756	0.97573	0.411
Mof_C 	C 	0.8567	0.94136	0.96884	0.407
Mof_C 	C 	0.9296	0.98577	0.16367	0.442
Mof_C 	C 	0.7598	0.57051	0.22842	0.443
Mof_C 	C 	0.0447	0.64625	0.34518	0.437
Mof_C 	C 	0.5387	0.59543	0.33556	0.457
Mof_C 	C 	0.7315	0.67714	0.22598	0.431
Mof_C 	C 	0.9895	0.78764	0.11632	-0.259
Mof_C 	C 	0.0668	0.81254	0.14151	0.209
Mof_H 	H 	0.1093	0.809	0.1774	-0.085
Mof_C 	C 	0.0816	0.84283	0.1138	-0.489
Mof_C 	C 	0.0174	0.84712	0.06023	0.21
Mof_H 	H 	0.0259	0.8671	0.0412	-0.08
Mof_C 	C 	0.9409	0.82244	0.03431	-0.26
Mof_C 	C 	0.927	0.79266	0.06248	0.138
Mof_H 	H 	0.8758	0.776	0.0453	-0.014
Mof_C 	C 	0.1661	0.87021	0.1431	1.094
Mof_C 	C 	0.1957	0.8959	0.1023	-1.583
Mof_H 	H 	0.2348	0.8847	0.0762	0.441
Mof_H 	H 	0.1251	0.9062	0.0826	0.482
Mof_H 	H 	0.246	0.913	0.1221	0.45
Mof_C 	C 	0.1032	0.8883	0.1859	-1.463
Mof_H 	H 	0.1531	0.9057	0.2051	0.425
Mof_H 	H 	0.0316	0.8983	0.1666	0.442
Mof_H 	H 	0.0864	0.872	0.2124	0.414
Mof_C 	C 	0.2777	0.855	0.1757	-1.552
Mof_H 	H 	0.319	0.8438	0.1506	0.434
Mof_H 	H 	0.3258	0.8726	0.1952	0.43
Mof_H 	H 	0.2591	0.8388	0.202	0.451
Mof_C 	C 	0.8419	0.93804	0.02848	-0.315
Mof_C 	C 	0.7724	0.9124	0.04397	0.317
Mof_H 	H 	0.7375	0.8968	0.0174	-0.104
Mof_C 	C 	0.7541	0.90966	0.0983	-0.586
Mof_C 	C 	0.8069	0.934	0.13662	0.316
Mof_H 	H 	0.7952	0.933	0.1731	-0.13
Mof_C 	C 	0.8765	0.9596	0.12166	-0.339
Mof_C 	C 	0.8964	0.96134	0.06768	0.193
Mof_H 	H 	0.9456	0.9779	0.0579	-0.036
Mof_C 	C 	0.6809	0.88126	0.11683	1.257
Mof_C 	C 	0.5903	0.89616	0.1459	-1.737
Mof_H 	H 	0.6282	0.9093	0.1773	0.503
Mof_H 	H 	0.5461	0.8782	0.1584	0.483
Mof_H 	H 	0.5387	0.9105	0.1204	0.491
Mof_C 	C 	0.7632	0.85753	0.1558	-1.748
Mof_H 	H 	0.803	0.8701	0.1875	0.51
Mof_H 	H 	0.8195	0.8481	0.1363	0.545
Mof_H 	H 	0.7187	0.8396	0.1681	0.508
Mof_C 	C 	0.6176	0.86014	0.067	-1.674
Mof_H 	H 	0.5649	0.8745	0.042	0.48
Mof_H 	H 	0.5743	0.8422	0.0801	0.48
Mof_H 	H 	0.6741	0.8506	0.0476	0.52
Mof_C 	C 	0.8311	0.57849	0.2846	-0.31
Mof_C 	C 	0.8234	0.55923	0.33177	0.351
Mof_H 	H 	0.7748	0.5403	0.3281	-0.11
Mof_C 	C 	0.8873	0.56797	0.38428	-0.608
Mof_C 	C 	0.9631	0.59551	0.38802	0.396
Mof_H 	H 	0.0103	0.6008	0.4222	-0.157
Mof_C 	C 	0.9698	0.61546	0.34151	-0.317
Mof_C 	C 	0.9018	0.60718	0.28998	0.242
Mof_H 	H 	0.9036	0.6208	0.2591	-0.033
Mof_C 	C 	0.8656	0.54838	0.43584	1.319
Mof_C 	C 	0.8868	0.51051	0.4286	-1.777
Mof_H 	H 	0.8732	0.4984	0.4608	0.519
Mof_H 	H 	0.9661	0.507	0.4244	0.517
Mof_H 	H 	0.8343	0.5023	0.396	0.549
Mof_C 	C 	0.9449	0.56052	0.4889	-1.705
Mof_H 	H 	0.9317	0.5843	0.4941	0.492
Mof_H 	H 	0.025	0.557	0.4862	0.491
Mof_H 	H 	0.9281	0.548	0.5201	0.481
Mof_C 	C 	0.7384	0.55281	0.4406	-1.872
Mof_H 	H 	0.7228	0.5764	0.4455	0.571
Mof_H 	H 	0.7236	0.5402	0.472	0.565
Mof_H 	H 	0.6886	0.5447	0.4072	0.591
Mof_C 	C 	0.6042	0.62792	0.33282	-0.327
Mof_C 	C 	0.6391	0.64794	0.38008	0.362
Mof_H 	H 	0.6151	0.6422	0.413	-0.128
Mof_C 	C 	0.7097	0.67648	0.37882	-0.614
Mof_C 	C 	0.7395	0.68544	0.32819	0.354
Mof_H 	H 	0.7862	0.7044	0.3266	-0.1
Mof_C 	C 	0.7003	0.66645	0.27972	-0.316
Mof_C 	C 	0.6359	0.63718	0.28259	0.247
Mof_H 	H 	0.6137	0.6237	0.2511	-0.044
Mof_C 	C 	0.7569	0.69689	0.43223	1.416
Mof_C 	C 	0.746	0.7355	0.4169	-0.744
Mof_H 	H 	0.8127	0.7424	0.402	0.336
Mof_H 	H 	0.7431	0.7485	0.4498	0.184
Mof_H 	H 	0.676	0.7392	0.3896	0.207
Mof_C 	C 	0.789	0.6736	0.4795	-1
Mof_H 	H 	0.8597	0.6618	0.4765	0.261
Mof_H 	H 	0.7273	0.6574	0.4792	0.115
Mof_H 	H 	0.8013	0.6862	0.5137	0.111
Mof_C 	C 	0.8916	0.6902	0.4468	-0.85
Mof_H 	H 	0.9144	0.6771	0.4177	0.244
Mof_H 	H 	0.9105	0.678	0.4814	0.235
Mof_H 	H 	0.9325	0.7115	0.4505	0.232
Mof_C 	C 	0.636	0.7131	0.4468	-0.267
Mof_H 	H 	0.5714	0.7079	0.4173	0.047
Mof_H 	H 	0.6443	0.7373	0.4506	0.038
Mof_H 	H 	0.6226	0.7036	0.4811	0.156
Mof_C 	C 	0.7	0.6899	0.4779	-1.463
Mof_H 	H 	0.7443	0.6731	0.5017	0.756
Mof_H 	H 	0.6228	0.6815	0.464	0.423
Mof_H 	H 	0.696	0.7103	0.4988	0.38
Mof_C 	C 	0.84	0.7221	0.4277	-0.905
Mof_H 	H 	0.9088	0.7116	0.4193	0.335
Mof_H 	H 	0.8597	0.7342	0.4622	0.263
Mof_H 	H 	0.8077	0.7375	0.3983	0.109
Mof_Mn	Mn	0.30595	0.61968	0.38049	0.971
Mof_Mn	Mn	0.11779	0.95831	0.63286	0.805
Mof_Mn	Mn	0.27874	0.80117	0.62834	0.839
Mof_O 	O 	0.3967	0.7647	0.61939	-0.445
Mof_O 	O 	0.5272	0.75014	0.69456	-0.413
Mof_O 	O 	0.3051	0.69542	0.45524	-0.434
Mof_O 	O 	0.3939	0.64618	0.45039	-0.437
Mof_O 	O 	0.427	0.53809	0.45629	-0.419
Mof_O 	O 	0.2903	0.57624	0.43196	-0.446
Mof_O 	O 	0.5148	0.49731	0.65498	-0.457
Mof_O 	O 	0.388	0.50935	0.70678	-0.4
Mof_O 	O 	0.2749	0.91139	0.68797	-0.43
Mof_O 	O 	0.1878	0.95392	0.7225	-0.434
Mof_O 	O 	0.5109	0.82992	0.81259	-0.431
Mof_O 	O 	0.6398	0.85224	0.8812	-0.467
Mof_O 	O 	0.9672	0.90687	0.86883	-0.441
Mof_O 	O 	0.0597	0.92838	0.80597	-0.426
Mof_O 	O 	0.3022	0.79849	0.72538	-0.447
Mof_O 	O 	0.1836	0.83736	0.68101	-0.449
Mof_C 	C 	0.4708	0.74458	0.64644	0.426
Mof_C 	C 	0.374	0.67244	0.47573	0.43
Mof_C 	C 	0.3567	0.55864	0.46884	0.403
Mof_C 	C 	0.4296	0.51423	0.66367	0.408
Mof_C 	C 	0.2598	0.92949	0.72842	0.442
Mof_C 	C 	0.5447	0.85375	0.84518	0.459
Mof_C 	C 	0.0387	0.90457	0.83556	0.42
Mof_C 	C 	0.2315	0.82286	0.72598	0.43
Mof_C 	C 	0.4895	0.71236	0.61632	-0.321
Mof_C 	C 	0.5668	0.68746	0.64151	0.293
Mof_H 	H 	0.6093	0.691	0.6774	-0.112
Mof_C 	C 	0.5816	0.65717	0.6138	-0.562
Mof_C 	C 	0.5174	0.65288	0.56023	0.299
Mof_H 	H 	0.5259	0.6329	0.5412	-0.104
Mof_C 	C 	0.4409	0.67756	0.53431	-0.33
Mof_C 	C 	0.427	0.70734	0.56248	0.188
Mof_H 	H 	0.3758	0.724	0.5453	-0.033
Mof_C 	C 	0.6661	0.62979	0.6431	1.192
Mof_C 	C 	0.6957	0.6041	0.6023	-1.702
Mof_H 	H 	0.7348	0.6153	0.5762	0.48
Mof_H 	H 	0.6251	0.5938	0.5826	0.523
Mof_H 	H 	0.746	0.587	0.6221	0.489
Mof_C 	C 	0.6032	0.6117	0.6859	-1.572
Mof_H 	H 	0.6531	0.5943	0.7051	0.46
Mof_H 	H 	0.5316	0.6017	0.6666	0.483
Mof_H 	H 	0.5864	0.628	0.7124	0.452
Mof_C 	C 	0.7777	0.645	0.6757	-1.669
Mof_H 	H 	0.819	0.6562	0.6506	0.474
Mof_H 	H 	0.8258	0.6274	0.6952	0.469
Mof_H 	H 	0.7591	0.6612	0.702	0.489
Mof_C 	C 	0.3419	0.56196	0.52848	-0.309
Mof_C 	C 	0.2724	0.5876	0.54397	0.299
Mof_H 	H 	0.2375	0.6032	0.5174	-0.098
Mof_C 	C 	0.2541	0.59034	0.5983	-0.562
Mof_C 	C 	0.3069	0.566	0.63662	0.292
Mof_H 	H 	0.2952	0.567	0.6731	-0.122
Mof_C 	C 	0.3765	0.5404	0.62166	-0.327
Mof_C 	C 	0.3964	0.53866	0.56768	0.178
Mof_H 	H 	0.4456	0.5221	0.5579	-0.039
Mof_C 	C 	0.1809	0.61874	0.61683	1.201
Mof_C 	C 	0.0903	0.60384	0.6459	-1.661
Mof_H 	H 	0.1282	0.5907	0.6773	0.478
Mof_H 	H 	0.0461	0.6218	0.6584	0.454
Mof_H 	H 	0.0387	0.5895	0.6204	0.462
Mof_C 	C 	0.2632	0.64247	0.6558	-1.682
Mof_H 	H 	0.303	0.6299	0.6875	0.488
Mof_H 	H 	0.3195	0.6519	0.6363	0.521
Mof_H 	H 	0.2187	0.6604	0.6681	0.486
Mof_C 	C 	0.1176	0.63986	0.567	-1.606
Mof_H 	H 	0.0649	0.6255	0.542	0.455
Mof_H 	H 	0.0743	0.6578	0.5801	0.454
Mof_H 	H 	0.1741	0.6494	0.5476	0.497
Mof_C 	C 	0.3311	0.92151	0.7846	-0.315
Mof_C 	C 	0.3234	0.94077	0.83177	0.354
Mof_H 	H 	0.2748	0.9597	0.8281	-0.112
Mof_C 	C 	0.3873	0.93203	0.88428	-0.614
Mof_C 	C 	0.4631	0.90449	0.88802	0.366
Mof_H 	H 	0.5103	0.8992	0.9222	-0.132
Mof_C 	C 	0.4698	0.88454	0.84151	-0.333
Mof_C 	C 	0.4018	0.89282	0.78998	0.246
Mof_H 	H 	0.4036	0.8792	0.7591	-0.04
Mof_C 	C 	0.3656	0.95162	0.93584	1.357
Mof_C 	C 	0.3868	0.98949	0.9286	-1.81
Mof_H 	H 	0.3732	0.0016	0.9608	0.526
Mof_H 	H 	0.4661	0.993	0.9244	0.521
Mof_H 	H 	0.3343	0.9977	0.896	0.558
Mof_C 	C 	0.4449	0.93948	0.9889	-1.819
Mof_H 	H 	0.4317	0.9157	0.9941	0.517
Mof_H 	H 	0.525	0.943	0.9862	0.539
Mof_H 	H 	0.4281	0.952	0.0201	0.509
Mof_C 	C 	0.2384	0.94719	0.9406	-1.905
Mof_H 	H 	0.2228	0.9236	0.9455	0.578
Mof_H 	H 	0.2236	0.9598	0.972	0.572
Mof_H 	H 	0.1886	0.9553	0.9072	0.598
Mof_C 	C 	0.1042	0.87208	0.83282	-0.318
Mof_C 	C 	0.1391	0.85206	0.88008	0.349
Mof_H 	H 	0.1151	0.8578	0.913	-0.128
Mof_C 	C 	0.2097	0.82352	0.87882	-0.601
Mof_C 	C 	0.2395	0.81456	0.82819	0.345
Mof_H 	H 	0.2862	0.7956	0.8266	-0.1
Mof_C 	C 	0.2003	0.83355	0.77972	-0.315
Mof_C 	C 	0.1359	0.86282	0.78259	0.238
Mof_H 	H 	0.1137	0.8763	0.7511	-0.046
Mof_C 	C 	0.2569	0.80311	0.93223	1.386
Mof_C 	C 	0.246	0.7645	0.9169	-0.74
Mof_H 	H 	0.3127	0.7576	0.902	0.33
Mof_H 	H 	0.2431	0.7515	0.9498	0.184
Mof_H 	H 	0.176	0.7608	0.8896	0.203
Mof_C 	C 	0.289	0.8264	0.9795	-0.987
Mof_H 	H 	0.3597	0.8382	0.9765	0.256
Mof_H 	H 	0.2273	0.8426	0.9792	0.111
Mof_H 	H 	0.3013	0.8138	0.0137	0.108
Mof_C 	C 	0.3916	0.8098	0.9468	-0.818
Mof_H 	H 	0.4144	0.8229	0.9177	0.23
Mof_H 	H 	0.4105	0.822	0.9814	0.219
Mof_H 	H 	0.4325	0.7885	0.9505	0.219
Mof_C 	C 	0.136	0.7869	0.9468	-0.24
Mof_H 	H 	0.0714	0.7921	0.9173	0.034
Mof_H 	H 	0.1443	0.7627	0.9506	0.028
Mof_H 	H 	0.1226	0.7964	0.9811	0.144
Mof_C 	C 	0.2	0.8101	0.9779	-1.447
Mof_H 	H 	0.2443	0.8269	0.0017	0.75
Mof_H 	H 	0.1228	0.8185	0.964	0.415
Mof_H 	H 	0.196	0.7897	0.9988	0.375
Mof_C 	C 	0.34	0.7779	0.9277	-0.882
Mof_H 	H 	0.4088	0.7884	0.9193	0.323
Mof_H 	H 	0.3597	0.7658	0.9622	0.254
Mof_H 	H 	0.3077	0.7625	0.8983	0.106
Mof_Mn	Mn	0.80595	0.11968	0.38049	0.973
Mof_Mn	Mn	0.61779	0.45831	0.63286	0.811
Mof_Mn	Mn	0.77874	0.30117	0.62834	0.847
Mof_O 	O 	0.8967	0.2647	0.61939	-0.442
Mof_O 	O 	0.0272	0.25014	0.69456	-0.431
Mof_O 	O 	0.8051	0.19542	0.45524	-0.426
Mof_O 	O 	0.8939	0.14618	0.45039	-0.424
Mof_O 	O 	0.927	0.03809	0.45629	-0.412
Mof_O 	O 	0.7903	0.07624	0.43196	-0.445
Mof_O 	O 	0.0148	0.99731	0.65498	-0.483
Mof_O 	O 	0.888	0.00935	0.70678	-0.397
Mof_O 	O 	0.7749	0.41139	0.68797	-0.428
Mof_O 	O 	0.6878	0.45392	0.7225	-0.434
Mof_O 	O 	0.0109	0.32992	0.81259	-0.434
Mof_O 	O 	0.1398	0.35224	0.8812	-0.465
Mof_O 	O 	0.4672	0.40687	0.86883	-0.468
Mof_O 	O 	0.5597	0.42838	0.80597	-0.43
Mof_O 	O 	0.8022	0.29849	0.72538	-0.439
Mof_O 	O 	0.6836	0.33736	0.68101	-0.445
Mof_C 	C 	0.9708	0.24458	0.64644	0.436
Mof_C 	C 	0.874	0.17244	0.47573	0.409
Mof_C 	C 	0.8567	0.05864	0.46884	0.406
Mof_C 	C 	0.9296	0.01423	0.66367	0.444
Mof_C 	C 	0.7598	0.42949	0.72842	0.442
Mof_C 	C 	0.0447	0.35375	0.84518	0.436
Mof_C 	C 	0.5387	0.40457	0.83556	0.457
Mof_C 	C 	0.7315	0.32286	0.72598	0.431
Mof_C 	C 	0.9895	0.21236	0.61632	-0.256
Mof_C 	C 	0.0668	0.18746	0.64151	0.205
Mof_H 	H 	0.1093	0.191	0.6774	-0.084
Mof_C 	C 	0.0816	0.15717	0.6138	-0.485
Mof_C 	C 	0.0174	0.15288	0.56023	0.205
Mof_H 	H 	0.0259	0.1329	0.5412	-0.078
Mof_C 	C 	0.9409	0.17756	0.53431	-0.256
Mof_C 	C 	0.927	0.20734	0.56248	0.135
Mof_H 	H 	0.8758	0.224	0.5453	-0.013
Mof_C 	C 	0.1661	0.12979	0.6431	1.09
Mof_C 	C 	0.1957	0.1041	0.6023	-1.578
Mof_H 	H 	0.2348	0.1153	0.5762	0.44
Mof_H 	H 	0.1251	0.0938	0.5826	0.48
Mof_H 	H 	0.246	0.087	0.6221	0.449
Mof_C 	C 	0.1032	0.1117	0.6859	-1.459
Mof_H 	H 	0.1531	0.0943	0.7051	0.424
Mof_H 	H 	0.0316	0.1017	0.6666	0.44
Mof_H 	H 	0.0864	0.128	0.7124	0.412
Mof_C 	C 	0.2777	0.145	0.6757	-1.548
Mof_H 	H 	0.319	0.1562	0.6506	0.433
Mof_H 	H 	0.3258	0.1274	0.6952	0.429
Mof_H 	H 	0.2591	0.1612	0.702	0.45
Mof_C 	C 	0.8419	0.06196	0.52848	-0.315
Mof_C 	C 	0.7724	0.0876	0.54397	0.317
Mof_H 	H 	0.7375	0.1032	0.5174	-0.104
Mof_C 	C 	0.7541	0.09034	0.5983	-0.586
Mof_C 	C 	0.8069	0.066	0.63662	0.316
Mof_H 	H 	0.7952	0.067	0.6731	-0.13
Mof_C 	C 	0.8765	0.0404	0.62166	-0.339
Mof_C 	C 	0.8964	0.03866	0.56768	0.193
Mof_H 	H 	0.9456	0.0221	0.5579	-0.036
Mof_C 	C 	0.6809	0.11874	0.61683	1.257
Mof_C 	C 	0.5903	0.10384	0.6459	-1.737
Mof_H 	H 	0.6282	0.0907	0.6773	0.503
Mof_H 	H 	0.5461	0.1218	0.6584	0.483
Mof_H 	H 	0.5387	0.0895	0.6204	0.491
Mof_C 	C 	0.7632	0.14247	0.6558	-1.749
Mof_H 	H 	0.803	0.1299	0.6875	0.511
Mof_H 	H 	0.8195	0.1519	0.6363	0.546
Mof_H 	H 	0.7187	0.1604	0.6681	0.508
Mof_C 	C 	0.6176	0.13986	0.567	-1.674
Mof_H 	H 	0.5649	0.1255	0.542	0.48
Mof_H 	H 	0.5743	0.1578	0.5801	0.48
Mof_H 	H 	0.6741	0.1494	0.5476	0.52
Mof_C 	C 	0.8311	0.42151	0.7846	-0.309
Mof_C 	C 	0.8234	0.44077	0.83177	0.35
Mof_H 	H 	0.7748	0.4597	0.8281	-0.109
Mof_C 	C 	0.8873	0.43203	0.88428	-0.606
Mof_C 	C 	0.9631	0.40449	0.88802	0.397
Mof_H 	H 	0.0103	0.3992	0.9222	-0.158
Mof_C 	C 	0.9698	0.38454	0.84151	-0.316
Mof_C 	C 	0.9018	0.39282	0.78998	0.241
Mof_H 	H 	0.9036	0.3792	0.7591	-0.032
Mof_C 	C 	0.8656	0.45162	0.93584	1.314
Mof_C 	C 	0.8868	0.48949	0.9286	-1.773
Mof_H 	H 	0.8732	0.5016	0.9608	0.518
Mof_H 	H 	0.9661	0.493	0.9244	0.516
Mof_H 	H 	0.8343	0.4977	0.896	0.548
Mof_C 	C 	0.9449	0.43948	0.9889	-1.695
Mof_H 	H 	0.9317	0.4157	0.9941	0.489
Mof_H 	H 	0.025	0.443	0.9862	0.487
Mof_H 	H 	0.9281	0.452	0.0201	0.478
Mof_C 	C 	0.7384	0.44719	0.9406	-1.867
Mof_H 	H 	0.7228	0.4236	0.9455	0.569
Mof_H 	H 	0.7236	0.4598	0.972	0.564
Mof_H 	H 	0.6886	0.4553	0.9072	0.589
Mof_C 	C 	0.6042	0.37208	0.83282	-0.327
Mof_C 	C 	0.6391	0.35206	0.88008	0.363
Mof_H 	H 	0.6151	0.3578	0.913	-0.128
Mof_C 	C 	0.7097	0.32352	0.87882	-0.615
Mof_C 	C 	0.7395	0.31456	0.82819	0.354
Mof_H 	H 	0.7862	0.2956	0.8266	-0.1
Mof_C 	C 	0.7003	0.33355	0.77972	-0.316
Mof_C 	C 	0.6359	0.36282	0.78259	0.247
Mof_H 	H 	0.6137	0.3763	0.7511	-0.044
Mof_C 	C 	0.7569	0.30311	0.93223	1.419
Mof_C 	C 	0.746	0.2645	0.9169	-0.743
Mof_H 	H 	0.8127	0.2576	0.902	0.337
Mof_H 	H 	0.7431	0.2515	0.9498	0.184
Mof_H 	H 	0.676	0.2608	0.8896	0.206
Mof_C 	C 	0.789	0.3264	0.9795	-1.001
Mof_H 	H 	0.8597	0.3382	0.9765	0.261
Mof_H 	H 	0.7273	0.3426	0.9792	0.115
Mof_H 	H 	0.8013	0.3138	0.0137	0.111
Mof_C 	C 	0.8916	0.3098	0.9468	-0.85
Mof_H 	H 	0.9144	0.3229	0.9177	0.245
Mof_H 	H 	0.9105	0.322	0.9814	0.234
Mof_H 	H 	0.9325	0.2885	0.9505	0.232
Mof_C 	C 	0.636	0.2869	0.9468	-0.265
Mof_H 	H 	0.5714	0.2921	0.9173	0.047
Mof_H 	H 	0.6443	0.2627	0.9506	0.038
Mof_H 	H 	0.6226	0.2964	0.9811	0.156
Mof_C 	C 	0.7	0.3101	0.9779	-1.468
Mof_H 	H 	0.7443	0.3269	0.0017	0.758
Mof_H 	H 	0.6228	0.3185	0.964	0.424
Mof_H 	H 	0.696	0.2897	0.9988	0.381
Mof_C 	C 	0.84	0.2779	0.9277	-0.909
Mof_H 	H 	0.9088	0.2884	0.9193	0.336
Mof_H 	H 	0.8597	0.2658	0.9622	0.264
Mof_H 	H 	0.8077	0.2625	0.8983	0.109
Mof_Mn	Mn	0.69405	0.61968	0.11951	0.974
Mof_Mn	Mn	0.88221	0.95831	0.86714	0.815
Mof_Mn	Mn	0.72126	0.80117	0.87166	0.846
Mof_O 	O 	0.6033	0.7647	0.88061	-0.444
Mof_O 	O 	0.4728	0.75014	0.80544	-0.413
Mof_O 	O 	0.6949	0.69542	0.04476	-0.432
Mof_O 	O 	0.6061	0.64618	0.04961	-0.437
Mof_O 	O 	0.573	0.53809	0.04371	-0.42
Mof_O 	O 	0.7097	0.57624	0.06804	-0.444
Mof_O 	O 	0.4852	0.49731	0.84502	-0.458
Mof_O 	O 	0.612	0.50935	0.79322	-0.4
Mof_O 	O 	0.7251	0.91139	0.81203	-0.431
Mof_O 	O 	0.8122	0.95392	0.7775	-0.429
Mof_O 	O 	0.4891	0.82992	0.68741	-0.431
Mof_O 	O 	0.3602	0.85224	0.6188	-0.467
Mof_O 	O 	0.0328	0.90687	0.63117	-0.492
Mof_O 	O 	0.9403	0.92838	0.69403	-0.421
Mof_O 	O 	0.6978	0.79849	0.77462	-0.445
Mof_O 	O 	0.8164	0.83736	0.81899	-0.441
Mof_C 	C 	0.5292	0.74458	0.85356	0.424
Mof_C 	C 	0.626	0.67244	0.02427	0.428
Mof_C 	C 	0.6433	0.55864	0.03116	0.408
Mof_C 	C 	0.5704	0.51423	0.83633	0.413
Mof_C 	C 	0.7402	0.92949	0.77158	0.443
Mof_C 	C 	0.4553	0.85375	0.65482	0.459
Mof_C 	C 	0.9613	0.90457	0.66444	0.485
Mof_C 	C 	0.7685	0.82286	0.77402	0.433
Mof_C 	C 	0.5105	0.71236	0.88368	-0.314
Mof_C 	C 	0.4332	0.68746	0.85849	0.279
Mof_H 	H 	0.3907	0.691	0.8226	-0.107
Mof_C 	C 	0.4184	0.65717	0.8862	-0.541
Mof_C 	C 	0.4826	0.65288	0.93977	0.285
Mof_H 	H 	0.4741	0.6329	0.9588	-0.099
Mof_C 	C 	0.5591	0.67756	0.96569	-0.323
Mof_C 	C 	0.573	0.70734	0.93752	0.181
Mof_H 	H 	0.6242	0.724	0.9547	-0.03
Mof_C 	C 	0.3339	0.62979	0.8569	1.142
Mof_C 	C 	0.3043	0.6041	0.8977	-1.634
Mof_H 	H 	0.2652	0.6153	0.9238	0.454
Mof_H 	H 	0.3749	0.5938	0.9174	0.501
Mof_H 	H 	0.254	0.587	0.8779	0.462
Mof_C 	C 	0.3968	0.6117	0.8141	-1.523
Mof_H 	H 	0.3469	0.5943	0.7949	0.444
Mof_H 	H 	0.4684	0.6017	0.8334	0.467
Mof_H 	H 	0.4136	0.628	0.7876	0.437
Mof_C 	C 	0.2223	0.645	0.8243	-1.594
Mof_H 	H 	0.181	0.6562	0.8494	0.442
Mof_H 	H 	0.1742	0.6274	0.8048	0.438
Mof_H 	H 	0.2409	0.6612	0.798	0.463
Mof_C 	C 	0.6581	0.56196	0.97152	-0.32
Mof_C 	C 	0.7276	0.5876	0.95603	0.321
Mof_H 	H 	0.7625	0.6032	0.9826	-0.107
Mof_C 	C 	0.7459	0.59034	0.9017	-0.597
Mof_C 	C 	0.6931	0.566	0.86338	0.316
Mof_H 	H 	0.7048	0.567	0.8269	-0.131
Mof_C 	C 	0.6235	0.5404	0.87834	-0.338
Mof_C 	C 	0.6036	0.53866	0.93232	0.191
Mof_H 	H 	0.5544	0.5221	0.9421	-0.043
Mof_C 	C 	0.8191	0.61874	0.88317	1.284
Mof_C 	C 	0.9097	0.60384	0.8541	-1.781
Mof_H 	H 	0.8718	0.5907	0.8227	0.52
Mof_H 	H 	0.9539	0.6218	0.8416	0.502
Mof_H 	H 	0.9613	0.5895	0.8796	0.509
Mof_C 	C 	0.7368	0.64247	0.8442	-1.773
Mof_H 	H 	0.697	0.6299	0.8125	0.515
Mof_H 	H 	0.6805	0.6519	0.8637	0.548
Mof_H 	H 	0.7813	0.6604	0.8319	0.516
Mof_C 	C 	0.8824	0.63986	0.933	-1.713
Mof_H 	H 	0.9351	0.6255	0.958	0.497
Mof_H 	H 	0.9257	0.6578	0.9199	0.497
Mof_H 	H 	0.8259	0.6494	0.9524	0.533
Mof_C 	C 	0.6689	0.92151	0.7154	-0.316
Mof_C 	C 	0.6766	0.94077	0.66823	0.358
Mof_H 	H 	0.7252	0.9597	0.6719	-0.113
Mof_C 	C 	0.6127	0.93203	0.61572	-0.622
Mof_C 	C 	0.5369	0.90449	0.61198	0.37
Mof_H 	H 	0.4897	0.8992	0.5778	-0.134
Mof_C 	C 	0.5302	0.88454	0.65849	-0.335
Mof_C 	C 	0.5982	0.89282	0.71002	0.248
Mof_H 	H 	0.5964	0.8792	0.7409	-0.041
Mof_C 	C 	0.6344	0.95162	0.56416	1.376
Mof_C 	C 	0.6132	0.98949	0.5714	-1.83
Mof_H 	H 	0.6268	0.0016	0.5392	0.533
Mof_H 	H 	0.5339	0.993	0.5756	0.527
Mof_H 	H 	0.6657	0.9977	0.604	0.563
Mof_C 	C 	0.5551	0.93948	0.5111	-1.839
Mof_H 	H 	0.5683	0.9157	0.5059	0.523
Mof_H 	H 	0.475	0.943	0.5138	0.546
Mof_H 	H 	0.5719	0.952	0.4799	0.514
Mof_C 	C 	0.7616	0.94719	0.5594	-1.941
Mof_H 	H 	0.7772	0.9236	0.5545	0.593
Mof_H 	H 	0.7764	0.9598	0.528	0.587
Mof_H 	H 	0.8114	0.9553	0.5928	0.615
Mof_C 	C 	0.8958	0.87208	0.66718	-0.329
Mof_C 	C 	0.8609	0.85206	0.61992	0.364
Mof_H 	H 	0.8849	0.8578	0.587	-0.124
Mof_C 	C 	0.7903	0.82352	0.62118	-0.61
Mof_C 	C 	0.7605	0.81456	0.67181	0.353
Mof_H 	H 	0.7138	0.7956	0.6734	-0.102
Mof_C 	C 	0.7997	0.83355	0.72028	-0.316
Mof_C 	C 	0.8641	0.86282	0.71741	0.251
Mof_H 	H 	0.8863	0.8763	0.7489	-0.04
Mof_C 	C 	0.7431	0.80311	0.56777	1.403
Mof_C 	C 	0.754	0.7645	0.5831	-0.742
Mof_H 	H 	0.6873	0.7576	0.598	0.333
Mof_H 	H 	0.7569	0.7515	0.5502	0.184
Mof_H 	H 	0.824	0.7608	0.6104	0.209
Mof_C 	C 	0.711	0.8264	0.5205	-0.981
Mof_H 	H 	0.6403	0.8382	0.5235	0.252
Mof_H 	H 	0.7727	0.8426	0.5208	0.11
Mof_H 	H 	0.6987	0.8138	0.4863	0.105
Mof_C 	C 	0.6084	0.8098	0.5532	-0.834
Mof_H 	H 	0.5856	0.8229	0.5823	0.234
Mof_H 	H 	0.5895	0.822	0.5186	0.226
Mof_H 	H 	0.5675	0.7885	0.5495	0.223
Mof_C 	C 	0.864	0.7869	0.5532	-0.273
Mof_H 	H 	0.9286	0.7921	0.5827	0.055
Mof_H 	H 	0.8557	0.7627	0.5494	0.042
Mof_H 	H 	0.8774	0.7964	0.5189	0.161
Mof_C 	C 	0.8	0.8101	0.5221	-1.461
Mof_H 	H 	0.7557	0.8269	0.4983	0.751
Mof_H 	H 	0.8772	0.8185	0.536	0.426
Mof_H 	H 	0.804	0.7897	0.5012	0.38
Mof_C 	C 	0.66	0.7779	0.5723	-0.892
Mof_H 	H 	0.5912	0.7884	0.5807	0.327
Mof_H 	H 	0.6403	0.7658	0.5378	0.256
Mof_H 	H 	0.6923	0.7625	0.6017	0.107
Mof_Mn	Mn	0.19405	0.11968	0.11951	0.972
Mof_Mn	Mn	0.38221	0.45831	0.86714	0.807
Mof_Mn	Mn	0.22126	0.30117	0.87166	0.839
Mof_O 	O 	0.1033	0.2647	0.88061	-0.445
Mof_O 	O 	0.9728	0.25014	0.80544	-0.383
Mof_O 	O 	0.1949	0.19542	0.04476	-0.441
Mof_O 	O 	0.1061	0.14618	0.04961	-0.45
Mof_O 	O 	0.073	0.03809	0.04371	-0.427
Mof_O 	O 	0.2097	0.07624	0.06804	-0.445
Mof_O 	O 	0.9852	0.99731	0.84502	-0.425
Mof_O 	O 	0.112	0.00935	0.79322	-0.392
Mof_O 	O 	0.2251	0.41139	0.81203	-0.434
Mof_O 	O 	0.3122	0.45392	0.7775	-0.436
Mof_O 	O 	0.9891	0.32992	0.68741	-0.417
Mof_O 	O 	0.8602	0.35224	0.6188	-0.468
Mof_O 	O 	0.5328	0.40687	0.63117	-0.468
Mof_O 	O 	0.4403	0.42838	0.69403	-0.43
Mof_O 	O 	0.1978	0.29849	0.77462	-0.445
Mof_O 	O 	0.3164	0.33736	0.81899	-0.444
Mof_C 	C 	0.0292	0.24458	0.85356	0.411
Mof_C 	C 	0.126	0.17244	0.02427	0.452
Mof_C 	C 	0.1433	0.05864	0.03116	0.406
Mof_C 	C 	0.0704	0.01423	0.83633	0.374
Mof_C 	C 	0.2402	0.42949	0.77158	0.444
Mof_C 	C 	0.9553	0.35375	0.65482	0.477
Mof_C 	C 	0.4613	0.40457	0.66444	0.454
Mof_C 	C 	0.2685	0.32286	0.77402	0.429
Mof_C 	C 	0.0105	0.21236	0.88368	-0.38
Mof_C 	C 	0.9332	0.18746	0.85849	0.368
Mof_H 	H 	0.8907	0.191	0.8226	-0.135
Mof_C 	C 	0.9184	0.15717	0.8862	-0.619
Mof_C 	C 	0.9826	0.15288	0.93977	0.381
Mof_H 	H 	0.9741	0.1329	0.9588	-0.125
Mof_C 	C 	0.0591	0.17756	0.96569	-0.4
Mof_C 	C 	0.073	0.20734	0.93752	0.236
Mof_H 	H 	0.1242	0.224	0.9547	-0.051
Mof_C 	C 	0.8339	0.12979	0.8569	1.246
Mof_C 	C 	0.8043	0.1041	0.8977	-1.76
Mof_H 	H 	0.7652	0.1153	0.9238	0.495
Mof_H 	H 	0.8749	0.0938	0.9174	0.544
Mof_H 	H 	0.754	0.087	0.8779	0.503
Mof_C 	C 	0.8968	0.1117	0.8141	-1.638
Mof_H 	H 	0.8469	0.0943	0.7949	0.481
Mof_H 	H 	0.9684	0.1017	0.8334	0.511
Mof_H 	H 	0.9136	0.128	0.7876	0.477
Mof_C 	C 	0.7223	0.145	0.8243	-1.718
Mof_H 	H 	0.681	0.1562	0.8494	0.484
Mof_H 	H 	0.6742	0.1274	0.8048	0.479
Mof_H 	H 	0.7409	0.1612	0.798	0.503
Mof_C 	C 	0.1581	0.06196	0.97152	-0.316
Mof_C 	C 	0.2276	0.0876	0.95603	0.303
Mof_H 	H 	0.2625	0.1032	0.9826	-0.101
Mof_C 	C 	0.2459	0.09034	0.9017	-0.573
Mof_C 	C 	0.1931	0.066	0.86338	0.291
Mof_H 	H 	0.2048	0.067	0.8269	-0.123
Mof_C 	C 	0.1235	0.0404	0.87834	-0.324
Mof_C 	C 	0.1036	0.03866	0.93232	0.176
Mof_H 	H 	0.0544	0.0221	0.9421	-0.047
Mof_C 	C 	0.3191	0.11874	0.88317	1.226
Mof_C 	C 	0.4097	0.10384	0.8541	-1.701
Mof_H 	H 	0.3718	0.0907	0.8227	0.493
Mof_H 	H 	0.4539	0.1218	0.8416	0.472
Mof_H 	H 	0.4613	0.0895	0.8796	0.479
Mof_C 	C 	0.2368	0.14247	0.8442	-1.703
Mof_H 	H 	0.197	0.1299	0.8125	0.492
Mof_H 	H 	0.1805	0.1519	0.8637	0.523
Mof_H 	H 	0.2813	0.1604	0.8319	0.494
Mof_C 	C 	0.3824	0.13986	0.933	-1.641
Mof_H 	H 	0.4351	0.1255	0.958	0.47
Mof_H 	H 	0.4257	0.1578	0.9199	0.469
Mof_H 	H 	0.3259	0.1494	0.9524	0.509
Mof_C 	C 	0.1689	0.42151	0.7154	-0.323
Mof_C 	C 	0.1766	0.44077	0.66823	0.363
Mof_H 	H 	0.2252	0.4597	0.6719	-0.117
Mof_C 	C 	0.1127	0.43203	0.61572	-0.628
Mof_C 	C 	0.0369	0.40449	0.61198	0.339
Mof_H 	H 	0.9897	0.3992	0.5778	-0.108
Mof_C 	C 	0.0302	0.38454	0.65849	-0.349
Mof_C 	C 	0.0982	0.39282	0.71002	0.253
Mof_H 	H 	0.0964	0.3792	0.7409	-0.047
Mof_C 	C 	0.1344	0.45162	0.56416	1.414
Mof_C 	C 	0.1132	0.48949	0.5714	-1.864
Mof_H 	H 	0.1268	0.5016	0.5392	0.541
Mof_H 	H 	0.0339	0.493	0.5756	0.531
Mof_H 	H 	0.1657	0.4977	0.604	0.572
Mof_C 	C 	0.0551	0.43948	0.5111	-1.952
Mof_H 	H 	0.0683	0.4157	0.5059	0.549
Mof_H 	H 	0.975	0.443	0.5138	0.594
Mof_H 	H 	0.0719	0.452	0.4799	0.541
Mof_C 	C 	0.2616	0.44719	0.5594	-1.973
Mof_H 	H 	0.2772	0.4236	0.5545	0.6
Mof_H 	H 	0.2764	0.4598	0.528	0.594
Mof_H 	H 	0.3114	0.4553	0.5928	0.621
Mof_C 	C 	0.3958	0.37208	0.66718	-0.321
Mof_C 	C 	0.3609	0.35206	0.61992	0.349
Mof_H 	H 	0.3849	0.3578	0.587	-0.124
Mof_C 	C 	0.2903	0.32352	0.62118	-0.594
Mof_C 	C 	0.2605	0.31456	0.67181	0.341
Mof_H 	H 	0.2138	0.2956	0.6734	-0.099
Mof_C 	C 	0.2997	0.33355	0.72028	-0.312
Mof_C 	C 	0.3641	0.36282	0.71741	0.242
Mof_H 	H 	0.3863	0.3763	0.7489	-0.042
Mof_C 	C 	0.2431	0.30311	0.56777	1.365
Mof_C 	C 	0.254	0.2645	0.5831	-0.732
Mof_H 	H 	0.1873	0.2576	0.598	0.325
Mof_H 	H 	0.2569	0.2515	0.5502	0.182
Mof_H 	H 	0.324	0.2608	0.6104	0.204
Mof_C 	C 	0.211	0.3264	0.5205	-0.96
Mof_H 	H 	0.1403	0.3382	0.5235	0.245
Mof_H 	H 	0.2727	0.3426	0.5208	0.106
Mof_H 	H 	0.1987	0.3138	0.4863	0.1
Mof_C 	C 	0.1084	0.3098	0.5532	-0.802
Mof_H 	H 	0.0856	0.3229	0.5823	0.22
Mof_H 	H 	0.0895	0.322	0.5186	0.211
Mof_H 	H 	0.0675	0.2885	0.5495	0.21
Mof_C 	C 	0.364	0.2869	0.5532	-0.252
Mof_H 	H 	0.4286	0.2921	0.5827	0.044
Mof_H 	H 	0.3557	0.2627	0.5494	0.035
Mof_H 	H 	0.3774	0.2964	0.5189	0.15
Mof_C 	C 	0.3	0.3101	0.5221	-1.431
Mof_H 	H 	0.2557	0.3269	0.4983	0.737
Mof_H 	H 	0.3772	0.3185	0.536	0.415
Mof_H 	H 	0.304	0.2897	0.5012	0.372
Mof_C 	C 	0.16	0.2779	0.5723	-0.865
Mof_H 	H 	0.0912	0.2884	0.5807	0.315
Mof_H 	H 	0.1403	0.2658	0.5378	0.247
Mof_H 	H 	0.1923	0.2625	0.6017	0.103
Mof_Mn	Mn	0.5	0.20913	0.25	0.987
Mof_Mn	Mn	2.06323e-17	0.70913	0.25	0.953
Mof_Mn	Mn	0.5	0.79087	0.75	0.987
Mof_Mn	Mn	7.05463e-33	0.29087	0.75	0.952
Mof_Mn	Mn	2.35154e-33	0.0313	0.25	0.925
Mof_Mn	Mn	0.5	0.5313	0.25	0.961
Mof_Mn	Mn	-4.12645e-17	0.96871	0.75	0.924
Mof_Mn	Mn	0.5	0.4687	0.75	0.961
_end
