data_functionalizedCrystal
_audit_creation_method	'EQeq! by Chris Wilmer'
_symmetry_space_group_name_H-M	'P1'
_symmetry_Int_Tables_number	1
_symmetry_cell_setting	triclinic
loop_
_symmetry_equiv_pos_as_xyz
  x,y,z
_cell_length_a	12.6245
_cell_length_b	12.6245
_cell_length_c	25.5002
_cell_angle_alpha	90
_cell_angle_beta	90
_cell_angle_gamma	90
loop_
_atom_site_label
_atom_site_type_symbol
_atom_site_fract_x
_atom_site_fract_y
_atom_site_fract_z
_atom_site_charge
Mof_Zn	Zn	0.54008	0.06462	0.56264	1.182
Mof_C 	C 	0.6052	0.0683	0.6611	0.334
Mof_C 	C 	0.7098	0.0696	0.7998	-0.014
Mof_H 	H 	0.682	0.0688	0.8336	0.038
Mof_C 	C 	0.682	0.0699	0.707	-0.069
Mof_C 	C 	0.6417	0.0704	0.7573	-0.031
Mof_H 	H 	0.5688	0.0713	0.7626	0.056
Mof_C 	C 	0.497	0.3095	0.5783	0.2
Mof_C 	C 	0.5422	0.2661	0.5015	0.083
Mof_H 	H 	0.5637	0.2266	0.4726	-0.045
Mof_N 	N 	0.4723	0.3033	0.6298	-0.357
Mof_H 	H 	0.4552	0.3596	0.6468	0.161
Mof_H 	H 	0.4737	0.2431	0.6455	0.162
Mof_N 	N 	0.5241	0.2235	0.54906	-0.303
Mof_N 	N 	0.5266	0.3688	0.49989	-0.265
Mof_N 	N 	0.4971	0.3978	0.55101	-0.291
Mof_O 	O 	0.5107	0.0864	0.6681	-0.366
Mof_O 	O 	0.6449	0.047	0.617	-0.488
Mof_Zn	Zn	0.95992	0.43538	0.56264	1.183
Mof_C 	C 	0.8948	0.4317	0.6611	0.335
Mof_C 	C 	0.7902	0.4304	0.7998	-0.013
Mof_H 	H 	0.818	0.4312	0.8336	0.039
Mof_C 	C 	0.818	0.4301	0.707	-0.068
Mof_C 	C 	0.8583	0.4296	0.7573	-0.03
Mof_H 	H 	0.9312	0.4287	0.7626	0.057
Mof_C 	C 	0.003	0.1905	0.5783	0.202
Mof_C 	C 	0.9578	0.2339	0.5015	0.084
Mof_H 	H 	0.9363	0.2734	0.4726	-0.044
Mof_N 	N 	0.0277	0.1967	0.6298	-0.356
Mof_H 	H 	0.0448	0.1404	0.6468	0.162
Mof_H 	H 	0.0263	0.2569	0.6455	0.163
Mof_N 	N 	0.9759	0.2765	0.54906	-0.302
Mof_N 	N 	0.9734	0.1312	0.49989	-0.266
Mof_N 	N 	0.0029	0.1022	0.55101	-0.29
Mof_O 	O 	0.9893	0.4136	0.6681	-0.366
Mof_O 	O 	0.8551	0.453	0.617	-0.488
Mof_Zn	Zn	0.43538	0.54008	0.56264	1.183
Mof_C 	C 	0.4317	0.6052	0.6611	0.335
Mof_C 	C 	0.4304	0.7098	0.7998	-0.013
Mof_H 	H 	0.4312	0.682	0.8336	0.039
Mof_C 	C 	0.4301	0.682	0.707	-0.068
Mof_C 	C 	0.4296	0.6417	0.7573	-0.03
Mof_H 	H 	0.4287	0.5688	0.7626	0.057
Mof_C 	C 	0.1905	0.497	0.5783	0.201
Mof_C 	C 	0.2339	0.5422	0.5015	0.084
Mof_H 	H 	0.2734	0.5637	0.4726	-0.044
Mof_N 	N 	0.1967	0.4723	0.6298	-0.356
Mof_H 	H 	0.1404	0.4552	0.6468	0.162
Mof_H 	H 	0.2569	0.4737	0.6455	0.163
Mof_N 	N 	0.2765	0.5241	0.54906	-0.302
Mof_N 	N 	0.1312	0.5266	0.49989	-0.265
Mof_N 	N 	0.1022	0.4971	0.55101	-0.291
Mof_O 	O 	0.4136	0.5107	0.6681	-0.366
Mof_O 	O 	0.453	0.6449	0.617	-0.488
Mof_Zn	Zn	0.06462	0.95992	0.56264	1.182
Mof_C 	C 	0.0683	0.8948	0.6611	0.335
Mof_C 	C 	0.0696	0.7902	0.7998	-0.013
Mof_H 	H 	0.0688	0.818	0.8336	0.039
Mof_C 	C 	0.0699	0.818	0.707	-0.068
Mof_C 	C 	0.0704	0.8583	0.7573	-0.03
Mof_H 	H 	0.0713	0.9312	0.7626	0.056
Mof_C 	C 	0.3095	0.003	0.5783	0.202
Mof_C 	C 	0.2661	0.9578	0.5015	0.084
Mof_H 	H 	0.2266	0.9363	0.4726	-0.044
Mof_N 	N 	0.3033	0.0277	0.6298	-0.356
Mof_H 	H 	0.3596	0.0448	0.6468	0.162
Mof_H 	H 	0.2431	0.0263	0.6455	0.163
Mof_N 	N 	0.2235	0.9759	0.54906	-0.302
Mof_N 	N 	0.3688	0.9734	0.49989	-0.265
Mof_N 	N 	0.3978	0.0029	0.55101	-0.291
Mof_O 	O 	0.0864	0.9893	0.6681	-0.367
Mof_O 	O 	0.047	0.8551	0.617	-0.488
Mof_Zn	Zn	0.95992	0.06462	0.93736	1.182
Mof_C 	C 	0.8948	0.0683	0.8389	0.335
Mof_C 	C 	0.7902	0.0696	0.7002	-0.013
Mof_H 	H 	0.818	0.0688	0.6664	0.039
Mof_C 	C 	0.818	0.0699	0.793	-0.068
Mof_C 	C 	0.8583	0.0704	0.7427	-0.03
Mof_H 	H 	0.9312	0.0713	0.7374	0.056
Mof_C 	C 	0.003	0.3095	0.9217	0.202
Mof_C 	C 	0.9578	0.2661	0.9985	0.084
Mof_H 	H 	0.9363	0.2266	0.0274	-0.044
Mof_N 	N 	0.0277	0.3033	0.8702	-0.356
Mof_H 	H 	0.0448	0.3596	0.8532	0.162
Mof_H 	H 	0.0263	0.2431	0.8545	0.163
Mof_N 	N 	0.9759	0.2235	0.95094	-0.302
Mof_N 	N 	0.9734	0.3688	0.00011	-0.265
Mof_N 	N 	0.0029	0.3978	0.94899	-0.291
Mof_O 	O 	0.9893	0.0864	0.8319	-0.367
Mof_O 	O 	0.8551	0.047	0.883	-0.488
Mof_Zn	Zn	0.54008	0.43538	0.93736	1.183
Mof_C 	C 	0.6052	0.4317	0.8389	0.335
Mof_C 	C 	0.7098	0.4304	0.7002	-0.013
Mof_H 	H 	0.682	0.4312	0.6664	0.039
Mof_C 	C 	0.682	0.4301	0.793	-0.068
Mof_C 	C 	0.6417	0.4296	0.7427	-0.03
Mof_H 	H 	0.5688	0.4287	0.7374	0.057
Mof_C 	C 	0.497	0.1905	0.9217	0.201
Mof_C 	C 	0.5422	0.2339	0.9985	0.085
Mof_H 	H 	0.5637	0.2734	0.0274	-0.044
Mof_N 	N 	0.4723	0.1967	0.8702	-0.356
Mof_H 	H 	0.4552	0.1404	0.8532	0.162
Mof_H 	H 	0.4737	0.2569	0.8545	0.163
Mof_N 	N 	0.5241	0.2765	0.95094	-0.302
Mof_N 	N 	0.5266	0.1312	0.00011	-0.266
Mof_N 	N 	0.4971	0.1022	0.94899	-0.291
Mof_O 	O 	0.5107	0.4136	0.8319	-0.366
Mof_O 	O 	0.6449	0.453	0.883	-0.488
Mof_Zn	Zn	0.06462	0.54008	0.93736	1.183
Mof_C 	C 	0.0683	0.6052	0.8389	0.335
Mof_C 	C 	0.0696	0.7098	0.7002	-0.013
Mof_H 	H 	0.0688	0.682	0.6664	0.039
Mof_C 	C 	0.0699	0.682	0.793	-0.068
Mof_C 	C 	0.0704	0.6417	0.7427	-0.03
Mof_H 	H 	0.0713	0.5688	0.7374	0.057
Mof_C 	C 	0.3095	0.497	0.9217	0.201
Mof_C 	C 	0.2661	0.5422	0.9985	0.085
Mof_H 	H 	0.2266	0.5637	0.0274	-0.044
Mof_N 	N 	0.3033	0.4723	0.8702	-0.356
Mof_H 	H 	0.3596	0.4552	0.8532	0.162
Mof_H 	H 	0.2431	0.4737	0.8545	0.163
Mof_N 	N 	0.2235	0.5241	0.95094	-0.302
Mof_N 	N 	0.3688	0.5266	0.00011	-0.266
Mof_N 	N 	0.3978	0.4971	0.94899	-0.291
Mof_O 	O 	0.0864	0.5107	0.8319	-0.366
Mof_O 	O 	0.047	0.6449	0.883	-0.488
Mof_Zn	Zn	0.43538	0.95992	0.93736	1.183
Mof_C 	C 	0.4317	0.8948	0.8389	0.335
Mof_C 	C 	0.4304	0.7902	0.7002	-0.013
Mof_H 	H 	0.4312	0.818	0.6664	0.039
Mof_C 	C 	0.4301	0.818	0.793	-0.068
Mof_C 	C 	0.4296	0.8583	0.7427	-0.03
Mof_H 	H 	0.4287	0.9312	0.7374	0.057
Mof_C 	C 	0.1905	0.003	0.9217	0.202
Mof_C 	C 	0.2339	0.9578	0.9985	0.084
Mof_H 	H 	0.2734	0.9363	0.0274	-0.044
Mof_N 	N 	0.1967	0.0277	0.8702	-0.356
Mof_H 	H 	0.1404	0.0448	0.8532	0.163
Mof_H 	H 	0.2569	0.0263	0.8545	0.163
Mof_N 	N 	0.2765	0.9759	0.95094	-0.302
Mof_N 	N 	0.1312	0.9734	0.00011	-0.266
Mof_N 	N 	0.1022	0.0029	0.94899	-0.29
Mof_O 	O 	0.4136	0.9893	0.8319	-0.366
Mof_O 	O 	0.453	0.8551	0.883	-0.488
Mof_Zn	Zn	0.45992	0.93538	0.43736	1.183
Mof_C 	C 	0.3948	0.9317	0.3389	0.335
Mof_C 	C 	0.2902	0.9304	0.2002	-0.013
Mof_H 	H 	0.318	0.9312	0.1664	0.039
Mof_C 	C 	0.318	0.9301	0.293	-0.068
Mof_C 	C 	0.3583	0.9296	0.2427	-0.03
Mof_H 	H 	0.4312	0.9287	0.2374	0.057
Mof_C 	C 	0.503	0.6905	0.4217	0.201
Mof_C 	C 	0.4578	0.7339	0.4985	0.084
Mof_H 	H 	0.4363	0.7734	0.5274	-0.044
Mof_N 	N 	0.5277	0.6967	0.3702	-0.356
Mof_H 	H 	0.5448	0.6404	0.3532	0.162
Mof_H 	H 	0.5263	0.7569	0.3545	0.163
Mof_N 	N 	0.4759	0.7765	0.45094	-0.302
Mof_N 	N 	0.4734	0.6312	0.50011	-0.265
Mof_N 	N 	0.5029	0.6022	0.44899	-0.291
Mof_O 	O 	0.4893	0.9136	0.3319	-0.366
Mof_O 	O 	0.3551	0.953	0.383	-0.488
Mof_Zn	Zn	0.04008	0.56462	0.43736	1.183
Mof_C 	C 	0.1052	0.5683	0.3389	0.335
Mof_C 	C 	0.2098	0.5696	0.2002	-0.013
Mof_H 	H 	0.182	0.5688	0.1664	0.039
Mof_C 	C 	0.182	0.5699	0.293	-0.068
Mof_C 	C 	0.1417	0.5704	0.2427	-0.03
Mof_H 	H 	0.0688	0.5713	0.2374	0.057
Mof_C 	C 	0.997	0.8095	0.4217	0.202
Mof_C 	C 	0.0422	0.7661	0.4985	0.084
Mof_H 	H 	0.0637	0.7266	0.5274	-0.044
Mof_N 	N 	0.9723	0.8033	0.3702	-0.356
Mof_H 	H 	0.9552	0.8596	0.3532	0.162
Mof_H 	H 	0.9737	0.7431	0.3545	0.163
Mof_N 	N 	0.0241	0.7235	0.45094	-0.302
Mof_N 	N 	0.0266	0.8688	0.50011	-0.266
Mof_N 	N 	0.9971	0.8978	0.44899	-0.29
Mof_O 	O 	0.0107	0.5864	0.3319	-0.366
Mof_O 	O 	0.1449	0.547	0.383	-0.488
Mof_Zn	Zn	0.56462	0.45992	0.43736	1.183
Mof_C 	C 	0.5683	0.3948	0.3389	0.335
Mof_C 	C 	0.5696	0.2902	0.2002	-0.013
Mof_H 	H 	0.5688	0.318	0.1664	0.039
Mof_C 	C 	0.5699	0.318	0.293	-0.068
Mof_C 	C 	0.5704	0.3583	0.2427	-0.03
Mof_H 	H 	0.5713	0.4312	0.2374	0.057
Mof_C 	C 	0.8095	0.503	0.4217	0.201
Mof_C 	C 	0.7661	0.4578	0.4985	0.084
Mof_H 	H 	0.7266	0.4363	0.5274	-0.044
Mof_N 	N 	0.8033	0.5277	0.3702	-0.356
Mof_H 	H 	0.8596	0.5448	0.3532	0.162
Mof_H 	H 	0.7431	0.5263	0.3545	0.163
Mof_N 	N 	0.7235	0.4759	0.45094	-0.302
Mof_N 	N 	0.8688	0.4734	0.50011	-0.265
Mof_N 	N 	0.8978	0.5029	0.44899	-0.291
Mof_O 	O 	0.5864	0.4893	0.3319	-0.366
Mof_O 	O 	0.547	0.3551	0.383	-0.488
Mof_Zn	Zn	0.93538	0.04008	0.43736	1.182
Mof_C 	C 	0.9317	0.1052	0.3389	0.335
Mof_C 	C 	0.9304	0.2098	0.2002	-0.013
Mof_H 	H 	0.9312	0.182	0.1664	0.039
Mof_C 	C 	0.9301	0.182	0.293	-0.068
Mof_C 	C 	0.9296	0.1417	0.2427	-0.03
Mof_H 	H 	0.9287	0.0688	0.2374	0.056
Mof_C 	C 	0.6905	0.997	0.4217	0.202
Mof_C 	C 	0.7339	0.0422	0.4985	0.084
Mof_H 	H 	0.7734	0.0637	0.5274	-0.044
Mof_N 	N 	0.6967	0.9723	0.3702	-0.356
Mof_H 	H 	0.6404	0.9552	0.3532	0.162
Mof_H 	H 	0.7569	0.9737	0.3545	0.163
Mof_N 	N 	0.7765	0.0241	0.45094	-0.302
Mof_N 	N 	0.6312	0.0266	0.50011	-0.265
Mof_N 	N 	0.6022	0.9971	0.44899	-0.291
Mof_O 	O 	0.9136	0.0107	0.3319	-0.367
Mof_O 	O 	0.953	0.1449	0.383	-0.488
Mof_Zn	Zn	0.04008	0.93538	0.06264	1.182
Mof_C 	C 	0.1052	0.9317	0.1611	0.335
Mof_C 	C 	0.2098	0.9304	0.2998	-0.013
Mof_H 	H 	0.182	0.9312	0.3336	0.039
Mof_C 	C 	0.182	0.9301	0.207	-0.068
Mof_C 	C 	0.1417	0.9296	0.2573	-0.03
Mof_H 	H 	0.0688	0.9287	0.2626	0.056
Mof_C 	C 	0.997	0.6905	0.0783	0.202
Mof_C 	C 	0.0422	0.7339	0.0015	0.084
Mof_H 	H 	0.0637	0.7734	0.9726	-0.044
Mof_N 	N 	0.9723	0.6967	0.1298	-0.356
Mof_H 	H 	0.9552	0.6404	0.1468	0.162
Mof_H 	H 	0.9737	0.7569	0.1455	0.163
Mof_N 	N 	0.0241	0.7765	0.04906	-0.302
Mof_N 	N 	0.0266	0.6312	0.99989	-0.265
Mof_N 	N 	0.9971	0.6022	0.05101	-0.291
Mof_O 	O 	0.0107	0.9136	0.1681	-0.367
Mof_O 	O 	0.1449	0.953	0.117	-0.488
Mof_Zn	Zn	0.45992	0.56462	0.06264	1.183
Mof_C 	C 	0.3948	0.5683	0.1611	0.335
Mof_C 	C 	0.2902	0.5696	0.2998	-0.013
Mof_H 	H 	0.318	0.5688	0.3336	0.039
Mof_C 	C 	0.318	0.5699	0.207	-0.068
Mof_C 	C 	0.3583	0.5704	0.2573	-0.03
Mof_H 	H 	0.4312	0.5713	0.2626	0.057
Mof_C 	C 	0.503	0.8095	0.0783	0.201
Mof_C 	C 	0.4578	0.7661	0.0015	0.085
Mof_H 	H 	0.4363	0.7266	0.9726	-0.044
Mof_N 	N 	0.5277	0.8033	0.1298	-0.356
Mof_H 	H 	0.5448	0.8596	0.1468	0.162
Mof_H 	H 	0.5263	0.7431	0.1455	0.163
Mof_N 	N 	0.4759	0.7235	0.04906	-0.302
Mof_N 	N 	0.4734	0.8688	0.99989	-0.266
Mof_N 	N 	0.5029	0.8978	0.05101	-0.291
Mof_O 	O 	0.4893	0.5864	0.1681	-0.366
Mof_O 	O 	0.3551	0.547	0.117	-0.488
Mof_Zn	Zn	0.93538	0.45992	0.06264	1.183
Mof_C 	C 	0.9317	0.3948	0.1611	0.335
Mof_C 	C 	0.9304	0.2902	0.2998	-0.013
Mof_H 	H 	0.9312	0.318	0.3336	0.039
Mof_C 	C 	0.9301	0.318	0.207	-0.068
Mof_C 	C 	0.9296	0.3583	0.2573	-0.03
Mof_H 	H 	0.9287	0.4312	0.2626	0.057
Mof_C 	C 	0.6905	0.503	0.0783	0.201
Mof_C 	C 	0.7339	0.4578	0.0015	0.085
Mof_H 	H 	0.7734	0.4363	0.9726	-0.044
Mof_N 	N 	0.6967	0.5277	0.1298	-0.356
Mof_H 	H 	0.6404	0.5448	0.1468	0.162
Mof_H 	H 	0.7569	0.5263	0.1455	0.163
Mof_N 	N 	0.7765	0.4759	0.04906	-0.302
Mof_N 	N 	0.6312	0.4734	0.99989	-0.266
Mof_N 	N 	0.6022	0.5029	0.05101	-0.291
Mof_O 	O 	0.9136	0.4893	0.1681	-0.366
Mof_O 	O 	0.953	0.3551	0.117	-0.488
Mof_Zn	Zn	0.56462	0.04008	0.06264	1.183
Mof_C 	C 	0.5683	0.1052	0.1611	0.335
Mof_C 	C 	0.5696	0.2098	0.2998	-0.013
Mof_H 	H 	0.5688	0.182	0.3336	0.039
Mof_C 	C 	0.5699	0.182	0.207	-0.068
Mof_C 	C 	0.5704	0.1417	0.2573	-0.03
Mof_H 	H 	0.5713	0.0688	0.2626	0.057
Mof_C 	C 	0.8095	0.997	0.0783	0.202
Mof_C 	C 	0.7661	0.0422	0.0015	0.084
Mof_H 	H 	0.7266	0.0637	0.9726	-0.044
Mof_N 	N 	0.8033	0.9723	0.1298	-0.356
Mof_H 	H 	0.8596	0.9552	0.1468	0.163
Mof_H 	H 	0.7431	0.9737	0.1455	0.163
Mof_N 	N 	0.7235	0.0241	0.04906	-0.302
Mof_N 	N 	0.8688	0.0266	0.99989	-0.266
Mof_N 	N 	0.8978	0.9971	0.05101	-0.29
Mof_O 	O 	0.5864	0.0107	0.1681	-0.366
Mof_O 	O 	0.547	0.1449	0.117	-0.488
_end
