data_functionalizedCrystal
_audit_creation_method	'EQeq! by Chris Wilmer'
_symmetry_space_group_name_H-M	'P1'
_symmetry_Int_Tables_number	1
_symmetry_cell_setting	triclinic
loop_
_symmetry_equiv_pos_as_xyz
  x,y,z
_cell_length_a	13.392
_cell_length_b	13.872
_cell_length_c	22.211
_cell_angle_alpha	74.977
_cell_angle_beta	89.016
_cell_angle_gamma	76.276
loop_
_atom_site_label
_atom_site_type_symbol
_atom_site_fract_x
_atom_site_fract_y
_atom_site_fract_z
_atom_site_charge
Mof_Pr	Pr	0.78266	0.37302	0.74185	2.631
Mof_O 	O 	0.6367	0.5177	0.6965	-0.64
Mof_C 	C 	0.602	0.6017	0.7057	0.573
Mof_Pr	Pr	0.81226	0.69439	0.72399	2.452
Mof_O 	O 	0.6436	0.6664	0.7136	-0.668
Mof_C 	C 	0.4848	0.6335	0.7075	-0.173
Mof_Pr	Pr	0.86854	0.09806	0.67511	2.64
Mof_O 	O 	0.9028	0.3903	0.8233	-0.541
Mof_C 	C 	0.4231	0.562	0.7062	0.046
Mof_H 	H 	0.4564	0.494	0.705	0.014
Mof_O 	O 	0.835	0.5595	0.8124	-0.678
Mof_C 	C 	0.3163	0.5893	0.7066	-0.114
Mof_H 	H 	0.2776	0.5416	0.7033	0.066
Mof_O 	O 	0.636	0.2891	0.7415	-0.761
Mof_C 	C 	0.2658	0.6878	0.712	0.023
Mof_O 	O 	0.8465	0.5217	0.6837	-0.675
Mof_C 	C 	0.158	0.7157	0.7161	-0.024
Mof_H 	H 	0.118	0.6688	0.7135	0.045
Mof_O 	O 	0.9562	0.2928	0.7212	-0.597
Mof_C 	C 	0.1101	0.8127	0.724	-0.155
Mof_O 	O 	0.0145	0.166	0.6728	-0.657
Mof_C 	C 	0.1677	0.8855	0.7258	0.041
Mof_H 	H 	0.1335	0.9528	0.7278	-0.004
Mof_O 	O 	0.8183	0.2174	0.8258	-0.606
Mof_C 	C 	0.2736	0.8581	0.7247	-0.105
Mof_H 	H 	0.3124	0.905	0.7295	0.057
Mof_C 	C 	0.325	0.7614	0.7164	0.003
Mof_O 	O 	0.8959	0.0827	0.7811	-0.581
Mof_C 	C 	0.4343	0.7313	0.7132	0.004
Mof_H 	H 	0.474	0.779	0.7149	0.026
Mof_O 	O 	0.9801	0.5843	0.6992	-0.481
Mof_C 	C 	0.8908	0.471	0.8416	0.477
Mof_O 	O 	0.7756	0.33	0.6412	-0.639
Mof_C 	C 	0.9409	0.4651	0.9012	-0.171
Mof_O 	O 	0.8028	0.2279	0.5779	-0.582
Mof_C 	C 	0.9214	0.5508	0.9253	0.013
Mof_H 	H 	0.877	0.6138	0.9029	0
Mof_O 	O 	0.7171	0.8686	0.6817	-0.647
Mof_C 	C 	0.9678	0.5429	0.9825	0.004
Mof_O 	O 	0.6986	0.1497	0.7109	-0.632
Mof_C 	C 	0.051	0.3677	0.9921	-0.104
Mof_H 	H 	0.0945	0.3046	0.015	0.053
Mof_O 	O 	0.7708	0.0069	0.6302	-0.648
Mof_C 	C 	0.0073	0.3734	0.9365	0.051
Mof_H 	H 	0.0216	0.3143	0.9208	0.019
Mof_O 	O 	0.9497	0.7644	0.7397	-0.672
Mof_C 	C 	0.6275	0.2264	0.7287	0.717
Mof_O 	O 	0.9532	0.9256	0.7319	-0.651
Mof_C 	C 	0.5202	0.2026	0.7187	-0.203
Mof_C 	C 	0.4396	0.2678	0.7395	0.024
Mof_H 	H 	0.4522	0.3182	0.7583	0.022
Mof_C 	C 	0.3338	0.2569	0.7316	-0.007
Mof_C 	C 	0.2514	0.3235	0.7509	-0.082
Mof_H 	H 	0.2633	0.3738	0.77	0.053
Mof_C 	C 	0.1525	0.3147	0.7417	0.024
Mof_H 	H 	0.0958	0.3586	0.7551	0.032
Mof_C 	C 	0.1356	0.2402	0.7121	-0.112
Mof_C 	C 	0.2175	0.1742	0.6934	-0.033
Mof_H 	H 	0.2052	0.1236	0.6746	0.038
Mof_C 	C 	0.3189	0.182	0.7022	0.041
Mof_C 	C 	0.4052	0.1153	0.6848	-0.141
Mof_H 	H 	0.3948	0.0622	0.6676	0.071
Mof_C 	C 	0.5015	0.1253	0.692	0.094
Mof_H 	H 	0.5578	0.0802	0.6791	-0.002
Mof_C 	C 	0.9348	0.5372	0.6696	0.338
Mof_C 	C 	0.9793	0.5157	0.61	-0.112
Mof_C 	C 	0.0792	0.5312	0.5936	0.005
Mof_H 	H 	0.1214	0.5456	0.6225	0.028
Mof_C 	C 	0.1137	0.525	0.5357	-0.093
Mof_H 	H 	0.1813	0.5317	0.5253	0.058
Mof_C 	C 	0.951	0.491	0.5083	0.006
Mof_C 	C 	0.9193	0.4954	0.5682	-0.026
Mof_H 	H 	0.8537	0.4838	0.5801	0.022
Mof_C 	C 	0.0242	0.2377	0.6934	0.499
Mof_C 	C 	0.8742	0.1337	0.8275	0.457
Mof_C 	C 	0.9225	0.0649	0.8898	-0.119
Mof_C 	C 	0.9356	0.1102	0.9375	-0.021
Mof_H 	H 	0.911	0.1825	0.9303	0.041
Mof_C 	C 	0.9822	0.0546	0.994	0.019
Mof_C 	C 	0.0069	0.9016	0.9577	-0.101
Mof_H 	H 	0.0314	0.8292	0.965	0.058
Mof_C 	C 	0.9627	0.957	0.8998	0.035
Mof_H 	H 	0.9591	0.9243	0.8676	0.026
Mof_C 	C 	0.7527	0.3091	0.5919	0.459
Mof_C 	C 	0.6633	0.3745	0.5511	-0.159
Mof_C 	C 	0.5942	0.4526	0.5671	0.003
Mof_H 	H 	0.605	0.4666	0.6058	0.029
Mof_C 	C 	0.5079	0.5128	0.5287	0.013
Mof_C 	C 	0.5666	0.4084	0.4547	-0.108
Mof_H 	H 	0.5589	0.3945	0.4155	0.066
Mof_C 	C 	0.6483	0.3528	0.4934	0.048
Mof_H 	H 	0.6961	0.2987	0.482	0.015
Mof_C 	C 	0.7126	0.9466	0.6364	0.537
Mof_C 	C 	0.6303	0.9742	0.586	-0.19
Mof_C 	C 	0.6274	0.0818	0.5394	0.037
Mof_H 	H 	0.6709	0.1245	0.5445	0.012
Mof_C 	C 	0.5572	0.1078	0.4914	-0.106
Mof_H 	H 	0.5451	0.175	0.4641	0.058
Mof_C 	C 	0.4947	0.9551	0.5191	0.008
Mof_C 	C 	0.5691	0.9179	0.5796	0.019
Mof_H 	H 	0.5687	0.856	0.6103	0.006
Mof_C 	C 	0.9866	0.839	0.7267	0.569
Mof_Pr	Pr	0.21734	0.62698	0.25815	2.63
Mof_O 	O 	0.3633	0.4823	0.3035	-0.641
Mof_C 	C 	0.398	0.3983	0.2943	0.572
Mof_Pr	Pr	0.18774	0.30561	0.27601	2.451
Mof_O 	O 	0.3564	0.3336	0.2864	-0.669
Mof_C 	C 	0.5152	0.3665	0.2925	-0.174
Mof_Pr	Pr	0.13146	0.90194	0.32489	2.639
Mof_O 	O 	0.0972	0.6097	0.1767	-0.542
Mof_C 	C 	0.5769	0.438	0.2938	0.046
Mof_H 	H 	0.5436	0.506	0.295	0.014
Mof_O 	O 	0.165	0.4405	0.1876	-0.678
Mof_C 	C 	0.6837	0.4107	0.2934	-0.114
Mof_H 	H 	0.7224	0.4584	0.2967	0.066
Mof_O 	O 	0.364	0.7109	0.2585	-0.761
Mof_C 	C 	0.7342	0.3122	0.288	0.023
Mof_O 	O 	0.1535	0.4783	0.3163	-0.675
Mof_C 	C 	0.842	0.2843	0.2839	-0.024
Mof_H 	H 	0.882	0.3312	0.2865	0.045
Mof_O 	O 	0.0438	0.7072	0.2788	-0.597
Mof_C 	C 	0.8899	0.1873	0.276	-0.155
Mof_O 	O 	0.9855	0.834	0.3272	-0.657
Mof_C 	C 	0.8323	0.1145	0.2742	0.041
Mof_H 	H 	0.8665	0.0472	0.2722	-0.004
Mof_O 	O 	0.1817	0.7826	0.1742	-0.606
Mof_C 	C 	0.7264	0.1419	0.2753	-0.105
Mof_H 	H 	0.6876	0.095	0.2705	0.057
Mof_C 	C 	0.675	0.2386	0.2836	0.003
Mof_O 	O 	0.1041	0.9173	0.2189	-0.581
Mof_C 	C 	0.5657	0.2687	0.2868	0.004
Mof_H 	H 	0.526	0.221	0.2851	0.026
Mof_O 	O 	0.0199	0.4157	0.3008	-0.481
Mof_C 	C 	0.1092	0.529	0.1584	0.477
Mof_O 	O 	0.2244	0.67	0.3588	-0.639
Mof_C 	C 	0.0591	0.5349	0.0988	-0.171
Mof_O 	O 	0.1972	0.7721	0.4221	-0.582
Mof_C 	C 	0.0786	0.4492	0.0747	0.013
Mof_H 	H 	0.123	0.3862	0.0971	0
Mof_O 	O 	0.2829	0.1314	0.3183	-0.647
Mof_C 	C 	0.0322	0.4571	0.0175	0.004
Mof_O 	O 	0.3014	0.8503	0.2891	-0.632
Mof_C 	C 	0.949	0.6323	0.0079	-0.104
Mof_H 	H 	0.9055	0.6954	0.985	0.053
Mof_O 	O 	0.2292	0.9931	0.3698	-0.648
Mof_C 	C 	0.9927	0.6266	0.0635	0.051
Mof_H 	H 	0.9784	0.6857	0.0792	0.019
Mof_O 	O 	0.0503	0.2356	0.2603	-0.672
Mof_C 	C 	0.3725	0.7736	0.2713	0.717
Mof_O 	O 	0.0468	0.0744	0.2681	-0.651
Mof_C 	C 	0.4798	0.7974	0.2813	-0.203
Mof_C 	C 	0.5604	0.7322	0.2605	0.024
Mof_H 	H 	0.5478	0.6818	0.2417	0.022
Mof_C 	C 	0.6662	0.7431	0.2684	-0.007
Mof_C 	C 	0.7486	0.6765	0.2491	-0.082
Mof_H 	H 	0.7367	0.6262	0.23	0.053
Mof_C 	C 	0.8475	0.6853	0.2583	0.024
Mof_H 	H 	0.9042	0.6414	0.2449	0.032
Mof_C 	C 	0.8644	0.7598	0.2879	-0.112
Mof_C 	C 	0.7825	0.8258	0.3066	-0.033
Mof_H 	H 	0.7948	0.8764	0.3254	0.038
Mof_C 	C 	0.6811	0.818	0.2978	0.041
Mof_C 	C 	0.5948	0.8847	0.3152	-0.141
Mof_H 	H 	0.6052	0.9378	0.3324	0.071
Mof_C 	C 	0.4985	0.8747	0.308	0.094
Mof_H 	H 	0.4422	0.9198	0.3209	-0.002
Mof_C 	C 	0.0652	0.4628	0.3304	0.338
Mof_C 	C 	0.0207	0.4843	0.39	-0.112
Mof_C 	C 	0.9208	0.4688	0.4064	0.005
Mof_H 	H 	0.8786	0.4544	0.3775	0.028
Mof_C 	C 	0.8863	0.475	0.4643	-0.093
Mof_H 	H 	0.8187	0.4683	0.4747	0.058
Mof_C 	C 	0.049	0.509	0.4917	0.006
Mof_C 	C 	0.0807	0.5046	0.4318	-0.026
Mof_H 	H 	0.1463	0.5162	0.4199	0.022
Mof_C 	C 	0.9758	0.7623	0.3066	0.499
Mof_C 	C 	0.1258	0.8663	0.1725	0.457
Mof_C 	C 	0.0775	0.9351	0.1102	-0.119
Mof_C 	C 	0.0644	0.8898	0.0625	-0.021
Mof_H 	H 	0.089	0.8175	0.0697	0.041
Mof_C 	C 	0.0178	0.9454	0.006	0.019
Mof_C 	C 	0.9931	0.0984	0.0423	-0.101
Mof_H 	H 	0.9686	0.1708	0.035	0.058
Mof_C 	C 	0.0373	0.043	0.1002	0.035
Mof_H 	H 	0.0409	0.0757	0.1324	0.026
Mof_C 	C 	0.2473	0.6909	0.4081	0.459
Mof_C 	C 	0.3367	0.6255	0.4489	-0.159
Mof_C 	C 	0.4058	0.5474	0.4329	0.003
Mof_H 	H 	0.395	0.5334	0.3942	0.029
Mof_C 	C 	0.4921	0.4872	0.4713	0.013
Mof_C 	C 	0.4334	0.5916	0.5453	-0.108
Mof_H 	H 	0.4411	0.6055	0.5845	0.066
Mof_C 	C 	0.3517	0.6472	0.5066	0.048
Mof_H 	H 	0.3039	0.7013	0.518	0.015
Mof_C 	C 	0.2874	0.0534	0.3636	0.537
Mof_C 	C 	0.3697	0.0258	0.414	-0.19
Mof_C 	C 	0.3726	0.9182	0.4606	0.037
Mof_H 	H 	0.3291	0.8755	0.4555	0.012
Mof_C 	C 	0.4428	0.8922	0.5086	-0.106
Mof_H 	H 	0.4549	0.825	0.5359	0.058
Mof_C 	C 	0.5053	0.0449	0.4809	0.008
Mof_C 	C 	0.4309	0.0821	0.4204	0.019
Mof_H 	H 	0.4313	0.144	0.3897	0.006
Mof_C 	C 	0.0134	0.161	0.2733	0.569
_end
