data_functionalizedCrystal
_audit_creation_method	'EQeq! by Chris Wilmer'
_symmetry_space_group_name_H-M	'P1'
_symmetry_Int_Tables_number	1
_symmetry_cell_setting	triclinic
loop_
_symmetry_equiv_pos_as_xyz
  x,y,z
_cell_length_a	13.0662
_cell_length_b	14.7659
_cell_length_c	15.3925
_cell_angle_alpha	90
_cell_angle_beta	90.296
_cell_angle_gamma	90
loop_
_atom_site_label
_atom_site_type_symbol
_atom_site_fract_x
_atom_site_fract_y
_atom_site_fract_z
_atom_site_charge
Mof_Cu	Cu	0.51254	0.286	0.90876	0.871
Mof_N 	N 	0.59455	0.40318	0.04754	-0.153
Mof_N 	N 	0.60208	0.32237	0.01059	-0.172
Mof_N 	N 	0.66541	0.27022	0.05652	-0.108
Mof_N 	N 	0.65291	0.40671	0.11814	-0.091
Mof_N 	N 	0.40878	0.37453	0.9512	-0.223
Mof_N 	N 	0.32414	0.34856	0.96595	-0.038
Mof_N 	N 	0.2424	0.3246	0.9824	-0.065
Mof_N 	N 	0.42511	0.50225	0.11446	-0.156
Mof_N 	N 	0.37029	0.43172	0.14163	-0.1
Mof_N 	N 	0.41436	0.57196	0.16779	-0.106
Mof_N 	N 	0.35149	0.54832	0.23214	-0.092
Mof_N 	N 	0.1208	0.29261	0.35366	-0.234
Mof_N 	N 	0.9123	0.24892	0.31484	-0.217
Mof_C 	C 	0.69525	0.32403	0.12214	0.095
Mof_C 	C 	0.7682	0.29687	0.1897	0.05
Mof_C 	C 	0.8066	0.20906	0.19366	-0.115
Mof_H 	H 	0.7846	0.1645	0.1532	0.068
Mof_C 	C 	0.8027	0.35921	0.2506	-0.116
Mof_H 	H 	0.777	0.4194	0.2504	0.081
Mof_C 	C 	0.3263	0.4618	0.21377	0.094
Mof_C 	C 	0.2557	0.4051	0.26371	0.048
Mof_C 	C 	0.2101	0.33007	0.22387	-0.121
Mof_H 	H 	0.2247	0.3162	0.165	0.074
Mof_C 	C 	0.1444	0.27678	0.27014	0.066
Mof_H 	H 	0.1141	0.2262	0.2419	-0.01
Mof_C 	C 	0.1648	0.36415	0.39237	0.067
Mof_H 	H 	0.1493	0.376	0.4515	-0.012
Mof_C 	C 	0.2318	0.42147	0.35	-0.121
Mof_H 	H 	0.2612	0.4716	0.3797	0.075
Mof_C 	C 	0.8745	0.33295	0.31124	0.079
Mof_H 	H 	0.8981	0.3763	0.3523	-0.006
Mof_C 	C 	0.8772	0.18788	0.25742	0.075
Mof_H 	H 	0.9021	0.1275	0.2608	0.004
Mof_Cu	Cu	0.98746	0.786	0.59124	0.879
Mof_N 	N 	0.90545	0.90318	0.45246	-0.127
Mof_N 	N 	0.89792	0.82237	0.48941	-0.15
Mof_N 	N 	0.83459	0.77022	0.44348	-0.095
Mof_N 	N 	0.84709	0.90671	0.38186	-0.078
Mof_N 	N 	0.09122	0.87453	0.5488	-0.239
Mof_N 	N 	0.17586	0.84856	0.53405	-0.041
Mof_N 	N 	0.2576	0.8246	0.5176	-0.069
Mof_N 	N 	0.07489	0.00225	0.38554	-0.178
Mof_N 	N 	0.12971	0.93172	0.35837	-0.085
Mof_N 	N 	0.08564	0.07196	0.33221	-0.114
Mof_N 	N 	0.14851	0.04832	0.26786	-0.12
Mof_N 	N 	0.3792	0.79261	0.14634	-0.232
Mof_N 	N 	0.5877	0.74892	0.18516	-0.23
Mof_C 	C 	0.80475	0.82403	0.37786	0.102
Mof_C 	C 	0.7318	0.79687	0.3103	0.06
Mof_C 	C 	0.6934	0.70906	0.30634	-0.118
Mof_H 	H 	0.7154	0.6645	0.3468	0.08
Mof_C 	C 	0.6973	0.85921	0.2494	-0.121
Mof_H 	H 	0.723	0.9194	0.2496	0.09
Mof_C 	C 	0.1737	0.9618	0.28623	0.131
Mof_C 	C 	0.2443	0.9051	0.23629	0.042
Mof_C 	C 	0.2899	0.83007	0.27613	-0.112
Mof_H 	H 	0.2753	0.8162	0.335	0.085
Mof_C 	C 	0.3556	0.77678	0.22986	0.068
Mof_H 	H 	0.3859	0.7262	0.2581	0.002
Mof_C 	C 	0.3352	0.86415	0.10763	0.066
Mof_H 	H 	0.3507	0.876	0.0485	-0.015
Mof_C 	C 	0.2682	0.92147	0.15	-0.114
Mof_H 	H 	0.2388	0.9716	0.1203	0.074
Mof_C 	C 	0.6255	0.83295	0.18876	0.082
Mof_H 	H 	0.6019	0.8763	0.1477	-0.016
Mof_C 	C 	0.6228	0.68788	0.24258	0.078
Mof_H 	H 	0.5979	0.6275	0.2392	0
Mof_Cu	Cu	0.48746	0.714	0.09124	0.853
Mof_N 	N 	0.40545	0.59682	0.95246	-0.135
Mof_N 	N 	0.39792	0.67763	0.98941	-0.139
Mof_N 	N 	0.33459	0.72978	0.94348	-0.087
Mof_N 	N 	0.34709	0.59329	0.88186	-0.088
Mof_N 	N 	0.59122	0.62547	0.0488	-0.244
Mof_N 	N 	0.67586	0.65144	0.03405	-0.047
Mof_N 	N 	0.7576	0.6754	0.0176	-0.079
Mof_N 	N 	0.57489	0.49775	0.88554	-0.137
Mof_N 	N 	0.62971	0.56828	0.85837	-0.083
Mof_N 	N 	0.58564	0.42804	0.83221	-0.098
Mof_N 	N 	0.64851	0.45168	0.76786	-0.086
Mof_N 	N 	0.8792	0.70739	0.64634	-0.225
Mof_N 	N 	0.0877	0.75108	0.68516	-0.239
Mof_C 	C 	0.30475	0.67597	0.87786	0.101
Mof_C 	C 	0.2318	0.70313	0.8103	0.059
Mof_C 	C 	0.1934	0.79094	0.80634	-0.118
Mof_H 	H 	0.2154	0.8355	0.8468	0.088
Mof_C 	C 	0.1973	0.64079	0.7494	-0.123
Mof_H 	H 	0.223	0.5806	0.7496	0.081
Mof_C 	C 	0.6737	0.5382	0.78623	0.102
Mof_C 	C 	0.7443	0.5949	0.73629	0.061
Mof_C 	C 	0.7899	0.66993	0.77613	-0.117
Mof_H 	H 	0.7753	0.6838	0.835	0.102
Mof_C 	C 	0.8556	0.72322	0.72986	0.082
Mof_H 	H 	0.8859	0.7738	0.7581	0.013
Mof_C 	C 	0.8352	0.63585	0.60763	0.079
Mof_H 	H 	0.8507	0.624	0.5485	-0.003
Mof_C 	C 	0.7682	0.57853	0.65	-0.119
Mof_H 	H 	0.7388	0.5284	0.6203	0.08
Mof_C 	C 	0.1255	0.66705	0.68876	0.078
Mof_H 	H 	0.1019	0.6237	0.6477	-0.025
Mof_C 	C 	0.1228	0.81212	0.74258	0.077
Mof_H 	H 	0.0979	0.8725	0.7392	0
Mof_Cu	Cu	0.01254	0.214	0.40876	0.844
Mof_N 	N 	0.09455	0.09682	0.54754	-0.158
Mof_N 	N 	0.10208	0.17763	0.51059	-0.162
Mof_N 	N 	0.16541	0.22978	0.55652	-0.101
Mof_N 	N 	0.15291	0.09329	0.61814	-0.101
Mof_N 	N 	0.90878	0.12547	0.4512	-0.223
Mof_N 	N 	0.82414	0.15144	0.46595	-0.044
Mof_N 	N 	0.7424	0.1754	0.4824	-0.075
Mof_N 	N 	0.92511	0.99775	0.61446	-0.114
Mof_N 	N 	0.87029	0.06828	0.64163	-0.095
Mof_N 	N 	0.91436	0.92804	0.66779	-0.09
Mof_N 	N 	0.85149	0.95168	0.73214	-0.059
Mof_N 	N 	0.6208	0.20739	0.85366	-0.227
Mof_N 	N 	0.4123	0.25108	0.81484	-0.228
Mof_C 	C 	0.19525	0.17597	0.62214	0.094
Mof_C 	C 	0.2682	0.20313	0.6897	0.048
Mof_C 	C 	0.3066	0.29094	0.69366	-0.116
Mof_H 	H 	0.2846	0.3355	0.6532	0.075
Mof_C 	C 	0.3027	0.14079	0.7506	-0.119
Mof_H 	H 	0.277	0.0806	0.7504	0.071
Mof_C 	C 	0.8263	0.0382	0.71377	0.068
Mof_C 	C 	0.7557	0.0949	0.76371	0.066
Mof_C 	C 	0.7101	0.16993	0.72387	-0.125
Mof_H 	H 	0.7247	0.1838	0.665	0.092
Mof_C 	C 	0.6444	0.22322	0.77014	0.079
Mof_H 	H 	0.6141	0.2738	0.7419	0.001
Mof_C 	C 	0.6648	0.13585	0.89237	0.079
Mof_H 	H 	0.6493	0.124	0.9515	0
Mof_C 	C 	0.7318	0.07853	0.85	-0.126
Mof_H 	H 	0.7612	0.0284	0.8797	0.08
Mof_C 	C 	0.3745	0.16705	0.81124	0.074
Mof_H 	H 	0.3981	0.1237	0.8523	-0.017
Mof_C 	C 	0.3772	0.31212	0.75742	0.073
Mof_H 	H 	0.4021	0.3725	0.7608	0.002
Mof_Cu	Cu	0.5	0.5	-0	0.855
Mof_Cu	Cu	5.9816e-19	0	0.5	0.839
_end
