data_functionalizedCrystal
_audit_creation_method	'EQeq! by Chris Wilmer'
_symmetry_space_group_name_H-M	'P1'
_symmetry_Int_Tables_number	1
_symmetry_cell_setting	triclinic
loop_
_symmetry_equiv_pos_as_xyz
  x,y,z
_cell_length_a	13.419
_cell_length_b	17.125
_cell_length_c	9.252
_cell_angle_alpha	90
_cell_angle_beta	112.79
_cell_angle_gamma	90
loop_
_atom_site_label
_atom_site_type_symbol
_atom_site_fract_x
_atom_site_fract_y
_atom_site_fract_z
_atom_site_charge
Mof_V 	V 	0.0333	0.7293	0.5427	1.205
Mof_P 	P 	0.0719	0.874	0.3221	0.412
Mof_P 	P 	0.3771	0.8442	0.6903	0.436
Mof_O 	O 	0.1771	0.918	0.3946	-0.5
Mof_O 	O 	0.0547	0.8523	0.1547	-0.598
Mof_O 	O 	0.0674	0.8046	0.4197	-0.765
Mof_O 	O 	0.3309	0.9226	0.7097	-0.371
Mof_O 	O 	0.0605	0.6463	0.4156	-0.694
Mof_O 	O 	0.0312	0.6812	0.1498	-0.253
Mof_O 	O 	0.0832	0.6935	0.1551	-0.366
Mof_O 	O 	0.1534	0.7861	0.9746	0.673
Mof_O 	O 	0.1213	0.7594	0.9742	-0.959
Mof_V 	V 	0.5333	0.2293	0.5427	1.257
Mof_P 	P 	0.5719	0.374	0.3221	0.403
Mof_P 	P 	0.8771	0.3442	0.6903	0.437
Mof_O 	O 	0.6771	0.418	0.3946	-0.564
Mof_O 	O 	0.5547	0.3523	0.1547	-0.589
Mof_O 	O 	0.5674	0.3046	0.4197	-0.74
Mof_O 	O 	0.8309	0.4226	0.7097	-0.439
Mof_O 	O 	0.5605	0.1463	0.4156	-0.682
Mof_O 	O 	0.5312	0.1812	0.1498	-0.206
Mof_O 	O 	0.5832	0.1935	0.1551	-0.39
Mof_O 	O 	0.6534	0.2861	0.9746	0.621
Mof_O 	O 	0.6213	0.2594	0.9742	-0.881
Mof_V 	V 	0.9667	0.7293	0.4573	1.3
Mof_P 	P 	0.9281	0.874	0.6779	0.478
Mof_P 	P 	0.6229	0.8442	0.3097	0.442
Mof_O 	O 	0.8229	0.918	0.6054	-0.443
Mof_O 	O 	0.9453	0.8523	0.8453	-0.302
Mof_O 	O 	0.9326	0.8046	0.5803	-0.702
Mof_O 	O 	0.6691	0.9226	0.2903	-0.45
Mof_O 	O 	0.9395	0.6463	0.5844	-0.6
Mof_O 	O 	0.9688	0.6812	0.8502	-0.018
Mof_O 	O 	0.9168	0.6935	0.8449	-0.267
Mof_O 	O 	0.8466	0.7861	0.0254	0.406
Mof_O 	O 	0.8787	0.7594	0.0258	-0.98
Mof_V 	V 	0.4667	0.2293	0.4573	1.239
Mof_P 	P 	0.4281	0.374	0.6779	0.421
Mof_P 	P 	0.1229	0.3442	0.3097	0.437
Mof_O 	O 	0.3229	0.418	0.6054	-0.53
Mof_O 	O 	0.4453	0.3523	0.8453	-0.368
Mof_O 	O 	0.4326	0.3046	0.5803	-0.741
Mof_O 	O 	0.1691	0.4226	0.2903	-0.56
Mof_O 	O 	0.4395	0.1463	0.5844	-0.668
Mof_O 	O 	0.4688	0.1812	0.8502	-0.113
Mof_O 	O 	0.4168	0.1935	0.8449	-0.239
Mof_O 	O 	0.3466	0.2861	0.0254	0.402
Mof_O 	O 	0.3787	0.2594	0.0258	-1.059
Mof_V 	V 	0.9667	0.2707	0.4573	1.297
Mof_P 	P 	0.9281	0.126	0.6779	0.417
Mof_P 	P 	0.6229	0.1558	0.3097	0.441
Mof_O 	O 	0.8229	0.082	0.6054	-0.564
Mof_O 	O 	0.9453	0.1477	0.8453	-0.346
Mof_O 	O 	0.9326	0.1954	0.5803	-0.711
Mof_O 	O 	0.6691	0.0774	0.2903	-0.596
Mof_O 	O 	0.9395	0.3537	0.5844	-0.601
Mof_O 	O 	0.9688	0.3188	0.8502	-0.02
Mof_O 	O 	0.9168	0.3065	0.8449	-0.272
Mof_O 	O 	0.8466	0.2139	0.0254	0.307
Mof_O 	O 	0.8787	0.2406	0.0258	-0.905
Mof_V 	V 	0.4667	0.7707	0.4573	1.243
Mof_P 	P 	0.4281	0.626	0.6779	0.422
Mof_P 	P 	0.1229	0.6558	0.3097	0.438
Mof_O 	O 	0.3229	0.582	0.6054	-0.529
Mof_O 	O 	0.4453	0.6477	0.8453	-0.367
Mof_O 	O 	0.4326	0.6954	0.5803	-0.74
Mof_O 	O 	0.1691	0.5774	0.2903	-0.559
Mof_O 	O 	0.4395	0.8537	0.5844	-0.61
Mof_O 	O 	0.4688	0.8188	0.8502	-0.069
Mof_O 	O 	0.4168	0.8065	0.8449	-0.252
Mof_O 	O 	0.3466	0.7139	0.0254	0.386
Mof_O 	O 	0.3787	0.7406	0.0258	-1.031
Mof_V 	V 	0.0333	0.2707	0.5427	1.201
Mof_P 	P 	0.0719	0.126	0.3221	0.35
Mof_P 	P 	0.3771	0.1558	0.6903	0.434
Mof_O 	O 	0.1771	0.082	0.3946	-0.621
Mof_O 	O 	0.0547	0.1477	0.1547	-0.642
Mof_O 	O 	0.0674	0.1954	0.4197	-0.774
Mof_O 	O 	0.3309	0.0774	0.7097	-0.517
Mof_O 	O 	0.0605	0.3537	0.4156	-0.695
Mof_O 	O 	0.0312	0.3188	0.1498	-0.255
Mof_O 	O 	0.0832	0.3065	0.1551	-0.372
Mof_O 	O 	0.1534	0.2139	0.9746	0.574
Mof_O 	O 	0.1213	0.2406	0.9742	-0.884
Mof_V 	V 	0.5333	0.7707	0.5427	1.261
Mof_P 	P 	0.5719	0.626	0.3221	0.403
Mof_P 	P 	0.8771	0.6558	0.6903	0.438
Mof_O 	O 	0.6771	0.582	0.3946	-0.563
Mof_O 	O 	0.5547	0.6477	0.1547	-0.588
Mof_O 	O 	0.5674	0.6954	0.4197	-0.739
Mof_O 	O 	0.8309	0.5774	0.7097	-0.438
Mof_O 	O 	0.5605	0.8537	0.4156	-0.623
Mof_O 	O 	0.5312	0.8188	0.1498	-0.162
Mof_O 	O 	0.5832	0.8065	0.1551	-0.403
Mof_O 	O 	0.6534	0.7139	0.9746	0.605
Mof_O 	O 	0.6213	0.7406	0.9742	-0.854
Mof_V 	V 	0.23	0	0.5612	1.611
Mof_V 	V 	0.73	0.5	0.5612	1.693
Mof_V 	V 	0.77	0	0.4388	1.617
Mof_V 	V 	0.27	0.5	0.4388	1.681
Mof_V 	V 	-1.28785e-32	0.7689	-0	1.721
Mof_V 	V 	0.5	0.2689	-0	1.76
Mof_V 	V 	-3.21963e-33	0.2311	-0	1.712
Mof_V 	V 	0.5	0.7311	-0	1.758
_end
