data_functionalizedCrystal
_audit_creation_method	'EQeq! by Chris Wilmer'
_symmetry_space_group_name_H-M	'P1'
_symmetry_Int_Tables_number	1
_symmetry_cell_setting	triclinic
loop_
_symmetry_equiv_pos_as_xyz
  x,y,z
_cell_length_a	21.224
_cell_length_b	21.224
_cell_length_c	7.71
_cell_angle_alpha	90
_cell_angle_beta	90
_cell_angle_gamma	120
loop_
_atom_site_label
_atom_site_type_symbol
_atom_site_fract_x
_atom_site_fract_y
_atom_site_fract_z
_atom_site_charge
Mof_O 	O 	0.0917	0.1315	0.2984	-0.49
Mof_O 	O 	0.6268	0.4243	0.9638	-0.501
Mof_Zn	Zn	0.63313	0.36689	0.14908	1.228
Mof_Zn	Zn	0.0335	0.06697	0.48212	1.227
Mof_C 	C 	0.6568	0.4473	0.821	0.464
Mof_C 	C 	0.8755	0.8848	0.1435	0.457
Mof_C 	C 	0.5524	0.343	0.4786	0.474
Mof_O 	O 	0.9342	0.9065	0.2274	-0.517
Mof_C 	C 	0.1146	0.125	0.1527	0.45
Mof_O 	O 	0.5749	0.3724	0.3349	-0.5
Mof_O 	O 	0.5728	0.3055	0.5609	-0.524
Mof_O 	O 	0.0928	0.0653	0.0713	-0.517
Mof_O 	O 	0.6944	0.4264	0.7379	-0.521
Mof_O 	O 	0.8685	0.9085	0.0013	-0.493
Mof_C 	C 	0.4959	0.3565	0.566	-0.247
Mof_C 	C 	0.8067	0.8296	0.2329	-0.229
Mof_C 	C 	0.6436	0.5035	0.7292	-0.24
Mof_C 	C 	0.1707	0.1937	0.0634	-0.238
Mof_C 	C 	0.4193	0.3429	0.812	-0.309
Mof_H 	H 	0.4037	0.3264	0.9242	0.177
Mof_C 	C 	0.6694	0.5288	0.566	0.221
Mof_H 	H 	0.6952	0.5107	0.5069	-0.023
Mof_C 	C 	0.195	0.1934	0.8954	0.22
Mof_H 	H 	0.176	0.1499	0.834	-0.024
Mof_F 	F 	0.3354	0.4832	0.0122	-0.346
Mof_C 	C 	0.7409	0.8017	0.1469	0.225
Mof_H 	H 	0.7401	0.8184	0.0358	0.032
Mof_C 	C 	0.8074	0.8052	0.4013	0.201
Mof_H 	H 	0.851	0.824	0.4622	-0.017
Mof_C 	C 	0.6063	0.5307	0.8185	0.233
Mof_H 	H 	0.5897	0.5144	0.9301	0.028
Mof_F 	F 	0.2615	0.3665	0.5571	-0.498
Mof_C 	C 	0.1995	0.2597	0.1515	0.246
Mof_H 	H 	0.1839	0.2606	0.2637	0.025
Mof_C 	C 	0.4721	0.331	0.7316	0.213
Mof_H 	H 	0.491	0.3059	0.7903	-0.02
Mof_F 	F 	0.3313	0.4808	0.6198	-0.345
Mof_C 	C 	0.6766	0.7235	0.3868	0.382
Mof_C 	C 	0.2473	0.2576	0.8196	-0.325
Mof_H 	H 	0.2636	0.257	0.708	0.183
Mof_C 	C 	0.6579	0.5812	0.4866	-0.317
Mof_H 	H 	0.6752	0.5972	0.3751	0.18
Mof_F 	F 	0.6334	0.7386	0.7408	-0.471
Mof_C 	C 	0.2757	0.3232	0.9099	0.39
Mof_C 	C 	0.5936	0.583	0.7421	-0.314
Mof_H 	H 	0.5672	0.6001	0.8024	0.292
Mof_F 	F 	0.4057	0.4391	0.0749	-0.483
Mof_C 	C 	0.6071	0.6666	0.4838	-0.488
Mof_C 	C 	0.742	0.7522	0.4779	-0.307
Mof_H 	H 	0.7424	0.7362	0.59	0.177
Mof_C 	C 	0.3329	0.3942	0.8137	-0.478
Mof_F 	F 	0.5171	0.6642	0.2851	-0.359
Mof_F 	F 	0.5196	0.6692	0.6781	-0.353
Mof_C 	C 	0.4682	0.3942	0.4802	0.255
Mof_H 	H 	0.485	0.4119	0.3693	0.022
Mof_F 	F 	0.5614	0.5948	0.2238	-0.481
Mof_C 	C 	0.4169	0.406	0.5538	-0.331
Mof_H 	H 	0.3991	0.4316	0.4929	0.297
Mof_F 	F 	0.4322	0.5136	0.8623	-0.393
Mof_C 	C 	0.6757	0.7494	0.2214	-0.31
Mof_H 	H 	0.6321	0.732	0.1614	0.292
Mof_C 	C 	0.5425	0.6236	0.352	0.962
Mof_F 	F 	0.4864	0.5678	0.4363	-0.39
Mof_C 	C 	0.2504	0.3231	0.0748	-0.335
Mof_H 	H 	0.2681	0.3667	0.1347	0.298
Mof_F 	F 	0.2339	0.4142	0.7677	-0.396
Mof_C 	C 	0.5857	0.7093	0.61	0.954
Mof_C 	C 	0.3906	0.3801	0.72	0.38
Mof_C 	C 	0.62	0.61	0.5764	0.388
Mof_C 	C 	0.2889	0.4126	0.684	0.977
Mof_F 	F 	0.5855	0.7662	0.5303	-0.387
Mof_C 	C 	0.3772	0.4576	0.946	0.959
Mof_O 	O 	0.8685	0.9602	0.63173	-0.489
Mof_O 	O 	0.5757	0.2025	0.29713	-0.499
Mof_Zn	Zn	0.63311	0.26624	0.48241	1.227
Mof_Zn	Zn	0.93303	0.96653	0.81545	1.227
Mof_C 	C 	0.5527	0.2095	0.15433	0.463
Mof_C 	C 	0.1152	0.9907	0.47683	0.458
Mof_C 	C 	0.657	0.2094	0.81193	0.474
Mof_O 	O 	0.0935	0.0277	0.56073	-0.519
Mof_C 	C 	0.875	0.9896	0.48603	0.451
Mof_O 	O 	0.6276	0.2025	0.66823	-0.5
Mof_O 	O 	0.6945	0.2673	0.89423	-0.524
Mof_O 	O 	0.9347	0.0275	0.40463	-0.52
Mof_O 	O 	0.5736	0.268	0.07123	-0.521
Mof_O 	O 	0.0915	0.96	0.33463	-0.491
Mof_C 	C 	0.6435	0.1394	0.89933	-0.247
Mof_C 	C 	0.1704	0.9771	0.56623	-0.211
Mof_C 	C 	0.4965	0.1401	0.06253	-0.238
Mof_C 	C 	0.8063	0.977	0.39673	-0.226
Mof_C 	C 	0.6571	0.0764	0.14533	-0.308
Mof_H 	H 	0.6736	0.0773	0.25753	0.176
Mof_C 	C 	0.4712	0.1406	0.89933	0.217
Mof_H 	H 	0.4893	0.1845	0.84023	-0.022
Mof_C 	C 	0.8066	0.0016	0.22873	0.198
Mof_H 	H 	0.8501	0.0261	0.16733	-0.017
Mof_F 	F 	0.5168	0.8522	0.34553	-0.346
Mof_C 	C 	0.1983	0.9392	0.48023	0.211
Mof_H 	H 	0.1816	0.9217	0.36913	0.038
Mof_C 	C 	0.1948	0.0022	0.73463	0.171
Mof_H 	H 	0.176	0.027	0.79553	-0.008
Mof_C 	C 	0.4693	0.0756	0.15183	0.234
Mof_H 	H 	0.4856	0.0753	0.26343	0.027
Mof_F 	F 	0.6335	0.895	0.89043	-0.496
Mof_C 	C 	0.7403	0.9398	0.48483	0.236
Mof_H 	H 	0.7394	0.9233	0.59703	0.029
Mof_C 	C 	0.669	0.1411	0.06493	0.212
Mof_H 	H 	0.6941	0.1851	0.12363	-0.02
Mof_F 	F 	0.5192	0.8505	0.95313	-0.344
Mof_C 	C 	0.2765	0.9531	0.72013	0.366
Mof_C 	C 	0.7424	0.9897	0.15293	-0.3
Mof_H 	H 	0.743	0.0066	0.04133	0.172
Mof_C 	C 	0.4188	0.0767	0.81993	-0.313
Mof_H 	H 	0.4028	0.078	0.70843	0.177
Mof_F 	F 	0.2614	0.8948	0.07413	-0.469
Mof_C 	C 	0.6768	0.9525	0.24323	0.38
Mof_C 	C 	0.417	0.0106	0.07543	-0.318
Mof_H 	H 	0.3999	0.9671	0.13573	0.296
Mof_F 	F 	0.5609	0.9666	0.40823	-0.481
Mof_C 	C 	0.3334	0.9405	0.81713	-0.479
Mof_C 	C 	0.2478	0.9898	0.81123	-0.275
Mof_H 	H 	0.2638	0.0062	0.92333	0.163
Mof_C 	C 	0.6058	0.9387	0.14703	-0.472
Mof_F 	F 	0.3358	0.8529	0.61843	-0.359
Mof_F 	F 	0.3308	0.8504	0.01143	-0.353
Mof_C 	C 	0.6058	0.074	0.81353	0.258
Mof_H 	H 	0.5881	0.0731	0.70263	0.02
Mof_F 	F 	0.4052	0.9666	0.55713	-0.478
Mof_C 	C 	0.594	0.0109	0.88713	-0.338
Mof_H 	H 	0.5684	0.9675	0.82623	0.302
Mof_F 	F 	0.4864	0.9186	0.19563	-0.392
Mof_C 	C 	0.2506	0.9263	0.55473	-0.295
Mof_H 	H 	0.268	0.9001	0.49473	0.287
Mof_C 	C 	0.3764	0.9189	0.68533	0.96
Mof_F 	F 	0.4322	0.9186	0.76963	-0.389
Mof_C 	C 	0.6769	0.9273	0.40813	-0.325
Mof_H 	H 	0.6333	0.9014	0.46803	0.295
Mof_F 	F 	0.5858	0.8197	0.10103	-0.395
Mof_C 	C 	0.2907	0.8764	0.94333	0.95
Mof_C 	C 	0.6199	0.0105	0.05333	0.376
Mof_C 	C 	0.39	0.01	0.90973	0.382
Mof_C 	C 	0.5874	0.8763	0.01733	0.974
Mof_F 	F 	0.2338	0.8193	0.86363	-0.386
Mof_C 	C 	0.5424	0.9196	0.27933	0.959
Mof_O 	O 	0.0398	0.9083	0.96507	-0.488
Mof_O 	O 	0.7975	0.3732	0.63047	-0.499
Mof_Zn	Zn	0.73376	0.36687	0.81575	1.228
Mof_Zn	Zn	0.03347	0.9665	0.14879	1.228
Mof_C 	C 	0.7905	0.3432	0.48767	0.464
Mof_C 	C 	0.0093	0.1245	0.81017	0.457
Mof_C 	C 	0.7906	0.4476	0.14527	0.475
Mof_O 	O 	0.9723	0.0658	0.89407	-0.52
Mof_C 	C 	0.0104	0.8854	0.81937	0.452
Mof_O 	O 	0.7975	0.4251	0.00157	-0.501
Mof_O 	O 	0.7327	0.4272	0.22757	-0.524
Mof_O 	O 	0.9725	0.9072	0.73797	-0.519
Mof_O 	O 	0.732	0.3056	0.40457	-0.521
Mof_O 	O 	0.04	0.1315	0.66797	-0.492
Mof_C 	C 	0.8606	0.5041	0.23267	-0.25
Mof_C 	C 	0.0229	0.1933	0.89957	-0.214
Mof_C 	C 	0.8599	0.3564	0.39587	-0.242
Mof_C 	C 	0.023	0.8293	0.73007	-0.222
Mof_C 	C 	0.9236	0.5807	0.47867	-0.309
Mof_H 	H 	0.9227	0.5963	0.59087	0.177
Mof_C 	C 	0.8594	0.3306	0.23267	0.221
Mof_H 	H 	0.8155	0.3048	0.17357	-0.024
Mof_C 	C 	0.9984	0.805	0.56207	0.192
Mof_H 	H 	0.9739	0.824	0.50067	-0.015
Mof_F 	F 	0.1478	0.6646	0.67887	-0.346
Mof_C 	C 	0.0608	0.2591	0.81357	0.212
Mof_H 	H 	0.0783	0.2599	0.70247	0.037
Mof_C 	C 	0.9978	0.1926	0.06797	0.177
Mof_H 	H 	0.973	0.149	0.12887	-0.01
Mof_C 	C 	0.9244	0.3937	0.48517	0.237
Mof_H 	H 	0.9247	0.4103	0.59677	0.026
Mof_F 	F 	0.105	0.7385	0.22377	-0.497
Mof_C 	C 	0.0602	0.8005	0.81817	0.233
Mof_H 	H 	0.0767	0.8161	0.93037	0.03
Mof_C 	C 	0.8589	0.5279	0.39827	0.215
Mof_H 	H 	0.8149	0.509	0.45697	-0.021
Mof_F 	F 	0.1495	0.6687	0.28647	-0.345
Mof_C 	C 	0.0469	0.3234	0.05347	0.367
Mof_C 	C 	0.0103	0.7527	0.48627	-0.294
Mof_H 	H 	0.9934	0.7364	0.37467	0.169
Mof_C 	C 	0.9233	0.3421	0.15327	-0.316
Mof_H 	H 	0.922	0.3248	0.04177	0.178
Mof_F 	F 	0.1052	0.3666	0.40747	-0.47
Mof_C 	C 	0.0475	0.7243	0.57657	0.377
Mof_C 	C 	0.9894	0.4064	0.40877	-0.321
Mof_H 	H 	0.0329	0.4328	0.46907	0.297
Mof_F 	F 	0.0334	0.5943	0.74157	-0.481
Mof_C 	C 	0.0595	0.3929	0.15047	-0.48
Mof_C 	C 	0.0102	0.258	0.14457	-0.281
Mof_H 	H 	0.9938	0.2576	0.25667	0.166
Mof_C 	C 	0.0613	0.6671	0.48037	-0.471
Mof_F 	F 	0.1471	0.4829	0.95177	-0.358
Mof_F 	F 	0.1496	0.4804	0.34477	-0.353
Mof_C 	C 	0.926	0.5318	0.14687	0.261
Mof_H 	H 	0.9269	0.515	0.03597	0.019
Mof_F 	F 	0.0334	0.4386	0.89047	-0.478
Mof_C 	C 	0.9891	0.5831	0.22047	-0.341
Mof_H 	H 	0.0325	0.6009	0.15957	0.302
Mof_F 	F 	0.0814	0.5678	0.52897	-0.392
Mof_C 	C 	0.0737	0.3243	0.88807	-0.295
Mof_H 	H 	0.0999	0.3679	0.82807	0.288
Mof_C 	C 	0.0811	0.4575	0.01867	0.958
Mof_F 	F 	0.0814	0.5136	0.10297	-0.389
Mof_C 	C 	0.0727	0.7496	0.74147	-0.322
Mof_H 	H 	0.0986	0.7319	0.80137	0.294
Mof_F 	F 	0.1803	0.7661	0.43437	-0.395
Mof_C 	C 	0.1236	0.4143	0.27667	0.952
Mof_C 	C 	0.9895	0.6094	0.38667	0.378
Mof_C 	C 	0.99	0.38	0.24307	0.386
Mof_C 	C 	0.1237	0.7111	0.35067	0.976
Mof_F 	F 	0.1807	0.4145	0.19697	-0.387
Mof_C 	C 	0.0804	0.6228	0.61267	0.959
_end
