data_functionalizedCrystal
_audit_creation_method	'EQeq! by Chris Wilmer'
_symmetry_space_group_name_H-M	'P1'
_symmetry_Int_Tables_number	1
_symmetry_cell_setting	triclinic
loop_
_symmetry_equiv_pos_as_xyz
  x,y,z
_cell_length_a	27.4347
_cell_length_b	28.9058
_cell_length_c	13.1157
_cell_angle_alpha	90
_cell_angle_beta	90
_cell_angle_gamma	90
loop_
_atom_site_label
_atom_site_type_symbol
_atom_site_fract_x
_atom_site_fract_y
_atom_site_fract_z
_atom_site_charge
Mof_O 	O 	0.6941	0.4891	0.1842	-0.964
Mof_O 	O 	0.7646	0.4495	0.5253	-0.777
Mof_O 	O 	0.6444	0.4398	0.1197	-0.575
Mof_O 	O 	0.7188	0.4149	0.6319	-0.938
Mof_C 	C 	0.5887	0.3334	0.4078	-0.094
Mof_C 	C 	0.6586	0.3817	0.475	0.12
Mof_H 	H 	0.6558	0.3662	0.5385	-0.02
Mof_C 	C 	0.6299	0.3931	0.3063	0.109
Mof_H 	H 	0.6077	0.3859	0.2531	-0.022
Mof_C 	C 	0.666	0.428	0.2907	-0.353
Mof_C 	C 	0.6271	0.3701	0.3954	-0.092
Mof_C 	C 	0.6046	0.2887	0.4115	0.05
Mof_C 	C 	0.6977	0.4394	0.3708	0.273
Mof_H 	H 	0.7214	0.463	0.3625	-0.198
Mof_C 	C 	0.6555	0.2741	0.4069	-0.078
Mof_H 	H 	0.6832	0.2937	0.4043	0.046
Mof_C 	C 	0.5407	0.3481	0.4097	0.044
Mof_C 	C 	0.6938	0.4156	0.4627	-0.346
Mof_C 	C 	0.5245	0.3955	0.4099	-0.08
Mof_H 	H 	0.5448	0.4221	0.41	0.029
Mof_C 	C 	0.6691	0.4543	0.1944	0.612
Mof_C 	C 	0.7287	0.4282	0.5436	0.663
Mof_O 	O 	0.1941	0.9891	0.6842	-0.905
Mof_O 	O 	0.2646	0.9495	0.0253	-0.728
Mof_O 	O 	0.1444	0.9398	0.6197	-0.543
Mof_O 	O 	0.2188	0.9149	0.1319	-0.952
Mof_C 	C 	0.0887	0.8334	0.9078	-0.074
Mof_C 	C 	0.1586	0.8817	0.975	0.25
Mof_H 	H 	0.1558	0.8662	0.0385	-0.127
Mof_C 	C 	0.1299	0.8931	0.8063	0.125
Mof_H 	H 	0.1077	0.8859	0.7531	-0.022
Mof_C 	C 	0.166	0.928	0.7907	-0.333
Mof_C 	C 	0.1271	0.8701	0.8954	-0.132
Mof_C 	C 	0.1046	0.7887	0.9115	0.05
Mof_C 	C 	0.1977	0.9394	0.8708	0.255
Mof_H 	H 	0.2214	0.963	0.8625	-0.158
Mof_C 	C 	0.1555	0.7741	0.9069	-0.071
Mof_H 	H 	0.1832	0.7937	0.9043	0.053
Mof_C 	C 	0.0407	0.8481	0.9097	0.054
Mof_C 	C 	0.1938	0.9156	0.9627	-0.288
Mof_C 	C 	0.0245	0.8955	0.9099	-0.11
Mof_H 	H 	0.0448	0.9221	0.91	0.057
Mof_C 	C 	0.1691	0.9543	0.6944	0.597
Mof_C 	C 	0.2287	0.9282	0.0436	0.571
Mof_O 	O 	0.3059	0.0109	0.1842	-1.01
Mof_O 	O 	0.2354	0.0505	0.5253	-0.758
Mof_O 	O 	0.3556	0.0602	0.1197	-0.572
Mof_O 	O 	0.2812	0.0851	0.6319	-0.907
Mof_C 	C 	0.4113	0.1666	0.4078	-0.094
Mof_C 	C 	0.3414	0.1183	0.475	0.119
Mof_H 	H 	0.3442	0.1338	0.5385	-0.022
Mof_C 	C 	0.3701	0.1069	0.3063	0.114
Mof_H 	H 	0.3923	0.1141	0.2531	-0.027
Mof_C 	C 	0.334	0.072	0.2907	-0.37
Mof_C 	C 	0.3729	0.1299	0.3954	-0.096
Mof_C 	C 	0.3954	0.2113	0.4115	0.049
Mof_C 	C 	0.3023	0.0606	0.3708	0.28
Mof_H 	H 	0.2786	0.037	0.3625	-0.217
Mof_C 	C 	0.3445	0.2259	0.4069	-0.078
Mof_H 	H 	0.3168	0.2063	0.4043	0.046
Mof_C 	C 	0.4593	0.1519	0.4097	0.043
Mof_C 	C 	0.3062	0.0844	0.4627	-0.349
Mof_C 	C 	0.4755	0.1045	0.4099	-0.082
Mof_H 	H 	0.4552	0.0779	0.41	0.022
Mof_C 	C 	0.3309	0.0457	0.1944	0.629
Mof_C 	C 	0.2713	0.0718	0.5436	0.644
Mof_O 	O 	0.8059	0.5109	0.6842	-0.985
Mof_O 	O 	0.7354	0.5505	0.0253	-0.764
Mof_O 	O 	0.8556	0.5602	0.6197	-0.581
Mof_O 	O 	0.7812	0.5851	0.1319	-0.931
Mof_C 	C 	0.9113	0.6666	0.9078	-0.064
Mof_C 	C 	0.8414	0.6183	0.975	0.262
Mof_H 	H 	0.8442	0.6338	0.0385	-0.131
Mof_C 	C 	0.8701	0.6069	0.8063	0.14
Mof_H 	H 	0.8923	0.6141	0.7531	-0.027
Mof_C 	C 	0.834	0.572	0.7907	-0.361
Mof_C 	C 	0.8729	0.6299	0.8954	-0.145
Mof_C 	C 	0.8954	0.7113	0.9115	0.05
Mof_C 	C 	0.8023	0.5606	0.8708	0.277
Mof_H 	H 	0.7786	0.537	0.8625	-0.186
Mof_C 	C 	0.8445	0.7259	0.9069	-0.068
Mof_H 	H 	0.8168	0.7063	0.9043	0.053
Mof_C 	C 	0.9593	0.6519	0.9097	0.048
Mof_C 	C 	0.8062	0.5844	0.9627	-0.312
Mof_C 	C 	0.9755	0.6045	0.9099	-0.036
Mof_H 	H 	0.9552	0.5779	0.91	0.03
Mof_C 	C 	0.8309	0.5457	0.6944	0.626
Mof_C 	C 	0.7713	0.5718	0.0436	0.583
Mof_O 	O 	0.3059	0.9891	0.8158	-0.869
Mof_O 	O 	0.2354	0.9495	0.4747	-0.739
Mof_O 	O 	0.3556	0.9398	0.8803	-0.482
Mof_O 	O 	0.2812	0.9149	0.3681	-0.96
Mof_C 	C 	0.4113	0.8334	0.5922	-0.099
Mof_C 	C 	0.3414	0.8817	0.525	0.107
Mof_H 	H 	0.3442	0.8662	0.4615	-0.024
Mof_C 	C 	0.3701	0.8931	0.6937	0.091
Mof_H 	H 	0.3923	0.8859	0.7469	0.001
Mof_C 	C 	0.334	0.928	0.7093	-0.312
Mof_C 	C 	0.3729	0.8701	0.6046	-0.076
Mof_C 	C 	0.3954	0.7887	0.5885	0.053
Mof_C 	C 	0.3023	0.9394	0.6292	0.252
Mof_H 	H 	0.2786	0.963	0.6375	-0.171
Mof_C 	C 	0.3445	0.7741	0.5931	-0.079
Mof_H 	H 	0.3168	0.7937	0.5957	0.045
Mof_C 	C 	0.4593	0.8481	0.5903	0.049
Mof_C 	C 	0.3062	0.9156	0.5373	-0.324
Mof_C 	C 	0.4755	0.8955	0.5901	-0.077
Mof_H 	H 	0.4552	0.9221	0.59	0.041
Mof_C 	C 	0.3309	0.9543	0.8056	0.582
Mof_C 	C 	0.2713	0.9282	0.4564	0.65
Mof_O 	O 	0.8059	0.4891	0.3158	-0.976
Mof_O 	O 	0.7354	0.4495	0.9747	-0.716
Mof_O 	O 	0.8556	0.4398	0.3803	-0.574
Mof_O 	O 	0.7812	0.4149	0.8681	-0.935
Mof_C 	C 	0.9113	0.3334	0.0922	-0.127
Mof_C 	C 	0.8414	0.3817	0.025	-0.032
Mof_H 	H 	0.8442	0.3662	0.9615	0.082
Mof_C 	C 	0.8701	0.3931	0.1937	0.071
Mof_H 	H 	0.8923	0.3859	0.2469	-0.003
Mof_C 	C 	0.834	0.428	0.2093	-0.333
Mof_C 	C 	0.8729	0.3701	0.1046	-0.032
Mof_C 	C 	0.8954	0.2887	0.0885	0.054
Mof_C 	C 	0.8023	0.4394	0.1292	0.258
Mof_H 	H 	0.7786	0.463	0.1375	-0.202
Mof_C 	C 	0.8445	0.2741	0.0931	-0.088
Mof_H 	H 	0.8168	0.2937	0.0957	0.039
Mof_C 	C 	0.9593	0.3481	0.0903	0.053
Mof_C 	C 	0.8062	0.4156	0.0373	-0.362
Mof_C 	C 	0.9755	0.3955	0.0901	-0.053
Mof_H 	H 	0.9552	0.4221	0.09	0.011
Mof_C 	C 	0.8309	0.4543	0.3056	0.606
Mof_C 	C 	0.7713	0.4282	0.9564	0.704
Mof_O 	O 	0.6941	0.5109	0.8158	-0.949
Mof_O 	O 	0.7646	0.5505	0.4747	-0.778
Mof_O 	O 	0.6444	0.5602	0.8803	-0.522
Mof_O 	O 	0.7188	0.5851	0.3681	-0.94
Mof_C 	C 	0.5887	0.6666	0.5922	-0.095
Mof_C 	C 	0.6586	0.6183	0.525	0.119
Mof_H 	H 	0.6558	0.6338	0.4615	-0.03
Mof_C 	C 	0.6299	0.6069	0.6937	0.106
Mof_H 	H 	0.6077	0.6141	0.7469	-0.008
Mof_C 	C 	0.666	0.572	0.7093	-0.343
Mof_C 	C 	0.6271	0.6299	0.6046	-0.089
Mof_C 	C 	0.6046	0.7113	0.5885	0.05
Mof_C 	C 	0.6977	0.5606	0.6292	0.274
Mof_H 	H 	0.7214	0.537	0.6375	-0.2
Mof_C 	C 	0.6555	0.7259	0.5931	-0.077
Mof_H 	H 	0.6832	0.7063	0.5957	0.045
Mof_C 	C 	0.5407	0.6519	0.5903	0.045
Mof_C 	C 	0.6938	0.5844	0.5373	-0.349
Mof_C 	C 	0.5245	0.6045	0.5901	-0.08
Mof_H 	H 	0.5448	0.5779	0.59	0.031
Mof_C 	C 	0.6691	0.5457	0.8056	0.61
Mof_C 	C 	0.7287	0.5718	0.4564	0.663
Mof_O 	O 	0.1941	0.0109	0.3158	-1.021
Mof_O 	O 	0.2646	0.0505	0.9747	-0.7
Mof_O 	O 	0.1444	0.0602	0.3803	-0.573
Mof_O 	O 	0.2188	0.0851	0.8681	-0.905
Mof_C 	C 	0.0887	0.1666	0.0922	-0.131
Mof_C 	C 	0.1586	0.1183	0.025	-0.031
Mof_H 	H 	0.1558	0.1338	0.9615	0.078
Mof_C 	C 	0.1299	0.1069	0.1937	0.078
Mof_H 	H 	0.1077	0.1141	0.2469	-0.011
Mof_C 	C 	0.166	0.072	0.2093	-0.353
Mof_C 	C 	0.1271	0.1299	0.1046	-0.037
Mof_C 	C 	0.1046	0.2113	0.0885	0.052
Mof_C 	C 	0.1977	0.0606	0.1292	0.266
Mof_H 	H 	0.2214	0.037	0.1375	-0.221
Mof_C 	C 	0.1555	0.2259	0.0931	-0.089
Mof_H 	H 	0.1832	0.2063	0.0957	0.039
Mof_C 	C 	0.0407	0.1519	0.0903	0.053
Mof_C 	C 	0.1938	0.0844	0.0373	-0.366
Mof_C 	C 	0.0245	0.1045	0.0901	-0.131
Mof_H 	H 	0.0448	0.0779	0.09	0.021
Mof_C 	C 	0.1691	0.0457	0.3056	0.623
Mof_C 	C 	0.2287	0.0718	0.9564	0.686
Mof_O 	O 	0.3059	0.5109	0.8158	-0.948
Mof_O 	O 	0.2354	0.5505	0.4747	-0.777
Mof_O 	O 	0.3556	0.5602	0.8803	-0.522
Mof_O 	O 	0.2812	0.5851	0.3681	-0.939
Mof_C 	C 	0.4113	0.6666	0.5922	-0.095
Mof_C 	C 	0.3414	0.6183	0.525	0.119
Mof_H 	H 	0.3442	0.6338	0.4615	-0.03
Mof_C 	C 	0.3701	0.6069	0.6937	0.106
Mof_H 	H 	0.3923	0.6141	0.7469	-0.008
Mof_C 	C 	0.334	0.572	0.7093	-0.343
Mof_C 	C 	0.3729	0.6299	0.6046	-0.089
Mof_C 	C 	0.3954	0.7113	0.5885	0.05
Mof_C 	C 	0.3023	0.5606	0.6292	0.273
Mof_H 	H 	0.2786	0.537	0.6375	-0.199
Mof_C 	C 	0.3445	0.7259	0.5931	-0.077
Mof_H 	H 	0.3168	0.7063	0.5957	0.045
Mof_C 	C 	0.4593	0.6519	0.5903	0.045
Mof_C 	C 	0.3062	0.5844	0.5373	-0.348
Mof_C 	C 	0.4755	0.6045	0.5901	-0.08
Mof_H 	H 	0.4552	0.5779	0.59	0.031
Mof_C 	C 	0.3309	0.5457	0.8056	0.61
Mof_C 	C 	0.2713	0.5718	0.4564	0.662
Mof_O 	O 	0.8059	0.0109	0.3158	-1.021
Mof_O 	O 	0.7354	0.0505	0.9747	-0.7
Mof_O 	O 	0.8556	0.0602	0.3803	-0.569
Mof_O 	O 	0.7812	0.0851	0.8681	-0.904
Mof_C 	C 	0.9113	0.1666	0.0922	-0.125
Mof_C 	C 	0.8414	0.1183	0.025	-0.03
Mof_H 	H 	0.8442	0.1338	0.9615	0.08
Mof_C 	C 	0.8701	0.1069	0.1937	0.078
Mof_H 	H 	0.8923	0.1141	0.2469	-0.007
Mof_C 	C 	0.834	0.072	0.2093	-0.351
Mof_C 	C 	0.8729	0.1299	0.1046	-0.037
Mof_C 	C 	0.8954	0.2113	0.0885	0.054
Mof_C 	C 	0.8023	0.0606	0.1292	0.266
Mof_H 	H 	0.7786	0.037	0.1375	-0.221
Mof_C 	C 	0.8445	0.2259	0.0931	-0.088
Mof_H 	H 	0.8168	0.2063	0.0957	0.04
Mof_C 	C 	0.9593	0.1519	0.0903	0.052
Mof_C 	C 	0.8062	0.0844	0.0373	-0.365
Mof_C 	C 	0.9755	0.1045	0.0901	-0.055
Mof_H 	H 	0.9552	0.0779	0.09	0.004
Mof_C 	C 	0.8309	0.0457	0.3056	0.623
Mof_C 	C 	0.7713	0.0718	0.9564	0.686
Mof_O 	O 	0.6941	0.9891	0.8158	-0.869
Mof_O 	O 	0.7646	0.9495	0.4747	-0.74
Mof_O 	O 	0.6444	0.9398	0.8803	-0.482
Mof_O 	O 	0.7188	0.9149	0.3681	-0.96
Mof_C 	C 	0.5887	0.8334	0.5922	-0.099
Mof_C 	C 	0.6586	0.8817	0.525	0.107
Mof_H 	H 	0.6558	0.8662	0.4615	-0.024
Mof_C 	C 	0.6299	0.8931	0.6937	0.092
Mof_H 	H 	0.6077	0.8859	0.7469	0
Mof_C 	C 	0.666	0.928	0.7093	-0.313
Mof_C 	C 	0.6271	0.8701	0.6046	-0.076
Mof_C 	C 	0.6046	0.7887	0.5885	0.053
Mof_C 	C 	0.6977	0.9394	0.6292	0.252
Mof_H 	H 	0.7214	0.963	0.6375	-0.172
Mof_C 	C 	0.6555	0.7741	0.5931	-0.079
Mof_H 	H 	0.6832	0.7937	0.5957	0.046
Mof_C 	C 	0.5407	0.8481	0.5903	0.049
Mof_C 	C 	0.6938	0.9156	0.5373	-0.324
Mof_C 	C 	0.5245	0.8955	0.5901	-0.077
Mof_H 	H 	0.5448	0.9221	0.59	0.041
Mof_C 	C 	0.6691	0.9543	0.8056	0.582
Mof_C 	C 	0.7287	0.9282	0.4564	0.651
Mof_O 	O 	0.1941	0.4891	0.3158	-0.976
Mof_O 	O 	0.2646	0.4495	0.9747	-0.716
Mof_O 	O 	0.1444	0.4398	0.3803	-0.578
Mof_O 	O 	0.2188	0.4149	0.8681	-0.936
Mof_C 	C 	0.0887	0.3334	0.0922	-0.133
Mof_C 	C 	0.1586	0.3817	0.025	-0.033
Mof_H 	H 	0.1558	0.3662	0.9615	0.081
Mof_C 	C 	0.1299	0.3931	0.1937	0.071
Mof_H 	H 	0.1077	0.3859	0.2469	-0.007
Mof_C 	C 	0.166	0.428	0.2093	-0.335
Mof_C 	C 	0.1271	0.3701	0.1046	-0.032
Mof_C 	C 	0.1046	0.2887	0.0885	0.052
Mof_C 	C 	0.1977	0.4394	0.1292	0.258
Mof_H 	H 	0.2214	0.463	0.1375	-0.202
Mof_C 	C 	0.1555	0.2741	0.0931	-0.089
Mof_H 	H 	0.1832	0.2937	0.0957	0.039
Mof_C 	C 	0.0407	0.3481	0.0903	0.055
Mof_C 	C 	0.1938	0.4156	0.0373	-0.363
Mof_C 	C 	0.0245	0.3955	0.0901	-0.13
Mof_H 	H 	0.0448	0.4221	0.09	0.028
Mof_C 	C 	0.1691	0.4543	0.3056	0.606
Mof_C 	C 	0.2287	0.4282	0.9564	0.704
Mof_O 	O 	0.6941	0.0109	0.1842	-1.01
Mof_O 	O 	0.7646	0.0505	0.5253	-0.759
Mof_O 	O 	0.6444	0.0602	0.1197	-0.572
Mof_O 	O 	0.7188	0.0851	0.6319	-0.908
Mof_C 	C 	0.5887	0.1666	0.4078	-0.094
Mof_C 	C 	0.6586	0.1183	0.475	0.119
Mof_H 	H 	0.6558	0.1338	0.5385	-0.022
Mof_C 	C 	0.6299	0.1069	0.3063	0.115
Mof_H 	H 	0.6077	0.1141	0.2531	-0.027
Mof_C 	C 	0.666	0.072	0.2907	-0.37
Mof_C 	C 	0.6271	0.1299	0.3954	-0.096
Mof_C 	C 	0.6046	0.2113	0.4115	0.049
Mof_C 	C 	0.6977	0.0606	0.3708	0.281
Mof_H 	H 	0.7214	0.037	0.3625	-0.217
Mof_C 	C 	0.6555	0.2259	0.4069	-0.078
Mof_H 	H 	0.6832	0.2063	0.4043	0.046
Mof_C 	C 	0.5407	0.1519	0.4097	0.042
Mof_C 	C 	0.6938	0.0844	0.4627	-0.35
Mof_C 	C 	0.5245	0.1045	0.4099	-0.082
Mof_H 	H 	0.5448	0.0779	0.41	0.021
Mof_C 	C 	0.6691	0.0457	0.1944	0.629
Mof_C 	C 	0.7287	0.0718	0.5436	0.645
Mof_O 	O 	0.1941	0.5109	0.6842	-0.985
Mof_O 	O 	0.2646	0.5505	0.0253	-0.764
Mof_O 	O 	0.1444	0.5602	0.6197	-0.584
Mof_O 	O 	0.2188	0.5851	0.1319	-0.932
Mof_C 	C 	0.0887	0.6666	0.9078	-0.07
Mof_C 	C 	0.1586	0.6183	0.975	0.261
Mof_H 	H 	0.1558	0.6338	0.0385	-0.133
Mof_C 	C 	0.1299	0.6069	0.8063	0.139
Mof_H 	H 	0.1077	0.6141	0.7531	-0.031
Mof_C 	C 	0.166	0.572	0.7907	-0.363
Mof_C 	C 	0.1271	0.6299	0.8954	-0.145
Mof_C 	C 	0.1046	0.7113	0.9115	0.048
Mof_C 	C 	0.1977	0.5606	0.8708	0.277
Mof_H 	H 	0.2214	0.537	0.8625	-0.186
Mof_C 	C 	0.1555	0.7259	0.9069	-0.069
Mof_H 	H 	0.1832	0.7063	0.9043	0.053
Mof_C 	C 	0.0407	0.6519	0.9097	0.05
Mof_C 	C 	0.1938	0.5844	0.9627	-0.313
Mof_C 	C 	0.0245	0.6045	0.9099	-0.112
Mof_H 	H 	0.0448	0.5779	0.91	0.047
Mof_C 	C 	0.1691	0.5457	0.6944	0.625
Mof_C 	C 	0.2287	0.5718	0.0436	0.583
Mof_O 	O 	0.3059	0.4891	0.1842	-0.965
Mof_O 	O 	0.2354	0.4495	0.5253	-0.776
Mof_O 	O 	0.3556	0.4398	0.1197	-0.576
Mof_O 	O 	0.2812	0.4149	0.6319	-0.938
Mof_C 	C 	0.4113	0.3334	0.4078	-0.095
Mof_C 	C 	0.3414	0.3817	0.475	0.119
Mof_H 	H 	0.3442	0.3662	0.5385	-0.021
Mof_C 	C 	0.3701	0.3931	0.3063	0.108
Mof_H 	H 	0.3923	0.3859	0.2531	-0.023
Mof_C 	C 	0.334	0.428	0.2907	-0.352
Mof_C 	C 	0.3729	0.3701	0.3954	-0.091
Mof_C 	C 	0.3954	0.2887	0.4115	0.049
Mof_C 	C 	0.3023	0.4394	0.3708	0.273
Mof_H 	H 	0.2786	0.463	0.3625	-0.197
Mof_C 	C 	0.3445	0.2741	0.4069	-0.078
Mof_H 	H 	0.3168	0.2937	0.4043	0.045
Mof_C 	C 	0.4593	0.3481	0.4097	0.044
Mof_C 	C 	0.3062	0.4156	0.4627	-0.345
Mof_C 	C 	0.4755	0.3955	0.4099	-0.081
Mof_H 	H 	0.4552	0.4221	0.41	0.029
Mof_C 	C 	0.3309	0.4543	0.1944	0.612
Mof_C 	C 	0.2713	0.4282	0.5436	0.662
Mof_O 	O 	0.8059	0.9891	0.6842	-0.905
Mof_O 	O 	0.7354	0.9495	0.0253	-0.728
Mof_O 	O 	0.8556	0.9398	0.6197	-0.54
Mof_O 	O 	0.7812	0.9149	0.1319	-0.951
Mof_C 	C 	0.9113	0.8334	0.9078	-0.068
Mof_C 	C 	0.8414	0.8817	0.975	0.251
Mof_H 	H 	0.8442	0.8662	0.0385	-0.125
Mof_C 	C 	0.8701	0.8931	0.8063	0.125
Mof_H 	H 	0.8923	0.8859	0.7531	-0.019
Mof_C 	C 	0.834	0.928	0.7907	-0.331
Mof_C 	C 	0.8729	0.8701	0.8954	-0.132
Mof_C 	C 	0.8954	0.7887	0.9115	0.052
Mof_C 	C 	0.8023	0.9394	0.8708	0.255
Mof_H 	H 	0.7786	0.963	0.8625	-0.158
Mof_C 	C 	0.8445	0.7741	0.9069	-0.07
Mof_H 	H 	0.8168	0.7937	0.9043	0.053
Mof_C 	C 	0.9593	0.8481	0.9097	0.052
Mof_C 	C 	0.8062	0.9156	0.9627	-0.287
Mof_C 	C 	0.9755	0.8955	0.9099	-0.034
Mof_H 	H 	0.9552	0.9221	0.91	0.04
Mof_C 	C 	0.8309	0.9543	0.6944	0.598
Mof_C 	C 	0.7713	0.9282	0.0436	0.571
Mof_Eu	Eu	0.82764	0.5	0.5	1.843
Mof_Eu	Eu	0.32764	0	-0	1.483
Mof_Eu	Eu	0.17236	0	0.5	1.674
Mof_Eu	Eu	0.67236	0.5	-0	1.63
Mof_Eu	Eu	0.17236	0.5	0.5	1.83
Mof_Eu	Eu	0.67236	0	-0	1.483
Mof_Eu	Eu	0.82764	0	0.5	1.687
Mof_Eu	Eu	0.32764	0.5	-0	1.63
Mof_Zn	Zn	0.5	0.25	0.3893	0.788
Mof_Zn	Zn	0.5	0.25	0.4449	0.785
Mof_Zn	Zn	-8.11404e-33	0.75	0.8893	0.786
Mof_Zn	Zn	-1.28684e-32	0.75	0.9449	0.786
Mof_Zn	Zn	0.5	0.75	0.6107	0.793
Mof_Zn	Zn	0.5	0.75	0.5551	0.782
Mof_Zn	Zn	-4.08329e-34	0.25	0.1107	0.788
Mof_Zn	Zn	-2.02488e-33	0.25	0.0551	0.775
Mof_Na	Na	0.75	0.4586	0.75	3.35
Mof_Na	Na	0.25	0.0414	0.75	3.136
Mof_Na	Na	0.25	0.9586	0.25	3.499
Mof_Na	Na	0.75	0.5414	0.25	3.273
Mof_Na	Na	0.25	0.5414	0.25	3.269
Mof_Na	Na	0.75	0.9586	0.25	3.503
Mof_Na	Na	0.75	0.0414	0.75	3.141
Mof_Na	Na	0.25	0.4586	0.75	3.346
Mof_N 	N 	0.5	0.3197	0.4107	-0.346
Mof_N 	N 	-3.22164e-33	0.8197	0.9107	-0.353
Mof_N 	N 	0.5	0.1803	0.4107	-0.346
Mof_N 	N 	6.48645e-33	0.6803	0.9107	-0.353
Mof_N 	N 	0.5	0.8197	0.5893	-0.345
Mof_N 	N 	-7.50065e-34	0.3197	0.0893	-0.363
Mof_N 	N 	0.5	0.6803	0.5893	-0.345
Mof_N 	N 	-7.50065e-34	0.1803	0.0893	-0.363
Mof_N 	N 	0.5746	0.25	0.4173	-0.339
Mof_N 	N 	0.0746	0.75	0.9173	-0.336
Mof_N 	N 	0.4254	0.25	0.4173	-0.339
Mof_N 	N 	0.9254	0.75	0.9173	-0.329
Mof_N 	N 	0.4254	0.75	0.5827	-0.339
Mof_N 	N 	0.9254	0.25	0.0827	-0.34
Mof_N 	N 	0.5746	0.75	0.5827	-0.339
Mof_N 	N 	0.0746	0.25	0.0827	-0.347
_end
