data_functionalizedCrystal
_audit_creation_method	'EQeq! by Chris Wilmer'
_symmetry_space_group_name_H-M	'P1'
_symmetry_Int_Tables_number	1
_symmetry_cell_setting	triclinic
loop_
_symmetry_equiv_pos_as_xyz
  x,y,z
_cell_length_a	9.621
_cell_length_b	13.908
_cell_length_c	15.337
_cell_angle_alpha	90
_cell_angle_beta	93.425
_cell_angle_gamma	90
loop_
_atom_site_label
_atom_site_type_symbol
_atom_site_fract_x
_atom_site_fract_y
_atom_site_fract_z
_atom_site_charge
Mof_Tb	Tb	0.04234	0.11147	0.91414	1.801
Mof_Tb	Tb	0.45766	0.61147	0.58586	1.841
Mof_Tb	Tb	0.95766	0.88853	0.08586	1.801
Mof_Tb	Tb	0.54234	0.38853	0.41414	1.841
Mof_H 	H 	0.6674	0.8923	0.7518	0.033
Mof_H 	H 	0.7346	0.8114	0.8118	0.007
Mof_H 	H 	0.6661	0.8881	0.934	0.082
Mof_H 	H 	0.5524	0.0363	0.9285	0.007
Mof_H 	H 	0.5508	0.0371	0.8261	0.027
Mof_H 	H 	0.4077	0.9033	0.9253	0.074
Mof_H 	H 	0.3099	0.8355	0.7977	0.032
Mof_H 	H 	0.3943	0.9065	0.7412	0.028
Mof_H 	H 	0.5142	0.7647	0.855	0.09
Mof_H 	H 	0.8326	0.3923	0.7482	0.034
Mof_H 	H 	0.7654	0.3114	0.6882	0.007
Mof_H 	H 	0.8339	0.3881	0.566	0.078
Mof_H 	H 	0.9476	0.5363	0.5715	0.014
Mof_H 	H 	0.9492	0.5371	0.6739	0.035
Mof_H 	H 	0.0923	0.4033	0.5747	0.073
Mof_H 	H 	0.1901	0.3355	0.7023	0.031
Mof_H 	H 	0.1057	0.4065	0.7588	0.027
Mof_H 	H 	0.9858	0.2647	0.645	0.091
Mof_H 	H 	0.3326	0.1077	0.2482	0.033
Mof_H 	H 	0.2654	0.1886	0.1882	0.007
Mof_H 	H 	0.3339	0.1119	0.066	0.082
Mof_H 	H 	0.4476	0.9637	0.0715	0.007
Mof_H 	H 	0.4492	0.9629	0.1739	0.027
Mof_H 	H 	0.5923	0.0967	0.0747	0.074
Mof_H 	H 	0.6901	0.1645	0.2023	0.032
Mof_H 	H 	0.6057	0.0935	0.2588	0.028
Mof_H 	H 	0.4858	0.2353	0.145	0.09
Mof_H 	H 	0.1674	0.6077	0.2518	0.034
Mof_H 	H 	0.2346	0.6886	0.3118	0.007
Mof_H 	H 	0.1661	0.6119	0.434	0.078
Mof_H 	H 	0.0524	0.4637	0.4285	0.014
Mof_H 	H 	0.0508	0.4629	0.3261	0.035
Mof_H 	H 	0.9077	0.5967	0.4253	0.073
Mof_H 	H 	0.8099	0.6645	0.2977	0.031
Mof_H 	H 	0.8943	0.5935	0.2412	0.027
Mof_H 	H 	0.0142	0.7353	0.355	0.091
Mof_C 	C 	0.6587	0.8573	0.8059	0.042
Mof_C 	C 	0.6703	0.9259	0.8803	-0.226
Mof_C 	C 	0.5463	0.9958	0.8769	0.043
Mof_C 	C 	0.4073	0.9425	0.8722	-0.164
Mof_C 	C 	0.396	0.8716	0.796	0.01
Mof_C 	C 	0.5188	0.8028	0.8015	-0.191
Mof_C 	C 	0.2822	0.0094	0.8761	0.316
Mof_C 	C 	0.8078	0.982	0.8868	0.425
Mof_C 	C 	0.5047	0.7358	0.7251	0.351
Mof_C 	C 	0.8413	0.3573	0.6941	0.038
Mof_C 	C 	0.8297	0.4259	0.6197	-0.22
Mof_C 	C 	0.9537	0.4958	0.6231	0.027
Mof_C 	C 	0.0927	0.4425	0.6278	-0.171
Mof_C 	C 	0.104	0.3716	0.704	0.008
Mof_C 	C 	0.9812	0.3028	0.6985	-0.188
Mof_C 	C 	0.2178	0.5094	0.6239	0.334
Mof_C 	C 	0.6922	0.482	0.6132	0.424
Mof_C 	C 	0.9953	0.2358	0.7749	0.36
Mof_C 	C 	0.3413	0.1427	0.1941	0.042
Mof_C 	C 	0.3297	0.0741	0.1197	-0.226
Mof_C 	C 	0.4537	0.0042	0.1231	0.043
Mof_C 	C 	0.5927	0.0575	0.1278	-0.164
Mof_C 	C 	0.604	0.1284	0.204	0.01
Mof_C 	C 	0.4812	0.1972	0.1985	-0.191
Mof_C 	C 	0.7178	0.9906	0.1239	0.316
Mof_C 	C 	0.1922	0.018	0.1132	0.425
Mof_C 	C 	0.4953	0.2642	0.2749	0.351
Mof_C 	C 	0.1587	0.6427	0.3059	0.038
Mof_C 	C 	0.1703	0.5741	0.3803	-0.22
Mof_C 	C 	0.0463	0.5042	0.3769	0.027
Mof_C 	C 	0.9073	0.5575	0.3722	-0.171
Mof_C 	C 	0.896	0.6284	0.296	0.008
Mof_C 	C 	0.0188	0.6972	0.3015	-0.188
Mof_C 	C 	0.7822	0.4906	0.3761	0.334
Mof_C 	C 	0.3078	0.518	0.3868	0.424
Mof_C 	C 	0.0047	0.7642	0.2251	0.36
Mof_O 	O 	0.1618	0.9702	0.8636	-0.415
Mof_O 	O 	0.2935	0.0955	0.8968	-0.434
Mof_O 	O 	0.8324	0.0456	0.8333	-0.44
Mof_O 	O 	0.8936	0.9629	0.9497	-0.611
Mof_O 	O 	0.4248	0.6653	0.7319	-0.433
Mof_O 	O 	0.5671	0.7495	0.6563	-0.463
Mof_O 	O 	0.3382	0.4702	0.6364	-0.43
Mof_O 	O 	0.2065	0.5955	0.6032	-0.439
Mof_O 	O 	0.6676	0.5456	0.6667	-0.445
Mof_O 	O 	0.6064	0.4629	0.5503	-0.623
Mof_O 	O 	0.0752	0.1653	0.7681	-0.439
Mof_O 	O 	0.9329	0.2495	0.8437	-0.458
Mof_O 	O 	0.8382	0.0298	0.1364	-0.415
Mof_O 	O 	0.7065	0.9045	0.1032	-0.434
Mof_O 	O 	0.1676	0.9544	0.1667	-0.44
Mof_O 	O 	0.1064	0.0371	0.0503	-0.611
Mof_O 	O 	0.5752	0.3347	0.2681	-0.433
Mof_O 	O 	0.4329	0.2505	0.3437	-0.463
Mof_O 	O 	0.6618	0.5298	0.3636	-0.43
Mof_O 	O 	0.7935	0.4045	0.3968	-0.439
Mof_O 	O 	0.3324	0.4544	0.3333	-0.445
Mof_O 	O 	0.3936	0.5371	0.4497	-0.623
Mof_O 	O 	0.9248	0.8347	0.2319	-0.439
Mof_O 	O 	0.0671	0.7505	0.1563	-0.458
_end
