data_functionalizedCrystal
_audit_creation_method	'EQeq! by Chris Wilmer'
_symmetry_space_group_name_H-M	'P1'
_symmetry_Int_Tables_number	1
_symmetry_cell_setting	triclinic
loop_
_symmetry_equiv_pos_as_xyz
  x,y,z
_cell_length_a	19.348
_cell_length_b	19.8221
_cell_length_c	21.1104
_cell_angle_alpha	90
_cell_angle_beta	90
_cell_angle_gamma	90
loop_
_atom_site_label
_atom_site_type_symbol
_atom_site_fract_x
_atom_site_fract_y
_atom_site_fract_z
_atom_site_charge
Mof_Cu	Cu	0.48309	0.01328	0.94089	0.896
Mof_Cu	Cu	0.40098	0.89012	0.75	0.834
Mof_Cu	Cu	0.44386	0.56054	0.75	0.904
Mof_Cu	Cu	0.87708	0.39742	0.25	0.846
Mof_Cu	Cu	0.3413	0.65006	0.75	0.898
Mof_Cu	Cu	0.51691	0.98672	0.44089	0.895
Mof_Cu	Cu	0.90098	0.60988	0.75	0.833
Mof_Cu	Cu	0.05614	0.06054	0.25	0.904
Mof_Cu	Cu	0.62292	0.89742	0.75	0.846
Mof_Cu	Cu	0.48309	0.01328	0.55911	0.895
Mof_Cu	Cu	0.51691	0.98672	0.05911	0.895
Mof_Cu	Cu	0.98309	0.48672	0.94089	0.895
Mof_Cu	Cu	0.09902	0.39012	0.25	0.833
Mof_Cu	Cu	0.01691	0.51328	0.05911	0.895
Mof_Cu	Cu	0.94386	0.93946	0.75	0.904
Mof_Cu	Cu	0.6587	0.34994	0.25	0.898
Mof_Cu	Cu	0.37708	0.10258	0.25	0.846
Mof_Cu	Cu	0.01691	0.51328	0.44089	0.895
Mof_Cu	Cu	0.55614	0.43946	0.25	0.904
Mof_Cu	Cu	0.8413	0.84994	0.75	0.898
Mof_Cu	Cu	0.98309	0.48672	0.55911	0.895
Mof_Cu	Cu	0.12292	0.60258	0.75	0.846
Mof_Cu	Cu	0.59902	0.10988	0.25	0.833
Mof_Cu	Cu	0.1587	0.15006	0.25	0.898
Mof_H 	H 	0.5703	0.7813	0.4678	0.088
Mof_H 	H 	0.0703	0.7187	0.4678	0.088
Mof_H 	H 	0.4565	0.3743	0.4134	0.089
Mof_H 	H 	0.2739	0.9209	0.9677	0.089
Mof_H 	H 	0.2261	0.4209	0.4677	0.09
Mof_H 	H 	0.7739	0.5791	0.5323	0.09
Mof_H 	H 	0.2739	0.9209	0.5323	0.089
Mof_H 	H 	0.2261	0.4209	0.0323	0.091
Mof_H 	H 	0.0435	0.8743	0.9134	0.089
Mof_H 	H 	0.7739	0.5791	0.9677	0.091
Mof_H 	H 	0.9297	0.2813	0.5322	0.088
Mof_H 	H 	0.5435	0.6257	0.9134	0.089
Mof_H 	H 	0.6177	0.5573	0.091	0.093
Mof_H 	H 	0.9565	0.1257	0.0866	0.089
Mof_H 	H 	0.6177	0.5573	0.409	0.093
Mof_H 	H 	0.1177	0.9427	0.091	0.092
Mof_H 	H 	0.0435	0.8743	0.5866	0.089
Mof_H 	H 	0.4565	0.3743	0.0866	0.089
Mof_H 	H 	0.0703	0.7187	0.0322	0.089
Mof_H 	H 	0.5703	0.7813	0.0322	0.088
Mof_H 	H 	0.9565	0.1257	0.4134	0.089
Mof_H 	H 	0.8823	0.0573	0.909	0.092
Mof_H 	H 	0.8823	0.0573	0.591	0.092
Mof_H 	H 	0.4297	0.2187	0.9678	0.088
Mof_H 	H 	0.7261	0.0791	0.4677	0.089
Mof_H 	H 	0.3823	0.4427	0.591	0.093
Mof_H 	H 	0.1177	0.9427	0.409	0.092
Mof_H 	H 	0.5435	0.6257	0.5866	0.089
Mof_H 	H 	0.4297	0.2187	0.5322	0.088
Mof_H 	H 	0.3823	0.4427	0.909	0.093
Mof_H 	H 	0.7261	0.0791	0.0323	0.089
Mof_H 	H 	0.9297	0.2813	0.9678	0.089
Mof_C 	C 	0.5646	0.6976	0.9783	0.11
Mof_C 	C 	0.2981	0.4987	0.6132	-0.02
Mof_C 	C 	0.9932	0.3028	0.0407	-0.03
Mof_C 	C 	0.9505	0.8279	0.8359	0.347
Mof_C 	C 	0.6672	0.4636	0.1655	0.339
Mof_C 	C 	0.8328	0.9636	0.8345	0.341
Mof_C 	C 	0.9727	0.7256	0.9063	-0.032
Mof_C 	C 	0.4354	0.3024	0.4783	0.111
Mof_C 	C 	0.2027	0.4805	0.9578	-0.017
Mof_C 	C 	0.2973	0.9805	0.0422	-0.02
Mof_C 	C 	0.3168	0.0606	0.3691	0.331
Mof_C 	C 	0.5273	0.2256	0.0937	-0.032
Mof_C 	C 	0.7286	0.9886	0.9039	-0.031
Mof_C 	C 	0.2981	0.4987	0.8868	-0.02
Mof_C 	C 	0.128	0.4903	0.5239	0.345
Mof_C 	C 	0.7027	0.0195	0.5422	-0.019
Mof_C 	C 	0.5504	0.7634	0.5042	-0.084
Mof_C 	C 	0.6625	0.547	0.0782	-0.093
Mof_C 	C 	0.4669	0.3303	0.0746	-0.089
Mof_C 	C 	0.9505	0.8279	0.6641	0.347
Mof_C 	C 	0.0139	0.2072	0.3901	-0.028
Mof_C 	C 	0.5273	0.2256	0.4063	-0.032
Mof_C 	C 	0.5139	0.2928	0.3901	-0.029
Mof_C 	C 	0.6672	0.4636	0.3345	0.339
Mof_C 	C 	0.2714	0.0114	0.0961	-0.031
Mof_C 	C 	0.372	0.9903	0.0239	0.345
Mof_C 	C 	0.0504	0.7366	0.5042	-0.084
Mof_C 	C 	0.2714	0.0114	0.4039	-0.031
Mof_C 	C 	0.5025	0.8765	0.5259	0.36
Mof_C 	C 	0.1625	0.953	0.0782	-0.092
Mof_C 	C 	0.7973	0.5195	0.4578	-0.018
Mof_C 	C 	0.0025	0.6235	0.5259	0.36
Mof_C 	C 	0.0273	0.2744	0.0937	-0.032
Mof_C 	C 	0.3328	0.5364	0.8345	0.339
Mof_C 	C 	0.5495	0.3279	0.1641	0.347
Mof_C 	C 	0.2973	0.9805	0.4578	-0.019
Mof_C 	C 	0.9975	0.3765	0.4741	0.36
Mof_C 	C 	0.0504	0.7366	0.9958	-0.086
Mof_C 	C 	0.3375	0.453	0.9218	-0.093
Mof_C 	C 	0.4727	0.7744	0.5937	-0.032
Mof_C 	C 	0.8375	0.047	0.9218	-0.092
Mof_C 	C 	0.2566	0.9385	0.4947	-0.094
Mof_C 	C 	0.1832	0.5606	0.6309	0.332
Mof_C 	C 	0.4496	0.2366	0.4958	-0.084
Mof_C 	C 	0.0273	0.2744	0.4063	-0.032
Mof_C 	C 	0.3102	0.4229	0.5247	0.118
Mof_C 	C 	0.0025	0.6235	0.9741	0.358
Mof_C 	C 	0.628	0.0097	0.5239	0.345
Mof_C 	C 	0.9861	0.7928	0.8901	-0.027
Mof_C 	C 	0.1672	0.0364	0.1655	0.341
Mof_C 	C 	0.8375	0.047	0.5782	-0.092
Mof_C 	C 	0.7019	0.5013	0.1132	-0.02
Mof_C 	C 	0.6898	0.5771	0.4753	0.118
Mof_C 	C 	0.0068	0.6972	0.9593	-0.03
Mof_C 	C 	0.4505	0.6721	0.6641	0.347
Mof_C 	C 	0.9669	0.1697	0.0746	-0.092
Mof_C 	C 	0.4505	0.6721	0.8359	0.347
Mof_C 	C 	0.7019	0.5013	0.3868	-0.02
Mof_C 	C 	0.872	0.5097	0.4761	0.345
Mof_C 	C 	0.372	0.9903	0.4761	0.345
Mof_C 	C 	0.4975	0.1235	0.0259	0.36
Mof_C 	C 	0.7566	0.5615	0.0053	-0.097
Mof_C 	C 	0.5331	0.6697	0.5746	-0.089
Mof_C 	C 	0.2286	0.5114	0.9039	-0.033
Mof_C 	C 	0.0646	0.8024	0.9783	0.111
Mof_C 	C 	0.9496	0.2634	0.0042	-0.086
Mof_C 	C 	0.9975	0.3765	0.0259	0.358
Mof_C 	C 	0.7981	0.0013	0.8868	-0.022
Mof_C 	C 	0.1832	0.5606	0.8691	0.332
Mof_C 	C 	0.077	0.3168	0.1329	0.333
Mof_C 	C 	0.4932	0.1972	0.4593	-0.03
Mof_C 	C 	0.2434	0.4385	0.9947	-0.097
Mof_C 	C 	0.3375	0.453	0.5782	-0.093
Mof_C 	C 	0.4861	0.7072	0.8901	-0.029
Mof_C 	C 	0.077	0.3168	0.3671	0.333
Mof_C 	C 	0.2019	0.9987	0.1132	-0.022
Mof_C 	C 	0.128	0.4903	0.9761	0.343
Mof_C 	C 	0.5331	0.6697	0.9254	-0.089
Mof_C 	C 	0.2434	0.4385	0.5053	-0.095
Mof_C 	C 	0.3168	0.0606	0.1309	0.331
Mof_C 	C 	0.2019	0.9987	0.3868	-0.022
Mof_C 	C 	0.4932	0.1972	0.0407	-0.03
Mof_C 	C 	0.4975	0.1235	0.4741	0.36
Mof_C 	C 	0.7981	0.0013	0.6132	-0.022
Mof_C 	C 	0.0646	0.8024	0.5217	0.111
Mof_C 	C 	0.7434	0.0615	0.9947	-0.094
Mof_C 	C 	0.7434	0.0615	0.5053	-0.094
Mof_C 	C 	0.5068	0.8028	0.9593	-0.03
Mof_C 	C 	0.7566	0.5615	0.4947	-0.095
Mof_C 	C 	0.5068	0.8028	0.5407	-0.03
Mof_C 	C 	0.0495	0.1721	0.1641	0.347
Mof_C 	C 	0.7714	0.4886	0.0961	-0.033
Mof_C 	C 	0.9932	0.3028	0.4593	-0.031
Mof_C 	C 	0.577	0.1832	0.1329	0.333
Mof_C 	C 	0.7714	0.4886	0.4039	-0.033
Mof_C 	C 	0.6898	0.5771	0.0247	0.119
Mof_C 	C 	0.0331	0.8303	0.5746	-0.09
Mof_C 	C 	0.0068	0.6972	0.5407	-0.031
Mof_C 	C 	0.8102	0.0771	0.5247	0.118
Mof_C 	C 	0.0495	0.1721	0.3359	0.347
Mof_C 	C 	0.9354	0.1976	0.4783	0.111
Mof_C 	C 	0.2286	0.5114	0.5961	-0.033
Mof_C 	C 	0.3102	0.4229	0.9753	0.119
Mof_C 	C 	0.0331	0.8303	0.9254	-0.092
Mof_C 	C 	0.1898	0.9229	0.0247	0.118
Mof_C 	C 	0.923	0.6832	0.8671	0.333
Mof_C 	C 	0.9669	0.1697	0.4254	-0.09
Mof_C 	C 	0.8168	0.4394	0.1309	0.332
Mof_C 	C 	0.872	0.5097	0.0239	0.343
Mof_C 	C 	0.423	0.8168	0.6329	0.333
Mof_C 	C 	0.628	0.0097	0.9761	0.345
Mof_C 	C 	0.9861	0.7928	0.6099	-0.028
Mof_C 	C 	0.5139	0.2928	0.1099	-0.029
Mof_C 	C 	0.8168	0.4394	0.3691	0.332
Mof_C 	C 	0.4354	0.3024	0.0217	0.11
Mof_C 	C 	0.9496	0.2634	0.4958	-0.084
Mof_C 	C 	0.2566	0.9385	0.0053	-0.094
Mof_C 	C 	0.5025	0.8765	0.9741	0.36
Mof_C 	C 	0.0139	0.2072	0.1099	-0.027
Mof_C 	C 	0.8102	0.0771	0.9753	0.118
Mof_C 	C 	0.4496	0.2366	0.0042	-0.084
Mof_C 	C 	0.5646	0.6976	0.5217	0.111
Mof_C 	C 	0.5495	0.3279	0.3359	0.347
Mof_C 	C 	0.923	0.6832	0.6329	0.333
Mof_C 	C 	0.4669	0.3303	0.4254	-0.089
Mof_C 	C 	0.4861	0.7072	0.6099	-0.029
Mof_C 	C 	0.4727	0.7744	0.9063	-0.032
Mof_C 	C 	0.1898	0.9229	0.4753	0.118
Mof_C 	C 	0.6832	0.9394	0.8691	0.331
Mof_C 	C 	0.8328	0.9636	0.6655	0.341
Mof_C 	C 	0.9727	0.7256	0.5937	-0.032
Mof_C 	C 	0.6832	0.9394	0.6309	0.331
Mof_C 	C 	0.1625	0.953	0.4218	-0.092
Mof_C 	C 	0.423	0.8168	0.8671	0.333
Mof_C 	C 	0.7973	0.5195	0.0422	-0.017
Mof_C 	C 	0.2027	0.4805	0.5422	-0.018
Mof_C 	C 	0.1672	0.0364	0.3345	0.341
Mof_C 	C 	0.9354	0.1976	0.0217	0.111
Mof_C 	C 	0.5504	0.7634	0.9958	-0.084
Mof_C 	C 	0.3328	0.5364	0.6655	0.339
Mof_C 	C 	0.7027	0.0195	0.9578	-0.02
Mof_C 	C 	0.577	0.1832	0.3671	0.333
Mof_C 	C 	0.7286	0.9886	0.5961	-0.031
Mof_C 	C 	0.6625	0.547	0.4218	-0.093
Mof_N 	N 	0.8509	0.1204	0.0135	-0.09
Mof_N 	N 	0.1104	0.8413	0.4827	-0.086
Mof_N 	N 	0.1104	0.8413	0.0173	-0.086
Mof_N 	N 	0.8896	0.1587	0.5173	-0.086
Mof_N 	N 	0.6104	0.6587	0.0173	-0.086
Mof_N 	N 	0.6491	0.6204	0.9865	-0.09
Mof_N 	N 	0.3896	0.3413	0.9827	-0.086
Mof_N 	N 	0.1491	0.8796	0.5135	-0.09
Mof_N 	N 	0.8509	0.1204	0.4865	-0.09
Mof_N 	N 	0.8896	0.1587	0.9827	-0.086
Mof_N 	N 	0.1491	0.8796	0.9865	-0.09
Mof_N 	N 	0.3509	0.3796	0.4865	-0.09
Mof_N 	N 	0.6491	0.6204	0.5135	-0.09
Mof_N 	N 	0.3896	0.3413	0.5173	-0.086
Mof_N 	N 	0.6104	0.6587	0.4827	-0.086
Mof_N 	N 	0.3509	0.3796	0.0135	-0.09
Mof_O 	O 	0.39429	0.69606	0.68338	-0.399
Mof_O 	O 	0.98371	0.39279	0.96991	-0.407
Mof_O 	O 	0.10571	0.19606	0.31662	-0.399
Mof_O 	O 	0.39429	0.69606	0.81662	-0.399
Mof_O 	O 	0.48733	0.91531	0.92967	-0.419
Mof_O 	O 	0.48026	0.6204	0.81582	-0.412
Mof_O 	O 	0.58453	0.0185	0.93175	-0.399
Mof_O 	O 	0.33451	0.1117	0.10215	-0.273
Mof_O 	O 	0.51629	0.89279	0.03009	-0.408
Mof_O 	O 	0.01974	0.1204	0.31582	-0.411
Mof_O 	O 	0.48733	0.91531	0.57033	-0.419
Mof_O 	O 	0.6108	0.4877	0.31401	-0.392
Mof_O 	O 	0.83439	0.45597	0.18685	-0.384
Mof_O 	O 	0.36502	0.831	0.8894	-0.273
Mof_O 	O 	0.89429	0.80394	0.68338	-0.399
Mof_O 	O 	0.98733	0.58469	0.57033	-0.419
Mof_O 	O 	0.11397	0.5032	0.46758	-0.403
Mof_O 	O 	0.33439	0.04403	0.31315	-0.383
Mof_O 	O 	0.33439	0.04403	0.18685	-0.383
Mof_O 	O 	0.19469	0.09063	0.18374	-0.404
Mof_O 	O 	0.63498	0.169	0.1106	-0.273
Mof_O 	O 	0.60571	0.30394	0.18338	-0.399
Mof_O 	O 	0.01974	0.1204	0.18418	-0.411
Mof_O 	O 	0.88603	0.4968	0.53242	-0.403
Mof_O 	O 	0.16549	0.6117	0.60215	-0.274
Mof_O 	O 	0.61397	0.9968	0.46758	-0.402
Mof_O 	O 	0.98733	0.58469	0.92967	-0.418
Mof_O 	O 	0.05333	0.33566	0.18631	-0.416
Mof_O 	O 	0.55333	0.16434	0.18631	-0.416
Mof_O 	O 	0.83451	0.3883	0.39785	-0.274
Mof_O 	O 	0.80531	0.90937	0.68374	-0.404
Mof_O 	O 	0.30531	0.59063	0.81626	-0.404
Mof_O 	O 	0.63498	0.169	0.3894	-0.273
Mof_O 	O 	0.94667	0.66434	0.68631	-0.416
Mof_O 	O 	0.61397	0.9968	0.03242	-0.403
Mof_O 	O 	0.44667	0.83566	0.81369	-0.416
Mof_O 	O 	0.94667	0.66434	0.81369	-0.416
Mof_O 	O 	0.01629	0.60721	0.03009	-0.407
Mof_O 	O 	0.86502	0.669	0.8894	-0.273
Mof_O 	O 	0.69469	0.40937	0.31626	-0.404
Mof_O 	O 	0.44667	0.83566	0.68631	-0.416
Mof_O 	O 	0.51267	0.08469	0.42967	-0.419
Mof_O 	O 	0.86502	0.669	0.6106	-0.273
Mof_O 	O 	0.30531	0.59063	0.68374	-0.404
Mof_O 	O 	0.98026	0.8796	0.81582	-0.411
Mof_O 	O 	0.98026	0.8796	0.68418	-0.411
Mof_O 	O 	0.51974	0.3796	0.31582	-0.412
Mof_O 	O 	0.3892	0.5123	0.68599	-0.392
Mof_O 	O 	0.51267	0.08469	0.07033	-0.419
Mof_O 	O 	0.83451	0.3883	0.10215	-0.274
Mof_O 	O 	0.48371	0.10721	0.53009	-0.408
Mof_O 	O 	0.08453	0.4815	0.56825	-0.398
Mof_O 	O 	0.38603	0.0032	0.53242	-0.402
Mof_O 	O 	0.8892	0.9877	0.68599	-0.392
Mof_O 	O 	0.91547	0.5185	0.06825	-0.399
Mof_O 	O 	0.16561	0.54403	0.68685	-0.383
Mof_O 	O 	0.66561	0.95597	0.68685	-0.383
Mof_O 	O 	0.60571	0.30394	0.31662	-0.399
Mof_O 	O 	0.05333	0.33566	0.31369	-0.416
Mof_O 	O 	0.38603	0.0032	0.96758	-0.403
Mof_O 	O 	0.16561	0.54403	0.81315	-0.384
Mof_O 	O 	0.89429	0.80394	0.81662	-0.399
Mof_O 	O 	0.58453	0.0185	0.56825	-0.398
Mof_O 	O 	0.41547	0.9815	0.06825	-0.399
Mof_O 	O 	0.80531	0.90937	0.81626	-0.404
Mof_O 	O 	0.55333	0.16434	0.31369	-0.416
Mof_O 	O 	0.8892	0.9877	0.81401	-0.392
Mof_O 	O 	0.36502	0.831	0.6106	-0.273
Mof_O 	O 	0.66561	0.95597	0.81315	-0.383
Mof_O 	O 	0.01267	0.41531	0.42967	-0.419
Mof_O 	O 	0.08453	0.4815	0.93175	-0.399
Mof_O 	O 	0.91547	0.5185	0.43175	-0.398
Mof_O 	O 	0.88603	0.4968	0.96758	-0.402
Mof_O 	O 	0.13498	0.331	0.3894	-0.273
Mof_O 	O 	0.19469	0.09063	0.31626	-0.404
Mof_O 	O 	0.10571	0.19606	0.18338	-0.399
Mof_O 	O 	0.66549	0.8883	0.60215	-0.273
Mof_O 	O 	0.16549	0.6117	0.89785	-0.274
Mof_O 	O 	0.83439	0.45597	0.31315	-0.383
Mof_O 	O 	0.13498	0.331	0.1106	-0.273
Mof_O 	O 	0.98371	0.39279	0.53009	-0.408
Mof_O 	O 	0.3892	0.5123	0.81401	-0.392
Mof_O 	O 	0.51629	0.89279	0.46991	-0.408
Mof_O 	O 	0.48371	0.10721	0.96991	-0.408
Mof_O 	O 	0.01267	0.41531	0.07033	-0.418
Mof_O 	O 	0.1108	0.0123	0.31401	-0.392
Mof_O 	O 	0.48026	0.6204	0.68418	-0.412
Mof_O 	O 	0.33451	0.1117	0.39785	-0.273
Mof_O 	O 	0.51974	0.3796	0.18418	-0.412
Mof_O 	O 	0.69469	0.40937	0.18374	-0.404
Mof_O 	O 	0.11397	0.5032	0.03242	-0.402
Mof_O 	O 	0.41547	0.9815	0.43175	-0.398
Mof_O 	O 	0.6108	0.4877	0.18599	-0.392
Mof_O 	O 	0.1108	0.0123	0.18599	-0.392
Mof_O 	O 	0.01629	0.60721	0.46991	-0.408
Mof_O 	O 	0.66549	0.8883	0.89785	-0.273
_end
