data_functionalizedCrystal
_audit_creation_method	'EQeq! by Chris Wilmer'
_symmetry_space_group_name_H-M	'P1'
_symmetry_Int_Tables_number	1
_symmetry_cell_setting	triclinic
loop_
_symmetry_equiv_pos_as_xyz
  x,y,z
_cell_length_a	18.3171
_cell_length_b	8.7602
_cell_length_c	19.4272
_cell_angle_alpha	90
_cell_angle_beta	128.945
_cell_angle_gamma	90
loop_
_atom_site_label
_atom_site_type_symbol
_atom_site_fract_x
_atom_site_fract_y
_atom_site_fract_z
_atom_site_charge
Mof_In	In	0.17404	0.47049	0.65943	3.025
Mof_O 	O 	0.1093	0.3067	0.8018	-0.636
Mof_O 	O 	0.1233	0.2761	0.6809	-0.767
Mof_O 	O 	0.0804	0.0552	0.7283	-0.491
Mof_H 	H 	0.1161	0.9777	0.7463	0.249
Mof_O 	O 	0.2447	0.1577	0.8342	-0.657
Mof_O 	O 	0.7978	0.8332	0.7099	-0.678
Mof_O 	O 	0.9111	0.6562	0.7217	-0.518
Mof_O 	O 	0.7474	0.6626	0.5821	-0.434
Mof_H 	H 	0.706	0.7324	0.5586	0.272
Mof_O 	O 	0.777	0.5482	0.7135	-0.709
Mof_O 	O 	0.0513	0.61	0.5871	-0.855
Mof_O 	O 	0.9439	0.7603	0.5994	-0.428
Mof_H 	H 	0.9815	0.7637	0.6556	0.324
Mof_O 	O 	0.9515	0.4741	0.6162	-0.552
Mof_O 	O 	0.8752	0.6017	0.47	-0.673
Mof_P 	P 	0.1421	0.2052	0.76183	0.722
Mof_P 	P 	0.80973	0.6744	0.68527	0.724
Mof_P 	P 	0.95745	0.6032	0.56851	0.888
Mof_In	In	0.67404	0.97049	0.65943	3.071
Mof_O 	O 	0.6093	0.8067	0.8018	-0.696
Mof_O 	O 	0.6233	0.7761	0.6809	-0.746
Mof_O 	O 	0.5804	0.5552	0.7283	-0.447
Mof_H 	H 	0.6161	0.4777	0.7463	0.262
Mof_O 	O 	0.7447	0.6577	0.8342	-0.668
Mof_O 	O 	0.2978	0.3332	0.7099	-0.69
Mof_O 	O 	0.4111	0.1562	0.7217	-0.684
Mof_O 	O 	0.2474	0.1626	0.5821	-0.451
Mof_H 	H 	0.206	0.2324	0.5586	0.271
Mof_O 	O 	0.277	0.0482	0.7135	-0.717
Mof_O 	O 	0.5513	0.11	0.5871	-0.724
Mof_O 	O 	0.4439	0.2603	0.5994	-0.433
Mof_H 	H 	0.4815	0.2637	0.6556	0.245
Mof_O 	O 	0.4515	0.9741	0.6162	-0.705
Mof_O 	O 	0.3752	0.1017	0.47	-0.673
Mof_P 	P 	0.6421	0.7052	0.76183	0.744
Mof_P 	P 	0.30973	0.1744	0.68527	0.74
Mof_P 	P 	0.45745	0.1032	0.56851	0.759
Mof_In	In	0.82596	0.47049	0.84057	3.12
Mof_O 	O 	0.8907	0.3067	0.6982	-0.536
Mof_O 	O 	0.8767	0.2761	0.8191	-0.698
Mof_O 	O 	0.9196	0.0552	0.7717	-0.358
Mof_H 	H 	0.8839	0.9777	0.7537	0.252
Mof_O 	O 	0.7553	0.1577	0.6658	-0.659
Mof_O 	O 	0.2022	0.8332	0.7901	-0.705
Mof_O 	O 	0.0889	0.6562	0.7783	-0.666
Mof_O 	O 	0.2526	0.6626	0.9179	-0.443
Mof_H 	H 	0.294	0.7324	0.9414	0.267
Mof_O 	O 	0.223	0.5482	0.7865	-0.712
Mof_O 	O 	0.9487	0.61	0.9129	-0.587
Mof_O 	O 	0.0561	0.7603	0.9006	-0.436
Mof_H 	H 	0.0185	0.7637	0.8444	0.182
Mof_O 	O 	0.0485	0.4741	0.8838	-0.657
Mof_O 	O 	0.1248	0.6017	0.03	-0.647
Mof_P 	P 	0.8579	0.2052	0.73817	0.726
Mof_P 	P 	0.19027	0.6744	0.81473	0.726
Mof_P 	P 	0.04255	0.6032	0.93149	0.576
Mof_In	In	0.32596	0.97049	0.84057	3.036
Mof_O 	O 	0.3907	0.8067	0.6982	-0.697
Mof_O 	O 	0.3767	0.7761	0.8191	-0.744
Mof_O 	O 	0.4196	0.5552	0.7717	-0.448
Mof_H 	H 	0.3839	0.4777	0.7537	0.263
Mof_O 	O 	0.2553	0.6577	0.6658	-0.667
Mof_O 	O 	0.7022	0.3332	0.7901	-0.701
Mof_O 	O 	0.5889	0.1562	0.7783	-0.685
Mof_O 	O 	0.7526	0.1626	0.9179	-0.438
Mof_H 	H 	0.794	0.2324	0.9414	0.276
Mof_O 	O 	0.723	0.0482	0.7865	-0.71
Mof_O 	O 	0.4487	0.11	0.9129	-0.721
Mof_O 	O 	0.5561	0.2603	0.9006	-0.438
Mof_H 	H 	0.5185	0.2637	0.8444	0.247
Mof_O 	O 	0.5485	0.9741	0.8838	-0.712
Mof_O 	O 	0.6248	0.1017	0.03	-0.664
Mof_P 	P 	0.3579	0.7052	0.73817	0.742
Mof_P 	P 	0.69027	0.1744	0.81473	0.744
Mof_P 	P 	0.54255	0.1032	0.93149	0.755
Mof_In	In	0.82596	0.52951	0.34057	3.125
Mof_O 	O 	0.8907	0.6933	0.1982	-0.537
Mof_O 	O 	0.8767	0.7239	0.3191	-0.697
Mof_O 	O 	0.9196	0.9448	0.2717	-0.35
Mof_H 	H 	0.8839	0.0223	0.2537	0.247
Mof_O 	O 	0.7553	0.8423	0.1658	-0.651
Mof_O 	O 	0.2022	0.1668	0.2901	-0.707
Mof_O 	O 	0.0889	0.3438	0.2783	-0.665
Mof_O 	O 	0.2526	0.3374	0.4179	-0.437
Mof_H 	H 	0.294	0.2676	0.4414	0.272
Mof_O 	O 	0.223	0.4518	0.2865	-0.711
Mof_O 	O 	0.9487	0.39	0.4129	-0.584
Mof_O 	O 	0.0561	0.2397	0.4006	-0.426
Mof_H 	H 	0.0185	0.2363	0.3444	0.182
Mof_O 	O 	0.0485	0.5259	0.3838	-0.658
Mof_O 	O 	0.1248	0.3983	0.53	-0.668
Mof_P 	P 	0.8579	0.7948	0.23817	0.726
Mof_P 	P 	0.19027	0.3256	0.31473	0.727
Mof_P 	P 	0.04255	0.3968	0.43149	0.599
Mof_In	In	0.32596	0.02951	0.34057	3.062
Mof_O 	O 	0.3907	0.1933	0.1982	-0.695
Mof_O 	O 	0.3767	0.2239	0.3191	-0.744
Mof_O 	O 	0.4196	0.4448	0.2717	-0.445
Mof_H 	H 	0.3839	0.5223	0.2537	0.264
Mof_O 	O 	0.2553	0.3423	0.1658	-0.665
Mof_O 	O 	0.7022	0.6668	0.2901	-0.7
Mof_O 	O 	0.5889	0.8438	0.2783	-0.685
Mof_O 	O 	0.7526	0.8374	0.4179	-0.435
Mof_H 	H 	0.794	0.7676	0.4414	0.279
Mof_O 	O 	0.723	0.9518	0.2865	-0.706
Mof_O 	O 	0.4487	0.89	0.4129	-0.723
Mof_O 	O 	0.5561	0.7397	0.4006	-0.432
Mof_H 	H 	0.5185	0.7363	0.3444	0.246
Mof_O 	O 	0.5485	0.0259	0.3838	-0.703
Mof_O 	O 	0.6248	0.8983	0.53	-0.672
Mof_P 	P 	0.3579	0.2948	0.23817	0.742
Mof_P 	P 	0.69027	0.8256	0.31473	0.744
Mof_P 	P 	0.54255	0.8968	0.43149	0.76
Mof_In	In	0.17404	0.52951	0.15943	3.031
Mof_O 	O 	0.1093	0.6933	0.3018	-0.637
Mof_O 	O 	0.1233	0.7239	0.1809	-0.765
Mof_O 	O 	0.0804	0.9448	0.2283	-0.494
Mof_H 	H 	0.1161	0.0223	0.2463	0.255
Mof_O 	O 	0.2447	0.8423	0.3342	-0.662
Mof_O 	O 	0.7978	0.1668	0.2099	-0.676
Mof_O 	O 	0.9111	0.3438	0.2217	-0.523
Mof_O 	O 	0.7474	0.3374	0.0821	-0.43
Mof_H 	H 	0.706	0.2676	0.0586	0.274
Mof_O 	O 	0.777	0.4518	0.2135	-0.709
Mof_O 	O 	0.0513	0.39	0.0871	-0.846
Mof_O 	O 	0.9439	0.2397	0.0994	-0.428
Mof_H 	H 	0.9815	0.2363	0.1556	0.321
Mof_O 	O 	0.9515	0.5259	0.1162	-0.553
Mof_O 	O 	0.8752	0.3983	0.97	-0.686
Mof_P 	P 	0.1421	0.7948	0.26183	0.724
Mof_P 	P 	0.80973	0.3256	0.18527	0.724
Mof_P 	P 	0.95745	0.3968	0.06851	0.892
Mof_In	In	0.67404	0.02951	0.15943	3.055
Mof_O 	O 	0.6093	0.1933	0.3018	-0.692
Mof_O 	O 	0.6233	0.2239	0.1809	-0.742
Mof_O 	O 	0.5804	0.4448	0.2283	-0.444
Mof_H 	H 	0.6161	0.5223	0.2463	0.262
Mof_O 	O 	0.7447	0.3423	0.3342	-0.664
Mof_O 	O 	0.2978	0.6668	0.2099	-0.69
Mof_O 	O 	0.4111	0.8438	0.2217	-0.683
Mof_O 	O 	0.2474	0.8374	0.0821	-0.443
Mof_H 	H 	0.206	0.7676	0.0586	0.275
Mof_O 	O 	0.277	0.9518	0.2135	-0.72
Mof_O 	O 	0.5513	0.89	0.0871	-0.716
Mof_O 	O 	0.4439	0.7397	0.0994	-0.426
Mof_H 	H 	0.4815	0.7363	0.1556	0.244
Mof_O 	O 	0.4515	0.0259	0.1162	-0.71
Mof_O 	O 	0.3752	0.8983	0.97	-0.698
Mof_P 	P 	0.6421	0.2948	0.26183	0.744
Mof_P 	P 	0.30973	0.8256	0.18527	0.741
Mof_P 	P 	0.45745	0.8968	0.06851	0.788
Mof_In	In	9.3782e-17	0.46468	0.75	2.411
Mof_In	In	0.5	0.96468	0.75	3.067
Mof_In	In	2.34455e-17	0.53532	0.25	2.432
Mof_In	In	0.5	0.03532	0.25	3.071
_end
