data_functionalizedCrystal
_audit_creation_method	'EQeq! by Chris Wilmer'
_symmetry_space_group_name_H-M	'P1'
_symmetry_Int_Tables_number	1
_symmetry_cell_setting	triclinic
loop_
_symmetry_equiv_pos_as_xyz
  x,y,z
_cell_length_a	24.7273
_cell_length_b	24.7273
_cell_length_c	14.3812
_cell_angle_alpha	90
_cell_angle_beta	90
_cell_angle_gamma	120
loop_
_atom_site_label
_atom_site_type_symbol
_atom_site_fract_x
_atom_site_fract_y
_atom_site_fract_z
_atom_site_charge
Mof_In	In	0.67022	0.56106	0.38717	2.767
Mof_In	In	0.32974	0.44072	0.88541	2.752
Mof_O 	O 	0.3699	0.4552	0.019	-0.658
Mof_O 	O 	0.7055	0.5709	0.2515	-0.883
Mof_O 	O 	0.5893	0.5546	0.312	-0.687
Mof_O 	O 	0.4025	0.4622	0.5066	-0.541
Mof_O 	O 	0.5799	0.5443	0.156	-0.675
Mof_O 	O 	0.3803	0.548	0.8711	-0.517
Mof_O 	O 	0.7383	0.5031	0.3845	-0.375
Mof_O 	O 	0.3143	0.4485	0.4512	-0.478
Mof_O 	O 	0.3005	0.3362	0.8801	-0.501
Mof_O 	O 	0.7067	0.6625	0.4075	-0.553
Mof_O 	O 	0.28	0.4992	0.9028	-0.486
Mof_O 	O 	0.2314	0.3623	0.9216	-0.508
Mof_O 	O 	0.6363	0.4627	0.3842	-0.619
Mof_O 	O 	0.7789	0.6352	0.4038	-0.447
Mof_O 	O 	0.2938	0.4534	0.1014	-0.336
Mof_C 	C 	0.3989	0.4802	0.3437	-0.121
Mof_C 	C 	0.9153	0.8231	0.3506	-0.079
Mof_H 	H 	0.9533	0.8339	0.3223	0.06
Mof_C 	C 	0.4518	0.5023	0.1684	0.13
Mof_H 	H 	0.4692	0.5086	0.1093	0.024
Mof_C 	C 	0.8702	0.7609	0.3586	0.001
Mof_H 	H 	0.8783	0.7301	0.3371	0.051
Mof_C 	C 	0.4637	0.5053	0.3329	0.111
Mof_H 	H 	0.489	0.514	0.3851	0.034
Mof_C 	C 	0.5595	0.5414	0.2384	0.597
Mof_C 	C 	0.8019	0.7899	0.4329	0.007
Mof_H 	H 	0.7636	0.7791	0.4601	0.05
Mof_C 	C 	0.1376	0.2351	0.9349	0.015
Mof_H 	H 	0.1309	0.2643	0.9655	0.049
Mof_C 	C 	0.4896	0.5169	0.2461	-0.209
Mof_C 	C 	0.847	0.8517	0.4272	-0.087
Mof_H 	H 	0.8393	0.8819	0.452	0.066
Mof_C 	C 	0.3875	0.4782	0.1786	-0.156
Mof_C 	C 	0.3449	0.4611	0.0926	0.464
Mof_C 	C 	0.362	0.468	0.2669	0.081
Mof_H 	H 	0.3194	0.4529	0.274	0.038
Mof_C 	C 	0.7627	0.6759	0.4045	0.31
Mof_C 	C 	0.243	0.3208	0.8986	0.316
Mof_C 	C 	0.3696	0.4633	0.4388	0.347
Mof_C 	C 	0.1941	0.2533	0.897	-0.075
Mof_C 	C 	0.9533	0.9365	0.3781	0.056
Mof_C 	C 	0.9048	0.8701	0.3844	0.02
Mof_C 	C 	0.8121	0.7439	0.3993	-0.06
Mof_C 	C 	0.0174	0.9544	0.3764	-0.116
Mof_H 	H 	0.0288	0.9238	0.3741	0.072
Mof_C 	C 	0.2039	0.2106	0.8466	0.014
Mof_H 	H 	0.2419	0.2231	0.8174	0.045
Mof_C 	C 	0.3307	0.5489	0.8866	0.348
Mof_C 	C 	0.0892	0.1733	0.9292	-0.094
Mof_H 	H 	0.0508	0.1615	0.9569	0.068
Mof_C 	C 	0.6848	0.4573	0.3829	0.397
Mof_C 	C 	0.1558	0.1494	0.8412	-0.09
Mof_H 	H 	0.1625	0.1207	0.8088	0.065
Mof_C 	C 	0.2763	0.6113	0.883	0.127
Mof_C 	C 	0.3323	0.6102	0.8838	-0.145
Mof_C 	C 	0.6757	0.3935	0.3821	-0.178
Mof_C 	C 	0.6161	0.3426	0.3814	0.149
Mof_C 	C 	0.0981	0.1291	0.8821	0.03
Mof_C 	C 	0.0482	0.0636	0.8784	0.044
Mof_C 	C 	0.9846	0.0468	0.8768	-0.104
Mof_H 	H 	0.9744	0.0782	0.8747	0.07
Mof_In	In	0.43894	0.10916	0.38717	2.768
Mof_In	In	0.55928	0.88902	0.88541	2.751
Mof_O 	O 	0.5448	0.9147	0.019	-0.655
Mof_O 	O 	0.4291	0.1346	0.2515	-0.882
Mof_O 	O 	0.4454	0.0347	0.312	-0.686
Mof_O 	O 	0.5378	0.9403	0.5066	-0.54
Mof_O 	O 	0.4557	0.0356	0.156	-0.675
Mof_O 	O 	0.452	0.8323	0.8711	-0.517
Mof_O 	O 	0.4969	0.2352	0.3845	-0.375
Mof_O 	O 	0.5515	0.8658	0.4512	-0.478
Mof_O 	O 	0.6638	0.9643	0.8801	-0.501
Mof_O 	O 	0.3375	0.0442	0.4075	-0.553
Mof_O 	O 	0.5008	0.7808	0.9028	-0.485
Mof_O 	O 	0.6377	0.8691	0.9216	-0.507
Mof_O 	O 	0.5373	0.1736	0.3842	-0.619
Mof_O 	O 	0.3648	0.1437	0.4038	-0.447
Mof_O 	O 	0.5466	0.8404	0.1014	-0.335
Mof_C 	C 	0.5198	0.9187	0.3437	-0.121
Mof_C 	C 	0.1769	0.0922	0.3506	-0.079
Mof_H 	H 	0.1661	0.1194	0.3223	0.06
Mof_C 	C 	0.4977	0.9495	0.1684	0.129
Mof_H 	H 	0.4914	0.9606	0.1093	0.025
Mof_C 	C 	0.2391	0.1093	0.3586	0
Mof_H 	H 	0.2699	0.1482	0.3371	0.051
Mof_C 	C 	0.4947	0.9584	0.3329	0.109
Mof_H 	H 	0.486	0.975	0.3851	0.034
Mof_C 	C 	0.4586	0.0181	0.2384	0.595
Mof_C 	C 	0.2101	0.012	0.4329	0.005
Mof_H 	H 	0.2209	0.9845	0.4601	0.05
Mof_C 	C 	0.7649	0.9025	0.9349	0.008
Mof_H 	H 	0.7357	0.8666	0.9655	0.051
Mof_C 	C 	0.4831	0.9727	0.2461	-0.206
Mof_C 	C 	0.1483	0.9953	0.4272	-0.085
Mof_H 	H 	0.1181	0.9574	0.452	0.065
Mof_C 	C 	0.5218	0.9093	0.1786	-0.155
Mof_C 	C 	0.5389	0.8838	0.0926	0.464
Mof_C 	C 	0.532	0.894	0.2669	0.081
Mof_H 	H 	0.5471	0.8665	0.274	0.038
Mof_C 	C 	0.3241	0.0868	0.4045	0.309
Mof_C 	C 	0.6792	0.9222	0.8986	0.314
Mof_C 	C 	0.5367	0.9063	0.4388	0.347
Mof_C 	C 	0.7467	0.9408	0.897	-0.068
Mof_C 	C 	0.0635	0.0168	0.3781	0.056
Mof_C 	C 	0.1299	0.0347	0.3844	0.019
Mof_C 	C 	0.2561	0.0682	0.3993	-0.059
Mof_C 	C 	0.0456	0.063	0.3764	-0.116
Mof_H 	H 	0.0762	0.105	0.3741	0.072
Mof_C 	C 	0.7894	0.9933	0.8466	0.001
Mof_H 	H 	0.7769	0.0188	0.8174	0.051
Mof_C 	C 	0.4511	0.7818	0.8866	0.348
Mof_C 	C 	0.8267	0.9159	0.9292	-0.087
Mof_H 	H 	0.8385	0.8893	0.9569	0.066
Mof_C 	C 	0.5427	0.2275	0.3829	0.397
Mof_C 	C 	0.8506	0.0064	0.8412	-0.076
Mof_H 	H 	0.8793	0.0418	0.8088	0.061
Mof_C 	C 	0.3887	0.665	0.883	0.128
Mof_C 	C 	0.3898	0.7221	0.8838	-0.145
Mof_C 	C 	0.6065	0.2822	0.3821	-0.178
Mof_C 	C 	0.6574	0.2735	0.3814	0.149
Mof_C 	C 	0.8709	0.969	0.8821	0.022
Mof_C 	C 	0.9364	0.9846	0.8784	0.047
Mof_C 	C 	0.9532	0.9378	0.8768	-0.107
Mof_H 	H 	0.9218	0.8962	0.8747	0.07
Mof_In	In	0.89084	0.32978	0.38717	2.768
Mof_In	In	0.11098	0.67026	0.88541	2.75
Mof_O 	O 	0.0853	0.6301	0.019	-0.654
Mof_O 	O 	0.8654	0.2945	0.2515	-0.882
Mof_O 	O 	0.9653	0.4107	0.312	-0.686
Mof_O 	O 	0.0597	0.5975	0.5066	-0.54
Mof_O 	O 	0.9644	0.4201	0.156	-0.675
Mof_O 	O 	0.1677	0.6197	0.8711	-0.517
Mof_O 	O 	0.7648	0.2617	0.3845	-0.375
Mof_O 	O 	0.1342	0.6857	0.4512	-0.478
Mof_O 	O 	0.0357	0.6995	0.8801	-0.501
Mof_O 	O 	0.9558	0.2933	0.4075	-0.553
Mof_O 	O 	0.2192	0.72	0.9028	-0.486
Mof_O 	O 	0.1309	0.7686	0.9216	-0.507
Mof_O 	O 	0.8264	0.3637	0.3842	-0.619
Mof_O 	O 	0.8563	0.2211	0.4038	-0.447
Mof_O 	O 	0.1596	0.7062	0.1014	-0.335
Mof_C 	C 	0.0813	0.6011	0.3437	-0.121
Mof_C 	C 	0.9078	0.0847	0.3506	-0.078
Mof_H 	H 	0.8806	0.0467	0.3223	0.059
Mof_C 	C 	0.0505	0.5482	0.1684	0.129
Mof_H 	H 	0.0394	0.5308	0.1093	0.025
Mof_C 	C 	0.8907	0.1298	0.3586	-0
Mof_H 	H 	0.8518	0.1217	0.3371	0.051
Mof_C 	C 	0.0416	0.5363	0.3329	0.109
Mof_H 	H 	0.025	0.511	0.3851	0.034
Mof_C 	C 	0.9819	0.4405	0.2384	0.595
Mof_C 	C 	0.988	0.1981	0.4329	0.004
Mof_H 	H 	0.0155	0.2364	0.4601	0.051
Mof_C 	C 	0.0975	0.8624	0.9349	0.007
Mof_H 	H 	0.1334	0.8691	0.9655	0.051
Mof_C 	C 	0.0273	0.5104	0.2461	-0.206
Mof_C 	C 	0.0047	0.153	0.4272	-0.083
Mof_H 	H 	0.0426	0.1607	0.452	0.064
Mof_C 	C 	0.0907	0.6125	0.1786	-0.154
Mof_C 	C 	0.1162	0.6551	0.0926	0.464
Mof_C 	C 	0.106	0.638	0.2669	0.081
Mof_H 	H 	0.1335	0.6806	0.274	0.038
Mof_C 	C 	0.9132	0.2373	0.4045	0.309
Mof_C 	C 	0.0778	0.757	0.8986	0.313
Mof_C 	C 	0.0937	0.6304	0.4388	0.346
Mof_C 	C 	0.0592	0.8059	0.897	-0.067
Mof_C 	C 	0.9832	0.0467	0.3781	0.055
Mof_C 	C 	0.9653	0.0952	0.3844	0.018
Mof_C 	C 	0.9318	0.1879	0.3993	-0.058
Mof_C 	C 	0.937	0.9826	0.3764	-0.116
Mof_H 	H 	0.895	0.9712	0.3741	0.072
Mof_C 	C 	0.0067	0.7961	0.8466	-0.001
Mof_H 	H 	0.9812	0.7581	0.8174	0.052
Mof_C 	C 	0.2182	0.6693	0.8866	0.348
Mof_C 	C 	0.0841	0.9108	0.9292	-0.087
Mof_H 	H 	0.1107	0.9492	0.9569	0.064
Mof_C 	C 	0.7725	0.3152	0.3829	0.397
Mof_C 	C 	0.9936	0.8442	0.8412	-0.075
Mof_H 	H 	0.9582	0.8375	0.8088	0.06
Mof_C 	C 	0.335	0.7237	0.883	0.127
Mof_C 	C 	0.2779	0.6677	0.8838	-0.145
Mof_C 	C 	0.7178	0.3243	0.3821	-0.178
Mof_C 	C 	0.7265	0.3839	0.3814	0.149
Mof_C 	C 	0.031	0.9019	0.8821	0.021
Mof_C 	C 	0.0154	0.9518	0.8784	0.045
Mof_C 	C 	0.0622	0.0154	0.8768	-0.105
Mof_H 	H 	0.1038	0.0256	0.8747	0.069
Mof_In	In	0.32978	0.43894	0.61283	2.768
Mof_In	In	0.67026	0.55928	0.11459	2.753
Mof_O 	O 	0.6301	0.5448	0.981	-0.657
Mof_O 	O 	0.2945	0.4291	0.7485	-0.882
Mof_O 	O 	0.4107	0.4454	0.688	-0.686
Mof_O 	O 	0.5975	0.5378	0.4934	-0.54
Mof_O 	O 	0.4201	0.4557	0.844	-0.675
Mof_O 	O 	0.6197	0.452	0.1289	-0.517
Mof_O 	O 	0.2617	0.4969	0.6155	-0.375
Mof_O 	O 	0.6857	0.5515	0.5488	-0.478
Mof_O 	O 	0.6995	0.6638	0.1199	-0.501
Mof_O 	O 	0.2933	0.3375	0.5925	-0.553
Mof_O 	O 	0.72	0.5008	0.0972	-0.486
Mof_O 	O 	0.7686	0.6377	0.0784	-0.508
Mof_O 	O 	0.3637	0.5373	0.6158	-0.619
Mof_O 	O 	0.2211	0.3648	0.5962	-0.447
Mof_O 	O 	0.7062	0.5466	0.8986	-0.336
Mof_C 	C 	0.6011	0.5198	0.6563	-0.121
Mof_C 	C 	0.0847	0.1769	0.6494	-0.079
Mof_H 	H 	0.0467	0.1661	0.6777	0.06
Mof_C 	C 	0.5482	0.4977	0.8316	0.13
Mof_H 	H 	0.5308	0.4914	0.8907	0.024
Mof_C 	C 	0.1298	0.2391	0.6414	0.001
Mof_H 	H 	0.1217	0.2699	0.6629	0.051
Mof_C 	C 	0.5363	0.4947	0.6671	0.111
Mof_H 	H 	0.511	0.486	0.6149	0.034
Mof_C 	C 	0.4405	0.4586	0.7616	0.597
Mof_C 	C 	0.1981	0.2101	0.5671	0.007
Mof_H 	H 	0.2364	0.2209	0.5399	0.05
Mof_C 	C 	0.8624	0.7649	0.0651	0.015
Mof_H 	H 	0.8691	0.7357	0.0345	0.049
Mof_C 	C 	0.5104	0.4831	0.7539	-0.209
Mof_C 	C 	0.153	0.1483	0.5728	-0.087
Mof_H 	H 	0.1607	0.1181	0.548	0.066
Mof_C 	C 	0.6125	0.5218	0.8214	-0.156
Mof_C 	C 	0.6551	0.5389	0.9074	0.464
Mof_C 	C 	0.638	0.532	0.7331	0.081
Mof_H 	H 	0.6806	0.5471	0.726	0.038
Mof_C 	C 	0.2373	0.3241	0.5955	0.31
Mof_C 	C 	0.757	0.6792	0.1014	0.316
Mof_C 	C 	0.6304	0.5367	0.5612	0.347
Mof_C 	C 	0.8059	0.7467	0.103	-0.075
Mof_C 	C 	0.0467	0.0635	0.6219	0.056
Mof_C 	C 	0.0952	0.1299	0.6156	0.02
Mof_C 	C 	0.1879	0.2561	0.6007	-0.06
Mof_C 	C 	0.9826	0.0456	0.6236	-0.116
Mof_H 	H 	0.9712	0.0762	0.6259	0.072
Mof_C 	C 	0.7961	0.7894	0.1534	0.014
Mof_H 	H 	0.7581	0.7769	0.1826	0.045
Mof_C 	C 	0.6693	0.4511	0.1134	0.348
Mof_C 	C 	0.9108	0.8267	0.0708	-0.094
Mof_H 	H 	0.9492	0.8385	0.0431	0.068
Mof_C 	C 	0.3152	0.5427	0.6171	0.397
Mof_C 	C 	0.8442	0.8506	0.1588	-0.09
Mof_H 	H 	0.8375	0.8793	0.1912	0.065
Mof_C 	C 	0.7237	0.3887	0.117	0.127
Mof_C 	C 	0.6677	0.3898	0.1162	-0.145
Mof_C 	C 	0.3243	0.6065	0.6179	-0.178
Mof_C 	C 	0.3839	0.6574	0.6186	0.149
Mof_C 	C 	0.9019	0.8709	0.1179	0.03
Mof_C 	C 	0.9518	0.9364	0.1216	0.044
Mof_C 	C 	0.0154	0.9532	0.1232	-0.104
Mof_H 	H 	0.0256	0.9218	0.1253	0.07
Mof_In	In	0.56106	0.89084	0.61283	2.768
Mof_In	In	0.44072	0.11098	0.11459	2.751
Mof_O 	O 	0.4552	0.0853	0.981	-0.655
Mof_O 	O 	0.5709	0.8654	0.7485	-0.882
Mof_O 	O 	0.5546	0.9653	0.688	-0.686
Mof_O 	O 	0.4622	0.0597	0.4934	-0.54
Mof_O 	O 	0.5443	0.9644	0.844	-0.675
Mof_O 	O 	0.548	0.1677	0.1289	-0.517
Mof_O 	O 	0.5031	0.7648	0.6155	-0.375
Mof_O 	O 	0.4485	0.1342	0.5488	-0.478
Mof_O 	O 	0.3362	0.0357	0.1199	-0.501
Mof_O 	O 	0.6625	0.9558	0.5925	-0.553
Mof_O 	O 	0.4992	0.2192	0.0972	-0.485
Mof_O 	O 	0.3623	0.1309	0.0784	-0.507
Mof_O 	O 	0.4627	0.8264	0.6158	-0.619
Mof_O 	O 	0.6352	0.8563	0.5962	-0.447
Mof_O 	O 	0.4534	0.1596	0.8986	-0.335
Mof_C 	C 	0.4802	0.0813	0.6563	-0.121
Mof_C 	C 	0.8231	0.9078	0.6494	-0.079
Mof_H 	H 	0.8339	0.8806	0.6777	0.06
Mof_C 	C 	0.5023	0.0505	0.8316	0.129
Mof_H 	H 	0.5086	0.0394	0.8907	0.025
Mof_C 	C 	0.7609	0.8907	0.6414	0
Mof_H 	H 	0.7301	0.8518	0.6629	0.051
Mof_C 	C 	0.5053	0.0416	0.6671	0.109
Mof_H 	H 	0.514	0.025	0.6149	0.034
Mof_C 	C 	0.5414	0.9819	0.7616	0.595
Mof_C 	C 	0.7899	0.988	0.5671	0.005
Mof_H 	H 	0.7791	0.0155	0.5399	0.05
Mof_C 	C 	0.2351	0.0975	0.0651	0.008
Mof_H 	H 	0.2643	0.1334	0.0345	0.051
Mof_C 	C 	0.5169	0.0273	0.7539	-0.206
Mof_C 	C 	0.8517	0.0047	0.5728	-0.085
Mof_H 	H 	0.8819	0.0426	0.548	0.065
Mof_C 	C 	0.4782	0.0907	0.8214	-0.155
Mof_C 	C 	0.4611	0.1162	0.9074	0.464
Mof_C 	C 	0.468	0.106	0.7331	0.081
Mof_H 	H 	0.4529	0.1335	0.726	0.038
Mof_C 	C 	0.6759	0.9132	0.5955	0.309
Mof_C 	C 	0.3208	0.0778	0.1014	0.314
Mof_C 	C 	0.4633	0.0937	0.5612	0.347
Mof_C 	C 	0.2533	0.0592	0.103	-0.068
Mof_C 	C 	0.9365	0.9832	0.6219	0.056
Mof_C 	C 	0.8701	0.9653	0.6156	0.019
Mof_C 	C 	0.7439	0.9318	0.6007	-0.059
Mof_C 	C 	0.9544	0.937	0.6236	-0.116
Mof_H 	H 	0.9238	0.895	0.6259	0.072
Mof_C 	C 	0.2106	0.0067	0.1534	0.001
Mof_H 	H 	0.2231	0.9812	0.1826	0.051
Mof_C 	C 	0.5489	0.2182	0.1134	0.348
Mof_C 	C 	0.1733	0.0841	0.0708	-0.087
Mof_H 	H 	0.1615	0.1107	0.0431	0.066
Mof_C 	C 	0.4573	0.7725	0.6171	0.397
Mof_C 	C 	0.1494	0.9936	0.1588	-0.076
Mof_H 	H 	0.1207	0.9582	0.1912	0.061
Mof_C 	C 	0.6113	0.335	0.117	0.128
Mof_C 	C 	0.6102	0.2779	0.1162	-0.145
Mof_C 	C 	0.3935	0.7178	0.6179	-0.178
Mof_C 	C 	0.3426	0.7265	0.6186	0.149
Mof_C 	C 	0.1291	0.031	0.1179	0.022
Mof_C 	C 	0.0636	0.0154	0.1216	0.047
Mof_C 	C 	0.0468	0.0622	0.1232	-0.107
Mof_H 	H 	0.0782	0.1038	0.1253	0.07
Mof_In	In	0.10916	0.67022	0.61283	2.768
Mof_In	In	0.88902	0.32974	0.11459	2.75
Mof_O 	O 	0.9147	0.3699	0.981	-0.654
Mof_O 	O 	0.1346	0.7055	0.7485	-0.882
Mof_O 	O 	0.0347	0.5893	0.688	-0.686
Mof_O 	O 	0.9403	0.4025	0.4934	-0.54
Mof_O 	O 	0.0356	0.5799	0.844	-0.675
Mof_O 	O 	0.8323	0.3803	0.1289	-0.517
Mof_O 	O 	0.2352	0.7383	0.6155	-0.375
Mof_O 	O 	0.8658	0.3143	0.5488	-0.478
Mof_O 	O 	0.9643	0.3005	0.1199	-0.501
Mof_O 	O 	0.0442	0.7067	0.5925	-0.553
Mof_O 	O 	0.7808	0.28	0.0972	-0.486
Mof_O 	O 	0.8691	0.2314	0.0784	-0.507
Mof_O 	O 	0.1736	0.6363	0.6158	-0.619
Mof_O 	O 	0.1437	0.7789	0.5962	-0.447
Mof_O 	O 	0.8404	0.2938	0.8986	-0.335
Mof_C 	C 	0.9187	0.3989	0.6563	-0.121
Mof_C 	C 	0.0922	0.9153	0.6494	-0.078
Mof_H 	H 	0.1194	0.9533	0.6777	0.059
Mof_C 	C 	0.9495	0.4518	0.8316	0.129
Mof_H 	H 	0.9606	0.4692	0.8907	0.025
Mof_C 	C 	0.1093	0.8702	0.6414	-0
Mof_H 	H 	0.1482	0.8783	0.6629	0.051
Mof_C 	C 	0.9584	0.4637	0.6671	0.109
Mof_H 	H 	0.975	0.489	0.6149	0.034
Mof_C 	C 	0.0181	0.5595	0.7616	0.595
Mof_C 	C 	0.012	0.8019	0.5671	0.004
Mof_H 	H 	0.9845	0.7636	0.5399	0.051
Mof_C 	C 	0.9025	0.1376	0.0651	0.007
Mof_H 	H 	0.8666	0.1309	0.0345	0.051
Mof_C 	C 	0.9727	0.4896	0.7539	-0.206
Mof_C 	C 	0.9953	0.847	0.5728	-0.083
Mof_H 	H 	0.9574	0.8393	0.548	0.064
Mof_C 	C 	0.9093	0.3875	0.8214	-0.154
Mof_C 	C 	0.8838	0.3449	0.9074	0.464
Mof_C 	C 	0.894	0.362	0.7331	0.081
Mof_H 	H 	0.8665	0.3194	0.726	0.038
Mof_C 	C 	0.0868	0.7627	0.5955	0.309
Mof_C 	C 	0.9222	0.243	0.1014	0.313
Mof_C 	C 	0.9063	0.3696	0.5612	0.346
Mof_C 	C 	0.9408	0.1941	0.103	-0.067
Mof_C 	C 	0.0168	0.9533	0.6219	0.055
Mof_C 	C 	0.0347	0.9048	0.6156	0.018
Mof_C 	C 	0.0682	0.8121	0.6007	-0.058
Mof_C 	C 	0.063	0.0174	0.6236	-0.116
Mof_H 	H 	0.105	0.0288	0.6259	0.072
Mof_C 	C 	0.9933	0.2039	0.1534	-0.001
Mof_H 	H 	0.0188	0.2419	0.1826	0.052
Mof_C 	C 	0.7818	0.3307	0.1134	0.348
Mof_C 	C 	0.9159	0.0892	0.0708	-0.087
Mof_H 	H 	0.8893	0.0508	0.0431	0.064
Mof_C 	C 	0.2275	0.6848	0.6171	0.397
Mof_C 	C 	0.0064	0.1558	0.1588	-0.075
Mof_H 	H 	0.0418	0.1625	0.1912	0.06
Mof_C 	C 	0.665	0.2763	0.117	0.127
Mof_C 	C 	0.7221	0.3323	0.1162	-0.145
Mof_C 	C 	0.2822	0.6757	0.6179	-0.178
Mof_C 	C 	0.2735	0.6161	0.6186	0.149
Mof_C 	C 	0.969	0.0981	0.1179	0.021
Mof_C 	C 	0.9846	0.0482	0.1216	0.045
Mof_C 	C 	0.9378	0.9846	0.1232	-0.105
Mof_H 	H 	0.8962	0.9744	0.1253	0.069
_end
