data_functionalizedCrystal
_audit_creation_method	'EQeq! by Chris Wilmer'
_symmetry_space_group_name_H-M	'P1'
_symmetry_Int_Tables_number	1
_symmetry_cell_setting	triclinic
loop_
_symmetry_equiv_pos_as_xyz
  x,y,z
_cell_length_a	11.048
_cell_length_b	16.702
_cell_length_c	18.739
_cell_angle_alpha	90
_cell_angle_beta	90
_cell_angle_gamma	90
loop_
_atom_site_label
_atom_site_type_symbol
_atom_site_fract_x
_atom_site_fract_y
_atom_site_fract_z
_atom_site_charge
Mof_Eu	Eu	0.79712	0.25	0.79524	2.132
Mof_Eu	Eu	0.29712	0.25	0.70476	2.131
Mof_Eu	Eu	0.20288	0.75	0.20476	2.132
Mof_Eu	Eu	0.70288	0.75	0.29524	2.131
Mof_H 	H 	0.926	0.679	0.5183	0.092
Mof_H 	H 	0.3257	0.0703	0.9586	0.091
Mof_H 	H 	0.1743	0.9297	0.4586	0.094
Mof_H 	H 	0.9553	0.5101	0.319	-0.017
Mof_H 	H 	0.4553	0.9899	0.181	-0.018
Mof_H 	H 	0.5447	0.0101	0.819	-0.018
Mof_H 	H 	0.5251	0.3931	0.1356	0.118
Mof_H 	H 	0.5294	0.75	0.4743	0.025
Mof_H 	H 	0.0206	0.8276	0.4561	0.078
Mof_H 	H 	0.248	0.9542	0.012	0.006
Mof_H 	H 	0.6743	0.9297	0.0414	0.091
Mof_H 	H 	0.9794	0.3276	0.5439	0.078
Mof_H 	H 	0.574	0.321	0.0183	0.092
Mof_H 	H 	0.8257	0.0703	0.5414	0.094
Mof_H 	H 	0.426	0.821	0.9817	0.092
Mof_H 	H 	0.3174	0.25	0.9093	0.004
Mof_H 	H 	0.8174	0.25	0.5907	0.002
Mof_H 	H 	0.748	0.5458	0.488	0.005
Mof_H 	H 	0.074	0.321	0.4817	0.092
Mof_H 	H 	0.6826	0.75	0.0907	0.004
Mof_H 	H 	0.3257	0.4297	0.9586	0.093
Mof_H 	H 	0.1743	0.5703	0.4586	0.093
Mof_H 	H 	0.4706	0.75	0.5881	0.062
Mof_H 	H 	0.4553	0.5101	0.181	-0.017
Mof_H 	H 	0.5251	0.1069	0.1356	0.119
Mof_H 	H 	0.1826	0.75	0.4093	0.002
Mof_H 	H 	0.748	0.9542	0.488	0.004
Mof_H 	H 	0.0206	0.6724	0.4561	0.078
Mof_H 	H 	0.0447	0.0101	0.681	-0.021
Mof_H 	H 	0.8257	0.4297	0.5414	0.093
Mof_H 	H 	0.5294	0.25	0.4119	0.062
Mof_H 	H 	0.5447	0.4899	0.819	-0.017
Mof_H 	H 	0.426	0.679	0.9817	0.092
Mof_H 	H 	0.0294	0.75	0.0257	0.029
Mof_H 	H 	0.9706	0.25	0.9743	0.029
Mof_H 	H 	0.6743	0.5703	0.0414	0.093
Mof_H 	H 	0.4749	0.8931	0.8644	0.119
Mof_H 	H 	0.752	0.4542	0.988	0.005
Mof_H 	H 	0.9749	0.8931	0.6356	0.119
Mof_H 	H 	0.4749	0.6069	0.8644	0.118
Mof_H 	H 	0.0294	0.25	0.0881	0.059
Mof_H 	H 	0.1271	0.75	0.7072	0.287
Mof_H 	H 	0.5206	0.6724	0.0439	0.077
Mof_H 	H 	0.9794	0.1724	0.5439	0.078
Mof_H 	H 	0.926	0.821	0.5183	0.092
Mof_H 	H 	0.3729	0.25	0.2072	0.288
Mof_H 	H 	0.9706	0.75	0.9119	0.059
Mof_H 	H 	0.752	0.0458	0.988	0.006
Mof_H 	H 	0.4706	0.25	0.5257	0.025
Mof_H 	H 	0.0447	0.4899	0.681	-0.017
Mof_H 	H 	0.0251	0.3931	0.3644	0.118
Mof_H 	H 	0.9553	0.9899	0.319	-0.021
Mof_H 	H 	0.252	0.4542	0.512	0.005
Mof_H 	H 	0.252	0.0458	0.512	0.004
Mof_H 	H 	0.4794	0.1724	0.9561	0.076
Mof_H 	H 	0.0251	0.1069	0.3644	0.119
Mof_H 	H 	0.574	0.179	0.0183	0.092
Mof_H 	H 	0.9749	0.6069	0.6356	0.118
Mof_H 	H 	0.4794	0.3276	0.9561	0.077
Mof_H 	H 	0.248	0.5458	0.012	0.005
Mof_H 	H 	0.5206	0.8276	0.0439	0.076
Mof_H 	H 	0.074	0.179	0.4817	0.092
Mof_H 	H 	0.6271	0.75	0.7928	0.288
Mof_H 	H 	0.8729	0.25	0.2928	0.287
Mof_C 	C 	0.9367	0.1007	0.4589	0.174
Mof_C 	C 	0.7595	0.25	0.5546	0.004
Mof_C 	C 	0.5716	0.9936	0.8636	0.129
Mof_C 	C 	0.8464	0.9596	0.3992	-0.185
Mof_C 	C 	0.4367	0.3993	0.0411	0.172
Mof_C 	C 	0.5117	0.6754	0.9925	-0.184
Mof_C 	C 	0.4473	0.75	0.4851	0.048
Mof_C 	C 	0.9367	0.3993	0.4589	0.173
Mof_C 	C 	0.7468	0.25	0.3481	0.404
Mof_C 	C 	0.9121	0.75	0.9475	-0.044
Mof_C 	C 	0.0633	0.6007	0.5411	0.173
Mof_C 	C 	0.7048	0.75	0.9815	0.073
Mof_C 	C 	0.3464	0.5404	0.1008	-0.181
Mof_C 	C 	0.7952	0.25	0.4815	0.069
Mof_C 	C 	0.0282	0.5758	0.609	-0.216
Mof_C 	C 	0.1536	0.0404	0.6008	-0.185
Mof_C 	C 	0.8518	0.0548	0.4963	-0.194
Mof_C 	C 	0.0879	0.25	0.0525	-0.044
Mof_C 	C 	0.7405	0.75	0.0546	-0.001
Mof_C 	C 	0.4718	0.4242	0.109	-0.215
Mof_C 	C 	0.8609	0.75	0.0709	-0.182
Mof_C 	C 	0.5633	0.8993	0.9589	0.171
Mof_C 	C 	0.3464	0.9596	0.1008	-0.182
Mof_C 	C 	0.4284	0.0064	0.1364	0.129
Mof_C 	C 	0.8464	0.5404	0.3992	-0.182
Mof_C 	C 	0.3609	0.75	0.4291	-0.188
Mof_C 	C 	0.4284	0.4936	0.1364	0.127
Mof_C 	C 	0.9284	0.0064	0.3636	0.134
Mof_C 	C 	0.1958	0.3824	0.631	0.352
Mof_C 	C 	0.2468	0.25	0.1519	0.405
Mof_C 	C 	0.2532	0.75	0.6519	0.404
Mof_C 	C 	0.6482	0.9452	0.9963	-0.189
Mof_C 	C 	0.9883	0.3246	0.4925	-0.184
Mof_C 	C 	0.2952	0.25	0.0185	0.073
Mof_C 	C 	0.2405	0.75	0.4454	0.004
Mof_C 	C 	0.7114	0.25	0.4278	-0.083
Mof_C 	C 	0.7532	0.75	0.8481	0.405
Mof_C 	C 	0.8042	0.6176	0.369	0.352
Mof_C 	C 	0.1007	0.25	0.8527	0.585
Mof_C 	C 	0.6536	0.4596	0.8992	-0.181
Mof_C 	C 	0.5282	0.9242	0.891	-0.215
Mof_C 	C 	0.9718	0.4242	0.391	-0.216
Mof_C 	C 	0.6937	0.0158	0.9642	0.102
Mof_C 	C 	0.3518	0.4452	0.0037	-0.193
Mof_C 	C 	0.6536	0.0404	0.8992	-0.182
Mof_C 	C 	0.6391	0.25	0.5709	-0.188
Mof_C 	C 	0.3518	0.0548	0.0037	-0.189
Mof_C 	C 	0.2886	0.75	0.5722	-0.083
Mof_C 	C 	0.2114	0.25	0.0722	-0.087
Mof_C 	C 	0.6958	0.3824	0.869	0.352
Mof_C 	C 	0.1937	0.4842	0.5358	0.106
Mof_C 	C 	0.0282	0.9242	0.609	-0.218
Mof_C 	C 	0.8042	0.8824	0.369	0.354
Mof_C 	C 	0.2048	0.75	0.5185	0.069
Mof_C 	C 	0.3063	0.5158	0.0358	0.105
Mof_C 	C 	0.3042	0.8824	0.131	0.352
Mof_C 	C 	0.5117	0.8246	0.9925	-0.182
Mof_C 	C 	0.5282	0.5758	0.891	-0.215
Mof_C 	C 	0.0633	0.8993	0.5411	0.174
Mof_C 	C 	0.8993	0.75	0.1473	0.585
Mof_C 	C 	0.9284	0.4936	0.3636	0.128
Mof_C 	C 	0.6007	0.25	0.6473	0.589
Mof_C 	C 	0.2595	0.25	0.9454	-0.001
Mof_C 	C 	0.0716	0.9936	0.6364	0.134
Mof_C 	C 	0.8063	0.5158	0.4642	0.106
Mof_C 	C 	0.1937	0.0158	0.5358	0.106
Mof_C 	C 	0.1958	0.1176	0.631	0.354
Mof_C 	C 	0.5527	0.25	0.5149	0.048
Mof_C 	C 	0.6482	0.5548	0.9963	-0.193
Mof_C 	C 	0.0716	0.5064	0.6364	0.128
Mof_C 	C 	0.1536	0.4596	0.6008	-0.182
Mof_C 	C 	0.0117	0.8246	0.5075	-0.184
Mof_C 	C 	0.6958	0.1176	0.869	0.352
Mof_C 	C 	0.8063	0.9842	0.4642	0.106
Mof_C 	C 	0.4121	0.75	0.5525	-0.053
Mof_C 	C 	0.7886	0.75	0.9278	-0.087
Mof_C 	C 	0.4883	0.1754	0.0075	-0.182
Mof_C 	C 	0.1391	0.25	0.9291	-0.182
Mof_C 	C 	0.4367	0.1007	0.0411	0.171
Mof_C 	C 	0.4718	0.0758	0.109	-0.215
Mof_C 	C 	0.3063	0.9842	0.0358	0.102
Mof_C 	C 	0.9718	0.0758	0.391	-0.218
Mof_C 	C 	0.3042	0.6176	0.131	0.352
Mof_C 	C 	0.1482	0.5548	0.5037	-0.194
Mof_C 	C 	0.5716	0.5064	0.8636	0.127
Mof_C 	C 	0.1482	0.9452	0.5037	-0.194
Mof_C 	C 	0.5879	0.25	0.4475	-0.053
Mof_C 	C 	0.6937	0.4842	0.9642	0.105
Mof_C 	C 	0.3993	0.75	0.3527	0.589
Mof_C 	C 	0.0117	0.6754	0.5075	-0.184
Mof_C 	C 	0.5633	0.6007	0.9589	0.172
Mof_C 	C 	0.9883	0.1754	0.4925	-0.184
Mof_C 	C 	0.8518	0.4452	0.4963	-0.194
Mof_C 	C 	0.0527	0.25	0.9851	0.037
Mof_C 	C 	0.9473	0.75	0.0149	0.037
Mof_C 	C 	0.4883	0.3246	0.0075	-0.184
Mof_N 	N 	0.9242	0.25	0.465	-0.06
Mof_N 	N 	0.5758	0.75	0.965	-0.061
Mof_N 	N 	0.4242	0.25	0.035	-0.061
Mof_N 	N 	0.0758	0.75	0.535	-0.06
Mof_O 	O 	0.831	0.75	0.8041	-0.304
Mof_O 	O 	0.3604	0.6495	0.1818	-0.488
Mof_O 	O 	0.0091	0.75	0.1616	-0.625
Mof_O 	O 	0.361	0.25	0.1641	-0.49
Mof_O 	O 	0.1839	0.25	0.8073	-0.636
Mof_O 	O 	0.1396	0.3505	0.6818	-0.488
Mof_O 	O 	0.1396	0.1495	0.6818	-0.488
Mof_O 	O 	0.3604	0.8505	0.1818	-0.488
Mof_O 	O 	0.8604	0.8505	0.3182	-0.488
Mof_O 	O 	0.2118	0.6521	0.1066	-0.455
Mof_O 	O 	0.331	0.75	0.6959	-0.303
Mof_O 	O 	0.7118	0.8479	0.3934	-0.455
Mof_O 	O 	0.5091	0.75	0.3384	-0.626
Mof_O 	O 	0.861	0.25	0.3359	-0.489
Mof_O 	O 	0.139	0.75	0.6641	-0.489
Mof_O 	O 	0.7882	0.3479	0.8934	-0.455
Mof_O 	O 	0.6396	0.3505	0.8182	-0.488
Mof_O 	O 	0.669	0.25	0.3041	-0.303
Mof_O 	O 	0.7882	0.1521	0.8934	-0.455
Mof_O 	O 	0.2882	0.1521	0.6066	-0.455
Mof_O 	O 	0.8604	0.6495	0.3182	-0.488
Mof_O 	O 	0.2882	0.3479	0.6066	-0.455
Mof_O 	O 	0.9909	0.25	0.8384	-0.625
Mof_O 	O 	0.6396	0.1495	0.8182	-0.488
Mof_O 	O 	0.3161	0.75	0.3073	-0.637
Mof_O 	O 	0.4909	0.25	0.6616	-0.626
Mof_O 	O 	0.639	0.75	0.8359	-0.49
Mof_O 	O 	0.6839	0.25	0.6927	-0.637
Mof_O 	O 	0.2118	0.8479	0.1066	-0.455
Mof_O 	O 	0.7118	0.6521	0.3934	-0.455
Mof_O 	O 	0.8161	0.75	0.1927	-0.636
Mof_O 	O 	0.169	0.25	0.1959	-0.304
_end
