data_functionalizedCrystal
_audit_creation_method	'EQeq! by Chris Wilmer'
_symmetry_space_group_name_H-M	'P1'
_symmetry_Int_Tables_number	1
_symmetry_cell_setting	triclinic
loop_
_symmetry_equiv_pos_as_xyz
  x,y,z
_cell_length_a	17.34
_cell_length_b	6.6053
_cell_length_c	11.54
_cell_angle_alpha	90
_cell_angle_beta	95.41
_cell_angle_gamma	90
loop_
_atom_site_label
_atom_site_type_symbol
_atom_site_fract_x
_atom_site_fract_y
_atom_site_fract_z
_atom_site_charge
Mof_Zr	Zr	0.85979	0.85487	0.10017	3.201
Mof_Zr	Zr	0.22146	0.84751	0.35054	3.207
Mof_P 	P 	0.22812	0.8526	0.63908	0.577
Mof_P 	P 	0.69236	0.8551	0.91438	0.606
Mof_P 	P 	0.05782	0.7853	0.16692	0.72
Mof_F 	F 	0.329	0.8387	0.4222	-0.865
Mof_O 	O 	0.1061	0.8494	0.2772	-0.715
Mof_O 	O 	0.7478	0.8543	0.0253	-0.831
Mof_O 	O 	0.1832	0.8504	0.518	-0.707
Mof_O 	O 	0.9752	0.8592	0.1715	-0.716
Mof_O 	O 	0.0591	0.5504	0.1713	-0.209
Mof_O 	O 	0.6421	0.0427	0.9076	-0.514
Mof_O 	O 	0.1714	0.8587	0.7329	-0.781
Mof_O 	O 	0.282	0.034	0.6511	-0.485
Mof_O 	O 	0.6381	0.669	0.9145	-0.702
Mof_O 	O 	0.2775	0.6595	0.6533	-0.71
Mof_O 	O 	0.0914	0.8557	0.0586	-0.772
Mof_O 	O 	0.7392	0.8419	0.8096	-0.834
Mof_Zr	Zr	0.35979	0.35487	0.10017	3.214
Mof_Zr	Zr	0.72146	0.34751	0.35054	3.222
Mof_P 	P 	0.72812	0.3526	0.63908	0.765
Mof_P 	P 	0.19236	0.3551	0.91438	0.799
Mof_P 	P 	0.55782	0.2853	0.16692	0.712
Mof_F 	F 	0.829	0.3387	0.4222	-0.714
Mof_O 	O 	0.6061	0.3494	0.2772	-0.65
Mof_O 	O 	0.2478	0.3543	0.0253	-0.724
Mof_O 	O 	0.6832	0.3504	0.518	-0.635
Mof_O 	O 	0.4752	0.3592	0.1715	-0.656
Mof_O 	O 	0.5591	0.0504	0.1713	-0.148
Mof_O 	O 	0.1421	0.5427	0.9076	-0.699
Mof_O 	O 	0.6714	0.3587	0.7329	-0.702
Mof_O 	O 	0.782	0.534	0.6511	-0.687
Mof_O 	O 	0.1381	0.169	0.9145	-0.533
Mof_O 	O 	0.7775	0.1595	0.6533	-0.562
Mof_O 	O 	0.5914	0.3557	0.0586	-0.716
Mof_O 	O 	0.2392	0.3419	0.8096	-0.756
Mof_Zr	Zr	0.14021	0.85487	0.89983	3.201
Mof_Zr	Zr	0.77854	0.84751	0.64946	3.207
Mof_P 	P 	0.77188	0.8526	0.36092	0.577
Mof_P 	P 	0.30764	0.8551	0.08562	0.606
Mof_P 	P 	0.94218	0.7853	0.83308	0.72
Mof_F 	F 	0.671	0.8387	0.5778	-0.865
Mof_O 	O 	0.8939	0.8494	0.7228	-0.715
Mof_O 	O 	0.2522	0.8543	0.9747	-0.831
Mof_O 	O 	0.8168	0.8504	0.482	-0.707
Mof_O 	O 	0.0248	0.8592	0.8285	-0.716
Mof_O 	O 	0.9409	0.5504	0.8287	-0.209
Mof_O 	O 	0.3579	0.0427	0.0924	-0.514
Mof_O 	O 	0.8286	0.8587	0.2671	-0.781
Mof_O 	O 	0.718	0.034	0.3489	-0.485
Mof_O 	O 	0.3619	0.669	0.0855	-0.702
Mof_O 	O 	0.7225	0.6595	0.3467	-0.71
Mof_O 	O 	0.9086	0.8557	0.9414	-0.772
Mof_O 	O 	0.2608	0.8419	0.1904	-0.834
Mof_Zr	Zr	0.64021	0.35487	0.89983	3.214
Mof_Zr	Zr	0.27854	0.34751	0.64946	3.222
Mof_P 	P 	0.27188	0.3526	0.36092	0.765
Mof_P 	P 	0.80764	0.3551	0.08562	0.799
Mof_P 	P 	0.44218	0.2853	0.83308	0.712
Mof_F 	F 	0.171	0.3387	0.5778	-0.714
Mof_O 	O 	0.3939	0.3494	0.7228	-0.65
Mof_O 	O 	0.7522	0.3543	0.9747	-0.724
Mof_O 	O 	0.3168	0.3504	0.482	-0.635
Mof_O 	O 	0.5248	0.3592	0.8285	-0.656
Mof_O 	O 	0.4409	0.0504	0.8287	-0.148
Mof_O 	O 	0.8579	0.5427	0.0924	-0.699
Mof_O 	O 	0.3286	0.3587	0.2671	-0.702
Mof_O 	O 	0.218	0.534	0.3489	-0.687
Mof_O 	O 	0.8619	0.169	0.0855	-0.533
Mof_O 	O 	0.2225	0.1595	0.3467	-0.562
Mof_O 	O 	0.4086	0.3557	0.9414	-0.716
Mof_O 	O 	0.7608	0.3419	0.1904	-0.756
_end
