data_functionalizedCrystal
_audit_creation_method	'EQeq! by Chris Wilmer'
_symmetry_space_group_name_H-M	'P1'
_symmetry_Int_Tables_number	1
_symmetry_cell_setting	triclinic
loop_
_symmetry_equiv_pos_as_xyz
  x,y,z
_cell_length_a	6.9875
_cell_length_b	15.7563
_cell_length_c	15.7563
_cell_angle_alpha	62.1459
_cell_angle_beta	81.4991
_cell_angle_gamma	98.5009
loop_
_atom_site_label
_atom_site_type_symbol
_atom_site_fract_x
_atom_site_fract_y
_atom_site_fract_z
_atom_site_charge
Mof_Cu	Cu	0.539	0.4322	0.09829	0.927
Mof_Cu	Cu	0.63729	0.09829	0.46951	0.927
Mof_Cu	Cu	0.1068	0.46951	0.4322	0.927
Mof_Cu	Cu	0.461	0.5678	0.90171	0.927
Mof_Cu	Cu	0.36271	0.90171	0.53049	0.926
Mof_Cu	Cu	0.8932	0.53049	0.5678	0.926
Mof_H 	H 	0.7976	0.3411	0.2843	0.137
Mof_H 	H 	0.8789	0.3076	0.2094	0.142
Mof_H 	H 	0.0409	0.4886	0.139	0.037
Mof_H 	H 	0.2254	0.6501	0.0467	0.008
Mof_H 	H 	0.2785	0.8137	0.9292	0.093
Mof_H 	H 	0.0379	0.8648	0.8432	-0.016
Mof_H 	H 	0.7533	0.754	0.8701	0.145
Mof_H 	H 	0.0819	0.2843	0.3746	0.137
Mof_H 	H 	0.0883	0.2094	0.483	0.142
Mof_H 	H 	0.1799	0.139	0.3724	0.038
Mof_H 	H 	0.2721	0.0467	0.3032	0.008
Mof_H 	H 	0.2077	0.9292	0.2571	0.092
Mof_H 	H 	0.8811	0.8432	0.292	-0.016
Mof_H 	H 	0.6234	0.8701	0.3759	0.144
Mof_H 	H 	0.4565	0.3746	0.3411	0.137
Mof_H 	H 	0.5713	0.483	0.3076	0.141
Mof_H 	H 	0.5523	0.3724	0.4886	0.037
Mof_H 	H 	0.5753	0.3032	0.6501	0.007
Mof_H 	H 	0.4648	0.2571	0.8137	0.093
Mof_H 	H 	0.1731	0.292	0.8648	-0.016
Mof_H 	H 	0.9993	0.3759	0.754	0.144
Mof_H 	H 	0.2024	0.6589	0.7157	0.137
Mof_H 	H 	0.1211	0.6924	0.7906	0.142
Mof_H 	H 	0.9591	0.5114	0.861	0.037
Mof_H 	H 	0.7746	0.3499	0.9533	0.008
Mof_H 	H 	0.7215	0.1863	0.0708	0.093
Mof_H 	H 	0.9621	0.1352	0.1568	-0.016
Mof_H 	H 	0.2467	0.246	0.1299	0.145
Mof_H 	H 	0.9181	0.7157	0.6254	0.137
Mof_H 	H 	0.9117	0.7906	0.517	0.142
Mof_H 	H 	0.8201	0.861	0.6276	0.038
Mof_H 	H 	0.7279	0.9533	0.6968	0.008
Mof_H 	H 	0.7923	0.0708	0.7429	0.092
Mof_H 	H 	0.1189	0.1568	0.708	-0.016
Mof_H 	H 	0.3766	0.1299	0.6241	0.144
Mof_H 	H 	0.5435	0.6254	0.6589	0.137
Mof_H 	H 	0.4287	0.517	0.6924	0.141
Mof_H 	H 	0.4477	0.6276	0.5114	0.037
Mof_H 	H 	0.4247	0.6968	0.3499	0.007
Mof_H 	H 	0.5352	0.7429	0.1863	0.093
Mof_H 	H 	0.8269	0.708	0.1352	-0.016
Mof_H 	H 	0.0007	0.6241	0.246	0.144
Mof_C 	C 	0.57242	0.26363	0.25807	0.408
Mof_C 	C 	0.77428	0.33393	0.22859	-0.343
Mof_C 	C 	0.93324	0.50158	0.11076	0.053
Mof_C 	C 	0.95477	0.60067	0.03096	-0.151
Mof_C 	C 	0.12986	0.67057	0.01149	0.066
Mof_C 	C 	0.16202	0.76825	0.94159	-0.186
Mof_C 	C 	0.01819	0.7982	0.88973	0.141
Mof_C 	C 	0.84748	0.73161	0.90567	-0.286
Mof_C 	C 	0.81214	0.63021	0.97479	0.273
Mof_C 	C 	0.83049	0.25807	0.4783	0.409
Mof_C 	C 	0.00287	0.22859	0.43748	-0.344
Mof_C 	C 	0.044	0.11076	0.38766	0.051
Mof_C 	C 	0.98573	0.03096	0.36837	-0.151
Mof_C 	C 	0.14135	0.01149	0.31794	0.066
Mof_C 	C 	0.10361	0.94159	0.29016	-0.185
Mof_C 	C 	0.90792	0.88973	0.31207	0.14
Mof_C 	C 	0.75315	0.90567	0.36272	-0.284
Mof_C 	C 	0.78693	0.97479	0.395	0.272
Mof_C 	C 	0.30879	0.4783	0.26363	0.408
Mof_C 	C 	0.44035	0.43748	0.33393	-0.343
Mof_C 	C 	0.43166	0.38766	0.50158	0.052
Mof_C 	C 	0.3541	0.36837	0.60067	-0.153
Mof_C 	C 	0.45929	0.31794	0.67057	0.068
Mof_C 	C 	0.39377	0.29016	0.76825	-0.187
Mof_C 	C 	0.21999	0.31207	0.7982	0.141
Mof_C 	C 	0.11587	0.36272	0.73161	-0.285
Mof_C 	C 	0.18193	0.395	0.63021	0.273
Mof_C 	C 	0.42758	0.73637	0.74193	0.408
Mof_C 	C 	0.22572	0.66607	0.77141	-0.343
Mof_C 	C 	0.06676	0.49842	0.88924	0.053
Mof_C 	C 	0.04523	0.39933	0.96904	-0.151
Mof_C 	C 	0.87014	0.32943	0.98851	0.066
Mof_C 	C 	0.83798	0.23175	0.05841	-0.186
Mof_C 	C 	0.98181	0.2018	0.11027	0.141
Mof_C 	C 	0.15252	0.26839	0.09433	-0.286
Mof_C 	C 	0.18786	0.36979	0.02521	0.273
Mof_C 	C 	0.16951	0.74193	0.5217	0.409
Mof_C 	C 	0.99713	0.77141	0.56252	-0.344
Mof_C 	C 	0.956	0.88924	0.61234	0.051
Mof_C 	C 	0.01427	0.96904	0.63163	-0.151
Mof_C 	C 	0.85865	0.98851	0.68206	0.066
Mof_C 	C 	0.89639	0.05841	0.70984	-0.185
Mof_C 	C 	0.09208	0.11027	0.68793	0.14
Mof_C 	C 	0.24685	0.09433	0.63728	-0.284
Mof_C 	C 	0.21307	0.02521	0.605	0.272
Mof_C 	C 	0.69121	0.5217	0.73637	0.408
Mof_C 	C 	0.55965	0.56252	0.66607	-0.343
Mof_C 	C 	0.56834	0.61234	0.49842	0.052
Mof_C 	C 	0.6459	0.63163	0.39933	-0.153
Mof_C 	C 	0.54071	0.68206	0.32943	0.068
Mof_C 	C 	0.60623	0.70984	0.23175	-0.187
Mof_C 	C 	0.78001	0.68793	0.2018	0.141
Mof_C 	C 	0.88413	0.63728	0.26839	-0.285
Mof_C 	C 	0.81807	0.605	0.36979	0.273
Mof_N 	N 	0.77822	0.43044	0.14558	-0.175
Mof_N 	N 	0.9238	0.14558	0.42398	-0.174
Mof_N 	N 	0.34778	0.42398	0.43044	-0.175
Mof_N 	N 	0.22178	0.56956	0.85442	-0.175
Mof_N 	N 	0.0762	0.85442	0.57602	-0.174
Mof_N 	N 	0.65222	0.57602	0.56956	-0.175
Mof_O 	O 	0.44942	0.29669	0.20683	-0.417
Mof_O 	O 	0.53531	0.17915	0.32962	-0.379
Mof_O 	O 	0.65089	0.56511	0.98514	-0.475
Mof_O 	O 	0.65625	0.20683	0.49648	-0.417
Mof_O 	O 	0.86493	0.32962	0.49123	-0.379
Mof_O 	O 	0.63603	0.98514	0.44975	-0.475
Mof_O 	O 	0.15273	0.49648	0.29669	-0.417
Mof_O 	O 	0.35616	0.49123	0.17915	-0.379
Mof_O 	O 	0.08578	0.44975	0.56511	-0.475
Mof_O 	O 	0.55058	0.70331	0.79317	-0.417
Mof_O 	O 	0.46469	0.82085	0.67038	-0.379
Mof_O 	O 	0.34911	0.43489	0.01486	-0.475
Mof_O 	O 	0.34375	0.79317	0.50352	-0.417
Mof_O 	O 	0.13507	0.67038	0.50877	-0.379
Mof_O 	O 	0.36397	0.01486	0.55025	-0.475
Mof_O 	O 	0.84727	0.50352	0.70331	-0.417
Mof_O 	O 	0.64384	0.50877	0.82085	-0.379
Mof_O 	O 	0.91422	0.55025	0.43489	-0.475
_end
