data_functionalizedCrystal
_audit_creation_method	'EQeq! by Chris Wilmer'
_symmetry_space_group_name_H-M	'P1'
_symmetry_Int_Tables_number	1
_symmetry_cell_setting	triclinic
loop_
_symmetry_equiv_pos_as_xyz
  x,y,z
_cell_length_a	11.649
_cell_length_b	16.833
_cell_length_c	25.515
_cell_angle_alpha	99.17
_cell_angle_beta	101.55
_cell_angle_gamma	93.41
loop_
_atom_site_label
_atom_site_type_symbol
_atom_site_fract_x
_atom_site_fract_y
_atom_site_fract_z
_atom_site_charge
Mof_Nd	Nd	0.92737	0.2072	0.10419	2.466
Mof_Nd	Nd	0.59629	0.803	0.30706	2.437
Mof_Nd	Nd	0.07263	0.7928	0.89581	2.466
Mof_Nd	Nd	0.40371	0.197	0.69294	2.437
Mof_H 	H 	0.6488	0.9419	0.0537	0.066
Mof_H 	H 	0.5163	0.1431	0.9977	0.06
Mof_H 	H 	0.7302	0.4257	0.2849	0.056
Mof_H 	H 	0.8932	0.4289	0.1597	0.055
Mof_H 	H 	0.9013	0.5045	0.0707	0.052
Mof_H 	H 	0.0685	0.378	0.9641	0.057
Mof_H 	H 	0.1789	0.0783	0.1931	0.055
Mof_H 	H 	0.2855	0.0017	0.2507	0.071
Mof_H 	H 	0.4599	0.9186	0.1344	0.065
Mof_H 	H 	0.3474	0.9923	0.0752	0.054
Mof_H 	H 	0.3366	0.3699	0.2851	0.053
Mof_H 	H 	0.4501	0.4954	0.3164	0.058
Mof_H 	H 	0.2344	0.6033	0.2098	0.062
Mof_H 	H 	0.1213	0.4785	0.1777	0.048
Mof_H 	H 	0.8835	0.5711	0.1687	0.051
Mof_H 	H 	0.704	0.568	0.2889	0.051
Mof_H 	H 	0.3811	0.8778	0.4587	0.06
Mof_H 	H 	0.6626	0.0389	0.4666	0.064
Mof_H 	H 	0.3512	0.0581	0.9463	0.065
Mof_H 	H 	0.4837	0.8569	0.0023	0.059
Mof_H 	H 	0.2698	0.5743	0.7151	0.056
Mof_H 	H 	0.1068	0.5711	0.8403	0.055
Mof_H 	H 	0.0987	0.4955	0.9293	0.052
Mof_H 	H 	0.9315	0.622	0.0359	0.057
Mof_H 	H 	0.8211	0.9217	0.8069	0.055
Mof_H 	H 	0.7145	0.9983	0.7493	0.071
Mof_H 	H 	0.5401	0.0814	0.8656	0.065
Mof_H 	H 	0.6526	0.0077	0.9248	0.054
Mof_H 	H 	0.6634	0.6301	0.7149	0.053
Mof_H 	H 	0.5499	0.5046	0.6836	0.058
Mof_H 	H 	0.7656	0.3967	0.7902	0.062
Mof_H 	H 	0.8787	0.5215	0.8223	0.048
Mof_H 	H 	0.1165	0.4289	0.8313	0.051
Mof_H 	H 	0.296	0.432	0.7111	0.051
Mof_H 	H 	0.6189	0.1222	0.5413	0.06
Mof_H 	H 	0.3374	0.9611	0.5334	0.064
Mof_C 	C 	0.7053	0.1078	0.0603	0.238
Mof_C 	C 	0.5966	0.0515	0.0302	-0.022
Mof_C 	C 	0.5884	0.9631	0.0321	-0.034
Mof_C 	C 	0.5094	0.0879	0.9984	-0.038
Mof_C 	C 	0.8189	0.3141	0.2142	0.315
Mof_C 	C 	0.814	0.4121	0.2217	-0.042
Mof_C 	C 	0.7577	0.4536	0.2605	-0.044
Mof_C 	C 	0.8575	0.4555	0.1861	-0.032
Mof_C 	C 	0.9594	0.3466	0.0443	0.26
Mof_C 	C 	0.9795	0.4253	0.0207	-0.034
Mof_C 	C 	0.9404	0.5025	0.0422	-0.033
Mof_C 	C 	0.0405	0.4254	0.9786	-0.037
Mof_C 	C 	0.1681	0.0868	0.089	0.347
Mof_C 	C 	0.2471	0.0415	0.1276	-0.068
Mof_C 	C 	0.2325	0.0453	0.1806	-0.002
Mof_C 	C 	0.2981	0.9995	0.2157	-0.048
Mof_C 	C 	0.3831	0.9502	0.1984	-0.024
Mof_C 	C 	0.4026	0.9489	0.146	-0.042
Mof_C 	C 	0.3346	0.9939	0.1102	-0.01
Mof_C 	C 	0.4529	0.9004	0.2366	0.277
Mof_C 	C 	0.1418	0.3263	0.2071	0.316
Mof_C 	C 	0.2164	0.41	0.228	-0.058
Mof_C 	C 	0.3154	0.4149	0.2697	-0.025
Mof_C 	C 	0.3842	0.4921	0.2884	-0.037
Mof_C 	C 	0.3575	0.565	0.2663	-0.035
Mof_C 	C 	0.2566	0.5583	0.2249	-0.041
Mof_C 	C 	0.1874	0.4819	0.2056	-0.016
Mof_C 	C 	0.4356	0.6458	0.2841	0.263
Mof_C 	C 	0.7587	0.677	0.2232	0.378
Mof_C 	C 	0.7821	0.5853	0.2269	-0.073
Mof_C 	C 	0.8473	0.5425	0.1902	-0.024
Mof_C 	C 	0.7415	0.5419	0.2631	-0.014
Mof_C 	C 	0.5511	0.8966	0.4055	0.258
Mof_C 	C 	0.5237	0.9496	0.4549	-0.026
Mof_C 	C 	0.4276	0.9257	0.4747	-0.035
Mof_C 	C 	0.5978	0.0243	0.4804	-0.038
Mof_C 	C 	0.2947	0.8922	0.9397	0.238
Mof_C 	C 	0.4034	0.9485	0.9698	-0.022
Mof_C 	C 	0.4116	0.0369	0.9679	-0.034
Mof_C 	C 	0.4906	0.9121	0.0016	-0.038
Mof_C 	C 	0.1811	0.6859	0.7858	0.315
Mof_C 	C 	0.186	0.5879	0.7783	-0.042
Mof_C 	C 	0.2423	0.5464	0.7395	-0.044
Mof_C 	C 	0.1425	0.5445	0.8139	-0.032
Mof_C 	C 	0.0406	0.6534	0.9557	0.26
Mof_C 	C 	0.0205	0.5747	0.9793	-0.034
Mof_C 	C 	0.0596	0.4975	0.9578	-0.033
Mof_C 	C 	0.9595	0.5746	0.0214	-0.037
Mof_C 	C 	0.8319	0.9132	0.911	0.347
Mof_C 	C 	0.7529	0.9585	0.8724	-0.068
Mof_C 	C 	0.7675	0.9547	0.8194	-0.002
Mof_C 	C 	0.7019	0.0005	0.7843	-0.048
Mof_C 	C 	0.6169	0.0498	0.8016	-0.024
Mof_C 	C 	0.5974	0.0511	0.854	-0.042
Mof_C 	C 	0.6654	0.0061	0.8898	-0.01
Mof_C 	C 	0.5471	0.0996	0.7634	0.277
Mof_C 	C 	0.8582	0.6737	0.7929	0.316
Mof_C 	C 	0.7836	0.59	0.772	-0.058
Mof_C 	C 	0.6846	0.5851	0.7303	-0.025
Mof_C 	C 	0.6158	0.5079	0.7116	-0.037
Mof_C 	C 	0.6425	0.435	0.7337	-0.035
Mof_C 	C 	0.7434	0.4417	0.7751	-0.041
Mof_C 	C 	0.8126	0.5181	0.7944	-0.016
Mof_C 	C 	0.5644	0.3542	0.7159	0.263
Mof_C 	C 	0.2413	0.323	0.7768	0.378
Mof_C 	C 	0.2179	0.4147	0.7731	-0.073
Mof_C 	C 	0.1527	0.4575	0.8098	-0.024
Mof_C 	C 	0.2585	0.4581	0.7369	-0.014
Mof_C 	C 	0.4489	0.1034	0.5945	0.258
Mof_C 	C 	0.4763	0.0504	0.5451	-0.026
Mof_C 	C 	0.5724	0.0743	0.5253	-0.035
Mof_C 	C 	0.4022	0.9757	0.5196	-0.038
Mof_O 	O 	0.9263	0.1026	0.0132	-0.285
Mof_O 	O 	0.781	0.0808	0.0963	-0.39
Mof_O 	O 	0.972	0.153	0.1967	-0.292
Mof_O 	O 	0.7247	0.1827	0.0493	-0.432
Mof_O 	O 	0.8125	0.2755	0.164	-0.463
Mof_O 	O 	0.7627	0.9116	0.2977	-0.306
Mof_O 	O 	0.76	0.7792	0.3795	-0.339
Mof_O 	O 	0.8302	0.2756	0.2543	-0.24
Mof_O 	O 	0.0221	0.2846	0.0381	-0.385
Mof_O 	O 	0.8763	0.3421	0.0702	-0.395
Mof_O 	O 	0.1147	0.1457	0.11	-0.476
Mof_O 	O 	0.1588	0.062	0.0382	-0.234
Mof_O 	O 	0.4367	0.9033	0.2843	-0.397
Mof_O 	O 	0.5288	0.8538	0.2194	-0.427
Mof_O 	O 	0.0631	0.3198	0.1636	-0.463
Mof_O 	O 	0.1602	0.2646	0.2334	-0.246
Mof_O 	O 	0.409	0.7104	0.2608	-0.414
Mof_O 	O 	0.5267	0.6531	0.3214	-0.376
Mof_O 	O 	0.694	0.7111	0.2534	-0.524
Mof_O 	O 	0.7971	0.7102	0.1882	-0.269
Mof_O 	O 	0.4943	0.8241	0.3855	-0.419
Mof_O 	O 	0.6301	0.926	0.3839	-0.4
Mof_O 	O 	0.0737	0.8974	0.9868	-0.285
Mof_O 	O 	0.219	0.9192	0.9037	-0.39
Mof_O 	O 	0.028	0.847	0.8033	-0.292
Mof_O 	O 	0.2753	0.8173	0.9507	-0.432
Mof_O 	O 	0.1875	0.7245	0.836	-0.463
Mof_O 	O 	0.2373	0.0884	0.7023	-0.306
Mof_O 	O 	0.24	0.2208	0.6205	-0.339
Mof_O 	O 	0.1698	0.7244	0.7457	-0.24
Mof_O 	O 	0.9779	0.7154	0.9619	-0.385
Mof_O 	O 	0.1237	0.6579	0.9298	-0.395
Mof_O 	O 	0.8853	0.8543	0.89	-0.476
Mof_O 	O 	0.8412	0.938	0.9618	-0.234
Mof_O 	O 	0.5633	0.0967	0.7157	-0.397
Mof_O 	O 	0.4712	0.1462	0.7806	-0.427
Mof_O 	O 	0.9369	0.6802	0.8364	-0.463
Mof_O 	O 	0.8398	0.7354	0.7666	-0.246
Mof_O 	O 	0.591	0.2896	0.7392	-0.414
Mof_O 	O 	0.4733	0.3469	0.6786	-0.376
Mof_O 	O 	0.306	0.2889	0.7466	-0.524
Mof_O 	O 	0.2029	0.2898	0.8118	-0.269
Mof_O 	O 	0.5057	0.1759	0.6145	-0.419
Mof_O 	O 	0.3699	0.074	0.6161	-0.4
Mof_H 	H 	0.2339	0.2535	0.3126	0.043
Mof_H 	H 	0.2265	0.2477	0.4663	0.06
Mof_H 	H 	0.3931	0.173	0.4457	0.033
Mof_H 	H 	0.5127	0.1001	0.3905	0.108
Mof_H 	H 	0.6387	0.05	0.3358	0.008
Mof_H 	H 	0.6317	0.0942	0.2522	0.113
Mof_H 	H 	0.3232	0.2389	0.1995	0.028
Mof_H 	H 	0.6438	0.1779	0.182	0.044
Mof_H 	H 	0.5571	0.2424	0.1051	0.048
Mof_H 	H 	0.3206	0.2698	0.0668	0.076
Mof_H 	H 	0.2516	0.2931	0.1129	0.074
Mof_H 	H 	0.2719	0.4031	0.035	0.062
Mof_H 	H 	0.3287	0.5423	0.0367	0.066
Mof_H 	H 	0.5373	0.5546	0.1829	0.058
Mof_H 	H 	0.4844	0.4137	0.1805	0.068
Mof_H 	H 	0.518	0.6638	0.0832	0.076
Mof_H 	H 	0.5268	0.6822	0.1462	0.075
Mof_H 	H 	0.3257	0.7214	0.1767	0.026
Mof_H 	H 	0.3457	0.7293	0.0234	0.054
Mof_H 	H 	0.173	0.7967	0.0403	0.021
Mof_H 	H 	0.05	0.8742	0.0928	0.122
Mof_H 	H 	0.931	0.9317	0.1478	-0.001
Mof_H 	H 	0.9344	0.8909	0.2317	0.123
Mof_H 	H 	0.2355	0.7384	0.2862	0.026
Mof_H 	H 	0.9172	0.8052	0.3014	0.023
Mof_H 	H 	0.9961	0.7373	0.3775	0.076
Mof_H 	H 	0.3021	0.6856	0.3743	0.08
Mof_H 	H 	0.2306	0.7092	0.4193	0.082
Mof_H 	H 	0.3008	0.5736	0.4482	0.058
Mof_H 	H 	0.2572	0.4353	0.447	0.068
Mof_H 	H 	0.0106	0.4241	0.3122	0.068
Mof_H 	H 	0.058	0.5621	0.3104	0.067
Mof_H 	H 	0.0395	0.2958	0.3461	0.099
Mof_H 	H 	0.0537	0.3148	0.4092	0.092
Mof_C 	C 	0.2536	0.2441	0.3481	0.086
Mof_C 	C 	0.2501	0.2399	0.4333	-0.011
Mof_C 	C 	0.3427	0.1987	0.4221	0.021
Mof_C 	C 	0.4278	0.1697	0.3375	0.164
Mof_C 	C 	0.5103	0.1154	0.3569	-0.184
Mof_C 	C 	0.586	0.0865	0.3247	0.114
Mof_C 	C 	0.5823	0.1128	0.275	-0.188
Mof_C 	C 	0.5003	0.1686	0.2611	0.172
Mof_C 	C 	0.3911	0.2321	0.1861	0.09
Mof_C 	C 	0.5704	0.1979	0.176	0.016
Mof_C 	C 	0.5223	0.2336	0.1337	-0.002
Mof_C 	C 	0.3286	0.2971	0.104	-0.11
Mof_C 	C 	0.3721	0.3921	0.108	0.057
Mof_C 	C 	0.3254	0.432	0.065	-0.068
Mof_C 	C 	0.3594	0.5185	0.0663	-0.066
Mof_C 	C 	0.4361	0.565	0.1108	0.055
Mof_C 	C 	0.4837	0.5256	0.153	-0.064
Mof_C 	C 	0.4509	0.4379	0.1515	-0.066
Mof_C 	C 	0.4747	0.6598	0.1116	-0.116
Mof_C 	C 	0.309	0.7309	0.1412	0.093
Mof_C 	C 	0.319	0.7359	0.0557	-0.017
Mof_C 	C 	0.2242	0.7732	0.0649	0.038
Mof_C 	C 	0.1331	0.8059	0.1478	0.169
Mof_C 	C 	0.0528	0.8613	0.1272	-0.198
Mof_C 	C 	0.9813	0.894	0.1593	0.129
Mof_C 	C 	0.9841	0.8707	0.2095	-0.195
Mof_C 	C 	0.065	0.8156	0.2255	0.178
Mof_C 	C 	0.1671	0.746	0.2991	0.086
Mof_C 	C 	0.9893	0.7836	0.3075	0.046
Mof_C 	C 	0.0335	0.7459	0.3497	-0.025
Mof_C 	C 	0.2244	0.681	0.3824	-0.122
Mof_C 	C 	0.1854	0.588	0.3799	0.057
Mof_C 	C 	0.2425	0.5451	0.42	-0.061
Mof_C 	C 	0.2152	0.4591	0.4195	-0.071
Mof_C 	C 	0.1291	0.4117	0.3795	0.07
Mof_C 	C 	0.0704	0.453	0.3396	-0.073
Mof_C 	C 	0.0983	0.5392	0.3387	-0.057
Mof_C 	C 	0.0942	0.3184	0.3799	-0.14
Mof_N 	N 	0.1971	0.2679	0.3864	-0.096
Mof_N 	N 	0.3466	0.203	0.3683	-0.137
Mof_N 	N 	0.4237	0.1973	0.2902	-0.152
Mof_N 	N 	0.4858	0.1973	0.2096	-0.136
Mof_N 	N 	0.4105	0.2549	0.1406	-0.106
Mof_N 	N 	0.3703	0.7089	0.1032	-0.103
Mof_N 	N 	0.2171	0.77	0.1184	-0.142
Mof_N 	N 	0.1375	0.7804	0.1958	-0.152
Mof_N 	N 	0.0726	0.7832	0.2756	-0.14
Mof_N 	N 	0.1428	0.7227	0.3444	-0.098
Mof_H 	H 	0.8484	0.4906	0.4252	0.057
Mof_H 	H 	0.1024	0.6262	0.5406	0.056
Mof_H 	H 	0.1516	0.5094	0.5748	0.057
Mof_H 	H 	0.8976	0.3738	0.4594	0.056
Mof_C 	C 	0.9304	0.6553	0.4598	0.243
Mof_C 	C 	0.9672	0.5747	0.48	-0.027
Mof_C 	C 	0.9091	0.4951	0.4557	-0.033
Mof_C 	C 	0.0598	0.5771	0.524	-0.04
Mof_C 	C 	0.0696	0.3447	0.5402	0.243
Mof_C 	C 	0.0328	0.4253	0.52	-0.027
Mof_C 	C 	0.0909	0.5049	0.5443	-0.033
Mof_C 	C 	0.9402	0.4229	0.476	-0.04
Mof_O 	O 	0.9862	0.7267	0.4831	-0.204
Mof_O 	O 	0.844	0.6471	0.4204	-0.209
Mof_O 	O 	0.0138	0.2733	0.5169	-0.204
Mof_O 	O 	0.156	0.3529	0.5796	-0.209
Mof_H 	H 	0.7661	0.7465	0.6874	0.043
Mof_H 	H 	0.7735	0.7523	0.5337	0.06
Mof_H 	H 	0.6069	0.827	0.5543	0.033
Mof_H 	H 	0.4873	0.8999	0.6095	0.108
Mof_H 	H 	0.3613	0.95	0.6642	0.008
Mof_H 	H 	0.3683	0.9058	0.7478	0.113
Mof_H 	H 	0.6768	0.7611	0.8005	0.028
Mof_H 	H 	0.3562	0.8221	0.818	0.044
Mof_H 	H 	0.4429	0.7576	0.8949	0.048
Mof_H 	H 	0.6794	0.7302	0.9332	0.076
Mof_H 	H 	0.7484	0.7069	0.8871	0.074
Mof_H 	H 	0.7281	0.5969	0.965	0.062
Mof_H 	H 	0.6713	0.4577	0.9633	0.066
Mof_H 	H 	0.4627	0.4454	0.8171	0.058
Mof_H 	H 	0.5156	0.5863	0.8195	0.068
Mof_H 	H 	0.482	0.3362	0.9168	0.076
Mof_H 	H 	0.4732	0.3178	0.8538	0.075
Mof_H 	H 	0.6743	0.2786	0.8233	0.026
Mof_H 	H 	0.6543	0.2707	0.9766	0.054
Mof_H 	H 	0.827	0.2033	0.9597	0.021
Mof_H 	H 	0.95	0.1258	0.9072	0.122
Mof_H 	H 	0.069	0.0683	0.8522	-0.001
Mof_H 	H 	0.0656	0.1091	0.7683	0.123
Mof_H 	H 	0.7645	0.2616	0.7138	0.026
Mof_H 	H 	0.0828	0.1948	0.6986	0.023
Mof_H 	H 	0.0039	0.2627	0.6225	0.076
Mof_H 	H 	0.6979	0.3144	0.6257	0.08
Mof_H 	H 	0.7694	0.2908	0.5807	0.082
Mof_H 	H 	0.6992	0.4264	0.5518	0.058
Mof_H 	H 	0.7428	0.5647	0.553	0.068
Mof_H 	H 	0.9894	0.5759	0.6878	0.068
Mof_H 	H 	0.942	0.4379	0.6896	0.067
Mof_H 	H 	0.9605	0.7042	0.6539	0.099
Mof_H 	H 	0.9463	0.6852	0.5908	0.092
Mof_C 	C 	0.7464	0.7559	0.6519	0.086
Mof_C 	C 	0.7499	0.7601	0.5667	-0.011
Mof_C 	C 	0.6573	0.8013	0.5779	0.021
Mof_C 	C 	0.5722	0.8303	0.6625	0.164
Mof_C 	C 	0.4897	0.8846	0.6431	-0.184
Mof_C 	C 	0.414	0.9135	0.6753	0.114
Mof_C 	C 	0.4177	0.8872	0.725	-0.188
Mof_C 	C 	0.4997	0.8314	0.7389	0.172
Mof_C 	C 	0.6089	0.7679	0.8139	0.09
Mof_C 	C 	0.4296	0.8021	0.824	0.016
Mof_C 	C 	0.4777	0.7664	0.8663	-0.002
Mof_C 	C 	0.6714	0.7029	0.896	-0.11
Mof_C 	C 	0.6279	0.6079	0.892	0.057
Mof_C 	C 	0.6746	0.568	0.935	-0.068
Mof_C 	C 	0.6406	0.4815	0.9337	-0.066
Mof_C 	C 	0.5639	0.435	0.8892	0.055
Mof_C 	C 	0.5163	0.4744	0.847	-0.064
Mof_C 	C 	0.5491	0.5621	0.8485	-0.066
Mof_C 	C 	0.5253	0.3402	0.8884	-0.116
Mof_C 	C 	0.691	0.2691	0.8588	0.093
Mof_C 	C 	0.681	0.2641	0.9443	-0.017
Mof_C 	C 	0.7758	0.2268	0.9351	0.038
Mof_C 	C 	0.8669	0.1941	0.8522	0.169
Mof_C 	C 	0.9472	0.1387	0.8728	-0.198
Mof_C 	C 	0.0187	0.106	0.8407	0.129
Mof_C 	C 	0.0159	0.1293	0.7905	-0.195
Mof_C 	C 	0.935	0.1844	0.7745	0.178
Mof_C 	C 	0.8329	0.254	0.7009	0.086
Mof_C 	C 	0.0107	0.2164	0.6925	0.046
Mof_C 	C 	0.9665	0.2541	0.6503	-0.025
Mof_C 	C 	0.7756	0.319	0.6176	-0.122
Mof_C 	C 	0.8146	0.412	0.6201	0.057
Mof_C 	C 	0.7575	0.4549	0.58	-0.061
Mof_C 	C 	0.7848	0.5409	0.5805	-0.071
Mof_C 	C 	0.8709	0.5883	0.6205	0.07
Mof_C 	C 	0.9296	0.547	0.6604	-0.073
Mof_C 	C 	0.9017	0.4608	0.6613	-0.057
Mof_C 	C 	0.9058	0.6816	0.6201	-0.14
Mof_N 	N 	0.8029	0.7321	0.6136	-0.096
Mof_N 	N 	0.6534	0.797	0.6317	-0.137
Mof_N 	N 	0.5763	0.8027	0.7098	-0.152
Mof_N 	N 	0.5142	0.8027	0.7904	-0.136
Mof_N 	N 	0.5895	0.7451	0.8594	-0.106
Mof_N 	N 	0.6297	0.2911	0.8968	-0.103
Mof_N 	N 	0.7829	0.23	0.8816	-0.142
Mof_N 	N 	0.8625	0.2196	0.8042	-0.152
Mof_N 	N 	0.9274	0.2168	0.7244	-0.14
Mof_N 	N 	0.8572	0.2773	0.6556	-0.098
_end
