data_functionalizedCrystal
_audit_creation_method	'EQeq! by Chris Wilmer'
_symmetry_space_group_name_H-M	'P1'
_symmetry_Int_Tables_number	1
_symmetry_cell_setting	triclinic
loop_
_symmetry_equiv_pos_as_xyz
  x,y,z
_cell_length_a	12.1951
_cell_length_b	12.078
_cell_length_c	14.6921
_cell_angle_alpha	90
_cell_angle_beta	93.436
_cell_angle_gamma	90
loop_
_atom_site_label
_atom_site_type_symbol
_atom_site_fract_x
_atom_site_fract_y
_atom_site_fract_z
_atom_site_charge
Mof_N 	N 	0.1566	0.3185	0.1228	-0.14
Mof_N 	N 	0.8524	0.6322	0.1002	-0.142
Mof_N 	N 	0.3841	0.3848	0.0236	-0.232
Mof_C 	C 	0.1069	0.3706	0.1703	-0.026
Mof_C 	C 	0.902	0.5795	0.1519	0.004
Mof_H 	H 	0.34727	0.46646	0.01331	0.056
Mof_H 	H 	0.42023	0.37859	0.09309	0.064
Mof_H 	H 	0.44777	0.37291	0.97559	0.091
Mof_N 	N 	0.6566	0.8185	0.1228	-0.137
Mof_N 	N 	0.3524	0.1322	0.1002	-0.141
Mof_N 	N 	0.8841	0.8848	0.0236	-0.232
Mof_C 	C 	0.6069	0.8706	0.1703	-0.016
Mof_C 	C 	0.402	0.0795	0.1519	-0.021
Mof_H 	H 	0.84727	0.96646	0.01331	0.063
Mof_H 	H 	0.92023	0.87859	0.09309	0.071
Mof_H 	H 	0.94777	0.87291	0.97559	0.098
Mof_N 	N 	0.8434	0.3185	0.3772	-0.138
Mof_N 	N 	0.1476	0.6322	0.3998	-0.137
Mof_N 	N 	0.6159	0.3848	0.4764	-0.216
Mof_C 	C 	0.8931	0.3706	0.3297	0.007
Mof_C 	C 	0.098	0.5795	0.3481	-0.022
Mof_H 	H 	0.65273	0.46646	0.48669	0.068
Mof_H 	H 	0.57977	0.37859	0.40691	0.066
Mof_H 	H 	0.55223	0.37291	0.52441	0.067
Mof_N 	N 	0.3434	0.8185	0.3772	-0.137
Mof_N 	N 	0.6476	0.1322	0.3998	-0.136
Mof_N 	N 	0.1159	0.8848	0.4764	-0.215
Mof_C 	C 	0.3931	0.8706	0.3297	-0.016
Mof_C 	C 	0.598	0.0795	0.3481	-0.012
Mof_H 	H 	0.15273	0.96646	0.48669	0.061
Mof_H 	H 	0.07977	0.87859	0.40691	0.059
Mof_H 	H 	0.05223	0.87291	0.52441	0.059
Mof_N 	N 	0.8434	0.6815	0.8772	-0.129
Mof_N 	N 	0.1476	0.3678	0.8998	-0.126
Mof_N 	N 	0.6159	0.6152	0.9764	-0.194
Mof_C 	C 	0.8931	0.6294	0.8297	0.014
Mof_C 	C 	0.098	0.4205	0.8481	-0.013
Mof_H 	H 	0.65273	0.53354	0.98669	0.078
Mof_H 	H 	0.57977	0.62141	0.90691	0.072
Mof_H 	H 	0.55223	0.62709	0.02441	0.045
Mof_N 	N 	0.3434	0.1815	0.8772	-0.128
Mof_N 	N 	0.6476	0.8678	0.8998	-0.124
Mof_N 	N 	0.1159	0.1152	0.9764	-0.194
Mof_C 	C 	0.3931	0.1294	0.8297	-0.01
Mof_C 	C 	0.598	0.9205	0.8481	-0.003
Mof_H 	H 	0.15273	0.03354	0.98669	0.071
Mof_H 	H 	0.07977	0.12141	0.90691	0.065
Mof_H 	H 	0.05223	0.12709	0.02441	0.037
Mof_N 	N 	0.1566	0.6815	0.6228	-0.137
Mof_N 	N 	0.8524	0.3678	0.6002	-0.137
Mof_N 	N 	0.3841	0.6152	0.5236	-0.216
Mof_C 	C 	0.1069	0.6294	0.6703	-0.018
Mof_C 	C 	0.902	0.4205	0.6519	0.011
Mof_H 	H 	0.34727	0.53354	0.51331	0.065
Mof_H 	H 	0.42023	0.62141	0.59309	0.068
Mof_H 	H 	0.44777	0.62709	0.47559	0.067
Mof_N 	N 	0.6566	0.1815	0.6228	-0.135
Mof_N 	N 	0.3524	0.8678	0.6002	-0.136
Mof_N 	N 	0.8841	0.1152	0.5236	-0.217
Mof_C 	C 	0.6069	0.1294	0.6703	-0.01
Mof_C 	C 	0.402	0.9205	0.6519	-0.011
Mof_H 	H 	0.84727	0.03354	0.51331	0.071
Mof_H 	H 	0.92023	0.12141	0.59309	0.074
Mof_H 	H 	0.94777	0.12709	0.47559	0.074
Mof_Cd	Cd	-3.28933e-18	0.47577	0.25	0.234
Mof_Cd	Cd	0.5	0.97577	0.25	0.264
Mof_Cd	Cd	-6.57866e-18	0.52423	0.75	0.241
Mof_Cd	Cd	0.5	0.02423	0.75	0.268
Mof_Cd	Cd	0.25	0.25	-0	0.331
Mof_Cd	Cd	0.75	0.25	0.5	0.369
Mof_Cd	Cd	0.75	0.75	-0	0.338
Mof_Cd	Cd	0.25	0.75	0.5	0.363
_end
