data_functionalizedCrystal
_audit_creation_method	'EQeq! by Chris Wilmer'
_symmetry_space_group_name_H-M	'P1'
_symmetry_Int_Tables_number	1
_symmetry_cell_setting	triclinic
loop_
_symmetry_equiv_pos_as_xyz
  x,y,z
_cell_length_a	11.0628
_cell_length_b	23.4983
_cell_length_c	23.4983
_cell_angle_alpha	120
_cell_angle_beta	90
_cell_angle_gamma	90
loop_
_atom_site_label
_atom_site_type_symbol
_atom_site_fract_x
_atom_site_fract_y
_atom_site_fract_z
_atom_site_charge
Mof_Co	Co	0.93491	0.09053	0.37634	1.149
Mof_Co	Co	0.02414	0.03902	0.23422	1.185
Mof_Co	Co	0.79435	0.12473	0.25729	1.201
Mof_Co	Co	0.60158	0.28581	0.90947	1.149
Mof_Co	Co	0.69081	0.1952	0.96098	1.189
Mof_Co	Co	0.46102	0.13256	0.87527	1.201
Mof_Co	Co	0.26824	0.62366	0.71419	1.149
Mof_Co	Co	0.35747	0.76578	0.8048	1.189
Mof_Co	Co	0.12768	0.74271	0.86744	1.2
Mof_Co	Co	0.43491	0.90947	0.62366	1.149
Mof_Co	Co	0.52414	0.96098	0.76578	1.189
Mof_Co	Co	0.29435	0.87527	0.74271	1.201
Mof_Co	Co	0.10158	0.71419	0.09053	1.147
Mof_Co	Co	0.19081	0.8048	0.03902	1.189
Mof_Co	Co	0.96102	0.86744	0.12473	1.203
Mof_Co	Co	0.76824	0.37634	0.28581	1.149
Mof_Co	Co	0.85747	0.23422	0.1952	1.19
Mof_Co	Co	0.62768	0.25729	0.13256	1.201
Mof_H 	H 	0.7193	0.9925	0.1372	-0.108
Mof_H 	H 	0.5643	0.0156	0.6045	-0.01
Mof_H 	H 	0.4301	0.0837	0.3063	0.05
Mof_H 	H 	0.2256	0.9916	0.1509	-0.094
Mof_H 	H 	0.258	0.0359	0.4272	0.032
Mof_H 	H 	0.6197	0.035	0.4233	0.04
Mof_H 	H 	0.8689	0.9405	0.306	-0.153
Mof_H 	H 	0.5652	0.06	0.5352	0.093
Mof_H 	H 	0.3076	0.8936	0.5009	-0.02
Mof_H 	H 	0.3008	0.942	0.4347	0.093
Mof_H 	H 	0.38597	0.1447	0.0075	-0.11
Mof_H 	H 	0.23097	0.5889	0.9844	-0.012
Mof_H 	H 	0.09677	0.2226	0.9163	0.051
Mof_H 	H 	0.89227	0.1593	0.0084	-0.091
Mof_H 	H 	0.92467	0.3913	0.9641	0.03
Mof_H 	H 	0.28637	0.3883	0.965	0.039
Mof_H 	H 	0.53557	0.3655	0.0595	-0.153
Mof_H 	H 	0.23187	0.4752	0.94	0.095
Mof_H 	H 	0.97427	0.6073	0.1064	-0.015
Mof_H 	H 	0.96747	0.4927	0.058	0.102
Mof_H 	H 	0.05263	0.8628	0.8553	-0.11
Mof_H 	H 	0.89763	0.3955	0.4111	-0.01
Mof_H 	H 	0.76343	0.6937	0.7774	0.051
Mof_H 	H 	0.55893	0.8491	0.8407	-0.093
Mof_H 	H 	0.59133	0.5728	0.6087	0.033
Mof_H 	H 	0.95303	0.5767	0.6117	0.041
Mof_H 	H 	0.20223	0.694	0.6345	-0.154
Mof_H 	H 	0.89853	0.4648	0.5248	0.095
Mof_H 	H 	0.64093	0.4991	0.3927	-0.02
Mof_H 	H 	0.63413	0.5653	0.5073	0.093
Mof_H 	H 	0.2193	0.0075	0.8628	-0.11
Mof_H 	H 	0.0643	0.9844	0.3955	-0.007
Mof_H 	H 	0.9301	0.9163	0.6937	0.05
Mof_H 	H 	0.7256	0.0084	0.8491	-0.092
Mof_H 	H 	0.758	0.9641	0.5728	0.033
Mof_H 	H 	0.1197	0.965	0.5767	0.041
Mof_H 	H 	0.3689	0.0595	0.694	-0.153
Mof_H 	H 	0.0652	0.94	0.4648	0.092
Mof_H 	H 	0.8076	0.1064	0.4991	-0.019
Mof_H 	H 	0.8008	0.058	0.5653	0.092
Mof_H 	H 	0.88597	0.8553	0.9925	-0.111
Mof_H 	H 	0.73097	0.4111	0.0156	-0.01
Mof_H 	H 	0.59677	0.7774	0.0837	0.051
Mof_H 	H 	0.39227	0.8407	0.9916	-0.093
Mof_H 	H 	0.42467	0.6087	0.0359	0.033
Mof_H 	H 	0.78637	0.6117	0.035	0.041
Mof_H 	H 	0.03557	0.6345	0.9405	-0.154
Mof_H 	H 	0.73187	0.5248	0.06	0.094
Mof_H 	H 	0.47427	0.3927	0.8936	-0.02
Mof_H 	H 	0.46747	0.5073	0.942	0.093
Mof_H 	H 	0.55263	0.1372	0.1447	-0.109
Mof_H 	H 	0.39763	0.6045	0.5889	-0.011
Mof_H 	H 	0.26343	0.3063	0.2226	0.051
Mof_H 	H 	0.05893	0.1509	0.1593	-0.091
Mof_H 	H 	0.09133	0.4272	0.3913	0.031
Mof_H 	H 	0.45303	0.4233	0.3883	0.04
Mof_H 	H 	0.70223	0.306	0.3655	-0.153
Mof_H 	H 	0.39853	0.5352	0.4752	0.094
Mof_H 	H 	0.14093	0.5009	0.6073	-0.021
Mof_H 	H 	0.13413	0.4347	0.4927	0.092
Mof_C 	C 	0.7932	0.9815	0.1479	0.512
Mof_C 	C 	0.6641	0.0792	0.3416	0.404
Mof_C 	C 	0.5114	0.9988	0.5691	0.102
Mof_C 	C 	0.4321	0.0713	0.3382	0.047
Mof_C 	C 	0.3256	0.0609	0.3618	-0.105
Mof_C 	C 	0.2043	0.0725	0.3401	0.374
Mof_C 	C 	0.1876	0.951	0.1335	0.458
Mof_C 	C 	0.3301	0.0401	0.4094	0.018
Mof_C 	C 	0.5464	0.0406	0.4074	0.014
Mof_C 	C 	0.5449	0.0631	0.3617	-0.106
Mof_C 	C 	0.9111	0.9424	0.2728	0.572
Mof_C 	C 	0.4376	0.0018	0.4746	0.137
Mof_C 	C 	0.4347	0.0263	0.4296	-0.066
Mof_C 	C 	0.5127	0.0258	0.5269	-0.182
Mof_C 	C 	0.3603	0.9277	0.5091	0.095
Mof_C 	C 	0.3588	0.956	0.4676	-0.183
Mof_C 	C 	0.45987	0.1664	0.0185	0.517
Mof_C 	C 	0.33077	0.2624	0.9208	0.403
Mof_C 	C 	0.17807	0.5703	0.0012	0.106
Mof_C 	C 	0.09877	0.2669	0.9287	0.04
Mof_C 	C 	0.99227	0.3009	0.9391	-0.1
Mof_C 	C 	0.87097	0.2676	0.9275	0.373
Mof_C 	C 	0.85427	0.1825	0.049	0.457
Mof_C 	C 	0.99677	0.3693	0.9599	0.027
Mof_C 	C 	0.21307	0.3668	0.9594	0.017
Mof_C 	C 	0.21157	0.2986	0.9369	-0.107
Mof_C 	C 	0.57777	0.3304	0.0576	0.573
Mof_C 	C 	0.10427	0.4728	0.9982	0.147
Mof_C 	C 	0.10137	0.4033	0.9737	-0.077
Mof_C 	C 	0.17937	0.5011	0.9742	-0.189
Mof_C 	C 	0.02697	0.5814	0.0723	0.091
Mof_C 	C 	0.02547	0.5116	0.044	-0.196
Mof_C 	C 	0.12653	0.8521	0.8336	0.516
Mof_C 	C 	0.99743	0.6584	0.7376	0.41
Mof_C 	C 	0.84473	0.4309	0.4297	0.105
Mof_C 	C 	0.76543	0.6618	0.7331	0.048
Mof_C 	C 	0.65893	0.6382	0.6991	-0.105
Mof_C 	C 	0.53763	0.6599	0.7324	0.374
Mof_C 	C 	0.52093	0.8665	0.8175	0.457
Mof_C 	C 	0.66343	0.5906	0.6307	0.019
Mof_C 	C 	0.87973	0.5926	0.6332	0.016
Mof_C 	C 	0.87823	0.6383	0.7014	-0.107
Mof_C 	C 	0.24443	0.7272	0.6696	0.573
Mof_C 	C 	0.77093	0.5254	0.5272	0.139
Mof_C 	C 	0.76803	0.5704	0.5967	-0.066
Mof_C 	C 	0.84603	0.4731	0.4989	-0.184
Mof_C 	C 	0.69363	0.4909	0.4186	0.095
Mof_C 	C 	0.69213	0.5324	0.4884	-0.183
Mof_C 	C 	0.2932	0.0185	0.8521	0.516
Mof_C 	C 	0.1641	0.9208	0.6584	0.404
Mof_C 	C 	0.0114	0.0012	0.4309	0.091
Mof_C 	C 	0.9321	0.9287	0.6618	0.051
Mof_C 	C 	0.8256	0.9391	0.6382	-0.105
Mof_C 	C 	0.7043	0.9275	0.6599	0.374
Mof_C 	C 	0.6876	0.049	0.8665	0.457
Mof_C 	C 	0.8301	0.9599	0.5906	0.016
Mof_C 	C 	0.0464	0.9594	0.5926	0.01
Mof_C 	C 	0.0449	0.9369	0.6383	-0.11
Mof_C 	C 	0.4111	0.0576	0.7272	0.573
Mof_C 	C 	0.9376	0.9982	0.5254	0.135
Mof_C 	C 	0.9347	0.9737	0.5704	-0.061
Mof_C 	C 	0.0127	0.9742	0.4731	-0.18
Mof_C 	C 	0.8603	0.0723	0.4909	0.093
Mof_C 	C 	0.8588	0.044	0.5324	-0.176
Mof_C 	C 	0.95987	0.8336	0.9815	0.523
Mof_C 	C 	0.83077	0.7376	0.0792	0.403
Mof_C 	C 	0.67807	0.4297	0.9988	0.102
Mof_C 	C 	0.59877	0.7331	0.0713	0.047
Mof_C 	C 	0.49227	0.6991	0.0609	-0.104
Mof_C 	C 	0.37097	0.7324	0.0725	0.374
Mof_C 	C 	0.35427	0.8175	0.951	0.457
Mof_C 	C 	0.49677	0.6307	0.0401	0.018
Mof_C 	C 	0.71307	0.6332	0.0406	0.014
Mof_C 	C 	0.71157	0.7014	0.0631	-0.106
Mof_C 	C 	0.07777	0.6696	0.9424	0.573
Mof_C 	C 	0.60427	0.5272	0.0018	0.138
Mof_C 	C 	0.60137	0.5967	0.0263	-0.066
Mof_C 	C 	0.67937	0.4989	0.0258	-0.183
Mof_C 	C 	0.52697	0.4186	0.9277	0.095
Mof_C 	C 	0.52547	0.4884	0.956	-0.183
Mof_C 	C 	0.62653	0.1479	0.1664	0.516
Mof_C 	C 	0.49743	0.3416	0.2624	0.403
Mof_C 	C 	0.34473	0.5691	0.5703	0.104
Mof_C 	C 	0.26543	0.3382	0.2669	0.046
Mof_C 	C 	0.15893	0.3618	0.3009	-0.103
Mof_C 	C 	0.03763	0.3401	0.2676	0.367
Mof_C 	C 	0.02093	0.1335	0.1825	0.446
Mof_C 	C 	0.16343	0.4094	0.3693	0.017
Mof_C 	C 	0.37973	0.4074	0.3668	0.014
Mof_C 	C 	0.37823	0.3617	0.2986	-0.106
Mof_C 	C 	0.74443	0.2728	0.3304	0.572
Mof_C 	C 	0.27093	0.4746	0.4728	0.138
Mof_C 	C 	0.26803	0.4296	0.4033	-0.066
Mof_C 	C 	0.34603	0.5269	0.5011	-0.184
Mof_C 	C 	0.19363	0.5091	0.5814	0.094
Mof_C 	C 	0.19213	0.4676	0.5116	-0.183
Mof_N 	N 	0.4368	0.95	0.5596	-0.237
Mof_N 	N 	0.10347	0.6096	0.05	-0.238
Mof_N 	N 	0.77013	0.4404	0.3904	-0.238
Mof_N 	N 	0.9368	0.05	0.4404	-0.232
Mof_N 	N 	0.60347	0.3904	0.95	-0.237
Mof_N 	N 	0.27013	0.5596	0.6096	-0.238
Mof_O 	O 	0.1228	0.09557	0.38493	-0.435
Mof_O 	O 	0.9399	0.12209	0.30873	-0.57
Mof_O 	O 	0.7527	0.0781	0.37297	-0.467
Mof_O 	O 	0.0859	0.95077	0.15712	-0.545
Mof_O 	O 	0.8511	0.02658	0.193	-0.573
Mof_O 	O 	0.2448	0.90237	0.08848	-0.412
Mof_O 	O 	0.1915	0.05795	0.28252	-0.407
Mof_O 	O 	0.825	0.92186	0.11492	-0.423
Mof_O 	O 	0.9087	0.89299	0.21898	-0.483
Mof_O 	O 	0.9632	0.99527	0.28872	-0.592
Mof_O 	O 	0.6618	0.0921	0.29604	-0.408
Mof_O 	O 	0.78947	0.28936	0.90443	-0.431
Mof_O 	O 	0.60657	0.18664	0.87791	-0.573
Mof_O 	O 	0.41937	0.29487	0.9219	-0.468
Mof_O 	O 	0.75257	0.20635	0.04923	-0.543
Mof_O 	O 	0.51777	0.16642	0.97342	-0.578
Mof_O 	O 	0.91147	0.18611	0.09763	-0.409
Mof_O 	O 	0.85817	0.22457	0.94205	-0.405
Mof_O 	O 	0.49167	0.19306	0.07814	-0.425
Mof_O 	O 	0.57537	0.32599	0.10701	-0.484
Mof_O 	O 	0.62987	0.29345	0.00473	-0.593
Mof_O 	O 	0.32847	0.20394	0.9079	-0.409
Mof_O 	O 	0.45613	0.61507	0.71064	-0.432
Mof_O 	O 	0.27323	0.69127	0.81336	-0.573
Mof_O 	O 	0.08603	0.62703	0.70513	-0.473
Mof_O 	O 	0.41923	0.84288	0.79365	-0.544
Mof_O 	O 	0.18443	0.807	0.83358	-0.578
Mof_O 	O 	0.57813	0.91152	0.81389	-0.411
Mof_O 	O 	0.52483	0.71748	0.77543	-0.406
Mof_O 	O 	0.15833	0.88508	0.80694	-0.425
Mof_O 	O 	0.24203	0.78102	0.67401	-0.485
Mof_O 	O 	0.29653	0.71128	0.70655	-0.593
Mof_O 	O 	0.99513	0.70396	0.79606	-0.408
Mof_O 	O 	0.6228	0.90443	0.61507	-0.432
Mof_O 	O 	0.4399	0.87791	0.69127	-0.573
Mof_O 	O 	0.2527	0.9219	0.62703	-0.468
Mof_O 	O 	0.5859	0.04923	0.84288	-0.543
Mof_O 	O 	0.3511	0.97342	0.807	-0.577
Mof_O 	O 	0.7448	0.09763	0.91152	-0.411
Mof_O 	O 	0.6915	0.94205	0.71748	-0.406
Mof_O 	O 	0.325	0.07814	0.88508	-0.425
Mof_O 	O 	0.4087	0.10701	0.78102	-0.484
Mof_O 	O 	0.4632	0.00473	0.71128	-0.593
Mof_O 	O 	0.1618	0.9079	0.70396	-0.409
Mof_O 	O 	0.28947	0.71064	0.09557	-0.432
Mof_O 	O 	0.10657	0.81336	0.12209	-0.575
Mof_O 	O 	0.91937	0.70513	0.0781	-0.465
Mof_O 	O 	0.25257	0.79365	0.95077	-0.544
Mof_O 	O 	0.01777	0.83358	0.02658	-0.583
Mof_O 	O 	0.41147	0.81389	0.90237	-0.411
Mof_O 	O 	0.35817	0.77543	0.05795	-0.406
Mof_O 	O 	0.99167	0.80694	0.92186	-0.424
Mof_O 	O 	0.07537	0.67401	0.89299	-0.486
Mof_O 	O 	0.12987	0.70655	0.99527	-0.594
Mof_O 	O 	0.82847	0.79606	0.0921	-0.407
Mof_O 	O 	0.95613	0.38493	0.28936	-0.426
Mof_O 	O 	0.77323	0.30873	0.18664	-0.572
Mof_O 	O 	0.58603	0.37297	0.29487	-0.468
Mof_O 	O 	0.91923	0.15712	0.20635	-0.536
Mof_O 	O 	0.68443	0.193	0.16642	-0.577
Mof_O 	O 	0.07813	0.08848	0.18611	-0.41
Mof_O 	O 	0.02483	0.28252	0.22457	-0.407
Mof_O 	O 	0.65833	0.11492	0.19306	-0.424
Mof_O 	O 	0.74203	0.21898	0.32599	-0.484
Mof_O 	O 	0.79653	0.28872	0.29345	-0.592
Mof_O 	O 	0.49513	0.29604	0.20394	-0.409
_end
