data_functionalizedCrystal
_audit_creation_method	'EQeq! by Chris Wilmer'
_symmetry_space_group_name_H-M	'P1'
_symmetry_Int_Tables_number	1
_symmetry_cell_setting	triclinic
loop_
_symmetry_equiv_pos_as_xyz
  x,y,z
_cell_length_a	12.0178
_cell_length_b	12.0178
_cell_length_c	19.425
_cell_angle_alpha	77.4186
_cell_angle_beta	77.4186
_cell_angle_gamma	77.6894
loop_
_atom_site_label
_atom_site_type_symbol
_atom_site_fract_x
_atom_site_fract_y
_atom_site_fract_z
_atom_site_charge
Mof_Mn	Mn	0.6757	0.01804	0.32219	0.738
Mof_Mn	Mn	0.98196	0.3243	0.17781	0.848
Mof_Mn	Mn	0.3243	0.98196	0.67781	0.86
Mof_Mn	Mn	0.01804	0.6757	0.82219	0.75
Mof_Mn	Mn	0.5	0	0.5	0.967
Mof_Mn	Mn	-0	0.5	-0	0.932
Mof_H 	H 	0.7895	0.3423	0.4055	0.029
Mof_H 	H 	0.6979	0.5143	0.4575	0.068
Mof_H 	H 	0.2985	0.7663	0.4375	0.031
Mof_H 	H 	0.204	0.6726	0.373	0.062
Mof_H 	H 	0.7517	0.7149	0.5895	0.034
Mof_H 	H 	0.8931	0.5357	0.6092	0.082
Mof_H 	H 	0.6577	0.2105	0.0945	0.021
Mof_H 	H 	0.4857	0.3021	0.0425	0.052
Mof_H 	H 	0.2337	0.7015	0.0625	0.018
Mof_H 	H 	0.3274	0.796	0.127	0.073
Mof_H 	H 	0.2851	0.2483	0.9105	0.012
Mof_H 	H 	0.4643	0.1069	0.8908	0.068
Mof_H 	H 	0.2105	0.6577	0.5945	0.021
Mof_H 	H 	0.3021	0.4857	0.5425	0.066
Mof_H 	H 	0.7015	0.2337	0.5625	0.027
Mof_H 	H 	0.796	0.3274	0.627	0.074
Mof_H 	H 	0.2483	0.2851	0.4105	0.034
Mof_H 	H 	0.1069	0.4643	0.3908	0.043
Mof_H 	H 	0.3423	0.7895	0.9055	0.029
Mof_H 	H 	0.5143	0.6979	0.9575	0.082
Mof_H 	H 	0.7663	0.2985	0.9375	0.042
Mof_H 	H 	0.6726	0.204	0.873	0.063
Mof_H 	H 	0.7149	0.7517	0.0895	0.056
Mof_H 	H 	0.5357	0.8931	0.1092	0.058
Mof_C 	C 	0.6594	0.179	0.3957	0.354
Mof_C 	C 	0.6333	0.2881	0.4267	-0.104
Mof_C 	C 	0.711	0.3582	0.4248	0.02
Mof_C 	C 	0.6584	0.457	0.4552	-0.086
Mof_C 	C 	0.5406	0.4592	0.4815	0.007
Mof_C 	C 	0.4622	0.9042	0.3658	0.412
Mof_C 	C 	0.3854	0.8412	0.3449	-0.121
Mof_C 	C 	0.3118	0.7756	0.3878	0.039
Mof_C 	C 	0.2561	0.7221	0.3504	-0.09
Mof_C 	C 	0.2865	0.7503	0.2784	0.005
Mof_C 	C 	0.7393	0.8379	0.4495	0.401
Mof_C 	C 	0.8117	0.7295	0.4812	-0.11
Mof_C 	C 	0.8039	0.6831	0.553	0.042
Mof_C 	C 	0.8869	0.5791	0.5638	-0.115
Mof_C 	C 	0.9554	0.5486	0.504	0.063
Mof_C 	C 	0.821	0.3406	0.1043	0.346
Mof_C 	C 	0.7119	0.3667	0.0733	-0.101
Mof_C 	C 	0.6418	0.289	0.0752	0.006
Mof_C 	C 	0.543	0.3416	0.0448	-0.074
Mof_C 	C 	0.5408	0.4594	0.0185	-0.032
Mof_C 	C 	0.0958	0.5378	0.1342	0.424
Mof_C 	C 	0.1588	0.6146	0.1551	-0.137
Mof_C 	C 	0.2244	0.6882	0.1122	0.051
Mof_C 	C 	0.2779	0.7439	0.1496	-0.105
Mof_C 	C 	0.2497	0.7135	0.2216	0.018
Mof_C 	C 	0.1621	0.2607	0.0505	0.416
Mof_C 	C 	0.2705	0.1883	0.0188	-0.156
Mof_C 	C 	0.3169	0.1961	0.947	0.084
Mof_C 	C 	0.4209	0.1131	0.9362	-0.127
Mof_C 	C 	0.4514	0.0446	0.996	0.039
Mof_C 	C 	0.3406	0.821	0.6043	0.351
Mof_C 	C 	0.3667	0.7119	0.5733	-0.103
Mof_C 	C 	0.289	0.6418	0.5752	0.02
Mof_C 	C 	0.3416	0.543	0.5448	-0.09
Mof_C 	C 	0.4594	0.5408	0.5185	0.007
Mof_C 	C 	0.5378	0.0958	0.6342	0.425
Mof_C 	C 	0.6146	0.1588	0.6551	-0.133
Mof_C 	C 	0.6882	0.2244	0.6122	0.049
Mof_C 	C 	0.7439	0.2779	0.6496	-0.101
Mof_C 	C 	0.7135	0.2497	0.7216	0.017
Mof_C 	C 	0.2607	0.1621	0.5505	0.404
Mof_C 	C 	0.1883	0.2705	0.5188	-0.11
Mof_C 	C 	0.1961	0.3169	0.447	0.006
Mof_C 	C 	0.1131	0.4209	0.4362	-0.062
Mof_C 	C 	0.0446	0.4514	0.496	-0.05
Mof_C 	C 	0.179	0.6594	0.8957	0.355
Mof_C 	C 	0.2881	0.6333	0.9267	-0.105
Mof_C 	C 	0.3582	0.711	0.9248	0.033
Mof_C 	C 	0.457	0.6584	0.9552	-0.102
Mof_C 	C 	0.4592	0.5406	0.9815	0.047
Mof_C 	C 	0.9042	0.4622	0.8658	0.408
Mof_C 	C 	0.8412	0.3854	0.8449	-0.115
Mof_C 	C 	0.7756	0.3118	0.8878	0.035
Mof_C 	C 	0.7221	0.2561	0.8504	-0.085
Mof_C 	C 	0.7503	0.2865	0.7784	0.004
Mof_C 	C 	0.8379	0.7393	0.9495	0.385
Mof_C 	C 	0.7295	0.8117	0.9812	-0.062
Mof_C 	C 	0.6831	0.8039	0.053	-0.038
Mof_C 	C 	0.5791	0.8869	0.0638	-0.049
Mof_C 	C 	0.5486	0.9554	0.004	-0.026
Mof_S 	S 	0.49809	0.33953	0.46582	0.035
Mof_S 	S 	0.38793	0.83895	0.25749	0.043
Mof_S 	S 	0.9174	0.64886	0.42996	0.046
Mof_S 	S 	0.66047	0.50191	0.03418	0.022
Mof_S 	S 	0.16105	0.61207	0.24251	0.017
Mof_S 	S 	0.35114	0.0826	0.07004	-0.027
Mof_S 	S 	0.50191	0.66047	0.53418	0.038
Mof_S 	S 	0.61207	0.16105	0.74251	0.015
Mof_S 	S 	0.0826	0.35114	0.57004	0.004
Mof_S 	S 	0.33953	0.49809	0.96582	0.051
Mof_S 	S 	0.83895	0.38793	0.75749	0.04
Mof_S 	S 	0.64886	0.9174	0.92996	0.076
Mof_O 	O 	0.5772	0.1228	0.4082	-0.422
Mof_O 	O 	0.7532	0.151	0.358	-0.363
Mof_O 	O 	0.5392	0.9396	0.3174	-0.374
Mof_O 	O 	0.4438	0.9194	0.4287	-0.368
Mof_O 	O 	0.7611	0.8675	0.3843	-0.358
Mof_O 	O 	0.662	0.886	0.4939	-0.359
Mof_O 	O 	0.8772	0.4228	0.0918	-0.405
Mof_O 	O 	0.849	0.2468	0.142	-0.364
Mof_O 	O 	0.0604	0.4608	0.1826	-0.431
Mof_O 	O 	0.0806	0.5562	0.0713	-0.407
Mof_O 	O 	0.1325	0.2389	0.1157	-0.419
Mof_O 	O 	0.114	0.338	0.0061	-0.411
Mof_O 	O 	0.4228	0.8772	0.5918	-0.402
Mof_O 	O 	0.2468	0.849	0.642	-0.361
Mof_O 	O 	0.4608	0.0604	0.6826	-0.435
Mof_O 	O 	0.5562	0.0806	0.5713	-0.403
Mof_O 	O 	0.2389	0.1325	0.6157	-0.418
Mof_O 	O 	0.338	0.114	0.5061	-0.4
Mof_O 	O 	0.1228	0.5772	0.9082	-0.41
Mof_O 	O 	0.151	0.7532	0.858	-0.359
Mof_O 	O 	0.9396	0.5392	0.8174	-0.375
Mof_O 	O 	0.9194	0.4438	0.9287	-0.351
Mof_O 	O 	0.8675	0.7611	0.8843	-0.354
Mof_O 	O 	0.886	0.662	0.9939	-0.335
_end
