data_functionalizedCrystal
_audit_creation_method	'EQeq! by Chris Wilmer'
_symmetry_space_group_name_H-M	'P1'
_symmetry_Int_Tables_number	1
_symmetry_cell_setting	triclinic
loop_
_symmetry_equiv_pos_as_xyz
  x,y,z
_cell_length_a	21.6461
_cell_length_b	11.5792
_cell_length_c	19.7016
_cell_angle_alpha	90
_cell_angle_beta	93.866
_cell_angle_gamma	90
loop_
_atom_site_label
_atom_site_type_symbol
_atom_site_fract_x
_atom_site_fract_y
_atom_site_fract_z
_atom_site_charge
Mof_Co	Co	0.15118	0.34623	0.68016	1.179
Mof_Co	Co	0.06187	0.1923	0.55659	1.142
Mof_N 	N 	0.383	0.2855	0.4528	-0.237
Mof_H 	H 	0.3958	0.2939	0.4958	0.127
Mof_N 	N 	0.7844	0.457	0.6365	-0.234
Mof_H 	H 	0.7542	0.4737	0.6627	0.126
Mof_N 	N 	0.1766	0.5242	0.6944	-0.223
Mof_N 	N 	0.1136	0.0572	0.5139	-0.247
Mof_O 	O 	0.19972	0.34	0.59496	-0.416
Mof_O 	O 	0.11704	0.3181	0.5223	-0.444
Mof_O 	O 	0.1418	0.1824	0.28841	-0.355
Mof_O 	O 	0.23155	0.2056	0.24488	-0.35
Mof_O 	O 	0.4152	0.29	0.3433	-0.145
Mof_O 	O 	0.80415	0.4013	0.5306	-0.236
Mof_O 	O 	0.00088	0.3072	0.5958	-0.442
Mof_O 	O 	0.06293	0.4036	0.67065	-0.446
Mof_O 	O 	0.9667	0.5792	0.8666	-0.399
Mof_O 	O 	0.87912	0.6719	0.84627	-0.487
Mof_C 	C 	0.1746	0.3207	0.5366	0.341
Mof_C 	C 	0.1983	0.2067	0.295	0.269
Mof_C 	C 	0.2159	0.2965	0.4794	-0.039
Mof_C 	C 	0.1892	0.264	0.4164	-0.026
Mof_H 	H 	0.1454	0.2584	0.409	0.058
Mof_C 	C 	0.2272	0.2399	0.364	-0.014
Mof_C 	C 	0.2911	0.2468	0.374	-0.116
Mof_H 	H 	0.3164	0.2304	0.3377	0.114
Mof_C 	C 	0.318	0.2779	0.4379	0.14
Mof_C 	C 	0.2801	0.302	0.4904	-0.101
Mof_H 	H 	0.2982	0.3224	0.534	0.083
Mof_C 	C 	0.4271	0.2812	0.4078	0.232
Mof_C 	C 	0.4934	0.2967	0.4358	-0.035
Mof_C 	C 	0.5389	0.2669	0.3916	-0.015
Mof_H 	H 	0.5272	0.2362	0.3479	0.058
Mof_C 	C 	0.6006	0.2821	0.4116	-0.069
Mof_H 	H 	0.6312	0.2585	0.3821	0.057
Mof_C 	C 	0.6191	0.3316	0.4743	0.023
Mof_C 	C 	0.6815	0.353	0.4956	-0.051
Mof_H 	H 	0.7127	0.3311	0.4665	0.059
Mof_C 	C 	0.6987	0.4042	0.5565	-0.046
Mof_C 	C 	0.6528	0.439	0.5979	-0.002
Mof_H 	H 	0.6642	0.4753	0.6402	0.034
Mof_C 	C 	0.5919	0.4219	0.5791	-0.081
Mof_H 	H 	0.5615	0.4485	0.6079	0.067
Mof_C 	C 	0.5727	0.3658	0.5177	0.031
Mof_C 	C 	0.5099	0.3476	0.4954	-0.061
Mof_H 	H 	0.4785	0.3723	0.5235	0.051
Mof_C 	C 	0.7674	0.4209	0.5734	0.224
Mof_C 	C 	0.8455	0.4713	0.6658	0.119
Mof_C 	C 	0.8975	0.421	0.6383	-0.078
Mof_H 	H 	0.893	0.3793	0.5967	0.09
Mof_C 	C 	0.9555	0.4326	0.6724	-0.065
Mof_C 	C 	0.9626	0.4931	0.7333	0.004
Mof_H 	H 	0.0026	0.5008	0.756	0.056
Mof_C 	C 	0.9117	0.5422	0.761	-0.059
Mof_C 	C 	0.8535	0.5329	0.7268	-0.084
Mof_H 	H 	0.8188	0.5688	0.7451	0.07
Mof_C 	C 	0.0109	0.3752	0.644	0.389
Mof_C 	C 	0.9198	0.602	0.8279	0.324
Mof_C 	C 	0.1976	0.5895	0.6464	0.085
Mof_H 	H 	0.2057	0.5533	0.6046	0.018
Mof_C 	C 	0.2088	0.7055	0.6521	-0.131
Mof_H 	H 	0.2204	0.7492	0.6141	0.078
Mof_C 	C 	0.2029	0.7571	0.714	0.06
Mof_H 	H 	0.2178	0.833	0.7234	0.011
Mof_C 	C 	0.1744	0.6939	0.7614	-0.13
Mof_H 	H 	0.1627	0.7296	0.8021	0.079
Mof_C 	C 	0.1626	0.5787	0.7502	0.084
Mof_H 	H 	0.1434	0.5361	0.7843	0.007
Mof_C 	C 	0.088	0.9934	0.4613	0.06
Mof_H 	H 	0.0472	0.0127	0.4441	-0.019
Mof_C 	C 	0.1173	0.9022	0.4311	-0.129
Mof_H 	H 	0.0973	0.8598	0.3946	0.081
Mof_C 	C 	0.176	0.8758	0.4558	0.055
Mof_H 	H 	0.1971	0.8121	0.4377	0.022
Mof_C 	C 	0.2051	0.9428	0.5078	-0.135
Mof_H 	H 	0.247	0.9305	0.5237	0.079
Mof_C 	C 	0.1689	0.0283	0.5349	0.095
Mof_H 	H 	0.1869	0.0696	0.5729	-0.004
Mof_O 	O 	0.4192	0.209	0.3569	-0.13
Mof_Co	Co	0.84882	0.84623	0.81984	1.179
Mof_Co	Co	0.93813	0.6923	0.94341	1.143
Mof_N 	N 	0.617	0.7855	0.0472	-0.236
Mof_H 	H 	0.6042	0.7939	0.0042	0.128
Mof_N 	N 	0.2156	0.957	0.8635	-0.234
Mof_H 	H 	0.2458	0.9737	0.8373	0.126
Mof_N 	N 	0.8234	0.0242	0.8056	-0.222
Mof_N 	N 	0.8864	0.5572	0.9861	-0.248
Mof_O 	O 	0.80028	0.84	0.90504	-0.416
Mof_O 	O 	0.88296	0.8181	0.9777	-0.444
Mof_O 	O 	0.8582	0.6824	0.21159	-0.355
Mof_O 	O 	0.76845	0.7056	0.25512	-0.35
Mof_O 	O 	0.5848	0.79	0.1567	-0.145
Mof_O 	O 	0.19585	0.9013	0.9694	-0.236
Mof_O 	O 	0.99912	0.8072	0.9042	-0.442
Mof_O 	O 	0.93707	0.9036	0.82935	-0.446
Mof_O 	O 	0.0333	0.0792	0.6334	-0.399
Mof_O 	O 	0.12088	0.1719	0.65373	-0.487
Mof_C 	C 	0.8254	0.8207	0.9634	0.34
Mof_C 	C 	0.8017	0.7067	0.205	0.269
Mof_C 	C 	0.7841	0.7965	0.0206	-0.039
Mof_C 	C 	0.8108	0.764	0.0836	-0.027
Mof_H 	H 	0.8546	0.7584	0.091	0.058
Mof_C 	C 	0.7728	0.7399	0.136	-0.014
Mof_C 	C 	0.7089	0.7468	0.126	-0.116
Mof_H 	H 	0.6836	0.7304	0.1623	0.114
Mof_C 	C 	0.682	0.7779	0.0621	0.14
Mof_C 	C 	0.7199	0.802	0.0096	-0.1
Mof_H 	H 	0.7018	0.8224	0.966	0.082
Mof_C 	C 	0.5729	0.7812	0.0922	0.233
Mof_C 	C 	0.5066	0.7967	0.0642	-0.037
Mof_C 	C 	0.4611	0.7669	0.1084	-0.013
Mof_H 	H 	0.4728	0.7362	0.1521	0.058
Mof_C 	C 	0.3994	0.7821	0.0884	-0.07
Mof_H 	H 	0.3688	0.7585	0.1179	0.057
Mof_C 	C 	0.3809	0.8316	0.0257	0.024
Mof_C 	C 	0.3185	0.853	0.0044	-0.052
Mof_H 	H 	0.2873	0.8311	0.0335	0.059
Mof_C 	C 	0.3013	0.9042	0.9435	-0.046
Mof_C 	C 	0.3472	0.939	0.9021	-0.003
Mof_H 	H 	0.3358	0.9753	0.8598	0.034
Mof_C 	C 	0.4081	0.9219	0.9209	-0.079
Mof_H 	H 	0.4385	0.9485	0.8921	0.066
Mof_C 	C 	0.4273	0.8658	0.9823	0.028
Mof_C 	C 	0.4901	0.8476	0.0046	-0.058
Mof_H 	H 	0.5215	0.8723	0.9765	0.049
Mof_C 	C 	0.2326	0.9209	0.9266	0.224
Mof_C 	C 	0.1545	0.9713	0.8342	0.118
Mof_C 	C 	0.1025	0.921	0.8617	-0.078
Mof_H 	H 	0.107	0.8793	0.9033	0.09
Mof_C 	C 	0.0445	0.9326	0.8276	-0.065
Mof_C 	C 	0.0374	0.9931	0.7667	0.004
Mof_H 	H 	0.9974	0.0008	0.744	0.056
Mof_C 	C 	0.0883	0.0422	0.739	-0.059
Mof_C 	C 	0.1465	0.0329	0.7732	-0.084
Mof_H 	H 	0.1812	0.0688	0.7549	0.07
Mof_C 	C 	0.9891	0.8752	0.856	0.388
Mof_C 	C 	0.0802	0.102	0.6721	0.324
Mof_C 	C 	0.8024	0.0895	0.8536	0.085
Mof_H 	H 	0.7943	0.0533	0.8954	0.018
Mof_C 	C 	0.7912	0.2055	0.8479	-0.131
Mof_H 	H 	0.7796	0.2492	0.8859	0.078
Mof_C 	C 	0.7971	0.2571	0.786	0.06
Mof_H 	H 	0.7822	0.333	0.7766	0.011
Mof_C 	C 	0.8256	0.1939	0.7386	-0.13
Mof_H 	H 	0.8373	0.2296	0.6979	0.079
Mof_C 	C 	0.8374	0.0787	0.7498	0.084
Mof_H 	H 	0.8566	0.0361	0.7157	0.007
Mof_C 	C 	0.912	0.4934	0.0387	0.06
Mof_H 	H 	0.9528	0.5127	0.0559	-0.019
Mof_C 	C 	0.8827	0.4022	0.0689	-0.129
Mof_H 	H 	0.9027	0.3598	0.1054	0.082
Mof_C 	C 	0.824	0.3758	0.0442	0.055
Mof_H 	H 	0.8029	0.3121	0.0623	0.022
Mof_C 	C 	0.7949	0.4428	0.9922	-0.136
Mof_H 	H 	0.753	0.4305	0.9763	0.079
Mof_C 	C 	0.8311	0.5283	0.9651	0.096
Mof_H 	H 	0.8131	0.5696	0.9271	-0.004
Mof_O 	O 	0.5808	0.709	0.1431	-0.13
Mof_Co	Co	0.84882	0.65377	0.31984	1.18
Mof_Co	Co	0.93813	0.8077	0.44341	1.143
Mof_N 	N 	0.617	0.7145	0.5472	-0.236
Mof_H 	H 	0.6042	0.7061	0.5042	0.128
Mof_N 	N 	0.2156	0.543	0.3635	-0.234
Mof_H 	H 	0.2458	0.5263	0.3373	0.126
Mof_N 	N 	0.8234	0.4758	0.3056	-0.223
Mof_N 	N 	0.8864	0.9428	0.4861	-0.247
Mof_O 	O 	0.80028	0.66	0.40504	-0.416
Mof_O 	O 	0.88296	0.6819	0.4777	-0.444
Mof_O 	O 	0.8582	0.8176	0.71159	-0.355
Mof_O 	O 	0.76845	0.7944	0.75512	-0.35
Mof_O 	O 	0.5848	0.71	0.6567	-0.145
Mof_O 	O 	0.19585	0.5987	0.4694	-0.236
Mof_O 	O 	0.99912	0.6928	0.4042	-0.442
Mof_O 	O 	0.93707	0.5964	0.32935	-0.446
Mof_O 	O 	0.0333	0.4208	0.1334	-0.399
Mof_O 	O 	0.12088	0.3281	0.15373	-0.487
Mof_C 	C 	0.8254	0.6793	0.4634	0.341
Mof_C 	C 	0.8017	0.7933	0.705	0.269
Mof_C 	C 	0.7841	0.7035	0.5206	-0.039
Mof_C 	C 	0.8108	0.736	0.5836	-0.026
Mof_H 	H 	0.8546	0.7416	0.591	0.058
Mof_C 	C 	0.7728	0.7601	0.636	-0.014
Mof_C 	C 	0.7089	0.7532	0.626	-0.116
Mof_H 	H 	0.6836	0.7696	0.6623	0.114
Mof_C 	C 	0.682	0.7221	0.5621	0.14
Mof_C 	C 	0.7199	0.698	0.5096	-0.101
Mof_H 	H 	0.7018	0.6776	0.466	0.083
Mof_C 	C 	0.5729	0.7188	0.5922	0.232
Mof_C 	C 	0.5066	0.7033	0.5642	-0.035
Mof_C 	C 	0.4611	0.7331	0.6084	-0.015
Mof_H 	H 	0.4728	0.7638	0.6521	0.058
Mof_C 	C 	0.3994	0.7179	0.5884	-0.069
Mof_H 	H 	0.3688	0.7415	0.6179	0.057
Mof_C 	C 	0.3809	0.6684	0.5257	0.023
Mof_C 	C 	0.3185	0.647	0.5044	-0.051
Mof_H 	H 	0.2873	0.6689	0.5335	0.059
Mof_C 	C 	0.3013	0.5958	0.4435	-0.046
Mof_C 	C 	0.3472	0.561	0.4021	-0.002
Mof_H 	H 	0.3358	0.5247	0.3598	0.034
Mof_C 	C 	0.4081	0.5781	0.4209	-0.081
Mof_H 	H 	0.4385	0.5515	0.3921	0.067
Mof_C 	C 	0.4273	0.6342	0.4823	0.031
Mof_C 	C 	0.4901	0.6524	0.5046	-0.061
Mof_H 	H 	0.5215	0.6277	0.4765	0.051
Mof_C 	C 	0.2326	0.5791	0.4266	0.224
Mof_C 	C 	0.1545	0.5287	0.3342	0.119
Mof_C 	C 	0.1025	0.579	0.3617	-0.078
Mof_H 	H 	0.107	0.6207	0.4033	0.09
Mof_C 	C 	0.0445	0.5674	0.3276	-0.065
Mof_C 	C 	0.0374	0.5069	0.2667	0.004
Mof_H 	H 	0.9974	0.4992	0.244	0.056
Mof_C 	C 	0.0883	0.4578	0.239	-0.059
Mof_C 	C 	0.1465	0.4671	0.2732	-0.084
Mof_H 	H 	0.1812	0.4312	0.2549	0.07
Mof_C 	C 	0.9891	0.6248	0.356	0.389
Mof_C 	C 	0.0802	0.398	0.1721	0.324
Mof_C 	C 	0.8024	0.4105	0.3536	0.085
Mof_H 	H 	0.7943	0.4467	0.3954	0.018
Mof_C 	C 	0.7912	0.2945	0.3479	-0.131
Mof_H 	H 	0.7796	0.2508	0.3859	0.078
Mof_C 	C 	0.7971	0.2429	0.286	0.06
Mof_H 	H 	0.7822	0.167	0.2766	0.011
Mof_C 	C 	0.8256	0.3061	0.2386	-0.13
Mof_H 	H 	0.8373	0.2704	0.1979	0.079
Mof_C 	C 	0.8374	0.4213	0.2498	0.084
Mof_H 	H 	0.8566	0.4639	0.2157	0.007
Mof_C 	C 	0.912	0.0066	0.5387	0.06
Mof_H 	H 	0.9528	0.9873	0.5559	-0.019
Mof_C 	C 	0.8827	0.0978	0.5689	-0.129
Mof_H 	H 	0.9027	0.1402	0.6054	0.081
Mof_C 	C 	0.824	0.1242	0.5442	0.055
Mof_H 	H 	0.8029	0.1879	0.5623	0.022
Mof_C 	C 	0.7949	0.0572	0.4922	-0.135
Mof_H 	H 	0.753	0.0695	0.4763	0.079
Mof_C 	C 	0.8311	0.9717	0.4651	0.095
Mof_H 	H 	0.8131	0.9304	0.4271	-0.004
Mof_O 	O 	0.5808	0.791	0.6431	-0.13
Mof_Co	Co	0.15118	0.15377	0.18016	1.179
Mof_Co	Co	0.06187	0.3077	0.05659	1.143
Mof_N 	N 	0.383	0.2145	0.9528	-0.236
Mof_H 	H 	0.3958	0.2061	0.9958	0.128
Mof_N 	N 	0.7844	0.043	0.1365	-0.234
Mof_H 	H 	0.7542	0.0263	0.1627	0.126
Mof_N 	N 	0.1766	0.9758	0.1944	-0.222
Mof_N 	N 	0.1136	0.4428	0.0139	-0.248
Mof_O 	O 	0.19972	0.16	0.09496	-0.416
Mof_O 	O 	0.11704	0.1819	0.0223	-0.444
Mof_O 	O 	0.1418	0.3176	0.78841	-0.355
Mof_O 	O 	0.23155	0.2944	0.74488	-0.35
Mof_O 	O 	0.4152	0.21	0.8433	-0.145
Mof_O 	O 	0.80415	0.0987	0.0306	-0.236
Mof_O 	O 	0.00088	0.1928	0.0958	-0.442
Mof_O 	O 	0.06293	0.0964	0.17065	-0.446
Mof_O 	O 	0.9667	0.9208	0.3666	-0.399
Mof_O 	O 	0.87912	0.8281	0.34627	-0.487
Mof_C 	C 	0.1746	0.1793	0.0366	0.34
Mof_C 	C 	0.1983	0.2933	0.795	0.269
Mof_C 	C 	0.2159	0.2035	0.9794	-0.039
Mof_C 	C 	0.1892	0.236	0.9164	-0.027
Mof_H 	H 	0.1454	0.2416	0.909	0.058
Mof_C 	C 	0.2272	0.2601	0.864	-0.014
Mof_C 	C 	0.2911	0.2532	0.874	-0.116
Mof_H 	H 	0.3164	0.2696	0.8377	0.114
Mof_C 	C 	0.318	0.2221	0.9379	0.14
Mof_C 	C 	0.2801	0.198	0.9904	-0.1
Mof_H 	H 	0.2982	0.1776	0.034	0.082
Mof_C 	C 	0.4271	0.2188	0.9078	0.233
Mof_C 	C 	0.4934	0.2033	0.9358	-0.037
Mof_C 	C 	0.5389	0.2331	0.8916	-0.013
Mof_H 	H 	0.5272	0.2638	0.8479	0.058
Mof_C 	C 	0.6006	0.2179	0.9116	-0.07
Mof_H 	H 	0.6312	0.2415	0.8821	0.057
Mof_C 	C 	0.6191	0.1684	0.9743	0.024
Mof_C 	C 	0.6815	0.147	0.9956	-0.052
Mof_H 	H 	0.7127	0.1689	0.9665	0.059
Mof_C 	C 	0.6987	0.0958	0.0565	-0.046
Mof_C 	C 	0.6528	0.061	0.0979	-0.003
Mof_H 	H 	0.6642	0.0247	0.1402	0.034
Mof_C 	C 	0.5919	0.0781	0.0791	-0.079
Mof_H 	H 	0.5615	0.0515	0.1079	0.066
Mof_C 	C 	0.5727	0.1342	0.0177	0.028
Mof_C 	C 	0.5099	0.1524	0.9954	-0.058
Mof_H 	H 	0.4785	0.1277	0.0235	0.049
Mof_C 	C 	0.7674	0.0791	0.0734	0.224
Mof_C 	C 	0.8455	0.0287	0.1658	0.118
Mof_C 	C 	0.8975	0.079	0.1383	-0.078
Mof_H 	H 	0.893	0.1207	0.0967	0.09
Mof_C 	C 	0.9555	0.0674	0.1724	-0.065
Mof_C 	C 	0.9626	0.0069	0.2333	0.004
Mof_H 	H 	0.0026	0.9992	0.256	0.056
Mof_C 	C 	0.9117	0.9578	0.261	-0.059
Mof_C 	C 	0.8535	0.9671	0.2268	-0.084
Mof_H 	H 	0.8188	0.9312	0.2451	0.07
Mof_C 	C 	0.0109	0.1248	0.144	0.388
Mof_C 	C 	0.9198	0.898	0.3279	0.324
Mof_C 	C 	0.1976	0.9105	0.1464	0.085
Mof_H 	H 	0.2057	0.9467	0.1046	0.018
Mof_C 	C 	0.2088	0.7945	0.1521	-0.131
Mof_H 	H 	0.2204	0.7508	0.1141	0.078
Mof_C 	C 	0.2029	0.7429	0.214	0.06
Mof_H 	H 	0.2178	0.667	0.2234	0.011
Mof_C 	C 	0.1744	0.8061	0.2614	-0.13
Mof_H 	H 	0.1627	0.7704	0.3021	0.079
Mof_C 	C 	0.1626	0.9213	0.2502	0.084
Mof_H 	H 	0.1434	0.9639	0.2843	0.007
Mof_C 	C 	0.088	0.5066	0.9613	0.06
Mof_H 	H 	0.0472	0.4873	0.9441	-0.019
Mof_C 	C 	0.1173	0.5978	0.9311	-0.129
Mof_H 	H 	0.0973	0.6402	0.8946	0.082
Mof_C 	C 	0.176	0.6242	0.9558	0.055
Mof_H 	H 	0.1971	0.6879	0.9377	0.022
Mof_C 	C 	0.2051	0.5572	0.0078	-0.136
Mof_H 	H 	0.247	0.5695	0.0237	0.079
Mof_C 	C 	0.1689	0.4717	0.0349	0.096
Mof_H 	H 	0.1869	0.4304	0.0729	-0.004
Mof_O 	O 	0.4192	0.291	0.8569	-0.13
_end
