data_functionalizedCrystal
_audit_creation_method	'EQeq! by Chris Wilmer'
_symmetry_space_group_name_H-M	'P1'
_symmetry_Int_Tables_number	1
_symmetry_cell_setting	triclinic
loop_
_symmetry_equiv_pos_as_xyz
  x,y,z
_cell_length_a	21.8729
_cell_length_b	21.8729
_cell_length_c	28.6804
_cell_angle_alpha	90
_cell_angle_beta	90
_cell_angle_gamma	90
loop_
_atom_site_label
_atom_site_type_symbol
_atom_site_fract_x
_atom_site_fract_y
_atom_site_fract_z
_atom_site_charge
Mof_O 	O 	0.4359	0.1549	0.451	-0.435
Mof_O 	O 	0.4358	0.2581	0.4511	-0.458
Mof_C 	C 	0.1276	0.0493	0.2464	0.121
Mof_C 	C 	0.1897	0.0299	0.2389	-0.146
Mof_H 	H 	0.2242	0.0557	0.2348	0.073
Mof_C 	C 	0.2	0.1618	0.2868	-0.169
Mof_H 	H 	0.1969	0.1341	0.3122	0.083
Mof_C 	C 	0.2455	0.2052	0.2863	0.077
Mof_C 	C 	0.2904	0.2062	0.3246	0.009
Mof_C 	C 	0.3131	0.1493	0.3421	-0.082
Mof_H 	H 	0.3005	0.1117	0.3284	0.051
Mof_C 	C 	0.3535	0.1496	0.3793	0.019
Mof_H 	H 	0.3664	0.1122	0.3929	0.036
Mof_C 	C 	0.3747	0.2045	0.3962	-0.097
Mof_C 	C 	0.3544	0.2623	0.3778	0.017
Mof_H 	H 	0.3693	0.2998	0.3901	0.033
Mof_C 	C 	0.3137	0.2615	0.3426	-0.082
Mof_H 	H 	0.3004	0.2991	0.3295	0.054
Mof_C 	C 	0.4192	0.2063	0.4366	0.371
Mof_O 	O 	0.5641	0.8451	0.451	-0.431
Mof_O 	O 	0.5642	0.7419	0.4511	-0.457
Mof_C 	C 	0.8724	0.9507	0.2464	0.116
Mof_C 	C 	0.8103	0.9701	0.2389	-0.033
Mof_H 	H 	0.7758	0.9443	0.2348	0.047
Mof_C 	C 	0.8	0.8382	0.2868	-0.166
Mof_H 	H 	0.8031	0.8659	0.3122	0.089
Mof_C 	C 	0.7545	0.7948	0.2863	0.08
Mof_C 	C 	0.7096	0.7938	0.3246	0.012
Mof_C 	C 	0.6869	0.8507	0.3421	-0.079
Mof_H 	H 	0.6995	0.8883	0.3284	0.059
Mof_C 	C 	0.6465	0.8504	0.3793	0.021
Mof_H 	H 	0.6336	0.8878	0.3929	0.045
Mof_C 	C 	0.6253	0.7955	0.3962	-0.094
Mof_C 	C 	0.6456	0.7377	0.3778	0.018
Mof_H 	H 	0.6307	0.7002	0.3901	0.035
Mof_C 	C 	0.6863	0.7385	0.3426	-0.08
Mof_H 	H 	0.6996	0.7009	0.3295	0.056
Mof_C 	C 	0.5808	0.7937	0.4366	0.371
Mof_O 	O 	0.8451	0.4359	0.951	-0.41
Mof_O 	O 	0.7419	0.4358	0.9511	-0.438
Mof_C 	C 	0.9507	0.1276	0.7464	0.117
Mof_C 	C 	0.9701	0.1897	0.7389	-0.031
Mof_H 	H 	0.9443	0.2242	0.7348	0.047
Mof_C 	C 	0.8382	0.2	0.7868	-0.169
Mof_H 	H 	0.8659	0.1969	0.8122	0.091
Mof_C 	C 	0.7948	0.2455	0.7863	0.083
Mof_C 	C 	0.7938	0.2904	0.8246	0.01
Mof_C 	C 	0.8507	0.3131	0.8421	-0.074
Mof_H 	H 	0.8883	0.3005	0.8284	0.059
Mof_C 	C 	0.8504	0.3535	0.8793	0.018
Mof_H 	H 	0.8878	0.3664	0.8929	0.051
Mof_C 	C 	0.7955	0.3747	0.8962	-0.086
Mof_C 	C 	0.7377	0.3544	0.8778	0.014
Mof_H 	H 	0.7002	0.3693	0.8901	0.04
Mof_C 	C 	0.7385	0.3137	0.8426	-0.075
Mof_H 	H 	0.7009	0.3004	0.8295	0.055
Mof_C 	C 	0.7937	0.4192	0.9366	0.366
Mof_O 	O 	0.1549	0.5641	0.951	-0.414
Mof_O 	O 	0.2581	0.5642	0.9511	-0.437
Mof_C 	C 	0.0493	0.8724	0.7464	0.123
Mof_C 	C 	0.0299	0.8103	0.7389	-0.139
Mof_H 	H 	0.0557	0.7758	0.7348	0.074
Mof_C 	C 	0.1618	0.8	0.7868	-0.169
Mof_H 	H 	0.1341	0.8031	0.8122	0.089
Mof_C 	C 	0.2052	0.7545	0.7863	0.082
Mof_C 	C 	0.2062	0.7096	0.8246	0.01
Mof_C 	C 	0.1493	0.6869	0.8421	-0.076
Mof_H 	H 	0.1117	0.6995	0.8284	0.053
Mof_C 	C 	0.1496	0.6465	0.8793	0.017
Mof_H 	H 	0.1122	0.6336	0.8929	0.044
Mof_C 	C 	0.2045	0.6253	0.8962	-0.088
Mof_C 	C 	0.2623	0.6456	0.8778	0.015
Mof_H 	H 	0.2998	0.6307	0.8901	0.04
Mof_C 	C 	0.2615	0.6863	0.8426	-0.076
Mof_H 	H 	0.2991	0.6996	0.8295	0.057
Mof_C 	C 	0.2063	0.5808	0.9366	0.367
Mof_O 	O 	0.5641	0.1549	0.549	-0.436
Mof_O 	O 	0.5642	0.2581	0.5489	-0.458
Mof_C 	C 	0.8724	0.0493	0.7536	0.124
Mof_C 	C 	0.8103	0.0299	0.7611	-0.139
Mof_H 	H 	0.7758	0.0557	0.7652	0.076
Mof_C 	C 	0.8	0.1618	0.7132	-0.168
Mof_H 	H 	0.8031	0.1341	0.6878	0.086
Mof_C 	C 	0.7545	0.2052	0.7137	0.08
Mof_C 	C 	0.7096	0.2062	0.6754	0.011
Mof_C 	C 	0.6869	0.1493	0.6579	-0.081
Mof_H 	H 	0.6995	0.1117	0.6716	0.053
Mof_C 	C 	0.6465	0.1496	0.6207	0.02
Mof_H 	H 	0.6336	0.1122	0.6071	0.038
Mof_C 	C 	0.6253	0.2045	0.6038	-0.096
Mof_C 	C 	0.6456	0.2623	0.6222	0.018
Mof_H 	H 	0.6307	0.2998	0.6099	0.035
Mof_C 	C 	0.6863	0.2615	0.6574	-0.08
Mof_H 	H 	0.6996	0.2991	0.6705	0.056
Mof_C 	C 	0.5808	0.2063	0.5634	0.371
Mof_O 	O 	0.4359	0.8451	0.549	-0.431
Mof_O 	O 	0.4358	0.7419	0.5489	-0.458
Mof_C 	C 	0.1276	0.9507	0.7536	0.117
Mof_C 	C 	0.1897	0.9701	0.7611	-0.03
Mof_H 	H 	0.2242	0.9443	0.7652	0.049
Mof_C 	C 	0.2	0.8382	0.7132	-0.169
Mof_H 	H 	0.1969	0.8659	0.6878	0.088
Mof_C 	C 	0.2455	0.7948	0.7137	0.081
Mof_C 	C 	0.2904	0.7938	0.6754	0.011
Mof_C 	C 	0.3131	0.8507	0.6579	-0.079
Mof_H 	H 	0.3005	0.8883	0.6716	0.059
Mof_C 	C 	0.3535	0.8504	0.6207	0.021
Mof_H 	H 	0.3664	0.8878	0.6071	0.045
Mof_C 	C 	0.3747	0.7955	0.6038	-0.094
Mof_C 	C 	0.3544	0.7377	0.6222	0.017
Mof_H 	H 	0.3693	0.7002	0.6099	0.034
Mof_C 	C 	0.3137	0.7385	0.6574	-0.08
Mof_H 	H 	0.3004	0.7009	0.6705	0.054
Mof_C 	C 	0.4192	0.7937	0.5634	0.37
Mof_O 	O 	0.1549	0.4359	0.049	-0.445
Mof_O 	O 	0.2581	0.4358	0.0489	-0.469
Mof_C 	C 	0.0493	0.1276	0.2536	0.121
Mof_C 	C 	0.0299	0.1897	0.2611	-0.145
Mof_H 	H 	0.0557	0.2242	0.2652	0.074
Mof_C 	C 	0.1618	0.2	0.2132	-0.169
Mof_H 	H 	0.1341	0.1969	0.1878	0.081
Mof_C 	C 	0.2052	0.2455	0.2137	0.076
Mof_C 	C 	0.2062	0.2904	0.1754	0.009
Mof_C 	C 	0.1493	0.3131	0.1579	-0.085
Mof_H 	H 	0.1117	0.3005	0.1716	0.051
Mof_C 	C 	0.1496	0.3535	0.1207	0.02
Mof_H 	H 	0.1122	0.3664	0.1071	0.033
Mof_C 	C 	0.2045	0.3747	0.1038	-0.102
Mof_C 	C 	0.2623	0.3544	0.1222	0.017
Mof_H 	H 	0.2998	0.3693	0.1099	0.029
Mof_C 	C 	0.2615	0.3137	0.1574	-0.084
Mof_H 	H 	0.2991	0.3004	0.1705	0.052
Mof_C 	C 	0.2063	0.4192	0.0634	0.37
Mof_O 	O 	0.8451	0.5641	0.049	-0.439
Mof_O 	O 	0.7419	0.5642	0.0489	-0.467
Mof_C 	C 	0.9507	0.8724	0.2536	0.116
Mof_C 	C 	0.9701	0.8103	0.2611	-0.033
Mof_H 	H 	0.9443	0.7758	0.2652	0.048
Mof_C 	C 	0.8382	0.8	0.2132	-0.166
Mof_H 	H 	0.8659	0.8031	0.1878	0.087
Mof_C 	C 	0.7948	0.7545	0.2137	0.079
Mof_C 	C 	0.7938	0.7096	0.1754	0.012
Mof_C 	C 	0.8507	0.6869	0.1579	-0.081
Mof_H 	H 	0.8883	0.6995	0.1716	0.059
Mof_C 	C 	0.8504	0.6465	0.1207	0.022
Mof_H 	H 	0.8878	0.6336	0.1071	0.042
Mof_C 	C 	0.7955	0.6253	0.1038	-0.098
Mof_C 	C 	0.7377	0.6456	0.1222	0.018
Mof_H 	H 	0.7002	0.6307	0.1099	0.031
Mof_C 	C 	0.7385	0.6863	0.1574	-0.083
Mof_H 	H 	0.7009	0.6996	0.1705	0.054
Mof_C 	C 	0.7937	0.5808	0.0634	0.37
Mof_O 	O 	0.5641	0.8451	0.549	-0.43
Mof_O 	O 	0.5642	0.7419	0.5489	-0.457
Mof_C 	C 	0.8724	0.9507	0.7536	0.118
Mof_C 	C 	0.8103	0.9701	0.7611	-0.031
Mof_H 	H 	0.7758	0.9443	0.7652	0.05
Mof_C 	C 	0.8	0.8382	0.7132	-0.167
Mof_H 	H 	0.8031	0.8659	0.6878	0.09
Mof_C 	C 	0.7545	0.7948	0.7137	0.082
Mof_C 	C 	0.7096	0.7938	0.6754	0.012
Mof_C 	C 	0.6869	0.8507	0.6579	-0.078
Mof_H 	H 	0.6995	0.8883	0.6716	0.06
Mof_C 	C 	0.6465	0.8504	0.6207	0.021
Mof_H 	H 	0.6336	0.8878	0.6071	0.046
Mof_C 	C 	0.6253	0.7955	0.6038	-0.093
Mof_C 	C 	0.6456	0.7377	0.6222	0.018
Mof_H 	H 	0.6307	0.7002	0.6099	0.035
Mof_C 	C 	0.6863	0.7385	0.6574	-0.079
Mof_H 	H 	0.6996	0.7009	0.6705	0.056
Mof_C 	C 	0.5808	0.7937	0.5634	0.371
Mof_O 	O 	0.4359	0.1549	0.549	-0.436
Mof_O 	O 	0.4358	0.2581	0.5489	-0.458
Mof_C 	C 	0.1276	0.0493	0.7536	0.123
Mof_C 	C 	0.1897	0.0299	0.7611	-0.144
Mof_H 	H 	0.2242	0.0557	0.7652	0.076
Mof_C 	C 	0.2	0.1618	0.7132	-0.17
Mof_H 	H 	0.1969	0.1341	0.6878	0.084
Mof_C 	C 	0.2455	0.2052	0.7137	0.079
Mof_C 	C 	0.2904	0.2062	0.6754	0.009
Mof_C 	C 	0.3131	0.1493	0.6579	-0.081
Mof_H 	H 	0.3005	0.1117	0.6716	0.052
Mof_C 	C 	0.3535	0.1496	0.6207	0.019
Mof_H 	H 	0.3664	0.1122	0.6071	0.037
Mof_C 	C 	0.3747	0.2045	0.6038	-0.097
Mof_C 	C 	0.3544	0.2623	0.6222	0.017
Mof_H 	H 	0.3693	0.2998	0.6099	0.034
Mof_C 	C 	0.3137	0.2615	0.6574	-0.081
Mof_H 	H 	0.3004	0.2991	0.6705	0.054
Mof_C 	C 	0.4192	0.2063	0.5634	0.371
Mof_O 	O 	0.1549	0.5641	0.049	-0.444
Mof_O 	O 	0.2581	0.5642	0.0489	-0.468
Mof_C 	C 	0.0493	0.8724	0.2536	0.122
Mof_C 	C 	0.0299	0.8103	0.2611	-0.14
Mof_H 	H 	0.0557	0.7758	0.2652	0.074
Mof_C 	C 	0.1618	0.8	0.2132	-0.167
Mof_H 	H 	0.1341	0.8031	0.1878	0.083
Mof_C 	C 	0.2052	0.7545	0.2137	0.077
Mof_C 	C 	0.2062	0.7096	0.1754	0.011
Mof_C 	C 	0.1493	0.6869	0.1579	-0.084
Mof_H 	H 	0.1117	0.6995	0.1716	0.052
Mof_C 	C 	0.1496	0.6465	0.1207	0.021
Mof_H 	H 	0.1122	0.6336	0.1071	0.034
Mof_C 	C 	0.2045	0.6253	0.1038	-0.101
Mof_C 	C 	0.2623	0.6456	0.1222	0.018
Mof_H 	H 	0.2998	0.6307	0.1099	0.03
Mof_C 	C 	0.2615	0.6863	0.1574	-0.084
Mof_H 	H 	0.2991	0.6996	0.1705	0.054
Mof_C 	C 	0.2063	0.5808	0.0634	0.371
Mof_O 	O 	0.8451	0.4359	0.049	-0.439
Mof_O 	O 	0.7419	0.4358	0.0489	-0.468
Mof_C 	C 	0.9507	0.1276	0.2536	0.115
Mof_C 	C 	0.9701	0.1897	0.2611	-0.031
Mof_H 	H 	0.9443	0.2242	0.2652	0.047
Mof_C 	C 	0.8382	0.2	0.2132	-0.167
Mof_H 	H 	0.8659	0.1969	0.1878	0.085
Mof_C 	C 	0.7948	0.2455	0.2137	0.078
Mof_C 	C 	0.7938	0.2904	0.1754	0.011
Mof_C 	C 	0.8507	0.3131	0.1579	-0.082
Mof_H 	H 	0.8883	0.3005	0.1716	0.059
Mof_C 	C 	0.8504	0.3535	0.1207	0.021
Mof_H 	H 	0.8878	0.3664	0.1071	0.041
Mof_C 	C 	0.7955	0.3747	0.1038	-0.099
Mof_C 	C 	0.7377	0.3544	0.1222	0.017
Mof_H 	H 	0.7002	0.3693	0.1099	0.03
Mof_C 	C 	0.7385	0.3137	0.1574	-0.083
Mof_H 	H 	0.7009	0.3004	0.1705	0.052
Mof_C 	C 	0.7937	0.4192	0.0634	0.37
Mof_O 	O 	0.4359	0.8451	0.451	-0.431
Mof_O 	O 	0.4358	0.7419	0.4511	-0.458
Mof_C 	C 	0.1276	0.9507	0.2464	0.115
Mof_C 	C 	0.1897	0.9701	0.2389	-0.031
Mof_H 	H 	0.2242	0.9443	0.2348	0.045
Mof_C 	C 	0.2	0.8382	0.2868	-0.167
Mof_H 	H 	0.1969	0.8659	0.3122	0.087
Mof_C 	C 	0.2455	0.7948	0.2863	0.079
Mof_C 	C 	0.2904	0.7938	0.3246	0.011
Mof_C 	C 	0.3131	0.8507	0.3421	-0.08
Mof_H 	H 	0.3005	0.8883	0.3284	0.059
Mof_C 	C 	0.3535	0.8504	0.3793	0.02
Mof_H 	H 	0.3664	0.8878	0.3929	0.044
Mof_C 	C 	0.3747	0.7955	0.3962	-0.094
Mof_C 	C 	0.3544	0.7377	0.3778	0.017
Mof_H 	H 	0.3693	0.7002	0.3901	0.034
Mof_C 	C 	0.3137	0.7385	0.3426	-0.081
Mof_H 	H 	0.3004	0.7009	0.3295	0.054
Mof_C 	C 	0.4192	0.7937	0.4366	0.37
Mof_O 	O 	0.5641	0.1549	0.451	-0.436
Mof_O 	O 	0.5642	0.2581	0.4511	-0.458
Mof_C 	C 	0.8724	0.0493	0.2464	0.122
Mof_C 	C 	0.8103	0.0299	0.2389	-0.141
Mof_H 	H 	0.7758	0.0557	0.2348	0.072
Mof_C 	C 	0.8	0.1618	0.2868	-0.167
Mof_H 	H 	0.8031	0.1341	0.3122	0.086
Mof_C 	C 	0.7545	0.2052	0.2863	0.078
Mof_C 	C 	0.7096	0.2062	0.3246	0.011
Mof_C 	C 	0.6869	0.1493	0.3421	-0.082
Mof_H 	H 	0.6995	0.1117	0.3284	0.052
Mof_C 	C 	0.6465	0.1496	0.3793	0.02
Mof_H 	H 	0.6336	0.1122	0.3929	0.037
Mof_C 	C 	0.6253	0.2045	0.3962	-0.097
Mof_C 	C 	0.6456	0.2623	0.3778	0.018
Mof_H 	H 	0.6307	0.2998	0.3901	0.034
Mof_C 	C 	0.6863	0.2615	0.3426	-0.081
Mof_H 	H 	0.6996	0.2991	0.3295	0.056
Mof_C 	C 	0.5808	0.2063	0.4366	0.371
Mof_O 	O 	0.8451	0.5641	0.951	-0.409
Mof_O 	O 	0.7419	0.5642	0.9511	-0.437
Mof_C 	C 	0.9507	0.8724	0.7464	0.118
Mof_C 	C 	0.9701	0.8103	0.7389	-0.033
Mof_H 	H 	0.9443	0.7758	0.7348	0.049
Mof_C 	C 	0.8382	0.8	0.7868	-0.167
Mof_H 	H 	0.8659	0.8031	0.8122	0.093
Mof_C 	C 	0.7948	0.7545	0.7863	0.084
Mof_C 	C 	0.7938	0.7096	0.8246	0.011
Mof_C 	C 	0.8507	0.6869	0.8421	-0.074
Mof_H 	H 	0.8883	0.6995	0.8284	0.06
Mof_C 	C 	0.8504	0.6465	0.8793	0.018
Mof_H 	H 	0.8878	0.6336	0.8929	0.051
Mof_C 	C 	0.7955	0.6253	0.8962	-0.085
Mof_C 	C 	0.7377	0.6456	0.8778	0.015
Mof_H 	H 	0.7002	0.6307	0.8901	0.041
Mof_C 	C 	0.7385	0.6863	0.8426	-0.075
Mof_H 	H 	0.7009	0.6996	0.8295	0.057
Mof_C 	C 	0.7937	0.5808	0.9366	0.366
Mof_O 	O 	0.1549	0.4359	0.951	-0.415
Mof_O 	O 	0.2581	0.4358	0.9511	-0.438
Mof_C 	C 	0.0493	0.1276	0.7464	0.122
Mof_C 	C 	0.0299	0.1897	0.7389	-0.144
Mof_H 	H 	0.0557	0.2242	0.7348	0.075
Mof_C 	C 	0.1618	0.2	0.7868	-0.171
Mof_H 	H 	0.1341	0.1969	0.8122	0.087
Mof_C 	C 	0.2052	0.2455	0.7863	0.081
Mof_C 	C 	0.2062	0.2904	0.8246	0.008
Mof_C 	C 	0.1493	0.3131	0.8421	-0.077
Mof_H 	H 	0.1117	0.3005	0.8284	0.052
Mof_C 	C 	0.1496	0.3535	0.8793	0.016
Mof_H 	H 	0.1122	0.3664	0.8929	0.043
Mof_C 	C 	0.2045	0.3747	0.8962	-0.089
Mof_C 	C 	0.2623	0.3544	0.8778	0.014
Mof_H 	H 	0.2998	0.3693	0.8901	0.039
Mof_C 	C 	0.2615	0.3137	0.8426	-0.077
Mof_H 	H 	0.2991	0.3004	0.8295	0.055
Mof_C 	C 	0.2063	0.4192	0.9366	0.366
Mof_Co	Co	4.90853e-33	0	0.25	1.089
Mof_Co	Co	-3.67165e-33	-7.35889e-33	0.75	1.091
Mof_Co	Co	0.5	0.13862	0.5	1.196
Mof_Co	Co	0.5	0.27216	0.5	1.138
Mof_O 	O 	0.5	0.0481	0.5	-0.711
Mof_Co	Co	0.5	0.86138	0.5	1.197
Mof_Co	Co	0.5	0.72784	0.5	1.138
Mof_O 	O 	0.5	0.9519	0.5	-0.685
Mof_Co	Co	0.86138	0.5	-0	1.182
Mof_Co	Co	0.72784	0.5	-0	1.119
Mof_O 	O 	0.9519	0.5	-0	-0.7
Mof_Co	Co	0.13862	0.5	-0	1.18
Mof_Co	Co	0.27216	0.5	-0	1.119
Mof_O 	O 	0.0481	0.5	-0	-0.726
Mof_N 	N 	0.0904	3.67945e-33	0.2487	-0.31
Mof_N 	N 	0.9096	3.67945e-33	0.2487	-0.3
Mof_N 	N 	-3.67804e-33	0.0904	0.7487	-0.309
Mof_N 	N 	1.83986e-32	0.9096	0.7487	-0.299
Mof_N 	N 	0.9096	-7.35889e-33	0.7513	-0.299
Mof_N 	N 	0.0904	-7.35889e-33	0.7513	-0.31
Mof_N 	N 	1.23547e-33	0.0904	0.2513	-0.311
Mof_N 	N 	1.23547e-33	0.9096	0.2513	-0.3
Mof_C 	C 	0.5	0	0.5	0.869
Mof_C 	C 	-0	0.5	-0	0.866
Mof_C 	C 	0.1089	0.1089	0.25	-0.176
Mof_C 	C 	0.1584	0.1584	0.25	0.128
Mof_C 	C 	0.2479	0.2479	0.25	-0.141
Mof_H 	H 	0.2786	0.2786	0.25	0.075
Mof_C 	C 	0.8911	0.8911	0.25	-0.156
Mof_C 	C 	0.8416	0.8416	0.25	0.127
Mof_C 	C 	0.7521	0.7521	0.25	-0.139
Mof_H 	H 	0.7214	0.7214	0.25	0.076
Mof_C 	C 	0.8911	0.1089	0.75	-0.165
Mof_C 	C 	0.8416	0.1584	0.75	0.13
Mof_C 	C 	0.7521	0.2479	0.75	-0.142
Mof_H 	H 	0.7214	0.2786	0.75	0.077
Mof_C 	C 	0.1089	0.8911	0.75	-0.165
Mof_C 	C 	0.1584	0.8416	0.75	0.13
Mof_C 	C 	0.2479	0.7521	0.75	-0.142
Mof_H 	H 	0.2786	0.7214	0.75	0.077
Mof_C 	C 	0.8911	0.8911	0.75	-0.156
Mof_C 	C 	0.8416	0.8416	0.75	0.129
Mof_C 	C 	0.7521	0.7521	0.75	-0.141
Mof_H 	H 	0.7214	0.7214	0.75	0.078
Mof_C 	C 	0.1089	0.1089	0.75	-0.175
Mof_C 	C 	0.1584	0.1584	0.75	0.131
Mof_C 	C 	0.2479	0.2479	0.75	-0.143
Mof_H 	H 	0.2786	0.2786	0.75	0.077
Mof_C 	C 	0.1089	0.8911	0.25	-0.166
Mof_C 	C 	0.1584	0.8416	0.25	0.127
Mof_C 	C 	0.2479	0.7521	0.25	-0.14
Mof_H 	H 	0.2786	0.7214	0.25	0.075
Mof_C 	C 	0.8911	0.1089	0.25	-0.166
Mof_C 	C 	0.8416	0.1584	0.25	0.127
Mof_C 	C 	0.7521	0.2479	0.25	-0.14
Mof_H 	H 	0.7214	0.2786	0.25	0.075
_end
