data_functionalizedCrystal
_audit_creation_method	'EQeq! by Chris Wilmer'
_symmetry_space_group_name_H-M	'P1'
_symmetry_Int_Tables_number	1
_symmetry_cell_setting	triclinic
loop_
_symmetry_equiv_pos_as_xyz
  x,y,z
_cell_length_a	9.2574
_cell_length_b	15.601
_cell_length_c	22.274
_cell_angle_alpha	102.19
_cell_angle_beta	101.58
_cell_angle_gamma	104.32
loop_
_atom_site_label
_atom_site_type_symbol
_atom_site_fract_x
_atom_site_fract_y
_atom_site_fract_z
_atom_site_charge
Mof_Tb	Tb	0.51525	0.86058	0.80217	2.238
Mof_Tb	Tb	0.03181	0.91189	0.85582	2.15
Mof_Tb	Tb	0.48475	0.13942	0.19783	2.238
Mof_Tb	Tb	0.96819	0.08811	0.14418	2.15
Mof_H 	H 	0.874	0.8331	0.6667	-0.014
Mof_H 	H 	0.7469	0.8341	0.5679	0.106
Mof_H 	H 	0.281	0.9178	0.628	0.044
Mof_H 	H 	0.6714	0.7832	0.4509	0.154
Mof_H 	H 	0.6659	0.8825	0.4803	0.156
Mof_H 	H 	0.681	0.8545	0.4106	0.154
Mof_H 	H 	0.9845	0.8489	0.3697	0.096
Mof_H 	H 	0.9694	0.9081	0.2813	0.015
Mof_H 	H 	0.4297	0.0117	0.3316	-0.004
Mof_H 	H 	0.4458	0.9574	0.4188	0.094
Mof_H 	H 	0.0049	0.6645	0.9073	0.006
Mof_H 	H 	0.9473	0.5231	0.9273	0.094
Mof_H 	H 	0.2803	0.4656	0.8507	0.096
Mof_H 	H 	0.3407	0.6096	0.8329	0.018
Mof_H 	H 	0.1218	0.2649	0.022	0.055
Mof_H 	H 	0.5017	0.1873	0.0305	-0.016
Mof_H 	H 	0.5885	0.2855	0.9743	0.108
Mof_H 	H 	0.6843	0.4533	0.9631	0.165
Mof_H 	H 	0.6214	0.3627	0.9069	0.159
Mof_H 	H 	0.6131	0.4565	0.8938	0.162
Mof_H 	H 	0.5942	0.5631	0.8011	0.076
Mof_H 	H 	0.9934	0.5612	0.7067	0.085
Mof_H 	H 	0.93	0.694	0.7335	0.011
Mof_H 	H 	0.9494	0.3922	0.6512	0.147
Mof_H 	H 	0.077	0.4408	0.7158	0.138
Mof_H 	H 	0.0033	0.3337	0.6953	0.151
Mof_H 	H 	0.2622	0.2729	0.7928	0.103
Mof_H 	H 	0.2288	0.1544	0.8401	0.009
Mof_H 	H 	0.5907	0.0934	0.7917	0.01
Mof_H 	H 	0.6252	0.2113	0.7426	0.093
Mof_H 	H 	0.126	0.1669	0.3333	-0.014
Mof_H 	H 	0.2531	0.1659	0.4321	0.106
Mof_H 	H 	0.719	0.0822	0.372	0.044
Mof_H 	H 	0.3286	0.2168	0.5491	0.154
Mof_H 	H 	0.3341	0.1175	0.5197	0.156
Mof_H 	H 	0.319	0.1455	0.5894	0.154
Mof_H 	H 	0.0155	0.1511	0.6303	0.096
Mof_H 	H 	0.0306	0.0919	0.7187	0.015
Mof_H 	H 	0.5703	0.9883	0.6684	-0.004
Mof_H 	H 	0.5542	0.0426	0.5812	0.094
Mof_H 	H 	0.9951	0.3355	0.0927	0.006
Mof_H 	H 	0.0527	0.4769	0.0727	0.094
Mof_H 	H 	0.7197	0.5344	0.1493	0.096
Mof_H 	H 	0.6593	0.3904	0.1671	0.018
Mof_H 	H 	0.8782	0.7351	0.978	0.055
Mof_H 	H 	0.4983	0.8127	0.9695	-0.016
Mof_H 	H 	0.4115	0.7145	0.0257	0.108
Mof_H 	H 	0.3157	0.5467	0.0369	0.165
Mof_H 	H 	0.3786	0.6373	0.0931	0.159
Mof_H 	H 	0.3869	0.5435	0.1062	0.162
Mof_H 	H 	0.4058	0.4369	0.1989	0.076
Mof_H 	H 	0.0066	0.4388	0.2933	0.085
Mof_H 	H 	0.07	0.306	0.2665	0.011
Mof_H 	H 	0.0506	0.6078	0.3488	0.147
Mof_H 	H 	0.923	0.5592	0.2842	0.138
Mof_H 	H 	0.9967	0.6663	0.3047	0.151
Mof_H 	H 	0.7378	0.7271	0.2072	0.103
Mof_H 	H 	0.7712	0.8456	0.1599	0.009
Mof_H 	H 	0.4093	0.9066	0.2083	0.01
Mof_H 	H 	0.3748	0.7887	0.2574	0.093
Mof_C 	C 	0.174	0.877	0.7232	0.528
Mof_C 	C 	0.0912	0.876	0.6576	-0.193
Mof_C 	C 	0.9303	0.8504	0.6387	0.131
Mof_C 	C 	0.8544	0.8505	0.5795	-0.195
Mof_C 	C 	0.9354	0.8747	0.5363	0.145
Mof_C 	C 	0.096	0.8978	0.556	0.066
Mof_C 	C 	0.1734	0.9001	0.6158	0.009
Mof_C 	C 	0.7097	0.847	0.4526	-0.314
Mof_C 	C 	0.2176	0.8954	0.4015	0.017
Mof_C 	C 	0.0739	0.8814	0.3616	-0.112
Mof_C 	C 	0.0652	0.917	0.3086	0.092
Mof_C 	C 	0.1975	0.9647	0.2971	-0.206
Mof_C 	C 	0.3398	0.9789	0.3392	0.101
Mof_C 	C 	0.3499	0.946	0.3907	-0.121
Mof_C 	C 	0.19	0.0056	0.2412	0.551
Mof_C 	C 	0.2119	0.7452	0.8552	0.548
Mof_C 	C 	0.1781	0.6508	0.8691	-0.194
Mof_C 	C 	0.061	0.6245	0.8963	0.096
Mof_C 	C 	0.0253	0.5401	0.9077	-0.117
Mof_C 	C 	0.1064	0.4807	0.8896	0.012
Mof_C 	C 	0.2251	0.506	0.8621	-0.103
Mof_C 	C 	0.2612	0.5916	0.8516	0.081
Mof_C 	C 	0.2714	0.3321	0.9816	0.083
Mof_C 	C 	0.2176	0.2705	0.0135	-0.018
Mof_C 	C 	0.3053	0.2163	0.0334	-0.183
Mof_C 	C 	0.4426	0.224	0.018	0.118
Mof_C 	C 	0.4958	0.2836	0.985	-0.189
Mof_C 	C 	0.4142	0.3413	0.967	0.128
Mof_C 	C 	0.2476	0.1539	0.0711	0.486
Mof_C 	C 	0.6062	0.4207	0.9238	-0.333
Mof_C 	C 	0.706	0.727	0.7873	0.404
Mof_C 	C 	0.7556	0.6435	0.7712	-0.121
Mof_C 	C 	0.6754	0.5634	0.7824	-0.05
Mof_C 	C 	0.7157	0.4855	0.7659	0.099
Mof_C 	C 	0.835	0.4813	0.7381	0.11
Mof_C 	C 	0.9134	0.5617	0.7261	-0.146
Mof_C 	C 	0.8758	0.6412	0.742	0.061
Mof_C 	C 	0.9837	0.3911	0.6945	-0.298
Mof_C 	C 	0.4448	0.2517	0.7627	0.006
Mof_C 	C 	0.3277	0.2364	0.7922	-0.116
Mof_C 	C 	0.3092	0.1663	0.8209	0.096
Mof_C 	C 	0.4084	0.113	0.8215	-0.194
Mof_C 	C 	0.5248	0.1297	0.7919	0.089
Mof_C 	C 	0.5456	0.1996	0.7622	-0.107
Mof_C 	C 	0.3897	0.036	0.8543	0.523
Mof_C 	C 	0.826	0.123	0.2768	0.528
Mof_C 	C 	0.9088	0.124	0.3424	-0.193
Mof_C 	C 	0.0697	0.1496	0.3613	0.131
Mof_C 	C 	0.1456	0.1495	0.4205	-0.195
Mof_C 	C 	0.0646	0.1253	0.4637	0.145
Mof_C 	C 	0.904	0.1022	0.444	0.066
Mof_C 	C 	0.8266	0.0999	0.3842	0.009
Mof_C 	C 	0.2903	0.153	0.5474	-0.314
Mof_C 	C 	0.7824	0.1046	0.5985	0.017
Mof_C 	C 	0.9261	0.1186	0.6384	-0.112
Mof_C 	C 	0.9348	0.083	0.6914	0.092
Mof_C 	C 	0.8025	0.0353	0.7029	-0.206
Mof_C 	C 	0.6602	0.0211	0.6608	0.101
Mof_C 	C 	0.6501	0.054	0.6093	-0.121
Mof_C 	C 	0.81	0.9944	0.7588	0.551
Mof_C 	C 	0.7881	0.2548	0.1448	0.548
Mof_C 	C 	0.8219	0.3492	0.1309	-0.194
Mof_C 	C 	0.939	0.3755	0.1037	0.096
Mof_C 	C 	0.9747	0.4599	0.0923	-0.117
Mof_C 	C 	0.8936	0.5193	0.1104	0.012
Mof_C 	C 	0.7749	0.494	0.1379	-0.103
Mof_C 	C 	0.7388	0.4084	0.1484	0.081
Mof_C 	C 	0.7286	0.6679	0.0184	0.083
Mof_C 	C 	0.7824	0.7295	0.9865	-0.018
Mof_C 	C 	0.6947	0.7837	0.9666	-0.183
Mof_C 	C 	0.5574	0.776	0.982	0.118
Mof_C 	C 	0.5042	0.7164	0.015	-0.189
Mof_C 	C 	0.5858	0.6587	0.033	0.128
Mof_C 	C 	0.7524	0.8461	0.9289	0.486
Mof_C 	C 	0.3938	0.5793	0.0762	-0.333
Mof_C 	C 	0.294	0.273	0.2127	0.404
Mof_C 	C 	0.2444	0.3565	0.2288	-0.121
Mof_C 	C 	0.3246	0.4366	0.2176	-0.05
Mof_C 	C 	0.2843	0.5145	0.2341	0.099
Mof_C 	C 	0.165	0.5187	0.2619	0.11
Mof_C 	C 	0.0866	0.4383	0.2739	-0.146
Mof_C 	C 	0.1242	0.3588	0.258	0.061
Mof_C 	C 	0.0163	0.6089	0.3055	-0.298
Mof_C 	C 	0.5552	0.7483	0.2373	0.006
Mof_C 	C 	0.6723	0.7636	0.2078	-0.116
Mof_C 	C 	0.6908	0.8337	0.1791	0.096
Mof_C 	C 	0.5916	0.887	0.1785	-0.194
Mof_C 	C 	0.4752	0.8703	0.2081	0.089
Mof_C 	C 	0.4544	0.8004	0.2378	-0.107
Mof_C 	C 	0.6103	0.964	0.1457	0.523
Mof_S 	S 	0.2267	0.84958	0.46759	0.426
Mof_S 	S 	0.0608	0.37061	0.90339	0.445
Mof_S 	S 	0.4759	0.34455	0.72947	0.429
Mof_S 	S 	0.7733	0.15042	0.53241	0.426
Mof_S 	S 	0.9392	0.62939	0.09661	0.445
Mof_S 	S 	0.5241	0.65545	0.27053	0.429
Mof_O 	O 	0.0938	0.8631	0.76197	-0.554
Mof_O 	O 	0.3164	0.8909	0.7351	-0.58
Mof_O 	O 	0.8743	0.8778	0.4762	-0.125
Mof_O 	O 	0.183	0.9263	0.5136	-0.229
Mof_O 	O 	0.1099	0.7638	0.4522	-0.244
Mof_O 	O 	0.3825	0.8563	0.4952	-0.256
Mof_O 	O 	0.0603	0.0019	0.21013	-0.559
Mof_O 	O 	0.3151	0.0379	0.2286	-0.623
Mof_O 	O 	0.1364	0.7953	0.87342	-0.579
Mof_O 	O 	0.3125	0.7637	0.8251	-0.577
Mof_O 	O 	0.9147	0.3507	0.9178	-0.254
Mof_O 	O 	0.0891	0.3056	0.8579	-0.26
Mof_O 	O 	0.1902	0.3943	0.9682	-0.251
Mof_O 	O 	0.4957	0.9996	0.86224	-0.54
Mof_O 	O 	0.2695	0.0165	0.8729	-0.586
Mof_O 	O 	0.1141	0.1466	0.078	-0.568
Mof_O 	O 	0.3369	0.1138	0.09629	-0.583
Mof_O 	O 	0.364	0.3916	0.737	-0.255
Mof_O 	O 	0.6352	0.4043	0.7793	-0.243
Mof_O 	O 	0.5778	0.7196	0.7997	-0.502
Mof_O 	O 	0.4546	0.4049	0.9356	-0.129
Mof_O 	O 	0.7952	0.8059	0.7896	-0.564
Mof_O 	O 	0.8662	0.4009	0.7264	-0.124
Mof_O 	O 	0.5029	0.3188	0.6687	-0.244
Mof_O 	O 	0.9062	0.1369	0.23803	-0.554
Mof_O 	O 	0.6836	0.1091	0.2649	-0.58
Mof_O 	O 	0.1257	0.1222	0.5238	-0.125
Mof_O 	O 	0.817	0.0737	0.4864	-0.229
Mof_O 	O 	0.8901	0.2362	0.5478	-0.244
Mof_O 	O 	0.6175	0.1437	0.5048	-0.256
Mof_O 	O 	0.9397	0.9981	0.78987	-0.559
Mof_O 	O 	0.6849	0.9621	0.7714	-0.623
Mof_O 	O 	0.8636	0.2047	0.12658	-0.579
Mof_O 	O 	0.6875	0.2363	0.1749	-0.577
Mof_O 	O 	0.0853	0.6493	0.0822	-0.254
Mof_O 	O 	0.9109	0.6944	0.1421	-0.26
Mof_O 	O 	0.8098	0.6057	0.0318	-0.251
Mof_O 	O 	0.5043	0.0004	0.13776	-0.54
Mof_O 	O 	0.7305	0.9835	0.1271	-0.586
Mof_O 	O 	0.8859	0.8534	0.922	-0.568
Mof_O 	O 	0.6631	0.8862	0.90371	-0.583
Mof_O 	O 	0.636	0.6084	0.263	-0.255
Mof_O 	O 	0.3648	0.5957	0.2207	-0.243
Mof_O 	O 	0.4222	0.2804	0.2003	-0.502
Mof_O 	O 	0.5454	0.5951	0.0644	-0.129
Mof_O 	O 	0.2048	0.1941	0.2104	-0.564
Mof_O 	O 	0.1338	0.5991	0.2736	-0.124
Mof_O 	O 	0.4971	0.6812	0.3313	-0.244
_end
