data_functionalizedCrystal
_audit_creation_method	'EQeq! by Chris Wilmer'
_symmetry_space_group_name_H-M	'P1'
_symmetry_Int_Tables_number	1
_symmetry_cell_setting	triclinic
loop_
_symmetry_equiv_pos_as_xyz
  x,y,z
_cell_length_a	15.9363
_cell_length_b	15.9363
_cell_length_c	21.338
_cell_angle_alpha	90
_cell_angle_beta	90
_cell_angle_gamma	120
loop_
_atom_site_label
_atom_site_type_symbol
_atom_site_fract_x
_atom_site_fract_y
_atom_site_fract_z
_atom_site_charge
Mof_Co	Co	0.55335	0.84637	0.91185	1.168
Mof_Co	Co	0.48288	0.96899	0.80607	1.17
Mof_Co	Co	0.29302	0.44665	0.57852	1.168
Mof_Co	Co	0.48611	0.51712	0.47274	1.17
Mof_Co	Co	0.15363	0.70698	0.24518	1.168
Mof_Co	Co	0.03101	0.51389	0.1394	1.17
Mof_Co	Co	0.44665	0.15363	0.41185	1.168
Mof_Co	Co	0.51712	0.03101	0.30607	1.17
Mof_Co	Co	0.70698	0.55335	0.07852	1.169
Mof_Co	Co	0.51389	0.48288	0.97274	1.169
Mof_Co	Co	0.84637	0.29302	0.74518	1.168
Mof_Co	Co	0.96899	0.48611	0.6394	1.17
Mof_H 	H 	0.4724	0.8062	0.445	0.041
Mof_H 	H 	0.4462	0.987	0.5638	0.054
Mof_H 	H 	0.4	0.7312	0.6244	0.057
Mof_H 	H 	0.3848	0.9327	0.671	0.066
Mof_H 	H 	0.3687	0.8324	0.694	0.075
Mof_H 	H 	0.5939	0.8945	0.6765	0.152
Mof_H 	H 	0.5021	0.8137	0.7109	0.137
Mof_H 	H 	0.5363	0.0647	0.6612	0.133
Mof_H 	H 	0.6084	0.0277	0.6449	0.156
Mof_H 	H 	0.7059	0.0522	0.9091	-0.011
Mof_H 	H 	0.8716	0.1543	0.9158	0.082
Mof_H 	H 	0.898	0.9214	0.9536	0.108
Mof_H 	H 	0.7365	0.8282	0.9438	-0.004
Mof_H 	H 	0.0445	0.0824	0.9525	0.062
Mof_H 	H 	0.0245	0.2343	0.9202	0.059
Mof_H 	H 	0.1705	0.3956	0.9313	0.093
Mof_H 	H 	0.3316	0.4927	0.9459	-0.01
Mof_H 	H 	0.3651	0.2672	0.9454	-0.005
Mof_H 	H 	0.2063	0.1658	0.9333	0.099
Mof_H 	H 	0.3338	0.5276	0.11167	0.042
Mof_H 	H 	0.5408	0.5538	0.23047	0.054
Mof_H 	H 	0.3312	0.6	0.29107	0.057
Mof_H 	H 	0.5479	0.6152	0.33767	0.066
Mof_H 	H 	0.4637	0.6313	0.36067	0.075
Mof_H 	H 	0.3006	0.4061	0.34317	0.152
Mof_H 	H 	0.3116	0.4979	0.37757	0.137
Mof_H 	H 	0.5284	0.4637	0.32787	0.133
Mof_H 	H 	0.4193	0.3916	0.31157	0.156
Mof_H 	H 	0.3463	0.2941	0.57577	-0.011
Mof_H 	H 	0.2827	0.1284	0.58247	0.084
Mof_H 	H 	0.0234	0.102	0.62027	0.111
Mof_H 	H 	0.0917	0.2635	0.61047	-0.003
Mof_H 	H 	0.0379	0.9555	0.61917	0.064
Mof_H 	H 	0.2098	0.9755	0.58687	0.058
Mof_H 	H 	0.2251	0.8295	0.59797	0.093
Mof_H 	H 	0.1611	0.6684	0.61257	-0.009
Mof_H 	H 	0.9021	0.6349	0.61207	-0.004
Mof_H 	H 	0.9595	0.7937	0.59997	0.097
Mof_H 	H 	0.1938	0.6662	0.77833	0.039
Mof_H 	H 	0.013	0.4592	0.89713	0.052
Mof_H 	H 	0.2688	0.6688	0.95773	0.053
Mof_H 	H 	0.0673	0.4521	0.00433	0.065
Mof_H 	H 	0.1676	0.5363	0.02733	0.073
Mof_H 	H 	0.1055	0.6994	0.00983	0.155
Mof_H 	H 	0.1863	0.6884	0.04423	0.138
Mof_H 	H 	0.9353	0.4716	0.99453	0.115
Mof_H 	H 	0.9723	0.5807	0.97823	0.139
Mof_H 	H 	0.9478	0.6537	0.24243	-0.011
Mof_H 	H 	0.8457	0.7173	0.24913	0.084
Mof_H 	H 	0.0786	0.9766	0.28693	0.111
Mof_H 	H 	0.1718	0.9083	0.27713	-0.003
Mof_H 	H 	0.9176	0.9621	0.28583	0.064
Mof_H 	H 	0.7657	0.7902	0.25353	0.058
Mof_H 	H 	0.6044	0.7749	0.26463	0.093
Mof_H 	H 	0.5073	0.8389	0.27923	-0.009
Mof_H 	H 	0.7328	0.0979	0.27873	-0.004
Mof_H 	H 	0.8342	0.0405	0.26663	0.097
Mof_H 	H 	0.5276	0.1938	0.945	0.042
Mof_H 	H 	0.5538	0.013	0.0638	0.052
Mof_H 	H 	0.6	0.2688	0.1244	0.057
Mof_H 	H 	0.6152	0.0673	0.171	0.065
Mof_H 	H 	0.6313	0.1676	0.194	0.074
Mof_H 	H 	0.4061	0.1055	0.1765	0.153
Mof_H 	H 	0.4979	0.1863	0.2109	0.137
Mof_H 	H 	0.4637	0.9353	0.1612	0.134
Mof_H 	H 	0.3916	0.9723	0.1449	0.157
Mof_H 	H 	0.2941	0.9478	0.4091	-0.011
Mof_H 	H 	0.1284	0.8457	0.4158	0.084
Mof_H 	H 	0.102	0.0786	0.4536	0.11
Mof_H 	H 	0.2635	0.1718	0.4438	-0.003
Mof_H 	H 	0.9555	0.9176	0.4525	0.064
Mof_H 	H 	0.9755	0.7657	0.4202	0.058
Mof_H 	H 	0.8295	0.6044	0.4313	0.094
Mof_H 	H 	0.6684	0.5073	0.4459	-0.009
Mof_H 	H 	0.6349	0.7328	0.4454	-0.005
Mof_H 	H 	0.7937	0.8342	0.4333	0.099
Mof_H 	H 	0.6662	0.4724	0.61167	0.04
Mof_H 	H 	0.4592	0.4462	0.73047	0.054
Mof_H 	H 	0.6688	0.4	0.79107	0.056
Mof_H 	H 	0.4521	0.3848	0.83767	0.066
Mof_H 	H 	0.5363	0.3687	0.86067	0.074
Mof_H 	H 	0.6994	0.5939	0.84317	0.152
Mof_H 	H 	0.6884	0.5021	0.87757	0.136
Mof_H 	H 	0.4716	0.5363	0.82787	0.133
Mof_H 	H 	0.5807	0.6084	0.81157	0.156
Mof_H 	H 	0.6537	0.7059	0.07577	-0.01
Mof_H 	H 	0.7173	0.8716	0.08247	0.086
Mof_H 	H 	0.9766	0.898	0.12027	0.112
Mof_H 	H 	0.9083	0.7365	0.11047	-0.003
Mof_H 	H 	0.9621	0.0445	0.11917	0.065
Mof_H 	H 	0.7902	0.0245	0.08687	0.058
Mof_H 	H 	0.7749	0.1705	0.09797	0.094
Mof_H 	H 	0.8389	0.3316	0.11257	-0.009
Mof_H 	H 	0.0979	0.3651	0.11207	-0.003
Mof_H 	H 	0.0405	0.2063	0.09997	0.097
Mof_H 	H 	0.8062	0.3338	0.27833	0.04
Mof_H 	H 	0.987	0.5408	0.39713	0.054
Mof_H 	H 	0.7312	0.3312	0.45773	0.057
Mof_H 	H 	0.9327	0.5479	0.50433	0.066
Mof_H 	H 	0.8324	0.4637	0.52733	0.075
Mof_H 	H 	0.8945	0.3006	0.50983	0.152
Mof_H 	H 	0.8137	0.3116	0.54423	0.137
Mof_H 	H 	0.0647	0.5284	0.49453	0.133
Mof_H 	H 	0.0277	0.4193	0.47823	0.156
Mof_H 	H 	0.0522	0.3463	0.74243	-0.011
Mof_H 	H 	0.1543	0.2827	0.74913	0.085
Mof_H 	H 	0.9214	0.0234	0.78693	0.111
Mof_H 	H 	0.8282	0.0917	0.77713	-0.003
Mof_H 	H 	0.0824	0.0379	0.78583	0.065
Mof_H 	H 	0.2343	0.2098	0.75353	0.058
Mof_H 	H 	0.3956	0.2251	0.76463	0.093
Mof_H 	H 	0.4927	0.1611	0.77923	-0.009
Mof_H 	H 	0.2672	0.9021	0.77873	-0.004
Mof_H 	H 	0.1658	0.9595	0.76663	0.097
Mof_C 	C 	0.4316	0.7523	0.5322	-0.082
Mof_C 	C 	0.4571	0.8195	0.4845	0.021
Mof_C 	C 	0.46	0.9068	0.4954	-0.086
Mof_C 	C 	0.4435	0.9282	0.5563	-0.058
Mof_C 	C 	0.4236	0.8651	0.6049	0.057
Mof_C 	C 	0.4159	0.7759	0.5921	-0.055
Mof_C 	C 	0.4133	0.8913	0.6719	-0.161
Mof_C 	C 	0.552	0.8815	0.7125	-0.347
Mof_C 	C 	0.6117	0.8992	0.7723	0.401
Mof_C 	C 	0.5731	0.0369	0.6788	-0.354
Mof_C 	C 	0.645	0.1067	0.7272	0.423
Mof_C 	C 	0.4205	0.6528	0.5244	0.376
Mof_C 	C 	0.4786	0.9798	0.4441	0.389
Mof_C 	C 	0.7453	0.026	0.9177	0.098
Mof_C 	C 	0.8448	0.088	0.9222	-0.17
Mof_C 	C 	0.9044	0.0488	0.9367	0.126
Mof_C 	C 	0.8608	0.9498	0.9444	-0.189
Mof_C 	C 	0.7641	0.8947	0.9385	0.111
Mof_C 	C 	0.0095	0.1123	0.9411	-0.087
Mof_C 	C 	0.0595	0.2042	0.9313	-0.09
Mof_C 	C 	0.1651	0.2675	0.9354	0.129
Mof_C 	C 	0.209	0.3674	0.9362	-0.188
Mof_C 	C 	0.306	0.4261	0.9438	0.106
Mof_C 	C 	0.3244	0.2933	0.9438	0.109
Mof_C 	C 	0.2295	0.232	0.937	-0.188
Mof_C 	C 	0.3207	0.5684	0.19887	-0.081
Mof_C 	C 	0.3624	0.5429	0.15117	0.021
Mof_C 	C 	0.4468	0.54	0.16207	-0.084
Mof_C 	C 	0.4847	0.5565	0.22297	-0.058
Mof_C 	C 	0.4415	0.5764	0.27157	0.057
Mof_C 	C 	0.36	0.5841	0.25877	-0.056
Mof_C 	C 	0.478	0.5867	0.33857	-0.161
Mof_C 	C 	0.3295	0.448	0.37917	-0.347
Mof_C 	C 	0.2875	0.3883	0.43897	0.401
Mof_C 	C 	0.4638	0.4269	0.34547	-0.355
Mof_C 	C 	0.4617	0.355	0.39387	0.423
Mof_C 	C 	0.2323	0.5795	0.19107	0.376
Mof_C 	C 	0.5012	0.5214	0.11077	0.389
Mof_C 	C 	0.2807	0.2547	0.58437	0.099
Mof_C 	C 	0.2432	0.1552	0.58887	-0.171
Mof_C 	C 	0.1444	0.0956	0.60337	0.13
Mof_C 	C 	0.089	0.1392	0.61107	-0.19
Mof_C 	C 	0.1306	0.2359	0.60517	0.113
Mof_C 	C 	0.1028	0.9905	0.60777	-0.092
Mof_C 	C 	0.1447	0.9405	0.59797	-0.085
Mof_C 	C 	0.1024	0.8349	0.60207	0.126
Mof_C 	C 	0.1584	0.791	0.60287	-0.185
Mof_C 	C 	0.1201	0.694	0.61047	0.105
Mof_C 	C 	0.9689	0.6756	0.61047	0.105
Mof_C 	C 	0.0025	0.7705	0.60367	-0.182
Mof_C 	C 	0.2477	0.6793	0.86553	-0.086
Mof_C 	C 	0.1805	0.6376	0.81783	0.025
Mof_C 	C 	0.0932	0.5532	0.82873	-0.089
Mof_C 	C 	0.0718	0.5153	0.88963	-0.051
Mof_C 	C 	0.1349	0.5585	0.93823	0.046
Mof_C 	C 	0.2241	0.64	0.92543	-0.05
Mof_C 	C 	0.1087	0.522	0.00523	-0.149
Mof_C 	C 	0.1185	0.6705	0.04583	-0.347
Mof_C 	C 	0.1008	0.7125	0.10563	0.401
Mof_C 	C 	0.9631	0.5362	0.01213	-0.315
Mof_C 	C 	0.8933	0.5383	0.06053	0.413
Mof_C 	C 	0.3472	0.7677	0.85773	0.377
Mof_C 	C 	0.0202	0.4988	0.77743	0.392
Mof_C 	C 	0.974	0.7193	0.25103	0.1
Mof_C 	C 	0.912	0.7568	0.25553	-0.172
Mof_C 	C 	0.9512	0.8556	0.27003	0.13
Mof_C 	C 	0.0502	0.911	0.27773	-0.19
Mof_C 	C 	0.1053	0.8694	0.27183	0.113
Mof_C 	C 	0.8877	0.8972	0.27443	-0.092
Mof_C 	C 	0.7958	0.8553	0.26463	-0.086
Mof_C 	C 	0.7325	0.8976	0.26873	0.126
Mof_C 	C 	0.6326	0.8416	0.26953	-0.185
Mof_C 	C 	0.5739	0.8799	0.27713	0.106
Mof_C 	C 	0.7067	0.0311	0.27713	0.106
Mof_C 	C 	0.768	0.9975	0.27033	-0.183
Mof_C 	C 	0.5684	0.2477	0.0322	-0.076
Mof_C 	C 	0.5429	0.1805	0.9845	0.015
Mof_C 	C 	0.54	0.0932	0.9954	-0.093
Mof_C 	C 	0.5565	0.0718	0.0563	-0.048
Mof_C 	C 	0.5764	0.1349	0.1049	0.054
Mof_C 	C 	0.5841	0.2241	0.0921	-0.055
Mof_C 	C 	0.5867	0.1087	0.1719	-0.159
Mof_C 	C 	0.448	0.1185	0.2125	-0.347
Mof_C 	C 	0.3883	0.1008	0.2723	0.401
Mof_C 	C 	0.4269	0.9631	0.1788	-0.355
Mof_C 	C 	0.355	0.8933	0.2272	0.424
Mof_C 	C 	0.5795	0.3472	0.0244	0.383
Mof_C 	C 	0.5214	0.0202	0.9441	0.392
Mof_C 	C 	0.2547	0.974	0.4177	0.099
Mof_C 	C 	0.1552	0.912	0.4222	-0.171
Mof_C 	C 	0.0956	0.9512	0.4367	0.13
Mof_C 	C 	0.1392	0.0502	0.4444	-0.19
Mof_C 	C 	0.2359	0.1053	0.4385	0.113
Mof_C 	C 	0.9905	0.8877	0.4411	-0.091
Mof_C 	C 	0.9405	0.7958	0.4313	-0.087
Mof_C 	C 	0.8349	0.7325	0.4354	0.128
Mof_C 	C 	0.791	0.6326	0.4362	-0.186
Mof_C 	C 	0.694	0.5739	0.4438	0.107
Mof_C 	C 	0.6756	0.7067	0.4438	0.109
Mof_C 	C 	0.7705	0.768	0.437	-0.187
Mof_C 	C 	0.6793	0.4316	0.69887	-0.082
Mof_C 	C 	0.6376	0.4571	0.65117	0.021
Mof_C 	C 	0.5532	0.46	0.66207	-0.086
Mof_C 	C 	0.5153	0.4435	0.72297	-0.057
Mof_C 	C 	0.5585	0.4236	0.77157	0.057
Mof_C 	C 	0.64	0.4159	0.75877	-0.055
Mof_C 	C 	0.522	0.4133	0.83857	-0.161
Mof_C 	C 	0.6705	0.552	0.87917	-0.347
Mof_C 	C 	0.7125	0.6117	0.93897	0.401
Mof_C 	C 	0.5362	0.5731	0.84547	-0.355
Mof_C 	C 	0.5383	0.645	0.89387	0.424
Mof_C 	C 	0.7677	0.4205	0.69107	0.376
Mof_C 	C 	0.4988	0.4786	0.61077	0.389
Mof_C 	C 	0.7193	0.7453	0.08437	0.101
Mof_C 	C 	0.7568	0.8448	0.08887	-0.171
Mof_C 	C 	0.8556	0.9044	0.10337	0.133
Mof_C 	C 	0.911	0.8608	0.11107	-0.191
Mof_C 	C 	0.8694	0.7641	0.10517	0.115
Mof_C 	C 	0.8972	0.0095	0.10777	-0.093
Mof_C 	C 	0.8553	0.0595	0.09797	-0.084
Mof_C 	C 	0.8976	0.1651	0.10207	0.126
Mof_C 	C 	0.8416	0.209	0.10287	-0.184
Mof_C 	C 	0.8799	0.306	0.11047	0.106
Mof_C 	C 	0.0311	0.3244	0.11047	0.106
Mof_C 	C 	0.9975	0.2295	0.10367	-0.181
Mof_C 	C 	0.7523	0.3207	0.36553	-0.082
Mof_C 	C 	0.8195	0.3624	0.31783	0.021
Mof_C 	C 	0.9068	0.4468	0.32873	-0.086
Mof_C 	C 	0.9282	0.4847	0.38963	-0.057
Mof_C 	C 	0.8651	0.4415	0.43823	0.057
Mof_C 	C 	0.7759	0.36	0.42543	-0.055
Mof_C 	C 	0.8913	0.478	0.50523	-0.161
Mof_C 	C 	0.8815	0.3295	0.54583	-0.347
Mof_C 	C 	0.8992	0.2875	0.60563	0.401
Mof_C 	C 	0.0369	0.4638	0.51213	-0.354
Mof_C 	C 	0.1067	0.4617	0.56053	0.423
Mof_C 	C 	0.6528	0.2323	0.35773	0.376
Mof_C 	C 	0.9798	0.5012	0.27743	0.39
Mof_C 	C 	0.026	0.2807	0.75103	0.101
Mof_C 	C 	0.088	0.2432	0.75553	-0.173
Mof_C 	C 	0.0488	0.1444	0.77003	0.132
Mof_C 	C 	0.9498	0.089	0.77773	-0.192
Mof_C 	C 	0.8947	0.1306	0.77183	0.114
Mof_C 	C 	0.1123	0.1028	0.77443	-0.093
Mof_C 	C 	0.2042	0.1447	0.76463	-0.085
Mof_C 	C 	0.2675	0.1024	0.76873	0.126
Mof_C 	C 	0.3674	0.1584	0.76953	-0.185
Mof_C 	C 	0.4261	0.1201	0.77713	0.106
Mof_C 	C 	0.2933	0.9689	0.77713	0.106
Mof_C 	C 	0.232	0.0025	0.77033	-0.183
Mof_N 	N 	0.5056	0.9415	0.7077	-0.093
Mof_N 	N 	0.7039	0.93	0.9253	-0.243
Mof_N 	N 	0.3649	0.3896	0.9485	-0.241
Mof_N 	N 	0.4359	0.4944	0.37437	-0.093
Mof_N 	N 	0.2261	0.2961	0.59197	-0.243
Mof_N 	N 	0.0247	0.6351	0.61517	-0.239
Mof_N 	N 	0.0585	0.5641	0.04103	-0.098
Mof_N 	N 	0.07	0.7739	0.25863	-0.243
Mof_N 	N 	0.6104	0.9753	0.28183	-0.24
Mof_N 	N 	0.4944	0.0585	0.2077	-0.093
Mof_N 	N 	0.2961	0.07	0.4253	-0.243
Mof_N 	N 	0.6351	0.6104	0.4485	-0.24
Mof_N 	N 	0.5641	0.5056	0.87437	-0.092
Mof_N 	N 	0.7739	0.7039	0.09197	-0.242
Mof_N 	N 	0.9753	0.3649	0.11517	-0.239
Mof_N 	N 	0.9415	0.4359	0.54103	-0.093
Mof_N 	N 	0.93	0.2261	0.75863	-0.244
Mof_N 	N 	0.3896	0.0247	0.78183	-0.24
Mof_O 	O 	0.574	0.9126	0.82284	-0.525
Mof_O 	O 	0.6858	0.8948	0.7706	-0.288
Mof_O 	O 	0.6166	0.1019	0.7826	-0.424
Mof_O 	O 	0.7264	0.1663	0.707	-0.422
Mof_O 	O 	0.3609	0.5898	0.5611	-0.447
Mof_O 	O 	0.4697	0.6399	0.4832	-0.427
Mof_O 	O 	0.5113	0.9699	0.3932	-0.427
Mof_O 	O 	0.4596	0.0447	0.4567	-0.452
Mof_O 	O 	0.3386	0.426	0.48951	-0.525
Mof_O 	O 	0.209	0.3142	0.43727	-0.288
Mof_O 	O 	0.4853	0.3834	0.44927	-0.424
Mof_O 	O 	0.4399	0.2736	0.37367	-0.422
Mof_O 	O 	0.2289	0.6391	0.22777	-0.446
Mof_O 	O 	0.1702	0.5303	0.14987	-0.427
Mof_O 	O 	0.4586	0.4887	0.05987	-0.423
Mof_O 	O 	0.5851	0.5404	0.12337	-0.451
Mof_O 	O 	0.0874	0.6614	0.15617	-0.526
Mof_O 	O 	0.1052	0.791	0.10393	-0.287
Mof_O 	O 	0.8981	0.5147	0.11593	-0.421
Mof_O 	O 	0.8337	0.5601	0.04033	-0.415
Mof_O 	O 	0.4102	0.7711	0.89443	-0.448
Mof_O 	O 	0.3601	0.8298	0.81653	-0.427
Mof_O 	O 	0.0301	0.5414	0.72653	-0.427
Mof_O 	O 	0.9553	0.4149	0.79003	-0.454
Mof_O 	O 	0.426	0.0874	0.32284	-0.525
Mof_O 	O 	0.3142	0.1052	0.2706	-0.288
Mof_O 	O 	0.3834	0.8981	0.2826	-0.424
Mof_O 	O 	0.2736	0.8337	0.207	-0.421
Mof_O 	O 	0.6391	0.4102	0.0611	-0.447
Mof_O 	O 	0.5303	0.3601	0.9832	-0.434
Mof_O 	O 	0.4887	0.0301	0.8932	-0.427
Mof_O 	O 	0.5404	0.9553	0.9567	-0.455
Mof_O 	O 	0.6614	0.574	0.98951	-0.53
Mof_O 	O 	0.791	0.6858	0.93727	-0.291
Mof_O 	O 	0.5147	0.6166	0.94927	-0.426
Mof_O 	O 	0.5601	0.7264	0.87367	-0.422
Mof_O 	O 	0.7711	0.3609	0.72777	-0.447
Mof_O 	O 	0.8298	0.4697	0.64987	-0.427
Mof_O 	O 	0.5414	0.5113	0.55987	-0.427
Mof_O 	O 	0.4149	0.4596	0.62337	-0.452
Mof_O 	O 	0.9126	0.3386	0.65617	-0.526
Mof_O 	O 	0.8948	0.209	0.60393	-0.288
Mof_O 	O 	0.1019	0.4853	0.61593	-0.424
Mof_O 	O 	0.1663	0.4399	0.54033	-0.422
Mof_O 	O 	0.5898	0.2289	0.39443	-0.447
Mof_O 	O 	0.6399	0.1702	0.31653	-0.427
Mof_O 	O 	0.9699	0.4586	0.22653	-0.427
Mof_O 	O 	0.0447	0.5851	0.29003	-0.452
_end
