data_functionalizedCrystal
_audit_creation_method	'EQeq! by Chris Wilmer'
_symmetry_space_group_name_H-M	'P1'
_symmetry_Int_Tables_number	1
_symmetry_cell_setting	triclinic
loop_
_symmetry_equiv_pos_as_xyz
  x,y,z
_cell_length_a	19.562
_cell_length_b	20.85
_cell_length_c	23.573
_cell_angle_alpha	115.321
_cell_angle_beta	112.654
_cell_angle_gamma	92.849
loop_
_atom_site_label
_atom_site_type_symbol
_atom_site_fract_x
_atom_site_fract_y
_atom_site_fract_z
_atom_site_charge
Mof_Zn	Zn	0.2192	0.5858	0.4182	1.139
Mof_Zn	Zn	0.0151	0.5274	0.3197	1.186
Mof_Zn	Zn	0.2813	0.5095	0.5332	1.183
Mof_Zn	Zn	0.3009	0.5236	0.2986	1.185
Mof_Zn	Zn	0.2816	0.7857	0.5197	1.185
Mof_H 	H 	0.9263	0.6647	0.3647	0.009
Mof_H 	H 	0.9114	0.7817	0.4201	0.127
Mof_H 	H 	0.1402	0.8627	0.5215	0.153
Mof_H 	H 	0.0627	0.9454	0.5302	0.264
Mof_H 	H 	0.9901	0.9166	0.4579	0.251
Mof_H 	H 	0.9815	0.9179	0.5218	0.26
Mof_H 	H 	0.9438	0.4256	0.144	-0.003
Mof_H 	H 	0.9435	0.355	0.0365	0.136
Mof_H 	H 	0.1736	0.4192	0.1297	0.158
Mof_H 	H 	0.4132	0.8621	0.4925	-0.013
Mof_H 	H 	0.4955	0.8745	0.4464	0.137
Mof_H 	H 	0.4279	0.6568	0.316	0.171
Mof_H 	H 	0.5509	0.8245	0.3707	0.324
Mof_H 	H 	0.5621	0.7467	0.3591	0.32
Mof_H 	H 	0.4978	0.7544	0.2989	0.329
Mof_H 	H 	0.4104	0.405	0.512	0.161
Mof_H 	H 	0.5058	0.3635	0.3806	0.147
Mof_H 	H 	0.4318	0.4266	0.3313	0.005
Mof_H 	H 	0.5108	0.337	0.518	0.314
Mof_H 	H 	0.5073	0.2887	0.4441	0.302
Mof_H 	H 	0.5705	0.363	0.4981	0.292
Mof_H 	H 	0.3858	0.8508	0.6826	-0.026
Mof_H 	H 	0.4687	0.863	0.7904	0.173
Mof_H 	H 	0.4122	0.6438	0.7087	0.199
Mof_H 	H 	0.3258	0.5092	0.094	-0.074
Mof_H 	H 	0.3747	0.4603	0.0139	0.201
Mof_H 	H 	0.4404	0.3207	0.0808	0.173
Mof_H 	H 	0.3884	0.3683	0.163	-0.067
Mof_H 	H 	0.3767	0.3667	0.9135	0.016
Mof_H 	H 	0.4547	0.4254	0.9721	0.025
Mof_H 	H 	0.4749	0.4662	0.7134	-0.058
Mof_H 	H 	0.5053	0.4281	0.7949	0.163
Mof_H 	H 	0.2794	0.35	0.7249	0.156
Mof_H 	H 	0.255	0.4031	0.6499	-0.03
Mof_H 	H 	0.7911	0.5582	0.2006	-0.008
Mof_H 	H 	0.6745	0.5288	0.1049	0.129
Mof_H 	H 	0.676	0.3159	0.0248	0.12
Mof_H 	H 	0.7926	0.3453	0.1205	-0.013
Mof_H 	H 	0.5809	0.3124	0.9252	0.023
Mof_H 	H 	0.5506	0.3059	0.9758	0.028
Mof_H 	H 	0.5061	0.34	0.8327	0.024
Mof_H 	H 	0.5072	0.4164	0.8895	0.031
Mof_H 	H 	0.3737	0.2478	0.825	0.027
Mof_H 	H 	0.4201	0.23	0.8855	0.024
Mof_H 	H 	0.4657	0.0075	0.6596	-0.011
Mof_H 	H 	0.516	0.1303	0.7446	0.116
Mof_H 	H 	0.3348	0.1242	0.7851	0.119
Mof_H 	H 	0.2846	0.0014	0.7001	-0.015
Mof_H 	H 	0.1358	0.4088	0.5341	0.006
Mof_H 	H 	0.0132	0.3536	0.5067	0.136
Mof_H 	H 	0.9238	0.4256	0.3674	0.157
Mof_H 	H 	0.8403	0.3532	0.3841	0.301
Mof_H 	H 	0.876	0.2948	0.4023	0.314
Mof_H 	H 	0.8736	0.3665	0.4614	0.297
Mof_H 	H 	0.5242	0.8137	0.8607	0.369
Mof_H 	H 	0.4691	0.7444	0.8448	0.363
Mof_H 	H 	0.5362	0.7354	0.8236	0.374
Mof_H 	H 	0.1099	0.3385	0.0095	0.299
Mof_H 	H 	0.0373	0.2818	0.9887	0.303
Mof_H 	H 	0.0277	0.3452	0.9695	0.299
Mof_C 	C 	0.1062	0.753	0.4568	0.202
Mof_C 	C 	0.042	0.6935	0.4099	-0.058
Mof_C 	C 	0.969	0.704	0.396	0.065
Mof_C 	C 	0.9602	0.774	0.429	-0.315
Mof_C 	C 	0.024	0.8338	0.476	0.395
Mof_C 	C 	0.097	0.823	0.4901	-0.397
Mof_C 	C 	0.014	0.91	0.499	-0.85
Mof_C 	C 	0.128	0.463	0.197	0.196
Mof_C 	C 	0.059	0.465	0.201	-0.038
Mof_C 	C 	0.99	0.424	0.141	0.075
Mof_C 	C 	0.99	0.382	0.077	-0.333
Mof_C 	C 	0.059	0.38	0.072	0.438
Mof_C 	C 	0.128	0.42	0.133	-0.411
Mof_C 	C 	0.376	0.69	0.379	0.207
Mof_C 	C 	0.371	0.752	0.432	-0.072
Mof_C 	C 	0.416	0.821	0.457	0.097
Mof_C 	C 	0.465	0.828	0.43	-0.358
Mof_C 	C 	0.47	0.767	0.377	0.461
Mof_C 	C 	0.425	0.698	0.351	-0.438
Mof_C 	C 	0.525	0.774	0.349	-1.013
Mof_C 	C 	0.377	0.4536	0.392	-0.05
Mof_C 	C 	0.3703	0.4472	0.4462	0.196
Mof_C 	C 	0.415	0.409	0.4758	-0.409
Mof_C 	C 	0.465	0.378	0.451	0.433
Mof_C 	C 	0.472	0.384	0.397	-0.341
Mof_C 	C 	0.428	0.422	0.3675	0.085
Mof_C 	C 	0.518	0.338	0.481	-0.957
Mof_C 	C 	0.349	0.74	0.6311	-0.1
Mof_C 	C 	0.391	0.809	0.688	0.156
Mof_C 	C 	0.441	0.817	0.752	-0.446
Mof_C 	C 	0.449	0.755	0.7602	0.572
Mof_C 	C 	0.407	0.685	0.7035	-0.498
Mof_C 	C 	0.357	0.678	0.6389	0.223
Mof_C 	C 	0.341	0.481	0.196	0.403
Mof_C 	C 	0.36	0.448	0.14	-0.35
Mof_C 	C 	0.351	0.472	0.093	0.325
Mof_C 	C 	0.377	0.442	0.044	-0.473
Mof_C 	C 	0.407	0.385	0.04	0.438
Mof_C 	C 	0.416	0.358	0.083	-0.418
Mof_C 	C 	0.388	0.389	0.135	0.271
Mof_C 	C 	0.429	0.373	0.945	0.07
Mof_C 	C 	0.341	0.468	0.623	0.458
Mof_C 	C 	0.364	0.439	0.674	-0.305
Mof_C 	C 	0.435	0.445	0.717	0.274
Mof_C 	C 	0.454	0.422	0.765	-0.382
Mof_C 	C 	0.394	0.389	0.768	0.332
Mof_C 	C 	0.319	0.376	0.725	-0.334
Mof_C 	C 	0.305	0.406	0.678	0.205
Mof_C 	C 	0.8034	0.4547	0.17	-0.2
Mof_C 	C 	0.7681	0.5096	0.1653	0.141
Mof_C 	C 	0.6982	0.492	0.108	-0.256
Mof_C 	C 	0.6637	0.4194	0.0553	0.264
Mof_C 	C 	0.6991	0.3645	0.06	-0.266
Mof_C 	C 	0.769	0.3821	0.1174	0.147
Mof_C 	C 	0.553	0.334	0.952	0.055
Mof_C 	C 	0.472	0.33	0.903	-0.023
Mof_C 	C 	0.479	0.365	0.859	0.041
Mof_C 	C 	0.425	0.251	0.857	0.053
Mof_C 	C 	0.336	0.913	0.615	0.37
Mof_C 	C 	0.37	0.9923	0.6714	-0.191
Mof_C 	C 	0.439	0.031	0.6847	0.131
Mof_C 	C 	0.4696	0.104	0.736	-0.261
Mof_C 	C 	0.43	0.1395	0.7733	0.267
Mof_C 	C 	0.361	0.101	0.76	-0.271
Mof_C 	C 	0.331	0.027	0.709	0.136
Mof_C 	C 	0.04	0.4553	0.4172	0.194
Mof_C 	C 	0.1032	0.4503	0.467	-0.052
Mof_C 	C 	0.093	0.412	0.5007	0.077
Mof_C 	C 	0.02	0.3791	0.484	-0.337
Mof_C 	C 	0.956	0.3841	0.434	0.444
Mof_C 	C 	0.9663	0.422	0.4008	-0.407
Mof_C 	C 	0.88	0.346	0.419	-0.971
Mof_C 	C 	0.884	0.483	0.231	0.423
Mof_C 	C 	0.499	0.763	0.828	-1.189
Mof_C 	C 	0.058	0.332	0.004	-0.965
Mof_N 	N 	0.167	0.73	0.466	-0.274
Mof_N 	N 	0.144	0.657	0.4206	-0.213
Mof_N 	N 	0.071	0.6365	0.387	-0.216
Mof_N 	N 	0.075	0.5	0.266	-0.239
Mof_N 	N 	0.153	0.523	0.302	-0.201
Mof_N 	N 	0.185	0.498	0.262	-0.267
Mof_N 	N 	0.328	0.633	0.365	-0.279
Mof_N 	N 	0.296	0.657	0.409	-0.208
Mof_N 	N 	0.32	0.729	0.448	-0.221
Mof_N 	N 	0.3191	0.4844	0.4608	-0.28
Mof_N 	N 	0.2934	0.5103	0.413	-0.215
Mof_N 	N 	0.328	0.492	0.371	-0.233
Mof_N 	N 	0.162	0.486	0.4696	-0.207
Mof_N 	N 	0.1437	0.5165	0.4289	-0.22
Mof_N 	N 	0.067	0.496	0.3951	-0.261
Mof_N 	N 	0.309	0.62	0.573	-0.279
Mof_N 	N 	0.2854	0.651	0.5346	-0.186
Mof_N 	N 	0.305	0.722	0.559	-0.246
Mof_O 	O 	0.274	0.461	0.586	-0.523
Mof_O 	O 	0.391	0.5	0.62	-0.431
Mof_O 	O 	0.4023	0.3583	0.8123	-0.263
Mof_O 	O 	0.909	0.428	0.2363	-0.4
Mof_O 	O 	0.913	0.541	0.272	-0.532
Mof_O 	O 	0.5921	0.407	0.0021	-0.252
Mof_O 	O 	0.271	0.8814	0.6003	-0.439
Mof_O 	O 	0.374	0.881	0.5876	-0.454
Mof_O 	O 	0.4632	0.2126	0.8192	-0.264
Mof_O 	O 	0.4309	0.3461	0.9906	-0.299
Mof_O 	O 	0.312	0.538	0.205	-0.382
Mof_O 	O 	0.344	0.459	0.239	-0.485
Mof_Zn	Zn	0.7808	0.4142	0.5818	1.138
Mof_Zn	Zn	0.9849	0.4726	0.6803	1.185
Mof_Zn	Zn	0.7187	0.4905	0.4668	1.183
Mof_Zn	Zn	0.6991	0.4764	0.7014	1.185
Mof_Zn	Zn	0.7184	0.2143	0.4803	1.185
Mof_H 	H 	0.0737	0.3353	0.6353	0.009
Mof_H 	H 	0.0886	0.2183	0.5799	0.127
Mof_H 	H 	0.8598	0.1373	0.4785	0.153
Mof_H 	H 	0.9373	0.0546	0.4698	0.264
Mof_H 	H 	0.0099	0.0834	0.5421	0.251
Mof_H 	H 	0.0185	0.0821	0.4782	0.26
Mof_H 	H 	0.0562	0.5744	0.856	-0.003
Mof_H 	H 	0.0565	0.645	0.9635	0.136
Mof_H 	H 	0.8264	0.5808	0.8703	0.158
Mof_H 	H 	0.5868	0.1379	0.5075	-0.013
Mof_H 	H 	0.5045	0.1255	0.5536	0.137
Mof_H 	H 	0.5721	0.3432	0.684	0.171
Mof_H 	H 	0.4491	0.1755	0.6293	0.324
Mof_H 	H 	0.4379	0.2533	0.6409	0.32
Mof_H 	H 	0.5022	0.2456	0.7011	0.329
Mof_H 	H 	0.5896	0.595	0.488	0.161
Mof_H 	H 	0.4942	0.6365	0.6194	0.147
Mof_H 	H 	0.5682	0.5734	0.6687	0.005
Mof_H 	H 	0.4892	0.663	0.482	0.314
Mof_H 	H 	0.4927	0.7113	0.5559	0.302
Mof_H 	H 	0.4295	0.637	0.5019	0.292
Mof_H 	H 	0.6142	0.1492	0.3174	-0.026
Mof_H 	H 	0.5313	0.137	0.2096	0.173
Mof_H 	H 	0.5878	0.3562	0.2913	0.199
Mof_H 	H 	0.6742	0.4908	0.906	-0.074
Mof_H 	H 	0.6253	0.5397	0.9861	0.201
Mof_H 	H 	0.5596	0.6793	0.9192	0.173
Mof_H 	H 	0.6116	0.6317	0.837	-0.067
Mof_H 	H 	0.6233	0.6333	0.0865	0.016
Mof_H 	H 	0.5453	0.5746	0.0279	0.025
Mof_H 	H 	0.5251	0.5338	0.2866	-0.058
Mof_H 	H 	0.4947	0.5719	0.2051	0.163
Mof_H 	H 	0.7206	0.65	0.2751	0.156
Mof_H 	H 	0.745	0.5969	0.3501	-0.03
Mof_H 	H 	0.2089	0.4418	0.7994	-0.008
Mof_H 	H 	0.3255	0.4712	0.8951	0.129
Mof_H 	H 	0.324	0.6841	0.9752	0.12
Mof_H 	H 	0.2074	0.6547	0.8795	-0.013
Mof_H 	H 	0.4191	0.6876	0.0748	0.023
Mof_H 	H 	0.4494	0.6941	0.0242	0.028
Mof_H 	H 	0.4939	0.66	0.1673	0.024
Mof_H 	H 	0.4928	0.5836	0.1105	0.031
Mof_H 	H 	0.6263	0.7522	0.175	0.027
Mof_H 	H 	0.5799	0.77	0.1145	0.024
Mof_H 	H 	0.5343	0.9925	0.3404	-0.011
Mof_H 	H 	0.484	0.8697	0.2554	0.116
Mof_H 	H 	0.6652	0.8758	0.2149	0.119
Mof_H 	H 	0.7154	0.9986	0.2999	-0.015
Mof_H 	H 	0.8642	0.5912	0.4659	0.006
Mof_H 	H 	0.9868	0.6464	0.4933	0.136
Mof_H 	H 	0.0762	0.5744	0.6326	0.157
Mof_H 	H 	0.1597	0.6468	0.6159	0.301
Mof_H 	H 	0.124	0.7052	0.5977	0.314
Mof_H 	H 	0.1264	0.6335	0.5386	0.297
Mof_H 	H 	0.4758	0.1863	0.1393	0.369
Mof_H 	H 	0.5309	0.2556	0.1552	0.363
Mof_H 	H 	0.4638	0.2646	0.1764	0.374
Mof_H 	H 	0.8901	0.6615	0.9905	0.299
Mof_H 	H 	0.9627	0.7182	0.0113	0.303
Mof_H 	H 	0.9723	0.6548	0.0305	0.299
Mof_C 	C 	0.8938	0.247	0.5432	0.202
Mof_C 	C 	0.958	0.3065	0.5901	-0.058
Mof_C 	C 	0.031	0.296	0.604	0.065
Mof_C 	C 	0.0398	0.226	0.571	-0.315
Mof_C 	C 	0.976	0.1662	0.524	0.395
Mof_C 	C 	0.903	0.177	0.5099	-0.397
Mof_C 	C 	0.986	0.09	0.501	-0.85
Mof_C 	C 	0.872	0.537	0.803	0.196
Mof_C 	C 	0.941	0.535	0.799	-0.038
Mof_C 	C 	0.01	0.576	0.859	0.075
Mof_C 	C 	0.01	0.618	0.923	-0.333
Mof_C 	C 	0.941	0.62	0.928	0.438
Mof_C 	C 	0.872	0.58	0.867	-0.411
Mof_C 	C 	0.624	0.31	0.621	0.207
Mof_C 	C 	0.629	0.248	0.568	-0.072
Mof_C 	C 	0.584	0.179	0.543	0.097
Mof_C 	C 	0.535	0.172	0.57	-0.358
Mof_C 	C 	0.53	0.233	0.623	0.461
Mof_C 	C 	0.575	0.302	0.649	-0.438
Mof_C 	C 	0.475	0.226	0.651	-1.013
Mof_C 	C 	0.623	0.5464	0.608	-0.05
Mof_C 	C 	0.6297	0.5528	0.5538	0.196
Mof_C 	C 	0.585	0.591	0.5242	-0.409
Mof_C 	C 	0.535	0.622	0.549	0.433
Mof_C 	C 	0.528	0.616	0.603	-0.341
Mof_C 	C 	0.572	0.578	0.6325	0.085
Mof_C 	C 	0.482	0.662	0.519	-0.957
Mof_C 	C 	0.651	0.26	0.3689	-0.1
Mof_C 	C 	0.609	0.191	0.312	0.156
Mof_C 	C 	0.559	0.183	0.248	-0.446
Mof_C 	C 	0.551	0.245	0.2398	0.572
Mof_C 	C 	0.593	0.315	0.2965	-0.498
Mof_C 	C 	0.643	0.322	0.3611	0.223
Mof_C 	C 	0.659	0.519	0.804	0.403
Mof_C 	C 	0.64	0.552	0.86	-0.35
Mof_C 	C 	0.649	0.528	0.907	0.325
Mof_C 	C 	0.623	0.558	0.956	-0.473
Mof_C 	C 	0.593	0.615	0.96	0.438
Mof_C 	C 	0.584	0.642	0.917	-0.418
Mof_C 	C 	0.612	0.611	0.865	0.271
Mof_C 	C 	0.571	0.627	0.055	0.07
Mof_C 	C 	0.659	0.532	0.377	0.458
Mof_C 	C 	0.636	0.561	0.326	-0.305
Mof_C 	C 	0.565	0.555	0.283	0.274
Mof_C 	C 	0.546	0.578	0.235	-0.382
Mof_C 	C 	0.606	0.611	0.232	0.332
Mof_C 	C 	0.681	0.624	0.275	-0.334
Mof_C 	C 	0.695	0.594	0.322	0.205
Mof_C 	C 	0.1966	0.5453	0.83	-0.2
Mof_C 	C 	0.2319	0.4904	0.8347	0.141
Mof_C 	C 	0.3018	0.508	0.892	-0.256
Mof_C 	C 	0.3363	0.5806	0.9447	0.264
Mof_C 	C 	0.3009	0.6355	0.94	-0.266
Mof_C 	C 	0.231	0.6179	0.8826	0.147
Mof_C 	C 	0.447	0.666	0.048	0.055
Mof_C 	C 	0.528	0.67	0.097	-0.023
Mof_C 	C 	0.521	0.635	0.141	0.041
Mof_C 	C 	0.575	0.749	0.143	0.053
Mof_C 	C 	0.664	0.087	0.385	0.37
Mof_C 	C 	0.63	0.0077	0.3286	-0.191
Mof_C 	C 	0.561	0.969	0.3153	0.131
Mof_C 	C 	0.5304	0.896	0.264	-0.261
Mof_C 	C 	0.57	0.8605	0.2267	0.267
Mof_C 	C 	0.639	0.899	0.24	-0.271
Mof_C 	C 	0.669	0.973	0.291	0.136
Mof_C 	C 	0.96	0.5447	0.5828	0.194
Mof_C 	C 	0.8968	0.5497	0.533	-0.052
Mof_C 	C 	0.907	0.588	0.4993	0.077
Mof_C 	C 	0.98	0.6209	0.516	-0.337
Mof_C 	C 	0.044	0.6159	0.566	0.444
Mof_C 	C 	0.0337	0.578	0.5992	-0.407
Mof_C 	C 	0.12	0.654	0.581	-0.971
Mof_C 	C 	0.116	0.517	0.769	0.423
Mof_C 	C 	0.501	0.237	0.172	-1.189
Mof_C 	C 	0.942	0.668	0.996	-0.965
Mof_N 	N 	0.833	0.27	0.534	-0.274
Mof_N 	N 	0.856	0.343	0.5794	-0.213
Mof_N 	N 	0.929	0.3635	0.613	-0.216
Mof_N 	N 	0.925	0.5	0.734	-0.239
Mof_N 	N 	0.847	0.477	0.698	-0.201
Mof_N 	N 	0.815	0.502	0.738	-0.267
Mof_N 	N 	0.672	0.367	0.635	-0.279
Mof_N 	N 	0.704	0.343	0.591	-0.208
Mof_N 	N 	0.68	0.271	0.552	-0.221
Mof_N 	N 	0.6809	0.5156	0.5392	-0.28
Mof_N 	N 	0.7066	0.4897	0.587	-0.215
Mof_N 	N 	0.672	0.508	0.629	-0.233
Mof_N 	N 	0.838	0.514	0.5304	-0.207
Mof_N 	N 	0.8563	0.4835	0.5711	-0.22
Mof_N 	N 	0.933	0.504	0.6049	-0.261
Mof_N 	N 	0.691	0.38	0.427	-0.279
Mof_N 	N 	0.7146	0.349	0.4654	-0.186
Mof_N 	N 	0.695	0.278	0.441	-0.246
Mof_O 	O 	0.726	0.539	0.414	-0.523
Mof_O 	O 	0.609	0.5	0.38	-0.431
Mof_O 	O 	0.5977	0.6417	0.1877	-0.263
Mof_O 	O 	0.091	0.572	0.7637	-0.4
Mof_O 	O 	0.087	0.459	0.728	-0.532
Mof_O 	O 	0.4079	0.593	0.9979	-0.252
Mof_O 	O 	0.729	0.1186	0.3997	-0.439
Mof_O 	O 	0.626	0.119	0.4124	-0.454
Mof_O 	O 	0.5368	0.7874	0.1808	-0.264
Mof_O 	O 	0.5691	0.6539	0.0094	-0.299
Mof_O 	O 	0.688	0.462	0.795	-0.382
Mof_O 	O 	0.656	0.541	0.761	-0.485
_end
