data_functionalizedCrystal
_audit_creation_method	'EQeq! by Chris Wilmer'
_symmetry_space_group_name_H-M	'P1'
_symmetry_Int_Tables_number	1
_symmetry_cell_setting	triclinic
loop_
_symmetry_equiv_pos_as_xyz
  x,y,z
_cell_length_a	14.4113
_cell_length_b	14.4113
_cell_length_c	14.4113
_cell_angle_alpha	90
_cell_angle_beta	90
_cell_angle_gamma	90
loop_
_atom_site_label
_atom_site_type_symbol
_atom_site_fract_x
_atom_site_fract_y
_atom_site_fract_z
_atom_site_charge
Mof_Cu	Cu	0.5	0.75	-0	0.848
Mof_Cu	Cu	0.5	0.25	-0	0.84
Mof_Cu	Cu	-2.24904e-32	0.5	0.75	0.848
Mof_Cu	Cu	-1.17119e-33	0.5	0.25	0.84
Mof_Cu	Cu	0.75	0	0.5	0.848
Mof_Cu	Cu	0.25	0	0.5	0.84
Mof_Cu	Cu	0.75	0.5	-0	0.848
Mof_Cu	Cu	0.25	0.5	-0	0.84
Mof_Cu	Cu	0.5	0	0.25	0.84
Mof_Cu	Cu	0.5	-8.43414e-33	0.75	0.849
Mof_Cu	Cu	-1.92107e-32	0.75	0.5	0.849
Mof_Cu	Cu	-2.34237e-33	0.25	0.5	0.841
Mof_C 	C 	0.6663	0.6663	-0	0.79
Mof_O 	O 	0.6049	0.6049	-0	-1.158
Mof_C 	C 	0.1663	0.1663	0.5	0.674
Mof_O 	O 	0.1049	0.1049	0.5	-0.826
Mof_C 	C 	0.3337	0.3337	-0	0.804
Mof_O 	O 	0.3951	0.3951	-0	-1.17
Mof_C 	C 	0.8337	0.8337	0.5	0.611
Mof_O 	O 	0.8951	0.8951	0.5	-0.437
Mof_C 	C 	0.3337	0.6663	-0	0.797
Mof_O 	O 	0.3951	0.6049	-0	-1.164
Mof_C 	C 	0.8337	0.1663	0.5	0.642
Mof_O 	O 	0.8951	0.1049	0.5	-0.628
Mof_C 	C 	0.6663	0.3337	-0	0.797
Mof_O 	O 	0.6049	0.3951	-0	-1.164
Mof_C 	C 	0.1663	0.8337	0.5	0.642
Mof_O 	O 	0.1049	0.8951	0.5	-0.628
Mof_C 	C 	1.93665e-32	0.6663	0.6663	0.79
Mof_O 	O 	-6.16613e-33	0.6049	0.6049	-1.158
Mof_C 	C 	0.5	0.1663	0.1663	0.674
Mof_O 	O 	0.5	0.1049	0.1049	-0.826
Mof_C 	C 	-7.18297e-33	0.3337	0.3337	0.804
Mof_O 	O 	1.48139e-33	0.3951	0.3951	-1.17
Mof_C 	C 	0.5	0.8337	0.8337	0.611
Mof_O 	O 	0.5	0.8951	0.8951	-0.437
Mof_C 	C 	2.49822e-33	0.3337	0.6663	0.797
Mof_O 	O 	-1.03832e-32	0.3951	0.6049	-1.164
Mof_C 	C 	0.5	0.8337	0.1663	0.642
Mof_O 	O 	0.5	0.8951	0.1049	-0.628
Mof_C 	C 	5.46825e-33	0.6663	0.3337	0.797
Mof_O 	O 	-6.95275e-33	0.6049	0.3951	-1.164
Mof_C 	C 	0.5	0.1663	0.8337	0.642
Mof_O 	O 	0.5	0.1049	0.8951	-0.628
Mof_C 	C 	0.6663	8.43414e-33	0.6663	0.79
Mof_O 	O 	0.6049	-4.21707e-33	0.6049	-1.158
Mof_C 	C 	0.1663	0.5	0.1663	0.674
Mof_O 	O 	0.1049	0.5	0.1049	-0.826
Mof_C 	C 	0.3337	-4.21707e-33	0.3337	0.804
Mof_O 	O 	0.3951	0	0.3951	-1.17
Mof_C 	C 	0.8337	0.5	0.8337	0.611
Mof_O 	O 	0.8951	0.5	0.8951	-0.437
Mof_C 	C 	0.6663	-4.21707e-33	0.3337	0.797
Mof_O 	O 	0.6049	0	0.3951	-1.164
Mof_C 	C 	0.1663	0.5	0.8337	0.642
Mof_O 	O 	0.1049	0.5	0.8951	-0.628
Mof_C 	C 	0.3337	8.43414e-33	0.6663	0.797
Mof_O 	O 	0.3951	-4.21707e-33	0.6049	-1.164
Mof_C 	C 	0.8337	0.5	0.1663	0.642
Mof_O 	O 	0.8951	0.5	0.1049	-0.628
Mof_O 	O 	0.6418	0.7523	-0	-0.505
Mof_O 	O 	0.1418	0.2523	0.5	-0.49
Mof_O 	O 	0.3582	0.2477	-0	-0.609
Mof_O 	O 	0.8582	0.7477	0.5	-0.293
Mof_O 	O 	0.3582	0.7523	-0	-0.543
Mof_O 	O 	0.8582	0.2523	0.5	-0.327
Mof_O 	O 	0.6418	0.2477	-0	-0.57
Mof_O 	O 	0.1418	0.7477	0.5	-0.453
Mof_O 	O 	2.82067e-33	0.6418	0.7523	-0.505
Mof_O 	O 	0.5	0.1418	0.2523	-0.49
Mof_O 	O 	7.25433e-33	0.3582	0.2477	-0.609
Mof_O 	O 	0.5	0.8582	0.7477	-0.293
Mof_O 	O 	-5.61347e-33	0.3582	0.7523	-0.543
Mof_O 	O 	0.5	0.8582	0.2523	-0.327
Mof_O 	O 	3.03726e-33	0.6418	0.2477	-0.57
Mof_O 	O 	0.5	0.1418	0.7477	-0.453
Mof_O 	O 	0.7523	0	0.6418	-0.505
Mof_O 	O 	0.2523	0.5	0.1418	-0.49
Mof_O 	O 	0.2477	4.21707e-33	0.3582	-0.609
Mof_O 	O 	0.7477	0.5	0.8582	-0.293
Mof_O 	O 	0.7523	4.21707e-33	0.3582	-0.543
Mof_O 	O 	0.2523	0.5	0.8582	-0.327
Mof_O 	O 	0.2477	0	0.6418	-0.57
Mof_O 	O 	0.7477	0.5	0.1418	-0.453
Mof_O 	O 	0.7523	0.6418	-0	-0.505
Mof_O 	O 	0.2523	0.1418	0.5	-0.49
Mof_O 	O 	0.2477	0.3582	-0	-0.609
Mof_O 	O 	0.7477	0.8582	0.5	-0.293
Mof_O 	O 	0.7523	0.3582	-0	-0.543
Mof_O 	O 	0.2523	0.8582	0.5	-0.327
Mof_O 	O 	0.2477	0.6418	-0	-0.57
Mof_O 	O 	0.7477	0.1418	0.5	-0.453
Mof_O 	O 	0.6418	0	0.2477	-0.57
Mof_O 	O 	0.1418	0.5	0.7477	-0.453
Mof_O 	O 	0.3582	0	0.7523	-0.543
Mof_O 	O 	0.8582	0.5	0.2523	-0.327
Mof_O 	O 	0.3582	0	0.2477	-0.609
Mof_O 	O 	0.8582	0.5	0.7477	-0.293
Mof_O 	O 	0.6418	0	0.7523	-0.505
Mof_O 	O 	0.1418	0.5	0.2523	-0.49
Mof_O 	O 	1.34303e-33	0.7523	0.3582	-0.543
Mof_O 	O 	0.5	0.2523	0.8582	-0.327
Mof_O 	O 	2.40636e-33	0.2477	0.6418	-0.57
Mof_O 	O 	0.5	0.7477	0.1418	-0.453
Mof_O 	O 	2.40636e-33	0.7523	0.6418	-0.505
Mof_O 	O 	0.5	0.2523	0.1418	-0.49
Mof_O 	O 	5.56011e-33	0.2477	0.3582	-0.609
Mof_O 	O 	0.5	0.7477	0.8582	-0.293
Mof_Na	Na	0.5	0.5	-0	3.79
Mof_Na	Na	1.8747e-33	0	0.5	1.831
Mof_Na	Na	1.8747e-33	0.5	0.5	3.79
Mof_Na	Na	0.5	0	-0	1.831
Mof_Na	Na	0.5	0	0.5	3.79
Mof_Na	Na	-0	0.5	-0	1.831
_end
