data_functionalizedCrystal
_audit_creation_method	'EQeq! by Chris Wilmer'
_symmetry_space_group_name_H-M	'P1'
_symmetry_Int_Tables_number	1
_symmetry_cell_setting	triclinic
loop_
_symmetry_equiv_pos_as_xyz
  x,y,z
_cell_length_a	20.0405
_cell_length_b	20.0405
_cell_length_c	22.9108
_cell_angle_alpha	90
_cell_angle_beta	90
_cell_angle_gamma	120
loop_
_atom_site_label
_atom_site_type_symbol
_atom_site_fract_x
_atom_site_fract_y
_atom_site_fract_z
_atom_site_charge
Mof_O 	O 	0.7881	0.3475	0.187	-0.71
Mof_O 	O 	0.7857	0.4525	0.1879	-0.734
Mof_C 	C 	0.7947	0.405	0.1592	0.631
Mof_C 	C 	0.8597	0.4388	0.1147	-0.193
Mof_C 	C 	0.891	0.5143	0.0957	0.061
Mof_C 	C 	0.9477	0.5434	0.0494	-0.037
Mof_C 	C 	0.9718	0.4965	0.0239	0.013
Mof_C 	C 	0.9363	0.4192	0.0409	-0.035
Mof_C 	C 	0.8727	0.3888	0.0807	0.054
Mof_O 	O 	0.6525	0.4406	0.187	-0.711
Mof_O 	O 	0.5475	0.3332	0.1879	-0.735
Mof_C 	C 	0.595	0.3897	0.1592	0.631
Mof_C 	C 	0.5612	0.4209	0.1147	-0.193
Mof_C 	C 	0.4857	0.3767	0.0957	0.061
Mof_C 	C 	0.4566	0.4043	0.0494	-0.037
Mof_C 	C 	0.5035	0.4753	0.0239	0.013
Mof_C 	C 	0.5808	0.5171	0.0409	-0.035
Mof_C 	C 	0.6112	0.4839	0.0807	0.054
Mof_O 	O 	0.5594	0.2119	0.187	-0.711
Mof_O 	O 	0.6668	0.2143	0.1879	-0.735
Mof_C 	C 	0.6103	0.2053	0.1592	0.631
Mof_C 	C 	0.5791	0.1403	0.1147	-0.193
Mof_C 	C 	0.6233	0.109	0.0957	0.061
Mof_C 	C 	0.5957	0.0523	0.0494	-0.037
Mof_C 	C 	0.5247	0.0282	0.0239	0.013
Mof_C 	C 	0.4829	0.0637	0.0409	-0.035
Mof_C 	C 	0.5161	0.1273	0.0807	0.054
Mof_O 	O 	0.7881	0.3475	0.313	-0.711
Mof_O 	O 	0.7857	0.4525	0.3121	-0.735
Mof_C 	C 	0.7947	0.405	0.3408	0.631
Mof_C 	C 	0.8597	0.4388	0.3853	-0.193
Mof_C 	C 	0.891	0.5143	0.4043	0.061
Mof_C 	C 	0.9477	0.5434	0.4506	-0.037
Mof_C 	C 	0.9718	0.4965	0.4761	0.013
Mof_C 	C 	0.9363	0.4192	0.4591	-0.035
Mof_C 	C 	0.8727	0.3888	0.4193	0.054
Mof_O 	O 	0.6525	0.4406	0.313	-0.711
Mof_O 	O 	0.5475	0.3332	0.3121	-0.735
Mof_C 	C 	0.595	0.3897	0.3408	0.631
Mof_C 	C 	0.5612	0.4209	0.3853	-0.193
Mof_C 	C 	0.4857	0.3767	0.4043	0.061
Mof_C 	C 	0.4566	0.4043	0.4506	-0.037
Mof_C 	C 	0.5035	0.4753	0.4761	0.013
Mof_C 	C 	0.5808	0.5171	0.4591	-0.035
Mof_C 	C 	0.6112	0.4839	0.4193	0.054
Mof_O 	O 	0.5594	0.2119	0.313	-0.711
Mof_O 	O 	0.6668	0.2143	0.3121	-0.735
Mof_C 	C 	0.6103	0.2053	0.3408	0.631
Mof_C 	C 	0.5791	0.1403	0.3853	-0.193
Mof_C 	C 	0.6233	0.109	0.4043	0.061
Mof_C 	C 	0.5957	0.0523	0.4506	-0.037
Mof_C 	C 	0.5247	0.0282	0.4761	0.013
Mof_C 	C 	0.4829	0.0637	0.4591	-0.035
Mof_C 	C 	0.5161	0.1273	0.4193	0.054
Mof_O 	O 	0.3475	0.7881	0.813	-0.711
Mof_O 	O 	0.4525	0.7857	0.8121	-0.735
Mof_C 	C 	0.405	0.7947	0.8408	0.631
Mof_C 	C 	0.4388	0.8597	0.8853	-0.193
Mof_C 	C 	0.5143	0.891	0.9043	0.061
Mof_C 	C 	0.5434	0.9477	0.9506	-0.037
Mof_C 	C 	0.4965	0.9718	0.9761	0.013
Mof_C 	C 	0.4192	0.9363	0.9591	-0.035
Mof_C 	C 	0.3888	0.8727	0.9193	0.054
Mof_O 	O 	0.4406	0.6525	0.813	-0.711
Mof_O 	O 	0.3332	0.5475	0.8121	-0.735
Mof_C 	C 	0.3897	0.595	0.8408	0.631
Mof_C 	C 	0.4209	0.5612	0.8853	-0.193
Mof_C 	C 	0.3767	0.4857	0.9043	0.061
Mof_C 	C 	0.4043	0.4566	0.9506	-0.037
Mof_C 	C 	0.4753	0.5035	0.9761	0.013
Mof_C 	C 	0.5171	0.5808	0.9591	-0.035
Mof_C 	C 	0.4839	0.6112	0.9193	0.054
Mof_O 	O 	0.2119	0.5594	0.813	-0.711
Mof_O 	O 	0.2143	0.6668	0.8121	-0.735
Mof_C 	C 	0.2053	0.6103	0.8408	0.631
Mof_C 	C 	0.1403	0.5791	0.8853	-0.193
Mof_C 	C 	0.109	0.6233	0.9043	0.061
Mof_C 	C 	0.0523	0.5957	0.9506	-0.037
Mof_C 	C 	0.0282	0.5247	0.9761	0.013
Mof_C 	C 	0.0637	0.4829	0.9591	-0.035
Mof_C 	C 	0.1273	0.5161	0.9193	0.054
Mof_O 	O 	0.3475	0.7881	0.687	-0.711
Mof_O 	O 	0.4525	0.7857	0.6879	-0.735
Mof_C 	C 	0.405	0.7947	0.6592	0.631
Mof_C 	C 	0.4388	0.8597	0.6147	-0.193
Mof_C 	C 	0.5143	0.891	0.5957	0.061
Mof_C 	C 	0.5434	0.9477	0.5494	-0.037
Mof_C 	C 	0.4965	0.9718	0.5239	0.013
Mof_C 	C 	0.4192	0.9363	0.5409	-0.035
Mof_C 	C 	0.3888	0.8727	0.5807	0.054
Mof_O 	O 	0.4406	0.6525	0.687	-0.711
Mof_O 	O 	0.3332	0.5475	0.6879	-0.735
Mof_C 	C 	0.3897	0.595	0.6592	0.631
Mof_C 	C 	0.4209	0.5612	0.6147	-0.193
Mof_C 	C 	0.3767	0.4857	0.5957	0.061
Mof_C 	C 	0.4043	0.4566	0.5494	-0.037
Mof_C 	C 	0.4753	0.5035	0.5239	0.013
Mof_C 	C 	0.5171	0.5808	0.5409	-0.035
Mof_C 	C 	0.4839	0.6112	0.5807	0.054
Mof_O 	O 	0.2119	0.5594	0.687	-0.711
Mof_O 	O 	0.2143	0.6668	0.6879	-0.735
Mof_C 	C 	0.2053	0.6103	0.6592	0.631
Mof_C 	C 	0.1403	0.5791	0.6147	-0.193
Mof_C 	C 	0.109	0.6233	0.5957	0.061
Mof_C 	C 	0.0523	0.5957	0.5494	-0.037
Mof_C 	C 	0.0282	0.5247	0.5239	0.013
Mof_C 	C 	0.0637	0.4829	0.5409	-0.035
Mof_C 	C 	0.1273	0.5161	0.5807	0.054
Mof_Cr	Cr	0.7271	0.28	0.25	2.259
Mof_Cr	Cr	0.72	0.4471	0.25	2.259
Mof_Cr	Cr	0.5529	0.2729	0.25	2.259
Mof_Cr	Cr	0.28	0.7271	0.75	2.259
Mof_Cr	Cr	0.4471	0.72	0.75	2.259
Mof_Cr	Cr	0.2729	0.5529	0.75	2.259
Mof_O 	O 	0.66667	0.33333	0.25	-1.066
Mof_O 	O 	0.33333	0.66667	0.75	-1.066
_end
