data_functionalizedCrystal
_audit_creation_method	'EQeq! by Chris Wilmer'
_symmetry_space_group_name_H-M	'P1'
_symmetry_Int_Tables_number	1
_symmetry_cell_setting	triclinic
loop_
_symmetry_equiv_pos_as_xyz
  x,y,z
_cell_length_a	16.8243
_cell_length_b	18.1094
_cell_length_c	17.2672
_cell_angle_alpha	110.957
_cell_angle_beta	90
_cell_angle_gamma	90
loop_
_atom_site_label
_atom_site_type_symbol
_atom_site_fract_x
_atom_site_fract_y
_atom_site_fract_z
_atom_site_charge
Mof_Co	Co	0.32987	0.14995	0.42774	1.081
Mof_Co	Co	0.31734	0.84147	0.50418	1.19
Mof_Co	Co	0.89971	0.67582	0.29437	1.187
Mof_Co	Co	0.39971	0.32418	0.20563	1.185
Mof_Co	Co	0.25848	0.59607	0.66036	1.086
Mof_Co	Co	0.60029	0.67582	0.79437	1.186
Mof_Co	Co	0.18266	0.84147	0.00418	1.178
Mof_Co	Co	0.74152	0.40393	0.33964	1.087
Mof_Co	Co	0.75848	0.40393	0.83964	1.088
Mof_Co	Co	0.17013	0.14995	0.92774	1.083
Mof_Co	Co	0.81734	0.15853	0.99582	1.195
Mof_Co	Co	0.24152	0.59607	0.16036	1.084
Mof_Co	Co	0.68266	0.15853	0.49582	1.188
Mof_Co	Co	0.5	0	-0	1.061
Mof_Co	Co	0.82987	0.85005	0.07226	1.086
Mof_Co	Co	0.67013	0.85005	0.57226	1.09
Mof_Co	Co	-8.99184e-33	-2.31404e-17	0.5	1.056
Mof_Co	Co	0.10029	0.32418	0.70563	1.184
Mof_H 	H 	0.715	0.375	0.137	0.157
Mof_H 	H 	0.78	0.568	0.624	0.162
Mof_H 	H 	0.005	0.091	0.842	0.159
Mof_H 	H 	0.115	0.743	0.234	0.213
Mof_H 	H 	0.298	0.298	0.969	0.112
Mof_H 	H 	0.615	0.257	0.266	0.215
Mof_H 	H 	0.285	0.625	0.863	0.162
Mof_H 	H 	0.22	0.432	0.376	0.157
Mof_H 	H 	0.192	0.038	0.489	0.054
Mof_H 	H 	0.202	0.298	0.469	0.098
Mof_H 	H 	0.385	0.743	0.734	0.217
Mof_H 	H 	0.308	0.038	0.989	0.058
Mof_H 	H 	0.72	0.568	0.124	0.157
Mof_H 	H 	0.495	0.091	0.342	0.193
Mof_H 	H 	0.215	0.625	0.363	0.158
Mof_H 	H 	0.702	0.702	0.031	0.089
Mof_H 	H 	0.28	0.432	0.876	0.163
Mof_H 	H 	0.798	0.702	0.531	0.103
Mof_H 	H 	0.808	0.962	0.511	0.151
Mof_H 	H 	0.995	0.909	0.158	0.236
Mof_H 	H 	0.505	0.909	0.658	0.21
Mof_H 	H 	0.785	0.375	0.637	0.16
Mof_H 	H 	0.692	0.962	0.011	0.141
Mof_H 	H 	0.885	0.257	0.766	0.218
Mof_C 	C 	0.3957	0.9181	0.6648	0.235
Mof_C 	C 	0.7774	0.5569	0.2094	0.205
Mof_C 	C 	0.4004	0.3262	0.0372	0.176
Mof_C 	C 	0.7953	0.6573	0.1516	0.209
Mof_C 	C 	0.7897	0.7425	0.4353	0.185
Mof_C 	C 	0.2047	0.3427	0.8484	0.21
Mof_C 	C 	0.2655	0.7164	0.3488	0.206
Mof_C 	C 	0.9708	0.2114	0.6956	0.255
Mof_C 	C 	0.5632	0.345	0.2756	0.217
Mof_C 	C 	0.823	0.0592	0.4907	0.198
Mof_C 	C 	0.0996	0.3262	0.5372	0.189
Mof_C 	C 	0.4708	0.7886	0.8044	0.233
Mof_C 	C 	0.5292	0.2114	0.1956	0.228
Mof_C 	C 	0.6043	0.0819	0.3352	0.222
Mof_C 	C 	0.7549	0.3186	0.0312	0.181
Mof_C 	C 	0.323	0.9408	0.0093	0.183
Mof_C 	C 	0.2549	0.6814	0.4688	0.209
Mof_C 	C 	0.2897	0.2575	0.0647	0.177
Mof_C 	C 	0.5996	0.6738	0.9628	0.213
Mof_C 	C 	0.8957	0.0819	0.8352	0.222
Mof_C 	C 	0.177	0.9408	0.5093	0.203
Mof_C 	C 	0.4826	0.8417	0.5564	0.225
Mof_C 	C 	0.0632	0.655	0.2244	0.196
Mof_C 	C 	0.4368	0.655	0.7244	0.219
Mof_C 	C 	0.2226	0.4431	0.7906	0.205
Mof_C 	C 	0.2953	0.3427	0.3484	0.208
Mof_C 	C 	0.7451	0.3186	0.5312	0.21
Mof_C 	C 	0.7982	0.0079	0.0249	0.17
Mof_C 	C 	0.2345	0.7164	0.8488	0.209
Mof_C 	C 	0.9004	0.6738	0.4628	0.198
Mof_C 	C 	0.0174	0.8417	0.0564	0.187
Mof_C 	C 	0.7655	0.2836	0.1512	0.204
Mof_C 	C 	0.2451	0.6814	0.9688	0.244
Mof_C 	C 	0.2774	0.4431	0.2906	0.203
Mof_C 	C 	0.9368	0.345	0.7756	0.241
Mof_C 	C 	0.2018	0.9921	0.9751	0.257
Mof_C 	C 	0.7103	0.7425	0.9353	0.188
Mof_C 	C 	0.7047	0.6573	0.6516	0.212
Mof_C 	C 	0.5174	0.1583	0.4436	0.217
Mof_C 	C 	0.7226	0.5569	0.7094	0.206
Mof_C 	C 	0.677	0.0592	0.9907	0.211
Mof_C 	C 	0.2982	0.9921	0.4751	0.249
Mof_C 	C 	0.0292	0.7886	0.3044	0.208
Mof_C 	C 	0.7018	0.0079	0.5249	0.169
Mof_C 	C 	0.1043	0.9181	0.1648	0.233
Mof_C 	C 	0.2103	0.2575	0.5647	0.179
Mof_C 	C 	0.7345	0.2836	0.6512	0.206
Mof_C 	C 	0.9826	0.1583	0.9436	0.25
Mof_N 	N 	0.663	0.5811	0.7645	-0.233
Mof_N 	N 	0.7575	0.7731	0.3303	-0.048
Mof_N 	N 	0.6973	0.0241	0.2553	-0.075
Mof_N 	N 	0.7269	0.7887	0.458	-0.229
Mof_N 	N 	0.337	0.4189	0.2355	-0.233
Mof_N 	N 	0.5114	0.3836	0.032	-0.054
Mof_N 	N 	0.802	0.2694	0.9077	-0.056
Mof_N 	N 	0.7361	0.3008	0.733	-0.233
Mof_N 	N 	0.2236	0.5167	0.72	-0.176
Mof_N 	N 	0.2425	0.2269	0.6697	-0.055
Mof_N 	N 	0.7578	0.3723	0.4971	-0.136
Mof_N 	N 	0.7734	0.3393	0.9203	-0.17
Mof_N 	N 	0.21001	0.7459	0.022	-0.248
Mof_N 	N 	0.9582	0.7729	0.3277	-0.225
Mof_N 	N 	0.837	0.5811	0.2645	-0.231
Mof_N 	N 	0.698	0.2153	0.6123	-0.234
Mof_N 	N 	0.084	0.0121	0.9404	-0.096
Mof_N 	N 	0.0306	0.8917	0.1353	-0.379
Mof_N 	N 	0.5405	0.763	0.4495	-0.046
Mof_N 	N 	0.075	0.7339	0.2454	-0.343
Mof_N 	N 	0.3405	0.0425	0.4518	-0.264
Mof_N 	N 	0.4935	0.3763	0.2647	-0.234
Mof_N 	N 	0.5623	0.6602	0.8919	-0.237
Mof_N 	N 	0.1752	0.8112	0.8268	-0.042
Mof_N 	N 	0.8292	0.7097	0.4848	-0.235
Mof_N 	N 	0.8276	0.7553	0.1195	-0.171
Mof_N 	N 	0.0405	0.237	0.0505	-0.071
Mof_N 	N 	0.2731	0.2113	0.542	-0.233
Mof_N 	N 	0.4495	0.8625	0.8448	-0.123
Mof_N 	N 	0.1661	0.4668	0.6906	-0.076
Mof_N 	N 	0.5418	0.7729	0.8277	-0.238
Mof_N 	N 	0.2764	0.5167	0.22	-0.176
Mof_N 	N 	0.2189	0.9987	0.4915	-0.228
Mof_N 	N 	0.198	0.7306	0.0923	-0.059
Mof_N 	N 	0.2578	0.6277	0.0029	-0.155
Mof_N 	N 	0.6595	0.9575	0.5482	-0.208
Mof_N 	N 	0.802	0.2153	0.1123	-0.237
Mof_N 	N 	0.7079	0.807	0.3903	-0.05
Mof_N 	N 	0.4945	0.5444	0.7078	-0.047
Mof_N 	N 	0.2079	0.193	0.1097	-0.065
Mof_N 	N 	0.2571	0.4083	0.3456	-0.281
Mof_N 	N 	0.8996	0.0556	0.4744	-0.243
Mof_N 	N 	0.7731	0.7887	0.958	-0.222
Mof_N 	N 	0.8339	0.5332	0.3094	-0.071
Mof_N 	N 	0.7293	0.0632	0.3275	-0.057
Mof_N 	N 	0.6661	0.5332	0.8094	-0.072
Mof_N 	N 	0.2361	0.6992	0.767	-0.234
Mof_N 	N 	0.0065	0.3763	0.7647	-0.256
Mof_N 	N 	0.7681	0.3293	0.6111	-0.278
Mof_N 	N 	0.6752	0.1888	0.6732	-0.047
Mof_N 	N 	0.844	0.0657	0.0189	-0.237
Mof_N 	N 	0.6724	0.7553	0.6195	-0.17
Mof_N 	N 	0.3299	0.8993	0.6205	-0.239
Mof_N 	N 	0.4595	0.237	0.5505	-0.048
Mof_N 	N 	0.0505	0.8625	0.3448	-0.131
Mof_N 	N 	0.4657	0.7612	0.4333	-0.043
Mof_N 	N 	0.427	0.8116	0.4999	-0.236
Mof_N 	N 	0.5306	0.1083	0.3647	-0.351
Mof_N 	N 	0.698	0.2694	0.4077	-0.058
Mof_N 	N 	0.5561	0.6469	0.0111	-0.125
Mof_N 	N 	0.302	0.7306	0.5923	-0.057
Mof_N 	N 	0.6004	0.0556	0.9744	-0.246
Mof_N 	N 	0.3023	0.7607	0.2563	-0.057
Mof_N 	N 	0.148	0.8355	0.532	-0.043
Mof_N 	N 	0.7811	0.0013	0.5085	-0.302
Mof_N 	N 	0.5065	0.6237	0.7353	-0.233
Mof_N 	N 	0.2747	0.3045	0.3982	-0.135
Mof_N 	N 	0.575	0.2661	0.2546	-0.349
Mof_N 	N 	0.1724	0.2447	0.8805	-0.173
Mof_N 	N 	0.0623	0.3398	0.6081	-0.245
Mof_N 	N 	0.584	0.9879	0.5596	-0.038
Mof_N 	N 	0.0114	0.6164	0.468	-0.055
Mof_N 	N 	0.7236	0.4833	0.78	-0.174
Mof_N 	N 	0.2734	0.6607	0.5797	-0.173
Mof_N 	N 	0.9457	0.8146	0.0273	-0.225
Mof_N 	N 	0.5671	0.8397	0.8878	-0.064
Mof_N 	N 	0.0561	0.3531	0.4889	-0.12
Mof_N 	N 	0.2707	0.9368	0.6725	-0.046
Mof_N 	N 	0.1701	0.8993	0.1205	-0.242
Mof_N 	N 	0.78999	0.2541	0.978	-0.219
Mof_N 	N 	0.791	0.1256	0.4881	-0.235
Mof_N 	N 	0.0814	0.9481	0.9575	-0.016
Mof_N 	N 	0.2253	0.3045	0.8982	-0.133
Mof_N 	N 	0.4186	0.9481	0.4575	-0.019
Mof_N 	N 	0.71001	0.2541	0.478	-0.232
Mof_N 	N 	0.7422	0.3723	0.9971	-0.121
Mof_N 	N 	0.7921	0.807	0.8903	-0.045
Mof_N 	N 	0.9377	0.6602	0.3919	-0.226
Mof_N 	N 	0.073	0.8116	0.9999	-0.218
Mof_N 	N 	0.916	0.9879	0.0596	-0.04
Mof_N 	N 	0.3101	0.2688	0.1429	-0.232
Mof_N 	N 	0.6422	0.6914	0.6981	-0.235
Mof_N 	N 	0.656	0.0657	0.5189	-0.232
Mof_N 	N 	0.2269	0.2113	0.042	-0.239
Mof_N 	N 	0.9495	0.1375	0.6552	-0.125
Mof_N 	N 	0.9657	0.2388	0.0667	-0.033
Mof_N 	N 	0.9878	0.8915	0.3969	-0.146
Mof_N 	N 	0.8405	0.9575	0.0482	-0.212
Mof_N 	N 	0.9886	0.3836	0.532	-0.032
Mof_N 	N 	0.3248	0.8112	0.3268	-0.042
Mof_N 	N 	0.4582	0.2271	0.1723	-0.24
Mof_N 	N 	0.1899	0.2688	0.6429	-0.232
Mof_N 	N 	0.7266	0.3393	0.4203	-0.172
Mof_N 	N 	0.1166	0.599	0.1919	-0.232
Mof_N 	N 	0.1595	0.0425	0.9518	-0.265
Mof_N 	N 	0.352	0.8355	0.032	-0.046
Mof_N 	N 	0.7764	0.4833	0.28	-0.175
Mof_N 	N 	0.6166	0.401	0.3081	-0.233
Mof_N 	N 	0.7319	0.3293	0.1111	-0.274
Mof_N 	N 	0.2319	0.6707	0.3889	-0.278
Mof_N 	N 	0.8248	0.1888	0.1732	-0.046
Mof_N 	N 	0.156	0.9343	0.9811	-0.231
Mof_N 	N 	0.344	0.9343	0.4811	-0.237
Mof_N 	N 	0.8578	0.6914	0.1981	-0.234
Mof_N 	N 	0.4694	0.8917	0.6353	-0.357
Mof_N 	N 	0.0775	0.5298	0.1815	-0.065
Mof_N 	N 	0.3339	0.4668	0.1906	-0.075
Mof_N 	N 	0.2266	0.6607	0.0797	-0.175
Mof_N 	N 	0.7639	0.3008	0.233	-0.232
Mof_N 	N 	0.925	0.2661	0.7546	-0.355
Mof_N 	N 	0.6708	0.7097	0.9848	-0.225
Mof_N 	N 	0.9935	0.6237	0.2353	-0.212
Mof_N 	N 	0.1223	0.2456	0.8235	-0.079
Mof_N 	N 	0.0418	0.2271	0.6723	-0.255
Mof_N 	N 	0.302	0.7847	0.3877	-0.234
Mof_N 	N 	0.9945	0.4556	0.7922	-0.032
Mof_N 	N 	0.7253	0.6955	0.6018	-0.132
Mof_N 	N 	0.4886	0.6164	0.968	-0.032
Mof_N 	N 	0.5814	0.0519	0.5425	-0.066
Mof_N 	N 	0.1175	0.9657	0.243	-0.119
Mof_N 	N 	0.4225	0.5298	0.6815	-0.06
Mof_N 	N 	0.291	0.8744	0.0119	-0.237
Mof_N 	N 	0.2811	0.9987	0.9915	-0.216
Mof_N 	N 	0.7618	0.496	0.7163	-0.125
Mof_N 	N 	0.0076	0.6238	0.3962	-0.059
Mof_N 	N 	0.5055	0.4556	0.2922	-0.047
Mof_N 	N 	0.2575	0.2269	0.1697	-0.056
Mof_N 	N 	0.2921	0.193	0.6097	-0.061
Mof_N 	N 	0.8834	0.401	0.8081	-0.234
Mof_N 	N 	0.3292	0.2903	0.0152	-0.245
Mof_N 	N 	0.8027	0.0241	0.7553	-0.074
Mof_N 	N 	0.9225	0.4702	0.8185	-0.055
Mof_N 	N 	0.7382	0.496	0.2163	-0.126
Mof_N 	N 	0.9186	0.0519	0.0425	-0.062
Mof_N 	N 	0.5343	0.2388	0.5667	-0.045
Mof_N 	N 	0.2429	0.4083	0.8456	-0.282
Mof_N 	N 	0.4439	0.3531	0.9889	-0.091
Mof_N 	N 	0.6977	0.2393	0.7437	-0.059
Mof_N 	N 	0.0842	0.8757	0.5388	-0.064
Mof_N 	N 	0.0671	0.1603	0.6122	-0.077
Mof_N 	N 	0.3777	0.2456	0.3235	-0.076
Mof_N 	N 	0.2293	0.9368	0.1725	-0.047
Mof_N 	N 	0.0122	0.1085	0.6031	-0.189
Mof_N 	N 	0.9924	0.3762	0.6038	-0.036
Mof_N 	N 	0.6175	0.0343	0.257	-0.132
Mof_N 	N 	0.9158	0.1243	0.4612	-0.063
Mof_N 	N 	0.5775	0.4702	0.3185	-0.06
Mof_N 	N 	0.6899	0.7312	0.8571	-0.232
Mof_N 	N 	0.1004	0.9444	0.5256	-0.226
Mof_N 	N 	0.5543	0.8146	0.5273	-0.23
Mof_N 	N 	0.3996	0.9444	0.0256	-0.226
Mof_N 	N 	0.5122	0.8915	0.8969	-0.153
Mof_N 	N 	0.3825	0.9657	0.743	-0.113
Mof_N 	N 	0.9694	0.1083	0.8647	-0.321
Mof_N 	N 	0.852	0.1645	0.468	-0.043
Mof_N 	N 	0.7425	0.7731	0.8303	-0.046
Mof_N 	N 	0.2681	0.6707	0.8889	-0.283
Mof_N 	N 	0.4329	0.1603	0.1122	-0.077
Mof_N 	N 	0.2422	0.6277	0.5029	-0.137
Mof_N 	N 	0.1422	0.3086	0.8019	-0.237
Mof_N 	N 	0.4377	0.3398	0.1081	-0.234
Mof_N 	N 	0.1973	0.9759	0.2447	-0.055
Mof_N 	N 	0.6701	0.1007	0.3795	-0.24
Mof_N 	N 	0.0543	0.1854	0.9727	-0.237
Mof_N 	N 	0.4457	0.1854	0.4727	-0.231
Mof_N 	N 	0.3276	0.2447	0.3805	-0.175
Mof_N 	N 	0.709	0.1256	0.9881	-0.233
Mof_N 	N 	0.4924	0.6238	0.8962	-0.046
Mof_N 	N 	0.7571	0.5917	0.1544	-0.281
Mof_N 	N 	0.7707	0.0632	0.8275	-0.057
Mof_N 	N 	0.9595	0.763	0.9495	-0.026
Mof_N 	N 	0.1977	0.7607	0.7563	-0.058
Mof_N 	N 	0.648	0.1645	0.968	-0.042
Mof_N 	N 	0.3834	0.599	0.6919	-0.233
Mof_N 	N 	0.5505	0.1375	0.1552	-0.134
Mof_N 	N 	0.927	0.1884	0.0001	-0.25
Mof_N 	N 	0.8825	0.0343	0.757	-0.126
Mof_N 	N 	0.209	0.8744	0.5119	-0.235
Mof_N 	N 	0.2382	0.504	0.2837	-0.126
Mof_N 	N 	0.9329	0.8397	0.3878	-0.065
Mof_N 	N 	0.8777	0.7544	0.1765	-0.069
Mof_N 	N 	0.0343	0.7612	0.9333	-0.051
Mof_N 	N 	0.573	0.1884	0.5001	-0.237
Mof_N 	N 	0.3027	0.9759	0.7447	-0.052
Mof_N 	N 	0.425	0.7339	0.7454	-0.349
Mof_N 	N 	0.3578	0.3086	0.3019	-0.236
Mof_N 	N 	0.1708	0.2903	0.5152	-0.236
Mof_N 	N 	0.2618	0.504	0.7837	-0.125
Mof_N 	N 	0.163	0.4189	0.7355	-0.234
Mof_N 	N 	0.4878	0.1085	0.1031	-0.178
Mof_N 	N 	0.28999	0.7459	0.522	-0.232
Mof_N 	N 	0.416	0.0121	0.4404	-0.091
Mof_N 	N 	0.9439	0.6469	0.5111	-0.095
Mof_N 	N 	0.5076	0.3762	0.1038	-0.05
Mof_N 	N 	0.198	0.7847	0.8877	-0.23
Mof_N 	N 	0.8023	0.2393	0.2437	-0.058
Mof_N 	N 	0.8101	0.7312	0.3571	-0.232
Mof_N 	N 	0.4158	0.8757	0.0388	-0.064
Mof_N 	N 	0.8299	0.1007	0.8795	-0.239
Mof_N 	N 	0.2639	0.6992	0.267	-0.233
Mof_N 	N 	0.7429	0.5917	0.6544	-0.282
Mof_N 	N 	0.7189	0.0013	0.0085	-0.307
Mof_N 	N 	0.6223	0.7544	0.6765	-0.072
Mof_N 	N 	0.5842	0.1243	0.9612	-0.066
Mof_N 	N 	0.0055	0.5444	0.2078	-0.063
Mof_N 	N 	0.7747	0.6955	0.1018	-0.134
_end
