data_functionalizedCrystal
_audit_creation_method	'EQeq! by Chris Wilmer'
_symmetry_space_group_name_H-M	'P1'
_symmetry_Int_Tables_number	1
_symmetry_cell_setting	triclinic
loop_
_symmetry_equiv_pos_as_xyz
  x,y,z
_cell_length_a	10.4163
_cell_length_b	10.542
_cell_length_c	17.0478
_cell_angle_alpha	90
_cell_angle_beta	95.854
_cell_angle_gamma	90
loop_
_atom_site_label
_atom_site_type_symbol
_atom_site_fract_x
_atom_site_fract_y
_atom_site_fract_z
_atom_site_charge
Mof_C 	C 	0.9577	0.2313	0.1137	0.377
Mof_C 	C 	0.8513	0.2813	0.1583	-0.097
Mof_C 	C 	0.878	0.3463	0.2279	0.041
Mof_H 	H 	0.9635	0.3585	0.2482	0.064
Mof_C 	C 	0.7797	0.3941	0.2687	-0.083
Mof_C 	C 	0.6533	0.3755	0.2376	0.03
Mof_H 	H 	0.5869	0.4087	0.2638	0.058
Mof_C 	C 	0.6231	0.3088	0.1684	-0.078
Mof_C 	C 	0.7227	0.2623	0.1286	0.033
Mof_H 	H 	0.7037	0.2179	0.0817	0.052
Mof_C 	C 	0.484	0.2829	0.1365	0.308
Mof_C 	C 	0.8101	0.4623	0.3461	0.337
Mof_Cd	Cd	0.24387	0.22521	0.07965	0.421
Mof_O 	O 	0.0701	0.254	0.1426	-0.328
Mof_O 	O 	0.9253	0.1758	0.0498	-0.292
Mof_O 	O 	0.3971	0.3142	0.179	-0.255
Mof_O 	O 	0.4629	0.2347	0.0705	-0.275
Mof_O 	O 	0.7235	0.53	0.3689	-0.277
Mof_O 	O 	0.9198	0.4427	0.3797	-0.272
Mof_C 	C 	0.0423	0.7313	0.3863	0.28
Mof_C 	C 	0.1487	0.7813	0.3417	-0.072
Mof_C 	C 	0.122	0.8463	0.2721	0.026
Mof_H 	H 	0.0365	0.8585	0.2518	0.049
Mof_C 	C 	0.2203	0.8941	0.2313	-0.086
Mof_C 	C 	0.3467	0.8755	0.2624	0.026
Mof_H 	H 	0.4131	0.9087	0.2362	0.065
Mof_C 	C 	0.3769	0.8088	0.3316	-0.065
Mof_C 	C 	0.2773	0.7623	0.3714	0.015
Mof_H 	H 	0.2963	0.7179	0.4183	0.063
Mof_C 	C 	0.516	0.7829	0.3635	0.304
Mof_C 	C 	0.1899	0.9623	0.1539	0.366
Mof_Cd	Cd	0.75613	0.72521	0.42035	0.451
Mof_O 	O 	0.9299	0.754	0.3574	-0.242
Mof_O 	O 	0.0747	0.6758	0.4502	-0.285
Mof_O 	O 	0.6029	0.8142	0.321	-0.245
Mof_O 	O 	0.5371	0.7347	0.4295	-0.262
Mof_O 	O 	0.2765	0.03	0.1311	-0.307
Mof_O 	O 	0.0802	0.9427	0.1203	-0.297
Mof_C 	C 	0.0423	0.7687	0.8863	0.277
Mof_C 	C 	0.1487	0.7187	0.8417	-0.062
Mof_C 	C 	0.122	0.6537	0.7721	0.018
Mof_H 	H 	0.0365	0.6415	0.7518	0.052
Mof_C 	C 	0.2203	0.6059	0.7313	-0.074
Mof_C 	C 	0.3467	0.6245	0.7624	0.018
Mof_H 	H 	0.4131	0.5913	0.7362	0.065
Mof_C 	C 	0.3769	0.6912	0.8316	-0.057
Mof_C 	C 	0.2773	0.7377	0.8714	0.009
Mof_H 	H 	0.2963	0.7821	0.9183	0.072
Mof_C 	C 	0.516	0.7171	0.8635	0.301
Mof_C 	C 	0.1899	0.5377	0.6539	0.336
Mof_Cd	Cd	0.75613	0.77479	0.92035	0.46
Mof_O 	O 	0.9299	0.746	0.8574	-0.239
Mof_O 	O 	0.0747	0.8242	0.9502	-0.265
Mof_O 	O 	0.6029	0.6858	0.821	-0.244
Mof_O 	O 	0.5371	0.7653	0.9295	-0.255
Mof_O 	O 	0.2765	0.47	0.6311	-0.279
Mof_O 	O 	0.0802	0.5573	0.6203	-0.296
Mof_C 	C 	0.9577	0.2687	0.6137	0.375
Mof_C 	C 	0.8513	0.2187	0.6583	-0.089
Mof_C 	C 	0.878	0.1537	0.7279	0.032
Mof_H 	H 	0.9635	0.1415	0.7482	0.067
Mof_C 	C 	0.7797	0.1059	0.7687	-0.07
Mof_C 	C 	0.6533	0.1245	0.7376	0.02
Mof_H 	H 	0.5869	0.0913	0.7638	0.059
Mof_C 	C 	0.6231	0.1912	0.6684	-0.07
Mof_C 	C 	0.7227	0.2377	0.6286	0.027
Mof_H 	H 	0.7037	0.2821	0.5817	0.059
Mof_C 	C 	0.484	0.2171	0.6365	0.306
Mof_C 	C 	0.8101	0.0377	0.8461	0.304
Mof_Cd	Cd	0.24387	0.27479	0.57965	0.426
Mof_O 	O 	0.0701	0.246	0.6426	-0.325
Mof_O 	O 	0.9253	0.3242	0.5498	-0.286
Mof_O 	O 	0.3971	0.1858	0.679	-0.254
Mof_O 	O 	0.4629	0.2653	0.5705	-0.268
Mof_O 	O 	0.7235	0.97	0.8689	-0.244
Mof_O 	O 	0.9198	0.0573	0.8797	-0.258
Mof_Cd	Cd	-0	0	-0	0.382
Mof_Cd	Cd	3.38116e-33	0.5	0.5	0.422
_end
