data_functionalizedCrystal
_audit_creation_method	'EQeq! by Chris Wilmer'
_symmetry_space_group_name_H-M	'P1'
_symmetry_Int_Tables_number	1
_symmetry_cell_setting	triclinic
loop_
_symmetry_equiv_pos_as_xyz
  x,y,z
_cell_length_a	19.764
_cell_length_b	19.948
_cell_length_c	12.039
_cell_angle_alpha	90
_cell_angle_beta	90
_cell_angle_gamma	90
loop_
_atom_site_label
_atom_site_type_symbol
_atom_site_fract_x
_atom_site_fract_y
_atom_site_fract_z
_atom_site_charge
Mof_Zn	Zn	0.25821	0.99203	0.03076	1.118
Mof_K 	K 	0.19622	0.94407	0.2854	3.651
Mof_O 	O 	0.2859	0.9165	0.1267	-0.999
Mof_O 	O 	0.1248	0.9426	0.097	-0.978
Mof_O 	O 	0.3187	0.8599	0.9777	-0.761
Mof_O 	O 	0.2949	0.6126	0.9875	-0.859
Mof_O 	O 	0.1778	0.9624	0.9391	-1.006
Mof_O 	O 	0.2679	0.562	0.1447	-0.992
Mof_C 	C 	0.305	0.7416	0.3237	-0.362
Mof_H 	H 	0.3093	0.7428	0.4006	0.05
Mof_C 	C 	0.3013	0.7381	0.0925	0.349
Mof_H 	H 	0.3017	0.7367	0.0153	-0.214
Mof_C 	C 	0.2981	0.6785	0.1522	-0.529
Mof_C 	C 	0.3039	0.7989	0.1462	-0.516
Mof_C 	C 	0.3044	0.8019	0.262	0.221
Mof_H 	H 	0.3044	0.8431	0.2981	-0.256
Mof_C 	C 	0.0606	0.9384	0.8145	0.415
Mof_H 	H 	0.1014	0.9378	0.7759	-0.291
Mof_C 	C 	0.0604	0.9425	0.9288	-0.72
Mof_C 	C 	0.2864	0.6138	0.0903	0.588
Mof_C 	C 	0.3015	0.864	0.0774	0.623
Mof_C 	C 	0.1248	0.9463	0.9958	0.809
Mof_C 	C 	0.2991	0.6797	0.2681	0.186
Mof_H 	H 	0.2959	0.64	0.3083	-0.193
Mof_O 	O 	0.323	0.0172	0.9096	-1.019
Mof_O 	O 	0.375	0.0467	0.0611	-0.875
Mof_C 	C 	0.3753	0.0374	0.9624	0.725
Mof_C 	C 	0.438	0.0474	0.8916	-0.598
Mof_C 	C 	0.4395	0.0525	0.7767	0.264
Mof_H 	H 	0.3989	0.0536	0.7377	-0.207
Mof_K 	K 	0.358	0.90066	0.7728	2.895
Mof_Zn	Zn	0.75821	0.49203	0.03076	1.121
Mof_K 	K 	0.69622	0.44407	0.2854	3.633
Mof_O 	O 	0.7859	0.4165	0.1267	-0.995
Mof_O 	O 	0.6248	0.4426	0.097	-0.974
Mof_O 	O 	0.8187	0.3599	0.9777	-0.759
Mof_O 	O 	0.7949	0.1126	0.9875	-0.86
Mof_O 	O 	0.6778	0.4624	0.9391	-1.004
Mof_O 	O 	0.7679	0.062	0.1447	-0.987
Mof_C 	C 	0.805	0.2416	0.3237	-0.362
Mof_H 	H 	0.8093	0.2428	0.4006	0.048
Mof_C 	C 	0.8013	0.2381	0.0925	0.344
Mof_H 	H 	0.8017	0.2367	0.0153	-0.212
Mof_C 	C 	0.7981	0.1785	0.1522	-0.53
Mof_C 	C 	0.8039	0.2989	0.1462	-0.516
Mof_C 	C 	0.8044	0.3019	0.262	0.216
Mof_H 	H 	0.8044	0.3431	0.2981	-0.255
Mof_C 	C 	0.5606	0.4384	0.8145	0.439
Mof_H 	H 	0.6014	0.4378	0.7759	-0.302
Mof_C 	C 	0.5604	0.4425	0.9288	-0.717
Mof_C 	C 	0.7864	0.1138	0.0903	0.588
Mof_C 	C 	0.8015	0.364	0.0774	0.62
Mof_C 	C 	0.6248	0.4463	0.9958	0.8
Mof_C 	C 	0.7991	0.1797	0.2681	0.182
Mof_H 	H 	0.7959	0.14	0.3083	-0.192
Mof_O 	O 	0.823	0.5172	0.9096	-1.012
Mof_O 	O 	0.875	0.5467	0.0611	-0.887
Mof_C 	C 	0.8753	0.5374	0.9624	0.734
Mof_C 	C 	0.938	0.5474	0.8916	-0.628
Mof_C 	C 	0.9395	0.5525	0.7767	0.186
Mof_H 	H 	0.8989	0.5536	0.7377	-0.184
Mof_K 	K 	0.858	0.40066	0.7728	2.791
Mof_Zn	Zn	0.74179	0.00797	0.53076	1.133
Mof_K 	K 	0.80378	0.05593	0.7854	3.611
Mof_O 	O 	0.7141	0.0835	0.6267	-1
Mof_O 	O 	0.8752	0.0574	0.597	-0.939
Mof_O 	O 	0.6813	0.1401	0.4777	-0.804
Mof_O 	O 	0.7051	0.3874	0.4875	-0.899
Mof_O 	O 	0.8222	0.0376	0.4391	-0.993
Mof_O 	O 	0.7321	0.438	0.6447	-0.993
Mof_C 	C 	0.695	0.2584	0.8237	-0.377
Mof_H 	H 	0.6907	0.2572	0.9006	0.066
Mof_C 	C 	0.6987	0.2619	0.5925	0.37
Mof_H 	H 	0.6983	0.2633	0.5153	-0.202
Mof_C 	C 	0.7019	0.3215	0.6522	-0.545
Mof_C 	C 	0.6961	0.2011	0.6462	-0.531
Mof_C 	C 	0.6956	0.1981	0.762	0.24
Mof_H 	H 	0.6956	0.1569	0.7981	-0.259
Mof_C 	C 	0.9394	0.0616	0.3145	0.276
Mof_H 	H 	0.8986	0.0622	0.2759	-0.251
Mof_C 	C 	0.9396	0.0575	0.4288	-0.664
Mof_C 	C 	0.7136	0.3862	0.5903	0.64
Mof_C 	C 	0.6985	0.136	0.5774	0.678
Mof_C 	C 	0.8752	0.0537	0.4958	0.721
Mof_C 	C 	0.7009	0.3203	0.7681	0.207
Mof_H 	H 	0.7041	0.36	0.8083	-0.195
Mof_O 	O 	0.677	0.9828	0.4096	-1.004
Mof_O 	O 	0.625	0.9533	0.5611	-0.837
Mof_C 	C 	0.6247	0.9626	0.4624	0.66
Mof_C 	C 	0.562	0.9526	0.3916	-0.538
Mof_C 	C 	0.5605	0.9475	0.2767	0.209
Mof_H 	H 	0.6011	0.9464	0.2377	-0.189
Mof_K 	K 	0.642	0.09934	0.2728	2.868
Mof_Zn	Zn	0.24179	0.50797	0.53076	1.132
Mof_K 	K 	0.30378	0.55593	0.7854	3.662
Mof_O 	O 	0.2141	0.5835	0.6267	-1.006
Mof_O 	O 	0.3752	0.5574	0.597	-0.93
Mof_O 	O 	0.1813	0.6401	0.4777	-0.805
Mof_O 	O 	0.2051	0.8874	0.4875	-0.899
Mof_O 	O 	0.3222	0.5376	0.4391	-0.996
Mof_O 	O 	0.2321	0.938	0.6447	-0.999
Mof_C 	C 	0.195	0.7584	0.8237	-0.377
Mof_H 	H 	0.1907	0.7572	0.9006	0.068
Mof_C 	C 	0.1987	0.7619	0.5925	0.375
Mof_H 	H 	0.1983	0.7633	0.5153	-0.203
Mof_C 	C 	0.2019	0.8215	0.6522	-0.547
Mof_C 	C 	0.1961	0.7011	0.6462	-0.533
Mof_C 	C 	0.1956	0.6981	0.762	0.244
Mof_H 	H 	0.1956	0.6569	0.7981	-0.261
Mof_C 	C 	0.4394	0.5616	0.3145	0.359
Mof_H 	H 	0.3986	0.5622	0.2759	-0.275
Mof_C 	C 	0.4396	0.5575	0.4288	-0.631
Mof_C 	C 	0.2136	0.8862	0.5903	0.642
Mof_C 	C 	0.1985	0.636	0.5774	0.682
Mof_C 	C 	0.3752	0.5537	0.4958	0.721
Mof_C 	C 	0.2009	0.8203	0.7681	0.208
Mof_H 	H 	0.2041	0.86	0.8083	-0.198
Mof_O 	O 	0.177	0.4828	0.4096	-1.008
Mof_O 	O 	0.125	0.4533	0.5611	-0.837
Mof_C 	C 	0.1247	0.4626	0.4624	0.661
Mof_C 	C 	0.062	0.4526	0.3916	-0.531
Mof_C 	C 	0.0605	0.4475	0.2767	0.173
Mof_H 	H 	0.1011	0.4464	0.2377	-0.175
Mof_K 	K 	0.142	0.59934	0.2728	2.89
Mof_Zn	Zn	0.25821	0.00797	0.53076	1.131
Mof_K 	K 	0.19622	0.05593	0.7854	3.671
Mof_O 	O 	0.2859	0.0835	0.6267	-1.006
Mof_O 	O 	0.1248	0.0574	0.597	-0.929
Mof_O 	O 	0.3187	0.1401	0.4777	-0.804
Mof_O 	O 	0.2949	0.3874	0.4875	-0.899
Mof_O 	O 	0.1778	0.0376	0.4391	-0.997
Mof_O 	O 	0.2679	0.438	0.6447	-1
Mof_C 	C 	0.305	0.2584	0.8237	-0.378
Mof_H 	H 	0.3093	0.2572	0.9006	0.065
Mof_C 	C 	0.3013	0.2619	0.5925	0.374
Mof_H 	H 	0.3017	0.2633	0.5153	-0.204
Mof_C 	C 	0.2981	0.3215	0.6522	-0.548
Mof_C 	C 	0.3039	0.2011	0.6462	-0.534
Mof_C 	C 	0.3044	0.1981	0.762	0.242
Mof_H 	H 	0.3044	0.1569	0.7981	-0.262
Mof_C 	C 	0.0606	0.0616	0.3145	0.327
Mof_H 	H 	0.1014	0.0622	0.2759	-0.262
Mof_C 	C 	0.0604	0.0575	0.4288	-0.628
Mof_C 	C 	0.2864	0.3862	0.5903	0.641
Mof_C 	C 	0.3015	0.136	0.5774	0.681
Mof_C 	C 	0.1248	0.0537	0.4958	0.723
Mof_C 	C 	0.2991	0.3203	0.7681	0.207
Mof_H 	H 	0.2959	0.36	0.8083	-0.199
Mof_O 	O 	0.323	0.9828	0.4096	-1.008
Mof_O 	O 	0.375	0.9533	0.5611	-0.837
Mof_C 	C 	0.3753	0.9626	0.4624	0.662
Mof_C 	C 	0.438	0.9526	0.3916	-0.539
Mof_C 	C 	0.4395	0.9475	0.2767	0.21
Mof_H 	H 	0.3989	0.9464	0.2377	-0.189
Mof_K 	K 	0.358	0.09934	0.2728	2.863
Mof_Zn	Zn	0.75821	0.50797	0.53076	1.133
Mof_K 	K 	0.69622	0.55593	0.7854	3.668
Mof_O 	O 	0.7859	0.5835	0.6267	-1.004
Mof_O 	O 	0.6248	0.5574	0.597	-0.93
Mof_O 	O 	0.8187	0.6401	0.4777	-0.799
Mof_O 	O 	0.7949	0.8874	0.4875	-0.897
Mof_O 	O 	0.6778	0.5376	0.4391	-0.995
Mof_O 	O 	0.7679	0.938	0.6447	-0.994
Mof_C 	C 	0.805	0.7584	0.8237	-0.377
Mof_H 	H 	0.8093	0.7572	0.9006	0.064
Mof_C 	C 	0.8013	0.7619	0.5925	0.368
Mof_H 	H 	0.8017	0.7633	0.5153	-0.204
Mof_C 	C 	0.7981	0.8215	0.6522	-0.548
Mof_C 	C 	0.8039	0.7011	0.6462	-0.534
Mof_C 	C 	0.8044	0.6981	0.762	0.237
Mof_H 	H 	0.8044	0.6569	0.7981	-0.261
Mof_C 	C 	0.5606	0.5616	0.3145	0.359
Mof_H 	H 	0.6014	0.5622	0.2759	-0.275
Mof_C 	C 	0.5604	0.5575	0.4288	-0.631
Mof_C 	C 	0.7864	0.8862	0.5903	0.635
Mof_C 	C 	0.8015	0.636	0.5774	0.674
Mof_C 	C 	0.6248	0.5537	0.4958	0.721
Mof_C 	C 	0.7991	0.8203	0.7681	0.201
Mof_H 	H 	0.7959	0.86	0.8083	-0.197
Mof_O 	O 	0.823	0.4828	0.4096	-1
Mof_O 	O 	0.875	0.4533	0.5611	-0.84
Mof_C 	C 	0.8753	0.4626	0.4624	0.656
Mof_C 	C 	0.938	0.4526	0.3916	-0.562
Mof_C 	C 	0.9395	0.4475	0.2767	0.122
Mof_H 	H 	0.8989	0.4464	0.2377	-0.162
Mof_K 	K 	0.858	0.59934	0.2728	2.766
Mof_Zn	Zn	0.74179	0.99203	0.03076	1.12
Mof_K 	K 	0.80378	0.94407	0.2854	3.589
Mof_O 	O 	0.7141	0.9165	0.1267	-0.991
Mof_O 	O 	0.8752	0.9426	0.097	-0.99
Mof_O 	O 	0.6813	0.8599	0.9777	-0.758
Mof_O 	O 	0.7051	0.6126	0.9875	-0.856
Mof_O 	O 	0.8222	0.9624	0.9391	-1
Mof_O 	O 	0.7321	0.562	0.1447	-0.983
Mof_C 	C 	0.695	0.7416	0.3237	-0.36
Mof_H 	H 	0.6907	0.7428	0.4006	0.051
Mof_C 	C 	0.6987	0.7381	0.0925	0.344
Mof_H 	H 	0.6983	0.7367	0.0153	-0.213
Mof_C 	C 	0.7019	0.6785	0.1522	-0.524
Mof_C 	C 	0.6961	0.7989	0.1462	-0.512
Mof_C 	C 	0.6956	0.8019	0.262	0.218
Mof_H 	H 	0.6956	0.8431	0.2981	-0.253
Mof_C 	C 	0.9394	0.9384	0.8145	0.366
Mof_H 	H 	0.8986	0.9378	0.7759	-0.281
Mof_C 	C 	0.9396	0.9425	0.9288	-0.754
Mof_C 	C 	0.7136	0.6138	0.0903	0.585
Mof_C 	C 	0.6985	0.864	0.0774	0.618
Mof_C 	C 	0.8752	0.9463	0.9958	0.812
Mof_C 	C 	0.7009	0.6797	0.2681	0.186
Mof_H 	H 	0.7041	0.64	0.3083	-0.189
Mof_O 	O 	0.677	0.0172	0.9096	-1.015
Mof_O 	O 	0.625	0.0467	0.0611	-0.875
Mof_C 	C 	0.6247	0.0374	0.9624	0.725
Mof_C 	C 	0.562	0.0474	0.8916	-0.598
Mof_C 	C 	0.5605	0.0525	0.7767	0.263
Mof_H 	H 	0.6011	0.0536	0.7377	-0.206
Mof_K 	K 	0.642	0.90066	0.7728	2.9
Mof_Zn	Zn	0.24179	0.49203	0.03076	1.12
Mof_K 	K 	0.30378	0.44407	0.2854	3.627
Mof_O 	O 	0.2141	0.4165	0.1267	-0.997
Mof_O 	O 	0.3752	0.4426	0.097	-0.973
Mof_O 	O 	0.1813	0.3599	0.9777	-0.767
Mof_O 	O 	0.2051	0.1126	0.9875	-0.865
Mof_O 	O 	0.3222	0.4624	0.9391	-1.006
Mof_O 	O 	0.2321	0.062	0.1447	-0.991
Mof_C 	C 	0.195	0.2416	0.3237	-0.363
Mof_H 	H 	0.1907	0.2428	0.4006	0.053
Mof_C 	C 	0.1987	0.2381	0.0925	0.353
Mof_H 	H 	0.1983	0.2367	0.0153	-0.211
Mof_C 	C 	0.2019	0.1785	0.1522	-0.53
Mof_C 	C 	0.1961	0.2989	0.1462	-0.516
Mof_C 	C 	0.1956	0.3019	0.262	0.225
Mof_H 	H 	0.1956	0.3431	0.2981	-0.256
Mof_C 	C 	0.4394	0.4384	0.8145	0.439
Mof_H 	H 	0.3986	0.4378	0.7759	-0.302
Mof_C 	C 	0.4396	0.4425	0.9288	-0.717
Mof_C 	C 	0.2136	0.1138	0.0903	0.598
Mof_C 	C 	0.1985	0.364	0.0774	0.631
Mof_C 	C 	0.3752	0.4463	0.9958	0.799
Mof_C 	C 	0.2009	0.1797	0.2681	0.19
Mof_H 	H 	0.2041	0.14	0.3083	-0.194
Mof_O 	O 	0.177	0.5172	0.9096	-1.019
Mof_O 	O 	0.125	0.5467	0.0611	-0.882
Mof_C 	C 	0.1247	0.5374	0.9624	0.734
Mof_C 	C 	0.062	0.5474	0.8916	-0.598
Mof_C 	C 	0.0605	0.5525	0.7767	0.236
Mof_H 	H 	0.1011	0.5536	0.7377	-0.196
Mof_K 	K 	0.142	0.40066	0.7728	2.911
Mof_C 	C 	2.35255e-32	0.9425	0.9859	0.684
Mof_H 	H 	1.11137e-32	0.9425	0.0632	-0.312
Mof_C 	C 	7.04829e-33	0.9352	0.7574	-0.488
Mof_H 	H 	1.21911e-32	0.9308	0.6805	0.12
Mof_C 	C 	0.5	0.4425	0.9859	0.617
Mof_H 	H 	0.5	0.4425	0.0632	-0.302
Mof_C 	C 	0.5	0.4352	0.7574	-0.577
Mof_H 	H 	0.5	0.4308	0.6805	0.136
Mof_C 	C 	1.10975e-33	0.0575	0.4859	0.525
Mof_H 	H 	1.28629e-33	0.0575	0.5632	-0.233
Mof_C 	C 	-7.41739e-34	0.0648	0.2574	-0.401
Mof_H 	H 	4.12244e-34	0.0692	0.1805	0.084
Mof_C 	C 	0.5	0.5575	0.4859	0.467
Mof_H 	H 	0.5	0.5575	0.5632	-0.227
Mof_C 	C 	0.5	0.5648	0.2574	-0.5
Mof_H 	H 	0.5	0.5692	0.1805	0.103
Mof_C 	C 	0.5	0.0457	0.9511	0.448
Mof_H 	H 	0.5	0.0435	0.0283	-0.262
Mof_C 	C 	0.5	0.056	0.7184	-0.42
Mof_H 	H 	0.5	0.0606	0.6415	0.09
Mof_O 	O 	0.5	0.8769	0.829	-0.802
Mof_C 	C 	1.28091e-32	0.5457	0.9511	0.51
Mof_H 	H 	1.56045e-33	0.5435	0.0283	-0.272
Mof_C 	C 	1.22777e-32	0.556	0.7184	-0.329
Mof_H 	H 	-1.19411e-33	0.5606	0.6415	0.072
Mof_O 	O 	7.21181e-33	0.3769	0.829	-0.773
Mof_C 	C 	0.5	0.9543	0.4511	0.34
Mof_H 	H 	0.5	0.9565	0.5283	-0.205
Mof_C 	C 	0.5	0.944	0.2184	-0.367
Mof_H 	H 	0.5	0.9394	0.1415	0.064
Mof_O 	O 	0.5	0.1231	0.329	-0.806
Mof_C 	C 	-1.62896e-33	0.4543	0.4511	0.39
Mof_H 	H 	6.52504e-33	0.4565	0.5283	-0.207
Mof_C 	C 	1.82842e-33	0.444	0.2184	-0.265
Mof_H 	H 	3.64721e-33	0.4394	0.1415	0.044
Mof_O 	O 	7.51403e-34	0.6231	0.329	-0.776
_end
