data_functionalizedCrystal
_audit_creation_method	'EQeq! by Chris Wilmer'
_symmetry_space_group_name_H-M	'P1'
_symmetry_Int_Tables_number	1
_symmetry_cell_setting	triclinic
loop_
_symmetry_equiv_pos_as_xyz
  x,y,z
_cell_length_a	14.604
_cell_length_b	15.309
_cell_length_c	22.87
_cell_angle_alpha	84.603
_cell_angle_beta	83.64
_cell_angle_gamma	86.655
loop_
_atom_site_label
_atom_site_type_symbol
_atom_site_fract_x
_atom_site_fract_y
_atom_site_fract_z
_atom_site_charge
Mof_Sm	Sm	0.70782	0.62002	0.25937	2.48
Mof_O 	O 	0.6104	0.5008	0.2808	-0.698
Mof_O 	O 	0.7996	0.6963	0.3286	-0.678
Mof_O 	O 	0.6736	0.6315	0.3669	-0.505
Mof_O 	O 	0.5616	0.7031	0.2664	-0.549
Mof_O 	O 	0.8331	0.701	0.2095	-0.71
Mof_O 	O 	0.6698	0.7934	0.2716	-0.66
Mof_O 	O 	0.8167	0.5198	0.3003	-0.608
Mof_O 	O 	0.7395	0.5195	0.1786	-0.671
Mof_O 	O 	0.6677	0.6453	0.1544	-0.5
Mof_Sm	Sm	0.68093	0.37056	0.21673	2.365
Mof_C 	C 	0.5314	0.4666	0.2856	0.493
Mof_Sm	Sm	0.82876	0.8336	0.27233	2.282
Mof_C 	C 	0.7466	0.666	0.3739	0.482
Mof_C 	C 	0.5863	0.7745	0.28	0.543
Mof_C 	C 	0.7131	0.5794	0.1391	0.43
Mof_O 	O 	0.5181	0.4032	0.2567	-0.511
Mof_O 	O 	0.7865	0.3269	0.1346	-0.55
Mof_O 	O 	0.8195	0.2343	0.2098	-0.668
Mof_O 	O 	0.8167	0.3957	0.257	-0.593
Mof_O 	O 	0.6684	0.3	0.3128	-0.609
Mof_O 	O 	0.6014	0.2483	0.191	-0.601
Mof_C 	C 	0.4552	0.5013	0.3275	-0.314
Mof_O 	O 	0.9133	0.9634	0.2606	-0.701
Mof_O 	O 	0.7582	0.952	0.2125	-0.647
Mof_O 	O 	0.9294	0.8041	0.1795	-0.507
Mof_O 	O 	0.8031	0.871	0.3691	-0.608
Mof_C 	C 	0.7737	0.6717	0.4343	-0.301
Mof_C 	C 	0.5163	0.8383	0.3059	-0.388
Mof_C 	C 	0.7423	0.5664	0.076	-0.301
Mof_C 	C 	0.4698	0.5582	0.3682	0.3
Mof_C 	C 	0.3659	0.4739	0.326	0.263
Mof_Sm	Sm	0.79191	0.09765	0.26424	2.594
Mof_C 	C 	0.9758	0.0175	0.2618	0.451
Mof_C 	C 	0.7918	0.9898	0.1639	0.484
Mof_C 	C 	0.865	0.6813	0.4419	0.278
Mof_C 	C 	0.7075	0.6684	0.4824	0.26
Mof_C 	C 	0.5388	0.9162	0.3225	0.351
Mof_C 	C 	0.4267	0.8156	0.3152	0.337
Mof_C 	C 	0.8216	0.5121	0.0623	0.244
Mof_C 	C 	0.6984	0.6073	0.0313	0.251
Mof_C 	C 	0.3979	0.587	0.4067	-0.426
Mof_H 	H 	0.5287	0.5773	0.3697	-0.065
Mof_C 	C 	0.2952	0.5033	0.3648	-0.389
Mof_H 	H 	0.3545	0.4357	0.2986	-0.045
Mof_O 	O 	0.9561	0.0879	0.2864	-0.514
Mof_O 	O 	0.8218	0.0669	0.1608	-0.537
Mof_O 	O 	0.7672	0.193	0.3383	-0.651
Mof_O 	O 	0.6462	0.1252	0.2408	-0.663
Mof_O 	O 	0.7375	0.9994	0.3422	-0.654
Mof_C 	C 	0.0691	0.0031	0.2321	-0.29
Mof_C 	C 	0.7942	0.9444	0.1099	-0.342
Mof_H 	H 	0.9092	0.6845	0.4093	-0.077
Mof_C 	C 	0.891	0.6863	0.4978	-0.39
Mof_H 	H 	0.6461	0.6615	0.4773	-0.054
Mof_C 	C 	0.7324	0.6752	0.5378	-0.379
Mof_H 	H 	0.5996	0.9328	0.3165	-0.1
Mof_C 	C 	0.4691	0.9719	0.3491	-0.463
Mof_H 	H 	0.4113	0.7613	0.3052	-0.071
Mof_C 	C 	0.3585	0.8716	0.3392	-0.461
Mof_H 	H 	0.8538	0.4845	0.0923	-0.05
Mof_C 	C 	0.8513	0.5001	0.0037	-0.381
Mof_H 	H 	0.6482	0.6458	0.0401	-0.055
Mof_C 	C 	0.7256	0.5938	0.9735	-0.362
Mof_H 	H 	0.4086	0.6259	0.4338	0.183
Mof_C 	C 	0.3121	0.5596	0.4058	0.406
Mof_H 	H 	0.2358	0.4854	0.3636	0.183
Mof_C 	C 	0.0789	0.958	0.1811	0.22
Mof_C 	C 	0.1464	0.0362	0.2501	0.243
Mof_C 	C 	0.8535	0.9696	0.0608	0.305
Mof_C 	C 	0.7416	0.8741	0.1084	0.306
Mof_H 	H 	0.9525	0.6909	0.5034	0.17
Mof_C 	C 	0.8233	0.6843	0.5451	0.379
Mof_H 	H 	0.6879	0.6737	0.5702	0.179
Mof_H 	H 	0.4845	0.0245	0.3618	0.199
Mof_C 	C 	0.3809	0.9497	0.3561	0.454
Mof_H 	H 	0.2974	0.856	0.3438	0.197
Mof_C 	C 	0.8036	0.5398	0.9598	0.377
Mof_H 	H 	0.904	0.4649	0.9944	0.168
Mof_H 	H 	0.6923	0.6204	0.9436	0.171
Mof_O 	O 	0.2358	0.5869	0.442	-0.374
Mof_H 	H 	0.0285	0.9322	0.1695	-0.048
Mof_C 	C 	0.1637	0.9522	0.1481	-0.345
Mof_H 	H 	0.1409	0.0643	0.2847	-0.043
Mof_C 	C 	0.231	0.0284	0.2179	-0.37
Mof_H 	H 	0.8895	0.0176	0.0612	-0.069
Mof_C 	C 	0.86	0.9238	0.0109	-0.417
Mof_H 	H 	0.7013	0.8567	0.1413	-0.085
Mof_C 	C 	0.7474	0.8282	0.0586	-0.407
Mof_O 	O 	0.8428	0.6977	0.6017	-0.367
Mof_O 	O 	0.3131	0.0079	0.3779	-0.384
Mof_O 	O 	0.8275	0.5325	0.901	-0.354
Mof_C 	C 	0.2492	0.6238	0.4936	0.436
Mof_C 	C 	0.2403	0.9884	0.1654	0.361
Mof_H 	H 	0.1697	0.9235	0.1137	0.165
Mof_H 	H 	0.2824	0.05	0.2313	0.17
Mof_C 	C 	0.8079	0.8535	0.0102	0.409
Mof_H 	H 	0.9	0.9413	0.9779	0.182
Mof_H 	H 	0.7108	0.7807	0.0579	0.192
Mof_C 	C 	0.922	0.6618	0.6228	0.423
Mof_C 	C 	0.299	0.0162	0.4371	0.414
Mof_C 	C 	0.8941	0.4682	0.8844	0.395
Mof_C 	C 	0.298	0.5781	0.5351	-0.477
Mof_C 	C 	0.208	0.7037	0.5022	-0.437
Mof_O 	O 	0.3196	0.9817	0.1285	-0.361
Mof_O 	O 	0.8091	0.8058	0.9617	-0.367
Mof_C 	C 	0.9606	0.5802	0.6099	-0.431
Mof_C 	C 	0.9575	0.7085	0.662	-0.438
Mof_C 	C 	0.2445	0.0877	0.4535	-0.412
Mof_C 	C 	0.3309	0.9548	0.4802	-0.428
Mof_C 	C 	0.973	0.4929	0.8529	-0.414
Mof_C 	C 	0.8775	0.3809	0.8969	-0.38
Mof_H 	H 	0.3251	0.5231	0.5282	0.208
Mof_C 	C 	0.3067	0.6135	0.5866	0.371
Mof_C 	C 	0.2186	0.7402	0.5552	0.319
Mof_H 	H 	0.1738	0.7336	0.474	0.188
Mof_C 	C 	0.392	0.028	0.1429	0.45
Mof_C 	C 	0.8974	0.7857	0.9333	0.439
Mof_C 	C 	0.0366	0.5463	0.6372	0.317
Mof_H 	H 	0.9357	0.5484	0.5833	0.187
Mof_C 	C 	0.033	0.6747	0.6886	0.336
Mof_H 	H 	0.9307	0.7631	0.6706	0.204
Mof_C 	C 	0.2269	0.1009	0.513	0.307
Mof_H 	H 	0.2197	0.1268	0.4251	0.199
Mof_C 	C 	0.3112	0.9681	0.5391	0.328
Mof_H 	H 	0.3654	0.9049	0.4691	0.181
Mof_C 	C 	0.0388	0.43	0.8327	0.298
Mof_H 	H 	0.9837	0.5522	0.8445	0.189
Mof_C 	C 	0.9421	0.3166	0.8761	0.241
Mof_H 	H 	0.8231	0.3643	0.9193	0.168
Mof_H 	H 	0.3394	0.5819	0.615	-0.099
Mof_C 	C 	0.2679	0.6953	0.5971	-0.401
Mof_H 	H 	0.1918	0.7955	0.5619	-0.073
Mof_C 	C 	0.461	0.9834	0.1686	-0.452
Mof_C 	C 	0.3927	0.1159	0.1295	-0.466
Mof_C 	C 	0.9096	0.8031	0.8742	-0.45
Mof_C 	C 	0.9644	0.7462	0.9635	-0.448
Mof_C 	C 	0.0723	0.5925	0.6778	-0.383
Mof_H 	H 	0.0639	0.4921	0.6281	-0.071
Mof_H 	H 	0.0583	0.7076	0.7145	-0.08
Mof_C 	C 	0.2589	0.0398	0.5543	-0.374
Mof_H 	H 	0.1935	0.1511	0.5246	-0.062
Mof_H 	H 	0.3337	0.9283	0.568	-0.083
Mof_H 	H 	0.0929	0.4479	0.8105	-0.091
Mof_C 	C 	0.0252	0.3426	0.8448	-0.323
Mof_H 	H 	0.9298	0.2574	0.8831	-0.048
Mof_C 	C 	0.2777	0.7386	0.6525	0.638
Mof_H 	H 	0.4622	0.9224	0.1735	0.203
Mof_C 	C 	0.5309	0.028	0.188	0.339
Mof_C 	C 	0.4599	0.1633	0.1481	0.344
Mof_H 	H 	0.3479	0.1444	0.1078	0.211
Mof_C 	C 	0.9949	0.7852	0.8431	0.342
Mof_H 	H 	0.8608	0.8271	0.8541	0.203
Mof_C 	C 	0.0496	0.7279	0.9333	0.316
Mof_H 	H 	0.9537	0.7315	0.004	0.195
Mof_C 	C 	0.1509	0.5555	0.7087	0.6
Mof_C 	C 	0.2374	0.0575	0.618	0.572
Mof_C 	C 	0.0915	0.2751	0.8178	0.483
Mof_H 	H 	0.5779	0.998	0.2072	-0.08
Mof_C 	C 	0.5278	0.1176	0.1777	-0.389
Mof_H 	H 	0.4594	0.2241	0.1409	-0.086
Mof_C 	C 	0.0644	0.7484	0.8731	-0.366
Mof_H 	H 	0.004	0.7982	0.8024	-0.099
Mof_H 	H 	0.0972	0.7016	0.9536	-0.071
Mof_C 	C 	0.5959	0.168	0.2044	0.617
Mof_C 	C 	0.1588	0.7291	0.8421	0.529
Mof_Sm	Sm	0.29218	0.37998	0.74063	2.481
Mof_O 	O 	0.3896	0.4992	0.7192	-0.697
Mof_O 	O 	0.2004	0.3037	0.6714	-0.677
Mof_O 	O 	0.3264	0.3685	0.6331	-0.504
Mof_O 	O 	0.4384	0.2969	0.7336	-0.548
Mof_O 	O 	0.1669	0.299	0.7905	-0.709
Mof_O 	O 	0.3302	0.2066	0.7284	-0.66
Mof_O 	O 	0.1833	0.4802	0.6997	-0.608
Mof_O 	O 	0.2605	0.4805	0.8214	-0.671
Mof_O 	O 	0.3323	0.3547	0.8456	-0.5
Mof_Sm	Sm	0.31907	0.62944	0.78327	2.365
Mof_C 	C 	0.4686	0.5334	0.7144	0.493
Mof_Sm	Sm	0.17124	0.1664	0.72767	2.282
Mof_C 	C 	0.2534	0.334	0.6261	0.482
Mof_C 	C 	0.4137	0.2255	0.72	0.543
Mof_C 	C 	0.2869	0.4206	0.8609	0.43
Mof_O 	O 	0.4819	0.5968	0.7433	-0.511
Mof_O 	O 	0.2135	0.6731	0.8654	-0.55
Mof_O 	O 	0.1805	0.7657	0.7902	-0.668
Mof_O 	O 	0.1833	0.6043	0.743	-0.593
Mof_O 	O 	0.3316	0.7	0.6872	-0.609
Mof_O 	O 	0.3986	0.7517	0.809	-0.601
Mof_C 	C 	0.5448	0.4987	0.6725	-0.314
Mof_O 	O 	0.0867	0.0366	0.7394	-0.701
Mof_O 	O 	0.2418	0.048	0.7875	-0.647
Mof_O 	O 	0.0706	0.1959	0.8205	-0.507
Mof_O 	O 	0.1969	0.129	0.6309	-0.608
Mof_C 	C 	0.2263	0.3283	0.5657	-0.301
Mof_C 	C 	0.4837	0.1617	0.6941	-0.388
Mof_C 	C 	0.2577	0.4336	0.924	-0.301
Mof_C 	C 	0.5302	0.4418	0.6318	0.3
Mof_C 	C 	0.6341	0.5261	0.674	0.263
Mof_Sm	Sm	0.20809	0.90235	0.73576	2.594
Mof_C 	C 	0.0242	0.9825	0.7382	0.451
Mof_C 	C 	0.2082	0.0102	0.8361	0.484
Mof_C 	C 	0.135	0.3187	0.5581	0.278
Mof_C 	C 	0.2925	0.3316	0.5176	0.26
Mof_C 	C 	0.4612	0.0838	0.6775	0.351
Mof_C 	C 	0.5733	0.1844	0.6848	0.337
Mof_C 	C 	0.1784	0.4879	0.9377	0.244
Mof_C 	C 	0.3016	0.3927	0.9687	0.251
Mof_C 	C 	0.6021	0.413	0.5933	-0.426
Mof_H 	H 	0.4713	0.4227	0.6303	-0.065
Mof_C 	C 	0.7048	0.4967	0.6352	-0.389
Mof_H 	H 	0.6455	0.5643	0.7014	-0.045
Mof_O 	O 	0.0439	0.9121	0.7136	-0.514
Mof_O 	O 	0.1782	0.9331	0.8392	-0.537
Mof_O 	O 	0.2328	0.807	0.6617	-0.651
Mof_O 	O 	0.3538	0.8748	0.7592	-0.663
Mof_O 	O 	0.2625	0.0006	0.6578	-0.654
Mof_C 	C 	0.9309	0.9969	0.7679	-0.29
Mof_C 	C 	0.2058	0.0556	0.8901	-0.342
Mof_H 	H 	0.0908	0.3155	0.5907	-0.077
Mof_C 	C 	0.109	0.3137	0.5022	-0.39
Mof_H 	H 	0.3539	0.3385	0.5227	-0.054
Mof_C 	C 	0.2676	0.3248	0.4622	-0.379
Mof_H 	H 	0.4004	0.0672	0.6835	-0.1
Mof_C 	C 	0.5309	0.0281	0.6509	-0.463
Mof_H 	H 	0.5887	0.2387	0.6948	-0.071
Mof_C 	C 	0.6415	0.1284	0.6608	-0.461
Mof_H 	H 	0.1462	0.5155	0.9077	-0.05
Mof_C 	C 	0.1487	0.4999	0.9963	-0.381
Mof_H 	H 	0.3518	0.3542	0.9599	-0.055
Mof_C 	C 	0.2744	0.4062	0.0265	-0.362
Mof_H 	H 	0.5914	0.3741	0.5662	0.183
Mof_C 	C 	0.6879	0.4404	0.5942	0.406
Mof_H 	H 	0.7642	0.5146	0.6364	0.183
Mof_C 	C 	0.9211	0.042	0.8189	0.22
Mof_C 	C 	0.8536	0.9638	0.7499	0.243
Mof_C 	C 	0.1465	0.0304	0.9392	0.305
Mof_C 	C 	0.2584	0.1259	0.8916	0.306
Mof_H 	H 	0.0475	0.3091	0.4966	0.17
Mof_C 	C 	0.1767	0.3157	0.4549	0.379
Mof_H 	H 	0.3121	0.3263	0.4298	0.179
Mof_H 	H 	0.5155	0.9755	0.6382	0.199
Mof_C 	C 	0.6191	0.0503	0.6439	0.454
Mof_H 	H 	0.7026	0.144	0.6562	0.197
Mof_C 	C 	0.1964	0.4602	0.0402	0.377
Mof_H 	H 	0.096	0.5351	0.0056	0.168
Mof_H 	H 	0.3077	0.3796	0.0564	0.171
Mof_O 	O 	0.7642	0.4131	0.558	-0.374
Mof_H 	H 	0.9715	0.0678	0.8305	-0.048
Mof_C 	C 	0.8363	0.0478	0.8519	-0.345
Mof_H 	H 	0.8591	0.9357	0.7153	-0.043
Mof_C 	C 	0.769	0.9716	0.7821	-0.37
Mof_H 	H 	0.1105	0.9824	0.9388	-0.069
Mof_C 	C 	0.14	0.0762	0.9891	-0.417
Mof_H 	H 	0.2987	0.1433	0.8587	-0.085
Mof_C 	C 	0.2526	0.1718	0.9414	-0.407
Mof_O 	O 	0.1572	0.3023	0.3983	-0.367
Mof_O 	O 	0.6869	0.9921	0.6221	-0.384
Mof_O 	O 	0.1725	0.4675	0.099	-0.354
Mof_C 	C 	0.7508	0.3762	0.5064	0.436
Mof_C 	C 	0.7597	0.0116	0.8346	0.361
Mof_H 	H 	0.8303	0.0765	0.8863	0.165
Mof_H 	H 	0.7176	0.95	0.7687	0.17
Mof_C 	C 	0.1921	0.1465	0.9898	0.409
Mof_H 	H 	0.1	0.0587	0.0221	0.182
Mof_H 	H 	0.2892	0.2193	0.9421	0.192
Mof_C 	C 	0.078	0.3382	0.3772	0.423
Mof_C 	C 	0.701	0.9838	0.5629	0.414
Mof_C 	C 	0.1059	0.5318	0.1156	0.395
Mof_C 	C 	0.702	0.4219	0.4649	-0.477
Mof_C 	C 	0.792	0.2963	0.4978	-0.437
Mof_O 	O 	0.6804	0.0183	0.8715	-0.361
Mof_O 	O 	0.1909	0.1942	0.0383	-0.367
Mof_C 	C 	0.0394	0.4198	0.3901	-0.431
Mof_C 	C 	0.0425	0.2915	0.338	-0.438
Mof_C 	C 	0.7555	0.9123	0.5465	-0.412
Mof_C 	C 	0.6691	0.0452	0.5198	-0.428
Mof_C 	C 	0.027	0.5071	0.1471	-0.414
Mof_C 	C 	0.1225	0.6191	0.1031	-0.38
Mof_H 	H 	0.6749	0.4769	0.4718	0.208
Mof_C 	C 	0.6933	0.3865	0.4134	0.371
Mof_C 	C 	0.7814	0.2598	0.4448	0.319
Mof_H 	H 	0.8262	0.2664	0.526	0.188
Mof_C 	C 	0.608	0.972	0.8571	0.45
Mof_C 	C 	0.1026	0.2143	0.0667	0.439
Mof_C 	C 	0.9634	0.4537	0.3628	0.317
Mof_H 	H 	0.0643	0.4516	0.4167	0.187
Mof_C 	C 	0.967	0.3253	0.3114	0.336
Mof_H 	H 	0.0693	0.2369	0.3294	0.204
Mof_C 	C 	0.7731	0.8991	0.487	0.307
Mof_H 	H 	0.7803	0.8732	0.5749	0.199
Mof_C 	C 	0.6888	0.0319	0.4609	0.328
Mof_H 	H 	0.6346	0.0951	0.5309	0.181
Mof_C 	C 	0.9612	0.57	0.1673	0.298
Mof_H 	H 	0.0163	0.4478	0.1555	0.189
Mof_C 	C 	0.0579	0.6834	0.1239	0.241
Mof_H 	H 	0.1769	0.6357	0.0807	0.168
Mof_H 	H 	0.6606	0.4181	0.385	-0.099
Mof_C 	C 	0.7321	0.3047	0.4029	-0.401
Mof_H 	H 	0.8082	0.2045	0.4381	-0.073
Mof_C 	C 	0.539	0.0166	0.8314	-0.452
Mof_C 	C 	0.6073	0.8841	0.8705	-0.466
Mof_C 	C 	0.0904	0.1969	0.1258	-0.45
Mof_C 	C 	0.0356	0.2538	0.0365	-0.448
Mof_C 	C 	0.9277	0.4075	0.3222	-0.383
Mof_H 	H 	0.9361	0.5079	0.3719	-0.071
Mof_H 	H 	0.9417	0.2924	0.2855	-0.08
Mof_C 	C 	0.7411	0.9602	0.4457	-0.374
Mof_H 	H 	0.8065	0.8489	0.4754	-0.062
Mof_H 	H 	0.6663	0.0717	0.432	-0.083
Mof_H 	H 	0.9071	0.5521	0.1895	-0.091
Mof_C 	C 	0.9748	0.6574	0.1552	-0.323
Mof_H 	H 	0.0702	0.7426	0.1169	-0.048
Mof_C 	C 	0.7223	0.2614	0.3475	0.638
Mof_H 	H 	0.5378	0.0776	0.8265	0.203
Mof_C 	C 	0.4691	0.972	0.812	0.339
Mof_C 	C 	0.5401	0.8367	0.8519	0.344
Mof_H 	H 	0.6521	0.8556	0.8922	0.211
Mof_C 	C 	0.0051	0.2148	0.1569	0.342
Mof_H 	H 	0.1392	0.1729	0.1459	0.203
Mof_C 	C 	0.9504	0.2721	0.0667	0.316
Mof_H 	H 	0.0463	0.2685	0.996	0.195
Mof_C 	C 	0.8491	0.4445	0.2913	0.6
Mof_C 	C 	0.7626	0.9425	0.382	0.572
Mof_C 	C 	0.9085	0.7249	0.1822	0.483
Mof_H 	H 	0.4221	0.002	0.7928	-0.08
Mof_C 	C 	0.4722	0.8824	0.8223	-0.389
Mof_H 	H 	0.5406	0.7759	0.8591	-0.086
Mof_C 	C 	0.9356	0.2516	0.1269	-0.366
Mof_H 	H 	0.996	0.2018	0.1976	-0.099
Mof_H 	H 	0.9028	0.2984	0.0464	-0.071
Mof_C 	C 	0.4041	0.832	0.7956	0.617
Mof_C 	C 	0.8412	0.2709	0.1579	0.529
_end
