data_functionalizedCrystal
_audit_creation_method	'EQeq! by Chris Wilmer'
_symmetry_space_group_name_H-M	'P1'
_symmetry_Int_Tables_number	1
_symmetry_cell_setting	triclinic
loop_
_symmetry_equiv_pos_as_xyz
  x,y,z
_cell_length_a	31.936
_cell_length_b	10.664
_cell_length_c	12.361
_cell_angle_alpha	90
_cell_angle_beta	96.2
_cell_angle_gamma	90
loop_
_atom_site_label
_atom_site_type_symbol
_atom_site_fract_x
_atom_site_fract_y
_atom_site_fract_z
_atom_site_charge
Mof_Mn	Mn	0.24953	0.2501	0.49958	0.766
Mof_Cu	Cu	0.99565	0.25738	0.28498	0.8
Mof_C 	C 	0.0745	0.2546	0.4345	0.146
Mof_C 	C 	0.1451	0.2451	0.4847	0.149
Mof_C 	C 	0.3526	0.252	0.5384	0.169
Mof_C 	C 	0.4201	0.2397	0.6267	0.15
Mof_C 	C 	0.2553	0.9561	0.4109	0.161
Mof_C 	C 	0.2505	0.544	0.5905	0.159
Mof_C 	C 	0.2527	0.6713	0.7383	0.161
Mof_C 	C 	0.2518	0.827	0.2652	0.153
Mof_N 	N 	0.0431	0.2541	0.38	-0.345
Mof_N 	N 	0.10618	0.2558	0.5034	-0.206
Mof_N 	N 	0.1804	0.2352	0.4799	-0.224
Mof_N 	N 	0.318	0.2615	0.5216	-0.234
Mof_N 	N 	0.3926	0.2377	0.5433	-0.209
Mof_N 	N 	0.4486	0.2402	0.69	-0.346
Mof_N 	N 	0.2505	0.8429	0.369	-0.182
Mof_N 	N 	0.2562	0.0476	0.4554	-0.221
Mof_N 	N 	0.2461	0.4515	0.544	-0.22
Mof_N 	N 	0.2563	0.6537	0.6352	-0.184
Mof_N 	N 	0.2511	0.6998	0.8256	-0.221
Mof_N 	N 	0.2512	0.7994	0.1752	-0.219
Mof_Mn	Mn	0.25047	0.7501	0.00042	0.76
Mof_Cu	Cu	0.50435	0.75738	0.21502	0.799
Mof_C 	C 	0.4255	0.7546	0.0655	0.143
Mof_C 	C 	0.3549	0.7451	0.0153	0.146
Mof_C 	C 	0.1474	0.752	0.9616	0.17
Mof_C 	C 	0.0799	0.7397	0.8733	0.151
Mof_C 	C 	0.2447	0.4561	0.0891	0.162
Mof_C 	C 	0.2495	0.044	0.9095	0.156
Mof_C 	C 	0.2473	0.1713	0.7617	0.161
Mof_C 	C 	0.2482	0.327	0.2348	0.154
Mof_N 	N 	0.4569	0.7541	0.12	-0.345
Mof_N 	N 	0.39382	0.7558	0.9966	-0.203
Mof_N 	N 	0.3196	0.7352	0.0201	-0.224
Mof_N 	N 	0.182	0.7615	0.9784	-0.233
Mof_N 	N 	0.1074	0.7377	0.9567	-0.209
Mof_N 	N 	0.0514	0.7402	0.81	-0.346
Mof_N 	N 	0.2495	0.3429	0.131	-0.182
Mof_N 	N 	0.2438	0.5476	0.0446	-0.221
Mof_N 	N 	0.2539	0.9515	0.956	-0.217
Mof_N 	N 	0.2437	0.1537	0.8648	-0.183
Mof_N 	N 	0.2489	0.1998	0.6744	-0.222
Mof_N 	N 	0.2488	0.2994	0.3248	-0.219
Mof_Mn	Mn	0.75047	0.7499	0.50042	0.765
Mof_Cu	Cu	0.00435	0.74262	0.71502	0.799
Mof_C 	C 	0.9255	0.7454	0.5655	0.146
Mof_C 	C 	0.8549	0.7549	0.5153	0.149
Mof_C 	C 	0.6474	0.748	0.4616	0.169
Mof_C 	C 	0.5799	0.7603	0.3733	0.15
Mof_C 	C 	0.7447	0.0439	0.5891	0.161
Mof_C 	C 	0.7495	0.456	0.4095	0.159
Mof_C 	C 	0.7473	0.3287	0.2617	0.161
Mof_C 	C 	0.7482	0.173	0.7348	0.153
Mof_N 	N 	0.9569	0.7459	0.62	-0.345
Mof_N 	N 	0.89382	0.7442	0.4966	-0.206
Mof_N 	N 	0.8196	0.7648	0.5201	-0.224
Mof_N 	N 	0.682	0.7385	0.4784	-0.234
Mof_N 	N 	0.6074	0.7623	0.4567	-0.209
Mof_N 	N 	0.5514	0.7598	0.31	-0.346
Mof_N 	N 	0.7495	0.1571	0.631	-0.182
Mof_N 	N 	0.7438	0.9524	0.5446	-0.221
Mof_N 	N 	0.7539	0.5485	0.456	-0.22
Mof_N 	N 	0.7437	0.3463	0.3648	-0.184
Mof_N 	N 	0.7489	0.3002	0.1744	-0.221
Mof_N 	N 	0.7488	0.2006	0.8248	-0.219
Mof_Mn	Mn	0.74953	0.2499	0.99958	0.76
Mof_Cu	Cu	0.49565	0.24262	0.78498	0.799
Mof_C 	C 	0.5745	0.2454	0.9345	0.143
Mof_C 	C 	0.6451	0.2549	0.9847	0.146
Mof_C 	C 	0.8526	0.248	0.0384	0.17
Mof_C 	C 	0.9201	0.2603	0.1267	0.151
Mof_C 	C 	0.7553	0.5439	0.9109	0.162
Mof_C 	C 	0.7505	0.956	0.0905	0.156
Mof_C 	C 	0.7527	0.8287	0.2383	0.161
Mof_C 	C 	0.7518	0.673	0.7652	0.154
Mof_N 	N 	0.5431	0.2459	0.88	-0.345
Mof_N 	N 	0.60618	0.2442	0.0034	-0.203
Mof_N 	N 	0.6804	0.2648	0.9799	-0.224
Mof_N 	N 	0.818	0.2385	0.0216	-0.233
Mof_N 	N 	0.8926	0.2623	0.0433	-0.209
Mof_N 	N 	0.9486	0.2598	0.19	-0.346
Mof_N 	N 	0.7505	0.6571	0.869	-0.182
Mof_N 	N 	0.7562	0.4524	0.9554	-0.221
Mof_N 	N 	0.7461	0.0485	0.044	-0.217
Mof_N 	N 	0.7563	0.8463	0.1352	-0.183
Mof_N 	N 	0.7511	0.8002	0.3256	-0.222
Mof_N 	N 	0.7512	0.7006	0.6752	-0.219
_end
