data_functionalizedCrystal
_audit_creation_method	'EQeq! by Chris Wilmer'
_symmetry_space_group_name_H-M	'P1'
_symmetry_Int_Tables_number	1
_symmetry_cell_setting	triclinic
loop_
_symmetry_equiv_pos_as_xyz
  x,y,z
_cell_length_a	24.361
_cell_length_b	15.388
_cell_length_c	11.609
_cell_angle_alpha	90
_cell_angle_beta	118.46
_cell_angle_gamma	90
loop_
_atom_site_label
_atom_site_type_symbol
_atom_site_fract_x
_atom_site_fract_y
_atom_site_fract_z
_atom_site_charge
Mof_O 	O 	0.0084	0.0929	0.6665	-0.285
Mof_C 	C 	0.8626	0.2754	0.754	0.008
Mof_H 	H 	0.8421	0.3087	0.7886	0.051
Mof_O 	O 	0.0169	0.1943	0.8575	-0.426
Mof_H 	H 	0.0316	0.1625	0.8226	0.282
Mof_C 	C 	0.9541	0.2042	0.7761	0.276
Mof_C 	C 	0.8279	0.2414	0.6265	0.052
Mof_N 	N 	0.7635	0.2617	0.5591	-0.072
Mof_C 	C 	0.9205	0.1709	0.6505	-0.174
Mof_C 	C 	0.8582	0.1889	0.5779	0.012
Mof_H 	H 	0.8359	0.1655	0.4943	0.067
Mof_C 	C 	0.9512	0.1139	0.592	0.358
Mof_C 	C 	0.9245	0.2616	0.8278	-0.17
Mof_H 	H 	0.9472	0.2882	0.9089	0.129
Mof_O 	O 	0.9197	0.0912	0.4771	-0.268
Mof_O 	O 	0.5084	0.5929	0.6665	-0.281
Mof_C 	C 	0.3626	0.7754	0.754	0.01
Mof_H 	H 	0.3421	0.8087	0.7886	0.057
Mof_O 	O 	0.5169	0.6943	0.8575	-0.424
Mof_H 	H 	0.5316	0.6625	0.8226	0.284
Mof_C 	C 	0.4541	0.7042	0.7761	0.278
Mof_C 	C 	0.3279	0.7414	0.6265	0.056
Mof_N 	N 	0.2635	0.7617	0.5591	-0.07
Mof_C 	C 	0.4205	0.6709	0.6505	-0.172
Mof_C 	C 	0.3582	0.6889	0.5779	0.013
Mof_H 	H 	0.3359	0.6655	0.4943	0.068
Mof_C 	C 	0.4512	0.6139	0.592	0.361
Mof_C 	C 	0.4245	0.7616	0.8278	-0.167
Mof_H 	H 	0.4472	0.7882	0.9089	0.133
Mof_O 	O 	0.4197	0.5912	0.4771	-0.265
Mof_O 	O 	0.9916	0.0929	0.3335	-0.285
Mof_C 	C 	0.1374	0.2754	0.246	0.008
Mof_H 	H 	0.1579	0.3087	0.2114	0.051
Mof_O 	O 	0.9831	0.1943	0.1425	-0.426
Mof_H 	H 	0.9684	0.1625	0.1774	0.282
Mof_C 	C 	0.0459	0.2042	0.2239	0.276
Mof_C 	C 	0.1721	0.2414	0.3735	0.052
Mof_N 	N 	0.2365	0.2617	0.4409	-0.072
Mof_C 	C 	0.0795	0.1709	0.3495	-0.174
Mof_C 	C 	0.1418	0.1889	0.4221	0.012
Mof_H 	H 	0.1641	0.1655	0.5057	0.067
Mof_C 	C 	0.0488	0.1139	0.408	0.358
Mof_C 	C 	0.0755	0.2616	0.1722	-0.17
Mof_H 	H 	0.0528	0.2882	0.0911	0.129
Mof_O 	O 	0.0803	0.0912	0.5229	-0.268
Mof_O 	O 	0.4916	0.5929	0.3335	-0.281
Mof_C 	C 	0.6374	0.7754	0.246	0.01
Mof_H 	H 	0.6579	0.8087	0.2114	0.057
Mof_O 	O 	0.4831	0.6943	0.1425	-0.424
Mof_H 	H 	0.4684	0.6625	0.1774	0.284
Mof_C 	C 	0.5459	0.7042	0.2239	0.278
Mof_C 	C 	0.6721	0.7414	0.3735	0.056
Mof_N 	N 	0.7365	0.7617	0.4409	-0.07
Mof_C 	C 	0.5795	0.6709	0.3495	-0.172
Mof_C 	C 	0.6418	0.6889	0.4221	0.013
Mof_H 	H 	0.6641	0.6655	0.5057	0.068
Mof_C 	C 	0.5488	0.6139	0.408	0.361
Mof_C 	C 	0.5755	0.7616	0.1722	-0.167
Mof_H 	H 	0.5528	0.7882	0.0911	0.133
Mof_O 	O 	0.5803	0.5912	0.5229	-0.265
Mof_O 	O 	0.9916	0.9071	0.3335	-0.271
Mof_C 	C 	0.1374	0.7246	0.246	0.008
Mof_H 	H 	0.1579	0.6913	0.2114	0.053
Mof_O 	O 	0.9831	0.8057	0.1425	-0.424
Mof_H 	H 	0.9684	0.8375	0.1774	0.285
Mof_C 	C 	0.0459	0.7958	0.2239	0.276
Mof_C 	C 	0.1721	0.7586	0.3735	0.056
Mof_N 	N 	0.2365	0.7383	0.4409	-0.071
Mof_C 	C 	0.0795	0.8291	0.3495	-0.168
Mof_C 	C 	0.1418	0.8111	0.4221	0.011
Mof_H 	H 	0.1641	0.8345	0.5057	0.072
Mof_C 	C 	0.0488	0.8861	0.408	0.357
Mof_C 	C 	0.0755	0.7384	0.1722	-0.167
Mof_H 	H 	0.0528	0.7118	0.0911	0.128
Mof_O 	O 	0.0803	0.9088	0.5229	-0.254
Mof_O 	O 	0.4916	0.4071	0.3335	-0.282
Mof_C 	C 	0.6374	0.2246	0.246	0.009
Mof_H 	H 	0.6579	0.1913	0.2114	0.051
Mof_O 	O 	0.4831	0.3057	0.1425	-0.426
Mof_H 	H 	0.4684	0.3375	0.1774	0.283
Mof_C 	C 	0.5459	0.2958	0.2239	0.278
Mof_C 	C 	0.6721	0.2586	0.3735	0.052
Mof_N 	N 	0.7365	0.2383	0.4409	-0.072
Mof_C 	C 	0.5795	0.3291	0.3495	-0.174
Mof_C 	C 	0.6418	0.3111	0.4221	0.013
Mof_H 	H 	0.6641	0.3345	0.5057	0.067
Mof_C 	C 	0.5488	0.3861	0.408	0.361
Mof_C 	C 	0.5755	0.2384	0.1722	-0.171
Mof_H 	H 	0.5528	0.2118	0.0911	0.129
Mof_O 	O 	0.5803	0.4088	0.5229	-0.266
Mof_O 	O 	0.0084	0.9071	0.6665	-0.271
Mof_C 	C 	0.8626	0.7246	0.754	0.008
Mof_H 	H 	0.8421	0.6913	0.7886	0.053
Mof_O 	O 	0.0169	0.8057	0.8575	-0.424
Mof_H 	H 	0.0316	0.8375	0.8226	0.285
Mof_C 	C 	0.9541	0.7958	0.7761	0.276
Mof_C 	C 	0.8279	0.7586	0.6265	0.056
Mof_N 	N 	0.7635	0.7383	0.5591	-0.071
Mof_C 	C 	0.9205	0.8291	0.6505	-0.168
Mof_C 	C 	0.8582	0.8111	0.5779	0.011
Mof_H 	H 	0.8359	0.8345	0.4943	0.072
Mof_C 	C 	0.9512	0.8861	0.592	0.357
Mof_C 	C 	0.9245	0.7384	0.8278	-0.167
Mof_H 	H 	0.9472	0.7118	0.9089	0.128
Mof_O 	O 	0.9197	0.9088	0.4771	-0.254
Mof_O 	O 	0.5084	0.4071	0.6665	-0.282
Mof_C 	C 	0.3626	0.2246	0.754	0.009
Mof_H 	H 	0.3421	0.1913	0.7886	0.051
Mof_O 	O 	0.5169	0.3057	0.8575	-0.426
Mof_H 	H 	0.5316	0.3375	0.8226	0.283
Mof_C 	C 	0.4541	0.2958	0.7761	0.278
Mof_C 	C 	0.3279	0.2586	0.6265	0.052
Mof_N 	N 	0.2635	0.2383	0.5591	-0.072
Mof_C 	C 	0.4205	0.3291	0.6505	-0.174
Mof_C 	C 	0.3582	0.3111	0.5779	0.013
Mof_H 	H 	0.3359	0.3345	0.4943	0.067
Mof_C 	C 	0.4512	0.3861	0.592	0.361
Mof_C 	C 	0.4245	0.2384	0.8278	-0.171
Mof_H 	H 	0.4472	0.2118	0.9089	0.129
Mof_O 	O 	0.4197	0.4088	0.4771	-0.266
Mof_Cd	Cd	0.09199	0	0.69655	0.463
Mof_O 	O 	0.1961	0	0.7291	-0.286
Mof_N 	N 	0.4756	0	0.0099	-0.081
Mof_C 	C 	0.297	6.59805e-33	0.6837	0.285
Mof_O 	O 	0.2605	-1.31961e-32	0.9472	-0.254
Mof_C 	C 	0.3481	6.59805e-33	0.658	-0.193
Mof_H 	H 	0.3422	0	0.5726	0.126
Mof_C 	C 	0.4169	0	0.892	0.037
Mof_C 	C 	0.407	6.59805e-33	0.7637	0.009
Mof_H 	H 	0.4414	6.59805e-33	0.7491	0.047
Mof_C 	C 	0.252	0	0.8369	0.342
Mof_C 	C 	0.3665	0	0.9149	0.004
Mof_H 	H 	0.3727	3.2217e-36	0.0004	0.06
Mof_C 	C 	0.3053	0	0.8091	-0.185
Mof_O 	O 	0.238	0	0.5774	-0.438
Mof_H 	H 	0.2119	0	0.603	0.303
Mof_Cd	Cd	0.59199	0.5	0.69655	0.48
Mof_O 	O 	0.6961	0.5	0.7291	-0.281
Mof_N 	N 	0.9756	0.5	0.0099	-0.078
Mof_C 	C 	0.797	0.5	0.6837	0.286
Mof_O 	O 	0.7605	0.5	0.9472	-0.249
Mof_C 	C 	0.8481	0.5	0.658	-0.189
Mof_H 	H 	0.8422	0.5	0.5726	0.129
Mof_C 	C 	0.9169	0.5	0.892	0.041
Mof_C 	C 	0.907	0.5	0.7637	0.009
Mof_H 	H 	0.9414	0.5	0.7491	0.05
Mof_C 	C 	0.752	0.5	0.8369	0.342
Mof_C 	C 	0.8665	0.5	0.9149	0.003
Mof_H 	H 	0.8727	0.5	0.0004	0.064
Mof_C 	C 	0.8053	0.5	0.8091	-0.181
Mof_O 	O 	0.738	0.5	0.5774	-0.433
Mof_H 	H 	0.7119	0.5	0.603	0.304
Mof_Cd	Cd	0.90801	0	0.30345	0.463
Mof_O 	O 	0.8039	3.29902e-33	0.2709	-0.286
Mof_N 	N 	0.5244	0	0.9901	-0.081
Mof_C 	C 	0.703	3.29902e-33	0.3163	0.285
Mof_O 	O 	0.7395	0	0.0528	-0.254
Mof_C 	C 	0.6519	3.29902e-33	0.342	-0.193
Mof_H 	H 	0.6578	6.59805e-33	0.4274	0.126
Mof_C 	C 	0.5831	8.24756e-34	0.108	0.037
Mof_C 	C 	0.593	0	0.2363	0.009
Mof_H 	H 	0.5586	0	0.2509	0.047
Mof_C 	C 	0.748	0	0.1631	0.342
Mof_C 	C 	0.6335	0	0.0851	0.004
Mof_H 	H 	0.6273	1.31961e-32	0.9996	0.06
Mof_C 	C 	0.6947	1.64951e-33	0.1909	-0.185
Mof_O 	O 	0.762	0	0.4226	-0.438
Mof_H 	H 	0.7881	0	0.397	0.303
Mof_Cd	Cd	0.40801	0.5	0.30345	0.48
Mof_O 	O 	0.3039	0.5	0.2709	-0.281
Mof_N 	N 	0.0244	0.5	0.9901	-0.078
Mof_C 	C 	0.203	0.5	0.3163	0.286
Mof_O 	O 	0.2395	0.5	0.0528	-0.249
Mof_C 	C 	0.1519	0.5	0.342	-0.189
Mof_H 	H 	0.1578	0.5	0.4274	0.129
Mof_C 	C 	0.0831	0.5	0.108	0.041
Mof_C 	C 	0.093	0.5	0.2363	0.009
Mof_H 	H 	0.0586	0.5	0.2509	0.05
Mof_C 	C 	0.248	0.5	0.1631	0.342
Mof_C 	C 	0.1335	0.5	0.0851	0.003
Mof_H 	H 	0.1273	0.5	0.9996	0.064
Mof_C 	C 	0.1947	0.5	0.1909	-0.181
Mof_O 	O 	0.262	0.5	0.4226	-0.433
Mof_H 	H 	0.2881	0.5	0.397	0.304
_end
