data_functionalizedCrystal
_audit_creation_method	'EQeq! by Chris Wilmer'
_symmetry_space_group_name_H-M	'P1'
_symmetry_Int_Tables_number	1
_symmetry_cell_setting	triclinic
loop_
_symmetry_equiv_pos_as_xyz
  x,y,z
_cell_length_a	16.1122
_cell_length_b	19.1301
_cell_length_c	19.9491
_cell_angle_alpha	113.359
_cell_angle_beta	103.862
_cell_angle_gamma	91.934
loop_
_atom_site_label
_atom_site_type_symbol
_atom_site_fract_x
_atom_site_fract_y
_atom_site_fract_z
_atom_site_charge
Mof_Ca	Ca	0.20997	0.60033	0.39147	1.371
Mof_Ca	Ca	0.37747	0.74498	0.40971	1.555
Mof_Ca	Ca	0.59378	0.68468	0.34271	1.13
Mof_O 	O 	0.32289	0.98642	0.81066	-0.321
Mof_O 	O 	0.40207	0.98117	0.13173	-0.328
Mof_O 	O 	0.39671	0.27132	0.14589	-0.343
Mof_O 	O 	0.1661	0.69625	0.49583	-0.415
Mof_O 	O 	0.29496	0.72559	0.48648	-0.551
Mof_O 	O 	0.5312	0.7654	0.2939	-0.5
Mof_O 	O 	0.4175	0.7997	0.3366	-0.498
Mof_O 	O 	0.34976	0.59989	0.3715	-0.56
Mof_O 	O 	0.45464	0.63512	0.33403	-0.567
Mof_O 	O 	0.79568	0.87832	0.81849	-0.321
Mof_O 	O 	0.01411	0.8289	0.10509	-0.325
Mof_O 	O 	0.93319	0.15114	0.15425	-0.323
Mof_O 	O 	0.4997	0.77676	0.50946	-0.535
Mof_O 	O 	0.6164	0.7603	0.46798	-0.507
Mof_O 	O 	0.1161	0.6432	0.3095	-0.455
Mof_O 	O 	0.2423	0.6977	0.3215	-0.52
Mof_O 	O 	0.1696	0.47382	0.2993	-0.431
Mof_O 	O 	0.0788	0.5064	0.3657	-0.396
Mof_C 	C 	0.3283	0.0479	0.93914	-0.37
Mof_C 	C 	0.3578	0.0024	0.9772	0.467
Mof_C 	C 	0.421	0.0368	0.0482	-0.375
Mof_C 	C 	0.4478	0.1156	0.08301	0.451
Mof_C 	C 	0.4144	0.1613	0.04475	-0.373
Mof_C 	C 	0.3571	0.1276	0.97181	0.432
Mof_C 	C 	0.3249	0.9185	0.9439	-1.007
Mof_H 	H 	0.2728	0.9112	0.957	0.329
Mof_H 	H 	0.3676	0.8926	0.9635	0.329
Mof_H 	H 	0.3131	0.8978	0.8896	0.328
Mof_C 	C 	0.5117	0.1547	0.1607	-0.978
Mof_H 	H 	0.5297	0.1168	0.1792	0.328
Mof_H 	H 	0.4849	0.1909	0.195	0.328
Mof_H 	H 	0.5611	0.1812	0.1572	0.309
Mof_C 	C 	0.3267	0.1751	0.9284	-0.936
Mof_H 	H 	0.2841	0.2042	0.9483	0.291
Mof_H 	H 	0.3018	0.1417	0.8757	0.308
Mof_H 	H 	0.3748	0.2096	0.9335	0.296
Mof_C 	C 	0.2681	0.0091	0.8613	0.235
Mof_H 	H 	0.2326	0.9644	0.8563	-0.046
Mof_H 	H 	0.2307	0.044	0.8502	-0.048
Mof_C 	C 	0.2949	0.9253	0.7411	0.342
Mof_C 	C 	0.3556	0.9113	0.6994	-0.375
Mof_H 	H 	0.4085	0.943	0.7187	0.154
Mof_C 	C 	0.3356	0.8498	0.6293	0.245
Mof_H 	H 	0.3764	0.8395	0.6019	-0.085
Mof_C 	C 	0.2586	0.8041	0.5993	-0.3
Mof_C 	C 	0.1989	0.8194	0.6406	0.232
Mof_H 	H 	0.1454	0.7884	0.6201	-0.044
Mof_C 	C 	0.2167	0.8796	0.712	-0.372
Mof_H 	H 	0.176	0.8887	0.7395	0.156
Mof_C 	C 	0.2387	0.7382	0.5225	0.427
Mof_C 	C 	0.4575	0.9873	0.0873	0.247
Mof_H 	H 	0.4603	0.9367	0.05	-0.059
Mof_H 	H 	0.5154	0.0103	0.1197	-0.044
Mof_C 	C 	0.4229	0.9363	0.1709	0.37
Mof_C 	C 	0.3684	0.9345	0.215	-0.397
Mof_H 	H 	0.323	0.9633	0.218	0.181
Mof_C 	C 	0.3837	0.8887	0.254	0.286
Mof_H 	H 	0.3468	0.8862	0.2827	-0.067
Mof_C 	C 	0.4495	0.8475	0.2525	-0.352
Mof_C 	C 	0.5044	0.8513	0.2093	0.269
Mof_H 	H 	0.5509	0.8238	0.208	-0.077
Mof_C 	C 	0.4907	0.8953	0.1687	-0.413
Mof_H 	H 	0.5274	0.8972	0.1397	0.173
Mof_C 	C 	0.4674	0.8012	0.2987	0.516
Mof_C 	C 	0.4394	0.2466	0.0861	0.259
Mof_H 	H 	0.5016	0.2597	0.1073	-0.064
Mof_H 	H 	0.4209	0.2712	0.0519	-0.066
Mof_C 	C 	0.405	0.3479	0.1912	0.393
Mof_C 	C 	0.3602	0.367	0.2455	-0.421
Mof_H 	H 	0.3295	0.3284	0.251	0.178
Mof_C 	C 	0.3611	0.443	0.2915	0.315
Mof_H 	H 	0.3299	0.4552	0.3273	-0.091
Mof_C 	C 	0.4069	0.5014	0.2857	-0.391
Mof_C 	C 	0.4528	0.4804	0.2321	0.321
Mof_H 	H 	0.4854	0.5188	0.2278	-0.132
Mof_C 	C 	0.4518	0.4053	0.185	-0.446
Mof_H 	H 	0.4826	0.3931	0.149	0.169
Mof_C 	C 	0.404	0.5836	0.3325	0.512
Mof_C 	C 	0.8272	0.9178	0.95331	-0.381
Mof_C 	C 	0.8502	0.8657	0.9844	0.479
Mof_C 	C 	0.9055	0.8924	0.0585	-0.409
Mof_C 	C 	0.9413	0.9691	0.0979	0.476
Mof_C 	C 	0.9243	0.0196	0.0625	-0.383
Mof_C 	C 	0.8663	0.9951	0.9918	0.458
Mof_C 	C 	0.8169	0.7816	0.9397	-1.026
Mof_H 	H 	0.8624	0.7522	0.9478	0.337
Mof_H 	H 	0.7974	0.7704	0.8867	0.347
Mof_H 	H 	0.7697	0.7682	0.9561	0.332
Mof_C 	C 	0.9968	0.9994	0.1791	-1.026
Mof_H 	H 	0.9789	0.9695	0.2034	0.347
Mof_H 	H 	0.9905	0.0522	0.2058	0.347
Mof_H 	H 	0.0562	0.9957	0.1796	0.343
Mof_C 	C 	0.8454	0.0507	0.955	-0.984
Mof_H 	H 	0.8423	0.1001	0.993	0.317
Mof_H 	H 	0.7908	0.0315	0.917	0.331
Mof_H 	H 	0.8898	0.0558	0.9319	0.328
Mof_C 	C 	0.757	0.8931	0.87957	0.228
Mof_H 	H 	0.7208	0.8469	0.8705	-0.035
Mof_H 	H 	0.721	0.9333	0.8825	-0.034
Mof_C 	C 	0.7393	0.8556	0.74762	0.372
Mof_C 	C 	0.7761	0.8418	0.6889	-0.375
Mof_H 	H 	0.8359	0.8486	0.6987	0.169
Mof_C 	C 	0.7246	0.8179	0.6159	0.276
Mof_H 	H 	0.7503	0.8086	0.5766	-0.062
Mof_C 	C 	0.6357	0.8074	0.5995	-0.334
Mof_C 	C 	0.6006	0.8239	0.6588	0.27
Mof_H 	H 	0.5408	0.8195	0.6495	-0.068
Mof_C 	C 	0.6517	0.8473	0.7327	-0.394
Mof_H 	H 	0.6261	0.8572	0.7721	0.167
Mof_C 	C 	0.5784	0.7798	0.5195	0.513
Mof_C 	C 	0.925	0.8381	0.0955	0.278
Mof_H 	H 	0.9128	0.8585	0.1445	-0.067
Mof_H 	H 	0.889	0.7887	0.0641	-0.07
Mof_C 	C 	0.0474	0.7927	0.1507	0.339
Mof_C 	C 	0.1354	0.8008	0.1763	-0.336
Mof_H 	H 	0.1705	0.8298	0.163	0.157
Mof_C 	C 	0.1715	0.7648	0.2227	0.226
Mof_H 	H 	0.2314	0.7702	0.2398	-0.047
Mof_C 	C 	0.1226	0.7218	0.2441	-0.303
Mof_C 	C 	0.0365	0.7149	0.2172	0.246
Mof_H 	H 	0.0019	0.6861	0.2311	-0.049
Mof_C 	C 	0.9964	0.7477	0.1706	-0.35
Mof_H 	H 	0.9365	0.7401	0.1525	0.144
Mof_C 	C 	0.1621	0.6837	0.2955	0.491
Mof_C 	C 	0.9748	0.0999	0.1013	0.219
Mof_H 	H 	0.0331	0.0985	0.1281	-0.027
Mof_H 	H 	0.9785	0.1189	0.0635	-0.035
Mof_C 	C 	0.9765	0.2249	0.1936	0.353
Mof_C 	C 	0.0506	0.2491	0.1823	-0.367
Mof_H 	H 	0.0746	0.2147	0.1468	0.159
Mof_C 	C 	0.0903	0.3248	0.2235	0.232
Mof_H 	H 	0.1412	0.3401	0.2155	-0.047
Mof_C 	C 	0.0574	0.3759	0.274	-0.264
Mof_C 	C 	0.9866	0.3506	0.2892	0.221
Mof_H 	H 	0.9651	0.3848	0.327	-0.041
Mof_C 	C 	0.9461	0.2752	0.2495	-0.355
Mof_H 	H 	0.8984	0.259	0.261	0.154
Mof_C 	C 	0.1053	0.4585	0.3173	0.403
Mof_C 	C 	0.4472	0.9733	0.5659	0.068
Mof_H 	H 	0.4704	0.9328	0.5779	0.121
Mof_H 	H 	0.4327	0.0101	0.6092	-0.32
Mof_H 	H 	0.4895	0.9983	0.5528	0.359
Mof_C 	C 	0.3676	0.9402	0.5	2.769
Mof_O 	O 	0.3442	0.8701	0.472	0.14
Mof_N 	N 	0.3202	0.9838	0.47	0.552
Mof_C 	C 	0.2457	0.9515	0.4048	-0.143
Mof_H 	H 	0.2368	0.8966	0.3869	-0.356
Mof_H 	H 	0.2549	0.9648	0.3652	-1.647
Mof_H 	H 	0.1956	0.9718	0.4188	-0.586
Mof_C 	C 	0.3382	0.0663	0.4991	0.165
Mof_H 	H 	0.3877	0.0851	0.5427	0.049
Mof_H 	H 	0.2892	0.0886	0.5134	0.04
Mof_H 	H 	0.3498	0.0802	0.4606	0.024
Mof_C 	C 	0.2584	0.9321	0.4072	-0.774
Mof_H 	H 	0.233	0.8803	0.3724	0.741
Mof_H 	H 	0.2769	0.9585	0.38	2.009
Mof_H 	H 	0.2164	0.9584	0.4309	0.966
Mof_C 	C 	0.3284	0.9308	0.462	-2.147
Mof_O 	O 	0.344	0.8685	0.4573	-0.601
Mof_N 	N 	0.3777	0.9938	0.5176	-1.056
Mof_C 	C 	0.4511	0.9961	0.5776	-0.678
Mof_H 	H 	0.4572	0.9448	0.5728	-0.13
Mof_H 	H 	0.4419	0.0262	0.6261	0.583
Mof_H 	H 	0.5026	0.019	0.5736	-0.139
Mof_C 	C 	0.3695	0.0732	0.5309	0.015
Mof_H 	H 	0.3238	0.0747	0.4907	-0.18
Mof_H 	H 	0.4228	0.0984	0.5322	-0.03
Mof_H 	H 	0.3566	0.0992	0.5786	-0.011
Mof_Ca	Ca	0.79003	0.39967	0.60853	1.371
Mof_Ca	Ca	0.62253	0.25502	0.59029	1.555
Mof_Ca	Ca	0.40622	0.31532	0.65729	1.13
Mof_O 	O 	0.67711	0.01358	0.18934	-0.321
Mof_O 	O 	0.59793	0.01883	0.86827	-0.328
Mof_O 	O 	0.60329	0.72868	0.85411	-0.343
Mof_O 	O 	0.8339	0.30375	0.50417	-0.415
Mof_O 	O 	0.70504	0.27441	0.51352	-0.551
Mof_O 	O 	0.4688	0.2346	0.7061	-0.5
Mof_O 	O 	0.5825	0.2003	0.6634	-0.498
Mof_O 	O 	0.65024	0.40011	0.6285	-0.56
Mof_O 	O 	0.54536	0.36488	0.66597	-0.567
Mof_O 	O 	0.20432	0.12168	0.18151	-0.321
Mof_O 	O 	0.98589	0.1711	0.89491	-0.325
Mof_O 	O 	0.06681	0.84886	0.84575	-0.323
Mof_O 	O 	0.5003	0.22324	0.49054	-0.535
Mof_O 	O 	0.3836	0.2397	0.53202	-0.507
Mof_O 	O 	0.8839	0.3568	0.6905	-0.455
Mof_O 	O 	0.7577	0.3023	0.6785	-0.52
Mof_O 	O 	0.8304	0.52618	0.7007	-0.431
Mof_O 	O 	0.9212	0.4936	0.6343	-0.396
Mof_C 	C 	0.6717	0.9521	0.06086	-0.37
Mof_C 	C 	0.6422	0.9976	0.0228	0.467
Mof_C 	C 	0.579	0.9632	0.9518	-0.375
Mof_C 	C 	0.5522	0.8844	0.91699	0.451
Mof_C 	C 	0.5856	0.8387	0.95525	-0.373
Mof_C 	C 	0.6429	0.8724	0.02819	0.432
Mof_C 	C 	0.6751	0.0815	0.0561	-1.007
Mof_H 	H 	0.7272	0.0888	0.043	0.329
Mof_H 	H 	0.6324	0.1074	0.0365	0.329
Mof_H 	H 	0.6869	0.1022	0.1104	0.328
Mof_C 	C 	0.4883	0.8453	0.8393	-0.978
Mof_H 	H 	0.4703	0.8832	0.8208	0.328
Mof_H 	H 	0.5151	0.8091	0.805	0.328
Mof_H 	H 	0.4389	0.8188	0.8428	0.309
Mof_C 	C 	0.6733	0.8249	0.0716	-0.936
Mof_H 	H 	0.7159	0.7958	0.0517	0.291
Mof_H 	H 	0.6982	0.8583	0.1243	0.308
Mof_H 	H 	0.6252	0.7904	0.0665	0.296
Mof_C 	C 	0.7319	0.9909	0.1387	0.235
Mof_H 	H 	0.7674	0.0356	0.1437	-0.046
Mof_H 	H 	0.7693	0.956	0.1498	-0.048
Mof_C 	C 	0.7051	0.0747	0.2589	0.342
Mof_C 	C 	0.6444	0.0887	0.3006	-0.375
Mof_H 	H 	0.5915	0.057	0.2813	0.154
Mof_C 	C 	0.6644	0.1502	0.3707	0.245
Mof_H 	H 	0.6236	0.1605	0.3981	-0.085
Mof_C 	C 	0.7414	0.1959	0.4007	-0.3
Mof_C 	C 	0.8011	0.1806	0.3594	0.232
Mof_H 	H 	0.8546	0.2116	0.3799	-0.044
Mof_C 	C 	0.7833	0.1204	0.288	-0.372
Mof_H 	H 	0.824	0.1113	0.2605	0.156
Mof_C 	C 	0.7613	0.2618	0.4775	0.427
Mof_C 	C 	0.5425	0.0127	0.9127	0.247
Mof_H 	H 	0.5397	0.0633	0.95	-0.059
Mof_H 	H 	0.4846	0.9897	0.8803	-0.044
Mof_C 	C 	0.5771	0.0637	0.8291	0.37
Mof_C 	C 	0.6316	0.0655	0.785	-0.397
Mof_H 	H 	0.677	0.0367	0.782	0.181
Mof_C 	C 	0.6163	0.1113	0.746	0.286
Mof_H 	H 	0.6532	0.1138	0.7173	-0.067
Mof_C 	C 	0.5505	0.1525	0.7475	-0.352
Mof_C 	C 	0.4956	0.1487	0.7907	0.269
Mof_H 	H 	0.4491	0.1762	0.792	-0.077
Mof_C 	C 	0.5093	0.1047	0.8313	-0.413
Mof_H 	H 	0.4726	0.1028	0.8603	0.173
Mof_C 	C 	0.5326	0.1988	0.7013	0.516
Mof_C 	C 	0.5606	0.7534	0.9139	0.259
Mof_H 	H 	0.4984	0.7403	0.8927	-0.064
Mof_H 	H 	0.5791	0.7288	0.9481	-0.066
Mof_C 	C 	0.595	0.6521	0.8088	0.393
Mof_C 	C 	0.6398	0.633	0.7545	-0.421
Mof_H 	H 	0.6705	0.6716	0.749	0.178
Mof_C 	C 	0.6389	0.557	0.7085	0.315
Mof_H 	H 	0.6701	0.5448	0.6727	-0.091
Mof_C 	C 	0.5931	0.4986	0.7143	-0.391
Mof_C 	C 	0.5472	0.5196	0.7679	0.321
Mof_H 	H 	0.5146	0.4812	0.7722	-0.132
Mof_C 	C 	0.5482	0.5947	0.815	-0.446
Mof_H 	H 	0.5174	0.6069	0.851	0.169
Mof_C 	C 	0.596	0.4164	0.6675	0.512
Mof_C 	C 	0.1728	0.0822	0.04669	-0.381
Mof_C 	C 	0.1498	0.1343	0.0156	0.479
Mof_C 	C 	0.0945	0.1076	0.9415	-0.409
Mof_C 	C 	0.0587	0.0309	0.9021	0.476
Mof_C 	C 	0.0757	0.9804	0.9375	-0.383
Mof_C 	C 	0.1337	0.0049	0.0082	0.458
Mof_C 	C 	0.1831	0.2184	0.0603	-1.026
Mof_H 	H 	0.1376	0.2478	0.0522	0.337
Mof_H 	H 	0.2026	0.2296	0.1133	0.347
Mof_H 	H 	0.2303	0.2318	0.0439	0.332
Mof_C 	C 	0.0032	0.0006	0.8209	-1.026
Mof_H 	H 	0.0211	0.0305	0.7966	0.347
Mof_H 	H 	0.0095	0.9478	0.7942	0.347
Mof_H 	H 	0.9438	0.0043	0.8204	0.343
Mof_C 	C 	0.1546	0.9493	0.045	-0.984
Mof_H 	H 	0.1577	0.8999	0.007	0.317
Mof_H 	H 	0.2092	0.9685	0.083	0.331
Mof_H 	H 	0.1102	0.9442	0.0681	0.328
Mof_C 	C 	0.243	0.1069	0.12043	0.228
Mof_H 	H 	0.2792	0.1531	0.1295	-0.035
Mof_H 	H 	0.279	0.0667	0.1175	-0.034
Mof_C 	C 	0.2607	0.1444	0.25238	0.372
Mof_C 	C 	0.2239	0.1582	0.3111	-0.375
Mof_H 	H 	0.1641	0.1514	0.3013	0.169
Mof_C 	C 	0.2754	0.1821	0.3841	0.276
Mof_H 	H 	0.2497	0.1914	0.4234	-0.062
Mof_C 	C 	0.3643	0.1926	0.4005	-0.334
Mof_C 	C 	0.3994	0.1761	0.3412	0.27
Mof_H 	H 	0.4592	0.1805	0.3505	-0.068
Mof_C 	C 	0.3483	0.1527	0.2673	-0.394
Mof_H 	H 	0.3739	0.1428	0.2279	0.167
Mof_C 	C 	0.4216	0.2202	0.4805	0.513
Mof_C 	C 	0.075	0.1619	0.9045	0.278
Mof_H 	H 	0.0872	0.1415	0.8555	-0.067
Mof_H 	H 	0.111	0.2113	0.9359	-0.07
Mof_C 	C 	0.9526	0.2073	0.8493	0.339
Mof_C 	C 	0.8646	0.1992	0.8237	-0.336
Mof_H 	H 	0.8295	0.1702	0.837	0.157
Mof_C 	C 	0.8285	0.2352	0.7773	0.226
Mof_H 	H 	0.7686	0.2298	0.7602	-0.047
Mof_C 	C 	0.8774	0.2782	0.7559	-0.303
Mof_C 	C 	0.9635	0.2851	0.7828	0.246
Mof_H 	H 	0.9981	0.3139	0.7689	-0.049
Mof_C 	C 	0.0036	0.2523	0.8294	-0.35
Mof_H 	H 	0.0635	0.2599	0.8475	0.144
Mof_C 	C 	0.8379	0.3163	0.7045	0.491
Mof_C 	C 	0.0252	0.9001	0.8987	0.219
Mof_H 	H 	0.9669	0.9015	0.8719	-0.027
Mof_H 	H 	0.0215	0.8811	0.9365	-0.035
Mof_C 	C 	0.0235	0.7751	0.8064	0.353
Mof_C 	C 	0.9494	0.7509	0.8177	-0.367
Mof_H 	H 	0.9254	0.7853	0.8532	0.159
Mof_C 	C 	0.9097	0.6752	0.7765	0.232
Mof_H 	H 	0.8588	0.6599	0.7845	-0.047
Mof_C 	C 	0.9426	0.6241	0.726	-0.264
Mof_C 	C 	0.0134	0.6494	0.7108	0.221
Mof_H 	H 	0.0349	0.6152	0.673	-0.041
Mof_C 	C 	0.0539	0.7248	0.7505	-0.355
Mof_H 	H 	0.1016	0.741	0.739	0.154
Mof_C 	C 	0.8947	0.5415	0.6827	0.403
Mof_C 	C 	0.5528	0.0267	0.4341	0.068
Mof_H 	H 	0.5296	0.0672	0.4221	0.121
Mof_H 	H 	0.5673	0.9899	0.3908	-0.32
Mof_H 	H 	0.5105	0.0017	0.4472	0.359
Mof_C 	C 	0.6324	0.0598	0.5	2.769
Mof_O 	O 	0.6558	0.1299	0.528	0.14
Mof_N 	N 	0.6798	0.0162	0.53	0.552
Mof_C 	C 	0.7543	0.0485	0.5952	-0.143
Mof_H 	H 	0.7632	0.1034	0.6131	-0.356
Mof_H 	H 	0.7451	0.0352	0.6348	-1.647
Mof_H 	H 	0.8044	0.0282	0.5812	-0.586
Mof_C 	C 	0.6618	0.9337	0.5009	0.165
Mof_H 	H 	0.6123	0.9149	0.4573	0.049
Mof_H 	H 	0.7108	0.9114	0.4866	0.04
Mof_H 	H 	0.6502	0.9198	0.5394	0.024
Mof_C 	C 	0.7416	0.0679	0.5928	-0.774
Mof_H 	H 	0.767	0.1197	0.6276	0.741
Mof_H 	H 	0.7231	0.0415	0.62	2.009
Mof_H 	H 	0.7836	0.0416	0.5691	0.966
Mof_C 	C 	0.6716	0.0692	0.538	-2.147
Mof_O 	O 	0.656	0.1315	0.5427	-0.601
Mof_N 	N 	0.6223	0.0062	0.4824	-1.056
Mof_C 	C 	0.5489	0.0039	0.4224	-0.678
Mof_H 	H 	0.5428	0.0552	0.4272	-0.13
Mof_H 	H 	0.5581	0.9738	0.3739	0.583
Mof_H 	H 	0.4974	0.981	0.4264	-0.139
Mof_C 	C 	0.6305	0.9268	0.4691	0.015
Mof_H 	H 	0.6762	0.9253	0.5093	-0.18
Mof_H 	H 	0.5772	0.9016	0.4678	-0.03
Mof_H 	H 	0.6434	0.9008	0.4214	-0.011
_end
