data_functionalizedCrystal
_audit_creation_method	'EQeq! by Chris Wilmer'
_symmetry_space_group_name_H-M	'P1'
_symmetry_Int_Tables_number	1
_symmetry_cell_setting	triclinic
loop_
_symmetry_equiv_pos_as_xyz
  x,y,z
_cell_length_a	9.6827
_cell_length_b	27.686
_cell_length_c	9.105
_cell_angle_alpha	90
_cell_angle_beta	121.794
_cell_angle_gamma	90
loop_
_atom_site_label
_atom_site_type_symbol
_atom_site_fract_x
_atom_site_fract_y
_atom_site_fract_z
_atom_site_charge
Mof_Nd	Nd	0.97432	0.50916	0.99873	1.518
Mof_O 	O 	0.124	0.4833	0.299	-0.47
Mof_O 	O 	0.261	0.4615	0.57	-0.462
Mof_O 	O 	0.825	0.4839	0.697	-0.597
Mof_O 	O 	0.7	0.4601	0.429	-0.451
Mof_C 	C 	0.252	0.4674	0.433	0.496
Mof_C 	C 	0.388	0.4572	0.421	-0.371
Mof_H 	H 	0.3855	0.4785	0.333	0.146
Mof_H 	H 	0.3795	0.4234	0.3816	0.143
Mof_C 	C 	0.549	0.4636	0.59	-0.113
Mof_H 	H 	0.5678	0.4351	0.6639	0.027
Mof_H 	H 	0.5416	0.4923	0.6499	0.052
Mof_C 	C 	0.701	0.4699	0.567	0.372
Mof_O 	O 	0.906	0.5837	0.826	-0.38
Mof_O 	O 	0.059	0.5861	0.172	-0.39
Mof_C 	C 	0.934	0.6254	0.904	-0.044
Mof_C 	C 	0.035	0.6249	0.106	0.583
Mof_Nd	Nd	0.992	0.74104	0.99735	1.544
Mof_O 	O 	0.894	0.6662	0.826	-0.376
Mof_O 	O 	0.086	0.6646	0.173	-0.395
Mof_O 	O 	0.146	0.7666	0.299	-0.474
Mof_O 	O 	0.287	0.7914	0.569	-0.46
Mof_O 	O 	0.706	0.7902	0.429	-0.544
Mof_O 	O 	0.844	0.7653	0.697	-0.684
Mof_C 	C 	0.147	0.7804	0.432	0.372
Mof_C 	C 	0.988	0.786	0.422	-0.027
Mof_H 	H 	0.9277	0.8127	0.3408	0.015
Mof_H 	H 	0.9242	0.7561	0.3693	0.015
Mof_C 	C 	0.985	0.7953	0.58	-0.85
Mof_H 	H 	0.0734	0.7765	0.6765	0.316
Mof_H 	H 	0.008	0.8299	0.6101	0.32
Mof_C 	C 	0.836	0.7834	0.566	0.657
Mof_Nd	Nd	0.47432	0.00916	0.99873	1.873
Mof_O 	O 	0.624	0.9833	0.299	-0.618
Mof_O 	O 	0.761	0.9615	0.57	-0.568
Mof_O 	O 	0.325	0.9839	0.697	-0.615
Mof_O 	O 	0.2	0.9601	0.429	-0.448
Mof_C 	C 	0.752	0.9674	0.433	0.576
Mof_C 	C 	0.888	0.9572	0.421	-0.555
Mof_H 	H 	0.8855	0.9785	0.333	0.158
Mof_H 	H 	0.8795	0.9234	0.3816	0.156
Mof_C 	C 	0.049	0.9636	0.59	0.041
Mof_H 	H 	0.0678	0.9351	0.6639	0.003
Mof_H 	H 	0.0416	0.9923	0.6499	0.028
Mof_C 	C 	0.201	0.9699	0.567	0.361
Mof_O 	O 	0.406	0.0837	0.826	-0.394
Mof_O 	O 	0.559	0.0861	0.172	-0.462
Mof_C 	C 	0.434	0.1254	0.904	0.057
Mof_C 	C 	0.535	0.1249	0.106	0.496
Mof_Nd	Nd	0.492	0.24104	0.99735	1.845
Mof_O 	O 	0.394	0.1662	0.826	-0.385
Mof_O 	O 	0.586	0.1646	0.173	-0.45
Mof_O 	O 	0.646	0.2666	0.299	-0.536
Mof_O 	O 	0.787	0.2914	0.569	-0.472
Mof_O 	O 	0.206	0.2902	0.429	-0.425
Mof_O 	O 	0.344	0.2653	0.697	-0.602
Mof_C 	C 	0.647	0.2804	0.432	0.376
Mof_C 	C 	0.488	0.286	0.422	-0.191
Mof_H 	H 	0.4277	0.3127	0.3408	0.09
Mof_H 	H 	0.4242	0.2561	0.3693	0.081
Mof_C 	C 	0.485	0.2953	0.58	-0.281
Mof_H 	H 	0.5734	0.2765	0.6765	0.083
Mof_H 	H 	0.508	0.3299	0.6101	0.082
Mof_C 	C 	0.336	0.2834	0.566	0.465
Mof_Nd	Nd	0.97432	0.49084	0.49873	1.939
Mof_O 	O 	0.124	0.5167	0.799	-0.503
Mof_O 	O 	0.261	0.5385	0.07	-0.261
Mof_O 	O 	0.825	0.5161	0.197	-0.624
Mof_O 	O 	0.7	0.5399	0.929	-0.571
Mof_C 	C 	0.252	0.5326	0.933	0.323
Mof_C 	C 	0.388	0.5428	0.921	-0.432
Mof_H 	H 	0.3855	0.5215	0.833	0.124
Mof_H 	H 	0.3795	0.5766	0.8816	0.108
Mof_C 	C 	0.549	0.5364	0.09	-0.037
Mof_H 	H 	0.5678	0.5649	0.1639	0.035
Mof_H 	H 	0.5416	0.5077	0.1499	0.059
Mof_C 	C 	0.701	0.5301	0.067	0.565
Mof_O 	O 	0.906	0.4163	0.326	-0.39
Mof_O 	O 	0.059	0.4139	0.672	-0.447
Mof_C 	C 	0.934	0.3746	0.404	0.092
Mof_C 	C 	0.035	0.3751	0.606	0.468
Mof_Nd	Nd	0.992	0.25896	0.49735	1.967
Mof_O 	O 	0.894	0.3338	0.326	-0.386
Mof_O 	O 	0.086	0.3354	0.673	-0.453
Mof_O 	O 	0.146	0.2334	0.799	-0.519
Mof_O 	O 	0.287	0.2086	0.069	-0.273
Mof_O 	O 	0.706	0.2098	0.929	-0.682
Mof_O 	O 	0.844	0.2347	0.197	-0.711
Mof_C 	C 	0.147	0.2196	0.932	0.243
Mof_C 	C 	0.988	0.214	0.922	-0.152
Mof_H 	H 	0.9277	0.1873	0.8408	-0.001
Mof_H 	H 	0.9242	0.2439	0.8693	0.007
Mof_C 	C 	0.985	0.2047	0.08	-0.751
Mof_H 	H 	0.0734	0.2235	0.1765	0.309
Mof_H 	H 	0.008	0.1701	0.1101	0.331
Mof_C 	C 	0.836	0.2166	0.066	0.855
Mof_Nd	Nd	0.47432	0.99084	0.49873	2.272
Mof_O 	O 	0.624	0.0167	0.799	-0.643
Mof_O 	O 	0.761	0.0385	0.07	-0.349
Mof_O 	O 	0.325	0.0161	0.197	-0.634
Mof_O 	O 	0.2	0.0399	0.929	-0.565
Mof_C 	C 	0.752	0.0326	0.933	0.384
Mof_C 	C 	0.888	0.0428	0.921	-0.609
Mof_H 	H 	0.8855	0.0215	0.833	0.137
Mof_H 	H 	0.8795	0.0766	0.8816	0.117
Mof_C 	C 	0.049	0.0364	0.09	0.118
Mof_H 	H 	0.0678	0.0649	0.1639	0.013
Mof_H 	H 	0.0416	0.0077	0.1499	0.04
Mof_C 	C 	0.201	0.0301	0.067	0.553
Mof_O 	O 	0.406	0.9163	0.326	-0.406
Mof_O 	O 	0.559	0.9139	0.672	-0.523
Mof_C 	C 	0.434	0.8746	0.404	0.206
Mof_C 	C 	0.535	0.8751	0.606	0.368
Mof_Nd	Nd	0.492	0.75896	0.49735	2.283
Mof_O 	O 	0.394	0.8338	0.326	-0.399
Mof_O 	O 	0.586	0.8354	0.673	-0.513
Mof_O 	O 	0.646	0.7334	0.799	-0.584
Mof_O 	O 	0.787	0.7086	0.069	-0.279
Mof_O 	O 	0.206	0.7098	0.929	-0.557
Mof_O 	O 	0.344	0.7347	0.197	-0.634
Mof_C 	C 	0.647	0.7196	0.932	0.23
Mof_C 	C 	0.488	0.714	0.922	-0.281
Mof_H 	H 	0.4277	0.6873	0.8408	0.066
Mof_H 	H 	0.4242	0.7439	0.8693	0.065
Mof_C 	C 	0.485	0.7047	0.08	-0.217
Mof_H 	H 	0.5734	0.7235	0.1765	0.088
Mof_H 	H 	0.508	0.6701	0.1101	0.103
Mof_C 	C 	0.336	0.7166	0.066	0.661
_end
