data_functionalizedCrystal
_audit_creation_method	'EQeq! by Chris Wilmer'
_symmetry_space_group_name_H-M	'P1'
_symmetry_Int_Tables_number	1
_symmetry_cell_setting	triclinic
loop_
_symmetry_equiv_pos_as_xyz
  x,y,z
_cell_length_a	10.586
_cell_length_b	28.043
_cell_length_c	17.448
_cell_angle_alpha	90
_cell_angle_beta	92.08
_cell_angle_gamma	90
loop_
_atom_site_label
_atom_site_type_symbol
_atom_site_fract_x
_atom_site_fract_y
_atom_site_fract_z
_atom_site_charge
Mof_O 	O 	0.149	0.38654	0.3056	-0.442
Mof_N 	N 	0.0789	0.45725	0.1689	-0.271
Mof_C 	C 	0.1112	0.35087	0.3439	0.32
Mof_C 	C 	0.0625	0.4464	0.0955	0.075
Mof_C 	C 	0.1622	0.4914	0.1867	0.08
Mof_O 	O 	0.997	0.34174	0.3485	-0.425
Mof_C 	C 	0.2106	0.32429	0.391	-0.045
Mof_H 	H 	0.0006	0.4241	0.0818	-0.019
Mof_C 	C 	0.1321	0.4662	0.0379	-0.133
Mof_C 	C 	0.2349	0.5137	0.133	-0.134
Mof_H 	H 	0.1721	0.5007	0.2377	-0.02
Mof_Zn	Zn	0.86147	0.2871	0.37077	1.215
Mof_C 	C 	0.2324	0.3396	0.4657	-0.026
Mof_C 	C 	0.281	0.2861	0.3627	-0.056
Mof_H 	H 	0.1184	0.4569	0.9872	0.069
Mof_C 	C 	0.2223	0.5003	0.0572	0.048
Mof_H 	H 	0.2917	0.5375	0.148	0.087
Mof_O 	O 	0.1731	0.28707	0.2425	-0.448
Mof_O 	O 	0.4959	0.26435	0.6071	-0.392
Mof_O 	O 	0.5618	0.22439	0.5082	-0.379
Mof_N 	N 	0.7316	0.6601	0.8999	-0.257
Mof_C 	C 	0.4889	0.2555	0.5372	0.289
Mof_H 	H 	0.1859	0.365	0.4843	0.041
Mof_C 	C 	0.3231	0.3175	0.5132	-0.018
Mof_C 	C 	0.3726	0.2651	0.4107	0.001
Mof_C 	C 	0.2593	0.267	0.283	0.349
Mof_C 	C 	0.3056	0.5197	0.0001	0.103
Mof_C 	C 	0.6904	0.6531	0.9704	0.095
Mof_C 	C 	0.6805	0.6329	0.8439	0.071
Mof_C 	C 	0.3934	0.2803	0.4858	-0.059
Mof_H 	H 	0.3364	0.3279	0.5635	0.057
Mof_H 	H 	0.4211	0.2402	0.3921	0.06
Mof_O 	O 	0.3199	0.2324	0.2629	-0.288
Mof_N 	N 	0.3083	0.5037	0.9278	-0.169
Mof_N 	N 	0.3899	0.55427	0.0131	-0.13
Mof_C 	C 	0.599	0.6209	0.9872	-0.148
Mof_H 	H 	0.726	0.6712	0.0102	-0.017
Mof_C 	C 	0.5883	0.6	0.8566	-0.131
Mof_H 	H 	0.7087	0.6366	0.7943	0.006
Mof_H 	H 	0.2614	0.4816	0.9079	0.114
Mof_N 	N 	0.3993	0.529	0.8911	-0.085
Mof_C 	C 	0.4447	0.5588	0.9449	0.09
Mof_C 	C 	0.5449	0.5933	0.9295	0.073
Mof_H 	H 	0.5734	0.6176	0.0373	0.094
Mof_H 	H 	0.5548	0.582	0.816	0.088
Mof_O 	O 	0.649	0.88654	0.3056	-0.446
Mof_N 	N 	0.5789	0.95725	0.1689	-0.266
Mof_C 	C 	0.6112	0.85087	0.3439	0.37
Mof_C 	C 	0.5625	0.9464	0.0955	0.079
Mof_C 	C 	0.6622	0.9914	0.1867	0.086
Mof_O 	O 	0.497	0.84174	0.3485	-0.47
Mof_C 	C 	0.7106	0.82429	0.391	-0.055
Mof_H 	H 	0.5006	0.9241	0.0818	-0.006
Mof_C 	C 	0.6321	0.9662	0.0379	-0.129
Mof_C 	C 	0.7349	0.0137	0.133	-0.134
Mof_H 	H 	0.6721	0.0007	0.2377	-0.015
Mof_Zn	Zn	0.36147	0.7871	0.37077	1.21
Mof_C 	C 	0.7324	0.8396	0.4657	-0.016
Mof_C 	C 	0.781	0.7861	0.3627	-0.046
Mof_H 	H 	0.6184	0.9569	0.9872	0.076
Mof_C 	C 	0.7223	0.0003	0.0572	0.053
Mof_H 	H 	0.7917	0.0375	0.148	0.094
Mof_O 	O 	0.6731	0.78707	0.2425	-0.438
Mof_O 	O 	0.9959	0.76435	0.6071	-0.384
Mof_O 	O 	0.0618	0.72439	0.5082	-0.421
Mof_N 	N 	0.2316	0.1601	0.8999	-0.25
Mof_C 	C 	0.9889	0.7555	0.5372	0.336
Mof_H 	H 	0.6859	0.865	0.4843	0.047
Mof_C 	C 	0.8231	0.8175	0.5132	-0.014
Mof_C 	C 	0.8726	0.7651	0.4107	0.004
Mof_C 	C 	0.7593	0.767	0.283	0.346
Mof_C 	C 	0.8056	0.0197	0.0001	0.107
Mof_C 	C 	0.1904	0.1531	0.9704	0.067
Mof_C 	C 	0.1805	0.1329	0.8439	0.045
Mof_C 	C 	0.8934	0.7803	0.4858	-0.062
Mof_H 	H 	0.8364	0.8279	0.5635	0.062
Mof_H 	H 	0.9211	0.7402	0.3921	0.07
Mof_O 	O 	0.8199	0.7324	0.2629	-0.274
Mof_N 	N 	0.8083	0.0037	0.9278	-0.167
Mof_N 	N 	0.8899	0.05427	0.0131	-0.131
Mof_C 	C 	0.099	0.1209	0.9872	-0.112
Mof_H 	H 	0.226	0.1712	0.0102	-0.014
Mof_C 	C 	0.0883	0.1	0.8566	-0.094
Mof_H 	H 	0.2087	0.1366	0.7943	0.011
Mof_H 	H 	0.7614	0.9816	0.9079	0.12
Mof_N 	N 	0.8993	0.029	0.8911	-0.083
Mof_C 	C 	0.9447	0.0588	0.9449	0.144
Mof_C 	C 	0.0449	0.0933	0.9295	0.005
Mof_H 	H 	0.0734	0.1176	0.0373	0.069
Mof_H 	H 	0.0548	0.082	0.816	0.061
Mof_O 	O 	0.851	0.38654	0.1944	-0.448
Mof_N 	N 	0.9211	0.45725	0.3311	-0.256
Mof_C 	C 	0.8888	0.35087	0.1561	0.421
Mof_C 	C 	0.9375	0.4464	0.4045	0.081
Mof_C 	C 	0.8378	0.4914	0.3133	0.086
Mof_O 	O 	0.003	0.34174	0.1515	-0.512
Mof_C 	C 	0.7894	0.32429	0.109	-0.072
Mof_H 	H 	0.9994	0.4241	0.4182	0.007
Mof_C 	C 	0.8679	0.4662	0.4621	-0.124
Mof_C 	C 	0.7651	0.5137	0.367	-0.129
Mof_H 	H 	0.8279	0.5007	0.2623	-0.009
Mof_Zn	Zn	0.13853	0.2871	0.12923	1.207
Mof_C 	C 	0.7676	0.3396	0.0343	-0.002
Mof_C 	C 	0.719	0.2861	0.1373	-0.039
Mof_H 	H 	0.8816	0.4569	0.5128	0.082
Mof_C 	C 	0.7777	0.5003	0.4428	0.053
Mof_H 	H 	0.7083	0.5375	0.352	0.089
Mof_O 	O 	0.8269	0.28707	0.2575	-0.432
Mof_O 	O 	0.5041	0.26435	0.8929	-0.392
Mof_O 	O 	0.4382	0.22439	0.9918	-0.381
Mof_N 	N 	0.2684	0.6601	0.6001	-0.257
Mof_C 	C 	0.5111	0.2555	0.9628	0.286
Mof_H 	H 	0.8141	0.365	0.0157	0.049
Mof_C 	C 	0.6769	0.3175	0.9868	-0.029
Mof_C 	C 	0.6274	0.2651	0.0893	-0.011
Mof_C 	C 	0.7407	0.267	0.217	0.342
Mof_C 	C 	0.6944	0.5197	0.4999	0.109
Mof_C 	C 	0.3096	0.6531	0.5296	0.093
Mof_C 	C 	0.3195	0.6329	0.6561	0.071
Mof_C 	C 	0.6066	0.2803	0.0142	-0.051
Mof_H 	H 	0.6636	0.3279	0.9365	0.064
Mof_H 	H 	0.5789	0.2402	0.1079	0.063
Mof_O 	O 	0.6801	0.2324	0.2371	-0.28
Mof_N 	N 	0.6917	0.5037	0.5722	-0.169
Mof_N 	N 	0.6101	0.55427	0.4869	-0.13
Mof_C 	C 	0.401	0.6209	0.5128	-0.147
Mof_H 	H 	0.274	0.6712	0.4898	-0.02
Mof_C 	C 	0.4117	0.6	0.6434	-0.13
Mof_H 	H 	0.2913	0.6366	0.7057	0.006
Mof_H 	H 	0.7386	0.4816	0.5921	0.122
Mof_N 	N 	0.6007	0.529	0.6089	-0.083
Mof_C 	C 	0.5553	0.5588	0.5551	0.092
Mof_C 	C 	0.4551	0.5933	0.5705	0.073
Mof_H 	H 	0.4266	0.6176	0.4627	0.092
Mof_H 	H 	0.4452	0.582	0.684	0.087
Mof_O 	O 	0.351	0.88654	0.1944	-0.451
Mof_N 	N 	0.4211	0.95725	0.3311	-0.265
Mof_C 	C 	0.3888	0.85087	0.1561	0.372
Mof_C 	C 	0.4375	0.9464	0.4045	0.078
Mof_C 	C 	0.3378	0.9914	0.3133	0.082
Mof_O 	O 	0.503	0.84174	0.1515	-0.47
Mof_C 	C 	0.2894	0.82429	0.109	-0.064
Mof_H 	H 	0.4994	0.9241	0.4182	-0.006
Mof_C 	C 	0.3679	0.9662	0.4621	-0.128
Mof_C 	C 	0.2651	0.0137	0.367	-0.132
Mof_H 	H 	0.3279	0.0007	0.2623	-0.017
Mof_Zn	Zn	0.63853	0.7871	0.12923	1.212
Mof_C 	C 	0.2676	0.8396	0.0343	-0.007
Mof_C 	C 	0.219	0.7861	0.1373	-0.046
Mof_H 	H 	0.3816	0.9569	0.5128	0.075
Mof_C 	C 	0.2777	0.0003	0.4428	0.048
Mof_H 	H 	0.2083	0.0375	0.352	0.082
Mof_O 	O 	0.3269	0.78707	0.2575	-0.441
Mof_O 	O 	0.0041	0.76435	0.8929	-0.4
Mof_O 	O 	0.9382	0.72439	0.9918	-0.339
Mof_N 	N 	0.7684	0.1601	0.6001	-0.264
Mof_C 	C 	0.0111	0.7555	0.9628	0.237
Mof_H 	H 	0.3141	0.865	0.0157	0.042
Mof_C 	C 	0.1769	0.8175	0.9868	-0.04
Mof_C 	C 	0.1274	0.7651	0.0893	-0.018
Mof_C 	C 	0.2407	0.767	0.217	0.344
Mof_C 	C 	0.1944	0.0197	0.4999	0.103
Mof_C 	C 	0.8096	0.1531	0.5296	0.12
Mof_C 	C 	0.8195	0.1329	0.6561	0.097
Mof_C 	C 	0.1066	0.7803	0.0142	-0.042
Mof_H 	H 	0.1636	0.8279	0.9365	0.062
Mof_H 	H 	0.0789	0.7402	0.1079	0.055
Mof_O 	O 	0.1801	0.7324	0.2371	-0.293
Mof_N 	N 	0.1917	0.0037	0.5722	-0.17
Mof_N 	N 	0.1101	0.05427	0.4869	-0.13
Mof_C 	C 	0.901	0.1209	0.5128	-0.182
Mof_H 	H 	0.774	0.1712	0.4898	-0.023
Mof_C 	C 	0.9117	0.1	0.6434	-0.167
Mof_H 	H 	0.7913	0.1366	0.7057	0
Mof_H 	H 	0.2386	0.9816	0.5921	0.115
Mof_N 	N 	0.1007	0.029	0.6089	-0.086
Mof_C 	C 	0.0553	0.0588	0.5551	0.04
Mof_C 	C 	0.9551	0.0933	0.5705	0.14
Mof_H 	H 	0.9266	0.1176	0.4627	0.118
Mof_H 	H 	0.9452	0.082	0.684	0.113
Mof_O 	O 	0.851	0.61346	0.6944	-0.448
Mof_N 	N 	0.9211	0.54275	0.8311	-0.255
Mof_C 	C 	0.8888	0.64913	0.6561	0.422
Mof_C 	C 	0.9375	0.5536	0.9045	0.081
Mof_C 	C 	0.8378	0.5086	0.8133	0.086
Mof_O 	O 	0.003	0.65826	0.6515	-0.513
Mof_C 	C 	0.7894	0.67571	0.609	-0.073
Mof_H 	H 	0.9994	0.5759	0.9182	0.007
Mof_C 	C 	0.8679	0.5338	0.9621	-0.124
Mof_C 	C 	0.7651	0.4863	0.867	-0.129
Mof_H 	H 	0.8279	0.4993	0.7623	-0.009
Mof_Zn	Zn	0.13853	0.7129	0.62923	1.207
Mof_C 	C 	0.7676	0.6604	0.5343	-0.002
Mof_C 	C 	0.719	0.7139	0.6373	-0.038
Mof_H 	H 	0.8816	0.5431	0.0128	0.082
Mof_C 	C 	0.7777	0.4997	0.9428	0.053
Mof_H 	H 	0.7083	0.4625	0.852	0.089
Mof_O 	O 	0.8269	0.71293	0.7575	-0.432
Mof_O 	O 	0.5041	0.73565	0.3929	-0.392
Mof_O 	O 	0.4382	0.77561	0.4918	-0.381
Mof_N 	N 	0.2684	0.3399	0.1001	-0.257
Mof_C 	C 	0.5111	0.7445	0.4628	0.286
Mof_H 	H 	0.8141	0.635	0.5157	0.049
Mof_C 	C 	0.6769	0.6825	0.4868	-0.03
Mof_C 	C 	0.6274	0.7349	0.5893	-0.011
Mof_C 	C 	0.7407	0.733	0.717	0.342
Mof_C 	C 	0.6944	0.4803	0.9999	0.109
Mof_C 	C 	0.3096	0.3469	0.0296	0.094
Mof_C 	C 	0.3195	0.3671	0.1561	0.071
Mof_C 	C 	0.6066	0.7197	0.5142	-0.05
Mof_H 	H 	0.6636	0.6721	0.4365	0.064
Mof_H 	H 	0.5789	0.7598	0.6079	0.064
Mof_O 	O 	0.6801	0.7676	0.7371	-0.28
Mof_N 	N 	0.6917	0.4963	0.0722	-0.169
Mof_N 	N 	0.6101	0.44573	0.9869	-0.13
Mof_C 	C 	0.401	0.3791	0.0128	-0.147
Mof_H 	H 	0.274	0.3288	0.9898	-0.021
Mof_C 	C 	0.4117	0.4	0.1434	-0.13
Mof_H 	H 	0.2913	0.3634	0.2057	0.006
Mof_H 	H 	0.7386	0.5184	0.0921	0.122
Mof_N 	N 	0.6007	0.471	0.1089	-0.083
Mof_C 	C 	0.5553	0.4412	0.0551	0.092
Mof_C 	C 	0.4551	0.4067	0.0705	0.073
Mof_H 	H 	0.4266	0.3824	0.9627	0.092
Mof_H 	H 	0.4452	0.418	0.184	0.087
Mof_O 	O 	0.351	0.11346	0.6944	-0.451
Mof_N 	N 	0.4211	0.04275	0.8311	-0.265
Mof_C 	C 	0.3888	0.14913	0.6561	0.371
Mof_C 	C 	0.4375	0.0536	0.9045	0.078
Mof_C 	C 	0.3378	0.0086	0.8133	0.083
Mof_O 	O 	0.503	0.15826	0.6515	-0.47
Mof_C 	C 	0.2894	0.17571	0.609	-0.062
Mof_H 	H 	0.4994	0.0759	0.9182	-0.006
Mof_C 	C 	0.3679	0.0338	0.9621	-0.127
Mof_C 	C 	0.2651	0.9863	0.867	-0.132
Mof_H 	H 	0.3279	0.9993	0.7623	-0.017
Mof_Zn	Zn	0.63853	0.2129	0.62923	1.212
Mof_C 	C 	0.2676	0.1604	0.5343	-0.011
Mof_C 	C 	0.219	0.2139	0.6373	-0.048
Mof_H 	H 	0.3816	0.0431	0.0128	0.075
Mof_C 	C 	0.2777	0.9997	0.9428	0.048
Mof_H 	H 	0.2083	0.9625	0.852	0.082
Mof_O 	O 	0.3269	0.21293	0.7575	-0.441
Mof_O 	O 	0.0041	0.23565	0.3929	-0.4
Mof_O 	O 	0.9382	0.27561	0.4918	-0.339
Mof_N 	N 	0.7684	0.8399	0.1001	-0.264
Mof_C 	C 	0.0111	0.2445	0.4628	0.239
Mof_H 	H 	0.3141	0.135	0.5157	0.043
Mof_C 	C 	0.1769	0.1825	0.4868	-0.034
Mof_C 	C 	0.1274	0.2349	0.5893	-0.015
Mof_C 	C 	0.2407	0.233	0.717	0.345
Mof_C 	C 	0.1944	0.9803	0.9999	0.102
Mof_C 	C 	0.8096	0.8469	0.0296	0.12
Mof_C 	C 	0.8195	0.8671	0.1561	0.096
Mof_C 	C 	0.1066	0.2197	0.5142	-0.047
Mof_H 	H 	0.1636	0.1721	0.4365	0.06
Mof_H 	H 	0.0789	0.2598	0.6079	0.054
Mof_O 	O 	0.1801	0.2676	0.7371	-0.294
Mof_N 	N 	0.1917	0.9963	0.0722	-0.169
Mof_N 	N 	0.1101	0.94573	0.9869	-0.131
Mof_C 	C 	0.901	0.8791	0.0128	-0.181
Mof_H 	H 	0.774	0.8288	0.9898	-0.024
Mof_C 	C 	0.9117	0.9	0.1434	-0.166
Mof_H 	H 	0.7913	0.8634	0.2057	0
Mof_H 	H 	0.2386	0.0184	0.0921	0.115
Mof_N 	N 	0.1007	0.971	0.1089	-0.086
Mof_C 	C 	0.0553	0.9412	0.0551	0.042
Mof_C 	C 	0.9551	0.9067	0.0705	0.138
Mof_H 	H 	0.9266	0.8824	0.9627	0.117
Mof_H 	H 	0.9452	0.918	0.184	0.113
Mof_O 	O 	0.149	0.61346	0.8056	-0.443
Mof_N 	N 	0.0789	0.54275	0.6689	-0.273
Mof_C 	C 	0.1112	0.64913	0.8439	0.318
Mof_C 	C 	0.0625	0.5536	0.5955	0.076
Mof_C 	C 	0.1622	0.5086	0.6867	0.08
Mof_O 	O 	0.997	0.65826	0.8485	-0.425
Mof_C 	C 	0.2106	0.67571	0.891	-0.043
Mof_H 	H 	0.0006	0.5759	0.5818	-0.019
Mof_C 	C 	0.1321	0.5338	0.5379	-0.135
Mof_C 	C 	0.2349	0.4863	0.633	-0.135
Mof_H 	H 	0.1721	0.4993	0.7377	-0.02
Mof_Zn	Zn	0.86147	0.7129	0.87077	1.215
Mof_C 	C 	0.2324	0.6604	0.9657	-0.029
Mof_C 	C 	0.281	0.7139	0.8627	-0.057
Mof_H 	H 	0.1184	0.5431	0.4872	0.07
Mof_C 	C 	0.2223	0.4997	0.5572	0.049
Mof_H 	H 	0.2917	0.4625	0.648	0.087
Mof_O 	O 	0.1731	0.71293	0.7425	-0.448
Mof_O 	O 	0.4959	0.73565	0.1071	-0.392
Mof_O 	O 	0.5618	0.77561	0.0082	-0.379
Mof_N 	N 	0.7316	0.3399	0.3999	-0.256
Mof_C 	C 	0.4889	0.7445	0.0372	0.29
Mof_H 	H 	0.1859	0.635	0.9843	0.042
Mof_C 	C 	0.3231	0.6825	0.0132	-0.014
Mof_C 	C 	0.3726	0.7349	0.9107	0.002
Mof_C 	C 	0.2593	0.733	0.783	0.349
Mof_C 	C 	0.3056	0.4803	0.5001	0.102
Mof_C 	C 	0.6904	0.3469	0.4704	0.094
Mof_C 	C 	0.6805	0.3671	0.3439	0.071
Mof_C 	C 	0.3934	0.7197	0.9858	-0.062
Mof_H 	H 	0.3364	0.6721	0.0635	0.056
Mof_H 	H 	0.4211	0.7598	0.8921	0.059
Mof_O 	O 	0.3199	0.7676	0.7629	-0.288
Mof_N 	N 	0.3083	0.4963	0.4278	-0.169
Mof_N 	N 	0.3899	0.44573	0.5131	-0.13
Mof_C 	C 	0.599	0.3791	0.4872	-0.146
Mof_H 	H 	0.726	0.3288	0.5102	-0.017
Mof_C 	C 	0.5883	0.4	0.3566	-0.13
Mof_H 	H 	0.7087	0.3634	0.2943	0.006
Mof_H 	H 	0.2614	0.5184	0.4079	0.114
Mof_N 	N 	0.3993	0.471	0.3911	-0.085
Mof_C 	C 	0.4447	0.4412	0.4449	0.091
Mof_C 	C 	0.5449	0.4067	0.4295	0.072
Mof_H 	H 	0.5734	0.3824	0.5373	0.093
Mof_H 	H 	0.5548	0.418	0.316	0.087
Mof_O 	O 	0.649	0.11346	0.8056	-0.446
Mof_N 	N 	0.5789	0.04275	0.6689	-0.266
Mof_C 	C 	0.6112	0.14913	0.8439	0.37
Mof_C 	C 	0.5625	0.0536	0.5955	0.08
Mof_C 	C 	0.6622	0.0086	0.6867	0.086
Mof_O 	O 	0.497	0.15826	0.8485	-0.47
Mof_C 	C 	0.7106	0.17571	0.891	-0.056
Mof_H 	H 	0.5006	0.0759	0.5818	-0.007
Mof_C 	C 	0.6321	0.0338	0.5379	-0.131
Mof_C 	C 	0.7349	0.9863	0.633	-0.134
Mof_H 	H 	0.6721	0.9993	0.7377	-0.015
Mof_Zn	Zn	0.36147	0.2129	0.87077	1.21
Mof_C 	C 	0.7324	0.1604	0.9657	-0.013
Mof_C 	C 	0.781	0.2139	0.8627	-0.045
Mof_H 	H 	0.6184	0.0431	0.4872	0.077
Mof_C 	C 	0.7223	0.9997	0.5572	0.055
Mof_H 	H 	0.7917	0.9625	0.648	0.094
Mof_O 	O 	0.6731	0.21293	0.7425	-0.438
Mof_O 	O 	0.9959	0.23565	0.1071	-0.384
Mof_O 	O 	0.0618	0.27561	0.0082	-0.419
Mof_N 	N 	0.2316	0.8399	0.3999	-0.25
Mof_C 	C 	0.9889	0.2445	0.0372	0.333
Mof_H 	H 	0.6859	0.135	0.9843	0.046
Mof_C 	C 	0.8231	0.1825	0.0132	-0.017
Mof_C 	C 	0.8726	0.2349	0.9107	0.002
Mof_C 	C 	0.7593	0.233	0.783	0.346
Mof_C 	C 	0.8056	0.9803	0.5001	0.108
Mof_C 	C 	0.1904	0.8469	0.4704	0.068
Mof_C 	C 	0.1805	0.8671	0.3439	0.045
Mof_C 	C 	0.8934	0.2197	0.9858	-0.059
Mof_H 	H 	0.8364	0.1721	0.0635	0.063
Mof_H 	H 	0.9211	0.2598	0.8921	0.07
Mof_O 	O 	0.8199	0.2676	0.7629	-0.274
Mof_N 	N 	0.8083	0.9963	0.4278	-0.168
Mof_N 	N 	0.8899	0.94573	0.5131	-0.13
Mof_C 	C 	0.099	0.8791	0.4872	-0.112
Mof_H 	H 	0.226	0.8288	0.5102	-0.014
Mof_C 	C 	0.0883	0.9	0.3566	-0.094
Mof_H 	H 	0.2087	0.8634	0.2943	0.011
Mof_H 	H 	0.7614	0.0184	0.4079	0.12
Mof_N 	N 	0.8993	0.971	0.3911	-0.083
Mof_C 	C 	0.9447	0.9412	0.4449	0.143
Mof_C 	C 	0.0449	0.9067	0.4295	0.005
Mof_H 	H 	0.0734	0.8824	0.5373	0.068
Mof_H 	H 	0.0548	0.918	0.316	0.062
Mof_Zn	Zn	5.49078e-18	0.41412	0.25	1.197
Mof_Zn	Zn	0.5	0.91412	0.25	1.21
Mof_Zn	Zn	4.80308e-33	0.58588	0.75	1.197
Mof_Zn	Zn	0.5	0.08588	0.75	1.21
_end
