data_functionalizedCrystal
_audit_creation_method	'EQeq! by Chris Wilmer'
_symmetry_space_group_name_H-M	'P1'
_symmetry_Int_Tables_number	1
_symmetry_cell_setting	triclinic
loop_
_symmetry_equiv_pos_as_xyz
  x,y,z
_cell_length_a	16.158
_cell_length_b	22.4561
_cell_length_c	26.4807
_cell_angle_alpha	74.6196
_cell_angle_beta	72.2364
_cell_angle_gamma	68.9141
loop_
_atom_site_label
_atom_site_type_symbol
_atom_site_fract_x
_atom_site_fract_y
_atom_site_fract_z
_atom_site_charge
Mof_K 	K 	0.5748	0.0842	0.8346	2.726
Mof_K 	K 	0.7474	0.5215	0.8795	2.945
Mof_K 	K 	0.4936	0.4158	0.6654	2.732
Mof_K 	K 	0.1484	0.9785	0.6205	2.943
Mof_K 	K 	0.4252	0.9158	0.1654	2.725
Mof_K 	K 	0.2526	0.4785	0.1205	2.944
Mof_K 	K 	0.5064	0.5842	0.3346	2.732
Mof_K 	K 	0.8516	0.0215	0.3795	2.943
Mof_Cr	Cr	0.79391	0.96668	0.7789	2.02
Mof_Cr	Cr	0.979	0.0087	0.7477	2.388
Mof_Cr	Cr	0.95012	0.88956	0.8478	2.423
Mof_Cr	Cr	0.53949	0.53332	0.7211	2.013
Mof_Cr	Cr	0.7354	0.4913	0.7523	2.413
Mof_Cr	Cr	0.68748	0.61044	0.6522	2.425
Mof_Cr	Cr	0.20609	0.03332	0.2211	2.02
Mof_Cr	Cr	0.021	0.9913	0.2523	2.388
Mof_Cr	Cr	0.04988	0.11044	0.1522	2.423
Mof_Cr	Cr	0.46051	0.46668	0.2789	2.013
Mof_Cr	Cr	0.2646	0.5087	0.2477	2.413
Mof_Cr	Cr	0.31252	0.38956	0.3478	2.425
Mof_Co	Co	0.39462	0.78906	0.9641	1.206
Mof_Co	Co	0.14778	0.71094	0.5359	1.206
Mof_Co	Co	0.60538	0.21094	0.0359	1.206
Mof_Co	Co	0.85222	0.28906	0.4641	1.206
Mof_H 	H 	0.7823	0.1992	0.744	0.334
Mof_H 	H 	0.7002	0.1813	0.7877	0.22
Mof_H 	H 	0.7083	0.1845	0.7265	0.236
Mof_H 	H 	0.2329	0.8038	0.767	0.399
Mof_H 	H 	0.2593	0.8669	0.7367	0.331
Mof_H 	H 	0.2188	0.8343	0.7085	0.321
Mof_H 	H 	0.9178	0.7269	0.8005	0.359
Mof_H 	H 	0.8887	0.768	0.7474	0.376
Mof_H 	H 	0.8141	0.7566	0.7998	0.361
Mof_H 	H 	0.0121	0.0773	0.8741	0.363
Mof_H 	H 	0.9476	0.0482	0.9242	0.342
Mof_H 	H 	0.0529	0.0133	0.9117	0.366
Mof_H 	H 	0.8658	0.9728	0.6056	0.363
Mof_H 	H 	0.9721	0.9551	0.5945	0.328
Mof_H 	H 	0.912	0.028	0.5876	0.343
Mof_H 	H 	0.7037	0.9246	0.9814	0.364
Mof_H 	H 	0.6307	0.9294	0.9516	0.354
Mof_H 	H 	0.6489	0.9925	0.9541	0.335
Mof_H 	H 	0.7255	0.3008	0.756	0.335
Mof_H 	H 	0.6692	0.3187	0.7123	0.22
Mof_H 	H 	0.6193	0.3155	0.7735	0.236
Mof_H 	H 	0.8037	0.6962	0.733	0.399
Mof_H 	H 	0.8629	0.6331	0.7633	0.331
Mof_H 	H 	0.7616	0.6657	0.7915	0.321
Mof_H 	H 	0.4452	0.7731	0.6995	0.359
Mof_H 	H 	0.4041	0.732	0.7526	0.376
Mof_H 	H 	0.3705	0.7434	0.7002	0.361
Mof_H 	H 	0.9635	0.4227	0.6259	0.375
Mof_H 	H 	0.92	0.4518	0.5758	0.362
Mof_H 	H 	0.9779	0.4867	0.5883	0.378
Mof_H 	H 	0.4442	0.5272	0.8944	0.367
Mof_H 	H 	0.5217	0.5449	0.9055	0.332
Mof_H 	H 	0.5276	0.472	0.9124	0.351
Mof_H 	H 	0.6097	0.5754	0.5186	0.363
Mof_H 	H 	0.5117	0.5706	0.5484	0.353
Mof_H 	H 	0.5955	0.5075	0.5459	0.333
Mof_H 	H 	0.2177	0.8008	0.256	0.334
Mof_H 	H 	0.2998	0.8187	0.2123	0.22
Mof_H 	H 	0.2917	0.8155	0.2735	0.236
Mof_H 	H 	0.7671	0.1962	0.233	0.399
Mof_H 	H 	0.7407	0.1331	0.2633	0.331
Mof_H 	H 	0.7812	0.1657	0.2915	0.321
Mof_H 	H 	0.0822	0.2731	0.1995	0.359
Mof_H 	H 	0.1113	0.232	0.2526	0.376
Mof_H 	H 	0.1859	0.2434	0.2002	0.361
Mof_H 	H 	0.9879	0.9227	0.1259	0.363
Mof_H 	H 	0.0524	0.9518	0.0758	0.342
Mof_H 	H 	0.9471	0.9867	0.0883	0.366
Mof_H 	H 	0.1342	0.0272	0.3944	0.363
Mof_H 	H 	0.0279	0.0449	0.4055	0.328
Mof_H 	H 	0.088	0.972	0.4124	0.343
Mof_H 	H 	0.2963	0.0754	0.0186	0.364
Mof_H 	H 	0.3693	0.0706	0.0484	0.354
Mof_H 	H 	0.3511	0.0075	0.0459	0.335
Mof_H 	H 	0.2745	0.6992	0.244	0.335
Mof_H 	H 	0.3308	0.6813	0.2877	0.22
Mof_H 	H 	0.3807	0.6845	0.2265	0.236
Mof_H 	H 	0.1963	0.3038	0.267	0.399
Mof_H 	H 	0.1371	0.3669	0.2367	0.331
Mof_H 	H 	0.2384	0.3343	0.2085	0.321
Mof_H 	H 	0.5548	0.2269	0.3005	0.359
Mof_H 	H 	0.5959	0.268	0.2474	0.376
Mof_H 	H 	0.6295	0.2566	0.2998	0.361
Mof_H 	H 	0.0365	0.5773	0.3741	0.375
Mof_H 	H 	0.08	0.5482	0.4242	0.362
Mof_H 	H 	0.0221	0.5133	0.4117	0.378
Mof_H 	H 	0.5558	0.4728	0.1056	0.367
Mof_H 	H 	0.4783	0.4551	0.0945	0.332
Mof_H 	H 	0.4724	0.528	0.0876	0.351
Mof_H 	H 	0.3903	0.4246	0.4814	0.363
Mof_H 	H 	0.4883	0.4294	0.4516	0.353
Mof_H 	H 	0.4045	0.4925	0.4541	0.333
Mof_W 	W 	0.45252	0.9333	0.91198	1.328
Mof_W 	W 	0.49228	0.83448	0.0436	1.215
Mof_W 	W 	0.42923	0.70218	0.09172	0.968
Mof_W 	W 	0.2861	0.73815	0.89453	0.969
Mof_W 	W 	0.23491	0.9446	0.95362	0.941
Mof_W 	W 	0.56538	0.63994	0.96546	1.221
Mof_W 	W 	0.27462	0.84569	0.08587	0.956
Mof_W 	W 	0.62996	0.77188	0.91762	0.967
Mof_W 	W 	0.16505	0.79556	0.00606	0.951
Mof_W 	W 	0.35486	0.88802	0.84214	0.92
Mof_W 	W 	0.53236	0.72609	0.84799	0.944
Mof_W 	W 	0.32033	0.65161	0.01175	1.327
Mof_W 	W 	0.2978	0.5667	0.58802	1.328
Mof_W 	W 	0.37036	0.66552	0.4564	1.217
Mof_W 	W 	0.22313	0.79782	0.40828	0.969
Mof_W 	W 	0.91878	0.76185	0.60547	0.97
Mof_W 	W 	0.13313	0.5554	0.54638	0.938
Mof_W 	W 	0.17078	0.86006	0.53454	1.221
Mof_W 	W 	0.20618	0.65431	0.41413	0.957
Mof_W 	W 	0.31946	0.72812	0.58238	0.967
Mof_W 	W 	0.96667	0.70444	0.49394	0.964
Mof_W 	W 	0.08502	0.61198	0.65786	0.92
Mof_W 	W 	0.10644	0.77391	0.65201	0.942
Mof_W 	W 	0.98369	0.84839	0.48825	1.337
Mof_W 	W 	0.54748	0.0667	0.08802	1.328
Mof_W 	W 	0.50772	0.16552	0.9564	1.215
Mof_W 	W 	0.57077	0.29782	0.90828	0.968
Mof_W 	W 	0.7139	0.26185	0.10547	0.969
Mof_W 	W 	0.76509	0.0554	0.04638	0.941
Mof_W 	W 	0.43462	0.36006	0.03454	1.221
Mof_W 	W 	0.72538	0.15431	0.91413	0.956
Mof_W 	W 	0.37004	0.22812	0.08238	0.967
Mof_W 	W 	0.83495	0.20444	0.99394	0.951
Mof_W 	W 	0.64514	0.11198	0.15786	0.92
Mof_W 	W 	0.46764	0.27391	0.15201	0.944
Mof_W 	W 	0.67967	0.34839	0.98825	1.327
Mof_W 	W 	0.7022	0.4333	0.41198	1.328
Mof_W 	W 	0.62964	0.33448	0.5436	1.217
Mof_W 	W 	0.77687	0.20218	0.59172	0.969
Mof_W 	W 	0.08122	0.23815	0.39453	0.97
Mof_W 	W 	0.86687	0.4446	0.45362	0.938
Mof_W 	W 	0.82922	0.13994	0.46546	1.221
Mof_W 	W 	0.79382	0.34569	0.58587	0.957
Mof_W 	W 	0.68054	0.27188	0.41762	0.967
Mof_W 	W 	0.03333	0.29556	0.50606	0.964
Mof_W 	W 	0.91498	0.38802	0.34214	0.92
Mof_W 	W 	0.89356	0.22609	0.34799	0.942
Mof_W 	W 	0.01631	0.15161	0.51175	1.337
Mof_C 	C 	0.1235	0.8836	0.7648	1.056
Mof_C 	C 	0.9062	0.9858	0.6678	0.9
Mof_C 	C 	0.99	0.9986	0.8614	0.903
Mof_C 	C 	0.7415	0.1732	0.7538	-1.149
Mof_C 	C 	0.751	0.9403	0.8977	0.89
Mof_C 	C 	0.2171	0.8436	0.7422	-1.418
Mof_C 	C 	0.8734	0.7633	0.7859	-1.335
Mof_C 	C 	0.8696	0.8233	0.8015	0.919
Mof_C 	C 	0.002	0.0379	0.8961	-1.241
Mof_C 	C 	0.7964	0.1026	0.7586	0.87
Mof_C 	C 	0.9152	0.9854	0.6082	-1.226
Mof_C 	C 	0.6766	0.9474	0.9514	-1.208
Mof_C 	C 	0.7719	0.6164	0.7352	1.058
Mof_C 	C 	0.5598	0.5142	0.8322	0.898
Mof_C 	C 	0.85	0.5014	0.6386	0.92
Mof_C 	C 	0.6685	0.3268	0.7462	-1.15
Mof_C 	C 	0.589	0.5597	0.6023	0.889
Mof_C 	C 	0.8029	0.6564	0.7578	-1.419
Mof_C 	C 	0.4226	0.7367	0.7141	-1.335
Mof_C 	C 	0.4944	0.6767	0.6985	0.919
Mof_C 	C 	0.936	0.4621	0.6039	-1.291
Mof_C 	C 	0.6576	0.3974	0.7414	0.871
Mof_C 	C 	0.5088	0.5146	0.8918	-1.243
Mof_C 	C 	0.5754	0.5526	0.5486	-1.206
Mof_C 	C 	0.8765	0.1164	0.2352	1.056
Mof_C 	C 	0.0938	0.0142	0.3322	0.9
Mof_C 	C 	0.01	0.0014	0.1386	0.903
Mof_C 	C 	0.2585	0.8268	0.2462	-1.149
Mof_C 	C 	0.249	0.0597	0.1023	0.89
Mof_C 	C 	0.7829	0.1564	0.2578	-1.418
Mof_C 	C 	0.1266	0.2367	0.2141	-1.335
Mof_C 	C 	0.1304	0.1767	0.1985	0.919
Mof_C 	C 	0.998	0.9621	0.1039	-1.241
Mof_C 	C 	0.2036	0.8974	0.2414	0.87
Mof_C 	C 	0.0848	0.0146	0.3918	-1.226
Mof_C 	C 	0.3234	0.0526	0.0486	-1.208
Mof_C 	C 	0.2281	0.3836	0.2648	1.058
Mof_C 	C 	0.4402	0.4858	0.1678	0.898
Mof_C 	C 	0.15	0.4986	0.3614	0.92
Mof_C 	C 	0.3315	0.6732	0.2538	-1.15
Mof_C 	C 	0.411	0.4403	0.3977	0.889
Mof_C 	C 	0.1971	0.3436	0.2422	-1.419
Mof_C 	C 	0.5774	0.2633	0.2859	-1.335
Mof_C 	C 	0.5056	0.3233	0.3015	0.919
Mof_C 	C 	0.064	0.5379	0.3961	-1.291
Mof_C 	C 	0.3424	0.6026	0.2586	0.871
Mof_C 	C 	0.4912	0.4854	0.1082	-1.243
Mof_C 	C 	0.4246	0.4474	0.4514	-1.206
Mof_O 	O 	0.5017	0.9937	0.8943	-0.783
Mof_O 	O 	0.7521	0.062	0.7712	-1.064
Mof_O 	O 	0.1797	0.8759	0.9691	-0.469
Mof_O 	O 	0.3051	0.5786	0.0434	-0.731
Mof_O 	O 	0.8814	0.0886	0.7476	-0.842
Mof_O 	O 	0.5544	0.8583	0.8973	-0.517
Mof_O 	O 	0.8369	0.9727	0.7003	-0.825
Mof_O 	O 	0.3212	0.761	0.1278	-0.488
Mof_O 	O 	0.966	0.0003	0.6781	-1.053
Mof_O 	O 	0.2557	0.9115	0.0243	-0.49
Mof_O 	O 	0.8141	0.8745	0.7831	-0.821
Mof_O 	O 	0.9258	0.8207	0.8267	-0.87
Mof_O 	O 	0.2086	0.8075	0.0613	-0.473
Mof_O 	O 	0.6335	0.5622	0.9792	-0.69
Mof_O 	O 	0.3289	0.985	0.936	-0.505
Mof_O 	O 	0.2958	0.6584	0.9426	-0.506
Mof_O 	O 	0.5243	0.6645	0.0335	-0.505
Mof_O 	O 	0.6356	0.7529	0.8503	-0.501
Mof_O 	O 	0.4163	0.7129	0.8687	-0.487
Mof_O 	O 	0.4293	0.9393	0.8435	-0.536
Mof_O 	O 	0.1946	0.7042	0.0356	-0.509
Mof_O 	O 	0.4586	0.9017	0.9863	-0.533
Mof_O 	O 	0.5815	0.7892	0.9898	-0.501
Mof_O 	O 	0.2477	0.9492	0.8774	-0.462
Mof_O 	O 	0.3074	0.7534	0.9668	-0.56
Mof_O 	O 	0.5064	0.7412	0.931	-0.562
Mof_O 	O 	0.0943	0.937	0.7368	-1.097
Mof_O 	O 	0.2929	0.8231	0.8645	-0.471
Mof_O 	O 	0.5522	0.864	0.069	-0.664
Mof_O 	O 	0.9756	0.9472	0.879	-0.896
Mof_O 	O 	0.0767	0.8623	0.8077	-0.921
Mof_O 	O 	0.1663	0.7761	0.9387	-0.457
Mof_O 	O 	0.3747	0.8701	0.0913	-0.702
Mof_O 	O 	0.464	0.8172	0.8322	-0.477
Mof_O 	O 	0.4467	0.6302	0.9784	-0.53
Mof_O 	O 	0.3986	0.7911	0.0317	-0.561
Mof_O 	O 	0.8334	0.9053	0.9003	-0.841
Mof_O 	O 	0.0592	0.0656	0.7	-0.684
Mof_O 	O 	0.5852	0.6434	0.889	-0.676
Mof_O 	O 	0.6624	0.6802	0.9468	-0.548
Mof_O 	O 	0.7281	0.9657	0.8551	-0.993
Mof_O 	O 	0.3636	0.872	0.9244	-0.557
Mof_O 	O 	0.9082	0.954	0.7926	-1.272
Mof_O 	O 	0.3534	0.6751	0.0651	-0.513
Mof_O 	O 	0.005	0.0259	0.8109	-0.771
Mof_O 	O 	0.5016	0.7516	0.094	-0.554
Mof_O 	O 	0.3897	0.5063	0.6057	-0.785
Mof_O 	O 	0.5853	0.438	0.7288	-1.062
Mof_O 	O 	0.0247	0.6241	0.5309	-0.474
Mof_O 	O 	0.9271	0.9214	0.4566	-0.73
Mof_O 	O 	0.7176	0.4114	0.7524	-0.844
Mof_O 	O 	0.31	0.6417	0.6027	-0.517
Mof_O 	O 	0.5099	0.5273	0.7997	-0.825
Mof_O 	O 	0.21	0.739	0.3722	-0.489
Mof_O 	O 	0.6444	0.4997	0.8219	-1.051
Mof_O 	O 	0.1915	0.5885	0.4757	-0.487
Mof_O 	O 	0.4717	0.6255	0.7169	-0.821
Mof_O 	O 	0.5732	0.6793	0.6733	-0.87
Mof_O 	O 	0.0774	0.6925	0.4387	-0.475
Mof_O 	O 	0.1749	0.9378	0.5208	-0.69
Mof_O 	O 	0.2499	0.515	0.564	-0.505
Mof_O 	O 	0.8968	0.8416	0.5574	-0.507
Mof_O 	O 	0.2223	0.8355	0.4665	-0.505
Mof_O 	O 	0.2388	0.7471	0.6497	-0.501
Mof_O 	O 	0.9979	0.7871	0.6313	-0.486
Mof_O 	O 	0.2121	0.5607	0.6565	-0.537
Mof_O 	O 	0.9344	0.7958	0.4644	-0.509
Mof_O 	O 	0.3466	0.5983	0.5137	-0.534
Mof_O 	O 	0.3605	0.7108	0.5102	-0.502
Mof_O 	O 	0.0743	0.5508	0.6226	-0.462
Mof_O 	O 	0.0276	0.7466	0.5332	-0.565
Mof_O 	O 	0.1786	0.7588	0.569	-0.562
Mof_O 	O 	0.7681	0.563	0.7632	-1.101
Mof_O 	O 	0.9805	0.6769	0.6355	-0.471
Mof_O 	O 	0.4852	0.636	0.431	-0.665
Mof_O 	O 	0.8018	0.5528	0.621	-0.903
Mof_O 	O 	0.7467	0.6377	0.6923	-0.922
Mof_O 	O 	0.8811	0.7239	0.5613	-0.46
Mof_O 	O 	0.3361	0.6299	0.4087	-0.702
Mof_O 	O 	0.1134	0.6828	0.6678	-0.477
Mof_O 	O 	0.0553	0.8698	0.5216	-0.534
Mof_O 	O 	0.2214	0.7089	0.4683	-0.56
Mof_O 	O 	0.639	0.5947	0.5997	-0.841
Mof_O 	O 	0.8248	0.4344	0.8	-0.691
Mof_O 	O 	0.1176	0.8566	0.611	-0.676
Mof_O 	O 	0.2894	0.8198	0.5532	-0.547
Mof_O 	O 	0.5489	0.5343	0.6449	-0.993
Mof_O 	O 	0.16	0.628	0.5756	-0.557
Mof_O 	O 	0.6548	0.546	0.7074	-1.277
Mof_O 	O 	0.0936	0.8249	0.4349	-0.516
Mof_O 	O 	0.8418	0.4741	0.6891	-0.784
Mof_O 	O 	0.3472	0.7484	0.406	-0.555
Mof_O 	O 	0.4983	0.0063	0.1057	-0.783
Mof_O 	O 	0.2479	0.938	0.2288	-1.064
Mof_O 	O 	0.8203	0.1241	0.0309	-0.469
Mof_O 	O 	0.6949	0.4214	0.9566	-0.731
Mof_O 	O 	0.1186	0.9114	0.2524	-0.842
Mof_O 	O 	0.4456	0.1417	0.1027	-0.517
Mof_O 	O 	0.1631	0.0273	0.2997	-0.825
Mof_O 	O 	0.6788	0.239	0.8722	-0.488
Mof_O 	O 	0.034	0.9997	0.3219	-1.053
Mof_O 	O 	0.7443	0.0885	0.9757	-0.49
Mof_O 	O 	0.1859	0.1255	0.2169	-0.821
Mof_O 	O 	0.0742	0.1793	0.1733	-0.87
Mof_O 	O 	0.7914	0.1925	0.9387	-0.473
Mof_O 	O 	0.3665	0.4378	0.0208	-0.69
Mof_O 	O 	0.6711	0.015	0.064	-0.505
Mof_O 	O 	0.7042	0.3416	0.0574	-0.506
Mof_O 	O 	0.4757	0.3355	0.9665	-0.505
Mof_O 	O 	0.3644	0.2471	0.1497	-0.501
Mof_O 	O 	0.5837	0.2871	0.1313	-0.487
Mof_O 	O 	0.5707	0.0607	0.1565	-0.536
Mof_O 	O 	0.8054	0.2958	0.9644	-0.509
Mof_O 	O 	0.5414	0.0983	0.0137	-0.533
Mof_O 	O 	0.4185	0.2108	0.0102	-0.501
Mof_O 	O 	0.7523	0.0508	0.1226	-0.462
Mof_O 	O 	0.6926	0.2466	0.0332	-0.56
Mof_O 	O 	0.4936	0.2588	0.069	-0.562
Mof_O 	O 	0.9057	0.063	0.2632	-1.097
Mof_O 	O 	0.7071	0.1769	0.1355	-0.471
Mof_O 	O 	0.4478	0.136	0.931	-0.664
Mof_O 	O 	0.0244	0.0528	0.121	-0.896
Mof_O 	O 	0.9233	0.1377	0.1923	-0.921
Mof_O 	O 	0.8337	0.2239	0.0613	-0.457
Mof_O 	O 	0.6253	0.1299	0.9087	-0.702
Mof_O 	O 	0.536	0.1828	0.1678	-0.477
Mof_O 	O 	0.5533	0.3698	0.0216	-0.53
Mof_O 	O 	0.6014	0.2089	0.9683	-0.561
Mof_O 	O 	0.1666	0.0947	0.0997	-0.841
Mof_O 	O 	0.9408	0.9344	0.3	-0.684
Mof_O 	O 	0.4148	0.3566	0.111	-0.676
Mof_O 	O 	0.3376	0.3198	0.0532	-0.548
Mof_O 	O 	0.2719	0.0343	0.1449	-0.993
Mof_O 	O 	0.6364	0.128	0.0756	-0.557
Mof_O 	O 	0.0918	0.046	0.2074	-1.272
Mof_O 	O 	0.6466	0.3249	0.9349	-0.513
Mof_O 	O 	0.995	0.9741	0.1891	-0.771
Mof_O 	O 	0.4984	0.2484	0.906	-0.554
Mof_O 	O 	0.6103	0.4937	0.3943	-0.785
Mof_O 	O 	0.4147	0.562	0.2712	-1.062
Mof_O 	O 	0.9753	0.3759	0.4691	-0.474
Mof_O 	O 	0.0729	0.0786	0.5434	-0.73
Mof_O 	O 	0.2824	0.5886	0.2476	-0.844
Mof_O 	O 	0.69	0.3583	0.3973	-0.517
Mof_O 	O 	0.4901	0.4727	0.2003	-0.825
Mof_O 	O 	0.79	0.261	0.6278	-0.489
Mof_O 	O 	0.3556	0.5003	0.1781	-1.051
Mof_O 	O 	0.8085	0.4115	0.5243	-0.487
Mof_O 	O 	0.5283	0.3745	0.2831	-0.821
Mof_O 	O 	0.4268	0.3207	0.3267	-0.87
Mof_O 	O 	0.9226	0.3075	0.5613	-0.475
Mof_O 	O 	0.8251	0.0622	0.4792	-0.69
Mof_O 	O 	0.7501	0.485	0.436	-0.505
Mof_O 	O 	0.1032	0.1584	0.4426	-0.507
Mof_O 	O 	0.7777	0.1645	0.5335	-0.505
Mof_O 	O 	0.7612	0.2529	0.3503	-0.501
Mof_O 	O 	0.0021	0.2129	0.3687	-0.486
Mof_O 	O 	0.7879	0.4393	0.3435	-0.537
Mof_O 	O 	0.0656	0.2042	0.5356	-0.509
Mof_O 	O 	0.6534	0.4017	0.4863	-0.534
Mof_O 	O 	0.6395	0.2892	0.4898	-0.502
Mof_O 	O 	0.9257	0.4492	0.3774	-0.462
Mof_O 	O 	0.9724	0.2534	0.4668	-0.565
Mof_O 	O 	0.8214	0.2412	0.431	-0.562
Mof_O 	O 	0.2319	0.437	0.2368	-1.101
Mof_O 	O 	0.0195	0.3231	0.3645	-0.471
Mof_O 	O 	0.5148	0.364	0.569	-0.665
Mof_O 	O 	0.1982	0.4472	0.379	-0.903
Mof_O 	O 	0.2533	0.3623	0.3077	-0.922
Mof_O 	O 	0.1189	0.2761	0.4387	-0.46
Mof_O 	O 	0.6639	0.3701	0.5913	-0.702
Mof_O 	O 	0.8866	0.3172	0.3322	-0.477
Mof_O 	O 	0.9447	0.1302	0.4784	-0.534
Mof_O 	O 	0.7786	0.2911	0.5317	-0.56
Mof_O 	O 	0.361	0.4053	0.4003	-0.841
Mof_O 	O 	0.1752	0.5656	0.2	-0.691
Mof_O 	O 	0.8824	0.1434	0.389	-0.676
Mof_O 	O 	0.7106	0.1802	0.4468	-0.547
Mof_O 	O 	0.4511	0.4657	0.3551	-0.993
Mof_O 	O 	0.84	0.372	0.4244	-0.557
Mof_O 	O 	0.3452	0.454	0.2926	-1.277
Mof_O 	O 	0.9064	0.1751	0.5651	-0.516
Mof_O 	O 	0.1582	0.5259	0.3109	-0.784
Mof_O 	O 	0.6528	0.2516	0.594	-0.555
_end
