data_functionalizedCrystal
_audit_creation_method	'EQeq! by Chris Wilmer'
_symmetry_space_group_name_H-M	'P1'
_symmetry_Int_Tables_number	1
_symmetry_cell_setting	triclinic
loop_
_symmetry_equiv_pos_as_xyz
  x,y,z
_cell_length_a	7.7565
_cell_length_b	9.5643
_cell_length_c	15.1895
_cell_angle_alpha	96.781
_cell_angle_beta	94.868
_cell_angle_gamma	110.509
loop_
_atom_site_label
_atom_site_type_symbol
_atom_site_fract_x
_atom_site_fract_y
_atom_site_fract_z
_atom_site_charge
Mof_Mn	Mn	0.29379	0.87735	0.58373	0.816
Mof_Mn	Mn	0.70621	0.12265	0.41627	0.816
Mof_H 	H 	0.8946	0.6509	0.9267	0.037
Mof_H 	H 	0.7002	0.8725	0.7921	0.059
Mof_H 	H 	0.6057	0.4689	0.5783	0.03
Mof_H 	H 	0.6484	0.2377	0.9757	0.052
Mof_H 	H 	0.3233	0.9367	0.1097	0.055
Mof_H 	H 	0.6767	0.0633	0.8903	0.055
Mof_H 	H 	0.6271	0.4298	0.0742	0.049
Mof_H 	H 	0.8198	0.221	0.2209	0.032
Mof_H 	H 	0.8377	0.8413	0.0115	0.081
Mof_H 	H 	0.9893	0.2828	0.7649	0.077
Mof_H 	H 	0.4495	0.7711	0.2198	0.016
Mof_H 	H 	0.5505	0.2289	0.7802	0.016
Mof_H 	H 	0.8921	0.0737	0.0965	0.035
Mof_H 	H 	0.1054	0.3491	0.0733	0.037
Mof_H 	H 	0.3943	0.5311	0.4217	0.03
Mof_H 	H 	0.0546	0.5197	0.1494	0.041
Mof_H 	H 	0.8583	0.8621	0.3064	-0.013
Mof_H 	H 	0.4698	0.5708	0.1269	0.079
Mof_H 	H 	0.1079	0.9263	0.9035	0.035
Mof_H 	H 	0.3516	0.7623	0.0243	0.052
Mof_H 	H 	0.1417	0.1379	0.6936	-0.013
Mof_H 	H 	0.1623	0.1587	0.9885	0.081
Mof_H 	H 	0.3729	0.5702	0.9258	0.049
Mof_H 	H 	0.2998	0.1275	0.2079	0.059
Mof_H 	H 	0.5302	0.4292	0.8731	0.079
Mof_H 	H 	0.0107	0.7172	0.2351	0.077
Mof_H 	H 	0.9454	0.4803	0.8506	0.041
Mof_H 	H 	0.1802	0.779	0.7791	0.032
Mof_C 	C 	0.4899	0.062	0.0314	0.015
Mof_C 	C 	0.9835	0.5625	0.0279	-0.008
Mof_C 	C 	0.4131	0.5407	0.3627	0.064
Mof_C 	C 	0.8843	0.778	0.0395	-0.124
Mof_C 	C 	0.3944	0.7987	0.393	0.378
Mof_C 	C 	0.0165	0.4375	0.9721	-0.008
Mof_C 	C 	0.5869	0.4593	0.6373	0.064
Mof_C 	C 	0.9858	0.7034	0.173	-0.116
Mof_C 	C 	0.1641	0.8706	0.7774	0.015
Mof_C 	C 	0.4209	0.7857	0.9774	-0.061
Mof_C 	C 	0.8567	0.933	0.2697	0.111
Mof_C 	C 	0.9861	0.4143	0.8791	-0.023
Mof_C 	C 	0.1237	0.9515	0.8467	-0.005
Mof_C 	C 	0.0139	0.5857	0.1209	-0.023
Mof_C 	C 	0.3719	0.1511	0.162	-0.041
Mof_C 	C 	0.9203	0.7996	0.1315	0.115
Mof_C 	C 	0.4174	0.673	0.3311	-0.142
Mof_C 	C 	0.5791	0.2143	0.0226	-0.061
Mof_C 	C 	0.1433	0.067	0.7303	0.111
Mof_C 	C 	0.6281	0.8489	0.838	-0.041
Mof_C 	C 	0.0797	0.2004	0.8685	0.115
Mof_C 	C 	0.8763	0.0485	0.1533	-0.005
Mof_C 	C 	0.1157	0.222	0.9605	-0.124
Mof_C 	C 	0.5101	0.938	0.9686	0.015
Mof_C 	C 	0.564	0.5765	0.6914	-0.126
Mof_C 	C 	0.5424	0.4368	0.8133	-0.139
Mof_C 	C 	0.9172	0.6625	0.9887	-0.019
Mof_C 	C 	0.5663	0.3305	0.0823	-0.045
Mof_C 	C 	0.5448	0.7031	0.6437	0.346
Mof_C 	C 	0.0828	0.3375	0.0113	-0.019
Mof_C 	C 	0.4426	0.6832	0.2422	0.061
Mof_C 	C 	0.6056	0.2013	0.607	0.378
Mof_C 	C 	0.4552	0.2969	0.3563	0.346
Mof_C 	C 	0.5346	0.6966	0.846	-0.006
Mof_C 	C 	0.5826	0.327	0.6689	-0.142
Mof_C 	C 	0.0142	0.2966	0.827	-0.116
Mof_C 	C 	0.545	0.5685	0.7817	0.08
Mof_C 	C 	0.5574	0.3168	0.7578	0.061
Mof_C 	C 	0.455	0.4315	0.2183	0.08
Mof_C 	C 	0.6139	0.9639	0.8978	-0.059
Mof_C 	C 	0.4337	0.6695	0.9177	-0.045
Mof_C 	C 	0.3861	0.0361	0.1022	-0.059
Mof_C 	C 	0.4654	0.3034	0.154	-0.006
Mof_C 	C 	0.8359	0.1294	0.2226	0.015
Mof_C 	C 	0.436	0.4235	0.3086	-0.126
Mof_C 	C 	0.4576	0.5632	0.1867	-0.139
Mof_N 	N 	0.1107	0.0789	0.8163	-0.143
Mof_N 	N 	0.8223	0.0562	0.2961	-0.191
Mof_N 	N 	0.1777	0.9438	0.7039	-0.191
Mof_N 	N 	0.8893	0.9211	0.1837	-0.143
Mof_O 	O 	0.3944	0.7275	0.64896	-0.344
Mof_O 	O 	0.6725	0.7675	0.602	-0.279
Mof_O 	O 	0.3275	0.2325	0.398	-0.279
Mof_O 	O 	0.319	0.7607	0.46082	-0.381
Mof_O 	O 	0.681	0.2393	0.53918	-0.381
Mof_O 	O 	0.4514	0.9302	0.37469	-0.379
Mof_O 	O 	0.5486	0.0698	0.62531	-0.379
Mof_O 	O 	0.6056	0.2725	0.35104	-0.344
_end
