data_functionalizedCrystal
_audit_creation_method	'EQeq! by Chris Wilmer'
_symmetry_space_group_name_H-M	'P1'
_symmetry_Int_Tables_number	1
_symmetry_cell_setting	triclinic
loop_
_symmetry_equiv_pos_as_xyz
  x,y,z
_cell_length_a	7.9316
_cell_length_b	15.7547
_cell_length_c	15.7547
_cell_angle_alpha	120
_cell_angle_beta	90
_cell_angle_gamma	90
loop_
_atom_site_label
_atom_site_type_symbol
_atom_site_fract_x
_atom_site_fract_y
_atom_site_fract_z
_atom_site_charge
Mof_Cd	Cd	0.98782	0.62594	0.9414	0.405
Mof_Cd	Cd	0.98782	0.31546	0.37406	0.404
Mof_Cd	Cd	0.98782	0.0586	0.68454	0.406
Mof_Cd	Cd	0.48782	0.68454	0.0586	0.507
Mof_Cd	Cd	0.48782	0.9414	0.62594	0.507
Mof_Cd	Cd	0.48782	0.37406	0.31546	0.508
Mof_H 	H 	0.694	0.5516	0.6348	0.066
Mof_H 	H 	0.696	0.7327	0.5262	0.074
Mof_H 	H 	0.922	0.8137	0.7822	0.055
Mof_H 	H 	0.694	0.0832	0.4484	0.065
Mof_H 	H 	0.696	0.7935	0.2673	0.074
Mof_H 	H 	0.922	0.9685	0.1863	0.055
Mof_H 	H 	0.694	0.3652	0.9168	0.066
Mof_H 	H 	0.696	0.4738	0.2065	0.074
Mof_H 	H 	0.922	0.2178	0.0315	0.055
Mof_H 	H 	0.194	0.9168	0.3652	0.087
Mof_H 	H 	0.196	0.2065	0.4738	0.086
Mof_H 	H 	0.422	0.0315	0.2178	0.075
Mof_H 	H 	0.194	0.6348	0.5516	0.087
Mof_H 	H 	0.196	0.5262	0.7327	0.085
Mof_H 	H 	0.422	0.7822	0.8137	0.075
Mof_H 	H 	0.194	0.4484	0.0832	0.087
Mof_H 	H 	0.196	0.2673	0.7935	0.086
Mof_H 	H 	0.422	0.1863	0.9685	0.075
Mof_C 	C 	0.8138	0.6799	0.7231	-0.065
Mof_C 	C 	0.7255	0.6108	0.6398	-0.007
Mof_C 	C 	0.6846	0.6291	0.5656	-0.053
Mof_C 	C 	0.8622	0.6615	0.8036	0.286
Mof_C 	C 	0.8725	0.8821	0.6634	0.185
Mof_C 	C 	0.6008	0.5532	0.4743	0.282
Mof_C 	C 	0.7278	0.7188	0.5748	-0.02
Mof_C 	C 	0.8186	0.7885	0.6562	-0.038
Mof_C 	C 	0.8607	0.7679	0.7283	-0.015
Mof_C 	C 	0.8138	0.0432	0.3201	-0.065
Mof_C 	C 	0.7255	0.029	0.3892	-0.005
Mof_C 	C 	0.6846	0.9365	0.3709	-0.054
Mof_C 	C 	0.8622	0.1421	0.3385	0.286
Mof_C 	C 	0.8725	0.7813	0.1179	0.186
Mof_C 	C 	0.6008	0.9211	0.4468	0.282
Mof_C 	C 	0.7278	0.856	0.2812	-0.019
Mof_C 	C 	0.8186	0.8677	0.2115	-0.039
Mof_C 	C 	0.8607	0.9604	0.2321	-0.015
Mof_C 	C 	0.8138	0.2769	0.9568	-0.064
Mof_C 	C 	0.7255	0.3602	0.971	-0.006
Mof_C 	C 	0.6846	0.4344	0.0635	-0.054
Mof_C 	C 	0.8622	0.1964	0.8579	0.286
Mof_C 	C 	0.8725	0.3366	0.2187	0.184
Mof_C 	C 	0.6008	0.5257	0.0789	0.282
Mof_C 	C 	0.7278	0.4252	0.144	-0.02
Mof_C 	C 	0.8186	0.3438	0.1323	-0.038
Mof_C 	C 	0.8607	0.2717	0.0396	-0.016
Mof_C 	C 	0.3138	0.9568	0.2769	-0.04
Mof_C 	C 	0.2255	0.971	0.3602	-0
Mof_C 	C 	0.1846	0.0635	0.4344	-0.025
Mof_C 	C 	0.3622	0.8579	0.1964	0.288
Mof_C 	C 	0.3725	0.2187	0.3366	0.302
Mof_C 	C 	0.1008	0.0789	0.5257	0.284
Mof_C 	C 	0.2278	0.144	0.4252	0.004
Mof_C 	C 	0.3186	0.1323	0.3438	-0.044
Mof_C 	C 	0.3607	0.0396	0.2717	0.011
Mof_C 	C 	0.3138	0.7231	0.6799	-0.039
Mof_C 	C 	0.2255	0.6398	0.6108	0.002
Mof_C 	C 	0.1846	0.5656	0.6291	-0.027
Mof_C 	C 	0.3622	0.8036	0.6615	0.288
Mof_C 	C 	0.3725	0.6634	0.8821	0.302
Mof_C 	C 	0.1008	0.4743	0.5532	0.284
Mof_C 	C 	0.2278	0.5748	0.7188	0.004
Mof_C 	C 	0.3186	0.6562	0.7885	-0.044
Mof_C 	C 	0.3607	0.7283	0.7679	0.009
Mof_C 	C 	0.3138	0.3201	0.0432	-0.039
Mof_C 	C 	0.2255	0.3892	0.029	-0
Mof_C 	C 	0.1846	0.3709	0.9365	-0.025
Mof_C 	C 	0.3622	0.3385	0.1421	0.288
Mof_C 	C 	0.3725	0.1179	0.7813	0.302
Mof_C 	C 	0.1008	0.4468	0.9211	0.284
Mof_C 	C 	0.2278	0.2812	0.856	0.004
Mof_C 	C 	0.3186	0.2115	0.8677	-0.044
Mof_C 	C 	0.3607	0.2321	0.9604	0.01
Mof_O 	O 	0.9259	0.7308	0.8801	-0.265
Mof_O 	O 	0.8444	0.5771	0.793	-0.26
Mof_O 	O 	0.7749	0.9293	0.6373	-0.251
Mof_O 	O 	0.0168	0.9133	0.6946	-0.12
Mof_O 	O 	0.5486	0.4748	0.4713	-0.253
Mof_O 	O 	0.5837	0.5651	0.402	-0.221
Mof_O 	O 	0.9259	0.1493	0.2692	-0.266
Mof_O 	O 	0.8444	0.2159	0.4229	-0.26
Mof_O 	O 	0.7749	0.708	0.0707	-0.251
Mof_O 	O 	0.0168	0.7813	0.0867	-0.122
Mof_O 	O 	0.5486	0.9965	0.5252	-0.254
Mof_O 	O 	0.5837	0.8369	0.4349	-0.221
Mof_O 	O 	0.9259	0.1199	0.8507	-0.265
Mof_O 	O 	0.8444	0.207	0.7841	-0.26
Mof_O 	O 	0.7749	0.3627	0.292	-0.25
Mof_O 	O 	0.0168	0.3054	0.2187	-0.119
Mof_O 	O 	0.5486	0.5287	0.0035	-0.254
Mof_O 	O 	0.5837	0.598	0.1631	-0.221
Mof_O 	O 	0.4259	0.8507	0.1199	-0.234
Mof_O 	O 	0.3444	0.7841	0.207	-0.227
Mof_O 	O 	0.2749	0.292	0.3627	-0.245
Mof_O 	O 	0.5168	0.2187	0.3054	-0.238
Mof_O 	O 	0.0486	0.0035	0.5287	-0.196
Mof_O 	O 	0.0837	0.1631	0.598	-0.18
Mof_O 	O 	0.4259	0.8801	0.7308	-0.233
Mof_O 	O 	0.3444	0.793	0.5771	-0.227
Mof_O 	O 	0.2749	0.6373	0.9293	-0.244
Mof_O 	O 	0.5168	0.6946	0.9133	-0.238
Mof_O 	O 	0.0486	0.4713	0.4748	-0.196
Mof_O 	O 	0.0837	0.402	0.5651	-0.18
Mof_O 	O 	0.4259	0.2692	0.1493	-0.233
Mof_O 	O 	0.3444	0.4229	0.2159	-0.227
Mof_O 	O 	0.2749	0.0707	0.708	-0.244
Mof_O 	O 	0.5168	0.0867	0.7813	-0.238
Mof_O 	O 	0.0486	0.5252	0.9965	-0.196
Mof_O 	O 	0.0837	0.4349	0.8369	-0.18
_end
