data_functionalizedCrystal
_audit_creation_method	'EQeq! by Chris Wilmer'
_symmetry_space_group_name_H-M	'P1'
_symmetry_Int_Tables_number	1
_symmetry_cell_setting	triclinic
loop_
_symmetry_equiv_pos_as_xyz
  x,y,z
_cell_length_a	18.5166
_cell_length_b	29.4652
_cell_length_c	16.385
_cell_angle_alpha	90
_cell_angle_beta	119.388
_cell_angle_gamma	90
loop_
_atom_site_label
_atom_site_type_symbol
_atom_site_fract_x
_atom_site_fract_y
_atom_site_fract_z
_atom_site_charge
Mof_Mg	Mg	0.79591	0.61451	0.72677	1.453
Mof_O 	O 	0.9446	0.5777	0.6347	-0.301
Mof_O 	O 	0.9509	0.6945	0.6347	-0.276
Mof_O 	O 	0.8665	0.66396	0.6777	-0.445
Mof_O 	O 	0.0734	0.59152	0.6747	-0.487
Mof_C 	C 	0.0045	0.5336	0.5626	-0.14
Mof_C 	C 	0.0685	0.5276	0.5426	0.021
Mof_H 	H 	0.1159	0.5467	0.5713	0.014
Mof_C 	C 	0.8302	0.7567	0.5167	-0.015
Mof_H 	H 	0.8851	0.7615	0.5281	0.069
Mof_C 	C 	0.9363	0.5056	0.5182	0.033
Mof_H 	H 	0.8914	0.5095	0.5301	0.029
Mof_C 	C 	0.7337	0.7158	0.5465	0.005
Mof_H 	H 	0.7221	0.6923	0.5782	0.026
Mof_C 	C 	0.814	0.722	0.5638	-0.089
Mof_C 	C 	0.008	0.5699	0.6265	0.379
Mof_C 	C 	0.8822	0.6921	0.6301	0.367
Mof_Mg	Mg	0.29591	0.11451	0.72677	1.452
Mof_O 	O 	0.4446	0.0777	0.6347	-0.314
Mof_O 	O 	0.4509	0.1945	0.6347	-0.285
Mof_O 	O 	0.3665	0.16396	0.6777	-0.45
Mof_O 	O 	0.5734	0.09152	0.6747	-0.487
Mof_C 	C 	0.5045	0.0336	0.5626	-0.109
Mof_C 	C 	0.5685	0.0276	0.5426	-0.008
Mof_H 	H 	0.6159	0.0467	0.5713	0.022
Mof_C 	C 	0.3302	0.2567	0.5167	-0.016
Mof_H 	H 	0.3851	0.2615	0.5281	0.067
Mof_C 	C 	0.4363	0.0056	0.5182	-0.007
Mof_H 	H 	0.3914	0.0095	0.5301	0.04
Mof_C 	C 	0.2337	0.2158	0.5465	0.005
Mof_H 	H 	0.2221	0.1923	0.5782	0.026
Mof_C 	C 	0.314	0.222	0.5638	-0.091
Mof_C 	C 	0.508	0.0699	0.6265	0.385
Mof_C 	C 	0.3822	0.1921	0.6301	0.368
Mof_Mg	Mg	0.20409	0.61451	0.77323	1.452
Mof_O 	O 	0.0554	0.5777	0.8653	-0.323
Mof_O 	O 	0.0491	0.6945	0.8653	-0.29
Mof_O 	O 	0.1335	0.66396	0.8223	-0.451
Mof_O 	O 	0.9266	0.59152	0.8253	-0.484
Mof_C 	C 	0.9955	0.5336	0.9374	-0.077
Mof_C 	C 	0.9315	0.5276	0.9574	-0.035
Mof_H 	H 	0.8841	0.5467	0.9287	0.032
Mof_C 	C 	0.1698	0.7567	0.9833	-0.016
Mof_H 	H 	0.1149	0.7615	0.9719	0.064
Mof_C 	C 	0.0637	0.5056	0.9818	-0.048
Mof_H 	H 	0.1086	0.5095	0.9699	0.051
Mof_C 	C 	0.2663	0.7158	0.9535	0.005
Mof_H 	H 	0.2779	0.6923	0.9218	0.026
Mof_C 	C 	0.186	0.722	0.9362	-0.093
Mof_C 	C 	0.992	0.5699	0.8735	0.389
Mof_C 	C 	0.1178	0.6921	0.8699	0.369
Mof_Mg	Mg	0.70409	0.11451	0.77323	1.452
Mof_O 	O 	0.5554	0.0777	0.8653	-0.314
Mof_O 	O 	0.5491	0.1945	0.8653	-0.285
Mof_O 	O 	0.6335	0.16396	0.8223	-0.45
Mof_O 	O 	0.4266	0.09152	0.8253	-0.487
Mof_C 	C 	0.4955	0.0336	0.9374	-0.109
Mof_C 	C 	0.4315	0.0276	0.9574	-0.009
Mof_H 	H 	0.3841	0.0467	0.9287	0.023
Mof_C 	C 	0.6698	0.2567	0.9833	-0.014
Mof_H 	H 	0.6149	0.2615	0.9719	0.066
Mof_C 	C 	0.5637	0.0056	0.9818	-0.008
Mof_H 	H 	0.6086	0.0095	0.9699	0.04
Mof_C 	C 	0.7663	0.2158	0.9535	0.008
Mof_H 	H 	0.7779	0.1923	0.9218	0.025
Mof_C 	C 	0.686	0.222	0.9362	-0.092
Mof_C 	C 	0.492	0.0699	0.8735	0.384
Mof_C 	C 	0.6178	0.1921	0.8699	0.369
Mof_Mg	Mg	0.20409	0.38549	0.27323	1.452
Mof_O 	O 	0.0554	0.4223	0.3653	-0.322
Mof_O 	O 	0.0491	0.3055	0.3653	-0.29
Mof_O 	O 	0.1335	0.33604	0.3223	-0.451
Mof_O 	O 	0.9266	0.40848	0.3253	-0.484
Mof_C 	C 	0.9955	0.4664	0.4374	-0.078
Mof_C 	C 	0.9315	0.4724	0.4574	-0.035
Mof_H 	H 	0.8841	0.4533	0.4287	0.032
Mof_C 	C 	0.1698	0.2433	0.4833	-0.014
Mof_H 	H 	0.1149	0.2385	0.4719	0.064
Mof_C 	C 	0.0637	0.4944	0.4818	-0.046
Mof_H 	H 	0.1086	0.4905	0.4699	0.051
Mof_C 	C 	0.2663	0.2842	0.4535	0.007
Mof_H 	H 	0.2779	0.3077	0.4218	0.025
Mof_C 	C 	0.186	0.278	0.4362	-0.094
Mof_C 	C 	0.992	0.4301	0.3735	0.389
Mof_C 	C 	0.1178	0.3079	0.3699	0.37
Mof_Mg	Mg	0.70409	0.88549	0.27323	1.452
Mof_O 	O 	0.5554	0.9223	0.3653	-0.314
Mof_O 	O 	0.5491	0.8055	0.3653	-0.285
Mof_O 	O 	0.6335	0.83604	0.3223	-0.45
Mof_O 	O 	0.4266	0.90848	0.3253	-0.487
Mof_C 	C 	0.4955	0.9664	0.4374	-0.109
Mof_C 	C 	0.4315	0.9724	0.4574	-0.008
Mof_H 	H 	0.3841	0.9533	0.4287	0.022
Mof_C 	C 	0.6698	0.7433	0.4833	-0.014
Mof_H 	H 	0.6149	0.7385	0.4719	0.066
Mof_C 	C 	0.5637	0.9944	0.4818	-0.007
Mof_H 	H 	0.6086	0.9905	0.4699	0.04
Mof_C 	C 	0.7663	0.7842	0.4535	0.008
Mof_H 	H 	0.7779	0.8077	0.4218	0.025
Mof_C 	C 	0.686	0.778	0.4362	-0.092
Mof_C 	C 	0.492	0.9301	0.3735	0.385
Mof_C 	C 	0.6178	0.8079	0.3699	0.369
Mof_Mg	Mg	0.79591	0.38549	0.22677	1.452
Mof_O 	O 	0.9446	0.4223	0.1347	-0.303
Mof_O 	O 	0.9509	0.3055	0.1347	-0.278
Mof_O 	O 	0.8665	0.33604	0.1777	-0.447
Mof_O 	O 	0.0734	0.40848	0.1747	-0.488
Mof_C 	C 	0.0045	0.4664	0.0626	-0.14
Mof_C 	C 	0.0685	0.4724	0.0426	0.021
Mof_H 	H 	0.1159	0.4533	0.0713	0.012
Mof_C 	C 	0.8302	0.2433	0.0167	-0.016
Mof_H 	H 	0.8851	0.2385	0.0281	0.068
Mof_C 	C 	0.9363	0.4944	0.0182	0.031
Mof_H 	H 	0.8914	0.4905	0.0301	0.029
Mof_C 	C 	0.7337	0.2842	0.0465	0.005
Mof_H 	H 	0.7221	0.3077	0.0782	0.026
Mof_C 	C 	0.814	0.278	0.0638	-0.089
Mof_C 	C 	0.008	0.4301	0.1265	0.38
Mof_C 	C 	0.8822	0.3079	0.1301	0.367
Mof_Mg	Mg	0.29591	0.88549	0.22677	1.452
Mof_O 	O 	0.4446	0.9223	0.1347	-0.314
Mof_O 	O 	0.4509	0.8055	0.1347	-0.285
Mof_O 	O 	0.3665	0.83604	0.1777	-0.45
Mof_O 	O 	0.5734	0.90848	0.1747	-0.487
Mof_C 	C 	0.5045	0.9664	0.0626	-0.11
Mof_C 	C 	0.5685	0.9724	0.0426	-0.007
Mof_H 	H 	0.6159	0.9533	0.0713	0.022
Mof_C 	C 	0.3302	0.7433	0.0167	-0.014
Mof_H 	H 	0.3851	0.7385	0.0281	0.066
Mof_C 	C 	0.4363	0.9944	0.0182	-0.006
Mof_H 	H 	0.3914	0.9905	0.0301	0.04
Mof_C 	C 	0.2337	0.7842	0.0465	0.006
Mof_H 	H 	0.2221	0.8077	0.0782	0.025
Mof_C 	C 	0.314	0.778	0.0638	-0.092
Mof_C 	C 	0.508	0.9301	0.1265	0.385
Mof_C 	C 	0.3822	0.8079	0.1301	0.369
Mof_Cd	Cd	3.70941e-33	0.63279	0.75	0.431
Mof_Cd	Cd	0.5	0.13279	0.75	0.444
Mof_Cd	Cd	1.23647e-33	0.36721	0.25	0.432
Mof_Cd	Cd	0.5	0.86721	0.25	0.444
Mof_Cd	Cd	0.59588	0.63076	0.6317	0.447
Mof_O 	O 	0.5621	0.5693	0.535	-0.286
Mof_O 	O 	0.4605	0.66207	0.5855	-0.228
Mof_O 	O 	0.2055	0.82658	0.2221	-0.454
Mof_O 	O 	0.7144	0.4284	0.2824	-0.433
Mof_O 	O 	0.1209	0.79479	0.2655	-0.239
Mof_O 	O 	0.5904	0.40338	0.25	-0.273
Mof_O 	O 	0.6873	0.59418	0.5759	-0.442
Mof_O 	O 	0.5261	0.68191	0.5106	-0.257
Mof_C 	C 	0.3185	0.7122	0.4578	-0.052
Mof_H 	H 	0.3126	0.6931	0.5009	0.069
Mof_C 	C 	0.2521	0.7395	0.3957	0.012
Mof_H 	H 	0.2011	0.7384	0.3963	0.045
Mof_C 	C 	0.3927	0.7131	0.4564	-0.021
Mof_C 	C 	0.3985	0.7406	0.3928	-0.057
Mof_H 	H 	0.4486	0.7408	0.3903	0.078
Mof_C 	C 	0.1893	0.7987	0.2684	0.355
Mof_C 	C 	0.7056	0.5276	0.4615	-0.014
Mof_H 	H 	0.7493	0.5488	0.4929	0.041
Mof_C 	C 	0.6368	0.5295	0.4738	-0.08
Mof_C 	C 	0.6528	0.4292	0.2925	0.349
Mof_C 	C 	0.2604	0.7678	0.3338	-0.106
Mof_C 	C 	0.5744	0.499	0.4275	-0.004
Mof_H 	H 	0.5265	0.5004	0.4344	0.059
Mof_C 	C 	0.6286	0.5666	0.5324	0.342
Mof_C 	C 	0.4635	0.6835	0.5221	0.282
Mof_C 	C 	0.58	0.4664	0.371	-0.024
Mof_H 	H 	0.5362	0.4451	0.3404	0.076
Mof_C 	C 	0.334	0.7682	0.3322	0.019
Mof_H 	H 	0.3404	0.7874	0.2895	0.009
Mof_C 	C 	0.7111	0.4953	0.4041	-0.02
Mof_H 	H 	0.7586	0.4945	0.3962	0.044
Mof_C 	C 	0.6482	0.464	0.3578	-0.064
Mof_Cd	Cd	0.09588	0.13076	0.6317	0.443
Mof_O 	O 	0.0621	0.0693	0.535	-0.291
Mof_O 	O 	0.9605	0.16207	0.5855	-0.227
Mof_O 	O 	0.7055	0.32658	0.2221	-0.453
Mof_O 	O 	0.2144	0.9284	0.2824	-0.433
Mof_O 	O 	0.6209	0.29479	0.2655	-0.235
Mof_O 	O 	0.0904	0.90338	0.25	-0.276
Mof_O 	O 	0.1873	0.09418	0.5759	-0.442
Mof_O 	O 	0.0261	0.18191	0.5106	-0.27
Mof_C 	C 	0.8185	0.2122	0.4578	-0.048
Mof_H 	H 	0.8126	0.1931	0.5009	0.069
Mof_C 	C 	0.7521	0.2395	0.3957	0.01
Mof_H 	H 	0.7011	0.2384	0.3963	0.047
Mof_C 	C 	0.8927	0.2131	0.4564	-0.024
Mof_C 	C 	0.8985	0.2406	0.3928	-0.053
Mof_H 	H 	0.9486	0.2408	0.3903	0.082
Mof_C 	C 	0.6893	0.2987	0.2684	0.354
Mof_C 	C 	0.2056	0.0276	0.4615	-0.014
Mof_H 	H 	0.2493	0.0488	0.4929	0.04
Mof_C 	C 	0.1368	0.0295	0.4738	-0.082
Mof_C 	C 	0.1528	0.9292	0.2925	0.349
Mof_C 	C 	0.7604	0.2678	0.3338	-0.104
Mof_C 	C 	0.0744	0.999	0.4275	-0.004
Mof_H 	H 	0.0265	0.0004	0.4344	0.055
Mof_C 	C 	0.1286	0.0666	0.5324	0.342
Mof_C 	C 	0.9635	0.1835	0.5221	0.299
Mof_C 	C 	0.08	0.9664	0.371	-0.025
Mof_H 	H 	0.0362	0.9451	0.3404	0.073
Mof_C 	C 	0.834	0.2682	0.3322	0.018
Mof_H 	H 	0.8404	0.2874	0.2895	0.011
Mof_C 	C 	0.2111	0.9953	0.4041	-0.021
Mof_H 	H 	0.2586	0.9945	0.3962	0.043
Mof_C 	C 	0.1482	0.964	0.3578	-0.066
Mof_Cd	Cd	0.59588	0.36924	0.1317	0.447
Mof_O 	O 	0.5621	0.4307	0.035	-0.286
Mof_O 	O 	0.4605	0.33793	0.0855	-0.228
Mof_O 	O 	0.2055	0.17342	0.7221	-0.454
Mof_O 	O 	0.7144	0.5716	0.7824	-0.433
Mof_O 	O 	0.1209	0.20521	0.7655	-0.239
Mof_O 	O 	0.5904	0.59662	0.75	-0.273
Mof_O 	O 	0.6873	0.40582	0.0759	-0.442
Mof_O 	O 	0.5261	0.31809	0.0106	-0.257
Mof_C 	C 	0.3185	0.2878	0.9578	-0.053
Mof_H 	H 	0.3126	0.3069	0.0009	0.07
Mof_C 	C 	0.2521	0.2605	0.8957	0.013
Mof_H 	H 	0.2011	0.2616	0.8963	0.044
Mof_C 	C 	0.3927	0.2869	0.9564	-0.021
Mof_C 	C 	0.3985	0.2594	0.8928	-0.057
Mof_H 	H 	0.4486	0.2592	0.8903	0.078
Mof_C 	C 	0.1893	0.2013	0.7684	0.355
Mof_C 	C 	0.7056	0.4724	0.9615	-0.014
Mof_H 	H 	0.7493	0.4512	0.9929	0.041
Mof_C 	C 	0.6368	0.4705	0.9738	-0.08
Mof_C 	C 	0.6528	0.5708	0.7925	0.349
Mof_C 	C 	0.2604	0.2322	0.8338	-0.107
Mof_C 	C 	0.5744	0.501	0.9275	-0.003
Mof_H 	H 	0.5265	0.4996	0.9344	0.059
Mof_C 	C 	0.6286	0.4334	0.0324	0.342
Mof_C 	C 	0.4635	0.3165	0.0221	0.283
Mof_C 	C 	0.58	0.5336	0.871	-0.025
Mof_H 	H 	0.5362	0.5549	0.8404	0.077
Mof_C 	C 	0.334	0.2318	0.8322	0.019
Mof_H 	H 	0.3404	0.2126	0.7895	0.009
Mof_C 	C 	0.7111	0.5047	0.9041	-0.02
Mof_H 	H 	0.7586	0.5055	0.8962	0.044
Mof_C 	C 	0.6482	0.536	0.8578	-0.064
Mof_Cd	Cd	0.09588	0.86924	0.1317	0.443
Mof_O 	O 	0.0621	0.9307	0.035	-0.291
Mof_O 	O 	0.9605	0.83793	0.0855	-0.227
Mof_O 	O 	0.7055	0.67342	0.7221	-0.453
Mof_O 	O 	0.2144	0.0716	0.7824	-0.433
Mof_O 	O 	0.6209	0.70521	0.7655	-0.235
Mof_O 	O 	0.0904	0.09662	0.75	-0.277
Mof_O 	O 	0.1873	0.90582	0.0759	-0.442
Mof_O 	O 	0.0261	0.81809	0.0106	-0.269
Mof_C 	C 	0.8185	0.7878	0.9578	-0.048
Mof_H 	H 	0.8126	0.8069	0.0009	0.069
Mof_C 	C 	0.7521	0.7605	0.8957	0.01
Mof_H 	H 	0.7011	0.7616	0.8963	0.046
Mof_C 	C 	0.8927	0.7869	0.9564	-0.024
Mof_C 	C 	0.8985	0.7594	0.8928	-0.053
Mof_H 	H 	0.9486	0.7592	0.8903	0.082
Mof_C 	C 	0.6893	0.7013	0.7684	0.354
Mof_C 	C 	0.2056	0.9724	0.9615	-0.014
Mof_H 	H 	0.2493	0.9512	0.9929	0.04
Mof_C 	C 	0.1368	0.9705	0.9738	-0.083
Mof_C 	C 	0.1528	0.0708	0.7925	0.349
Mof_C 	C 	0.7604	0.7322	0.8338	-0.104
Mof_C 	C 	0.0744	0.001	0.9275	-0.004
Mof_H 	H 	0.0265	0.9996	0.9344	0.055
Mof_C 	C 	0.1286	0.9334	0.0324	0.343
Mof_C 	C 	0.9635	0.8165	0.0221	0.297
Mof_C 	C 	0.08	0.0336	0.871	-0.026
Mof_H 	H 	0.0362	0.0549	0.8404	0.072
Mof_C 	C 	0.834	0.7318	0.8322	0.018
Mof_H 	H 	0.8404	0.7126	0.7895	0.011
Mof_C 	C 	0.2111	0.0047	0.9041	-0.021
Mof_H 	H 	0.2586	0.0055	0.8962	0.043
Mof_C 	C 	0.1482	0.036	0.8578	-0.065
Mof_Cd	Cd	0.40412	0.63076	0.8683	0.447
Mof_O 	O 	0.4379	0.5693	0.965	-0.286
Mof_O 	O 	0.5395	0.66207	0.9145	-0.228
Mof_O 	O 	0.7945	0.82658	0.2779	-0.453
Mof_O 	O 	0.2856	0.4284	0.2176	-0.433
Mof_O 	O 	0.8791	0.79479	0.2345	-0.232
Mof_O 	O 	0.4096	0.40338	0.25	-0.273
Mof_O 	O 	0.3127	0.59418	0.9241	-0.442
Mof_O 	O 	0.4739	0.68191	0.9894	-0.257
Mof_C 	C 	0.6815	0.7122	0.0422	-0.051
Mof_H 	H 	0.6874	0.6931	0.9991	0.07
Mof_C 	C 	0.7479	0.7395	0.1043	0.011
Mof_H 	H 	0.7989	0.7384	0.1037	0.047
Mof_C 	C 	0.6073	0.7131	0.0436	-0.021
Mof_C 	C 	0.6015	0.7406	0.1072	-0.056
Mof_H 	H 	0.5514	0.7408	0.1097	0.078
Mof_C 	C 	0.8107	0.7987	0.2316	0.354
Mof_C 	C 	0.2944	0.5276	0.0385	-0.014
Mof_H 	H 	0.2507	0.5488	0.0071	0.04
Mof_C 	C 	0.3632	0.5295	0.0262	-0.08
Mof_C 	C 	0.3472	0.4292	0.2075	0.349
Mof_C 	C 	0.7396	0.7678	0.1662	-0.104
Mof_C 	C 	0.4256	0.499	0.0725	-0.004
Mof_H 	H 	0.4735	0.5004	0.0656	0.06
Mof_C 	C 	0.3714	0.5666	0.9676	0.341
Mof_C 	C 	0.5365	0.6835	0.9779	0.283
Mof_C 	C 	0.42	0.4664	0.129	-0.025
Mof_H 	H 	0.4638	0.4451	0.1596	0.076
Mof_C 	C 	0.666	0.7682	0.1678	0.018
Mof_H 	H 	0.6596	0.7874	0.2105	0.009
Mof_C 	C 	0.2889	0.4953	0.0959	-0.02
Mof_H 	H 	0.2414	0.4945	0.1038	0.043
Mof_C 	C 	0.3518	0.464	0.1422	-0.064
Mof_Cd	Cd	0.90412	0.13076	0.8683	0.452
Mof_O 	O 	0.9379	0.0693	0.965	-0.282
Mof_O 	O 	0.0395	0.16207	0.9145	-0.23
Mof_O 	O 	0.2945	0.32658	0.2779	-0.454
Mof_O 	O 	0.7856	0.9284	0.2176	-0.432
Mof_O 	O 	0.3791	0.29479	0.2345	-0.236
Mof_O 	O 	0.9096	0.90338	0.25	-0.269
Mof_O 	O 	0.8127	0.09418	0.9241	-0.442
Mof_O 	O 	0.9739	0.18191	0.9894	-0.244
Mof_C 	C 	0.1815	0.2122	0.0422	-0.053
Mof_H 	H 	0.1874	0.1931	0.9991	0.07
Mof_C 	C 	0.2479	0.2395	0.1043	0.013
Mof_H 	H 	0.2989	0.2384	0.1037	0.046
Mof_C 	C 	0.1073	0.2131	0.0436	-0.017
Mof_C 	C 	0.1015	0.2406	0.1072	-0.06
Mof_H 	H 	0.0514	0.2408	0.1097	0.075
Mof_C 	C 	0.3107	0.2987	0.2316	0.355
Mof_C 	C 	0.7944	0.0276	0.0385	-0.014
Mof_H 	H 	0.7507	0.0488	0.0071	0.041
Mof_C 	C 	0.8632	0.0295	0.0262	-0.079
Mof_C 	C 	0.8472	0.9292	0.2075	0.348
Mof_C 	C 	0.2396	0.2678	0.1662	-0.106
Mof_C 	C 	0.9256	0.999	0.0725	-0.003
Mof_H 	H 	0.9735	0.0004	0.0656	0.063
Mof_C 	C 	0.8714	0.0666	0.9676	0.341
Mof_C 	C 	0.0365	0.1835	0.9779	0.266
Mof_C 	C 	0.92	0.9664	0.129	-0.024
Mof_H 	H 	0.9638	0.9451	0.1596	0.08
Mof_C 	C 	0.166	0.2682	0.1678	0.02
Mof_H 	H 	0.1596	0.2874	0.2105	0.008
Mof_C 	C 	0.7889	0.9953	0.0959	-0.02
Mof_H 	H 	0.7414	0.9945	0.1038	0.044
Mof_C 	C 	0.8518	0.964	0.1422	-0.062
Mof_Cd	Cd	0.40412	0.36924	0.3683	0.447
Mof_O 	O 	0.4379	0.4307	0.465	-0.286
Mof_O 	O 	0.5395	0.33793	0.4145	-0.228
Mof_O 	O 	0.7945	0.17342	0.7779	-0.453
Mof_O 	O 	0.2856	0.5716	0.7176	-0.433
Mof_O 	O 	0.8791	0.20521	0.7345	-0.232
Mof_O 	O 	0.4096	0.59662	0.75	-0.273
Mof_O 	O 	0.3127	0.40582	0.4241	-0.442
Mof_O 	O 	0.4739	0.31809	0.4894	-0.257
Mof_C 	C 	0.6815	0.2878	0.5422	-0.051
Mof_H 	H 	0.6874	0.3069	0.4991	0.07
Mof_C 	C 	0.7479	0.2605	0.6043	0.011
Mof_H 	H 	0.7989	0.2616	0.6037	0.047
Mof_C 	C 	0.6073	0.2869	0.5436	-0.021
Mof_C 	C 	0.6015	0.2594	0.6072	-0.056
Mof_H 	H 	0.5514	0.2592	0.6097	0.078
Mof_C 	C 	0.8107	0.2013	0.7316	0.354
Mof_C 	C 	0.2944	0.4724	0.5385	-0.014
Mof_H 	H 	0.2507	0.4512	0.5071	0.04
Mof_C 	C 	0.3632	0.4705	0.5262	-0.08
Mof_C 	C 	0.3472	0.5708	0.7075	0.349
Mof_C 	C 	0.7396	0.2322	0.6662	-0.104
Mof_C 	C 	0.4256	0.501	0.5725	-0.003
Mof_H 	H 	0.4735	0.4996	0.5656	0.059
Mof_C 	C 	0.3714	0.4334	0.4676	0.342
Mof_C 	C 	0.5365	0.3165	0.4779	0.283
Mof_C 	C 	0.42	0.5336	0.629	-0.025
Mof_H 	H 	0.4638	0.5549	0.6596	0.077
Mof_C 	C 	0.666	0.2318	0.6678	0.018
Mof_H 	H 	0.6596	0.2126	0.7105	0.009
Mof_C 	C 	0.2889	0.5047	0.5959	-0.021
Mof_H 	H 	0.2414	0.5055	0.6038	0.043
Mof_C 	C 	0.3518	0.536	0.6422	-0.064
Mof_Cd	Cd	0.90412	0.86924	0.3683	0.452
Mof_O 	O 	0.9379	0.9307	0.465	-0.282
Mof_O 	O 	0.0395	0.83793	0.4145	-0.23
Mof_O 	O 	0.2945	0.67342	0.7779	-0.454
Mof_O 	O 	0.7856	0.0716	0.7176	-0.432
Mof_O 	O 	0.3791	0.70521	0.7345	-0.236
Mof_O 	O 	0.9096	0.09662	0.75	-0.269
Mof_O 	O 	0.8127	0.90582	0.4241	-0.441
Mof_O 	O 	0.9739	0.81809	0.4894	-0.244
Mof_C 	C 	0.1815	0.7878	0.5422	-0.055
Mof_H 	H 	0.1874	0.8069	0.4991	0.07
Mof_C 	C 	0.2479	0.7605	0.6043	0.013
Mof_H 	H 	0.2989	0.7616	0.6037	0.045
Mof_C 	C 	0.1073	0.7869	0.5436	-0.017
Mof_C 	C 	0.1015	0.7594	0.6072	-0.06
Mof_H 	H 	0.0514	0.7592	0.6097	0.075
Mof_C 	C 	0.3107	0.7013	0.7316	0.355
Mof_C 	C 	0.7944	0.9724	0.5385	-0.014
Mof_H 	H 	0.7507	0.9512	0.5071	0.041
Mof_C 	C 	0.8632	0.9705	0.5262	-0.079
Mof_C 	C 	0.8472	0.0708	0.7075	0.348
Mof_C 	C 	0.2396	0.7322	0.6662	-0.107
Mof_C 	C 	0.9256	0.001	0.5725	-0.003
Mof_H 	H 	0.9735	0.9996	0.5656	0.063
Mof_C 	C 	0.8714	0.9334	0.4676	0.341
Mof_C 	C 	0.0365	0.8165	0.4779	0.266
Mof_C 	C 	0.92	0.0336	0.629	-0.024
Mof_H 	H 	0.9638	0.0549	0.6596	0.081
Mof_C 	C 	0.166	0.7318	0.6678	0.019
Mof_H 	H 	0.1596	0.7126	0.7105	0.008
Mof_C 	C 	0.7889	0.0047	0.5959	-0.02
Mof_H 	H 	0.7414	0.0055	0.6038	0.044
Mof_C 	C 	0.8518	0.036	0.6422	-0.062
_end
