data_functionalizedCrystal
_audit_creation_method	'EQeq! by Chris Wilmer'
_symmetry_space_group_name_H-M	'P1'
_symmetry_Int_Tables_number	1
_symmetry_cell_setting	triclinic
loop_
_symmetry_equiv_pos_as_xyz
  x,y,z
_cell_length_a	6.1071
_cell_length_b	7.6962
_cell_length_c	22.702
_cell_angle_alpha	90
_cell_angle_beta	91.645
_cell_angle_gamma	90
loop_
_atom_site_label
_atom_site_type_symbol
_atom_site_fract_x
_atom_site_fract_y
_atom_site_fract_z
_atom_site_charge
Mof_La	La	0.54514	0.99824	0.14605	2.219
Mof_La	La	0.45486	0.49824	0.35395	2.251
Mof_La	La	0.45486	0.00176	0.85395	2.219
Mof_La	La	0.54514	0.50176	0.64605	2.251
Mof_H 	H 	0.9596	0.0207	0.2827	0.067
Mof_H 	H 	0.8862	0.9327	0.3744	0.047
Mof_H 	H 	0.0404	0.5207	0.2173	0.045
Mof_H 	H 	0.1138	0.4327	0.1256	0.054
Mof_H 	H 	0.0404	0.9793	0.7173	0.068
Mof_H 	H 	0.1138	0.0673	0.6256	0.048
Mof_H 	H 	0.9596	0.4793	0.7827	0.046
Mof_H 	H 	0.8862	0.5673	0.8744	0.055
Mof_C 	C 	0.6399	0.1031	0.2886	0.414
Mof_C 	C 	0.8175	0.963	0.2863	-0.06
Mof_C 	C 	0.8219	0.8599	0.343	-0.04
Mof_C 	C 	0.9533	0.6942	0.3397	0.431
Mof_C 	C 	0.5838	0.0751	0.9992	0.25
Mof_C 	C 	0.3601	0.6031	0.2114	0.394
Mof_C 	C 	0.1825	0.463	0.2137	-0.023
Mof_C 	C 	0.1781	0.3599	0.157	-0.052
Mof_C 	C 	0.0467	0.1942	0.1603	0.432
Mof_C 	C 	0.4162	0.5751	0.5008	0.253
Mof_C 	C 	0.3601	0.8969	0.7114	0.414
Mof_C 	C 	0.1825	0.037	0.7137	-0.06
Mof_C 	C 	0.1781	0.1401	0.657	-0.04
Mof_C 	C 	0.0467	0.3058	0.6603	0.431
Mof_C 	C 	0.4162	0.9249	0.0008	0.25
Mof_C 	C 	0.6399	0.3969	0.7886	0.394
Mof_C 	C 	0.8175	0.537	0.7863	-0.023
Mof_C 	C 	0.8219	0.6401	0.843	-0.052
Mof_C 	C 	0.9533	0.8058	0.8397	0.432
Mof_C 	C 	0.5838	0.4249	0.4992	0.253
Mof_O 	O 	0.4894	0.1032	0.2492	-0.45
Mof_O 	O 	0.65	0.2128	0.3299	-0.455
Mof_O 	O 	0.7798	0.8565	0.2347	-0.301
Mof_O 	O 	0.6002	0.8146	0.3586	-0.307
Mof_O 	O 	0.8564	0.5524	0.3454	-0.5
Mof_O 	O 	0.1534	0.7095	0.3334	-0.492
Mof_O 	O 	0.6236	0.1323	0.948	-0.427
Mof_O 	O 	0.6594	0.1306	0.0464	-0.415
Mof_O 	O 	0.5106	0.6032	0.2508	-0.453
Mof_O 	O 	0.35	0.7128	0.1701	-0.451
Mof_O 	O 	0.2202	0.3565	0.2653	-0.305
Mof_O 	O 	0.3998	0.3146	0.1414	-0.3
Mof_O 	O 	0.1436	0.0524	0.1546	-0.491
Mof_O 	O 	0.8466	0.2095	0.1666	-0.485
Mof_O 	O 	0.3764	0.6323	0.552	-0.428
Mof_O 	O 	0.3406	0.6306	0.4536	-0.424
Mof_O 	O 	0.5106	0.8968	0.7508	-0.45
Mof_O 	O 	0.35	0.7872	0.6701	-0.455
Mof_O 	O 	0.2202	0.1435	0.7653	-0.301
Mof_O 	O 	0.3998	0.1854	0.6414	-0.307
Mof_O 	O 	0.1436	0.4476	0.6546	-0.5
Mof_O 	O 	0.8466	0.2905	0.6666	-0.492
Mof_O 	O 	0.3764	0.8677	0.052	-0.427
Mof_O 	O 	0.3406	0.8694	0.9536	-0.415
Mof_O 	O 	0.4894	0.3968	0.7492	-0.453
Mof_O 	O 	0.65	0.2872	0.8299	-0.451
Mof_O 	O 	0.7798	0.6435	0.7347	-0.305
Mof_O 	O 	0.6002	0.6854	0.8586	-0.3
Mof_O 	O 	0.8564	0.9476	0.8454	-0.491
Mof_O 	O 	0.1534	0.7905	0.8334	-0.485
Mof_O 	O 	0.6236	0.3677	0.448	-0.428
Mof_O 	O 	0.6594	0.3694	0.5464	-0.424
_end
