data_functionalizedCrystal
_audit_creation_method	'EQeq! by Chris Wilmer'
_symmetry_space_group_name_H-M	'P1'
_symmetry_Int_Tables_number	1
_symmetry_cell_setting	triclinic
loop_
_symmetry_equiv_pos_as_xyz
  x,y,z
_cell_length_a	11.54
_cell_length_b	16.778
_cell_length_c	28.468
_cell_angle_alpha	90
_cell_angle_beta	90
_cell_angle_gamma	90
loop_
_atom_site_label
_atom_site_type_symbol
_atom_site_fract_x
_atom_site_fract_y
_atom_site_fract_z
_atom_site_charge
Mof_Cu	Cu	0.1701	0.735	0.3733	0.925
Mof_Cu	Cu	0.4161	0.2565	0.19566	0.883
Mof_Cu	Cu	0.1348	0.2682	0.2014	0.915
Mof_C 	C 	0.2649	0.3086	0.50624	-0.02
Mof_C 	C 	0.2641	0.3121	0.55518	-0.022
Mof_C 	C 	0.2634	0.242	0.58143	-0.026
Mof_C 	C 	0.2634	0.1683	0.55877	-0.02
Mof_C 	C 	0.2641	0.1648	0.50985	-0.021
Mof_C 	C 	0.2649	0.2349	0.48355	-0.023
Mof_C 	C 	0.2661	0.2315	0.43006	0.068
Mof_C 	C 	0.3666	0.2572	0.40757	-0.119
Mof_H 	H 	0.4313	0.2744	0.4256	0.07
Mof_C 	C 	0.3722	0.2579	0.35864	0.047
Mof_H 	H 	0.4407	0.2753	0.3433	0.021
Mof_C 	C 	0.2765	0.2329	0.33221	-0.118
Mof_C 	C 	0.1769	0.2066	0.35474	0.034
Mof_H 	H 	0.1124	0.189	0.3368	0.033
Mof_C 	C 	0.1713	0.2059	0.40367	-0.111
Mof_H 	H 	0.1029	0.1881	0.419	0.066
Mof_C 	C 	0.2585	0.0894	0.48359	0.057
Mof_C 	C 	0.3576	0.0725	0.45794	-0.099
Mof_H 	H 	0.4237	0.1059	0.4607	0.063
Mof_C 	C 	0.3606	0.0066	0.4281	0.021
Mof_H 	H 	0.4285	0.9954	0.4105	0.036
Mof_C 	C 	0.2643	0.9573	0.4242	-0.078
Mof_C 	C 	0.1632	0.9748	0.4493	0.013
Mof_H 	H 	0.0967	0.9419	0.446	0.039
Mof_C 	C 	0.1603	0.0408	0.47914	-0.097
Mof_H 	H 	0.092	0.0527	0.4964	0.06
Mof_C 	C 	0.256	0.0885	0.5867	0.064
Mof_C 	C 	0.3579	0.0448	0.592	-0.11
Mof_H 	H 	0.4284	0.0641	0.579	0.067
Mof_C 	C 	0.3564	0.9727	0.6164	0.042
Mof_H 	H 	0.4259	0.9429	0.62	0.034
Mof_C 	C 	0.253	0.9443	0.6354	-0.114
Mof_C 	C 	0.1511	0.988	0.6301	0.039
Mof_H 	H 	0.0807	0.9687	0.6431	0.033
Mof_C 	C 	0.1526	0.0601	0.60576	-0.111
Mof_H 	H 	0.0832	0.0899	0.6021	0.069
Mof_C 	C 	0.2838	0.2421	0.63556	0.083
Mof_C 	C 	0.3941	0.2254	0.65325	-0.132
Mof_H 	H 	0.4558	0.2128	0.6325	0.076
Mof_C 	C 	0.413	0.2275	0.70161	0.066
Mof_H 	H 	0.4874	0.2156	0.714	0.003
Mof_C 	C 	0.3183	0.2481	0.73281	-0.152
Mof_C 	C 	0.2127	0.2637	0.71398	0.083
Mof_H 	H 	0.15	0.2764	0.7343	0.002
Mof_C 	C 	0.1938	0.2616	0.66561	-0.141
Mof_H 	H 	0.1193	0.2736	0.6533	0.08
Mof_C 	C 	0.2751	0.3913	0.5806	0.069
Mof_C 	C 	0.3803	0.427	0.59401	-0.113
Mof_H 	H 	0.4517	0.4002	0.5888	0.068
Mof_C 	C 	0.379	0.5021	0.615	0.044
Mof_H 	H 	0.4497	0.5266	0.6243	0.034
Mof_C 	C 	0.2738	0.5415	0.6225	-0.125
Mof_C 	C 	0.1703	0.5054	0.6088	0.047
Mof_H 	H 	0.0987	0.532	0.6138	0.029
Mof_C 	C 	0.1716	0.4303	0.58779	-0.116
Mof_H 	H 	0.101	0.4061	0.5784	0.069
Mof_C 	C 	0.2674	0.3861	0.48344	0.056
Mof_C 	C 	0.3692	0.4308	0.47917	-0.096
Mof_H 	H 	0.437	0.4151	0.4957	0.059
Mof_C 	C 	0.3711	0.4985	0.4507	0.014
Mof_H 	H 	0.4404	0.5285	0.4476	0.038
Mof_C 	C 	0.2718	0.5219	0.427	-0.073
Mof_C 	C 	0.1696	0.4777	0.43137	0.011
Mof_H 	H 	0.1017	0.4938	0.415	0.035
Mof_C 	C 	0.1676	0.4101	0.45983	-0.096
Mof_H 	H 	0.0981	0.3804	0.4631	0.061
Mof_C 	C 	0.2677	0.2258	0.27962	0.364
Mof_O 	O 	0.3635	0.2503	0.2605	-0.427
Mof_O 	O 	0.1779	0.2121	0.25805	-0.424
Mof_C 	C 	0.2613	0.8809	0.3906	0.34
Mof_O 	O 	0.3609	0.8737	0.37	-0.281
Mof_O 	O 	0.1733	0.8431	0.3869	-0.43
Mof_C 	C 	0.2427	0.8673	0.6624	0.375
Mof_O 	O 	0.3369	0.8238	0.6618	-0.39
Mof_O 	O 	0.1493	0.8432	0.6769	-0.44
Mof_C 	C 	0.3445	0.259	0.7823	0.371
Mof_O 	O 	0.4498	0.2517	0.79824	-0.396
Mof_O 	O 	0.2625	0.2631	0.80954	-0.395
Mof_C 	C 	0.2727	0.6191	0.6458	0.353
Mof_O 	O 	0.3712	0.6569	0.6489	-0.391
Mof_O 	O 	0.1822	0.6484	0.6604	-0.422
Mof_C 	C 	0.2587	0.6036	0.3996	0.3
Mof_O 	O 	0.3464	0.6511	0.4076	-0.29
Mof_O 	O 	0.174	0.624	0.3771	-0.407
Mof_Cu	Cu	0.3299	0.265	0.8733	0.924
Mof_Cu	Cu	0.0839	0.7435	0.69566	0.882
Mof_Cu	Cu	0.3652	0.7318	0.7014	0.914
Mof_C 	C 	0.2351	0.6914	0.00624	-0.02
Mof_C 	C 	0.2359	0.6879	0.05518	-0.022
Mof_C 	C 	0.2366	0.758	0.08143	-0.026
Mof_C 	C 	0.2366	0.8317	0.05877	-0.02
Mof_C 	C 	0.2359	0.8352	0.00985	-0.021
Mof_C 	C 	0.2351	0.7651	0.98355	-0.022
Mof_C 	C 	0.2339	0.7685	0.93006	0.068
Mof_C 	C 	0.1334	0.7428	0.90757	-0.119
Mof_H 	H 	0.0687	0.7256	0.9256	0.07
Mof_C 	C 	0.1278	0.7421	0.85864	0.047
Mof_H 	H 	0.0593	0.7247	0.8433	0.021
Mof_C 	C 	0.2235	0.7671	0.83221	-0.118
Mof_C 	C 	0.3231	0.7934	0.85474	0.034
Mof_H 	H 	0.3876	0.811	0.8368	0.033
Mof_C 	C 	0.3287	0.7941	0.90367	-0.111
Mof_H 	H 	0.3971	0.8119	0.919	0.066
Mof_C 	C 	0.2415	0.9106	0.98359	0.057
Mof_C 	C 	0.1424	0.9275	0.95794	-0.099
Mof_H 	H 	0.0763	0.8941	0.9607	0.063
Mof_C 	C 	0.1394	0.9934	0.9281	0.021
Mof_H 	H 	0.0715	0.0046	0.9105	0.036
Mof_C 	C 	0.2357	0.0427	0.9242	-0.078
Mof_C 	C 	0.3368	0.0252	0.9493	0.013
Mof_H 	H 	0.4033	0.0581	0.946	0.039
Mof_C 	C 	0.3397	0.9592	0.97914	-0.097
Mof_H 	H 	0.408	0.9473	0.9964	0.06
Mof_C 	C 	0.244	0.9115	0.0867	0.064
Mof_C 	C 	0.1421	0.9552	0.092	-0.111
Mof_H 	H 	0.0716	0.9359	0.079	0.067
Mof_C 	C 	0.1436	0.0273	0.1164	0.043
Mof_H 	H 	0.0741	0.0571	0.12	0.033
Mof_C 	C 	0.247	0.0557	0.1354	-0.114
Mof_C 	C 	0.3489	0.012	0.1301	0.04
Mof_H 	H 	0.4193	0.0313	0.1431	0.032
Mof_C 	C 	0.3474	0.9399	0.10576	-0.112
Mof_H 	H 	0.4168	0.9101	0.1021	0.069
Mof_C 	C 	0.2162	0.7579	0.13556	0.083
Mof_C 	C 	0.1059	0.7746	0.15325	-0.132
Mof_H 	H 	0.0442	0.7872	0.1325	0.076
Mof_C 	C 	0.087	0.7725	0.20161	0.066
Mof_H 	H 	0.0126	0.7844	0.214	0.003
Mof_C 	C 	0.1817	0.7519	0.23281	-0.153
Mof_C 	C 	0.2873	0.7363	0.21398	0.083
Mof_H 	H 	0.35	0.7236	0.2343	0.002
Mof_C 	C 	0.3062	0.7384	0.16561	-0.141
Mof_H 	H 	0.3807	0.7264	0.1533	0.08
Mof_C 	C 	0.2249	0.6087	0.0806	0.069
Mof_C 	C 	0.1197	0.573	0.09401	-0.113
Mof_H 	H 	0.0483	0.5998	0.0888	0.068
Mof_C 	C 	0.121	0.4979	0.115	0.044
Mof_H 	H 	0.0503	0.4734	0.1243	0.034
Mof_C 	C 	0.2262	0.4585	0.1225	-0.125
Mof_C 	C 	0.3297	0.4946	0.1088	0.047
Mof_H 	H 	0.4013	0.468	0.1138	0.029
Mof_C 	C 	0.3284	0.5697	0.08779	-0.116
Mof_H 	H 	0.399	0.5939	0.0784	0.069
Mof_C 	C 	0.2326	0.6139	0.98344	0.056
Mof_C 	C 	0.1308	0.5692	0.97917	-0.096
Mof_H 	H 	0.063	0.5849	0.9957	0.059
Mof_C 	C 	0.1289	0.5015	0.9507	0.014
Mof_H 	H 	0.0596	0.4715	0.9476	0.038
Mof_C 	C 	0.2282	0.4781	0.927	-0.073
Mof_C 	C 	0.3304	0.5223	0.93137	0.011
Mof_H 	H 	0.3983	0.5062	0.915	0.035
Mof_C 	C 	0.3324	0.5899	0.95983	-0.096
Mof_H 	H 	0.4019	0.6196	0.9631	0.061
Mof_C 	C 	0.2323	0.7742	0.77962	0.364
Mof_O 	O 	0.1365	0.7497	0.7605	-0.427
Mof_O 	O 	0.3221	0.7879	0.75805	-0.424
Mof_C 	C 	0.2387	0.1191	0.8906	0.34
Mof_O 	O 	0.1391	0.1263	0.87	-0.28
Mof_O 	O 	0.3267	0.1569	0.8869	-0.43
Mof_C 	C 	0.2573	0.1327	0.1624	0.375
Mof_O 	O 	0.1631	0.1762	0.1618	-0.39
Mof_O 	O 	0.3507	0.1568	0.1769	-0.44
Mof_C 	C 	0.1555	0.741	0.2823	0.371
Mof_O 	O 	0.0502	0.7483	0.29824	-0.396
Mof_O 	O 	0.2375	0.7369	0.30954	-0.395
Mof_C 	C 	0.2273	0.3809	0.1458	0.353
Mof_O 	O 	0.1288	0.3431	0.1489	-0.391
Mof_O 	O 	0.3178	0.3516	0.1604	-0.422
Mof_C 	C 	0.2413	0.3964	0.8996	0.3
Mof_O 	O 	0.1536	0.3489	0.9076	-0.29
Mof_O 	O 	0.326	0.376	0.8771	-0.407
Mof_Cu	Cu	0.8299	0.235	0.1267	0.924
Mof_Cu	Cu	0.5839	0.7565	0.30434	0.882
Mof_Cu	Cu	0.8652	0.7682	0.2986	0.914
Mof_C 	C 	0.7351	0.8086	0.99376	-0.02
Mof_C 	C 	0.7359	0.8121	0.94482	-0.022
Mof_C 	C 	0.7366	0.742	0.91857	-0.026
Mof_C 	C 	0.7366	0.6683	0.94123	-0.02
Mof_C 	C 	0.7359	0.6648	0.99015	-0.021
Mof_C 	C 	0.7351	0.7349	0.01645	-0.023
Mof_C 	C 	0.7339	0.7315	0.06994	0.068
Mof_C 	C 	0.6334	0.7572	0.09243	-0.119
Mof_H 	H 	0.5687	0.7744	0.0744	0.07
Mof_C 	C 	0.6278	0.7579	0.14136	0.047
Mof_H 	H 	0.5593	0.7753	0.1567	0.02
Mof_C 	C 	0.7235	0.7329	0.16779	-0.118
Mof_C 	C 	0.8231	0.7066	0.14526	0.034
Mof_H 	H 	0.8876	0.689	0.1632	0.033
Mof_C 	C 	0.8287	0.7059	0.09633	-0.111
Mof_H 	H 	0.8971	0.6881	0.081	0.066
Mof_C 	C 	0.7415	0.5894	0.01641	0.057
Mof_C 	C 	0.6424	0.5725	0.04206	-0.099
Mof_H 	H 	0.5763	0.6059	0.0393	0.063
Mof_C 	C 	0.6394	0.5066	0.0719	0.021
Mof_H 	H 	0.5715	0.4954	0.0895	0.036
Mof_C 	C 	0.7357	0.4573	0.0758	-0.078
Mof_C 	C 	0.8368	0.4748	0.0507	0.013
Mof_H 	H 	0.9033	0.4419	0.054	0.039
Mof_C 	C 	0.8397	0.5408	0.02086	-0.097
Mof_H 	H 	0.908	0.5527	0.0036	0.06
Mof_C 	C 	0.744	0.5885	0.9133	0.064
Mof_C 	C 	0.6421	0.5448	0.908	-0.11
Mof_H 	H 	0.5716	0.5641	0.921	0.067
Mof_C 	C 	0.6436	0.4727	0.8836	0.042
Mof_H 	H 	0.5741	0.4429	0.88	0.033
Mof_C 	C 	0.747	0.4443	0.8646	-0.114
Mof_C 	C 	0.8489	0.488	0.8699	0.04
Mof_H 	H 	0.9193	0.4687	0.8569	0.033
Mof_C 	C 	0.8474	0.5601	0.89424	-0.111
Mof_H 	H 	0.9168	0.5899	0.8979	0.069
Mof_C 	C 	0.7162	0.7421	0.86444	0.083
Mof_C 	C 	0.6059	0.7254	0.84675	-0.132
Mof_H 	H 	0.5442	0.7128	0.8675	0.076
Mof_C 	C 	0.587	0.7275	0.79839	0.066
Mof_H 	H 	0.5126	0.7156	0.786	0.003
Mof_C 	C 	0.6817	0.7481	0.76719	-0.152
Mof_C 	C 	0.7873	0.7637	0.78602	0.083
Mof_H 	H 	0.85	0.7764	0.7657	0.002
Mof_C 	C 	0.8062	0.7616	0.83439	-0.141
Mof_H 	H 	0.8807	0.7736	0.8467	0.08
Mof_C 	C 	0.7249	0.8913	0.9194	0.068
Mof_C 	C 	0.6197	0.927	0.90599	-0.112
Mof_H 	H 	0.5483	0.9002	0.9112	0.068
Mof_C 	C 	0.621	0.0021	0.885	0.043
Mof_H 	H 	0.5503	0.0266	0.8757	0.034
Mof_C 	C 	0.7262	0.0415	0.8775	-0.124
Mof_C 	C 	0.8297	0.0054	0.8912	0.046
Mof_H 	H 	0.9013	0.032	0.8862	0.029
Mof_C 	C 	0.8284	0.9303	0.91221	-0.116
Mof_H 	H 	0.899	0.9061	0.9216	0.069
Mof_C 	C 	0.7326	0.8861	0.01656	0.056
Mof_C 	C 	0.6308	0.9308	0.02083	-0.096
Mof_H 	H 	0.563	0.9151	0.0043	0.059
Mof_C 	C 	0.6289	0.9985	0.0493	0.013
Mof_H 	H 	0.5596	0.0285	0.0524	0.038
Mof_C 	C 	0.7282	0.0219	0.073	-0.073
Mof_C 	C 	0.8304	0.9777	0.06863	0.01
Mof_H 	H 	0.8983	0.9938	0.085	0.035
Mof_C 	C 	0.8324	0.9101	0.04017	-0.096
Mof_H 	H 	0.9019	0.8804	0.0369	0.061
Mof_C 	C 	0.7323	0.7258	0.22038	0.364
Mof_O 	O 	0.6365	0.7503	0.2395	-0.427
Mof_O 	O 	0.8221	0.7121	0.24195	-0.424
Mof_C 	C 	0.7387	0.3809	0.1094	0.34
Mof_O 	O 	0.6391	0.3737	0.13	-0.28
Mof_O 	O 	0.8267	0.3431	0.1131	-0.43
Mof_C 	C 	0.7573	0.3673	0.8376	0.375
Mof_O 	O 	0.6631	0.3238	0.8382	-0.39
Mof_O 	O 	0.8507	0.3432	0.8231	-0.44
Mof_C 	C 	0.6555	0.759	0.7177	0.371
Mof_O 	O 	0.5502	0.7517	0.70176	-0.396
Mof_O 	O 	0.7375	0.7631	0.69046	-0.395
Mof_C 	C 	0.7273	0.1191	0.8542	0.353
Mof_O 	O 	0.6288	0.1569	0.8511	-0.391
Mof_O 	O 	0.8178	0.1484	0.8396	-0.422
Mof_C 	C 	0.7413	0.1036	0.1004	0.3
Mof_O 	O 	0.6536	0.1511	0.0924	-0.29
Mof_O 	O 	0.826	0.124	0.1229	-0.407
Mof_Cu	Cu	0.6701	0.765	0.6267	0.924
Mof_Cu	Cu	0.9161	0.2435	0.80434	0.882
Mof_Cu	Cu	0.6348	0.2318	0.7986	0.914
Mof_C 	C 	0.7649	0.1914	0.49376	-0.02
Mof_C 	C 	0.7641	0.1879	0.44482	-0.022
Mof_C 	C 	0.7634	0.258	0.41857	-0.026
Mof_C 	C 	0.7634	0.3317	0.44123	-0.02
Mof_C 	C 	0.7641	0.3352	0.49015	-0.021
Mof_C 	C 	0.7649	0.2651	0.51645	-0.023
Mof_C 	C 	0.7661	0.2685	0.56994	0.068
Mof_C 	C 	0.8666	0.2428	0.59243	-0.119
Mof_H 	H 	0.9313	0.2256	0.5744	0.07
Mof_C 	C 	0.8722	0.2421	0.64136	0.047
Mof_H 	H 	0.9407	0.2247	0.6567	0.021
Mof_C 	C 	0.7765	0.2671	0.66779	-0.118
Mof_C 	C 	0.6769	0.2934	0.64526	0.034
Mof_H 	H 	0.6124	0.311	0.6632	0.033
Mof_C 	C 	0.6713	0.2941	0.59633	-0.111
Mof_H 	H 	0.6029	0.3119	0.581	0.066
Mof_C 	C 	0.7585	0.4106	0.51641	0.057
Mof_C 	C 	0.8576	0.4275	0.54206	-0.099
Mof_H 	H 	0.9237	0.3941	0.5393	0.063
Mof_C 	C 	0.8606	0.4934	0.5719	0.021
Mof_H 	H 	0.9285	0.5046	0.5895	0.036
Mof_C 	C 	0.7643	0.5427	0.5758	-0.078
Mof_C 	C 	0.6632	0.5252	0.5507	0.013
Mof_H 	H 	0.5967	0.5581	0.554	0.039
Mof_C 	C 	0.6603	0.4592	0.52086	-0.097
Mof_H 	H 	0.592	0.4473	0.5036	0.06
Mof_C 	C 	0.756	0.4115	0.4133	0.064
Mof_C 	C 	0.8579	0.4552	0.408	-0.11
Mof_H 	H 	0.9284	0.4359	0.421	0.067
Mof_C 	C 	0.8564	0.5273	0.3836	0.042
Mof_H 	H 	0.9259	0.5571	0.38	0.034
Mof_C 	C 	0.753	0.5557	0.3646	-0.114
Mof_C 	C 	0.6511	0.512	0.3699	0.04
Mof_H 	H 	0.5807	0.5313	0.3569	0.033
Mof_C 	C 	0.6526	0.4399	0.39424	-0.111
Mof_H 	H 	0.5832	0.4101	0.3979	0.069
Mof_C 	C 	0.7838	0.2579	0.36444	0.083
Mof_C 	C 	0.8941	0.2746	0.34675	-0.132
Mof_H 	H 	0.9558	0.2872	0.3675	0.076
Mof_C 	C 	0.913	0.2725	0.29839	0.066
Mof_H 	H 	0.9874	0.2844	0.286	0.003
Mof_C 	C 	0.8183	0.2519	0.26719	-0.152
Mof_C 	C 	0.7127	0.2363	0.28602	0.083
Mof_H 	H 	0.65	0.2236	0.2657	0.002
Mof_C 	C 	0.6938	0.2384	0.33439	-0.141
Mof_H 	H 	0.6193	0.2264	0.3467	0.08
Mof_C 	C 	0.7751	0.1087	0.4194	0.069
Mof_C 	C 	0.8803	0.073	0.40599	-0.113
Mof_H 	H 	0.9517	0.0998	0.4112	0.068
Mof_C 	C 	0.879	0.9979	0.385	0.044
Mof_H 	H 	0.9497	0.9734	0.3757	0.034
Mof_C 	C 	0.7738	0.9585	0.3775	-0.125
Mof_C 	C 	0.6703	0.9946	0.3912	0.047
Mof_H 	H 	0.5987	0.968	0.3862	0.029
Mof_C 	C 	0.6716	0.0697	0.41221	-0.116
Mof_H 	H 	0.601	0.0939	0.4216	0.069
Mof_C 	C 	0.7674	0.1139	0.51656	0.056
Mof_C 	C 	0.8692	0.0692	0.52083	-0.096
Mof_H 	H 	0.937	0.0849	0.5043	0.059
Mof_C 	C 	0.8711	0.0015	0.5493	0.013
Mof_H 	H 	0.9404	0.9715	0.5524	0.039
Mof_C 	C 	0.7718	0.9781	0.573	-0.073
Mof_C 	C 	0.6696	0.0223	0.56863	0.01
Mof_H 	H 	0.6017	0.0062	0.585	0.035
Mof_C 	C 	0.6676	0.0899	0.54017	-0.096
Mof_H 	H 	0.5981	0.1196	0.5369	0.061
Mof_C 	C 	0.7677	0.2742	0.72038	0.364
Mof_O 	O 	0.8635	0.2497	0.7395	-0.427
Mof_O 	O 	0.6779	0.2879	0.74195	-0.424
Mof_C 	C 	0.7613	0.6191	0.6094	0.34
Mof_O 	O 	0.8609	0.6263	0.63	-0.28
Mof_O 	O 	0.6733	0.6569	0.6131	-0.43
Mof_C 	C 	0.7427	0.6327	0.3376	0.375
Mof_O 	O 	0.8369	0.6762	0.3382	-0.39
Mof_O 	O 	0.6493	0.6568	0.3231	-0.44
Mof_C 	C 	0.8445	0.241	0.2177	0.371
Mof_O 	O 	0.9498	0.2483	0.20176	-0.396
Mof_O 	O 	0.7625	0.2369	0.19046	-0.395
Mof_C 	C 	0.7727	0.8809	0.3542	0.353
Mof_O 	O 	0.8712	0.8431	0.3511	-0.391
Mof_O 	O 	0.6822	0.8516	0.3396	-0.422
Mof_C 	C 	0.7587	0.8964	0.6004	0.3
Mof_O 	O 	0.8464	0.8489	0.5924	-0.29
Mof_O 	O 	0.674	0.876	0.6229	-0.407
_end
