data_functionalizedCrystal
_audit_creation_method	'EQeq! by Chris Wilmer'
_symmetry_space_group_name_H-M	'P1'
_symmetry_Int_Tables_number	1
_symmetry_cell_setting	triclinic
loop_
_symmetry_equiv_pos_as_xyz
  x,y,z
_cell_length_a	6.2152
_cell_length_b	18.8391
_cell_length_c	16.6568
_cell_angle_alpha	90
_cell_angle_beta	92.2293
_cell_angle_gamma	90
loop_
_atom_site_label
_atom_site_type_symbol
_atom_site_fract_x
_atom_site_fract_y
_atom_site_fract_z
_atom_site_charge
Mof_Ga	Ga	0.76728	0.44126	0.59771	4.166
Mof_O 	O 	0.7577	0.4921	0.49951	-1.044
Mof_O 	O 	0.7735	0.51849	0.67576	-0.888
Mof_O 	O 	0.4603	0.44167	0.60533	-0.959
Mof_O 	O 	0.0742	0.43504	0.60813	-0.97
Mof_O 	O 	0.7632	0.36175	0.68426	-0.707
Mof_O 	O 	0.7589	0.35303	0.52556	-0.774
Mof_P 	P 	0.74114	0.55873	0.44932	1.04
Mof_P 	P 	0.83625	0.53572	0.76108	0.872
Mof_O 	O 	0.7391	0.62326	0.50768	-0.578
Mof_O 	O 	0.6983	0.59471	0.79144	-0.866
Mof_O 	O 	0.8157	0.46763	0.8122	-0.5
Mof_O 	O 	0.0791	0.55873	0.766	-0.476
Mof_H 	H 	0.7302	0.6601	0.4816	0.344
Mof_Ga	Ga	0.71357	0.65813	0.8829	3.873
Mof_H 	H 	0.8497	0.4765	0.8592	0.306
Mof_H 	H 	0.1147	0.5683	0.8127	0.307
Mof_O 	O 	0.4085	0.6581	0.8789	-0.907
Mof_O 	O 	0.7089	0.58321	0.9655	-0.846
Mof_O 	O 	0.7234	0.74359	0.80784	-0.719
Mof_O 	O 	0.7281	0.73486	0.96682	-0.776
Mof_O 	O 	0.0257	0.65072	0.88353	-0.885
Mof_P 	P 	0.22093	0.69046	0.92124	0.828
Mof_P 	P 	0.8129	0.53097	0.01756	0.645
Mof_C 	C 	0.7312	0.8008	0.8449	0.322
Mof_C 	C 	0.7337	0.7959	0.9375	0.363
Mof_O 	O 	0.2334	0.6719	0.0128	-0.49
Mof_O 	O 	0.2079	0.76901	0.9139	-0.353
Mof_O 	O 	0.8906	0.4678	0.9684	-0.293
Mof_O 	O 	0.9923	0.5687	0.0651	-0.16
Mof_O 	O 	0.639	0.5064	0.0896	-0.191
Mof_H 	H 	0.2407	0.6288	0.0185	0.32
Mof_Ga	Ga	0.73272	0.94126	0.90229	4.095
Mof_O 	O 	0.7423	0.9921	0.00049	-1.012
Mof_O 	O 	0.7265	0.01849	0.82424	-0.872
Mof_O 	O 	0.0397	0.94167	0.89467	-0.944
Mof_O 	O 	0.4258	0.93504	0.89187	-0.961
Mof_O 	O 	0.7368	0.86175	0.81574	-0.7
Mof_O 	O 	0.7411	0.85303	0.97444	-0.772
Mof_P 	P 	0.75886	0.05873	0.05068	1.011
Mof_P 	P 	0.66375	0.03572	0.73892	0.88
Mof_O 	O 	0.7609	0.12326	0.99232	-0.553
Mof_O 	O 	0.8017	0.09471	0.70856	-0.868
Mof_O 	O 	0.6843	0.96763	0.6878	-0.506
Mof_O 	O 	0.4209	0.05873	0.734	-0.479
Mof_H 	H 	0.7698	0.1601	0.0184	0.33
Mof_Ga	Ga	0.78643	0.15813	0.6171	3.881
Mof_H 	H 	0.6503	0.9765	0.6408	0.309
Mof_H 	H 	0.3853	0.0683	0.6873	0.308
Mof_O 	O 	0.0915	0.1581	0.6211	-0.906
Mof_O 	O 	0.7911	0.08321	0.5345	-0.843
Mof_O 	O 	0.7766	0.24359	0.69216	-0.719
Mof_O 	O 	0.7719	0.23486	0.53318	-0.773
Mof_O 	O 	0.4743	0.15072	0.61647	-0.891
Mof_P 	P 	0.27907	0.19046	0.57876	0.831
Mof_P 	P 	0.6871	0.03097	0.48244	0.639
Mof_C 	C 	0.7688	0.3008	0.6551	0.324
Mof_C 	C 	0.7663	0.2959	0.5625	0.363
Mof_O 	O 	0.2666	0.1719	0.4872	-0.495
Mof_O 	O 	0.2921	0.26901	0.5861	-0.355
Mof_O 	O 	0.6094	0.9678	0.5316	-0.285
Mof_O 	O 	0.5077	0.0687	0.4349	-0.169
Mof_O 	O 	0.861	0.0064	0.4104	-0.191
Mof_H 	H 	0.2593	0.1288	0.4815	0.321
Mof_Ga	Ga	0.23272	0.55874	0.40229	4.165
Mof_O 	O 	0.2423	0.5079	0.50049	-1.045
Mof_O 	O 	0.2265	0.48151	0.32424	-0.889
Mof_O 	O 	0.5397	0.55833	0.39467	-0.96
Mof_O 	O 	0.9258	0.56496	0.39187	-0.97
Mof_O 	O 	0.2368	0.63825	0.31574	-0.707
Mof_O 	O 	0.2411	0.64697	0.47444	-0.774
Mof_P 	P 	0.25886	0.44127	0.55068	1.04
Mof_P 	P 	0.16375	0.46428	0.23892	0.872
Mof_O 	O 	0.2609	0.37674	0.49232	-0.578
Mof_O 	O 	0.3017	0.40529	0.20856	-0.866
Mof_O 	O 	0.1843	0.53237	0.1878	-0.5
Mof_O 	O 	0.9209	0.44127	0.234	-0.476
Mof_H 	H 	0.2698	0.3399	0.5184	0.344
Mof_Ga	Ga	0.28643	0.34187	0.1171	3.873
Mof_H 	H 	0.1503	0.5235	0.1408	0.306
Mof_H 	H 	0.8853	0.4317	0.1873	0.307
Mof_O 	O 	0.5915	0.3419	0.1211	-0.907
Mof_O 	O 	0.2911	0.41679	0.0345	-0.846
Mof_O 	O 	0.2766	0.25641	0.19216	-0.719
Mof_O 	O 	0.2719	0.26514	0.03318	-0.776
Mof_O 	O 	0.9743	0.34928	0.11647	-0.885
Mof_P 	P 	0.77907	0.30954	0.07876	0.828
Mof_P 	P 	0.1871	0.46903	0.98244	0.645
Mof_C 	C 	0.2688	0.1992	0.1551	0.322
Mof_C 	C 	0.2663	0.2041	0.0625	0.363
Mof_O 	O 	0.7666	0.3281	0.9872	-0.49
Mof_O 	O 	0.7921	0.23099	0.0861	-0.353
Mof_O 	O 	0.1094	0.5322	0.0316	-0.293
Mof_O 	O 	0.0077	0.4313	0.9349	-0.16
Mof_O 	O 	0.361	0.4936	0.9104	-0.191
Mof_H 	H 	0.7593	0.3712	0.9815	0.32
Mof_Ga	Ga	0.26728	0.05874	0.09771	4.095
Mof_O 	O 	0.2577	0.0079	0.99951	-1.012
Mof_O 	O 	0.2735	0.98151	0.17576	-0.872
Mof_O 	O 	0.9603	0.05833	0.10533	-0.944
Mof_O 	O 	0.5742	0.06496	0.10813	-0.961
Mof_O 	O 	0.2632	0.13825	0.18426	-0.7
Mof_O 	O 	0.2589	0.14697	0.02556	-0.772
Mof_P 	P 	0.24114	0.94127	0.94932	1.011
Mof_P 	P 	0.33625	0.96428	0.26108	0.88
Mof_O 	O 	0.2391	0.87674	0.00768	-0.553
Mof_O 	O 	0.1983	0.90529	0.29144	-0.868
Mof_O 	O 	0.3157	0.03237	0.3122	-0.506
Mof_O 	O 	0.5791	0.94127	0.266	-0.479
Mof_H 	H 	0.2302	0.8399	0.9816	0.33
Mof_Ga	Ga	0.21357	0.84187	0.3829	3.881
Mof_H 	H 	0.3497	0.0235	0.3592	0.309
Mof_H 	H 	0.6147	0.9317	0.3127	0.308
Mof_O 	O 	0.9085	0.8419	0.3789	-0.906
Mof_O 	O 	0.2089	0.91679	0.4655	-0.843
Mof_O 	O 	0.2234	0.75641	0.30784	-0.719
Mof_O 	O 	0.2281	0.76514	0.46682	-0.773
Mof_O 	O 	0.5257	0.84928	0.38353	-0.891
Mof_P 	P 	0.72093	0.80954	0.42124	0.831
Mof_P 	P 	0.3129	0.96903	0.51756	0.639
Mof_C 	C 	0.2312	0.6992	0.3449	0.324
Mof_C 	C 	0.2337	0.7041	0.4375	0.363
Mof_O 	O 	0.7334	0.8281	0.5128	-0.495
Mof_O 	O 	0.7079	0.73099	0.4139	-0.355
Mof_O 	O 	0.3906	0.0322	0.4684	-0.285
Mof_O 	O 	0.4923	0.9313	0.5651	-0.169
Mof_O 	O 	0.139	0.9936	0.5896	-0.191
Mof_H 	H 	0.7407	0.8712	0.5185	0.321
_end
