data_functionalizedCrystal
_audit_creation_method	'EQeq! by Chris Wilmer'
_symmetry_space_group_name_H-M	'P1'
_symmetry_Int_Tables_number	1
_symmetry_cell_setting	triclinic
loop_
_symmetry_equiv_pos_as_xyz
  x,y,z
_cell_length_a	17.442
_cell_length_b	30.1339
_cell_length_c	30.1339
_cell_angle_alpha	85.1955
_cell_angle_beta	73.1774
_cell_angle_gamma	73.1775
loop_
_atom_site_label
_atom_site_type_symbol
_atom_site_fract_x
_atom_site_fract_y
_atom_site_fract_z
_atom_site_charge
Mof_Mn	Mn	0.36192	0.14363	0.58352	1.06
Mof_Mn	Mn	0.60616	0.03563	0.61767	1.012
Mof_Mn	Mn	0.21684	0.07841	0.50191	1.049
Mof_Mn	Mn	0.58906	0.35637	0.91648	1.06
Mof_Mn	Mn	0.75946	0.46437	0.88233	1.012
Mof_Mn	Mn	0.29716	0.42159	0.99809	1.048
Mof_Mn	Mn	0.94543	0.41648	0.64364	1.06
Mof_Mn	Mn	0.22384	0.38232	0.53563	1.012
Mof_Mn	Mn	0.71875	0.49809	0.57841	1.049
Mof_Mn	Mn	0.50555	0.08352	0.85636	1.06
Mof_Mn	Mn	0.64178	0.11768	0.96437	1.011
Mof_Mn	Mn	0.29525	0.00191	0.92159	1.047
Mof_Mn	Mn	0.63808	0.85637	0.41648	1.06
Mof_Mn	Mn	0.39384	0.96437	0.38233	1.012
Mof_Mn	Mn	0.78316	0.92159	0.49809	1.049
Mof_Mn	Mn	0.41094	0.64363	0.08352	1.06
Mof_Mn	Mn	0.24054	0.53563	0.11767	1.012
Mof_Mn	Mn	0.70284	0.57841	0.00191	1.048
Mof_Mn	Mn	0.05457	0.58352	0.35636	1.06
Mof_Mn	Mn	0.77616	0.61768	0.46437	1.012
Mof_Mn	Mn	0.28125	0.50191	0.42159	1.049
Mof_Mn	Mn	0.49445	0.91648	0.14364	1.06
Mof_Mn	Mn	0.35822	0.88232	0.03563	1.011
Mof_Mn	Mn	0.70475	0.99809	0.07841	1.047
Mof_H 	H 	0.1839	0.1919	0.7151	0.135
Mof_H 	H 	0.1966	0.184	0.7892	-0.036
Mof_H 	H 	0.32	0.137	0.8042	0.11
Mof_H 	H 	0.4274	0.0987	0.7431	0.004
Mof_H 	H 	0.6277	0.0453	0.5065	0.183
Mof_H 	H 	0.5722	0.0656	0.4714	0.182
Mof_H 	H 	0.6636	0.1176	0.5042	-0.142
Mof_H 	H 	0.6019	0.1412	0.473	-0.145
Mof_H 	H 	0.687	0.1022	0.4092	0.393
Mof_H 	H 	0.729	0.0599	0.4379	0.404
Mof_H 	H 	0.7516	0.1434	0.4266	-0.299
Mof_H 	H 	0.7922	0.102	0.4568	-0.289
Mof_H 	H 	0.8232	0.09	0.356	0.318
Mof_H 	H 	0.8872	0.1058	0.3756	0.327
Mof_H 	H 	0.8737	0.0553	0.3877	0.325
Mof_H 	H 	0.3103	0.254	0.5918	-0.001
Mof_H 	H 	0.3625	0.3155	0.5949	0.101
Mof_H 	H 	0.5862	0.2244	0.5848	0.09
Mof_H 	H 	0.5287	0.1653	0.5841	-0.007
Mof_H 	H 	0.4765	0.3404	0.6122	0.072
Mof_H 	H 	0.5154	0.335	0.5574	0.07
Mof_H 	H 	0.7282	0.1461	0.5989	0.127
Mof_H 	H 	0.8606	0.148	0.5576	-0.033
Mof_H 	H 	0.9571	0.083	0.516	0.106
Mof_H 	H 	0.9118	0.0188	0.5112	-0.006
Mof_H 	H 	0.5225	0.9249	0.5735	0.115
Mof_H 	H 	0.6163	0.8927	0.5561	0.115
Mof_H 	H 	0.5239	0.9051	0.6519	-0.006
Mof_H 	H 	0.5344	0.8611	0.6223	-0.016
Mof_H 	H 	0.6678	0.8833	0.6445	0.119
Mof_H 	H 	0.6819	0.8409	0.6119	0.12
Mof_H 	H 	0.5905	0.8476	0.7076	-0.044
Mof_H 	H 	0.6055	0.8049	0.6749	-0.047
Mof_H 	H 	0.7359	0.8284	0.699	0.18
Mof_H 	H 	0.7007	0.7854	0.72	0.175
Mof_H 	H 	0.7506	0.7857	0.6665	0.182
Mof_H 	H 	0.0899	0.1919	0.4271	0.131
Mof_H 	H 	0.0714	0.2704	0.4294	-0.041
Mof_H 	H 	0.1277	0.3018	0.4764	0.115
Mof_H 	H 	0.2106	0.2521	0.5177	-0.002
Mof_H 	H 	0.3773	0.0355	0.6107	0.125
Mof_H 	H 	0.3805	0.9912	0.5834	0.12
Mof_H 	H 	0.2382	0.9972	0.628	-0.032
Mof_H 	H 	0.3016	0.9848	0.6592	-0.031
Mof_H 	H 	0.1964	0.0749	0.6511	0.133
Mof_H 	H 	0.2607	0.0631	0.6817	0.132
Mof_H 	H 	0.1173	0.0294	0.7006	-0.056
Mof_H 	H 	0.1822	0.0164	0.731	-0.052
Mof_H 	H 	0.1415	0.0923	0.7571	0.2
Mof_H 	H 	0.0597	0.075	0.7662	0.197
Mof_H 	H 	0.0827	0.1085	0.7233	0.197
Mof_H 	H 	0.6875	0.4295	0.5189	-0.015
Mof_H 	H 	0.6544	0.3599	0.5211	0.075
Mof_H 	H 	0.5855	0.3677	0.6599	0.085
Mof_H 	H 	0.6279	0.4335	0.6541	-0.018
Mof_H 	H 	0.6359	0.2891	0.5677	0.061
Mof_H 	H 	0.5968	0.294	0.6228	0.061
Mof_H 	H 	0.5909	0.3081	0.7849	0.134
Mof_H 	H 	0.6698	0.316	0.7108	-0.037
Mof_H 	H 	0.7612	0.363	0.6958	0.11
Mof_H 	H 	0.7692	0.4013	0.7569	0.004
Mof_H 	H 	0.6795	0.4547	0.9935	0.183
Mof_H 	H 	0.6092	0.4344	0.0286	0.182
Mof_H 	H 	0.7854	0.3824	0.9958	-0.142
Mof_H 	H 	0.7161	0.3588	0.027	-0.145
Mof_H 	H 	0.6984	0.3978	0.0908	0.393
Mof_H 	H 	0.7268	0.4401	0.0621	0.404
Mof_H 	H 	0.8216	0.3566	0.0734	-0.299
Mof_H 	H 	0.851	0.398	0.0432	-0.289
Mof_H 	H 	0.7692	0.41	0.144	0.318
Mof_H 	H 	0.8686	0.3942	0.1244	0.327
Mof_H 	H 	0.8167	0.4447	0.1123	0.325
Mof_H 	H 	0.6561	0.246	0.9082	-0.001
Mof_H 	H 	0.7729	0.1845	0.9051	0.102
Mof_H 	H 	0.8954	0.2756	0.9152	0.09
Mof_H 	H 	0.7781	0.3347	0.9159	-0.007
Mof_H 	H 	0.9291	0.1596	0.8878	0.072
Mof_H 	H 	0.9078	0.165	0.9426	0.07
Mof_H 	H 	0.9732	0.3539	0.9011	0.127
Mof_H 	H 	0.0662	0.352	0.9424	-0.033
Mof_H 	H 	0.0561	0.417	0.984	0.106
Mof_H 	H 	0.9418	0.4812	0.9888	-0.006
Mof_H 	H 	0.5209	0.5751	0.9265	0.115
Mof_H 	H 	0.5651	0.6073	0.9439	0.115
Mof_H 	H 	0.5809	0.5949	0.8481	-0.006
Mof_H 	H 	0.5178	0.6389	0.8777	-0.016
Mof_H 	H 	0.6956	0.6167	0.8555	0.119
Mof_H 	H 	0.6347	0.6591	0.8881	0.12
Mof_H 	H 	0.6457	0.6524	0.7924	-0.044
Mof_H 	H 	0.5853	0.6951	0.8251	-0.047
Mof_H 	H 	0.7633	0.6716	0.801	0.18
Mof_H 	H 	0.7061	0.7146	0.78	0.175
Mof_H 	H 	0.7028	0.7143	0.8335	0.182
Mof_H 	H 	0.2089	0.3081	0.0729	0.131
Mof_H 	H 	0.2712	0.2296	0.0706	-0.041
Mof_H 	H 	0.4059	0.1982	0.0236	0.115
Mof_H 	H 	0.4804	0.2479	0.9823	-0.003
Mof_H 	H 	0.5235	0.4645	0.8893	0.125
Mof_H 	H 	0.4551	0.5088	0.9166	0.12
Mof_H 	H 	0.3634	0.5028	0.872	-0.033
Mof_H 	H 	0.4456	0.5152	0.8408	-0.032
Mof_H 	H 	0.4224	0.4251	0.8489	0.133
Mof_H 	H 	0.5055	0.4369	0.8183	0.132
Mof_H 	H 	0.3473	0.4706	0.7994	-0.057
Mof_H 	H 	0.4296	0.4836	0.769	-0.052
Mof_H 	H 	0.4909	0.4077	0.7429	0.201
Mof_H 	H 	0.4009	0.425	0.7338	0.197
Mof_H 	H 	0.4145	0.3915	0.7767	0.197
Mof_H 	H 	0.1359	0.0705	0.9811	-0.015
Mof_H 	H 	0.0354	0.1401	0.9789	0.075
Mof_H 	H 	0.1131	0.1323	0.8401	0.085
Mof_H 	H 	0.2155	0.0665	0.8459	-0.018
Mof_H 	H 	0.9927	0.2109	0.9323	0.061
Mof_H 	H 	0.0136	0.206	0.8772	0.061
Mof_H 	H 	0.899	0.2849	0.6919	0.134
Mof_H 	H 	0.9858	0.2108	0.684	-0.037
Mof_H 	H 	0.1242	0.1958	0.637	0.11
Mof_H 	H 	0.1705	0.2569	0.5987	0.004
Mof_H 	H 	0.1342	0.4935	0.5453	0.183
Mof_H 	H 	0.0436	0.5286	0.5656	0.182
Mof_H 	H 	0.1678	0.4958	0.6176	-0.142
Mof_H 	H 	0.0749	0.527	0.6412	-0.145
Mof_H 	H 	0.0962	0.5908	0.6022	0.393
Mof_H 	H 	0.1669	0.5621	0.5599	0.404
Mof_H 	H 	0.1782	0.5734	0.6434	-0.299
Mof_H 	H 	0.249	0.5432	0.602	-0.289
Mof_H 	H 	0.1792	0.644	0.59	0.318
Mof_H 	H 	0.2628	0.6244	0.6058	0.327
Mof_H 	H 	0.2614	0.6123	0.5553	0.325
Mof_H 	H 	0.9021	0.4082	0.754	-0.001
Mof_H 	H 	0.9574	0.4051	0.8155	0.101
Mof_H 	H 	0.171	0.4152	0.7244	0.09
Mof_H 	H 	0.1128	0.4159	0.6653	-0.007
Mof_H 	H 	0.0887	0.3878	0.8404	0.072
Mof_H 	H 	0.0728	0.4426	0.835	0.07
Mof_H 	H 	0.3271	0.4011	0.6461	0.127
Mof_H 	H 	0.4182	0.4424	0.648	-0.033
Mof_H 	H 	0.4731	0.484	0.583	0.106
Mof_H 	H 	0.423	0.4888	0.5188	-0.006
Mof_H 	H 	0.096	0.4265	0.4249	0.115
Mof_H 	H 	0.1724	0.4439	0.3927	0.115
Mof_H 	H 	0.1758	0.3481	0.4051	-0.006
Mof_H 	H 	0.1567	0.3777	0.3611	-0.016
Mof_H 	H 	0.3123	0.3555	0.3833	0.119
Mof_H 	H 	0.2938	0.3881	0.3409	0.12
Mof_H 	H 	0.2981	0.2924	0.3476	-0.044
Mof_H 	H 	0.2804	0.3251	0.3049	-0.047
Mof_H 	H 	0.4349	0.301	0.3284	0.18
Mof_H 	H 	0.4207	0.28	0.2854	0.175
Mof_H 	H 	0.4171	0.3335	0.2857	0.182
Mof_H 	H 	0.517	0.5729	0.6919	0.131
Mof_H 	H 	0.5008	0.5706	0.7704	-0.041
Mof_H 	H 	0.6041	0.5236	0.8018	0.115
Mof_H 	H 	0.7283	0.4823	0.7521	-0.002
Mof_H 	H 	0.988	0.3893	0.5355	0.125
Mof_H 	H 	0.9639	0.4166	0.4912	0.121
Mof_H 	H 	0.8662	0.372	0.4972	-0.033
Mof_H 	H 	0.9608	0.3408	0.4848	-0.032
Mof_H 	H 	0.8475	0.3489	0.5749	0.133
Mof_H 	H 	0.9424	0.3183	0.5631	0.132
Mof_H 	H 	0.8179	0.2994	0.5294	-0.057
Mof_H 	H 	0.9132	0.269	0.5164	-0.052
Mof_H 	H 	0.8986	0.2429	0.5923	0.201
Mof_H 	H 	0.8259	0.2338	0.575	0.197
Mof_H 	H 	0.806	0.2767	0.6085	0.197
Mof_H 	H 	0.2064	0.4811	0.9295	-0.015
Mof_H 	H 	0.1755	0.4789	0.8599	0.075
Mof_H 	H 	0.2454	0.3401	0.8677	0.085
Mof_H 	H 	0.282	0.3459	0.9335	-0.018
Mof_H 	H 	0.2036	0.4323	0.7891	0.061
Mof_H 	H 	0.2196	0.3772	0.794	0.061
Mof_H 	H 	0.3758	0.2151	0.8081	0.134
Mof_H 	H 	0.3806	0.2892	0.816	-0.037
Mof_H 	H 	0.457	0.3042	0.863	0.11
Mof_H 	H 	0.5261	0.2431	0.9013	0.004
Mof_H 	H 	0.673	0.0065	0.9547	0.182
Mof_H 	H 	0.6378	0.9714	0.9344	0.182
Mof_H 	H 	0.7812	0.0042	0.8824	-0.143
Mof_H 	H 	0.7431	0.973	0.8588	-0.146
Mof_H 	H 	0.7892	0.9092	0.8978	0.393
Mof_H 	H 	0.7889	0.9379	0.9401	0.405
Mof_H 	H 	0.895	0.9266	0.8566	-0.3
Mof_H 	H 	0.8942	0.9568	0.898	-0.289
Mof_H 	H 	0.9132	0.856	0.91	0.318
Mof_H 	H 	0.993	0.8756	0.8942	0.327
Mof_H 	H 	0.929	0.8877	0.9447	0.326
Mof_H 	H 	0.5643	0.0918	0.746	-0.001
Mof_H 	H 	0.678	0.0949	0.6845	0.101
Mof_H 	H 	0.8106	0.0848	0.7756	0.09
Mof_H 	H 	0.694	0.0841	0.8347	-0.007
Mof_H 	H 	0.8169	0.1122	0.6596	0.072
Mof_H 	H 	0.8504	0.0574	0.665	0.07
Mof_H 	H 	0.8743	0.0989	0.8539	0.127
Mof_H 	H 	0.0086	0.0576	0.852	-0.033
Mof_H 	H 	0.0401	0.016	0.917	0.106
Mof_H 	H 	0.9306	0.0112	0.9812	-0.006
Mof_H 	H 	0.4474	0.0735	0.0751	0.115
Mof_H 	H 	0.509	0.0561	0.1073	0.116
Mof_H 	H 	0.429	0.1519	0.0949	-0.006
Mof_H 	H 	0.3955	0.1223	0.1389	-0.016
Mof_H 	H 	0.5511	0.1445	0.1167	0.119
Mof_H 	H 	0.5228	0.1119	0.1591	0.12
Mof_H 	H 	0.4381	0.2076	0.1524	-0.044
Mof_H 	H 	0.4104	0.1749	0.1951	-0.047
Mof_H 	H 	0.5643	0.199	0.1716	0.18
Mof_H 	H 	0.4861	0.22	0.2146	0.175
Mof_H 	H 	0.5363	0.1665	0.2143	0.182
Mof_H 	H 	0.2818	0.9271	0.8081	0.131
Mof_H 	H 	0.3418	0.9294	0.7296	-0.041
Mof_H 	H 	0.4295	0.9764	0.6982	0.115
Mof_H 	H 	0.4627	0.0177	0.7479	-0.003
Mof_H 	H 	0.4128	0.1107	0.9645	0.125
Mof_H 	H 	0.3717	0.0834	0.0088	0.121
Mof_H 	H 	0.2354	0.128	0.0028	-0.031
Mof_H 	H 	0.2864	0.1592	0.0152	-0.03
Mof_H 	H 	0.2713	0.1511	0.9251	0.133
Mof_H 	H 	0.3238	0.1817	0.9369	0.132
Mof_H 	H 	0.1467	0.2006	0.9706	-0.056
Mof_H 	H 	0.1986	0.231	0.9836	-0.052
Mof_H 	H 	0.2338	0.2571	0.9077	0.2
Mof_H 	H 	0.1347	0.2662	0.925	0.197
Mof_H 	H 	0.1912	0.2233	0.8915	0.197
Mof_H 	H 	0.117	0.0189	0.5705	-0.015
Mof_H 	H 	0.0143	0.0211	0.6401	0.075
Mof_H 	H 	0.9532	0.1599	0.6323	0.085
Mof_H 	H 	0.0614	0.1541	0.5665	-0.018
Mof_H 	H 	0.925	0.0677	0.7109	0.061
Mof_H 	H 	0.8908	0.1228	0.706	0.061
Mof_H 	H 	0.8161	0.8081	0.2849	0.134
Mof_H 	H 	0.8034	0.816	0.2108	-0.037
Mof_H 	H 	0.68	0.863	0.1958	0.11
Mof_H 	H 	0.5726	0.9013	0.2569	0.004
Mof_H 	H 	0.3723	0.9547	0.4935	0.183
Mof_H 	H 	0.4278	0.9344	0.5286	0.182
Mof_H 	H 	0.3364	0.8824	0.4958	-0.142
Mof_H 	H 	0.3981	0.8588	0.527	-0.145
Mof_H 	H 	0.313	0.8978	0.5908	0.393
Mof_H 	H 	0.271	0.9401	0.5621	0.404
Mof_H 	H 	0.2484	0.8566	0.5734	-0.299
Mof_H 	H 	0.2078	0.898	0.5432	-0.289
Mof_H 	H 	0.1768	0.91	0.644	0.318
Mof_H 	H 	0.1128	0.8942	0.6244	0.327
Mof_H 	H 	0.1263	0.9447	0.6123	0.325
Mof_H 	H 	0.6897	0.746	0.4082	-0.001
Mof_H 	H 	0.6375	0.6845	0.4051	0.101
Mof_H 	H 	0.4138	0.7756	0.4152	0.09
Mof_H 	H 	0.4713	0.8347	0.4159	-0.007
Mof_H 	H 	0.5235	0.6596	0.3878	0.072
Mof_H 	H 	0.4846	0.665	0.4426	0.07
Mof_H 	H 	0.2718	0.8539	0.4011	0.127
Mof_H 	H 	0.1394	0.852	0.4424	-0.033
Mof_H 	H 	0.0429	0.917	0.484	0.106
Mof_H 	H 	0.0882	0.9812	0.4888	-0.006
Mof_H 	H 	0.4775	0.0751	0.4265	0.115
Mof_H 	H 	0.3837	0.1073	0.4439	0.115
Mof_H 	H 	0.4761	0.0949	0.3481	-0.006
Mof_H 	H 	0.4656	0.1389	0.3777	-0.016
Mof_H 	H 	0.3322	0.1167	0.3555	0.119
Mof_H 	H 	0.3181	0.1591	0.3881	0.12
Mof_H 	H 	0.4095	0.1524	0.2924	-0.044
Mof_H 	H 	0.3945	0.1951	0.3251	-0.047
Mof_H 	H 	0.2641	0.1716	0.301	0.18
Mof_H 	H 	0.2993	0.2146	0.28	0.175
Mof_H 	H 	0.2494	0.2143	0.3335	0.182
Mof_H 	H 	0.9101	0.8081	0.5729	0.131
Mof_H 	H 	0.9286	0.7296	0.5706	-0.041
Mof_H 	H 	0.8723	0.6982	0.5236	0.115
Mof_H 	H 	0.7894	0.7479	0.4823	-0.002
Mof_H 	H 	0.6227	0.9645	0.3893	0.125
Mof_H 	H 	0.6195	0.0088	0.4166	0.12
Mof_H 	H 	0.7618	0.0028	0.372	-0.032
Mof_H 	H 	0.6984	0.0152	0.3408	-0.031
Mof_H 	H 	0.8036	0.9251	0.3489	0.133
Mof_H 	H 	0.7393	0.9369	0.3183	0.132
Mof_H 	H 	0.8827	0.9706	0.2994	-0.056
Mof_H 	H 	0.8178	0.9836	0.269	-0.052
Mof_H 	H 	0.8585	0.9077	0.2429	0.2
Mof_H 	H 	0.9403	0.925	0.2338	0.197
Mof_H 	H 	0.9173	0.8915	0.2767	0.197
Mof_H 	H 	0.3125	0.5705	0.4811	-0.015
Mof_H 	H 	0.3456	0.6401	0.4789	0.075
Mof_H 	H 	0.4145	0.6323	0.3401	0.085
Mof_H 	H 	0.3721	0.5665	0.3459	-0.018
Mof_H 	H 	0.3641	0.7109	0.4323	0.061
Mof_H 	H 	0.4032	0.706	0.3772	0.061
Mof_H 	H 	0.4091	0.6919	0.2151	0.134
Mof_H 	H 	0.3302	0.684	0.2892	-0.037
Mof_H 	H 	0.2388	0.637	0.3042	0.11
Mof_H 	H 	0.2308	0.5987	0.2431	0.004
Mof_H 	H 	0.3205	0.5453	0.0065	0.183
Mof_H 	H 	0.3908	0.5656	0.9714	0.182
Mof_H 	H 	0.2146	0.6176	0.0042	-0.142
Mof_H 	H 	0.2839	0.6412	0.973	-0.145
Mof_H 	H 	0.3016	0.6022	0.9092	0.393
Mof_H 	H 	0.2732	0.5599	0.9379	0.404
Mof_H 	H 	0.1784	0.6434	0.9266	-0.299
Mof_H 	H 	0.149	0.602	0.9568	-0.289
Mof_H 	H 	0.2308	0.59	0.856	0.318
Mof_H 	H 	0.1314	0.6058	0.8756	0.327
Mof_H 	H 	0.1833	0.5553	0.8877	0.325
Mof_H 	H 	0.3439	0.754	0.0918	-0.001
Mof_H 	H 	0.2271	0.8155	0.0949	0.102
Mof_H 	H 	0.1046	0.7244	0.0848	0.09
Mof_H 	H 	0.2219	0.6653	0.0841	-0.007
Mof_H 	H 	0.0709	0.8404	0.1122	0.072
Mof_H 	H 	0.0922	0.835	0.0574	0.07
Mof_H 	H 	0.0268	0.6461	0.0989	0.127
Mof_H 	H 	0.9338	0.648	0.0576	-0.033
Mof_H 	H 	0.9439	0.583	0.016	0.106
Mof_H 	H 	0.0582	0.5188	0.0112	-0.006
Mof_H 	H 	0.4791	0.4249	0.0735	0.115
Mof_H 	H 	0.4349	0.3927	0.0561	0.115
Mof_H 	H 	0.4191	0.4051	0.1519	-0.006
Mof_H 	H 	0.4822	0.3611	0.1223	-0.016
Mof_H 	H 	0.3044	0.3833	0.1445	0.119
Mof_H 	H 	0.3653	0.3409	0.1119	0.12
Mof_H 	H 	0.3543	0.3476	0.2076	-0.044
Mof_H 	H 	0.4147	0.3049	0.1749	-0.047
Mof_H 	H 	0.2367	0.3284	0.199	0.18
Mof_H 	H 	0.2939	0.2854	0.22	0.175
Mof_H 	H 	0.2972	0.2857	0.1665	0.182
Mof_H 	H 	0.7911	0.6919	0.9271	0.131
Mof_H 	H 	0.7288	0.7704	0.9294	-0.041
Mof_H 	H 	0.5941	0.8018	0.9764	0.115
Mof_H 	H 	0.5196	0.7521	0.0177	-0.003
Mof_H 	H 	0.4765	0.5355	0.1107	0.125
Mof_H 	H 	0.5449	0.4912	0.0834	0.12
Mof_H 	H 	0.6366	0.4972	0.128	-0.033
Mof_H 	H 	0.5544	0.4848	0.1592	-0.032
Mof_H 	H 	0.5776	0.5749	0.1511	0.133
Mof_H 	H 	0.4945	0.5631	0.1817	0.132
Mof_H 	H 	0.6527	0.5294	0.2006	-0.057
Mof_H 	H 	0.5704	0.5164	0.231	-0.052
Mof_H 	H 	0.5091	0.5923	0.2571	0.201
Mof_H 	H 	0.5991	0.575	0.2662	0.197
Mof_H 	H 	0.5855	0.6085	0.2233	0.197
Mof_H 	H 	0.8641	0.9295	0.0189	-0.015
Mof_H 	H 	0.9646	0.8599	0.0211	0.075
Mof_H 	H 	0.8869	0.8677	0.1599	0.085
Mof_H 	H 	0.7845	0.9335	0.1541	-0.018
Mof_H 	H 	0.0073	0.7891	0.0677	0.061
Mof_H 	H 	0.9864	0.794	0.1228	0.061
Mof_H 	H 	0.101	0.7151	0.3081	0.134
Mof_H 	H 	0.0142	0.7892	0.316	-0.037
Mof_H 	H 	0.8758	0.8042	0.363	0.11
Mof_H 	H 	0.8295	0.7431	0.4013	0.004
Mof_H 	H 	0.8658	0.5065	0.4547	0.183
Mof_H 	H 	0.9564	0.4714	0.4344	0.182
Mof_H 	H 	0.8322	0.5042	0.3824	-0.142
Mof_H 	H 	0.9251	0.473	0.3588	-0.145
Mof_H 	H 	0.9038	0.4092	0.3978	0.393
Mof_H 	H 	0.8331	0.4379	0.4401	0.404
Mof_H 	H 	0.8218	0.4266	0.3566	-0.299
Mof_H 	H 	0.751	0.4568	0.398	-0.289
Mof_H 	H 	0.8208	0.356	0.41	0.318
Mof_H 	H 	0.7372	0.3756	0.3942	0.327
Mof_H 	H 	0.7386	0.3877	0.4447	0.325
Mof_H 	H 	0.0979	0.5918	0.246	-0.001
Mof_H 	H 	0.0426	0.5949	0.1845	0.101
Mof_H 	H 	0.829	0.5848	0.2756	0.09
Mof_H 	H 	0.8872	0.5841	0.3347	-0.007
Mof_H 	H 	0.9113	0.6122	0.1596	0.072
Mof_H 	H 	0.9272	0.5574	0.165	0.07
Mof_H 	H 	0.6729	0.5989	0.3539	0.127
Mof_H 	H 	0.5818	0.5576	0.352	-0.033
Mof_H 	H 	0.5269	0.516	0.417	0.106
Mof_H 	H 	0.577	0.5112	0.4812	-0.006
Mof_H 	H 	0.904	0.5735	0.5751	0.115
Mof_H 	H 	0.8276	0.5561	0.6073	0.115
Mof_H 	H 	0.8242	0.6519	0.5949	-0.006
Mof_H 	H 	0.8433	0.6223	0.6389	-0.016
Mof_H 	H 	0.6877	0.6445	0.6167	0.119
Mof_H 	H 	0.7062	0.6119	0.6591	0.12
Mof_H 	H 	0.7019	0.7076	0.6524	-0.044
Mof_H 	H 	0.7196	0.6749	0.6951	-0.047
Mof_H 	H 	0.5651	0.699	0.6716	0.18
Mof_H 	H 	0.5793	0.72	0.7146	0.175
Mof_H 	H 	0.5829	0.6665	0.7143	0.182
Mof_H 	H 	0.483	0.4271	0.3081	0.131
Mof_H 	H 	0.4992	0.4294	0.2296	-0.041
Mof_H 	H 	0.3959	0.4764	0.1982	0.115
Mof_H 	H 	0.2717	0.5177	0.2479	-0.002
Mof_H 	H 	0.012	0.6107	0.4645	0.125
Mof_H 	H 	0.0361	0.5834	0.5088	0.121
Mof_H 	H 	0.1338	0.628	0.5028	-0.033
Mof_H 	H 	0.0392	0.6592	0.5152	-0.032
Mof_H 	H 	0.1525	0.6511	0.4251	0.133
Mof_H 	H 	0.0576	0.6817	0.4369	0.132
Mof_H 	H 	0.1821	0.7006	0.4706	-0.057
Mof_H 	H 	0.0868	0.731	0.4836	-0.052
Mof_H 	H 	0.1014	0.7571	0.4077	0.201
Mof_H 	H 	0.1741	0.7662	0.425	0.197
Mof_H 	H 	0.194	0.7233	0.3915	0.197
Mof_H 	H 	0.7936	0.5189	0.0705	-0.015
Mof_H 	H 	0.8245	0.5211	0.1401	0.075
Mof_H 	H 	0.7546	0.6599	0.1323	0.085
Mof_H 	H 	0.718	0.6541	0.0665	-0.018
Mof_H 	H 	0.7964	0.5677	0.2109	0.061
Mof_H 	H 	0.7804	0.6228	0.206	0.061
Mof_H 	H 	0.6242	0.7849	0.1919	0.134
Mof_H 	H 	0.6194	0.7108	0.184	-0.037
Mof_H 	H 	0.543	0.6958	0.137	0.11
Mof_H 	H 	0.4739	0.7569	0.0987	0.004
Mof_H 	H 	0.327	0.9935	0.0453	0.182
Mof_H 	H 	0.3622	0.0286	0.0656	0.182
Mof_H 	H 	0.2188	0.9958	0.1176	-0.143
Mof_H 	H 	0.2569	0.027	0.1412	-0.146
Mof_H 	H 	0.2108	0.0908	0.1022	0.393
Mof_H 	H 	0.2111	0.0621	0.0599	0.405
Mof_H 	H 	0.105	0.0734	0.1434	-0.3
Mof_H 	H 	0.1058	0.0432	0.102	-0.289
Mof_H 	H 	0.0868	0.144	0.09	0.318
Mof_H 	H 	0.007	0.1244	0.1058	0.327
Mof_H 	H 	0.071	0.1123	0.0553	0.326
Mof_H 	H 	0.4357	0.9082	0.254	-0.001
Mof_H 	H 	0.322	0.9051	0.3155	0.101
Mof_H 	H 	0.1894	0.9152	0.2244	0.09
Mof_H 	H 	0.306	0.9159	0.1653	-0.007
Mof_H 	H 	0.1831	0.8878	0.3404	0.072
Mof_H 	H 	0.1496	0.9426	0.335	0.07
Mof_H 	H 	0.1257	0.9011	0.1461	0.127
Mof_H 	H 	0.9914	0.9424	0.148	-0.033
Mof_H 	H 	0.9599	0.984	0.083	0.106
Mof_H 	H 	0.0694	0.9888	0.0188	-0.006
Mof_H 	H 	0.5526	0.9265	0.9249	0.115
Mof_H 	H 	0.491	0.9439	0.8927	0.116
Mof_H 	H 	0.571	0.8481	0.9051	-0.006
Mof_H 	H 	0.6045	0.8777	0.8611	-0.016
Mof_H 	H 	0.4489	0.8555	0.8833	0.119
Mof_H 	H 	0.4772	0.8881	0.8409	0.12
Mof_H 	H 	0.5619	0.7924	0.8476	-0.044
Mof_H 	H 	0.5896	0.8251	0.8049	-0.047
Mof_H 	H 	0.4357	0.801	0.8284	0.18
Mof_H 	H 	0.5139	0.78	0.7854	0.175
Mof_H 	H 	0.4637	0.8335	0.7857	0.182
Mof_H 	H 	0.7182	0.0729	0.1919	0.131
Mof_H 	H 	0.6582	0.0706	0.2704	-0.041
Mof_H 	H 	0.5705	0.0236	0.3018	0.115
Mof_H 	H 	0.5373	0.9823	0.2521	-0.003
Mof_H 	H 	0.5872	0.8893	0.0355	0.125
Mof_H 	H 	0.6283	0.9166	0.9912	0.121
Mof_H 	H 	0.7646	0.872	0.9972	-0.031
Mof_H 	H 	0.7136	0.8408	0.9848	-0.03
Mof_H 	H 	0.7287	0.8489	0.0749	0.133
Mof_H 	H 	0.6762	0.8183	0.0631	0.132
Mof_H 	H 	0.8533	0.7994	0.0294	-0.056
Mof_H 	H 	0.8014	0.769	0.0164	-0.052
Mof_H 	H 	0.7662	0.7429	0.0923	0.2
Mof_H 	H 	0.8653	0.7338	0.075	0.197
Mof_H 	H 	0.8088	0.7767	0.1085	0.197
Mof_H 	H 	0.883	0.9811	0.4295	-0.015
Mof_H 	H 	0.9857	0.9789	0.3599	0.075
Mof_H 	H 	0.0468	0.8401	0.3677	0.085
Mof_H 	H 	0.9386	0.8459	0.4335	-0.018
Mof_H 	H 	0.075	0.9323	0.2891	0.061
Mof_H 	H 	0.1092	0.8772	0.294	0.061
Mof_C 	C 	0.29892	0.15058	0.68278	0.32
Mof_C 	C 	0.23436	0.17285	0.72043	-0.296
Mof_C 	C 	0.24161	0.16816	0.76442	0.159
Mof_C 	C 	0.31448	0.14033	0.77351	-0.225
Mof_C 	C 	0.37773	0.11801	0.73713	0.149
Mof_C 	C 	0.37286	0.12227	0.69181	-0.254
Mof_C 	C 	0.4457	0.09627	0.65513	0.304
Mof_C 	C 	0.51594	0.09208	0.53744	0.348
Mof_C 	C 	0.59052	0.07371	0.49705	-0.553
Mof_C 	C 	0.64019	0.11173	0.47969	0.628
Mof_C 	C 	0.7098	0.0942	0.4362	-1.325
Mof_C 	C 	0.7701	0.1092	0.4294	1.146
Mof_C 	C 	0.8464	0.0879	0.3823	-1.079
Mof_C 	C 	0.36749	0.2479	0.59052	0.12
Mof_C 	C 	0.39857	0.28479	0.59167	-0.203
Mof_C 	C 	0.48108	0.27727	0.58817	0.139
Mof_C 	C 	0.52888	0.23138	0.58606	-0.191
Mof_C 	C 	0.49456	0.19634	0.58574	0.118
Mof_C 	C 	0.5156	0.3187	0.5873	-0.155
Mof_C 	C 	0.73872	0.08003	0.58193	0.317
Mof_C 	C 	0.76531	0.1196	0.58178	-0.284
Mof_C 	C 	0.84443	0.12057	0.55717	0.158
Mof_C 	C 	0.90162	0.08254	0.53162	-0.213
Mof_C 	C 	0.87469	0.04436	0.52986	0.145
Mof_C 	C 	0.79504	0.04155	0.55437	-0.246
Mof_C 	C 	0.77082	0.00054	0.54802	0.294
Mof_C 	C 	0.60793	0.95302	0.58672	0.273
Mof_C 	C 	0.57576	0.91295	0.58173	-0.33
Mof_C 	C 	0.56194	0.88447	0.62605	0.126
Mof_C 	C 	0.64238	0.85979	0.63865	-0.322
Mof_C 	C 	0.63022	0.82878	0.68078	0.219
Mof_C 	C 	0.7116	0.80497	0.69263	-0.565
Mof_C 	C 	0.16287	0.17293	0.47173	0.327
Mof_C 	C 	0.11492	0.20364	0.44592	-0.3
Mof_C 	C 	0.10356	0.25039	0.44749	0.17
Mof_C 	C 	0.13752	0.26917	0.47479	-0.235
Mof_C 	C 	0.18578	0.23966	0.49938	0.154
Mof_C 	C 	0.1996	0.19156	0.49844	-0.264
Mof_C 	C 	0.25166	0.1633	0.52678	0.307
Mof_C 	C 	0.30535	0.05193	0.56517	0.294
Mof_C 	C 	0.34331	0.02042	0.59916	-0.364
Mof_C 	C 	0.27511	0.00946	0.64012	0.163
Mof_C 	C 	0.22322	0.05062	0.67034	-0.361
Mof_C 	C 	0.15574	0.04118	0.71194	0.26
Mof_C 	C 	0.1055	0.0829	0.7423	-0.612
Mof_C 	C 	0.66788	0.41607	0.54817	0.107
Mof_C 	C 	0.64767	0.37461	0.54925	-0.187
Mof_C 	C 	0.61791	0.35485	0.59153	0.132
Mof_C 	C 	0.60867	0.37889	0.63017	-0.201
Mof_C 	C 	0.63232	0.41879	0.62637	0.118
Mof_C 	C 	0.5951	0.3098	0.5928	-0.144
Mof_C 	C 	0.63228	0.34942	0.81722	0.32
Mof_C 	C 	0.62764	0.32715	0.77957	-0.296
Mof_C 	C 	0.67419	0.33184	0.73558	0.159
Mof_C 	C 	0.72832	0.35967	0.72649	-0.225
Mof_C 	C 	0.73287	0.38199	0.76287	0.149
Mof_C 	C 	0.68694	0.37773	0.80819	-0.254
Mof_C 	C 	0.6971	0.40373	0.84487	0.304
Mof_C 	C 	0.64546	0.40792	0.96256	0.348
Mof_C 	C 	0.66128	0.42629	0.00295	-0.553
Mof_C 	C 	0.73161	0.38827	0.02031	0.629
Mof_C 	C 	0.7402	0.4058	0.0638	-1.325
Mof_C 	C 	0.8087	0.3908	0.0706	1.145
Mof_C 	C 	0.8166	0.4121	0.1177	-1.079
Mof_C 	C 	0.70591	0.2521	0.90948	0.12
Mof_C 	C 	0.77503	0.21521	0.90833	-0.203
Mof_C 	C 	0.84652	0.22273	0.91183	0.139
Mof_C 	C 	0.84632	0.26862	0.91394	-0.191
Mof_C 	C 	0.77664	0.30366	0.91426	0.118
Mof_C 	C 	0.9216	0.1813	0.9127	-0.155
Mof_C 	C 	0.90068	0.41997	0.91807	0.317
Mof_C 	C 	0.96669	0.3804	0.91822	-0.284
Mof_C 	C 	0.02217	0.37943	0.94283	0.158
Mof_C 	C 	0.01578	0.41746	0.96838	-0.213
Mof_C 	C 	0.94891	0.45564	0.97014	0.146
Mof_C 	C 	0.89096	0.45845	0.94563	-0.246
Mof_C 	C 	0.81938	0.49946	0.95198	0.294
Mof_C 	C 	0.64767	0.54698	0.91328	0.273
Mof_C 	C 	0.57044	0.58705	0.91827	-0.331
Mof_C 	C 	0.57246	0.61553	0.87395	0.126
Mof_C 	C 	0.64082	0.64021	0.86135	-0.322
Mof_C 	C 	0.63978	0.67122	0.81922	0.219
Mof_C 	C 	0.7092	0.69503	0.80737	-0.565
Mof_C 	C 	0.30753	0.32707	0.02827	0.327
Mof_C 	C 	0.26448	0.29636	0.05408	-0.3
Mof_C 	C 	0.30144	0.24961	0.05251	0.171
Mof_C 	C 	0.38148	0.23083	0.02521	-0.236
Mof_C 	C 	0.42482	0.26034	0.00062	0.155
Mof_C 	C 	0.3896	0.30844	0.00156	-0.264
Mof_C 	C 	0.44174	0.3367	0.97322	0.307
Mof_C 	C 	0.42245	0.44807	0.93483	0.294
Mof_C 	C 	0.46289	0.47958	0.90084	-0.364
Mof_C 	C 	0.42469	0.49054	0.85988	0.164
Mof_C 	C 	0.44418	0.44938	0.82966	-0.362
Mof_C 	C 	0.40886	0.45882	0.78806	0.26
Mof_C 	C 	0.4307	0.4171	0.7577	-0.612
Mof_C 	C 	0.13212	0.08393	0.95183	0.107
Mof_C 	C 	0.07153	0.12539	0.95075	-0.187
Mof_C 	C 	0.06429	0.14515	0.90847	0.131
Mof_C 	C 	0.11773	0.12111	0.86983	-0.201
Mof_C 	C 	0.17748	0.08121	0.87363	0.118
Mof_C 	C 	0.9977	0.1902	0.9072	-0.143
Mof_C 	C 	0.9817	0.31722	0.65058	0.32
Mof_C 	C 	0.95479	0.27957	0.67285	-0.296
Mof_C 	C 	0.00603	0.23558	0.66816	0.158
Mof_C 	C 	0.08799	0.22649	0.64033	-0.225
Mof_C 	C 	0.11486	0.26287	0.61801	0.149
Mof_C 	C 	0.06467	0.30819	0.62227	-0.254
Mof_C 	C 	0.10083	0.34487	0.59627	0.304
Mof_C 	C 	0.05338	0.46256	0.59208	0.348
Mof_C 	C 	0.08757	0.50295	0.57371	-0.553
Mof_C 	C 	0.11988	0.52031	0.61173	0.628
Mof_C 	C 	0.146	0.5638	0.5942	-1.324
Mof_C 	C 	0.1995	0.5706	0.6092	1.145
Mof_C 	C 	0.2287	0.6177	0.5879	-1.079
Mof_C 	C 	0.95801	0.40948	0.7479	0.12
Mof_C 	C 	0.99024	0.40833	0.78479	-0.202
Mof_C 	C 	0.06925	0.41183	0.77727	0.138
Mof_C 	C 	0.11494	0.41394	0.73138	-0.191
Mof_C 	C 	0.0803	0.41426	0.69634	0.118
Mof_C 	C 	0.1029	0.4127	0.8187	-0.154
Mof_C 	C 	0.32065	0.41807	0.58003	0.317
Mof_C 	C 	0.34709	0.41822	0.6196	-0.284
Mof_C 	C 	0.4016	0.44283	0.62057	0.158
Mof_C 	C 	0.43324	0.46838	0.58254	-0.213
Mof_C 	C 	0.40455	0.47014	0.54436	0.145
Mof_C 	C 	0.34941	0.44563	0.54155	-0.246
Mof_C 	C 	0.31884	0.45198	0.50054	0.294
Mof_C 	C 	0.19465	0.41328	0.45302	0.273
Mof_C 	C 	0.15749	0.41827	0.41295	-0.33
Mof_C 	C 	0.18799	0.37395	0.38447	0.126
Mof_C 	C 	0.28103	0.36135	0.35979	-0.322
Mof_C 	C 	0.311	0.31922	0.32878	0.219
Mof_C 	C 	0.40423	0.30737	0.30497	-0.565
Mof_C 	C 	0.6346	0.52827	0.67293	0.327
Mof_C 	C 	0.56084	0.55408	0.70364	-0.3
Mof_C 	C 	0.55105	0.55251	0.75039	0.17
Mof_C 	C 	0.61231	0.52521	0.76917	-0.235
Mof_C 	C 	0.68516	0.50062	0.73966	0.154
Mof_C 	C 	0.69804	0.50156	0.69156	-0.264
Mof_C 	C 	0.77844	0.47322	0.6633	0.307
Mof_C 	C 	0.87052	0.43483	0.55193	0.294
Mof_C 	C 	0.94247	0.40084	0.52042	-0.364
Mof_C 	C 	0.91523	0.35988	0.50946	0.164
Mof_C 	C 	0.89356	0.32966	0.55062	-0.362
Mof_C 	C 	0.86768	0.28806	0.54118	0.26
Mof_C 	C 	0.8478	0.2577	0.5829	-0.612
Mof_C 	C 	0.21605	0.45183	0.91607	0.107
Mof_C 	C 	0.19692	0.45075	0.87461	-0.187
Mof_C 	C 	0.20944	0.40847	0.85485	0.132
Mof_C 	C 	0.23884	0.36983	0.87889	-0.202
Mof_C 	C 	0.25869	0.37363	0.91879	0.118
Mof_C 	C 	0.1879	0.4072	0.8098	-0.144
Mof_C 	C 	0.4495	0.18278	0.84942	0.32
Mof_C 	C 	0.40721	0.22043	0.82715	-0.296
Mof_C 	C 	0.40977	0.26442	0.83184	0.159
Mof_C 	C 	0.45481	0.27351	0.85967	-0.225
Mof_C 	C 	0.49574	0.23713	0.88199	0.149
Mof_C 	C 	0.49513	0.19181	0.87773	-0.254
Mof_C 	C 	0.54197	0.15513	0.90373	0.303
Mof_C 	C 	0.60802	0.03744	0.90792	0.347
Mof_C 	C 	0.66423	0.99705	0.92629	-0.55
Mof_C 	C 	0.75192	0.97969	0.88827	0.63
Mof_C 	C 	0.804	0.9362	0.9058	-1.327
Mof_C 	C 	0.8793	0.9294	0.8908	1.147
Mof_C 	C 	0.9343	0.8823	0.9121	-1.081
Mof_C 	C 	0.61539	0.09052	0.7521	0.12
Mof_C 	C 	0.68336	0.09167	0.71521	-0.203
Mof_C 	C 	0.75835	0.08817	0.72273	0.139
Mof_C 	C 	0.76026	0.08606	0.76862	-0.191
Mof_C 	C 	0.6909	0.08574	0.80366	0.118
Mof_C 	C 	0.8343	0.0873	0.6813	-0.155
Mof_C 	C 	0.81875	0.08193	0.91997	0.317
Mof_C 	C 	0.88491	0.08178	0.8804	-0.284
Mof_C 	C 	0.965	0.05717	0.87943	0.158
Mof_C 	C 	0.98416	0.03162	0.91746	-0.212
Mof_C 	C 	0.91905	0.02986	0.95564	0.144
Mof_C 	C 	0.83659	0.05437	0.95845	-0.245
Mof_C 	C 	0.77136	0.04802	0.99946	0.292
Mof_C 	C 	0.56095	0.08672	0.04698	0.274
Mof_C 	C 	0.48871	0.08173	0.08705	-0.331
Mof_C 	C 	0.44641	0.12605	0.11553	0.126
Mof_C 	C 	0.50217	0.13865	0.14021	-0.322
Mof_C 	C 	0.459	0.18078	0.17122	0.219
Mof_C 	C 	0.51657	0.19263	0.19503	-0.565
Mof_C 	C 	0.3358	0.97173	0.82707	0.327
Mof_C 	C 	0.31856	0.94592	0.79636	-0.3
Mof_C 	C 	0.35395	0.94749	0.74961	0.171
Mof_C 	C 	0.40669	0.97479	0.73083	-0.236
Mof_C 	C 	0.42544	0.99938	0.76034	0.155
Mof_C 	C 	0.39116	0.99844	0.80844	-0.263
Mof_C 	C 	0.41496	0.02678	0.8367	0.306
Mof_C 	C 	0.35728	0.06517	0.94807	0.294
Mof_C 	C 	0.36373	0.09916	0.97958	-0.364
Mof_C 	C 	0.28457	0.14012	0.99054	0.16
Mof_C 	C 	0.27384	0.17034	0.94938	-0.359
Mof_C 	C 	0.19692	0.21194	0.95882	0.259
Mof_C 	C 	0.1884	0.2423	0.9171	-0.611
Mof_C 	C 	0.08395	0.04817	0.58393	0.107
Mof_C 	C 	0.02228	0.04925	0.62539	-0.187
Mof_C 	C 	0.97276	0.09153	0.64515	0.132
Mof_C 	C 	0.98756	0.13017	0.62111	-0.201
Mof_C 	C 	0.05111	0.12637	0.58121	0.118
Mof_C 	C 	0.9049	0.0928	0.6902	-0.144
Mof_C 	C 	0.70108	0.84942	0.31722	0.32
Mof_C 	C 	0.76564	0.82715	0.27957	-0.296
Mof_C 	C 	0.75839	0.83184	0.23558	0.159
Mof_C 	C 	0.68552	0.85967	0.22649	-0.225
Mof_C 	C 	0.62227	0.88199	0.26287	0.149
Mof_C 	C 	0.62714	0.87773	0.30819	-0.254
Mof_C 	C 	0.5543	0.90373	0.34487	0.304
Mof_C 	C 	0.48406	0.90792	0.46256	0.348
Mof_C 	C 	0.40948	0.92629	0.50295	-0.553
Mof_C 	C 	0.35981	0.88827	0.52031	0.628
Mof_C 	C 	0.2902	0.9058	0.5638	-1.325
Mof_C 	C 	0.2299	0.8908	0.5706	1.146
Mof_C 	C 	0.1536	0.9121	0.6177	-1.079
Mof_C 	C 	0.63251	0.7521	0.40948	0.12
Mof_C 	C 	0.60143	0.71521	0.40833	-0.203
Mof_C 	C 	0.51892	0.72273	0.41183	0.139
Mof_C 	C 	0.47112	0.76862	0.41394	-0.191
Mof_C 	C 	0.50544	0.80366	0.41426	0.118
Mof_C 	C 	0.4844	0.6813	0.4127	-0.155
Mof_C 	C 	0.26128	0.91997	0.41807	0.317
Mof_C 	C 	0.23469	0.8804	0.41822	-0.284
Mof_C 	C 	0.15557	0.87943	0.44283	0.158
Mof_C 	C 	0.09838	0.91746	0.46838	-0.213
Mof_C 	C 	0.12531	0.95564	0.47014	0.145
Mof_C 	C 	0.20496	0.95845	0.44563	-0.246
Mof_C 	C 	0.22918	0.99946	0.45198	0.294
Mof_C 	C 	0.39207	0.04698	0.41328	0.273
Mof_C 	C 	0.42424	0.08705	0.41827	-0.33
Mof_C 	C 	0.43806	0.11553	0.37395	0.126
Mof_C 	C 	0.35762	0.14021	0.36135	-0.322
Mof_C 	C 	0.36978	0.17122	0.31922	0.219
Mof_C 	C 	0.2884	0.19503	0.30737	-0.565
Mof_C 	C 	0.83713	0.82707	0.52827	0.327
Mof_C 	C 	0.88508	0.79636	0.55408	-0.3
Mof_C 	C 	0.89644	0.74961	0.55251	0.17
Mof_C 	C 	0.86248	0.73083	0.52521	-0.235
Mof_C 	C 	0.81422	0.76034	0.50062	0.154
Mof_C 	C 	0.8004	0.80844	0.50156	-0.264
Mof_C 	C 	0.74834	0.8367	0.47322	0.307
Mof_C 	C 	0.69465	0.94807	0.43483	0.294
Mof_C 	C 	0.65669	0.97958	0.40084	-0.364
Mof_C 	C 	0.72489	0.99054	0.35988	0.163
Mof_C 	C 	0.77678	0.94938	0.32966	-0.361
Mof_C 	C 	0.84426	0.95882	0.28806	0.26
Mof_C 	C 	0.8945	0.9171	0.2577	-0.612
Mof_C 	C 	0.33212	0.58393	0.45183	0.107
Mof_C 	C 	0.35233	0.62539	0.45075	-0.187
Mof_C 	C 	0.38209	0.64515	0.40847	0.132
Mof_C 	C 	0.39133	0.62111	0.36983	-0.201
Mof_C 	C 	0.36768	0.58121	0.37363	0.118
Mof_C 	C 	0.4049	0.6902	0.4072	-0.144
Mof_C 	C 	0.36772	0.65058	0.18278	0.32
Mof_C 	C 	0.37236	0.67285	0.22043	-0.296
Mof_C 	C 	0.32581	0.66816	0.26442	0.159
Mof_C 	C 	0.27168	0.64033	0.27351	-0.225
Mof_C 	C 	0.26713	0.61801	0.23713	0.149
Mof_C 	C 	0.31306	0.62227	0.19181	-0.254
Mof_C 	C 	0.3029	0.59627	0.15513	0.304
Mof_C 	C 	0.35454	0.59208	0.03744	0.348
Mof_C 	C 	0.33872	0.57371	0.99705	-0.553
Mof_C 	C 	0.26839	0.61173	0.97969	0.629
Mof_C 	C 	0.2598	0.5942	0.9362	-1.325
Mof_C 	C 	0.1913	0.6092	0.9294	1.145
Mof_C 	C 	0.1834	0.5879	0.8823	-1.079
Mof_C 	C 	0.29409	0.7479	0.09052	0.12
Mof_C 	C 	0.22497	0.78479	0.09167	-0.203
Mof_C 	C 	0.15348	0.77727	0.08817	0.139
Mof_C 	C 	0.15368	0.73138	0.08606	-0.191
Mof_C 	C 	0.22336	0.69634	0.08574	0.118
Mof_C 	C 	0.0784	0.8187	0.0873	-0.155
Mof_C 	C 	0.09932	0.58003	0.08193	0.317
Mof_C 	C 	0.03331	0.6196	0.08178	-0.284
Mof_C 	C 	0.97783	0.62057	0.05717	0.158
Mof_C 	C 	0.98422	0.58254	0.03162	-0.213
Mof_C 	C 	0.05109	0.54436	0.02986	0.146
Mof_C 	C 	0.10904	0.54155	0.05437	-0.246
Mof_C 	C 	0.18062	0.50054	0.04802	0.294
Mof_C 	C 	0.35233	0.45302	0.08672	0.273
Mof_C 	C 	0.42956	0.41295	0.08173	-0.331
Mof_C 	C 	0.42754	0.38447	0.12605	0.126
Mof_C 	C 	0.35918	0.35979	0.13865	-0.322
Mof_C 	C 	0.36022	0.32878	0.18078	0.219
Mof_C 	C 	0.2908	0.30497	0.19263	-0.565
Mof_C 	C 	0.69247	0.67293	0.97173	0.327
Mof_C 	C 	0.73552	0.70364	0.94592	-0.3
Mof_C 	C 	0.69856	0.75039	0.94749	0.171
Mof_C 	C 	0.61852	0.76917	0.97479	-0.236
Mof_C 	C 	0.57518	0.73966	0.99938	0.155
Mof_C 	C 	0.6104	0.69156	0.99844	-0.264
Mof_C 	C 	0.55826	0.6633	0.02678	0.307
Mof_C 	C 	0.57755	0.55193	0.06517	0.294
Mof_C 	C 	0.53711	0.52042	0.09916	-0.364
Mof_C 	C 	0.57531	0.50946	0.14012	0.164
Mof_C 	C 	0.55582	0.55062	0.17034	-0.362
Mof_C 	C 	0.59114	0.54118	0.21194	0.26
Mof_C 	C 	0.5693	0.5829	0.2423	-0.612
Mof_C 	C 	0.86788	0.91607	0.04817	0.107
Mof_C 	C 	0.92847	0.87461	0.04925	-0.187
Mof_C 	C 	0.93571	0.85485	0.09153	0.131
Mof_C 	C 	0.88227	0.87889	0.13017	-0.201
Mof_C 	C 	0.82252	0.91879	0.12637	0.118
Mof_C 	C 	0.0023	0.8098	0.0928	-0.143
Mof_C 	C 	0.0183	0.68278	0.34942	0.32
Mof_C 	C 	0.04521	0.72043	0.32715	-0.296
Mof_C 	C 	0.99397	0.76442	0.33184	0.158
Mof_C 	C 	0.91201	0.77351	0.35967	-0.225
Mof_C 	C 	0.88514	0.73713	0.38199	0.149
Mof_C 	C 	0.93533	0.69181	0.37773	-0.254
Mof_C 	C 	0.89917	0.65513	0.40373	0.304
Mof_C 	C 	0.94662	0.53744	0.40792	0.348
Mof_C 	C 	0.91243	0.49705	0.42629	-0.553
Mof_C 	C 	0.88012	0.47969	0.38827	0.628
Mof_C 	C 	0.854	0.4362	0.4058	-1.324
Mof_C 	C 	0.8005	0.4294	0.3908	1.145
Mof_C 	C 	0.7713	0.3823	0.4121	-1.079
Mof_C 	C 	0.04199	0.59052	0.2521	0.12
Mof_C 	C 	0.00976	0.59167	0.21521	-0.202
Mof_C 	C 	0.93075	0.58817	0.22273	0.138
Mof_C 	C 	0.88506	0.58606	0.26862	-0.191
Mof_C 	C 	0.9197	0.58574	0.30366	0.118
Mof_C 	C 	0.8971	0.5873	0.1813	-0.154
Mof_C 	C 	0.67935	0.58193	0.41997	0.317
Mof_C 	C 	0.65291	0.58178	0.3804	-0.284
Mof_C 	C 	0.5984	0.55717	0.37943	0.158
Mof_C 	C 	0.56676	0.53162	0.41746	-0.213
Mof_C 	C 	0.59545	0.52986	0.45564	0.145
Mof_C 	C 	0.65059	0.55437	0.45845	-0.246
Mof_C 	C 	0.68116	0.54802	0.49946	0.294
Mof_C 	C 	0.80535	0.58672	0.54698	0.273
Mof_C 	C 	0.84251	0.58173	0.58705	-0.33
Mof_C 	C 	0.81201	0.62605	0.61553	0.126
Mof_C 	C 	0.71897	0.63865	0.64021	-0.322
Mof_C 	C 	0.689	0.68078	0.67122	0.219
Mof_C 	C 	0.59577	0.69263	0.69503	-0.565
Mof_C 	C 	0.3654	0.47173	0.32707	0.327
Mof_C 	C 	0.43916	0.44592	0.29636	-0.3
Mof_C 	C 	0.44895	0.44749	0.24961	0.17
Mof_C 	C 	0.38769	0.47479	0.23083	-0.235
Mof_C 	C 	0.31484	0.49938	0.26034	0.154
Mof_C 	C 	0.30196	0.49844	0.30844	-0.264
Mof_C 	C 	0.22156	0.52678	0.3367	0.307
Mof_C 	C 	0.12948	0.56517	0.44807	0.294
Mof_C 	C 	0.05753	0.59916	0.47958	-0.364
Mof_C 	C 	0.08477	0.64012	0.49054	0.164
Mof_C 	C 	0.10644	0.67034	0.44938	-0.362
Mof_C 	C 	0.13232	0.71194	0.45882	0.26
Mof_C 	C 	0.1522	0.7423	0.4171	-0.612
Mof_C 	C 	0.78395	0.54817	0.08393	0.107
Mof_C 	C 	0.80308	0.54925	0.12539	-0.187
Mof_C 	C 	0.79056	0.59153	0.14515	0.132
Mof_C 	C 	0.76116	0.63017	0.12111	-0.202
Mof_C 	C 	0.74131	0.62637	0.08121	0.118
Mof_C 	C 	0.8121	0.5928	0.1902	-0.144
Mof_C 	C 	0.5505	0.81722	0.15058	0.32
Mof_C 	C 	0.59279	0.77957	0.17285	-0.296
Mof_C 	C 	0.59023	0.73558	0.16816	0.159
Mof_C 	C 	0.54519	0.72649	0.14033	-0.225
Mof_C 	C 	0.50426	0.76287	0.11801	0.149
Mof_C 	C 	0.50487	0.80819	0.12227	-0.254
Mof_C 	C 	0.45803	0.84487	0.09627	0.303
Mof_C 	C 	0.39198	0.96256	0.09208	0.347
Mof_C 	C 	0.33577	0.00295	0.07371	-0.55
Mof_C 	C 	0.24808	0.02031	0.11173	0.63
Mof_C 	C 	0.196	0.0638	0.0942	-1.327
Mof_C 	C 	0.1207	0.0706	0.1092	1.147
Mof_C 	C 	0.0657	0.1177	0.0879	-1.081
Mof_C 	C 	0.38461	0.90948	0.2479	0.12
Mof_C 	C 	0.31664	0.90833	0.28479	-0.203
Mof_C 	C 	0.24165	0.91183	0.27727	0.139
Mof_C 	C 	0.23974	0.91394	0.23138	-0.191
Mof_C 	C 	0.3091	0.91426	0.19634	0.118
Mof_C 	C 	0.1657	0.9127	0.3187	-0.155
Mof_C 	C 	0.18125	0.91807	0.08003	0.317
Mof_C 	C 	0.11509	0.91822	0.1196	-0.284
Mof_C 	C 	0.035	0.94283	0.12057	0.158
Mof_C 	C 	0.01584	0.96838	0.08254	-0.212
Mof_C 	C 	0.08095	0.97014	0.04436	0.144
Mof_C 	C 	0.16341	0.94563	0.04155	-0.245
Mof_C 	C 	0.22864	0.95198	0.00054	0.292
Mof_C 	C 	0.43905	0.91328	0.95302	0.274
Mof_C 	C 	0.51129	0.91827	0.91295	-0.331
Mof_C 	C 	0.55359	0.87395	0.88447	0.126
Mof_C 	C 	0.49783	0.86135	0.85979	-0.322
Mof_C 	C 	0.541	0.81922	0.82878	0.219
Mof_C 	C 	0.48343	0.80737	0.80497	-0.565
Mof_C 	C 	0.6642	0.02827	0.17293	0.327
Mof_C 	C 	0.68144	0.05408	0.20364	-0.3
Mof_C 	C 	0.64605	0.05251	0.25039	0.171
Mof_C 	C 	0.59331	0.02521	0.26917	-0.236
Mof_C 	C 	0.57456	0.00062	0.23966	0.155
Mof_C 	C 	0.60884	0.00156	0.19156	-0.263
Mof_C 	C 	0.58504	0.97322	0.1633	0.306
Mof_C 	C 	0.64272	0.93483	0.05193	0.294
Mof_C 	C 	0.63627	0.90084	0.02042	-0.364
Mof_C 	C 	0.71543	0.85988	0.00946	0.16
Mof_C 	C 	0.72616	0.82966	0.05062	-0.359
Mof_C 	C 	0.80308	0.78806	0.04118	0.259
Mof_C 	C 	0.8116	0.7577	0.0829	-0.611
Mof_C 	C 	0.91605	0.95183	0.41607	0.107
Mof_C 	C 	0.97772	0.95075	0.37461	-0.187
Mof_C 	C 	0.02724	0.90847	0.35485	0.132
Mof_C 	C 	0.01244	0.86983	0.37889	-0.201
Mof_C 	C 	0.94889	0.87363	0.41879	0.118
Mof_C 	C 	0.0951	0.9072	0.3098	-0.144
Mof_N 	N 	0.44341	0.10202	0.61162	-0.252
Mof_N 	N 	0.51766	0.07801	0.57927	-0.214
Mof_N 	N 	0.41406	0.20415	0.58773	-0.203
Mof_N 	N 	0.69544	0.99686	0.57066	-0.253
Mof_N 	N 	0.67942	0.95589	0.56027	-0.203
Mof_N 	N 	0.25872	0.11856	0.53056	-0.251
Mof_N 	N 	0.30339	0.09486	0.5618	-0.209
Mof_N 	N 	0.66068	0.43793	0.58651	-0.203
Mof_N 	N 	0.65705	0.39798	0.88838	-0.252
Mof_N 	N 	0.67494	0.42199	0.92073	-0.214
Mof_N 	N 	0.70594	0.29585	0.91227	-0.203
Mof_N 	N 	0.76296	0.50314	0.92934	-0.253
Mof_N 	N 	0.69558	0.54411	0.93973	-0.203
Mof_N 	N 	0.40784	0.38144	0.96944	-0.251
Mof_N 	N 	0.46005	0.40514	0.9382	-0.209
Mof_N 	N 	0.18512	0.06207	0.91349	-0.203
Mof_N 	N 	0.05503	0.38838	0.60202	-0.252
Mof_N 	N 	0.09693	0.42073	0.57801	-0.214
Mof_N 	N 	0.00179	0.41227	0.70415	-0.203
Mof_N 	N 	0.2661	0.42934	0.49686	-0.253
Mof_N 	N 	0.23969	0.43973	0.45589	-0.203
Mof_N 	N 	0.78928	0.46944	0.61856	-0.251
Mof_N 	N 	0.86519	0.4382	0.59486	-0.209
Mof_N 	N 	0.24719	0.41349	0.93793	-0.203
Mof_N 	N 	0.54543	0.11162	0.89798	-0.252
Mof_N 	N 	0.59567	0.07927	0.92199	-0.214
Mof_N 	N 	0.61821	0.08773	0.79585	-0.203
Mof_N 	N 	0.6923	0.07066	0.00314	-0.252
Mof_N 	N 	0.63531	0.06027	0.04411	-0.203
Mof_N 	N 	0.37728	0.03056	0.88144	-0.251
Mof_N 	N 	0.39825	0.0618	0.90514	-0.209
Mof_N 	N 	0.09861	0.08651	0.56207	-0.203
Mof_N 	N 	0.55659	0.89798	0.38838	-0.252
Mof_N 	N 	0.48234	0.92199	0.42073	-0.214
Mof_N 	N 	0.58594	0.79585	0.41227	-0.203
Mof_N 	N 	0.30456	0.00314	0.42934	-0.253
Mof_N 	N 	0.32058	0.04411	0.43973	-0.203
Mof_N 	N 	0.74128	0.88144	0.46944	-0.251
Mof_N 	N 	0.69661	0.90514	0.4382	-0.209
Mof_N 	N 	0.33932	0.56207	0.41349	-0.203
Mof_N 	N 	0.34295	0.60202	0.11162	-0.252
Mof_N 	N 	0.32506	0.57801	0.07927	-0.214
Mof_N 	N 	0.29406	0.70415	0.08773	-0.203
Mof_N 	N 	0.23704	0.49686	0.07066	-0.253
Mof_N 	N 	0.30442	0.45589	0.06027	-0.203
Mof_N 	N 	0.59216	0.61856	0.03056	-0.251
Mof_N 	N 	0.53995	0.59486	0.0618	-0.209
Mof_N 	N 	0.81488	0.93793	0.08651	-0.203
Mof_N 	N 	0.94497	0.61162	0.39798	-0.252
Mof_N 	N 	0.90307	0.57927	0.42199	-0.214
Mof_N 	N 	0.99821	0.58773	0.29585	-0.203
Mof_N 	N 	0.7339	0.57066	0.50314	-0.253
Mof_N 	N 	0.76031	0.56027	0.54411	-0.203
Mof_N 	N 	0.21072	0.53056	0.38144	-0.251
Mof_N 	N 	0.13481	0.5618	0.40514	-0.209
Mof_N 	N 	0.75281	0.58651	0.06207	-0.203
Mof_N 	N 	0.45457	0.88838	0.10202	-0.252
Mof_N 	N 	0.40433	0.92073	0.07801	-0.214
Mof_N 	N 	0.38179	0.91227	0.20415	-0.203
Mof_N 	N 	0.3077	0.92934	0.99686	-0.252
Mof_N 	N 	0.36469	0.93973	0.95589	-0.203
Mof_N 	N 	0.62272	0.96944	0.11856	-0.251
Mof_N 	N 	0.60175	0.9382	0.09486	-0.209
Mof_N 	N 	0.90139	0.91349	0.43793	-0.203
Mof_O 	O 	0.28578	0.15763	0.64105	-0.439
Mof_O 	O 	0.50919	0.06993	0.66641	-0.386
Mof_O 	O 	0.45282	0.12342	0.52864	-0.415
Mof_O 	O 	0.66277	0.08091	0.60827	-0.43
Mof_O 	O 	0.8233	0.96855	0.52019	-0.379
Mof_O 	O 	0.56089	0.98411	0.61893	-0.399
Mof_O 	O 	0.16955	0.12824	0.46876	-0.437
Mof_O 	O 	0.28695	0.18251	0.54833	-0.383
Mof_O 	O 	0.27161	0.03356	0.54054	-0.415
Mof_O 	O 	0.58446	0.34237	0.85895	-0.439
Mof_O 	O 	0.74553	0.43007	0.83359	-0.386
Mof_O 	O 	0.60488	0.37658	0.97136	-0.415
Mof_O 	O 	0.85195	0.41909	0.89173	-0.43
Mof_O 	O 	0.81204	0.53145	0.97981	-0.379
Mof_O 	O 	0.66393	0.51589	0.88107	-0.4
Mof_O 	O 	0.26655	0.37176	0.03124	-0.437
Mof_O 	O 	0.51779	0.31749	0.95167	-0.383
Mof_O 	O 	0.34571	0.46644	0.95946	-0.415
Mof_O 	O 	0.92683	0.35895	0.65763	-0.439
Mof_O 	O 	0.1756	0.33359	0.56993	-0.386
Mof_O 	O 	0.98146	0.47136	0.62342	-0.415
Mof_O 	O 	0.27104	0.39173	0.58091	-0.43
Mof_O 	O 	0.34349	0.47981	0.46855	-0.379
Mof_O 	O 	0.17982	0.38107	0.48411	-0.399
Mof_O 	O 	0.63831	0.53124	0.62824	-0.437
Mof_O 	O 	0.83528	0.45167	0.68251	-0.383
Mof_O 	O 	0.81215	0.45946	0.53356	-0.415
Mof_O 	O 	0.44341	0.14105	0.84237	-0.439
Mof_O 	O 	0.57912	0.16641	0.93007	-0.386
Mof_O 	O 	0.57624	0.02864	0.87658	-0.415
Mof_O 	O 	0.74368	0.10827	0.91909	-0.43
Mof_O 	O 	0.79185	0.02019	0.03145	-0.377
Mof_O 	O 	0.545	0.11893	0.01589	-0.399
Mof_O 	O 	0.29779	0.96876	0.87176	-0.436
Mof_O 	O 	0.46946	0.04833	0.81749	-0.383
Mof_O 	O 	0.30517	0.04054	0.96644	-0.416
Mof_O 	O 	0.71422	0.84237	0.35895	-0.439
Mof_O 	O 	0.49081	0.93007	0.33359	-0.386
Mof_O 	O 	0.54718	0.87658	0.47136	-0.415
Mof_O 	O 	0.33723	0.91909	0.39173	-0.43
Mof_O 	O 	0.1767	0.03145	0.47981	-0.379
Mof_O 	O 	0.43911	0.01589	0.38107	-0.399
Mof_O 	O 	0.83045	0.87176	0.53124	-0.437
Mof_O 	O 	0.71305	0.81749	0.45167	-0.383
Mof_O 	O 	0.72839	0.96644	0.45946	-0.415
Mof_O 	O 	0.41554	0.65763	0.14105	-0.439
Mof_O 	O 	0.25447	0.56993	0.16641	-0.386
Mof_O 	O 	0.39512	0.62342	0.02864	-0.415
Mof_O 	O 	0.14805	0.58091	0.10827	-0.43
Mof_O 	O 	0.18796	0.46855	0.02019	-0.379
Mof_O 	O 	0.33607	0.48411	0.11893	-0.4
Mof_O 	O 	0.73345	0.62824	0.96876	-0.437
Mof_O 	O 	0.48221	0.68251	0.04833	-0.383
Mof_O 	O 	0.65429	0.53356	0.04054	-0.415
Mof_O 	O 	0.07317	0.64105	0.34237	-0.439
Mof_O 	O 	0.8244	0.66641	0.43007	-0.386
Mof_O 	O 	0.01854	0.52864	0.37658	-0.415
Mof_O 	O 	0.72896	0.60827	0.41909	-0.43
Mof_O 	O 	0.65651	0.52019	0.53145	-0.379
Mof_O 	O 	0.82018	0.61893	0.51589	-0.399
Mof_O 	O 	0.36169	0.46876	0.37176	-0.437
Mof_O 	O 	0.16472	0.54833	0.31749	-0.383
Mof_O 	O 	0.18785	0.54054	0.46644	-0.415
Mof_O 	O 	0.55659	0.85895	0.15763	-0.439
Mof_O 	O 	0.42088	0.83359	0.06993	-0.386
Mof_O 	O 	0.42376	0.97136	0.12342	-0.415
Mof_O 	O 	0.25632	0.89173	0.08091	-0.43
Mof_O 	O 	0.20815	0.97981	0.96855	-0.377
Mof_O 	O 	0.455	0.88107	0.98411	-0.399
Mof_O 	O 	0.70221	0.03124	0.12824	-0.436
Mof_O 	O 	0.53054	0.95167	0.18251	-0.383
Mof_O 	O 	0.69483	0.95946	0.03356	-0.416
_end
