data_functionalizedCrystal
_audit_creation_method	'EQeq! by Chris Wilmer'
_symmetry_space_group_name_H-M	'P1'
_symmetry_Int_Tables_number	1
_symmetry_cell_setting	triclinic
loop_
_symmetry_equiv_pos_as_xyz
  x,y,z
_cell_length_a	7.316
_cell_length_b	16.533
_cell_length_c	32.023
_cell_angle_alpha	90
_cell_angle_beta	90
_cell_angle_gamma	99.91
loop_
_atom_site_label
_atom_site_type_symbol
_atom_site_fract_x
_atom_site_fract_y
_atom_site_fract_z
_atom_site_charge
Mof_Mn	Mn	0.74763	0.60146	0.07068	0.953
Mof_Mn	Mn	0.27354	0.62514	0.07365	0.916
Mof_Mn	Mn	0.25237	0.89854	0.57068	0.954
Mof_Mn	Mn	0.72646	0.87486	0.57365	0.922
Mof_Mn	Mn	0.25237	0.39854	0.92932	0.942
Mof_Mn	Mn	0.72646	0.37486	0.92635	0.916
Mof_Mn	Mn	0.74763	0.10146	0.42932	0.941
Mof_Mn	Mn	0.27354	0.12514	0.42635	0.911
Mof_Mn	Mn	-2.97956e-17	0.5	-0	0.932
Mof_Mn	Mn	2.31558e-32	0	0.5	0.923
Mof_Mn	Mn	0.5	0.5	-0	0.913
Mof_Mn	Mn	0.5	0	0.5	0.902
Mof_H 	H 	0.1501	0.7679	0.003	-0.06
Mof_H 	H 	0.0581	0.8751	0.9667	0.206
Mof_H 	H 	0.2056	0.7815	0.8581	0.267
Mof_H 	H 	0.3272	0.6812	0.895	0.009
Mof_H 	H 	0.439	0.504	0.0775	0.321
Mof_H 	H 	0.79	0.614	0.9972	0.308
Mof_H 	H 	0.8948	0.0473	0.9082	0.263
Mof_H 	H 	0.045	0.1749	0.9313	-0.052
Mof_H 	H 	0.5342	0.0947	0.9279	-0.037
Mof_H 	H 	0.3829	0.9655	0.9073	0.294
Mof_H 	H 	0.226	0.3897	0.0989	-0.021
Mof_H 	H 	0.398	0.3424	0.1518	0.235
Mof_H 	H 	0.1041	0.4448	0.2379	0.239
Mof_H 	H 	0.9261	0.4881	0.1851	0.062
Mof_H 	H 	0.0623	0.2682	0.2362	0.225
Mof_H 	H 	0.8781	0.199	0.2891	0.078
Mof_H 	H 	0.2603	0.2972	0.3745	-0.003
Mof_H 	H 	0.436	0.3704	0.3221	0.223
Mof_H 	H 	0.8499	0.7321	0.503	-0.016
Mof_H 	H 	0.9419	0.6249	0.4667	0.186
Mof_H 	H 	0.7944	0.7185	0.3581	0.258
Mof_H 	H 	0.6728	0.8188	0.395	0.023
Mof_H 	H 	0.561	0.996	0.5775	0.332
Mof_H 	H 	0.21	0.886	0.4972	0.276
Mof_H 	H 	0.1052	0.4527	0.4082	0.196
Mof_H 	H 	0.955	0.3251	0.4313	-0.005
Mof_H 	H 	0.4658	0.4053	0.4279	0.006
Mof_H 	H 	0.6171	0.5345	0.4073	0.216
Mof_H 	H 	0.774	0.1103	0.5989	-0.015
Mof_H 	H 	0.602	0.1576	0.6518	0.232
Mof_H 	H 	0.8959	0.0552	0.7379	0.244
Mof_H 	H 	0.0739	0.0119	0.6851	0.034
Mof_H 	H 	0.9377	0.2318	0.7362	0.2
Mof_H 	H 	0.1219	0.301	0.7891	0.118
Mof_H 	H 	0.7397	0.2028	0.8745	0.024
Mof_H 	H 	0.564	0.1296	0.8221	0.201
Mof_H 	H 	0.8499	0.2321	0.997	0.023
Mof_H 	H 	0.9419	0.1249	0.0333	0.16
Mof_H 	H 	0.7944	0.2185	0.1419	0.246
Mof_H 	H 	0.6728	0.3188	0.105	0.033
Mof_H 	H 	0.561	0.496	0.9225	0.32
Mof_H 	H 	0.21	0.386	0.0028	0.253
Mof_H 	H 	0.1052	0.9527	0.0918	0.161
Mof_H 	H 	0.955	0.8251	0.0687	0.024
Mof_H 	H 	0.4658	0.9053	0.0721	0.045
Mof_H 	H 	0.6171	0.0345	0.0927	0.14
Mof_H 	H 	0.774	0.6103	0.9011	-0.013
Mof_H 	H 	0.602	0.6576	0.8482	0.234
Mof_H 	H 	0.8959	0.5552	0.7621	0.25
Mof_H 	H 	0.0739	0.5119	0.8149	0.034
Mof_H 	H 	0.9377	0.7318	0.7638	0.198
Mof_H 	H 	0.1219	0.801	0.7109	0.125
Mof_H 	H 	0.7397	0.7028	0.6255	0.025
Mof_H 	H 	0.564	0.6296	0.6779	0.203
Mof_H 	H 	0.1501	0.2679	0.497	-0.021
Mof_H 	H 	0.0581	0.3751	0.5333	0.182
Mof_H 	H 	0.2056	0.2815	0.6419	0.257
Mof_H 	H 	0.3272	0.1812	0.605	0.02
Mof_H 	H 	0.439	0.004	0.4225	0.309
Mof_H 	H 	0.79	0.114	0.5028	0.283
Mof_H 	H 	0.8948	0.5473	0.5918	0.238
Mof_H 	H 	0.045	0.6749	0.5687	-0.029
Mof_H 	H 	0.5342	0.5947	0.5721	-0.002
Mof_H 	H 	0.3829	0.4655	0.5927	0.225
Mof_H 	H 	0.226	0.8897	0.4011	-0.018
Mof_H 	H 	0.398	0.8424	0.3482	0.237
Mof_H 	H 	0.1041	0.9448	0.2621	0.243
Mof_H 	H 	0.9261	0.9881	0.3149	0.066
Mof_H 	H 	0.0623	0.7682	0.2638	0.227
Mof_H 	H 	0.8781	0.699	0.2109	0.079
Mof_H 	H 	0.2603	0.7972	0.1255	-0.005
Mof_H 	H 	0.436	0.8704	0.1779	0.227
Mof_C 	C 	0.3063	0.6432	0.97616	0.446
Mof_C 	C 	0.249	0.7136	0.9527	-0.254
Mof_C 	C 	0.1657	0.7716	0.97404	0.275
Mof_C 	C 	0.1064	0.8346	0.9521	-0.345
Mof_C 	C 	0.1175	0.8387	0.9083	0.408
Mof_C 	C 	0.1981	0.78	0.88726	-0.318
Mof_C 	C 	0.268	0.7187	0.90929	0.248
Mof_C 	C 	0.0342	0.908	0.88679	-0.533
Mof_C 	C 	0.071	0.9133	0.83883	0.942
Mof_C 	C 	0.8192	0.8882	0.89312	0.97
Mof_C 	C 	0.122	0.9933	0.90482	0.511
Mof_C 	C 	0.0233	0.0565	0.91225	-0.44
Mof_C 	C 	0.1135	0.1334	0.92571	0.297
Mof_C 	C 	0.3068	0.1486	0.93082	-0.27
Mof_C 	C 	0.4056	0.0853	0.924	0.317
Mof_C 	C 	0.3151	0.0079	0.91139	-0.456
Mof_C 	C 	0.4015	0.2354	0.94126	0.439
Mof_C 	C 	0.9603	0.4825	0.10266	0.392
Mof_C 	C 	0.0616	0.4457	0.13645	-0.212
Mof_C 	C 	0.2018	0.4008	0.12677	0.197
Mof_C 	C 	0.3052	0.3726	0.15847	-0.273
Mof_C 	C 	0.2709	0.3894	0.20034	0.373
Mof_C 	C 	0.1283	0.4334	0.20998	-0.268
Mof_C 	C 	0.023	0.4603	0.17833	0.204
Mof_C 	C 	0.3912	0.3659	0.23679	-0.468
Mof_C 	C 	0.5111	0.3008	0.2239	0.939
Mof_C 	C 	0.5244	0.4462	0.2501	0.949
Mof_C 	C 	0.2691	0.3269	0.27358	0.361
Mof_C 	C 	0.1013	0.2746	0.26404	-0.23
Mof_C 	C 	0.9917	0.232	0.29565	0.184
Mof_C 	C 	0.0535	0.2392	0.33702	-0.171
Mof_C 	C 	0.22	0.2915	0.34677	0.176
Mof_C 	C 	0.3258	0.3352	0.3153	-0.245
Mof_C 	C 	0.9435	0.1894	0.3706	0.371
Mof_C 	C 	0.6937	0.8568	0.47616	0.409
Mof_C 	C 	0.751	0.7864	0.4527	-0.211
Mof_C 	C 	0.8343	0.7284	0.47404	0.2
Mof_C 	C 	0.8936	0.6654	0.4521	-0.289
Mof_C 	C 	0.8825	0.6613	0.4083	0.371
Mof_C 	C 	0.8019	0.72	0.38726	-0.281
Mof_C 	C 	0.732	0.7813	0.40929	0.215
Mof_C 	C 	0.9658	0.592	0.38679	-0.467
Mof_C 	C 	0.929	0.5867	0.33883	0.946
Mof_C 	C 	0.1808	0.6118	0.39312	0.939
Mof_C 	C 	0.878	0.5067	0.40482	0.358
Mof_C 	C 	0.9767	0.4435	0.41225	-0.261
Mof_C 	C 	0.8865	0.3666	0.42571	0.183
Mof_C 	C 	0.6932	0.3514	0.43082	-0.187
Mof_C 	C 	0.5944	0.4147	0.424	0.2
Mof_C 	C 	0.6849	0.4921	0.41139	-0.275
Mof_C 	C 	0.5985	0.2646	0.44126	0.409
Mof_C 	C 	0.0397	0.0175	0.60266	0.313
Mof_C 	C 	0.9384	0.0543	0.63645	-0.187
Mof_C 	C 	0.7982	0.0992	0.62677	0.179
Mof_C 	C 	0.6948	0.1274	0.65847	-0.265
Mof_C 	C 	0.7291	0.1106	0.70034	0.37
Mof_C 	C 	0.8717	0.0666	0.70998	-0.279
Mof_C 	C 	0.977	0.0397	0.67833	0.231
Mof_C 	C 	0.6088	0.1341	0.73679	-0.455
Mof_C 	C 	0.4889	0.1992	0.7239	0.936
Mof_C 	C 	0.4756	0.0538	0.7501	0.946
Mof_C 	C 	0.7309	0.1731	0.77358	0.314
Mof_C 	C 	0.8987	0.2254	0.76404	-0.138
Mof_C 	C 	0.0083	0.268	0.79565	0.062
Mof_C 	C 	0.9465	0.2608	0.83702	-0.066
Mof_C 	C 	0.78	0.2085	0.84677	0.107
Mof_C 	C 	0.6742	0.1648	0.8153	-0.188
Mof_C 	C 	0.0565	0.3106	0.8706	0.3
Mof_C 	C 	0.6937	0.3568	0.02384	0.373
Mof_C 	C 	0.751	0.2864	0.0473	-0.173
Mof_C 	C 	0.8343	0.2284	0.02596	0.123
Mof_C 	C 	0.8936	0.1654	0.0479	-0.239
Mof_C 	C 	0.8825	0.1613	0.0917	0.334
Mof_C 	C 	0.8019	0.22	0.11274	-0.248
Mof_C 	C 	0.732	0.2813	0.09071	0.181
Mof_C 	C 	0.9658	0.092	0.11321	-0.424
Mof_C 	C 	0.929	0.0867	0.16117	0.934
Mof_C 	C 	0.1808	0.1118	0.10688	0.929
Mof_C 	C 	0.878	0.0067	0.09518	0.222
Mof_C 	C 	0.9767	0.9435	0.08775	-0.137
Mof_C 	C 	0.8865	0.8666	0.07429	0.097
Mof_C 	C 	0.6932	0.8514	0.06918	-0.121
Mof_C 	C 	0.5944	0.9147	0.076	0.093
Mof_C 	C 	0.6849	0.9921	0.08861	-0.101
Mof_C 	C 	0.5985	0.7646	0.05874	0.386
Mof_C 	C 	0.0397	0.5175	0.89734	0.343
Mof_C 	C 	0.9384	0.5543	0.86355	-0.192
Mof_C 	C 	0.7982	0.5992	0.87323	0.189
Mof_C 	C 	0.6948	0.6274	0.84153	-0.268
Mof_C 	C 	0.7291	0.6106	0.79966	0.374
Mof_C 	C 	0.8717	0.5666	0.79002	-0.283
Mof_C 	C 	0.977	0.5397	0.82167	0.244
Mof_C 	C 	0.6088	0.6341	0.76321	-0.454
Mof_C 	C 	0.4889	0.6992	0.7761	0.936
Mof_C 	C 	0.4756	0.5538	0.7499	0.945
Mof_C 	C 	0.7309	0.6731	0.72642	0.312
Mof_C 	C 	0.8987	0.7254	0.73596	-0.13
Mof_C 	C 	0.0083	0.768	0.70435	0.054
Mof_C 	C 	0.9465	0.7608	0.66298	-0.056
Mof_C 	C 	0.78	0.7085	0.65323	0.104
Mof_C 	C 	0.6742	0.6648	0.6847	-0.183
Mof_C 	C 	0.0565	0.8106	0.6294	0.297
Mof_C 	C 	0.3063	0.1432	0.52384	0.41
Mof_C 	C 	0.249	0.2136	0.5473	-0.218
Mof_C 	C 	0.1657	0.2716	0.52596	0.201
Mof_C 	C 	0.1064	0.3346	0.5479	-0.297
Mof_C 	C 	0.1175	0.3387	0.5917	0.374
Mof_C 	C 	0.1981	0.28	0.61274	-0.287
Mof_C 	C 	0.268	0.2187	0.59071	0.216
Mof_C 	C 	0.0342	0.408	0.61321	-0.493
Mof_C 	C 	0.071	0.4133	0.66117	0.934
Mof_C 	C 	0.8192	0.3882	0.60688	0.959
Mof_C 	C 	0.122	0.4933	0.59518	0.392
Mof_C 	C 	0.0233	0.5565	0.58775	-0.339
Mof_C 	C 	0.1135	0.6334	0.57429	0.226
Mof_C 	C 	0.3068	0.6486	0.56918	-0.213
Mof_C 	C 	0.4056	0.5853	0.576	0.224
Mof_C 	C 	0.3151	0.5079	0.58861	-0.301
Mof_C 	C 	0.4015	0.7354	0.55874	0.419
Mof_C 	C 	0.9603	0.9825	0.39734	0.424
Mof_C 	C 	0.0616	0.9457	0.36355	-0.219
Mof_C 	C 	0.2018	0.9008	0.37323	0.205
Mof_C 	C 	0.3052	0.8726	0.34153	-0.275
Mof_C 	C 	0.2709	0.8894	0.29966	0.376
Mof_C 	C 	0.1283	0.9334	0.29002	-0.269
Mof_C 	C 	0.023	0.9603	0.32167	0.209
Mof_C 	C 	0.3912	0.8659	0.26321	-0.469
Mof_C 	C 	0.5111	0.8008	0.2761	0.939
Mof_C 	C 	0.5244	0.9462	0.2499	0.948
Mof_C 	C 	0.2691	0.8269	0.22642	0.366
Mof_C 	C 	0.1013	0.7746	0.23596	-0.235
Mof_C 	C 	0.9917	0.732	0.20435	0.194
Mof_C 	C 	0.0535	0.7392	0.16298	-0.176
Mof_C 	C 	0.22	0.7915	0.15323	0.183
Mof_C 	C 	0.3258	0.8352	0.1847	-0.248
Mof_C 	C 	0.9435	0.6894	0.1294	0.378
Mof_O 	O 	0.4396	0.61139	0.96465	-0.382
Mof_O 	O 	0.2005	0.61656	0.0076	-0.494
Mof_O 	O 	0.3024	0.28464	0.95466	-0.398
Mof_O 	O 	0.5763	0.25272	0.93457	-0.38
Mof_O 	O 	0.0524	0.50276	0.06866	-0.46
Mof_O 	O 	0.7996	0.49643	0.10888	-0.349
Mof_O 	O 	0.7705	0.1678	0.36616	-0.308
Mof_O 	O 	0.0263	0.16913	0.40313	-0.441
Mof_O 	O 	0.4672	0.54652	0.06413	-0.709
Mof_O 	O 	0.7808	0.5656	0.00767	-0.692
Mof_O 	O 	0.5604	0.88861	0.46465	-0.368
Mof_O 	O 	0.7995	0.88344	0.5076	-0.46
Mof_O 	O 	0.6976	0.21536	0.45466	-0.392
Mof_O 	O 	0.4237	0.24728	0.43457	-0.374
Mof_O 	O 	0.9476	0.99724	0.56866	-0.399
Mof_O 	O 	0.2004	0.00357	0.60888	-0.346
Mof_O 	O 	0.2295	0.3322	0.86616	-0.288
Mof_O 	O 	0.9737	0.33087	0.90313	-0.403
Mof_O 	O 	0.5328	0.95348	0.56413	-0.702
Mof_O 	O 	0.2192	0.9344	0.50767	-0.651
Mof_O 	O 	0.5604	0.38861	0.03535	-0.373
Mof_O 	O 	0.7995	0.38344	0.9924	-0.441
Mof_O 	O 	0.6976	0.71536	0.04534	-0.393
Mof_O 	O 	0.4237	0.74728	0.06543	-0.37
Mof_O 	O 	0.9476	0.49724	0.93134	-0.427
Mof_O 	O 	0.2004	0.50357	0.89112	-0.34
Mof_O 	O 	0.2295	0.8322	0.63384	-0.282
Mof_O 	O 	0.9737	0.83087	0.59687	-0.4
Mof_O 	O 	0.5328	0.45348	0.93587	-0.702
Mof_O 	O 	0.2192	0.4344	0.99233	-0.636
Mof_O 	O 	0.4396	0.11139	0.53535	-0.383
Mof_O 	O 	0.2005	0.11656	0.4924	-0.472
Mof_O 	O 	0.3024	0.78464	0.54534	-0.399
Mof_O 	O 	0.5763	0.75272	0.56543	-0.377
Mof_O 	O 	0.0524	0.00276	0.43134	-0.485
Mof_O 	O 	0.7996	0.99643	0.39112	-0.342
Mof_O 	O 	0.7705	0.6678	0.13384	-0.304
Mof_O 	O 	0.0263	0.66913	0.09687	-0.443
Mof_O 	O 	0.4672	0.04652	0.43587	-0.705
Mof_O 	O 	0.7808	0.0656	0.49233	-0.671
Mof_F 	F 	0.9822	0.84614	0.81848	-0.41
Mof_F 	F 	0.2537	0.91898	0.83067	-0.416
Mof_F 	F 	0.0168	0.97878	0.82181	-0.418
Mof_F 	F 	0.7536	0.80833	0.88484	-0.453
Mof_F 	F 	0.7251	0.93238	0.86844	-0.422
Mof_F 	F 	0.7709	0.90163	0.93257	-0.51
Mof_F 	F 	0.6495	0.33134	0.19708	-0.465
Mof_F 	F 	0.4083	0.23605	0.20534	-0.424
Mof_F 	F 	0.5936	0.27209	0.25698	-0.447
Mof_F 	F 	0.6666	0.43203	0.27355	-0.427
Mof_F 	F 	0.4317	0.4957	0.27166	-0.422
Mof_F 	F 	0.5972	0.48886	0.21648	-0.455
Mof_F 	F 	0.0178	0.65386	0.31848	-0.43
Mof_F 	F 	0.7463	0.58102	0.33067	-0.42
Mof_F 	F 	0.9832	0.52122	0.32181	-0.419
Mof_F 	F 	0.2464	0.69167	0.38484	-0.454
Mof_F 	F 	0.2749	0.56762	0.36844	-0.426
Mof_F 	F 	0.2291	0.59837	0.43257	-0.517
Mof_F 	F 	0.3505	0.16866	0.69708	-0.468
Mof_F 	F 	0.5917	0.26395	0.70534	-0.421
Mof_F 	F 	0.4064	0.22791	0.75698	-0.447
Mof_F 	F 	0.3334	0.06797	0.77355	-0.433
Mof_F 	F 	0.5683	0.0043	0.77166	-0.429
Mof_F 	F 	0.4028	0.01114	0.71648	-0.464
Mof_F 	F 	0.0178	0.15386	0.18152	-0.428
Mof_F 	F 	0.7463	0.08102	0.16933	-0.425
Mof_F 	F 	0.9832	0.02122	0.17819	-0.429
Mof_F 	F 	0.2464	0.19167	0.11516	-0.453
Mof_F 	F 	0.2749	0.06762	0.13156	-0.429
Mof_F 	F 	0.2291	0.09837	0.06743	-0.521
Mof_F 	F 	0.3505	0.66866	0.80292	-0.468
Mof_F 	F 	0.5917	0.76395	0.79466	-0.419
Mof_F 	F 	0.4064	0.72791	0.74302	-0.445
Mof_F 	F 	0.3334	0.56797	0.72645	-0.428
Mof_F 	F 	0.5683	0.5043	0.72834	-0.42
Mof_F 	F 	0.4028	0.51114	0.78352	-0.457
Mof_F 	F 	0.9822	0.34614	0.68152	-0.412
Mof_F 	F 	0.2537	0.41898	0.66933	-0.42
Mof_F 	F 	0.0168	0.47878	0.67819	-0.427
Mof_F 	F 	0.7536	0.30833	0.61516	-0.453
Mof_F 	F 	0.7251	0.43238	0.63156	-0.426
Mof_F 	F 	0.7709	0.40163	0.56743	-0.515
Mof_F 	F 	0.6495	0.83134	0.30292	-0.464
Mof_F 	F 	0.4083	0.73605	0.29466	-0.422
Mof_F 	F 	0.5936	0.77209	0.24302	-0.445
Mof_F 	F 	0.6666	0.93203	0.22645	-0.421
Mof_F 	F 	0.4317	0.9957	0.22834	-0.412
Mof_F 	F 	0.5972	0.98886	0.28352	-0.448
_end
