data_functionalizedCrystal
_audit_creation_method	'EQeq! by Chris Wilmer'
_symmetry_space_group_name_H-M	'P1'
_symmetry_Int_Tables_number	1
_symmetry_cell_setting	triclinic
loop_
_symmetry_equiv_pos_as_xyz
  x,y,z
_cell_length_a	13.178
_cell_length_b	13.179
_cell_length_c	13.8779
_cell_angle_alpha	118.348
_cell_angle_beta	118.345
_cell_angle_gamma	89.9999
loop_
_atom_site_label
_atom_site_type_symbol
_atom_site_fract_x
_atom_site_fract_y
_atom_site_fract_z
_atom_site_charge
Mof_Cu	Cu	0.91059	0.71542	0.82118	0.915
Mof_Cu	Cu	0.91059	0.10576	0.82118	0.918
Mof_Cu	Cu	0.10571	0.91055	0.8211	0.92
Mof_Cu	Cu	0.71539	0.91055	0.8211	0.916
Mof_H 	H 	0.7643	0.2925	0.2672	0.074
Mof_H 	H 	0.9761	0.5024	0.2682	0.048
Mof_H 	H 	0.8354	0.4283	0.4764	0.028
Mof_H 	H 	0.0533	0.6403	0.4782	0.079
Mof_H 	H 	0.5029	0.9747	0.2672	0.049
Mof_H 	H 	0.2921	0.7658	0.2682	0.074
Mof_H 	H 	0.641	0.0481	0.4764	0.079
Mof_H 	H 	0.4249	0.8379	0.4782	0.028
Mof_H 	H 	0.5029	0.2925	0.2672	0.094
Mof_H 	H 	0.2921	0.5024	0.2682	0.094
Mof_H 	H 	0.641	0.4283	0.4764	0.006
Mof_H 	H 	0.4249	0.6403	0.4782	0.006
Mof_H 	H 	0.7643	0.9747	0.2672	0.03
Mof_H 	H 	0.9761	0.7658	0.2682	0.03
Mof_H 	H 	0.8354	0.0481	0.4764	0.098
Mof_H 	H 	0.0533	0.8379	0.4782	0.098
Mof_C 	C 	0.8704	0.2663	0.1372	0.097
Mof_C 	C 	0.9883	0.6455	0.6334	0.41
Mof_C 	C 	0.8894	0.361	0.2512	0.017
Mof_C 	C 	0.8334	0.3583	0.3144	-0.091
Mof_C 	C 	0.9575	0.4811	0.3156	-0.056
Mof_C 	C 	0.8716	0.4434	0.4376	0.056
Mof_C 	C 	0.9973	0.5663	0.4386	-0.027
Mof_C 	C 	0.9606	0.5524	0.513	-0.142
Mof_C 	C 	0.2668	0.8709	0.1372	0.097
Mof_C 	C 	0.6451	0.9879	0.6334	0.41
Mof_C 	C 	0.3618	0.8902	0.2512	0.017
Mof_C 	C 	0.481	0.9561	0.3144	-0.058
Mof_C 	C 	0.3581	0.8345	0.3156	-0.09
Mof_C 	C 	0.566	0.9942	0.4376	-0.024
Mof_C 	C 	0.4413	0.8723	0.4386	0.054
Mof_C 	C 	0.5524	0.9606	0.513	-0.142
Mof_C 	C 	0.2668	0.2663	0.1372	0.084
Mof_C 	C 	0.6451	0.6455	0.6334	0.505
Mof_C 	C 	0.3618	0.361	0.2512	0.079
Mof_C 	C 	0.481	0.3583	0.3144	-0.149
Mof_C 	C 	0.3581	0.4811	0.3156	-0.147
Mof_C 	C 	0.566	0.4434	0.4376	0.128
Mof_C 	C 	0.4413	0.5663	0.4386	0.124
Mof_C 	C 	0.5524	0.5524	0.513	-0.229
Mof_C 	C 	0.8704	0.8709	0.1372	0.111
Mof_C 	C 	0.9883	0.9879	0.6334	0.321
Mof_C 	C 	0.8894	0.8902	0.2512	-0.041
Mof_C 	C 	0.8334	0.9561	0.3144	-0.004
Mof_C 	C 	0.9575	0.8345	0.3156	-0.002
Mof_C 	C 	0.8716	0.9942	0.4376	-0.09
Mof_C 	C 	0.9973	0.8723	0.4386	-0.091
Mof_C 	C 	0.9606	0.9606	0.513	-0.06
Mof_N 	N 	0.7929	0.0927	0.9604	-0.127
Mof_N 	N 	0.868	0.1653	0.9598	-0.141
Mof_N 	N 	0.79023	0.15263	0.06106	-0.074
Mof_N 	N 	0.90941	0.26991	0.06102	-0.086
Mof_N 	N 	0.1675	0.8677	0.9604	-0.139
Mof_N 	N 	0.0918	0.7945	0.9598	-0.129
Mof_N 	N 	0.27083	0.90843	0.06106	-0.085
Mof_N 	N 	0.15161	0.79111	0.06102	-0.074
Mof_N 	N 	0.1675	0.0927	0.9604	-0.12
Mof_N 	N 	0.0918	0.1653	0.9598	-0.122
Mof_N 	N 	0.27083	0.15263	0.06106	-0.07
Mof_N 	N 	0.15161	0.26991	0.06102	-0.07
Mof_N 	N 	0.7929	0.8677	0.9604	-0.146
Mof_N 	N 	0.868	0.7945	0.9598	-0.149
Mof_N 	N 	0.79023	0.90843	0.06106	-0.088
Mof_N 	N 	0.90941	0.79111	0.06102	-0.088
Mof_Cl	Cl	0.90222	0.90222	0.80444	-0.686
Mof_O 	O 	0.9387	0.6302	0.6832	-0.423
Mof_O 	O 	0.0527	0.7458	0.6842	-0.39
Mof_O 	O 	0.7445	0.053	0.6832	-0.388
Mof_O 	O 	0.6315	0.9384	0.6842	-0.425
Mof_O 	O 	0.7445	0.6302	0.6832	-0.44
Mof_O 	O 	0.6315	0.7458	0.6842	-0.443
Mof_O 	O 	0.9387	0.053	0.6832	-0.373
Mof_O 	O 	0.0527	0.9384	0.6842	-0.375
_end
