data_functionalizedCrystal
_audit_creation_method	'EQeq! by Chris Wilmer'
_symmetry_space_group_name_H-M	'P1'
_symmetry_Int_Tables_number	1
_symmetry_cell_setting	triclinic
loop_
_symmetry_equiv_pos_as_xyz
  x,y,z
_cell_length_a	41.4734
_cell_length_b	41.4734
_cell_length_c	41.4734
_cell_angle_alpha	90
_cell_angle_beta	90
_cell_angle_gamma	90
loop_
_atom_site_label
_atom_site_type_symbol
_atom_site_fract_x
_atom_site_fract_y
_atom_site_fract_z
_atom_site_charge
Mof_C 	C 	0.37155	0.3117	0.45596	0.354
Mof_C 	C 	0.38863	0.29513	0.42952	-0.06
Mof_C 	C 	0.37389	0.26839	0.41504	-0.067
Mof_H 	H 	0.3543	0.26	0.4234	0.074
Mof_O 	O 	0.38352	0.3371	0.46645	-0.404
Mof_O 	O 	0.34569	0.29914	0.46662	-0.393
Mof_H 	H 	0.3513	0.2272	0.3766	0.114
Mof_C 	C 	0.87155	0.8117	0.95596	0.353
Mof_C 	C 	0.88863	0.79513	0.92952	-0.058
Mof_C 	C 	0.87389	0.76839	0.91504	-0.067
Mof_H 	H 	0.8543	0.76	0.9234	0.074
Mof_O 	O 	0.88352	0.8371	0.96645	-0.402
Mof_O 	O 	0.84569	0.79914	0.96662	-0.392
Mof_H 	H 	0.8513	0.7272	0.8766	0.113
Mof_C 	C 	0.62845	0.6883	0.45596	0.353
Mof_C 	C 	0.61137	0.70487	0.42952	-0.061
Mof_C 	C 	0.62611	0.73161	0.41504	-0.068
Mof_H 	H 	0.6457	0.74	0.4234	0.073
Mof_O 	O 	0.61648	0.6629	0.46645	-0.405
Mof_O 	O 	0.65431	0.70086	0.46662	-0.394
Mof_H 	H 	0.6487	0.7728	0.3766	0.113
Mof_C 	C 	0.12845	0.1883	0.95596	0.353
Mof_C 	C 	0.11137	0.20487	0.92952	-0.06
Mof_C 	C 	0.12611	0.23161	0.91504	-0.068
Mof_H 	H 	0.1457	0.24	0.9234	0.073
Mof_O 	O 	0.11648	0.1629	0.96645	-0.404
Mof_O 	O 	0.15431	0.20086	0.96662	-0.392
Mof_H 	H 	0.1487	0.2728	0.8766	0.113
Mof_C 	C 	0.62845	0.3117	0.54404	0.353
Mof_C 	C 	0.61137	0.29513	0.57048	-0.061
Mof_C 	C 	0.62611	0.26839	0.58496	-0.068
Mof_H 	H 	0.6457	0.26	0.5766	0.073
Mof_O 	O 	0.61648	0.3371	0.53355	-0.405
Mof_O 	O 	0.65431	0.29914	0.53338	-0.394
Mof_H 	H 	0.6487	0.2272	0.6234	0.113
Mof_C 	C 	0.12845	0.8117	0.04404	0.353
Mof_C 	C 	0.11137	0.79513	0.07048	-0.062
Mof_C 	C 	0.12611	0.76839	0.08496	-0.067
Mof_H 	H 	0.1457	0.76	0.0766	0.072
Mof_O 	O 	0.11648	0.8371	0.03355	-0.406
Mof_O 	O 	0.15431	0.79914	0.03338	-0.394
Mof_H 	H 	0.1487	0.7272	0.1234	0.113
Mof_C 	C 	0.37155	0.6883	0.54404	0.353
Mof_C 	C 	0.38863	0.70487	0.57048	-0.061
Mof_C 	C 	0.37389	0.73161	0.58496	-0.068
Mof_H 	H 	0.3543	0.74	0.5766	0.073
Mof_O 	O 	0.38352	0.6629	0.53355	-0.405
Mof_O 	O 	0.34569	0.70086	0.53338	-0.394
Mof_H 	H 	0.3513	0.7728	0.6234	0.113
Mof_C 	C 	0.87155	0.1883	0.04404	0.353
Mof_C 	C 	0.88863	0.20487	0.07048	-0.061
Mof_C 	C 	0.87389	0.23161	0.08496	-0.068
Mof_H 	H 	0.8543	0.24	0.0766	0.073
Mof_O 	O 	0.88352	0.1629	0.03355	-0.406
Mof_O 	O 	0.84569	0.20086	0.03338	-0.394
Mof_H 	H 	0.8513	0.2728	0.1234	0.113
Mof_C 	C 	0.45596	0.37155	0.3117	0.353
Mof_C 	C 	0.42952	0.38863	0.29513	-0.061
Mof_C 	C 	0.41504	0.37389	0.26839	-0.068
Mof_H 	H 	0.4234	0.3543	0.26	0.073
Mof_O 	O 	0.46645	0.38352	0.3371	-0.405
Mof_O 	O 	0.46662	0.34569	0.29914	-0.394
Mof_H 	H 	0.3766	0.3513	0.2272	0.113
Mof_C 	C 	0.95596	0.87155	0.8117	0.352
Mof_C 	C 	0.92952	0.88863	0.79513	-0.059
Mof_C 	C 	0.91504	0.87389	0.76839	-0.068
Mof_H 	H 	0.9234	0.8543	0.76	0.073
Mof_O 	O 	0.96645	0.88352	0.8371	-0.403
Mof_O 	O 	0.96662	0.84569	0.79914	-0.392
Mof_H 	H 	0.8766	0.8513	0.7272	0.113
Mof_C 	C 	0.45596	0.62845	0.6883	0.353
Mof_C 	C 	0.42952	0.61137	0.70487	-0.061
Mof_C 	C 	0.41504	0.62611	0.73161	-0.068
Mof_H 	H 	0.4234	0.6457	0.74	0.073
Mof_O 	O 	0.46645	0.61648	0.6629	-0.405
Mof_O 	O 	0.46662	0.65431	0.70086	-0.394
Mof_H 	H 	0.3766	0.6487	0.7728	0.113
Mof_C 	C 	0.95596	0.12845	0.1883	0.353
Mof_C 	C 	0.92952	0.11137	0.20487	-0.06
Mof_C 	C 	0.91504	0.12611	0.23161	-0.068
Mof_H 	H 	0.9234	0.1457	0.24	0.073
Mof_O 	O 	0.96645	0.11648	0.1629	-0.404
Mof_O 	O 	0.96662	0.15431	0.20086	-0.392
Mof_H 	H 	0.8766	0.1487	0.2728	0.113
Mof_C 	C 	0.54404	0.62845	0.3117	0.353
Mof_C 	C 	0.57048	0.61137	0.29513	-0.061
Mof_C 	C 	0.58496	0.62611	0.26839	-0.068
Mof_H 	H 	0.5766	0.6457	0.26	0.073
Mof_O 	O 	0.53355	0.61648	0.3371	-0.405
Mof_O 	O 	0.53338	0.65431	0.29914	-0.394
Mof_H 	H 	0.6234	0.6487	0.2272	0.113
Mof_C 	C 	0.04404	0.12845	0.8117	0.353
Mof_C 	C 	0.07048	0.11137	0.79513	-0.062
Mof_C 	C 	0.08496	0.12611	0.76839	-0.067
Mof_H 	H 	0.0766	0.1457	0.76	0.072
Mof_O 	O 	0.03355	0.11648	0.8371	-0.406
Mof_O 	O 	0.03338	0.15431	0.79914	-0.394
Mof_H 	H 	0.1234	0.1487	0.7272	0.113
Mof_C 	C 	0.54404	0.37155	0.6883	0.353
Mof_C 	C 	0.57048	0.38863	0.70487	-0.061
Mof_C 	C 	0.58496	0.37389	0.73161	-0.068
Mof_H 	H 	0.5766	0.3543	0.74	0.073
Mof_O 	O 	0.53355	0.38352	0.6629	-0.405
Mof_O 	O 	0.53338	0.34569	0.70086	-0.394
Mof_H 	H 	0.6234	0.3513	0.7728	0.113
Mof_C 	C 	0.04404	0.87155	0.1883	0.353
Mof_C 	C 	0.07048	0.88863	0.20487	-0.061
Mof_C 	C 	0.08496	0.87389	0.23161	-0.068
Mof_H 	H 	0.0766	0.8543	0.24	0.073
Mof_O 	O 	0.03355	0.88352	0.1629	-0.406
Mof_O 	O 	0.03338	0.84569	0.20086	-0.394
Mof_H 	H 	0.1234	0.8513	0.2728	0.113
Mof_C 	C 	0.3117	0.45596	0.37155	0.353
Mof_C 	C 	0.29513	0.42952	0.38863	-0.061
Mof_C 	C 	0.26839	0.41504	0.37389	-0.068
Mof_H 	H 	0.26	0.4234	0.3543	0.073
Mof_O 	O 	0.3371	0.46645	0.38352	-0.405
Mof_O 	O 	0.29914	0.46662	0.34569	-0.394
Mof_H 	H 	0.2272	0.3766	0.3513	0.113
Mof_C 	C 	0.8117	0.95596	0.87155	0.352
Mof_C 	C 	0.79513	0.92952	0.88863	-0.059
Mof_C 	C 	0.76839	0.91504	0.87389	-0.068
Mof_H 	H 	0.76	0.9234	0.8543	0.073
Mof_O 	O 	0.8371	0.96645	0.88352	-0.403
Mof_O 	O 	0.79914	0.96662	0.84569	-0.392
Mof_H 	H 	0.7272	0.8766	0.8513	0.113
Mof_C 	C 	0.6883	0.45596	0.62845	0.353
Mof_C 	C 	0.70487	0.42952	0.61137	-0.061
Mof_C 	C 	0.73161	0.41504	0.62611	-0.068
Mof_H 	H 	0.74	0.4234	0.6457	0.073
Mof_O 	O 	0.6629	0.46645	0.61648	-0.405
Mof_O 	O 	0.70086	0.46662	0.65431	-0.394
Mof_H 	H 	0.7728	0.3766	0.6487	0.113
Mof_C 	C 	0.1883	0.95596	0.12845	0.353
Mof_C 	C 	0.20487	0.92952	0.11137	-0.06
Mof_C 	C 	0.23161	0.91504	0.12611	-0.068
Mof_H 	H 	0.24	0.9234	0.1457	0.073
Mof_O 	O 	0.1629	0.96645	0.11648	-0.404
Mof_O 	O 	0.20086	0.96662	0.15431	-0.392
Mof_H 	H 	0.2728	0.8766	0.1487	0.113
Mof_C 	C 	0.3117	0.54404	0.62845	0.353
Mof_C 	C 	0.29513	0.57048	0.61137	-0.061
Mof_C 	C 	0.26839	0.58496	0.62611	-0.068
Mof_H 	H 	0.26	0.5766	0.6457	0.073
Mof_O 	O 	0.3371	0.53355	0.61648	-0.405
Mof_O 	O 	0.29914	0.53338	0.65431	-0.394
Mof_H 	H 	0.2272	0.6234	0.6487	0.113
Mof_C 	C 	0.8117	0.04404	0.12845	0.353
Mof_C 	C 	0.79513	0.07048	0.11137	-0.062
Mof_C 	C 	0.76839	0.08496	0.12611	-0.067
Mof_H 	H 	0.76	0.0766	0.1457	0.072
Mof_O 	O 	0.8371	0.03355	0.11648	-0.406
Mof_O 	O 	0.79914	0.03338	0.15431	-0.394
Mof_H 	H 	0.7272	0.1234	0.1487	0.113
Mof_C 	C 	0.6883	0.54404	0.37155	0.353
Mof_C 	C 	0.70487	0.57048	0.38863	-0.061
Mof_C 	C 	0.73161	0.58496	0.37389	-0.068
Mof_H 	H 	0.74	0.5766	0.3543	0.073
Mof_O 	O 	0.6629	0.53355	0.38352	-0.405
Mof_O 	O 	0.70086	0.53338	0.34569	-0.394
Mof_H 	H 	0.7728	0.6234	0.3513	0.113
Mof_C 	C 	0.1883	0.04404	0.87155	0.353
Mof_C 	C 	0.20487	0.07048	0.88863	-0.061
Mof_C 	C 	0.23161	0.08496	0.87389	-0.068
Mof_H 	H 	0.24	0.0766	0.8543	0.073
Mof_O 	O 	0.1629	0.03355	0.88352	-0.406
Mof_O 	O 	0.20086	0.03338	0.84569	-0.394
Mof_H 	H 	0.2728	0.1234	0.8513	0.113
Mof_C 	C 	0.3117	0.37155	0.54404	0.353
Mof_C 	C 	0.29513	0.38863	0.57048	-0.061
Mof_C 	C 	0.26839	0.37389	0.58496	-0.068
Mof_H 	H 	0.26	0.3543	0.5766	0.073
Mof_O 	O 	0.3371	0.38352	0.53355	-0.405
Mof_O 	O 	0.29914	0.34569	0.53338	-0.394
Mof_H 	H 	0.2272	0.3513	0.6234	0.113
Mof_C 	C 	0.8117	0.87155	0.04404	0.353
Mof_C 	C 	0.79513	0.88863	0.07048	-0.061
Mof_C 	C 	0.76839	0.87389	0.08496	-0.068
Mof_H 	H 	0.76	0.8543	0.0766	0.073
Mof_O 	O 	0.8371	0.88352	0.03355	-0.406
Mof_O 	O 	0.79914	0.84569	0.03338	-0.394
Mof_H 	H 	0.7272	0.8513	0.1234	0.113
Mof_C 	C 	0.6883	0.62845	0.54404	0.353
Mof_C 	C 	0.70487	0.61137	0.57048	-0.061
Mof_C 	C 	0.73161	0.62611	0.58496	-0.068
Mof_H 	H 	0.74	0.6457	0.5766	0.073
Mof_O 	O 	0.6629	0.61648	0.53355	-0.405
Mof_O 	O 	0.70086	0.65431	0.53338	-0.394
Mof_H 	H 	0.7728	0.6487	0.6234	0.113
Mof_C 	C 	0.1883	0.12845	0.04404	0.353
Mof_C 	C 	0.20487	0.11137	0.07048	-0.062
Mof_C 	C 	0.23161	0.12611	0.08496	-0.067
Mof_H 	H 	0.24	0.1457	0.0766	0.072
Mof_O 	O 	0.1629	0.11648	0.03355	-0.407
Mof_O 	O 	0.20086	0.15431	0.03338	-0.394
Mof_H 	H 	0.2728	0.1487	0.1234	0.113
Mof_C 	C 	0.3117	0.62845	0.45596	0.353
Mof_C 	C 	0.29513	0.61137	0.42952	-0.061
Mof_C 	C 	0.26839	0.62611	0.41504	-0.068
Mof_H 	H 	0.26	0.6457	0.4234	0.073
Mof_O 	O 	0.3371	0.61648	0.46645	-0.405
Mof_O 	O 	0.29914	0.65431	0.46662	-0.394
Mof_H 	H 	0.2272	0.6487	0.3766	0.113
Mof_C 	C 	0.8117	0.12845	0.95596	0.353
Mof_C 	C 	0.79513	0.11137	0.92952	-0.06
Mof_C 	C 	0.76839	0.12611	0.91504	-0.068
Mof_H 	H 	0.76	0.1457	0.9234	0.073
Mof_O 	O 	0.8371	0.11648	0.96645	-0.403
Mof_O 	O 	0.79914	0.15431	0.96662	-0.392
Mof_H 	H 	0.7272	0.1487	0.8766	0.113
Mof_C 	C 	0.6883	0.37155	0.45596	0.353
Mof_C 	C 	0.70487	0.38863	0.42952	-0.061
Mof_C 	C 	0.73161	0.37389	0.41504	-0.068
Mof_H 	H 	0.74	0.3543	0.4234	0.073
Mof_O 	O 	0.6629	0.38352	0.46645	-0.405
Mof_O 	O 	0.70086	0.34569	0.46662	-0.394
Mof_H 	H 	0.7728	0.3513	0.3766	0.113
Mof_C 	C 	0.1883	0.87155	0.95596	0.353
Mof_C 	C 	0.20487	0.88863	0.92952	-0.059
Mof_C 	C 	0.23161	0.87389	0.91504	-0.068
Mof_H 	H 	0.24	0.8543	0.9234	0.073
Mof_O 	O 	0.1629	0.88352	0.96645	-0.403
Mof_O 	O 	0.20086	0.84569	0.96662	-0.392
Mof_H 	H 	0.2728	0.8513	0.8766	0.113
Mof_C 	C 	0.37155	0.45596	0.6883	0.353
Mof_C 	C 	0.38863	0.42952	0.70487	-0.061
Mof_C 	C 	0.37389	0.41504	0.73161	-0.068
Mof_H 	H 	0.3543	0.4234	0.74	0.073
Mof_O 	O 	0.38352	0.46645	0.6629	-0.405
Mof_O 	O 	0.34569	0.46662	0.70086	-0.394
Mof_H 	H 	0.3513	0.3766	0.7728	0.113
Mof_C 	C 	0.87155	0.95596	0.1883	0.353
Mof_C 	C 	0.88863	0.92952	0.20487	-0.059
Mof_C 	C 	0.87389	0.91504	0.23161	-0.068
Mof_H 	H 	0.8543	0.9234	0.24	0.073
Mof_O 	O 	0.88352	0.96645	0.1629	-0.403
Mof_O 	O 	0.84569	0.96662	0.20086	-0.392
Mof_H 	H 	0.8513	0.8766	0.2728	0.113
Mof_C 	C 	0.62845	0.45596	0.3117	0.353
Mof_C 	C 	0.61137	0.42952	0.29513	-0.061
Mof_C 	C 	0.62611	0.41504	0.26839	-0.068
Mof_H 	H 	0.6457	0.4234	0.26	0.073
Mof_O 	O 	0.61648	0.46645	0.3371	-0.405
Mof_O 	O 	0.65431	0.46662	0.29914	-0.394
Mof_H 	H 	0.6487	0.3766	0.2272	0.113
Mof_C 	C 	0.12845	0.95596	0.8117	0.353
Mof_C 	C 	0.11137	0.92952	0.79513	-0.06
Mof_C 	C 	0.12611	0.91504	0.76839	-0.068
Mof_H 	H 	0.1457	0.9234	0.76	0.073
Mof_O 	O 	0.11648	0.96645	0.8371	-0.403
Mof_O 	O 	0.15431	0.96662	0.79914	-0.392
Mof_H 	H 	0.1487	0.8766	0.7272	0.113
Mof_C 	C 	0.62845	0.54404	0.6883	0.353
Mof_C 	C 	0.61137	0.57048	0.70487	-0.061
Mof_C 	C 	0.62611	0.58496	0.73161	-0.068
Mof_H 	H 	0.6457	0.5766	0.74	0.073
Mof_O 	O 	0.61648	0.53355	0.6629	-0.405
Mof_O 	O 	0.65431	0.53338	0.70086	-0.394
Mof_H 	H 	0.6487	0.6234	0.7728	0.113
Mof_C 	C 	0.12845	0.04404	0.1883	0.353
Mof_C 	C 	0.11137	0.07048	0.20487	-0.062
Mof_C 	C 	0.12611	0.08496	0.23161	-0.067
Mof_H 	H 	0.1457	0.0766	0.24	0.072
Mof_O 	O 	0.11648	0.03355	0.1629	-0.407
Mof_O 	O 	0.15431	0.03338	0.20086	-0.394
Mof_H 	H 	0.1487	0.1234	0.2728	0.113
Mof_C 	C 	0.37155	0.54404	0.3117	0.353
Mof_C 	C 	0.38863	0.57048	0.29513	-0.061
Mof_C 	C 	0.37389	0.58496	0.26839	-0.068
Mof_H 	H 	0.3543	0.5766	0.26	0.073
Mof_O 	O 	0.38352	0.53355	0.3371	-0.405
Mof_O 	O 	0.34569	0.53338	0.29914	-0.394
Mof_H 	H 	0.3513	0.6234	0.2272	0.113
Mof_C 	C 	0.87155	0.04404	0.8117	0.353
Mof_C 	C 	0.88863	0.07048	0.79513	-0.061
Mof_C 	C 	0.87389	0.08496	0.76839	-0.068
Mof_H 	H 	0.8543	0.0766	0.76	0.073
Mof_O 	O 	0.88352	0.03355	0.8371	-0.406
Mof_O 	O 	0.84569	0.03338	0.79914	-0.394
Mof_H 	H 	0.8513	0.1234	0.7272	0.113
Mof_C 	C 	0.45596	0.3117	0.62845	0.353
Mof_C 	C 	0.42952	0.29513	0.61137	-0.061
Mof_C 	C 	0.41504	0.26839	0.62611	-0.068
Mof_H 	H 	0.4234	0.26	0.6457	0.073
Mof_O 	O 	0.46645	0.3371	0.61648	-0.405
Mof_O 	O 	0.46662	0.29914	0.65431	-0.394
Mof_H 	H 	0.3766	0.2272	0.6487	0.113
Mof_C 	C 	0.95596	0.8117	0.12845	0.353
Mof_C 	C 	0.92952	0.79513	0.11137	-0.06
Mof_C 	C 	0.91504	0.76839	0.12611	-0.068
Mof_H 	H 	0.9234	0.76	0.1457	0.073
Mof_O 	O 	0.96645	0.8371	0.11648	-0.403
Mof_O 	O 	0.96662	0.79914	0.15431	-0.392
Mof_H 	H 	0.8766	0.7272	0.1487	0.113
Mof_C 	C 	0.45596	0.6883	0.37155	0.353
Mof_C 	C 	0.42952	0.70487	0.38863	-0.061
Mof_C 	C 	0.41504	0.73161	0.37389	-0.068
Mof_H 	H 	0.4234	0.74	0.3543	0.073
Mof_O 	O 	0.46645	0.6629	0.38352	-0.405
Mof_O 	O 	0.46662	0.70086	0.34569	-0.394
Mof_H 	H 	0.3766	0.7728	0.3513	0.113
Mof_C 	C 	0.95596	0.1883	0.87155	0.353
Mof_C 	C 	0.92952	0.20487	0.88863	-0.059
Mof_C 	C 	0.91504	0.23161	0.87389	-0.068
Mof_H 	H 	0.9234	0.24	0.8543	0.073
Mof_O 	O 	0.96645	0.1629	0.88352	-0.403
Mof_O 	O 	0.96662	0.20086	0.84569	-0.392
Mof_H 	H 	0.8766	0.2728	0.8513	0.113
Mof_C 	C 	0.54404	0.3117	0.37155	0.353
Mof_C 	C 	0.57048	0.29513	0.38863	-0.061
Mof_C 	C 	0.58496	0.26839	0.37389	-0.068
Mof_H 	H 	0.5766	0.26	0.3543	0.073
Mof_O 	O 	0.53355	0.3371	0.38352	-0.405
Mof_O 	O 	0.53338	0.29914	0.34569	-0.394
Mof_H 	H 	0.6234	0.2272	0.3513	0.113
Mof_C 	C 	0.04404	0.8117	0.87155	0.353
Mof_C 	C 	0.07048	0.79513	0.88863	-0.061
Mof_C 	C 	0.08496	0.76839	0.87389	-0.068
Mof_H 	H 	0.0766	0.76	0.8543	0.073
Mof_O 	O 	0.03355	0.8371	0.88352	-0.406
Mof_O 	O 	0.03338	0.79914	0.84569	-0.394
Mof_H 	H 	0.1234	0.7272	0.8513	0.113
Mof_C 	C 	0.54404	0.6883	0.62845	0.353
Mof_C 	C 	0.57048	0.70487	0.61137	-0.061
Mof_C 	C 	0.58496	0.73161	0.62611	-0.068
Mof_H 	H 	0.5766	0.74	0.6457	0.073
Mof_O 	O 	0.53355	0.6629	0.61648	-0.405
Mof_O 	O 	0.53338	0.70086	0.65431	-0.394
Mof_H 	H 	0.6234	0.7728	0.6487	0.113
Mof_C 	C 	0.04404	0.1883	0.12845	0.353
Mof_C 	C 	0.07048	0.20487	0.11137	-0.062
Mof_C 	C 	0.08496	0.23161	0.12611	-0.067
Mof_H 	H 	0.0766	0.24	0.1457	0.072
Mof_O 	O 	0.03355	0.1629	0.11648	-0.407
Mof_O 	O 	0.03338	0.20086	0.15431	-0.394
Mof_H 	H 	0.1234	0.2728	0.1487	0.113
Mof_C 	C 	0.62845	0.6883	0.54404	0.353
Mof_C 	C 	0.61137	0.70487	0.57048	-0.061
Mof_C 	C 	0.62611	0.73161	0.58496	-0.068
Mof_H 	H 	0.6457	0.74	0.5766	0.073
Mof_O 	O 	0.61648	0.6629	0.53355	-0.405
Mof_O 	O 	0.65431	0.70086	0.53338	-0.394
Mof_H 	H 	0.6487	0.7728	0.6234	0.113
Mof_C 	C 	0.12845	0.1883	0.04404	0.353
Mof_C 	C 	0.11137	0.20487	0.07048	-0.062
Mof_C 	C 	0.12611	0.23161	0.08496	-0.067
Mof_H 	H 	0.1457	0.24	0.0766	0.072
Mof_O 	O 	0.11648	0.1629	0.03355	-0.407
Mof_O 	O 	0.15431	0.20086	0.03338	-0.394
Mof_H 	H 	0.1487	0.2728	0.1234	0.113
Mof_C 	C 	0.37155	0.3117	0.54404	0.353
Mof_C 	C 	0.38863	0.29513	0.57048	-0.061
Mof_C 	C 	0.37389	0.26839	0.58496	-0.068
Mof_H 	H 	0.3543	0.26	0.5766	0.073
Mof_O 	O 	0.38352	0.3371	0.53355	-0.405
Mof_O 	O 	0.34569	0.29914	0.53338	-0.394
Mof_H 	H 	0.3513	0.2272	0.6234	0.113
Mof_C 	C 	0.87155	0.8117	0.04404	0.353
Mof_C 	C 	0.88863	0.79513	0.07048	-0.061
Mof_C 	C 	0.87389	0.76839	0.08496	-0.068
Mof_H 	H 	0.8543	0.76	0.0766	0.073
Mof_O 	O 	0.88352	0.8371	0.03355	-0.406
Mof_O 	O 	0.84569	0.79914	0.03338	-0.394
Mof_H 	H 	0.8513	0.7272	0.1234	0.113
Mof_C 	C 	0.37155	0.6883	0.45596	0.353
Mof_C 	C 	0.38863	0.70487	0.42952	-0.061
Mof_C 	C 	0.37389	0.73161	0.41504	-0.068
Mof_H 	H 	0.3543	0.74	0.4234	0.073
Mof_O 	O 	0.38352	0.6629	0.46645	-0.405
Mof_O 	O 	0.34569	0.70086	0.46662	-0.394
Mof_H 	H 	0.3513	0.7728	0.3766	0.113
Mof_C 	C 	0.87155	0.1883	0.95596	0.353
Mof_C 	C 	0.88863	0.20487	0.92952	-0.059
Mof_C 	C 	0.87389	0.23161	0.91504	-0.068
Mof_H 	H 	0.8543	0.24	0.9234	0.073
Mof_O 	O 	0.88352	0.1629	0.96645	-0.403
Mof_O 	O 	0.84569	0.20086	0.96662	-0.392
Mof_H 	H 	0.8513	0.2728	0.8766	0.113
Mof_C 	C 	0.62845	0.3117	0.45596	0.353
Mof_C 	C 	0.61137	0.29513	0.42952	-0.061
Mof_C 	C 	0.62611	0.26839	0.41504	-0.068
Mof_H 	H 	0.6457	0.26	0.4234	0.073
Mof_O 	O 	0.61648	0.3371	0.46645	-0.405
Mof_O 	O 	0.65431	0.29914	0.46662	-0.394
Mof_H 	H 	0.6487	0.2272	0.3766	0.113
Mof_C 	C 	0.12845	0.8117	0.95596	0.353
Mof_C 	C 	0.11137	0.79513	0.92952	-0.06
Mof_C 	C 	0.12611	0.76839	0.91504	-0.068
Mof_H 	H 	0.1457	0.76	0.9234	0.073
Mof_O 	O 	0.11648	0.8371	0.96645	-0.403
Mof_O 	O 	0.15431	0.79914	0.96662	-0.392
Mof_H 	H 	0.1487	0.7272	0.8766	0.113
Mof_C 	C 	0.54404	0.62845	0.6883	0.353
Mof_C 	C 	0.57048	0.61137	0.70487	-0.061
Mof_C 	C 	0.58496	0.62611	0.73161	-0.068
Mof_H 	H 	0.5766	0.6457	0.74	0.073
Mof_O 	O 	0.53355	0.61648	0.6629	-0.405
Mof_O 	O 	0.53338	0.65431	0.70086	-0.394
Mof_H 	H 	0.6234	0.6487	0.7728	0.113
Mof_C 	C 	0.04404	0.12845	0.1883	0.353
Mof_C 	C 	0.07048	0.11137	0.20487	-0.062
Mof_C 	C 	0.08496	0.12611	0.23161	-0.067
Mof_H 	H 	0.0766	0.1457	0.24	0.072
Mof_O 	O 	0.03355	0.11648	0.1629	-0.407
Mof_O 	O 	0.03338	0.15431	0.20086	-0.394
Mof_H 	H 	0.1234	0.1487	0.2728	0.113
Mof_C 	C 	0.54404	0.37155	0.3117	0.353
Mof_C 	C 	0.57048	0.38863	0.29513	-0.061
Mof_C 	C 	0.58496	0.37389	0.26839	-0.068
Mof_H 	H 	0.5766	0.3543	0.26	0.073
Mof_O 	O 	0.53355	0.38352	0.3371	-0.405
Mof_O 	O 	0.53338	0.34569	0.29914	-0.394
Mof_H 	H 	0.6234	0.3513	0.2272	0.113
Mof_C 	C 	0.04404	0.87155	0.8117	0.353
Mof_C 	C 	0.07048	0.88863	0.79513	-0.061
Mof_C 	C 	0.08496	0.87389	0.76839	-0.068
Mof_H 	H 	0.0766	0.8543	0.76	0.073
Mof_O 	O 	0.03355	0.88352	0.8371	-0.406
Mof_O 	O 	0.03338	0.84569	0.79914	-0.394
Mof_H 	H 	0.1234	0.8513	0.7272	0.113
Mof_C 	C 	0.45596	0.37155	0.6883	0.353
Mof_C 	C 	0.42952	0.38863	0.70487	-0.061
Mof_C 	C 	0.41504	0.37389	0.73161	-0.068
Mof_H 	H 	0.4234	0.3543	0.74	0.073
Mof_O 	O 	0.46645	0.38352	0.6629	-0.405
Mof_O 	O 	0.46662	0.34569	0.70086	-0.394
Mof_H 	H 	0.3766	0.3513	0.7728	0.113
Mof_C 	C 	0.95596	0.87155	0.1883	0.353
Mof_C 	C 	0.92952	0.88863	0.20487	-0.059
Mof_C 	C 	0.91504	0.87389	0.23161	-0.068
Mof_H 	H 	0.9234	0.8543	0.24	0.073
Mof_O 	O 	0.96645	0.88352	0.1629	-0.403
Mof_O 	O 	0.96662	0.84569	0.20086	-0.392
Mof_H 	H 	0.8766	0.8513	0.2728	0.113
Mof_C 	C 	0.45596	0.62845	0.3117	0.353
Mof_C 	C 	0.42952	0.61137	0.29513	-0.061
Mof_C 	C 	0.41504	0.62611	0.26839	-0.068
Mof_H 	H 	0.4234	0.6457	0.26	0.073
Mof_O 	O 	0.46645	0.61648	0.3371	-0.405
Mof_O 	O 	0.46662	0.65431	0.29914	-0.394
Mof_H 	H 	0.3766	0.6487	0.2272	0.113
Mof_C 	C 	0.95596	0.12845	0.8117	0.353
Mof_C 	C 	0.92952	0.11137	0.79513	-0.06
Mof_C 	C 	0.91504	0.12611	0.76839	-0.068
Mof_H 	H 	0.9234	0.1457	0.76	0.073
Mof_O 	O 	0.96645	0.11648	0.8371	-0.403
Mof_O 	O 	0.96662	0.15431	0.79914	-0.392
Mof_H 	H 	0.8766	0.1487	0.7272	0.113
Mof_C 	C 	0.6883	0.54404	0.62845	0.353
Mof_C 	C 	0.70487	0.57048	0.61137	-0.061
Mof_C 	C 	0.73161	0.58496	0.62611	-0.068
Mof_H 	H 	0.74	0.5766	0.6457	0.073
Mof_O 	O 	0.6629	0.53355	0.61648	-0.405
Mof_O 	O 	0.70086	0.53338	0.65431	-0.394
Mof_H 	H 	0.7728	0.6234	0.6487	0.113
Mof_C 	C 	0.1883	0.04404	0.12845	0.353
Mof_C 	C 	0.20487	0.07048	0.11137	-0.062
Mof_C 	C 	0.23161	0.08496	0.12611	-0.067
Mof_H 	H 	0.24	0.0766	0.1457	0.072
Mof_O 	O 	0.1629	0.03355	0.11648	-0.407
Mof_O 	O 	0.20086	0.03338	0.15431	-0.394
Mof_H 	H 	0.2728	0.1234	0.1487	0.113
Mof_C 	C 	0.3117	0.54404	0.37155	0.353
Mof_C 	C 	0.29513	0.57048	0.38863	-0.061
Mof_C 	C 	0.26839	0.58496	0.37389	-0.068
Mof_H 	H 	0.26	0.5766	0.3543	0.073
Mof_O 	O 	0.3371	0.53355	0.38352	-0.405
Mof_O 	O 	0.29914	0.53338	0.34569	-0.394
Mof_H 	H 	0.2272	0.6234	0.3513	0.113
Mof_C 	C 	0.8117	0.04404	0.87155	0.353
Mof_C 	C 	0.79513	0.07048	0.88863	-0.061
Mof_C 	C 	0.76839	0.08496	0.87389	-0.068
Mof_H 	H 	0.76	0.0766	0.8543	0.073
Mof_O 	O 	0.8371	0.03355	0.88352	-0.406
Mof_O 	O 	0.79914	0.03338	0.84569	-0.394
Mof_H 	H 	0.7272	0.1234	0.8513	0.113
Mof_C 	C 	0.6883	0.45596	0.37155	0.353
Mof_C 	C 	0.70487	0.42952	0.38863	-0.061
Mof_C 	C 	0.73161	0.41504	0.37389	-0.068
Mof_H 	H 	0.74	0.4234	0.3543	0.073
Mof_O 	O 	0.6629	0.46645	0.38352	-0.405
Mof_O 	O 	0.70086	0.46662	0.34569	-0.394
Mof_H 	H 	0.7728	0.3766	0.3513	0.113
Mof_C 	C 	0.1883	0.95596	0.87155	0.353
Mof_C 	C 	0.20487	0.92952	0.88863	-0.059
Mof_C 	C 	0.23161	0.91504	0.87389	-0.068
Mof_H 	H 	0.24	0.9234	0.8543	0.073
Mof_O 	O 	0.1629	0.96645	0.88352	-0.403
Mof_O 	O 	0.20086	0.96662	0.84569	-0.392
Mof_H 	H 	0.2728	0.8766	0.8513	0.113
Mof_C 	C 	0.3117	0.45596	0.62845	0.353
Mof_C 	C 	0.29513	0.42952	0.61137	-0.061
Mof_C 	C 	0.26839	0.41504	0.62611	-0.068
Mof_H 	H 	0.26	0.4234	0.6457	0.073
Mof_O 	O 	0.3371	0.46645	0.61648	-0.405
Mof_O 	O 	0.29914	0.46662	0.65431	-0.394
Mof_H 	H 	0.2272	0.3766	0.6487	0.113
Mof_C 	C 	0.8117	0.95596	0.12845	0.353
Mof_C 	C 	0.79513	0.92952	0.11137	-0.06
Mof_C 	C 	0.76839	0.91504	0.12611	-0.068
Mof_H 	H 	0.76	0.9234	0.1457	0.073
Mof_O 	O 	0.8371	0.96645	0.11648	-0.403
Mof_O 	O 	0.79914	0.96662	0.15431	-0.392
Mof_H 	H 	0.7272	0.8766	0.1487	0.113
Mof_C 	C 	0.6883	0.62845	0.45596	0.353
Mof_C 	C 	0.70487	0.61137	0.42952	-0.061
Mof_C 	C 	0.73161	0.62611	0.41504	-0.068
Mof_H 	H 	0.74	0.6457	0.4234	0.073
Mof_O 	O 	0.6629	0.61648	0.46645	-0.405
Mof_O 	O 	0.70086	0.65431	0.46662	-0.394
Mof_H 	H 	0.7728	0.6487	0.3766	0.113
Mof_C 	C 	0.1883	0.12845	0.95596	0.353
Mof_C 	C 	0.20487	0.11137	0.92952	-0.06
Mof_C 	C 	0.23161	0.12611	0.91504	-0.068
Mof_H 	H 	0.24	0.1457	0.9234	0.073
Mof_O 	O 	0.1629	0.11648	0.96645	-0.404
Mof_O 	O 	0.20086	0.15431	0.96662	-0.392
Mof_H 	H 	0.2728	0.1487	0.8766	0.113
Mof_C 	C 	0.3117	0.37155	0.45596	0.353
Mof_C 	C 	0.29513	0.38863	0.42952	-0.061
Mof_C 	C 	0.26839	0.37389	0.41504	-0.068
Mof_H 	H 	0.26	0.3543	0.4234	0.073
Mof_O 	O 	0.3371	0.38352	0.46645	-0.405
Mof_O 	O 	0.29914	0.34569	0.46662	-0.394
Mof_H 	H 	0.2272	0.3513	0.3766	0.113
Mof_C 	C 	0.8117	0.87155	0.95596	0.352
Mof_C 	C 	0.79513	0.88863	0.92952	-0.059
Mof_C 	C 	0.76839	0.87389	0.91504	-0.068
Mof_H 	H 	0.76	0.8543	0.9234	0.073
Mof_O 	O 	0.8371	0.88352	0.96645	-0.403
Mof_O 	O 	0.79914	0.84569	0.96662	-0.392
Mof_H 	H 	0.7272	0.8513	0.8766	0.113
Mof_C 	C 	0.6883	0.37155	0.54404	0.353
Mof_C 	C 	0.70487	0.38863	0.57048	-0.061
Mof_C 	C 	0.73161	0.37389	0.58496	-0.068
Mof_H 	H 	0.74	0.3543	0.5766	0.073
Mof_O 	O 	0.6629	0.38352	0.53355	-0.405
Mof_O 	O 	0.70086	0.34569	0.53338	-0.394
Mof_H 	H 	0.7728	0.3513	0.6234	0.113
Mof_C 	C 	0.1883	0.87155	0.04404	0.353
Mof_C 	C 	0.20487	0.88863	0.07048	-0.061
Mof_C 	C 	0.23161	0.87389	0.08496	-0.068
Mof_H 	H 	0.24	0.8543	0.0766	0.073
Mof_O 	O 	0.1629	0.88352	0.03355	-0.406
Mof_O 	O 	0.20086	0.84569	0.03338	-0.394
Mof_H 	H 	0.2728	0.8513	0.1234	0.113
Mof_C 	C 	0.3117	0.62845	0.54404	0.353
Mof_C 	C 	0.29513	0.61137	0.57048	-0.061
Mof_C 	C 	0.26839	0.62611	0.58496	-0.068
Mof_H 	H 	0.26	0.6457	0.5766	0.073
Mof_O 	O 	0.3371	0.61648	0.53355	-0.405
Mof_O 	O 	0.29914	0.65431	0.53338	-0.394
Mof_H 	H 	0.2272	0.6487	0.6234	0.113
Mof_C 	C 	0.8117	0.12845	0.04404	0.353
Mof_C 	C 	0.79513	0.11137	0.07048	-0.062
Mof_C 	C 	0.76839	0.12611	0.08496	-0.067
Mof_H 	H 	0.76	0.1457	0.0766	0.072
Mof_O 	O 	0.8371	0.11648	0.03355	-0.406
Mof_O 	O 	0.79914	0.15431	0.03338	-0.394
Mof_H 	H 	0.7272	0.1487	0.1234	0.113
Mof_C 	C 	0.62845	0.54404	0.3117	0.353
Mof_C 	C 	0.61137	0.57048	0.29513	-0.061
Mof_C 	C 	0.62611	0.58496	0.26839	-0.068
Mof_H 	H 	0.6457	0.5766	0.26	0.073
Mof_O 	O 	0.61648	0.53355	0.3371	-0.405
Mof_O 	O 	0.65431	0.53338	0.29914	-0.394
Mof_H 	H 	0.6487	0.6234	0.2272	0.113
Mof_C 	C 	0.12845	0.04404	0.8117	0.353
Mof_C 	C 	0.11137	0.07048	0.79513	-0.062
Mof_C 	C 	0.12611	0.08496	0.76839	-0.067
Mof_H 	H 	0.1457	0.0766	0.76	0.072
Mof_O 	O 	0.11648	0.03355	0.8371	-0.406
Mof_O 	O 	0.15431	0.03338	0.79914	-0.394
Mof_H 	H 	0.1487	0.1234	0.7272	0.113
Mof_C 	C 	0.37155	0.54404	0.6883	0.353
Mof_C 	C 	0.38863	0.57048	0.70487	-0.061
Mof_C 	C 	0.37389	0.58496	0.73161	-0.068
Mof_H 	H 	0.3543	0.5766	0.74	0.073
Mof_O 	O 	0.38352	0.53355	0.6629	-0.405
Mof_O 	O 	0.34569	0.53338	0.70086	-0.394
Mof_H 	H 	0.3513	0.6234	0.7728	0.113
Mof_C 	C 	0.87155	0.04404	0.1883	0.353
Mof_C 	C 	0.88863	0.07048	0.20487	-0.061
Mof_C 	C 	0.87389	0.08496	0.23161	-0.068
Mof_H 	H 	0.8543	0.0766	0.24	0.073
Mof_O 	O 	0.88352	0.03355	0.1629	-0.406
Mof_O 	O 	0.84569	0.03338	0.20086	-0.394
Mof_H 	H 	0.8513	0.1234	0.2728	0.113
Mof_C 	C 	0.37155	0.45596	0.3117	0.353
Mof_C 	C 	0.38863	0.42952	0.29513	-0.061
Mof_C 	C 	0.37389	0.41504	0.26839	-0.068
Mof_H 	H 	0.3543	0.4234	0.26	0.073
Mof_O 	O 	0.38352	0.46645	0.3371	-0.405
Mof_O 	O 	0.34569	0.46662	0.29914	-0.394
Mof_H 	H 	0.3513	0.3766	0.2272	0.113
Mof_C 	C 	0.87155	0.95596	0.8117	0.352
Mof_C 	C 	0.88863	0.92952	0.79513	-0.059
Mof_C 	C 	0.87389	0.91504	0.76839	-0.068
Mof_H 	H 	0.8543	0.9234	0.76	0.073
Mof_O 	O 	0.88352	0.96645	0.8371	-0.403
Mof_O 	O 	0.84569	0.96662	0.79914	-0.392
Mof_H 	H 	0.8513	0.8766	0.7272	0.113
Mof_C 	C 	0.62845	0.45596	0.6883	0.353
Mof_C 	C 	0.61137	0.42952	0.70487	-0.061
Mof_C 	C 	0.62611	0.41504	0.73161	-0.068
Mof_H 	H 	0.6457	0.4234	0.74	0.073
Mof_O 	O 	0.61648	0.46645	0.6629	-0.405
Mof_O 	O 	0.65431	0.46662	0.70086	-0.394
Mof_H 	H 	0.6487	0.3766	0.7728	0.113
Mof_C 	C 	0.12845	0.95596	0.1883	0.353
Mof_C 	C 	0.11137	0.92952	0.20487	-0.06
Mof_C 	C 	0.12611	0.91504	0.23161	-0.068
Mof_H 	H 	0.1457	0.9234	0.24	0.073
Mof_O 	O 	0.11648	0.96645	0.1629	-0.404
Mof_O 	O 	0.15431	0.96662	0.20086	-0.392
Mof_H 	H 	0.1487	0.8766	0.2728	0.113
Mof_C 	C 	0.54404	0.6883	0.37155	0.353
Mof_C 	C 	0.57048	0.70487	0.38863	-0.061
Mof_C 	C 	0.58496	0.73161	0.37389	-0.068
Mof_H 	H 	0.5766	0.74	0.3543	0.073
Mof_O 	O 	0.53355	0.6629	0.38352	-0.405
Mof_O 	O 	0.53338	0.70086	0.34569	-0.394
Mof_H 	H 	0.6234	0.7728	0.3513	0.113
Mof_C 	C 	0.04404	0.1883	0.87155	0.353
Mof_C 	C 	0.07048	0.20487	0.88863	-0.061
Mof_C 	C 	0.08496	0.23161	0.87389	-0.068
Mof_H 	H 	0.0766	0.24	0.8543	0.073
Mof_O 	O 	0.03355	0.1629	0.88352	-0.406
Mof_O 	O 	0.03338	0.20086	0.84569	-0.394
Mof_H 	H 	0.1234	0.2728	0.8513	0.113
Mof_C 	C 	0.54404	0.3117	0.62845	0.353
Mof_C 	C 	0.57048	0.29513	0.61137	-0.061
Mof_C 	C 	0.58496	0.26839	0.62611	-0.068
Mof_H 	H 	0.5766	0.26	0.6457	0.073
Mof_O 	O 	0.53355	0.3371	0.61648	-0.405
Mof_O 	O 	0.53338	0.29914	0.65431	-0.394
Mof_H 	H 	0.6234	0.2272	0.6487	0.113
Mof_C 	C 	0.04404	0.8117	0.12845	0.353
Mof_C 	C 	0.07048	0.79513	0.11137	-0.062
Mof_C 	C 	0.08496	0.76839	0.12611	-0.067
Mof_H 	H 	0.0766	0.76	0.1457	0.072
Mof_O 	O 	0.03355	0.8371	0.11648	-0.406
Mof_O 	O 	0.03338	0.79914	0.15431	-0.394
Mof_H 	H 	0.1234	0.7272	0.1487	0.113
Mof_C 	C 	0.45596	0.6883	0.62845	0.353
Mof_C 	C 	0.42952	0.70487	0.61137	-0.061
Mof_C 	C 	0.41504	0.73161	0.62611	-0.068
Mof_H 	H 	0.4234	0.74	0.6457	0.073
Mof_O 	O 	0.46645	0.6629	0.61648	-0.405
Mof_O 	O 	0.46662	0.70086	0.65431	-0.394
Mof_H 	H 	0.3766	0.7728	0.6487	0.113
Mof_C 	C 	0.95596	0.1883	0.12845	0.353
Mof_C 	C 	0.92952	0.20487	0.11137	-0.06
Mof_C 	C 	0.91504	0.23161	0.12611	-0.068
Mof_H 	H 	0.9234	0.24	0.1457	0.073
Mof_O 	O 	0.96645	0.1629	0.11648	-0.404
Mof_O 	O 	0.96662	0.20086	0.15431	-0.392
Mof_H 	H 	0.8766	0.2728	0.1487	0.113
Mof_C 	C 	0.45596	0.3117	0.37155	0.353
Mof_C 	C 	0.42952	0.29513	0.38863	-0.061
Mof_C 	C 	0.41504	0.26839	0.37389	-0.068
Mof_H 	H 	0.4234	0.26	0.3543	0.073
Mof_O 	O 	0.46645	0.3371	0.38352	-0.405
Mof_O 	O 	0.46662	0.29914	0.34569	-0.394
Mof_H 	H 	0.3766	0.2272	0.3513	0.113
Mof_C 	C 	0.95596	0.8117	0.87155	0.352
Mof_C 	C 	0.92952	0.79513	0.88863	-0.059
Mof_C 	C 	0.91504	0.76839	0.87389	-0.068
Mof_H 	H 	0.9234	0.76	0.8543	0.073
Mof_O 	O 	0.96645	0.8371	0.88352	-0.403
Mof_O 	O 	0.96662	0.79914	0.84569	-0.392
Mof_H 	H 	0.8766	0.7272	0.8513	0.113
Mof_C 	C 	0.41618	0.30831	0.41618	0.011
Mof_H 	H 	0.426	0.3265	0.426	0.059
Mof_C 	C 	0.38837	0.25434	0.38837	0.094
Mof_C 	C 	0.37982	0.19181	0.37982	0.201
Mof_C 	C 	0.33747	0.18117	0.33747	-0.011
Mof_H 	H 	0.3346	0.2037	0.3346	0.025
Mof_C 	C 	0.35907	0.17012	0.35907	-0.061
Mof_C 	C 	0.36343	0.13684	0.36343	0.027
Mof_H 	H 	0.3787	0.1291	0.3787	0.048
Mof_C 	C 	0.34511	0.11528	0.34511	-0.134
Mof_H 	H 	0.3478	0.0927	0.3478	0.088
Mof_C 	C 	0.32341	0.12682	0.32341	0.126
Mof_C 	C 	0.31918	0.15951	0.31918	-0.05
Mof_C 	C 	0.29692	0.17151	0.29692	0.022
Mof_H 	H 	0.2941	0.1941	0.2941	0.02
Mof_C 	C 	0.27866	0.14902	0.27866	-0.154
Mof_H 	H 	0.2634	0.1566	0.2634	0.079
Mof_C 	C 	0.2827	0.1169	0.2827	0.163
Mof_C 	C 	0.30492	0.10488	0.30492	-0.195
Mof_H 	H 	0.3076	0.0823	0.3076	0.145
Mof_C 	C 	0.26748	0.05872	0.26748	0.198
Mof_C 	C 	0.25342	0.02803	0.25342	-0.057
Mof_C 	C 	0.22922	0.02846	0.22922	0.044
Mof_H 	H 	0.2211	0.0482	0.2211	0.02
Mof_N 	N 	0.37313	0.2249	0.37313	-0.268
Mof_N 	N 	0.2624	0.09198	0.2624	-0.219
Mof_H 	H 	0.2482	0.0987	0.2482	0.12
Mof_O 	O 	0.39849	0.17831	0.39849	-0.206
Mof_O 	O 	0.28871	0.05266	0.28871	-0.227
Mof_C 	C 	0.91618	0.80831	0.91618	0.01
Mof_H 	H 	0.926	0.8265	0.926	0.06
Mof_C 	C 	0.88837	0.75434	0.88837	0.094
Mof_C 	C 	0.87982	0.69181	0.87982	0.201
Mof_C 	C 	0.83747	0.68117	0.83747	-0.011
Mof_H 	H 	0.8346	0.7037	0.8346	0.025
Mof_C 	C 	0.85907	0.67012	0.85907	-0.061
Mof_C 	C 	0.86343	0.63684	0.86343	0.027
Mof_H 	H 	0.8787	0.6291	0.8787	0.049
Mof_C 	C 	0.84511	0.61528	0.84511	-0.134
Mof_H 	H 	0.8478	0.5927	0.8478	0.089
Mof_C 	C 	0.82341	0.62682	0.82341	0.127
Mof_C 	C 	0.81918	0.65951	0.81918	-0.05
Mof_C 	C 	0.79692	0.67151	0.79692	0.022
Mof_H 	H 	0.7941	0.6941	0.7941	0.02
Mof_C 	C 	0.77866	0.64902	0.77866	-0.154
Mof_H 	H 	0.7634	0.6566	0.7634	0.079
Mof_C 	C 	0.7827	0.6169	0.7827	0.163
Mof_C 	C 	0.80492	0.60488	0.80492	-0.195
Mof_H 	H 	0.8076	0.5823	0.8076	0.146
Mof_C 	C 	0.76748	0.55872	0.76748	0.199
Mof_C 	C 	0.75342	0.52803	0.75342	-0.058
Mof_C 	C 	0.72922	0.52846	0.72922	0.045
Mof_H 	H 	0.7211	0.5482	0.7211	0.019
Mof_N 	N 	0.87313	0.7249	0.87313	-0.268
Mof_N 	N 	0.7624	0.59198	0.7624	-0.219
Mof_H 	H 	0.7482	0.5987	0.7482	0.12
Mof_O 	O 	0.89849	0.67831	0.89849	-0.204
Mof_O 	O 	0.78871	0.55266	0.78871	-0.227
Mof_C 	C 	0.58382	0.69169	0.41618	0.011
Mof_H 	H 	0.574	0.6735	0.426	0.059
Mof_C 	C 	0.61163	0.74566	0.38837	0.094
Mof_C 	C 	0.62018	0.80819	0.37982	0.201
Mof_C 	C 	0.66253	0.81883	0.33747	-0.011
Mof_H 	H 	0.6654	0.7963	0.3346	0.025
Mof_C 	C 	0.64093	0.82988	0.35907	-0.061
Mof_C 	C 	0.63657	0.86316	0.36343	0.027
Mof_H 	H 	0.6213	0.8709	0.3787	0.049
Mof_C 	C 	0.65489	0.88472	0.34511	-0.134
Mof_H 	H 	0.6522	0.9073	0.3478	0.089
Mof_C 	C 	0.67659	0.87318	0.32341	0.127
Mof_C 	C 	0.68082	0.84049	0.31918	-0.051
Mof_C 	C 	0.70308	0.82849	0.29692	0.022
Mof_H 	H 	0.7059	0.8059	0.2941	0.019
Mof_C 	C 	0.72134	0.85098	0.27866	-0.154
Mof_H 	H 	0.7366	0.8434	0.2634	0.079
Mof_C 	C 	0.7173	0.8831	0.2827	0.163
Mof_C 	C 	0.69508	0.89512	0.30492	-0.195
Mof_H 	H 	0.6924	0.9177	0.3076	0.146
Mof_C 	C 	0.73252	0.94128	0.26748	0.198
Mof_C 	C 	0.74658	0.97197	0.25342	-0.053
Mof_C 	C 	0.77078	0.97154	0.22922	0.048
Mof_H 	H 	0.7789	0.9518	0.2211	0.019
Mof_N 	N 	0.62687	0.7751	0.37313	-0.268
Mof_N 	N 	0.7376	0.90802	0.2624	-0.218
Mof_H 	H 	0.7518	0.9013	0.2482	0.12
Mof_O 	O 	0.60151	0.82169	0.39849	-0.205
Mof_O 	O 	0.71129	0.94734	0.28871	-0.225
Mof_C 	C 	0.08382	0.19169	0.91618	0.011
Mof_H 	H 	0.074	0.1735	0.926	0.059
Mof_C 	C 	0.11163	0.24566	0.88837	0.094
Mof_C 	C 	0.12018	0.30819	0.87982	0.201
Mof_C 	C 	0.16253	0.31883	0.83747	-0.011
Mof_H 	H 	0.1654	0.2963	0.8346	0.025
Mof_C 	C 	0.14093	0.32988	0.85907	-0.061
Mof_C 	C 	0.13657	0.36316	0.86343	0.027
Mof_H 	H 	0.1213	0.3709	0.8787	0.048
Mof_C 	C 	0.15489	0.38472	0.84511	-0.134
Mof_H 	H 	0.1522	0.4073	0.8478	0.089
Mof_C 	C 	0.17659	0.37318	0.82341	0.127
Mof_C 	C 	0.18082	0.34049	0.81918	-0.05
Mof_C 	C 	0.20308	0.32849	0.79692	0.022
Mof_H 	H 	0.2059	0.3059	0.7941	0.02
Mof_C 	C 	0.22134	0.35098	0.77866	-0.154
Mof_H 	H 	0.2366	0.3434	0.7634	0.079
Mof_C 	C 	0.2173	0.3831	0.7827	0.163
Mof_C 	C 	0.19508	0.39512	0.80492	-0.195
Mof_H 	H 	0.1924	0.4177	0.8076	0.146
Mof_C 	C 	0.23252	0.44128	0.76748	0.199
Mof_C 	C 	0.24658	0.47197	0.75342	-0.059
Mof_C 	C 	0.27078	0.47154	0.72922	0.045
Mof_H 	H 	0.2789	0.4518	0.7211	0.019
Mof_N 	N 	0.12687	0.2751	0.87313	-0.268
Mof_N 	N 	0.2376	0.40802	0.7624	-0.219
Mof_H 	H 	0.2518	0.4013	0.7482	0.12
Mof_O 	O 	0.10151	0.32169	0.89849	-0.205
Mof_O 	O 	0.21129	0.44734	0.78871	-0.227
Mof_C 	C 	0.58382	0.30831	0.58382	0.011
Mof_H 	H 	0.574	0.3265	0.574	0.059
Mof_C 	C 	0.61163	0.25434	0.61163	0.094
Mof_C 	C 	0.62018	0.19181	0.62018	0.201
Mof_C 	C 	0.66253	0.18117	0.66253	-0.011
Mof_H 	H 	0.6654	0.2037	0.6654	0.025
Mof_C 	C 	0.64093	0.17012	0.64093	-0.061
Mof_C 	C 	0.63657	0.13684	0.63657	0.027
Mof_H 	H 	0.6213	0.1291	0.6213	0.048
Mof_C 	C 	0.65489	0.11528	0.65489	-0.134
Mof_H 	H 	0.6522	0.0927	0.6522	0.088
Mof_C 	C 	0.67659	0.12682	0.67659	0.126
Mof_C 	C 	0.68082	0.15951	0.68082	-0.05
Mof_C 	C 	0.70308	0.17151	0.70308	0.022
Mof_H 	H 	0.7059	0.1941	0.7059	0.02
Mof_C 	C 	0.72134	0.14902	0.72134	-0.154
Mof_H 	H 	0.7366	0.1566	0.7366	0.079
Mof_C 	C 	0.7173	0.1169	0.7173	0.163
Mof_C 	C 	0.69508	0.10488	0.69508	-0.195
Mof_H 	H 	0.6924	0.0823	0.6924	0.145
Mof_C 	C 	0.73252	0.05872	0.73252	0.198
Mof_C 	C 	0.74658	0.02803	0.74658	-0.057
Mof_C 	C 	0.77078	0.02846	0.77078	0.044
Mof_H 	H 	0.7789	0.0482	0.7789	0.02
Mof_N 	N 	0.62687	0.2249	0.62687	-0.268
Mof_N 	N 	0.7376	0.09198	0.7376	-0.219
Mof_H 	H 	0.7518	0.0987	0.7518	0.119
Mof_O 	O 	0.60151	0.17831	0.60151	-0.206
Mof_O 	O 	0.71129	0.05266	0.71129	-0.227
Mof_C 	C 	0.08382	0.80831	0.08382	0.011
Mof_H 	H 	0.074	0.8265	0.074	0.058
Mof_C 	C 	0.11163	0.75434	0.11163	0.093
Mof_C 	C 	0.12018	0.69181	0.12018	0.201
Mof_C 	C 	0.16253	0.68117	0.16253	-0.011
Mof_H 	H 	0.1654	0.7037	0.1654	0.025
Mof_C 	C 	0.14093	0.67012	0.14093	-0.061
Mof_C 	C 	0.13657	0.63684	0.13657	0.027
Mof_H 	H 	0.1213	0.6291	0.1213	0.048
Mof_C 	C 	0.15489	0.61528	0.15489	-0.135
Mof_H 	H 	0.1522	0.5927	0.1522	0.088
Mof_C 	C 	0.17659	0.62682	0.17659	0.127
Mof_C 	C 	0.18082	0.65951	0.18082	-0.051
Mof_C 	C 	0.20308	0.67151	0.20308	0.022
Mof_H 	H 	0.2059	0.6941	0.2059	0.02
Mof_C 	C 	0.22134	0.64902	0.22134	-0.154
Mof_H 	H 	0.2366	0.6566	0.2366	0.079
Mof_C 	C 	0.2173	0.6169	0.2173	0.163
Mof_C 	C 	0.19508	0.60488	0.19508	-0.195
Mof_H 	H 	0.1924	0.5823	0.1924	0.145
Mof_C 	C 	0.23252	0.55872	0.23252	0.199
Mof_C 	C 	0.24658	0.52803	0.24658	-0.059
Mof_C 	C 	0.27078	0.52846	0.27078	0.045
Mof_H 	H 	0.2789	0.5482	0.2789	0.019
Mof_N 	N 	0.12687	0.7249	0.12687	-0.268
Mof_N 	N 	0.2376	0.59198	0.2376	-0.219
Mof_H 	H 	0.2518	0.5987	0.2518	0.12
Mof_O 	O 	0.10151	0.67831	0.10151	-0.207
Mof_O 	O 	0.21129	0.55266	0.21129	-0.227
Mof_C 	C 	0.41618	0.69169	0.58382	0.011
Mof_H 	H 	0.426	0.6735	0.574	0.059
Mof_C 	C 	0.38837	0.74566	0.61163	0.094
Mof_C 	C 	0.37982	0.80819	0.62018	0.201
Mof_C 	C 	0.33747	0.81883	0.66253	-0.011
Mof_H 	H 	0.3346	0.7963	0.6654	0.025
Mof_C 	C 	0.35907	0.82988	0.64093	-0.061
Mof_C 	C 	0.36343	0.86316	0.63657	0.027
Mof_H 	H 	0.3787	0.8709	0.6213	0.049
Mof_C 	C 	0.34511	0.88472	0.65489	-0.134
Mof_H 	H 	0.3478	0.9073	0.6522	0.089
Mof_C 	C 	0.32341	0.87318	0.67659	0.127
Mof_C 	C 	0.31918	0.84049	0.68082	-0.051
Mof_C 	C 	0.29692	0.82849	0.70308	0.022
Mof_H 	H 	0.2941	0.8059	0.7059	0.019
Mof_C 	C 	0.27866	0.85098	0.72134	-0.154
Mof_H 	H 	0.2634	0.8434	0.7366	0.079
Mof_C 	C 	0.2827	0.8831	0.7173	0.163
Mof_C 	C 	0.30492	0.89512	0.69508	-0.195
Mof_H 	H 	0.3076	0.9177	0.6924	0.146
Mof_C 	C 	0.26748	0.94128	0.73252	0.198
Mof_C 	C 	0.25342	0.97197	0.74658	-0.053
Mof_C 	C 	0.22922	0.97154	0.77078	0.048
Mof_H 	H 	0.2211	0.9518	0.7789	0.019
Mof_N 	N 	0.37313	0.7751	0.62687	-0.268
Mof_N 	N 	0.2624	0.90802	0.7376	-0.218
Mof_H 	H 	0.2482	0.9013	0.7518	0.12
Mof_O 	O 	0.39849	0.82169	0.60151	-0.205
Mof_O 	O 	0.28871	0.94734	0.71129	-0.225
Mof_C 	C 	0.91618	0.19169	0.08382	0.011
Mof_H 	H 	0.926	0.1735	0.074	0.059
Mof_C 	C 	0.88837	0.24566	0.11163	0.094
Mof_C 	C 	0.87982	0.30819	0.12018	0.201
Mof_C 	C 	0.83747	0.31883	0.16253	-0.011
Mof_H 	H 	0.8346	0.2963	0.1654	0.025
Mof_C 	C 	0.85907	0.32988	0.14093	-0.061
Mof_C 	C 	0.86343	0.36316	0.13657	0.027
Mof_H 	H 	0.8787	0.3709	0.1213	0.048
Mof_C 	C 	0.84511	0.38472	0.15489	-0.134
Mof_H 	H 	0.8478	0.4073	0.1522	0.089
Mof_C 	C 	0.82341	0.37318	0.17659	0.127
Mof_C 	C 	0.81918	0.34049	0.18082	-0.05
Mof_C 	C 	0.79692	0.32849	0.20308	0.022
Mof_H 	H 	0.7941	0.3059	0.2059	0.02
Mof_C 	C 	0.77866	0.35098	0.22134	-0.154
Mof_H 	H 	0.7634	0.3434	0.2366	0.079
Mof_C 	C 	0.7827	0.3831	0.2173	0.163
Mof_C 	C 	0.80492	0.39512	0.19508	-0.195
Mof_H 	H 	0.8076	0.4177	0.1924	0.146
Mof_C 	C 	0.76748	0.44128	0.23252	0.199
Mof_C 	C 	0.75342	0.47197	0.24658	-0.059
Mof_C 	C 	0.72922	0.47154	0.27078	0.045
Mof_H 	H 	0.7211	0.4518	0.2789	0.019
Mof_N 	N 	0.87313	0.2751	0.12687	-0.268
Mof_N 	N 	0.7624	0.40802	0.2376	-0.219
Mof_H 	H 	0.7482	0.4013	0.2518	0.12
Mof_O 	O 	0.89849	0.32169	0.10151	-0.205
Mof_O 	O 	0.78871	0.44734	0.21129	-0.227
Mof_C 	C 	0.41618	0.41618	0.30831	0.011
Mof_H 	H 	0.426	0.426	0.3265	0.059
Mof_C 	C 	0.38837	0.38837	0.25434	0.094
Mof_C 	C 	0.37982	0.37982	0.19181	0.201
Mof_C 	C 	0.33747	0.33747	0.18117	-0.011
Mof_H 	H 	0.3346	0.3346	0.2037	0.025
Mof_C 	C 	0.35907	0.35907	0.17012	-0.061
Mof_C 	C 	0.36343	0.36343	0.13684	0.027
Mof_H 	H 	0.3787	0.3787	0.1291	0.048
Mof_C 	C 	0.34511	0.34511	0.11528	-0.134
Mof_H 	H 	0.3478	0.3478	0.0927	0.088
Mof_C 	C 	0.32341	0.32341	0.12682	0.126
Mof_C 	C 	0.31918	0.31918	0.15951	-0.05
Mof_C 	C 	0.29692	0.29692	0.17151	0.022
Mof_H 	H 	0.2941	0.2941	0.1941	0.02
Mof_C 	C 	0.27866	0.27866	0.14902	-0.154
Mof_H 	H 	0.2634	0.2634	0.1566	0.079
Mof_C 	C 	0.2827	0.2827	0.1169	0.163
Mof_C 	C 	0.30492	0.30492	0.10488	-0.195
Mof_H 	H 	0.3076	0.3076	0.0823	0.145
Mof_C 	C 	0.26748	0.26748	0.05872	0.198
Mof_C 	C 	0.25342	0.25342	0.02803	-0.057
Mof_C 	C 	0.22922	0.22922	0.02846	0.044
Mof_H 	H 	0.2211	0.2211	0.0482	0.02
Mof_N 	N 	0.37313	0.37313	0.2249	-0.268
Mof_N 	N 	0.2624	0.2624	0.09198	-0.219
Mof_H 	H 	0.2482	0.2482	0.0987	0.12
Mof_O 	O 	0.39849	0.39849	0.17831	-0.206
Mof_O 	O 	0.28871	0.28871	0.05266	-0.227
Mof_C 	C 	0.91618	0.91618	0.80831	0.01
Mof_H 	H 	0.926	0.926	0.8265	0.06
Mof_C 	C 	0.88837	0.88837	0.75434	0.094
Mof_C 	C 	0.87982	0.87982	0.69181	0.201
Mof_C 	C 	0.83747	0.83747	0.68117	-0.011
Mof_H 	H 	0.8346	0.8346	0.7037	0.025
Mof_C 	C 	0.85907	0.85907	0.67012	-0.061
Mof_C 	C 	0.86343	0.86343	0.63684	0.027
Mof_H 	H 	0.8787	0.8787	0.6291	0.049
Mof_C 	C 	0.84511	0.84511	0.61528	-0.134
Mof_H 	H 	0.8478	0.8478	0.5927	0.089
Mof_C 	C 	0.82341	0.82341	0.62682	0.127
Mof_C 	C 	0.81918	0.81918	0.65951	-0.05
Mof_C 	C 	0.79692	0.79692	0.67151	0.022
Mof_H 	H 	0.7941	0.7941	0.6941	0.02
Mof_C 	C 	0.77866	0.77866	0.64902	-0.154
Mof_H 	H 	0.7634	0.7634	0.6566	0.079
Mof_C 	C 	0.7827	0.7827	0.6169	0.163
Mof_C 	C 	0.80492	0.80492	0.60488	-0.195
Mof_H 	H 	0.8076	0.8076	0.5823	0.146
Mof_C 	C 	0.76748	0.76748	0.55872	0.199
Mof_C 	C 	0.75342	0.75342	0.52803	-0.058
Mof_C 	C 	0.72922	0.72922	0.52846	0.045
Mof_H 	H 	0.7211	0.7211	0.5482	0.019
Mof_N 	N 	0.87313	0.87313	0.7249	-0.268
Mof_N 	N 	0.7624	0.7624	0.59198	-0.219
Mof_H 	H 	0.7482	0.7482	0.5987	0.12
Mof_O 	O 	0.89849	0.89849	0.67831	-0.204
Mof_O 	O 	0.78871	0.78871	0.55266	-0.227
Mof_C 	C 	0.41618	0.58382	0.69169	0.011
Mof_H 	H 	0.426	0.574	0.6735	0.059
Mof_C 	C 	0.38837	0.61163	0.74566	0.094
Mof_C 	C 	0.37982	0.62018	0.80819	0.201
Mof_C 	C 	0.33747	0.66253	0.81883	-0.011
Mof_H 	H 	0.3346	0.6654	0.7963	0.025
Mof_C 	C 	0.35907	0.64093	0.82988	-0.061
Mof_C 	C 	0.36343	0.63657	0.86316	0.027
Mof_H 	H 	0.3787	0.6213	0.8709	0.049
Mof_C 	C 	0.34511	0.65489	0.88472	-0.134
Mof_H 	H 	0.3478	0.6522	0.9073	0.089
Mof_C 	C 	0.32341	0.67659	0.87318	0.127
Mof_C 	C 	0.31918	0.68082	0.84049	-0.051
Mof_C 	C 	0.29692	0.70308	0.82849	0.022
Mof_H 	H 	0.2941	0.7059	0.8059	0.019
Mof_C 	C 	0.27866	0.72134	0.85098	-0.154
Mof_H 	H 	0.2634	0.7366	0.8434	0.079
Mof_C 	C 	0.2827	0.7173	0.8831	0.163
Mof_C 	C 	0.30492	0.69508	0.89512	-0.195
Mof_H 	H 	0.3076	0.6924	0.9177	0.146
Mof_C 	C 	0.26748	0.73252	0.94128	0.198
Mof_C 	C 	0.25342	0.74658	0.97197	-0.053
Mof_C 	C 	0.22922	0.77078	0.97154	0.048
Mof_H 	H 	0.2211	0.7789	0.9518	0.019
Mof_N 	N 	0.37313	0.62687	0.7751	-0.268
Mof_N 	N 	0.2624	0.7376	0.90802	-0.218
Mof_H 	H 	0.2482	0.7518	0.9013	0.12
Mof_O 	O 	0.39849	0.60151	0.82169	-0.205
Mof_O 	O 	0.28871	0.71129	0.94734	-0.225
Mof_C 	C 	0.91618	0.08382	0.19169	0.011
Mof_H 	H 	0.926	0.074	0.1735	0.059
Mof_C 	C 	0.88837	0.11163	0.24566	0.094
Mof_C 	C 	0.87982	0.12018	0.30819	0.201
Mof_C 	C 	0.83747	0.16253	0.31883	-0.011
Mof_H 	H 	0.8346	0.1654	0.2963	0.025
Mof_C 	C 	0.85907	0.14093	0.32988	-0.061
Mof_C 	C 	0.86343	0.13657	0.36316	0.027
Mof_H 	H 	0.8787	0.1213	0.3709	0.048
Mof_C 	C 	0.84511	0.15489	0.38472	-0.134
Mof_H 	H 	0.8478	0.1522	0.4073	0.089
Mof_C 	C 	0.82341	0.17659	0.37318	0.127
Mof_C 	C 	0.81918	0.18082	0.34049	-0.05
Mof_C 	C 	0.79692	0.20308	0.32849	0.022
Mof_H 	H 	0.7941	0.2059	0.3059	0.02
Mof_C 	C 	0.77866	0.22134	0.35098	-0.154
Mof_H 	H 	0.7634	0.2366	0.3434	0.079
Mof_C 	C 	0.7827	0.2173	0.3831	0.163
Mof_C 	C 	0.80492	0.19508	0.39512	-0.195
Mof_H 	H 	0.8076	0.1924	0.4177	0.146
Mof_C 	C 	0.76748	0.23252	0.44128	0.199
Mof_C 	C 	0.75342	0.24658	0.47197	-0.059
Mof_C 	C 	0.72922	0.27078	0.47154	0.045
Mof_H 	H 	0.7211	0.2789	0.4518	0.019
Mof_N 	N 	0.87313	0.12687	0.2751	-0.268
Mof_N 	N 	0.7624	0.2376	0.40802	-0.219
Mof_H 	H 	0.7482	0.2518	0.4013	0.12
Mof_O 	O 	0.89849	0.10151	0.32169	-0.205
Mof_O 	O 	0.78871	0.21129	0.44734	-0.227
Mof_C 	C 	0.58382	0.58382	0.30831	0.011
Mof_H 	H 	0.574	0.574	0.3265	0.059
Mof_C 	C 	0.61163	0.61163	0.25434	0.094
Mof_C 	C 	0.62018	0.62018	0.19181	0.201
Mof_C 	C 	0.66253	0.66253	0.18117	-0.011
Mof_H 	H 	0.6654	0.6654	0.2037	0.025
Mof_C 	C 	0.64093	0.64093	0.17012	-0.061
Mof_C 	C 	0.63657	0.63657	0.13684	0.027
Mof_H 	H 	0.6213	0.6213	0.1291	0.048
Mof_C 	C 	0.65489	0.65489	0.11528	-0.134
Mof_H 	H 	0.6522	0.6522	0.0927	0.088
Mof_C 	C 	0.67659	0.67659	0.12682	0.126
Mof_C 	C 	0.68082	0.68082	0.15951	-0.05
Mof_C 	C 	0.70308	0.70308	0.17151	0.022
Mof_H 	H 	0.7059	0.7059	0.1941	0.02
Mof_C 	C 	0.72134	0.72134	0.14902	-0.154
Mof_H 	H 	0.7366	0.7366	0.1566	0.079
Mof_C 	C 	0.7173	0.7173	0.1169	0.163
Mof_C 	C 	0.69508	0.69508	0.10488	-0.195
Mof_H 	H 	0.6924	0.6924	0.0823	0.145
Mof_C 	C 	0.73252	0.73252	0.05872	0.198
Mof_C 	C 	0.74658	0.74658	0.02803	-0.057
Mof_C 	C 	0.77078	0.77078	0.02846	0.044
Mof_H 	H 	0.7789	0.7789	0.0482	0.02
Mof_N 	N 	0.62687	0.62687	0.2249	-0.268
Mof_N 	N 	0.7376	0.7376	0.09198	-0.219
Mof_H 	H 	0.7518	0.7518	0.0987	0.119
Mof_O 	O 	0.60151	0.60151	0.17831	-0.206
Mof_O 	O 	0.71129	0.71129	0.05266	-0.227
Mof_C 	C 	0.08382	0.08382	0.80831	0.011
Mof_H 	H 	0.074	0.074	0.8265	0.058
Mof_C 	C 	0.11163	0.11163	0.75434	0.093
Mof_C 	C 	0.12018	0.12018	0.69181	0.201
Mof_C 	C 	0.16253	0.16253	0.68117	-0.011
Mof_H 	H 	0.1654	0.1654	0.7037	0.025
Mof_C 	C 	0.14093	0.14093	0.67012	-0.061
Mof_C 	C 	0.13657	0.13657	0.63684	0.027
Mof_H 	H 	0.1213	0.1213	0.6291	0.048
Mof_C 	C 	0.15489	0.15489	0.61528	-0.135
Mof_H 	H 	0.1522	0.1522	0.5927	0.088
Mof_C 	C 	0.17659	0.17659	0.62682	0.127
Mof_C 	C 	0.18082	0.18082	0.65951	-0.051
Mof_C 	C 	0.20308	0.20308	0.67151	0.022
Mof_H 	H 	0.2059	0.2059	0.6941	0.02
Mof_C 	C 	0.22134	0.22134	0.64902	-0.154
Mof_H 	H 	0.2366	0.2366	0.6566	0.079
Mof_C 	C 	0.2173	0.2173	0.6169	0.163
Mof_C 	C 	0.19508	0.19508	0.60488	-0.195
Mof_H 	H 	0.1924	0.1924	0.5823	0.145
Mof_C 	C 	0.23252	0.23252	0.55872	0.199
Mof_C 	C 	0.24658	0.24658	0.52803	-0.059
Mof_C 	C 	0.27078	0.27078	0.52846	0.045
Mof_H 	H 	0.2789	0.2789	0.5482	0.019
Mof_N 	N 	0.12687	0.12687	0.7249	-0.268
Mof_N 	N 	0.2376	0.2376	0.59198	-0.219
Mof_H 	H 	0.2518	0.2518	0.5987	0.12
Mof_O 	O 	0.10151	0.10151	0.67831	-0.207
Mof_O 	O 	0.21129	0.21129	0.55266	-0.227
Mof_C 	C 	0.58382	0.41618	0.69169	0.011
Mof_H 	H 	0.574	0.426	0.6735	0.059
Mof_C 	C 	0.61163	0.38837	0.74566	0.094
Mof_C 	C 	0.62018	0.37982	0.80819	0.201
Mof_C 	C 	0.66253	0.33747	0.81883	-0.011
Mof_H 	H 	0.6654	0.3346	0.7963	0.025
Mof_C 	C 	0.64093	0.35907	0.82988	-0.061
Mof_C 	C 	0.63657	0.36343	0.86316	0.027
Mof_H 	H 	0.6213	0.3787	0.8709	0.049
Mof_C 	C 	0.65489	0.34511	0.88472	-0.134
Mof_H 	H 	0.6522	0.3478	0.9073	0.089
Mof_C 	C 	0.67659	0.32341	0.87318	0.127
Mof_C 	C 	0.68082	0.31918	0.84049	-0.051
Mof_C 	C 	0.70308	0.29692	0.82849	0.022
Mof_H 	H 	0.7059	0.2941	0.8059	0.019
Mof_C 	C 	0.72134	0.27866	0.85098	-0.154
Mof_H 	H 	0.7366	0.2634	0.8434	0.079
Mof_C 	C 	0.7173	0.2827	0.8831	0.163
Mof_C 	C 	0.69508	0.30492	0.89512	-0.195
Mof_H 	H 	0.6924	0.3076	0.9177	0.146
Mof_C 	C 	0.73252	0.26748	0.94128	0.198
Mof_C 	C 	0.74658	0.25342	0.97197	-0.053
Mof_C 	C 	0.77078	0.22922	0.97154	0.048
Mof_H 	H 	0.7789	0.2211	0.9518	0.019
Mof_N 	N 	0.62687	0.37313	0.7751	-0.268
Mof_N 	N 	0.7376	0.2624	0.90802	-0.218
Mof_H 	H 	0.7518	0.2482	0.9013	0.12
Mof_O 	O 	0.60151	0.39849	0.82169	-0.205
Mof_O 	O 	0.71129	0.28871	0.94734	-0.225
Mof_C 	C 	0.08382	0.91618	0.19169	0.011
Mof_H 	H 	0.074	0.926	0.1735	0.059
Mof_C 	C 	0.11163	0.88837	0.24566	0.094
Mof_C 	C 	0.12018	0.87982	0.30819	0.201
Mof_C 	C 	0.16253	0.83747	0.31883	-0.011
Mof_H 	H 	0.1654	0.8346	0.2963	0.025
Mof_C 	C 	0.14093	0.85907	0.32988	-0.061
Mof_C 	C 	0.13657	0.86343	0.36316	0.027
Mof_H 	H 	0.1213	0.8787	0.3709	0.048
Mof_C 	C 	0.15489	0.84511	0.38472	-0.134
Mof_H 	H 	0.1522	0.8478	0.4073	0.089
Mof_C 	C 	0.17659	0.82341	0.37318	0.127
Mof_C 	C 	0.18082	0.81918	0.34049	-0.05
Mof_C 	C 	0.20308	0.79692	0.32849	0.022
Mof_H 	H 	0.2059	0.7941	0.3059	0.02
Mof_C 	C 	0.22134	0.77866	0.35098	-0.154
Mof_H 	H 	0.2366	0.7634	0.3434	0.079
Mof_C 	C 	0.2173	0.7827	0.3831	0.163
Mof_C 	C 	0.19508	0.80492	0.39512	-0.195
Mof_H 	H 	0.1924	0.8076	0.4177	0.146
Mof_C 	C 	0.23252	0.76748	0.44128	0.199
Mof_C 	C 	0.24658	0.75342	0.47197	-0.059
Mof_C 	C 	0.27078	0.72922	0.47154	0.045
Mof_H 	H 	0.2789	0.7211	0.4518	0.019
Mof_N 	N 	0.12687	0.87313	0.2751	-0.268
Mof_N 	N 	0.2376	0.7624	0.40802	-0.219
Mof_H 	H 	0.2518	0.7482	0.4013	0.12
Mof_O 	O 	0.10151	0.89849	0.32169	-0.205
Mof_O 	O 	0.21129	0.78871	0.44734	-0.227
Mof_C 	C 	0.30831	0.41618	0.41618	0.011
Mof_H 	H 	0.3265	0.426	0.426	0.059
Mof_C 	C 	0.25434	0.38837	0.38837	0.094
Mof_C 	C 	0.19181	0.37982	0.37982	0.201
Mof_C 	C 	0.18117	0.33747	0.33747	-0.011
Mof_H 	H 	0.2037	0.3346	0.3346	0.025
Mof_C 	C 	0.17012	0.35907	0.35907	-0.061
Mof_C 	C 	0.13684	0.36343	0.36343	0.027
Mof_H 	H 	0.1291	0.3787	0.3787	0.048
Mof_C 	C 	0.11528	0.34511	0.34511	-0.134
Mof_H 	H 	0.0927	0.3478	0.3478	0.088
Mof_C 	C 	0.12682	0.32341	0.32341	0.126
Mof_C 	C 	0.15951	0.31918	0.31918	-0.05
Mof_C 	C 	0.17151	0.29692	0.29692	0.022
Mof_H 	H 	0.1941	0.2941	0.2941	0.02
Mof_C 	C 	0.14902	0.27866	0.27866	-0.154
Mof_H 	H 	0.1566	0.2634	0.2634	0.079
Mof_C 	C 	0.1169	0.2827	0.2827	0.163
Mof_C 	C 	0.10488	0.30492	0.30492	-0.195
Mof_H 	H 	0.0823	0.3076	0.3076	0.145
Mof_C 	C 	0.05872	0.26748	0.26748	0.198
Mof_C 	C 	0.02803	0.25342	0.25342	-0.057
Mof_C 	C 	0.02846	0.22922	0.22922	0.044
Mof_H 	H 	0.0482	0.2211	0.2211	0.02
Mof_N 	N 	0.2249	0.37313	0.37313	-0.268
Mof_N 	N 	0.09198	0.2624	0.2624	-0.219
Mof_H 	H 	0.0987	0.2482	0.2482	0.12
Mof_O 	O 	0.17831	0.39849	0.39849	-0.206
Mof_O 	O 	0.05266	0.28871	0.28871	-0.227
Mof_C 	C 	0.80831	0.91618	0.91618	0.01
Mof_H 	H 	0.8265	0.926	0.926	0.06
Mof_C 	C 	0.75434	0.88837	0.88837	0.094
Mof_C 	C 	0.69181	0.87982	0.87982	0.201
Mof_C 	C 	0.68117	0.83747	0.83747	-0.011
Mof_H 	H 	0.7037	0.8346	0.8346	0.025
Mof_C 	C 	0.67012	0.85907	0.85907	-0.061
Mof_C 	C 	0.63684	0.86343	0.86343	0.027
Mof_H 	H 	0.6291	0.8787	0.8787	0.049
Mof_C 	C 	0.61528	0.84511	0.84511	-0.134
Mof_H 	H 	0.5927	0.8478	0.8478	0.089
Mof_C 	C 	0.62682	0.82341	0.82341	0.127
Mof_C 	C 	0.65951	0.81918	0.81918	-0.05
Mof_C 	C 	0.67151	0.79692	0.79692	0.022
Mof_H 	H 	0.6941	0.7941	0.7941	0.02
Mof_C 	C 	0.64902	0.77866	0.77866	-0.154
Mof_H 	H 	0.6566	0.7634	0.7634	0.079
Mof_C 	C 	0.6169	0.7827	0.7827	0.163
Mof_C 	C 	0.60488	0.80492	0.80492	-0.195
Mof_H 	H 	0.5823	0.8076	0.8076	0.146
Mof_C 	C 	0.55872	0.76748	0.76748	0.199
Mof_C 	C 	0.52803	0.75342	0.75342	-0.058
Mof_C 	C 	0.52846	0.72922	0.72922	0.045
Mof_H 	H 	0.5482	0.7211	0.7211	0.019
Mof_N 	N 	0.7249	0.87313	0.87313	-0.268
Mof_N 	N 	0.59198	0.7624	0.7624	-0.219
Mof_H 	H 	0.5987	0.7482	0.7482	0.12
Mof_O 	O 	0.67831	0.89849	0.89849	-0.204
Mof_O 	O 	0.55266	0.78871	0.78871	-0.227
Mof_C 	C 	0.69169	0.41618	0.58382	0.011
Mof_H 	H 	0.6735	0.426	0.574	0.059
Mof_C 	C 	0.74566	0.38837	0.61163	0.094
Mof_C 	C 	0.80819	0.37982	0.62018	0.201
Mof_C 	C 	0.81883	0.33747	0.66253	-0.011
Mof_H 	H 	0.7963	0.3346	0.6654	0.025
Mof_C 	C 	0.82988	0.35907	0.64093	-0.061
Mof_C 	C 	0.86316	0.36343	0.63657	0.027
Mof_H 	H 	0.8709	0.3787	0.6213	0.049
Mof_C 	C 	0.88472	0.34511	0.65489	-0.134
Mof_H 	H 	0.9073	0.3478	0.6522	0.089
Mof_C 	C 	0.87318	0.32341	0.67659	0.127
Mof_C 	C 	0.84049	0.31918	0.68082	-0.051
Mof_C 	C 	0.82849	0.29692	0.70308	0.022
Mof_H 	H 	0.8059	0.2941	0.7059	0.019
Mof_C 	C 	0.85098	0.27866	0.72134	-0.154
Mof_H 	H 	0.8434	0.2634	0.7366	0.079
Mof_C 	C 	0.8831	0.2827	0.7173	0.163
Mof_C 	C 	0.89512	0.30492	0.69508	-0.195
Mof_H 	H 	0.9177	0.3076	0.6924	0.146
Mof_C 	C 	0.94128	0.26748	0.73252	0.198
Mof_C 	C 	0.97197	0.25342	0.74658	-0.053
Mof_C 	C 	0.97154	0.22922	0.77078	0.048
Mof_H 	H 	0.9518	0.2211	0.7789	0.019
Mof_N 	N 	0.7751	0.37313	0.62687	-0.268
Mof_N 	N 	0.90802	0.2624	0.7376	-0.218
Mof_H 	H 	0.9013	0.2482	0.7518	0.12
Mof_O 	O 	0.82169	0.39849	0.60151	-0.205
Mof_O 	O 	0.94734	0.28871	0.71129	-0.225
Mof_C 	C 	0.19169	0.91618	0.08382	0.011
Mof_H 	H 	0.1735	0.926	0.074	0.059
Mof_C 	C 	0.24566	0.88837	0.11163	0.094
Mof_C 	C 	0.30819	0.87982	0.12018	0.201
Mof_C 	C 	0.31883	0.83747	0.16253	-0.011
Mof_H 	H 	0.2963	0.8346	0.1654	0.025
Mof_C 	C 	0.32988	0.85907	0.14093	-0.061
Mof_C 	C 	0.36316	0.86343	0.13657	0.027
Mof_H 	H 	0.3709	0.8787	0.1213	0.048
Mof_C 	C 	0.38472	0.84511	0.15489	-0.134
Mof_H 	H 	0.4073	0.8478	0.1522	0.089
Mof_C 	C 	0.37318	0.82341	0.17659	0.127
Mof_C 	C 	0.34049	0.81918	0.18082	-0.05
Mof_C 	C 	0.32849	0.79692	0.20308	0.022
Mof_H 	H 	0.3059	0.7941	0.2059	0.02
Mof_C 	C 	0.35098	0.77866	0.22134	-0.154
Mof_H 	H 	0.3434	0.7634	0.2366	0.079
Mof_C 	C 	0.3831	0.7827	0.2173	0.163
Mof_C 	C 	0.39512	0.80492	0.19508	-0.195
Mof_H 	H 	0.4177	0.8076	0.1924	0.146
Mof_C 	C 	0.44128	0.76748	0.23252	0.199
Mof_C 	C 	0.47197	0.75342	0.24658	-0.059
Mof_C 	C 	0.47154	0.72922	0.27078	0.045
Mof_H 	H 	0.4518	0.7211	0.2789	0.019
Mof_N 	N 	0.2751	0.87313	0.12687	-0.268
Mof_N 	N 	0.40802	0.7624	0.2376	-0.219
Mof_H 	H 	0.4013	0.7482	0.2518	0.12
Mof_O 	O 	0.32169	0.89849	0.10151	-0.205
Mof_O 	O 	0.44734	0.78871	0.21129	-0.227
Mof_C 	C 	0.30831	0.58382	0.58382	0.011
Mof_H 	H 	0.3265	0.574	0.574	0.059
Mof_C 	C 	0.25434	0.61163	0.61163	0.094
Mof_C 	C 	0.19181	0.62018	0.62018	0.201
Mof_C 	C 	0.18117	0.66253	0.66253	-0.011
Mof_H 	H 	0.2037	0.6654	0.6654	0.025
Mof_C 	C 	0.17012	0.64093	0.64093	-0.061
Mof_C 	C 	0.13684	0.63657	0.63657	0.027
Mof_H 	H 	0.1291	0.6213	0.6213	0.048
Mof_C 	C 	0.11528	0.65489	0.65489	-0.134
Mof_H 	H 	0.0927	0.6522	0.6522	0.088
Mof_C 	C 	0.12682	0.67659	0.67659	0.126
Mof_C 	C 	0.15951	0.68082	0.68082	-0.05
Mof_C 	C 	0.17151	0.70308	0.70308	0.022
Mof_H 	H 	0.1941	0.7059	0.7059	0.02
Mof_C 	C 	0.14902	0.72134	0.72134	-0.154
Mof_H 	H 	0.1566	0.7366	0.7366	0.079
Mof_C 	C 	0.1169	0.7173	0.7173	0.163
Mof_C 	C 	0.10488	0.69508	0.69508	-0.195
Mof_H 	H 	0.0823	0.6924	0.6924	0.145
Mof_C 	C 	0.05872	0.73252	0.73252	0.198
Mof_C 	C 	0.02803	0.74658	0.74658	-0.057
Mof_C 	C 	0.02846	0.77078	0.77078	0.044
Mof_H 	H 	0.0482	0.7789	0.7789	0.02
Mof_N 	N 	0.2249	0.62687	0.62687	-0.268
Mof_N 	N 	0.09198	0.7376	0.7376	-0.219
Mof_H 	H 	0.0987	0.7518	0.7518	0.119
Mof_O 	O 	0.17831	0.60151	0.60151	-0.206
Mof_O 	O 	0.05266	0.71129	0.71129	-0.227
Mof_C 	C 	0.80831	0.08382	0.08382	0.011
Mof_H 	H 	0.8265	0.074	0.074	0.058
Mof_C 	C 	0.75434	0.11163	0.11163	0.093
Mof_C 	C 	0.69181	0.12018	0.12018	0.201
Mof_C 	C 	0.68117	0.16253	0.16253	-0.011
Mof_H 	H 	0.7037	0.1654	0.1654	0.025
Mof_C 	C 	0.67012	0.14093	0.14093	-0.061
Mof_C 	C 	0.63684	0.13657	0.13657	0.027
Mof_H 	H 	0.6291	0.1213	0.1213	0.048
Mof_C 	C 	0.61528	0.15489	0.15489	-0.135
Mof_H 	H 	0.5927	0.1522	0.1522	0.088
Mof_C 	C 	0.62682	0.17659	0.17659	0.127
Mof_C 	C 	0.65951	0.18082	0.18082	-0.051
Mof_C 	C 	0.67151	0.20308	0.20308	0.022
Mof_H 	H 	0.6941	0.2059	0.2059	0.02
Mof_C 	C 	0.64902	0.22134	0.22134	-0.154
Mof_H 	H 	0.6566	0.2366	0.2366	0.079
Mof_C 	C 	0.6169	0.2173	0.2173	0.163
Mof_C 	C 	0.60488	0.19508	0.19508	-0.195
Mof_H 	H 	0.5823	0.1924	0.1924	0.145
Mof_C 	C 	0.55872	0.23252	0.23252	0.199
Mof_C 	C 	0.52803	0.24658	0.24658	-0.059
Mof_C 	C 	0.52846	0.27078	0.27078	0.045
Mof_H 	H 	0.5482	0.2789	0.2789	0.019
Mof_N 	N 	0.7249	0.12687	0.12687	-0.268
Mof_N 	N 	0.59198	0.2376	0.2376	-0.219
Mof_H 	H 	0.5987	0.2518	0.2518	0.12
Mof_O 	O 	0.67831	0.10151	0.10151	-0.207
Mof_O 	O 	0.55266	0.21129	0.21129	-0.227
Mof_C 	C 	0.69169	0.58382	0.41618	0.011
Mof_H 	H 	0.6735	0.574	0.426	0.059
Mof_C 	C 	0.74566	0.61163	0.38837	0.094
Mof_C 	C 	0.80819	0.62018	0.37982	0.201
Mof_C 	C 	0.81883	0.66253	0.33747	-0.011
Mof_H 	H 	0.7963	0.6654	0.3346	0.025
Mof_C 	C 	0.82988	0.64093	0.35907	-0.061
Mof_C 	C 	0.86316	0.63657	0.36343	0.027
Mof_H 	H 	0.8709	0.6213	0.3787	0.049
Mof_C 	C 	0.88472	0.65489	0.34511	-0.134
Mof_H 	H 	0.9073	0.6522	0.3478	0.089
Mof_C 	C 	0.87318	0.67659	0.32341	0.127
Mof_C 	C 	0.84049	0.68082	0.31918	-0.051
Mof_C 	C 	0.82849	0.70308	0.29692	0.022
Mof_H 	H 	0.8059	0.7059	0.2941	0.019
Mof_C 	C 	0.85098	0.72134	0.27866	-0.154
Mof_H 	H 	0.8434	0.7366	0.2634	0.079
Mof_C 	C 	0.8831	0.7173	0.2827	0.163
Mof_C 	C 	0.89512	0.69508	0.30492	-0.195
Mof_H 	H 	0.9177	0.6924	0.3076	0.146
Mof_C 	C 	0.94128	0.73252	0.26748	0.198
Mof_C 	C 	0.97197	0.74658	0.25342	-0.053
Mof_C 	C 	0.97154	0.77078	0.22922	0.048
Mof_H 	H 	0.9518	0.7789	0.2211	0.019
Mof_N 	N 	0.7751	0.62687	0.37313	-0.268
Mof_N 	N 	0.90802	0.7376	0.2624	-0.218
Mof_H 	H 	0.9013	0.7518	0.2482	0.12
Mof_O 	O 	0.82169	0.60151	0.39849	-0.205
Mof_O 	O 	0.94734	0.71129	0.28871	-0.225
Mof_C 	C 	0.19169	0.08382	0.91618	0.011
Mof_H 	H 	0.1735	0.074	0.926	0.059
Mof_C 	C 	0.24566	0.11163	0.88837	0.094
Mof_C 	C 	0.30819	0.12018	0.87982	0.201
Mof_C 	C 	0.31883	0.16253	0.83747	-0.011
Mof_H 	H 	0.2963	0.1654	0.8346	0.025
Mof_C 	C 	0.32988	0.14093	0.85907	-0.061
Mof_C 	C 	0.36316	0.13657	0.86343	0.027
Mof_H 	H 	0.3709	0.1213	0.8787	0.048
Mof_C 	C 	0.38472	0.15489	0.84511	-0.134
Mof_H 	H 	0.4073	0.1522	0.8478	0.089
Mof_C 	C 	0.37318	0.17659	0.82341	0.127
Mof_C 	C 	0.34049	0.18082	0.81918	-0.05
Mof_C 	C 	0.32849	0.20308	0.79692	0.022
Mof_H 	H 	0.3059	0.2059	0.7941	0.02
Mof_C 	C 	0.35098	0.22134	0.77866	-0.154
Mof_H 	H 	0.3434	0.2366	0.7634	0.079
Mof_C 	C 	0.3831	0.2173	0.7827	0.163
Mof_C 	C 	0.39512	0.19508	0.80492	-0.195
Mof_H 	H 	0.4177	0.1924	0.8076	0.146
Mof_C 	C 	0.44128	0.23252	0.76748	0.199
Mof_C 	C 	0.47197	0.24658	0.75342	-0.059
Mof_C 	C 	0.47154	0.27078	0.72922	0.045
Mof_H 	H 	0.4518	0.2789	0.7211	0.019
Mof_N 	N 	0.2751	0.12687	0.87313	-0.268
Mof_N 	N 	0.40802	0.2376	0.7624	-0.219
Mof_H 	H 	0.4013	0.2518	0.7482	0.12
Mof_O 	O 	0.32169	0.10151	0.89849	-0.205
Mof_O 	O 	0.44734	0.21129	0.78871	-0.227
Mof_C 	C 	0.30831	0.41618	0.58382	0.011
Mof_H 	H 	0.3265	0.426	0.574	0.059
Mof_C 	C 	0.25434	0.38837	0.61163	0.094
Mof_C 	C 	0.19181	0.37982	0.62018	0.201
Mof_C 	C 	0.18117	0.33747	0.66253	-0.011
Mof_H 	H 	0.2037	0.3346	0.6654	0.025
Mof_C 	C 	0.17012	0.35907	0.64093	-0.061
Mof_C 	C 	0.13684	0.36343	0.63657	0.027
Mof_H 	H 	0.1291	0.3787	0.6213	0.048
Mof_C 	C 	0.11528	0.34511	0.65489	-0.134
Mof_H 	H 	0.0927	0.3478	0.6522	0.088
Mof_C 	C 	0.12682	0.32341	0.67659	0.126
Mof_C 	C 	0.15951	0.31918	0.68082	-0.05
Mof_C 	C 	0.17151	0.29692	0.70308	0.022
Mof_H 	H 	0.1941	0.2941	0.7059	0.02
Mof_C 	C 	0.14902	0.27866	0.72134	-0.154
Mof_H 	H 	0.1566	0.2634	0.7366	0.079
Mof_C 	C 	0.1169	0.2827	0.7173	0.163
Mof_C 	C 	0.10488	0.30492	0.69508	-0.195
Mof_H 	H 	0.0823	0.3076	0.6924	0.145
Mof_C 	C 	0.05872	0.26748	0.73252	0.198
Mof_C 	C 	0.02803	0.25342	0.74658	-0.057
Mof_C 	C 	0.02846	0.22922	0.77078	0.044
Mof_H 	H 	0.0482	0.2211	0.7789	0.02
Mof_N 	N 	0.2249	0.37313	0.62687	-0.268
Mof_N 	N 	0.09198	0.2624	0.7376	-0.219
Mof_H 	H 	0.0987	0.2482	0.7518	0.12
Mof_O 	O 	0.17831	0.39849	0.60151	-0.206
Mof_O 	O 	0.05266	0.28871	0.71129	-0.227
Mof_C 	C 	0.80831	0.91618	0.08382	0.011
Mof_H 	H 	0.8265	0.926	0.074	0.059
Mof_C 	C 	0.75434	0.88837	0.11163	0.094
Mof_C 	C 	0.69181	0.87982	0.12018	0.201
Mof_C 	C 	0.68117	0.83747	0.16253	-0.011
Mof_H 	H 	0.7037	0.8346	0.1654	0.025
Mof_C 	C 	0.67012	0.85907	0.14093	-0.061
Mof_C 	C 	0.63684	0.86343	0.13657	0.027
Mof_H 	H 	0.6291	0.8787	0.1213	0.048
Mof_C 	C 	0.61528	0.84511	0.15489	-0.134
Mof_H 	H 	0.5927	0.8478	0.1522	0.089
Mof_C 	C 	0.62682	0.82341	0.17659	0.127
Mof_C 	C 	0.65951	0.81918	0.18082	-0.051
Mof_C 	C 	0.67151	0.79692	0.20308	0.022
Mof_H 	H 	0.6941	0.7941	0.2059	0.02
Mof_C 	C 	0.64902	0.77866	0.22134	-0.154
Mof_H 	H 	0.6566	0.7634	0.2366	0.079
Mof_C 	C 	0.6169	0.7827	0.2173	0.163
Mof_C 	C 	0.60488	0.80492	0.19508	-0.195
Mof_H 	H 	0.5823	0.8076	0.1924	0.146
Mof_C 	C 	0.55872	0.76748	0.23252	0.199
Mof_C 	C 	0.52803	0.75342	0.24658	-0.059
Mof_C 	C 	0.52846	0.72922	0.27078	0.045
Mof_H 	H 	0.5482	0.7211	0.2789	0.019
Mof_N 	N 	0.7249	0.87313	0.12687	-0.268
Mof_N 	N 	0.59198	0.7624	0.2376	-0.219
Mof_H 	H 	0.5987	0.7482	0.2518	0.12
Mof_O 	O 	0.67831	0.89849	0.10151	-0.205
Mof_O 	O 	0.55266	0.78871	0.21129	-0.227
Mof_C 	C 	0.69169	0.58382	0.58382	0.011
Mof_H 	H 	0.6735	0.574	0.574	0.059
Mof_C 	C 	0.74566	0.61163	0.61163	0.094
Mof_C 	C 	0.80819	0.62018	0.62018	0.201
Mof_C 	C 	0.81883	0.66253	0.66253	-0.011
Mof_H 	H 	0.7963	0.6654	0.6654	0.025
Mof_C 	C 	0.82988	0.64093	0.64093	-0.061
Mof_C 	C 	0.86316	0.63657	0.63657	0.027
Mof_H 	H 	0.8709	0.6213	0.6213	0.049
Mof_C 	C 	0.88472	0.65489	0.65489	-0.134
Mof_H 	H 	0.9073	0.6522	0.6522	0.089
Mof_C 	C 	0.87318	0.67659	0.67659	0.127
Mof_C 	C 	0.84049	0.68082	0.68082	-0.051
Mof_C 	C 	0.82849	0.70308	0.70308	0.022
Mof_H 	H 	0.8059	0.7059	0.7059	0.019
Mof_C 	C 	0.85098	0.72134	0.72134	-0.154
Mof_H 	H 	0.8434	0.7366	0.7366	0.079
Mof_C 	C 	0.8831	0.7173	0.7173	0.163
Mof_C 	C 	0.89512	0.69508	0.69508	-0.195
Mof_H 	H 	0.9177	0.6924	0.6924	0.146
Mof_C 	C 	0.94128	0.73252	0.73252	0.198
Mof_C 	C 	0.97197	0.74658	0.74658	-0.053
Mof_C 	C 	0.97154	0.77078	0.77078	0.048
Mof_H 	H 	0.9518	0.7789	0.7789	0.019
Mof_N 	N 	0.7751	0.62687	0.62687	-0.268
Mof_N 	N 	0.90802	0.7376	0.7376	-0.218
Mof_H 	H 	0.9013	0.7518	0.7518	0.12
Mof_O 	O 	0.82169	0.60151	0.60151	-0.205
Mof_O 	O 	0.94734	0.71129	0.71129	-0.225
Mof_C 	C 	0.19169	0.08382	0.08382	0.011
Mof_H 	H 	0.1735	0.074	0.074	0.058
Mof_C 	C 	0.24566	0.11163	0.11163	0.093
Mof_C 	C 	0.30819	0.12018	0.12018	0.201
Mof_C 	C 	0.31883	0.16253	0.16253	-0.011
Mof_H 	H 	0.2963	0.1654	0.1654	0.025
Mof_C 	C 	0.32988	0.14093	0.14093	-0.061
Mof_C 	C 	0.36316	0.13657	0.13657	0.027
Mof_H 	H 	0.3709	0.1213	0.1213	0.048
Mof_C 	C 	0.38472	0.15489	0.15489	-0.135
Mof_H 	H 	0.4073	0.1522	0.1522	0.088
Mof_C 	C 	0.37318	0.17659	0.17659	0.127
Mof_C 	C 	0.34049	0.18082	0.18082	-0.051
Mof_C 	C 	0.32849	0.20308	0.20308	0.022
Mof_H 	H 	0.3059	0.2059	0.2059	0.02
Mof_C 	C 	0.35098	0.22134	0.22134	-0.154
Mof_H 	H 	0.3434	0.2366	0.2366	0.079
Mof_C 	C 	0.3831	0.2173	0.2173	0.163
Mof_C 	C 	0.39512	0.19508	0.19508	-0.195
Mof_H 	H 	0.4177	0.1924	0.1924	0.145
Mof_C 	C 	0.44128	0.23252	0.23252	0.199
Mof_C 	C 	0.47197	0.24658	0.24658	-0.059
Mof_C 	C 	0.47154	0.27078	0.27078	0.045
Mof_H 	H 	0.4518	0.2789	0.2789	0.019
Mof_N 	N 	0.2751	0.12687	0.12687	-0.268
Mof_N 	N 	0.40802	0.2376	0.2376	-0.219
Mof_H 	H 	0.4013	0.2518	0.2518	0.12
Mof_O 	O 	0.32169	0.10151	0.10151	-0.206
Mof_O 	O 	0.44734	0.21129	0.21129	-0.227
Mof_C 	C 	0.30831	0.58382	0.41618	0.011
Mof_H 	H 	0.3265	0.574	0.426	0.059
Mof_C 	C 	0.25434	0.61163	0.38837	0.094
Mof_C 	C 	0.19181	0.62018	0.37982	0.201
Mof_C 	C 	0.18117	0.66253	0.33747	-0.011
Mof_H 	H 	0.2037	0.6654	0.3346	0.025
Mof_C 	C 	0.17012	0.64093	0.35907	-0.061
Mof_C 	C 	0.13684	0.63657	0.36343	0.027
Mof_H 	H 	0.1291	0.6213	0.3787	0.048
Mof_C 	C 	0.11528	0.65489	0.34511	-0.134
Mof_H 	H 	0.0927	0.6522	0.3478	0.088
Mof_C 	C 	0.12682	0.67659	0.32341	0.126
Mof_C 	C 	0.15951	0.68082	0.31918	-0.05
Mof_C 	C 	0.17151	0.70308	0.29692	0.022
Mof_H 	H 	0.1941	0.7059	0.2941	0.02
Mof_C 	C 	0.14902	0.72134	0.27866	-0.154
Mof_H 	H 	0.1566	0.7366	0.2634	0.079
Mof_C 	C 	0.1169	0.7173	0.2827	0.163
Mof_C 	C 	0.10488	0.69508	0.30492	-0.195
Mof_H 	H 	0.0823	0.6924	0.3076	0.145
Mof_C 	C 	0.05872	0.73252	0.26748	0.198
Mof_C 	C 	0.02803	0.74658	0.25342	-0.057
Mof_C 	C 	0.02846	0.77078	0.22922	0.044
Mof_H 	H 	0.0482	0.7789	0.2211	0.02
Mof_N 	N 	0.2249	0.62687	0.37313	-0.268
Mof_N 	N 	0.09198	0.7376	0.2624	-0.219
Mof_H 	H 	0.0987	0.7518	0.2482	0.12
Mof_O 	O 	0.17831	0.60151	0.39849	-0.206
Mof_O 	O 	0.05266	0.71129	0.28871	-0.227
Mof_C 	C 	0.80831	0.08382	0.91618	0.011
Mof_H 	H 	0.8265	0.074	0.926	0.059
Mof_C 	C 	0.75434	0.11163	0.88837	0.094
Mof_C 	C 	0.69181	0.12018	0.87982	0.201
Mof_C 	C 	0.68117	0.16253	0.83747	-0.011
Mof_H 	H 	0.7037	0.1654	0.8346	0.025
Mof_C 	C 	0.67012	0.14093	0.85907	-0.061
Mof_C 	C 	0.63684	0.13657	0.86343	0.027
Mof_H 	H 	0.6291	0.1213	0.8787	0.048
Mof_C 	C 	0.61528	0.15489	0.84511	-0.134
Mof_H 	H 	0.5927	0.1522	0.8478	0.089
Mof_C 	C 	0.62682	0.17659	0.82341	0.127
Mof_C 	C 	0.65951	0.18082	0.81918	-0.051
Mof_C 	C 	0.67151	0.20308	0.79692	0.022
Mof_H 	H 	0.6941	0.2059	0.7941	0.02
Mof_C 	C 	0.64902	0.22134	0.77866	-0.154
Mof_H 	H 	0.6566	0.2366	0.7634	0.079
Mof_C 	C 	0.6169	0.2173	0.7827	0.163
Mof_C 	C 	0.60488	0.19508	0.80492	-0.195
Mof_H 	H 	0.5823	0.1924	0.8076	0.146
Mof_C 	C 	0.55872	0.23252	0.76748	0.199
Mof_C 	C 	0.52803	0.24658	0.75342	-0.059
Mof_C 	C 	0.52846	0.27078	0.72922	0.045
Mof_H 	H 	0.5482	0.2789	0.7211	0.019
Mof_N 	N 	0.7249	0.12687	0.87313	-0.268
Mof_N 	N 	0.59198	0.2376	0.7624	-0.219
Mof_H 	H 	0.5987	0.2518	0.7482	0.12
Mof_O 	O 	0.67831	0.10151	0.89849	-0.205
Mof_O 	O 	0.55266	0.21129	0.78871	-0.227
Mof_C 	C 	0.69169	0.41618	0.41618	0.011
Mof_H 	H 	0.6735	0.426	0.426	0.059
Mof_C 	C 	0.74566	0.38837	0.38837	0.094
Mof_C 	C 	0.80819	0.37982	0.37982	0.201
Mof_C 	C 	0.81883	0.33747	0.33747	-0.011
Mof_H 	H 	0.7963	0.3346	0.3346	0.025
Mof_C 	C 	0.82988	0.35907	0.35907	-0.061
Mof_C 	C 	0.86316	0.36343	0.36343	0.027
Mof_H 	H 	0.8709	0.3787	0.3787	0.049
Mof_C 	C 	0.88472	0.34511	0.34511	-0.134
Mof_H 	H 	0.9073	0.3478	0.3478	0.089
Mof_C 	C 	0.87318	0.32341	0.32341	0.127
Mof_C 	C 	0.84049	0.31918	0.31918	-0.051
Mof_C 	C 	0.82849	0.29692	0.29692	0.022
Mof_H 	H 	0.8059	0.2941	0.2941	0.02
Mof_C 	C 	0.85098	0.27866	0.27866	-0.154
Mof_H 	H 	0.8434	0.2634	0.2634	0.079
Mof_C 	C 	0.8831	0.2827	0.2827	0.163
Mof_C 	C 	0.89512	0.30492	0.30492	-0.195
Mof_H 	H 	0.9177	0.3076	0.3076	0.146
Mof_C 	C 	0.94128	0.26748	0.26748	0.198
Mof_C 	C 	0.97197	0.25342	0.25342	-0.053
Mof_C 	C 	0.97154	0.22922	0.22922	0.048
Mof_H 	H 	0.9518	0.2211	0.2211	0.019
Mof_N 	N 	0.7751	0.37313	0.37313	-0.268
Mof_N 	N 	0.90802	0.2624	0.2624	-0.218
Mof_H 	H 	0.9013	0.2482	0.2482	0.12
Mof_O 	O 	0.82169	0.39849	0.39849	-0.205
Mof_O 	O 	0.94734	0.28871	0.28871	-0.225
Mof_C 	C 	0.19169	0.91618	0.91618	0.01
Mof_H 	H 	0.1735	0.926	0.926	0.06
Mof_C 	C 	0.24566	0.88837	0.88837	0.094
Mof_C 	C 	0.30819	0.87982	0.87982	0.201
Mof_C 	C 	0.31883	0.83747	0.83747	-0.011
Mof_H 	H 	0.2963	0.8346	0.8346	0.025
Mof_C 	C 	0.32988	0.85907	0.85907	-0.061
Mof_C 	C 	0.36316	0.86343	0.86343	0.027
Mof_H 	H 	0.3709	0.8787	0.8787	0.049
Mof_C 	C 	0.38472	0.84511	0.84511	-0.134
Mof_H 	H 	0.4073	0.8478	0.8478	0.089
Mof_C 	C 	0.37318	0.82341	0.82341	0.127
Mof_C 	C 	0.34049	0.81918	0.81918	-0.05
Mof_C 	C 	0.32849	0.79692	0.79692	0.022
Mof_H 	H 	0.3059	0.7941	0.7941	0.02
Mof_C 	C 	0.35098	0.77866	0.77866	-0.154
Mof_H 	H 	0.3434	0.7634	0.7634	0.079
Mof_C 	C 	0.3831	0.7827	0.7827	0.163
Mof_C 	C 	0.39512	0.80492	0.80492	-0.195
Mof_H 	H 	0.4177	0.8076	0.8076	0.146
Mof_C 	C 	0.44128	0.76748	0.76748	0.199
Mof_C 	C 	0.47197	0.75342	0.75342	-0.058
Mof_C 	C 	0.47154	0.72922	0.72922	0.045
Mof_H 	H 	0.4518	0.7211	0.7211	0.02
Mof_N 	N 	0.2751	0.87313	0.87313	-0.268
Mof_N 	N 	0.40802	0.7624	0.7624	-0.219
Mof_H 	H 	0.4013	0.7482	0.7482	0.12
Mof_O 	O 	0.32169	0.89849	0.89849	-0.204
Mof_O 	O 	0.44734	0.78871	0.78871	-0.227
Mof_C 	C 	0.41618	0.41618	0.69169	0.011
Mof_H 	H 	0.426	0.426	0.6735	0.059
Mof_C 	C 	0.38837	0.38837	0.74566	0.094
Mof_C 	C 	0.37982	0.37982	0.80819	0.201
Mof_C 	C 	0.33747	0.33747	0.81883	-0.011
Mof_H 	H 	0.3346	0.3346	0.7963	0.025
Mof_C 	C 	0.35907	0.35907	0.82988	-0.061
Mof_C 	C 	0.36343	0.36343	0.86316	0.027
Mof_H 	H 	0.3787	0.3787	0.8709	0.049
Mof_C 	C 	0.34511	0.34511	0.88472	-0.134
Mof_H 	H 	0.3478	0.3478	0.9073	0.089
Mof_C 	C 	0.32341	0.32341	0.87318	0.127
Mof_C 	C 	0.31918	0.31918	0.84049	-0.051
Mof_C 	C 	0.29692	0.29692	0.82849	0.022
Mof_H 	H 	0.2941	0.2941	0.8059	0.02
Mof_C 	C 	0.27866	0.27866	0.85098	-0.154
Mof_H 	H 	0.2634	0.2634	0.8434	0.079
Mof_C 	C 	0.2827	0.2827	0.8831	0.163
Mof_C 	C 	0.30492	0.30492	0.89512	-0.195
Mof_H 	H 	0.3076	0.3076	0.9177	0.146
Mof_C 	C 	0.26748	0.26748	0.94128	0.198
Mof_C 	C 	0.25342	0.25342	0.97197	-0.053
Mof_C 	C 	0.22922	0.22922	0.97154	0.048
Mof_H 	H 	0.2211	0.2211	0.9518	0.019
Mof_N 	N 	0.37313	0.37313	0.7751	-0.268
Mof_N 	N 	0.2624	0.2624	0.90802	-0.218
Mof_H 	H 	0.2482	0.2482	0.9013	0.12
Mof_O 	O 	0.39849	0.39849	0.82169	-0.205
Mof_O 	O 	0.28871	0.28871	0.94734	-0.225
Mof_C 	C 	0.91618	0.91618	0.19169	0.01
Mof_H 	H 	0.926	0.926	0.1735	0.06
Mof_C 	C 	0.88837	0.88837	0.24566	0.094
Mof_C 	C 	0.87982	0.87982	0.30819	0.201
Mof_C 	C 	0.83747	0.83747	0.31883	-0.011
Mof_H 	H 	0.8346	0.8346	0.2963	0.025
Mof_C 	C 	0.85907	0.85907	0.32988	-0.061
Mof_C 	C 	0.86343	0.86343	0.36316	0.027
Mof_H 	H 	0.8787	0.8787	0.3709	0.049
Mof_C 	C 	0.84511	0.84511	0.38472	-0.134
Mof_H 	H 	0.8478	0.8478	0.4073	0.089
Mof_C 	C 	0.82341	0.82341	0.37318	0.127
Mof_C 	C 	0.81918	0.81918	0.34049	-0.05
Mof_C 	C 	0.79692	0.79692	0.32849	0.022
Mof_H 	H 	0.7941	0.7941	0.3059	0.02
Mof_C 	C 	0.77866	0.77866	0.35098	-0.154
Mof_H 	H 	0.7634	0.7634	0.3434	0.079
Mof_C 	C 	0.7827	0.7827	0.3831	0.163
Mof_C 	C 	0.80492	0.80492	0.39512	-0.195
Mof_H 	H 	0.8076	0.8076	0.4177	0.146
Mof_C 	C 	0.76748	0.76748	0.44128	0.199
Mof_C 	C 	0.75342	0.75342	0.47197	-0.058
Mof_C 	C 	0.72922	0.72922	0.47154	0.045
Mof_H 	H 	0.7211	0.7211	0.4518	0.02
Mof_N 	N 	0.87313	0.87313	0.2751	-0.268
Mof_N 	N 	0.7624	0.7624	0.40802	-0.219
Mof_H 	H 	0.7482	0.7482	0.4013	0.12
Mof_O 	O 	0.89849	0.89849	0.32169	-0.204
Mof_O 	O 	0.78871	0.78871	0.44734	-0.227
Mof_C 	C 	0.58382	0.41618	0.30831	0.011
Mof_H 	H 	0.574	0.426	0.3265	0.059
Mof_C 	C 	0.61163	0.38837	0.25434	0.094
Mof_C 	C 	0.62018	0.37982	0.19181	0.201
Mof_C 	C 	0.66253	0.33747	0.18117	-0.011
Mof_H 	H 	0.6654	0.3346	0.2037	0.025
Mof_C 	C 	0.64093	0.35907	0.17012	-0.061
Mof_C 	C 	0.63657	0.36343	0.13684	0.027
Mof_H 	H 	0.6213	0.3787	0.1291	0.048
Mof_C 	C 	0.65489	0.34511	0.11528	-0.134
Mof_H 	H 	0.6522	0.3478	0.0927	0.088
Mof_C 	C 	0.67659	0.32341	0.12682	0.126
Mof_C 	C 	0.68082	0.31918	0.15951	-0.05
Mof_C 	C 	0.70308	0.29692	0.17151	0.022
Mof_H 	H 	0.7059	0.2941	0.1941	0.02
Mof_C 	C 	0.72134	0.27866	0.14902	-0.154
Mof_H 	H 	0.7366	0.2634	0.1566	0.079
Mof_C 	C 	0.7173	0.2827	0.1169	0.163
Mof_C 	C 	0.69508	0.30492	0.10488	-0.195
Mof_H 	H 	0.6924	0.3076	0.0823	0.145
Mof_C 	C 	0.73252	0.26748	0.05872	0.198
Mof_C 	C 	0.74658	0.25342	0.02803	-0.057
Mof_C 	C 	0.77078	0.22922	0.02846	0.044
Mof_H 	H 	0.7789	0.2211	0.0482	0.02
Mof_N 	N 	0.62687	0.37313	0.2249	-0.268
Mof_N 	N 	0.7376	0.2624	0.09198	-0.219
Mof_H 	H 	0.7518	0.2482	0.0987	0.12
Mof_O 	O 	0.60151	0.39849	0.17831	-0.206
Mof_O 	O 	0.71129	0.28871	0.05266	-0.227
Mof_C 	C 	0.08382	0.91618	0.80831	0.011
Mof_H 	H 	0.074	0.926	0.8265	0.059
Mof_C 	C 	0.11163	0.88837	0.75434	0.094
Mof_C 	C 	0.12018	0.87982	0.69181	0.201
Mof_C 	C 	0.16253	0.83747	0.68117	-0.011
Mof_H 	H 	0.1654	0.8346	0.7037	0.025
Mof_C 	C 	0.14093	0.85907	0.67012	-0.061
Mof_C 	C 	0.13657	0.86343	0.63684	0.027
Mof_H 	H 	0.1213	0.8787	0.6291	0.048
Mof_C 	C 	0.15489	0.84511	0.61528	-0.134
Mof_H 	H 	0.1522	0.8478	0.5927	0.089
Mof_C 	C 	0.17659	0.82341	0.62682	0.127
Mof_C 	C 	0.18082	0.81918	0.65951	-0.051
Mof_C 	C 	0.20308	0.79692	0.67151	0.022
Mof_H 	H 	0.2059	0.7941	0.6941	0.02
Mof_C 	C 	0.22134	0.77866	0.64902	-0.154
Mof_H 	H 	0.2366	0.7634	0.6566	0.079
Mof_C 	C 	0.2173	0.7827	0.6169	0.163
Mof_C 	C 	0.19508	0.80492	0.60488	-0.195
Mof_H 	H 	0.1924	0.8076	0.5823	0.146
Mof_C 	C 	0.23252	0.76748	0.55872	0.199
Mof_C 	C 	0.24658	0.75342	0.52803	-0.059
Mof_C 	C 	0.27078	0.72922	0.52846	0.045
Mof_H 	H 	0.2789	0.7211	0.5482	0.019
Mof_N 	N 	0.12687	0.87313	0.7249	-0.268
Mof_N 	N 	0.2376	0.7624	0.59198	-0.219
Mof_H 	H 	0.2518	0.7482	0.5987	0.12
Mof_O 	O 	0.10151	0.89849	0.67831	-0.205
Mof_O 	O 	0.21129	0.78871	0.55266	-0.227
Mof_C 	C 	0.58382	0.58382	0.69169	0.011
Mof_H 	H 	0.574	0.574	0.6735	0.059
Mof_C 	C 	0.61163	0.61163	0.74566	0.094
Mof_C 	C 	0.62018	0.62018	0.80819	0.201
Mof_C 	C 	0.66253	0.66253	0.81883	-0.011
Mof_H 	H 	0.6654	0.6654	0.7963	0.025
Mof_C 	C 	0.64093	0.64093	0.82988	-0.061
Mof_C 	C 	0.63657	0.63657	0.86316	0.027
Mof_H 	H 	0.6213	0.6213	0.8709	0.049
Mof_C 	C 	0.65489	0.65489	0.88472	-0.134
Mof_H 	H 	0.6522	0.6522	0.9073	0.089
Mof_C 	C 	0.67659	0.67659	0.87318	0.127
Mof_C 	C 	0.68082	0.68082	0.84049	-0.051
Mof_C 	C 	0.70308	0.70308	0.82849	0.022
Mof_H 	H 	0.7059	0.7059	0.8059	0.019
Mof_C 	C 	0.72134	0.72134	0.85098	-0.154
Mof_H 	H 	0.7366	0.7366	0.8434	0.079
Mof_C 	C 	0.7173	0.7173	0.8831	0.163
Mof_C 	C 	0.69508	0.69508	0.89512	-0.195
Mof_H 	H 	0.6924	0.6924	0.9177	0.146
Mof_C 	C 	0.73252	0.73252	0.94128	0.198
Mof_C 	C 	0.74658	0.74658	0.97197	-0.053
Mof_C 	C 	0.77078	0.77078	0.97154	0.048
Mof_H 	H 	0.7789	0.7789	0.9518	0.019
Mof_N 	N 	0.62687	0.62687	0.7751	-0.268
Mof_N 	N 	0.7376	0.7376	0.90802	-0.218
Mof_H 	H 	0.7518	0.7518	0.9013	0.12
Mof_O 	O 	0.60151	0.60151	0.82169	-0.205
Mof_O 	O 	0.71129	0.71129	0.94734	-0.225
Mof_C 	C 	0.08382	0.08382	0.19169	0.011
Mof_H 	H 	0.074	0.074	0.1735	0.058
Mof_C 	C 	0.11163	0.11163	0.24566	0.093
Mof_C 	C 	0.12018	0.12018	0.30819	0.201
Mof_C 	C 	0.16253	0.16253	0.31883	-0.011
Mof_H 	H 	0.1654	0.1654	0.2963	0.025
Mof_C 	C 	0.14093	0.14093	0.32988	-0.061
Mof_C 	C 	0.13657	0.13657	0.36316	0.027
Mof_H 	H 	0.1213	0.1213	0.3709	0.048
Mof_C 	C 	0.15489	0.15489	0.38472	-0.135
Mof_H 	H 	0.1522	0.1522	0.4073	0.088
Mof_C 	C 	0.17659	0.17659	0.37318	0.127
Mof_C 	C 	0.18082	0.18082	0.34049	-0.051
Mof_C 	C 	0.20308	0.20308	0.32849	0.022
Mof_H 	H 	0.2059	0.2059	0.3059	0.02
Mof_C 	C 	0.22134	0.22134	0.35098	-0.154
Mof_H 	H 	0.2366	0.2366	0.3434	0.079
Mof_C 	C 	0.2173	0.2173	0.3831	0.163
Mof_C 	C 	0.19508	0.19508	0.39512	-0.195
Mof_H 	H 	0.1924	0.1924	0.4177	0.145
Mof_C 	C 	0.23252	0.23252	0.44128	0.199
Mof_C 	C 	0.24658	0.24658	0.47197	-0.059
Mof_C 	C 	0.27078	0.27078	0.47154	0.045
Mof_H 	H 	0.2789	0.2789	0.4518	0.019
Mof_N 	N 	0.12687	0.12687	0.2751	-0.268
Mof_N 	N 	0.2376	0.2376	0.40802	-0.219
Mof_H 	H 	0.2518	0.2518	0.4013	0.12
Mof_O 	O 	0.10151	0.10151	0.32169	-0.206
Mof_O 	O 	0.21129	0.21129	0.44734	-0.227
Mof_C 	C 	0.41618	0.58382	0.30831	0.011
Mof_H 	H 	0.426	0.574	0.3265	0.059
Mof_C 	C 	0.38837	0.61163	0.25434	0.094
Mof_C 	C 	0.37982	0.62018	0.19181	0.201
Mof_C 	C 	0.33747	0.66253	0.18117	-0.011
Mof_H 	H 	0.3346	0.6654	0.2037	0.025
Mof_C 	C 	0.35907	0.64093	0.17012	-0.061
Mof_C 	C 	0.36343	0.63657	0.13684	0.027
Mof_H 	H 	0.3787	0.6213	0.1291	0.048
Mof_C 	C 	0.34511	0.65489	0.11528	-0.134
Mof_H 	H 	0.3478	0.6522	0.0927	0.088
Mof_C 	C 	0.32341	0.67659	0.12682	0.126
Mof_C 	C 	0.31918	0.68082	0.15951	-0.05
Mof_C 	C 	0.29692	0.70308	0.17151	0.022
Mof_H 	H 	0.2941	0.7059	0.1941	0.02
Mof_C 	C 	0.27866	0.72134	0.14902	-0.154
Mof_H 	H 	0.2634	0.7366	0.1566	0.079
Mof_C 	C 	0.2827	0.7173	0.1169	0.163
Mof_C 	C 	0.30492	0.69508	0.10488	-0.195
Mof_H 	H 	0.3076	0.6924	0.0823	0.145
Mof_C 	C 	0.26748	0.73252	0.05872	0.198
Mof_C 	C 	0.25342	0.74658	0.02803	-0.057
Mof_C 	C 	0.22922	0.77078	0.02846	0.044
Mof_H 	H 	0.2211	0.7789	0.0482	0.02
Mof_N 	N 	0.37313	0.62687	0.2249	-0.268
Mof_N 	N 	0.2624	0.7376	0.09198	-0.219
Mof_H 	H 	0.2482	0.7518	0.0987	0.12
Mof_O 	O 	0.39849	0.60151	0.17831	-0.206
Mof_O 	O 	0.28871	0.71129	0.05266	-0.227
Mof_C 	C 	0.91618	0.08382	0.80831	0.011
Mof_H 	H 	0.926	0.074	0.8265	0.059
Mof_C 	C 	0.88837	0.11163	0.75434	0.094
Mof_C 	C 	0.87982	0.12018	0.69181	0.201
Mof_C 	C 	0.83747	0.16253	0.68117	-0.011
Mof_H 	H 	0.8346	0.1654	0.7037	0.025
Mof_C 	C 	0.85907	0.14093	0.67012	-0.061
Mof_C 	C 	0.86343	0.13657	0.63684	0.027
Mof_H 	H 	0.8787	0.1213	0.6291	0.048
Mof_C 	C 	0.84511	0.15489	0.61528	-0.134
Mof_H 	H 	0.8478	0.1522	0.5927	0.089
Mof_C 	C 	0.82341	0.17659	0.62682	0.127
Mof_C 	C 	0.81918	0.18082	0.65951	-0.051
Mof_C 	C 	0.79692	0.20308	0.67151	0.022
Mof_H 	H 	0.7941	0.2059	0.6941	0.02
Mof_C 	C 	0.77866	0.22134	0.64902	-0.154
Mof_H 	H 	0.7634	0.2366	0.6566	0.079
Mof_C 	C 	0.7827	0.2173	0.6169	0.163
Mof_C 	C 	0.80492	0.19508	0.60488	-0.195
Mof_H 	H 	0.8076	0.1924	0.5823	0.146
Mof_C 	C 	0.76748	0.23252	0.55872	0.199
Mof_C 	C 	0.75342	0.24658	0.52803	-0.059
Mof_C 	C 	0.72922	0.27078	0.52846	0.045
Mof_H 	H 	0.7211	0.2789	0.5482	0.019
Mof_N 	N 	0.87313	0.12687	0.7249	-0.268
Mof_N 	N 	0.7624	0.2376	0.59198	-0.219
Mof_H 	H 	0.7482	0.2518	0.5987	0.12
Mof_O 	O 	0.89849	0.10151	0.67831	-0.205
Mof_O 	O 	0.78871	0.21129	0.55266	-0.227
Mof_C 	C 	0.41618	0.30831	0.58382	0.011
Mof_H 	H 	0.426	0.3265	0.574	0.059
Mof_C 	C 	0.38837	0.25434	0.61163	0.094
Mof_C 	C 	0.37982	0.19181	0.62018	0.201
Mof_C 	C 	0.33747	0.18117	0.66253	-0.011
Mof_H 	H 	0.3346	0.2037	0.6654	0.025
Mof_C 	C 	0.35907	0.17012	0.64093	-0.061
Mof_C 	C 	0.36343	0.13684	0.63657	0.027
Mof_H 	H 	0.3787	0.1291	0.6213	0.048
Mof_C 	C 	0.34511	0.11528	0.65489	-0.134
Mof_H 	H 	0.3478	0.0927	0.6522	0.088
Mof_C 	C 	0.32341	0.12682	0.67659	0.126
Mof_C 	C 	0.31918	0.15951	0.68082	-0.05
Mof_C 	C 	0.29692	0.17151	0.70308	0.022
Mof_H 	H 	0.2941	0.1941	0.7059	0.02
Mof_C 	C 	0.27866	0.14902	0.72134	-0.154
Mof_H 	H 	0.2634	0.1566	0.7366	0.079
Mof_C 	C 	0.2827	0.1169	0.7173	0.163
Mof_C 	C 	0.30492	0.10488	0.69508	-0.195
Mof_H 	H 	0.3076	0.0823	0.6924	0.145
Mof_C 	C 	0.26748	0.05872	0.73252	0.198
Mof_C 	C 	0.25342	0.02803	0.74658	-0.057
Mof_C 	C 	0.22922	0.02846	0.77078	0.044
Mof_H 	H 	0.2211	0.0482	0.7789	0.02
Mof_N 	N 	0.37313	0.2249	0.62687	-0.268
Mof_N 	N 	0.2624	0.09198	0.7376	-0.219
Mof_H 	H 	0.2482	0.0987	0.7518	0.12
Mof_O 	O 	0.39849	0.17831	0.60151	-0.206
Mof_O 	O 	0.28871	0.05266	0.71129	-0.227
Mof_C 	C 	0.91618	0.80831	0.08382	0.011
Mof_H 	H 	0.926	0.8265	0.074	0.059
Mof_C 	C 	0.88837	0.75434	0.11163	0.094
Mof_C 	C 	0.87982	0.69181	0.12018	0.201
Mof_C 	C 	0.83747	0.68117	0.16253	-0.011
Mof_H 	H 	0.8346	0.7037	0.1654	0.025
Mof_C 	C 	0.85907	0.67012	0.14093	-0.061
Mof_C 	C 	0.86343	0.63684	0.13657	0.027
Mof_H 	H 	0.8787	0.6291	0.1213	0.048
Mof_C 	C 	0.84511	0.61528	0.15489	-0.134
Mof_H 	H 	0.8478	0.5927	0.1522	0.089
Mof_C 	C 	0.82341	0.62682	0.17659	0.127
Mof_C 	C 	0.81918	0.65951	0.18082	-0.051
Mof_C 	C 	0.79692	0.67151	0.20308	0.022
Mof_H 	H 	0.7941	0.6941	0.2059	0.02
Mof_C 	C 	0.77866	0.64902	0.22134	-0.154
Mof_H 	H 	0.7634	0.6566	0.2366	0.079
Mof_C 	C 	0.7827	0.6169	0.2173	0.163
Mof_C 	C 	0.80492	0.60488	0.19508	-0.195
Mof_H 	H 	0.8076	0.5823	0.1924	0.146
Mof_C 	C 	0.76748	0.55872	0.23252	0.199
Mof_C 	C 	0.75342	0.52803	0.24658	-0.059
Mof_C 	C 	0.72922	0.52846	0.27078	0.045
Mof_H 	H 	0.7211	0.5482	0.2789	0.019
Mof_N 	N 	0.87313	0.7249	0.12687	-0.268
Mof_N 	N 	0.7624	0.59198	0.2376	-0.219
Mof_H 	H 	0.7482	0.5987	0.2518	0.12
Mof_O 	O 	0.89849	0.67831	0.10151	-0.205
Mof_O 	O 	0.78871	0.55266	0.21129	-0.227
Mof_C 	C 	0.41618	0.69169	0.41618	0.011
Mof_H 	H 	0.426	0.6735	0.426	0.059
Mof_C 	C 	0.38837	0.74566	0.38837	0.094
Mof_C 	C 	0.37982	0.80819	0.37982	0.201
Mof_C 	C 	0.33747	0.81883	0.33747	-0.011
Mof_H 	H 	0.3346	0.7963	0.3346	0.025
Mof_C 	C 	0.35907	0.82988	0.35907	-0.061
Mof_C 	C 	0.36343	0.86316	0.36343	0.027
Mof_H 	H 	0.3787	0.8709	0.3787	0.049
Mof_C 	C 	0.34511	0.88472	0.34511	-0.134
Mof_H 	H 	0.3478	0.9073	0.3478	0.089
Mof_C 	C 	0.32341	0.87318	0.32341	0.127
Mof_C 	C 	0.31918	0.84049	0.31918	-0.051
Mof_C 	C 	0.29692	0.82849	0.29692	0.022
Mof_H 	H 	0.2941	0.8059	0.2941	0.02
Mof_C 	C 	0.27866	0.85098	0.27866	-0.154
Mof_H 	H 	0.2634	0.8434	0.2634	0.079
Mof_C 	C 	0.2827	0.8831	0.2827	0.163
Mof_C 	C 	0.30492	0.89512	0.30492	-0.195
Mof_H 	H 	0.3076	0.9177	0.3076	0.146
Mof_C 	C 	0.26748	0.94128	0.26748	0.198
Mof_C 	C 	0.25342	0.97197	0.25342	-0.053
Mof_C 	C 	0.22922	0.97154	0.22922	0.048
Mof_H 	H 	0.2211	0.9518	0.2211	0.019
Mof_N 	N 	0.37313	0.7751	0.37313	-0.268
Mof_N 	N 	0.2624	0.90802	0.2624	-0.218
Mof_H 	H 	0.2482	0.9013	0.2482	0.12
Mof_O 	O 	0.39849	0.82169	0.39849	-0.205
Mof_O 	O 	0.28871	0.94734	0.28871	-0.225
Mof_C 	C 	0.91618	0.19169	0.91618	0.01
Mof_H 	H 	0.926	0.1735	0.926	0.06
Mof_C 	C 	0.88837	0.24566	0.88837	0.094
Mof_C 	C 	0.87982	0.30819	0.87982	0.201
Mof_C 	C 	0.83747	0.31883	0.83747	-0.011
Mof_H 	H 	0.8346	0.2963	0.8346	0.025
Mof_C 	C 	0.85907	0.32988	0.85907	-0.061
Mof_C 	C 	0.86343	0.36316	0.86343	0.027
Mof_H 	H 	0.8787	0.3709	0.8787	0.049
Mof_C 	C 	0.84511	0.38472	0.84511	-0.134
Mof_H 	H 	0.8478	0.4073	0.8478	0.089
Mof_C 	C 	0.82341	0.37318	0.82341	0.127
Mof_C 	C 	0.81918	0.34049	0.81918	-0.05
Mof_C 	C 	0.79692	0.32849	0.79692	0.022
Mof_H 	H 	0.7941	0.3059	0.7941	0.02
Mof_C 	C 	0.77866	0.35098	0.77866	-0.154
Mof_H 	H 	0.7634	0.3434	0.7634	0.079
Mof_C 	C 	0.7827	0.3831	0.7827	0.163
Mof_C 	C 	0.80492	0.39512	0.80492	-0.195
Mof_H 	H 	0.8076	0.4177	0.8076	0.146
Mof_C 	C 	0.76748	0.44128	0.76748	0.199
Mof_C 	C 	0.75342	0.47197	0.75342	-0.058
Mof_C 	C 	0.72922	0.47154	0.72922	0.045
Mof_H 	H 	0.7211	0.4518	0.7211	0.02
Mof_N 	N 	0.87313	0.2751	0.87313	-0.268
Mof_N 	N 	0.7624	0.40802	0.7624	-0.219
Mof_H 	H 	0.7482	0.4013	0.7482	0.12
Mof_O 	O 	0.89849	0.32169	0.89849	-0.204
Mof_O 	O 	0.78871	0.44734	0.78871	-0.227
Mof_C 	C 	0.58382	0.30831	0.41618	0.011
Mof_H 	H 	0.574	0.3265	0.426	0.059
Mof_C 	C 	0.61163	0.25434	0.38837	0.094
Mof_C 	C 	0.62018	0.19181	0.37982	0.201
Mof_C 	C 	0.66253	0.18117	0.33747	-0.011
Mof_H 	H 	0.6654	0.2037	0.3346	0.025
Mof_C 	C 	0.64093	0.17012	0.35907	-0.061
Mof_C 	C 	0.63657	0.13684	0.36343	0.027
Mof_H 	H 	0.6213	0.1291	0.3787	0.048
Mof_C 	C 	0.65489	0.11528	0.34511	-0.134
Mof_H 	H 	0.6522	0.0927	0.3478	0.088
Mof_C 	C 	0.67659	0.12682	0.32341	0.126
Mof_C 	C 	0.68082	0.15951	0.31918	-0.05
Mof_C 	C 	0.70308	0.17151	0.29692	0.022
Mof_H 	H 	0.7059	0.1941	0.2941	0.02
Mof_C 	C 	0.72134	0.14902	0.27866	-0.154
Mof_H 	H 	0.7366	0.1566	0.2634	0.079
Mof_C 	C 	0.7173	0.1169	0.2827	0.163
Mof_C 	C 	0.69508	0.10488	0.30492	-0.195
Mof_H 	H 	0.6924	0.0823	0.3076	0.145
Mof_C 	C 	0.73252	0.05872	0.26748	0.198
Mof_C 	C 	0.74658	0.02803	0.25342	-0.057
Mof_C 	C 	0.77078	0.02846	0.22922	0.044
Mof_H 	H 	0.7789	0.0482	0.2211	0.02
Mof_N 	N 	0.62687	0.2249	0.37313	-0.268
Mof_N 	N 	0.7376	0.09198	0.2624	-0.219
Mof_H 	H 	0.7518	0.0987	0.2482	0.12
Mof_O 	O 	0.60151	0.17831	0.39849	-0.206
Mof_O 	O 	0.71129	0.05266	0.28871	-0.227
Mof_C 	C 	0.08382	0.80831	0.91618	0.011
Mof_H 	H 	0.074	0.8265	0.926	0.059
Mof_C 	C 	0.11163	0.75434	0.88837	0.094
Mof_C 	C 	0.12018	0.69181	0.87982	0.201
Mof_C 	C 	0.16253	0.68117	0.83747	-0.011
Mof_H 	H 	0.1654	0.7037	0.8346	0.025
Mof_C 	C 	0.14093	0.67012	0.85907	-0.061
Mof_C 	C 	0.13657	0.63684	0.86343	0.027
Mof_H 	H 	0.1213	0.6291	0.8787	0.048
Mof_C 	C 	0.15489	0.61528	0.84511	-0.134
Mof_H 	H 	0.1522	0.5927	0.8478	0.089
Mof_C 	C 	0.17659	0.62682	0.82341	0.127
Mof_C 	C 	0.18082	0.65951	0.81918	-0.051
Mof_C 	C 	0.20308	0.67151	0.79692	0.022
Mof_H 	H 	0.2059	0.6941	0.7941	0.02
Mof_C 	C 	0.22134	0.64902	0.77866	-0.154
Mof_H 	H 	0.2366	0.6566	0.7634	0.079
Mof_C 	C 	0.2173	0.6169	0.7827	0.163
Mof_C 	C 	0.19508	0.60488	0.80492	-0.195
Mof_H 	H 	0.1924	0.5823	0.8076	0.146
Mof_C 	C 	0.23252	0.55872	0.76748	0.199
Mof_C 	C 	0.24658	0.52803	0.75342	-0.059
Mof_C 	C 	0.27078	0.52846	0.72922	0.045
Mof_H 	H 	0.2789	0.5482	0.7211	0.019
Mof_N 	N 	0.12687	0.7249	0.87313	-0.268
Mof_N 	N 	0.2376	0.59198	0.7624	-0.219
Mof_H 	H 	0.2518	0.5987	0.7482	0.12
Mof_O 	O 	0.10151	0.67831	0.89849	-0.205
Mof_O 	O 	0.21129	0.55266	0.78871	-0.227
Mof_C 	C 	0.58382	0.69169	0.58382	0.011
Mof_H 	H 	0.574	0.6735	0.574	0.059
Mof_C 	C 	0.61163	0.74566	0.61163	0.094
Mof_C 	C 	0.62018	0.80819	0.62018	0.201
Mof_C 	C 	0.66253	0.81883	0.66253	-0.011
Mof_H 	H 	0.6654	0.7963	0.6654	0.025
Mof_C 	C 	0.64093	0.82988	0.64093	-0.061
Mof_C 	C 	0.63657	0.86316	0.63657	0.027
Mof_H 	H 	0.6213	0.8709	0.6213	0.049
Mof_C 	C 	0.65489	0.88472	0.65489	-0.134
Mof_H 	H 	0.6522	0.9073	0.6522	0.089
Mof_C 	C 	0.67659	0.87318	0.67659	0.127
Mof_C 	C 	0.68082	0.84049	0.68082	-0.051
Mof_C 	C 	0.70308	0.82849	0.70308	0.022
Mof_H 	H 	0.7059	0.8059	0.7059	0.019
Mof_C 	C 	0.72134	0.85098	0.72134	-0.154
Mof_H 	H 	0.7366	0.8434	0.7366	0.079
Mof_C 	C 	0.7173	0.8831	0.7173	0.163
Mof_C 	C 	0.69508	0.89512	0.69508	-0.195
Mof_H 	H 	0.6924	0.9177	0.6924	0.146
Mof_C 	C 	0.73252	0.94128	0.73252	0.198
Mof_C 	C 	0.74658	0.97197	0.74658	-0.053
Mof_C 	C 	0.77078	0.97154	0.77078	0.048
Mof_H 	H 	0.7789	0.9518	0.7789	0.019
Mof_N 	N 	0.62687	0.7751	0.62687	-0.268
Mof_N 	N 	0.7376	0.90802	0.7376	-0.218
Mof_H 	H 	0.7518	0.9013	0.7518	0.12
Mof_O 	O 	0.60151	0.82169	0.60151	-0.205
Mof_O 	O 	0.71129	0.94734	0.71129	-0.225
Mof_C 	C 	0.08382	0.19169	0.08382	0.011
Mof_H 	H 	0.074	0.1735	0.074	0.058
Mof_C 	C 	0.11163	0.24566	0.11163	0.093
Mof_C 	C 	0.12018	0.30819	0.12018	0.201
Mof_C 	C 	0.16253	0.31883	0.16253	-0.011
Mof_H 	H 	0.1654	0.2963	0.1654	0.025
Mof_C 	C 	0.14093	0.32988	0.14093	-0.061
Mof_C 	C 	0.13657	0.36316	0.13657	0.027
Mof_H 	H 	0.1213	0.3709	0.1213	0.048
Mof_C 	C 	0.15489	0.38472	0.15489	-0.135
Mof_H 	H 	0.1522	0.4073	0.1522	0.088
Mof_C 	C 	0.17659	0.37318	0.17659	0.127
Mof_C 	C 	0.18082	0.34049	0.18082	-0.051
Mof_C 	C 	0.20308	0.32849	0.20308	0.022
Mof_H 	H 	0.2059	0.3059	0.2059	0.02
Mof_C 	C 	0.22134	0.35098	0.22134	-0.154
Mof_H 	H 	0.2366	0.3434	0.2366	0.079
Mof_C 	C 	0.2173	0.3831	0.2173	0.163
Mof_C 	C 	0.19508	0.39512	0.19508	-0.195
Mof_H 	H 	0.1924	0.4177	0.1924	0.145
Mof_C 	C 	0.23252	0.44128	0.23252	0.199
Mof_C 	C 	0.24658	0.47197	0.24658	-0.059
Mof_C 	C 	0.27078	0.47154	0.27078	0.045
Mof_H 	H 	0.2789	0.4518	0.2789	0.019
Mof_N 	N 	0.12687	0.2751	0.12687	-0.268
Mof_N 	N 	0.2376	0.40802	0.2376	-0.219
Mof_H 	H 	0.2518	0.4013	0.2518	0.12
Mof_O 	O 	0.10151	0.32169	0.10151	-0.206
Mof_O 	O 	0.21129	0.44734	0.21129	-0.227
Mof_C 	C 	0.2652	0	0.2652	0.003
Mof_H 	H 	0.2814	-2.83095e-33	0.2814	0.072
Mof_Cu	Cu	0.18119	0	0.18119	0.918
Mof_N 	N 	0.21817	0	0.21817	-0.176
Mof_C 	C 	0.7652	0.5	0.7652	0.01
Mof_H 	H 	0.7814	0.5	0.7814	0.071
Mof_Cu	Cu	0.68119	0.5	0.68119	0.92
Mof_N 	N 	0.71817	0.5	0.71817	-0.174
Mof_C 	C 	0.7348	0	0.2652	0.003
Mof_H 	H 	0.7186	-2.83095e-33	0.2814	0.072
Mof_Cu	Cu	0.81881	0	0.18119	0.918
Mof_N 	N 	0.78183	0	0.21817	-0.176
Mof_C 	C 	0.2348	0.5	0.7652	0.01
Mof_H 	H 	0.2186	0.5	0.7814	0.071
Mof_Cu	Cu	0.31881	0.5	0.68119	0.92
Mof_N 	N 	0.28183	0.5	0.71817	-0.174
Mof_C 	C 	0.7348	0	0.7348	0.003
Mof_H 	H 	0.7186	0	0.7186	0.072
Mof_Cu	Cu	0.81881	0	0.81881	0.918
Mof_N 	N 	0.78183	5.66189e-33	0.78183	-0.176
Mof_C 	C 	0.2348	0.5	0.2348	0.011
Mof_H 	H 	0.2186	0.5	0.2186	0.07
Mof_Cu	Cu	0.31881	0.5	0.31881	0.92
Mof_N 	N 	0.28183	0.5	0.28183	-0.174
Mof_C 	C 	0.2652	0	0.7348	0.003
Mof_H 	H 	0.2814	0	0.7186	0.072
Mof_Cu	Cu	0.18119	0	0.81881	0.918
Mof_N 	N 	0.21817	5.66189e-33	0.78183	-0.176
Mof_C 	C 	0.7652	0.5	0.2348	0.01
Mof_H 	H 	0.7814	0.5	0.2186	0.071
Mof_Cu	Cu	0.68119	0.5	0.31881	0.92
Mof_N 	N 	0.71817	0.5	0.28183	-0.174
Mof_C 	C 	0.2652	0.2652	-0	0.003
Mof_H 	H 	0.2814	0.2814	-0	0.072
Mof_Cu	Cu	0.18119	0.18119	-0	0.918
Mof_N 	N 	0.21817	0.21817	-0	-0.176
Mof_C 	C 	0.7652	0.7652	0.5	0.01
Mof_H 	H 	0.7814	0.7814	0.5	0.071
Mof_Cu	Cu	0.68119	0.68119	0.5	0.92
Mof_N 	N 	0.71817	0.71817	0.5	-0.174
Mof_C 	C 	0.2652	0.7348	-0	0.003
Mof_H 	H 	0.2814	0.7186	-0	0.072
Mof_Cu	Cu	0.18119	0.81881	-0	0.918
Mof_N 	N 	0.21817	0.78183	-0	-0.176
Mof_C 	C 	0.7652	0.2348	0.5	0.01
Mof_H 	H 	0.7814	0.2186	0.5	0.071
Mof_Cu	Cu	0.68119	0.31881	0.5	0.92
Mof_N 	N 	0.71817	0.28183	0.5	-0.174
Mof_C 	C 	0.7348	0.7348	-0	0.003
Mof_H 	H 	0.7186	0.7186	-0	0.072
Mof_Cu	Cu	0.81881	0.81881	-0	0.918
Mof_N 	N 	0.78183	0.78183	-0	-0.176
Mof_C 	C 	0.2348	0.2348	0.5	0.011
Mof_H 	H 	0.2186	0.2186	0.5	0.07
Mof_Cu	Cu	0.31881	0.31881	0.5	0.92
Mof_N 	N 	0.28183	0.28183	0.5	-0.174
Mof_C 	C 	0.7348	0.2652	-0	0.003
Mof_H 	H 	0.7186	0.2814	-0	0.072
Mof_Cu	Cu	0.81881	0.18119	-0	0.918
Mof_N 	N 	0.78183	0.21817	-0	-0.176
Mof_C 	C 	0.2348	0.7652	0.5	0.01
Mof_H 	H 	0.2186	0.7814	0.5	0.071
Mof_Cu	Cu	0.31881	0.68119	0.5	0.92
Mof_N 	N 	0.28183	0.71817	0.5	-0.174
Mof_C 	C 	9.94341e-34	0.2652	0.2652	0.003
Mof_H 	H 	-4.60681e-33	0.2814	0.2814	0.072
Mof_Cu	Cu	-7.36119e-34	0.18119	0.18119	0.918
Mof_N 	N 	8.18006e-34	0.21817	0.21817	-0.176
Mof_C 	C 	0.5	0.7652	0.7652	0.01
Mof_H 	H 	0.5	0.7814	0.7814	0.071
Mof_Cu	Cu	0.5	0.68119	0.68119	0.92
Mof_N 	N 	0.5	0.71817	0.71817	-0.174
Mof_C 	C 	8.41695e-33	0.2652	0.7348	0.003
Mof_H 	H 	2.69432e-33	0.2814	0.7186	0.072
Mof_Cu	Cu	3.07005e-33	0.18119	0.81881	0.918
Mof_N 	N 	1.42552e-32	0.21817	0.78183	-0.176
Mof_C 	C 	0.5	0.7652	0.2348	0.01
Mof_H 	H 	0.5	0.7814	0.2186	0.071
Mof_Cu	Cu	0.5	0.68119	0.31881	0.92
Mof_N 	N 	0.5	0.71817	0.28183	-0.174
Mof_C 	C 	-2.90683e-33	0.7348	0.7348	0.003
Mof_H 	H 	-2.96757e-33	0.7186	0.7186	0.072
Mof_Cu	Cu	-8.25374e-33	0.81881	0.81881	0.918
Mof_N 	N 	2.93139e-33	0.78183	0.78183	-0.176
Mof_C 	C 	0.5	0.2348	0.2348	0.011
Mof_H 	H 	0.5	0.2186	0.2186	0.07
Mof_Cu	Cu	0.5	0.31881	0.31881	0.92
Mof_N 	N 	0.5	0.28183	0.28183	-0.174
Mof_C 	C 	9.48718e-33	0.7348	0.2652	0.003
Mof_H 	H 	1.05508e-33	0.7186	0.2814	0.072
Mof_Cu	Cu	6.34124e-33	0.81881	0.18119	0.918
Mof_N 	N 	1.21418e-32	0.78183	0.21817	-0.176
Mof_C 	C 	0.5	0.2348	0.7652	0.01
Mof_H 	H 	0.5	0.2186	0.7814	0.071
Mof_Cu	Cu	0.5	0.31881	0.68119	0.92
Mof_N 	N 	0.5	0.28183	0.71817	-0.174
Mof_Cu	Cu	0.36384	0.36384	0.5	0.907
Mof_Cu	Cu	0.86384	0.86384	-0	0.905
Mof_Cu	Cu	0.63616	0.63616	0.5	0.907
Mof_Cu	Cu	0.13616	0.13616	-0	0.905
Mof_Cu	Cu	0.63616	0.36384	0.5	0.907
Mof_Cu	Cu	0.13616	0.86384	-0	0.905
Mof_Cu	Cu	0.36384	0.63616	0.5	0.907
Mof_Cu	Cu	0.86384	0.13616	-0	0.905
Mof_Cu	Cu	0.5	0.36384	0.36384	0.907
Mof_Cu	Cu	3.23888e-33	0.86384	0.86384	0.905
Mof_Cu	Cu	0.5	0.63616	0.63616	0.907
Mof_Cu	Cu	5.10518e-34	0.13616	0.13616	0.905
Mof_Cu	Cu	0.5	0.63616	0.36384	0.907
Mof_Cu	Cu	3.23888e-33	0.13616	0.86384	0.905
Mof_Cu	Cu	0.5	0.36384	0.63616	0.907
Mof_Cu	Cu	1.92599e-33	0.86384	0.13616	0.905
Mof_Cu	Cu	0.36384	0.5	0.36384	0.907
Mof_Cu	Cu	0.86384	0	0.86384	0.905
Mof_Cu	Cu	0.63616	0.5	0.63616	0.907
Mof_Cu	Cu	0.13616	0	0.13616	0.905
Mof_Cu	Cu	0.36384	0.5	0.63616	0.907
Mof_Cu	Cu	0.86384	0	0.13616	0.905
Mof_Cu	Cu	0.63616	0.5	0.36384	0.907
Mof_Cu	Cu	0.13616	0	0.86384	0.905
_end
