data_functionalizedCrystal
_audit_creation_method	'EQeq! by Chris Wilmer'
_symmetry_space_group_name_H-M	'P1'
_symmetry_Int_Tables_number	1
_symmetry_cell_setting	triclinic
loop_
_symmetry_equiv_pos_as_xyz
  x,y,z
_cell_length_a	5.022
_cell_length_b	12.34
_cell_length_c	15.4389
_cell_angle_alpha	90
_cell_angle_beta	91.867
_cell_angle_gamma	90
loop_
_atom_site_label
_atom_site_type_symbol
_atom_site_fract_x
_atom_site_fract_y
_atom_site_fract_z
_atom_site_charge
Mof_Cu	Cu	0.5291	0.1353	0.8828	0.906
Mof_Cu	Cu	0.9709	0.6353	0.6172	0.916
Mof_Cu	Cu	0.4709	0.8647	0.1172	0.905
Mof_Cu	Cu	0.0291	0.3647	0.3828	0.893
Mof_Cu	Cu	-0	0	-0	0.857
Mof_Cu	Cu	0.5	0.5	0.5	0.923
Mof_P 	P 	0.5008	0.8923	0.9201	0.415
Mof_P 	P 	0.9992	0.3923	0.5799	0.46
Mof_P 	P 	0.4992	0.1077	0.0799	0.412
Mof_P 	P 	0.0008	0.6077	0.4201	0.367
Mof_H 	H 	0.437	0.706	0.903	0.082
Mof_H 	H 	0.242	0.777	0.848	0.111
Mof_H 	H 	0.739	0.718	0.791	0.132
Mof_H 	H 	0.606	0.821	0.754	0.126
Mof_H 	H 	0.063	0.206	0.597	0.086
Mof_H 	H 	0.258	0.277	0.652	0.141
Mof_H 	H 	0.761	0.218	0.709	0.083
Mof_H 	H 	0.894	0.321	0.746	0.093
Mof_H 	H 	0.563	0.294	0.097	0.071
Mof_H 	H 	0.758	0.223	0.152	0.12
Mof_H 	H 	0.261	0.282	0.209	0.103
Mof_H 	H 	0.394	0.179	0.246	0.098
Mof_H 	H 	0.937	0.794	0.403	0.065
Mof_H 	H 	0.742	0.723	0.348	0.086
Mof_H 	H 	0.239	0.782	0.291	0.154
Mof_H 	H 	0.106	0.679	0.254	0.13
Mof_C 	C 	0.4155	0.77	0.8641	-0.17
Mof_C 	C 	0.5696	0.7516	0.7822	-0.292
Mof_C 	C 	0.4262	0.6835	0.7141	0.401
Mof_C 	C 	0.0845	0.27	0.6359	-0.271
Mof_C 	C 	0.9304	0.2516	0.7178	-0.172
Mof_C 	C 	0.0738	0.1835	0.7859	0.316
Mof_C 	C 	0.5845	0.23	0.1359	-0.192
Mof_C 	C 	0.4304	0.2484	0.2178	-0.261
Mof_C 	C 	0.5738	0.3165	0.2859	0.38
Mof_C 	C 	0.9155	0.73	0.3641	-0.089
Mof_C 	C 	0.0696	0.7484	0.2822	-0.381
Mof_C 	C 	0.9262	0.8165	0.2141	0.462
Mof_O 	O 	0.79	0.8829	0.9535	-0.35
Mof_O 	O 	0.6835	0.0977	0.0008	-0.52
Mof_O 	O 	0.4488	0.9851	0.8575	-0.338
Mof_O 	O 	0.1733	0.6807	0.7185	-0.428
Mof_O 	O 	0.5494	0.6374	0.6559	-0.436
Mof_O 	O 	0.71	0.3829	0.5465	-0.411
Mof_O 	O 	0.8165	0.5977	0.4992	-0.467
Mof_O 	O 	0.0512	0.4851	0.6425	-0.402
Mof_O 	O 	0.3267	0.1807	0.7815	-0.415
Mof_O 	O 	0.9506	0.1374	0.8441	-0.401
Mof_O 	O 	0.21	0.1171	0.0465	-0.441
Mof_O 	O 	0.3165	0.9023	0.9992	-0.419
Mof_O 	O 	0.5512	0.0149	0.1425	-0.421
Mof_O 	O 	0.8267	0.3193	0.2815	-0.415
Mof_O 	O 	0.4506	0.3626	0.3441	-0.439
Mof_O 	O 	0.29	0.6171	0.4535	-0.401
Mof_O 	O 	0.1835	0.4023	0.5008	-0.5
Mof_O 	O 	0.9488	0.5149	0.3575	-0.363
Mof_O 	O 	0.6733	0.8193	0.2185	-0.433
Mof_O 	O 	0.0494	0.8626	0.1559	-0.466
_end
