data_functionalizedCrystal
_audit_creation_method	'EQeq! by Chris Wilmer'
_symmetry_space_group_name_H-M	'P1'
_symmetry_Int_Tables_number	1
_symmetry_cell_setting	triclinic
loop_
_symmetry_equiv_pos_as_xyz
  x,y,z
_cell_length_a	15.5019
_cell_length_b	15.5019
_cell_length_c	12.306
_cell_angle_alpha	90
_cell_angle_beta	90
_cell_angle_gamma	90
loop_
_atom_site_label
_atom_site_type_symbol
_atom_site_fract_x
_atom_site_fract_y
_atom_site_fract_z
_atom_site_charge
Mof_O 	O 	0.6135	0.3817	0.6182	-0.99
Mof_O 	O 	0.5881	0.2912	0.7545	-0.772
Mof_C 	C 	0.5829	0.3643	0.7104	0.735
Mof_C 	C 	0.5391	0.43248	0.7693	-0.299
Mof_C 	C 	0.5391	0.43248	0.8828	0.059
Mof_H 	H 	0.5684	0.3817	0.9254	0.022
Mof_O 	O 	0.1135	0.8817	0.1182	-0.932
Mof_O 	O 	0.0881	0.7912	0.2545	-0.758
Mof_C 	C 	0.0829	0.8643	0.2104	0.706
Mof_C 	C 	0.0391	0.93248	0.2693	-0.301
Mof_C 	C 	0.0391	0.93248	0.3828	0.127
Mof_H 	H 	0.0684	0.8817	0.4254	-0.024
Mof_O 	O 	0.8865	0.1183	0.1182	-0.937
Mof_O 	O 	0.9119	0.2088	0.2545	-0.759
Mof_C 	C 	0.9171	0.1357	0.2104	0.708
Mof_C 	C 	0.9609	0.06752	0.2693	-0.313
Mof_C 	C 	0.9609	0.06752	0.3828	0.114
Mof_H 	H 	0.9316	0.1183	0.4254	-0.023
Mof_O 	O 	0.3865	0.6183	0.6182	-0.99
Mof_O 	O 	0.4119	0.7088	0.7545	-0.769
Mof_C 	C 	0.4171	0.6357	0.7104	0.736
Mof_C 	C 	0.4609	0.56752	0.7693	-0.297
Mof_C 	C 	0.4609	0.56752	0.8828	0.06
Mof_H 	H 	0.4316	0.6183	0.9254	0.023
Mof_O 	O 	0.6183	0.1135	0.8682	-1.063
Mof_O 	O 	0.7088	0.0881	0.0045	-0.883
Mof_C 	C 	0.6357	0.0829	0.9604	1.052
Mof_C 	C 	0.56752	0.0391	0.0193	-0.73
Mof_C 	C 	0.56752	0.0391	0.1328	0.313
Mof_H 	H 	0.6183	0.0684	0.1754	-0.083
Mof_O 	O 	0.1183	0.6135	0.3682	-0.986
Mof_O 	O 	0.2088	0.5881	0.5045	-0.775
Mof_C 	C 	0.1357	0.5829	0.4604	0.745
Mof_C 	C 	0.06752	0.5391	0.5193	-0.348
Mof_C 	C 	0.06752	0.5391	0.6328	0.147
Mof_H 	H 	0.1183	0.5684	0.6754	-0.032
Mof_O 	O 	0.8817	0.3865	0.3682	-0.983
Mof_O 	O 	0.7912	0.4119	0.5045	-0.773
Mof_C 	C 	0.8643	0.4171	0.4604	0.744
Mof_C 	C 	0.93248	0.4609	0.5193	-0.342
Mof_C 	C 	0.93248	0.4609	0.6328	0.154
Mof_H 	H 	0.8817	0.4316	0.6754	-0.032
Mof_O 	O 	0.3817	0.8865	0.8682	-1.058
Mof_O 	O 	0.2912	0.9119	0.0045	-0.881
Mof_C 	C 	0.3643	0.9171	0.9604	1.058
Mof_C 	C 	0.43248	0.9609	0.0193	-0.716
Mof_C 	C 	0.43248	0.9609	0.1328	0.334
Mof_H 	H 	0.3817	0.9316	0.1754	-0.084
Mof_O 	O 	0.8865	0.3817	0.1318	-0.899
Mof_O 	O 	0.9119	0.2912	0.9955	-0.561
Mof_C 	C 	0.9171	0.3643	0.0396	0.388
Mof_C 	C 	0.9609	0.43248	0.9807	0.105
Mof_C 	C 	0.9609	0.43248	0.8672	-0.099
Mof_H 	H 	0.9316	0.3817	0.8246	0.043
Mof_O 	O 	0.3865	0.8817	0.6318	-0.994
Mof_O 	O 	0.4119	0.7912	0.4955	-0.773
Mof_C 	C 	0.4171	0.8643	0.5396	0.739
Mof_C 	C 	0.4609	0.93248	0.4807	-0.295
Mof_C 	C 	0.4609	0.93248	0.3672	0.1
Mof_H 	H 	0.4316	0.8817	0.3246	-0.017
Mof_O 	O 	0.6135	0.1183	0.6318	-1.001
Mof_O 	O 	0.5881	0.2088	0.4955	-0.776
Mof_C 	C 	0.5829	0.1357	0.5396	0.74
Mof_C 	C 	0.5391	0.06752	0.4807	-0.315
Mof_C 	C 	0.5391	0.06752	0.3672	0.08
Mof_H 	H 	0.5684	0.1183	0.3246	-0.016
Mof_O 	O 	0.1135	0.6183	0.1318	-0.901
Mof_O 	O 	0.0881	0.7088	0.9955	-0.56
Mof_C 	C 	0.0829	0.6357	0.0396	0.388
Mof_C 	C 	0.0391	0.56752	0.9807	0.099
Mof_C 	C 	0.0391	0.56752	0.8672	-0.106
Mof_H 	H 	0.0684	0.6183	0.8246	0.044
Mof_O 	O 	0.8817	0.1135	0.8818	-0.879
Mof_O 	O 	0.7912	0.0881	0.7455	-0.76
Mof_C 	C 	0.8643	0.0829	0.7896	0.705
Mof_C 	C 	0.93248	0.0391	0.7307	-0.293
Mof_C 	C 	0.93248	0.0391	0.6172	0.106
Mof_H 	H 	0.8817	0.0684	0.5746	-0.022
Mof_O 	O 	0.3817	0.6135	0.3818	-0.996
Mof_O 	O 	0.2912	0.5881	0.2455	-0.779
Mof_C 	C 	0.3643	0.5829	0.2896	0.753
Mof_C 	C 	0.43248	0.5391	0.2307	-0.369
Mof_C 	C 	0.43248	0.5391	0.1172	0.164
Mof_H 	H 	0.3817	0.5684	0.0746	-0.067
Mof_O 	O 	0.6183	0.3865	0.3818	-0.996
Mof_O 	O 	0.7088	0.4119	0.2455	-0.778
Mof_C 	C 	0.6357	0.4171	0.2896	0.753
Mof_C 	C 	0.56752	0.4609	0.2307	-0.369
Mof_C 	C 	0.56752	0.4609	0.1172	0.164
Mof_H 	H 	0.6183	0.4316	0.0746	-0.066
Mof_O 	O 	0.1183	0.8865	0.8818	-0.872
Mof_O 	O 	0.2088	0.9119	0.7455	-0.755
Mof_C 	C 	0.1357	0.9171	0.7896	0.704
Mof_C 	C 	0.06752	0.9609	0.7307	-0.278
Mof_C 	C 	0.06752	0.9609	0.6172	0.12
Mof_H 	H 	0.1183	0.9316	0.5746	-0.022
Mof_In	In	0.6719	0.3281	0.5	3.105
Mof_In	In	0.1719	0.8281	-0	2.75
Mof_In	In	0.8281	0.1719	-0	2.751
Mof_In	In	0.3281	0.6719	0.5	3.106
Mof_In	In	0.6719	0.1719	0.75	3.172
Mof_In	In	0.1719	0.6719	0.25	3.035
Mof_In	In	0.8281	0.3281	0.25	3.036
Mof_In	In	0.3281	0.8281	0.75	3.181
Mof_O 	O 	0.7575	0.25	0.625	-0.996
Mof_H 	H 	0.8155	0.25	0.625	0.309
Mof_O 	O 	0.2575	0.75	0.125	-0.954
Mof_H 	H 	0.3155	0.75	0.125	0.287
Mof_O 	O 	0.7425	0.25	0.125	-0.954
Mof_H 	H 	0.6845	0.25	0.125	0.286
Mof_O 	O 	0.2425	0.75	0.625	-0.997
Mof_H 	H 	0.1845	0.75	0.625	0.31
Mof_O 	O 	0.75	0.2575	0.875	-0.931
Mof_H 	H 	0.75	0.3155	0.875	0.31
Mof_O 	O 	0.25	0.7575	0.375	-0.981
Mof_H 	H 	0.25	0.8155	0.375	0.307
Mof_O 	O 	0.75	0.2425	0.375	-0.981
Mof_H 	H 	0.75	0.1845	0.375	0.305
Mof_O 	O 	0.25	0.7425	0.875	-0.931
Mof_H 	H 	0.25	0.6845	0.875	0.309
Mof_C 	C 	0.5	0.5	0.7126	0.206
Mof_C 	C 	0.5	0.5	0.9395	0.07
Mof_H 	H 	0.5	0.5	0.6273	-0.023
Mof_C 	C 	6.32786e-34	0	0.2126	0.177
Mof_C 	C 	-2.95996e-33	-4.26809e-33	0.4395	-0.106
Mof_H 	H 	1.44592e-33	1.06702e-33	0.1273	-0.042
Mof_C 	C 	0.5	8.53618e-33	0.9626	0.647
Mof_C 	C 	0.5	1.06702e-33	0.1895	-0.257
Mof_H 	H 	0.5	0	0.8773	-0.139
Mof_C 	C 	1.37689e-33	0.5	0.4626	0.232
Mof_C 	C 	-2.21585e-33	0.5	0.6895	-0.15
Mof_H 	H 	3.25705e-33	0.5	0.3773	-0.039
Mof_C 	C 	2.77887e-33	0.5	0.0374	-0.248
Mof_C 	C 	-6.1238e-33	0.5	0.8105	0.086
Mof_H 	H 	3.65206e-34	0.5	0.1227	0.085
Mof_C 	C 	0.5	0	0.5374	0.186
Mof_C 	C 	0.5	0	0.3105	-0.039
Mof_H 	H 	0.5	0	0.6227	-0.021
Mof_C 	C 	2.34363e-33	4.26809e-33	0.7874	0.167
Mof_C 	C 	5.93637e-33	4.26809e-33	0.5605	-0.098
Mof_H 	H 	2.59752e-33	0	0.8727	-0.002
Mof_C 	C 	0.5	0.5	0.2874	0.253
Mof_C 	C 	0.5	0.5	0.0605	-0.226
Mof_H 	H 	0.5	0.5	0.3727	-0.038
_end
