data_functionalizedCrystal
_audit_creation_method	'EQeq! by Chris Wilmer'
_symmetry_space_group_name_H-M	'P1'
_symmetry_Int_Tables_number	1
_symmetry_cell_setting	triclinic
loop_
_symmetry_equiv_pos_as_xyz
  x,y,z
_cell_length_a	33.0001
_cell_length_b	33.0001
_cell_length_c	33.0001
_cell_angle_alpha	90
_cell_angle_beta	90
_cell_angle_gamma	90
loop_
_atom_site_label
_atom_site_type_symbol
_atom_site_fract_x
_atom_site_fract_y
_atom_site_fract_z
_atom_site_charge
Mof_O 	O 	0.0463	0.6503	0.0327	-0.359
Mof_O 	O 	0.0404	0.5884	0.0565	-0.452
Mof_C 	C 	0.2152	0.6743	0.1717	-0.179
Mof_H 	H 	0.1909	0.6843	0.1819	0.092
Mof_C 	C 	0.2139	0.6464	0.1407	0.106
Mof_C 	C 	0.1726	0.6351	0.1193	-0.01
Mof_C 	C 	0.1639	0.5965	0.105	-0.056
Mof_H 	H 	0.1817	0.5753	0.1101	0.047
Mof_C 	C 	0.1285	0.5895	0.0833	-0.034
Mof_H 	H 	0.1227	0.5637	0.0737	0.042
Mof_C 	C 	0.1018	0.6212	0.0758	-0.019
Mof_C 	C 	0.1105	0.6599	0.09	-0.032
Mof_H 	H 	0.0926	0.6811	0.085	0.059
Mof_C 	C 	0.1459	0.6669	0.1118	-0.055
Mof_H 	H 	0.1517	0.6927	0.1213	0.049
Mof_C 	C 	0.0634	0.6135	0.0479	0.236
Mof_O 	O 	0.5463	0.1503	0.5327	-0.355
Mof_O 	O 	0.5404	0.0884	0.5565	-0.457
Mof_C 	C 	0.7152	0.1743	0.6717	-0.18
Mof_H 	H 	0.6909	0.1843	0.6819	0.094
Mof_C 	C 	0.7139	0.1464	0.6407	0.109
Mof_C 	C 	0.6726	0.1351	0.6193	-0.011
Mof_C 	C 	0.6639	0.0965	0.605	-0.052
Mof_H 	H 	0.6817	0.0753	0.6101	0.045
Mof_C 	C 	0.6285	0.0895	0.5833	-0.035
Mof_H 	H 	0.6227	0.0637	0.5737	0.043
Mof_C 	C 	0.6018	0.1212	0.5758	-0.012
Mof_C 	C 	0.6105	0.1599	0.59	-0.033
Mof_H 	H 	0.5926	0.1811	0.585	0.065
Mof_C 	C 	0.6459	0.1669	0.6118	-0.05
Mof_H 	H 	0.6517	0.1927	0.6213	0.051
Mof_C 	C 	0.5634	0.1135	0.5479	0.235
Mof_O 	O 	0.9537	0.3497	0.0327	-0.342
Mof_O 	O 	0.9596	0.4116	0.0565	-0.43
Mof_C 	C 	0.7848	0.3257	0.1717	-0.18
Mof_H 	H 	0.8091	0.3157	0.1819	0.095
Mof_C 	C 	0.7861	0.3536	0.1407	0.109
Mof_C 	C 	0.8274	0.3649	0.1193	-0.012
Mof_C 	C 	0.8361	0.4035	0.105	-0.049
Mof_H 	H 	0.8183	0.4247	0.1101	0.047
Mof_C 	C 	0.8715	0.4105	0.0833	-0.037
Mof_H 	H 	0.8773	0.4363	0.0737	0.047
Mof_C 	C 	0.8982	0.3788	0.0758	-0.009
Mof_C 	C 	0.8895	0.3401	0.09	-0.035
Mof_H 	H 	0.9074	0.3189	0.085	0.067
Mof_C 	C 	0.8541	0.3331	0.1118	-0.049
Mof_H 	H 	0.8483	0.3073	0.1213	0.05
Mof_C 	C 	0.9366	0.3865	0.0479	0.23
Mof_O 	O 	0.4537	0.8497	0.5327	-0.356
Mof_O 	O 	0.4596	0.9116	0.5565	-0.45
Mof_C 	C 	0.2848	0.8257	0.6717	-0.181
Mof_H 	H 	0.3091	0.8157	0.6819	0.095
Mof_C 	C 	0.2861	0.8536	0.6407	0.112
Mof_C 	C 	0.3274	0.8649	0.6193	-0.011
Mof_C 	C 	0.3361	0.9035	0.605	-0.048
Mof_H 	H 	0.3183	0.9247	0.6101	0.052
Mof_C 	C 	0.3715	0.9105	0.5833	-0.035
Mof_H 	H 	0.3773	0.9363	0.5737	0.052
Mof_C 	C 	0.3982	0.8788	0.5758	-0.007
Mof_C 	C 	0.3895	0.8401	0.59	-0.034
Mof_H 	H 	0.4074	0.8189	0.585	0.066
Mof_C 	C 	0.3541	0.8331	0.6118	-0.048
Mof_H 	H 	0.3483	0.8073	0.6213	0.051
Mof_C 	C 	0.4366	0.8865	0.5479	0.234
Mof_O 	O 	0.9537	0.6503	0.9673	-0.324
Mof_O 	O 	0.9596	0.5884	0.9435	-0.422
Mof_C 	C 	0.7848	0.6743	0.8283	-0.183
Mof_H 	H 	0.8091	0.6843	0.8181	0.097
Mof_C 	C 	0.7861	0.6464	0.8593	0.115
Mof_C 	C 	0.8274	0.6351	0.8807	-0.012
Mof_C 	C 	0.8361	0.5965	0.895	-0.045
Mof_H 	H 	0.8183	0.5753	0.8899	0.049
Mof_C 	C 	0.8715	0.5895	0.9167	-0.037
Mof_H 	H 	0.8773	0.5637	0.9263	0.054
Mof_C 	C 	0.8982	0.6212	0.9242	-0.003
Mof_C 	C 	0.8895	0.6599	0.91	-0.035
Mof_H 	H 	0.9074	0.6811	0.915	0.072
Mof_C 	C 	0.8541	0.6669	0.8882	-0.044
Mof_H 	H 	0.8483	0.6927	0.8787	0.053
Mof_C 	C 	0.9366	0.6135	0.9521	0.236
Mof_O 	O 	0.4537	0.1503	0.4673	-0.355
Mof_O 	O 	0.4596	0.0884	0.4435	-0.457
Mof_C 	C 	0.2848	0.1743	0.3283	-0.179
Mof_H 	H 	0.3091	0.1843	0.3181	0.093
Mof_C 	C 	0.2861	0.1464	0.3593	0.107
Mof_C 	C 	0.3274	0.1351	0.3807	-0.011
Mof_C 	C 	0.3361	0.0965	0.395	-0.052
Mof_H 	H 	0.3183	0.0753	0.3899	0.045
Mof_C 	C 	0.3715	0.0895	0.4167	-0.035
Mof_H 	H 	0.3773	0.0637	0.4263	0.043
Mof_C 	C 	0.3982	0.1212	0.4242	-0.012
Mof_C 	C 	0.3895	0.1599	0.41	-0.033
Mof_H 	H 	0.4074	0.1811	0.415	0.065
Mof_C 	C 	0.3541	0.1669	0.3882	-0.051
Mof_H 	H 	0.3483	0.1927	0.3787	0.051
Mof_C 	C 	0.4366	0.1135	0.4521	0.235
Mof_O 	O 	0.0463	0.3497	0.9673	-0.341
Mof_O 	O 	0.0404	0.4116	0.9435	-0.443
Mof_C 	C 	0.2152	0.3257	0.8283	-0.18
Mof_H 	H 	0.1909	0.3157	0.8181	0.094
Mof_C 	C 	0.2139	0.3536	0.8593	0.111
Mof_C 	C 	0.1726	0.3649	0.8807	-0.01
Mof_C 	C 	0.1639	0.4035	0.895	-0.05
Mof_H 	H 	0.1817	0.4247	0.8899	0.05
Mof_C 	C 	0.1285	0.4105	0.9167	-0.032
Mof_H 	H 	0.1227	0.4363	0.9263	0.05
Mof_C 	C 	0.1018	0.3788	0.9242	-0.013
Mof_C 	C 	0.1105	0.3401	0.91	-0.031
Mof_H 	H 	0.0926	0.3189	0.915	0.064
Mof_C 	C 	0.1459	0.3331	0.8882	-0.05
Mof_H 	H 	0.1517	0.3073	0.8787	0.051
Mof_C 	C 	0.0634	0.3865	0.9521	0.242
Mof_O 	O 	0.5463	0.8497	0.4673	-0.356
Mof_O 	O 	0.5404	0.9116	0.4435	-0.45
Mof_C 	C 	0.7152	0.8257	0.3283	-0.182
Mof_H 	H 	0.6909	0.8157	0.3181	0.096
Mof_C 	C 	0.7139	0.8536	0.3593	0.114
Mof_C 	C 	0.6726	0.8649	0.3807	-0.011
Mof_C 	C 	0.6639	0.9035	0.395	-0.047
Mof_H 	H 	0.6817	0.9247	0.3899	0.052
Mof_C 	C 	0.6285	0.9105	0.4167	-0.035
Mof_H 	H 	0.6227	0.9363	0.4263	0.053
Mof_C 	C 	0.6018	0.8788	0.4242	-0.007
Mof_C 	C 	0.6105	0.8401	0.41	-0.034
Mof_H 	H 	0.5926	0.8189	0.415	0.066
Mof_C 	C 	0.6459	0.8331	0.3882	-0.048
Mof_H 	H 	0.6517	0.8073	0.3787	0.051
Mof_C 	C 	0.5634	0.8865	0.4521	0.234
Mof_O 	O 	0.0327	0.0463	0.6503	-0.358
Mof_O 	O 	0.0565	0.0404	0.5884	-0.451
Mof_C 	C 	0.1717	0.2152	0.6743	-0.178
Mof_H 	H 	0.1819	0.1909	0.6843	0.093
Mof_C 	C 	0.1407	0.2139	0.6464	0.107
Mof_C 	C 	0.1193	0.1726	0.6351	-0.009
Mof_C 	C 	0.105	0.1639	0.5965	-0.055
Mof_H 	H 	0.1101	0.1817	0.5753	0.048
Mof_C 	C 	0.0833	0.1285	0.5895	-0.033
Mof_H 	H 	0.0737	0.1227	0.5637	0.043
Mof_C 	C 	0.0758	0.1018	0.6212	-0.018
Mof_C 	C 	0.09	0.1105	0.6599	-0.031
Mof_H 	H 	0.085	0.0926	0.6811	0.06
Mof_C 	C 	0.1118	0.1459	0.6669	-0.054
Mof_H 	H 	0.1213	0.1517	0.6927	0.05
Mof_C 	C 	0.0479	0.0634	0.6135	0.236
Mof_O 	O 	0.5327	0.5463	0.1503	-0.355
Mof_O 	O 	0.5565	0.5404	0.0884	-0.457
Mof_C 	C 	0.6717	0.7152	0.1743	-0.18
Mof_H 	H 	0.6819	0.6909	0.1843	0.094
Mof_C 	C 	0.6407	0.7139	0.1464	0.109
Mof_C 	C 	0.6193	0.6726	0.1351	-0.011
Mof_C 	C 	0.605	0.6639	0.0965	-0.052
Mof_H 	H 	0.6101	0.6817	0.0753	0.045
Mof_C 	C 	0.5833	0.6285	0.0895	-0.035
Mof_H 	H 	0.5737	0.6227	0.0637	0.043
Mof_C 	C 	0.5758	0.6018	0.1212	-0.012
Mof_C 	C 	0.59	0.6105	0.1599	-0.033
Mof_H 	H 	0.585	0.5926	0.1811	0.065
Mof_C 	C 	0.6118	0.6459	0.1669	-0.05
Mof_H 	H 	0.6213	0.6517	0.1927	0.051
Mof_C 	C 	0.5479	0.5634	0.1135	0.235
Mof_O 	O 	0.0327	0.9537	0.3497	-0.342
Mof_O 	O 	0.0565	0.9596	0.4116	-0.43
Mof_C 	C 	0.1717	0.7848	0.3257	-0.18
Mof_H 	H 	0.1819	0.8091	0.3157	0.095
Mof_C 	C 	0.1407	0.7861	0.3536	0.109
Mof_C 	C 	0.1193	0.8274	0.3649	-0.012
Mof_C 	C 	0.105	0.8361	0.4035	-0.049
Mof_H 	H 	0.1101	0.8183	0.4247	0.047
Mof_C 	C 	0.0833	0.8715	0.4105	-0.037
Mof_H 	H 	0.0737	0.8773	0.4363	0.047
Mof_C 	C 	0.0758	0.8982	0.3788	-0.009
Mof_C 	C 	0.09	0.8895	0.3401	-0.035
Mof_H 	H 	0.085	0.9074	0.3189	0.067
Mof_C 	C 	0.1118	0.8541	0.3331	-0.049
Mof_H 	H 	0.1213	0.8483	0.3073	0.05
Mof_C 	C 	0.0479	0.9366	0.3865	0.23
Mof_O 	O 	0.5327	0.4537	0.8497	-0.356
Mof_O 	O 	0.5565	0.4596	0.9116	-0.45
Mof_C 	C 	0.6717	0.2848	0.8257	-0.181
Mof_H 	H 	0.6819	0.3091	0.8157	0.095
Mof_C 	C 	0.6407	0.2861	0.8536	0.112
Mof_C 	C 	0.6193	0.3274	0.8649	-0.011
Mof_C 	C 	0.605	0.3361	0.9035	-0.048
Mof_H 	H 	0.6101	0.3183	0.9247	0.052
Mof_C 	C 	0.5833	0.3715	0.9105	-0.035
Mof_H 	H 	0.5737	0.3773	0.9363	0.052
Mof_C 	C 	0.5758	0.3982	0.8788	-0.007
Mof_C 	C 	0.59	0.3895	0.8401	-0.034
Mof_H 	H 	0.585	0.4074	0.8189	0.066
Mof_C 	C 	0.6118	0.3541	0.8331	-0.048
Mof_H 	H 	0.6213	0.3483	0.8073	0.051
Mof_C 	C 	0.5479	0.4366	0.8865	0.234
Mof_O 	O 	0.9673	0.9537	0.6503	-0.324
Mof_O 	O 	0.9435	0.9596	0.5884	-0.422
Mof_C 	C 	0.8283	0.7848	0.6743	-0.183
Mof_H 	H 	0.8181	0.8091	0.6843	0.097
Mof_C 	C 	0.8593	0.7861	0.6464	0.115
Mof_C 	C 	0.8807	0.8274	0.6351	-0.012
Mof_C 	C 	0.895	0.8361	0.5965	-0.045
Mof_H 	H 	0.8899	0.8183	0.5753	0.049
Mof_C 	C 	0.9167	0.8715	0.5895	-0.037
Mof_H 	H 	0.9263	0.8773	0.5637	0.054
Mof_C 	C 	0.9242	0.8982	0.6212	-0.003
Mof_C 	C 	0.91	0.8895	0.6599	-0.035
Mof_H 	H 	0.915	0.9074	0.6811	0.072
Mof_C 	C 	0.8882	0.8541	0.6669	-0.044
Mof_H 	H 	0.8787	0.8483	0.6927	0.053
Mof_C 	C 	0.9521	0.9366	0.6135	0.236
Mof_O 	O 	0.4673	0.4537	0.1503	-0.355
Mof_O 	O 	0.4435	0.4596	0.0884	-0.457
Mof_C 	C 	0.3283	0.2848	0.1743	-0.179
Mof_H 	H 	0.3181	0.3091	0.1843	0.093
Mof_C 	C 	0.3593	0.2861	0.1464	0.107
Mof_C 	C 	0.3807	0.3274	0.1351	-0.011
Mof_C 	C 	0.395	0.3361	0.0965	-0.052
Mof_H 	H 	0.3899	0.3183	0.0753	0.045
Mof_C 	C 	0.4167	0.3715	0.0895	-0.035
Mof_H 	H 	0.4263	0.3773	0.0637	0.043
Mof_C 	C 	0.4242	0.3982	0.1212	-0.012
Mof_C 	C 	0.41	0.3895	0.1599	-0.033
Mof_H 	H 	0.415	0.4074	0.1811	0.065
Mof_C 	C 	0.3882	0.3541	0.1669	-0.051
Mof_H 	H 	0.3787	0.3483	0.1927	0.051
Mof_C 	C 	0.4521	0.4366	0.1135	0.235
Mof_O 	O 	0.9673	0.0463	0.3497	-0.341
Mof_O 	O 	0.9435	0.0404	0.4116	-0.443
Mof_C 	C 	0.8283	0.2152	0.3257	-0.18
Mof_H 	H 	0.8181	0.1909	0.3157	0.094
Mof_C 	C 	0.8593	0.2139	0.3536	0.111
Mof_C 	C 	0.8807	0.1726	0.3649	-0.01
Mof_C 	C 	0.895	0.1639	0.4035	-0.05
Mof_H 	H 	0.8899	0.1817	0.4247	0.05
Mof_C 	C 	0.9167	0.1285	0.4105	-0.032
Mof_H 	H 	0.9263	0.1227	0.4363	0.05
Mof_C 	C 	0.9242	0.1018	0.3788	-0.013
Mof_C 	C 	0.91	0.1105	0.3401	-0.031
Mof_H 	H 	0.915	0.0926	0.3189	0.064
Mof_C 	C 	0.8882	0.1459	0.3331	-0.05
Mof_H 	H 	0.8787	0.1517	0.3073	0.051
Mof_C 	C 	0.9521	0.0634	0.3865	0.242
Mof_O 	O 	0.4673	0.5463	0.8497	-0.356
Mof_O 	O 	0.4435	0.5404	0.9116	-0.45
Mof_C 	C 	0.3283	0.7152	0.8257	-0.182
Mof_H 	H 	0.3181	0.6909	0.8157	0.096
Mof_C 	C 	0.3593	0.7139	0.8536	0.114
Mof_C 	C 	0.3807	0.6726	0.8649	-0.011
Mof_C 	C 	0.395	0.6639	0.9035	-0.047
Mof_H 	H 	0.3899	0.6817	0.9247	0.052
Mof_C 	C 	0.4167	0.6285	0.9105	-0.035
Mof_H 	H 	0.4263	0.6227	0.9363	0.053
Mof_C 	C 	0.4242	0.6018	0.8788	-0.007
Mof_C 	C 	0.41	0.6105	0.8401	-0.034
Mof_H 	H 	0.415	0.5926	0.8189	0.066
Mof_C 	C 	0.3882	0.6459	0.8331	-0.048
Mof_H 	H 	0.3787	0.6517	0.8073	0.051
Mof_C 	C 	0.4521	0.5634	0.8865	0.234
Mof_O 	O 	0.6503	0.0327	0.0463	-0.358
Mof_O 	O 	0.5884	0.0565	0.0404	-0.451
Mof_C 	C 	0.6743	0.1717	0.2152	-0.178
Mof_H 	H 	0.6843	0.1819	0.1909	0.093
Mof_C 	C 	0.6464	0.1407	0.2139	0.107
Mof_C 	C 	0.6351	0.1193	0.1726	-0.009
Mof_C 	C 	0.5965	0.105	0.1639	-0.055
Mof_H 	H 	0.5753	0.1101	0.1817	0.048
Mof_C 	C 	0.5895	0.0833	0.1285	-0.033
Mof_H 	H 	0.5637	0.0737	0.1227	0.043
Mof_C 	C 	0.6212	0.0758	0.1018	-0.018
Mof_C 	C 	0.6599	0.09	0.1105	-0.031
Mof_H 	H 	0.6811	0.085	0.0926	0.06
Mof_C 	C 	0.6669	0.1118	0.1459	-0.054
Mof_H 	H 	0.6927	0.1213	0.1517	0.05
Mof_C 	C 	0.6135	0.0479	0.0634	0.236
Mof_O 	O 	0.1503	0.5327	0.5463	-0.355
Mof_O 	O 	0.0884	0.5565	0.5404	-0.457
Mof_C 	C 	0.1743	0.6717	0.7152	-0.18
Mof_H 	H 	0.1843	0.6819	0.6909	0.094
Mof_C 	C 	0.1464	0.6407	0.7139	0.109
Mof_C 	C 	0.1351	0.6193	0.6726	-0.011
Mof_C 	C 	0.0965	0.605	0.6639	-0.052
Mof_H 	H 	0.0753	0.6101	0.6817	0.045
Mof_C 	C 	0.0895	0.5833	0.6285	-0.035
Mof_H 	H 	0.0637	0.5737	0.6227	0.043
Mof_C 	C 	0.1212	0.5758	0.6018	-0.012
Mof_C 	C 	0.1599	0.59	0.6105	-0.033
Mof_H 	H 	0.1811	0.585	0.5926	0.065
Mof_C 	C 	0.1669	0.6118	0.6459	-0.05
Mof_H 	H 	0.1927	0.6213	0.6517	0.051
Mof_C 	C 	0.1135	0.5479	0.5634	0.235
Mof_O 	O 	0.3497	0.0327	0.9537	-0.342
Mof_O 	O 	0.4116	0.0565	0.9596	-0.43
Mof_C 	C 	0.3257	0.1717	0.7848	-0.18
Mof_H 	H 	0.3157	0.1819	0.8091	0.095
Mof_C 	C 	0.3536	0.1407	0.7861	0.109
Mof_C 	C 	0.3649	0.1193	0.8274	-0.012
Mof_C 	C 	0.4035	0.105	0.8361	-0.049
Mof_H 	H 	0.4247	0.1101	0.8183	0.047
Mof_C 	C 	0.4105	0.0833	0.8715	-0.037
Mof_H 	H 	0.4363	0.0737	0.8773	0.047
Mof_C 	C 	0.3788	0.0758	0.8982	-0.009
Mof_C 	C 	0.3401	0.09	0.8895	-0.035
Mof_H 	H 	0.3189	0.085	0.9074	0.067
Mof_C 	C 	0.3331	0.1118	0.8541	-0.049
Mof_H 	H 	0.3073	0.1213	0.8483	0.05
Mof_C 	C 	0.3865	0.0479	0.9366	0.23
Mof_O 	O 	0.8497	0.5327	0.4537	-0.356
Mof_O 	O 	0.9116	0.5565	0.4596	-0.45
Mof_C 	C 	0.8257	0.6717	0.2848	-0.181
Mof_H 	H 	0.8157	0.6819	0.3091	0.095
Mof_C 	C 	0.8536	0.6407	0.2861	0.112
Mof_C 	C 	0.8649	0.6193	0.3274	-0.011
Mof_C 	C 	0.9035	0.605	0.3361	-0.048
Mof_H 	H 	0.9247	0.6101	0.3183	0.052
Mof_C 	C 	0.9105	0.5833	0.3715	-0.035
Mof_H 	H 	0.9363	0.5737	0.3773	0.052
Mof_C 	C 	0.8788	0.5758	0.3982	-0.007
Mof_C 	C 	0.8401	0.59	0.3895	-0.034
Mof_H 	H 	0.8189	0.585	0.4074	0.066
Mof_C 	C 	0.8331	0.6118	0.3541	-0.048
Mof_H 	H 	0.8073	0.6213	0.3483	0.051
Mof_C 	C 	0.8865	0.5479	0.4366	0.234
Mof_O 	O 	0.6503	0.9673	0.9537	-0.324
Mof_O 	O 	0.5884	0.9435	0.9596	-0.422
Mof_C 	C 	0.6743	0.8283	0.7848	-0.183
Mof_H 	H 	0.6843	0.8181	0.8091	0.097
Mof_C 	C 	0.6464	0.8593	0.7861	0.115
Mof_C 	C 	0.6351	0.8807	0.8274	-0.012
Mof_C 	C 	0.5965	0.895	0.8361	-0.045
Mof_H 	H 	0.5753	0.8899	0.8183	0.049
Mof_C 	C 	0.5895	0.9167	0.8715	-0.037
Mof_H 	H 	0.5637	0.9263	0.8773	0.054
Mof_C 	C 	0.6212	0.9242	0.8982	-0.003
Mof_C 	C 	0.6599	0.91	0.8895	-0.035
Mof_H 	H 	0.6811	0.915	0.9074	0.072
Mof_C 	C 	0.6669	0.8882	0.8541	-0.044
Mof_H 	H 	0.6927	0.8787	0.8483	0.053
Mof_C 	C 	0.6135	0.9521	0.9366	0.236
Mof_O 	O 	0.1503	0.4673	0.4537	-0.355
Mof_O 	O 	0.0884	0.4435	0.4596	-0.457
Mof_C 	C 	0.1743	0.3283	0.2848	-0.179
Mof_H 	H 	0.1843	0.3181	0.3091	0.093
Mof_C 	C 	0.1464	0.3593	0.2861	0.107
Mof_C 	C 	0.1351	0.3807	0.3274	-0.011
Mof_C 	C 	0.0965	0.395	0.3361	-0.052
Mof_H 	H 	0.0753	0.3899	0.3183	0.045
Mof_C 	C 	0.0895	0.4167	0.3715	-0.035
Mof_H 	H 	0.0637	0.4263	0.3773	0.043
Mof_C 	C 	0.1212	0.4242	0.3982	-0.012
Mof_C 	C 	0.1599	0.41	0.3895	-0.033
Mof_H 	H 	0.1811	0.415	0.4074	0.065
Mof_C 	C 	0.1669	0.3882	0.3541	-0.051
Mof_H 	H 	0.1927	0.3787	0.3483	0.051
Mof_C 	C 	0.1135	0.4521	0.4366	0.235
Mof_O 	O 	0.3497	0.9673	0.0463	-0.341
Mof_O 	O 	0.4116	0.9435	0.0404	-0.443
Mof_C 	C 	0.3257	0.8283	0.2152	-0.18
Mof_H 	H 	0.3157	0.8181	0.1909	0.094
Mof_C 	C 	0.3536	0.8593	0.2139	0.111
Mof_C 	C 	0.3649	0.8807	0.1726	-0.01
Mof_C 	C 	0.4035	0.895	0.1639	-0.05
Mof_H 	H 	0.4247	0.8899	0.1817	0.05
Mof_C 	C 	0.4105	0.9167	0.1285	-0.032
Mof_H 	H 	0.4363	0.9263	0.1227	0.05
Mof_C 	C 	0.3788	0.9242	0.1018	-0.013
Mof_C 	C 	0.3401	0.91	0.1105	-0.031
Mof_H 	H 	0.3189	0.915	0.0926	0.064
Mof_C 	C 	0.3331	0.8882	0.1459	-0.05
Mof_H 	H 	0.3073	0.8787	0.1517	0.051
Mof_C 	C 	0.3865	0.9521	0.0634	0.242
Mof_O 	O 	0.8497	0.4673	0.5463	-0.356
Mof_O 	O 	0.9116	0.4435	0.5404	-0.45
Mof_C 	C 	0.8257	0.3283	0.7152	-0.182
Mof_H 	H 	0.8157	0.3181	0.6909	0.096
Mof_C 	C 	0.8536	0.3593	0.7139	0.114
Mof_C 	C 	0.8649	0.3807	0.6726	-0.011
Mof_C 	C 	0.9035	0.395	0.6639	-0.047
Mof_H 	H 	0.9247	0.3899	0.6817	0.052
Mof_C 	C 	0.9105	0.4167	0.6285	-0.035
Mof_H 	H 	0.9363	0.4263	0.6227	0.053
Mof_C 	C 	0.8788	0.4242	0.6018	-0.007
Mof_C 	C 	0.8401	0.41	0.6105	-0.034
Mof_H 	H 	0.8189	0.415	0.5926	0.066
Mof_C 	C 	0.8331	0.3882	0.6459	-0.048
Mof_H 	H 	0.8073	0.3787	0.6517	0.051
Mof_C 	C 	0.8865	0.4521	0.5634	0.234
Mof_O 	O 	0.6503	0.0463	0.9673	-0.341
Mof_O 	O 	0.5884	0.0404	0.9435	-0.443
Mof_C 	C 	0.6743	0.2152	0.8283	-0.181
Mof_H 	H 	0.6843	0.1909	0.8181	0.094
Mof_C 	C 	0.6464	0.2139	0.8593	0.112
Mof_C 	C 	0.6351	0.1726	0.8807	-0.01
Mof_C 	C 	0.5965	0.1639	0.895	-0.05
Mof_H 	H 	0.5753	0.1817	0.8899	0.05
Mof_C 	C 	0.5895	0.1285	0.9167	-0.032
Mof_H 	H 	0.5637	0.1227	0.9263	0.05
Mof_C 	C 	0.6212	0.1018	0.9242	-0.012
Mof_C 	C 	0.6599	0.1105	0.91	-0.031
Mof_H 	H 	0.6811	0.0926	0.915	0.065
Mof_C 	C 	0.6669	0.1459	0.8882	-0.05
Mof_H 	H 	0.6927	0.1517	0.8787	0.052
Mof_C 	C 	0.6135	0.0634	0.9521	0.242
Mof_O 	O 	0.1503	0.5463	0.4673	-0.355
Mof_O 	O 	0.0884	0.5404	0.4435	-0.457
Mof_C 	C 	0.1743	0.7152	0.3283	-0.18
Mof_H 	H 	0.1843	0.6909	0.3181	0.094
Mof_C 	C 	0.1464	0.7139	0.3593	0.109
Mof_C 	C 	0.1351	0.6726	0.3807	-0.011
Mof_C 	C 	0.0965	0.6639	0.395	-0.052
Mof_H 	H 	0.0753	0.6817	0.3899	0.045
Mof_C 	C 	0.0895	0.6285	0.4167	-0.035
Mof_H 	H 	0.0637	0.6227	0.4263	0.043
Mof_C 	C 	0.1212	0.6018	0.4242	-0.012
Mof_C 	C 	0.1599	0.6105	0.41	-0.033
Mof_H 	H 	0.1811	0.5926	0.415	0.065
Mof_C 	C 	0.1669	0.6459	0.3882	-0.05
Mof_H 	H 	0.1927	0.6517	0.3787	0.051
Mof_C 	C 	0.1135	0.5634	0.4521	0.235
Mof_O 	O 	0.3497	0.9537	0.9673	-0.325
Mof_O 	O 	0.4116	0.9596	0.9435	-0.422
Mof_C 	C 	0.3257	0.7848	0.8283	-0.182
Mof_H 	H 	0.3157	0.8091	0.8181	0.096
Mof_C 	C 	0.3536	0.7861	0.8593	0.114
Mof_C 	C 	0.3649	0.8274	0.8807	-0.012
Mof_C 	C 	0.4035	0.8361	0.895	-0.045
Mof_H 	H 	0.4247	0.8183	0.8899	0.049
Mof_C 	C 	0.4105	0.8715	0.9167	-0.036
Mof_H 	H 	0.4363	0.8773	0.9263	0.054
Mof_C 	C 	0.3788	0.8982	0.9242	-0.004
Mof_C 	C 	0.3401	0.8895	0.91	-0.035
Mof_H 	H 	0.3189	0.9074	0.915	0.071
Mof_C 	C 	0.3331	0.8541	0.8882	-0.044
Mof_H 	H 	0.3073	0.8483	0.8787	0.052
Mof_C 	C 	0.3865	0.9366	0.9521	0.236
Mof_O 	O 	0.8497	0.4537	0.4673	-0.356
Mof_O 	O 	0.9116	0.4596	0.4435	-0.45
Mof_C 	C 	0.8257	0.2848	0.3283	-0.18
Mof_H 	H 	0.8157	0.3091	0.3181	0.095
Mof_C 	C 	0.8536	0.2861	0.3593	0.112
Mof_C 	C 	0.8649	0.3274	0.3807	-0.011
Mof_C 	C 	0.9035	0.3361	0.395	-0.048
Mof_H 	H 	0.9247	0.3183	0.3899	0.052
Mof_C 	C 	0.9105	0.3715	0.4167	-0.035
Mof_H 	H 	0.9363	0.3773	0.4263	0.052
Mof_C 	C 	0.8788	0.3982	0.4242	-0.007
Mof_C 	C 	0.8401	0.3895	0.41	-0.034
Mof_H 	H 	0.8189	0.4074	0.415	0.066
Mof_C 	C 	0.8331	0.3541	0.3882	-0.048
Mof_H 	H 	0.8073	0.3483	0.3787	0.051
Mof_C 	C 	0.8865	0.4366	0.4521	0.234
Mof_O 	O 	0.6503	0.9537	0.0327	-0.341
Mof_O 	O 	0.5884	0.9596	0.0565	-0.43
Mof_C 	C 	0.6743	0.7848	0.1717	-0.18
Mof_H 	H 	0.6843	0.8091	0.1819	0.095
Mof_C 	C 	0.6464	0.7861	0.1407	0.11
Mof_C 	C 	0.6351	0.8274	0.1193	-0.012
Mof_C 	C 	0.5965	0.8361	0.105	-0.049
Mof_H 	H 	0.5753	0.8183	0.1101	0.047
Mof_C 	C 	0.5895	0.8715	0.0833	-0.037
Mof_H 	H 	0.5637	0.8773	0.0737	0.047
Mof_C 	C 	0.6212	0.8982	0.0758	-0.008
Mof_C 	C 	0.6599	0.8895	0.09	-0.035
Mof_H 	H 	0.6811	0.9074	0.085	0.068
Mof_C 	C 	0.6669	0.8541	0.1118	-0.048
Mof_H 	H 	0.6927	0.8483	0.1213	0.051
Mof_C 	C 	0.6135	0.9366	0.0479	0.23
Mof_O 	O 	0.1503	0.4537	0.5327	-0.355
Mof_O 	O 	0.0884	0.4596	0.5565	-0.457
Mof_C 	C 	0.1743	0.2848	0.6717	-0.179
Mof_H 	H 	0.1843	0.3091	0.6819	0.093
Mof_C 	C 	0.1464	0.2861	0.6407	0.108
Mof_C 	C 	0.1351	0.3274	0.6193	-0.011
Mof_C 	C 	0.0965	0.3361	0.605	-0.052
Mof_H 	H 	0.0753	0.3183	0.6101	0.045
Mof_C 	C 	0.0895	0.3715	0.5833	-0.035
Mof_H 	H 	0.0637	0.3773	0.5737	0.043
Mof_C 	C 	0.1212	0.3982	0.5758	-0.012
Mof_C 	C 	0.1599	0.3895	0.59	-0.033
Mof_H 	H 	0.1811	0.4074	0.585	0.065
Mof_C 	C 	0.1669	0.3541	0.6118	-0.051
Mof_H 	H 	0.1927	0.3483	0.6213	0.051
Mof_C 	C 	0.1135	0.4366	0.5479	0.235
Mof_O 	O 	0.3497	0.0463	0.0327	-0.359
Mof_O 	O 	0.4116	0.0404	0.0565	-0.451
Mof_C 	C 	0.3257	0.2152	0.1717	-0.178
Mof_H 	H 	0.3157	0.1909	0.1819	0.092
Mof_C 	C 	0.3536	0.2139	0.1407	0.106
Mof_C 	C 	0.3649	0.1726	0.1193	-0.009
Mof_C 	C 	0.4035	0.1639	0.105	-0.055
Mof_H 	H 	0.4247	0.1817	0.1101	0.048
Mof_C 	C 	0.4105	0.1285	0.0833	-0.033
Mof_H 	H 	0.4363	0.1227	0.0737	0.043
Mof_C 	C 	0.3788	0.1018	0.0758	-0.018
Mof_C 	C 	0.3401	0.1105	0.09	-0.031
Mof_H 	H 	0.3189	0.0926	0.085	0.059
Mof_C 	C 	0.3331	0.1459	0.1118	-0.055
Mof_H 	H 	0.3073	0.1517	0.1213	0.049
Mof_C 	C 	0.3865	0.0634	0.0479	0.236
Mof_O 	O 	0.8497	0.5463	0.5327	-0.356
Mof_O 	O 	0.9116	0.5404	0.5565	-0.45
Mof_C 	C 	0.8257	0.7152	0.6717	-0.182
Mof_H 	H 	0.8157	0.6909	0.6819	0.096
Mof_C 	C 	0.8536	0.7139	0.6407	0.114
Mof_C 	C 	0.8649	0.6726	0.6193	-0.011
Mof_C 	C 	0.9035	0.6639	0.605	-0.047
Mof_H 	H 	0.9247	0.6817	0.6101	0.052
Mof_C 	C 	0.9105	0.6285	0.5833	-0.035
Mof_H 	H 	0.9363	0.6227	0.5737	0.053
Mof_C 	C 	0.8788	0.6018	0.5758	-0.007
Mof_C 	C 	0.8401	0.6105	0.59	-0.034
Mof_H 	H 	0.8189	0.5926	0.585	0.066
Mof_C 	C 	0.8331	0.6459	0.6118	-0.048
Mof_H 	H 	0.8073	0.6517	0.6213	0.051
Mof_C 	C 	0.8865	0.5634	0.5479	0.234
Mof_O 	O 	0.0463	0.0327	0.3497	-0.359
Mof_O 	O 	0.0404	0.0565	0.4116	-0.451
Mof_C 	C 	0.2152	0.1717	0.3257	-0.178
Mof_H 	H 	0.1909	0.1819	0.3157	0.092
Mof_C 	C 	0.2139	0.1407	0.3536	0.106
Mof_C 	C 	0.1726	0.1193	0.3649	-0.009
Mof_C 	C 	0.1639	0.105	0.4035	-0.055
Mof_H 	H 	0.1817	0.1101	0.4247	0.048
Mof_C 	C 	0.1285	0.0833	0.4105	-0.033
Mof_H 	H 	0.1227	0.0737	0.4363	0.043
Mof_C 	C 	0.1018	0.0758	0.3788	-0.018
Mof_C 	C 	0.1105	0.09	0.3401	-0.031
Mof_H 	H 	0.0926	0.085	0.3189	0.059
Mof_C 	C 	0.1459	0.1118	0.3331	-0.055
Mof_H 	H 	0.1517	0.1213	0.3073	0.049
Mof_C 	C 	0.0634	0.0479	0.3865	0.236
Mof_O 	O 	0.5463	0.5327	0.8497	-0.356
Mof_O 	O 	0.5404	0.5565	0.9116	-0.45
Mof_C 	C 	0.7152	0.6717	0.8257	-0.182
Mof_H 	H 	0.6909	0.6819	0.8157	0.096
Mof_C 	C 	0.7139	0.6407	0.8536	0.114
Mof_C 	C 	0.6726	0.6193	0.8649	-0.011
Mof_C 	C 	0.6639	0.605	0.9035	-0.047
Mof_H 	H 	0.6817	0.6101	0.9247	0.052
Mof_C 	C 	0.6285	0.5833	0.9105	-0.035
Mof_H 	H 	0.6227	0.5737	0.9363	0.053
Mof_C 	C 	0.6018	0.5758	0.8788	-0.007
Mof_C 	C 	0.6105	0.59	0.8401	-0.034
Mof_H 	H 	0.5926	0.585	0.8189	0.066
Mof_C 	C 	0.6459	0.6118	0.8331	-0.048
Mof_H 	H 	0.6517	0.6213	0.8073	0.051
Mof_C 	C 	0.5634	0.5479	0.8865	0.234
Mof_O 	O 	0.9537	0.0327	0.6503	-0.341
Mof_O 	O 	0.9596	0.0565	0.5884	-0.43
Mof_C 	C 	0.7848	0.1717	0.6743	-0.18
Mof_H 	H 	0.8091	0.1819	0.6843	0.095
Mof_C 	C 	0.7861	0.1407	0.6464	0.11
Mof_C 	C 	0.8274	0.1193	0.6351	-0.012
Mof_C 	C 	0.8361	0.105	0.5965	-0.049
Mof_H 	H 	0.8183	0.1101	0.5753	0.047
Mof_C 	C 	0.8715	0.0833	0.5895	-0.037
Mof_H 	H 	0.8773	0.0737	0.5637	0.047
Mof_C 	C 	0.8982	0.0758	0.6212	-0.008
Mof_C 	C 	0.8895	0.09	0.6599	-0.035
Mof_H 	H 	0.9074	0.085	0.6811	0.068
Mof_C 	C 	0.8541	0.1118	0.6669	-0.048
Mof_H 	H 	0.8483	0.1213	0.6927	0.051
Mof_C 	C 	0.9366	0.0479	0.6135	0.23
Mof_O 	O 	0.4537	0.5327	0.1503	-0.355
Mof_O 	O 	0.4596	0.5565	0.0884	-0.457
Mof_C 	C 	0.2848	0.6717	0.1743	-0.179
Mof_H 	H 	0.3091	0.6819	0.1843	0.093
Mof_C 	C 	0.2861	0.6407	0.1464	0.108
Mof_C 	C 	0.3274	0.6193	0.1351	-0.011
Mof_C 	C 	0.3361	0.605	0.0965	-0.052
Mof_H 	H 	0.3183	0.6101	0.0753	0.045
Mof_C 	C 	0.3715	0.5833	0.0895	-0.035
Mof_H 	H 	0.3773	0.5737	0.0637	0.043
Mof_C 	C 	0.3982	0.5758	0.1212	-0.012
Mof_C 	C 	0.3895	0.59	0.1599	-0.033
Mof_H 	H 	0.4074	0.585	0.1811	0.065
Mof_C 	C 	0.3541	0.6118	0.1669	-0.051
Mof_H 	H 	0.3483	0.6213	0.1927	0.051
Mof_C 	C 	0.4366	0.5479	0.1135	0.235
Mof_O 	O 	0.9537	0.9673	0.3497	-0.325
Mof_O 	O 	0.9596	0.9435	0.4116	-0.422
Mof_C 	C 	0.7848	0.8283	0.3257	-0.182
Mof_H 	H 	0.8091	0.8181	0.3157	0.096
Mof_C 	C 	0.7861	0.8593	0.3536	0.114
Mof_C 	C 	0.8274	0.8807	0.3649	-0.012
Mof_C 	C 	0.8361	0.895	0.4035	-0.045
Mof_H 	H 	0.8183	0.8899	0.4247	0.049
Mof_C 	C 	0.8715	0.9167	0.4105	-0.036
Mof_H 	H 	0.8773	0.9263	0.4363	0.054
Mof_C 	C 	0.8982	0.9242	0.3788	-0.004
Mof_C 	C 	0.8895	0.91	0.3401	-0.035
Mof_H 	H 	0.9074	0.915	0.3189	0.071
Mof_C 	C 	0.8541	0.8882	0.3331	-0.044
Mof_H 	H 	0.8483	0.8787	0.3073	0.052
Mof_C 	C 	0.9366	0.9521	0.3865	0.236
Mof_O 	O 	0.4537	0.4673	0.8497	-0.356
Mof_O 	O 	0.4596	0.4435	0.9116	-0.45
Mof_C 	C 	0.2848	0.3283	0.8257	-0.18
Mof_H 	H 	0.3091	0.3181	0.8157	0.095
Mof_C 	C 	0.2861	0.3593	0.8536	0.112
Mof_C 	C 	0.3274	0.3807	0.8649	-0.011
Mof_C 	C 	0.3361	0.395	0.9035	-0.048
Mof_H 	H 	0.3183	0.3899	0.9247	0.052
Mof_C 	C 	0.3715	0.4167	0.9105	-0.035
Mof_H 	H 	0.3773	0.4263	0.9363	0.052
Mof_C 	C 	0.3982	0.4242	0.8788	-0.007
Mof_C 	C 	0.3895	0.41	0.8401	-0.034
Mof_H 	H 	0.4074	0.415	0.8189	0.066
Mof_C 	C 	0.3541	0.3882	0.8331	-0.048
Mof_H 	H 	0.3483	0.3787	0.8073	0.051
Mof_C 	C 	0.4366	0.4521	0.8865	0.234
Mof_O 	O 	0.0463	0.9673	0.6503	-0.341
Mof_O 	O 	0.0404	0.9435	0.5884	-0.443
Mof_C 	C 	0.2152	0.8283	0.6743	-0.181
Mof_H 	H 	0.1909	0.8181	0.6843	0.094
Mof_C 	C 	0.2139	0.8593	0.6464	0.112
Mof_C 	C 	0.1726	0.8807	0.6351	-0.01
Mof_C 	C 	0.1639	0.895	0.5965	-0.05
Mof_H 	H 	0.1817	0.8899	0.5753	0.05
Mof_C 	C 	0.1285	0.9167	0.5895	-0.032
Mof_H 	H 	0.1227	0.9263	0.5637	0.05
Mof_C 	C 	0.1018	0.9242	0.6212	-0.012
Mof_C 	C 	0.1105	0.91	0.6599	-0.031
Mof_H 	H 	0.0926	0.915	0.6811	0.065
Mof_C 	C 	0.1459	0.8882	0.6669	-0.05
Mof_H 	H 	0.1517	0.8787	0.6927	0.052
Mof_C 	C 	0.0634	0.9521	0.6135	0.242
Mof_O 	O 	0.5463	0.4673	0.1503	-0.355
Mof_O 	O 	0.5404	0.4435	0.0884	-0.457
Mof_C 	C 	0.7152	0.3283	0.1743	-0.18
Mof_H 	H 	0.6909	0.3181	0.1843	0.094
Mof_C 	C 	0.7139	0.3593	0.1464	0.109
Mof_C 	C 	0.6726	0.3807	0.1351	-0.011
Mof_C 	C 	0.6639	0.395	0.0965	-0.052
Mof_H 	H 	0.6817	0.3899	0.0753	0.045
Mof_C 	C 	0.6285	0.4167	0.0895	-0.035
Mof_H 	H 	0.6227	0.4263	0.0637	0.043
Mof_C 	C 	0.6018	0.4242	0.1212	-0.012
Mof_C 	C 	0.6105	0.41	0.1599	-0.033
Mof_H 	H 	0.5926	0.415	0.1811	0.065
Mof_C 	C 	0.6459	0.3882	0.1669	-0.05
Mof_H 	H 	0.6517	0.3787	0.1927	0.051
Mof_C 	C 	0.5634	0.4521	0.1135	0.235
Mof_O 	O 	0.0327	0.6503	0.9537	-0.341
Mof_O 	O 	0.0565	0.5884	0.9596	-0.43
Mof_C 	C 	0.1717	0.6743	0.7848	-0.18
Mof_H 	H 	0.1819	0.6843	0.8091	0.095
Mof_C 	C 	0.1407	0.6464	0.7861	0.11
Mof_C 	C 	0.1193	0.6351	0.8274	-0.012
Mof_C 	C 	0.105	0.5965	0.8361	-0.049
Mof_H 	H 	0.1101	0.5753	0.8183	0.047
Mof_C 	C 	0.0833	0.5895	0.8715	-0.037
Mof_H 	H 	0.0737	0.5637	0.8773	0.047
Mof_C 	C 	0.0758	0.6212	0.8982	-0.008
Mof_C 	C 	0.09	0.6599	0.8895	-0.035
Mof_H 	H 	0.085	0.6811	0.9074	0.068
Mof_C 	C 	0.1118	0.6669	0.8541	-0.048
Mof_H 	H 	0.1213	0.6927	0.8483	0.051
Mof_C 	C 	0.0479	0.6135	0.9366	0.23
Mof_O 	O 	0.5327	0.1503	0.4537	-0.355
Mof_O 	O 	0.5565	0.0884	0.4596	-0.457
Mof_C 	C 	0.6717	0.1743	0.2848	-0.179
Mof_H 	H 	0.6819	0.1843	0.3091	0.093
Mof_C 	C 	0.6407	0.1464	0.2861	0.108
Mof_C 	C 	0.6193	0.1351	0.3274	-0.011
Mof_C 	C 	0.605	0.0965	0.3361	-0.052
Mof_H 	H 	0.6101	0.0753	0.3183	0.045
Mof_C 	C 	0.5833	0.0895	0.3715	-0.035
Mof_H 	H 	0.5737	0.0637	0.3773	0.043
Mof_C 	C 	0.5758	0.1212	0.3982	-0.012
Mof_C 	C 	0.59	0.1599	0.3895	-0.033
Mof_H 	H 	0.585	0.1811	0.4074	0.065
Mof_C 	C 	0.6118	0.1669	0.3541	-0.051
Mof_H 	H 	0.6213	0.1927	0.3483	0.051
Mof_C 	C 	0.5479	0.1135	0.4366	0.235
Mof_O 	O 	0.0327	0.3497	0.0463	-0.359
Mof_O 	O 	0.0565	0.4116	0.0404	-0.451
Mof_C 	C 	0.1717	0.3257	0.2152	-0.178
Mof_H 	H 	0.1819	0.3157	0.1909	0.092
Mof_C 	C 	0.1407	0.3536	0.2139	0.106
Mof_C 	C 	0.1193	0.3649	0.1726	-0.009
Mof_C 	C 	0.105	0.4035	0.1639	-0.055
Mof_H 	H 	0.1101	0.4247	0.1817	0.048
Mof_C 	C 	0.0833	0.4105	0.1285	-0.033
Mof_H 	H 	0.0737	0.4363	0.1227	0.043
Mof_C 	C 	0.0758	0.3788	0.1018	-0.018
Mof_C 	C 	0.09	0.3401	0.1105	-0.031
Mof_H 	H 	0.085	0.3189	0.0926	0.059
Mof_C 	C 	0.1118	0.3331	0.1459	-0.055
Mof_H 	H 	0.1213	0.3073	0.1517	0.049
Mof_C 	C 	0.0479	0.3865	0.0634	0.236
Mof_O 	O 	0.5327	0.8497	0.5463	-0.356
Mof_O 	O 	0.5565	0.9116	0.5404	-0.45
Mof_C 	C 	0.6717	0.8257	0.7152	-0.182
Mof_H 	H 	0.6819	0.8157	0.6909	0.096
Mof_C 	C 	0.6407	0.8536	0.7139	0.114
Mof_C 	C 	0.6193	0.8649	0.6726	-0.011
Mof_C 	C 	0.605	0.9035	0.6639	-0.047
Mof_H 	H 	0.6101	0.9247	0.6817	0.052
Mof_C 	C 	0.5833	0.9105	0.6285	-0.035
Mof_H 	H 	0.5737	0.9363	0.6227	0.053
Mof_C 	C 	0.5758	0.8788	0.6018	-0.007
Mof_C 	C 	0.59	0.8401	0.6105	-0.034
Mof_H 	H 	0.585	0.8189	0.5926	0.066
Mof_C 	C 	0.6118	0.8331	0.6459	-0.048
Mof_H 	H 	0.6213	0.8073	0.6517	0.051
Mof_C 	C 	0.5479	0.8865	0.5634	0.234
Mof_O 	O 	0.9673	0.6503	0.0463	-0.341
Mof_O 	O 	0.9435	0.5884	0.0404	-0.443
Mof_C 	C 	0.8283	0.6743	0.2152	-0.181
Mof_H 	H 	0.8181	0.6843	0.1909	0.094
Mof_C 	C 	0.8593	0.6464	0.2139	0.112
Mof_C 	C 	0.8807	0.6351	0.1726	-0.01
Mof_C 	C 	0.895	0.5965	0.1639	-0.05
Mof_H 	H 	0.8899	0.5753	0.1817	0.05
Mof_C 	C 	0.9167	0.5895	0.1285	-0.032
Mof_H 	H 	0.9263	0.5637	0.1227	0.05
Mof_C 	C 	0.9242	0.6212	0.1018	-0.012
Mof_C 	C 	0.91	0.6599	0.1105	-0.031
Mof_H 	H 	0.915	0.6811	0.0926	0.065
Mof_C 	C 	0.8882	0.6669	0.1459	-0.05
Mof_H 	H 	0.8787	0.6927	0.1517	0.052
Mof_C 	C 	0.9521	0.6135	0.0634	0.242
Mof_O 	O 	0.4673	0.1503	0.5463	-0.355
Mof_O 	O 	0.4435	0.0884	0.5404	-0.457
Mof_C 	C 	0.3283	0.1743	0.7152	-0.18
Mof_H 	H 	0.3181	0.1843	0.6909	0.094
Mof_C 	C 	0.3593	0.1464	0.7139	0.109
Mof_C 	C 	0.3807	0.1351	0.6726	-0.011
Mof_C 	C 	0.395	0.0965	0.6639	-0.052
Mof_H 	H 	0.3899	0.0753	0.6817	0.045
Mof_C 	C 	0.4167	0.0895	0.6285	-0.035
Mof_H 	H 	0.4263	0.0637	0.6227	0.043
Mof_C 	C 	0.4242	0.1212	0.6018	-0.012
Mof_C 	C 	0.41	0.1599	0.6105	-0.033
Mof_H 	H 	0.415	0.1811	0.5926	0.065
Mof_C 	C 	0.3882	0.1669	0.6459	-0.05
Mof_H 	H 	0.3787	0.1927	0.6517	0.051
Mof_C 	C 	0.4521	0.1135	0.5634	0.235
Mof_O 	O 	0.9673	0.3497	0.9537	-0.325
Mof_O 	O 	0.9435	0.4116	0.9596	-0.422
Mof_C 	C 	0.8283	0.3257	0.7848	-0.182
Mof_H 	H 	0.8181	0.3157	0.8091	0.096
Mof_C 	C 	0.8593	0.3536	0.7861	0.114
Mof_C 	C 	0.8807	0.3649	0.8274	-0.012
Mof_C 	C 	0.895	0.4035	0.8361	-0.045
Mof_H 	H 	0.8899	0.4247	0.8183	0.049
Mof_C 	C 	0.9167	0.4105	0.8715	-0.036
Mof_H 	H 	0.9263	0.4363	0.8773	0.054
Mof_C 	C 	0.9242	0.3788	0.8982	-0.004
Mof_C 	C 	0.91	0.3401	0.8895	-0.035
Mof_H 	H 	0.915	0.3189	0.9074	0.071
Mof_C 	C 	0.8882	0.3331	0.8541	-0.044
Mof_H 	H 	0.8787	0.3073	0.8483	0.052
Mof_C 	C 	0.9521	0.3865	0.9366	0.236
Mof_O 	O 	0.4673	0.8497	0.4537	-0.356
Mof_O 	O 	0.4435	0.9116	0.4596	-0.45
Mof_C 	C 	0.3283	0.8257	0.2848	-0.18
Mof_H 	H 	0.3181	0.8157	0.3091	0.095
Mof_C 	C 	0.3593	0.8536	0.2861	0.112
Mof_C 	C 	0.3807	0.8649	0.3274	-0.011
Mof_C 	C 	0.395	0.9035	0.3361	-0.048
Mof_H 	H 	0.3899	0.9247	0.3183	0.052
Mof_C 	C 	0.4167	0.9105	0.3715	-0.035
Mof_H 	H 	0.4263	0.9363	0.3773	0.052
Mof_C 	C 	0.4242	0.8788	0.3982	-0.007
Mof_C 	C 	0.41	0.8401	0.3895	-0.034
Mof_H 	H 	0.415	0.8189	0.4074	0.066
Mof_C 	C 	0.3882	0.8331	0.3541	-0.048
Mof_H 	H 	0.3787	0.8073	0.3483	0.051
Mof_C 	C 	0.4521	0.8865	0.4366	0.234
Mof_Tb	Tb	5.61946e-33	0.60602	-0	1.946
Mof_Tb	Tb	0.5	0.10602	0.5	2.075
Mof_Tb	Tb	2.80973e-33	0.39398	-0	1.945
Mof_Tb	Tb	0.5	0.89398	0.5	2.09
Mof_Tb	Tb	7.89167e-33	5.61946e-33	0.60602	1.946
Mof_Tb	Tb	0.5	0.5	0.10602	2.075
Mof_Tb	Tb	1.47719e-33	2.80973e-33	0.39398	1.945
Mof_Tb	Tb	0.5	0.5	0.89398	2.09
Mof_Tb	Tb	0.60602	0	-0	1.946
Mof_Tb	Tb	0.10602	0.5	0.5	2.075
Mof_Tb	Tb	0.39398	0	-0	1.945
Mof_Tb	Tb	0.89398	0.5	0.5	2.09
Mof_C 	C 	0.2802	0.75	0.2198	-0.062
Mof_H 	H 	0.3001	0.75	0.1999	0.05
Mof_C 	C 	0.7198	0.25	0.2198	-0.062
Mof_H 	H 	0.6999	0.25	0.1999	0.05
Mof_C 	C 	0.7198	0.75	0.7802	-0.06
Mof_H 	H 	0.6999	0.75	0.8001	0.052
Mof_C 	C 	0.2802	0.25	0.7802	-0.061
Mof_H 	H 	0.3001	0.25	0.8001	0.052
Mof_C 	C 	0.2198	0.2802	0.75	-0.062
Mof_H 	H 	0.1999	0.3001	0.75	0.05
Mof_C 	C 	0.2198	0.7198	0.25	-0.062
Mof_H 	H 	0.1999	0.6999	0.25	0.05
Mof_C 	C 	0.7802	0.7198	0.75	-0.06
Mof_H 	H 	0.8001	0.6999	0.75	0.052
Mof_C 	C 	0.7802	0.2802	0.25	-0.061
Mof_H 	H 	0.8001	0.3001	0.25	0.052
Mof_C 	C 	0.75	0.2198	0.2802	-0.062
Mof_H 	H 	0.75	0.1999	0.3001	0.05
Mof_C 	C 	0.25	0.2198	0.7198	-0.062
Mof_H 	H 	0.25	0.1999	0.6999	0.05
Mof_C 	C 	0.75	0.7802	0.7198	-0.06
Mof_H 	H 	0.75	0.8001	0.6999	0.052
Mof_C 	C 	0.25	0.7802	0.2802	-0.061
Mof_H 	H 	0.25	0.8001	0.3001	0.052
Mof_C 	C 	0.75	0.2802	0.7802	-0.061
Mof_H 	H 	0.75	0.3001	0.8001	0.052
Mof_C 	C 	0.25	0.7198	0.7802	-0.061
Mof_H 	H 	0.25	0.6999	0.8001	0.052
Mof_C 	C 	0.75	0.7198	0.2198	-0.061
Mof_H 	H 	0.75	0.6999	0.1999	0.05
Mof_C 	C 	0.25	0.2802	0.2198	-0.062
Mof_H 	H 	0.25	0.3001	0.1999	0.051
Mof_C 	C 	0.2802	0.2198	0.25	-0.062
Mof_H 	H 	0.3001	0.1999	0.25	0.051
Mof_C 	C 	0.7198	0.2198	0.75	-0.061
Mof_H 	H 	0.6999	0.1999	0.75	0.05
Mof_C 	C 	0.7198	0.7802	0.25	-0.061
Mof_H 	H 	0.6999	0.8001	0.25	0.052
Mof_C 	C 	0.2802	0.7802	0.75	-0.061
Mof_H 	H 	0.3001	0.8001	0.75	0.052
Mof_C 	C 	0.2198	0.75	0.7198	-0.061
Mof_H 	H 	0.1999	0.75	0.6999	0.05
Mof_C 	C 	0.2198	0.25	0.2802	-0.062
Mof_H 	H 	0.1999	0.25	0.3001	0.051
Mof_C 	C 	0.7802	0.75	0.2802	-0.061
Mof_H 	H 	0.8001	0.75	0.3001	0.052
Mof_C 	C 	0.7802	0.25	0.7198	-0.061
Mof_H 	H 	0.8001	0.25	0.6999	0.052
Mof_C 	C 	0.25	0.7195	0.2195	-0.011
Mof_C 	C 	0.25	0.6876	0.1876	0.115
Mof_C 	C 	0.25	0.6312	0.1312	-0.178
Mof_H 	H 	0.25	0.6113	0.1113	0.091
Mof_C 	C 	0.75	0.2805	0.2195	-0.011
Mof_C 	C 	0.75	0.3124	0.1876	0.117
Mof_C 	C 	0.75	0.3688	0.1312	-0.18
Mof_H 	H 	0.75	0.3887	0.1113	0.092
Mof_C 	C 	0.25	0.7805	0.7195	-0.011
Mof_C 	C 	0.25	0.8124	0.6876	0.118
Mof_C 	C 	0.25	0.8688	0.6312	-0.181
Mof_H 	H 	0.25	0.8887	0.6113	0.096
Mof_C 	C 	0.75	0.7195	0.7805	-0.011
Mof_C 	C 	0.75	0.6876	0.8124	0.121
Mof_C 	C 	0.75	0.6312	0.8688	-0.183
Mof_H 	H 	0.75	0.6113	0.8887	0.097
Mof_C 	C 	0.25	0.2805	0.7805	-0.011
Mof_C 	C 	0.25	0.3124	0.8124	0.118
Mof_C 	C 	0.25	0.3688	0.8688	-0.181
Mof_H 	H 	0.25	0.3887	0.8887	0.096
Mof_C 	C 	0.2195	0.25	0.7195	-0.011
Mof_C 	C 	0.1876	0.25	0.6876	0.115
Mof_C 	C 	0.1312	0.25	0.6312	-0.178
Mof_H 	H 	0.1113	0.25	0.6113	0.091
Mof_C 	C 	0.2195	0.75	0.2805	-0.011
Mof_C 	C 	0.1876	0.75	0.3124	0.117
Mof_C 	C 	0.1312	0.75	0.3688	-0.18
Mof_H 	H 	0.1113	0.75	0.3887	0.092
Mof_C 	C 	0.7195	0.25	0.7805	-0.011
Mof_C 	C 	0.6876	0.25	0.8124	0.118
Mof_C 	C 	0.6312	0.25	0.8688	-0.181
Mof_H 	H 	0.6113	0.25	0.8887	0.096
Mof_C 	C 	0.7805	0.75	0.7195	-0.011
Mof_C 	C 	0.8124	0.75	0.6876	0.121
Mof_C 	C 	0.8688	0.75	0.6312	-0.183
Mof_H 	H 	0.8887	0.75	0.6113	0.097
Mof_C 	C 	0.7805	0.25	0.2805	-0.011
Mof_C 	C 	0.8124	0.25	0.3124	0.118
Mof_C 	C 	0.8688	0.25	0.3688	-0.181
Mof_H 	H 	0.8887	0.25	0.3887	0.096
Mof_C 	C 	0.7195	0.2195	0.25	-0.011
Mof_C 	C 	0.6876	0.1876	0.25	0.115
Mof_C 	C 	0.6312	0.1312	0.25	-0.178
Mof_H 	H 	0.6113	0.1113	0.25	0.091
Mof_C 	C 	0.2805	0.2195	0.75	-0.011
Mof_C 	C 	0.3124	0.1876	0.75	0.117
Mof_C 	C 	0.3688	0.1312	0.75	-0.18
Mof_H 	H 	0.3887	0.1113	0.75	0.092
Mof_C 	C 	0.7805	0.7195	0.25	-0.011
Mof_C 	C 	0.8124	0.6876	0.25	0.118
Mof_C 	C 	0.8688	0.6312	0.25	-0.181
Mof_H 	H 	0.8887	0.6113	0.25	0.096
Mof_C 	C 	0.7195	0.7805	0.75	-0.011
Mof_C 	C 	0.6876	0.8124	0.75	0.121
Mof_C 	C 	0.6312	0.8688	0.75	-0.183
Mof_H 	H 	0.6113	0.8887	0.75	0.097
Mof_C 	C 	0.2805	0.7805	0.25	-0.011
Mof_C 	C 	0.3124	0.8124	0.25	0.118
Mof_C 	C 	0.3688	0.8688	0.25	-0.181
Mof_H 	H 	0.3887	0.8887	0.25	0.096
Mof_C 	C 	0.2805	0.75	0.7805	-0.011
Mof_C 	C 	0.3124	0.75	0.8124	0.12
Mof_C 	C 	0.3688	0.75	0.8688	-0.183
Mof_H 	H 	0.3887	0.75	0.8887	0.097
Mof_C 	C 	0.7195	0.75	0.2195	-0.011
Mof_C 	C 	0.6876	0.75	0.1876	0.117
Mof_C 	C 	0.6312	0.75	0.1312	-0.18
Mof_H 	H 	0.6113	0.75	0.1113	0.092
Mof_C 	C 	0.2805	0.25	0.2195	-0.011
Mof_C 	C 	0.3124	0.25	0.1876	0.115
Mof_C 	C 	0.3688	0.25	0.1312	-0.178
Mof_H 	H 	0.3887	0.25	0.1113	0.091
Mof_C 	C 	0.25	0.2195	0.2805	-0.011
Mof_C 	C 	0.25	0.1876	0.3124	0.115
Mof_C 	C 	0.25	0.1312	0.3688	-0.178
Mof_H 	H 	0.25	0.1113	0.3887	0.091
Mof_C 	C 	0.75	0.2195	0.7195	-0.011
Mof_C 	C 	0.75	0.1876	0.6876	0.117
Mof_C 	C 	0.75	0.1312	0.6312	-0.18
Mof_H 	H 	0.75	0.1113	0.6113	0.092
Mof_C 	C 	0.75	0.7805	0.2805	-0.011
Mof_C 	C 	0.75	0.8124	0.3124	0.12
Mof_C 	C 	0.75	0.8688	0.3688	-0.183
Mof_H 	H 	0.75	0.8887	0.3887	0.097
Mof_C 	C 	0.2195	0.7195	0.75	-0.011
Mof_C 	C 	0.1876	0.6876	0.75	0.117
Mof_C 	C 	0.1312	0.6312	0.75	-0.18
Mof_H 	H 	0.1113	0.6113	0.75	0.092
Mof_C 	C 	0.2195	0.2805	0.25	-0.011
Mof_C 	C 	0.1876	0.3124	0.25	0.115
Mof_C 	C 	0.1312	0.3688	0.25	-0.178
Mof_H 	H 	0.1113	0.3887	0.25	0.091
Mof_C 	C 	0.7805	0.2805	0.75	-0.011
Mof_C 	C 	0.8124	0.3124	0.75	0.12
Mof_C 	C 	0.8688	0.3688	0.75	-0.183
Mof_H 	H 	0.8887	0.3887	0.75	0.097
_end
