data_functionalizedCrystal
_audit_creation_method	'EQeq! by Chris Wilmer'
_symmetry_space_group_name_H-M	'P1'
_symmetry_Int_Tables_number	1
_symmetry_cell_setting	triclinic
loop_
_symmetry_equiv_pos_as_xyz
  x,y,z
_cell_length_a	20.3587
_cell_length_b	20.3587
_cell_length_c	20.3587
_cell_angle_alpha	90
_cell_angle_beta	90
_cell_angle_gamma	90
loop_
_atom_site_label
_atom_site_type_symbol
_atom_site_fract_x
_atom_site_fract_y
_atom_site_fract_z
_atom_site_charge
Mof_O 	O 	0.1306	0.8152	0.2427	-0.468
Mof_O 	O 	0.0538	0.8845	0.2122	-0.346
Mof_N 	N 	0.9959	0.6545	0.0113	-0.255
Mof_H 	H 	0.9595	0.6686	0.9927	0.163
Mof_N 	N 	0.989	0.5746	0.9311	-0.178
Mof_C 	C 	0.0823	0.8315	0.2074	0.404
Mof_C 	C 	0.0602	0.783	0.1569	-0.204
Mof_C 	C 	0.0097	0.7981	0.1156	0.135
Mof_H 	H 	0.9889	0.8397	0.1188	-0.014
Mof_C 	C 	0.9887	0.7537	0.0694	-0.228
Mof_H 	H 	0.9527	0.7649	0.042	0.108
Mof_C 	C 	0.0192	0.6911	0.0613	0.217
Mof_C 	C 	0.0706	0.6776	0.1044	-0.23
Mof_H 	H 	0.092	0.6362	0.1021	0.122
Mof_C 	C 	0.0912	0.723	0.1501	0.135
Mof_H 	H 	0.1276	0.7129	0.1776	0.002
Mof_C 	C 	0.0229	0.5958	0.9851	0.189
Mof_O 	O 	0.3694	0.1848	0.7427	-0.469
Mof_O 	O 	0.4462	0.1155	0.7122	-0.347
Mof_N 	N 	0.5041	0.3455	0.5113	-0.255
Mof_H 	H 	0.5405	0.3314	0.4927	0.163
Mof_N 	N 	0.511	0.4254	0.4311	-0.177
Mof_C 	C 	0.4177	0.1685	0.7074	0.403
Mof_C 	C 	0.4398	0.217	0.6569	-0.203
Mof_C 	C 	0.4903	0.2019	0.6156	0.133
Mof_H 	H 	0.5111	0.1603	0.6188	-0.013
Mof_C 	C 	0.5113	0.2463	0.5694	-0.227
Mof_H 	H 	0.5473	0.2351	0.542	0.108
Mof_C 	C 	0.4808	0.3089	0.5613	0.216
Mof_C 	C 	0.4294	0.3224	0.6044	-0.229
Mof_H 	H 	0.408	0.3638	0.6021	0.122
Mof_C 	C 	0.4088	0.277	0.6501	0.134
Mof_H 	H 	0.3724	0.2871	0.6776	0.002
Mof_C 	C 	0.4771	0.4042	0.4851	0.189
Mof_O 	O 	0.8694	0.3152	0.2573	-0.469
Mof_O 	O 	0.9462	0.3845	0.2878	-0.347
Mof_N 	N 	0.0041	0.1545	0.4887	-0.255
Mof_H 	H 	0.0405	0.1686	0.5073	0.163
Mof_N 	N 	0.011	0.0746	0.5689	-0.177
Mof_C 	C 	0.9177	0.3315	0.2926	0.403
Mof_C 	C 	0.9398	0.283	0.3431	-0.202
Mof_C 	C 	0.9903	0.2981	0.3844	0.132
Mof_H 	H 	0.0111	0.3397	0.3812	-0.013
Mof_C 	C 	0.0113	0.2537	0.4306	-0.226
Mof_H 	H 	0.0473	0.2649	0.458	0.107
Mof_C 	C 	0.9808	0.1911	0.4387	0.215
Mof_C 	C 	0.9294	0.1776	0.3956	-0.228
Mof_H 	H 	0.908	0.1362	0.3979	0.121
Mof_C 	C 	0.9088	0.223	0.3499	0.134
Mof_H 	H 	0.8724	0.2129	0.3224	0.002
Mof_C 	C 	0.9771	0.0958	0.5149	0.188
Mof_O 	O 	0.6306	0.6848	0.7573	-0.469
Mof_O 	O 	0.5538	0.6155	0.7878	-0.347
Mof_N 	N 	0.4959	0.8455	0.9887	-0.256
Mof_H 	H 	0.4595	0.8314	0.0073	0.163
Mof_N 	N 	0.489	0.9254	0.0689	-0.177
Mof_C 	C 	0.5823	0.6685	0.7926	0.403
Mof_C 	C 	0.5602	0.717	0.8431	-0.203
Mof_C 	C 	0.5097	0.7019	0.8844	0.133
Mof_H 	H 	0.4889	0.6603	0.8812	-0.013
Mof_C 	C 	0.4887	0.7463	0.9306	-0.227
Mof_H 	H 	0.4527	0.7351	0.958	0.108
Mof_C 	C 	0.5192	0.8089	0.9387	0.216
Mof_C 	C 	0.5706	0.8224	0.8956	-0.229
Mof_H 	H 	0.592	0.8638	0.8979	0.122
Mof_C 	C 	0.5912	0.777	0.8499	0.134
Mof_H 	H 	0.6276	0.7871	0.8224	0.002
Mof_C 	C 	0.5229	0.9042	0.0149	0.189
Mof_O 	O 	0.2427	0.1306	0.8152	-0.469
Mof_O 	O 	0.2122	0.0538	0.8845	-0.347
Mof_N 	N 	0.0113	0.9959	0.6545	-0.255
Mof_H 	H 	0.9927	0.9595	0.6686	0.163
Mof_N 	N 	0.9311	0.989	0.5746	-0.178
Mof_C 	C 	0.2074	0.0823	0.8315	0.404
Mof_C 	C 	0.1569	0.0602	0.783	-0.204
Mof_C 	C 	0.1156	0.0097	0.7981	0.135
Mof_H 	H 	0.1188	0.9889	0.8397	-0.014
Mof_C 	C 	0.0694	0.9887	0.7537	-0.228
Mof_H 	H 	0.042	0.9527	0.7649	0.108
Mof_C 	C 	0.0613	0.0192	0.6911	0.217
Mof_C 	C 	0.1044	0.0706	0.6776	-0.23
Mof_H 	H 	0.1021	0.092	0.6362	0.122
Mof_C 	C 	0.1501	0.0912	0.723	0.135
Mof_H 	H 	0.1776	0.1276	0.7129	0.002
Mof_C 	C 	0.9851	0.0229	0.5958	0.189
Mof_O 	O 	0.7427	0.3694	0.1848	-0.469
Mof_O 	O 	0.7122	0.4462	0.1155	-0.347
Mof_N 	N 	0.5113	0.5041	0.3455	-0.255
Mof_H 	H 	0.4927	0.5405	0.3314	0.163
Mof_N 	N 	0.4311	0.511	0.4254	-0.177
Mof_C 	C 	0.7074	0.4177	0.1685	0.403
Mof_C 	C 	0.6569	0.4398	0.217	-0.203
Mof_C 	C 	0.6156	0.4903	0.2019	0.133
Mof_H 	H 	0.6188	0.5111	0.1603	-0.013
Mof_C 	C 	0.5694	0.5113	0.2463	-0.227
Mof_H 	H 	0.542	0.5473	0.2351	0.108
Mof_C 	C 	0.5613	0.4808	0.3089	0.216
Mof_C 	C 	0.6044	0.4294	0.3224	-0.229
Mof_H 	H 	0.6021	0.408	0.3638	0.122
Mof_C 	C 	0.6501	0.4088	0.277	0.134
Mof_H 	H 	0.6776	0.3724	0.2871	0.002
Mof_C 	C 	0.4851	0.4771	0.4042	0.189
Mof_O 	O 	0.2573	0.8694	0.3152	-0.469
Mof_O 	O 	0.2878	0.9462	0.3845	-0.347
Mof_N 	N 	0.4887	0.0041	0.1545	-0.255
Mof_H 	H 	0.5073	0.0405	0.1686	0.163
Mof_N 	N 	0.5689	0.011	0.0746	-0.177
Mof_C 	C 	0.2926	0.9177	0.3315	0.403
Mof_C 	C 	0.3431	0.9398	0.283	-0.202
Mof_C 	C 	0.3844	0.9903	0.2981	0.132
Mof_H 	H 	0.3812	0.0111	0.3397	-0.013
Mof_C 	C 	0.4306	0.0113	0.2537	-0.226
Mof_H 	H 	0.458	0.0473	0.2649	0.107
Mof_C 	C 	0.4387	0.9808	0.1911	0.215
Mof_C 	C 	0.3956	0.9294	0.1776	-0.228
Mof_H 	H 	0.3979	0.908	0.1362	0.121
Mof_C 	C 	0.3499	0.9088	0.223	0.134
Mof_H 	H 	0.3224	0.8724	0.2129	0.002
Mof_C 	C 	0.5149	0.9771	0.0958	0.188
Mof_O 	O 	0.7573	0.6306	0.6848	-0.469
Mof_O 	O 	0.7878	0.5538	0.6155	-0.347
Mof_N 	N 	0.9887	0.4959	0.8455	-0.256
Mof_H 	H 	0.0073	0.4595	0.8314	0.163
Mof_N 	N 	0.0689	0.489	0.9254	-0.177
Mof_C 	C 	0.7926	0.5823	0.6685	0.403
Mof_C 	C 	0.8431	0.5602	0.717	-0.203
Mof_C 	C 	0.8844	0.5097	0.7019	0.133
Mof_H 	H 	0.8812	0.4889	0.6603	-0.013
Mof_C 	C 	0.9306	0.4887	0.7463	-0.227
Mof_H 	H 	0.958	0.4527	0.7351	0.108
Mof_C 	C 	0.9387	0.5192	0.8089	0.216
Mof_C 	C 	0.8956	0.5706	0.8224	-0.229
Mof_H 	H 	0.8979	0.592	0.8638	0.122
Mof_C 	C 	0.8499	0.5912	0.777	0.134
Mof_H 	H 	0.8224	0.6276	0.7871	0.002
Mof_C 	C 	0.0149	0.5229	0.9042	0.189
Mof_O 	O 	0.8152	0.2427	0.1306	-0.469
Mof_O 	O 	0.8845	0.2122	0.0538	-0.347
Mof_N 	N 	0.6545	0.0113	0.9959	-0.255
Mof_H 	H 	0.6686	0.9927	0.9595	0.163
Mof_N 	N 	0.5746	0.9311	0.989	-0.178
Mof_C 	C 	0.8315	0.2074	0.0823	0.404
Mof_C 	C 	0.783	0.1569	0.0602	-0.204
Mof_C 	C 	0.7981	0.1156	0.0097	0.135
Mof_H 	H 	0.8397	0.1188	0.9889	-0.014
Mof_C 	C 	0.7537	0.0694	0.9887	-0.228
Mof_H 	H 	0.7649	0.042	0.9527	0.108
Mof_C 	C 	0.6911	0.0613	0.0192	0.217
Mof_C 	C 	0.6776	0.1044	0.0706	-0.23
Mof_H 	H 	0.6362	0.1021	0.092	0.122
Mof_C 	C 	0.723	0.1501	0.0912	0.135
Mof_H 	H 	0.7129	0.1776	0.1276	0.002
Mof_C 	C 	0.5958	0.9851	0.0229	0.189
Mof_O 	O 	0.1848	0.7427	0.3694	-0.469
Mof_O 	O 	0.1155	0.7122	0.4462	-0.347
Mof_N 	N 	0.3455	0.5113	0.5041	-0.255
Mof_H 	H 	0.3314	0.4927	0.5405	0.163
Mof_N 	N 	0.4254	0.4311	0.511	-0.177
Mof_C 	C 	0.1685	0.7074	0.4177	0.403
Mof_C 	C 	0.217	0.6569	0.4398	-0.203
Mof_C 	C 	0.2019	0.6156	0.4903	0.133
Mof_H 	H 	0.1603	0.6188	0.5111	-0.013
Mof_C 	C 	0.2463	0.5694	0.5113	-0.227
Mof_H 	H 	0.2351	0.542	0.5473	0.108
Mof_C 	C 	0.3089	0.5613	0.4808	0.216
Mof_C 	C 	0.3224	0.6044	0.4294	-0.229
Mof_H 	H 	0.3638	0.6021	0.408	0.122
Mof_C 	C 	0.277	0.6501	0.4088	0.134
Mof_H 	H 	0.2871	0.6776	0.3724	0.002
Mof_C 	C 	0.4042	0.4851	0.4771	0.189
Mof_O 	O 	0.3152	0.2573	0.8694	-0.469
Mof_O 	O 	0.3845	0.2878	0.9462	-0.347
Mof_N 	N 	0.1545	0.4887	0.0041	-0.255
Mof_H 	H 	0.1686	0.5073	0.0405	0.163
Mof_N 	N 	0.0746	0.5689	0.011	-0.177
Mof_C 	C 	0.3315	0.2926	0.9177	0.403
Mof_C 	C 	0.283	0.3431	0.9398	-0.202
Mof_C 	C 	0.2981	0.3844	0.9903	0.132
Mof_H 	H 	0.3397	0.3812	0.0111	-0.013
Mof_C 	C 	0.2537	0.4306	0.0113	-0.226
Mof_H 	H 	0.2649	0.458	0.0473	0.107
Mof_C 	C 	0.1911	0.4387	0.9808	0.215
Mof_C 	C 	0.1776	0.3956	0.9294	-0.228
Mof_H 	H 	0.1362	0.3979	0.908	0.121
Mof_C 	C 	0.223	0.3499	0.9088	0.134
Mof_H 	H 	0.2129	0.3224	0.8724	0.002
Mof_C 	C 	0.0958	0.5149	0.9771	0.188
Mof_O 	O 	0.6848	0.7573	0.6306	-0.469
Mof_O 	O 	0.6155	0.7878	0.5538	-0.347
Mof_N 	N 	0.8455	0.9887	0.4959	-0.256
Mof_H 	H 	0.8314	0.0073	0.4595	0.163
Mof_N 	N 	0.9254	0.0689	0.489	-0.177
Mof_C 	C 	0.6685	0.7926	0.5823	0.403
Mof_C 	C 	0.717	0.8431	0.5602	-0.203
Mof_C 	C 	0.7019	0.8844	0.5097	0.133
Mof_H 	H 	0.6603	0.8812	0.4889	-0.013
Mof_C 	C 	0.7463	0.9306	0.4887	-0.227
Mof_H 	H 	0.7351	0.958	0.4527	0.108
Mof_C 	C 	0.8089	0.9387	0.5192	0.216
Mof_C 	C 	0.8224	0.8956	0.5706	-0.229
Mof_H 	H 	0.8638	0.8979	0.592	0.122
Mof_C 	C 	0.777	0.8499	0.5912	0.134
Mof_H 	H 	0.7871	0.8224	0.6276	0.002
Mof_C 	C 	0.9042	0.0149	0.5229	0.189
Mof_Tm	Tm	0.15619	0.84381	0.34381	1.358
Mof_Tm	Tm	0.34381	0.15619	0.84381	1.358
Mof_Tm	Tm	0.84381	0.34381	0.15619	1.358
Mof_Tm	Tm	0.65619	0.65619	0.65619	1.358
Mof_O 	O 	0.2402	0.6248	0.1829	-0.483
Mof_O 	O 	0.2133	0.5424	0.1157	-0.341
Mof_N 	N 	0.0102	0.4938	0.3522	-0.258
Mof_H 	H 	0.9939	0.4549	0.3425	0.158
Mof_N 	N 	0.0119	0.5733	0.4302	-0.182
Mof_C 	C 	0.2063	0.5737	0.1672	0.394
Mof_C 	C 	0.1558	0.5544	0.2162	-0.19
Mof_C 	C 	0.1503	0.5853	0.2761	0.124
Mof_H 	H 	0.18	0.6198	0.2864	0.005
Mof_C 	C 	0.1032	0.5678	0.3216	-0.217
Mof_H 	H 	0.0997	0.5903	0.3623	0.12
Mof_C 	C 	0.0607	0.5159	0.3063	0.202
Mof_C 	C 	0.0667	0.4827	0.2486	-0.228
Mof_H 	H 	0.0383	0.4469	0.2393	0.106
Mof_C 	C 	0.1138	0.5008	0.2038	0.118
Mof_H 	H 	0.118	0.477	0.1639	-0.007
Mof_C 	C 	0.9851	0.5194	0.4035	0.211
Mof_O 	O 	0.2598	0.3752	0.6829	-0.483
Mof_O 	O 	0.2867	0.4576	0.6157	-0.342
Mof_N 	N 	0.4898	0.5062	0.8522	-0.258
Mof_H 	H 	0.5061	0.5451	0.8425	0.158
Mof_N 	N 	0.4881	0.4267	0.9302	-0.182
Mof_C 	C 	0.2937	0.4263	0.6672	0.395
Mof_C 	C 	0.3442	0.4456	0.7162	-0.19
Mof_C 	C 	0.3497	0.4147	0.7761	0.124
Mof_H 	H 	0.32	0.3802	0.7864	0.005
Mof_C 	C 	0.3968	0.4322	0.8216	-0.217
Mof_H 	H 	0.4003	0.4097	0.8623	0.12
Mof_C 	C 	0.4393	0.4841	0.8063	0.202
Mof_C 	C 	0.4333	0.5173	0.7486	-0.228
Mof_H 	H 	0.4617	0.5531	0.7393	0.106
Mof_C 	C 	0.3862	0.4992	0.7038	0.118
Mof_H 	H 	0.382	0.523	0.6639	-0.007
Mof_C 	C 	0.5149	0.4806	0.9035	0.211
Mof_O 	O 	0.7598	0.1248	0.3171	-0.483
Mof_O 	O 	0.7867	0.0424	0.3843	-0.342
Mof_N 	N 	0.9898	0.9938	0.1478	-0.259
Mof_H 	H 	0.0061	0.9549	0.1575	0.158
Mof_N 	N 	0.9881	0.0733	0.0698	-0.183
Mof_C 	C 	0.7937	0.0737	0.3328	0.395
Mof_C 	C 	0.8442	0.0544	0.2838	-0.191
Mof_C 	C 	0.8497	0.0853	0.2239	0.125
Mof_H 	H 	0.82	0.1198	0.2136	0.005
Mof_C 	C 	0.8968	0.0678	0.1784	-0.217
Mof_H 	H 	0.9003	0.0903	0.1377	0.12
Mof_C 	C 	0.9393	0.0159	0.1937	0.203
Mof_C 	C 	0.9333	0.9827	0.2514	-0.23
Mof_H 	H 	0.9617	0.9469	0.2607	0.107
Mof_C 	C 	0.8862	0.0008	0.2962	0.119
Mof_H 	H 	0.882	0.977	0.3361	-0.008
Mof_C 	C 	0.0149	0.0194	0.0965	0.212
Mof_O 	O 	0.7402	0.8752	0.8171	-0.483
Mof_O 	O 	0.7133	0.9576	0.8843	-0.342
Mof_N 	N 	0.5102	0.0062	0.6478	-0.258
Mof_H 	H 	0.4939	0.0451	0.6575	0.158
Mof_N 	N 	0.5119	0.9267	0.5698	-0.182
Mof_C 	C 	0.7063	0.9263	0.8328	0.394
Mof_C 	C 	0.6558	0.9456	0.7838	-0.19
Mof_C 	C 	0.6503	0.9147	0.7239	0.123
Mof_H 	H 	0.68	0.8802	0.7136	0.005
Mof_C 	C 	0.6032	0.9322	0.6784	-0.216
Mof_H 	H 	0.5997	0.9097	0.6377	0.12
Mof_C 	C 	0.5607	0.9841	0.6937	0.201
Mof_C 	C 	0.5667	0.0173	0.7514	-0.227
Mof_H 	H 	0.5383	0.0531	0.7607	0.106
Mof_C 	C 	0.6138	0.9992	0.7962	0.117
Mof_H 	H 	0.618	0.023	0.8361	-0.007
Mof_C 	C 	0.4851	0.9806	0.5965	0.211
Mof_O 	O 	0.1829	0.2402	0.6248	-0.483
Mof_O 	O 	0.1157	0.2133	0.5424	-0.341
Mof_N 	N 	0.3522	0.0102	0.4938	-0.258
Mof_H 	H 	0.3425	0.9939	0.4549	0.158
Mof_N 	N 	0.4302	0.0119	0.5733	-0.182
Mof_C 	C 	0.1672	0.2063	0.5737	0.394
Mof_C 	C 	0.2162	0.1558	0.5544	-0.19
Mof_C 	C 	0.2761	0.1503	0.5853	0.124
Mof_H 	H 	0.2864	0.18	0.6198	0.005
Mof_C 	C 	0.3216	0.1032	0.5678	-0.217
Mof_H 	H 	0.3623	0.0997	0.5903	0.12
Mof_C 	C 	0.3063	0.0607	0.5159	0.202
Mof_C 	C 	0.2486	0.0667	0.4827	-0.228
Mof_H 	H 	0.2393	0.0383	0.4469	0.106
Mof_C 	C 	0.2038	0.1138	0.5008	0.118
Mof_H 	H 	0.1639	0.118	0.477	-0.007
Mof_C 	C 	0.4035	0.9851	0.5194	0.211
Mof_O 	O 	0.6829	0.2598	0.3752	-0.483
Mof_O 	O 	0.6157	0.2867	0.4576	-0.342
Mof_N 	N 	0.8522	0.4898	0.5062	-0.258
Mof_H 	H 	0.8425	0.5061	0.5451	0.158
Mof_N 	N 	0.9302	0.4881	0.4267	-0.182
Mof_C 	C 	0.6672	0.2937	0.4263	0.395
Mof_C 	C 	0.7162	0.3442	0.4456	-0.19
Mof_C 	C 	0.7761	0.3497	0.4147	0.124
Mof_H 	H 	0.7864	0.32	0.3802	0.005
Mof_C 	C 	0.8216	0.3968	0.4322	-0.217
Mof_H 	H 	0.8623	0.4003	0.4097	0.12
Mof_C 	C 	0.8063	0.4393	0.4841	0.202
Mof_C 	C 	0.7486	0.4333	0.5173	-0.228
Mof_H 	H 	0.7393	0.4617	0.5531	0.106
Mof_C 	C 	0.7038	0.3862	0.4992	0.118
Mof_H 	H 	0.6639	0.382	0.523	-0.007
Mof_C 	C 	0.9035	0.5149	0.4806	0.211
Mof_O 	O 	0.3171	0.7598	0.1248	-0.483
Mof_O 	O 	0.3843	0.7867	0.0424	-0.342
Mof_N 	N 	0.1478	0.9898	0.9938	-0.259
Mof_H 	H 	0.1575	0.0061	0.9549	0.158
Mof_N 	N 	0.0698	0.9881	0.0733	-0.183
Mof_C 	C 	0.3328	0.7937	0.0737	0.395
Mof_C 	C 	0.2838	0.8442	0.0544	-0.191
Mof_C 	C 	0.2239	0.8497	0.0853	0.125
Mof_H 	H 	0.2136	0.82	0.1198	0.005
Mof_C 	C 	0.1784	0.8968	0.0678	-0.217
Mof_H 	H 	0.1377	0.9003	0.0903	0.12
Mof_C 	C 	0.1937	0.9393	0.0159	0.203
Mof_C 	C 	0.2514	0.9333	0.9827	-0.23
Mof_H 	H 	0.2607	0.9617	0.9469	0.107
Mof_C 	C 	0.2962	0.8862	0.0008	0.119
Mof_H 	H 	0.3361	0.882	0.977	-0.008
Mof_C 	C 	0.0965	0.0149	0.0194	0.212
Mof_O 	O 	0.8171	0.7402	0.8752	-0.483
Mof_O 	O 	0.8843	0.7133	0.9576	-0.342
Mof_N 	N 	0.6478	0.5102	0.0062	-0.258
Mof_H 	H 	0.6575	0.4939	0.0451	0.158
Mof_N 	N 	0.5698	0.5119	0.9267	-0.182
Mof_C 	C 	0.8328	0.7063	0.9263	0.394
Mof_C 	C 	0.7838	0.6558	0.9456	-0.19
Mof_C 	C 	0.7239	0.6503	0.9147	0.123
Mof_H 	H 	0.7136	0.68	0.8802	0.005
Mof_C 	C 	0.6784	0.6032	0.9322	-0.216
Mof_H 	H 	0.6377	0.5997	0.9097	0.12
Mof_C 	C 	0.6937	0.5607	0.9841	0.201
Mof_C 	C 	0.7514	0.5667	0.0173	-0.227
Mof_H 	H 	0.7607	0.5383	0.0531	0.106
Mof_C 	C 	0.7962	0.6138	0.9992	0.117
Mof_H 	H 	0.8361	0.618	0.023	-0.007
Mof_C 	C 	0.5965	0.4851	0.9806	0.211
Mof_O 	O 	0.6248	0.1829	0.2402	-0.483
Mof_O 	O 	0.5424	0.1157	0.2133	-0.341
Mof_N 	N 	0.4938	0.3522	0.0102	-0.258
Mof_H 	H 	0.4549	0.3425	0.9939	0.158
Mof_N 	N 	0.5733	0.4302	0.0119	-0.182
Mof_C 	C 	0.5737	0.1672	0.2063	0.394
Mof_C 	C 	0.5544	0.2162	0.1558	-0.19
Mof_C 	C 	0.5853	0.2761	0.1503	0.124
Mof_H 	H 	0.6198	0.2864	0.18	0.005
Mof_C 	C 	0.5678	0.3216	0.1032	-0.217
Mof_H 	H 	0.5903	0.3623	0.0997	0.12
Mof_C 	C 	0.5159	0.3063	0.0607	0.202
Mof_C 	C 	0.4827	0.2486	0.0667	-0.228
Mof_H 	H 	0.4469	0.2393	0.0383	0.106
Mof_C 	C 	0.5008	0.2038	0.1138	0.118
Mof_H 	H 	0.477	0.1639	0.118	-0.007
Mof_C 	C 	0.5194	0.4035	0.9851	0.211
Mof_O 	O 	0.3752	0.6829	0.2598	-0.483
Mof_O 	O 	0.4576	0.6157	0.2867	-0.342
Mof_N 	N 	0.5062	0.8522	0.4898	-0.258
Mof_H 	H 	0.5451	0.8425	0.5061	0.158
Mof_N 	N 	0.4267	0.9302	0.4881	-0.182
Mof_C 	C 	0.4263	0.6672	0.2937	0.395
Mof_C 	C 	0.4456	0.7162	0.3442	-0.19
Mof_C 	C 	0.4147	0.7761	0.3497	0.124
Mof_H 	H 	0.3802	0.7864	0.32	0.005
Mof_C 	C 	0.4322	0.8216	0.3968	-0.217
Mof_H 	H 	0.4097	0.8623	0.4003	0.12
Mof_C 	C 	0.4841	0.8063	0.4393	0.202
Mof_C 	C 	0.5173	0.7486	0.4333	-0.228
Mof_H 	H 	0.5531	0.7393	0.4617	0.106
Mof_C 	C 	0.4992	0.7038	0.3862	0.118
Mof_H 	H 	0.523	0.6639	0.382	-0.007
Mof_C 	C 	0.4806	0.9035	0.5149	0.211
Mof_O 	O 	0.1248	0.3171	0.7598	-0.483
Mof_O 	O 	0.0424	0.3843	0.7867	-0.342
Mof_N 	N 	0.9938	0.1478	0.9898	-0.259
Mof_H 	H 	0.9549	0.1575	0.0061	0.158
Mof_N 	N 	0.0733	0.0698	0.9881	-0.183
Mof_C 	C 	0.0737	0.3328	0.7937	0.395
Mof_C 	C 	0.0544	0.2838	0.8442	-0.191
Mof_C 	C 	0.0853	0.2239	0.8497	0.125
Mof_H 	H 	0.1198	0.2136	0.82	0.005
Mof_C 	C 	0.0678	0.1784	0.8968	-0.217
Mof_H 	H 	0.0903	0.1377	0.9003	0.12
Mof_C 	C 	0.0159	0.1937	0.9393	0.203
Mof_C 	C 	0.9827	0.2514	0.9333	-0.23
Mof_H 	H 	0.9469	0.2607	0.9617	0.107
Mof_C 	C 	0.0008	0.2962	0.8862	0.119
Mof_H 	H 	0.977	0.3361	0.882	-0.008
Mof_C 	C 	0.0194	0.0965	0.0149	0.212
Mof_O 	O 	0.8752	0.8171	0.7402	-0.483
Mof_O 	O 	0.9576	0.8843	0.7133	-0.342
Mof_N 	N 	0.0062	0.6478	0.5102	-0.258
Mof_H 	H 	0.0451	0.6575	0.4939	0.158
Mof_N 	N 	0.9267	0.5698	0.5119	-0.182
Mof_C 	C 	0.9263	0.8328	0.7063	0.394
Mof_C 	C 	0.9456	0.7838	0.6558	-0.19
Mof_C 	C 	0.9147	0.7239	0.6503	0.123
Mof_H 	H 	0.8802	0.7136	0.68	0.005
Mof_C 	C 	0.9322	0.6784	0.6032	-0.216
Mof_H 	H 	0.9097	0.6377	0.5997	0.12
Mof_C 	C 	0.9841	0.6937	0.5607	0.201
Mof_C 	C 	0.0173	0.7514	0.5667	-0.227
Mof_H 	H 	0.0531	0.7607	0.5383	0.106
Mof_C 	C 	0.9992	0.7962	0.6138	0.117
Mof_H 	H 	0.023	0.8361	0.618	-0.007
Mof_C 	C 	0.9806	0.5965	0.4851	0.211
Mof_Tm	Tm	0.3383	0.6617	0.1617	1.4
Mof_Tm	Tm	0.1617	0.3383	0.6617	1.4
Mof_Tm	Tm	0.6617	0.1617	0.3383	1.4
Mof_Tm	Tm	0.8383	0.8383	0.8383	1.4
_end
