data_functionalizedCrystal
_audit_creation_method	'EQeq! by Chris Wilmer'
_symmetry_space_group_name_H-M	'P1'
_symmetry_Int_Tables_number	1
_symmetry_cell_setting	triclinic
loop_
_symmetry_equiv_pos_as_xyz
  x,y,z
_cell_length_a	13.1885
_cell_length_b	18.1129
_cell_length_c	24.841
_cell_angle_alpha	90
_cell_angle_beta	90
_cell_angle_gamma	90
loop_
_atom_site_label
_atom_site_type_symbol
_atom_site_fract_x
_atom_site_fract_y
_atom_site_fract_z
_atom_site_charge
Mof_Cd	Cd	0.83274	0.97939	0.32456	0.449
Mof_Cd	Cd	0.9133	0.89783	0.84836	0.474
Mof_Cd	Cd	0.66726	0.02061	0.82456	0.451
Mof_Cd	Cd	0.5867	0.10217	0.34836	0.473
Mof_Cd	Cd	0.16726	0.47939	0.17544	0.451
Mof_Cd	Cd	0.0867	0.39783	0.65164	0.473
Mof_Cd	Cd	0.33274	0.52061	0.67544	0.45
Mof_Cd	Cd	0.4133	0.60217	0.15164	0.473
Mof_H 	H 	0.048	0.7897	0.272	0.276
Mof_H 	H 	0.9453	0.7603	0.2492	0.278
Mof_H 	H 	0.1083	0.7233	0.1883	0.352
Mof_H 	H 	0.999	0.7151	0.164	0.333
Mof_H 	H 	0.9575	0.7707	0.0773	0.305
Mof_H 	H 	0.0405	0.8055	0.0402	0.311
Mof_H 	H 	0.9421	0.9037	0.0754	-0.312
Mof_H 	H 	0.8877	0.825	0.1531	0.277
Mof_H 	H 	0.924	0.9018	0.1752	0.291
Mof_H 	H 	0.0972	0.9161	0.2092	0.335
Mof_H 	H 	0.1682	0.8478	0.2188	0.32
Mof_H 	H 	0.1038	0.9284	0.0712	0.367
Mof_H 	H 	0.0585	0.9618	0.1237	0.362
Mof_H 	H 	0.2261	0.9131	0.1415	-0.288
Mof_H 	H 	0.2426	0.7829	0.1289	0.368
Mof_H 	H 	0.2092	0.8188	0.0744	0.346
Mof_H 	H 	0.1809	0.696	0.0562	0.298
Mof_H 	H 	0.0702	0.6684	0.0637	0.301
Mof_H 	H 	0.652	0.875	0.2623	0.277
Mof_H 	H 	0.5342	0.8674	0.2679	0.262
Mof_H 	H 	0.4641	0.9903	0.1938	0.309
Mof_H 	H 	0.4194	0.9099	0.1912	0.296
Mof_H 	H 	0.6584	0.8152	0.1781	0.263
Mof_H 	H 	0.5414	0.8001	0.1813	0.274
Mof_H 	H 	0.4253	0.8386	0.1049	0.291
Mof_H 	H 	0.4708	0.8746	0.0526	0.271
Mof_H 	H 	0.4014	0.9664	0.1072	-0.236
Mof_H 	H 	0.5377	0.003	0.0582	0.308
Mof_H 	H 	0.5329	0.0464	0.1129	0.315
Mof_H 	H 	0.7329	0.8745	0.0992	0.259
Mof_H 	H 	0.6672	0.8959	0.0489	0.261
Mof_H 	H 	0.7019	0.0041	0.098	-0.216
Mof_H 	H 	0.7239	0.9467	0.1821	0.281
Mof_H 	H 	0.6472	0.0124	0.1879	0.289
Mof_H 	H 	0.5955	0.7685	0.0418	0.215
Mof_H 	H 	0.6751	0.7508	0.0869	0.229
Mof_H 	H 	0.0332	0.0357	0.2654	-0.017
Mof_H 	H 	0.0921	0.1141	0.1969	0.112
Mof_H 	H 	0.8079	0.1701	0.1674	0.127
Mof_H 	H 	0.7568	0.0933	0.2339	-0.024
Mof_H 	H 	0.0695	0.1992	0.1295	0.16
Mof_H 	H 	0.9726	0.2491	0.133	0.159
Mof_H 	H 	0.8144	0.7143	0.5301	0.234
Mof_H 	H 	0.7883	0.7843	0.5638	0.245
Mof_H 	H 	0.7193	0.7622	0.4532	0.153
Mof_H 	H 	0.7144	0.8415	0.3819	-0.049
Mof_H 	H 	0.9476	0.9498	0.4363	-0.037
Mof_H 	H 	0.9611	0.8699	0.5057	0.16
Mof_H 	H 	0.7993	0.9669	0.956	-0.032
Mof_H 	H 	0.8295	0.042	0.0261	0.135
Mof_H 	H 	0.113	0.0639	0.9788	0.116
Mof_H 	H 	0.0788	0.9954	0.907	-0.022
Mof_H 	H 	0.0857	0.1116	0.0594	0.151
Mof_H 	H 	0.0059	0.0689	0.094	0.151
Mof_H 	H 	0.9773	0.2069	0.0473	-0.067
Mof_H 	H 	0.8891	0.163	0.0754	-0.074
Mof_H 	H 	0.958	0.7999	0.5813	-0.189
Mof_H 	H 	0.9802	0.7267	0.5501	-0.183
Mof_H 	H 	0.8562	0.6821	0.6187	0.262
Mof_H 	H 	0.9736	0.6749	0.6235	0.278
Mof_H 	H 	0.8038	0.6952	0.7066	0.181
Mof_H 	H 	0.805	0.7589	0.7879	-0.08
Mof_H 	H 	0.0319	0.876	0.7366	-0.048
Mof_H 	H 	0.0354	0.8109	0.6561	0.191
Mof_H 	H 	0.452	0.2103	0.772	0.276
Mof_H 	H 	0.5547	0.2397	0.7492	0.278
Mof_H 	H 	0.3917	0.2767	0.6883	0.353
Mof_H 	H 	0.501	0.2849	0.664	0.335
Mof_H 	H 	0.5425	0.2293	0.5773	0.308
Mof_H 	H 	0.4595	0.1945	0.5402	0.313
Mof_H 	H 	0.5579	0.0963	0.5754	-0.314
Mof_H 	H 	0.6123	0.175	0.6531	0.278
Mof_H 	H 	0.576	0.0982	0.6752	0.292
Mof_H 	H 	0.4028	0.0839	0.7092	0.336
Mof_H 	H 	0.3318	0.1522	0.7188	0.321
Mof_H 	H 	0.3962	0.0716	0.5712	0.368
Mof_H 	H 	0.4415	0.0382	0.6237	0.364
Mof_H 	H 	0.2739	0.0869	0.6415	-0.289
Mof_H 	H 	0.2574	0.2171	0.6289	0.369
Mof_H 	H 	0.2908	0.1812	0.5744	0.347
Mof_H 	H 	0.3191	0.304	0.5562	0.298
Mof_H 	H 	0.4298	0.3316	0.5637	0.302
Mof_H 	H 	0.848	0.125	0.7623	0.278
Mof_H 	H 	0.9658	0.1326	0.7679	0.262
Mof_H 	H 	0.0359	0.0097	0.6938	0.309
Mof_H 	H 	0.0806	0.0901	0.6912	0.297
Mof_H 	H 	0.8416	0.1848	0.6781	0.263
Mof_H 	H 	0.9586	0.1999	0.6813	0.275
Mof_H 	H 	0.0747	0.1614	0.6049	0.292
Mof_H 	H 	0.0292	0.1254	0.5526	0.271
Mof_H 	H 	0.0986	0.0336	0.6072	-0.236
Mof_H 	H 	0.9623	0.997	0.5582	0.308
Mof_H 	H 	0.9671	0.9536	0.6129	0.315
Mof_H 	H 	0.7671	0.1255	0.5992	0.26
Mof_H 	H 	0.8328	0.1041	0.5489	0.262
Mof_H 	H 	0.7981	0.9959	0.598	-0.216
Mof_H 	H 	0.7761	0.0533	0.6821	0.281
Mof_H 	H 	0.8528	0.9876	0.6879	0.29
Mof_H 	H 	0.9045	0.2315	0.5418	0.215
Mof_H 	H 	0.8249	0.2492	0.5869	0.229
Mof_H 	H 	0.4668	0.9643	0.7654	-0.017
Mof_H 	H 	0.4079	0.8859	0.6969	0.113
Mof_H 	H 	0.6921	0.8299	0.6674	0.127
Mof_H 	H 	0.7432	0.9067	0.7339	-0.024
Mof_H 	H 	0.4305	0.8008	0.6295	0.16
Mof_H 	H 	0.5274	0.7509	0.633	0.16
Mof_H 	H 	0.6856	0.2857	0.0301	0.234
Mof_H 	H 	0.7117	0.2157	0.0638	0.245
Mof_H 	H 	0.7807	0.2378	0.9532	0.154
Mof_H 	H 	0.7856	0.1585	0.8819	-0.049
Mof_H 	H 	0.5524	0.0502	0.9363	-0.037
Mof_H 	H 	0.5389	0.1301	0.0057	0.16
Mof_H 	H 	0.7007	0.0331	0.456	-0.032
Mof_H 	H 	0.6705	0.958	0.5261	0.135
Mof_H 	H 	0.387	0.9361	0.4788	0.117
Mof_H 	H 	0.4212	0.0046	0.407	-0.023
Mof_H 	H 	0.4143	0.8884	0.5594	0.153
Mof_H 	H 	0.4941	0.9311	0.594	0.152
Mof_H 	H 	0.5227	0.7931	0.5473	-0.068
Mof_H 	H 	0.6109	0.837	0.5754	-0.075
Mof_H 	H 	0.542	0.2001	0.0813	-0.19
Mof_H 	H 	0.5198	0.2733	0.0501	-0.184
Mof_H 	H 	0.6438	0.3179	0.1187	0.263
Mof_H 	H 	0.5264	0.3251	0.1235	0.279
Mof_H 	H 	0.6962	0.3048	0.2066	0.182
Mof_H 	H 	0.695	0.2411	0.2879	-0.08
Mof_H 	H 	0.4681	0.124	0.2366	-0.048
Mof_H 	H 	0.4646	0.1891	0.1561	0.192
Mof_H 	H 	0.952	0.2897	0.228	0.275
Mof_H 	H 	0.0547	0.2603	0.2508	0.278
Mof_H 	H 	0.8917	0.2233	0.3117	0.352
Mof_H 	H 	0.001	0.2151	0.336	0.334
Mof_H 	H 	0.0425	0.2707	0.4227	0.306
Mof_H 	H 	0.9595	0.3055	0.4598	0.312
Mof_H 	H 	0.0579	0.4037	0.4246	-0.313
Mof_H 	H 	0.1123	0.325	0.3469	0.277
Mof_H 	H 	0.076	0.4018	0.3248	0.292
Mof_H 	H 	0.9028	0.4161	0.2908	0.335
Mof_H 	H 	0.8318	0.3478	0.2812	0.32
Mof_H 	H 	0.8962	0.4284	0.4288	0.367
Mof_H 	H 	0.9415	0.4618	0.3763	0.363
Mof_H 	H 	0.7739	0.4131	0.3585	-0.288
Mof_H 	H 	0.7574	0.2829	0.3711	0.368
Mof_H 	H 	0.7908	0.3188	0.4256	0.346
Mof_H 	H 	0.8191	0.196	0.4438	0.298
Mof_H 	H 	0.9298	0.1684	0.4363	0.301
Mof_H 	H 	0.348	0.375	0.2377	0.278
Mof_H 	H 	0.4658	0.3674	0.2321	0.262
Mof_H 	H 	0.5359	0.4903	0.3062	0.309
Mof_H 	H 	0.5806	0.4099	0.3088	0.297
Mof_H 	H 	0.3416	0.3152	0.3219	0.263
Mof_H 	H 	0.4586	0.3001	0.3187	0.274
Mof_H 	H 	0.5747	0.3386	0.3951	0.292
Mof_H 	H 	0.5292	0.3746	0.4474	0.271
Mof_H 	H 	0.5986	0.4664	0.3928	-0.237
Mof_H 	H 	0.4623	0.503	0.4418	0.309
Mof_H 	H 	0.4671	0.5464	0.3871	0.316
Mof_H 	H 	0.2671	0.3745	0.4008	0.26
Mof_H 	H 	0.3328	0.3959	0.4511	0.262
Mof_H 	H 	0.2981	0.5041	0.402	-0.216
Mof_H 	H 	0.2761	0.4467	0.3179	0.281
Mof_H 	H 	0.3528	0.5124	0.3121	0.29
Mof_H 	H 	0.4045	0.2685	0.4582	0.215
Mof_H 	H 	0.3249	0.2508	0.4131	0.229
Mof_H 	H 	0.9668	0.5357	0.2346	-0.018
Mof_H 	H 	0.9079	0.6141	0.3031	0.113
Mof_H 	H 	0.1921	0.6701	0.3326	0.127
Mof_H 	H 	0.2432	0.5933	0.2661	-0.024
Mof_H 	H 	0.9305	0.6992	0.3705	0.16
Mof_H 	H 	0.0274	0.7491	0.367	0.16
Mof_H 	H 	0.1856	0.2143	0.9699	0.234
Mof_H 	H 	0.2117	0.2843	0.9362	0.246
Mof_H 	H 	0.2807	0.2622	0.0468	0.153
Mof_H 	H 	0.2856	0.3415	0.1181	-0.049
Mof_H 	H 	0.0524	0.4498	0.0637	-0.036
Mof_H 	H 	0.0389	0.3699	0.9943	0.159
Mof_H 	H 	0.2007	0.4669	0.544	-0.032
Mof_H 	H 	0.1705	0.542	0.4739	0.135
Mof_H 	H 	0.887	0.5639	0.5212	0.116
Mof_H 	H 	0.9212	0.4954	0.593	-0.022
Mof_H 	H 	0.9143	0.6116	0.4406	0.152
Mof_H 	H 	0.9941	0.5689	0.406	0.151
Mof_H 	H 	0.0227	0.7069	0.4527	-0.068
Mof_H 	H 	0.1109	0.663	0.4246	-0.074
Mof_H 	H 	0.042	0.2999	0.9187	-0.19
Mof_H 	H 	0.0198	0.2267	0.9499	-0.185
Mof_H 	H 	0.1438	0.1821	0.8813	0.263
Mof_H 	H 	0.0264	0.1749	0.8765	0.279
Mof_H 	H 	0.1962	0.1952	0.7934	0.182
Mof_H 	H 	0.195	0.2589	0.7121	-0.081
Mof_H 	H 	0.9681	0.376	0.7634	-0.047
Mof_H 	H 	0.9646	0.3109	0.8439	0.194
Mof_H 	H 	0.548	0.7103	0.728	0.276
Mof_H 	H 	0.4453	0.7397	0.7508	0.278
Mof_H 	H 	0.6083	0.7767	0.8117	0.353
Mof_H 	H 	0.499	0.7849	0.836	0.335
Mof_H 	H 	0.4575	0.7293	0.9227	0.308
Mof_H 	H 	0.5405	0.6945	0.9598	0.313
Mof_H 	H 	0.4421	0.5963	0.9246	-0.314
Mof_H 	H 	0.3877	0.675	0.8469	0.278
Mof_H 	H 	0.424	0.5982	0.8248	0.292
Mof_H 	H 	0.5972	0.5839	0.7908	0.336
Mof_H 	H 	0.6682	0.6522	0.7812	0.321
Mof_H 	H 	0.6038	0.5716	0.9288	0.369
Mof_H 	H 	0.5585	0.5382	0.8763	0.364
Mof_H 	H 	0.7261	0.5869	0.8585	-0.289
Mof_H 	H 	0.7426	0.7171	0.8711	0.369
Mof_H 	H 	0.7092	0.6812	0.9256	0.347
Mof_H 	H 	0.6809	0.804	0.9438	0.298
Mof_H 	H 	0.5702	0.8316	0.9363	0.302
Mof_H 	H 	0.152	0.625	0.7377	0.277
Mof_H 	H 	0.0342	0.6326	0.7321	0.261
Mof_H 	H 	0.9641	0.5097	0.8062	0.309
Mof_H 	H 	0.9194	0.5901	0.8088	0.296
Mof_H 	H 	0.1584	0.6848	0.8219	0.263
Mof_H 	H 	0.0414	0.6999	0.8187	0.274
Mof_H 	H 	0.9253	0.6614	0.8951	0.291
Mof_H 	H 	0.9708	0.6254	0.9474	0.271
Mof_H 	H 	0.9014	0.5336	0.8928	-0.237
Mof_H 	H 	0.0377	0.497	0.9418	0.309
Mof_H 	H 	0.0329	0.4536	0.8871	0.316
Mof_H 	H 	0.2329	0.6255	0.9008	0.259
Mof_H 	H 	0.1672	0.6041	0.9511	0.261
Mof_H 	H 	0.2019	0.4959	0.902	-0.216
Mof_H 	H 	0.2239	0.5533	0.8179	0.281
Mof_H 	H 	0.1472	0.4876	0.8121	0.29
Mof_H 	H 	0.0955	0.7315	0.9582	0.214
Mof_H 	H 	0.1751	0.7492	0.9131	0.229
Mof_H 	H 	0.5332	0.4643	0.7346	-0.017
Mof_H 	H 	0.5921	0.3859	0.8031	0.113
Mof_H 	H 	0.3079	0.3299	0.8326	0.127
Mof_H 	H 	0.2568	0.4067	0.7661	-0.024
Mof_H 	H 	0.5695	0.3008	0.8705	0.16
Mof_H 	H 	0.4726	0.2509	0.867	0.16
Mof_H 	H 	0.3144	0.7857	0.4699	0.234
Mof_H 	H 	0.2883	0.7157	0.4362	0.245
Mof_H 	H 	0.2193	0.7378	0.5468	0.153
Mof_H 	H 	0.2144	0.6585	0.6181	-0.049
Mof_H 	H 	0.4476	0.5502	0.5637	-0.037
Mof_H 	H 	0.4611	0.6301	0.4943	0.16
Mof_H 	H 	0.2993	0.5331	0.044	-0.032
Mof_H 	H 	0.3295	0.458	0.9739	0.136
Mof_H 	H 	0.613	0.4361	0.0212	0.117
Mof_H 	H 	0.5788	0.5046	0.093	-0.023
Mof_H 	H 	0.5857	0.3884	0.9406	0.153
Mof_H 	H 	0.5059	0.4311	0.906	0.152
Mof_H 	H 	0.4773	0.2931	0.9527	-0.068
Mof_H 	H 	0.3891	0.337	0.9246	-0.075
Mof_H 	H 	0.458	0.7001	0.4187	-0.189
Mof_H 	H 	0.4802	0.7733	0.4499	-0.184
Mof_H 	H 	0.3562	0.8179	0.3813	0.263
Mof_H 	H 	0.4736	0.8251	0.3765	0.278
Mof_H 	H 	0.3038	0.8048	0.2934	0.182
Mof_H 	H 	0.305	0.7411	0.2121	-0.08
Mof_H 	H 	0.5319	0.624	0.2634	-0.048
Mof_H 	H 	0.5354	0.6891	0.3439	0.192
Mof_C 	C 	0.935	0.8639	0.2779	0.54
Mof_C 	C 	0.9897	0.8029	0.2502	-0.863
Mof_C 	C 	0.0275	0.8181	0.1915	0.885
Mof_C 	C 	0.0576	0.7474	0.1661	-1.061
Mof_C 	C 	0.1009	0.7595	0.1087	0.99
Mof_C 	C 	0.0184	0.8008	0.0773	-1.034
Mof_C 	C 	0.9909	0.8777	0.0983	1.007
Mof_C 	C 	0.946	0.8571	0.1571	-0.918
Mof_C 	C 	0.1183	0.8689	0.1945	-1.022
Mof_C 	C 	0.0769	0.9158	0.1063	-1.181
Mof_C 	C 	0.1664	0.881	0.1399	0.94
Mof_C 	C 	0.1873	0.8081	0.1108	-1.136
Mof_C 	C 	0.1297	0.6853	0.0831	-0.994
Mof_C 	C 	0.1673	0.621	0.1143	0.693
Mof_C 	C 	0.5849	0.97	0.2878	0.504
Mof_C 	C 	0.588	0.8997	0.2554	-0.807
Mof_C 	C 	0.4732	0.9417	0.1781	-0.909
Mof_C 	C 	0.5765	0.9104	0.1947	0.748
Mof_C 	C 	0.5923	0.8342	0.1681	-0.825
Mof_C 	C 	0.585	0.839	0.1059	0.71
Mof_C 	C 	0.478	0.8709	0.0914	-0.876
Mof_C 	C 	0.4683	0.9468	0.1168	0.828
Mof_C 	C 	0.5437	0.9982	0.097	-0.967
Mof_C 	C 	0.6671	0.8928	0.0879	-0.841
Mof_C 	C 	0.6502	0.9699	0.1115	0.749
Mof_C 	C 	0.6569	0.9639	0.1721	-0.862
Mof_C 	C 	0.6052	0.7648	0.0804	-0.738
Mof_C 	C 	0.5335	0.7042	0.1034	0.474
Mof_C 	C 	0.9868	0.0627	0.2453	0.129
Mof_C 	C 	0.023	0.1106	0.204	-0.303
Mof_C 	C 	0.9555	0.1509	0.1751	0.264
Mof_C 	C 	0.8559	0.1433	0.1867	-0.312
Mof_C 	C 	0.8257	0.097	0.2264	0.148
Mof_C 	C 	0.996	0.1988	0.1284	-0.473
Mof_C 	C 	0.839	0.7628	0.5403	-0.76
Mof_C 	C 	0.8417	0.8089	0.4901	0.425
Mof_C 	C 	0.7666	0.8001	0.4507	-0.39
Mof_C 	C 	0.7641	0.8491	0.4078	0.22
Mof_C 	C 	0.9009	0.9116	0.4395	0.198
Mof_C 	C 	0.9078	0.864	0.4815	-0.403
Mof_C 	C 	0.8634	0.9876	0.9598	0.167
Mof_C 	C 	0.8825	0.0309	0.0028	-0.293
Mof_C 	C 	0.9795	0.0603	0.0139	0.285
Mof_C 	C 	0.0478	0.0449	0.9752	-0.319
Mof_C 	C 	0.0271	0.0036	0.9318	0.162
Mof_C 	C 	0.0139	0.1013	0.0631	-0.474
Mof_C 	C 	0.9619	0.1708	0.0749	0.302
Mof_C 	C 	0.9305	0.7518	0.5724	0.679
Mof_C 	C 	0.9185	0.7103	0.6218	-0.861
Mof_C 	C 	0.9155	0.7493	0.6739	0.549
Mof_C 	C 	0.8506	0.7329	0.712	-0.523
Mof_C 	C 	0.8511	0.7719	0.7612	0.244
Mof_C 	C 	0.9836	0.8394	0.731	0.218
Mof_C 	C 	0.9863	0.8009	0.6819	-0.483
Mof_C 	C 	0.565	0.1361	0.7779	0.54
Mof_C 	C 	0.5103	0.1971	0.7502	-0.862
Mof_C 	C 	0.4725	0.1819	0.6915	0.886
Mof_C 	C 	0.4424	0.2526	0.6661	-1.065
Mof_C 	C 	0.3991	0.2405	0.6087	0.995
Mof_C 	C 	0.4816	0.1992	0.5773	-1.043
Mof_C 	C 	0.5091	0.1223	0.5983	1.015
Mof_C 	C 	0.554	0.1429	0.6571	-0.92
Mof_C 	C 	0.3817	0.1311	0.6945	-1.025
Mof_C 	C 	0.4231	0.0842	0.6063	-1.188
Mof_C 	C 	0.3336	0.119	0.6399	0.944
Mof_C 	C 	0.3127	0.1919	0.6108	-1.14
Mof_C 	C 	0.3703	0.3147	0.5831	-0.997
Mof_C 	C 	0.3327	0.379	0.6143	0.693
Mof_C 	C 	0.9151	0.03	0.7878	0.504
Mof_C 	C 	0.912	0.1003	0.7554	-0.808
Mof_C 	C 	0.0268	0.0583	0.6781	-0.911
Mof_C 	C 	0.9235	0.0896	0.6947	0.75
Mof_C 	C 	0.9077	0.1658	0.6681	-0.827
Mof_C 	C 	0.915	0.161	0.6059	0.712
Mof_C 	C 	0.022	0.1291	0.5914	-0.878
Mof_C 	C 	0.0317	0.0532	0.6168	0.829
Mof_C 	C 	0.9563	0.0018	0.597	-0.967
Mof_C 	C 	0.8329	0.1072	0.5879	-0.842
Mof_C 	C 	0.8498	0.0301	0.6115	0.75
Mof_C 	C 	0.8431	0.0361	0.6721	-0.863
Mof_C 	C 	0.8948	0.2352	0.5804	-0.739
Mof_C 	C 	0.9665	0.2958	0.6034	0.475
Mof_C 	C 	0.5132	0.9373	0.7453	0.13
Mof_C 	C 	0.477	0.8894	0.704	-0.304
Mof_C 	C 	0.5445	0.8491	0.6751	0.266
Mof_C 	C 	0.6441	0.8567	0.6867	-0.313
Mof_C 	C 	0.6743	0.903	0.7264	0.149
Mof_C 	C 	0.504	0.8012	0.6284	-0.474
Mof_C 	C 	0.661	0.2372	0.0403	-0.762
Mof_C 	C 	0.6583	0.1911	0.9901	0.427
Mof_C 	C 	0.7334	0.1999	0.9507	-0.39
Mof_C 	C 	0.7359	0.1509	0.9078	0.22
Mof_C 	C 	0.5991	0.0884	0.9395	0.199
Mof_C 	C 	0.5922	0.136	0.9815	-0.403
Mof_C 	C 	0.6366	0.0124	0.4598	0.166
Mof_C 	C 	0.6175	0.9691	0.5028	-0.294
Mof_C 	C 	0.5205	0.9397	0.5139	0.288
Mof_C 	C 	0.4522	0.9551	0.4752	-0.321
Mof_C 	C 	0.4729	0.9964	0.4318	0.165
Mof_C 	C 	0.4861	0.8987	0.5631	-0.478
Mof_C 	C 	0.5381	0.8292	0.5749	0.306
Mof_C 	C 	0.5695	0.2482	0.0724	0.681
Mof_C 	C 	0.5815	0.2897	0.1218	-0.863
Mof_C 	C 	0.5845	0.2507	0.1739	0.55
Mof_C 	C 	0.6494	0.2671	0.212	-0.524
Mof_C 	C 	0.6489	0.2281	0.2612	0.245
Mof_C 	C 	0.5164	0.1606	0.231	0.218
Mof_C 	C 	0.5137	0.1991	0.1819	-0.484
Mof_C 	C 	0.065	0.3639	0.2221	0.539
Mof_C 	C 	0.0103	0.3029	0.2498	-0.861
Mof_C 	C 	0.9725	0.3181	0.3085	0.884
Mof_C 	C 	0.9424	0.2474	0.3339	-1.062
Mof_C 	C 	0.8991	0.2595	0.3913	0.992
Mof_C 	C 	0.9816	0.3008	0.4227	-1.039
Mof_C 	C 	0.0091	0.3777	0.4017	1.011
Mof_C 	C 	0.054	0.3571	0.3429	-0.918
Mof_C 	C 	0.8817	0.3689	0.3055	-1.023
Mof_C 	C 	0.9231	0.4158	0.3937	-1.184
Mof_C 	C 	0.8336	0.381	0.3601	0.941
Mof_C 	C 	0.8127	0.3081	0.3892	-1.138
Mof_C 	C 	0.8703	0.1853	0.4169	-0.995
Mof_C 	C 	0.8327	0.121	0.3857	0.693
Mof_C 	C 	0.4151	0.47	0.2122	0.504
Mof_C 	C 	0.412	0.3997	0.2446	-0.807
Mof_C 	C 	0.5268	0.4417	0.3219	-0.91
Mof_C 	C 	0.4235	0.4104	0.3053	0.749
Mof_C 	C 	0.4077	0.3342	0.3319	-0.826
Mof_C 	C 	0.415	0.339	0.3941	0.71
Mof_C 	C 	0.522	0.3709	0.4086	-0.877
Mof_C 	C 	0.5317	0.4468	0.3832	0.83
Mof_C 	C 	0.4563	0.4982	0.403	-0.97
Mof_C 	C 	0.3329	0.3928	0.4121	-0.842
Mof_C 	C 	0.3498	0.4699	0.3885	0.75
Mof_C 	C 	0.3431	0.4639	0.3279	-0.863
Mof_C 	C 	0.3948	0.2648	0.4196	-0.738
Mof_C 	C 	0.4665	0.2042	0.3966	0.474
Mof_C 	C 	0.0132	0.5627	0.2547	0.132
Mof_C 	C 	0.977	0.6106	0.296	-0.305
Mof_C 	C 	0.0445	0.6509	0.3249	0.266
Mof_C 	C 	0.1441	0.6433	0.3133	-0.313
Mof_C 	C 	0.1743	0.597	0.2736	0.149
Mof_C 	C 	0.004	0.6988	0.3716	-0.474
Mof_C 	C 	0.161	0.2628	0.9597	-0.763
Mof_C 	C 	0.1583	0.3089	0.0099	0.426
Mof_C 	C 	0.2334	0.3001	0.0493	-0.39
Mof_C 	C 	0.2359	0.3491	0.0922	0.22
Mof_C 	C 	0.0991	0.4116	0.0605	0.198
Mof_C 	C 	0.0922	0.364	0.0185	-0.401
Mof_C 	C 	0.1366	0.4876	0.5402	0.166
Mof_C 	C 	0.1175	0.5309	0.4972	-0.292
Mof_C 	C 	0.0205	0.5603	0.4861	0.286
Mof_C 	C 	0.9522	0.5449	0.5248	-0.319
Mof_C 	C 	0.9729	0.5036	0.5682	0.164
Mof_C 	C 	0.9861	0.6013	0.4369	-0.475
Mof_C 	C 	0.0381	0.6708	0.4251	0.304
Mof_C 	C 	0.0695	0.2518	0.9276	0.682
Mof_C 	C 	0.0815	0.2103	0.8782	-0.865
Mof_C 	C 	0.0845	0.2493	0.8261	0.551
Mof_C 	C 	0.1494	0.2329	0.788	-0.526
Mof_C 	C 	0.1489	0.2719	0.7388	0.245
Mof_C 	C 	0.0164	0.3394	0.769	0.217
Mof_C 	C 	0.0137	0.3009	0.8181	-0.487
Mof_C 	C 	0.435	0.6361	0.7221	0.54
Mof_C 	C 	0.4897	0.6971	0.7498	-0.862
Mof_C 	C 	0.5275	0.6819	0.8085	0.886
Mof_C 	C 	0.5576	0.7526	0.8339	-1.065
Mof_C 	C 	0.6009	0.7405	0.8913	0.995
Mof_C 	C 	0.5184	0.6992	0.9227	-1.043
Mof_C 	C 	0.4909	0.6223	0.9017	1.015
Mof_C 	C 	0.446	0.6429	0.8429	-0.92
Mof_C 	C 	0.6183	0.6311	0.8055	-1.025
Mof_C 	C 	0.5769	0.5842	0.8937	-1.188
Mof_C 	C 	0.6664	0.619	0.8601	0.944
Mof_C 	C 	0.6873	0.6919	0.8892	-1.141
Mof_C 	C 	0.6297	0.8147	0.9169	-0.997
Mof_C 	C 	0.6673	0.879	0.8857	0.694
Mof_C 	C 	0.0849	0.53	0.7122	0.503
Mof_C 	C 	0.088	0.6003	0.7446	-0.806
Mof_C 	C 	0.9732	0.5583	0.8219	-0.908
Mof_C 	C 	0.0765	0.5896	0.8053	0.747
Mof_C 	C 	0.0923	0.6658	0.8319	-0.825
Mof_C 	C 	0.085	0.661	0.8941	0.709
Mof_C 	C 	0.978	0.6291	0.9086	-0.875
Mof_C 	C 	0.9683	0.5532	0.8832	0.83
Mof_C 	C 	0.0437	0.5018	0.903	-0.97
Mof_C 	C 	0.1671	0.6072	0.9121	-0.841
Mof_C 	C 	0.1502	0.5301	0.8885	0.75
Mof_C 	C 	0.1569	0.5361	0.8279	-0.862
Mof_C 	C 	0.1052	0.7352	0.9196	-0.736
Mof_C 	C 	0.0335	0.7958	0.8966	0.472
Mof_C 	C 	0.4868	0.4373	0.7547	0.13
Mof_C 	C 	0.523	0.3894	0.796	-0.304
Mof_C 	C 	0.4555	0.3491	0.8249	0.266
Mof_C 	C 	0.3559	0.3567	0.8133	-0.313
Mof_C 	C 	0.3257	0.403	0.7736	0.149
Mof_C 	C 	0.496	0.3012	0.8716	-0.474
Mof_C 	C 	0.339	0.7372	0.4597	-0.76
Mof_C 	C 	0.3417	0.6911	0.5099	0.425
Mof_C 	C 	0.2666	0.6999	0.5493	-0.39
Mof_C 	C 	0.2641	0.6509	0.5922	0.22
Mof_C 	C 	0.4009	0.5884	0.5605	0.198
Mof_C 	C 	0.4078	0.636	0.5185	-0.403
Mof_C 	C 	0.3634	0.5124	0.0402	0.167
Mof_C 	C 	0.3825	0.4691	0.9972	-0.294
Mof_C 	C 	0.4795	0.4397	0.9861	0.289
Mof_C 	C 	0.5478	0.4551	0.0248	-0.321
Mof_C 	C 	0.5271	0.4964	0.0682	0.164
Mof_C 	C 	0.5139	0.3987	0.9369	-0.479
Mof_C 	C 	0.4619	0.3292	0.9251	0.306
Mof_C 	C 	0.4305	0.7482	0.4276	0.679
Mof_C 	C 	0.4185	0.7897	0.3782	-0.862
Mof_C 	C 	0.4155	0.7507	0.3261	0.549
Mof_C 	C 	0.3506	0.7671	0.288	-0.524
Mof_C 	C 	0.3511	0.7281	0.2388	0.245
Mof_C 	C 	0.4836	0.6606	0.269	0.218
Mof_C 	C 	0.4863	0.6991	0.3181	-0.484
Mof_N 	N 	0.8912	0.0559	0.2555	-0.185
Mof_N 	N 	0.8241	0.904	0.4006	-0.199
Mof_N 	N 	0.9353	0.9732	0.9218	-0.181
Mof_N 	N 	0.9154	0.8268	0.7703	-0.216
Mof_N 	N 	0.6088	0.9441	0.7555	-0.185
Mof_N 	N 	0.6759	0.096	0.9006	-0.2
Mof_N 	N 	0.5647	0.0268	0.4218	-0.182
Mof_N 	N 	0.5846	0.1732	0.2703	-0.217
Mof_N 	N 	0.1088	0.5559	0.2445	-0.185
Mof_N 	N 	0.1759	0.404	0.0994	-0.199
Mof_N 	N 	0.0647	0.4732	0.5782	-0.182
Mof_N 	N 	0.0846	0.3268	0.7297	-0.217
Mof_N 	N 	0.3912	0.4441	0.7445	-0.185
Mof_N 	N 	0.3241	0.596	0.5994	-0.2
Mof_N 	N 	0.4353	0.5268	0.0782	-0.182
Mof_N 	N 	0.4154	0.6732	0.2297	-0.216
Mof_O 	O 	0.8412	0.8665	0.2755	-0.391
Mof_O 	O 	0.9867	0.91	0.3046	-0.36
Mof_O 	O 	0.1001	0.5713	0.1176	-0.401
Mof_O 	O 	0.2423	0.6225	0.1369	-0.463
Mof_O 	O 	0.6648	0.9979	0.305	-0.373
Mof_O 	O 	0.5007	0.0038	0.2965	-0.338
Mof_O 	O 	0.5775	0.6536	0.1323	-0.328
Mof_O 	O 	0.4443	0.7038	0.0965	-0.385
Mof_O 	O 	0.6588	0.1335	0.7755	-0.391
Mof_O 	O 	0.5133	0.09	0.8046	-0.36
Mof_O 	O 	0.3999	0.4287	0.6176	-0.402
Mof_O 	O 	0.2577	0.3775	0.6369	-0.463
Mof_O 	O 	0.8352	0.0021	0.805	-0.373
Mof_O 	O 	0.9993	0.9962	0.7965	-0.338
Mof_O 	O 	0.9225	0.3464	0.6323	-0.328
Mof_O 	O 	0.0557	0.2962	0.5965	-0.386
Mof_O 	O 	0.1588	0.3665	0.2245	-0.391
Mof_O 	O 	0.0133	0.41	0.1954	-0.36
Mof_O 	O 	0.8999	0.0713	0.3824	-0.401
Mof_O 	O 	0.7577	0.1225	0.3631	-0.463
Mof_O 	O 	0.3352	0.4979	0.195	-0.373
Mof_O 	O 	0.4993	0.5038	0.2035	-0.338
Mof_O 	O 	0.4225	0.1536	0.3677	-0.328
Mof_O 	O 	0.5557	0.2038	0.4035	-0.385
Mof_O 	O 	0.3412	0.6335	0.7245	-0.391
Mof_O 	O 	0.4867	0.59	0.6954	-0.36
Mof_O 	O 	0.6001	0.9287	0.8824	-0.402
Mof_O 	O 	0.7423	0.8775	0.8631	-0.463
Mof_O 	O 	0.1648	0.5021	0.695	-0.373
Mof_O 	O 	0.0007	0.4962	0.7035	-0.338
Mof_O 	O 	0.0775	0.8464	0.8677	-0.328
Mof_O 	O 	0.9443	0.7962	0.9035	-0.384
_end
