data_functionalizedCrystal
_audit_creation_method	'EQeq! by Chris Wilmer'
_symmetry_space_group_name_H-M	'P1'
_symmetry_Int_Tables_number	1
_symmetry_cell_setting	triclinic
loop_
_symmetry_equiv_pos_as_xyz
  x,y,z
_cell_length_a	12.972
_cell_length_b	22.296
_cell_length_c	12.988
_cell_angle_alpha	90
_cell_angle_beta	109.376
_cell_angle_gamma	90
loop_
_atom_site_label
_atom_site_type_symbol
_atom_site_fract_x
_atom_site_fract_y
_atom_site_fract_z
_atom_site_charge
Mof_Zn	Zn	0.85318	0.21332	0.75248	1.217
Mof_Zn	Zn	0.86644	0.0825	0.73759	1.216
Mof_O 	O 	0.6941	0.1943	0.7196	-0.434
Mof_C 	C 	0.6527	0.1393	0.7047	0.327
Mof_O 	O 	0.7015	0.0915	0.704	-0.45
Mof_O 	O 	0.8746	0.1893	0.9093	-0.444
Mof_C 	C 	0.8772	0.1362	0.9505	0.383
Mof_O 	O 	0.8839	0.0901	0.8952	-0.464
Mof_O 	O 	0.0207	0.201	0.7871	-0.457
Mof_C 	C 	0.0665	0.1533	0.7723	0.447
Mof_O 	O 	0.0281	0.104	0.7717	-0.487
Mof_O 	O 	0.8407	0.2072	0.5967	-0.46
Mof_C 	C 	0.8489	0.1576	0.5481	0.386
Mof_O 	O 	0.8516	0.107	0.5851	-0.483
Mof_N 	N 	0.8533	0.3029	0.7662	-0.251
Mof_C 	C 	0.76	0.3329	0.7013	0.076
Mof_H 	H 	0.6964	0.3117	0.6594	0.004
Mof_C 	C 	0.7641	0.3973	0.7004	-0.162
Mof_H 	H 	0.7047	0.4191	0.6521	0.103
Mof_C 	C 	0.8537	0.4282	0.7689	0.197
Mof_C 	C 	0.9423	0.3975	0.8405	-0.176
Mof_H 	H 	0.0026	0.4179	0.8904	0.112
Mof_C 	C 	0.937	0.3336	0.8343	0.101
Mof_H 	H 	0.9966	0.3114	0.8815	0.013
Mof_N 	N 	0.8544	0.4896	0.7648	-0.19
Mof_C 	C 	0.8594	0.5222	0.8645	0.174
Mof_C 	C 	0.8571	0.5879	0.8607	-0.029
Mof_C 	C 	0.8597	0.6206	0.9473	-0.045
Mof_H 	H 	0.8633	0.6022	0.0143	0.074
Mof_C 	C 	0.8571	0.6817	0.9363	-0.001
Mof_H 	H 	0.8501	0.7043	0.9956	0.057
Mof_C 	C 	0.8639	0.7155	0.8433	-0.081
Mof_C 	C 	0.8648	0.7781	0.8371	0.217
Mof_N 	N 	0.8729	0.802	0.7489	-0.224
Mof_C 	C 	0.8688	0.7778	0.6573	0.256
Mof_C 	C 	0.8587	0.7074	0.6609	-0.056
Mof_C 	C 	0.8644	0.6754	0.5671	-0.029
Mof_H 	H 	0.8749	0.6937	0.5052	0.061
Mof_C 	C 	0.852	0.6106	0.5798	-0.012
Mof_H 	H 	0.8403	0.5866	0.5165	0.054
Mof_C 	C 	0.8551	0.5843	0.6636	-0.062
Mof_C 	C 	0.848	0.5161	0.663	0.249
Mof_C 	C 	0.8536	0.6187	0.756	0.017
Mof_C 	C 	0.8567	0.6833	0.7594	0.05
Mof_O 	O 	0.8501	0.4955	0.9487	-0.201
Mof_O 	O 	0.8719	0.8111	0.9254	-0.206
Mof_O 	O 	0.8638	0.7996	0.5739	-0.244
Mof_O 	O 	0.8524	0.4875	0.5941	-0.254
Mof_C 	C 	0.5367	0.136	0.708	-0.031
Mof_C 	C 	0.4886	0.0738	0.6981	-0.03
Mof_H 	H 	0.5269	0.0402	0.684	0.051
Mof_C 	C 	0.3909	0.0671	0.7096	-0.039
Mof_H 	H 	0.3602	0.0283	0.7081	0.044
Mof_C 	C 	0.3308	0.1212	0.7248	-0.033
Mof_C 	C 	0.2196	0.1153	0.732	0.038
Mof_H 	H 	0.1831	0.0777	0.7174	0.033
Mof_C 	C 	0.1705	0.1621	0.7586	-0.173
Mof_C 	C 	0.2166	0.2186	0.7523	0.109
Mof_H 	H 	0.177	0.2542	0.7545	0.015
Mof_C 	C 	0.3139	0.2221	0.7433	-0.172
Mof_H 	H 	0.3442	0.2613	0.7491	0.095
Mof_C 	C 	0.3759	0.1784	0.7273	0.101
Mof_C 	C 	0.4806	0.184	0.7218	-0.09
Mof_H 	H 	0.513	0.2226	0.7279	0.079
Mof_C 	C 	0.8699	0.1305	0.0552	-0.118
Mof_C 	C 	0.874	0.0738	0.1036	0.043
Mof_H 	H 	0.8834	0.039	0.0655	0.027
Mof_C 	C 	0.8649	0.0683	0.2038	-0.1
Mof_H 	H 	0.862	0.0291	0.2317	0.065
Mof_C 	C 	0.8594	0.118	0.2686	0.036
Mof_C 	C 	0.8523	0.1155	0.3698	-0.032
Mof_H 	H 	0.8476	0.0768	0.3984	0.057
Mof_C 	C 	0.8511	0.1634	0.4351	-0.089
Mof_C 	C 	0.8509	0.2189	0.3892	0.02
Mof_H 	H 	0.8532	0.2534	0.4328	0.049
Mof_C 	C 	0.8474	0.2271	0.2821	-0.078
Mof_H 	H 	0.8385	0.2662	0.2513	0.065
Mof_C 	C 	0.8573	0.1767	0.2183	0.018
Mof_C 	C 	0.8603	0.1814	0.115	-0.012
Mof_H 	H 	0.8558	0.2199	0.0825	0.055
Mof_N 	N 	0.8721	0.9913	0.7397	-0.318
Mof_C 	C 	0.7845	0.9595	0.6802	0.166
Mof_H 	H 	0.721	0.98	0.636	-0.011
Mof_C 	C 	0.7854	0.8986	0.6822	-0.264
Mof_H 	H 	0.7232	0.8763	0.6403	0.139
Mof_C 	C 	0.8749	0.8711	0.7439	0.264
Mof_C 	C 	0.9609	0.9019	0.8097	-0.293
Mof_H 	H 	0.0242	0.8846	0.8607	0.153
Mof_C 	C 	0.942	0.9646	0.7907	0.273
Mof_H 	H 	0.0027	0.9885	0.8306	-0.043
Mof_Zn	Zn	0.14682	0.71332	0.24752	1.217
Mof_Zn	Zn	0.13356	0.5825	0.26241	1.22
Mof_O 	O 	0.3059	0.6943	0.2804	-0.432
Mof_C 	C 	0.3473	0.6393	0.2953	0.326
Mof_O 	O 	0.2985	0.5915	0.296	-0.441
Mof_O 	O 	0.1254	0.6893	0.0907	-0.443
Mof_C 	C 	0.1228	0.6362	0.0495	0.382
Mof_O 	O 	0.1161	0.5901	0.1048	-0.455
Mof_O 	O 	0.9793	0.701	0.2129	-0.456
Mof_C 	C 	0.9335	0.6533	0.2277	0.444
Mof_O 	O 	0.9719	0.604	0.2283	-0.478
Mof_O 	O 	0.1593	0.7072	0.4033	-0.459
Mof_C 	C 	0.1511	0.6576	0.4519	0.383
Mof_O 	O 	0.1484	0.607	0.4149	-0.476
Mof_N 	N 	0.1467	0.8029	0.2338	-0.251
Mof_C 	C 	0.24	0.8329	0.2987	0.078
Mof_H 	H 	0.3036	0.8117	0.3406	0.006
Mof_C 	C 	0.2359	0.8973	0.2996	-0.16
Mof_H 	H 	0.2953	0.9191	0.3479	0.11
Mof_C 	C 	0.1463	0.9282	0.2311	0.198
Mof_C 	C 	0.0577	0.8975	0.1595	-0.175
Mof_H 	H 	0.9974	0.9179	0.1096	0.12
Mof_C 	C 	0.063	0.8336	0.1657	0.103
Mof_H 	H 	0.0034	0.8114	0.1185	0.012
Mof_N 	N 	0.1456	0.9896	0.2352	-0.145
Mof_C 	C 	0.1406	0.0222	0.1355	0.104
Mof_C 	C 	0.1429	0.0879	0.1393	0
Mof_C 	C 	0.1403	0.1206	0.0527	-0.07
Mof_H 	H 	0.1367	0.1022	0.9857	0.077
Mof_C 	C 	0.1429	0.1817	0.0637	0.014
Mof_H 	H 	0.1499	0.2043	0.0044	0.051
Mof_C 	C 	0.1361	0.2155	0.1567	-0.095
Mof_C 	C 	0.1352	0.2781	0.1629	0.222
Mof_N 	N 	0.1271	0.302	0.2511	-0.226
Mof_C 	C 	0.1312	0.2778	0.3427	0.259
Mof_C 	C 	0.1413	0.2074	0.3391	-0.068
Mof_C 	C 	0.1356	0.1754	0.4329	-0.013
Mof_H 	H 	0.1251	0.1937	0.4948	0.055
Mof_C 	C 	0.148	0.1106	0.4202	-0.043
Mof_H 	H 	0.1597	0.0866	0.4835	0.058
Mof_C 	C 	0.1449	0.0843	0.3364	-0.022
Mof_C 	C 	0.152	0.0161	0.337	0.157
Mof_C 	C 	0.1464	0.1187	0.244	-0.01
Mof_C 	C 	0.1433	0.1833	0.2406	0.066
Mof_O 	O 	0.1499	0.9955	0.0513	-0.156
Mof_O 	O 	0.1281	0.3111	0.0746	-0.21
Mof_O 	O 	0.1362	0.2996	0.4261	-0.248
Mof_O 	O 	0.1476	0.9875	0.4059	-0.191
Mof_C 	C 	0.4633	0.636	0.292	-0.028
Mof_C 	C 	0.5114	0.5738	0.3019	-0.028
Mof_H 	H 	0.4731	0.5402	0.316	0.059
Mof_C 	C 	0.6091	0.5671	0.2904	-0.037
Mof_H 	H 	0.6398	0.5283	0.2919	0.053
Mof_C 	C 	0.6692	0.6212	0.2752	-0.028
Mof_C 	C 	0.7804	0.6153	0.268	0.035
Mof_H 	H 	0.8169	0.5777	0.2826	0.04
Mof_C 	C 	0.8295	0.6621	0.2414	-0.167
Mof_C 	C 	0.7834	0.7186	0.2477	0.107
Mof_H 	H 	0.823	0.7542	0.2455	0.018
Mof_C 	C 	0.6861	0.7221	0.2567	-0.169
Mof_H 	H 	0.6558	0.7613	0.2509	0.097
Mof_C 	C 	0.6241	0.6784	0.2727	0.101
Mof_C 	C 	0.5194	0.684	0.2782	-0.089
Mof_H 	H 	0.487	0.7226	0.2721	0.081
Mof_C 	C 	0.1301	0.6305	0.9448	-0.117
Mof_C 	C 	0.126	0.5738	0.8964	0.045
Mof_H 	H 	0.1166	0.539	0.9345	0.035
Mof_C 	C 	0.1351	0.5683	0.7962	-0.101
Mof_H 	H 	0.138	0.5291	0.7683	0.074
Mof_C 	C 	0.1406	0.618	0.7314	0.041
Mof_C 	C 	0.1477	0.6155	0.6302	-0.036
Mof_H 	H 	0.1524	0.5768	0.6016	0.064
Mof_C 	C 	0.1489	0.6634	0.5649	-0.084
Mof_C 	C 	0.1491	0.7189	0.6108	0.017
Mof_H 	H 	0.1468	0.7534	0.5672	0.051
Mof_C 	C 	0.1526	0.7271	0.7179	-0.075
Mof_H 	H 	0.1615	0.7662	0.7487	0.066
Mof_C 	C 	0.1427	0.6767	0.7817	0.017
Mof_C 	C 	0.1397	0.6814	0.885	-0.011
Mof_H 	H 	0.1442	0.7199	0.9175	0.056
Mof_N 	N 	0.1279	0.4913	0.2603	-0.331
Mof_C 	C 	0.2155	0.4595	0.3198	0.163
Mof_H 	H 	0.279	0.48	0.364	-0.023
Mof_C 	C 	0.2146	0.3986	0.3178	-0.269
Mof_H 	H 	0.2768	0.3763	0.3597	0.137
Mof_C 	C 	0.1251	0.3711	0.2561	0.265
Mof_C 	C 	0.0391	0.4019	0.1903	-0.301
Mof_H 	H 	0.9758	0.3846	0.1393	0.155
Mof_C 	C 	0.058	0.4646	0.2093	0.272
Mof_H 	H 	0.9973	0.4885	0.1694	-0.052
_end
