data_functionalizedCrystal
_audit_creation_method	'EQeq! by Chris Wilmer'
_symmetry_space_group_name_H-M	'P1'
_symmetry_Int_Tables_number	1
_symmetry_cell_setting	triclinic
loop_
_symmetry_equiv_pos_as_xyz
  x,y,z
_cell_length_a	9.2769
_cell_length_b	14.7984
_cell_length_c	14.6106
_cell_angle_alpha	90
_cell_angle_beta	90
_cell_angle_gamma	90
loop_
_atom_site_label
_atom_site_type_symbol
_atom_site_fract_x
_atom_site_fract_y
_atom_site_fract_z
_atom_site_charge
Mof_P 	P 	0.1482	0.13343	0.1031	1.375
Mof_Al	Al	0.1426	0.347	0.115	4.623
Mof_O 	O 	0.9667	0.3592	0.1638	-1.511
Mof_O 	O 	0.7279	0.9217	0.1663	-1.592
Mof_O 	O 	0.2562	0.0668	0.1397	-1.229
Mof_O 	O 	0.127	0.1149	0.0007	-1.448
Mof_O 	O 	0.0026	0.1206	0.149	-1.794
Mof_O 	O 	0.1983	0.2308	0.1167	-1.588
Mof_P 	P 	0.8518	0.86657	0.6031	1.374
Mof_Al	Al	0.8574	0.653	0.615	4.622
Mof_O 	O 	0.0333	0.6408	0.6638	-1.511
Mof_O 	O 	0.2721	0.0783	0.6663	-1.592
Mof_O 	O 	0.7438	0.9332	0.6397	-1.228
Mof_O 	O 	0.873	0.8851	0.5007	-1.447
Mof_O 	O 	0.9974	0.8794	0.649	-1.794
Mof_O 	O 	0.8017	0.7692	0.6167	-1.588
Mof_P 	P 	0.8518	0.63343	0.3969	1.253
Mof_Al	Al	0.8574	0.847	0.385	4.73
Mof_O 	O 	0.0333	0.8592	0.3362	-1.576
Mof_O 	O 	0.2721	0.4217	0.3337	-1.519
Mof_O 	O 	0.7438	0.5668	0.3603	-0.729
Mof_O 	O 	0.873	0.6149	0.4993	-1.394
Mof_O 	O 	0.9974	0.6206	0.351	-1.713
Mof_O 	O 	0.8017	0.7308	0.3833	-1.563
Mof_P 	P 	0.1482	0.36657	0.8969	1.253
Mof_Al	Al	0.1426	0.153	0.885	4.729
Mof_O 	O 	0.9667	0.1408	0.8362	-1.576
Mof_O 	O 	0.7279	0.5783	0.8337	-1.519
Mof_O 	O 	0.2562	0.4332	0.8603	-0.729
Mof_O 	O 	0.127	0.3851	0.9993	-1.395
Mof_O 	O 	0.0026	0.3794	0.851	-1.714
Mof_O 	O 	0.1983	0.2692	0.8833	-1.563
Mof_P 	P 	0.8518	0.86657	0.8969	1.374
Mof_Al	Al	0.8574	0.653	0.885	4.622
Mof_O 	O 	0.0333	0.6408	0.8362	-1.511
Mof_O 	O 	0.2721	0.0783	0.8337	-1.592
Mof_O 	O 	0.7438	0.9332	0.8603	-1.229
Mof_O 	O 	0.873	0.8851	0.9993	-1.448
Mof_O 	O 	0.9974	0.8794	0.851	-1.794
Mof_O 	O 	0.8017	0.7692	0.8833	-1.588
Mof_P 	P 	0.1482	0.13343	0.3969	1.374
Mof_Al	Al	0.1426	0.347	0.385	4.622
Mof_O 	O 	0.9667	0.3592	0.3362	-1.511
Mof_O 	O 	0.7279	0.9217	0.3337	-1.592
Mof_O 	O 	0.2562	0.0668	0.3603	-1.228
Mof_O 	O 	0.127	0.1149	0.4993	-1.447
Mof_O 	O 	0.0026	0.1206	0.351	-1.794
Mof_O 	O 	0.1983	0.2308	0.3833	-1.588
Mof_P 	P 	0.1482	0.36657	0.6031	1.253
Mof_Al	Al	0.1426	0.153	0.615	4.73
Mof_O 	O 	0.9667	0.1408	0.6638	-1.576
Mof_O 	O 	0.7279	0.5783	0.6663	-1.519
Mof_O 	O 	0.2562	0.4332	0.6397	-0.729
Mof_O 	O 	0.127	0.3851	0.5007	-1.394
Mof_O 	O 	0.0026	0.3794	0.649	-1.713
Mof_O 	O 	0.1983	0.2692	0.6167	-1.563
Mof_P 	P 	0.8518	0.63343	0.1031	1.253
Mof_Al	Al	0.8574	0.847	0.115	4.729
Mof_O 	O 	0.0333	0.8592	0.1638	-1.576
Mof_O 	O 	0.2721	0.4217	0.1663	-1.519
Mof_O 	O 	0.7438	0.5668	0.1397	-0.729
Mof_O 	O 	0.873	0.6149	0.0007	-1.395
Mof_O 	O 	0.9974	0.6206	0.149	-1.714
Mof_O 	O 	0.8017	0.7308	0.1167	-1.563
Mof_P 	P 	0.8765	0.343	0.25	1.201
Mof_P 	P 	0.682	0.9721	0.25	1.627
Mof_Al	Al	0.9015	0.1356	0.25	5.684
Mof_Al	Al	0.3323	0.0204	0.25	3.682
Mof_Mg	Mg	0.6677	0.5204	0.25	1.475
Mof_O 	O 	0.8256	0.2444	0.25	-1.687
Mof_O 	O 	0.7471	0.4018	0.25	-0.651
Mof_O 	O 	0.7559	0.0616	0.25	-1.823
Mof_O 	O 	0.5265	0.9862	0.25	-1.255
Mof_P 	P 	0.1235	0.657	0.75	1.201
Mof_P 	P 	0.318	0.0279	0.75	1.627
Mof_Al	Al	0.0985	0.8644	0.75	5.684
Mof_Al	Al	0.6677	0.9796	0.75	3.682
Mof_Mg	Mg	0.3323	0.4796	0.75	1.475
Mof_O 	O 	0.1744	0.7556	0.75	-1.687
Mof_O 	O 	0.2529	0.5982	0.75	-0.651
Mof_O 	O 	0.2441	0.9384	0.75	-1.823
Mof_O 	O 	0.4735	0.0138	0.75	-1.255
Mof_P 	P 	0.1235	0.843	0.25	1.333
Mof_P 	P 	0.318	0.4721	0.25	1.444
Mof_Al	Al	0.0985	0.6356	0.25	5.566
Mof_O 	O 	0.1744	0.7444	0.25	-1.668
Mof_O 	O 	0.2529	0.9018	0.25	-1.113
Mof_O 	O 	0.2441	0.5616	0.25	-1.726
Mof_O 	O 	0.4735	0.4862	0.25	-0.735
Mof_P 	P 	0.8765	0.157	0.75	1.333
Mof_P 	P 	0.682	0.5279	0.75	1.444
Mof_Al	Al	0.9015	0.3644	0.75	5.566
Mof_O 	O 	0.8256	0.2556	0.75	-1.668
Mof_O 	O 	0.7471	0.0982	0.75	-1.113
Mof_O 	O 	0.7559	0.4384	0.75	-1.726
Mof_O 	O 	0.5265	0.5138	0.75	-0.735
_end
