data_functionalizedCrystal
_audit_creation_method	'EQeq! by Chris Wilmer'
_symmetry_space_group_name_H-M	'P1'
_symmetry_Int_Tables_number	1
_symmetry_cell_setting	triclinic
loop_
_symmetry_equiv_pos_as_xyz
  x,y,z
_cell_length_a	18.079
_cell_length_b	16.435
_cell_length_c	11.603
_cell_angle_alpha	90
_cell_angle_beta	90
_cell_angle_gamma	90
loop_
_atom_site_label
_atom_site_type_symbol
_atom_site_fract_x
_atom_site_fract_y
_atom_site_fract_z
_atom_site_charge
Mof_V 	V 	0.30264	0.08712	0.628	1.801
Mof_Li	Li	0.2262	0.1026	0.8606	4.576
Mof_O 	O 	0.3038	0.0859	0.4209	-0.358
Mof_O 	O 	0.30015	0.97937	0.5326	-0.436
Mof_O 	O 	0.30007	0.04415	0.7516	-1.292
Mof_O 	O 	0.20176	0.70537	0.1665	-0.633
Mof_O 	O 	0.40865	0.10413	0.5985	-0.486
Mof_O 	O 	0.2214	0.0737	0.0194	-1.16
Mof_O 	O 	0.1912	0.9557	0.9402	-0.681
Mof_O 	O 	0.4622	0.1446	0.7617	-0.33
Mof_O 	O 	0.2247	0.7099	0.3566	-1.242
Mof_O 	O 	0.6458	0.368	0.7545	-1.281
Mof_O 	O 	0.69638	0.3993	0.5856	-0.654
Mof_O 	O 	0.5321	0.3621	0.2409	-0.244
Mof_O 	O 	0.4681	0.2486	0.2315	-0.225
Mof_C 	C 	0.2928	0.0121	0.4338	0.336
Mof_C 	C 	0.2672	0.9599	0.334	-0.147
Mof_C 	C 	0.2513	0.9995	0.2305	0.089
Mof_H 	H 	0.2589	0.0553	0.2241	0.051
Mof_C 	C 	0.224	0.9557	0.1364	-0.141
Mof_C 	C 	0.2131	0.8727	0.1477	0.113
Mof_H 	H 	0.1951	0.8432	0.0853	0.045
Mof_C 	C 	0.2284	0.8324	0.2505	-0.204
Mof_C 	C 	0.2566	0.877	0.3428	0.13
Mof_H 	H 	0.2683	0.8505	0.4112	-0.005
Mof_C 	C 	0.2114	0.9981	0.0218	0.537
Mof_C 	C 	0.4805	0.2256	0.4726	0.087
Mof_H 	H 	0.4447	0.1948	0.4351	0.037
Mof_C 	C 	0.6472	0.3655	0.6475	0.67
Mof_C 	C 	0.5481	0.2594	0.6451	0.16
Mof_H 	H 	0.5565	0.2516	0.7234	-0.023
Mof_C 	C 	0.4518	0.1506	0.6578	0.39
Mof_C 	C 	0.2175	0.7425	0.2608	0.568
Mof_C 	C 	0.5196	0.2853	0.4122	-0.132
Mof_C 	C 	0.4951	0.2123	0.5887	-0.177
Mof_C 	C 	0.5051	0.2996	0.2836	0.327
Mof_C 	C 	0.5882	0.3174	0.5861	-0.25
Mof_C 	C 	0.5741	0.3299	0.4687	0.116
Mof_H 	H 	0.6014	0.3684	0.4281	0.018
Mof_V 	V 	0.69736	0.91288	0.128	1.806
Mof_Li	Li	0.7738	0.8974	0.3606	4.973
Mof_O 	O 	0.6962	0.9141	0.9209	-0.379
Mof_O 	O 	0.69985	0.02063	0.0326	-0.31
Mof_O 	O 	0.69993	0.95585	0.2516	-1.335
Mof_O 	O 	0.79824	0.29463	0.6665	-0.639
Mof_O 	O 	0.59135	0.89587	0.0985	-0.428
Mof_O 	O 	0.7786	0.9263	0.5194	-1.28
Mof_O 	O 	0.8088	0.0443	0.4402	-0.591
Mof_O 	O 	0.5378	0.8554	0.2617	-0.285
Mof_O 	O 	0.7753	0.2901	0.8566	-1.201
Mof_O 	O 	0.3542	0.632	0.2545	-1.316
Mof_O 	O 	0.30362	0.6007	0.0856	-0.603
Mof_O 	O 	0.4679	0.6379	0.7409	-0.26
Mof_O 	O 	0.5319	0.7514	0.7315	-0.246
Mof_C 	C 	0.7072	0.9879	0.9338	0.201
Mof_C 	C 	0.7328	0.0401	0.834	-0.128
Mof_C 	C 	0.7487	0.0005	0.7305	0.057
Mof_H 	H 	0.7411	0.9447	0.7241	0.048
Mof_C 	C 	0.776	0.0443	0.6364	-0.118
Mof_C 	C 	0.7869	0.1273	0.6477	0.085
Mof_H 	H 	0.8049	0.1568	0.5853	0.027
Mof_C 	C 	0.7716	0.1676	0.7505	-0.201
Mof_C 	C 	0.7434	0.123	0.8428	0.1
Mof_H 	H 	0.7317	0.1495	0.9112	-0.024
Mof_C 	C 	0.7886	0.0019	0.5218	0.418
Mof_C 	C 	0.5195	0.7744	0.9726	-0.226
Mof_H 	H 	0.5553	0.8052	0.9351	0.109
Mof_C 	C 	0.3528	0.6345	0.1475	0.606
Mof_C 	C 	0.4519	0.7406	0.1451	-0.047
Mof_H 	H 	0.4435	0.7484	0.2234	0.056
Mof_C 	C 	0.5482	0.8494	0.1578	0.305
Mof_C 	C 	0.7825	0.2575	0.7608	0.557
Mof_C 	C 	0.4804	0.7147	0.9122	0.038
Mof_C 	C 	0.5049	0.7877	0.0887	0.094
Mof_C 	C 	0.4949	0.7004	0.7836	0.262
Mof_C 	C 	0.4118	0.6826	0.0861	0.018
Mof_C 	C 	0.4259	0.6701	0.9687	-0.194
Mof_H 	H 	0.3986	0.6316	0.9281	0.091
Mof_V 	V 	0.80264	0.41288	0.628	1.802
Mof_Li	Li	0.7262	0.3974	0.8606	4.611
Mof_O 	O 	0.8038	0.4141	0.4209	-0.358
Mof_O 	O 	0.80015	0.52063	0.5326	-0.438
Mof_O 	O 	0.80007	0.45585	0.7516	-1.295
Mof_O 	O 	0.70176	0.79463	0.1665	-0.633
Mof_O 	O 	0.90865	0.39587	0.5985	-0.485
Mof_O 	O 	0.7214	0.4263	0.0194	-1.18
Mof_O 	O 	0.6912	0.5443	0.9402	-0.702
Mof_O 	O 	0.9622	0.3554	0.7617	-0.328
Mof_O 	O 	0.7247	0.7901	0.3566	-1.242
Mof_O 	O 	0.1458	0.132	0.7545	-1.275
Mof_O 	O 	0.19638	0.1007	0.5856	-0.653
Mof_O 	O 	0.0321	0.1379	0.2409	-0.243
Mof_O 	O 	0.9681	0.2514	0.2315	-0.222
Mof_C 	C 	0.7928	0.4879	0.4338	0.34
Mof_C 	C 	0.7672	0.5401	0.334	-0.156
Mof_C 	C 	0.7513	0.5005	0.2305	0.107
Mof_H 	H 	0.7589	0.4447	0.2241	0.043
Mof_C 	C 	0.724	0.5443	0.1364	-0.154
Mof_C 	C 	0.7131	0.6273	0.1477	0.122
Mof_H 	H 	0.6951	0.6568	0.0853	0.043
Mof_C 	C 	0.7284	0.6676	0.2505	-0.21
Mof_C 	C 	0.7566	0.623	0.3428	0.137
Mof_H 	H 	0.7683	0.6495	0.4112	-0.007
Mof_C 	C 	0.7114	0.5019	0.0218	0.566
Mof_C 	C 	0.9805	0.2744	0.4726	0.089
Mof_H 	H 	0.9447	0.3052	0.4351	0.036
Mof_C 	C 	0.1472	0.1345	0.6475	0.667
Mof_C 	C 	0.0481	0.2406	0.6451	0.155
Mof_H 	H 	0.0565	0.2484	0.7234	-0.022
Mof_C 	C 	0.9518	0.3494	0.6578	0.389
Mof_C 	C 	0.7175	0.7575	0.2608	0.57
Mof_C 	C 	0.0196	0.2147	0.4122	-0.135
Mof_C 	C 	0.9951	0.2877	0.5887	-0.174
Mof_C 	C 	0.0051	0.2004	0.2836	0.322
Mof_C 	C 	0.0882	0.1826	0.5861	-0.249
Mof_C 	C 	0.0741	0.1701	0.4687	0.115
Mof_H 	H 	0.1014	0.1316	0.4281	0.018
Mof_V 	V 	0.19736	0.58712	0.128	1.808
Mof_Li	Li	0.2738	0.6026	0.3606	4.978
Mof_O 	O 	0.1962	0.5859	0.9209	-0.379
Mof_O 	O 	0.19985	0.47937	0.0326	-0.315
Mof_O 	O 	0.19993	0.54415	0.2516	-1.333
Mof_O 	O 	0.29824	0.20537	0.6665	-0.638
Mof_O 	O 	0.09135	0.60413	0.0985	-0.426
Mof_O 	O 	0.2786	0.5737	0.5194	-1.28
Mof_O 	O 	0.3088	0.4557	0.4402	-0.593
Mof_O 	O 	0.0378	0.6446	0.2617	-0.285
Mof_O 	O 	0.2753	0.2099	0.8566	-1.195
Mof_O 	O 	0.8542	0.868	0.2545	-1.317
Mof_O 	O 	0.80362	0.8993	0.0856	-0.608
Mof_O 	O 	0.9679	0.8621	0.7409	-0.26
Mof_O 	O 	0.0319	0.7486	0.7315	-0.246
Mof_C 	C 	0.2072	0.5121	0.9338	0.193
Mof_C 	C 	0.2328	0.4599	0.834	-0.121
Mof_C 	C 	0.2487	0.4995	0.7305	0.059
Mof_H 	H 	0.2411	0.5553	0.7241	0.045
Mof_C 	C 	0.276	0.4557	0.6364	-0.118
Mof_C 	C 	0.2869	0.3727	0.6477	0.084
Mof_H 	H 	0.3049	0.3432	0.5853	0.027
Mof_C 	C 	0.2716	0.3324	0.7505	-0.199
Mof_C 	C 	0.2434	0.377	0.8428	0.096
Mof_H 	H 	0.2317	0.3505	0.9112	-0.021
Mof_C 	C 	0.2886	0.4981	0.5218	0.416
Mof_C 	C 	0.0195	0.7256	0.9726	-0.221
Mof_H 	H 	0.0553	0.6948	0.9351	0.107
Mof_C 	C 	0.8528	0.8655	0.1475	0.608
Mof_C 	C 	0.9519	0.7594	0.1451	-0.042
Mof_H 	H 	0.9435	0.7516	0.2234	0.054
Mof_C 	C 	0.0482	0.6506	0.1578	0.306
Mof_C 	C 	0.2825	0.2425	0.7608	0.555
Mof_C 	C 	0.9804	0.7853	0.9122	0.034
Mof_C 	C 	0.0049	0.7123	0.0887	0.09
Mof_C 	C 	0.9949	0.7996	0.7836	0.263
Mof_C 	C 	0.9118	0.8174	0.0861	0.009
Mof_C 	C 	0.9259	0.8299	0.9687	-0.185
Mof_H 	H 	0.8986	0.8684	0.9281	0.089
_end
