data_functionalizedCrystal
_audit_creation_method	'EQeq! by Chris Wilmer'
_symmetry_space_group_name_H-M	'P1'
_symmetry_Int_Tables_number	1
_symmetry_cell_setting	triclinic
loop_
_symmetry_equiv_pos_as_xyz
  x,y,z
_cell_length_a	13.9666
_cell_length_b	15.9302
_cell_length_c	16.6479
_cell_angle_alpha	90
_cell_angle_beta	90
_cell_angle_gamma	90
loop_
_atom_site_label
_atom_site_type_symbol
_atom_site_fract_x
_atom_site_fract_y
_atom_site_fract_z
_atom_site_charge
Mof_Ni	Ni	0.52002	0.68241	0.89366	1.14
Mof_C 	C 	0.7427	0.50364	0.84052	-0.094
Mof_C 	C 	0.7842	0.5446	0.77493	0.05
Mof_H 	H 	0.7634	0.5993	0.7605	0.049
Mof_C 	C 	0.8556	0.5054	0.73091	-0.094
Mof_C 	C 	0.8867	0.42561	0.75304	0.042
Mof_H 	H 	0.9324	0.3972	0.7207	0.055
Mof_C 	C 	0.8514	0.3872	0.82192	-0.074
Mof_C 	C 	0.7791	0.42668	0.86568	0.03
Mof_H 	H 	0.7546	0.4009	0.9129	0.054
Mof_C 	C 	0.6568	0.5406	0.8826	0.361
Mof_C 	C 	0.9025	0.54632	0.65949	0.367
Mof_C 	C 	0.8937	0.3055	0.8495	0.292
Mof_C 	C 	0.4497	0.6932	0.0283	0.485
Mof_C 	C 	0.4186	0.6976	0.1149	-0.859
Mof_H 	H 	0.3502	0.7107	0.1175	0.293
Mof_H 	H 	0.4551	0.7415	0.1426	0.299
Mof_H 	H 	0.4305	0.6434	0.1409	0.297
Mof_O 	O 	0.63181	0.50584	0.94717	-0.369
Mof_O 	O 	0.61705	0.60206	0.84815	-0.401
Mof_O 	O 	0.90642	0.62584	0.65864	-0.375
Mof_O 	O 	0.93622	0.49663	0.60851	-0.383
Mof_O 	O 	0.95606	0.27044	0.80548	-0.34
Mof_O 	O 	0.86994	0.27449	0.91583	-0.319
Mof_O 	O 	0.50215	0.63133	0.00461	-0.566
Mof_O 	O 	0.43062	0.74991	0.97981	-0.338
Mof_Ni	Ni	0.97998	0.31759	0.39366	1.149
Mof_C 	C 	0.7573	0.49636	0.34052	-0.106
Mof_C 	C 	0.7158	0.4554	0.27493	0.057
Mof_H 	H 	0.7366	0.4007	0.2605	0.043
Mof_C 	C 	0.6444	0.4946	0.23091	-0.112
Mof_C 	C 	0.6133	0.57439	0.25304	0.052
Mof_H 	H 	0.5676	0.6028	0.2207	0.037
Mof_C 	C 	0.6486	0.6128	0.32192	-0.094
Mof_C 	C 	0.7209	0.57332	0.36568	0.038
Mof_H 	H 	0.7454	0.5991	0.4129	0.042
Mof_C 	C 	0.8432	0.4594	0.3826	0.365
Mof_C 	C 	0.5975	0.45368	0.15949	0.371
Mof_C 	C 	0.6063	0.6945	0.3495	0.3
Mof_C 	C 	0.0503	0.3068	0.5283	0.489
Mof_C 	C 	0.0814	0.3024	0.6149	-0.844
Mof_H 	H 	0.1498	0.2893	0.6175	0.293
Mof_H 	H 	0.0449	0.2585	0.6426	0.28
Mof_H 	H 	0.0695	0.3566	0.6409	0.276
Mof_O 	O 	0.86819	0.49416	0.44717	-0.383
Mof_O 	O 	0.88295	0.39794	0.34815	-0.395
Mof_O 	O 	0.59358	0.37416	0.15864	-0.409
Mof_O 	O 	0.56378	0.50337	0.10851	-0.422
Mof_O 	O 	0.54394	0.72956	0.30548	-0.367
Mof_O 	O 	0.63006	0.72551	0.41583	-0.344
Mof_O 	O 	0.99785	0.36867	0.50461	-0.482
Mof_O 	O 	0.06938	0.25009	0.47981	-0.425
Mof_Ni	Ni	0.47998	0.18241	0.60634	1.129
Mof_C 	C 	0.2573	0.00364	0.65948	-0.226
Mof_C 	C 	0.2158	0.0446	0.72507	0.133
Mof_H 	H 	0.2366	0.0993	0.7395	0.018
Mof_C 	C 	0.1444	0.0054	0.76909	-0.215
Mof_C 	C 	0.1133	0.92561	0.74696	0.178
Mof_H 	H 	0.0676	0.8972	0.7793	-0.008
Mof_C 	C 	0.1486	0.8872	0.67808	-0.177
Mof_C 	C 	0.2209	0.92668	0.63432	0.169
Mof_H 	H 	0.2454	0.9009	0.5871	0.008
Mof_C 	C 	0.3432	0.0406	0.6174	0.396
Mof_C 	C 	0.0975	0.04632	0.84051	0.339
Mof_C 	C 	0.1063	0.8055	0.6505	0.333
Mof_C 	C 	0.5503	0.1932	0.4717	0.581
Mof_C 	C 	0.5814	0.1976	0.3851	-0.929
Mof_H 	H 	0.6498	0.2107	0.3825	0.317
Mof_H 	H 	0.5449	0.2415	0.3574	0.321
Mof_H 	H 	0.5695	0.1434	0.3591	0.308
Mof_O 	O 	0.36819	0.00584	0.55283	-0.431
Mof_O 	O 	0.38295	0.10206	0.65185	-0.421
Mof_O 	O 	0.09358	0.12584	0.84136	-0.409
Mof_O 	O 	0.06378	0.99663	0.89149	-0.35
Mof_O 	O 	0.04394	0.77044	0.69452	-0.393
Mof_O 	O 	0.13006	0.77449	0.58417	-0.36
Mof_O 	O 	0.49785	0.13133	0.49539	-0.565
Mof_O 	O 	0.56938	0.24991	0.52019	-0.421
Mof_Ni	Ni	0.02002	0.81759	0.10634	1.102
Mof_C 	C 	0.2427	0.99636	0.15948	-0.01
Mof_C 	C 	0.2842	0.9554	0.22507	-0.013
Mof_H 	H 	0.2634	0.9007	0.2395	0.063
Mof_C 	C 	0.3556	0.9946	0.26909	-0.021
Mof_C 	C 	0.3867	0.07439	0.24696	-0.064
Mof_H 	H 	0.4324	0.1028	0.2793	0.066
Mof_C 	C 	0.3514	0.1128	0.17808	-0.033
Mof_C 	C 	0.2791	0.07332	0.13432	-0.083
Mof_H 	H 	0.2546	0.0991	0.0871	0.061
Mof_C 	C 	0.1568	0.9594	0.1174	0.337
Mof_C 	C 	0.4025	0.95368	0.34051	0.401
Mof_C 	C 	0.3937	0.1945	0.1505	0.277
Mof_C 	C 	0.9497	0.8068	0.9717	0.748
Mof_C 	C 	0.9186	0.8024	0.8851	-1.088
Mof_H 	H 	0.8502	0.7893	0.8825	0.377
Mof_H 	H 	0.9551	0.7585	0.8574	0.391
Mof_H 	H 	0.9305	0.8566	0.8591	0.386
Mof_O 	O 	0.13181	0.99416	0.05283	-0.391
Mof_O 	O 	0.11705	0.89794	0.15185	-0.413
Mof_O 	O 	0.40642	0.87416	0.34136	-0.406
Mof_O 	O 	0.43622	0.00337	0.39149	-0.458
Mof_O 	O 	0.45606	0.22956	0.19452	-0.365
Mof_O 	O 	0.36994	0.22551	0.08417	-0.36
Mof_O 	O 	0.00215	0.86867	0.99539	-0.577
Mof_O 	O 	0.93062	0.75009	0.02019	-0.482
Mof_Ni	Ni	0.47998	0.31759	0.10634	1.12
Mof_C 	C 	0.2573	0.49636	0.15948	-0.126
Mof_C 	C 	0.2158	0.4554	0.22507	0.065
Mof_H 	H 	0.2366	0.4007	0.2395	0.037
Mof_C 	C 	0.1444	0.4946	0.26909	-0.129
Mof_C 	C 	0.1133	0.57439	0.24696	0.062
Mof_H 	H 	0.0676	0.6028	0.2793	0.018
Mof_C 	C 	0.1486	0.6128	0.17808	-0.118
Mof_C 	C 	0.2209	0.57332	0.13432	0.048
Mof_H 	H 	0.2454	0.5991	0.0871	0.027
Mof_C 	C 	0.3432	0.4594	0.1174	0.369
Mof_C 	C 	0.0975	0.45368	0.34051	0.374
Mof_C 	C 	0.1063	0.6945	0.1505	0.309
Mof_C 	C 	0.5503	0.3068	0.9717	0.684
Mof_C 	C 	0.5814	0.3024	0.8851	-1.016
Mof_H 	H 	0.6498	0.2893	0.8825	0.351
Mof_H 	H 	0.5449	0.2585	0.8574	0.353
Mof_H 	H 	0.5695	0.3566	0.8591	0.342
Mof_O 	O 	0.36819	0.49416	0.05283	-0.421
Mof_O 	O 	0.38295	0.39794	0.15185	-0.415
Mof_O 	O 	0.09358	0.37416	0.34136	-0.429
Mof_O 	O 	0.06378	0.50337	0.39149	-0.431
Mof_O 	O 	0.04394	0.72956	0.19452	-0.396
Mof_O 	O 	0.13006	0.72551	0.08417	-0.375
Mof_O 	O 	0.49785	0.36867	0.99539	-0.541
Mof_O 	O 	0.56938	0.25009	0.02019	-0.501
Mof_Ni	Ni	0.02002	0.68241	0.60634	1.114
Mof_C 	C 	0.2427	0.50364	0.65948	-0.112
Mof_C 	C 	0.2842	0.5446	0.72507	0.056
Mof_H 	H 	0.2634	0.5993	0.7395	0.044
Mof_C 	C 	0.3556	0.5054	0.76909	-0.108
Mof_C 	C 	0.3867	0.42561	0.74696	0.052
Mof_H 	H 	0.4324	0.3972	0.7793	0.037
Mof_C 	C 	0.3514	0.3872	0.67808	-0.095
Mof_C 	C 	0.2791	0.42668	0.63432	0.039
Mof_H 	H 	0.2546	0.4009	0.5871	0.041
Mof_C 	C 	0.1568	0.5406	0.6174	0.366
Mof_C 	C 	0.4025	0.54632	0.84051	0.371
Mof_C 	C 	0.3937	0.3055	0.6505	0.302
Mof_C 	C 	0.9497	0.6932	0.4717	0.683
Mof_C 	C 	0.9186	0.6976	0.3851	-1.036
Mof_H 	H 	0.8502	0.7107	0.3825	0.353
Mof_H 	H 	0.9551	0.7415	0.3574	0.373
Mof_H 	H 	0.9305	0.6434	0.3591	0.366
Mof_O 	O 	0.13181	0.50584	0.55283	-0.406
Mof_O 	O 	0.11705	0.60206	0.65185	-0.418
Mof_O 	O 	0.40642	0.62584	0.84136	-0.391
Mof_O 	O 	0.43622	0.49663	0.89149	-0.389
Mof_O 	O 	0.45606	0.27044	0.69452	-0.367
Mof_O 	O 	0.36994	0.27449	0.58417	-0.346
Mof_O 	O 	0.00215	0.63133	0.49539	-0.626
Mof_O 	O 	0.93062	0.74991	0.52019	-0.42
Mof_Ni	Ni	0.52002	0.81759	0.39366	1.131
Mof_C 	C 	0.7427	0.99636	0.34052	-0.001
Mof_C 	C 	0.7842	0.9554	0.27493	-0.015
Mof_H 	H 	0.7634	0.9007	0.2605	0.067
Mof_C 	C 	0.8556	0.9946	0.23091	-0.011
Mof_C 	C 	0.8867	0.07439	0.25304	-0.065
Mof_H 	H 	0.9324	0.1028	0.2207	0.085
Mof_C 	C 	0.8514	0.1128	0.32192	-0.015
Mof_C 	C 	0.7791	0.07332	0.36568	-0.083
Mof_H 	H 	0.7546	0.0991	0.4129	0.073
Mof_C 	C 	0.6568	0.9594	0.3826	0.337
Mof_C 	C 	0.9025	0.95368	0.15949	0.391
Mof_C 	C 	0.8937	0.1945	0.3495	0.269
Mof_C 	C 	0.4497	0.8068	0.5283	0.593
Mof_C 	C 	0.4186	0.8024	0.6149	-0.95
Mof_H 	H 	0.3502	0.7893	0.6175	0.329
Mof_H 	H 	0.4551	0.7585	0.6426	0.331
Mof_H 	H 	0.4305	0.8566	0.6409	0.332
Mof_O 	O 	0.63181	0.99416	0.44717	-0.363
Mof_O 	O 	0.61705	0.89794	0.34815	-0.396
Mof_O 	O 	0.90642	0.87416	0.15864	-0.384
Mof_O 	O 	0.93622	0.00337	0.10851	-0.432
Mof_O 	O 	0.95606	0.22956	0.30548	-0.334
Mof_O 	O 	0.86994	0.22551	0.41583	-0.329
Mof_O 	O 	0.50215	0.86867	0.50461	-0.547
Mof_O 	O 	0.43062	0.75009	0.47981	-0.422
Mof_Ni	Ni	0.97998	0.18241	0.89366	1.152
Mof_C 	C 	0.7573	0.00364	0.84052	-0.199
Mof_C 	C 	0.7158	0.0446	0.77493	0.121
Mof_H 	H 	0.7366	0.0993	0.7605	0.024
Mof_C 	C 	0.6444	0.0054	0.73091	-0.195
Mof_C 	C 	0.6133	0.92561	0.75304	0.16
Mof_H 	H 	0.5676	0.8972	0.7207	0.01
Mof_C 	C 	0.6486	0.8872	0.82192	-0.151
Mof_C 	C 	0.7209	0.92668	0.86568	0.149
Mof_H 	H 	0.7454	0.9009	0.9129	0.024
Mof_C 	C 	0.8432	0.0406	0.8826	0.388
Mof_C 	C 	0.5975	0.04632	0.65949	0.34
Mof_C 	C 	0.6063	0.8055	0.8495	0.323
Mof_C 	C 	0.0503	0.1932	0.0283	0.351
Mof_C 	C 	0.0814	0.1976	0.1149	-0.724
Mof_H 	H 	0.1498	0.2107	0.1175	0.248
Mof_H 	H 	0.0449	0.2415	0.1426	0.237
Mof_H 	H 	0.0695	0.1434	0.1409	0.23
Mof_O 	O 	0.86819	0.00584	0.94717	-0.386
Mof_O 	O 	0.88295	0.10206	0.84815	-0.402
Mof_O 	O 	0.59358	0.12584	0.65864	-0.395
Mof_O 	O 	0.56378	0.99663	0.60851	-0.358
Mof_O 	O 	0.54394	0.77044	0.80548	-0.368
Mof_O 	O 	0.63006	0.77449	0.91583	-0.331
Mof_O 	O 	0.99785	0.13133	0.00461	-0.477
Mof_O 	O 	0.06938	0.24991	0.97981	-0.325
Mof_Ni	Ni	0.5	0.5	-0	1.12
Mof_Ni	Ni	2.2346e-33	0.5	0.5	1.123
Mof_Ni	Ni	0.5	0	0.5	1.128
Mof_Ni	Ni	-0	0	-0	1.067
_end
