data_functionalizedCrystal
_audit_creation_method	'EQeq! by Chris Wilmer'
_symmetry_space_group_name_H-M	'P1'
_symmetry_Int_Tables_number	1
_symmetry_cell_setting	triclinic
loop_
_symmetry_equiv_pos_as_xyz
  x,y,z
_cell_length_a	21.2174
_cell_length_b	21.2174
_cell_length_c	21.2174
_cell_angle_alpha	90
_cell_angle_beta	90
_cell_angle_gamma	90
loop_
_atom_site_label
_atom_site_type_symbol
_atom_site_fract_x
_atom_site_fract_y
_atom_site_fract_z
_atom_site_charge
Mof_N 	N 	0.5646	0.6934	0.068	-0.212
Mof_C 	C 	0.5822	0.7542	0.0852	0.039
Mof_H 	H 	0.5644	0.7894	0.0641	-0.02
Mof_C 	C 	0.6258	0.7633	0.1332	-0.104
Mof_H 	H 	0.6378	0.8048	0.1449	0.066
Mof_C 	C 	0.6519	0.7117	0.164	0.033
Mof_C 	C 	0.6343	0.651	0.1468	-0.096
Mof_H 	H 	0.6521	0.6157	0.1679	0.071
Mof_C 	C 	0.5907	0.6418	0.0988	0.045
Mof_H 	H 	0.5787	0.6003	0.087	0.067
Mof_C 	C 	0.694	0.724	0.2167	0.065
Mof_C 	C 	0.7389	0.6823	0.2306	-0.126
Mof_H 	H 	0.7402	0.6434	0.2083	0.072
Mof_N 	N 	0.4354	0.3066	0.068	-0.214
Mof_C 	C 	0.4178	0.2458	0.0852	0.033
Mof_H 	H 	0.4356	0.2106	0.0641	-0.031
Mof_C 	C 	0.3742	0.2367	0.1332	-0.108
Mof_H 	H 	0.3622	0.1952	0.1449	0.047
Mof_C 	C 	0.3481	0.2883	0.164	0.031
Mof_C 	C 	0.3657	0.349	0.1468	-0.098
Mof_H 	H 	0.3479	0.3843	0.1679	0.071
Mof_C 	C 	0.4093	0.3582	0.0988	0.043
Mof_H 	H 	0.4213	0.3997	0.087	0.067
Mof_C 	C 	0.306	0.276	0.2167	0.05
Mof_C 	C 	0.2611	0.3177	0.2306	-0.119
Mof_H 	H 	0.2598	0.3566	0.2083	0.067
Mof_N 	N 	0.4354	0.6934	0.932	-0.183
Mof_C 	C 	0.4178	0.7542	0.9148	0.052
Mof_H 	H 	0.4356	0.7894	0.9359	0.014
Mof_C 	C 	0.3742	0.7633	0.8668	-0.096
Mof_H 	H 	0.3622	0.8048	0.8551	0.076
Mof_C 	C 	0.3481	0.7117	0.836	0.039
Mof_C 	C 	0.3657	0.651	0.8532	-0.09
Mof_H 	H 	0.3479	0.6157	0.8321	0.077
Mof_C 	C 	0.4093	0.6418	0.9012	0.06
Mof_H 	H 	0.4213	0.6003	0.913	0.086
Mof_C 	C 	0.306	0.724	0.7833	0.068
Mof_C 	C 	0.2611	0.6823	0.7694	-0.125
Mof_H 	H 	0.2598	0.6434	0.7917	0.078
Mof_N 	N 	0.5646	0.3066	0.932	-0.183
Mof_C 	C 	0.5822	0.2458	0.9148	0.05
Mof_H 	H 	0.5644	0.2106	0.9359	0.004
Mof_C 	C 	0.6258	0.2367	0.8668	-0.096
Mof_H 	H 	0.6378	0.1952	0.8551	0.065
Mof_C 	C 	0.6519	0.2883	0.836	0.038
Mof_C 	C 	0.6343	0.349	0.8532	-0.09
Mof_H 	H 	0.6521	0.3843	0.8321	0.078
Mof_C 	C 	0.5907	0.3582	0.9012	0.06
Mof_H 	H 	0.5787	0.3997	0.913	0.087
Mof_C 	C 	0.694	0.276	0.7833	0.067
Mof_C 	C 	0.7389	0.3177	0.7694	-0.125
Mof_H 	H 	0.7402	0.3566	0.7917	0.08
Mof_N 	N 	0.068	0.5646	0.6934	-0.211
Mof_C 	C 	0.0852	0.5822	0.7542	0.04
Mof_H 	H 	0.0641	0.5644	0.7894	-0.019
Mof_C 	C 	0.1332	0.6258	0.7633	-0.103
Mof_H 	H 	0.1449	0.6378	0.8048	0.067
Mof_C 	C 	0.164	0.6519	0.7117	0.034
Mof_C 	C 	0.1468	0.6343	0.651	-0.095
Mof_H 	H 	0.1679	0.6521	0.6157	0.072
Mof_C 	C 	0.0988	0.5907	0.6418	0.046
Mof_H 	H 	0.087	0.5787	0.6003	0.068
Mof_C 	C 	0.2167	0.694	0.724	0.066
Mof_C 	C 	0.2306	0.7389	0.6823	-0.125
Mof_H 	H 	0.2083	0.7402	0.6434	0.073
Mof_N 	N 	0.068	0.4354	0.3066	-0.213
Mof_C 	C 	0.0852	0.4178	0.2458	0.034
Mof_H 	H 	0.0641	0.4356	0.2106	-0.031
Mof_C 	C 	0.1332	0.3742	0.2367	-0.108
Mof_H 	H 	0.1449	0.3622	0.1952	0.047
Mof_C 	C 	0.164	0.3481	0.2883	0.031
Mof_C 	C 	0.1468	0.3657	0.349	-0.098
Mof_H 	H 	0.1679	0.3479	0.3843	0.071
Mof_C 	C 	0.0988	0.4093	0.3582	0.043
Mof_H 	H 	0.087	0.4213	0.3997	0.067
Mof_C 	C 	0.2167	0.306	0.276	0.05
Mof_C 	C 	0.2306	0.2611	0.3177	-0.119
Mof_H 	H 	0.2083	0.2598	0.3566	0.067
Mof_N 	N 	0.932	0.4354	0.6934	-0.183
Mof_C 	C 	0.9148	0.4178	0.7542	0.052
Mof_H 	H 	0.9359	0.4356	0.7894	0.014
Mof_C 	C 	0.8668	0.3742	0.7633	-0.096
Mof_H 	H 	0.8551	0.3622	0.8048	0.076
Mof_C 	C 	0.836	0.3481	0.7117	0.039
Mof_C 	C 	0.8532	0.3657	0.651	-0.09
Mof_H 	H 	0.8321	0.3479	0.6157	0.077
Mof_C 	C 	0.9012	0.4093	0.6418	0.06
Mof_H 	H 	0.913	0.4213	0.6003	0.086
Mof_C 	C 	0.7833	0.306	0.724	0.068
Mof_C 	C 	0.7694	0.2611	0.6823	-0.125
Mof_H 	H 	0.7917	0.2598	0.6434	0.078
Mof_N 	N 	0.932	0.5646	0.3066	-0.183
Mof_C 	C 	0.9148	0.5822	0.2458	0.05
Mof_H 	H 	0.9359	0.5644	0.2106	0.004
Mof_C 	C 	0.8668	0.6258	0.2367	-0.096
Mof_H 	H 	0.8551	0.6378	0.1952	0.065
Mof_C 	C 	0.836	0.6519	0.2883	0.038
Mof_C 	C 	0.8532	0.6343	0.349	-0.09
Mof_H 	H 	0.8321	0.6521	0.3843	0.078
Mof_C 	C 	0.9012	0.5907	0.3582	0.06
Mof_H 	H 	0.913	0.5787	0.3997	0.087
Mof_C 	C 	0.7833	0.694	0.276	0.067
Mof_C 	C 	0.7694	0.7389	0.3177	-0.125
Mof_H 	H 	0.7917	0.7402	0.3566	0.08
Mof_N 	N 	0.6934	0.068	0.5646	-0.211
Mof_C 	C 	0.7542	0.0852	0.5822	0.04
Mof_H 	H 	0.7894	0.0641	0.5644	-0.019
Mof_C 	C 	0.7633	0.1332	0.6258	-0.103
Mof_H 	H 	0.8048	0.1449	0.6378	0.067
Mof_C 	C 	0.7117	0.164	0.6519	0.034
Mof_C 	C 	0.651	0.1468	0.6343	-0.095
Mof_H 	H 	0.6157	0.1679	0.6521	0.072
Mof_C 	C 	0.6418	0.0988	0.5907	0.046
Mof_H 	H 	0.6003	0.087	0.5787	0.068
Mof_C 	C 	0.724	0.2167	0.694	0.066
Mof_C 	C 	0.6823	0.2306	0.7389	-0.125
Mof_H 	H 	0.6434	0.2083	0.7402	0.073
Mof_N 	N 	0.3066	0.068	0.4354	-0.213
Mof_C 	C 	0.2458	0.0852	0.4178	0.034
Mof_H 	H 	0.2106	0.0641	0.4356	-0.031
Mof_C 	C 	0.2367	0.1332	0.3742	-0.108
Mof_H 	H 	0.1952	0.1449	0.3622	0.047
Mof_C 	C 	0.2883	0.164	0.3481	0.031
Mof_C 	C 	0.349	0.1468	0.3657	-0.098
Mof_H 	H 	0.3843	0.1679	0.3479	0.071
Mof_C 	C 	0.3582	0.0988	0.4093	0.043
Mof_H 	H 	0.3997	0.087	0.4213	0.067
Mof_C 	C 	0.276	0.2167	0.306	0.05
Mof_C 	C 	0.3177	0.2306	0.2611	-0.119
Mof_H 	H 	0.3566	0.2083	0.2598	0.067
Mof_N 	N 	0.6934	0.932	0.4354	-0.183
Mof_C 	C 	0.7542	0.9148	0.4178	0.052
Mof_H 	H 	0.7894	0.9359	0.4356	0.014
Mof_C 	C 	0.7633	0.8668	0.3742	-0.096
Mof_H 	H 	0.8048	0.8551	0.3622	0.076
Mof_C 	C 	0.7117	0.836	0.3481	0.039
Mof_C 	C 	0.651	0.8532	0.3657	-0.09
Mof_H 	H 	0.6157	0.8321	0.3479	0.077
Mof_C 	C 	0.6418	0.9012	0.4093	0.06
Mof_H 	H 	0.6003	0.913	0.4213	0.086
Mof_C 	C 	0.724	0.7833	0.306	0.068
Mof_C 	C 	0.6823	0.7694	0.2611	-0.125
Mof_H 	H 	0.6434	0.7917	0.2598	0.078
Mof_N 	N 	0.3066	0.932	0.5646	-0.183
Mof_C 	C 	0.2458	0.9148	0.5822	0.05
Mof_H 	H 	0.2106	0.9359	0.5644	0.004
Mof_C 	C 	0.2367	0.8668	0.6258	-0.096
Mof_H 	H 	0.1952	0.8551	0.6378	0.065
Mof_C 	C 	0.2883	0.836	0.6519	0.038
Mof_C 	C 	0.349	0.8532	0.6343	-0.09
Mof_H 	H 	0.3843	0.8321	0.6521	0.078
Mof_C 	C 	0.3582	0.9012	0.5907	0.06
Mof_H 	H 	0.3997	0.913	0.5787	0.087
Mof_C 	C 	0.276	0.7833	0.694	0.067
Mof_C 	C 	0.3177	0.7694	0.7389	-0.125
Mof_H 	H 	0.3566	0.7917	0.7402	0.08
Mof_N 	N 	0.4354	0.3066	0.932	-0.183
Mof_C 	C 	0.4178	0.2458	0.9148	0.048
Mof_H 	H 	0.4356	0.2106	0.9359	0.003
Mof_C 	C 	0.3742	0.2367	0.8668	-0.098
Mof_H 	H 	0.3622	0.1952	0.8551	0.061
Mof_C 	C 	0.3481	0.2883	0.836	0.037
Mof_C 	C 	0.3657	0.349	0.8532	-0.091
Mof_H 	H 	0.3479	0.3843	0.8321	0.077
Mof_C 	C 	0.4093	0.3582	0.9012	0.058
Mof_H 	H 	0.4213	0.3997	0.913	0.086
Mof_C 	C 	0.306	0.276	0.7833	0.06
Mof_C 	C 	0.2611	0.3177	0.7694	-0.122
Mof_H 	H 	0.2598	0.3566	0.7917	0.076
Mof_N 	N 	0.5646	0.6934	0.932	-0.182
Mof_C 	C 	0.5822	0.7542	0.9148	0.054
Mof_H 	H 	0.5644	0.7894	0.9359	0.015
Mof_C 	C 	0.6258	0.7633	0.8668	-0.094
Mof_H 	H 	0.6378	0.8048	0.8551	0.08
Mof_C 	C 	0.6519	0.7117	0.836	0.04
Mof_C 	C 	0.6343	0.651	0.8532	-0.089
Mof_H 	H 	0.6521	0.6157	0.8321	0.078
Mof_C 	C 	0.5907	0.6418	0.9012	0.061
Mof_H 	H 	0.5787	0.6003	0.913	0.087
Mof_C 	C 	0.694	0.724	0.7833	0.076
Mof_C 	C 	0.7389	0.6823	0.7694	-0.128
Mof_H 	H 	0.7402	0.6434	0.7917	0.082
Mof_N 	N 	0.5646	0.3066	0.068	-0.212
Mof_C 	C 	0.5822	0.2458	0.0852	0.036
Mof_H 	H 	0.5644	0.2106	0.0641	-0.03
Mof_C 	C 	0.6258	0.2367	0.1332	-0.106
Mof_H 	H 	0.6378	0.1952	0.1449	0.052
Mof_C 	C 	0.6519	0.2883	0.164	0.032
Mof_C 	C 	0.6343	0.349	0.1468	-0.096
Mof_H 	H 	0.6521	0.3843	0.1679	0.072
Mof_C 	C 	0.5907	0.3582	0.0988	0.045
Mof_H 	H 	0.5787	0.3997	0.087	0.068
Mof_C 	C 	0.694	0.276	0.2167	0.057
Mof_C 	C 	0.7389	0.3177	0.2306	-0.122
Mof_H 	H 	0.7402	0.3566	0.2083	0.071
Mof_N 	N 	0.4354	0.6934	0.068	-0.212
Mof_C 	C 	0.4178	0.7542	0.0852	0.038
Mof_H 	H 	0.4356	0.7894	0.0641	-0.02
Mof_C 	C 	0.3742	0.7633	0.1332	-0.105
Mof_H 	H 	0.3622	0.8048	0.1449	0.063
Mof_C 	C 	0.3481	0.7117	0.164	0.033
Mof_C 	C 	0.3657	0.651	0.1468	-0.097
Mof_H 	H 	0.3479	0.6157	0.1679	0.071
Mof_C 	C 	0.4093	0.6418	0.0988	0.045
Mof_H 	H 	0.4213	0.6003	0.087	0.067
Mof_C 	C 	0.306	0.724	0.2167	0.058
Mof_C 	C 	0.2611	0.6823	0.2306	-0.122
Mof_H 	H 	0.2598	0.6434	0.2083	0.069
Mof_N 	N 	0.932	0.4354	0.3066	-0.183
Mof_C 	C 	0.9148	0.4178	0.2458	0.048
Mof_H 	H 	0.9359	0.4356	0.2106	0.003
Mof_C 	C 	0.8668	0.3742	0.2367	-0.098
Mof_H 	H 	0.8551	0.3622	0.1952	0.061
Mof_C 	C 	0.836	0.3481	0.2883	0.037
Mof_C 	C 	0.8532	0.3657	0.349	-0.091
Mof_H 	H 	0.8321	0.3479	0.3843	0.077
Mof_C 	C 	0.9012	0.4093	0.3582	0.058
Mof_H 	H 	0.913	0.4213	0.3997	0.086
Mof_C 	C 	0.7833	0.306	0.276	0.06
Mof_C 	C 	0.7694	0.2611	0.3177	-0.122
Mof_H 	H 	0.7917	0.2598	0.3566	0.076
Mof_N 	N 	0.932	0.5646	0.6934	-0.182
Mof_C 	C 	0.9148	0.5822	0.7542	0.054
Mof_H 	H 	0.9359	0.5644	0.7894	0.015
Mof_C 	C 	0.8668	0.6258	0.7633	-0.094
Mof_H 	H 	0.8551	0.6378	0.8048	0.08
Mof_C 	C 	0.836	0.6519	0.7117	0.04
Mof_C 	C 	0.8532	0.6343	0.651	-0.089
Mof_H 	H 	0.8321	0.6521	0.6157	0.078
Mof_C 	C 	0.9012	0.5907	0.6418	0.061
Mof_H 	H 	0.913	0.5787	0.6003	0.087
Mof_C 	C 	0.7833	0.694	0.724	0.076
Mof_C 	C 	0.7694	0.7389	0.6823	-0.128
Mof_H 	H 	0.7917	0.7402	0.6434	0.082
Mof_N 	N 	0.068	0.5646	0.3066	-0.212
Mof_C 	C 	0.0852	0.5822	0.2458	0.036
Mof_H 	H 	0.0641	0.5644	0.2106	-0.03
Mof_C 	C 	0.1332	0.6258	0.2367	-0.106
Mof_H 	H 	0.1449	0.6378	0.1952	0.052
Mof_C 	C 	0.164	0.6519	0.2883	0.032
Mof_C 	C 	0.1468	0.6343	0.349	-0.096
Mof_H 	H 	0.1679	0.6521	0.3843	0.072
Mof_C 	C 	0.0988	0.5907	0.3582	0.045
Mof_H 	H 	0.087	0.5787	0.3997	0.068
Mof_C 	C 	0.2167	0.694	0.276	0.057
Mof_C 	C 	0.2306	0.7389	0.3177	-0.122
Mof_H 	H 	0.2083	0.7402	0.3566	0.071
Mof_N 	N 	0.068	0.4354	0.6934	-0.212
Mof_C 	C 	0.0852	0.4178	0.7542	0.038
Mof_H 	H 	0.0641	0.4356	0.7894	-0.02
Mof_C 	C 	0.1332	0.3742	0.7633	-0.105
Mof_H 	H 	0.1449	0.3622	0.8048	0.063
Mof_C 	C 	0.164	0.3481	0.7117	0.033
Mof_C 	C 	0.1468	0.3657	0.651	-0.097
Mof_H 	H 	0.1679	0.3479	0.6157	0.071
Mof_C 	C 	0.0988	0.4093	0.6418	0.045
Mof_H 	H 	0.087	0.4213	0.6003	0.067
Mof_C 	C 	0.2167	0.306	0.724	0.058
Mof_C 	C 	0.2306	0.2611	0.6823	-0.122
Mof_H 	H 	0.2083	0.2598	0.6434	0.069
Mof_N 	N 	0.3066	0.932	0.4354	-0.183
Mof_C 	C 	0.2458	0.9148	0.4178	0.048
Mof_H 	H 	0.2106	0.9359	0.4356	0.003
Mof_C 	C 	0.2367	0.8668	0.3742	-0.098
Mof_H 	H 	0.1952	0.8551	0.3622	0.061
Mof_C 	C 	0.2883	0.836	0.3481	0.037
Mof_C 	C 	0.349	0.8532	0.3657	-0.091
Mof_H 	H 	0.3843	0.8321	0.3479	0.077
Mof_C 	C 	0.3582	0.9012	0.4093	0.058
Mof_H 	H 	0.3997	0.913	0.4213	0.086
Mof_C 	C 	0.276	0.7833	0.306	0.06
Mof_C 	C 	0.3177	0.7694	0.2611	-0.122
Mof_H 	H 	0.3566	0.7917	0.2598	0.076
Mof_N 	N 	0.6934	0.932	0.5646	-0.182
Mof_C 	C 	0.7542	0.9148	0.5822	0.054
Mof_H 	H 	0.7894	0.9359	0.5644	0.015
Mof_C 	C 	0.7633	0.8668	0.6258	-0.094
Mof_H 	H 	0.8048	0.8551	0.6378	0.08
Mof_C 	C 	0.7117	0.836	0.6519	0.04
Mof_C 	C 	0.651	0.8532	0.6343	-0.089
Mof_H 	H 	0.6157	0.8321	0.6521	0.078
Mof_C 	C 	0.6418	0.9012	0.5907	0.061
Mof_H 	H 	0.6003	0.913	0.5787	0.087
Mof_C 	C 	0.724	0.7833	0.694	0.076
Mof_C 	C 	0.6823	0.7694	0.7389	-0.128
Mof_H 	H 	0.6434	0.7917	0.7402	0.082
Mof_N 	N 	0.3066	0.068	0.5646	-0.212
Mof_C 	C 	0.2458	0.0852	0.5822	0.036
Mof_H 	H 	0.2106	0.0641	0.5644	-0.03
Mof_C 	C 	0.2367	0.1332	0.6258	-0.106
Mof_H 	H 	0.1952	0.1449	0.6378	0.052
Mof_C 	C 	0.2883	0.164	0.6519	0.032
Mof_C 	C 	0.349	0.1468	0.6343	-0.096
Mof_H 	H 	0.3843	0.1679	0.6521	0.072
Mof_C 	C 	0.3582	0.0988	0.5907	0.045
Mof_H 	H 	0.3997	0.087	0.5787	0.068
Mof_C 	C 	0.276	0.2167	0.694	0.057
Mof_C 	C 	0.3177	0.2306	0.7389	-0.122
Mof_H 	H 	0.3566	0.2083	0.7402	0.071
Mof_N 	N 	0.6934	0.068	0.4354	-0.212
Mof_C 	C 	0.7542	0.0852	0.4178	0.038
Mof_H 	H 	0.7894	0.0641	0.4356	-0.02
Mof_C 	C 	0.7633	0.1332	0.3742	-0.105
Mof_H 	H 	0.8048	0.1449	0.3622	0.063
Mof_C 	C 	0.7117	0.164	0.3481	0.033
Mof_C 	C 	0.651	0.1468	0.3657	-0.097
Mof_H 	H 	0.6157	0.1679	0.3479	0.071
Mof_C 	C 	0.6418	0.0988	0.4093	0.045
Mof_H 	H 	0.6003	0.087	0.4213	0.067
Mof_C 	C 	0.724	0.2167	0.306	0.058
Mof_C 	C 	0.6823	0.2306	0.2611	-0.122
Mof_H 	H 	0.6434	0.2083	0.2598	0.069
Mof_Cu	Cu	0.5	0.68697	-0	0.888
Mof_F 	F 	0.5	0.5876	-0	-0.844
Mof_Cu	Cu	0.5	0.31303	-0	0.887
Mof_F 	F 	0.5	0.4124	-0	-0.844
Mof_Cu	Cu	-2.70999e-33	0.5	0.68697	0.888
Mof_F 	F 	2.20315e-33	0.5	0.5876	-0.844
Mof_Cu	Cu	1.17367e-33	0.5	0.31303	0.887
Mof_F 	F 	-3.73946e-33	0.5	0.4124	-0.844
Mof_Cu	Cu	0.68697	0	0.5	0.888
Mof_F 	F 	0.5876	0	0.5	-0.844
Mof_Cu	Cu	0.31303	0	0.5	0.887
Mof_F 	F 	0.4124	0	0.5	-0.844
Mof_Ti	Ti	0.5	0.5	-0	3.53
Mof_Ti	Ti	1.8747e-33	0.5	0.5	3.53
Mof_Ti	Ti	0.5	0	0.5	3.53
Mof_F 	F 	0.5395	0.5	0.0661	-0.845
Mof_F 	F 	0.4605	0.5	0.0661	-0.846
Mof_F 	F 	0.4605	0.5	0.9339	-0.807
Mof_F 	F 	0.5395	0.5	0.9339	-0.806
Mof_F 	F 	0.0661	0.5395	0.5	-0.845
Mof_F 	F 	0.0661	0.4605	0.5	-0.846
Mof_F 	F 	0.9339	0.4605	0.5	-0.807
Mof_F 	F 	0.9339	0.5395	0.5	-0.806
Mof_F 	F 	0.5	0.0661	0.5395	-0.845
Mof_F 	F 	0.5	0.0661	0.4605	-0.846
Mof_F 	F 	0.5	0.9339	0.4605	-0.807
Mof_F 	F 	0.5	0.9339	0.5395	-0.806
_end
