data_functionalizedCrystal
_audit_creation_method	'EQeq! by Chris Wilmer'
_symmetry_space_group_name_H-M	'P1'
_symmetry_Int_Tables_number	1
_symmetry_cell_setting	triclinic
loop_
_symmetry_equiv_pos_as_xyz
  x,y,z
_cell_length_a	9.8704
_cell_length_b	12.1381
_cell_length_c	26.39
_cell_angle_alpha	90
_cell_angle_beta	90
_cell_angle_gamma	90
loop_
_atom_site_label
_atom_site_type_symbol
_atom_site_fract_x
_atom_site_fract_y
_atom_site_fract_z
_atom_site_charge
Mof_Ag	Ag	0.71048	0.0026	0.98936	0.558
Mof_Ag	Ag	0.28952	0.0026	0.01064	0.558
Mof_Ag	Ag	0.71048	0.5026	0.51064	0.62
Mof_Ag	Ag	0.28952	0.5026	0.48936	0.62
Mof_H 	H 	0.8081	0.1394	0.1755	0.032
Mof_H 	H 	0.81	0.1429	0.2629	0.111
Mof_H 	H 	0.7138	0.8268	0.2679	0.123
Mof_H 	H 	0.7185	0.8202	0.1797	0.017
Mof_H 	H 	0.5339	0.065	0.3043	0.097
Mof_H 	H 	0.4089	0.1977	0.3404	0.018
Mof_H 	H 	0.6894	0.2178	0.4539	0.003
Mof_H 	H 	0.8138	0.0862	0.4113	0.079
Mof_H 	H 	0.7082	0.8826	0.4117	0.124
Mof_H 	H 	0.8299	0.7502	0.4529	0.005
Mof_H 	H 	0.1204	0.7606	0.3481	0.043
Mof_H 	H 	0.0009	0.9038	0.3057	0.103
Mof_H 	H 	0.1919	0.1394	0.8245	0.032
Mof_H 	H 	0.19	0.1429	0.7371	0.111
Mof_H 	H 	0.2862	0.8268	0.7321	0.123
Mof_H 	H 	0.2815	0.8202	0.8203	0.017
Mof_H 	H 	0.4661	0.065	0.6957	0.097
Mof_H 	H 	0.5911	0.1977	0.6596	0.018
Mof_H 	H 	0.3106	0.2178	0.5461	0.003
Mof_H 	H 	0.1862	0.0862	0.5887	0.079
Mof_H 	H 	0.2918	0.8826	0.5883	0.124
Mof_H 	H 	0.1701	0.7502	0.5471	0.005
Mof_H 	H 	0.8796	0.7606	0.6519	0.043
Mof_H 	H 	0.9991	0.9038	0.6943	0.103
Mof_H 	H 	0.8081	0.6394	0.3245	0.019
Mof_H 	H 	0.81	0.6429	0.2371	0.105
Mof_H 	H 	0.7138	0.3268	0.2321	0.12
Mof_H 	H 	0.7185	0.3202	0.3203	0.01
Mof_H 	H 	0.5339	0.565	0.1957	0.122
Mof_H 	H 	0.4089	0.6977	0.1596	0.016
Mof_H 	H 	0.6894	0.7178	0.0461	0.003
Mof_H 	H 	0.8138	0.5862	0.0887	0.104
Mof_H 	H 	0.7082	0.3826	0.0883	0.114
Mof_H 	H 	0.8299	0.2502	0.0471	0.006
Mof_H 	H 	0.1204	0.2606	0.1519	0.043
Mof_H 	H 	0.0009	0.4038	0.1943	0.093
Mof_H 	H 	0.1919	0.6394	0.6755	0.019
Mof_H 	H 	0.19	0.6429	0.7629	0.105
Mof_H 	H 	0.2862	0.3268	0.7679	0.12
Mof_H 	H 	0.2815	0.3202	0.6797	0.01
Mof_H 	H 	0.4661	0.565	0.8043	0.122
Mof_H 	H 	0.5911	0.6977	0.8404	0.016
Mof_H 	H 	0.3106	0.7178	0.9539	0.003
Mof_H 	H 	0.1862	0.5862	0.9113	0.104
Mof_H 	H 	0.2918	0.3826	0.9117	0.114
Mof_H 	H 	0.1701	0.2502	0.9529	0.006
Mof_H 	H 	0.8796	0.2606	0.8481	0.043
Mof_H 	H 	0.9991	0.4038	0.8057	0.093
Mof_C 	C 	0.7524	0.9806	0.1142	0.134
Mof_C 	C 	0.7613	0.9805	0.1695	-0.039
Mof_C 	C 	0.7897	0.0757	0.1938	0.025
Mof_C 	C 	0.7912	0.0775	0.246	-0.229
Mof_C 	C 	0.7651	0.9836	0.2731	0.23
Mof_C 	C 	0.735	0.8896	0.2493	-0.202
Mof_C 	C 	0.7355	0.886	0.1965	0.061
Mof_C 	C 	0.6851	0.0656	0.3538	0.128
Mof_C 	C 	0.5644	0.0979	0.334	-0.166
Mof_C 	C 	0.489	0.1746	0.3557	0.05
Mof_C 	C 	0.533	0.2232	0.4043	-0.091
Mof_C 	C 	0.4519	0.2988	0.4298	0.11
Mof_C 	C 	0.6568	0.1883	0.4238	0.044
Mof_C 	C 	0.7312	0.1095	0.3981	-0.167
Mof_C 	C 	0.8414	0.9051	0.3537	0.168
Mof_C 	C 	0.7909	0.8592	0.3987	-0.172
Mof_C 	C 	0.8633	0.7806	0.423	0.068
Mof_C 	C 	0.9863	0.7453	0.4039	-0.087
Mof_C 	C 	0.0386	0.7867	0.3608	0.04
Mof_C 	C 	0.9655	0.8717	0.3348	-0.158
Mof_C 	C 	0.0708	0.6664	0.4337	0.131
Mof_C 	C 	0.2476	0.9806	0.8858	0.134
Mof_C 	C 	0.2387	0.9805	0.8305	-0.039
Mof_C 	C 	0.2103	0.0757	0.8062	0.025
Mof_C 	C 	0.2088	0.0775	0.754	-0.229
Mof_C 	C 	0.2349	0.9836	0.7269	0.23
Mof_C 	C 	0.265	0.8896	0.7507	-0.202
Mof_C 	C 	0.2645	0.886	0.8035	0.061
Mof_C 	C 	0.3149	0.0656	0.6462	0.128
Mof_C 	C 	0.4356	0.0979	0.666	-0.166
Mof_C 	C 	0.511	0.1746	0.6443	0.05
Mof_C 	C 	0.467	0.2232	0.5957	-0.091
Mof_C 	C 	0.5481	0.2988	0.5702	0.11
Mof_C 	C 	0.3432	0.1883	0.5762	0.044
Mof_C 	C 	0.2688	0.1095	0.6019	-0.167
Mof_C 	C 	0.1586	0.9051	0.6463	0.168
Mof_C 	C 	0.2091	0.8592	0.6013	-0.172
Mof_C 	C 	0.1367	0.7806	0.577	0.068
Mof_C 	C 	0.0137	0.7453	0.5961	-0.087
Mof_C 	C 	0.9614	0.7867	0.6392	0.04
Mof_C 	C 	0.0345	0.8717	0.6652	-0.158
Mof_C 	C 	0.9292	0.6664	0.5663	0.131
Mof_C 	C 	0.7524	0.4806	0.3858	0.132
Mof_C 	C 	0.7613	0.4805	0.3305	-0.099
Mof_C 	C 	0.7897	0.5757	0.3062	0.079
Mof_C 	C 	0.7912	0.5775	0.254	-0.19
Mof_C 	C 	0.7651	0.4836	0.2269	0.182
Mof_C 	C 	0.735	0.3896	0.2507	-0.199
Mof_C 	C 	0.7355	0.386	0.3035	0.072
Mof_C 	C 	0.6851	0.5656	0.1462	0.186
Mof_C 	C 	0.5644	0.5979	0.166	-0.201
Mof_C 	C 	0.489	0.6746	0.1443	0.08
Mof_C 	C 	0.533	0.7232	0.0957	-0.103
Mof_C 	C 	0.4519	0.7988	0.0702	0.124
Mof_C 	C 	0.6568	0.6883	0.0762	0.071
Mof_C 	C 	0.7312	0.6095	0.1019	-0.196
Mof_C 	C 	0.8414	0.4051	0.1463	0.157
Mof_C 	C 	0.7909	0.3592	0.1013	-0.169
Mof_C 	C 	0.8633	0.2806	0.077	0.058
Mof_C 	C 	0.9863	0.2453	0.0961	-0.083
Mof_C 	C 	0.0386	0.2867	0.1392	0.029
Mof_C 	C 	0.9655	0.3717	0.1652	-0.153
Mof_C 	C 	0.0708	0.1664	0.0663	0.121
Mof_C 	C 	0.2476	0.4806	0.6142	0.132
Mof_C 	C 	0.2387	0.4805	0.6695	-0.099
Mof_C 	C 	0.2103	0.5757	0.6938	0.079
Mof_C 	C 	0.2088	0.5775	0.746	-0.19
Mof_C 	C 	0.2349	0.4836	0.7731	0.182
Mof_C 	C 	0.265	0.3896	0.7493	-0.199
Mof_C 	C 	0.2645	0.386	0.6965	0.072
Mof_C 	C 	0.3149	0.5656	0.8538	0.186
Mof_C 	C 	0.4356	0.5979	0.834	-0.201
Mof_C 	C 	0.511	0.6746	0.8557	0.08
Mof_C 	C 	0.467	0.7232	0.9043	-0.103
Mof_C 	C 	0.5481	0.7988	0.9298	0.124
Mof_C 	C 	0.3432	0.6883	0.9238	0.071
Mof_C 	C 	0.2688	0.6095	0.8981	-0.196
Mof_C 	C 	0.1586	0.4051	0.8537	0.157
Mof_C 	C 	0.2091	0.3592	0.8987	-0.169
Mof_C 	C 	0.1367	0.2806	0.923	0.058
Mof_C 	C 	0.0137	0.2453	0.9039	-0.083
Mof_C 	C 	0.9614	0.2867	0.8608	0.029
Mof_C 	C 	0.0345	0.3717	0.8348	-0.153
Mof_C 	C 	0.9292	0.1664	0.9337	0.121
Mof_N 	N 	0.7524	0.9758	0.0721	-0.192
Mof_N 	N 	0.388	0.3622	0.4506	-0.221
Mof_N 	N 	0.1305	0.6055	0.4539	-0.22
Mof_N 	N 	0.7676	0.9865	0.3277	-0.167
Mof_N 	N 	0.2476	0.9758	0.9279	-0.192
Mof_N 	N 	0.612	0.3622	0.5494	-0.221
Mof_N 	N 	0.8695	0.6055	0.5461	-0.22
Mof_N 	N 	0.2324	0.9865	0.6723	-0.167
Mof_N 	N 	0.7524	0.4758	0.4279	-0.219
Mof_N 	N 	0.388	0.8622	0.0494	-0.202
Mof_N 	N 	0.1305	0.1055	0.0461	-0.218
Mof_N 	N 	0.7676	0.4865	0.1723	-0.186
Mof_N 	N 	0.2476	0.4758	0.5721	-0.219
Mof_N 	N 	0.612	0.8622	0.9506	-0.202
Mof_N 	N 	0.8695	0.1055	0.9539	-0.218
Mof_N 	N 	0.2324	0.4865	0.8277	-0.186
Mof_Cl	Cl	0.4615	0.2228	0.1371	-0.206
Mof_O 	O 	0.3361	0.1675	0.1442	-0.058
Mof_O 	O 	0.527	0.239	0.186	-0.049
Mof_O 	O 	0.438	0.3303	0.1152	-0.046
Mof_O 	O 	0.551	0.1605	0.1058	-0.077
Mof_Cl	Cl	0.5385	0.2228	0.8629	-0.206
Mof_O 	O 	0.6639	0.1675	0.8558	-0.058
Mof_O 	O 	0.473	0.239	0.814	-0.049
Mof_O 	O 	0.562	0.3303	0.8848	-0.046
Mof_O 	O 	0.449	0.1605	0.8942	-0.077
Mof_Cl	Cl	0.4615	0.7228	0.3629	-0.21
Mof_O 	O 	0.3361	0.6675	0.3558	-0.049
Mof_O 	O 	0.527	0.739	0.314	-0.041
Mof_O 	O 	0.438	0.8303	0.3848	-0.035
Mof_O 	O 	0.551	0.6605	0.3942	-0.068
Mof_Cl	Cl	0.5385	0.7228	0.6371	-0.21
Mof_O 	O 	0.6639	0.6675	0.6442	-0.049
Mof_O 	O 	0.473	0.739	0.686	-0.041
Mof_O 	O 	0.562	0.8303	0.6152	-0.035
Mof_O 	O 	0.449	0.6605	0.6058	-0.068
_end
