data_functionalizedCrystal
_audit_creation_method	'EQeq! by Chris Wilmer'
_symmetry_space_group_name_H-M	'P1'
_symmetry_Int_Tables_number	1
_symmetry_cell_setting	triclinic
loop_
_symmetry_equiv_pos_as_xyz
  x,y,z
_cell_length_a	29.37
_cell_length_b	20.998
_cell_length_c	27.36
_cell_angle_alpha	90
_cell_angle_beta	90
_cell_angle_gamma	90
loop_
_atom_site_label
_atom_site_type_symbol
_atom_site_fract_x
_atom_site_fract_y
_atom_site_fract_z
_atom_site_charge
Mof_Cd	Cd	0.07052	0.25151	0.06894	0.432
Mof_Na	Na	0.03267	0.12417	0.13453	3.708
Mof_O 	O 	0.1869	0.2731	0.3759	-0.898
Mof_O 	O 	0.0014	0.2223	0.144	-0.897
Mof_O 	O 	0.2145	0.1794	0.4042	-0.807
Mof_O 	O 	0.1363	0.2623	0.1319	-0.285
Mof_O 	O 	0.8748	0.4883	0.2566	-0.251
Mof_O 	O 	0.1027	0.1693	0.1127	-0.751
Mof_O 	O 	0.2628	0.0033	0.26	-0.354
Mof_O 	O 	0.0286	0.3079	0.1196	-0.49
Mof_C 	C 	0.1518	0.113	0.3497	0.14
Mof_H 	H 	0.1701	0.0911	0.3718	-0.06
Mof_C 	C 	0.0034	0.2825	0.1426	0.768
Mof_C 	C 	0.1865	0.2153	0.3767	0.657
Mof_C 	C 	0.1265	0.2127	0.3128	0.098
Mof_H 	H 	0.1275	0.2568	0.3108	-0.023
Mof_C 	C 	0.9099	0.3887	0.2332	0.109
Mof_O 	O 	0.0395	0.1074	0.2207	-0.702
Mof_C 	C 	0.1549	0.1781	0.3465	-0.308
Mof_O 	O 	0.8504	0.401	0.2875	-0.248
Mof_C 	C 	0.1215	0.0795	0.32	-0.135
Mof_H 	H 	0.1189	0.0355	0.322	0.086
Mof_C 	C 	0.97	0.3822	0.1692	0.22
Mof_H 	H 	0.9888	0.4034	0.1472	-0.019
Mof_C 	C 	0.1316	0.2019	0.1371	0.4
Mof_C 	C 	0.0952	0.1146	0.2872	-0.031
Mof_C 	C 	0.0604	0.0733	0.2558	0.41
Mof_C 	C 	0.0968	0.1764	0.2825	-0.089
Mof_H 	H 	0.0786	0.1966	0.2594	0.036
Mof_C 	C 	0.2239	0.0987	0.2293	-0.093
Mof_C 	C 	0.2583	0.0572	0.2638	0.462
Mof_C 	C 	0.9091	0.3231	0.2312	-0.272
Mof_H 	H 	0.8895	0.2988	0.2504	0.146
Mof_C 	C 	0.9705	0.3189	0.1728	-0.429
Mof_C 	C 	0.2219	0.1699	0.2299	-0.012
Mof_H 	H 	0.2398	0.1928	0.2517	-0.013
Mof_C 	C 	0.1629	0.167	0.1705	-0.148
Mof_C 	C 	0.8749	0.4289	0.2618	0.276
Mof_C 	C 	0.1631	0.102	0.1734	0.026
Mof_H 	H 	0.1429	0.0783	0.1545	-0.018
Mof_C 	C 	0.1948	0.2	0.1992	-0.012
Mof_H 	H 	0.1968	0.244	0.1965	0.038
Mof_C 	C 	0.1934	0.071	0.2045	-0.039
Mof_H 	H 	0.1911	0.027	0.2073	0.051
Mof_O 	O 	0.2763	0.0946	0.2968	-0.686
Mof_C 	C 	0.9397	0.2958	0.1983	0.334
Mof_H 	H 	0.9364	0.252	0.1948	-0.08
Mof_C 	C 	0.9374	0.4185	0.2025	-0.201
Mof_H 	H 	0.9369	0.4627	0.2012	0.123
Mof_O 	O 	0.0574	0.0176	0.2598	-0.339
Mof_Cd	Cd	0.07052	0.75151	0.56894	0.432
Mof_Na	Na	0.03267	0.62417	0.63453	3.71
Mof_O 	O 	0.1869	0.7731	0.8759	-0.898
Mof_O 	O 	0.0014	0.7223	0.644	-0.897
Mof_O 	O 	0.2145	0.6794	0.9042	-0.807
Mof_O 	O 	0.1363	0.7623	0.6319	-0.284
Mof_O 	O 	0.8748	0.9883	0.7566	-0.249
Mof_O 	O 	0.1027	0.6693	0.6127	-0.751
Mof_O 	O 	0.2628	0.5033	0.76	-0.351
Mof_O 	O 	0.0286	0.8079	0.6196	-0.489
Mof_C 	C 	0.1518	0.613	0.8497	0.141
Mof_H 	H 	0.1701	0.5911	0.8718	-0.059
Mof_C 	C 	0.0034	0.7825	0.6426	0.769
Mof_C 	C 	0.1865	0.7153	0.8767	0.658
Mof_C 	C 	0.1265	0.7127	0.8128	0.098
Mof_H 	H 	0.1275	0.7568	0.8108	-0.023
Mof_C 	C 	0.9099	0.8887	0.7332	0.111
Mof_O 	O 	0.0395	0.6074	0.7207	-0.702
Mof_C 	C 	0.1549	0.6781	0.8465	-0.308
Mof_O 	O 	0.8504	0.901	0.7875	-0.247
Mof_C 	C 	0.1215	0.5795	0.82	-0.135
Mof_H 	H 	0.1189	0.5355	0.822	0.088
Mof_C 	C 	0.97	0.8822	0.6692	0.221
Mof_H 	H 	0.9888	0.9034	0.6472	-0.019
Mof_C 	C 	0.1316	0.7019	0.6371	0.401
Mof_C 	C 	0.0952	0.6146	0.7872	-0.031
Mof_C 	C 	0.0604	0.5733	0.7558	0.41
Mof_C 	C 	0.0968	0.6764	0.7825	-0.09
Mof_H 	H 	0.0786	0.6966	0.7594	0.036
Mof_C 	C 	0.2239	0.5987	0.7293	-0.092
Mof_C 	C 	0.2583	0.5572	0.7638	0.462
Mof_C 	C 	0.9091	0.8231	0.7312	-0.272
Mof_H 	H 	0.8895	0.7988	0.7504	0.147
Mof_C 	C 	0.9705	0.8189	0.6728	-0.43
Mof_C 	C 	0.2219	0.6699	0.7299	-0.012
Mof_H 	H 	0.2398	0.6928	0.7517	-0.013
Mof_C 	C 	0.1629	0.667	0.6705	-0.147
Mof_C 	C 	0.8749	0.9289	0.7618	0.276
Mof_C 	C 	0.1631	0.602	0.6734	0.027
Mof_H 	H 	0.1429	0.5783	0.6545	-0.017
Mof_C 	C 	0.1948	0.7	0.6992	-0.011
Mof_H 	H 	0.1968	0.744	0.6965	0.039
Mof_C 	C 	0.1934	0.571	0.7045	-0.04
Mof_H 	H 	0.1911	0.527	0.7073	0.052
Mof_O 	O 	0.2763	0.5946	0.7968	-0.685
Mof_C 	C 	0.9397	0.7958	0.6983	0.335
Mof_H 	H 	0.9364	0.752	0.6948	-0.08
Mof_C 	C 	0.9374	0.9185	0.7025	-0.201
Mof_H 	H 	0.9369	0.9627	0.7012	0.124
Mof_O 	O 	0.0574	0.5176	0.7598	-0.337
Mof_Cd	Cd	0.57052	0.25151	0.56894	0.432
Mof_Na	Na	0.53267	0.12417	0.63453	3.718
Mof_O 	O 	0.6869	0.2731	0.8759	-0.898
Mof_O 	O 	0.5014	0.2223	0.644	-0.898
Mof_O 	O 	0.7145	0.1794	0.9042	-0.807
Mof_O 	O 	0.6363	0.2623	0.6319	-0.284
Mof_O 	O 	0.3748	0.4883	0.7566	-0.251
Mof_O 	O 	0.6027	0.1693	0.6127	-0.752
Mof_O 	O 	0.7628	0.0033	0.76	-0.354
Mof_O 	O 	0.5286	0.3079	0.6196	-0.491
Mof_C 	C 	0.6518	0.113	0.8497	0.141
Mof_H 	H 	0.6701	0.0911	0.8718	-0.06
Mof_C 	C 	0.5034	0.2825	0.6426	0.776
Mof_C 	C 	0.6865	0.2153	0.8767	0.658
Mof_C 	C 	0.6265	0.2127	0.8128	0.098
Mof_H 	H 	0.6275	0.2568	0.8108	-0.023
Mof_C 	C 	0.4099	0.3887	0.7332	0.113
Mof_O 	O 	0.5395	0.1074	0.7207	-0.702
Mof_C 	C 	0.6549	0.1781	0.8465	-0.307
Mof_O 	O 	0.3504	0.401	0.7875	-0.247
Mof_C 	C 	0.6215	0.0795	0.82	-0.135
Mof_H 	H 	0.6189	0.0355	0.822	0.087
Mof_C 	C 	0.47	0.3822	0.6692	0.226
Mof_H 	H 	0.4888	0.4034	0.6472	-0.023
Mof_C 	C 	0.6316	0.2019	0.6371	0.401
Mof_C 	C 	0.5952	0.1146	0.7872	-0.031
Mof_C 	C 	0.5604	0.0733	0.7558	0.411
Mof_C 	C 	0.5968	0.1764	0.7825	-0.089
Mof_H 	H 	0.5786	0.1966	0.7594	0.036
Mof_C 	C 	0.7239	0.0987	0.7293	-0.092
Mof_C 	C 	0.7583	0.0572	0.7638	0.462
Mof_C 	C 	0.4091	0.3231	0.7312	-0.279
Mof_H 	H 	0.3895	0.2988	0.7504	0.149
Mof_C 	C 	0.4705	0.3189	0.6728	-0.441
Mof_C 	C 	0.7219	0.1699	0.7299	-0.012
Mof_H 	H 	0.7398	0.1928	0.7517	-0.013
Mof_C 	C 	0.6629	0.167	0.6705	-0.148
Mof_C 	C 	0.3749	0.4289	0.7618	0.275
Mof_C 	C 	0.6631	0.102	0.6734	0.026
Mof_H 	H 	0.6429	0.0783	0.6545	-0.018
Mof_C 	C 	0.6948	0.2	0.6992	-0.012
Mof_H 	H 	0.6968	0.244	0.6965	0.038
Mof_C 	C 	0.6934	0.071	0.7045	-0.039
Mof_H 	H 	0.6911	0.027	0.7073	0.051
Mof_O 	O 	0.7763	0.0946	0.7968	-0.686
Mof_C 	C 	0.4397	0.2958	0.6983	0.343
Mof_H 	H 	0.4364	0.252	0.6948	-0.083
Mof_C 	C 	0.4374	0.4185	0.7025	-0.205
Mof_H 	H 	0.4369	0.4627	0.7012	0.124
Mof_O 	O 	0.5574	0.0176	0.7598	-0.338
Mof_Cd	Cd	0.57052	0.75151	0.06894	0.431
Mof_Na	Na	0.53267	0.62417	0.13453	3.717
Mof_O 	O 	0.6869	0.7731	0.3759	-0.898
Mof_O 	O 	0.5014	0.7223	0.144	-0.898
Mof_O 	O 	0.7145	0.6794	0.4042	-0.807
Mof_O 	O 	0.6363	0.7623	0.1319	-0.284
Mof_O 	O 	0.3748	0.9883	0.2566	-0.249
Mof_O 	O 	0.6027	0.6693	0.1127	-0.752
Mof_O 	O 	0.7628	0.5033	0.26	-0.351
Mof_O 	O 	0.5286	0.8079	0.1196	-0.491
Mof_C 	C 	0.6518	0.613	0.3497	0.141
Mof_H 	H 	0.6701	0.5911	0.3718	-0.059
Mof_C 	C 	0.5034	0.7825	0.1426	0.776
Mof_C 	C 	0.6865	0.7153	0.3767	0.658
Mof_C 	C 	0.6265	0.7127	0.3128	0.098
Mof_H 	H 	0.6275	0.7568	0.3108	-0.023
Mof_C 	C 	0.4099	0.8887	0.2332	0.114
Mof_O 	O 	0.5395	0.6074	0.2207	-0.702
Mof_C 	C 	0.6549	0.6781	0.3465	-0.308
Mof_O 	O 	0.3504	0.901	0.2875	-0.247
Mof_C 	C 	0.6215	0.5795	0.32	-0.135
Mof_H 	H 	0.6189	0.5355	0.322	0.088
Mof_C 	C 	0.47	0.8822	0.1692	0.227
Mof_H 	H 	0.4888	0.9034	0.1472	-0.023
Mof_C 	C 	0.6316	0.7019	0.1371	0.401
Mof_C 	C 	0.5952	0.6146	0.2872	-0.031
Mof_C 	C 	0.5604	0.5733	0.2558	0.41
Mof_C 	C 	0.5968	0.6764	0.2825	-0.09
Mof_H 	H 	0.5786	0.6966	0.2594	0.036
Mof_C 	C 	0.7239	0.5987	0.2293	-0.092
Mof_C 	C 	0.7583	0.5572	0.2638	0.462
Mof_C 	C 	0.4091	0.8231	0.2312	-0.279
Mof_H 	H 	0.3895	0.7988	0.2504	0.149
Mof_C 	C 	0.4705	0.8189	0.1728	-0.441
Mof_C 	C 	0.7219	0.6699	0.2299	-0.013
Mof_H 	H 	0.7398	0.6928	0.2517	-0.013
Mof_C 	C 	0.6629	0.667	0.1705	-0.148
Mof_C 	C 	0.3749	0.9289	0.2618	0.275
Mof_C 	C 	0.6631	0.602	0.1734	0.027
Mof_H 	H 	0.6429	0.5783	0.1545	-0.018
Mof_C 	C 	0.6948	0.7	0.1992	-0.011
Mof_H 	H 	0.6968	0.744	0.1965	0.038
Mof_C 	C 	0.6934	0.571	0.2045	-0.04
Mof_H 	H 	0.6911	0.527	0.2073	0.052
Mof_O 	O 	0.7763	0.5946	0.2968	-0.685
Mof_C 	C 	0.4397	0.7958	0.1983	0.343
Mof_H 	H 	0.4364	0.752	0.1948	-0.083
Mof_C 	C 	0.4374	0.9185	0.2025	-0.206
Mof_H 	H 	0.4369	0.9627	0.2012	0.125
Mof_O 	O 	0.5574	0.5176	0.2598	-0.337
Mof_Cd	Cd	0.92948	0.74849	0.06894	0.431
Mof_Na	Na	0.96733	0.87583	0.13453	3.727
Mof_O 	O 	0.8131	0.7269	0.3759	-0.898
Mof_O 	O 	0.9986	0.7777	0.144	-0.9
Mof_O 	O 	0.7855	0.8206	0.4042	-0.807
Mof_O 	O 	0.8637	0.7377	0.1319	-0.285
Mof_O 	O 	0.1252	0.5117	0.2566	-0.251
Mof_O 	O 	0.8973	0.8307	0.1127	-0.754
Mof_O 	O 	0.7372	0.9967	0.26	-0.349
Mof_O 	O 	0.9714	0.6921	0.1196	-0.493
Mof_C 	C 	0.8482	0.887	0.3497	0.141
Mof_H 	H 	0.8299	0.9089	0.3718	-0.059
Mof_C 	C 	0.9966	0.7175	0.1426	0.784
Mof_C 	C 	0.8135	0.7847	0.3767	0.658
Mof_C 	C 	0.8735	0.7873	0.3128	0.099
Mof_H 	H 	0.8725	0.7432	0.3108	-0.023
Mof_C 	C 	0.0901	0.6113	0.2332	0.117
Mof_O 	O 	0.9605	0.8926	0.2207	-0.701
Mof_C 	C 	0.8451	0.8219	0.3465	-0.308
Mof_O 	O 	0.1496	0.599	0.2875	-0.247
Mof_C 	C 	0.8785	0.9205	0.32	-0.136
Mof_H 	H 	0.8811	0.9645	0.322	0.089
Mof_C 	C 	0.03	0.6178	0.1692	0.232
Mof_H 	H 	0.0112	0.5966	0.1472	-0.026
Mof_C 	C 	0.8684	0.7981	0.1371	0.402
Mof_C 	C 	0.9048	0.8854	0.2872	-0.03
Mof_C 	C 	0.9396	0.9267	0.2558	0.41
Mof_C 	C 	0.9032	0.8236	0.2825	-0.09
Mof_H 	H 	0.9214	0.8034	0.2594	0.037
Mof_C 	C 	0.7761	0.9013	0.2293	-0.09
Mof_C 	C 	0.7417	0.9428	0.2638	0.461
Mof_C 	C 	0.0909	0.6769	0.2312	-0.285
Mof_H 	H 	0.1105	0.7012	0.2504	0.151
Mof_C 	C 	0.0295	0.6811	0.1728	-0.451
Mof_C 	C 	0.7781	0.8301	0.2299	-0.013
Mof_H 	H 	0.7602	0.8072	0.2517	-0.013
Mof_C 	C 	0.8371	0.833	0.1705	-0.149
Mof_C 	C 	0.1251	0.5711	0.2618	0.274
Mof_C 	C 	0.8369	0.898	0.1734	0.028
Mof_H 	H 	0.8571	0.9217	0.1545	-0.018
Mof_C 	C 	0.8052	0.8	0.1992	-0.01
Mof_H 	H 	0.8032	0.756	0.1965	0.038
Mof_C 	C 	0.8066	0.929	0.2045	-0.041
Mof_H 	H 	0.8089	0.973	0.2073	0.054
Mof_O 	O 	0.7237	0.9054	0.2968	-0.684
Mof_C 	C 	0.0603	0.7042	0.1983	0.351
Mof_H 	H 	0.0636	0.748	0.1948	-0.087
Mof_C 	C 	0.0626	0.5815	0.2025	-0.21
Mof_H 	H 	0.0631	0.5373	0.2012	0.125
Mof_O 	O 	0.9426	0.9824	0.2598	-0.333
Mof_Cd	Cd	0.92948	0.24849	0.56894	0.432
Mof_Na	Na	0.96733	0.37583	0.63453	3.728
Mof_O 	O 	0.8131	0.2269	0.8759	-0.898
Mof_O 	O 	0.9986	0.2777	0.644	-0.9
Mof_O 	O 	0.7855	0.3206	0.9042	-0.807
Mof_O 	O 	0.8637	0.2377	0.6319	-0.285
Mof_O 	O 	0.1252	0.0117	0.7566	-0.253
Mof_O 	O 	0.8973	0.3307	0.6127	-0.753
Mof_O 	O 	0.7372	0.4967	0.76	-0.351
Mof_O 	O 	0.9714	0.1921	0.6196	-0.493
Mof_C 	C 	0.8482	0.387	0.8497	0.141
Mof_H 	H 	0.8299	0.4089	0.8718	-0.059
Mof_C 	C 	0.9966	0.2175	0.6426	0.785
Mof_C 	C 	0.8135	0.2847	0.8767	0.658
Mof_C 	C 	0.8735	0.2873	0.8128	0.099
Mof_H 	H 	0.8725	0.2432	0.8108	-0.023
Mof_C 	C 	0.0901	0.1113	0.7332	0.116
Mof_O 	O 	0.9605	0.3926	0.7207	-0.702
Mof_C 	C 	0.8451	0.3219	0.8465	-0.308
Mof_O 	O 	0.1496	0.099	0.7875	-0.247
Mof_C 	C 	0.8785	0.4205	0.82	-0.135
Mof_H 	H 	0.8811	0.4645	0.822	0.088
Mof_C 	C 	0.03	0.1178	0.6692	0.232
Mof_H 	H 	0.0112	0.0966	0.6472	-0.027
Mof_C 	C 	0.8684	0.2981	0.6371	0.401
Mof_C 	C 	0.9048	0.3854	0.7872	-0.03
Mof_C 	C 	0.9396	0.4267	0.7558	0.411
Mof_C 	C 	0.9032	0.3236	0.7825	-0.09
Mof_H 	H 	0.9214	0.3034	0.7594	0.036
Mof_C 	C 	0.7761	0.4013	0.7293	-0.091
Mof_C 	C 	0.7417	0.4428	0.7638	0.462
Mof_C 	C 	0.0909	0.1769	0.7312	-0.285
Mof_H 	H 	0.1105	0.2012	0.7504	0.151
Mof_C 	C 	0.0295	0.1811	0.6728	-0.452
Mof_C 	C 	0.7781	0.3301	0.7299	-0.013
Mof_H 	H 	0.7602	0.3072	0.7517	-0.013
Mof_C 	C 	0.8371	0.333	0.6705	-0.149
Mof_C 	C 	0.1251	0.0711	0.7618	0.274
Mof_C 	C 	0.8369	0.398	0.6734	0.028
Mof_H 	H 	0.8571	0.4217	0.6545	-0.018
Mof_C 	C 	0.8052	0.3	0.6992	-0.011
Mof_H 	H 	0.8032	0.256	0.6965	0.038
Mof_C 	C 	0.8066	0.429	0.7045	-0.041
Mof_H 	H 	0.8089	0.473	0.7073	0.053
Mof_O 	O 	0.7237	0.4054	0.7968	-0.685
Mof_C 	C 	0.0603	0.2042	0.6983	0.352
Mof_H 	H 	0.0636	0.248	0.6948	-0.087
Mof_C 	C 	0.0626	0.0815	0.7025	-0.21
Mof_H 	H 	0.0631	0.0373	0.7012	0.124
Mof_O 	O 	0.9426	0.4824	0.7598	-0.335
Mof_Cd	Cd	0.42948	0.74849	0.56894	0.432
Mof_Na	Na	0.46733	0.87583	0.63453	3.719
Mof_O 	O 	0.3131	0.7269	0.8759	-0.898
Mof_O 	O 	0.4986	0.7777	0.644	-0.898
Mof_O 	O 	0.2855	0.8206	0.9042	-0.807
Mof_O 	O 	0.3637	0.7377	0.6319	-0.284
Mof_O 	O 	0.6252	0.5117	0.7566	-0.251
Mof_O 	O 	0.3973	0.8307	0.6127	-0.752
Mof_O 	O 	0.2372	0.9967	0.76	-0.348
Mof_O 	O 	0.4714	0.6921	0.6196	-0.491
Mof_C 	C 	0.3482	0.887	0.8497	0.142
Mof_H 	H 	0.3299	0.9089	0.8718	-0.059
Mof_C 	C 	0.4966	0.7175	0.6426	0.776
Mof_C 	C 	0.3135	0.7847	0.8767	0.658
Mof_C 	C 	0.3735	0.7873	0.8128	0.099
Mof_H 	H 	0.3725	0.7432	0.8108	-0.023
Mof_C 	C 	0.5901	0.6113	0.7332	0.113
Mof_O 	O 	0.4605	0.8926	0.7207	-0.701
Mof_C 	C 	0.3451	0.8219	0.8465	-0.308
Mof_O 	O 	0.6496	0.599	0.7875	-0.247
Mof_C 	C 	0.3785	0.9205	0.82	-0.136
Mof_H 	H 	0.3811	0.9645	0.822	0.089
Mof_C 	C 	0.53	0.6178	0.6692	0.226
Mof_H 	H 	0.5112	0.5966	0.6472	-0.023
Mof_C 	C 	0.3684	0.7981	0.6371	0.401
Mof_C 	C 	0.4048	0.8854	0.7872	-0.03
Mof_C 	C 	0.4396	0.9267	0.7558	0.41
Mof_C 	C 	0.4032	0.8236	0.7825	-0.09
Mof_H 	H 	0.4214	0.8034	0.7594	0.036
Mof_C 	C 	0.2761	0.9013	0.7293	-0.09
Mof_C 	C 	0.2417	0.9428	0.7638	0.461
Mof_C 	C 	0.5909	0.6769	0.7312	-0.278
Mof_H 	H 	0.6105	0.7012	0.7504	0.149
Mof_C 	C 	0.5295	0.6811	0.6728	-0.44
Mof_C 	C 	0.2781	0.8301	0.7299	-0.013
Mof_H 	H 	0.2602	0.8072	0.7517	-0.013
Mof_C 	C 	0.3371	0.833	0.6705	-0.148
Mof_C 	C 	0.6251	0.5711	0.7618	0.275
Mof_C 	C 	0.3369	0.898	0.6734	0.028
Mof_H 	H 	0.3571	0.9217	0.6545	-0.017
Mof_C 	C 	0.3052	0.8	0.6992	-0.01
Mof_H 	H 	0.3032	0.756	0.6965	0.038
Mof_C 	C 	0.3066	0.929	0.7045	-0.041
Mof_H 	H 	0.3089	0.973	0.7073	0.054
Mof_O 	O 	0.2237	0.9054	0.7968	-0.684
Mof_C 	C 	0.5603	0.7042	0.6983	0.343
Mof_H 	H 	0.5636	0.748	0.6948	-0.083
Mof_C 	C 	0.5626	0.5815	0.7025	-0.205
Mof_H 	H 	0.5631	0.5373	0.7012	0.124
Mof_O 	O 	0.4426	0.9824	0.7598	-0.334
Mof_Cd	Cd	0.42948	0.24849	0.06894	0.431
Mof_Na	Na	0.46733	0.37583	0.13453	3.717
Mof_O 	O 	0.3131	0.2269	0.3759	-0.898
Mof_O 	O 	0.4986	0.2777	0.144	-0.898
Mof_O 	O 	0.2855	0.3206	0.4042	-0.807
Mof_O 	O 	0.3637	0.2377	0.1319	-0.285
Mof_O 	O 	0.6252	0.0117	0.2566	-0.253
Mof_O 	O 	0.3973	0.3307	0.1127	-0.752
Mof_O 	O 	0.2372	0.4967	0.26	-0.351
Mof_O 	O 	0.4714	0.1921	0.1196	-0.492
Mof_C 	C 	0.3482	0.387	0.3497	0.141
Mof_H 	H 	0.3299	0.4089	0.3718	-0.059
Mof_C 	C 	0.4966	0.2175	0.1426	0.776
Mof_C 	C 	0.3135	0.2847	0.3767	0.658
Mof_C 	C 	0.3735	0.2873	0.3128	0.098
Mof_H 	H 	0.3725	0.2432	0.3108	-0.023
Mof_C 	C 	0.5901	0.1113	0.2332	0.112
Mof_O 	O 	0.4605	0.3926	0.2207	-0.702
Mof_C 	C 	0.3451	0.3219	0.3465	-0.308
Mof_O 	O 	0.6496	0.099	0.2875	-0.248
Mof_C 	C 	0.3785	0.4205	0.32	-0.136
Mof_H 	H 	0.3811	0.4645	0.322	0.088
Mof_C 	C 	0.53	0.1178	0.1692	0.225
Mof_H 	H 	0.5112	0.0966	0.1472	-0.024
Mof_C 	C 	0.3684	0.2981	0.1371	0.401
Mof_C 	C 	0.4048	0.3854	0.2872	-0.031
Mof_C 	C 	0.4396	0.4267	0.2558	0.41
Mof_C 	C 	0.4032	0.3236	0.2825	-0.09
Mof_H 	H 	0.4214	0.3034	0.2594	0.036
Mof_C 	C 	0.2761	0.4013	0.2293	-0.091
Mof_C 	C 	0.2417	0.4428	0.2638	0.462
Mof_C 	C 	0.5909	0.1769	0.2312	-0.278
Mof_H 	H 	0.6105	0.2012	0.2504	0.148
Mof_C 	C 	0.5295	0.1811	0.1728	-0.441
Mof_C 	C 	0.2781	0.3301	0.2299	-0.013
Mof_H 	H 	0.2602	0.3072	0.2517	-0.013
Mof_C 	C 	0.3371	0.333	0.1705	-0.148
Mof_C 	C 	0.6251	0.0711	0.2618	0.275
Mof_C 	C 	0.3369	0.398	0.1734	0.027
Mof_H 	H 	0.3571	0.4217	0.1545	-0.018
Mof_C 	C 	0.3052	0.3	0.1992	-0.011
Mof_H 	H 	0.3032	0.256	0.1965	0.038
Mof_C 	C 	0.3066	0.429	0.2045	-0.04
Mof_H 	H 	0.3089	0.473	0.2073	0.052
Mof_O 	O 	0.2237	0.4054	0.2968	-0.685
Mof_C 	C 	0.5603	0.2042	0.1983	0.342
Mof_H 	H 	0.5636	0.248	0.1948	-0.083
Mof_C 	C 	0.5626	0.0815	0.2025	-0.206
Mof_H 	H 	0.5631	0.0373	0.2012	0.123
Mof_O 	O 	0.4426	0.4824	0.2598	-0.337
Mof_Cd	Cd	0.32052	0.99849	0.31894	0.436
Mof_Na	Na	0.28267	0.12583	0.38453	3.717
Mof_O 	O 	0.4369	0.9769	0.6259	-0.892
Mof_O 	O 	0.2514	0.0277	0.394	-0.904
Mof_O 	O 	0.4645	0.0706	0.6542	-0.806
Mof_O 	O 	0.3863	0.9877	0.3819	-0.28
Mof_O 	O 	0.1248	0.7617	0.5066	-0.251
Mof_O 	O 	0.3527	0.0807	0.3627	-0.752
Mof_O 	O 	0.5128	0.2467	0.51	-0.351
Mof_O 	O 	0.2786	0.9421	0.3696	-0.493
Mof_C 	C 	0.4018	0.137	0.5997	0.133
Mof_H 	H 	0.4201	0.1589	0.6218	-0.057
Mof_C 	C 	0.2534	0.9675	0.3926	0.784
Mof_C 	C 	0.4365	0.0347	0.6267	0.648
Mof_C 	C 	0.3765	0.0373	0.5628	0.082
Mof_H 	H 	0.3775	0.9932	0.5608	-0.014
Mof_C 	C 	0.1599	0.8613	0.4832	0.115
Mof_O 	O 	0.2895	0.1426	0.4707	-0.703
Mof_C 	C 	0.4049	0.0719	0.5965	-0.299
Mof_O 	O 	0.1004	0.849	0.5375	-0.247
Mof_C 	C 	0.3715	0.1705	0.57	-0.129
Mof_H 	H 	0.3689	0.2145	0.572	0.085
Mof_C 	C 	0.22	0.8678	0.4192	0.228
Mof_H 	H 	0.2388	0.8466	0.3972	-0.023
Mof_C 	C 	0.3816	0.0481	0.3871	0.395
Mof_C 	C 	0.3452	0.1354	0.5372	-0.037
Mof_C 	C 	0.3104	0.1767	0.5058	0.412
Mof_C 	C 	0.3468	0.0736	0.5325	-0.079
Mof_H 	H 	0.3286	0.0534	0.5094	0.031
Mof_C 	C 	0.4739	0.1513	0.4793	-0.092
Mof_C 	C 	0.5083	0.1928	0.5138	0.462
Mof_C 	C 	0.1591	0.9269	0.4812	-0.28
Mof_H 	H 	0.1395	0.9512	0.5004	0.15
Mof_C 	C 	0.2205	0.9311	0.4228	-0.444
Mof_C 	C 	0.4719	0.0801	0.4799	-0.011
Mof_H 	H 	0.4898	0.0572	0.5017	-0.014
Mof_C 	C 	0.4129	0.083	0.4205	-0.146
Mof_C 	C 	0.1249	0.8211	0.5118	0.275
Mof_C 	C 	0.4131	0.148	0.4234	0.026
Mof_H 	H 	0.3929	0.1717	0.4045	-0.017
Mof_C 	C 	0.4448	0.05	0.4492	-0.013
Mof_H 	H 	0.4468	0.006	0.4465	0.037
Mof_C 	C 	0.4434	0.179	0.4545	-0.039
Mof_H 	H 	0.4411	0.223	0.4573	0.052
Mof_O 	O 	0.5263	0.1554	0.5468	-0.685
Mof_C 	C 	0.1897	0.9542	0.4483	0.346
Mof_H 	H 	0.1864	0.998	0.4448	-0.083
Mof_C 	C 	0.1874	0.8315	0.4525	-0.207
Mof_H 	H 	0.1869	0.7873	0.4512	0.125
Mof_O 	O 	0.3074	0.2324	0.5098	-0.337
Mof_Cd	Cd	0.32052	0.49849	0.81894	0.432
Mof_Na	Na	0.28267	0.62583	0.88453	3.718
Mof_O 	O 	0.4369	0.4769	0.1259	-0.898
Mof_O 	O 	0.2514	0.5277	0.894	-0.896
Mof_O 	O 	0.4645	0.5706	0.1542	-0.807
Mof_O 	O 	0.3863	0.4877	0.8819	-0.283
Mof_O 	O 	0.1248	0.2617	0.0066	-0.254
Mof_O 	O 	0.3527	0.5807	0.8627	-0.751
Mof_O 	O 	0.5128	0.7467	0.01	-0.352
Mof_O 	O 	0.2786	0.4421	0.8696	-0.489
Mof_C 	C 	0.4018	0.637	0.0997	0.141
Mof_H 	H 	0.4201	0.6589	0.1218	-0.059
Mof_C 	C 	0.2534	0.4675	0.8926	0.771
Mof_C 	C 	0.4365	0.5347	0.1267	0.658
Mof_C 	C 	0.3765	0.5373	0.0628	0.097
Mof_H 	H 	0.3775	0.4932	0.0608	-0.024
Mof_C 	C 	0.1599	0.3613	0.9832	0.11
Mof_O 	O 	0.2895	0.6426	0.9707	-0.694
Mof_C 	C 	0.4049	0.5719	0.0965	-0.308
Mof_O 	O 	0.1004	0.349	0.0375	-0.249
Mof_C 	C 	0.3715	0.6705	0.07	-0.137
Mof_H 	H 	0.3689	0.7145	0.072	0.087
Mof_C 	C 	0.22	0.3678	0.9192	0.218
Mof_H 	H 	0.2388	0.3466	0.8972	-0.02
Mof_C 	C 	0.3816	0.5481	0.8871	0.399
Mof_C 	C 	0.3452	0.6354	0.0372	-0.03
Mof_C 	C 	0.3104	0.6767	0.0058	0.401
Mof_C 	C 	0.3468	0.5736	0.0325	-0.092
Mof_H 	H 	0.3286	0.5534	0.0094	0.033
Mof_C 	C 	0.4739	0.6513	0.9793	-0.091
Mof_C 	C 	0.5083	0.6928	0.0138	0.457
Mof_C 	C 	0.1591	0.4269	0.9812	-0.252
Mof_H 	H 	0.1395	0.4512	0.0004	0.133
Mof_C 	C 	0.2205	0.4311	0.9228	-0.427
Mof_C 	C 	0.4719	0.5801	0.9799	0.011
Mof_H 	H 	0.4898	0.5572	0.0017	-0.027
Mof_C 	C 	0.4129	0.583	0.9205	-0.14
Mof_C 	C 	0.1249	0.3211	0.0118	0.271
Mof_C 	C 	0.4131	0.648	0.9234	0.023
Mof_H 	H 	0.3929	0.6717	0.9045	-0.016
Mof_C 	C 	0.4448	0.55	0.9492	-0.025
Mof_H 	H 	0.4468	0.506	0.9465	0.045
Mof_C 	C 	0.4434	0.679	0.9545	-0.036
Mof_H 	H 	0.4411	0.723	0.9573	0.054
Mof_O 	O 	0.5263	0.6554	0.0468	-0.685
Mof_C 	C 	0.1897	0.4542	0.9483	0.324
Mof_H 	H 	0.1864	0.498	0.9448	-0.075
Mof_C 	C 	0.1874	0.3315	0.9525	-0.199
Mof_H 	H 	0.1869	0.2873	0.9512	0.124
Mof_O 	O 	0.3074	0.7324	0.0098	-0.338
Mof_Cd	Cd	0.82052	0.99849	0.81894	0.436
Mof_Na	Na	0.78267	0.12583	0.88453	3.717
Mof_O 	O 	0.9369	0.9769	0.1259	-0.893
Mof_O 	O 	0.7514	0.0277	0.894	-0.901
Mof_O 	O 	0.9645	0.0706	0.1542	-0.802
Mof_O 	O 	0.8863	0.9877	0.8819	-0.278
Mof_O 	O 	0.6248	0.7617	0.0066	-0.253
Mof_O 	O 	0.8527	0.0807	0.8627	-0.751
Mof_O 	O 	0.0128	0.2467	0.01	-0.353
Mof_O 	O 	0.7786	0.9421	0.8696	-0.49
Mof_C 	C 	0.9018	0.137	0.0997	0.134
Mof_H 	H 	0.9201	0.1589	0.1218	-0.056
Mof_C 	C 	0.7534	0.9675	0.8926	0.778
Mof_C 	C 	0.9365	0.0347	0.1267	0.649
Mof_C 	C 	0.8765	0.0373	0.0628	0.082
Mof_H 	H 	0.8775	0.9932	0.0608	-0.016
Mof_C 	C 	0.6599	0.8613	0.9832	0.112
Mof_O 	O 	0.7895	0.1426	0.9707	-0.695
Mof_C 	C 	0.9049	0.0719	0.0965	-0.3
Mof_O 	O 	0.6004	0.849	0.0375	-0.247
Mof_C 	C 	0.8715	0.1705	0.07	-0.131
Mof_H 	H 	0.8689	0.2145	0.072	0.085
Mof_C 	C 	0.72	0.8678	0.9192	0.221
Mof_H 	H 	0.7388	0.8466	0.8972	-0.02
Mof_C 	C 	0.8816	0.0481	0.8871	0.395
Mof_C 	C 	0.8452	0.1354	0.0372	-0.036
Mof_C 	C 	0.8104	0.1767	0.0058	0.403
Mof_C 	C 	0.8468	0.0736	0.0325	-0.082
Mof_H 	H 	0.8286	0.0534	0.0094	0.029
Mof_C 	C 	0.9739	0.1513	0.9793	-0.085
Mof_C 	C 	0.0083	0.1928	0.0138	0.452
Mof_C 	C 	0.6591	0.9269	0.9812	-0.254
Mof_H 	H 	0.6395	0.9512	0.0004	0.135
Mof_C 	C 	0.7205	0.9311	0.9228	-0.431
Mof_C 	C 	0.9719	0.0801	0.9799	0.008
Mof_H 	H 	0.9898	0.0572	0.0017	-0.025
Mof_C 	C 	0.9129	0.083	0.9205	-0.141
Mof_C 	C 	0.6249	0.8211	0.0118	0.27
Mof_C 	C 	0.9131	0.148	0.9234	0.026
Mof_H 	H 	0.8929	0.1717	0.9045	-0.016
Mof_C 	C 	0.9448	0.05	0.9492	-0.023
Mof_H 	H 	0.9468	0.006	0.9465	0.043
Mof_C 	C 	0.9434	0.179	0.9545	-0.04
Mof_H 	H 	0.9411	0.223	0.9573	0.056
Mof_O 	O 	0.0263	0.1554	0.0468	-0.685
Mof_C 	C 	0.6897	0.9542	0.9483	0.328
Mof_H 	H 	0.6864	0.998	0.9448	-0.075
Mof_C 	C 	0.6874	0.8315	0.9525	-0.201
Mof_H 	H 	0.6869	0.7873	0.9512	0.125
Mof_O 	O 	0.8074	0.2324	0.0098	-0.339
Mof_Cd	Cd	0.82052	0.49849	0.31894	0.432
Mof_Na	Na	0.78267	0.62583	0.38453	3.718
Mof_O 	O 	0.9369	0.4769	0.6259	-0.898
Mof_O 	O 	0.7514	0.5277	0.394	-0.898
Mof_O 	O 	0.9645	0.5706	0.6542	-0.804
Mof_O 	O 	0.8863	0.4877	0.3819	-0.284
Mof_O 	O 	0.6248	0.2617	0.5066	-0.251
Mof_O 	O 	0.8527	0.5807	0.3627	-0.752
Mof_O 	O 	0.0128	0.7467	0.51	-0.351
Mof_O 	O 	0.7786	0.4421	0.3696	-0.491
Mof_C 	C 	0.9018	0.637	0.5997	0.141
Mof_H 	H 	0.9201	0.6589	0.6218	-0.058
Mof_C 	C 	0.7534	0.4675	0.3926	0.776
Mof_C 	C 	0.9365	0.5347	0.6267	0.658
Mof_C 	C 	0.8765	0.5373	0.5628	0.098
Mof_H 	H 	0.8775	0.4932	0.5608	-0.023
Mof_C 	C 	0.6599	0.3613	0.4832	0.113
Mof_O 	O 	0.7895	0.6426	0.4707	-0.702
Mof_C 	C 	0.9049	0.5719	0.5965	-0.307
Mof_O 	O 	0.6004	0.349	0.5375	-0.247
Mof_C 	C 	0.8715	0.6705	0.57	-0.135
Mof_H 	H 	0.8689	0.7145	0.572	0.088
Mof_C 	C 	0.72	0.3678	0.4192	0.226
Mof_H 	H 	0.7388	0.3466	0.3972	-0.023
Mof_C 	C 	0.8816	0.5481	0.3871	0.402
Mof_C 	C 	0.8452	0.6354	0.5372	-0.031
Mof_C 	C 	0.8104	0.6767	0.5058	0.41
Mof_C 	C 	0.8468	0.5736	0.5325	-0.09
Mof_H 	H 	0.8286	0.5534	0.5094	0.036
Mof_C 	C 	0.9739	0.6513	0.4793	-0.085
Mof_C 	C 	0.0083	0.6928	0.5138	0.457
Mof_C 	C 	0.6591	0.4269	0.4812	-0.278
Mof_H 	H 	0.6395	0.4512	0.5004	0.149
Mof_C 	C 	0.7205	0.4311	0.4228	-0.44
Mof_C 	C 	0.9719	0.5801	0.4799	-0.016
Mof_H 	H 	0.9898	0.5572	0.5017	-0.01
Mof_C 	C 	0.9129	0.583	0.4205	-0.15
Mof_C 	C 	0.6249	0.3211	0.5118	0.275
Mof_C 	C 	0.9131	0.648	0.4234	0.031
Mof_H 	H 	0.8929	0.6717	0.4045	-0.019
Mof_C 	C 	0.9448	0.55	0.4492	-0.007
Mof_H 	H 	0.9468	0.506	0.4465	0.038
Mof_C 	C 	0.9434	0.679	0.4545	-0.045
Mof_H 	H 	0.9411	0.723	0.4573	0.055
Mof_O 	O 	0.0263	0.6554	0.5468	-0.684
Mof_C 	C 	0.6897	0.4542	0.4483	0.343
Mof_H 	H 	0.6864	0.498	0.4448	-0.083
Mof_C 	C 	0.6874	0.3315	0.4525	-0.205
Mof_H 	H 	0.6869	0.2873	0.4512	0.124
Mof_O 	O 	0.8074	0.7324	0.5098	-0.336
Mof_Cd	Cd	0.17948	0.50151	0.31894	0.432
Mof_Na	Na	0.21733	0.37417	0.38453	3.718
Mof_O 	O 	0.0631	0.5231	0.6259	-0.897
Mof_O 	O 	0.2486	0.4723	0.394	-0.898
Mof_O 	O 	0.0355	0.4294	0.6542	-0.809
Mof_O 	O 	0.1137	0.5123	0.3819	-0.284
Mof_O 	O 	0.3752	0.7383	0.5066	-0.251
Mof_O 	O 	0.1473	0.4193	0.3627	-0.752
Mof_O 	O 	0.9872	0.2533	0.51	-0.351
Mof_O 	O 	0.2214	0.5579	0.3696	-0.491
Mof_C 	C 	0.0982	0.363	0.5997	0.141
Mof_H 	H 	0.0799	0.3411	0.6218	-0.06
Mof_C 	C 	0.2466	0.5325	0.3926	0.776
Mof_C 	C 	0.0635	0.4653	0.6267	0.658
Mof_C 	C 	0.1235	0.4627	0.5628	0.098
Mof_H 	H 	0.1225	0.5068	0.5608	-0.023
Mof_C 	C 	0.3401	0.6387	0.4832	0.113
Mof_O 	O 	0.2105	0.3574	0.4707	-0.702
Mof_C 	C 	0.0951	0.4281	0.5965	-0.308
Mof_O 	O 	0.3996	0.651	0.5375	-0.247
Mof_C 	C 	0.1285	0.3295	0.57	-0.136
Mof_H 	H 	0.1311	0.2855	0.572	0.087
Mof_C 	C 	0.28	0.6322	0.4192	0.226
Mof_H 	H 	0.2612	0.6534	0.3972	-0.023
Mof_C 	C 	0.1184	0.4519	0.3871	0.4
Mof_C 	C 	0.1548	0.3646	0.5372	-0.031
Mof_C 	C 	0.1896	0.3233	0.5058	0.41
Mof_C 	C 	0.1532	0.4264	0.5325	-0.09
Mof_H 	H 	0.1714	0.4466	0.5094	0.036
Mof_C 	C 	0.0261	0.3487	0.4793	-0.098
Mof_C 	C 	0.9917	0.3072	0.5138	0.467
Mof_C 	C 	0.3409	0.5731	0.4812	-0.278
Mof_H 	H 	0.3605	0.5488	0.5004	0.149
Mof_C 	C 	0.2795	0.5689	0.4228	-0.44
Mof_C 	C 	0.0281	0.4199	0.4799	-0.009
Mof_H 	H 	0.0102	0.4428	0.5017	-0.016
Mof_C 	C 	0.0871	0.417	0.4205	-0.146
Mof_C 	C 	0.3751	0.6789	0.5118	0.275
Mof_C 	C 	0.0869	0.352	0.4234	0.023
Mof_H 	H 	0.1071	0.3283	0.4045	-0.016
Mof_C 	C 	0.0552	0.45	0.4492	-0.015
Mof_H 	H 	0.0532	0.494	0.4465	0.039
Mof_C 	C 	0.0566	0.321	0.4545	-0.035
Mof_H 	H 	0.0589	0.277	0.4573	0.05
Mof_O 	O 	0.9737	0.3446	0.5468	-0.686
Mof_C 	C 	0.3103	0.5458	0.4483	0.343
Mof_H 	H 	0.3136	0.502	0.4448	-0.083
Mof_C 	C 	0.3126	0.6685	0.4525	-0.205
Mof_H 	H 	0.3131	0.7127	0.4512	0.124
Mof_O 	O 	0.1926	0.2676	0.5098	-0.337
Mof_Cd	Cd	0.17948	0.00151	0.81894	0.427
Mof_Na	Na	0.21733	0.87417	0.88453	3.719
Mof_O 	O 	0.0631	0.0231	0.1259	-0.903
Mof_O 	O 	0.2486	0.9723	0.894	-0.891
Mof_O 	O 	0.0355	0.9294	0.1542	-0.809
Mof_O 	O 	0.1137	0.0123	0.8819	-0.288
Mof_O 	O 	0.3752	0.2383	0.0066	-0.254
Mof_O 	O 	0.1473	0.9193	0.8627	-0.751
Mof_O 	O 	0.9872	0.7533	0.01	-0.352
Mof_O 	O 	0.2214	0.0579	0.8696	-0.487
Mof_C 	C 	0.0982	0.863	0.0997	0.148
Mof_H 	H 	0.0799	0.8411	0.1218	-0.063
Mof_C 	C 	0.2466	0.0325	0.8926	0.763
Mof_C 	C 	0.0635	0.9653	0.1267	0.667
Mof_C 	C 	0.1235	0.9627	0.0628	0.114
Mof_H 	H 	0.1225	0.0068	0.0608	-0.033
Mof_C 	C 	0.3401	0.1387	0.9832	0.109
Mof_O 	O 	0.2105	0.8574	0.9707	-0.694
Mof_C 	C 	0.0951	0.9281	0.0965	-0.318
Mof_O 	O 	0.3996	0.151	0.0375	-0.249
Mof_C 	C 	0.1285	0.8295	0.07	-0.144
Mof_H 	H 	0.1311	0.7855	0.072	0.089
Mof_C 	C 	0.28	0.1322	0.9192	0.216
Mof_H 	H 	0.2612	0.1534	0.8972	-0.019
Mof_C 	C 	0.1184	0.9519	0.8871	0.404
Mof_C 	C 	0.1548	0.8646	0.0372	-0.024
Mof_C 	C 	0.1896	0.8233	0.0058	0.399
Mof_C 	C 	0.1532	0.9264	0.0325	-0.102
Mof_H 	H 	0.1714	0.9466	0.0094	0.038
Mof_C 	C 	0.0261	0.8487	0.9793	-0.096
Mof_C 	C 	0.9917	0.8072	0.0138	0.461
Mof_C 	C 	0.3409	0.0731	0.9812	-0.251
Mof_H 	H 	0.3605	0.0488	0.0004	0.132
Mof_C 	C 	0.2795	0.0689	0.9228	-0.425
Mof_C 	C 	0.0281	0.9199	0.9799	0.013
Mof_H 	H 	0.0102	0.9428	0.0017	-0.028
Mof_C 	C 	0.0871	0.917	0.9205	-0.141
Mof_C 	C 	0.3751	0.1789	0.0118	0.271
Mof_C 	C 	0.0869	0.852	0.9234	0.022
Mof_H 	H 	0.1071	0.8283	0.9045	-0.015
Mof_C 	C 	0.0552	0.95	0.9492	-0.026
Mof_H 	H 	0.0532	0.994	0.9465	0.046
Mof_C 	C 	0.0566	0.821	0.9545	-0.033
Mof_H 	H 	0.0589	0.777	0.9573	0.052
Mof_O 	O 	0.9737	0.8446	0.0468	-0.686
Mof_C 	C 	0.3103	0.0458	0.9483	0.321
Mof_H 	H 	0.3136	0.002	0.9448	-0.076
Mof_C 	C 	0.3126	0.1685	0.9525	-0.198
Mof_H 	H 	0.3131	0.2127	0.9512	0.124
Mof_O 	O 	0.1926	0.7676	0.0098	-0.338
Mof_Cd	Cd	0.67948	0.50151	0.81894	0.432
Mof_Na	Na	0.71733	0.37417	0.88453	3.718
Mof_O 	O 	0.5631	0.5231	0.1259	-0.898
Mof_O 	O 	0.7486	0.4723	0.894	-0.896
Mof_O 	O 	0.5355	0.4294	0.1542	-0.807
Mof_O 	O 	0.6137	0.5123	0.8819	-0.283
Mof_O 	O 	0.8752	0.7383	0.0066	-0.253
Mof_O 	O 	0.6473	0.4193	0.8627	-0.751
Mof_O 	O 	0.4872	0.2533	0.01	-0.353
Mof_O 	O 	0.7214	0.5579	0.8696	-0.489
Mof_C 	C 	0.5982	0.363	0.0997	0.141
Mof_H 	H 	0.5799	0.3411	0.1218	-0.059
Mof_C 	C 	0.7466	0.5325	0.8926	0.771
Mof_C 	C 	0.5635	0.4653	0.1267	0.658
Mof_C 	C 	0.6235	0.4627	0.0628	0.097
Mof_H 	H 	0.6225	0.5068	0.0608	-0.024
Mof_C 	C 	0.8401	0.6387	0.9832	0.111
Mof_O 	O 	0.7105	0.3574	0.9707	-0.694
Mof_C 	C 	0.5951	0.4281	0.0965	-0.308
Mof_O 	O 	0.8996	0.651	0.0375	-0.247
Mof_C 	C 	0.6285	0.3295	0.07	-0.137
Mof_H 	H 	0.6311	0.2855	0.072	0.087
Mof_C 	C 	0.78	0.6322	0.9192	0.219
Mof_H 	H 	0.7612	0.6534	0.8972	-0.02
Mof_C 	C 	0.6184	0.4519	0.8871	0.399
Mof_C 	C 	0.6548	0.3646	0.0372	-0.031
Mof_C 	C 	0.6896	0.3233	0.0058	0.401
Mof_C 	C 	0.6532	0.4264	0.0325	-0.091
Mof_H 	H 	0.6714	0.4466	0.0094	0.033
Mof_C 	C 	0.5261	0.3487	0.9793	-0.092
Mof_C 	C 	0.4917	0.3072	0.0138	0.457
Mof_C 	C 	0.8409	0.5731	0.9812	-0.252
Mof_H 	H 	0.8605	0.5488	0.0004	0.134
Mof_C 	C 	0.7795	0.5689	0.9228	-0.428
Mof_C 	C 	0.5281	0.4199	0.9799	0.011
Mof_H 	H 	0.5102	0.4428	0.0017	-0.027
Mof_C 	C 	0.5871	0.417	0.9205	-0.14
Mof_C 	C 	0.8751	0.6789	0.0118	0.271
Mof_C 	C 	0.5869	0.352	0.9234	0.023
Mof_H 	H 	0.6071	0.3283	0.9045	-0.016
Mof_C 	C 	0.5552	0.45	0.9492	-0.025
Mof_H 	H 	0.5532	0.494	0.9465	0.045
Mof_C 	C 	0.5566	0.321	0.9545	-0.036
Mof_H 	H 	0.5589	0.277	0.9573	0.054
Mof_O 	O 	0.4737	0.3446	0.0468	-0.685
Mof_C 	C 	0.8103	0.5458	0.9483	0.324
Mof_H 	H 	0.8136	0.502	0.9448	-0.075
Mof_C 	C 	0.8126	0.6685	0.9525	-0.2
Mof_H 	H 	0.8131	0.7127	0.9512	0.125
Mof_O 	O 	0.6926	0.2676	0.0098	-0.339
Mof_Cd	Cd	0.67948	0.00151	0.31894	0.427
Mof_Na	Na	0.71733	0.87417	0.38453	3.719
Mof_O 	O 	0.5631	0.0231	0.6259	-0.903
Mof_O 	O 	0.7486	0.9723	0.394	-0.893
Mof_O 	O 	0.5355	0.9294	0.6542	-0.807
Mof_O 	O 	0.6137	0.0123	0.3819	-0.289
Mof_O 	O 	0.8752	0.2383	0.5066	-0.251
Mof_O 	O 	0.6473	0.9193	0.3627	-0.752
Mof_O 	O 	0.4872	0.7533	0.51	-0.351
Mof_O 	O 	0.7214	0.0579	0.3696	-0.49
Mof_C 	C 	0.5982	0.863	0.5997	0.148
Mof_H 	H 	0.5799	0.8411	0.6218	-0.062
Mof_C 	C 	0.7466	0.0325	0.3926	0.769
Mof_C 	C 	0.5635	0.9653	0.6267	0.667
Mof_C 	C 	0.6235	0.9627	0.5628	0.114
Mof_H 	H 	0.6225	0.0068	0.5608	-0.031
Mof_C 	C 	0.8401	0.1387	0.4832	0.112
Mof_O 	O 	0.7105	0.8574	0.4707	-0.701
Mof_C 	C 	0.5951	0.9281	0.5965	-0.316
Mof_O 	O 	0.8996	0.151	0.5375	-0.247
Mof_C 	C 	0.6285	0.8295	0.57	-0.142
Mof_H 	H 	0.6311	0.7855	0.572	0.09
Mof_C 	C 	0.78	0.1322	0.4192	0.224
Mof_H 	H 	0.7612	0.1534	0.3972	-0.022
Mof_C 	C 	0.6184	0.9519	0.3871	0.407
Mof_C 	C 	0.6548	0.8646	0.5372	-0.024
Mof_C 	C 	0.6896	0.8233	0.5058	0.409
Mof_C 	C 	0.6532	0.9264	0.5325	-0.099
Mof_H 	H 	0.6714	0.9466	0.5094	0.04
Mof_C 	C 	0.5261	0.8487	0.4793	-0.09
Mof_C 	C 	0.4917	0.8072	0.5138	0.462
Mof_C 	C 	0.8409	0.0731	0.4812	-0.277
Mof_H 	H 	0.8605	0.0488	0.5004	0.147
Mof_C 	C 	0.7795	0.0689	0.4228	-0.438
Mof_C 	C 	0.5281	0.9199	0.4799	-0.014
Mof_H 	H 	0.5102	0.9428	0.5017	-0.011
Mof_C 	C 	0.5871	0.917	0.4205	-0.15
Mof_C 	C 	0.8751	0.1789	0.5118	0.275
Mof_C 	C 	0.5869	0.852	0.4234	0.029
Mof_H 	H 	0.6071	0.8283	0.4045	-0.018
Mof_C 	C 	0.5552	0.95	0.4492	-0.009
Mof_H 	H 	0.5532	0.994	0.4465	0.039
Mof_C 	C 	0.5566	0.821	0.4545	-0.042
Mof_H 	H 	0.5589	0.777	0.4573	0.053
Mof_O 	O 	0.4737	0.8446	0.5468	-0.685
Mof_C 	C 	0.8103	0.0458	0.4483	0.34
Mof_H 	H 	0.8136	0.002	0.4448	-0.084
Mof_C 	C 	0.8126	0.1685	0.4525	-0.204
Mof_H 	H 	0.8131	0.2127	0.4512	0.124
Mof_O 	O 	0.6926	0.7676	0.5098	-0.336
Mof_Cd	Cd	2.21108e-33	0	0.20471	0.284
Mof_Cd	Cd	8.4457e-33	0.5	0.70471	0.289
Mof_Cd	Cd	0.5	0	0.70471	0.288
Mof_Cd	Cd	0.5	0.5	0.20471	0.292
Mof_Cd	Cd	0.25	0.25	0.45471	0.292
Mof_Cd	Cd	0.25	0.75	0.95471	0.298
Mof_Cd	Cd	0.75	0.25	0.95471	0.298
Mof_Cd	Cd	0.75	0.75	0.45471	0.292
_end
