data_functionalizedCrystal
_audit_creation_method	'EQeq! by Chris Wilmer'
_symmetry_space_group_name_H-M	'P1'
_symmetry_Int_Tables_number	1
_symmetry_cell_setting	triclinic
loop_
_symmetry_equiv_pos_as_xyz
  x,y,z
_cell_length_a	17.0497
_cell_length_b	17.0497
_cell_length_c	24.908
_cell_angle_alpha	120.071
_cell_angle_beta	120.071
_cell_angle_gamma	50.5976
loop_
_atom_site_label
_atom_site_type_symbol
_atom_site_fract_x
_atom_site_fract_y
_atom_site_fract_z
_atom_site_charge
Mof_O 	O 	0.53154	0.19274	0.1468	-0.611
Mof_O 	O 	0.69492	0.07652	0.1097	-0.649
Mof_O 	O 	0.4468	0.49	0.1745	-0.202
Mof_O 	O 	0.53593	0.22413	0.0614	-0.557
Mof_O 	O 	0.39062	0.16822	0.0292	-0.72
Mof_O 	O 	0.60028	0.97988	0.0977	-0.699
Mof_O 	O 	0.60042	0.01662	0.98	-0.714
Mof_O 	O 	0.7729	0.8753	0.0529	-0.503
Mof_O 	O 	0.72169	0.11149	0.0213	-0.71
Mof_O 	O 	0.42129	0.19249	0.9401	-0.481
Mof_O 	O 	0.3525	0.3787	0.1065	-0.609
Mof_O 	O 	0.41654	0.13514	0.1387	-0.479
Mof_O 	O 	0.7147	0.0593	0.2234	-1.001
Mof_O 	O 	0.7999	0.8353	0.1614	-0.515
Mof_O 	O 	0.8002	0.8906	0.9553	-0.465
Mof_O 	O 	0.5956	0.0764	0.8898	-0.504
Mof_O 	O 	0.2286	0.341	0.9751	-0.457
Mof_O 	O 	0.226	0.3094	0.0925	-0.492
Mof_O 	O 	0.5931	0.9849	0.2115	-0.456
Mof_O 	O 	0.3719	0.3417	0.2082	-0.446
Mof_O 	O 	0.5325	0.1973	0.261	-0.549
Mof_O 	O 	0.4243	0.3743	0.3258	-0.455
Mof_O 	O 	0.5397	0.3507	0.2771	-0.646
Mof_O 	O 	0.645	0.2636	0.1784	-0.865
Mof_O 	O 	0.8877	0.9381	0.1753	-0.514
Mof_O 	O 	0.8907	0.9627	0.0845	-0.476
Mof_O 	O 	0.0496	0.9126	0.1758	-0.485
Mof_O 	O 	0.37342	0.39902	0.013	-0.425
Mof_O 	O 	0.4136	0.4616	0.9636	-0.474
Mof_O 	O 	0.53979	0.27859	0.9757	-0.479
Mof_O 	O 	0.52243	0.43483	0.0736	-0.481
Mof_O 	O 	0.8952	0.0934	0.1945	-0.676
Mof_P 	P 	0.60321	0.19223	0.12555	0.675
Mof_P 	P 	0.46291	0.39241	0.00625	0.558
Mof_P 	P 	0.46913	0.31755	0.26889	0.597
Mof_P 	P 	0.93071	0.97691	0.15769	0.689
Mof_Mo	Mo	0.35405	0.26769	0.11144	1.687
Mof_Mo	Mo	0.57973	0.06705	0.18489	1.573
Mof_Mo	Mo	0.35602	0.29486	0.01822	1.625
Mof_Mo	Mo	0.58378	0.13044	0.96514	1.691
Mof_Mo	Mo	0.74899	0.98077	0.01788	1.673
Mof_Mo	Mo	0.74723	0.94621	0.14469	1.793
Mof_N 	N 	0.317	0.6206	0.4013	-0.26
Mof_N 	N 	0.1603	0.7525	0.3803	-0.193
Mof_H 	H 	0.093	0.792	0.3743	0.126
Mof_N 	N 	0.2814	0.8402	0.2709	-0.278
Mof_N 	N 	0.4466	0.7758	0.284	-0.224
Mof_H 	H 	0.512	0.7298	0.2852	0.172
Mof_C 	C 	0.2146	0.6442	0.372	0.093
Mof_H 	H 	0.1879	0.5995	0.3518	0.013
Mof_C 	C 	0.3237	0.7013	0.4106	0.003
Mof_H 	H 	0.3865	0.6987	0.4231	0.044
Mof_C 	C 	0.2219	0.7905	0.3986	0.007
Mof_H 	H 	0.2027	0.8573	0.4023	0.047
Mof_C 	C 	0.3693	0.7569	0.262	0.166
Mof_H 	H 	0.3786	0.6896	0.242	-0.03
Mof_C 	C 	0.2946	0.924	0.2951	0.001
Mof_H 	H 	0.2425	0.9949	0.3038	0.053
Mof_C 	C 	0.4002	0.8844	0.3044	0.051
Mof_H 	H 	0.4325	0.9229	0.3208	0.056
Mof_Na	Na	0.72543	0.21023	0.29401	2.638
Mof_Zn	Zn	0.43896	0.47748	0.40729	1.217
Mof_O 	O 	0.80726	0.46846	0.3532	-0.616
Mof_O 	O 	0.92348	0.30508	0.3903	-0.608
Mof_O 	O 	0.51	0.5532	0.3255	-0.202
Mof_O 	O 	0.77587	0.46407	0.4386	-0.552
Mof_O 	O 	0.83178	0.60938	0.4708	-0.714
Mof_O 	O 	0.02012	0.39972	0.4023	-0.729
Mof_O 	O 	0.98338	0.39958	0.52	-0.688
Mof_O 	O 	0.1247	0.2271	0.4471	-0.489
Mof_O 	O 	0.88851	0.27831	0.4787	-0.672
Mof_O 	O 	0.80751	0.57871	0.5599	-0.489
Mof_O 	O 	0.6213	0.6475	0.3935	-0.613
Mof_O 	O 	0.86486	0.58346	0.3613	-0.475
Mof_O 	O 	0.9407	0.2853	0.2766	-0.985
Mof_O 	O 	0.1647	0.2001	0.3386	-0.513
Mof_O 	O 	0.1094	0.1998	0.5447	-0.492
Mof_O 	O 	0.9236	0.4044	0.6102	-0.488
Mof_O 	O 	0.659	0.7714	0.5249	-0.471
Mof_O 	O 	0.6906	0.774	0.4075	-0.479
Mof_O 	O 	0.0151	0.4069	0.2885	-0.515
Mof_O 	O 	0.6583	0.6281	0.2918	-0.445
Mof_O 	O 	0.8027	0.4675	0.239	-0.558
Mof_O 	O 	0.6257	0.5757	0.1742	-0.453
Mof_O 	O 	0.6493	0.4603	0.2229	-0.648
Mof_O 	O 	0.7364	0.355	0.3216	-0.864
Mof_O 	O 	0.0619	0.1123	0.3247	-0.521
Mof_O 	O 	0.0373	0.1093	0.4155	-0.482
Mof_O 	O 	0.0874	0.9504	0.3242	-0.454
Mof_O 	O 	0.60098	0.62658	0.487	-0.423
Mof_O 	O 	0.5384	0.5864	0.5364	-0.491
Mof_O 	O 	0.72141	0.46021	0.5243	-0.497
Mof_O 	O 	0.56517	0.47757	0.4264	-0.482
Mof_O 	O 	0.9066	0.1048	0.3055	-0.65
Mof_P 	P 	0.80777	0.39679	0.37445	0.673
Mof_P 	P 	0.60759	0.53709	0.49375	0.587
Mof_P 	P 	0.68245	0.53087	0.23111	0.599
Mof_P 	P 	0.02309	0.06929	0.34231	0.616
Mof_Mo	Mo	0.73231	0.64595	0.38856	1.687
Mof_Mo	Mo	0.93295	0.42027	0.31511	1.702
Mof_Mo	Mo	0.70514	0.64398	0.48178	1.671
Mof_Mo	Mo	0.86956	0.41622	0.53486	1.676
Mof_Mo	Mo	0.01923	0.25101	0.48212	1.605
Mof_Mo	Mo	0.05379	0.25277	0.35531	1.694
Mof_N 	N 	0.3794	0.683	0.0987	-0.261
Mof_N 	N 	0.2475	0.8397	0.1197	-0.193
Mof_H 	H 	0.208	0.907	0.1257	0.128
Mof_N 	N 	0.1598	0.7186	0.2291	-0.281
Mof_N 	N 	0.2242	0.5534	0.216	-0.224
Mof_H 	H 	0.2702	0.488	0.2148	0.17
Mof_C 	C 	0.3558	0.7854	0.128	0.092
Mof_H 	H 	0.4005	0.8121	0.1482	0.015
Mof_C 	C 	0.2987	0.6763	0.0894	-0.001
Mof_H 	H 	0.3013	0.6135	0.0769	0.04
Mof_C 	C 	0.2095	0.7781	0.1014	0.006
Mof_H 	H 	0.1427	0.7973	0.0977	0.039
Mof_C 	C 	0.2431	0.6307	0.238	0.165
Mof_H 	H 	0.3104	0.6214	0.258	-0.029
Mof_C 	C 	0.076	0.7054	0.2049	-0.001
Mof_H 	H 	0.0051	0.7575	0.1962	0.037
Mof_C 	C 	0.1156	0.5998	0.1956	0.045
Mof_H 	H 	0.0771	0.5675	0.1792	0.047
Mof_Na	Na	0.78977	0.27457	0.20599	2.641
Mof_Zn	Zn	0.52252	0.56104	0.09271	1.216
Mof_O 	O 	0.46846	0.80726	0.8532	-0.616
Mof_O 	O 	0.30508	0.92348	0.8903	-0.607
Mof_O 	O 	0.5532	0.51	0.8255	-0.202
Mof_O 	O 	0.46407	0.77587	0.9386	-0.546
Mof_O 	O 	0.60938	0.83178	0.9708	-0.704
Mof_O 	O 	0.39972	0.02012	0.9023	-0.724
Mof_O 	O 	0.39958	0.98338	0.02	-0.698
Mof_O 	O 	0.2271	0.1247	0.9471	-0.484
Mof_O 	O 	0.27831	0.88851	0.9787	-0.659
Mof_O 	O 	0.57871	0.80751	0.0599	-0.5
Mof_O 	O 	0.6475	0.6213	0.8935	-0.617
Mof_O 	O 	0.58346	0.86486	0.8613	-0.472
Mof_O 	O 	0.2853	0.9407	0.7766	-0.984
Mof_O 	O 	0.2001	0.1647	0.8386	-0.51
Mof_O 	O 	0.1998	0.1094	0.0447	-0.511
Mof_O 	O 	0.4044	0.9236	0.1102	-0.482
Mof_O 	O 	0.7714	0.659	0.0249	-0.498
Mof_O 	O 	0.774	0.6906	0.9075	-0.472
Mof_O 	O 	0.4069	0.0151	0.7885	-0.518
Mof_O 	O 	0.6281	0.6583	0.7918	-0.444
Mof_O 	O 	0.4675	0.8027	0.739	-0.558
Mof_O 	O 	0.5757	0.6257	0.6742	-0.452
Mof_O 	O 	0.4603	0.6493	0.7229	-0.648
Mof_O 	O 	0.355	0.7364	0.8216	-0.865
Mof_O 	O 	0.1123	0.0619	0.8247	-0.521
Mof_O 	O 	0.1093	0.0373	0.9155	-0.484
Mof_O 	O 	0.9504	0.0874	0.8242	-0.454
Mof_O 	O 	0.62658	0.60098	0.987	-0.424
Mof_O 	O 	0.5864	0.5384	0.0364	-0.51
Mof_O 	O 	0.46021	0.72141	0.0243	-0.512
Mof_O 	O 	0.47757	0.56517	0.9264	-0.483
Mof_O 	O 	0.1048	0.9066	0.8055	-0.649
Mof_P 	P 	0.39679	0.80777	0.87445	0.674
Mof_P 	P 	0.53709	0.60759	0.99375	0.619
Mof_P 	P 	0.53087	0.68245	0.73111	0.599
Mof_P 	P 	0.06929	0.02309	0.84231	0.615
Mof_Mo	Mo	0.64595	0.73231	0.88856	1.682
Mof_Mo	Mo	0.42027	0.93295	0.81511	1.712
Mof_Mo	Mo	0.64398	0.70514	0.98178	1.725
Mof_Mo	Mo	0.41622	0.86956	0.03486	1.636
Mof_Mo	Mo	0.25101	0.01923	0.98212	1.652
Mof_Mo	Mo	0.25277	0.05379	0.85531	1.687
Mof_N 	N 	0.683	0.3794	0.5987	-0.26
Mof_N 	N 	0.8397	0.2475	0.6197	-0.194
Mof_H 	H 	0.907	0.208	0.6257	0.13
Mof_N 	N 	0.7186	0.1598	0.7291	-0.281
Mof_N 	N 	0.5534	0.2242	0.716	-0.223
Mof_H 	H 	0.488	0.2702	0.7148	0.17
Mof_C 	C 	0.7854	0.3558	0.628	0.094
Mof_H 	H 	0.8121	0.4005	0.6482	0.015
Mof_C 	C 	0.6763	0.2987	0.5894	0.001
Mof_H 	H 	0.6135	0.3013	0.5769	0.042
Mof_C 	C 	0.7781	0.2095	0.6014	0.008
Mof_H 	H 	0.7973	0.1427	0.5977	0.04
Mof_C 	C 	0.6307	0.2431	0.738	0.165
Mof_H 	H 	0.6214	0.3104	0.758	-0.029
Mof_C 	C 	0.7054	0.076	0.7049	-0
Mof_H 	H 	0.7575	0.0051	0.6962	0.036
Mof_C 	C 	0.5998	0.1156	0.6956	0.045
Mof_H 	H 	0.5675	0.0771	0.6792	0.048
Mof_Na	Na	0.27457	0.78977	0.70599	2.648
Mof_Zn	Zn	0.56104	0.52252	0.59271	1.218
Mof_O 	O 	0.19274	0.53154	0.6468	-0.611
Mof_O 	O 	0.07652	0.69492	0.6097	-0.653
Mof_O 	O 	0.49	0.4468	0.6745	-0.202
Mof_O 	O 	0.22413	0.53593	0.5614	-0.553
Mof_O 	O 	0.16822	0.39062	0.5292	-0.721
Mof_O 	O 	0.97988	0.60028	0.5977	-0.699
Mof_O 	O 	0.01662	0.60042	0.48	-0.732
Mof_O 	O 	0.8753	0.7729	0.5529	-0.501
Mof_O 	O 	0.11149	0.72169	0.5213	-0.703
Mof_O 	O 	0.19249	0.42129	0.4401	-0.49
Mof_O 	O 	0.3787	0.3525	0.6065	-0.614
Mof_O 	O 	0.13514	0.41654	0.6387	-0.479
Mof_O 	O 	0.0593	0.7147	0.7234	-1.002
Mof_O 	O 	0.8353	0.7999	0.6614	-0.512
Mof_O 	O 	0.8906	0.8002	0.4553	-0.493
Mof_O 	O 	0.0764	0.5956	0.3898	-0.497
Mof_O 	O 	0.341	0.2286	0.4751	-0.481
Mof_O 	O 	0.3094	0.226	0.5925	-0.487
Mof_O 	O 	0.9849	0.5931	0.7115	-0.455
Mof_O 	O 	0.3417	0.3719	0.7082	-0.445
Mof_O 	O 	0.1973	0.5325	0.761	-0.548
Mof_O 	O 	0.3743	0.4243	0.8258	-0.454
Mof_O 	O 	0.3507	0.5397	0.7771	-0.646
Mof_O 	O 	0.2636	0.645	0.6784	-0.867
Mof_O 	O 	0.9381	0.8877	0.6753	-0.513
Mof_O 	O 	0.9627	0.8907	0.5845	-0.479
Mof_O 	O 	0.9126	0.0496	0.6758	-0.487
Mof_O 	O 	0.39902	0.37342	0.513	-0.426
Mof_O 	O 	0.4616	0.4136	0.4636	-0.493
Mof_O 	O 	0.27859	0.53979	0.4757	-0.494
Mof_O 	O 	0.43483	0.52243	0.5736	-0.482
Mof_O 	O 	0.0934	0.8952	0.6945	-0.676
Mof_P 	P 	0.19223	0.60321	0.62555	0.676
Mof_P 	P 	0.39241	0.46291	0.50625	0.587
Mof_P 	P 	0.31755	0.46913	0.76889	0.597
Mof_P 	P 	0.97691	0.93071	0.65769	0.693
Mof_Mo	Mo	0.26769	0.35405	0.61144	1.683
Mof_Mo	Mo	0.06705	0.57973	0.68489	1.573
Mof_Mo	Mo	0.29486	0.35602	0.51822	1.671
Mof_Mo	Mo	0.13044	0.58378	0.46514	1.653
Mof_Mo	Mo	0.98077	0.74899	0.51788	1.736
Mof_Mo	Mo	0.94621	0.74723	0.64469	1.796
Mof_N 	N 	0.6206	0.317	0.9013	-0.259
Mof_N 	N 	0.7525	0.1603	0.8803	-0.192
Mof_H 	H 	0.792	0.093	0.8743	0.128
Mof_N 	N 	0.8402	0.2814	0.7709	-0.278
Mof_N 	N 	0.7758	0.4466	0.784	-0.223
Mof_H 	H 	0.7298	0.512	0.7852	0.172
Mof_C 	C 	0.6442	0.2146	0.872	0.094
Mof_H 	H 	0.5995	0.1879	0.8518	0.012
Mof_C 	C 	0.7013	0.3237	0.9106	0.006
Mof_H 	H 	0.6987	0.3865	0.9231	0.046
Mof_C 	C 	0.7905	0.2219	0.8986	0.009
Mof_H 	H 	0.8573	0.2027	0.9023	0.049
Mof_C 	C 	0.7569	0.3693	0.762	0.167
Mof_H 	H 	0.6896	0.3786	0.742	-0.03
Mof_C 	C 	0.924	0.2946	0.7951	0.002
Mof_H 	H 	0.9949	0.2425	0.8038	0.054
Mof_C 	C 	0.8844	0.4002	0.8044	0.051
Mof_H 	H 	0.9229	0.4325	0.8208	0.058
Mof_Na	Na	0.21023	0.72543	0.79401	2.646
Mof_Zn	Zn	0.47748	0.43896	0.90729	1.218
Mof_Mn	Mn	0.5	0	-0	1.154
Mof_Mn	Mn	-0	0.5	0.5	1.182
Mof_Mn	Mn	0.58248	0.41752	0.25	0.702
Mof_Zn	Zn	0.14334	0.85666	0.25	1.212
Mof_Mn	Mn	0.41752	0.58248	0.75	0.701
Mof_Zn	Zn	0.85666	0.14334	0.75	1.212
_end
