data_functionalizedCrystal
_audit_creation_method	'EQeq! by Chris Wilmer'
_symmetry_space_group_name_H-M	'P1'
_symmetry_Int_Tables_number	1
_symmetry_cell_setting	triclinic
loop_
_symmetry_equiv_pos_as_xyz
  x,y,z
_cell_length_a	15.698
_cell_length_b	15.698
_cell_length_c	18.557
_cell_angle_alpha	90
_cell_angle_beta	90
_cell_angle_gamma	120
loop_
_atom_site_label
_atom_site_type_symbol
_atom_site_fract_x
_atom_site_fract_y
_atom_site_fract_z
_atom_site_charge
Mof_Ni	Ni	5.16002e-17	0.82207	0.83333	1.073
Mof_Ni	Ni	0.82207	0	0.5	1.074
Mof_Ni	Ni	0.17793	0.17793	0.16667	1.078
Mof_H 	H 	0.4956	0.9341	0.596	0.095
Mof_H 	H 	0.805	0.6544	0.88627	0.051
Mof_H 	H 	0.602	0.7023	0.34907	0.104
Mof_H 	H 	0.1003	0.398	0.01573	0.101
Mof_H 	H 	0.4999	0.5406	0.60973	0.128
Mof_H 	H 	0.0457	0.1503	0.91453	0.087
Mof_H 	H 	0.2977	0.8997	0.6824	0.103
Mof_H 	H 	0.9593	0.4594	0.39027	0.117
Mof_H 	H 	0.9341	0.4956	0.73733	0.095
Mof_H 	H 	0.5044	0.4385	0.07067	0.102
Mof_H 	H 	0.7023	0.602	0.98427	0.104
Mof_H 	H 	0.9351	0.6408	0.73983	0.018
Mof_H 	H 	0.0407	0.5001	0.2764	0.143
Mof_H 	H 	0.1037	0.1089	0.01373	0.01
Mof_H 	H 	0.1506	0.3456	0.11373	0.051
Mof_H 	H 	0.9948	0.8911	0.98627	0.031
Mof_H 	H 	0.3592	0.2943	0.07317	0.017
Mof_H 	H 	0.6408	0.9351	0.5935	0.018
Mof_H 	H 	0.0659	0.5615	0.92933	0.095
Mof_H 	H 	0.1046	0.9543	0.5812	0.094
Mof_H 	H 	0.8954	0.8497	0.08547	0.1
Mof_H 	H 	0.9543	0.1046	0.75213	0.094
Mof_H 	H 	0.195	0.8494	0.7804	0.05
Mof_H 	H 	0.8911	0.9948	0.34707	0.031
Mof_H 	H 	0.4594	0.9593	0.94307	0.118
Mof_H 	H 	0.5615	0.0659	0.404	0.096
Mof_H 	H 	0.2943	0.3592	0.26017	0.017
Mof_H 	H 	0.8494	0.195	0.55293	0.05
Mof_H 	H 	0.1503	0.0457	0.4188	0.087
Mof_H 	H 	0.8497	0.8954	0.24787	0.101
Mof_H 	H 	0.0052	0.8963	0.6804	0.01
Mof_H 	H 	0.7057	0.0649	0.4065	0.018
Mof_H 	H 	0.5001	0.0407	0.05693	0.141
Mof_H 	H 	0.3456	0.1506	0.2196	0.05
Mof_H 	H 	0.8963	0.0052	0.65293	0.01
Mof_H 	H 	0.8997	0.2977	0.65093	0.104
Mof_H 	H 	0.0649	0.7057	0.92683	0.017
Mof_H 	H 	0.1089	0.1037	0.3196	0.011
Mof_H 	H 	0.4385	0.5044	0.26267	0.102
Mof_H 	H 	0.398	0.1003	0.3176	0.101
Mof_H 	H 	0.5406	0.4999	0.7236	0.128
Mof_H 	H 	0.6544	0.805	0.44707	0.052
Mof_C 	C 	0.962	0.6245	0.77849	0.108
Mof_C 	C 	0.0218	0.4402	0.2987	-0.202
Mof_C 	C 	0.333	0.9646	0.93207	0.377
Mof_C 	C 	0.2651	0.9817	0.9652	-0.115
Mof_C 	C 	0.2103	0.0364	0.07714	0.393
Mof_C 	C 	0.1305	0.3066	0.07255	0.074
Mof_C 	C 	0.1022	0.1674	0.01426	0.081
Mof_C 	C 	0.7166	0.7349	0.63186	-0.136
Mof_C 	C 	0.0183	0.2834	0.29853	-0.17
Mof_C 	C 	0.5375	0.961	0.5567	-0.105
Mof_C 	C 	0.2387	0.9001	0.68086	-0.11
Mof_C 	C 	0.9316	0.1238	0.71258	-0.12
Mof_C 	C 	0.0333	0.3107	0.88857	0.106
Mof_C 	C 	0.6625	0.038	0.44516	0.083
Mof_C 	C 	0.8239	0.6934	0.92745	0.082
Mof_C 	C 	0.039	0.5765	0.89003	-0.126
Mof_C 	C 	0.9348	0.8326	0.98574	0.079
Mof_C 	C 	0.8978	0.0652	0.6524	0.08
Mof_C 	C 	0.5118	0	0.5	0.049
Mof_C 	C 	0.961	0.5375	0.77663	-0.105
Mof_C 	C 	0.038	0.6625	0.88817	0.083
Mof_C 	C 	0.1739	0.9636	0.92286	0.428
Mof_C 	C 	0.667	0.6316	0.7346	0.395
Mof_C 	C 	0.9667	0.2774	0.77809	0.129
Mof_C 	C 	-5.81323e-18	0.5118	0.83333	0.049
Mof_C 	C 	0.4235	0.4625	0.22337	-0.137
Mof_C 	C 	0.0652	0.8978	0.68093	0.08
Mof_C 	C 	0.0999	0.3386	0.01419	-0.108
Mof_C 	C 	0.5765	0.039	0.4433	-0.126
Mof_C 	C 	0.1238	0.9316	0.62075	-0.119
Mof_C 	C 	0.3107	0.0333	0.44476	0.106
Mof_C 	C 	0.3755	0.3375	0.11183	0.095
Mof_C 	C 	0.0684	0.1922	0.95408	-0.125
Mof_C 	C 	0.9001	0.2387	0.65247	-0.11
Mof_C 	C 	0.4184	0.9782	0.96537	-0.102
Mof_C 	C 	0.1761	0.8695	0.73922	0.077
Mof_C 	C 	0.7897	0.8261	0.58952	0.409
Mof_C 	C 	0.3066	0.1305	0.26078	0.075
Mof_C 	C 	0.9817	0.2651	0.36814	-0.109
Mof_C 	C 	0.2114	0.9314	0.61994	0.061
Mof_C 	C 	0.8762	0.8078	0.04592	-0.113
Mof_C 	C 	-5.81323e-18	0.4169	0.83333	0.094
Mof_C 	C 	0.2774	0.9667	0.55524	0.129
Mof_C 	C 	0.3375	0.3755	0.22151	0.095
Mof_C 	C 	0.6893	0.7226	0.22191	0.113
Mof_C 	C 	0.4882	0.4882	0.16667	0.08
Mof_C 	C 	0.3684	0.0354	0.06793	0.413
Mof_C 	C 	0.7886	0.72	0.04673	0.069
Mof_C 	C 	0.6316	0.667	0.59873	0.395
Mof_C 	C 	0.6245	0.962	0.55484	0.108
Mof_C 	C 	0.9782	0.4184	0.36797	-0.095
Mof_C 	C 	0.28	0.0686	0.38006	0.061
Mof_C 	C 	0.6614	0.7613	0.34753	-0.111
Mof_C 	C 	0.9636	0.1739	0.41048	0.428
Mof_C 	C 	0.8078	0.8762	0.28742	-0.117
Mof_C 	C 	0.5831	0.5831	0.16667	0.107
Mof_C 	C 	0.9314	0.2114	0.71339	0.061
Mof_C 	C 	0.7226	0.6893	0.11143	0.113
Mof_C 	C 	0.2834	0.0183	0.0348	-0.165
Mof_C 	C 	0.7349	0.7166	0.70147	-0.136
Mof_C 	C 	0.8326	0.9348	0.3476	0.084
Mof_C 	C 	0.3386	0.0999	0.31914	-0.113
Mof_C 	C 	0.4625	0.4235	0.10997	-0.137
Mof_C 	C 	0.6934	0.8239	0.40589	0.081
Mof_C 	C 	0.1922	0.0684	0.37925	-0.122
Mof_C 	C 	0.0354	0.3684	0.2654	0.417
Mof_C 	C 	0.8261	0.7897	0.74381	0.409
Mof_C 	C 	0.9646	0.333	0.40127	0.374
Mof_C 	C 	0.4169	0	0.5	0.094
Mof_C 	C 	0.7613	0.6614	0.98581	-0.115
Mof_C 	C 	0.72	0.7886	0.28661	0.067
Mof_C 	C 	0.0686	0.28	0.95327	0.058
Mof_C 	C 	0.1674	0.1022	0.31907	0.077
Mof_C 	C 	0.0364	0.2103	0.25619	0.398
Mof_C 	C 	0.5598	0.5816	0.63203	-0.149
Mof_C 	C 	0.8695	0.1761	0.59411	0.077
Mof_C 	C 	0.4402	0.0218	0.03463	-0.196
Mof_C 	C 	0.5816	0.5598	0.7013	-0.149
Mof_N 	N 	-5.81323e-18	0.6881	0.83333	-0.235
Mof_N 	N 	0.08994	0.86699	0.74018	-0.227
Mof_N 	N 	0.77705	0.91006	0.40685	-0.217
Mof_N 	N 	0.91006	0.77705	0.92649	-0.217
Mof_N 	N 	0.3119	0.3119	0.16667	-0.224
Mof_N 	N 	0.86699	0.08994	0.59315	-0.227
Mof_N 	N 	0.39548	0.03504	0.4418	-0.136
Mof_N 	N 	0.36044	0.96496	0.5582	-0.127
Mof_N 	N 	0.6881	0	0.5	-0.235
Mof_N 	N 	-5.81323e-18	0.2476	0.83333	-0.152
Mof_N 	N 	0.96496	0.36044	0.77513	-0.127
Mof_N 	N 	0.63956	0.60452	0.10847	-0.135
Mof_N 	N 	0.22295	0.13301	0.25982	-0.226
Mof_N 	N 	0.7524	0.7524	0.16667	-0.135
Mof_N 	N 	0.60452	0.63956	0.22487	-0.136
Mof_N 	N 	0.2476	0	0.5	-0.152
Mof_N 	N 	0.03504	0.39548	0.89153	-0.137
Mof_N 	N 	0.13301	0.22295	0.07351	-0.226
Mof_O 	O 	0.12049	0.24403	0.23039	-0.406
Mof_O 	O 	0.8744	0.8443	0.58513	-0.283
Mof_O 	O 	0.1256	0.9699	0.08153	-0.281
Mof_O 	O 	0.0301	0.1557	0.41487	-0.322
Mof_O 	O 	0.87951	0.12354	0.43628	-0.414
Mof_O 	O 	0.9699	0.1256	0.2518	-0.287
Mof_O 	O 	0.1557	0.0301	0.91847	-0.323
Mof_O 	O 	0.87646	0.75597	0.76961	-0.396
Mof_O 	O 	0.75597	0.87646	0.56372	-0.396
Mof_O 	O 	0.24403	0.12049	0.10294	-0.405
Mof_O 	O 	0.8443	0.8744	0.7482	-0.283
Mof_O 	O 	0.12354	0.87951	0.89706	-0.415
Mof_F 	F 	0.3921	0.0658	0.13453	-0.482
Mof_F 	F 	0.6079	0.6737	0.53213	-0.475
Mof_F 	F 	0.6737	0.6079	0.8012	-0.475
Mof_F 	F 	0.0658	0.3921	0.1988	-0.482
Mof_F 	F 	0.3263	0.9342	0.86547	-0.47
Mof_F 	F 	0.9342	0.3263	0.46787	-0.469
_end
