data_functionalizedCrystal
_audit_creation_method	'EQeq! by Chris Wilmer'
_symmetry_space_group_name_H-M	'P1'
_symmetry_Int_Tables_number	1
_symmetry_cell_setting	triclinic
loop_
_symmetry_equiv_pos_as_xyz
  x,y,z
_cell_length_a	26.8901
_cell_length_b	26.8901
_cell_length_c	13.2591
_cell_angle_alpha	90
_cell_angle_beta	90
_cell_angle_gamma	90
loop_
_atom_site_label
_atom_site_type_symbol
_atom_site_fract_x
_atom_site_fract_y
_atom_site_fract_z
_atom_site_charge
Mof_Ti	Ti	0.30573	0.77418	0.67871	1.373
Mof_O 	O 	0.3225	0.8257	0.5809	-0.506
Mof_N 	N 	0.2367	0.7732	0.5898	-0.243
Mof_H 	H 	0.2117	0.7538	0.6297	0.035
Mof_N 	N 	0.3208	0.7162	0.5589	-0.221
Mof_H 	H 	0.3437	0.731	0.5077	0.072
Mof_O 	O 	0.3722	0.7625	0.7095	-0.51
Mof_C 	C 	0.2743	0.7008	0.5066	0.027
Mof_H 	H 	0.2559	0.6775	0.5521	-0
Mof_C 	C 	0.3458	0.6715	0.6036	-0.052
Mof_H 	H 	0.3519	0.6472	0.549	0.057
Mof_H 	H 	0.3226	0.6559	0.6521	0.045
Mof_C 	C 	0.30286	0.9107	0.3729	0.084
Mof_H 	H 	0.3215	0.9299	0.326	-0.034
Mof_C 	C 	0.32723	0.882	0.4447	-0.31
Mof_C 	C 	0.29993	0.85402	0.5132	0.303
Mof_C 	C 	0.24827	0.8547	0.5099	-0.141
Mof_C 	C 	0.2239	0.8834	0.4381	0.01
Mof_H 	H 	0.1886	0.8839	0.4359	0.023
Mof_C 	C 	0.2512	0.9114	0.3696	-0.078
Mof_C 	C 	0.4276	0.64177	0.6613	-0.093
Mof_H 	H 	0.4202	0.6118	0.6265	0.082
Mof_C 	C 	0.4715	0.646	0.716	0.105
Mof_C 	C 	0.48229	0.6899	0.7669	-0.025
Mof_H 	H 	0.5123	0.6927	0.8043	0.029
Mof_C 	C 	0.4492	0.7295	0.763	-0.208
Mof_C 	C 	0.40535	0.72534	0.7083	0.256
Mof_C 	C 	0.39454	0.6815	0.6574	-0.061
Mof_Cd	Cd	0.62627	0.45282	0.7111	-1.138
Mof_C 	C 	0.2172	0.8247	0.5815	-0.006
Mof_H 	H 	0.2175	0.8406	0.6488	-0.014
Mof_H 	H 	0.1824	0.8238	0.5572	0.027
Mof_C 	C 	0.3856	0.8822	0.4487	0.624
Mof_C 	C 	0.2816	0.6753	0.4069	-0.146
Mof_H 	H 	0.301	0.6444	0.4172	0.067
Mof_H 	H 	0.3008	0.6973	0.3615	0.065
Mof_C 	C 	0.4617	0.7791	0.8204	0.463
Mof_C 	C 	0.4052	0.8283	0.4354	-0.853
Mof_H 	H 	0.3956	0.8083	0.4941	0.276
Mof_H 	H 	0.4415	0.8288	0.4295	0.231
Mof_H 	H 	0.3908	0.8137	0.3743	0.252
Mof_C 	C 	0.1986	0.7075	0.346	-0.08
Mof_H 	H 	0.2133	0.7303	0.2955	0.045
Mof_H 	H 	0.1658	0.6965	0.3201	0.028
Mof_C 	C 	0.2422	0.7475	0.4917	0.006
Mof_H 	H 	0.2604	0.7704	0.4452	0.026
Mof_C 	C 	0.4613	0.8229	0.7504	-0.75
Mof_H 	H 	0.4879	0.8192	0.7003	0.224
Mof_H 	H 	0.4667	0.8535	0.7891	0.205
Mof_H 	H 	0.4291	0.8247	0.7159	0.233
Mof_C 	C 	0.5142	0.7766	0.8747	-0.684
Mof_H 	H 	0.5157	0.7469	0.9174	0.156
Mof_H 	H 	0.5188	0.8064	0.9164	0.157
Mof_H 	H 	0.5406	0.7751	0.8237	0.22
Mof_C 	C 	0.4227	0.787	0.9039	-0.669
Mof_H 	H 	0.3904	0.7944	0.8732	0.207
Mof_H 	H 	0.4329	0.8148	0.9469	0.129
Mof_H 	H 	0.42	0.7567	0.9448	0.151
Mof_C 	C 	0.1913	0.7347	0.4419	-0.119
Mof_H 	H 	0.1714	0.7141	0.4888	0.046
Mof_H 	H 	0.1727	0.7658	0.4288	0.06
Mof_C 	C 	0.4025	0.9037	0.5459	-0.912
Mof_H 	H 	0.3894	0.9375	0.5529	0.26
Mof_H 	H 	0.4389	0.9046	0.5473	0.252
Mof_H 	H 	0.3904	0.8831	0.6017	0.276
Mof_C 	C 	0.233	0.9903	0.28	-0.065
Mof_H 	H 	0.262	0.0044	0.3097	0.007
Mof_C 	C 	0.4081	0.9125	0.3629	-0.817
Mof_H 	H 	0.4053	0.8938	0.2997	0.205
Mof_H 	H 	0.4433	0.919	0.3774	0.212
Mof_H 	H 	0.3903	0.9441	0.3565	0.23
Mof_C 	C 	0.2321	0.6624	0.3576	-0.057
Mof_H 	H 	0.2385	0.6477	0.2904	0.041
Mof_H 	H 	0.2149	0.637	0.3991	0.002
Mof_Br	Br	0.5917	0.3975	0.8692	0.499
Mof_O 	O 	0.7058	0.4265	0.7418	0.25
Mof_C 	C 	0.7155	0.4666	0.79	0.389
Mof_O 	O 	0.6848	0.4982	0.8129	-1.449
Mof_C 	C 	0.7683	0.4769	0.822	-5.24
Mof_H 	H 	0.7897	0.4495	0.7998	0.177
Mof_H 	H 	0.7797	0.508	0.7905	4.057
Mof_H 	H 	0.7699	0.4801	0.8952	2.161
Mof_C 	C 	0.4998	0.562	0.6365	0.175
Mof_H 	H 	0.4767	0.565	0.5827	0.225
Mof_C 	C 	0.5024	0.5987	0.71	-0.182
Mof_C 	C 	0.5362	0.5943	0.789	0.335
Mof_H 	H 	0.5379	0.6194	0.8392	-0.525
Mof_C 	C 	0.5674	0.5532	0.7941	-0.379
Mof_H 	H 	0.5905	0.5502	0.848	0.089
Mof_N 	N 	0.5648	0.5165	0.7205	0.144
Mof_C 	C 	0.531	0.5209	0.6417	0.115
Mof_H 	H 	0.5292	0.4958	0.5914	-0.06
Mof_N 	N 	0.1666	0.0024	0.1764	-0.069
Mof_C 	C 	0.1779	0.9282	0.2586	0.054
Mof_H 	H 	0.1661	0.8956	0.2727	0.009
Mof_C 	C 	0.1521	0.9571	0.195	0.097
Mof_H 	H 	0.123	0.9444	0.1638	0.009
Mof_C 	C 	0.2196	0.9436	0.3026	0.031
Mof_C 	C 	0.2054	0.0169	0.216	0.007
Mof_H 	H 	0.2165	0.0495	0.2005	0.08
Mof_Cd	Cd	0.6421	0.47139	0.7648	1.765
Mof_Br	Br	0.6036	0.4258	0.9259	-0.692
Mof_O 	O 	0.6998	0.524	0.8629	-0.605
Mof_O 	O 	0.7184	0.4463	0.786	-0.947
Mof_C 	C 	0.7831	0.4974	0.845	-3.705
Mof_H 	H 	0.8009	0.4676	0.8221	2.319
Mof_H 	H 	0.7927	0.5258	0.8033	-1.505
Mof_H 	H 	0.7916	0.5041	0.9156	0.471
Mof_C 	C 	0.7278	0.4889	0.836	3.257
Mof_N 	N 	0.5797	0.5277	0.7566	-0.048
Mof_C 	C 	0.5766	0.5633	0.8323	0.202
Mof_H 	H 	0.5977	0.5612	0.8896	-0.072
Mof_C 	C 	0.5425	0.6019	0.8243	0.134
Mof_H 	H 	0.5403	0.6263	0.876	0.366
Mof_C 	C 	0.5116	0.605	0.741	-0.114
Mof_C 	C 	0.5147	0.5694	0.6648	0.256
Mof_H 	H 	0.4936	0.5715	0.6075	-0.355
Mof_C 	C 	0.5488	0.5307	0.6728	-0.427
Mof_H 	H 	0.5509	0.5064	0.6211	0.167
Mof_C 	C 	0.2396	0.988	0.256	-0.024
Mof_H 	H 	0.2646	0.005	0.2928	0.022
Mof_C 	C 	0.2298	0.9382	0.2757	0.004
Mof_C 	C 	0.1932	0.9133	0.2217	-0.151
Mof_H 	H 	0.1865	0.8793	0.2352	0.064
Mof_C 	C 	0.1662	0.9383	0.1479	-0.075
Mof_H 	H 	0.1412	0.9213	0.111	0.06
Mof_N 	N 	0.176	0.9881	0.1281	-0.08
Mof_C 	C 	0.2126	0.013	0.182	0.013
Mof_H 	H 	0.2193	0.047	0.1685	-0.057
Mof_Ti	Ti	0.69427	0.22582	0.17871	1.375
Mof_O 	O 	0.6775	0.1743	0.0809	-0.505
Mof_N 	N 	0.7633	0.2268	0.0898	-0.24
Mof_H 	H 	0.7883	0.2462	0.1297	0.036
Mof_N 	N 	0.6792	0.2838	0.0589	-0.221
Mof_H 	H 	0.6563	0.269	0.0077	0.074
Mof_O 	O 	0.6278	0.2375	0.2095	-0.509
Mof_C 	C 	0.7257	0.2992	0.0066	0.033
Mof_H 	H 	0.7441	0.3225	0.0521	-0.002
Mof_C 	C 	0.6542	0.3285	0.1036	-0.052
Mof_H 	H 	0.6481	0.3528	0.049	0.058
Mof_H 	H 	0.6774	0.3441	0.1521	0.045
Mof_C 	C 	0.69714	0.0893	0.8729	0.084
Mof_H 	H 	0.6785	0.0701	0.826	-0.035
Mof_C 	C 	0.67277	0.118	0.9447	-0.311
Mof_C 	C 	0.70007	0.14598	0.0132	0.305
Mof_C 	C 	0.75173	0.1453	0.0099	-0.139
Mof_C 	C 	0.7761	0.1166	0.9381	0.007
Mof_H 	H 	0.8114	0.1161	0.9359	0.023
Mof_C 	C 	0.7488	0.0886	0.8696	-0.078
Mof_C 	C 	0.5724	0.35823	0.1613	-0.092
Mof_H 	H 	0.5798	0.3882	0.1265	0.082
Mof_C 	C 	0.5285	0.354	0.216	0.104
Mof_C 	C 	0.51771	0.3101	0.2669	-0.024
Mof_H 	H 	0.4877	0.3073	0.3043	0.029
Mof_C 	C 	0.5508	0.2705	0.263	-0.21
Mof_C 	C 	0.59465	0.27466	0.2083	0.257
Mof_C 	C 	0.60546	0.3185	0.1574	-0.061
Mof_Cd	Cd	0.37373	0.54718	0.2111	-1.136
Mof_C 	C 	0.7828	0.1753	0.0815	-0.006
Mof_H 	H 	0.7825	0.1594	0.1488	-0.013
Mof_H 	H 	0.8176	0.1762	0.0572	0.028
Mof_C 	C 	0.6144	0.1178	0.9487	0.619
Mof_C 	C 	0.7184	0.3247	0.9069	-0.153
Mof_H 	H 	0.699	0.3556	0.9172	0.069
Mof_H 	H 	0.6992	0.3027	0.8615	0.067
Mof_C 	C 	0.5383	0.2209	0.3204	0.468
Mof_C 	C 	0.5948	0.1717	0.9354	-0.848
Mof_H 	H 	0.6044	0.1917	0.9941	0.273
Mof_H 	H 	0.5585	0.1712	0.9295	0.229
Mof_H 	H 	0.6092	0.1863	0.8743	0.251
Mof_C 	C 	0.8014	0.2925	0.846	-0.084
Mof_H 	H 	0.7867	0.2697	0.7955	0.046
Mof_H 	H 	0.8342	0.3035	0.8201	0.029
Mof_C 	C 	0.7578	0.2525	0.9917	0
Mof_H 	H 	0.7396	0.2296	0.9452	0.027
Mof_C 	C 	0.5387	0.1771	0.2504	-0.755
Mof_H 	H 	0.5121	0.1808	0.2003	0.225
Mof_H 	H 	0.5333	0.1465	0.2891	0.207
Mof_H 	H 	0.5709	0.1753	0.2159	0.235
Mof_C 	C 	0.4858	0.2234	0.3747	-0.689
Mof_H 	H 	0.4843	0.2531	0.4174	0.159
Mof_H 	H 	0.4812	0.1936	0.4164	0.16
Mof_H 	H 	0.4594	0.2249	0.3237	0.222
Mof_C 	C 	0.5773	0.213	0.4039	-0.677
Mof_H 	H 	0.6096	0.2056	0.3732	0.21
Mof_H 	H 	0.5671	0.1852	0.4469	0.133
Mof_H 	H 	0.58	0.2433	0.4448	0.155
Mof_C 	C 	0.8087	0.2653	0.9419	-0.114
Mof_H 	H 	0.8286	0.2859	0.9888	0.045
Mof_H 	H 	0.8273	0.2342	0.9288	0.058
Mof_C 	C 	0.5975	0.0963	0.0459	-0.904
Mof_H 	H 	0.6106	0.0625	0.0529	0.258
Mof_H 	H 	0.5611	0.0954	0.0473	0.251
Mof_H 	H 	0.6096	0.1169	0.1017	0.274
Mof_C 	C 	0.767	0.0097	0.78	-0.069
Mof_H 	H 	0.738	0.9956	0.8097	0.008
Mof_C 	C 	0.5919	0.0875	0.8629	-0.811
Mof_H 	H 	0.5947	0.1062	0.7997	0.203
Mof_H 	H 	0.5567	0.081	0.8774	0.209
Mof_H 	H 	0.6097	0.0559	0.8565	0.228
Mof_C 	C 	0.7679	0.3376	0.8576	-0.052
Mof_H 	H 	0.7615	0.3523	0.7904	0.039
Mof_H 	H 	0.7851	0.363	0.8991	-0
Mof_Br	Br	0.4083	0.6025	0.3692	0.499
Mof_O 	O 	0.2942	0.5735	0.2418	0.252
Mof_C 	C 	0.2845	0.5334	0.29	0.39
Mof_O 	O 	0.3152	0.5018	0.3129	-1.45
Mof_C 	C 	0.2317	0.5231	0.322	-5.247
Mof_H 	H 	0.2103	0.5505	0.2998	0.177
Mof_H 	H 	0.2203	0.492	0.2905	4.062
Mof_H 	H 	0.2301	0.5199	0.3952	2.164
Mof_C 	C 	0.5002	0.438	0.1365	0.174
Mof_H 	H 	0.5233	0.435	0.0827	0.226
Mof_C 	C 	0.4976	0.4013	0.21	-0.179
Mof_C 	C 	0.4638	0.4057	0.289	0.331
Mof_H 	H 	0.4621	0.3806	0.3392	-0.521
Mof_C 	C 	0.4326	0.4468	0.2941	-0.375
Mof_H 	H 	0.4095	0.4498	0.348	0.085
Mof_N 	N 	0.4352	0.4835	0.2205	0.144
Mof_C 	C 	0.469	0.4791	0.1417	0.115
Mof_H 	H 	0.4708	0.5042	0.0914	-0.058
Mof_N 	N 	0.8334	0.9976	0.6764	-0.064
Mof_C 	C 	0.8221	0.0718	0.7586	0.05
Mof_H 	H 	0.8339	0.1044	0.7727	0.01
Mof_C 	C 	0.8479	0.0429	0.695	0.099
Mof_H 	H 	0.877	0.0556	0.6638	0.009
Mof_C 	C 	0.7804	0.0564	0.8026	0.028
Mof_C 	C 	0.7946	0.9831	0.716	0.008
Mof_H 	H 	0.7835	0.9505	0.7005	0.078
Mof_Cd	Cd	0.3579	0.52861	0.2648	1.764
Mof_Br	Br	0.3964	0.5742	0.4259	-0.689
Mof_O 	O 	0.3002	0.476	0.3629	-0.605
Mof_O 	O 	0.2816	0.5537	0.286	-0.948
Mof_C 	C 	0.2169	0.5026	0.345	-3.709
Mof_H 	H 	0.1991	0.5324	0.3221	2.321
Mof_H 	H 	0.2073	0.4742	0.3033	-1.506
Mof_H 	H 	0.2084	0.4959	0.4156	0.473
Mof_C 	C 	0.2722	0.5111	0.336	3.261
Mof_N 	N 	0.4203	0.4723	0.2566	-0.05
Mof_C 	C 	0.4234	0.4367	0.3323	0.203
Mof_H 	H 	0.4023	0.4388	0.3896	-0.069
Mof_C 	C 	0.4575	0.3981	0.3243	0.134
Mof_H 	H 	0.4597	0.3737	0.376	0.365
Mof_C 	C 	0.4884	0.395	0.241	-0.115
Mof_C 	C 	0.4853	0.4306	0.1648	0.255
Mof_H 	H 	0.5064	0.4285	0.1075	-0.354
Mof_C 	C 	0.4512	0.4693	0.1728	-0.426
Mof_H 	H 	0.4491	0.4936	0.1211	0.167
Mof_C 	C 	0.7604	0.012	0.756	-0.026
Mof_H 	H 	0.7354	0.995	0.7928	0.022
Mof_C 	C 	0.7702	0.0618	0.7757	0.007
Mof_C 	C 	0.8068	0.0867	0.7217	-0.148
Mof_H 	H 	0.8135	0.1207	0.7352	0.062
Mof_C 	C 	0.8338	0.0617	0.6479	-0.077
Mof_H 	H 	0.8588	0.0787	0.611	0.058
Mof_N 	N 	0.824	0.0119	0.6281	-0.086
Mof_C 	C 	0.7874	0.987	0.682	0.014
Mof_H 	H 	0.7807	0.953	0.6685	-0.057
Mof_Ti	Ti	0.72582	0.80573	0.92871	1.368
Mof_O 	O 	0.6743	0.8225	0.8309	-0.504
Mof_N 	N 	0.7268	0.7367	0.8398	-0.241
Mof_H 	H 	0.7462	0.7117	0.8797	0.034
Mof_N 	N 	0.7838	0.8208	0.8089	-0.22
Mof_H 	H 	0.769	0.8437	0.7577	0.073
Mof_O 	O 	0.7375	0.8722	0.9595	-0.508
Mof_C 	C 	0.7992	0.7743	0.7566	0.027
Mof_H 	H 	0.8225	0.7559	0.8021	-0.001
Mof_C 	C 	0.8285	0.8458	0.8536	-0.051
Mof_H 	H 	0.8528	0.8519	0.799	0.057
Mof_H 	H 	0.8441	0.8226	0.9021	0.044
Mof_C 	C 	0.5893	0.80286	0.6229	0.084
Mof_H 	H 	0.5701	0.8215	0.576	-0.035
Mof_C 	C 	0.618	0.82723	0.6947	-0.31
Mof_C 	C 	0.64598	0.79993	0.7632	0.303
Mof_C 	C 	0.6453	0.74827	0.7599	-0.141
Mof_C 	C 	0.6166	0.7239	0.6881	0.01
Mof_H 	H 	0.6161	0.6886	0.6859	0.022
Mof_C 	C 	0.5886	0.7512	0.6196	-0.078
Mof_C 	C 	0.85823	0.9276	0.9113	-0.092
Mof_H 	H 	0.8882	0.9202	0.8765	0.081
Mof_C 	C 	0.854	0.9715	0.966	0.099
Mof_C 	C 	0.8101	0.98229	0.0169	-0.01
Mof_H 	H 	0.8073	0.0123	0.0543	0.021
Mof_C 	C 	0.7705	0.9492	0.013	-0.203
Mof_C 	C 	0.77466	0.90535	0.9583	0.25
Mof_C 	C 	0.8185	0.89454	0.9074	-0.061
Mof_Cd	Cd	0.04718	0.12627	0.9611	-1.175
Mof_C 	C 	0.6753	0.7172	0.8315	-0.005
Mof_H 	H 	0.6594	0.7175	0.8988	-0.014
Mof_H 	H 	0.6762	0.6824	0.8072	0.027
Mof_C 	C 	0.6178	0.8856	0.6987	0.625
Mof_C 	C 	0.8247	0.7816	0.6569	-0.147
Mof_H 	H 	0.8556	0.801	0.6672	0.068
Mof_H 	H 	0.8027	0.8008	0.6115	0.065
Mof_C 	C 	0.7209	0.9617	0.0704	0.458
Mof_C 	C 	0.6717	0.9052	0.6854	-0.854
Mof_H 	H 	0.6917	0.8956	0.7441	0.277
Mof_H 	H 	0.6712	0.9415	0.6795	0.232
Mof_H 	H 	0.6863	0.8908	0.6243	0.253
Mof_C 	C 	0.7925	0.6986	0.596	-0.08
Mof_H 	H 	0.7697	0.7133	0.5455	0.045
Mof_H 	H 	0.8035	0.6658	0.5701	0.028
Mof_C 	C 	0.7525	0.7422	0.7417	0.006
Mof_H 	H 	0.7296	0.7604	0.6952	0.026
Mof_C 	C 	0.6771	0.9613	0.0004	-0.707
Mof_H 	H 	0.6808	0.9879	0.9503	0.208
Mof_H 	H 	0.6465	0.9667	0.0391	0.196
Mof_H 	H 	0.6753	0.9291	0.9659	0.217
Mof_C 	C 	0.7234	0.0142	0.1247	-0.686
Mof_H 	H 	0.7531	0.0157	0.1674	0.157
Mof_H 	H 	0.6936	0.0188	0.1664	0.159
Mof_H 	H 	0.7249	0.0406	0.0737	0.221
Mof_C 	C 	0.713	0.9227	0.1539	-0.669
Mof_H 	H 	0.7056	0.8904	0.1232	0.209
Mof_H 	H 	0.6852	0.9329	0.1969	0.133
Mof_H 	H 	0.7433	0.92	0.1948	0.154
Mof_C 	C 	0.7653	0.6913	0.6919	-0.118
Mof_H 	H 	0.7859	0.6714	0.7388	0.046
Mof_H 	H 	0.7342	0.6727	0.6788	0.06
Mof_C 	C 	0.5963	0.9025	0.7959	-0.912
Mof_H 	H 	0.5625	0.8894	0.8029	0.259
Mof_H 	H 	0.5954	0.9389	0.7973	0.252
Mof_H 	H 	0.6169	0.8904	0.8517	0.276
Mof_C 	C 	0.5097	0.733	0.53	-0.067
Mof_H 	H 	0.4956	0.762	0.5597	0.007
Mof_C 	C 	0.5875	0.9081	0.6129	-0.817
Mof_H 	H 	0.6062	0.9053	0.5497	0.205
Mof_H 	H 	0.581	0.9433	0.6274	0.211
Mof_H 	H 	0.5559	0.8903	0.6065	0.23
Mof_C 	C 	0.8376	0.7321	0.6076	-0.057
Mof_H 	H 	0.8523	0.7385	0.5404	0.04
Mof_H 	H 	0.863	0.7149	0.6491	0.002
Mof_Br	Br	0.1025	0.0917	0.1192	0.459
Mof_O 	O 	0.0735	0.2058	0.9918	0.24
Mof_C 	C 	0.0334	0.2155	0.04	0.39
Mof_O 	O 	0.0018	0.1848	0.0629	-1.448
Mof_C 	C 	0.0231	0.2683	0.072	-5.182
Mof_H 	H 	0.0505	0.2897	0.0498	0.173
Mof_H 	H 	0.992	0.2797	0.0405	4.016
Mof_H 	H 	0.0199	0.2699	0.1452	2.142
Mof_C 	C 	0.938	0.9998	0.8865	0.173
Mof_H 	H 	0.935	0.9767	0.8327	0.225
Mof_C 	C 	0.9013	0.0024	0.96	-0.191
Mof_C 	C 	0.9057	0.0362	0.039	0.351
Mof_H 	H 	0.8806	0.0379	0.0892	-0.541
Mof_C 	C 	0.9468	0.0674	0.0441	-0.387
Mof_H 	H 	0.9498	0.0905	0.098	0.095
Mof_N 	N 	0.9835	0.0648	0.9705	0.146
Mof_C 	C 	0.9791	0.031	0.8917	0.114
Mof_H 	H 	0.0042	0.0292	0.8414	-0.059
Mof_N 	N 	0.4976	0.6666	0.4264	-0.067
Mof_C 	C 	0.5718	0.6779	0.5086	0.054
Mof_H 	H 	0.6044	0.6661	0.5227	0.009
Mof_C 	C 	0.5429	0.6521	0.445	0.1
Mof_H 	H 	0.5556	0.623	0.4138	0.009
Mof_C 	C 	0.5564	0.7196	0.5526	0.029
Mof_C 	C 	0.4831	0.7054	0.466	0.007
Mof_H 	H 	0.4505	0.7165	0.4505	0.082
Mof_Cd	Cd	0.02861	0.1421	0.0148	1.8
Mof_Br	Br	0.0742	0.1036	0.1759	-0.664
Mof_O 	O 	0.976	0.1998	0.1129	-0.6
Mof_O 	O 	0.0537	0.2184	0.036	-0.939
Mof_C 	C 	0.0026	0.2831	0.095	-3.68
Mof_H 	H 	0.0324	0.3009	0.0721	2.3
Mof_H 	H 	0.9742	0.2927	0.0533	-1.487
Mof_H 	H 	0.9959	0.2916	0.1656	0.468
Mof_C 	C 	0.0111	0.2278	0.086	3.23
Mof_N 	N 	0.9723	0.0797	0.0066	-0.048
Mof_C 	C 	0.9367	0.0766	0.0823	0.197
Mof_H 	H 	0.9388	0.0977	0.1396	-0.075
Mof_C 	C 	0.8981	0.0425	0.0743	0.133
Mof_H 	H 	0.8737	0.0403	0.126	0.379
Mof_C 	C 	0.895	0.0116	0.991	-0.114
Mof_C 	C 	0.9306	0.0147	0.9148	0.262
Mof_H 	H 	0.9285	0.9936	0.8575	-0.354
Mof_C 	C 	0.9693	0.0488	0.9228	-0.433
Mof_H 	H 	0.9936	0.0509	0.8711	0.169
Mof_C 	C 	0.512	0.7396	0.506	-0.024
Mof_H 	H 	0.495	0.7646	0.5428	0.022
Mof_C 	C 	0.5618	0.7298	0.5257	0.006
Mof_C 	C 	0.5867	0.6932	0.4717	-0.151
Mof_H 	H 	0.6207	0.6865	0.4852	0.064
Mof_C 	C 	0.5617	0.6662	0.3979	-0.078
Mof_H 	H 	0.5787	0.6412	0.361	0.059
Mof_N 	N 	0.5119	0.676	0.3781	-0.082
Mof_C 	C 	0.487	0.7126	0.432	0.012
Mof_H 	H 	0.453	0.7193	0.4185	-0.06
Mof_Ti	Ti	0.27418	0.19427	0.42871	1.375
Mof_O 	O 	0.3257	0.1775	0.3309	-0.505
Mof_N 	N 	0.2732	0.2633	0.3398	-0.242
Mof_H 	H 	0.2538	0.2883	0.3797	0.036
Mof_N 	N 	0.2162	0.1792	0.3089	-0.221
Mof_H 	H 	0.231	0.1563	0.2577	0.073
Mof_O 	O 	0.2625	0.1278	0.4595	-0.51
Mof_C 	C 	0.2008	0.2257	0.2566	0.027
Mof_H 	H 	0.1775	0.2441	0.3021	-0.001
Mof_C 	C 	0.1715	0.1542	0.3536	-0.051
Mof_H 	H 	0.1472	0.1481	0.299	0.057
Mof_H 	H 	0.1559	0.1774	0.4021	0.045
Mof_C 	C 	0.4107	0.19714	0.1229	0.085
Mof_H 	H 	0.4299	0.1785	0.076	-0.035
Mof_C 	C 	0.382	0.17277	0.1947	-0.311
Mof_C 	C 	0.35402	0.20007	0.2632	0.304
Mof_C 	C 	0.3547	0.25173	0.2599	-0.141
Mof_C 	C 	0.3834	0.2761	0.1881	0.01
Mof_H 	H 	0.3839	0.3114	0.1859	0.023
Mof_C 	C 	0.4114	0.2488	0.1196	-0.078
Mof_C 	C 	0.14177	0.0724	0.4113	-0.092
Mof_H 	H 	0.1118	0.0798	0.3765	0.081
Mof_C 	C 	0.146	0.0285	0.466	0.104
Mof_C 	C 	0.1899	0.01771	0.5169	-0.021
Mof_H 	H 	0.1927	0.9877	0.5543	0.027
Mof_C 	C 	0.2295	0.0508	0.513	-0.212
Mof_C 	C 	0.22534	0.09465	0.4583	0.258
Mof_C 	C 	0.1815	0.10546	0.4074	-0.062
Mof_Cd	Cd	0.95282	0.87373	0.4611	-1.116
Mof_C 	C 	0.3247	0.2828	0.3315	-0.006
Mof_H 	H 	0.3406	0.2825	0.3988	-0.014
Mof_H 	H 	0.3238	0.3176	0.3072	0.027
Mof_C 	C 	0.3822	0.1144	0.1987	0.626
Mof_C 	C 	0.1753	0.2184	0.1569	-0.147
Mof_H 	H 	0.1444	0.199	0.1672	0.068
Mof_H 	H 	0.1973	0.1992	0.1115	0.066
Mof_C 	C 	0.2791	0.0383	0.5704	0.472
Mof_C 	C 	0.3283	0.0948	0.1854	-0.856
Mof_H 	H 	0.3083	0.1044	0.2441	0.277
Mof_H 	H 	0.3288	0.0585	0.1795	0.232
Mof_H 	H 	0.3137	0.1092	0.1243	0.254
Mof_C 	C 	0.2075	0.3014	0.096	-0.081
Mof_H 	H 	0.2303	0.2867	0.0455	0.046
Mof_H 	H 	0.1965	0.3342	0.0701	0.03
Mof_C 	C 	0.2475	0.2578	0.2417	0.006
Mof_H 	H 	0.2704	0.2396	0.1952	0.026
Mof_C 	C 	0.3229	0.0387	0.5004	-0.758
Mof_H 	H 	0.3192	0.0121	0.4503	0.226
Mof_H 	H 	0.3535	0.0333	0.5391	0.208
Mof_H 	H 	0.3247	0.0709	0.4659	0.235
Mof_C 	C 	0.2766	0.9858	0.6247	-0.693
Mof_H 	H 	0.2469	0.9843	0.6674	0.161
Mof_H 	H 	0.3064	0.9812	0.6664	0.161
Mof_H 	H 	0.2751	0.9594	0.5737	0.223
Mof_C 	C 	0.287	0.0773	0.6539	-0.681
Mof_H 	H 	0.2944	0.1096	0.6232	0.211
Mof_H 	H 	0.3148	0.0671	0.6969	0.135
Mof_H 	H 	0.2567	0.08	0.6948	0.158
Mof_C 	C 	0.2347	0.3087	0.1919	-0.118
Mof_H 	H 	0.2141	0.3286	0.2388	0.046
Mof_H 	H 	0.2658	0.3273	0.1788	0.06
Mof_C 	C 	0.4037	0.0975	0.2959	-0.913
Mof_H 	H 	0.4375	0.1106	0.3029	0.26
Mof_H 	H 	0.4046	0.0611	0.2973	0.252
Mof_H 	H 	0.3831	0.1096	0.3517	0.276
Mof_C 	C 	0.4903	0.267	0.03	-0.064
Mof_H 	H 	0.5044	0.238	0.0597	0.008
Mof_C 	C 	0.4125	0.0919	0.1129	-0.819
Mof_H 	H 	0.3938	0.0947	0.0497	0.207
Mof_H 	H 	0.419	0.0567	0.1274	0.212
Mof_H 	H 	0.4441	0.1097	0.1065	0.231
Mof_C 	C 	0.1624	0.2679	0.1076	-0.056
Mof_H 	H 	0.1477	0.2615	0.0404	0.042
Mof_H 	H 	0.137	0.2851	0.1491	0.002
Mof_Br	Br	0.8975	0.9083	0.6192	0.48
Mof_O 	O 	0.9265	0.7942	0.4918	0.247
Mof_C 	C 	0.9666	0.7845	0.54	0.384
Mof_O 	O 	0.9982	0.8152	0.5629	-1.431
Mof_C 	C 	0.9769	0.7317	0.572	-5.181
Mof_H 	H 	0.9495	0.7103	0.5498	0.172
Mof_H 	H 	0.008	0.7203	0.5405	4.014
Mof_H 	H 	0.9801	0.7301	0.6452	2.141
Mof_C 	C 	0.062	0.0002	0.3865	0.173
Mof_H 	H 	0.065	0.0233	0.3327	0.22
Mof_C 	C 	0.0987	0.9976	0.46	-0.185
Mof_C 	C 	0.0943	0.9638	0.539	0.34
Mof_H 	H 	0.1194	0.9621	0.5892	-0.53
Mof_C 	C 	0.0532	0.9326	0.5441	-0.38
Mof_H 	H 	0.0502	0.9095	0.598	0.09
Mof_N 	N 	0.0165	0.9352	0.4705	0.144
Mof_C 	C 	0.0209	0.969	0.3917	0.123
Mof_H 	H 	0.9958	0.9708	0.3414	-0.057
Mof_N 	N 	0.5024	0.3334	0.9264	-0.071
Mof_C 	C 	0.4282	0.3221	0.0086	0.047
Mof_H 	H 	0.3956	0.3339	0.0227	0.014
Mof_C 	C 	0.4571	0.3479	0.945	0.117
Mof_H 	H 	0.4444	0.377	0.9138	0.004
Mof_C 	C 	0.4436	0.2804	0.0526	0.03
Mof_C 	C 	0.5169	0.2946	0.966	0.005
Mof_H 	H 	0.5495	0.2835	0.9505	0.077
Mof_Cd	Cd	0.97139	0.8579	0.5148	1.744
Mof_Br	Br	0.9258	0.8964	0.6759	-0.676
Mof_O 	O 	0.024	0.8002	0.6129	-0.605
Mof_O 	O 	0.9463	0.7816	0.536	-0.94
Mof_C 	C 	0.9974	0.7169	0.595	-3.675
Mof_H 	H 	0.9676	0.6991	0.5721	2.298
Mof_H 	H 	0.0258	0.7073	0.5533	-1.487
Mof_H 	H 	0.0041	0.7084	0.6656	0.467
Mof_C 	C 	0.9889	0.7722	0.586	3.229
Mof_N 	N 	0.0277	0.9203	0.5066	-0.048
Mof_C 	C 	0.0633	0.9234	0.5823	0.2
Mof_H 	H 	0.0612	0.9023	0.6396	-0.073
Mof_C 	C 	0.1019	0.9575	0.5743	0.133
Mof_H 	H 	0.1263	0.9597	0.626	0.371
Mof_C 	C 	0.105	0.9884	0.491	-0.111
Mof_C 	C 	0.0694	0.9853	0.4148	0.251
Mof_H 	H 	0.0715	0.0064	0.3575	-0.348
Mof_C 	C 	0.0307	0.9512	0.4228	-0.431
Mof_H 	H 	0.0064	0.9491	0.3711	0.161
Mof_C 	C 	0.488	0.2604	0.006	-0.023
Mof_H 	H 	0.505	0.2354	0.0428	0.022
Mof_C 	C 	0.4382	0.2702	0.0257	0.006
Mof_C 	C 	0.4133	0.3068	0.9717	-0.144
Mof_H 	H 	0.3793	0.3135	0.9852	0.058
Mof_C 	C 	0.4383	0.3338	0.8979	-0.097
Mof_H 	H 	0.4213	0.3588	0.861	0.066
Mof_N 	N 	0.4881	0.324	0.8781	-0.08
Mof_C 	C 	0.513	0.2874	0.932	0.012
Mof_H 	H 	0.547	0.2807	0.9185	-0.055
Mof_Ti	Ti	0.19427	0.27418	0.57129	1.375
Mof_O 	O 	0.1775	0.3257	0.6691	-0.505
Mof_N 	N 	0.2633	0.2732	0.6602	-0.242
Mof_H 	H 	0.2883	0.2538	0.6203	0.036
Mof_N 	N 	0.1792	0.2162	0.6911	-0.22
Mof_H 	H 	0.1563	0.231	0.7423	0.073
Mof_O 	O 	0.1278	0.2625	0.5405	-0.509
Mof_C 	C 	0.2257	0.2008	0.7434	0.026
Mof_H 	H 	0.2441	0.1775	0.6979	-0
Mof_C 	C 	0.1542	0.1715	0.6464	-0.052
Mof_H 	H 	0.1481	0.1472	0.701	0.057
Mof_H 	H 	0.1774	0.1559	0.5979	0.045
Mof_C 	C 	0.19714	0.4107	0.8771	0.083
Mof_H 	H 	0.1785	0.4299	0.924	-0.036
Mof_C 	C 	0.17277	0.382	0.8053	-0.31
Mof_C 	C 	0.20007	0.35402	0.7368	0.303
Mof_C 	C 	0.25173	0.3547	0.7401	-0.141
Mof_C 	C 	0.2761	0.3834	0.8119	0.009
Mof_H 	H 	0.3114	0.3839	0.8141	0.022
Mof_C 	C 	0.2488	0.4114	0.8804	-0.078
Mof_C 	C 	0.0724	0.14177	0.5887	-0.093
Mof_H 	H 	0.0798	0.1118	0.6235	0.082
Mof_C 	C 	0.0285	0.146	0.534	0.106
Mof_C 	C 	0.01771	0.1899	0.4831	-0.021
Mof_H 	H 	0.9877	0.1927	0.4457	0.027
Mof_C 	C 	0.0508	0.2295	0.487	-0.212
Mof_C 	C 	0.09465	0.22534	0.5417	0.258
Mof_C 	C 	0.10546	0.1815	0.5926	-0.061
Mof_Cd	Cd	0.87373	0.95282	0.5389	-1.116
Mof_C 	C 	0.2828	0.3247	0.6685	-0.006
Mof_H 	H 	0.2825	0.3406	0.6012	-0.013
Mof_H 	H 	0.3176	0.3238	0.6928	0.027
Mof_C 	C 	0.1144	0.3822	0.8013	0.621
Mof_C 	C 	0.2184	0.1753	0.8431	-0.145
Mof_H 	H 	0.199	0.1444	0.8328	0.067
Mof_H 	H 	0.1992	0.1973	0.8885	0.064
Mof_C 	C 	0.0383	0.2791	0.4296	0.472
Mof_C 	C 	0.0948	0.3283	0.8146	-0.85
Mof_H 	H 	0.1044	0.3083	0.7559	0.275
Mof_H 	H 	0.0585	0.3288	0.8205	0.23
Mof_H 	H 	0.1092	0.3137	0.8757	0.251
Mof_C 	C 	0.3014	0.2075	0.904	-0.078
Mof_H 	H 	0.2867	0.2303	0.9545	0.043
Mof_H 	H 	0.3342	0.1965	0.9299	0.027
Mof_C 	C 	0.2578	0.2475	0.7583	0.007
Mof_H 	H 	0.2396	0.2704	0.8048	0.025
Mof_C 	C 	0.0387	0.3229	0.4996	-0.758
Mof_H 	H 	0.0121	0.3192	0.5497	0.226
Mof_H 	H 	0.0333	0.3535	0.4609	0.208
Mof_H 	H 	0.0709	0.3247	0.5341	0.235
Mof_C 	C 	0.9858	0.2766	0.3753	-0.693
Mof_H 	H 	0.9843	0.2469	0.3326	0.16
Mof_H 	H 	0.9812	0.3064	0.3336	0.161
Mof_H 	H 	0.9594	0.2751	0.4263	0.223
Mof_C 	C 	0.0773	0.287	0.3461	-0.68
Mof_H 	H 	0.1096	0.2944	0.3768	0.211
Mof_H 	H 	0.0671	0.3148	0.3031	0.135
Mof_H 	H 	0.08	0.2567	0.3052	0.157
Mof_C 	C 	0.3087	0.2347	0.8081	-0.12
Mof_H 	H 	0.3286	0.2141	0.7612	0.047
Mof_H 	H 	0.3273	0.2658	0.8212	0.06
Mof_C 	C 	0.0975	0.4037	0.7041	-0.909
Mof_H 	H 	0.1106	0.4375	0.6971	0.259
Mof_H 	H 	0.0611	0.4046	0.7027	0.251
Mof_H 	H 	0.1096	0.3831	0.6483	0.275
Mof_C 	C 	0.267	0.4903	0.97	-0.072
Mof_H 	H 	0.238	0.5044	0.9403	0.007
Mof_C 	C 	0.0919	0.4125	0.8871	-0.811
Mof_H 	H 	0.0947	0.3938	0.9503	0.202
Mof_H 	H 	0.0567	0.419	0.8726	0.209
Mof_H 	H 	0.1097	0.4441	0.8935	0.227
Mof_C 	C 	0.2679	0.1624	0.8924	-0.058
Mof_H 	H 	0.2615	0.1477	0.9596	0.039
Mof_H 	H 	0.2851	0.137	0.8509	0.002
Mof_Br	Br	0.9083	0.8975	0.3808	0.479
Mof_O 	O 	0.7942	0.9265	0.5082	0.247
Mof_C 	C 	0.7845	0.9666	0.46	0.383
Mof_O 	O 	0.8152	0.9982	0.4371	-1.43
Mof_C 	C 	0.7317	0.9769	0.428	-5.174
Mof_H 	H 	0.7103	0.9495	0.4502	0.172
Mof_H 	H 	0.7203	0.008	0.4595	4.009
Mof_H 	H 	0.7301	0.9801	0.3548	2.139
Mof_C 	C 	0.0002	0.062	0.6135	0.172
Mof_H 	H 	0.0233	0.065	0.6673	0.222
Mof_C 	C 	0.9976	0.0987	0.54	-0.186
Mof_C 	C 	0.9638	0.0943	0.461	0.341
Mof_H 	H 	0.9621	0.1194	0.4108	-0.531
Mof_C 	C 	0.9326	0.0532	0.4559	-0.382
Mof_H 	H 	0.9095	0.0502	0.402	0.091
Mof_N 	N 	0.9352	0.0165	0.5295	0.144
Mof_C 	C 	0.969	0.0209	0.6083	0.122
Mof_H 	H 	0.9708	0.9958	0.6586	-0.057
Mof_N 	N 	0.3334	0.5024	0.0736	-0.062
Mof_C 	C 	0.3221	0.4282	0.9914	0.062
Mof_H 	H 	0.3339	0.3956	0.9773	0.003
Mof_C 	C 	0.3479	0.4571	0.055	0.079
Mof_H 	H 	0.377	0.4444	0.0862	0.015
Mof_C 	C 	0.2804	0.4436	0.9474	0.029
Mof_C 	C 	0.2946	0.5169	0.034	0.011
Mof_H 	H 	0.2835	0.5495	0.0495	0.09
Mof_Cd	Cd	0.8579	0.97139	0.4852	1.744
Mof_Br	Br	0.8964	0.9258	0.3241	-0.675
Mof_O 	O 	0.8002	0.024	0.3871	-0.605
Mof_O 	O 	0.7816	0.9463	0.464	-0.939
Mof_C 	C 	0.7169	0.9974	0.405	-3.672
Mof_H 	H 	0.6991	0.9676	0.4279	2.296
Mof_H 	H 	0.7073	0.0258	0.4467	-1.485
Mof_H 	H 	0.7084	0.0041	0.3344	0.467
Mof_C 	C 	0.7722	0.9889	0.414	3.226
Mof_N 	N 	0.9203	0.0277	0.4934	-0.048
Mof_C 	C 	0.9234	0.0633	0.4177	0.2
Mof_H 	H 	0.9023	0.0612	0.3604	-0.073
Mof_C 	C 	0.9575	0.1019	0.4257	0.134
Mof_H 	H 	0.9597	0.1263	0.374	0.371
Mof_C 	C 	0.9884	0.105	0.509	-0.113
Mof_C 	C 	0.9853	0.0694	0.5852	0.254
Mof_H 	H 	0.0064	0.0715	0.6425	-0.349
Mof_C 	C 	0.9512	0.0307	0.5772	-0.432
Mof_H 	H 	0.9491	0.0064	0.6289	0.162
Mof_C 	C 	0.2604	0.488	0.994	-0.025
Mof_H 	H 	0.2354	0.505	0.9572	0.023
Mof_C 	C 	0.2702	0.4382	0.9743	0.005
Mof_C 	C 	0.3068	0.4133	0.0283	-0.16
Mof_H 	H 	0.3135	0.3793	0.0148	0.071
Mof_C 	C 	0.3338	0.4383	0.1021	-0.055
Mof_H 	H 	0.3588	0.4213	0.139	0.051
Mof_N 	N 	0.324	0.4881	0.1219	-0.085
Mof_C 	C 	0.2874	0.513	0.068	0.012
Mof_H 	H 	0.2807	0.547	0.0815	-0.067
Mof_Ti	Ti	0.80573	0.72582	0.07129	1.376
Mof_O 	O 	0.8225	0.6743	0.1691	-0.505
Mof_N 	N 	0.7367	0.7268	0.1602	-0.242
Mof_H 	H 	0.7117	0.7462	0.1203	0.037
Mof_N 	N 	0.8208	0.7838	0.1911	-0.22
Mof_H 	H 	0.8437	0.769	0.2423	0.073
Mof_O 	O 	0.8722	0.7375	0.0405	-0.51
Mof_C 	C 	0.7743	0.7992	0.2434	0.026
Mof_H 	H 	0.7559	0.8225	0.1979	0
Mof_C 	C 	0.8458	0.8285	0.1464	-0.052
Mof_H 	H 	0.8519	0.8528	0.201	0.058
Mof_H 	H 	0.8226	0.8441	0.0979	0.046
Mof_C 	C 	0.80286	0.5893	0.3771	0.084
Mof_H 	H 	0.8215	0.5701	0.424	-0.035
Mof_C 	C 	0.82723	0.618	0.3053	-0.31
Mof_C 	C 	0.79993	0.64598	0.2368	0.304
Mof_C 	C 	0.74827	0.6453	0.2401	-0.141
Mof_C 	C 	0.7239	0.6166	0.3119	0.01
Mof_H 	H 	0.6886	0.6161	0.3141	0.023
Mof_C 	C 	0.7512	0.5886	0.3804	-0.078
Mof_C 	C 	0.9276	0.85823	0.0887	-0.096
Mof_H 	H 	0.9202	0.8882	0.1235	0.083
Mof_C 	C 	0.9715	0.854	0.034	0.117
Mof_C 	C 	0.98229	0.8101	0.9831	-0.022
Mof_H 	H 	0.0123	0.8073	0.9457	0.024
Mof_C 	C 	0.9492	0.7705	0.987	-0.22
Mof_C 	C 	0.90535	0.77466	0.0417	0.263
Mof_C 	C 	0.89454	0.8185	0.0926	-0.061
Mof_Cd	Cd	0.12627	0.04718	0.0389	-1.074
Mof_C 	C 	0.7172	0.6753	0.1685	-0.006
Mof_H 	H 	0.7175	0.6594	0.1012	-0.012
Mof_H 	H 	0.6824	0.6762	0.1928	0.028
Mof_C 	C 	0.8856	0.6178	0.3013	0.624
Mof_C 	C 	0.7816	0.8247	0.3431	-0.146
Mof_H 	H 	0.801	0.8556	0.3328	0.068
Mof_H 	H 	0.8008	0.8027	0.3885	0.065
Mof_C 	C 	0.9617	0.7209	0.9296	0.485
Mof_C 	C 	0.9052	0.6717	0.3146	-0.853
Mof_H 	H 	0.8956	0.6917	0.2559	0.276
Mof_H 	H 	0.9415	0.6712	0.3205	0.231
Mof_H 	H 	0.8908	0.6863	0.3757	0.253
Mof_C 	C 	0.6986	0.7925	0.404	-0.079
Mof_H 	H 	0.7133	0.7697	0.4545	0.044
Mof_H 	H 	0.6658	0.8035	0.4299	0.028
Mof_C 	C 	0.7422	0.7525	0.2583	0.007
Mof_H 	H 	0.7604	0.7296	0.3048	0.026
Mof_C 	C 	0.9613	0.6771	0.9996	-0.788
Mof_H 	H 	0.9879	0.6808	0.0497	0.237
Mof_H 	H 	0.9667	0.6465	0.9609	0.216
Mof_H 	H 	0.9291	0.6753	0.0341	0.246
Mof_C 	C 	0.0142	0.7234	0.8753	-0.705
Mof_H 	H 	0.0157	0.7531	0.8326	0.163
Mof_H 	H 	0.0188	0.6936	0.8336	0.163
Mof_H 	H 	0.0406	0.7249	0.9263	0.224
Mof_C 	C 	0.9227	0.713	0.8461	-0.691
Mof_H 	H 	0.8904	0.7056	0.8768	0.214
Mof_H 	H 	0.9329	0.6852	0.8031	0.138
Mof_H 	H 	0.92	0.7433	0.8052	0.16
Mof_C 	C 	0.6913	0.7653	0.3081	-0.12
Mof_H 	H 	0.6714	0.7859	0.2612	0.047
Mof_H 	H 	0.6727	0.7342	0.3212	0.06
Mof_C 	C 	0.9025	0.5963	0.2041	-0.912
Mof_H 	H 	0.8894	0.5625	0.1971	0.26
Mof_H 	H 	0.9389	0.5954	0.2027	0.252
Mof_H 	H 	0.8904	0.6169	0.1483	0.276
Mof_C 	C 	0.733	0.5097	0.47	-0.067
Mof_H 	H 	0.762	0.4956	0.4403	0.007
Mof_C 	C 	0.9081	0.5875	0.3871	-0.816
Mof_H 	H 	0.9053	0.6062	0.4503	0.205
Mof_H 	H 	0.9433	0.581	0.3726	0.211
Mof_H 	H 	0.8903	0.5559	0.3935	0.23
Mof_C 	C 	0.7321	0.8376	0.3924	-0.057
Mof_H 	H 	0.7385	0.8523	0.4596	0.041
Mof_H 	H 	0.7149	0.863	0.3509	0.002
Mof_Br	Br	0.0917	0.1025	0.8808	0.51
Mof_O 	O 	0.2058	0.0735	0.0082	0.25
Mof_C 	C 	0.2155	0.0334	0.96	0.375
Mof_O 	O 	0.1848	0.0018	0.9371	-1.413
Mof_C 	C 	0.2683	0.0231	0.928	-5.148
Mof_H 	H 	0.2897	0.0505	0.9502	0.17
Mof_H 	H 	0.2797	0.992	0.9595	3.987
Mof_H 	H 	0.2699	0.0199	0.8548	2.127
Mof_C 	C 	0.9998	0.938	0.1135	0.172
Mof_H 	H 	0.9767	0.935	0.1673	0.236
Mof_C 	C 	0.0024	0.9013	0.04	-0.196
Mof_C 	C 	0.0362	0.9057	0.961	0.382
Mof_H 	H 	0.0379	0.8806	0.9108	-0.569
Mof_C 	C 	0.0674	0.9468	0.9559	-0.408
Mof_H 	H 	0.0905	0.9498	0.902	0.115
Mof_N 	N 	0.0648	0.9835	0.0295	0.157
Mof_C 	C 	0.031	0.9791	0.1083	0.099
Mof_H 	H 	0.0292	0.0042	0.1586	-0.058
Mof_N 	N 	0.6666	0.4976	0.5736	-0.067
Mof_C 	C 	0.6779	0.5718	0.4914	0.054
Mof_H 	H 	0.6661	0.6044	0.4773	0.009
Mof_C 	C 	0.6521	0.5429	0.555	0.1
Mof_H 	H 	0.623	0.5556	0.5862	0.009
Mof_C 	C 	0.7196	0.5564	0.4474	0.029
Mof_C 	C 	0.7054	0.4831	0.534	0.007
Mof_H 	H 	0.7165	0.4505	0.5495	0.082
Mof_Cd	Cd	0.1421	0.02861	0.9852	1.7
Mof_Br	Br	0.1036	0.0742	0.8241	-0.693
Mof_O 	O 	0.1998	0.976	0.8871	-0.607
Mof_O 	O 	0.2184	0.0537	0.964	-0.934
Mof_C 	C 	0.2831	0.0026	0.905	-3.652
Mof_H 	H 	0.3009	0.0324	0.9279	2.283
Mof_H 	H 	0.2927	0.9742	0.9467	-1.478
Mof_H 	H 	0.2916	0.9959	0.8344	0.464
Mof_C 	C 	0.2278	0.0111	0.914	3.212
Mof_N 	N 	0.0797	0.9723	0.9934	-0.051
Mof_C 	C 	0.0766	0.9367	0.9177	0.189
Mof_H 	H 	0.0977	0.9388	0.8604	-0.083
Mof_C 	C 	0.0425	0.8981	0.9257	0.129
Mof_H 	H 	0.0403	0.8737	0.874	0.399
Mof_C 	C 	0.0116	0.895	0.009	-0.128
Mof_C 	C 	0.0147	0.9306	0.0852	0.286
Mof_H 	H 	0.9936	0.9285	0.1425	-0.371
Mof_C 	C 	0.0488	0.9693	0.0772	-0.433
Mof_H 	H 	0.0509	0.9936	0.1289	0.176
Mof_C 	C 	0.7396	0.512	0.494	-0.024
Mof_H 	H 	0.7646	0.495	0.4572	0.022
Mof_C 	C 	0.7298	0.5618	0.4743	0.006
Mof_C 	C 	0.6932	0.5867	0.5283	-0.151
Mof_H 	H 	0.6865	0.6207	0.5148	0.064
Mof_C 	C 	0.6662	0.5617	0.6021	-0.079
Mof_H 	H 	0.6412	0.5787	0.639	0.059
Mof_N 	N 	0.676	0.5119	0.6219	-0.082
Mof_C 	C 	0.7126	0.487	0.568	0.012
Mof_H 	H 	0.7193	0.453	0.5815	-0.06
Mof_Ti	Ti	0.77418	0.30573	0.32129	1.375
Mof_O 	O 	0.8257	0.3225	0.4191	-0.505
Mof_N 	N 	0.7732	0.2367	0.4102	-0.242
Mof_H 	H 	0.7538	0.2117	0.3703	0.035
Mof_N 	N 	0.7162	0.3208	0.4411	-0.221
Mof_H 	H 	0.731	0.3437	0.4923	0.073
Mof_O 	O 	0.7625	0.3722	0.2905	-0.509
Mof_C 	C 	0.7008	0.2743	0.4934	0.027
Mof_H 	H 	0.6775	0.2559	0.4479	-0
Mof_C 	C 	0.6715	0.3458	0.3964	-0.051
Mof_H 	H 	0.6472	0.3519	0.451	0.057
Mof_H 	H 	0.6559	0.3226	0.3479	0.045
Mof_C 	C 	0.9107	0.30286	0.6271	0.084
Mof_H 	H 	0.9299	0.3215	0.674	-0.035
Mof_C 	C 	0.882	0.32723	0.5553	-0.31
Mof_C 	C 	0.85402	0.29993	0.4868	0.303
Mof_C 	C 	0.8547	0.24827	0.4901	-0.141
Mof_C 	C 	0.8834	0.2239	0.5619	0.01
Mof_H 	H 	0.8839	0.1886	0.5641	0.022
Mof_C 	C 	0.9114	0.2512	0.6304	-0.078
Mof_C 	C 	0.64177	0.4276	0.3387	-0.092
Mof_H 	H 	0.6118	0.4202	0.3735	0.081
Mof_C 	C 	0.646	0.4715	0.284	0.103
Mof_C 	C 	0.6899	0.48229	0.2331	-0.023
Mof_H 	H 	0.6927	0.5123	0.1957	0.029
Mof_C 	C 	0.7295	0.4492	0.237	-0.211
Mof_C 	C 	0.72534	0.40535	0.2917	0.258
Mof_C 	C 	0.6815	0.39454	0.3426	-0.062
Mof_Cd	Cd	0.45282	0.62627	0.2889	-1.146
Mof_C 	C 	0.8247	0.2172	0.4185	-0.006
Mof_H 	H 	0.8406	0.2175	0.3512	-0.014
Mof_H 	H 	0.8238	0.1824	0.4428	0.027
Mof_C 	C 	0.8822	0.3856	0.5513	0.624
Mof_C 	C 	0.6753	0.2816	0.5931	-0.146
Mof_H 	H 	0.6444	0.301	0.5828	0.067
Mof_H 	H 	0.6973	0.3008	0.6385	0.065
Mof_C 	C 	0.7791	0.4617	0.1796	0.47
Mof_C 	C 	0.8283	0.4052	0.5646	-0.853
Mof_H 	H 	0.8083	0.3956	0.5059	0.276
Mof_H 	H 	0.8288	0.4415	0.5705	0.231
Mof_H 	H 	0.8137	0.3908	0.6257	0.252
Mof_C 	C 	0.7075	0.1986	0.654	-0.08
Mof_H 	H 	0.7303	0.2133	0.7045	0.044
Mof_H 	H 	0.6965	0.1658	0.6799	0.028
Mof_C 	C 	0.7475	0.2422	0.5083	0.006
Mof_H 	H 	0.7704	0.2604	0.5548	0.026
Mof_C 	C 	0.8229	0.4613	0.2496	-0.757
Mof_H 	H 	0.8192	0.4879	0.2997	0.225
Mof_H 	H 	0.8535	0.4667	0.2109	0.208
Mof_H 	H 	0.8247	0.4291	0.2841	0.235
Mof_C 	C 	0.7766	0.5142	0.1253	-0.692
Mof_H 	H 	0.7469	0.5157	0.0826	0.16
Mof_H 	H 	0.8064	0.5188	0.0836	0.161
Mof_H 	H 	0.7751	0.5406	0.1763	0.223
Mof_C 	C 	0.787	0.4227	0.0961	-0.68
Mof_H 	H 	0.7944	0.3904	0.1268	0.211
Mof_H 	H 	0.8148	0.4329	0.0531	0.135
Mof_H 	H 	0.7567	0.42	0.0552	0.157
Mof_C 	C 	0.7347	0.1913	0.5581	-0.119
Mof_H 	H 	0.7141	0.1714	0.5112	0.046
Mof_H 	H 	0.7658	0.1727	0.5712	0.06
Mof_C 	C 	0.9037	0.4025	0.4541	-0.911
Mof_H 	H 	0.9375	0.3894	0.4471	0.26
Mof_H 	H 	0.9046	0.4389	0.4527	0.252
Mof_H 	H 	0.8831	0.3904	0.3983	0.276
Mof_C 	C 	0.9903	0.233	0.72	-0.067
Mof_H 	H 	0.0044	0.262	0.6903	0.007
Mof_C 	C 	0.9125	0.4081	0.6371	-0.815
Mof_H 	H 	0.8938	0.4053	0.7003	0.204
Mof_H 	H 	0.919	0.4433	0.6226	0.211
Mof_H 	H 	0.9441	0.3903	0.6435	0.229
Mof_C 	C 	0.6624	0.2321	0.6424	-0.057
Mof_H 	H 	0.6477	0.2385	0.7096	0.04
Mof_H 	H 	0.637	0.2149	0.6009	0.002
Mof_Br	Br	0.3975	0.5917	0.1308	0.491
Mof_O 	O 	0.4265	0.7058	0.2582	0.252
Mof_C 	C 	0.4666	0.7155	0.21	0.393
Mof_O 	O 	0.4982	0.6848	0.1871	-1.456
Mof_C 	C 	0.4769	0.7683	0.178	-5.265
Mof_H 	H 	0.4495	0.7897	0.2002	0.178
Mof_H 	H 	0.508	0.7797	0.2095	4.075
Mof_H 	H 	0.4801	0.7699	0.1048	2.172
Mof_C 	C 	0.562	0.4998	0.3635	0.174
Mof_H 	H 	0.565	0.4767	0.4173	0.223
Mof_C 	C 	0.5987	0.5024	0.29	-0.179
Mof_C 	C 	0.5943	0.5362	0.211	0.333
Mof_H 	H 	0.6194	0.5379	0.1608	-0.523
Mof_C 	C 	0.5532	0.5674	0.2059	-0.374
Mof_H 	H 	0.5502	0.5905	0.152	0.084
Mof_N 	N 	0.5165	0.5648	0.2795	0.144
Mof_C 	C 	0.5209	0.531	0.3583	0.115
Mof_H 	H 	0.4958	0.5292	0.4086	-0.059
Mof_N 	N 	0.0024	0.1666	0.8236	-0.066
Mof_C 	C 	0.9282	0.1779	0.7414	0.053
Mof_H 	H 	0.8956	0.1661	0.7273	0.009
Mof_C 	C 	0.9571	0.1521	0.805	0.099
Mof_H 	H 	0.9444	0.123	0.8362	0.009
Mof_C 	C 	0.9436	0.2196	0.6974	0.029
Mof_C 	C 	0.0169	0.2054	0.784	0.007
Mof_H 	H 	0.0495	0.2165	0.7995	0.083
Mof_Cd	Cd	0.47139	0.6421	0.2352	1.774
Mof_Br	Br	0.4258	0.6036	0.0741	-0.681
Mof_O 	O 	0.524	0.6998	0.1371	-0.605
Mof_O 	O 	0.4463	0.7184	0.214	-0.952
Mof_C 	C 	0.4974	0.7831	0.155	-3.72
Mof_H 	H 	0.4676	0.8009	0.1779	2.329
Mof_H 	H 	0.5258	0.7927	0.1967	-1.51
Mof_H 	H 	0.5041	0.7916	0.0844	0.476
Mof_C 	C 	0.4889	0.7278	0.164	3.272
Mof_N 	N 	0.5277	0.5797	0.2434	-0.051
Mof_C 	C 	0.5633	0.5766	0.1677	0.203
Mof_H 	H 	0.5612	0.5977	0.1104	-0.068
Mof_C 	C 	0.6019	0.5425	0.1757	0.133
Mof_H 	H 	0.6263	0.5403	0.124	0.367
Mof_C 	C 	0.605	0.5116	0.259	-0.113
Mof_C 	C 	0.5694	0.5147	0.3352	0.252
Mof_H 	H 	0.5715	0.4936	0.3925	-0.352
Mof_C 	C 	0.5307	0.5488	0.3272	-0.425
Mof_H 	H 	0.5064	0.5509	0.3789	0.167
Mof_C 	C 	0.988	0.2396	0.744	-0.025
Mof_H 	H 	0.005	0.2646	0.7072	0.022
Mof_C 	C 	0.9382	0.2298	0.7243	0.006
Mof_C 	C 	0.9133	0.1932	0.7783	-0.151
Mof_H 	H 	0.8793	0.1865	0.7648	0.063
Mof_C 	C 	0.9383	0.1662	0.8521	-0.078
Mof_H 	H 	0.9213	0.1412	0.889	0.058
Mof_N 	N 	0.9881	0.176	0.8719	-0.083
Mof_C 	C 	0.013	0.2126	0.818	0.012
Mof_H 	H 	0.047	0.2193	0.8315	-0.061
Mof_Ti	Ti	0.22582	0.69427	0.82129	1.374
Mof_O 	O 	0.1743	0.6775	0.9191	-0.506
Mof_N 	N 	0.2268	0.7633	0.9102	-0.246
Mof_H 	H 	0.2462	0.7883	0.8703	0.035
Mof_N 	N 	0.2838	0.6792	0.9411	-0.218
Mof_H 	H 	0.269	0.6563	0.9923	0.071
Mof_O 	O 	0.2375	0.6278	0.7905	-0.51
Mof_C 	C 	0.2992	0.7257	0.9934	0.007
Mof_H 	H 	0.3225	0.7441	0.9479	0.003
Mof_C 	C 	0.3285	0.6542	0.8964	-0.051
Mof_H 	H 	0.3528	0.6481	0.951	0.056
Mof_H 	H 	0.3441	0.6774	0.8479	0.045
Mof_C 	C 	0.0893	0.69714	0.1271	0.087
Mof_H 	H 	0.0701	0.6785	0.174	-0.036
Mof_C 	C 	0.118	0.67277	0.0553	-0.308
Mof_C 	C 	0.14598	0.70007	0.9868	0.301
Mof_C 	C 	0.1453	0.75173	0.9901	-0.152
Mof_C 	C 	0.1166	0.7761	0.0619	0.023
Mof_H 	H 	0.1161	0.8114	0.0641	0.02
Mof_C 	C 	0.0886	0.7488	0.1304	-0.082
Mof_C 	C 	0.35823	0.5724	0.8387	-0.092
Mof_H 	H 	0.3882	0.5798	0.8735	0.08
Mof_C 	C 	0.354	0.5285	0.784	0.104
Mof_C 	C 	0.3101	0.51771	0.7331	-0.024
Mof_H 	H 	0.3073	0.4877	0.6957	0.029
Mof_C 	C 	0.2705	0.5508	0.737	-0.21
Mof_C 	C 	0.27466	0.59465	0.7917	0.257
Mof_C 	C 	0.3185	0.60546	0.8426	-0.062
Mof_Cd	Cd	0.54718	0.37373	0.7889	-1.144
Mof_C 	C 	0.1753	0.7828	0.9185	-0.001
Mof_H 	H 	0.1594	0.7825	0.8512	-0.015
Mof_H 	H 	0.1762	0.8176	0.9428	0.023
Mof_C 	C 	0.1178	0.6144	0.0513	0.637
Mof_C 	C 	0.3247	0.7184	0.0931	-0.127
Mof_H 	H 	0.3556	0.699	0.0828	0.064
Mof_H 	H 	0.3027	0.6992	0.1385	0.061
Mof_C 	C 	0.2209	0.5383	0.6796	0.467
Mof_C 	C 	0.1717	0.5948	0.0646	-0.865
Mof_H 	H 	0.1917	0.6044	0.0059	0.282
Mof_H 	H 	0.1712	0.5585	0.0705	0.236
Mof_H 	H 	0.1863	0.6092	0.1257	0.256
Mof_C 	C 	0.2925	0.8014	0.154	-0.067
Mof_H 	H 	0.2697	0.7867	0.2045	0.041
Mof_H 	H 	0.3035	0.8342	0.1799	0.024
Mof_C 	C 	0.2525	0.7578	0.0083	0.024
Mof_H 	H 	0.2296	0.7396	0.0548	0.023
Mof_C 	C 	0.1771	0.5387	0.7496	-0.753
Mof_H 	H 	0.1808	0.5121	0.7997	0.224
Mof_H 	H 	0.1465	0.5333	0.7109	0.206
Mof_H 	H 	0.1753	0.5709	0.7841	0.233
Mof_C 	C 	0.2234	0.4858	0.6253	-0.689
Mof_H 	H 	0.2531	0.4843	0.5826	0.159
Mof_H 	H 	0.1936	0.4812	0.5836	0.16
Mof_H 	H 	0.2249	0.4594	0.6763	0.222
Mof_C 	C 	0.213	0.5773	0.5961	-0.676
Mof_H 	H 	0.2056	0.6096	0.6268	0.21
Mof_H 	H 	0.1852	0.5671	0.5531	0.133
Mof_H 	H 	0.2433	0.58	0.5552	0.155
Mof_C 	C 	0.2653	0.8087	0.0581	-0.132
Mof_H 	H 	0.2859	0.8286	0.0112	0.053
Mof_H 	H 	0.2342	0.8273	0.0712	0.066
Mof_C 	C 	0.0963	0.5975	0.9541	-0.929
Mof_H 	H 	0.0625	0.6106	0.9471	0.262
Mof_H 	H 	0.0954	0.5611	0.9527	0.255
Mof_H 	H 	0.1169	0.6096	0.8983	0.28
Mof_C 	C 	0.0097	0.767	0.22	-0.07
Mof_H 	H 	0.9956	0.738	0.1903	0.008
Mof_C 	C 	0.0875	0.5919	0.1371	-0.826
Mof_H 	H 	0.1062	0.5947	0.2003	0.207
Mof_H 	H 	0.081	0.5567	0.1226	0.215
Mof_H 	H 	0.0559	0.6097	0.1435	0.233
Mof_C 	C 	0.3376	0.7679	0.1424	-0.071
Mof_H 	H 	0.3523	0.7615	0.2096	0.045
Mof_H 	H 	0.363	0.7851	0.1009	0.007
Mof_Br	Br	0.6025	0.4083	0.6308	0.494
Mof_O 	O 	0.5735	0.2942	0.7582	0.251
Mof_C 	C 	0.5334	0.2845	0.71	0.391
Mof_O 	O 	0.5018	0.3152	0.6871	-1.452
Mof_C 	C 	0.5231	0.2317	0.678	-5.248
Mof_H 	H 	0.5505	0.2103	0.7002	0.177
Mof_H 	H 	0.492	0.2203	0.7095	4.063
Mof_H 	H 	0.5199	0.2301	0.6048	2.165
Mof_C 	C 	0.438	0.5002	0.8635	0.175
Mof_H 	H 	0.435	0.5233	0.9173	0.221
Mof_C 	C 	0.4013	0.4976	0.79	-0.182
Mof_C 	C 	0.4057	0.4638	0.711	0.336
Mof_H 	H 	0.3806	0.4621	0.6608	-0.526
Mof_C 	C 	0.4468	0.4326	0.7059	-0.378
Mof_H 	H 	0.4498	0.4095	0.652	0.088
Mof_N 	N 	0.4835	0.4352	0.7795	0.144
Mof_C 	C 	0.4791	0.469	0.8583	0.116
Mof_H 	H 	0.5042	0.4708	0.9086	-0.061
Mof_N 	N 	0.9976	0.8334	0.3236	-0.065
Mof_C 	C 	0.0718	0.8221	0.2414	0.05
Mof_H 	H 	0.1044	0.8339	0.2273	0.01
Mof_C 	C 	0.0429	0.8479	0.305	0.101
Mof_H 	H 	0.0556	0.877	0.3362	0.008
Mof_C 	C 	0.0564	0.7804	0.1974	0.028
Mof_C 	C 	0.9831	0.7946	0.284	0.008
Mof_H 	H 	0.9505	0.7835	0.2995	0.08
Mof_Cd	Cd	0.52861	0.3579	0.7352	1.77
Mof_Br	Br	0.5742	0.3964	0.5741	-0.687
Mof_O 	O 	0.476	0.3002	0.6371	-0.605
Mof_O 	O 	0.5537	0.2816	0.714	-0.949
Mof_C 	C 	0.5026	0.2169	0.655	-3.71
Mof_H 	H 	0.5324	0.1991	0.6779	2.322
Mof_H 	H 	0.4742	0.2073	0.6967	-1.507
Mof_H 	H 	0.4959	0.2084	0.5844	0.473
Mof_C 	C 	0.5111	0.2722	0.664	3.262
Mof_N 	N 	0.4723	0.4203	0.7434	-0.049
Mof_C 	C 	0.4367	0.4234	0.6677	0.201
Mof_H 	H 	0.4388	0.4023	0.6104	-0.071
Mof_C 	C 	0.3981	0.4575	0.6757	0.133
Mof_H 	H 	0.3737	0.4597	0.624	0.369
Mof_C 	C 	0.395	0.4884	0.759	-0.113
Mof_C 	C 	0.4306	0.4853	0.8352	0.252
Mof_H 	H 	0.4285	0.5064	0.8925	-0.352
Mof_C 	C 	0.4693	0.4512	0.8272	-0.426
Mof_H 	H 	0.4936	0.4491	0.8789	0.167
Mof_C 	C 	0.012	0.7604	0.244	-0.024
Mof_H 	H 	0.995	0.7354	0.2072	0.023
Mof_C 	C 	0.0618	0.7702	0.2243	0.009
Mof_C 	C 	0.0867	0.8068	0.2783	-0.148
Mof_H 	H 	0.1207	0.8135	0.2648	0.062
Mof_C 	C 	0.0617	0.8338	0.3521	-0.079
Mof_H 	H 	0.0787	0.8588	0.389	0.059
Mof_N 	N 	0.0119	0.824	0.3719	-0.085
Mof_C 	C 	0.987	0.7874	0.318	0.014
Mof_H 	H 	0.953	0.7807	0.3315	-0.058
Mof_O 	O 	0.2763	0.7237	0.75	-0.696
Mof_O 	O 	0.7237	0.2763	0.25	-0.696
Mof_O 	O 	0.7763	0.7763	-0	-0.692
Mof_O 	O 	0.2237	0.2237	0.5	-0.696
_end
