data_functionalizedCrystal
_audit_creation_method	'EQeq! by Chris Wilmer'
_symmetry_space_group_name_H-M	'P1'
_symmetry_Int_Tables_number	1
_symmetry_cell_setting	triclinic
loop_
_symmetry_equiv_pos_as_xyz
  x,y,z
_cell_length_a	20.7803
_cell_length_b	7.9154
_cell_length_c	17.299
_cell_angle_alpha	90
_cell_angle_beta	90
_cell_angle_gamma	90
loop_
_atom_site_label
_atom_site_type_symbol
_atom_site_fract_x
_atom_site_fract_y
_atom_site_fract_z
_atom_site_charge
Mof_O 	O 	0.2454	0.431	0.36	-0.264
Mof_O 	O 	0.3152	0.2797	0.2924	-0.253
Mof_O 	O 	0.3931	0.9756	0.3304	-0.162
Mof_O 	O 	0.4624	0.1861	0.3389	-0.219
Mof_C 	C 	0.3233	0.2757	0.4299	-0.058
Mof_C 	C 	0.3784	0.1742	0.4301	0.002
Mof_C 	C 	0.2935	0.333	0.3554	0.308
Mof_C 	C 	0.4125	0.1095	0.3597	0.208
Mof_O 	O 	0.7454	0.931	0.86	-0.217
Mof_O 	O 	0.8152	0.7797	0.7924	-0.23
Mof_O 	O 	0.8931	0.4756	0.8304	-0.247
Mof_O 	O 	0.9624	0.6861	0.8389	-0.201
Mof_C 	C 	0.8233	0.7757	0.9299	-0.006
Mof_C 	C 	0.8784	0.6742	0.9301	-0.005
Mof_C 	C 	0.7935	0.833	0.8554	0.3
Mof_C 	C 	0.9125	0.6095	0.8597	0.296
Mof_O 	O 	0.7546	0.569	0.36	-0.251
Mof_O 	O 	0.6848	0.7203	0.2924	-0.231
Mof_O 	O 	0.6069	0.0244	0.3304	-0.319
Mof_O 	O 	0.5376	0.8139	0.3389	-0.239
Mof_C 	C 	0.6767	0.7243	0.4299	-0.003
Mof_C 	C 	0.6216	0.8258	0.4301	-0.051
Mof_C 	C 	0.7065	0.667	0.3554	0.301
Mof_C 	C 	0.5875	0.8905	0.3597	0.39
Mof_O 	O 	0.2546	0.069	0.86	-0.271
Mof_O 	O 	0.1848	0.2203	0.7924	-0.262
Mof_O 	O 	0.1069	0.5244	0.8304	-0.25
Mof_O 	O 	0.0376	0.3139	0.8389	-0.26
Mof_C 	C 	0.1767	0.2243	0.9299	-0.026
Mof_C 	C 	0.1216	0.3258	0.9301	-0.018
Mof_C 	C 	0.2065	0.167	0.8554	0.301
Mof_C 	C 	0.0875	0.3905	0.8597	0.299
Mof_O 	O 	0.2546	0.931	0.64	-0.222
Mof_O 	O 	0.1848	0.7797	0.7076	-0.233
Mof_O 	O 	0.1069	0.4756	0.6696	-0.265
Mof_O 	O 	0.0376	0.6861	0.6611	-0.24
Mof_C 	C 	0.1767	0.7757	0.5701	-0.016
Mof_C 	C 	0.1216	0.6742	0.5699	-0.036
Mof_C 	C 	0.2065	0.833	0.6446	0.299
Mof_C 	C 	0.0875	0.6095	0.6403	0.305
Mof_O 	O 	0.7546	0.431	0.14	-0.263
Mof_O 	O 	0.6848	0.2797	0.2076	-0.252
Mof_O 	O 	0.6069	0.9756	0.1696	-0.163
Mof_O 	O 	0.5376	0.1861	0.1611	-0.219
Mof_C 	C 	0.6767	0.2757	0.0701	-0.055
Mof_C 	C 	0.6216	0.1742	0.0699	0.005
Mof_C 	C 	0.7065	0.333	0.1446	0.307
Mof_C 	C 	0.5875	0.1095	0.1403	0.207
Mof_O 	O 	0.7454	0.069	0.64	-0.275
Mof_O 	O 	0.8152	0.2203	0.7076	-0.26
Mof_O 	O 	0.8931	0.5244	0.6696	-0.238
Mof_O 	O 	0.9624	0.3139	0.6611	-0.227
Mof_C 	C 	0.8233	0.2243	0.5701	-0.045
Mof_C 	C 	0.8784	0.3258	0.5699	-0.018
Mof_C 	C 	0.7935	0.167	0.6446	0.307
Mof_C 	C 	0.9125	0.3905	0.6403	0.296
Mof_O 	O 	0.2454	0.569	0.14	-0.253
Mof_O 	O 	0.3152	0.7203	0.2076	-0.231
Mof_O 	O 	0.3931	0.0244	0.1696	-0.319
Mof_O 	O 	0.4624	0.8139	0.1611	-0.24
Mof_C 	C 	0.3233	0.7243	0.0701	-0.001
Mof_C 	C 	0.3784	0.8258	0.0699	-0.047
Mof_C 	C 	0.2935	0.667	0.1446	0.299
Mof_C 	C 	0.4125	0.8905	0.1403	0.388
Mof_O 	O 	0.7546	0.569	0.64	-0.251
Mof_O 	O 	0.6848	0.7203	0.7076	-0.231
Mof_O 	O 	0.6069	0.0244	0.6696	-0.319
Mof_O 	O 	0.5376	0.8139	0.6611	-0.239
Mof_C 	C 	0.6767	0.7243	0.5701	-0.003
Mof_C 	C 	0.6216	0.8258	0.5699	-0.051
Mof_C 	C 	0.7065	0.667	0.6446	0.3
Mof_C 	C 	0.5875	0.8905	0.6403	0.39
Mof_O 	O 	0.2546	0.069	0.14	-0.276
Mof_O 	O 	0.1848	0.2203	0.2076	-0.263
Mof_O 	O 	0.1069	0.5244	0.1696	-0.253
Mof_O 	O 	0.0376	0.3139	0.1611	-0.264
Mof_C 	C 	0.1767	0.2243	0.0701	-0.038
Mof_C 	C 	0.1216	0.3258	0.0699	-0.03
Mof_C 	C 	0.2065	0.167	0.1446	0.303
Mof_C 	C 	0.0875	0.3905	0.1403	0.301
Mof_O 	O 	0.2454	0.431	0.64	-0.263
Mof_O 	O 	0.3152	0.2797	0.7076	-0.252
Mof_O 	O 	0.3931	0.9756	0.6696	-0.162
Mof_O 	O 	0.4624	0.1861	0.6611	-0.219
Mof_C 	C 	0.3233	0.2757	0.5701	-0.058
Mof_C 	C 	0.3784	0.1742	0.5699	0.002
Mof_C 	C 	0.2935	0.333	0.6446	0.308
Mof_C 	C 	0.4125	0.1095	0.6403	0.208
Mof_O 	O 	0.7454	0.931	0.14	-0.222
Mof_O 	O 	0.8152	0.7797	0.2076	-0.23
Mof_O 	O 	0.8931	0.4756	0.1696	-0.25
Mof_O 	O 	0.9624	0.6861	0.1611	-0.205
Mof_C 	C 	0.8233	0.7757	0.0701	-0.018
Mof_C 	C 	0.8784	0.6742	0.0699	-0.017
Mof_C 	C 	0.7935	0.833	0.1446	0.301
Mof_C 	C 	0.9125	0.6095	0.1403	0.297
Mof_O 	O 	0.7454	0.069	0.36	-0.275
Mof_O 	O 	0.8152	0.2203	0.2924	-0.26
Mof_O 	O 	0.8931	0.5244	0.3304	-0.238
Mof_O 	O 	0.9624	0.3139	0.3389	-0.228
Mof_C 	C 	0.8233	0.2243	0.4299	-0.045
Mof_C 	C 	0.8784	0.3258	0.4301	-0.018
Mof_C 	C 	0.7935	0.167	0.3554	0.307
Mof_C 	C 	0.9125	0.3905	0.3597	0.296
Mof_O 	O 	0.2454	0.569	0.86	-0.248
Mof_O 	O 	0.3152	0.7203	0.7924	-0.23
Mof_O 	O 	0.3931	0.0244	0.8304	-0.316
Mof_O 	O 	0.4624	0.8139	0.8389	-0.236
Mof_C 	C 	0.3233	0.7243	0.9299	0.011
Mof_C 	C 	0.3784	0.8258	0.9301	-0.035
Mof_C 	C 	0.2935	0.667	0.8554	0.297
Mof_C 	C 	0.4125	0.8905	0.8597	0.387
Mof_O 	O 	0.2546	0.931	0.36	-0.222
Mof_O 	O 	0.1848	0.7797	0.2924	-0.233
Mof_O 	O 	0.1069	0.4756	0.3304	-0.265
Mof_O 	O 	0.0376	0.6861	0.3389	-0.241
Mof_C 	C 	0.1767	0.7757	0.4299	-0.016
Mof_C 	C 	0.1216	0.6742	0.4301	-0.036
Mof_C 	C 	0.2065	0.833	0.3554	0.3
Mof_C 	C 	0.0875	0.6095	0.3597	0.305
Mof_O 	O 	0.7546	0.431	0.86	-0.258
Mof_O 	O 	0.6848	0.2797	0.7924	-0.252
Mof_O 	O 	0.6069	0.9756	0.8304	-0.16
Mof_O 	O 	0.5376	0.1861	0.8389	-0.215
Mof_C 	C 	0.6767	0.2757	0.9299	-0.043
Mof_C 	C 	0.6216	0.1742	0.9301	0.017
Mof_C 	C 	0.7065	0.333	0.8554	0.306
Mof_C 	C 	0.5875	0.1095	0.8597	0.205
Mof_Cd	Cd	0.5	0	0.25	0.454
Mof_Cd	Cd	2.34095e-33	0.5	0.75	0.482
Mof_Cd	Cd	0.5	0	0.75	0.454
Mof_Cd	Cd	-5.87343e-33	0.5	0.25	0.481
Mof_Cd	Cd	0.30182	0	0.25	0.461
Mof_Cd	Cd	0.69818	0	0.25	0.462
Mof_Cd	Cd	0.19818	0.5	0.75	0.528
Mof_Cd	Cd	0.80182	0.5	0.75	0.529
Mof_Cd	Cd	0.69818	0	0.75	0.462
Mof_Cd	Cd	0.19818	0.5	0.25	0.527
Mof_Cd	Cd	0.30182	0	0.75	0.461
Mof_Cd	Cd	0.80182	0.5	0.25	0.528
Mof_C 	C 	0.2974	0.3296	0.5	0.008
Mof_H 	H 	0.2623	0.4026	0.5	0.067
Mof_C 	C 	0.4051	0.1299	0.5	-0.046
Mof_H 	H 	0.4429	0.0672	0.5	0.057
Mof_C 	C 	0.7974	0.8296	-0	-0.029
Mof_H 	H 	0.7623	0.9026	-0	0.093
Mof_C 	C 	0.9051	0.6299	-0	-0.027
Mof_H 	H 	0.9429	0.5672	-0	0.074
Mof_C 	C 	0.7026	0.6704	0.5	-0.022
Mof_H 	H 	0.7377	0.5974	0.5	0.085
Mof_C 	C 	0.5949	0.8701	0.5	0.032
Mof_H 	H 	0.5571	0.9328	0.5	0.068
Mof_C 	C 	0.2026	0.1704	-0	-0.026
Mof_H 	H 	0.2377	0.0974	-0	0.065
Mof_C 	C 	0.0949	0.3701	-0	-0.026
Mof_H 	H 	0.0571	0.4328	-0	0.055
Mof_C 	C 	0.2026	0.8296	0.5	-0.016
Mof_H 	H 	0.2377	0.9026	0.5	0.092
Mof_C 	C 	0.0949	0.6299	0.5	0.006
Mof_H 	H 	0.0571	0.5672	0.5	0.048
Mof_C 	C 	0.7026	0.3296	-0	-0.012
Mof_H 	H 	0.7377	0.4026	-0	0.071
Mof_C 	C 	0.5949	0.1299	-0	-0.067
Mof_H 	H 	0.5571	0.0672	-0	0.06
Mof_C 	C 	0.7974	0.1704	0.5	0.001
Mof_H 	H 	0.7623	0.0974	0.5	0.061
Mof_C 	C 	0.9051	0.3701	0.5	-0.015
Mof_H 	H 	0.9429	0.4328	0.5	0.075
Mof_C 	C 	0.2974	0.6704	-0	-0.042
Mof_H 	H 	0.2623	0.5974	-0	0.087
Mof_C 	C 	0.4051	0.8701	-0	0.009
Mof_H 	H 	0.4429	0.9328	-0	0.071
_end
