data_functionalizedCrystal
_audit_creation_method	'EQeq! by Chris Wilmer'
_symmetry_space_group_name_H-M	'P1'
_symmetry_Int_Tables_number	1
_symmetry_cell_setting	triclinic
loop_
_symmetry_equiv_pos_as_xyz
  x,y,z
_cell_length_a	17.4095
_cell_length_b	10.1198
_cell_length_c	17.547
_cell_angle_alpha	90
_cell_angle_beta	90
_cell_angle_gamma	90
loop_
_atom_site_label
_atom_site_type_symbol
_atom_site_fract_x
_atom_site_fract_y
_atom_site_fract_z
_atom_site_charge
Mof_Er	Er	0.82147	0.87987	0.27263	2.019
Mof_Er	Er	0.52092	0.84113	0.25839	1.959
Mof_O 	O 	0.921	0.8951	0.1955	-0.591
Mof_O 	O 	0.0855	0.0723	0.8628	-0.544
Mof_O 	O 	0.7478	0.949	0.1687	-0.525
Mof_O 	O 	0.6976	0.2201	0.8684	-0.489
Mof_O 	O 	0.7159	0.9372	0.3325	-0.596
Mof_C 	C 	0.6796	0.9322	0.152	0.507
Mof_O 	O 	0.6298	0.8797	0.1956	-0.557
Mof_O 	O 	0.5929	0.9119	0.3646	-0.532
Mof_C 	C 	0.661	0.9383	0.3779	0.546
Mof_C 	C 	0.68	0.9943	0.4546	-0.177
Mof_C 	C 	0.7487	0.0391	0.4801	0.038
Mof_H 	H 	0.7937	0.0347	0.4515	0.005
Mof_C 	C 	0.6514	0.9746	0.0762	-0.164
Mof_S 	S 	0.70251	0.0789	0.01899	0.063
Mof_O 	O 	0.5741	0.1155	0.6703	-0.536
Mof_C 	C 	0.6389	0.1543	0.8789	0.485
Mof_O 	O 	0.6916	0.1907	0.7014	-0.509
Mof_O 	O 	0.5837	0.1472	0.8334	-0.585
Mof_C 	C 	0.6447	0.1334	0.6577	0.475
Mof_S 	S 	0.60997	0.0157	0.52158	0.075
Mof_S 	S 	0.04056	0.9623	0.01085	0.061
Mof_O 	O 	0.0364	0.8239	0.163	-0.473
Mof_C 	C 	0.5846	0.9343	0.0416	-0.011
Mof_H 	H 	0.55	0.8754	0.0634	0.029
Mof_C 	C 	0.9672	0.9547	0.076	-0.151
Mof_C 	C 	0.5746	0.9927	0.9692	0.02
Mof_H 	H 	0.5324	0.9771	0.9381	0.018
Mof_C 	C 	0.6329	0.0733	0.9504	-0.143
Mof_C 	C 	0.9775	0.8889	0.1496	0.481
Mof_C 	C 	0.9035	0.017	0.0503	-0.01
Mof_H 	H 	0.8581	0.0233	0.078	0.033
Mof_C 	C 	0.6738	0.0883	0.5833	-0.141
Mof_C 	C 	0.7455	0.0924	0.5535	-0.015
Mof_H 	H 	0.7878	0.1268	0.579	0.046
Mof_O 	O 	0.9706	0.1532	0.8295	-0.514
Mof_C 	C 	0.9838	0.0503	0.9488	-0.143
Mof_C 	C 	0.9133	0.0712	0.9771	0.022
Mof_H 	H 	0.8749	0.1166	0.9511	0.034
Mof_C 	C 	0.0167	0.0952	0.8747	0.487
Mof_Er	Er	0.17853	0.12013	0.77263	2.021
Mof_Er	Er	0.47908	0.15887	0.75839	1.961
Mof_O 	O 	0.079	0.1049	0.6955	-0.593
Mof_O 	O 	0.9145	0.9277	0.3628	-0.545
Mof_O 	O 	0.2522	0.051	0.6687	-0.526
Mof_O 	O 	0.3024	0.7799	0.3684	-0.491
Mof_O 	O 	0.2841	0.0628	0.8325	-0.596
Mof_C 	C 	0.3204	0.0678	0.652	0.511
Mof_O 	O 	0.3702	0.1203	0.6956	-0.558
Mof_O 	O 	0.4071	0.0881	0.8646	-0.531
Mof_C 	C 	0.339	0.0617	0.8779	0.547
Mof_C 	C 	0.32	0.0057	0.9546	-0.174
Mof_C 	C 	0.2513	0.9609	0.9801	0.059
Mof_H 	H 	0.2063	0.9653	0.9515	0.001
Mof_C 	C 	0.3486	0.0254	0.5762	-0.173
Mof_S 	S 	0.29749	0.9211	0.51899	0.081
Mof_O 	O 	0.4259	0.8845	0.1703	-0.535
Mof_C 	C 	0.3611	0.8457	0.3789	0.485
Mof_O 	O 	0.3084	0.8093	0.2014	-0.508
Mof_O 	O 	0.4163	0.8528	0.3334	-0.585
Mof_C 	C 	0.3553	0.8666	0.1577	0.471
Mof_S 	S 	0.39003	0.9843	0.02158	0.061
Mof_S 	S 	0.95944	0.0377	0.51085	0.075
Mof_O 	O 	0.9636	0.1761	0.663	-0.474
Mof_C 	C 	0.4154	0.0657	0.5416	0.01
Mof_H 	H 	0.45	0.1246	0.5634	0.023
Mof_C 	C 	0.0328	0.0453	0.576	-0.162
Mof_C 	C 	0.4254	0.0073	0.4692	0.001
Mof_H 	H 	0.4676	0.0229	0.4381	0.021
Mof_C 	C 	0.3671	0.9267	0.4504	-0.148
Mof_C 	C 	0.0225	0.1111	0.6496	0.486
Mof_C 	C 	0.0965	0.983	0.5503	0.016
Mof_H 	H 	0.1419	0.9767	0.578	0.026
Mof_C 	C 	0.3262	0.9117	0.0833	-0.132
Mof_C 	C 	0.2545	0.9076	0.0535	-0.038
Mof_H 	H 	0.2122	0.8732	0.079	0.053
Mof_O 	O 	0.0294	0.8468	0.3295	-0.513
Mof_C 	C 	0.0162	0.9497	0.4488	-0.143
Mof_C 	C 	0.0867	0.9288	0.4771	-0.001
Mof_H 	H 	0.1251	0.8834	0.4511	0.039
Mof_C 	C 	0.9833	0.9048	0.3747	0.483
Mof_Er	Er	0.32147	0.62013	0.27263	2.018
Mof_Er	Er	0.02092	0.65887	0.25839	1.96
Mof_O 	O 	0.421	0.6049	0.1955	-0.591
Mof_O 	O 	0.5855	0.4277	0.8628	-0.543
Mof_O 	O 	0.2478	0.551	0.1687	-0.525
Mof_O 	O 	0.1976	0.2799	0.8684	-0.489
Mof_O 	O 	0.2159	0.5628	0.3325	-0.596
Mof_C 	C 	0.1796	0.5678	0.152	0.506
Mof_O 	O 	0.1298	0.6203	0.1956	-0.557
Mof_O 	O 	0.0929	0.5881	0.3646	-0.532
Mof_C 	C 	0.161	0.5617	0.3779	0.546
Mof_C 	C 	0.18	0.5057	0.4546	-0.178
Mof_C 	C 	0.2487	0.4609	0.4801	0.038
Mof_H 	H 	0.2937	0.4653	0.4515	0.005
Mof_C 	C 	0.1514	0.5254	0.0762	-0.163
Mof_S 	S 	0.20251	0.4211	0.01899	0.063
Mof_O 	O 	0.0741	0.3845	0.6703	-0.536
Mof_C 	C 	0.1389	0.3457	0.8789	0.485
Mof_O 	O 	0.1916	0.3093	0.7014	-0.509
Mof_O 	O 	0.0837	0.3528	0.8334	-0.585
Mof_C 	C 	0.1447	0.3666	0.6577	0.475
Mof_S 	S 	0.10997	0.4843	0.52158	0.076
Mof_S 	S 	0.54056	0.5377	0.01085	0.059
Mof_O 	O 	0.5364	0.6761	0.163	-0.473
Mof_C 	C 	0.0846	0.5657	0.0416	-0.014
Mof_H 	H 	0.05	0.6246	0.0634	0.03
Mof_C 	C 	0.4672	0.5453	0.076	-0.151
Mof_C 	C 	0.0746	0.5073	0.9692	0.024
Mof_H 	H 	0.0324	0.5229	0.9381	0.017
Mof_C 	C 	0.1329	0.4267	0.9504	-0.144
Mof_C 	C 	0.4775	0.6111	0.1496	0.481
Mof_C 	C 	0.4035	0.483	0.0503	-0.012
Mof_H 	H 	0.3581	0.4767	0.078	0.033
Mof_C 	C 	0.1738	0.4117	0.5833	-0.141
Mof_C 	C 	0.2455	0.4076	0.5535	-0.015
Mof_H 	H 	0.2878	0.3732	0.579	0.046
Mof_O 	O 	0.4706	0.3468	0.8295	-0.514
Mof_C 	C 	0.4838	0.4497	0.9488	-0.142
Mof_C 	C 	0.4133	0.4288	0.9771	0.023
Mof_H 	H 	0.3749	0.3834	0.9511	0.034
Mof_C 	C 	0.5167	0.4048	0.8747	0.486
Mof_Er	Er	0.67854	0.37987	0.77263	2.021
Mof_Er	Er	0.97908	0.34113	0.75839	1.961
Mof_O 	O 	0.579	0.3951	0.6955	-0.592
Mof_O 	O 	0.4145	0.5723	0.3628	-0.545
Mof_O 	O 	0.7522	0.449	0.6687	-0.526
Mof_O 	O 	0.8024	0.7201	0.3684	-0.491
Mof_O 	O 	0.7841	0.4372	0.8325	-0.596
Mof_C 	C 	0.8204	0.4322	0.652	0.511
Mof_O 	O 	0.8702	0.3797	0.6956	-0.558
Mof_O 	O 	0.9071	0.4119	0.8646	-0.531
Mof_C 	C 	0.839	0.4383	0.8779	0.547
Mof_C 	C 	0.82	0.4943	0.9546	-0.174
Mof_C 	C 	0.7513	0.5391	0.9801	0.057
Mof_H 	H 	0.7063	0.5347	0.9515	0.002
Mof_C 	C 	0.8486	0.4746	0.5762	-0.172
Mof_S 	S 	0.79749	0.5789	0.51899	0.08
Mof_O 	O 	0.9259	0.6155	0.1703	-0.535
Mof_C 	C 	0.8611	0.6543	0.3789	0.485
Mof_O 	O 	0.8084	0.6907	0.2014	-0.508
Mof_O 	O 	0.9163	0.6472	0.3334	-0.586
Mof_C 	C 	0.8553	0.6334	0.1577	0.471
Mof_S 	S 	0.89003	0.5157	0.02158	0.061
Mof_S 	S 	0.45944	0.4623	0.51085	0.075
Mof_O 	O 	0.4636	0.3239	0.663	-0.474
Mof_C 	C 	0.9154	0.4343	0.5416	0.009
Mof_H 	H 	0.95	0.3754	0.5634	0.023
Mof_C 	C 	0.5328	0.4547	0.576	-0.16
Mof_C 	C 	0.9254	0.4927	0.4692	0.003
Mof_H 	H 	0.9676	0.4771	0.4381	0.021
Mof_C 	C 	0.8671	0.5733	0.4504	-0.149
Mof_C 	C 	0.5225	0.3889	0.6496	0.485
Mof_C 	C 	0.5965	0.517	0.5503	0.012
Mof_H 	H 	0.6419	0.5233	0.578	0.027
Mof_C 	C 	0.8262	0.5883	0.0833	-0.133
Mof_C 	C 	0.7545	0.5924	0.0535	-0.037
Mof_H 	H 	0.7122	0.6268	0.079	0.053
Mof_O 	O 	0.5294	0.6532	0.3295	-0.514
Mof_C 	C 	0.5162	0.5503	0.4488	-0.146
Mof_C 	C 	0.5867	0.5712	0.4771	0.002
Mof_H 	H 	0.6251	0.6166	0.4511	0.038
Mof_C 	C 	0.4833	0.5952	0.3747	0.486
_end
