data_functionalizedCrystal
_audit_creation_method	'EQeq! by Chris Wilmer'
_symmetry_space_group_name_H-M	'P1'
_symmetry_Int_Tables_number	1
_symmetry_cell_setting	triclinic
loop_
_symmetry_equiv_pos_as_xyz
  x,y,z
_cell_length_a	17.256
_cell_length_b	23.227
_cell_length_c	25.426
_cell_angle_alpha	90
_cell_angle_beta	90
_cell_angle_gamma	90
loop_
_atom_site_label
_atom_site_type_symbol
_atom_site_fract_x
_atom_site_fract_y
_atom_site_fract_z
_atom_site_charge
Mof_Zn	Zn	0.16391	0.34253	0.93779	1.211
Mof_O 	O 	0.2742	0.46544	0.06099	-0.514
Mof_O 	O 	0.185	0.41441	0.10325	-0.494
Mof_C 	C 	0.2307	0.4575	0.0991	0.404
Mof_C 	C 	0.2302	0.5001	0.1415	-0.137
Mof_C 	C 	0.2323	0.5802	0.2255	0.045
Mof_C 	C 	0.2871	0.5394	0.1467	-0.116
Mof_H 	H 	0.3291	0.5386	0.1238	0.067
Mof_C 	C 	0.2836	0.5817	0.1865	-0.211
Mof_H 	H 	0.3188	0.612	0.1854	0.084
Mof_C 	C 	0.1726	0.5404	0.2234	-0.223
Mof_H 	H 	0.1323	0.5425	0.2476	0.099
Mof_C 	C 	0.1725	0.4957	0.1838	-0.127
Mof_H 	H 	0.1373	0.4654	0.1851	0.073
Mof_C 	C 	0.2361	0.6205	0.2685	0.03
Mof_C 	C 	0.2881	0.6656	0.2654	-0.088
Mof_H 	H 	0.3197	0.6689	0.236	0.055
Mof_C 	C 	0.2946	0.7089	0.3078	0.007
Mof_H 	H 	0.3301	0.739	0.3063	0.035
Mof_C 	C 	0.2418	0.7017	0.3523	-0.102
Mof_C 	C 	0.1939	0.6542	0.3542	0.023
Mof_H 	H 	0.1636	0.6473	0.3837	0.034
Mof_C 	C 	0.1912	0.616	0.311	-0.098
Mof_H 	H 	0.1559	0.5859	0.3123	0.057
Mof_C 	C 	0.2465	0.7436	0.3958	0.343
Mof_O 	O 	0.2056	0.7314	0.4378	-0.486
Mof_O 	O 	0.2919	0.7864	0.3897	-0.508
Mof_O 	O 	0.0567	0.3538	0.0421	-0.569
Mof_C 	C 	0.8176	0.3879	0.0318	-0.037
Mof_H 	H 	0.7942	0.4126	0.0557	0.039
Mof_C 	C 	0.8958	0.384	0.0301	-0.011
Mof_H 	H 	0.9227	0.4067	0.0541	0.037
Mof_C 	C 	0.8956	0.3246	0.9553	-0.039
Mof_H 	H 	0.922	0.3066	0.928	0.05
Mof_C 	C 	0.8133	0.3269	0.9579	0.002
Mof_H 	H 	0.784	0.3088	0.932	0.032
Mof_C 	C 	0.259	0.556	0.1333	0.133
Mof_H 	H 	0.2812	0.5642	0.1009	-0.014
Mof_C 	C 	0.2566	0.5996	0.1705	0.098
Mof_H 	H 	0.2688	0.6377	0.1626	-0.017
Mof_C 	C 	0.2141	0.5252	0.2299	0.123
Mof_H 	H 	0.2011	0.5123	0.2634	-0.005
Mof_C 	C 	0.2125	0.4849	0.1901	0.13
Mof_H 	H 	0.199	0.447	0.1974	-0.01
Mof_Zn	Zn	0.33609	0.84253	0.56221	1.207
Mof_O 	O 	0.2258	0.96544	0.43901	-0.509
Mof_O 	O 	0.315	0.91441	0.39675	-0.491
Mof_C 	C 	0.2693	0.9575	0.4009	0.405
Mof_C 	C 	0.2698	0.0001	0.3585	-0.136
Mof_C 	C 	0.2677	0.0802	0.2745	0.048
Mof_C 	C 	0.2129	0.0394	0.3533	-0.128
Mof_H 	H 	0.1709	0.0386	0.3762	0.072
Mof_C 	C 	0.2164	0.0817	0.3135	-0.227
Mof_H 	H 	0.1812	0.112	0.3146	0.088
Mof_C 	C 	0.3274	0.0404	0.2766	-0.228
Mof_H 	H 	0.3677	0.0425	0.2524	0.1
Mof_C 	C 	0.3275	0.9957	0.3162	-0.131
Mof_H 	H 	0.3627	0.9654	0.3149	0.075
Mof_C 	C 	0.2639	0.1205	0.2315	0.028
Mof_C 	C 	0.2119	0.1656	0.2346	-0.088
Mof_H 	H 	0.1803	0.1689	0.264	0.055
Mof_C 	C 	0.2054	0.2089	0.1922	0.007
Mof_H 	H 	0.1699	0.239	0.1937	0.035
Mof_C 	C 	0.2582	0.2017	0.1477	-0.103
Mof_C 	C 	0.3061	0.1542	0.1458	0.022
Mof_H 	H 	0.3364	0.1473	0.1163	0.031
Mof_C 	C 	0.3088	0.116	0.189	-0.098
Mof_H 	H 	0.3441	0.0859	0.1877	0.056
Mof_C 	C 	0.2535	0.2436	0.1042	0.343
Mof_O 	O 	0.2944	0.2314	0.0622	-0.491
Mof_O 	O 	0.2081	0.2864	0.1103	-0.51
Mof_O 	O 	0.4433	0.8538	0.4579	-0.574
Mof_C 	C 	0.6824	0.8879	0.4682	-0.139
Mof_H 	H 	0.7058	0.9126	0.4443	0.077
Mof_C 	C 	0.6042	0.884	0.4699	0.111
Mof_H 	H 	0.5773	0.9067	0.4459	-0.002
Mof_C 	C 	0.6044	0.8246	0.5447	0.022
Mof_H 	H 	0.578	0.8066	0.572	0.023
Mof_C 	C 	0.6867	0.8269	0.5421	-0.09
Mof_H 	H 	0.716	0.8088	0.568	0.056
Mof_C 	C 	0.241	0.056	0.3667	0.146
Mof_H 	H 	0.2188	0.0642	0.3991	-0.021
Mof_C 	C 	0.2434	0.0996	0.3295	0.112
Mof_H 	H 	0.2312	0.1377	0.3374	-0.021
Mof_C 	C 	0.2859	0.0252	0.2701	0.127
Mof_H 	H 	0.2989	0.0123	0.2366	-0.007
Mof_C 	C 	0.2875	0.9849	0.3099	0.134
Mof_H 	H 	0.301	0.947	0.3026	-0.012
Mof_Zn	Zn	0.16391	0.34253	0.06221	1.205
Mof_O 	O 	0.2742	0.46544	0.93901	-0.492
Mof_O 	O 	0.185	0.41441	0.89675	-0.485
Mof_C 	C 	0.2307	0.4575	0.9009	0.403
Mof_C 	C 	0.2302	0.5001	0.8585	-0.135
Mof_C 	C 	0.2323	0.5802	0.7745	0.064
Mof_C 	C 	0.2871	0.5394	0.8533	-0.189
Mof_H 	H 	0.3291	0.5386	0.8762	0.097
Mof_C 	C 	0.2836	0.5817	0.8135	-0.303
Mof_H 	H 	0.3188	0.612	0.8146	0.11
Mof_C 	C 	0.1726	0.5404	0.7766	-0.272
Mof_H 	H 	0.1323	0.5425	0.7524	0.117
Mof_C 	C 	0.1725	0.4957	0.8162	-0.166
Mof_H 	H 	0.1373	0.4654	0.8149	0.088
Mof_C 	C 	0.2361	0.6205	0.7315	0.02
Mof_C 	C 	0.2881	0.6656	0.7346	-0.081
Mof_H 	H 	0.3197	0.6689	0.764	0.055
Mof_C 	C 	0.2946	0.7089	0.6922	0.004
Mof_H 	H 	0.3301	0.739	0.6937	0.038
Mof_C 	C 	0.2418	0.7017	0.6477	-0.098
Mof_C 	C 	0.1939	0.6542	0.6458	0.018
Mof_H 	H 	0.1636	0.6473	0.6163	0.035
Mof_C 	C 	0.1912	0.616	0.689	-0.09
Mof_H 	H 	0.1559	0.5859	0.6877	0.054
Mof_C 	C 	0.2465	0.7436	0.6042	0.342
Mof_O 	O 	0.2056	0.7314	0.5622	-0.485
Mof_O 	O 	0.2919	0.7864	0.6103	-0.507
Mof_O 	O 	0.0567	0.3538	0.9579	-0.541
Mof_C 	C 	0.8176	0.3879	0.9682	-0.19
Mof_H 	H 	0.7942	0.4126	0.9443	0.101
Mof_C 	C 	0.8958	0.384	0.9699	0.237
Mof_H 	H 	0.9227	0.4067	0.9459	-0.04
Mof_C 	C 	0.8956	0.3246	0.0447	0.084
Mof_H 	H 	0.922	0.3066	0.072	-0.002
Mof_C 	C 	0.8133	0.3269	0.0421	-0.138
Mof_H 	H 	0.784	0.3088	0.068	0.071
Mof_C 	C 	0.259	0.556	0.8667	0.209
Mof_H 	H 	0.2812	0.5642	0.8991	-0.037
Mof_C 	C 	0.2566	0.5996	0.8295	0.179
Mof_H 	H 	0.2688	0.6377	0.8374	-0.042
Mof_C 	C 	0.2141	0.5252	0.7701	0.167
Mof_H 	H 	0.2011	0.5123	0.7366	-0.016
Mof_C 	C 	0.2125	0.4849	0.8099	0.17
Mof_H 	H 	0.199	0.447	0.8026	-0.021
Mof_Zn	Zn	0.33609	0.84253	0.43779	1.207
Mof_O 	O 	0.2258	0.96544	0.56099	-0.509
Mof_O 	O 	0.315	0.91441	0.60325	-0.49
Mof_C 	C 	0.2693	0.9575	0.5991	0.405
Mof_C 	C 	0.2698	0.0001	0.6415	-0.136
Mof_C 	C 	0.2677	0.0802	0.7255	0.052
Mof_C 	C 	0.2129	0.0394	0.6467	-0.133
Mof_H 	H 	0.1709	0.0386	0.6238	0.074
Mof_C 	C 	0.2164	0.0817	0.6865	-0.235
Mof_H 	H 	0.1812	0.112	0.6854	0.091
Mof_C 	C 	0.3274	0.0404	0.7234	-0.236
Mof_H 	H 	0.3677	0.0425	0.7476	0.105
Mof_C 	C 	0.3275	0.9957	0.6838	-0.136
Mof_H 	H 	0.3627	0.9654	0.6851	0.078
Mof_C 	C 	0.2639	0.1205	0.7685	0.026
Mof_C 	C 	0.2119	0.1656	0.7654	-0.084
Mof_H 	H 	0.1803	0.1689	0.736	0.054
Mof_C 	C 	0.2054	0.2089	0.8078	0.006
Mof_H 	H 	0.1699	0.239	0.8063	0.037
Mof_C 	C 	0.2582	0.2017	0.8523	-0.096
Mof_C 	C 	0.3061	0.1542	0.8542	0.02
Mof_H 	H 	0.3364	0.1473	0.8837	0.04
Mof_C 	C 	0.3088	0.116	0.811	-0.092
Mof_H 	H 	0.3441	0.0859	0.8123	0.058
Mof_C 	C 	0.2535	0.2436	0.8958	0.342
Mof_O 	O 	0.2944	0.2314	0.9378	-0.469
Mof_O 	O 	0.2081	0.2864	0.8897	-0.502
Mof_O 	O 	0.4433	0.8538	0.5421	-0.574
Mof_C 	C 	0.6824	0.8879	0.5318	-0.136
Mof_H 	H 	0.7058	0.9126	0.5557	0.076
Mof_C 	C 	0.6042	0.884	0.5301	0.108
Mof_H 	H 	0.5773	0.9067	0.5541	-0.001
Mof_C 	C 	0.6044	0.8246	0.4553	0.02
Mof_H 	H 	0.578	0.8066	0.428	0.024
Mof_C 	C 	0.6867	0.8269	0.4579	-0.088
Mof_H 	H 	0.716	0.8088	0.432	0.055
Mof_C 	C 	0.241	0.056	0.6333	0.153
Mof_H 	H 	0.2188	0.0642	0.6009	-0.023
Mof_C 	C 	0.2434	0.0996	0.6705	0.118
Mof_H 	H 	0.2312	0.1377	0.6626	-0.023
Mof_C 	C 	0.2859	0.0252	0.7299	0.133
Mof_H 	H 	0.2989	0.0123	0.7634	-0.005
Mof_C 	C 	0.2875	0.9849	0.6901	0.141
Mof_H 	H 	0.301	0.947	0.6974	-0.012
Mof_Zn	Zn	0.29128	0.41652	-0	1.21
Mof_Zn	Zn	0.29801	0.27917	-0	1.2
Mof_O 	O 	0.23	0.34704	-0	-0.971
Mof_O 	O 	0.4035	0.4056	-0	-0.482
Mof_O 	O 	0.4049	0.3073	-0	-0.507
Mof_C 	C 	0.4384	0.3555	-0	0.374
Mof_C 	C 	0.5225	0.3584	-0	-0.142
Mof_C 	C 	0.5664	0.3067	-0	0.051
Mof_H 	H 	0.5407	0.2715	-0	0.019
Mof_C 	C 	0.6443	0.3074	-0	-0.124
Mof_H 	H 	0.6708	0.2726	-0	0.063
Mof_C 	C 	0.6872	0.359	-0	0.036
Mof_C 	C 	0.6474	0.4062	-0	-0.126
Mof_H 	H 	0.6741	0.441	-0	0.072
Mof_C 	C 	0.5661	0.408	-0	0.054
Mof_H 	H 	0.5411	0.4434	-0	0.025
Mof_C 	C 	0.7746	0.357	-0	0.059
Mof_C 	C 	0.9363	0.3535	-0	-0.271
Mof_C 	C 	0.0239	0.3559	-0	0.485
Mof_Zn	Zn	0.20872	0.91652	0.5	1.215
Mof_Zn	Zn	0.20199	0.77917	0.5	1.206
Mof_O 	O 	0.27	0.84704	0.5	-0.957
Mof_O 	O 	0.0965	0.9056	0.5	-0.474
Mof_O 	O 	0.0951	0.8073	0.5	-0.499
Mof_C 	C 	0.0616	0.8555	0.5	0.37
Mof_C 	C 	0.9775	0.8584	0.5	-0.126
Mof_C 	C 	0.9336	0.8067	0.5	0.036
Mof_H 	H 	0.9593	0.7715	0.5	0.029
Mof_C 	C 	0.8557	0.8074	0.5	-0.1
Mof_H 	H 	0.8292	0.7726	0.5	0.061
Mof_C 	C 	0.8128	0.859	0.5	0.011
Mof_C 	C 	0.8526	0.9062	0.5	-0.1
Mof_H 	H 	0.8259	0.941	0.5	0.069
Mof_C 	C 	0.9339	0.908	0.5	0.039
Mof_H 	H 	0.9589	0.9434	0.5	0.033
Mof_C 	C 	0.7254	0.857	0.5	0.123
Mof_C 	C 	0.5637	0.8535	0.5	-0.247
Mof_C 	C 	0.4761	0.8559	0.5	0.522
Mof_Zn	Zn	0.83609	0.65747	0.93779	1.212
Mof_O 	O 	0.7258	0.53456	0.06099	-0.513
Mof_O 	O 	0.815	0.58559	0.10325	-0.493
Mof_C 	C 	0.7693	0.5425	0.0991	0.405
Mof_C 	C 	0.7698	0.4999	0.1415	-0.136
Mof_C 	C 	0.7677	0.4198	0.2255	0.046
Mof_C 	C 	0.7129	0.4606	0.1467	-0.115
Mof_H 	H 	0.6709	0.4614	0.1238	0.068
Mof_C 	C 	0.7164	0.4183	0.1865	-0.211
Mof_H 	H 	0.6812	0.388	0.1854	0.084
Mof_C 	C 	0.8274	0.4596	0.2234	-0.223
Mof_H 	H 	0.8677	0.4575	0.2476	0.099
Mof_C 	C 	0.8275	0.5043	0.1838	-0.127
Mof_H 	H 	0.8627	0.5346	0.1851	0.073
Mof_C 	C 	0.7639	0.3795	0.2685	0.03
Mof_C 	C 	0.7119	0.3344	0.2654	-0.088
Mof_H 	H 	0.6803	0.3311	0.236	0.055
Mof_C 	C 	0.7054	0.2911	0.3078	0.007
Mof_H 	H 	0.6699	0.261	0.3063	0.035
Mof_C 	C 	0.7582	0.2983	0.3523	-0.102
Mof_C 	C 	0.8061	0.3458	0.3542	0.023
Mof_H 	H 	0.8364	0.3527	0.3837	0.034
Mof_C 	C 	0.8088	0.384	0.311	-0.098
Mof_H 	H 	0.8441	0.4141	0.3123	0.057
Mof_C 	C 	0.7535	0.2564	0.3958	0.343
Mof_O 	O 	0.7944	0.2686	0.4378	-0.486
Mof_O 	O 	0.7081	0.2136	0.3897	-0.508
Mof_O 	O 	0.9433	0.6462	0.0421	-0.569
Mof_C 	C 	0.1824	0.6121	0.0318	-0.037
Mof_H 	H 	0.2058	0.5874	0.0557	0.039
Mof_C 	C 	0.1042	0.616	0.0301	-0.011
Mof_H 	H 	0.0773	0.5933	0.0541	0.037
Mof_C 	C 	0.1044	0.6754	0.9553	-0.039
Mof_H 	H 	0.078	0.6934	0.928	0.05
Mof_C 	C 	0.1867	0.6731	0.9579	0.002
Mof_H 	H 	0.216	0.6912	0.932	0.032
Mof_C 	C 	0.741	0.444	0.1333	0.133
Mof_H 	H 	0.7188	0.4358	0.1009	-0.014
Mof_C 	C 	0.7434	0.4004	0.1705	0.098
Mof_H 	H 	0.7312	0.3623	0.1626	-0.017
Mof_C 	C 	0.7859	0.4748	0.2299	0.123
Mof_H 	H 	0.7989	0.4877	0.2634	-0.005
Mof_C 	C 	0.7875	0.5151	0.1901	0.13
Mof_H 	H 	0.801	0.553	0.1974	-0.01
Mof_Zn	Zn	0.66391	0.15747	0.56221	1.207
Mof_O 	O 	0.7742	0.03456	0.43901	-0.509
Mof_O 	O 	0.685	0.08559	0.39675	-0.491
Mof_C 	C 	0.7307	0.0425	0.4009	0.405
Mof_C 	C 	0.7302	0.9999	0.3585	-0.136
Mof_C 	C 	0.7323	0.9198	0.2745	0.048
Mof_C 	C 	0.7871	0.9606	0.3533	-0.128
Mof_H 	H 	0.8291	0.9614	0.3762	0.072
Mof_C 	C 	0.7836	0.9183	0.3135	-0.227
Mof_H 	H 	0.8188	0.888	0.3146	0.088
Mof_C 	C 	0.6726	0.9596	0.2766	-0.228
Mof_H 	H 	0.6323	0.9575	0.2524	0.1
Mof_C 	C 	0.6725	0.0043	0.3162	-0.131
Mof_H 	H 	0.6373	0.0346	0.3149	0.075
Mof_C 	C 	0.7361	0.8795	0.2315	0.028
Mof_C 	C 	0.7881	0.8344	0.2346	-0.088
Mof_H 	H 	0.8197	0.8311	0.264	0.055
Mof_C 	C 	0.7946	0.7911	0.1922	0.007
Mof_H 	H 	0.8301	0.761	0.1937	0.035
Mof_C 	C 	0.7418	0.7983	0.1477	-0.103
Mof_C 	C 	0.6939	0.8458	0.1458	0.022
Mof_H 	H 	0.6636	0.8527	0.1163	0.031
Mof_C 	C 	0.6912	0.884	0.189	-0.098
Mof_H 	H 	0.6559	0.9141	0.1877	0.056
Mof_C 	C 	0.7465	0.7564	0.1042	0.343
Mof_O 	O 	0.7056	0.7686	0.0622	-0.491
Mof_O 	O 	0.7919	0.7136	0.1103	-0.51
Mof_O 	O 	0.5567	0.1462	0.4579	-0.574
Mof_C 	C 	0.3176	0.1121	0.4682	-0.139
Mof_H 	H 	0.2942	0.0874	0.4443	0.077
Mof_C 	C 	0.3958	0.116	0.4699	0.111
Mof_H 	H 	0.4227	0.0933	0.4459	-0.002
Mof_C 	C 	0.3956	0.1754	0.5447	0.022
Mof_H 	H 	0.422	0.1934	0.572	0.023
Mof_C 	C 	0.3133	0.1731	0.5421	-0.09
Mof_H 	H 	0.284	0.1912	0.568	0.056
Mof_C 	C 	0.759	0.944	0.3667	0.146
Mof_H 	H 	0.7812	0.9358	0.3991	-0.021
Mof_C 	C 	0.7566	0.9004	0.3295	0.112
Mof_H 	H 	0.7688	0.8623	0.3374	-0.021
Mof_C 	C 	0.7141	0.9748	0.2701	0.127
Mof_H 	H 	0.7011	0.9877	0.2366	-0.007
Mof_C 	C 	0.7125	0.0151	0.3099	0.134
Mof_H 	H 	0.699	0.053	0.3026	-0.012
Mof_Zn	Zn	0.83609	0.65747	0.06221	1.205
Mof_O 	O 	0.7258	0.53456	0.93901	-0.492
Mof_O 	O 	0.815	0.58559	0.89675	-0.485
Mof_C 	C 	0.7693	0.5425	0.9009	0.403
Mof_C 	C 	0.7698	0.4999	0.8585	-0.135
Mof_C 	C 	0.7677	0.4198	0.7745	0.064
Mof_C 	C 	0.7129	0.4606	0.8533	-0.189
Mof_H 	H 	0.6709	0.4614	0.8762	0.097
Mof_C 	C 	0.7164	0.4183	0.8135	-0.303
Mof_H 	H 	0.6812	0.388	0.8146	0.11
Mof_C 	C 	0.8274	0.4596	0.7766	-0.272
Mof_H 	H 	0.8677	0.4575	0.7524	0.117
Mof_C 	C 	0.8275	0.5043	0.8162	-0.166
Mof_H 	H 	0.8627	0.5346	0.8149	0.088
Mof_C 	C 	0.7639	0.3795	0.7315	0.02
Mof_C 	C 	0.7119	0.3344	0.7346	-0.081
Mof_H 	H 	0.6803	0.3311	0.764	0.055
Mof_C 	C 	0.7054	0.2911	0.6922	0.004
Mof_H 	H 	0.6699	0.261	0.6937	0.038
Mof_C 	C 	0.7582	0.2983	0.6477	-0.098
Mof_C 	C 	0.8061	0.3458	0.6458	0.018
Mof_H 	H 	0.8364	0.3527	0.6163	0.035
Mof_C 	C 	0.8088	0.384	0.689	-0.09
Mof_H 	H 	0.8441	0.4141	0.6877	0.054
Mof_C 	C 	0.7535	0.2564	0.6042	0.342
Mof_O 	O 	0.7944	0.2686	0.5622	-0.485
Mof_O 	O 	0.7081	0.2136	0.6103	-0.507
Mof_O 	O 	0.9433	0.6462	0.9579	-0.541
Mof_C 	C 	0.1824	0.6121	0.9682	-0.19
Mof_H 	H 	0.2058	0.5874	0.9443	0.101
Mof_C 	C 	0.1042	0.616	0.9699	0.237
Mof_H 	H 	0.0773	0.5933	0.9459	-0.04
Mof_C 	C 	0.1044	0.6754	0.0447	0.084
Mof_H 	H 	0.078	0.6934	0.072	-0.002
Mof_C 	C 	0.1867	0.6731	0.0421	-0.138
Mof_H 	H 	0.216	0.6912	0.068	0.071
Mof_C 	C 	0.741	0.444	0.8667	0.209
Mof_H 	H 	0.7188	0.4358	0.8991	-0.037
Mof_C 	C 	0.7434	0.4004	0.8295	0.179
Mof_H 	H 	0.7312	0.3623	0.8374	-0.042
Mof_C 	C 	0.7859	0.4748	0.7701	0.167
Mof_H 	H 	0.7989	0.4877	0.7366	-0.016
Mof_C 	C 	0.7875	0.5151	0.8099	0.17
Mof_H 	H 	0.801	0.553	0.8026	-0.021
Mof_Zn	Zn	0.66391	0.15747	0.43779	1.207
Mof_O 	O 	0.7742	0.03456	0.56099	-0.509
Mof_O 	O 	0.685	0.08559	0.60325	-0.49
Mof_C 	C 	0.7307	0.0425	0.5991	0.405
Mof_C 	C 	0.7302	0.9999	0.6415	-0.136
Mof_C 	C 	0.7323	0.9198	0.7255	0.052
Mof_C 	C 	0.7871	0.9606	0.6467	-0.133
Mof_H 	H 	0.8291	0.9614	0.6238	0.074
Mof_C 	C 	0.7836	0.9183	0.6865	-0.235
Mof_H 	H 	0.8188	0.888	0.6854	0.091
Mof_C 	C 	0.6726	0.9596	0.7234	-0.236
Mof_H 	H 	0.6323	0.9575	0.7476	0.105
Mof_C 	C 	0.6725	0.0043	0.6838	-0.136
Mof_H 	H 	0.6373	0.0346	0.6851	0.078
Mof_C 	C 	0.7361	0.8795	0.7685	0.026
Mof_C 	C 	0.7881	0.8344	0.7654	-0.084
Mof_H 	H 	0.8197	0.8311	0.736	0.054
Mof_C 	C 	0.7946	0.7911	0.8078	0.006
Mof_H 	H 	0.8301	0.761	0.8063	0.037
Mof_C 	C 	0.7418	0.7983	0.8523	-0.096
Mof_C 	C 	0.6939	0.8458	0.8542	0.02
Mof_H 	H 	0.6636	0.8527	0.8837	0.04
Mof_C 	C 	0.6912	0.884	0.811	-0.092
Mof_H 	H 	0.6559	0.9141	0.8123	0.058
Mof_C 	C 	0.7465	0.7564	0.8958	0.342
Mof_O 	O 	0.7056	0.7686	0.9378	-0.469
Mof_O 	O 	0.7919	0.7136	0.8897	-0.502
Mof_O 	O 	0.5567	0.1462	0.5421	-0.574
Mof_C 	C 	0.3176	0.1121	0.5318	-0.136
Mof_H 	H 	0.2942	0.0874	0.5557	0.076
Mof_C 	C 	0.3958	0.116	0.5301	0.108
Mof_H 	H 	0.4227	0.0933	0.5541	-0.001
Mof_C 	C 	0.3956	0.1754	0.4553	0.02
Mof_H 	H 	0.422	0.1934	0.428	0.024
Mof_C 	C 	0.3133	0.1731	0.4579	-0.088
Mof_H 	H 	0.284	0.1912	0.432	0.055
Mof_C 	C 	0.759	0.944	0.6333	0.153
Mof_H 	H 	0.7812	0.9358	0.6009	-0.023
Mof_C 	C 	0.7566	0.9004	0.6705	0.118
Mof_H 	H 	0.7688	0.8623	0.6626	-0.023
Mof_C 	C 	0.7141	0.9748	0.7299	0.133
Mof_H 	H 	0.7011	0.9877	0.7634	-0.005
Mof_C 	C 	0.7125	0.0151	0.6901	0.141
Mof_H 	H 	0.699	0.053	0.6974	-0.012
Mof_Zn	Zn	0.70872	0.58348	-0	1.21
Mof_Zn	Zn	0.70199	0.72083	-0	1.2
Mof_O 	O 	0.77	0.65296	-0	-0.971
Mof_O 	O 	0.5965	0.5944	-0	-0.482
Mof_O 	O 	0.5951	0.6927	-0	-0.507
Mof_C 	C 	0.5616	0.6445	-0	0.374
Mof_C 	C 	0.4775	0.6416	-0	-0.142
Mof_C 	C 	0.4336	0.6933	-0	0.051
Mof_H 	H 	0.4593	0.7285	-0	0.019
Mof_C 	C 	0.3557	0.6926	-0	-0.124
Mof_H 	H 	0.3292	0.7274	-0	0.063
Mof_C 	C 	0.3128	0.641	-0	0.036
Mof_C 	C 	0.3526	0.5938	-0	-0.126
Mof_H 	H 	0.3259	0.559	-0	0.072
Mof_C 	C 	0.4339	0.592	-0	0.054
Mof_H 	H 	0.4589	0.5566	-0	0.025
Mof_C 	C 	0.2254	0.643	-0	0.059
Mof_C 	C 	0.0637	0.6465	-0	-0.271
Mof_C 	C 	0.9761	0.6441	-0	0.485
Mof_Zn	Zn	0.79128	0.08348	0.5	1.215
Mof_Zn	Zn	0.79801	0.22083	0.5	1.206
Mof_O 	O 	0.73	0.15296	0.5	-0.957
Mof_O 	O 	0.9035	0.0944	0.5	-0.474
Mof_O 	O 	0.9049	0.1927	0.5	-0.499
Mof_C 	C 	0.9384	0.1445	0.5	0.37
Mof_C 	C 	0.0225	0.1416	0.5	-0.126
Mof_C 	C 	0.0664	0.1933	0.5	0.036
Mof_H 	H 	0.0407	0.2285	0.5	0.029
Mof_C 	C 	0.1443	0.1926	0.5	-0.1
Mof_H 	H 	0.1708	0.2274	0.5	0.061
Mof_C 	C 	0.1872	0.141	0.5	0.011
Mof_C 	C 	0.1474	0.0938	0.5	-0.1
Mof_H 	H 	0.1741	0.059	0.5	0.069
Mof_C 	C 	0.0661	0.092	0.5	0.039
Mof_H 	H 	0.0411	0.0566	0.5	0.033
Mof_C 	C 	0.2746	0.143	0.5	0.123
Mof_C 	C 	0.4363	0.1465	0.5	-0.247
Mof_C 	C 	0.5239	0.1441	0.5	0.522
_end
