data_functionalizedCrystal
_audit_creation_method	'EQeq! by Chris Wilmer'
_symmetry_space_group_name_H-M	'P1'
_symmetry_Int_Tables_number	1
_symmetry_cell_setting	triclinic
loop_
_symmetry_equiv_pos_as_xyz
  x,y,z
_cell_length_a	8.642
_cell_length_b	8.719
_cell_length_c	12.049
_cell_angle_alpha	85.144
_cell_angle_beta	80.757
_cell_angle_gamma	80.71
loop_
_atom_site_label
_atom_site_type_symbol
_atom_site_fract_x
_atom_site_fract_y
_atom_site_fract_z
_atom_site_charge
Mof_P 	P 	0.16336	0.64443	0.7414	0.637
Mof_P 	P 	0.22471	0.0518	0.9373	0.628
Mof_P 	P 	0.04307	0.10871	0.63736	0.603
Mof_P 	P 	0.53495	0.15429	0.65681	0.654
Mof_Be	Be	0.9782	0.9198	0.8414	0.762
Mof_Be	Be	0.8109	0.1739	0.4726	0.8
Mof_Be	Be	0.2225	0.2979	0.7547	0.811
Mof_O 	O 	0.0149	0.7421	0.799	-0.343
Mof_O 	O 	0.1535	0.477	0.7753	-0.345
Mof_O 	O 	0.1883	0.6704	0.6147	-0.35
Mof_O 	O 	0.31	0.6861	0.7874	-0.416
Mof_H 	H 	0.3184	0.7777	0.7699	0.273
Mof_O 	O 	0.2231	0.2091	0.8765	-0.392
Mof_O 	O 	0.402	0.9655	0.9246	-0.466
Mof_H 	H 	0.4046	0.8791	0.9576	0.313
Mof_O 	O 	0.1399	0.9458	0.8839	-0.4
Mof_O 	O 	0.1713	0.0632	0.0619	-0.372
Mof_O 	O 	0.1118	0.2394	0.6773	-0.364
Mof_O 	O 	0.9314	0.0389	0.7344	-0.33
Mof_O 	O 	0.1801	0.9817	0.5946	-0.372
Mof_O 	O 	0.9508	0.1779	0.5433	-0.352
Mof_O 	O 	0.4033	0.2864	0.6856	-0.361
Mof_O 	O 	0.4692	0.0038	0.6423	-0.423
Mof_H 	H 	0.4114	0.981	0.7002	0.268
Mof_O 	O 	0.6285	0.1119	0.7576	-0.429
Mof_H 	H 	0.5683	0.0865	0.8135	0.304
Mof_O 	O 	0.641	0.2009	0.5537	-0.339
Mof_P 	P 	0.83664	0.35557	0.2586	0.638
Mof_P 	P 	0.77529	0.9482	0.0627	0.629
Mof_P 	P 	0.95693	0.89129	0.36264	0.603
Mof_P 	P 	0.46505	0.84571	0.34319	0.654
Mof_Be	Be	0.0218	0.0802	0.1586	0.762
Mof_Be	Be	0.1891	0.8261	0.5274	0.8
Mof_Be	Be	0.7775	0.7021	0.2453	0.811
Mof_O 	O 	0.9851	0.2579	0.201	-0.343
Mof_O 	O 	0.8465	0.523	0.2247	-0.345
Mof_O 	O 	0.8117	0.3296	0.3853	-0.35
Mof_O 	O 	0.69	0.3139	0.2126	-0.416
Mof_H 	H 	0.6816	0.2223	0.2301	0.273
Mof_O 	O 	0.7769	0.7909	0.1235	-0.392
Mof_O 	O 	0.598	0.0345	0.0754	-0.466
Mof_H 	H 	0.5954	0.1209	0.0424	0.313
Mof_O 	O 	0.8601	0.0542	0.1161	-0.4
Mof_O 	O 	0.8287	0.9368	0.9381	-0.372
Mof_O 	O 	0.8882	0.7606	0.3227	-0.364
Mof_O 	O 	0.0686	0.9611	0.2656	-0.33
Mof_O 	O 	0.8199	0.0183	0.4054	-0.372
Mof_O 	O 	0.0492	0.8221	0.4567	-0.352
Mof_O 	O 	0.5967	0.7136	0.3144	-0.361
Mof_O 	O 	0.5308	0.9962	0.3577	-0.423
Mof_H 	H 	0.5886	0.019	0.2998	0.268
Mof_O 	O 	0.3715	0.8881	0.2424	-0.429
Mof_H 	H 	0.4317	0.9135	0.1865	0.304
Mof_O 	O 	0.359	0.7991	0.4463	-0.339
_end
