data_functionalizedCrystal
_audit_creation_method	'EQeq! by Chris Wilmer'
_symmetry_space_group_name_H-M	'P1'
_symmetry_Int_Tables_number	1
_symmetry_cell_setting	triclinic
loop_
_symmetry_equiv_pos_as_xyz
  x,y,z
_cell_length_a	15.028
_cell_length_b	18.8311
_cell_length_c	31.197
_cell_angle_alpha	100.273
_cell_angle_beta	90
_cell_angle_gamma	113.517
loop_
_atom_site_label
_atom_site_type_symbol
_atom_site_fract_x
_atom_site_fract_y
_atom_site_fract_z
_atom_site_charge
Mof_Zn	Zn	0.37358	0.9292	0.26424	1.165
Mof_Zn	Zn	0.30591	0.3255	0.43655	1.162
Mof_Zn	Zn	0.63164	0.50414	0.61406	1.163
Mof_Zn	Zn	0.55562	0.9292	0.76424	1.165
Mof_Zn	Zn	0.01959	0.3255	0.93655	1.153
Mof_Zn	Zn	0.8725	0.50414	0.11406	1.164
Mof_H 	H 	0.5963	0.011	0.2815	-0.004
Mof_H 	H 	0.7207	0.1156	0.3263	0.085
Mof_H 	H 	0.5102	0.1484	0.3917	0.088
Mof_H 	H 	0.3888	0.0318	0.3531	-0.005
Mof_H 	H 	0.1797	0.3978	0.4739	-0.035
Mof_H 	H 	0.0125	0.3754	0.4779	0.094
Mof_H 	H 	0.953	0.1874	0.3805	0.082
Mof_H 	H 	0.1171	0.2114	0.3868	-0.017
Mof_H 	H 	0.5191	0.3494	0.5431	-0.006
Mof_H 	H 	0.5724	0.2994	0.4809	0.077
Mof_H 	H 	0.8451	0.4044	0.5269	0.096
Mof_H 	H 	0.797	0.4684	0.5867	-0.002
Mof_H 	H 	0.8302	0.6306	0.6416	-0.007
Mof_H 	H 	0.9694	0.66	0.6868	0.077
Mof_H 	H 	0.8245	0.4588	0.731	0.083
Mof_H 	H 	0.6874	0.4398	0.6882	-0.01
Mof_H 	H 	0.4672	0.7982	0.8099	-0.016
Mof_H 	H 	0.3291	0.6836	0.809	0.084
Mof_H 	H 	0.2228	0.7286	0.7032	0.082
Mof_H 	H 	0.3631	0.8438	0.7106	-0.014
Mof_H 	H 	0.8971	0.3436	0.8623	-0.017
Mof_H 	H 	0.9126	0.4146	0.8087	0.083
Mof_H 	H 	0.1834	0.5516	0.8616	0.083
Mof_H 	H 	0.1652	0.4626	0.9058	-0.022
Mof_H 	H 	0.4147	0.011	0.7815	-0.004
Mof_H 	H 	0.3949	0.1156	0.8263	0.083
Mof_H 	H 	0.6382	0.1484	0.8917	0.089
Mof_H 	H 	0.643	0.0318	0.8531	-0.004
Mof_H 	H 	0.2181	0.3978	0.9739	-0.037
Mof_H 	H 	0.3629	0.3754	0.9779	0.09
Mof_H 	H 	0.2344	0.1874	0.8805	0.087
Mof_H 	H 	0.0943	0.2114	0.8868	-0.03
Mof_H 	H 	0.8303	0.3494	0.0431	0.02
Mof_H 	H 	0.727	0.2994	0.9809	0.028
Mof_H 	H 	0.5593	0.4044	0.0269	0.074
Mof_H 	H 	0.6714	0.4684	0.0867	0.011
Mof_H 	H 	0.8004	0.6306	0.1416	-0.007
Mof_H 	H 	0.6906	0.66	0.1868	0.072
Mof_H 	H 	0.6343	0.4588	0.231	0.083
Mof_H 	H 	0.7524	0.4398	0.1882	-0.01
Mof_H 	H 	0.331	0.7982	0.3099	-0.017
Mof_H 	H 	0.3545	0.6836	0.309	0.083
Mof_H 	H 	0.5058	0.7286	0.2032	0.087
Mof_H 	H 	0.4807	0.8438	0.2106	-0.012
Mof_H 	H 	0.4465	0.3436	0.3623	-0.015
Mof_H 	H 	0.502	0.4146	0.3087	0.091
Mof_H 	H 	0.3682	0.5516	0.3616	0.088
Mof_H 	H 	0.2974	0.4626	0.4058	-0.025
Mof_C 	C 	0.5786	0.0382	0.3064	0.072
Mof_C 	C 	0.6548	0.0976	0.3333	-0.121
Mof_C 	C 	0.6259	0.1278	0.3711	0.046
Mof_C 	C 	0.528	0.1126	0.3719	-0.115
Mof_C 	C 	0.4548	0.0492	0.3463	0.052
Mof_C 	C 	0.7049	0.1936	0.4024	0.09
Mof_C 	C 	0.8594	0.2598	0.4312	0.092
Mof_C 	C 	0.7446	0.2936	0.4601	0.098
Mof_C 	C 	0.1321	0.352	0.456	0.114
Mof_C 	C 	0.0322	0.3404	0.4585	-0.18
Mof_C 	C 	0.9654	0.2732	0.4301	0.105
Mof_C 	C 	0.9964	0.2292	0.4021	-0.119
Mof_C 	C 	0.0952	0.246	0.4053	0.054
Mof_C 	C 	0.5866	0.3646	0.5395	0.065
Mof_C 	C 	0.6203	0.3316	0.504	-0.122
Mof_C 	C 	0.7102	0.3382	0.4973	0.064
Mof_C 	C 	0.7779	0.393	0.5292	-0.114
Mof_C 	C 	0.7489	0.4318	0.5646	0.063
Mof_C 	C 	0.8291	0.596	0.6606	0.064
Mof_C 	C 	0.9135	0.6122	0.6853	-0.113
Mof_C 	C 	0.9126	0.5552	0.7079	0.053
Mof_C 	C 	0.8274	0.4936	0.7119	-0.121
Mof_C 	C 	0.7463	0.4842	0.6873	0.076
Mof_C 	C 	0.9979	0.57	0.7392	0.122
Mof_C 	C 	0.1569	0.6354	0.7609	0.089
Mof_C 	C 	0.0656	0.5346	0.7914	0.087
Mof_C 	C 	0.4156	0.7842	0.7882	0.078
Mof_C 	C 	0.3329	0.7172	0.7891	-0.129
Mof_C 	C 	0.2548	0.7012	0.7592	0.062
Mof_C 	C 	0.2697	0.7436	0.7272	-0.144
Mof_C 	C 	0.3564	0.8102	0.7309	0.101
Mof_C 	C 	0.9597	0.383	0.86	0.11
Mof_C 	C 	0.9664	0.427	0.8289	-0.102
Mof_C 	C 	0.0525	0.4892	0.8277	0.047
Mof_C 	C 	0.125	0.5052	0.8588	-0.125
Mof_C 	C 	0.1116	0.4526	0.886	0.076
Mof_C 	C 	0.4596	0.0382	0.8064	0.072
Mof_C 	C 	0.4428	0.0976	0.8333	-0.12
Mof_C 	C 	0.5019	0.1278	0.8711	0.045
Mof_C 	C 	0.5846	0.1126	0.8719	-0.115
Mof_C 	C 	0.5944	0.0492	0.8463	0.052
Mof_C 	C 	0.4887	0.1936	0.9024	0.088
Mof_C 	C 	0.4004	0.2598	0.9312	0.089
Mof_C 	C 	0.549	0.2936	0.9601	0.121
Mof_C 	C 	0.2199	0.352	0.956	0.107
Mof_C 	C 	0.3082	0.3404	0.9585	-0.151
Mof_C 	C 	0.3078	0.2732	0.9301	0.083
Mof_C 	C 	0.2328	0.2292	0.9021	-0.156
Mof_C 	C 	0.1508	0.246	0.9053	0.09
Mof_C 	C 	0.778	0.3646	0.0395	0.008
Mof_C 	C 	0.7113	0.3316	0.004	-0.002
Mof_C 	C 	0.628	0.3382	0.9973	-0.034
Mof_C 	C 	0.6151	0.393	0.0292	-0.04
Mof_C 	C 	0.6829	0.4318	0.0646	0.025
Mof_C 	C 	0.7669	0.596	0.1606	0.066
Mof_C 	C 	0.6987	0.6122	0.1853	-0.117
Mof_C 	C 	0.6426	0.5552	0.2079	0.057
Mof_C 	C 	0.6662	0.4936	0.2119	-0.125
Mof_C 	C 	0.7379	0.4842	0.1873	0.078
Mof_C 	C 	0.5721	0.57	0.2392	0.095
Mof_C 	C 	0.4785	0.6354	0.2609	0.092
Mof_C 	C 	0.469	0.5346	0.2914	0.101
Mof_C 	C 	0.3686	0.7842	0.2882	0.078
Mof_C 	C 	0.3843	0.7172	0.2891	-0.129
Mof_C 	C 	0.4464	0.7012	0.2592	0.063
Mof_C 	C 	0.4739	0.7436	0.2272	-0.144
Mof_C 	C 	0.4538	0.8102	0.2309	0.102
Mof_C 	C 	0.4233	0.383	0.36	0.093
Mof_C 	C 	0.4606	0.427	0.3289	-0.14
Mof_C 	C 	0.4367	0.4892	0.3277	0.083
Mof_C 	C 	0.3802	0.5052	0.3588	-0.139
Mof_C 	C 	0.341	0.4526	0.386	0.089
Mof_I 	I 	0.21431	0.89564	0.30139	-0.381
Mof_I 	I 	0.40676	0.9755	0.19279	-0.364
Mof_I 	I 	0.33697	0.20216	0.41244	-0.387
Mof_I 	I 	0.37926	0.41772	0.51087	-0.398
Mof_I 	I 	0.6579	0.62164	0.58121	-0.359
Mof_I 	I 	0.48196	0.42638	0.65157	-0.369
Mof_I 	I 	0.68133	0.89564	0.80139	-0.366
Mof_I 	I 	0.56874	0.9755	0.69279	-0.364
Mof_I 	I 	0.86519	0.20216	0.91244	-0.371
Mof_I 	I 	0.03846	0.41772	0.01087	-0.404
Mof_I 	I 	0.96374	0.62164	0.08121	-0.329
Mof_I 	I 	0.94442	0.42638	0.15157	-0.345
Mof_N 	N 	0.4825	0.0138	0.3109	-0.269
Mof_N 	N 	0.7983	0.2058	0.3985	-0.138
Mof_N 	N 	0.8398	0.3098	0.4624	-0.127
Mof_N 	N 	0.6736	0.2314	0.4351	-0.141
Mof_N 	N 	0.1609	0.3068	0.4323	-0.29
Mof_N 	N 	0.6554	0.4198	0.569	-0.268
Mof_N 	N 	0.7463	0.5342	0.6623	-0.265
Mof_N 	N 	0.0845	0.623	0.7322	-0.165
Mof_N 	N 	0.1538	0.59	0.7894	-0.135
Mof_N 	N 	0.9864	0.5214	0.7666	-0.126
Mof_N 	N 	0.4283	0.8302	0.7593	-0.284
Mof_N 	N 	0.0311	0.3892	0.8874	-0.296
Mof_N 	N 	0.5313	0.0138	0.8109	-0.269
Mof_N 	N 	0.4075	0.2058	0.8985	-0.14
Mof_N 	N 	0.47	0.3098	0.9624	-0.139
Mof_N 	N 	0.5578	0.2314	0.9351	-0.146
Mof_N 	N 	0.1459	0.3068	0.9323	-0.298
Mof_N 	N 	0.7644	0.4198	0.069	-0.25
Mof_N 	N 	0.7879	0.5342	0.1623	-0.265
Mof_N 	N 	0.5385	0.623	0.2322	-0.147
Mof_N 	N 	0.4362	0.59	0.2894	-0.137
Mof_N 	N 	0.535	0.5214	0.2666	-0.138
Mof_N 	N 	0.4019	0.8302	0.2593	-0.285
Mof_N 	N 	0.3581	0.3892	0.3874	-0.282
Mof_Zn	Zn	0.65479	0.02016	0.48316	1.161
Mof_Zn	Zn	0.04112	0.83936	0.80078	1.153
Mof_Zn	Zn	0.11297	0.41086	0.65036	1.161
Mof_Zn	Zn	0.36537	0.02016	0.98316	1.154
Mof_Zn	Zn	0.79824	0.83936	0.30078	1.16
Mof_Zn	Zn	0.29789	0.41086	0.15036	1.166
Mof_H 	H 	0.7556	0.0154	0.5596	-0.041
Mof_H 	H 	0.7342	0.9514	0.6171	0.098
Mof_H 	H 	0.4713	0.8148	0.5689	0.087
Mof_H 	H 	0.493	0.8738	0.5092	-0.018
Mof_H 	H 	0.8334	0.7044	0.7697	-0.006
Mof_H 	H 	0.696	0.6978	0.7327	0.077
Mof_H 	H 	0.8475	0.898	0.6974	0.081
Mof_H 	H 	0.9803	0.9138	0.741	-0.008
Mof_H 	H 	0.2495	0.4956	0.592	-0.016
Mof_H 	H 	0.3906	0.6034	0.5867	0.088
Mof_H 	H 	0.4374	0.6198	0.7137	0.077
Mof_H 	H 	0.2895	0.5196	0.7179	-0.004
Mof_H 	H 	0.2668	0.355	0.6318	0.002
Mof_H 	H 	0.3044	0.2674	0.5804	0.081
Mof_H 	H 	0.0384	0.2032	0.5161	0.08
Mof_H 	H 	0.004	0.2782	0.5767	-0.013
Mof_H 	H 	0.4716	0.9802	0.4287	0.002
Mof_H 	H 	0.3263	0.9906	0.4324	0.102
Mof_H 	H 	0.4339	0.1504	0.5417	0.075
Mof_H 	H 	0.5781	0.1342	0.5388	-0.004
Mof_H 	H 	0.8534	0.9832	0.3686	-0.015
Mof_H 	H 	0.9651	0.074	0.4255	0.077
Mof_H 	H 	0.1055	0.9208	0.4028	0.089
Mof_H 	H 	0.983	0.8378	0.3467	-0.002
Mof_H 	H 	0.2598	0.0154	0.0596	-0.043
Mof_H 	H 	0.2172	0.9514	0.1171	0.094
Mof_H 	H 	0.3435	0.8148	0.0689	0.09
Mof_H 	H 	0.3808	0.8738	0.0092	-0.011
Mof_H 	H 	0.871	0.7044	0.2697	0.009
Mof_H 	H 	0.0018	0.6978	0.2327	0.021
Mof_H 	H 	0.0505	0.898	0.1974	0.078
Mof_H 	H 	0.9335	0.9138	0.241	-0.018
Mof_H 	H 	0.2461	0.4956	0.092	-0.011
Mof_H 	H 	0.2128	0.6034	0.0867	0.088
Mof_H 	H 	0.1824	0.6198	0.2137	0.075
Mof_H 	H 	0.2301	0.5196	0.2179	-0.005
Mof_H 	H 	0.0882	0.355	0.1318	-0.011
Mof_H 	H 	0.963	0.2674	0.0804	0.113
Mof_H 	H 	0.1648	0.2032	0.0161	0.086
Mof_H 	H 	0.2742	0.2782	0.0767	-0.002
Mof_H 	H 	0.5086	0.9802	0.9287	0.004
Mof_H 	H 	0.6643	0.9906	0.9324	0.101
Mof_H 	H 	0.7165	0.1504	0.0417	0.072
Mof_H 	H 	0.5561	0.1342	0.0388	-0.005
Mof_H 	H 	0.1298	0.9832	0.8686	-0.013
Mof_H 	H 	0.1089	0.074	0.9255	0.08
Mof_H 	H 	0.8153	0.9208	0.9028	0.084
Mof_H 	H 	0.8548	0.8378	0.8467	0.004
Mof_C 	C 	0.6959	0.9718	0.5604	0.117
Mof_C 	C 	0.6862	0.93	0.5931	-0.139
Mof_C 	C 	0.6108	0.8594	0.5924	0.078
Mof_C 	C 	0.5346	0.8508	0.5646	-0.131
Mof_C 	C 	0.5444	0.8908	0.5314	0.095
Mof_C 	C 	0.6044	0.8062	0.6222	0.103
Mof_C 	C 	0.6706	0.7754	0.6781	0.091
Mof_C 	C 	0.5125	0.7054	0.6548	0.093
Mof_C 	C 	0.8366	0.7458	0.7553	0.082
Mof_C 	C 	0.7572	0.7388	0.7303	-0.121
Mof_C 	C 	0.7614	0.7876	0.7021	0.056
Mof_C 	C 	0.8441	0.8556	0.7108	-0.108
Mof_C 	C 	0.9227	0.8666	0.7377	0.066
Mof_C 	C 	0.2863	0.526	0.6186	0.074
Mof_C 	C 	0.371	0.5902	0.6143	-0.124
Mof_C 	C 	0.4245	0.6334	0.6531	0.052
Mof_C 	C 	0.3938	0.5986	0.6881	-0.12
Mof_C 	C 	0.3068	0.5362	0.6909	0.077
Mof_C 	C 	0.2195	0.3216	0.6086	0.066
Mof_C 	C 	0.2412	0.2674	0.5798	-0.108
Mof_C 	C 	0.1617	0.2088	0.5476	0.035
Mof_C 	C 	0.0814	0.2262	0.5418	-0.119
Mof_C 	C 	0.0674	0.2786	0.5753	0.067
Mof_C 	C 	0.1774	0.1514	0.5134	0.087
Mof_C 	C 	0.2668	0.079	0.4931	0.1
Mof_C 	C 	0.1217	0.0546	0.4532	0.105
Mof_C 	C 	0.4624	0.0126	0.4538	0.06
Mof_C 	C 	0.375	0.0188	0.4558	-0.142
Mof_C 	C 	0.3559	0.064	0.4905	0.058
Mof_C 	C 	0.4385	0.1108	0.5194	-0.11
Mof_C 	C 	0.5255	0.1028	0.5175	0.056
Mof_C 	C 	0.9073	0.9726	0.3765	0.085
Mof_C 	C 	0.9715	0.0284	0.4099	-0.106
Mof_C 	C 	0.05	0.0042	0.417	0.012
Mof_C 	C 	0.0542	0.9348	0.3954	-0.12
Mof_C 	C 	0.9813	0.8852	0.3624	0.102
Mof_C 	C 	0.2759	0.9718	0.0604	0.115
Mof_C 	C 	0.2438	0.93	0.0931	-0.139
Mof_C 	C 	0.2486	0.8594	0.0924	0.076
Mof_C 	C 	0.3162	0.8508	0.0646	-0.13
Mof_C 	C 	0.3464	0.8908	0.0314	0.095
Mof_C 	C 	0.2018	0.8062	0.1222	0.1
Mof_C 	C 	0.1048	0.7754	0.1781	0.104
Mof_C 	C 	0.1929	0.7054	0.1548	0.091
Mof_C 	C 	0.9092	0.7458	0.2553	0.035
Mof_C 	C 	0.9816	0.7388	0.2303	-0.01
Mof_C 	C 	0.0262	0.7876	0.2021	-0.002
Mof_C 	C 	0.0115	0.8556	0.2108	-0.126
Mof_C 	C 	0.9439	0.8666	0.2377	0.09
Mof_C 	C 	0.2397	0.526	0.1186	0.074
Mof_C 	C 	0.2192	0.5902	0.1143	-0.124
Mof_C 	C 	0.2089	0.6334	0.1531	0.05
Mof_C 	C 	0.2048	0.5986	0.1881	-0.121
Mof_C 	C 	0.2294	0.5362	0.1909	0.075
Mof_C 	C 	0.1021	0.3216	0.1086	0.086
Mof_C 	C 	0.0262	0.2674	0.0798	-0.151
Mof_C 	C 	0.0471	0.2088	0.0476	0.014
Mof_C 	C 	0.1448	0.2262	0.0418	-0.107
Mof_C 	C 	0.2112	0.2786	0.0753	0.066
Mof_C 	C 	0.974	0.1514	0.0134	0.151
Mof_C 	C 	0.8122	0.079	0.9931	0.094
Mof_C 	C 	0.9329	0.0546	0.9532	0.123
Mof_C 	C 	0.5502	0.0126	0.9538	0.052
Mof_C 	C 	0.6438	0.0188	0.9558	-0.135
Mof_C 	C 	0.7081	0.064	0.9905	0.038
Mof_C 	C 	0.6723	0.1108	0.0194	-0.085
Mof_C 	C 	0.5773	0.1028	0.0175	0.067
Mof_C 	C 	0.0653	0.9726	0.8765	0.062
Mof_C 	C 	0.0569	0.0284	0.9099	-0.158
Mof_C 	C 	0.9542	0.0042	0.917	0.052
Mof_C 	C 	0.8806	0.9348	0.8954	-0.088
Mof_C 	C 	0.9039	0.8852	0.8624	0.069
Mof_I 	I 	0.6419	0.9347	0.40954	-0.391
Mof_I 	I 	0.8029	0.14826	0.51238	-0.362
Mof_I 	I 	0.18881	0.91624	0.76467	-0.396
Mof_I 	I 	0.01391	0.71826	0.83533	-0.376
Mof_I 	I 	0.98741	0.44558	0.6145	-0.35
Mof_I 	I 	0.10151	0.3652	0.72329	-0.383
Mof_I 	I 	0.2928	0.9347	0.90954	-0.404
Mof_I 	I 	0.34536	0.14826	0.01238	-0.357
Mof_I 	I 	0.72743	0.91624	0.26467	-0.376
Mof_I 	I 	0.70435	0.71826	0.33533	-0.34
Mof_I 	I 	0.45817	0.44558	0.1145	-0.375
Mof_I 	I 	0.26369	0.3652	0.22329	-0.372
Mof_N 	N 	0.6257	0.9536	0.5302	-0.288
Mof_N 	N 	0.682	0.8206	0.6484	-0.133
Mof_N 	N 	0.5877	0.7142	0.6813	-0.145
Mof_N 	N 	0.5209	0.7456	0.6231	-0.135
Mof_N 	N 	0.9166	0.8102	0.759	-0.263
Mof_N 	N 	0.2484	0.5004	0.6549	-0.278
Mof_N 	N 	0.136	0.3298	0.6058	-0.282
Mof_N 	N 	0.2608	0.14	0.5195	-0.138
Mof_N 	N 	0.1975	0.0354	0.4605	-0.136
Mof_N 	N 	0.1055	0.1064	0.4834	-0.147
Mof_N 	N 	0.5348	0.0486	0.4842	-0.269
Mof_N 	N 	0.9099	0.9066	0.3538	-0.258
Mof_N 	N 	0.3279	0.9536	0.0302	-0.283
Mof_N 	N 	0.1386	0.8206	0.1484	-0.138
Mof_N 	N 	0.1265	0.7142	0.1813	-0.151
Mof_N 	N 	0.2247	0.7456	0.1231	-0.135
Mof_N 	N 	0.8936	0.8102	0.259	-0.262
Mof_N 	N 	0.252	0.5004	0.1549	-0.276
Mof_N 	N 	0.1938	0.3298	0.1058	-0.283
Mof_N 	N 	0.8792	0.14	0.0195	-0.134
Mof_N 	N 	0.8379	0.0354	0.9605	-0.139
Mof_N 	N 	0.0009	0.1064	0.9834	-0.186
Mof_N 	N 	0.5138	0.0486	0.9842	-0.279
Mof_N 	N 	0.9967	0.9066	0.8538	-0.235
_end
