data_functionalizedCrystal
_audit_creation_method	'EQeq! by Chris Wilmer'
_symmetry_space_group_name_H-M	'P1'
_symmetry_Int_Tables_number	1
_symmetry_cell_setting	triclinic
loop_
_symmetry_equiv_pos_as_xyz
  x,y,z
_cell_length_a	26.152
_cell_length_b	26.152
_cell_length_c	5.1356
_cell_angle_alpha	90
_cell_angle_beta	90
_cell_angle_gamma	90
loop_
_atom_site_label
_atom_site_type_symbol
_atom_site_fract_x
_atom_site_fract_y
_atom_site_fract_z
_atom_site_charge
Mof_Zn	Zn	0.27183	0.21567	0.8746	1.225
Mof_O 	O 	0.2249	0.2642	0.0191	-0.803
Mof_H 	H 	0.2042	0.2752	0.9072	0.304
Mof_N 	N 	0.2445	0.1439	0.9123	-0.286
Mof_C 	C 	0.2604	0.1078	0.068	0.123
Mof_H 	H 	0.2854	0.1127	0.1941	-0.022
Mof_N 	N 	0.2365	0.0624	0.0266	-0.166
Mof_C 	C 	0.2075	0.1226	0.7578	0.056
Mof_O 	O 	0.2726	0.8349	0.4339	-0.523
Mof_C 	C 	0.1785	0.1444	0.5622	-0.146
Mof_H 	H 	0.1827	0.1786	0.517	0.051
Mof_O 	O 	0.3003	0.8757	0.773	-0.271
Mof_C 	C 	0.1428	0.1139	0.4346	0.051
Mof_C 	C 	0.1135	0.1339	0.2352	-0.097
Mof_H 	H 	0.1179	0.168	0.1893	0.061
Mof_C 	C 	0.0777	0.1048	0.1013	-0.015
Mof_H 	H 	0.0581	0.1189	0.9684	0.027
Mof_C 	C 	0.0722	0.0537	0.1726	-0.034
Mof_H 	H 	0.0489	0.0333	0.0838	0.036
Mof_C 	C 	0.1007	0.0329	0.3731	-0.084
Mof_H 	H 	0.0956	0.999	0.4206	0.059
Mof_C 	C 	0.1372	0.0624	0.5061	0.037
Mof_C 	C 	0.1665	0.0407	0.7034	-0.125
Mof_H 	H 	0.1631	0.0063	0.7467	0.072
Mof_C 	C 	0.2006	0.0719	0.8329	0.065
Mof_C 	C 	0.2495	0.0155	0.1457	0.171
Mof_C 	C 	0.2758	0.9251	0.3825	-0.139
Mof_C 	C 	0.2704	0.0149	0.393	0.035
Mof_H 	H 	0.2756	0.0458	0.4786	0.025
Mof_C 	C 	0.2837	0.9701	0.5168	-0.104
Mof_H 	H 	0.2975	0.9702	0.6839	0.083
Mof_C 	C 	0.2546	0.923	0.138	0.098
Mof_H 	H 	0.2491	0.8919	0.0546	0.012
Mof_C 	C 	0.2419	0.9686	0.0214	-0.148
Mof_H 	H 	0.2279	0.9682	0.8551	0.086
Mof_C 	C 	0.2886	0.8753	0.521	0.435
Mof_O 	O 	0.3451	0.872	0.554	-0.208
Mof_C 	C 	0.2992	0.0086	0.224	-0.235
Mof_H 	H 	0.3232	0.0343	0.1964	0.123
Mof_C 	C 	0.314	0.9628	0.344	0.16
Mof_H 	H 	0.3476	0.9574	0.3969	-0.003
Mof_C 	C 	0.2247	0.9301	0.303	-0.034
Mof_H 	H 	0.2004	0.9045	0.3248	0.041
Mof_C 	C 	0.2141	0.9773	0.187	-0.054
Mof_H 	H 	0.1806	0.9834	0.1337	0.048
Mof_Zn	Zn	0.77183	0.71567	0.3746	1.231
Mof_O 	O 	0.7249	0.7642	0.5191	-0.827
Mof_H 	H 	0.7042	0.7752	0.4072	0.323
Mof_N 	N 	0.7445	0.6439	0.4123	-0.273
Mof_C 	C 	0.7604	0.6078	0.568	0.108
Mof_H 	H 	0.7854	0.6127	0.6941	-0.019
Mof_N 	N 	0.7365	0.5624	0.5266	-0.167
Mof_C 	C 	0.7075	0.6226	0.2578	0.04
Mof_O 	O 	0.7726	0.3349	0.9339	-0.504
Mof_C 	C 	0.6785	0.6444	0.0622	-0.106
Mof_H 	H 	0.6827	0.6786	0.017	0.042
Mof_O 	O 	0.8003	0.3757	0.273	-0.269
Mof_C 	C 	0.6428	0.6139	0.9346	0
Mof_C 	C 	0.6135	0.6339	0.7352	-0.054
Mof_H 	H 	0.6179	0.668	0.6893	0.043
Mof_C 	C 	0.5777	0.6048	0.6013	-0.061
Mof_H 	H 	0.5581	0.6189	0.4684	0.047
Mof_C 	C 	0.5722	0.5537	0.6726	0.006
Mof_H 	H 	0.5489	0.5333	0.5838	0.023
Mof_C 	C 	0.6007	0.5329	0.8731	-0.126
Mof_H 	H 	0.5956	0.499	0.9206	0.074
Mof_C 	C 	0.6372	0.5624	0.0061	0.081
Mof_C 	C 	0.6665	0.5407	0.2034	-0.154
Mof_H 	H 	0.6631	0.5063	0.2467	0.082
Mof_C 	C 	0.7006	0.5719	0.3329	0.087
Mof_C 	C 	0.7495	0.5155	0.6457	0.161
Mof_C 	C 	0.7758	0.4251	0.8825	-0.113
Mof_C 	C 	0.7704	0.5149	0.893	0.04
Mof_H 	H 	0.7756	0.5458	0.9786	0.022
Mof_C 	C 	0.7837	0.4701	0.0168	-0.122
Mof_H 	H 	0.7975	0.4702	0.1839	0.09
Mof_C 	C 	0.7546	0.423	0.638	0.141
Mof_H 	H 	0.7491	0.3919	0.5546	0.001
Mof_C 	C 	0.7419	0.4686	0.5214	-0.196
Mof_H 	H 	0.7279	0.4682	0.3551	0.102
Mof_C 	C 	0.7886	0.3753	0.021	0.406
Mof_O 	O 	0.8451	0.372	0.054	-0.21
Mof_C 	C 	0.7992	0.5086	0.724	-0.226
Mof_H 	H 	0.8232	0.5343	0.6964	0.119
Mof_C 	C 	0.814	0.4628	0.844	0.155
Mof_H 	H 	0.8476	0.4574	0.8969	0.001
Mof_C 	C 	0.7247	0.4301	0.803	-0.094
Mof_H 	H 	0.7004	0.4045	0.8248	0.064
Mof_C 	C 	0.7141	0.4773	0.687	0.007
Mof_H 	H 	0.6806	0.4834	0.6337	0.026
Mof_Zn	Zn	0.72817	0.78433	0.8746	1.226
Mof_O 	O 	0.7751	0.7358	0.0191	-0.802
Mof_H 	H 	0.7958	0.7248	0.9072	0.305
Mof_N 	N 	0.7555	0.8561	0.9123	-0.285
Mof_C 	C 	0.7396	0.8922	0.068	0.124
Mof_H 	H 	0.7146	0.8873	0.1941	-0.021
Mof_N 	N 	0.7635	0.9376	0.0266	-0.165
Mof_C 	C 	0.7925	0.8774	0.7578	0.057
Mof_O 	O 	0.7274	0.1651	0.4339	-0.522
Mof_C 	C 	0.8215	0.8556	0.5622	-0.145
Mof_H 	H 	0.8173	0.8214	0.517	0.052
Mof_O 	O 	0.6997	0.1243	0.773	-0.27
Mof_C 	C 	0.8572	0.8861	0.4346	0.052
Mof_C 	C 	0.8865	0.8661	0.2352	-0.096
Mof_H 	H 	0.8821	0.832	0.1893	0.062
Mof_C 	C 	0.9223	0.8952	0.1013	-0.014
Mof_H 	H 	0.9419	0.8811	0.9684	0.027
Mof_C 	C 	0.9278	0.9463	0.1726	-0.034
Mof_H 	H 	0.9511	0.9667	0.0838	0.036
Mof_C 	C 	0.8993	0.9671	0.3731	-0.084
Mof_H 	H 	0.9044	0.001	0.4206	0.059
Mof_C 	C 	0.8628	0.9376	0.5061	0.037
Mof_C 	C 	0.8335	0.9593	0.7034	-0.125
Mof_H 	H 	0.8369	0.9937	0.7467	0.072
Mof_C 	C 	0.7994	0.9281	0.8329	0.065
Mof_C 	C 	0.7505	0.9845	0.1457	0.171
Mof_C 	C 	0.7242	0.0749	0.3825	-0.139
Mof_C 	C 	0.7296	0.9851	0.393	0.035
Mof_H 	H 	0.7244	0.9542	0.4786	0.025
Mof_C 	C 	0.7163	0.0299	0.5168	-0.104
Mof_H 	H 	0.7025	0.0298	0.6839	0.083
Mof_C 	C 	0.7454	0.077	0.138	0.098
Mof_H 	H 	0.7509	0.1081	0.0546	0.012
Mof_C 	C 	0.7581	0.0314	0.0214	-0.148
Mof_H 	H 	0.7721	0.0318	0.8551	0.086
Mof_C 	C 	0.7114	0.1247	0.521	0.435
Mof_O 	O 	0.6549	0.128	0.554	-0.208
Mof_C 	C 	0.7008	0.9914	0.224	-0.235
Mof_H 	H 	0.6768	0.9657	0.1964	0.123
Mof_C 	C 	0.686	0.0372	0.344	0.16
Mof_H 	H 	0.6524	0.0426	0.3969	-0.003
Mof_C 	C 	0.7753	0.0699	0.303	-0.034
Mof_H 	H 	0.7996	0.0955	0.3248	0.041
Mof_C 	C 	0.7859	0.0227	0.187	-0.054
Mof_H 	H 	0.8194	0.0166	0.1337	0.048
Mof_Zn	Zn	0.22817	0.28433	0.3746	1.231
Mof_O 	O 	0.2751	0.2358	0.5191	-0.827
Mof_H 	H 	0.2958	0.2248	0.4072	0.323
Mof_N 	N 	0.2555	0.3561	0.4123	-0.273
Mof_C 	C 	0.2396	0.3922	0.568	0.108
Mof_H 	H 	0.2146	0.3873	0.6941	-0.019
Mof_N 	N 	0.2635	0.4376	0.5266	-0.167
Mof_C 	C 	0.2925	0.3774	0.2578	0.04
Mof_O 	O 	0.2274	0.6651	0.9339	-0.504
Mof_C 	C 	0.3215	0.3556	0.0622	-0.106
Mof_H 	H 	0.3173	0.3214	0.017	0.042
Mof_O 	O 	0.1997	0.6243	0.273	-0.269
Mof_C 	C 	0.3572	0.3861	0.9346	0
Mof_C 	C 	0.3865	0.3661	0.7352	-0.054
Mof_H 	H 	0.3821	0.332	0.6893	0.043
Mof_C 	C 	0.4223	0.3952	0.6013	-0.061
Mof_H 	H 	0.4419	0.3811	0.4684	0.047
Mof_C 	C 	0.4278	0.4463	0.6726	0.006
Mof_H 	H 	0.4511	0.4667	0.5838	0.023
Mof_C 	C 	0.3993	0.4671	0.8731	-0.126
Mof_H 	H 	0.4044	0.501	0.9206	0.074
Mof_C 	C 	0.3628	0.4376	0.0061	0.081
Mof_C 	C 	0.3335	0.4593	0.2034	-0.154
Mof_H 	H 	0.3369	0.4937	0.2467	0.082
Mof_C 	C 	0.2994	0.4281	0.3329	0.087
Mof_C 	C 	0.2505	0.4845	0.6457	0.161
Mof_C 	C 	0.2242	0.5749	0.8825	-0.113
Mof_C 	C 	0.2296	0.4851	0.893	0.04
Mof_H 	H 	0.2244	0.4542	0.9786	0.022
Mof_C 	C 	0.2163	0.5299	0.0168	-0.122
Mof_H 	H 	0.2025	0.5298	0.1839	0.09
Mof_C 	C 	0.2454	0.577	0.638	0.141
Mof_H 	H 	0.2509	0.6081	0.5546	0.001
Mof_C 	C 	0.2581	0.5314	0.5214	-0.196
Mof_H 	H 	0.2721	0.5318	0.3551	0.102
Mof_C 	C 	0.2114	0.6247	0.021	0.406
Mof_O 	O 	0.1549	0.628	0.054	-0.21
Mof_C 	C 	0.2008	0.4914	0.724	-0.226
Mof_H 	H 	0.1768	0.4657	0.6964	0.119
Mof_C 	C 	0.186	0.5372	0.844	0.155
Mof_H 	H 	0.1524	0.5426	0.8969	0.001
Mof_C 	C 	0.2753	0.5699	0.803	-0.094
Mof_H 	H 	0.2996	0.5955	0.8248	0.064
Mof_C 	C 	0.2859	0.5227	0.687	0.007
Mof_H 	H 	0.3194	0.5166	0.6337	0.026
Mof_Zn	Zn	0.21567	0.72817	0.1254	1.226
Mof_O 	O 	0.2642	0.7751	0.9809	-0.802
Mof_H 	H 	0.2752	0.7958	0.0928	0.305
Mof_N 	N 	0.1439	0.7555	0.0877	-0.285
Mof_C 	C 	0.1078	0.7396	0.932	0.124
Mof_H 	H 	0.1127	0.7146	0.8059	-0.021
Mof_N 	N 	0.0624	0.7635	0.9734	-0.165
Mof_C 	C 	0.1226	0.7925	0.2422	0.057
Mof_O 	O 	0.8349	0.7274	0.5661	-0.522
Mof_C 	C 	0.1444	0.8215	0.4378	-0.145
Mof_H 	H 	0.1786	0.8173	0.483	0.052
Mof_O 	O 	0.8757	0.6997	0.227	-0.27
Mof_C 	C 	0.1139	0.8572	0.5654	0.052
Mof_C 	C 	0.1339	0.8865	0.7648	-0.096
Mof_H 	H 	0.168	0.8821	0.8107	0.062
Mof_C 	C 	0.1048	0.9223	0.8987	-0.014
Mof_H 	H 	0.1189	0.9419	0.0316	0.027
Mof_C 	C 	0.0537	0.9278	0.8274	-0.034
Mof_H 	H 	0.0333	0.9511	0.9162	0.036
Mof_C 	C 	0.0329	0.8993	0.6269	-0.084
Mof_H 	H 	0.999	0.9044	0.5794	0.059
Mof_C 	C 	0.0624	0.8628	0.4939	0.037
Mof_C 	C 	0.0407	0.8335	0.2966	-0.125
Mof_H 	H 	0.0063	0.8369	0.2533	0.072
Mof_C 	C 	0.0719	0.7994	0.1671	0.065
Mof_C 	C 	0.0155	0.7505	0.8543	0.171
Mof_C 	C 	0.9251	0.7242	0.6175	-0.139
Mof_C 	C 	0.0149	0.7296	0.607	0.035
Mof_H 	H 	0.0458	0.7244	0.5214	0.025
Mof_C 	C 	0.9701	0.7163	0.4832	-0.104
Mof_H 	H 	0.9702	0.7025	0.3161	0.083
Mof_C 	C 	0.923	0.7454	0.862	0.098
Mof_H 	H 	0.8919	0.7509	0.9454	0.012
Mof_C 	C 	0.9686	0.7581	0.9786	-0.148
Mof_H 	H 	0.9682	0.7721	0.1449	0.086
Mof_C 	C 	0.8753	0.7114	0.479	0.435
Mof_O 	O 	0.872	0.6549	0.446	-0.208
Mof_C 	C 	0.0086	0.7008	0.776	-0.235
Mof_H 	H 	0.0343	0.6768	0.8036	0.123
Mof_C 	C 	0.9628	0.686	0.656	0.16
Mof_H 	H 	0.9574	0.6524	0.6031	-0.003
Mof_C 	C 	0.9301	0.7753	0.697	-0.034
Mof_H 	H 	0.9045	0.7996	0.6752	0.041
Mof_C 	C 	0.9773	0.7859	0.813	-0.054
Mof_H 	H 	0.9834	0.8194	0.8663	0.048
Mof_Zn	Zn	0.71567	0.22817	0.6254	1.231
Mof_O 	O 	0.7642	0.2751	0.4809	-0.827
Mof_H 	H 	0.7752	0.2958	0.5928	0.323
Mof_N 	N 	0.6439	0.2555	0.5877	-0.273
Mof_C 	C 	0.6078	0.2396	0.432	0.108
Mof_H 	H 	0.6127	0.2146	0.3059	-0.019
Mof_N 	N 	0.5624	0.2635	0.4734	-0.167
Mof_C 	C 	0.6226	0.2925	0.7422	0.04
Mof_O 	O 	0.3349	0.2274	0.0661	-0.504
Mof_C 	C 	0.6444	0.3215	0.9378	-0.106
Mof_H 	H 	0.6786	0.3173	0.983	0.042
Mof_O 	O 	0.3757	0.1997	0.727	-0.269
Mof_C 	C 	0.6139	0.3572	0.0654	0
Mof_C 	C 	0.6339	0.3865	0.2648	-0.054
Mof_H 	H 	0.668	0.3821	0.3107	0.043
Mof_C 	C 	0.6048	0.4223	0.3987	-0.061
Mof_H 	H 	0.6189	0.4419	0.5316	0.047
Mof_C 	C 	0.5537	0.4278	0.3274	0.006
Mof_H 	H 	0.5333	0.4511	0.4162	0.023
Mof_C 	C 	0.5329	0.3993	0.1269	-0.126
Mof_H 	H 	0.499	0.4044	0.0794	0.074
Mof_C 	C 	0.5624	0.3628	0.9939	0.081
Mof_C 	C 	0.5407	0.3335	0.7966	-0.154
Mof_H 	H 	0.5063	0.3369	0.7533	0.082
Mof_C 	C 	0.5719	0.2994	0.6671	0.087
Mof_C 	C 	0.5155	0.2505	0.3543	0.161
Mof_C 	C 	0.4251	0.2242	0.1175	-0.113
Mof_C 	C 	0.5149	0.2296	0.107	0.04
Mof_H 	H 	0.5458	0.2244	0.0214	0.022
Mof_C 	C 	0.4701	0.2163	0.9832	-0.122
Mof_H 	H 	0.4702	0.2025	0.8161	0.09
Mof_C 	C 	0.423	0.2454	0.362	0.141
Mof_H 	H 	0.3919	0.2509	0.4454	0.001
Mof_C 	C 	0.4686	0.2581	0.4786	-0.196
Mof_H 	H 	0.4682	0.2721	0.6449	0.102
Mof_C 	C 	0.3753	0.2114	0.979	0.406
Mof_O 	O 	0.372	0.1549	0.946	-0.21
Mof_C 	C 	0.5086	0.2008	0.276	-0.226
Mof_H 	H 	0.5343	0.1768	0.3036	0.119
Mof_C 	C 	0.4628	0.186	0.156	0.155
Mof_H 	H 	0.4574	0.1524	0.1031	0.001
Mof_C 	C 	0.4301	0.2753	0.197	-0.094
Mof_H 	H 	0.4045	0.2996	0.1752	0.064
Mof_C 	C 	0.4773	0.2859	0.313	0.007
Mof_H 	H 	0.4834	0.3194	0.3663	0.026
Mof_Zn	Zn	0.78433	0.27183	0.1254	1.226
Mof_O 	O 	0.7358	0.2249	0.9809	-0.802
Mof_H 	H 	0.7248	0.2042	0.0928	0.305
Mof_N 	N 	0.8561	0.2445	0.0877	-0.285
Mof_C 	C 	0.8922	0.2604	0.932	0.124
Mof_H 	H 	0.8873	0.2854	0.8059	-0.021
Mof_N 	N 	0.9376	0.2365	0.9734	-0.165
Mof_C 	C 	0.8774	0.2075	0.2422	0.057
Mof_O 	O 	0.1651	0.2726	0.5661	-0.522
Mof_C 	C 	0.8556	0.1785	0.4378	-0.145
Mof_H 	H 	0.8214	0.1827	0.483	0.052
Mof_O 	O 	0.1243	0.3003	0.227	-0.27
Mof_C 	C 	0.8861	0.1428	0.5654	0.052
Mof_C 	C 	0.8661	0.1135	0.7648	-0.096
Mof_H 	H 	0.832	0.1179	0.8107	0.062
Mof_C 	C 	0.8952	0.0777	0.8987	-0.014
Mof_H 	H 	0.8811	0.0581	0.0316	0.027
Mof_C 	C 	0.9463	0.0722	0.8274	-0.034
Mof_H 	H 	0.9667	0.0489	0.9162	0.036
Mof_C 	C 	0.9671	0.1007	0.6269	-0.084
Mof_H 	H 	0.001	0.0956	0.5794	0.059
Mof_C 	C 	0.9376	0.1372	0.4939	0.037
Mof_C 	C 	0.9593	0.1665	0.2966	-0.125
Mof_H 	H 	0.9937	0.1631	0.2533	0.072
Mof_C 	C 	0.9281	0.2006	0.1671	0.065
Mof_C 	C 	0.9845	0.2495	0.8543	0.171
Mof_C 	C 	0.0749	0.2758	0.6175	-0.139
Mof_C 	C 	0.9851	0.2704	0.607	0.035
Mof_H 	H 	0.9542	0.2756	0.5214	0.025
Mof_C 	C 	0.0299	0.2837	0.4832	-0.104
Mof_H 	H 	0.0298	0.2975	0.3161	0.083
Mof_C 	C 	0.077	0.2546	0.862	0.098
Mof_H 	H 	0.1081	0.2491	0.9454	0.012
Mof_C 	C 	0.0314	0.2419	0.9786	-0.148
Mof_H 	H 	0.0318	0.2279	0.1449	0.086
Mof_C 	C 	0.1247	0.2886	0.479	0.435
Mof_O 	O 	0.128	0.3451	0.446	-0.208
Mof_C 	C 	0.9914	0.2992	0.776	-0.235
Mof_H 	H 	0.9657	0.3232	0.8036	0.123
Mof_C 	C 	0.0372	0.314	0.656	0.16
Mof_H 	H 	0.0426	0.3476	0.6031	-0.003
Mof_C 	C 	0.0699	0.2247	0.697	-0.034
Mof_H 	H 	0.0955	0.2004	0.6752	0.041
Mof_C 	C 	0.0227	0.2141	0.813	-0.054
Mof_H 	H 	0.0166	0.1806	0.8663	0.048
Mof_Zn	Zn	0.28433	0.77183	0.6254	1.231
Mof_O 	O 	0.2358	0.7249	0.4809	-0.827
Mof_H 	H 	0.2248	0.7042	0.5928	0.323
Mof_N 	N 	0.3561	0.7445	0.5877	-0.273
Mof_C 	C 	0.3922	0.7604	0.432	0.108
Mof_H 	H 	0.3873	0.7854	0.3059	-0.019
Mof_N 	N 	0.4376	0.7365	0.4734	-0.167
Mof_C 	C 	0.3774	0.7075	0.7422	0.04
Mof_O 	O 	0.6651	0.7726	0.0661	-0.504
Mof_C 	C 	0.3556	0.6785	0.9378	-0.106
Mof_H 	H 	0.3214	0.6827	0.983	0.042
Mof_O 	O 	0.6243	0.8003	0.727	-0.269
Mof_C 	C 	0.3861	0.6428	0.0654	0
Mof_C 	C 	0.3661	0.6135	0.2648	-0.054
Mof_H 	H 	0.332	0.6179	0.3107	0.043
Mof_C 	C 	0.3952	0.5777	0.3987	-0.061
Mof_H 	H 	0.3811	0.5581	0.5316	0.047
Mof_C 	C 	0.4463	0.5722	0.3274	0.006
Mof_H 	H 	0.4667	0.5489	0.4162	0.023
Mof_C 	C 	0.4671	0.6007	0.1269	-0.126
Mof_H 	H 	0.501	0.5956	0.0794	0.074
Mof_C 	C 	0.4376	0.6372	0.9939	0.081
Mof_C 	C 	0.4593	0.6665	0.7966	-0.154
Mof_H 	H 	0.4937	0.6631	0.7533	0.082
Mof_C 	C 	0.4281	0.7006	0.6671	0.087
Mof_C 	C 	0.4845	0.7495	0.3543	0.161
Mof_C 	C 	0.5749	0.7758	0.1175	-0.113
Mof_C 	C 	0.4851	0.7704	0.107	0.04
Mof_H 	H 	0.4542	0.7756	0.0214	0.022
Mof_C 	C 	0.5299	0.7837	0.9832	-0.122
Mof_H 	H 	0.5298	0.7975	0.8161	0.09
Mof_C 	C 	0.577	0.7546	0.362	0.141
Mof_H 	H 	0.6081	0.7491	0.4454	0.001
Mof_C 	C 	0.5314	0.7419	0.4786	-0.196
Mof_H 	H 	0.5318	0.7279	0.6449	0.102
Mof_C 	C 	0.6247	0.7886	0.979	0.406
Mof_O 	O 	0.628	0.8451	0.946	-0.21
Mof_C 	C 	0.4914	0.7992	0.276	-0.226
Mof_H 	H 	0.4657	0.8232	0.3036	0.119
Mof_C 	C 	0.5372	0.814	0.156	0.155
Mof_H 	H 	0.5426	0.8476	0.1031	0.001
Mof_C 	C 	0.5699	0.7247	0.197	-0.094
Mof_H 	H 	0.5955	0.7004	0.1752	0.064
Mof_C 	C 	0.5227	0.7141	0.313	0.007
Mof_H 	H 	0.5166	0.6806	0.3663	0.026
_end
