data_functionalizedCrystal
_audit_creation_method	'EQeq! by Chris Wilmer'
_symmetry_space_group_name_H-M	'P1'
_symmetry_Int_Tables_number	1
_symmetry_cell_setting	triclinic
loop_
_symmetry_equiv_pos_as_xyz
  x,y,z
_cell_length_a	8.406
_cell_length_b	13.507
_cell_length_c	14.1361
_cell_angle_alpha	61.4615
_cell_angle_beta	85.7892
_cell_angle_gamma	81.1591
loop_
_atom_site_label
_atom_site_type_symbol
_atom_site_fract_x
_atom_site_fract_y
_atom_site_fract_z
_atom_site_charge
Mof_Zn	Zn	0.83362	0.9203	0.18274	1.199
Mof_Zn	Zn	0.33362	0.10304	0.81726	1.21
Mof_H 	H 	0.8399	0.0243	0.7406	0.036
Mof_H 	H 	0.079	0.9896	0.6658	0.058
Mof_H 	H 	0.8412	0.0421	0.4074	0.102
Mof_H 	H 	0.5999	0.0819	0.4806	0.03
Mof_H 	H 	0.2308	0.9662	0.5272	0.055
Mof_H 	H 	0.074	0.9997	0.3492	0.083
Mof_H 	H 	0.4574	0.8947	0.4822	0.105
Mof_H 	H 	0.6971	0.8662	0.4022	-0.017
Mof_H 	H 	0.4867	0.9903	0.125	-0.039
Mof_H 	H 	0.2402	0.0172	0.196	0.155
Mof_H 	H 	0.4658	0.1949	0.0752	0.029
Mof_H 	H 	0.5519	0.3072	0.1386	0.084
Mof_H 	H 	0.5327	0.567	0.8372	0.076
Mof_H 	H 	0.4467	0.4549	0.7762	0.025
Mof_H 	H 	0.6364	0.4846	0.1076	0.051
Mof_H 	H 	0.6063	0.6658	0.906	0.067
Mof_H 	H 	0.6405	0.8472	0.8892	0.093
Mof_H 	H 	0.7053	0.9597	0.9616	-0.02
Mof_H 	H 	0.8402	0.6869	0.2302	-0.022
Mof_H 	H 	0.7581	0.5706	0.1698	0.091
Mof_H 	H 	0.3399	0.7649	0.2594	0.021
Mof_H 	H 	0.579	0.6554	0.3342	0.083
Mof_H 	H 	0.3412	0.4495	0.5926	0.1
Mof_H 	H 	0.0999	0.5625	0.5194	0.023
Mof_H 	H 	0.7308	0.4934	0.4728	0.058
Mof_H 	H 	0.574	0.3489	0.6508	0.085
Mof_H 	H 	0.9574	0.3769	0.5178	0.104
Mof_H 	H 	0.1971	0.2684	0.5978	-0.012
Mof_H 	H 	0.9867	0.1153	0.875	-0.016
Mof_H 	H 	0.7402	0.2132	0.804	0.11
Mof_H 	H 	0.9658	0.2701	0.9248	0.032
Mof_H 	H 	0.0519	0.4458	0.8614	0.077
Mof_H 	H 	0.0327	0.4042	0.1628	0.071
Mof_H 	H 	0.9467	0.2311	0.2238	0.036
Mof_H 	H 	0.1364	0.5922	0.8924	0.053
Mof_H 	H 	0.1063	0.5718	0.094	0.069
Mof_H 	H 	0.1405	0.7364	0.1108	0.1
Mof_H 	H 	0.2053	0.9213	0.0384	-0.018
Mof_H 	H 	0.3402	0.9171	0.7698	-0.026
Mof_H 	H 	0.2581	0.7404	0.8302	0.091
Mof_C 	C 	0.5405	0.0821	0.666	0.32
Mof_C 	C 	0.6943	0.0585	0.6186	-0.111
Mof_C 	C 	0.8398	0.0292	0.6728	0.044
Mof_C 	C 	0.9832	0.0072	0.6286	-0.108
Mof_C 	C 	0.9855	0.0113	0.527	0.105
Mof_C 	C 	0.8416	0.0391	0.4744	-0.146
Mof_C 	C 	0.6955	0.063	0.5184	0.056
Mof_C 	C 	0.1405	0.9846	0.4846	-0.071
Mof_C 	C 	0.1643	0.9842	0.3908	-0.125
Mof_C 	C 	0.3234	0.9613	0.3468	0.176
Mof_C 	C 	0.4608	0.9142	0.4096	-0.211
Mof_C 	C 	0.6039	0.8971	0.3608	0.117
Mof_C 	C 	0.4798	0.9693	0.198	0.144
Mof_C 	C 	0.3318	0.9878	0.239	-0.266
Mof_C 	C 	0.3954	0.2404	0.8774	0.305
Mof_C 	C 	0.447	0.311	0.92	-0.117
Mof_C 	C 	0.4794	0.2697	0.027	0.061
Mof_C 	C 	0.5322	0.3367	0.0656	-0.135
Mof_C 	C 	0.555	0.4478	0.994	0.087
Mof_C 	C 	0.5204	0.4919	0.8852	-0.136
Mof_C 	C 	0.4684	0.4249	0.849	0.05
Mof_C 	C 	0.6115	0.5202	0.0346	-0.056
Mof_C 	C 	0.6303	0.629	0.9792	-0.11
Mof_C 	C 	0.6861	0.6967	0.0236	0.136
Mof_C 	C 	0.6755	0.8134	0.96	-0.182
Mof_C 	C 	0.7183	0.881	0.0032	0.089
Mof_C 	C 	0.7947	0.7202	0.162	0.087
Mof_C 	C 	0.7477	0.6489	0.1256	-0.183
Mof_C 	C 	0.0405	0.7481	0.334	0.34
Mof_C 	C 	0.1943	0.6771	0.3814	-0.132
Mof_C 	C 	0.3398	0.702	0.3272	0.07
Mof_C 	C 	0.4832	0.6358	0.3714	-0.149
Mof_C 	C 	0.4855	0.5383	0.473	0.107
Mof_C 	C 	0.3416	0.5135	0.5256	-0.157
Mof_C 	C 	0.1955	0.5814	0.4816	0.069
Mof_C 	C 	0.6405	0.4692	0.5154	-0.066
Mof_C 	C 	0.6643	0.375	0.6092	-0.112
Mof_C 	C 	0.8234	0.3081	0.6532	0.151
Mof_C 	C 	0.9608	0.3238	0.5904	-0.204
Mof_C 	C 	0.1039	0.2579	0.6392	0.124
Mof_C 	C 	0.9798	0.1673	0.802	0.105
Mof_C 	C 	0.8318	0.2268	0.761	-0.193
Mof_C 	C 	0.8954	0.1178	0.1226	0.294
Mof_C 	C 	0.947	0.231	0.08	-0.092
Mof_C 	C 	0.9794	0.2967	0.973	0.025
Mof_C 	C 	0.0322	0.4023	0.9344	-0.114
Mof_C 	C 	0.055	0.4418	0.006	0.083
Mof_C 	C 	0.0204	0.3771	0.1148	-0.107
Mof_C 	C 	0.9684	0.2739	0.151	0.019
Mof_C 	C 	0.1115	0.5548	0.9654	-0.06
Mof_C 	C 	0.1303	0.6082	0.0208	-0.102
Mof_C 	C 	0.1861	0.7203	0.9764	0.136
Mof_C 	C 	0.1755	0.7734	0.04	-0.182
Mof_C 	C 	0.2183	0.8842	0.9968	0.096
Mof_C 	C 	0.2947	0.8822	0.838	0.089
Mof_C 	C 	0.2477	0.7745	0.8744	-0.181
Mof_N 	N 	0.6142	0.9231	0.2564	-0.286
Mof_N 	N 	0.7773	0.8331	0.1036	-0.268
Mof_N 	N 	0.1142	0.1795	0.7436	-0.27
Mof_N 	N 	0.2773	0.9367	0.8964	-0.271
Mof_O 	O 	0.5465	0.0707	0.7624	-0.435
Mof_O 	O 	0.4106	0.1098	0.6168	-0.308
Mof_O 	O 	0.3792	0.1355	0.9418	-0.406
Mof_O 	O 	0.371	0.2814	0.7786	-0.38
Mof_O 	O 	0.0465	0.8331	0.2376	-0.447
Mof_O 	O 	0.9106	0.7266	0.3832	-0.33
Mof_O 	O 	0.8792	0.0773	0.0582	-0.4
Mof_O 	O 	0.871	0.06	0.2214	-0.368
_end
