data_functionalizedCrystal
_audit_creation_method	'EQeq! by Chris Wilmer'
_symmetry_space_group_name_H-M	'P1'
_symmetry_Int_Tables_number	1
_symmetry_cell_setting	triclinic
loop_
_symmetry_equiv_pos_as_xyz
  x,y,z
_cell_length_a	37.4139
_cell_length_b	37.4139
_cell_length_c	37.4139
_cell_angle_alpha	90
_cell_angle_beta	90
_cell_angle_gamma	90
loop_
_atom_site_label
_atom_site_type_symbol
_atom_site_fract_x
_atom_site_fract_y
_atom_site_fract_z
_atom_site_charge
Mof_N 	N 	0.53736	0.31172	0.29232	-0.187
Mof_N 	N 	0.53752	0.28479	0.31631	-0.215
Mof_N 	N 	0.56476	0.33353	0.29778	-0.101
Mof_C 	C 	0.58313	0.32014	0.32616	0.026
Mof_C 	C 	0.5658	0.28973	0.33755	0.004
Mof_H 	H 	0.5727	0.2749	0.357	0.006
Mof_C 	C 	0.6154	0.33744	0.34016	0.05
Mof_C 	C 	0.62962	0.36758	0.32359	-0.111
Mof_H 	H 	0.6186	0.3767	0.3026	0.067
Mof_N 	N 	0.53736	0.81172	0.79232	-0.187
Mof_N 	N 	0.53752	0.78479	0.81631	-0.214
Mof_N 	N 	0.56476	0.83353	0.79778	-0.1
Mof_C 	C 	0.58313	0.82014	0.82616	0.027
Mof_C 	C 	0.5658	0.78973	0.83755	0.005
Mof_H 	H 	0.5727	0.7749	0.857	0.007
Mof_C 	C 	0.6154	0.83744	0.84016	0.051
Mof_C 	C 	0.62962	0.86758	0.82359	-0.111
Mof_H 	H 	0.6186	0.8767	0.8026	0.068
Mof_N 	N 	0.03736	0.31172	0.79232	-0.189
Mof_N 	N 	0.03752	0.28479	0.81631	-0.216
Mof_N 	N 	0.06476	0.33353	0.79778	-0.102
Mof_C 	C 	0.08313	0.32014	0.82616	0.026
Mof_C 	C 	0.0658	0.28973	0.83755	0.004
Mof_H 	H 	0.0727	0.2749	0.857	0.005
Mof_C 	C 	0.1154	0.33744	0.84016	0.05
Mof_C 	C 	0.12962	0.36758	0.82359	-0.111
Mof_H 	H 	0.1186	0.3767	0.8026	0.066
Mof_N 	N 	0.03736	0.81172	0.29232	-0.189
Mof_N 	N 	0.03752	0.78479	0.31631	-0.217
Mof_N 	N 	0.06476	0.83353	0.29778	-0.101
Mof_C 	C 	0.08313	0.82014	0.32616	0.025
Mof_C 	C 	0.0658	0.78973	0.33755	0.004
Mof_H 	H 	0.0727	0.7749	0.357	0.005
Mof_C 	C 	0.1154	0.83744	0.34016	0.05
Mof_C 	C 	0.12962	0.86758	0.32359	-0.111
Mof_H 	H 	0.1186	0.8767	0.3026	0.067
Mof_N 	N 	0.46264	0.68828	0.29232	-0.187
Mof_N 	N 	0.46248	0.71521	0.31631	-0.215
Mof_N 	N 	0.43524	0.66647	0.29778	-0.101
Mof_C 	C 	0.41687	0.67986	0.32616	0.026
Mof_C 	C 	0.4342	0.71027	0.33755	0.004
Mof_H 	H 	0.4273	0.7251	0.357	0.006
Mof_C 	C 	0.3846	0.66256	0.34016	0.05
Mof_C 	C 	0.37038	0.63242	0.32359	-0.111
Mof_H 	H 	0.3814	0.6233	0.3026	0.067
Mof_N 	N 	0.46264	0.18828	0.79232	-0.187
Mof_N 	N 	0.46248	0.21521	0.81631	-0.214
Mof_N 	N 	0.43524	0.16647	0.79778	-0.101
Mof_C 	C 	0.41687	0.17986	0.82616	0.026
Mof_C 	C 	0.4342	0.21027	0.83755	0.004
Mof_H 	H 	0.4273	0.2251	0.857	0.007
Mof_C 	C 	0.3846	0.16256	0.84016	0.05
Mof_C 	C 	0.37038	0.13242	0.82359	-0.111
Mof_H 	H 	0.3814	0.1233	0.8026	0.066
Mof_N 	N 	0.96264	0.68828	0.79232	-0.181
Mof_N 	N 	0.96248	0.71521	0.81631	-0.208
Mof_N 	N 	0.93524	0.66647	0.79778	-0.099
Mof_C 	C 	0.91687	0.67986	0.82616	0.028
Mof_C 	C 	0.9342	0.71027	0.83755	0.006
Mof_H 	H 	0.9273	0.7251	0.857	0.009
Mof_C 	C 	0.8846	0.66256	0.84016	0.052
Mof_C 	C 	0.87038	0.63242	0.82359	-0.111
Mof_H 	H 	0.8814	0.6233	0.8026	0.068
Mof_N 	N 	0.96264	0.18828	0.29232	-0.181
Mof_N 	N 	0.96248	0.21521	0.31631	-0.209
Mof_N 	N 	0.93524	0.16647	0.29778	-0.1
Mof_C 	C 	0.91687	0.17986	0.32616	0.027
Mof_C 	C 	0.9342	0.21027	0.33755	0.005
Mof_H 	H 	0.9273	0.2251	0.357	0.008
Mof_C 	C 	0.8846	0.16256	0.34016	0.051
Mof_C 	C 	0.87038	0.13242	0.32359	-0.111
Mof_H 	H 	0.8814	0.1233	0.3026	0.067
Mof_N 	N 	0.46264	0.31172	0.70768	-0.187
Mof_N 	N 	0.46248	0.28479	0.68369	-0.215
Mof_N 	N 	0.43524	0.33353	0.70222	-0.101
Mof_C 	C 	0.41687	0.32014	0.67384	0.026
Mof_C 	C 	0.4342	0.28973	0.66245	0.004
Mof_H 	H 	0.4273	0.2749	0.643	0.006
Mof_C 	C 	0.3846	0.33744	0.65984	0.05
Mof_C 	C 	0.37038	0.36758	0.67641	-0.111
Mof_H 	H 	0.3814	0.3767	0.6974	0.067
Mof_N 	N 	0.46264	0.81172	0.20768	-0.187
Mof_N 	N 	0.46248	0.78479	0.18369	-0.215
Mof_N 	N 	0.43524	0.83353	0.20222	-0.1
Mof_C 	C 	0.41687	0.82014	0.17384	0.027
Mof_C 	C 	0.4342	0.78973	0.16245	0.005
Mof_H 	H 	0.4273	0.7749	0.143	0.006
Mof_C 	C 	0.3846	0.83744	0.15984	0.051
Mof_C 	C 	0.37038	0.86758	0.17641	-0.11
Mof_H 	H 	0.3814	0.8767	0.1974	0.068
Mof_N 	N 	0.96264	0.31172	0.20768	-0.18
Mof_N 	N 	0.96248	0.28479	0.18369	-0.208
Mof_N 	N 	0.93524	0.33353	0.20222	-0.098
Mof_C 	C 	0.91687	0.32014	0.17384	0.028
Mof_C 	C 	0.9342	0.28973	0.16245	0.006
Mof_H 	H 	0.9273	0.2749	0.143	0.008
Mof_C 	C 	0.8846	0.33744	0.15984	0.052
Mof_C 	C 	0.87038	0.36758	0.17641	-0.11
Mof_H 	H 	0.8814	0.3767	0.1974	0.068
Mof_N 	N 	0.96264	0.81172	0.70768	-0.18
Mof_N 	N 	0.96248	0.78479	0.68369	-0.208
Mof_N 	N 	0.93524	0.83353	0.70222	-0.097
Mof_C 	C 	0.91687	0.82014	0.67384	0.028
Mof_C 	C 	0.9342	0.78973	0.66245	0.007
Mof_H 	H 	0.9273	0.7749	0.643	0.009
Mof_C 	C 	0.8846	0.83744	0.65984	0.053
Mof_C 	C 	0.87038	0.86758	0.67641	-0.11
Mof_H 	H 	0.8814	0.8767	0.6974	0.069
Mof_N 	N 	0.53736	0.68828	0.70768	-0.186
Mof_N 	N 	0.53752	0.71521	0.68369	-0.214
Mof_N 	N 	0.56476	0.66647	0.70222	-0.1
Mof_C 	C 	0.58313	0.67986	0.67384	0.027
Mof_C 	C 	0.5658	0.71027	0.66245	0.005
Mof_H 	H 	0.5727	0.7251	0.643	0.007
Mof_C 	C 	0.6154	0.66256	0.65984	0.051
Mof_C 	C 	0.62962	0.63242	0.67641	-0.111
Mof_H 	H 	0.6186	0.6233	0.6974	0.068
Mof_N 	N 	0.53736	0.18828	0.20768	-0.186
Mof_N 	N 	0.53752	0.21521	0.18369	-0.214
Mof_N 	N 	0.56476	0.16647	0.20222	-0.1
Mof_C 	C 	0.58313	0.17986	0.17384	0.026
Mof_C 	C 	0.5658	0.21027	0.16245	0.005
Mof_H 	H 	0.5727	0.2251	0.143	0.006
Mof_C 	C 	0.6154	0.16256	0.15984	0.05
Mof_C 	C 	0.62962	0.13242	0.17641	-0.11
Mof_H 	H 	0.6186	0.1233	0.1974	0.067
Mof_N 	N 	0.03736	0.68828	0.20768	-0.188
Mof_N 	N 	0.03752	0.71521	0.18369	-0.216
Mof_N 	N 	0.06476	0.66647	0.20222	-0.101
Mof_C 	C 	0.08313	0.67986	0.17384	0.026
Mof_C 	C 	0.0658	0.71027	0.16245	0.004
Mof_H 	H 	0.0727	0.7251	0.143	0.005
Mof_C 	C 	0.1154	0.66256	0.15984	0.05
Mof_C 	C 	0.12962	0.63242	0.17641	-0.11
Mof_H 	H 	0.1186	0.6233	0.1974	0.067
Mof_N 	N 	0.03736	0.18828	0.70768	-0.188
Mof_N 	N 	0.03752	0.21521	0.68369	-0.216
Mof_N 	N 	0.06476	0.16647	0.70222	-0.101
Mof_C 	C 	0.08313	0.17986	0.67384	0.026
Mof_C 	C 	0.0658	0.21027	0.66245	0.004
Mof_H 	H 	0.0727	0.2251	0.643	0.005
Mof_C 	C 	0.1154	0.16256	0.65984	0.05
Mof_C 	C 	0.12962	0.13242	0.67641	-0.111
Mof_H 	H 	0.1186	0.1233	0.6974	0.066
Mof_N 	N 	0.29232	0.53736	0.31172	-0.186
Mof_N 	N 	0.31631	0.53752	0.28479	-0.214
Mof_N 	N 	0.29778	0.56476	0.33353	-0.1
Mof_C 	C 	0.32616	0.58313	0.32014	0.027
Mof_C 	C 	0.33755	0.5658	0.28973	0.005
Mof_H 	H 	0.357	0.5727	0.2749	0.007
Mof_C 	C 	0.34016	0.6154	0.33744	0.051
Mof_C 	C 	0.32359	0.62962	0.36758	-0.11
Mof_H 	H 	0.3026	0.6186	0.3767	0.068
Mof_N 	N 	0.29232	0.03736	0.81172	-0.188
Mof_N 	N 	0.31631	0.03752	0.78479	-0.216
Mof_N 	N 	0.29778	0.06476	0.83353	-0.1
Mof_C 	C 	0.32616	0.08313	0.82014	0.026
Mof_C 	C 	0.33755	0.0658	0.78973	0.005
Mof_H 	H 	0.357	0.0727	0.7749	0.006
Mof_C 	C 	0.34016	0.1154	0.83744	0.051
Mof_C 	C 	0.32359	0.12962	0.86758	-0.11
Mof_H 	H 	0.3026	0.1186	0.8767	0.068
Mof_N 	N 	0.79232	0.53736	0.81172	-0.186
Mof_N 	N 	0.81631	0.53752	0.78479	-0.213
Mof_N 	N 	0.79778	0.56476	0.83353	-0.099
Mof_C 	C 	0.82616	0.58313	0.82014	0.028
Mof_C 	C 	0.83755	0.5658	0.78973	0.006
Mof_H 	H 	0.857	0.5727	0.7749	0.008
Mof_C 	C 	0.84016	0.6154	0.83744	0.052
Mof_C 	C 	0.82359	0.62962	0.86758	-0.11
Mof_H 	H 	0.8026	0.6186	0.8767	0.069
Mof_N 	N 	0.79232	0.03736	0.31172	-0.188
Mof_N 	N 	0.81631	0.03752	0.28479	-0.215
Mof_N 	N 	0.79778	0.06476	0.33353	-0.101
Mof_C 	C 	0.82616	0.08313	0.32014	0.027
Mof_C 	C 	0.83755	0.0658	0.28973	0.005
Mof_H 	H 	0.857	0.0727	0.2749	0.006
Mof_C 	C 	0.84016	0.1154	0.33744	0.051
Mof_C 	C 	0.82359	0.12962	0.36758	-0.11
Mof_H 	H 	0.8026	0.1186	0.3767	0.067
Mof_N 	N 	0.29232	0.46264	0.68828	-0.186
Mof_N 	N 	0.31631	0.46248	0.71521	-0.214
Mof_N 	N 	0.29778	0.43524	0.66647	-0.1
Mof_C 	C 	0.32616	0.41687	0.67986	0.027
Mof_C 	C 	0.33755	0.4342	0.71027	0.005
Mof_H 	H 	0.357	0.4273	0.7251	0.007
Mof_C 	C 	0.34016	0.3846	0.66256	0.051
Mof_C 	C 	0.32359	0.37038	0.63242	-0.11
Mof_H 	H 	0.3026	0.3814	0.6233	0.068
Mof_N 	N 	0.29232	0.96264	0.18828	-0.18
Mof_N 	N 	0.31631	0.96248	0.21521	-0.208
Mof_N 	N 	0.29778	0.93524	0.16647	-0.099
Mof_C 	C 	0.32616	0.91687	0.17986	0.028
Mof_C 	C 	0.33755	0.9342	0.21027	0.006
Mof_H 	H 	0.357	0.9273	0.2251	0.009
Mof_C 	C 	0.34016	0.8846	0.16256	0.052
Mof_C 	C 	0.32359	0.87038	0.13242	-0.11
Mof_H 	H 	0.3026	0.8814	0.1233	0.068
Mof_N 	N 	0.79232	0.46264	0.18828	-0.186
Mof_N 	N 	0.81631	0.46248	0.21521	-0.213
Mof_N 	N 	0.79778	0.43524	0.16647	-0.1
Mof_C 	C 	0.82616	0.41687	0.17986	0.027
Mof_C 	C 	0.83755	0.4342	0.21027	0.005
Mof_H 	H 	0.857	0.4273	0.2251	0.008
Mof_C 	C 	0.84016	0.3846	0.16256	0.051
Mof_C 	C 	0.82359	0.37038	0.13242	-0.11
Mof_H 	H 	0.8026	0.3814	0.1233	0.067
Mof_N 	N 	0.79232	0.96264	0.68828	-0.18
Mof_N 	N 	0.81631	0.96248	0.71521	-0.207
Mof_N 	N 	0.79778	0.93524	0.66647	-0.098
Mof_C 	C 	0.82616	0.91687	0.67986	0.029
Mof_C 	C 	0.83755	0.9342	0.71027	0.007
Mof_H 	H 	0.857	0.9273	0.7251	0.01
Mof_C 	C 	0.84016	0.8846	0.66256	0.053
Mof_C 	C 	0.82359	0.87038	0.63242	-0.11
Mof_H 	H 	0.8026	0.8814	0.6233	0.069
Mof_N 	N 	0.70768	0.46264	0.31172	-0.186
Mof_N 	N 	0.68369	0.46248	0.28479	-0.214
Mof_N 	N 	0.70222	0.43524	0.33353	-0.1
Mof_C 	C 	0.67384	0.41687	0.32014	0.027
Mof_C 	C 	0.66245	0.4342	0.28973	0.005
Mof_H 	H 	0.643	0.4273	0.2749	0.007
Mof_C 	C 	0.65984	0.3846	0.33744	0.051
Mof_C 	C 	0.67641	0.37038	0.36758	-0.11
Mof_H 	H 	0.6974	0.3814	0.3767	0.068
Mof_N 	N 	0.70768	0.96264	0.81172	-0.18
Mof_N 	N 	0.68369	0.96248	0.78479	-0.208
Mof_N 	N 	0.70222	0.93524	0.83353	-0.097
Mof_C 	C 	0.67384	0.91687	0.82014	0.028
Mof_C 	C 	0.66245	0.9342	0.78973	0.007
Mof_H 	H 	0.643	0.9273	0.7749	0.009
Mof_C 	C 	0.65984	0.8846	0.83744	0.053
Mof_C 	C 	0.67641	0.87038	0.86758	-0.11
Mof_H 	H 	0.6974	0.8814	0.8767	0.069
Mof_N 	N 	0.20768	0.46264	0.81172	-0.186
Mof_N 	N 	0.18369	0.46248	0.78479	-0.214
Mof_N 	N 	0.20222	0.43524	0.83353	-0.099
Mof_C 	C 	0.17384	0.41687	0.82014	0.027
Mof_C 	C 	0.16245	0.4342	0.78973	0.005
Mof_H 	H 	0.143	0.4273	0.7749	0.006
Mof_C 	C 	0.15984	0.3846	0.83744	0.051
Mof_C 	C 	0.17641	0.37038	0.86758	-0.11
Mof_H 	H 	0.1974	0.3814	0.8767	0.068
Mof_N 	N 	0.20768	0.96264	0.31172	-0.18
Mof_N 	N 	0.18369	0.96248	0.28479	-0.208
Mof_N 	N 	0.20222	0.93524	0.33353	-0.098
Mof_C 	C 	0.17384	0.91687	0.32014	0.028
Mof_C 	C 	0.16245	0.9342	0.28973	0.006
Mof_H 	H 	0.143	0.9273	0.2749	0.008
Mof_C 	C 	0.15984	0.8846	0.33744	0.052
Mof_C 	C 	0.17641	0.87038	0.36758	-0.11
Mof_H 	H 	0.1974	0.8814	0.3767	0.068
Mof_N 	N 	0.70768	0.53736	0.68828	-0.186
Mof_N 	N 	0.68369	0.53752	0.71521	-0.214
Mof_N 	N 	0.70222	0.56476	0.66647	-0.1
Mof_C 	C 	0.67384	0.58313	0.67986	0.027
Mof_C 	C 	0.66245	0.5658	0.71027	0.005
Mof_H 	H 	0.643	0.5727	0.7251	0.007
Mof_C 	C 	0.65984	0.6154	0.66256	0.051
Mof_C 	C 	0.67641	0.62962	0.63242	-0.111
Mof_H 	H 	0.6974	0.6186	0.6233	0.068
Mof_N 	N 	0.70768	0.03736	0.18828	-0.188
Mof_N 	N 	0.68369	0.03752	0.21521	-0.216
Mof_N 	N 	0.70222	0.06476	0.16647	-0.101
Mof_C 	C 	0.67384	0.08313	0.17986	0.026
Mof_C 	C 	0.66245	0.0658	0.21027	0.004
Mof_H 	H 	0.643	0.0727	0.2251	0.005
Mof_C 	C 	0.65984	0.1154	0.16256	0.05
Mof_C 	C 	0.67641	0.12962	0.13242	-0.111
Mof_H 	H 	0.6974	0.1186	0.1233	0.066
Mof_N 	N 	0.20768	0.53736	0.18828	-0.186
Mof_N 	N 	0.18369	0.53752	0.21521	-0.214
Mof_N 	N 	0.20222	0.56476	0.16647	-0.1
Mof_C 	C 	0.17384	0.58313	0.17986	0.026
Mof_C 	C 	0.16245	0.5658	0.21027	0.005
Mof_H 	H 	0.143	0.5727	0.2251	0.006
Mof_C 	C 	0.15984	0.6154	0.16256	0.05
Mof_C 	C 	0.17641	0.62962	0.13242	-0.11
Mof_H 	H 	0.1974	0.6186	0.1233	0.067
Mof_N 	N 	0.20768	0.03736	0.68828	-0.188
Mof_N 	N 	0.18369	0.03752	0.71521	-0.216
Mof_N 	N 	0.20222	0.06476	0.66647	-0.101
Mof_C 	C 	0.17384	0.08313	0.67986	0.026
Mof_C 	C 	0.16245	0.0658	0.71027	0.004
Mof_H 	H 	0.143	0.0727	0.7251	0.005
Mof_C 	C 	0.15984	0.1154	0.66256	0.05
Mof_C 	C 	0.17641	0.12962	0.63242	-0.11
Mof_H 	H 	0.1974	0.1186	0.6233	0.067
Mof_N 	N 	0.31172	0.29232	0.53736	-0.186
Mof_N 	N 	0.28479	0.31631	0.53752	-0.214
Mof_N 	N 	0.33353	0.29778	0.56476	-0.1
Mof_C 	C 	0.32014	0.32616	0.58313	0.027
Mof_C 	C 	0.28973	0.33755	0.5658	0.005
Mof_H 	H 	0.2749	0.357	0.5727	0.007
Mof_C 	C 	0.33744	0.34016	0.6154	0.051
Mof_C 	C 	0.36758	0.32359	0.62962	-0.11
Mof_H 	H 	0.3767	0.3026	0.6186	0.068
Mof_N 	N 	0.31172	0.79232	0.03736	-0.188
Mof_N 	N 	0.28479	0.81631	0.03752	-0.215
Mof_N 	N 	0.33353	0.79778	0.06476	-0.101
Mof_C 	C 	0.32014	0.82616	0.08313	0.027
Mof_C 	C 	0.28973	0.83755	0.0658	0.005
Mof_H 	H 	0.2749	0.857	0.0727	0.006
Mof_C 	C 	0.33744	0.84016	0.1154	0.051
Mof_C 	C 	0.36758	0.82359	0.12962	-0.11
Mof_H 	H 	0.3767	0.8026	0.1186	0.067
Mof_N 	N 	0.81172	0.29232	0.03736	-0.188
Mof_N 	N 	0.78479	0.31631	0.03752	-0.216
Mof_N 	N 	0.83353	0.29778	0.06476	-0.1
Mof_C 	C 	0.82014	0.32616	0.08313	0.026
Mof_C 	C 	0.78973	0.33755	0.0658	0.005
Mof_H 	H 	0.7749	0.357	0.0727	0.006
Mof_C 	C 	0.83744	0.34016	0.1154	0.051
Mof_C 	C 	0.86758	0.32359	0.12962	-0.11
Mof_H 	H 	0.8767	0.3026	0.1186	0.068
Mof_N 	N 	0.81172	0.79232	0.53736	-0.186
Mof_N 	N 	0.78479	0.81631	0.53752	-0.213
Mof_N 	N 	0.83353	0.79778	0.56476	-0.099
Mof_C 	C 	0.82014	0.82616	0.58313	0.028
Mof_C 	C 	0.78973	0.83755	0.5658	0.006
Mof_H 	H 	0.7749	0.857	0.5727	0.008
Mof_C 	C 	0.83744	0.84016	0.6154	0.052
Mof_C 	C 	0.86758	0.82359	0.62962	-0.11
Mof_H 	H 	0.8767	0.8026	0.6186	0.069
Mof_N 	N 	0.68828	0.29232	0.46264	-0.186
Mof_N 	N 	0.71521	0.31631	0.46248	-0.214
Mof_N 	N 	0.66647	0.29778	0.43524	-0.1
Mof_C 	C 	0.67986	0.32616	0.41687	0.027
Mof_C 	C 	0.71027	0.33755	0.4342	0.005
Mof_H 	H 	0.7251	0.357	0.4273	0.007
Mof_C 	C 	0.66256	0.34016	0.3846	0.051
Mof_C 	C 	0.63242	0.32359	0.37038	-0.11
Mof_H 	H 	0.6233	0.3026	0.3814	0.068
Mof_N 	N 	0.68828	0.79232	0.96264	-0.18
Mof_N 	N 	0.71521	0.81631	0.96248	-0.207
Mof_N 	N 	0.66647	0.79778	0.93524	-0.098
Mof_C 	C 	0.67986	0.82616	0.91687	0.029
Mof_C 	C 	0.71027	0.83755	0.9342	0.007
Mof_H 	H 	0.7251	0.857	0.9273	0.01
Mof_C 	C 	0.66256	0.84016	0.8846	0.053
Mof_C 	C 	0.63242	0.82359	0.87038	-0.11
Mof_H 	H 	0.6233	0.8026	0.8814	0.069
Mof_N 	N 	0.18828	0.29232	0.96264	-0.18
Mof_N 	N 	0.21521	0.31631	0.96248	-0.208
Mof_N 	N 	0.16647	0.29778	0.93524	-0.099
Mof_C 	C 	0.17986	0.32616	0.91687	0.028
Mof_C 	C 	0.21027	0.33755	0.9342	0.006
Mof_H 	H 	0.2251	0.357	0.9273	0.009
Mof_C 	C 	0.16256	0.34016	0.8846	0.052
Mof_C 	C 	0.13242	0.32359	0.87038	-0.11
Mof_H 	H 	0.1233	0.3026	0.8814	0.068
Mof_N 	N 	0.18828	0.79232	0.46264	-0.186
Mof_N 	N 	0.21521	0.81631	0.46248	-0.213
Mof_N 	N 	0.16647	0.79778	0.43524	-0.1
Mof_C 	C 	0.17986	0.82616	0.41687	0.027
Mof_C 	C 	0.21027	0.83755	0.4342	0.005
Mof_H 	H 	0.2251	0.857	0.4273	0.008
Mof_C 	C 	0.16256	0.84016	0.3846	0.051
Mof_C 	C 	0.13242	0.82359	0.37038	-0.11
Mof_H 	H 	0.1233	0.8026	0.3814	0.067
Mof_N 	N 	0.31172	0.70768	0.46264	-0.186
Mof_N 	N 	0.28479	0.68369	0.46248	-0.214
Mof_N 	N 	0.33353	0.70222	0.43524	-0.1
Mof_C 	C 	0.32014	0.67384	0.41687	0.027
Mof_C 	C 	0.28973	0.66245	0.4342	0.005
Mof_H 	H 	0.2749	0.643	0.4273	0.007
Mof_C 	C 	0.33744	0.65984	0.3846	0.051
Mof_C 	C 	0.36758	0.67641	0.37038	-0.11
Mof_H 	H 	0.3767	0.6974	0.3814	0.068
Mof_N 	N 	0.31172	0.20768	0.96264	-0.18
Mof_N 	N 	0.28479	0.18369	0.96248	-0.208
Mof_N 	N 	0.33353	0.20222	0.93524	-0.098
Mof_C 	C 	0.32014	0.17384	0.91687	0.028
Mof_C 	C 	0.28973	0.16245	0.9342	0.006
Mof_H 	H 	0.2749	0.143	0.9273	0.008
Mof_C 	C 	0.33744	0.15984	0.8846	0.052
Mof_C 	C 	0.36758	0.17641	0.87038	-0.11
Mof_H 	H 	0.3767	0.1974	0.8814	0.068
Mof_N 	N 	0.81172	0.70768	0.96264	-0.18
Mof_N 	N 	0.78479	0.68369	0.96248	-0.208
Mof_N 	N 	0.83353	0.70222	0.93524	-0.097
Mof_C 	C 	0.82014	0.67384	0.91687	0.028
Mof_C 	C 	0.78973	0.66245	0.9342	0.007
Mof_H 	H 	0.7749	0.643	0.9273	0.009
Mof_C 	C 	0.83744	0.65984	0.8846	0.053
Mof_C 	C 	0.86758	0.67641	0.87038	-0.11
Mof_H 	H 	0.8767	0.6974	0.8814	0.069
Mof_N 	N 	0.81172	0.20768	0.46264	-0.186
Mof_N 	N 	0.78479	0.18369	0.46248	-0.214
Mof_N 	N 	0.83353	0.20222	0.43524	-0.099
Mof_C 	C 	0.82014	0.17384	0.41687	0.027
Mof_C 	C 	0.78973	0.16245	0.4342	0.005
Mof_H 	H 	0.7749	0.143	0.4273	0.006
Mof_C 	C 	0.83744	0.15984	0.3846	0.051
Mof_C 	C 	0.86758	0.17641	0.37038	-0.11
Mof_H 	H 	0.8767	0.1974	0.3814	0.068
Mof_N 	N 	0.68828	0.70768	0.53736	-0.186
Mof_N 	N 	0.71521	0.68369	0.53752	-0.214
Mof_N 	N 	0.66647	0.70222	0.56476	-0.1
Mof_C 	C 	0.67986	0.67384	0.58313	0.027
Mof_C 	C 	0.71027	0.66245	0.5658	0.005
Mof_H 	H 	0.7251	0.643	0.5727	0.007
Mof_C 	C 	0.66256	0.65984	0.6154	0.051
Mof_C 	C 	0.63242	0.67641	0.62962	-0.111
Mof_H 	H 	0.6233	0.6974	0.6186	0.068
Mof_N 	N 	0.68828	0.20768	0.03736	-0.188
Mof_N 	N 	0.71521	0.18369	0.03752	-0.216
Mof_N 	N 	0.66647	0.20222	0.06476	-0.101
Mof_C 	C 	0.67986	0.17384	0.08313	0.026
Mof_C 	C 	0.71027	0.16245	0.0658	0.004
Mof_H 	H 	0.7251	0.143	0.0727	0.005
Mof_C 	C 	0.66256	0.15984	0.1154	0.05
Mof_C 	C 	0.63242	0.17641	0.12962	-0.11
Mof_H 	H 	0.6233	0.1974	0.1186	0.067
Mof_N 	N 	0.18828	0.70768	0.03736	-0.188
Mof_N 	N 	0.21521	0.68369	0.03752	-0.216
Mof_N 	N 	0.16647	0.70222	0.06476	-0.101
Mof_C 	C 	0.17986	0.67384	0.08313	0.026
Mof_C 	C 	0.21027	0.66245	0.0658	0.004
Mof_H 	H 	0.2251	0.643	0.0727	0.005
Mof_C 	C 	0.16256	0.65984	0.1154	0.05
Mof_C 	C 	0.13242	0.67641	0.12962	-0.111
Mof_H 	H 	0.1233	0.6974	0.1186	0.066
Mof_N 	N 	0.18828	0.20768	0.53736	-0.186
Mof_N 	N 	0.21521	0.18369	0.53752	-0.214
Mof_N 	N 	0.16647	0.20222	0.56476	-0.1
Mof_C 	C 	0.17986	0.17384	0.58313	0.026
Mof_C 	C 	0.21027	0.16245	0.5658	0.005
Mof_H 	H 	0.2251	0.143	0.5727	0.006
Mof_C 	C 	0.16256	0.15984	0.6154	0.05
Mof_C 	C 	0.13242	0.17641	0.62962	-0.11
Mof_H 	H 	0.1233	0.1974	0.6186	0.067
Mof_N 	N 	0.81172	0.03736	0.20768	-0.188
Mof_N 	N 	0.78479	0.03752	0.18369	-0.216
Mof_N 	N 	0.83353	0.06476	0.20222	-0.1
Mof_C 	C 	0.82014	0.08313	0.17384	0.026
Mof_C 	C 	0.78973	0.0658	0.16245	0.004
Mof_H 	H 	0.7749	0.0727	0.143	0.005
Mof_C 	C 	0.83744	0.1154	0.15984	0.05
Mof_C 	C 	0.86758	0.12962	0.17641	-0.11
Mof_H 	H 	0.8767	0.1186	0.1974	0.067
Mof_N 	N 	0.81172	0.53736	0.70768	-0.186
Mof_N 	N 	0.78479	0.53752	0.68369	-0.214
Mof_N 	N 	0.83353	0.56476	0.70222	-0.099
Mof_C 	C 	0.82014	0.58313	0.67384	0.027
Mof_C 	C 	0.78973	0.5658	0.66245	0.006
Mof_H 	H 	0.7749	0.5727	0.643	0.007
Mof_C 	C 	0.83744	0.6154	0.65984	0.052
Mof_C 	C 	0.86758	0.62962	0.67641	-0.11
Mof_H 	H 	0.8767	0.6186	0.6974	0.068
Mof_N 	N 	0.31172	0.03736	0.70768	-0.188
Mof_N 	N 	0.28479	0.03752	0.68369	-0.216
Mof_N 	N 	0.33353	0.06476	0.70222	-0.101
Mof_C 	C 	0.32014	0.08313	0.67384	0.026
Mof_C 	C 	0.28973	0.0658	0.66245	0.004
Mof_H 	H 	0.2749	0.0727	0.643	0.005
Mof_C 	C 	0.33744	0.1154	0.65984	0.05
Mof_C 	C 	0.36758	0.12962	0.67641	-0.11
Mof_H 	H 	0.3767	0.1186	0.6974	0.067
Mof_N 	N 	0.31172	0.53736	0.20768	-0.186
Mof_N 	N 	0.28479	0.53752	0.18369	-0.214
Mof_N 	N 	0.33353	0.56476	0.20222	-0.1
Mof_C 	C 	0.32014	0.58313	0.17384	0.027
Mof_C 	C 	0.28973	0.5658	0.16245	0.005
Mof_H 	H 	0.2749	0.5727	0.143	0.006
Mof_C 	C 	0.33744	0.6154	0.15984	0.05
Mof_C 	C 	0.36758	0.62962	0.17641	-0.11
Mof_H 	H 	0.3767	0.6186	0.1974	0.067
Mof_N 	N 	0.18828	0.96264	0.20768	-0.18
Mof_N 	N 	0.21521	0.96248	0.18369	-0.208
Mof_N 	N 	0.16647	0.93524	0.20222	-0.099
Mof_C 	C 	0.17986	0.91687	0.17384	0.028
Mof_C 	C 	0.21027	0.9342	0.16245	0.006
Mof_H 	H 	0.2251	0.9273	0.143	0.008
Mof_C 	C 	0.16256	0.8846	0.15984	0.051
Mof_C 	C 	0.13242	0.87038	0.17641	-0.11
Mof_H 	H 	0.1233	0.8814	0.1974	0.068
Mof_N 	N 	0.18828	0.46264	0.70768	-0.186
Mof_N 	N 	0.21521	0.46248	0.68369	-0.214
Mof_N 	N 	0.16647	0.43524	0.70222	-0.1
Mof_C 	C 	0.17986	0.41687	0.67384	0.027
Mof_C 	C 	0.21027	0.4342	0.66245	0.005
Mof_H 	H 	0.2251	0.4273	0.643	0.007
Mof_C 	C 	0.16256	0.3846	0.65984	0.05
Mof_C 	C 	0.13242	0.37038	0.67641	-0.11
Mof_H 	H 	0.1233	0.3814	0.6974	0.067
Mof_N 	N 	0.68828	0.96264	0.70768	-0.18
Mof_N 	N 	0.71521	0.96248	0.68369	-0.208
Mof_N 	N 	0.66647	0.93524	0.70222	-0.098
Mof_C 	C 	0.67986	0.91687	0.67384	0.028
Mof_C 	C 	0.71027	0.9342	0.66245	0.006
Mof_H 	H 	0.7251	0.9273	0.643	0.009
Mof_C 	C 	0.66256	0.8846	0.65984	0.052
Mof_C 	C 	0.63242	0.87038	0.67641	-0.11
Mof_H 	H 	0.6233	0.8814	0.6974	0.069
Mof_N 	N 	0.68828	0.46264	0.20768	-0.186
Mof_N 	N 	0.71521	0.46248	0.18369	-0.214
Mof_N 	N 	0.66647	0.43524	0.20222	-0.1
Mof_C 	C 	0.67986	0.41687	0.17384	0.027
Mof_C 	C 	0.71027	0.4342	0.16245	0.005
Mof_H 	H 	0.7251	0.4273	0.143	0.006
Mof_C 	C 	0.66256	0.3846	0.15984	0.05
Mof_C 	C 	0.63242	0.37038	0.17641	-0.11
Mof_H 	H 	0.6233	0.3814	0.1974	0.067
Mof_N 	N 	0.81172	0.96264	0.79232	-0.18
Mof_N 	N 	0.78479	0.96248	0.81631	-0.207
Mof_N 	N 	0.83353	0.93524	0.79778	-0.097
Mof_C 	C 	0.82014	0.91687	0.82616	0.029
Mof_C 	C 	0.78973	0.9342	0.83755	0.007
Mof_H 	H 	0.7749	0.9273	0.857	0.01
Mof_C 	C 	0.83744	0.8846	0.84016	0.053
Mof_C 	C 	0.86758	0.87038	0.82359	-0.11
Mof_H 	H 	0.8767	0.8814	0.8026	0.07
Mof_N 	N 	0.81172	0.46264	0.29232	-0.186
Mof_N 	N 	0.78479	0.46248	0.31631	-0.214
Mof_N 	N 	0.83353	0.43524	0.29778	-0.099
Mof_C 	C 	0.82014	0.41687	0.32616	0.027
Mof_C 	C 	0.78973	0.4342	0.33755	0.006
Mof_H 	H 	0.7749	0.4273	0.357	0.007
Mof_C 	C 	0.83744	0.3846	0.34016	0.052
Mof_C 	C 	0.86758	0.37038	0.32359	-0.11
Mof_H 	H 	0.8767	0.3814	0.3026	0.068
Mof_N 	N 	0.31172	0.96264	0.29232	-0.18
Mof_N 	N 	0.28479	0.96248	0.31631	-0.208
Mof_N 	N 	0.33353	0.93524	0.29778	-0.098
Mof_C 	C 	0.32014	0.91687	0.32616	0.028
Mof_C 	C 	0.28973	0.9342	0.33755	0.006
Mof_H 	H 	0.2749	0.9273	0.357	0.009
Mof_C 	C 	0.33744	0.8846	0.34016	0.052
Mof_C 	C 	0.36758	0.87038	0.32359	-0.11
Mof_H 	H 	0.3767	0.8814	0.3026	0.069
Mof_N 	N 	0.31172	0.46264	0.79232	-0.186
Mof_N 	N 	0.28479	0.46248	0.81631	-0.213
Mof_N 	N 	0.33353	0.43524	0.79778	-0.099
Mof_C 	C 	0.32014	0.41687	0.82616	0.027
Mof_C 	C 	0.28973	0.4342	0.83755	0.006
Mof_H 	H 	0.2749	0.4273	0.857	0.008
Mof_C 	C 	0.33744	0.3846	0.84016	0.052
Mof_C 	C 	0.36758	0.37038	0.82359	-0.11
Mof_H 	H 	0.3767	0.3814	0.8026	0.068
Mof_N 	N 	0.18828	0.03736	0.79232	-0.188
Mof_N 	N 	0.21521	0.03752	0.81631	-0.216
Mof_N 	N 	0.16647	0.06476	0.79778	-0.101
Mof_C 	C 	0.17986	0.08313	0.82616	0.026
Mof_C 	C 	0.21027	0.0658	0.83755	0.004
Mof_H 	H 	0.2251	0.0727	0.857	0.006
Mof_C 	C 	0.16256	0.1154	0.84016	0.05
Mof_C 	C 	0.13242	0.12962	0.82359	-0.11
Mof_H 	H 	0.1233	0.1186	0.8026	0.066
Mof_N 	N 	0.18828	0.53736	0.29232	-0.186
Mof_N 	N 	0.21521	0.53752	0.31631	-0.214
Mof_N 	N 	0.16647	0.56476	0.29778	-0.1
Mof_C 	C 	0.17986	0.58313	0.32616	0.027
Mof_C 	C 	0.21027	0.5658	0.33755	0.005
Mof_H 	H 	0.2251	0.5727	0.357	0.007
Mof_C 	C 	0.16256	0.6154	0.34016	0.05
Mof_C 	C 	0.13242	0.62962	0.32359	-0.11
Mof_H 	H 	0.1233	0.6186	0.3026	0.067
Mof_N 	N 	0.68828	0.03736	0.29232	-0.188
Mof_N 	N 	0.71521	0.03752	0.31631	-0.216
Mof_N 	N 	0.66647	0.06476	0.29778	-0.101
Mof_C 	C 	0.67986	0.08313	0.32616	0.026
Mof_C 	C 	0.71027	0.0658	0.33755	0.004
Mof_H 	H 	0.7251	0.0727	0.357	0.006
Mof_C 	C 	0.66256	0.1154	0.34016	0.05
Mof_C 	C 	0.63242	0.12962	0.32359	-0.11
Mof_H 	H 	0.6233	0.1186	0.3026	0.067
Mof_N 	N 	0.68828	0.53736	0.79232	-0.186
Mof_N 	N 	0.71521	0.53752	0.81631	-0.213
Mof_N 	N 	0.66647	0.56476	0.79778	-0.1
Mof_C 	C 	0.67986	0.58313	0.82616	0.027
Mof_C 	C 	0.71027	0.5658	0.83755	0.006
Mof_H 	H 	0.7251	0.5727	0.857	0.008
Mof_C 	C 	0.66256	0.6154	0.84016	0.052
Mof_C 	C 	0.63242	0.62962	0.82359	-0.11
Mof_H 	H 	0.6233	0.6186	0.8026	0.068
Mof_N 	N 	0.03736	0.79232	0.18828	-0.188
Mof_N 	N 	0.03752	0.81631	0.21521	-0.216
Mof_N 	N 	0.06476	0.79778	0.16647	-0.101
Mof_C 	C 	0.08313	0.82616	0.17986	0.026
Mof_C 	C 	0.0658	0.83755	0.21027	0.004
Mof_H 	H 	0.0727	0.857	0.2251	0.006
Mof_C 	C 	0.1154	0.84016	0.16256	0.05
Mof_C 	C 	0.12962	0.82359	0.13242	-0.11
Mof_H 	H 	0.1186	0.8026	0.1233	0.066
Mof_N 	N 	0.03736	0.29232	0.68828	-0.188
Mof_N 	N 	0.03752	0.31631	0.71521	-0.216
Mof_N 	N 	0.06476	0.29778	0.66647	-0.101
Mof_C 	C 	0.08313	0.32616	0.67986	0.026
Mof_C 	C 	0.0658	0.33755	0.71027	0.004
Mof_H 	H 	0.0727	0.357	0.7251	0.006
Mof_C 	C 	0.1154	0.34016	0.66256	0.05
Mof_C 	C 	0.12962	0.32359	0.63242	-0.11
Mof_H 	H 	0.1186	0.3026	0.6233	0.067
Mof_N 	N 	0.53736	0.79232	0.68828	-0.186
Mof_N 	N 	0.53752	0.81631	0.71521	-0.213
Mof_N 	N 	0.56476	0.79778	0.66647	-0.1
Mof_C 	C 	0.58313	0.82616	0.67986	0.027
Mof_C 	C 	0.5658	0.83755	0.71027	0.006
Mof_H 	H 	0.5727	0.857	0.7251	0.008
Mof_C 	C 	0.6154	0.84016	0.66256	0.052
Mof_C 	C 	0.62962	0.82359	0.63242	-0.11
Mof_H 	H 	0.6186	0.8026	0.6233	0.068
Mof_N 	N 	0.53736	0.29232	0.18828	-0.186
Mof_N 	N 	0.53752	0.31631	0.21521	-0.214
Mof_N 	N 	0.56476	0.29778	0.16647	-0.1
Mof_C 	C 	0.58313	0.32616	0.17986	0.027
Mof_C 	C 	0.5658	0.33755	0.21027	0.005
Mof_H 	H 	0.5727	0.357	0.2251	0.007
Mof_C 	C 	0.6154	0.34016	0.16256	0.05
Mof_C 	C 	0.62962	0.32359	0.13242	-0.11
Mof_H 	H 	0.6186	0.3026	0.1233	0.067
Mof_N 	N 	0.96264	0.79232	0.81172	-0.18
Mof_N 	N 	0.96248	0.81631	0.78479	-0.207
Mof_N 	N 	0.93524	0.79778	0.83353	-0.097
Mof_C 	C 	0.91687	0.82616	0.82014	0.029
Mof_C 	C 	0.9342	0.83755	0.78973	0.007
Mof_H 	H 	0.9273	0.857	0.7749	0.01
Mof_C 	C 	0.8846	0.84016	0.83744	0.053
Mof_C 	C 	0.87038	0.82359	0.86758	-0.11
Mof_H 	H 	0.8814	0.8026	0.8767	0.07
Mof_N 	N 	0.96264	0.29232	0.31172	-0.18
Mof_N 	N 	0.96248	0.31631	0.28479	-0.208
Mof_N 	N 	0.93524	0.29778	0.33353	-0.098
Mof_C 	C 	0.91687	0.32616	0.32014	0.028
Mof_C 	C 	0.9342	0.33755	0.28973	0.006
Mof_H 	H 	0.9273	0.357	0.2749	0.009
Mof_C 	C 	0.8846	0.34016	0.33744	0.052
Mof_C 	C 	0.87038	0.32359	0.36758	-0.11
Mof_H 	H 	0.8814	0.3026	0.3767	0.069
Mof_N 	N 	0.46264	0.79232	0.31172	-0.186
Mof_N 	N 	0.46248	0.81631	0.28479	-0.213
Mof_N 	N 	0.43524	0.79778	0.33353	-0.099
Mof_C 	C 	0.41687	0.82616	0.32014	0.027
Mof_C 	C 	0.4342	0.83755	0.28973	0.006
Mof_H 	H 	0.4273	0.857	0.2749	0.008
Mof_C 	C 	0.3846	0.84016	0.33744	0.052
Mof_C 	C 	0.37038	0.82359	0.36758	-0.11
Mof_H 	H 	0.3814	0.8026	0.3767	0.068
Mof_N 	N 	0.46264	0.29232	0.81172	-0.186
Mof_N 	N 	0.46248	0.31631	0.78479	-0.214
Mof_N 	N 	0.43524	0.29778	0.83353	-0.099
Mof_C 	C 	0.41687	0.32616	0.82014	0.027
Mof_C 	C 	0.4342	0.33755	0.78973	0.006
Mof_H 	H 	0.4273	0.357	0.7749	0.007
Mof_C 	C 	0.3846	0.34016	0.83744	0.052
Mof_C 	C 	0.37038	0.32359	0.86758	-0.11
Mof_H 	H 	0.3814	0.3026	0.8767	0.068
Mof_N 	N 	0.96264	0.20768	0.18828	-0.18
Mof_N 	N 	0.96248	0.18369	0.21521	-0.208
Mof_N 	N 	0.93524	0.20222	0.16647	-0.099
Mof_C 	C 	0.91687	0.17384	0.17986	0.028
Mof_C 	C 	0.9342	0.16245	0.21027	0.006
Mof_H 	H 	0.9273	0.143	0.2251	0.008
Mof_C 	C 	0.8846	0.15984	0.16256	0.051
Mof_C 	C 	0.87038	0.17641	0.13242	-0.11
Mof_H 	H 	0.8814	0.1974	0.1233	0.068
Mof_N 	N 	0.96264	0.70768	0.68828	-0.18
Mof_N 	N 	0.96248	0.68369	0.71521	-0.208
Mof_N 	N 	0.93524	0.70222	0.66647	-0.098
Mof_C 	C 	0.91687	0.67384	0.67986	0.028
Mof_C 	C 	0.9342	0.66245	0.71027	0.006
Mof_H 	H 	0.9273	0.643	0.7251	0.009
Mof_C 	C 	0.8846	0.65984	0.66256	0.052
Mof_C 	C 	0.87038	0.67641	0.63242	-0.11
Mof_H 	H 	0.8814	0.6974	0.6233	0.069
Mof_N 	N 	0.46264	0.20768	0.68828	-0.186
Mof_N 	N 	0.46248	0.18369	0.71521	-0.214
Mof_N 	N 	0.43524	0.20222	0.66647	-0.1
Mof_C 	C 	0.41687	0.17384	0.67986	0.027
Mof_C 	C 	0.4342	0.16245	0.71027	0.005
Mof_H 	H 	0.4273	0.143	0.7251	0.006
Mof_C 	C 	0.3846	0.15984	0.66256	0.05
Mof_C 	C 	0.37038	0.17641	0.63242	-0.11
Mof_H 	H 	0.3814	0.1974	0.6233	0.067
Mof_N 	N 	0.46264	0.70768	0.18828	-0.186
Mof_N 	N 	0.46248	0.68369	0.21521	-0.214
Mof_N 	N 	0.43524	0.70222	0.16647	-0.1
Mof_C 	C 	0.41687	0.67384	0.17986	0.027
Mof_C 	C 	0.4342	0.66245	0.21027	0.005
Mof_H 	H 	0.4273	0.643	0.2251	0.007
Mof_C 	C 	0.3846	0.65984	0.16256	0.05
Mof_C 	C 	0.37038	0.67641	0.13242	-0.11
Mof_H 	H 	0.3814	0.6974	0.1233	0.067
Mof_N 	N 	0.03736	0.20768	0.81172	-0.188
Mof_N 	N 	0.03752	0.18369	0.78479	-0.216
Mof_N 	N 	0.06476	0.20222	0.83353	-0.1
Mof_C 	C 	0.08313	0.17384	0.82014	0.026
Mof_C 	C 	0.0658	0.16245	0.78973	0.004
Mof_H 	H 	0.0727	0.143	0.7749	0.005
Mof_C 	C 	0.1154	0.15984	0.83744	0.05
Mof_C 	C 	0.12962	0.17641	0.86758	-0.11
Mof_H 	H 	0.1186	0.1974	0.8767	0.067
Mof_N 	N 	0.03736	0.70768	0.31172	-0.188
Mof_N 	N 	0.03752	0.68369	0.28479	-0.216
Mof_N 	N 	0.06476	0.70222	0.33353	-0.101
Mof_C 	C 	0.08313	0.67384	0.32014	0.026
Mof_C 	C 	0.0658	0.66245	0.28973	0.004
Mof_H 	H 	0.0727	0.643	0.2749	0.005
Mof_C 	C 	0.1154	0.65984	0.33744	0.05
Mof_C 	C 	0.12962	0.67641	0.36758	-0.11
Mof_H 	H 	0.1186	0.6974	0.3767	0.067
Mof_N 	N 	0.53736	0.20768	0.31172	-0.186
Mof_N 	N 	0.53752	0.18369	0.28479	-0.214
Mof_N 	N 	0.56476	0.20222	0.33353	-0.1
Mof_C 	C 	0.58313	0.17384	0.32014	0.027
Mof_C 	C 	0.5658	0.16245	0.28973	0.005
Mof_H 	H 	0.5727	0.143	0.2749	0.006
Mof_C 	C 	0.6154	0.15984	0.33744	0.05
Mof_C 	C 	0.62962	0.17641	0.36758	-0.11
Mof_H 	H 	0.6186	0.1974	0.3767	0.067
Mof_N 	N 	0.53736	0.70768	0.81172	-0.186
Mof_N 	N 	0.53752	0.68369	0.78479	-0.214
Mof_N 	N 	0.56476	0.70222	0.83353	-0.099
Mof_C 	C 	0.58313	0.67384	0.82014	0.027
Mof_C 	C 	0.5658	0.66245	0.78973	0.006
Mof_H 	H 	0.5727	0.643	0.7749	0.007
Mof_C 	C 	0.6154	0.65984	0.83744	0.052
Mof_C 	C 	0.62962	0.67641	0.86758	-0.11
Mof_H 	H 	0.6186	0.6974	0.8767	0.068
Mof_N 	N 	0.79232	0.81172	0.96264	-0.18
Mof_N 	N 	0.81631	0.78479	0.96248	-0.207
Mof_N 	N 	0.79778	0.83353	0.93524	-0.097
Mof_C 	C 	0.82616	0.82014	0.91687	0.029
Mof_C 	C 	0.83755	0.78973	0.9342	0.007
Mof_H 	H 	0.857	0.7749	0.9273	0.01
Mof_C 	C 	0.84016	0.83744	0.8846	0.053
Mof_C 	C 	0.82359	0.86758	0.87038	-0.11
Mof_H 	H 	0.8026	0.8767	0.8814	0.07
Mof_N 	N 	0.79232	0.31172	0.46264	-0.186
Mof_N 	N 	0.81631	0.28479	0.46248	-0.213
Mof_N 	N 	0.79778	0.33353	0.43524	-0.099
Mof_C 	C 	0.82616	0.32014	0.41687	0.027
Mof_C 	C 	0.83755	0.28973	0.4342	0.006
Mof_H 	H 	0.857	0.2749	0.4273	0.008
Mof_C 	C 	0.84016	0.33744	0.3846	0.052
Mof_C 	C 	0.82359	0.36758	0.37038	-0.11
Mof_H 	H 	0.8026	0.3767	0.3814	0.068
Mof_N 	N 	0.29232	0.81172	0.46264	-0.186
Mof_N 	N 	0.31631	0.78479	0.46248	-0.214
Mof_N 	N 	0.29778	0.83353	0.43524	-0.099
Mof_C 	C 	0.32616	0.82014	0.41687	0.027
Mof_C 	C 	0.33755	0.78973	0.4342	0.006
Mof_H 	H 	0.357	0.7749	0.4273	0.007
Mof_C 	C 	0.34016	0.83744	0.3846	0.052
Mof_C 	C 	0.32359	0.86758	0.37038	-0.11
Mof_H 	H 	0.3026	0.8767	0.3814	0.068
Mof_N 	N 	0.29232	0.31172	0.96264	-0.18
Mof_N 	N 	0.31631	0.28479	0.96248	-0.208
Mof_N 	N 	0.29778	0.33353	0.93524	-0.098
Mof_C 	C 	0.32616	0.32014	0.91687	0.028
Mof_C 	C 	0.33755	0.28973	0.9342	0.006
Mof_H 	H 	0.357	0.2749	0.9273	0.009
Mof_C 	C 	0.34016	0.33744	0.8846	0.052
Mof_C 	C 	0.32359	0.36758	0.87038	-0.11
Mof_H 	H 	0.3026	0.3767	0.8814	0.069
Mof_N 	N 	0.79232	0.18828	0.03736	-0.188
Mof_N 	N 	0.81631	0.21521	0.03752	-0.216
Mof_N 	N 	0.79778	0.16647	0.06476	-0.101
Mof_C 	C 	0.82616	0.17986	0.08313	0.026
Mof_C 	C 	0.83755	0.21027	0.0658	0.004
Mof_H 	H 	0.857	0.2251	0.0727	0.006
Mof_C 	C 	0.84016	0.16256	0.1154	0.05
Mof_C 	C 	0.82359	0.13242	0.12962	-0.11
Mof_H 	H 	0.8026	0.1233	0.1186	0.066
Mof_N 	N 	0.79232	0.68828	0.53736	-0.186
Mof_N 	N 	0.81631	0.71521	0.53752	-0.213
Mof_N 	N 	0.79778	0.66647	0.56476	-0.1
Mof_C 	C 	0.82616	0.67986	0.58313	0.027
Mof_C 	C 	0.83755	0.71027	0.5658	0.006
Mof_H 	H 	0.857	0.7251	0.5727	0.008
Mof_C 	C 	0.84016	0.66256	0.6154	0.052
Mof_C 	C 	0.82359	0.63242	0.62962	-0.11
Mof_H 	H 	0.8026	0.6233	0.6186	0.068
Mof_N 	N 	0.29232	0.18828	0.53736	-0.186
Mof_N 	N 	0.31631	0.21521	0.53752	-0.214
Mof_N 	N 	0.29778	0.16647	0.56476	-0.1
Mof_C 	C 	0.32616	0.17986	0.58313	0.027
Mof_C 	C 	0.33755	0.21027	0.5658	0.005
Mof_H 	H 	0.357	0.2251	0.5727	0.007
Mof_C 	C 	0.34016	0.16256	0.6154	0.05
Mof_C 	C 	0.32359	0.13242	0.62962	-0.11
Mof_H 	H 	0.3026	0.1233	0.6186	0.067
Mof_N 	N 	0.29232	0.68828	0.03736	-0.188
Mof_N 	N 	0.31631	0.71521	0.03752	-0.216
Mof_N 	N 	0.29778	0.66647	0.06476	-0.101
Mof_C 	C 	0.32616	0.67986	0.08313	0.026
Mof_C 	C 	0.33755	0.71027	0.0658	0.004
Mof_H 	H 	0.357	0.7251	0.0727	0.006
Mof_C 	C 	0.34016	0.66256	0.1154	0.05
Mof_C 	C 	0.32359	0.63242	0.12962	-0.11
Mof_H 	H 	0.3026	0.6233	0.1186	0.067
Mof_N 	N 	0.20768	0.81172	0.03736	-0.188
Mof_N 	N 	0.18369	0.78479	0.03752	-0.216
Mof_N 	N 	0.20222	0.83353	0.06476	-0.1
Mof_C 	C 	0.17384	0.82014	0.08313	0.026
Mof_C 	C 	0.16245	0.78973	0.0658	0.004
Mof_H 	H 	0.143	0.7749	0.0727	0.005
Mof_C 	C 	0.15984	0.83744	0.1154	0.05
Mof_C 	C 	0.17641	0.86758	0.12962	-0.11
Mof_H 	H 	0.1974	0.8767	0.1186	0.067
Mof_N 	N 	0.20768	0.31172	0.53736	-0.186
Mof_N 	N 	0.18369	0.28479	0.53752	-0.214
Mof_N 	N 	0.20222	0.33353	0.56476	-0.1
Mof_C 	C 	0.17384	0.32014	0.58313	0.027
Mof_C 	C 	0.16245	0.28973	0.5658	0.005
Mof_H 	H 	0.143	0.2749	0.5727	0.006
Mof_C 	C 	0.15984	0.33744	0.6154	0.05
Mof_C 	C 	0.17641	0.36758	0.62962	-0.11
Mof_H 	H 	0.1974	0.3767	0.6186	0.067
Mof_N 	N 	0.70768	0.81172	0.53736	-0.186
Mof_N 	N 	0.68369	0.78479	0.53752	-0.214
Mof_N 	N 	0.70222	0.83353	0.56476	-0.099
Mof_C 	C 	0.67384	0.82014	0.58313	0.027
Mof_C 	C 	0.66245	0.78973	0.5658	0.006
Mof_H 	H 	0.643	0.7749	0.5727	0.007
Mof_C 	C 	0.65984	0.83744	0.6154	0.052
Mof_C 	C 	0.67641	0.86758	0.62962	-0.11
Mof_H 	H 	0.6974	0.8767	0.6186	0.068
Mof_N 	N 	0.70768	0.31172	0.03736	-0.188
Mof_N 	N 	0.68369	0.28479	0.03752	-0.216
Mof_N 	N 	0.70222	0.33353	0.06476	-0.101
Mof_C 	C 	0.67384	0.32014	0.08313	0.026
Mof_C 	C 	0.66245	0.28973	0.0658	0.004
Mof_H 	H 	0.643	0.2749	0.0727	0.005
Mof_C 	C 	0.65984	0.33744	0.1154	0.05
Mof_C 	C 	0.67641	0.36758	0.12962	-0.11
Mof_H 	H 	0.6974	0.3767	0.1186	0.067
Mof_N 	N 	0.20768	0.18828	0.96264	-0.18
Mof_N 	N 	0.18369	0.21521	0.96248	-0.208
Mof_N 	N 	0.20222	0.16647	0.93524	-0.099
Mof_C 	C 	0.17384	0.17986	0.91687	0.028
Mof_C 	C 	0.16245	0.21027	0.9342	0.006
Mof_H 	H 	0.143	0.2251	0.9273	0.008
Mof_C 	C 	0.15984	0.16256	0.8846	0.051
Mof_C 	C 	0.17641	0.13242	0.87038	-0.11
Mof_H 	H 	0.1974	0.1233	0.8814	0.068
Mof_N 	N 	0.20768	0.68828	0.46264	-0.186
Mof_N 	N 	0.18369	0.71521	0.46248	-0.214
Mof_N 	N 	0.20222	0.66647	0.43524	-0.1
Mof_C 	C 	0.17384	0.67986	0.41687	0.027
Mof_C 	C 	0.16245	0.71027	0.4342	0.005
Mof_H 	H 	0.143	0.7251	0.4273	0.006
Mof_C 	C 	0.15984	0.66256	0.3846	0.05
Mof_C 	C 	0.17641	0.63242	0.37038	-0.11
Mof_H 	H 	0.1974	0.6233	0.3814	0.067
Mof_N 	N 	0.70768	0.18828	0.46264	-0.186
Mof_N 	N 	0.68369	0.21521	0.46248	-0.214
Mof_N 	N 	0.70222	0.16647	0.43524	-0.1
Mof_C 	C 	0.67384	0.17986	0.41687	0.027
Mof_C 	C 	0.66245	0.21027	0.4342	0.005
Mof_H 	H 	0.643	0.2251	0.4273	0.007
Mof_C 	C 	0.65984	0.16256	0.3846	0.05
Mof_C 	C 	0.67641	0.13242	0.37038	-0.11
Mof_H 	H 	0.6974	0.1233	0.3814	0.067
Mof_N 	N 	0.70768	0.68828	0.96264	-0.18
Mof_N 	N 	0.68369	0.71521	0.96248	-0.208
Mof_N 	N 	0.70222	0.66647	0.93524	-0.098
Mof_C 	C 	0.67384	0.67986	0.91687	0.028
Mof_C 	C 	0.66245	0.71027	0.9342	0.006
Mof_H 	H 	0.643	0.7251	0.9273	0.009
Mof_C 	C 	0.65984	0.66256	0.8846	0.052
Mof_C 	C 	0.67641	0.63242	0.87038	-0.11
Mof_H 	H 	0.6974	0.6233	0.8814	0.069
Mof_N 	N 	0.46264	0.68828	0.70768	-0.186
Mof_N 	N 	0.46248	0.71521	0.68369	-0.214
Mof_N 	N 	0.43524	0.66647	0.70222	-0.1
Mof_C 	C 	0.41687	0.67986	0.67384	0.027
Mof_C 	C 	0.4342	0.71027	0.66245	0.005
Mof_H 	H 	0.4273	0.7251	0.643	0.007
Mof_C 	C 	0.3846	0.66256	0.65984	0.051
Mof_C 	C 	0.37038	0.63242	0.67641	-0.11
Mof_H 	H 	0.3814	0.6233	0.6974	0.068
Mof_N 	N 	0.46264	0.18828	0.20768	-0.186
Mof_N 	N 	0.46248	0.21521	0.18369	-0.214
Mof_N 	N 	0.43524	0.16647	0.20222	-0.1
Mof_C 	C 	0.41687	0.17986	0.17384	0.026
Mof_C 	C 	0.4342	0.21027	0.16245	0.005
Mof_H 	H 	0.4273	0.2251	0.143	0.006
Mof_C 	C 	0.3846	0.16256	0.15984	0.05
Mof_C 	C 	0.37038	0.13242	0.17641	-0.11
Mof_H 	H 	0.3814	0.1233	0.1974	0.067
Mof_N 	N 	0.96264	0.68828	0.20768	-0.18
Mof_N 	N 	0.96248	0.71521	0.18369	-0.208
Mof_N 	N 	0.93524	0.66647	0.20222	-0.098
Mof_C 	C 	0.91687	0.67986	0.17384	0.028
Mof_C 	C 	0.9342	0.71027	0.16245	0.006
Mof_H 	H 	0.9273	0.7251	0.143	0.008
Mof_C 	C 	0.8846	0.66256	0.15984	0.051
Mof_C 	C 	0.87038	0.63242	0.17641	-0.11
Mof_H 	H 	0.8814	0.6233	0.1974	0.068
Mof_N 	N 	0.96264	0.18828	0.70768	-0.18
Mof_N 	N 	0.96248	0.21521	0.68369	-0.208
Mof_N 	N 	0.93524	0.16647	0.70222	-0.099
Mof_C 	C 	0.91687	0.17986	0.67384	0.028
Mof_C 	C 	0.9342	0.21027	0.66245	0.006
Mof_H 	H 	0.9273	0.2251	0.643	0.009
Mof_C 	C 	0.8846	0.16256	0.65984	0.051
Mof_C 	C 	0.87038	0.13242	0.67641	-0.11
Mof_H 	H 	0.8814	0.1233	0.6974	0.068
Mof_N 	N 	0.53736	0.31172	0.70768	-0.186
Mof_N 	N 	0.53752	0.28479	0.68369	-0.214
Mof_N 	N 	0.56476	0.33353	0.70222	-0.1
Mof_C 	C 	0.58313	0.32014	0.67384	0.027
Mof_C 	C 	0.5658	0.28973	0.66245	0.005
Mof_H 	H 	0.5727	0.2749	0.643	0.007
Mof_C 	C 	0.6154	0.33744	0.65984	0.051
Mof_C 	C 	0.62962	0.36758	0.67641	-0.11
Mof_H 	H 	0.6186	0.3767	0.6974	0.068
Mof_N 	N 	0.53736	0.81172	0.20768	-0.186
Mof_N 	N 	0.53752	0.78479	0.18369	-0.214
Mof_N 	N 	0.56476	0.83353	0.20222	-0.099
Mof_C 	C 	0.58313	0.82014	0.17384	0.027
Mof_C 	C 	0.5658	0.78973	0.16245	0.005
Mof_H 	H 	0.5727	0.7749	0.143	0.006
Mof_C 	C 	0.6154	0.83744	0.15984	0.051
Mof_C 	C 	0.62962	0.86758	0.17641	-0.11
Mof_H 	H 	0.6186	0.8767	0.1974	0.068
Mof_N 	N 	0.03736	0.31172	0.20768	-0.188
Mof_N 	N 	0.03752	0.28479	0.18369	-0.216
Mof_N 	N 	0.06476	0.33353	0.20222	-0.101
Mof_C 	C 	0.08313	0.32014	0.17384	0.026
Mof_C 	C 	0.0658	0.28973	0.16245	0.004
Mof_H 	H 	0.0727	0.2749	0.143	0.005
Mof_C 	C 	0.1154	0.33744	0.15984	0.05
Mof_C 	C 	0.12962	0.36758	0.17641	-0.11
Mof_H 	H 	0.1186	0.3767	0.1974	0.067
Mof_N 	N 	0.03736	0.81172	0.70768	-0.188
Mof_N 	N 	0.03752	0.78479	0.68369	-0.216
Mof_N 	N 	0.06476	0.83353	0.70222	-0.1
Mof_C 	C 	0.08313	0.82014	0.67384	0.026
Mof_C 	C 	0.0658	0.78973	0.66245	0.005
Mof_H 	H 	0.0727	0.7749	0.643	0.006
Mof_C 	C 	0.1154	0.83744	0.65984	0.051
Mof_C 	C 	0.12962	0.86758	0.67641	-0.11
Mof_H 	H 	0.1186	0.8767	0.6974	0.068
Mof_N 	N 	0.53736	0.68828	0.29232	-0.186
Mof_N 	N 	0.53752	0.71521	0.31631	-0.214
Mof_N 	N 	0.56476	0.66647	0.29778	-0.1
Mof_C 	C 	0.58313	0.67986	0.32616	0.027
Mof_C 	C 	0.5658	0.71027	0.33755	0.005
Mof_H 	H 	0.5727	0.7251	0.357	0.007
Mof_C 	C 	0.6154	0.66256	0.34016	0.051
Mof_C 	C 	0.62962	0.63242	0.32359	-0.11
Mof_H 	H 	0.6186	0.6233	0.3026	0.068
Mof_N 	N 	0.53736	0.18828	0.79232	-0.186
Mof_N 	N 	0.53752	0.21521	0.81631	-0.214
Mof_N 	N 	0.56476	0.16647	0.79778	-0.1
Mof_C 	C 	0.58313	0.17986	0.82616	0.027
Mof_C 	C 	0.5658	0.21027	0.83755	0.005
Mof_H 	H 	0.5727	0.2251	0.857	0.008
Mof_C 	C 	0.6154	0.16256	0.84016	0.051
Mof_C 	C 	0.62962	0.13242	0.82359	-0.11
Mof_H 	H 	0.6186	0.1233	0.8026	0.067
Mof_N 	N 	0.03736	0.68828	0.79232	-0.188
Mof_N 	N 	0.03752	0.71521	0.81631	-0.215
Mof_N 	N 	0.06476	0.66647	0.79778	-0.101
Mof_C 	C 	0.08313	0.67986	0.82616	0.027
Mof_C 	C 	0.0658	0.71027	0.83755	0.005
Mof_H 	H 	0.0727	0.7251	0.857	0.007
Mof_C 	C 	0.1154	0.66256	0.84016	0.051
Mof_C 	C 	0.12962	0.63242	0.82359	-0.11
Mof_H 	H 	0.1186	0.6233	0.8026	0.067
Mof_N 	N 	0.03736	0.18828	0.29232	-0.188
Mof_N 	N 	0.03752	0.21521	0.31631	-0.216
Mof_N 	N 	0.06476	0.16647	0.29778	-0.101
Mof_C 	C 	0.08313	0.17986	0.32616	0.026
Mof_C 	C 	0.0658	0.21027	0.33755	0.004
Mof_H 	H 	0.0727	0.2251	0.357	0.005
Mof_C 	C 	0.1154	0.16256	0.34016	0.05
Mof_C 	C 	0.12962	0.13242	0.32359	-0.11
Mof_H 	H 	0.1186	0.1233	0.3026	0.066
Mof_N 	N 	0.46264	0.31172	0.29232	-0.186
Mof_N 	N 	0.46248	0.28479	0.31631	-0.214
Mof_N 	N 	0.43524	0.33353	0.29778	-0.1
Mof_C 	C 	0.41687	0.32014	0.32616	0.027
Mof_C 	C 	0.4342	0.28973	0.33755	0.005
Mof_H 	H 	0.4273	0.2749	0.357	0.007
Mof_C 	C 	0.3846	0.33744	0.34016	0.051
Mof_C 	C 	0.37038	0.36758	0.32359	-0.11
Mof_H 	H 	0.3814	0.3767	0.3026	0.068
Mof_N 	N 	0.46264	0.81172	0.79232	-0.186
Mof_N 	N 	0.46248	0.78479	0.81631	-0.213
Mof_N 	N 	0.43524	0.83353	0.79778	-0.099
Mof_C 	C 	0.41687	0.82014	0.82616	0.028
Mof_C 	C 	0.4342	0.78973	0.83755	0.006
Mof_H 	H 	0.4273	0.7749	0.857	0.008
Mof_C 	C 	0.3846	0.83744	0.84016	0.052
Mof_C 	C 	0.37038	0.86758	0.82359	-0.11
Mof_H 	H 	0.3814	0.8767	0.8026	0.069
Mof_N 	N 	0.96264	0.31172	0.79232	-0.18
Mof_N 	N 	0.96248	0.28479	0.81631	-0.207
Mof_N 	N 	0.93524	0.33353	0.79778	-0.098
Mof_C 	C 	0.91687	0.32014	0.82616	0.029
Mof_C 	C 	0.9342	0.28973	0.83755	0.007
Mof_H 	H 	0.9273	0.2749	0.857	0.01
Mof_C 	C 	0.8846	0.33744	0.84016	0.053
Mof_C 	C 	0.87038	0.36758	0.82359	-0.11
Mof_H 	H 	0.8814	0.3767	0.8026	0.069
Mof_N 	N 	0.96264	0.81172	0.29232	-0.18
Mof_N 	N 	0.96248	0.78479	0.31631	-0.208
Mof_N 	N 	0.93524	0.83353	0.29778	-0.097
Mof_C 	C 	0.91687	0.82014	0.32616	0.028
Mof_C 	C 	0.9342	0.78973	0.33755	0.007
Mof_H 	H 	0.9273	0.7749	0.357	0.009
Mof_C 	C 	0.8846	0.83744	0.34016	0.053
Mof_C 	C 	0.87038	0.86758	0.32359	-0.11
Mof_H 	H 	0.8814	0.8767	0.3026	0.069
Mof_N 	N 	0.70768	0.46264	0.68828	-0.186
Mof_N 	N 	0.68369	0.46248	0.71521	-0.214
Mof_N 	N 	0.70222	0.43524	0.66647	-0.1
Mof_C 	C 	0.67384	0.41687	0.67986	0.027
Mof_C 	C 	0.66245	0.4342	0.71027	0.005
Mof_H 	H 	0.643	0.4273	0.7251	0.007
Mof_C 	C 	0.65984	0.3846	0.66256	0.051
Mof_C 	C 	0.67641	0.37038	0.63242	-0.11
Mof_H 	H 	0.6974	0.3814	0.6233	0.068
Mof_N 	N 	0.70768	0.96264	0.18828	-0.18
Mof_N 	N 	0.68369	0.96248	0.21521	-0.208
Mof_N 	N 	0.70222	0.93524	0.16647	-0.099
Mof_C 	C 	0.67384	0.91687	0.17986	0.028
Mof_C 	C 	0.66245	0.9342	0.21027	0.006
Mof_H 	H 	0.643	0.9273	0.2251	0.009
Mof_C 	C 	0.65984	0.8846	0.16256	0.051
Mof_C 	C 	0.67641	0.87038	0.13242	-0.11
Mof_H 	H 	0.6974	0.8814	0.1233	0.068
Mof_N 	N 	0.20768	0.46264	0.18828	-0.186
Mof_N 	N 	0.18369	0.46248	0.21521	-0.214
Mof_N 	N 	0.20222	0.43524	0.16647	-0.1
Mof_C 	C 	0.17384	0.41687	0.17986	0.026
Mof_C 	C 	0.16245	0.4342	0.21027	0.005
Mof_H 	H 	0.143	0.4273	0.2251	0.006
Mof_C 	C 	0.15984	0.3846	0.16256	0.05
Mof_C 	C 	0.17641	0.37038	0.13242	-0.11
Mof_H 	H 	0.1974	0.3814	0.1233	0.067
Mof_N 	N 	0.20768	0.96264	0.68828	-0.18
Mof_N 	N 	0.18369	0.96248	0.71521	-0.208
Mof_N 	N 	0.20222	0.93524	0.66647	-0.098
Mof_C 	C 	0.17384	0.91687	0.67986	0.028
Mof_C 	C 	0.16245	0.9342	0.71027	0.006
Mof_H 	H 	0.143	0.9273	0.7251	0.008
Mof_C 	C 	0.15984	0.8846	0.66256	0.051
Mof_C 	C 	0.17641	0.87038	0.63242	-0.11
Mof_H 	H 	0.1974	0.8814	0.6233	0.068
Mof_N 	N 	0.70768	0.53736	0.31172	-0.186
Mof_N 	N 	0.68369	0.53752	0.28479	-0.214
Mof_N 	N 	0.70222	0.56476	0.33353	-0.1
Mof_C 	C 	0.67384	0.58313	0.32014	0.027
Mof_C 	C 	0.66245	0.5658	0.28973	0.005
Mof_H 	H 	0.643	0.5727	0.2749	0.007
Mof_C 	C 	0.65984	0.6154	0.33744	0.051
Mof_C 	C 	0.67641	0.62962	0.36758	-0.11
Mof_H 	H 	0.6974	0.6186	0.3767	0.068
Mof_N 	N 	0.70768	0.03736	0.81172	-0.188
Mof_N 	N 	0.68369	0.03752	0.78479	-0.216
Mof_N 	N 	0.70222	0.06476	0.83353	-0.1
Mof_C 	C 	0.67384	0.08313	0.82014	0.026
Mof_C 	C 	0.66245	0.0658	0.78973	0.005
Mof_H 	H 	0.643	0.0727	0.7749	0.006
Mof_C 	C 	0.65984	0.1154	0.83744	0.051
Mof_C 	C 	0.67641	0.12962	0.86758	-0.11
Mof_H 	H 	0.6974	0.1186	0.8767	0.068
Mof_N 	N 	0.20768	0.53736	0.81172	-0.186
Mof_N 	N 	0.18369	0.53752	0.78479	-0.214
Mof_N 	N 	0.20222	0.56476	0.83353	-0.099
Mof_C 	C 	0.17384	0.58313	0.82014	0.027
Mof_C 	C 	0.16245	0.5658	0.78973	0.005
Mof_H 	H 	0.143	0.5727	0.7749	0.006
Mof_C 	C 	0.15984	0.6154	0.83744	0.051
Mof_C 	C 	0.17641	0.62962	0.86758	-0.11
Mof_H 	H 	0.1974	0.6186	0.8767	0.068
Mof_N 	N 	0.20768	0.03736	0.31172	-0.188
Mof_N 	N 	0.18369	0.03752	0.28479	-0.216
Mof_N 	N 	0.20222	0.06476	0.33353	-0.101
Mof_C 	C 	0.17384	0.08313	0.32014	0.026
Mof_C 	C 	0.16245	0.0658	0.28973	0.004
Mof_H 	H 	0.143	0.0727	0.2749	0.005
Mof_C 	C 	0.15984	0.1154	0.33744	0.05
Mof_C 	C 	0.17641	0.12962	0.36758	-0.11
Mof_H 	H 	0.1974	0.1186	0.3767	0.067
Mof_N 	N 	0.29232	0.53736	0.68828	-0.186
Mof_N 	N 	0.31631	0.53752	0.71521	-0.214
Mof_N 	N 	0.29778	0.56476	0.66647	-0.1
Mof_C 	C 	0.32616	0.58313	0.67986	0.027
Mof_C 	C 	0.33755	0.5658	0.71027	0.005
Mof_H 	H 	0.357	0.5727	0.7251	0.007
Mof_C 	C 	0.34016	0.6154	0.66256	0.051
Mof_C 	C 	0.32359	0.62962	0.63242	-0.11
Mof_H 	H 	0.3026	0.6186	0.6233	0.068
Mof_N 	N 	0.29232	0.03736	0.18828	-0.188
Mof_N 	N 	0.31631	0.03752	0.21521	-0.216
Mof_N 	N 	0.29778	0.06476	0.16647	-0.101
Mof_C 	C 	0.32616	0.08313	0.17986	0.026
Mof_C 	C 	0.33755	0.0658	0.21027	0.004
Mof_H 	H 	0.357	0.0727	0.2251	0.005
Mof_C 	C 	0.34016	0.1154	0.16256	0.05
Mof_C 	C 	0.32359	0.12962	0.13242	-0.11
Mof_H 	H 	0.3026	0.1186	0.1233	0.066
Mof_N 	N 	0.79232	0.53736	0.18828	-0.186
Mof_N 	N 	0.81631	0.53752	0.21521	-0.214
Mof_N 	N 	0.79778	0.56476	0.16647	-0.1
Mof_C 	C 	0.82616	0.58313	0.17986	0.027
Mof_C 	C 	0.83755	0.5658	0.21027	0.005
Mof_H 	H 	0.857	0.5727	0.2251	0.008
Mof_C 	C 	0.84016	0.6154	0.16256	0.051
Mof_C 	C 	0.82359	0.62962	0.13242	-0.11
Mof_H 	H 	0.8026	0.6186	0.1233	0.067
Mof_N 	N 	0.79232	0.03736	0.68828	-0.188
Mof_N 	N 	0.81631	0.03752	0.71521	-0.215
Mof_N 	N 	0.79778	0.06476	0.66647	-0.101
Mof_C 	C 	0.82616	0.08313	0.67986	0.027
Mof_C 	C 	0.83755	0.0658	0.71027	0.005
Mof_H 	H 	0.857	0.0727	0.7251	0.007
Mof_C 	C 	0.84016	0.1154	0.66256	0.051
Mof_C 	C 	0.82359	0.12962	0.63242	-0.11
Mof_H 	H 	0.8026	0.1186	0.6233	0.067
Mof_N 	N 	0.29232	0.46264	0.31172	-0.186
Mof_N 	N 	0.31631	0.46248	0.28479	-0.214
Mof_N 	N 	0.29778	0.43524	0.33353	-0.1
Mof_C 	C 	0.32616	0.41687	0.32014	0.027
Mof_C 	C 	0.33755	0.4342	0.28973	0.005
Mof_H 	H 	0.357	0.4273	0.2749	0.007
Mof_C 	C 	0.34016	0.3846	0.33744	0.051
Mof_C 	C 	0.32359	0.37038	0.36758	-0.11
Mof_H 	H 	0.3026	0.3814	0.3767	0.068
Mof_N 	N 	0.29232	0.96264	0.81172	-0.18
Mof_N 	N 	0.31631	0.96248	0.78479	-0.208
Mof_N 	N 	0.29778	0.93524	0.83353	-0.097
Mof_C 	C 	0.32616	0.91687	0.82014	0.028
Mof_C 	C 	0.33755	0.9342	0.78973	0.007
Mof_H 	H 	0.357	0.9273	0.7749	0.009
Mof_C 	C 	0.34016	0.8846	0.83744	0.053
Mof_C 	C 	0.32359	0.87038	0.86758	-0.11
Mof_H 	H 	0.3026	0.8814	0.8767	0.069
Mof_N 	N 	0.79232	0.46264	0.81172	-0.186
Mof_N 	N 	0.81631	0.46248	0.78479	-0.213
Mof_N 	N 	0.79778	0.43524	0.83353	-0.099
Mof_C 	C 	0.82616	0.41687	0.82014	0.028
Mof_C 	C 	0.83755	0.4342	0.78973	0.006
Mof_H 	H 	0.857	0.4273	0.7749	0.008
Mof_C 	C 	0.84016	0.3846	0.83744	0.052
Mof_C 	C 	0.82359	0.37038	0.86758	-0.11
Mof_H 	H 	0.8026	0.3814	0.8767	0.069
Mof_N 	N 	0.79232	0.96264	0.31172	-0.18
Mof_N 	N 	0.81631	0.96248	0.28479	-0.207
Mof_N 	N 	0.79778	0.93524	0.33353	-0.098
Mof_C 	C 	0.82616	0.91687	0.32014	0.029
Mof_C 	C 	0.83755	0.9342	0.28973	0.007
Mof_H 	H 	0.857	0.9273	0.2749	0.01
Mof_C 	C 	0.84016	0.8846	0.33744	0.053
Mof_C 	C 	0.82359	0.87038	0.36758	-0.11
Mof_H 	H 	0.8026	0.8814	0.3767	0.069
Mof_N 	N 	0.68828	0.70768	0.46264	-0.186
Mof_N 	N 	0.71521	0.68369	0.46248	-0.214
Mof_N 	N 	0.66647	0.70222	0.43524	-0.1
Mof_C 	C 	0.67986	0.67384	0.41687	0.027
Mof_C 	C 	0.71027	0.66245	0.4342	0.005
Mof_H 	H 	0.7251	0.643	0.4273	0.007
Mof_C 	C 	0.66256	0.65984	0.3846	0.051
Mof_C 	C 	0.63242	0.67641	0.37038	-0.11
Mof_H 	H 	0.6233	0.6974	0.3814	0.068
Mof_N 	N 	0.68828	0.20768	0.96264	-0.18
Mof_N 	N 	0.71521	0.18369	0.96248	-0.208
Mof_N 	N 	0.66647	0.20222	0.93524	-0.098
Mof_C 	C 	0.67986	0.17384	0.91687	0.028
Mof_C 	C 	0.71027	0.16245	0.9342	0.006
Mof_H 	H 	0.7251	0.143	0.9273	0.008
Mof_C 	C 	0.66256	0.15984	0.8846	0.051
Mof_C 	C 	0.63242	0.17641	0.87038	-0.11
Mof_H 	H 	0.6233	0.1974	0.8814	0.068
Mof_N 	N 	0.18828	0.70768	0.96264	-0.18
Mof_N 	N 	0.21521	0.68369	0.96248	-0.208
Mof_N 	N 	0.16647	0.70222	0.93524	-0.099
Mof_C 	C 	0.17986	0.67384	0.91687	0.028
Mof_C 	C 	0.21027	0.66245	0.9342	0.006
Mof_H 	H 	0.2251	0.643	0.9273	0.009
Mof_C 	C 	0.16256	0.65984	0.8846	0.051
Mof_C 	C 	0.13242	0.67641	0.87038	-0.11
Mof_H 	H 	0.1233	0.6974	0.8814	0.068
Mof_N 	N 	0.18828	0.20768	0.46264	-0.186
Mof_N 	N 	0.21521	0.18369	0.46248	-0.214
Mof_N 	N 	0.16647	0.20222	0.43524	-0.1
Mof_C 	C 	0.17986	0.17384	0.41687	0.026
Mof_C 	C 	0.21027	0.16245	0.4342	0.005
Mof_H 	H 	0.2251	0.143	0.4273	0.006
Mof_C 	C 	0.16256	0.15984	0.3846	0.05
Mof_C 	C 	0.13242	0.17641	0.37038	-0.11
Mof_H 	H 	0.1233	0.1974	0.3814	0.067
Mof_N 	N 	0.31172	0.70768	0.53736	-0.186
Mof_N 	N 	0.28479	0.68369	0.53752	-0.214
Mof_N 	N 	0.33353	0.70222	0.56476	-0.1
Mof_C 	C 	0.32014	0.67384	0.58313	0.027
Mof_C 	C 	0.28973	0.66245	0.5658	0.005
Mof_H 	H 	0.2749	0.643	0.5727	0.007
Mof_C 	C 	0.33744	0.65984	0.6154	0.051
Mof_C 	C 	0.36758	0.67641	0.62962	-0.11
Mof_H 	H 	0.3767	0.6974	0.6186	0.068
Mof_N 	N 	0.31172	0.20768	0.03736	-0.188
Mof_N 	N 	0.28479	0.18369	0.03752	-0.216
Mof_N 	N 	0.33353	0.20222	0.06476	-0.101
Mof_C 	C 	0.32014	0.17384	0.08313	0.026
Mof_C 	C 	0.28973	0.16245	0.0658	0.004
Mof_H 	H 	0.2749	0.143	0.0727	0.005
Mof_C 	C 	0.33744	0.15984	0.1154	0.05
Mof_C 	C 	0.36758	0.17641	0.12962	-0.11
Mof_H 	H 	0.3767	0.1974	0.1186	0.067
Mof_N 	N 	0.81172	0.70768	0.03736	-0.188
Mof_N 	N 	0.78479	0.68369	0.03752	-0.216
Mof_N 	N 	0.83353	0.70222	0.06476	-0.1
Mof_C 	C 	0.82014	0.67384	0.08313	0.026
Mof_C 	C 	0.78973	0.66245	0.0658	0.005
Mof_H 	H 	0.7749	0.643	0.0727	0.006
Mof_C 	C 	0.83744	0.65984	0.1154	0.051
Mof_C 	C 	0.86758	0.67641	0.12962	-0.11
Mof_H 	H 	0.8767	0.6974	0.1186	0.068
Mof_N 	N 	0.81172	0.20768	0.53736	-0.186
Mof_N 	N 	0.78479	0.18369	0.53752	-0.214
Mof_N 	N 	0.83353	0.20222	0.56476	-0.099
Mof_C 	C 	0.82014	0.17384	0.58313	0.027
Mof_C 	C 	0.78973	0.16245	0.5658	0.005
Mof_H 	H 	0.7749	0.143	0.5727	0.006
Mof_C 	C 	0.83744	0.15984	0.6154	0.051
Mof_C 	C 	0.86758	0.17641	0.62962	-0.11
Mof_H 	H 	0.8767	0.1974	0.6186	0.068
Mof_N 	N 	0.68828	0.29232	0.53736	-0.186
Mof_N 	N 	0.71521	0.31631	0.53752	-0.214
Mof_N 	N 	0.66647	0.29778	0.56476	-0.1
Mof_C 	C 	0.67986	0.32616	0.58313	0.027
Mof_C 	C 	0.71027	0.33755	0.5658	0.005
Mof_H 	H 	0.7251	0.357	0.5727	0.007
Mof_C 	C 	0.66256	0.34016	0.6154	0.051
Mof_C 	C 	0.63242	0.32359	0.62962	-0.11
Mof_H 	H 	0.6233	0.3026	0.6186	0.068
Mof_N 	N 	0.68828	0.79232	0.03736	-0.188
Mof_N 	N 	0.71521	0.81631	0.03752	-0.215
Mof_N 	N 	0.66647	0.79778	0.06476	-0.101
Mof_C 	C 	0.67986	0.82616	0.08313	0.027
Mof_C 	C 	0.71027	0.83755	0.0658	0.005
Mof_H 	H 	0.7251	0.857	0.0727	0.007
Mof_C 	C 	0.66256	0.84016	0.1154	0.051
Mof_C 	C 	0.63242	0.82359	0.12962	-0.11
Mof_H 	H 	0.6233	0.8026	0.1186	0.067
Mof_N 	N 	0.18828	0.29232	0.03736	-0.188
Mof_N 	N 	0.21521	0.31631	0.03752	-0.216
Mof_N 	N 	0.16647	0.29778	0.06476	-0.101
Mof_C 	C 	0.17986	0.32616	0.08313	0.026
Mof_C 	C 	0.21027	0.33755	0.0658	0.004
Mof_H 	H 	0.2251	0.357	0.0727	0.005
Mof_C 	C 	0.16256	0.34016	0.1154	0.05
Mof_C 	C 	0.13242	0.32359	0.12962	-0.11
Mof_H 	H 	0.1233	0.3026	0.1186	0.066
Mof_N 	N 	0.18828	0.79232	0.53736	-0.186
Mof_N 	N 	0.21521	0.81631	0.53752	-0.214
Mof_N 	N 	0.16647	0.79778	0.56476	-0.1
Mof_C 	C 	0.17986	0.82616	0.58313	0.027
Mof_C 	C 	0.21027	0.83755	0.5658	0.005
Mof_H 	H 	0.2251	0.857	0.5727	0.008
Mof_C 	C 	0.16256	0.84016	0.6154	0.051
Mof_C 	C 	0.13242	0.82359	0.62962	-0.11
Mof_H 	H 	0.1233	0.8026	0.6186	0.067
Mof_N 	N 	0.31172	0.29232	0.46264	-0.186
Mof_N 	N 	0.28479	0.31631	0.46248	-0.214
Mof_N 	N 	0.33353	0.29778	0.43524	-0.1
Mof_C 	C 	0.32014	0.32616	0.41687	0.027
Mof_C 	C 	0.28973	0.33755	0.4342	0.005
Mof_H 	H 	0.2749	0.357	0.4273	0.007
Mof_C 	C 	0.33744	0.34016	0.3846	0.051
Mof_C 	C 	0.36758	0.32359	0.37038	-0.11
Mof_H 	H 	0.3767	0.3026	0.3814	0.068
Mof_N 	N 	0.31172	0.79232	0.96264	-0.18
Mof_N 	N 	0.28479	0.81631	0.96248	-0.207
Mof_N 	N 	0.33353	0.79778	0.93524	-0.098
Mof_C 	C 	0.32014	0.82616	0.91687	0.029
Mof_C 	C 	0.28973	0.83755	0.9342	0.007
Mof_H 	H 	0.2749	0.857	0.9273	0.01
Mof_C 	C 	0.33744	0.84016	0.8846	0.053
Mof_C 	C 	0.36758	0.82359	0.87038	-0.11
Mof_H 	H 	0.3767	0.8026	0.8814	0.069
Mof_N 	N 	0.81172	0.29232	0.96264	-0.18
Mof_N 	N 	0.78479	0.31631	0.96248	-0.208
Mof_N 	N 	0.83353	0.29778	0.93524	-0.097
Mof_C 	C 	0.82014	0.32616	0.91687	0.028
Mof_C 	C 	0.78973	0.33755	0.9342	0.007
Mof_H 	H 	0.7749	0.357	0.9273	0.009
Mof_C 	C 	0.83744	0.34016	0.8846	0.053
Mof_C 	C 	0.86758	0.32359	0.87038	-0.11
Mof_H 	H 	0.8767	0.3026	0.8814	0.069
Mof_N 	N 	0.81172	0.79232	0.46264	-0.186
Mof_N 	N 	0.78479	0.81631	0.46248	-0.213
Mof_N 	N 	0.83353	0.79778	0.43524	-0.099
Mof_C 	C 	0.82014	0.82616	0.41687	0.028
Mof_C 	C 	0.78973	0.83755	0.4342	0.006
Mof_H 	H 	0.7749	0.857	0.4273	0.008
Mof_C 	C 	0.83744	0.84016	0.3846	0.052
Mof_C 	C 	0.86758	0.82359	0.37038	-0.11
Mof_H 	H 	0.8767	0.8026	0.3814	0.069
Mof_N 	N 	0.18828	0.96264	0.79232	-0.18
Mof_N 	N 	0.21521	0.96248	0.81631	-0.208
Mof_N 	N 	0.16647	0.93524	0.79778	-0.098
Mof_C 	C 	0.17986	0.91687	0.82616	0.028
Mof_C 	C 	0.21027	0.9342	0.83755	0.006
Mof_H 	H 	0.2251	0.9273	0.857	0.01
Mof_C 	C 	0.16256	0.8846	0.84016	0.052
Mof_C 	C 	0.13242	0.87038	0.82359	-0.11
Mof_H 	H 	0.1233	0.8814	0.8026	0.068
Mof_N 	N 	0.18828	0.46264	0.29232	-0.186
Mof_N 	N 	0.21521	0.46248	0.31631	-0.214
Mof_N 	N 	0.16647	0.43524	0.29778	-0.1
Mof_C 	C 	0.17986	0.41687	0.32616	0.027
Mof_C 	C 	0.21027	0.4342	0.33755	0.005
Mof_H 	H 	0.2251	0.4273	0.357	0.007
Mof_C 	C 	0.16256	0.3846	0.34016	0.05
Mof_C 	C 	0.13242	0.37038	0.32359	-0.11
Mof_H 	H 	0.1233	0.3814	0.3026	0.067
Mof_N 	N 	0.68828	0.96264	0.29232	-0.18
Mof_N 	N 	0.71521	0.96248	0.31631	-0.208
Mof_N 	N 	0.66647	0.93524	0.29778	-0.098
Mof_C 	C 	0.67986	0.91687	0.32616	0.028
Mof_C 	C 	0.71027	0.9342	0.33755	0.006
Mof_H 	H 	0.7251	0.9273	0.357	0.009
Mof_C 	C 	0.66256	0.8846	0.34016	0.052
Mof_C 	C 	0.63242	0.87038	0.32359	-0.11
Mof_H 	H 	0.6233	0.8814	0.3026	0.069
Mof_N 	N 	0.68828	0.46264	0.79232	-0.186
Mof_N 	N 	0.71521	0.46248	0.81631	-0.213
Mof_N 	N 	0.66647	0.43524	0.79778	-0.099
Mof_C 	C 	0.67986	0.41687	0.82616	0.027
Mof_C 	C 	0.71027	0.4342	0.83755	0.006
Mof_H 	H 	0.7251	0.4273	0.857	0.008
Mof_C 	C 	0.66256	0.3846	0.84016	0.052
Mof_C 	C 	0.63242	0.37038	0.82359	-0.11
Mof_H 	H 	0.6233	0.3814	0.8026	0.068
Mof_N 	N 	0.81172	0.03736	0.79232	-0.188
Mof_N 	N 	0.78479	0.03752	0.81631	-0.215
Mof_N 	N 	0.83353	0.06476	0.79778	-0.1
Mof_C 	C 	0.82014	0.08313	0.82616	0.027
Mof_C 	C 	0.78973	0.0658	0.83755	0.005
Mof_H 	H 	0.7749	0.0727	0.857	0.007
Mof_C 	C 	0.83744	0.1154	0.84016	0.051
Mof_C 	C 	0.86758	0.12962	0.82359	-0.11
Mof_H 	H 	0.8767	0.1186	0.8026	0.068
Mof_N 	N 	0.81172	0.53736	0.29232	-0.186
Mof_N 	N 	0.78479	0.53752	0.31631	-0.214
Mof_N 	N 	0.83353	0.56476	0.29778	-0.099
Mof_C 	C 	0.82014	0.58313	0.32616	0.027
Mof_C 	C 	0.78973	0.5658	0.33755	0.006
Mof_H 	H 	0.7749	0.5727	0.357	0.007
Mof_C 	C 	0.83744	0.6154	0.34016	0.052
Mof_C 	C 	0.86758	0.62962	0.32359	-0.11
Mof_H 	H 	0.8767	0.6186	0.3026	0.068
Mof_N 	N 	0.31172	0.03736	0.29232	-0.188
Mof_N 	N 	0.28479	0.03752	0.31631	-0.216
Mof_N 	N 	0.33353	0.06476	0.29778	-0.101
Mof_C 	C 	0.32014	0.08313	0.32616	0.026
Mof_C 	C 	0.28973	0.0658	0.33755	0.004
Mof_H 	H 	0.2749	0.0727	0.357	0.006
Mof_C 	C 	0.33744	0.1154	0.34016	0.05
Mof_C 	C 	0.36758	0.12962	0.32359	-0.11
Mof_H 	H 	0.3767	0.1186	0.3026	0.067
Mof_N 	N 	0.31172	0.53736	0.79232	-0.186
Mof_N 	N 	0.28479	0.53752	0.81631	-0.213
Mof_N 	N 	0.33353	0.56476	0.79778	-0.099
Mof_C 	C 	0.32014	0.58313	0.82616	0.027
Mof_C 	C 	0.28973	0.5658	0.83755	0.006
Mof_H 	H 	0.2749	0.5727	0.857	0.008
Mof_C 	C 	0.33744	0.6154	0.84016	0.052
Mof_C 	C 	0.36758	0.62962	0.82359	-0.11
Mof_H 	H 	0.3767	0.6186	0.8026	0.068
Mof_N 	N 	0.18828	0.03736	0.20768	-0.189
Mof_N 	N 	0.21521	0.03752	0.18369	-0.216
Mof_N 	N 	0.16647	0.06476	0.20222	-0.102
Mof_C 	C 	0.17986	0.08313	0.17384	0.026
Mof_C 	C 	0.21027	0.0658	0.16245	0.004
Mof_H 	H 	0.2251	0.0727	0.143	0.005
Mof_C 	C 	0.16256	0.1154	0.15984	0.049
Mof_C 	C 	0.13242	0.12962	0.17641	-0.11
Mof_H 	H 	0.1233	0.1186	0.1974	0.066
Mof_N 	N 	0.18828	0.53736	0.70768	-0.186
Mof_N 	N 	0.21521	0.53752	0.68369	-0.214
Mof_N 	N 	0.16647	0.56476	0.70222	-0.1
Mof_C 	C 	0.17986	0.58313	0.67384	0.027
Mof_C 	C 	0.21027	0.5658	0.66245	0.005
Mof_H 	H 	0.2251	0.5727	0.643	0.007
Mof_C 	C 	0.16256	0.6154	0.65984	0.05
Mof_C 	C 	0.13242	0.62962	0.67641	-0.111
Mof_H 	H 	0.1233	0.6186	0.6974	0.067
Mof_N 	N 	0.68828	0.03736	0.70768	-0.188
Mof_N 	N 	0.71521	0.03752	0.68369	-0.216
Mof_N 	N 	0.66647	0.06476	0.70222	-0.101
Mof_C 	C 	0.67986	0.08313	0.67384	0.026
Mof_C 	C 	0.71027	0.0658	0.66245	0.004
Mof_H 	H 	0.7251	0.0727	0.643	0.006
Mof_C 	C 	0.66256	0.1154	0.65984	0.05
Mof_C 	C 	0.63242	0.12962	0.67641	-0.111
Mof_H 	H 	0.6233	0.1186	0.6974	0.067
Mof_N 	N 	0.68828	0.53736	0.20768	-0.186
Mof_N 	N 	0.71521	0.53752	0.18369	-0.214
Mof_N 	N 	0.66647	0.56476	0.20222	-0.1
Mof_C 	C 	0.67986	0.58313	0.17384	0.027
Mof_C 	C 	0.71027	0.5658	0.16245	0.005
Mof_H 	H 	0.7251	0.5727	0.143	0.006
Mof_C 	C 	0.66256	0.6154	0.15984	0.05
Mof_C 	C 	0.63242	0.62962	0.17641	-0.11
Mof_H 	H 	0.6233	0.6186	0.1974	0.067
Mof_N 	N 	0.81172	0.96264	0.20768	-0.18
Mof_N 	N 	0.78479	0.96248	0.18369	-0.208
Mof_N 	N 	0.83353	0.93524	0.20222	-0.098
Mof_C 	C 	0.82014	0.91687	0.17384	0.028
Mof_C 	C 	0.78973	0.9342	0.16245	0.006
Mof_H 	H 	0.7749	0.9273	0.143	0.008
Mof_C 	C 	0.83744	0.8846	0.15984	0.052
Mof_C 	C 	0.86758	0.87038	0.17641	-0.11
Mof_H 	H 	0.8767	0.8814	0.1974	0.069
Mof_N 	N 	0.81172	0.46264	0.70768	-0.186
Mof_N 	N 	0.78479	0.46248	0.68369	-0.214
Mof_N 	N 	0.83353	0.43524	0.70222	-0.099
Mof_C 	C 	0.82014	0.41687	0.67384	0.027
Mof_C 	C 	0.78973	0.4342	0.66245	0.006
Mof_H 	H 	0.7749	0.4273	0.643	0.007
Mof_C 	C 	0.83744	0.3846	0.65984	0.052
Mof_C 	C 	0.86758	0.37038	0.67641	-0.11
Mof_H 	H 	0.8767	0.3814	0.6974	0.068
Mof_N 	N 	0.31172	0.96264	0.70768	-0.18
Mof_N 	N 	0.28479	0.96248	0.68369	-0.208
Mof_N 	N 	0.33353	0.93524	0.70222	-0.098
Mof_C 	C 	0.32014	0.91687	0.67384	0.028
Mof_C 	C 	0.28973	0.9342	0.66245	0.006
Mof_H 	H 	0.2749	0.9273	0.643	0.009
Mof_C 	C 	0.33744	0.8846	0.65984	0.052
Mof_C 	C 	0.36758	0.87038	0.67641	-0.11
Mof_H 	H 	0.3767	0.8814	0.6974	0.069
Mof_N 	N 	0.31172	0.46264	0.20768	-0.186
Mof_N 	N 	0.28479	0.46248	0.18369	-0.214
Mof_N 	N 	0.33353	0.43524	0.20222	-0.1
Mof_C 	C 	0.32014	0.41687	0.17384	0.027
Mof_C 	C 	0.28973	0.4342	0.16245	0.005
Mof_H 	H 	0.2749	0.4273	0.143	0.006
Mof_C 	C 	0.33744	0.3846	0.15984	0.051
Mof_C 	C 	0.36758	0.37038	0.17641	-0.11
Mof_H 	H 	0.3767	0.3814	0.1974	0.067
Mof_N 	N 	0.96264	0.20768	0.81172	-0.18
Mof_N 	N 	0.96248	0.18369	0.78479	-0.208
Mof_N 	N 	0.93524	0.20222	0.83353	-0.098
Mof_C 	C 	0.91687	0.17384	0.82014	0.028
Mof_C 	C 	0.9342	0.16245	0.78973	0.006
Mof_H 	H 	0.9273	0.143	0.7749	0.008
Mof_C 	C 	0.8846	0.15984	0.83744	0.052
Mof_C 	C 	0.87038	0.17641	0.86758	-0.11
Mof_H 	H 	0.8814	0.1974	0.8767	0.069
Mof_N 	N 	0.96264	0.70768	0.31172	-0.18
Mof_N 	N 	0.96248	0.68369	0.28479	-0.208
Mof_N 	N 	0.93524	0.70222	0.33353	-0.098
Mof_C 	C 	0.91687	0.67384	0.32014	0.028
Mof_C 	C 	0.9342	0.66245	0.28973	0.006
Mof_H 	H 	0.9273	0.643	0.2749	0.009
Mof_C 	C 	0.8846	0.65984	0.33744	0.052
Mof_C 	C 	0.87038	0.67641	0.36758	-0.11
Mof_H 	H 	0.8814	0.6974	0.3767	0.069
Mof_N 	N 	0.46264	0.20768	0.31172	-0.186
Mof_N 	N 	0.46248	0.18369	0.28479	-0.214
Mof_N 	N 	0.43524	0.20222	0.33353	-0.1
Mof_C 	C 	0.41687	0.17384	0.32014	0.027
Mof_C 	C 	0.4342	0.16245	0.28973	0.005
Mof_H 	H 	0.4273	0.143	0.2749	0.006
Mof_C 	C 	0.3846	0.15984	0.33744	0.051
Mof_C 	C 	0.37038	0.17641	0.36758	-0.11
Mof_H 	H 	0.3814	0.1974	0.3767	0.067
Mof_N 	N 	0.46264	0.70768	0.81172	-0.186
Mof_N 	N 	0.46248	0.68369	0.78479	-0.214
Mof_N 	N 	0.43524	0.70222	0.83353	-0.099
Mof_C 	C 	0.41687	0.67384	0.82014	0.027
Mof_C 	C 	0.4342	0.66245	0.78973	0.006
Mof_H 	H 	0.4273	0.643	0.7749	0.007
Mof_C 	C 	0.3846	0.65984	0.83744	0.052
Mof_C 	C 	0.37038	0.67641	0.86758	-0.11
Mof_H 	H 	0.3814	0.6974	0.8767	0.068
Mof_N 	N 	0.03736	0.20768	0.18828	-0.189
Mof_N 	N 	0.03752	0.18369	0.21521	-0.216
Mof_N 	N 	0.06476	0.20222	0.16647	-0.102
Mof_C 	C 	0.08313	0.17384	0.17986	0.026
Mof_C 	C 	0.0658	0.16245	0.21027	0.004
Mof_H 	H 	0.0727	0.143	0.2251	0.005
Mof_C 	C 	0.1154	0.15984	0.16256	0.049
Mof_C 	C 	0.12962	0.17641	0.13242	-0.11
Mof_H 	H 	0.1186	0.1974	0.1233	0.066
Mof_N 	N 	0.03736	0.70768	0.68828	-0.188
Mof_N 	N 	0.03752	0.68369	0.71521	-0.216
Mof_N 	N 	0.06476	0.70222	0.66647	-0.101
Mof_C 	C 	0.08313	0.67384	0.67986	0.026
Mof_C 	C 	0.0658	0.66245	0.71027	0.004
Mof_H 	H 	0.0727	0.643	0.7251	0.006
Mof_C 	C 	0.1154	0.65984	0.66256	0.05
Mof_C 	C 	0.12962	0.67641	0.63242	-0.111
Mof_H 	H 	0.1186	0.6974	0.6233	0.067
Mof_N 	N 	0.53736	0.20768	0.68828	-0.186
Mof_N 	N 	0.53752	0.18369	0.71521	-0.214
Mof_N 	N 	0.56476	0.20222	0.66647	-0.1
Mof_C 	C 	0.58313	0.17384	0.67986	0.027
Mof_C 	C 	0.5658	0.16245	0.71027	0.005
Mof_H 	H 	0.5727	0.143	0.7251	0.006
Mof_C 	C 	0.6154	0.15984	0.66256	0.05
Mof_C 	C 	0.62962	0.17641	0.63242	-0.11
Mof_H 	H 	0.6186	0.1974	0.6233	0.067
Mof_N 	N 	0.53736	0.70768	0.18828	-0.186
Mof_N 	N 	0.53752	0.68369	0.21521	-0.214
Mof_N 	N 	0.56476	0.70222	0.16647	-0.1
Mof_C 	C 	0.58313	0.67384	0.17986	0.027
Mof_C 	C 	0.5658	0.66245	0.21027	0.005
Mof_H 	H 	0.5727	0.643	0.2251	0.007
Mof_C 	C 	0.6154	0.65984	0.16256	0.05
Mof_C 	C 	0.62962	0.67641	0.13242	-0.111
Mof_H 	H 	0.6186	0.6974	0.1233	0.067
Mof_N 	N 	0.03736	0.79232	0.81172	-0.188
Mof_N 	N 	0.03752	0.81631	0.78479	-0.215
Mof_N 	N 	0.06476	0.79778	0.83353	-0.1
Mof_C 	C 	0.08313	0.82616	0.82014	0.027
Mof_C 	C 	0.0658	0.83755	0.78973	0.005
Mof_H 	H 	0.0727	0.857	0.7749	0.007
Mof_C 	C 	0.1154	0.84016	0.83744	0.051
Mof_C 	C 	0.12962	0.82359	0.86758	-0.11
Mof_H 	H 	0.1186	0.8026	0.8767	0.068
Mof_N 	N 	0.03736	0.29232	0.31172	-0.188
Mof_N 	N 	0.03752	0.31631	0.28479	-0.216
Mof_N 	N 	0.06476	0.29778	0.33353	-0.101
Mof_C 	C 	0.08313	0.32616	0.32014	0.026
Mof_C 	C 	0.0658	0.33755	0.28973	0.004
Mof_H 	H 	0.0727	0.357	0.2749	0.006
Mof_C 	C 	0.1154	0.34016	0.33744	0.05
Mof_C 	C 	0.12962	0.32359	0.36758	-0.11
Mof_H 	H 	0.1186	0.3026	0.3767	0.067
Mof_N 	N 	0.53736	0.79232	0.31172	-0.186
Mof_N 	N 	0.53752	0.81631	0.28479	-0.213
Mof_N 	N 	0.56476	0.79778	0.33353	-0.099
Mof_C 	C 	0.58313	0.82616	0.32014	0.027
Mof_C 	C 	0.5658	0.83755	0.28973	0.006
Mof_H 	H 	0.5727	0.857	0.2749	0.008
Mof_C 	C 	0.6154	0.84016	0.33744	0.052
Mof_C 	C 	0.62962	0.82359	0.36758	-0.11
Mof_H 	H 	0.6186	0.8026	0.3767	0.068
Mof_N 	N 	0.53736	0.29232	0.81172	-0.186
Mof_N 	N 	0.53752	0.31631	0.78479	-0.214
Mof_N 	N 	0.56476	0.29778	0.83353	-0.099
Mof_C 	C 	0.58313	0.32616	0.82014	0.027
Mof_C 	C 	0.5658	0.33755	0.78973	0.006
Mof_H 	H 	0.5727	0.357	0.7749	0.007
Mof_C 	C 	0.6154	0.34016	0.83744	0.052
Mof_C 	C 	0.62962	0.32359	0.86758	-0.11
Mof_H 	H 	0.6186	0.3026	0.8767	0.068
Mof_N 	N 	0.96264	0.79232	0.18828	-0.18
Mof_N 	N 	0.96248	0.81631	0.21521	-0.208
Mof_N 	N 	0.93524	0.79778	0.16647	-0.098
Mof_C 	C 	0.91687	0.82616	0.17986	0.028
Mof_C 	C 	0.9342	0.83755	0.21027	0.006
Mof_H 	H 	0.9273	0.857	0.2251	0.01
Mof_C 	C 	0.8846	0.84016	0.16256	0.052
Mof_C 	C 	0.87038	0.82359	0.13242	-0.11
Mof_H 	H 	0.8814	0.8026	0.1233	0.068
Mof_N 	N 	0.96264	0.29232	0.68828	-0.18
Mof_N 	N 	0.96248	0.31631	0.71521	-0.208
Mof_N 	N 	0.93524	0.29778	0.66647	-0.098
Mof_C 	C 	0.91687	0.32616	0.67986	0.028
Mof_C 	C 	0.9342	0.33755	0.71027	0.006
Mof_H 	H 	0.9273	0.357	0.7251	0.009
Mof_C 	C 	0.8846	0.34016	0.66256	0.052
Mof_C 	C 	0.87038	0.32359	0.63242	-0.11
Mof_H 	H 	0.8814	0.3026	0.6233	0.069
Mof_N 	N 	0.46264	0.79232	0.68828	-0.186
Mof_N 	N 	0.46248	0.81631	0.71521	-0.213
Mof_N 	N 	0.43524	0.79778	0.66647	-0.099
Mof_C 	C 	0.41687	0.82616	0.67986	0.027
Mof_C 	C 	0.4342	0.83755	0.71027	0.006
Mof_H 	H 	0.4273	0.857	0.7251	0.008
Mof_C 	C 	0.3846	0.84016	0.66256	0.052
Mof_C 	C 	0.37038	0.82359	0.63242	-0.11
Mof_H 	H 	0.3814	0.8026	0.6233	0.068
Mof_N 	N 	0.46264	0.29232	0.18828	-0.186
Mof_N 	N 	0.46248	0.31631	0.21521	-0.214
Mof_N 	N 	0.43524	0.29778	0.16647	-0.1
Mof_C 	C 	0.41687	0.32616	0.17986	0.027
Mof_C 	C 	0.4342	0.33755	0.21027	0.005
Mof_H 	H 	0.4273	0.357	0.2251	0.007
Mof_C 	C 	0.3846	0.34016	0.16256	0.05
Mof_C 	C 	0.37038	0.32359	0.13242	-0.11
Mof_H 	H 	0.3814	0.3026	0.1233	0.067
Mof_N 	N 	0.20768	0.18828	0.03736	-0.189
Mof_N 	N 	0.18369	0.21521	0.03752	-0.216
Mof_N 	N 	0.20222	0.16647	0.06476	-0.102
Mof_C 	C 	0.17384	0.17986	0.08313	0.026
Mof_C 	C 	0.16245	0.21027	0.0658	0.004
Mof_H 	H 	0.143	0.2251	0.0727	0.005
Mof_C 	C 	0.15984	0.16256	0.1154	0.049
Mof_C 	C 	0.17641	0.13242	0.12962	-0.11
Mof_H 	H 	0.1974	0.1233	0.1186	0.066
Mof_N 	N 	0.20768	0.68828	0.53736	-0.186
Mof_N 	N 	0.18369	0.71521	0.53752	-0.214
Mof_N 	N 	0.20222	0.66647	0.56476	-0.1
Mof_C 	C 	0.17384	0.67986	0.58313	0.027
Mof_C 	C 	0.16245	0.71027	0.5658	0.005
Mof_H 	H 	0.143	0.7251	0.5727	0.006
Mof_C 	C 	0.15984	0.66256	0.6154	0.05
Mof_C 	C 	0.17641	0.63242	0.62962	-0.11
Mof_H 	H 	0.1974	0.6233	0.6186	0.067
Mof_N 	N 	0.70768	0.18828	0.53736	-0.186
Mof_N 	N 	0.68369	0.21521	0.53752	-0.214
Mof_N 	N 	0.70222	0.16647	0.56476	-0.1
Mof_C 	C 	0.67384	0.17986	0.58313	0.027
Mof_C 	C 	0.66245	0.21027	0.5658	0.005
Mof_H 	H 	0.643	0.2251	0.5727	0.007
Mof_C 	C 	0.65984	0.16256	0.6154	0.05
Mof_C 	C 	0.67641	0.13242	0.62962	-0.111
Mof_H 	H 	0.6974	0.1233	0.6186	0.067
Mof_N 	N 	0.70768	0.68828	0.03736	-0.188
Mof_N 	N 	0.68369	0.71521	0.03752	-0.216
Mof_N 	N 	0.70222	0.66647	0.06476	-0.101
Mof_C 	C 	0.67384	0.67986	0.08313	0.026
Mof_C 	C 	0.66245	0.71027	0.0658	0.004
Mof_H 	H 	0.643	0.7251	0.0727	0.006
Mof_C 	C 	0.65984	0.66256	0.1154	0.05
Mof_C 	C 	0.67641	0.63242	0.12962	-0.111
Mof_H 	H 	0.6974	0.6233	0.1186	0.067
Mof_N 	N 	0.20768	0.81172	0.96264	-0.18
Mof_N 	N 	0.18369	0.78479	0.96248	-0.208
Mof_N 	N 	0.20222	0.83353	0.93524	-0.098
Mof_C 	C 	0.17384	0.82014	0.91687	0.028
Mof_C 	C 	0.16245	0.78973	0.9342	0.006
Mof_H 	H 	0.143	0.7749	0.9273	0.008
Mof_C 	C 	0.15984	0.83744	0.8846	0.052
Mof_C 	C 	0.17641	0.86758	0.87038	-0.11
Mof_H 	H 	0.1974	0.8767	0.8814	0.069
Mof_N 	N 	0.20768	0.31172	0.46264	-0.186
Mof_N 	N 	0.18369	0.28479	0.46248	-0.214
Mof_N 	N 	0.20222	0.33353	0.43524	-0.1
Mof_C 	C 	0.17384	0.32014	0.41687	0.027
Mof_C 	C 	0.16245	0.28973	0.4342	0.005
Mof_H 	H 	0.143	0.2749	0.4273	0.006
Mof_C 	C 	0.15984	0.33744	0.3846	0.051
Mof_C 	C 	0.17641	0.36758	0.37038	-0.11
Mof_H 	H 	0.1974	0.3767	0.3814	0.067
Mof_N 	N 	0.70768	0.81172	0.46264	-0.186
Mof_N 	N 	0.68369	0.78479	0.46248	-0.214
Mof_N 	N 	0.70222	0.83353	0.43524	-0.099
Mof_C 	C 	0.67384	0.82014	0.41687	0.027
Mof_C 	C 	0.66245	0.78973	0.4342	0.006
Mof_H 	H 	0.643	0.7749	0.4273	0.007
Mof_C 	C 	0.65984	0.83744	0.3846	0.052
Mof_C 	C 	0.67641	0.86758	0.37038	-0.11
Mof_H 	H 	0.6974	0.8767	0.3814	0.068
Mof_N 	N 	0.70768	0.31172	0.96264	-0.18
Mof_N 	N 	0.68369	0.28479	0.96248	-0.208
Mof_N 	N 	0.70222	0.33353	0.93524	-0.098
Mof_C 	C 	0.67384	0.32014	0.91687	0.028
Mof_C 	C 	0.66245	0.28973	0.9342	0.006
Mof_H 	H 	0.643	0.2749	0.9273	0.009
Mof_C 	C 	0.65984	0.33744	0.8846	0.052
Mof_C 	C 	0.67641	0.36758	0.87038	-0.11
Mof_H 	H 	0.6974	0.3767	0.8814	0.069
Mof_N 	N 	0.79232	0.18828	0.96264	-0.18
Mof_N 	N 	0.81631	0.21521	0.96248	-0.208
Mof_N 	N 	0.79778	0.16647	0.93524	-0.098
Mof_C 	C 	0.82616	0.17986	0.91687	0.028
Mof_C 	C 	0.83755	0.21027	0.9342	0.006
Mof_H 	H 	0.857	0.2251	0.9273	0.01
Mof_C 	C 	0.84016	0.16256	0.8846	0.052
Mof_C 	C 	0.82359	0.13242	0.87038	-0.11
Mof_H 	H 	0.8026	0.1233	0.8814	0.068
Mof_N 	N 	0.79232	0.68828	0.46264	-0.186
Mof_N 	N 	0.81631	0.71521	0.46248	-0.213
Mof_N 	N 	0.79778	0.66647	0.43524	-0.099
Mof_C 	C 	0.82616	0.67986	0.41687	0.027
Mof_C 	C 	0.83755	0.71027	0.4342	0.006
Mof_H 	H 	0.857	0.7251	0.4273	0.008
Mof_C 	C 	0.84016	0.66256	0.3846	0.052
Mof_C 	C 	0.82359	0.63242	0.37038	-0.11
Mof_H 	H 	0.8026	0.6233	0.3814	0.068
Mof_N 	N 	0.29232	0.18828	0.46264	-0.186
Mof_N 	N 	0.31631	0.21521	0.46248	-0.214
Mof_N 	N 	0.29778	0.16647	0.43524	-0.1
Mof_C 	C 	0.32616	0.17986	0.41687	0.027
Mof_C 	C 	0.33755	0.21027	0.4342	0.005
Mof_H 	H 	0.357	0.2251	0.4273	0.007
Mof_C 	C 	0.34016	0.16256	0.3846	0.05
Mof_C 	C 	0.32359	0.13242	0.37038	-0.11
Mof_H 	H 	0.3026	0.1233	0.3814	0.067
Mof_N 	N 	0.29232	0.68828	0.96264	-0.18
Mof_N 	N 	0.31631	0.71521	0.96248	-0.208
Mof_N 	N 	0.29778	0.66647	0.93524	-0.098
Mof_C 	C 	0.32616	0.67986	0.91687	0.028
Mof_C 	C 	0.33755	0.71027	0.9342	0.006
Mof_H 	H 	0.357	0.7251	0.9273	0.009
Mof_C 	C 	0.34016	0.66256	0.8846	0.052
Mof_C 	C 	0.32359	0.63242	0.87038	-0.11
Mof_H 	H 	0.3026	0.6233	0.8814	0.069
Mof_N 	N 	0.79232	0.81172	0.03736	-0.188
Mof_N 	N 	0.81631	0.78479	0.03752	-0.215
Mof_N 	N 	0.79778	0.83353	0.06476	-0.1
Mof_C 	C 	0.82616	0.82014	0.08313	0.027
Mof_C 	C 	0.83755	0.78973	0.0658	0.005
Mof_H 	H 	0.857	0.7749	0.0727	0.007
Mof_C 	C 	0.84016	0.83744	0.1154	0.051
Mof_C 	C 	0.82359	0.86758	0.12962	-0.11
Mof_H 	H 	0.8026	0.8767	0.1186	0.068
Mof_N 	N 	0.79232	0.31172	0.53736	-0.186
Mof_N 	N 	0.81631	0.28479	0.53752	-0.213
Mof_N 	N 	0.79778	0.33353	0.56476	-0.099
Mof_C 	C 	0.82616	0.32014	0.58313	0.027
Mof_C 	C 	0.83755	0.28973	0.5658	0.006
Mof_H 	H 	0.857	0.2749	0.5727	0.008
Mof_C 	C 	0.84016	0.33744	0.6154	0.052
Mof_C 	C 	0.82359	0.36758	0.62962	-0.11
Mof_H 	H 	0.8026	0.3767	0.6186	0.068
Mof_N 	N 	0.29232	0.81172	0.53736	-0.186
Mof_N 	N 	0.31631	0.78479	0.53752	-0.214
Mof_N 	N 	0.29778	0.83353	0.56476	-0.099
Mof_C 	C 	0.32616	0.82014	0.58313	0.027
Mof_C 	C 	0.33755	0.78973	0.5658	0.006
Mof_H 	H 	0.357	0.7749	0.5727	0.007
Mof_C 	C 	0.34016	0.83744	0.6154	0.052
Mof_C 	C 	0.32359	0.86758	0.62962	-0.11
Mof_H 	H 	0.3026	0.8767	0.6186	0.068
Mof_N 	N 	0.29232	0.31172	0.03736	-0.188
Mof_N 	N 	0.31631	0.28479	0.03752	-0.216
Mof_N 	N 	0.29778	0.33353	0.06476	-0.101
Mof_C 	C 	0.32616	0.32014	0.08313	0.026
Mof_C 	C 	0.33755	0.28973	0.0658	0.004
Mof_H 	H 	0.357	0.2749	0.0727	0.006
Mof_C 	C 	0.34016	0.33744	0.1154	0.05
Mof_C 	C 	0.32359	0.36758	0.12962	-0.11
Mof_H 	H 	0.3026	0.3767	0.1186	0.067
Mof_Co	Co	0.5	0.24617	0.31633	1.117
Mof_Co	Co	0.5	0.74617	0.81633	1.118
Mof_Co	Co	-4.65133e-33	0.24617	0.81633	1.11
Mof_Co	Co	8.89813e-33	0.74617	0.31633	1.11
Mof_Co	Co	0.5	0.75383	0.31633	1.117
Mof_Co	Co	0.5	0.25383	0.81633	1.117
Mof_Co	Co	3.06075e-33	0.75383	0.81633	1.11
Mof_Co	Co	8.89813e-33	0.25383	0.31633	1.11
Mof_Co	Co	0.5	0.24617	0.68367	1.117
Mof_Co	Co	0.5	0.74617	0.18367	1.117
Mof_Co	Co	4.54469e-33	0.24617	0.18367	1.11
Mof_Co	Co	2.56335e-33	0.74617	0.68367	1.11
Mof_Co	Co	0.5	0.75383	0.68367	1.117
Mof_Co	Co	0.5	0.25383	0.18367	1.117
Mof_Co	Co	-1.23937e-33	0.75383	0.18367	1.11
Mof_Co	Co	1.02754e-32	0.25383	0.68367	1.11
Mof_Co	Co	0.31633	0.5	0.24617	1.117
Mof_Co	Co	0.31633	7.71208e-33	0.74617	1.11
Mof_Co	Co	0.81633	0.5	0.74617	1.118
Mof_Co	Co	0.81633	1.92802e-33	0.24617	1.11
Mof_Co	Co	0.31633	0.5	0.75383	1.117
Mof_Co	Co	0.31633	-1.92802e-33	0.25383	1.11
Mof_Co	Co	0.81633	0.5	0.25383	1.117
Mof_Co	Co	0.81633	0	0.75383	1.11
Mof_Co	Co	0.68367	0.5	0.24617	1.117
Mof_Co	Co	0.68367	7.71208e-33	0.74617	1.11
Mof_Co	Co	0.18367	0.5	0.74617	1.117
Mof_Co	Co	0.18367	1.92802e-33	0.24617	1.11
Mof_Co	Co	0.68367	0.5	0.75383	1.117
Mof_Co	Co	0.68367	-1.92802e-33	0.25383	1.11
Mof_Co	Co	0.18367	0.5	0.25383	1.117
Mof_Co	Co	0.18367	0	0.75383	1.11
Mof_Co	Co	0.24617	0.31633	0.5	1.117
Mof_Co	Co	0.24617	0.81633	-0	1.11
Mof_Co	Co	0.74617	0.31633	-0	1.11
Mof_Co	Co	0.74617	0.81633	0.5	1.118
Mof_Co	Co	0.75383	0.31633	0.5	1.117
Mof_Co	Co	0.75383	0.81633	-0	1.11
Mof_Co	Co	0.25383	0.31633	-0	1.11
Mof_Co	Co	0.25383	0.81633	0.5	1.117
Mof_Co	Co	0.24617	0.68367	0.5	1.117
Mof_Co	Co	0.24617	0.18367	-0	1.11
Mof_Co	Co	0.74617	0.68367	-0	1.11
Mof_Co	Co	0.74617	0.18367	0.5	1.117
Mof_Co	Co	0.75383	0.68367	0.5	1.117
Mof_Co	Co	0.75383	0.18367	-0	1.11
Mof_Co	Co	0.25383	0.68367	-0	1.11
Mof_Co	Co	0.25383	0.18367	0.5	1.117
Mof_Co	Co	0.74617	1.92802e-33	0.18367	1.11
Mof_Co	Co	0.74617	0.5	0.68367	1.117
Mof_Co	Co	0.24617	0	0.68367	1.11
Mof_Co	Co	0.24617	0.5	0.18367	1.117
Mof_Co	Co	0.25383	1.92802e-33	0.18367	1.11
Mof_Co	Co	0.25383	0.5	0.68367	1.117
Mof_Co	Co	0.75383	0	0.68367	1.11
Mof_Co	Co	0.75383	0.5	0.18367	1.117
Mof_Co	Co	0.74617	0	0.81633	1.11
Mof_Co	Co	0.74617	0.5	0.31633	1.117
Mof_Co	Co	0.24617	3.85604e-33	0.31633	1.11
Mof_Co	Co	0.24617	0.5	0.81633	1.117
Mof_Co	Co	0.25383	0	0.81633	1.11
Mof_Co	Co	0.25383	0.5	0.31633	1.117
Mof_Co	Co	0.75383	3.85604e-33	0.31633	1.11
Mof_Co	Co	0.75383	0.5	0.81633	1.118
Mof_Co	Co	-6.76037e-33	0.81633	0.25383	1.11
Mof_Co	Co	2.82641e-33	0.31633	0.75383	1.11
Mof_Co	Co	0.5	0.81633	0.75383	1.118
Mof_Co	Co	0.5	0.31633	0.25383	1.117
Mof_Co	Co	1.05098e-32	0.81633	0.74617	1.11
Mof_Co	Co	6.70705e-33	0.31633	0.24617	1.11
Mof_Co	Co	0.5	0.81633	0.24617	1.117
Mof_Co	Co	0.5	0.31633	0.74617	1.117
Mof_Co	Co	9.5171e-34	0.18367	0.25383	1.11
Mof_Co	Co	-4.88567e-33	0.68367	0.75383	1.11
Mof_Co	Co	0.5	0.18367	0.75383	1.117
Mof_Co	Co	0.5	0.68367	0.25383	1.117
Mof_Co	Co	2.79769e-33	0.18367	0.74617	1.11
Mof_Co	Co	1.05631e-32	0.68367	0.24617	1.11
Mof_Co	Co	0.5	0.18367	0.24617	1.117
Mof_Co	Co	0.5	0.68367	0.74617	1.117
Mof_Co	Co	0.81633	0.74617	-0	1.11
Mof_Co	Co	0.81633	0.24617	0.5	1.117
Mof_Co	Co	0.31633	0.74617	0.5	1.117
Mof_Co	Co	0.31633	0.24617	-0	1.11
Mof_Co	Co	0.81633	0.25383	-0	1.11
Mof_Co	Co	0.81633	0.75383	0.5	1.118
Mof_Co	Co	0.31633	0.25383	0.5	1.117
Mof_Co	Co	0.31633	0.75383	-0	1.11
Mof_Co	Co	0.18367	0.74617	-0	1.11
Mof_Co	Co	0.18367	0.24617	0.5	1.117
Mof_Co	Co	0.68367	0.74617	0.5	1.117
Mof_Co	Co	0.68367	0.24617	-0	1.11
Mof_Co	Co	0.18367	0.25383	-0	1.11
Mof_Co	Co	0.18367	0.75383	0.5	1.117
Mof_Co	Co	0.68367	0.25383	0.5	1.117
Mof_Co	Co	0.68367	0.75383	-0	1.11
Mof_Cl	Cl	0.5	0.25	0.25	-0.853
Mof_Cl	Cl	1.05241e-32	0.25	0.75	-0.865
Mof_Cl	Cl	1.05774e-32	0.75	0.25	-0.865
Mof_Cl	Cl	0.5	0.75	0.25	-0.853
Mof_Cl	Cl	4.79339e-33	0.25	0.25	-0.865
Mof_Cl	Cl	0.5	0.25	0.75	-0.853
Mof_Cl	Cl	0.5	0.75	0.75	-0.853
Mof_Cl	Cl	0.25	0.5	0.25	-0.853
Mof_Cl	Cl	0.25	7.71208e-33	0.75	-0.865
Mof_Cl	Cl	0.75	1.92802e-33	0.25	-0.865
Mof_Cl	Cl	0.25	0.5	0.75	-0.853
Mof_Cl	Cl	0.25	1.92802e-33	0.25	-0.865
Mof_Cl	Cl	0.75	0.5	0.25	-0.853
Mof_Cl	Cl	0.75	0.5	0.75	-0.853
Mof_Cl	Cl	0.25	0.25	0.5	-0.853
Mof_Cl	Cl	0.25	0.75	-0	-0.865
Mof_Cl	Cl	0.75	0.25	-0	-0.865
Mof_Cl	Cl	0.75	0.25	0.5	-0.853
Mof_Cl	Cl	0.25	0.25	-0	-0.865
Mof_Cl	Cl	0.25	0.75	0.5	-0.853
Mof_Cl	Cl	0.75	0.75	0.5	-0.853
Mof_Cl	Cl	0.75	7.71208e-33	0.75	-0.865
Mof_Cl	Cl	1.82362e-32	0.75	0.75	-0.865
Mof_Cl	Cl	0.75	0.75	-0	-0.865
_end
