data_functionalizedCrystal
_audit_creation_method	'EQeq! by Chris Wilmer'
_symmetry_space_group_name_H-M	'P1'
_symmetry_Int_Tables_number	1
_symmetry_cell_setting	triclinic
loop_
_symmetry_equiv_pos_as_xyz
  x,y,z
_cell_length_a	10.5429
_cell_length_b	11.6345
_cell_length_c	11.7303
_cell_angle_alpha	110.116
_cell_angle_beta	100.445
_cell_angle_gamma	104.339
loop_
_atom_site_label
_atom_site_type_symbol
_atom_site_fract_x
_atom_site_fract_y
_atom_site_fract_z
_atom_site_charge
Mof_In	In	0.04631	0.04462	0.79474	2.157
Mof_In	In	0.95369	0.95538	0.20526	2.525
Mof_In	In	0.5	0	-0	1.692
Mof_In	In	0.5	0	0.5	2.039
Mof_P 	P 	0.1936	0.9974	0.0498	0.706
Mof_P 	P 	0.3676	0.0977	0.7635	0.648
Mof_P 	P 	0.8454	0.1621	0.6333	0.603
Mof_P 	P 	0.8064	0.0026	0.9502	0.629
Mof_P 	P 	0.6324	0.9023	0.2365	0.664
Mof_P 	P 	0.1546	0.8379	0.3667	0.622
Mof_C 	C 	0.8722	0.8232	0.5216	0.072
Mof_C 	C 	0.9277	0.7354	0.6652	0.058
Mof_C 	C 	0.8101	0.6995	0.4235	-0.069
Mof_C 	C 	0.8686	0.6088	0.572	-0.079
Mof_C 	C 	0.8067	0.5903	0.4455	0.02
Mof_C 	C 	0.7392	0.458	0.3454	0.025
Mof_C 	C 	0.6351	0.4329	0.2352	-0.088
Mof_C 	C 	0.773	0.3529	0.3531	-0.085
Mof_C 	C 	0.5707	0.3077	0.1444	0.044
Mof_C 	C 	0.7072	0.2286	0.256	0.048
Mof_C 	C 	0.5685	0.7985	0.6048	0.068
Mof_C 	C 	0.4254	0.6916	0.3942	0.061
Mof_C 	C 	0.5701	0.6808	0.6074	-0.064
Mof_C 	C 	0.4257	0.5727	0.3927	-0.07
Mof_C 	C 	0.4993	0.5645	0.5001	0.026
Mof_C 	C 	0.1278	0.1768	0.4784	0.062
Mof_C 	C 	0.0723	0.2646	0.3348	0.067
Mof_C 	C 	0.1899	0.3005	0.5765	-0.062
Mof_C 	C 	0.1314	0.3912	0.428	-0.073
Mof_C 	C 	0.1933	0.4097	0.5545	0.034
Mof_C 	C 	0.2608	0.542	0.6546	0.035
Mof_C 	C 	0.3649	0.5671	0.7648	-0.071
Mof_C 	C 	0.227	0.6471	0.6469	-0.065
Mof_C 	C 	0.4293	0.6923	0.8556	0.081
Mof_C 	C 	0.2928	0.7714	0.744	0.082
Mof_C 	C 	0.4315	0.2015	0.3952	0.042
Mof_C 	C 	0.5746	0.3084	0.6058	0.06
Mof_C 	C 	0.4299	0.3192	0.3926	-0.074
Mof_C 	C 	0.5743	0.4273	0.6073	-0.071
Mof_C 	C 	0.5007	0.4355	0.4999	0.028
Mof_N 	N 	0.9301	0.8408	0.6418	-0.263
Mof_N 	N 	0.6044	0.2058	0.1541	-0.29
Mof_N 	N 	0.4955	0.8045	0.499	-0.253
Mof_N 	N 	0.0699	0.1592	0.3582	-0.355
Mof_N 	N 	0.3956	0.7942	0.8459	-0.204
Mof_N 	N 	0.5045	0.1955	0.501	-0.307
Mof_O 	O 	0.1213	0.9577	0.911	-0.441
Mof_O 	O 	0.1076	0.9321	0.1153	-0.598
Mof_O 	O 	0.3278	0.9685	0.0679	-0.459
Mof_O 	O 	0.2273	0.1502	0.1203	-0.457
Mof_O 	O 	0.2111	0.041	0.7061	-0.625
Mof_O 	O 	0.4107	0.0812	0.8848	-0.551
Mof_O 	O 	0.4354	0.0399	0.6665	-0.627
Mof_O 	O 	0.4141	0.2503	0.8006	-0.257
Mof_O 	O 	0.9593	0.1107	0.6643	-0.641
Mof_O 	O 	0.7053	0.0785	0.6199	-0.615
Mof_O 	O 	0.8451	0.1812	0.5061	-0.304
Mof_O 	O 	0.877	0.3012	0.7368	-0.251
Mof_O 	O 	0.8787	0.0423	0.089	-0.835
Mof_O 	O 	0.8924	0.0679	0.8847	-0.617
Mof_O 	O 	0.6722	0.0315	0.9321	-0.513
Mof_O 	O 	0.7727	0.8498	0.8797	-0.226
Mof_O 	O 	0.7889	0.959	0.2939	-0.541
Mof_O 	O 	0.5893	0.9188	0.1152	-0.516
Mof_O 	O 	0.5646	0.9601	0.3335	-0.465
Mof_O 	O 	0.5859	0.7497	0.1994	-0.318
Mof_O 	O 	0.0407	0.8893	0.3357	-0.561
Mof_O 	O 	0.2947	0.9215	0.3801	-0.467
Mof_O 	O 	0.1549	0.8188	0.4939	-0.192
Mof_O 	O 	0.123	0.6988	0.2632	-0.274
Mof_H 	H 	0.87509	0.91282	0.5015	0.056
Mof_H 	H 	0.97727	0.75325	0.76733	0.006
Mof_H 	H 	0.76125	0.68797	0.32342	0.028
Mof_H 	H 	0.87053	0.52316	0.59778	0.048
Mof_H 	H 	0.60522	0.51632	0.22226	0.039
Mof_H 	H 	0.85534	0.36709	0.43932	0.049
Mof_H 	H 	0.48567	0.28702	0.05718	-0.034
Mof_H 	H 	0.73956	0.14361	0.26129	-0.048
Mof_H 	H 	0.6287	0.8929	0.69181	0.077
Mof_H 	H 	0.36549	0.69743	0.30631	0.015
Mof_H 	H 	0.62938	0.67807	0.69739	0.057
Mof_H 	H 	0.36579	0.48015	0.30366	0.037
Mof_H 	H 	0.12491	0.08718	0.4985	-0.043
Mof_H 	H 	0.23875	0.31203	0.67658	0.05
Mof_H 	H 	0.39478	0.48368	0.77774	0.061
Mof_H 	H 	0.14466	0.63291	0.56068	0.069
Mof_H 	H 	0.51433	0.71298	0.94282	0.052
Mof_H 	H 	0.26044	0.85639	0.73871	0.069
Mof_H 	H 	0.3713	0.1071	0.30819	-0.059
Mof_H 	H 	0.63451	0.30257	0.69369	0.023
Mof_H 	H 	0.37062	0.32193	0.30261	0.047
Mof_H 	H 	0.63421	0.51985	0.69634	0.049
Mof_H 	H 	0.02273	0.24675	0.23267	-0.005
Mof_H 	H 	0.12947	0.47684	0.40222	0.053
_end
