data_functionalizedCrystal
_audit_creation_method	'EQeq! by Chris Wilmer'
_symmetry_space_group_name_H-M	'P1'
_symmetry_Int_Tables_number	1
_symmetry_cell_setting	triclinic
loop_
_symmetry_equiv_pos_as_xyz
  x,y,z
_cell_length_a	37.227
_cell_length_b	37.227
_cell_length_c	30.149
_cell_angle_alpha	90
_cell_angle_beta	90
_cell_angle_gamma	120
loop_
_atom_site_label
_atom_site_type_symbol
_atom_site_fract_x
_atom_site_fract_y
_atom_site_fract_z
_atom_site_charge
Mof_Zn	Zn	0.63325	0.85832	0.73877	1.095
Mof_Zn	Zn	0.70235	0.842	0.69821	1.128
Mof_Zn	Zn	0.37702	0.71901	0.21812	1.156
Mof_O 	O 	0.7384	0.0951	0.2731	-0.463
Mof_O 	O 	0.7906	0.0935	0.3196	-0.453
Mof_O 	O 	0.6783	0.8544	0.6453	-0.46
Mof_O 	O 	0.6286	0.8715	0.6757	-0.441
Mof_O 	O 	0.5768	0.82002	0.7544	-0.537
Mof_O 	O 	0.7585	0.8725	0.7105	-0.465
Mof_F 	F 	0.6885	0.0086	0.2624	-0.482
Mof_F 	F 	0.741	0.0756	0.3986	-0.484
Mof_F 	F 	0.7072	0.9157	0.5821	-0.476
Mof_F 	F 	0.5674	0.8307	0.6134	-0.448
Mof_F 	F 	0.46	0.7252	0.3814	-0.404
Mof_F 	F 	0.4558	0.8319	0.2963	-0.408
Mof_F 	F 	0.5099	0.8014	0.6986	-0.447
Mof_F 	F 	0.8214	0.8554	0.7175	-0.471
Mof_C 	C 	0.6296	0.9344	0.3992	-0.197
Mof_C 	C 	0.6387	0.9278	0.4422	0.141
Mof_H 	H 	0.663	0.9475	0.4558	-0.006
Mof_C 	C 	0.6113	0.8918	0.4647	-0.187
Mof_C 	C 	0.5749	0.8623	0.4444	0.134
Mof_H 	H 	0.5566	0.8382	0.4595	-0.002
Mof_C 	C 	0.5658	0.8689	0.4014	-0.202
Mof_C 	C 	0.5931	0.9049	0.3789	0.142
Mof_H 	H 	0.587	0.9093	0.3502	-0.006
Mof_C 	C 	0.6595	0.9717	0.374	0.433
Mof_C 	C 	0.6869	0.0066	0.398	-0.546
Mof_H 	H 	0.6864	0.006	0.4289	0.274
Mof_C 	C 	0.7152	0.0426	0.376	0.701
Mof_C 	C 	0.716	0.0436	0.3299	-0.514
Mof_C 	C 	0.6886	0.0086	0.3059	0.709
Mof_C 	C 	0.6603	0.9727	0.3279	-0.552
Mof_H 	H 	0.6419	0.9493	0.3119	0.279
Mof_C 	C 	0.6168	0.8854	0.5128	0.423
Mof_C 	C 	0.586	0.8602	0.5427	-0.539
Mof_H 	H 	0.5582	0.8473	0.5342	0.275
Mof_C 	C 	0.5965	0.8543	0.5852	0.699
Mof_C 	C 	0.6379	0.8735	0.5978	-0.516
Mof_C 	C 	0.6688	0.8987	0.568	0.709
Mof_C 	C 	0.6583	0.9046	0.5255	-0.548
Mof_H 	H 	0.6789	0.9214	0.5055	0.273
Mof_C 	C 	0.5243	0.8354	0.3799	0.479
Mof_C 	C 	0.5053	0.8467	0.3475	-0.357
Mof_H 	H 	0.5161	0.8745	0.3402	0.215
Mof_C 	C 	0.4701	0.8164	0.3258	0.547
Mof_C 	C 	0.454	0.7748	0.3367	-0.776
Mof_C 	C 	0.473	0.7635	0.3692	0.51
Mof_C 	C 	0.5081	0.7938	0.3908	-0.351
Mof_H 	H 	0.5208	0.7863	0.4125	0.213
Mof_C 	C 	0.7509	0.0807	0.3076	0.758
Mof_C 	C 	0.6453	0.8604	0.6423	0.8
Mof_C 	C 	0.4184	0.7414	0.3111	0.991
Mof_C 	C 	0.44472	0.7469	0.7235	-0.518
Mof_H 	H 	0.4303	0.756	0.706	0.27
Mof_C 	C 	0.48824	0.7685	0.7234	0.688
Mof_C 	C 	0.8886	0.91481	0.7329	-0.557
Mof_H 	H 	0.9031	0.9025	0.7215	0.274
Mof_C 	C 	0.84509	0.89304	0.7329	0.684
Mof_O 	O 	0.4049	0.7478	0.2731	-0.576
Mof_O 	O 	0.3851	0.712	0.3311	-0.58
Mof_F 	F 	0.4224	0.763	0.4107	-0.408
Mof_F 	F 	0.4956	0.7923	0.2713	-0.412
Mof_C 	C 	0.4877	0.8118	0.4035	-0.34
Mof_H 	H 	0.4867	0.8165	0.4336	0.212
Mof_C 	C 	0.4528	0.781	0.382	0.526
Mof_C 	C 	0.491	0.7973	0.3135	0.514
Mof_C 	C 	0.5257	0.8287	0.3347	-0.34
Mof_H 	H 	0.5498	0.8453	0.3187	0.206
Mof_Zn	Zn	0.6277	0.7924	0.7067	1.119
Mof_Zn	Zn	0.6979	0.8895	0.7214	1.088
Mof_O 	O 	0.4242	0.7096	0.3044	-0.443
Mof_O 	O 	0.3943	0.758	0.3114	-0.27
Mof_O 	O 	0.7735	0.0717	0.2793	-0.371
Mof_O 	O 	0.7471	0.1146	0.315	-0.412
Mof_O 	O 	0.6802	0.8924	0.6598	-0.408
Mof_O 	O 	0.6198	0.8204	0.6544	-0.43
Mof_O 	O 	0.7522	0.9093	0.744	-0.451
Mof_O 	O 	0.5739	0.7871	0.7091	-0.403
Mof_Zn	Zn	0.14168	0.77493	0.73877	1.094
Mof_Zn	Zn	0.158	0.86035	0.69821	1.127
Mof_Zn	Zn	0.28099	0.65801	0.21812	1.155
Mof_O 	O 	0.9049	0.6433	0.2731	-0.464
Mof_O 	O 	0.9065	0.6971	0.3196	-0.454
Mof_O 	O 	0.1456	0.8239	0.6453	-0.461
Mof_O 	O 	0.1285	0.7571	0.6757	-0.442
Mof_O 	O 	0.17998	0.75678	0.7544	-0.538
Mof_O 	O 	0.1275	0.886	0.7105	-0.466
Mof_F 	F 	0.9914	0.6799	0.2624	-0.483
Mof_F 	F 	0.9244	0.6654	0.3986	-0.484
Mof_F 	F 	0.0843	0.7915	0.5821	-0.476
Mof_F 	F 	0.1693	0.7367	0.6134	-0.448
Mof_F 	F 	0.2748	0.7348	0.3814	-0.404
Mof_F 	F 	0.1681	0.6239	0.2963	-0.408
Mof_F 	F 	0.1986	0.7085	0.6986	-0.447
Mof_F 	F 	0.1446	0.966	0.7175	-0.471
Mof_C 	C 	0.0656	0.6952	0.3992	-0.197
Mof_C 	C 	0.0722	0.7109	0.4422	0.141
Mof_H 	H 	0.0525	0.7155	0.4558	-0.006
Mof_C 	C 	0.1082	0.7195	0.4647	-0.187
Mof_C 	C 	0.1377	0.7126	0.4444	0.134
Mof_H 	H 	0.1618	0.7184	0.4595	-0.002
Mof_C 	C 	0.1311	0.6969	0.4014	-0.202
Mof_C 	C 	0.0951	0.6882	0.3789	0.142
Mof_H 	H 	0.0907	0.6777	0.3502	-0.006
Mof_C 	C 	0.0283	0.6878	0.374	0.433
Mof_C 	C 	0.9934	0.6803	0.398	-0.546
Mof_H 	H 	0.994	0.6804	0.4289	0.274
Mof_C 	C 	0.9574	0.6726	0.376	0.701
Mof_C 	C 	0.9564	0.6724	0.3299	-0.514
Mof_C 	C 	0.9914	0.68	0.3059	0.709
Mof_C 	C 	0.0273	0.6876	0.3279	-0.552
Mof_H 	H 	0.0507	0.6926	0.3119	0.279
Mof_C 	C 	0.1146	0.7314	0.5128	0.423
Mof_C 	C 	0.1398	0.7258	0.5427	-0.539
Mof_H 	H 	0.1527	0.7109	0.5342	0.275
Mof_C 	C 	0.1457	0.7422	0.5852	0.699
Mof_C 	C 	0.1265	0.7644	0.5978	-0.516
Mof_C 	C 	0.1013	0.7701	0.568	0.709
Mof_C 	C 	0.0954	0.7537	0.5255	-0.548
Mof_H 	H 	0.0786	0.7575	0.5055	0.273
Mof_C 	C 	0.1646	0.6889	0.3799	0.479
Mof_C 	C 	0.1533	0.6586	0.3475	-0.357
Mof_H 	H 	0.1255	0.6416	0.3402	0.215
Mof_C 	C 	0.1836	0.6537	0.3258	0.547
Mof_C 	C 	0.2252	0.6792	0.3367	-0.776
Mof_C 	C 	0.2365	0.7095	0.3692	0.51
Mof_C 	C 	0.2062	0.7143	0.3908	-0.351
Mof_H 	H 	0.2137	0.7345	0.4125	0.213
Mof_C 	C 	0.9193	0.6702	0.3076	0.758
Mof_C 	C 	0.1396	0.7849	0.6423	0.8
Mof_C 	C 	0.2586	0.677	0.3111	0.991
Mof_C 	C 	0.2531	0.69782	0.7235	-0.518
Mof_H 	H 	0.244	0.6743	0.706	0.27
Mof_C 	C 	0.2315	0.71974	0.7234	0.688
Mof_C 	C 	0.08519	0.97379	0.7329	-0.557
Mof_H 	H 	0.0975	0.0006	0.7215	0.274
Mof_C 	C 	0.10696	0.95205	0.7329	0.684
Mof_O 	O 	0.2522	0.6571	0.2731	-0.576
Mof_O 	O 	0.288	0.6731	0.3311	-0.58
Mof_F 	F 	0.237	0.6594	0.4107	-0.408
Mof_F 	F 	0.2077	0.7033	0.2713	-0.412
Mof_C 	C 	0.1882	0.6759	0.4035	-0.34
Mof_H 	H 	0.1835	0.6702	0.4336	0.212
Mof_C 	C 	0.219	0.6718	0.382	0.526
Mof_C 	C 	0.2027	0.6937	0.3135	0.514
Mof_C 	C 	0.1713	0.697	0.3347	-0.34
Mof_H 	H 	0.1547	0.7045	0.3187	0.206
Mof_Zn	Zn	0.2076	0.8353	0.7067	1.119
Mof_Zn	Zn	0.1105	0.8084	0.7214	1.088
Mof_O 	O 	0.2904	0.7146	0.3044	-0.443
Mof_O 	O 	0.242	0.6363	0.3114	-0.27
Mof_O 	O 	0.9283	0.7018	0.2793	-0.371
Mof_O 	O 	0.8854	0.6325	0.315	-0.412
Mof_O 	O 	0.1076	0.7878	0.6598	-0.408
Mof_O 	O 	0.1796	0.7994	0.6544	-0.43
Mof_O 	O 	0.0907	0.8429	0.744	-0.451
Mof_O 	O 	0.2129	0.7868	0.7091	-0.403
Mof_Zn	Zn	0.22507	0.36675	0.73877	1.094
Mof_Zn	Zn	0.13965	0.29765	0.69821	1.127
Mof_Zn	Zn	0.34199	0.62298	0.21812	1.155
Mof_O 	O 	0.3567	0.2616	0.2731	-0.464
Mof_O 	O 	0.3029	0.2094	0.3196	-0.454
Mof_O 	O 	0.1761	0.3217	0.6453	-0.461
Mof_O 	O 	0.2429	0.3714	0.6757	-0.442
Mof_O 	O 	0.24322	0.4232	0.7544	-0.538
Mof_O 	O 	0.114	0.2415	0.7105	-0.466
Mof_F 	F 	0.3201	0.3115	0.2624	-0.483
Mof_F 	F 	0.3346	0.259	0.3986	-0.484
Mof_F 	F 	0.2085	0.2928	0.5821	-0.476
Mof_F 	F 	0.2633	0.4326	0.6134	-0.448
Mof_F 	F 	0.2652	0.54	0.3814	-0.404
Mof_F 	F 	0.3761	0.5442	0.2963	-0.408
Mof_F 	F 	0.2915	0.4901	0.6986	-0.447
Mof_F 	F 	0.034	0.1786	0.7175	-0.471
Mof_C 	C 	0.3048	0.3704	0.3992	-0.197
Mof_C 	C 	0.2891	0.3613	0.4422	0.141
Mof_H 	H 	0.2845	0.337	0.4558	-0.006
Mof_C 	C 	0.2805	0.3887	0.4647	-0.187
Mof_C 	C 	0.2874	0.4251	0.4444	0.134
Mof_H 	H 	0.2816	0.4434	0.4595	-0.002
Mof_C 	C 	0.3031	0.4342	0.4014	-0.202
Mof_C 	C 	0.3118	0.4069	0.3789	0.142
Mof_H 	H 	0.3223	0.413	0.3502	-0.006
Mof_C 	C 	0.3122	0.3405	0.374	0.433
Mof_C 	C 	0.3197	0.3131	0.398	-0.546
Mof_H 	H 	0.3196	0.3136	0.4289	0.274
Mof_C 	C 	0.3274	0.2848	0.376	0.701
Mof_C 	C 	0.3276	0.284	0.3299	-0.514
Mof_C 	C 	0.32	0.3114	0.3059	0.709
Mof_C 	C 	0.3124	0.3397	0.3279	-0.552
Mof_H 	H 	0.3074	0.3581	0.3119	0.279
Mof_C 	C 	0.2686	0.3832	0.5128	0.423
Mof_C 	C 	0.2742	0.414	0.5427	-0.539
Mof_H 	H 	0.2891	0.4418	0.5342	0.275
Mof_C 	C 	0.2578	0.4035	0.5852	0.699
Mof_C 	C 	0.2356	0.3621	0.5978	-0.516
Mof_C 	C 	0.2299	0.3312	0.568	0.709
Mof_C 	C 	0.2463	0.3417	0.5255	-0.548
Mof_H 	H 	0.2425	0.3211	0.5055	0.273
Mof_C 	C 	0.3111	0.4757	0.3799	0.479
Mof_C 	C 	0.3414	0.4947	0.3475	-0.357
Mof_H 	H 	0.3584	0.4839	0.3402	0.215
Mof_C 	C 	0.3463	0.5299	0.3258	0.547
Mof_C 	C 	0.3208	0.546	0.3367	-0.776
Mof_C 	C 	0.2905	0.527	0.3692	0.51
Mof_C 	C 	0.2857	0.4919	0.3908	-0.351
Mof_H 	H 	0.2655	0.4792	0.4125	0.213
Mof_C 	C 	0.3298	0.2491	0.3076	0.758
Mof_C 	C 	0.2151	0.3547	0.6423	0.8
Mof_C 	C 	0.323	0.5816	0.3111	0.991
Mof_C 	C 	0.30218	0.55528	0.7235	-0.518
Mof_H 	H 	0.3257	0.5697	0.706	0.27
Mof_C 	C 	0.28026	0.51176	0.7234	0.688
Mof_C 	C 	0.02621	0.1114	0.7329	-0.557
Mof_H 	H 	0.9994	0.0969	0.7215	0.274
Mof_C 	C 	0.04795	0.15491	0.7329	0.684
Mof_O 	O 	0.3429	0.5951	0.2731	-0.576
Mof_O 	O 	0.3269	0.6149	0.3311	-0.58
Mof_F 	F 	0.3406	0.5776	0.4107	-0.408
Mof_F 	F 	0.2967	0.5044	0.2713	-0.412
Mof_C 	C 	0.3241	0.5123	0.4035	-0.34
Mof_H 	H 	0.3298	0.5133	0.4336	0.212
Mof_C 	C 	0.3282	0.5472	0.382	0.526
Mof_C 	C 	0.3063	0.509	0.3135	0.514
Mof_C 	C 	0.303	0.4743	0.3347	-0.34
Mof_H 	H 	0.2955	0.4502	0.3187	0.206
Mof_Zn	Zn	0.1647	0.3723	0.7067	1.119
Mof_Zn	Zn	0.1916	0.3021	0.7214	1.088
Mof_O 	O 	0.2854	0.5758	0.3044	-0.443
Mof_O 	O 	0.3637	0.6057	0.3114	-0.27
Mof_O 	O 	0.2982	0.2265	0.2793	-0.371
Mof_O 	O 	0.3675	0.2529	0.315	-0.412
Mof_O 	O 	0.2122	0.3198	0.6598	-0.408
Mof_O 	O 	0.2006	0.3802	0.6544	-0.43
Mof_O 	O 	0.1571	0.2478	0.744	-0.451
Mof_O 	O 	0.2132	0.4261	0.7091	-0.403
Mof_Zn	Zn	0.14168	0.36675	0.76123	1.094
Mof_Zn	Zn	0.158	0.29765	0.80179	1.127
Mof_Zn	Zn	0.28099	0.62298	0.28188	1.155
Mof_O 	O 	0.9049	0.2616	0.2269	-0.464
Mof_O 	O 	0.9065	0.2094	0.1804	-0.454
Mof_O 	O 	0.1456	0.3217	0.8547	-0.461
Mof_O 	O 	0.1285	0.3714	0.8243	-0.442
Mof_O 	O 	0.17998	0.4232	0.7456	-0.538
Mof_O 	O 	0.1275	0.2415	0.7895	-0.466
Mof_F 	F 	0.9914	0.3115	0.2376	-0.483
Mof_F 	F 	0.9244	0.259	0.1014	-0.484
Mof_F 	F 	0.0843	0.2928	0.9179	-0.476
Mof_F 	F 	0.1693	0.4326	0.8866	-0.448
Mof_F 	F 	0.2748	0.54	0.1186	-0.404
Mof_F 	F 	0.1681	0.5442	0.2037	-0.408
Mof_F 	F 	0.1986	0.4901	0.8014	-0.447
Mof_F 	F 	0.1446	0.1786	0.7825	-0.471
Mof_C 	C 	0.0656	0.3704	0.1008	-0.197
Mof_C 	C 	0.0722	0.3613	0.0578	0.141
Mof_H 	H 	0.0525	0.337	0.0442	-0.006
Mof_C 	C 	0.1082	0.3887	0.0353	-0.187
Mof_C 	C 	0.1377	0.4251	0.0556	0.134
Mof_H 	H 	0.1618	0.4434	0.0405	-0.002
Mof_C 	C 	0.1311	0.4342	0.0986	-0.202
Mof_C 	C 	0.0951	0.4069	0.1211	0.142
Mof_H 	H 	0.0907	0.413	0.1498	-0.006
Mof_C 	C 	0.0283	0.3405	0.126	0.433
Mof_C 	C 	0.9934	0.3131	0.102	-0.546
Mof_H 	H 	0.994	0.3136	0.0711	0.274
Mof_C 	C 	0.9574	0.2848	0.124	0.701
Mof_C 	C 	0.9564	0.284	0.1701	-0.514
Mof_C 	C 	0.9914	0.3114	0.1941	0.709
Mof_C 	C 	0.0273	0.3397	0.1721	-0.552
Mof_H 	H 	0.0507	0.3581	0.1881	0.279
Mof_C 	C 	0.1146	0.3832	0.9872	0.423
Mof_C 	C 	0.1398	0.414	0.9573	-0.539
Mof_H 	H 	0.1527	0.4418	0.9658	0.275
Mof_C 	C 	0.1457	0.4035	0.9148	0.699
Mof_C 	C 	0.1265	0.3621	0.9022	-0.516
Mof_C 	C 	0.1013	0.3312	0.932	0.709
Mof_C 	C 	0.0954	0.3417	0.9745	-0.548
Mof_H 	H 	0.0786	0.3211	0.9945	0.273
Mof_C 	C 	0.1646	0.4757	0.1201	0.479
Mof_C 	C 	0.1533	0.4947	0.1525	-0.357
Mof_H 	H 	0.1255	0.4839	0.1598	0.215
Mof_C 	C 	0.1836	0.5299	0.1742	0.547
Mof_C 	C 	0.2252	0.546	0.1633	-0.776
Mof_C 	C 	0.2365	0.527	0.1308	0.51
Mof_C 	C 	0.2062	0.4919	0.1092	-0.351
Mof_H 	H 	0.2137	0.4792	0.0875	0.213
Mof_C 	C 	0.9193	0.2491	0.1924	0.758
Mof_C 	C 	0.1396	0.3547	0.8577	0.8
Mof_C 	C 	0.2586	0.5816	0.1889	0.991
Mof_C 	C 	0.2531	0.55528	0.7765	-0.518
Mof_H 	H 	0.244	0.5697	0.794	0.27
Mof_C 	C 	0.2315	0.51176	0.7766	0.688
Mof_C 	C 	0.08519	0.1114	0.7671	-0.557
Mof_H 	H 	0.0975	0.0969	0.7785	0.274
Mof_C 	C 	0.10696	0.15491	0.7671	0.684
Mof_O 	O 	0.2522	0.5951	0.2269	-0.576
Mof_O 	O 	0.288	0.6149	0.1689	-0.58
Mof_F 	F 	0.237	0.5776	0.0893	-0.408
Mof_F 	F 	0.2077	0.5044	0.2287	-0.412
Mof_C 	C 	0.1882	0.5123	0.0965	-0.34
Mof_H 	H 	0.1835	0.5133	0.0664	0.212
Mof_C 	C 	0.219	0.5472	0.118	0.526
Mof_C 	C 	0.2027	0.509	0.1865	0.514
Mof_C 	C 	0.1713	0.4743	0.1653	-0.34
Mof_H 	H 	0.1547	0.4502	0.1813	0.206
Mof_Zn	Zn	0.2076	0.3723	0.7933	1.119
Mof_Zn	Zn	0.1105	0.3021	0.7786	1.088
Mof_O 	O 	0.2904	0.5758	0.1956	-0.443
Mof_O 	O 	0.242	0.6057	0.1886	-0.27
Mof_O 	O 	0.9283	0.2265	0.2207	-0.371
Mof_O 	O 	0.8854	0.2529	0.185	-0.412
Mof_O 	O 	0.1076	0.3198	0.8402	-0.408
Mof_O 	O 	0.1796	0.3802	0.8456	-0.43
Mof_O 	O 	0.0907	0.2478	0.756	-0.451
Mof_O 	O 	0.2129	0.4261	0.7909	-0.403
Mof_Zn	Zn	0.22507	0.85832	0.76123	1.094
Mof_Zn	Zn	0.13965	0.842	0.80179	1.127
Mof_Zn	Zn	0.34199	0.71901	0.28188	1.155
Mof_O 	O 	0.3567	0.0951	0.2269	-0.464
Mof_O 	O 	0.3029	0.0935	0.1804	-0.454
Mof_O 	O 	0.1761	0.8544	0.8547	-0.461
Mof_O 	O 	0.2429	0.8715	0.8243	-0.442
Mof_O 	O 	0.24322	0.82002	0.7456	-0.538
Mof_O 	O 	0.114	0.8725	0.7895	-0.466
Mof_F 	F 	0.3201	0.0086	0.2376	-0.483
Mof_F 	F 	0.3346	0.0756	0.1014	-0.484
Mof_F 	F 	0.2085	0.9157	0.9179	-0.476
Mof_F 	F 	0.2633	0.8307	0.8866	-0.448
Mof_F 	F 	0.2652	0.7252	0.1186	-0.404
Mof_F 	F 	0.3761	0.8319	0.2037	-0.408
Mof_F 	F 	0.2915	0.8014	0.8014	-0.447
Mof_F 	F 	0.034	0.8554	0.7825	-0.471
Mof_C 	C 	0.3048	0.9344	0.1008	-0.197
Mof_C 	C 	0.2891	0.9278	0.0578	0.141
Mof_H 	H 	0.2845	0.9475	0.0442	-0.006
Mof_C 	C 	0.2805	0.8918	0.0353	-0.187
Mof_C 	C 	0.2874	0.8623	0.0556	0.134
Mof_H 	H 	0.2816	0.8382	0.0405	-0.002
Mof_C 	C 	0.3031	0.8689	0.0986	-0.203
Mof_C 	C 	0.3118	0.9049	0.1211	0.142
Mof_H 	H 	0.3223	0.9093	0.1498	-0.006
Mof_C 	C 	0.3122	0.9717	0.126	0.433
Mof_C 	C 	0.3197	0.0066	0.102	-0.546
Mof_H 	H 	0.3196	0.006	0.0711	0.274
Mof_C 	C 	0.3274	0.0426	0.124	0.701
Mof_C 	C 	0.3276	0.0436	0.1701	-0.514
Mof_C 	C 	0.32	0.0086	0.1941	0.709
Mof_C 	C 	0.3124	0.9727	0.1721	-0.552
Mof_H 	H 	0.3074	0.9493	0.1881	0.279
Mof_C 	C 	0.2686	0.8854	0.9872	0.423
Mof_C 	C 	0.2742	0.8602	0.9573	-0.539
Mof_H 	H 	0.2891	0.8473	0.9658	0.275
Mof_C 	C 	0.2578	0.8543	0.9148	0.699
Mof_C 	C 	0.2356	0.8735	0.9022	-0.516
Mof_C 	C 	0.2299	0.8987	0.932	0.709
Mof_C 	C 	0.2463	0.9046	0.9745	-0.548
Mof_H 	H 	0.2425	0.9214	0.9945	0.273
Mof_C 	C 	0.3111	0.8354	0.1201	0.479
Mof_C 	C 	0.3414	0.8467	0.1525	-0.357
Mof_H 	H 	0.3584	0.8745	0.1598	0.215
Mof_C 	C 	0.3463	0.8164	0.1742	0.547
Mof_C 	C 	0.3208	0.7748	0.1633	-0.776
Mof_C 	C 	0.2905	0.7635	0.1308	0.51
Mof_C 	C 	0.2857	0.7938	0.1092	-0.351
Mof_H 	H 	0.2655	0.7863	0.0875	0.213
Mof_C 	C 	0.3298	0.0807	0.1924	0.758
Mof_C 	C 	0.2151	0.8604	0.8577	0.8
Mof_C 	C 	0.323	0.7414	0.1889	0.991
Mof_C 	C 	0.30218	0.7469	0.7765	-0.518
Mof_H 	H 	0.3257	0.756	0.794	0.27
Mof_C 	C 	0.28026	0.7685	0.7766	0.688
Mof_C 	C 	0.02621	0.91481	0.7671	-0.557
Mof_H 	H 	0.9994	0.9025	0.7785	0.274
Mof_C 	C 	0.04795	0.89304	0.7671	0.684
Mof_O 	O 	0.3429	0.7478	0.2269	-0.576
Mof_O 	O 	0.3269	0.712	0.1689	-0.58
Mof_F 	F 	0.3406	0.763	0.0893	-0.408
Mof_F 	F 	0.2967	0.7923	0.2287	-0.412
Mof_C 	C 	0.3241	0.8118	0.0965	-0.34
Mof_H 	H 	0.3298	0.8165	0.0664	0.212
Mof_C 	C 	0.3282	0.781	0.118	0.526
Mof_C 	C 	0.3063	0.7973	0.1865	0.514
Mof_C 	C 	0.303	0.8287	0.1653	-0.34
Mof_H 	H 	0.2955	0.8453	0.1813	0.206
Mof_Zn	Zn	0.1647	0.7924	0.7933	1.119
Mof_Zn	Zn	0.1916	0.8895	0.7786	1.088
Mof_O 	O 	0.2854	0.7096	0.1956	-0.443
Mof_O 	O 	0.3637	0.758	0.1886	-0.27
Mof_O 	O 	0.2982	0.0717	0.2207	-0.371
Mof_O 	O 	0.3675	0.1146	0.185	-0.412
Mof_O 	O 	0.2122	0.8924	0.8402	-0.408
Mof_O 	O 	0.2006	0.8204	0.8456	-0.43
Mof_O 	O 	0.1571	0.9093	0.756	-0.451
Mof_O 	O 	0.2132	0.7871	0.7909	-0.403
Mof_Zn	Zn	0.63325	0.77493	0.76123	1.094
Mof_Zn	Zn	0.70235	0.86035	0.80179	1.127
Mof_Zn	Zn	0.37702	0.65801	0.28188	1.155
Mof_O 	O 	0.7384	0.6433	0.2269	-0.464
Mof_O 	O 	0.7906	0.6971	0.1804	-0.454
Mof_O 	O 	0.6783	0.8239	0.8547	-0.461
Mof_O 	O 	0.6286	0.7571	0.8243	-0.442
Mof_O 	O 	0.5768	0.75678	0.7456	-0.538
Mof_O 	O 	0.7585	0.886	0.7895	-0.466
Mof_F 	F 	0.6885	0.6799	0.2376	-0.483
Mof_F 	F 	0.741	0.6654	0.1014	-0.484
Mof_F 	F 	0.7072	0.7915	0.9179	-0.476
Mof_F 	F 	0.5674	0.7367	0.8866	-0.448
Mof_F 	F 	0.46	0.7348	0.1186	-0.404
Mof_F 	F 	0.4558	0.6239	0.2037	-0.408
Mof_F 	F 	0.5099	0.7085	0.8014	-0.447
Mof_F 	F 	0.8214	0.966	0.7825	-0.471
Mof_C 	C 	0.6296	0.6952	0.1008	-0.197
Mof_C 	C 	0.6387	0.7109	0.0578	0.141
Mof_H 	H 	0.663	0.7155	0.0442	-0.006
Mof_C 	C 	0.6113	0.7195	0.0353	-0.187
Mof_C 	C 	0.5749	0.7126	0.0556	0.134
Mof_H 	H 	0.5566	0.7184	0.0405	-0.002
Mof_C 	C 	0.5658	0.6969	0.0986	-0.202
Mof_C 	C 	0.5931	0.6882	0.1211	0.142
Mof_H 	H 	0.587	0.6777	0.1498	-0.006
Mof_C 	C 	0.6595	0.6878	0.126	0.433
Mof_C 	C 	0.6869	0.6803	0.102	-0.546
Mof_H 	H 	0.6864	0.6804	0.0711	0.274
Mof_C 	C 	0.7152	0.6726	0.124	0.701
Mof_C 	C 	0.716	0.6724	0.1701	-0.514
Mof_C 	C 	0.6886	0.68	0.1941	0.709
Mof_C 	C 	0.6603	0.6876	0.1721	-0.552
Mof_H 	H 	0.6419	0.6926	0.1881	0.279
Mof_C 	C 	0.6168	0.7314	0.9872	0.423
Mof_C 	C 	0.586	0.7258	0.9573	-0.539
Mof_H 	H 	0.5582	0.7109	0.9658	0.275
Mof_C 	C 	0.5965	0.7422	0.9148	0.699
Mof_C 	C 	0.6379	0.7644	0.9022	-0.516
Mof_C 	C 	0.6688	0.7701	0.932	0.709
Mof_C 	C 	0.6583	0.7537	0.9745	-0.548
Mof_H 	H 	0.6789	0.7575	0.9945	0.273
Mof_C 	C 	0.5243	0.6889	0.1201	0.479
Mof_C 	C 	0.5053	0.6586	0.1525	-0.357
Mof_H 	H 	0.5161	0.6416	0.1598	0.215
Mof_C 	C 	0.4701	0.6537	0.1742	0.547
Mof_C 	C 	0.454	0.6792	0.1633	-0.776
Mof_C 	C 	0.473	0.7095	0.1308	0.51
Mof_C 	C 	0.5081	0.7143	0.1092	-0.351
Mof_H 	H 	0.5208	0.7345	0.0875	0.213
Mof_C 	C 	0.7509	0.6702	0.1924	0.758
Mof_C 	C 	0.6453	0.7849	0.8577	0.8
Mof_C 	C 	0.4184	0.677	0.1889	0.991
Mof_C 	C 	0.44472	0.69782	0.7765	-0.518
Mof_H 	H 	0.4303	0.6743	0.794	0.27
Mof_C 	C 	0.48824	0.71974	0.7766	0.688
Mof_C 	C 	0.8886	0.97379	0.7671	-0.557
Mof_H 	H 	0.9031	0.0006	0.7785	0.274
Mof_C 	C 	0.84509	0.95205	0.7671	0.684
Mof_O 	O 	0.4049	0.6571	0.2269	-0.576
Mof_O 	O 	0.3851	0.6731	0.1689	-0.58
Mof_F 	F 	0.4224	0.6594	0.0893	-0.408
Mof_F 	F 	0.4956	0.7033	0.2287	-0.412
Mof_C 	C 	0.4877	0.6759	0.0965	-0.34
Mof_H 	H 	0.4867	0.6702	0.0664	0.212
Mof_C 	C 	0.4528	0.6718	0.118	0.526
Mof_C 	C 	0.491	0.6937	0.1865	0.514
Mof_C 	C 	0.5257	0.697	0.1653	-0.34
Mof_H 	H 	0.5498	0.7045	0.1813	0.206
Mof_Zn	Zn	0.6277	0.8353	0.7933	1.119
Mof_Zn	Zn	0.6979	0.8084	0.7786	1.088
Mof_O 	O 	0.4242	0.7146	0.1956	-0.443
Mof_O 	O 	0.3943	0.6363	0.1886	-0.27
Mof_O 	O 	0.7735	0.7018	0.2207	-0.371
Mof_O 	O 	0.7471	0.6325	0.185	-0.412
Mof_O 	O 	0.6802	0.7878	0.8402	-0.408
Mof_O 	O 	0.6198	0.7994	0.8456	-0.43
Mof_O 	O 	0.7522	0.8429	0.756	-0.451
Mof_O 	O 	0.5739	0.7868	0.7909	-0.403
Mof_Zn	Zn	0.36675	0.14168	0.26123	1.094
Mof_Zn	Zn	0.29765	0.158	0.30179	1.127
Mof_Zn	Zn	0.62298	0.28099	0.78188	1.155
Mof_O 	O 	0.2616	0.9049	0.7269	-0.464
Mof_O 	O 	0.2094	0.9065	0.6804	-0.454
Mof_O 	O 	0.3217	0.1456	0.3547	-0.461
Mof_O 	O 	0.3714	0.1285	0.3243	-0.442
Mof_O 	O 	0.4232	0.17998	0.2456	-0.538
Mof_O 	O 	0.2415	0.1275	0.2895	-0.466
Mof_F 	F 	0.3115	0.9914	0.7376	-0.483
Mof_F 	F 	0.259	0.9244	0.6014	-0.484
Mof_F 	F 	0.2928	0.0843	0.4179	-0.476
Mof_F 	F 	0.4326	0.1693	0.3866	-0.448
Mof_F 	F 	0.54	0.2748	0.6186	-0.404
Mof_F 	F 	0.5442	0.1681	0.7037	-0.408
Mof_F 	F 	0.4901	0.1986	0.3014	-0.447
Mof_F 	F 	0.1786	0.1446	0.2825	-0.471
Mof_C 	C 	0.3704	0.0656	0.6008	-0.197
Mof_C 	C 	0.3613	0.0722	0.5578	0.141
Mof_H 	H 	0.337	0.0525	0.5442	-0.006
Mof_C 	C 	0.3887	0.1082	0.5353	-0.187
Mof_C 	C 	0.4251	0.1377	0.5556	0.134
Mof_H 	H 	0.4434	0.1618	0.5405	-0.002
Mof_C 	C 	0.4342	0.1311	0.5986	-0.202
Mof_C 	C 	0.4069	0.0951	0.6211	0.142
Mof_H 	H 	0.413	0.0907	0.6498	-0.006
Mof_C 	C 	0.3405	0.0283	0.626	0.433
Mof_C 	C 	0.3131	0.9934	0.602	-0.546
Mof_H 	H 	0.3136	0.994	0.5711	0.274
Mof_C 	C 	0.2848	0.9574	0.624	0.701
Mof_C 	C 	0.284	0.9564	0.6701	-0.514
Mof_C 	C 	0.3114	0.9914	0.6941	0.709
Mof_C 	C 	0.3397	0.0273	0.6721	-0.552
Mof_H 	H 	0.3581	0.0507	0.6881	0.279
Mof_C 	C 	0.3832	0.1146	0.4872	0.423
Mof_C 	C 	0.414	0.1398	0.4573	-0.539
Mof_H 	H 	0.4418	0.1527	0.4658	0.275
Mof_C 	C 	0.4035	0.1457	0.4148	0.699
Mof_C 	C 	0.3621	0.1265	0.4022	-0.516
Mof_C 	C 	0.3312	0.1013	0.432	0.709
Mof_C 	C 	0.3417	0.0954	0.4745	-0.548
Mof_H 	H 	0.3211	0.0786	0.4945	0.273
Mof_C 	C 	0.4757	0.1646	0.6201	0.479
Mof_C 	C 	0.4947	0.1533	0.6525	-0.357
Mof_H 	H 	0.4839	0.1255	0.6598	0.215
Mof_C 	C 	0.5299	0.1836	0.6742	0.547
Mof_C 	C 	0.546	0.2252	0.6633	-0.776
Mof_C 	C 	0.527	0.2365	0.6308	0.51
Mof_C 	C 	0.4919	0.2062	0.6092	-0.351
Mof_H 	H 	0.4792	0.2137	0.5875	0.213
Mof_C 	C 	0.2491	0.9193	0.6924	0.758
Mof_C 	C 	0.3547	0.1396	0.3577	0.8
Mof_C 	C 	0.5816	0.2586	0.6889	0.991
Mof_C 	C 	0.55528	0.2531	0.2765	-0.518
Mof_H 	H 	0.5697	0.244	0.294	0.27
Mof_C 	C 	0.51176	0.2315	0.2766	0.688
Mof_C 	C 	0.1114	0.08519	0.2671	-0.557
Mof_H 	H 	0.0969	0.0975	0.2785	0.274
Mof_C 	C 	0.15491	0.10696	0.2671	0.684
Mof_O 	O 	0.5951	0.2522	0.7269	-0.576
Mof_O 	O 	0.6149	0.288	0.6689	-0.58
Mof_F 	F 	0.5776	0.237	0.5893	-0.408
Mof_F 	F 	0.5044	0.2077	0.7287	-0.412
Mof_C 	C 	0.5123	0.1882	0.5965	-0.34
Mof_H 	H 	0.5133	0.1835	0.5664	0.212
Mof_C 	C 	0.5472	0.219	0.618	0.526
Mof_C 	C 	0.509	0.2027	0.6865	0.514
Mof_C 	C 	0.4743	0.1713	0.6653	-0.34
Mof_H 	H 	0.4502	0.1547	0.6813	0.206
Mof_Zn	Zn	0.3723	0.2076	0.2933	1.119
Mof_Zn	Zn	0.3021	0.1105	0.2786	1.088
Mof_O 	O 	0.5758	0.2904	0.6956	-0.443
Mof_O 	O 	0.6057	0.242	0.6886	-0.27
Mof_O 	O 	0.2265	0.9283	0.7207	-0.371
Mof_O 	O 	0.2529	0.8854	0.685	-0.412
Mof_O 	O 	0.3198	0.1076	0.3402	-0.408
Mof_O 	O 	0.3802	0.1796	0.3456	-0.43
Mof_O 	O 	0.2478	0.0907	0.256	-0.451
Mof_O 	O 	0.4261	0.2129	0.2909	-0.403
Mof_Zn	Zn	0.85832	0.22507	0.26123	1.094
Mof_Zn	Zn	0.842	0.13965	0.30179	1.127
Mof_Zn	Zn	0.71901	0.34199	0.78188	1.155
Mof_O 	O 	0.0951	0.3567	0.7269	-0.464
Mof_O 	O 	0.0935	0.3029	0.6804	-0.454
Mof_O 	O 	0.8544	0.1761	0.3547	-0.461
Mof_O 	O 	0.8715	0.2429	0.3243	-0.442
Mof_O 	O 	0.82002	0.24322	0.2456	-0.538
Mof_O 	O 	0.8725	0.114	0.2895	-0.466
Mof_F 	F 	0.0086	0.3201	0.7376	-0.483
Mof_F 	F 	0.0756	0.3346	0.6014	-0.484
Mof_F 	F 	0.9157	0.2085	0.4179	-0.476
Mof_F 	F 	0.8307	0.2633	0.3866	-0.448
Mof_F 	F 	0.7252	0.2652	0.6186	-0.404
Mof_F 	F 	0.8319	0.3761	0.7037	-0.408
Mof_F 	F 	0.8014	0.2915	0.3014	-0.447
Mof_F 	F 	0.8554	0.034	0.2825	-0.471
Mof_C 	C 	0.9344	0.3048	0.6008	-0.197
Mof_C 	C 	0.9278	0.2891	0.5578	0.141
Mof_H 	H 	0.9475	0.2845	0.5442	-0.006
Mof_C 	C 	0.8918	0.2805	0.5353	-0.187
Mof_C 	C 	0.8623	0.2874	0.5556	0.134
Mof_H 	H 	0.8382	0.2816	0.5405	-0.002
Mof_C 	C 	0.8689	0.3031	0.5986	-0.202
Mof_C 	C 	0.9049	0.3118	0.6211	0.142
Mof_H 	H 	0.9093	0.3223	0.6498	-0.006
Mof_C 	C 	0.9717	0.3122	0.626	0.433
Mof_C 	C 	0.0066	0.3197	0.602	-0.546
Mof_H 	H 	0.006	0.3196	0.5711	0.274
Mof_C 	C 	0.0426	0.3274	0.624	0.701
Mof_C 	C 	0.0436	0.3276	0.6701	-0.514
Mof_C 	C 	0.0086	0.32	0.6941	0.709
Mof_C 	C 	0.9727	0.3124	0.6721	-0.552
Mof_H 	H 	0.9493	0.3074	0.6881	0.279
Mof_C 	C 	0.8854	0.2686	0.4872	0.423
Mof_C 	C 	0.8602	0.2742	0.4573	-0.539
Mof_H 	H 	0.8473	0.2891	0.4658	0.275
Mof_C 	C 	0.8543	0.2578	0.4148	0.699
Mof_C 	C 	0.8735	0.2356	0.4022	-0.516
Mof_C 	C 	0.8987	0.2299	0.432	0.709
Mof_C 	C 	0.9046	0.2463	0.4745	-0.548
Mof_H 	H 	0.9214	0.2425	0.4945	0.273
Mof_C 	C 	0.8354	0.3111	0.6201	0.479
Mof_C 	C 	0.8467	0.3414	0.6525	-0.357
Mof_H 	H 	0.8745	0.3584	0.6598	0.215
Mof_C 	C 	0.8164	0.3463	0.6742	0.547
Mof_C 	C 	0.7748	0.3208	0.6633	-0.776
Mof_C 	C 	0.7635	0.2905	0.6308	0.51
Mof_C 	C 	0.7938	0.2857	0.6092	-0.351
Mof_H 	H 	0.7863	0.2655	0.5875	0.213
Mof_C 	C 	0.0807	0.3298	0.6924	0.758
Mof_C 	C 	0.8604	0.2151	0.3577	0.8
Mof_C 	C 	0.7414	0.323	0.6889	0.991
Mof_C 	C 	0.7469	0.30218	0.2765	-0.518
Mof_H 	H 	0.756	0.3257	0.294	0.27
Mof_C 	C 	0.7685	0.28026	0.2766	0.688
Mof_C 	C 	0.91481	0.02621	0.2671	-0.557
Mof_H 	H 	0.9025	0.9994	0.2785	0.274
Mof_C 	C 	0.89304	0.04795	0.2671	0.684
Mof_O 	O 	0.7478	0.3429	0.7269	-0.576
Mof_O 	O 	0.712	0.3269	0.6689	-0.58
Mof_F 	F 	0.763	0.3406	0.5893	-0.408
Mof_F 	F 	0.7923	0.2967	0.7287	-0.412
Mof_C 	C 	0.8118	0.3241	0.5965	-0.34
Mof_H 	H 	0.8165	0.3298	0.5664	0.212
Mof_C 	C 	0.781	0.3282	0.618	0.526
Mof_C 	C 	0.7973	0.3063	0.6865	0.514
Mof_C 	C 	0.8287	0.303	0.6653	-0.34
Mof_H 	H 	0.8453	0.2955	0.6813	0.206
Mof_Zn	Zn	0.7924	0.1647	0.2933	1.119
Mof_Zn	Zn	0.8895	0.1916	0.2786	1.088
Mof_O 	O 	0.7096	0.2854	0.6956	-0.443
Mof_O 	O 	0.758	0.3637	0.6886	-0.27
Mof_O 	O 	0.0717	0.2982	0.7207	-0.371
Mof_O 	O 	0.1146	0.3675	0.685	-0.412
Mof_O 	O 	0.8924	0.2122	0.3402	-0.408
Mof_O 	O 	0.8204	0.2006	0.3456	-0.43
Mof_O 	O 	0.9093	0.1571	0.256	-0.451
Mof_O 	O 	0.7871	0.2132	0.2909	-0.403
Mof_Zn	Zn	0.77493	0.63325	0.26123	1.094
Mof_Zn	Zn	0.86035	0.70235	0.30179	1.127
Mof_Zn	Zn	0.65801	0.37702	0.78188	1.155
Mof_O 	O 	0.6433	0.7384	0.7269	-0.464
Mof_O 	O 	0.6971	0.7906	0.6804	-0.454
Mof_O 	O 	0.8239	0.6783	0.3547	-0.461
Mof_O 	O 	0.7571	0.6286	0.3243	-0.442
Mof_O 	O 	0.75678	0.5768	0.2456	-0.538
Mof_O 	O 	0.886	0.7585	0.2895	-0.466
Mof_F 	F 	0.6799	0.6885	0.7376	-0.483
Mof_F 	F 	0.6654	0.741	0.6014	-0.484
Mof_F 	F 	0.7915	0.7072	0.4179	-0.476
Mof_F 	F 	0.7367	0.5674	0.3866	-0.448
Mof_F 	F 	0.7348	0.46	0.6186	-0.404
Mof_F 	F 	0.6239	0.4558	0.7037	-0.408
Mof_F 	F 	0.7085	0.5099	0.3014	-0.447
Mof_F 	F 	0.966	0.8214	0.2825	-0.471
Mof_C 	C 	0.6952	0.6296	0.6008	-0.197
Mof_C 	C 	0.7109	0.6387	0.5578	0.141
Mof_H 	H 	0.7155	0.663	0.5442	-0.006
Mof_C 	C 	0.7195	0.6113	0.5353	-0.187
Mof_C 	C 	0.7126	0.5749	0.5556	0.134
Mof_H 	H 	0.7184	0.5566	0.5405	-0.002
Mof_C 	C 	0.6969	0.5658	0.5986	-0.202
Mof_C 	C 	0.6882	0.5931	0.6211	0.142
Mof_H 	H 	0.6777	0.587	0.6498	-0.006
Mof_C 	C 	0.6878	0.6595	0.626	0.433
Mof_C 	C 	0.6803	0.6869	0.602	-0.546
Mof_H 	H 	0.6804	0.6864	0.5711	0.274
Mof_C 	C 	0.6726	0.7152	0.624	0.701
Mof_C 	C 	0.6724	0.716	0.6701	-0.514
Mof_C 	C 	0.68	0.6886	0.6941	0.709
Mof_C 	C 	0.6876	0.6603	0.6721	-0.552
Mof_H 	H 	0.6926	0.6419	0.6881	0.279
Mof_C 	C 	0.7314	0.6168	0.4872	0.423
Mof_C 	C 	0.7258	0.586	0.4573	-0.539
Mof_H 	H 	0.7109	0.5582	0.4658	0.275
Mof_C 	C 	0.7422	0.5965	0.4148	0.699
Mof_C 	C 	0.7644	0.6379	0.4022	-0.516
Mof_C 	C 	0.7701	0.6688	0.432	0.709
Mof_C 	C 	0.7537	0.6583	0.4745	-0.548
Mof_H 	H 	0.7575	0.6789	0.4945	0.273
Mof_C 	C 	0.6889	0.5243	0.6201	0.479
Mof_C 	C 	0.6586	0.5053	0.6525	-0.357
Mof_H 	H 	0.6416	0.5161	0.6598	0.215
Mof_C 	C 	0.6537	0.4701	0.6742	0.547
Mof_C 	C 	0.6792	0.454	0.6633	-0.776
Mof_C 	C 	0.7095	0.473	0.6308	0.51
Mof_C 	C 	0.7143	0.5081	0.6092	-0.351
Mof_H 	H 	0.7345	0.5208	0.5875	0.213
Mof_C 	C 	0.6702	0.7509	0.6924	0.758
Mof_C 	C 	0.7849	0.6453	0.3577	0.8
Mof_C 	C 	0.677	0.4184	0.6889	0.991
Mof_C 	C 	0.69782	0.44472	0.2765	-0.518
Mof_H 	H 	0.6743	0.4303	0.294	0.27
Mof_C 	C 	0.71974	0.48824	0.2766	0.688
Mof_C 	C 	0.97379	0.8886	0.2671	-0.557
Mof_H 	H 	0.0006	0.9031	0.2785	0.274
Mof_C 	C 	0.95205	0.84509	0.2671	0.684
Mof_O 	O 	0.6571	0.4049	0.7269	-0.576
Mof_O 	O 	0.6731	0.3851	0.6689	-0.58
Mof_F 	F 	0.6594	0.4224	0.5893	-0.408
Mof_F 	F 	0.7033	0.4956	0.7287	-0.412
Mof_C 	C 	0.6759	0.4877	0.5965	-0.34
Mof_H 	H 	0.6702	0.4867	0.5664	0.212
Mof_C 	C 	0.6718	0.4528	0.618	0.526
Mof_C 	C 	0.6937	0.491	0.6865	0.514
Mof_C 	C 	0.697	0.5257	0.6653	-0.34
Mof_H 	H 	0.7045	0.5498	0.6813	0.206
Mof_Zn	Zn	0.8353	0.6277	0.2933	1.119
Mof_Zn	Zn	0.8084	0.6979	0.2786	1.088
Mof_O 	O 	0.7146	0.4242	0.6956	-0.443
Mof_O 	O 	0.6363	0.3943	0.6886	-0.27
Mof_O 	O 	0.7018	0.7735	0.7207	-0.371
Mof_O 	O 	0.6325	0.7471	0.685	-0.412
Mof_O 	O 	0.7878	0.6802	0.3402	-0.408
Mof_O 	O 	0.7994	0.6198	0.3456	-0.43
Mof_O 	O 	0.8429	0.7522	0.256	-0.451
Mof_O 	O 	0.7868	0.5739	0.2909	-0.403
Mof_Zn	Zn	0.85832	0.63325	0.23877	1.094
Mof_Zn	Zn	0.842	0.70235	0.19821	1.127
Mof_Zn	Zn	0.71901	0.37702	0.71812	1.155
Mof_O 	O 	0.0951	0.7384	0.7731	-0.464
Mof_O 	O 	0.0935	0.7906	0.8196	-0.454
Mof_O 	O 	0.8544	0.6783	0.1453	-0.461
Mof_O 	O 	0.8715	0.6286	0.1757	-0.442
Mof_O 	O 	0.82002	0.5768	0.2544	-0.538
Mof_O 	O 	0.8725	0.7585	0.2105	-0.466
Mof_F 	F 	0.0086	0.6885	0.7624	-0.483
Mof_F 	F 	0.0756	0.741	0.8986	-0.484
Mof_F 	F 	0.9157	0.7072	0.0821	-0.476
Mof_F 	F 	0.8307	0.5674	0.1134	-0.448
Mof_F 	F 	0.7252	0.46	0.8814	-0.404
Mof_F 	F 	0.8319	0.4558	0.7963	-0.408
Mof_F 	F 	0.8014	0.5099	0.1986	-0.447
Mof_F 	F 	0.8554	0.8214	0.2175	-0.471
Mof_C 	C 	0.9344	0.6296	0.8992	-0.197
Mof_C 	C 	0.9278	0.6387	0.9422	0.141
Mof_H 	H 	0.9475	0.663	0.9558	-0.006
Mof_C 	C 	0.8918	0.6113	0.9647	-0.187
Mof_C 	C 	0.8623	0.5749	0.9444	0.134
Mof_H 	H 	0.8382	0.5566	0.9595	-0.002
Mof_C 	C 	0.8689	0.5658	0.9014	-0.202
Mof_C 	C 	0.9049	0.5931	0.8789	0.142
Mof_H 	H 	0.9093	0.587	0.8502	-0.006
Mof_C 	C 	0.9717	0.6595	0.874	0.433
Mof_C 	C 	0.0066	0.6869	0.898	-0.546
Mof_H 	H 	0.006	0.6864	0.9289	0.274
Mof_C 	C 	0.0426	0.7152	0.876	0.701
Mof_C 	C 	0.0436	0.716	0.8299	-0.514
Mof_C 	C 	0.0086	0.6886	0.8059	0.709
Mof_C 	C 	0.9727	0.6603	0.8279	-0.552
Mof_H 	H 	0.9493	0.6419	0.8119	0.279
Mof_C 	C 	0.8854	0.6168	0.0128	0.423
Mof_C 	C 	0.8602	0.586	0.0427	-0.539
Mof_H 	H 	0.8473	0.5582	0.0342	0.275
Mof_C 	C 	0.8543	0.5965	0.0852	0.699
Mof_C 	C 	0.8735	0.6379	0.0978	-0.516
Mof_C 	C 	0.8987	0.6688	0.068	0.709
Mof_C 	C 	0.9046	0.6583	0.0255	-0.548
Mof_H 	H 	0.9214	0.6789	0.0055	0.273
Mof_C 	C 	0.8354	0.5243	0.8799	0.479
Mof_C 	C 	0.8467	0.5053	0.8475	-0.357
Mof_H 	H 	0.8745	0.5161	0.8402	0.215
Mof_C 	C 	0.8164	0.4701	0.8258	0.547
Mof_C 	C 	0.7748	0.454	0.8367	-0.776
Mof_C 	C 	0.7635	0.473	0.8692	0.51
Mof_C 	C 	0.7938	0.5081	0.8908	-0.351
Mof_H 	H 	0.7863	0.5208	0.9125	0.213
Mof_C 	C 	0.0807	0.7509	0.8076	0.758
Mof_C 	C 	0.8604	0.6453	0.1423	0.8
Mof_C 	C 	0.7414	0.4184	0.8111	0.991
Mof_C 	C 	0.7469	0.44472	0.2235	-0.518
Mof_H 	H 	0.756	0.4303	0.206	0.27
Mof_C 	C 	0.7685	0.48824	0.2234	0.688
Mof_C 	C 	0.91481	0.8886	0.2329	-0.557
Mof_H 	H 	0.9025	0.9031	0.2215	0.274
Mof_C 	C 	0.89304	0.84509	0.2329	0.684
Mof_O 	O 	0.7478	0.4049	0.7731	-0.576
Mof_O 	O 	0.712	0.3851	0.8311	-0.58
Mof_F 	F 	0.763	0.4224	0.9107	-0.408
Mof_F 	F 	0.7923	0.4956	0.7713	-0.412
Mof_C 	C 	0.8118	0.4877	0.9035	-0.34
Mof_H 	H 	0.8165	0.4867	0.9336	0.212
Mof_C 	C 	0.781	0.4528	0.882	0.526
Mof_C 	C 	0.7973	0.491	0.8135	0.514
Mof_C 	C 	0.8287	0.5257	0.8347	-0.34
Mof_H 	H 	0.8453	0.5498	0.8187	0.206
Mof_Zn	Zn	0.7924	0.6277	0.2067	1.119
Mof_Zn	Zn	0.8895	0.6979	0.2214	1.088
Mof_O 	O 	0.7096	0.4242	0.8044	-0.443
Mof_O 	O 	0.758	0.3943	0.8114	-0.27
Mof_O 	O 	0.0717	0.7735	0.7793	-0.371
Mof_O 	O 	0.1146	0.7471	0.815	-0.412
Mof_O 	O 	0.8924	0.6802	0.1598	-0.408
Mof_O 	O 	0.8204	0.6198	0.1544	-0.43
Mof_O 	O 	0.9093	0.7522	0.244	-0.451
Mof_O 	O 	0.7871	0.5739	0.2091	-0.403
Mof_Zn	Zn	0.77493	0.14168	0.23877	1.094
Mof_Zn	Zn	0.86035	0.158	0.19821	1.127
Mof_Zn	Zn	0.65801	0.28099	0.71812	1.155
Mof_O 	O 	0.6433	0.9049	0.7731	-0.464
Mof_O 	O 	0.6971	0.9065	0.8196	-0.454
Mof_O 	O 	0.8239	0.1456	0.1453	-0.461
Mof_O 	O 	0.7571	0.1285	0.1757	-0.442
Mof_O 	O 	0.75678	0.17998	0.2544	-0.538
Mof_O 	O 	0.886	0.1275	0.2105	-0.466
Mof_F 	F 	0.6799	0.9914	0.7624	-0.483
Mof_F 	F 	0.6654	0.9244	0.8986	-0.484
Mof_F 	F 	0.7915	0.0843	0.0821	-0.476
Mof_F 	F 	0.7367	0.1693	0.1134	-0.448
Mof_F 	F 	0.7348	0.2748	0.8814	-0.404
Mof_F 	F 	0.6239	0.1681	0.7963	-0.408
Mof_F 	F 	0.7085	0.1986	0.1986	-0.447
Mof_F 	F 	0.966	0.1446	0.2175	-0.471
Mof_C 	C 	0.6952	0.0656	0.8992	-0.197
Mof_C 	C 	0.7109	0.0722	0.9422	0.141
Mof_H 	H 	0.7155	0.0525	0.9558	-0.006
Mof_C 	C 	0.7195	0.1082	0.9647	-0.187
Mof_C 	C 	0.7126	0.1377	0.9444	0.134
Mof_H 	H 	0.7184	0.1618	0.9595	-0.002
Mof_C 	C 	0.6969	0.1311	0.9014	-0.203
Mof_C 	C 	0.6882	0.0951	0.8789	0.142
Mof_H 	H 	0.6777	0.0907	0.8502	-0.006
Mof_C 	C 	0.6878	0.0283	0.874	0.433
Mof_C 	C 	0.6803	0.9934	0.898	-0.546
Mof_H 	H 	0.6804	0.994	0.9289	0.274
Mof_C 	C 	0.6726	0.9574	0.876	0.701
Mof_C 	C 	0.6724	0.9564	0.8299	-0.514
Mof_C 	C 	0.68	0.9914	0.8059	0.709
Mof_C 	C 	0.6876	0.0273	0.8279	-0.552
Mof_H 	H 	0.6926	0.0507	0.8119	0.279
Mof_C 	C 	0.7314	0.1146	0.0128	0.423
Mof_C 	C 	0.7258	0.1398	0.0427	-0.539
Mof_H 	H 	0.7109	0.1527	0.0342	0.275
Mof_C 	C 	0.7422	0.1457	0.0852	0.699
Mof_C 	C 	0.7644	0.1265	0.0978	-0.516
Mof_C 	C 	0.7701	0.1013	0.068	0.709
Mof_C 	C 	0.7537	0.0954	0.0255	-0.548
Mof_H 	H 	0.7575	0.0786	0.0055	0.273
Mof_C 	C 	0.6889	0.1646	0.8799	0.479
Mof_C 	C 	0.6586	0.1533	0.8475	-0.357
Mof_H 	H 	0.6416	0.1255	0.8402	0.215
Mof_C 	C 	0.6537	0.1836	0.8258	0.547
Mof_C 	C 	0.6792	0.2252	0.8367	-0.776
Mof_C 	C 	0.7095	0.2365	0.8692	0.51
Mof_C 	C 	0.7143	0.2062	0.8908	-0.351
Mof_H 	H 	0.7345	0.2137	0.9125	0.213
Mof_C 	C 	0.6702	0.9193	0.8076	0.758
Mof_C 	C 	0.7849	0.1396	0.1423	0.8
Mof_C 	C 	0.677	0.2586	0.8111	0.991
Mof_C 	C 	0.69782	0.2531	0.2235	-0.518
Mof_H 	H 	0.6743	0.244	0.206	0.27
Mof_C 	C 	0.71974	0.2315	0.2234	0.688
Mof_C 	C 	0.97379	0.08519	0.2329	-0.557
Mof_H 	H 	0.0006	0.0975	0.2215	0.274
Mof_C 	C 	0.95205	0.10696	0.2329	0.684
Mof_O 	O 	0.6571	0.2522	0.7731	-0.576
Mof_O 	O 	0.6731	0.288	0.8311	-0.58
Mof_F 	F 	0.6594	0.237	0.9107	-0.408
Mof_F 	F 	0.7033	0.2077	0.7713	-0.412
Mof_C 	C 	0.6759	0.1882	0.9035	-0.34
Mof_H 	H 	0.6702	0.1835	0.9336	0.212
Mof_C 	C 	0.6718	0.219	0.882	0.526
Mof_C 	C 	0.6937	0.2027	0.8135	0.514
Mof_C 	C 	0.697	0.1713	0.8347	-0.34
Mof_H 	H 	0.7045	0.1547	0.8187	0.206
Mof_Zn	Zn	0.8353	0.2076	0.2067	1.119
Mof_Zn	Zn	0.8084	0.1105	0.2214	1.088
Mof_O 	O 	0.7146	0.2904	0.8044	-0.443
Mof_O 	O 	0.6363	0.242	0.8114	-0.27
Mof_O 	O 	0.7018	0.9283	0.7793	-0.371
Mof_O 	O 	0.6325	0.8854	0.815	-0.412
Mof_O 	O 	0.7878	0.1076	0.1598	-0.408
Mof_O 	O 	0.7994	0.1796	0.1544	-0.43
Mof_O 	O 	0.8429	0.0907	0.244	-0.451
Mof_O 	O 	0.7868	0.2129	0.2091	-0.403
Mof_Zn	Zn	0.36675	0.22507	0.23877	1.094
Mof_Zn	Zn	0.29765	0.13965	0.19821	1.127
Mof_Zn	Zn	0.62298	0.34199	0.71812	1.155
Mof_O 	O 	0.2616	0.3567	0.7731	-0.464
Mof_O 	O 	0.2094	0.3029	0.8196	-0.454
Mof_O 	O 	0.3217	0.1761	0.1453	-0.461
Mof_O 	O 	0.3714	0.2429	0.1757	-0.442
Mof_O 	O 	0.4232	0.24322	0.2544	-0.538
Mof_O 	O 	0.2415	0.114	0.2105	-0.466
Mof_F 	F 	0.3115	0.3201	0.7624	-0.483
Mof_F 	F 	0.259	0.3346	0.8986	-0.484
Mof_F 	F 	0.2928	0.2085	0.0821	-0.476
Mof_F 	F 	0.4326	0.2633	0.1134	-0.448
Mof_F 	F 	0.54	0.2652	0.8814	-0.404
Mof_F 	F 	0.5442	0.3761	0.7963	-0.408
Mof_F 	F 	0.4901	0.2915	0.1986	-0.447
Mof_F 	F 	0.1786	0.034	0.2175	-0.471
Mof_C 	C 	0.3704	0.3048	0.8992	-0.197
Mof_C 	C 	0.3613	0.2891	0.9422	0.141
Mof_H 	H 	0.337	0.2845	0.9558	-0.006
Mof_C 	C 	0.3887	0.2805	0.9647	-0.187
Mof_C 	C 	0.4251	0.2874	0.9444	0.134
Mof_H 	H 	0.4434	0.2816	0.9595	-0.002
Mof_C 	C 	0.4342	0.3031	0.9014	-0.202
Mof_C 	C 	0.4069	0.3118	0.8789	0.142
Mof_H 	H 	0.413	0.3223	0.8502	-0.006
Mof_C 	C 	0.3405	0.3122	0.874	0.433
Mof_C 	C 	0.3131	0.3197	0.898	-0.546
Mof_H 	H 	0.3136	0.3196	0.9289	0.274
Mof_C 	C 	0.2848	0.3274	0.876	0.701
Mof_C 	C 	0.284	0.3276	0.8299	-0.514
Mof_C 	C 	0.3114	0.32	0.8059	0.709
Mof_C 	C 	0.3397	0.3124	0.8279	-0.552
Mof_H 	H 	0.3581	0.3074	0.8119	0.279
Mof_C 	C 	0.3832	0.2686	0.0128	0.423
Mof_C 	C 	0.414	0.2742	0.0427	-0.539
Mof_H 	H 	0.4418	0.2891	0.0342	0.275
Mof_C 	C 	0.4035	0.2578	0.0852	0.699
Mof_C 	C 	0.3621	0.2356	0.0978	-0.516
Mof_C 	C 	0.3312	0.2299	0.068	0.709
Mof_C 	C 	0.3417	0.2463	0.0255	-0.548
Mof_H 	H 	0.3211	0.2425	0.0055	0.273
Mof_C 	C 	0.4757	0.3111	0.8799	0.479
Mof_C 	C 	0.4947	0.3414	0.8475	-0.357
Mof_H 	H 	0.4839	0.3584	0.8402	0.215
Mof_C 	C 	0.5299	0.3463	0.8258	0.547
Mof_C 	C 	0.546	0.3208	0.8367	-0.776
Mof_C 	C 	0.527	0.2905	0.8692	0.51
Mof_C 	C 	0.4919	0.2857	0.8908	-0.351
Mof_H 	H 	0.4792	0.2655	0.9125	0.213
Mof_C 	C 	0.2491	0.3298	0.8076	0.758
Mof_C 	C 	0.3547	0.2151	0.1423	0.8
Mof_C 	C 	0.5816	0.323	0.8111	0.991
Mof_C 	C 	0.55528	0.30218	0.2235	-0.518
Mof_H 	H 	0.5697	0.3257	0.206	0.27
Mof_C 	C 	0.51176	0.28026	0.2234	0.688
Mof_C 	C 	0.1114	0.02621	0.2329	-0.557
Mof_H 	H 	0.0969	0.9994	0.2215	0.274
Mof_C 	C 	0.15491	0.04795	0.2329	0.684
Mof_O 	O 	0.5951	0.3429	0.7731	-0.576
Mof_O 	O 	0.6149	0.3269	0.8311	-0.58
Mof_F 	F 	0.5776	0.3406	0.9107	-0.408
Mof_F 	F 	0.5044	0.2967	0.7713	-0.412
Mof_C 	C 	0.5123	0.3241	0.9035	-0.34
Mof_H 	H 	0.5133	0.3298	0.9336	0.212
Mof_C 	C 	0.5472	0.3282	0.882	0.526
Mof_C 	C 	0.509	0.3063	0.8135	0.514
Mof_C 	C 	0.4743	0.303	0.8347	-0.34
Mof_H 	H 	0.4502	0.2955	0.8187	0.206
Mof_Zn	Zn	0.3723	0.1647	0.2067	1.119
Mof_Zn	Zn	0.3021	0.1916	0.2214	1.088
Mof_O 	O 	0.5758	0.2854	0.8044	-0.443
Mof_O 	O 	0.6057	0.3637	0.8114	-0.27
Mof_O 	O 	0.2265	0.2982	0.7793	-0.371
Mof_O 	O 	0.2529	0.3675	0.815	-0.412
Mof_O 	O 	0.3198	0.2122	0.1598	-0.408
Mof_O 	O 	0.3802	0.2006	0.1544	-0.43
Mof_O 	O 	0.2478	0.1571	0.244	-0.451
Mof_O 	O 	0.4261	0.2132	0.2091	-0.403
Mof_Zn	Zn	0.33333	0.66667	0.3064	1.078
Mof_Zn	Zn	0.33333	0.66667	0.1936	1.078
Mof_Zn	Zn	0.66667	0.33333	0.6936	1.078
Mof_Zn	Zn	0.66667	0.33333	0.8064	1.078
Mof_O 	O 	0.6647	0.83235	0.75	-1.542
Mof_C 	C 	0.3777	0.68885	0.75	-0.172
Mof_C 	C 	0.42313	0.71157	0.75	0.404
Mof_C 	C 	0.50983	0.75492	0.75	-0.515
Mof_C 	C 	0.5564	0.7782	0.75	0.855
Mof_C 	C 	0.9528	0.9764	0.75	-0.28
Mof_C 	C 	0.9102	0.9551	0.75	0.476
Mof_C 	C 	0.82349	0.91175	0.75	-0.505
Mof_C 	C 	0.777	0.8885	0.75	0.766
Mof_O 	O 	0.16765	0.83235	0.75	-1.542
Mof_C 	C 	0.31115	0.68885	0.75	-0.172
Mof_C 	C 	0.28843	0.71157	0.75	0.404
Mof_C 	C 	0.24508	0.75491	0.75	-0.515
Mof_C 	C 	0.2218	0.7782	0.75	0.855
Mof_C 	C 	0.0236	0.9764	0.75	-0.28
Mof_C 	C 	0.0449	0.9551	0.75	0.476
Mof_C 	C 	0.08825	0.91175	0.75	-0.505
Mof_C 	C 	0.1115	0.8885	0.75	0.766
Mof_O 	O 	0.16765	0.3353	0.75	-1.542
Mof_C 	C 	0.31115	0.6223	0.75	-0.172
Mof_C 	C 	0.28844	0.57687	0.75	0.404
Mof_C 	C 	0.24509	0.49017	0.75	-0.515
Mof_C 	C 	0.2218	0.4436	0.75	0.855
Mof_C 	C 	0.0236	0.0472	0.75	-0.28
Mof_C 	C 	0.0449	0.0898	0.75	0.476
Mof_C 	C 	0.08825	0.17651	0.75	-0.505
Mof_C 	C 	0.1115	0.223	0.75	0.766
Mof_O 	O 	0.3353	0.16765	0.25	-1.542
Mof_C 	C 	0.6223	0.31115	0.25	-0.172
Mof_C 	C 	0.57687	0.28843	0.25	0.404
Mof_C 	C 	0.49017	0.24508	0.25	-0.515
Mof_C 	C 	0.4436	0.2218	0.25	0.855
Mof_C 	C 	0.0472	0.0236	0.25	-0.28
Mof_C 	C 	0.0898	0.0449	0.25	0.476
Mof_C 	C 	0.17651	0.08825	0.25	-0.505
Mof_C 	C 	0.223	0.1115	0.25	0.766
Mof_O 	O 	0.83235	0.16765	0.25	-1.542
Mof_C 	C 	0.68885	0.31115	0.25	-0.172
Mof_C 	C 	0.71157	0.28843	0.25	0.404
Mof_C 	C 	0.75492	0.24509	0.25	-0.515
Mof_C 	C 	0.7782	0.2218	0.25	0.855
Mof_C 	C 	0.9764	0.0236	0.25	-0.28
Mof_C 	C 	0.9551	0.0449	0.25	0.476
Mof_C 	C 	0.91175	0.08825	0.25	-0.505
Mof_C 	C 	0.8885	0.1115	0.25	0.766
Mof_O 	O 	0.83235	0.6647	0.25	-1.542
Mof_C 	C 	0.68885	0.3777	0.25	-0.172
Mof_C 	C 	0.71157	0.42313	0.25	0.404
Mof_C 	C 	0.75492	0.50983	0.25	-0.515
Mof_C 	C 	0.7782	0.5564	0.25	0.855
Mof_C 	C 	0.9764	0.9528	0.25	-0.28
Mof_C 	C 	0.9551	0.9102	0.25	0.476
Mof_C 	C 	0.91175	0.82349	0.25	-0.505
Mof_C 	C 	0.8885	0.777	0.25	0.766
Mof_O 	O 	0.33333	0.66667	0.25	-1.527
Mof_O 	O 	0.66667	0.33333	0.75	-1.527
Mof_C 	C 	0.3546	0.7092	0.75	0.113
Mof_H 	H 	0.369	0.738	0.75	0.017
Mof_C 	C 	0.2908	0.6454	0.75	0.113
Mof_H 	H 	0.262	0.631	0.75	0.017
Mof_C 	C 	0.3546	0.6454	0.75	0.113
Mof_H 	H 	0.369	0.631	0.75	0.017
Mof_C 	C 	0.6454	0.2908	0.25	0.113
Mof_H 	H 	0.631	0.262	0.25	0.017
Mof_C 	C 	0.7092	0.3546	0.25	0.113
Mof_H 	H 	0.738	0.369	0.25	0.017
Mof_C 	C 	0.6454	0.3546	0.25	0.113
Mof_H 	H 	0.631	0.369	0.25	0.017
Mof_C 	C 	0.9808	0.9616	0.75	0.191
Mof_H 	H 	0.96635	0.9327	0.75	-0.015
Mof_C 	C 	0.0384	0.0192	0.75	0.191
Mof_H 	H 	0.0673	0.03365	0.75	-0.015
Mof_C 	C 	0.9808	0.0192	0.75	0.191
Mof_H 	H 	0.96635	0.03365	0.75	-0.015
Mof_C 	C 	0.0192	0.0384	0.25	0.191
Mof_H 	H 	0.03365	0.0673	0.25	-0.015
Mof_C 	C 	0.9616	0.9808	0.25	0.191
Mof_H 	H 	0.9327	0.96635	0.25	-0.015
Mof_C 	C 	0.0192	0.9808	0.25	0.191
Mof_H 	H 	0.03365	0.96635	0.25	-0.015
_end
