data_functionalizedCrystal
_audit_creation_method	'EQeq! by Chris Wilmer'
_symmetry_space_group_name_H-M	'P1'
_symmetry_Int_Tables_number	1
_symmetry_cell_setting	triclinic
loop_
_symmetry_equiv_pos_as_xyz
  x,y,z
_cell_length_a	40.1623
_cell_length_b	40.1623
_cell_length_c	40.1623
_cell_angle_alpha	60
_cell_angle_beta	60
_cell_angle_gamma	60
loop_
_atom_site_label
_atom_site_type_symbol
_atom_site_fract_x
_atom_site_fract_y
_atom_site_fract_z
_atom_site_charge
Mof_Zn	Zn	0.3041	0.6959	0.49778	1.217
Mof_Zn	Zn	0.22989	0.77011	0.50139	1.207
Mof_Zn	Zn	0.6959	0.3041	0.50222	1.217
Mof_Zn	Zn	0.77011	0.22989	0.49861	1.207
Mof_Zn	Zn	0.49778	0.50222	0.3041	1.217
Mof_Zn	Zn	0.50139	0.49861	0.22989	1.207
Mof_Zn	Zn	0.50222	0.49778	0.6959	1.217
Mof_Zn	Zn	0.49861	0.50139	0.77011	1.207
Mof_Zn	Zn	0.3041	0.49778	0.50222	1.217
Mof_Zn	Zn	0.22989	0.50139	0.49861	1.207
Mof_Zn	Zn	0.6959	0.50222	0.49778	1.217
Mof_Zn	Zn	0.77011	0.49861	0.50139	1.207
Mof_Zn	Zn	0.49778	0.3041	0.6959	1.217
Mof_Zn	Zn	0.50139	0.22989	0.77011	1.207
Mof_Zn	Zn	0.50222	0.6959	0.3041	1.217
Mof_Zn	Zn	0.49861	0.77011	0.22989	1.207
Mof_Zn	Zn	0.3041	0.50222	0.6959	1.217
Mof_Zn	Zn	0.22989	0.49861	0.77011	1.207
Mof_Zn	Zn	0.6959	0.49778	0.3041	1.218
Mof_Zn	Zn	0.77011	0.50139	0.22989	1.208
Mof_Zn	Zn	0.49778	0.6959	0.50222	1.218
Mof_Zn	Zn	0.50139	0.77011	0.49861	1.208
Mof_Zn	Zn	0.50222	0.3041	0.49778	1.218
Mof_Zn	Zn	0.49861	0.22989	0.50139	1.208
Mof_H 	H 	0.3763	0.7395	0.3749	0.03
Mof_H 	H 	0.3772	0.8324	0.2698	0.061
Mof_H 	H 	0.2758	0.8398	0.3674	0.062
Mof_H 	H 	0.1926	0.9324	0.311	0.049
Mof_H 	H 	0.1609	0.9967	0.2721	0.083
Mof_H 	H 	0.2697	0.0071	0.1921	0.079
Mof_H 	H 	0.3032	0.9412	0.2314	0.054
Mof_H 	H 	0.2221	0.0591	0.1491	0.054
Mof_H 	H 	0.2319	0.0727	0.1737	0.05
Mof_H 	H 	0.2152	0.1342	0.1022	0.109
Mof_H 	H 	0.7395	0.3763	0.5093	0.03
Mof_H 	H 	0.8324	0.3772	0.5206	0.061
Mof_H 	H 	0.8398	0.2758	0.517	0.062
Mof_H 	H 	0.9324	0.1926	0.564	0.048
Mof_H 	H 	0.9967	0.1609	0.5703	0.083
Mof_H 	H 	0.0071	0.2697	0.5311	0.079
Mof_H 	H 	0.9412	0.3032	0.5242	0.054
Mof_H 	H 	0.0591	0.2221	0.5697	0.054
Mof_H 	H 	0.0727	0.2319	0.5217	0.05
Mof_H 	H 	0.1342	0.2152	0.5484	0.109
Mof_H 	H 	0.3749	0.5093	0.3763	0.03
Mof_H 	H 	0.2698	0.5206	0.3772	0.061
Mof_H 	H 	0.3674	0.517	0.2758	0.062
Mof_H 	H 	0.311	0.564	0.1926	0.048
Mof_H 	H 	0.2721	0.5703	0.1609	0.083
Mof_H 	H 	0.1921	0.5311	0.2697	0.079
Mof_H 	H 	0.2314	0.5242	0.3032	0.054
Mof_H 	H 	0.1491	0.5697	0.2221	0.054
Mof_H 	H 	0.1737	0.5217	0.2319	0.05
Mof_H 	H 	0.1022	0.5484	0.2152	0.109
Mof_H 	H 	0.5093	0.3749	0.7395	0.03
Mof_H 	H 	0.5206	0.2698	0.8324	0.061
Mof_H 	H 	0.517	0.3674	0.8398	0.062
Mof_H 	H 	0.564	0.311	0.9324	0.048
Mof_H 	H 	0.5703	0.2721	0.9967	0.083
Mof_H 	H 	0.5311	0.1921	0.0071	0.079
Mof_H 	H 	0.5242	0.2314	0.9412	0.054
Mof_H 	H 	0.5697	0.1491	0.0591	0.054
Mof_H 	H 	0.5217	0.1737	0.0727	0.05
Mof_H 	H 	0.5484	0.1022	0.1342	0.109
Mof_H 	H 	0.3763	0.3749	0.5093	0.03
Mof_H 	H 	0.3772	0.2698	0.5206	0.061
Mof_H 	H 	0.2758	0.3674	0.517	0.062
Mof_H 	H 	0.1926	0.311	0.564	0.048
Mof_H 	H 	0.1609	0.2721	0.5703	0.083
Mof_H 	H 	0.2697	0.1921	0.5311	0.079
Mof_H 	H 	0.3032	0.2314	0.5242	0.054
Mof_H 	H 	0.2221	0.1491	0.5697	0.054
Mof_H 	H 	0.2319	0.1737	0.5217	0.05
Mof_H 	H 	0.2152	0.1022	0.5484	0.109
Mof_H 	H 	0.7395	0.5093	0.3749	0.03
Mof_H 	H 	0.8324	0.5206	0.2698	0.061
Mof_H 	H 	0.8398	0.517	0.3674	0.062
Mof_H 	H 	0.9324	0.564	0.311	0.048
Mof_H 	H 	0.9967	0.5703	0.2721	0.083
Mof_H 	H 	0.0071	0.5311	0.1921	0.079
Mof_H 	H 	0.9412	0.5242	0.2314	0.054
Mof_H 	H 	0.0591	0.5697	0.1491	0.054
Mof_H 	H 	0.0727	0.5217	0.1737	0.05
Mof_H 	H 	0.1342	0.5484	0.1022	0.109
Mof_H 	H 	0.3749	0.3763	0.7395	0.03
Mof_H 	H 	0.2698	0.3772	0.8324	0.061
Mof_H 	H 	0.3674	0.2758	0.8398	0.062
Mof_H 	H 	0.311	0.1926	0.9324	0.049
Mof_H 	H 	0.2721	0.1609	0.9967	0.083
Mof_H 	H 	0.1921	0.2697	0.0071	0.079
Mof_H 	H 	0.2314	0.3032	0.9412	0.054
Mof_H 	H 	0.1491	0.2221	0.0591	0.054
Mof_H 	H 	0.1737	0.2319	0.0727	0.05
Mof_H 	H 	0.1022	0.2152	0.1342	0.109
Mof_H 	H 	0.5093	0.7395	0.3763	0.03
Mof_H 	H 	0.5206	0.8324	0.3772	0.061
Mof_H 	H 	0.517	0.8398	0.2758	0.062
Mof_H 	H 	0.564	0.9324	0.1926	0.048
Mof_H 	H 	0.5703	0.9967	0.1609	0.083
Mof_H 	H 	0.5311	0.0071	0.2697	0.079
Mof_H 	H 	0.5242	0.9412	0.3032	0.054
Mof_H 	H 	0.5697	0.0591	0.2221	0.054
Mof_H 	H 	0.5217	0.0727	0.2319	0.05
Mof_H 	H 	0.5484	0.1342	0.2152	0.109
Mof_H 	H 	0.3763	0.5093	0.7395	0.03
Mof_H 	H 	0.3772	0.5206	0.8324	0.061
Mof_H 	H 	0.2758	0.517	0.8398	0.062
Mof_H 	H 	0.1926	0.564	0.9324	0.048
Mof_H 	H 	0.1609	0.5703	0.9967	0.083
Mof_H 	H 	0.2697	0.5311	0.0071	0.079
Mof_H 	H 	0.3032	0.5242	0.9412	0.054
Mof_H 	H 	0.2221	0.5697	0.0591	0.054
Mof_H 	H 	0.2319	0.5217	0.0727	0.05
Mof_H 	H 	0.2152	0.5484	0.1342	0.109
Mof_H 	H 	0.7395	0.3749	0.3763	0.03
Mof_H 	H 	0.8324	0.2698	0.3772	0.061
Mof_H 	H 	0.8398	0.3674	0.2758	0.062
Mof_H 	H 	0.9324	0.311	0.1926	0.049
Mof_H 	H 	0.9967	0.2721	0.1609	0.083
Mof_H 	H 	0.0071	0.1921	0.2697	0.079
Mof_H 	H 	0.9412	0.2314	0.3032	0.054
Mof_H 	H 	0.0591	0.1491	0.2221	0.054
Mof_H 	H 	0.0727	0.1737	0.2319	0.05
Mof_H 	H 	0.1342	0.1022	0.2152	0.109
Mof_H 	H 	0.3749	0.7395	0.5093	0.03
Mof_H 	H 	0.2698	0.8324	0.5206	0.061
Mof_H 	H 	0.3674	0.8398	0.517	0.062
Mof_H 	H 	0.311	0.9324	0.564	0.048
Mof_H 	H 	0.2721	0.9967	0.5703	0.083
Mof_H 	H 	0.1921	0.0071	0.5311	0.079
Mof_H 	H 	0.2314	0.9412	0.5242	0.054
Mof_H 	H 	0.1491	0.0591	0.5697	0.054
Mof_H 	H 	0.1737	0.0727	0.5217	0.05
Mof_H 	H 	0.1022	0.1342	0.5484	0.109
Mof_H 	H 	0.5093	0.3763	0.3749	0.03
Mof_H 	H 	0.5206	0.3772	0.2698	0.061
Mof_H 	H 	0.517	0.2758	0.3674	0.062
Mof_H 	H 	0.564	0.1926	0.311	0.048
Mof_H 	H 	0.5703	0.1609	0.2721	0.083
Mof_H 	H 	0.5311	0.2697	0.1921	0.079
Mof_H 	H 	0.5242	0.3032	0.2314	0.054
Mof_H 	H 	0.5697	0.2221	0.1491	0.054
Mof_H 	H 	0.5217	0.2319	0.1737	0.05
Mof_H 	H 	0.5484	0.2152	0.1022	0.109
Mof_H 	H 	0.6237	0.2605	0.6251	0.03
Mof_H 	H 	0.6228	0.1676	0.7302	0.061
Mof_H 	H 	0.7242	0.1602	0.6326	0.062
Mof_H 	H 	0.8074	0.0676	0.689	0.049
Mof_H 	H 	0.8391	0.0033	0.7279	0.083
Mof_H 	H 	0.7303	0.9929	0.8079	0.079
Mof_H 	H 	0.6968	0.0588	0.7686	0.054
Mof_H 	H 	0.7779	0.9409	0.8509	0.054
Mof_H 	H 	0.7681	0.9273	0.8263	0.05
Mof_H 	H 	0.7848	0.8658	0.8978	0.109
Mof_H 	H 	0.2605	0.6237	0.4907	0.03
Mof_H 	H 	0.1676	0.6228	0.4794	0.061
Mof_H 	H 	0.1602	0.7242	0.483	0.062
Mof_H 	H 	0.0676	0.8074	0.436	0.048
Mof_H 	H 	0.0033	0.8391	0.4297	0.083
Mof_H 	H 	0.9929	0.7303	0.4689	0.079
Mof_H 	H 	0.0588	0.6968	0.4758	0.054
Mof_H 	H 	0.9409	0.7779	0.4303	0.054
Mof_H 	H 	0.9273	0.7681	0.4783	0.05
Mof_H 	H 	0.8658	0.7848	0.4516	0.109
Mof_H 	H 	0.6251	0.4907	0.6237	0.03
Mof_H 	H 	0.7302	0.4794	0.6228	0.061
Mof_H 	H 	0.6326	0.483	0.7242	0.062
Mof_H 	H 	0.689	0.436	0.8074	0.048
Mof_H 	H 	0.7279	0.4297	0.8391	0.083
Mof_H 	H 	0.8079	0.4689	0.7303	0.079
Mof_H 	H 	0.7686	0.4758	0.6968	0.054
Mof_H 	H 	0.8509	0.4303	0.7779	0.054
Mof_H 	H 	0.8263	0.4783	0.7681	0.05
Mof_H 	H 	0.8978	0.4516	0.7848	0.109
Mof_H 	H 	0.4907	0.6251	0.2605	0.03
Mof_H 	H 	0.4794	0.7302	0.1676	0.061
Mof_H 	H 	0.483	0.6326	0.1602	0.062
Mof_H 	H 	0.436	0.689	0.0676	0.048
Mof_H 	H 	0.4297	0.7279	0.0033	0.083
Mof_H 	H 	0.4689	0.8079	0.9929	0.079
Mof_H 	H 	0.4758	0.7686	0.0588	0.054
Mof_H 	H 	0.4303	0.8509	0.9409	0.054
Mof_H 	H 	0.4783	0.8263	0.9273	0.05
Mof_H 	H 	0.4516	0.8978	0.8658	0.109
Mof_H 	H 	0.6237	0.6251	0.4907	0.03
Mof_H 	H 	0.6228	0.7302	0.4794	0.061
Mof_H 	H 	0.7242	0.6326	0.483	0.062
Mof_H 	H 	0.8074	0.689	0.436	0.048
Mof_H 	H 	0.8391	0.7279	0.4297	0.083
Mof_H 	H 	0.7303	0.8079	0.4689	0.079
Mof_H 	H 	0.6968	0.7686	0.4758	0.054
Mof_H 	H 	0.7779	0.8509	0.4303	0.054
Mof_H 	H 	0.7681	0.8263	0.4783	0.05
Mof_H 	H 	0.7848	0.8978	0.4516	0.109
Mof_H 	H 	0.2605	0.4907	0.6251	0.03
Mof_H 	H 	0.1676	0.4794	0.7302	0.061
Mof_H 	H 	0.1602	0.483	0.6326	0.062
Mof_H 	H 	0.0676	0.436	0.689	0.048
Mof_H 	H 	0.0033	0.4297	0.7279	0.083
Mof_H 	H 	0.9929	0.4689	0.8079	0.079
Mof_H 	H 	0.0588	0.4758	0.7686	0.054
Mof_H 	H 	0.9409	0.4303	0.8509	0.054
Mof_H 	H 	0.9273	0.4783	0.8263	0.05
Mof_H 	H 	0.8658	0.4516	0.8978	0.109
Mof_H 	H 	0.6251	0.6237	0.2605	0.03
Mof_H 	H 	0.7302	0.6228	0.1676	0.061
Mof_H 	H 	0.6326	0.7242	0.1602	0.062
Mof_H 	H 	0.689	0.8074	0.0676	0.049
Mof_H 	H 	0.7279	0.8391	0.0033	0.083
Mof_H 	H 	0.8079	0.7303	0.9929	0.079
Mof_H 	H 	0.7686	0.6968	0.0588	0.054
Mof_H 	H 	0.8509	0.7779	0.9409	0.054
Mof_H 	H 	0.8263	0.7681	0.9273	0.05
Mof_H 	H 	0.8978	0.7848	0.8658	0.109
Mof_H 	H 	0.4907	0.2605	0.6237	0.03
Mof_H 	H 	0.4794	0.1676	0.6228	0.061
Mof_H 	H 	0.483	0.1602	0.7242	0.062
Mof_H 	H 	0.436	0.0676	0.8074	0.048
Mof_H 	H 	0.4297	0.0033	0.8391	0.083
Mof_H 	H 	0.4689	0.9929	0.7303	0.079
Mof_H 	H 	0.4758	0.0588	0.6968	0.054
Mof_H 	H 	0.4303	0.9409	0.7779	0.054
Mof_H 	H 	0.4783	0.9273	0.7681	0.05
Mof_H 	H 	0.4516	0.8658	0.7848	0.109
Mof_H 	H 	0.6237	0.4907	0.2605	0.03
Mof_H 	H 	0.6228	0.4794	0.1676	0.061
Mof_H 	H 	0.7242	0.483	0.1602	0.062
Mof_H 	H 	0.8074	0.436	0.0676	0.048
Mof_H 	H 	0.8391	0.4297	0.0033	0.083
Mof_H 	H 	0.7303	0.4689	0.9929	0.079
Mof_H 	H 	0.6968	0.4758	0.0588	0.054
Mof_H 	H 	0.7779	0.4303	0.9409	0.054
Mof_H 	H 	0.7681	0.4783	0.9273	0.05
Mof_H 	H 	0.7848	0.4516	0.8658	0.109
Mof_H 	H 	0.2605	0.6251	0.6237	0.03
Mof_H 	H 	0.1676	0.7302	0.6228	0.061
Mof_H 	H 	0.1602	0.6326	0.7242	0.062
Mof_H 	H 	0.0676	0.689	0.8074	0.049
Mof_H 	H 	0.0033	0.7279	0.8391	0.083
Mof_H 	H 	0.9929	0.8079	0.7303	0.079
Mof_H 	H 	0.0588	0.7686	0.6968	0.054
Mof_H 	H 	0.9409	0.8509	0.7779	0.054
Mof_H 	H 	0.9273	0.8263	0.7681	0.05
Mof_H 	H 	0.8658	0.8978	0.7848	0.109
Mof_H 	H 	0.6251	0.2605	0.4907	0.03
Mof_H 	H 	0.7302	0.1676	0.4794	0.061
Mof_H 	H 	0.6326	0.1602	0.483	0.062
Mof_H 	H 	0.689	0.0676	0.436	0.048
Mof_H 	H 	0.7279	0.0033	0.4297	0.083
Mof_H 	H 	0.8079	0.9929	0.4689	0.079
Mof_H 	H 	0.7686	0.0588	0.4758	0.054
Mof_H 	H 	0.8509	0.9409	0.4303	0.054
Mof_H 	H 	0.8263	0.9273	0.4783	0.05
Mof_H 	H 	0.8978	0.8658	0.4516	0.109
Mof_H 	H 	0.4907	0.6237	0.6251	0.03
Mof_H 	H 	0.4794	0.6228	0.7302	0.061
Mof_H 	H 	0.483	0.7242	0.6326	0.062
Mof_H 	H 	0.436	0.8074	0.689	0.048
Mof_H 	H 	0.4297	0.8391	0.7279	0.083
Mof_H 	H 	0.4689	0.7303	0.8079	0.079
Mof_H 	H 	0.4758	0.6968	0.7686	0.054
Mof_H 	H 	0.4303	0.7779	0.8509	0.054
Mof_H 	H 	0.4783	0.7681	0.8263	0.05
Mof_H 	H 	0.4516	0.7848	0.8978	0.109
Mof_C 	C 	0.3026	0.7666	0.4214	0.41
Mof_C 	C 	0.32321	0.78661	0.37759	-0.113
Mof_C 	C 	0.36279	0.76577	0.35955	0.057
Mof_C 	C 	0.38272	0.78268	0.31968	-0.112
Mof_C 	C 	0.426	0.7612	0.2988	0.419
Mof_C 	C 	0.36324	0.82058	0.29764	-0.03
Mof_C 	C 	0.3237	0.8415	0.3155	0.069
Mof_C 	C 	0.30316	0.82528	0.35512	-0.031
Mof_C 	C 	0.25093	0.93207	0.27367	0.065
Mof_C 	C 	0.2084	0.9476	0.2868	-0.032
Mof_C 	C 	0.1899	0.9857	0.2635	-0.125
Mof_C 	C 	0.2126	0.0084	0.2278	0.181
Mof_C 	C 	0.2539	0.9919	0.2163	-0.136
Mof_C 	C 	0.2743	0.9525	0.2397	-0.034
Mof_C 	C 	0.2099	0.0707	0.1709	-0.056
Mof_C 	C 	0.1791	0.1123	0.1601	0.132
Mof_C 	C 	0.189	0.1408	0.1218	-0.185
Mof_C 	C 	0.7666	0.3026	0.5094	0.41
Mof_C 	C 	0.78661	0.32321	0.51259	-0.113
Mof_C 	C 	0.76577	0.36279	0.51189	0.057
Mof_C 	C 	0.78268	0.38272	0.51492	-0.112
Mof_C 	C 	0.7612	0.426	0.514	0.419
Mof_C 	C 	0.82058	0.36324	0.51854	-0.03
Mof_C 	C 	0.8415	0.3237	0.5193	0.069
Mof_C 	C 	0.82528	0.30316	0.51644	-0.031
Mof_C 	C 	0.93207	0.25093	0.54333	0.065
Mof_C 	C 	0.9476	0.2084	0.5572	-0.032
Mof_C 	C 	0.9857	0.1899	0.5609	-0.126
Mof_C 	C 	0.0084	0.2126	0.5512	0.182
Mof_C 	C 	0.9919	0.2539	0.5379	-0.137
Mof_C 	C 	0.9525	0.2743	0.5335	-0.034
Mof_C 	C 	0.0707	0.2099	0.5485	-0.056
Mof_C 	C 	0.1123	0.1791	0.5485	0.132
Mof_C 	C 	0.1408	0.189	0.5484	-0.185
Mof_C 	C 	0.4214	0.5094	0.3026	0.41
Mof_C 	C 	0.37759	0.51259	0.32321	-0.113
Mof_C 	C 	0.35955	0.51189	0.36279	0.057
Mof_C 	C 	0.31968	0.51492	0.38272	-0.112
Mof_C 	C 	0.2988	0.514	0.426	0.419
Mof_C 	C 	0.29764	0.51854	0.36324	-0.03
Mof_C 	C 	0.3155	0.5193	0.3237	0.069
Mof_C 	C 	0.35512	0.51644	0.30316	-0.031
Mof_C 	C 	0.27367	0.54333	0.25093	0.065
Mof_C 	C 	0.2868	0.5572	0.2084	-0.032
Mof_C 	C 	0.2635	0.5609	0.1899	-0.126
Mof_C 	C 	0.2278	0.5512	0.2126	0.182
Mof_C 	C 	0.2163	0.5379	0.2539	-0.137
Mof_C 	C 	0.2397	0.5335	0.2743	-0.034
Mof_C 	C 	0.1709	0.5485	0.2099	-0.056
Mof_C 	C 	0.1601	0.5485	0.1791	0.132
Mof_C 	C 	0.1218	0.5484	0.189	-0.185
Mof_C 	C 	0.5094	0.4214	0.7666	0.41
Mof_C 	C 	0.51259	0.37759	0.78661	-0.113
Mof_C 	C 	0.51189	0.35955	0.76577	0.057
Mof_C 	C 	0.51492	0.31968	0.78268	-0.112
Mof_C 	C 	0.514	0.2988	0.7612	0.419
Mof_C 	C 	0.51854	0.29764	0.82058	-0.03
Mof_C 	C 	0.5193	0.3155	0.8415	0.069
Mof_C 	C 	0.51644	0.35512	0.82528	-0.031
Mof_C 	C 	0.54333	0.27367	0.93207	0.065
Mof_C 	C 	0.5572	0.2868	0.9476	-0.032
Mof_C 	C 	0.5609	0.2635	0.9857	-0.126
Mof_C 	C 	0.5512	0.2278	0.0084	0.182
Mof_C 	C 	0.5379	0.2163	0.9919	-0.136
Mof_C 	C 	0.5335	0.2397	0.9525	-0.034
Mof_C 	C 	0.5485	0.1709	0.0707	-0.056
Mof_C 	C 	0.5485	0.1601	0.1123	0.132
Mof_C 	C 	0.5484	0.1218	0.1408	-0.185
Mof_C 	C 	0.3026	0.4214	0.5094	0.41
Mof_C 	C 	0.32321	0.37759	0.51259	-0.113
Mof_C 	C 	0.36279	0.35955	0.51189	0.057
Mof_C 	C 	0.38272	0.31968	0.51492	-0.112
Mof_C 	C 	0.426	0.2988	0.514	0.419
Mof_C 	C 	0.36324	0.29764	0.51854	-0.03
Mof_C 	C 	0.3237	0.3155	0.5193	0.069
Mof_C 	C 	0.30316	0.35512	0.51644	-0.031
Mof_C 	C 	0.25093	0.27367	0.54333	0.065
Mof_C 	C 	0.2084	0.2868	0.5572	-0.032
Mof_C 	C 	0.1899	0.2635	0.5609	-0.126
Mof_C 	C 	0.2126	0.2278	0.5512	0.182
Mof_C 	C 	0.2539	0.2163	0.5379	-0.137
Mof_C 	C 	0.2743	0.2397	0.5335	-0.034
Mof_C 	C 	0.2099	0.1709	0.5485	-0.056
Mof_C 	C 	0.1791	0.1601	0.5485	0.132
Mof_C 	C 	0.189	0.1218	0.5484	-0.185
Mof_C 	C 	0.7666	0.5094	0.4214	0.41
Mof_C 	C 	0.78661	0.51259	0.37759	-0.113
Mof_C 	C 	0.76577	0.51189	0.35955	0.057
Mof_C 	C 	0.78268	0.51492	0.31968	-0.112
Mof_C 	C 	0.7612	0.514	0.2988	0.419
Mof_C 	C 	0.82058	0.51854	0.29764	-0.03
Mof_C 	C 	0.8415	0.5193	0.3155	0.069
Mof_C 	C 	0.82528	0.51644	0.35512	-0.031
Mof_C 	C 	0.93207	0.54333	0.27367	0.065
Mof_C 	C 	0.9476	0.5572	0.2868	-0.032
Mof_C 	C 	0.9857	0.5609	0.2635	-0.126
Mof_C 	C 	0.0084	0.5512	0.2278	0.182
Mof_C 	C 	0.9919	0.5379	0.2163	-0.136
Mof_C 	C 	0.9525	0.5335	0.2397	-0.034
Mof_C 	C 	0.0707	0.5485	0.1709	-0.056
Mof_C 	C 	0.1123	0.5485	0.1601	0.132
Mof_C 	C 	0.1408	0.5484	0.1218	-0.185
Mof_C 	C 	0.4214	0.3026	0.7666	0.41
Mof_C 	C 	0.37759	0.32321	0.78661	-0.113
Mof_C 	C 	0.35955	0.36279	0.76577	0.057
Mof_C 	C 	0.31968	0.38272	0.78268	-0.112
Mof_C 	C 	0.2988	0.426	0.7612	0.419
Mof_C 	C 	0.29764	0.36324	0.82058	-0.03
Mof_C 	C 	0.3155	0.3237	0.8415	0.069
Mof_C 	C 	0.35512	0.30316	0.82528	-0.031
Mof_C 	C 	0.27367	0.25093	0.93207	0.065
Mof_C 	C 	0.2868	0.2084	0.9476	-0.032
Mof_C 	C 	0.2635	0.1899	0.9857	-0.125
Mof_C 	C 	0.2278	0.2126	0.0084	0.181
Mof_C 	C 	0.2163	0.2539	0.9919	-0.136
Mof_C 	C 	0.2397	0.2743	0.9525	-0.034
Mof_C 	C 	0.1709	0.2099	0.0707	-0.056
Mof_C 	C 	0.1601	0.1791	0.1123	0.132
Mof_C 	C 	0.1218	0.189	0.1408	-0.185
Mof_C 	C 	0.5094	0.7666	0.3026	0.41
Mof_C 	C 	0.51259	0.78661	0.32321	-0.113
Mof_C 	C 	0.51189	0.76577	0.36279	0.057
Mof_C 	C 	0.51492	0.78268	0.38272	-0.112
Mof_C 	C 	0.514	0.7612	0.426	0.419
Mof_C 	C 	0.51854	0.82058	0.36324	-0.03
Mof_C 	C 	0.5193	0.8415	0.3237	0.069
Mof_C 	C 	0.51644	0.82528	0.30316	-0.031
Mof_C 	C 	0.54333	0.93207	0.25093	0.065
Mof_C 	C 	0.5572	0.9476	0.2084	-0.032
Mof_C 	C 	0.5609	0.9857	0.1899	-0.126
Mof_C 	C 	0.5512	0.0084	0.2126	0.182
Mof_C 	C 	0.5379	0.9919	0.2539	-0.137
Mof_C 	C 	0.5335	0.9525	0.2743	-0.034
Mof_C 	C 	0.5485	0.0707	0.2099	-0.056
Mof_C 	C 	0.5485	0.1123	0.1791	0.132
Mof_C 	C 	0.5484	0.1408	0.189	-0.185
Mof_C 	C 	0.3026	0.5094	0.7666	0.41
Mof_C 	C 	0.32321	0.51259	0.78661	-0.113
Mof_C 	C 	0.36279	0.51189	0.76577	0.057
Mof_C 	C 	0.38272	0.51492	0.78268	-0.112
Mof_C 	C 	0.426	0.514	0.7612	0.419
Mof_C 	C 	0.36324	0.51854	0.82058	-0.03
Mof_C 	C 	0.3237	0.5193	0.8415	0.069
Mof_C 	C 	0.30316	0.51644	0.82528	-0.031
Mof_C 	C 	0.25093	0.54333	0.93207	0.065
Mof_C 	C 	0.2084	0.5572	0.9476	-0.032
Mof_C 	C 	0.1899	0.5609	0.9857	-0.126
Mof_C 	C 	0.2126	0.5512	0.0084	0.182
Mof_C 	C 	0.2539	0.5379	0.9919	-0.137
Mof_C 	C 	0.2743	0.5335	0.9525	-0.034
Mof_C 	C 	0.2099	0.5485	0.0707	-0.056
Mof_C 	C 	0.1791	0.5485	0.1123	0.132
Mof_C 	C 	0.189	0.5484	0.1408	-0.185
Mof_C 	C 	0.7666	0.4214	0.3026	0.41
Mof_C 	C 	0.78661	0.37759	0.32321	-0.113
Mof_C 	C 	0.76577	0.35955	0.36279	0.057
Mof_C 	C 	0.78268	0.31968	0.38272	-0.112
Mof_C 	C 	0.7612	0.2988	0.426	0.419
Mof_C 	C 	0.82058	0.29764	0.36324	-0.03
Mof_C 	C 	0.8415	0.3155	0.3237	0.069
Mof_C 	C 	0.82528	0.35512	0.30316	-0.031
Mof_C 	C 	0.93207	0.27367	0.25093	0.065
Mof_C 	C 	0.9476	0.2868	0.2084	-0.032
Mof_C 	C 	0.9857	0.2635	0.1899	-0.125
Mof_C 	C 	0.0084	0.2278	0.2126	0.181
Mof_C 	C 	0.9919	0.2163	0.2539	-0.136
Mof_C 	C 	0.9525	0.2397	0.2743	-0.034
Mof_C 	C 	0.0707	0.1709	0.2099	-0.056
Mof_C 	C 	0.1123	0.1601	0.1791	0.132
Mof_C 	C 	0.1408	0.1218	0.189	-0.185
Mof_C 	C 	0.4214	0.7666	0.5094	0.41
Mof_C 	C 	0.37759	0.78661	0.51259	-0.113
Mof_C 	C 	0.35955	0.76577	0.51189	0.057
Mof_C 	C 	0.31968	0.78268	0.51492	-0.112
Mof_C 	C 	0.2988	0.7612	0.514	0.419
Mof_C 	C 	0.29764	0.82058	0.51854	-0.03
Mof_C 	C 	0.3155	0.8415	0.5193	0.069
Mof_C 	C 	0.35512	0.82528	0.51644	-0.031
Mof_C 	C 	0.27367	0.93207	0.54333	0.065
Mof_C 	C 	0.2868	0.9476	0.5572	-0.032
Mof_C 	C 	0.2635	0.9857	0.5609	-0.126
Mof_C 	C 	0.2278	0.0084	0.5512	0.182
Mof_C 	C 	0.2163	0.9919	0.5379	-0.136
Mof_C 	C 	0.2397	0.9525	0.5335	-0.034
Mof_C 	C 	0.1709	0.0707	0.5485	-0.056
Mof_C 	C 	0.1601	0.1123	0.5485	0.132
Mof_C 	C 	0.1218	0.1408	0.5484	-0.185
Mof_C 	C 	0.5094	0.3026	0.4214	0.41
Mof_C 	C 	0.51259	0.32321	0.37759	-0.113
Mof_C 	C 	0.51189	0.36279	0.35955	0.057
Mof_C 	C 	0.51492	0.38272	0.31968	-0.112
Mof_C 	C 	0.514	0.426	0.2988	0.419
Mof_C 	C 	0.51854	0.36324	0.29764	-0.03
Mof_C 	C 	0.5193	0.3237	0.3155	0.069
Mof_C 	C 	0.51644	0.30316	0.35512	-0.031
Mof_C 	C 	0.54333	0.25093	0.27367	0.065
Mof_C 	C 	0.5572	0.2084	0.2868	-0.032
Mof_C 	C 	0.5609	0.1899	0.2635	-0.126
Mof_C 	C 	0.5512	0.2126	0.2278	0.182
Mof_C 	C 	0.5379	0.2539	0.2163	-0.137
Mof_C 	C 	0.5335	0.2743	0.2397	-0.034
Mof_C 	C 	0.5485	0.2099	0.1709	-0.056
Mof_C 	C 	0.5485	0.1791	0.1601	0.132
Mof_C 	C 	0.5484	0.189	0.1218	-0.185
Mof_C 	C 	0.6974	0.2334	0.5786	0.41
Mof_C 	C 	0.67679	0.21339	0.62241	-0.113
Mof_C 	C 	0.63721	0.23423	0.64045	0.057
Mof_C 	C 	0.61728	0.21732	0.68032	-0.112
Mof_C 	C 	0.574	0.2388	0.7012	0.419
Mof_C 	C 	0.63676	0.17942	0.70236	-0.03
Mof_C 	C 	0.6763	0.1585	0.6845	0.069
Mof_C 	C 	0.69684	0.17472	0.64488	-0.031
Mof_C 	C 	0.74907	0.06793	0.72633	0.065
Mof_C 	C 	0.7916	0.0524	0.7132	-0.032
Mof_C 	C 	0.8101	0.0143	0.7365	-0.125
Mof_C 	C 	0.7874	0.9916	0.7722	0.181
Mof_C 	C 	0.7461	0.0081	0.7837	-0.136
Mof_C 	C 	0.7257	0.0475	0.7603	-0.034
Mof_C 	C 	0.7901	0.9293	0.8291	-0.056
Mof_C 	C 	0.8209	0.8877	0.8399	0.132
Mof_C 	C 	0.811	0.8592	0.8782	-0.185
Mof_C 	C 	0.2334	0.6974	0.4906	0.41
Mof_C 	C 	0.21339	0.67679	0.48741	-0.113
Mof_C 	C 	0.23423	0.63721	0.48811	0.057
Mof_C 	C 	0.21732	0.61728	0.48508	-0.112
Mof_C 	C 	0.2388	0.574	0.486	0.419
Mof_C 	C 	0.17942	0.63676	0.48146	-0.03
Mof_C 	C 	0.1585	0.6763	0.4807	0.069
Mof_C 	C 	0.17472	0.69684	0.48356	-0.031
Mof_C 	C 	0.06793	0.74907	0.45667	0.065
Mof_C 	C 	0.0524	0.7916	0.4428	-0.032
Mof_C 	C 	0.0143	0.8101	0.4391	-0.126
Mof_C 	C 	0.9916	0.7874	0.4488	0.182
Mof_C 	C 	0.0081	0.7461	0.4621	-0.137
Mof_C 	C 	0.0475	0.7257	0.4665	-0.034
Mof_C 	C 	0.9293	0.7901	0.4515	-0.056
Mof_C 	C 	0.8877	0.8209	0.4515	0.132
Mof_C 	C 	0.8592	0.811	0.4516	-0.185
Mof_C 	C 	0.5786	0.4906	0.6974	0.41
Mof_C 	C 	0.62241	0.48741	0.67679	-0.113
Mof_C 	C 	0.64045	0.48811	0.63721	0.057
Mof_C 	C 	0.68032	0.48508	0.61728	-0.112
Mof_C 	C 	0.7012	0.486	0.574	0.419
Mof_C 	C 	0.70236	0.48146	0.63676	-0.03
Mof_C 	C 	0.6845	0.4807	0.6763	0.069
Mof_C 	C 	0.64488	0.48356	0.69684	-0.031
Mof_C 	C 	0.72633	0.45667	0.74907	0.065
Mof_C 	C 	0.7132	0.4428	0.7916	-0.032
Mof_C 	C 	0.7365	0.4391	0.8101	-0.126
Mof_C 	C 	0.7722	0.4488	0.7874	0.182
Mof_C 	C 	0.7837	0.4621	0.7461	-0.137
Mof_C 	C 	0.7603	0.4665	0.7257	-0.034
Mof_C 	C 	0.8291	0.4515	0.7901	-0.056
Mof_C 	C 	0.8399	0.4515	0.8209	0.132
Mof_C 	C 	0.8782	0.4516	0.811	-0.185
Mof_C 	C 	0.4906	0.5786	0.2334	0.41
Mof_C 	C 	0.48741	0.62241	0.21339	-0.113
Mof_C 	C 	0.48811	0.64045	0.23423	0.057
Mof_C 	C 	0.48508	0.68032	0.21732	-0.112
Mof_C 	C 	0.486	0.7012	0.2388	0.419
Mof_C 	C 	0.48146	0.70236	0.17942	-0.03
Mof_C 	C 	0.4807	0.6845	0.1585	0.069
Mof_C 	C 	0.48356	0.64488	0.17472	-0.031
Mof_C 	C 	0.45667	0.72633	0.06793	0.065
Mof_C 	C 	0.4428	0.7132	0.0524	-0.032
Mof_C 	C 	0.4391	0.7365	0.0143	-0.126
Mof_C 	C 	0.4488	0.7722	0.9916	0.182
Mof_C 	C 	0.4621	0.7837	0.0081	-0.136
Mof_C 	C 	0.4665	0.7603	0.0475	-0.034
Mof_C 	C 	0.4515	0.8291	0.9293	-0.056
Mof_C 	C 	0.4515	0.8399	0.8877	0.132
Mof_C 	C 	0.4516	0.8782	0.8592	-0.185
Mof_C 	C 	0.6974	0.5786	0.4906	0.41
Mof_C 	C 	0.67679	0.62241	0.48741	-0.113
Mof_C 	C 	0.63721	0.64045	0.48811	0.057
Mof_C 	C 	0.61728	0.68032	0.48508	-0.112
Mof_C 	C 	0.574	0.7012	0.486	0.419
Mof_C 	C 	0.63676	0.70236	0.48146	-0.03
Mof_C 	C 	0.6763	0.6845	0.4807	0.069
Mof_C 	C 	0.69684	0.64488	0.48356	-0.031
Mof_C 	C 	0.74907	0.72633	0.45667	0.065
Mof_C 	C 	0.7916	0.7132	0.4428	-0.032
Mof_C 	C 	0.8101	0.7365	0.4391	-0.126
Mof_C 	C 	0.7874	0.7722	0.4488	0.182
Mof_C 	C 	0.7461	0.7837	0.4621	-0.137
Mof_C 	C 	0.7257	0.7603	0.4665	-0.034
Mof_C 	C 	0.7901	0.8291	0.4515	-0.056
Mof_C 	C 	0.8209	0.8399	0.4515	0.132
Mof_C 	C 	0.811	0.8782	0.4516	-0.185
Mof_C 	C 	0.2334	0.4906	0.5786	0.41
Mof_C 	C 	0.21339	0.48741	0.62241	-0.113
Mof_C 	C 	0.23423	0.48811	0.64045	0.057
Mof_C 	C 	0.21732	0.48508	0.68032	-0.112
Mof_C 	C 	0.2388	0.486	0.7012	0.419
Mof_C 	C 	0.17942	0.48146	0.70236	-0.03
Mof_C 	C 	0.1585	0.4807	0.6845	0.069
Mof_C 	C 	0.17472	0.48356	0.64488	-0.031
Mof_C 	C 	0.06793	0.45667	0.72633	0.065
Mof_C 	C 	0.0524	0.4428	0.7132	-0.032
Mof_C 	C 	0.0143	0.4391	0.7365	-0.126
Mof_C 	C 	0.9916	0.4488	0.7722	0.182
Mof_C 	C 	0.0081	0.4621	0.7837	-0.136
Mof_C 	C 	0.0475	0.4665	0.7603	-0.034
Mof_C 	C 	0.9293	0.4515	0.8291	-0.056
Mof_C 	C 	0.8877	0.4515	0.8399	0.132
Mof_C 	C 	0.8592	0.4516	0.8782	-0.185
Mof_C 	C 	0.5786	0.6974	0.2334	0.41
Mof_C 	C 	0.62241	0.67679	0.21339	-0.113
Mof_C 	C 	0.64045	0.63721	0.23423	0.057
Mof_C 	C 	0.68032	0.61728	0.21732	-0.112
Mof_C 	C 	0.7012	0.574	0.2388	0.419
Mof_C 	C 	0.70236	0.63676	0.17942	-0.03
Mof_C 	C 	0.6845	0.6763	0.1585	0.069
Mof_C 	C 	0.64488	0.69684	0.17472	-0.031
Mof_C 	C 	0.72633	0.74907	0.06793	0.065
Mof_C 	C 	0.7132	0.7916	0.0524	-0.032
Mof_C 	C 	0.7365	0.8101	0.0143	-0.125
Mof_C 	C 	0.7722	0.7874	0.9916	0.181
Mof_C 	C 	0.7837	0.7461	0.0081	-0.136
Mof_C 	C 	0.7603	0.7257	0.0475	-0.034
Mof_C 	C 	0.8291	0.7901	0.9293	-0.056
Mof_C 	C 	0.8399	0.8209	0.8877	0.132
Mof_C 	C 	0.8782	0.811	0.8592	-0.185
Mof_C 	C 	0.4906	0.2334	0.6974	0.41
Mof_C 	C 	0.48741	0.21339	0.67679	-0.113
Mof_C 	C 	0.48811	0.23423	0.63721	0.057
Mof_C 	C 	0.48508	0.21732	0.61728	-0.112
Mof_C 	C 	0.486	0.2388	0.574	0.419
Mof_C 	C 	0.48146	0.17942	0.63676	-0.03
Mof_C 	C 	0.4807	0.1585	0.6763	0.069
Mof_C 	C 	0.48356	0.17472	0.69684	-0.031
Mof_C 	C 	0.45667	0.06793	0.74907	0.065
Mof_C 	C 	0.4428	0.0524	0.7916	-0.032
Mof_C 	C 	0.4391	0.0143	0.8101	-0.126
Mof_C 	C 	0.4488	0.9916	0.7874	0.182
Mof_C 	C 	0.4621	0.0081	0.7461	-0.137
Mof_C 	C 	0.4665	0.0475	0.7257	-0.034
Mof_C 	C 	0.4515	0.9293	0.7901	-0.056
Mof_C 	C 	0.4515	0.8877	0.8209	0.132
Mof_C 	C 	0.4516	0.8592	0.811	-0.185
Mof_C 	C 	0.6974	0.4906	0.2334	0.41
Mof_C 	C 	0.67679	0.48741	0.21339	-0.113
Mof_C 	C 	0.63721	0.48811	0.23423	0.057
Mof_C 	C 	0.61728	0.48508	0.21732	-0.112
Mof_C 	C 	0.574	0.486	0.2388	0.419
Mof_C 	C 	0.63676	0.48146	0.17942	-0.03
Mof_C 	C 	0.6763	0.4807	0.1585	0.069
Mof_C 	C 	0.69684	0.48356	0.17472	-0.031
Mof_C 	C 	0.74907	0.45667	0.06793	0.065
Mof_C 	C 	0.7916	0.4428	0.0524	-0.032
Mof_C 	C 	0.8101	0.4391	0.0143	-0.126
Mof_C 	C 	0.7874	0.4488	0.9916	0.182
Mof_C 	C 	0.7461	0.4621	0.0081	-0.137
Mof_C 	C 	0.7257	0.4665	0.0475	-0.034
Mof_C 	C 	0.7901	0.4515	0.9293	-0.056
Mof_C 	C 	0.8209	0.4515	0.8877	0.132
Mof_C 	C 	0.811	0.4516	0.8592	-0.185
Mof_C 	C 	0.2334	0.5786	0.6974	0.41
Mof_C 	C 	0.21339	0.62241	0.67679	-0.113
Mof_C 	C 	0.23423	0.64045	0.63721	0.057
Mof_C 	C 	0.21732	0.68032	0.61728	-0.112
Mof_C 	C 	0.2388	0.7012	0.574	0.419
Mof_C 	C 	0.17942	0.70236	0.63676	-0.03
Mof_C 	C 	0.1585	0.6845	0.6763	0.069
Mof_C 	C 	0.17472	0.64488	0.69684	-0.031
Mof_C 	C 	0.06793	0.72633	0.74907	0.065
Mof_C 	C 	0.0524	0.7132	0.7916	-0.032
Mof_C 	C 	0.0143	0.7365	0.8101	-0.125
Mof_C 	C 	0.9916	0.7722	0.7874	0.181
Mof_C 	C 	0.0081	0.7837	0.7461	-0.136
Mof_C 	C 	0.0475	0.7603	0.7257	-0.034
Mof_C 	C 	0.9293	0.8291	0.7901	-0.056
Mof_C 	C 	0.8877	0.8399	0.8209	0.132
Mof_C 	C 	0.8592	0.8782	0.811	-0.185
Mof_C 	C 	0.5786	0.2334	0.4906	0.41
Mof_C 	C 	0.62241	0.21339	0.48741	-0.113
Mof_C 	C 	0.64045	0.23423	0.48811	0.057
Mof_C 	C 	0.68032	0.21732	0.48508	-0.112
Mof_C 	C 	0.7012	0.2388	0.486	0.419
Mof_C 	C 	0.70236	0.17942	0.48146	-0.03
Mof_C 	C 	0.6845	0.1585	0.4807	0.069
Mof_C 	C 	0.64488	0.17472	0.48356	-0.031
Mof_C 	C 	0.72633	0.06793	0.45667	0.065
Mof_C 	C 	0.7132	0.0524	0.4428	-0.032
Mof_C 	C 	0.7365	0.0143	0.4391	-0.126
Mof_C 	C 	0.7722	0.9916	0.4488	0.182
Mof_C 	C 	0.7837	0.0081	0.4621	-0.136
Mof_C 	C 	0.7603	0.0475	0.4665	-0.034
Mof_C 	C 	0.8291	0.9293	0.4515	-0.056
Mof_C 	C 	0.8399	0.8877	0.4515	0.132
Mof_C 	C 	0.8782	0.8592	0.4516	-0.185
Mof_C 	C 	0.4906	0.6974	0.5786	0.41
Mof_C 	C 	0.48741	0.67679	0.62241	-0.113
Mof_C 	C 	0.48811	0.63721	0.64045	0.057
Mof_C 	C 	0.48508	0.61728	0.68032	-0.112
Mof_C 	C 	0.486	0.574	0.7012	0.419
Mof_C 	C 	0.48146	0.63676	0.70236	-0.03
Mof_C 	C 	0.4807	0.6763	0.6845	0.069
Mof_C 	C 	0.48356	0.69684	0.64488	-0.031
Mof_C 	C 	0.45667	0.74907	0.72633	0.065
Mof_C 	C 	0.4428	0.7916	0.7132	-0.032
Mof_C 	C 	0.4391	0.8101	0.7365	-0.126
Mof_C 	C 	0.4488	0.7874	0.7722	0.182
Mof_C 	C 	0.4621	0.7461	0.7837	-0.137
Mof_C 	C 	0.4665	0.7257	0.7603	-0.034
Mof_C 	C 	0.4515	0.7901	0.8291	-0.056
Mof_C 	C 	0.4515	0.8209	0.8399	0.132
Mof_C 	C 	0.4516	0.811	0.8782	-0.185
Mof_N 	N 	0.30509	0.88071	0.29109	-0.085
Mof_N 	N 	0.2683	0.8921	0.2995	-0.083
Mof_N 	N 	0.88071	0.30509	0.52311	-0.085
Mof_N 	N 	0.8921	0.2683	0.5401	-0.083
Mof_N 	N 	0.29109	0.52311	0.30509	-0.085
Mof_N 	N 	0.2995	0.5401	0.2683	-0.083
Mof_N 	N 	0.52311	0.29109	0.88071	-0.085
Mof_N 	N 	0.5401	0.2995	0.8921	-0.083
Mof_N 	N 	0.30509	0.29109	0.52311	-0.085
Mof_N 	N 	0.2683	0.2995	0.5401	-0.083
Mof_N 	N 	0.88071	0.52311	0.29109	-0.085
Mof_N 	N 	0.8921	0.5401	0.2995	-0.083
Mof_N 	N 	0.29109	0.30509	0.88071	-0.085
Mof_N 	N 	0.2995	0.2683	0.8921	-0.083
Mof_N 	N 	0.52311	0.88071	0.30509	-0.085
Mof_N 	N 	0.5401	0.8921	0.2683	-0.083
Mof_N 	N 	0.30509	0.52311	0.88071	-0.085
Mof_N 	N 	0.2683	0.5401	0.8921	-0.083
Mof_N 	N 	0.88071	0.29109	0.30509	-0.085
Mof_N 	N 	0.8921	0.2995	0.2683	-0.083
Mof_N 	N 	0.29109	0.88071	0.52311	-0.085
Mof_N 	N 	0.2995	0.8921	0.5401	-0.083
Mof_N 	N 	0.52311	0.30509	0.29109	-0.085
Mof_N 	N 	0.5401	0.2683	0.2995	-0.083
Mof_N 	N 	0.69491	0.11929	0.70891	-0.085
Mof_N 	N 	0.7317	0.1079	0.7005	-0.083
Mof_N 	N 	0.11929	0.69491	0.47689	-0.085
Mof_N 	N 	0.1079	0.7317	0.4599	-0.083
Mof_N 	N 	0.70891	0.47689	0.69491	-0.085
Mof_N 	N 	0.7005	0.4599	0.7317	-0.083
Mof_N 	N 	0.47689	0.70891	0.11929	-0.085
Mof_N 	N 	0.4599	0.7005	0.1079	-0.083
Mof_N 	N 	0.69491	0.70891	0.47689	-0.085
Mof_N 	N 	0.7317	0.7005	0.4599	-0.083
Mof_N 	N 	0.11929	0.47689	0.70891	-0.085
Mof_N 	N 	0.1079	0.4599	0.7005	-0.083
Mof_N 	N 	0.70891	0.69491	0.11929	-0.085
Mof_N 	N 	0.7005	0.7317	0.1079	-0.083
Mof_N 	N 	0.47689	0.11929	0.69491	-0.085
Mof_N 	N 	0.4599	0.1079	0.7317	-0.083
Mof_N 	N 	0.69491	0.47689	0.11929	-0.085
Mof_N 	N 	0.7317	0.4599	0.1079	-0.083
Mof_N 	N 	0.11929	0.70891	0.69491	-0.085
Mof_N 	N 	0.1079	0.7005	0.7317	-0.083
Mof_N 	N 	0.70891	0.11929	0.47689	-0.085
Mof_N 	N 	0.7005	0.1079	0.4599	-0.083
Mof_N 	N 	0.47689	0.69491	0.70891	-0.085
Mof_N 	N 	0.4599	0.7317	0.7005	-0.083
Mof_O 	O 	0.44217	0.78023	0.26217	-0.488
Mof_O 	O 	0.4454	0.7258	0.317	-0.495
Mof_O 	O 	0.26767	0.78559	0.44061	-0.47
Mof_O 	O 	0.32051	0.73035	0.43939	-0.485
Mof_O 	O 	0.1903	0.0455	0.2079	-0.215
Mof_O 	O 	0.78023	0.44217	0.51543	-0.488
Mof_O 	O 	0.7258	0.4454	0.5118	-0.495
Mof_O 	O 	0.78559	0.26767	0.50613	-0.47
Mof_O 	O 	0.73035	0.32051	0.50975	-0.485
Mof_O 	O 	0.0455	0.1903	0.5563	-0.215
Mof_O 	O 	0.26217	0.51543	0.44217	-0.488
Mof_O 	O 	0.317	0.5118	0.4454	-0.495
Mof_O 	O 	0.44061	0.50613	0.26767	-0.47
Mof_O 	O 	0.43939	0.50975	0.32051	-0.485
Mof_O 	O 	0.2079	0.5563	0.1903	-0.215
Mof_O 	O 	0.51543	0.26217	0.78023	-0.488
Mof_O 	O 	0.5118	0.317	0.7258	-0.495
Mof_O 	O 	0.50613	0.44061	0.78559	-0.47
Mof_O 	O 	0.50975	0.43939	0.73035	-0.485
Mof_O 	O 	0.5563	0.2079	0.0455	-0.215
Mof_O 	O 	0.44217	0.26217	0.51543	-0.488
Mof_O 	O 	0.4454	0.317	0.5118	-0.495
Mof_O 	O 	0.26767	0.44061	0.50613	-0.47
Mof_O 	O 	0.32051	0.43939	0.50975	-0.485
Mof_O 	O 	0.1903	0.2079	0.5563	-0.215
Mof_O 	O 	0.78023	0.51543	0.26217	-0.488
Mof_O 	O 	0.7258	0.5118	0.317	-0.495
Mof_O 	O 	0.78559	0.50613	0.44061	-0.47
Mof_O 	O 	0.73035	0.50975	0.43939	-0.485
Mof_O 	O 	0.0455	0.5563	0.2079	-0.215
Mof_O 	O 	0.26217	0.44217	0.78023	-0.488
Mof_O 	O 	0.317	0.4454	0.7258	-0.495
Mof_O 	O 	0.44061	0.26767	0.78559	-0.47
Mof_O 	O 	0.43939	0.32051	0.73035	-0.485
Mof_O 	O 	0.2079	0.1903	0.0455	-0.215
Mof_O 	O 	0.51543	0.78023	0.44217	-0.488
Mof_O 	O 	0.5118	0.7258	0.4454	-0.495
Mof_O 	O 	0.50613	0.78559	0.26767	-0.47
Mof_O 	O 	0.50975	0.73035	0.32051	-0.485
Mof_O 	O 	0.5563	0.0455	0.1903	-0.215
Mof_O 	O 	0.44217	0.51543	0.78023	-0.488
Mof_O 	O 	0.4454	0.5118	0.7258	-0.495
Mof_O 	O 	0.26767	0.50613	0.78559	-0.47
Mof_O 	O 	0.32051	0.50975	0.73035	-0.485
Mof_O 	O 	0.1903	0.5563	0.0455	-0.215
Mof_O 	O 	0.78023	0.26217	0.44217	-0.488
Mof_O 	O 	0.7258	0.317	0.4454	-0.495
Mof_O 	O 	0.78559	0.44061	0.26767	-0.47
Mof_O 	O 	0.73035	0.43939	0.32051	-0.485
Mof_O 	O 	0.0455	0.2079	0.1903	-0.215
Mof_O 	O 	0.26217	0.78023	0.51543	-0.488
Mof_O 	O 	0.317	0.7258	0.5118	-0.495
Mof_O 	O 	0.44061	0.78559	0.50613	-0.47
Mof_O 	O 	0.43939	0.73035	0.50975	-0.485
Mof_O 	O 	0.2079	0.0455	0.5563	-0.215
Mof_O 	O 	0.51543	0.44217	0.26217	-0.488
Mof_O 	O 	0.5118	0.4454	0.317	-0.495
Mof_O 	O 	0.50613	0.26767	0.44061	-0.47
Mof_O 	O 	0.50975	0.32051	0.43939	-0.485
Mof_O 	O 	0.5563	0.1903	0.2079	-0.215
Mof_O 	O 	0.55783	0.21977	0.73783	-0.488
Mof_O 	O 	0.5546	0.2742	0.683	-0.495
Mof_O 	O 	0.73233	0.21441	0.55939	-0.47
Mof_O 	O 	0.67949	0.26965	0.56061	-0.485
Mof_O 	O 	0.8097	0.9545	0.7921	-0.215
Mof_O 	O 	0.21977	0.55783	0.48457	-0.488
Mof_O 	O 	0.2742	0.5546	0.4882	-0.495
Mof_O 	O 	0.21441	0.73233	0.49387	-0.47
Mof_O 	O 	0.26965	0.67949	0.49025	-0.485
Mof_O 	O 	0.9545	0.8097	0.4437	-0.215
Mof_O 	O 	0.73783	0.48457	0.55783	-0.488
Mof_O 	O 	0.683	0.4882	0.5546	-0.495
Mof_O 	O 	0.55939	0.49387	0.73233	-0.47
Mof_O 	O 	0.56061	0.49025	0.67949	-0.485
Mof_O 	O 	0.7921	0.4437	0.8097	-0.215
Mof_O 	O 	0.48457	0.73783	0.21977	-0.488
Mof_O 	O 	0.4882	0.683	0.2742	-0.495
Mof_O 	O 	0.49387	0.55939	0.21441	-0.47
Mof_O 	O 	0.49025	0.56061	0.26965	-0.485
Mof_O 	O 	0.4437	0.7921	0.9545	-0.215
Mof_O 	O 	0.55783	0.73783	0.48457	-0.488
Mof_O 	O 	0.5546	0.683	0.4882	-0.495
Mof_O 	O 	0.73233	0.55939	0.49387	-0.47
Mof_O 	O 	0.67949	0.56061	0.49025	-0.485
Mof_O 	O 	0.8097	0.7921	0.4437	-0.215
Mof_O 	O 	0.21977	0.48457	0.73783	-0.488
Mof_O 	O 	0.2742	0.4882	0.683	-0.495
Mof_O 	O 	0.21441	0.49387	0.55939	-0.47
Mof_O 	O 	0.26965	0.49025	0.56061	-0.485
Mof_O 	O 	0.9545	0.4437	0.7921	-0.215
Mof_O 	O 	0.73783	0.55783	0.21977	-0.488
Mof_O 	O 	0.683	0.5546	0.2742	-0.495
Mof_O 	O 	0.55939	0.73233	0.21441	-0.47
Mof_O 	O 	0.56061	0.67949	0.26965	-0.485
Mof_O 	O 	0.7921	0.8097	0.9545	-0.215
Mof_O 	O 	0.48457	0.21977	0.55783	-0.488
Mof_O 	O 	0.4882	0.2742	0.5546	-0.495
Mof_O 	O 	0.49387	0.21441	0.73233	-0.47
Mof_O 	O 	0.49025	0.26965	0.67949	-0.485
Mof_O 	O 	0.4437	0.9545	0.8097	-0.215
Mof_O 	O 	0.55783	0.48457	0.21977	-0.488
Mof_O 	O 	0.5546	0.4882	0.2742	-0.495
Mof_O 	O 	0.73233	0.49387	0.21441	-0.47
Mof_O 	O 	0.67949	0.49025	0.26965	-0.485
Mof_O 	O 	0.8097	0.4437	0.9545	-0.215
Mof_O 	O 	0.21977	0.73783	0.55783	-0.488
Mof_O 	O 	0.2742	0.683	0.5546	-0.495
Mof_O 	O 	0.21441	0.55939	0.73233	-0.47
Mof_O 	O 	0.26965	0.56061	0.67949	-0.485
Mof_O 	O 	0.9545	0.7921	0.8097	-0.215
Mof_O 	O 	0.73783	0.21977	0.48457	-0.488
Mof_O 	O 	0.683	0.2742	0.4882	-0.495
Mof_O 	O 	0.55939	0.21441	0.49387	-0.47
Mof_O 	O 	0.56061	0.26965	0.49025	-0.485
Mof_O 	O 	0.7921	0.9545	0.4437	-0.215
Mof_O 	O 	0.48457	0.55783	0.73783	-0.488
Mof_O 	O 	0.4882	0.5546	0.683	-0.495
Mof_O 	O 	0.49387	0.73233	0.55939	-0.47
Mof_O 	O 	0.49025	0.67949	0.56061	-0.485
Mof_O 	O 	0.4437	0.8097	0.7921	-0.215
_end
