data_functionalizedCrystal
_audit_creation_method	'EQeq! by Chris Wilmer'
_symmetry_space_group_name_H-M	'P1'
_symmetry_Int_Tables_number	1
_symmetry_cell_setting	triclinic
loop_
_symmetry_equiv_pos_as_xyz
  x,y,z
_cell_length_a	13.4495
_cell_length_b	13.4495
_cell_length_c	25.413
_cell_angle_alpha	90
_cell_angle_beta	90
_cell_angle_gamma	90
loop_
_atom_site_label
_atom_site_type_symbol
_atom_site_fract_x
_atom_site_fract_y
_atom_site_fract_z
_atom_site_charge
Mof_C 	C 	0.1601	0.7257	0.8316	0.032
Mof_H 	H 	0.0982	0.7047	0.8563	0.061
Mof_H 	H 	0.1387	0.7896	0.8085	0.063
Mof_C 	C 	0.111	0.621	0.7687	0.03
Mof_O 	O 	0.0278	0.6361	0.7695	-0.088
Mof_C 	C 	0.1271	0.611	0.7576	0.217
Mof_O 	O 	0.0579	0.6731	0.7461	-0.137
Mof_C 	C 	0.1534	0.528	0.7315	-0.034
Mof_C 	C 	0.0878	0.4886	0.6942	-0.03
Mof_H 	H 	0.0153	0.5214	0.6884	0.075
Mof_C 	C 	0.1169	0.4077	0.6653	0.029
Mof_H 	H 	0.0656	0.3779	0.6367	0.046
Mof_C 	C 	0.2691	0.4023	0.7065	0.032
Mof_H 	H 	0.3414	0.3685	0.711	0.037
Mof_C 	C 	0.246	0.4828	0.7375	-0.027
Mof_H 	H 	0.2986	0.5105	0.7661	0.063
Mof_N 	N 	0.2063	0.3634	0.67078	-0.206
Mof_N 	N 	0.6427	0.7085	0.053	-0.205
Mof_O 	O 	0.1877	0.6439	0.7974	-0.211
Mof_O 	O 	0.3528	0.6817	0.93536	-0.242
Mof_O 	O 	0.4571	0.5752	0.89659	-0.25
Mof_Cl	Cl	0.08274	0.18162	0.61463	-0.468
Mof_C 	C 	0.2741	0.6586	0.8991	0.035
Mof_H 	H 	0.2085	0.6362	0.9206	0.068
Mof_H 	H 	0.2963	0.5975	0.8741	0.069
Mof_C 	C 	0.4375	0.6323	0.9316	0.286
Mof_C 	C 	0.5074	0.6584	0.9751	-0.035
Mof_C 	C 	0.6031	0.6202	0.9749	-0.032
Mof_H 	H 	0.6269	0.5706	0.9439	0.062
Mof_C 	C 	0.6672	0.6462	0.0145	0.04
Mof_H 	H 	0.741	0.6145	0.0145	0.034
Mof_C 	C 	0.5492	0.7448	0.0532	0.037
Mof_H 	H 	0.5277	0.7946	0.0846	0.038
Mof_C 	C 	0.4807	0.7215	0.0157	-0.029
Mof_H 	H 	0.4065	0.7519	0.0176	0.064
Mof_C 	C 	0.3399	0.7743	0.8316	0.033
Mof_H 	H 	0.4018	0.7953	0.8563	0.061
Mof_H 	H 	0.3613	0.7104	0.8085	0.064
Mof_C 	C 	0.389	0.879	0.7687	0.032
Mof_O 	O 	0.4722	0.8639	0.7695	-0.088
Mof_C 	C 	0.3729	0.889	0.7576	0.217
Mof_O 	O 	0.4421	0.8269	0.7461	-0.137
Mof_C 	C 	0.3466	0.972	0.7315	-0.035
Mof_C 	C 	0.4122	0.0114	0.6942	-0.029
Mof_H 	H 	0.4847	0.9786	0.6884	0.075
Mof_C 	C 	0.3831	0.0923	0.6653	0.029
Mof_H 	H 	0.4344	0.1221	0.6367	0.046
Mof_C 	C 	0.2309	0.0977	0.7065	0.031
Mof_H 	H 	0.1586	0.1315	0.711	0.037
Mof_C 	C 	0.254	0.0172	0.7375	-0.026
Mof_H 	H 	0.2014	0.9895	0.7661	0.063
Mof_N 	N 	0.2937	0.1366	0.67078	-0.206
Mof_N 	N 	0.8573	0.7915	0.053	-0.205
Mof_O 	O 	0.3123	0.8561	0.7974	-0.211
Mof_O 	O 	0.1472	0.8183	0.93536	-0.242
Mof_O 	O 	0.0429	0.9248	0.89659	-0.25
Mof_Cl	Cl	0.41726	0.31838	0.61463	-0.468
Mof_C 	C 	0.2259	0.8414	0.8991	0.035
Mof_H 	H 	0.2915	0.8638	0.9206	0.068
Mof_H 	H 	0.2037	0.9025	0.8741	0.069
Mof_C 	C 	0.0625	0.8677	0.9316	0.286
Mof_C 	C 	0.9926	0.8416	0.9751	-0.034
Mof_C 	C 	0.8969	0.8798	0.9749	-0.032
Mof_H 	H 	0.8731	0.9294	0.9439	0.062
Mof_C 	C 	0.8328	0.8538	0.0145	0.04
Mof_H 	H 	0.759	0.8855	0.0145	0.034
Mof_C 	C 	0.9508	0.7552	0.0532	0.038
Mof_H 	H 	0.9723	0.7054	0.0846	0.038
Mof_C 	C 	0.0193	0.7785	0.0157	-0.03
Mof_H 	H 	0.0935	0.7481	0.0176	0.064
Mof_C 	C 	0.2743	0.6601	0.3316	0.033
Mof_H 	H 	0.2953	0.5982	0.3563	0.062
Mof_H 	H 	0.2104	0.6387	0.3085	0.064
Mof_C 	C 	0.379	0.611	0.2687	0.031
Mof_O 	O 	0.3639	0.5278	0.2695	-0.088
Mof_C 	C 	0.389	0.6271	0.2576	0.217
Mof_O 	O 	0.3269	0.5579	0.2461	-0.137
Mof_C 	C 	0.472	0.6534	0.2315	-0.034
Mof_C 	C 	0.5114	0.5878	0.1942	-0.03
Mof_H 	H 	0.4786	0.5153	0.1884	0.075
Mof_C 	C 	0.5923	0.6169	0.1653	0.029
Mof_H 	H 	0.6221	0.5656	0.1367	0.046
Mof_C 	C 	0.5977	0.7691	0.2065	0.032
Mof_H 	H 	0.6315	0.8414	0.211	0.037
Mof_C 	C 	0.5172	0.746	0.2375	-0.027
Mof_H 	H 	0.4895	0.7986	0.2661	0.063
Mof_N 	N 	0.6366	0.7063	0.17078	-0.206
Mof_N 	N 	0.2915	0.1427	0.553	-0.205
Mof_O 	O 	0.3561	0.6877	0.2974	-0.211
Mof_O 	O 	0.3183	0.8528	0.43536	-0.242
Mof_O 	O 	0.4248	0.9571	0.39659	-0.25
Mof_Cl	Cl	0.81838	0.58274	0.11463	-0.468
Mof_C 	C 	0.3414	0.7741	0.3991	0.035
Mof_H 	H 	0.3638	0.7085	0.4206	0.068
Mof_H 	H 	0.4025	0.7963	0.3741	0.069
Mof_C 	C 	0.3677	0.9375	0.4316	0.286
Mof_C 	C 	0.3416	0.0074	0.4751	-0.035
Mof_C 	C 	0.3798	0.1031	0.4749	-0.032
Mof_H 	H 	0.4294	0.1269	0.4439	0.062
Mof_C 	C 	0.3538	0.1672	0.5145	0.04
Mof_H 	H 	0.3855	0.241	0.5145	0.034
Mof_C 	C 	0.2552	0.0492	0.5532	0.038
Mof_H 	H 	0.2054	0.0277	0.5846	0.038
Mof_C 	C 	0.2785	0.9807	0.5157	-0.03
Mof_H 	H 	0.2481	0.9065	0.5176	0.064
Mof_C 	C 	0.2257	0.8399	0.3316	0.033
Mof_H 	H 	0.2047	0.9018	0.3563	0.061
Mof_H 	H 	0.2896	0.8613	0.3085	0.064
Mof_C 	C 	0.121	0.889	0.2687	0.032
Mof_O 	O 	0.1361	0.9722	0.2695	-0.088
Mof_C 	C 	0.111	0.8729	0.2576	0.217
Mof_O 	O 	0.1731	0.9421	0.2461	-0.137
Mof_C 	C 	0.028	0.8466	0.2315	-0.036
Mof_C 	C 	0.9886	0.9122	0.1942	-0.027
Mof_H 	H 	0.0214	0.9847	0.1884	0.074
Mof_C 	C 	0.9077	0.8831	0.1653	0.029
Mof_H 	H 	0.8779	0.9344	0.1367	0.046
Mof_C 	C 	0.9023	0.7309	0.2065	0.031
Mof_H 	H 	0.8685	0.6586	0.211	0.037
Mof_C 	C 	0.9828	0.754	0.2375	-0.025
Mof_H 	H 	0.0105	0.7014	0.2661	0.063
Mof_N 	N 	0.8634	0.7937	0.17078	-0.206
Mof_N 	N 	0.2085	0.3573	0.553	-0.205
Mof_O 	O 	0.1439	0.8123	0.2974	-0.211
Mof_O 	O 	0.1817	0.6472	0.43536	-0.242
Mof_O 	O 	0.0752	0.5429	0.39659	-0.25
Mof_Cl	Cl	0.68162	0.91726	0.11463	-0.468
Mof_C 	C 	0.1586	0.7259	0.3991	0.035
Mof_H 	H 	0.1362	0.7915	0.4206	0.068
Mof_H 	H 	0.0975	0.7037	0.3741	0.069
Mof_C 	C 	0.1323	0.5625	0.4316	0.286
Mof_C 	C 	0.1584	0.4926	0.4751	-0.035
Mof_C 	C 	0.1202	0.3969	0.4749	-0.032
Mof_H 	H 	0.0706	0.3731	0.4439	0.062
Mof_C 	C 	0.1462	0.3328	0.5145	0.039
Mof_H 	H 	0.1145	0.259	0.5145	0.034
Mof_C 	C 	0.2448	0.4508	0.5532	0.037
Mof_H 	H 	0.2946	0.4723	0.5846	0.038
Mof_C 	C 	0.2215	0.5193	0.5157	-0.029
Mof_H 	H 	0.2519	0.5935	0.5176	0.064
Mof_C 	C 	0.25	0.75	0.8651	-0.002
Mof_C 	C 	0.25	0.75	0.3651	-0.003
Mof_Co	Co	0.25	0.25	0.6139	1.147
Mof_Co	Co	0.75	0.75	0.1139	1.147
Mof_C 	C 	0.8399	0.2743	0.1684	0.033
Mof_H 	H 	0.9018	0.2953	0.1437	0.062
Mof_H 	H 	0.8613	0.2104	0.1915	0.064
Mof_C 	C 	0.889	0.379	0.2313	0.031
Mof_O 	O 	0.9722	0.3639	0.2305	-0.088
Mof_C 	C 	0.8729	0.389	0.2424	0.217
Mof_O 	O 	0.9421	0.3269	0.2539	-0.137
Mof_C 	C 	0.8466	0.472	0.2685	-0.034
Mof_C 	C 	0.9122	0.5114	0.3058	-0.03
Mof_H 	H 	0.9847	0.4786	0.3116	0.075
Mof_C 	C 	0.8831	0.5923	0.3347	0.029
Mof_H 	H 	0.9344	0.6221	0.3633	0.046
Mof_C 	C 	0.7309	0.5977	0.2935	0.032
Mof_H 	H 	0.6586	0.6315	0.289	0.037
Mof_C 	C 	0.754	0.5172	0.2625	-0.027
Mof_H 	H 	0.7014	0.4895	0.2339	0.063
Mof_N 	N 	0.7937	0.6366	0.32922	-0.206
Mof_N 	N 	0.3573	0.2915	0.947	-0.205
Mof_O 	O 	0.8123	0.3561	0.2026	-0.211
Mof_O 	O 	0.6472	0.3183	0.06464	-0.242
Mof_O 	O 	0.5429	0.4248	0.10341	-0.25
Mof_Cl	Cl	0.91726	0.81838	0.38537	-0.468
Mof_C 	C 	0.7259	0.3414	0.1009	0.035
Mof_H 	H 	0.7915	0.3638	0.0794	0.068
Mof_H 	H 	0.7037	0.4025	0.1259	0.069
Mof_C 	C 	0.5625	0.3677	0.0684	0.286
Mof_C 	C 	0.4926	0.3416	0.0249	-0.035
Mof_C 	C 	0.3969	0.3798	0.0251	-0.032
Mof_H 	H 	0.3731	0.4294	0.0561	0.062
Mof_C 	C 	0.3328	0.3538	0.9855	0.04
Mof_H 	H 	0.259	0.3855	0.9855	0.034
Mof_C 	C 	0.4508	0.2552	0.9468	0.037
Mof_H 	H 	0.4723	0.2054	0.9154	0.038
Mof_C 	C 	0.5193	0.2785	0.9843	-0.029
Mof_H 	H 	0.5935	0.2481	0.9824	0.064
Mof_C 	C 	0.6601	0.2257	0.1684	0.033
Mof_H 	H 	0.5982	0.2047	0.1437	0.061
Mof_H 	H 	0.6387	0.2896	0.1915	0.064
Mof_C 	C 	0.611	0.121	0.2313	0.032
Mof_O 	O 	0.5278	0.1361	0.2305	-0.088
Mof_C 	C 	0.6271	0.111	0.2424	0.217
Mof_O 	O 	0.5579	0.1731	0.2539	-0.137
Mof_C 	C 	0.6534	0.028	0.2685	-0.035
Mof_C 	C 	0.5878	0.9886	0.3058	-0.029
Mof_H 	H 	0.5153	0.0214	0.3116	0.075
Mof_C 	C 	0.6169	0.9077	0.3347	0.029
Mof_H 	H 	0.5656	0.8779	0.3633	0.046
Mof_C 	C 	0.7691	0.9023	0.2935	0.031
Mof_H 	H 	0.8414	0.8685	0.289	0.037
Mof_C 	C 	0.746	0.9828	0.2625	-0.026
Mof_H 	H 	0.7986	0.0105	0.2339	0.063
Mof_N 	N 	0.7063	0.8634	0.32922	-0.206
Mof_N 	N 	0.1427	0.2085	0.947	-0.205
Mof_O 	O 	0.6877	0.1439	0.2026	-0.211
Mof_O 	O 	0.8528	0.1817	0.06464	-0.242
Mof_O 	O 	0.9571	0.0752	0.10341	-0.25
Mof_Cl	Cl	0.58274	0.68162	0.38537	-0.468
Mof_C 	C 	0.7741	0.1586	0.1009	0.035
Mof_H 	H 	0.7085	0.1362	0.0794	0.068
Mof_H 	H 	0.7963	0.0975	0.1259	0.069
Mof_C 	C 	0.9375	0.1323	0.0684	0.286
Mof_C 	C 	0.0074	0.1584	0.0249	-0.034
Mof_C 	C 	0.1031	0.1202	0.0251	-0.032
Mof_H 	H 	0.1269	0.0706	0.0561	0.062
Mof_C 	C 	0.1672	0.1462	0.9855	0.04
Mof_H 	H 	0.241	0.1145	0.9855	0.034
Mof_C 	C 	0.0492	0.2448	0.9468	0.038
Mof_H 	H 	0.0277	0.2946	0.9154	0.038
Mof_C 	C 	0.9807	0.2215	0.9843	-0.03
Mof_H 	H 	0.9065	0.2519	0.9824	0.064
Mof_C 	C 	0.7257	0.3399	0.6684	0.033
Mof_H 	H 	0.7047	0.4018	0.6437	0.062
Mof_H 	H 	0.7896	0.3613	0.6915	0.064
Mof_C 	C 	0.621	0.389	0.7313	0.031
Mof_O 	O 	0.6361	0.4722	0.7305	-0.088
Mof_C 	C 	0.611	0.3729	0.7424	0.217
Mof_O 	O 	0.6731	0.4421	0.7539	-0.137
Mof_C 	C 	0.528	0.3466	0.7685	-0.034
Mof_C 	C 	0.4886	0.4122	0.8058	-0.03
Mof_H 	H 	0.5214	0.4847	0.8116	0.075
Mof_C 	C 	0.4077	0.3831	0.8347	0.029
Mof_H 	H 	0.3779	0.4344	0.8633	0.046
Mof_C 	C 	0.4023	0.2309	0.7935	0.032
Mof_H 	H 	0.3685	0.1586	0.789	0.037
Mof_C 	C 	0.4828	0.254	0.7625	-0.027
Mof_H 	H 	0.5105	0.2014	0.7339	0.063
Mof_N 	N 	0.3634	0.2937	0.82922	-0.206
Mof_N 	N 	0.7085	0.8573	0.447	-0.205
Mof_O 	O 	0.6439	0.3123	0.7026	-0.211
Mof_O 	O 	0.6817	0.1472	0.56464	-0.242
Mof_O 	O 	0.5752	0.0429	0.60341	-0.25
Mof_Cl	Cl	0.18162	0.41726	0.88537	-0.468
Mof_C 	C 	0.6586	0.2259	0.6009	0.035
Mof_H 	H 	0.6362	0.2915	0.5794	0.068
Mof_H 	H 	0.5975	0.2037	0.6259	0.069
Mof_C 	C 	0.6323	0.0625	0.5684	0.286
Mof_C 	C 	0.6584	0.9926	0.5249	-0.035
Mof_C 	C 	0.6202	0.8969	0.5251	-0.032
Mof_H 	H 	0.5706	0.8731	0.5561	0.062
Mof_C 	C 	0.6462	0.8328	0.4855	0.04
Mof_H 	H 	0.6145	0.759	0.4855	0.034
Mof_C 	C 	0.7448	0.9508	0.4468	0.038
Mof_H 	H 	0.7946	0.9723	0.4154	0.038
Mof_C 	C 	0.7215	0.0193	0.4843	-0.03
Mof_H 	H 	0.7519	0.0935	0.4824	0.064
Mof_C 	C 	0.7743	0.1601	0.6684	0.033
Mof_H 	H 	0.7953	0.0982	0.6437	0.061
Mof_H 	H 	0.7104	0.1387	0.6915	0.064
Mof_C 	C 	0.879	0.111	0.7313	0.032
Mof_O 	O 	0.8639	0.0278	0.7305	-0.088
Mof_C 	C 	0.889	0.1271	0.7424	0.217
Mof_O 	O 	0.8269	0.0579	0.7539	-0.137
Mof_C 	C 	0.972	0.1534	0.7685	-0.036
Mof_C 	C 	0.0114	0.0878	0.8058	-0.027
Mof_H 	H 	0.9786	0.0153	0.8116	0.074
Mof_C 	C 	0.0923	0.1169	0.8347	0.029
Mof_H 	H 	0.1221	0.0656	0.8633	0.046
Mof_C 	C 	0.0977	0.2691	0.7935	0.031
Mof_H 	H 	0.1315	0.3414	0.789	0.037
Mof_C 	C 	0.0172	0.246	0.7625	-0.025
Mof_H 	H 	0.9895	0.2986	0.7339	0.063
Mof_N 	N 	0.1366	0.2063	0.82922	-0.206
Mof_N 	N 	0.7915	0.6427	0.447	-0.205
Mof_O 	O 	0.8561	0.1877	0.7026	-0.211
Mof_O 	O 	0.8183	0.3528	0.56464	-0.242
Mof_O 	O 	0.9248	0.4571	0.60341	-0.25
Mof_Cl	Cl	0.31838	0.08274	0.88537	-0.468
Mof_C 	C 	0.8414	0.2741	0.6009	0.035
Mof_H 	H 	0.8638	0.2085	0.5794	0.068
Mof_H 	H 	0.9025	0.2963	0.6259	0.069
Mof_C 	C 	0.8677	0.4375	0.5684	0.286
Mof_C 	C 	0.8416	0.5074	0.5249	-0.035
Mof_C 	C 	0.8798	0.6031	0.5251	-0.032
Mof_H 	H 	0.9294	0.6269	0.5561	0.062
Mof_C 	C 	0.8538	0.6672	0.4855	0.039
Mof_H 	H 	0.8855	0.741	0.4855	0.034
Mof_C 	C 	0.7552	0.5492	0.4468	0.037
Mof_H 	H 	0.7054	0.5277	0.4154	0.038
Mof_C 	C 	0.7785	0.4807	0.4843	-0.029
Mof_H 	H 	0.7481	0.4065	0.4824	0.064
Mof_C 	C 	0.75	0.25	0.1349	-0.002
Mof_C 	C 	0.75	0.25	0.6349	-0.003
Mof_Co	Co	0.75	0.75	0.3861	1.147
Mof_Co	Co	0.25	0.25	0.8861	1.147
_end
