data_functionalizedCrystal
_audit_creation_method	'EQeq! by Chris Wilmer'
_symmetry_space_group_name_H-M	'P1'
_symmetry_Int_Tables_number	1
_symmetry_cell_setting	triclinic
loop_
_symmetry_equiv_pos_as_xyz
  x,y,z
_cell_length_a	9.5107
_cell_length_b	14.6128
_cell_length_c	13.5317
_cell_angle_alpha	90
_cell_angle_beta	90
_cell_angle_gamma	90
loop_
_atom_site_label
_atom_site_type_symbol
_atom_site_fract_x
_atom_site_fract_y
_atom_site_fract_z
_atom_site_charge
Mof_O 	O 	0.0363	0.49366	0.231	-0.423
Mof_O 	O 	0.2047	0.39144	0.24975	-0.452
Mof_O 	O 	0.9077	0.11786	0.55546	-0.597
Mof_O 	O 	0.0828	0.1113	0.44985	-0.589
Mof_C 	C 	0.0885	0.42393	0.27421	0.343
Mof_C 	C 	0.0072	0.37995	0.3558	-0.148
Mof_C 	C 	0.9077	0.4301	0.408	0.075
Mof_H 	H 	0.8905	0.4908	0.3913	0.016
Mof_C 	C 	0.8342	0.39	0.4848	-0.171
Mof_H 	H 	0.7688	0.4242	0.5202	0.094
Mof_C 	C 	0.8572	0.2998	0.5093	0.131
Mof_C 	C 	0.9567	0.24899	0.45907	-0.239
Mof_C 	C 	0.0314	0.28945	0.3822	0.123
Mof_H 	H 	0.0984	0.2555	0.3481	0.01
Mof_C 	C 	0.9846	0.1517	0.49004	0.549
Mof_H 	H 	0.801	0.276	0.557	-0.004
Mof_O 	O 	0.4637	0.50634	0.231	-0.426
Mof_O 	O 	0.2953	0.60856	0.24975	-0.447
Mof_O 	O 	0.5923	0.88214	0.55546	-0.454
Mof_O 	O 	0.4172	0.8887	0.44985	-0.479
Mof_C 	C 	0.4115	0.57607	0.27421	0.34
Mof_C 	C 	0.4928	0.62005	0.3558	-0.139
Mof_C 	C 	0.5923	0.5699	0.408	0.072
Mof_H 	H 	0.6095	0.5092	0.3913	0.017
Mof_C 	C 	0.6658	0.61	0.4848	-0.156
Mof_H 	H 	0.7312	0.5758	0.5202	0.089
Mof_C 	C 	0.6428	0.7002	0.5093	0.117
Mof_C 	C 	0.5433	0.75101	0.45907	-0.2
Mof_C 	C 	0.4686	0.71055	0.3822	0.104
Mof_H 	H 	0.4016	0.7445	0.3481	0.02
Mof_C 	C 	0.5154	0.8483	0.49004	0.529
Mof_H 	H 	0.699	0.724	0.557	0.009
Mof_O 	O 	0.4637	0.99366	0.269	-0.247
Mof_O 	O 	0.2953	0.89144	0.25025	-0.328
Mof_O 	O 	0.5923	0.61786	0.94454	-0.654
Mof_O 	O 	0.4172	0.6113	0.05015	-0.665
Mof_C 	C 	0.4115	0.92393	0.22579	0.327
Mof_C 	C 	0.4928	0.87995	0.1442	-0.125
Mof_C 	C 	0.5923	0.9301	0.092	0.109
Mof_H 	H 	0.6095	0.9908	0.1087	0.089
Mof_C 	C 	0.6658	0.89	0.0152	-0.168
Mof_H 	H 	0.7312	0.9242	0.9798	0.156
Mof_C 	C 	0.6428	0.7998	0.9907	0.177
Mof_C 	C 	0.5433	0.74899	0.04093	-0.264
Mof_C 	C 	0.4686	0.78945	0.1178	0.138
Mof_H 	H 	0.4016	0.7555	0.1519	0.004
Mof_C 	C 	0.5154	0.6517	0.00996	0.632
Mof_H 	H 	0.699	0.776	0.943	-0.014
Mof_O 	O 	0.0363	0.00634	0.269	-0.469
Mof_O 	O 	0.2047	0.10856	0.25025	-0.443
Mof_O 	O 	0.9077	0.38214	0.94454	-0.659
Mof_O 	O 	0.0828	0.3887	0.05015	-0.664
Mof_C 	C 	0.0885	0.07607	0.22579	0.353
Mof_C 	C 	0.0072	0.12005	0.1442	-0.207
Mof_C 	C 	0.9077	0.0699	0.092	0.104
Mof_H 	H 	0.8905	0.0092	0.1087	-0.074
Mof_C 	C 	0.8342	0.11	0.0152	-0.255
Mof_H 	H 	0.7688	0.0758	0.9798	0.065
Mof_C 	C 	0.8572	0.2002	0.9907	0.192
Mof_C 	C 	0.9567	0.25101	0.04093	-0.31
Mof_C 	C 	0.0314	0.21055	0.1178	0.177
Mof_H 	H 	0.0984	0.2445	0.1519	-0.014
Mof_C 	C 	0.9846	0.3483	0.00996	0.631
Mof_H 	H 	0.801	0.224	0.943	-0.036
Mof_O 	O 	0.9637	0.50634	0.769	-0.427
Mof_O 	O 	0.7953	0.60856	0.75025	-0.447
Mof_O 	O 	0.0923	0.88214	0.44454	-0.457
Mof_O 	O 	0.9172	0.8887	0.55015	-0.478
Mof_C 	C 	0.9115	0.57607	0.72579	0.341
Mof_C 	C 	0.9928	0.62005	0.6442	-0.143
Mof_C 	C 	0.0923	0.5699	0.592	0.076
Mof_H 	H 	0.1095	0.5092	0.6087	0.017
Mof_C 	C 	0.1658	0.61	0.5152	-0.157
Mof_H 	H 	0.2312	0.5758	0.4798	0.09
Mof_C 	C 	0.1428	0.7002	0.4907	0.118
Mof_C 	C 	0.0433	0.75101	0.54093	-0.199
Mof_C 	C 	0.9686	0.71055	0.6178	0.104
Mof_H 	H 	0.9016	0.7445	0.6519	0.02
Mof_C 	C 	0.0154	0.8483	0.50996	0.528
Mof_H 	H 	0.199	0.724	0.443	0.008
Mof_O 	O 	0.5363	0.49366	0.769	-0.424
Mof_O 	O 	0.7047	0.39144	0.75025	-0.452
Mof_O 	O 	0.4077	0.11786	0.44454	-0.599
Mof_O 	O 	0.5828	0.1113	0.55015	-0.594
Mof_C 	C 	0.5885	0.42393	0.72579	0.344
Mof_C 	C 	0.5072	0.37995	0.6442	-0.151
Mof_C 	C 	0.4077	0.4301	0.592	0.082
Mof_H 	H 	0.3905	0.4908	0.6087	0.015
Mof_C 	C 	0.3342	0.39	0.5152	-0.173
Mof_H 	H 	0.2688	0.4242	0.4798	0.095
Mof_C 	C 	0.3572	0.2998	0.4907	0.132
Mof_C 	C 	0.4567	0.24899	0.54093	-0.235
Mof_C 	C 	0.5314	0.28945	0.6178	0.118
Mof_H 	H 	0.5984	0.2555	0.6519	0.011
Mof_C 	C 	0.4846	0.1517	0.50996	0.555
Mof_H 	H 	0.301	0.276	0.443	-0.004
Mof_O 	O 	0.5363	0.00634	0.731	-0.472
Mof_O 	O 	0.7047	0.10856	0.74975	-0.443
Mof_O 	O 	0.4077	0.38214	0.05546	-0.662
Mof_O 	O 	0.5828	0.3887	0.94985	-0.67
Mof_C 	C 	0.5885	0.07607	0.77421	0.354
Mof_C 	C 	0.5072	0.12005	0.8558	-0.214
Mof_C 	C 	0.4077	0.0699	0.908	0.112
Mof_H 	H 	0.3905	0.0092	0.8913	-0.074
Mof_C 	C 	0.3342	0.11	0.9848	-0.251
Mof_H 	H 	0.2688	0.0758	0.0202	0.065
Mof_C 	C 	0.3572	0.2002	0.0093	0.185
Mof_C 	C 	0.4567	0.25101	0.95907	-0.3
Mof_C 	C 	0.5314	0.21055	0.8822	0.169
Mof_H 	H 	0.5984	0.2445	0.8481	-0.011
Mof_C 	C 	0.4846	0.3483	0.99004	0.639
Mof_H 	H 	0.301	0.224	0.057	-0.033
Mof_O 	O 	0.9637	0.99366	0.731	-0.247
Mof_O 	O 	0.7953	0.89144	0.74975	-0.326
Mof_O 	O 	0.0923	0.61786	0.05546	-0.652
Mof_O 	O 	0.9172	0.6113	0.94985	-0.665
Mof_C 	C 	0.9115	0.92393	0.77421	0.327
Mof_C 	C 	0.9928	0.87995	0.8558	-0.126
Mof_C 	C 	0.0923	0.9301	0.908	0.11
Mof_H 	H 	0.1095	0.9908	0.8913	0.087
Mof_C 	C 	0.1658	0.89	0.9848	-0.172
Mof_H 	H 	0.2312	0.9242	0.0202	0.157
Mof_C 	C 	0.1428	0.7998	0.0093	0.182
Mof_C 	C 	0.0433	0.74899	0.95907	-0.268
Mof_C 	C 	0.9686	0.78945	0.8822	0.14
Mof_H 	H 	0.9016	0.7555	0.8481	0.003
Mof_C 	C 	0.0154	0.6517	0.99004	0.63
Mof_H 	H 	0.199	0.776	0.057	-0.016
Mof_Nd	Nd	0.25	0.5	0.10438	2.72
Mof_Nd	Nd	0.25	3.35577e-33	0.39563	2.014
Mof_Nd	Nd	0.75	0.5	0.89563	2.719
Mof_Nd	Nd	0.75	0	0.60438	2.003
_end
