data_functionalizedCrystal
_audit_creation_method	'EQeq! by Chris Wilmer'
_symmetry_space_group_name_H-M	'P1'
_symmetry_Int_Tables_number	1
_symmetry_cell_setting	triclinic
loop_
_symmetry_equiv_pos_as_xyz
  x,y,z
_cell_length_a	27.019
_cell_length_b	38.427
_cell_length_c	38.738
_cell_angle_alpha	90
_cell_angle_beta	90
_cell_angle_gamma	90
loop_
_atom_site_label
_atom_site_type_symbol
_atom_site_fract_x
_atom_site_fract_y
_atom_site_fract_z
_atom_site_charge
Mof_W 	W 	0.82488	0.5681	0.35524	0.956
Mof_W 	W 	0.72723	0.51528	0.35717	0.979
Mof_W 	W 	0.65749	0.59545	0.32578	0.969
Mof_W 	W 	0.75496	0.64861	0.32468	0.968
Mof_W 	W 	0.68785	0.7259	0.3611	1.315
Mof_W 	W 	0.58793	0.67689	0.35011	0.98
Mof_W 	W 	0.57684	0.59941	0.40347	1.071
Mof_W 	W 	0.79523	0.68733	0.406	1.089
Mof_W 	W 	0.86219	0.60894	0.43827	1.081
Mof_W 	W 	0.64578	0.51982	0.43208	1.429
Mof_W 	W 	0.76216	0.46883	0.43916	0.974
Mof_W 	W 	0.86711	0.51487	0.4316	1.018
Mof_W 	W 	0.86678	0.51374	0.52991	0.994
Mof_W 	W 	0.7621	0.46907	0.53726	0.98
Mof_W 	W 	0.64611	0.5168	0.52878	1.086
Mof_W 	W 	0.85988	0.6101	0.53499	1.088
Mof_W 	W 	0.78934	0.68908	0.56274	1.364
Mof_W 	W 	0.57795	0.59565	0.55938	1.376
Mof_W 	W 	0.53394	0.64641	0.4832	1.159
Mof_W 	W 	0.75047	0.73702	0.48331	1.131
Mof_W 	W 	0.64392	0.77522	0.4399	0.967
Mof_W 	W 	0.54336	0.72609	0.42978	1.203
Mof_W 	W 	0.53762	0.73038	0.52662	0.977
Mof_W 	W 	0.64644	0.77093	0.53609	0.946
Mof_W 	W 	0.68549	0.7194	0.61479	0.937
Mof_W 	W 	0.57601	0.67968	0.60633	0.979
Mof_W 	W 	0.64424	0.60238	0.64112	0.994
Mof_W 	W 	0.75533	0.63958	0.64126	0.95
Mof_W 	W 	0.82493	0.55983	0.61039	0.961
Mof_W 	W 	0.71419	0.52232	0.61169	1
Mof_Co	Co	0.45828	0.54628	0.57617	1.081
Mof_Co	Co	0.4113	0.76256	0.41929	1.138
Mof_Co	Co	0.72281	0.80431	0.30688	1.08
Mof_Co	Co	0.92176	0.67644	0.14097	0.993
Mof_K 	K 	0.7583	0.64393	0.48481	-7.216
Mof_P 	P 	0.6849	0.64493	0.3972	0.316
Mof_P 	P 	0.7592	0.55878	0.4311	0.332
Mof_P 	P 	0.7559	0.55854	0.5364	0.296
Mof_P 	P 	0.6809	0.64442	0.5692	0.345
Mof_P 	P 	0.6362	0.69803	0.483	0.33
Mof_O 	O 	0.7076	0.622	0.3001	-0.435
Mof_O 	O 	0.6968	0.5568	0.3307	-0.42
Mof_O 	O 	0.7913	0.6018	0.3324	-0.423
Mof_O 	O 	0.7863	0.5297	0.335	-0.429
Mof_O 	O 	0.8544	0.5278	0.3886	-0.433
Mof_O 	O 	0.7551	0.4849	0.3877	-0.429
Mof_O 	O 	0.6706	0.5206	0.3861	-0.49
Mof_O 	O 	0.7606	0.5583	0.3905	-0.296
Mof_O 	O 	0.8506	0.5972	0.3898	-0.463
Mof_O 	O 	0.7933	0.6625	0.364	-0.469
Mof_O 	O 	0.7032	0.6256	0.3647	-0.297
Mof_O 	O 	0.6132	0.5871	0.3607	-0.471
Mof_O 	O 	0.6211	0.6442	0.3257	-0.433
Mof_O 	O 	0.7179	0.6885	0.3281	-0.43
Mof_O 	O 	0.7109	0.7592	0.3351	-0.543
Mof_O 	O 	0.6277	0.7158	0.3365	-0.454
Mof_O 	O 	0.5656	0.6433	0.3827	-0.466
Mof_O 	O 	0.6576	0.6788	0.3849	-0.318
Mof_O 	O 	0.7448	0.7164	0.3859	-0.485
Mof_O 	O 	0.73	0.6551	0.4194	0.196
Mof_O 	O 	0.6495	0.6227	0.4195	0.231
Mof_O 	O 	0.6091	0.5605	0.428	-0.052
Mof_O 	O 	0.8269	0.6525	0.4323	0.003
Mof_O 	O 	0.7847	0.5907	0.4451	0.181
Mof_O 	O 	0.7054	0.5564	0.4432	0.114
Mof_O 	O 	0.6004	0.4891	0.4231	-0.624
Mof_O 	O 	0.6971	0.4863	0.4417	-0.473
Mof_O 	O 	0.7866	0.5246	0.442	-0.301
Mof_O 	O 	0.8781	0.5609	0.4443	-0.476
Mof_O 	O 	0.8333	0.4703	0.4289	-0.428
Mof_O 	O 	0.771	0.4652	0.4859	-0.425
Mof_O 	O 	0.8679	0.5063	0.4839	-0.418
Mof_O 	O 	0.8575	0.6184	0.4849	-0.068
Mof_O 	O 	0.637	0.5224	0.4804	-0.16
Mof_O 	O 	0.5554	0.615	0.4472	-0.127
Mof_O 	O 	0.7779	0.7073	0.4494	-0.052
Mof_O 	O 	0.6592	0.7517	0.3934	-0.46
Mof_O 	O 	0.5632	0.7108	0.3875	-0.429
Mof_O 	O 	0.4849	0.7417	0.4159	-0.509
Mof_O 	O 	0.5756	0.7718	0.425	-0.427
Mof_O 	O 	0.7093	0.758	0.4492	-0.452
Mof_O 	O 	0.6184	0.7196	0.4498	-0.315
Mof_O 	O 	0.5275	0.6813	0.4495	-0.49
Mof_O 	O 	0.6129	0.6623	0.4825	0.204
Mof_O 	O 	0.6942	0.696	0.4834	0.215
Mof_O 	O 	0.7781	0.7069	0.518	-0.039
Mof_O 	O 	0.5584	0.6153	0.516	-0.101
Mof_O 	O 	0.5201	0.5755	0.5675	-0.608
Mof_O 	O 	0.6473	0.6216	0.5468	0.147
Mof_O 	O 	0.725	0.6565	0.5484	0.142
Mof_O 	O 	0.8414	0.715	0.5722	-0.58
Mof_O 	O 	0.8236	0.6526	0.5379	0.011
Mof_O 	O 	0.6063	0.5601	0.5334	-0.016
Mof_O 	O 	0.7041	0.5566	0.5212	0.155
Mof_O 	O 	0.7816	0.5915	0.5231	0.226
Mof_O 	O 	0.874	0.562	0.5257	-0.465
Mof_O 	O 	0.7851	0.5258	0.5244	-0.282
Mof_O 	O 	0.6957	0.484	0.5208	-0.448
Mof_O 	O 	0.8316	0.4709	0.5415	-0.441
Mof_O 	O 	0.8503	0.5277	0.5796	-0.429
Mof_O 	O 	0.7479	0.4869	0.5788	-0.436
Mof_O 	O 	0.6645	0.5202	0.5774	-0.466
Mof_O 	O 	0.7537	0.5582	0.5776	-0.292
Mof_O 	O 	0.8466	0.5961	0.5799	-0.472
Mof_O 	O 	0.7882	0.6616	0.6041	-0.487
Mof_O 	O 	0.6968	0.6249	0.602	-0.309
Mof_O 	O 	0.6107	0.584	0.6032	-0.485
Mof_O 	O 	0.5637	0.6402	0.5789	-0.472
Mof_O 	O 	0.6517	0.6767	0.5803	-0.29
Mof_O 	O 	0.74	0.7173	0.5831	-0.478
Mof_O 	O 	0.7093	0.7581	0.5163	-0.471
Mof_O 	O 	0.6194	0.7184	0.5143	-0.288
Mof_O 	O 	0.5256	0.6815	0.5166	-0.463
Mof_O 	O 	0.5345	0.7412	0.4829	-0.457
Mof_O 	O 	0.634	0.7832	0.4856	-0.445
Mof_O 	O 	0.5751	0.7704	0.5425	-0.437
Mof_O 	O 	0.5572	0.7102	0.5737	-0.434
Mof_O 	O 	0.6564	0.7494	0.578	-0.438
Mof_O 	O 	0.6178	0.7125	0.6308	-0.435
Mof_O 	O 	0.6108	0.6422	0.6383	-0.447
Mof_O 	O 	0.7137	0.6843	0.6415	-0.432
Mof_O 	O 	0.6995	0.6213	0.668	-0.428
Mof_O 	O 	0.6882	0.5599	0.6347	-0.427
Mof_O 	O 	0.7866	0.5971	0.6351	-0.42
Mof_O 	O 	0.7775	0.5282	0.6323	-0.43
Mof_N 	N 	0.3473	0.5694	0.393	-0.309
Mof_H 	H 	0.3571	0.5505	0.3873	0.135
Mof_N 	N 	0.3099	0.5821	0.3742	-0.141
Mof_N 	N 	0.3413	0.7066	0.4471	-0.222
Mof_H 	H 	0.3305	0.7218	0.4615	0.086
Mof_N 	N 	0.3821	0.7129	0.4266	-0.242
Mof_N 	N 	0.4441	0.8118	0.4089	-0.242
Mof_N 	N 	0.4879	0.8194	0.4278	-0.216
Mof_H 	H 	0.4985	0.8084	0.4456	0.1
Mof_C 	C 	0.5111	0.8485	0.412	0.286
Mof_C 	C 	0.4817	0.8588	0.3834	-0.208
Mof_C 	C 	0.4403	0.8361	0.3815	0.304
Mof_N 	N 	0.6875	0.7416	0.2661	-0.21
Mof_H 	H 	0.707	0.7297	0.279	0.126
Mof_N 	N 	0.6783	0.7767	0.2697	-0.223
Mof_N 	N 	0.935	0.5558	0.9782	-0.144
Mof_N 	N 	0.8906	0.5703	0.9732	-0.218
Mof_H 	H 	0.8692	0.5627	0.9586	0.136
Mof_N 	N 	0.94	0.6495	0.0959	-0.292
Mof_N 	N 	0.9728	0.6629	0.0735	-0.229
Mof_H 	H 	0.991	0.6803	0.0792	0.06
Mof_N 	N 	0.9341	0.7374	0.1919	-0.214
Mof_H 	H 	0.9624	0.7416	0.1825	0.059
Mof_N 	N 	0.9049	0.7068	0.1849	-0.306
Mof_N 	N 	0.7846	0.7786	0.2844	-0.26
Mof_N 	N 	0.811	0.7574	0.3079	-0.252
Mof_H 	H 	0.8054	0.7558	0.3297	0.112
Mof_N 	N 	0.7493	0.8227	0.3804	-0.193
Mof_H 	H 	0.7209	0.8141	0.3857	0.074
Mof_N 	N 	0.7667	0.8237	0.3479	-0.245
Mof_C 	C 	0.4066	0.5873	0.4325	-1.207
Mof_H 	H 	0.413	0.5628	0.4339	0.337
Mof_H 	H 	0.3989	0.5961	0.4551	0.349
Mof_H 	H 	0.4354	0.599	0.4237	0.342
Mof_C 	C 	0.3692	0.5929	0.4118	0.488
Mof_C 	C 	0.3416	0.6265	0.4041	-0.19
Mof_C 	C 	0.3057	0.6134	0.3796	0.173
Mof_C 	C 	0.268	0.6417	0.3647	-0.527
Mof_H 	H 	0.241	0.6448	0.3805	0.136
Mof_H 	H 	0.2554	0.634	0.3428	0.145
Mof_H 	H 	0.2849	0.6635	0.3617	0.152
Mof_C 	C 	0.2747	0.6673	0.4638	-0.643
Mof_H 	H 	0.2577	0.6879	0.4713	0.186
Mof_H 	H 	0.2839	0.6536	0.4835	0.185
Mof_H 	H 	0.2532	0.6539	0.4491	0.181
Mof_C 	C 	0.3211	0.6776	0.4437	0.226
Mof_C 	C 	0.351	0.6598	0.4204	-0.144
Mof_C 	C 	0.3878	0.6814	0.4105	0.227
Mof_C 	C 	0.4288	0.6731	0.3851	-0.704
Mof_H 	H 	0.4364	0.6935	0.3718	0.223
Mof_H 	H 	0.4182	0.6548	0.3699	0.211
Mof_H 	H 	0.4577	0.6657	0.3975	0.218
Mof_C 	C 	0.5564	0.8618	0.4275	-0.799
Mof_H 	H 	0.5483	0.8797	0.4439	0.251
Mof_H 	H 	0.5773	0.8712	0.4098	0.247
Mof_H 	H 	0.5733	0.8432	0.4391	0.243
Mof_C 	C 	0.399	0.8405	0.359	-0.842
Mof_H 	H 	0.407	0.8315	0.3366	0.255
Mof_H 	H 	0.3912	0.8648	0.3572	0.259
Mof_H 	H 	0.371	0.8282	0.3681	0.258
Mof_C 	C 	0.4728	0.9382	0.4092	-0.611
Mof_H 	H 	0.4413	0.9289	0.416	0.182
Mof_H 	H 	0.471	0.9632	0.4085	0.18
Mof_H 	H 	0.4976	0.9313	0.4256	0.19
Mof_C 	C 	0.5025	0.887	0.3304	0.127
Mof_C 	C 	0.4886	0.8892	0.3657	-0.062
Mof_C 	C 	0.4861	0.925	0.3748	0.171
Mof_N 	N 	0.4984	0.9448	0.3451	-0.13
Mof_N 	N 	0.5085	0.9214	0.3177	-0.183
Mof_H 	H 	0.5169	0.927	0.297	0.097
Mof_C 	C 	0.51	0.8556	0.3027	-0.519
Mof_H 	H 	0.534	0.8393	0.3115	0.154
Mof_H 	H 	0.5219	0.865	0.2813	0.152
Mof_H 	H 	0.4792	0.8439	0.299	0.154
Mof_C 	C 	0.522	0.7605	0.2119	-0.913
Mof_H 	H 	0.5182	0.7379	0.222	0.271
Mof_H 	H 	0.4922	0.7675	0.2008	0.28
Mof_H 	H 	0.5306	0.777	0.2296	0.269
Mof_C 	C 	0.6131	0.7543	0.1902	-0.3
Mof_C 	C 	0.6333	0.7517	0.1564	0.514
Mof_N 	N 	0.5939	0.7551	0.1324	-0.29
Mof_N 	N 	0.5494	0.7599	0.1513	-0.233
Mof_H 	H 	0.5203	0.7626	0.1427	0.12
Mof_C 	C 	0.5613	0.7594	0.187	0.336
Mof_C 	C 	0.6813	0.7493	0.151	-1.291
Mof_H 	H 	0.6975	0.7694	0.1604	0.38
Mof_H 	H 	0.6876	0.748	0.1267	0.388
Mof_H 	H 	0.6939	0.7288	0.1621	0.38
Mof_C 	C 	0.6727	0.6911	0.2287	-0.644
Mof_H 	H 	0.7074	0.6883	0.2242	0.186
Mof_H 	H 	0.6543	0.686	0.2081	0.193
Mof_H 	H 	0.6629	0.6754	0.2468	0.207
Mof_C 	C 	0.6622	0.7289	0.2401	0.214
Mof_C 	C 	0.639	0.7516	0.2235	-0.08
Mof_C 	C 	0.6471	0.7852	0.2422	0.126
Mof_C 	C 	0.6278	0.8221	0.2387	-0.533
Mof_H 	H 	0.6452	0.837	0.2544	0.118
Mof_H 	H 	0.5931	0.8225	0.2439	0.149
Mof_H 	H 	0.633	0.8301	0.2155	0.145
Mof_C 	C 	0.0103	0.564	0.0123	-0.63
Mof_H 	H 	0.0192	0.5415	0.0033	0.185
Mof_H 	H 	0.0143	0.564	0.0369	0.187
Mof_H 	H 	0.0313	0.5814	0.0023	0.183
Mof_C 	C 	0.9584	0.5715	0.0036	0.198
Mof_C 	C 	0.9287	0.5992	0.0152	-0.122
Mof_C 	C 	0.8835	0.5974	0.9934	0.228
Mof_C 	C 	0.8378	0.6182	0.9952	-0.667
Mof_H 	H 	0.8432	0.6403	0.9843	0.19
Mof_H 	H 	0.8289	0.6217	0.0189	0.193
Mof_H 	H 	0.8116	0.6061	0.9835	0.192
Mof_C 	C 	0.8762	0.6051	0.09	-0.811
Mof_H 	H 	0.8861	0.5942	0.1112	0.214
Mof_H 	H 	0.8655	0.5877	0.074	0.26
Mof_H 	H 	0.8495	0.621	0.0945	0.202
Mof_C 	C 	0.9159	0.6233	0.0762	0.249
Mof_C 	C 	0.9374	0.6249	0.0397	-0.164
Mof_C 	C 	0.9763	0.6492	0.0436	0.273
Mof_C 	C 	0.0074	0.6606	0.0147	-0.766
Mof_H 	H 	0.0214	0.683	0.0199	0.23
Mof_H 	H 	0.9876	0.6622	0.9942	0.243
Mof_H 	H 	0.0335	0.6441	0.0111	0.222
Mof_C 	C 	0.8251	0.6883	0.2082	-0.728
Mof_H 	H 	0.8155	0.6826	0.185	0.172
Mof_H 	H 	0.799	0.7011	0.2192	0.219
Mof_H 	H 	0.8312	0.6673	0.2209	0.191
Mof_C 	C 	0.8693	0.709	0.2075	0.238
Mof_C 	C 	0.8767	0.7388	0.2289	-0.12
Mof_C 	C 	0.913	0.7578	0.214	0.202
Mof_C 	C 	0.9394	0.7919	0.2251	-0.611
Mof_H 	H 	0.9701	0.7863	0.2363	0.17
Mof_H 	H 	0.9186	0.8045	0.2408	0.183
Mof_H 	H 	0.9458	0.8059	0.2051	0.181
Mof_C 	C 	0.7801	0.7922	0.2242	-0.725
Mof_H 	H 	0.7475	0.8004	0.23	0.192
Mof_H 	H 	0.778	0.7764	0.2051	0.219
Mof_H 	H 	0.8006	0.8116	0.2179	0.221
Mof_C 	C 	0.8022	0.7739	0.2548	0.268
Mof_C 	C 	0.841	0.7479	0.2549	-0.248
Mof_C 	C 	0.8479	0.7394	0.2897	0.45
Mof_C 	C 	0.8765	0.716	0.3046	-1.097
Mof_H 	H 	0.9091	0.7171	0.2948	0.314
Mof_H 	H 	0.8629	0.6932	0.301	0.309
Mof_H 	H 	0.8783	0.7207	0.329	0.304
Mof_C 	C 	0.8466	0.842	0.3223	-0.66
Mof_H 	H 	0.8704	0.8235	0.3229	0.199
Mof_H 	H 	0.8634	0.864	0.3227	0.192
Mof_H 	H 	0.8272	0.8402	0.3016	0.174
Mof_C 	C 	0.8137	0.8393	0.3528	0.209
Mof_C 	C 	0.8223	0.8471	0.3862	-0.137
Mof_C 	C 	0.7807	0.8365	0.4044	0.168
Mof_C 	C 	0.7689	0.8413	0.4438	-0.556
Mof_H 	H 	0.7357	0.8498	0.4464	0.152
Mof_H 	H 	0.7917	0.8577	0.4536	0.166
Mof_H 	H 	0.7721	0.8193	0.4554	0.155
Mof_C 	C 	0.9011	0.8163	0.4468	-0.563
Mof_H 	H 	0.9182	0.8001	0.4323	0.16
Mof_H 	H 	0.8688	0.8073	0.4523	0.165
Mof_H 	H 	0.9195	0.8197	0.4677	0.165
Mof_C 	C 	0.8745	0.8995	0.3956	0.21
Mof_N 	N 	0.914	0.909	0.4179	-0.246
Mof_N 	N 	0.9271	0.8794	0.4377	-0.194
Mof_H 	H 	0.95	0.8784	0.4531	0.081
Mof_C 	C 	0.8957	0.8515	0.4277	0.164
Mof_C 	C 	0.8632	0.864	0.4017	-0.121
Mof_C 	C 	0.853	0.925	0.3723	-0.693
Mof_H 	H 	0.8548	0.9477	0.3825	0.206
Mof_H 	H 	0.819	0.9191	0.368	0.205
Mof_H 	H 	0.871	0.9249	0.3509	0.185
Mof_O 	O 	0.6814	0.6105	0.4814	2.874
Mof_K 	K 	0.6497	0.5988	0.482	-6.968
Mof_O 	O 	0.728	0.6296	0.4864	2.952
Mof_W 	W 	0.67512	0.9319	0.85524	0.955
Mof_W 	W 	0.77277	0.98472	0.85717	0.979
Mof_W 	W 	0.84251	0.90455	0.82578	0.968
Mof_W 	W 	0.74504	0.85139	0.82468	0.967
Mof_W 	W 	0.81215	0.7741	0.8611	1.315
Mof_W 	W 	0.91207	0.82311	0.85011	0.981
Mof_W 	W 	0.92316	0.90059	0.90347	1.072
Mof_W 	W 	0.70477	0.81267	0.906	1.089
Mof_W 	W 	0.63781	0.89106	0.93827	1.081
Mof_W 	W 	0.85422	0.98018	0.93208	1.429
Mof_W 	W 	0.73784	0.03117	0.93916	0.974
Mof_W 	W 	0.63289	0.98513	0.9316	1.019
Mof_W 	W 	0.63322	0.98626	0.02991	0.994
Mof_W 	W 	0.7379	0.03093	0.03726	0.98
Mof_W 	W 	0.85389	0.9832	0.02878	1.085
Mof_W 	W 	0.64012	0.8899	0.03499	1.088
Mof_W 	W 	0.71066	0.81092	0.06274	1.364
Mof_W 	W 	0.92205	0.90435	0.05938	1.376
Mof_W 	W 	0.96606	0.85359	0.9832	1.16
Mof_W 	W 	0.74953	0.76298	0.98331	1.131
Mof_W 	W 	0.85608	0.72478	0.9399	0.967
Mof_W 	W 	0.95664	0.77391	0.92978	1.204
Mof_W 	W 	0.96238	0.76962	0.02662	0.976
Mof_W 	W 	0.85356	0.72907	0.03609	0.945
Mof_W 	W 	0.81451	0.7806	0.11479	0.937
Mof_W 	W 	0.92399	0.82032	0.10633	0.979
Mof_W 	W 	0.85576	0.89762	0.14112	0.994
Mof_W 	W 	0.74467	0.86042	0.14126	0.95
Mof_W 	W 	0.67507	0.94017	0.11039	0.961
Mof_W 	W 	0.78581	0.97768	0.11169	1
Mof_Co	Co	0.04172	0.95372	0.07617	1.081
Mof_Co	Co	0.0887	0.73744	0.91929	1.137
Mof_Co	Co	0.77719	0.69569	0.80688	1.08
Mof_Co	Co	0.57824	0.82356	0.64097	0.993
Mof_K 	K 	0.7417	0.85607	0.98481	-7.216
Mof_P 	P 	0.8151	0.85507	0.8972	0.316
Mof_P 	P 	0.7408	0.94122	0.9311	0.332
Mof_P 	P 	0.7441	0.94146	0.0364	0.296
Mof_P 	P 	0.8191	0.85558	0.0692	0.345
Mof_P 	P 	0.8638	0.80197	0.983	0.33
Mof_O 	O 	0.7924	0.878	0.8001	-0.435
Mof_O 	O 	0.8032	0.9432	0.8307	-0.42
Mof_O 	O 	0.7087	0.8982	0.8324	-0.423
Mof_O 	O 	0.7137	0.9703	0.835	-0.429
Mof_O 	O 	0.6456	0.9722	0.8886	-0.433
Mof_O 	O 	0.7449	0.0151	0.8877	-0.429
Mof_O 	O 	0.8294	0.9794	0.8861	-0.49
Mof_O 	O 	0.7394	0.9417	0.8905	-0.296
Mof_O 	O 	0.6494	0.9028	0.8898	-0.463
Mof_O 	O 	0.7067	0.8375	0.864	-0.469
Mof_O 	O 	0.7968	0.8744	0.8647	-0.297
Mof_O 	O 	0.8868	0.9129	0.8607	-0.471
Mof_O 	O 	0.8789	0.8558	0.8257	-0.433
Mof_O 	O 	0.7821	0.8115	0.8281	-0.43
Mof_O 	O 	0.7891	0.7408	0.8351	-0.543
Mof_O 	O 	0.8723	0.7842	0.8365	-0.454
Mof_O 	O 	0.9344	0.8567	0.8827	-0.466
Mof_O 	O 	0.8424	0.8212	0.8849	-0.318
Mof_O 	O 	0.7552	0.7836	0.8859	-0.485
Mof_O 	O 	0.77	0.8449	0.9194	0.196
Mof_O 	O 	0.8505	0.8773	0.9195	0.232
Mof_O 	O 	0.8909	0.9395	0.928	-0.052
Mof_O 	O 	0.6731	0.8475	0.9323	0.003
Mof_O 	O 	0.7153	0.9093	0.9451	0.181
Mof_O 	O 	0.7946	0.9436	0.9432	0.114
Mof_O 	O 	0.8996	0.0109	0.9231	-0.624
Mof_O 	O 	0.8029	0.0137	0.9417	-0.473
Mof_O 	O 	0.7134	0.9754	0.942	-0.301
Mof_O 	O 	0.6219	0.9391	0.9443	-0.476
Mof_O 	O 	0.6667	0.0297	0.9289	-0.428
Mof_O 	O 	0.729	0.0348	0.9859	-0.425
Mof_O 	O 	0.6321	0.9937	0.9839	-0.417
Mof_O 	O 	0.6425	0.8816	0.9849	-0.068
Mof_O 	O 	0.863	0.9776	0.9804	-0.16
Mof_O 	O 	0.9446	0.885	0.9472	-0.127
Mof_O 	O 	0.7221	0.7927	0.9494	-0.053
Mof_O 	O 	0.8408	0.7483	0.8934	-0.46
Mof_O 	O 	0.9368	0.7892	0.8875	-0.429
Mof_O 	O 	0.0151	0.7583	0.9159	-0.51
Mof_O 	O 	0.9244	0.7282	0.925	-0.427
Mof_O 	O 	0.7907	0.742	0.9492	-0.452
Mof_O 	O 	0.8816	0.7804	0.9498	-0.315
Mof_O 	O 	0.9725	0.8187	0.9495	-0.49
Mof_O 	O 	0.8871	0.8377	0.9825	0.205
Mof_O 	O 	0.8058	0.804	0.9834	0.215
Mof_O 	O 	0.7219	0.7931	0.018	-0.04
Mof_O 	O 	0.9416	0.8847	0.016	-0.101
Mof_O 	O 	0.9799	0.9245	0.0675	-0.608
Mof_O 	O 	0.8527	0.8784	0.0468	0.147
Mof_O 	O 	0.775	0.8435	0.0484	0.142
Mof_O 	O 	0.6586	0.785	0.0722	-0.58
Mof_O 	O 	0.6764	0.8474	0.0379	0.011
Mof_O 	O 	0.8937	0.9399	0.0334	-0.016
Mof_O 	O 	0.7959	0.9434	0.0212	0.155
Mof_O 	O 	0.7184	0.9085	0.0231	0.226
Mof_O 	O 	0.626	0.938	0.0257	-0.465
Mof_O 	O 	0.7149	0.9742	0.0244	-0.282
Mof_O 	O 	0.8043	0.016	0.0208	-0.448
Mof_O 	O 	0.6684	0.0291	0.0415	-0.441
Mof_O 	O 	0.6497	0.9723	0.0796	-0.429
Mof_O 	O 	0.7521	0.0131	0.0788	-0.436
Mof_O 	O 	0.8355	0.9798	0.0774	-0.466
Mof_O 	O 	0.7463	0.9418	0.0776	-0.292
Mof_O 	O 	0.6534	0.9039	0.0799	-0.472
Mof_O 	O 	0.7118	0.8384	0.1041	-0.487
Mof_O 	O 	0.8032	0.8751	0.102	-0.309
Mof_O 	O 	0.8893	0.916	0.1032	-0.485
Mof_O 	O 	0.9363	0.8598	0.0789	-0.472
Mof_O 	O 	0.8483	0.8233	0.0803	-0.29
Mof_O 	O 	0.76	0.7827	0.0831	-0.478
Mof_O 	O 	0.7907	0.7419	0.0163	-0.471
Mof_O 	O 	0.8806	0.7816	0.0143	-0.288
Mof_O 	O 	0.9744	0.8185	0.0166	-0.464
Mof_O 	O 	0.9655	0.7588	0.9829	-0.457
Mof_O 	O 	0.866	0.7168	0.9856	-0.445
Mof_O 	O 	0.9249	0.7296	0.0425	-0.437
Mof_O 	O 	0.9428	0.7898	0.0737	-0.434
Mof_O 	O 	0.8436	0.7506	0.078	-0.437
Mof_O 	O 	0.8822	0.7875	0.1308	-0.435
Mof_O 	O 	0.8892	0.8578	0.1383	-0.447
Mof_O 	O 	0.7863	0.8157	0.1415	-0.432
Mof_O 	O 	0.8005	0.8787	0.168	-0.428
Mof_O 	O 	0.8118	0.9401	0.1347	-0.427
Mof_O 	O 	0.7134	0.9029	0.1351	-0.42
Mof_O 	O 	0.7225	0.9718	0.1323	-0.43
Mof_N 	N 	0.1527	0.9306	0.893	-0.309
Mof_H 	H 	0.1429	0.9495	0.8873	0.135
Mof_N 	N 	0.1901	0.9179	0.8742	-0.141
Mof_N 	N 	0.1587	0.7934	0.9471	-0.222
Mof_H 	H 	0.1695	0.7782	0.9615	0.086
Mof_N 	N 	0.1179	0.7871	0.9266	-0.242
Mof_N 	N 	0.0559	0.6882	0.9089	-0.243
Mof_N 	N 	0.0121	0.6806	0.9278	-0.217
Mof_H 	H 	0.0015	0.6916	0.9456	0.099
Mof_C 	C 	0.9889	0.6515	0.912	0.287
Mof_C 	C 	0.0183	0.6412	0.8834	-0.209
Mof_C 	C 	0.0597	0.6639	0.8815	0.304
Mof_N 	N 	0.8125	0.7584	0.7661	-0.21
Mof_H 	H 	0.793	0.7703	0.779	0.126
Mof_N 	N 	0.8217	0.7233	0.7697	-0.223
Mof_N 	N 	0.565	0.9442	0.4782	-0.144
Mof_N 	N 	0.6094	0.9297	0.4732	-0.218
Mof_H 	H 	0.6308	0.9373	0.4586	0.136
Mof_N 	N 	0.56	0.8505	0.5959	-0.292
Mof_N 	N 	0.5272	0.8371	0.5735	-0.23
Mof_H 	H 	0.509	0.8197	0.5792	0.06
Mof_N 	N 	0.5659	0.7626	0.6919	-0.214
Mof_H 	H 	0.5376	0.7584	0.6825	0.059
Mof_N 	N 	0.5951	0.7932	0.6849	-0.306
Mof_N 	N 	0.7154	0.7214	0.7844	-0.26
Mof_N 	N 	0.689	0.7426	0.8079	-0.252
Mof_H 	H 	0.6946	0.7442	0.8297	0.112
Mof_N 	N 	0.7507	0.6773	0.8804	-0.193
Mof_H 	H 	0.7791	0.6859	0.8857	0.074
Mof_N 	N 	0.7333	0.6763	0.8479	-0.245
Mof_C 	C 	0.0934	0.9127	0.9325	-1.206
Mof_H 	H 	0.087	0.9372	0.9339	0.337
Mof_H 	H 	0.1011	0.9039	0.9551	0.349
Mof_H 	H 	0.0646	0.901	0.9237	0.342
Mof_C 	C 	0.1308	0.9071	0.9118	0.488
Mof_C 	C 	0.1584	0.8735	0.9041	-0.19
Mof_C 	C 	0.1943	0.8866	0.8796	0.173
Mof_C 	C 	0.232	0.8583	0.8647	-0.527
Mof_H 	H 	0.259	0.8552	0.8805	0.136
Mof_H 	H 	0.2446	0.866	0.8428	0.145
Mof_H 	H 	0.2151	0.8365	0.8617	0.152
Mof_C 	C 	0.2253	0.8327	0.9638	-0.643
Mof_H 	H 	0.2423	0.8121	0.9713	0.186
Mof_H 	H 	0.2161	0.8464	0.9835	0.184
Mof_H 	H 	0.2468	0.8461	0.9491	0.18
Mof_C 	C 	0.1789	0.8224	0.9437	0.226
Mof_C 	C 	0.149	0.8402	0.9204	-0.144
Mof_C 	C 	0.1122	0.8186	0.9105	0.227
Mof_C 	C 	0.0712	0.8269	0.8851	-0.704
Mof_H 	H 	0.0636	0.8065	0.8718	0.223
Mof_H 	H 	0.0818	0.8452	0.8699	0.211
Mof_H 	H 	0.0423	0.8343	0.8975	0.218
Mof_C 	C 	0.9436	0.6382	0.9275	-0.801
Mof_H 	H 	0.9517	0.6203	0.9439	0.251
Mof_H 	H 	0.9227	0.6288	0.9098	0.248
Mof_H 	H 	0.9267	0.6568	0.9391	0.244
Mof_C 	C 	0.101	0.6595	0.859	-0.842
Mof_H 	H 	0.093	0.6685	0.8366	0.255
Mof_H 	H 	0.1088	0.6352	0.8572	0.259
Mof_H 	H 	0.129	0.6718	0.8681	0.258
Mof_C 	C 	0.0272	0.5618	0.9092	-0.61
Mof_H 	H 	0.0587	0.5711	0.916	0.182
Mof_H 	H 	0.029	0.5368	0.9085	0.18
Mof_H 	H 	0.0024	0.5687	0.9256	0.19
Mof_C 	C 	0.9975	0.613	0.8304	0.127
Mof_C 	C 	0.0114	0.6108	0.8657	-0.062
Mof_C 	C 	0.0139	0.575	0.8748	0.171
Mof_N 	N 	0.0016	0.5552	0.8451	-0.131
Mof_N 	N 	0.9915	0.5786	0.8177	-0.182
Mof_H 	H 	0.9831	0.573	0.797	0.097
Mof_C 	C 	0.99	0.6444	0.8027	-0.518
Mof_H 	H 	0.966	0.6607	0.8115	0.153
Mof_H 	H 	0.9781	0.635	0.7813	0.152
Mof_H 	H 	0.0208	0.6561	0.799	0.154
Mof_C 	C 	0.978	0.7395	0.7119	-0.912
Mof_H 	H 	0.9818	0.7621	0.722	0.271
Mof_H 	H 	0.0078	0.7325	0.7008	0.28
Mof_H 	H 	0.9694	0.723	0.7296	0.269
Mof_C 	C 	0.8869	0.7457	0.6902	-0.299
Mof_C 	C 	0.8667	0.7483	0.6564	0.513
Mof_N 	N 	0.9061	0.7449	0.6324	-0.29
Mof_N 	N 	0.9506	0.7401	0.6513	-0.233
Mof_H 	H 	0.9797	0.7374	0.6427	0.12
Mof_C 	C 	0.9387	0.7406	0.687	0.336
Mof_C 	C 	0.8187	0.7507	0.651	-1.291
Mof_H 	H 	0.8025	0.7306	0.6604	0.38
Mof_H 	H 	0.8124	0.752	0.6267	0.388
Mof_H 	H 	0.8061	0.7712	0.6621	0.38
Mof_C 	C 	0.8273	0.8089	0.7287	-0.644
Mof_H 	H 	0.7926	0.8117	0.7242	0.186
Mof_H 	H 	0.8457	0.814	0.7081	0.193
Mof_H 	H 	0.8371	0.8246	0.7468	0.207
Mof_C 	C 	0.8378	0.7711	0.7401	0.214
Mof_C 	C 	0.861	0.7484	0.7235	-0.081
Mof_C 	C 	0.8529	0.7148	0.7422	0.126
Mof_C 	C 	0.8722	0.6779	0.7387	-0.533
Mof_H 	H 	0.8548	0.663	0.7544	0.118
Mof_H 	H 	0.9069	0.6775	0.7439	0.15
Mof_H 	H 	0.867	0.6699	0.7155	0.145
Mof_C 	C 	0.4897	0.936	0.5123	-0.633
Mof_H 	H 	0.4808	0.9585	0.5033	0.185
Mof_H 	H 	0.4857	0.936	0.5369	0.187
Mof_H 	H 	0.4687	0.9186	0.5023	0.184
Mof_C 	C 	0.5416	0.9285	0.5036	0.2
Mof_C 	C 	0.5713	0.9008	0.5152	-0.122
Mof_C 	C 	0.6165	0.9026	0.4934	0.228
Mof_C 	C 	0.6622	0.8818	0.4952	-0.668
Mof_H 	H 	0.6568	0.8597	0.4843	0.191
Mof_H 	H 	0.6711	0.8783	0.5189	0.194
Mof_H 	H 	0.6884	0.8939	0.4835	0.193
Mof_C 	C 	0.6238	0.8949	0.59	-0.811
Mof_H 	H 	0.6139	0.9058	0.6112	0.214
Mof_H 	H 	0.6345	0.9123	0.574	0.26
Mof_H 	H 	0.6505	0.879	0.5945	0.202
Mof_C 	C 	0.5841	0.8767	0.5762	0.249
Mof_C 	C 	0.5626	0.8751	0.5397	-0.164
Mof_C 	C 	0.5237	0.8508	0.5436	0.274
Mof_C 	C 	0.4926	0.8394	0.5147	-0.768
Mof_H 	H 	0.4786	0.817	0.5199	0.23
Mof_H 	H 	0.5124	0.8378	0.4942	0.243
Mof_H 	H 	0.4665	0.8559	0.5111	0.223
Mof_C 	C 	0.6749	0.8117	0.7082	-0.728
Mof_H 	H 	0.6845	0.8174	0.685	0.172
Mof_H 	H 	0.701	0.7989	0.7192	0.219
Mof_H 	H 	0.6688	0.8327	0.7209	0.191
Mof_C 	C 	0.6307	0.791	0.7075	0.238
Mof_C 	C 	0.6233	0.7612	0.7289	-0.12
Mof_C 	C 	0.587	0.7422	0.714	0.202
Mof_C 	C 	0.5606	0.7081	0.7251	-0.611
Mof_H 	H 	0.5299	0.7137	0.7363	0.17
Mof_H 	H 	0.5814	0.6955	0.7408	0.183
Mof_H 	H 	0.5542	0.6941	0.7051	0.181
Mof_C 	C 	0.7199	0.7078	0.7242	-0.725
Mof_H 	H 	0.7525	0.6996	0.73	0.192
Mof_H 	H 	0.722	0.7236	0.7051	0.219
Mof_H 	H 	0.6994	0.6884	0.7179	0.221
Mof_C 	C 	0.6978	0.7261	0.7548	0.268
Mof_C 	C 	0.659	0.7521	0.7549	-0.248
Mof_C 	C 	0.6521	0.7606	0.7897	0.45
Mof_C 	C 	0.6235	0.784	0.8046	-1.097
Mof_H 	H 	0.5909	0.7829	0.7948	0.314
Mof_H 	H 	0.6371	0.8068	0.801	0.309
Mof_H 	H 	0.6217	0.7793	0.829	0.304
Mof_C 	C 	0.6534	0.658	0.8223	-0.66
Mof_H 	H 	0.6296	0.6765	0.8229	0.199
Mof_H 	H 	0.6366	0.636	0.8227	0.192
Mof_H 	H 	0.6728	0.6598	0.8016	0.174
Mof_C 	C 	0.6863	0.6607	0.8528	0.209
Mof_C 	C 	0.6777	0.6529	0.8862	-0.137
Mof_C 	C 	0.7193	0.6635	0.9044	0.168
Mof_C 	C 	0.7311	0.6587	0.9438	-0.556
Mof_H 	H 	0.7643	0.6502	0.9464	0.152
Mof_H 	H 	0.7083	0.6423	0.9536	0.166
Mof_H 	H 	0.7279	0.6807	0.9554	0.155
Mof_C 	C 	0.5989	0.6837	0.9468	-0.563
Mof_H 	H 	0.5818	0.6999	0.9323	0.16
Mof_H 	H 	0.6312	0.6927	0.9523	0.165
Mof_H 	H 	0.5805	0.6803	0.9677	0.165
Mof_C 	C 	0.6255	0.6005	0.8956	0.21
Mof_N 	N 	0.586	0.591	0.9179	-0.246
Mof_N 	N 	0.5729	0.6206	0.9377	-0.194
Mof_H 	H 	0.55	0.6216	0.9531	0.081
Mof_C 	C 	0.6043	0.6485	0.9277	0.164
Mof_C 	C 	0.6368	0.636	0.9017	-0.121
Mof_C 	C 	0.647	0.575	0.8723	-0.693
Mof_H 	H 	0.6452	0.5523	0.8825	0.205
Mof_H 	H 	0.681	0.5809	0.868	0.205
Mof_H 	H 	0.629	0.5751	0.8509	0.185
Mof_O 	O 	0.8186	0.8895	0.9814	2.875
Mof_K 	K 	0.8503	0.9012	0.982	-6.969
Mof_O 	O 	0.772	0.8704	0.9864	2.952
Mof_W 	W 	0.17512	0.5681	0.14476	0.955
Mof_W 	W 	0.27277	0.51528	0.14283	0.978
Mof_W 	W 	0.34251	0.59545	0.17422	0.968
Mof_W 	W 	0.24504	0.64861	0.17532	0.967
Mof_W 	W 	0.31215	0.7259	0.1389	1.315
Mof_W 	W 	0.41207	0.67689	0.14989	0.98
Mof_W 	W 	0.42316	0.59941	0.09653	1.071
Mof_W 	W 	0.20477	0.68733	0.094	1.089
Mof_W 	W 	0.13781	0.60894	0.06173	1.082
Mof_W 	W 	0.35422	0.51982	0.06792	1.429
Mof_W 	W 	0.23784	0.46883	0.06084	0.974
Mof_W 	W 	0.13289	0.51487	0.0684	1.018
Mof_W 	W 	0.13322	0.51374	0.97009	0.993
Mof_W 	W 	0.2379	0.46907	0.96274	0.979
Mof_W 	W 	0.35389	0.5168	0.97122	1.085
Mof_W 	W 	0.14012	0.6101	0.96501	1.088
Mof_W 	W 	0.21066	0.68908	0.93726	1.364
Mof_W 	W 	0.42205	0.59565	0.94062	1.376
Mof_W 	W 	0.46606	0.64641	0.0168	1.159
Mof_W 	W 	0.24953	0.73702	0.01669	1.131
Mof_W 	W 	0.35608	0.77522	0.0601	0.967
Mof_W 	W 	0.45664	0.72609	0.07022	1.203
Mof_W 	W 	0.46238	0.73038	0.97338	0.977
Mof_W 	W 	0.35356	0.77093	0.96391	0.945
Mof_W 	W 	0.31451	0.7194	0.88521	0.937
Mof_W 	W 	0.42399	0.67968	0.89367	0.979
Mof_W 	W 	0.35576	0.60238	0.85888	0.994
Mof_W 	W 	0.24467	0.63958	0.85874	0.95
Mof_W 	W 	0.17507	0.55983	0.88961	0.961
Mof_W 	W 	0.28581	0.52232	0.88831	1
Mof_Co	Co	0.54172	0.54628	0.92383	1.081
Mof_Co	Co	0.5887	0.76256	0.08071	1.138
Mof_Co	Co	0.27719	0.80431	0.19312	1.08
Mof_Co	Co	0.07824	0.67644	0.35903	0.993
Mof_K 	K 	0.2417	0.64393	0.01519	-7.215
Mof_P 	P 	0.3151	0.64493	0.1028	0.316
Mof_P 	P 	0.2408	0.55878	0.0689	0.332
Mof_P 	P 	0.2441	0.55854	0.9636	0.296
Mof_P 	P 	0.3191	0.64442	0.9308	0.345
Mof_P 	P 	0.3638	0.69803	0.017	0.33
Mof_O 	O 	0.2924	0.622	0.1999	-0.435
Mof_O 	O 	0.3032	0.5568	0.1693	-0.42
Mof_O 	O 	0.2087	0.6018	0.1676	-0.423
Mof_O 	O 	0.2137	0.5297	0.165	-0.429
Mof_O 	O 	0.1456	0.5278	0.1114	-0.433
Mof_O 	O 	0.2449	0.4849	0.1123	-0.429
Mof_O 	O 	0.3294	0.5206	0.1139	-0.49
Mof_O 	O 	0.2394	0.5583	0.1095	-0.296
Mof_O 	O 	0.1494	0.5972	0.1102	-0.463
Mof_O 	O 	0.2067	0.6625	0.136	-0.469
Mof_O 	O 	0.2968	0.6256	0.1353	-0.297
Mof_O 	O 	0.3868	0.5871	0.1393	-0.471
Mof_O 	O 	0.3789	0.6442	0.1743	-0.433
Mof_O 	O 	0.2821	0.6885	0.1719	-0.43
Mof_O 	O 	0.2891	0.7592	0.1649	-0.543
Mof_O 	O 	0.3723	0.7158	0.1635	-0.454
Mof_O 	O 	0.4344	0.6433	0.1173	-0.466
Mof_O 	O 	0.3424	0.6788	0.1151	-0.318
Mof_O 	O 	0.2552	0.7164	0.1141	-0.485
Mof_O 	O 	0.27	0.6551	0.0806	0.196
Mof_O 	O 	0.3505	0.6227	0.0805	0.231
Mof_O 	O 	0.3909	0.5605	0.072	-0.052
Mof_O 	O 	0.1731	0.6525	0.0677	0.003
Mof_O 	O 	0.2153	0.5907	0.0549	0.181
Mof_O 	O 	0.2946	0.5564	0.0568	0.114
Mof_O 	O 	0.3996	0.4891	0.0769	-0.624
Mof_O 	O 	0.3029	0.4863	0.0583	-0.473
Mof_O 	O 	0.2134	0.5246	0.058	-0.301
Mof_O 	O 	0.1219	0.5609	0.0557	-0.476
Mof_O 	O 	0.1667	0.4703	0.0711	-0.428
Mof_O 	O 	0.229	0.4652	0.0141	-0.425
Mof_O 	O 	0.1321	0.5063	0.0161	-0.417
Mof_O 	O 	0.1425	0.6184	0.0151	-0.068
Mof_O 	O 	0.363	0.5224	0.0196	-0.16
Mof_O 	O 	0.4446	0.615	0.0528	-0.127
Mof_O 	O 	0.2221	0.7073	0.0506	-0.052
Mof_O 	O 	0.3408	0.7517	0.1066	-0.46
Mof_O 	O 	0.4368	0.7108	0.1125	-0.429
Mof_O 	O 	0.5151	0.7417	0.0841	-0.509
Mof_O 	O 	0.4244	0.7718	0.075	-0.427
Mof_O 	O 	0.2907	0.758	0.0508	-0.452
Mof_O 	O 	0.3816	0.7196	0.0502	-0.315
Mof_O 	O 	0.4725	0.6813	0.0505	-0.49
Mof_O 	O 	0.3871	0.6623	0.0175	0.204
Mof_O 	O 	0.3058	0.696	0.0166	0.215
Mof_O 	O 	0.2219	0.7069	0.982	-0.04
Mof_O 	O 	0.4416	0.6153	0.984	-0.101
Mof_O 	O 	0.4799	0.5755	0.9325	-0.608
Mof_O 	O 	0.3527	0.6216	0.9532	0.147
Mof_O 	O 	0.275	0.6565	0.9516	0.142
Mof_O 	O 	0.1586	0.715	0.9278	-0.58
Mof_O 	O 	0.1764	0.6526	0.9621	0.011
Mof_O 	O 	0.3937	0.5601	0.9666	-0.016
Mof_O 	O 	0.2959	0.5566	0.9788	0.155
Mof_O 	O 	0.2184	0.5915	0.9769	0.226
Mof_O 	O 	0.126	0.562	0.9743	-0.465
Mof_O 	O 	0.2149	0.5258	0.9756	-0.282
Mof_O 	O 	0.3043	0.484	0.9792	-0.448
Mof_O 	O 	0.1684	0.4709	0.9585	-0.441
Mof_O 	O 	0.1497	0.5277	0.9204	-0.428
Mof_O 	O 	0.2521	0.4869	0.9212	-0.436
Mof_O 	O 	0.3355	0.5202	0.9226	-0.466
Mof_O 	O 	0.2463	0.5582	0.9224	-0.292
Mof_O 	O 	0.1534	0.5961	0.9201	-0.472
Mof_O 	O 	0.2118	0.6616	0.8959	-0.487
Mof_O 	O 	0.3032	0.6249	0.898	-0.309
Mof_O 	O 	0.3893	0.584	0.8968	-0.485
Mof_O 	O 	0.4363	0.6402	0.9211	-0.472
Mof_O 	O 	0.3483	0.6767	0.9197	-0.29
Mof_O 	O 	0.26	0.7173	0.9169	-0.478
Mof_O 	O 	0.2907	0.7581	0.9837	-0.471
Mof_O 	O 	0.3806	0.7184	0.9857	-0.288
Mof_O 	O 	0.4744	0.6815	0.9834	-0.463
Mof_O 	O 	0.4655	0.7412	0.0171	-0.457
Mof_O 	O 	0.366	0.7832	0.0144	-0.445
Mof_O 	O 	0.4249	0.7704	0.9575	-0.437
Mof_O 	O 	0.4428	0.7102	0.9263	-0.434
Mof_O 	O 	0.3436	0.7494	0.922	-0.437
Mof_O 	O 	0.3822	0.7125	0.8692	-0.435
Mof_O 	O 	0.3892	0.6422	0.8617	-0.447
Mof_O 	O 	0.2863	0.6843	0.8585	-0.432
Mof_O 	O 	0.3005	0.6213	0.832	-0.428
Mof_O 	O 	0.3118	0.5599	0.8653	-0.427
Mof_O 	O 	0.2134	0.5971	0.8649	-0.42
Mof_O 	O 	0.2225	0.5282	0.8677	-0.43
Mof_N 	N 	0.6527	0.5694	0.107	-0.309
Mof_H 	H 	0.6429	0.5505	0.1127	0.135
Mof_N 	N 	0.6901	0.5821	0.1258	-0.141
Mof_N 	N 	0.6587	0.7066	0.0529	-0.222
Mof_H 	H 	0.6695	0.7218	0.0385	0.086
Mof_N 	N 	0.6179	0.7129	0.0734	-0.242
Mof_N 	N 	0.5559	0.8118	0.0911	-0.242
Mof_N 	N 	0.5121	0.8194	0.0722	-0.216
Mof_H 	H 	0.5015	0.8084	0.0544	0.1
Mof_C 	C 	0.4889	0.8485	0.088	0.286
Mof_C 	C 	0.5183	0.8588	0.1166	-0.208
Mof_C 	C 	0.5597	0.8361	0.1185	0.304
Mof_N 	N 	0.3125	0.7416	0.2339	-0.21
Mof_H 	H 	0.293	0.7297	0.221	0.126
Mof_N 	N 	0.3217	0.7767	0.2303	-0.223
Mof_N 	N 	0.065	0.5558	0.5218	-0.144
Mof_N 	N 	0.1094	0.5703	0.5268	-0.218
Mof_H 	H 	0.1308	0.5627	0.5414	0.136
Mof_N 	N 	0.06	0.6495	0.4041	-0.292
Mof_N 	N 	0.0272	0.6629	0.4265	-0.23
Mof_H 	H 	0.009	0.6803	0.4208	0.06
Mof_N 	N 	0.0659	0.7374	0.3081	-0.214
Mof_H 	H 	0.0376	0.7416	0.3175	0.059
Mof_N 	N 	0.0951	0.7068	0.3151	-0.306
Mof_N 	N 	0.2154	0.7786	0.2156	-0.26
Mof_N 	N 	0.189	0.7574	0.1921	-0.252
Mof_H 	H 	0.1946	0.7558	0.1703	0.112
Mof_N 	N 	0.2507	0.8227	0.1196	-0.193
Mof_H 	H 	0.2791	0.8141	0.1143	0.074
Mof_N 	N 	0.2333	0.8237	0.1521	-0.245
Mof_C 	C 	0.5934	0.5873	0.0675	-1.206
Mof_H 	H 	0.587	0.5628	0.0661	0.337
Mof_H 	H 	0.6011	0.5961	0.0449	0.349
Mof_H 	H 	0.5646	0.599	0.0763	0.342
Mof_C 	C 	0.6308	0.5929	0.0882	0.488
Mof_C 	C 	0.6584	0.6265	0.0959	-0.19
Mof_C 	C 	0.6943	0.6134	0.1204	0.173
Mof_C 	C 	0.732	0.6417	0.1353	-0.527
Mof_H 	H 	0.759	0.6448	0.1195	0.136
Mof_H 	H 	0.7446	0.634	0.1572	0.145
Mof_H 	H 	0.7151	0.6635	0.1383	0.152
Mof_C 	C 	0.7253	0.6673	0.0362	-0.643
Mof_H 	H 	0.7423	0.6879	0.0287	0.186
Mof_H 	H 	0.7161	0.6536	0.0165	0.184
Mof_H 	H 	0.7468	0.6539	0.0509	0.18
Mof_C 	C 	0.6789	0.6776	0.0563	0.226
Mof_C 	C 	0.649	0.6598	0.0796	-0.144
Mof_C 	C 	0.6122	0.6814	0.0895	0.227
Mof_C 	C 	0.5712	0.6731	0.1149	-0.704
Mof_H 	H 	0.5636	0.6935	0.1282	0.223
Mof_H 	H 	0.5818	0.6548	0.1301	0.211
Mof_H 	H 	0.5423	0.6657	0.1025	0.218
Mof_C 	C 	0.4436	0.8618	0.0725	-0.799
Mof_H 	H 	0.4517	0.8797	0.0561	0.251
Mof_H 	H 	0.4227	0.8712	0.0902	0.247
Mof_H 	H 	0.4267	0.8432	0.0609	0.243
Mof_C 	C 	0.601	0.8405	0.141	-0.842
Mof_H 	H 	0.593	0.8315	0.1634	0.255
Mof_H 	H 	0.6088	0.8648	0.1428	0.259
Mof_H 	H 	0.629	0.8282	0.1319	0.258
Mof_C 	C 	0.5272	0.9382	0.0908	-0.611
Mof_H 	H 	0.5587	0.9289	0.084	0.182
Mof_H 	H 	0.529	0.9632	0.0915	0.18
Mof_H 	H 	0.5024	0.9313	0.0744	0.19
Mof_C 	C 	0.4975	0.887	0.1696	0.127
Mof_C 	C 	0.5114	0.8892	0.1343	-0.062
Mof_C 	C 	0.5139	0.925	0.1252	0.171
Mof_N 	N 	0.5016	0.9448	0.1549	-0.13
Mof_N 	N 	0.4915	0.9214	0.1823	-0.183
Mof_H 	H 	0.4831	0.927	0.203	0.097
Mof_C 	C 	0.49	0.8556	0.1973	-0.519
Mof_H 	H 	0.466	0.8393	0.1885	0.154
Mof_H 	H 	0.4781	0.865	0.2187	0.152
Mof_H 	H 	0.5208	0.8439	0.201	0.154
Mof_C 	C 	0.478	0.7605	0.2881	-0.913
Mof_H 	H 	0.4818	0.7379	0.278	0.271
Mof_H 	H 	0.5078	0.7675	0.2992	0.28
Mof_H 	H 	0.4694	0.777	0.2704	0.269
Mof_C 	C 	0.3869	0.7543	0.3098	-0.3
Mof_C 	C 	0.3667	0.7517	0.3436	0.514
Mof_N 	N 	0.4061	0.7551	0.3676	-0.29
Mof_N 	N 	0.4506	0.7599	0.3487	-0.233
Mof_H 	H 	0.4797	0.7626	0.3573	0.12
Mof_C 	C 	0.4387	0.7594	0.313	0.336
Mof_C 	C 	0.3187	0.7493	0.349	-1.291
Mof_H 	H 	0.3025	0.7694	0.3396	0.38
Mof_H 	H 	0.3124	0.748	0.3733	0.388
Mof_H 	H 	0.3061	0.7288	0.3379	0.38
Mof_C 	C 	0.3273	0.6911	0.2713	-0.644
Mof_H 	H 	0.2926	0.6883	0.2758	0.186
Mof_H 	H 	0.3457	0.686	0.2919	0.193
Mof_H 	H 	0.3371	0.6754	0.2532	0.207
Mof_C 	C 	0.3378	0.7289	0.2599	0.214
Mof_C 	C 	0.361	0.7516	0.2765	-0.08
Mof_C 	C 	0.3529	0.7852	0.2578	0.126
Mof_C 	C 	0.3722	0.8221	0.2613	-0.533
Mof_H 	H 	0.3548	0.837	0.2456	0.118
Mof_H 	H 	0.4069	0.8225	0.2561	0.149
Mof_H 	H 	0.367	0.8301	0.2845	0.145
Mof_C 	C 	0.9897	0.564	0.4877	-0.633
Mof_H 	H 	0.9808	0.5415	0.4967	0.185
Mof_H 	H 	0.9857	0.564	0.4631	0.187
Mof_H 	H 	0.9687	0.5814	0.4977	0.184
Mof_C 	C 	0.0416	0.5715	0.4964	0.2
Mof_C 	C 	0.0713	0.5992	0.4848	-0.122
Mof_C 	C 	0.1165	0.5974	0.5066	0.228
Mof_C 	C 	0.1622	0.6182	0.5048	-0.668
Mof_H 	H 	0.1568	0.6403	0.5157	0.191
Mof_H 	H 	0.1711	0.6217	0.4811	0.194
Mof_H 	H 	0.1884	0.6061	0.5165	0.193
Mof_C 	C 	0.1238	0.6051	0.41	-0.812
Mof_H 	H 	0.1139	0.5942	0.3888	0.214
Mof_H 	H 	0.1345	0.5877	0.426	0.26
Mof_H 	H 	0.1505	0.621	0.4055	0.202
Mof_C 	C 	0.0841	0.6233	0.4238	0.249
Mof_C 	C 	0.0626	0.6249	0.4603	-0.164
Mof_C 	C 	0.0237	0.6492	0.4564	0.274
Mof_C 	C 	0.9926	0.6606	0.4853	-0.768
Mof_H 	H 	0.9786	0.683	0.4801	0.23
Mof_H 	H 	0.0124	0.6622	0.5058	0.243
Mof_H 	H 	0.9665	0.6441	0.4889	0.223
Mof_C 	C 	0.1749	0.6883	0.2918	-0.728
Mof_H 	H 	0.1845	0.6826	0.315	0.172
Mof_H 	H 	0.201	0.7011	0.2808	0.219
Mof_H 	H 	0.1688	0.6673	0.2791	0.192
Mof_C 	C 	0.1307	0.709	0.2925	0.238
Mof_C 	C 	0.1233	0.7388	0.2711	-0.12
Mof_C 	C 	0.087	0.7578	0.286	0.202
Mof_C 	C 	0.0606	0.7919	0.2749	-0.612
Mof_H 	H 	0.0299	0.7863	0.2637	0.171
Mof_H 	H 	0.0814	0.8045	0.2592	0.184
Mof_H 	H 	0.0542	0.8059	0.2949	0.181
Mof_C 	C 	0.2199	0.7922	0.2758	-0.725
Mof_H 	H 	0.2525	0.8004	0.27	0.192
Mof_H 	H 	0.222	0.7764	0.2949	0.219
Mof_H 	H 	0.1994	0.8116	0.2821	0.221
Mof_C 	C 	0.1978	0.7739	0.2452	0.268
Mof_C 	C 	0.159	0.7479	0.2451	-0.248
Mof_C 	C 	0.1521	0.7394	0.2103	0.45
Mof_C 	C 	0.1235	0.716	0.1954	-1.098
Mof_H 	H 	0.0909	0.7171	0.2052	0.314
Mof_H 	H 	0.1371	0.6932	0.199	0.31
Mof_H 	H 	0.1217	0.7207	0.171	0.304
Mof_C 	C 	0.1534	0.842	0.1777	-0.66
Mof_H 	H 	0.1296	0.8235	0.1771	0.2
Mof_H 	H 	0.1366	0.864	0.1773	0.192
Mof_H 	H 	0.1728	0.8402	0.1984	0.174
Mof_C 	C 	0.1863	0.8393	0.1472	0.209
Mof_C 	C 	0.1777	0.8471	0.1138	-0.137
Mof_C 	C 	0.2193	0.8365	0.0956	0.168
Mof_C 	C 	0.2311	0.8413	0.0562	-0.556
Mof_H 	H 	0.2643	0.8498	0.0536	0.152
Mof_H 	H 	0.2083	0.8577	0.0464	0.166
Mof_H 	H 	0.2279	0.8193	0.0446	0.155
Mof_C 	C 	0.0989	0.8163	0.0532	-0.563
Mof_H 	H 	0.0818	0.8001	0.0677	0.161
Mof_H 	H 	0.1312	0.8073	0.0477	0.165
Mof_H 	H 	0.0805	0.8197	0.0323	0.165
Mof_C 	C 	0.1255	0.8995	0.1044	0.21
Mof_N 	N 	0.086	0.909	0.0821	-0.246
Mof_N 	N 	0.0729	0.8794	0.0623	-0.194
Mof_H 	H 	0.05	0.8784	0.0469	0.081
Mof_C 	C 	0.1043	0.8515	0.0723	0.165
Mof_C 	C 	0.1368	0.864	0.0983	-0.121
Mof_C 	C 	0.147	0.925	0.1277	-0.693
Mof_H 	H 	0.1452	0.9477	0.1175	0.206
Mof_H 	H 	0.181	0.9191	0.132	0.205
Mof_H 	H 	0.129	0.9249	0.1491	0.185
Mof_O 	O 	0.3186	0.6105	0.0186	2.874
Mof_K 	K 	0.3503	0.5988	0.018	-6.967
Mof_O 	O 	0.272	0.6296	0.0136	2.952
Mof_W 	W 	0.32488	0.9319	0.64476	0.955
Mof_W 	W 	0.22723	0.98472	0.64283	0.978
Mof_W 	W 	0.15749	0.90455	0.67422	0.968
Mof_W 	W 	0.25496	0.85139	0.67532	0.967
Mof_W 	W 	0.18785	0.7741	0.6389	1.315
Mof_W 	W 	0.08793	0.82311	0.64989	0.98
Mof_W 	W 	0.07684	0.90059	0.59653	1.071
Mof_W 	W 	0.29523	0.81267	0.594	1.089
Mof_W 	W 	0.36219	0.89106	0.56173	1.081
Mof_W 	W 	0.14578	0.98018	0.56792	1.429
Mof_W 	W 	0.26216	0.03117	0.56084	0.974
Mof_W 	W 	0.36711	0.98513	0.5684	1.018
Mof_W 	W 	0.36678	0.98626	0.47009	0.994
Mof_W 	W 	0.2621	0.03093	0.46274	0.98
Mof_W 	W 	0.14611	0.9832	0.47122	1.086
Mof_W 	W 	0.35988	0.8899	0.46501	1.088
Mof_W 	W 	0.28934	0.81092	0.43726	1.364
Mof_W 	W 	0.07795	0.90435	0.44062	1.376
Mof_W 	W 	0.03394	0.85359	0.5168	1.159
Mof_W 	W 	0.25047	0.76298	0.51669	1.131
Mof_W 	W 	0.14392	0.72478	0.5601	0.967
Mof_W 	W 	0.04336	0.77391	0.57022	1.203
Mof_W 	W 	0.03762	0.76962	0.47338	0.977
Mof_W 	W 	0.14644	0.72907	0.46391	0.946
Mof_W 	W 	0.18549	0.7806	0.38521	0.937
Mof_W 	W 	0.07601	0.82032	0.39367	0.979
Mof_W 	W 	0.14424	0.89762	0.35888	0.994
Mof_W 	W 	0.25533	0.86042	0.35874	0.95
Mof_W 	W 	0.32493	0.94017	0.38961	0.961
Mof_W 	W 	0.21419	0.97768	0.38831	1
Mof_Co	Co	0.95828	0.95372	0.42383	1.081
Mof_Co	Co	0.9113	0.73744	0.58071	1.138
Mof_Co	Co	0.22281	0.69569	0.69312	1.08
Mof_Co	Co	0.42176	0.82356	0.85903	0.993
Mof_K 	K 	0.2583	0.85607	0.51519	-7.216
Mof_P 	P 	0.1849	0.85507	0.6028	0.316
Mof_P 	P 	0.2592	0.94122	0.5689	0.332
Mof_P 	P 	0.2559	0.94146	0.4636	0.296
Mof_P 	P 	0.1809	0.85558	0.4308	0.345
Mof_P 	P 	0.1362	0.80197	0.517	0.33
Mof_O 	O 	0.2076	0.878	0.6999	-0.435
Mof_O 	O 	0.1968	0.9432	0.6693	-0.42
Mof_O 	O 	0.2913	0.8982	0.6676	-0.423
Mof_O 	O 	0.2863	0.9703	0.665	-0.429
Mof_O 	O 	0.3544	0.9722	0.6114	-0.433
Mof_O 	O 	0.2551	0.0151	0.6123	-0.429
Mof_O 	O 	0.1706	0.9794	0.6139	-0.49
Mof_O 	O 	0.2606	0.9417	0.6095	-0.296
Mof_O 	O 	0.3506	0.9028	0.6102	-0.463
Mof_O 	O 	0.2933	0.8375	0.636	-0.469
Mof_O 	O 	0.2032	0.8744	0.6353	-0.297
Mof_O 	O 	0.1132	0.9129	0.6393	-0.471
Mof_O 	O 	0.1211	0.8558	0.6743	-0.433
Mof_O 	O 	0.2179	0.8115	0.6719	-0.43
Mof_O 	O 	0.2109	0.7408	0.6649	-0.543
Mof_O 	O 	0.1277	0.7842	0.6635	-0.454
Mof_O 	O 	0.0656	0.8567	0.6173	-0.466
Mof_O 	O 	0.1576	0.8212	0.6151	-0.318
Mof_O 	O 	0.2448	0.7836	0.6141	-0.485
Mof_O 	O 	0.23	0.8449	0.5806	0.196
Mof_O 	O 	0.1495	0.8773	0.5805	0.231
Mof_O 	O 	0.1091	0.9395	0.572	-0.052
Mof_O 	O 	0.3269	0.8475	0.5677	0.003
Mof_O 	O 	0.2847	0.9093	0.5549	0.181
Mof_O 	O 	0.2054	0.9436	0.5568	0.114
Mof_O 	O 	0.1004	0.0109	0.5769	-0.624
Mof_O 	O 	0.1971	0.0137	0.5583	-0.473
Mof_O 	O 	0.2866	0.9754	0.558	-0.301
Mof_O 	O 	0.3781	0.9391	0.5557	-0.476
Mof_O 	O 	0.3333	0.0297	0.5711	-0.428
Mof_O 	O 	0.271	0.0348	0.5141	-0.425
Mof_O 	O 	0.3679	0.9937	0.5161	-0.417
Mof_O 	O 	0.3575	0.8816	0.5151	-0.068
Mof_O 	O 	0.137	0.9776	0.5196	-0.16
Mof_O 	O 	0.0554	0.885	0.5528	-0.127
Mof_O 	O 	0.2779	0.7927	0.5506	-0.052
Mof_O 	O 	0.1592	0.7483	0.6066	-0.46
Mof_O 	O 	0.0632	0.7892	0.6125	-0.429
Mof_O 	O 	0.9849	0.7583	0.5841	-0.509
Mof_O 	O 	0.0756	0.7282	0.575	-0.427
Mof_O 	O 	0.2093	0.742	0.5508	-0.452
Mof_O 	O 	0.1184	0.7804	0.5502	-0.315
Mof_O 	O 	0.0275	0.8187	0.5505	-0.49
Mof_O 	O 	0.1129	0.8377	0.5175	0.204
Mof_O 	O 	0.1942	0.804	0.5166	0.215
Mof_O 	O 	0.2781	0.7931	0.482	-0.039
Mof_O 	O 	0.0584	0.8847	0.484	-0.101
Mof_O 	O 	0.0201	0.9245	0.4325	-0.607
Mof_O 	O 	0.1473	0.8784	0.4532	0.147
Mof_O 	O 	0.225	0.8435	0.4516	0.142
Mof_O 	O 	0.3414	0.785	0.4278	-0.58
Mof_O 	O 	0.3236	0.8474	0.4621	0.011
Mof_O 	O 	0.1063	0.9399	0.4666	-0.016
Mof_O 	O 	0.2041	0.9434	0.4788	0.155
Mof_O 	O 	0.2816	0.9085	0.4769	0.226
Mof_O 	O 	0.374	0.938	0.4743	-0.465
Mof_O 	O 	0.2851	0.9742	0.4756	-0.282
Mof_O 	O 	0.1957	0.016	0.4792	-0.448
Mof_O 	O 	0.3316	0.0291	0.4585	-0.441
Mof_O 	O 	0.3503	0.9723	0.4204	-0.429
Mof_O 	O 	0.2479	0.0131	0.4212	-0.436
Mof_O 	O 	0.1645	0.9798	0.4226	-0.466
Mof_O 	O 	0.2537	0.9418	0.4224	-0.292
Mof_O 	O 	0.3466	0.9039	0.4201	-0.472
Mof_O 	O 	0.2882	0.8384	0.3959	-0.487
Mof_O 	O 	0.1968	0.8751	0.398	-0.309
Mof_O 	O 	0.1107	0.916	0.3968	-0.485
Mof_O 	O 	0.0637	0.8598	0.4211	-0.472
Mof_O 	O 	0.1517	0.8233	0.4197	-0.29
Mof_O 	O 	0.24	0.7827	0.4169	-0.478
Mof_O 	O 	0.2093	0.7419	0.4837	-0.471
Mof_O 	O 	0.1194	0.7816	0.4857	-0.288
Mof_O 	O 	0.0256	0.8185	0.4834	-0.463
Mof_O 	O 	0.0345	0.7588	0.5171	-0.457
Mof_O 	O 	0.134	0.7168	0.5144	-0.445
Mof_O 	O 	0.0751	0.7296	0.4575	-0.437
Mof_O 	O 	0.0572	0.7898	0.4263	-0.434
Mof_O 	O 	0.1564	0.7506	0.422	-0.438
Mof_O 	O 	0.1178	0.7875	0.3692	-0.435
Mof_O 	O 	0.1108	0.8578	0.3617	-0.447
Mof_O 	O 	0.2137	0.8157	0.3585	-0.432
Mof_O 	O 	0.1995	0.8787	0.332	-0.428
Mof_O 	O 	0.1882	0.9401	0.3653	-0.427
Mof_O 	O 	0.2866	0.9029	0.3649	-0.42
Mof_O 	O 	0.2775	0.9718	0.3677	-0.43
Mof_N 	N 	0.8473	0.9306	0.607	-0.309
Mof_H 	H 	0.8571	0.9495	0.6127	0.135
Mof_N 	N 	0.8099	0.9179	0.6258	-0.141
Mof_N 	N 	0.8413	0.7934	0.5529	-0.222
Mof_H 	H 	0.8305	0.7782	0.5385	0.086
Mof_N 	N 	0.8821	0.7871	0.5734	-0.242
Mof_N 	N 	0.9441	0.6882	0.5911	-0.242
Mof_N 	N 	0.9879	0.6806	0.5722	-0.216
Mof_H 	H 	0.9985	0.6916	0.5544	0.1
Mof_C 	C 	0.0111	0.6515	0.588	0.285
Mof_C 	C 	0.9817	0.6412	0.6166	-0.208
Mof_C 	C 	0.9403	0.6639	0.6185	0.304
Mof_N 	N 	0.1875	0.7584	0.7339	-0.21
Mof_H 	H 	0.207	0.7703	0.721	0.126
Mof_N 	N 	0.1783	0.7233	0.7303	-0.223
Mof_N 	N 	0.435	0.9442	0.0218	-0.144
Mof_N 	N 	0.3906	0.9297	0.0268	-0.218
Mof_H 	H 	0.3692	0.9373	0.0414	0.136
Mof_N 	N 	0.44	0.8505	0.9041	-0.292
Mof_N 	N 	0.4728	0.8371	0.9265	-0.23
Mof_H 	H 	0.491	0.8197	0.9208	0.06
Mof_N 	N 	0.4341	0.7626	0.8081	-0.214
Mof_H 	H 	0.4624	0.7584	0.8175	0.059
Mof_N 	N 	0.4049	0.7932	0.8151	-0.306
Mof_N 	N 	0.2846	0.7214	0.7156	-0.26
Mof_N 	N 	0.311	0.7426	0.6921	-0.252
Mof_H 	H 	0.3054	0.7442	0.6703	0.112
Mof_N 	N 	0.2493	0.6773	0.6196	-0.193
Mof_H 	H 	0.2209	0.6859	0.6143	0.074
Mof_N 	N 	0.2667	0.6763	0.6521	-0.245
Mof_C 	C 	0.9066	0.9127	0.5675	-1.208
Mof_H 	H 	0.913	0.9372	0.5661	0.337
Mof_H 	H 	0.8989	0.9039	0.5449	0.349
Mof_H 	H 	0.9354	0.901	0.5763	0.342
Mof_C 	C 	0.8692	0.9071	0.5882	0.489
Mof_C 	C 	0.8416	0.8735	0.5959	-0.19
Mof_C 	C 	0.8057	0.8866	0.6204	0.173
Mof_C 	C 	0.768	0.8583	0.6353	-0.527
Mof_H 	H 	0.741	0.8552	0.6195	0.136
Mof_H 	H 	0.7554	0.866	0.6572	0.145
Mof_H 	H 	0.7849	0.8365	0.6383	0.152
Mof_C 	C 	0.7747	0.8327	0.5362	-0.643
Mof_H 	H 	0.7577	0.8121	0.5287	0.186
Mof_H 	H 	0.7839	0.8464	0.5165	0.185
Mof_H 	H 	0.7532	0.8461	0.5509	0.181
Mof_C 	C 	0.8211	0.8224	0.5563	0.226
Mof_C 	C 	0.851	0.8402	0.5796	-0.144
Mof_C 	C 	0.8878	0.8186	0.5895	0.227
Mof_C 	C 	0.9288	0.8269	0.6149	-0.705
Mof_H 	H 	0.9364	0.8065	0.6282	0.223
Mof_H 	H 	0.9182	0.8452	0.6301	0.211
Mof_H 	H 	0.9577	0.8343	0.6025	0.218
Mof_C 	C 	0.0564	0.6382	0.5725	-0.799
Mof_H 	H 	0.0483	0.6203	0.5561	0.251
Mof_H 	H 	0.0773	0.6288	0.5902	0.247
Mof_H 	H 	0.0733	0.6568	0.5609	0.243
Mof_C 	C 	0.899	0.6595	0.641	-0.842
Mof_H 	H 	0.907	0.6685	0.6634	0.255
Mof_H 	H 	0.8912	0.6352	0.6428	0.259
Mof_H 	H 	0.871	0.6718	0.6319	0.258
Mof_C 	C 	0.9728	0.5618	0.5908	-0.611
Mof_H 	H 	0.9413	0.5711	0.584	0.183
Mof_H 	H 	0.971	0.5368	0.5915	0.18
Mof_H 	H 	0.9976	0.5687	0.5744	0.19
Mof_C 	C 	0.0025	0.613	0.6696	0.127
Mof_C 	C 	0.9886	0.6108	0.6343	-0.062
Mof_C 	C 	0.9861	0.575	0.6252	0.171
Mof_N 	N 	0.9984	0.5552	0.6549	-0.13
Mof_N 	N 	0.0085	0.5786	0.6823	-0.183
Mof_H 	H 	0.0169	0.573	0.703	0.097
Mof_C 	C 	0.01	0.6444	0.6973	-0.52
Mof_H 	H 	0.034	0.6607	0.6885	0.154
Mof_H 	H 	0.0219	0.635	0.7187	0.152
Mof_H 	H 	0.9792	0.6561	0.701	0.155
Mof_C 	C 	0.022	0.7395	0.7881	-0.915
Mof_H 	H 	0.0182	0.7621	0.778	0.272
Mof_H 	H 	0.9922	0.7325	0.7992	0.281
Mof_H 	H 	0.0306	0.723	0.7704	0.27
Mof_C 	C 	0.1131	0.7457	0.8098	-0.3
Mof_C 	C 	0.1333	0.7483	0.8436	0.514
Mof_N 	N 	0.0939	0.7449	0.8676	-0.29
Mof_N 	N 	0.0494	0.7401	0.8487	-0.233
Mof_H 	H 	0.0203	0.7374	0.8573	0.12
Mof_C 	C 	0.0613	0.7406	0.813	0.337
Mof_C 	C 	0.1813	0.7507	0.849	-1.292
Mof_H 	H 	0.1975	0.7306	0.8396	0.381
Mof_H 	H 	0.1876	0.752	0.8733	0.388
Mof_H 	H 	0.1939	0.7712	0.8379	0.38
Mof_C 	C 	0.1727	0.8089	0.7713	-0.644
Mof_H 	H 	0.2074	0.8117	0.7758	0.186
Mof_H 	H 	0.1543	0.814	0.7919	0.193
Mof_H 	H 	0.1629	0.8246	0.7532	0.207
Mof_C 	C 	0.1622	0.7711	0.7599	0.214
Mof_C 	C 	0.139	0.7484	0.7765	-0.08
Mof_C 	C 	0.1471	0.7148	0.7578	0.126
Mof_C 	C 	0.1278	0.6779	0.7613	-0.532
Mof_H 	H 	0.1452	0.663	0.7456	0.118
Mof_H 	H 	0.0931	0.6775	0.7561	0.149
Mof_H 	H 	0.133	0.6699	0.7845	0.145
Mof_C 	C 	0.5103	0.936	0.9877	-0.633
Mof_H 	H 	0.5192	0.9585	0.9967	0.185
Mof_H 	H 	0.5143	0.936	0.9631	0.187
Mof_H 	H 	0.5313	0.9186	0.9977	0.184
Mof_C 	C 	0.4584	0.9285	0.9964	0.2
Mof_C 	C 	0.4287	0.9008	0.9848	-0.122
Mof_C 	C 	0.3835	0.9026	0.0066	0.227
Mof_C 	C 	0.3378	0.8818	0.0048	-0.668
Mof_H 	H 	0.3432	0.8597	0.0157	0.191
Mof_H 	H 	0.3289	0.8783	0.9811	0.193
Mof_H 	H 	0.3116	0.8939	0.0165	0.192
Mof_C 	C 	0.3762	0.8949	0.91	-0.811
Mof_H 	H 	0.3861	0.9058	0.8888	0.214
Mof_H 	H 	0.3655	0.9123	0.926	0.26
Mof_H 	H 	0.3495	0.879	0.9055	0.202
Mof_C 	C 	0.4159	0.8767	0.9238	0.249
Mof_C 	C 	0.4374	0.8751	0.9603	-0.164
Mof_C 	C 	0.4763	0.8508	0.9564	0.274
Mof_C 	C 	0.5074	0.8394	0.9853	-0.768
Mof_H 	H 	0.5214	0.817	0.9801	0.23
Mof_H 	H 	0.4876	0.8378	0.0058	0.243
Mof_H 	H 	0.5335	0.8559	0.9889	0.223
Mof_C 	C 	0.3251	0.8117	0.7918	-0.728
Mof_H 	H 	0.3155	0.8174	0.815	0.172
Mof_H 	H 	0.299	0.7989	0.7808	0.219
Mof_H 	H 	0.3312	0.8327	0.7791	0.191
Mof_C 	C 	0.3693	0.791	0.7925	0.238
Mof_C 	C 	0.3767	0.7612	0.7711	-0.12
Mof_C 	C 	0.413	0.7422	0.786	0.202
Mof_C 	C 	0.4394	0.7081	0.7749	-0.611
Mof_H 	H 	0.4701	0.7137	0.7637	0.17
Mof_H 	H 	0.4186	0.6955	0.7592	0.183
Mof_H 	H 	0.4458	0.6941	0.7949	0.181
Mof_C 	C 	0.2801	0.7078	0.7758	-0.725
Mof_H 	H 	0.2475	0.6996	0.77	0.192
Mof_H 	H 	0.278	0.7236	0.7949	0.219
Mof_H 	H 	0.3006	0.6884	0.7821	0.221
Mof_C 	C 	0.3022	0.7261	0.7452	0.268
Mof_C 	C 	0.341	0.7521	0.7451	-0.248
Mof_C 	C 	0.3479	0.7606	0.7103	0.45
Mof_C 	C 	0.3765	0.784	0.6954	-1.097
Mof_H 	H 	0.4091	0.7829	0.7052	0.314
Mof_H 	H 	0.3629	0.8068	0.699	0.309
Mof_H 	H 	0.3783	0.7793	0.671	0.304
Mof_C 	C 	0.3466	0.658	0.6777	-0.66
Mof_H 	H 	0.3704	0.6765	0.6771	0.199
Mof_H 	H 	0.3634	0.636	0.6773	0.192
Mof_H 	H 	0.3272	0.6598	0.6984	0.174
Mof_C 	C 	0.3137	0.6607	0.6472	0.209
Mof_C 	C 	0.3223	0.6529	0.6138	-0.137
Mof_C 	C 	0.2807	0.6635	0.5956	0.168
Mof_C 	C 	0.2689	0.6587	0.5562	-0.556
Mof_H 	H 	0.2357	0.6502	0.5536	0.152
Mof_H 	H 	0.2917	0.6423	0.5464	0.166
Mof_H 	H 	0.2721	0.6807	0.5446	0.155
Mof_C 	C 	0.4011	0.6837	0.5532	-0.563
Mof_H 	H 	0.4182	0.6999	0.5677	0.16
Mof_H 	H 	0.3688	0.6927	0.5477	0.165
Mof_H 	H 	0.4195	0.6803	0.5323	0.165
Mof_C 	C 	0.3745	0.6005	0.6044	0.21
Mof_N 	N 	0.414	0.591	0.5821	-0.246
Mof_N 	N 	0.4271	0.6206	0.5623	-0.194
Mof_H 	H 	0.45	0.6216	0.5469	0.081
Mof_C 	C 	0.3957	0.6485	0.5723	0.164
Mof_C 	C 	0.3632	0.636	0.5983	-0.121
Mof_C 	C 	0.353	0.575	0.6277	-0.693
Mof_H 	H 	0.3548	0.5523	0.6175	0.205
Mof_H 	H 	0.319	0.5809	0.632	0.205
Mof_H 	H 	0.371	0.5751	0.6491	0.185
Mof_O 	O 	0.1814	0.8895	0.5186	2.874
Mof_K 	K 	0.1497	0.9012	0.518	-6.968
Mof_O 	O 	0.228	0.8704	0.5136	2.952
Mof_W 	W 	0.17512	0.4319	0.64476	0.955
Mof_W 	W 	0.27277	0.48472	0.64283	0.978
Mof_W 	W 	0.34251	0.40455	0.67422	0.968
Mof_W 	W 	0.24504	0.35139	0.67532	0.967
Mof_W 	W 	0.31215	0.2741	0.6389	1.315
Mof_W 	W 	0.41207	0.32311	0.64989	0.98
Mof_W 	W 	0.42316	0.40059	0.59653	1.071
Mof_W 	W 	0.20477	0.31267	0.594	1.089
Mof_W 	W 	0.13781	0.39106	0.56173	1.081
Mof_W 	W 	0.35422	0.48018	0.56792	1.429
Mof_W 	W 	0.23784	0.53117	0.56084	0.974
Mof_W 	W 	0.13289	0.48513	0.5684	1.018
Mof_W 	W 	0.13322	0.48626	0.47009	0.994
Mof_W 	W 	0.2379	0.53093	0.46274	0.98
Mof_W 	W 	0.35389	0.4832	0.47122	1.086
Mof_W 	W 	0.14012	0.3899	0.46501	1.088
Mof_W 	W 	0.21066	0.31092	0.43726	1.364
Mof_W 	W 	0.42205	0.40435	0.44062	1.376
Mof_W 	W 	0.46606	0.35359	0.5168	1.159
Mof_W 	W 	0.24953	0.26298	0.51669	1.131
Mof_W 	W 	0.35608	0.22478	0.5601	0.967
Mof_W 	W 	0.45664	0.27391	0.57022	1.203
Mof_W 	W 	0.46238	0.26962	0.47338	0.977
Mof_W 	W 	0.35356	0.22907	0.46391	0.946
Mof_W 	W 	0.31451	0.2806	0.38521	0.937
Mof_W 	W 	0.42399	0.32032	0.39367	0.979
Mof_W 	W 	0.35576	0.39762	0.35888	0.994
Mof_W 	W 	0.24467	0.36042	0.35874	0.95
Mof_W 	W 	0.17507	0.44017	0.38961	0.961
Mof_W 	W 	0.28581	0.47768	0.38831	1
Mof_Co	Co	0.54172	0.45372	0.42383	1.081
Mof_Co	Co	0.5887	0.23744	0.58071	1.138
Mof_Co	Co	0.27719	0.19569	0.69312	1.08
Mof_Co	Co	0.07824	0.32356	0.85903	0.993
Mof_K 	K 	0.2417	0.35607	0.51519	-7.216
Mof_P 	P 	0.3151	0.35507	0.6028	0.316
Mof_P 	P 	0.2408	0.44122	0.5689	0.332
Mof_P 	P 	0.2441	0.44146	0.4636	0.296
Mof_P 	P 	0.3191	0.35558	0.4308	0.345
Mof_P 	P 	0.3638	0.30197	0.517	0.33
Mof_O 	O 	0.2924	0.378	0.6999	-0.435
Mof_O 	O 	0.3032	0.4432	0.6693	-0.42
Mof_O 	O 	0.2087	0.3982	0.6676	-0.423
Mof_O 	O 	0.2137	0.4703	0.665	-0.429
Mof_O 	O 	0.1456	0.4722	0.6114	-0.433
Mof_O 	O 	0.2449	0.5151	0.6123	-0.429
Mof_O 	O 	0.3294	0.4794	0.6139	-0.49
Mof_O 	O 	0.2394	0.4417	0.6095	-0.296
Mof_O 	O 	0.1494	0.4028	0.6102	-0.463
Mof_O 	O 	0.2067	0.3375	0.636	-0.469
Mof_O 	O 	0.2968	0.3744	0.6353	-0.297
Mof_O 	O 	0.3868	0.4129	0.6393	-0.471
Mof_O 	O 	0.3789	0.3558	0.6743	-0.433
Mof_O 	O 	0.2821	0.3115	0.6719	-0.43
Mof_O 	O 	0.2891	0.2408	0.6649	-0.543
Mof_O 	O 	0.3723	0.2842	0.6635	-0.454
Mof_O 	O 	0.4344	0.3567	0.6173	-0.466
Mof_O 	O 	0.3424	0.3212	0.6151	-0.318
Mof_O 	O 	0.2552	0.2836	0.6141	-0.485
Mof_O 	O 	0.27	0.3449	0.5806	0.196
Mof_O 	O 	0.3505	0.3773	0.5805	0.231
Mof_O 	O 	0.3909	0.4395	0.572	-0.052
Mof_O 	O 	0.1731	0.3475	0.5677	0.003
Mof_O 	O 	0.2153	0.4093	0.5549	0.181
Mof_O 	O 	0.2946	0.4436	0.5568	0.114
Mof_O 	O 	0.3996	0.5109	0.5769	-0.624
Mof_O 	O 	0.3029	0.5137	0.5583	-0.473
Mof_O 	O 	0.2134	0.4754	0.558	-0.301
Mof_O 	O 	0.1219	0.4391	0.5557	-0.476
Mof_O 	O 	0.1667	0.5297	0.5711	-0.428
Mof_O 	O 	0.229	0.5348	0.5141	-0.425
Mof_O 	O 	0.1321	0.4937	0.5161	-0.418
Mof_O 	O 	0.1425	0.3816	0.5151	-0.068
Mof_O 	O 	0.363	0.4776	0.5196	-0.16
Mof_O 	O 	0.4446	0.385	0.5528	-0.127
Mof_O 	O 	0.2221	0.2927	0.5506	-0.052
Mof_O 	O 	0.3408	0.2483	0.6066	-0.46
Mof_O 	O 	0.4368	0.2892	0.6125	-0.429
Mof_O 	O 	0.5151	0.2583	0.5841	-0.509
Mof_O 	O 	0.4244	0.2282	0.575	-0.427
Mof_O 	O 	0.2907	0.242	0.5508	-0.452
Mof_O 	O 	0.3816	0.2804	0.5502	-0.315
Mof_O 	O 	0.4725	0.3187	0.5505	-0.49
Mof_O 	O 	0.3871	0.3377	0.5175	0.204
Mof_O 	O 	0.3058	0.304	0.5166	0.215
Mof_O 	O 	0.2219	0.2931	0.482	-0.039
Mof_O 	O 	0.4416	0.3847	0.484	-0.101
Mof_O 	O 	0.4799	0.4245	0.4325	-0.608
Mof_O 	O 	0.3527	0.3784	0.4532	0.147
Mof_O 	O 	0.275	0.3435	0.4516	0.142
Mof_O 	O 	0.1586	0.285	0.4278	-0.58
Mof_O 	O 	0.1764	0.3474	0.4621	0.011
Mof_O 	O 	0.3937	0.4399	0.4666	-0.016
Mof_O 	O 	0.2959	0.4434	0.4788	0.155
Mof_O 	O 	0.2184	0.4085	0.4769	0.226
Mof_O 	O 	0.126	0.438	0.4743	-0.465
Mof_O 	O 	0.2149	0.4742	0.4756	-0.282
Mof_O 	O 	0.3043	0.516	0.4792	-0.448
Mof_O 	O 	0.1684	0.5291	0.4585	-0.441
Mof_O 	O 	0.1497	0.4723	0.4204	-0.429
Mof_O 	O 	0.2521	0.5131	0.4212	-0.436
Mof_O 	O 	0.3355	0.4798	0.4226	-0.466
Mof_O 	O 	0.2463	0.4418	0.4224	-0.292
Mof_O 	O 	0.1534	0.4039	0.4201	-0.472
Mof_O 	O 	0.2118	0.3384	0.3959	-0.487
Mof_O 	O 	0.3032	0.3751	0.398	-0.309
Mof_O 	O 	0.3893	0.416	0.3968	-0.485
Mof_O 	O 	0.4363	0.3598	0.4211	-0.472
Mof_O 	O 	0.3483	0.3233	0.4197	-0.29
Mof_O 	O 	0.26	0.2827	0.4169	-0.478
Mof_O 	O 	0.2907	0.2419	0.4837	-0.471
Mof_O 	O 	0.3806	0.2816	0.4857	-0.288
Mof_O 	O 	0.4744	0.3185	0.4834	-0.463
Mof_O 	O 	0.4655	0.2588	0.5171	-0.457
Mof_O 	O 	0.366	0.2168	0.5144	-0.445
Mof_O 	O 	0.4249	0.2296	0.4575	-0.437
Mof_O 	O 	0.4428	0.2898	0.4263	-0.434
Mof_O 	O 	0.3436	0.2506	0.422	-0.438
Mof_O 	O 	0.3822	0.2875	0.3692	-0.435
Mof_O 	O 	0.3892	0.3578	0.3617	-0.447
Mof_O 	O 	0.2863	0.3157	0.3585	-0.432
Mof_O 	O 	0.3005	0.3787	0.332	-0.428
Mof_O 	O 	0.3118	0.4401	0.3653	-0.427
Mof_O 	O 	0.2134	0.4029	0.3649	-0.42
Mof_O 	O 	0.2225	0.4718	0.3677	-0.43
Mof_N 	N 	0.6527	0.4306	0.607	-0.309
Mof_H 	H 	0.6429	0.4495	0.6127	0.135
Mof_N 	N 	0.6901	0.4179	0.6258	-0.141
Mof_N 	N 	0.6587	0.2934	0.5529	-0.222
Mof_H 	H 	0.6695	0.2782	0.5385	0.086
Mof_N 	N 	0.6179	0.2871	0.5734	-0.242
Mof_N 	N 	0.5559	0.1882	0.5911	-0.242
Mof_N 	N 	0.5121	0.1806	0.5722	-0.216
Mof_H 	H 	0.5015	0.1916	0.5544	0.1
Mof_C 	C 	0.4889	0.1515	0.588	0.286
Mof_C 	C 	0.5183	0.1412	0.6166	-0.208
Mof_C 	C 	0.5597	0.1639	0.6185	0.304
Mof_N 	N 	0.3125	0.2584	0.7339	-0.21
Mof_H 	H 	0.293	0.2703	0.721	0.126
Mof_N 	N 	0.3217	0.2233	0.7303	-0.223
Mof_N 	N 	0.065	0.4442	0.0218	-0.144
Mof_N 	N 	0.1094	0.4297	0.0268	-0.218
Mof_H 	H 	0.1308	0.4373	0.0414	0.136
Mof_N 	N 	0.06	0.3505	0.9041	-0.292
Mof_N 	N 	0.0272	0.3371	0.9265	-0.229
Mof_H 	H 	0.009	0.3197	0.9208	0.06
Mof_N 	N 	0.0659	0.2626	0.8081	-0.214
Mof_H 	H 	0.0376	0.2584	0.8175	0.059
Mof_N 	N 	0.0951	0.2932	0.8151	-0.306
Mof_N 	N 	0.2154	0.2214	0.7156	-0.26
Mof_N 	N 	0.189	0.2426	0.6921	-0.252
Mof_H 	H 	0.1946	0.2442	0.6703	0.112
Mof_N 	N 	0.2507	0.1773	0.6196	-0.193
Mof_H 	H 	0.2791	0.1859	0.6143	0.074
Mof_N 	N 	0.2333	0.1763	0.6521	-0.245
Mof_C 	C 	0.5934	0.4127	0.5675	-1.207
Mof_H 	H 	0.587	0.4372	0.5661	0.337
Mof_H 	H 	0.6011	0.4039	0.5449	0.349
Mof_H 	H 	0.5646	0.401	0.5763	0.342
Mof_C 	C 	0.6308	0.4071	0.5882	0.488
Mof_C 	C 	0.6584	0.3735	0.5959	-0.19
Mof_C 	C 	0.6943	0.3866	0.6204	0.173
Mof_C 	C 	0.732	0.3583	0.6353	-0.527
Mof_H 	H 	0.759	0.3552	0.6195	0.136
Mof_H 	H 	0.7446	0.366	0.6572	0.145
Mof_H 	H 	0.7151	0.3365	0.6383	0.152
Mof_C 	C 	0.7253	0.3327	0.5362	-0.643
Mof_H 	H 	0.7423	0.3121	0.5287	0.186
Mof_H 	H 	0.7161	0.3464	0.5165	0.185
Mof_H 	H 	0.7468	0.3461	0.5509	0.181
Mof_C 	C 	0.6789	0.3224	0.5563	0.226
Mof_C 	C 	0.649	0.3402	0.5796	-0.144
Mof_C 	C 	0.6122	0.3186	0.5895	0.227
Mof_C 	C 	0.5712	0.3269	0.6149	-0.704
Mof_H 	H 	0.5636	0.3065	0.6282	0.223
Mof_H 	H 	0.5818	0.3452	0.6301	0.211
Mof_H 	H 	0.5423	0.3343	0.6025	0.218
Mof_C 	C 	0.4436	0.1382	0.5725	-0.799
Mof_H 	H 	0.4517	0.1203	0.5561	0.251
Mof_H 	H 	0.4227	0.1288	0.5902	0.247
Mof_H 	H 	0.4267	0.1568	0.5609	0.243
Mof_C 	C 	0.601	0.1595	0.641	-0.842
Mof_H 	H 	0.593	0.1685	0.6634	0.255
Mof_H 	H 	0.6088	0.1352	0.6428	0.259
Mof_H 	H 	0.629	0.1718	0.6319	0.258
Mof_C 	C 	0.5272	0.0618	0.5908	-0.611
Mof_H 	H 	0.5587	0.0711	0.584	0.182
Mof_H 	H 	0.529	0.0368	0.5915	0.18
Mof_H 	H 	0.5024	0.0687	0.5744	0.19
Mof_C 	C 	0.4975	0.113	0.6696	0.127
Mof_C 	C 	0.5114	0.1108	0.6343	-0.062
Mof_C 	C 	0.5139	0.075	0.6252	0.171
Mof_N 	N 	0.5016	0.0552	0.6549	-0.13
Mof_N 	N 	0.4915	0.0786	0.6823	-0.183
Mof_H 	H 	0.4831	0.073	0.703	0.097
Mof_C 	C 	0.49	0.1444	0.6973	-0.519
Mof_H 	H 	0.466	0.1607	0.6885	0.154
Mof_H 	H 	0.4781	0.135	0.7187	0.152
Mof_H 	H 	0.5208	0.1561	0.701	0.154
Mof_C 	C 	0.478	0.2395	0.7881	-0.913
Mof_H 	H 	0.4818	0.2621	0.778	0.271
Mof_H 	H 	0.5078	0.2325	0.7992	0.28
Mof_H 	H 	0.4694	0.223	0.7704	0.269
Mof_C 	C 	0.3869	0.2457	0.8098	-0.3
Mof_C 	C 	0.3667	0.2483	0.8436	0.514
Mof_N 	N 	0.4061	0.2449	0.8676	-0.29
Mof_N 	N 	0.4506	0.2401	0.8487	-0.233
Mof_H 	H 	0.4797	0.2374	0.8573	0.12
Mof_C 	C 	0.4387	0.2406	0.813	0.336
Mof_C 	C 	0.3187	0.2507	0.849	-1.291
Mof_H 	H 	0.3025	0.2306	0.8396	0.38
Mof_H 	H 	0.3124	0.252	0.8733	0.388
Mof_H 	H 	0.3061	0.2712	0.8379	0.38
Mof_C 	C 	0.3273	0.3089	0.7713	-0.644
Mof_H 	H 	0.2926	0.3117	0.7758	0.186
Mof_H 	H 	0.3457	0.314	0.7919	0.193
Mof_H 	H 	0.3371	0.3246	0.7532	0.207
Mof_C 	C 	0.3378	0.2711	0.7599	0.214
Mof_C 	C 	0.361	0.2484	0.7765	-0.08
Mof_C 	C 	0.3529	0.2148	0.7578	0.126
Mof_C 	C 	0.3722	0.1779	0.7613	-0.533
Mof_H 	H 	0.3548	0.163	0.7456	0.118
Mof_H 	H 	0.4069	0.1775	0.7561	0.149
Mof_H 	H 	0.367	0.1699	0.7845	0.145
Mof_C 	C 	0.9897	0.436	0.9877	-0.63
Mof_H 	H 	0.9808	0.4585	0.9967	0.185
Mof_H 	H 	0.9857	0.436	0.9631	0.187
Mof_H 	H 	0.9687	0.4186	0.9977	0.183
Mof_C 	C 	0.0416	0.4285	0.9964	0.198
Mof_C 	C 	0.0713	0.4008	0.9848	-0.122
Mof_C 	C 	0.1165	0.4026	0.0066	0.228
Mof_C 	C 	0.1622	0.3818	0.0048	-0.667
Mof_H 	H 	0.1568	0.3597	0.0157	0.19
Mof_H 	H 	0.1711	0.3783	0.9811	0.193
Mof_H 	H 	0.1884	0.3939	0.0165	0.192
Mof_C 	C 	0.1238	0.3949	0.91	-0.811
Mof_H 	H 	0.1139	0.4058	0.8888	0.214
Mof_H 	H 	0.1345	0.4123	0.926	0.26
Mof_H 	H 	0.1505	0.379	0.9055	0.202
Mof_C 	C 	0.0841	0.3767	0.9238	0.249
Mof_C 	C 	0.0626	0.3751	0.9603	-0.164
Mof_C 	C 	0.0237	0.3508	0.9564	0.273
Mof_C 	C 	0.9926	0.3394	0.9853	-0.766
Mof_H 	H 	0.9786	0.317	0.9801	0.23
Mof_H 	H 	0.0124	0.3378	0.0058	0.243
Mof_H 	H 	0.9665	0.3559	0.9889	0.222
Mof_C 	C 	0.1749	0.3117	0.7918	-0.728
Mof_H 	H 	0.1845	0.3174	0.815	0.172
Mof_H 	H 	0.201	0.2989	0.7808	0.219
Mof_H 	H 	0.1688	0.3327	0.7791	0.191
Mof_C 	C 	0.1307	0.291	0.7925	0.238
Mof_C 	C 	0.1233	0.2612	0.7711	-0.12
Mof_C 	C 	0.087	0.2422	0.786	0.202
Mof_C 	C 	0.0606	0.2081	0.7749	-0.611
Mof_H 	H 	0.0299	0.2137	0.7637	0.17
Mof_H 	H 	0.0814	0.1955	0.7592	0.183
Mof_H 	H 	0.0542	0.1941	0.7949	0.181
Mof_C 	C 	0.2199	0.2078	0.7758	-0.725
Mof_H 	H 	0.2525	0.1996	0.77	0.192
Mof_H 	H 	0.222	0.2236	0.7949	0.219
Mof_H 	H 	0.1994	0.1884	0.7821	0.221
Mof_C 	C 	0.1978	0.2261	0.7452	0.268
Mof_C 	C 	0.159	0.2521	0.7451	-0.248
Mof_C 	C 	0.1521	0.2606	0.7103	0.45
Mof_C 	C 	0.1235	0.284	0.6954	-1.097
Mof_H 	H 	0.0909	0.2829	0.7052	0.314
Mof_H 	H 	0.1371	0.3068	0.699	0.309
Mof_H 	H 	0.1217	0.2793	0.671	0.304
Mof_C 	C 	0.1534	0.158	0.6777	-0.66
Mof_H 	H 	0.1296	0.1765	0.6771	0.199
Mof_H 	H 	0.1366	0.136	0.6773	0.192
Mof_H 	H 	0.1728	0.1598	0.6984	0.174
Mof_C 	C 	0.1863	0.1607	0.6472	0.209
Mof_C 	C 	0.1777	0.1529	0.6138	-0.137
Mof_C 	C 	0.2193	0.1635	0.5956	0.168
Mof_C 	C 	0.2311	0.1587	0.5562	-0.556
Mof_H 	H 	0.2643	0.1502	0.5536	0.152
Mof_H 	H 	0.2083	0.1423	0.5464	0.166
Mof_H 	H 	0.2279	0.1807	0.5446	0.155
Mof_C 	C 	0.0989	0.1837	0.5532	-0.563
Mof_H 	H 	0.0818	0.1999	0.5677	0.16
Mof_H 	H 	0.1312	0.1927	0.5477	0.165
Mof_H 	H 	0.0805	0.1803	0.5323	0.165
Mof_C 	C 	0.1255	0.1005	0.6044	0.21
Mof_N 	N 	0.086	0.091	0.5821	-0.246
Mof_N 	N 	0.0729	0.1206	0.5623	-0.194
Mof_H 	H 	0.05	0.1216	0.5469	0.081
Mof_C 	C 	0.1043	0.1485	0.5723	0.164
Mof_C 	C 	0.1368	0.136	0.5983	-0.121
Mof_C 	C 	0.147	0.075	0.6277	-0.693
Mof_H 	H 	0.1452	0.0523	0.6175	0.206
Mof_H 	H 	0.181	0.0809	0.632	0.205
Mof_H 	H 	0.129	0.0751	0.6491	0.185
Mof_O 	O 	0.3186	0.3895	0.5186	2.874
Mof_K 	K 	0.3503	0.4012	0.518	-6.968
Mof_O 	O 	0.272	0.3704	0.5136	2.952
Mof_W 	W 	0.32488	0.0681	0.14476	0.955
Mof_W 	W 	0.22723	0.01528	0.14283	0.979
Mof_W 	W 	0.15749	0.09545	0.17422	0.968
Mof_W 	W 	0.25496	0.14861	0.17532	0.967
Mof_W 	W 	0.18785	0.2259	0.1389	1.315
Mof_W 	W 	0.08793	0.17689	0.14989	0.981
Mof_W 	W 	0.07684	0.09941	0.09653	1.072
Mof_W 	W 	0.29523	0.18733	0.094	1.089
Mof_W 	W 	0.36219	0.10894	0.06173	1.081
Mof_W 	W 	0.14578	0.01982	0.06792	1.429
Mof_W 	W 	0.26216	0.96883	0.06084	0.974
Mof_W 	W 	0.36711	0.01487	0.0684	1.019
Mof_W 	W 	0.36678	0.01374	0.97009	0.994
Mof_W 	W 	0.2621	0.96907	0.96274	0.98
Mof_W 	W 	0.14611	0.0168	0.97122	1.085
Mof_W 	W 	0.35988	0.1101	0.96501	1.088
Mof_W 	W 	0.28934	0.18908	0.93726	1.364
Mof_W 	W 	0.07795	0.09565	0.94062	1.376
Mof_W 	W 	0.03394	0.14641	0.0168	1.16
Mof_W 	W 	0.25047	0.23702	0.01669	1.131
Mof_W 	W 	0.14392	0.27522	0.0601	0.967
Mof_W 	W 	0.04336	0.22609	0.07022	1.204
Mof_W 	W 	0.03762	0.23038	0.97338	0.976
Mof_W 	W 	0.14644	0.27093	0.96391	0.945
Mof_W 	W 	0.18549	0.2194	0.88521	0.937
Mof_W 	W 	0.07601	0.17968	0.89367	0.979
Mof_W 	W 	0.14424	0.10238	0.85888	0.994
Mof_W 	W 	0.25533	0.13958	0.85874	0.95
Mof_W 	W 	0.32493	0.05983	0.88961	0.961
Mof_W 	W 	0.21419	0.02232	0.88831	1
Mof_Co	Co	0.95828	0.04628	0.92383	1.081
Mof_Co	Co	0.9113	0.26256	0.08071	1.137
Mof_Co	Co	0.22281	0.30431	0.19312	1.08
Mof_Co	Co	0.42176	0.17644	0.35903	0.993
Mof_K 	K 	0.2583	0.14393	0.01519	-7.216
Mof_P 	P 	0.1849	0.14493	0.1028	0.316
Mof_P 	P 	0.2592	0.05878	0.0689	0.332
Mof_P 	P 	0.2559	0.05854	0.9636	0.296
Mof_P 	P 	0.1809	0.14442	0.9308	0.345
Mof_P 	P 	0.1362	0.19803	0.017	0.33
Mof_O 	O 	0.2076	0.122	0.1999	-0.435
Mof_O 	O 	0.1968	0.0568	0.1693	-0.42
Mof_O 	O 	0.2913	0.1018	0.1676	-0.423
Mof_O 	O 	0.2863	0.0297	0.165	-0.429
Mof_O 	O 	0.3544	0.0278	0.1114	-0.433
Mof_O 	O 	0.2551	0.9849	0.1123	-0.429
Mof_O 	O 	0.1706	0.0206	0.1139	-0.49
Mof_O 	O 	0.2606	0.0583	0.1095	-0.296
Mof_O 	O 	0.3506	0.0972	0.1102	-0.463
Mof_O 	O 	0.2933	0.1625	0.136	-0.469
Mof_O 	O 	0.2032	0.1256	0.1353	-0.297
Mof_O 	O 	0.1132	0.0871	0.1393	-0.471
Mof_O 	O 	0.1211	0.1442	0.1743	-0.433
Mof_O 	O 	0.2179	0.1885	0.1719	-0.43
Mof_O 	O 	0.2109	0.2592	0.1649	-0.543
Mof_O 	O 	0.1277	0.2158	0.1635	-0.454
Mof_O 	O 	0.0656	0.1433	0.1173	-0.466
Mof_O 	O 	0.1576	0.1788	0.1151	-0.318
Mof_O 	O 	0.2448	0.2164	0.1141	-0.485
Mof_O 	O 	0.23	0.1551	0.0806	0.196
Mof_O 	O 	0.1495	0.1227	0.0805	0.232
Mof_O 	O 	0.1091	0.0605	0.072	-0.052
Mof_O 	O 	0.3269	0.1525	0.0677	0.003
Mof_O 	O 	0.2847	0.0907	0.0549	0.181
Mof_O 	O 	0.2054	0.0564	0.0568	0.114
Mof_O 	O 	0.1004	0.9891	0.0769	-0.624
Mof_O 	O 	0.1971	0.9863	0.0583	-0.473
Mof_O 	O 	0.2866	0.0246	0.058	-0.301
Mof_O 	O 	0.3781	0.0609	0.0557	-0.476
Mof_O 	O 	0.3333	0.9703	0.0711	-0.428
Mof_O 	O 	0.271	0.9652	0.0141	-0.425
Mof_O 	O 	0.3679	0.0063	0.0161	-0.417
Mof_O 	O 	0.3575	0.1184	0.0151	-0.068
Mof_O 	O 	0.137	0.0224	0.0196	-0.16
Mof_O 	O 	0.0554	0.115	0.0528	-0.127
Mof_O 	O 	0.2779	0.2073	0.0506	-0.053
Mof_O 	O 	0.1592	0.2517	0.1066	-0.46
Mof_O 	O 	0.0632	0.2108	0.1125	-0.429
Mof_O 	O 	0.9849	0.2417	0.0841	-0.51
Mof_O 	O 	0.0756	0.2718	0.075	-0.427
Mof_O 	O 	0.2093	0.258	0.0508	-0.452
Mof_O 	O 	0.1184	0.2196	0.0502	-0.315
Mof_O 	O 	0.0275	0.1813	0.0505	-0.49
Mof_O 	O 	0.1129	0.1623	0.0175	0.205
Mof_O 	O 	0.1942	0.196	0.0166	0.215
Mof_O 	O 	0.2781	0.2069	0.982	-0.04
Mof_O 	O 	0.0584	0.1153	0.984	-0.101
Mof_O 	O 	0.0201	0.0755	0.9325	-0.608
Mof_O 	O 	0.1473	0.1216	0.9532	0.147
Mof_O 	O 	0.225	0.1565	0.9516	0.142
Mof_O 	O 	0.3414	0.215	0.9278	-0.58
Mof_O 	O 	0.3236	0.1526	0.9621	0.011
Mof_O 	O 	0.1063	0.0601	0.9666	-0.016
Mof_O 	O 	0.2041	0.0566	0.9788	0.155
Mof_O 	O 	0.2816	0.0915	0.9769	0.226
Mof_O 	O 	0.374	0.062	0.9743	-0.465
Mof_O 	O 	0.2851	0.0258	0.9756	-0.282
Mof_O 	O 	0.1957	0.984	0.9792	-0.448
Mof_O 	O 	0.3316	0.9709	0.9585	-0.441
Mof_O 	O 	0.3503	0.0277	0.9204	-0.429
Mof_O 	O 	0.2479	0.9869	0.9212	-0.436
Mof_O 	O 	0.1645	0.0202	0.9226	-0.466
Mof_O 	O 	0.2537	0.0582	0.9224	-0.292
Mof_O 	O 	0.3466	0.0961	0.9201	-0.472
Mof_O 	O 	0.2882	0.1616	0.8959	-0.487
Mof_O 	O 	0.1968	0.1249	0.898	-0.309
Mof_O 	O 	0.1107	0.084	0.8968	-0.485
Mof_O 	O 	0.0637	0.1402	0.9211	-0.472
Mof_O 	O 	0.1517	0.1767	0.9197	-0.29
Mof_O 	O 	0.24	0.2173	0.9169	-0.478
Mof_O 	O 	0.2093	0.2581	0.9837	-0.471
Mof_O 	O 	0.1194	0.2184	0.9857	-0.288
Mof_O 	O 	0.0256	0.1815	0.9834	-0.464
Mof_O 	O 	0.0345	0.2412	0.0171	-0.457
Mof_O 	O 	0.134	0.2832	0.0144	-0.445
Mof_O 	O 	0.0751	0.2704	0.9575	-0.437
Mof_O 	O 	0.0572	0.2102	0.9263	-0.434
Mof_O 	O 	0.1564	0.2494	0.922	-0.437
Mof_O 	O 	0.1178	0.2125	0.8692	-0.435
Mof_O 	O 	0.1108	0.1422	0.8617	-0.447
Mof_O 	O 	0.2137	0.1843	0.8585	-0.432
Mof_O 	O 	0.1995	0.1213	0.832	-0.428
Mof_O 	O 	0.1882	0.0599	0.8653	-0.427
Mof_O 	O 	0.2866	0.0971	0.8649	-0.42
Mof_O 	O 	0.2775	0.0282	0.8677	-0.43
Mof_N 	N 	0.8473	0.0694	0.107	-0.309
Mof_H 	H 	0.8571	0.0505	0.1127	0.135
Mof_N 	N 	0.8099	0.0821	0.1258	-0.141
Mof_N 	N 	0.8413	0.2066	0.0529	-0.222
Mof_H 	H 	0.8305	0.2218	0.0385	0.086
Mof_N 	N 	0.8821	0.2129	0.0734	-0.242
Mof_N 	N 	0.9441	0.3118	0.0911	-0.243
Mof_N 	N 	0.9879	0.3194	0.0722	-0.217
Mof_H 	H 	0.9985	0.3084	0.0544	0.099
Mof_C 	C 	0.0111	0.3485	0.088	0.287
Mof_C 	C 	0.9817	0.3588	0.1166	-0.209
Mof_C 	C 	0.9403	0.3361	0.1185	0.304
Mof_N 	N 	0.1875	0.2416	0.2339	-0.21
Mof_H 	H 	0.207	0.2297	0.221	0.126
Mof_N 	N 	0.1783	0.2767	0.2303	-0.223
Mof_N 	N 	0.435	0.0558	0.5218	-0.144
Mof_N 	N 	0.3906	0.0703	0.5268	-0.218
Mof_H 	H 	0.3692	0.0627	0.5414	0.136
Mof_N 	N 	0.44	0.1495	0.4041	-0.292
Mof_N 	N 	0.4728	0.1629	0.4265	-0.23
Mof_H 	H 	0.491	0.1803	0.4208	0.06
Mof_N 	N 	0.4341	0.2374	0.3081	-0.214
Mof_H 	H 	0.4624	0.2416	0.3175	0.059
Mof_N 	N 	0.4049	0.2068	0.3151	-0.306
Mof_N 	N 	0.2846	0.2786	0.2156	-0.26
Mof_N 	N 	0.311	0.2574	0.1921	-0.252
Mof_H 	H 	0.3054	0.2558	0.1703	0.112
Mof_N 	N 	0.2493	0.3227	0.1196	-0.193
Mof_H 	H 	0.2209	0.3141	0.1143	0.074
Mof_N 	N 	0.2667	0.3237	0.1521	-0.245
Mof_C 	C 	0.9066	0.0873	0.0675	-1.206
Mof_H 	H 	0.913	0.0628	0.0661	0.337
Mof_H 	H 	0.8989	0.0961	0.0449	0.349
Mof_H 	H 	0.9354	0.099	0.0763	0.342
Mof_C 	C 	0.8692	0.0929	0.0882	0.488
Mof_C 	C 	0.8416	0.1265	0.0959	-0.19
Mof_C 	C 	0.8057	0.1134	0.1204	0.173
Mof_C 	C 	0.768	0.1417	0.1353	-0.527
Mof_H 	H 	0.741	0.1448	0.1195	0.136
Mof_H 	H 	0.7554	0.134	0.1572	0.145
Mof_H 	H 	0.7849	0.1635	0.1383	0.152
Mof_C 	C 	0.7747	0.1673	0.0362	-0.643
Mof_H 	H 	0.7577	0.1879	0.0287	0.186
Mof_H 	H 	0.7839	0.1536	0.0165	0.184
Mof_H 	H 	0.7532	0.1539	0.0509	0.18
Mof_C 	C 	0.8211	0.1776	0.0563	0.226
Mof_C 	C 	0.851	0.1598	0.0796	-0.144
Mof_C 	C 	0.8878	0.1814	0.0895	0.227
Mof_C 	C 	0.9288	0.1731	0.1149	-0.704
Mof_H 	H 	0.9364	0.1935	0.1282	0.223
Mof_H 	H 	0.9182	0.1548	0.1301	0.211
Mof_H 	H 	0.9577	0.1657	0.1025	0.218
Mof_C 	C 	0.0564	0.3618	0.0725	-0.801
Mof_H 	H 	0.0483	0.3797	0.0561	0.251
Mof_H 	H 	0.0773	0.3712	0.0902	0.248
Mof_H 	H 	0.0733	0.3432	0.0609	0.244
Mof_C 	C 	0.899	0.3405	0.141	-0.842
Mof_H 	H 	0.907	0.3315	0.1634	0.255
Mof_H 	H 	0.8912	0.3648	0.1428	0.259
Mof_H 	H 	0.871	0.3282	0.1319	0.258
Mof_C 	C 	0.9728	0.4382	0.0908	-0.61
Mof_H 	H 	0.9413	0.4289	0.084	0.182
Mof_H 	H 	0.971	0.4632	0.0915	0.18
Mof_H 	H 	0.9976	0.4313	0.0744	0.19
Mof_C 	C 	0.0025	0.387	0.1696	0.127
Mof_C 	C 	0.9886	0.3892	0.1343	-0.062
Mof_C 	C 	0.9861	0.425	0.1252	0.171
Mof_N 	N 	0.9984	0.4448	0.1549	-0.131
Mof_N 	N 	0.0085	0.4214	0.1823	-0.182
Mof_H 	H 	0.0169	0.427	0.203	0.097
Mof_C 	C 	0.01	0.3556	0.1973	-0.518
Mof_H 	H 	0.034	0.3393	0.1885	0.153
Mof_H 	H 	0.0219	0.365	0.2187	0.152
Mof_H 	H 	0.9792	0.3439	0.201	0.154
Mof_C 	C 	0.022	0.2605	0.2881	-0.912
Mof_H 	H 	0.0182	0.2379	0.278	0.271
Mof_H 	H 	0.9922	0.2675	0.2992	0.28
Mof_H 	H 	0.0306	0.277	0.2704	0.269
Mof_C 	C 	0.1131	0.2543	0.3098	-0.299
Mof_C 	C 	0.1333	0.2517	0.3436	0.513
Mof_N 	N 	0.0939	0.2551	0.3676	-0.29
Mof_N 	N 	0.0494	0.2599	0.3487	-0.233
Mof_H 	H 	0.0203	0.2626	0.3573	0.12
Mof_C 	C 	0.0613	0.2594	0.313	0.336
Mof_C 	C 	0.1813	0.2493	0.349	-1.291
Mof_H 	H 	0.1975	0.2694	0.3396	0.38
Mof_H 	H 	0.1876	0.248	0.3733	0.388
Mof_H 	H 	0.1939	0.2288	0.3379	0.38
Mof_C 	C 	0.1727	0.1911	0.2713	-0.644
Mof_H 	H 	0.2074	0.1883	0.2758	0.186
Mof_H 	H 	0.1543	0.186	0.2919	0.193
Mof_H 	H 	0.1629	0.1754	0.2532	0.207
Mof_C 	C 	0.1622	0.2289	0.2599	0.214
Mof_C 	C 	0.139	0.2516	0.2765	-0.081
Mof_C 	C 	0.1471	0.2852	0.2578	0.126
Mof_C 	C 	0.1278	0.3221	0.2613	-0.533
Mof_H 	H 	0.1452	0.337	0.2456	0.118
Mof_H 	H 	0.0931	0.3225	0.2561	0.15
Mof_H 	H 	0.133	0.3301	0.2845	0.145
Mof_C 	C 	0.5103	0.064	0.4877	-0.633
Mof_H 	H 	0.5192	0.0415	0.4967	0.185
Mof_H 	H 	0.5143	0.064	0.4631	0.187
Mof_H 	H 	0.5313	0.0814	0.4977	0.184
Mof_C 	C 	0.4584	0.0715	0.4964	0.2
Mof_C 	C 	0.4287	0.0992	0.4848	-0.122
Mof_C 	C 	0.3835	0.0974	0.5066	0.228
Mof_C 	C 	0.3378	0.1182	0.5048	-0.668
Mof_H 	H 	0.3432	0.1403	0.5157	0.191
Mof_H 	H 	0.3289	0.1217	0.4811	0.194
Mof_H 	H 	0.3116	0.1061	0.5165	0.193
Mof_C 	C 	0.3762	0.1051	0.41	-0.811
Mof_H 	H 	0.3861	0.0942	0.3888	0.214
Mof_H 	H 	0.3655	0.0877	0.426	0.26
Mof_H 	H 	0.3495	0.121	0.4055	0.202
Mof_C 	C 	0.4159	0.1233	0.4238	0.249
Mof_C 	C 	0.4374	0.1249	0.4603	-0.164
Mof_C 	C 	0.4763	0.1492	0.4564	0.274
Mof_C 	C 	0.5074	0.1606	0.4853	-0.768
Mof_H 	H 	0.5214	0.183	0.4801	0.23
Mof_H 	H 	0.4876	0.1622	0.5058	0.243
Mof_H 	H 	0.5335	0.1441	0.4889	0.223
Mof_C 	C 	0.3251	0.1883	0.2918	-0.728
Mof_H 	H 	0.3155	0.1826	0.315	0.172
Mof_H 	H 	0.299	0.2011	0.2808	0.219
Mof_H 	H 	0.3312	0.1673	0.2791	0.191
Mof_C 	C 	0.3693	0.209	0.2925	0.238
Mof_C 	C 	0.3767	0.2388	0.2711	-0.12
Mof_C 	C 	0.413	0.2578	0.286	0.202
Mof_C 	C 	0.4394	0.2919	0.2749	-0.611
Mof_H 	H 	0.4701	0.2863	0.2637	0.17
Mof_H 	H 	0.4186	0.3045	0.2592	0.183
Mof_H 	H 	0.4458	0.3059	0.2949	0.181
Mof_C 	C 	0.2801	0.2922	0.2758	-0.725
Mof_H 	H 	0.2475	0.3004	0.27	0.192
Mof_H 	H 	0.278	0.2764	0.2949	0.219
Mof_H 	H 	0.3006	0.3116	0.2821	0.221
Mof_C 	C 	0.3022	0.2739	0.2452	0.268
Mof_C 	C 	0.341	0.2479	0.2451	-0.248
Mof_C 	C 	0.3479	0.2394	0.2103	0.45
Mof_C 	C 	0.3765	0.216	0.1954	-1.097
Mof_H 	H 	0.4091	0.2171	0.2052	0.314
Mof_H 	H 	0.3629	0.1932	0.199	0.309
Mof_H 	H 	0.3783	0.2207	0.171	0.304
Mof_C 	C 	0.3466	0.342	0.1777	-0.66
Mof_H 	H 	0.3704	0.3235	0.1771	0.199
Mof_H 	H 	0.3634	0.364	0.1773	0.192
Mof_H 	H 	0.3272	0.3402	0.1984	0.174
Mof_C 	C 	0.3137	0.3393	0.1472	0.209
Mof_C 	C 	0.3223	0.3471	0.1138	-0.137
Mof_C 	C 	0.2807	0.3365	0.0956	0.168
Mof_C 	C 	0.2689	0.3413	0.0562	-0.556
Mof_H 	H 	0.2357	0.3498	0.0536	0.152
Mof_H 	H 	0.2917	0.3577	0.0464	0.166
Mof_H 	H 	0.2721	0.3193	0.0446	0.155
Mof_C 	C 	0.4011	0.3163	0.0532	-0.563
Mof_H 	H 	0.4182	0.3001	0.0677	0.16
Mof_H 	H 	0.3688	0.3073	0.0477	0.165
Mof_H 	H 	0.4195	0.3197	0.0323	0.165
Mof_C 	C 	0.3745	0.3995	0.1044	0.21
Mof_N 	N 	0.414	0.409	0.0821	-0.246
Mof_N 	N 	0.4271	0.3794	0.0623	-0.194
Mof_H 	H 	0.45	0.3784	0.0469	0.081
Mof_C 	C 	0.3957	0.3515	0.0723	0.164
Mof_C 	C 	0.3632	0.364	0.0983	-0.121
Mof_C 	C 	0.353	0.425	0.1277	-0.693
Mof_H 	H 	0.3548	0.4477	0.1175	0.205
Mof_H 	H 	0.319	0.4191	0.132	0.205
Mof_H 	H 	0.371	0.4249	0.1491	0.185
Mof_O 	O 	0.1814	0.1105	0.0186	2.875
Mof_K 	K 	0.1497	0.0988	0.018	-6.969
Mof_O 	O 	0.228	0.1296	0.0136	2.952
Mof_W 	W 	0.82488	0.4319	0.85524	0.955
Mof_W 	W 	0.72723	0.48472	0.85717	0.978
Mof_W 	W 	0.65749	0.40455	0.82578	0.968
Mof_W 	W 	0.75496	0.35139	0.82468	0.967
Mof_W 	W 	0.68785	0.2741	0.8611	1.315
Mof_W 	W 	0.58793	0.32311	0.85011	0.98
Mof_W 	W 	0.57684	0.40059	0.90347	1.071
Mof_W 	W 	0.79523	0.31267	0.906	1.089
Mof_W 	W 	0.86219	0.39106	0.93827	1.082
Mof_W 	W 	0.64578	0.48018	0.93208	1.429
Mof_W 	W 	0.76216	0.53117	0.93916	0.974
Mof_W 	W 	0.86711	0.48513	0.9316	1.018
Mof_W 	W 	0.86678	0.48626	0.02991	0.993
Mof_W 	W 	0.7621	0.53093	0.03726	0.979
Mof_W 	W 	0.64611	0.4832	0.02878	1.085
Mof_W 	W 	0.85988	0.3899	0.03499	1.088
Mof_W 	W 	0.78934	0.31092	0.06274	1.364
Mof_W 	W 	0.57795	0.40435	0.05938	1.376
Mof_W 	W 	0.53394	0.35359	0.9832	1.159
Mof_W 	W 	0.75047	0.26298	0.98331	1.131
Mof_W 	W 	0.64392	0.22478	0.9399	0.967
Mof_W 	W 	0.54336	0.27391	0.92978	1.203
Mof_W 	W 	0.53762	0.26962	0.02662	0.977
Mof_W 	W 	0.64644	0.22907	0.03609	0.945
Mof_W 	W 	0.68549	0.2806	0.11479	0.937
Mof_W 	W 	0.57601	0.32032	0.10633	0.979
Mof_W 	W 	0.64424	0.39762	0.14112	0.994
Mof_W 	W 	0.75533	0.36042	0.14126	0.95
Mof_W 	W 	0.82493	0.44017	0.11039	0.961
Mof_W 	W 	0.71419	0.47768	0.11169	1
Mof_Co	Co	0.45828	0.45372	0.07617	1.081
Mof_Co	Co	0.4113	0.23744	0.91929	1.138
Mof_Co	Co	0.72281	0.19569	0.80688	1.08
Mof_Co	Co	0.92176	0.32356	0.64097	0.993
Mof_K 	K 	0.7583	0.35607	0.98481	-7.215
Mof_P 	P 	0.6849	0.35507	0.8972	0.316
Mof_P 	P 	0.7592	0.44122	0.9311	0.332
Mof_P 	P 	0.7559	0.44146	0.0364	0.296
Mof_P 	P 	0.6809	0.35558	0.0692	0.345
Mof_P 	P 	0.6362	0.30197	0.983	0.33
Mof_O 	O 	0.7076	0.378	0.8001	-0.435
Mof_O 	O 	0.6968	0.4432	0.8307	-0.42
Mof_O 	O 	0.7913	0.3982	0.8324	-0.423
Mof_O 	O 	0.7863	0.4703	0.835	-0.429
Mof_O 	O 	0.8544	0.4722	0.8886	-0.433
Mof_O 	O 	0.7551	0.5151	0.8877	-0.429
Mof_O 	O 	0.6706	0.4794	0.8861	-0.49
Mof_O 	O 	0.7606	0.4417	0.8905	-0.296
Mof_O 	O 	0.8506	0.4028	0.8898	-0.463
Mof_O 	O 	0.7933	0.3375	0.864	-0.469
Mof_O 	O 	0.7032	0.3744	0.8647	-0.297
Mof_O 	O 	0.6132	0.4129	0.8607	-0.471
Mof_O 	O 	0.6211	0.3558	0.8257	-0.433
Mof_O 	O 	0.7179	0.3115	0.8281	-0.43
Mof_O 	O 	0.7109	0.2408	0.8351	-0.543
Mof_O 	O 	0.6277	0.2842	0.8365	-0.454
Mof_O 	O 	0.5656	0.3567	0.8827	-0.466
Mof_O 	O 	0.6576	0.3212	0.8849	-0.318
Mof_O 	O 	0.7448	0.2836	0.8859	-0.485
Mof_O 	O 	0.73	0.3449	0.9194	0.196
Mof_O 	O 	0.6495	0.3773	0.9195	0.231
Mof_O 	O 	0.6091	0.4395	0.928	-0.052
Mof_O 	O 	0.8269	0.3475	0.9323	0.003
Mof_O 	O 	0.7847	0.4093	0.9451	0.181
Mof_O 	O 	0.7054	0.4436	0.9432	0.114
Mof_O 	O 	0.6004	0.5109	0.9231	-0.624
Mof_O 	O 	0.6971	0.5137	0.9417	-0.473
Mof_O 	O 	0.7866	0.4754	0.942	-0.301
Mof_O 	O 	0.8781	0.4391	0.9443	-0.476
Mof_O 	O 	0.8333	0.5297	0.9289	-0.428
Mof_O 	O 	0.771	0.5348	0.9859	-0.425
Mof_O 	O 	0.8679	0.4937	0.9839	-0.417
Mof_O 	O 	0.8575	0.3816	0.9849	-0.068
Mof_O 	O 	0.637	0.4776	0.9804	-0.16
Mof_O 	O 	0.5554	0.385	0.9472	-0.127
Mof_O 	O 	0.7779	0.2927	0.9494	-0.052
Mof_O 	O 	0.6592	0.2483	0.8934	-0.46
Mof_O 	O 	0.5632	0.2892	0.8875	-0.429
Mof_O 	O 	0.4849	0.2583	0.9159	-0.509
Mof_O 	O 	0.5756	0.2282	0.925	-0.427
Mof_O 	O 	0.7093	0.242	0.9492	-0.452
Mof_O 	O 	0.6184	0.2804	0.9498	-0.315
Mof_O 	O 	0.5275	0.3187	0.9495	-0.49
Mof_O 	O 	0.6129	0.3377	0.9825	0.204
Mof_O 	O 	0.6942	0.304	0.9834	0.215
Mof_O 	O 	0.7781	0.2931	0.018	-0.04
Mof_O 	O 	0.5584	0.3847	0.016	-0.101
Mof_O 	O 	0.5201	0.4245	0.0675	-0.608
Mof_O 	O 	0.6473	0.3784	0.0468	0.147
Mof_O 	O 	0.725	0.3435	0.0484	0.142
Mof_O 	O 	0.8414	0.285	0.0722	-0.58
Mof_O 	O 	0.8236	0.3474	0.0379	0.011
Mof_O 	O 	0.6063	0.4399	0.0334	-0.016
Mof_O 	O 	0.7041	0.4434	0.0212	0.155
Mof_O 	O 	0.7816	0.4085	0.0231	0.226
Mof_O 	O 	0.874	0.438	0.0257	-0.465
Mof_O 	O 	0.7851	0.4742	0.0244	-0.282
Mof_O 	O 	0.6957	0.516	0.0208	-0.448
Mof_O 	O 	0.8316	0.5291	0.0415	-0.441
Mof_O 	O 	0.8503	0.4723	0.0796	-0.428
Mof_O 	O 	0.7479	0.5131	0.0788	-0.436
Mof_O 	O 	0.6645	0.4798	0.0774	-0.466
Mof_O 	O 	0.7537	0.4418	0.0776	-0.292
Mof_O 	O 	0.8466	0.4039	0.0799	-0.472
Mof_O 	O 	0.7882	0.3384	0.1041	-0.487
Mof_O 	O 	0.6968	0.3751	0.102	-0.309
Mof_O 	O 	0.6107	0.416	0.1032	-0.485
Mof_O 	O 	0.5637	0.3598	0.0789	-0.472
Mof_O 	O 	0.6517	0.3233	0.0803	-0.29
Mof_O 	O 	0.74	0.2827	0.0831	-0.478
Mof_O 	O 	0.7093	0.2419	0.0163	-0.471
Mof_O 	O 	0.6194	0.2816	0.0143	-0.288
Mof_O 	O 	0.5256	0.3185	0.0166	-0.463
Mof_O 	O 	0.5345	0.2588	0.9829	-0.457
Mof_O 	O 	0.634	0.2168	0.9856	-0.445
Mof_O 	O 	0.5751	0.2296	0.0425	-0.437
Mof_O 	O 	0.5572	0.2898	0.0737	-0.434
Mof_O 	O 	0.6564	0.2506	0.078	-0.437
Mof_O 	O 	0.6178	0.2875	0.1308	-0.435
Mof_O 	O 	0.6108	0.3578	0.1383	-0.447
Mof_O 	O 	0.7137	0.3157	0.1415	-0.432
Mof_O 	O 	0.6995	0.3787	0.168	-0.428
Mof_O 	O 	0.6882	0.4401	0.1347	-0.427
Mof_O 	O 	0.7866	0.4029	0.1351	-0.42
Mof_O 	O 	0.7775	0.4718	0.1323	-0.43
Mof_N 	N 	0.3473	0.4306	0.893	-0.309
Mof_H 	H 	0.3571	0.4495	0.8873	0.135
Mof_N 	N 	0.3099	0.4179	0.8742	-0.141
Mof_N 	N 	0.3413	0.2934	0.9471	-0.222
Mof_H 	H 	0.3305	0.2782	0.9615	0.086
Mof_N 	N 	0.3821	0.2871	0.9266	-0.242
Mof_N 	N 	0.4441	0.1882	0.9089	-0.242
Mof_N 	N 	0.4879	0.1806	0.9278	-0.216
Mof_H 	H 	0.4985	0.1916	0.9456	0.1
Mof_C 	C 	0.5111	0.1515	0.912	0.286
Mof_C 	C 	0.4817	0.1412	0.8834	-0.208
Mof_C 	C 	0.4403	0.1639	0.8815	0.304
Mof_N 	N 	0.6875	0.2584	0.7661	-0.21
Mof_H 	H 	0.707	0.2703	0.779	0.126
Mof_N 	N 	0.6783	0.2233	0.7697	-0.223
Mof_N 	N 	0.935	0.4442	0.4782	-0.144
Mof_N 	N 	0.8906	0.4297	0.4732	-0.218
Mof_H 	H 	0.8692	0.4373	0.4586	0.136
Mof_N 	N 	0.94	0.3505	0.5959	-0.292
Mof_N 	N 	0.9728	0.3371	0.5735	-0.23
Mof_H 	H 	0.991	0.3197	0.5792	0.06
Mof_N 	N 	0.9341	0.2626	0.6919	-0.214
Mof_H 	H 	0.9624	0.2584	0.6825	0.059
Mof_N 	N 	0.9049	0.2932	0.6849	-0.306
Mof_N 	N 	0.7846	0.2214	0.7844	-0.26
Mof_N 	N 	0.811	0.2426	0.8079	-0.252
Mof_H 	H 	0.8054	0.2442	0.8297	0.112
Mof_N 	N 	0.7493	0.1773	0.8804	-0.193
Mof_H 	H 	0.7209	0.1859	0.8857	0.074
Mof_N 	N 	0.7667	0.1763	0.8479	-0.245
Mof_C 	C 	0.4066	0.4127	0.9325	-1.206
Mof_H 	H 	0.413	0.4372	0.9339	0.337
Mof_H 	H 	0.3989	0.4039	0.9551	0.349
Mof_H 	H 	0.4354	0.401	0.9237	0.342
Mof_C 	C 	0.3692	0.4071	0.9118	0.488
Mof_C 	C 	0.3416	0.3735	0.9041	-0.19
Mof_C 	C 	0.3057	0.3866	0.8796	0.173
Mof_C 	C 	0.268	0.3583	0.8647	-0.527
Mof_H 	H 	0.241	0.3552	0.8805	0.136
Mof_H 	H 	0.2554	0.366	0.8428	0.145
Mof_H 	H 	0.2849	0.3365	0.8617	0.152
Mof_C 	C 	0.2747	0.3327	0.9638	-0.643
Mof_H 	H 	0.2577	0.3121	0.9713	0.186
Mof_H 	H 	0.2839	0.3464	0.9835	0.184
Mof_H 	H 	0.2532	0.3461	0.9491	0.18
Mof_C 	C 	0.3211	0.3224	0.9437	0.226
Mof_C 	C 	0.351	0.3402	0.9204	-0.144
Mof_C 	C 	0.3878	0.3186	0.9105	0.227
Mof_C 	C 	0.4288	0.3269	0.8851	-0.704
Mof_H 	H 	0.4364	0.3065	0.8718	0.223
Mof_H 	H 	0.4182	0.3452	0.8699	0.211
Mof_H 	H 	0.4577	0.3343	0.8975	0.218
Mof_C 	C 	0.5564	0.1382	0.9275	-0.799
Mof_H 	H 	0.5483	0.1203	0.9439	0.251
Mof_H 	H 	0.5773	0.1288	0.9098	0.247
Mof_H 	H 	0.5733	0.1568	0.9391	0.243
Mof_C 	C 	0.399	0.1595	0.859	-0.842
Mof_H 	H 	0.407	0.1685	0.8366	0.255
Mof_H 	H 	0.3912	0.1352	0.8572	0.259
Mof_H 	H 	0.371	0.1718	0.8681	0.258
Mof_C 	C 	0.4728	0.0618	0.9092	-0.611
Mof_H 	H 	0.4413	0.0711	0.916	0.182
Mof_H 	H 	0.471	0.0368	0.9085	0.18
Mof_H 	H 	0.4976	0.0687	0.9256	0.19
Mof_C 	C 	0.5025	0.113	0.8304	0.127
Mof_C 	C 	0.4886	0.1108	0.8657	-0.062
Mof_C 	C 	0.4861	0.075	0.8748	0.171
Mof_N 	N 	0.4984	0.0552	0.8451	-0.13
Mof_N 	N 	0.5085	0.0786	0.8177	-0.183
Mof_H 	H 	0.5169	0.073	0.797	0.097
Mof_C 	C 	0.51	0.1444	0.8027	-0.519
Mof_H 	H 	0.534	0.1607	0.8115	0.154
Mof_H 	H 	0.5219	0.135	0.7813	0.152
Mof_H 	H 	0.4792	0.1561	0.799	0.154
Mof_C 	C 	0.522	0.2395	0.7119	-0.913
Mof_H 	H 	0.5182	0.2621	0.722	0.271
Mof_H 	H 	0.4922	0.2325	0.7008	0.28
Mof_H 	H 	0.5306	0.223	0.7296	0.269
Mof_C 	C 	0.6131	0.2457	0.6902	-0.3
Mof_C 	C 	0.6333	0.2483	0.6564	0.514
Mof_N 	N 	0.5939	0.2449	0.6324	-0.29
Mof_N 	N 	0.5494	0.2401	0.6513	-0.233
Mof_H 	H 	0.5203	0.2374	0.6427	0.12
Mof_C 	C 	0.5613	0.2406	0.687	0.336
Mof_C 	C 	0.6813	0.2507	0.651	-1.291
Mof_H 	H 	0.6975	0.2306	0.6604	0.38
Mof_H 	H 	0.6876	0.252	0.6267	0.388
Mof_H 	H 	0.6939	0.2712	0.6621	0.38
Mof_C 	C 	0.6727	0.3089	0.7287	-0.644
Mof_H 	H 	0.7074	0.3117	0.7242	0.186
Mof_H 	H 	0.6543	0.314	0.7081	0.193
Mof_H 	H 	0.6629	0.3246	0.7468	0.207
Mof_C 	C 	0.6622	0.2711	0.7401	0.214
Mof_C 	C 	0.639	0.2484	0.7235	-0.08
Mof_C 	C 	0.6471	0.2148	0.7422	0.126
Mof_C 	C 	0.6278	0.1779	0.7387	-0.533
Mof_H 	H 	0.6452	0.163	0.7544	0.118
Mof_H 	H 	0.5931	0.1775	0.7439	0.149
Mof_H 	H 	0.633	0.1699	0.7155	0.145
Mof_C 	C 	0.0103	0.436	0.5123	-0.633
Mof_H 	H 	0.0192	0.4585	0.5033	0.185
Mof_H 	H 	0.0143	0.436	0.5369	0.187
Mof_H 	H 	0.0313	0.4186	0.5023	0.184
Mof_C 	C 	0.9584	0.4285	0.5036	0.2
Mof_C 	C 	0.9287	0.4008	0.5152	-0.122
Mof_C 	C 	0.8835	0.4026	0.4934	0.228
Mof_C 	C 	0.8378	0.3818	0.4952	-0.668
Mof_H 	H 	0.8432	0.3597	0.4843	0.191
Mof_H 	H 	0.8289	0.3783	0.5189	0.194
Mof_H 	H 	0.8116	0.3939	0.4835	0.193
Mof_C 	C 	0.8762	0.3949	0.59	-0.812
Mof_H 	H 	0.8861	0.4058	0.6112	0.214
Mof_H 	H 	0.8655	0.4123	0.574	0.26
Mof_H 	H 	0.8495	0.379	0.5945	0.202
Mof_C 	C 	0.9159	0.3767	0.5762	0.249
Mof_C 	C 	0.9374	0.3751	0.5397	-0.164
Mof_C 	C 	0.9763	0.3508	0.5436	0.274
Mof_C 	C 	0.0074	0.3394	0.5147	-0.768
Mof_H 	H 	0.0214	0.317	0.5199	0.23
Mof_H 	H 	0.9876	0.3378	0.4942	0.243
Mof_H 	H 	0.0335	0.3559	0.5111	0.223
Mof_C 	C 	0.8251	0.3117	0.7082	-0.728
Mof_H 	H 	0.8155	0.3174	0.685	0.172
Mof_H 	H 	0.799	0.2989	0.7192	0.219
Mof_H 	H 	0.8312	0.3327	0.7209	0.192
Mof_C 	C 	0.8693	0.291	0.7075	0.238
Mof_C 	C 	0.8767	0.2612	0.7289	-0.12
Mof_C 	C 	0.913	0.2422	0.714	0.202
Mof_C 	C 	0.9394	0.2081	0.7251	-0.612
Mof_H 	H 	0.9701	0.2137	0.7363	0.171
Mof_H 	H 	0.9186	0.1955	0.7408	0.184
Mof_H 	H 	0.9458	0.1941	0.7051	0.181
Mof_C 	C 	0.7801	0.2078	0.7242	-0.725
Mof_H 	H 	0.7475	0.1996	0.73	0.192
Mof_H 	H 	0.778	0.2236	0.7051	0.219
Mof_H 	H 	0.8006	0.1884	0.7179	0.221
Mof_C 	C 	0.8022	0.2261	0.7548	0.268
Mof_C 	C 	0.841	0.2521	0.7549	-0.248
Mof_C 	C 	0.8479	0.2606	0.7897	0.45
Mof_C 	C 	0.8765	0.284	0.8046	-1.098
Mof_H 	H 	0.9091	0.2829	0.7948	0.314
Mof_H 	H 	0.8629	0.3068	0.801	0.31
Mof_H 	H 	0.8783	0.2793	0.829	0.304
Mof_C 	C 	0.8466	0.158	0.8223	-0.66
Mof_H 	H 	0.8704	0.1765	0.8229	0.2
Mof_H 	H 	0.8634	0.136	0.8227	0.192
Mof_H 	H 	0.8272	0.1598	0.8016	0.174
Mof_C 	C 	0.8137	0.1607	0.8528	0.209
Mof_C 	C 	0.8223	0.1529	0.8862	-0.137
Mof_C 	C 	0.7807	0.1635	0.9044	0.168
Mof_C 	C 	0.7689	0.1587	0.9438	-0.556
Mof_H 	H 	0.7357	0.1502	0.9464	0.152
Mof_H 	H 	0.7917	0.1423	0.9536	0.166
Mof_H 	H 	0.7721	0.1807	0.9554	0.155
Mof_C 	C 	0.9011	0.1837	0.9468	-0.563
Mof_H 	H 	0.9182	0.1999	0.9323	0.161
Mof_H 	H 	0.8688	0.1927	0.9523	0.165
Mof_H 	H 	0.9195	0.1803	0.9677	0.165
Mof_C 	C 	0.8745	0.1005	0.8956	0.21
Mof_N 	N 	0.914	0.091	0.9179	-0.246
Mof_N 	N 	0.9271	0.1206	0.9377	-0.194
Mof_H 	H 	0.95	0.1216	0.9531	0.081
Mof_C 	C 	0.8957	0.1485	0.9277	0.165
Mof_C 	C 	0.8632	0.136	0.9017	-0.121
Mof_C 	C 	0.853	0.075	0.8723	-0.693
Mof_H 	H 	0.8548	0.0523	0.8825	0.206
Mof_H 	H 	0.819	0.0809	0.868	0.205
Mof_H 	H 	0.871	0.0751	0.8509	0.185
Mof_O 	O 	0.6814	0.3895	0.9814	2.874
Mof_K 	K 	0.6497	0.4012	0.982	-6.967
Mof_O 	O 	0.728	0.3704	0.9864	2.952
Mof_W 	W 	0.67512	0.0681	0.35524	0.955
Mof_W 	W 	0.77277	0.01528	0.35717	0.978
Mof_W 	W 	0.84251	0.09545	0.32578	0.968
Mof_W 	W 	0.74504	0.14861	0.32468	0.967
Mof_W 	W 	0.81215	0.2259	0.3611	1.315
Mof_W 	W 	0.91207	0.17689	0.35011	0.98
Mof_W 	W 	0.92316	0.09941	0.40347	1.071
Mof_W 	W 	0.70477	0.18733	0.406	1.089
Mof_W 	W 	0.63781	0.10894	0.43827	1.081
Mof_W 	W 	0.85422	0.01982	0.43208	1.429
Mof_W 	W 	0.73784	0.96883	0.43916	0.974
Mof_W 	W 	0.63289	0.01487	0.4316	1.018
Mof_W 	W 	0.63322	0.01374	0.52991	0.994
Mof_W 	W 	0.7379	0.96907	0.53726	0.98
Mof_W 	W 	0.85389	0.0168	0.52878	1.086
Mof_W 	W 	0.64012	0.1101	0.53499	1.088
Mof_W 	W 	0.71066	0.18908	0.56274	1.364
Mof_W 	W 	0.92205	0.09565	0.55938	1.376
Mof_W 	W 	0.96606	0.14641	0.4832	1.159
Mof_W 	W 	0.74953	0.23702	0.48331	1.131
Mof_W 	W 	0.85608	0.27522	0.4399	0.967
Mof_W 	W 	0.95664	0.22609	0.42978	1.203
Mof_W 	W 	0.96238	0.23038	0.52662	0.977
Mof_W 	W 	0.85356	0.27093	0.53609	0.946
Mof_W 	W 	0.81451	0.2194	0.61479	0.937
Mof_W 	W 	0.92399	0.17968	0.60633	0.979
Mof_W 	W 	0.85576	0.10238	0.64112	0.994
Mof_W 	W 	0.74467	0.13958	0.64126	0.95
Mof_W 	W 	0.67507	0.05983	0.61039	0.961
Mof_W 	W 	0.78581	0.02232	0.61169	1
Mof_Co	Co	0.04172	0.04628	0.57617	1.081
Mof_Co	Co	0.0887	0.26256	0.41929	1.138
Mof_Co	Co	0.77719	0.30431	0.30688	1.08
Mof_Co	Co	0.57824	0.17644	0.14097	0.993
Mof_K 	K 	0.7417	0.14393	0.48481	-7.216
Mof_P 	P 	0.8151	0.14493	0.3972	0.316
Mof_P 	P 	0.7408	0.05878	0.4311	0.332
Mof_P 	P 	0.7441	0.05854	0.5364	0.296
Mof_P 	P 	0.8191	0.14442	0.5692	0.345
Mof_P 	P 	0.8638	0.19803	0.483	0.33
Mof_O 	O 	0.7924	0.122	0.3001	-0.435
Mof_O 	O 	0.8032	0.0568	0.3307	-0.42
Mof_O 	O 	0.7087	0.1018	0.3324	-0.423
Mof_O 	O 	0.7137	0.0297	0.335	-0.429
Mof_O 	O 	0.6456	0.0278	0.3886	-0.433
Mof_O 	O 	0.7449	0.9849	0.3877	-0.429
Mof_O 	O 	0.8294	0.0206	0.3861	-0.49
Mof_O 	O 	0.7394	0.0583	0.3905	-0.296
Mof_O 	O 	0.6494	0.0972	0.3898	-0.463
Mof_O 	O 	0.7067	0.1625	0.364	-0.469
Mof_O 	O 	0.7968	0.1256	0.3647	-0.297
Mof_O 	O 	0.8868	0.0871	0.3607	-0.471
Mof_O 	O 	0.8789	0.1442	0.3257	-0.433
Mof_O 	O 	0.7821	0.1885	0.3281	-0.43
Mof_O 	O 	0.7891	0.2592	0.3351	-0.543
Mof_O 	O 	0.8723	0.2158	0.3365	-0.454
Mof_O 	O 	0.9344	0.1433	0.3827	-0.466
Mof_O 	O 	0.8424	0.1788	0.3849	-0.318
Mof_O 	O 	0.7552	0.2164	0.3859	-0.485
Mof_O 	O 	0.77	0.1551	0.4194	0.196
Mof_O 	O 	0.8505	0.1227	0.4195	0.231
Mof_O 	O 	0.8909	0.0605	0.428	-0.052
Mof_O 	O 	0.6731	0.1525	0.4323	0.003
Mof_O 	O 	0.7153	0.0907	0.4451	0.181
Mof_O 	O 	0.7946	0.0564	0.4432	0.114
Mof_O 	O 	0.8996	0.9891	0.4231	-0.624
Mof_O 	O 	0.8029	0.9863	0.4417	-0.473
Mof_O 	O 	0.7134	0.0246	0.442	-0.301
Mof_O 	O 	0.6219	0.0609	0.4443	-0.476
Mof_O 	O 	0.6667	0.9703	0.4289	-0.428
Mof_O 	O 	0.729	0.9652	0.4859	-0.425
Mof_O 	O 	0.6321	0.0063	0.4839	-0.417
Mof_O 	O 	0.6425	0.1184	0.4849	-0.068
Mof_O 	O 	0.863	0.0224	0.4804	-0.16
Mof_O 	O 	0.9446	0.115	0.4472	-0.127
Mof_O 	O 	0.7221	0.2073	0.4494	-0.052
Mof_O 	O 	0.8408	0.2517	0.3934	-0.46
Mof_O 	O 	0.9368	0.2108	0.3875	-0.429
Mof_O 	O 	0.0151	0.2417	0.4159	-0.509
Mof_O 	O 	0.9244	0.2718	0.425	-0.427
Mof_O 	O 	0.7907	0.258	0.4492	-0.452
Mof_O 	O 	0.8816	0.2196	0.4498	-0.315
Mof_O 	O 	0.9725	0.1813	0.4495	-0.49
Mof_O 	O 	0.8871	0.1623	0.4825	0.204
Mof_O 	O 	0.8058	0.196	0.4834	0.215
Mof_O 	O 	0.7219	0.2069	0.518	-0.039
Mof_O 	O 	0.9416	0.1153	0.516	-0.101
Mof_O 	O 	0.9799	0.0755	0.5675	-0.607
Mof_O 	O 	0.8527	0.1216	0.5468	0.147
Mof_O 	O 	0.775	0.1565	0.5484	0.142
Mof_O 	O 	0.6586	0.215	0.5722	-0.58
Mof_O 	O 	0.6764	0.1526	0.5379	0.011
Mof_O 	O 	0.8937	0.0601	0.5334	-0.016
Mof_O 	O 	0.7959	0.0566	0.5212	0.155
Mof_O 	O 	0.7184	0.0915	0.5231	0.226
Mof_O 	O 	0.626	0.062	0.5257	-0.465
Mof_O 	O 	0.7149	0.0258	0.5244	-0.282
Mof_O 	O 	0.8043	0.984	0.5208	-0.448
Mof_O 	O 	0.6684	0.9709	0.5415	-0.441
Mof_O 	O 	0.6497	0.0277	0.5796	-0.429
Mof_O 	O 	0.7521	0.9869	0.5788	-0.436
Mof_O 	O 	0.8355	0.0202	0.5774	-0.466
Mof_O 	O 	0.7463	0.0582	0.5776	-0.292
Mof_O 	O 	0.6534	0.0961	0.5799	-0.472
Mof_O 	O 	0.7118	0.1616	0.6041	-0.487
Mof_O 	O 	0.8032	0.1249	0.602	-0.309
Mof_O 	O 	0.8893	0.084	0.6032	-0.485
Mof_O 	O 	0.9363	0.1402	0.5789	-0.472
Mof_O 	O 	0.8483	0.1767	0.5803	-0.29
Mof_O 	O 	0.76	0.2173	0.5831	-0.478
Mof_O 	O 	0.7907	0.2581	0.5163	-0.471
Mof_O 	O 	0.8806	0.2184	0.5143	-0.288
Mof_O 	O 	0.9744	0.1815	0.5166	-0.463
Mof_O 	O 	0.9655	0.2412	0.4829	-0.457
Mof_O 	O 	0.866	0.2832	0.4856	-0.445
Mof_O 	O 	0.9249	0.2704	0.5425	-0.437
Mof_O 	O 	0.9428	0.2102	0.5737	-0.434
Mof_O 	O 	0.8436	0.2494	0.578	-0.438
Mof_O 	O 	0.8822	0.2125	0.6308	-0.435
Mof_O 	O 	0.8892	0.1422	0.6383	-0.447
Mof_O 	O 	0.7863	0.1843	0.6415	-0.432
Mof_O 	O 	0.8005	0.1213	0.668	-0.428
Mof_O 	O 	0.8118	0.0599	0.6347	-0.427
Mof_O 	O 	0.7134	0.0971	0.6351	-0.42
Mof_O 	O 	0.7225	0.0282	0.6323	-0.43
Mof_N 	N 	0.1527	0.0694	0.393	-0.309
Mof_H 	H 	0.1429	0.0505	0.3873	0.135
Mof_N 	N 	0.1901	0.0821	0.3742	-0.141
Mof_N 	N 	0.1587	0.2066	0.4471	-0.222
Mof_H 	H 	0.1695	0.2218	0.4615	0.086
Mof_N 	N 	0.1179	0.2129	0.4266	-0.242
Mof_N 	N 	0.0559	0.3118	0.4089	-0.242
Mof_N 	N 	0.0121	0.3194	0.4278	-0.216
Mof_H 	H 	0.0015	0.3084	0.4456	0.1
Mof_C 	C 	0.9889	0.3485	0.412	0.285
Mof_C 	C 	0.0183	0.3588	0.3834	-0.208
Mof_C 	C 	0.0597	0.3361	0.3815	0.304
Mof_N 	N 	0.8125	0.2416	0.2661	-0.21
Mof_H 	H 	0.793	0.2297	0.279	0.126
Mof_N 	N 	0.8217	0.2767	0.2697	-0.223
Mof_N 	N 	0.565	0.0558	0.9782	-0.144
Mof_N 	N 	0.6094	0.0703	0.9732	-0.218
Mof_H 	H 	0.6308	0.0627	0.9586	0.136
Mof_N 	N 	0.56	0.1495	0.0959	-0.292
Mof_N 	N 	0.5272	0.1629	0.0735	-0.23
Mof_H 	H 	0.509	0.1803	0.0792	0.06
Mof_N 	N 	0.5659	0.2374	0.1919	-0.214
Mof_H 	H 	0.5376	0.2416	0.1825	0.059
Mof_N 	N 	0.5951	0.2068	0.1849	-0.306
Mof_N 	N 	0.7154	0.2786	0.2844	-0.26
Mof_N 	N 	0.689	0.2574	0.3079	-0.252
Mof_H 	H 	0.6946	0.2558	0.3297	0.112
Mof_N 	N 	0.7507	0.3227	0.3804	-0.193
Mof_H 	H 	0.7791	0.3141	0.3857	0.074
Mof_N 	N 	0.7333	0.3237	0.3479	-0.245
Mof_C 	C 	0.0934	0.0873	0.4325	-1.208
Mof_H 	H 	0.087	0.0628	0.4339	0.337
Mof_H 	H 	0.1011	0.0961	0.4551	0.349
Mof_H 	H 	0.0646	0.099	0.4237	0.342
Mof_C 	C 	0.1308	0.0929	0.4118	0.489
Mof_C 	C 	0.1584	0.1265	0.4041	-0.19
Mof_C 	C 	0.1943	0.1134	0.3796	0.173
Mof_C 	C 	0.232	0.1417	0.3647	-0.527
Mof_H 	H 	0.259	0.1448	0.3805	0.136
Mof_H 	H 	0.2446	0.134	0.3428	0.145
Mof_H 	H 	0.2151	0.1635	0.3617	0.152
Mof_C 	C 	0.2253	0.1673	0.4638	-0.643
Mof_H 	H 	0.2423	0.1879	0.4713	0.186
Mof_H 	H 	0.2161	0.1536	0.4835	0.185
Mof_H 	H 	0.2468	0.1539	0.4491	0.181
Mof_C 	C 	0.1789	0.1776	0.4437	0.226
Mof_C 	C 	0.149	0.1598	0.4204	-0.144
Mof_C 	C 	0.1122	0.1814	0.4105	0.227
Mof_C 	C 	0.0712	0.1731	0.3851	-0.705
Mof_H 	H 	0.0636	0.1935	0.3718	0.223
Mof_H 	H 	0.0818	0.1548	0.3699	0.211
Mof_H 	H 	0.0423	0.1657	0.3975	0.218
Mof_C 	C 	0.9436	0.3618	0.4275	-0.799
Mof_H 	H 	0.9517	0.3797	0.4439	0.251
Mof_H 	H 	0.9227	0.3712	0.4098	0.247
Mof_H 	H 	0.9267	0.3432	0.4391	0.243
Mof_C 	C 	0.101	0.3405	0.359	-0.842
Mof_H 	H 	0.093	0.3315	0.3366	0.255
Mof_H 	H 	0.1088	0.3648	0.3572	0.259
Mof_H 	H 	0.129	0.3282	0.3681	0.258
Mof_C 	C 	0.0272	0.4382	0.4092	-0.611
Mof_H 	H 	0.0587	0.4289	0.416	0.183
Mof_H 	H 	0.029	0.4632	0.4085	0.18
Mof_H 	H 	0.0024	0.4313	0.4256	0.19
Mof_C 	C 	0.9975	0.387	0.3304	0.127
Mof_C 	C 	0.0114	0.3892	0.3657	-0.062
Mof_C 	C 	0.0139	0.425	0.3748	0.171
Mof_N 	N 	0.0016	0.4448	0.3451	-0.13
Mof_N 	N 	0.9915	0.4214	0.3177	-0.183
Mof_H 	H 	0.9831	0.427	0.297	0.097
Mof_C 	C 	0.99	0.3556	0.3027	-0.52
Mof_H 	H 	0.966	0.3393	0.3115	0.154
Mof_H 	H 	0.9781	0.365	0.2813	0.152
Mof_H 	H 	0.0208	0.3439	0.299	0.155
Mof_C 	C 	0.978	0.2605	0.2119	-0.915
Mof_H 	H 	0.9818	0.2379	0.222	0.272
Mof_H 	H 	0.0078	0.2675	0.2008	0.281
Mof_H 	H 	0.9694	0.277	0.2296	0.27
Mof_C 	C 	0.8869	0.2543	0.1902	-0.3
Mof_C 	C 	0.8667	0.2517	0.1564	0.514
Mof_N 	N 	0.9061	0.2551	0.1324	-0.29
Mof_N 	N 	0.9506	0.2599	0.1513	-0.233
Mof_H 	H 	0.9797	0.2626	0.1427	0.12
Mof_C 	C 	0.9387	0.2594	0.187	0.337
Mof_C 	C 	0.8187	0.2493	0.151	-1.292
Mof_H 	H 	0.8025	0.2694	0.1604	0.381
Mof_H 	H 	0.8124	0.248	0.1267	0.388
Mof_H 	H 	0.8061	0.2288	0.1621	0.38
Mof_C 	C 	0.8273	0.1911	0.2287	-0.644
Mof_H 	H 	0.7926	0.1883	0.2242	0.186
Mof_H 	H 	0.8457	0.186	0.2081	0.193
Mof_H 	H 	0.8371	0.1754	0.2468	0.207
Mof_C 	C 	0.8378	0.2289	0.2401	0.214
Mof_C 	C 	0.861	0.2516	0.2235	-0.08
Mof_C 	C 	0.8529	0.2852	0.2422	0.126
Mof_C 	C 	0.8722	0.3221	0.2387	-0.532
Mof_H 	H 	0.8548	0.337	0.2544	0.118
Mof_H 	H 	0.9069	0.3225	0.2439	0.149
Mof_H 	H 	0.867	0.3301	0.2155	0.145
Mof_C 	C 	0.4897	0.064	0.0123	-0.633
Mof_H 	H 	0.4808	0.0415	0.0033	0.185
Mof_H 	H 	0.4857	0.064	0.0369	0.187
Mof_H 	H 	0.4687	0.0814	0.0023	0.184
Mof_C 	C 	0.5416	0.0715	0.0036	0.2
Mof_C 	C 	0.5713	0.0992	0.0152	-0.122
Mof_C 	C 	0.6165	0.0974	0.9934	0.227
Mof_C 	C 	0.6622	0.1182	0.9952	-0.668
Mof_H 	H 	0.6568	0.1403	0.9843	0.191
Mof_H 	H 	0.6711	0.1217	0.0189	0.193
Mof_H 	H 	0.6884	0.1061	0.9835	0.192
Mof_C 	C 	0.6238	0.1051	0.09	-0.811
Mof_H 	H 	0.6139	0.0942	0.1112	0.214
Mof_H 	H 	0.6345	0.0877	0.074	0.26
Mof_H 	H 	0.6505	0.121	0.0945	0.202
Mof_C 	C 	0.5841	0.1233	0.0762	0.249
Mof_C 	C 	0.5626	0.1249	0.0397	-0.164
Mof_C 	C 	0.5237	0.1492	0.0436	0.274
Mof_C 	C 	0.4926	0.1606	0.0147	-0.768
Mof_H 	H 	0.4786	0.183	0.0199	0.23
Mof_H 	H 	0.5124	0.1622	0.9942	0.243
Mof_H 	H 	0.4665	0.1441	0.0111	0.223
Mof_C 	C 	0.6749	0.1883	0.2082	-0.728
Mof_H 	H 	0.6845	0.1826	0.185	0.172
Mof_H 	H 	0.701	0.2011	0.2192	0.219
Mof_H 	H 	0.6688	0.1673	0.2209	0.191
Mof_C 	C 	0.6307	0.209	0.2075	0.238
Mof_C 	C 	0.6233	0.2388	0.2289	-0.12
Mof_C 	C 	0.587	0.2578	0.214	0.202
Mof_C 	C 	0.5606	0.2919	0.2251	-0.611
Mof_H 	H 	0.5299	0.2863	0.2363	0.17
Mof_H 	H 	0.5814	0.3045	0.2408	0.183
Mof_H 	H 	0.5542	0.3059	0.2051	0.181
Mof_C 	C 	0.7199	0.2922	0.2242	-0.725
Mof_H 	H 	0.7525	0.3004	0.23	0.192
Mof_H 	H 	0.722	0.2764	0.2051	0.219
Mof_H 	H 	0.6994	0.3116	0.2179	0.221
Mof_C 	C 	0.6978	0.2739	0.2548	0.268
Mof_C 	C 	0.659	0.2479	0.2549	-0.248
Mof_C 	C 	0.6521	0.2394	0.2897	0.45
Mof_C 	C 	0.6235	0.216	0.3046	-1.097
Mof_H 	H 	0.5909	0.2171	0.2948	0.314
Mof_H 	H 	0.6371	0.1932	0.301	0.309
Mof_H 	H 	0.6217	0.2207	0.329	0.304
Mof_C 	C 	0.6534	0.342	0.3223	-0.66
Mof_H 	H 	0.6296	0.3235	0.3229	0.199
Mof_H 	H 	0.6366	0.364	0.3227	0.192
Mof_H 	H 	0.6728	0.3402	0.3016	0.174
Mof_C 	C 	0.6863	0.3393	0.3528	0.209
Mof_C 	C 	0.6777	0.3471	0.3862	-0.137
Mof_C 	C 	0.7193	0.3365	0.4044	0.168
Mof_C 	C 	0.7311	0.3413	0.4438	-0.556
Mof_H 	H 	0.7643	0.3498	0.4464	0.152
Mof_H 	H 	0.7083	0.3577	0.4536	0.166
Mof_H 	H 	0.7279	0.3193	0.4554	0.155
Mof_C 	C 	0.5989	0.3163	0.4468	-0.563
Mof_H 	H 	0.5818	0.3001	0.4323	0.16
Mof_H 	H 	0.6312	0.3073	0.4523	0.165
Mof_H 	H 	0.5805	0.3197	0.4677	0.165
Mof_C 	C 	0.6255	0.3995	0.3956	0.21
Mof_N 	N 	0.586	0.409	0.4179	-0.246
Mof_N 	N 	0.5729	0.3794	0.4377	-0.194
Mof_H 	H 	0.55	0.3784	0.4531	0.081
Mof_C 	C 	0.6043	0.3515	0.4277	0.164
Mof_C 	C 	0.6368	0.364	0.4017	-0.121
Mof_C 	C 	0.647	0.425	0.3723	-0.693
Mof_H 	H 	0.6452	0.4477	0.3825	0.205
Mof_H 	H 	0.681	0.4191	0.368	0.205
Mof_H 	H 	0.629	0.4249	0.3509	0.185
Mof_O 	O 	0.8186	0.1105	0.4814	2.874
Mof_K 	K 	0.8503	0.0988	0.482	-6.968
Mof_O 	O 	0.772	0.1296	0.4864	2.952
_end
