data_functionalizedCrystal
_audit_creation_method	'EQeq! by Chris Wilmer'
_symmetry_space_group_name_H-M	'P1'
_symmetry_Int_Tables_number	1
_symmetry_cell_setting	triclinic
loop_
_symmetry_equiv_pos_as_xyz
  x,y,z
_cell_length_a	8.6547
_cell_length_b	17.372
_cell_length_c	17.372
_cell_angle_alpha	120
_cell_angle_beta	90
_cell_angle_gamma	90
loop_
_atom_site_label
_atom_site_type_symbol
_atom_site_fract_x
_atom_site_fract_y
_atom_site_fract_z
_atom_site_charge
Mof_Co	Co	-0	0.53031	-0	1.102
Mof_Co	Co	0.33333	0.46969	0.46969	1.135
Mof_Co	Co	0.66667	0	0.53031	1.114
Mof_H 	H 	0.54873	0.8804	0.6919	0.07
Mof_H 	H 	0.52757	0.0415	0.2411	0.007
Mof_H 	H 	0.8276	0.1535	0.5784	0.281
Mof_H 	H 	0.1391	0.2411	0.0415	-0.024
Mof_H 	H 	0.8609	0.1996	0.9585	0.107
Mof_H 	H 	0.16093	0.4249	0.8465	0.276
Mof_H 	H 	0.88207	0.8115	0.1196	0.043
Mof_H 	H 	0.19423	0.7589	0.8004	0.055
Mof_H 	H 	0.66307	0.2343	0.5353	0.111
Mof_H 	H 	0.32973	0.4647	0.699	0.101
Mof_H 	H 	0.33693	0.699	0.4647	0.101
Mof_H 	H 	0.11793	0.6919	0.8804	0.061
Mof_H 	H 	0.47243	0.8004	0.7589	0.059
Mof_H 	H 	0.2154	0.3081	0.1885	0.079
Mof_H 	H 	0.7846	0.1196	0.8115	0.016
Mof_H 	H 	0.50573	0.8465	0.4249	0.28
Mof_H 	H 	0.9964	0.301	0.7657	0.072
Mof_H 	H 	0.49427	0.4216	0.5751	0.279
Mof_H 	H 	0.83907	0.5784	0.1535	0.284
Mof_H 	H 	0.0036	0.5353	0.2343	0.132
Mof_H 	H 	0.1724	0.5751	0.4216	0.276
Mof_H 	H 	0.80577	0.9585	0.1996	0.083
Mof_H 	H 	0.45127	0.1885	0.3081	0.057
Mof_H 	H 	0.67027	0.7657	0.301	0.094
Mof_C 	C 	0.49093	0.82721	0.65925	-0.029
Mof_C 	C 	0.17573	0.65925	0.82721	-0.028
Mof_C 	C 	0.83777	0.67936	0.15302	0.391
Mof_C 	C 	0.45203	0.79672	0.57093	-0.034
Mof_C 	C 	0.82427	0.83204	0.17279	0.011
Mof_C 	C 	0.35893	0.70142	0.6544	-0.033
Mof_C 	C 	0.21463	0.57093	0.79672	-0.038
Mof_C 	C 	0.8289	0.15302	0.67936	0.411
Mof_C 	C 	0.8424	0.17279	0.83204	0.073
Mof_C 	C 	0.30193	0.52474	0.71945	-0.125
Mof_C 	C 	0.0314	0.47526	0.19471	-0.256
Mof_C 	C 	0.9686	0.28055	0.80529	-0.004
Mof_C 	C 	0.49557	0.32064	0.47366	0.372
Mof_C 	C 	0.34873	0.56511	0.67215	0.159
Mof_C 	C 	0.8813	0.20328	0.77421	-0.118
Mof_C 	C 	0.1711	0.47366	0.32064	0.351
Mof_C 	C 	0.9744	0.29858	0.95298	0.177
Mof_C 	C 	0.0154	0.32785	0.89296	0.019
Mof_C 	C 	0.64107	0.04702	0.3456	-0.131
Mof_C 	C 	0.1576	0.34075	0.16796	-0.137
Mof_C 	C 	0.54797	0.22579	0.42907	-0.022
Mof_C 	C 	0.77787	0.9194	0.2207	-0.087
Mof_C 	C 	0.68207	0.10704	0.43489	0.19
Mof_C 	C 	0.30773	0.6544	0.70142	-0.032
Mof_C 	C 	0.36473	0.71945	0.52474	-0.126
Mof_C 	C 	0.69227	0.95298	0.29858	0.061
Mof_C 	C 	0.63527	0.19471	0.47526	-0.154
Mof_C 	C 	0.50443	0.84698	0.52634	0.378
Mof_C 	C 	0.55547	0.0806	0.3013	0.011
Mof_C 	C 	0.1187	0.42907	0.22579	0.031
Mof_C 	C 	0.44453	0.7793	0.6987	-0.031
Mof_C 	C 	0.78537	0.77421	0.20328	-0.064
Mof_C 	C 	0.1112	0.3013	0.0806	0.091
Mof_C 	C 	0.0256	0.3456	0.04702	-0.255
Mof_C 	C 	0.69807	0.80529	0.28055	-0.095
Mof_C 	C 	0.65127	0.89296	0.32785	0.126
Mof_C 	C 	0.22213	0.6987	0.7793	-0.035
Mof_C 	C 	0.9846	0.43489	0.10704	0.309
Mof_C 	C 	0.50907	0.16796	0.34075	-0.069
Mof_C 	C 	0.8888	0.2207	0.9194	-0.165
Mof_C 	C 	0.16223	0.52634	0.84698	0.379
Mof_C 	C 	0.31793	0.67215	0.56511	0.161
Mof_O 	O 	0.2409	0.42819	0.34619	-0.449
Mof_O 	O 	0.47143	0.81329	0.44321	-0.483
Mof_O 	O 	0.8974	0.4803	0.07736	-0.42
Mof_O 	O 	0.09243	0.57181	0.918	-0.434
Mof_O 	O 	0.42577	0.34619	0.42819	-0.453
Mof_O 	O 	0.7591	0.082	0.65381	-0.47
Mof_O 	O 	0.80477	0.62992	0.18671	-0.49
Mof_O 	O 	0.8619	0.18671	0.62992	-0.494
Mof_O 	O 	0.1026	0.40294	0.92264	-0.338
Mof_O 	O 	0.43593	0.5197	0.59706	-0.381
Mof_O 	O 	0.52857	0.37008	0.55679	-0.483
Mof_O 	O 	0.56407	0.92264	0.40294	-0.355
Mof_O 	O 	0.76927	0.07736	0.4803	-0.405
Mof_O 	O 	0.90757	0.65381	0.082	-0.451
Mof_O 	O 	0.57423	0.918	0.57181	-0.422
Mof_O 	O 	0.19523	0.44321	0.81329	-0.485
Mof_O 	O 	0.1381	0.55679	0.37008	-0.484
Mof_O 	O 	0.23073	0.59706	0.5197	-0.387
_end
