data_functionalizedCrystal
_audit_creation_method	'EQeq! by Chris Wilmer'
_symmetry_space_group_name_H-M	'P1'
_symmetry_Int_Tables_number	1
_symmetry_cell_setting	triclinic
loop_
_symmetry_equiv_pos_as_xyz
  x,y,z
_cell_length_a	26.548
_cell_length_b	20.076
_cell_length_c	12.964
_cell_angle_alpha	90
_cell_angle_beta	90
_cell_angle_gamma	90
loop_
_atom_site_label
_atom_site_type_symbol
_atom_site_fract_x
_atom_site_fract_y
_atom_site_fract_z
_atom_site_charge
Mof_Co	Co	0.74075	0.10694	0.5966	1.17
Mof_W 	W 	0.84708	0.16718	0.01567	1.019
Mof_W 	W 	0.73305	0.07704	0.10493	1.324
Mof_W 	W 	0.73107	0.16945	0.85936	1.286
Mof_W 	W 	0.63182	0.15782	0.18144	1.012
Mof_W 	W 	0.7338	0.15814	0.32371	1.316
Mof_N 	N 	0.6616	0.0811	0.5876	-0.216
Mof_O 	O 	0.7457	0.0749	0.2483	-0.462
Mof_O 	O 	0.8002	0.1075	0.0842	-0.451
Mof_O 	O 	0.8005	0.3153	0.289	-0.458
Mof_O 	O 	0.6624	0.1415	0.3145	-0.456
Mof_O 	O 	0.8761	0.1826	0.1511	-0.431
Mof_O 	O 	0.6592	0.1821	0.8459	-0.456
Mof_O 	O 	0.6617	0.0752	0.1329	-0.445
Mof_O 	O 	0.7142	0.1783	0.161	-0.37
Mof_O 	O 	0.7989	0.1722	0.9074	-0.46
Mof_O 	O 	0.7432	0.1278	0.4454	-0.561
Mof_O 	O 	0.7196	0.1085	0.9693	-0.47
Mof_O 	O 	0.6239	0.1848	0.0409	-0.442
Mof_O 	O 	0.7415	0.9929	0.0845	-0.514
Mof_C 	C 	0.6385	0.0355	0.5231	0.021
Mof_H 	H 	0.6546	0.012	0.4707	0.017
Mof_N 	N 	0.5803	0.0724	0.6286	-0.132
Mof_C 	C 	0.5342	0.0834	0.6819	0.084
Mof_C 	C 	0.4528	0.0444	0.7383	-0.094
Mof_H 	H 	0.4279	0.0119	0.7403	0.059
Mof_C 	C 	0.498	0.0331	0.6854	-0.073
Mof_H 	H 	0.5038	0.9925	0.653	0.052
Mof_C 	C 	0.4459	0.1041	0.7871	0.097
Mof_C 	C 	0.6259	0.0999	0.653	0.086
Mof_H 	H 	0.6313	0.1283	0.7086	0.008
Mof_C 	C 	0.4805	0.1522	0.784	-0.094
Mof_H 	H 	0.4741	0.1929	0.8152	0.058
Mof_C 	C 	0.5273	0.1417	0.731	-0.075
Mof_H 	H 	0.5522	0.1742	0.7318	0.049
Mof_C 	C 	0.5899	0.0301	0.547	-0.01
Mof_H 	H 	0.5665	0.0026	0.5145	0.025
Mof_N 	N 	0.4011	0.1186	0.8445	-0.137
Mof_C 	C 	0.3482	0.1568	0.9622	0.017
Mof_H 	H 	0.3355	0.1786	0.0199	0.008
Mof_C 	C 	0.3982	0.1572	0.9344	-0.009
Mof_H 	H 	0.4245	0.1786	0.9681	0.022
Mof_N 	N 	0.3198	0.1208	0.8957	-0.218
Mof_C 	C 	0.353	0.0989	0.8236	0.101
Mof_H 	H 	0.3439	0.0734	0.7667	-0.002
Mof_O 	O 	0.7372	0.1148	0.7558	-0.525
Mof_Co	Co	0.75925	0.89306	0.0966	1.169
Mof_W 	W 	0.65292	0.83282	0.51567	1.025
Mof_W 	W 	0.76695	0.92296	0.60493	1.328
Mof_W 	W 	0.76893	0.83055	0.35936	1.286
Mof_W 	W 	0.86818	0.84218	0.68144	1.012
Mof_W 	W 	0.7662	0.84186	0.82371	1.315
Mof_N 	N 	0.8384	0.9189	0.0876	-0.216
Mof_O 	O 	0.7543	0.9251	0.7483	-0.462
Mof_O 	O 	0.6998	0.8925	0.5842	-0.451
Mof_O 	O 	0.6995	0.6847	0.789	-0.458
Mof_O 	O 	0.8376	0.8585	0.8145	-0.456
Mof_O 	O 	0.6239	0.8174	0.6511	-0.431
Mof_O 	O 	0.8408	0.8179	0.3459	-0.456
Mof_O 	O 	0.8383	0.9248	0.6329	-0.444
Mof_O 	O 	0.7858	0.8217	0.661	-0.37
Mof_O 	O 	0.7011	0.8278	0.4074	-0.463
Mof_O 	O 	0.7568	0.8722	0.9454	-0.56
Mof_O 	O 	0.7804	0.8915	0.4693	-0.473
Mof_O 	O 	0.8761	0.8152	0.5409	-0.44
Mof_O 	O 	0.7585	0.0071	0.5845	-0.515
Mof_C 	C 	0.8615	0.9645	0.0231	0.021
Mof_H 	H 	0.8454	0.988	0.9707	0.018
Mof_N 	N 	0.9197	0.9276	0.1286	-0.131
Mof_C 	C 	0.9658	0.9166	0.1819	0.078
Mof_C 	C 	0.0472	0.9556	0.2383	-0.1
Mof_H 	H 	0.0721	0.9881	0.2403	0.062
Mof_C 	C 	0.002	0.9669	0.1854	-0.06
Mof_H 	H 	0.9962	0.0075	0.153	0.046
Mof_C 	C 	0.0541	0.8959	0.2871	0.1
Mof_C 	C 	0.8741	0.9001	0.153	0.085
Mof_H 	H 	0.8687	0.8717	0.2086	0.008
Mof_C 	C 	0.0195	0.8478	0.284	-0.096
Mof_H 	H 	0.0259	0.8071	0.3152	0.058
Mof_C 	C 	0.9727	0.8583	0.231	-0.073
Mof_H 	H 	0.9478	0.8258	0.2318	0.048
Mof_C 	C 	0.9101	0.9699	0.047	-0.01
Mof_H 	H 	0.9335	0.9974	0.0145	0.025
Mof_N 	N 	0.0989	0.8814	0.3445	-0.137
Mof_C 	C 	0.1518	0.8432	0.4622	0.017
Mof_H 	H 	0.1645	0.8214	0.5199	0.008
Mof_C 	C 	0.1018	0.8428	0.4344	-0.009
Mof_H 	H 	0.0755	0.8214	0.4681	0.022
Mof_N 	N 	0.1802	0.8792	0.3957	-0.218
Mof_C 	C 	0.147	0.9011	0.3236	0.101
Mof_H 	H 	0.1561	0.9266	0.2667	-0.001
Mof_O 	O 	0.7628	0.8852	0.2558	-0.525
Mof_Co	Co	0.25925	0.60694	0.4034	1.169
Mof_W 	W 	0.15292	0.66718	0.98433	1.019
Mof_W 	W 	0.26695	0.57704	0.89507	1.326
Mof_W 	W 	0.26893	0.66945	0.14064	1.285
Mof_W 	W 	0.36818	0.65782	0.81856	1.012
Mof_W 	W 	0.2662	0.65814	0.67629	1.315
Mof_N 	N 	0.3384	0.5811	0.4124	-0.216
Mof_O 	O 	0.2543	0.5749	0.7517	-0.462
Mof_O 	O 	0.1998	0.6075	0.9158	-0.451
Mof_O 	O 	0.1995	0.8153	0.711	-0.458
Mof_O 	O 	0.3376	0.6415	0.6855	-0.456
Mof_O 	O 	0.1239	0.6826	0.8489	-0.431
Mof_O 	O 	0.3408	0.6821	0.1541	-0.457
Mof_O 	O 	0.3383	0.5752	0.8671	-0.444
Mof_O 	O 	0.2858	0.6783	0.839	-0.37
Mof_O 	O 	0.2011	0.6722	0.0926	-0.461
Mof_O 	O 	0.2568	0.6278	0.5546	-0.561
Mof_O 	O 	0.2804	0.6085	0.0307	-0.471
Mof_O 	O 	0.3761	0.6848	0.9591	-0.442
Mof_O 	O 	0.2585	0.4929	0.9155	-0.516
Mof_C 	C 	0.3615	0.5355	0.4769	0.021
Mof_H 	H 	0.3454	0.512	0.5293	0.018
Mof_N 	N 	0.4197	0.5724	0.3714	-0.132
Mof_C 	C 	0.4658	0.5834	0.3181	0.085
Mof_C 	C 	0.5472	0.5444	0.2617	-0.093
Mof_H 	H 	0.5721	0.5119	0.2597	0.058
Mof_C 	C 	0.502	0.5331	0.3146	-0.075
Mof_H 	H 	0.4962	0.4925	0.347	0.053
Mof_C 	C 	0.5541	0.6041	0.2129	0.096
Mof_C 	C 	0.3741	0.5999	0.347	0.086
Mof_H 	H 	0.3687	0.6283	0.2914	0.008
Mof_C 	C 	0.5195	0.6522	0.216	-0.094
Mof_H 	H 	0.5259	0.6929	0.1848	0.057
Mof_C 	C 	0.4727	0.6417	0.269	-0.076
Mof_H 	H 	0.4478	0.6742	0.2682	0.049
Mof_C 	C 	0.4101	0.5301	0.453	-0.01
Mof_H 	H 	0.4335	0.5026	0.4855	0.025
Mof_N 	N 	0.5989	0.6186	0.1555	-0.137
Mof_C 	C 	0.6518	0.6568	0.0378	0.015
Mof_H 	H 	0.6645	0.6786	0.9801	0.01
Mof_C 	C 	0.6018	0.6572	0.0656	-0.008
Mof_H 	H 	0.5755	0.6786	0.0319	0.022
Mof_N 	N 	0.6802	0.6208	0.1043	-0.218
Mof_C 	C 	0.647	0.5989	0.1764	0.101
Mof_H 	H 	0.6561	0.5734	0.2333	-0.002
Mof_O 	O 	0.2628	0.6148	0.2442	-0.525
Mof_Co	Co	0.24075	0.39306	0.9034	1.169
Mof_W 	W 	0.34708	0.33282	0.48433	1.025
Mof_W 	W 	0.23305	0.42296	0.39507	1.328
Mof_W 	W 	0.23107	0.33055	0.64064	1.286
Mof_W 	W 	0.13182	0.34218	0.31856	1.012
Mof_W 	W 	0.2338	0.34186	0.17629	1.315
Mof_N 	N 	0.1616	0.4189	0.9124	-0.216
Mof_O 	O 	0.2457	0.4251	0.2517	-0.462
Mof_O 	O 	0.3002	0.3925	0.4158	-0.451
Mof_O 	O 	0.3005	0.1847	0.211	-0.458
Mof_O 	O 	0.1624	0.3585	0.1855	-0.456
Mof_O 	O 	0.3761	0.3174	0.3489	-0.431
Mof_O 	O 	0.1592	0.3179	0.6541	-0.456
Mof_O 	O 	0.1617	0.4248	0.3671	-0.444
Mof_O 	O 	0.2142	0.3217	0.339	-0.37
Mof_O 	O 	0.2989	0.3278	0.5926	-0.463
Mof_O 	O 	0.2432	0.3722	0.0546	-0.56
Mof_O 	O 	0.2196	0.3915	0.5307	-0.473
Mof_O 	O 	0.1239	0.3152	0.4591	-0.44
Mof_O 	O 	0.2415	0.5071	0.4155	-0.515
Mof_C 	C 	0.1385	0.4645	0.9769	0.015
Mof_H 	H 	0.1546	0.488	0.0293	0.022
Mof_N 	N 	0.0803	0.4276	0.8714	-0.132
Mof_C 	C 	0.0342	0.4166	0.8181	0.081
Mof_C 	C 	0.9528	0.4556	0.7617	-0.097
Mof_H 	H 	0.9279	0.4881	0.7597	0.06
Mof_C 	C 	0.998	0.4669	0.8146	-0.066
Mof_H 	H 	0.0038	0.5075	0.847	0.049
Mof_C 	C 	0.9459	0.3959	0.7129	0.098
Mof_C 	C 	0.1259	0.4001	0.847	0.085
Mof_H 	H 	0.1313	0.3717	0.7914	0.008
Mof_C 	C 	0.9805	0.3478	0.716	-0.094
Mof_H 	H 	0.9741	0.3071	0.6848	0.058
Mof_C 	C 	0.0273	0.3583	0.769	-0.075
Mof_H 	H 	0.0522	0.3258	0.7682	0.049
Mof_C 	C 	0.0899	0.4699	0.953	-0.007
Mof_H 	H 	0.0665	0.4974	0.9855	0.023
Mof_N 	N 	0.9011	0.3814	0.6555	-0.137
Mof_C 	C 	0.8482	0.3432	0.5378	0.017
Mof_H 	H 	0.8355	0.3214	0.4801	0.008
Mof_C 	C 	0.8982	0.3428	0.5656	-0.009
Mof_H 	H 	0.9245	0.3214	0.5319	0.022
Mof_N 	N 	0.8198	0.3792	0.6043	-0.218
Mof_C 	C 	0.853	0.4011	0.6764	0.101
Mof_H 	H 	0.8439	0.4266	0.7333	-0.001
Mof_O 	O 	0.2372	0.3852	0.7442	-0.525
Mof_Co	Co	0.25925	0.89306	0.4034	1.169
Mof_W 	W 	0.15292	0.83282	0.98433	1.018
Mof_W 	W 	0.26695	0.92296	0.89507	1.323
Mof_W 	W 	0.26893	0.83055	0.14064	1.285
Mof_W 	W 	0.36818	0.84218	0.81856	1.011
Mof_W 	W 	0.2662	0.84186	0.67629	1.315
Mof_N 	N 	0.3384	0.9189	0.4124	-0.216
Mof_O 	O 	0.2543	0.9251	0.7517	-0.462
Mof_O 	O 	0.1998	0.8925	0.9158	-0.451
Mof_O 	O 	0.1995	0.6847	0.711	-0.458
Mof_O 	O 	0.3376	0.8585	0.6855	-0.456
Mof_O 	O 	0.1239	0.8174	0.8489	-0.431
Mof_O 	O 	0.3408	0.8179	0.1541	-0.456
Mof_O 	O 	0.3383	0.9248	0.8671	-0.445
Mof_O 	O 	0.2858	0.8217	0.839	-0.37
Mof_O 	O 	0.2011	0.8278	0.0926	-0.46
Mof_O 	O 	0.2568	0.8722	0.5546	-0.561
Mof_O 	O 	0.2804	0.8915	0.0307	-0.47
Mof_O 	O 	0.3761	0.8152	0.9591	-0.442
Mof_O 	O 	0.2585	0.0071	0.9155	-0.514
Mof_C 	C 	0.3615	0.9645	0.4769	0.021
Mof_H 	H 	0.3454	0.988	0.5293	0.017
Mof_N 	N 	0.4197	0.9276	0.3714	-0.132
Mof_C 	C 	0.4658	0.9166	0.3181	0.084
Mof_C 	C 	0.5472	0.9556	0.2617	-0.094
Mof_H 	H 	0.5721	0.9881	0.2597	0.059
Mof_C 	C 	0.502	0.9669	0.3146	-0.073
Mof_H 	H 	0.4962	0.0075	0.347	0.052
Mof_C 	C 	0.5541	0.8959	0.2129	0.097
Mof_C 	C 	0.3741	0.9001	0.347	0.086
Mof_H 	H 	0.3687	0.8717	0.2914	0.008
Mof_C 	C 	0.5195	0.8478	0.216	-0.094
Mof_H 	H 	0.5259	0.8071	0.1848	0.058
Mof_C 	C 	0.4727	0.8583	0.269	-0.075
Mof_H 	H 	0.4478	0.8258	0.2682	0.049
Mof_C 	C 	0.4101	0.9699	0.453	-0.01
Mof_H 	H 	0.4335	0.9974	0.4855	0.025
Mof_N 	N 	0.5989	0.8814	0.1555	-0.137
Mof_C 	C 	0.6518	0.8432	0.0378	0.017
Mof_H 	H 	0.6645	0.8214	0.9801	0.008
Mof_C 	C 	0.6018	0.8428	0.0656	-0.009
Mof_H 	H 	0.5755	0.8214	0.0319	0.022
Mof_N 	N 	0.6802	0.8792	0.1043	-0.218
Mof_C 	C 	0.647	0.9011	0.1764	0.101
Mof_H 	H 	0.6561	0.9266	0.2333	-0.002
Mof_O 	O 	0.2628	0.8852	0.2442	-0.525
Mof_Co	Co	0.24075	0.10694	0.9034	1.169
Mof_W 	W 	0.34708	0.16718	0.48433	1.025
Mof_W 	W 	0.23305	0.07704	0.39507	1.328
Mof_W 	W 	0.23107	0.16945	0.64064	1.286
Mof_W 	W 	0.13182	0.15782	0.31856	1.012
Mof_W 	W 	0.2338	0.15814	0.17629	1.315
Mof_N 	N 	0.1616	0.0811	0.9124	-0.216
Mof_O 	O 	0.2457	0.0749	0.2517	-0.462
Mof_O 	O 	0.3002	0.1075	0.4158	-0.451
Mof_O 	O 	0.3005	0.3153	0.211	-0.458
Mof_O 	O 	0.1624	0.1415	0.1855	-0.456
Mof_O 	O 	0.3761	0.1826	0.3489	-0.431
Mof_O 	O 	0.1592	0.1821	0.6541	-0.456
Mof_O 	O 	0.1617	0.0752	0.3671	-0.444
Mof_O 	O 	0.2142	0.1783	0.339	-0.37
Mof_O 	O 	0.2989	0.1722	0.5926	-0.463
Mof_O 	O 	0.2432	0.1278	0.0546	-0.56
Mof_O 	O 	0.2196	0.1085	0.5307	-0.473
Mof_O 	O 	0.1239	0.1848	0.4591	-0.44
Mof_O 	O 	0.2415	0.9929	0.4155	-0.515
Mof_C 	C 	0.1385	0.0355	0.9769	0.021
Mof_H 	H 	0.1546	0.012	0.0293	0.018
Mof_N 	N 	0.0803	0.0724	0.8714	-0.131
Mof_C 	C 	0.0342	0.0834	0.8181	0.078
Mof_C 	C 	0.9528	0.0444	0.7617	-0.1
Mof_H 	H 	0.9279	0.0119	0.7597	0.062
Mof_C 	C 	0.998	0.0331	0.8146	-0.06
Mof_H 	H 	0.0038	0.9925	0.847	0.046
Mof_C 	C 	0.9459	0.1041	0.7129	0.1
Mof_C 	C 	0.1259	0.0999	0.847	0.085
Mof_H 	H 	0.1313	0.1283	0.7914	0.008
Mof_C 	C 	0.9805	0.1522	0.716	-0.096
Mof_H 	H 	0.9741	0.1929	0.6848	0.058
Mof_C 	C 	0.0273	0.1417	0.769	-0.073
Mof_H 	H 	0.0522	0.1742	0.7682	0.048
Mof_C 	C 	0.0899	0.0301	0.953	-0.01
Mof_H 	H 	0.0665	0.0026	0.9855	0.025
Mof_N 	N 	0.9011	0.1186	0.6555	-0.137
Mof_C 	C 	0.8482	0.1568	0.5378	0.017
Mof_H 	H 	0.8355	0.1786	0.4801	0.008
Mof_C 	C 	0.8982	0.1572	0.5656	-0.009
Mof_H 	H 	0.9245	0.1786	0.5319	0.022
Mof_N 	N 	0.8198	0.1208	0.6043	-0.218
Mof_C 	C 	0.853	0.0989	0.6764	0.101
Mof_H 	H 	0.8439	0.0734	0.7333	-0.001
Mof_O 	O 	0.2372	0.1148	0.7442	-0.525
Mof_Co	Co	0.74075	0.39306	0.5966	1.169
Mof_W 	W 	0.84708	0.33282	0.01567	1.019
Mof_W 	W 	0.73305	0.42296	0.10493	1.326
Mof_W 	W 	0.73107	0.33055	0.85936	1.285
Mof_W 	W 	0.63182	0.34218	0.18144	1.012
Mof_W 	W 	0.7338	0.34186	0.32371	1.315
Mof_N 	N 	0.6616	0.4189	0.5876	-0.216
Mof_O 	O 	0.7457	0.4251	0.2483	-0.462
Mof_O 	O 	0.8002	0.3925	0.0842	-0.451
Mof_O 	O 	0.8005	0.1847	0.289	-0.458
Mof_O 	O 	0.6624	0.3585	0.3145	-0.456
Mof_O 	O 	0.8761	0.3174	0.1511	-0.431
Mof_O 	O 	0.6592	0.3179	0.8459	-0.457
Mof_O 	O 	0.6617	0.4248	0.1329	-0.444
Mof_O 	O 	0.7142	0.3217	0.161	-0.37
Mof_O 	O 	0.7989	0.3278	0.9074	-0.461
Mof_O 	O 	0.7432	0.3722	0.4454	-0.561
Mof_O 	O 	0.7196	0.3915	0.9693	-0.471
Mof_O 	O 	0.6239	0.3152	0.0409	-0.442
Mof_O 	O 	0.7415	0.5071	0.0845	-0.516
Mof_C 	C 	0.6385	0.4645	0.5231	0.021
Mof_H 	H 	0.6546	0.488	0.4707	0.018
Mof_N 	N 	0.5803	0.4276	0.6286	-0.132
Mof_C 	C 	0.5342	0.4166	0.6819	0.085
Mof_C 	C 	0.4528	0.4556	0.7383	-0.093
Mof_H 	H 	0.4279	0.4881	0.7403	0.058
Mof_C 	C 	0.498	0.4669	0.6854	-0.075
Mof_H 	H 	0.5038	0.5075	0.653	0.053
Mof_C 	C 	0.4459	0.3959	0.7871	0.096
Mof_C 	C 	0.6259	0.4001	0.653	0.086
Mof_H 	H 	0.6313	0.3717	0.7086	0.008
Mof_C 	C 	0.4805	0.3478	0.784	-0.094
Mof_H 	H 	0.4741	0.3071	0.8152	0.057
Mof_C 	C 	0.5273	0.3583	0.731	-0.076
Mof_H 	H 	0.5522	0.3258	0.7318	0.049
Mof_C 	C 	0.5899	0.4699	0.547	-0.01
Mof_H 	H 	0.5665	0.4974	0.5145	0.025
Mof_N 	N 	0.4011	0.3814	0.8445	-0.137
Mof_C 	C 	0.3482	0.3432	0.9622	0.015
Mof_H 	H 	0.3355	0.3214	0.0199	0.01
Mof_C 	C 	0.3982	0.3428	0.9344	-0.008
Mof_H 	H 	0.4245	0.3214	0.9681	0.022
Mof_N 	N 	0.3198	0.3792	0.8957	-0.218
Mof_C 	C 	0.353	0.4011	0.8236	0.101
Mof_H 	H 	0.3439	0.4266	0.7667	-0.002
Mof_O 	O 	0.7372	0.3852	0.7558	-0.525
Mof_Co	Co	0.75925	0.60694	0.0966	1.169
Mof_W 	W 	0.65292	0.66718	0.51567	1.025
Mof_W 	W 	0.76695	0.57704	0.60493	1.328
Mof_W 	W 	0.76893	0.66945	0.35936	1.286
Mof_W 	W 	0.86818	0.65782	0.68144	1.012
Mof_W 	W 	0.7662	0.65814	0.82371	1.315
Mof_N 	N 	0.8384	0.5811	0.0876	-0.216
Mof_O 	O 	0.7543	0.5749	0.7483	-0.462
Mof_O 	O 	0.6998	0.6075	0.5842	-0.451
Mof_O 	O 	0.6995	0.8153	0.789	-0.458
Mof_O 	O 	0.8376	0.6415	0.8145	-0.456
Mof_O 	O 	0.6239	0.6826	0.6511	-0.431
Mof_O 	O 	0.8408	0.6821	0.3459	-0.456
Mof_O 	O 	0.8383	0.5752	0.6329	-0.444
Mof_O 	O 	0.7858	0.6783	0.661	-0.37
Mof_O 	O 	0.7011	0.6722	0.4074	-0.463
Mof_O 	O 	0.7568	0.6278	0.9454	-0.56
Mof_O 	O 	0.7804	0.6085	0.4693	-0.473
Mof_O 	O 	0.8761	0.6848	0.5409	-0.44
Mof_O 	O 	0.7585	0.4929	0.5845	-0.515
Mof_C 	C 	0.8615	0.5355	0.0231	0.015
Mof_H 	H 	0.8454	0.512	0.9707	0.022
Mof_N 	N 	0.9197	0.5724	0.1286	-0.132
Mof_C 	C 	0.9658	0.5834	0.1819	0.081
Mof_C 	C 	0.0472	0.5444	0.2383	-0.097
Mof_H 	H 	0.0721	0.5119	0.2403	0.06
Mof_C 	C 	0.002	0.5331	0.1854	-0.066
Mof_H 	H 	0.9962	0.4925	0.153	0.049
Mof_C 	C 	0.0541	0.6041	0.2871	0.098
Mof_C 	C 	0.8741	0.5999	0.153	0.085
Mof_H 	H 	0.8687	0.6283	0.2086	0.008
Mof_C 	C 	0.0195	0.6522	0.284	-0.094
Mof_H 	H 	0.0259	0.6929	0.3152	0.058
Mof_C 	C 	0.9727	0.6417	0.231	-0.075
Mof_H 	H 	0.9478	0.6742	0.2318	0.049
Mof_C 	C 	0.9101	0.5301	0.047	-0.007
Mof_H 	H 	0.9335	0.5026	0.0145	0.023
Mof_N 	N 	0.0989	0.6186	0.3445	-0.137
Mof_C 	C 	0.1518	0.6568	0.4622	0.017
Mof_H 	H 	0.1645	0.6786	0.5199	0.008
Mof_C 	C 	0.1018	0.6572	0.4344	-0.009
Mof_H 	H 	0.0755	0.6786	0.4681	0.022
Mof_N 	N 	0.1802	0.6208	0.3957	-0.218
Mof_C 	C 	0.147	0.5989	0.3236	0.101
Mof_H 	H 	0.1561	0.5734	0.2667	-0.001
Mof_O 	O 	0.7628	0.6148	0.2558	-0.525
Mof_W 	W 	0.84766	0.25	0.23956	1.017
Mof_W 	W 	0.63104	0.25	0.93449	1.017
Mof_O 	O 	0.8773	0.25	0.9731	-0.432
Mof_O 	O 	0.7214	0.25	0.3493	-0.504
Mof_O 	O 	0.8017	0.25	0.0891	-0.305
Mof_O 	O 	0.7138	0.25	0.9648	-0.386
Mof_O 	O 	0.7437	0.25	0.7791	-0.496
Mof_O 	O 	0.6251	0.25	0.2139	-0.448
Mof_W 	W 	0.65234	0.75	0.73956	1.018
Mof_W 	W 	0.86896	0.75	0.43449	1.013
Mof_O 	O 	0.6227	0.75	0.4731	-0.437
Mof_O 	O 	0.7786	0.75	0.8493	-0.503
Mof_O 	O 	0.6983	0.75	0.5891	-0.304
Mof_O 	O 	0.7862	0.75	0.4648	-0.388
Mof_O 	O 	0.7563	0.75	0.2791	-0.497
Mof_O 	O 	0.8749	0.75	0.7139	-0.448
Mof_W 	W 	0.15234	0.75	0.76044	1.017
Mof_W 	W 	0.36896	0.75	0.06551	1.017
Mof_O 	O 	0.1227	0.75	0.0269	-0.432
Mof_O 	O 	0.2786	0.75	0.6507	-0.504
Mof_O 	O 	0.1983	0.75	0.9109	-0.305
Mof_O 	O 	0.2862	0.75	0.0352	-0.386
Mof_O 	O 	0.2563	0.75	0.2209	-0.496
Mof_O 	O 	0.3749	0.75	0.7861	-0.448
Mof_W 	W 	0.34766	0.25	0.26044	1.018
Mof_W 	W 	0.13104	0.25	0.56551	1.013
Mof_O 	O 	0.3773	0.25	0.5269	-0.437
Mof_O 	O 	0.2214	0.25	0.1507	-0.503
Mof_O 	O 	0.3017	0.25	0.4109	-0.304
Mof_O 	O 	0.2138	0.25	0.5352	-0.388
Mof_O 	O 	0.2437	0.25	0.7209	-0.497
Mof_O 	O 	0.1251	0.25	0.2861	-0.448
_end
