data_functionalizedCrystal
_audit_creation_method	'EQeq! by Chris Wilmer'
_symmetry_space_group_name_H-M	'P1'
_symmetry_Int_Tables_number	1
_symmetry_cell_setting	triclinic
loop_
_symmetry_equiv_pos_as_xyz
  x,y,z
_cell_length_a	20.6155
_cell_length_b	20.6155
_cell_length_c	20.6155
_cell_angle_alpha	90
_cell_angle_beta	90
_cell_angle_gamma	90
loop_
_atom_site_label
_atom_site_type_symbol
_atom_site_fract_x
_atom_site_fract_y
_atom_site_fract_z
_atom_site_charge
Mof_Zn	Zn	-5.76234e-33	0.57224	-0	1.126
Mof_Zn	Zn	-0	0.42776	-0	1.123
Mof_Zn	Zn	-3.61678e-33	0	0.57224	1.126
Mof_Zn	Zn	1.60384e-33	0	0.42776	1.123
Mof_Zn	Zn	0.57224	0	-0	1.126
Mof_Zn	Zn	0.42776	0	-0	1.123
Mof_Zn	Zn	0.76112	0.76112	0.76112	1.192
Mof_Zn	Zn	0.66451	0.66451	0.66451	1.194
Mof_Zn	Zn	0.23888	0.23888	0.76112	1.177
Mof_Zn	Zn	0.33549	0.33549	0.66451	1.192
Mof_Zn	Zn	0.23888	0.76112	0.23888	1.177
Mof_Zn	Zn	0.33549	0.66451	0.33549	1.192
Mof_Zn	Zn	0.76112	0.23888	0.23888	1.177
Mof_Zn	Zn	0.66451	0.33549	0.33549	1.193
Mof_Zn	Zn	0.76112	0.76112	0.23888	1.185
Mof_Zn	Zn	0.66451	0.66451	0.33549	1.194
Mof_Zn	Zn	0.23888	0.23888	0.23888	1.17
Mof_Zn	Zn	0.33549	0.33549	0.33549	1.192
Mof_Zn	Zn	0.76112	0.23888	0.76112	1.185
Mof_Zn	Zn	0.66451	0.33549	0.66451	1.194
Mof_Zn	Zn	0.23888	0.76112	0.76112	1.185
Mof_Zn	Zn	0.33549	0.66451	0.66451	1.194
Mof_H 	H 	0.8519	0.5978	0.8519	0.026
Mof_H 	H 	0.1481	0.4022	0.8519	-0.005
Mof_H 	H 	0.1481	0.5978	0.1481	-0.027
Mof_H 	H 	0.8519	0.4022	0.1481	-0.005
Mof_H 	H 	0.8519	0.8519	0.5978	0.026
Mof_H 	H 	0.8519	0.1481	0.4022	-0.005
Mof_H 	H 	0.1481	0.1481	0.5978	-0.027
Mof_H 	H 	0.1481	0.8519	0.4022	-0.005
Mof_H 	H 	0.5978	0.8519	0.8519	0.026
Mof_H 	H 	0.4022	0.8519	0.1481	-0.005
Mof_H 	H 	0.5978	0.1481	0.1481	-0.027
Mof_H 	H 	0.4022	0.1481	0.8519	-0.005
Mof_H 	H 	0.5978	0.8519	0.1481	0
Mof_H 	H 	0.4022	0.1481	0.1481	-0.032
Mof_H 	H 	0.5978	0.1481	0.8519	0
Mof_H 	H 	0.4022	0.8519	0.8519	0.021
Mof_H 	H 	0.8519	0.8519	0.4022	0.021
Mof_H 	H 	0.1481	0.8519	0.5978	0
Mof_H 	H 	0.1481	0.1481	0.4022	-0.032
Mof_H 	H 	0.8519	0.1481	0.5978	0
Mof_H 	H 	0.8519	0.5978	0.1481	0
Mof_H 	H 	0.8519	0.4022	0.8519	0.021
Mof_H 	H 	0.1481	0.5978	0.8519	0
Mof_H 	H 	0.1481	0.4022	0.1481	-0.032
Mof_H 	H 	0.7342	0.5	0.7342	-0.004
Mof_H 	H 	0.2658	0.5	0.7342	-0.014
Mof_H 	H 	0.2658	0.5	0.2658	-0.025
Mof_H 	H 	0.7342	0.5	0.2658	-0.014
Mof_H 	H 	0.7342	0.7342	0.5	-0.004
Mof_H 	H 	0.7342	0.2658	0.5	-0.014
Mof_H 	H 	0.2658	0.2658	0.5	-0.025
Mof_H 	H 	0.2658	0.7342	0.5	-0.014
Mof_H 	H 	0.5	0.7342	0.7342	-0.004
Mof_H 	H 	0.5	0.7342	0.2658	-0.014
Mof_H 	H 	0.5	0.2658	0.2658	-0.025
Mof_H 	H 	0.5	0.2658	0.7342	-0.014
Mof_C 	C 	0.8362	0.5585	0.8362	0.107
Mof_C 	C 	0.7897	0.5573	0.7897	-0.163
Mof_C 	C 	0.7606	0.6199	0.7606	0.404
Mof_C 	C 	0.1638	0.4415	0.8362	0.126
Mof_C 	C 	0.2103	0.4427	0.7897	-0.193
Mof_C 	C 	0.2394	0.3801	0.7606	0.409
Mof_C 	C 	0.1638	0.5585	0.1638	0.143
Mof_C 	C 	0.2103	0.5573	0.2103	-0.219
Mof_C 	C 	0.2394	0.6199	0.2394	0.41
Mof_C 	C 	0.8362	0.4415	0.1638	0.126
Mof_C 	C 	0.7897	0.4427	0.2103	-0.193
Mof_C 	C 	0.7606	0.3801	0.2394	0.409
Mof_C 	C 	0.8362	0.8362	0.5585	0.107
Mof_C 	C 	0.7897	0.7897	0.5573	-0.163
Mof_C 	C 	0.7606	0.7606	0.6199	0.404
Mof_C 	C 	0.8362	0.1638	0.4415	0.126
Mof_C 	C 	0.7897	0.2103	0.4427	-0.193
Mof_C 	C 	0.7606	0.2394	0.3801	0.409
Mof_C 	C 	0.1638	0.1638	0.5585	0.143
Mof_C 	C 	0.2103	0.2103	0.5573	-0.219
Mof_C 	C 	0.2394	0.2394	0.6199	0.41
Mof_C 	C 	0.1638	0.8362	0.4415	0.126
Mof_C 	C 	0.2103	0.7897	0.4427	-0.193
Mof_C 	C 	0.2394	0.7606	0.3801	0.409
Mof_C 	C 	0.5585	0.8362	0.8362	0.107
Mof_C 	C 	0.5573	0.7897	0.7897	-0.163
Mof_C 	C 	0.6199	0.7606	0.7606	0.404
Mof_C 	C 	0.4415	0.8362	0.1638	0.126
Mof_C 	C 	0.4427	0.7897	0.2103	-0.193
Mof_C 	C 	0.3801	0.7606	0.2394	0.409
Mof_C 	C 	0.5585	0.1638	0.1638	0.143
Mof_C 	C 	0.5573	0.2103	0.2103	-0.219
Mof_C 	C 	0.6199	0.2394	0.2394	0.41
Mof_C 	C 	0.4415	0.1638	0.8362	0.126
Mof_C 	C 	0.4427	0.2103	0.7897	-0.193
Mof_C 	C 	0.3801	0.2394	0.7606	0.409
Mof_C 	C 	0.5585	0.8362	0.1638	0.124
Mof_C 	C 	0.5573	0.7897	0.2103	-0.19
Mof_C 	C 	0.6199	0.7606	0.2394	0.407
Mof_C 	C 	0.4415	0.1638	0.1638	0.144
Mof_C 	C 	0.4427	0.2103	0.2103	-0.221
Mof_C 	C 	0.3801	0.2394	0.2394	0.412
Mof_C 	C 	0.5585	0.1638	0.8362	0.124
Mof_C 	C 	0.5573	0.2103	0.7897	-0.19
Mof_C 	C 	0.6199	0.2394	0.7606	0.407
Mof_C 	C 	0.4415	0.8362	0.8362	0.108
Mof_C 	C 	0.4427	0.7897	0.7897	-0.165
Mof_C 	C 	0.3801	0.7606	0.7606	0.406
Mof_C 	C 	0.8362	0.8362	0.4415	0.108
Mof_C 	C 	0.7897	0.7897	0.4427	-0.165
Mof_C 	C 	0.7606	0.7606	0.3801	0.406
Mof_C 	C 	0.1638	0.8362	0.5585	0.124
Mof_C 	C 	0.2103	0.7897	0.5573	-0.19
Mof_C 	C 	0.2394	0.7606	0.6199	0.407
Mof_C 	C 	0.1638	0.1638	0.4415	0.144
Mof_C 	C 	0.2103	0.2103	0.4427	-0.221
Mof_C 	C 	0.2394	0.2394	0.3801	0.412
Mof_C 	C 	0.8362	0.1638	0.5585	0.124
Mof_C 	C 	0.7897	0.2103	0.5573	-0.19
Mof_C 	C 	0.7606	0.2394	0.6199	0.407
Mof_C 	C 	0.8362	0.5585	0.1638	0.124
Mof_C 	C 	0.7897	0.5573	0.2103	-0.19
Mof_C 	C 	0.7606	0.6199	0.2394	0.407
Mof_C 	C 	0.8362	0.4415	0.8362	0.108
Mof_C 	C 	0.7897	0.4427	0.7897	-0.165
Mof_C 	C 	0.7606	0.3801	0.7606	0.406
Mof_C 	C 	0.1638	0.5585	0.8362	0.124
Mof_C 	C 	0.2103	0.5573	0.7897	-0.19
Mof_C 	C 	0.2394	0.6199	0.7606	0.407
Mof_C 	C 	0.1638	0.4415	0.1638	0.144
Mof_C 	C 	0.2103	0.4427	0.2103	-0.221
Mof_C 	C 	0.2394	0.3801	0.2394	0.412
Mof_C 	C 	0.9106	0.5	0.9106	0.403
Mof_C 	C 	0.86	0.5	0.86	-0.155
Mof_C 	C 	0.7661	0.5	0.7661	0.105
Mof_C 	C 	0.0894	0.5	0.9106	0.416
Mof_C 	C 	0.14	0.5	0.86	-0.196
Mof_C 	C 	0.2339	0.5	0.7661	0.119
Mof_C 	C 	0.0894	0.5	0.0894	0.429
Mof_C 	C 	0.14	0.5	0.14	-0.239
Mof_C 	C 	0.2339	0.5	0.2339	0.134
Mof_C 	C 	0.9106	0.5	0.0894	0.416
Mof_C 	C 	0.86	0.5	0.14	-0.196
Mof_C 	C 	0.7661	0.5	0.2339	0.119
Mof_C 	C 	0.9106	0.9106	0.5	0.403
Mof_C 	C 	0.86	0.86	0.5	-0.155
Mof_C 	C 	0.7661	0.7661	0.5	0.105
Mof_C 	C 	0.9106	0.0894	0.5	0.416
Mof_C 	C 	0.86	0.14	0.5	-0.196
Mof_C 	C 	0.7661	0.2339	0.5	0.119
Mof_C 	C 	0.0894	0.0894	0.5	0.429
Mof_C 	C 	0.14	0.14	0.5	-0.239
Mof_C 	C 	0.2339	0.2339	0.5	0.134
Mof_C 	C 	0.0894	0.9106	0.5	0.416
Mof_C 	C 	0.14	0.86	0.5	-0.196
Mof_C 	C 	0.2339	0.7661	0.5	0.119
Mof_C 	C 	0.5	0.9106	0.9106	0.403
Mof_C 	C 	0.5	0.86	0.86	-0.155
Mof_C 	C 	0.5	0.7661	0.7661	0.105
Mof_C 	C 	0.5	0.9106	0.0894	0.416
Mof_C 	C 	0.5	0.86	0.14	-0.196
Mof_C 	C 	0.5	0.7661	0.2339	0.119
Mof_C 	C 	0.5	0.0894	0.0894	0.429
Mof_C 	C 	0.5	0.14	0.14	-0.239
Mof_C 	C 	0.5	0.2339	0.2339	0.134
Mof_C 	C 	0.5	0.0894	0.9106	0.416
Mof_C 	C 	0.5	0.14	0.86	-0.196
Mof_C 	C 	0.5	0.2339	0.7661	0.119
Mof_O 	O 	0.9311	0.5542	0.9311	-0.4
Mof_O 	O 	0.7843	0.6721	0.7843	-0.506
Mof_O 	O 	0.7168	0.6132	0.7168	-0.559
Mof_O 	O 	0.0689	0.4458	0.9311	-0.476
Mof_O 	O 	0.2157	0.3279	0.7843	-0.535
Mof_O 	O 	0.2832	0.3868	0.7168	-0.568
Mof_O 	O 	0.0689	0.5542	0.0689	-0.548
Mof_O 	O 	0.2157	0.6721	0.2157	-0.548
Mof_O 	O 	0.2832	0.6132	0.2832	-0.575
Mof_O 	O 	0.9311	0.4458	0.0689	-0.476
Mof_O 	O 	0.7843	0.3279	0.2157	-0.535
Mof_O 	O 	0.7168	0.3868	0.2832	-0.568
Mof_O 	O 	0.9311	0.9311	0.5542	-0.4
Mof_O 	O 	0.7843	0.7843	0.6721	-0.506
Mof_O 	O 	0.7168	0.7168	0.6132	-0.559
Mof_O 	O 	0.9311	0.0689	0.4458	-0.476
Mof_O 	O 	0.7843	0.2157	0.3279	-0.535
Mof_O 	O 	0.7168	0.2832	0.3868	-0.568
Mof_O 	O 	0.0689	0.0689	0.5542	-0.548
Mof_O 	O 	0.2157	0.2157	0.6721	-0.548
Mof_O 	O 	0.2832	0.2832	0.6132	-0.575
Mof_O 	O 	0.0689	0.9311	0.4458	-0.476
Mof_O 	O 	0.2157	0.7843	0.3279	-0.535
Mof_O 	O 	0.2832	0.7168	0.3868	-0.568
Mof_O 	O 	0.5542	0.9311	0.9311	-0.4
Mof_O 	O 	0.6721	0.7843	0.7843	-0.506
Mof_O 	O 	0.6132	0.7168	0.7168	-0.559
Mof_O 	O 	0.4458	0.9311	0.0689	-0.476
Mof_O 	O 	0.3279	0.7843	0.2157	-0.535
Mof_O 	O 	0.3868	0.7168	0.2832	-0.568
Mof_O 	O 	0.5542	0.0689	0.0689	-0.548
Mof_O 	O 	0.6721	0.2157	0.2157	-0.548
Mof_O 	O 	0.6132	0.2832	0.2832	-0.575
Mof_O 	O 	0.4458	0.0689	0.9311	-0.476
Mof_O 	O 	0.3279	0.2157	0.7843	-0.535
Mof_O 	O 	0.3868	0.2832	0.7168	-0.568
Mof_O 	O 	0.5542	0.9311	0.0689	-0.472
Mof_O 	O 	0.6721	0.7843	0.2157	-0.526
Mof_O 	O 	0.6132	0.7168	0.2832	-0.567
Mof_O 	O 	0.4458	0.0689	0.0689	-0.553
Mof_O 	O 	0.3279	0.2157	0.2157	-0.557
Mof_O 	O 	0.3868	0.2832	0.2832	-0.576
Mof_O 	O 	0.5542	0.0689	0.9311	-0.472
Mof_O 	O 	0.6721	0.2157	0.7843	-0.526
Mof_O 	O 	0.6132	0.2832	0.7168	-0.567
Mof_O 	O 	0.4458	0.9311	0.9311	-0.404
Mof_O 	O 	0.3279	0.7843	0.7843	-0.514
Mof_O 	O 	0.3868	0.7168	0.7168	-0.56
Mof_O 	O 	0.9311	0.9311	0.4458	-0.404
Mof_O 	O 	0.7843	0.7843	0.3279	-0.514
Mof_O 	O 	0.7168	0.7168	0.3868	-0.56
Mof_O 	O 	0.0689	0.9311	0.5542	-0.472
Mof_O 	O 	0.2157	0.7843	0.6721	-0.526
Mof_O 	O 	0.2832	0.7168	0.6132	-0.567
Mof_O 	O 	0.0689	0.0689	0.4458	-0.553
Mof_O 	O 	0.2157	0.2157	0.3279	-0.557
Mof_O 	O 	0.2832	0.2832	0.3868	-0.576
Mof_O 	O 	0.9311	0.0689	0.5542	-0.472
Mof_O 	O 	0.7843	0.2157	0.6721	-0.526
Mof_O 	O 	0.7168	0.2832	0.6132	-0.567
Mof_O 	O 	0.9311	0.5542	0.0689	-0.472
Mof_O 	O 	0.7843	0.6721	0.2157	-0.526
Mof_O 	O 	0.7168	0.6132	0.2832	-0.567
Mof_O 	O 	0.9311	0.4458	0.9311	-0.404
Mof_O 	O 	0.7843	0.3279	0.7843	-0.514
Mof_O 	O 	0.7168	0.3868	0.7168	-0.56
Mof_O 	O 	0.0689	0.5542	0.9311	-0.472
Mof_O 	O 	0.2157	0.6721	0.7843	-0.526
Mof_O 	O 	0.2832	0.6132	0.7168	-0.567
Mof_O 	O 	0.0689	0.4458	0.0689	-0.553
Mof_O 	O 	0.2157	0.3279	0.2157	-0.557
Mof_O 	O 	0.2832	0.3868	0.2832	-0.576
_end
