data_functionalizedCrystal
_audit_creation_method	'EQeq! by Chris Wilmer'
_symmetry_space_group_name_H-M	'P1'
_symmetry_Int_Tables_number	1
_symmetry_cell_setting	triclinic
loop_
_symmetry_equiv_pos_as_xyz
  x,y,z
_cell_length_a	30.353
_cell_length_b	4.8595
_cell_length_c	18.323
_cell_angle_alpha	90
_cell_angle_beta	118.123
_cell_angle_gamma	90
loop_
_atom_site_label
_atom_site_type_symbol
_atom_site_fract_x
_atom_site_fract_y
_atom_site_fract_z
_atom_site_charge
Mof_C 	C 	0.8287	0.288	0.0923	0.362
Mof_C 	C 	0.8806	0.151	0.1401	-0.128
Mof_H 	H 	0.8762	0.9506	0.1364	0.096
Mof_C 	C 	0.9118	0.232	0.0975	-0.073
Mof_H 	H 	0.8962	0.1586	0.0418	0.048
Mof_H 	H 	0.9122	0.4314	0.0936	0.06
Mof_C 	C 	0.965	0.127	0.1445	-0.061
Mof_H 	H 	0.9651	0.9277	0.1401	0.059
Mof_H 	H 	0.9847	0.2013	0.1199	0.052
Mof_C 	C 	0.9601	0.112	0.2731	-0.054
Mof_H 	H 	0.9771	0.168	0.3306	0.05
Mof_H 	H 	0.9583	0.9124	0.2712	0.059
Mof_C 	C 	0.9073	0.233	0.2307	-0.081
Mof_H 	H 	0.8887	0.1658	0.258	0.069
Mof_H 	H 	0.9092	0.4315	0.2353	0.071
Mof_C 	C 	0.0217	0.407	0.2623	0.171
Mof_C 	C 	0.0743	0.675	0.371	0.177
Mof_C 	C 	0.0754	0.701	0.25	0.171
Mof_C 	C 	0.1756	0.734	0.7126	0.381
Mof_C 	C 	0.137	0.826	0.6264	-0.14
Mof_H 	H 	0.123	0.0009	0.6322	0.078
Mof_C 	C 	0.1647	0.879	0.576	-0.053
Mof_H 	H 	0.1824	0.7141	0.5753	0.04
Mof_H 	H 	0.1892	0.024	0.6025	0.033
Mof_C 	C 	0.1286	0.965	0.4861	-0.046
Mof_H 	H 	0.1147	0.1455	0.4858	0.048
Mof_H 	H 	0.1465	0.9758	0.4542	0.053
Mof_C 	C 	0.0603	0.711	0.4917	-0.047
Mof_H 	H 	0.0369	0.5624	0.4641	0.047
Mof_H 	H 	0.0412	0.8733	0.49	0.045
Mof_C 	C 	0.0946	0.631	0.5814	-0.064
Mof_H 	H 	0.075	0.6212	0.6105	0.044
Mof_H 	H 	0.1081	0.4494	0.5825	0.058
Mof_C 	C 	0.2002	0.735	0.1169	0.316
Mof_C 	C 	0.1584	0.858	0.1285	-0.113
Mof_H 	H 	0.1496	0.036	0.0999	0.07
Mof_C 	C 	0.1132	0.684	0.0937	-0.079
Mof_H 	H 	0.123	0.4963	0.1125	0.062
Mof_H 	H 	0.0987	0.6843	0.0339	0.05
Mof_C 	C 	0.074	0.774	0.117	-0.039
Mof_H 	H 	0.0582	0.9409	0.0872	0.043
Mof_H 	H 	0.0485	0.6326	0.1007	0.045
Mof_C 	C 	0.1356	0.012	0.24	-0.073
Mof_H 	H 	0.1475	0.0222	0.2992	0.057
Mof_H 	H 	0.1248	0.1935	0.2167	0.06
Mof_C 	C 	0.1777	0.91	0.2227	-0.05
Mof_H 	H 	0.1916	0.7414	0.253	0.048
Mof_H 	H 	0.2041	0.0469	0.2421	0.037
Mof_N 	N 	0.9878	0.206	0.232	-0.118
Mof_N 	N 	0.0356	0.493	0.3406	-0.164
Mof_N 	N 	0.0964	0.771	0.3307	-0.167
Mof_N 	N 	0.0397	0.514	0.2131	-0.166
Mof_N 	N 	0.0887	0.766	0.4492	-0.12
Mof_N 	N 	0.0949	0.822	0.2035	-0.114
Mof_O 	O 	0.8247	0.526	0.1018	-0.305
Mof_O 	O 	0.7933	0.128	0.0426	-0.311
Mof_O 	O 	0.1881	0.474	0.7123	-0.453
Mof_H 	H 	0.2092	0.4638	0.6964	0.255
Mof_O 	O 	0.19	0.868	0.7734	-0.293
Mof_O 	O 	0.24	0.866	0.137	-0.248
Mof_O 	O 	0.1961	0.495	0.0903	-0.288
Mof_Cd	Cd	0.75938	0.78	0.08613	0.533
Mof_C 	C 	0.3287	0.788	0.0923	0.362
Mof_C 	C 	0.3806	0.651	0.1401	-0.106
Mof_H 	H 	0.3762	0.4506	0.1364	0.086
Mof_C 	C 	0.4118	0.732	0.0975	-0.092
Mof_H 	H 	0.3962	0.6586	0.0418	0.056
Mof_H 	H 	0.4122	0.9314	0.0936	0.066
Mof_C 	C 	0.465	0.627	0.1445	-0.038
Mof_H 	H 	0.4651	0.4277	0.1401	0.047
Mof_H 	H 	0.4847	0.7013	0.1199	0.047
Mof_C 	C 	0.4601	0.612	0.2731	-0.03
Mof_H 	H 	0.4771	0.668	0.3306	0.045
Mof_H 	H 	0.4583	0.4124	0.2712	0.047
Mof_C 	C 	0.4073	0.733	0.2307	-0.101
Mof_H 	H 	0.3887	0.6658	0.258	0.077
Mof_H 	H 	0.4092	0.9315	0.2353	0.078
Mof_C 	C 	0.5217	0.907	0.2623	0.176
Mof_C 	C 	0.5743	0.175	0.371	0.172
Mof_C 	C 	0.5754	0.201	0.25	0.171
Mof_C 	C 	0.6756	0.234	0.7126	0.374
Mof_C 	C 	0.637	0.326	0.6264	-0.143
Mof_H 	H 	0.623	0.5009	0.6322	0.084
Mof_C 	C 	0.6647	0.379	0.576	-0.061
Mof_H 	H 	0.6824	0.2141	0.5753	0.04
Mof_H 	H 	0.6892	0.524	0.6025	0.04
Mof_C 	C 	0.6286	0.465	0.4861	-0.058
Mof_H 	H 	0.6147	0.6455	0.4858	0.057
Mof_H 	H 	0.6465	0.4758	0.4542	0.055
Mof_C 	C 	0.5603	0.211	0.4917	-0.042
Mof_H 	H 	0.5369	0.0624	0.4641	0.044
Mof_H 	H 	0.5412	0.3733	0.49	0.042
Mof_C 	C 	0.5946	0.131	0.5814	-0.077
Mof_H 	H 	0.575	0.1212	0.6105	0.046
Mof_H 	H 	0.6081	0.9494	0.5825	0.067
Mof_C 	C 	0.7002	0.235	0.1169	0.307
Mof_C 	C 	0.6584	0.358	0.1285	-0.105
Mof_H 	H 	0.6496	0.536	0.0999	0.072
Mof_C 	C 	0.6132	0.184	0.0937	-0.095
Mof_H 	H 	0.623	0.9963	0.1125	0.07
Mof_H 	H 	0.5987	0.1843	0.0339	0.053
Mof_C 	C 	0.574	0.274	0.117	-0.03
Mof_H 	H 	0.5582	0.4409	0.0872	0.038
Mof_H 	H 	0.5485	0.1326	0.1007	0.042
Mof_C 	C 	0.6356	0.512	0.24	-0.044
Mof_H 	H 	0.6475	0.5222	0.2992	0.051
Mof_H 	H 	0.6248	0.6935	0.2167	0.053
Mof_C 	C 	0.6777	0.41	0.2227	-0.086
Mof_H 	H 	0.6916	0.2414	0.253	0.057
Mof_H 	H 	0.7041	0.5469	0.2421	0.053
Mof_N 	N 	0.4878	0.706	0.232	-0.124
Mof_N 	N 	0.5356	0.993	0.3406	-0.161
Mof_N 	N 	0.5964	0.271	0.3307	-0.168
Mof_N 	N 	0.5397	0.014	0.2131	-0.168
Mof_N 	N 	0.5887	0.266	0.4492	-0.12
Mof_N 	N 	0.5949	0.322	0.2035	-0.121
Mof_O 	O 	0.3247	0.026	0.1018	-0.309
Mof_O 	O 	0.2933	0.628	0.0426	-0.308
Mof_O 	O 	0.6881	0.974	0.7123	-0.448
Mof_H 	H 	0.7092	0.9638	0.6964	0.256
Mof_O 	O 	0.69	0.368	0.7734	-0.295
Mof_O 	O 	0.74	0.366	0.137	-0.249
Mof_O 	O 	0.6961	0.995	0.0903	-0.283
Mof_Cd	Cd	0.25938	0.28	0.08613	0.529
Mof_C 	C 	0.1713	0.288	0.9077	0.363
Mof_C 	C 	0.1194	0.151	0.8599	-0.127
Mof_H 	H 	0.1238	0.9506	0.8636	0.097
Mof_C 	C 	0.0882	0.232	0.9025	-0.072
Mof_H 	H 	0.1038	0.1586	0.9582	0.048
Mof_H 	H 	0.0878	0.4314	0.9064	0.06
Mof_C 	C 	0.035	0.127	0.8555	-0.061
Mof_H 	H 	0.0349	0.9277	0.8599	0.059
Mof_H 	H 	0.0153	0.2013	0.8801	0.052
Mof_C 	C 	0.0399	0.112	0.7269	-0.054
Mof_H 	H 	0.0229	0.168	0.6694	0.05
Mof_H 	H 	0.0417	0.9124	0.7288	0.059
Mof_C 	C 	0.0927	0.233	0.7693	-0.081
Mof_H 	H 	0.1113	0.1658	0.742	0.069
Mof_H 	H 	0.0908	0.4315	0.7647	0.071
Mof_C 	C 	0.9783	0.407	0.7377	0.171
Mof_C 	C 	0.9257	0.675	0.629	0.177
Mof_C 	C 	0.9246	0.701	0.75	0.171
Mof_C 	C 	0.8244	0.734	0.2874	0.381
Mof_C 	C 	0.863	0.826	0.3736	-0.14
Mof_H 	H 	0.877	0.0009	0.3678	0.078
Mof_C 	C 	0.8353	0.879	0.424	-0.053
Mof_H 	H 	0.8176	0.7141	0.4247	0.04
Mof_H 	H 	0.8108	0.024	0.3975	0.033
Mof_C 	C 	0.8714	0.965	0.5139	-0.046
Mof_H 	H 	0.8853	0.1455	0.5142	0.048
Mof_H 	H 	0.8535	0.9758	0.5458	0.053
Mof_C 	C 	0.9397	0.711	0.5083	-0.047
Mof_H 	H 	0.9631	0.5624	0.5359	0.047
Mof_H 	H 	0.9588	0.8733	0.51	0.045
Mof_C 	C 	0.9054	0.631	0.4186	-0.064
Mof_H 	H 	0.925	0.6212	0.3895	0.044
Mof_H 	H 	0.8919	0.4494	0.4175	0.058
Mof_C 	C 	0.7998	0.735	0.8831	0.316
Mof_C 	C 	0.8416	0.858	0.8715	-0.113
Mof_H 	H 	0.8504	0.036	0.9001	0.07
Mof_C 	C 	0.8868	0.684	0.9063	-0.079
Mof_H 	H 	0.877	0.4963	0.8875	0.062
Mof_H 	H 	0.9013	0.6843	0.9661	0.05
Mof_C 	C 	0.926	0.774	0.883	-0.039
Mof_H 	H 	0.9418	0.9409	0.9128	0.043
Mof_H 	H 	0.9515	0.6326	0.8993	0.045
Mof_C 	C 	0.8644	0.012	0.76	-0.073
Mof_H 	H 	0.8525	0.0222	0.7008	0.057
Mof_H 	H 	0.8752	0.1935	0.7833	0.06
Mof_C 	C 	0.8223	0.91	0.7773	-0.05
Mof_H 	H 	0.8084	0.7414	0.747	0.048
Mof_H 	H 	0.7959	0.0469	0.7579	0.037
Mof_N 	N 	0.0122	0.206	0.768	-0.118
Mof_N 	N 	0.9644	0.493	0.6594	-0.164
Mof_N 	N 	0.9036	0.771	0.6693	-0.167
Mof_N 	N 	0.9603	0.514	0.7869	-0.166
Mof_N 	N 	0.9113	0.766	0.5508	-0.12
Mof_N 	N 	0.9051	0.822	0.7965	-0.114
Mof_O 	O 	0.1753	0.526	0.8982	-0.305
Mof_O 	O 	0.2067	0.128	0.9574	-0.311
Mof_O 	O 	0.8119	0.474	0.2877	-0.453
Mof_H 	H 	0.7908	0.4638	0.3036	0.255
Mof_O 	O 	0.81	0.868	0.2266	-0.293
Mof_O 	O 	0.76	0.866	0.863	-0.248
Mof_O 	O 	0.8039	0.495	0.9097	-0.288
Mof_Cd	Cd	0.24062	0.78	0.91387	0.533
Mof_C 	C 	0.6713	0.788	0.9077	0.362
Mof_C 	C 	0.6194	0.651	0.8599	-0.106
Mof_H 	H 	0.6238	0.4506	0.8636	0.086
Mof_C 	C 	0.5882	0.732	0.9025	-0.092
Mof_H 	H 	0.6038	0.6586	0.9582	0.056
Mof_H 	H 	0.5878	0.9314	0.9064	0.066
Mof_C 	C 	0.535	0.627	0.8555	-0.038
Mof_H 	H 	0.5349	0.4277	0.8599	0.047
Mof_H 	H 	0.5153	0.7013	0.8801	0.047
Mof_C 	C 	0.5399	0.612	0.7269	-0.03
Mof_H 	H 	0.5229	0.668	0.6694	0.045
Mof_H 	H 	0.5417	0.4124	0.7288	0.047
Mof_C 	C 	0.5927	0.733	0.7693	-0.101
Mof_H 	H 	0.6113	0.6658	0.742	0.077
Mof_H 	H 	0.5908	0.9315	0.7647	0.078
Mof_C 	C 	0.4783	0.907	0.7377	0.176
Mof_C 	C 	0.4257	0.175	0.629	0.172
Mof_C 	C 	0.4246	0.201	0.75	0.171
Mof_C 	C 	0.3244	0.234	0.2874	0.374
Mof_C 	C 	0.363	0.326	0.3736	-0.143
Mof_H 	H 	0.377	0.5009	0.3678	0.084
Mof_C 	C 	0.3353	0.379	0.424	-0.061
Mof_H 	H 	0.3176	0.2141	0.4247	0.04
Mof_H 	H 	0.3108	0.524	0.3975	0.04
Mof_C 	C 	0.3714	0.465	0.5139	-0.058
Mof_H 	H 	0.3853	0.6455	0.5142	0.057
Mof_H 	H 	0.3535	0.4758	0.5458	0.055
Mof_C 	C 	0.4397	0.211	0.5083	-0.042
Mof_H 	H 	0.4631	0.0624	0.5359	0.044
Mof_H 	H 	0.4588	0.3733	0.51	0.042
Mof_C 	C 	0.4054	0.131	0.4186	-0.077
Mof_H 	H 	0.425	0.1212	0.3895	0.046
Mof_H 	H 	0.3919	0.9494	0.4175	0.067
Mof_C 	C 	0.2998	0.235	0.8831	0.307
Mof_C 	C 	0.3416	0.358	0.8715	-0.105
Mof_H 	H 	0.3504	0.536	0.9001	0.072
Mof_C 	C 	0.3868	0.184	0.9063	-0.095
Mof_H 	H 	0.377	0.9963	0.8875	0.07
Mof_H 	H 	0.4013	0.1843	0.9661	0.053
Mof_C 	C 	0.426	0.274	0.883	-0.03
Mof_H 	H 	0.4418	0.4409	0.9128	0.038
Mof_H 	H 	0.4515	0.1326	0.8993	0.042
Mof_C 	C 	0.3644	0.512	0.76	-0.044
Mof_H 	H 	0.3525	0.5222	0.7008	0.051
Mof_H 	H 	0.3752	0.6935	0.7833	0.053
Mof_C 	C 	0.3223	0.41	0.7773	-0.086
Mof_H 	H 	0.3084	0.2414	0.747	0.057
Mof_H 	H 	0.2959	0.5469	0.7579	0.053
Mof_N 	N 	0.5122	0.706	0.768	-0.124
Mof_N 	N 	0.4644	0.993	0.6594	-0.161
Mof_N 	N 	0.4036	0.271	0.6693	-0.168
Mof_N 	N 	0.4603	0.014	0.7869	-0.168
Mof_N 	N 	0.4113	0.266	0.5508	-0.12
Mof_N 	N 	0.4051	0.322	0.7965	-0.121
Mof_O 	O 	0.6753	0.026	0.8982	-0.309
Mof_O 	O 	0.7067	0.628	0.9574	-0.308
Mof_O 	O 	0.3119	0.974	0.2877	-0.448
Mof_H 	H 	0.2908	0.9638	0.3036	0.256
Mof_O 	O 	0.31	0.368	0.2266	-0.295
Mof_O 	O 	0.26	0.366	0.863	-0.249
Mof_O 	O 	0.3039	0.995	0.9097	-0.283
Mof_Cd	Cd	0.74062	0.28	0.91387	0.529
_end
