data_functionalizedCrystal
_audit_creation_method	'EQeq! by Chris Wilmer'
_symmetry_space_group_name_H-M	'P1'
_symmetry_Int_Tables_number	1
_symmetry_cell_setting	triclinic
loop_
_symmetry_equiv_pos_as_xyz
  x,y,z
_cell_length_a	9.812
_cell_length_b	14.283
_cell_length_c	19.572
_cell_angle_alpha	90
_cell_angle_beta	96.941
_cell_angle_gamma	90
loop_
_atom_site_label
_atom_site_type_symbol
_atom_site_fract_x
_atom_site_fract_y
_atom_site_fract_z
_atom_site_charge
Mof_Cd	Cd	0.73402	0.24952	0.34863	0.439
Mof_C 	C 	0.2606	0.9867	0.2766	-0.294
Mof_H 	H 	0.2285	0.0031	0.2316	0.152
Mof_C 	C 	0.1803	0.9989	0.3292	0.241
Mof_C 	C 	0.2242	0.9742	0.3964	-0.29
Mof_H 	H 	0.1678	0.9828	0.4308	0.141
Mof_C 	C 	0.3542	0.9363	0.4113	0.236
Mof_C 	C 	0.4388	0.9244	0.36	-0.282
Mof_H 	H 	0.5268	0.9001	0.3702	0.141
Mof_C 	C 	0.3894	0.9495	0.2931	0.243
Mof_C 	C 	0.9944	0.1118	0.3455	0.108
Mof_H 	H 	0.044	0.1463	0.3804	0.013
Mof_C 	C 	0.8333	0.0632	0.271	0.016
Mof_H 	H 	0.748	0.0576	0.2449	0.042
Mof_C 	C 	0.9426	0.0071	0.2658	0.008
Mof_H 	H 	0.9474	0.9577	0.2352	0.048
Mof_C 	C 	0.3232	0.9017	0.5324	0.105
Mof_H 	H 	0.234	0.9245	0.5302	0.002
Mof_C 	C 	0.5162	0.8391	0.5689	0.007
Mof_H 	H 	0.5863	0.8101	0.5975	0.047
Mof_C 	C 	0.5252	0.8656	0.5033	0.016
Mof_H 	H 	0.6	0.8579	0.4788	0.028
Mof_C 	C 	0.5666	0.8641	0.238	0.107
Mof_H 	H 	0.5839	0.8184	0.2718	0.021
Mof_C 	C 	0.5724	0.9435	0.1459	0.011
Mof_H 	H 	0.5963	0.9634	0.1037	0.044
Mof_C 	C 	0.4773	0.9845	0.1802	0.01
Mof_H 	H 	0.424	0.0365	0.1663	0.037
Mof_C 	C 	0.5339	0.2516	0.2333	0.256
Mof_C 	C 	0.3162	0.2069	0.9895	0.248
Mof_C 	C 	0.3072	0.2057	0.0656	0.054
Mof_C 	C 	0.4213	0.2279	0.1121	-0.11
Mof_H 	H 	0.5057	0.2389	0.0965	0.09
Mof_C 	C 	0.4086	0.2337	0.182	0.049
Mof_C 	C 	0.2836	0.2189	0.2047	-0.22
Mof_H 	H 	0.2754	0.2238	0.2514	0.138
Mof_C 	C 	0.1688	0.1966	0.1585	0.301
Mof_C 	C 	0.1814	0.1881	0.0891	-0.237
Mof_H 	H 	0.1061	0.1708	0.0583	0.126
Mof_N 	N 	0.8674	0.1293	0.3205	-0.141
Mof_N 	N 	0.0443	0.0374	0.31424	-0.153
Mof_N 	N 	0.3899	0.861	0.5873	-0.131
Mof_N 	N 	0.4011	0.9062	0.4799	-0.159
Mof_N 	N 	0.6284	0.8687	0.1823	-0.138
Mof_N 	N 	0.4751	0.9336	0.23996	-0.159
Mof_O 	O 	0.6507	0.2412	0.2152	-0.254
Mof_O 	O 	0.5172	0.2747	0.29322	-0.266
Mof_O 	O 	0.4136	0.249	0.9669	-0.247
Mof_O 	O 	0.2196	0.1699	0.95025	-0.257
Mof_O 	O 	0.0483	0.1834	0.18494	-0.436
Mof_H 	H 	0.9898	0.1649	0.1545	0.252
Mof_Cd	Cd	0.76598	0.74952	0.15137	0.438
Mof_C 	C 	0.2394	0.4867	0.2234	-0.293
Mof_H 	H 	0.2715	0.5031	0.2684	0.151
Mof_C 	C 	0.3197	0.4989	0.1708	0.241
Mof_C 	C 	0.2758	0.4742	0.1036	-0.289
Mof_H 	H 	0.3322	0.4828	0.0692	0.141
Mof_C 	C 	0.1458	0.4363	0.0887	0.235
Mof_C 	C 	0.0612	0.4244	0.14	-0.277
Mof_H 	H 	0.9732	0.4001	0.1298	0.138
Mof_C 	C 	0.1106	0.4495	0.2069	0.241
Mof_C 	C 	0.5056	0.6118	0.1545	0.115
Mof_H 	H 	0.456	0.6463	0.1196	0.009
Mof_C 	C 	0.6667	0.5632	0.229	0.012
Mof_H 	H 	0.752	0.5576	0.2551	0.043
Mof_C 	C 	0.5574	0.5071	0.2342	0.017
Mof_H 	H 	0.5526	0.4577	0.2648	0.043
Mof_C 	C 	0.1768	0.4017	0.9676	0.104
Mof_H 	H 	0.266	0.4245	0.9698	0.002
Mof_C 	C 	0.9838	0.3391	0.9311	0.006
Mof_H 	H 	0.9137	0.3101	0.9025	0.048
Mof_C 	C 	0.9748	0.3656	0.9967	0.02
Mof_H 	H 	0.9	0.3579	0.0212	0.025
Mof_C 	C 	0.9334	0.3641	0.262	0.105
Mof_H 	H 	0.9161	0.3184	0.2282	0.021
Mof_C 	C 	0.9276	0.4435	0.3541	0.009
Mof_H 	H 	0.9037	0.4634	0.3963	0.044
Mof_C 	C 	0.0227	0.4845	0.3198	0.011
Mof_H 	H 	0.076	0.5365	0.3337	0.037
Mof_C 	C 	0.9661	0.7516	0.2667	0.256
Mof_C 	C 	0.1838	0.7069	0.5105	0.247
Mof_C 	C 	0.1928	0.7057	0.4344	0.054
Mof_C 	C 	0.0787	0.7279	0.3879	-0.112
Mof_H 	H 	0.9943	0.7389	0.4035	0.092
Mof_C 	C 	0.0914	0.7337	0.318	0.05
Mof_C 	C 	0.2164	0.7189	0.2953	-0.221
Mof_H 	H 	0.2246	0.7238	0.2486	0.139
Mof_C 	C 	0.3312	0.6966	0.3415	0.302
Mof_C 	C 	0.3186	0.6881	0.4109	-0.238
Mof_H 	H 	0.3939	0.6708	0.4417	0.126
Mof_N 	N 	0.6326	0.6293	0.1795	-0.141
Mof_N 	N 	0.4557	0.5374	0.18576	-0.158
Mof_N 	N 	0.1101	0.361	0.9127	-0.131
Mof_N 	N 	0.0989	0.4062	0.0201	-0.158
Mof_N 	N 	0.8716	0.3687	0.3177	-0.138
Mof_N 	N 	0.0249	0.4336	0.26004	-0.158
Mof_O 	O 	0.8493	0.7412	0.2848	-0.254
Mof_O 	O 	0.9828	0.7747	0.20678	-0.266
Mof_O 	O 	0.0864	0.749	0.5331	-0.248
Mof_O 	O 	0.2804	0.6699	0.54975	-0.257
Mof_O 	O 	0.4517	0.6834	0.31506	-0.441
Mof_H 	H 	0.5102	0.6649	0.3455	0.256
Mof_Cd	Cd	0.26598	0.75048	0.65137	0.438
Mof_C 	C 	0.7394	0.0133	0.7234	-0.295
Mof_H 	H 	0.7715	0.9969	0.7684	0.152
Mof_C 	C 	0.8197	0.0011	0.6708	0.241
Mof_C 	C 	0.7758	0.0258	0.6036	-0.29
Mof_H 	H 	0.8322	0.0172	0.5692	0.141
Mof_C 	C 	0.6458	0.0637	0.5887	0.236
Mof_C 	C 	0.5612	0.0756	0.64	-0.282
Mof_H 	H 	0.4732	0.0999	0.6298	0.141
Mof_C 	C 	0.6106	0.0505	0.7069	0.243
Mof_C 	C 	0.0056	0.8882	0.6545	0.108
Mof_H 	H 	0.956	0.8537	0.6196	0.013
Mof_C 	C 	0.1667	0.9368	0.729	0.016
Mof_H 	H 	0.252	0.9424	0.7551	0.042
Mof_C 	C 	0.0574	0.9929	0.7342	0.008
Mof_H 	H 	0.0526	0.0423	0.7648	0.048
Mof_C 	C 	0.6768	0.0983	0.4676	0.105
Mof_H 	H 	0.766	0.0755	0.4698	0.002
Mof_C 	C 	0.4838	0.1609	0.4311	0.007
Mof_H 	H 	0.4137	0.1899	0.4025	0.047
Mof_C 	C 	0.4748	0.1344	0.4967	0.016
Mof_H 	H 	0.4	0.1421	0.5212	0.028
Mof_C 	C 	0.4334	0.1359	0.762	0.107
Mof_H 	H 	0.4161	0.1816	0.7282	0.021
Mof_C 	C 	0.4276	0.0565	0.8541	0.011
Mof_H 	H 	0.4037	0.0366	0.8963	0.044
Mof_C 	C 	0.5227	0.0155	0.8198	0.01
Mof_H 	H 	0.576	0.9635	0.8337	0.037
Mof_C 	C 	0.4661	0.7484	0.7667	0.256
Mof_C 	C 	0.6838	0.7931	0.0105	0.248
Mof_C 	C 	0.6928	0.7943	0.9344	0.054
Mof_C 	C 	0.5787	0.7721	0.8879	-0.11
Mof_H 	H 	0.4943	0.7611	0.9035	0.09
Mof_C 	C 	0.5914	0.7663	0.818	0.049
Mof_C 	C 	0.7164	0.7811	0.7953	-0.22
Mof_H 	H 	0.7246	0.7762	0.7486	0.138
Mof_C 	C 	0.8312	0.8034	0.8415	0.301
Mof_C 	C 	0.8186	0.8119	0.9109	-0.237
Mof_H 	H 	0.8939	0.8292	0.9417	0.126
Mof_N 	N 	0.1326	0.8707	0.6795	-0.141
Mof_N 	N 	0.9557	0.9626	0.68576	-0.153
Mof_N 	N 	0.6101	0.139	0.4127	-0.131
Mof_N 	N 	0.5989	0.0938	0.5201	-0.159
Mof_N 	N 	0.3716	0.1313	0.8177	-0.138
Mof_N 	N 	0.5249	0.0664	0.76004	-0.159
Mof_O 	O 	0.3493	0.7588	0.7848	-0.254
Mof_O 	O 	0.4828	0.7253	0.70678	-0.266
Mof_O 	O 	0.5864	0.751	0.0331	-0.247
Mof_O 	O 	0.7804	0.8301	0.04975	-0.257
Mof_O 	O 	0.9517	0.8166	0.81506	-0.436
Mof_H 	H 	0.0102	0.8351	0.8455	0.252
Mof_Cd	Cd	0.23402	0.25048	0.84863	0.438
Mof_C 	C 	0.7606	0.5133	0.7766	-0.293
Mof_H 	H 	0.7285	0.4969	0.7316	0.151
Mof_C 	C 	0.6803	0.5011	0.8292	0.241
Mof_C 	C 	0.7242	0.5258	0.8964	-0.289
Mof_H 	H 	0.6678	0.5172	0.9308	0.141
Mof_C 	C 	0.8542	0.5637	0.9113	0.235
Mof_C 	C 	0.9388	0.5756	0.86	-0.277
Mof_H 	H 	0.0268	0.5999	0.8702	0.138
Mof_C 	C 	0.8894	0.5505	0.7931	0.241
Mof_C 	C 	0.4944	0.3882	0.8455	0.115
Mof_H 	H 	0.544	0.3537	0.8804	0.009
Mof_C 	C 	0.3333	0.4368	0.771	0.012
Mof_H 	H 	0.248	0.4424	0.7449	0.043
Mof_C 	C 	0.4426	0.4929	0.7658	0.017
Mof_H 	H 	0.4474	0.5423	0.7352	0.043
Mof_C 	C 	0.8232	0.5983	0.0324	0.104
Mof_H 	H 	0.734	0.5755	0.0302	0.002
Mof_C 	C 	0.0162	0.6609	0.0689	0.006
Mof_H 	H 	0.0863	0.6899	0.0975	0.048
Mof_C 	C 	0.0252	0.6344	0.0033	0.02
Mof_H 	H 	0.1	0.6421	0.9788	0.025
Mof_C 	C 	0.0666	0.6359	0.738	0.105
Mof_H 	H 	0.0839	0.6816	0.7718	0.021
Mof_C 	C 	0.0724	0.5565	0.6459	0.009
Mof_H 	H 	0.0963	0.5366	0.6037	0.044
Mof_C 	C 	0.9773	0.5155	0.6802	0.011
Mof_H 	H 	0.924	0.4635	0.6663	0.037
Mof_C 	C 	0.0339	0.2484	0.7333	0.256
Mof_C 	C 	0.8162	0.2931	0.4895	0.247
Mof_C 	C 	0.8072	0.2943	0.5656	0.054
Mof_C 	C 	0.9213	0.2721	0.6121	-0.112
Mof_H 	H 	0.0057	0.2611	0.5965	0.092
Mof_C 	C 	0.9086	0.2663	0.682	0.05
Mof_C 	C 	0.7836	0.2811	0.7047	-0.221
Mof_H 	H 	0.7754	0.2762	0.7514	0.139
Mof_C 	C 	0.6688	0.3034	0.6585	0.302
Mof_C 	C 	0.6814	0.3119	0.5891	-0.238
Mof_H 	H 	0.6061	0.3292	0.5583	0.126
Mof_N 	N 	0.3674	0.3707	0.8205	-0.141
Mof_N 	N 	0.5443	0.4626	0.81424	-0.158
Mof_N 	N 	0.8899	0.639	0.0873	-0.131
Mof_N 	N 	0.9011	0.5938	0.9799	-0.158
Mof_N 	N 	0.1284	0.6313	0.6823	-0.138
Mof_N 	N 	0.9751	0.5664	0.73996	-0.158
Mof_O 	O 	0.1507	0.2588	0.7152	-0.254
Mof_O 	O 	0.0172	0.2253	0.79322	-0.266
Mof_O 	O 	0.9136	0.251	0.4669	-0.248
Mof_O 	O 	0.7196	0.3301	0.45025	-0.257
Mof_O 	O 	0.5483	0.3166	0.68494	-0.441
Mof_H 	H 	0.4898	0.3351	0.6545	0.256
_end
