data_functionalizedCrystal
_audit_creation_method	'EQeq! by Chris Wilmer'
_symmetry_space_group_name_H-M	'P1'
_symmetry_Int_Tables_number	1
_symmetry_cell_setting	triclinic
loop_
_symmetry_equiv_pos_as_xyz
  x,y,z
_cell_length_a	23.6251
_cell_length_b	10.2528
_cell_length_c	7.8199
_cell_angle_alpha	90
_cell_angle_beta	90
_cell_angle_gamma	90
loop_
_atom_site_label
_atom_site_type_symbol
_atom_site_fract_x
_atom_site_fract_y
_atom_site_fract_z
_atom_site_charge
Mof_O 	O 	0.047	0.3535	0.0772	-0.234
Mof_O 	O 	0.547	0.8535	0.0772	-0.274
Mof_O 	O 	0.953	0.6465	0.5772	-0.279
Mof_O 	O 	0.453	0.1465	0.5772	-0.281
Mof_O 	O 	0.953	0.3535	0.4228	-0.27
Mof_O 	O 	0.453	0.8535	0.4228	-0.33
Mof_O 	O 	0.047	0.6465	0.9228	-0.373
Mof_O 	O 	0.547	0.1465	0.9228	-0.354
Mof_O 	O 	0.953	0.6465	0.9228	-0.348
Mof_O 	O 	0.453	0.1465	0.9228	-0.354
Mof_O 	O 	0.047	0.3535	0.4228	-0.295
Mof_O 	O 	0.547	0.8535	0.4228	-0.33
Mof_O 	O 	0.047	0.6465	0.5772	-0.304
Mof_O 	O 	0.547	0.1465	0.5772	-0.281
Mof_O 	O 	0.953	0.3535	0.0772	-0.21
Mof_O 	O 	0.453	0.8535	0.0772	-0.274
Mof_Cs	Cs	0.31159	0.31699	0.25	3.139
Mof_Cd	Cd	0.12428	0.40048	0.25	0.376
Mof_Br	Br	0.16916	0.16625	0.25	-1.164
Mof_O 	O 	0.0829	0.6138	0.25	-0.339
Mof_Cs	Cs	0.81159	0.81699	0.25	2.638
Mof_Cd	Cd	0.62428	0.90048	0.25	0.233
Mof_Br	Br	0.66916	0.66625	0.25	-1.21
Mof_O 	O 	0.5829	0.1138	0.25	-0.294
Mof_Cs	Cs	0.68841	0.68301	0.75	2.193
Mof_Cd	Cd	0.87572	0.59952	0.75	0.323
Mof_Br	Br	0.83084	0.83375	0.75	-1.368
Mof_O 	O 	0.9171	0.3862	0.75	-0.382
Mof_Cs	Cs	0.18841	0.18301	0.75	2.641
Mof_Cd	Cd	0.37572	0.09952	0.75	0.36
Mof_Br	Br	0.33084	0.33375	0.75	-1.327
Mof_O 	O 	0.4171	0.8862	0.75	-0.449
Mof_Cs	Cs	0.68841	0.31699	0.25	3.133
Mof_Cd	Cd	0.87572	0.40048	0.25	0.378
Mof_Br	Br	0.83084	0.16625	0.25	-1.162
Mof_O 	O 	0.9171	0.6138	0.25	-0.329
Mof_Cs	Cs	0.18841	0.81699	0.25	2.615
Mof_Cd	Cd	0.37572	0.90048	0.25	0.234
Mof_Br	Br	0.33084	0.66625	0.25	-1.209
Mof_O 	O 	0.4171	0.1138	0.25	-0.294
Mof_Cs	Cs	0.31159	0.68301	0.75	2.199
Mof_Cd	Cd	0.12428	0.59952	0.75	0.321
Mof_Br	Br	0.16916	0.83375	0.75	-1.369
Mof_O 	O 	0.0829	0.3862	0.75	-0.392
Mof_Cs	Cs	0.81159	0.18301	0.75	2.664
Mof_Cd	Cd	0.62428	0.09952	0.75	0.36
Mof_Br	Br	0.66916	0.33375	0.75	-1.328
Mof_O 	O 	0.5829	0.8862	0.75	-0.448
Mof_Br	Br	0.19264	0.5	-0	-0.961
Mof_Br	Br	0.69264	0	-0	-0.811
Mof_Br	Br	0.80736	0.5	0.5	-1.101
Mof_Br	Br	0.30736	-3.33176e-33	0.5	-0.951
Mof_Br	Br	0.80736	0.5	-0	-0.963
Mof_Br	Br	0.30736	0	-0	-0.808
Mof_Br	Br	0.19264	0.5	0.5	-1.098
Mof_Br	Br	0.69264	-3.33176e-33	0.5	-0.954
Mof_C 	C 	1.0191e-33	0.3538	0.15	0.195
Mof_C 	C 	0.5	0.8538	0.15	0.204
Mof_C 	C 	8.06682e-34	0.6462	0.65	0.175
Mof_C 	C 	0.5	0.1462	0.65	0.234
Mof_C 	C 	1.26731e-33	0.3538	0.35	0.21
Mof_C 	C 	0.5	0.8538	0.35	0.218
Mof_C 	C 	1.05489e-33	0.6462	0.85	0.199
Mof_C 	C 	0.5	0.1462	0.85	0.26
_end
