data_functionalizedCrystal
_audit_creation_method	'EQeq! by Chris Wilmer'
_symmetry_space_group_name_H-M	'P1'
_symmetry_Int_Tables_number	1
_symmetry_cell_setting	triclinic
loop_
_symmetry_equiv_pos_as_xyz
  x,y,z
_cell_length_a	8.0154
_cell_length_b	30.175
_cell_length_c	15.322
_cell_angle_alpha	90
_cell_angle_beta	90
_cell_angle_gamma	90
loop_
_atom_site_label
_atom_site_type_symbol
_atom_site_fract_x
_atom_site_fract_y
_atom_site_fract_z
_atom_site_charge
Mof_Eu	Eu	0.43541	0.90717	0.70442	2.273
Mof_O 	O 	0.2542	0.9599	0.65	-0.588
Mof_O 	O 	0.0012	0.9699	0.7088	-0.551
Mof_O 	O 	0.3919	0.042	0.385	-0.471
Mof_O 	O 	0.236	0.0969	0.3372	-0.604
Mof_O 	O 	0.1568	0.8692	0.6831	-0.585
Mof_O 	O 	0.9877	0.8305	0.7695	-0.538
Mof_N 	N 	0.927	0.0824	0.5603	-0.159
Mof_C 	C 	0.1171	0.98	0.6582	0.547
Mof_C 	C 	0.0926	0.0195	0.6002	-0.225
Mof_C 	C 	0.9586	0.0484	0.6114	0.134
Mof_H 	H 	0.8854	0.0432	0.659	0.007
Mof_C 	C 	0.0252	0.0874	0.4908	0.115
Mof_H 	H 	-3.57867e-33	0.1106	0.4511	-0.013
Mof_C 	C 	0.1622	0.0606	0.4727	-0.199
Mof_C 	C 	0.1975	0.0268	0.5298	0.141
Mof_H 	H 	0.2929	0.0086	0.5211	0.007
Mof_C 	C 	0.2682	0.0662	0.3941	0.389
Mof_C 	C 	0.0943	0.832	0.71	0.426
Mof_C 	C 	0.148	0.7896	0.6686	-0.191
Mof_C 	C 	0.242	0.7877	0.5917	0.126
Mof_H 	H 	0.273	0.8149	0.565	-0.026
Mof_Eu	Eu	0.06459	0.09283	0.20442	2.257
Mof_O 	O 	0.2458	0.0401	0.15	-0.589
Mof_O 	O 	0.4988	0.0301	0.2088	-0.556
Mof_O 	O 	0.1081	0.958	0.885	-0.467
Mof_O 	O 	0.264	0.9031	0.8372	-0.601
Mof_O 	O 	0.3432	0.1308	0.1831	-0.583
Mof_O 	O 	0.5123	0.1695	0.2695	-0.529
Mof_N 	N 	0.573	0.9176	0.0603	-0.16
Mof_C 	C 	0.3829	0.02	0.1582	0.546
Mof_C 	C 	0.4074	0.9805	0.1002	-0.222
Mof_C 	C 	0.5414	0.9516	0.1114	0.132
Mof_H 	H 	0.6146	0.9568	0.159	0.008
Mof_C 	C 	0.4748	0.9126	0.9908	0.116
Mof_H 	H 	0.5	0.8894	0.9511	-0.011
Mof_C 	C 	0.3378	0.9394	0.9727	-0.196
Mof_C 	C 	0.3025	0.9732	0.0298	0.138
Mof_H 	H 	0.2071	0.9914	0.0211	0.007
Mof_C 	C 	0.2318	0.9338	0.8941	0.389
Mof_C 	C 	0.4057	0.168	0.21	0.414
Mof_C 	C 	0.352	0.2104	0.1686	-0.188
Mof_C 	C 	0.258	0.2123	0.0917	0.123
Mof_H 	H 	0.227	0.1851	0.065	-0.026
Mof_Eu	Eu	0.56459	0.40717	0.29558	2.272
Mof_O 	O 	0.7458	0.4599	0.35	-0.589
Mof_O 	O 	0.9988	0.4699	0.2912	-0.553
Mof_O 	O 	0.6081	0.542	0.615	-0.471
Mof_O 	O 	0.764	0.5969	0.6628	-0.604
Mof_O 	O 	0.8432	0.3692	0.3169	-0.584
Mof_O 	O 	0.0123	0.3305	0.2305	-0.537
Mof_N 	N 	0.073	0.5824	0.4397	-0.157
Mof_C 	C 	0.8829	0.48	0.3418	0.546
Mof_C 	C 	0.9074	0.5195	0.3998	-0.222
Mof_C 	C 	0.0414	0.5484	0.3886	0.132
Mof_H 	H 	0.1146	0.5432	0.341	0.007
Mof_C 	C 	0.9748	0.5874	0.5092	0.105
Mof_H 	H 	-2.33131e-32	0.6106	0.5489	-0.004
Mof_C 	C 	0.8378	0.5606	0.5273	-0.195
Mof_C 	C 	0.8025	0.5268	0.4702	0.138
Mof_H 	H 	0.7071	0.5086	0.4789	0.008
Mof_C 	C 	0.7318	0.5662	0.6059	0.387
Mof_C 	C 	0.9057	0.332	0.29	0.425
Mof_C 	C 	0.852	0.2896	0.3314	-0.191
Mof_C 	C 	0.758	0.2877	0.4083	0.126
Mof_H 	H 	0.727	0.3149	0.435	-0.026
Mof_Eu	Eu	0.93541	0.59283	0.79558	2.256
Mof_O 	O 	0.7542	0.5401	0.85	-0.589
Mof_O 	O 	0.5012	0.5301	0.7912	-0.556
Mof_O 	O 	0.8919	0.458	0.115	-0.468
Mof_O 	O 	0.736	0.4031	0.1628	-0.602
Mof_O 	O 	0.6568	0.6308	0.8169	-0.583
Mof_O 	O 	0.4877	0.6695	0.7305	-0.529
Mof_N 	N 	0.427	0.4176	0.9397	-0.16
Mof_C 	C 	0.6171	0.52	0.8418	0.546
Mof_C 	C 	0.5926	0.4805	0.8998	-0.223
Mof_C 	C 	0.4586	0.4516	0.8886	0.132
Mof_H 	H 	0.3854	0.4568	0.841	0.008
Mof_C 	C 	0.5252	0.4126	0.0092	0.116
Mof_H 	H 	0.5	0.3894	0.0489	-0.011
Mof_C 	C 	0.6622	0.4394	0.0273	-0.196
Mof_C 	C 	0.6975	0.4732	0.9702	0.138
Mof_H 	H 	0.7929	0.4914	0.9789	0.007
Mof_C 	C 	0.7682	0.4338	0.1059	0.389
Mof_C 	C 	0.5943	0.668	0.79	0.414
Mof_C 	C 	0.648	0.7104	0.8314	-0.188
Mof_C 	C 	0.742	0.7123	0.9083	0.123
Mof_H 	H 	0.773	0.6851	0.935	-0.026
Mof_Eu	Eu	0.56459	0.09283	0.29558	2.272
Mof_O 	O 	0.7458	0.0401	0.35	-0.589
Mof_O 	O 	0.9988	0.0301	0.2912	-0.552
Mof_O 	O 	0.6081	0.958	0.615	-0.471
Mof_O 	O 	0.764	0.9031	0.6628	-0.603
Mof_O 	O 	0.8432	0.1308	0.3169	-0.584
Mof_O 	O 	0.0123	0.1695	0.2305	-0.537
Mof_N 	N 	0.073	0.9176	0.4397	-0.157
Mof_C 	C 	0.8829	0.02	0.3418	0.547
Mof_C 	C 	0.9074	0.9805	0.3998	-0.224
Mof_C 	C 	0.0414	0.9516	0.3886	0.134
Mof_H 	H 	0.1146	0.9568	0.341	0.007
Mof_C 	C 	0.9748	0.9126	0.5092	0.104
Mof_H 	H 	3.9341e-33	0.8894	0.5489	-0.004
Mof_C 	C 	0.8378	0.9394	0.5273	-0.195
Mof_C 	C 	0.8025	0.9732	0.4702	0.139
Mof_H 	H 	0.7071	0.9914	0.4789	0.008
Mof_C 	C 	0.7318	0.9338	0.6059	0.387
Mof_C 	C 	0.9057	0.168	0.29	0.425
Mof_C 	C 	0.852	0.2104	0.3314	-0.191
Mof_C 	C 	0.758	0.2123	0.4083	0.126
Mof_H 	H 	0.727	0.1851	0.435	-0.026
Mof_Eu	Eu	0.93541	0.90717	0.79558	2.255
Mof_O 	O 	0.7542	0.9599	0.85	-0.589
Mof_O 	O 	0.5012	0.9699	0.7912	-0.556
Mof_O 	O 	0.8919	0.042	0.115	-0.468
Mof_O 	O 	0.736	0.0969	0.1628	-0.601
Mof_O 	O 	0.6568	0.8692	0.8169	-0.583
Mof_O 	O 	0.4877	0.8305	0.7305	-0.529
Mof_N 	N 	0.427	0.0824	0.9397	-0.16
Mof_C 	C 	0.6171	0.98	0.8418	0.546
Mof_C 	C 	0.5926	0.0195	0.8998	-0.222
Mof_C 	C 	0.4586	0.0484	0.8886	0.132
Mof_H 	H 	0.3854	0.0432	0.841	0.008
Mof_C 	C 	0.5252	0.0874	0.0092	0.116
Mof_H 	H 	0.5	0.1106	0.0489	-0.011
Mof_C 	C 	0.6622	0.0606	0.0273	-0.196
Mof_C 	C 	0.6975	0.0268	0.9702	0.138
Mof_H 	H 	0.7929	0.0086	0.9789	0.007
Mof_C 	C 	0.7682	0.0662	0.1059	0.389
Mof_C 	C 	0.5943	0.832	0.79	0.414
Mof_C 	C 	0.648	0.7896	0.8314	-0.188
Mof_C 	C 	0.742	0.7877	0.9083	0.123
Mof_H 	H 	0.773	0.8149	0.935	-0.026
Mof_Eu	Eu	0.43541	0.59283	0.70442	2.272
Mof_O 	O 	0.2542	0.5401	0.65	-0.589
Mof_O 	O 	0.0012	0.5301	0.7088	-0.552
Mof_O 	O 	0.3919	0.458	0.385	-0.472
Mof_O 	O 	0.236	0.4031	0.3372	-0.604
Mof_O 	O 	0.1568	0.6308	0.6831	-0.585
Mof_O 	O 	0.9877	0.6695	0.7695	-0.538
Mof_N 	N 	0.927	0.4176	0.5603	-0.159
Mof_C 	C 	0.1171	0.52	0.6582	0.546
Mof_C 	C 	0.0926	0.4805	0.6002	-0.223
Mof_C 	C 	0.9586	0.4516	0.6114	0.132
Mof_H 	H 	0.8854	0.4568	0.659	0.007
Mof_C 	C 	0.0252	0.4126	0.4908	0.116
Mof_H 	H 	-3.57867e-33	0.3894	0.4511	-0.013
Mof_C 	C 	0.1622	0.4394	0.4727	-0.199
Mof_C 	C 	0.1975	0.4732	0.5298	0.14
Mof_H 	H 	0.2929	0.4914	0.5211	0.007
Mof_C 	C 	0.2682	0.4338	0.3941	0.389
Mof_C 	C 	0.0943	0.668	0.71	0.425
Mof_C 	C 	0.148	0.7104	0.6686	-0.191
Mof_C 	C 	0.242	0.7123	0.5917	0.126
Mof_H 	H 	0.273	0.6851	0.565	-0.026
Mof_Eu	Eu	0.06459	0.40717	0.20442	2.258
Mof_O 	O 	0.2458	0.4599	0.15	-0.589
Mof_O 	O 	0.4988	0.4699	0.2088	-0.556
Mof_O 	O 	0.1081	0.542	0.885	-0.467
Mof_O 	O 	0.264	0.5969	0.8372	-0.601
Mof_O 	O 	0.3432	0.3692	0.1831	-0.584
Mof_O 	O 	0.5123	0.3305	0.2695	-0.529
Mof_N 	N 	0.573	0.5824	0.0603	-0.16
Mof_C 	C 	0.3829	0.48	0.1582	0.546
Mof_C 	C 	0.4074	0.5195	0.1002	-0.223
Mof_C 	C 	0.5414	0.5484	0.1114	0.132
Mof_H 	H 	0.6146	0.5432	0.159	0.008
Mof_C 	C 	0.4748	0.5874	0.9908	0.116
Mof_H 	H 	0.5	0.6106	0.9511	-0.011
Mof_C 	C 	0.3378	0.5606	0.9727	-0.196
Mof_C 	C 	0.3025	0.5268	0.0298	0.138
Mof_H 	H 	0.2071	0.5086	0.0211	0.007
Mof_C 	C 	0.2318	0.5662	0.8941	0.389
Mof_C 	C 	0.4057	0.332	0.21	0.414
Mof_C 	C 	0.352	0.2896	0.1686	-0.188
Mof_C 	C 	0.258	0.2877	0.0917	0.123
Mof_H 	H 	0.227	0.3149	0.065	-0.026
Mof_N 	N 	0.2915	0.75	0.5531	-0.155
Mof_C 	C 	0.0997	0.75	0.7046	0.126
Mof_H 	H 	0.0318	0.75	0.7554	0.02
Mof_N 	N 	0.2085	0.25	0.0531	-0.155
Mof_C 	C 	0.4003	0.25	0.2046	0.121
Mof_H 	H 	0.4682	0.25	0.2554	0.017
Mof_N 	N 	0.7085	0.25	0.4469	-0.155
Mof_C 	C 	0.9003	0.25	0.2954	0.126
Mof_H 	H 	0.9682	0.25	0.2446	0.02
Mof_N 	N 	0.7915	0.75	0.9469	-0.156
Mof_C 	C 	0.5997	0.75	0.7954	0.121
Mof_H 	H 	0.5318	0.75	0.7446	0.017
_end
