data_functionalizedCrystal
_audit_creation_method	'EQeq! by Chris Wilmer'
_symmetry_space_group_name_H-M	'P1'
_symmetry_Int_Tables_number	1
_symmetry_cell_setting	triclinic
loop_
_symmetry_equiv_pos_as_xyz
  x,y,z
_cell_length_a	7.0236
_cell_length_b	9.8589
_cell_length_c	10.0665
_cell_angle_alpha	90.8285
_cell_angle_beta	110.418
_cell_angle_gamma	90
loop_
_atom_site_label
_atom_site_type_symbol
_atom_site_fract_x
_atom_site_fract_y
_atom_site_fract_z
_atom_site_charge
Mof_Cu	Cu	0.06378	0.25	-0	0.855
Mof_Cu	Cu	0.93622	0.75	-0	0.853
Mof_P 	P 	0.91308	0.99309	0.79116	0.408
Mof_P 	P 	0.12192	0.50691	0.20884	0.416
Mof_P 	P 	0.08692	0.00691	0.20884	0.408
Mof_P 	P 	0.87808	0.49309	0.79116	0.409
Mof_H 	H 	-4.42829e-17	0.7933	0.607	0.087
Mof_H 	H 	0.9397	0.1979	0.605	0.064
Mof_H 	H 	0.5037	0.9692	0.596	0.085
Mof_H 	H 	0.409	0.0354	0.701	0.105
Mof_H 	H 	0.5336	0.9009	0.7414	0.107
Mof_H 	H 	0.393	0.7067	0.393	0.057
Mof_H 	H 	0.3347	0.3021	0.395	0.051
Mof_H 	H 	0.9077	0.5308	0.404	0.052
Mof_H 	H 	0.708	0.4646	0.299	0.049
Mof_H 	H 	0.7922	0.5991	0.2586	0.038
Mof_H 	H 	-4.98709e-19	0.2067	0.393	0.047
Mof_H 	H 	0.0603	0.8021	0.395	0.035
Mof_H 	H 	0.4963	0.0308	0.404	0.072
Mof_H 	H 	0.591	0.9646	0.299	0.073
Mof_H 	H 	0.4664	0.0991	0.2586	0.057
Mof_H 	H 	0.607	0.2933	0.607	0.064
Mof_H 	H 	0.6653	0.6979	0.605	0.053
Mof_H 	H 	0.0923	0.4692	0.596	0.096
Mof_H 	H 	0.292	0.5354	0.701	0.118
Mof_H 	H 	0.2078	0.4009	0.7414	0.118
Mof_C 	C 	0.9628	0.9948	0.6262	-0.01
Mof_C 	C 	0.9998	0.8762	0.564	-0.097
Mof_C 	C 	0.9637	0.1184	0.5626	-0.076
Mof_C 	C 	0.5228	0.9858	0.694	-0.16
Mof_C 	C 	0.3366	0.5052	0.3738	-0.049
Mof_C 	C 	0.4358	0.6238	0.436	-0.039
Mof_C 	C 	0.4011	0.3816	0.4374	-0.035
Mof_C 	C 	0.8288	0.5142	0.306	-0.066
Mof_C 	C 	0.0372	0.0052	0.3738	-0.08
Mof_C 	C 	0.0002	0.1238	0.436	-0.008
Mof_C 	C 	0.0363	0.8816	0.4374	0.017
Mof_C 	C 	0.4772	0.0142	0.306	-0.131
Mof_C 	C 	0.6634	0.4948	0.6262	-0.038
Mof_C 	C 	0.5642	0.3762	0.564	-0.044
Mof_C 	C 	0.5989	0.6184	0.5626	-0.04
Mof_C 	C 	0.1712	0.4858	0.694	-0.195
Mof_O 	O 	0.0621	0.0855	0.8948	-0.274
Mof_O 	O 	0.698	0.0603	0.7564	-0.195
Mof_O 	O 	0.9077	0.847	0.829	-0.307
Mof_O 	O 	0.1673	0.4145	0.1052	-0.437
Mof_O 	O 	0.9416	0.4397	0.2436	-0.265
Mof_O 	O 	0.0787	0.653	0.171	-0.402
Mof_O 	O 	0.9379	0.9145	0.1052	-0.435
Mof_O 	O 	0.302	0.9397	0.2436	-0.241
Mof_O 	O 	0.0923	0.153	0.171	-0.404
Mof_O 	O 	0.8327	0.5855	0.8948	-0.277
Mof_O 	O 	0.0584	0.5603	0.7564	-0.182
Mof_O 	O 	0.9213	0.347	0.829	-0.307
_end
