data_functionalizedCrystal
_audit_creation_method	'EQeq! by Chris Wilmer'
_symmetry_space_group_name_H-M	'P1'
_symmetry_Int_Tables_number	1
_symmetry_cell_setting	triclinic
loop_
_symmetry_equiv_pos_as_xyz
  x,y,z
_cell_length_a	9.4609
_cell_length_b	11.458
_cell_length_c	14.593
_cell_angle_alpha	69.96
_cell_angle_beta	85.42
_cell_angle_gamma	86.41
loop_
_atom_site_label
_atom_site_type_symbol
_atom_site_fract_x
_atom_site_fract_y
_atom_site_fract_z
_atom_site_charge
Mof_Y 	Y 	0.79683	0.95472	0.00251	1.372
Mof_Y 	Y 	0.20317	0.04528	0.99749	1.372
Mof_H 	H 	0.8666	0.3694	0.8409	0.161
Mof_H 	H 	0.973	0.3705	0.7528	0.166
Mof_H 	H 	0.341	0.378	0.898	0.152
Mof_H 	H 	0.262	0.476	0.812	0.135
Mof_H 	H 	0.8788	0.9423	0.5569	0.082
Mof_H 	H 	0.8714	0.0643	0.4655	0.084
Mof_H 	H 	0.2755	0.3492	0.3918	0.136
Mof_H 	H 	0.261	0.2868	0.3189	0.132
Mof_H 	H 	0.8553	0.098	0.2806	0.166
Mof_H 	H 	0.8148	0.2233	0.198	0.167
Mof_H 	H 	0.1188	0.5345	0.4324	0.087
Mof_H 	H 	0.1146	0.4115	0.5231	0.093
Mof_H 	H 	0.6691	0.0445	0.609	0.128
Mof_H 	H 	0.6265	0.1195	0.673	0.14
Mof_H 	H 	0.4848	0.8372	0.8087	0.135
Mof_H 	H 	0.6358	0.8318	0.7584	0.132
Mof_H 	H 	0.0293	0.4814	0.9092	0.088
Mof_H 	H 	0.0795	0.3882	0.0088	0.113
Mof_H 	H 	0.1334	0.6306	0.1591	0.161
Mof_H 	H 	0.027	0.6295	0.2472	0.166
Mof_H 	H 	0.659	0.622	0.102	0.152
Mof_H 	H 	0.738	0.524	0.188	0.135
Mof_H 	H 	0.1212	0.0577	0.4431	0.082
Mof_H 	H 	0.1286	0.9357	0.5345	0.084
Mof_H 	H 	0.7245	0.6508	0.6082	0.136
Mof_H 	H 	0.739	0.7132	0.6811	0.132
Mof_H 	H 	0.1447	0.902	0.7194	0.166
Mof_H 	H 	0.1852	0.7767	0.802	0.167
Mof_H 	H 	0.8812	0.4655	0.5676	0.087
Mof_H 	H 	0.8854	0.5885	0.4769	0.093
Mof_H 	H 	0.3309	0.9555	0.391	0.128
Mof_H 	H 	0.3735	0.8805	0.327	0.14
Mof_H 	H 	0.5152	0.1628	0.1913	0.135
Mof_H 	H 	0.3642	0.1682	0.2416	0.132
Mof_H 	H 	0.9707	0.5186	0.0908	0.088
Mof_H 	H 	0.9205	0.6118	0.9912	0.113
Mof_C 	C 	0.9253	0.0976	0.1423	0.508
Mof_C 	C 	0.8857	0.1974	0.6812	0.097
Mof_C 	C 	0.0006	0.2162	0.873	0.461
Mof_C 	C 	0.9111	0.3183	0.8049	-0.399
Mof_C 	C 	0.9279	0.0174	0.5198	-0.158
Mof_C 	C 	0.9839	0.3031	0.3154	0.071
Mof_C 	C 	0.8888	0.1591	0.2195	-0.413
Mof_C 	C 	0.9419	0.0929	0.5833	0.146
Mof_C 	C 	0.9963	0.4056	0.4151	0.141
Mof_C 	C 	0.0573	0.4705	0.4745	-0.162
Mof_C 	C 	0.5798	0.8005	0.8199	-0.347
Mof_C 	C 	0.6414	0.8477	0.8922	0.388
Mof_C 	C 	0.4027	0.6151	0.9124	0.094
Mof_C 	C 	0.1899	0.5459	0.9599	0.142
Mof_C 	C 	0.0593	0.4752	0.9727	-0.182
Mof_C 	C 	0.0747	0.9024	0.8577	0.508
Mof_C 	C 	0.1143	0.8026	0.3188	0.097
Mof_C 	C 	0.9994	0.7838	0.127	0.461
Mof_C 	C 	0.0889	0.6817	0.1951	-0.399
Mof_C 	C 	0.0721	0.9826	0.4802	-0.158
Mof_C 	C 	0.0161	0.6969	0.6846	0.071
Mof_C 	C 	0.1112	0.8409	0.7805	-0.413
Mof_C 	C 	0.0581	0.9071	0.4167	0.146
Mof_C 	C 	0.0037	0.5944	0.5849	0.141
Mof_C 	C 	0.9427	0.5295	0.5255	-0.162
Mof_C 	C 	0.4202	0.1995	0.1801	-0.347
Mof_C 	C 	0.3586	0.1523	0.1078	0.388
Mof_C 	C 	0.5973	0.3849	0.0876	0.094
Mof_C 	C 	0.8101	0.4541	0.0401	0.142
Mof_C 	C 	0.9407	0.5248	0.0273	-0.182
Mof_S 	S 	0.04861	0.22605	0.23579	0.069
Mof_S 	S 	0.56907	0.63481	0.85031	0.05
Mof_S 	S 	0.77587	0.2644	0.75183	0.035
Mof_S 	S 	0.95139	0.77395	0.76421	0.069
Mof_S 	S 	0.43093	0.36519	0.14969	0.05
Mof_S 	S 	0.22413	0.7356	0.24817	0.035
Mof_N 	N 	0.3091	0.532	0.9051	-0.117
Mof_N 	N 	0.2077	0.6316	0.9978	-0.116
Mof_N 	N 	0.0763	0.3478	0.3612	-0.107
Mof_N 	N 	0.022	0.2045	0.662	-0.1
Mof_N 	N 	0.3444	0.6754	0.9673	-0.103
Mof_N 	N 	0.8307	0.1278	0.6335	-0.107
Mof_N 	N 	0.3383	0.4521	0.8505	-0.222
Mof_N 	N 	0.2231	0.325	0.3567	-0.247
Mof_N 	N 	0.0589	0.1368	0.5982	-0.11
Mof_N 	N 	0.8633	0.3974	0.4041	-0.105
Mof_N 	N 	0.8539	0.3306	0.3395	-0.095
Mof_N 	N 	0.691	0.0928	0.6392	-0.243
Mof_N 	N 	0.6909	0.468	0.0949	-0.117
Mof_N 	N 	0.7923	0.3684	0.0022	-0.116
Mof_N 	N 	0.9237	0.6522	0.6388	-0.107
Mof_N 	N 	0.978	0.7955	0.338	-0.1
Mof_N 	N 	0.6556	0.3246	0.0327	-0.103
Mof_N 	N 	0.1693	0.8722	0.3665	-0.107
Mof_N 	N 	0.6617	0.5479	0.1495	-0.222
Mof_N 	N 	0.7769	0.675	0.6433	-0.247
Mof_N 	N 	0.9411	0.8632	0.4018	-0.11
Mof_N 	N 	0.1367	0.6026	0.5959	-0.105
Mof_N 	N 	0.1461	0.6694	0.6605	-0.095
Mof_N 	N 	0.309	0.9072	0.3608	-0.243
Mof_O 	O 	0.8281	0.0414	0.1243	-0.452
Mof_O 	O 	0.9473	0.1146	0.9249	-0.478
Mof_O 	O 	0.1274	0.2365	0.8782	-0.423
Mof_O 	O 	0.0503	0.1084	0.1057	-0.42
Mof_O 	O 	0.6872	0.7776	0.9708	-0.368
Mof_O 	O 	0.6482	0.9654	0.8672	-0.397
Mof_O 	O 	0.1719	0.9586	0.8757	-0.452
Mof_O 	O 	0.0527	0.8854	0.0751	-0.478
Mof_O 	O 	0.8726	0.7635	0.1218	-0.423
Mof_O 	O 	0.9497	0.8916	0.8943	-0.42
Mof_O 	O 	0.3128	0.2224	0.0292	-0.368
Mof_O 	O 	0.3518	0.0346	0.1328	-0.397
_end
