data_functionalizedCrystal
_audit_creation_method	'EQeq! by Chris Wilmer'
_symmetry_space_group_name_H-M	'P1'
_symmetry_Int_Tables_number	1
_symmetry_cell_setting	triclinic
loop_
_symmetry_equiv_pos_as_xyz
  x,y,z
_cell_length_a	9.243
_cell_length_b	8.817
_cell_length_c	9.684
_cell_angle_alpha	90
_cell_angle_beta	120.92
_cell_angle_gamma	90
loop_
_atom_site_label
_atom_site_type_symbol
_atom_site_fract_x
_atom_site_fract_y
_atom_site_fract_z
_atom_site_charge
Mof_P 	P 	0.2576	0.8983	0.9265	0.418
Mof_P 	P 	0.1674	0.6671	0.5272	0.347
Mof_O 	O 	0.136	0.601	0.655	-0.56
Mof_O 	O 	0.346	0.743	0.59	-0.441
Mof_O 	O 	0.152	0.552	0.395	-0.492
Mof_O 	O 	0.356	0.942	0.104	-0.427
Mof_O 	O 	0.137	0.768	0.895	-0.588
Mof_O 	O 	0.369	0.885	0.861	-0.496
Mof_P 	P 	0.7424	0.8983	0.5735	0.549
Mof_P 	P 	0.8326	0.6671	0.9728	0.479
Mof_O 	O 	0.864	0.601	0.845	-0.353
Mof_O 	O 	0.654	0.743	0.91	-0.44
Mof_O 	O 	0.848	0.552	0.105	-0.271
Mof_O 	O 	0.644	0.942	0.396	-0.421
Mof_O 	O 	0.863	0.768	0.605	-0.33
Mof_O 	O 	0.631	0.885	0.639	-0.475
Mof_P 	P 	0.7424	0.1017	0.0735	0.575
Mof_P 	P 	0.8326	0.3329	0.4728	0.52
Mof_O 	O 	0.864	0.399	0.345	-0.347
Mof_O 	O 	0.654	0.257	0.41	-0.431
Mof_O 	O 	0.848	0.448	0.605	-0.304
Mof_O 	O 	0.644	0.058	0.896	-0.453
Mof_O 	O 	0.863	0.232	0.105	-0.329
Mof_O 	O 	0.631	0.115	0.139	-0.473
Mof_P 	P 	0.2576	0.1017	0.4265	0.46
Mof_P 	P 	0.1674	0.3329	0.0272	0.379
Mof_O 	O 	0.136	0.399	0.155	-0.554
Mof_O 	O 	0.346	0.257	0.09	-0.435
Mof_O 	O 	0.152	0.448	0.895	-0.522
Mof_O 	O 	0.356	0.058	0.604	-0.468
Mof_O 	O 	0.137	0.232	0.395	-0.584
Mof_O 	O 	0.369	0.115	0.361	-0.493
Mof_V 	V 	8.3958e-17	0.6073	0.75	1.682
Mof_V 	V 	1.4867e-33	0.3927	0.25	1.684
Mof_V 	V 	0.5	0.8896	0.75	1.797
Mof_V 	V 	0.5	0.1104	0.25	1.797
_end
