data_functionalizedCrystal
_audit_creation_method	'EQeq! by Chris Wilmer'
_symmetry_space_group_name_H-M	'P1'
_symmetry_Int_Tables_number	1
_symmetry_cell_setting	triclinic
loop_
_symmetry_equiv_pos_as_xyz
  x,y,z
_cell_length_a	13.2796
_cell_length_b	14.9992
_cell_length_c	16.1213
_cell_angle_alpha	117.723
_cell_angle_beta	99.1245
_cell_angle_gamma	90
loop_
_atom_site_label
_atom_site_type_symbol
_atom_site_fract_x
_atom_site_fract_y
_atom_site_fract_z
_atom_site_charge
Mof_Nd	Nd	0.95766	0.9671	0.36284	2.213
Mof_Nd	Nd	0.54234	0.60426	0.63716	2.239
Mof_Nd	Nd	0.04234	0.0329	0.63716	2.213
Mof_Nd	Nd	0.45766	0.39574	0.36284	2.239
Mof_H 	H 	0.0462	0.6359	0.1144	0.02
Mof_H 	H 	0.0955	0.5264	0.9716	0.087
Mof_H 	H 	0.1374	0.7576	0.919	0.075
Mof_H 	H 	0.0916	0.8673	0.0622	0.012
Mof_H 	H 	0.194	0.602	0.824	0.043
Mof_H 	H 	0.2773	0.5135	0.7134	0.046
Mof_H 	H 	0.0838	0.2891	0.6796	0.028
Mof_H 	H 	0.2061	0.2656	0.4598	0.006
Mof_H 	H 	0.4538	0.5215	0.8856	0.021
Mof_H 	H 	0.4045	0.5548	0.0284	0.086
Mof_H 	H 	0.3626	0.8386	0.081	0.073
Mof_H 	H 	0.4084	0.8051	0.9378	0.012
Mof_H 	H 	0.306	0.778	0.176	0.043
Mof_H 	H 	0.2227	0.8001	0.2866	0.047
Mof_H 	H 	0.4162	0.6095	0.3204	0.029
Mof_H 	H 	0.2939	0.8058	0.5402	0.008
Mof_H 	H 	0.9538	0.3641	0.8856	0.02
Mof_H 	H 	0.9045	0.4736	0.0284	0.087
Mof_H 	H 	0.8626	0.2424	0.081	0.075
Mof_H 	H 	0.9084	0.1327	0.9378	0.012
Mof_H 	H 	0.806	0.398	0.176	0.043
Mof_H 	H 	0.7227	0.4865	0.2866	0.046
Mof_H 	H 	0.9162	0.7109	0.3204	0.028
Mof_H 	H 	0.7939	0.7344	0.5402	0.006
Mof_H 	H 	0.5462	0.4785	0.1144	0.021
Mof_H 	H 	0.5955	0.4452	0.9716	0.086
Mof_H 	H 	0.6374	0.1614	0.919	0.073
Mof_H 	H 	0.5916	0.1949	0.0622	0.012
Mof_H 	H 	0.694	0.222	0.824	0.043
Mof_H 	H 	0.7773	0.1999	0.7134	0.047
Mof_H 	H 	0.5838	0.3905	0.6796	0.029
Mof_H 	H 	0.7061	0.1942	0.4598	0.008
Mof_C 	C 	0.0194	0.8318	0.1896	0.352
Mof_C 	C 	0.0576	0.761	0.101	-0.13
Mof_C 	C 	0.0629	0.6606	0.0746	0.063
Mof_C 	C 	0.0929	0.5947	0.9892	-0.149
Mof_C 	C 	0.119	0.6326	0.9302	0.094
Mof_C 	C 	0.1183	0.7326	0.9578	-0.156
Mof_C 	C 	0.0897	0.7985	0.0432	0.057
Mof_C 	C 	0.1469	0.5645	0.8376	-0.031
Mof_C 	C 	0.3277	0.4377	0.542	0.487
Mof_C 	C 	0.2547	0.3955	0.5798	-0.158
Mof_C 	C 	0.2409	0.451	0.6744	-0.01
Mof_C 	C 	0.1732	0.4134	0.7104	0.033
Mof_C 	C 	0.1243	0.3171	0.6542	-0.012
Mof_C 	C 	0.1363	0.2629	0.56	-0.16
Mof_C 	C 	0.1998	0.3022	0.5234	0.082
Mof_C 	C 	0.08	0.1598	0.4972	0.443
Mof_C 	C 	0.4806	0.6422	0.8104	0.342
Mof_C 	C 	0.4424	0.66	0.899	-0.125
Mof_C 	C 	0.4371	0.586	0.9254	0.056
Mof_C 	C 	0.4071	0.6055	0.0108	-0.143
Mof_C 	C 	0.381	0.7024	0.0698	0.091
Mof_C 	C 	0.3817	0.7748	0.0422	-0.153
Mof_C 	C 	0.4103	0.7553	0.9568	0.052
Mof_C 	C 	0.3531	0.7269	0.1624	-0.03
Mof_C 	C 	0.1723	0.8957	0.458	0.484
Mof_C 	C 	0.2453	0.8157	0.4202	-0.156
Mof_C 	C 	0.2591	0.7766	0.3256	-0.011
Mof_C 	C 	0.3268	0.703	0.2896	0.034
Mof_C 	C 	0.3757	0.6629	0.3458	-0.012
Mof_C 	C 	0.3637	0.7029	0.44	-0.159
Mof_C 	C 	0.3002	0.7788	0.4766	0.081
Mof_C 	C 	0.42	0.6626	0.5028	0.444
Mof_C 	C 	0.9806	0.1682	0.8104	0.352
Mof_C 	C 	0.9424	0.239	0.899	-0.13
Mof_C 	C 	0.9371	0.3394	0.9254	0.063
Mof_C 	C 	0.9071	0.4053	0.0108	-0.149
Mof_C 	C 	0.881	0.3674	0.0698	0.094
Mof_C 	C 	0.8817	0.2674	0.0422	-0.156
Mof_C 	C 	0.9103	0.2015	0.9568	0.057
Mof_C 	C 	0.8531	0.4355	0.1624	-0.031
Mof_C 	C 	0.6723	0.5623	0.458	0.487
Mof_C 	C 	0.7453	0.6045	0.4202	-0.158
Mof_C 	C 	0.7591	0.549	0.3256	-0.01
Mof_C 	C 	0.8268	0.5866	0.2896	0.033
Mof_C 	C 	0.8757	0.6829	0.3458	-0.012
Mof_C 	C 	0.8637	0.7371	0.44	-0.16
Mof_C 	C 	0.8002	0.6978	0.4766	0.082
Mof_C 	C 	0.92	0.8402	0.5028	0.443
Mof_C 	C 	0.5194	0.3578	0.1896	0.342
Mof_C 	C 	0.5576	0.34	0.101	-0.125
Mof_C 	C 	0.5629	0.414	0.0746	0.056
Mof_C 	C 	0.5929	0.3945	0.9892	-0.143
Mof_C 	C 	0.619	0.2976	0.9302	0.091
Mof_C 	C 	0.6183	0.2252	0.9578	-0.153
Mof_C 	C 	0.5897	0.2447	0.0432	0.052
Mof_C 	C 	0.6469	0.2731	0.8376	-0.03
Mof_C 	C 	0.8277	0.1043	0.542	0.484
Mof_C 	C 	0.7547	0.1843	0.5798	-0.156
Mof_C 	C 	0.7409	0.2234	0.6744	-0.011
Mof_C 	C 	0.6732	0.297	0.7104	0.034
Mof_C 	C 	0.6243	0.3371	0.6542	-0.012
Mof_C 	C 	0.6363	0.2971	0.56	-0.159
Mof_C 	C 	0.6998	0.2212	0.5234	0.081
Mof_C 	C 	0.58	0.3374	0.4972	0.444
Mof_N 	N 	0.1527	0.4707	0.805	-0.109
Mof_N 	N 	0.3473	0.6657	0.195	-0.109
Mof_N 	N 	0.8473	0.5293	0.195	-0.109
Mof_N 	N 	0.6527	0.3343	0.805	-0.109
Mof_O 	O 	0.9753	0.79525	0.2319	-0.484
Mof_O 	O 	0.0329	0.92385	0.2179	-0.477
Mof_O 	O 	0.3722	0.52339	0.59758	-0.538
Mof_O 	O 	0.3365	0.38375	0.4557	-0.581
Mof_O 	O 	0.0662	0.12383	0.40926	-0.507
Mof_O 	O 	0.0496	0.10963	0.53546	-0.657
Mof_O 	O 	0.5247	0.56335	0.7681	-0.477
Mof_O 	O 	0.4671	0.70595	0.7821	-0.48
Mof_O 	O 	0.1278	0.92581	0.40242	-0.529
Mof_O 	O 	0.1635	0.92805	0.5443	-0.573
Mof_O 	O 	0.4338	0.71457	0.59074	-0.508
Mof_O 	O 	0.4504	0.57417	0.46454	-0.659
Mof_O 	O 	0.0247	0.20475	0.7681	-0.484
Mof_O 	O 	0.9671	0.07615	0.7821	-0.477
Mof_O 	O 	0.6278	0.47661	0.40242	-0.538
Mof_O 	O 	0.6635	0.61625	0.5443	-0.581
Mof_O 	O 	0.9338	0.87617	0.59074	-0.507
Mof_O 	O 	0.9504	0.89037	0.46454	-0.657
Mof_O 	O 	0.4753	0.43665	0.2319	-0.477
Mof_O 	O 	0.5329	0.29405	0.2179	-0.48
Mof_O 	O 	0.8722	0.07419	0.59758	-0.529
Mof_O 	O 	0.8365	0.07195	0.4557	-0.573
Mof_O 	O 	0.5662	0.28543	0.40926	-0.508
Mof_O 	O 	0.5496	0.42583	0.53546	-0.659
_end
