data_functionalizedCrystal
_audit_creation_method	'EQeq! by Chris Wilmer'
_symmetry_space_group_name_H-M	'P1'
_symmetry_Int_Tables_number	1
_symmetry_cell_setting	triclinic
loop_
_symmetry_equiv_pos_as_xyz
  x,y,z
_cell_length_a	18.869
_cell_length_b	18.869
_cell_length_c	38.069
_cell_angle_alpha	90
_cell_angle_beta	90
_cell_angle_gamma	120
loop_
_atom_site_label
_atom_site_type_symbol
_atom_site_fract_x
_atom_site_fract_y
_atom_site_fract_z
_atom_site_charge
Mof_C 	C 	0.09522	0.64015	0.97404	0.415
Mof_C 	C 	0.15345	0.71971	0.95716	-0.128
Mof_C 	C 	0.13842	0.73535	0.92297	-0.004
Mof_H 	H 	0.0906	0.6974	0.9117	0.038
Mof_C 	C 	0.2377	0.8424	0.84347	-0.088
Mof_H 	H 	0.2877	0.8484	0.8504	0.056
Mof_C 	C 	0.1062	0.8118	0.85842	0.07
Mof_O 	O 	0.11246	0.62992	0.0051	-0.487
Mof_O 	O 	0.03473	0.59172	0.95688	-0.499
Mof_N 	N 	0.0385	0.8014	0.8832	-0.288
Mof_H 	H 	0.0453	0.8017	0.9056	0.138
Mof_H 	H 	0.9934	0.7953	0.8749	0.13
Mof_C 	C 	0.76189	0.97348	0.30737	0.414
Mof_C 	C 	0.82012	0.05304	0.29049	-0.127
Mof_C 	C 	0.80509	0.06868	0.2563	-0.004
Mof_H 	H 	0.75727	0.03073	0.24503	0.039
Mof_C 	C 	0.90437	0.17573	0.1768	-0.087
Mof_H 	H 	0.95437	0.18173	0.18373	0.057
Mof_C 	C 	0.77287	0.14513	0.19175	0.072
Mof_O 	O 	0.77913	0.96325	0.33843	-0.485
Mof_O 	O 	0.7014	0.92505	0.29021	-0.498
Mof_N 	N 	0.70517	0.13473	0.21653	-0.287
Mof_H 	H 	0.71197	0.13503	0.23893	0.139
Mof_H 	H 	0.66007	0.12863	0.20823	0.132
Mof_C 	C 	0.42855	0.30682	0.64071	0.416
Mof_C 	C 	0.48678	0.38638	0.62383	-0.127
Mof_C 	C 	0.47175	0.40202	0.58964	-0.003
Mof_H 	H 	0.42393	0.36407	0.57837	0.039
Mof_C 	C 	0.57103	0.50907	0.51014	-0.087
Mof_H 	H 	0.62103	0.51507	0.51707	0.057
Mof_C 	C 	0.43953	0.47847	0.52509	0.071
Mof_O 	O 	0.44579	0.29659	0.67177	-0.485
Mof_O 	O 	0.36806	0.25839	0.62355	-0.498
Mof_N 	N 	0.37183	0.46807	0.54987	-0.287
Mof_H 	H 	0.37863	0.46837	0.57227	0.139
Mof_H 	H 	0.32673	0.46197	0.54157	0.131
Mof_C 	C 	0.35985	0.45507	0.97404	0.416
Mof_C 	C 	0.28029	0.43374	0.95716	-0.127
Mof_C 	C 	0.26465	0.40307	0.92297	-0.003
Mof_H 	H 	0.3026	0.3932	0.9117	0.038
Mof_C 	C 	0.1576	0.3953	0.84347	-0.087
Mof_H 	H 	0.1516	0.4393	0.8504	0.057
Mof_C 	C 	0.1882	0.2944	0.85842	0.071
Mof_O 	O 	0.37008	0.48254	0.0051	-0.485
Mof_O 	O 	0.40828	0.44301	0.95688	-0.498
Mof_N 	N 	0.1986	0.2371	0.8832	-0.287
Mof_H 	H 	0.1983	0.2436	0.9056	0.139
Mof_H 	H 	0.2047	0.1981	0.8749	0.131
Mof_C 	C 	0.02652	0.7884	0.30737	0.415
Mof_C 	C 	0.94696	0.76707	0.29049	-0.126
Mof_C 	C 	0.93132	0.7364	0.2563	-0.003
Mof_H 	H 	0.96927	0.72653	0.24503	0.039
Mof_C 	C 	0.82427	0.72863	0.1768	-0.087
Mof_H 	H 	0.81827	0.77263	0.18373	0.057
Mof_C 	C 	0.85487	0.62773	0.19175	0.072
Mof_O 	O 	0.03675	0.81587	0.33843	-0.485
Mof_O 	O 	0.07495	0.77634	0.29021	-0.498
Mof_N 	N 	0.86527	0.57043	0.21653	-0.287
Mof_H 	H 	0.86497	0.57693	0.23893	0.139
Mof_H 	H 	0.87137	0.53143	0.20823	0.132
Mof_C 	C 	0.69318	0.12174	0.64071	0.416
Mof_C 	C 	0.61362	0.10041	0.62383	-0.127
Mof_C 	C 	0.59798	0.06974	0.58964	-0.003
Mof_H 	H 	0.63593	0.05987	0.57837	0.038
Mof_C 	C 	0.49093	0.06197	0.51014	-0.087
Mof_H 	H 	0.48493	0.10597	0.51707	0.057
Mof_C 	C 	0.52153	0.96107	0.52509	0.072
Mof_O 	O 	0.70341	0.14921	0.67177	-0.485
Mof_O 	O 	0.74161	0.10968	0.62355	-0.498
Mof_N 	N 	0.53193	0.90377	0.54987	-0.287
Mof_H 	H 	0.53163	0.91027	0.57227	0.139
Mof_H 	H 	0.53803	0.86477	0.54157	0.131
Mof_C 	C 	0.54493	0.90478	0.97404	0.416
Mof_C 	C 	0.56626	0.84655	0.95716	-0.127
Mof_C 	C 	0.59693	0.86158	0.92297	-0.003
Mof_H 	H 	0.6068	0.9094	0.9117	0.039
Mof_C 	C 	0.6047	0.7623	0.84347	-0.087
Mof_H 	H 	0.5607	0.7123	0.8504	0.057
Mof_C 	C 	0.7056	0.8938	0.85842	0.071
Mof_O 	O 	0.51746	0.88754	0.0051	-0.485
Mof_O 	O 	0.55699	0.96527	0.95688	-0.498
Mof_N 	N 	0.7629	0.9615	0.8832	-0.287
Mof_H 	H 	0.7564	0.9547	0.9056	0.139
Mof_H 	H 	0.8019	0.0066	0.8749	0.131
Mof_C 	C 	0.2116	0.23811	0.30737	0.416
Mof_C 	C 	0.23293	0.17988	0.29049	-0.127
Mof_C 	C 	0.2636	0.19491	0.2563	-0.003
Mof_H 	H 	0.27347	0.24273	0.24503	0.039
Mof_C 	C 	0.27137	0.09563	0.1768	-0.087
Mof_H 	H 	0.22737	0.04563	0.18373	0.057
Mof_C 	C 	0.37227	0.22713	0.19175	0.071
Mof_O 	O 	0.18413	0.22087	0.33843	-0.485
Mof_O 	O 	0.22366	0.2986	0.29021	-0.498
Mof_N 	N 	0.42957	0.29483	0.21653	-0.287
Mof_H 	H 	0.42307	0.28803	0.23893	0.139
Mof_H 	H 	0.46857	0.33993	0.20823	0.131
Mof_C 	C 	0.87826	0.57145	0.64071	0.416
Mof_C 	C 	0.89959	0.51322	0.62383	-0.127
Mof_C 	C 	0.93026	0.52825	0.58964	-0.003
Mof_H 	H 	0.94013	0.57607	0.57837	0.038
Mof_C 	C 	0.93803	0.42897	0.51014	-0.087
Mof_H 	H 	0.89403	0.37897	0.51707	0.057
Mof_C 	C 	0.03893	0.56047	0.52509	0.072
Mof_O 	O 	0.85079	0.55421	0.67177	-0.485
Mof_O 	O 	0.89032	0.63194	0.62355	-0.498
Mof_N 	N 	0.09623	0.62817	0.54987	-0.287
Mof_H 	H 	0.08973	0.62137	0.57227	0.139
Mof_H 	H 	0.13523	0.67327	0.54157	0.131
Mof_C 	C 	0.64015	0.09522	0.02596	0.416
Mof_C 	C 	0.71971	0.15345	0.04284	-0.127
Mof_C 	C 	0.73535	0.13842	0.07703	-0.003
Mof_H 	H 	0.6974	0.0906	0.0883	0.039
Mof_C 	C 	0.8424	0.2377	0.15653	-0.087
Mof_H 	H 	0.8484	0.2877	0.1496	0.057
Mof_C 	C 	0.8118	0.1062	0.14158	0.071
Mof_O 	O 	0.62992	0.11246	0.9949	-0.486
Mof_O 	O 	0.59172	0.03473	0.04312	-0.498
Mof_N 	N 	0.8014	0.0385	0.1168	-0.287
Mof_H 	H 	0.8017	0.0453	0.0944	0.139
Mof_H 	H 	0.7953	0.9934	0.1251	0.131
Mof_C 	C 	0.30682	0.42855	0.35929	0.416
Mof_C 	C 	0.38638	0.48678	0.37617	-0.127
Mof_C 	C 	0.40202	0.47175	0.41036	-0.003
Mof_H 	H 	0.36407	0.42393	0.42163	0.039
Mof_C 	C 	0.50907	0.57103	0.48986	-0.087
Mof_H 	H 	0.51507	0.62103	0.48293	0.057
Mof_C 	C 	0.47847	0.43953	0.47491	0.071
Mof_O 	O 	0.29659	0.44579	0.32823	-0.485
Mof_O 	O 	0.25839	0.36806	0.37645	-0.498
Mof_N 	N 	0.46807	0.37183	0.45013	-0.287
Mof_H 	H 	0.46837	0.37863	0.42773	0.139
Mof_H 	H 	0.46197	0.32673	0.45843	0.131
Mof_C 	C 	0.97348	0.76189	0.69263	0.415
Mof_C 	C 	0.05304	0.82012	0.70951	-0.126
Mof_C 	C 	0.06868	0.80509	0.7437	-0.004
Mof_H 	H 	0.03073	0.75727	0.75497	0.039
Mof_C 	C 	0.17573	0.90437	0.8232	-0.087
Mof_H 	H 	0.18173	0.95437	0.81627	0.057
Mof_C 	C 	0.14513	0.77287	0.80825	0.072
Mof_O 	O 	0.96325	0.77913	0.66157	-0.485
Mof_O 	O 	0.92505	0.7014	0.70979	-0.498
Mof_N 	N 	0.13473	0.70517	0.78347	-0.287
Mof_H 	H 	0.13503	0.71197	0.76107	0.139
Mof_H 	H 	0.12863	0.66007	0.79177	0.132
Mof_C 	C 	0.45507	0.35985	0.02596	0.416
Mof_C 	C 	0.43374	0.28029	0.04284	-0.127
Mof_C 	C 	0.40307	0.26465	0.07703	-0.003
Mof_H 	H 	0.3932	0.3026	0.0883	0.038
Mof_C 	C 	0.3953	0.1576	0.15653	-0.087
Mof_H 	H 	0.4393	0.1516	0.1496	0.057
Mof_C 	C 	0.2944	0.1882	0.14158	0.071
Mof_O 	O 	0.48254	0.37008	0.9949	-0.485
Mof_O 	O 	0.44301	0.40828	0.04312	-0.498
Mof_N 	N 	0.2371	0.1986	0.1168	-0.287
Mof_H 	H 	0.2436	0.1983	0.0944	0.139
Mof_H 	H 	0.1981	0.2047	0.1251	0.131
Mof_C 	C 	0.12174	0.69318	0.35929	0.416
Mof_C 	C 	0.10041	0.61362	0.37617	-0.127
Mof_C 	C 	0.06974	0.59798	0.41036	-0.003
Mof_H 	H 	0.05987	0.63593	0.42163	0.038
Mof_C 	C 	0.06197	0.49093	0.48986	-0.087
Mof_H 	H 	0.10597	0.48493	0.48293	0.057
Mof_C 	C 	0.96107	0.52153	0.47491	0.072
Mof_O 	O 	0.14921	0.70341	0.32823	-0.485
Mof_O 	O 	0.10968	0.74161	0.37645	-0.498
Mof_N 	N 	0.90377	0.53193	0.45013	-0.287
Mof_H 	H 	0.91027	0.53163	0.42773	0.139
Mof_H 	H 	0.86477	0.53803	0.45843	0.131
Mof_C 	C 	0.7884	0.02652	0.69263	0.415
Mof_C 	C 	0.76707	0.94696	0.70951	-0.126
Mof_C 	C 	0.7364	0.93132	0.7437	-0.003
Mof_H 	H 	0.72653	0.96927	0.75497	0.039
Mof_C 	C 	0.72863	0.82427	0.8232	-0.087
Mof_H 	H 	0.77263	0.81827	0.81627	0.057
Mof_C 	C 	0.62773	0.85487	0.80825	0.072
Mof_O 	O 	0.81587	0.03675	0.66157	-0.485
Mof_O 	O 	0.77634	0.07495	0.70979	-0.498
Mof_N 	N 	0.57043	0.86527	0.78347	-0.287
Mof_H 	H 	0.57693	0.86497	0.76107	0.139
Mof_H 	H 	0.53143	0.87137	0.79177	0.132
Mof_C 	C 	0.90478	0.54493	0.02596	0.416
Mof_C 	C 	0.84655	0.56626	0.04284	-0.127
Mof_C 	C 	0.86158	0.59693	0.07703	-0.003
Mof_H 	H 	0.9094	0.6068	0.0883	0.039
Mof_C 	C 	0.7623	0.6047	0.15653	-0.087
Mof_H 	H 	0.7123	0.5607	0.1496	0.057
Mof_C 	C 	0.8938	0.7056	0.14158	0.071
Mof_O 	O 	0.88754	0.51746	0.9949	-0.485
Mof_O 	O 	0.96527	0.55699	0.04312	-0.498
Mof_N 	N 	0.9615	0.7629	0.1168	-0.287
Mof_H 	H 	0.9547	0.7564	0.0944	0.139
Mof_H 	H 	0.0066	0.8019	0.1251	0.131
Mof_C 	C 	0.57145	0.87826	0.35929	0.416
Mof_C 	C 	0.51322	0.89959	0.37617	-0.127
Mof_C 	C 	0.52825	0.93026	0.41036	-0.003
Mof_H 	H 	0.57607	0.94013	0.42163	0.038
Mof_C 	C 	0.42897	0.93803	0.48986	-0.087
Mof_H 	H 	0.37897	0.89403	0.48293	0.057
Mof_C 	C 	0.56047	0.03893	0.47491	0.072
Mof_O 	O 	0.55421	0.85079	0.32823	-0.485
Mof_O 	O 	0.63194	0.89032	0.37645	-0.498
Mof_N 	N 	0.62817	0.09623	0.45013	-0.287
Mof_H 	H 	0.62137	0.08973	0.42773	0.139
Mof_H 	H 	0.67327	0.13523	0.45843	0.131
Mof_C 	C 	0.23811	0.2116	0.69263	0.416
Mof_C 	C 	0.17988	0.23293	0.70951	-0.127
Mof_C 	C 	0.19491	0.2636	0.7437	-0.003
Mof_H 	H 	0.24273	0.27347	0.75497	0.039
Mof_C 	C 	0.09563	0.27137	0.8232	-0.087
Mof_H 	H 	0.04563	0.22737	0.81627	0.057
Mof_C 	C 	0.22713	0.37227	0.80825	0.071
Mof_O 	O 	0.22087	0.18413	0.66157	-0.485
Mof_O 	O 	0.2986	0.22366	0.70979	-0.498
Mof_N 	N 	0.29483	0.42957	0.78347	-0.287
Mof_H 	H 	0.28803	0.42307	0.76107	0.139
Mof_H 	H 	0.33993	0.46857	0.79177	0.131
Mof_C 	C 	0.90478	0.35985	0.02596	0.416
Mof_C 	C 	0.84655	0.28029	0.04284	-0.127
Mof_C 	C 	0.86158	0.26465	0.07703	-0.003
Mof_H 	H 	0.9094	0.3026	0.0883	0.039
Mof_C 	C 	0.7623	0.1576	0.15653	-0.087
Mof_H 	H 	0.7123	0.1516	0.1496	0.057
Mof_C 	C 	0.8938	0.1882	0.14158	0.071
Mof_O 	O 	0.88754	0.37008	0.9949	-0.486
Mof_O 	O 	0.96527	0.40828	0.04312	-0.498
Mof_N 	N 	0.9615	0.1986	0.1168	-0.287
Mof_H 	H 	0.9547	0.1983	0.0944	0.139
Mof_H 	H 	0.0066	0.2047	0.1251	0.131
Mof_C 	C 	0.57145	0.69318	0.35929	0.416
Mof_C 	C 	0.51322	0.61362	0.37617	-0.127
Mof_C 	C 	0.52825	0.59798	0.41036	-0.003
Mof_H 	H 	0.57607	0.63593	0.42163	0.039
Mof_C 	C 	0.42897	0.49093	0.48986	-0.087
Mof_H 	H 	0.37897	0.48493	0.48293	0.057
Mof_C 	C 	0.56047	0.52153	0.47491	0.071
Mof_O 	O 	0.55421	0.70341	0.32823	-0.485
Mof_O 	O 	0.63194	0.74161	0.37645	-0.498
Mof_N 	N 	0.62817	0.53193	0.45013	-0.287
Mof_H 	H 	0.62137	0.53163	0.42773	0.139
Mof_H 	H 	0.67327	0.53803	0.45843	0.131
Mof_C 	C 	0.23811	0.02652	0.69263	0.415
Mof_C 	C 	0.17988	0.94696	0.70951	-0.126
Mof_C 	C 	0.19491	0.93132	0.7437	-0.004
Mof_H 	H 	0.24273	0.96927	0.75497	0.039
Mof_C 	C 	0.09563	0.82427	0.8232	-0.087
Mof_H 	H 	0.04563	0.81827	0.81627	0.057
Mof_C 	C 	0.22713	0.85487	0.80825	0.072
Mof_O 	O 	0.22087	0.03675	0.66157	-0.485
Mof_O 	O 	0.2986	0.07495	0.70979	-0.498
Mof_N 	N 	0.29483	0.86527	0.78347	-0.287
Mof_H 	H 	0.28803	0.86497	0.76107	0.139
Mof_H 	H 	0.33993	0.87137	0.79177	0.132
Mof_C 	C 	0.64015	0.54493	0.02596	0.416
Mof_C 	C 	0.71971	0.56626	0.04284	-0.127
Mof_C 	C 	0.73535	0.59693	0.07703	-0.003
Mof_H 	H 	0.6974	0.6068	0.0883	0.038
Mof_C 	C 	0.8424	0.6047	0.15653	-0.087
Mof_H 	H 	0.8484	0.5607	0.1496	0.057
Mof_C 	C 	0.8118	0.7056	0.14158	0.071
Mof_O 	O 	0.62992	0.51746	0.9949	-0.485
Mof_O 	O 	0.59172	0.55699	0.04312	-0.498
Mof_N 	N 	0.8014	0.7629	0.1168	-0.287
Mof_H 	H 	0.8017	0.7564	0.0944	0.139
Mof_H 	H 	0.7953	0.8019	0.1251	0.131
Mof_C 	C 	0.30682	0.87826	0.35929	0.416
Mof_C 	C 	0.38638	0.89959	0.37617	-0.127
Mof_C 	C 	0.40202	0.93026	0.41036	-0.003
Mof_H 	H 	0.36407	0.94013	0.42163	0.038
Mof_C 	C 	0.50907	0.93803	0.48986	-0.087
Mof_H 	H 	0.51507	0.89403	0.48293	0.057
Mof_C 	C 	0.47847	0.03893	0.47491	0.072
Mof_O 	O 	0.29659	0.85079	0.32823	-0.485
Mof_O 	O 	0.25839	0.89032	0.37645	-0.498
Mof_N 	N 	0.46807	0.09623	0.45013	-0.287
Mof_H 	H 	0.46837	0.08973	0.42773	0.139
Mof_H 	H 	0.46197	0.13523	0.45843	0.131
Mof_C 	C 	0.97348	0.2116	0.69263	0.415
Mof_C 	C 	0.05304	0.23293	0.70951	-0.126
Mof_C 	C 	0.06868	0.2636	0.7437	-0.003
Mof_H 	H 	0.03073	0.27347	0.75497	0.039
Mof_C 	C 	0.17573	0.27137	0.8232	-0.087
Mof_H 	H 	0.18173	0.22737	0.81627	0.057
Mof_C 	C 	0.14513	0.37227	0.80825	0.072
Mof_O 	O 	0.96325	0.18413	0.66157	-0.485
Mof_O 	O 	0.92505	0.22366	0.70979	-0.498
Mof_N 	N 	0.13473	0.42957	0.78347	-0.287
Mof_H 	H 	0.13503	0.42307	0.76107	0.139
Mof_H 	H 	0.12863	0.46857	0.79177	0.132
Mof_C 	C 	0.45507	0.09522	0.02596	0.416
Mof_C 	C 	0.43374	0.15345	0.04284	-0.127
Mof_C 	C 	0.40307	0.13842	0.07703	-0.003
Mof_H 	H 	0.3932	0.0906	0.0883	0.039
Mof_C 	C 	0.3953	0.2377	0.15653	-0.087
Mof_H 	H 	0.4393	0.2877	0.1496	0.057
Mof_C 	C 	0.2944	0.1062	0.14158	0.071
Mof_O 	O 	0.48254	0.11246	0.9949	-0.486
Mof_O 	O 	0.44301	0.03473	0.04312	-0.498
Mof_N 	N 	0.2371	0.0385	0.1168	-0.287
Mof_H 	H 	0.2436	0.0453	0.0944	0.139
Mof_H 	H 	0.1981	0.9934	0.1251	0.131
Mof_C 	C 	0.12174	0.42855	0.35929	0.416
Mof_C 	C 	0.10041	0.48678	0.37617	-0.127
Mof_C 	C 	0.06974	0.47175	0.41036	-0.003
Mof_H 	H 	0.05987	0.42393	0.42163	0.038
Mof_C 	C 	0.06197	0.57103	0.48986	-0.087
Mof_H 	H 	0.10597	0.62103	0.48293	0.057
Mof_C 	C 	0.96107	0.43953	0.47491	0.072
Mof_O 	O 	0.14921	0.44579	0.32823	-0.485
Mof_O 	O 	0.10968	0.36806	0.37645	-0.498
Mof_N 	N 	0.90377	0.37183	0.45013	-0.287
Mof_H 	H 	0.91027	0.37863	0.42773	0.139
Mof_H 	H 	0.86477	0.32673	0.45843	0.131
Mof_C 	C 	0.7884	0.76189	0.69263	0.416
Mof_C 	C 	0.76707	0.82012	0.70951	-0.127
Mof_C 	C 	0.7364	0.80509	0.7437	-0.003
Mof_H 	H 	0.72653	0.75727	0.75497	0.039
Mof_C 	C 	0.72863	0.90437	0.8232	-0.087
Mof_H 	H 	0.77263	0.95437	0.81627	0.057
Mof_C 	C 	0.62773	0.77287	0.80825	0.071
Mof_O 	O 	0.81587	0.77913	0.66157	-0.485
Mof_O 	O 	0.77634	0.7014	0.70979	-0.498
Mof_N 	N 	0.57043	0.70517	0.78347	-0.287
Mof_H 	H 	0.57693	0.71197	0.76107	0.139
Mof_H 	H 	0.53143	0.66007	0.79177	0.131
Mof_C 	C 	0.35985	0.90478	0.97404	0.416
Mof_C 	C 	0.28029	0.84655	0.95716	-0.127
Mof_C 	C 	0.26465	0.86158	0.92297	-0.003
Mof_H 	H 	0.3026	0.9094	0.9117	0.039
Mof_C 	C 	0.1576	0.7623	0.84347	-0.087
Mof_H 	H 	0.1516	0.7123	0.8504	0.057
Mof_C 	C 	0.1882	0.8938	0.85842	0.071
Mof_O 	O 	0.37008	0.88754	0.0051	-0.486
Mof_O 	O 	0.40828	0.96527	0.95688	-0.498
Mof_N 	N 	0.1986	0.9615	0.8832	-0.287
Mof_H 	H 	0.1983	0.9547	0.9056	0.139
Mof_H 	H 	0.2047	0.0066	0.8749	0.131
Mof_C 	C 	0.02652	0.23811	0.30737	0.415
Mof_C 	C 	0.94696	0.17988	0.29049	-0.126
Mof_C 	C 	0.93132	0.19491	0.2563	-0.004
Mof_H 	H 	0.96927	0.24273	0.24503	0.039
Mof_C 	C 	0.82427	0.09563	0.1768	-0.087
Mof_H 	H 	0.81827	0.04563	0.18373	0.057
Mof_C 	C 	0.85487	0.22713	0.19175	0.072
Mof_O 	O 	0.03675	0.22087	0.33843	-0.485
Mof_O 	O 	0.07495	0.2986	0.29021	-0.498
Mof_N 	N 	0.86527	0.29483	0.21653	-0.287
Mof_H 	H 	0.86497	0.28803	0.23893	0.139
Mof_H 	H 	0.87137	0.33993	0.20823	0.132
Mof_C 	C 	0.69318	0.57145	0.64071	0.416
Mof_C 	C 	0.61362	0.51322	0.62383	-0.127
Mof_C 	C 	0.59798	0.52825	0.58964	-0.003
Mof_H 	H 	0.63593	0.57607	0.57837	0.039
Mof_C 	C 	0.49093	0.42897	0.51014	-0.087
Mof_H 	H 	0.48493	0.37897	0.51707	0.057
Mof_C 	C 	0.52153	0.56047	0.52509	0.071
Mof_O 	O 	0.70341	0.55421	0.67177	-0.485
Mof_O 	O 	0.74161	0.63194	0.62355	-0.498
Mof_N 	N 	0.53193	0.62817	0.54987	-0.287
Mof_H 	H 	0.53163	0.62137	0.57227	0.139
Mof_H 	H 	0.53803	0.67327	0.54157	0.131
Mof_C 	C 	0.54493	0.64015	0.97404	0.416
Mof_C 	C 	0.56626	0.71971	0.95716	-0.127
Mof_C 	C 	0.59693	0.73535	0.92297	-0.003
Mof_H 	H 	0.6068	0.6974	0.9117	0.038
Mof_C 	C 	0.6047	0.8424	0.84347	-0.087
Mof_H 	H 	0.5607	0.8484	0.8504	0.057
Mof_C 	C 	0.7056	0.8118	0.85842	0.071
Mof_O 	O 	0.51746	0.62992	0.0051	-0.485
Mof_O 	O 	0.55699	0.59172	0.95688	-0.498
Mof_N 	N 	0.7629	0.8014	0.8832	-0.287
Mof_H 	H 	0.7564	0.8017	0.9056	0.139
Mof_H 	H 	0.8019	0.7953	0.8749	0.131
Mof_C 	C 	0.2116	0.97348	0.30737	0.415
Mof_C 	C 	0.23293	0.05304	0.29049	-0.126
Mof_C 	C 	0.2636	0.06868	0.2563	-0.003
Mof_H 	H 	0.27347	0.03073	0.24503	0.039
Mof_C 	C 	0.27137	0.17573	0.1768	-0.087
Mof_H 	H 	0.22737	0.18173	0.18373	0.057
Mof_C 	C 	0.37227	0.14513	0.19175	0.072
Mof_O 	O 	0.18413	0.96325	0.33843	-0.485
Mof_O 	O 	0.22366	0.92505	0.29021	-0.498
Mof_N 	N 	0.42957	0.13473	0.21653	-0.287
Mof_H 	H 	0.42307	0.13503	0.23893	0.139
Mof_H 	H 	0.46857	0.12863	0.20823	0.132
Mof_C 	C 	0.87826	0.30682	0.64071	0.416
Mof_C 	C 	0.89959	0.38638	0.62383	-0.127
Mof_C 	C 	0.93026	0.40202	0.58964	-0.003
Mof_H 	H 	0.94013	0.36407	0.57837	0.038
Mof_C 	C 	0.93803	0.50907	0.51014	-0.087
Mof_H 	H 	0.89403	0.51507	0.51707	0.057
Mof_C 	C 	0.03893	0.47847	0.52509	0.072
Mof_O 	O 	0.85079	0.29659	0.67177	-0.485
Mof_O 	O 	0.89032	0.25839	0.62355	-0.498
Mof_N 	N 	0.09623	0.46807	0.54987	-0.287
Mof_H 	H 	0.08973	0.46837	0.57227	0.139
Mof_H 	H 	0.13523	0.46197	0.54157	0.131
Mof_C 	C 	0.09522	0.45507	0.97404	0.416
Mof_C 	C 	0.15345	0.43374	0.95716	-0.127
Mof_C 	C 	0.13842	0.40307	0.92297	-0.003
Mof_H 	H 	0.0906	0.3932	0.9117	0.039
Mof_C 	C 	0.2377	0.3953	0.84347	-0.087
Mof_H 	H 	0.2877	0.4393	0.8504	0.057
Mof_C 	C 	0.1062	0.2944	0.85842	0.071
Mof_O 	O 	0.11246	0.48254	0.0051	-0.486
Mof_O 	O 	0.03473	0.44301	0.95688	-0.498
Mof_N 	N 	0.0385	0.2371	0.8832	-0.287
Mof_H 	H 	0.0453	0.2436	0.9056	0.139
Mof_H 	H 	0.9934	0.1981	0.8749	0.131
Mof_C 	C 	0.76189	0.7884	0.30737	0.416
Mof_C 	C 	0.82012	0.76707	0.29049	-0.127
Mof_C 	C 	0.80509	0.7364	0.2563	-0.003
Mof_H 	H 	0.75727	0.72653	0.24503	0.039
Mof_C 	C 	0.90437	0.72863	0.1768	-0.087
Mof_H 	H 	0.95437	0.77263	0.18373	0.057
Mof_C 	C 	0.77287	0.62773	0.19175	0.071
Mof_O 	O 	0.77913	0.81587	0.33843	-0.485
Mof_O 	O 	0.7014	0.77634	0.29021	-0.498
Mof_N 	N 	0.70517	0.57043	0.21653	-0.287
Mof_H 	H 	0.71197	0.57693	0.23893	0.139
Mof_H 	H 	0.66007	0.53143	0.20823	0.131
Mof_C 	C 	0.42855	0.12174	0.64071	0.416
Mof_C 	C 	0.48678	0.10041	0.62383	-0.127
Mof_C 	C 	0.47175	0.06974	0.58964	-0.003
Mof_H 	H 	0.42393	0.05987	0.57837	0.038
Mof_C 	C 	0.57103	0.06197	0.51014	-0.087
Mof_H 	H 	0.62103	0.10597	0.51707	0.057
Mof_C 	C 	0.43953	0.96107	0.52509	0.072
Mof_O 	O 	0.44579	0.14921	0.67177	-0.485
Mof_O 	O 	0.36806	0.10968	0.62355	-0.498
Mof_N 	N 	0.37183	0.90377	0.54987	-0.287
Mof_H 	H 	0.37863	0.91027	0.57227	0.139
Mof_H 	H 	0.32673	0.86477	0.54157	0.131
Mof_C 	C 	0.19348	0.80652	0.90544	-0.017
Mof_C 	C 	0.17826	0.82174	0.8684	-0.005
Mof_C 	C 	0.22399	0.77601	0.97434	0.062
Mof_H 	H 	0.2335	0.7665	0.9974	0.029
Mof_C 	C 	0.86015	0.13985	0.23877	-0.017
Mof_C 	C 	0.84493	0.15507	0.20173	-0.005
Mof_C 	C 	0.89066	0.10934	0.30767	0.061
Mof_H 	H 	0.90017	0.09983	0.33073	0.029
Mof_C 	C 	0.52681	0.47319	0.57211	-0.017
Mof_C 	C 	0.51159	0.48841	0.53507	-0.005
Mof_C 	C 	0.55732	0.44268	0.64101	0.062
Mof_H 	H 	0.56683	0.43317	0.66407	0.029
Mof_C 	C 	0.19348	0.38696	0.90544	-0.017
Mof_C 	C 	0.17826	0.35652	0.8684	-0.005
Mof_C 	C 	0.22399	0.44798	0.97434	0.062
Mof_H 	H 	0.2335	0.467	0.9974	0.029
Mof_C 	C 	0.86015	0.72029	0.23877	-0.017
Mof_C 	C 	0.84493	0.68985	0.20173	-0.005
Mof_C 	C 	0.89066	0.78131	0.30767	0.061
Mof_H 	H 	0.90017	0.80033	0.33073	0.029
Mof_C 	C 	0.52681	0.05363	0.57211	-0.017
Mof_C 	C 	0.51159	0.02319	0.53507	-0.005
Mof_C 	C 	0.55732	0.11465	0.64101	0.062
Mof_H 	H 	0.56683	0.13367	0.66407	0.029
Mof_C 	C 	0.61304	0.80652	0.90544	-0.017
Mof_C 	C 	0.64348	0.82174	0.8684	-0.005
Mof_C 	C 	0.55202	0.77601	0.97434	0.062
Mof_H 	H 	0.533	0.7665	0.9974	0.029
Mof_C 	C 	0.27971	0.13985	0.23877	-0.017
Mof_C 	C 	0.31015	0.15507	0.20173	-0.005
Mof_C 	C 	0.21869	0.10934	0.30767	0.061
Mof_H 	H 	0.19967	0.09983	0.33073	0.029
Mof_C 	C 	0.94637	0.47319	0.57211	-0.017
Mof_C 	C 	0.97681	0.48841	0.53507	-0.005
Mof_C 	C 	0.88535	0.44268	0.64101	0.062
Mof_H 	H 	0.86633	0.43317	0.66407	0.029
Mof_C 	C 	0.80652	0.19348	0.09456	-0.017
Mof_C 	C 	0.82174	0.17826	0.1316	-0.005
Mof_C 	C 	0.77601	0.22399	0.02566	0.062
Mof_H 	H 	0.7665	0.2335	0.0026	0.029
Mof_C 	C 	0.47319	0.52681	0.42789	-0.017
Mof_C 	C 	0.48841	0.51159	0.46493	-0.005
Mof_C 	C 	0.44268	0.55732	0.35899	0.062
Mof_H 	H 	0.43317	0.56683	0.33593	0.029
Mof_C 	C 	0.13985	0.86015	0.76123	-0.017
Mof_C 	C 	0.15507	0.84493	0.79827	-0.005
Mof_C 	C 	0.10934	0.89066	0.69233	0.061
Mof_H 	H 	0.09983	0.90017	0.66927	0.029
Mof_C 	C 	0.38696	0.19348	0.09456	-0.017
Mof_C 	C 	0.35652	0.17826	0.1316	-0.005
Mof_C 	C 	0.44798	0.22399	0.02566	0.062
Mof_H 	H 	0.467	0.2335	0.0026	0.029
Mof_C 	C 	0.05363	0.52681	0.42789	-0.017
Mof_C 	C 	0.02319	0.51159	0.46493	-0.005
Mof_C 	C 	0.11465	0.55732	0.35899	0.062
Mof_H 	H 	0.13367	0.56683	0.33593	0.029
Mof_C 	C 	0.72029	0.86015	0.76123	-0.017
Mof_C 	C 	0.68985	0.84493	0.79827	-0.005
Mof_C 	C 	0.78131	0.89066	0.69233	0.061
Mof_H 	H 	0.80033	0.90017	0.66927	0.029
Mof_C 	C 	0.80652	0.61304	0.09456	-0.017
Mof_C 	C 	0.82174	0.64348	0.1316	-0.005
Mof_C 	C 	0.77601	0.55202	0.02566	0.062
Mof_H 	H 	0.7665	0.533	0.0026	0.029
Mof_C 	C 	0.47319	0.94637	0.42789	-0.017
Mof_C 	C 	0.48841	0.97681	0.46493	-0.005
Mof_C 	C 	0.44268	0.88535	0.35899	0.062
Mof_H 	H 	0.43317	0.86633	0.33593	0.029
Mof_C 	C 	0.13985	0.27971	0.76123	-0.017
Mof_C 	C 	0.15507	0.31015	0.79827	-0.005
Mof_C 	C 	0.10934	0.21869	0.69233	0.061
Mof_H 	H 	0.09983	0.19967	0.66927	0.029
Mof_Zn	Zn	0.05117	0.52558	0.03275	1.2
Mof_Zn	Zn	0.71784	0.85892	0.36608	1.2
Mof_Zn	Zn	0.3845	0.19225	0.69941	1.2
Mof_Zn	Zn	0.47441	0.52558	0.03275	1.2
Mof_Zn	Zn	0.14108	0.85892	0.36608	1.2
Mof_Zn	Zn	0.80775	0.19225	0.69941	1.2
Mof_Zn	Zn	0.47441	0.94883	0.03275	1.2
Mof_Zn	Zn	0.14108	0.28216	0.36608	1.2
Mof_Zn	Zn	0.80775	0.6155	0.69941	1.2
Mof_Zn	Zn	0.52558	0.05117	0.96725	1.2
Mof_Zn	Zn	0.19225	0.3845	0.30059	1.2
Mof_Zn	Zn	0.85892	0.71784	0.63392	1.2
Mof_Zn	Zn	0.52558	0.47441	0.96725	1.2
Mof_Zn	Zn	0.19225	0.80775	0.30059	1.2
Mof_Zn	Zn	0.85892	0.14108	0.63392	1.2
Mof_Zn	Zn	0.94883	0.47441	0.96725	1.2
Mof_Zn	Zn	0.6155	0.80775	0.30059	1.2
Mof_Zn	Zn	0.28216	0.14108	0.63392	1.2
_end
