data_functionalizedCrystal
_audit_creation_method	'EQeq! by Chris Wilmer'
_symmetry_space_group_name_H-M	'P1'
_symmetry_Int_Tables_number	1
_symmetry_cell_setting	triclinic
loop_
_symmetry_equiv_pos_as_xyz
  x,y,z
_cell_length_a	23.4069
_cell_length_b	23.4069
_cell_length_c	23.4069
_cell_angle_alpha	109.471
_cell_angle_beta	109.471
_cell_angle_gamma	109.471
loop_
_atom_site_label
_atom_site_type_symbol
_atom_site_fract_x
_atom_site_fract_y
_atom_site_fract_z
_atom_site_charge
Mof_Pr	Pr	0.1696	0.1696	0.6696	2.677
Mof_Pr	Pr	6.90952e-17	0.5	0.8304	2.377
Mof_Pr	Pr	0.5	0.3304	0.5	2.666
Mof_Pr	Pr	0.3304	0	-0	2.034
Mof_Pr	Pr	0.8304	0.8304	0.3304	2.686
Mof_Pr	Pr	-1.72738e-17	0.5	0.1696	2.259
Mof_Pr	Pr	0.5	0.6696	0.5	2.669
Mof_Pr	Pr	0.6696	0	-0	2.047
Mof_Pr	Pr	0.5	0	-0	1.915
Mof_Pr	Pr	0.5	0.5	0.5	2.491
Mof_Pr	Pr	2.30317e-17	0.5	-0	1.858
Mof_Pr	Pr	-2.30317e-17	0	0.5	1.867
Mof_H 	H 	0.3798	0.1374	0.9488	0.1
Mof_H 	H 	0.6886	0.431	0.5512	0.058
Mof_H 	H 	0.8114	0.3626	0.7424	0.068
Mof_H 	H 	0.1202	0.069	0.7576	0.077
Mof_H 	H 	0.2424	0.8114	0.8626	0.07
Mof_H 	H 	0.2576	0.1202	0.569	0.051
Mof_H 	H 	0.4488	0.3798	0.6374	0.062
Mof_H 	H 	0.0512	0.6886	0.931	0.012
Mof_H 	H 	0.431	0.0512	0.1886	0.038
Mof_H 	H 	0.1374	0.4488	0.8798	0.074
Mof_H 	H 	0.069	0.2576	0.6202	0.084
Mof_H 	H 	0.3626	0.2424	0.3114	0.048
Mof_H 	H 	0.6202	0.8626	0.0512	0.045
Mof_H 	H 	0.3114	0.569	0.4488	0.058
Mof_H 	H 	0.1886	0.6374	0.2576	0.064
Mof_H 	H 	0.8798	0.931	0.2424	0.041
Mof_H 	H 	0.7576	0.1886	0.1374	0.072
Mof_H 	H 	0.7424	0.8798	0.431	0.068
Mof_H 	H 	0.5512	0.6202	0.3626	0.055
Mof_H 	H 	0.9488	0.3114	0.069	0.121
Mof_H 	H 	0.569	0.9488	0.8114	0.104
Mof_H 	H 	0.8626	0.5512	0.1202	0.059
Mof_H 	H 	0.931	0.7424	0.3798	0.034
Mof_H 	H 	0.6374	0.7576	0.6886	0.068
Mof_C 	C 	0.2683	0.1418	0.7523	0.329
Mof_C 	C 	0.3112	0.1206	0.795	-0.117
Mof_C 	C 	0.3238	0.0676	0.7608	0.094
Mof_C 	C 	0.3608	0.045	0.7998	0.004
Mof_C 	C 	0.3813	0.0706	0.8709	-0.063
Mof_C 	C 	0.415	0.042	0.9102	0.374
Mof_C 	C 	0.3673	0.1208	0.9019	-0.068
Mof_C 	C 	0.3349	0.1484	0.8659	0.101
Mof_C 	C 	0.8895	0.516	0.7477	0.316
Mof_C 	C 	0.8256	0.5162	0.705	-0.087
Mof_C 	C 	0.8068	0.563	0.7392	0.094
Mof_C 	C 	0.7452	0.561	0.7002	0.057
Mof_C 	C 	0.6997	0.5104	0.6291	-0.098
Mof_C 	C 	0.6318	0.5048	0.5898	0.417
Mof_C 	C 	0.7189	0.4654	0.5981	-0.029
Mof_C 	C 	0.7825	0.469	0.6341	0.074
Mof_C 	C 	0.6105	0.3582	0.6265	0.326
Mof_C 	C 	0.6744	0.3794	0.6906	-0.101
Mof_C 	C 	0.6932	0.4324	0.7562	0.094
Mof_C 	C 	0.7548	0.455	0.8158	0.056
Mof_C 	C 	0.8003	0.4294	0.8107	-0.076
Mof_C 	C 	0.8682	0.458	0.873	0.383
Mof_C 	C 	0.7811	0.3792	0.7465	-0.043
Mof_C 	C 	0.7175	0.3516	0.6865	0.075
Mof_C 	C 	0.2317	0.984	0.8735	0.4
Mof_C 	C 	0.1888	0.9838	0.8094	-0.027
Mof_C 	C 	0.1762	0.937	0.7438	0.097
Mof_C 	C 	0.1392	0.939	0.6842	0.032
Mof_C 	C 	0.1187	0.9896	0.6893	-0.011
Mof_C 	C 	0.085	0.9952	0.627	0.484
Mof_C 	C 	0.1327	0.0346	0.7535	-0.145
Mof_C 	C 	0.1651	0.031	0.8135	0.011
Mof_C 	C 	0.1265	0.6105	0.8582	0.33
Mof_C 	C 	0.1906	0.6744	0.8794	-0.096
Mof_C 	C 	0.2562	0.6932	0.9324	0.105
Mof_C 	C 	0.3158	0.7548	0.955	0.069
Mof_C 	C 	0.3107	0.8003	0.9294	-0.064
Mof_C 	C 	0.373	0.8682	0.958	0.381
Mof_C 	C 	0.2465	0.7811	0.8792	-0.036
Mof_C 	C 	0.1865	0.7175	0.8516	0.068
Mof_C 	C 	0.3735	0.2317	0.484	0.324
Mof_C 	C 	0.3094	0.1888	0.4838	-0.107
Mof_C 	C 	0.2438	0.1762	0.437	0.091
Mof_C 	C 	0.1842	0.1392	0.439	0.008
Mof_C 	C 	0.1893	0.1187	0.4896	-0.106
Mof_C 	C 	0.127	0.085	0.4952	0.408
Mof_C 	C 	0.2535	0.1327	0.5346	-0.036
Mof_C 	C 	0.3135	0.1651	0.531	0.063
Mof_C 	C 	0.2523	0.2683	0.6418	0.328
Mof_C 	C 	0.295	0.3112	0.6206	-0.103
Mof_C 	C 	0.2608	0.3238	0.5676	0.094
Mof_C 	C 	0.2998	0.3608	0.545	0.033
Mof_C 	C 	0.3709	0.3813	0.5706	-0.092
Mof_C 	C 	0.4102	0.415	0.542	0.413
Mof_C 	C 	0.4019	0.3673	0.6208	-0.035
Mof_C 	C 	0.3659	0.3349	0.6484	0.078
Mof_C 	C 	0.2477	0.8895	0.016	0.217
Mof_C 	C 	0.205	0.8256	0.0162	-0.165
Mof_C 	C 	0.2392	0.8068	0.063	0.082
Mof_C 	C 	0.2002	0.7452	0.061	0.042
Mof_C 	C 	0.1291	0.6997	0.0104	-0.202
Mof_C 	C 	0.0898	0.6318	0.0048	0.312
Mof_C 	C 	0.0981	0.7189	0.9654	0.09
Mof_C 	C 	0.1341	0.7825	0.969	0.121
Mof_C 	C 	0.516	0.2477	0.3895	0.324
Mof_C 	C 	0.5162	0.205	0.3256	-0.097
Mof_C 	C 	0.563	0.2392	0.3068	0.09
Mof_C 	C 	0.561	0.2002	0.2452	0.039
Mof_C 	C 	0.5104	0.1291	0.1997	-0.099
Mof_C 	C 	0.5048	0.0898	0.1318	0.391
Mof_C 	C 	0.4654	0.0981	0.2189	-0.029
Mof_C 	C 	0.469	0.1341	0.2825	0.051
Mof_C 	C 	0.1418	0.2523	0.7683	0.329
Mof_C 	C 	0.1206	0.295	0.8112	-0.112
Mof_C 	C 	0.0676	0.2608	0.8238	0.089
Mof_C 	C 	0.045	0.2998	0.8608	0.012
Mof_C 	C 	0.0706	0.3709	0.8813	-0.083
Mof_C 	C 	0.042	0.4102	0.915	0.392
Mof_C 	C 	0.1208	0.4019	0.8673	-0.05
Mof_C 	C 	0.1484	0.3659	0.8349	0.085
Mof_C 	C 	0.984	0.3735	0.7317	0.431
Mof_C 	C 	0.9838	0.3094	0.6888	-0.014
Mof_C 	C 	0.937	0.2438	0.6762	0.101
Mof_C 	C 	0.939	0.1842	0.6392	0.031
Mof_C 	C 	0.9896	0.1893	0.6187	0.011
Mof_C 	C 	0.9952	0.127	0.585	0.506
Mof_C 	C 	0.0346	0.2535	0.6327	-0.159
Mof_C 	C 	0.031	0.3135	0.6651	-0.006
Mof_C 	C 	0.3582	0.1265	0.1105	0.326
Mof_C 	C 	0.3794	0.1906	0.1744	-0.108
Mof_C 	C 	0.4324	0.2562	0.1932	0.089
Mof_C 	C 	0.455	0.3158	0.2548	0.036
Mof_C 	C 	0.4294	0.3107	0.3003	-0.102
Mof_C 	C 	0.458	0.373	0.3682	0.415
Mof_C 	C 	0.3792	0.2465	0.2811	-0.027
Mof_C 	C 	0.3516	0.1865	0.2175	0.047
Mof_C 	C 	0.7317	0.8582	0.2477	0.324
Mof_C 	C 	0.6888	0.8794	0.205	-0.09
Mof_C 	C 	0.6762	0.9324	0.2392	0.099
Mof_C 	C 	0.6392	0.955	0.2002	0.071
Mof_C 	C 	0.6187	0.9294	0.1291	-0.084
Mof_C 	C 	0.585	0.958	0.0898	0.389
Mof_C 	C 	0.6327	0.8792	0.0981	-0.026
Mof_C 	C 	0.6651	0.8516	0.1341	0.058
Mof_C 	C 	0.1105	0.484	0.2523	0.327
Mof_C 	C 	0.1744	0.4838	0.295	-0.112
Mof_C 	C 	0.1932	0.437	0.2608	0.091
Mof_C 	C 	0.2548	0.439	0.2998	0.026
Mof_C 	C 	0.3003	0.4896	0.3709	-0.095
Mof_C 	C 	0.3682	0.4952	0.4102	0.413
Mof_C 	C 	0.2811	0.5346	0.4019	-0.036
Mof_C 	C 	0.2175	0.531	0.3659	0.069
Mof_C 	C 	0.3895	0.6418	0.3735	0.327
Mof_C 	C 	0.3256	0.6206	0.3094	-0.104
Mof_C 	C 	0.3068	0.5676	0.2438	0.096
Mof_C 	C 	0.2452	0.545	0.1842	0.02
Mof_C 	C 	0.1997	0.5706	0.1893	-0.089
Mof_C 	C 	0.1318	0.542	0.127	0.4
Mof_C 	C 	0.2189	0.6208	0.2535	-0.04
Mof_C 	C 	0.2825	0.6484	0.3135	0.078
Mof_C 	C 	0.7683	0.016	0.1265	0.228
Mof_C 	C 	0.8112	0.0162	0.1906	-0.176
Mof_C 	C 	0.8238	0.063	0.2562	0.088
Mof_C 	C 	0.8608	0.061	0.3158	0.051
Mof_C 	C 	0.8813	0.0104	0.3107	-0.18
Mof_C 	C 	0.915	0.0048	0.373	0.323
Mof_C 	C 	0.8673	0.9654	0.2465	0.082
Mof_C 	C 	0.8349	0.969	0.1865	0.141
Mof_C 	C 	0.8735	0.3895	0.1418	0.315
Mof_C 	C 	0.8094	0.3256	0.1206	-0.109
Mof_C 	C 	0.7438	0.3068	0.0676	0.087
Mof_C 	C 	0.6842	0.2452	0.045	0.003
Mof_C 	C 	0.6893	0.1997	0.0706	-0.087
Mof_C 	C 	0.627	0.1318	0.042	0.383
Mof_C 	C 	0.7535	0.2189	0.1208	-0.056
Mof_C 	C 	0.8135	0.2825	0.1484	0.089
Mof_C 	C 	0.6265	0.7683	0.516	0.328
Mof_C 	C 	0.6906	0.8112	0.5162	-0.096
Mof_C 	C 	0.7562	0.8238	0.563	0.096
Mof_C 	C 	0.8158	0.8608	0.561	0.072
Mof_C 	C 	0.8107	0.8813	0.5104	-0.08
Mof_C 	C 	0.873	0.915	0.5048	0.401
Mof_C 	C 	0.7465	0.8673	0.4654	-0.033
Mof_C 	C 	0.6865	0.8349	0.469	0.083
Mof_C 	C 	0.7477	0.7317	0.3582	0.323
Mof_C 	C 	0.705	0.6888	0.3794	-0.098
Mof_C 	C 	0.7392	0.6762	0.4324	0.091
Mof_C 	C 	0.7002	0.6392	0.455	0.049
Mof_C 	C 	0.6291	0.6187	0.4294	-0.1
Mof_C 	C 	0.5898	0.585	0.458	0.416
Mof_C 	C 	0.5981	0.6327	0.3792	-0.03
Mof_C 	C 	0.6341	0.6651	0.3516	0.066
Mof_C 	C 	0.7523	0.1105	0.984	0.426
Mof_C 	C 	0.795	0.1744	0.9838	-0.037
Mof_C 	C 	0.7608	0.1932	0.937	0.108
Mof_C 	C 	0.7998	0.2548	0.939	0.035
Mof_C 	C 	0.8709	0.3003	0.9896	0.036
Mof_C 	C 	0.9102	0.3682	0.9952	0.465
Mof_C 	C 	0.9019	0.2811	0.0346	-0.169
Mof_C 	C 	0.8659	0.2175	0.031	0.03
Mof_C 	C 	0.484	0.7523	0.6105	0.33
Mof_C 	C 	0.4838	0.795	0.6744	-0.111
Mof_C 	C 	0.437	0.7608	0.6932	0.102
Mof_C 	C 	0.439	0.7998	0.7548	0.033
Mof_C 	C 	0.4896	0.8709	0.8003	-0.051
Mof_C 	C 	0.4952	0.9102	0.8682	0.372
Mof_C 	C 	0.5346	0.9019	0.7811	-0.063
Mof_C 	C 	0.531	0.8659	0.7175	0.107
Mof_C 	C 	0.8582	0.7477	0.2317	0.324
Mof_C 	C 	0.8794	0.705	0.1888	-0.093
Mof_C 	C 	0.9324	0.7392	0.1762	0.102
Mof_C 	C 	0.955	0.7002	0.1392	0.068
Mof_C 	C 	0.9294	0.6291	0.1187	-0.081
Mof_C 	C 	0.958	0.5898	0.085	0.391
Mof_C 	C 	0.8792	0.5981	0.1327	-0.032
Mof_C 	C 	0.8516	0.6341	0.1651	0.068
Mof_C 	C 	0.016	0.6265	0.2683	0.209
Mof_C 	C 	0.0162	0.6906	0.3112	-0.188
Mof_C 	C 	0.063	0.7562	0.3238	0.084
Mof_C 	C 	0.061	0.8158	0.3608	0.051
Mof_C 	C 	0.0104	0.8107	0.3813	-0.2
Mof_C 	C 	0.0048	0.873	0.415	0.302
Mof_C 	C 	0.9654	0.7465	0.3673	0.095
Mof_C 	C 	0.969	0.6865	0.3349	0.154
Mof_C 	C 	0.6418	0.8735	0.8895	0.311
Mof_C 	C 	0.6206	0.8094	0.8256	-0.09
Mof_C 	C 	0.5676	0.7438	0.8068	0.095
Mof_C 	C 	0.545	0.6842	0.7452	0.048
Mof_C 	C 	0.5706	0.6893	0.6997	-0.091
Mof_C 	C 	0.542	0.627	0.6318	0.415
Mof_C 	C 	0.6208	0.7535	0.7189	-0.036
Mof_C 	C 	0.6484	0.8135	0.7825	0.094
Mof_N 	N 	0.3121	0.0406	0.6933	-0.097
Mof_N 	N 	0.8473	0.6188	0.8067	-0.045
Mof_N 	N 	0.6527	0.4594	0.7715	-0.063
Mof_N 	N 	0.1879	0.8812	0.7285	-0.072
Mof_N 	N 	0.2715	0.6527	0.9594	-0.049
Mof_N 	N 	0.2285	0.1879	0.3812	-0.097
Mof_N 	N 	0.1933	0.3121	0.5406	-0.086
Mof_N 	N 	0.3067	0.8473	0.1188	-0.07
Mof_N 	N 	0.6188	0.3067	0.3473	-0.073
Mof_N 	N 	0.0406	0.1933	0.8121	-0.099
Mof_N 	N 	0.8812	0.2285	0.6879	-0.069
Mof_N 	N 	0.4594	0.2715	0.1527	-0.089
Mof_N 	N 	0.6879	0.9594	0.3067	-0.049
Mof_N 	N 	0.1527	0.3812	0.1933	-0.103
Mof_N 	N 	0.3473	0.5406	0.2285	-0.086
Mof_N 	N 	0.8121	0.1188	0.2715	-0.074
Mof_N 	N 	0.7285	0.3473	0.0406	-0.098
Mof_N 	N 	0.7715	0.8121	0.6188	-0.051
Mof_N 	N 	0.8067	0.6879	0.4594	-0.061
Mof_N 	N 	0.6933	0.1527	0.8812	-0.075
Mof_N 	N 	0.3812	0.6933	0.6527	-0.075
Mof_N 	N 	0.9594	0.8067	0.1879	-0.045
Mof_N 	N 	0.1188	0.7715	0.3121	-0.077
Mof_N 	N 	0.5406	0.7285	0.8473	-0.058
Mof_O 	O 	0.2433	0.1117	0.6868	-0.459
Mof_O 	O 	0.256	0.1886	0.7832	-0.438
Mof_O 	O 	0.44	0.0073	0.8875	-0.386
Mof_O 	O 	0.4173	0.0537	0.9694	-0.501
Mof_O 	O 	0.9249	0.5565	0.8132	-0.363
Mof_O 	O 	0.9054	0.4728	0.7168	-0.379
Mof_O 	O 	0.6198	0.5525	0.6125	-0.419
Mof_O 	O 	0.5843	0.4479	0.5306	-0.65
Mof_O 	O 	0.5751	0.3883	0.6316	-0.441
Mof_O 	O 	0.5946	0.3114	0.5674	-0.443
Mof_O 	O 	0.8802	0.4927	0.9327	-0.308
Mof_O 	O 	0.9157	0.4463	0.8636	-0.517
Mof_O 	O 	0.2567	0.9435	0.8684	-0.368
Mof_O 	O 	0.244	0.0272	0.9326	-0.427
Mof_O 	O 	0.06	0.9475	0.5673	-0.402
Mof_O 	O 	0.0827	0.0521	0.6364	-0.7
Mof_O 	O 	0.1316	0.5751	0.8883	-0.402
Mof_O 	O 	0.0674	0.5946	0.8114	-0.445
Mof_O 	O 	0.4327	0.8802	0.9927	-0.304
Mof_O 	O 	0.3636	0.9157	0.9463	-0.47
Mof_O 	O 	0.3684	0.2567	0.4435	-0.449
Mof_O 	O 	0.4326	0.244	0.5272	-0.444
Mof_O 	O 	0.0673	0.06	0.4475	-0.444
Mof_O 	O 	0.1364	0.0827	0.5521	-0.629
Mof_O 	O 	0.1868	0.2433	0.6117	-0.448
Mof_O 	O 	0.2832	0.256	0.6886	-0.44
Mof_O 	O 	0.3875	0.44	0.5073	-0.427
Mof_O 	O 	0.4694	0.4173	0.5537	-0.649
Mof_O 	O 	0.3132	0.9249	0.0565	-0.345
Mof_O 	O 	0.2168	0.9054	0.9728	-0.266
Mof_O 	O 	0.1125	0.6198	0.0525	-0.384
Mof_O 	O 	0.0306	0.5843	0.9479	-0.532
Mof_O 	O 	0.5565	0.3132	0.4249	-0.442
Mof_O 	O 	0.4728	0.2168	0.4054	-0.448
Mof_O 	O 	0.5525	0.1125	0.1198	-0.395
Mof_O 	O 	0.4479	0.0306	0.0843	-0.611
Mof_O 	O 	0.1117	0.1868	0.7433	-0.464
Mof_O 	O 	0.1886	0.2832	0.756	-0.441
Mof_O 	O 	0.0073	0.3875	0.94	-0.383
Mof_O 	O 	0.0537	0.4694	0.9173	-0.568
Mof_O 	O 	0.9435	0.3684	0.7567	-0.408
Mof_O 	O 	0.0272	0.4326	0.744	-0.513
Mof_O 	O 	0.9475	0.0673	0.56	-0.406
Mof_O 	O 	0.0521	0.1364	0.5827	-0.697
Mof_O 	O 	0.3883	0.1316	0.0751	-0.426
Mof_O 	O 	0.3114	0.0674	0.0946	-0.44
Mof_O 	O 	0.4927	0.4327	0.3802	-0.426
Mof_O 	O 	0.4463	0.3636	0.4157	-0.652
Mof_O 	O 	0.7567	0.8883	0.3132	-0.426
Mof_O 	O 	0.744	0.8114	0.2168	-0.446
Mof_O 	O 	0.56	0.9927	0.1125	-0.332
Mof_O 	O 	0.5827	0.9463	0.0306	-0.549
Mof_O 	O 	0.0751	0.4435	0.1868	-0.452
Mof_O 	O 	0.0946	0.5272	0.2832	-0.431
Mof_O 	O 	0.3802	0.4475	0.3875	-0.429
Mof_O 	O 	0.4157	0.5521	0.4694	-0.651
Mof_O 	O 	0.4249	0.6117	0.3684	-0.445
Mof_O 	O 	0.4054	0.6886	0.4326	-0.44
Mof_O 	O 	0.1198	0.5073	0.0673	-0.418
Mof_O 	O 	0.0843	0.5537	0.1364	-0.598
Mof_O 	O 	0.7433	0.0565	0.1316	-0.39
Mof_O 	O 	0.756	0.9728	0.0674	-0.313
Mof_O 	O 	0.94	0.0525	0.4327	-0.334
Mof_O 	O 	0.9173	0.9479	0.3636	-0.496
Mof_O 	O 	0.8684	0.4249	0.1117	-0.41
Mof_O 	O 	0.9326	0.4054	0.1886	-0.363
Mof_O 	O 	0.5673	0.1198	0.0073	-0.424
Mof_O 	O 	0.6364	0.0843	0.0537	-0.59
Mof_O 	O 	0.6316	0.7433	0.5565	-0.437
Mof_O 	O 	0.5674	0.756	0.4728	-0.439
Mof_O 	O 	0.9327	0.94	0.5525	-0.292
Mof_O 	O 	0.8636	0.9173	0.4479	-0.57
Mof_O 	O 	0.8132	0.7567	0.3883	-0.436
Mof_O 	O 	0.7168	0.744	0.3114	-0.444
Mof_O 	O 	0.6125	0.56	0.4927	-0.421
Mof_O 	O 	0.5306	0.5827	0.4463	-0.652
Mof_O 	O 	0.6868	0.0751	0.9435	-0.41
Mof_O 	O 	0.7832	0.0946	0.0272	-0.49
Mof_O 	O 	0.8875	0.3802	0.9475	-0.339
Mof_O 	O 	0.9694	0.4157	0.0521	-0.575
Mof_O 	O 	0.4435	0.6868	0.5751	-0.444
Mof_O 	O 	0.5272	0.7832	0.5946	-0.435
Mof_O 	O 	0.4475	0.8875	0.8802	-0.331
Mof_O 	O 	0.5521	0.9694	0.9157	-0.45
Mof_O 	O 	0.8883	0.8132	0.2567	-0.42
Mof_O 	O 	0.8114	0.7168	0.244	-0.443
Mof_O 	O 	0.9927	0.6125	0.06	-0.335
Mof_O 	O 	0.9463	0.5306	0.0827	-0.542
Mof_O 	O 	0.0565	0.6316	0.2433	-0.405
Mof_O 	O 	0.9728	0.5674	0.256	-0.292
Mof_O 	O 	0.0525	0.9327	0.44	-0.33
Mof_O 	O 	0.9479	0.8636	0.4173	-0.501
Mof_O 	O 	0.6117	0.8684	0.9249	-0.335
Mof_O 	O 	0.6886	0.9326	0.9054	-0.316
Mof_O 	O 	0.5073	0.5673	0.6198	-0.422
Mof_O 	O 	0.5537	0.6364	0.5843	-0.649
Mof_N 	N 	0.9436	0	-0	-0.077
Mof_O 	O 	0.9161	0.9417	0.9996	0.117
Mof_O 	O 	0.9744	0.0579	0.0583	-0.063
Mof_O 	O 	0.9165	0.0004	0.9421	0.005
Mof_N 	N 	0.5	0.9436	0.5	0.048
Mof_O 	O 	0.4421	0.9165	0.5004	-0.033
Mof_O 	O 	0.4996	0.9161	0.4417	-0.036
Mof_O 	O 	0.5583	0.9744	0.5579	-0.019
Mof_N 	N 	5.75794e-17	0.5	0.4436	-0.008
Mof_O 	O 	0.0579	0.5583	0.4744	-0.09
Mof_O 	O 	0.0004	0.4421	0.4165	-0.109
Mof_O 	O 	0.9417	0.4996	0.4161	0.017
Mof_N 	N 	0.5564	0.5564	0.0564	0.037
Mof_O 	O 	0.5839	0.5835	0.0256	-0.1
Mof_O 	O 	0.5256	0.5839	0.0835	-0.092
Mof_O 	O 	0.5835	0.5256	0.0839	-0.089
Mof_N 	N 	0.0564	0	-0	-0.094
Mof_O 	O 	0.0839	0.0583	0.0004	-0.154
Mof_O 	O 	0.0256	0.9421	0.9417	0.034
Mof_O 	O 	0.0835	0.9996	0.0579	-0.031
Mof_N 	N 	0.5	0.0564	0.5	0.037
Mof_O 	O 	0.5579	0.0835	0.4996	-0.09
Mof_O 	O 	0.5004	0.0839	0.5583	-0.086
Mof_O 	O 	0.4417	0.0256	0.4421	-0.104
Mof_N 	N 	-2.30317e-17	0.5	0.5564	-0.057
Mof_O 	O 	0.9421	0.4417	0.5256	0.022
Mof_O 	O 	0.9996	0.5579	0.5835	0.041
Mof_O 	O 	0.0583	0.5004	0.5839	-0.085
Mof_N 	N 	0.4436	0.4436	0.9436	0.049
Mof_O 	O 	0.4161	0.4165	0.9744	-0.022
Mof_O 	O 	0.4744	0.4161	0.9165	-0.031
Mof_O 	O 	0.4165	0.4744	0.9161	-0.034
_end
