data_functionalizedCrystal
_audit_creation_method	'EQeq! by Chris Wilmer'
_symmetry_space_group_name_H-M	'P1'
_symmetry_Int_Tables_number	1
_symmetry_cell_setting	triclinic
loop_
_symmetry_equiv_pos_as_xyz
  x,y,z
_cell_length_a	13.4422
_cell_length_b	15.265
_cell_length_c	15.858
_cell_angle_alpha	90
_cell_angle_beta	94.543
_cell_angle_gamma	90
loop_
_atom_site_label
_atom_site_type_symbol
_atom_site_fract_x
_atom_site_fract_y
_atom_site_fract_z
_atom_site_charge
Mof_Ni	Ni	0.73796	0.40944	0.49705	1.12
Mof_Fe	Fe	0.78518	0.15315	0.25792	0.737
Mof_Fe	Fe	0.75615	0.18834	0.77581	0.767
Mof_O 	O 	0.6015	0.3376	0.3282	-0.321
Mof_O 	O 	0.7592	0.3578	0.3783	-0.421
Mof_O 	O 	0.9171	0.0843	0.0634	-0.417
Mof_O 	O 	0.763	0.0317	0.0534	-0.491
Mof_O 	O 	0.9139	0.8928	0.0224	-0.681
Mof_H 	H 	0.9296	0.8742	0.0818	0.254
Mof_H 	H 	0.9336	0.8444	0.9857	0.28
Mof_O 	O 	0.7752	0.9603	0.8847	-0.379
Mof_O 	O 	0.9224	0.0269	0.8891	-0.404
Mof_O 	O 	0.5987	0.2585	0.5795	-0.311
Mof_O 	O 	0.7544	0.288	0.5503	-0.416
Mof_C 	C 	0.6955	0.33	0.3268	0.36
Mof_C 	C 	0.7292	0.2769	0.2518	-0.129
Mof_C 	C 	0.8294	0.2762	0.231	-0.122
Mof_H 	H 	0.8764	0.3145	0.2597	0.077
Mof_C 	C 	0.8599	0.2213	0.1704	-0.087
Mof_H 	H 	0.9264	0.225	0.1543	0.088
Mof_C 	C 	0.7926	0.1578	0.1303	-0.173
Mof_C 	C 	0.692	0.1611	0.1493	-0.096
Mof_H 	H 	0.6452	0.122	0.1215	0.051
Mof_C 	C 	0.6591	0.2219	0.209	-0.11
Mof_H 	H 	0.5907	0.2251	0.2196	0.066
Mof_C 	C 	0.8256	0.0848	0.0763	0.425
Mof_C 	C 	0.811	0.1354	0.3869	-0.133
Mof_H 	H 	0.8065	0.1791	0.4291	0.085
Mof_C 	C 	0.8944	0.1086	0.344	-0.132
Mof_H 	H 	0.96	0.132	0.3509	0.084
Mof_C 	C 	0.86	0.0392	0.2883	-0.061
Mof_H 	H 	0.9017	0.0063	0.2544	0.059
Mof_C 	C 	0.7589	0.0261	0.2902	-0.209
Mof_H 	H 	0.7179	0.9874	0.2557	0.122
Mof_C 	C 	0.7317	0.077	0.3482	-0.058
Mof_H 	H 	0.6655	0.0774	0.3652	0.04
Mof_C 	C 	0.8397	0.0119	0.8579	0.354
Mof_C 	C 	0.8035	0.0616	0.7783	-0.12
Mof_C 	C 	0.7034	0.0662	0.7525	-0.131
Mof_H 	H 	0.6575	0.0313	0.7804	0.063
Mof_C 	C 	0.6685	0.1199	0.6875	-0.096
Mof_H 	H 	0.5994	0.1182	0.6693	0.065
Mof_C 	C 	0.7296	0.1763	0.6474	-0.138
Mof_C 	C 	0.8309	0.1703	0.6731	-0.108
Mof_H 	H 	0.877	0.2059	0.6462	0.081
Mof_C 	C 	0.8662	0.1135	0.7368	-0.128
Mof_H 	H 	0.9359	0.1107	0.752	0.104
Mof_C 	C 	0.6916	0.2468	0.5875	0.358
Mof_C 	C 	0.7115	0.2175	0.8925	-0.109
Mof_H 	H 	0.6803	0.18	0.9303	0.07
Mof_C 	C 	0.6626	0.2649	0.8241	-0.142
Mof_H 	H 	0.593	0.2647	0.8082	0.065
Mof_C 	C 	0.736	0.3127	0.7838	-0.154
Mof_H 	H 	0.7242	0.3501	0.7362	0.092
Mof_C 	C 	0.8304	0.2949	0.8273	-0.096
Mof_H 	H 	0.8927	0.3182	0.8138	0.073
Mof_C 	C 	0.8151	0.236	0.8944	-0.099
Mof_H 	H 	0.8655	0.2131	0.9337	0.091
Mof_Ni	Ni	0.76204	0.90944	0.00295	1.11
Mof_Fe	Fe	0.71482	0.65315	0.24208	0.732
Mof_Fe	Fe	0.74385	0.68834	0.72419	0.764
Mof_O 	O 	0.8985	0.8376	0.1718	-0.304
Mof_O 	O 	0.7408	0.8578	0.1217	-0.425
Mof_O 	O 	0.5829	0.5843	0.4366	-0.426
Mof_O 	O 	0.737	0.5317	0.4466	-0.465
Mof_O 	O 	0.5861	0.3928	0.4776	-0.657
Mof_H 	H 	0.5704	0.3742	0.4182	0.239
Mof_H 	H 	0.5664	0.3444	0.5143	0.238
Mof_O 	O 	0.7248	0.4603	0.6153	-0.433
Mof_O 	O 	0.5776	0.5269	0.6109	-0.442
Mof_O 	O 	0.9013	0.7585	0.9205	-0.287
Mof_O 	O 	0.7456	0.788	0.9497	-0.395
Mof_C 	C 	0.8045	0.83	0.1732	0.36
Mof_C 	C 	0.7708	0.7769	0.2482	-0.124
Mof_C 	C 	0.6706	0.7762	0.269	-0.122
Mof_H 	H 	0.6236	0.8145	0.2403	0.07
Mof_C 	C 	0.6401	0.7213	0.3296	-0.082
Mof_H 	H 	0.5736	0.725	0.3457	0.076
Mof_C 	C 	0.7074	0.6578	0.3697	-0.168
Mof_C 	C 	0.808	0.6611	0.3507	-0.091
Mof_H 	H 	0.8548	0.622	0.3785	0.068
Mof_C 	C 	0.8409	0.7219	0.291	-0.106
Mof_H 	H 	0.9093	0.7251	0.2804	0.081
Mof_C 	C 	0.6744	0.5848	0.4237	0.428
Mof_C 	C 	0.689	0.6354	0.1131	-0.117
Mof_H 	H 	0.6935	0.6791	0.0709	0.067
Mof_C 	C 	0.6056	0.6086	0.156	-0.119
Mof_H 	H 	0.54	0.632	0.1491	0.062
Mof_C 	C 	0.64	0.5392	0.2117	-0.118
Mof_H 	H 	0.5983	0.5063	0.2456	0.078
Mof_C 	C 	0.7411	0.5261	0.2098	-0.093
Mof_H 	H 	0.7821	0.4874	0.2443	0.062
Mof_C 	C 	0.7683	0.577	0.1518	-0.126
Mof_H 	H 	0.8345	0.5774	0.1348	0.071
Mof_C 	C 	0.6603	0.5119	0.6421	0.41
Mof_C 	C 	0.6965	0.5616	0.7217	-0.144
Mof_C 	C 	0.7966	0.5662	0.7475	-0.103
Mof_H 	H 	0.8425	0.5313	0.7196	0.071
Mof_C 	C 	0.8315	0.6199	0.8125	-0.111
Mof_H 	H 	0.9006	0.6182	0.8307	0.088
Mof_C 	C 	0.7704	0.6763	0.8526	-0.115
Mof_C 	C 	0.6691	0.6703	0.8269	-0.125
Mof_H 	H 	0.623	0.7059	0.8538	0.086
Mof_C 	C 	0.6338	0.6135	0.7632	-0.104
Mof_H 	H 	0.5641	0.6107	0.748	0.088
Mof_C 	C 	0.8084	0.7468	0.9125	0.351
Mof_C 	C 	0.7885	0.7175	0.6075	-0.109
Mof_H 	H 	0.8197	0.68	0.5697	0.068
Mof_C 	C 	0.8374	0.7649	0.6759	-0.141
Mof_H 	H 	0.907	0.7647	0.6918	0.079
Mof_C 	C 	0.764	0.8127	0.7162	-0.15
Mof_H 	H 	0.7758	0.8501	0.7638	0.097
Mof_C 	C 	0.6696	0.7949	0.6727	-0.099
Mof_H 	H 	0.6073	0.8182	0.6862	0.064
Mof_C 	C 	0.6849	0.736	0.6056	-0.101
Mof_H 	H 	0.6345	0.7131	0.5663	0.074
Mof_Ni	Ni	0.26204	0.59056	0.50295	1.116
Mof_Fe	Fe	0.21482	0.84685	0.74208	0.727
Mof_Fe	Fe	0.24385	0.81166	0.22419	0.763
Mof_O 	O 	0.3985	0.6624	0.6718	-0.319
Mof_O 	O 	0.2408	0.6422	0.6217	-0.43
Mof_O 	O 	0.0829	0.9157	0.9366	-0.412
Mof_O 	O 	0.237	0.9683	0.9466	-0.436
Mof_O 	O 	0.0861	0.1072	0.9776	-0.619
Mof_H 	H 	0.0704	0.1258	0.9182	0.223
Mof_H 	H 	0.0664	0.1556	0.0143	0.196
Mof_O 	O 	0.2248	0.0397	0.1153	-0.49
Mof_O 	O 	0.0776	0.9731	0.1109	-0.463
Mof_O 	O 	0.4013	0.7415	0.4205	-0.307
Mof_O 	O 	0.2456	0.712	0.4497	-0.421
Mof_C 	C 	0.3045	0.67	0.6732	0.364
Mof_C 	C 	0.2708	0.7231	0.7482	-0.132
Mof_C 	C 	0.1706	0.7238	0.769	-0.118
Mof_H 	H 	0.1236	0.6855	0.7403	0.06
Mof_C 	C 	0.1401	0.7787	0.8296	-0.086
Mof_H 	H 	0.0736	0.775	0.8457	0.068
Mof_C 	C 	0.2074	0.8422	0.8697	-0.16
Mof_C 	C 	0.308	0.8389	0.8507	-0.096
Mof_H 	H 	0.3548	0.878	0.8785	0.073
Mof_C 	C 	0.3409	0.7781	0.791	-0.099
Mof_H 	H 	0.4093	0.7749	0.7804	0.071
Mof_C 	C 	0.1744	0.9152	0.9237	0.426
Mof_C 	C 	0.189	0.8646	0.6131	-0.095
Mof_H 	H 	0.1935	0.8209	0.5709	0.068
Mof_C 	C 	0.1056	0.8914	0.656	-0.094
Mof_H 	H 	0.04	0.868	0.6491	0.048
Mof_C 	C 	0.14	0.9608	0.7117	-0.182
Mof_H 	H 	0.0983	0.9937	0.7456	0.106
Mof_C 	C 	0.2411	0.9739	0.7098	0.043
Mof_H 	H 	0.2821	0.0126	0.7443	-0.015
Mof_C 	C 	0.2683	0.923	0.6518	-0.197
Mof_H 	H 	0.3345	0.9226	0.6348	0.102
Mof_C 	C 	0.1603	0.9881	0.1421	0.458
Mof_C 	C 	0.1965	0.9384	0.2217	-0.159
Mof_C 	C 	0.2966	0.9338	0.2475	-0.095
Mof_H 	H 	0.3425	0.9687	0.2196	0.069
Mof_C 	C 	0.3315	0.8801	0.3125	-0.113
Mof_H 	H 	0.4006	0.8818	0.3307	0.079
Mof_C 	C 	0.2704	0.8237	0.3526	-0.122
Mof_C 	C 	0.1691	0.8297	0.3269	-0.128
Mof_H 	H 	0.123	0.7941	0.3538	0.073
Mof_C 	C 	0.1338	0.8865	0.2632	-0.097
Mof_H 	H 	0.0641	0.8893	0.248	0.074
Mof_C 	C 	0.3084	0.7532	0.4125	0.355
Mof_C 	C 	0.2885	0.7825	0.1075	-0.118
Mof_H 	H 	0.3197	0.82	0.0697	0.055
Mof_C 	C 	0.3374	0.7351	0.1759	-0.145
Mof_H 	H 	0.407	0.7353	0.1918	0.063
Mof_C 	C 	0.264	0.6873	0.2162	-0.16
Mof_H 	H 	0.2758	0.6499	0.2638	0.089
Mof_C 	C 	0.1696	0.7051	0.1727	-0.105
Mof_H 	H 	0.1073	0.6818	0.1862	0.047
Mof_C 	C 	0.1849	0.764	0.1056	-0.108
Mof_H 	H 	0.1345	0.7869	0.0663	0.054
Mof_Ni	Ni	0.23796	0.09056	0.99705	1.125
Mof_Fe	Fe	0.28518	0.34685	0.75792	0.732
Mof_Fe	Fe	0.25615	0.31166	0.27581	0.767
Mof_O 	O 	0.1015	0.1624	0.8282	-0.336
Mof_O 	O 	0.2592	0.1422	0.8783	-0.427
Mof_O 	O 	0.4171	0.4157	0.5634	-0.427
Mof_O 	O 	0.263	0.4683	0.5534	-0.472
Mof_O 	O 	0.4139	0.6072	0.5224	-0.657
Mof_H 	H 	0.4296	0.6258	0.5818	0.24
Mof_H 	H 	0.4336	0.6556	0.4857	0.239
Mof_O 	O 	0.2752	0.5397	0.3847	-0.439
Mof_O 	O 	0.4224	0.4731	0.3891	-0.442
Mof_O 	O 	0.0987	0.2415	0.0795	-0.333
Mof_O 	O 	0.2544	0.212	0.0503	-0.441
Mof_C 	C 	0.1955	0.17	0.8268	0.364
Mof_C 	C 	0.2292	0.2231	0.7518	-0.137
Mof_C 	C 	0.3294	0.2238	0.731	-0.12
Mof_H 	H 	0.3764	0.1855	0.7597	0.067
Mof_C 	C 	0.3599	0.2787	0.6704	-0.089
Mof_H 	H 	0.4264	0.275	0.6543	0.076
Mof_C 	C 	0.2926	0.3422	0.6303	-0.17
Mof_C 	C 	0.192	0.3389	0.6493	-0.099
Mof_H 	H 	0.1452	0.378	0.6215	0.054
Mof_C 	C 	0.1591	0.2781	0.709	-0.105
Mof_H 	H 	0.0907	0.2749	0.7196	0.056
Mof_C 	C 	0.3256	0.4152	0.5763	0.429
Mof_C 	C 	0.311	0.3646	0.8869	-0.115
Mof_H 	H 	0.3065	0.3209	0.9291	0.087
Mof_C 	C 	0.3944	0.3914	0.844	-0.111
Mof_H 	H 	0.46	0.368	0.8509	0.069
Mof_C 	C 	0.36	0.4608	0.7883	-0.114
Mof_H 	H 	0.4017	0.4937	0.7544	0.08
Mof_C 	C 	0.2589	0.4739	0.7902	-0.096
Mof_H 	H 	0.2179	0.5126	0.7557	0.057
Mof_C 	C 	0.2317	0.423	0.8482	-0.117
Mof_H 	H 	0.1655	0.4226	0.8652	0.066
Mof_C 	C 	0.3397	0.4881	0.3579	0.408
Mof_C 	C 	0.3035	0.4384	0.2783	-0.138
Mof_C 	C 	0.2034	0.4338	0.2525	-0.121
Mof_H 	H 	0.1575	0.4687	0.2804	0.061
Mof_C 	C 	0.1685	0.3801	0.1875	-0.098
Mof_H 	H 	0.0994	0.3818	0.1693	0.055
Mof_C 	C 	0.2296	0.3237	0.1474	-0.146
Mof_C 	C 	0.3309	0.3297	0.1731	-0.113
Mof_H 	H 	0.377	0.2941	0.1462	0.07
Mof_C 	C 	0.3662	0.3865	0.2368	-0.12
Mof_H 	H 	0.4359	0.3893	0.252	0.09
Mof_C 	C 	0.1916	0.2532	0.0875	0.363
Mof_C 	C 	0.2115	0.2825	0.3925	-0.119
Mof_H 	H 	0.1803	0.32	0.4303	0.058
Mof_C 	C 	0.1626	0.2351	0.3241	-0.145
Mof_H 	H 	0.093	0.2353	0.3082	0.048
Mof_C 	C 	0.236	0.1873	0.2838	-0.164
Mof_H 	H 	0.2242	0.1499	0.2362	0.085
Mof_C 	C 	0.3304	0.2051	0.3273	-0.103
Mof_H 	H 	0.3927	0.1818	0.3138	0.055
Mof_C 	C 	0.3151	0.264	0.3944	-0.105
Mof_H 	H 	0.3655	0.2869	0.4337	0.071
Mof_Ni	Ni	-0	0	-0	1.103
Mof_Ni	Ni	0.5	0.5	0.5	1.156
_end
