data_functionalizedCrystal
_audit_creation_method	'EQeq! by Chris Wilmer'
_symmetry_space_group_name_H-M	'P1'
_symmetry_Int_Tables_number	1
_symmetry_cell_setting	triclinic
loop_
_symmetry_equiv_pos_as_xyz
  x,y,z
_cell_length_a	6.0991
_cell_length_b	12.4168
_cell_length_c	23.469
_cell_angle_alpha	90
_cell_angle_beta	90
_cell_angle_gamma	94.4906
loop_
_atom_site_label
_atom_site_type_symbol
_atom_site_fract_x
_atom_site_fract_y
_atom_site_fract_z
_atom_site_charge
Mof_Dy	Dy	0.50801	0.60885	0.66825	1.954
Mof_Dy	Dy	0.49199	0.39115	0.33175	1.95
Mof_Dy	Dy	0.99199	0.89115	0.16825	1.981
Mof_Dy	Dy	0.00801	0.10885	0.83175	1.84
Mof_Cu	Cu	1.06851e-32	0	0.5	0.903
Mof_Cu	Cu	0.5	0.5	-0	0.911
Mof_H 	H 	0.3893	0.422	0.7938	0.031
Mof_H 	H 	0.0268	0.7758	0.6628	0.001
Mof_H 	H 	0.4732	0.7242	0.1628	0.022
Mof_H 	H 	0.5052	0.3742	0.617	0.404
Mof_H 	H 	0.8278	0.8568	0.3951	0.059
Mof_H 	H 	0.9948	0.1258	0.117	0.4
Mof_H 	H 	0.0546	0.3714	0.1702	0.053
Mof_H 	H 	0.9732	0.2242	0.3372	0.026
Mof_H 	H 	0.5268	0.2758	0.8372	0.027
Mof_H 	H 	0.3278	0.3568	0.1049	0.046
Mof_H 	H 	0.1722	0.1432	0.6049	0.036
Mof_H 	H 	0.0052	0.8742	0.883	0.36
Mof_H 	H 	0.973	0.018	0.1046	0.213
Mof_H 	H 	0.8893	0.922	0.7062	0.081
Mof_H 	H 	0.4948	0.6258	0.383	0.402
Mof_H 	H 	0.5546	0.8714	0.3298	0.042
Mof_H 	H 	0.027	0.982	0.8954	0.204
Mof_H 	H 	0.527	0.482	0.6046	0.226
Mof_H 	H 	0.6107	0.578	0.2062	0.032
Mof_H 	H 	0.4454	0.1286	0.6702	0.067
Mof_H 	H 	0.1107	0.078	0.2938	0.023
Mof_H 	H 	0.9454	0.6286	0.8298	0.053
Mof_H 	H 	0.473	0.518	0.3954	0.224
Mof_H 	H 	0.6722	0.6432	0.8951	0.056
Mof_C 	C 	0.8168	0.3571	0.9923	0.329
Mof_C 	C 	0.9269	0.5774	0.8586	0.039
Mof_C 	C 	0.5731	0.9226	0.3586	0.053
Mof_C 	C 	0.0185	0.49	0.3041	0.435
Mof_C 	C 	0.3065	0.16	0.4058	0.438
Mof_C 	C 	0.0322	0.4261	0.9034	-0.071
Mof_C 	C 	0.604	0.3099	0.8073	0.029
Mof_C 	C 	0.3655	0.9343	0.5566	0.016
Mof_C 	C 	0.6935	0.84	0.5942	0.442
Mof_C 	C 	0.6345	0.0657	0.4434	-0.044
Mof_C 	C 	0.6832	0.1429	0.4923	0.298
Mof_C 	C 	0.896	0.1901	0.3073	0.025
Mof_C 	C 	0.9039	0.3267	0.74796	0.028
Mof_C 	C 	0.4815	0.01	0.8041	0.394
Mof_C 	C 	0.0883	0.2681	0.7216	0.311
Mof_C 	C 	0.1832	0.6429	0.0077	0.25
Mof_C 	C 	0.4117	0.2319	0.2216	0.344
Mof_C 	C 	0.396	0.6901	0.1927	0.03
Mof_C 	C 	0.0731	0.4226	0.1414	0.008
Mof_C 	C 	0.8411	0.4268	0.72989	-0.063
Mof_C 	C 	0.5961	0.1733	0.24796	-0.006
Mof_C 	C 	0.4039	0.8267	0.75204	-0.016
Mof_C 	C 	0.7369	0.9133	0.398	0.01
Mof_C 	C 	0.9117	0.7319	0.2784	0.346
Mof_C 	C 	0.5883	0.7681	0.7784	0.35
Mof_C 	C 	0.6589	0.0732	0.22989	-0.078
Mof_C 	C 	0.1589	0.5732	0.27011	-0.049
Mof_C 	C 	0.7631	0.5867	0.898	0.02
Mof_C 	C 	0.0264	0.9012	0.7171	-0.035
Mof_C 	C 	0.3411	0.9268	0.77011	-0.016
Mof_C 	C 	0.2369	0.4133	0.102	0.021
Mof_C 	C 	0.9815	0.51	0.6959	0.479
Mof_C 	C 	0.2631	0.0867	0.602	0.038
Mof_C 	C 	0.3168	0.8571	0.5077	0.284
Mof_C 	C 	0.4678	0.0739	0.4034	-0.051
Mof_C 	C 	0.104	0.8099	0.6927	0.059
Mof_C 	C 	0.8065	0.66	0.0942	0.444
Mof_C 	C 	0.9678	0.5739	0.0966	-0.057
Mof_C 	C 	0.9736	0.0988	0.2829	0.033
Mof_C 	C 	0.0961	0.6733	0.25204	-0.009
Mof_C 	C 	0.5322	0.9261	0.5966	-0.058
Mof_C 	C 	0.4736	0.5988	0.2171	0.031
Mof_C 	C 	0.1935	0.34	0.9058	0.435
Mof_C 	C 	0.4269	0.0774	0.6414	-0.038
Mof_C 	C 	0.5264	0.4012	0.7829	0.032
Mof_C 	C 	0.8655	0.4343	0.9434	0.003
Mof_C 	C 	0.1345	0.5657	0.0566	-0.012
Mof_C 	C 	0.5185	0.99	0.1959	0.467
Mof_N 	N 	0.6424	0.4601	0.74411	-0.155
Mof_N 	N 	0.2671	0.4843	0.05978	-0.188
Mof_N 	N 	0.7112	0.2301	0.28837	-0.189
Mof_N 	N 	0.8576	0.0399	0.24411	-0.165
Mof_N 	N 	0.4384	0.0033	0.36039	-0.112
Mof_N 	N 	0.2112	0.7301	0.21163	-0.189
Mof_N 	N 	0.7329	0.5157	0.94022	-0.173
Mof_N 	N 	0.2888	0.7699	0.71163	-0.195
Mof_N 	N 	0.5616	0.9967	0.63961	-0.061
Mof_N 	N 	0.0616	0.4967	0.86039	-0.101
Mof_N 	N 	0.7671	0.9843	0.44022	-0.153
Mof_N 	N 	0.3576	0.5399	0.25589	-0.157
Mof_N 	N 	0.2329	0.0157	0.55978	-0.209
Mof_N 	N 	0.1424	0.9601	0.75589	-0.141
Mof_N 	N 	0.9384	0.5033	0.13961	-0.088
Mof_N 	N 	0.7888	0.2699	0.78837	-0.183
Mof_O 	O 	0.825	0.1142	0.52821	-0.35
Mof_O 	O 	0.3461	0.3085	0.25006	-0.463
Mof_O 	O 	0.3533	0.355	0.93672	-0.351
Mof_O 	O 	0.3451	0.2386	0.37234	-0.538
Mof_O 	O 	0.6467	0.645	0.06328	-0.366
Mof_O 	O 	0.6826	0.0205	0.79394	-0.468
Mof_O 	O 	0.1489	0.2949	0.67273	-0.255
Mof_O 	O 	0.9699	0.9352	0.87391	-0.731
Mof_O 	O 	0.3788	0.0668	0.838	-0.489
Mof_O 	O 	0.6539	0.6915	0.74994	-0.459
Mof_O 	O 	0.8451	0.7386	0.12766	-0.541
Mof_O 	O 	0.3174	0.9795	0.20606	-0.479
Mof_O 	O 	0.6549	0.7614	0.62766	-0.533
Mof_O 	O 	0.4112	0.7738	0.50451	-0.271
Mof_O 	O 	0.8461	0.8085	0.24994	-0.462
Mof_O 	O 	0.9112	0.2738	0.99549	-0.261
Mof_O 	O 	0.8511	0.7051	0.32727	-0.253
Mof_O 	O 	0.175	0.8858	0.47179	-0.343
Mof_O 	O 	0.5301	0.5648	0.37391	-0.832
Mof_O 	O 	0.0301	0.0648	0.12609	-0.845
Mof_O 	O 	0.8533	0.855	0.56328	-0.343
Mof_O 	O 	0.1539	0.1915	0.75006	-0.454
Mof_O 	O 	0.6489	0.7949	0.82727	-0.244
Mof_O 	O 	0.1549	0.2614	0.87234	-0.527
Mof_O 	O 	0.8788	0.5668	0.662	-0.505
Mof_O 	O 	0.1826	0.5205	0.70606	-0.514
Mof_O 	O 	0.675	0.3858	0.02821	-0.386
Mof_O 	O 	0.1212	0.4332	0.338	-0.505
Mof_O 	O 	0.325	0.6142	0.97179	-0.315
Mof_O 	O 	0.8174	0.4795	0.29394	-0.482
Mof_O 	O 	0.1467	0.145	0.43672	-0.37
Mof_O 	O 	0.4699	0.4352	0.62609	-0.837
Mof_O 	O 	0.0888	0.7262	0.00451	-0.273
Mof_O 	O 	0.5888	0.2262	0.49549	-0.273
Mof_O 	O 	0.3511	0.2051	0.17273	-0.262
Mof_O 	O 	0.6212	0.9332	0.162	-0.506
_end
