data_functionalizedCrystal
_audit_creation_method	'EQeq! by Chris Wilmer'
_symmetry_space_group_name_H-M	'P1'
_symmetry_Int_Tables_number	1
_symmetry_cell_setting	triclinic
loop_
_symmetry_equiv_pos_as_xyz
  x,y,z
_cell_length_a	16.4393
_cell_length_b	16.4393
_cell_length_c	23.777
_cell_angle_alpha	90
_cell_angle_beta	90
_cell_angle_gamma	120
loop_
_atom_site_label
_atom_site_type_symbol
_atom_site_fract_x
_atom_site_fract_y
_atom_site_fract_z
_atom_site_charge
Mof_Pr	Pr	0.08433	0.08433	-0	2.197
Mof_Pr	Pr	4.53501e-17	0.91567	0.66667	2.405
Mof_Pr	Pr	0.91567	9.07248e-33	0.33333	2.409
Mof_Pr	Pr	0.91567	0.91567	0.5	2.764
Mof_Pr	Pr	1.12237e-18	0.08433	0.16667	2.193
Mof_Pr	Pr	0.08433	0	0.83333	2.217
Mof_H 	H 	0.1109	0.8121	0.909	-0.023
Mof_H 	H 	0.1777	0.7222	0.8935	0.091
Mof_H 	H 	0.3869	0.8846	0.9992	0.132
Mof_H 	H 	0.3251	0.9827	0.009	-0.061
Mof_H 	H 	0.4716	0.851	0.9423	0.063
Mof_H 	H 	0.6109	0.8799	0.9847	0.105
Mof_H 	H 	0.7733	0.9608	0.9833	0.036
Mof_H 	H 	0.7012	0.8891	0.57567	0.019
Mof_H 	H 	0.5445	0.8223	0.56017	0.089
Mof_H 	H 	0.4977	0.6131	0.66587	0.078
Mof_H 	H 	0.6576	0.6749	0.67567	0.006
Mof_H 	H 	0.3794	0.5284	0.60897	0.058
Mof_H 	H 	0.269	0.3891	0.65137	0.082
Mof_H 	H 	0.1875	0.2267	0.64997	0.001
Mof_H 	H 	0.1879	0.2988	0.24233	0.021
Mof_H 	H 	0.2778	0.4555	0.22683	0.066
Mof_H 	H 	0.1154	0.5023	0.33253	0.064
Mof_H 	H 	0.0173	0.3424	0.34233	-0.01
Mof_H 	H 	0.149	0.6206	0.27563	0.05
Mof_H 	H 	0.1201	0.731	0.31803	0.08
Mof_H 	H 	0.0392	0.8125	0.31663	-0.02
Mof_H 	H 	0.8891	0.1879	0.409	0.032
Mof_H 	H 	0.8223	0.2778	0.3935	0.082
Mof_H 	H 	0.6131	0.1154	0.4992	0.065
Mof_H 	H 	0.6749	0.0173	0.509	-0.01
Mof_H 	H 	0.5284	0.149	0.4423	0.05
Mof_H 	H 	0.3891	0.1201	0.4847	0.077
Mof_H 	H 	0.2267	0.0392	0.4833	-0.022
Mof_H 	H 	0.2988	0.1109	0.07567	-0.01
Mof_H 	H 	0.4555	0.1777	0.06017	0.059
Mof_H 	H 	0.5023	0.3869	0.16587	0.077
Mof_H 	H 	0.3424	0.3251	0.17567	0.003
Mof_H 	H 	0.6206	0.4716	0.10897	0.056
Mof_H 	H 	0.731	0.6109	0.15137	0.09
Mof_H 	H 	0.8125	0.7733	0.14997	0.001
Mof_H 	H 	0.8121	0.7012	0.74233	0.005
Mof_H 	H 	0.7222	0.5445	0.72683	0.083
Mof_H 	H 	0.8846	0.4977	0.83253	0.094
Mof_H 	H 	0.9827	0.6576	0.84233	0.027
Mof_H 	H 	0.851	0.3794	0.77563	0.068
Mof_H 	H 	0.8799	0.269	0.81803	0.096
Mof_H 	H 	0.9608	0.1875	0.81663	0.027
Mof_H 	H 	0.2988	0.1879	0.75767	0.02
Mof_H 	H 	0.4555	0.2778	0.77317	0.072
Mof_H 	H 	0.5023	0.1154	0.66747	0.065
Mof_H 	H 	0.3424	0.0173	0.65767	-0.011
Mof_H 	H 	0.6206	0.149	0.72437	0.05
Mof_H 	H 	0.731	0.1201	0.68197	0.081
Mof_H 	H 	0.8125	0.0392	0.68337	-0.02
Mof_H 	H 	0.8121	0.1109	0.091	0.009
Mof_H 	H 	0.7222	0.1777	0.1065	0.05
Mof_H 	H 	0.8846	0.3869	0.0008	0.044
Mof_H 	H 	0.9827	0.3251	0.991	0.112
Mof_H 	H 	0.851	0.4716	0.0577	0.068
Mof_H 	H 	0.8799	0.6109	0.0153	0.088
Mof_H 	H 	0.9608	0.7733	0.0167	0.012
Mof_H 	H 	0.8891	0.7012	0.42433	0.019
Mof_H 	H 	0.8223	0.5445	0.43983	0.089
Mof_H 	H 	0.6131	0.4977	0.33413	0.078
Mof_H 	H 	0.6749	0.6576	0.32433	0.005
Mof_H 	H 	0.5284	0.3794	0.39103	0.058
Mof_H 	H 	0.3891	0.269	0.34863	0.082
Mof_H 	H 	0.2267	0.1875	0.35003	0.001
Mof_H 	H 	0.7012	0.8121	0.25767	0.005
Mof_H 	H 	0.5445	0.7222	0.27317	0.082
Mof_H 	H 	0.4977	0.8846	0.16747	0.084
Mof_H 	H 	0.6576	0.9827	0.15767	0.022
Mof_H 	H 	0.3794	0.851	0.22437	0.066
Mof_H 	H 	0.269	0.8799	0.18197	0.088
Mof_H 	H 	0.1875	0.9608	0.18337	0.025
Mof_H 	H 	0.1879	0.8891	0.591	0.032
Mof_H 	H 	0.2778	0.8223	0.6065	0.081
Mof_H 	H 	0.1154	0.6131	0.5008	0.065
Mof_H 	H 	0.0173	0.6749	0.491	-0.01
Mof_H 	H 	0.149	0.5284	0.5577	0.05
Mof_H 	H 	0.1201	0.3891	0.5153	0.077
Mof_H 	H 	0.0392	0.2267	0.5167	-0.022
Mof_H 	H 	0.1109	0.2988	0.92433	0.007
Mof_H 	H 	0.1777	0.4555	0.93983	0.071
Mof_H 	H 	0.3869	0.5023	0.83413	0.079
Mof_H 	H 	0.3251	0.3424	0.82433	0.006
Mof_H 	H 	0.4716	0.6206	0.89103	0.058
Mof_H 	H 	0.6109	0.731	0.84863	0.092
Mof_H 	H 	0.7733	0.8125	0.85003	0.004
Mof_H 	H 	0.2277	0.61385	0.91667	0.043
Mof_H 	H 	0.38615	0.7723	0.58333	0.068
Mof_H 	H 	0.38615	0.61385	0.25	0.056
Mof_H 	H 	0.7723	0.38615	0.41667	0.068
Mof_H 	H 	0.61385	0.2277	0.08333	0.047
Mof_H 	H 	0.61385	0.38615	0.75	0.058
Mof_C 	C 	0.1757	0.9761	0.9637	0.552
Mof_C 	C 	0.2137	0.9107	0.9585	-0.273
Mof_C 	C 	0.1685	0.8289	0.9254	0.152
Mof_C 	C 	0.2072	0.7741	0.9171	-0.212
Mof_C 	C 	0.2931	0.7955	0.9441	0.134
Mof_C 	C 	0.3331	0.8717	0.9793	-0.248
Mof_C 	C 	0.2952	0.9302	0.9859	0.253
Mof_C 	C 	0.3421	0.7435	0.9303	-0.01
Mof_C 	C 	0.4385	0.7883	0.9313	-0.068
Mof_C 	C 	0.6433	0.8666	0.9576	-0.161
Mof_C 	C 	0.7403	0.9144	0.9566	0.131
Mof_C 	C 	0.8004	0.8243	0.63037	0.441
Mof_C 	C 	0.697	0.7863	0.62517	-0.188
Mof_C 	C 	0.6604	0.8315	0.59207	0.079
Mof_C 	C 	0.5669	0.7928	0.58377	-0.147
Mof_C 	C 	0.5024	0.7069	0.61077	0.071
Mof_C 	C 	0.5386	0.6669	0.64597	-0.15
Mof_C 	C 	0.635	0.7048	0.65257	0.084
Mof_C 	C 	0.4014	0.6579	0.59697	0.02
Mof_C 	C 	0.3498	0.5615	0.59797	-0.091
Mof_C 	C 	0.2233	0.3567	0.62427	-0.163
Mof_C 	C 	0.1741	0.2597	0.62327	0.098
Mof_C 	C 	0.0239	0.1996	0.29703	0.321
Mof_C 	C 	0.0893	0.303	0.29183	-0.153
Mof_C 	C 	0.1711	0.3396	0.25873	0.04
Mof_C 	C 	0.2259	0.4331	0.25043	-0.131
Mof_C 	C 	0.2045	0.4976	0.27743	0.05
Mof_C 	C 	0.1283	0.4614	0.31263	-0.136
Mof_C 	C 	0.0698	0.365	0.31923	0.047
Mof_C 	C 	0.2565	0.5986	0.26363	0.018
Mof_C 	C 	0.2117	0.6502	0.26463	-0.092
Mof_C 	C 	0.1334	0.7767	0.29093	-0.166
Mof_C 	C 	0.0856	0.8259	0.28993	0.11
Mof_C 	C 	0.8243	0.0239	0.4637	0.333
Mof_C 	C 	0.7863	0.0893	0.4585	-0.153
Mof_C 	C 	0.8315	0.1711	0.4254	0.048
Mof_C 	C 	0.7928	0.2259	0.4171	-0.129
Mof_C 	C 	0.7069	0.2045	0.4441	0.055
Mof_C 	C 	0.6669	0.1283	0.4793	-0.137
Mof_C 	C 	0.7048	0.0698	0.4859	0.051
Mof_C 	C 	0.6579	0.2565	0.4303	0.022
Mof_C 	C 	0.5615	0.2117	0.4313	-0.093
Mof_C 	C 	0.3567	0.1334	0.4576	-0.166
Mof_C 	C 	0.2597	0.0856	0.4566	0.098
Mof_C 	C 	0.1996	0.1757	0.13037	0.427
Mof_C 	C 	0.303	0.2137	0.12517	-0.195
Mof_C 	C 	0.3396	0.1685	0.09207	0.067
Mof_C 	C 	0.4331	0.2072	0.08377	-0.154
Mof_C 	C 	0.4976	0.2931	0.11077	0.061
Mof_C 	C 	0.4614	0.3331	0.14597	-0.153
Mof_C 	C 	0.365	0.2952	0.15257	0.078
Mof_C 	C 	0.5986	0.3421	0.09697	0.016
Mof_C 	C 	0.6502	0.4385	0.09797	-0.093
Mof_C 	C 	0.7767	0.6433	0.12427	-0.171
Mof_C 	C 	0.8259	0.7403	0.12327	0.129
Mof_C 	C 	0.9761	0.8004	0.79703	0.531
Mof_C 	C 	0.9107	0.697	0.79183	-0.206
Mof_C 	C 	0.8289	0.6604	0.75873	0.097
Mof_C 	C 	0.7741	0.5669	0.75043	-0.158
Mof_C 	C 	0.7955	0.5024	0.77743	0.081
Mof_C 	C 	0.8717	0.5386	0.81263	-0.156
Mof_C 	C 	0.9302	0.635	0.81923	0.109
Mof_C 	C 	0.7435	0.4014	0.76363	0.018
Mof_C 	C 	0.7883	0.3498	0.76463	-0.087
Mof_C 	C 	0.8666	0.2233	0.79093	-0.161
Mof_C 	C 	0.9144	0.1741	0.78993	0.114
Mof_C 	C 	0.1996	0.0239	0.70297	0.326
Mof_C 	C 	0.303	0.0893	0.70817	-0.156
Mof_C 	C 	0.3396	0.1711	0.74127	0.044
Mof_C 	C 	0.4331	0.2259	0.74957	-0.132
Mof_C 	C 	0.4976	0.2045	0.72257	0.053
Mof_C 	C 	0.4614	0.1283	0.68737	-0.138
Mof_C 	C 	0.365	0.0698	0.68077	0.05
Mof_C 	C 	0.5986	0.2565	0.73637	0.019
Mof_C 	C 	0.6502	0.2117	0.73537	-0.09
Mof_C 	C 	0.7767	0.1334	0.70907	-0.168
Mof_C 	C 	0.8259	0.0856	0.71007	0.112
Mof_C 	C 	0.9761	0.1757	0.0363	0.502
Mof_C 	C 	0.9107	0.2137	0.0415	-0.147
Mof_C 	C 	0.8289	0.1685	0.0746	0.032
Mof_C 	C 	0.7741	0.2072	0.0829	-0.11
Mof_C 	C 	0.7955	0.2931	0.0559	0.018
Mof_C 	C 	0.8717	0.3331	0.0207	-0.066
Mof_C 	C 	0.9302	0.2952	0.0141	-0.051
Mof_C 	C 	0.7435	0.3421	0.0697	0.034
Mof_C 	C 	0.7883	0.4385	0.0687	-0.101
Mof_C 	C 	0.8666	0.6433	0.0424	-0.17
Mof_C 	C 	0.9144	0.7403	0.0434	0.13
Mof_C 	C 	0.8243	0.8004	0.36963	0.441
Mof_C 	C 	0.7863	0.697	0.37483	-0.188
Mof_C 	C 	0.8315	0.6604	0.40793	0.079
Mof_C 	C 	0.7928	0.5669	0.41623	-0.147
Mof_C 	C 	0.7069	0.5024	0.38923	0.071
Mof_C 	C 	0.6669	0.5386	0.35403	-0.15
Mof_C 	C 	0.7048	0.635	0.34743	0.084
Mof_C 	C 	0.6579	0.4014	0.40303	0.02
Mof_C 	C 	0.5615	0.3498	0.40203	-0.091
Mof_C 	C 	0.3567	0.2233	0.37573	-0.163
Mof_C 	C 	0.2597	0.1741	0.37673	0.098
Mof_C 	C 	0.8004	0.9761	0.20297	0.531
Mof_C 	C 	0.697	0.9107	0.20817	-0.209
Mof_C 	C 	0.6604	0.8289	0.24127	0.095
Mof_C 	C 	0.5669	0.7741	0.24957	-0.159
Mof_C 	C 	0.5024	0.7955	0.22257	0.076
Mof_C 	C 	0.5386	0.8717	0.18737	-0.158
Mof_C 	C 	0.635	0.9302	0.18077	0.104
Mof_C 	C 	0.4014	0.7435	0.23637	0.016
Mof_C 	C 	0.3498	0.7883	0.23537	-0.09
Mof_C 	C 	0.2233	0.8666	0.20907	-0.16
Mof_C 	C 	0.1741	0.9144	0.21007	0.11
Mof_C 	C 	0.0239	0.8243	0.5363	0.332
Mof_C 	C 	0.0893	0.7863	0.5415	-0.153
Mof_C 	C 	0.1711	0.8315	0.5746	0.048
Mof_C 	C 	0.2259	0.7928	0.5829	-0.129
Mof_C 	C 	0.2045	0.7069	0.5559	0.055
Mof_C 	C 	0.1283	0.6669	0.5207	-0.136
Mof_C 	C 	0.0698	0.7048	0.5141	0.051
Mof_C 	C 	0.2565	0.6579	0.5697	0.022
Mof_C 	C 	0.2117	0.5615	0.5687	-0.093
Mof_C 	C 	0.1334	0.3567	0.5424	-0.166
Mof_C 	C 	0.0856	0.2597	0.5434	0.098
Mof_C 	C 	0.1757	0.1996	0.86963	0.427
Mof_C 	C 	0.2137	0.303	0.87483	-0.185
Mof_C 	C 	0.1685	0.3396	0.90793	0.07
Mof_C 	C 	0.2072	0.4331	0.91623	-0.149
Mof_C 	C 	0.2931	0.4976	0.88923	0.07
Mof_C 	C 	0.3331	0.4614	0.85403	-0.151
Mof_C 	C 	0.2952	0.365	0.84743	0.08
Mof_C 	C 	0.3421	0.5986	0.90303	0.008
Mof_C 	C 	0.4385	0.6502	0.90203	-0.077
Mof_C 	C 	0.6433	0.7767	0.87573	-0.166
Mof_C 	C 	0.7403	0.8259	0.87673	0.13
Mof_C 	C 	0.2931	0.64655	0.91667	-0.067
Mof_C 	C 	0.4885	0.74425	0.91667	0.013
Mof_C 	C 	0.5947	0.79735	0.91667	0.096
Mof_C 	C 	0.7897	0.89485	0.91667	-0.209
Mof_C 	C 	0.8947	0.94735	0.91667	0.613
Mof_C 	C 	0.35345	0.7069	0.58333	-0.092
Mof_C 	C 	0.25575	0.5115	0.58333	0.018
Mof_C 	C 	0.20265	0.4053	0.58333	0.074
Mof_C 	C 	0.10515	0.2103	0.58333	-0.205
Mof_C 	C 	0.05265	0.1053	0.58333	0.458
Mof_C 	C 	0.35345	0.64655	0.25	-0.09
Mof_C 	C 	0.25575	0.74425	0.25	0.018
Mof_C 	C 	0.20265	0.79735	0.25	0.079
Mof_C 	C 	0.10515	0.89485	0.25	-0.207
Mof_C 	C 	0.05265	0.94735	0.25	0.532
Mof_C 	C 	0.7069	0.35345	0.41667	-0.092
Mof_C 	C 	0.5115	0.25575	0.41667	0.018
Mof_C 	C 	0.4053	0.20265	0.41667	0.074
Mof_C 	C 	0.2103	0.10515	0.41667	-0.205
Mof_C 	C 	0.1053	0.05265	0.41667	0.458
Mof_C 	C 	0.64655	0.2931	0.08333	-0.098
Mof_C 	C 	0.74425	0.4885	0.08333	0.021
Mof_C 	C 	0.79735	0.5947	0.08333	0.087
Mof_C 	C 	0.89485	0.7897	0.08333	-0.225
Mof_C 	C 	0.94735	0.8947	0.08333	0.618
Mof_C 	C 	0.64655	0.35345	0.75	-0.087
Mof_C 	C 	0.74425	0.25575	0.75	0.019
Mof_C 	C 	0.79735	0.20265	0.75	0.083
Mof_C 	C 	0.89485	0.10515	0.75	-0.208
Mof_C 	C 	0.94735	0.05265	0.75	0.534
Mof_O 	O 	0.1089	0.9669	0.93164	-0.625
Mof_O 	O 	0.2102	0.041	0.9979	-0.574
Mof_O 	O 	0.9348	0.0057	0.95554	-0.58
Mof_O 	O 	0.858	0.8911	0.59831	-0.661
Mof_O 	O 	0.8308	0.7898	0.66457	-0.519
Mof_O 	O 	0.0709	0.0652	0.62221	-0.62
Mof_O 	O 	0.0331	0.142	0.26497	-0.653
Mof_O 	O 	0.959	0.1692	0.33123	-0.448
Mof_O 	O 	0.9943	0.9291	0.28887	-0.478
Mof_O 	O 	0.8911	0.0331	0.43164	-0.67
Mof_O 	O 	0.7898	0.959	0.4979	-0.477
Mof_O 	O 	0.0652	0.9943	0.45554	-0.565
Mof_O 	O 	0.142	0.1089	0.09831	-0.66
Mof_O 	O 	0.1692	0.2102	0.16457	-0.524
Mof_O 	O 	0.9291	0.9348	0.12221	-0.511
Mof_O 	O 	0.9669	0.858	0.76497	-0.615
Mof_O 	O 	0.041	0.8308	0.83123	-0.583
Mof_O 	O 	0.0057	0.0709	0.78887	-0.645
Mof_O 	O 	0.142	0.0331	0.73503	-0.655
Mof_O 	O 	0.1692	0.959	0.66877	-0.451
Mof_O 	O 	0.9291	0.9943	0.71113	-0.48
Mof_O 	O 	0.9669	0.1089	0.06836	-0.627
Mof_O 	O 	0.041	0.2102	0.0021	-0.62
Mof_O 	O 	0.0057	0.9348	0.04446	-0.62
Mof_O 	O 	0.8911	0.858	0.40169	-0.661
Mof_O 	O 	0.7898	0.8308	0.33543	-0.519
Mof_O 	O 	0.0652	0.0709	0.37779	-0.621
Mof_O 	O 	0.858	0.9669	0.23503	-0.613
Mof_O 	O 	0.8308	0.041	0.16877	-0.587
Mof_O 	O 	0.0709	0.0057	0.21113	-0.644
Mof_O 	O 	0.0331	0.8911	0.56836	-0.669
Mof_O 	O 	0.959	0.7898	0.5021	-0.476
Mof_O 	O 	0.9943	0.0652	0.54446	-0.564
Mof_O 	O 	0.1089	0.142	0.90169	-0.643
Mof_O 	O 	0.2102	0.1692	0.83543	-0.522
Mof_O 	O 	0.9348	0.9291	0.87779	-0.506
_end
