data_functionalizedCrystal
_audit_creation_method	'EQeq! by Chris Wilmer'
_symmetry_space_group_name_H-M	'P1'
_symmetry_Int_Tables_number	1
_symmetry_cell_setting	triclinic
loop_
_symmetry_equiv_pos_as_xyz
  x,y,z
_cell_length_a	26.38
_cell_length_b	26.38
_cell_length_c	28.24
_cell_angle_alpha	90
_cell_angle_beta	90
_cell_angle_gamma	90
loop_
_atom_site_label
_atom_site_type_symbol
_atom_site_fract_x
_atom_site_fract_y
_atom_site_fract_z
_atom_site_charge
Mof_N 	N 	0.60364	0.79418	0.19573	-0.217
Mof_O 	O 	0.52127	0.57122	0.14991	-0.422
Mof_O 	O 	0.52254	0.57046	0.22902	-0.412
Mof_O 	O 	0.48696	0.93478	0.04943	-0.424
Mof_O 	O 	0.56271	0.97266	0.04869	-0.419
Mof_C 	C 	0.52863	0.59138	0.18947	0.39
Mof_C 	C 	0.54678	0.64527	0.19066	-0.182
Mof_C 	C 	0.55548	0.66896	0.23339	0.123
Mof_H 	H 	0.5488	0.6518	0.2615	0.003
Mof_C 	C 	0.57425	0.71848	0.23491	-0.229
Mof_H 	H 	0.5807	0.7339	0.2639	0.113
Mof_C 	C 	0.58312	0.74412	0.19418	0.195
Mof_C 	C 	0.57312	0.72056	0.15113	-0.233
Mof_H 	H 	0.5791	0.7379	0.123	0.11
Mof_C 	C 	0.55468	0.67223	0.14972	0.132
Mof_H 	H 	0.5474	0.6574	0.1206	-0.007
Mof_C 	C 	0.53202	0.93966	0.06311	0.396
Mof_C 	C 	0.55005	0.90297	0.09896	-0.191
Mof_C 	C 	0.60046	0.90186	0.11271	0.133
Mof_H 	H 	0.6226	0.9256	0.0999	-0.004
Mof_C 	C 	0.61901	0.86708	0.14459	-0.233
Mof_H 	H 	0.6531	0.8671	0.1528	0.113
Mof_C 	C 	0.58588	0.83179	0.16437	0.196
Mof_C 	C 	0.5349	0.83371	0.15232	-0.234
Mof_H 	H 	0.5122	0.8111	0.1661	0.116
Mof_C 	C 	0.51783	0.86865	0.12023	0.137
Mof_H 	H 	0.4836	0.8693	0.1126	-0.004
Mof_C 	C 	0.64881	0.80114	0.22345	0.283
Mof_C 	C 	0.68533	0.76542	0.2242	-0.368
Mof_H 	H 	0.6812	0.7358	0.2067	0.16
Mof_C 	C 	0.4857	0.5391	0.3367	0.107
Mof_H 	H 	0.4746	0.5673	0.3199	0.003
Mof_N 	N 	0.4749	0.5887	0.4533	-0.24
Mof_C 	C 	0.4734	0.5925	0.4083	0.128
Mof_H 	H 	0.4659	0.6223	0.3922	-0.011
Mof_C 	C 	0.4852	0.5428	0.3843	-0.215
Mof_O 	O 	0.5145	0.5148	0.4565	-0.356
Mof_C 	C 	0.4407	0.631	0.4741	-0.104
Mof_H 	H 	0.4526	0.6637	0.4629	0.06
Mof_H 	H 	0.4063	0.6263	0.4629	0.05
Mof_N 	N 	0.39636	0.20582	0.19573	-0.216
Mof_O 	O 	0.47873	0.42878	0.14991	-0.421
Mof_O 	O 	0.47746	0.42954	0.22902	-0.412
Mof_O 	O 	0.51304	0.06522	0.04943	-0.437
Mof_O 	O 	0.43729	0.02734	0.04869	-0.442
Mof_C 	C 	0.47137	0.40862	0.18947	0.391
Mof_C 	C 	0.45322	0.35473	0.19066	-0.182
Mof_C 	C 	0.44452	0.33104	0.23339	0.124
Mof_H 	H 	0.4512	0.3482	0.2615	0.003
Mof_C 	C 	0.42575	0.28152	0.23491	-0.229
Mof_H 	H 	0.4193	0.2661	0.2639	0.112
Mof_C 	C 	0.41688	0.25588	0.19418	0.194
Mof_C 	C 	0.42688	0.27944	0.15113	-0.233
Mof_H 	H 	0.4209	0.2621	0.123	0.109
Mof_C 	C 	0.44532	0.32777	0.14972	0.132
Mof_H 	H 	0.4526	0.3426	0.1206	-0.008
Mof_C 	C 	0.46798	0.06034	0.06311	0.4
Mof_C 	C 	0.44995	0.09703	0.09896	-0.202
Mof_C 	C 	0.39954	0.09814	0.11271	0.137
Mof_H 	H 	0.3774	0.0744	0.0999	-0.012
Mof_C 	C 	0.38099	0.13292	0.14459	-0.24
Mof_H 	H 	0.3469	0.1329	0.1528	0.111
Mof_C 	C 	0.41412	0.16821	0.16437	0.198
Mof_C 	C 	0.4651	0.16629	0.15232	-0.24
Mof_H 	H 	0.4878	0.1889	0.1661	0.116
Mof_C 	C 	0.48217	0.13135	0.12023	0.141
Mof_H 	H 	0.5164	0.1307	0.1126	-0.011
Mof_C 	C 	0.35119	0.19886	0.22345	0.278
Mof_C 	C 	0.31467	0.23458	0.2242	-0.365
Mof_H 	H 	0.3188	0.2642	0.2067	0.157
Mof_C 	C 	0.5143	0.4609	0.3367	0.108
Mof_H 	H 	0.5254	0.4327	0.3199	0.003
Mof_N 	N 	0.5251	0.4113	0.4533	-0.24
Mof_C 	C 	0.5266	0.4075	0.4083	0.128
Mof_H 	H 	0.5341	0.3777	0.3922	-0.012
Mof_C 	C 	0.5148	0.4572	0.3843	-0.216
Mof_O 	O 	0.4855	0.4852	0.4565	-0.356
Mof_C 	C 	0.5593	0.369	0.4741	-0.104
Mof_H 	H 	0.5474	0.3363	0.4629	0.058
Mof_H 	H 	0.5937	0.3737	0.4629	0.049
Mof_N 	N 	0.20582	0.60364	0.19573	-0.216
Mof_O 	O 	0.42878	0.52127	0.14991	-0.421
Mof_O 	O 	0.42954	0.52254	0.22902	-0.411
Mof_O 	O 	0.06522	0.48696	0.04943	-0.437
Mof_O 	O 	0.02734	0.56271	0.04869	-0.442
Mof_C 	C 	0.40862	0.52863	0.18947	0.391
Mof_C 	C 	0.35473	0.54678	0.19066	-0.182
Mof_C 	C 	0.33104	0.55548	0.23339	0.124
Mof_H 	H 	0.3482	0.5488	0.2615	0.003
Mof_C 	C 	0.28152	0.57425	0.23491	-0.229
Mof_H 	H 	0.2661	0.5807	0.2639	0.113
Mof_C 	C 	0.25588	0.58312	0.19418	0.194
Mof_C 	C 	0.27944	0.57312	0.15113	-0.233
Mof_H 	H 	0.2621	0.5791	0.123	0.109
Mof_C 	C 	0.32777	0.55468	0.14972	0.132
Mof_H 	H 	0.3426	0.5474	0.1206	-0.008
Mof_C 	C 	0.06034	0.53202	0.06311	0.4
Mof_C 	C 	0.09703	0.55005	0.09896	-0.202
Mof_C 	C 	0.09814	0.60046	0.11271	0.137
Mof_H 	H 	0.0744	0.6226	0.0999	-0.012
Mof_C 	C 	0.13292	0.61901	0.14459	-0.24
Mof_H 	H 	0.1329	0.6531	0.1528	0.112
Mof_C 	C 	0.16821	0.58588	0.16437	0.198
Mof_C 	C 	0.16629	0.5349	0.15232	-0.24
Mof_H 	H 	0.1889	0.5122	0.1661	0.116
Mof_C 	C 	0.13135	0.51783	0.12023	0.141
Mof_H 	H 	0.1307	0.4836	0.1126	-0.011
Mof_C 	C 	0.19886	0.64881	0.22345	0.279
Mof_C 	C 	0.23458	0.68533	0.2242	-0.364
Mof_H 	H 	0.2642	0.6812	0.2067	0.159
Mof_C 	C 	0.4609	0.4857	0.3367	0.108
Mof_H 	H 	0.4327	0.4746	0.3199	0.003
Mof_N 	N 	0.4113	0.4749	0.4533	-0.24
Mof_C 	C 	0.4075	0.4734	0.4083	0.128
Mof_H 	H 	0.3777	0.4659	0.3922	-0.012
Mof_C 	C 	0.4572	0.4852	0.3843	-0.216
Mof_O 	O 	0.4852	0.5145	0.4565	-0.356
Mof_C 	C 	0.369	0.4407	0.4741	-0.104
Mof_H 	H 	0.3363	0.4526	0.4629	0.058
Mof_H 	H 	0.3737	0.4063	0.4629	0.049
Mof_N 	N 	0.79418	0.39636	0.19573	-0.216
Mof_O 	O 	0.57122	0.47873	0.14991	-0.421
Mof_O 	O 	0.57046	0.47746	0.22902	-0.411
Mof_O 	O 	0.93478	0.51304	0.04943	-0.423
Mof_O 	O 	0.97266	0.43729	0.04869	-0.418
Mof_C 	C 	0.59138	0.47137	0.18947	0.391
Mof_C 	C 	0.64527	0.45322	0.19066	-0.182
Mof_C 	C 	0.66896	0.44452	0.23339	0.124
Mof_H 	H 	0.6518	0.4512	0.2615	0.003
Mof_C 	C 	0.71848	0.42575	0.23491	-0.229
Mof_H 	H 	0.7339	0.4193	0.2639	0.113
Mof_C 	C 	0.74412	0.41688	0.19418	0.194
Mof_C 	C 	0.72056	0.42688	0.15113	-0.233
Mof_H 	H 	0.7379	0.4209	0.123	0.109
Mof_C 	C 	0.67223	0.44532	0.14972	0.132
Mof_H 	H 	0.6574	0.4526	0.1206	-0.008
Mof_C 	C 	0.93966	0.46798	0.06311	0.396
Mof_C 	C 	0.90297	0.44995	0.09896	-0.191
Mof_C 	C 	0.90186	0.39954	0.11271	0.132
Mof_H 	H 	0.9256	0.3774	0.0999	-0.004
Mof_C 	C 	0.86708	0.38099	0.14459	-0.233
Mof_H 	H 	0.8671	0.3469	0.1528	0.112
Mof_C 	C 	0.83179	0.41412	0.16437	0.196
Mof_C 	C 	0.83371	0.4651	0.15232	-0.234
Mof_H 	H 	0.8111	0.4878	0.1661	0.116
Mof_C 	C 	0.86865	0.48217	0.12023	0.137
Mof_H 	H 	0.8693	0.5164	0.1126	-0.004
Mof_C 	C 	0.80114	0.35119	0.22345	0.283
Mof_C 	C 	0.76542	0.31467	0.2242	-0.369
Mof_H 	H 	0.7358	0.3188	0.2067	0.159
Mof_C 	C 	0.5391	0.5143	0.3367	0.107
Mof_H 	H 	0.5673	0.5254	0.3199	0.003
Mof_N 	N 	0.5887	0.5251	0.4533	-0.24
Mof_C 	C 	0.5925	0.5266	0.4083	0.128
Mof_H 	H 	0.6223	0.5341	0.3922	-0.012
Mof_C 	C 	0.5428	0.5148	0.3843	-0.215
Mof_O 	O 	0.5148	0.4855	0.4565	-0.356
Mof_C 	C 	0.631	0.5593	0.4741	-0.104
Mof_H 	H 	0.6637	0.5474	0.4629	0.06
Mof_H 	H 	0.6263	0.5937	0.4629	0.05
Mof_N 	N 	0.89636	0.29418	0.30427	-0.222
Mof_O 	O 	0.97873	0.07122	0.35009	-0.407
Mof_O 	O 	0.97746	0.07046	0.27098	-0.401
Mof_O 	O 	0.01304	0.43478	0.45057	-0.451
Mof_O 	O 	0.93729	0.47266	0.45131	-0.426
Mof_C 	C 	0.97137	0.09138	0.31053	0.387
Mof_C 	C 	0.95322	0.14527	0.30934	-0.175
Mof_C 	C 	0.94452	0.16896	0.26661	0.122
Mof_H 	H 	0.9512	0.1518	0.2385	0.006
Mof_C 	C 	0.92575	0.21848	0.26509	-0.227
Mof_H 	H 	0.9193	0.2339	0.2361	0.113
Mof_C 	C 	0.91688	0.24412	0.30582	0.196
Mof_C 	C 	0.92688	0.22056	0.34887	-0.231
Mof_H 	H 	0.9209	0.2379	0.377	0.116
Mof_C 	C 	0.94532	0.17223	0.35028	0.131
Mof_H 	H 	0.9526	0.1574	0.3794	0.001
Mof_C 	C 	0.96798	0.43966	0.43689	0.453
Mof_C 	C 	0.94995	0.40297	0.40104	-0.247
Mof_C 	C 	0.89954	0.40186	0.38729	0.181
Mof_H 	H 	0.8774	0.4256	0.4001	-0.017
Mof_C 	C 	0.88099	0.36708	0.35541	-0.271
Mof_H 	H 	0.8469	0.3671	0.3472	0.128
Mof_C 	C 	0.91412	0.33179	0.33563	0.233
Mof_C 	C 	0.9651	0.33371	0.34768	-0.299
Mof_H 	H 	0.9878	0.3111	0.3339	0.146
Mof_C 	C 	0.98217	0.36865	0.37977	0.247
Mof_H 	H 	0.0164	0.3693	0.3874	-0.06
Mof_C 	C 	0.85119	0.30114	0.27655	0.284
Mof_C 	C 	0.81467	0.26542	0.2758	-0.369
Mof_H 	H 	0.8188	0.2358	0.2933	0.16
Mof_C 	C 	0.0143	0.0391	0.1633	0.069
Mof_H 	H 	0.0254	0.0673	0.1801	0.007
Mof_N 	N 	0.0251	0.0887	0.0467	-0.238
Mof_C 	C 	0.0266	0.0925	0.0917	0.108
Mof_H 	H 	0.0341	0.1223	0.1078	-0.014
Mof_C 	C 	0.0148	0.0428	0.1157	-0.193
Mof_O 	O 	0.9855	0.0148	0.0435	-0.347
Mof_C 	C 	0.0593	0.131	0.0259	-0.198
Mof_H 	H 	0.0474	0.1637	0.0371	0.068
Mof_H 	H 	0.0937	0.1263	0.0371	0.061
Mof_N 	N 	0.10364	0.70582	0.30427	-0.21
Mof_O 	O 	0.02127	0.92878	0.35009	-0.41
Mof_O 	O 	0.02254	0.92954	0.27098	-0.407
Mof_O 	O 	0.98696	0.56522	0.45057	-0.383
Mof_O 	O 	0.06271	0.52734	0.45131	-0.407
Mof_C 	C 	0.02863	0.90862	0.31053	0.388
Mof_C 	C 	0.04678	0.85473	0.30934	-0.178
Mof_C 	C 	0.05548	0.83104	0.26661	0.121
Mof_H 	H 	0.0488	0.8482	0.2385	-0.001
Mof_C 	C 	0.07425	0.78152	0.26509	-0.228
Mof_H 	H 	0.0807	0.7661	0.2361	0.109
Mof_C 	C 	0.08312	0.75588	0.30582	0.192
Mof_C 	C 	0.07312	0.77944	0.34887	-0.229
Mof_H 	H 	0.0791	0.7621	0.377	0.114
Mof_C 	C 	0.05468	0.82777	0.35028	0.13
Mof_H 	H 	0.0474	0.8426	0.3794	-0.001
Mof_C 	C 	0.03202	0.56034	0.43689	0.341
Mof_C 	C 	0.05005	0.59703	0.40104	-0.13
Mof_C 	C 	0.10046	0.59814	0.38729	0.085
Mof_H 	H 	0.1226	0.5744	0.4001	0.014
Mof_C 	C 	0.11901	0.63292	0.35541	-0.191
Mof_H 	H 	0.1531	0.6329	0.3472	0.1
Mof_C 	C 	0.08588	0.66821	0.33563	0.16
Mof_C 	C 	0.0349	0.66629	0.34768	-0.166
Mof_H 	H 	0.0122	0.6889	0.3339	0.087
Mof_C 	C 	0.01783	0.63135	0.37977	0.029
Mof_H 	H 	0.9836	0.6307	0.3874	0.054
Mof_C 	C 	0.14881	0.69886	0.27655	0.279
Mof_C 	C 	0.18533	0.73458	0.2758	-0.364
Mof_H 	H 	0.1812	0.7642	0.2933	0.162
Mof_C 	C 	0.9857	0.9609	0.1633	0.136
Mof_H 	H 	0.9746	0.9327	0.1801	0.002
Mof_N 	N 	0.9749	0.9113	0.0467	-0.233
Mof_C 	C 	0.9734	0.9075	0.0917	0.112
Mof_H 	H 	0.9659	0.8777	0.1078	-0.004
Mof_C 	C 	0.9852	0.9572	0.1157	-0.165
Mof_O 	O 	0.0145	0.9852	0.0435	-0.365
Mof_C 	C 	0.9407	0.869	0.0259	-0.198
Mof_H 	H 	0.9526	0.8363	0.0371	0.078
Mof_H 	H 	0.9063	0.8737	0.0371	0.068
Mof_N 	N 	0.29418	0.10364	0.30427	-0.21
Mof_O 	O 	0.07122	0.02127	0.35009	-0.428
Mof_O 	O 	0.07046	0.02254	0.27098	-0.423
Mof_O 	O 	0.43478	0.98696	0.45057	-0.383
Mof_O 	O 	0.47266	0.06271	0.45131	-0.407
Mof_C 	C 	0.09138	0.02863	0.31053	0.39
Mof_C 	C 	0.14527	0.04678	0.30934	-0.186
Mof_C 	C 	0.16896	0.05548	0.26661	0.123
Mof_H 	H 	0.1518	0.0488	0.2385	-0.003
Mof_C 	C 	0.21848	0.07425	0.26509	-0.232
Mof_H 	H 	0.2339	0.0807	0.2361	0.109
Mof_C 	C 	0.24412	0.08312	0.30582	0.193
Mof_C 	C 	0.22056	0.07312	0.34887	-0.234
Mof_H 	H 	0.2379	0.0791	0.377	0.113
Mof_C 	C 	0.17223	0.05468	0.35028	0.132
Mof_H 	H 	0.1574	0.0474	0.3794	-0.006
Mof_C 	C 	0.43966	0.03202	0.43689	0.34
Mof_C 	C 	0.40297	0.05005	0.40104	-0.129
Mof_C 	C 	0.40186	0.10046	0.38729	0.083
Mof_H 	H 	0.4256	0.1226	0.4001	0.014
Mof_C 	C 	0.36708	0.11901	0.35541	-0.191
Mof_H 	H 	0.3671	0.1531	0.3472	0.099
Mof_C 	C 	0.33179	0.08588	0.33563	0.159
Mof_C 	C 	0.33371	0.0349	0.34768	-0.165
Mof_H 	H 	0.3111	0.0122	0.3339	0.086
Mof_C 	C 	0.36865	0.01783	0.37977	0.026
Mof_H 	H 	0.3693	0.9836	0.3874	0.056
Mof_C 	C 	0.30114	0.14881	0.27655	0.278
Mof_C 	C 	0.26542	0.18533	0.2758	-0.364
Mof_H 	H 	0.2358	0.1812	0.2933	0.158
Mof_C 	C 	0.0391	0.9857	0.1633	0.108
Mof_H 	H 	0.0673	0.9746	0.1801	0.007
Mof_N 	N 	0.0887	0.9749	0.0467	-0.23
Mof_C 	C 	0.0925	0.9734	0.0917	0.112
Mof_H 	H 	0.1223	0.9659	0.1078	-0.005
Mof_C 	C 	0.0428	0.9852	0.1157	-0.174
Mof_O 	O 	0.0148	0.0145	0.0435	-0.392
Mof_C 	C 	0.131	0.9407	0.0259	-0.198
Mof_H 	H 	0.1637	0.9526	0.0371	0.078
Mof_H 	H 	0.1263	0.9063	0.0371	0.063
Mof_N 	N 	0.70582	0.89636	0.30427	-0.221
Mof_O 	O 	0.92878	0.97873	0.35009	-0.391
Mof_O 	O 	0.92954	0.97746	0.27098	-0.388
Mof_O 	O 	0.56522	0.01304	0.45057	-0.45
Mof_O 	O 	0.52734	0.93729	0.45131	-0.426
Mof_C 	C 	0.90862	0.97137	0.31053	0.385
Mof_C 	C 	0.85473	0.95322	0.30934	-0.169
Mof_C 	C 	0.83104	0.94452	0.26661	0.12
Mof_H 	H 	0.8482	0.9512	0.2385	0.008
Mof_C 	C 	0.78152	0.92575	0.26509	-0.224
Mof_H 	H 	0.7661	0.9193	0.2361	0.112
Mof_C 	C 	0.75588	0.91688	0.30582	0.195
Mof_C 	C 	0.77944	0.92688	0.34887	-0.227
Mof_H 	H 	0.7621	0.9209	0.377	0.116
Mof_C 	C 	0.82777	0.94532	0.35028	0.129
Mof_H 	H 	0.8426	0.9526	0.3794	0.006
Mof_C 	C 	0.56034	0.96798	0.43689	0.453
Mof_C 	C 	0.59703	0.94995	0.40104	-0.245
Mof_C 	C 	0.59814	0.89954	0.38729	0.18
Mof_H 	H 	0.5744	0.8774	0.4001	-0.016
Mof_C 	C 	0.63292	0.88099	0.35541	-0.27
Mof_H 	H 	0.6329	0.8469	0.3472	0.128
Mof_C 	C 	0.66821	0.91412	0.33563	0.232
Mof_C 	C 	0.66629	0.9651	0.34768	-0.297
Mof_H 	H 	0.6889	0.9878	0.3339	0.145
Mof_C 	C 	0.63135	0.98217	0.37977	0.245
Mof_H 	H 	0.6307	0.0164	0.3874	-0.058
Mof_C 	C 	0.69886	0.85119	0.27655	0.285
Mof_C 	C 	0.73458	0.81467	0.2758	-0.369
Mof_H 	H 	0.7642	0.8188	0.2933	0.164
Mof_C 	C 	0.9609	0.0143	0.1633	0.112
Mof_H 	H 	0.9327	0.0254	0.1801	-0.002
Mof_N 	N 	0.9113	0.0251	0.0467	-0.24
Mof_C 	C 	0.9075	0.0266	0.0917	0.109
Mof_H 	H 	0.8777	0.0341	0.1078	-0.012
Mof_C 	C 	0.9572	0.0148	0.1157	-0.183
Mof_O 	O 	0.9852	0.9855	0.0435	-0.278
Mof_C 	C 	0.869	0.0593	0.0259	-0.197
Mof_H 	H 	0.8363	0.0474	0.0371	0.069
Mof_H 	H 	0.8737	0.0937	0.0371	0.067
Mof_N 	N 	0.39636	0.20582	0.80427	-0.215
Mof_O 	O 	0.47873	0.42878	0.85009	-0.409
Mof_O 	O 	0.47746	0.42954	0.77098	-0.41
Mof_O 	O 	0.51304	0.06522	0.95057	-0.398
Mof_O 	O 	0.43729	0.02734	0.95131	-0.403
Mof_C 	C 	0.47137	0.40862	0.81053	0.389
Mof_C 	C 	0.45322	0.35473	0.80934	-0.175
Mof_C 	C 	0.44452	0.33104	0.76661	0.122
Mof_H 	H 	0.4512	0.3482	0.7385	0.004
Mof_C 	C 	0.42575	0.28152	0.76509	-0.228
Mof_H 	H 	0.4193	0.2661	0.7361	0.112
Mof_C 	C 	0.41688	0.25588	0.80582	0.195
Mof_C 	C 	0.42688	0.27944	0.84887	-0.229
Mof_H 	H 	0.4209	0.2621	0.877	0.121
Mof_C 	C 	0.44532	0.32777	0.85028	0.132
Mof_H 	H 	0.4526	0.3426	0.8794	0.006
Mof_C 	C 	0.46798	0.06034	0.93689	0.393
Mof_C 	C 	0.44995	0.09703	0.90104	-0.181
Mof_C 	C 	0.39954	0.09814	0.88729	0.13
Mof_H 	H 	0.3774	0.0744	0.9001	0.003
Mof_C 	C 	0.38099	0.13292	0.85541	-0.227
Mof_H 	H 	0.3469	0.1329	0.8472	0.114
Mof_C 	C 	0.41412	0.16821	0.83563	0.195
Mof_C 	C 	0.4651	0.16629	0.84768	-0.228
Mof_H 	H 	0.4878	0.1889	0.8339	0.116
Mof_C 	C 	0.48217	0.13135	0.87977	0.134
Mof_H 	H 	0.5164	0.1307	0.8874	0.002
Mof_C 	C 	0.35119	0.19886	0.77655	0.281
Mof_C 	C 	0.31467	0.23458	0.7758	-0.365
Mof_H 	H 	0.3188	0.2642	0.7933	0.163
Mof_C 	C 	0.5143	0.4609	0.6633	0.107
Mof_H 	H 	0.5254	0.4327	0.6801	0.003
Mof_N 	N 	0.5251	0.4113	0.5467	-0.24
Mof_C 	C 	0.5266	0.4075	0.5917	0.128
Mof_H 	H 	0.5341	0.3777	0.6078	-0.012
Mof_C 	C 	0.5148	0.4572	0.6157	-0.215
Mof_O 	O 	0.4855	0.4852	0.5435	-0.356
Mof_C 	C 	0.5593	0.369	0.5259	-0.104
Mof_H 	H 	0.5474	0.3363	0.5371	0.058
Mof_H 	H 	0.5937	0.3737	0.5371	0.049
Mof_N 	N 	0.60364	0.79418	0.80427	-0.215
Mof_O 	O 	0.52127	0.57122	0.85009	-0.409
Mof_O 	O 	0.52254	0.57046	0.77098	-0.41
Mof_O 	O 	0.48696	0.93478	0.95057	-0.384
Mof_O 	O 	0.56271	0.97266	0.95131	-0.379
Mof_C 	C 	0.52863	0.59138	0.81053	0.389
Mof_C 	C 	0.54678	0.64527	0.80934	-0.175
Mof_C 	C 	0.55548	0.66896	0.76661	0.123
Mof_H 	H 	0.5488	0.6518	0.7385	0.004
Mof_C 	C 	0.57425	0.71848	0.76509	-0.227
Mof_H 	H 	0.5807	0.7339	0.7361	0.113
Mof_C 	C 	0.58312	0.74412	0.80582	0.196
Mof_C 	C 	0.57312	0.72056	0.84887	-0.229
Mof_H 	H 	0.5791	0.7379	0.877	0.122
Mof_C 	C 	0.55468	0.67223	0.85028	0.133
Mof_H 	H 	0.5474	0.6574	0.8794	0.007
Mof_C 	C 	0.53202	0.93966	0.93689	0.39
Mof_C 	C 	0.55005	0.90297	0.90104	-0.17
Mof_C 	C 	0.60046	0.90186	0.88729	0.126
Mof_H 	H 	0.6226	0.9256	0.9001	0.011
Mof_C 	C 	0.61901	0.86708	0.85541	-0.22
Mof_H 	H 	0.6531	0.8671	0.8472	0.116
Mof_C 	C 	0.58588	0.83179	0.83563	0.194
Mof_C 	C 	0.5349	0.83371	0.84768	-0.222
Mof_H 	H 	0.5122	0.8111	0.8339	0.117
Mof_C 	C 	0.51783	0.86865	0.87977	0.13
Mof_H 	H 	0.4836	0.8693	0.8874	0.008
Mof_C 	C 	0.64881	0.80114	0.77655	0.286
Mof_C 	C 	0.68533	0.76542	0.7758	-0.369
Mof_H 	H 	0.6812	0.7358	0.7933	0.166
Mof_C 	C 	0.4857	0.5391	0.6633	0.107
Mof_H 	H 	0.4746	0.5673	0.6801	0.003
Mof_N 	N 	0.4749	0.5887	0.5467	-0.24
Mof_C 	C 	0.4734	0.5925	0.5917	0.128
Mof_H 	H 	0.4659	0.6223	0.6078	-0.011
Mof_C 	C 	0.4852	0.5428	0.6157	-0.215
Mof_O 	O 	0.5145	0.5148	0.5435	-0.356
Mof_C 	C 	0.4407	0.631	0.5259	-0.104
Mof_H 	H 	0.4526	0.6637	0.5371	0.06
Mof_H 	H 	0.4063	0.6263	0.5371	0.05
Mof_N 	N 	0.79418	0.39636	0.80427	-0.215
Mof_O 	O 	0.57122	0.47873	0.85009	-0.409
Mof_O 	O 	0.57046	0.47746	0.77098	-0.41
Mof_O 	O 	0.93478	0.51304	0.95057	-0.384
Mof_O 	O 	0.97266	0.43729	0.95131	-0.379
Mof_C 	C 	0.59138	0.47137	0.81053	0.389
Mof_C 	C 	0.64527	0.45322	0.80934	-0.175
Mof_C 	C 	0.66896	0.44452	0.76661	0.123
Mof_H 	H 	0.6518	0.4512	0.7385	0.004
Mof_C 	C 	0.71848	0.42575	0.76509	-0.227
Mof_H 	H 	0.7339	0.4193	0.7361	0.113
Mof_C 	C 	0.74412	0.41688	0.80582	0.196
Mof_C 	C 	0.72056	0.42688	0.84887	-0.229
Mof_H 	H 	0.7379	0.4209	0.877	0.121
Mof_C 	C 	0.67223	0.44532	0.85028	0.132
Mof_H 	H 	0.6574	0.4526	0.8794	0.007
Mof_C 	C 	0.93966	0.46798	0.93689	0.389
Mof_C 	C 	0.90297	0.44995	0.90104	-0.17
Mof_C 	C 	0.90186	0.39954	0.88729	0.126
Mof_H 	H 	0.9256	0.3774	0.9001	0.011
Mof_C 	C 	0.86708	0.38099	0.85541	-0.22
Mof_H 	H 	0.8671	0.3469	0.8472	0.115
Mof_C 	C 	0.83179	0.41412	0.83563	0.193
Mof_C 	C 	0.83371	0.4651	0.84768	-0.222
Mof_H 	H 	0.8111	0.4878	0.8339	0.117
Mof_C 	C 	0.86865	0.48217	0.87977	0.13
Mof_H 	H 	0.8693	0.5164	0.8874	0.008
Mof_C 	C 	0.80114	0.35119	0.77655	0.285
Mof_C 	C 	0.76542	0.31467	0.7758	-0.369
Mof_H 	H 	0.7358	0.3188	0.7933	0.164
Mof_C 	C 	0.5391	0.5143	0.6633	0.107
Mof_H 	H 	0.5673	0.5254	0.6801	0.003
Mof_N 	N 	0.5887	0.5251	0.5467	-0.24
Mof_C 	C 	0.5925	0.5266	0.5917	0.128
Mof_H 	H 	0.6223	0.5341	0.6078	-0.011
Mof_C 	C 	0.5428	0.5148	0.6157	-0.215
Mof_O 	O 	0.5148	0.4855	0.5435	-0.356
Mof_C 	C 	0.631	0.5593	0.5259	-0.104
Mof_H 	H 	0.6637	0.5474	0.5371	0.06
Mof_H 	H 	0.6263	0.5937	0.5371	0.05
Mof_N 	N 	0.20582	0.60364	0.80427	-0.215
Mof_O 	O 	0.42878	0.52127	0.85009	-0.409
Mof_O 	O 	0.42954	0.52254	0.77098	-0.41
Mof_O 	O 	0.06522	0.48696	0.95057	-0.398
Mof_O 	O 	0.02734	0.56271	0.95131	-0.403
Mof_C 	C 	0.40862	0.52863	0.81053	0.389
Mof_C 	C 	0.35473	0.54678	0.80934	-0.175
Mof_C 	C 	0.33104	0.55548	0.76661	0.123
Mof_H 	H 	0.3482	0.5488	0.7385	0.004
Mof_C 	C 	0.28152	0.57425	0.76509	-0.228
Mof_H 	H 	0.2661	0.5807	0.7361	0.112
Mof_C 	C 	0.25588	0.58312	0.80582	0.196
Mof_C 	C 	0.27944	0.57312	0.84887	-0.229
Mof_H 	H 	0.2621	0.5791	0.877	0.121
Mof_C 	C 	0.32777	0.55468	0.85028	0.132
Mof_H 	H 	0.3426	0.5474	0.8794	0.006
Mof_C 	C 	0.06034	0.53202	0.93689	0.393
Mof_C 	C 	0.09703	0.55005	0.90104	-0.181
Mof_C 	C 	0.09814	0.60046	0.88729	0.13
Mof_H 	H 	0.0744	0.6226	0.9001	0.003
Mof_C 	C 	0.13292	0.61901	0.85541	-0.227
Mof_H 	H 	0.1329	0.6531	0.8472	0.115
Mof_C 	C 	0.16821	0.58588	0.83563	0.195
Mof_C 	C 	0.16629	0.5349	0.84768	-0.228
Mof_H 	H 	0.1889	0.5122	0.8339	0.116
Mof_C 	C 	0.13135	0.51783	0.87977	0.134
Mof_H 	H 	0.1307	0.4836	0.8874	0.002
Mof_C 	C 	0.19886	0.64881	0.77655	0.282
Mof_C 	C 	0.23458	0.68533	0.7758	-0.365
Mof_H 	H 	0.2642	0.6812	0.7933	0.164
Mof_C 	C 	0.4609	0.4857	0.6633	0.108
Mof_H 	H 	0.4327	0.4746	0.6801	0.003
Mof_N 	N 	0.4113	0.4749	0.5467	-0.24
Mof_C 	C 	0.4075	0.4734	0.5917	0.128
Mof_H 	H 	0.3777	0.4659	0.6078	-0.012
Mof_C 	C 	0.4572	0.4852	0.6157	-0.216
Mof_O 	O 	0.4852	0.5145	0.5435	-0.356
Mof_C 	C 	0.369	0.4407	0.5259	-0.104
Mof_H 	H 	0.3363	0.4526	0.5371	0.059
Mof_H 	H 	0.3737	0.4063	0.5371	0.049
Mof_N 	N 	0.10364	0.70582	0.69573	-0.21
Mof_O 	O 	0.02127	0.92878	0.64991	-0.41
Mof_O 	O 	0.02254	0.92954	0.72902	-0.406
Mof_O 	O 	0.98696	0.56522	0.54943	-0.383
Mof_O 	O 	0.06271	0.52734	0.54869	-0.407
Mof_C 	C 	0.02863	0.90862	0.68947	0.388
Mof_C 	C 	0.04678	0.85473	0.69066	-0.178
Mof_C 	C 	0.05548	0.83104	0.73339	0.123
Mof_H 	H 	0.0488	0.8482	0.7615	0.002
Mof_C 	C 	0.07425	0.78152	0.73491	-0.228
Mof_H 	H 	0.0807	0.7661	0.7639	0.113
Mof_C 	C 	0.08312	0.75588	0.69418	0.193
Mof_C 	C 	0.07312	0.77944	0.65113	-0.23
Mof_H 	H 	0.0791	0.7621	0.623	0.114
Mof_C 	C 	0.05468	0.82777	0.64972	0.131
Mof_H 	H 	0.0474	0.8426	0.6206	-0.001
Mof_C 	C 	0.03202	0.56034	0.56311	0.341
Mof_C 	C 	0.05005	0.59703	0.59896	-0.13
Mof_C 	C 	0.10046	0.59814	0.61271	0.085
Mof_H 	H 	0.1226	0.5744	0.5999	0.014
Mof_C 	C 	0.11901	0.63292	0.64459	-0.192
Mof_H 	H 	0.1531	0.6329	0.6528	0.1
Mof_C 	C 	0.08588	0.66821	0.66437	0.16
Mof_C 	C 	0.0349	0.66629	0.65232	-0.167
Mof_H 	H 	0.0122	0.6889	0.6661	0.088
Mof_C 	C 	0.01783	0.63135	0.62023	0.03
Mof_H 	H 	0.9836	0.6307	0.6126	0.055
Mof_C 	C 	0.14881	0.69886	0.72345	0.281
Mof_C 	C 	0.18533	0.73458	0.7242	-0.364
Mof_H 	H 	0.1812	0.7642	0.7067	0.163
Mof_C 	C 	0.9857	0.9609	0.8367	0.132
Mof_H 	H 	0.9746	0.9327	0.8199	0.005
Mof_N 	N 	0.9749	0.9113	0.9533	-0.228
Mof_C 	C 	0.9734	0.9075	0.9083	0.113
Mof_H 	H 	0.9659	0.8777	0.8922	0.002
Mof_C 	C 	0.9852	0.9572	0.8843	-0.155
Mof_O 	O 	0.0145	0.9852	0.9565	-0.352
Mof_C 	C 	0.9407	0.869	0.9741	-0.009
Mof_H 	H 	0.9526	0.8363	0.9629	0.05
Mof_H 	H 	0.9063	0.8737	0.9629	0.039
Mof_N 	N 	0.89636	0.29418	0.69573	-0.222
Mof_O 	O 	0.97873	0.07122	0.64991	-0.407
Mof_O 	O 	0.97746	0.07046	0.72902	-0.4
Mof_O 	O 	0.01304	0.43478	0.54943	-0.45
Mof_O 	O 	0.93729	0.47266	0.54869	-0.426
Mof_C 	C 	0.97137	0.09138	0.68947	0.387
Mof_C 	C 	0.95322	0.14527	0.69066	-0.175
Mof_C 	C 	0.94452	0.16896	0.73339	0.123
Mof_H 	H 	0.9512	0.1518	0.7615	0.008
Mof_C 	C 	0.92575	0.21848	0.73491	-0.227
Mof_H 	H 	0.9193	0.2339	0.7639	0.117
Mof_C 	C 	0.91688	0.24412	0.69418	0.197
Mof_C 	C 	0.92688	0.22056	0.65113	-0.231
Mof_H 	H 	0.9209	0.2379	0.623	0.116
Mof_C 	C 	0.94532	0.17223	0.64972	0.132
Mof_H 	H 	0.9526	0.1574	0.6206	0.001
Mof_C 	C 	0.96798	0.43966	0.56311	0.454
Mof_C 	C 	0.94995	0.40297	0.59896	-0.247
Mof_C 	C 	0.89954	0.40186	0.61271	0.181
Mof_H 	H 	0.8774	0.4256	0.5999	-0.017
Mof_C 	C 	0.88099	0.36708	0.64459	-0.271
Mof_H 	H 	0.8469	0.3671	0.6528	0.128
Mof_C 	C 	0.91412	0.33179	0.66437	0.233
Mof_C 	C 	0.9651	0.33371	0.65232	-0.299
Mof_H 	H 	0.9878	0.3111	0.6661	0.147
Mof_C 	C 	0.98217	0.36865	0.62023	0.247
Mof_H 	H 	0.0164	0.3693	0.6126	-0.059
Mof_C 	C 	0.85119	0.30114	0.72345	0.286
Mof_C 	C 	0.81467	0.26542	0.7242	-0.37
Mof_H 	H 	0.8188	0.2358	0.7067	0.161
Mof_C 	C 	0.0143	0.0391	0.8367	0.066
Mof_H 	H 	0.0254	0.0673	0.8199	0.01
Mof_N 	N 	0.0251	0.0887	0.9533	-0.234
Mof_C 	C 	0.0266	0.0925	0.9083	0.109
Mof_H 	H 	0.0341	0.1223	0.8922	-0.008
Mof_C 	C 	0.0148	0.0428	0.8843	-0.184
Mof_O 	O 	0.9855	0.0148	0.9565	-0.333
Mof_C 	C 	0.0593	0.131	0.9741	-0.009
Mof_H 	H 	0.0474	0.1637	0.9629	0.04
Mof_H 	H 	0.0937	0.1263	0.9629	0.032
Mof_N 	N 	0.70582	0.89636	0.69573	-0.221
Mof_O 	O 	0.92878	0.97873	0.64991	-0.391
Mof_O 	O 	0.92954	0.97746	0.72902	-0.387
Mof_O 	O 	0.56522	0.01304	0.54943	-0.45
Mof_O 	O 	0.52734	0.93729	0.54869	-0.426
Mof_C 	C 	0.90862	0.97137	0.68947	0.386
Mof_C 	C 	0.85473	0.95322	0.69066	-0.169
Mof_C 	C 	0.83104	0.94452	0.73339	0.122
Mof_H 	H 	0.8482	0.9512	0.7615	0.01
Mof_C 	C 	0.78152	0.92575	0.73491	-0.224
Mof_H 	H 	0.7661	0.9193	0.7639	0.116
Mof_C 	C 	0.75588	0.91688	0.69418	0.196
Mof_C 	C 	0.77944	0.92688	0.65113	-0.227
Mof_H 	H 	0.7621	0.9209	0.623	0.117
Mof_C 	C 	0.82777	0.94532	0.64972	0.13
Mof_H 	H 	0.8426	0.9526	0.6206	0.006
Mof_C 	C 	0.56034	0.96798	0.56311	0.453
Mof_C 	C 	0.59703	0.94995	0.59896	-0.245
Mof_C 	C 	0.59814	0.89954	0.61271	0.18
Mof_H 	H 	0.5744	0.8774	0.5999	-0.016
Mof_C 	C 	0.63292	0.88099	0.64459	-0.27
Mof_H 	H 	0.6329	0.8469	0.6528	0.128
Mof_C 	C 	0.66821	0.91412	0.66437	0.233
Mof_C 	C 	0.66629	0.9651	0.65232	-0.298
Mof_H 	H 	0.6889	0.9878	0.6661	0.146
Mof_C 	C 	0.63135	0.98217	0.62023	0.245
Mof_H 	H 	0.6307	0.0164	0.6126	-0.058
Mof_C 	C 	0.69886	0.85119	0.72345	0.286
Mof_C 	C 	0.73458	0.81467	0.7242	-0.37
Mof_H 	H 	0.7642	0.8188	0.7067	0.165
Mof_C 	C 	0.9609	0.0143	0.8367	0.108
Mof_H 	H 	0.9327	0.0254	0.8199	0.001
Mof_N 	N 	0.9113	0.0251	0.9533	-0.235
Mof_C 	C 	0.9075	0.0266	0.9083	0.11
Mof_H 	H 	0.8777	0.0341	0.8922	-0.007
Mof_C 	C 	0.9572	0.0148	0.8843	-0.174
Mof_O 	O 	0.9852	0.9855	0.9565	-0.264
Mof_C 	C 	0.869	0.0593	0.9741	-0.008
Mof_H 	H 	0.8363	0.0474	0.9629	0.041
Mof_H 	H 	0.8737	0.0937	0.9629	0.038
Mof_N 	N 	0.29418	0.10364	0.69573	-0.21
Mof_O 	O 	0.07122	0.02127	0.64991	-0.428
Mof_O 	O 	0.07046	0.02254	0.72902	-0.422
Mof_O 	O 	0.43478	0.98696	0.54943	-0.383
Mof_O 	O 	0.47266	0.06271	0.54869	-0.407
Mof_C 	C 	0.09138	0.02863	0.68947	0.39
Mof_C 	C 	0.14527	0.04678	0.69066	-0.186
Mof_C 	C 	0.16896	0.05548	0.73339	0.125
Mof_H 	H 	0.1518	0.0488	0.7615	-0.001
Mof_C 	C 	0.21848	0.07425	0.73491	-0.232
Mof_H 	H 	0.2339	0.0807	0.7639	0.113
Mof_C 	C 	0.24412	0.08312	0.69418	0.195
Mof_C 	C 	0.22056	0.07312	0.65113	-0.234
Mof_H 	H 	0.2379	0.0791	0.623	0.113
Mof_C 	C 	0.17223	0.05468	0.64972	0.133
Mof_H 	H 	0.1574	0.0474	0.6206	-0.007
Mof_C 	C 	0.43966	0.03202	0.56311	0.34
Mof_C 	C 	0.40297	0.05005	0.59896	-0.129
Mof_C 	C 	0.40186	0.10046	0.61271	0.084
Mof_H 	H 	0.4256	0.1226	0.5999	0.014
Mof_C 	C 	0.36708	0.11901	0.64459	-0.191
Mof_H 	H 	0.3671	0.1531	0.6528	0.099
Mof_C 	C 	0.33179	0.08588	0.66437	0.159
Mof_C 	C 	0.33371	0.0349	0.65232	-0.165
Mof_H 	H 	0.3111	0.0122	0.6661	0.087
Mof_C 	C 	0.36865	0.01783	0.62023	0.027
Mof_H 	H 	0.3693	0.9836	0.6126	0.056
Mof_C 	C 	0.30114	0.14881	0.72345	0.28
Mof_C 	C 	0.26542	0.18533	0.7242	-0.364
Mof_H 	H 	0.2358	0.1812	0.7067	0.159
Mof_C 	C 	0.0391	0.9857	0.8367	0.104
Mof_H 	H 	0.0673	0.9746	0.8199	0.01
Mof_N 	N 	0.0887	0.9749	0.9533	-0.225
Mof_C 	C 	0.0925	0.9734	0.9083	0.113
Mof_H 	H 	0.1223	0.9659	0.8922	0
Mof_C 	C 	0.0428	0.9852	0.8843	-0.165
Mof_O 	O 	0.0148	0.0145	0.9565	-0.378
Mof_C 	C 	0.131	0.9407	0.9741	-0.009
Mof_H 	H 	0.1637	0.9526	0.9629	0.05
Mof_H 	H 	0.1263	0.9063	0.9629	0.034
Mof_Cu	Cu	0.5	0.5	0.143	0.9
Mof_Cu	Cu	0.5	0.5	0.23664	0.919
Mof_N 	N 	0.5	0.5	0.31181	-0.256
Mof_C 	C 	0.5	0.5	0.4095	0.656
Mof_Cu	Cu	1.43291e-33	0	0.357	0.88
Mof_Cu	Cu	3.62608e-33	2.56901e-33	0.26336	0.898
Mof_N 	N 	7.5535e-34	2.56901e-33	0.18819	-0.284
Mof_C 	C 	-9.21261e-34	-1.28451e-33	0.0905	0.531
Mof_Cu	Cu	0.5	0.5	0.857	0.906
Mof_Cu	Cu	0.5	0.5	0.76336	0.919
Mof_N 	N 	0.5	0.5	0.68819	-0.256
Mof_C 	C 	0.5	0.5	0.5905	0.655
Mof_Cu	Cu	-2.55718e-33	0	0.643	0.88
Mof_Cu	Cu	1.32327e-32	0	0.73664	0.898
Mof_N 	N 	-7.01764e-33	-1.0276e-32	0.81181	-0.282
Mof_C 	C 	3.65052e-33	0	0.9095	0.51
Mof_Cu	Cu	0.45556	0.97742	-0	0.89
Mof_Cu	Cu	0.54444	0.02258	-0	0.867
Mof_Cu	Cu	0.02258	0.45556	-0	0.867
Mof_Cu	Cu	0.97742	0.54444	-0	0.89
Mof_Cu	Cu	0.04444	0.47742	0.5	0.898
Mof_Cu	Cu	0.95556	0.52258	0.5	0.906
Mof_Cu	Cu	0.47742	0.95556	0.5	0.906
Mof_Cu	Cu	0.52258	0.04444	0.5	0.898
Mof_C 	C 	0.72789	0.77211	0.25	0.293
Mof_H 	H 	0.7528	0.7472	0.25	-0.073
Mof_C 	C 	0.6554	0.8446	0.25	-0.348
Mof_H 	H 	0.6305	0.8695	0.25	0.159
Mof_C 	C 	0.27211	0.22789	0.25	0.287
Mof_H 	H 	0.2472	0.2528	0.25	-0.075
Mof_C 	C 	0.3446	0.1554	0.25	-0.343
Mof_H 	H 	0.3695	0.1305	0.25	0.154
Mof_C 	C 	0.22789	0.72789	0.25	0.288
Mof_H 	H 	0.2528	0.7528	0.25	-0.072
Mof_C 	C 	0.1554	0.6554	0.25	-0.344
Mof_H 	H 	0.1305	0.6305	0.25	0.154
Mof_C 	C 	0.77211	0.27211	0.25	0.292
Mof_H 	H 	0.7472	0.2472	0.25	-0.077
Mof_C 	C 	0.8446	0.3446	0.25	-0.348
Mof_H 	H 	0.8695	0.3695	0.25	0.159
Mof_C 	C 	0.27211	0.22789	0.75	0.29
Mof_H 	H 	0.2472	0.2528	0.75	-0.073
Mof_C 	C 	0.3446	0.1554	0.75	-0.344
Mof_H 	H 	0.3695	0.1305	0.75	0.155
Mof_C 	C 	0.72789	0.77211	0.75	0.297
Mof_H 	H 	0.7528	0.7472	0.75	-0.071
Mof_C 	C 	0.6554	0.8446	0.75	-0.349
Mof_H 	H 	0.6305	0.8695	0.75	0.16
Mof_C 	C 	0.77211	0.27211	0.75	0.296
Mof_H 	H 	0.7472	0.2472	0.75	-0.074
Mof_C 	C 	0.8446	0.3446	0.75	-0.349
Mof_H 	H 	0.8695	0.3695	0.75	0.16
Mof_C 	C 	0.22789	0.72789	0.75	0.292
Mof_H 	H 	0.2528	0.7528	0.75	-0.069
Mof_C 	C 	0.1554	0.6554	0.75	-0.344
Mof_H 	H 	0.1305	0.6305	0.75	0.155
Mof_Ni	Ni	0.482	0.5363	0.5	0.967
Mof_Ni	Ni	0.518	0.4637	0.5	0.967
Mof_Ni	Ni	0.4637	0.482	0.5	0.967
Mof_Ni	Ni	0.5363	0.518	0.5	0.967
Mof_Ni	Ni	0.018	0.0363	-0	0.941
Mof_Ni	Ni	0.982	0.9637	-0	0.941
Mof_Ni	Ni	0.0363	0.982	-0	0.951
Mof_Ni	Ni	0.9637	0.018	-0	0.938
_end
