data_functionalizedCrystal
_audit_creation_method	'EQeq! by Chris Wilmer'
_symmetry_space_group_name_H-M	'P1'
_symmetry_Int_Tables_number	1
_symmetry_cell_setting	triclinic
loop_
_symmetry_equiv_pos_as_xyz
  x,y,z
_cell_length_a	5.4013
_cell_length_b	17.644
_cell_length_c	17.825
_cell_angle_alpha	89.391
_cell_angle_beta	85.708
_cell_angle_gamma	86.268
loop_
_atom_site_label
_atom_site_type_symbol
_atom_site_fract_x
_atom_site_fract_y
_atom_site_fract_z
_atom_site_charge
Mof_O 	O 	0.3644	0.56837	0.49813	-2.035
Mof_O 	O 	0.0518	0.00408	0.40088	-1.475
Mof_O 	O 	0.3468	0.06685	0.01364	-1.866
Mof_N 	N 	0.2927	0.8537	0.4647	-0.595
Mof_O 	O 	0.9473	0.09261	0.99202	-1.471
Mof_O 	O 	0.1423	0.49723	0.93238	-2.133
Mof_O 	O 	0.9611	0.59756	0.48751	-1.554
Mof_O 	O 	0.6427	0.00281	0.43262	-1.946
Mof_C 	C 	0.1866	0.1958	0.016	-0.444
Mof_C 	C 	0.2286	0.697	0.4781	-0.504
Mof_N 	N 	0.7142	0.0284	0.1479	-0.609
Mof_N 	N 	0.2139	0.3528	0.0324	-0.668
Mof_N 	N 	0.2717	0.4743	0.6487	-0.636
Mof_C 	C 	0.565	0.0458	0.278	0.123
Mof_H 	H 	0.4336	0.0638	0.313	-0.122
Mof_C 	C 	0.4308	0.7287	0.5049	0.141
Mof_H 	H 	0.5543	0.6975	0.5278	-0.131
Mof_C 	C 	0.1798	0.6144	0.4887	1.161
Mof_C 	C 	0.3828	0.3034	0.0579	-0.022
Mof_H 	H 	0.5158	0.3224	0.0825	-0.122
Mof_C 	C 	0.3765	0.2246	0.0508	0.134
Mof_H 	H 	0.5031	0.1915	0.0699	-0.163
Mof_O 	O 	0.5497	0.50349	0.90494	-1.656
Mof_C 	C 	0.8315	0.0051	0.3852	1.085
Mof_C 	C 	0.1552	0.1121	0.0074	1.011
Mof_C 	C 	0.3324	0.499	0.8863	1.222
Mof_C 	C 	0.7826	0.0113	0.3028	-0.471
Mof_C 	C 	0.103	0.8219	0.4368	-0.091
Mof_H 	H 	0.9882	0.8536	0.4109	-0.111
Mof_C 	C 	0.4534	0.8068	0.4982	-0.033
Mof_H 	H 	0.5911	0.8276	0.5188	-0.141
Mof_C 	C 	0.0634	0.7455	0.4435	0.168
Mof_H 	H 	0.921	0.7265	0.4239	-0.112
Mof_C 	C 	0.2994	0.4932	0.8038	-0.54
Mof_C 	C 	0.1061	0.4576	0.7759	0.173
Mof_H 	H 	0.977	0.4395	0.8092	-0.143
Mof_C 	C 	0.0065	0.2473	0.9904	0.11
Mof_H 	H 	0.8679	0.2298	0.9675	-0.085
Mof_C 	C 	0.9607	0.9855	0.2493	0.15
Mof_H 	H 	0.1124	0.9616	0.2639	-0.108
Mof_C 	C 	0.1018	0.4486	0.6992	-0.051
Mof_H 	H 	0.9699	0.4224	0.6813	-0.099
Mof_C 	C 	0.4517	0.5109	0.6768	-0.073
Mof_H 	H 	0.5724	0.5316	0.6423	-0.195
Mof_C 	C 	0.5426	0.0535	0.201	-0.037
Mof_H 	H 	0.3941	0.0784	0.1851	-0.089
Mof_C 	C 	0.0295	0.3241	0.9985	-0.021
Mof_H 	H 	0.9074	0.3584	0.9788	-0.224
Mof_Li	Li	0.1989	0.4704	0.0375	4.131
Mof_C 	C 	0.4748	0.5209	0.7523	0.187
Mof_H 	H 	0.61	0.5466	0.7687	-0.133
Mof_C 	C 	0.9213	0.994	0.1736	-0.038
Mof_H 	H 	0.0478	0.9744	0.1378	-0.165
Mof_Li	Li	0.2941	0.4655	0.5334	3.904
Mof_Li	Li	0.3106	0.9724	0.4613	3.714
Mof_Li	Li	0.3099	0.9639	0.9682	3.696
Mof_O 	O 	0.6356	0.43163	0.50187	-2.034
Mof_O 	O 	0.9482	0.99592	0.59912	-1.474
Mof_O 	O 	0.6532	0.93315	0.98636	-1.865
Mof_N 	N 	0.7073	0.1463	0.5353	-0.594
Mof_O 	O 	0.0527	0.90739	0.00798	-1.471
Mof_O 	O 	0.8577	0.50277	0.06762	-2.133
Mof_O 	O 	0.0389	0.40244	0.51249	-1.554
Mof_O 	O 	0.3573	0.99719	0.56738	-1.946
Mof_C 	C 	0.8134	0.8042	0.984	-0.444
Mof_C 	C 	0.7714	0.303	0.5219	-0.504
Mof_N 	N 	0.2858	0.9716	0.8521	-0.609
Mof_N 	N 	0.7861	0.6472	0.9676	-0.668
Mof_N 	N 	0.7283	0.5257	0.3513	-0.636
Mof_C 	C 	0.435	0.9542	0.722	0.123
Mof_H 	H 	0.5664	0.9362	0.687	-0.122
Mof_C 	C 	0.5692	0.2713	0.4951	0.141
Mof_H 	H 	0.4457	0.3025	0.4722	-0.131
Mof_C 	C 	0.8202	0.3856	0.5113	1.161
Mof_C 	C 	0.6172	0.6966	0.9421	-0.022
Mof_H 	H 	0.4842	0.6776	0.9175	-0.122
Mof_C 	C 	0.6235	0.7754	0.9492	0.134
Mof_H 	H 	0.4969	0.8085	0.9301	-0.163
Mof_O 	O 	0.4503	0.49651	0.09506	-1.656
Mof_C 	C 	0.1685	0.9949	0.6148	1.085
Mof_C 	C 	0.8448	0.8879	0.9926	1.011
Mof_C 	C 	0.6676	0.501	0.1137	1.222
Mof_C 	C 	0.2174	0.9887	0.6972	-0.471
Mof_C 	C 	0.897	0.1781	0.5632	-0.091
Mof_H 	H 	0.0118	0.1464	0.5891	-0.111
Mof_C 	C 	0.5466	0.1932	0.5018	-0.033
Mof_H 	H 	0.4089	0.1724	0.4812	-0.141
Mof_C 	C 	0.9366	0.2545	0.5565	0.168
Mof_H 	H 	0.079	0.2735	0.5761	-0.112
Mof_C 	C 	0.7006	0.5068	0.1962	-0.54
Mof_C 	C 	0.8939	0.5424	0.2241	0.173
Mof_H 	H 	0.023	0.5605	0.1908	-0.143
Mof_C 	C 	0.9935	0.7527	0.0096	0.11
Mof_H 	H 	0.1321	0.7702	0.0325	-0.085
Mof_C 	C 	0.0393	0.0145	0.7507	0.15
Mof_H 	H 	0.8876	0.0384	0.7361	-0.108
Mof_C 	C 	0.8982	0.5514	0.3008	-0.051
Mof_H 	H 	0.0301	0.5776	0.3187	-0.099
Mof_C 	C 	0.5483	0.4891	0.3232	-0.073
Mof_H 	H 	0.4276	0.4684	0.3577	-0.195
Mof_C 	C 	0.4574	0.9465	0.799	-0.037
Mof_H 	H 	0.6059	0.9216	0.8149	-0.089
Mof_C 	C 	0.9705	0.6759	0.0015	-0.021
Mof_H 	H 	0.0926	0.6416	0.0212	-0.224
Mof_Li	Li	0.8011	0.5296	0.9625	4.131
Mof_C 	C 	0.5252	0.4791	0.2477	0.187
Mof_H 	H 	0.39	0.4534	0.2313	-0.133
Mof_C 	C 	0.0787	0.006	0.8264	-0.038
Mof_H 	H 	0.9522	0.0256	0.8622	-0.165
Mof_Li	Li	0.7059	0.5345	0.4666	3.904
Mof_Li	Li	0.6894	0.0276	0.5387	3.714
Mof_Li	Li	0.6901	0.0361	0.0318	3.696
_end
