data_functionalizedCrystal
_audit_creation_method	'EQeq! by Chris Wilmer'
_symmetry_space_group_name_H-M	'P1'
_symmetry_Int_Tables_number	1
_symmetry_cell_setting	triclinic
loop_
_symmetry_equiv_pos_as_xyz
  x,y,z
_cell_length_a	13.612
_cell_length_b	13.612
_cell_length_c	29.956
_cell_angle_alpha	90
_cell_angle_beta	90
_cell_angle_gamma	90
loop_
_atom_site_label
_atom_site_type_symbol
_atom_site_fract_x
_atom_site_fract_y
_atom_site_fract_z
_atom_site_charge
Mof_Mo	Mo	0.16274	0.10898	0.41934	1.447
Mof_O 	O 	0.0896	0.9866	0.47	-0.373
Mof_N 	N 	0.0567	0.1417	0.2532	-0.247
Mof_C 	C 	0.131	0.1942	0.2342	0.136
Mof_C 	C 	0.1418	0.2837	0.2554	-0.164
Mof_N 	N 	0.0217	0.1999	0.2863	-0.186
Mof_C 	C 	0.0721	0.2859	0.2882	0.238
Mof_O 	O 	0.2514	0.0489	0.4555	-1.041
Mof_C 	C 	0.0532	0.3591	0.3249	-0.869
Mof_H 	H 	0.9999	0.3365	0.3432	0.276
Mof_H 	H 	0.0365	0.4215	0.3121	0.222
Mof_H 	H 	0.1113	0.366	0.3428	0.207
Mof_C 	C 	0.1902	0.152	0.1965	-0.446
Mof_H 	H 	0.1655	0.088	0.1891	0.052
Mof_H 	H 	0.2577	0.1468	0.2054	0.113
Mof_H 	H 	0.1852	0.1942	0.1709	0.066
Mof_O 	O 	0.1412	0.2117	0.4556	-0.963
Mof_O 	O 	0.0246	0.1286	0.394	-0.855
Mof_Mo	Mo	0.83726	0.89102	0.41934	1.614
Mof_O 	O 	0.9104	0.0134	0.47	-0.411
Mof_N 	N 	0.9433	0.8583	0.2532	-0.191
Mof_C 	C 	0.869	0.8058	0.2342	0.172
Mof_C 	C 	0.8582	0.7163	0.2554	-0.066
Mof_N 	N 	0.9783	0.8001	0.2863	-0.095
Mof_C 	C 	0.9279	0.7141	0.2882	0.053
Mof_O 	O 	0.7486	0.9511	0.4555	-0.944
Mof_C 	C 	0.9468	0.6409	0.3249	-0.084
Mof_H 	H 	0.0001	0.6635	0.3432	-0.072
Mof_H 	H 	0.9635	0.5785	0.3121	0.031
Mof_H 	H 	0.8887	0.634	0.3428	-0.005
Mof_C 	C 	0.8098	0.848	0.1965	-0.555
Mof_H 	H 	0.8345	0.912	0.1891	0.147
Mof_H 	H 	0.7423	0.8532	0.2054	0.17
Mof_H 	H 	0.8148	0.8058	0.1709	0.125
Mof_O 	O 	0.8588	0.7883	0.4556	-1.014
Mof_O 	O 	0.9754	0.8714	0.394	-0.738
Mof_Mo	Mo	0.89102	0.16274	0.41934	1.601
Mof_O 	O 	0.0134	0.0896	0.47	-0.457
Mof_N 	N 	0.8583	0.0567	0.2532	-0.225
Mof_C 	C 	0.8058	0.131	0.2342	0.192
Mof_C 	C 	0.7163	0.1418	0.2554	-0.18
Mof_N 	N 	0.8001	0.0217	0.2863	-0.176
Mof_C 	C 	0.7141	0.0721	0.2882	0.241
Mof_O 	O 	0.9511	0.2514	0.4555	-0.93
Mof_C 	C 	0.6409	0.0532	0.3249	-0.851
Mof_H 	H 	0.6635	0.9999	0.3432	0.268
Mof_H 	H 	0.5785	0.0365	0.3121	0.218
Mof_H 	H 	0.634	0.1113	0.3428	0.203
Mof_C 	C 	0.848	0.1902	0.1965	-0.569
Mof_H 	H 	0.912	0.1655	0.1891	0.136
Mof_H 	H 	0.8532	0.2577	0.2054	0.175
Mof_H 	H 	0.8058	0.1852	0.1709	0.116
Mof_O 	O 	0.7883	0.1412	0.4556	-0.989
Mof_O 	O 	0.8714	0.0246	0.394	-0.834
Mof_Mo	Mo	0.10898	0.83726	0.41934	1.481
Mof_O 	O 	0.9866	0.9104	0.47	-0.345
Mof_N 	N 	0.1417	0.9433	0.2532	-0.206
Mof_C 	C 	0.1942	0.869	0.2342	0.123
Mof_C 	C 	0.2837	0.8582	0.2554	-0.046
Mof_N 	N 	0.1999	0.9783	0.2863	-0.098
Mof_C 	C 	0.2859	0.9279	0.2882	0.039
Mof_O 	O 	0.0489	0.7486	0.4555	-1.047
Mof_C 	C 	0.3591	0.9468	0.3249	-0.052
Mof_H 	H 	0.3365	0.0001	0.3432	-0.085
Mof_H 	H 	0.4215	0.9635	0.3121	0.023
Mof_H 	H 	0.366	0.8887	0.3428	-0.014
Mof_C 	C 	0.152	0.8098	0.1965	-0.443
Mof_H 	H 	0.088	0.8345	0.1891	0.073
Mof_H 	H 	0.1468	0.7423	0.2054	0.113
Mof_H 	H 	0.1942	0.8148	0.1709	0.081
Mof_O 	O 	0.2117	0.8588	0.4556	-0.993
Mof_O 	O 	0.1286	0.9754	0.394	-0.745
Mof_Mo	Mo	0.33726	0.60898	0.08066	1.483
Mof_O 	O 	0.4104	0.4866	0.03	-0.42
Mof_N 	N 	0.4433	0.6417	0.2468	-0.232
Mof_C 	C 	0.369	0.6942	0.2658	0.174
Mof_C 	C 	0.3582	0.7837	0.2446	-0.153
Mof_N 	N 	0.4783	0.6999	0.2137	-0.151
Mof_C 	C 	0.4279	0.7859	0.2118	0.182
Mof_O 	O 	0.2486	0.5489	0.0445	-0.951
Mof_C 	C 	0.4468	0.8591	0.1751	-0.549
Mof_H 	H 	0.5001	0.8365	0.1568	0.13
Mof_H 	H 	0.4635	0.9215	0.1879	0.171
Mof_H 	H 	0.3887	0.866	0.1572	0.132
Mof_C 	C 	0.3098	0.652	0.3035	-0.525
Mof_H 	H 	0.3345	0.588	0.3109	0.107
Mof_H 	H 	0.2423	0.6468	0.2946	0.144
Mof_H 	H 	0.3148	0.6942	0.3291	0.108
Mof_O 	O 	0.3588	0.7117	0.0444	-0.949
Mof_O 	O 	0.4754	0.6286	0.106	-0.792
Mof_Mo	Mo	0.66274	0.39102	0.08066	1.489
Mof_O 	O 	0.5896	0.5134	0.03	-0.424
Mof_N 	N 	0.5567	0.3583	0.2468	-0.228
Mof_C 	C 	0.631	0.3058	0.2658	0.145
Mof_C 	C 	0.6418	0.2163	0.2446	-0.081
Mof_N 	N 	0.5217	0.3001	0.2137	-0.14
Mof_C 	C 	0.5721	0.2141	0.2118	0.106
Mof_O 	O 	0.7514	0.4511	0.0445	-0.947
Mof_C 	C 	0.5532	0.1409	0.1751	-0.383
Mof_H 	H 	0.4999	0.1635	0.1568	0.064
Mof_H 	H 	0.5365	0.0785	0.1879	0.076
Mof_H 	H 	0.6113	0.134	0.1572	0.063
Mof_C 	C 	0.6902	0.348	0.3035	-0.499
Mof_H 	H 	0.6655	0.412	0.3109	0.102
Mof_H 	H 	0.7577	0.3532	0.2946	0.148
Mof_H 	H 	0.6852	0.3058	0.3291	0.096
Mof_O 	O 	0.6412	0.2883	0.0444	-0.949
Mof_O 	O 	0.5246	0.3714	0.106	-0.791
Mof_Mo	Mo	0.60898	0.66274	0.08066	1.497
Mof_O 	O 	0.4866	0.5896	0.03	-0.424
Mof_N 	N 	0.6417	0.5567	0.2468	-0.232
Mof_C 	C 	0.6942	0.631	0.2658	0.18
Mof_C 	C 	0.7837	0.6418	0.2446	-0.146
Mof_N 	N 	0.6999	0.5217	0.2137	-0.15
Mof_C 	C 	0.7859	0.5721	0.2118	0.18
Mof_O 	O 	0.5489	0.7514	0.0445	-0.945
Mof_C 	C 	0.8591	0.5532	0.1751	-0.547
Mof_H 	H 	0.8365	0.4999	0.1568	0.129
Mof_H 	H 	0.9215	0.5365	0.1879	0.171
Mof_H 	H 	0.866	0.6113	0.1572	0.134
Mof_C 	C 	0.652	0.6902	0.3035	-0.547
Mof_H 	H 	0.588	0.6655	0.3109	0.117
Mof_H 	H 	0.6468	0.7577	0.2946	0.162
Mof_H 	H 	0.6942	0.6852	0.3291	0.118
Mof_O 	O 	0.7117	0.6412	0.0444	-0.946
Mof_O 	O 	0.6286	0.5246	0.106	-0.792
Mof_Mo	Mo	0.39102	0.33726	0.08066	1.474
Mof_O 	O 	0.5134	0.4104	0.03	-0.42
Mof_N 	N 	0.3583	0.4433	0.2468	-0.227
Mof_C 	C 	0.3058	0.369	0.2658	0.138
Mof_C 	C 	0.2163	0.3582	0.2446	-0.086
Mof_N 	N 	0.3001	0.4783	0.2137	-0.14
Mof_C 	C 	0.2141	0.4279	0.2118	0.107
Mof_O 	O 	0.4511	0.2486	0.0445	-0.953
Mof_C 	C 	0.1409	0.4468	0.1751	-0.382
Mof_H 	H 	0.1635	0.5001	0.1568	0.064
Mof_H 	H 	0.0785	0.4635	0.1879	0.075
Mof_H 	H 	0.134	0.3887	0.1572	0.06
Mof_C 	C 	0.348	0.3098	0.3035	-0.475
Mof_H 	H 	0.412	0.3345	0.3109	0.091
Mof_H 	H 	0.3532	0.2423	0.2946	0.129
Mof_H 	H 	0.3058	0.3148	0.3291	0.086
Mof_O 	O 	0.2883	0.3588	0.0444	-0.952
Mof_O 	O 	0.3714	0.4754	0.106	-0.791
Mof_Mo	Mo	0.83726	0.89102	0.58066	1.613
Mof_O 	O 	0.9104	0.0134	0.53	-0.411
Mof_N 	N 	0.9433	0.8583	0.7468	-0.192
Mof_C 	C 	0.869	0.8058	0.7658	0.187
Mof_C 	C 	0.8582	0.7163	0.7446	-0.07
Mof_N 	N 	0.9783	0.8001	0.7137	-0.096
Mof_C 	C 	0.9279	0.7141	0.7118	0.054
Mof_O 	O 	0.7486	0.9511	0.5445	-0.944
Mof_C 	C 	0.9468	0.6409	0.6751	-0.084
Mof_H 	H 	0.0001	0.6635	0.6568	-0.073
Mof_H 	H 	0.9635	0.5785	0.6879	0.031
Mof_H 	H 	0.8887	0.634	0.6572	-0.005
Mof_C 	C 	0.8098	0.848	0.8035	-0.597
Mof_H 	H 	0.8345	0.912	0.8109	0.171
Mof_H 	H 	0.7423	0.8532	0.7946	0.187
Mof_H 	H 	0.8148	0.8058	0.8291	0.151
Mof_O 	O 	0.8588	0.7883	0.5444	-1.014
Mof_O 	O 	0.9754	0.8714	0.606	-0.738
Mof_Mo	Mo	0.16274	0.10898	0.58066	1.447
Mof_O 	O 	0.0896	0.9866	0.53	-0.372
Mof_N 	N 	0.0567	0.1417	0.7468	-0.248
Mof_C 	C 	0.131	0.1942	0.7658	0.152
Mof_C 	C 	0.1418	0.2837	0.7446	-0.168
Mof_N 	N 	0.0217	0.1999	0.7137	-0.187
Mof_C 	C 	0.0721	0.2859	0.7118	0.238
Mof_O 	O 	0.2514	0.0489	0.5445	-1.041
Mof_C 	C 	0.0532	0.3591	0.6751	-0.869
Mof_H 	H 	0.9999	0.3365	0.6568	0.276
Mof_H 	H 	0.0365	0.4215	0.6879	0.222
Mof_H 	H 	0.1113	0.366	0.6572	0.207
Mof_C 	C 	0.1902	0.152	0.8035	-0.489
Mof_H 	H 	0.1655	0.088	0.8109	0.076
Mof_H 	H 	0.2577	0.1468	0.7946	0.129
Mof_H 	H 	0.1852	0.1942	0.8291	0.093
Mof_O 	O 	0.1412	0.2117	0.5444	-0.963
Mof_O 	O 	0.0246	0.1286	0.606	-0.855
Mof_Mo	Mo	0.10898	0.83726	0.58066	1.48
Mof_O 	O 	0.9866	0.9104	0.53	-0.345
Mof_N 	N 	0.1417	0.9433	0.7468	-0.208
Mof_C 	C 	0.1942	0.869	0.7658	0.137
Mof_C 	C 	0.2837	0.8582	0.7446	-0.049
Mof_N 	N 	0.1999	0.9783	0.7137	-0.098
Mof_C 	C 	0.2859	0.9279	0.7118	0.039
Mof_O 	O 	0.0489	0.7486	0.5445	-1.047
Mof_C 	C 	0.3591	0.9468	0.6751	-0.052
Mof_H 	H 	0.3365	0.0001	0.6568	-0.086
Mof_H 	H 	0.4215	0.9635	0.6879	0.022
Mof_H 	H 	0.366	0.8887	0.6572	-0.014
Mof_C 	C 	0.152	0.8098	0.8035	-0.486
Mof_H 	H 	0.088	0.8345	0.8109	0.097
Mof_H 	H 	0.1468	0.7423	0.7946	0.13
Mof_H 	H 	0.1942	0.8148	0.8291	0.108
Mof_O 	O 	0.2117	0.8588	0.5444	-0.993
Mof_O 	O 	0.1286	0.9754	0.606	-0.745
Mof_Mo	Mo	0.89102	0.16274	0.58066	1.6
Mof_O 	O 	0.0134	0.0896	0.53	-0.457
Mof_N 	N 	0.8583	0.0567	0.7468	-0.226
Mof_C 	C 	0.8058	0.131	0.7658	0.206
Mof_C 	C 	0.7163	0.1418	0.7446	-0.184
Mof_N 	N 	0.8001	0.0217	0.7137	-0.176
Mof_C 	C 	0.7141	0.0721	0.7118	0.242
Mof_O 	O 	0.9511	0.2514	0.5445	-0.93
Mof_C 	C 	0.6409	0.0532	0.6751	-0.851
Mof_H 	H 	0.6635	0.9999	0.6568	0.267
Mof_H 	H 	0.5785	0.0365	0.6879	0.217
Mof_H 	H 	0.634	0.1113	0.6572	0.202
Mof_C 	C 	0.848	0.1902	0.8035	-0.612
Mof_H 	H 	0.912	0.1655	0.8109	0.159
Mof_H 	H 	0.8532	0.2577	0.7946	0.192
Mof_H 	H 	0.8058	0.1852	0.8291	0.142
Mof_O 	O 	0.7883	0.1412	0.5444	-0.989
Mof_O 	O 	0.8714	0.0246	0.606	-0.834
Mof_Mo	Mo	0.66274	0.39102	0.91934	1.499
Mof_O 	O 	0.5896	0.5134	0.97	-0.31
Mof_N 	N 	0.5567	0.3583	0.7532	-0.228
Mof_C 	C 	0.631	0.3058	0.7342	0.146
Mof_C 	C 	0.6418	0.2163	0.7554	-0.085
Mof_N 	N 	0.5217	0.3001	0.7863	-0.141
Mof_C 	C 	0.5721	0.2141	0.7882	0.119
Mof_O 	O 	0.7514	0.4511	0.9555	-0.836
Mof_C 	C 	0.5532	0.1409	0.8249	-0.426
Mof_H 	H 	0.4999	0.1635	0.8432	0.086
Mof_H 	H 	0.5365	0.0785	0.8121	0.094
Mof_H 	H 	0.6113	0.134	0.8428	0.089
Mof_C 	C 	0.6902	0.348	0.6965	-0.5
Mof_H 	H 	0.6655	0.412	0.6891	0.102
Mof_H 	H 	0.7577	0.3532	0.7054	0.148
Mof_H 	H 	0.6852	0.3058	0.6709	0.096
Mof_O 	O 	0.6412	0.2883	0.9556	-0.838
Mof_O 	O 	0.5246	0.3714	0.894	-0.798
Mof_Mo	Mo	0.33726	0.60898	0.91934	1.492
Mof_O 	O 	0.4104	0.4866	0.97	-0.305
Mof_N 	N 	0.4433	0.6417	0.7532	-0.232
Mof_C 	C 	0.369	0.6942	0.7342	0.174
Mof_C 	C 	0.3582	0.7837	0.7554	-0.157
Mof_N 	N 	0.4783	0.6999	0.7863	-0.153
Mof_C 	C 	0.4279	0.7859	0.7882	0.195
Mof_O 	O 	0.2486	0.5489	0.9555	-0.84
Mof_C 	C 	0.4468	0.8591	0.8249	-0.591
Mof_H 	H 	0.5001	0.8365	0.8432	0.153
Mof_H 	H 	0.4635	0.9215	0.8121	0.189
Mof_H 	H 	0.3887	0.866	0.8428	0.158
Mof_C 	C 	0.3098	0.652	0.6965	-0.525
Mof_H 	H 	0.3345	0.588	0.6891	0.106
Mof_H 	H 	0.2423	0.6468	0.7054	0.144
Mof_H 	H 	0.3148	0.6942	0.6709	0.108
Mof_O 	O 	0.3588	0.7117	0.9556	-0.838
Mof_O 	O 	0.4754	0.6286	0.894	-0.799
Mof_Mo	Mo	0.39102	0.33726	0.91934	1.483
Mof_O 	O 	0.5134	0.4104	0.97	-0.306
Mof_N 	N 	0.3583	0.4433	0.7532	-0.228
Mof_C 	C 	0.3058	0.369	0.7342	0.139
Mof_C 	C 	0.2163	0.3582	0.7554	-0.09
Mof_N 	N 	0.3001	0.4783	0.7863	-0.142
Mof_C 	C 	0.2141	0.4279	0.7882	0.12
Mof_O 	O 	0.4511	0.2486	0.9555	-0.842
Mof_C 	C 	0.1409	0.4468	0.8249	-0.424
Mof_H 	H 	0.1635	0.5001	0.8432	0.086
Mof_H 	H 	0.0785	0.4635	0.8121	0.093
Mof_H 	H 	0.134	0.3887	0.8428	0.085
Mof_C 	C 	0.348	0.3098	0.6965	-0.476
Mof_H 	H 	0.412	0.3345	0.6891	0.091
Mof_H 	H 	0.3532	0.2423	0.7054	0.129
Mof_H 	H 	0.3058	0.3148	0.6709	0.086
Mof_O 	O 	0.2883	0.3588	0.9556	-0.841
Mof_O 	O 	0.3714	0.4754	0.894	-0.798
Mof_Mo	Mo	0.60898	0.66274	0.91934	1.507
Mof_O 	O 	0.4866	0.5896	0.97	-0.309
Mof_N 	N 	0.6417	0.5567	0.7532	-0.233
Mof_C 	C 	0.6942	0.631	0.7342	0.18
Mof_C 	C 	0.7837	0.6418	0.7554	-0.15
Mof_N 	N 	0.6999	0.5217	0.7863	-0.152
Mof_C 	C 	0.7859	0.5721	0.7882	0.193
Mof_O 	O 	0.5489	0.7514	0.9555	-0.835
Mof_C 	C 	0.8591	0.5532	0.8249	-0.59
Mof_H 	H 	0.8365	0.4999	0.8432	0.152
Mof_H 	H 	0.9215	0.5365	0.8121	0.189
Mof_H 	H 	0.866	0.6113	0.8428	0.16
Mof_C 	C 	0.652	0.6902	0.6965	-0.547
Mof_H 	H 	0.588	0.6655	0.6891	0.117
Mof_H 	H 	0.6468	0.7577	0.7054	0.162
Mof_H 	H 	0.6942	0.6852	0.6709	0.117
Mof_O 	O 	0.7117	0.6412	0.9556	-0.836
Mof_O 	O 	0.6286	0.5246	0.894	-0.8
Mof_Ni	Ni	2.0403e-33	0	0.24727	0.995
Mof_V 	V 	3.05621e-33	0	0.37039	1.747
Mof_O 	O 	2.60742e-33	0	0.316	-0.785
Mof_Ni	Ni	0.5	0.5	0.25273	1.052
Mof_V 	V 	0.5	0.5	0.12961	1.797
Mof_O 	O 	0.5	0.5	0.184	-0.71
Mof_Ni	Ni	2.44031e-32	1.81921e-32	0.75273	0.997
Mof_V 	V 	5.19512e-33	0	0.62961	1.747
Mof_O 	O 	5.64391e-33	0	0.684	-0.786
Mof_Ni	Ni	0.5	0.5	0.74727	1.052
Mof_V 	V 	0.5	0.5	0.87039	1.794
Mof_O 	O 	0.5	0.5	0.816	-0.709
Mof_P 	P 	1.32217e-32	9.09605e-33	0.5	0.855
Mof_P 	P 	0.5	0.5	-0	0.794
Mof_Mo	Mo	0.26028	0.948	0.5	1.59
Mof_V 	V 	0.2472	0.1621	0.5	1.576
Mof_Mo	Mo	0.73972	0.052	0.5	1.303
Mof_V 	V 	0.7528	0.8379	0.5	1.58
Mof_Mo	Mo	0.052	0.26028	0.5	1.275
Mof_V 	V 	0.8379	0.2472	0.5	1.583
Mof_Mo	Mo	0.948	0.73972	0.5	1.594
Mof_V 	V 	0.1621	0.7528	0.5	1.574
Mof_Mo	Mo	0.23972	0.448	-0	1.031
Mof_V 	V 	0.2528	0.6621	-0	1.526
Mof_Mo	Mo	0.76028	0.552	-0	1.093
Mof_V 	V 	0.7472	0.3379	-0	1.531
Mof_Mo	Mo	0.448	0.76028	-0	1.086
Mof_V 	V 	0.6621	0.7472	-0	1.535
Mof_Mo	Mo	0.552	0.23972	-0	1.04
Mof_V 	V 	0.3379	0.2528	-0	1.52
_end
