data_functionalizedCrystal
_audit_creation_method	'EQeq! by Chris Wilmer'
_symmetry_space_group_name_H-M	'P1'
_symmetry_Int_Tables_number	1
_symmetry_cell_setting	triclinic
loop_
_symmetry_equiv_pos_as_xyz
  x,y,z
_cell_length_a	8.2883
_cell_length_b	9.8917
_cell_length_c	10.1887
_cell_angle_alpha	99.04
_cell_angle_beta	90
_cell_angle_gamma	90
loop_
_atom_site_label
_atom_site_type_symbol
_atom_site_fract_x
_atom_site_fract_y
_atom_site_fract_z
_atom_site_charge
Mof_Pr	Pr	0.90155	0.31502	0.56293	2.426
Mof_Pr	Pr	0.40155	0.68498	0.93707	2.429
Mof_Pr	Pr	0.09845	0.68498	0.43707	2.427
Mof_Pr	Pr	0.59845	0.31502	0.06293	2.43
Mof_C 	C 	0.602	0.4175	0.768	0.288
Mof_C 	C 	0.5951	0.5227	0.6704	0.255
Mof_C 	C 	0.0157	0.0055	0.4257	0.251
Mof_C 	C 	0.102	0.5825	0.732	0.288
Mof_C 	C 	0.0951	0.4773	0.8296	0.255
Mof_C 	C 	0.5157	0.9945	0.0743	0.262
Mof_C 	C 	0.398	0.5825	0.232	0.288
Mof_C 	C 	0.4049	0.4773	0.3296	0.255
Mof_C 	C 	0.9843	0.9945	0.5743	0.251
Mof_C 	C 	0.898	0.4175	0.268	0.288
Mof_C 	C 	0.9049	0.5227	0.1704	0.255
Mof_C 	C 	0.4843	0.0055	0.9257	0.262
Mof_O 	O 	0.6909	0.3161	0.739	-0.541
Mof_O 	O 	0.52	0.4436	0.8739	-0.676
Mof_O 	O 	0.6835	0.4959	0.5696	-0.495
Mof_O 	O 	0.5055	0.6231	0.7005	-0.489
Mof_O 	O 	0.9903	0.1197	0.3925	-0.506
Mof_O 	O 	0.0664	0.9009	0.3527	-0.517
Mof_O 	O 	0.1909	0.6839	0.761	-0.541
Mof_O 	O 	0.02	0.5564	0.6261	-0.676
Mof_O 	O 	0.1835	0.5041	0.9304	-0.494
Mof_O 	O 	0.0055	0.3769	0.7995	-0.487
Mof_O 	O 	0.4903	0.8803	0.1075	-0.508
Mof_O 	O 	0.5664	0.0991	0.1473	-0.525
Mof_O 	O 	0.3091	0.6839	0.261	-0.541
Mof_O 	O 	0.48	0.5564	0.1261	-0.676
Mof_O 	O 	0.3165	0.5041	0.4304	-0.495
Mof_O 	O 	0.4945	0.3769	0.2995	-0.489
Mof_O 	O 	0.0097	0.8803	0.6075	-0.506
Mof_O 	O 	0.9336	0.0991	0.6473	-0.517
Mof_O 	O 	0.8091	0.3161	0.239	-0.541
Mof_O 	O 	0.98	0.4436	0.3739	-0.676
Mof_O 	O 	0.8165	0.4959	0.0696	-0.494
Mof_O 	O 	0.9945	0.6231	0.2005	-0.487
Mof_O 	O 	0.5097	0.1197	0.8925	-0.508
Mof_O 	O 	0.4336	0.9009	0.8527	-0.525
_end
