data_functionalizedCrystal
_audit_creation_method	'EQeq! by Chris Wilmer'
_symmetry_space_group_name_H-M	'P1'
_symmetry_Int_Tables_number	1
_symmetry_cell_setting	triclinic
loop_
_symmetry_equiv_pos_as_xyz
  x,y,z
_cell_length_a	32.366
_cell_length_b	32.366
_cell_length_c	32.366
_cell_angle_alpha	90
_cell_angle_beta	90
_cell_angle_gamma	90
loop_
_atom_site_label
_atom_site_type_symbol
_atom_site_fract_x
_atom_site_fract_y
_atom_site_fract_z
_atom_site_charge
Mof_Zn	Zn	0.2853	0.2853	0.2853	1.191
Mof_Zn	Zn	0.34927	0.34927	0.34927	1.185
Mof_Zn	Zn	0.7147	0.7147	0.2853	1.191
Mof_Zn	Zn	0.65073	0.65073	0.34927	1.185
Mof_Zn	Zn	0.7147	0.2853	0.7147	1.192
Mof_Zn	Zn	0.65073	0.34927	0.65073	1.186
Mof_Zn	Zn	0.2853	0.7147	0.7147	1.192
Mof_Zn	Zn	0.34927	0.65073	0.65073	1.186
Mof_Zn	Zn	0.2853	0.2853	0.7147	1.192
Mof_Zn	Zn	0.34927	0.34927	0.65073	1.186
Mof_Zn	Zn	0.7147	0.7147	0.7147	1.192
Mof_Zn	Zn	0.65073	0.65073	0.65073	1.186
Mof_Zn	Zn	0.2853	0.7147	0.2853	1.192
Mof_Zn	Zn	0.34927	0.65073	0.34927	1.186
Mof_Zn	Zn	0.7147	0.2853	0.2853	1.192
Mof_Zn	Zn	0.65073	0.34927	0.34927	1.186
Mof_Zn	Zn	0.5	0.1389	0.5	1.221
Mof_Zn	Zn	0.5	0.2301	0.5	1.203
Mof_Zn	Zn	0.5	0.8611	0.5	1.221
Mof_Zn	Zn	0.5	0.7699	0.5	1.203
Mof_Zn	Zn	0.5	0.5	0.1389	1.221
Mof_Zn	Zn	0.5	0.5	0.2301	1.203
Mof_Zn	Zn	0.5	0.5	0.8611	1.221
Mof_Zn	Zn	0.5	0.5	0.7699	1.203
Mof_Zn	Zn	0.1389	0.5	0.5	1.221
Mof_Zn	Zn	0.2301	0.5	0.5	1.203
Mof_Zn	Zn	0.8611	0.5	0.5	1.221
Mof_Zn	Zn	0.7699	0.5	0.5	1.203
Mof_O 	O 	0.3203	0.2529	0.3203	-0.539
Mof_O 	O 	0.3626	0.2925	0.3626	-0.534
Mof_O 	O 	0.4588	0.1491	0.4588	-0.481
Mof_O 	O 	0.4574	0.2199	0.4574	-0.475
Mof_C 	C 	0.3667	0.2218	0.3667	-0.126
Mof_C 	C 	0.3971	0.2223	0.3971	0.056
Mof_H 	H 	0.407	0.2474	0.407	0.022
Mof_C 	C 	0.4126	0.1854	0.4126	-0.11
Mof_C 	C 	0.3978	0.1479	0.3978	-0.006
Mof_H 	H 	0.4081	0.1232	0.4081	0.045
Mof_C 	C 	0.3674	0.1474	0.3674	-0.019
Mof_C 	C 	0.3519	0.1843	0.3519	-0
Mof_H 	H 	0.3316	0.184	0.3316	0.034
Mof_C 	C 	0.3478	0.2593	0.3478	0.405
Mof_C 	C 	0.445	0.1838	0.445	0.364
Mof_C 	C 	0.352	0.1087	0.352	0.013
Mof_C 	C 	0.3408	0.0757	0.3408	-0.074
Mof_C 	C 	0.3259	0.0367	0.3259	0.125
Mof_C 	C 	0.2955	0.0373	0.2955	-0.172
Mof_H 	H 	0.2855	0.0623	0.2855	0.084
Mof_O 	O 	0.6797	0.7471	0.3203	-0.539
Mof_O 	O 	0.6374	0.7075	0.3626	-0.534
Mof_O 	O 	0.5412	0.8509	0.4588	-0.481
Mof_O 	O 	0.5426	0.7801	0.4574	-0.475
Mof_C 	C 	0.6333	0.7782	0.3667	-0.126
Mof_C 	C 	0.6029	0.7777	0.3971	0.056
Mof_H 	H 	0.593	0.7526	0.407	0.022
Mof_C 	C 	0.5874	0.8146	0.4126	-0.11
Mof_C 	C 	0.6022	0.8521	0.3978	-0.006
Mof_H 	H 	0.5919	0.8768	0.4081	0.045
Mof_C 	C 	0.6326	0.8526	0.3674	-0.019
Mof_C 	C 	0.6481	0.8157	0.3519	-0
Mof_H 	H 	0.6684	0.816	0.3316	0.034
Mof_C 	C 	0.6522	0.7407	0.3478	0.405
Mof_C 	C 	0.555	0.8162	0.445	0.364
Mof_C 	C 	0.648	0.8913	0.352	0.013
Mof_C 	C 	0.6592	0.9243	0.3408	-0.074
Mof_C 	C 	0.6741	0.9633	0.3259	0.124
Mof_C 	C 	0.7045	0.9627	0.2955	-0.172
Mof_H 	H 	0.7145	0.9377	0.2855	0.084
Mof_O 	O 	0.6797	0.2529	0.6797	-0.539
Mof_O 	O 	0.6374	0.2925	0.6374	-0.534
Mof_O 	O 	0.5412	0.1491	0.5412	-0.481
Mof_O 	O 	0.5426	0.2199	0.5426	-0.475
Mof_C 	C 	0.6333	0.2218	0.6333	-0.126
Mof_C 	C 	0.6029	0.2223	0.6029	0.056
Mof_H 	H 	0.593	0.2474	0.593	0.022
Mof_C 	C 	0.5874	0.1854	0.5874	-0.11
Mof_C 	C 	0.6022	0.1479	0.6022	-0.006
Mof_H 	H 	0.5919	0.1232	0.5919	0.045
Mof_C 	C 	0.6326	0.1474	0.6326	-0.019
Mof_C 	C 	0.6481	0.1843	0.6481	-0
Mof_H 	H 	0.6684	0.184	0.6684	0.034
Mof_C 	C 	0.6522	0.2593	0.6522	0.405
Mof_C 	C 	0.555	0.1838	0.555	0.364
Mof_C 	C 	0.648	0.1087	0.648	0.013
Mof_C 	C 	0.6592	0.0757	0.6592	-0.074
Mof_C 	C 	0.6741	0.0367	0.6741	0.125
Mof_C 	C 	0.7045	0.0373	0.7045	-0.172
Mof_H 	H 	0.7145	0.0623	0.7145	0.084
Mof_O 	O 	0.3203	0.7471	0.6797	-0.539
Mof_O 	O 	0.3626	0.7075	0.6374	-0.534
Mof_O 	O 	0.4588	0.8509	0.5412	-0.481
Mof_O 	O 	0.4574	0.7801	0.5426	-0.475
Mof_C 	C 	0.3667	0.7782	0.6333	-0.126
Mof_C 	C 	0.3971	0.7777	0.6029	0.056
Mof_H 	H 	0.407	0.7526	0.593	0.022
Mof_C 	C 	0.4126	0.8146	0.5874	-0.11
Mof_C 	C 	0.3978	0.8521	0.6022	-0.006
Mof_H 	H 	0.4081	0.8768	0.5919	0.045
Mof_C 	C 	0.3674	0.8526	0.6326	-0.019
Mof_C 	C 	0.3519	0.8157	0.6481	-0
Mof_H 	H 	0.3316	0.816	0.6684	0.034
Mof_C 	C 	0.3478	0.7407	0.6522	0.405
Mof_C 	C 	0.445	0.8162	0.555	0.364
Mof_C 	C 	0.352	0.8913	0.648	0.013
Mof_C 	C 	0.3408	0.9243	0.6592	-0.074
Mof_C 	C 	0.3259	0.9633	0.6741	0.124
Mof_C 	C 	0.2955	0.9627	0.7045	-0.172
Mof_H 	H 	0.2855	0.9377	0.7145	0.084
Mof_O 	O 	0.3203	0.3203	0.2529	-0.539
Mof_O 	O 	0.3626	0.3626	0.2925	-0.534
Mof_O 	O 	0.4588	0.4588	0.1491	-0.481
Mof_O 	O 	0.4574	0.4574	0.2199	-0.475
Mof_C 	C 	0.3667	0.3667	0.2218	-0.126
Mof_C 	C 	0.3971	0.3971	0.2223	0.056
Mof_H 	H 	0.407	0.407	0.2474	0.022
Mof_C 	C 	0.4126	0.4126	0.1854	-0.11
Mof_C 	C 	0.3978	0.3978	0.1479	-0.006
Mof_H 	H 	0.4081	0.4081	0.1232	0.045
Mof_C 	C 	0.3674	0.3674	0.1474	-0.019
Mof_C 	C 	0.3519	0.3519	0.1843	-0
Mof_H 	H 	0.3316	0.3316	0.184	0.034
Mof_C 	C 	0.3478	0.3478	0.2593	0.405
Mof_C 	C 	0.445	0.445	0.1838	0.364
Mof_C 	C 	0.352	0.352	0.1087	0.013
Mof_C 	C 	0.3408	0.3408	0.0757	-0.074
Mof_C 	C 	0.3259	0.3259	0.0367	0.125
Mof_C 	C 	0.2955	0.2955	0.0373	-0.172
Mof_H 	H 	0.2855	0.2855	0.0623	0.084
Mof_O 	O 	0.3203	0.6797	0.7471	-0.539
Mof_O 	O 	0.3626	0.6374	0.7075	-0.534
Mof_O 	O 	0.4588	0.5412	0.8509	-0.481
Mof_O 	O 	0.4574	0.5426	0.7801	-0.475
Mof_C 	C 	0.3667	0.6333	0.7782	-0.126
Mof_C 	C 	0.3971	0.6029	0.7777	0.056
Mof_H 	H 	0.407	0.593	0.7526	0.022
Mof_C 	C 	0.4126	0.5874	0.8146	-0.11
Mof_C 	C 	0.3978	0.6022	0.8521	-0.006
Mof_H 	H 	0.4081	0.5919	0.8768	0.045
Mof_C 	C 	0.3674	0.6326	0.8526	-0.019
Mof_C 	C 	0.3519	0.6481	0.8157	-0
Mof_H 	H 	0.3316	0.6684	0.816	0.034
Mof_C 	C 	0.3478	0.6522	0.7407	0.405
Mof_C 	C 	0.445	0.555	0.8162	0.364
Mof_C 	C 	0.352	0.648	0.8913	0.013
Mof_C 	C 	0.3408	0.6592	0.9243	-0.074
Mof_C 	C 	0.3259	0.6741	0.9633	0.124
Mof_C 	C 	0.2955	0.7045	0.9627	-0.172
Mof_H 	H 	0.2855	0.7145	0.9377	0.084
Mof_O 	O 	0.6797	0.6797	0.2529	-0.539
Mof_O 	O 	0.6374	0.6374	0.2925	-0.534
Mof_O 	O 	0.5412	0.5412	0.1491	-0.481
Mof_O 	O 	0.5426	0.5426	0.2199	-0.475
Mof_C 	C 	0.6333	0.6333	0.2218	-0.126
Mof_C 	C 	0.6029	0.6029	0.2223	0.056
Mof_H 	H 	0.593	0.593	0.2474	0.022
Mof_C 	C 	0.5874	0.5874	0.1854	-0.11
Mof_C 	C 	0.6022	0.6022	0.1479	-0.006
Mof_H 	H 	0.5919	0.5919	0.1232	0.045
Mof_C 	C 	0.6326	0.6326	0.1474	-0.019
Mof_C 	C 	0.6481	0.6481	0.1843	-0
Mof_H 	H 	0.6684	0.6684	0.184	0.034
Mof_C 	C 	0.6522	0.6522	0.2593	0.405
Mof_C 	C 	0.555	0.555	0.1838	0.364
Mof_C 	C 	0.648	0.648	0.1087	0.013
Mof_C 	C 	0.6592	0.6592	0.0757	-0.074
Mof_C 	C 	0.6741	0.6741	0.0367	0.125
Mof_C 	C 	0.7045	0.7045	0.0373	-0.172
Mof_H 	H 	0.7145	0.7145	0.0623	0.084
Mof_O 	O 	0.6797	0.3203	0.7471	-0.539
Mof_O 	O 	0.6374	0.3626	0.7075	-0.534
Mof_O 	O 	0.5412	0.4588	0.8509	-0.481
Mof_O 	O 	0.5426	0.4574	0.7801	-0.475
Mof_C 	C 	0.6333	0.3667	0.7782	-0.126
Mof_C 	C 	0.6029	0.3971	0.7777	0.056
Mof_H 	H 	0.593	0.407	0.7526	0.022
Mof_C 	C 	0.5874	0.4126	0.8146	-0.11
Mof_C 	C 	0.6022	0.3978	0.8521	-0.006
Mof_H 	H 	0.5919	0.4081	0.8768	0.045
Mof_C 	C 	0.6326	0.3674	0.8526	-0.019
Mof_C 	C 	0.6481	0.3519	0.8157	-0
Mof_H 	H 	0.6684	0.3316	0.816	0.034
Mof_C 	C 	0.6522	0.3478	0.7407	0.405
Mof_C 	C 	0.555	0.445	0.8162	0.364
Mof_C 	C 	0.648	0.352	0.8913	0.013
Mof_C 	C 	0.6592	0.3408	0.9243	-0.074
Mof_C 	C 	0.6741	0.3259	0.9633	0.124
Mof_C 	C 	0.7045	0.2955	0.9627	-0.172
Mof_H 	H 	0.7145	0.2855	0.9377	0.084
Mof_O 	O 	0.2529	0.3203	0.3203	-0.539
Mof_O 	O 	0.2925	0.3626	0.3626	-0.534
Mof_O 	O 	0.1491	0.4588	0.4588	-0.481
Mof_O 	O 	0.2199	0.4574	0.4574	-0.475
Mof_C 	C 	0.2218	0.3667	0.3667	-0.126
Mof_C 	C 	0.2223	0.3971	0.3971	0.056
Mof_H 	H 	0.2474	0.407	0.407	0.022
Mof_C 	C 	0.1854	0.4126	0.4126	-0.11
Mof_C 	C 	0.1479	0.3978	0.3978	-0.006
Mof_H 	H 	0.1232	0.4081	0.4081	0.045
Mof_C 	C 	0.1474	0.3674	0.3674	-0.019
Mof_C 	C 	0.1843	0.3519	0.3519	-0
Mof_H 	H 	0.184	0.3316	0.3316	0.034
Mof_C 	C 	0.2593	0.3478	0.3478	0.405
Mof_C 	C 	0.1838	0.445	0.445	0.364
Mof_C 	C 	0.1087	0.352	0.352	0.013
Mof_C 	C 	0.0757	0.3408	0.3408	-0.074
Mof_C 	C 	0.0367	0.3259	0.3259	0.125
Mof_C 	C 	0.0373	0.2955	0.2955	-0.172
Mof_H 	H 	0.0623	0.2855	0.2855	0.084
Mof_O 	O 	0.7471	0.3203	0.6797	-0.539
Mof_O 	O 	0.7075	0.3626	0.6374	-0.534
Mof_O 	O 	0.8509	0.4588	0.5412	-0.481
Mof_O 	O 	0.7801	0.4574	0.5426	-0.475
Mof_C 	C 	0.7782	0.3667	0.6333	-0.126
Mof_C 	C 	0.7777	0.3971	0.6029	0.056
Mof_H 	H 	0.7526	0.407	0.593	0.022
Mof_C 	C 	0.8146	0.4126	0.5874	-0.11
Mof_C 	C 	0.8521	0.3978	0.6022	-0.006
Mof_H 	H 	0.8768	0.4081	0.5919	0.045
Mof_C 	C 	0.8526	0.3674	0.6326	-0.019
Mof_C 	C 	0.8157	0.3519	0.6481	-0
Mof_H 	H 	0.816	0.3316	0.6684	0.034
Mof_C 	C 	0.7407	0.3478	0.6522	0.405
Mof_C 	C 	0.8162	0.445	0.555	0.364
Mof_C 	C 	0.8913	0.352	0.648	0.013
Mof_C 	C 	0.9243	0.3408	0.6592	-0.074
Mof_C 	C 	0.9633	0.3259	0.6741	0.124
Mof_C 	C 	0.9627	0.2955	0.7045	-0.172
Mof_H 	H 	0.9377	0.2855	0.7145	0.084
Mof_O 	O 	0.2529	0.6797	0.6797	-0.539
Mof_O 	O 	0.2925	0.6374	0.6374	-0.534
Mof_O 	O 	0.1491	0.5412	0.5412	-0.481
Mof_O 	O 	0.2199	0.5426	0.5426	-0.475
Mof_C 	C 	0.2218	0.6333	0.6333	-0.126
Mof_C 	C 	0.2223	0.6029	0.6029	0.056
Mof_H 	H 	0.2474	0.593	0.593	0.022
Mof_C 	C 	0.1854	0.5874	0.5874	-0.11
Mof_C 	C 	0.1479	0.6022	0.6022	-0.006
Mof_H 	H 	0.1232	0.5919	0.5919	0.045
Mof_C 	C 	0.1474	0.6326	0.6326	-0.019
Mof_C 	C 	0.1843	0.6481	0.6481	-0
Mof_H 	H 	0.184	0.6684	0.6684	0.034
Mof_C 	C 	0.2593	0.6522	0.6522	0.405
Mof_C 	C 	0.1838	0.555	0.555	0.364
Mof_C 	C 	0.1087	0.648	0.648	0.013
Mof_C 	C 	0.0757	0.6592	0.6592	-0.074
Mof_C 	C 	0.0367	0.6741	0.6741	0.125
Mof_C 	C 	0.0373	0.7045	0.7045	-0.172
Mof_H 	H 	0.0623	0.7145	0.7145	0.084
Mof_O 	O 	0.7471	0.6797	0.3203	-0.539
Mof_O 	O 	0.7075	0.6374	0.3626	-0.534
Mof_O 	O 	0.8509	0.5412	0.4588	-0.481
Mof_O 	O 	0.7801	0.5426	0.4574	-0.475
Mof_C 	C 	0.7782	0.6333	0.3667	-0.126
Mof_C 	C 	0.7777	0.6029	0.3971	0.056
Mof_H 	H 	0.7526	0.593	0.407	0.022
Mof_C 	C 	0.8146	0.5874	0.4126	-0.11
Mof_C 	C 	0.8521	0.6022	0.3978	-0.006
Mof_H 	H 	0.8768	0.5919	0.4081	0.045
Mof_C 	C 	0.8526	0.6326	0.3674	-0.019
Mof_C 	C 	0.8157	0.6481	0.3519	-0
Mof_H 	H 	0.816	0.6684	0.3316	0.034
Mof_C 	C 	0.7407	0.6522	0.3478	0.405
Mof_C 	C 	0.8162	0.555	0.445	0.364
Mof_C 	C 	0.8913	0.648	0.352	0.013
Mof_C 	C 	0.9243	0.6592	0.3408	-0.074
Mof_C 	C 	0.9633	0.6741	0.3259	0.124
Mof_C 	C 	0.9627	0.7045	0.2955	-0.172
Mof_H 	H 	0.9377	0.7145	0.2855	0.084
Mof_O 	O 	0.2529	0.3203	0.6797	-0.539
Mof_O 	O 	0.2925	0.3626	0.6374	-0.534
Mof_O 	O 	0.1491	0.4588	0.5412	-0.481
Mof_O 	O 	0.2199	0.4574	0.5426	-0.475
Mof_C 	C 	0.2218	0.3667	0.6333	-0.126
Mof_C 	C 	0.2223	0.3971	0.6029	0.056
Mof_H 	H 	0.2474	0.407	0.593	0.022
Mof_C 	C 	0.1854	0.4126	0.5874	-0.11
Mof_C 	C 	0.1479	0.3978	0.6022	-0.006
Mof_H 	H 	0.1232	0.4081	0.5919	0.045
Mof_C 	C 	0.1474	0.3674	0.6326	-0.019
Mof_C 	C 	0.1843	0.3519	0.6481	-0
Mof_H 	H 	0.184	0.3316	0.6684	0.034
Mof_C 	C 	0.2593	0.3478	0.6522	0.405
Mof_C 	C 	0.1838	0.445	0.555	0.364
Mof_C 	C 	0.1087	0.352	0.648	0.013
Mof_C 	C 	0.0757	0.3408	0.6592	-0.074
Mof_C 	C 	0.0367	0.3259	0.6741	0.125
Mof_C 	C 	0.0373	0.2955	0.7045	-0.172
Mof_H 	H 	0.0623	0.2855	0.7145	0.084
Mof_O 	O 	0.7471	0.6797	0.6797	-0.539
Mof_O 	O 	0.7075	0.6374	0.6374	-0.534
Mof_O 	O 	0.8509	0.5412	0.5412	-0.481
Mof_O 	O 	0.7801	0.5426	0.5426	-0.475
Mof_C 	C 	0.7782	0.6333	0.6333	-0.126
Mof_C 	C 	0.7777	0.6029	0.6029	0.056
Mof_H 	H 	0.7526	0.593	0.593	0.022
Mof_C 	C 	0.8146	0.5874	0.5874	-0.11
Mof_C 	C 	0.8521	0.6022	0.6022	-0.006
Mof_H 	H 	0.8768	0.5919	0.5919	0.045
Mof_C 	C 	0.8526	0.6326	0.6326	-0.019
Mof_C 	C 	0.8157	0.6481	0.6481	-0
Mof_H 	H 	0.816	0.6684	0.6684	0.034
Mof_C 	C 	0.7407	0.6522	0.6522	0.405
Mof_C 	C 	0.8162	0.555	0.555	0.364
Mof_C 	C 	0.8913	0.648	0.648	0.013
Mof_C 	C 	0.9243	0.6592	0.6592	-0.074
Mof_C 	C 	0.9633	0.6741	0.6741	0.124
Mof_C 	C 	0.9627	0.7045	0.7045	-0.172
Mof_H 	H 	0.9377	0.7145	0.7145	0.084
Mof_O 	O 	0.2529	0.6797	0.3203	-0.539
Mof_O 	O 	0.2925	0.6374	0.3626	-0.534
Mof_O 	O 	0.1491	0.5412	0.4588	-0.481
Mof_O 	O 	0.2199	0.5426	0.4574	-0.475
Mof_C 	C 	0.2218	0.6333	0.3667	-0.126
Mof_C 	C 	0.2223	0.6029	0.3971	0.056
Mof_H 	H 	0.2474	0.593	0.407	0.022
Mof_C 	C 	0.1854	0.5874	0.4126	-0.11
Mof_C 	C 	0.1479	0.6022	0.3978	-0.006
Mof_H 	H 	0.1232	0.5919	0.4081	0.045
Mof_C 	C 	0.1474	0.6326	0.3674	-0.019
Mof_C 	C 	0.1843	0.6481	0.3519	-0
Mof_H 	H 	0.184	0.6684	0.3316	0.034
Mof_C 	C 	0.2593	0.6522	0.3478	0.405
Mof_C 	C 	0.1838	0.555	0.445	0.364
Mof_C 	C 	0.1087	0.648	0.352	0.013
Mof_C 	C 	0.0757	0.6592	0.3408	-0.074
Mof_C 	C 	0.0367	0.6741	0.3259	0.125
Mof_C 	C 	0.0373	0.7045	0.2955	-0.172
Mof_H 	H 	0.0623	0.7145	0.2855	0.084
Mof_O 	O 	0.7471	0.3203	0.3203	-0.539
Mof_O 	O 	0.7075	0.3626	0.3626	-0.534
Mof_O 	O 	0.8509	0.4588	0.4588	-0.481
Mof_O 	O 	0.7801	0.4574	0.4574	-0.475
Mof_C 	C 	0.7782	0.3667	0.3667	-0.126
Mof_C 	C 	0.7777	0.3971	0.3971	0.056
Mof_H 	H 	0.7526	0.407	0.407	0.022
Mof_C 	C 	0.8146	0.4126	0.4126	-0.11
Mof_C 	C 	0.8521	0.3978	0.3978	-0.006
Mof_H 	H 	0.8768	0.4081	0.4081	0.045
Mof_C 	C 	0.8526	0.3674	0.3674	-0.019
Mof_C 	C 	0.8157	0.3519	0.3519	-0
Mof_H 	H 	0.816	0.3316	0.3316	0.034
Mof_C 	C 	0.7407	0.3478	0.3478	0.405
Mof_C 	C 	0.8162	0.445	0.445	0.364
Mof_C 	C 	0.8913	0.352	0.352	0.013
Mof_C 	C 	0.9243	0.3408	0.3408	-0.074
Mof_C 	C 	0.9633	0.3259	0.3259	0.124
Mof_C 	C 	0.9627	0.2955	0.2955	-0.172
Mof_H 	H 	0.9377	0.2855	0.2855	0.084
Mof_O 	O 	0.3203	0.3203	0.7471	-0.539
Mof_O 	O 	0.3626	0.3626	0.7075	-0.534
Mof_O 	O 	0.4588	0.4588	0.8509	-0.481
Mof_O 	O 	0.4574	0.4574	0.7801	-0.475
Mof_C 	C 	0.3667	0.3667	0.7782	-0.126
Mof_C 	C 	0.3971	0.3971	0.7777	0.056
Mof_H 	H 	0.407	0.407	0.7526	0.022
Mof_C 	C 	0.4126	0.4126	0.8146	-0.11
Mof_C 	C 	0.3978	0.3978	0.8521	-0.006
Mof_H 	H 	0.4081	0.4081	0.8768	0.045
Mof_C 	C 	0.3674	0.3674	0.8526	-0.019
Mof_C 	C 	0.3519	0.3519	0.8157	-0
Mof_H 	H 	0.3316	0.3316	0.816	0.034
Mof_C 	C 	0.3478	0.3478	0.7407	0.405
Mof_C 	C 	0.445	0.445	0.8162	0.364
Mof_C 	C 	0.352	0.352	0.8913	0.013
Mof_C 	C 	0.3408	0.3408	0.9243	-0.074
Mof_C 	C 	0.3259	0.3259	0.9633	0.124
Mof_C 	C 	0.2955	0.2955	0.9627	-0.172
Mof_H 	H 	0.2855	0.2855	0.9377	0.084
Mof_O 	O 	0.6797	0.3203	0.2529	-0.539
Mof_O 	O 	0.6374	0.3626	0.2925	-0.534
Mof_O 	O 	0.5412	0.4588	0.1491	-0.481
Mof_O 	O 	0.5426	0.4574	0.2199	-0.475
Mof_C 	C 	0.6333	0.3667	0.2218	-0.126
Mof_C 	C 	0.6029	0.3971	0.2223	0.056
Mof_H 	H 	0.593	0.407	0.2474	0.022
Mof_C 	C 	0.5874	0.4126	0.1854	-0.11
Mof_C 	C 	0.6022	0.3978	0.1479	-0.006
Mof_H 	H 	0.5919	0.4081	0.1232	0.045
Mof_C 	C 	0.6326	0.3674	0.1474	-0.019
Mof_C 	C 	0.6481	0.3519	0.1843	-0
Mof_H 	H 	0.6684	0.3316	0.184	0.034
Mof_C 	C 	0.6522	0.3478	0.2593	0.405
Mof_C 	C 	0.555	0.445	0.1838	0.364
Mof_C 	C 	0.648	0.352	0.1087	0.013
Mof_C 	C 	0.6592	0.3408	0.0757	-0.074
Mof_C 	C 	0.6741	0.3259	0.0367	0.125
Mof_C 	C 	0.7045	0.2955	0.0373	-0.172
Mof_H 	H 	0.7145	0.2855	0.0623	0.084
Mof_O 	O 	0.6797	0.6797	0.7471	-0.539
Mof_O 	O 	0.6374	0.6374	0.7075	-0.534
Mof_O 	O 	0.5412	0.5412	0.8509	-0.481
Mof_O 	O 	0.5426	0.5426	0.7801	-0.475
Mof_C 	C 	0.6333	0.6333	0.7782	-0.126
Mof_C 	C 	0.6029	0.6029	0.7777	0.056
Mof_H 	H 	0.593	0.593	0.7526	0.022
Mof_C 	C 	0.5874	0.5874	0.8146	-0.11
Mof_C 	C 	0.6022	0.6022	0.8521	-0.006
Mof_H 	H 	0.5919	0.5919	0.8768	0.045
Mof_C 	C 	0.6326	0.6326	0.8526	-0.019
Mof_C 	C 	0.6481	0.6481	0.8157	-0
Mof_H 	H 	0.6684	0.6684	0.816	0.034
Mof_C 	C 	0.6522	0.6522	0.7407	0.405
Mof_C 	C 	0.555	0.555	0.8162	0.364
Mof_C 	C 	0.648	0.648	0.8913	0.013
Mof_C 	C 	0.6592	0.6592	0.9243	-0.074
Mof_C 	C 	0.6741	0.6741	0.9633	0.124
Mof_C 	C 	0.7045	0.7045	0.9627	-0.172
Mof_H 	H 	0.7145	0.7145	0.9377	0.084
Mof_O 	O 	0.3203	0.6797	0.2529	-0.539
Mof_O 	O 	0.3626	0.6374	0.2925	-0.534
Mof_O 	O 	0.4588	0.5412	0.1491	-0.481
Mof_O 	O 	0.4574	0.5426	0.2199	-0.475
Mof_C 	C 	0.3667	0.6333	0.2218	-0.126
Mof_C 	C 	0.3971	0.6029	0.2223	0.056
Mof_H 	H 	0.407	0.593	0.2474	0.022
Mof_C 	C 	0.4126	0.5874	0.1854	-0.11
Mof_C 	C 	0.3978	0.6022	0.1479	-0.006
Mof_H 	H 	0.4081	0.5919	0.1232	0.045
Mof_C 	C 	0.3674	0.6326	0.1474	-0.019
Mof_C 	C 	0.3519	0.6481	0.1843	-0
Mof_H 	H 	0.3316	0.6684	0.184	0.034
Mof_C 	C 	0.3478	0.6522	0.2593	0.405
Mof_C 	C 	0.445	0.555	0.1838	0.364
Mof_C 	C 	0.352	0.648	0.1087	0.013
Mof_C 	C 	0.3408	0.6592	0.0757	-0.074
Mof_C 	C 	0.3259	0.6741	0.0367	0.125
Mof_C 	C 	0.2955	0.7045	0.0373	-0.172
Mof_H 	H 	0.2855	0.7145	0.0623	0.084
Mof_O 	O 	0.3203	0.2529	0.6797	-0.539
Mof_O 	O 	0.3626	0.2925	0.6374	-0.534
Mof_O 	O 	0.4588	0.1491	0.5412	-0.481
Mof_O 	O 	0.4574	0.2199	0.5426	-0.475
Mof_C 	C 	0.3667	0.2218	0.6333	-0.126
Mof_C 	C 	0.3971	0.2223	0.6029	0.056
Mof_H 	H 	0.407	0.2474	0.593	0.022
Mof_C 	C 	0.4126	0.1854	0.5874	-0.11
Mof_C 	C 	0.3978	0.1479	0.6022	-0.006
Mof_H 	H 	0.4081	0.1232	0.5919	0.045
Mof_C 	C 	0.3674	0.1474	0.6326	-0.019
Mof_C 	C 	0.3519	0.1843	0.6481	-0
Mof_H 	H 	0.3316	0.184	0.6684	0.034
Mof_C 	C 	0.3478	0.2593	0.6522	0.405
Mof_C 	C 	0.445	0.1838	0.555	0.364
Mof_C 	C 	0.352	0.1087	0.648	0.013
Mof_C 	C 	0.3408	0.0757	0.6592	-0.074
Mof_C 	C 	0.3259	0.0367	0.6741	0.125
Mof_C 	C 	0.2955	0.0373	0.7045	-0.172
Mof_H 	H 	0.2855	0.0623	0.7145	0.084
Mof_O 	O 	0.3203	0.7471	0.3203	-0.539
Mof_O 	O 	0.3626	0.7075	0.3626	-0.534
Mof_O 	O 	0.4588	0.8509	0.4588	-0.481
Mof_O 	O 	0.4574	0.7801	0.4574	-0.475
Mof_C 	C 	0.3667	0.7782	0.3667	-0.126
Mof_C 	C 	0.3971	0.7777	0.3971	0.056
Mof_H 	H 	0.407	0.7526	0.407	0.022
Mof_C 	C 	0.4126	0.8146	0.4126	-0.11
Mof_C 	C 	0.3978	0.8521	0.3978	-0.006
Mof_H 	H 	0.4081	0.8768	0.4081	0.045
Mof_C 	C 	0.3674	0.8526	0.3674	-0.019
Mof_C 	C 	0.3519	0.8157	0.3519	-0
Mof_H 	H 	0.3316	0.816	0.3316	0.034
Mof_C 	C 	0.3478	0.7407	0.3478	0.405
Mof_C 	C 	0.445	0.8162	0.445	0.364
Mof_C 	C 	0.352	0.8913	0.352	0.013
Mof_C 	C 	0.3408	0.9243	0.3408	-0.074
Mof_C 	C 	0.3259	0.9633	0.3259	0.124
Mof_C 	C 	0.2955	0.9627	0.2955	-0.172
Mof_H 	H 	0.2855	0.9377	0.2855	0.084
Mof_O 	O 	0.6797	0.2529	0.3203	-0.539
Mof_O 	O 	0.6374	0.2925	0.3626	-0.534
Mof_O 	O 	0.5412	0.1491	0.4588	-0.481
Mof_O 	O 	0.5426	0.2199	0.4574	-0.475
Mof_C 	C 	0.6333	0.2218	0.3667	-0.126
Mof_C 	C 	0.6029	0.2223	0.3971	0.056
Mof_H 	H 	0.593	0.2474	0.407	0.022
Mof_C 	C 	0.5874	0.1854	0.4126	-0.11
Mof_C 	C 	0.6022	0.1479	0.3978	-0.006
Mof_H 	H 	0.5919	0.1232	0.4081	0.045
Mof_C 	C 	0.6326	0.1474	0.3674	-0.019
Mof_C 	C 	0.6481	0.1843	0.3519	-0
Mof_H 	H 	0.6684	0.184	0.3316	0.034
Mof_C 	C 	0.6522	0.2593	0.3478	0.405
Mof_C 	C 	0.555	0.1838	0.445	0.364
Mof_C 	C 	0.648	0.1087	0.352	0.013
Mof_C 	C 	0.6592	0.0757	0.3408	-0.074
Mof_C 	C 	0.6741	0.0367	0.3259	0.125
Mof_C 	C 	0.7045	0.0373	0.2955	-0.172
Mof_H 	H 	0.7145	0.0623	0.2855	0.084
Mof_O 	O 	0.6797	0.7471	0.6797	-0.539
Mof_O 	O 	0.6374	0.7075	0.6374	-0.534
Mof_O 	O 	0.5412	0.8509	0.5412	-0.481
Mof_O 	O 	0.5426	0.7801	0.5426	-0.475
Mof_C 	C 	0.6333	0.7782	0.6333	-0.126
Mof_C 	C 	0.6029	0.7777	0.6029	0.056
Mof_H 	H 	0.593	0.7526	0.593	0.022
Mof_C 	C 	0.5874	0.8146	0.5874	-0.11
Mof_C 	C 	0.6022	0.8521	0.6022	-0.006
Mof_H 	H 	0.5919	0.8768	0.5919	0.045
Mof_C 	C 	0.6326	0.8526	0.6326	-0.019
Mof_C 	C 	0.6481	0.8157	0.6481	-0
Mof_H 	H 	0.6684	0.816	0.6684	0.034
Mof_C 	C 	0.6522	0.7407	0.6522	0.405
Mof_C 	C 	0.555	0.8162	0.555	0.364
Mof_C 	C 	0.648	0.8913	0.648	0.013
Mof_C 	C 	0.6592	0.9243	0.6592	-0.074
Mof_C 	C 	0.6741	0.9633	0.6741	0.124
Mof_C 	C 	0.7045	0.9627	0.7045	-0.172
Mof_H 	H 	0.7145	0.9377	0.7145	0.084
Mof_C 	C 	0.3415	0	0.3415	-0.192
Mof_H 	H 	0.3618	-2.97813e-33	0.3618	0.1
Mof_C 	C 	0.2802	0	0.2802	0.078
Mof_H 	H 	0.2598	-5.95626e-33	0.2598	-0.006
Mof_C 	C 	0.6585	0	0.3415	-0.192
Mof_H 	H 	0.6382	-2.97813e-33	0.3618	0.1
Mof_C 	C 	0.7198	0	0.2802	0.078
Mof_H 	H 	0.7402	-5.95626e-33	0.2598	-0.006
Mof_C 	C 	0.6585	-5.95626e-33	0.6585	-0.192
Mof_H 	H 	0.6382	-5.95626e-33	0.6382	0.1
Mof_C 	C 	0.7198	-5.95626e-33	0.7198	0.078
Mof_H 	H 	0.7402	-5.95626e-33	0.7402	-0.006
Mof_C 	C 	0.3415	-5.95626e-33	0.6585	-0.192
Mof_H 	H 	0.3618	-5.95626e-33	0.6382	0.1
Mof_C 	C 	0.2802	-5.95626e-33	0.7198	0.078
Mof_H 	H 	0.2598	-5.95626e-33	0.7402	-0.006
Mof_C 	C 	0.3415	0.3415	-0	-0.192
Mof_H 	H 	0.3618	0.3618	-0	0.1
Mof_C 	C 	0.2802	0.2802	-0	0.078
Mof_H 	H 	0.2598	0.2598	-0	-0.006
Mof_C 	C 	0.3415	0.6585	-0	-0.192
Mof_H 	H 	0.3618	0.6382	-0	0.1
Mof_C 	C 	0.2802	0.7198	-0	0.078
Mof_H 	H 	0.2598	0.7402	-0	-0.006
Mof_C 	C 	0.6585	0.6585	-0	-0.192
Mof_H 	H 	0.6382	0.6382	-0	0.1
Mof_C 	C 	0.7198	0.7198	-0	0.078
Mof_H 	H 	0.7402	0.7402	-0	-0.006
Mof_C 	C 	0.6585	0.3415	-0	-0.192
Mof_H 	H 	0.6382	0.3618	-0	0.1
Mof_C 	C 	0.7198	0.2802	-0	0.078
Mof_H 	H 	0.7402	0.2598	-0	-0.006
Mof_C 	C 	1.28042e-33	0.3415	0.3415	-0.192
Mof_H 	H 	-4.59972e-33	0.3618	0.3618	0.1
Mof_C 	C 	1.05058e-33	0.2802	0.2802	0.078
Mof_H 	H 	-1.09384e-32	0.2598	0.2598	-0.006
Mof_C 	C 	-3.48728e-33	0.3415	0.6585	-0.192
Mof_H 	H 	-9.51964e-33	0.3618	0.6382	0.1
Mof_C 	C 	-3.25744e-33	0.2802	0.7198	0.078
Mof_H 	H 	-3.18095e-33	0.2598	0.7402	-0.006
Mof_C 	C 	2.46898e-33	0.6585	0.6585	-0.192
Mof_H 	H 	2.39287e-33	0.6382	0.6382	0.1
Mof_C 	C 	-9.21369e-33	0.7198	0.7198	0.078
Mof_H 	H 	2.77531e-33	0.7402	0.7402	-0.006
Mof_C 	C 	-4.67584e-33	0.6585	0.3415	-0.192
Mof_H 	H 	-7.57785e-33	0.6382	0.3618	0.1
Mof_C 	C 	-4.90567e-33	0.7198	0.2802	0.078
Mof_H 	H 	-2.00403e-33	0.7402	0.2598	-0.006
_end
