data_functionalizedCrystal
_audit_creation_method	'EQeq! by Chris Wilmer'
_symmetry_space_group_name_H-M	'P1'
_symmetry_Int_Tables_number	1
_symmetry_cell_setting	triclinic
loop_
_symmetry_equiv_pos_as_xyz
  x,y,z
_cell_length_a	10.4309
_cell_length_b	11.4737
_cell_length_c	12.9497
_cell_angle_alpha	106.724
_cell_angle_beta	90.209
_cell_angle_gamma	93.187
loop_
_atom_site_label
_atom_site_type_symbol
_atom_site_fract_x
_atom_site_fract_y
_atom_site_fract_z
_atom_site_charge
Mof_Nd	Nd	0.52459	0.54627	0.6638	2.179
Mof_O 	O 	0.61412	0.72168	0.81402	-0.48
Mof_O 	O 	0.40439	0.71589	0.78483	-0.449
Mof_O 	O 	0.64444	0.49058	0.4926	-0.639
Mof_O 	O 	0.71426	0.52562	0.34392	-0.469
Mof_O 	O 	0.51059	0.3288	0.58586	-0.572
Mof_O 	O 	0.46221	0.27437	0.40929	-0.519
Mof_C 	C 	0.5055	0.7671	0.83276	0.325
Mof_C 	C 	0.5002	0.8879	0.91768	-0.097
Mof_C 	C 	0.5537	0.995	0.8983	0.042
Mof_C 	C 	0.6043	0.9948	0.7954	-0.069
Mof_H 	H 	0.6034	0.9207	0.7388	0.069
Mof_C 	C 	0.6535	0.0998	0.7781	-0.035
Mof_H 	H 	0.6859	0.0982	0.7093	0.041
Mof_C 	C 	0.6568	0.2118	0.862	-0.029
Mof_H 	H 	0.6928	0.2842	0.8492	0.009
Mof_C 	C 	0.6091	0.216	0.9601	-0.072
Mof_H 	H 	0.6117	0.2917	0.0151	0.036
Mof_C 	C 	0.5546	0.1085	0.9825	0.034
Mof_C 	C 	0.7355	0.5107	0.4334	0.419
Mof_C 	C 	0.8716	0.5061	0.4686	-0.152
Mof_C 	C 	0.9248	0.596	0.5574	0.027
Mof_C 	C 	0.8529	0.6957	0.6169	-0.08
Mof_H 	H 	0.7671	0.7016	0.5952	0.027
Mof_C 	C 	0.9062	0.7822	0.7045	-0.042
Mof_H 	H 	0.8567	0.8469	0.7439	0.044
Mof_C 	C 	0.0349	0.7758	0.7367	-0.026
Mof_H 	H 	0.0711	0.8367	0.7975	0.04
Mof_C 	C 	0.1077	0.6838	0.6822	-0.087
Mof_H 	H 	0.1939	0.6814	0.7051	0.07
Mof_C 	C 	0.0554	0.5906	0.5905	0.045
Mof_C 	C 	0.4883	0.2524	0.49555	0.496
Mof_C 	C 	0.4936	0.12045	0.49549	-0.148
Mof_C 	C 	0.3864	0.0616	0.5266	0.021
Mof_C 	C 	0.2677	0.1209	0.5517	-0.016
Mof_H 	H 	0.2632	0.2032	0.5509	0.011
Mof_C 	C 	0.1626	0.0607	0.5762	0.012
Mof_H 	H 	0.084	0.1	0.5899	0.012
Mof_C 	C 	0.1684	0.9393	0.5818	-0.003
Mof_H 	H 	0.0943	0.899	0.6013	0.021
Mof_C 	C 	0.2785	0.8804	0.5597	-0.028
Mof_H 	H 	0.2803	0.7992	0.5639	0.048
Mof_C 	C 	0.3927	0.9379	0.5301	0.014
Mof_C 	C 	0.379	0.054	0.503	0.019
Mof_C 	C 	0.2556	0.0985	0.5103	-0.047
Mof_H 	H 	0.2459	0.1793	0.5075	0.039
Mof_C 	C 	0.1496	0.0286	0.5213	-0.053
Mof_H 	H 	0.0675	0.0612	0.5248	0.034
Mof_C 	C 	0.1595	0.9087	0.5275	-0.04
Mof_H 	H 	0.0842	0.8627	0.5369	0.029
Mof_C 	C 	0.2758	0.8576	0.5202	-0.029
Mof_H 	H 	0.2829	0.776	0.522	-0.006
Mof_C 	C 	0.385	0.932	0.51	0.024
Mof_Nd	Nd	0.47541	0.45373	0.3362	2.179
Mof_O 	O 	0.38588	0.27832	0.18598	-0.48
Mof_O 	O 	0.59561	0.28411	0.21517	-0.449
Mof_O 	O 	0.35556	0.50942	0.5074	-0.639
Mof_O 	O 	0.28574	0.47438	0.65608	-0.469
Mof_O 	O 	0.48941	0.6712	0.41414	-0.572
Mof_O 	O 	0.53779	0.72563	0.59071	-0.519
Mof_C 	C 	0.4945	0.2329	0.16724	0.325
Mof_C 	C 	0.4998	0.1121	0.08232	-0.097
Mof_C 	C 	0.4463	0.005	0.1017	0.042
Mof_C 	C 	0.3957	0.0052	0.2046	-0.069
Mof_H 	H 	0.3966	0.0793	0.2612	0.069
Mof_C 	C 	0.3465	0.9002	0.2219	-0.035
Mof_H 	H 	0.3141	0.9018	0.2907	0.041
Mof_C 	C 	0.3432	0.7882	0.138	-0.029
Mof_H 	H 	0.3072	0.7158	0.1508	0.009
Mof_C 	C 	0.3909	0.784	0.0399	-0.072
Mof_H 	H 	0.3883	0.7083	0.9849	0.036
Mof_C 	C 	0.4454	0.8915	0.0175	0.034
Mof_C 	C 	0.2645	0.4893	0.5666	0.419
Mof_C 	C 	0.1284	0.4939	0.5314	-0.152
Mof_C 	C 	0.0752	0.404	0.4426	0.027
Mof_C 	C 	0.1471	0.3043	0.3831	-0.08
Mof_H 	H 	0.2329	0.2984	0.4048	0.027
Mof_C 	C 	0.0938	0.2178	0.2955	-0.042
Mof_H 	H 	0.1433	0.1531	0.2561	0.044
Mof_C 	C 	0.9651	0.2242	0.2633	-0.026
Mof_H 	H 	0.9289	0.1633	0.2025	0.04
Mof_C 	C 	0.8923	0.3162	0.3178	-0.087
Mof_H 	H 	0.8061	0.3186	0.2949	0.07
Mof_C 	C 	0.9446	0.4094	0.4095	0.045
Mof_C 	C 	0.5117	0.7476	0.50445	0.496
Mof_C 	C 	0.5064	0.87955	0.50451	-0.148
Mof_C 	C 	0.6136	0.9384	0.4734	0.021
Mof_C 	C 	0.7323	0.8791	0.4483	-0.016
Mof_H 	H 	0.7368	0.7968	0.4491	0.011
Mof_C 	C 	0.8374	0.9393	0.4238	0.012
Mof_H 	H 	0.916	0.9	0.4101	0.012
Mof_C 	C 	0.8316	0.0607	0.4182	-0.003
Mof_H 	H 	0.9057	0.101	0.3987	0.021
Mof_C 	C 	0.7215	0.1196	0.4403	-0.028
Mof_H 	H 	0.7197	0.2008	0.4361	0.048
Mof_C 	C 	0.6073	0.0621	0.4699	0.014
Mof_C 	C 	0.621	0.946	0.497	0.019
Mof_C 	C 	0.7444	0.9015	0.4897	-0.047
Mof_H 	H 	0.7541	0.8207	0.4925	0.039
Mof_C 	C 	0.8504	0.9714	0.4787	-0.053
Mof_H 	H 	0.9325	0.9388	0.4752	0.034
Mof_C 	C 	0.8405	0.0913	0.4725	-0.04
Mof_H 	H 	0.9158	0.1373	0.4631	0.029
Mof_C 	C 	0.7242	0.1424	0.4798	-0.029
Mof_H 	H 	0.7171	0.224	0.478	-0.006
Mof_C 	C 	0.615	0.068	0.49	0.024
_end
