data_functionalizedCrystal
_audit_creation_method	'EQeq! by Chris Wilmer'
_symmetry_space_group_name_H-M	'P1'
_symmetry_Int_Tables_number	1
_symmetry_cell_setting	triclinic
loop_
_symmetry_equiv_pos_as_xyz
  x,y,z
_cell_length_a	9.6164
_cell_length_b	18.5742
_cell_length_c	18.0889
_cell_angle_alpha	90
_cell_angle_beta	91.28
_cell_angle_gamma	90
loop_
_atom_site_label
_atom_site_type_symbol
_atom_site_fract_x
_atom_site_fract_y
_atom_site_fract_z
_atom_site_charge
Mof_U 	U 	0.46957	0.1982	0.7082	0.002
Mof_U 	U 	0.97216	0.26479	0.98971	0.004
Mof_U 	U 	0.25264	0.46269	0.8748	0.015
Mof_P 	P 	0.8358	0.154	0.664	0.358
Mof_P 	P 	0.7814	0.1689	0.8291	0.356
Mof_P 	P 	0.2678	0.2652	0.868	0.347
Mof_P 	P 	0.3432	0.3316	0.0127	0.356
Mof_C 	C 	0.8937	0.1913	0.753	0.184
Mof_C 	C 	0.903	0.276	0.7471	-0.741
Mof_H 	H 	0.9616	0.2888	0.7069	0.284
Mof_H 	H 	0.9415	0.2951	0.7924	0.301
Mof_H 	H 	0.8117	0.2955	0.7385	0.288
Mof_C 	C 	0.3919	0.2632	0.9457	0.186
Mof_C 	C 	0.39	0.1858	0.9806	-0.722
Mof_H 	H 	0.4546	0.1836	0.0216	0.286
Mof_H 	H 	0.2979	0.1753	0.9974	0.279
Mof_H 	H 	0.4153	0.151	0.944	0.279
Mof_O 	O 	0.3334	0.2187	0.8093	-0.175
Mof_O 	O 	0.4346	0.3214	0.0811	-0.148
Mof_O 	O 	0.1888	0.3186	0.0277	-0.157
Mof_O 	O 	0.1323	0.2325	0.8952	-0.165
Mof_O 	O 	0.8442	0.2009	0.8988	-0.161
Mof_O 	O 	0.2488	0.3429	0.8446	-0.163
Mof_O 	O 	0.3714	0.4053	0.9769	-0.126
Mof_O 	O 	0.8362	0.0735	0.6697	-0.145
Mof_O 	O 	0.785	0.0852	0.8333	-0.152
Mof_O 	O 	0.5284	0.282	0.9206	-0.355
Mof_H 	H 	0.551	0.254	0.8878	0.277
Mof_O 	O 	0.689	0.1838	0.6522	-0.154
Mof_O 	O 	0.6375	0.1991	0.8091	-0.195
Mof_O 	O 	0.9348	0.1812	0.6064	-0.163
Mof_O 	O 	0.0318	0.1645	0.7691	-0.348
Mof_H 	H 	0.086	0.1809	0.7391	0.265
Mof_U 	U 	0.53043	0.6982	0.7918	0.003
Mof_U 	U 	0.02784	0.76479	0.51029	0.004
Mof_U 	U 	0.74736	0.96269	0.6252	0.016
Mof_P 	P 	0.1642	0.654	0.836	0.359
Mof_P 	P 	0.2186	0.6689	0.6709	0.356
Mof_P 	P 	0.7322	0.7652	0.632	0.347
Mof_P 	P 	0.6568	0.8316	0.4873	0.356
Mof_C 	C 	0.1063	0.6913	0.747	0.184
Mof_C 	C 	0.097	0.776	0.7529	-0.741
Mof_H 	H 	0.0384	0.7888	0.7931	0.284
Mof_H 	H 	0.0585	0.7951	0.7076	0.301
Mof_H 	H 	0.1883	0.7955	0.7615	0.287
Mof_C 	C 	0.6081	0.7632	0.5543	0.187
Mof_C 	C 	0.61	0.6858	0.5194	-0.726
Mof_H 	H 	0.5454	0.6836	0.4784	0.288
Mof_H 	H 	0.7021	0.6753	0.5026	0.28
Mof_H 	H 	0.5847	0.651	0.556	0.28
Mof_O 	O 	0.6666	0.7187	0.6907	-0.175
Mof_O 	O 	0.5654	0.8214	0.4189	-0.148
Mof_O 	O 	0.8112	0.8186	0.4723	-0.156
Mof_O 	O 	0.8677	0.7325	0.6048	-0.166
Mof_O 	O 	0.1558	0.7009	0.6012	-0.161
Mof_O 	O 	0.7512	0.8429	0.6554	-0.163
Mof_O 	O 	0.6286	0.9053	0.5231	-0.126
Mof_O 	O 	0.1638	0.5735	0.8303	-0.144
Mof_O 	O 	0.215	0.5852	0.6667	-0.152
Mof_O 	O 	0.4716	0.782	0.5794	-0.355
Mof_H 	H 	0.449	0.754	0.6122	0.277
Mof_O 	O 	0.311	0.6838	0.8478	-0.154
Mof_O 	O 	0.3625	0.6991	0.6909	-0.195
Mof_O 	O 	0.0652	0.6812	0.8936	-0.163
Mof_O 	O 	0.9682	0.6645	0.7309	-0.348
Mof_H 	H 	0.914	0.6809	0.7609	0.265
Mof_U 	U 	0.53043	0.8018	0.2918	0.003
Mof_U 	U 	0.02784	0.73521	0.01029	0.005
Mof_U 	U 	0.74736	0.53731	0.1252	0.016
Mof_P 	P 	0.1642	0.846	0.336	0.359
Mof_P 	P 	0.2186	0.8311	0.1709	0.356
Mof_P 	P 	0.7322	0.7348	0.132	0.347
Mof_P 	P 	0.6568	0.6684	0.9873	0.356
Mof_C 	C 	0.1063	0.8087	0.247	0.184
Mof_C 	C 	0.097	0.724	0.2529	-0.741
Mof_H 	H 	0.0384	0.7112	0.2931	0.284
Mof_H 	H 	0.0585	0.7049	0.2076	0.301
Mof_H 	H 	0.1883	0.7045	0.2615	0.288
Mof_C 	C 	0.6081	0.7368	0.0543	0.186
Mof_C 	C 	0.61	0.8142	0.0194	-0.722
Mof_H 	H 	0.5454	0.8164	0.9784	0.286
Mof_H 	H 	0.7021	0.8247	0.0026	0.279
Mof_H 	H 	0.5847	0.849	0.056	0.279
Mof_O 	O 	0.6666	0.7813	0.1907	-0.175
Mof_O 	O 	0.5654	0.6786	0.9189	-0.148
Mof_O 	O 	0.8112	0.6814	0.9723	-0.157
Mof_O 	O 	0.8677	0.7675	0.1048	-0.165
Mof_O 	O 	0.1558	0.7991	0.1012	-0.161
Mof_O 	O 	0.7512	0.6571	0.1554	-0.163
Mof_O 	O 	0.6286	0.5947	0.0231	-0.126
Mof_O 	O 	0.1638	0.9265	0.3303	-0.145
Mof_O 	O 	0.215	0.9148	0.1667	-0.152
Mof_O 	O 	0.4716	0.718	0.0794	-0.355
Mof_H 	H 	0.449	0.746	0.1122	0.277
Mof_O 	O 	0.311	0.8162	0.3478	-0.154
Mof_O 	O 	0.3625	0.8009	0.1909	-0.195
Mof_O 	O 	0.0652	0.8188	0.3936	-0.163
Mof_O 	O 	0.9682	0.8355	0.2309	-0.348
Mof_H 	H 	0.914	0.8191	0.2609	0.265
Mof_U 	U 	0.46957	0.3018	0.2082	0.003
Mof_U 	U 	0.97216	0.23521	0.48971	0.004
Mof_U 	U 	0.25264	0.03731	0.3748	0.016
Mof_P 	P 	0.8358	0.346	0.164	0.359
Mof_P 	P 	0.7814	0.3311	0.3291	0.356
Mof_P 	P 	0.2678	0.2348	0.368	0.347
Mof_P 	P 	0.3432	0.1684	0.5127	0.356
Mof_C 	C 	0.8937	0.3087	0.253	0.184
Mof_C 	C 	0.903	0.224	0.2471	-0.741
Mof_H 	H 	0.9616	0.2112	0.2069	0.284
Mof_H 	H 	0.9415	0.2049	0.2924	0.301
Mof_H 	H 	0.8117	0.2045	0.2385	0.287
Mof_C 	C 	0.3919	0.2368	0.4457	0.187
Mof_C 	C 	0.39	0.3142	0.4806	-0.726
Mof_H 	H 	0.4546	0.3164	0.5216	0.288
Mof_H 	H 	0.2979	0.3247	0.4974	0.28
Mof_H 	H 	0.4153	0.349	0.444	0.28
Mof_O 	O 	0.3334	0.2813	0.3093	-0.175
Mof_O 	O 	0.4346	0.1786	0.5811	-0.148
Mof_O 	O 	0.1888	0.1814	0.5277	-0.156
Mof_O 	O 	0.1323	0.2675	0.3952	-0.166
Mof_O 	O 	0.8442	0.2991	0.3988	-0.161
Mof_O 	O 	0.2488	0.1571	0.3446	-0.163
Mof_O 	O 	0.3714	0.0947	0.4769	-0.126
Mof_O 	O 	0.8362	0.4265	0.1697	-0.144
Mof_O 	O 	0.785	0.4148	0.3333	-0.152
Mof_O 	O 	0.5284	0.218	0.4206	-0.355
Mof_H 	H 	0.551	0.246	0.3878	0.277
Mof_O 	O 	0.689	0.3162	0.1522	-0.154
Mof_O 	O 	0.6375	0.3009	0.3091	-0.195
Mof_O 	O 	0.9348	0.3188	0.1064	-0.163
Mof_O 	O 	0.0318	0.3355	0.2691	-0.348
Mof_H 	H 	0.086	0.3191	0.2391	0.265
_end
