data_functionalizedCrystal
_audit_creation_method	'EQeq! by Chris Wilmer'
_symmetry_space_group_name_H-M	'P1'
_symmetry_Int_Tables_number	1
_symmetry_cell_setting	triclinic
loop_
_symmetry_equiv_pos_as_xyz
  x,y,z
_cell_length_a	12.9517
_cell_length_b	14.733
_cell_length_c	20.052
_cell_angle_alpha	90
_cell_angle_beta	129.256
_cell_angle_gamma	90
loop_
_atom_site_label
_atom_site_type_symbol
_atom_site_fract_x
_atom_site_fract_y
_atom_site_fract_z
_atom_site_charge
Mof_Cu	Cu	0.61344	0.20816	0.59763	0.864
Mof_N 	N 	0.5541	0.0958	0.4561	-0.153
Mof_N 	N 	0.6047	0.1751	0.496	-0.155
Mof_N 	N 	0.6284	0.2265	0.4538	-0.097
Mof_N 	N 	0.5444	0.0927	0.3864	-0.096
Mof_N 	N 	0.6096	0.2552	0.1928	-0.233
Mof_N 	N 	0.7505	0.0675	0.6686	-0.122
Mof_N 	N 	0.6861	0.9978	0.6137	-0.128
Mof_N 	N 	0.7666	0.9267	0.6397	-0.092
Mof_N 	N 	0.874	0.0412	0.7325	-0.11
Mof_N 	N 	0.4613	0.1264	0.5503	-0.245
Mof_N 	N 	0.3709	0.1433	0.5482	-0.04
Mof_N 	N 	0.2255	0.7876	0.8496	-0.225
Mof_N 	N 	0.2818	0.1579	0.5454	-0.075
Mof_C 	C 	0.5901	0.174	0.3871	0.094
Mof_C 	C 	0.5969	0.2012	0.319	0.061
Mof_C 	C 	0.6381	0.2894	0.3186	-0.135
Mof_H 	H 	0.6628	0.3308	0.3615	0.085
Mof_C 	C 	0.5666	0.1713	0.1908	0.079
Mof_H 	H 	0.5407	0.1319	0.1463	-0.029
Mof_C 	C 	0.8826	0.9562	0.7128	0.125
Mof_C 	C 	0.0018	0.8992	0.7616	0.06
Mof_C 	C 	0.1128	0.9182	0.8452	-0.126
Mof_H 	H 	0.1139	0.9689	0.8733	0.099
Mof_C 	C 	0.641	0.3132	0.2537	0.088
Mof_H 	H 	0.6657	0.372	0.2523	-0.005
Mof_C 	C 	0.5604	0.1426	0.2542	-0.134
Mof_H 	H 	0.5318	0.0841	0.2527	0.078
Mof_C 	C 	0.0041	0.8216	0.7225	-0.115
Mof_H 	H 	0.931	0.8069	0.6662	0.086
Mof_C 	C 	0.1158	0.7671	0.7682	0.072
Mof_H 	H 	0.116	0.7147	0.7424	0.004
Mof_C 	C 	0.2218	0.8616	0.8868	0.088
Mof_H 	H 	0.2961	0.8754	0.943	0.004
Mof_Cu	Cu	0.38656	0.70816	0.90237	0.872
Mof_N 	N 	0.4459	0.5958	0.0439	-0.155
Mof_N 	N 	0.3953	0.6751	0.004	-0.167
Mof_N 	N 	0.3716	0.7265	0.0462	-0.102
Mof_N 	N 	0.4556	0.5927	0.1136	-0.091
Mof_N 	N 	0.3904	0.7552	0.3072	-0.23
Mof_N 	N 	0.2495	0.5675	0.8314	-0.105
Mof_N 	N 	0.3139	0.4978	0.8863	-0.141
Mof_N 	N 	0.2334	0.4267	0.8603	-0.085
Mof_N 	N 	0.126	0.5412	0.7675	-0.087
Mof_N 	N 	0.5387	0.6264	0.9497	-0.229
Mof_N 	N 	0.6291	0.6433	0.9518	-0.032
Mof_N 	N 	0.7745	0.2876	0.6504	-0.232
Mof_N 	N 	0.7182	0.6579	0.9546	-0.059
Mof_C 	C 	0.4099	0.674	0.1129	0.095
Mof_C 	C 	0.4031	0.7012	0.181	0.063
Mof_C 	C 	0.3619	0.7894	0.1814	-0.132
Mof_H 	H 	0.3372	0.8308	0.1385	0.084
Mof_C 	C 	0.4334	0.6713	0.3092	0.081
Mof_H 	H 	0.4593	0.6319	0.3537	-0.019
Mof_C 	C 	0.1174	0.4562	0.7872	0.097
Mof_C 	C 	0.9982	0.3992	0.7384	0.065
Mof_C 	C 	0.8872	0.4182	0.6548	-0.138
Mof_H 	H 	0.8861	0.4689	0.6267	0.085
Mof_C 	C 	0.359	0.8132	0.2463	0.088
Mof_H 	H 	0.3343	0.872	0.2477	0.001
Mof_C 	C 	0.4396	0.6426	0.2458	-0.131
Mof_H 	H 	0.4682	0.5841	0.2473	0.087
Mof_C 	C 	0.9959	0.3216	0.7775	-0.136
Mof_H 	H 	0.069	0.3069	0.8338	0.1
Mof_C 	C 	0.8842	0.2671	0.7318	0.078
Mof_H 	H 	0.884	0.2147	0.7576	-0.001
Mof_C 	C 	0.7782	0.3616	0.6132	0.086
Mof_H 	H 	0.7039	0.3754	0.557	-0.013
Mof_Cu	Cu	0.38656	0.79184	0.40237	0.865
Mof_N 	N 	0.4459	0.9042	0.5439	-0.14
Mof_N 	N 	0.3953	0.8249	0.504	-0.152
Mof_N 	N 	0.3716	0.7735	0.5462	-0.095
Mof_N 	N 	0.4556	0.9073	0.6136	-0.082
Mof_N 	N 	0.3904	0.7448	0.8072	-0.23
Mof_N 	N 	0.2495	0.9325	0.3314	-0.093
Mof_N 	N 	0.3139	0.0022	0.3863	-0.169
Mof_N 	N 	0.2334	0.0733	0.3603	-0.089
Mof_N 	N 	0.126	0.9588	0.2675	-0.066
Mof_N 	N 	0.5387	0.8736	0.4497	-0.233
Mof_N 	N 	0.6291	0.8567	0.4518	-0.035
Mof_N 	N 	0.7745	0.2124	0.1504	-0.237
Mof_N 	N 	0.7182	0.8421	0.4546	-0.065
Mof_C 	C 	0.4099	0.826	0.6129	0.099
Mof_C 	C 	0.4031	0.7988	0.681	0.069
Mof_C 	C 	0.3619	0.7106	0.6814	-0.134
Mof_H 	H 	0.3372	0.6692	0.6385	0.087
Mof_C 	C 	0.4334	0.8287	0.8092	0.085
Mof_H 	H 	0.4593	0.8681	0.8537	-0.009
Mof_C 	C 	0.1174	0.0438	0.2872	0.061
Mof_C 	C 	0.9982	0.1008	0.2384	0.068
Mof_C 	C 	0.8872	0.0818	0.1548	-0.148
Mof_H 	H 	0.8861	0.0311	0.1267	0.072
Mof_C 	C 	0.359	0.6868	0.7463	0.092
Mof_H 	H 	0.3343	0.628	0.7477	-0.005
Mof_C 	C 	0.4396	0.8574	0.7458	-0.13
Mof_H 	H 	0.4682	0.9159	0.7473	0.098
Mof_C 	C 	0.9959	0.1784	0.2775	-0.141
Mof_H 	H 	0.069	0.1931	0.3338	0.095
Mof_C 	C 	0.8842	0.2329	0.2318	0.076
Mof_H 	H 	0.884	0.2853	0.2576	-0.002
Mof_C 	C 	0.7782	0.1384	0.1132	0.084
Mof_H 	H 	0.7039	0.1246	0.057	-0.028
Mof_Cu	Cu	0.61344	0.29184	0.09763	0.855
Mof_N 	N 	0.5541	0.4042	0.9561	-0.139
Mof_N 	N 	0.6047	0.3249	0.996	-0.141
Mof_N 	N 	0.6284	0.2735	0.9538	-0.09
Mof_N 	N 	0.5444	0.4073	0.8864	-0.088
Mof_N 	N 	0.6096	0.2448	0.6928	-0.232
Mof_N 	N 	0.7505	0.4325	0.1686	-0.111
Mof_N 	N 	0.6861	0.5022	0.1137	-0.155
Mof_N 	N 	0.7666	0.5733	0.1397	-0.095
Mof_N 	N 	0.874	0.4588	0.2325	-0.09
Mof_N 	N 	0.4613	0.3736	0.0503	-0.249
Mof_N 	N 	0.3709	0.3567	0.0482	-0.043
Mof_N 	N 	0.2255	0.7124	0.3496	-0.229
Mof_N 	N 	0.2818	0.3421	0.0454	-0.082
Mof_C 	C 	0.5901	0.326	0.8871	0.098
Mof_C 	C 	0.5969	0.2988	0.819	0.069
Mof_C 	C 	0.6381	0.2106	0.8186	-0.137
Mof_H 	H 	0.6628	0.1692	0.8615	0.088
Mof_C 	C 	0.5666	0.3287	0.6908	0.084
Mof_H 	H 	0.5407	0.3681	0.6463	-0.019
Mof_C 	C 	0.8826	0.5438	0.2128	0.09
Mof_C 	C 	0.0018	0.6008	0.2616	0.062
Mof_C 	C 	0.1128	0.5818	0.3452	-0.135
Mof_H 	H 	0.1139	0.5311	0.3733	0.085
Mof_C 	C 	0.641	0.1868	0.7537	0.092
Mof_H 	H 	0.6657	0.128	0.7523	-0.01
Mof_C 	C 	0.5604	0.3574	0.7542	-0.133
Mof_H 	H 	0.5318	0.4159	0.7527	0.09
Mof_C 	C 	0.0041	0.6784	0.2225	-0.119
Mof_H 	H 	0.931	0.6931	0.1662	0.081
Mof_C 	C 	0.1158	0.7329	0.2682	0.07
Mof_H 	H 	0.116	0.7853	0.2424	0.003
Mof_C 	C 	0.2218	0.6384	0.3868	0.085
Mof_H 	H 	0.2961	0.6246	0.443	-0.012
Mof_Cu	Cu	0.5	8.52022e-33	0.5	0.86
Mof_Cu	Cu	0.5	0.5	-0	0.86
_end
