data_functionalizedCrystal
_audit_creation_method	'EQeq! by Chris Wilmer'
_symmetry_space_group_name_H-M	'P1'
_symmetry_Int_Tables_number	1
_symmetry_cell_setting	triclinic
loop_
_symmetry_equiv_pos_as_xyz
  x,y,z
_cell_length_a	12.3829
_cell_length_b	8.597
_cell_length_c	12.6633
_cell_angle_alpha	90
_cell_angle_beta	109.984
_cell_angle_gamma	90
loop_
_atom_site_label
_atom_site_type_symbol
_atom_site_fract_x
_atom_site_fract_y
_atom_site_fract_z
_atom_site_charge
Mof_Cu	Cu	0.148	0.20491	0.25965	0.79
Mof_Cu	Cu	0.40627	0.29567	0.66208	0.82
Mof_C 	C 	0.2824	0.2323	0.3996	-0.315
Mof_N 	N 	0.3353	0.2523	0.4929	-0.189
Mof_C 	C 	0.0719	0.002	0.2355	-0.259
Mof_C 	C 	0.5227	0.1143	0.7166	-0.183
Mof_C 	C 	0.4999	0.4914	0.6884	-0.21
Mof_C 	C 	0.0529	0.3964	0.2141	-0.222
Mof_C 	C 	0.2853	0.2916	0.7298	-0.227
Mof_Cu	Cu	0.352	0.20491	0.24035	0.789
Mof_Cu	Cu	0.09373	0.29567	0.83792	0.817
Mof_C 	C 	0.2176	0.2323	0.1004	-0.316
Mof_N 	N 	0.1647	0.2523	0.0071	-0.189
Mof_C 	C 	0.4281	0.002	0.2645	-0.256
Mof_C 	C 	0.9773	0.1143	0.7834	-0.178
Mof_C 	C 	0.0001	0.4914	0.8116	-0.215
Mof_C 	C 	0.4471	0.3964	0.2859	-0.227
Mof_C 	C 	0.2147	0.2916	0.7702	-0.228
Mof_Cu	Cu	0.852	0.79509	0.74035	0.789
Mof_Cu	Cu	0.59373	0.70433	0.33792	0.819
Mof_C 	C 	0.7176	0.7677	0.6004	-0.316
Mof_N 	N 	0.6647	0.7477	0.5071	-0.19
Mof_C 	C 	0.9281	0.998	0.7645	-0.259
Mof_C 	C 	0.4773	0.8857	0.2834	-0.183
Mof_C 	C 	0.5001	0.5086	0.3116	-0.21
Mof_C 	C 	0.9471	0.6036	0.7859	-0.222
Mof_C 	C 	0.7147	0.7084	0.2702	-0.227
Mof_Cu	Cu	0.648	0.79509	0.75965	0.789
Mof_Cu	Cu	0.90627	0.70433	0.16208	0.817
Mof_C 	C 	0.7824	0.7677	0.8996	-0.316
Mof_N 	N 	0.8353	0.7477	0.9929	-0.189
Mof_C 	C 	0.5719	0.998	0.7355	-0.256
Mof_C 	C 	0.0227	0.8857	0.2166	-0.178
Mof_C 	C 	0.9999	0.5086	0.1884	-0.215
Mof_C 	C 	0.5529	0.6036	0.7141	-0.227
Mof_C 	C 	0.7853	0.7084	0.2298	-0.228
_end
