data_functionalizedCrystal
_audit_creation_method	'EQeq! by Chris Wilmer'
_symmetry_space_group_name_H-M	'P1'
_symmetry_Int_Tables_number	1
_symmetry_cell_setting	triclinic
loop_
_symmetry_equiv_pos_as_xyz
  x,y,z
_cell_length_a	14.1069
_cell_length_b	14.1069
_cell_length_c	14.1069
_cell_angle_alpha	90
_cell_angle_beta	90
_cell_angle_gamma	90
loop_
_atom_site_label
_atom_site_type_symbol
_atom_site_fract_x
_atom_site_fract_y
_atom_site_fract_z
_atom_site_charge
Mof_Zn	Zn	0.97992	0.97992	0.97992	1.242
Mof_Zn	Zn	0.83178	0.83178	0.83178	1.174
Mof_Zn	Zn	0.52008	0.02008	0.47992	1.242
Mof_Zn	Zn	0.66822	0.16822	0.33178	1.175
Mof_Zn	Zn	0.02008	0.47992	0.52008	1.243
Mof_Zn	Zn	0.16822	0.33178	0.66822	1.175
Mof_Zn	Zn	0.47992	0.52008	0.02008	1.243
Mof_Zn	Zn	0.33178	0.66822	0.16822	1.175
Mof_H 	H 	0.9609	0.2001	0.7667	0.019
Mof_H 	H 	0.5391	0.7999	0.2667	0.018
Mof_H 	H 	0.0391	0.7001	0.7333	0.018
Mof_H 	H 	0.4609	0.2999	0.2333	0.018
Mof_H 	H 	0.7667	0.9609	0.2001	0.019
Mof_H 	H 	0.2667	0.5391	0.7999	0.018
Mof_H 	H 	0.7333	0.0391	0.7001	0.018
Mof_H 	H 	0.2333	0.4609	0.2999	0.018
Mof_H 	H 	0.2001	0.7667	0.9609	0.019
Mof_H 	H 	0.7999	0.2667	0.5391	0.018
Mof_H 	H 	0.7001	0.7333	0.0391	0.018
Mof_H 	H 	0.2999	0.2333	0.4609	0.018
Mof_C 	C 	0.8513	0.1103	0.7454	-0.164
Mof_C 	C 	0.9084	0.1868	0.7266	0.11
Mof_C 	C 	0.8719	0.045	0.8271	0.42
Mof_C 	C 	0.6487	0.8897	0.2454	-0.164
Mof_C 	C 	0.5916	0.8132	0.2266	0.11
Mof_C 	C 	0.6281	0.955	0.3271	0.42
Mof_C 	C 	0.1487	0.6103	0.7546	-0.164
Mof_C 	C 	0.0916	0.6868	0.7734	0.11
Mof_C 	C 	0.1281	0.545	0.6729	0.418
Mof_C 	C 	0.3513	0.3897	0.2546	-0.165
Mof_C 	C 	0.4084	0.3132	0.2734	0.11
Mof_C 	C 	0.3719	0.455	0.1729	0.418
Mof_C 	C 	0.7454	0.8513	0.1103	-0.164
Mof_C 	C 	0.7266	0.9084	0.1868	0.11
Mof_C 	C 	0.8271	0.8719	0.045	0.42
Mof_C 	C 	0.2454	0.6487	0.8897	-0.164
Mof_C 	C 	0.2266	0.5916	0.8132	0.11
Mof_C 	C 	0.3271	0.6281	0.955	0.42
Mof_C 	C 	0.7546	0.1487	0.6103	-0.164
Mof_C 	C 	0.7734	0.0916	0.6868	0.11
Mof_C 	C 	0.6729	0.1281	0.545	0.418
Mof_C 	C 	0.2546	0.3513	0.3897	-0.165
Mof_C 	C 	0.2734	0.4084	0.3132	0.11
Mof_C 	C 	0.1729	0.3719	0.455	0.418
Mof_C 	C 	0.1103	0.7454	0.8513	-0.164
Mof_C 	C 	0.1868	0.7266	0.9084	0.11
Mof_C 	C 	0.045	0.8271	0.8719	0.42
Mof_C 	C 	0.8897	0.2454	0.6487	-0.164
Mof_C 	C 	0.8132	0.2266	0.5916	0.11
Mof_C 	C 	0.955	0.3271	0.6281	0.42
Mof_C 	C 	0.6103	0.7546	0.1487	-0.164
Mof_C 	C 	0.6868	0.7734	0.0916	0.11
Mof_C 	C 	0.545	0.6729	0.1281	0.418
Mof_C 	C 	0.3897	0.2546	0.3513	-0.165
Mof_C 	C 	0.3132	0.2734	0.4084	0.11
Mof_C 	C 	0.455	0.1729	0.3719	0.418
Mof_N 	N 	0.09	0.029	0.1387	0.059
Mof_N 	N 	0.41	0.971	0.6387	0.061
Mof_N 	N 	0.91	0.529	0.3613	0.061
Mof_N 	N 	0.59	0.471	0.8613	0.061
Mof_N 	N 	0.1387	0.09	0.029	0.059
Mof_N 	N 	0.6387	0.41	0.971	0.061
Mof_N 	N 	0.3613	0.91	0.529	0.061
Mof_N 	N 	0.8613	0.59	0.471	0.061
Mof_N 	N 	0.029	0.1387	0.09	0.059
Mof_N 	N 	0.971	0.6387	0.41	0.061
Mof_N 	N 	0.529	0.3613	0.91	0.061
Mof_N 	N 	0.471	0.8613	0.59	0.061
Mof_O 	O 	0.9451	0.0634	0.8753	-0.451
Mof_O 	O 	0.8175	0.9776	0.8427	-0.498
Mof_O 	O 	0.076	0.049	0.0579	-0.087
Mof_O 	O 	0.12	0.077	0.202	-0.075
Mof_O 	O 	0.069	0.94	0.159	-0.138
Mof_O 	O 	0.5549	0.9366	0.3753	-0.452
Mof_O 	O 	0.6825	0.0224	0.3427	-0.498
Mof_O 	O 	0.424	0.951	0.5579	-0.087
Mof_O 	O 	0.38	0.923	0.702	-0.073
Mof_O 	O 	0.431	0.06	0.659	-0.141
Mof_O 	O 	0.0549	0.5634	0.6247	-0.452
Mof_O 	O 	0.1825	0.4776	0.6573	-0.497
Mof_O 	O 	0.924	0.549	0.4421	-0.086
Mof_O 	O 	0.88	0.577	0.298	-0.073
Mof_O 	O 	0.931	0.44	0.341	-0.14
Mof_O 	O 	0.4451	0.4366	0.1247	-0.452
Mof_O 	O 	0.3175	0.5224	0.1573	-0.497
Mof_O 	O 	0.576	0.451	0.9421	-0.086
Mof_O 	O 	0.62	0.423	0.798	-0.074
Mof_O 	O 	0.569	0.56	0.841	-0.14
Mof_O 	O 	0.8753	0.9451	0.0634	-0.451
Mof_O 	O 	0.8427	0.8175	0.9776	-0.498
Mof_O 	O 	0.0579	0.076	0.049	-0.087
Mof_O 	O 	0.202	0.12	0.077	-0.075
Mof_O 	O 	0.159	0.069	0.94	-0.138
Mof_O 	O 	0.3753	0.5549	0.9366	-0.452
Mof_O 	O 	0.3427	0.6825	0.0224	-0.498
Mof_O 	O 	0.5579	0.424	0.951	-0.087
Mof_O 	O 	0.702	0.38	0.923	-0.073
Mof_O 	O 	0.659	0.431	0.06	-0.141
Mof_O 	O 	0.6247	0.0549	0.5634	-0.452
Mof_O 	O 	0.6573	0.1825	0.4776	-0.497
Mof_O 	O 	0.4421	0.924	0.549	-0.086
Mof_O 	O 	0.298	0.88	0.577	-0.073
Mof_O 	O 	0.341	0.931	0.44	-0.14
Mof_O 	O 	0.1247	0.4451	0.4366	-0.452
Mof_O 	O 	0.1573	0.3175	0.5224	-0.497
Mof_O 	O 	0.9421	0.576	0.451	-0.086
Mof_O 	O 	0.798	0.62	0.423	-0.074
Mof_O 	O 	0.841	0.569	0.56	-0.14
Mof_O 	O 	0.0634	0.8753	0.9451	-0.451
Mof_O 	O 	0.9776	0.8427	0.8175	-0.498
Mof_O 	O 	0.049	0.0579	0.076	-0.087
Mof_O 	O 	0.077	0.202	0.12	-0.075
Mof_O 	O 	0.94	0.159	0.069	-0.138
Mof_O 	O 	0.9366	0.3753	0.5549	-0.452
Mof_O 	O 	0.0224	0.3427	0.6825	-0.498
Mof_O 	O 	0.951	0.5579	0.424	-0.087
Mof_O 	O 	0.923	0.702	0.38	-0.073
Mof_O 	O 	0.06	0.659	0.431	-0.141
Mof_O 	O 	0.5634	0.6247	0.0549	-0.452
Mof_O 	O 	0.4776	0.6573	0.1825	-0.497
Mof_O 	O 	0.549	0.4421	0.924	-0.086
Mof_O 	O 	0.577	0.298	0.88	-0.073
Mof_O 	O 	0.44	0.341	0.931	-0.14
Mof_O 	O 	0.4366	0.1247	0.4451	-0.452
Mof_O 	O 	0.5224	0.1573	0.3175	-0.497
Mof_O 	O 	0.451	0.9421	0.576	-0.086
Mof_O 	O 	0.423	0.798	0.62	-0.074
Mof_O 	O 	0.56	0.841	0.569	-0.14
_end
