data_functionalizedCrystal
_audit_creation_method	'EQeq! by Chris Wilmer'
_symmetry_space_group_name_H-M	'P1'
_symmetry_Int_Tables_number	1
_symmetry_cell_setting	triclinic
loop_
_symmetry_equiv_pos_as_xyz
  x,y,z
_cell_length_a	26.4728
_cell_length_b	26.4725
_cell_length_c	26.4725
_cell_angle_alpha	109.471
_cell_angle_beta	109.471
_cell_angle_gamma	109.471
loop_
_atom_site_label
_atom_site_type_symbol
_atom_site_fract_x
_atom_site_fract_y
_atom_site_fract_z
_atom_site_charge
Mof_Si	Si	0.84171	0.02329	0.44254	0.364
Mof_Si	Si	0.10083	0.68158	0.15829	0.363
Mof_Si	Si	0.55746	0.08075	0.89917	0.362
Mof_H 	H 	0.4595	0.748	0.3967	0.061
Mof_H 	H 	0.7613	0.8785	0.52	0.035
Mof_H 	H 	0.6932	0.884	0.5576	0.054
Mof_H 	H 	0.2346	0.7614	0.2856	-0.014
Mof_H 	H 	0.8425	0.9333	0.5014	0.008
Mof_H 	H 	0.306	0.7971	0.3885	0.047
Mof_H 	H 	0.5235	0.8798	0.4261	0.061
Mof_H 	H 	0.7144	0.9758	0.449	-0.015
Mof_H 	H 	0.4372	0.7885	0.5405	0.061
Mof_H 	H 	0.4026	0.8563	0.4765	0.061
Mof_H 	H 	0.4986	0.9319	0.8411	0.01
Mof_H 	H 	0.6033	0.8513	0.5628	0.062
Mof_H 	H 	0.2587	0.6172	0.2387	0.036
Mof_H 	H 	0.551	0.0268	0.7654	-0.01
Mof_H 	H 	0.3644	0.6908	0.3068	0.056
Mof_H 	H 	0.1589	0.5908	0.1575	0.01
Mof_H 	H 	0.4424	0.8264	0.6356	0.055
Mof_H 	H 	0.6115	0.9086	0.4175	0.048
Mof_H 	H 	0.5825	0.9911	0.694	0.048
Mof_H 	H 	0.48	0.8585	0.7413	0.035
Mof_H 	H 	0.5739	0.9537	0.5974	0.061
Mof_C 	C 	0.504	0.8678	0.5588	0.094
Mof_C 	C 	0.4968	0.9011	0.7583	-0.004
Mof_C 	C 	0.3949	0.8229	0.4424	-0.091
Mof_C 	C 	0.5081	0.9424	0.8139	0.012
Mof_C 	C 	0.4292	0.7588	0.3948	-0.088
Mof_C 	C 	0.5526	0.9507	0.6627	-0.063
Mof_C 	C 	0.1861	0.6285	0.1942	0.014
Mof_C 	C 	0.2417	0.6428	0.2385	-0.005
Mof_C 	C 	0.3719	0.724	0.3411	-0.069
Mof_C 	C 	0.5548	0.8638	0.496	0.094
Mof_C 	C 	0.7615	0.9043	0.5032	-0.005
Mof_C 	C 	0.5576	0.8805	0.4525	-0.092
Mof_C 	C 	0.6052	0.864	0.5344	-0.088
Mof_C 	C 	0.5366	0.994	0.7724	0.094
Mof_C 	C 	0.2276	0.7216	0.2642	0.099
Mof_C 	C 	0.8058	0.9343	0.4919	0.014
Mof_C 	C 	0.7358	0.9574	0.4634	0.099
Mof_C 	C 	0.6612	0.8999	0.4883	0.082
Mof_C 	C 	0.4656	0.8296	0.5708	-0.088
Mof_C 	C 	0.6589	0.8829	0.5308	-0.069
Mof_C 	C 	0.5117	0.9116	0.6729	0.082
Mof_C 	C 	0.4412	0.809	0.4452	0.094
Mof_C 	C 	0.6101	0.8981	0.4474	-0.064
Mof_C 	C 	0.3271	0.7387	0.3388	0.082
Mof_C 	C 	0.5475	0.928	0.6051	-0.092
Mof_C 	C 	0.4692	0.8521	0.6281	-0.068
Mof_C 	C 	0.3373	0.788	0.3899	-0.064
Mof_N 	N 	0.7889	0.9653	0.4652	-0.184
Mof_N 	N 	0.5	0.8452	0.5	-0.157
Mof_N 	N 	0.5157	0.9359	0.733	-0.136
Mof_N 	N 	0.5348	0.0001	0.8237	-0.181
Mof_N 	N 	0.7173	0.9202	0.4843	-0.136
Mof_N 	N 	0.1763	0.6764	0.2111	-0.184
Mof_N 	N 	0.267	0.7029	0.2827	-0.136
Mof_Si	Si	0.44254	0.52329	0.84171	0.363
Mof_Si	Si	0.89917	0.58075	0.55746	0.362
Mof_Si	Si	0.15829	0.18158	0.10083	0.364
Mof_H 	H 	0.6356	0.3264	0.4424	0.055
Mof_H 	H 	0.4175	0.4086	0.6115	0.048
Mof_H 	H 	0.449	0.4758	0.7144	-0.013
Mof_H 	H 	0.5576	0.384	0.6932	0.055
Mof_H 	H 	0.5628	0.3513	0.6033	0.062
Mof_H 	H 	0.52	0.3785	0.7613	0.036
Mof_H 	H 	0.8411	0.4319	0.4986	0.009
Mof_H 	H 	0.5405	0.2885	0.4372	0.062
Mof_H 	H 	0.1575	0.0908	0.1589	0.01
Mof_H 	H 	0.4765	0.3563	0.4026	0.062
Mof_H 	H 	0.7413	0.3585	0.48	0.036
Mof_H 	H 	0.3068	0.1908	0.3644	0.056
Mof_H 	H 	0.3885	0.2971	0.306	0.048
Mof_H 	H 	0.3967	0.248	0.4595	0.062
Mof_H 	H 	0.4261	0.3798	0.5235	0.062
Mof_H 	H 	0.5974	0.4537	0.5739	0.062
Mof_H 	H 	0.5014	0.4333	0.8425	0.009
Mof_H 	H 	0.2387	0.1172	0.2587	0.036
Mof_H 	H 	0.694	0.4911	0.5825	0.048
Mof_H 	H 	0.7654	0.5268	0.551	-0.013
Mof_H 	H 	0.2856	0.2614	0.2346	-0.013
Mof_C 	C 	0.4424	0.3229	0.3949	-0.091
Mof_C 	C 	0.5708	0.3296	0.4656	-0.088
Mof_C 	C 	0.4634	0.4574	0.7358	0.099
Mof_C 	C 	0.496	0.3638	0.5548	0.094
Mof_C 	C 	0.3388	0.2387	0.3271	0.082
Mof_C 	C 	0.2642	0.2216	0.2276	0.099
Mof_C 	C 	0.4474	0.3981	0.6101	-0.063
Mof_C 	C 	0.7724	0.494	0.5366	0.099
Mof_C 	C 	0.3411	0.224	0.3719	-0.069
Mof_C 	C 	0.2385	0.1428	0.2417	-0.005
Mof_C 	C 	0.7583	0.4011	0.4968	-0.005
Mof_C 	C 	0.5032	0.4043	0.7615	-0.005
Mof_C 	C 	0.6051	0.428	0.5475	-0.091
Mof_C 	C 	0.3899	0.288	0.3373	-0.064
Mof_C 	C 	0.8139	0.4424	0.5081	0.014
Mof_C 	C 	0.5588	0.3678	0.504	0.094
Mof_C 	C 	0.5344	0.364	0.6052	-0.088
Mof_C 	C 	0.4919	0.4343	0.8058	0.014
Mof_C 	C 	0.4883	0.3999	0.6612	0.082
Mof_C 	C 	0.6729	0.4116	0.5117	0.082
Mof_C 	C 	0.1942	0.1285	0.1861	0.014
Mof_C 	C 	0.4452	0.309	0.4412	0.094
Mof_C 	C 	0.6627	0.4507	0.5526	-0.063
Mof_C 	C 	0.6281	0.3521	0.4692	-0.069
Mof_C 	C 	0.5308	0.3829	0.6589	-0.069
Mof_C 	C 	0.3948	0.2588	0.4292	-0.088
Mof_C 	C 	0.4525	0.3805	0.5576	-0.091
Mof_N 	N 	0.2111	0.1764	0.1763	-0.184
Mof_N 	N 	0.733	0.4359	0.5157	-0.136
Mof_N 	N 	0.2827	0.2029	0.267	-0.136
Mof_N 	N 	0.4652	0.4653	0.7889	-0.184
Mof_N 	N 	0.5	0.3452	0.5	-0.157
Mof_N 	N 	0.8237	0.5001	0.5348	-0.184
Mof_N 	N 	0.4843	0.4202	0.7173	-0.136
Mof_Si	Si	0.47671	0.81842	0.91925	0.362
Mof_Si	Si	0.41925	0.47671	0.31842	0.363
Mof_Si	Si	0.81842	0.41925	0.97671	0.36
Mof_H 	H 	0.5914	0.7029	0.0089	0.049
Mof_H 	H 	0.8092	0.6736	0.116	0.056
Mof_H 	H 	0.5667	0.9092	0.0681	0.009
Mof_H 	H 	0.6202	0.6437	0.0463	0.062
Mof_H 	H 	0.6736	0.616	0.3092	0.055
Mof_H 	H 	0.752	0.7115	0.1487	0.062
Mof_H 	H 	0.616	0.8092	0.1736	0.056
Mof_H 	H 	0.5089	0.5914	0.2029	0.048
Mof_H 	H 	0.6415	0.6215	0.3828	0.036
Mof_H 	H 	0.7115	0.6487	0.252	0.062
Mof_H 	H 	0.5681	0.5667	0.4092	0.009
Mof_H 	H 	0.7029	0.5089	0.0914	0.049
Mof_H 	H 	0.5463	0.6202	0.1437	0.062
Mof_H 	H 	0.4732	0.5242	0.2386	-0.013
Mof_H 	H 	0.5242	0.7386	0.9732	-0.016
Mof_H 	H 	0.6437	0.5463	0.1202	0.062
Mof_H 	H 	0.7386	0.4732	0.0242	-0.013
Mof_H 	H 	0.6215	0.8828	0.1415	0.036
Mof_H 	H 	0.9092	0.5681	0.0667	0.01
Mof_H 	H 	0.6487	0.752	0.2115	0.062
Mof_H 	H 	0.8828	0.6415	0.1215	0.036
Mof_C 	C 	0.506	0.5426	0.2784	0.099
Mof_C 	C 	0.5493	0.6019	0.212	-0.063
Mof_C 	C 	0.572	0.6195	0.1771	-0.091
Mof_C 	C 	0.636	0.7412	0.1704	-0.087
Mof_C 	C 	0.6479	0.6171	0.276	-0.069
Mof_C 	C 	0.5884	0.6001	0.2613	0.082
Mof_C 	C 	0.5576	0.5657	0.3715	0.014
Mof_C 	C 	0.7784	0.506	0.0426	0.099
Mof_C 	C 	0.6195	0.6771	0.072	-0.091
Mof_C 	C 	0.5426	0.7784	0.006	0.105
Mof_C 	C 	0.5989	0.5957	0.3572	-0.005
Mof_C 	C 	0.8572	0.5989	0.0957	-0.005
Mof_C 	C 	0.6019	0.712	0.0493	-0.064
Mof_C 	C 	0.5957	0.8572	0.0989	-0.006
Mof_C 	C 	0.7412	0.6704	0.136	-0.087
Mof_C 	C 	0.691	0.6322	0.1362	0.094
Mof_C 	C 	0.6322	0.6362	0.191	0.094
Mof_C 	C 	0.6771	0.572	0.1195	-0.091
Mof_C 	C 	0.6362	0.691	0.1322	0.094
Mof_C 	C 	0.776	0.6479	0.1171	-0.069
Mof_C 	C 	0.712	0.5493	0.1019	-0.064
Mof_C 	C 	0.6171	0.776	0.1479	-0.069
Mof_C 	C 	0.7613	0.5884	0.1001	0.083
Mof_C 	C 	0.8715	0.5576	0.0657	0.014
Mof_C 	C 	0.6001	0.7613	0.0884	0.083
Mof_C 	C 	0.6704	0.636	0.2412	-0.088
Mof_C 	C 	0.5657	0.8715	0.0576	0.016
Mof_N 	N 	0.5798	0.7971	0.0641	-0.137
Mof_N 	N 	0.7971	0.5641	0.0798	-0.136
Mof_N 	N 	0.4999	0.5347	0.3236	-0.184
Mof_N 	N 	0.8236	0.4999	0.0347	-0.183
Mof_N 	N 	0.6548	0.6548	0.1548	-0.157
Mof_N 	N 	0.5641	0.5798	0.2971	-0.136
Mof_N 	N 	0.5347	0.8236	0.9999	-0.186
Mof_Si	Si	0.02329	0.94254	0.34171	0.363
Mof_Si	Si	0.08075	0.39917	0.05746	0.365
Mof_Si	Si	0.68158	0.65829	0.60083	0.363
Mof_H 	H 	0.7614	0.7856	0.7346	-0.013
Mof_H 	H 	0.748	0.8967	0.9595	0.06
Mof_H 	H 	0.884	0.0576	0.1932	0.055
Mof_H 	H 	0.9537	0.0974	0.0739	0.062
Mof_H 	H 	0.8264	0.1356	0.9424	0.056
Mof_H 	H 	0.0268	0.2654	0.051	-0.011
Mof_H 	H 	0.9086	0.9175	0.1115	0.048
Mof_H 	H 	0.9758	0.949	0.2144	-0.014
Mof_H 	H 	0.7971	0.8885	0.806	0.049
Mof_H 	H 	0.6172	0.7387	0.7587	0.036
Mof_H 	H 	0.9911	0.194	0.0825	0.048
Mof_H 	H 	0.6908	0.8068	0.8644	0.056
Mof_H 	H 	0.7885	0.0405	0.9372	0.063
Mof_H 	H 	0.8563	0.9765	0.9026	0.06
Mof_H 	H 	0.9333	0.0014	0.3425	0.013
Mof_H 	H 	0.8798	0.9261	0.0235	0.062
Mof_H 	H 	0.8785	0.02	0.2613	0.034
Mof_H 	H 	0.8585	0.2413	0.98	0.038
Mof_H 	H 	0.8513	0.0628	0.1033	0.061
Mof_H 	H 	0.5908	0.6575	0.6589	0.009
Mof_H 	H 	0.9319	0.3411	0.9986	0.004
Mof_C 	C 	0.8678	0.0588	0.004	0.097
Mof_C 	C 	0.9574	0.9634	0.2358	0.099
Mof_C 	C 	0.9116	0.1729	0.0117	0.084
Mof_C 	C 	0.8829	0.0308	0.1589	-0.067
Mof_C 	C 	0.6285	0.6942	0.6861	0.014
Mof_C 	C 	0.9043	0.0032	0.2615	0.002
Mof_C 	C 	0.8805	0.9525	0.0576	-0.09
Mof_C 	C 	0.8229	0.9424	0.8949	-0.088
Mof_C 	C 	0.7588	0.8948	0.9292	-0.084
Mof_C 	C 	0.8999	0.9883	0.1612	0.08
Mof_C 	C 	0.6428	0.7385	0.7417	-0.005
Mof_C 	C 	0.9424	0.3139	0.0081	0.023
Mof_C 	C 	0.864	0.0344	0.1052	-0.085
Mof_C 	C 	0.809	0.9452	0.9412	0.089
Mof_C 	C 	0.9507	0.1627	0.0526	-0.063
Mof_C 	C 	0.724	0.8411	0.8719	-0.071
Mof_C 	C 	0.8638	0.996	0.0548	0.09
Mof_C 	C 	0.7216	0.7642	0.7276	0.099
Mof_C 	C 	0.8521	0.1281	0.9692	-0.071
Mof_C 	C 	0.7387	0.8388	0.8271	0.084
Mof_C 	C 	0.788	0.8899	0.8373	-0.066
Mof_C 	C 	0.928	0.1051	0.0475	-0.092
Mof_C 	C 	0.8296	0.0708	0.9656	-0.09
Mof_C 	C 	0.9343	0.9919	0.3058	0.005
Mof_C 	C 	0.9011	0.2583	0.9968	-0.014
Mof_C 	C 	0.8981	0.9474	0.1101	-0.064
Mof_C 	C 	0.994	0.2724	0.0366	0.095
Mof_N 	N 	0.0001	0.3237	0.0348	-0.183
Mof_N 	N 	0.8452	0	-0	-0.154
Mof_N 	N 	0.9653	0.9652	0.2889	-0.183
Mof_N 	N 	0.9359	0.233	0.0157	-0.134
Mof_N 	N 	0.9202	0.9843	0.2173	-0.138
Mof_N 	N 	0.7029	0.7827	0.767	-0.137
Mof_N 	N 	0.6764	0.7111	0.6763	-0.184
Mof_Si	Si	0.65829	0.10083	0.18158	0.364
Mof_Si	Si	0.39917	0.55746	0.58075	0.363
Mof_Si	Si	0.94254	0.84171	0.52329	0.361
Mof_H 	H 	0.3411	0.4986	0.4319	0.009
Mof_H 	H 	0.0405	0.4372	0.2885	0.062
Mof_H 	H 	0.8068	0.3644	0.1908	0.056
Mof_H 	H 	0.2654	0.551	0.5268	-0.013
Mof_H 	H 	0.1356	0.4424	0.3264	0.055
Mof_H 	H 	0.0628	0.6033	0.3513	0.061
Mof_H 	H 	0.8885	0.306	0.2971	0.049
Mof_H 	H 	0.8967	0.4595	0.248	0.061
Mof_H 	H 	0.6575	0.1589	0.0908	0.01
Mof_H 	H 	0.7856	0.2346	0.2614	-0.013
Mof_H 	H 	0.949	0.7144	0.4758	-0.013
Mof_H 	H 	0.0576	0.6932	0.384	0.055
Mof_H 	H 	0.9765	0.4026	0.3563	0.061
Mof_H 	H 	0.9175	0.6115	0.4086	0.048
Mof_H 	H 	0.194	0.5825	0.4911	0.048
Mof_H 	H 	0.02	0.7613	0.3785	0.034
Mof_H 	H 	0.0014	0.8425	0.4333	0.013
Mof_H 	H 	0.7387	0.2587	0.1172	0.036
Mof_H 	H 	0.2413	0.48	0.3585	0.036
Mof_H 	H 	0.9261	0.5235	0.3798	0.061
Mof_H 	H 	0.0974	0.5739	0.4537	0.062
Mof_C 	C 	0.0708	0.4656	0.3296	-0.088
Mof_C 	C 	0.0032	0.7615	0.4043	0.002
Mof_C 	C 	0.996	0.5548	0.3638	0.09
Mof_C 	C 	0.9883	0.6612	0.3999	0.081
Mof_C 	C 	0.7385	0.2417	0.1428	-0.005
Mof_C 	C 	0.9452	0.4412	0.309	0.091
Mof_C 	C 	0.9525	0.5576	0.3805	-0.09
Mof_C 	C 	0.7642	0.2276	0.2216	0.099
Mof_C 	C 	0.9634	0.7358	0.4574	0.099
Mof_C 	C 	0.8899	0.3373	0.288	-0.065
Mof_C 	C 	0.0588	0.504	0.3678	0.094
Mof_C 	C 	0.1051	0.5475	0.428	-0.091
Mof_C 	C 	0.9919	0.8058	0.4343	0.006
Mof_C 	C 	0.2583	0.4968	0.4011	-0.005
Mof_C 	C 	0.8388	0.3271	0.2387	0.083
Mof_C 	C 	0.1281	0.4692	0.3521	-0.068
Mof_C 	C 	0.1729	0.5117	0.4116	0.082
Mof_C 	C 	0.3139	0.5081	0.4424	0.014
Mof_C 	C 	0.2724	0.5366	0.494	0.099
Mof_C 	C 	0.9424	0.3949	0.3229	-0.09
Mof_C 	C 	0.0344	0.6052	0.364	-0.084
Mof_C 	C 	0.8411	0.3719	0.224	-0.07
Mof_C 	C 	0.0308	0.6589	0.3829	-0.068
Mof_C 	C 	0.1627	0.5526	0.4507	-0.063
Mof_C 	C 	0.9474	0.6101	0.3981	-0.064
Mof_C 	C 	0.8948	0.4292	0.2588	-0.086
Mof_C 	C 	0.6942	0.1861	0.1285	0.014
Mof_N 	N 	3.18419e-17	0.5	0.3452	-0.155
Mof_N 	N 	0.233	0.5157	0.4359	-0.136
Mof_N 	N 	0.7111	0.1763	0.1764	-0.184
Mof_N 	N 	0.7827	0.267	0.2029	-0.136
Mof_N 	N 	0.9652	0.7889	0.4653	-0.182
Mof_N 	N 	0.3237	0.5348	0.5001	-0.184
Mof_N 	N 	0.9843	0.7173	0.4202	-0.138
Mof_Si	Si	0.60083	0.15829	0.68158	0.363
Mof_Si	Si	0.05746	0.89917	0.08075	0.364
Mof_Si	Si	0.34171	0.44254	0.02329	0.365
Mof_H 	H 	0.9595	0.3967	0.748	0.061
Mof_H 	H 	0.6589	0.1575	0.5908	0.01
Mof_H 	H 	0.806	0.3885	0.7971	0.049
Mof_H 	H 	0.98	0.7413	0.8585	0.038
Mof_H 	H 	0.0739	0.5974	0.9537	0.062
Mof_H 	H 	0.9026	0.4765	0.8563	0.061
Mof_H 	H 	0.1932	0.5576	0.884	0.055
Mof_H 	H 	0.2144	0.449	0.9758	-0.014
Mof_H 	H 	0.9986	0.8411	0.9319	0.004
Mof_H 	H 	0.3425	0.5014	0.9333	0.009
Mof_H 	H 	0.051	0.7654	0.0268	-0.011
Mof_H 	H 	0.7346	0.2856	0.7614	-0.013
Mof_H 	H 	0.7587	0.2387	0.6172	0.036
Mof_H 	H 	0.1033	0.5628	0.8513	0.062
Mof_H 	H 	0.0825	0.694	0.9911	0.048
Mof_H 	H 	0.1115	0.4175	0.9086	0.048
Mof_H 	H 	0.8644	0.3068	0.6908	0.056
Mof_H 	H 	0.9372	0.5405	0.7885	0.062
Mof_H 	H 	0.2613	0.52	0.8785	0.036
Mof_H 	H 	0.9424	0.6356	0.8264	0.056
Mof_H 	H 	0.0235	0.4261	0.8798	0.063
Mof_C 	C 	0.7276	0.2642	0.7216	0.099
Mof_C 	C 	0.1589	0.5308	0.8829	-0.068
Mof_C 	C 	0.8373	0.3899	0.788	-0.065
Mof_C 	C 	0.1612	0.4883	0.8999	0.082
Mof_C 	C 	0.9412	0.4452	0.809	0.091
Mof_C 	C 	0.1052	0.5344	0.864	-0.088
Mof_C 	C 	0.2615	0.5032	0.9043	-0.005
Mof_C 	C 	0.8719	0.3411	0.724	-0.07
Mof_C 	C 	0.0576	0.4525	0.8805	-0.092
Mof_C 	C 	0.3058	0.4919	0.9343	0.014
Mof_C 	C 	0.004	0.5588	0.8678	0.097
Mof_C 	C 	0.0117	0.6729	0.9116	0.084
Mof_C 	C 	0.0366	0.7724	0.994	0.096
Mof_C 	C 	0.9292	0.3948	0.7588	-0.086
Mof_C 	C 	0.0475	0.6051	0.928	-0.092
Mof_C 	C 	0.9692	0.6281	0.8521	-0.071
Mof_C 	C 	0.7417	0.2385	0.6428	-0.005
Mof_C 	C 	0.0548	0.496	0.8638	0.094
Mof_C 	C 	0.1101	0.4474	0.8981	-0.063
Mof_C 	C 	0.0081	0.8139	0.9424	0.023
Mof_C 	C 	0.9656	0.5708	0.8296	-0.09
Mof_C 	C 	0.8949	0.4424	0.8229	-0.09
Mof_C 	C 	0.6861	0.1942	0.6285	0.014
Mof_C 	C 	0.9968	0.7583	0.9011	-0.014
Mof_C 	C 	0.2358	0.4634	0.9574	0.099
Mof_C 	C 	0.0526	0.6627	0.9507	-0.064
Mof_C 	C 	0.8271	0.3388	0.7387	0.083
Mof_N 	N 	0.767	0.2827	0.7029	-0.136
Mof_N 	N 	-4.77628e-17	0.5	0.8452	-0.156
Mof_N 	N 	0.2889	0.4652	0.9653	-0.184
Mof_N 	N 	0.6763	0.2111	0.6764	-0.184
Mof_N 	N 	0.2173	0.4843	0.9202	-0.136
Mof_N 	N 	0.0157	0.733	0.9359	-0.134
Mof_N 	N 	0.0348	0.8237	0.0001	-0.184
Mof_Si	Si	0.97671	0.91925	0.81842	0.359
Mof_Si	Si	0.91925	0.31842	0.47671	0.362
Mof_Si	Si	0.31842	0.97671	0.41925	0.361
Mof_H 	H 	0.1415	0.3828	0.6215	0.036
Mof_H 	H 	0.0089	0.2029	0.5914	0.049
Mof_H 	H 	0.1437	0.1202	0.5463	0.062
Mof_H 	H 	0.1487	0.2115	0.752	0.062
Mof_H 	H 	0.2386	0.0242	0.4732	-0.013
Mof_H 	H 	0.3092	0.116	0.6736	0.056
Mof_H 	H 	0.2115	0.252	0.6487	0.062
Mof_H 	H 	0.1202	0.0463	0.6437	0.062
Mof_H 	H 	0.3828	0.1215	0.6415	0.036
Mof_H 	H 	0.252	0.1487	0.7115	0.062
Mof_H 	H 	0.1215	0.1415	0.8828	0.036
Mof_H 	H 	0.2029	0.0914	0.5089	0.049
Mof_H 	H 	0.0242	0.9732	0.7386	-0.016
Mof_H 	H 	0.0681	0.4092	0.5667	0.009
Mof_H 	H 	0.1736	0.3092	0.616	0.056
Mof_H 	H 	0.0914	0.0089	0.7029	0.049
Mof_H 	H 	0.116	0.1736	0.8092	0.056
Mof_H 	H 	0.4092	0.0667	0.5681	0.01
Mof_H 	H 	0.0463	0.1437	0.6202	0.063
Mof_H 	H 	0.0667	0.0681	0.9092	0.009
Mof_H 	H 	0.9732	0.2386	0.5242	-0.017
Mof_C 	C 	0.1704	0.2412	0.636	-0.087
Mof_C 	C 	0.0989	0.3572	0.5957	-0.006
Mof_C 	C 	0.1362	0.1322	0.691	0.094
Mof_C 	C 	0.3572	0.0957	0.5989	-0.005
Mof_C 	C 	0.006	0.2784	0.5426	0.105
Mof_C 	C 	0.136	0.1704	0.7412	-0.087
Mof_C 	C 	0.276	0.1171	0.6479	-0.069
Mof_C 	C 	0.0576	0.3715	0.5657	0.016
Mof_C 	C 	0.0493	0.212	0.6019	-0.064
Mof_C 	C 	0.2412	0.136	0.6704	-0.087
Mof_C 	C 	0.1171	0.1479	0.776	-0.069
Mof_C 	C 	0.2613	0.1001	0.5884	0.083
Mof_C 	C 	0.1195	0.072	0.6771	-0.091
Mof_C 	C 	0.0657	0.0576	0.8715	0.016
Mof_C 	C 	0.0884	0.2613	0.6001	0.083
Mof_C 	C 	0.191	0.1362	0.6322	0.094
Mof_C 	C 	0.2784	0.0426	0.506	0.099
Mof_C 	C 	0.0957	0.0989	0.8572	-0.005
Mof_C 	C 	0.1322	0.191	0.6362	0.094
Mof_C 	C 	0.212	0.1019	0.5493	-0.063
Mof_C 	C 	0.1479	0.276	0.6171	-0.069
Mof_C 	C 	0.1001	0.0884	0.7613	0.083
Mof_C 	C 	0.072	0.1771	0.6195	-0.091
Mof_C 	C 	0.1019	0.0493	0.712	-0.064
Mof_C 	C 	0.3715	0.0657	0.5576	0.014
Mof_C 	C 	0.0426	0.006	0.7784	0.105
Mof_C 	C 	0.1771	0.1195	0.572	-0.091
Mof_N 	N 	0.1548	0.1548	0.6548	-0.157
Mof_N 	N 	0.0347	0.9999	0.8236	-0.185
Mof_N 	N 	0.0641	0.2971	0.5798	-0.137
Mof_N 	N 	0.2971	0.0798	0.5641	-0.136
Mof_N 	N 	0.0798	0.0641	0.7971	-0.137
Mof_N 	N 	0.3236	0.0347	0.4999	-0.183
Mof_N 	N 	0.9999	0.3236	0.5347	-0.187
Mof_Si	Si	0.18158	0.60083	0.65829	0.363
Mof_Si	Si	0.58075	0.05746	0.39917	0.364
Mof_Si	Si	0.52329	0.34171	0.94254	0.361
Mof_H 	H 	0.4537	0.0739	0.0974	0.062
Mof_H 	H 	0.4758	0.2144	0.949	-0.013
Mof_H 	H 	0.3585	0.98	0.2413	0.038
Mof_H 	H 	0.2885	0.9372	0.0405	0.063
Mof_H 	H 	0.4319	0.9986	0.3411	0.005
Mof_H 	H 	0.0908	0.6589	0.6575	0.01
Mof_H 	H 	0.4911	0.0825	0.194	0.048
Mof_H 	H 	0.248	0.9595	0.8967	0.06
Mof_H 	H 	0.1172	0.7587	0.7387	0.036
Mof_H 	H 	0.1908	0.8644	0.8068	0.056
Mof_H 	H 	0.3785	0.2613	0.02	0.033
Mof_H 	H 	0.5268	0.051	0.2654	-0.013
Mof_H 	H 	0.3798	0.0235	0.9261	0.062
Mof_H 	H 	0.2971	0.806	0.8885	0.049
Mof_H 	H 	0.3513	0.1033	0.0628	0.061
Mof_H 	H 	0.4333	0.3425	0.0014	0.014
Mof_H 	H 	0.2614	0.7346	0.7856	-0.013
Mof_H 	H 	0.3563	0.9026	0.9765	0.06
Mof_H 	H 	0.4086	0.1115	0.9175	0.048
Mof_H 	H 	0.3264	0.9424	0.1356	0.056
Mof_H 	H 	0.384	0.1932	0.0576	0.055
Mof_C 	C 	0.2387	0.8271	0.8388	0.084
Mof_C 	C 	0.364	0.1052	0.0344	-0.084
Mof_C 	C 	0.3521	0.9692	0.1281	-0.071
Mof_C 	C 	0.3981	0.1101	0.9474	-0.064
Mof_C 	C 	0.3638	0.0548	0.996	0.09
Mof_C 	C 	0.4507	0.0526	0.1627	-0.064
Mof_C 	C 	0.3678	0.004	0.0588	0.097
Mof_C 	C 	0.288	0.8373	0.8899	-0.066
Mof_C 	C 	0.3829	0.1589	0.0308	-0.067
Mof_C 	C 	0.4343	0.3058	0.9919	0.005
Mof_C 	C 	0.494	0.0366	0.2724	0.1
Mof_C 	C 	0.3805	0.0576	0.9525	-0.09
Mof_C 	C 	0.4116	0.0117	0.1729	0.085
Mof_C 	C 	0.3999	0.1612	0.9883	0.081
Mof_C 	C 	0.1285	0.6861	0.6942	0.014
Mof_C 	C 	0.309	0.9412	0.9452	0.089
Mof_C 	C 	0.4011	0.9968	0.2583	-0.013
Mof_C 	C 	0.224	0.8719	0.8411	-0.071
Mof_C 	C 	0.2216	0.7276	0.7642	0.099
Mof_C 	C 	0.4424	0.0081	0.3139	0.023
Mof_C 	C 	0.4574	0.2358	0.9634	0.099
Mof_C 	C 	0.3296	0.9656	0.0708	-0.09
Mof_C 	C 	0.2588	0.9292	0.8948	-0.085
Mof_C 	C 	0.3229	0.8949	0.9424	-0.088
Mof_C 	C 	0.1428	0.7417	0.7385	-0.005
Mof_C 	C 	0.4043	0.2615	0.0032	0.003
Mof_C 	C 	0.428	0.0475	0.1051	-0.092
Mof_N 	N 	0.2029	0.767	0.7827	-0.137
Mof_N 	N 	0.4202	0.2173	0.9843	-0.138
Mof_N 	N 	0.4359	0.0157	0.233	-0.135
Mof_N 	N 	0.4653	0.2889	0.9652	-0.182
Mof_N 	N 	0.5001	0.0348	0.3237	-0.185
Mof_N 	N 	0.3452	0	-0	-0.154
Mof_N 	N 	0.1764	0.6763	0.7111	-0.184
Mof_H 	H 	0.0524	0.2503	0.4471	0.059
Mof_H 	H 	0.1968	0.2497	0.3021	0.058
Mof_H 	H 	0.3166	0.3582	0.5164	0.056
Mof_H 	H 	0.3757	0.2061	0.546	0.06
Mof_H 	H 	0.3399	0.2939	0.6696	0.06
Mof_H 	H 	0.3778	0.4059	0.3873	-0.019
Mof_H 	H 	0.9814	0.0941	0.4719	-0.02
Mof_H 	H 	0.9407	0.1699	0.3712	0.02
Mof_H 	H 	0.174	0.2051	0.3577	0.066
Mof_H 	H 	0.3411	0.4016	0.4593	0.041
Mof_H 	H 	0.2615	0.3978	0.2413	0.013
Mof_H 	H 	0.2013	0.3301	0.2708	0.021
Mof_H 	H 	0.2998	0.2048	0.4684	0.056
Mof_H 	H 	0.1582	0.1418	0.4584	0.056
Mof_H 	H 	0.1526	0.2949	0.4689	0.065
Mof_H 	H 	0.2636	0.2952	0.595	0.056
Mof_H 	H 	0.0577	0.0984	0.4395	0.042
Mof_H 	H 	0.8435	0.1022	0.3637	0.013
Mof_C 	C 	0.3645	0.25	0.6145	0.097
Mof_C 	C 	0.3416	0.3952	0.3542	0.1
Mof_C 	C 	0.2859	0.277	0.5845	-0.076
Mof_C 	C 	0.3529	0.2239	0.5556	-0.082
Mof_C 	C 	0.2429	0.2762	0.4429	0.093
Mof_C 	C 	0.1373	0.1639	0.457	-0.088
Mof_C 	C 	0.3075	0.223	0.5089	-0.076
Mof_C 	C 	0.883	0.1093	0.3867	-0.004
Mof_C 	C 	0.1667	0.2238	0.4667	0.092
Mof_C 	C 	0.2075	0.2448	0.3783	-0.085
Mof_C 	C 	0.244	0.3536	0.2902	0.001
Mof_C 	C 	0.0456	0.1709	0.4419	0.078
Mof_C 	C 	0.4932	0.2483	0.7135	-0.038
Mof_C 	C 	0.959	0.1048	0.4464	0.1
Mof_C 	C 	0.3073	0.3621	0.4394	-0.064
Mof_C 	C 	0.2212	0.2711	0.3449	-0.068
Mof_C 	C 	0.2774	0.3907	0.2737	-0.004
Mof_C 	C 	0.4625	0.2493	0.6622	0.038
Mof_C 	C 	0.9366	0.1464	0.3904	0.001
Mof_C 	C 	0.2745	0.25	0.5245	0.085
Mof_C 	C 	0.271	0.3291	0.3747	0.075
Mof_C 	C 	0.0773	0.1379	0.4452	-0.066
Mof_C 	C 	0.3317	0.2761	0.629	-0.082
Mof_C 	C 	0.4652	0.2517	0.7449	-0.038
Mof_C 	C 	0.2931	0.3361	0.4734	-0.089
Mof_C 	C 	0.0738	0.2289	0.4501	-0.07
Mof_C 	C 	0.4129	0.2507	0.7132	0.038
Mof_C 	C 	0.1335	0.2552	0.4627	-0.084
Mof_N 	N 	0.2859	0.3585	0.3402	-0.141
Mof_N 	N 	0.2275	0.25	0.4775	-0.155
Mof_N 	N 	0.8993	0.0851	0.4236	-0.179
Mof_N 	N 	0.4119	0.25	0.6619	-0.136
Mof_N 	N 	0.9817	0.1415	0.4274	-0.142
Mof_N 	N 	0.3385	0.4149	0.3142	-0.179
Mof_H 	H 	0.8032	0.0529	0.6053	0.058
Mof_H 	H 	0.0186	0.1127	0.9905	-0.018
Mof_H 	H 	0.9423	0.0407	0.8818	0.041
Mof_H 	H 	0.6222	0.0281	0.5095	-0.019
Mof_H 	H 	0.1565	0.2587	0.0202	0.012
Mof_H 	H 	0.7002	0.905	0.6686	0.056
Mof_H 	H 	0.6601	0.954	0.8297	0.058
Mof_H 	H 	0.7987	0.1288	0.5695	0.021
Mof_H 	H 	0.8418	0.9836	0.8002	0.054
Mof_H 	H 	0.7385	0.1363	0.4798	0.013
Mof_H 	H 	0.6834	0.0416	0.6998	0.057
Mof_H 	H 	0.6589	0.0605	0.6182	0.041
Mof_H 	H 	0.826	0.0311	0.6837	0.066
Mof_H 	H 	0.9476	0.1979	0.8947	0.057
Mof_H 	H 	0.0593	0.2292	0.9305	0.022
Mof_H 	H 	0.8474	0.1423	0.8163	0.066
Mof_H 	H 	0.7364	0.0316	0.8314	0.058
Mof_H 	H 	0.6243	0.8304	0.6703	0.059
Mof_C 	C 	0.7571	0.0333	0.7	0.093
Mof_C 	C 	0.7069	0.043	0.6803	-0.089
Mof_C 	C 	0.6355	0.8855	0.75	0.095
Mof_C 	C 	0.6683	0.9444	0.7973	-0.079
Mof_C 	C 	0.5375	0.7868	0.6997	0.038
Mof_C 	C 	0.7788	0.0499	0.6237	-0.068
Mof_C 	C 	0.6925	0.9155	0.7014	-0.077
Mof_C 	C 	0.5068	0.7551	0.7203	-0.038
Mof_C 	C 	0.756	0.1096	0.5462	0.001
Mof_C 	C 	0.5348	0.7865	0.7797	-0.038
Mof_C 	C 	0.7226	0.1133	0.4963	-0.004
Mof_C 	C 	0.7255	0.9755	0.75	0.085
Mof_C 	C 	0.6584	0.0536	0.5126	0.1
Mof_C 	C 	0.9544	0.1253	0.8963	0.073
Mof_C 	C 	0.8665	0.1217	0.8292	-0.085
Mof_C 	C 	0.041	0.1458	0.9874	0.098
Mof_C 	C 	0.7925	0.0373	0.6708	-0.085
Mof_C 	C 	0.8627	0.0266	0.8197	-0.086
Mof_C 	C 	0.5871	0.8378	0.8003	0.038
Mof_C 	C 	0.0634	0.2098	0.9538	-0.002
Mof_C 	C 	0.6927	0.0548	0.6321	-0.064
Mof_C 	C 	0.8333	0.0571	0.8	0.092
Mof_C 	C 	0.9262	0.1551	0.8763	-0.067
Mof_C 	C 	0.729	0.0581	0.6037	0.076
Mof_C 	C 	0.7141	0.9911	0.7986	-0.08
Mof_C 	C 	0.6471	0.871	0.7027	-0.081
Mof_C 	C 	0.9227	0.0606	0.8679	-0.065
Mof_C 	C 	0.117	0.2263	0.0037	-0.001
Mof_N 	N 	0.7725	0.0225	0.75	-0.155
Mof_N 	N 	0.1007	0.1858	0.0243	-0.178
Mof_N 	N 	0.6615	0.0764	0.4757	-0.179
Mof_N 	N 	0.5881	0.8381	0.75	-0.135
Mof_N 	N 	0.0183	0.1598	0.9457	-0.139
Mof_N 	N 	0.7141	0.0726	0.5543	-0.141
Mof_H 	H 	0.1022	0.8637	0.3435	0.013
Mof_H 	H 	0.4059	0.8873	0.8778	-0.019
Mof_H 	H 	0.1699	0.8712	0.4407	0.021
Mof_H 	H 	0.2952	0.095	0.7636	0.056
Mof_H 	H 	0.3978	0.7413	0.7615	0.013
Mof_H 	H 	0.2051	0.8577	0.674	0.066
Mof_H 	H 	0.1418	0.9584	0.6582	0.056
Mof_H 	H 	0.3301	0.7708	0.7013	0.021
Mof_H 	H 	0.2949	0.9689	0.6526	0.065
Mof_H 	H 	0.2497	0.8021	0.6968	0.058
Mof_H 	H 	0.2048	0.9684	0.7998	0.053
Mof_H 	H 	0.0941	0.9719	0.4814	-0.019
Mof_H 	H 	0.0984	0.9395	0.5577	0.041
Mof_H 	H 	0.2061	0.046	0.8757	0.061
Mof_H 	H 	0.2503	0.9471	0.5524	0.058
Mof_H 	H 	0.2939	0.1696	0.8399	0.06
Mof_H 	H 	0.3582	0.0164	0.8166	0.06
Mof_H 	H 	0.4016	0.9593	0.8411	0.039
Mof_C 	C 	0.2289	0.9501	0.5738	-0.068
Mof_C 	C 	0.1048	0.9464	0.459	0.1
Mof_C 	C 	0.2238	0.9667	0.6667	0.092
Mof_C 	C 	0.2483	0.2135	0.9932	-0.039
Mof_C 	C 	0.3536	0.7902	0.744	0.001
Mof_C 	C 	0.2507	0.2132	0.9129	0.038
Mof_C 	C 	0.3621	0.9394	0.8073	-0.061
Mof_C 	C 	0.1709	0.9419	0.5456	0.075
Mof_C 	C 	0.2493	0.1622	0.9625	0.038
Mof_C 	C 	0.2762	0.9429	0.7429	0.095
Mof_C 	C 	0.1639	0.957	0.6373	-0.089
Mof_C 	C 	0.25	0.1145	0.8645	0.098
Mof_C 	C 	0.2517	0.2449	0.9652	-0.039
Mof_C 	C 	0.3361	0.9734	0.7931	-0.095
Mof_C 	C 	0.2711	0.8449	0.7212	-0.066
Mof_C 	C 	0.1093	0.8867	0.383	-0.004
Mof_C 	C 	0.2239	0.0556	0.8529	-0.084
Mof_C 	C 	0.277	0.0845	0.7859	-0.075
Mof_C 	C 	0.2448	0.8783	0.7075	-0.087
Mof_C 	C 	0.25	0.0245	0.7745	0.085
Mof_C 	C 	0.3952	0.8542	0.8416	0.1
Mof_C 	C 	0.2761	0.129	0.8317	-0.083
Mof_C 	C 	0.1464	0.8904	0.4366	0.001
Mof_C 	C 	0.2552	0.9627	0.6335	-0.085
Mof_C 	C 	0.223	0.0089	0.8075	-0.071
Mof_C 	C 	0.3907	0.7737	0.7774	-0.004
Mof_C 	C 	0.1379	0.9452	0.5773	-0.065
Mof_C 	C 	0.3291	0.8747	0.771	0.073
Mof_N 	N 	0.3585	0.8402	0.7859	-0.141
Mof_N 	N 	0.0851	0.9236	0.3993	-0.179
Mof_N 	N 	0.25	0.9775	0.7275	-0.156
Mof_N 	N 	0.4149	0.8142	0.8385	-0.179
Mof_N 	N 	0.1415	0.9274	0.4817	-0.141
Mof_N 	N 	0.25	0.1619	0.9119	-0.136
Mof_H 	H 	0.2002	0.6686	0.905	0.055
Mof_H 	H 	0.4476	0.8947	0.1979	0.058
Mof_H 	H 	0.1601	0.8297	0.954	0.059
Mof_H 	H 	0.3032	0.6053	0.0529	0.058
Mof_H 	H 	0.1834	0.6998	0.0416	0.057
Mof_H 	H 	0.4423	0.8818	0.0407	0.042
Mof_H 	H 	0.326	0.6837	0.0311	0.066
Mof_H 	H 	0.2385	0.4798	0.1363	0.013
Mof_H 	H 	0.2364	0.8314	0.0316	0.058
Mof_H 	H 	0.5593	0.9305	0.2292	0.022
Mof_H 	H 	0.2987	0.5695	0.1288	0.021
Mof_H 	H 	0.3418	0.8002	0.9836	0.054
Mof_H 	H 	0.5186	0.9905	0.1127	-0.019
Mof_H 	H 	0.1222	0.5095	0.0281	-0.019
Mof_H 	H 	0.3474	0.8163	0.1423	0.065
Mof_H 	H 	0.6565	0.0202	0.2587	0.012
Mof_H 	H 	0.1589	0.6182	0.0605	0.041
Mof_H 	H 	0.1243	0.6703	0.8304	0.06
Mof_C 	C 	0.1584	0.5126	0.0536	0.1
Mof_C 	C 	0.2255	0.75	0.9755	0.085
Mof_C 	C 	0.1355	0.75	0.8855	0.096
Mof_C 	C 	0.1683	0.7973	0.9444	-0.08
Mof_C 	C 	0.4544	0.8963	0.1253	0.076
Mof_C 	C 	0.2925	0.6708	0.0373	-0.085
Mof_C 	C 	0.2226	0.4963	0.1133	-0.004
Mof_C 	C 	0.3665	0.8292	0.1217	-0.084
Mof_C 	C 	0.617	0.0037	0.2263	-0
Mof_C 	C 	0.4262	0.8763	0.1551	-0.069
Mof_C 	C 	0.2788	0.6237	0.0499	-0.068
Mof_C 	C 	0.3333	0.8	0.0571	0.091
Mof_C 	C 	0.0348	0.7797	0.7865	-0.038
Mof_C 	C 	0.2069	0.6803	0.043	-0.089
Mof_C 	C 	0.1927	0.6321	0.0548	-0.064
Mof_C 	C 	0.5634	0.9538	0.2098	-0.002
Mof_C 	C 	0.2571	0.7	0.0333	0.093
Mof_C 	C 	0.3627	0.8197	0.0266	-0.084
Mof_C 	C 	0.2141	0.7986	0.9911	-0.08
Mof_C 	C 	0.541	0.9874	0.1458	0.098
Mof_C 	C 	0.256	0.5462	0.1096	0.001
Mof_C 	C 	0.0871	0.8003	0.8378	0.038
Mof_C 	C 	0.1925	0.7014	0.9155	-0.076
Mof_C 	C 	0.4227	0.8679	0.0606	-0.067
Mof_C 	C 	0.0068	0.7203	0.7551	-0.037
Mof_C 	C 	0.229	0.6037	0.0581	0.076
Mof_C 	C 	0.0375	0.6997	0.7868	0.039
Mof_C 	C 	0.1471	0.7027	0.871	-0.081
Mof_N 	N 	0.5183	0.9457	0.1598	-0.14
Mof_N 	N 	0.2141	0.5543	0.0726	-0.141
Mof_N 	N 	0.0881	0.75	0.8381	-0.135
Mof_N 	N 	0.6007	0.0243	0.1858	-0.178
Mof_N 	N 	0.2725	0.75	0.0225	-0.155
Mof_N 	N 	0.1615	0.4757	0.0764	-0.179
Mof_H 	H 	0.5202	0.1565	0.7587	0.013
Mof_H 	H 	0.1998	0.6834	0.5416	0.056
Mof_H 	H 	0.3947	0.9476	0.6979	0.057
Mof_H 	H 	0.1703	0.6243	0.3304	0.06
Mof_H 	H 	0.4305	0.0593	0.7292	0.021
Mof_H 	H 	0.3297	0.6601	0.454	0.06
Mof_H 	H 	0.4905	0.0186	0.6127	-0.018
Mof_H 	H 	0.1686	0.7002	0.405	0.056
Mof_H 	H 	0.0095	0.6222	0.5281	-0.019
Mof_H 	H 	0.3163	0.8474	0.6423	0.066
Mof_H 	H 	0.9798	0.7385	0.6363	0.014
Mof_H 	H 	0.3818	0.9423	0.5407	0.04
Mof_H 	H 	0.3314	0.7364	0.5316	0.056
Mof_H 	H 	0.3002	0.8418	0.4836	0.057
Mof_H 	H 	0.0695	0.7987	0.6288	0.02
Mof_H 	H 	0.1182	0.6589	0.5605	0.041
Mof_H 	H 	0.1837	0.826	0.5311	0.066
Mof_H 	H 	0.1053	0.8032	0.5529	0.059
Mof_C 	C 	0.0126	0.6584	0.5536	0.103
Mof_C 	C 	0.2027	0.6471	0.371	-0.082
Mof_C 	C 	0.2797	0.5348	0.2865	-0.038
Mof_C 	C 	0.3197	0.8627	0.5266	-0.09
Mof_C 	C 	0.4538	0.0634	0.7098	0.001
Mof_C 	C 	0.3	0.8333	0.5571	0.093
Mof_C 	C 	0.0462	0.756	0.6096	0.005
Mof_C 	C 	0.3763	0.9262	0.6551	-0.066
Mof_C 	C 	0.1803	0.7069	0.543	-0.089
Mof_C 	C 	0.25	0.7255	0.4755	0.085
Mof_C 	C 	0.9963	0.7226	0.6133	-0.008
Mof_C 	C 	0.1708	0.7925	0.5373	-0.085
Mof_C 	C 	0.1321	0.6927	0.5548	-0.065
Mof_C 	C 	0.3963	0.9544	0.6253	0.073
Mof_C 	C 	0.1037	0.729	0.5581	0.076
Mof_C 	C 	0.3679	0.9227	0.5606	-0.063
Mof_C 	C 	0.3292	0.8665	0.6217	-0.086
Mof_C 	C 	0.1997	0.5375	0.2868	0.038
Mof_C 	C 	0.25	0.6355	0.3855	0.097
Mof_C 	C 	0.2014	0.6925	0.4155	-0.076
Mof_C 	C 	0.1237	0.7788	0.5499	-0.068
Mof_C 	C 	0.2203	0.5068	0.2551	-0.038
Mof_C 	C 	0.2973	0.6683	0.4444	-0.082
Mof_C 	C 	0.2	0.7571	0.5333	0.092
Mof_C 	C 	0.2986	0.7141	0.4911	-0.076
Mof_C 	C 	0.5037	0.117	0.7263	-0.004
Mof_C 	C 	0.3003	0.5871	0.3378	0.038
Mof_C 	C 	0.4874	0.041	0.6458	0.1
Mof_N 	N 	0.0543	0.7141	0.5726	-0.142
Mof_N 	N 	0.5243	0.1007	0.6858	-0.179
Mof_N 	N 	0.9757	0.6615	0.5764	-0.18
Mof_N 	N 	0.25	0.5881	0.3381	-0.136
Mof_N 	N 	0.25	0.7725	0.5225	-0.155
Mof_N 	N 	0.4457	0.0183	0.6598	-0.14
Mof_H 	H 	0.0407	0.3818	0.4423	0.043
Mof_H 	H 	0.954	0.3297	0.1601	0.059
Mof_H 	H 	0.0316	0.3314	0.2364	0.058
Mof_H 	H 	0.1979	0.3947	0.4476	0.059
Mof_H 	H 	0.905	0.1686	0.2002	0.056
Mof_H 	H 	0.1127	0.4905	0.5186	-0.019
Mof_H 	H 	0.0311	0.1837	0.326	0.066
Mof_H 	H 	0.0281	0.0095	0.1222	-0.019
Mof_H 	H 	0.1423	0.3163	0.3474	0.065
Mof_H 	H 	0.0416	0.1998	0.1834	0.057
Mof_H 	H 	0.2587	0.5202	0.6565	0.013
Mof_H 	H 	0.2292	0.4305	0.5593	0.021
Mof_H 	H 	0.1363	0.9798	0.2385	0.014
Mof_H 	H 	0.9836	0.3002	0.3418	0.053
Mof_H 	H 	0.1288	0.0695	0.2987	0.02
Mof_H 	H 	0.8304	0.1703	0.1243	0.06
Mof_H 	H 	0.0529	0.1053	0.3032	0.059
Mof_H 	H 	0.0605	0.1182	0.1589	0.041
Mof_C 	C 	0.2263	0.5037	0.617	-0.004
Mof_C 	C 	0.9911	0.2986	0.2141	-0.08
Mof_C 	C 	0.0581	0.1037	0.229	0.076
Mof_C 	C 	0.1133	0.9963	0.2226	-0.008
Mof_C 	C 	0.7868	0.1997	0.0375	0.039
Mof_C 	C 	0.9755	0.25	0.2255	0.085
Mof_C 	C 	0.0266	0.3197	0.3627	-0.083
Mof_C 	C 	0.1217	0.3292	0.3665	-0.083
Mof_C 	C 	0.0333	0.2	0.2571	0.093
Mof_C 	C 	0.2098	0.4538	0.5634	0.001
Mof_C 	C 	0.0499	0.1237	0.2788	-0.068
Mof_C 	C 	0.0373	0.1708	0.2925	-0.085
Mof_C 	C 	0.0536	0.0126	0.1584	0.103
Mof_C 	C 	0.1458	0.4874	0.541	0.1
Mof_C 	C 	0.8378	0.3003	0.0871	0.038
Mof_C 	C 	0.7551	0.2203	0.0068	-0.037
Mof_C 	C 	0.0548	0.1321	0.1927	-0.065
Mof_C 	C 	0.1253	0.3963	0.4544	0.077
Mof_C 	C 	0.9155	0.2014	0.1925	-0.077
Mof_C 	C 	0.7865	0.2797	0.0348	-0.038
Mof_C 	C 	0.0606	0.3679	0.4227	-0.068
Mof_C 	C 	0.043	0.1803	0.2069	-0.089
Mof_C 	C 	0.9444	0.2973	0.1683	-0.079
Mof_C 	C 	0.871	0.2027	0.1471	-0.081
Mof_C 	C 	0.8855	0.25	0.1355	0.096
Mof_C 	C 	0.1551	0.3763	0.4262	-0.07
Mof_C 	C 	0.1096	0.0462	0.256	0.005
Mof_C 	C 	0.0571	0.3	0.3333	0.09
Mof_N 	N 	0.1598	0.4457	0.5183	-0.141
Mof_N 	N 	0.0726	0.0543	0.2141	-0.142
Mof_N 	N 	0.0764	0.9757	0.1615	-0.18
Mof_N 	N 	0.1858	0.5243	0.6007	-0.179
Mof_N 	N 	0.8381	0.25	0.0881	-0.135
Mof_N 	N 	0.0225	0.25	0.2725	-0.154
Mof_H 	H 	0.7292	0.5593	0.4305	0.021
Mof_H 	H 	0.7587	0.6565	0.5202	0.013
Mof_H 	H 	0.5416	0.1834	0.1998	0.056
Mof_H 	H 	0.5311	0.326	0.1837	0.066
Mof_H 	H 	0.6127	0.5186	0.4905	-0.019
Mof_H 	H 	0.5281	0.1222	0.0095	-0.019
Mof_H 	H 	0.6979	0.4476	0.3947	0.058
Mof_H 	H 	0.6363	0.2385	0.9798	0.014
Mof_H 	H 	0.5605	0.1589	0.1182	0.041
Mof_H 	H 	0.454	0.1601	0.3297	0.06
Mof_H 	H 	0.3304	0.1243	0.1703	0.06
Mof_H 	H 	0.5316	0.2364	0.3314	0.055
Mof_H 	H 	0.405	0.2002	0.1686	0.056
Mof_H 	H 	0.4836	0.3418	0.3002	0.056
Mof_H 	H 	0.5407	0.4423	0.3818	0.041
Mof_H 	H 	0.6288	0.2987	0.0695	0.02
Mof_H 	H 	0.6423	0.3474	0.3163	0.066
Mof_H 	H 	0.5529	0.3032	0.1053	0.059
Mof_C 	C 	0.3855	0.1355	0.25	0.097
Mof_C 	C 	0.5536	0.1584	0.0126	0.103
Mof_C 	C 	0.371	0.1471	0.2027	-0.082
Mof_C 	C 	0.2868	0.0375	0.1997	0.039
Mof_C 	C 	0.5333	0.2571	0.2	0.092
Mof_C 	C 	0.6133	0.2226	0.9963	-0.008
Mof_C 	C 	0.3378	0.0871	0.3003	0.038
Mof_C 	C 	0.5548	0.1927	0.1321	-0.065
Mof_C 	C 	0.4911	0.2141	0.2986	-0.076
Mof_C 	C 	0.543	0.2069	0.1803	-0.089
Mof_C 	C 	0.6253	0.4544	0.3963	0.075
Mof_C 	C 	0.7263	0.617	0.5037	-0.004
Mof_C 	C 	0.6096	0.256	0.0462	0.005
Mof_C 	C 	0.5266	0.3627	0.3197	-0.089
Mof_C 	C 	0.5373	0.2925	0.1708	-0.085
Mof_C 	C 	0.6458	0.541	0.4874	0.1
Mof_C 	C 	0.4755	0.2255	0.25	0.085
Mof_C 	C 	0.5499	0.2788	0.1237	-0.068
Mof_C 	C 	0.4155	0.1925	0.2014	-0.076
Mof_C 	C 	0.2865	0.0348	0.2797	-0.038
Mof_C 	C 	0.5581	0.229	0.1037	0.076
Mof_C 	C 	0.6217	0.3665	0.3292	-0.085
Mof_C 	C 	0.2551	0.0068	0.2203	-0.037
Mof_C 	C 	0.7098	0.5634	0.4538	0.001
Mof_C 	C 	0.5606	0.4227	0.3679	-0.064
Mof_C 	C 	0.5571	0.3333	0.3	0.093
Mof_C 	C 	0.6551	0.4262	0.3763	-0.068
Mof_C 	C 	0.4444	0.1683	0.2973	-0.082
Mof_N 	N 	0.5726	0.2141	0.0543	-0.142
Mof_N 	N 	0.3381	0.0881	0.25	-0.136
Mof_N 	N 	0.6858	0.6007	0.5243	-0.179
Mof_N 	N 	0.5764	0.1615	0.9757	-0.18
Mof_N 	N 	0.6598	0.5183	0.4457	-0.141
Mof_N 	N 	0.5225	0.2725	0.25	-0.155
Mof_H 	H 	0.6696	0.7939	0.3399	0.06
Mof_H 	H 	0.4593	0.9016	0.3411	0.04
Mof_H 	H 	0.4684	0.7048	0.2998	0.056
Mof_H 	H 	0.3577	0.7051	0.174	0.066
Mof_H 	H 	0.2708	0.8301	0.2013	0.021
Mof_H 	H 	0.595	0.7952	0.2636	0.055
Mof_H 	H 	0.3637	0.6022	0.8435	0.013
Mof_H 	H 	0.3873	0.9059	0.3778	-0.019
Mof_H 	H 	0.4395	0.5984	0.0577	0.042
Mof_H 	H 	0.4471	0.7503	0.0524	0.059
Mof_H 	H 	0.3021	0.7497	0.1968	0.058
Mof_H 	H 	0.3712	0.6699	0.9407	0.02
Mof_H 	H 	0.546	0.7061	0.3757	0.06
Mof_H 	H 	0.5164	0.8582	0.3166	0.056
Mof_H 	H 	0.4689	0.7949	0.1526	0.065
Mof_H 	H 	0.4719	0.5941	0.9814	-0.02
Mof_H 	H 	0.2413	0.8978	0.2615	0.013
Mof_H 	H 	0.4584	0.6418	0.1582	0.056
Mof_C 	C 	0.4627	0.7552	0.1335	-0.084
Mof_C 	C 	0.6145	0.75	0.3645	0.097
Mof_C 	C 	0.457	0.6639	0.1373	-0.088
Mof_C 	C 	0.6622	0.7493	0.4625	0.038
Mof_C 	C 	0.5245	0.75	0.2745	0.085
Mof_C 	C 	0.3747	0.8291	0.271	0.075
Mof_C 	C 	0.4464	0.6048	0.959	0.1
Mof_C 	C 	0.7135	0.7483	0.4932	-0.038
Mof_C 	C 	0.3904	0.6464	0.9366	0.001
Mof_C 	C 	0.3449	0.7711	0.2212	-0.068
Mof_C 	C 	0.5845	0.777	0.2859	-0.076
Mof_C 	C 	0.3542	0.8952	0.3416	0.1
Mof_C 	C 	0.2902	0.8536	0.244	0.001
Mof_C 	C 	0.4734	0.8361	0.2931	-0.089
Mof_C 	C 	0.4452	0.6379	0.0773	-0.066
Mof_C 	C 	0.629	0.7761	0.3317	-0.082
Mof_C 	C 	0.4419	0.6709	0.0456	0.078
Mof_C 	C 	0.5089	0.723	0.3075	-0.076
Mof_C 	C 	0.5556	0.7239	0.3529	-0.082
Mof_C 	C 	0.2737	0.8907	0.2774	-0.004
Mof_C 	C 	0.4667	0.7238	0.1667	0.092
Mof_C 	C 	0.4501	0.7289	0.0738	-0.069
Mof_C 	C 	0.7132	0.7507	0.4129	0.038
Mof_C 	C 	0.4394	0.8621	0.3073	-0.064
Mof_C 	C 	0.3867	0.6093	0.883	-0.004
Mof_C 	C 	0.4429	0.7762	0.2429	0.093
Mof_C 	C 	0.7449	0.7517	0.4652	-0.038
Mof_C 	C 	0.3783	0.7448	0.2075	-0.085
Mof_N 	N 	0.6619	0.75	0.4119	-0.136
Mof_N 	N 	0.3402	0.8585	0.2859	-0.141
Mof_N 	N 	0.3142	0.9149	0.3385	-0.179
Mof_N 	N 	0.4775	0.75	0.2275	-0.155
Mof_N 	N 	0.4274	0.6415	0.9817	-0.142
Mof_N 	N 	0.4236	0.5851	0.8993	-0.179
Mof_H 	H 	0.4407	0.3712	0.1699	0.021
Mof_H 	H 	0.7998	0.4684	0.2048	0.056
Mof_H 	H 	0.8778	0.3873	0.4059	-0.019
Mof_H 	H 	0.7013	0.2708	0.3301	0.021
Mof_H 	H 	0.3435	0.3637	0.1022	0.013
Mof_H 	H 	0.5577	0.4395	0.0984	0.041
Mof_H 	H 	0.674	0.3577	0.2051	0.066
Mof_H 	H 	0.8411	0.4593	0.4016	0.041
Mof_H 	H 	0.6582	0.4584	0.1418	0.057
Mof_H 	H 	0.7615	0.2413	0.3978	0.013
Mof_H 	H 	0.4814	0.4719	0.0941	-0.019
Mof_H 	H 	0.5524	0.4471	0.2503	0.058
Mof_H 	H 	0.6526	0.4689	0.2949	0.066
Mof_H 	H 	0.8399	0.6696	0.2939	0.06
Mof_H 	H 	0.6968	0.3021	0.2497	0.058
Mof_H 	H 	0.8757	0.546	0.2061	0.06
Mof_H 	H 	0.7636	0.595	0.2952	0.056
Mof_H 	H 	0.8166	0.5164	0.3582	0.056
Mof_C 	C 	0.8317	0.629	0.2761	-0.081
Mof_C 	C 	0.771	0.3747	0.3291	0.075
Mof_C 	C 	0.6373	0.457	0.1639	-0.089
Mof_C 	C 	0.8416	0.3542	0.3952	0.1
Mof_C 	C 	0.7429	0.4429	0.2762	0.093
Mof_C 	C 	0.8075	0.5089	0.223	-0.076
Mof_C 	C 	0.9625	0.6622	0.2493	0.038
Mof_C 	C 	0.9129	0.7132	0.2507	0.038
Mof_C 	C 	0.744	0.2902	0.3536	0.001
Mof_C 	C 	0.7745	0.5245	0.25	0.085
Mof_C 	C 	0.9932	0.7135	0.2483	-0.039
Mof_C 	C 	0.6667	0.4667	0.2238	0.093
Mof_C 	C 	0.5456	0.4419	0.1709	0.075
Mof_C 	C 	0.8073	0.4394	0.3621	-0.064
Mof_C 	C 	0.5738	0.4501	0.2289	-0.068
Mof_C 	C 	0.7075	0.3783	0.2448	-0.085
Mof_C 	C 	0.7212	0.3449	0.2711	-0.068
Mof_C 	C 	0.9652	0.7449	0.2517	-0.039
Mof_C 	C 	0.8529	0.5556	0.2239	-0.081
Mof_C 	C 	0.6335	0.4627	0.2552	-0.085
Mof_C 	C 	0.7859	0.5845	0.277	-0.076
Mof_C 	C 	0.7931	0.4734	0.3361	-0.089
Mof_C 	C 	0.7774	0.2737	0.3907	-0.004
Mof_C 	C 	0.459	0.4464	0.1048	0.1
Mof_C 	C 	0.8645	0.6145	0.25	0.096
Mof_C 	C 	0.4366	0.3904	0.1464	0.001
Mof_C 	C 	0.383	0.3867	0.1093	-0.004
Mof_C 	C 	0.5773	0.4452	0.1379	-0.065
Mof_N 	N 	0.7275	0.4775	0.25	-0.155
Mof_N 	N 	0.8385	0.3142	0.4149	-0.179
Mof_N 	N 	0.3993	0.4236	0.0851	-0.179
Mof_N 	N 	0.9119	0.6619	0.25	-0.136
Mof_N 	N 	0.7859	0.3402	0.3585	-0.141
Mof_N 	N 	0.4817	0.4274	0.1415	-0.141
Mof_H 	H 	0.6686	0.405	0.7002	0.056
Mof_H 	H 	0.5095	0.5281	0.6222	-0.019
Mof_H 	H 	0.6998	0.5416	0.6834	0.056
Mof_H 	H 	0.6182	0.5605	0.6589	0.041
Mof_H 	H 	0.8818	0.5407	0.9423	0.039
Mof_H 	H 	0.8314	0.5316	0.7364	0.055
Mof_H 	H 	0.0202	0.7587	0.1565	0.012
Mof_H 	H 	0.9305	0.7292	0.0593	0.022
Mof_H 	H 	0.4798	0.6363	0.7385	0.013
Mof_H 	H 	0.9905	0.6127	0.0186	-0.018
Mof_H 	H 	0.8947	0.6979	0.9476	0.057
Mof_H 	H 	0.8002	0.4836	0.8418	0.057
Mof_H 	H 	0.6703	0.3304	0.6243	0.06
Mof_H 	H 	0.6053	0.5529	0.8032	0.058
Mof_H 	H 	0.8163	0.6423	0.8474	0.066
Mof_H 	H 	0.5695	0.6288	0.7987	0.021
Mof_H 	H 	0.6837	0.5311	0.826	0.066
Mof_H 	H 	0.8297	0.454	0.6601	0.06
Mof_C 	C 	0.9538	0.7098	0.0634	-0.001
Mof_C 	C 	0.8003	0.3378	0.5871	0.038
Mof_C 	C 	0.6237	0.5499	0.7788	-0.068
Mof_C 	C 	0.7797	0.2865	0.5348	-0.038
Mof_C 	C 	0.75	0.4755	0.7255	0.085
Mof_C 	C 	0.9874	0.6458	0.041	0.098
Mof_C 	C 	0.7014	0.4155	0.6925	-0.076
Mof_C 	C 	0.8679	0.5606	0.9227	-0.063
Mof_C 	C 	0.6803	0.543	0.7069	-0.089
Mof_C 	C 	0.7986	0.4911	0.7141	-0.076
Mof_C 	C 	0.6997	0.2868	0.5375	0.038
Mof_C 	C 	0.75	0.3855	0.6355	0.096
Mof_C 	C 	0.8	0.5571	0.8333	0.094
Mof_C 	C 	0.8963	0.6253	0.9544	0.072
Mof_C 	C 	0.7973	0.4444	0.6683	-0.082
Mof_C 	C 	0.8763	0.6551	0.9262	-0.066
Mof_C 	C 	0.7203	0.2551	0.5068	-0.038
Mof_C 	C 	0.6037	0.5581	0.729	0.075
Mof_C 	C 	0.7027	0.371	0.6471	-0.082
Mof_C 	C 	0.8197	0.5266	0.8627	-0.091
Mof_C 	C 	0.8292	0.6217	0.8665	-0.087
Mof_C 	C 	0.4963	0.6133	0.7226	-0.004
Mof_C 	C 	0.6708	0.5373	0.7925	-0.085
Mof_C 	C 	0.6321	0.5548	0.6927	-0.064
Mof_C 	C 	0.5126	0.5536	0.6584	0.1
Mof_C 	C 	0.5462	0.6096	0.756	0.001
Mof_C 	C 	0.0037	0.7263	0.117	-0.001
Mof_C 	C 	0.7	0.5333	0.7571	0.093
Mof_N 	N 	0.0243	0.6858	0.1007	-0.178
Mof_N 	N 	0.75	0.5225	0.7725	-0.156
Mof_N 	N 	0.5543	0.5726	0.7141	-0.141
Mof_N 	N 	0.75	0.3381	0.5881	-0.136
Mof_N 	N 	0.4757	0.5764	0.6615	-0.179
Mof_N 	N 	0.9457	0.6598	0.0183	-0.139
Mof_H 	H 	0.8577	0.174	0.7051	0.067
Mof_H 	H 	0.8637	0.8435	0.6022	0.013
Mof_H 	H 	0.9684	0.2998	0.7048	0.052
Mof_H 	H 	0.0164	0.3166	0.8582	0.06
Mof_H 	H 	0.1696	0.3399	0.7939	0.06
Mof_H 	H 	0.9471	0.0524	0.7503	0.059
Mof_H 	H 	0.095	0.2636	0.7952	0.055
Mof_H 	H 	0.046	0.3757	0.7061	0.061
Mof_H 	H 	0.7413	0.2615	0.8978	0.013
Mof_H 	H 	0.9689	0.1526	0.7949	0.065
Mof_H 	H 	0.7708	0.2013	0.8301	0.021
Mof_H 	H 	0.9395	0.0577	0.5984	0.041
Mof_H 	H 	0.9719	0.9814	0.5941	-0.02
Mof_H 	H 	0.8712	0.9407	0.6699	0.021
Mof_H 	H 	0.8021	0.1968	0.7497	0.057
Mof_H 	H 	0.9593	0.3411	0.9016	0.038
Mof_H 	H 	0.8873	0.3778	0.9059	-0.019
Mof_H 	H 	0.9584	0.1582	0.6418	0.055
Mof_C 	C 	0.2449	0.4652	0.7517	-0.038
Mof_C 	C 	0.957	0.1373	0.6639	-0.088
Mof_C 	C 	0.9419	0.0456	0.6709	0.077
Mof_C 	C 	0.0245	0.2745	0.75	0.085
Mof_C 	C 	0.1145	0.3645	0.75	0.098
Mof_C 	C 	0.0845	0.2859	0.777	-0.075
Mof_C 	C 	0.8449	0.2212	0.7711	-0.065
Mof_C 	C 	0.8542	0.3416	0.8952	0.1
Mof_C 	C 	0.1622	0.4625	0.7493	0.038
Mof_C 	C 	0.129	0.3317	0.7761	-0.083
Mof_C 	C 	0.0556	0.3529	0.7239	-0.085
Mof_C 	C 	0.9627	0.1335	0.7552	-0.085
Mof_C 	C 	0.2135	0.4932	0.7483	-0.038
Mof_C 	C 	0.9667	0.1667	0.7238	0.091
Mof_C 	C 	0.2132	0.4129	0.7507	0.038
Mof_C 	C 	0.9394	0.3073	0.8621	-0.06
Mof_C 	C 	0.8867	0.883	0.6093	-0.004
Mof_C 	C 	0.8747	0.271	0.8291	0.073
Mof_C 	C 	0.9734	0.2931	0.8361	-0.097
Mof_C 	C 	0.9429	0.2429	0.7762	0.095
Mof_C 	C 	0.7902	0.244	0.8536	0.001
Mof_C 	C 	0.8904	0.9366	0.6464	0.001
Mof_C 	C 	0.9501	0.0738	0.7289	-0.069
Mof_C 	C 	0.9464	0.959	0.6048	0.1
Mof_C 	C 	0.0089	0.3075	0.723	-0.07
Mof_C 	C 	0.8783	0.2075	0.7448	-0.088
Mof_C 	C 	0.7737	0.2774	0.8907	-0.004
Mof_C 	C 	0.9452	0.0773	0.6379	-0.066
Mof_N 	N 	0.1619	0.4119	0.75	-0.136
Mof_N 	N 	0.9775	0.2275	0.75	-0.157
Mof_N 	N 	0.9274	0.9817	0.6415	-0.142
Mof_N 	N 	0.8142	0.3385	0.9149	-0.179
Mof_N 	N 	0.8402	0.2859	0.8585	-0.141
Mof_N 	N 	0.9236	0.8993	0.5851	-0.179
Mof_H 	H 	0.7949	0.6526	0.9689	0.065
Mof_H 	H 	0.8978	0.7615	0.7413	0.013
Mof_H 	H 	0.9016	0.8411	0.9593	0.038
Mof_H 	H 	0.7048	0.7998	0.9684	0.053
Mof_H 	H 	0.6418	0.6582	0.9584	0.056
Mof_H 	H 	0.6022	0.3435	0.8637	0.013
Mof_H 	H 	0.7939	0.8399	0.1696	0.06
Mof_H 	H 	0.6699	0.4407	0.8712	0.021
Mof_H 	H 	0.8301	0.7013	0.7708	0.021
Mof_H 	H 	0.9059	0.8778	0.8873	-0.02
Mof_H 	H 	0.5941	0.4814	0.9719	-0.02
Mof_H 	H 	0.7497	0.6968	0.8021	0.057
Mof_H 	H 	0.5984	0.5577	0.9395	0.04
Mof_H 	H 	0.7051	0.674	0.8577	0.067
Mof_H 	H 	0.8582	0.8166	0.0164	0.06
Mof_H 	H 	0.7061	0.8757	0.046	0.061
Mof_H 	H 	0.7503	0.5524	0.9471	0.058
Mof_H 	H 	0.7952	0.7636	0.095	0.056
Mof_C 	C 	0.7448	0.7075	0.8783	-0.088
Mof_C 	C 	0.6464	0.4366	0.8904	0.001
Mof_C 	C 	0.75	0.8645	0.1145	0.098
Mof_C 	C 	0.7762	0.7429	0.9429	0.095
Mof_C 	C 	0.8952	0.8416	0.8542	0.1
Mof_C 	C 	0.8907	0.7774	0.7737	-0.004
Mof_C 	C 	0.8291	0.771	0.8747	0.073
Mof_C 	C 	0.75	0.7745	0.0245	0.085
Mof_C 	C 	0.7552	0.6335	0.9627	-0.086
Mof_C 	C 	0.7507	0.9129	0.2132	0.038
Mof_C 	C 	0.6048	0.459	0.9464	0.1
Mof_C 	C 	0.7289	0.5738	0.9501	-0.068
Mof_C 	C 	0.7517	0.9652	0.2449	-0.039
Mof_C 	C 	0.6093	0.383	0.8867	-0.004
Mof_C 	C 	0.7761	0.8317	0.129	-0.083
Mof_C 	C 	0.7711	0.7212	0.8449	-0.066
Mof_C 	C 	0.777	0.7859	0.0845	-0.075
Mof_C 	C 	0.6639	0.6373	0.957	-0.089
Mof_C 	C 	0.8361	0.7931	0.9734	-0.096
Mof_C 	C 	0.8536	0.744	0.7902	0.001
Mof_C 	C 	0.8621	0.8073	0.9394	-0.06
Mof_C 	C 	0.7483	0.9932	0.2135	-0.039
Mof_C 	C 	0.6709	0.5456	0.9419	0.075
Mof_C 	C 	0.7238	0.6667	0.9667	0.092
Mof_C 	C 	0.6379	0.5773	0.9452	-0.065
Mof_C 	C 	0.7239	0.8529	0.0556	-0.084
Mof_C 	C 	0.723	0.8075	0.0089	-0.071
Mof_C 	C 	0.7493	0.9625	0.1622	0.038
Mof_N 	N 	0.8585	0.7859	0.8402	-0.141
Mof_N 	N 	0.9149	0.8385	0.8142	-0.179
Mof_N 	N 	0.5851	0.3993	0.9236	-0.179
Mof_N 	N 	0.75	0.7275	0.9775	-0.157
Mof_N 	N 	0.75	0.9119	0.1619	-0.136
Mof_N 	N 	0.6415	0.4817	0.9274	-0.141
_end
