data_functionalizedCrystal
_audit_creation_method	'EQeq! by Chris Wilmer'
_symmetry_space_group_name_H-M	'P1'
_symmetry_Int_Tables_number	1
_symmetry_cell_setting	triclinic
loop_
_symmetry_equiv_pos_as_xyz
  x,y,z
_cell_length_a	12.4561
_cell_length_b	12.5595
_cell_length_c	16.592
_cell_angle_alpha	83.2753
_cell_angle_beta	76.3411
_cell_angle_gamma	60.2719
loop_
_atom_site_label
_atom_site_type_symbol
_atom_site_fract_x
_atom_site_fract_y
_atom_site_fract_z
_atom_site_charge
Mof_La	La	0.57639	0.90618	0.59998	2.295
Mof_La	La	0.51743	0.90618	0.90002	2.264
Mof_La	La	0.42361	0.09382	0.40002	2.295
Mof_La	La	0.48257	0.09382	0.09998	2.264
Mof_H 	H 	0.9491	0.7946	0.605	0.006
Mof_H 	H 	0.1408	0.7856	0.5883	0.067
Mof_H 	H 	0.9102	0.7862	0.8514	0.028
Mof_H 	H 	0.0679	0.0978	0.5424	0.013
Mof_H 	H 	0.8855	0.1	0.6105	0.072
Mof_H 	H 	0.161	0.0936	0.7578	0.049
Mof_H 	H 	0.47	0.3326	0.4418	0.006
Mof_H 	H 	0.6194	0.2746	0.6417	0.027
Mof_H 	H 	0.4024	0.5338	0.3684	0.059
Mof_H 	H 	0.2563	0.7946	0.895	-0.002
Mof_H 	H 	0.0736	0.7856	0.9117	0.074
Mof_H 	H 	0.3036	0.7862	0.6486	0.023
Mof_H 	H 	0.8343	0.0978	0.9576	0.015
Mof_H 	H 	0.0145	0.1	0.8895	0.074
Mof_H 	H 	0.7454	0.0936	0.7422	0.048
Mof_H 	H 	0.1974	0.3326	0.0582	0.01
Mof_H 	H 	0.106	0.2746	0.8583	0.027
Mof_H 	H 	0.0638	0.5338	0.1316	0.06
Mof_H 	H 	0.0509	0.2054	0.395	0.006
Mof_H 	H 	0.8592	0.2144	0.4117	0.067
Mof_H 	H 	0.0898	0.2138	0.1486	0.028
Mof_H 	H 	0.9321	0.9022	0.4576	0.013
Mof_H 	H 	0.1145	0.9	0.3895	0.072
Mof_H 	H 	0.839	0.9064	0.2422	0.049
Mof_H 	H 	0.53	0.6674	0.5582	0.006
Mof_H 	H 	0.3806	0.7254	0.3583	0.027
Mof_H 	H 	0.5976	0.4662	0.6316	0.059
Mof_H 	H 	0.7437	0.2054	0.105	-0.002
Mof_H 	H 	0.9264	0.2144	0.0883	0.074
Mof_H 	H 	0.6964	0.2138	0.3514	0.023
Mof_H 	H 	0.1657	0.9022	0.0424	0.015
Mof_H 	H 	0.9855	0.9	0.1105	0.074
Mof_H 	H 	0.2546	0.9064	0.2578	0.048
Mof_H 	H 	0.8026	0.6674	0.9418	0.01
Mof_H 	H 	0.894	0.7254	0.1417	0.027
Mof_H 	H 	0.9362	0.4662	0.8684	0.06
Mof_C 	C 	0.7835	0.8032	0.7403	0.536
Mof_C 	C 	0.9111	0.7916	0.7311	-0.174
Mof_C 	C 	0.9807	0.7916	0.6513	0.063
Mof_C 	C 	0.094	0.7876	0.6414	-0.109
Mof_C 	C 	0.9562	0.7878	0.7986	0.004
Mof_C 	C 	0.141	0.7862	0.7105	0.01
Mof_C 	C 	0.2558	0.0858	0.5974	0.493
Mof_C 	C 	0.1338	0.0944	0.645	-0.151
Mof_C 	C 	0.0488	0.0972	0.6001	0.051
Mof_C 	C 	0.9401	0.0992	0.6406	-0.113
Mof_C 	C 	0.1049	0.0956	0.7286	-0.005
Mof_C 	C 	0.9088	0.0998	0.7274	0.023
Mof_C 	C 	0.5563	0.1592	0.5538	0.445
Mof_C 	C 	0.5442	0.2854	0.5425	-0.143
Mof_C 	C 	0.4953	0.36	0.4797	0.005
Mof_C 	C 	0.4821	0.4786	0.4711	0.01
Mof_C 	C 	0.584	0.3264	0.5994	0.038
Mof_C 	C 	0.4287	0.5596	0.4066	-0.102
Mof_C 	C 	0.4133	0.8032	0.7597	0.542
Mof_C 	C 	0.2973	0.7916	0.7689	-0.188
Mof_C 	C 	0.2277	0.7916	0.8487	0.085
Mof_C 	C 	0.1184	0.7876	0.8586	-0.133
Mof_C 	C 	0.256	0.7878	0.7014	0.027
Mof_C 	C 	0.0728	0.7862	0.7895	0.033
Mof_C 	C 	0.6584	0.0858	0.9026	0.491
Mof_C 	C 	0.7718	0.0944	0.855	-0.15
Mof_C 	C 	0.854	0.0972	0.8999	0.055
Mof_C 	C 	0.9607	0.0992	0.8594	-0.117
Mof_C 	C 	0.7995	0.0956	0.7714	-0.004
Mof_C 	C 	0.9914	0.0998	0.7726	0.026
Mof_C 	C 	0.2845	0.1592	0.9462	0.439
Mof_C 	C 	0.1704	0.2854	0.9575	-0.13
Mof_C 	C 	0.1447	0.36	0.0203	-0.012
Mof_C 	C 	0.0393	0.4786	0.0289	0.013
Mof_C 	C 	0.0896	0.3264	0.9006	0.038
Mof_C 	C 	0.0117	0.5596	0.0934	-0.106
Mof_C 	C 	0.2165	0.1968	0.2597	0.536
Mof_C 	C 	0.0889	0.2084	0.2689	-0.174
Mof_C 	C 	0.0193	0.2084	0.3487	0.063
Mof_C 	C 	0.906	0.2124	0.3586	-0.109
Mof_C 	C 	0.0438	0.2122	0.2014	0.004
Mof_C 	C 	0.859	0.2138	0.2895	0.01
Mof_C 	C 	0.7442	0.9142	0.4026	0.493
Mof_C 	C 	0.8662	0.9056	0.355	-0.151
Mof_C 	C 	0.9512	0.9028	0.3999	0.051
Mof_C 	C 	0.0599	0.9008	0.3594	-0.113
Mof_C 	C 	0.8951	0.9044	0.2714	-0.005
Mof_C 	C 	0.0912	0.9002	0.2726	0.023
Mof_C 	C 	0.4437	0.8408	0.4462	0.445
Mof_C 	C 	0.4558	0.7146	0.4575	-0.143
Mof_C 	C 	0.5047	0.64	0.5203	0.005
Mof_C 	C 	0.5179	0.5214	0.5289	0.01
Mof_C 	C 	0.416	0.6736	0.4006	0.038
Mof_C 	C 	0.5713	0.4404	0.5934	-0.102
Mof_C 	C 	0.5867	0.1968	0.2403	0.542
Mof_C 	C 	0.7027	0.2084	0.2311	-0.188
Mof_C 	C 	0.7723	0.2084	0.1513	0.085
Mof_C 	C 	0.8816	0.2124	0.1414	-0.133
Mof_C 	C 	0.744	0.2122	0.2986	0.027
Mof_C 	C 	0.9272	0.2138	0.2105	0.033
Mof_C 	C 	0.3416	0.9142	0.0974	0.491
Mof_C 	C 	0.2282	0.9056	0.145	-0.15
Mof_C 	C 	0.146	0.9028	0.1001	0.055
Mof_C 	C 	0.0393	0.9008	0.1406	-0.117
Mof_C 	C 	0.2005	0.9044	0.2286	-0.004
Mof_C 	C 	0.0086	0.9002	0.2274	0.026
Mof_C 	C 	0.7155	0.8408	0.0538	0.439
Mof_C 	C 	0.8296	0.7146	0.0425	-0.13
Mof_C 	C 	0.8553	0.64	0.9797	-0.012
Mof_C 	C 	0.9607	0.5214	0.9711	0.013
Mof_C 	C 	0.9104	0.6736	0.0994	0.038
Mof_C 	C 	0.9883	0.4404	0.9066	-0.106
Mof_O 	O 	0.7413	0.8256	0.676	-0.591
Mof_O 	O 	0.7271	0.7892	0.8102	-0.564
Mof_O 	O 	0.3443	0.0484	0.6351	-0.518
Mof_O 	O 	0.2623	0.1164	0.5234	-0.565
Mof_O 	O 	0.6093	0.092	0.6085	-0.458
Mof_O 	O 	0.51184	0.12612	0.5066	-0.628
Mof_O 	O 	0.4331	0.8256	0.824	-0.591
Mof_O 	O 	0.4837	0.7892	0.6898	-0.566
Mof_O 	O 	0.6073	0.0484	0.8649	-0.512
Mof_O 	O 	0.6213	0.1164	0.9766	-0.556
Mof_O 	O 	0.2987	0.092	0.8915	-0.452
Mof_O 	O 	0.36204	0.12612	0.9934	-0.617
Mof_O 	O 	0.2587	0.1744	0.324	-0.591
Mof_O 	O 	0.2729	0.2108	0.1898	-0.564
Mof_O 	O 	0.6557	0.9516	0.3649	-0.518
Mof_O 	O 	0.7377	0.8836	0.4766	-0.565
Mof_O 	O 	0.3907	0.908	0.3915	-0.458
Mof_O 	O 	0.48816	0.87388	0.4934	-0.628
Mof_O 	O 	0.5669	0.1744	0.176	-0.591
Mof_O 	O 	0.5163	0.2108	0.3102	-0.566
Mof_O 	O 	0.3927	0.9516	0.1351	-0.512
Mof_O 	O 	0.3787	0.8836	0.0234	-0.556
Mof_O 	O 	0.7013	0.908	0.1085	-0.452
Mof_O 	O 	0.63796	0.87388	0.0066	-0.617
Mof_O 	O 	0.4932	0.0136	0.75	-0.387
Mof_O 	O 	0.5068	0.9864	0.25	-0.387
_end
