data_functionalizedCrystal
_audit_creation_method	'EQeq! by Chris Wilmer'
_symmetry_space_group_name_H-M	'P1'
_symmetry_Int_Tables_number	1
_symmetry_cell_setting	triclinic
loop_
_symmetry_equiv_pos_as_xyz
  x,y,z
_cell_length_a	12.988
_cell_length_b	13.722
_cell_length_c	19.73
_cell_angle_alpha	90
_cell_angle_beta	90
_cell_angle_gamma	90
loop_
_atom_site_label
_atom_site_type_symbol
_atom_site_fract_x
_atom_site_fract_y
_atom_site_fract_z
_atom_site_charge
Mof_Ni	Ni	0.70699	0.39774	0.02599	1.108
Mof_Ni	Ni	0.96377	7.17899e-33	0.5	1.095
Mof_Ni	Ni	0.56086	0.024	0.38513	1.086
Mof_Ni	Ni	0.56086	0.524	0.11487	1.095
Mof_Ni	Ni	0.88594	0.79906	0.40224	1.095
Mof_Ni	Ni	0.70699	0.60226	0.97401	1.121
Mof_Ni	Ni	0.70699	0.89774	0.47401	1.119
Mof_Ni	Ni	0.70699	0.10226	0.52599	1.11
Mof_Ni	Ni	0.96377	0.5	-0	1.097
Mof_Ni	Ni	0.56086	0.976	0.61487	1.104
Mof_Ni	Ni	0.88594	0.20094	0.59776	1.095
Mof_Ni	Ni	0.56086	0.476	0.88513	1.095
Mof_Ni	Ni	0.88594	0.70094	0.90224	1.096
Mof_Ni	Ni	0.88594	0.29906	0.09776	1.094
Mof_H 	H 	0.1803	0.299	0.6362	0.053
Mof_H 	H 	0.6564	0.859	0.1935	0.057
Mof_H 	H 	0.92	0.2974	0.2486	0.003
Mof_H 	H 	0.8828	0.0824	0.1273	-0.008
Mof_H 	H 	0.3502	0.1703	0.1651	0.068
Mof_H 	H 	0.9039	0.0278	0.7875	0.003
Mof_H 	H 	0.1803	0.799	0.8638	0.049
Mof_H 	H 	0.9039	0.5278	0.7125	0.051
Mof_H 	H 	0.1803	0.201	0.1362	0.06
Mof_H 	H 	0.8718	0.6529	0.0203	0.139
Mof_H 	H 	0.5891	0.9515	0.7635	0.03
Mof_H 	H 	0.8718	0.1529	0.4797	0.156
Mof_H 	H 	0.8718	0.3471	0.9797	0.174
Mof_H 	H 	0.3502	0.3297	0.6651	0.081
Mof_H 	H 	0.546	0.8551	0.0017	-0.018
Mof_H 	H 	0.6128	0.2624	0.8826	0.031
Mof_H 	H 	0.6128	0.7376	0.1174	0.029
Mof_H 	H 	0.6128	0.2376	0.3826	0.03
Mof_H 	H 	0.9337	0.305	0.838	0.048
Mof_H 	H 	0.6564	0.141	0.8065	0.047
Mof_H 	H 	0.6472	0.1596	0.1589	0.048
Mof_H 	H 	0.7528	0.053	0.4053	0.174
Mof_H 	H 	0.546	0.1449	0.9983	0.048
Mof_H 	H 	0.8718	0.8471	0.5203	0.155
Mof_H 	H 	0.7528	0.447	0.9053	0.176
Mof_H 	H 	0.2757	0.389	0.9937	0.066
Mof_H 	H 	0.7528	0.553	0.0947	0.177
Mof_H 	H 	0.2757	0.611	0.0063	-0.001
Mof_H 	H 	0.546	0.6449	0.5017	0.026
Mof_H 	H 	0.7528	0.947	0.5947	0.179
Mof_H 	H 	0.6564	0.641	0.6935	0.051
Mof_H 	H 	0.8138	0.5	0.5	0.018
Mof_H 	H 	0.6472	0.3404	0.6589	0.049
Mof_H 	H 	0.9337	0.805	0.662	0.036
Mof_H 	H 	0.4553	0.5	0.5	0.088
Mof_H 	H 	0.4553	0	-0	0.101
Mof_H 	H 	0.5891	0.5485	0.2635	0.02
Mof_H 	H 	0.546	0.3551	0.4983	0.026
Mof_H 	H 	0.9039	0.9722	0.2125	0.105
Mof_H 	H 	0.2757	0.111	0.4937	0.025
Mof_H 	H 	0.3502	0.6703	0.3349	0.079
Mof_H 	H 	0.8828	0.9176	0.8727	0.042
Mof_H 	H 	0.92	0.7026	0.7514	0.018
Mof_H 	H 	0.92	0.7974	0.2514	0.011
Mof_H 	H 	0.2757	0.889	0.5063	0.037
Mof_H 	H 	0.6472	0.6596	0.3411	0.051
Mof_H 	H 	0.6128	0.7624	0.6174	0.03
Mof_H 	H 	0.9039	0.4722	0.2875	0.051
Mof_H 	H 	0.3502	0.8297	0.8349	0.092
Mof_H 	H 	0.6472	0.8404	0.8411	0.053
Mof_H 	H 	0.9337	0.195	0.338	0.059
Mof_H 	H 	0.9337	0.695	0.162	0.047
Mof_H 	H 	0.6564	0.359	0.3065	0.051
Mof_H 	H 	0.5891	0.0485	0.2365	0.012
Mof_H 	H 	0.4817	0.2517	0.1096	0.023
Mof_H 	H 	0.4817	0.7483	0.8904	0.007
Mof_H 	H 	0.8828	0.4176	0.6273	0.016
Mof_H 	H 	0.4817	0.2483	0.6096	0.013
Mof_H 	H 	0.4817	0.7517	0.3904	0.016
Mof_H 	H 	0.5891	0.4515	0.7365	0.021
Mof_H 	H 	0.8138	0	-0	0.022
Mof_H 	H 	0.1803	0.701	0.3638	0.056
Mof_H 	H 	0.8828	0.5824	0.3727	0.016
Mof_H 	H 	0.92	0.2026	0.7486	0.012
Mof_C 	C 	0.6449	0.2043	0.7914	-0.027
Mof_C 	C 	0.6054	0.8889	0.749	0.028
Mof_C 	C 	0.9217	0.5705	0.2129	-0.068
Mof_C 	C 	0.335	0.2144	0.1307	-0.09
Mof_C 	C 	0.4769	0.3754	0.0084	0.376
Mof_C 	C 	0.7423	0.1842	0.0099	0.343
Mof_C 	C 	0.4136	0.2617	0.0969	0.03
Mof_C 	C 	0.5817	0.5862	0.4999	0.061
Mof_C 	C 	0.6374	0.8221	0.7961	-0.035
Mof_C 	C 	0.0992	0.1732	0.5492	0.394
Mof_C 	C 	0.2331	0.7673	0.8867	0.077
Mof_C 	C 	0.7423	0.6842	0.4901	0.377
Mof_C 	C 	0.6054	0.3889	0.751	0.026
Mof_C 	C 	0.3899	0.6749	0.9569	-0.195
Mof_C 	C 	0.688	0.0879	0.0029	-0.123
Mof_C 	C 	0.6374	0.3221	0.7039	-0.036
Mof_C 	C 	0.9065	0.4614	0.722	-0.06
Mof_C 	C 	0.2098	0.7019	0.9382	-0.134
Mof_C 	C 	0.9337	0.9966	0.653	0.412
Mof_C 	C 	0.4769	0.8754	0.4916	0.413
Mof_C 	C 	0.6172	0.7774	0.6633	0.021
Mof_C 	C 	0.9337	0.4966	0.847	0.357
Mof_C 	C 	0.9337	0.5034	0.153	0.359
Mof_C 	C 	0.6719	0.1487	0.6713	0.417
Mof_C 	C 	0.6374	0.6779	0.2961	-0.041
Mof_C 	C 	0.6054	0.6111	0.249	0.03
Mof_C 	C 	0.3899	0.3251	0.0431	-0.13
Mof_C 	C 	0.6449	0.2957	0.2914	-0.03
Mof_C 	C 	0.9217	0.9295	0.7129	-0.115
Mof_C 	C 	0.9156	0.7307	0.2591	0.033
Mof_C 	C 	0.655	0.7272	0.7759	-0.083
Mof_C 	C 	0.2906	0.3442	0.0277	0.023
Mof_C 	C 	0.3899	0.8251	0.4569	-0.158
Mof_C 	C 	0.9065	0.9614	0.778	0.034
Mof_C 	C 	0.9337	0.0034	0.347	0.304
Mof_C 	C 	0.655	0.7728	0.2759	-0.078
Mof_C 	C 	0.8952	0.1058	0.1708	0.079
Mof_C 	C 	0.9065	0.5386	0.278	-0.059
Mof_C 	C 	0.9249	0.831	0.7051	-0.026
Mof_C 	C 	0.6449	0.7043	0.7086	-0.029
Mof_C 	C 	0.2098	0.2019	0.5618	-0.115
Mof_C 	C 	0.6374	0.1779	0.2039	-0.04
Mof_C 	C 	0.0992	0.6732	0.9508	0.403
Mof_C 	C 	0.4136	0.2383	0.5969	0.062
Mof_C 	C 	0.2098	0.7981	0.4382	-0.105
Mof_C 	C 	0.2906	0.8442	0.4723	0.082
Mof_C 	C 	0.7423	0.3158	0.5099	0.377
Mof_C 	C 	0.4136	0.7617	0.4031	0.058
Mof_C 	C 	0.3899	0.1749	0.5431	-0.169
Mof_C 	C 	0.2331	0.7327	0.3867	0.049
Mof_C 	C 	0.5817	0.4138	0.5001	0.061
Mof_C 	C 	0.655	0.2728	0.2241	-0.083
Mof_C 	C 	0.6719	0.8513	0.3287	0.411
Mof_C 	C 	0.2906	0.6558	0.9723	0.143
Mof_C 	C 	0.6449	0.7957	0.2086	-0.033
Mof_C 	C 	0.0992	0.3268	0.0492	0.381
Mof_C 	C 	0.6172	0.2226	0.3367	0.022
Mof_C 	C 	0.9156	0.2693	0.7409	0.033
Mof_C 	C 	0.8952	0.3942	0.6708	0.032
Mof_C 	C 	0.688	0.4121	0.5029	-0.139
Mof_C 	C 	0.8952	0.6058	0.3292	0.032
Mof_C 	C 	0.9217	0.0705	0.2871	-0.017
Mof_C 	C 	0.9156	0.7693	0.7591	0.012
Mof_C 	C 	0.6719	0.3513	0.1713	0.414
Mof_C 	C 	0.6172	0.7226	0.1633	0.025
Mof_C 	C 	0.4769	0.6246	0.9916	0.45
Mof_C 	C 	0.2331	0.2673	0.6133	0.053
Mof_C 	C 	0.655	0.2272	0.7241	-0.086
Mof_C 	C 	0.6719	0.6487	0.8287	0.414
Mof_C 	C 	0.4136	0.7383	0.9031	0.09
Mof_C 	C 	0.5269	0	-0	-0.211
Mof_C 	C 	0.9156	0.2307	0.2409	0.054
Mof_C 	C 	0.2331	0.2327	0.1133	0.025
Mof_C 	C 	0.335	0.7856	0.8693	-0.136
Mof_C 	C 	0.7423	0.8158	0.9901	0.4
Mof_C 	C 	0.688	0.9121	0.9971	-0.121
Mof_C 	C 	0.5269	0.5	0.5	-0.132
Mof_C 	C 	0.9249	0.669	0.2051	-0.061
Mof_C 	C 	0.9249	0.331	0.7949	-0.062
Mof_C 	C 	0.6054	0.1111	0.251	0.028
Mof_C 	C 	0.4769	0.1246	0.5084	0.414
Mof_C 	C 	0.7422	0	-0	0.014
Mof_C 	C 	0.8952	0.8942	0.8292	-0.014
Mof_C 	C 	0.0992	0.8268	0.4508	0.391
Mof_C 	C 	0.9065	0.0386	0.222	-0.158
Mof_C 	C 	0.335	0.7144	0.3693	-0.11
Mof_C 	C 	0.688	0.5879	0.4971	-0.139
Mof_C 	C 	0.7422	0.5	0.5	0.07
Mof_C 	C 	0.335	0.2856	0.6307	-0.117
Mof_C 	C 	0.6172	0.2774	0.8367	0.02
Mof_C 	C 	0.9249	0.169	0.2949	-0.099
Mof_C 	C 	0.2098	0.2981	0.0618	-0.085
Mof_C 	C 	0.9217	0.4295	0.7871	-0.066
Mof_C 	C 	0.5817	0.9138	0.9999	0.165
Mof_C 	C 	0.5817	0.0862	0.0001	0.041
Mof_C 	C 	0.2906	0.1558	0.5277	0.087
Mof_N 	N 	0.5968	0.8679	0.6833	-0.212
Mof_N 	N 	0.5968	0.6321	0.1833	-0.215
Mof_N 	N 	0.9008	0.2004	0.17904	-0.229
Mof_N 	N 	0.5968	0.1321	0.3167	-0.218
Mof_N 	N 	0.9008	0.7004	0.32096	-0.216
Mof_N 	N 	0.9008	0.2996	0.67904	-0.215
Mof_N 	N 	0.9008	0.7996	0.82096	-0.201
Mof_N 	N 	0.5968	0.3679	0.8167	-0.214
Mof_O 	O 	0.5508	0.5951	0.95509	-0.544
Mof_O 	O 	0.6233	0.9272	0.31867	-0.437
Mof_O 	O 	0.9201	0.4147	0.16287	-0.44
Mof_O 	O 	0.692	0.2581	0.9914	-0.395
Mof_O 	O 	0.0328	0.7306	0.92834	-0.338
Mof_O 	O 	0.8619	0.61	0.98109	-0.651
Mof_O 	O 	0.4719	0.1138	0.44562	-0.444
Mof_O 	O 	0.7251	0.1694	0.62104	-0.529
Mof_O 	O 	0.6233	0.0728	0.68133	-0.468
Mof_O 	O 	0.4719	0.6138	0.05438	-0.457
Mof_O 	O 	0.4719	0.8862	0.55438	-0.433
Mof_O 	O 	0.6233	0.5728	0.81867	-0.453
Mof_O 	O 	0.8299	0.3149	0.53621	-0.426
Mof_O 	O 	0.5508	0.9049	0.45509	-0.53
Mof_O 	O 	0.6954	0.46337	0.9354	-0.666
Mof_O 	O 	0.6233	0.4272	0.18133	-0.453
Mof_O 	O 	0.9201	0.9147	0.33713	-0.408
Mof_O 	O 	0.7251	0.3306	0.12104	-0.527
Mof_O 	O 	0.7251	0.8306	0.37896	-0.521
Mof_O 	O 	0.7251	0.6694	0.87896	-0.524
Mof_O 	O 	0.9545	0.5446	0.09839	-0.46
Mof_O 	O 	0.9545	0.0446	0.40161	-0.451
Mof_O 	O 	0.5508	0.0951	0.54491	-0.549
Mof_O 	O 	0.692	0.2419	0.4914	-0.422
Mof_O 	O 	0.6954	0.03663	0.4354	-0.684
Mof_O 	O 	0.8299	0.1851	0.03621	-0.423
Mof_O 	O 	0.0848	0.5965	0.98181	-0.333
Mof_O 	O 	0.5508	0.4049	0.04491	-0.536
Mof_O 	O 	0.0848	0.9035	0.48181	-0.329
Mof_O 	O 	0.8619	0.11	0.51891	-0.679
Mof_O 	O 	0.4719	0.3862	0.94562	-0.418
Mof_O 	O 	0.8619	0.89	0.48109	-0.663
Mof_O 	O 	0.9545	0.4554	0.90161	-0.452
Mof_O 	O 	0.9545	0.9554	0.59839	-0.46
Mof_O 	O 	0.8619	0.39	0.01891	-0.693
Mof_O 	O 	0.0848	0.0965	0.51819	-0.348
Mof_O 	O 	0.0328	0.2306	0.57166	-0.34
Mof_O 	O 	0.8299	0.8149	0.96379	-0.42
Mof_O 	O 	0.0848	0.4035	0.01819	-0.345
Mof_O 	O 	0.8299	0.6851	0.46379	-0.426
Mof_O 	O 	0.0328	0.7694	0.42834	-0.338
Mof_O 	O 	0.6954	0.96337	0.5646	-0.661
Mof_O 	O 	0.9201	0.5853	0.83713	-0.44
Mof_O 	O 	0.0328	0.2694	0.07166	-0.34
Mof_O 	O 	0.9201	0.0853	0.66287	-0.47
Mof_O 	O 	0.692	0.7581	0.5086	-0.422
Mof_O 	O 	0.6954	0.53663	0.0646	-0.678
Mof_O 	O 	0.692	0.7419	0.0086	-0.443
_end
