data_functionalizedCrystal
_audit_creation_method	'EQeq! by Chris Wilmer'
_symmetry_space_group_name_H-M	'P1'
_symmetry_Int_Tables_number	1
_symmetry_cell_setting	triclinic
loop_
_symmetry_equiv_pos_as_xyz
  x,y,z
_cell_length_a	16.673
_cell_length_b	9.5861
_cell_length_c	22.518
_cell_angle_alpha	90
_cell_angle_beta	103.956
_cell_angle_gamma	90
loop_
_atom_site_label
_atom_site_type_symbol
_atom_site_fract_x
_atom_site_fract_y
_atom_site_fract_z
_atom_site_charge
Mof_Ce	Ce	0.074	0.27212	0.18224	2.948
Mof_Ce	Ce	0.23681	0.76501	0.04563	3.168
Mof_Ce	Ce	0.33226	0.20132	0.12975	2.92
Mof_Ce	Ce	0.46739	0.2415	0.41552	3.155
Mof_S 	S 	0.1595	0.03367	0.10531	0.738
Mof_S 	S 	0.41057	0.8351	0.17018	0.913
Mof_S 	S 	0.01109	0.03416	0.25951	0.678
Mof_S 	S 	0.18159	0.50797	0.1142	0.876
Mof_S 	S 	0.37232	0.47437	0.01547	1.382
Mof_S 	S 	0.37821	0.98881	0.99786	1.306
Mof_S 	S 	0.91322	0.25056	0.07294	0.698
Mof_S 	S 	0.29804	0.29115	0.28031	1.012
Mof_O 	O 	0.0591	0.0184	0.21277	-0.485
Mof_O 	O 	0.9854	0.3393	0.07647	-0.481
Mof_O 	O 	0.1412	0.564	0.05371	-0.561
Mof_O 	O 	0.4055	0.756	0.22376	-0.419
Mof_O 	O 	0.9284	0.1703	0.13047	-0.452
Mof_O 	O 	0.4961	0.8788	0.17227	-0.685
Mof_O 	O 	0.3856	0.7492	0.11384	-0.836
Mof_O 	O 	0.2111	0.0625	0.06072	-0.649
Mof_O 	O 	0.8364	0.3338	0.06471	-0.438
Mof_O 	O 	0.1622	0.8816	0.11515	-0.559
Mof_O 	O 	0.0085	0.1871	0.26966	-0.465
Mof_O 	O 	0.3769	0.4156	0.95619	-0.758
Mof_O 	O 	0.2986	0.9144	0.98314	-0.76
Mof_O 	O 	0.8979	0.156	0.01964	-0.519
Mof_O 	O 	0.3067	0.5775	0.00494	-0.771
Mof_O 	O 	0.3552	0.9545	0.1638	-0.701
Mof_O 	O 	0.337	0.2041	0.24053	-0.71
Mof_O 	O 	0.3288	0.2416	0.34341	-0.645
Mof_O 	O 	0.1994	0.1078	0.1622	-0.657
Mof_O 	O 	0.2523	0.6017	0.13895	-0.588
Mof_O 	O 	0.0758	0.085	0.08541	-0.424
Mof_O 	O 	0.2075	0.276	0.26304	-0.612
Mof_O 	O 	0.0493	0.9598	0.31593	-0.417
Mof_O 	O 	0.3857	0.0694	0.94533	-0.744
Mof_O 	O 	0.1248	0.5047	0.15427	-0.567
Mof_O 	O 	0.9277	0.9745	0.23753	-0.439
Mof_O 	O 	0.2088	0.3641	0.1085	-0.681
Mof_O 	O 	0.4499	0.5357	0.0459	-0.879
Mof_O 	O 	0.3218	0.4352	0.2747	-0.422
Mof_O 	O 	0.3874	0.0694	0.0518	-0.832
Mof_O 	O 	0.4426	0.8779	0.0064	-0.813
Mof_O 	O 	0.3495	0.3638	0.052	-0.834
Mof_Ce	Ce	0.926	0.77212	0.31776	2.952
Mof_Ce	Ce	0.76319	0.26501	0.45437	3.173
Mof_Ce	Ce	0.66774	0.70132	0.37025	2.922
Mof_Ce	Ce	0.53261	0.7415	0.08448	3.157
Mof_S 	S 	0.8405	0.53367	0.39469	0.745
Mof_S 	S 	0.58943	0.3351	0.32982	0.914
Mof_S 	S 	0.98891	0.53416	0.24049	0.699
Mof_S 	S 	0.81841	0.00797	0.3858	0.881
Mof_S 	S 	0.62768	0.97437	0.48453	1.379
Mof_S 	S 	0.62179	0.48881	0.50214	1.3
Mof_S 	S 	0.08678	0.75056	0.42706	0.699
Mof_S 	S 	0.70196	0.79115	0.21969	1.013
Mof_O 	O 	0.9409	0.5184	0.28723	-0.485
Mof_O 	O 	0.0146	0.8393	0.42353	-0.484
Mof_O 	O 	0.8588	0.064	0.44629	-0.559
Mof_O 	O 	0.5945	0.256	0.27624	-0.419
Mof_O 	O 	0.0716	0.6703	0.36953	-0.458
Mof_O 	O 	0.5039	0.3788	0.32773	-0.685
Mof_O 	O 	0.6144	0.2492	0.38616	-0.836
Mof_O 	O 	0.7889	0.5625	0.43928	-0.648
Mof_O 	O 	0.1636	0.8338	0.43529	-0.439
Mof_O 	O 	0.8378	0.3816	0.38485	-0.563
Mof_O 	O 	0.9915	0.6871	0.23034	-0.466
Mof_O 	O 	0.6231	0.9156	0.54381	-0.759
Mof_O 	O 	0.7014	0.4144	0.51686	-0.762
Mof_O 	O 	0.1021	0.656	0.48036	-0.525
Mof_O 	O 	0.6933	0.0775	0.49506	-0.768
Mof_O 	O 	0.6448	0.4545	0.3362	-0.703
Mof_O 	O 	0.663	0.7041	0.25947	-0.709
Mof_O 	O 	0.6712	0.7416	0.15659	-0.645
Mof_O 	O 	0.8006	0.6078	0.3378	-0.658
Mof_O 	O 	0.7477	0.1017	0.36105	-0.589
Mof_O 	O 	0.9242	0.585	0.41459	-0.421
Mof_O 	O 	0.7925	0.776	0.23696	-0.612
Mof_O 	O 	0.9507	0.4598	0.18407	-0.424
Mof_O 	O 	0.6143	0.5694	0.55467	-0.742
Mof_O 	O 	0.8752	0.0047	0.34573	-0.564
Mof_O 	O 	0.0723	0.4745	0.26247	-0.444
Mof_O 	O 	0.7912	0.8641	0.3915	-0.685
Mof_O 	O 	0.5501	0.0357	0.4541	-0.877
Mof_O 	O 	0.6782	0.9352	0.2253	-0.423
Mof_O 	O 	0.6126	0.5694	0.4482	-0.828
Mof_O 	O 	0.5574	0.3779	0.4936	-0.811
Mof_O 	O 	0.6505	0.8638	0.448	-0.834
Mof_Ce	Ce	0.926	0.72788	0.81776	2.948
Mof_Ce	Ce	0.76319	0.23499	0.95437	3.168
Mof_Ce	Ce	0.66774	0.79868	0.87025	2.92
Mof_Ce	Ce	0.53261	0.7585	0.58448	3.155
Mof_S 	S 	0.8405	0.96633	0.89469	0.738
Mof_S 	S 	0.58943	0.1649	0.82982	0.913
Mof_S 	S 	0.98891	0.96584	0.74049	0.678
Mof_S 	S 	0.81841	0.49203	0.8858	0.876
Mof_S 	S 	0.62768	0.52563	0.98453	1.382
Mof_S 	S 	0.62179	0.01119	0.00214	1.306
Mof_S 	S 	0.08678	0.74944	0.92706	0.698
Mof_S 	S 	0.70196	0.70885	0.71969	1.012
Mof_O 	O 	0.9409	0.9816	0.78723	-0.485
Mof_O 	O 	0.0146	0.6607	0.92353	-0.481
Mof_O 	O 	0.8588	0.436	0.94629	-0.561
Mof_O 	O 	0.5945	0.244	0.77624	-0.419
Mof_O 	O 	0.0716	0.8297	0.86953	-0.452
Mof_O 	O 	0.5039	0.1212	0.82773	-0.685
Mof_O 	O 	0.6144	0.2508	0.88616	-0.836
Mof_O 	O 	0.7889	0.9375	0.93928	-0.649
Mof_O 	O 	0.1636	0.6662	0.93529	-0.438
Mof_O 	O 	0.8378	0.1184	0.88485	-0.559
Mof_O 	O 	0.9915	0.8129	0.73034	-0.465
Mof_O 	O 	0.6231	0.5844	0.04381	-0.758
Mof_O 	O 	0.7014	0.0856	0.01686	-0.76
Mof_O 	O 	0.1021	0.844	0.98036	-0.519
Mof_O 	O 	0.6933	0.4225	0.99506	-0.771
Mof_O 	O 	0.6448	0.0455	0.8362	-0.701
Mof_O 	O 	0.663	0.7959	0.75947	-0.71
Mof_O 	O 	0.6712	0.7584	0.65659	-0.645
Mof_O 	O 	0.8006	0.8922	0.8378	-0.657
Mof_O 	O 	0.7477	0.3983	0.86105	-0.588
Mof_O 	O 	0.9242	0.915	0.91459	-0.424
Mof_O 	O 	0.7925	0.724	0.73696	-0.612
Mof_O 	O 	0.9507	0.0402	0.68407	-0.417
Mof_O 	O 	0.6143	0.9306	0.05467	-0.744
Mof_O 	O 	0.8752	0.4953	0.84573	-0.567
Mof_O 	O 	0.0723	0.0255	0.76247	-0.439
Mof_O 	O 	0.7912	0.6359	0.8915	-0.681
Mof_O 	O 	0.5501	0.4643	0.9541	-0.879
Mof_O 	O 	0.6782	0.5648	0.7253	-0.422
Mof_O 	O 	0.6126	0.9306	0.9482	-0.832
Mof_O 	O 	0.5574	0.1221	0.9936	-0.813
Mof_O 	O 	0.6505	0.6362	0.948	-0.834
Mof_Ce	Ce	0.074	0.22788	0.68224	2.952
Mof_Ce	Ce	0.23681	0.73499	0.54563	3.173
Mof_Ce	Ce	0.33226	0.29868	0.62975	2.922
Mof_Ce	Ce	0.46739	0.2585	0.91552	3.157
Mof_S 	S 	0.1595	0.46633	0.60531	0.745
Mof_S 	S 	0.41057	0.6649	0.67018	0.914
Mof_S 	S 	0.01109	0.46584	0.75951	0.699
Mof_S 	S 	0.18159	0.99203	0.6142	0.881
Mof_S 	S 	0.37232	0.02563	0.51547	1.379
Mof_S 	S 	0.37821	0.51119	0.49786	1.3
Mof_S 	S 	0.91322	0.24944	0.57294	0.699
Mof_S 	S 	0.29804	0.20885	0.78031	1.013
Mof_O 	O 	0.0591	0.4816	0.71277	-0.485
Mof_O 	O 	0.9854	0.1607	0.57647	-0.484
Mof_O 	O 	0.1412	0.936	0.55371	-0.559
Mof_O 	O 	0.4055	0.744	0.72376	-0.419
Mof_O 	O 	0.9284	0.3297	0.63047	-0.458
Mof_O 	O 	0.4961	0.6212	0.67227	-0.685
Mof_O 	O 	0.3856	0.7508	0.61384	-0.836
Mof_O 	O 	0.2111	0.4375	0.56072	-0.648
Mof_O 	O 	0.8364	0.1662	0.56471	-0.439
Mof_O 	O 	0.1622	0.6184	0.61515	-0.563
Mof_O 	O 	0.0085	0.3129	0.76966	-0.466
Mof_O 	O 	0.3769	0.0844	0.45619	-0.759
Mof_O 	O 	0.2986	0.5856	0.48314	-0.762
Mof_O 	O 	0.8979	0.344	0.51964	-0.525
Mof_O 	O 	0.3067	0.9225	0.50494	-0.768
Mof_O 	O 	0.3552	0.5455	0.6638	-0.703
Mof_O 	O 	0.337	0.2959	0.74053	-0.709
Mof_O 	O 	0.3288	0.2584	0.84341	-0.645
Mof_O 	O 	0.1994	0.3922	0.6622	-0.658
Mof_O 	O 	0.2523	0.8983	0.63895	-0.589
Mof_O 	O 	0.0758	0.415	0.58541	-0.421
Mof_O 	O 	0.2075	0.224	0.76304	-0.612
Mof_O 	O 	0.0493	0.5402	0.81593	-0.424
Mof_O 	O 	0.3857	0.4306	0.44533	-0.742
Mof_O 	O 	0.1248	0.9953	0.65427	-0.564
Mof_O 	O 	0.9277	0.5255	0.73753	-0.444
Mof_O 	O 	0.2088	0.1359	0.6085	-0.685
Mof_O 	O 	0.4499	0.9643	0.5459	-0.877
Mof_O 	O 	0.3218	0.0648	0.7747	-0.423
Mof_O 	O 	0.3874	0.4306	0.5518	-0.828
Mof_O 	O 	0.4426	0.6221	0.5064	-0.811
Mof_O 	O 	0.3495	0.1362	0.552	-0.834
_end
