data_functionalizedCrystal
_audit_creation_method	'EQeq! by Chris Wilmer'
_symmetry_space_group_name_H-M	'P1'
_symmetry_Int_Tables_number	1
_symmetry_cell_setting	triclinic
loop_
_symmetry_equiv_pos_as_xyz
  x,y,z
_cell_length_a	25.6191
_cell_length_b	25.6191
_cell_length_c	6.8042
_cell_angle_alpha	90
_cell_angle_beta	90
_cell_angle_gamma	120
loop_
_atom_site_label
_atom_site_type_symbol
_atom_site_fract_x
_atom_site_fract_y
_atom_site_fract_z
_atom_site_charge
Mof_Fe	Fe	0.38968	0.35116	0.154	0.829
Mof_O 	O 	0.32222	0.2967	0.3577	-0.425
Mof_O 	O 	0.3005	0.2295	0.5958	-0.377
Mof_O 	O 	0.35534	0.2736	0.9962	-0.409
Mof_C 	C 	0.3167	0.2473	0.4156	0.374
Mof_C 	C 	0.3265	0.2051	0.2935	-0.167
Mof_C 	C 	0.3431	0.2219	0.1011	0.166
Mof_C 	C 	0.3488	0.1815	0.9615	-0.064
Mof_H 	H 	0.3617	0.1907	0.834	0.076
Mof_Fe	Fe	0.05635	0.68449	0.48733	0.83
Mof_O 	O 	0.98889	0.63003	0.69103	-0.425
Mof_O 	O 	0.96717	0.56283	0.92913	-0.376
Mof_O 	O 	0.02201	0.60693	0.32953	-0.41
Mof_C 	C 	0.98337	0.58063	0.74893	0.374
Mof_C 	C 	0.99317	0.53843	0.62683	-0.169
Mof_C 	C 	0.00977	0.55523	0.43443	0.171
Mof_C 	C 	0.01547	0.51483	0.29483	-0.071
Mof_H 	H 	0.02837	0.52403	0.16733	0.078
Mof_Fe	Fe	0.72301	0.01783	0.82067	0.831
Mof_O 	O 	0.65555	0.96337	0.02437	-0.426
Mof_O 	O 	0.63383	0.89617	0.26247	-0.378
Mof_O 	O 	0.68867	0.94027	0.66287	-0.412
Mof_C 	C 	0.65003	0.91397	0.08227	0.378
Mof_C 	C 	0.65983	0.87177	0.96017	-0.175
Mof_C 	C 	0.67643	0.88857	0.76777	0.174
Mof_C 	C 	0.68213	0.84817	0.62817	-0.074
Mof_H 	H 	0.69503	0.85737	0.50067	0.079
Mof_Fe	Fe	0.64884	0.03852	0.154	0.827
Mof_O 	O 	0.7033	0.02552	0.3577	-0.425
Mof_O 	O 	0.7705	0.071	0.5958	-0.377
Mof_O 	O 	0.7264	0.08174	0.9962	-0.407
Mof_C 	C 	0.7527	0.0694	0.4156	0.373
Mof_C 	C 	0.7949	0.1214	0.2935	-0.165
Mof_C 	C 	0.7781	0.1212	0.1011	0.163
Mof_C 	C 	0.8185	0.1673	0.9615	-0.06
Mof_H 	H 	0.8093	0.171	0.834	0.074
Mof_Fe	Fe	0.31551	0.37185	0.48733	0.83
Mof_O 	O 	0.36997	0.35885	0.69103	-0.425
Mof_O 	O 	0.43717	0.40433	0.92913	-0.377
Mof_O 	O 	0.39307	0.41507	0.32953	-0.411
Mof_C 	C 	0.41937	0.40273	0.74893	0.374
Mof_C 	C 	0.46157	0.45473	0.62683	-0.169
Mof_C 	C 	0.44477	0.45453	0.43443	0.171
Mof_C 	C 	0.48517	0.50063	0.29483	-0.071
Mof_H 	H 	0.47597	0.50433	0.16733	0.078
Mof_Fe	Fe	0.98217	0.70519	0.82067	0.83
Mof_O 	O 	0.03663	0.69219	0.02437	-0.426
Mof_O 	O 	0.10383	0.73767	0.26247	-0.378
Mof_O 	O 	0.05973	0.74841	0.66287	-0.412
Mof_C 	C 	0.08603	0.73607	0.08227	0.379
Mof_C 	C 	0.12823	0.78807	0.96017	-0.178
Mof_C 	C 	0.11143	0.78787	0.76777	0.175
Mof_C 	C 	0.15183	0.83397	0.62817	-0.075
Mof_H 	H 	0.14263	0.83767	0.50067	0.08
Mof_Fe	Fe	0.96148	0.61032	0.154	0.827
Mof_O 	O 	0.97448	0.67778	0.3577	-0.425
Mof_O 	O 	0.929	0.6995	0.5958	-0.377
Mof_O 	O 	0.91826	0.64466	0.9962	-0.408
Mof_C 	C 	0.9306	0.6833	0.4156	0.374
Mof_C 	C 	0.8786	0.6735	0.2935	-0.166
Mof_C 	C 	0.8788	0.6569	0.1011	0.166
Mof_C 	C 	0.8327	0.6512	0.9615	-0.064
Mof_H 	H 	0.829	0.6383	0.834	0.076
Mof_Fe	Fe	0.62815	0.94365	0.48733	0.83
Mof_O 	O 	0.64115	0.01111	0.69103	-0.425
Mof_O 	O 	0.59567	0.03283	0.92913	-0.376
Mof_O 	O 	0.58493	0.97799	0.32953	-0.41
Mof_C 	C 	0.59727	0.01663	0.74893	0.374
Mof_C 	C 	0.54527	0.00683	0.62683	-0.169
Mof_C 	C 	0.54547	0.99023	0.43443	0.171
Mof_C 	C 	0.49937	0.98453	0.29483	-0.071
Mof_H 	H 	0.49567	0.97163	0.16733	0.078
Mof_Fe	Fe	0.29481	0.27699	0.82067	0.83
Mof_O 	O 	0.30781	0.34445	0.02437	-0.426
Mof_O 	O 	0.26233	0.36617	0.26247	-0.378
Mof_O 	O 	0.25159	0.31133	0.66287	-0.411
Mof_C 	C 	0.26393	0.34997	0.08227	0.377
Mof_C 	C 	0.21193	0.34017	0.96017	-0.175
Mof_C 	C 	0.21213	0.32357	0.76777	0.173
Mof_C 	C 	0.16603	0.31787	0.62817	-0.074
Mof_H 	H 	0.16233	0.30497	0.50067	0.079
Mof_Fe	Fe	0.61032	0.64884	0.846	0.829
Mof_O 	O 	0.67778	0.7033	0.6423	-0.425
Mof_O 	O 	0.6995	0.7705	0.4042	-0.377
Mof_O 	O 	0.64466	0.7264	0.0038	-0.409
Mof_C 	C 	0.6833	0.7527	0.5844	0.374
Mof_C 	C 	0.6735	0.7949	0.7065	-0.167
Mof_C 	C 	0.6569	0.7781	0.8989	0.166
Mof_C 	C 	0.6512	0.8185	0.0385	-0.064
Mof_H 	H 	0.6383	0.8093	0.166	0.076
Mof_Fe	Fe	0.27699	0.98217	0.17933	0.831
Mof_O 	O 	0.34445	0.03663	0.97563	-0.426
Mof_O 	O 	0.36617	0.10383	0.73753	-0.378
Mof_O 	O 	0.31133	0.05973	0.33713	-0.412
Mof_C 	C 	0.34997	0.08603	0.91773	0.378
Mof_C 	C 	0.34017	0.12823	0.03983	-0.175
Mof_C 	C 	0.32357	0.11143	0.23223	0.174
Mof_C 	C 	0.31787	0.15183	0.37183	-0.074
Mof_H 	H 	0.30497	0.14263	0.49933	0.079
Mof_Fe	Fe	0.94365	0.31551	0.51267	0.83
Mof_O 	O 	0.01111	0.36997	0.30897	-0.425
Mof_O 	O 	0.03283	0.43717	0.07087	-0.376
Mof_O 	O 	0.97799	0.39307	0.67047	-0.41
Mof_C 	C 	0.01663	0.41937	0.25107	0.374
Mof_C 	C 	0.00683	0.46157	0.37317	-0.169
Mof_C 	C 	0.99023	0.44477	0.56557	0.171
Mof_C 	C 	0.98453	0.48517	0.70517	-0.071
Mof_H 	H 	0.97163	0.47597	0.83267	0.078
Mof_Fe	Fe	0.35116	0.96148	0.846	0.827
Mof_O 	O 	0.2967	0.97448	0.6423	-0.425
Mof_O 	O 	0.2295	0.929	0.4042	-0.377
Mof_O 	O 	0.2736	0.91826	0.0038	-0.407
Mof_C 	C 	0.2473	0.9306	0.5844	0.373
Mof_C 	C 	0.2051	0.8786	0.7065	-0.165
Mof_C 	C 	0.2219	0.8788	0.8989	0.163
Mof_C 	C 	0.1815	0.8327	0.0385	-0.06
Mof_H 	H 	0.1907	0.829	0.166	0.074
Mof_Fe	Fe	0.01783	0.29481	0.17933	0.83
Mof_O 	O 	0.96337	0.30781	0.97563	-0.426
Mof_O 	O 	0.89617	0.26233	0.73753	-0.378
Mof_O 	O 	0.94027	0.25159	0.33713	-0.412
Mof_C 	C 	0.91397	0.26393	0.91773	0.379
Mof_C 	C 	0.87177	0.21193	0.03983	-0.178
Mof_C 	C 	0.88857	0.21213	0.23223	0.175
Mof_C 	C 	0.84817	0.16603	0.37183	-0.075
Mof_H 	H 	0.85737	0.16233	0.49933	0.08
Mof_Fe	Fe	0.68449	0.62815	0.51267	0.83
Mof_O 	O 	0.63003	0.64115	0.30897	-0.425
Mof_O 	O 	0.56283	0.59567	0.07087	-0.377
Mof_O 	O 	0.60693	0.58493	0.67047	-0.411
Mof_C 	C 	0.58063	0.59727	0.25107	0.374
Mof_C 	C 	0.53843	0.54527	0.37317	-0.169
Mof_C 	C 	0.55523	0.54547	0.56557	0.171
Mof_C 	C 	0.51483	0.49937	0.70517	-0.071
Mof_H 	H 	0.52403	0.49567	0.83267	0.078
Mof_Fe	Fe	0.03852	0.38968	0.846	0.827
Mof_O 	O 	0.02552	0.32222	0.6423	-0.425
Mof_O 	O 	0.071	0.3005	0.4042	-0.377
Mof_O 	O 	0.08174	0.35534	0.0038	-0.408
Mof_C 	C 	0.0694	0.3167	0.5844	0.374
Mof_C 	C 	0.1214	0.3265	0.7065	-0.166
Mof_C 	C 	0.1212	0.3431	0.8989	0.166
Mof_C 	C 	0.1673	0.3488	0.0385	-0.064
Mof_H 	H 	0.171	0.3617	0.166	0.076
Mof_Fe	Fe	0.70519	0.72301	0.17933	0.83
Mof_O 	O 	0.69219	0.65555	0.97563	-0.426
Mof_O 	O 	0.73767	0.63383	0.73753	-0.378
Mof_O 	O 	0.74841	0.68867	0.33713	-0.411
Mof_C 	C 	0.73607	0.65003	0.91773	0.377
Mof_C 	C 	0.78807	0.65983	0.03983	-0.175
Mof_C 	C 	0.78787	0.67643	0.23223	0.173
Mof_C 	C 	0.83397	0.68213	0.37183	-0.074
Mof_H 	H 	0.83767	0.69503	0.49933	0.079
Mof_Fe	Fe	0.37185	0.05635	0.51267	0.83
Mof_O 	O 	0.35885	0.98889	0.30897	-0.425
Mof_O 	O 	0.40433	0.96717	0.07087	-0.376
Mof_O 	O 	0.41507	0.02201	0.67047	-0.41
Mof_C 	C 	0.40273	0.98337	0.25107	0.374
Mof_C 	C 	0.45473	0.99317	0.37317	-0.169
Mof_C 	C 	0.45453	0.00977	0.56557	0.171
Mof_C 	C 	0.50063	0.01547	0.70517	-0.071
Mof_H 	H 	0.50433	0.02837	0.83267	0.078
_end
