data_functionalizedCrystal
_audit_creation_method	'EQeq! by Chris Wilmer'
_symmetry_space_group_name_H-M	'P1'
_symmetry_Int_Tables_number	1
_symmetry_cell_setting	triclinic
loop_
_symmetry_equiv_pos_as_xyz
  x,y,z
_cell_length_a	7.228
_cell_length_b	24.997
_cell_length_c	30.902
_cell_angle_alpha	90
_cell_angle_beta	93.167
_cell_angle_gamma	90
loop_
_atom_site_label
_atom_site_type_symbol
_atom_site_fract_x
_atom_site_fract_y
_atom_site_fract_z
_atom_site_charge
Mof_N 	N 	0.2895	0.54999	0.00072	-0.296
Mof_N 	N 	0.5582	0.52654	0.9424	-0.277
Mof_C 	C 	0.1684	0.5572	0.03352	0.128
Mof_C 	C 	0.0367	0.5982	0.02226	-0.268
Mof_H 	H 	0.9421	0.61	0.0391	0.145
Mof_C 	C 	0.0745	0.6165	0.9829	-0
Mof_H 	H 	0.0105	0.6432	0.9673	0.011
Mof_C 	C 	0.2333	0.5871	0.96923	0.11
Mof_C 	C 	0.3181	0.5964	0.93091	-0.24
Mof_C 	C 	0.4681	0.5672	0.91859	0.116
Mof_C 	C 	0.5496	0.5724	0.87663	-0.074
Mof_H 	H 	0.5132	0.5963	0.8547	0.014
Mof_C 	C 	0.686	0.5366	0.87556	-0.11
Mof_H 	H 	0.7622	0.5311	0.8527	0.06
Mof_C 	C 	0.6946	0.5077	0.91613	0.12
Mof_C 	C 	0.1801	0.5317	0.07346	-0.142
Mof_C 	C 	0.2383	0.6385	0.89999	0.39
Mof_C 	C 	0.0658	0.6318	0.8799	-0.692
Mof_H 	H 	0.9966	0.6016	0.8859	0.298
Mof_C 	C 	0.9923	0.67	0.8503	0.6
Mof_H 	H 	0.8755	0.6643	0.8369	-0.22
Mof_C 	C 	0.0858	0.714	0.841	-0.551
Mof_C 	C 	0.264	0.7222	0.8619	0.325
Mof_H 	H 	0.3315	0.7527	0.8559	-0.184
Mof_C 	C 	0.338	0.6844	0.8914	-0.457
Mof_H 	H 	0.4538	0.69	0.9053	0.166
Mof_C 	C 	0.008	0.7566	0.807	0.495
Mof_O 	O 	0.1177	0.7903	0.79397	-0.634
Mof_O 	O 	0.8333	0.7488	0.7959	-0.657
Mof_C 	C 	0.0502	0.5486	0.10803	0.003
Mof_C 	C 	0.1224	0.5783	0.14339	-0.096
Mof_H 	H 	0.2484	0.586	0.146	0.068
Mof_C 	C 	0.0056	0.5964	0.1747	-0.05
Mof_H 	H 	0.055	0.6157	0.1983	-0.029
Mof_C 	C 	0.8186	0.58618	0.17111	-0.058
Mof_C 	C 	0.743	0.5561	0.13614	-0.037
Mof_H 	H 	0.6171	0.5482	0.1339	0.044
Mof_C 	C 	0.8596	0.5384	0.10476	-0.019
Mof_H 	H 	0.8096	0.5192	0.0811	0.025
Mof_C 	C 	0.6903	0.60946	0.20304	0.341
Mof_O 	O 	0.7599	0.64022	0.23347	-0.54
Mof_O 	O 	0.5183	0.60308	0.20055	-0.349
Mof_N 	N 	0.7895	0.04999	0.00072	-0.288
Mof_N 	N 	0.0582	0.02654	0.9424	-0.317
Mof_C 	C 	0.6684	0.0572	0.03352	0.125
Mof_C 	C 	0.5367	0.0982	0.02226	-0.138
Mof_H 	H 	0.4421	0.11	0.0391	0.053
Mof_C 	C 	0.5745	0.1165	0.9829	-0.063
Mof_H 	H 	0.5105	0.1432	0.9673	0.045
Mof_C 	C 	0.7333	0.0871	0.96923	0.133
Mof_C 	C 	0.8181	0.0964	0.93091	-0.221
Mof_C 	C 	0.9681	0.0672	0.91859	0.231
Mof_C 	C 	0.0496	0.0724	0.87663	-0.222
Mof_H 	H 	0.0132	0.0963	0.8547	0.041
Mof_C 	C 	0.186	0.0366	0.87556	-0.024
Mof_H 	H 	0.2622	0.0311	0.8527	0.012
Mof_C 	C 	0.1946	0.0077	0.91613	0.025
Mof_C 	C 	0.6801	0.0317	0.07346	-0.223
Mof_C 	C 	0.7383	0.1385	0.89999	0.23
Mof_C 	C 	0.5658	0.1318	0.8799	-0.32
Mof_H 	H 	0.4966	0.1016	0.8859	0.131
Mof_C 	C 	0.4923	0.17	0.8503	0.225
Mof_H 	H 	0.3755	0.1643	0.8369	-0.105
Mof_C 	C 	0.5858	0.214	0.841	-0.322
Mof_C 	C 	0.764	0.2222	0.8619	0.165
Mof_H 	H 	0.8315	0.2527	0.8559	-0.11
Mof_C 	C 	0.838	0.1844	0.8914	-0.29
Mof_H 	H 	0.9538	0.19	0.9053	0.125
Mof_C 	C 	0.508	0.2566	0.807	0.486
Mof_O 	O 	0.6177	0.2903	0.79397	-0.608
Mof_O 	O 	0.3333	0.2488	0.7959	-0.673
Mof_C 	C 	0.5502	0.0486	0.10803	0.181
Mof_C 	C 	0.6224	0.0783	0.14339	-0.273
Mof_H 	H 	0.7484	0.086	0.146	0.142
Mof_C 	C 	0.5056	0.0964	0.1747	0.184
Mof_H 	H 	0.555	0.1157	0.1983	-0.101
Mof_C 	C 	0.3186	0.08618	0.17111	-0.262
Mof_C 	C 	0.243	0.0561	0.13614	0.129
Mof_H 	H 	0.1171	0.0482	0.1339	-0.043
Mof_C 	C 	0.3596	0.0384	0.10476	-0.243
Mof_H 	H 	0.3096	0.0192	0.0811	0.075
Mof_C 	C 	0.1903	0.10946	0.20304	0.405
Mof_O 	O 	0.2599	0.14022	0.23347	-0.592
Mof_O 	O 	0.0183	0.10308	0.20055	-0.399
Mof_N 	N 	0.7105	0.54999	0.49928	-0.272
Mof_N 	N 	0.4418	0.52654	0.5576	-0.273
Mof_C 	C 	0.8316	0.5572	0.46648	0.079
Mof_C 	C 	0.9633	0.5982	0.47774	0.045
Mof_H 	H 	0.0579	0.61	0.4609	-0.042
Mof_C 	C 	0.9255	0.6165	0.5171	-0.144
Mof_H 	H 	0.9895	0.6432	0.5327	0.091
Mof_C 	C 	0.7667	0.5871	0.53077	0.103
Mof_C 	C 	0.6819	0.5964	0.56909	-0.1
Mof_C 	C 	0.5319	0.5672	0.58141	0.064
Mof_C 	C 	0.4504	0.5724	0.62337	-0.051
Mof_H 	H 	0.4868	0.5963	0.6453	0.004
Mof_C 	C 	0.314	0.5366	0.62444	-0.106
Mof_H 	H 	0.2378	0.5311	0.6473	0.051
Mof_C 	C 	0.3054	0.5077	0.58387	0.094
Mof_C 	C 	0.8199	0.5317	0.42654	-0.186
Mof_C 	C 	0.7617	0.6385	0.60001	-0.002
Mof_C 	C 	0.9342	0.6318	0.6201	0.094
Mof_H 	H 	0.0034	0.6016	0.6141	-0.047
Mof_C 	C 	0.0077	0.67	0.6497	-0.178
Mof_H 	H 	0.1245	0.6643	0.6631	0.024
Mof_C 	C 	0.9142	0.714	0.659	-0.093
Mof_C 	C 	0.736	0.7222	0.6381	-0.028
Mof_H 	H 	0.6685	0.7527	0.6441	-0.066
Mof_C 	C 	0.662	0.6844	0.6086	-0.097
Mof_H 	H 	0.5462	0.69	0.5947	0.032
Mof_C 	C 	0.992	0.7566	0.693	0.487
Mof_O 	O 	0.8823	0.7903	0.70603	-0.599
Mof_O 	O 	0.1667	0.7488	0.7041	-0.723
Mof_C 	C 	0.9498	0.5486	0.39197	0.297
Mof_C 	C 	0.8776	0.5783	0.35661	-0.371
Mof_H 	H 	0.7516	0.586	0.354	0.168
Mof_C 	C 	0.9944	0.5964	0.3253	0.351
Mof_H 	H 	0.945	0.6157	0.3017	-0.136
Mof_C 	C 	0.1814	0.58618	0.32889	-0.388
Mof_C 	C 	0.257	0.5561	0.36386	0.244
Mof_H 	H 	0.3829	0.5482	0.3661	-0.059
Mof_C 	C 	0.1404	0.5384	0.39524	-0.388
Mof_H 	H 	0.1904	0.5192	0.4189	0.129
Mof_C 	C 	0.3097	0.60946	0.29696	0.44
Mof_O 	O 	0.2401	0.64022	0.26653	-0.599
Mof_O 	O 	0.4817	0.60308	0.29945	-0.378
Mof_N 	N 	0.2105	0.04999	0.49928	-0.285
Mof_N 	N 	0.9418	0.02654	0.5576	-0.222
Mof_C 	C 	0.3316	0.0572	0.46648	0.105
Mof_C 	C 	0.4633	0.0982	0.47774	-0.106
Mof_H 	H 	0.5579	0.11	0.4609	0.058
Mof_C 	C 	0.4255	0.1165	0.5171	-0.073
Mof_H 	H 	0.4895	0.1432	0.5327	0.054
Mof_C 	C 	0.2667	0.0871	0.53077	0.071
Mof_C 	C 	0.1819	0.0964	0.56909	-0.12
Mof_C 	C 	0.0319	0.0672	0.58141	-0.05
Mof_C 	C 	0.9504	0.0724	0.62337	0.067
Mof_H 	H 	0.9868	0.0963	0.6453	-0.008
Mof_C 	C 	0.814	0.0366	0.62444	-0.15
Mof_H 	H 	0.7378	0.0311	0.6473	0.069
Mof_C 	C 	0.8054	0.0077	0.58387	0.094
Mof_C 	C 	0.3199	0.0317	0.42654	-0.197
Mof_C 	C 	0.2617	0.1385	0.60001	0.15
Mof_C 	C 	0.4342	0.1318	0.6201	-0.267
Mof_H 	H 	0.5034	0.1016	0.6141	0.114
Mof_C 	C 	0.5077	0.17	0.6497	0.183
Mof_H 	H 	0.6245	0.1643	0.6631	-0.076
Mof_C 	C 	0.4142	0.214	0.659	-0.293
Mof_C 	C 	0.236	0.2222	0.6381	0.12
Mof_H 	H 	0.1685	0.2527	0.6441	-0.116
Mof_C 	C 	0.162	0.1844	0.6086	-0.249
Mof_H 	H 	0.0462	0.19	0.5947	0.073
Mof_C 	C 	0.492	0.2566	0.693	0.474
Mof_O 	O 	0.3823	0.2903	0.70603	-0.615
Mof_O 	O 	0.6667	0.2488	0.7041	-0.644
Mof_C 	C 	0.4498	0.0486	0.39197	0.147
Mof_C 	C 	0.3776	0.0783	0.35661	-0.233
Mof_H 	H 	0.2516	0.086	0.354	0.101
Mof_C 	C 	0.4944	0.0964	0.3253	0.146
Mof_H 	H 	0.445	0.1157	0.3017	-0.092
Mof_C 	C 	0.6814	0.08618	0.32889	-0.219
Mof_C 	C 	0.757	0.0561	0.36386	0.101
Mof_H 	H 	0.8829	0.0482	0.3661	0.007
Mof_C 	C 	0.6404	0.0384	0.39524	-0.201
Mof_H 	H 	0.6904	0.0192	0.4189	0.076
Mof_C 	C 	0.8097	0.10946	0.29696	0.392
Mof_O 	O 	0.7401	0.14022	0.26653	-0.567
Mof_O 	O 	0.9817	0.10308	0.29945	-0.319
Mof_N 	N 	0.7105	0.45001	0.99928	-0.258
Mof_N 	N 	0.4418	0.47346	0.0576	-0.275
Mof_C 	C 	0.8316	0.4428	0.96648	0.071
Mof_C 	C 	0.9633	0.4018	0.97774	0.083
Mof_H 	H 	0.0579	0.39	0.9609	-0.051
Mof_C 	C 	0.9255	0.3835	0.0171	-0.178
Mof_H 	H 	0.9895	0.3568	0.0327	0.1
Mof_C 	C 	0.7667	0.4129	0.03077	0.097
Mof_C 	C 	0.6819	0.4036	0.06909	-0.1
Mof_C 	C 	0.5319	0.4328	0.08141	0.061
Mof_C 	C 	0.4504	0.4276	0.12337	-0.05
Mof_H 	H 	0.4868	0.4037	0.1453	0.004
Mof_C 	C 	0.314	0.4634	0.12444	-0.107
Mof_H 	H 	0.2378	0.4689	0.1473	0.052
Mof_C 	C 	0.3054	0.4923	0.08387	0.096
Mof_C 	C 	0.8199	0.4683	0.92654	-0.18
Mof_C 	C 	0.7617	0.3615	0.10001	-0.003
Mof_C 	C 	0.9342	0.3682	0.1201	0.094
Mof_H 	H 	0.0034	0.3984	0.1141	-0.048
Mof_C 	C 	0.0077	0.33	0.1497	-0.179
Mof_H 	H 	0.1245	0.3357	0.1631	0.024
Mof_C 	C 	0.9142	0.286	0.159	-0.093
Mof_C 	C 	0.736	0.2778	0.1381	-0.029
Mof_H 	H 	0.6685	0.2473	0.1441	-0.066
Mof_C 	C 	0.662	0.3156	0.1086	-0.097
Mof_H 	H 	0.5462	0.31	0.0947	0.03
Mof_C 	C 	0.992	0.2434	0.193	0.488
Mof_O 	O 	0.8823	0.2097	0.20603	-0.599
Mof_O 	O 	0.1667	0.2512	0.2041	-0.723
Mof_C 	C 	0.9498	0.4514	0.89197	0.294
Mof_C 	C 	0.8776	0.4217	0.85661	-0.368
Mof_H 	H 	0.7516	0.414	0.854	0.167
Mof_C 	C 	0.9944	0.4036	0.8253	0.348
Mof_H 	H 	0.945	0.3843	0.8017	-0.135
Mof_C 	C 	0.1814	0.41382	0.82889	-0.385
Mof_C 	C 	0.257	0.4439	0.86386	0.243
Mof_H 	H 	0.3829	0.4518	0.8661	-0.057
Mof_C 	C 	0.1404	0.4616	0.89524	-0.384
Mof_H 	H 	0.1904	0.4808	0.9189	0.13
Mof_C 	C 	0.3097	0.39054	0.79696	0.44
Mof_O 	O 	0.2401	0.35978	0.76653	-0.598
Mof_O 	O 	0.4817	0.39692	0.79945	-0.378
Mof_N 	N 	0.2105	0.95001	0.99928	-0.254
Mof_N 	N 	0.9418	0.97346	0.0576	-0.223
Mof_C 	C 	0.3316	0.9428	0.96648	0.075
Mof_C 	C 	0.4633	0.9018	0.97774	-0.046
Mof_H 	H 	0.5579	0.89	0.9609	0.042
Mof_C 	C 	0.4255	0.8835	0.0171	-0.116
Mof_H 	H 	0.4895	0.8568	0.0327	0.066
Mof_C 	C 	0.2667	0.9129	0.03077	0.075
Mof_C 	C 	0.1819	0.9036	0.06909	-0.115
Mof_C 	C 	0.0319	0.9328	0.08141	-0.05
Mof_C 	C 	0.9504	0.9276	0.12337	0.095
Mof_H 	H 	0.9868	0.9037	0.1453	-0.013
Mof_C 	C 	0.814	0.9634	0.12444	-0.19
Mof_H 	H 	0.7378	0.9689	0.1473	0.102
Mof_C 	C 	0.8054	0.9923	0.08387	0.191
Mof_C 	C 	0.3199	0.9683	0.92654	-0.099
Mof_C 	C 	0.2617	0.8615	0.10001	0.152
Mof_C 	C 	0.4342	0.8682	0.1201	-0.266
Mof_H 	H 	0.5034	0.8984	0.1141	0.12
Mof_C 	C 	0.5077	0.83	0.1497	0.184
Mof_H 	H 	0.6245	0.8357	0.1631	-0.075
Mof_C 	C 	0.4142	0.786	0.159	-0.294
Mof_C 	C 	0.236	0.7778	0.1381	0.12
Mof_H 	H 	0.1685	0.7473	0.1441	-0.117
Mof_C 	C 	0.162	0.8156	0.1086	-0.249
Mof_H 	H 	0.0462	0.81	0.0947	0.072
Mof_C 	C 	0.492	0.7434	0.193	0.475
Mof_O 	O 	0.3823	0.7097	0.20603	-0.615
Mof_O 	O 	0.6667	0.7512	0.2041	-0.644
Mof_C 	C 	0.4498	0.9514	0.89197	0.124
Mof_C 	C 	0.3776	0.9217	0.85661	-0.205
Mof_H 	H 	0.2516	0.914	0.854	0.097
Mof_C 	C 	0.4944	0.9036	0.8253	0.134
Mof_H 	H 	0.445	0.8843	0.8017	-0.085
Mof_C 	C 	0.6814	0.91382	0.82889	-0.203
Mof_C 	C 	0.757	0.9439	0.86386	0.091
Mof_H 	H 	0.8829	0.9518	0.8661	0.024
Mof_C 	C 	0.6404	0.9616	0.89524	-0.173
Mof_H 	H 	0.6904	0.9808	0.9189	0.086
Mof_C 	C 	0.8097	0.89054	0.79696	0.39
Mof_O 	O 	0.7401	0.85978	0.76653	-0.565
Mof_O 	O 	0.9817	0.89692	0.79945	-0.312
Mof_N 	N 	0.2895	0.45001	0.50072	-0.284
Mof_N 	N 	0.5582	0.47346	0.4424	-0.28
Mof_C 	C 	0.1684	0.4428	0.53352	0.12
Mof_C 	C 	0.0367	0.4018	0.52226	-0.229
Mof_H 	H 	0.9421	0.39	0.5391	0.136
Mof_C 	C 	0.0745	0.3835	0.4829	-0.037
Mof_H 	H 	0.0105	0.3568	0.4673	0.02
Mof_C 	C 	0.2333	0.4129	0.46923	0.105
Mof_C 	C 	0.3181	0.4036	0.43091	-0.242
Mof_C 	C 	0.4681	0.4328	0.41859	0.114
Mof_C 	C 	0.5496	0.4276	0.37663	-0.073
Mof_H 	H 	0.5132	0.4037	0.3547	0.014
Mof_C 	C 	0.686	0.4634	0.37556	-0.111
Mof_H 	H 	0.7622	0.4689	0.3527	0.061
Mof_C 	C 	0.6946	0.4923	0.41613	0.121
Mof_C 	C 	0.1801	0.4683	0.57346	-0.137
Mof_C 	C 	0.2383	0.3615	0.39999	0.393
Mof_C 	C 	0.0658	0.3682	0.3799	-0.699
Mof_H 	H 	0.9966	0.3984	0.3859	0.301
Mof_C 	C 	0.9923	0.33	0.3503	0.607
Mof_H 	H 	0.8755	0.3357	0.3369	-0.222
Mof_C 	C 	0.0858	0.286	0.341	-0.555
Mof_C 	C 	0.264	0.2778	0.3619	0.327
Mof_H 	H 	0.3315	0.2473	0.3559	-0.185
Mof_C 	C 	0.338	0.3156	0.3914	-0.461
Mof_H 	H 	0.4538	0.31	0.4053	0.166
Mof_C 	C 	0.008	0.2434	0.307	0.495
Mof_O 	O 	0.1177	0.2097	0.29397	-0.634
Mof_O 	O 	0.8333	0.2512	0.2959	-0.657
Mof_C 	C 	0.0502	0.4514	0.60803	-0
Mof_C 	C 	0.1224	0.4217	0.64339	-0.093
Mof_H 	H 	0.2484	0.414	0.646	0.067
Mof_C 	C 	0.0056	0.4036	0.6747	-0.052
Mof_H 	H 	0.055	0.3843	0.6983	-0.028
Mof_C 	C 	0.8186	0.41382	0.67111	-0.056
Mof_C 	C 	0.743	0.4439	0.63614	-0.038
Mof_H 	H 	0.6171	0.4518	0.6339	0.045
Mof_C 	C 	0.8596	0.4616	0.60476	-0.017
Mof_H 	H 	0.8096	0.4808	0.5811	0.025
Mof_C 	C 	0.6903	0.39054	0.70304	0.34
Mof_O 	O 	0.7599	0.35978	0.73347	-0.539
Mof_O 	O 	0.5183	0.39692	0.70055	-0.349
Mof_N 	N 	0.7895	0.95001	0.50072	-0.259
Mof_N 	N 	0.0582	0.97346	0.4424	-0.319
Mof_C 	C 	0.6684	0.9428	0.53352	0.095
Mof_C 	C 	0.5367	0.9018	0.52226	-0.078
Mof_H 	H 	0.4421	0.89	0.5391	0.036
Mof_C 	C 	0.5745	0.8835	0.4829	-0.106
Mof_H 	H 	0.5105	0.8568	0.4673	0.057
Mof_C 	C 	0.7333	0.9129	0.46923	0.135
Mof_C 	C 	0.8181	0.9036	0.43091	-0.215
Mof_C 	C 	0.9681	0.9328	0.41859	0.227
Mof_C 	C 	0.0496	0.9276	0.37663	-0.19
Mof_H 	H 	0.0132	0.9037	0.3547	0.035
Mof_C 	C 	0.186	0.9634	0.37556	-0.066
Mof_H 	H 	0.2622	0.9689	0.3527	0.046
Mof_C 	C 	0.1946	0.9923	0.41613	0.124
Mof_C 	C 	0.6801	0.9683	0.57346	-0.127
Mof_C 	C 	0.7383	0.8615	0.39999	0.23
Mof_C 	C 	0.5658	0.8682	0.3799	-0.319
Mof_H 	H 	0.4966	0.8984	0.3859	0.137
Mof_C 	C 	0.4923	0.83	0.3503	0.226
Mof_H 	H 	0.3755	0.8357	0.3369	-0.103
Mof_C 	C 	0.5858	0.786	0.341	-0.322
Mof_C 	C 	0.764	0.7778	0.3619	0.165
Mof_H 	H 	0.8315	0.7473	0.3559	-0.111
Mof_C 	C 	0.838	0.8156	0.3914	-0.291
Mof_H 	H 	0.9538	0.81	0.4053	0.123
Mof_C 	C 	0.508	0.7434	0.307	0.486
Mof_O 	O 	0.6177	0.7097	0.29397	-0.609
Mof_O 	O 	0.3333	0.7512	0.2959	-0.673
Mof_C 	C 	0.5502	0.9514	0.60803	0.159
Mof_C 	C 	0.6224	0.9217	0.64339	-0.245
Mof_H 	H 	0.7484	0.914	0.646	0.138
Mof_C 	C 	0.5056	0.9036	0.6747	0.171
Mof_H 	H 	0.555	0.8843	0.6983	-0.094
Mof_C 	C 	0.3186	0.91382	0.67111	-0.245
Mof_C 	C 	0.243	0.9439	0.63614	0.12
Mof_H 	H 	0.1171	0.9518	0.6339	-0.025
Mof_C 	C 	0.3596	0.9616	0.60476	-0.216
Mof_H 	H 	0.3096	0.9808	0.5811	0.086
Mof_C 	C 	0.1903	0.89054	0.70304	0.404
Mof_O 	O 	0.2599	0.85978	0.73347	-0.59
Mof_O 	O 	0.0183	0.89692	0.70055	-0.391
Mof_Ni	Ni	0.5	0.5	-0	1.035
Mof_Ni	Ni	-0	0	-0	0.996
Mof_Ni	Ni	0.5	0.5	0.5	1.042
Mof_Ni	Ni	8.45773e-33	0	0.5	1.003
Mof_Fe	Fe	0.5	0.33618	0.75	0.889
Mof_Fe	Fe	-2.0393e-17	0.83618	0.75	0.798
Mof_Fe	Fe	0.5	0.66382	0.25	0.889
Mof_Fe	Fe	1.01965e-17	0.16382	0.25	0.796
Mof_K 	K 	-2.0393e-17	0.26489	0.75	2.976
Mof_K 	K 	0.5	0.76489	0.75	3.23
Mof_K 	K 	4.22887e-33	0.73511	0.25	2.987
Mof_K 	K 	0.5	0.23511	0.25	3.231
_end
