data_functionalizedCrystal
_audit_creation_method	'EQeq! by Chris Wilmer'
_symmetry_space_group_name_H-M	'P1'
_symmetry_Int_Tables_number	1
_symmetry_cell_setting	triclinic
loop_
_symmetry_equiv_pos_as_xyz
  x,y,z
_cell_length_a	22.0121
_cell_length_b	16.5301
_cell_length_c	25.6641
_cell_angle_alpha	90
_cell_angle_beta	115.386
_cell_angle_gamma	90
loop_
_atom_site_label
_atom_site_type_symbol
_atom_site_fract_x
_atom_site_fract_y
_atom_site_fract_z
_atom_site_charge
Mof_Ag	Ag	0.77392	0.70883	0.36825	0.524
Mof_Ag	Ag	0.29482	0.00096	0.86769	0.537
Mof_C 	C 	0.92314	0.4005	0.89264	0.067
Mof_H 	H 	0.9038	0.4056	0.8527	-0.024
Mof_C 	C 	0.128	0.0618	0.41127	-0.143
Mof_H 	H 	0.0856	0.0398	0.39	0.083
Mof_C 	C 	0.15399	0.2193	0.00136	0.099
Mof_C 	C 	0.12825	0.0072	0.50256	0.099
Mof_C 	C 	0.9032	0.8167	0.38908	0.082
Mof_H 	H 	0.8851	0.8106	0.3492	-0.008
Mof_C 	C 	0.9816	0.3872	0.00948	-0.133
Mof_H 	H 	0.0007	0.3842	0.0495	0.074
Mof_C 	C 	0.07521	0.3008	0.00726	0.094
Mof_C 	C 	0.15995	0.0526	0.47042	0.062
Mof_C 	C 	0.24355	0.1335	0.99678	-0.134
Mof_H 	H 	0.2642	0.1332	0.0369	0.087
Mof_C 	C 	0.2233	0.0863	0.49984	-0.144
Mof_H 	H 	0.2461	0.0817	0.5397	0.076
Mof_C 	C 	0.15821	0.9867	0.65163	0.061
Mof_C 	C 	0.9609	0.8616	0.41588	-0.132
Mof_H 	H 	0.981	0.8851	0.3942	0.085
Mof_C 	C 	0.12806	0.9763	0.58826	0.1
Mof_C 	C 	0.2719	0.0926	0.96567	0.085
Mof_H 	H 	0.3121	0.0651	0.9859	-0.012
Mof_C 	C 	0.252	0.1264	0.4695	0.072
Mof_H 	H 	0.2945	0.1487	0.4898	-0.02
Mof_C 	C 	0.0501	0.9227	0.50587	0.104
Mof_C 	C 	0.2796	0.1983	0.2406	0.078
Mof_H 	H 	0.3216	0.1743	0.2597	-0.015
Mof_C 	C 	0.18403	0.1749	0.96727	0.069
Mof_C 	C 	0.1904	0.2426	0.15193	0.055
Mof_C 	C 	0.98206	0.3582	0.91884	-0.138
Mof_H 	H 	0.0015	0.3349	0.8967	0.079
Mof_C 	C 	0.15897	0.2525	0.08851	0.095
Mof_C 	C 	0.1607	0.1048	0.38433	0.073
Mof_H 	H 	0.1383	0.1127	0.3447	-0.021
Mof_C 	C 	0.1867	0.2573	0.2428	0.076
Mof_H 	H 	0.1637	0.2748	0.2638	-0.025
Mof_C 	C 	0.9571	0.8339	0.50536	-0.134
Mof_H 	H 	0.9747	0.8378	0.5453	0.084
Mof_C 	C 	0.2529	0.2072	0.18124	-0.138
Mof_H 	H 	0.2769	0.1894	0.1612	0.082
Mof_C 	C 	0.2121	0.0379	0.6784	-0.133
Mof_H 	H 	0.2284	0.0683	0.6566	0.068
Mof_C 	C 	0.01259	0.3501	0.97803	0.056
Mof_C 	C 	0.2417	0.0437	0.7376	0.067
Mof_H 	H 	0.2775	0.0793	0.7549	-0.015
Mof_C 	C 	0.1565	0.2683	0.1841	-0.144
Mof_H 	H 	0.1143	0.2923	0.1662	0.073
Mof_C 	C 	0.899	0.7907	0.47471	0.089
Mof_H 	H 	0.8776	0.7669	0.4952	-0.014
Mof_C 	C 	0.9221	0.4284	0.9797	0.074
Mof_H 	H 	0.9019	0.4529	0.0009	-0.011
Mof_C 	C 	0.1337	0.945	0.6855	-0.143
Mof_H 	H 	0.0959	0.9121	0.6689	0.084
Mof_C 	C 	0.98914	0.872	0.47483	0.068
Mof_C 	C 	0.1553	0.1746	0.90776	-0.14
Mof_H 	H 	0.1159	0.2031	0.8868	0.081
Mof_C 	C 	0.1668	0.9535	0.7442	0.087
Mof_H 	H 	0.1504	0.9248	0.7666	-0.021
Mof_C 	C 	0.1864	0.131	0.87999	0.084
Mof_H 	H 	0.1659	0.1296	0.8399	-0.007
Mof_N 	N 	0.87141	0.7809	0.41769	-0.193
Mof_N 	N 	0.22223	0.1354	0.41198	-0.214
Mof_N 	N 	0.2211	0.0002	0.77175	-0.199
Mof_N 	N 	0.07457	0.9608	0.47277	-0.138
Mof_N 	N 	0.1559	0.0184	0.55942	-0.142
Mof_N 	N 	0.07492	0.9276	0.56312	-0.137
Mof_N 	N 	0.24452	0.0905	0.90771	-0.188
Mof_N 	N 	0.24695	0.2232	0.27181	-0.199
Mof_N 	N 	0.89169	0.4354	0.92207	-0.208
Mof_N 	N 	0.09757	0.2605	0.97338	-0.14
Mof_N 	N 	0.18686	0.2127	0.05897	-0.137
Mof_N 	N 	0.10392	0.299	0.06458	-0.149
Mof_Ag	Ag	0.27392	0.20883	0.36825	0.523
Mof_Ag	Ag	0.79482	0.50096	0.86769	0.536
Mof_C 	C 	0.42314	0.9005	0.89264	0.065
Mof_H 	H 	0.4038	0.9056	0.8527	-0.025
Mof_C 	C 	0.628	0.5618	0.41127	-0.144
Mof_H 	H 	0.5856	0.5398	0.39	0.082
Mof_C 	C 	0.65399	0.7193	0.00136	0.099
Mof_C 	C 	0.62825	0.5072	0.50256	0.098
Mof_C 	C 	0.4032	0.3167	0.38908	0.081
Mof_H 	H 	0.3851	0.3106	0.3492	-0.009
Mof_C 	C 	0.4816	0.8872	0.00948	-0.138
Mof_H 	H 	0.5007	0.8842	0.0495	0.075
Mof_C 	C 	0.57521	0.8008	0.00726	0.094
Mof_C 	C 	0.65995	0.5526	0.47042	0.061
Mof_C 	C 	0.74355	0.6335	0.99678	-0.137
Mof_H 	H 	0.7642	0.6332	0.0369	0.087
Mof_C 	C 	0.7233	0.5863	0.49984	-0.145
Mof_H 	H 	0.7461	0.5817	0.5397	0.075
Mof_C 	C 	0.65821	0.4867	0.65163	0.059
Mof_C 	C 	0.4609	0.3616	0.41588	-0.133
Mof_H 	H 	0.481	0.3851	0.3942	0.084
Mof_C 	C 	0.62806	0.4763	0.58826	0.099
Mof_C 	C 	0.7719	0.5926	0.96567	0.086
Mof_H 	H 	0.8121	0.5651	0.9859	-0.012
Mof_C 	C 	0.752	0.6264	0.4695	0.072
Mof_H 	H 	0.7945	0.6487	0.4898	-0.02
Mof_C 	C 	0.5501	0.4227	0.50587	0.104
Mof_C 	C 	0.7796	0.6983	0.2406	0.078
Mof_H 	H 	0.8216	0.6743	0.2597	-0.015
Mof_C 	C 	0.68403	0.6749	0.96727	0.068
Mof_C 	C 	0.6904	0.7426	0.15193	0.055
Mof_C 	C 	0.48206	0.8582	0.91884	-0.136
Mof_H 	H 	0.5015	0.8349	0.8967	0.078
Mof_C 	C 	0.65897	0.7525	0.08851	0.095
Mof_C 	C 	0.6607	0.6048	0.38433	0.073
Mof_H 	H 	0.6383	0.6127	0.3447	-0.021
Mof_C 	C 	0.6867	0.7573	0.2428	0.076
Mof_H 	H 	0.6637	0.7748	0.2638	-0.025
Mof_C 	C 	0.4571	0.3339	0.50536	-0.134
Mof_H 	H 	0.4747	0.3378	0.5453	0.084
Mof_C 	C 	0.7529	0.7072	0.18124	-0.137
Mof_H 	H 	0.7769	0.6894	0.1612	0.082
Mof_C 	C 	0.7121	0.5379	0.6784	-0.133
Mof_H 	H 	0.7284	0.5683	0.6566	0.068
Mof_C 	C 	0.51259	0.8501	0.97803	0.055
Mof_C 	C 	0.7417	0.5437	0.7376	0.067
Mof_H 	H 	0.7775	0.5793	0.7549	-0.015
Mof_C 	C 	0.6565	0.7683	0.1841	-0.144
Mof_H 	H 	0.6143	0.7923	0.1662	0.073
Mof_C 	C 	0.399	0.2907	0.47471	0.089
Mof_H 	H 	0.3776	0.2669	0.4952	-0.014
Mof_C 	C 	0.4221	0.9284	0.9797	0.078
Mof_H 	H 	0.4019	0.9529	0.0009	-0.013
Mof_C 	C 	0.6337	0.445	0.6855	-0.143
Mof_H 	H 	0.5959	0.4121	0.6689	0.084
Mof_C 	C 	0.48914	0.372	0.47483	0.068
Mof_C 	C 	0.6553	0.6746	0.90776	-0.14
Mof_H 	H 	0.6159	0.7031	0.8868	0.081
Mof_C 	C 	0.6668	0.4535	0.7442	0.086
Mof_H 	H 	0.6504	0.4248	0.7666	-0.021
Mof_C 	C 	0.6864	0.631	0.87999	0.084
Mof_H 	H 	0.6659	0.6296	0.8399	-0.007
Mof_N 	N 	0.37141	0.2809	0.41769	-0.193
Mof_N 	N 	0.72223	0.6354	0.41198	-0.214
Mof_N 	N 	0.7211	0.5002	0.77175	-0.199
Mof_N 	N 	0.57457	0.4608	0.47277	-0.138
Mof_N 	N 	0.6559	0.5184	0.55942	-0.142
Mof_N 	N 	0.57492	0.4276	0.56312	-0.137
Mof_N 	N 	0.74452	0.5905	0.90771	-0.188
Mof_N 	N 	0.74695	0.7232	0.27181	-0.199
Mof_N 	N 	0.39169	0.9354	0.92207	-0.209
Mof_N 	N 	0.59757	0.7605	0.97338	-0.141
Mof_N 	N 	0.68686	0.7127	0.05897	-0.137
Mof_N 	N 	0.60392	0.799	0.06458	-0.149
Mof_Ag	Ag	0.22608	0.70883	0.13175	0.523
Mof_Ag	Ag	0.70518	0.00096	0.63231	0.536
Mof_C 	C 	0.07686	0.4005	0.60736	0.065
Mof_H 	H 	0.0962	0.4056	0.6473	-0.025
Mof_C 	C 	0.872	0.0618	0.08873	-0.144
Mof_H 	H 	0.9144	0.0398	0.11	0.082
Mof_C 	C 	0.84601	0.2193	0.49864	0.099
Mof_C 	C 	0.87175	0.0072	0.99744	0.097
Mof_C 	C 	0.0968	0.8167	0.11092	0.08
Mof_H 	H 	0.1149	0.8106	0.1508	-0.009
Mof_C 	C 	0.0184	0.3872	0.49052	-0.137
Mof_H 	H 	0.9993	0.3842	0.4505	0.075
Mof_C 	C 	0.92479	0.3008	0.49274	0.095
Mof_C 	C 	0.84005	0.0526	0.02958	0.062
Mof_C 	C 	0.75645	0.1335	0.50322	-0.135
Mof_H 	H 	0.7358	0.1332	0.4631	0.086
Mof_C 	C 	0.7767	0.0863	0.00016	-0.145
Mof_H 	H 	0.7539	0.0817	0.9603	0.074
Mof_C 	C 	0.84179	0.9867	0.84837	0.06
Mof_C 	C 	0.0391	0.8616	0.08412	-0.131
Mof_H 	H 	0.019	0.8851	0.1058	0.083
Mof_C 	C 	0.87194	0.9763	0.91174	0.099
Mof_C 	C 	0.7281	0.0926	0.53433	0.085
Mof_H 	H 	0.6879	0.0651	0.5141	-0.012
Mof_C 	C 	0.748	0.1264	0.0305	0.072
Mof_H 	H 	0.7055	0.1487	0.0102	-0.02
Mof_C 	C 	0.9499	0.9227	0.99413	0.104
Mof_C 	C 	0.7204	0.1983	0.2594	0.078
Mof_H 	H 	0.6784	0.1743	0.2403	-0.015
Mof_C 	C 	0.81597	0.1749	0.53273	0.068
Mof_C 	C 	0.8096	0.2426	0.34807	0.055
Mof_C 	C 	0.01794	0.3582	0.58116	-0.135
Mof_H 	H 	0.9985	0.3349	0.6033	0.078
Mof_C 	C 	0.84103	0.2525	0.41149	0.095
Mof_C 	C 	0.8393	0.1048	0.11567	0.074
Mof_H 	H 	0.8617	0.1127	0.1553	-0.021
Mof_C 	C 	0.8133	0.2573	0.2572	0.076
Mof_H 	H 	0.8363	0.2748	0.2362	-0.025
Mof_C 	C 	0.0429	0.8339	0.99464	-0.131
Mof_H 	H 	0.0253	0.8378	0.9547	0.084
Mof_C 	C 	0.7471	0.2072	0.31876	-0.138
Mof_H 	H 	0.7231	0.1894	0.3388	0.082
Mof_C 	C 	0.7879	0.0379	0.8216	-0.133
Mof_H 	H 	0.7716	0.0683	0.8434	0.068
Mof_C 	C 	0.98741	0.3501	0.52197	0.054
Mof_C 	C 	0.7583	0.0437	0.7624	0.067
Mof_H 	H 	0.7225	0.0793	0.7451	-0.015
Mof_C 	C 	0.8435	0.2683	0.3159	-0.144
Mof_H 	H 	0.8857	0.2923	0.3338	0.073
Mof_C 	C 	0.101	0.7907	0.02529	0.087
Mof_H 	H 	0.1224	0.7669	0.0048	-0.013
Mof_C 	C 	0.0779	0.4284	0.5203	0.077
Mof_H 	H 	0.0981	0.4529	0.4991	-0.012
Mof_C 	C 	0.8663	0.945	0.8145	-0.143
Mof_H 	H 	0.9041	0.9121	0.8311	0.084
Mof_C 	C 	0.01086	0.872	0.02517	0.066
Mof_C 	C 	0.8447	0.1746	0.59224	-0.139
Mof_H 	H 	0.8841	0.2031	0.6132	0.081
Mof_C 	C 	0.8332	0.9535	0.7558	0.087
Mof_H 	H 	0.8496	0.9248	0.7334	-0.021
Mof_C 	C 	0.8136	0.131	0.62001	0.084
Mof_H 	H 	0.8341	0.1296	0.6601	-0.007
Mof_N 	N 	0.12859	0.7809	0.08231	-0.192
Mof_N 	N 	0.77777	0.1354	0.08802	-0.214
Mof_N 	N 	0.7789	0.0002	0.72825	-0.199
Mof_N 	N 	0.92543	0.9608	0.02723	-0.137
Mof_N 	N 	0.8441	0.0184	0.94058	-0.142
Mof_N 	N 	0.92508	0.9276	0.93688	-0.138
Mof_N 	N 	0.75548	0.0905	0.59229	-0.188
Mof_N 	N 	0.75305	0.2232	0.22819	-0.199
Mof_N 	N 	0.10831	0.4354	0.57793	-0.209
Mof_N 	N 	0.90243	0.2605	0.52662	-0.141
Mof_N 	N 	0.81314	0.2127	0.44103	-0.137
Mof_N 	N 	0.89608	0.299	0.43542	-0.149
Mof_Ag	Ag	0.72608	0.20883	0.13175	0.523
Mof_Ag	Ag	0.20518	0.50096	0.63231	0.536
Mof_C 	C 	0.57686	0.9005	0.60736	0.065
Mof_H 	H 	0.5962	0.9056	0.6473	-0.025
Mof_C 	C 	0.372	0.5618	0.08873	-0.144
Mof_H 	H 	0.4144	0.5398	0.11	0.082
Mof_C 	C 	0.34601	0.7193	0.49864	0.099
Mof_C 	C 	0.37175	0.5072	0.99744	0.098
Mof_C 	C 	0.5968	0.3167	0.11092	0.081
Mof_H 	H 	0.6149	0.3106	0.1508	-0.009
Mof_C 	C 	0.5184	0.8872	0.49052	-0.137
Mof_H 	H 	0.4993	0.8842	0.4505	0.075
Mof_C 	C 	0.42479	0.8008	0.49274	0.095
Mof_C 	C 	0.34005	0.5526	0.02958	0.062
Mof_C 	C 	0.25645	0.6335	0.50322	-0.135
Mof_H 	H 	0.2358	0.6332	0.4631	0.086
Mof_C 	C 	0.2767	0.5863	0.00016	-0.147
Mof_H 	H 	0.2539	0.5817	0.9603	0.075
Mof_C 	C 	0.34179	0.4867	0.84837	0.059
Mof_C 	C 	0.5391	0.3616	0.08412	-0.133
Mof_H 	H 	0.519	0.3851	0.1058	0.084
Mof_C 	C 	0.37194	0.4763	0.91174	0.099
Mof_C 	C 	0.2281	0.5926	0.53433	0.085
Mof_H 	H 	0.1879	0.5651	0.5141	-0.012
Mof_C 	C 	0.248	0.6264	0.0305	0.073
Mof_H 	H 	0.2055	0.6487	0.0102	-0.021
Mof_C 	C 	0.4499	0.4227	0.99413	0.103
Mof_C 	C 	0.2204	0.6983	0.2594	0.078
Mof_H 	H 	0.1784	0.6743	0.2403	-0.015
Mof_C 	C 	0.31597	0.6749	0.53273	0.068
Mof_C 	C 	0.3096	0.7426	0.34807	0.055
Mof_C 	C 	0.51794	0.8582	0.58116	-0.136
Mof_H 	H 	0.4985	0.8349	0.6033	0.078
Mof_C 	C 	0.34103	0.7525	0.41149	0.095
Mof_C 	C 	0.3393	0.6048	0.11567	0.073
Mof_H 	H 	0.3617	0.6127	0.1553	-0.021
Mof_C 	C 	0.3133	0.7573	0.2572	0.076
Mof_H 	H 	0.3363	0.7748	0.2362	-0.025
Mof_C 	C 	0.5429	0.3339	0.99464	-0.135
Mof_H 	H 	0.5253	0.3378	0.9547	0.085
Mof_C 	C 	0.2471	0.7072	0.31876	-0.138
Mof_H 	H 	0.2231	0.6894	0.3388	0.082
Mof_C 	C 	0.2879	0.5379	0.8216	-0.133
Mof_H 	H 	0.2716	0.5683	0.8434	0.068
Mof_C 	C 	0.48741	0.8501	0.52197	0.055
Mof_C 	C 	0.2583	0.5437	0.7624	0.067
Mof_H 	H 	0.2225	0.5793	0.7451	-0.015
Mof_C 	C 	0.3435	0.7683	0.3159	-0.144
Mof_H 	H 	0.3857	0.7923	0.3338	0.073
Mof_C 	C 	0.601	0.2907	0.02529	0.09
Mof_H 	H 	0.6224	0.2669	0.0048	-0.014
Mof_C 	C 	0.5779	0.9284	0.5203	0.077
Mof_H 	H 	0.5981	0.9529	0.4991	-0.012
Mof_C 	C 	0.3663	0.445	0.8145	-0.143
Mof_H 	H 	0.4041	0.4121	0.8311	0.084
Mof_C 	C 	0.51086	0.372	0.02517	0.068
Mof_C 	C 	0.3447	0.6746	0.59224	-0.139
Mof_H 	H 	0.3841	0.7031	0.6132	0.081
Mof_C 	C 	0.3332	0.4535	0.7558	0.086
Mof_H 	H 	0.3496	0.4248	0.7334	-0.021
Mof_C 	C 	0.3136	0.631	0.62001	0.084
Mof_H 	H 	0.3341	0.6296	0.6601	-0.007
Mof_N 	N 	0.62859	0.2809	0.08231	-0.193
Mof_N 	N 	0.27777	0.6354	0.08802	-0.214
Mof_N 	N 	0.2789	0.5002	0.72825	-0.199
Mof_N 	N 	0.42543	0.4608	0.02723	-0.138
Mof_N 	N 	0.3441	0.5184	0.94058	-0.142
Mof_N 	N 	0.42508	0.4276	0.93688	-0.137
Mof_N 	N 	0.25548	0.5905	0.59229	-0.188
Mof_N 	N 	0.25305	0.7232	0.22819	-0.199
Mof_N 	N 	0.60831	0.9354	0.57793	-0.209
Mof_N 	N 	0.40243	0.7605	0.52662	-0.141
Mof_N 	N 	0.31314	0.7127	0.44103	-0.137
Mof_N 	N 	0.39608	0.799	0.43542	-0.149
Mof_Ag	Ag	0.22608	0.29117	0.63175	0.523
Mof_Ag	Ag	0.70518	0.99904	0.13231	0.536
Mof_C 	C 	0.07686	0.5995	0.10736	0.066
Mof_H 	H 	0.0962	0.5944	0.1473	-0.025
Mof_C 	C 	0.872	0.9382	0.58873	-0.144
Mof_H 	H 	0.9144	0.9602	0.61	0.082
Mof_C 	C 	0.84601	0.7807	0.99864	0.098
Mof_C 	C 	0.87175	0.9928	0.49744	0.098
Mof_C 	C 	0.0968	0.1833	0.61092	0.081
Mof_H 	H 	0.1149	0.1894	0.6508	-0.009
Mof_C 	C 	0.0184	0.6128	0.99052	-0.134
Mof_H 	H 	0.9993	0.6158	0.9505	0.073
Mof_C 	C 	0.92479	0.6992	0.99274	0.093
Mof_C 	C 	0.84005	0.9474	0.52958	0.061
Mof_C 	C 	0.75645	0.8665	0.00322	-0.135
Mof_H 	H 	0.7358	0.8668	0.9631	0.086
Mof_C 	C 	0.7767	0.9137	0.50016	-0.145
Mof_H 	H 	0.7539	0.9183	0.4603	0.075
Mof_C 	C 	0.84179	0.0133	0.34837	0.06
Mof_C 	C 	0.0391	0.1384	0.58412	-0.133
Mof_H 	H 	0.019	0.1149	0.6058	0.084
Mof_C 	C 	0.87194	0.0237	0.41174	0.099
Mof_C 	C 	0.7281	0.9074	0.03433	0.085
Mof_H 	H 	0.6879	0.9349	0.0141	-0.012
Mof_C 	C 	0.748	0.8736	0.5305	0.072
Mof_H 	H 	0.7055	0.8513	0.5102	-0.02
Mof_C 	C 	0.9499	0.0773	0.49413	0.104
Mof_C 	C 	0.7204	0.8017	0.7594	0.078
Mof_H 	H 	0.6784	0.8257	0.7403	-0.015
Mof_C 	C 	0.81597	0.8251	0.03273	0.069
Mof_C 	C 	0.8096	0.7574	0.84807	0.055
Mof_C 	C 	0.01794	0.6418	0.08116	-0.138
Mof_H 	H 	0.9985	0.6651	0.1033	0.079
Mof_C 	C 	0.84103	0.7475	0.91149	0.095
Mof_C 	C 	0.8393	0.8952	0.61567	0.073
Mof_H 	H 	0.8617	0.8873	0.6553	-0.021
Mof_C 	C 	0.8133	0.7427	0.7572	0.076
Mof_H 	H 	0.8363	0.7252	0.7362	-0.025
Mof_C 	C 	0.0429	0.1661	0.49464	-0.134
Mof_H 	H 	0.0253	0.1622	0.4547	0.084
Mof_C 	C 	0.7471	0.7928	0.81876	-0.138
Mof_H 	H 	0.7231	0.8106	0.8388	0.082
Mof_C 	C 	0.7879	0.9621	0.3216	-0.133
Mof_H 	H 	0.7716	0.9317	0.3434	0.068
Mof_C 	C 	0.98741	0.6499	0.02197	0.056
Mof_C 	C 	0.7583	0.9563	0.2624	0.067
Mof_H 	H 	0.7225	0.9207	0.2451	-0.015
Mof_C 	C 	0.8435	0.7317	0.8159	-0.144
Mof_H 	H 	0.8857	0.7077	0.8338	0.073
Mof_C 	C 	0.101	0.2093	0.52529	0.089
Mof_H 	H 	0.1224	0.2331	0.5048	-0.014
Mof_C 	C 	0.0779	0.5716	0.0203	0.074
Mof_H 	H 	0.0981	0.5471	0.9991	-0.011
Mof_C 	C 	0.8663	0.055	0.3145	-0.143
Mof_H 	H 	0.9041	0.0879	0.3311	0.084
Mof_C 	C 	0.01086	0.128	0.52517	0.068
Mof_C 	C 	0.8447	0.8254	0.09224	-0.14
Mof_H 	H 	0.8841	0.7969	0.1132	0.081
Mof_C 	C 	0.8332	0.0465	0.2558	0.087
Mof_H 	H 	0.8496	0.0752	0.2334	-0.021
Mof_C 	C 	0.8136	0.869	0.12001	0.084
Mof_H 	H 	0.8341	0.8704	0.1601	-0.007
Mof_N 	N 	0.12859	0.2191	0.58231	-0.193
Mof_N 	N 	0.77777	0.8646	0.58802	-0.214
Mof_N 	N 	0.7789	0.9998	0.22825	-0.199
Mof_N 	N 	0.92543	0.0392	0.52723	-0.138
Mof_N 	N 	0.8441	0.9816	0.44058	-0.142
Mof_N 	N 	0.92508	0.0724	0.43688	-0.137
Mof_N 	N 	0.75548	0.9095	0.09229	-0.188
Mof_N 	N 	0.75305	0.7768	0.72819	-0.199
Mof_N 	N 	0.10831	0.5646	0.07793	-0.208
Mof_N 	N 	0.90243	0.7395	0.02662	-0.14
Mof_N 	N 	0.81314	0.7873	0.94103	-0.137
Mof_N 	N 	0.89608	0.701	0.93542	-0.149
Mof_Ag	Ag	0.72608	0.79117	0.63175	0.523
Mof_Ag	Ag	0.20518	0.49904	0.13231	0.536
Mof_C 	C 	0.57686	0.0995	0.10736	0.065
Mof_H 	H 	0.5962	0.0944	0.1473	-0.025
Mof_C 	C 	0.372	0.4382	0.58873	-0.144
Mof_H 	H 	0.4144	0.4602	0.61	0.082
Mof_C 	C 	0.34601	0.2807	0.99864	0.099
Mof_C 	C 	0.37175	0.4928	0.49744	0.098
Mof_C 	C 	0.5968	0.6833	0.61092	0.081
Mof_H 	H 	0.6149	0.6894	0.6508	-0.009
Mof_C 	C 	0.5184	0.1128	0.99052	-0.138
Mof_H 	H 	0.4993	0.1158	0.9505	0.075
Mof_C 	C 	0.42479	0.1992	0.99274	0.094
Mof_C 	C 	0.34005	0.4474	0.52958	0.061
Mof_C 	C 	0.25645	0.3665	0.00322	-0.137
Mof_H 	H 	0.2358	0.3668	0.9631	0.087
Mof_C 	C 	0.2767	0.4137	0.50016	-0.145
Mof_H 	H 	0.2539	0.4183	0.4603	0.075
Mof_C 	C 	0.34179	0.5133	0.34837	0.059
Mof_C 	C 	0.5391	0.6384	0.58412	-0.133
Mof_H 	H 	0.519	0.6149	0.6058	0.084
Mof_C 	C 	0.37194	0.5237	0.41174	0.099
Mof_C 	C 	0.2281	0.4074	0.03433	0.086
Mof_H 	H 	0.1879	0.4349	0.0141	-0.012
Mof_C 	C 	0.248	0.3736	0.5305	0.072
Mof_H 	H 	0.2055	0.3513	0.5102	-0.02
Mof_C 	C 	0.4499	0.5773	0.49413	0.104
Mof_C 	C 	0.2204	0.3017	0.7594	0.078
Mof_H 	H 	0.1784	0.3257	0.7403	-0.015
Mof_C 	C 	0.31597	0.3251	0.03273	0.068
Mof_C 	C 	0.3096	0.2574	0.84807	0.055
Mof_C 	C 	0.51794	0.1418	0.08116	-0.136
Mof_H 	H 	0.4985	0.1651	0.1033	0.078
Mof_C 	C 	0.34103	0.2475	0.91149	0.095
Mof_C 	C 	0.3393	0.3952	0.61567	0.073
Mof_H 	H 	0.3617	0.3873	0.6553	-0.021
Mof_C 	C 	0.3133	0.2427	0.7572	0.076
Mof_H 	H 	0.3363	0.2252	0.7362	-0.025
Mof_C 	C 	0.5429	0.6661	0.49464	-0.134
Mof_H 	H 	0.5253	0.6622	0.4547	0.084
Mof_C 	C 	0.2471	0.2928	0.81876	-0.137
Mof_H 	H 	0.2231	0.3106	0.8388	0.082
Mof_C 	C 	0.2879	0.4621	0.3216	-0.133
Mof_H 	H 	0.2716	0.4317	0.3434	0.068
Mof_C 	C 	0.48741	0.1499	0.02197	0.055
Mof_C 	C 	0.2583	0.4563	0.2624	0.067
Mof_H 	H 	0.2225	0.4207	0.2451	-0.015
Mof_C 	C 	0.3435	0.2317	0.8159	-0.144
Mof_H 	H 	0.3857	0.2077	0.8338	0.073
Mof_C 	C 	0.601	0.7093	0.52529	0.089
Mof_H 	H 	0.6224	0.7331	0.5048	-0.014
Mof_C 	C 	0.5779	0.0716	0.0203	0.078
Mof_H 	H 	0.5981	0.0471	0.9991	-0.013
Mof_C 	C 	0.3663	0.555	0.3145	-0.143
Mof_H 	H 	0.4041	0.5879	0.3311	0.084
Mof_C 	C 	0.51086	0.628	0.52517	0.068
Mof_C 	C 	0.3447	0.3254	0.09224	-0.14
Mof_H 	H 	0.3841	0.2969	0.1132	0.081
Mof_C 	C 	0.3332	0.5465	0.2558	0.086
Mof_H 	H 	0.3496	0.5752	0.2334	-0.021
Mof_C 	C 	0.3136	0.369	0.12001	0.084
Mof_H 	H 	0.3341	0.3704	0.1601	-0.007
Mof_N 	N 	0.62859	0.7191	0.58231	-0.193
Mof_N 	N 	0.27777	0.3646	0.58802	-0.214
Mof_N 	N 	0.2789	0.4998	0.22825	-0.199
Mof_N 	N 	0.42543	0.5392	0.52723	-0.138
Mof_N 	N 	0.3441	0.4816	0.44058	-0.142
Mof_N 	N 	0.42508	0.5724	0.43688	-0.137
Mof_N 	N 	0.25548	0.4095	0.09229	-0.188
Mof_N 	N 	0.25305	0.2768	0.72819	-0.199
Mof_N 	N 	0.60831	0.0646	0.07793	-0.209
Mof_N 	N 	0.40243	0.2395	0.02662	-0.141
Mof_N 	N 	0.31314	0.2873	0.94103	-0.137
Mof_N 	N 	0.39608	0.201	0.93542	-0.149
Mof_Ag	Ag	0.77392	0.29117	0.86825	0.523
Mof_Ag	Ag	0.29482	0.99904	0.36769	0.536
Mof_C 	C 	0.92314	0.5995	0.39264	0.065
Mof_H 	H 	0.9038	0.5944	0.3527	-0.025
Mof_C 	C 	0.128	0.9382	0.91127	-0.144
Mof_H 	H 	0.0856	0.9602	0.89	0.082
Mof_C 	C 	0.15399	0.7807	0.50136	0.099
Mof_C 	C 	0.12825	0.9928	0.00256	0.097
Mof_C 	C 	0.9032	0.1833	0.88908	0.08
Mof_H 	H 	0.8851	0.1894	0.8492	-0.009
Mof_C 	C 	0.9816	0.6128	0.50948	-0.137
Mof_H 	H 	0.0007	0.6158	0.5495	0.075
Mof_C 	C 	0.07521	0.6992	0.50726	0.095
Mof_C 	C 	0.15995	0.9474	0.97042	0.062
Mof_C 	C 	0.24355	0.8665	0.49678	-0.135
Mof_H 	H 	0.2642	0.8668	0.5369	0.086
Mof_C 	C 	0.2233	0.9137	0.99984	-0.145
Mof_H 	H 	0.2461	0.9183	0.0397	0.074
Mof_C 	C 	0.15821	0.0133	0.15163	0.06
Mof_C 	C 	0.9609	0.1384	0.91588	-0.131
Mof_H 	H 	0.981	0.1149	0.8942	0.083
Mof_C 	C 	0.12806	0.0237	0.08826	0.099
Mof_C 	C 	0.2719	0.9074	0.46567	0.085
Mof_H 	H 	0.3121	0.9349	0.4859	-0.012
Mof_C 	C 	0.252	0.8736	0.9695	0.072
Mof_H 	H 	0.2945	0.8513	0.9898	-0.02
Mof_C 	C 	0.0501	0.0773	0.00587	0.104
Mof_C 	C 	0.2796	0.8017	0.7406	0.078
Mof_H 	H 	0.3216	0.8257	0.7597	-0.015
Mof_C 	C 	0.18403	0.8251	0.46727	0.068
Mof_C 	C 	0.1904	0.7574	0.65193	0.055
Mof_C 	C 	0.98206	0.6418	0.41884	-0.135
Mof_H 	H 	0.0015	0.6651	0.3967	0.078
Mof_C 	C 	0.15897	0.7475	0.58851	0.095
Mof_C 	C 	0.1607	0.8952	0.88433	0.074
Mof_H 	H 	0.1383	0.8873	0.8447	-0.021
Mof_C 	C 	0.1867	0.7427	0.7428	0.076
Mof_H 	H 	0.1637	0.7252	0.7638	-0.025
Mof_C 	C 	0.9571	0.1661	0.00536	-0.131
Mof_H 	H 	0.9747	0.1622	0.0453	0.084
Mof_C 	C 	0.2529	0.7928	0.68124	-0.138
Mof_H 	H 	0.2769	0.8106	0.6612	0.082
Mof_C 	C 	0.2121	0.9621	0.1784	-0.133
Mof_H 	H 	0.2284	0.9317	0.1566	0.068
Mof_C 	C 	0.01259	0.6499	0.47803	0.054
Mof_C 	C 	0.2417	0.9563	0.2376	0.067
Mof_H 	H 	0.2775	0.9207	0.2549	-0.015
Mof_C 	C 	0.1565	0.7317	0.6841	-0.144
Mof_H 	H 	0.1143	0.7077	0.6662	0.073
Mof_C 	C 	0.899	0.2093	0.97471	0.087
Mof_H 	H 	0.8776	0.2331	0.9952	-0.013
Mof_C 	C 	0.9221	0.5716	0.4797	0.077
Mof_H 	H 	0.9019	0.5471	0.5009	-0.012
Mof_C 	C 	0.1337	0.055	0.1855	-0.143
Mof_H 	H 	0.0959	0.0879	0.1689	0.084
Mof_C 	C 	0.98914	0.128	0.97483	0.066
Mof_C 	C 	0.1553	0.8254	0.40776	-0.139
Mof_H 	H 	0.1159	0.7969	0.3868	0.081
Mof_C 	C 	0.1668	0.0465	0.2442	0.087
Mof_H 	H 	0.1504	0.0752	0.2666	-0.021
Mof_C 	C 	0.1864	0.869	0.37999	0.084
Mof_H 	H 	0.1659	0.8704	0.3399	-0.007
Mof_N 	N 	0.87141	0.2191	0.91769	-0.192
Mof_N 	N 	0.22223	0.8646	0.91198	-0.214
Mof_N 	N 	0.2211	0.9998	0.27175	-0.199
Mof_N 	N 	0.07457	0.0392	0.97277	-0.137
Mof_N 	N 	0.1559	0.9816	0.05942	-0.142
Mof_N 	N 	0.07492	0.0724	0.06312	-0.138
Mof_N 	N 	0.24452	0.9095	0.40771	-0.188
Mof_N 	N 	0.24695	0.7768	0.77181	-0.199
Mof_N 	N 	0.89169	0.5646	0.42207	-0.209
Mof_N 	N 	0.09757	0.7395	0.47338	-0.141
Mof_N 	N 	0.18686	0.7873	0.55897	-0.137
Mof_N 	N 	0.10392	0.701	0.56458	-0.149
Mof_Ag	Ag	0.27392	0.79117	0.86825	0.523
Mof_Ag	Ag	0.79482	0.49904	0.36769	0.536
Mof_C 	C 	0.42314	0.0995	0.39264	0.065
Mof_H 	H 	0.4038	0.0944	0.3527	-0.025
Mof_C 	C 	0.628	0.4382	0.91127	-0.144
Mof_H 	H 	0.5856	0.4602	0.89	0.082
Mof_C 	C 	0.65399	0.2807	0.50136	0.099
Mof_C 	C 	0.62825	0.4928	0.00256	0.098
Mof_C 	C 	0.4032	0.6833	0.88908	0.081
Mof_H 	H 	0.3851	0.6894	0.8492	-0.009
Mof_C 	C 	0.4816	0.1128	0.50948	-0.137
Mof_H 	H 	0.5007	0.1158	0.5495	0.075
Mof_C 	C 	0.57521	0.1992	0.50726	0.095
Mof_C 	C 	0.65995	0.4474	0.97042	0.062
Mof_C 	C 	0.74355	0.3665	0.49678	-0.135
Mof_H 	H 	0.7642	0.3668	0.5369	0.086
Mof_C 	C 	0.7233	0.4137	0.99984	-0.147
Mof_H 	H 	0.7461	0.4183	0.0397	0.075
Mof_C 	C 	0.65821	0.5133	0.15163	0.059
Mof_C 	C 	0.4609	0.6384	0.91588	-0.133
Mof_H 	H 	0.481	0.6149	0.8942	0.084
Mof_C 	C 	0.62806	0.5237	0.08826	0.099
Mof_C 	C 	0.7719	0.4074	0.46567	0.085
Mof_H 	H 	0.8121	0.4349	0.4859	-0.012
Mof_C 	C 	0.752	0.3736	0.9695	0.073
Mof_H 	H 	0.7945	0.3513	0.9898	-0.021
Mof_C 	C 	0.5501	0.5773	0.00587	0.103
Mof_C 	C 	0.7796	0.3017	0.7406	0.078
Mof_H 	H 	0.8216	0.3257	0.7597	-0.015
Mof_C 	C 	0.68403	0.3251	0.46727	0.068
Mof_C 	C 	0.6904	0.2574	0.65193	0.055
Mof_C 	C 	0.48206	0.1418	0.41884	-0.136
Mof_H 	H 	0.5015	0.1651	0.3967	0.078
Mof_C 	C 	0.65897	0.2475	0.58851	0.095
Mof_C 	C 	0.6607	0.3952	0.88433	0.073
Mof_H 	H 	0.6383	0.3873	0.8447	-0.021
Mof_C 	C 	0.6867	0.2427	0.7428	0.076
Mof_H 	H 	0.6637	0.2252	0.7638	-0.025
Mof_C 	C 	0.4571	0.6661	0.00536	-0.135
Mof_H 	H 	0.4747	0.6622	0.0453	0.085
Mof_C 	C 	0.7529	0.2928	0.68124	-0.138
Mof_H 	H 	0.7769	0.3106	0.6612	0.082
Mof_C 	C 	0.7121	0.4621	0.1784	-0.133
Mof_H 	H 	0.7284	0.4317	0.1566	0.068
Mof_C 	C 	0.51259	0.1499	0.47803	0.055
Mof_C 	C 	0.7417	0.4563	0.2376	0.067
Mof_H 	H 	0.7775	0.4207	0.2549	-0.015
Mof_C 	C 	0.6565	0.2317	0.6841	-0.144
Mof_H 	H 	0.6143	0.2077	0.6662	0.073
Mof_C 	C 	0.399	0.7093	0.97471	0.09
Mof_H 	H 	0.3776	0.7331	0.9952	-0.014
Mof_C 	C 	0.4221	0.0716	0.4797	0.077
Mof_H 	H 	0.4019	0.0471	0.5009	-0.012
Mof_C 	C 	0.6337	0.555	0.1855	-0.143
Mof_H 	H 	0.5959	0.5879	0.1689	0.084
Mof_C 	C 	0.48914	0.628	0.97483	0.068
Mof_C 	C 	0.6553	0.3254	0.40776	-0.139
Mof_H 	H 	0.6159	0.2969	0.3868	0.081
Mof_C 	C 	0.6668	0.5465	0.2442	0.086
Mof_H 	H 	0.6504	0.5752	0.2666	-0.021
Mof_C 	C 	0.6864	0.369	0.37999	0.084
Mof_H 	H 	0.6659	0.3704	0.3399	-0.007
Mof_N 	N 	0.37141	0.7191	0.91769	-0.193
Mof_N 	N 	0.72223	0.3646	0.91198	-0.214
Mof_N 	N 	0.7211	0.4998	0.27175	-0.199
Mof_N 	N 	0.57457	0.5392	0.97277	-0.138
Mof_N 	N 	0.6559	0.4816	0.05942	-0.142
Mof_N 	N 	0.57492	0.5724	0.06312	-0.137
Mof_N 	N 	0.74452	0.4095	0.40771	-0.188
Mof_N 	N 	0.74695	0.2768	0.77181	-0.199
Mof_N 	N 	0.39169	0.0646	0.42207	-0.209
Mof_N 	N 	0.59757	0.2395	0.47338	-0.141
Mof_N 	N 	0.68686	0.2873	0.55897	-0.137
Mof_N 	N 	0.60392	0.201	0.56458	-0.149
_end
