data_functionalizedCrystal
_audit_creation_method	'EQeq! by Chris Wilmer'
_symmetry_space_group_name_H-M	'P1'
_symmetry_Int_Tables_number	1
_symmetry_cell_setting	triclinic
loop_
_symmetry_equiv_pos_as_xyz
  x,y,z
_cell_length_a	20.7366
_cell_length_b	20.7366
_cell_length_c	20.7366
_cell_angle_alpha	90
_cell_angle_beta	90
_cell_angle_gamma	90
loop_
_atom_site_label
_atom_site_type_symbol
_atom_site_fract_x
_atom_site_fract_y
_atom_site_fract_z
_atom_site_charge
Mof_Zr	Zr	0.11941	0	-0	3.391
Mof_Zr	Zr	0.11941	0.5	0.5	3.414
Mof_Zr	Zr	0.61941	0	0.5	3.271
Mof_Zr	Zr	0.61941	0.5	-0	3.271
Mof_Zr	Zr	0.88059	0	-0	3.125
Mof_Zr	Zr	0.88059	0.5	0.5	3.133
Mof_Zr	Zr	0.38059	0	0.5	3.26
Mof_Zr	Zr	0.38059	0.5	-0	3.26
Mof_Zr	Zr	-0	0.11941	-0	3.391
Mof_Zr	Zr	7.53667e-33	0.61941	0.5	3.271
Mof_Zr	Zr	0.5	0.11941	0.5	3.414
Mof_Zr	Zr	0.5	0.61941	-0	3.272
Mof_Zr	Zr	-0	0.88059	-0	3.126
Mof_Zr	Zr	7.53667e-33	0.38059	0.5	3.261
Mof_Zr	Zr	0.5	0.88059	0.5	3.134
Mof_Zr	Zr	0.5	0.38059	-0	3.261
Mof_Zr	Zr	4.47716e-34	0	0.11941	3.392
Mof_Zr	Zr	7.98439e-33	0.5	0.61941	3.272
Mof_Zr	Zr	0.5	-5.66197e-33	0.61941	3.272
Mof_Zr	Zr	0.5	0.5	0.11941	3.415
Mof_Zr	Zr	3.30168e-33	0	0.88059	3.126
Mof_Zr	Zr	9.91994e-33	0.5	0.38059	3.261
Mof_Zr	Zr	0.5	0	0.38059	3.261
Mof_Zr	Zr	0.5	0.5	0.88059	3.134
Mof_O 	O 	0.17092	0.09354	-0	-1.612
Mof_C 	C 	0.267	0.1855	-0	0.272
Mof_H 	H 	0.2788	0.1413	-0	-0.098
Mof_O 	O 	0.197	0.075	-0	0.697
Mof_O 	O 	0.17092	0.59354	0.5	-1.459
Mof_C 	C 	0.267	0.6855	0.5	0.227
Mof_H 	H 	0.2788	0.6413	0.5	-0.074
Mof_O 	O 	0.197	0.575	0.5	0.616
Mof_O 	O 	0.67092	0.09354	0.5	-1.573
Mof_C 	C 	0.767	0.1855	0.5	0.232
Mof_H 	H 	0.7788	0.1413	0.5	-0.068
Mof_O 	O 	0.697	0.075	0.5	0.712
Mof_O 	O 	0.67092	0.59354	-0	-1.111
Mof_C 	C 	0.767	0.6855	-0	0.131
Mof_H 	H 	0.7788	0.6413	-0	-0.038
Mof_O 	O 	0.697	0.575	-0	0.321
Mof_O 	O 	0.82908	0.90646	-0	-0.721
Mof_C 	C 	0.733	0.8145	-0	-0.102
Mof_H 	H 	0.7212	0.8587	-0	0.054
Mof_O 	O 	0.803	0.925	-0	0.076
Mof_O 	O 	0.82908	0.40646	0.5	-0.925
Mof_C 	C 	0.733	0.3145	0.5	-0.111
Mof_H 	H 	0.7212	0.3587	0.5	0.053
Mof_O 	O 	0.803	0.425	0.5	0.207
Mof_O 	O 	0.32908	0.90646	0.5	-0.924
Mof_C 	C 	0.233	0.8145	0.5	-0.11
Mof_H 	H 	0.2212	0.8587	0.5	0.065
Mof_O 	O 	0.303	0.925	0.5	0.274
Mof_O 	O 	0.32908	0.40646	-0	-0.861
Mof_C 	C 	0.233	0.3145	-0	-0.15
Mof_H 	H 	0.2212	0.3587	-0	0.061
Mof_O 	O 	0.303	0.425	-0	0.128
Mof_O 	O 	0.82908	0.09354	-0	-1.252
Mof_C 	C 	0.733	0.1855	-0	0.094
Mof_H 	H 	0.7212	0.1413	-0	-0.031
Mof_O 	O 	0.803	0.075	-0	0.427
Mof_O 	O 	0.82908	0.59354	0.5	-1.048
Mof_C 	C 	0.733	0.6855	0.5	0.031
Mof_H 	H 	0.7212	0.6413	0.5	-0
Mof_O 	O 	0.803	0.575	0.5	0.303
Mof_O 	O 	0.32908	0.09354	0.5	-1.457
Mof_C 	C 	0.233	0.1855	0.5	0.085
Mof_H 	H 	0.2212	0.1413	0.5	-0.019
Mof_O 	O 	0.303	0.075	0.5	0.627
Mof_O 	O 	0.32908	0.59354	-0	-0.989
Mof_C 	C 	0.233	0.6855	-0	-0.017
Mof_H 	H 	0.2212	0.6413	-0	0.012
Mof_O 	O 	0.303	0.575	-0	0.229
Mof_O 	O 	0.17092	0.90646	-0	-1.129
Mof_C 	C 	0.267	0.8145	-0	0.094
Mof_H 	H 	0.2788	0.8587	-0	-0.019
Mof_O 	O 	0.197	0.925	-0	0.388
Mof_O 	O 	0.17092	0.40646	0.5	-1.324
Mof_C 	C 	0.267	0.3145	0.5	0.083
Mof_H 	H 	0.2788	0.3587	0.5	-0.02
Mof_O 	O 	0.197	0.425	0.5	0.51
Mof_O 	O 	0.67092	0.90646	0.5	-1.021
Mof_C 	C 	0.767	0.8145	0.5	0.034
Mof_H 	H 	0.7788	0.8587	0.5	0.015
Mof_O 	O 	0.697	0.925	0.5	0.34
Mof_O 	O 	0.67092	0.40646	-0	-0.972
Mof_C 	C 	0.767	0.3145	-0	-0.015
Mof_H 	H 	0.7788	0.3587	-0	0.017
Mof_O 	O 	0.697	0.425	-0	0.211
Mof_O 	O 	1.76621e-33	0.17092	0.09354	-1.612
Mof_C 	C 	-2.13547e-33	0.267	0.1855	0.272
Mof_H 	H 	-8.85703e-34	0.2788	0.1413	-0.098
Mof_O 	O 	1.6967e-33	0.197	0.075	0.697
Mof_O 	O 	1.35494e-32	0.67092	0.59354	-1.111
Mof_C 	C 	-3.09176e-33	0.767	0.6855	0.131
Mof_H 	H 	2.40449e-33	0.7788	0.6413	-0.038
Mof_O 	O 	1.34798e-32	0.697	0.575	0.321
Mof_O 	O 	0.5	0.17092	0.59354	-1.459
Mof_C 	C 	0.5	0.267	0.6855	0.227
Mof_H 	H 	0.5	0.2788	0.6413	-0.074
Mof_O 	O 	0.5	0.197	0.575	0.616
Mof_O 	O 	0.5	0.67092	0.09354	-1.573
Mof_C 	C 	0.5	0.767	0.1855	0.232
Mof_H 	H 	0.5	0.7788	0.1413	-0.068
Mof_O 	O 	0.5	0.697	0.075	0.712
Mof_O 	O 	3.39868e-33	0.82908	0.90646	-0.721
Mof_C 	C 	-2.60809e-33	0.733	0.8145	-0.102
Mof_H 	H 	1.45436e-32	0.7212	0.8587	0.054
Mof_O 	O 	1.47921e-32	0.803	0.925	0.076
Mof_O 	O 	-4.13799e-33	0.32908	0.40646	-0.861
Mof_C 	C 	4.01017e-33	0.233	0.3145	-0.15
Mof_H 	H 	4.1759e-33	0.2212	0.3587	0.061
Mof_O 	O 	-4.06848e-33	0.303	0.425	0.128
Mof_O 	O 	0.5	0.82908	0.40646	-0.925
Mof_C 	C 	0.5	0.733	0.3145	-0.111
Mof_H 	H 	0.5	0.7212	0.3587	0.053
Mof_O 	O 	0.5	0.803	0.425	0.207
Mof_O 	O 	0.5	0.32908	0.90646	-0.924
Mof_C 	C 	0.5	0.233	0.8145	-0.11
Mof_H 	H 	0.5	0.2212	0.8587	0.065
Mof_O 	O 	0.5	0.303	0.925	0.274
Mof_O 	O 	-6.72675e-33	0.82908	0.09354	-1.252
Mof_C 	C 	3.5265e-33	0.733	0.1855	0.094
Mof_H 	H 	-3.71669e-33	0.7212	0.1413	-0.031
Mof_O 	O 	1.6967e-33	0.803	0.075	0.427
Mof_O 	O 	2.22542e-33	0.32908	0.59354	-0.989
Mof_C 	C 	8.23219e-33	0.233	0.6855	-0.017
Mof_H 	H 	-3.25748e-33	0.2212	0.6413	0.012
Mof_O 	O 	-9.16804e-33	0.303	0.575	0.229
Mof_O 	O 	0.5	0.82908	0.59354	-1.048
Mof_C 	C 	0.5	0.733	0.6855	0.031
Mof_H 	H 	0.5	0.7212	0.6413	-0
Mof_O 	O 	0.5	0.803	0.575	0.303
Mof_O 	O 	0.5	0.32908	0.09354	-1.457
Mof_C 	C 	0.5	0.233	0.1855	0.085
Mof_H 	H 	0.5	0.2212	0.1413	-0.019
Mof_O 	O 	0.5	0.303	0.075	0.627
Mof_O 	O 	3.39868e-33	0.17092	0.90646	-1.129
Mof_C 	C 	-2.60809e-33	0.267	0.8145	0.094
Mof_H 	H 	3.21961e-33	0.2788	0.8587	-0.019
Mof_O 	O 	3.46819e-33	0.197	0.925	0.388
Mof_O 	O 	1.00169e-32	0.67092	0.40646	-0.972
Mof_C 	C 	-1.6518e-33	0.767	0.3145	-0.015
Mof_H 	H 	4.1759e-33	0.7788	0.3587	0.017
Mof_O 	O 	7.25547e-33	0.697	0.425	0.211
Mof_O 	O 	0.5	0.17092	0.40646	-1.324
Mof_C 	C 	0.5	0.267	0.3145	0.083
Mof_H 	H 	0.5	0.2788	0.3587	-0.02
Mof_O 	O 	0.5	0.197	0.425	0.51
Mof_O 	O 	0.5	0.67092	0.90646	-1.021
Mof_C 	C 	0.5	0.767	0.8145	0.034
Mof_H 	H 	0.5	0.7788	0.8587	0.015
Mof_O 	O 	0.5	0.697	0.925	0.34
Mof_O 	O 	0.09354	0	0.17092	-1.612
Mof_C 	C 	0.1855	0	0.267	0.272
Mof_H 	H 	0.1413	0	0.2788	-0.098
Mof_O 	O 	0.075	0	0.197	0.697
Mof_O 	O 	0.09354	0.5	0.67092	-1.573
Mof_C 	C 	0.1855	0.5	0.767	0.232
Mof_H 	H 	0.1413	0.5	0.7788	-0.068
Mof_O 	O 	0.075	0.5	0.697	0.712
Mof_O 	O 	0.59354	0	0.67092	-1.111
Mof_C 	C 	0.6855	5.66197e-33	0.767	0.131
Mof_H 	H 	0.6413	0	0.7788	-0.038
Mof_O 	O 	0.575	-5.66197e-33	0.697	0.321
Mof_O 	O 	0.59354	0.5	0.17092	-1.459
Mof_C 	C 	0.6855	0.5	0.267	0.227
Mof_H 	H 	0.6413	0.5	0.2788	-0.074
Mof_O 	O 	0.575	0.5	0.197	0.616
Mof_O 	O 	0.90646	-5.66197e-33	0.82908	-0.721
Mof_C 	C 	0.8145	-5.66197e-33	0.733	-0.102
Mof_H 	H 	0.8587	-5.66197e-33	0.7212	0.054
Mof_O 	O 	0.925	0	0.803	0.076
Mof_O 	O 	0.90646	0.5	0.32908	-0.924
Mof_C 	C 	0.8145	0.5	0.233	-0.11
Mof_H 	H 	0.8587	0.5	0.2212	0.065
Mof_O 	O 	0.925	0.5	0.303	0.274
Mof_O 	O 	0.40646	0	0.32908	-0.861
Mof_C 	C 	0.3145	2.83099e-33	0.233	-0.15
Mof_H 	H 	0.3587	2.83099e-33	0.2212	0.061
Mof_O 	O 	0.425	0	0.303	0.128
Mof_O 	O 	0.40646	0.5	0.82908	-0.925
Mof_C 	C 	0.3145	0.5	0.733	-0.111
Mof_H 	H 	0.3587	0.5	0.7212	0.053
Mof_O 	O 	0.425	0.5	0.803	0.207
Mof_O 	O 	0.09354	-5.66197e-33	0.82908	-1.252
Mof_C 	C 	0.1855	-5.66197e-33	0.733	0.094
Mof_H 	H 	0.1413	-5.66197e-33	0.7212	-0.031
Mof_O 	O 	0.075	0	0.803	0.427
Mof_O 	O 	0.09354	0.5	0.32908	-1.457
Mof_C 	C 	0.1855	0.5	0.233	0.085
Mof_H 	H 	0.1413	0.5	0.2212	-0.019
Mof_O 	O 	0.075	0.5	0.303	0.627
Mof_O 	O 	0.59354	0	0.32908	-0.989
Mof_C 	C 	0.6855	2.83099e-33	0.233	-0.017
Mof_H 	H 	0.6413	2.83099e-33	0.2212	0.012
Mof_O 	O 	0.575	0	0.303	0.229
Mof_O 	O 	0.59354	0.5	0.82908	-1.048
Mof_C 	C 	0.6855	0.5	0.733	0.031
Mof_H 	H 	0.6413	0.5	0.7212	-0
Mof_O 	O 	0.575	0.5	0.803	0.303
Mof_O 	O 	0.90646	0	0.17092	-1.129
Mof_C 	C 	0.8145	0	0.267	0.094
Mof_H 	H 	0.8587	0	0.2788	-0.019
Mof_O 	O 	0.925	0	0.197	0.388
Mof_O 	O 	0.90646	0.5	0.67092	-1.021
Mof_C 	C 	0.8145	0.5	0.767	0.034
Mof_H 	H 	0.8587	0.5	0.7788	0.015
Mof_O 	O 	0.925	0.5	0.697	0.34
Mof_O 	O 	0.40646	0	0.67092	-0.972
Mof_C 	C 	0.3145	5.66197e-33	0.767	-0.015
Mof_H 	H 	0.3587	0	0.7788	0.017
Mof_O 	O 	0.425	-5.66197e-33	0.697	0.211
Mof_O 	O 	0.40646	0.5	0.17092	-1.324
Mof_C 	C 	0.3145	0.5	0.267	0.083
Mof_H 	H 	0.3587	0.5	0.2788	-0.02
Mof_O 	O 	0.425	0.5	0.197	0.51
Mof_O 	O 	0.09354	0.17092	-0	-1.612
Mof_C 	C 	0.1855	0.267	-0	0.272
Mof_H 	H 	0.1413	0.2788	-0	-0.098
Mof_O 	O 	0.075	0.197	-0	0.697
Mof_O 	O 	0.09354	0.67092	0.5	-1.573
Mof_C 	C 	0.1855	0.767	0.5	0.232
Mof_H 	H 	0.1413	0.7788	0.5	-0.068
Mof_O 	O 	0.075	0.697	0.5	0.712
Mof_O 	O 	0.59354	0.17092	0.5	-1.459
Mof_C 	C 	0.6855	0.267	0.5	0.227
Mof_H 	H 	0.6413	0.2788	0.5	-0.074
Mof_O 	O 	0.575	0.197	0.5	0.616
Mof_O 	O 	0.59354	0.67092	-0	-1.111
Mof_C 	C 	0.6855	0.767	-0	0.131
Mof_H 	H 	0.6413	0.7788	-0	-0.038
Mof_O 	O 	0.575	0.697	-0	0.321
Mof_O 	O 	0.90646	0.82908	-0	-0.721
Mof_C 	C 	0.8145	0.733	-0	-0.102
Mof_H 	H 	0.8587	0.7212	-0	0.054
Mof_O 	O 	0.925	0.803	-0	0.076
Mof_O 	O 	0.90646	0.32908	0.5	-0.924
Mof_C 	C 	0.8145	0.233	0.5	-0.11
Mof_H 	H 	0.8587	0.2212	0.5	0.065
Mof_O 	O 	0.925	0.303	0.5	0.274
Mof_O 	O 	0.40646	0.82908	0.5	-0.925
Mof_C 	C 	0.3145	0.733	0.5	-0.111
Mof_H 	H 	0.3587	0.7212	0.5	0.053
Mof_O 	O 	0.425	0.803	0.5	0.207
Mof_O 	O 	0.40646	0.32908	-0	-0.861
Mof_C 	C 	0.3145	0.233	-0	-0.15
Mof_H 	H 	0.3587	0.2212	-0	0.061
Mof_O 	O 	0.425	0.303	-0	0.128
Mof_O 	O 	0.09354	0.82908	-0	-1.252
Mof_C 	C 	0.1855	0.733	-0	0.094
Mof_H 	H 	0.1413	0.7212	-0	-0.031
Mof_O 	O 	0.075	0.803	-0	0.427
Mof_O 	O 	0.09354	0.32908	0.5	-1.457
Mof_C 	C 	0.1855	0.233	0.5	0.085
Mof_H 	H 	0.1413	0.2212	0.5	-0.019
Mof_O 	O 	0.075	0.303	0.5	0.627
Mof_O 	O 	0.59354	0.82908	0.5	-1.048
Mof_C 	C 	0.6855	0.733	0.5	0.031
Mof_H 	H 	0.6413	0.7212	0.5	-0
Mof_O 	O 	0.575	0.803	0.5	0.303
Mof_O 	O 	0.59354	0.32908	-0	-0.989
Mof_C 	C 	0.6855	0.233	-0	-0.017
Mof_H 	H 	0.6413	0.2212	-0	0.012
Mof_O 	O 	0.575	0.303	-0	0.229
Mof_O 	O 	0.90646	0.17092	-0	-1.129
Mof_C 	C 	0.8145	0.267	-0	0.094
Mof_H 	H 	0.8587	0.2788	-0	-0.019
Mof_O 	O 	0.925	0.197	-0	0.388
Mof_O 	O 	0.90646	0.67092	0.5	-1.021
Mof_C 	C 	0.8145	0.767	0.5	0.034
Mof_H 	H 	0.8587	0.7788	0.5	0.015
Mof_O 	O 	0.925	0.697	0.5	0.34
Mof_O 	O 	0.40646	0.17092	0.5	-1.324
Mof_C 	C 	0.3145	0.267	0.5	0.083
Mof_H 	H 	0.3587	0.2788	0.5	-0.02
Mof_O 	O 	0.425	0.197	0.5	0.51
Mof_O 	O 	0.40646	0.67092	-0	-0.972
Mof_C 	C 	0.3145	0.767	-0	-0.015
Mof_H 	H 	0.3587	0.7788	-0	0.017
Mof_O 	O 	0.425	0.697	-0	0.211
Mof_O 	O 	0.17092	0	0.90646	-1.129
Mof_C 	C 	0.267	5.66197e-33	0.8145	0.094
Mof_H 	H 	0.2788	0	0.8587	-0.019
Mof_O 	O 	0.197	-1.13239e-32	0.925	0.388
Mof_O 	O 	0.17092	0.5	0.40646	-1.324
Mof_C 	C 	0.267	0.5	0.3145	0.083
Mof_H 	H 	0.2788	0.5	0.3587	-0.02
Mof_O 	O 	0.197	0.5	0.425	0.51
Mof_O 	O 	0.67092	2.83099e-33	0.40646	-0.972
Mof_C 	C 	0.767	0	0.3145	-0.015
Mof_H 	H 	0.7788	0	0.3587	0.017
Mof_O 	O 	0.697	-5.66197e-33	0.425	0.211
Mof_O 	O 	0.67092	0.5	0.90646	-1.021
Mof_C 	C 	0.767	0.5	0.8145	0.034
Mof_H 	H 	0.7788	0.5	0.8587	0.015
Mof_O 	O 	0.697	0.5	0.925	0.34
Mof_O 	O 	0.82908	0	0.09354	-1.252
Mof_C 	C 	0.733	0	0.1855	0.094
Mof_H 	H 	0.7212	1.41549e-33	0.1413	-0.031
Mof_O 	O 	0.803	0	0.075	0.427
Mof_O 	O 	0.82908	0.5	0.59354	-1.048
Mof_C 	C 	0.733	0.5	0.6855	0.031
Mof_H 	H 	0.7212	0.5	0.6413	-0
Mof_O 	O 	0.803	0.5	0.575	0.303
Mof_O 	O 	0.32908	5.66197e-33	0.59354	-0.989
Mof_C 	C 	0.233	0	0.6855	-0.017
Mof_H 	H 	0.2212	-5.66197e-33	0.6413	0.012
Mof_O 	O 	0.303	-5.66197e-33	0.575	0.229
Mof_O 	O 	0.32908	0.5	0.09354	-1.457
Mof_C 	C 	0.233	0.5	0.1855	0.085
Mof_H 	H 	0.2212	0.5	0.1413	-0.019
Mof_O 	O 	0.303	0.5	0.075	0.627
Mof_O 	O 	0.82908	0	0.90646	-0.721
Mof_C 	C 	0.733	5.66197e-33	0.8145	-0.102
Mof_H 	H 	0.7212	0	0.8587	0.054
Mof_O 	O 	0.803	-1.13239e-32	0.925	0.076
Mof_O 	O 	0.82908	0.5	0.40646	-0.925
Mof_C 	C 	0.733	0.5	0.3145	-0.111
Mof_H 	H 	0.7212	0.5	0.3587	0.053
Mof_O 	O 	0.803	0.5	0.425	0.207
Mof_O 	O 	0.32908	2.83099e-33	0.40646	-0.861
Mof_C 	C 	0.233	0	0.3145	-0.15
Mof_H 	H 	0.2212	0	0.3587	0.061
Mof_O 	O 	0.303	-5.66197e-33	0.425	0.128
Mof_O 	O 	0.32908	0.5	0.90646	-0.924
Mof_C 	C 	0.233	0.5	0.8145	-0.11
Mof_H 	H 	0.2212	0.5	0.8587	0.065
Mof_O 	O 	0.303	0.5	0.925	0.274
Mof_O 	O 	0.17092	0	0.09354	-1.612
Mof_C 	C 	0.267	0	0.1855	0.272
Mof_H 	H 	0.2788	1.41549e-33	0.1413	-0.098
Mof_O 	O 	0.197	0	0.075	0.697
Mof_O 	O 	0.17092	0.5	0.59354	-1.459
Mof_C 	C 	0.267	0.5	0.6855	0.227
Mof_H 	H 	0.2788	0.5	0.6413	-0.074
Mof_O 	O 	0.197	0.5	0.575	0.616
Mof_O 	O 	0.67092	5.66197e-33	0.59354	-1.111
Mof_C 	C 	0.767	0	0.6855	0.131
Mof_H 	H 	0.7788	-5.66197e-33	0.6413	-0.038
Mof_O 	O 	0.697	-5.66197e-33	0.575	0.321
Mof_O 	O 	0.67092	0.5	0.09354	-1.573
Mof_C 	C 	0.767	0.5	0.1855	0.232
Mof_H 	H 	0.7788	0.5	0.1413	-0.068
Mof_O 	O 	0.697	0.5	0.075	0.712
Mof_O 	O 	-8.21539e-33	0.09354	0.82908	-1.252
Mof_C 	C 	2.74831e-33	0.1855	0.733	0.094
Mof_H 	H 	-2.95791e-33	0.1413	0.7212	-0.031
Mof_O 	O 	3.01077e-33	0.075	0.803	0.427
Mof_O 	O 	6.89582e-33	0.59354	0.32908	-0.989
Mof_C 	C 	6.53558e-33	0.6855	0.233	-0.017
Mof_H 	H 	-2.00162e-33	0.6413	0.2212	0.012
Mof_O 	O 	-4.5259e-33	0.575	0.303	0.229
Mof_O 	O 	0.5	0.09354	0.32908	-1.457
Mof_C 	C 	0.5	0.1855	0.233	0.085
Mof_H 	H 	0.5	0.1413	0.2212	-0.019
Mof_O 	O 	0.5	0.075	0.303	0.627
Mof_O 	O 	0.5	0.59354	0.82908	-1.048
Mof_C 	C 	0.5	0.6855	0.733	0.031
Mof_H 	H 	0.5	0.6413	0.7212	-0
Mof_O 	O 	0.5	0.575	0.803	0.303
Mof_O 	O 	3.47183e-33	0.90646	0.17092	-1.129
Mof_C 	C 	1.00109e-33	0.8145	0.267	0.094
Mof_H 	H 	3.87632e-33	0.8587	0.2788	-0.019
Mof_O 	O 	7.38632e-34	0.925	0.197	0.388
Mof_O 	O 	1.38395e-32	0.40646	0.67092	-0.972
Mof_C 	C 	-2.78618e-33	0.3145	0.767	-0.015
Mof_H 	H 	2.92003e-33	0.3587	0.7788	0.017
Mof_O 	O 	8.2753e-33	0.425	0.697	0.211
Mof_O 	O 	0.5	0.90646	0.67092	-1.021
Mof_C 	C 	0.5	0.8145	0.767	0.034
Mof_H 	H 	0.5	0.8587	0.7788	0.015
Mof_O 	O 	0.5	0.925	0.697	0.34
Mof_O 	O 	0.5	0.40646	0.17092	-1.324
Mof_C 	C 	0.5	0.3145	0.267	0.083
Mof_H 	H 	0.5	0.3587	0.2788	-0.02
Mof_O 	O 	0.5	0.425	0.197	0.51
Mof_O 	O 	6.40847e-34	0.09354	0.17092	-1.612
Mof_C 	C 	-4.66088e-33	0.1855	0.267	0.272
Mof_H 	H 	-1.78565e-33	0.1413	0.2788	-0.098
Mof_O 	O 	7.38632e-34	0.075	0.197	0.697
Mof_O 	O 	1.38395e-32	0.59354	0.67092	-1.111
Mof_C 	C 	-8.44816e-33	0.6855	0.767	0.131
Mof_H 	H 	-2.74194e-33	0.6413	0.7788	-0.038
Mof_O 	O 	1.39373e-32	0.575	0.697	0.321
Mof_O 	O 	0.5	0.09354	0.67092	-1.573
Mof_C 	C 	0.5	0.1855	0.767	0.232
Mof_H 	H 	0.5	0.1413	0.7788	-0.068
Mof_O 	O 	0.5	0.075	0.697	0.712
Mof_O 	O 	0.5	0.59354	0.17092	-1.459
Mof_C 	C 	0.5	0.6855	0.267	0.227
Mof_H 	H 	0.5	0.6413	0.2788	-0.074
Mof_O 	O 	0.5	0.575	0.197	0.616
Mof_O 	O 	8.77052e-33	0.90646	0.82908	-0.721
Mof_C 	C 	2.74831e-33	0.8145	0.733	-0.102
Mof_H 	H 	1.4028e-32	0.8587	0.7212	0.054
Mof_O 	O 	1.43347e-32	0.925	0.803	0.076
Mof_O 	O 	-1.59713e-33	0.40646	0.32908	-0.861
Mof_C 	C 	3.7046e-33	0.3145	0.233	-0.15
Mof_H 	H 	6.49134e-33	0.3587	0.2212	0.061
Mof_O 	O 	1.13607e-33	0.425	0.303	0.128
Mof_O 	O 	0.5	0.90646	0.32908	-0.924
Mof_C 	C 	0.5	0.8145	0.233	-0.11
Mof_H 	H 	0.5	0.8587	0.2212	0.065
Mof_O 	O 	0.5	0.925	0.303	0.274
Mof_O 	O 	0.5	0.40646	0.82908	-0.925
Mof_C 	C 	0.5	0.3145	0.733	-0.111
Mof_H 	H 	0.5	0.3587	0.7212	0.053
Mof_O 	O 	0.5	0.425	0.803	0.207
Mof_C 	C 	0.1516	0.1516	-0	1.333
Mof_C 	C 	0.2027	0.2027	-0	-0.511
Mof_C 	C 	0.1516	0.6516	0.5	1.242
Mof_C 	C 	0.2027	0.7027	0.5	-0.467
Mof_C 	C 	0.6516	0.1516	0.5	1.242
Mof_C 	C 	0.7027	0.2027	0.5	-0.467
Mof_C 	C 	0.6516	0.6516	-0	0.856
Mof_C 	C 	0.7027	0.7027	-0	-0.328
Mof_C 	C 	0.8484	0.8484	-0	0.457
Mof_C 	C 	0.7973	0.7973	-0	-0.093
Mof_C 	C 	0.8484	0.3484	0.5	0.653
Mof_C 	C 	0.7973	0.2973	0.5	-0.11
Mof_C 	C 	0.3484	0.8484	0.5	0.653
Mof_C 	C 	0.2973	0.7973	0.5	-0.11
Mof_C 	C 	0.3484	0.3484	-0	0.602
Mof_C 	C 	0.2973	0.2973	-0	-0.061
Mof_C 	C 	0.8484	0.1516	-0	0.916
Mof_C 	C 	0.7973	0.2027	-0	-0.313
Mof_C 	C 	0.8484	0.6516	0.5	0.768
Mof_C 	C 	0.7973	0.7027	0.5	-0.244
Mof_C 	C 	0.3484	0.1516	0.5	1.114
Mof_C 	C 	0.2973	0.2027	0.5	-0.329
Mof_C 	C 	0.3484	0.6516	-0	0.724
Mof_C 	C 	0.2973	0.7027	-0	-0.188
Mof_C 	C 	0.1516	0.8484	-0	0.916
Mof_C 	C 	0.2027	0.7973	-0	-0.313
Mof_C 	C 	0.1516	0.3484	0.5	1.114
Mof_C 	C 	0.2027	0.2973	0.5	-0.329
Mof_C 	C 	0.6516	0.8484	0.5	0.768
Mof_C 	C 	0.7027	0.7973	0.5	-0.244
Mof_C 	C 	0.6516	0.3484	-0	0.724
Mof_C 	C 	0.7027	0.2973	-0	-0.188
Mof_C 	C 	5.68409e-34	0.1516	0.1516	1.333
Mof_C 	C 	3.59099e-33	0.2027	0.2027	-0.511
Mof_C 	C 	1.37671e-32	0.6516	0.6516	0.856
Mof_C 	C 	8.29668e-33	0.7027	0.7027	-0.328
Mof_C 	C 	0.5	0.1516	0.6516	1.242
Mof_C 	C 	0.5	0.2027	0.7027	-0.467
Mof_C 	C 	0.5	0.6516	0.1516	1.242
Mof_C 	C 	0.5	0.7027	0.2027	-0.467
Mof_C 	C 	3.18099e-33	0.8484	0.8484	0.457
Mof_C 	C 	2.9894e-33	0.7973	0.7973	-0.093
Mof_C 	C 	1.30629e-33	0.3484	0.3484	0.602
Mof_C 	C 	1.1147e-33	0.2973	0.2973	-0.061
Mof_C 	C 	0.5	0.8484	0.3484	0.653
Mof_C 	C 	0.5	0.7973	0.2973	-0.11
Mof_C 	C 	0.5	0.3484	0.8484	0.653
Mof_C 	C 	0.5	0.2973	0.7973	-0.11
Mof_C 	C 	4.81489e-33	0.8484	0.1516	0.916
Mof_C 	C 	3.59099e-33	0.7973	0.2027	-0.313
Mof_C 	C 	-3.21886e-33	0.3484	0.6516	0.724
Mof_C 	C 	8.29668e-33	0.2973	0.7027	-0.188
Mof_C 	C 	0.5	0.8484	0.6516	0.768
Mof_C 	C 	0.5	0.7973	0.7027	-0.244
Mof_C 	C 	0.5	0.3484	0.1516	1.114
Mof_C 	C 	0.5	0.2973	0.2027	-0.329
Mof_C 	C 	3.18099e-33	0.1516	0.8484	0.916
Mof_C 	C 	2.9894e-33	0.2027	0.7973	-0.313
Mof_C 	C 	-1.5247e-33	0.6516	0.3484	0.724
Mof_C 	C 	9.60766e-33	0.7027	0.2973	-0.188
Mof_C 	C 	0.5	0.1516	0.3484	1.114
Mof_C 	C 	0.5	0.2027	0.2973	-0.329
Mof_C 	C 	0.5	0.6516	0.8484	0.768
Mof_C 	C 	0.5	0.7027	0.7973	-0.244
Mof_C 	C 	0.1516	0	0.1516	1.333
Mof_C 	C 	0.2027	0	0.2027	-0.511
Mof_C 	C 	0.1516	0.5	0.6516	1.242
Mof_C 	C 	0.2027	0.5	0.7027	-0.467
Mof_C 	C 	0.6516	5.66197e-33	0.6516	0.856
Mof_C 	C 	0.7027	0	0.7027	-0.328
Mof_C 	C 	0.6516	0.5	0.1516	1.242
Mof_C 	C 	0.7027	0.5	0.2027	-0.467
Mof_C 	C 	0.8484	0	0.8484	0.457
Mof_C 	C 	0.7973	0	0.7973	-0.093
Mof_C 	C 	0.8484	0.5	0.3484	0.653
Mof_C 	C 	0.7973	0.5	0.2973	-0.11
Mof_C 	C 	0.3484	0	0.3484	0.602
Mof_C 	C 	0.2973	0	0.2973	-0.061
Mof_C 	C 	0.3484	0.5	0.8484	0.653
Mof_C 	C 	0.2973	0.5	0.7973	-0.11
Mof_C 	C 	0.1516	0	0.8484	0.916
Mof_C 	C 	0.2027	0	0.7973	-0.313
Mof_C 	C 	0.1516	0.5	0.3484	1.114
Mof_C 	C 	0.2027	0.5	0.2973	-0.329
Mof_C 	C 	0.6516	0	0.3484	0.724
Mof_C 	C 	0.7027	0	0.2973	-0.188
Mof_C 	C 	0.6516	0.5	0.8484	0.768
Mof_C 	C 	0.7027	0.5	0.7973	-0.244
Mof_C 	C 	0.8484	0	0.1516	0.916
Mof_C 	C 	0.7973	0	0.2027	-0.313
Mof_C 	C 	0.8484	0.5	0.6516	0.768
Mof_C 	C 	0.7973	0.5	0.7027	-0.244
Mof_C 	C 	0.3484	5.66197e-33	0.6516	0.724
Mof_C 	C 	0.2973	0	0.7027	-0.188
Mof_C 	C 	0.3484	0.5	0.1516	1.114
Mof_C 	C 	0.2973	0.5	0.2027	-0.329
Mof_O 	O 	0.0672	0.0672	0.0672	24.312
Mof_O 	O 	0.0502	0.0502	0.0502	-21.581
Mof_H 	H 	0.0945	0.0945	0.0945	-7.187
Mof_O 	O 	0.0672	0.5672	0.5672	10.655
Mof_O 	O 	0.0502	0.5502	0.5502	-9.914
Mof_H 	H 	0.0945	0.5945	0.5945	-3.167
Mof_O 	O 	0.5672	0.0672	0.5672	10.655
Mof_O 	O 	0.5502	0.0502	0.5502	-9.914
Mof_H 	H 	0.5945	0.0945	0.5945	-3.167
Mof_O 	O 	0.5672	0.5672	0.0672	10.655
Mof_O 	O 	0.5502	0.5502	0.0502	-9.914
Mof_H 	H 	0.5945	0.5945	0.0945	-3.167
Mof_O 	O 	0.9328	0.9328	0.0672	-4.93
Mof_O 	O 	0.9498	0.9498	0.0502	3.412
Mof_H 	H 	0.9055	0.9055	0.0945	1.453
Mof_O 	O 	0.9328	0.4328	0.5672	-5.278
Mof_O 	O 	0.9498	0.4498	0.5502	3.694
Mof_H 	H 	0.9055	0.4055	0.5945	1.538
Mof_O 	O 	0.4328	0.9328	0.5672	-5.278
Mof_O 	O 	0.4498	0.9498	0.5502	3.694
Mof_H 	H 	0.4055	0.9055	0.5945	1.538
Mof_O 	O 	0.4328	0.4328	0.0672	9.487
Mof_O 	O 	0.4498	0.4498	0.0502	-8.928
Mof_H 	H 	0.4055	0.4055	0.0945	-2.825
Mof_O 	O 	0.9328	0.0672	0.9328	-4.93
Mof_O 	O 	0.9498	0.0502	0.9498	3.412
Mof_H 	H 	0.9055	0.0945	0.9055	1.453
Mof_O 	O 	0.9328	0.5672	0.4328	-5.278
Mof_O 	O 	0.9498	0.5502	0.4498	3.694
Mof_H 	H 	0.9055	0.5945	0.4055	1.538
Mof_O 	O 	0.4328	0.0672	0.4328	9.487
Mof_O 	O 	0.4498	0.0502	0.4498	-8.928
Mof_H 	H 	0.4055	0.0945	0.4055	-2.825
Mof_O 	O 	0.4328	0.5672	0.9328	-5.278
Mof_O 	O 	0.4498	0.5502	0.9498	3.694
Mof_H 	H 	0.4055	0.5945	0.9055	1.538
Mof_O 	O 	0.0672	0.9328	0.9328	-4.93
Mof_O 	O 	0.0502	0.9498	0.9498	3.412
Mof_H 	H 	0.0945	0.9055	0.9055	1.453
Mof_O 	O 	0.0672	0.4328	0.4328	9.487
Mof_O 	O 	0.0502	0.4498	0.4498	-8.928
Mof_H 	H 	0.0945	0.4055	0.4055	-2.825
Mof_O 	O 	0.5672	0.9328	0.4328	-5.278
Mof_O 	O 	0.5502	0.9498	0.4498	3.694
Mof_H 	H 	0.5945	0.9055	0.4055	1.538
Mof_O 	O 	0.5672	0.4328	0.9328	-5.278
Mof_O 	O 	0.5502	0.4498	0.9498	3.694
Mof_H 	H 	0.5945	0.4055	0.9055	1.538
Mof_O 	O 	0.0672	0.0672	0.9328	9.752
Mof_O 	O 	0.0502	0.0502	0.9498	-9.133
Mof_H 	H 	0.0945	0.0945	0.9055	-2.883
Mof_O 	O 	0.0672	0.5672	0.4328	10.072
Mof_O 	O 	0.0502	0.5502	0.4498	-9.422
Mof_H 	H 	0.0945	0.5945	0.4055	-2.996
Mof_O 	O 	0.5672	0.0672	0.4328	10.072
Mof_O 	O 	0.5502	0.0502	0.4498	-9.422
Mof_H 	H 	0.5945	0.0945	0.4055	-2.996
Mof_O 	O 	0.5672	0.5672	0.9328	-4.701
Mof_O 	O 	0.5502	0.5502	0.9498	3.206
Mof_H 	H 	0.5945	0.5945	0.9055	1.368
Mof_O 	O 	0.9328	0.9328	0.9328	-19.733
Mof_O 	O 	0.9498	0.9498	0.9498	16.054
Mof_H 	H 	0.9055	0.9055	0.9055	5.818
Mof_O 	O 	0.9328	0.4328	0.4328	-5.856
Mof_O 	O 	0.9498	0.4498	0.4498	4.184
Mof_H 	H 	0.9055	0.4055	0.4055	1.708
Mof_O 	O 	0.4328	0.9328	0.4328	-5.856
Mof_O 	O 	0.4498	0.9498	0.4498	4.184
Mof_H 	H 	0.4055	0.9055	0.4055	1.708
Mof_O 	O 	0.4328	0.4328	0.9328	-5.856
Mof_O 	O 	0.4498	0.4498	0.9498	4.184
Mof_H 	H 	0.4055	0.4055	0.9055	1.708
Mof_O 	O 	0.0672	0.9328	0.0672	9.752
Mof_O 	O 	0.0502	0.9498	0.0502	-9.133
Mof_H 	H 	0.0945	0.9055	0.0945	-2.883
Mof_O 	O 	0.0672	0.4328	0.5672	10.072
Mof_O 	O 	0.0502	0.4498	0.5502	-9.422
Mof_H 	H 	0.0945	0.4055	0.5945	-2.996
Mof_O 	O 	0.5672	0.9328	0.5672	-4.701
Mof_O 	O 	0.5502	0.9498	0.5502	3.206
Mof_H 	H 	0.5945	0.9055	0.5945	1.368
Mof_O 	O 	0.5672	0.4328	0.0672	10.072
Mof_O 	O 	0.5502	0.4498	0.0502	-9.422
Mof_H 	H 	0.5945	0.4055	0.0945	-2.996
Mof_O 	O 	0.9328	0.0672	0.0672	9.752
Mof_O 	O 	0.9498	0.0502	0.0502	-9.133
Mof_H 	H 	0.9055	0.0945	0.0945	-2.883
Mof_O 	O 	0.9328	0.5672	0.5672	-4.701
Mof_O 	O 	0.9498	0.5502	0.5502	3.206
Mof_H 	H 	0.9055	0.5945	0.5945	1.368
Mof_O 	O 	0.4328	0.0672	0.5672	10.072
Mof_O 	O 	0.4498	0.0502	0.5502	-9.422
Mof_H 	H 	0.4055	0.0945	0.5945	-2.996
Mof_O 	O 	0.4328	0.5672	0.0672	10.072
Mof_O 	O 	0.4498	0.5502	0.0502	-9.422
Mof_H 	H 	0.4055	0.5945	0.0945	-2.996
_end
