data_functionalizedCrystal
_audit_creation_method	'EQeq! by Chris Wilmer'
_symmetry_space_group_name_H-M	'P1'
_symmetry_Int_Tables_number	1
_symmetry_cell_setting	triclinic
loop_
_symmetry_equiv_pos_as_xyz
  x,y,z
_cell_length_a	14.873
_cell_length_b	18.9293
_cell_length_c	18.9293
_cell_angle_alpha	66.6024
_cell_angle_beta	74.8169
_cell_angle_gamma	105.183
loop_
_atom_site_label
_atom_site_type_symbol
_atom_site_fract_x
_atom_site_fract_y
_atom_site_fract_z
_atom_site_charge
Mof_Mg	Mg	0.09877	0.71502	0.32577	1.454
Mof_Mg	Mg	0.42454	0.32577	0.95921	1.462
Mof_Mg	Mg	0.38375	0.95921	0.71502	1.463
Mof_Mg	Mg	0.90123	0.28498	0.67423	1.459
Mof_Mg	Mg	0.57546	0.67423	0.04079	1.452
Mof_Mg	Mg	0.61625	0.04079	0.28498	1.451
Mof_Mg	Mg	-5.28935e-17	0.5	0.5	1.473
Mof_Mg	Mg	0.5	0.5	-0	1.47
Mof_Mg	Mg	0.5	5.28935e-17	0.5	1.471
Mof_H 	H 	0.2839	0.619	0.1903	0.024
Mof_H 	H 	0.1889	0.4011	0.1824	0.042
Mof_H 	H 	0.0041	0.4525	0.3448	0.054
Mof_H 	H 	0.0278	0.3387	0.1899	-0.183
Mof_H 	H 	0.8725	0.2421	0.2226	0.229
Mof_H 	H 	0.7795	0.1836	0.4596	0.15
Mof_H 	H 	0.9323	0.2915	0.4076	-0.229
Mof_H 	H 	0.4742	0.1903	0.1907	0.019
Mof_H 	H 	0.3713	0.1824	0.4165	0.054
Mof_H 	H 	0.3489	0.3448	0.2027	0.076
Mof_H 	H 	0.2177	0.1899	0.4714	-0.108
Mof_H 	H 	0.0951	0.2226	0.5353	0.189
Mof_H 	H 	0.2391	0.4596	0.3568	0.165
Mof_H 	H 	0.3399	0.4076	0.3009	-0.296
Mof_H 	H 	0.6649	0.1907	0.619	0.033
Mof_H 	H 	0.7878	0.4165	0.4011	0.066
Mof_H 	H 	0.5516	0.2027	0.4525	0.079
Mof_H 	H 	0.6891	0.4714	0.3387	-0.095
Mof_H 	H 	0.6304	0.5353	0.2421	0.199
Mof_H 	H 	0.5959	0.3568	0.1836	0.157
Mof_H 	H 	0.6408	0.3009	0.2915	-0.287
Mof_H 	H 	0.7161	0.381	0.8097	0.046
Mof_H 	H 	0.8111	0.5989	0.8176	0.079
Mof_H 	H 	0.9959	0.5475	0.6552	0.108
Mof_H 	H 	0.9722	0.6613	0.8101	-0.004
Mof_H 	H 	0.1275	0.7579	0.7774	0.166
Mof_H 	H 	0.2205	0.8164	0.5404	0.172
Mof_H 	H 	0.0677	0.7085	0.5924	-0.339
Mof_H 	H 	0.5258	0.8097	0.8093	0.051
Mof_H 	H 	0.6287	0.8176	0.5835	0.066
Mof_H 	H 	0.6511	0.6552	0.7973	0.085
Mof_H 	H 	0.7823	0.8101	0.5286	-0.083
Mof_H 	H 	0.9049	0.7774	0.4647	0.208
Mof_H 	H 	0.7609	0.5404	0.6432	0.156
Mof_H 	H 	0.6601	0.5924	0.6991	-0.266
Mof_H 	H 	0.3351	0.8093	0.381	0.036
Mof_H 	H 	0.2122	0.5835	0.5989	0.055
Mof_H 	H 	0.4484	0.7973	0.5475	0.082
Mof_H 	H 	0.3109	0.5286	0.6613	-0.097
Mof_H 	H 	0.3696	0.4647	0.7579	0.198
Mof_H 	H 	0.4041	0.6432	0.8164	0.164
Mof_H 	H 	0.3592	0.6991	0.7085	-0.275
Mof_C 	C 	0.14149	0.54425	0.26822	-0.105
Mof_C 	C 	0.23558	0.56868	0.20622	0.029
Mof_C 	C 	0.25302	0.51548	0.17618	-0.124
Mof_C 	C 	0.17361	0.43878	0.20622	-0.043
Mof_C 	C 	0.07801	0.41384	0.26798	0.082
Mof_C 	C 	0.06365	0.46591	0.30097	-0.072
Mof_C 	C 	0.12511	0.60475	0.29677	0.355
Mof_C 	C 	0.35835	0.54254	0.11291	0.443
Mof_C 	C 	0.99036	0.33483	0.29568	-0.302
Mof_C 	C 	0.97466	0.31425	0.23667	0.413
Mof_C 	C 	0.88749	0.24678	0.25911	-0.483
Mof_C 	C 	0.81448	0.19775	0.34133	0.165
Mof_C 	C 	0.83211	0.21626	0.40088	-0.352
Mof_C 	C 	0.91949	0.28396	0.37864	0.504
Mof_C 	C 	0.71802	0.12729	0.36312	0.365
Mof_C 	C 	0.40971	0.26822	0.18753	-0.095
Mof_C 	C 	0.4418	0.20622	0.2251	0.018
Mof_C 	C 	0.4292	0.17618	0.30834	-0.113
Mof_C 	C 	0.37983	0.20622	0.355	-0.066
Mof_C 	C 	0.34599	0.26798	0.31818	0.138
Mof_C 	C 	0.36462	0.30097	0.23312	-0.099
Mof_C 	C 	0.42188	0.29677	0.09848	0.352
Mof_C 	C 	0.47126	0.11291	0.34455	0.439
Mof_C 	C 	0.28604	0.29568	0.36949	-0.351
Mof_C 	C 	0.21133	0.23667	0.44908	0.3
Mof_C 	C 	0.1466	0.25911	0.49411	-0.412
Mof_C 	C 	0.15581	0.34133	0.46092	0.153
Mof_C 	C 	0.23299	0.40088	0.38286	-0.392
Mof_C 	C 	0.29813	0.37864	0.3374	0.604
Mof_C 	C 	0.08114	0.36312	0.50959	0.367
Mof_C 	C 	0.59724	0.18753	0.54425	-0.083
Mof_C 	C 	0.6669	0.2251	0.56868	0.011
Mof_C 	C 	0.73754	0.30834	0.51548	-0.095
Mof_C 	C 	0.73483	0.355	0.43878	-0.068
Mof_C 	C 	0.66417	0.31818	0.41384	0.143
Mof_C 	C 	0.59774	0.23312	0.46591	-0.101
Mof_C 	C 	0.52036	0.09848	0.60475	0.348
Mof_C 	C 	0.81581	0.34455	0.54254	0.434
Mof_C 	C 	0.65553	0.36949	0.33483	-0.34
Mof_C 	C 	0.66041	0.44908	0.31425	0.299
Mof_C 	C 	0.64071	0.49411	0.24678	-0.405
Mof_C 	C 	0.61673	0.46092	0.19775	0.15
Mof_C 	C 	0.61585	0.38286	0.21626	-0.382
Mof_C 	C 	0.63553	0.3374	0.28396	0.585
Mof_C 	C 	0.59073	0.50959	0.12729	0.371
Mof_C 	C 	0.85851	0.45575	0.73178	-0.051
Mof_C 	C 	0.76442	0.43132	0.79378	-0.009
Mof_C 	C 	0.74698	0.48452	0.82382	-0.071
Mof_C 	C 	0.82639	0.56122	0.79378	-0.093
Mof_C 	C 	0.92199	0.58616	0.73202	0.204
Mof_C 	C 	0.93635	0.53409	0.69903	-0.132
Mof_C 	C 	0.87489	0.39525	0.70323	0.336
Mof_C 	C 	0.64165	0.45746	0.88709	0.428
Mof_C 	C 	0.00964	0.66517	0.70432	-0.374
Mof_C 	C 	0.02534	0.68575	0.76333	0.174
Mof_C 	C 	0.11251	0.75322	0.74089	-0.32
Mof_C 	C 	0.18552	0.80225	0.65867	0.139
Mof_C 	C 	0.16789	0.78374	0.59912	-0.406
Mof_C 	C 	0.08051	0.71604	0.62136	0.658
Mof_C 	C 	0.28198	0.87271	0.63688	0.372
Mof_C 	C 	0.59029	0.73178	0.81247	-0.061
Mof_C 	C 	0.5582	0.79378	0.7749	0.003
Mof_C 	C 	0.5708	0.82382	0.69166	-0.082
Mof_C 	C 	0.62017	0.79378	0.645	-0.068
Mof_C 	C 	0.65401	0.73202	0.68182	0.145
Mof_C 	C 	0.63538	0.69903	0.76688	-0.103
Mof_C 	C 	0.57812	0.70323	0.90152	0.339
Mof_C 	C 	0.52874	0.88709	0.65545	0.432
Mof_C 	C 	0.71396	0.70432	0.63051	-0.322
Mof_C 	C 	0.78867	0.76333	0.55092	0.294
Mof_C 	C 	0.8534	0.74089	0.50589	-0.395
Mof_C 	C 	0.84419	0.65867	0.53908	0.151
Mof_C 	C 	0.76701	0.59912	0.61714	-0.361
Mof_C 	C 	0.70187	0.62136	0.6626	0.549
Mof_C 	C 	0.91886	0.63688	0.49041	0.37
Mof_C 	C 	0.40276	0.81247	0.45575	-0.074
Mof_C 	C 	0.3331	0.7749	0.43132	0.01
Mof_C 	C 	0.26246	0.69166	0.48452	-0.101
Mof_C 	C 	0.26517	0.645	0.56122	-0.066
Mof_C 	C 	0.33583	0.68182	0.58616	0.139
Mof_C 	C 	0.40226	0.76688	0.53409	-0.101
Mof_C 	C 	0.47964	0.90152	0.39525	0.342
Mof_C 	C 	0.18419	0.65545	0.45746	0.438
Mof_C 	C 	0.34447	0.63051	0.66517	-0.333
Mof_C 	C 	0.33959	0.55092	0.68575	0.295
Mof_C 	C 	0.35929	0.50589	0.75322	-0.403
Mof_C 	C 	0.38327	0.53908	0.80225	0.154
Mof_C 	C 	0.38415	0.61714	0.78374	-0.372
Mof_C 	C 	0.36447	0.6626	0.71604	0.569
Mof_C 	C 	0.40927	0.49041	0.87271	0.366
Mof_O 	O 	0.05299	0.57969	0.36615	-0.616
Mof_O 	O 	0.18181	0.68221	0.24718	-0.529
Mof_O 	O 	0.37323	0.49503	0.0849	-0.513
Mof_O 	O 	0.42322	0.61275	0.09345	-0.578
Mof_O 	O 	0.65258	0.08448	0.43698	-0.499
Mof_O 	O 	0.71227	0.11834	0.30227	-0.603
Mof_O 	O 	0.41914	0.36615	0.05416	-0.631
Mof_O 	O 	0.42899	0.24718	0.07061	-0.559
Mof_O 	O 	0.45813	0.0849	0.42007	-0.509
Mof_O 	O 	0.51667	0.09345	0.2938	-0.583
Mof_O 	O 	0.08956	0.43698	0.47854	-0.491
Mof_O 	O 	0.01454	0.30227	0.57939	-0.609
Mof_O 	O 	0.4733	0.05416	0.57969	-0.623
Mof_O 	O 	0.4996	0.07061	0.68221	-0.536
Mof_O 	O 	0.8782	0.42007	0.49503	-0.471
Mof_O 	O 	0.81047	0.2938	0.61275	-0.548
Mof_O 	O 	0.5681	0.47854	0.08448	-0.502
Mof_O 	O 	0.59393	0.57939	0.11834	-0.597
Mof_O 	O 	0.94701	0.42031	0.63385	-0.574
Mof_O 	O 	0.81819	0.31779	0.75282	-0.505
Mof_O 	O 	0.62677	0.50497	0.9151	-0.46
Mof_O 	O 	0.57678	0.38725	0.90655	-0.532
Mof_O 	O 	0.34742	0.91552	0.56302	-0.459
Mof_O 	O 	0.28773	0.88166	0.69773	-0.566
Mof_O 	O 	0.58086	0.63385	0.94584	-0.556
Mof_O 	O 	0.57101	0.75282	0.92939	-0.473
Mof_O 	O 	0.54187	0.9151	0.57993	-0.463
Mof_O 	O 	0.48333	0.90655	0.7062	-0.526
Mof_O 	O 	0.91044	0.56302	0.52146	-0.468
Mof_O 	O 	0.98546	0.69773	0.42061	-0.561
Mof_O 	O 	0.5267	0.94584	0.42031	-0.565
Mof_O 	O 	0.5004	0.92939	0.31779	-0.497
Mof_O 	O 	0.1218	0.57993	0.50497	-0.503
Mof_O 	O 	0.18953	0.7062	0.38725	-0.562
Mof_O 	O 	0.4319	0.52146	0.91552	-0.456
Mof_O 	O 	0.40607	0.42061	0.88166	-0.572
_end
