data_functionalizedCrystal
_audit_creation_method	'EQeq! by Chris Wilmer'
_symmetry_space_group_name_H-M	'P1'
_symmetry_Int_Tables_number	1
_symmetry_cell_setting	triclinic
loop_
_symmetry_equiv_pos_as_xyz
  x,y,z
_cell_length_a	13.916
_cell_length_b	26.638
_cell_length_c	7.631
_cell_angle_alpha	90
_cell_angle_beta	90
_cell_angle_gamma	90
loop_
_atom_site_label
_atom_site_type_symbol
_atom_site_fract_x
_atom_site_fract_y
_atom_site_fract_z
_atom_site_charge
Mof_Cd	Cd	0.21815	0.11477	0.13366	0.33
Mof_N 	N 	0.2474	0.1723	0.912	-0.054
Mof_N 	N 	0.2344	0.1704	0.353	-0.08
Mof_N 	N 	0.1718	0.0489	0.337	-0.069
Mof_N 	N 	0.3745	0.083	0.129	-0.072
Mof_N 	N 	0.1796	0.0581	0.903	-0.103
Mof_N 	N 	0.0525	0.1278	0.081	-0.168
Mof_C 	C 	0.2465	0.2012	0.804	-0.228
Mof_C 	C 	0.2385	0.2012	0.458	-0.246
Mof_C 	C 	0.1076	0.03	0.402	-0.271
Mof_C 	C 	0.4236	0.052	0.08	-0.266
Mof_C 	C 	0.077	0.0603	0.874	-0.038
Mof_C 	C 	0.023	0.0958	0.939	0.012
Mof_C 	C 	0.9137	0.0973	0.896	0.049
Mof_Cd	Cd	0.28185	0.88523	0.63366	0.38
Mof_N 	N 	0.2526	0.8277	0.412	-0.074
Mof_N 	N 	0.2656	0.8296	0.853	-0.079
Mof_N 	N 	0.3282	0.9511	0.837	-0.064
Mof_N 	N 	0.1255	0.917	0.629	-0.072
Mof_N 	N 	0.3204	0.9419	0.403	-0.109
Mof_N 	N 	0.4475	0.8722	0.581	-0.123
Mof_C 	C 	0.2535	0.7988	0.304	-0.257
Mof_C 	C 	0.2615	0.7988	0.958	-0.201
Mof_C 	C 	0.3924	0.97	0.902	-0.149
Mof_C 	C 	0.0764	0.948	0.58	-0.219
Mof_C 	C 	0.423	0.9397	0.374	-0.014
Mof_C 	C 	0.477	0.9042	0.439	0.035
Mof_C 	C 	0.5863	0.9027	0.396	-0.027
Mof_Cd	Cd	0.78185	0.61477	0.86634	0.418
Mof_N 	N 	0.7526	0.6723	0.088	-0.093
Mof_N 	N 	0.7656	0.6704	0.647	-0.071
Mof_N 	N 	0.8282	0.5489	0.663	-0.068
Mof_N 	N 	0.6255	0.583	0.871	-0.069
Mof_N 	N 	0.8204	0.5581	0.097	-0.13
Mof_N 	N 	0.9475	0.6278	0.919	-0.081
Mof_C 	C 	0.7535	0.7012	0.196	-0.236
Mof_C 	C 	0.7615	0.7012	0.542	-0.226
Mof_C 	C 	0.8924	0.53	0.598	-0.174
Mof_C 	C 	0.5764	0.552	0.92	-0.183
Mof_C 	C 	0.923	0.5603	0.126	-0.018
Mof_C 	C 	0.977	0.5958	0.061	0.069
Mof_C 	C 	0.0863	0.5973	0.104	-0.12
Mof_Cd	Cd	0.71815	0.38523	0.36634	0.375
Mof_N 	N 	0.7474	0.3277	0.588	-0.071
Mof_N 	N 	0.7344	0.3296	0.147	-0.074
Mof_N 	N 	0.6718	0.4511	0.163	-0.067
Mof_N 	N 	0.8745	0.417	0.371	-0.074
Mof_N 	N 	0.6796	0.4419	0.597	-0.109
Mof_N 	N 	0.5525	0.3722	0.419	-0.126
Mof_C 	C 	0.7465	0.2988	0.696	-0.208
Mof_C 	C 	0.7385	0.2988	0.042	-0.263
Mof_C 	C 	0.6076	0.47	0.098	-0.244
Mof_C 	C 	0.9236	0.448	0.42	-0.175
Mof_C 	C 	0.577	0.4397	0.626	-0.01
Mof_C 	C 	0.523	0.4042	0.561	0.039
Mof_C 	C 	0.4137	0.4027	0.604	-0.019
Mof_Cd	Cd	0.78185	0.88523	0.86634	0.423
Mof_N 	N 	0.7526	0.8277	0.088	-0.093
Mof_N 	N 	0.7656	0.8296	0.647	-0.071
Mof_N 	N 	0.8282	0.9511	0.663	-0.067
Mof_N 	N 	0.6255	0.917	0.871	-0.073
Mof_N 	N 	0.8204	0.9419	0.097	-0.123
Mof_N 	N 	0.9475	0.8722	0.919	-0.08
Mof_C 	C 	0.7535	0.7988	0.196	-0.235
Mof_C 	C 	0.7615	0.7988	0.542	-0.226
Mof_C 	C 	0.8924	0.97	0.598	-0.141
Mof_C 	C 	0.5764	0.948	0.92	-0.153
Mof_C 	C 	0.923	0.9397	0.126	-0
Mof_C 	C 	0.977	0.9042	0.061	0.064
Mof_C 	C 	0.0863	0.9027	0.104	-0.108
Mof_Cd	Cd	0.71815	0.11477	0.36634	0.37
Mof_N 	N 	0.7474	0.1723	0.588	-0.071
Mof_N 	N 	0.7344	0.1704	0.147	-0.074
Mof_N 	N 	0.6718	0.0489	0.163	-0.07
Mof_N 	N 	0.8745	0.083	0.371	-0.074
Mof_N 	N 	0.6796	0.0581	0.597	-0.116
Mof_N 	N 	0.5525	0.1278	0.419	-0.127
Mof_C 	C 	0.7465	0.2012	0.696	-0.208
Mof_C 	C 	0.7385	0.2012	0.042	-0.263
Mof_C 	C 	0.6076	0.03	0.098	-0.266
Mof_C 	C 	0.9236	0.052	0.42	-0.193
Mof_C 	C 	0.577	0.0603	0.626	-0.027
Mof_C 	C 	0.523	0.0958	0.561	0.043
Mof_C 	C 	0.4137	0.0973	0.604	-0.029
Mof_Cd	Cd	0.21815	0.38523	0.13366	0.333
Mof_N 	N 	0.2474	0.3277	0.912	-0.055
Mof_N 	N 	0.2344	0.3296	0.353	-0.081
Mof_N 	N 	0.1718	0.4511	0.337	-0.066
Mof_N 	N 	0.3745	0.417	0.129	-0.073
Mof_N 	N 	0.1796	0.4419	0.903	-0.095
Mof_N 	N 	0.0525	0.3722	0.081	-0.167
Mof_C 	C 	0.2465	0.2988	0.804	-0.228
Mof_C 	C 	0.2385	0.2988	0.458	-0.246
Mof_C 	C 	0.1076	0.47	0.402	-0.249
Mof_C 	C 	0.4236	0.448	0.08	-0.248
Mof_C 	C 	0.077	0.4397	0.874	-0.022
Mof_C 	C 	0.023	0.4042	0.939	0.009
Mof_C 	C 	0.9137	0.4027	0.896	0.058
Mof_Cd	Cd	0.28185	0.61477	0.63366	0.375
Mof_N 	N 	0.2526	0.6723	0.412	-0.074
Mof_N 	N 	0.2656	0.6704	0.853	-0.079
Mof_N 	N 	0.3282	0.5489	0.837	-0.065
Mof_N 	N 	0.1255	0.583	0.629	-0.069
Mof_N 	N 	0.3204	0.5581	0.403	-0.116
Mof_N 	N 	0.4475	0.6278	0.581	-0.124
Mof_C 	C 	0.2535	0.7012	0.304	-0.257
Mof_C 	C 	0.2615	0.7012	0.958	-0.201
Mof_C 	C 	0.3924	0.53	0.902	-0.183
Mof_C 	C 	0.0764	0.552	0.58	-0.25
Mof_C 	C 	0.423	0.5603	0.374	-0.032
Mof_C 	C 	0.477	0.5958	0.439	0.039
Mof_C 	C 	0.5863	0.5973	0.396	-0.038
Mof_Ni	Ni	0.2436	0.25	0.6291	1.065
Mof_Ni	Ni	0.2564	0.75	0.1291	1.037
Mof_Ni	Ni	0.7564	0.75	0.3709	1.065
Mof_Ni	Ni	0.7436	0.25	0.8709	1.088
Mof_Ni	Ni	1.02801e-33	0	0.5	1.015
Mof_Ni	Ni	0.5	0	-0	1.024
Mof_Ni	Ni	7.72091e-33	0.5	0.5	1.037
Mof_Ni	Ni	0.5	0.5	-0	1.046
_end
