data_functionalizedCrystal
_audit_creation_method	'EQeq! by Chris Wilmer'
_symmetry_space_group_name_H-M	'P1'
_symmetry_Int_Tables_number	1
_symmetry_cell_setting	triclinic
loop_
_symmetry_equiv_pos_as_xyz
  x,y,z
_cell_length_a	10.906
_cell_length_b	10.906
_cell_length_c	22.456
_cell_angle_alpha	90
_cell_angle_beta	90
_cell_angle_gamma	90
loop_
_atom_site_label
_atom_site_type_symbol
_atom_site_fract_x
_atom_site_fract_y
_atom_site_fract_z
_atom_site_charge
Mof_C 	C 	0.5833	0.0652	0.4636	0.028
Mof_C 	C 	0.4167	0.9348	0.4636	0.028
Mof_C 	C 	0.9348	0.5833	0.4636	0.027
Mof_C 	C 	0.0652	0.4167	0.4636	0.027
Mof_C 	C 	0.4167	0.0652	0.5364	0.027
Mof_C 	C 	0.5833	0.9348	0.5364	0.027
Mof_C 	C 	0.0652	0.5833	0.5364	0.027
Mof_C 	C 	0.9348	0.4167	0.5364	0.027
Mof_C 	C 	0.4167	0.9348	0.5364	0.027
Mof_C 	C 	0.5833	0.0652	0.5364	0.027
Mof_C 	C 	0.0652	0.4167	0.5364	0.027
Mof_C 	C 	0.9348	0.5833	0.5364	0.027
Mof_C 	C 	0.5833	0.9348	0.4636	0.027
Mof_C 	C 	0.4167	0.0652	0.4636	0.027
Mof_C 	C 	0.9348	0.4167	0.4636	0.027
Mof_C 	C 	0.0652	0.5833	0.4636	0.027
Mof_Zn	Zn	0.5	0.5	0.43384	1.219
Mof_N 	N 	0.5	0.5	0.344	-0.302
Mof_N 	N 	0.5	0.5	0.1548	-0.316
Mof_C 	C 	0.5	0.5	0.2207	0.409
Mof_C 	C 	0.5	0.5	0.0319	0.069
Mof_Zn	Zn	0.5	0.5	0.56616	1.219
Mof_N 	N 	0.5	0.5	0.656	-0.302
Mof_N 	N 	0.5	0.5	0.8452	-0.316
Mof_C 	C 	0.5	0.5	0.7793	0.409
Mof_C 	C 	0.5	0.5	0.9681	0.069
Mof_O 	O 	0.5	0.3167	0.4506	-0.471
Mof_O 	O 	0.5	0.6833	0.4506	-0.471
Mof_O 	O 	0.6833	0.5	0.4506	-0.471
Mof_O 	O 	0.3167	0.5	0.4506	-0.471
Mof_O 	O 	0.5	0.3167	0.5494	-0.471
Mof_O 	O 	0.5	0.6833	0.5494	-0.471
Mof_O 	O 	0.3167	0.5	0.5494	-0.471
Mof_O 	O 	0.6833	0.5	0.5494	-0.471
Mof_O 	O 	0.303	0.5	0.1574	-0.23
Mof_C 	C 	0.3986	0.5	0.3122	0.099
Mof_C 	C 	0.395	0.5	0.2504	-0.211
Mof_C 	C 	0.3977	0.5	0.1294	0.2
Mof_C 	C 	0.397	0.5	0.0622	-0.053
Mof_C 	C 	0.288	0.5	0.032	-0.021
Mof_H 	H 	0.3231	0.5	0.3333	0.003
Mof_H 	H 	0.3184	0.5	0.2303	0.152
Mof_H 	H 	0.2121	0.5	0.053	0.061
Mof_O 	O 	0.697	0.5	0.1574	-0.23
Mof_C 	C 	0.6014	0.5	0.3122	0.099
Mof_C 	C 	0.605	0.5	0.2504	-0.211
Mof_C 	C 	0.6023	0.5	0.1294	0.2
Mof_C 	C 	0.603	0.5	0.0622	-0.053
Mof_C 	C 	0.712	0.5	0.032	-0.021
Mof_H 	H 	0.6769	0.5	0.3333	0.003
Mof_H 	H 	0.6816	0.5	0.2303	0.152
Mof_H 	H 	0.7879	0.5	0.053	0.061
Mof_O 	O 	0.5	0.303	0.1574	-0.23
Mof_C 	C 	0.5	0.3986	0.3122	0.099
Mof_C 	C 	0.5	0.395	0.2504	-0.211
Mof_C 	C 	0.5	0.3977	0.1294	0.2
Mof_C 	C 	0.5	0.397	0.0622	-0.053
Mof_C 	C 	0.5	0.288	0.032	-0.021
Mof_H 	H 	0.5	0.3231	0.3333	0.003
Mof_H 	H 	0.5	0.3184	0.2303	0.152
Mof_H 	H 	0.5	0.2121	0.053	0.061
Mof_O 	O 	0.5	0.697	0.1574	-0.23
Mof_C 	C 	0.5	0.6014	0.3122	0.099
Mof_C 	C 	0.5	0.605	0.2504	-0.211
Mof_C 	C 	0.5	0.6023	0.1294	0.2
Mof_C 	C 	0.5	0.603	0.0622	-0.053
Mof_C 	C 	0.5	0.712	0.032	-0.021
Mof_H 	H 	0.5	0.6769	0.3333	0.003
Mof_H 	H 	0.5	0.6816	0.2303	0.152
Mof_H 	H 	0.5	0.7879	0.053	0.061
Mof_O 	O 	0.697	0.5	0.8426	-0.23
Mof_C 	C 	0.6014	0.5	0.6878	0.099
Mof_C 	C 	0.605	0.5	0.7496	-0.211
Mof_C 	C 	0.6023	0.5	0.8706	0.2
Mof_C 	C 	0.603	0.5	0.9378	-0.053
Mof_C 	C 	0.712	0.5	0.968	-0.021
Mof_H 	H 	0.6769	0.5	0.6667	0.003
Mof_H 	H 	0.6816	0.5	0.7697	0.152
Mof_H 	H 	0.7879	0.5	0.947	0.061
Mof_O 	O 	0.303	0.5	0.8426	-0.23
Mof_C 	C 	0.3986	0.5	0.6878	0.099
Mof_C 	C 	0.395	0.5	0.7496	-0.211
Mof_C 	C 	0.3977	0.5	0.8706	0.2
Mof_C 	C 	0.397	0.5	0.9378	-0.053
Mof_C 	C 	0.288	0.5	0.968	-0.021
Mof_H 	H 	0.3231	0.5	0.6667	0.003
Mof_H 	H 	0.3184	0.5	0.7697	0.152
Mof_H 	H 	0.2121	0.5	0.947	0.061
Mof_O 	O 	0.5	0.303	0.8426	-0.23
Mof_C 	C 	0.5	0.3986	0.6878	0.099
Mof_C 	C 	0.5	0.395	0.7496	-0.211
Mof_C 	C 	0.5	0.3977	0.8706	0.2
Mof_C 	C 	0.5	0.397	0.9378	-0.053
Mof_C 	C 	0.5	0.288	0.968	-0.021
Mof_H 	H 	0.5	0.3231	0.6667	0.003
Mof_H 	H 	0.5	0.3184	0.7697	0.152
Mof_H 	H 	0.5	0.2121	0.947	0.061
Mof_O 	O 	0.5	0.697	0.8426	-0.23
Mof_C 	C 	0.5	0.6014	0.6878	0.099
Mof_C 	C 	0.5	0.605	0.7496	-0.211
Mof_C 	C 	0.5	0.6023	0.8706	0.2
Mof_C 	C 	0.5	0.603	0.9378	-0.053
Mof_C 	C 	0.5	0.712	0.968	-0.021
Mof_H 	H 	0.5	0.6769	0.6667	0.003
Mof_H 	H 	0.5	0.6816	0.7697	0.152
Mof_H 	H 	0.5	0.7879	0.947	0.061
Mof_C 	C 	0.5	0.2664	0.5	0.427
Mof_C 	C 	0.5	0.1289	0.5	-0.133
Mof_C 	C 	0.5	0.7336	0.5	0.427
Mof_C 	C 	0.5	0.8711	0.5	-0.133
Mof_C 	C 	0.7336	0.5	0.5	0.427
Mof_C 	C 	0.8711	0.5	0.5	-0.133
Mof_C 	C 	0.2664	0.5	0.5	0.427
Mof_C 	C 	0.1289	0.5	0.5	-0.133
_end
