data_functionalizedCrystal
_audit_creation_method	'EQeq! by Chris Wilmer'
_symmetry_space_group_name_H-M	'P1'
_symmetry_Int_Tables_number	1
_symmetry_cell_setting	triclinic
loop_
_symmetry_equiv_pos_as_xyz
  x,y,z
_cell_length_a	15.317
_cell_length_b	32.467
_cell_length_c	10.015
_cell_angle_alpha	90
_cell_angle_beta	107.51
_cell_angle_gamma	90
loop_
_atom_site_label
_atom_site_type_symbol
_atom_site_fract_x
_atom_site_fract_y
_atom_site_fract_z
_atom_site_charge
Mof_Cu	Cu	0.65443	0.72672	0.00032	0.925
Mof_Cu	Cu	0.50863	0.78565	0.0259	0.935
Mof_Cu	Cu	0.58059	0.78382	0.76377	0.93
Mof_O 	O 	0.6186	0.78446	0.9665	-0.719
Mof_H 	H 	0.6596	0.802	0.0053	0.277
Mof_O 	O 	0.5295	0.8427	0.7632	-0.374
Mof_O 	O 	0.4658	0.83957	0.9392	-0.372
Mof_O 	O 	0.7082	0.77411	0.754	-0.452
Mof_O 	O 	0.7646	0.73478	0.9452	-0.394
Mof_O 	O 	0.5448	0.72619	0.0658	-0.721
Mof_H 	H 	0.5039	0.7096	0.0198	0.281
Mof_O 	O 	0.0958	0.6579	0.843	-0.046
Mof_O 	O 	0.0277	0.6544	0.9607	-0.084
Mof_O 	O 	0.1094	0.6566	0.5054	-0.078
Mof_O 	O 	0.0045	0.6844	0.5637	-0.093
Mof_O 	O 	0.3134	0.9681	0.0111	-0.073
Mof_O 	O 	0.2338	0.997	0.8069	-0.038
Mof_O 	O 	0.3309	0.0271	0.3722	-0.078
Mof_O 	O 	0.2902	0.981	0.4871	-0.057
Mof_O 	O 	0.4022	0.71842	0.5876	-0.395
Mof_O 	O 	0.4561	0.75955	0.7756	-0.437
Mof_O 	O 	0.4002	0.18477	0.7442	-0.389
Mof_O 	O 	0.338	0.16861	0.5199	-0.381
Mof_C 	C 	0.4867	0.8572	0.8405	0.346
Mof_C 	C 	0.4574	0.90124	0.8138	-0.054
Mof_C 	C 	0.4981	0.9263	0.7384	0.009
Mof_H 	H 	0.5424	0.9155	0.702	0.062
Mof_C 	C 	0.4735	0.9669	0.7171	-0.062
Mof_H 	H 	0.5052	0.9836	0.6723	0.087
Mof_C 	C 	0.4041	0.98384	0.7592	0.021
Mof_C 	C 	0.3647	0.9589	0.8361	0.078
Mof_C 	C 	0.3901	0.91796	0.8639	-0.05
Mof_H 	H 	0.3621	0.9018	0.9159	0.096
Mof_C 	C 	0.383	0.02898	0.7325	0.031
Mof_C 	C 	0.3443	0.04497	0.5995	0.071
Mof_C 	C 	0.3364	0.08666	0.5729	-0.043
Mof_H 	H 	0.3077	0.0962	0.4829	0.094
Mof_C 	C 	0.3713	0.11384	0.6803	-0.061
Mof_C 	C 	0.4095	0.0986	0.809	0.014
Mof_H 	H 	0.4329	0.1167	0.8832	0.041
Mof_C 	C 	0.4149	0.0565	0.8346	-0.07
Mof_H 	H 	0.4415	0.0472	0.9256	0.079
Mof_C 	C 	0.3703	0.15934	0.6498	0.336
Mof_C 	C 	0.7713	0.7534	0.8387	0.363
Mof_C 	C 	0.8601	0.75134	0.8123	-0.082
Mof_C 	C 	0.9173	0.7177	0.8651	-0.033
Mof_H 	H 	0.8983	0.6972	0.9148	0.084
Mof_C 	C 	0.0016	0.7151	0.8432	0.072
Mof_C 	C 	0.033	0.7444	0.7653	0.034
Mof_C 	C 	0.9763	0.7779	0.718	-0.075
Mof_H 	H 	0.9958	0.7985	0.6694	0.09
Mof_C 	C 	0.8919	0.78187	0.7399	0.033
Mof_H 	H 	0.8561	0.805	0.7065	0.049
Mof_C 	C 	0.1232	0.7427	0.7353	0.026
Mof_C 	C 	0.186	0.7735	0.7885	-0.064
Mof_H 	H 	0.1688	0.7955	0.8345	0.087
Mof_C 	C 	0.2735	0.7729	0.7762	0.015
Mof_H 	H 	0.315	0.7936	0.8163	0.052
Mof_C 	C 	0.2985	0.74106	0.7035	-0.064
Mof_C 	C 	0.2358	0.71104	0.6429	-0.047
Mof_H 	H 	0.2522	0.6901	0.5916	0.089
Mof_C 	C 	0.1502	0.7115	0.6569	0.081
Mof_C 	C 	0.3936	0.73946	0.6888	0.356
Mof_N 	N 	0.2874	0.9735	0.8834	0.009
Mof_N 	N 	0.0602	0.6815	0.9063	0.007
Mof_N 	N 	0.0859	0.6795	0.5857	-0.002
Mof_N 	N 	0.3087	0.017	0.475	0.004
Mof_O 	O 	0.1425	0.6879	0.9505	-0.084
Mof_O 	O 	0.1198	0.6459	0.575	-0.016
Mof_O 	O 	0.2508	0.9495	0.945	-0.043
Mof_O 	O 	0.2584	0.0083	0.8767	-0.047
Mof_O 	O 	0.2632	0.0322	0.3653	-0.04
Mof_O 	O 	0.262	0.9905	0.505	-0.021
Mof_Cu	Cu	0.34557	0.22672	0.49968	0.932
Mof_Cu	Cu	0.49137	0.28565	0.4741	0.94
Mof_Cu	Cu	0.41941	0.28382	0.73623	0.93
Mof_O 	O 	0.3814	0.28446	0.5335	-0.739
Mof_H 	H 	0.3404	0.302	0.4947	0.293
Mof_O 	O 	0.4705	0.3427	0.7368	-0.377
Mof_O 	O 	0.5342	0.33957	0.5608	-0.378
Mof_O 	O 	0.2918	0.27411	0.746	-0.455
Mof_O 	O 	0.2354	0.23478	0.5548	-0.4
Mof_O 	O 	0.4552	0.22619	0.4342	-0.719
Mof_H 	H 	0.4961	0.2096	0.4802	0.284
Mof_O 	O 	0.9042	0.1579	0.657	-0.046
Mof_O 	O 	0.9723	0.1544	0.5393	-0.086
Mof_O 	O 	0.8906	0.1566	0.9946	-0.083
Mof_O 	O 	0.9955	0.1844	0.9363	-0.096
Mof_O 	O 	0.6866	0.4681	0.4889	-0.07
Mof_O 	O 	0.7662	0.497	0.6931	-0.04
Mof_O 	O 	0.6691	0.5271	0.1278	-0.078
Mof_O 	O 	0.7098	0.481	0.0129	-0.053
Mof_O 	O 	0.5978	0.21842	0.9124	-0.399
Mof_O 	O 	0.5439	0.25955	0.7244	-0.439
Mof_O 	O 	0.5998	0.68477	0.7558	-0.388
Mof_O 	O 	0.662	0.66861	0.9801	-0.375
Mof_C 	C 	0.5133	0.3572	0.6595	0.347
Mof_C 	C 	0.5426	0.40124	0.6862	-0.057
Mof_C 	C 	0.5019	0.4263	0.7616	0.009
Mof_H 	H 	0.4576	0.4155	0.798	0.06
Mof_C 	C 	0.5265	0.4669	0.7829	-0.062
Mof_H 	H 	0.4948	0.4836	0.8277	0.087
Mof_C 	C 	0.5959	0.48384	0.7408	0.019
Mof_C 	C 	0.6353	0.4589	0.6639	0.077
Mof_C 	C 	0.6099	0.41796	0.6361	-0.05
Mof_H 	H 	0.6379	0.4018	0.5841	0.094
Mof_C 	C 	0.617	0.52898	0.7675	0.035
Mof_C 	C 	0.6557	0.54497	0.9005	0.065
Mof_C 	C 	0.6636	0.58666	0.9271	-0.024
Mof_H 	H 	0.6923	0.5962	0.0171	0.082
Mof_C 	C 	0.6287	0.61384	0.8197	-0.068
Mof_C 	C 	0.5905	0.5986	0.691	0.021
Mof_H 	H 	0.5671	0.6167	0.6168	0.042
Mof_C 	C 	0.5851	0.5565	0.6654	-0.075
Mof_H 	H 	0.5585	0.5472	0.5744	0.081
Mof_C 	C 	0.6297	0.65934	0.8502	0.339
Mof_C 	C 	0.2287	0.2534	0.6613	0.364
Mof_C 	C 	0.1399	0.25134	0.6877	-0.085
Mof_C 	C 	0.0827	0.2177	0.6349	-0.035
Mof_H 	H 	0.1017	0.1972	0.5852	0.082
Mof_C 	C 	0.9984	0.2151	0.6568	0.072
Mof_C 	C 	0.967	0.2444	0.7347	0.035
Mof_C 	C 	0.0237	0.2779	0.782	-0.08
Mof_H 	H 	0.0042	0.2985	0.8306	0.088
Mof_C 	C 	0.1081	0.28187	0.7601	0.033
Mof_H 	H 	0.1439	0.305	0.7935	0.046
Mof_C 	C 	0.8768	0.2427	0.7647	0.024
Mof_C 	C 	0.814	0.2735	0.7115	-0.065
Mof_H 	H 	0.8312	0.2955	0.6655	0.085
Mof_C 	C 	0.7265	0.2729	0.7238	0.013
Mof_H 	H 	0.685	0.2936	0.6837	0.05
Mof_C 	C 	0.7015	0.24106	0.7965	-0.066
Mof_C 	C 	0.7642	0.21104	0.8571	-0.047
Mof_H 	H 	0.7478	0.1901	0.9084	0.087
Mof_C 	C 	0.8498	0.2115	0.8431	0.078
Mof_C 	C 	0.6064	0.23946	0.8112	0.356
Mof_N 	N 	0.7126	0.4735	0.6166	0.008
Mof_N 	N 	0.9398	0.1815	0.5937	0.008
Mof_N 	N 	0.9141	0.1795	0.9143	-0.001
Mof_N 	N 	0.6913	0.517	0.025	0.004
Mof_O 	O 	0.8575	0.1879	0.5495	-0.088
Mof_O 	O 	0.8802	0.1459	0.925	-0.015
Mof_O 	O 	0.7492	0.4495	0.555	-0.046
Mof_O 	O 	0.7416	0.5083	0.6233	-0.045
Mof_O 	O 	0.7368	0.5322	0.1347	-0.041
Mof_O 	O 	0.738	0.4905	0.995	-0.024
Mof_Cu	Cu	0.34557	0.27328	0.99968	0.925
Mof_Cu	Cu	0.49137	0.21435	0.9741	0.935
Mof_Cu	Cu	0.41941	0.21618	0.23623	0.93
Mof_O 	O 	0.3814	0.21554	0.0335	-0.719
Mof_H 	H 	0.3404	0.198	0.9947	0.277
Mof_O 	O 	0.4705	0.1573	0.2368	-0.374
Mof_O 	O 	0.5342	0.16043	0.0608	-0.372
Mof_O 	O 	0.2918	0.22589	0.246	-0.452
Mof_O 	O 	0.2354	0.26522	0.0548	-0.394
Mof_O 	O 	0.4552	0.27381	0.9342	-0.721
Mof_H 	H 	0.4961	0.2904	0.9802	0.281
Mof_O 	O 	0.9042	0.3421	0.157	-0.046
Mof_O 	O 	0.9723	0.3456	0.0393	-0.084
Mof_O 	O 	0.8906	0.3434	0.4946	-0.078
Mof_O 	O 	0.9955	0.3156	0.4363	-0.093
Mof_O 	O 	0.6866	0.0319	0.9889	-0.073
Mof_O 	O 	0.7662	0.003	0.1931	-0.038
Mof_O 	O 	0.6691	0.9729	0.6278	-0.078
Mof_O 	O 	0.7098	0.019	0.5129	-0.057
Mof_O 	O 	0.5978	0.28158	0.4124	-0.395
Mof_O 	O 	0.5439	0.24045	0.2244	-0.437
Mof_O 	O 	0.5998	0.81523	0.2558	-0.389
Mof_O 	O 	0.662	0.83139	0.4801	-0.381
Mof_C 	C 	0.5133	0.1428	0.1595	0.346
Mof_C 	C 	0.5426	0.09876	0.1862	-0.054
Mof_C 	C 	0.5019	0.0737	0.2616	0.009
Mof_H 	H 	0.4576	0.0845	0.298	0.062
Mof_C 	C 	0.5265	0.0331	0.2829	-0.062
Mof_H 	H 	0.4948	0.0164	0.3277	0.087
Mof_C 	C 	0.5959	0.01616	0.2408	0.021
Mof_C 	C 	0.6353	0.0411	0.1639	0.078
Mof_C 	C 	0.6099	0.08204	0.1361	-0.05
Mof_H 	H 	0.6379	0.0982	0.0841	0.096
Mof_C 	C 	0.617	0.97102	0.2675	0.031
Mof_C 	C 	0.6557	0.95503	0.4005	0.071
Mof_C 	C 	0.6636	0.91334	0.4271	-0.043
Mof_H 	H 	0.6923	0.9038	0.5171	0.094
Mof_C 	C 	0.6287	0.88616	0.3197	-0.061
Mof_C 	C 	0.5905	0.9014	0.191	0.014
Mof_H 	H 	0.5671	0.8833	0.1168	0.041
Mof_C 	C 	0.5851	0.9435	0.1654	-0.07
Mof_H 	H 	0.5585	0.9528	0.0744	0.079
Mof_C 	C 	0.6297	0.84066	0.3502	0.336
Mof_C 	C 	0.2287	0.2466	0.1613	0.363
Mof_C 	C 	0.1399	0.24866	0.1877	-0.082
Mof_C 	C 	0.0827	0.2823	0.1349	-0.033
Mof_H 	H 	0.1017	0.3028	0.0852	0.084
Mof_C 	C 	0.9984	0.2849	0.1568	0.072
Mof_C 	C 	0.967	0.2556	0.2347	0.034
Mof_C 	C 	0.0237	0.2221	0.282	-0.075
Mof_H 	H 	0.0042	0.2015	0.3306	0.09
Mof_C 	C 	0.1081	0.21813	0.2601	0.033
Mof_H 	H 	0.1439	0.195	0.2935	0.049
Mof_C 	C 	0.8768	0.2573	0.2647	0.026
Mof_C 	C 	0.814	0.2265	0.2115	-0.064
Mof_H 	H 	0.8312	0.2045	0.1655	0.087
Mof_C 	C 	0.7265	0.2271	0.2238	0.015
Mof_H 	H 	0.685	0.2064	0.1837	0.052
Mof_C 	C 	0.7015	0.25894	0.2965	-0.064
Mof_C 	C 	0.7642	0.28896	0.3571	-0.047
Mof_H 	H 	0.7478	0.3099	0.4084	0.089
Mof_C 	C 	0.8498	0.2885	0.3431	0.081
Mof_C 	C 	0.6064	0.26054	0.3112	0.356
Mof_N 	N 	0.7126	0.0265	0.1166	0.009
Mof_N 	N 	0.9398	0.3185	0.0937	0.007
Mof_N 	N 	0.9141	0.3205	0.4143	-0.002
Mof_N 	N 	0.6913	0.983	0.525	0.004
Mof_O 	O 	0.8575	0.3121	0.0495	-0.084
Mof_O 	O 	0.8802	0.3541	0.425	-0.016
Mof_O 	O 	0.7492	0.0505	0.055	-0.043
Mof_O 	O 	0.7416	0.9917	0.1233	-0.047
Mof_O 	O 	0.7368	0.9678	0.6347	-0.04
Mof_O 	O 	0.738	0.0095	0.495	-0.021
Mof_Cu	Cu	0.65443	0.77328	0.50032	0.932
Mof_Cu	Cu	0.50863	0.71435	0.5259	0.94
Mof_Cu	Cu	0.58059	0.71618	0.26377	0.93
Mof_O 	O 	0.6186	0.71554	0.4665	-0.739
Mof_H 	H 	0.6596	0.698	0.5053	0.293
Mof_O 	O 	0.5295	0.6573	0.2632	-0.377
Mof_O 	O 	0.4658	0.66043	0.4392	-0.378
Mof_O 	O 	0.7082	0.72589	0.254	-0.455
Mof_O 	O 	0.7646	0.76522	0.4452	-0.4
Mof_O 	O 	0.5448	0.77381	0.5658	-0.719
Mof_H 	H 	0.5039	0.7904	0.5198	0.284
Mof_O 	O 	0.0958	0.8421	0.343	-0.046
Mof_O 	O 	0.0277	0.8456	0.4607	-0.086
Mof_O 	O 	0.1094	0.8434	0.0054	-0.083
Mof_O 	O 	0.0045	0.8156	0.0637	-0.096
Mof_O 	O 	0.3134	0.5319	0.5111	-0.07
Mof_O 	O 	0.2338	0.503	0.3069	-0.04
Mof_O 	O 	0.3309	0.4729	0.8722	-0.078
Mof_O 	O 	0.2902	0.519	0.9871	-0.053
Mof_O 	O 	0.4022	0.78158	0.0876	-0.399
Mof_O 	O 	0.4561	0.74045	0.2756	-0.439
Mof_O 	O 	0.4002	0.31523	0.2442	-0.388
Mof_O 	O 	0.338	0.33139	0.0199	-0.375
Mof_C 	C 	0.4867	0.6428	0.3405	0.347
Mof_C 	C 	0.4574	0.59876	0.3138	-0.057
Mof_C 	C 	0.4981	0.5737	0.2384	0.009
Mof_H 	H 	0.5424	0.5845	0.202	0.06
Mof_C 	C 	0.4735	0.5331	0.2171	-0.062
Mof_H 	H 	0.5052	0.5164	0.1723	0.087
Mof_C 	C 	0.4041	0.51616	0.2592	0.019
Mof_C 	C 	0.3647	0.5411	0.3361	0.077
Mof_C 	C 	0.3901	0.58204	0.3639	-0.05
Mof_H 	H 	0.3621	0.5982	0.4159	0.094
Mof_C 	C 	0.383	0.47102	0.2325	0.035
Mof_C 	C 	0.3443	0.45503	0.0995	0.065
Mof_C 	C 	0.3364	0.41334	0.0729	-0.024
Mof_H 	H 	0.3077	0.4038	0.9829	0.082
Mof_C 	C 	0.3713	0.38616	0.1803	-0.068
Mof_C 	C 	0.4095	0.4014	0.309	0.021
Mof_H 	H 	0.4329	0.3833	0.3832	0.042
Mof_C 	C 	0.4149	0.4435	0.3346	-0.075
Mof_H 	H 	0.4415	0.4528	0.4256	0.081
Mof_C 	C 	0.3703	0.34066	0.1498	0.339
Mof_C 	C 	0.7713	0.7466	0.3387	0.364
Mof_C 	C 	0.8601	0.74866	0.3123	-0.085
Mof_C 	C 	0.9173	0.7823	0.3651	-0.035
Mof_H 	H 	0.8983	0.8028	0.4148	0.082
Mof_C 	C 	0.0016	0.7849	0.3432	0.072
Mof_C 	C 	0.033	0.7556	0.2653	0.035
Mof_C 	C 	0.9763	0.7221	0.218	-0.08
Mof_H 	H 	0.9958	0.7015	0.1694	0.088
Mof_C 	C 	0.8919	0.71813	0.2399	0.033
Mof_H 	H 	0.8561	0.695	0.2065	0.046
Mof_C 	C 	0.1232	0.7573	0.2353	0.024
Mof_C 	C 	0.186	0.7265	0.2885	-0.065
Mof_H 	H 	0.1688	0.7045	0.3345	0.085
Mof_C 	C 	0.2735	0.7271	0.2762	0.013
Mof_H 	H 	0.315	0.7064	0.3163	0.05
Mof_C 	C 	0.2985	0.75894	0.2035	-0.066
Mof_C 	C 	0.2358	0.78896	0.1429	-0.047
Mof_H 	H 	0.2522	0.8099	0.0916	0.087
Mof_C 	C 	0.1502	0.7885	0.1569	0.078
Mof_C 	C 	0.3936	0.76054	0.1888	0.356
Mof_N 	N 	0.2874	0.5265	0.3834	0.008
Mof_N 	N 	0.0602	0.8185	0.4063	0.008
Mof_N 	N 	0.0859	0.8205	0.0857	-0.001
Mof_N 	N 	0.3087	0.483	0.975	0.004
Mof_O 	O 	0.1425	0.8121	0.4505	-0.088
Mof_O 	O 	0.1198	0.8541	0.075	-0.015
Mof_O 	O 	0.2508	0.5505	0.445	-0.046
Mof_O 	O 	0.2584	0.4917	0.3767	-0.045
Mof_O 	O 	0.2632	0.4678	0.8653	-0.041
Mof_O 	O 	0.262	0.5095	0.005	-0.024
_end
