data_functionalizedCrystal
_audit_creation_method	'EQeq! by Chris Wilmer'
_symmetry_space_group_name_H-M	'P1'
_symmetry_Int_Tables_number	1
_symmetry_cell_setting	triclinic
loop_
_symmetry_equiv_pos_as_xyz
  x,y,z
_cell_length_a	32.768
_cell_length_b	39.312
_cell_length_c	25.68
_cell_angle_alpha	90
_cell_angle_beta	95.79
_cell_angle_gamma	90
loop_
_atom_site_label
_atom_site_type_symbol
_atom_site_fract_x
_atom_site_fract_y
_atom_site_fract_z
_atom_site_charge
Mof_Zn	Zn	0.32711	0.851	0.67217	1.22
Mof_Zn	Zn	0.42335	0.84995	0.68175	1.216
Mof_Zn	Zn	0.37194	0.89338	0.59459	1.219
Mof_Zn	Zn	0.37447	0.81224	0.58439	1.192
Mof_Cl	Cl	0.338	0.7432	0.9876	-0.197
Mof_Cl	Cl	0.378	0.7423	0.9995	-0.174
Mof_Cl	Cl	0.1941	0.8655	0.2444	-0.311
Mof_Cl	Cl	0.6171	0.9823	0.4667	-0.14
Mof_Cl	Cl	0.1362	0.4743	0.4804	-0.18
Mof_Cl	Cl	0.8386	0.0839	0.7136	-0.076
Mof_Cl	Cl	0.3389	0.5874	0.6881	-0.195
Mof_Cl	Cl	0.1542	0.0354	0.4342	-0.279
Mof_Cl	Cl	0.1687	0.2385	0.6468	-0.213
Mof_Cl	Cl	0.1632	0.2343	0.703	-0.169
Mof_O 	O 	0.3748	0.851	0.6343	-0.953
Mof_O 	O 	0.3441	0.8698	0.7438	-0.519
Mof_O 	O 	0.4091	0.8598	0.7543	-0.511
Mof_O 	O 	0.3658	0.9324	0.103	-0.192
Mof_O 	O 	0.3598	0.8323	0.5132	-0.501
Mof_O 	O 	0.3683	0.8892	0.5208	-0.475
Mof_O 	O 	0.4299	0.8788	0.1719	-0.183
Mof_O 	O 	0.9606	0.3886	0.6679	-0.515
Mof_O 	O 	0.9204	0.4215	0.6193	-0.503
Mof_O 	O 	0.1069	0.5923	0.7309	-0.191
Mof_O 	O 	0.3034	0.8075	0.6742	-0.496
Mof_O 	O 	0.3211	0.7899	0.5967	-0.474
Mof_O 	O 	0.1021	0.6399	0.6393	-0.183
Mof_O 	O 	0.2861	0.8851	0.6499	-0.474
Mof_O 	O 	0.3258	0.9202	0.6083	-0.472
Mof_O 	O 	0.1309	0.0629	0.7442	-0.168
Mof_O 	O 	0.9548	0.3102	0.6926	-0.478
Mof_O 	O 	0.9052	0.2802	0.642	-0.458
Mof_O 	O 	0.0313	0.069	0.6496	-0.182
Mof_C 	C 	0.3615	0.8713	0.1018	-0.004
Mof_C 	C 	0.3646	0.9018	0.0753	0.118
Mof_C 	C 	0.3664	0.9018	0.0214	-0.021
Mof_C 	C 	0.3651	0.8712	0.9941	0.006
Mof_C 	C 	0.362	0.8407	0.0207	0.019
Mof_C 	C 	0.3602	0.8407	0.0745	-0.004
Mof_C 	C 	0.3571	0.8101	0.1011	0.048
Mof_C 	C 	0.3558	0.7796	0.0738	0.006
Mof_C 	C 	0.3576	0.7795	0.0199	0.188
Mof_C 	C 	0.3607	0.8101	0.9934	-0.023
Mof_C 	C 	0.3804	0.9639	0.0832	0.096
Mof_C 	C 	0.408	0.9865	0.123	0.01
Mof_C 	C 	0.3701	0.8717	0.9335	0.032
Mof_C 	C 	0.4017	0.8587	0.9136	-0.031
Mof_C 	C 	0.4068	0.8588	0.8654	0.096
Mof_C 	C 	0.3776	0.8702	0.827	-0.172
Mof_C 	C 	0.3451	0.8884	0.8506	0.07
Mof_C 	C 	0.3406	0.887	0.9025	-0.025
Mof_C 	C 	0.3767	0.8671	0.7705	0.491
Mof_C 	C 	0.3559	0.874	0.1618	-0.011
Mof_C 	C 	0.3909	0.8818	0.1917	0.116
Mof_C 	C 	0.3878	0.8781	0.249	-0.012
Mof_C 	C 	0.3506	0.874	0.2679	0.022
Mof_C 	C 	0.2781	0.871	0.258	-0.001
Mof_C 	C 	0.2427	0.8704	0.2242	0.146
Mof_C 	C 	0.2472	0.8698	0.1619	0.008
Mof_C 	C 	0.2818	0.8733	0.1451	0.023
Mof_C 	C 	0.3194	0.875	0.1803	0.017
Mof_C 	C 	0.3193	0.8726	0.2361	0.013
Mof_C 	C 	0.4616	0.8946	0.208	0.092
Mof_C 	C 	0.4937	0.9081	0.174	0.009
Mof_C 	C 	0.3532	0.8693	0.3255	0.01
Mof_C 	C 	0.3572	0.8978	0.3596	-0.001
Mof_C 	C 	0.3606	0.8973	0.4146	0.081
Mof_C 	C 	0.3552	0.8656	0.4381	-0.143
Mof_C 	C 	0.3506	0.8366	0.4054	0.069
Mof_C 	C 	0.347	0.8378	0.3503	0.018
Mof_C 	C 	0.3619	0.8617	0.4935	0.394
Mof_C 	C 	0.1301	0.5761	0.651	0.003
Mof_C 	C 	0.1046	0.5685	0.6894	0.122
Mof_C 	C 	0.0751	0.5422	0.6876	0.002
Mof_C 	C 	0.0741	0.5193	0.6447	0.014
Mof_C 	C 	0.1014	0.5015	0.5623	-0.024
Mof_C 	C 	0.1261	0.5052	0.5246	0.162
Mof_C 	C 	0.1528	0.5339	0.525	0.003
Mof_C 	C 	0.1585	0.5545	0.5676	0.048
Mof_C 	C 	0.1273	0.5523	0.6097	0.004
Mof_C 	C 	0.1022	0.5229	0.6066	0.029
Mof_C 	C 	0.0764	0.5923	0.7663	0.104
Mof_C 	C 	0.0724	0.6258	0.7968	-0.009
Mof_C 	C 	0.0432	0.4925	0.6439	0.041
Mof_C 	C 	0.0523	0.4619	0.6537	-0.02
Mof_C 	C 	0.0201	0.4353	0.6534	0.122
Mof_C 	C 	0.9844	0.4425	0.6449	-0.245
Mof_C 	C 	0.9726	0.4716	0.6316	0.137
Mof_C 	C 	0.0064	0.4996	0.6335	-0.029
Mof_C 	C 	0.9529	0.4164	0.6464	0.488
Mof_C 	C 	0.1614	0.6022	0.6574	-0.002
Mof_C 	C 	0.1456	0.6357	0.6474	0.118
Mof_C 	C 	0.1718	0.6652	0.6476	-0.014
Mof_C 	C 	0.2118	0.6619	0.6579	0.013
Mof_C 	C 	0.2691	0.6235	0.6764	-0.005
Mof_C 	C 	0.2867	0.5899	0.6875	0.154
Mof_C 	C 	0.2618	0.5635	0.6887	-0.009
Mof_C 	C 	0.2186	0.5669	0.6778	0.033
Mof_C 	C 	0.2015	0.5987	0.6632	0.005
Mof_C 	C 	0.231	0.6265	0.6678	0.012
Mof_C 	C 	0.0831	0.6722	0.6426	0.093
Mof_C 	C 	0.0399	0.6646	0.6595	0.011
Mof_C 	C 	0.2379	0.692	0.6525	0.022
Mof_C 	C 	0.2574	0.6989	0.6074	-0.001
Mof_C 	C 	0.278	0.73	0.6055	0.072
Mof_C 	C 	0.2818	0.7547	0.6452	-0.156
Mof_C 	C 	0.262	0.7467	0.6897	0.061
Mof_C 	C 	0.2398	0.7163	0.6919	-0.029
Mof_C 	C 	0.3033	0.7845	0.6383	0.406
Mof_C 	C 	0.1162	0.0732	0.6463	-0.01
Mof_C 	C 	0.1351	0.0562	0.6897	0.104
Mof_C 	C 	0.1621	0.0296	0.6831	-0.016
Mof_C 	C 	0.1702	0.02	0.6331	0.008
Mof_C 	C 	0.1513	0.037	0.5897	0.009
Mof_C 	C 	0.1243	0.0636	0.5963	0.003
Mof_C 	C 	0.1055	0.0806	0.5529	0.014
Mof_C 	C 	0.1135	0.071	0.5028	-0.01
Mof_C 	C 	0.1405	0.0444	0.4962	0.149
Mof_C 	C 	0.1594	0.0274	0.5396	-0.01
Mof_C 	C 	0.11	0.033	0.763	0.05
Mof_H 	H 	0.1208	0.0309	0.7991	0.064
Mof_C 	C 	0.109	0.997	0.741	0.01
Mof_C 	C 	0.1998	0.9923	0.6288	0.018
Mof_C 	C 	0.2383	0.0009	0.6124	-0.004
Mof_C 	C 	0.2666	0.9737	0.6143	0.088
Mof_C 	C 	0.261	0.9401	0.6302	-0.144
Mof_C 	C 	0.2234	0.934	0.645	0.073
Mof_C 	C 	0.1932	0.9592	0.6465	-0.019
Mof_C 	C 	0.2922	0.9144	0.6285	0.39
Mof_C 	C 	0.0906	0.1051	0.6586	-0.008
Mof_C 	C 	0.0488	0.1018	0.6626	0.109
Mof_C 	C 	0.025	0.1306	0.6682	-0.008
Mof_C 	C 	0.043	0.1627	0.6698	0.012
Mof_C 	C 	0.0848	0.1659	0.6658	0.013
Mof_C 	C 	0.1086	0.1372	0.6602	0.002
Mof_C 	C 	0.1504	0.1404	0.6562	0.028
Mof_C 	C 	0.1684	0.1725	0.6578	0.007
Mof_C 	C 	0.1446	0.2013	0.6635	0.195
Mof_C 	C 	0.1028	0.198	0.6675	-0.016
Mof_C 	C 	0.014	0.0618	0.597	0.087
Mof_C 	C 	0.967	0.067	0.591	0.029
Mof_C 	C 	0.0137	0.1935	0.657	0.011
Mof_C 	C 	0.9862	0.2024	0.6144	-0.006
Mof_C 	C 	0.9628	0.2318	0.6161	0.028
Mof_C 	C 	0.967	0.2524	0.6603	-0.096
Mof_C 	C 	0.9946	0.2435	0.7029	0.058
Mof_C 	C 	0.0179	0.2141	0.7012	0.008
Mof_C 	C 	0.9407	0.2839	0.6704	0.334
Mof_Zn	Zn	0.82711	0.351	0.67217	1.219
Mof_Zn	Zn	0.92335	0.34995	0.68175	1.215
Mof_Zn	Zn	0.87194	0.39338	0.59459	1.218
Mof_Zn	Zn	0.87447	0.31224	0.58439	1.191
Mof_Cl	Cl	0.838	0.2432	0.9876	-0.198
Mof_Cl	Cl	0.878	0.2423	0.9995	-0.175
Mof_Cl	Cl	0.6941	0.3655	0.2444	-0.312
Mof_Cl	Cl	0.1171	0.4823	0.4667	-0.141
Mof_Cl	Cl	0.6362	0.9743	0.4804	-0.18
Mof_Cl	Cl	0.3386	0.5839	0.7136	-0.077
Mof_Cl	Cl	0.8389	0.0874	0.6881	-0.196
Mof_Cl	Cl	0.6542	0.5354	0.4342	-0.28
Mof_Cl	Cl	0.6687	0.7385	0.6468	-0.214
Mof_Cl	Cl	0.6632	0.7343	0.703	-0.17
Mof_O 	O 	0.8748	0.351	0.6343	-0.954
Mof_O 	O 	0.8441	0.3698	0.7438	-0.52
Mof_O 	O 	0.9091	0.3598	0.7543	-0.512
Mof_O 	O 	0.8658	0.4324	0.103	-0.193
Mof_O 	O 	0.8598	0.3323	0.5132	-0.502
Mof_O 	O 	0.8683	0.3892	0.5208	-0.476
Mof_O 	O 	0.9299	0.3788	0.1719	-0.184
Mof_O 	O 	0.4606	0.8886	0.6679	-0.516
Mof_O 	O 	0.4204	0.9215	0.6193	-0.504
Mof_O 	O 	0.6069	0.0923	0.7309	-0.192
Mof_O 	O 	0.8034	0.3075	0.6742	-0.497
Mof_O 	O 	0.8211	0.2899	0.5967	-0.475
Mof_O 	O 	0.6021	0.1399	0.6393	-0.184
Mof_O 	O 	0.7861	0.3851	0.6499	-0.475
Mof_O 	O 	0.8258	0.4202	0.6083	-0.473
Mof_O 	O 	0.6309	0.5629	0.7442	-0.169
Mof_O 	O 	0.4548	0.8102	0.6926	-0.479
Mof_O 	O 	0.4052	0.7802	0.642	-0.459
Mof_O 	O 	0.5313	0.569	0.6496	-0.182
Mof_C 	C 	0.8615	0.3713	0.1018	-0.004
Mof_C 	C 	0.8646	0.4018	0.0753	0.118
Mof_C 	C 	0.8664	0.4018	0.0214	-0.022
Mof_C 	C 	0.8651	0.3712	0.9941	0.006
Mof_C 	C 	0.862	0.3407	0.0207	0.019
Mof_C 	C 	0.8602	0.3407	0.0745	-0.003
Mof_C 	C 	0.8571	0.3101	0.1011	0.048
Mof_C 	C 	0.8558	0.2796	0.0738	0.006
Mof_C 	C 	0.8576	0.2795	0.0199	0.187
Mof_C 	C 	0.8607	0.3101	0.9934	-0.023
Mof_C 	C 	0.8804	0.4639	0.0832	0.096
Mof_C 	C 	0.908	0.4865	0.123	0.01
Mof_C 	C 	0.8701	0.3717	0.9335	0.032
Mof_C 	C 	0.9017	0.3587	0.9136	-0.031
Mof_C 	C 	0.9068	0.3588	0.8654	0.096
Mof_C 	C 	0.8776	0.3702	0.827	-0.172
Mof_C 	C 	0.8451	0.3884	0.8506	0.07
Mof_C 	C 	0.8406	0.387	0.9025	-0.025
Mof_C 	C 	0.8767	0.3671	0.7705	0.491
Mof_C 	C 	0.8559	0.374	0.1618	-0.011
Mof_C 	C 	0.8909	0.3818	0.1917	0.116
Mof_C 	C 	0.8878	0.3781	0.249	-0.012
Mof_C 	C 	0.8506	0.374	0.2679	0.022
Mof_C 	C 	0.7781	0.371	0.258	-0.001
Mof_C 	C 	0.7427	0.3704	0.2242	0.146
Mof_C 	C 	0.7472	0.3698	0.1619	0.008
Mof_C 	C 	0.7818	0.3733	0.1451	0.023
Mof_C 	C 	0.8194	0.375	0.1803	0.017
Mof_C 	C 	0.8193	0.3726	0.2361	0.013
Mof_C 	C 	0.9616	0.3946	0.208	0.092
Mof_C 	C 	0.9937	0.4081	0.174	0.009
Mof_C 	C 	0.8532	0.3693	0.3255	0.01
Mof_C 	C 	0.8572	0.3978	0.3596	-0.001
Mof_C 	C 	0.8606	0.3973	0.4146	0.081
Mof_C 	C 	0.8552	0.3656	0.4381	-0.143
Mof_C 	C 	0.8506	0.3366	0.4054	0.069
Mof_C 	C 	0.847	0.3378	0.3503	0.018
Mof_C 	C 	0.8619	0.3617	0.4935	0.394
Mof_C 	C 	0.6301	0.0761	0.651	0.003
Mof_C 	C 	0.6046	0.0685	0.6894	0.122
Mof_C 	C 	0.5751	0.0422	0.6876	0.002
Mof_C 	C 	0.5741	0.0193	0.6447	0.013
Mof_C 	C 	0.6014	0.0015	0.5623	-0.025
Mof_C 	C 	0.6261	0.0052	0.5246	0.162
Mof_C 	C 	0.6528	0.0339	0.525	0.003
Mof_C 	C 	0.6585	0.0545	0.5676	0.048
Mof_C 	C 	0.6273	0.0523	0.6097	0.004
Mof_C 	C 	0.6022	0.0229	0.6066	0.029
Mof_C 	C 	0.5764	0.0923	0.7663	0.104
Mof_C 	C 	0.5724	0.1258	0.7968	-0.009
Mof_C 	C 	0.5432	0.9925	0.6439	0.041
Mof_C 	C 	0.5523	0.9619	0.6537	-0.02
Mof_C 	C 	0.5201	0.9353	0.6534	0.122
Mof_C 	C 	0.4844	0.9425	0.6449	-0.245
Mof_C 	C 	0.4726	0.9716	0.6316	0.137
Mof_C 	C 	0.5064	0.9996	0.6335	-0.029
Mof_C 	C 	0.4529	0.9164	0.6464	0.488
Mof_C 	C 	0.6614	0.1022	0.6574	-0.002
Mof_C 	C 	0.6456	0.1357	0.6474	0.118
Mof_C 	C 	0.6718	0.1652	0.6476	-0.014
Mof_C 	C 	0.7118	0.1619	0.6579	0.013
Mof_C 	C 	0.7691	0.1235	0.6764	-0.005
Mof_C 	C 	0.7867	0.0899	0.6875	0.154
Mof_C 	C 	0.7618	0.0635	0.6887	-0.009
Mof_C 	C 	0.7186	0.0669	0.6778	0.033
Mof_C 	C 	0.7015	0.0987	0.6632	0.005
Mof_C 	C 	0.731	0.1265	0.6678	0.012
Mof_C 	C 	0.5831	0.1722	0.6426	0.093
Mof_C 	C 	0.5399	0.1646	0.6595	0.011
Mof_C 	C 	0.7379	0.192	0.6525	0.022
Mof_C 	C 	0.7574	0.1989	0.6074	-0.001
Mof_C 	C 	0.778	0.23	0.6055	0.072
Mof_C 	C 	0.7818	0.2547	0.6452	-0.156
Mof_C 	C 	0.762	0.2467	0.6897	0.061
Mof_C 	C 	0.7398	0.2163	0.6919	-0.029
Mof_C 	C 	0.8033	0.2845	0.6383	0.406
Mof_C 	C 	0.6162	0.5732	0.6463	-0.011
Mof_C 	C 	0.6351	0.5562	0.6897	0.104
Mof_C 	C 	0.6621	0.5296	0.6831	-0.016
Mof_C 	C 	0.6702	0.52	0.6331	0.008
Mof_C 	C 	0.6513	0.537	0.5897	0.009
Mof_C 	C 	0.6243	0.5636	0.5963	0.003
Mof_C 	C 	0.6055	0.5806	0.5529	0.014
Mof_C 	C 	0.6135	0.571	0.5028	-0.01
Mof_C 	C 	0.6405	0.5444	0.4962	0.149
Mof_C 	C 	0.6594	0.5274	0.5396	-0.01
Mof_C 	C 	0.61	0.533	0.763	0.05
Mof_H 	H 	0.6208	0.5309	0.7991	0.064
Mof_C 	C 	0.609	0.497	0.741	0.01
Mof_C 	C 	0.6998	0.4923	0.6288	0.018
Mof_C 	C 	0.7383	0.5009	0.6124	-0.004
Mof_C 	C 	0.7666	0.4737	0.6143	0.088
Mof_C 	C 	0.761	0.4401	0.6302	-0.144
Mof_C 	C 	0.7234	0.434	0.645	0.073
Mof_C 	C 	0.6932	0.4592	0.6465	-0.019
Mof_C 	C 	0.7922	0.4144	0.6285	0.39
Mof_C 	C 	0.5906	0.6051	0.6586	-0.008
Mof_C 	C 	0.5488	0.6018	0.6626	0.109
Mof_C 	C 	0.525	0.6306	0.6682	-0.008
Mof_C 	C 	0.543	0.6627	0.6698	0.012
Mof_C 	C 	0.5848	0.6659	0.6658	0.013
Mof_C 	C 	0.6086	0.6372	0.6602	0.002
Mof_C 	C 	0.6504	0.6404	0.6562	0.028
Mof_C 	C 	0.6684	0.6725	0.6578	0.007
Mof_C 	C 	0.6446	0.7013	0.6635	0.195
Mof_C 	C 	0.6028	0.698	0.6675	-0.016
Mof_C 	C 	0.514	0.5618	0.597	0.087
Mof_C 	C 	0.467	0.567	0.591	0.029
Mof_C 	C 	0.5137	0.6935	0.657	0.011
Mof_C 	C 	0.4862	0.7024	0.6144	-0.006
Mof_C 	C 	0.4628	0.7318	0.6161	0.028
Mof_C 	C 	0.467	0.7524	0.6603	-0.096
Mof_C 	C 	0.4946	0.7435	0.7029	0.058
Mof_C 	C 	0.5179	0.7141	0.7012	0.008
Mof_C 	C 	0.4407	0.7839	0.6704	0.334
Mof_Zn	Zn	0.67289	0.851	0.32783	1.219
Mof_Zn	Zn	0.57665	0.84995	0.31825	1.215
Mof_Zn	Zn	0.62806	0.89338	0.40541	1.218
Mof_Zn	Zn	0.62553	0.81224	0.41561	1.191
Mof_Cl	Cl	0.662	0.7432	0.0124	-0.198
Mof_Cl	Cl	0.622	0.7423	0.0005	-0.175
Mof_Cl	Cl	0.8059	0.8655	0.7556	-0.312
Mof_Cl	Cl	0.3829	0.9823	0.5333	-0.141
Mof_Cl	Cl	0.8638	0.4743	0.5196	-0.181
Mof_Cl	Cl	0.1614	0.0839	0.2864	-0.077
Mof_Cl	Cl	0.6611	0.5874	0.3119	-0.196
Mof_Cl	Cl	0.8458	0.0354	0.5658	-0.28
Mof_Cl	Cl	0.8313	0.2385	0.3532	-0.214
Mof_Cl	Cl	0.8368	0.2343	0.297	-0.17
Mof_O 	O 	0.6252	0.851	0.3657	-0.954
Mof_O 	O 	0.6559	0.8698	0.2562	-0.52
Mof_O 	O 	0.5909	0.8598	0.2457	-0.512
Mof_O 	O 	0.6342	0.9324	0.897	-0.193
Mof_O 	O 	0.6402	0.8323	0.4868	-0.502
Mof_O 	O 	0.6317	0.8892	0.4792	-0.476
Mof_O 	O 	0.5701	0.8788	0.8281	-0.184
Mof_O 	O 	0.0394	0.3886	0.3321	-0.516
Mof_O 	O 	0.0796	0.4215	0.3807	-0.504
Mof_O 	O 	0.8931	0.5923	0.2691	-0.192
Mof_O 	O 	0.6966	0.8075	0.3258	-0.497
Mof_O 	O 	0.6789	0.7899	0.4033	-0.475
Mof_O 	O 	0.8979	0.6399	0.3607	-0.184
Mof_O 	O 	0.7139	0.8851	0.3501	-0.475
Mof_O 	O 	0.6742	0.9202	0.3917	-0.473
Mof_O 	O 	0.8691	0.0629	0.2558	-0.169
Mof_O 	O 	0.0452	0.3102	0.3074	-0.479
Mof_O 	O 	0.0948	0.2802	0.358	-0.459
Mof_O 	O 	0.9687	0.069	0.3504	-0.182
Mof_C 	C 	0.6385	0.8713	0.8982	-0.004
Mof_C 	C 	0.6354	0.9018	0.9247	0.118
Mof_C 	C 	0.6336	0.9018	0.9786	-0.021
Mof_C 	C 	0.6349	0.8712	0.0059	0.006
Mof_C 	C 	0.638	0.8407	0.9793	0.019
Mof_C 	C 	0.6398	0.8407	0.9255	-0.004
Mof_C 	C 	0.6429	0.8101	0.8989	0.048
Mof_C 	C 	0.6442	0.7796	0.9262	0.006
Mof_C 	C 	0.6424	0.7795	0.9801	0.188
Mof_C 	C 	0.6393	0.8101	0.0066	-0.023
Mof_C 	C 	0.6196	0.9639	0.9168	0.096
Mof_C 	C 	0.592	0.9865	0.877	0.01
Mof_C 	C 	0.6299	0.8717	0.0665	0.032
Mof_C 	C 	0.5983	0.8587	0.0864	-0.031
Mof_C 	C 	0.5932	0.8588	0.1346	0.096
Mof_C 	C 	0.6224	0.8702	0.173	-0.172
Mof_C 	C 	0.6549	0.8884	0.1494	0.07
Mof_C 	C 	0.6594	0.887	0.0975	-0.025
Mof_C 	C 	0.6233	0.8671	0.2295	0.491
Mof_C 	C 	0.6441	0.874	0.8382	-0.011
Mof_C 	C 	0.6091	0.8818	0.8083	0.116
Mof_C 	C 	0.6122	0.8781	0.751	-0.012
Mof_C 	C 	0.6494	0.874	0.7321	0.022
Mof_C 	C 	0.7219	0.871	0.742	-0.001
Mof_C 	C 	0.7573	0.8704	0.7758	0.146
Mof_C 	C 	0.7528	0.8698	0.8381	0.008
Mof_C 	C 	0.7182	0.8733	0.8549	0.023
Mof_C 	C 	0.6806	0.875	0.8197	0.017
Mof_C 	C 	0.6807	0.8726	0.7639	0.013
Mof_C 	C 	0.5384	0.8946	0.792	0.092
Mof_C 	C 	0.5063	0.9081	0.826	0.009
Mof_C 	C 	0.6468	0.8693	0.6745	0.01
Mof_C 	C 	0.6428	0.8978	0.6404	-0.001
Mof_C 	C 	0.6394	0.8973	0.5854	0.081
Mof_C 	C 	0.6448	0.8656	0.5619	-0.143
Mof_C 	C 	0.6494	0.8366	0.5946	0.069
Mof_C 	C 	0.653	0.8378	0.6497	0.018
Mof_C 	C 	0.6381	0.8617	0.5065	0.394
Mof_C 	C 	0.8699	0.5761	0.349	0.003
Mof_C 	C 	0.8954	0.5685	0.3106	0.122
Mof_C 	C 	0.9249	0.5422	0.3124	0.002
Mof_C 	C 	0.9259	0.5193	0.3553	0.014
Mof_C 	C 	0.8986	0.5015	0.4377	-0.024
Mof_C 	C 	0.8739	0.5052	0.4754	0.162
Mof_C 	C 	0.8472	0.5339	0.475	0.003
Mof_C 	C 	0.8415	0.5545	0.4324	0.048
Mof_C 	C 	0.8727	0.5523	0.3903	0.004
Mof_C 	C 	0.8978	0.5229	0.3934	0.029
Mof_C 	C 	0.9236	0.5923	0.2337	0.104
Mof_C 	C 	0.9276	0.6258	0.2032	-0.009
Mof_C 	C 	0.9568	0.4925	0.3561	0.041
Mof_C 	C 	0.9477	0.4619	0.3463	-0.02
Mof_C 	C 	0.9799	0.4353	0.3466	0.122
Mof_C 	C 	0.0156	0.4425	0.3551	-0.245
Mof_C 	C 	0.0274	0.4716	0.3684	0.137
Mof_C 	C 	0.9936	0.4996	0.3665	-0.029
Mof_C 	C 	0.0471	0.4164	0.3536	0.488
Mof_C 	C 	0.8386	0.6022	0.3426	-0.002
Mof_C 	C 	0.8544	0.6357	0.3526	0.118
Mof_C 	C 	0.8282	0.6652	0.3524	-0.014
Mof_C 	C 	0.7882	0.6619	0.3421	0.013
Mof_C 	C 	0.7309	0.6235	0.3236	-0.005
Mof_C 	C 	0.7133	0.5899	0.3125	0.154
Mof_C 	C 	0.7382	0.5635	0.3113	-0.009
Mof_C 	C 	0.7814	0.5669	0.3222	0.033
Mof_C 	C 	0.7985	0.5987	0.3368	0.005
Mof_C 	C 	0.769	0.6265	0.3322	0.012
Mof_C 	C 	0.9169	0.6722	0.3574	0.093
Mof_C 	C 	0.9601	0.6646	0.3405	0.011
Mof_C 	C 	0.7621	0.692	0.3475	0.022
Mof_C 	C 	0.7426	0.6989	0.3926	-0.001
Mof_C 	C 	0.722	0.73	0.3945	0.072
Mof_C 	C 	0.7182	0.7547	0.3548	-0.156
Mof_C 	C 	0.738	0.7467	0.3103	0.061
Mof_C 	C 	0.7602	0.7163	0.3081	-0.029
Mof_C 	C 	0.6967	0.7845	0.3617	0.406
Mof_C 	C 	0.8838	0.0732	0.3537	-0.01
Mof_C 	C 	0.8649	0.0562	0.3103	0.104
Mof_C 	C 	0.8379	0.0296	0.3169	-0.016
Mof_C 	C 	0.8298	0.02	0.3669	0.008
Mof_C 	C 	0.8487	0.037	0.4103	0.009
Mof_C 	C 	0.8757	0.0636	0.4037	0.003
Mof_C 	C 	0.8945	0.0806	0.4471	0.014
Mof_C 	C 	0.8865	0.071	0.4972	-0.01
Mof_C 	C 	0.8595	0.0444	0.5038	0.149
Mof_C 	C 	0.8406	0.0274	0.4604	-0.01
Mof_C 	C 	0.89	0.033	0.237	0.05
Mof_H 	H 	0.8792	0.0309	0.2009	0.064
Mof_C 	C 	0.891	0.997	0.259	0.01
Mof_C 	C 	0.8002	0.9923	0.3712	0.018
Mof_C 	C 	0.7617	0.0009	0.3876	-0.004
Mof_C 	C 	0.7334	0.9737	0.3857	0.088
Mof_C 	C 	0.739	0.9401	0.3698	-0.144
Mof_C 	C 	0.7766	0.934	0.355	0.073
Mof_C 	C 	0.8068	0.9592	0.3535	-0.019
Mof_C 	C 	0.7078	0.9144	0.3715	0.39
Mof_C 	C 	0.9094	0.1051	0.3414	-0.008
Mof_C 	C 	0.9512	0.1018	0.3374	0.109
Mof_C 	C 	0.975	0.1306	0.3318	-0.008
Mof_C 	C 	0.957	0.1627	0.3302	0.012
Mof_C 	C 	0.9152	0.1659	0.3342	0.013
Mof_C 	C 	0.8914	0.1372	0.3398	0.002
Mof_C 	C 	0.8496	0.1404	0.3438	0.028
Mof_C 	C 	0.8316	0.1725	0.3422	0.007
Mof_C 	C 	0.8554	0.2013	0.3365	0.195
Mof_C 	C 	0.8972	0.198	0.3325	-0.016
Mof_C 	C 	0.986	0.0618	0.403	0.087
Mof_C 	C 	0.033	0.067	0.409	0.029
Mof_C 	C 	0.9863	0.1935	0.343	0.011
Mof_C 	C 	0.0138	0.2024	0.3856	-0.006
Mof_C 	C 	0.0372	0.2318	0.3839	0.028
Mof_C 	C 	0.033	0.2524	0.3397	-0.096
Mof_C 	C 	0.0054	0.2435	0.2971	0.058
Mof_C 	C 	0.9821	0.2141	0.2988	0.008
Mof_C 	C 	0.0593	0.2839	0.3296	0.334
Mof_Zn	Zn	0.17289	0.351	0.32783	1.219
Mof_Zn	Zn	0.07665	0.34995	0.31825	1.215
Mof_Zn	Zn	0.12806	0.39338	0.40541	1.218
Mof_Zn	Zn	0.12553	0.31224	0.41561	1.191
Mof_Cl	Cl	0.162	0.2432	0.0124	-0.198
Mof_Cl	Cl	0.122	0.2423	0.0005	-0.175
Mof_Cl	Cl	0.3059	0.3655	0.7556	-0.312
Mof_Cl	Cl	0.8829	0.4823	0.5333	-0.141
Mof_Cl	Cl	0.3638	0.9743	0.5196	-0.18
Mof_Cl	Cl	0.6614	0.5839	0.2864	-0.077
Mof_Cl	Cl	0.1611	0.0874	0.3119	-0.196
Mof_Cl	Cl	0.3458	0.5354	0.5658	-0.28
Mof_Cl	Cl	0.3313	0.7385	0.3532	-0.214
Mof_Cl	Cl	0.3368	0.7343	0.297	-0.17
Mof_O 	O 	0.1252	0.351	0.3657	-0.954
Mof_O 	O 	0.1559	0.3698	0.2562	-0.52
Mof_O 	O 	0.0909	0.3598	0.2457	-0.512
Mof_O 	O 	0.1342	0.4324	0.897	-0.193
Mof_O 	O 	0.1402	0.3323	0.4868	-0.502
Mof_O 	O 	0.1317	0.3892	0.4792	-0.476
Mof_O 	O 	0.0701	0.3788	0.8281	-0.184
Mof_O 	O 	0.5394	0.8886	0.3321	-0.516
Mof_O 	O 	0.5796	0.9215	0.3807	-0.504
Mof_O 	O 	0.3931	0.0923	0.2691	-0.192
Mof_O 	O 	0.1966	0.3075	0.3258	-0.497
Mof_O 	O 	0.1789	0.2899	0.4033	-0.475
Mof_O 	O 	0.3979	0.1399	0.3607	-0.184
Mof_O 	O 	0.2139	0.3851	0.3501	-0.475
Mof_O 	O 	0.1742	0.4202	0.3917	-0.473
Mof_O 	O 	0.3691	0.5629	0.2558	-0.169
Mof_O 	O 	0.5452	0.8102	0.3074	-0.479
Mof_O 	O 	0.5948	0.7802	0.358	-0.459
Mof_O 	O 	0.4687	0.569	0.3504	-0.182
Mof_C 	C 	0.1385	0.3713	0.8982	-0.004
Mof_C 	C 	0.1354	0.4018	0.9247	0.118
Mof_C 	C 	0.1336	0.4018	0.9786	-0.022
Mof_C 	C 	0.1349	0.3712	0.0059	0.006
Mof_C 	C 	0.138	0.3407	0.9793	0.019
Mof_C 	C 	0.1398	0.3407	0.9255	-0.003
Mof_C 	C 	0.1429	0.3101	0.8989	0.048
Mof_C 	C 	0.1442	0.2796	0.9262	0.006
Mof_C 	C 	0.1424	0.2795	0.9801	0.187
Mof_C 	C 	0.1393	0.3101	0.0066	-0.023
Mof_C 	C 	0.1196	0.4639	0.9168	0.096
Mof_C 	C 	0.092	0.4865	0.877	0.01
Mof_C 	C 	0.1299	0.3717	0.0665	0.032
Mof_C 	C 	0.0983	0.3587	0.0864	-0.031
Mof_C 	C 	0.0932	0.3588	0.1346	0.096
Mof_C 	C 	0.1224	0.3702	0.173	-0.172
Mof_C 	C 	0.1549	0.3884	0.1494	0.07
Mof_C 	C 	0.1594	0.387	0.0975	-0.025
Mof_C 	C 	0.1233	0.3671	0.2295	0.491
Mof_C 	C 	0.1441	0.374	0.8382	-0.011
Mof_C 	C 	0.1091	0.3818	0.8083	0.116
Mof_C 	C 	0.1122	0.3781	0.751	-0.012
Mof_C 	C 	0.1494	0.374	0.7321	0.022
Mof_C 	C 	0.2219	0.371	0.742	-0.001
Mof_C 	C 	0.2573	0.3704	0.7758	0.146
Mof_C 	C 	0.2528	0.3698	0.8381	0.008
Mof_C 	C 	0.2182	0.3733	0.8549	0.023
Mof_C 	C 	0.1806	0.375	0.8197	0.017
Mof_C 	C 	0.1807	0.3726	0.7639	0.013
Mof_C 	C 	0.0384	0.3946	0.792	0.092
Mof_C 	C 	0.0063	0.4081	0.826	0.009
Mof_C 	C 	0.1468	0.3693	0.6745	0.01
Mof_C 	C 	0.1428	0.3978	0.6404	-0.001
Mof_C 	C 	0.1394	0.3973	0.5854	0.081
Mof_C 	C 	0.1448	0.3656	0.5619	-0.143
Mof_C 	C 	0.1494	0.3366	0.5946	0.069
Mof_C 	C 	0.153	0.3378	0.6497	0.018
Mof_C 	C 	0.1381	0.3617	0.5065	0.394
Mof_C 	C 	0.3699	0.0761	0.349	0.003
Mof_C 	C 	0.3954	0.0685	0.3106	0.122
Mof_C 	C 	0.4249	0.0422	0.3124	0.002
Mof_C 	C 	0.4259	0.0193	0.3553	0.013
Mof_C 	C 	0.3986	0.0015	0.4377	-0.025
Mof_C 	C 	0.3739	0.0052	0.4754	0.162
Mof_C 	C 	0.3472	0.0339	0.475	0.003
Mof_C 	C 	0.3415	0.0545	0.4324	0.048
Mof_C 	C 	0.3727	0.0523	0.3903	0.004
Mof_C 	C 	0.3978	0.0229	0.3934	0.029
Mof_C 	C 	0.4236	0.0923	0.2337	0.104
Mof_C 	C 	0.4276	0.1258	0.2032	-0.009
Mof_C 	C 	0.4568	0.9925	0.3561	0.041
Mof_C 	C 	0.4477	0.9619	0.3463	-0.02
Mof_C 	C 	0.4799	0.9353	0.3466	0.122
Mof_C 	C 	0.5156	0.9425	0.3551	-0.245
Mof_C 	C 	0.5274	0.9716	0.3684	0.137
Mof_C 	C 	0.4936	0.9996	0.3665	-0.029
Mof_C 	C 	0.5471	0.9164	0.3536	0.488
Mof_C 	C 	0.3386	0.1022	0.3426	-0.002
Mof_C 	C 	0.3544	0.1357	0.3526	0.118
Mof_C 	C 	0.3282	0.1652	0.3524	-0.014
Mof_C 	C 	0.2882	0.1619	0.3421	0.013
Mof_C 	C 	0.2309	0.1235	0.3236	-0.005
Mof_C 	C 	0.2133	0.0899	0.3125	0.154
Mof_C 	C 	0.2382	0.0635	0.3113	-0.009
Mof_C 	C 	0.2814	0.0669	0.3222	0.033
Mof_C 	C 	0.2985	0.0987	0.3368	0.005
Mof_C 	C 	0.269	0.1265	0.3322	0.012
Mof_C 	C 	0.4169	0.1722	0.3574	0.093
Mof_C 	C 	0.4601	0.1646	0.3405	0.011
Mof_C 	C 	0.2621	0.192	0.3475	0.022
Mof_C 	C 	0.2426	0.1989	0.3926	-0.001
Mof_C 	C 	0.222	0.23	0.3945	0.072
Mof_C 	C 	0.2182	0.2547	0.3548	-0.156
Mof_C 	C 	0.238	0.2467	0.3103	0.061
Mof_C 	C 	0.2602	0.2163	0.3081	-0.029
Mof_C 	C 	0.1967	0.2845	0.3617	0.406
Mof_C 	C 	0.3838	0.5732	0.3537	-0.011
Mof_C 	C 	0.3649	0.5562	0.3103	0.104
Mof_C 	C 	0.3379	0.5296	0.3169	-0.016
Mof_C 	C 	0.3298	0.52	0.3669	0.008
Mof_C 	C 	0.3487	0.537	0.4103	0.009
Mof_C 	C 	0.3757	0.5636	0.4037	0.003
Mof_C 	C 	0.3945	0.5806	0.4471	0.014
Mof_C 	C 	0.3865	0.571	0.4972	-0.01
Mof_C 	C 	0.3595	0.5444	0.5038	0.149
Mof_C 	C 	0.3406	0.5274	0.4604	-0.01
Mof_C 	C 	0.39	0.533	0.237	0.05
Mof_H 	H 	0.3792	0.5309	0.2009	0.064
Mof_C 	C 	0.391	0.497	0.259	0.01
Mof_C 	C 	0.3002	0.4923	0.3712	0.018
Mof_C 	C 	0.2617	0.5009	0.3876	-0.004
Mof_C 	C 	0.2334	0.4737	0.3857	0.088
Mof_C 	C 	0.239	0.4401	0.3698	-0.144
Mof_C 	C 	0.2766	0.434	0.355	0.073
Mof_C 	C 	0.3068	0.4592	0.3535	-0.019
Mof_C 	C 	0.2078	0.4144	0.3715	0.39
Mof_C 	C 	0.4094	0.6051	0.3414	-0.008
Mof_C 	C 	0.4512	0.6018	0.3374	0.109
Mof_C 	C 	0.475	0.6306	0.3318	-0.008
Mof_C 	C 	0.457	0.6627	0.3302	0.012
Mof_C 	C 	0.4152	0.6659	0.3342	0.013
Mof_C 	C 	0.3914	0.6372	0.3398	0.002
Mof_C 	C 	0.3496	0.6404	0.3438	0.028
Mof_C 	C 	0.3316	0.6725	0.3422	0.007
Mof_C 	C 	0.3554	0.7013	0.3365	0.195
Mof_C 	C 	0.3972	0.698	0.3325	-0.016
Mof_C 	C 	0.486	0.5618	0.403	0.087
Mof_C 	C 	0.533	0.567	0.409	0.029
Mof_C 	C 	0.4863	0.6935	0.343	0.011
Mof_C 	C 	0.5138	0.7024	0.3856	-0.006
Mof_C 	C 	0.5372	0.7318	0.3839	0.028
Mof_C 	C 	0.533	0.7524	0.3397	-0.096
Mof_C 	C 	0.5054	0.7435	0.2971	0.058
Mof_C 	C 	0.4821	0.7141	0.2988	0.008
Mof_C 	C 	0.5593	0.7839	0.3296	0.334
Mof_Zn	Zn	0.09684	0.71771	0.88821	1.206
Mof_Zn	Zn	0.05839	0.7585	0.78951	1.217
Mof_Zn	Zn	0.10107	0.7973	0.88716	1.207
Mof_Zn	Zn	0.15707	0.75257	0.81754	1.163
Mof_Cl	Cl	0.2824	0.7841	0.204	-0.284
Mof_Cl	Cl	0.1697	0.6341	0.5054	-0.301
Mof_Cl	Cl	0.328	0.3616	0.0011	-0.315
Mof_Cl	Cl	0.1453	0.4926	0.7284	-0.35
Mof_Cl	Cl	0.7755	0.686	0.7168	-0.294
Mof_Cl	Cl	0.6716	0.5245	0.9687	-0.191
Mof_Cl	Cl	0.6466	0.5312	0.925	-0.188
Mof_O 	O 	0.1042	0.7579	0.8443	-0.972
Mof_O 	O 	0.0973	0.7277	0.9613	-0.507
Mof_O 	O 	0.1057	0.7847	0.963	-0.456
Mof_O 	O 	0.0688	0.7402	0.322	-0.19
Mof_O 	O 	0.073	0.765	0.7193	-0.488
Mof_O 	O 	0.1386	0.756	0.7389	-0.509
Mof_O 	O 	0.127	0.8192	0.3724	-0.185
Mof_O 	O 	0.5184	0.2934	0.801	-0.493
Mof_O 	O 	0.5433	0.3156	0.8769	-0.485
Mof_O 	O 	0.3445	0.483	0.7519	-0.178
Mof_O 	O 	0.169	0.7025	0.8157	-0.506
Mof_O 	O 	0.1348	0.6808	0.8799	-0.492
Mof_O 	O 	0.3529	0.5305	0.9028	-0.17
Mof_O 	O 	0.0427	0.6964	0.8695	-0.469
Mof_O 	O 	0.0237	0.717	0.7887	-0.476
Mof_O 	O 	0.8691	0.5154	0.8615	-0.191
Mof_O 	O 	0.6154	0.3345	0.8004	-0.36
Mof_O 	O 	0.6407	0.3348	0.8826	-0.452
Mof_O 	O 	0.8281	0.4933	0.7519	-0.185
Mof_C 	C 	0.1367	0.7595	0.3193	-0.011
Mof_C 	C 	0.1016	0.7492	0.2912	0.116
Mof_C 	C 	0.095	0.75	0.2393	-0.023
Mof_C 	C 	0.1295	0.7595	0.2109	0.011
Mof_C 	C 	0.2048	0.771	0.2101	0.003
Mof_C 	C 	0.2419	0.7781	0.2366	0.18
Mof_C 	C 	0.2435	0.7825	0.2931	0.026
Mof_C 	C 	0.2107	0.7752	0.3184	0.043
Mof_C 	C 	0.1698	0.7669	0.2935	0.022
Mof_C 	C 	0.1633	0.7659	0.2358	0.021
Mof_C 	C 	0.0304	0.7581	0.3124	0.093
Mof_C 	C 	0.0309	0.7881	0.3394	0.002
Mof_C 	C 	0.1229	0.758	0.1515	0.023
Mof_C 	C 	0.1287	0.7851	0.1231	-0.012
Mof_C 	C 	0.1219	0.7852	0.0688	0.094
Mof_C 	C 	0.1082	0.7575	0.0434	-0.143
Mof_C 	C 	0.1045	0.7285	0.0719	0.067
Mof_C 	C 	0.1097	0.7275	0.1265	-0.017
Mof_C 	C 	0.1043	0.7546	0.9856	0.387
Mof_C 	C 	0.139	0.7597	0.3784	0.005
Mof_C 	C 	0.1319	0.7906	0.4054	0.111
Mof_C 	C 	0.1301	0.791	0.4593	-0.025
Mof_C 	C 	0.1349	0.7633	0.487	0.009
Mof_C 	C 	0.1499	0.7008	0.494	-0.013
Mof_C 	C 	0.1613	0.671	0.4682	0.149
Mof_C 	C 	0.1655	0.6714	0.4146	-0.003
Mof_C 	C 	0.1575	0.7025	0.3867	0.044
Mof_C 	C 	0.1459	0.7283	0.409	-0.006
Mof_C 	C 	0.1454	0.7311	0.4668	0.013
Mof_C 	C 	0.1163	0.8516	0.3948	0.092
Mof_C 	C 	0.1095	0.8772	0.3522	0.022
Mof_C 	C 	0.13	0.7647	0.5451	0.021
Mof_C 	C 	0.0912	0.7675	0.5604	-0.021
Mof_C 	C 	0.0831	0.7665	0.6134	0.081
Mof_C 	C 	0.1144	0.7637	0.6506	-0.162
Mof_C 	C 	0.1558	0.76	0.636	0.06
Mof_C 	C 	0.1617	0.7611	0.5835	-0.017
Mof_C 	C 	0.1086	0.7615	0.7055	0.439
Mof_C 	C 	0.3328	0.4671	0.8394	0.001
Mof_C 	C 	0.36	0.4645	0.8015	0.101
Mof_C 	C 	0.3866	0.4369	0.8017	-0.007
Mof_C 	C 	0.3858	0.4119	0.8399	0.019
Mof_C 	C 	0.3586	0.4145	0.8778	0.019
Mof_C 	C 	0.332	0.4421	0.8776	0.002
Mof_C 	C 	0.3048	0.4448	0.9155	0.034
Mof_C 	C 	0.304	0.4198	0.9537	-0.011
Mof_C 	C 	0.3305	0.3922	0.954	0.16
Mof_C 	C 	0.3578	0.3895	0.916	-0.013
Mof_C 	C 	0.3536	0.4731	0.7016	0.125
Mof_C 	C 	0.3995	0.4841	0.712	0.038
Mof_C 	C 	0.4202	0.3836	0.8418	0.023
Mof_C 	C 	0.4469	0.3812	0.8834	-0.014
Mof_C 	C 	0.4801	0.3586	0.8801	0.089
Mof_C 	C 	0.4831	0.3358	0.8384	-0.185
Mof_C 	C 	0.4541	0.3395	0.7986	0.09
Mof_C 	C 	0.4194	0.3609	0.7993	-0.003
Mof_C 	C 	0.5164	0.3142	0.8388	0.448
Mof_C 	C 	0.3058	0.4994	0.8379	0.001
Mof_C 	C 	0.3193	0.5295	0.8624	0.109
Mof_C 	C 	0.2928	0.5571	0.8632	-0.007
Mof_C 	C 	0.2529	0.5546	0.8396	0.004
Mof_C 	C 	0.2393	0.5246	0.8152	0.022
Mof_C 	C 	0.2658	0.497	0.8143	-0.003
Mof_C 	C 	0.2523	0.4669	0.7899	0.037
Mof_C 	C 	0.2123	0.4644	0.7663	-0.032
Mof_C 	C 	0.1859	0.492	0.7671	0.2
Mof_C 	C 	0.1994	0.5221	0.7916	-0.033
Mof_C 	C 	0.362	0.5655	0.914	0.129
Mof_C 	C 	0.351	0.602	0.9	0.022
Mof_C 	C 	0.2292	0.5862	0.8399	0.026
Mof_C 	C 	0.2061	0.5941	0.8797	-0.012
Mof_C 	C 	0.1831	0.6232	0.8841	0.07
Mof_C 	C 	0.1846	0.646	0.8443	-0.128
Mof_C 	C 	0.2061	0.6398	0.8031	0.068
Mof_C 	C 	0.2281	0.6108	0.802	-0.016
Mof_C 	C 	0.1604	0.6788	0.8458	0.388
Mof_C 	C 	0.8243	0.5507	0.8066	-0.006
Mof_C 	C 	0.8611	0.5477	0.8382	0.112
Mof_C 	C 	0.8914	0.574	0.8394	-0.025
Mof_C 	C 	0.8828	0.6024	0.8153	0.011
Mof_C 	C 	0.8305	0.6425	0.7661	-0.009
Mof_C 	C 	0.7894	0.6465	0.7394	0.155
Mof_C 	C 	0.762	0.6193	0.7381	-0.01
Mof_C 	C 	0.774	0.5897	0.7553	0.024
Mof_C 	C 	0.8144	0.5805	0.7872	0.004
Mof_C 	C 	0.8428	0.611	0.7885	0.008
Mof_C 	C 	0.9095	0.5082	0.8868	0.091
Mof_C 	C 	0.9099	0.4721	0.9005	-0
Mof_C 	C 	0.9173	0.6308	0.8186	0.021
Mof_C 	C 	0.9293	0.6461	0.7725	-0.015
Mof_C 	C 	0.9616	0.6689	0.7766	0.079
Mof_C 	C 	0.9834	0.6762	0.823	-0.146
Mof_C 	C 	0.9676	0.6594	0.8696	0.063
Mof_C 	C 	0.9366	0.6381	0.864	-0.023
Mof_C 	C 	0.017	0.6984	0.8269	0.389
Mof_C 	C 	0.7901	0.5226	0.814	-0.011
Mof_C 	C 	0.7952	0.494	0.7835	0.117
Mof_C 	C 	0.7692	0.4663	0.7859	-0.028
Mof_C 	C 	0.7381	0.4671	0.8189	0.012
Mof_C 	C 	0.7331	0.4956	0.8495	0.01
Mof_C 	C 	0.7591	0.5234	0.8471	0.002
Mof_C 	C 	0.754	0.552	0.8777	0.024
Mof_C 	C 	0.7229	0.5528	0.9107	-0.01
Mof_C 	C 	0.6969	0.525	0.9131	0.19
Mof_C 	C 	0.702	0.4964	0.8825	-0.017
Mof_C 	C 	0.8464	0.4601	0.743	0.083
Mof_C 	C 	0.8907	0.4671	0.728	0.002
Mof_C 	C 	0.7148	0.4344	0.8205	0.01
Mof_C 	C 	0.6825	0.4272	0.7828	-0.008
Mof_C 	C 	0.6564	0.4001	0.7898	0.041
Mof_C 	C 	0.6626	0.3802	0.8347	-0.068
Mof_C 	C 	0.6949	0.3874	0.8724	0.061
Mof_C 	C 	0.721	0.4145	0.8654	-0.004
Mof_C 	C 	0.6395	0.3429	0.837	0.324
Mof_Zn	Zn	0.59684	0.21771	0.88821	1.206
Mof_Zn	Zn	0.55839	0.2585	0.78951	1.217
Mof_Zn	Zn	0.60107	0.2973	0.88716	1.207
Mof_Zn	Zn	0.65707	0.25257	0.81754	1.163
Mof_Cl	Cl	0.7824	0.2841	0.204	-0.284
Mof_Cl	Cl	0.6697	0.1341	0.5054	-0.301
Mof_Cl	Cl	0.828	0.8616	0.0011	-0.315
Mof_Cl	Cl	0.6453	0.9926	0.7284	-0.35
Mof_Cl	Cl	0.2755	0.186	0.7168	-0.294
Mof_Cl	Cl	0.1716	0.0245	0.9687	-0.191
Mof_Cl	Cl	0.1466	0.0312	0.925	-0.188
Mof_O 	O 	0.6042	0.2579	0.8443	-0.972
Mof_O 	O 	0.5973	0.2277	0.9613	-0.507
Mof_O 	O 	0.6057	0.2847	0.963	-0.456
Mof_O 	O 	0.5688	0.2402	0.322	-0.19
Mof_O 	O 	0.573	0.265	0.7193	-0.488
Mof_O 	O 	0.6386	0.256	0.7389	-0.509
Mof_O 	O 	0.627	0.3192	0.3724	-0.185
Mof_O 	O 	0.0184	0.7934	0.801	-0.492
Mof_O 	O 	0.0433	0.8156	0.8769	-0.485
Mof_O 	O 	0.8445	0.983	0.7519	-0.178
Mof_O 	O 	0.669	0.2025	0.8157	-0.506
Mof_O 	O 	0.6348	0.1808	0.8799	-0.492
Mof_O 	O 	0.8529	0.0305	0.9028	-0.17
Mof_O 	O 	0.5427	0.1964	0.8695	-0.469
Mof_O 	O 	0.5237	0.217	0.7887	-0.476
Mof_O 	O 	0.3691	0.0154	0.8615	-0.191
Mof_O 	O 	0.1154	0.8345	0.8004	-0.36
Mof_O 	O 	0.1407	0.8348	0.8826	-0.452
Mof_O 	O 	0.3281	0.9933	0.7519	-0.185
Mof_C 	C 	0.6367	0.2595	0.3193	-0.011
Mof_C 	C 	0.6016	0.2492	0.2912	0.116
Mof_C 	C 	0.595	0.25	0.2393	-0.023
Mof_C 	C 	0.6295	0.2595	0.2109	0.011
Mof_C 	C 	0.7048	0.271	0.2101	0.002
Mof_C 	C 	0.7419	0.2781	0.2366	0.18
Mof_C 	C 	0.7435	0.2825	0.2931	0.026
Mof_C 	C 	0.7107	0.2752	0.3184	0.043
Mof_C 	C 	0.6698	0.2669	0.2935	0.022
Mof_C 	C 	0.6633	0.2659	0.2358	0.021
Mof_C 	C 	0.5304	0.2581	0.3124	0.093
Mof_C 	C 	0.5309	0.2881	0.3394	0.002
Mof_C 	C 	0.6229	0.258	0.1515	0.023
Mof_C 	C 	0.6287	0.2851	0.1231	-0.012
Mof_C 	C 	0.6219	0.2852	0.0688	0.094
Mof_C 	C 	0.6082	0.2575	0.0434	-0.143
Mof_C 	C 	0.6045	0.2285	0.0719	0.067
Mof_C 	C 	0.6097	0.2275	0.1265	-0.017
Mof_C 	C 	0.6043	0.2546	0.9856	0.387
Mof_C 	C 	0.639	0.2597	0.3784	0.005
Mof_C 	C 	0.6319	0.2906	0.4054	0.111
Mof_C 	C 	0.6301	0.291	0.4593	-0.025
Mof_C 	C 	0.6349	0.2633	0.487	0.009
Mof_C 	C 	0.6499	0.2008	0.494	-0.013
Mof_C 	C 	0.6613	0.171	0.4682	0.149
Mof_C 	C 	0.6655	0.1714	0.4146	-0.003
Mof_C 	C 	0.6575	0.2025	0.3867	0.044
Mof_C 	C 	0.6459	0.2283	0.409	-0.006
Mof_C 	C 	0.6454	0.2311	0.4668	0.013
Mof_C 	C 	0.6163	0.3516	0.3948	0.092
Mof_C 	C 	0.6095	0.3772	0.3522	0.022
Mof_C 	C 	0.63	0.2647	0.5451	0.021
Mof_C 	C 	0.5912	0.2675	0.5604	-0.021
Mof_C 	C 	0.5831	0.2665	0.6134	0.081
Mof_C 	C 	0.6144	0.2637	0.6506	-0.162
Mof_C 	C 	0.6558	0.26	0.636	0.06
Mof_C 	C 	0.6617	0.2611	0.5835	-0.017
Mof_C 	C 	0.6086	0.2615	0.7055	0.439
Mof_C 	C 	0.8328	0.9671	0.8394	0.001
Mof_C 	C 	0.86	0.9645	0.8015	0.101
Mof_C 	C 	0.8866	0.9369	0.8017	-0.007
Mof_C 	C 	0.8858	0.9119	0.8399	0.019
Mof_C 	C 	0.8586	0.9145	0.8778	0.019
Mof_C 	C 	0.832	0.9421	0.8776	0.002
Mof_C 	C 	0.8048	0.9448	0.9155	0.034
Mof_C 	C 	0.804	0.9198	0.9537	-0.011
Mof_C 	C 	0.8305	0.8922	0.954	0.16
Mof_C 	C 	0.8578	0.8895	0.916	-0.013
Mof_C 	C 	0.8536	0.9731	0.7016	0.125
Mof_C 	C 	0.8995	0.9841	0.712	0.038
Mof_C 	C 	0.9202	0.8836	0.8418	0.023
Mof_C 	C 	0.9469	0.8812	0.8834	-0.014
Mof_C 	C 	0.9801	0.8586	0.8801	0.089
Mof_C 	C 	0.9831	0.8358	0.8384	-0.185
Mof_C 	C 	0.9541	0.8395	0.7986	0.09
Mof_C 	C 	0.9194	0.8609	0.7993	-0.003
Mof_C 	C 	0.0164	0.8142	0.8388	0.448
Mof_C 	C 	0.8058	0.9994	0.8379	0.001
Mof_C 	C 	0.8193	0.0295	0.8624	0.109
Mof_C 	C 	0.7928	0.0571	0.8632	-0.007
Mof_C 	C 	0.7529	0.0546	0.8396	0.004
Mof_C 	C 	0.7393	0.0246	0.8152	0.022
Mof_C 	C 	0.7658	0.997	0.8143	-0.003
Mof_C 	C 	0.7523	0.9669	0.7899	0.037
Mof_C 	C 	0.7123	0.9644	0.7663	-0.032
Mof_C 	C 	0.6859	0.992	0.7671	0.2
Mof_C 	C 	0.6994	0.0221	0.7916	-0.033
Mof_C 	C 	0.862	0.0655	0.914	0.129
Mof_C 	C 	0.851	0.102	0.9	0.022
Mof_C 	C 	0.7292	0.0862	0.8399	0.026
Mof_C 	C 	0.7061	0.0941	0.8797	-0.012
Mof_C 	C 	0.6831	0.1232	0.8841	0.07
Mof_C 	C 	0.6846	0.146	0.8443	-0.128
Mof_C 	C 	0.7061	0.1398	0.8031	0.068
Mof_C 	C 	0.7281	0.1108	0.802	-0.016
Mof_C 	C 	0.6604	0.1788	0.8458	0.388
Mof_C 	C 	0.3243	0.0507	0.8066	-0.006
Mof_C 	C 	0.3611	0.0477	0.8382	0.112
Mof_C 	C 	0.3914	0.074	0.8394	-0.025
Mof_C 	C 	0.3828	0.1024	0.8153	0.011
Mof_C 	C 	0.3305	0.1425	0.7661	-0.009
Mof_C 	C 	0.2894	0.1465	0.7394	0.155
Mof_C 	C 	0.262	0.1193	0.7381	-0.01
Mof_C 	C 	0.274	0.0897	0.7553	0.024
Mof_C 	C 	0.3144	0.0805	0.7872	0.004
Mof_C 	C 	0.3428	0.111	0.7885	0.008
Mof_C 	C 	0.4095	0.0082	0.8868	0.091
Mof_C 	C 	0.4099	0.9721	0.9005	-0
Mof_C 	C 	0.4173	0.1308	0.8186	0.021
Mof_C 	C 	0.4293	0.1461	0.7725	-0.015
Mof_C 	C 	0.4616	0.1689	0.7766	0.079
Mof_C 	C 	0.4834	0.1762	0.823	-0.146
Mof_C 	C 	0.4676	0.1594	0.8696	0.063
Mof_C 	C 	0.4366	0.1381	0.864	-0.023
Mof_C 	C 	0.517	0.1984	0.8269	0.389
Mof_C 	C 	0.2901	0.0226	0.814	-0.011
Mof_C 	C 	0.2952	0.994	0.7835	0.117
Mof_C 	C 	0.2692	0.9663	0.7859	-0.028
Mof_C 	C 	0.2381	0.9671	0.8189	0.012
Mof_C 	C 	0.2331	0.9956	0.8495	0.01
Mof_C 	C 	0.2591	0.0234	0.8471	0.001
Mof_C 	C 	0.254	0.052	0.8777	0.024
Mof_C 	C 	0.2229	0.0528	0.9107	-0.01
Mof_C 	C 	0.1969	0.025	0.9131	0.19
Mof_C 	C 	0.202	0.9964	0.8825	-0.017
Mof_C 	C 	0.3464	0.9601	0.743	0.083
Mof_C 	C 	0.3907	0.9671	0.728	0.002
Mof_C 	C 	0.2148	0.9344	0.8205	0.01
Mof_C 	C 	0.1825	0.9272	0.7828	-0.008
Mof_C 	C 	0.1564	0.9001	0.7898	0.041
Mof_C 	C 	0.1626	0.8802	0.8347	-0.068
Mof_C 	C 	0.1949	0.8874	0.8724	0.061
Mof_C 	C 	0.221	0.9145	0.8654	-0.004
Mof_C 	C 	0.1395	0.8429	0.837	0.324
Mof_Zn	Zn	0.90316	0.71771	0.11179	1.206
Mof_Zn	Zn	0.94161	0.7585	0.21049	1.217
Mof_Zn	Zn	0.89893	0.7973	0.11284	1.207
Mof_Zn	Zn	0.84293	0.75257	0.18246	1.163
Mof_Cl	Cl	0.7176	0.7841	0.796	-0.284
Mof_Cl	Cl	0.8303	0.6341	0.4946	-0.301
Mof_Cl	Cl	0.672	0.3616	0.9989	-0.315
Mof_Cl	Cl	0.8547	0.4926	0.2716	-0.35
Mof_Cl	Cl	0.2245	0.686	0.2832	-0.294
Mof_Cl	Cl	0.3284	0.5245	0.0313	-0.191
Mof_Cl	Cl	0.3534	0.5312	0.075	-0.188
Mof_O 	O 	0.8958	0.7579	0.1557	-0.972
Mof_O 	O 	0.9027	0.7277	0.0387	-0.507
Mof_O 	O 	0.8943	0.7847	0.037	-0.456
Mof_O 	O 	0.9312	0.7402	0.678	-0.19
Mof_O 	O 	0.927	0.765	0.2807	-0.488
Mof_O 	O 	0.8614	0.756	0.2611	-0.509
Mof_O 	O 	0.873	0.8192	0.6276	-0.185
Mof_O 	O 	0.4816	0.2934	0.199	-0.493
Mof_O 	O 	0.4567	0.3156	0.1231	-0.485
Mof_O 	O 	0.6555	0.483	0.2481	-0.178
Mof_O 	O 	0.831	0.7025	0.1843	-0.506
Mof_O 	O 	0.8652	0.6808	0.1201	-0.492
Mof_O 	O 	0.6471	0.5305	0.0972	-0.17
Mof_O 	O 	0.9573	0.6964	0.1305	-0.469
Mof_O 	O 	0.9763	0.717	0.2113	-0.476
Mof_O 	O 	0.1309	0.5154	0.1385	-0.191
Mof_O 	O 	0.3846	0.3345	0.1996	-0.36
Mof_O 	O 	0.3593	0.3348	0.1174	-0.452
Mof_O 	O 	0.1719	0.4933	0.2481	-0.185
Mof_C 	C 	0.8633	0.7595	0.6807	-0.011
Mof_C 	C 	0.8984	0.7492	0.7088	0.116
Mof_C 	C 	0.905	0.75	0.7607	-0.023
Mof_C 	C 	0.8705	0.7595	0.7891	0.011
Mof_C 	C 	0.7952	0.771	0.7899	0.003
Mof_C 	C 	0.7581	0.7781	0.7634	0.18
Mof_C 	C 	0.7565	0.7825	0.7069	0.026
Mof_C 	C 	0.7893	0.7752	0.6816	0.043
Mof_C 	C 	0.8302	0.7669	0.7065	0.022
Mof_C 	C 	0.8367	0.7659	0.7642	0.021
Mof_C 	C 	0.9696	0.7581	0.6876	0.093
Mof_C 	C 	0.9691	0.7881	0.6606	0.002
Mof_C 	C 	0.8771	0.758	0.8485	0.023
Mof_C 	C 	0.8713	0.7851	0.8769	-0.012
Mof_C 	C 	0.8781	0.7852	0.9312	0.094
Mof_C 	C 	0.8918	0.7575	0.9566	-0.143
Mof_C 	C 	0.8955	0.7285	0.9281	0.067
Mof_C 	C 	0.8903	0.7275	0.8735	-0.017
Mof_C 	C 	0.8957	0.7546	0.0144	0.387
Mof_C 	C 	0.861	0.7597	0.6216	0.005
Mof_C 	C 	0.8681	0.7906	0.5946	0.111
Mof_C 	C 	0.8699	0.791	0.5407	-0.025
Mof_C 	C 	0.8651	0.7633	0.513	0.009
Mof_C 	C 	0.8501	0.7008	0.506	-0.013
Mof_C 	C 	0.8387	0.671	0.5318	0.149
Mof_C 	C 	0.8345	0.6714	0.5854	-0.003
Mof_C 	C 	0.8425	0.7025	0.6133	0.044
Mof_C 	C 	0.8541	0.7283	0.591	-0.006
Mof_C 	C 	0.8546	0.7311	0.5332	0.013
Mof_C 	C 	0.8837	0.8516	0.6052	0.092
Mof_C 	C 	0.8905	0.8772	0.6478	0.022
Mof_C 	C 	0.87	0.7647	0.4549	0.021
Mof_C 	C 	0.9088	0.7675	0.4396	-0.021
Mof_C 	C 	0.9169	0.7665	0.3866	0.081
Mof_C 	C 	0.8856	0.7637	0.3494	-0.162
Mof_C 	C 	0.8442	0.76	0.364	0.06
Mof_C 	C 	0.8383	0.7611	0.4165	-0.017
Mof_C 	C 	0.8914	0.7615	0.2945	0.439
Mof_C 	C 	0.6672	0.4671	0.1606	0.001
Mof_C 	C 	0.64	0.4645	0.1985	0.101
Mof_C 	C 	0.6134	0.4369	0.1983	-0.007
Mof_C 	C 	0.6142	0.4119	0.1601	0.019
Mof_C 	C 	0.6414	0.4145	0.1222	0.019
Mof_C 	C 	0.668	0.4421	0.1224	0.002
Mof_C 	C 	0.6952	0.4448	0.0845	0.034
Mof_C 	C 	0.696	0.4198	0.0463	-0.011
Mof_C 	C 	0.6695	0.3922	0.046	0.16
Mof_C 	C 	0.6422	0.3895	0.084	-0.013
Mof_C 	C 	0.6464	0.4731	0.2984	0.125
Mof_C 	C 	0.6005	0.4841	0.288	0.038
Mof_C 	C 	0.5798	0.3836	0.1582	0.023
Mof_C 	C 	0.5531	0.3812	0.1166	-0.014
Mof_C 	C 	0.5199	0.3586	0.1199	0.089
Mof_C 	C 	0.5169	0.3358	0.1616	-0.185
Mof_C 	C 	0.5459	0.3395	0.2014	0.09
Mof_C 	C 	0.5806	0.3609	0.2007	-0.003
Mof_C 	C 	0.4836	0.3142	0.1612	0.448
Mof_C 	C 	0.6942	0.4994	0.1621	0.001
Mof_C 	C 	0.6807	0.5295	0.1376	0.109
Mof_C 	C 	0.7072	0.5571	0.1368	-0.007
Mof_C 	C 	0.7471	0.5546	0.1604	0.004
Mof_C 	C 	0.7607	0.5246	0.1848	0.022
Mof_C 	C 	0.7342	0.497	0.1857	-0.003
Mof_C 	C 	0.7477	0.4669	0.2101	0.037
Mof_C 	C 	0.7877	0.4644	0.2337	-0.032
Mof_C 	C 	0.8141	0.492	0.2329	0.2
Mof_C 	C 	0.8006	0.5221	0.2084	-0.033
Mof_C 	C 	0.638	0.5655	0.086	0.129
Mof_C 	C 	0.649	0.602	0.1	0.022
Mof_C 	C 	0.7708	0.5862	0.1601	0.026
Mof_C 	C 	0.7939	0.5941	0.1203	-0.012
Mof_C 	C 	0.8169	0.6232	0.1159	0.07
Mof_C 	C 	0.8154	0.646	0.1557	-0.128
Mof_C 	C 	0.7939	0.6398	0.1969	0.068
Mof_C 	C 	0.7719	0.6108	0.198	-0.016
Mof_C 	C 	0.8396	0.6788	0.1542	0.388
Mof_C 	C 	0.1757	0.5507	0.1934	-0.006
Mof_C 	C 	0.1389	0.5477	0.1618	0.112
Mof_C 	C 	0.1086	0.574	0.1606	-0.025
Mof_C 	C 	0.1172	0.6024	0.1847	0.011
Mof_C 	C 	0.1695	0.6425	0.2339	-0.009
Mof_C 	C 	0.2106	0.6465	0.2606	0.155
Mof_C 	C 	0.238	0.6193	0.2619	-0.01
Mof_C 	C 	0.226	0.5897	0.2447	0.024
Mof_C 	C 	0.1856	0.5805	0.2128	0.004
Mof_C 	C 	0.1572	0.611	0.2115	0.008
Mof_C 	C 	0.0905	0.5082	0.1132	0.091
Mof_C 	C 	0.0901	0.4721	0.0995	-0
Mof_C 	C 	0.0827	0.6308	0.1814	0.021
Mof_C 	C 	0.0707	0.6461	0.2275	-0.015
Mof_C 	C 	0.0384	0.6689	0.2234	0.079
Mof_C 	C 	0.0166	0.6762	0.177	-0.146
Mof_C 	C 	0.0324	0.6594	0.1304	0.063
Mof_C 	C 	0.0634	0.6381	0.136	-0.023
Mof_C 	C 	0.983	0.6984	0.1731	0.389
Mof_C 	C 	0.2099	0.5226	0.186	-0.011
Mof_C 	C 	0.2048	0.494	0.2165	0.117
Mof_C 	C 	0.2308	0.4663	0.2141	-0.028
Mof_C 	C 	0.2619	0.4671	0.1811	0.012
Mof_C 	C 	0.2669	0.4956	0.1505	0.01
Mof_C 	C 	0.2409	0.5234	0.1529	0.002
Mof_C 	C 	0.246	0.552	0.1223	0.024
Mof_C 	C 	0.2771	0.5528	0.0893	-0.01
Mof_C 	C 	0.3031	0.525	0.0869	0.19
Mof_C 	C 	0.298	0.4964	0.1175	-0.017
Mof_C 	C 	0.1536	0.4601	0.257	0.083
Mof_C 	C 	0.1093	0.4671	0.272	0.002
Mof_C 	C 	0.2852	0.4344	0.1795	0.01
Mof_C 	C 	0.3175	0.4272	0.2172	-0.008
Mof_C 	C 	0.3436	0.4001	0.2102	0.041
Mof_C 	C 	0.3374	0.3802	0.1653	-0.068
Mof_C 	C 	0.3051	0.3874	0.1276	0.061
Mof_C 	C 	0.279	0.4145	0.1346	-0.004
Mof_C 	C 	0.3605	0.3429	0.163	0.324
Mof_Zn	Zn	0.40316	0.21771	0.11179	1.206
Mof_Zn	Zn	0.44161	0.2585	0.21049	1.217
Mof_Zn	Zn	0.39893	0.2973	0.11284	1.207
Mof_Zn	Zn	0.34293	0.25257	0.18246	1.163
Mof_Cl	Cl	0.2176	0.2841	0.796	-0.284
Mof_Cl	Cl	0.3303	0.1341	0.4946	-0.301
Mof_Cl	Cl	0.172	0.8616	0.9989	-0.315
Mof_Cl	Cl	0.3547	0.9926	0.2716	-0.35
Mof_Cl	Cl	0.7245	0.186	0.2832	-0.294
Mof_Cl	Cl	0.8284	0.0245	0.0313	-0.191
Mof_Cl	Cl	0.8534	0.0312	0.075	-0.188
Mof_O 	O 	0.3958	0.2579	0.1557	-0.972
Mof_O 	O 	0.4027	0.2277	0.0387	-0.507
Mof_O 	O 	0.3943	0.2847	0.037	-0.456
Mof_O 	O 	0.4312	0.2402	0.678	-0.19
Mof_O 	O 	0.427	0.265	0.2807	-0.488
Mof_O 	O 	0.3614	0.256	0.2611	-0.509
Mof_O 	O 	0.373	0.3192	0.6276	-0.185
Mof_O 	O 	0.9816	0.7934	0.199	-0.492
Mof_O 	O 	0.9567	0.8156	0.1231	-0.485
Mof_O 	O 	0.1555	0.983	0.2481	-0.178
Mof_O 	O 	0.331	0.2025	0.1843	-0.506
Mof_O 	O 	0.3652	0.1808	0.1201	-0.492
Mof_O 	O 	0.1471	0.0305	0.0972	-0.17
Mof_O 	O 	0.4573	0.1964	0.1305	-0.469
Mof_O 	O 	0.4763	0.217	0.2113	-0.476
Mof_O 	O 	0.6309	0.0154	0.1385	-0.191
Mof_O 	O 	0.8846	0.8345	0.1996	-0.36
Mof_O 	O 	0.8593	0.8348	0.1174	-0.452
Mof_O 	O 	0.6719	0.9933	0.2481	-0.185
Mof_C 	C 	0.3633	0.2595	0.6807	-0.011
Mof_C 	C 	0.3984	0.2492	0.7088	0.116
Mof_C 	C 	0.405	0.25	0.7607	-0.023
Mof_C 	C 	0.3705	0.2595	0.7891	0.011
Mof_C 	C 	0.2952	0.271	0.7899	0.002
Mof_C 	C 	0.2581	0.2781	0.7634	0.18
Mof_C 	C 	0.2565	0.2825	0.7069	0.026
Mof_C 	C 	0.2893	0.2752	0.6816	0.043
Mof_C 	C 	0.3302	0.2669	0.7065	0.022
Mof_C 	C 	0.3367	0.2659	0.7642	0.021
Mof_C 	C 	0.4696	0.2581	0.6876	0.093
Mof_C 	C 	0.4691	0.2881	0.6606	0.002
Mof_C 	C 	0.3771	0.258	0.8485	0.023
Mof_C 	C 	0.3713	0.2851	0.8769	-0.012
Mof_C 	C 	0.3781	0.2852	0.9312	0.094
Mof_C 	C 	0.3918	0.2575	0.9566	-0.143
Mof_C 	C 	0.3955	0.2285	0.9281	0.067
Mof_C 	C 	0.3903	0.2275	0.8735	-0.017
Mof_C 	C 	0.3957	0.2546	0.0144	0.387
Mof_C 	C 	0.361	0.2597	0.6216	0.005
Mof_C 	C 	0.3681	0.2906	0.5946	0.111
Mof_C 	C 	0.3699	0.291	0.5407	-0.025
Mof_C 	C 	0.3651	0.2633	0.513	0.009
Mof_C 	C 	0.3501	0.2008	0.506	-0.013
Mof_C 	C 	0.3387	0.171	0.5318	0.149
Mof_C 	C 	0.3345	0.1714	0.5854	-0.003
Mof_C 	C 	0.3425	0.2025	0.6133	0.044
Mof_C 	C 	0.3541	0.2283	0.591	-0.006
Mof_C 	C 	0.3546	0.2311	0.5332	0.013
Mof_C 	C 	0.3837	0.3516	0.6052	0.092
Mof_C 	C 	0.3905	0.3772	0.6478	0.022
Mof_C 	C 	0.37	0.2647	0.4549	0.021
Mof_C 	C 	0.4088	0.2675	0.4396	-0.021
Mof_C 	C 	0.4169	0.2665	0.3866	0.081
Mof_C 	C 	0.3856	0.2637	0.3494	-0.162
Mof_C 	C 	0.3442	0.26	0.364	0.06
Mof_C 	C 	0.3383	0.2611	0.4165	-0.017
Mof_C 	C 	0.3914	0.2615	0.2945	0.439
Mof_C 	C 	0.1672	0.9671	0.1606	0.001
Mof_C 	C 	0.14	0.9645	0.1985	0.101
Mof_C 	C 	0.1134	0.9369	0.1983	-0.007
Mof_C 	C 	0.1142	0.9119	0.1601	0.019
Mof_C 	C 	0.1414	0.9145	0.1222	0.019
Mof_C 	C 	0.168	0.9421	0.1224	0.002
Mof_C 	C 	0.1952	0.9448	0.0845	0.034
Mof_C 	C 	0.196	0.9198	0.0463	-0.011
Mof_C 	C 	0.1695	0.8922	0.046	0.16
Mof_C 	C 	0.1422	0.8895	0.084	-0.013
Mof_C 	C 	0.1464	0.9731	0.2984	0.125
Mof_C 	C 	0.1005	0.9841	0.288	0.038
Mof_C 	C 	0.0798	0.8836	0.1582	0.023
Mof_C 	C 	0.0531	0.8812	0.1166	-0.014
Mof_C 	C 	0.0199	0.8586	0.1199	0.089
Mof_C 	C 	0.0169	0.8358	0.1616	-0.185
Mof_C 	C 	0.0459	0.8395	0.2014	0.09
Mof_C 	C 	0.0806	0.8609	0.2007	-0.003
Mof_C 	C 	0.9836	0.8142	0.1612	0.448
Mof_C 	C 	0.1942	0.9994	0.1621	0.001
Mof_C 	C 	0.1807	0.0295	0.1376	0.109
Mof_C 	C 	0.2072	0.0571	0.1368	-0.007
Mof_C 	C 	0.2471	0.0546	0.1604	0.004
Mof_C 	C 	0.2607	0.0246	0.1848	0.022
Mof_C 	C 	0.2342	0.997	0.1857	-0.003
Mof_C 	C 	0.2477	0.9669	0.2101	0.037
Mof_C 	C 	0.2877	0.9644	0.2337	-0.032
Mof_C 	C 	0.3141	0.992	0.2329	0.2
Mof_C 	C 	0.3006	0.0221	0.2084	-0.033
Mof_C 	C 	0.138	0.0655	0.086	0.129
Mof_C 	C 	0.149	0.102	0.1	0.022
Mof_C 	C 	0.2708	0.0862	0.1601	0.026
Mof_C 	C 	0.2939	0.0941	0.1203	-0.012
Mof_C 	C 	0.3169	0.1232	0.1159	0.07
Mof_C 	C 	0.3154	0.146	0.1557	-0.128
Mof_C 	C 	0.2939	0.1398	0.1969	0.068
Mof_C 	C 	0.2719	0.1108	0.198	-0.016
Mof_C 	C 	0.3396	0.1788	0.1542	0.388
Mof_C 	C 	0.6757	0.0507	0.1934	-0.006
Mof_C 	C 	0.6389	0.0477	0.1618	0.112
Mof_C 	C 	0.6086	0.074	0.1606	-0.025
Mof_C 	C 	0.6172	0.1024	0.1847	0.011
Mof_C 	C 	0.6695	0.1425	0.2339	-0.009
Mof_C 	C 	0.7106	0.1465	0.2606	0.155
Mof_C 	C 	0.738	0.1193	0.2619	-0.01
Mof_C 	C 	0.726	0.0897	0.2447	0.024
Mof_C 	C 	0.6856	0.0805	0.2128	0.004
Mof_C 	C 	0.6572	0.111	0.2115	0.008
Mof_C 	C 	0.5905	0.0082	0.1132	0.091
Mof_C 	C 	0.5901	0.9721	0.0995	-0
Mof_C 	C 	0.5827	0.1308	0.1814	0.021
Mof_C 	C 	0.5707	0.1461	0.2275	-0.015
Mof_C 	C 	0.5384	0.1689	0.2234	0.079
Mof_C 	C 	0.5166	0.1762	0.177	-0.146
Mof_C 	C 	0.5324	0.1594	0.1304	0.063
Mof_C 	C 	0.5634	0.1381	0.136	-0.023
Mof_C 	C 	0.483	0.1984	0.1731	0.389
Mof_C 	C 	0.7099	0.0226	0.186	-0.011
Mof_C 	C 	0.7048	0.994	0.2165	0.117
Mof_C 	C 	0.7308	0.9663	0.2141	-0.028
Mof_C 	C 	0.7619	0.9671	0.1811	0.012
Mof_C 	C 	0.7669	0.9956	0.1505	0.01
Mof_C 	C 	0.7409	0.0234	0.1529	0.001
Mof_C 	C 	0.746	0.052	0.1223	0.024
Mof_C 	C 	0.7771	0.0528	0.0893	-0.01
Mof_C 	C 	0.8031	0.025	0.0869	0.19
Mof_C 	C 	0.798	0.9964	0.1175	-0.017
Mof_C 	C 	0.6536	0.9601	0.257	0.083
Mof_C 	C 	0.6093	0.9671	0.272	0.002
Mof_C 	C 	0.7852	0.9344	0.1795	0.01
Mof_C 	C 	0.8175	0.9272	0.2172	-0.008
Mof_C 	C 	0.8436	0.9001	0.2102	0.041
Mof_C 	C 	0.8374	0.8802	0.1653	-0.068
Mof_C 	C 	0.8051	0.8874	0.1276	0.061
Mof_C 	C 	0.779	0.9145	0.1346	-0.004
Mof_C 	C 	0.8605	0.8429	0.163	0.324
_end
