data_functionalizedCrystal
_audit_creation_method	'EQeq! by Chris Wilmer'
_symmetry_space_group_name_H-M	'P1'
_symmetry_Int_Tables_number	1
_symmetry_cell_setting	triclinic
loop_
_symmetry_equiv_pos_as_xyz
  x,y,z
_cell_length_a	9.746
_cell_length_b	9.746
_cell_length_c	9.746
_cell_angle_alpha	79.5616
_cell_angle_beta	79.5616
_cell_angle_gamma	79.5616
loop_
_atom_site_label
_atom_site_type_symbol
_atom_site_fract_x
_atom_site_fract_y
_atom_site_fract_z
_atom_site_charge
Mof_Eu	Eu	0.5	0.01164	0.98836	2.033
Mof_Eu	Eu	0.98836	0.5	0.01164	2.033
Mof_Eu	Eu	0.01164	0.98836	0.5	2.033
Mof_H 	H 	0.42495	0.57505	-0	0.008
Mof_H 	H 	1.60622e-17	0.42495	0.57505	0.008
Mof_H 	H 	0.57505	0	0.42495	0.008
Mof_C 	C 	0.66665	0.66555	0.00375	0.449
Mof_C 	C 	0.63641	0.52011	0.00021	-0.103
Mof_C 	C 	0.00375	0.66665	0.66555	0.449
Mof_C 	C 	0.00021	0.63641	0.52011	-0.103
Mof_C 	C 	0.66555	0.00375	0.66665	0.449
Mof_C 	C 	0.52011	0.00021	0.63641	-0.103
Mof_C 	C 	0.33445	0.33335	0.99625	0.445
Mof_C 	C 	0.47989	0.36359	0.99979	-0.104
Mof_C 	C 	0.33335	0.99625	0.33445	0.445
Mof_C 	C 	0.36359	0.99979	0.47989	-0.104
Mof_C 	C 	0.99625	0.33445	0.33335	0.445
Mof_C 	C 	0.99979	0.47989	0.36359	-0.104
Mof_C 	C 	0.49945	0.50055	-0	0.031
Mof_C 	C 	0.71835	0.28165	-0	0.25
Mof_C 	C 	-4.41712e-17	0.49945	0.50055	0.031
Mof_C 	C 	-1.40545e-17	0.71835	0.28165	0.25
Mof_C 	C 	0.50055	0	0.49945	0.031
Mof_C 	C 	0.28165	1.60622e-17	0.71835	0.25
Mof_N 	N 	0.74488	0.41588	0.00068	-0.235
Mof_N 	N 	0.00068	0.74488	0.41588	-0.235
Mof_N 	N 	0.41588	0.00068	0.74488	-0.235
Mof_N 	N 	0.58412	0.25512	0.99932	-0.236
Mof_N 	N 	0.25512	0.99932	0.58412	-0.236
Mof_N 	N 	0.99932	0.58412	0.25512	-0.236
Mof_O 	O 	0.57006	0.76616	0.98536	-0.554
Mof_O 	O 	0.78712	0.67422	0.02752	-0.562
Mof_O 	O 	0.98536	0.57006	0.76616	-0.554
Mof_O 	O 	0.02752	0.78712	0.67422	-0.562
Mof_O 	O 	0.76616	0.98536	0.57006	-0.554
Mof_O 	O 	0.67422	0.02752	0.78712	-0.562
Mof_O 	O 	0.23384	0.42994	0.01464	-0.549
Mof_O 	O 	0.32578	0.21288	0.97248	-0.561
Mof_O 	O 	0.42994	0.01464	0.23384	-0.549
Mof_O 	O 	0.21288	0.97248	0.32578	-0.561
Mof_O 	O 	0.01464	0.23384	0.42994	-0.549
Mof_O 	O 	0.97248	0.32578	0.21288	-0.561
Mof_O 	O 	0.81895	0.18105	-0	-0.312
Mof_O 	O 	-0	0.81895	0.18105	-0.312
Mof_O 	O 	0.18105	0	0.81895	-0.312
_end
