data_functionalizedCrystal
_audit_creation_method	'EQeq! by Chris Wilmer'
_symmetry_space_group_name_H-M	'P1'
_symmetry_Int_Tables_number	1
_symmetry_cell_setting	triclinic
loop_
_symmetry_equiv_pos_as_xyz
  x,y,z
_cell_length_a	7.9114
_cell_length_b	14.2572
_cell_length_c	29.557
_cell_angle_alpha	90
_cell_angle_beta	90
_cell_angle_gamma	90
loop_
_atom_site_label
_atom_site_type_symbol
_atom_site_fract_x
_atom_site_fract_y
_atom_site_fract_z
_atom_site_charge
Mof_Zn	Zn	0.49221	0.63126	0.15056	1.202
Mof_Zn	Zn	0.50779	0.36874	0.65056	1.201
Mof_Zn	Zn	0.50779	0.63126	0.34944	1.201
Mof_Zn	Zn	0.49221	0.36874	0.84944	1.202
Mof_H 	H 	0.5982	0.4268	0.1074	0.037
Mof_H 	H 	0.693	0.2972	0.1536	0.051
Mof_H 	H 	0.6427	0.518	0.2318	-0.002
Mof_H 	H 	0.6614	0.2121	0.2243	0.087
Mof_H 	H 	0.7493	0.1308	0.2872	0.07
Mof_H 	H 	0.9177	0.3709	0.344	0.064
Mof_H 	H 	0.8322	0.4511	0.2791	0.087
Mof_H 	H 	0.5547	0.3007	0.5517	-0.014
Mof_H 	H 	0.8206	0.4904	0.6142	0.017
Mof_H 	H 	0.9577	0.4619	0.5413	0.063
Mof_H 	H 	0.0491	0.3056	0.4961	0.055
Mof_H 	H 	0.0971	0.2339	0.4268	0.071
Mof_H 	H 	0.6051	0.2616	0.3957	0.086
Mof_H 	H 	0.5572	0.3333	0.465	0.079
Mof_H 	H 	0.3673	0.8406	0.3451	0.013
Mof_H 	H 	0.1418	0.6157	0.3918	0.008
Mof_H 	H 	0.936	0.7406	0.395	0.063
Mof_H 	H 	0.9295	0.913	0.425	0.051
Mof_H 	H 	0.8303	0.0661	0.4224	0.096
Mof_H 	H 	0.0668	0.1047	0.3035	0.083
Mof_H 	H 	0.166	0.9517	0.3061	0.037
Mof_H 	H 	0.1988	0.7808	0.2568	0.31
Mof_H 	H 	0.0935	0.7999	0.213	0.317
Mof_H 	H 	0.9562	0.6513	0.2262	-0.161
Mof_H 	H 	0.4018	0.5732	0.6074	0.035
Mof_H 	H 	0.307	0.7028	0.6536	0.048
Mof_H 	H 	0.3573	0.482	0.7318	-0.003
Mof_H 	H 	0.3386	0.7879	0.7243	0.087
Mof_H 	H 	0.2507	0.8692	0.7872	0.065
Mof_H 	H 	0.0823	0.6291	0.844	0.056
Mof_H 	H 	0.1678	0.5489	0.7791	0.083
Mof_H 	H 	0.4453	0.6993	0.0517	-0.013
Mof_H 	H 	0.1794	0.5096	0.1142	0.014
Mof_H 	H 	0.0423	0.5381	0.0413	0.052
Mof_H 	H 	0.9509	0.6944	0.9961	0.091
Mof_H 	H 	0.9029	0.7661	0.9268	0.105
Mof_H 	H 	0.3949	0.7384	0.8957	0.086
Mof_H 	H 	0.4428	0.6667	0.965	0.081
Mof_H 	H 	0.6327	0.1594	0.8451	0.01
Mof_H 	H 	0.8582	0.3843	0.8918	0.032
Mof_H 	H 	0.064	0.2594	0.895	0.012
Mof_H 	H 	0.0705	0.087	0.925	0.08
Mof_H 	H 	0.1697	0.9339	0.9224	0.068
Mof_H 	H 	0.9332	0.8953	0.8035	0.056
Mof_H 	H 	0.834	0.0483	0.8061	0.067
Mof_H 	H 	0.8012	0.2192	0.7568	0.309
Mof_H 	H 	0.9065	0.2001	0.713	0.325
Mof_H 	H 	0.0438	0.3487	0.7262	-0.177
Mof_H 	H 	0.4018	0.4268	0.3926	0.035
Mof_H 	H 	0.307	0.2972	0.3464	0.048
Mof_H 	H 	0.3573	0.518	0.2682	-0.003
Mof_H 	H 	0.3386	0.2121	0.2757	0.087
Mof_H 	H 	0.2507	0.1308	0.2128	0.065
Mof_H 	H 	0.0823	0.3709	0.156	0.056
Mof_H 	H 	0.1678	0.4511	0.2209	0.083
Mof_H 	H 	0.4453	0.3007	0.9483	-0.014
Mof_H 	H 	0.1794	0.4904	0.8858	0.014
Mof_H 	H 	0.0423	0.4619	0.9587	0.052
Mof_H 	H 	0.9509	0.3056	0.0039	0.093
Mof_H 	H 	0.9029	0.2339	0.0732	0.104
Mof_H 	H 	0.3949	0.2616	0.1043	0.086
Mof_H 	H 	0.4428	0.3333	0.035	0.082
Mof_H 	H 	0.6327	0.8406	0.1549	0.01
Mof_H 	H 	0.8582	0.6157	0.1082	0.032
Mof_H 	H 	0.064	0.7406	0.105	0.012
Mof_H 	H 	0.0705	0.913	0.075	0.081
Mof_H 	H 	0.1697	0.0661	0.0776	0.068
Mof_H 	H 	0.9332	0.1047	0.1965	0.056
Mof_H 	H 	0.834	0.9517	0.1939	0.067
Mof_H 	H 	0.8012	0.7808	0.2432	0.309
Mof_H 	H 	0.9065	0.7999	0.287	0.325
Mof_H 	H 	0.0438	0.6513	0.2738	-0.177
Mof_H 	H 	0.5982	0.5732	0.8926	0.036
Mof_H 	H 	0.693	0.7028	0.8464	0.05
Mof_H 	H 	0.6427	0.482	0.7682	-0.002
Mof_H 	H 	0.6614	0.7879	0.7757	0.087
Mof_H 	H 	0.7493	0.8692	0.7128	0.07
Mof_H 	H 	0.9177	0.6291	0.656	0.064
Mof_H 	H 	0.8322	0.5489	0.7209	0.087
Mof_H 	H 	0.5547	0.6993	0.4483	-0.014
Mof_H 	H 	0.8206	0.5096	0.3858	0.017
Mof_H 	H 	0.9577	0.5381	0.4587	0.063
Mof_H 	H 	0.0491	0.6944	0.5039	0.055
Mof_H 	H 	0.0971	0.7661	0.5732	0.071
Mof_H 	H 	0.6051	0.7384	0.6043	0.086
Mof_H 	H 	0.5572	0.6667	0.535	0.079
Mof_H 	H 	0.3673	0.1594	0.6549	0.012
Mof_H 	H 	0.1418	0.3843	0.6082	0.008
Mof_H 	H 	0.936	0.2594	0.605	0.063
Mof_H 	H 	0.9295	0.087	0.575	0.051
Mof_H 	H 	0.8303	0.9339	0.5776	0.096
Mof_H 	H 	0.0668	0.8953	0.6965	0.083
Mof_H 	H 	0.166	0.0483	0.6939	0.037
Mof_H 	H 	0.1988	0.2192	0.7432	0.31
Mof_H 	H 	0.0935	0.2001	0.787	0.317
Mof_H 	H 	0.9562	0.3487	0.7738	-0.161
Mof_C 	C 	0.6177	0.429	0.13846	-0.001
Mof_C 	C 	0.6715	0.3579	0.16369	0.01
Mof_C 	C 	0.6423	0.4795	0.20644	0.107
Mof_C 	C 	0.7418	0.3387	0.24616	0.114
Mof_C 	C 	0.7137	0.2433	0.2481	-0.093
Mof_C 	C 	0.7645	0.1954	0.28597	-0.06
Mof_C 	C 	0.8388	0.2415	0.32291	0.092
Mof_C 	C 	0.8666	0.3389	0.32026	-0.06
Mof_C 	C 	0.8158	0.3866	0.28126	-0.095
Mof_C 	C 	0.6384	0.3443	0.55846	0.115
Mof_C 	C 	0.7848	0.4479	0.59232	0.023
Mof_C 	C 	0.8602	0.4329	0.55195	-0.001
Mof_C 	C 	0.7984	0.3266	0.48742	0.087
Mof_C 	C 	0.9601	0.2968	0.47597	-0.044
Mof_C 	C 	0.9889	0.2539	0.43446	-0.069
Mof_C 	C 	0.8559	0.2407	0.4044	0.101
Mof_C 	C 	0.6941	0.2704	0.41585	-0.084
Mof_C 	C 	0.6654	0.3134	0.45736	-0.066
Mof_C 	C 	0.2858	0.8005	0.3569	0.09
Mof_C 	C 	0.1598	0.6772	0.38252	0.028
Mof_C 	C 	0.0469	0.7454	0.38483	-0.05
Mof_C 	C 	0.0576	0.9172	0.3658	0.038
Mof_C 	C 	0.957	0.9514	0.40063	0.001
Mof_C 	C 	0.8976	0.0431	0.3991	-0.116
Mof_C 	C 	0.9387	0.1005	0.36272	0.154
Mof_C 	C 	0.0393	0.0663	0.32788	-0.132
Mof_C 	C 	0.0987	0.9746	0.32942	-0.02
Mof_C 	C 	0.2668	0.7022	0.2052	0.77
Mof_C 	C 	0.1422	0.7507	0.2315	-0.962
Mof_C 	C 	0.3823	0.571	0.63846	-0.003
Mof_C 	C 	0.3285	0.6421	0.66369	0.006
Mof_C 	C 	0.3577	0.5205	0.70644	0.105
Mof_C 	C 	0.2582	0.6613	0.74616	0.112
Mof_C 	C 	0.2863	0.7567	0.7481	-0.099
Mof_C 	C 	0.2355	0.8046	0.78597	-0.057
Mof_C 	C 	0.1612	0.7585	0.82291	0.082
Mof_C 	C 	0.1334	0.6611	0.82026	-0.059
Mof_C 	C 	0.1842	0.6134	0.78126	-0.101
Mof_C 	C 	0.3616	0.6557	0.05846	0.116
Mof_C 	C 	0.2152	0.5521	0.09232	0.019
Mof_C 	C 	0.1398	0.5671	0.05195	-0.002
Mof_C 	C 	0.2016	0.6734	0.98742	0.098
Mof_C 	C 	0.0399	0.7032	0.97597	-0.086
Mof_C 	C 	0.0111	0.7461	0.93446	-0.108
Mof_C 	C 	0.1441	0.7593	0.9044	0.109
Mof_C 	C 	0.3059	0.7296	0.91585	-0.085
Mof_C 	C 	0.3346	0.6866	0.95736	-0.071
Mof_C 	C 	0.7142	0.1995	0.8569	0.096
Mof_C 	C 	0.8402	0.3228	0.88252	-0.016
Mof_C 	C 	0.9531	0.2546	0.88483	0.039
Mof_C 	C 	0.9424	0.0828	0.8658	0.129
Mof_C 	C 	0.043	0.0486	0.90063	-0.108
Mof_C 	C 	0.1024	0.9569	0.8991	-0.039
Mof_C 	C 	0.0613	0.8995	0.86272	0.068
Mof_C 	C 	0.9607	0.9337	0.82788	-0.025
Mof_C 	C 	0.9013	0.0254	0.82942	-0.098
Mof_C 	C 	0.7332	0.2978	0.7052	0.77
Mof_C 	C 	0.8578	0.2493	0.7315	-0.95
Mof_C 	C 	0.3823	0.429	0.36154	-0.003
Mof_C 	C 	0.3285	0.3579	0.33631	0.006
Mof_C 	C 	0.3577	0.4795	0.29356	0.105
Mof_C 	C 	0.2582	0.3387	0.25384	0.112
Mof_C 	C 	0.2863	0.2433	0.2519	-0.099
Mof_C 	C 	0.2355	0.1954	0.21403	-0.057
Mof_C 	C 	0.1612	0.2415	0.17709	0.082
Mof_C 	C 	0.1334	0.3389	0.17974	-0.059
Mof_C 	C 	0.1842	0.3866	0.21874	-0.101
Mof_C 	C 	0.3616	0.3443	0.94154	0.116
Mof_C 	C 	0.2152	0.4479	0.90768	0.019
Mof_C 	C 	0.1398	0.4329	0.94805	-0.002
Mof_C 	C 	0.2016	0.3266	0.01258	0.102
Mof_C 	C 	0.0399	0.2968	0.02403	-0.088
Mof_C 	C 	0.0111	0.2539	0.06554	-0.107
Mof_C 	C 	0.1441	0.2407	0.0956	0.108
Mof_C 	C 	0.3059	0.2704	0.08415	-0.083
Mof_C 	C 	0.3346	0.3134	0.04264	-0.072
Mof_C 	C 	0.7142	0.8005	0.1431	0.096
Mof_C 	C 	0.8402	0.6772	0.11748	-0.016
Mof_C 	C 	0.9531	0.7454	0.11517	0.039
Mof_C 	C 	0.9424	0.9172	0.1342	0.129
Mof_C 	C 	0.043	0.9514	0.09937	-0.108
Mof_C 	C 	0.1024	0.0431	0.1009	-0.039
Mof_C 	C 	0.0613	0.1005	0.13728	0.068
Mof_C 	C 	0.9607	0.0663	0.17212	-0.025
Mof_C 	C 	0.9013	0.9746	0.17058	-0.098
Mof_C 	C 	0.7332	0.7022	0.2948	0.77
Mof_C 	C 	0.8578	0.7507	0.2685	-0.95
Mof_C 	C 	0.6177	0.571	0.86154	-0.001
Mof_C 	C 	0.6715	0.6421	0.83631	0.01
Mof_C 	C 	0.6423	0.5205	0.79356	0.107
Mof_C 	C 	0.7418	0.6613	0.75384	0.114
Mof_C 	C 	0.7137	0.7567	0.7519	-0.093
Mof_C 	C 	0.7645	0.8046	0.71403	-0.06
Mof_C 	C 	0.8388	0.7585	0.67709	0.092
Mof_C 	C 	0.8666	0.6611	0.67974	-0.06
Mof_C 	C 	0.8158	0.6134	0.71874	-0.095
Mof_C 	C 	0.6384	0.6557	0.44154	0.115
Mof_C 	C 	0.7848	0.5521	0.40768	0.023
Mof_C 	C 	0.8602	0.5671	0.44805	-0.001
Mof_C 	C 	0.7984	0.6734	0.51258	0.087
Mof_C 	C 	0.9601	0.7032	0.52403	-0.044
Mof_C 	C 	0.9889	0.7461	0.56554	-0.069
Mof_C 	C 	0.8559	0.7593	0.5956	0.101
Mof_C 	C 	0.6941	0.7296	0.58415	-0.084
Mof_C 	C 	0.6654	0.6866	0.54264	-0.066
Mof_C 	C 	0.2858	0.1995	0.6431	0.09
Mof_C 	C 	0.1598	0.3228	0.61748	0.028
Mof_C 	C 	0.0469	0.2546	0.61517	-0.05
Mof_C 	C 	0.0576	0.0828	0.6342	0.038
Mof_C 	C 	0.957	0.0486	0.59937	0
Mof_C 	C 	0.8976	0.9569	0.6009	-0.116
Mof_C 	C 	0.9387	0.8995	0.63728	0.154
Mof_C 	C 	0.0393	0.9337	0.67212	-0.132
Mof_C 	C 	0.0987	0.0254	0.67058	-0.02
Mof_C 	C 	0.2668	0.2978	0.7948	0.77
Mof_C 	C 	0.1422	0.2493	0.7685	-0.962
Mof_C 	C 	3.50194e-33	0.6913	0.25	0.688
Mof_C 	C 	4.07933e-32	0.3087	0.75	0.688
Mof_N 	N 	0.5953	0.5074	0.16597	-0.266
Mof_N 	N 	0.6894	0.3896	0.207	-0.138
Mof_N 	N 	0.8854	0.1951	0.36291	-0.156
Mof_N 	N 	0.6486	0.3907	0.59569	-0.273
Mof_N 	N 	0.7681	0.3683	0.53024	-0.13
Mof_N 	N 	0.3072	0.7108	0.36443	-0.27
Mof_N 	N 	0.1275	0.8263	0.36885	-0.123
Mof_N 	N 	0.4047	0.4926	0.66597	-0.266
Mof_N 	N 	0.3106	0.6104	0.707	-0.14
Mof_N 	N 	0.1146	0.8049	0.86291	-0.147
Mof_N 	N 	0.3514	0.6093	0.09569	-0.273
Mof_N 	N 	0.2319	0.6317	0.03024	-0.133
Mof_N 	N 	0.6928	0.2892	0.86443	-0.264
Mof_N 	N 	0.8725	0.1737	0.86885	-0.147
Mof_N 	N 	0.4047	0.5074	0.33403	-0.266
Mof_N 	N 	0.3106	0.3896	0.293	-0.14
Mof_N 	N 	0.1146	0.1951	0.13709	-0.147
Mof_N 	N 	0.3514	0.3907	0.90431	-0.273
Mof_N 	N 	0.2319	0.3683	0.96976	-0.135
Mof_N 	N 	0.6928	0.7108	0.13557	-0.264
Mof_N 	N 	0.8725	0.8263	0.13115	-0.146
Mof_N 	N 	0.5953	0.4926	0.83403	-0.266
Mof_N 	N 	0.6894	0.6104	0.793	-0.138
Mof_N 	N 	0.8854	0.8049	0.63709	-0.156
Mof_N 	N 	0.6486	0.6093	0.40431	-0.273
Mof_N 	N 	0.7681	0.6317	0.46976	-0.13
Mof_N 	N 	0.3072	0.2892	0.63557	-0.27
Mof_N 	N 	0.1275	0.1737	0.63115	-0.123
Mof_O 	O 	0.3587	0.7476	0.18214	-0.559
Mof_O 	O 	0.2993	0.6207	0.20461	-0.555
Mof_O 	O 	0.6413	0.2524	0.68214	-0.557
Mof_O 	O 	0.7007	0.3793	0.70461	-0.551
Mof_O 	O 	0.6413	0.7476	0.31786	-0.557
Mof_O 	O 	0.7007	0.6207	0.29539	-0.551
Mof_O 	O 	0.3587	0.2524	0.81786	-0.559
Mof_O 	O 	0.2993	0.3793	0.79539	-0.555
Mof_N 	N 	0.4215	0.9111	0.6229	0.074
Mof_O 	O 	0.3587	0.8622	0.5964	-0.133
Mof_O 	O 	0.4594	0.9893	0.6111	-0.12
Mof_O 	O 	0.4472	0.8851	0.6584	-0.14
Mof_N 	N 	0.5785	0.0889	0.1229	0.074
Mof_O 	O 	0.6413	0.1378	0.0964	-0.129
Mof_O 	O 	0.5406	0.0107	0.1111	-0.118
Mof_O 	O 	0.5528	0.1149	0.1584	-0.139
Mof_N 	N 	0.5785	0.9111	0.8771	0.074
Mof_O 	O 	0.6413	0.8622	0.9036	-0.129
Mof_O 	O 	0.5406	0.9893	0.8889	-0.118
Mof_O 	O 	0.5528	0.8851	0.8416	-0.139
Mof_N 	N 	0.4215	0.0889	0.3771	0.074
Mof_O 	O 	0.3587	0.1378	0.4036	-0.133
Mof_O 	O 	0.4594	0.0107	0.3889	-0.12
Mof_O 	O 	0.4472	0.1149	0.3416	-0.14
Mof_N 	N 	0.3077	0.5	0.5	0.058
Mof_O 	O 	0.2318	0.4785	0.46576	-0.151
Mof_O 	O 	0.2318	0.5215	0.53424	-0.151
Mof_O 	O 	0.4637	0.5	0.5	-0.134
Mof_N 	N 	0.6923	0.5	-0	0.057
Mof_O 	O 	0.7682	0.5215	0.96576	-0.142
Mof_O 	O 	0.7682	0.4785	0.03424	-0.14
Mof_O 	O 	0.5363	0.5	-0	-0.133
_end
