data_functionalizedCrystal
_audit_creation_method	'EQeq! by Chris Wilmer'
_symmetry_space_group_name_H-M	'P1'
_symmetry_Int_Tables_number	1
_symmetry_cell_setting	triclinic
loop_
_symmetry_equiv_pos_as_xyz
  x,y,z
_cell_length_a	11.6025
_cell_length_b	16.398
_cell_length_c	16.796
_cell_angle_alpha	90
_cell_angle_beta	109.3
_cell_angle_gamma	90
loop_
_atom_site_label
_atom_site_type_symbol
_atom_site_fract_x
_atom_site_fract_y
_atom_site_fract_z
_atom_site_charge
Mof_Zn	Zn	0.3327	0.49086	0.22535	1.207
Mof_N 	N 	0.1867	0.4447	0.1293	-0.285
Mof_N 	N 	0.7214	0.279	0.8599	-0.279
Mof_H 	H 	0.7327	0.3079	0.8197	0.154
Mof_O 	O 	0.7854	0.2718	0.0055	-0.255
Mof_C 	C 	0.0808	0.4178	0.9839	-0.241
Mof_H 	H 	0.0772	0.424	0.9275	0.12
Mof_O 	O 	0.7673	0.7719	0.94408	-0.261
Mof_N 	N 	0.8932	0.3454	0.9366	-0.285
Mof_H 	H 	0.8926	0.3591	0.8865	0.157
Mof_N 	N 	0.8257	0.7722	0.0891	-0.264
Mof_H 	H 	0.881	0.7917	0.1336	0.131
Mof_N 	N 	0.9378	0.8427	0.0241	-0.266
Mof_H 	H 	0.9722	0.8617	0.0748	0.132
Mof_O 	O 	0.174	0.88602	0.73312	-0.352
Mof_C 	C 	0.4781	0.5699	0.1687	0.327
Mof_C 	C 	0.7358	0.7229	0.1039	0.197
Mof_O 	O 	0.4262	0.5145	0.1178	-0.356
Mof_O 	O 	0.4579	0.5807	0.2368	-0.43
Mof_C 	C 	0.656	0.6735	0.043	-0.197
Mof_H 	H 	0.657	0.6735	0.9873	0.123
Mof_C 	C 	0.5696	0.6234	0.1471	-0.133
Mof_C 	C 	0.1765	0.4498	0.0479	0.136
Mof_H 	H 	0.2384	0.4769	0.0338	-0.011
Mof_C 	C 	0.574	0.6236	0.0663	0.091
Mof_H 	H 	0.5206	0.5896	0.0255	0.026
Mof_C 	C 	0.9913	0.8657	0.9645	0.208
Mof_C 	C 	0.649	0.6734	0.2069	0.091
Mof_H 	H 	0.647	0.6741	0.2624	0.023
Mof_C 	C 	0.6283	0.2227	0.835	0.234
Mof_C 	C 	0.7985	0.2957	0.9398	0.301
Mof_C 	C 	0.1521	0.9424	0.9367	0.104
Mof_H 	H 	0.2169	0.9799	0.9547	0.014
Mof_C 	C 	0.1896	0.9285	0.7973	0.352
Mof_C 	C 	0.999	0.3696	0.0871	-0.249
Mof_H 	H 	0.9395	0.3416	0.1031	0.14
Mof_C 	C 	0.9557	0.8353	0.8823	-0.219
Mof_H 	H 	0.8872	0.801	0.8628	0.124
Mof_C 	C 	0.12	0.9089	0.8563	-0.154
Mof_C 	C 	0.8369	0.7934	0.0128	0.299
Mof_C 	C 	0.089	0.9206	0.99	-0.194
Mof_H 	H 	0.1121	0.943	0.0446	0.097
Mof_C 	C 	0.9885	0.3759	0.0031	0.246
Mof_C 	C 	0.731	0.7221	0.1855	-0.199
Mof_H 	H 	0.7847	0.7555	0.2268	0.093
Mof_C 	C 	0.0206	0.8555	0.8299	0.123
Mof_H 	H 	0.9977	0.8329	0.7754	-0.005
Mof_C 	C 	0.5616	0.217	0.7514	-0.247
Mof_H 	H 	0.5782	0.2527	0.7127	0.131
Mof_C 	C 	0.4705	0.1598	0.723	0.147
Mof_H 	H 	0.4253	0.1584	0.6651	-0.028
Mof_C 	C 	0.5016	0.1163	0.8594	0.109
Mof_H 	H 	0.4769	0.0831	0.8964	-0.011
Mof_C 	C 	0.5944	0.1725	0.8934	-0.216
Mof_H 	H 	0.633	0.1774	0.952	0.13
Mof_C 	C 	0.0971	0.4046	0.1472	0.136
Mof_H 	H 	0.1019	0.4004	0.2041	-0.037
Mof_O 	O 	0.2622	0.98899	0.8166	-0.448
Mof_N 	N 	0.4435	0.1067	0.7731	-0.28
Mof_Zn	Zn	0.3327	0.00914	0.72535	1.206
Mof_N 	N 	0.1867	0.0553	0.6293	-0.286
Mof_N 	N 	0.7214	0.221	0.3599	-0.28
Mof_H 	H 	0.7327	0.1921	0.3197	0.155
Mof_O 	O 	0.7854	0.2282	0.5055	-0.259
Mof_C 	C 	0.0808	0.0822	0.4839	-0.242
Mof_H 	H 	0.0772	0.076	0.4275	0.12
Mof_O 	O 	0.7673	0.7281	0.44408	-0.263
Mof_N 	N 	0.8932	0.1546	0.4366	-0.284
Mof_H 	H 	0.8926	0.1409	0.3865	0.158
Mof_N 	N 	0.8257	0.7278	0.5891	-0.264
Mof_H 	H 	0.881	0.7083	0.6336	0.131
Mof_N 	N 	0.9378	0.6573	0.5241	-0.267
Mof_H 	H 	0.9722	0.6383	0.5748	0.133
Mof_O 	O 	0.174	0.61398	0.23312	-0.353
Mof_C 	C 	0.4781	0.9301	0.6687	0.327
Mof_C 	C 	0.7358	0.7771	0.6039	0.196
Mof_O 	O 	0.4262	0.9855	0.6178	-0.355
Mof_O 	O 	0.4579	0.9193	0.7368	-0.428
Mof_C 	C 	0.656	0.8265	0.543	-0.193
Mof_H 	H 	0.657	0.8265	0.4873	0.121
Mof_C 	C 	0.5696	0.8766	0.6471	-0.131
Mof_C 	C 	0.1765	0.0502	0.5479	0.136
Mof_H 	H 	0.2384	0.0231	0.5338	-0.011
Mof_C 	C 	0.574	0.8764	0.5663	0.089
Mof_H 	H 	0.5206	0.9104	0.5255	0.027
Mof_C 	C 	0.9913	0.6343	0.4645	0.214
Mof_C 	C 	0.649	0.8266	0.7069	0.09
Mof_H 	H 	0.647	0.8259	0.7624	0.023
Mof_C 	C 	0.6283	0.2773	0.335	0.235
Mof_C 	C 	0.7985	0.2043	0.4398	0.306
Mof_C 	C 	0.1521	0.5576	0.4367	0.112
Mof_H 	H 	0.2169	0.5201	0.4547	0.009
Mof_C 	C 	0.1896	0.5715	0.2973	0.352
Mof_C 	C 	0.999	0.1304	0.5871	-0.248
Mof_H 	H 	0.9395	0.1584	0.6031	0.139
Mof_C 	C 	0.9557	0.6647	0.3823	-0.216
Mof_H 	H 	0.8872	0.699	0.3628	0.123
Mof_C 	C 	0.12	0.5911	0.3563	-0.156
Mof_C 	C 	0.8369	0.7066	0.5128	0.302
Mof_C 	C 	0.089	0.5794	0.49	-0.213
Mof_H 	H 	0.1121	0.557	0.5446	0.107
Mof_C 	C 	0.9885	0.1241	0.5031	0.245
Mof_C 	C 	0.731	0.7779	0.6855	-0.198
Mof_H 	H 	0.7847	0.7445	0.7268	0.092
Mof_C 	C 	0.0206	0.6445	0.3299	0.116
Mof_H 	H 	0.9977	0.6671	0.2754	-0.001
Mof_C 	C 	0.5616	0.283	0.2514	-0.248
Mof_H 	H 	0.5782	0.2473	0.2127	0.131
Mof_C 	C 	0.4705	0.3402	0.223	0.148
Mof_H 	H 	0.4253	0.3416	0.1651	-0.028
Mof_C 	C 	0.5016	0.3837	0.3594	0.109
Mof_H 	H 	0.4769	0.4169	0.3964	-0.01
Mof_C 	C 	0.5944	0.3275	0.3934	-0.216
Mof_H 	H 	0.633	0.3226	0.452	0.131
Mof_C 	C 	0.0971	0.0954	0.6472	0.135
Mof_H 	H 	0.1019	0.0996	0.7041	-0.038
Mof_O 	O 	0.2622	0.51101	0.3166	-0.451
Mof_N 	N 	0.4435	0.3933	0.2731	-0.28
Mof_Zn	Zn	0.6673	0.99086	0.27465	1.206
Mof_N 	N 	0.8133	0.9447	0.3707	-0.286
Mof_N 	N 	0.2786	0.779	0.6401	-0.28
Mof_H 	H 	0.2673	0.8079	0.6803	0.155
Mof_O 	O 	0.2146	0.7718	0.4945	-0.259
Mof_C 	C 	0.9192	0.9178	0.5161	-0.242
Mof_H 	H 	0.9228	0.924	0.5725	0.12
Mof_O 	O 	0.2327	0.2719	0.55592	-0.263
Mof_N 	N 	0.1068	0.8454	0.5634	-0.284
Mof_H 	H 	0.1074	0.8591	0.6135	0.158
Mof_N 	N 	0.1743	0.2722	0.4109	-0.264
Mof_H 	H 	0.119	0.2917	0.3664	0.131
Mof_N 	N 	0.0622	0.3427	0.4759	-0.267
Mof_H 	H 	0.0278	0.3617	0.4252	0.133
Mof_O 	O 	0.826	0.38602	0.76688	-0.353
Mof_C 	C 	0.5219	0.0699	0.3313	0.327
Mof_C 	C 	0.2642	0.2229	0.3961	0.196
Mof_O 	O 	0.5738	0.0145	0.3822	-0.355
Mof_O 	O 	0.5421	0.0807	0.2632	-0.428
Mof_C 	C 	0.344	0.1735	0.457	-0.193
Mof_H 	H 	0.343	0.1735	0.5127	0.121
Mof_C 	C 	0.4304	0.1234	0.3529	-0.131
Mof_C 	C 	0.8235	0.9498	0.4521	0.136
Mof_H 	H 	0.7616	0.9769	0.4662	-0.011
Mof_C 	C 	0.426	0.1236	0.4337	0.089
Mof_H 	H 	0.4794	0.0896	0.4745	0.027
Mof_C 	C 	0.0087	0.3657	0.5355	0.214
Mof_C 	C 	0.351	0.1734	0.2931	0.09
Mof_H 	H 	0.353	0.1741	0.2376	0.023
Mof_C 	C 	0.3717	0.7227	0.665	0.235
Mof_C 	C 	0.2015	0.7957	0.5602	0.306
Mof_C 	C 	0.8479	0.4424	0.5633	0.112
Mof_H 	H 	0.7831	0.4799	0.5453	0.009
Mof_C 	C 	0.8104	0.4285	0.7027	0.352
Mof_C 	C 	0.001	0.8696	0.4129	-0.248
Mof_H 	H 	0.0605	0.8416	0.3969	0.139
Mof_C 	C 	0.0443	0.3353	0.6177	-0.216
Mof_H 	H 	0.1128	0.301	0.6372	0.123
Mof_C 	C 	0.88	0.4089	0.6437	-0.156
Mof_C 	C 	0.1631	0.2934	0.4872	0.302
Mof_C 	C 	0.911	0.4206	0.51	-0.213
Mof_H 	H 	0.8879	0.443	0.4554	0.107
Mof_C 	C 	0.0115	0.8759	0.4969	0.245
Mof_C 	C 	0.269	0.2221	0.3145	-0.198
Mof_H 	H 	0.2153	0.2555	0.2732	0.092
Mof_C 	C 	0.9794	0.3555	0.6701	0.116
Mof_H 	H 	0.0023	0.3329	0.7246	-0.001
Mof_C 	C 	0.4384	0.717	0.7486	-0.248
Mof_H 	H 	0.4218	0.7527	0.7873	0.131
Mof_C 	C 	0.5295	0.6598	0.777	0.148
Mof_H 	H 	0.5747	0.6584	0.8349	-0.028
Mof_C 	C 	0.4984	0.6163	0.6406	0.109
Mof_H 	H 	0.5231	0.5831	0.6036	-0.01
Mof_C 	C 	0.4056	0.6725	0.6066	-0.216
Mof_H 	H 	0.367	0.6774	0.548	0.131
Mof_C 	C 	0.9029	0.9046	0.3528	0.135
Mof_H 	H 	0.8981	0.9004	0.2959	-0.038
Mof_O 	O 	0.7378	0.48899	0.6834	-0.451
Mof_N 	N 	0.5565	0.6067	0.7269	-0.28
Mof_Zn	Zn	0.6673	0.50914	0.77465	1.207
Mof_N 	N 	0.8133	0.5553	0.8707	-0.285
Mof_N 	N 	0.2786	0.721	0.1401	-0.279
Mof_H 	H 	0.2673	0.6921	0.1803	0.154
Mof_O 	O 	0.2146	0.7282	0.9945	-0.255
Mof_C 	C 	0.9192	0.5822	0.0161	-0.241
Mof_H 	H 	0.9228	0.576	0.0725	0.12
Mof_O 	O 	0.2327	0.2281	0.05592	-0.261
Mof_N 	N 	0.1068	0.6546	0.0634	-0.285
Mof_H 	H 	0.1074	0.6409	0.1135	0.157
Mof_N 	N 	0.1743	0.2278	0.9109	-0.264
Mof_H 	H 	0.119	0.2083	0.8664	0.131
Mof_N 	N 	0.0622	0.1573	0.9759	-0.266
Mof_H 	H 	0.0278	0.1383	0.9252	0.132
Mof_O 	O 	0.826	0.11398	0.26688	-0.352
Mof_C 	C 	0.5219	0.4301	0.8313	0.327
Mof_C 	C 	0.2642	0.2771	0.8961	0.197
Mof_O 	O 	0.5738	0.4855	0.8822	-0.356
Mof_O 	O 	0.5421	0.4193	0.7632	-0.43
Mof_C 	C 	0.344	0.3265	0.957	-0.197
Mof_H 	H 	0.343	0.3265	0.0127	0.123
Mof_C 	C 	0.4304	0.3766	0.8529	-0.133
Mof_C 	C 	0.8235	0.5502	0.9521	0.136
Mof_H 	H 	0.7616	0.5231	0.9662	-0.011
Mof_C 	C 	0.426	0.3764	0.9337	0.091
Mof_H 	H 	0.4794	0.4104	0.9745	0.026
Mof_C 	C 	0.0087	0.1343	0.0355	0.208
Mof_C 	C 	0.351	0.3266	0.7931	0.091
Mof_H 	H 	0.353	0.3259	0.7376	0.023
Mof_C 	C 	0.3717	0.7773	0.165	0.234
Mof_C 	C 	0.2015	0.7043	0.0602	0.301
Mof_C 	C 	0.8479	0.0576	0.0633	0.104
Mof_H 	H 	0.7831	0.0201	0.0453	0.014
Mof_C 	C 	0.8104	0.0715	0.2027	0.352
Mof_C 	C 	0.001	0.6304	0.9129	-0.249
Mof_H 	H 	0.0605	0.6584	0.8969	0.14
Mof_C 	C 	0.0443	0.1647	0.1177	-0.219
Mof_H 	H 	0.1128	0.199	0.1372	0.124
Mof_C 	C 	0.88	0.0911	0.1437	-0.154
Mof_C 	C 	0.1631	0.2066	0.9872	0.299
Mof_C 	C 	0.911	0.0794	0.01	-0.194
Mof_H 	H 	0.8879	0.057	0.9554	0.097
Mof_C 	C 	0.0115	0.6241	0.9969	0.246
Mof_C 	C 	0.269	0.2779	0.8145	-0.199
Mof_H 	H 	0.2153	0.2445	0.7732	0.093
Mof_C 	C 	0.9794	0.1445	0.1701	0.123
Mof_H 	H 	0.0023	0.1671	0.2246	-0.005
Mof_C 	C 	0.4384	0.783	0.2486	-0.247
Mof_H 	H 	0.4218	0.7473	0.2873	0.131
Mof_C 	C 	0.5295	0.8402	0.277	0.147
Mof_H 	H 	0.5747	0.8416	0.3349	-0.028
Mof_C 	C 	0.4984	0.8837	0.1406	0.109
Mof_H 	H 	0.5231	0.9169	0.1036	-0.011
Mof_C 	C 	0.4056	0.8275	0.1066	-0.216
Mof_H 	H 	0.367	0.8226	0.048	0.13
Mof_C 	C 	0.9029	0.5954	0.8528	0.136
Mof_H 	H 	0.8981	0.5996	0.7959	-0.037
Mof_O 	O 	0.7378	0.01101	0.1834	-0.448
Mof_N 	N 	0.5565	0.8933	0.2269	-0.28
_end
