data_functionalizedCrystal
_audit_creation_method	'EQeq! by Chris Wilmer'
_symmetry_space_group_name_H-M	'P1'
_symmetry_Int_Tables_number	1
_symmetry_cell_setting	triclinic
loop_
_symmetry_equiv_pos_as_xyz
  x,y,z
_cell_length_a	7.2652
_cell_length_b	19.3152
_cell_length_c	26.0723
_cell_angle_alpha	90
_cell_angle_beta	90
_cell_angle_gamma	90
loop_
_atom_site_label
_atom_site_type_symbol
_atom_site_fract_x
_atom_site_fract_y
_atom_site_fract_z
_atom_site_charge
Mof_Ba	Ba	0.36744	0.3082	0.41167	1.797
Mof_O 	O 	0.6693	0.2687	0.3414	-0.504
Mof_O 	O 	0.5497	0.3723	0.3287	-0.377
Mof_O 	O 	0.9903	0.3265	0.4213	-0.602
Mof_O 	O 	0.7141	0.3153	0.4557	-0.57
Mof_O 	O 	0.4212	0.4507	0.4257	-0.422
Mof_C 	C 	0.3616	0.1519	0.4454	0.455
Mof_C 	C 	0.3758	0.0772	0.4669	-0.221
Mof_C 	C 	0.3019	0.061	0.5122	0.111
Mof_C 	C 	0.4697	0.0293	0.4382	0.11
Mof_C 	C 	0.3366	0.9967	0.5335	-0.164
Mof_H 	H 	0.2259	0.0933	0.5296	-0.032
Mof_C 	C 	0.501	0.9642	0.4584	-0.158
Mof_H 	H 	0.5128	0.0408	0.4048	-0.018
Mof_C 	C 	0.4374	0.9464	0.5065	0.08
Mof_H 	H 	0.2919	0.9865	0.5669	0.076
Mof_H 	H 	0.5675	0.9311	0.4388	0.085
Mof_C 	C 	0.4865	0.8777	0.5298	0.017
Mof_C 	C 	0.5402	0.875	0.5812	-0.087
Mof_C 	C 	0.4901	0.8181	0.5018	-0.085
Mof_C 	C 	0.5942	0.8133	0.6048	0.019
Mof_H 	H 	0.5399	0.9165	0.6009	0.052
Mof_H 	H 	0.4598	0.8198	0.4664	0.06
Mof_C 	C 	0.5369	0.755	0.5239	0.026
Mof_C 	C 	0.6637	0.814	0.6571	0.057
Mof_C 	C 	0.5937	0.7542	0.5747	-0.086
Mof_C 	C 	0.5217	0.6908	0.4931	0.058
Mof_C 	C 	0.6412	0.7591	0.69	-0.131
Mof_C 	C 	0.756	0.871	0.677	-0.123
Mof_H 	H 	0.6334	0.7117	0.5894	0.061
Mof_C 	C 	0.566	0.6903	0.4412	-0.122
Mof_C 	C 	0.466	0.6298	0.515	-0.119
Mof_C 	C 	0.7023	0.7606	0.7399	0.072
Mof_H 	H 	0.5814	0.7185	0.6778	0.077
Mof_C 	C 	0.817	0.8749	0.7265	0.049
Mof_H 	H 	0.7772	0.9093	0.655	0.064
Mof_C 	C 	0.558	0.6288	0.414	0.053
Mof_H 	H 	0.6015	0.7319	0.4245	0.068
Mof_C 	C 	0.45	0.5688	0.4863	0.058
Mof_H 	H 	0.4375	0.6289	0.5506	0.07
Mof_C 	C 	0.7859	0.8183	0.7599	-0.15
Mof_H 	H 	0.6863	0.7209	0.761	-0.002
Mof_H 	H 	0.8798	0.9151	0.7383	0.025
Mof_H 	H 	0.5943	0.6292	0.379	0.022
Mof_C 	C 	0.4997	0.5665	0.4353	-0.14
Mof_H 	H 	0.404	0.5282	0.5024	0.01
Mof_C 	C 	0.8556	0.8204	0.8136	0.371
Mof_C 	C 	0.4915	0.5012	0.406	0.372
Mof_O 	O 	0.5639	0.5022	0.3605	-0.258
Mof_Ba	Ba	0.63256	0.6918	0.91167	1.798
Mof_O 	O 	0.3307	0.7313	0.8414	-0.504
Mof_O 	O 	0.4503	0.6277	0.8287	-0.377
Mof_O 	O 	0.0097	0.6735	0.9213	-0.604
Mof_O 	O 	0.2859	0.6847	0.9557	-0.571
Mof_O 	O 	0.5788	0.5493	0.9257	-0.421
Mof_C 	C 	0.6384	0.8481	0.9454	0.458
Mof_C 	C 	0.6242	0.9228	0.9669	-0.232
Mof_C 	C 	0.6981	0.939	0.0122	0.123
Mof_C 	C 	0.5303	0.9707	0.9382	0.119
Mof_C 	C 	0.6634	0.0033	0.0335	-0.172
Mof_H 	H 	0.7741	0.9067	0.0296	-0.035
Mof_C 	C 	0.499	0.0358	0.9584	-0.171
Mof_H 	H 	0.4872	0.9592	0.9048	-0.021
Mof_C 	C 	0.5626	0.0536	0.0065	0.091
Mof_H 	H 	0.7081	0.0135	0.0669	0.079
Mof_H 	H 	0.4325	0.0689	0.9388	0.089
Mof_C 	C 	0.5135	0.1223	0.0298	0.012
Mof_C 	C 	0.4598	0.125	0.0812	-0.085
Mof_C 	C 	0.5099	0.1819	0.0018	-0.079
Mof_C 	C 	0.4058	0.1867	0.1048	0.02
Mof_H 	H 	0.4601	0.0835	0.1009	0.052
Mof_H 	H 	0.5402	0.1802	0.9664	0.056
Mof_C 	C 	0.4631	0.245	0.0239	0.034
Mof_C 	C 	0.3363	0.186	0.1571	0.057
Mof_C 	C 	0.4063	0.2458	0.0747	-0.09
Mof_C 	C 	0.4783	0.3092	0.9931	0.036
Mof_C 	C 	0.3588	0.2409	0.19	-0.131
Mof_C 	C 	0.244	0.129	0.177	-0.122
Mof_H 	H 	0.3666	0.2883	0.0894	0.062
Mof_C 	C 	0.434	0.3097	0.9412	-0.107
Mof_C 	C 	0.534	0.3702	0.015	-0.091
Mof_C 	C 	0.2977	0.2394	0.2399	0.072
Mof_H 	H 	0.4186	0.2815	0.1778	0.077
Mof_C 	C 	0.183	0.1251	0.2265	0.049
Mof_H 	H 	0.2228	0.0907	0.155	0.064
Mof_C 	C 	0.442	0.3712	0.914	0.039
Mof_H 	H 	0.3985	0.2681	0.9245	0.063
Mof_C 	C 	0.55	0.4312	0.9863	0.029
Mof_H 	H 	0.5625	0.3711	0.0506	0.061
Mof_C 	C 	0.2141	0.1817	0.2599	-0.151
Mof_H 	H 	0.3137	0.2791	0.261	-0.002
Mof_H 	H 	0.1202	0.0849	0.2383	0.026
Mof_H 	H 	0.4057	0.3708	0.879	0.026
Mof_C 	C 	0.5003	0.4335	0.9353	-0.126
Mof_H 	H 	0.596	0.4718	0.0024	0.023
Mof_C 	C 	0.1444	0.1796	0.3136	0.371
Mof_C 	C 	0.5085	0.4988	0.906	0.367
Mof_O 	O 	0.4361	0.4978	0.8605	-0.256
Mof_Ba	Ba	0.86744	0.1918	0.41167	1.79
Mof_O 	O 	0.1693	0.2313	0.3414	-0.503
Mof_O 	O 	0.0497	0.1277	0.3287	-0.374
Mof_O 	O 	0.4903	0.1735	0.4213	-0.601
Mof_O 	O 	0.2141	0.1847	0.4557	-0.569
Mof_O 	O 	0.9212	0.0493	0.4257	-0.422
Mof_C 	C 	0.8616	0.3481	0.4454	0.452
Mof_C 	C 	0.8758	0.4228	0.4669	-0.213
Mof_C 	C 	0.8019	0.439	0.5122	0.101
Mof_C 	C 	0.9697	0.4707	0.4382	0.091
Mof_C 	C 	0.8366	0.5033	0.5335	-0.156
Mof_H 	H 	0.7259	0.4067	0.5296	-0.029
Mof_C 	C 	0.001	0.5358	0.4584	-0.141
Mof_H 	H 	0.0128	0.4592	0.4048	-0.01
Mof_C 	C 	0.9374	0.5536	0.5065	0.069
Mof_H 	H 	0.7919	0.5135	0.5669	0.074
Mof_H 	H 	0.0675	0.5689	0.4388	0.08
Mof_C 	C 	0.9865	0.6223	0.5298	0.021
Mof_C 	C 	0.0402	0.625	0.5812	-0.088
Mof_C 	C 	0.9901	0.6819	0.5018	-0.088
Mof_C 	C 	0.0942	0.6867	0.6048	0.019
Mof_H 	H 	0.0399	0.5835	0.6009	0.053
Mof_H 	H 	0.9598	0.6802	0.4664	0.06
Mof_C 	C 	0.0369	0.745	0.5239	0.027
Mof_C 	C 	0.1637	0.686	0.6571	0.057
Mof_C 	C 	0.0937	0.7458	0.5747	-0.087
Mof_C 	C 	0.0217	0.8092	0.4931	0.063
Mof_C 	C 	0.1412	0.7409	0.69	-0.132
Mof_C 	C 	0.256	0.629	0.677	-0.123
Mof_H 	H 	0.1334	0.7883	0.5894	0.061
Mof_C 	C 	0.066	0.8097	0.4412	-0.126
Mof_C 	C 	0.966	0.8702	0.515	-0.125
Mof_C 	C 	0.2023	0.7394	0.7399	0.071
Mof_H 	H 	0.0814	0.7815	0.6778	0.076
Mof_C 	C 	0.317	0.6251	0.7265	0.049
Mof_H 	H 	0.2772	0.5907	0.655	0.064
Mof_C 	C 	0.058	0.8712	0.414	0.06
Mof_H 	H 	0.1015	0.7681	0.4245	0.071
Mof_C 	C 	0.95	0.9312	0.4863	0.062
Mof_H 	H 	0.9375	0.8711	0.5506	0.072
Mof_C 	C 	0.2859	0.6817	0.7599	-0.152
Mof_H 	H 	0.1863	0.7791	0.761	-0.003
Mof_H 	H 	0.3798	0.5849	0.7383	0.025
Mof_H 	H 	0.0943	0.8708	0.379	0.02
Mof_C 	C 	0.9997	0.9335	0.4353	-0.146
Mof_H 	H 	0.904	0.9718	0.5024	0.009
Mof_C 	C 	0.3556	0.6796	0.8136	0.371
Mof_C 	C 	0.9915	0.9988	0.406	0.369
Mof_O 	O 	0.0639	0.9978	0.3605	-0.254
Mof_Ba	Ba	0.13256	0.8082	0.91167	1.786
Mof_O 	O 	0.8307	0.7687	0.8414	-0.502
Mof_O 	O 	0.9503	0.8723	0.8287	-0.374
Mof_O 	O 	0.5097	0.8265	0.9213	-0.602
Mof_O 	O 	0.7859	0.8153	0.9557	-0.569
Mof_O 	O 	0.0788	0.9507	0.9257	-0.421
Mof_C 	C 	0.1384	0.6519	0.9454	0.455
Mof_C 	C 	0.1242	0.5772	0.9669	-0.222
Mof_C 	C 	0.1981	0.561	0.0122	0.113
Mof_C 	C 	0.0303	0.5293	0.9382	0.094
Mof_C 	C 	0.1634	0.4967	0.0335	-0.163
Mof_H 	H 	0.2741	0.5933	0.0296	-0.032
Mof_C 	C 	0.999	0.4642	0.9584	-0.148
Mof_H 	H 	0.9872	0.5408	0.9048	-0.01
Mof_C 	C 	0.0626	0.4464	0.0065	0.078
Mof_H 	H 	0.2081	0.4865	0.0669	0.076
Mof_H 	H 	0.9325	0.4311	0.9388	0.083
Mof_C 	C 	0.0135	0.3777	0.0298	0.016
Mof_C 	C 	0.9598	0.375	0.0812	-0.086
Mof_C 	C 	0.0099	0.3181	0.0018	-0.083
Mof_C 	C 	0.9058	0.3133	0.1048	0.02
Mof_H 	H 	0.9601	0.4165	0.1009	0.052
Mof_H 	H 	0.0402	0.3198	0.9664	0.056
Mof_C 	C 	0.9631	0.255	0.0239	0.035
Mof_C 	C 	0.8363	0.314	0.1571	0.057
Mof_C 	C 	0.9063	0.2542	0.0747	-0.09
Mof_C 	C 	0.9783	0.1908	0.9931	0.044
Mof_C 	C 	0.8588	0.2591	0.19	-0.131
Mof_C 	C 	0.744	0.371	0.177	-0.123
Mof_H 	H 	0.8666	0.2117	0.0894	0.062
Mof_C 	C 	0.934	0.1903	0.9412	-0.113
Mof_C 	C 	0.034	0.1298	0.015	-0.099
Mof_C 	C 	0.7977	0.2606	0.2399	0.072
Mof_H 	H 	0.9186	0.2185	0.1778	0.076
Mof_C 	C 	0.683	0.3749	0.2265	0.049
Mof_H 	H 	0.7228	0.4093	0.155	0.064
Mof_C 	C 	0.942	0.1288	0.914	0.049
Mof_H 	H 	0.8985	0.2319	0.9245	0.066
Mof_C 	C 	0.05	0.0688	0.9863	0.033
Mof_H 	H 	0.0625	0.1289	0.0506	0.063
Mof_C 	C 	0.7141	0.3183	0.2599	-0.151
Mof_H 	H 	0.8137	0.2209	0.261	-0.003
Mof_H 	H 	0.6202	0.4151	0.2383	0.025
Mof_H 	H 	0.9057	0.1292	0.879	0.024
Mof_C 	C 	0.0003	0.0665	0.9353	-0.133
Mof_H 	H 	0.096	0.0282	0.0024	0.021
Mof_C 	C 	0.6444	0.3204	0.3136	0.371
Mof_C 	C 	0.0085	0.0012	0.906	0.363
Mof_O 	O 	0.9361	0.0022	0.8605	-0.252
_end
