data_functionalizedCrystal
_audit_creation_method	'EQeq! by Chris Wilmer'
_symmetry_space_group_name_H-M	'P1'
_symmetry_Int_Tables_number	1
_symmetry_cell_setting	triclinic
loop_
_symmetry_equiv_pos_as_xyz
  x,y,z
_cell_length_a	10.456
_cell_length_b	20.017
_cell_length_c	8.1077
_cell_angle_alpha	90
_cell_angle_beta	102.602
_cell_angle_gamma	90
loop_
_atom_site_label
_atom_site_type_symbol
_atom_site_fract_x
_atom_site_fract_y
_atom_site_fract_z
_atom_site_charge
Mof_N 	N 	0.6515	0.15722	0.9905	-0.219
Mof_C 	C 	0.71	0.10032	0.9446	0.146
Mof_H 	H 	0.79	0.1032	0.9128	-0.023
Mof_C 	C 	0.6516	0.04173	0.9461	-0.233
Mof_H 	H 	0.6917	0.0042	0.9126	0.118
Mof_C 	C 	0.5317	0.03355	0.996	0.245
Mof_C 	C 	0.4753	0.0938	0.045	-0.288
Mof_H 	H 	0.3961	0.0919	0.0792	0.111
Mof_C 	C 	0.5347	0.1521	0.0421	0.085
Mof_H 	H 	0.4968	0.1904	0.0755	-0.052
Mof_O 	O 	0.9136	0.2016	0.1466	-0.471
Mof_N 	N 	0.1515	0.65722	0.9905	-0.2
Mof_C 	C 	0.21	0.60032	0.9446	0.117
Mof_H 	H 	0.29	0.6032	0.9128	-0.013
Mof_C 	C 	0.1516	0.54173	0.9461	-0.188
Mof_H 	H 	0.1917	0.5042	0.9126	0.105
Mof_C 	C 	0.0317	0.53355	0.996	0.179
Mof_C 	C 	0.9753	0.5938	0.045	-0.19
Mof_H 	H 	0.8961	0.5919	0.0792	0.081
Mof_C 	C 	0.0347	0.6521	0.0421	-0.006
Mof_H 	H 	0.9968	0.6904	0.0755	-0.009
Mof_O 	O 	0.4136	0.7016	0.1466	-0.486
Mof_N 	N 	0.3485	0.15722	0.5095	-0.237
Mof_C 	C 	0.29	0.10032	0.5554	0.067
Mof_H 	H 	0.21	0.1032	0.5872	-0.008
Mof_C 	C 	0.3484	0.04173	0.5539	-0.119
Mof_H 	H 	0.3083	0.0042	0.5874	0.069
Mof_C 	C 	0.4683	0.03355	0.504	0.031
Mof_C 	C 	0.5247	0.0938	0.455	-0.126
Mof_H 	H 	0.6039	0.0919	0.4208	0.064
Mof_C 	C 	0.4653	0.1521	0.4579	0.067
Mof_H 	H 	0.5032	0.1904	0.4245	-0.031
Mof_O 	O 	0.0864	0.2016	0.3534	-0.468
Mof_N 	N 	0.8485	0.65722	0.5095	-0.257
Mof_C 	C 	0.79	0.60032	0.5554	0.11
Mof_H 	H 	0.71	0.6032	0.5872	-0.019
Mof_C 	C 	0.8484	0.54173	0.5539	-0.185
Mof_H 	H 	0.8083	0.5042	0.5874	0.099
Mof_C 	C 	0.9683	0.53355	0.504	0.135
Mof_C 	C 	0.0247	0.5938	0.455	-0.24
Mof_H 	H 	0.1039	0.5919	0.4208	0.104
Mof_C 	C 	0.9653	0.6521	0.4579	0.163
Mof_H 	H 	0.0032	0.6904	0.4245	-0.073
Mof_O 	O 	0.5864	0.7016	0.3534	-0.469
Mof_N 	N 	0.3485	0.84278	0.0095	-0.254
Mof_C 	C 	0.29	0.89968	0.0554	-0.002
Mof_H 	H 	0.21	0.8968	0.0872	-0
Mof_C 	C 	0.3484	0.95827	0.0539	-0.028
Mof_H 	H 	0.3083	0.9958	0.0874	0.029
Mof_C 	C 	0.4683	0.96645	0.004	-0.142
Mof_C 	C 	0.5247	0.9062	0.955	0.014
Mof_H 	H 	0.6039	0.9081	0.9208	0.032
Mof_C 	C 	0.4653	0.8479	0.9579	0.065
Mof_H 	H 	0.5032	0.8096	0.9245	-0.009
Mof_O 	O 	0.0864	0.7984	0.8534	-0.426
Mof_N 	N 	0.8485	0.34278	0.0095	-0.267
Mof_C 	C 	0.79	0.39968	0.0554	0.026
Mof_H 	H 	0.71	0.3968	0.0872	-0.009
Mof_C 	C 	0.8484	0.45827	0.0539	-0.07
Mof_H 	H 	0.8083	0.4958	0.0874	0.042
Mof_C 	C 	0.9683	0.46645	0.004	-0.079
Mof_C 	C 	0.0247	0.4062	0.955	-0.073
Mof_H 	H 	0.1039	0.4081	0.9208	0.058
Mof_C 	C 	0.9653	0.3479	0.9579	0.139
Mof_H 	H 	0.0032	0.3096	0.9245	-0.044
Mof_O 	O 	0.5864	0.2984	0.8534	-0.429
Mof_N 	N 	0.6515	0.84278	0.4905	-0.241
Mof_C 	C 	0.71	0.89968	0.4446	0.077
Mof_H 	H 	0.79	0.8968	0.4128	-0.016
Mof_C 	C 	0.6516	0.95827	0.4461	-0.142
Mof_H 	H 	0.6917	0.9958	0.4126	0.078
Mof_C 	C 	0.5317	0.96645	0.496	0.071
Mof_C 	C 	0.4753	0.9062	0.545	-0.148
Mof_H 	H 	0.3961	0.9081	0.5792	0.08
Mof_C 	C 	0.5347	0.8479	0.5421	0.082
Mof_H 	H 	0.4968	0.8096	0.5755	-0.031
Mof_O 	O 	0.9136	0.7984	0.6466	-0.44
Mof_N 	N 	0.1515	0.34278	0.4905	-0.221
Mof_C 	C 	0.21	0.39968	0.4446	0.034
Mof_H 	H 	0.29	0.3968	0.4128	-0.005
Mof_C 	C 	0.1516	0.45827	0.4461	-0.076
Mof_H 	H 	0.1917	0.4958	0.4126	0.048
Mof_C 	C 	0.0317	0.46645	0.496	-0.032
Mof_C 	C 	0.9753	0.4062	0.545	-0.036
Mof_H 	H 	0.8961	0.4081	0.5792	0.04
Mof_C 	C 	0.0347	0.3479	0.5421	-0.013
Mof_H 	H 	0.9968	0.3096	0.5755	0.011
Mof_O 	O 	0.4136	0.2984	0.6466	-0.455
Mof_C 	C 	8.58121e-18	0.232	0.25	0.449
Mof_H 	H 	8.8541e-34	0.2784	0.25	-0.175
Mof_C 	C 	0.5	0.732	0.25	0.473
Mof_H 	H 	0.5	0.7784	0.25	-0.178
Mof_C 	C 	1.71624e-17	0.768	0.75	0.438
Mof_H 	H 	1.71624e-17	0.7216	0.75	-0.153
Mof_C 	C 	0.5	0.268	0.75	0.46
Mof_H 	H 	0.5	0.2216	0.75	-0.156
Mof_Ni	Ni	0.75	0.25	-0	1.018
Mof_Ni	Ni	0.25	0.25	0.5	1.041
Mof_Ni	Ni	0.25	0.75	-0	1.016
Mof_Ni	Ni	0.75	0.75	0.5	1.043
_end
