data_functionalizedCrystal
_audit_creation_method	'EQeq! by Chris Wilmer'
_symmetry_space_group_name_H-M	'P1'
_symmetry_Int_Tables_number	1
_symmetry_cell_setting	triclinic
loop_
_symmetry_equiv_pos_as_xyz
  x,y,z
_cell_length_a	18.0782
_cell_length_b	22.1485
_cell_length_c	22.1485
_cell_angle_alpha	80.4124
_cell_angle_beta	65.9137
_cell_angle_gamma	65.9137
loop_
_atom_site_label
_atom_site_type_symbol
_atom_site_fract_x
_atom_site_fract_y
_atom_site_fract_z
_atom_site_charge
Mof_Cu	Cu	0.73992	0.51008	0.01008	0.849
Mof_Cu	Cu	0.76008	0.98992	0.48992	0.849
Mof_Cu	Cu	0.75	0.01008	0.98992	0.849
Mof_Cu	Cu	0.25	0.48992	0.51008	0.85
Mof_H 	H 	0.5695	0.4946	0.072	-0.023
Mof_H 	H 	0.4691	0.4875	0.1745	0.073
Mof_H 	H 	0.5957	0.5415	0.2541	0.071
Mof_H 	H 	0.6972	0.5435	0.1487	-0.019
Mof_H 	H 	0.3505	0.5767	0.4369	-0.022
Mof_H 	H 	0.4502	0.5858	0.335	0.075
Mof_H 	H 	0.4397	0.4296	0.2762	0.075
Mof_H 	H 	0.3428	0.4222	0.3796	-0.024
Mof_H 	H 	0.6361	0.0054	0.428	-0.022
Mof_H 	H 	0.6311	0.0125	0.3255	0.072
Mof_H 	H 	0.8913	0.9585	0.2459	0.071
Mof_H 	H 	0.8894	0.9565	0.3513	-0.018
Mof_H 	H 	0.8641	0.9233	0.0631	-0.021
Mof_H 	H 	0.871	0.9142	0.165	0.074
Mof_H 	H 	0.6455	0.0704	0.2238	0.074
Mof_H 	H 	0.6446	0.0778	0.1204	-0.023
Mof_H 	H 	0.8639	0.572	0.9946	-0.02
Mof_H 	H 	0.8689	0.6745	0.9875	0.071
Mof_H 	H 	0.6087	0.7541	0.0415	0.07
Mof_H 	H 	0.6106	0.6487	0.0435	-0.018
Mof_H 	H 	0.6359	0.9369	0.0767	-0.021
Mof_H 	H 	0.629	0.835	0.0858	0.074
Mof_H 	H 	0.8545	0.7762	0.9296	0.074
Mof_H 	H 	0.8554	0.8796	0.9222	-0.022
Mof_H 	H 	0.9305	0.928	0.5054	-0.022
Mof_H 	H 	0.0309	0.8255	0.5125	0.072
Mof_H 	H 	0.9043	0.7459	0.4585	0.071
Mof_H 	H 	0.8028	0.8513	0.4565	-0.019
Mof_H 	H 	0.1495	0.5631	0.4233	-0.022
Mof_H 	H 	0.0498	0.665	0.4142	0.075
Mof_H 	H 	0.0603	0.7238	0.5704	0.075
Mof_H 	H 	0.1572	0.6204	0.5778	-0.024
Mof_H 	H 	0.8585	0.072	0.0054	-0.018
Mof_H 	H 	0.8564	0.1745	0.0125	0.069
Mof_H 	H 	0.6502	0.2541	0.9585	0.07
Mof_H 	H 	0.6541	0.1487	0.9565	-0.018
Mof_H 	H 	0.7126	0.4369	0.9233	-0.022
Mof_H 	H 	0.7148	0.335	0.9142	0.076
Mof_H 	H 	0.7841	0.2762	0.0704	0.075
Mof_H 	H 	0.7776	0.3796	0.0778	-0.024
Mof_H 	H 	0.4359	0.428	0.4946	-0.023
Mof_H 	H 	0.5434	0.3255	0.4875	0.073
Mof_H 	H 	0.3628	0.2459	0.5415	0.071
Mof_H 	H 	0.2593	0.3513	0.5435	-0.019
Mof_H 	H 	0.5728	0.0631	0.5767	-0.022
Mof_H 	H 	0.464	0.165	0.5858	0.075
Mof_H 	H 	0.6307	0.2238	0.4296	0.075
Mof_H 	H 	0.735	0.1204	0.4222	-0.024
Mof_H 	H 	0.0641	0.5054	0.572	-0.023
Mof_H 	H 	0.9566	0.5125	0.6745	0.073
Mof_H 	H 	0.1372	0.4585	0.7541	0.071
Mof_H 	H 	0.2407	0.4565	0.6487	-0.019
Mof_H 	H 	0.9272	0.4233	0.9369	-0.022
Mof_H 	H 	0.036	0.4142	0.835	0.074
Mof_H 	H 	0.8693	0.5704	0.7762	0.075
Mof_H 	H 	0.765	0.5778	0.8796	-0.023
Mof_H 	H 	0.6415	0.9946	0.928	-0.016
Mof_H 	H 	0.6436	0.9875	0.8255	0.068
Mof_H 	H 	0.8498	0.0415	0.7459	0.069
Mof_H 	H 	0.8459	0.0435	0.8513	-0.018
Mof_H 	H 	0.7874	0.0767	0.5631	-0.022
Mof_H 	H 	0.7852	0.0858	0.665	0.075
Mof_H 	H 	0.7159	0.9296	0.7238	0.075
Mof_H 	H 	0.7224	0.9222	0.6204	-0.024
Mof_C 	C 	0.57589	0.50283	0.10899	0.078
Mof_C 	C 	0.51467	0.49936	0.1705	-0.142
Mof_C 	C 	0.52069	0.51338	0.22584	0.053
Mof_C 	C 	0.5901	0.5309	0.2177	-0.137
Mof_C 	C 	0.65063	0.53216	0.15418	0.071
Mof_C 	C 	0.36881	0.54677	0.40401	0.078
Mof_C 	C 	0.42851	0.55252	0.34286	-0.144
Mof_C 	C 	0.45651	0.50907	0.29311	0.058
Mof_C 	C 	0.42247	0.45995	0.30831	-0.145
Mof_C 	C 	0.36381	0.45605	0.37033	0.08
Mof_C 	C 	0.68771	0.99717	0.39101	0.076
Mof_C 	C 	0.68453	0.00064	0.3295	-0.14
Mof_C 	C 	0.75991	0.98662	0.27416	0.053
Mof_C 	C 	0.8387	0.9691	0.2823	-0.137
Mof_C 	C 	0.83697	0.96784	0.34582	0.071
Mof_C 	C 	0.81959	0.95323	0.09599	0.074
Mof_C 	C 	0.82389	0.94748	0.15714	-0.142
Mof_C 	C 	0.75869	0.99093	0.20689	0.055
Mof_C 	C 	0.69073	0.04005	0.19169	-0.142
Mof_C 	C 	0.69019	0.04395	0.12967	0.079
Mof_C 	C 	0.81229	0.60899	0.00283	0.072
Mof_C 	C 	0.81547	0.6705	0.99936	-0.135
Mof_C 	C 	0.74009	0.72584	0.01338	0.05
Mof_C 	C 	0.6613	0.7177	0.0309	-0.135
Mof_C 	C 	0.66303	0.65418	0.03216	0.07
Mof_C 	C 	0.68041	0.90401	0.04677	0.073
Mof_C 	C 	0.67611	0.84286	0.05252	-0.141
Mof_C 	C 	0.74131	0.79311	0.00907	0.054
Mof_C 	C 	0.80927	0.80831	0.95995	-0.14
Mof_C 	C 	0.80981	0.87033	0.95605	0.079
Mof_C 	C 	0.92411	0.89101	0.49717	0.077
Mof_C 	C 	0.98533	0.8295	0.50064	-0.141
Mof_C 	C 	0.97931	0.77416	0.48662	0.053
Mof_C 	C 	0.9099	0.7823	0.4691	-0.137
Mof_C 	C 	0.84937	0.84582	0.46784	0.071
Mof_C 	C 	0.13119	0.59599	0.45323	0.078
Mof_C 	C 	0.07149	0.65714	0.44748	-0.144
Mof_C 	C 	0.04349	0.70689	0.49093	0.057
Mof_C 	C 	0.07753	0.69169	0.54005	-0.145
Mof_C 	C 	0.13619	0.62967	0.54395	0.08
Mof_C 	C 	0.81512	0.10899	0.99717	0.068
Mof_C 	C 	0.81483	0.1705	0.00064	-0.132
Mof_C 	C 	0.75347	0.22584	0.98662	0.048
Mof_C 	C 	0.6922	0.2177	0.9691	-0.133
Mof_C 	C 	0.69519	0.15418	0.96784	0.069
Mof_C 	C 	0.72718	0.40401	0.95323	0.078
Mof_C 	C 	0.72863	0.34286	0.94748	-0.145
Mof_C 	C 	0.75038	0.29311	0.99093	0.059
Mof_C 	C 	0.76922	0.30831	0.04005	-0.145
Mof_C 	C 	0.76586	0.37033	0.04395	0.08
Mof_C 	C 	0.42128	0.39101	0.50283	0.078
Mof_C 	C 	0.48597	0.3295	0.49936	-0.142
Mof_C 	C 	0.46593	0.27416	0.51338	0.054
Mof_C 	C 	0.379	0.2823	0.5309	-0.137
Mof_C 	C 	0.31721	0.34582	0.53216	0.071
Mof_C 	C 	0.58442	0.09599	0.54677	0.078
Mof_C 	C 	0.51897	0.15714	0.55252	-0.144
Mof_C 	C 	0.53442	0.20689	0.50907	0.058
Mof_C 	C 	0.61758	0.19169	0.45995	-0.145
Mof_C 	C 	0.68014	0.12967	0.45605	0.08
Mof_C 	C 	0.07872	0.49717	0.60899	0.078
Mof_C 	C 	0.01403	0.50064	0.6705	-0.143
Mof_C 	C 	0.03407	0.48662	0.72584	0.053
Mof_C 	C 	0.121	0.4691	0.7177	-0.137
Mof_C 	C 	0.18279	0.46784	0.65418	0.071
Mof_C 	C 	0.91558	0.45323	0.90401	0.077
Mof_C 	C 	0.98103	0.44748	0.84286	-0.143
Mof_C 	C 	0.96558	0.49093	0.79311	0.058
Mof_C 	C 	0.88242	0.54005	0.80831	-0.145
Mof_C 	C 	0.81986	0.54395	0.87033	0.08
Mof_C 	C 	0.68488	0.00283	0.89101	0.064
Mof_C 	C 	0.68517	0.99936	0.8295	-0.127
Mof_C 	C 	0.74653	0.01338	0.77416	0.045
Mof_C 	C 	0.8078	0.0309	0.7823	-0.132
Mof_C 	C 	0.80481	0.03216	0.84582	0.067
Mof_C 	C 	0.77282	0.04677	0.59599	0.077
Mof_C 	C 	0.77137	0.05252	0.65714	-0.145
Mof_C 	C 	0.74962	0.00907	0.70689	0.059
Mof_C 	C 	0.73078	0.95995	0.69169	-0.144
Mof_C 	C 	0.73414	0.95605	0.62967	0.08
Mof_N 	N 	0.64424	0.51764	0.10048	-0.241
Mof_N 	N 	0.3354	0.49923	0.41837	-0.24
Mof_N 	N 	0.76236	0.98236	0.39952	-0.241
Mof_N 	N 	0.753	0.00077	0.08163	-0.238
Mof_N 	N 	0.73764	0.60048	0.01764	-0.24
Mof_N 	N 	0.747	0.91837	0.99923	-0.237
Mof_N 	N 	0.85576	0.89952	0.48236	-0.241
Mof_N 	N 	0.1646	0.58163	0.50077	-0.24
Mof_N 	N 	0.75528	0.10048	0.98236	-0.239
Mof_N 	N 	0.74623	0.41837	0.00077	-0.24
Mof_N 	N 	0.33812	0.39952	0.51764	-0.241
Mof_N 	N 	0.66537	0.08163	0.49923	-0.24
Mof_N 	N 	0.16188	0.48236	0.60048	-0.241
Mof_N 	N 	0.83463	0.50077	0.91837	-0.24
Mof_N 	N 	0.74472	0.01764	0.89952	-0.238
Mof_N 	N 	0.75377	0.99923	0.58163	-0.239
Mof_Cu	Cu	0.25	0.98992	0.01008	0.849
Mof_Cu	Cu	0.75	0.51008	0.48992	0.85
Mof_Cu	Cu	0.26008	0.48992	0.98992	0.85
Mof_Cu	Cu	0.23992	0.01008	0.51008	0.85
Mof_H 	H 	0.1415	0.928	0.9946	-0.018
Mof_H 	H 	0.1436	0.8255	0.9875	0.069
Mof_H 	H 	0.3498	0.7459	0.0415	0.07
Mof_H 	H 	0.3459	0.8513	0.0435	-0.018
Mof_H 	H 	0.2874	0.5631	0.0767	-0.022
Mof_H 	H 	0.2852	0.665	0.0858	0.076
Mof_H 	H 	0.2159	0.7238	0.9296	0.075
Mof_H 	H 	0.2224	0.6204	0.9222	-0.024
Mof_H 	H 	0.5641	0.572	0.5054	-0.023
Mof_H 	H 	0.4566	0.6745	0.5125	0.073
Mof_H 	H 	0.6372	0.7541	0.4585	0.071
Mof_H 	H 	0.7407	0.6487	0.4565	-0.019
Mof_H 	H 	0.4272	0.9369	0.4233	-0.022
Mof_H 	H 	0.536	0.835	0.4142	0.075
Mof_H 	H 	0.3693	0.7762	0.5704	0.075
Mof_H 	H 	0.265	0.8796	0.5778	-0.024
Mof_H 	H 	0.9359	0.4946	0.428	-0.023
Mof_H 	H 	0.0434	0.4875	0.3255	0.073
Mof_H 	H 	0.8628	0.5415	0.2459	0.071
Mof_H 	H 	0.7593	0.5435	0.3513	-0.019
Mof_H 	H 	0.0728	0.5767	0.0631	-0.022
Mof_H 	H 	0.964	0.5858	0.165	0.074
Mof_H 	H 	0.1307	0.4296	0.2238	0.075
Mof_H 	H 	0.235	0.4222	0.1204	-0.023
Mof_H 	H 	0.3585	0.0054	0.072	-0.016
Mof_H 	H 	0.3564	0.0125	0.1745	0.068
Mof_H 	H 	0.1502	0.9585	0.2541	0.069
Mof_H 	H 	0.1541	0.9565	0.1487	-0.018
Mof_H 	H 	0.2126	0.9233	0.4369	-0.022
Mof_H 	H 	0.2148	0.9142	0.335	0.075
Mof_H 	H 	0.2841	0.0704	0.2762	0.075
Mof_H 	H 	0.2776	0.0778	0.3796	-0.024
Mof_H 	H 	0.4305	0.5054	0.928	-0.023
Mof_H 	H 	0.5309	0.5125	0.8255	0.073
Mof_H 	H 	0.4043	0.4585	0.7459	0.071
Mof_H 	H 	0.3028	0.4565	0.8513	-0.019
Mof_H 	H 	0.6495	0.4233	0.5631	-0.022
Mof_H 	H 	0.5498	0.4142	0.665	0.075
Mof_H 	H 	0.5603	0.5704	0.7238	0.075
Mof_H 	H 	0.6572	0.5778	0.6204	-0.024
Mof_H 	H 	0.3639	0.9946	0.572	-0.022
Mof_H 	H 	0.3689	0.9875	0.6745	0.072
Mof_H 	H 	0.1087	0.0415	0.7541	0.071
Mof_H 	H 	0.1106	0.0435	0.6487	-0.018
Mof_H 	H 	0.1359	0.0767	0.9369	-0.021
Mof_H 	H 	0.129	0.0858	0.835	0.074
Mof_H 	H 	0.3545	0.9296	0.7762	0.074
Mof_H 	H 	0.3554	0.9222	0.8796	-0.023
Mof_H 	H 	0.1361	0.428	0.0054	-0.02
Mof_H 	H 	0.1311	0.3255	0.0125	0.071
Mof_H 	H 	0.3913	0.2459	0.9585	0.07
Mof_H 	H 	0.3894	0.3513	0.9565	-0.018
Mof_H 	H 	0.3641	0.0631	0.9233	-0.021
Mof_H 	H 	0.371	0.165	0.9142	0.074
Mof_H 	H 	0.1455	0.2238	0.0704	0.074
Mof_H 	H 	0.1446	0.1204	0.0778	-0.022
Mof_H 	H 	0.0695	0.072	0.4946	-0.022
Mof_H 	H 	0.9691	0.1745	0.4875	0.072
Mof_H 	H 	0.0957	0.2541	0.5415	0.071
Mof_H 	H 	0.1972	0.1487	0.5435	-0.019
Mof_H 	H 	0.8505	0.4369	0.5767	-0.022
Mof_H 	H 	0.9502	0.335	0.5858	0.075
Mof_H 	H 	0.9397	0.2762	0.4296	0.075
Mof_H 	H 	0.8428	0.3796	0.4222	-0.024
Mof_C 	C 	0.18488	0.89101	0.00283	0.068
Mof_C 	C 	0.18517	0.8295	0.99936	-0.132
Mof_C 	C 	0.24653	0.77416	0.01338	0.048
Mof_C 	C 	0.3078	0.7823	0.0309	-0.133
Mof_C 	C 	0.30481	0.84582	0.03216	0.069
Mof_C 	C 	0.27282	0.59599	0.04677	0.078
Mof_C 	C 	0.27137	0.65714	0.05252	-0.145
Mof_C 	C 	0.24962	0.70689	0.00907	0.059
Mof_C 	C 	0.23078	0.69169	0.95995	-0.145
Mof_C 	C 	0.23414	0.62967	0.95605	0.08
Mof_C 	C 	0.57872	0.60899	0.49717	0.078
Mof_C 	C 	0.51403	0.6705	0.50064	-0.142
Mof_C 	C 	0.53407	0.72584	0.48662	0.054
Mof_C 	C 	0.621	0.7177	0.4691	-0.137
Mof_C 	C 	0.68279	0.65418	0.46784	0.071
Mof_C 	C 	0.41558	0.90401	0.45323	0.078
Mof_C 	C 	0.48103	0.84286	0.44748	-0.144
Mof_C 	C 	0.46558	0.79311	0.49093	0.058
Mof_C 	C 	0.38242	0.80831	0.54005	-0.145
Mof_C 	C 	0.31986	0.87033	0.54395	0.08
Mof_C 	C 	0.92128	0.50283	0.39101	0.078
Mof_C 	C 	0.98597	0.49936	0.3295	-0.143
Mof_C 	C 	0.96593	0.51338	0.27416	0.053
Mof_C 	C 	0.879	0.5309	0.2823	-0.137
Mof_C 	C 	0.81721	0.53216	0.34582	0.071
Mof_C 	C 	0.08442	0.54677	0.09599	0.077
Mof_C 	C 	0.01897	0.55252	0.15714	-0.143
Mof_C 	C 	0.03442	0.50907	0.20689	0.058
Mof_C 	C 	0.11758	0.45995	0.19169	-0.145
Mof_C 	C 	0.18014	0.45605	0.12967	0.08
Mof_C 	C 	0.31512	0.99717	0.10899	0.064
Mof_C 	C 	0.31483	0.00064	0.1705	-0.127
Mof_C 	C 	0.25347	0.98662	0.22584	0.045
Mof_C 	C 	0.1922	0.9691	0.2177	-0.132
Mof_C 	C 	0.19519	0.96784	0.15418	0.067
Mof_C 	C 	0.22718	0.95323	0.40401	0.077
Mof_C 	C 	0.22863	0.94748	0.34286	-0.145
Mof_C 	C 	0.25038	0.99093	0.29311	0.059
Mof_C 	C 	0.26922	0.04005	0.30831	-0.144
Mof_C 	C 	0.26586	0.04395	0.37033	0.08
Mof_C 	C 	0.42411	0.49717	0.89101	0.078
Mof_C 	C 	0.48533	0.50064	0.8295	-0.142
Mof_C 	C 	0.47931	0.48662	0.77416	0.053
Mof_C 	C 	0.4099	0.4691	0.7823	-0.137
Mof_C 	C 	0.34937	0.46784	0.84582	0.071
Mof_C 	C 	0.63119	0.45323	0.59599	0.078
Mof_C 	C 	0.57149	0.44748	0.65714	-0.144
Mof_C 	C 	0.54349	0.49093	0.70689	0.058
Mof_C 	C 	0.57753	0.54005	0.69169	-0.145
Mof_C 	C 	0.63619	0.54395	0.62967	0.08
Mof_C 	C 	0.31229	0.00283	0.60899	0.076
Mof_C 	C 	0.31547	0.99936	0.6705	-0.14
Mof_C 	C 	0.24009	0.01338	0.72584	0.053
Mof_C 	C 	0.1613	0.0309	0.7177	-0.137
Mof_C 	C 	0.16303	0.03216	0.65418	0.071
Mof_C 	C 	0.18041	0.04677	0.90401	0.074
Mof_C 	C 	0.17611	0.05252	0.84286	-0.142
Mof_C 	C 	0.24131	0.00907	0.79311	0.055
Mof_C 	C 	0.30927	0.95995	0.80831	-0.142
Mof_C 	C 	0.30981	0.95605	0.87033	0.079
Mof_C 	C 	0.18771	0.39101	0.99717	0.072
Mof_C 	C 	0.18453	0.3295	0.00064	-0.135
Mof_C 	C 	0.25991	0.27416	0.98662	0.05
Mof_C 	C 	0.3387	0.2823	0.9691	-0.135
Mof_C 	C 	0.33697	0.34582	0.96784	0.07
Mof_C 	C 	0.31959	0.09599	0.95323	0.073
Mof_C 	C 	0.32389	0.15714	0.94748	-0.141
Mof_C 	C 	0.25869	0.20689	0.99093	0.054
Mof_C 	C 	0.19073	0.19169	0.04005	-0.14
Mof_C 	C 	0.19019	0.12967	0.04395	0.079
Mof_C 	C 	0.07589	0.10899	0.50283	0.077
Mof_C 	C 	0.01467	0.1705	0.49936	-0.141
Mof_C 	C 	0.02069	0.22584	0.51338	0.053
Mof_C 	C 	0.0901	0.2177	0.5309	-0.137
Mof_C 	C 	0.15063	0.15418	0.53216	0.071
Mof_C 	C 	0.86881	0.40401	0.54677	0.078
Mof_C 	C 	0.92851	0.34286	0.55252	-0.144
Mof_C 	C 	0.95651	0.29311	0.50907	0.057
Mof_C 	C 	0.92247	0.30831	0.45995	-0.145
Mof_C 	C 	0.86381	0.37033	0.45605	0.08
Mof_N 	N 	0.24472	0.89952	0.01764	-0.239
Mof_N 	N 	0.25377	0.58163	0.99923	-0.24
Mof_N 	N 	0.66188	0.60048	0.48236	-0.241
Mof_N 	N 	0.33463	0.91837	0.50077	-0.24
Mof_N 	N 	0.83812	0.51764	0.39952	-0.241
Mof_N 	N 	0.16537	0.49923	0.08163	-0.24
Mof_N 	N 	0.25528	0.98236	0.10048	-0.238
Mof_N 	N 	0.24623	0.00077	0.41837	-0.239
Mof_N 	N 	0.35576	0.48236	0.89952	-0.241
Mof_N 	N 	0.6646	0.50077	0.58163	-0.24
Mof_N 	N 	0.23764	0.01764	0.60048	-0.241
Mof_N 	N 	0.247	0.99923	0.91837	-0.238
Mof_N 	N 	0.26236	0.39952	0.98236	-0.24
Mof_N 	N 	0.253	0.08163	0.00077	-0.237
Mof_N 	N 	0.14424	0.10048	0.51764	-0.241
Mof_N 	N 	0.8354	0.41837	0.49923	-0.24
_end
