data_functionalizedCrystal
_audit_creation_method	'EQeq! by Chris Wilmer'
_symmetry_space_group_name_H-M	'P1'
_symmetry_Int_Tables_number	1
_symmetry_cell_setting	triclinic
loop_
_symmetry_equiv_pos_as_xyz
  x,y,z
_cell_length_a	7.5764
_cell_length_b	14.12
_cell_length_c	15.795
_cell_angle_alpha	71.81
_cell_angle_beta	87.78
_cell_angle_gamma	79.38
loop_
_atom_site_label
_atom_site_type_symbol
_atom_site_fract_x
_atom_site_fract_y
_atom_site_fract_z
_atom_site_charge
Mof_Cd	Cd	0.021	0.2703	0.7263	0.493
Mof_Cd	Cd	0.51419	0.16625	0.73773	0.51
Mof_C 	C 	0.3397	0.1983	0.8811	0.377
Mof_C 	C 	0.2444	0.2425	0.9458	-0.217
Mof_C 	C 	0.1898	0.1853	0.0233	0.164
Mof_H 	H 	0.2125	0.115	0.0372	-0.005
Mof_C 	C 	0.1022	0.2287	0.0813	-0.232
Mof_H 	H 	0.0638	0.1881	0.1347	0.122
Mof_C 	C 	0.0691	0.331	0.063	0.152
Mof_H 	H 	0.0052	0.3603	0.1027	-0.026
Mof_C 	C 	0.1312	0.3911	0.985	-0.24
Mof_H 	H 	0.1135	0.461	0.9733	0.124
Mof_C 	C 	0.2177	0.3485	0.9254	0.209
Mof_C 	C 	0.3128	0.5464	0.7449	0.221
Mof_C 	C 	0.325	0.6447	0.7346	-0.271
Mof_H 	H 	0.2883	0.6729	0.7797	0.127
Mof_C 	C 	0.3914	0.7014	0.6576	0.183
Mof_H 	H 	0.3989	0.7683	0.6509	-0.028
Mof_C 	C 	0.4464	0.6626	0.5909	-0.247
Mof_H 	H 	0.4932	0.7012	0.539	0.137
Mof_C 	C 	0.4304	0.5639	0.6027	0.17
Mof_H 	H 	0.4655	0.5367	0.5568	-0.012
Mof_C 	C 	0.3663	0.5044	0.6776	-0.222
Mof_C 	C 	0.3402	0.4028	0.6791	0.406
Mof_C 	C 	0.0917	0.9829	0.9017	0.2
Mof_C 	C 	0.2681	0.9303	0.925	-0.234
Mof_H 	H 	0.3144	0.9161	0.9822	0.144
Mof_C 	C 	0.369	0.9007	0.8618	0.149
Mof_H 	H 	0.485	0.8647	0.8772	-0.012
Mof_C 	C 	0.3079	0.9214	0.7766	-0.209
Mof_H 	H 	0.3807	0.9011	0.7344	0.111
Mof_C 	C 	0.1333	0.974	0.7551	0.135
Mof_H 	H 	0.0864	0.9867	0.6983	-0.002
Mof_C 	C 	0.0315	0.0066	0.8157	-0.203
Mof_C 	C 	0.8494	0.0658	0.7875	0.384
Mof_C 	C 	0.3225	0.1015	0.4616	0.262
Mof_C 	C 	0.2911	0.1073	0.3759	-0.327
Mof_H 	H 	0.3438	0.0554	0.3535	0.171
Mof_C 	C 	0.1813	0.1903	0.3237	0.256
Mof_H 	H 	0.1603	0.1949	0.2648	-0.059
Mof_C 	C 	0.1032	0.2648	0.3534	-0.307
Mof_H 	H 	0.0303	0.3212	0.3154	0.145
Mof_C 	C 	0.1298	0.2589	0.4412	0.203
Mof_H 	H 	0.0736	0.3108	0.4629	-0.022
Mof_C 	C 	0.2405	0.1752	0.4962	-0.256
Mof_C 	C 	0.2759	0.1733	0.5884	0.423
Mof_C 	C 	0.538	0.5177	0.9625	-0.094
Mof_H 	H 	0.5173	0.5879	0.9378	0.064
Mof_C 	C 	0.6523	0.4607	0.9119	0.158
Mof_C 	C 	0.6818	0.3555	0.9379	-0.191
Mof_H 	H 	0.6313	0.3187	0.9895	0.106
Mof_C 	C 	0.7862	0.3072	0.8861	0.13
Mof_H 	H 	0.8057	0.2367	0.9037	0.015
Mof_C 	C 	0.8315	0.4553	0.7877	0.14
Mof_H 	H 	0.8827	0.4909	0.7358	-0.004
Mof_C 	C 	0.7273	0.5081	0.8363	-0.214
Mof_H 	H 	0.7081	0.5786	0.8164	0.107
Mof_N 	N 	0.2797	0.4021	0.8434	-0.1
Mof_N 	N 	0.2439	0.4958	0.8263	-0.112
Mof_N 	N 	0.975	0.0176	0.96	-0.1
Mof_N 	N 	0.4345	0.0156	0.5195	-0.104
Mof_N 	N 	0.8615	0.3559	0.8118	-0.169
Mof_O 	O 	0.2553	0.1892	0.8177	-0.319
Mof_O 	O 	0.5065	0.1742	0.8856	-0.286
Mof_O 	O 	0.4755	0.3375	0.6828	-0.302
Mof_O 	O 	0.1828	0.3932	0.671	-0.307
Mof_O 	O 	0.8257	0.1602	0.7632	-0.314
Mof_O 	O 	0.7241	0.0217	0.7864	-0.304
Mof_O 	O 	0.143	0.1957	0.6299	-0.32
Mof_O 	O 	0.4333	0.1499	0.6156	-0.325
Mof_Cd	Cd	0.979	0.7297	0.2737	0.492
Mof_Cd	Cd	0.48581	0.83375	0.26227	0.509
Mof_C 	C 	0.6603	0.8017	0.1189	0.376
Mof_C 	C 	0.7556	0.7575	0.0542	-0.218
Mof_C 	C 	0.8102	0.8147	0.9767	0.164
Mof_H 	H 	0.7875	0.885	0.9628	-0.005
Mof_C 	C 	0.8978	0.7713	0.9187	-0.232
Mof_H 	H 	0.9362	0.8119	0.8653	0.122
Mof_C 	C 	0.9309	0.669	0.937	0.152
Mof_H 	H 	0.9948	0.6397	0.8973	-0.026
Mof_C 	C 	0.8688	0.6089	0.015	-0.24
Mof_H 	H 	0.8865	0.539	0.0267	0.124
Mof_C 	C 	0.7823	0.6515	0.0746	0.209
Mof_C 	C 	0.6872	0.4536	0.2551	0.221
Mof_C 	C 	0.675	0.3553	0.2654	-0.271
Mof_H 	H 	0.7117	0.3271	0.2203	0.127
Mof_C 	C 	0.6086	0.2986	0.3424	0.183
Mof_H 	H 	0.6011	0.2317	0.3491	-0.028
Mof_C 	C 	0.5536	0.3374	0.4091	-0.247
Mof_H 	H 	0.5068	0.2988	0.461	0.137
Mof_C 	C 	0.5696	0.4361	0.3973	0.17
Mof_H 	H 	0.5345	0.4633	0.4432	-0.012
Mof_C 	C 	0.6337	0.4956	0.3224	-0.222
Mof_C 	C 	0.6598	0.5972	0.3209	0.406
Mof_C 	C 	0.9083	0.0171	0.0983	0.2
Mof_C 	C 	0.7319	0.0697	0.075	-0.234
Mof_H 	H 	0.6856	0.0839	0.0178	0.144
Mof_C 	C 	0.631	0.0993	0.1382	0.149
Mof_H 	H 	0.515	0.1353	0.1228	-0.012
Mof_C 	C 	0.6921	0.0786	0.2234	-0.209
Mof_H 	H 	0.6193	0.0989	0.2656	0.111
Mof_C 	C 	0.8667	0.026	0.2449	0.135
Mof_H 	H 	0.9136	0.0133	0.3017	-0.002
Mof_C 	C 	0.9685	0.9934	0.1843	-0.203
Mof_C 	C 	0.1506	0.9342	0.2125	0.384
Mof_C 	C 	0.6775	0.8985	0.5384	0.262
Mof_C 	C 	0.7089	0.8927	0.6241	-0.327
Mof_H 	H 	0.6562	0.9446	0.6465	0.171
Mof_C 	C 	0.8187	0.8097	0.6763	0.256
Mof_H 	H 	0.8397	0.8051	0.7352	-0.059
Mof_C 	C 	0.8968	0.7352	0.6466	-0.307
Mof_H 	H 	0.9697	0.6788	0.6846	0.145
Mof_C 	C 	0.8702	0.7411	0.5588	0.203
Mof_H 	H 	0.9264	0.6892	0.5371	-0.022
Mof_C 	C 	0.7595	0.8248	0.5038	-0.256
Mof_C 	C 	0.7241	0.8267	0.4116	0.423
Mof_C 	C 	0.462	0.4823	0.0375	-0.094
Mof_H 	H 	0.4827	0.4121	0.0622	0.064
Mof_C 	C 	0.3477	0.5393	0.0881	0.158
Mof_C 	C 	0.3182	0.6445	0.0621	-0.191
Mof_H 	H 	0.3687	0.6813	0.0105	0.106
Mof_C 	C 	0.2138	0.6928	0.1139	0.13
Mof_H 	H 	0.1943	0.7633	0.0963	0.015
Mof_C 	C 	0.1685	0.5447	0.2123	0.14
Mof_H 	H 	0.1173	0.5091	0.2642	-0.004
Mof_C 	C 	0.2727	0.4919	0.1637	-0.214
Mof_H 	H 	0.2919	0.4214	0.1836	0.107
Mof_N 	N 	0.7203	0.5979	0.1566	-0.1
Mof_N 	N 	0.7561	0.5042	0.1737	-0.112
Mof_N 	N 	0.025	0.9824	0.04	-0.1
Mof_N 	N 	0.5655	0.9844	0.4805	-0.104
Mof_N 	N 	0.1385	0.6441	0.1882	-0.169
Mof_O 	O 	0.7447	0.8108	0.1823	-0.319
Mof_O 	O 	0.4935	0.8258	0.1144	-0.286
Mof_O 	O 	0.5245	0.6625	0.3172	-0.302
Mof_O 	O 	0.8172	0.6068	0.329	-0.307
Mof_O 	O 	0.1743	0.8398	0.2368	-0.314
Mof_O 	O 	0.2759	0.9783	0.2136	-0.304
Mof_O 	O 	0.857	0.8043	0.3701	-0.32
Mof_O 	O 	0.5667	0.8501	0.3844	-0.325
_end
