data_functionalizedCrystal
_audit_creation_method	'EQeq! by Chris Wilmer'
_symmetry_space_group_name_H-M	'P1'
_symmetry_Int_Tables_number	1
_symmetry_cell_setting	triclinic
loop_
_symmetry_equiv_pos_as_xyz
  x,y,z
_cell_length_a	9.2706
_cell_length_b	15.663
_cell_length_c	22.31
_cell_angle_alpha	102.25
_cell_angle_beta	101.47
_cell_angle_gamma	104.51
loop_
_atom_site_label
_atom_site_type_symbol
_atom_site_fract_x
_atom_site_fract_y
_atom_site_fract_z
_atom_site_charge
Mof_Eu	Eu	0.51438	0.86034	0.80213	2.421
Mof_Eu	Eu	0.02951	0.91201	0.85658	2.293
Mof_Eu	Eu	0.48562	0.13966	0.19787	2.422
Mof_Eu	Eu	0.97049	0.08799	0.14342	2.294
Mof_H 	H 	0.8689	0.835	0.6651	-0.027
Mof_H 	H 	0.7469	0.8349	0.5668	0.114
Mof_H 	H 	0.281	0.9146	0.6268	0.035
Mof_H 	H 	0.6682	0.7863	0.4514	0.153
Mof_H 	H 	0.6681	0.8864	0.481	0.154
Mof_H 	H 	0.6815	0.8573	0.4111	0.153
Mof_H 	H 	0.984	0.8495	0.3703	0.097
Mof_H 	H 	0.971	0.9047	0.2814	0.015
Mof_H 	H 	0.43	0.0126	0.3323	-0.006
Mof_H 	H 	0.4421	0.9527	0.4199	0.091
Mof_H 	H 	0.0044	0.6621	0.9085	0.002
Mof_H 	H 	0.9422	0.5189	0.9259	0.097
Mof_H 	H 	0.2733	0.4638	0.847	0.099
Mof_H 	H 	0.3384	0.6097	0.8325	0.014
Mof_H 	H 	0.1269	0.2666	0.0215	0.051
Mof_H 	H 	0.5094	0.192	0.0311	-0.019
Mof_H 	H 	0.5942	0.2935	0.9748	0.105
Mof_H 	H 	0.6824	0.4452	0.9637	0.159
Mof_H 	H 	0.614	0.3683	0.8989	0.157
Mof_H 	H 	0.6195	0.4697	0.901	0.157
Mof_H 	H 	0.5912	0.5626	0.8017	0.078
Mof_H 	H 	0.992	0.5638	0.7067	0.079
Mof_H 	H 	0.9233	0.6942	0.7331	0.011
Mof_H 	H 	0.9338	0.3644	0.6482	0.153
Mof_H 	H 	0.0477	0.4552	0.697	0.13
Mof_H 	H 	0.0411	0.3604	0.7107	0.15
Mof_H 	H 	0.2593	0.2716	0.7907	0.103
Mof_H 	H 	0.2323	0.1569	0.8419	0.004
Mof_H 	H 	0.5889	0.0937	0.7904	0.004
Mof_H 	H 	0.623	0.2098	0.7399	0.094
Mof_H 	H 	0.1311	0.165	0.3349	-0.027
Mof_H 	H 	0.2531	0.1651	0.4332	0.114
Mof_H 	H 	0.719	0.0854	0.3732	0.035
Mof_H 	H 	0.3318	0.2137	0.5486	0.153
Mof_H 	H 	0.3319	0.1136	0.519	0.154
Mof_H 	H 	0.3185	0.1427	0.5889	0.153
Mof_H 	H 	0.016	0.1505	0.6297	0.097
Mof_H 	H 	0.029	0.0953	0.7186	0.015
Mof_H 	H 	0.57	0.9874	0.6677	-0.006
Mof_H 	H 	0.5579	0.0473	0.5801	0.091
Mof_H 	H 	0.9956	0.3379	0.0915	0.002
Mof_H 	H 	0.0578	0.4811	0.0741	0.097
Mof_H 	H 	0.7267	0.5362	0.153	0.099
Mof_H 	H 	0.6616	0.3903	0.1675	0.014
Mof_H 	H 	0.8731	0.7334	0.9785	0.051
Mof_H 	H 	0.4906	0.808	0.9689	-0.019
Mof_H 	H 	0.4058	0.7065	0.0252	0.105
Mof_H 	H 	0.3176	0.5548	0.0363	0.159
Mof_H 	H 	0.386	0.6317	0.1011	0.157
Mof_H 	H 	0.3805	0.5303	0.099	0.157
Mof_H 	H 	0.4088	0.4374	0.1983	0.078
Mof_H 	H 	0.008	0.4362	0.2933	0.079
Mof_H 	H 	0.0767	0.3058	0.2669	0.011
Mof_H 	H 	0.0662	0.6356	0.3518	0.153
Mof_H 	H 	0.9523	0.5448	0.303	0.13
Mof_H 	H 	0.9589	0.6396	0.2893	0.15
Mof_H 	H 	0.7407	0.7284	0.2093	0.103
Mof_H 	H 	0.7677	0.8431	0.1581	0.004
Mof_H 	H 	0.4111	0.9063	0.2096	0.004
Mof_H 	H 	0.377	0.7902	0.2601	0.094
Mof_C 	C 	0.1697	0.8764	0.7229	0.556
Mof_C 	C 	0.0904	0.8763	0.6585	-0.221
Mof_C 	C 	0.9272	0.8515	0.6376	0.157
Mof_C 	C 	0.8543	0.851	0.5788	-0.219
Mof_C 	C 	0.936	0.8741	0.5361	0.161
Mof_C 	C 	0.0935	0.898	0.5559	0.052
Mof_C 	C 	0.1737	0.899	0.6156	0.027
Mof_C 	C 	0.7094	0.8497	0.453	-0.312
Mof_C 	C 	0.2148	0.8928	0.4012	0.017
Mof_C 	C 	0.074	0.8805	0.362	-0.113
Mof_C 	C 	0.0665	0.9151	0.3093	0.091
Mof_C 	C 	0.1993	0.9646	0.298	-0.204
Mof_C 	C 	0.3398	0.9789	0.3391	0.097
Mof_C 	C 	0.3471	0.9427	0.3916	-0.115
Mof_C 	C 	0.19	0.005	0.2419	0.552
Mof_C 	C 	0.2065	0.7422	0.8547	0.55
Mof_C 	C 	0.1744	0.6489	0.8677	-0.208
Mof_C 	C 	0.0586	0.6219	0.8962	0.103
Mof_C 	C 	0.0213	0.5368	0.907	-0.125
Mof_C 	C 	0.1041	0.4786	0.889	0.02
Mof_C 	C 	0.2204	0.5044	0.86	-0.111
Mof_C 	C 	0.2577	0.591	0.8504	0.093
Mof_C 	C 	0.2717	0.3328	0.9806	0.08
Mof_C 	C 	0.222	0.2722	0.0125	-0.016
Mof_C 	C 	0.3086	0.2178	0.0322	-0.192
Mof_C 	C 	0.4485	0.2272	0.0181	0.11
Mof_C 	C 	0.5	0.2887	0.9845	-0.179
Mof_C 	C 	0.4121	0.3433	0.9653	0.126
Mof_C 	C 	0.2514	0.1544	0.0696	0.52
Mof_C 	C 	0.6051	0.4239	0.9236	-0.323
Mof_C 	C 	0.701	0.7271	0.7883	0.397
Mof_C 	C 	0.7507	0.6431	0.7708	-0.113
Mof_C 	C 	0.6718	0.5633	0.7826	-0.058
Mof_C 	C 	0.7134	0.4858	0.7659	0.107
Mof_C 	C 	0.8324	0.4836	0.7373	0.104
Mof_C 	C 	0.9111	0.5634	0.7256	-0.139
Mof_C 	C 	0.8704	0.6413	0.7417	0.054
Mof_C 	C 	0.9813	0.395	0.6925	-0.296
Mof_C 	C 	0.447	0.2521	0.7625	0.008
Mof_C 	C 	0.3266	0.2364	0.7915	-0.121
Mof_C 	C 	0.3101	0.1674	0.8212	0.104
Mof_C 	C 	0.4076	0.1133	0.8208	-0.208
Mof_C 	C 	0.5234	0.13	0.7906	0.097
Mof_C 	C 	0.5452	0.1994	0.7606	-0.112
Mof_C 	C 	0.3889	0.0383	0.8538	0.529
Mof_C 	C 	0.8303	0.1236	0.2771	0.556
Mof_C 	C 	0.9096	0.1237	0.3415	-0.221
Mof_C 	C 	0.0728	0.1485	0.3624	0.157
Mof_C 	C 	0.1457	0.149	0.4212	-0.219
Mof_C 	C 	0.064	0.1259	0.4639	0.161
Mof_C 	C 	0.9065	0.102	0.4441	0.052
Mof_C 	C 	0.8263	0.101	0.3844	0.027
Mof_C 	C 	0.2906	0.1503	0.547	-0.312
Mof_C 	C 	0.7852	0.1072	0.5988	0.017
Mof_C 	C 	0.926	0.1195	0.638	-0.113
Mof_C 	C 	0.9335	0.0849	0.6907	0.091
Mof_C 	C 	0.8007	0.0354	0.702	-0.204
Mof_C 	C 	0.6602	0.0211	0.6609	0.097
Mof_C 	C 	0.6529	0.0573	0.6084	-0.115
Mof_C 	C 	0.81	0.995	0.7581	0.552
Mof_C 	C 	0.7935	0.2578	0.1453	0.55
Mof_C 	C 	0.8256	0.3511	0.1323	-0.208
Mof_C 	C 	0.9414	0.3781	0.1038	0.103
Mof_C 	C 	0.9787	0.4632	0.093	-0.125
Mof_C 	C 	0.8959	0.5214	0.111	0.02
Mof_C 	C 	0.7796	0.4956	0.14	-0.111
Mof_C 	C 	0.7423	0.409	0.1496	0.093
Mof_C 	C 	0.7283	0.6672	0.0194	0.08
Mof_C 	C 	0.778	0.7278	0.9875	-0.016
Mof_C 	C 	0.6914	0.7822	0.9678	-0.192
Mof_C 	C 	0.5515	0.7728	0.9819	0.11
Mof_C 	C 	0.5	0.7113	0.0155	-0.179
Mof_C 	C 	0.5879	0.6567	0.0347	0.126
Mof_C 	C 	0.7486	0.8456	0.9304	0.52
Mof_C 	C 	0.3949	0.5761	0.0764	-0.323
Mof_C 	C 	0.299	0.2729	0.2117	0.397
Mof_C 	C 	0.2493	0.3569	0.2292	-0.113
Mof_C 	C 	0.3282	0.4367	0.2174	-0.058
Mof_C 	C 	0.2866	0.5142	0.2341	0.107
Mof_C 	C 	0.1676	0.5164	0.2627	0.104
Mof_C 	C 	0.0889	0.4366	0.2744	-0.139
Mof_C 	C 	0.1296	0.3587	0.2583	0.054
Mof_C 	C 	0.0187	0.605	0.3075	-0.296
Mof_C 	C 	0.553	0.7479	0.2375	0.008
Mof_C 	C 	0.6734	0.7636	0.2085	-0.121
Mof_C 	C 	0.6899	0.8326	0.1788	0.104
Mof_C 	C 	0.5924	0.8867	0.1792	-0.208
Mof_C 	C 	0.4766	0.87	0.2094	0.097
Mof_C 	C 	0.4548	0.8006	0.2394	-0.112
Mof_C 	C 	0.6111	0.9617	0.1462	0.529
Mof_S 	S 	0.2259	0.84884	0.46751	0.421
Mof_S 	S 	0.06	0.36935	0.90257	0.419
Mof_S 	S 	0.4746	0.34414	0.72837	0.432
Mof_S 	S 	0.7741	0.15116	0.53249	0.421
Mof_S 	S 	0.94	0.63065	0.09743	0.419
Mof_S 	S 	0.5254	0.65586	0.27163	0.432
Mof_O 	O 	0.0895	0.861	0.7614	-0.581
Mof_O 	O 	0.3121	0.8895	0.7355	-0.614
Mof_O 	O 	0.8761	0.8783	0.4764	-0.13
Mof_O 	O 	0.1824	0.9253	0.5139	-0.225
Mof_O 	O 	0.1093	0.7637	0.4525	-0.247
Mof_O 	O 	0.3834	0.8565	0.4947	-0.255
Mof_O 	O 	0.0598	0.001	0.2107	-0.577
Mof_O 	O 	0.3157	0.0365	0.2293	-0.651
Mof_O 	O 	0.1299	0.7925	0.8732	-0.597
Mof_O 	O 	0.3083	0.7628	0.8251	-0.598
Mof_O 	O 	0.9133	0.3486	0.9171	-0.248
Mof_O 	O 	0.0864	0.3036	0.8557	-0.252
Mof_O 	O 	0.1916	0.3948	0.9683	-0.243
Mof_O 	O 	0.4969	0.0016	0.8623	-0.552
Mof_O 	O 	0.27	0.0176	0.8722	-0.611
Mof_O 	O 	0.1206	0.146	0.0759	-0.608
Mof_O 	O 	0.3411	0.1147	0.0942	-0.62
Mof_O 	O 	0.3641	0.3912	0.7363	-0.256
Mof_O 	O 	0.6354	0.4052	0.7788	-0.242
Mof_O 	O 	0.5719	0.7169	0.8012	-0.514
Mof_O 	O 	0.4542	0.4066	0.9347	-0.13
Mof_O 	O 	0.7858	0.8052	0.7896	-0.601
Mof_O 	O 	0.8636	0.4027	0.7248	-0.122
Mof_O 	O 	0.5009	0.3195	0.6681	-0.247
Mof_O 	O 	0.9105	0.139	0.2386	-0.581
Mof_O 	O 	0.6879	0.1105	0.2645	-0.614
Mof_O 	O 	0.1239	0.1217	0.5236	-0.13
Mof_O 	O 	0.8176	0.0747	0.4861	-0.225
Mof_O 	O 	0.8907	0.2363	0.5475	-0.247
Mof_O 	O 	0.6166	0.1435	0.5053	-0.255
Mof_O 	O 	0.9402	0.999	0.7893	-0.577
Mof_O 	O 	0.6843	0.9635	0.7707	-0.651
Mof_O 	O 	0.8701	0.2075	0.1268	-0.597
Mof_O 	O 	0.6917	0.2372	0.1749	-0.598
Mof_O 	O 	0.0867	0.6514	0.0829	-0.248
Mof_O 	O 	0.9136	0.6964	0.1443	-0.252
Mof_O 	O 	0.8084	0.6052	0.0317	-0.243
Mof_O 	O 	0.5031	0.9984	0.1377	-0.552
Mof_O 	O 	0.73	0.9824	0.1278	-0.611
Mof_O 	O 	0.8794	0.854	0.9241	-0.608
Mof_O 	O 	0.6589	0.8853	0.9058	-0.62
Mof_O 	O 	0.6359	0.6088	0.2637	-0.256
Mof_O 	O 	0.3646	0.5948	0.2212	-0.242
Mof_O 	O 	0.4281	0.2831	0.1988	-0.514
Mof_O 	O 	0.5458	0.5934	0.0653	-0.13
Mof_O 	O 	0.2142	0.1948	0.2104	-0.601
Mof_O 	O 	0.1364	0.5973	0.2752	-0.122
Mof_O 	O 	0.4991	0.6805	0.3319	-0.247
_end
