data_functionalizedCrystal
_audit_creation_method	'EQeq! by Chris Wilmer'
_symmetry_space_group_name_H-M	'P1'
_symmetry_Int_Tables_number	1
_symmetry_cell_setting	triclinic
loop_
_symmetry_equiv_pos_as_xyz
  x,y,z
_cell_length_a	14.2604
_cell_length_b	11.5999
_cell_length_c	18.3249
_cell_angle_alpha	90
_cell_angle_beta	90.324
_cell_angle_gamma	90
loop_
_atom_site_label
_atom_site_type_symbol
_atom_site_fract_x
_atom_site_fract_y
_atom_site_fract_z
_atom_site_charge
Mof_P 	P 	0.21613	0.59246	0.44011	1.739
Mof_P 	P 	0.0913	0.26125	0.42415	1.491
Mof_P 	P 	0.12106	0.4938	0.65668	1.579
Mof_Al	Al	0.22985	0.36237	0.531	6.274
Mof_Al	Al	0.12645	0.72171	0.56662	7.016
Mof_Al	Al	0.08417	0.53896	0.81835	6.882
Mof_F 	F 	0.21867	0.2051	0.55387	-1.986
Mof_O 	O 	0.2544	0.5071	0.49546	-1.72
Mof_O 	O 	0.1482	0.6157	0.6312	-2.085
Mof_O 	O 	0.1808	0.4044	0.61912	-1.549
Mof_O 	O 	0.1484	0.6766	0.47796	-2.118
Mof_O 	O 	0.1437	0.4852	0.7388	-1.737
Mof_O 	O 	0.2995	0.6641	0.4108	-1.968
Mof_O 	O 	0.1122	0.3457	0.4858	-1.617
Mof_O 	O 	0.9865	0.2254	0.4268	-2.056
Mof_O 	O 	0.3521	0.3506	0.57178	-1.37
Mof_O 	O 	0.1089	0.3188	0.34954	-1.788
Mof_O 	O 	0.1693	0.5381	0.37466	-1.755
Mof_O 	O 	0.0164	0.4716	0.6432	-1.735
Mof_P 	P 	0.71613	0.09246	0.44011	1.709
Mof_P 	P 	0.5913	0.76125	0.42415	1.399
Mof_P 	P 	0.62106	0.9938	0.65668	1.582
Mof_Al	Al	0.72985	0.86237	0.531	6.236
Mof_Al	Al	0.62645	0.22171	0.56662	6.954
Mof_Al	Al	0.58417	0.03896	0.81835	6.407
Mof_F 	F 	0.71867	0.7051	0.55387	-1.978
Mof_O 	O 	0.7544	0.0071	0.49546	-1.716
Mof_O 	O 	0.6482	0.1157	0.6312	-2.089
Mof_O 	O 	0.6808	0.9044	0.61912	-1.553
Mof_O 	O 	0.6484	0.1766	0.47796	-2.118
Mof_O 	O 	0.6437	0.9852	0.7388	-1.659
Mof_O 	O 	0.7995	0.1641	0.4108	-1.959
Mof_O 	O 	0.6122	0.8457	0.4858	-1.62
Mof_O 	O 	0.4865	0.7254	0.4268	-1.976
Mof_O 	O 	0.8521	0.8506	0.57178	-1.374
Mof_O 	O 	0.6089	0.8188	0.34954	-1.719
Mof_O 	O 	0.6693	0.0381	0.37466	-1.69
Mof_O 	O 	0.5164	0.9716	0.6432	-1.884
Mof_P 	P 	0.78387	0.59246	0.05989	1.681
Mof_P 	P 	0.9087	0.26125	0.07585	1.311
Mof_P 	P 	0.87894	0.4938	0.84332	1.57
Mof_Al	Al	0.77015	0.36237	0.969	6.179
Mof_Al	Al	0.87355	0.72171	0.93338	6.943
Mof_Al	Al	0.91583	0.53896	0.68165	6.004
Mof_F 	F 	0.78133	0.2051	0.94613	-2.004
Mof_O 	O 	0.7456	0.5071	0.00454	-1.687
Mof_O 	O 	0.8518	0.6157	0.8688	-2.091
Mof_O 	O 	0.8192	0.4044	0.88088	-1.549
Mof_O 	O 	0.8516	0.6766	0.02204	-2.138
Mof_O 	O 	0.8563	0.4852	0.7612	-1.608
Mof_O 	O 	0.7005	0.6641	0.0892	-1.947
Mof_O 	O 	0.8878	0.3457	0.0142	-1.614
Mof_O 	O 	0.0135	0.2254	0.0732	-1.896
Mof_O 	O 	0.6479	0.3506	0.92822	-1.355
Mof_O 	O 	0.8911	0.3188	0.15046	-1.65
Mof_O 	O 	0.8307	0.5381	0.12534	-1.623
Mof_O 	O 	0.9836	0.4716	0.8568	-2.043
Mof_P 	P 	0.28387	0.09246	0.05989	1.718
Mof_P 	P 	0.4087	0.76125	0.07585	1.397
Mof_P 	P 	0.37894	0.9938	0.84332	1.597
Mof_Al	Al	0.27015	0.86237	0.969	6.358
Mof_Al	Al	0.37355	0.22171	0.93338	6.939
Mof_Al	Al	0.41583	0.03896	0.68165	6.474
Mof_F 	F 	0.28133	0.7051	0.94613	-1.994
Mof_O 	O 	0.2456	0.0071	0.00454	-1.71
Mof_O 	O 	0.3518	0.1157	0.8688	-2.089
Mof_O 	O 	0.3192	0.9044	0.88088	-1.568
Mof_O 	O 	0.3516	0.1766	0.02204	-2.11
Mof_O 	O 	0.3563	0.9852	0.7612	-1.665
Mof_O 	O 	0.2005	0.1641	0.0892	-1.966
Mof_O 	O 	0.3878	0.8457	0.0142	-1.652
Mof_O 	O 	0.5135	0.7254	0.0732	-1.957
Mof_O 	O 	0.1479	0.8506	0.92822	-1.369
Mof_O 	O 	0.3911	0.8188	0.15046	-1.709
Mof_O 	O 	0.3307	0.0381	0.12534	-1.673
Mof_O 	O 	0.4836	0.9716	0.8568	-1.867
Mof_P 	P 	0.78387	0.40754	0.55989	1.684
Mof_P 	P 	0.9087	0.73875	0.57585	1.305
Mof_P 	P 	0.87894	0.5062	0.34332	1.572
Mof_Al	Al	0.77015	0.63763	0.469	6.227
Mof_Al	Al	0.87355	0.27829	0.43338	6.914
Mof_Al	Al	0.91583	0.46104	0.18165	6.02
Mof_F 	F 	0.78133	0.7949	0.44613	-1.991
Mof_O 	O 	0.7456	0.4929	0.50454	-1.699
Mof_O 	O 	0.8518	0.3843	0.3688	-2.086
Mof_O 	O 	0.8192	0.5956	0.38088	-1.556
Mof_O 	O 	0.8516	0.3234	0.52204	-2.128
Mof_O 	O 	0.8563	0.5148	0.2612	-1.611
Mof_O 	O 	0.7005	0.3359	0.5892	-1.957
Mof_O 	O 	0.8878	0.6543	0.5142	-1.627
Mof_O 	O 	0.0135	0.7746	0.5732	-1.89
Mof_O 	O 	0.6479	0.6494	0.42822	-1.362
Mof_O 	O 	0.8911	0.6812	0.65046	-1.647
Mof_O 	O 	0.8307	0.4619	0.62534	-1.621
Mof_O 	O 	0.9836	0.5284	0.3568	-2.039
Mof_P 	P 	0.28387	0.90754	0.55989	1.718
Mof_P 	P 	0.4087	0.23875	0.57585	1.401
Mof_P 	P 	0.37894	0.0062	0.34332	1.586
Mof_Al	Al	0.27015	0.13763	0.469	6.27
Mof_Al	Al	0.37355	0.77829	0.43338	6.989
Mof_Al	Al	0.41583	0.96104	0.18165	6.418
Mof_F 	F 	0.28133	0.2949	0.44613	-1.996
Mof_O 	O 	0.2456	0.9929	0.50454	-1.707
Mof_O 	O 	0.3518	0.8843	0.3688	-2.09
Mof_O 	O 	0.3192	0.0956	0.38088	-1.554
Mof_O 	O 	0.3516	0.8234	0.52204	-2.129
Mof_O 	O 	0.3563	0.0148	0.2612	-1.653
Mof_O 	O 	0.2005	0.8359	0.5892	-1.964
Mof_O 	O 	0.3878	0.1543	0.5142	-1.626
Mof_O 	O 	0.5135	0.2746	0.5732	-1.968
Mof_O 	O 	0.1479	0.1494	0.42822	-1.36
Mof_O 	O 	0.3911	0.1812	0.65046	-1.718
Mof_O 	O 	0.3307	0.9619	0.62534	-1.688
Mof_O 	O 	0.4836	0.0284	0.3568	-1.882
Mof_P 	P 	0.21613	0.40754	0.94011	1.736
Mof_P 	P 	0.0913	0.73875	0.92415	1.496
Mof_P 	P 	0.12106	0.5062	0.15668	1.579
Mof_Al	Al	0.22985	0.63763	0.031	6.217
Mof_Al	Al	0.12645	0.27829	0.06662	7.039
Mof_Al	Al	0.08417	0.46104	0.31835	6.876
Mof_F 	F 	0.21867	0.7949	0.05387	-1.999
Mof_O 	O 	0.2544	0.4929	0.99546	-1.705
Mof_O 	O 	0.1482	0.3843	0.1312	-2.089
Mof_O 	O 	0.1808	0.5956	0.11912	-1.54
Mof_O 	O 	0.1484	0.3234	0.97796	-2.126
Mof_O 	O 	0.1437	0.5148	0.2388	-1.736
Mof_O 	O 	0.2995	0.3359	0.9108	-1.959
Mof_O 	O 	0.1122	0.6543	0.9858	-1.602
Mof_O 	O 	0.9865	0.7746	0.9268	-2.061
Mof_O 	O 	0.3521	0.6494	0.07178	-1.362
Mof_O 	O 	0.1089	0.6812	0.84954	-1.79
Mof_O 	O 	0.1693	0.4619	0.87466	-1.755
Mof_O 	O 	0.0164	0.5284	0.1432	-1.741
Mof_P 	P 	0.71613	0.90754	0.94011	1.709
Mof_P 	P 	0.5913	0.23875	0.92415	1.396
Mof_P 	P 	0.62106	0.0062	0.15668	1.592
Mof_Al	Al	0.72985	0.13763	0.031	6.316
Mof_Al	Al	0.62645	0.77829	0.06662	6.899
Mof_Al	Al	0.58417	0.96104	0.31835	6.46
Mof_F 	F 	0.71867	0.2949	0.05387	-1.978
Mof_O 	O 	0.7544	0.9929	0.99546	-1.716
Mof_O 	O 	0.6482	0.8843	0.1312	-2.087
Mof_O 	O 	0.6808	0.0956	0.11912	-1.565
Mof_O 	O 	0.6484	0.8234	0.97796	-2.097
Mof_O 	O 	0.6437	0.0148	0.2388	-1.67
Mof_O 	O 	0.7995	0.8359	0.9108	-1.963
Mof_O 	O 	0.6122	0.1543	0.9858	-1.643
Mof_O 	O 	0.4865	0.2746	0.9268	-1.966
Mof_O 	O 	0.8521	0.1494	0.07178	-1.382
Mof_O 	O 	0.6089	0.1812	0.84954	-1.71
Mof_O 	O 	0.6693	0.9619	0.87466	-1.676
Mof_O 	O 	0.5164	0.0284	0.1432	-1.868
Mof_F 	F 	3.63397e-33	0.6093	0.75	-2.009
Mof_F 	F 	0.5	0.1093	0.75	-2.075
Mof_F 	F 	1.21132e-33	0.3907	0.25	-2.012
Mof_F 	F 	0.5	0.8907	0.25	-2.074
_end
