data_functionalizedCrystal
_audit_creation_method	'EQeq! by Chris Wilmer'
_symmetry_space_group_name_H-M	'P1'
_symmetry_Int_Tables_number	1
_symmetry_cell_setting	triclinic
loop_
_symmetry_equiv_pos_as_xyz
  x,y,z
_cell_length_a	16.023
_cell_length_b	10.062
_cell_length_c	18.486
_cell_angle_alpha	90
_cell_angle_beta	90
_cell_angle_gamma	90
loop_
_atom_site_label
_atom_site_type_symbol
_atom_site_fract_x
_atom_site_fract_y
_atom_site_fract_z
_atom_site_charge
Mof_Ga	Ga	0.46002	0.31747	0.21794	4.579
Mof_Ga	Ga	0.64939	0.1638	0.17667	4.443
Mof_Ga	Ga	0.48953	0.3463	0.40851	4.439
Mof_P 	P 	0.4881	0.1424	0.0773	1.107
Mof_P 	P 	0.558	0.1183	0.3164	1.045
Mof_P 	P 	0.3156	0.3496	0.3308	1.147
Mof_F 	F 	0.5805	0.3299	0.1912	-1.376
Mof_F 	F 	0.4973	0.4103	0.3049	-1.502
Mof_O 	O 	0.4344	0.2112	0.1341	-1.074
Mof_O 	O 	0.553	0.9734	0.3395	-1.055
Mof_O 	O 	0.3479	0.3119	0.256	-1.148
Mof_O 	O 	0.485	0.1542	0.2681	-1.205
Mof_O 	O 	0.5802	0.1312	0.0998	-1.338
Mof_O 	O 	0.6402	0.1423	0.2759	-1.2
Mof_O 	O 	0.291	0.4976	0.3335	-1.098
Mof_O 	O 	0.2374	0.2689	0.3489	-1.159
Mof_O 	O 	0.5579	0.2023	0.3864	-1.117
Mof_O 	O 	0.3788	0.3157	0.3913	-1.239
Mof_O 	O 	0.4802	0.2181	0.0063	-1.049
Mof_O 	O 	0.4542	0.0004	0.0678	-1.21
Mof_Ga	Ga	0.03998	0.68253	0.71794	4.573
Mof_Ga	Ga	0.85061	0.8362	0.67667	4.469
Mof_Ga	Ga	0.01047	0.6537	0.90851	4.373
Mof_P 	P 	0.0119	0.8576	0.5773	1.104
Mof_P 	P 	0.942	0.8817	0.8164	1.062
Mof_P 	P 	0.1844	0.6504	0.8308	1.143
Mof_F 	F 	0.9195	0.6701	0.6912	-1.374
Mof_F 	F 	0.0027	0.5897	0.8049	-1.497
Mof_O 	O 	0.0656	0.7888	0.6341	-1.074
Mof_O 	O 	0.947	0.0266	0.8395	-1.062
Mof_O 	O 	0.1521	0.6881	0.756	-1.147
Mof_O 	O 	0.015	0.8458	0.7681	-1.215
Mof_O 	O 	0.9198	0.8688	0.5998	-1.333
Mof_O 	O 	0.8598	0.8577	0.7759	-1.203
Mof_O 	O 	0.209	0.5024	0.8335	-1.098
Mof_O 	O 	0.2626	0.7311	0.8489	-1.157
Mof_O 	O 	0.9421	0.7977	0.8864	-1.098
Mof_O 	O 	0.1212	0.6843	0.8913	-1.231
Mof_O 	O 	0.0198	0.7819	0.5063	-1.049
Mof_O 	O 	0.0458	0.9996	0.5678	-1.217
Mof_Ga	Ga	0.53998	0.81747	0.28206	4.579
Mof_Ga	Ga	0.35061	0.6638	0.32333	4.453
Mof_Ga	Ga	0.51047	0.8463	0.09149	4.434
Mof_P 	P 	0.5119	0.6424	0.4227	1.108
Mof_P 	P 	0.442	0.6183	0.1836	1.046
Mof_P 	P 	0.6844	0.8496	0.1692	1.146
Mof_F 	F 	0.4195	0.8299	0.3088	-1.378
Mof_F 	F 	0.5027	0.9103	0.1951	-1.502
Mof_O 	O 	0.5656	0.7112	0.3659	-1.074
Mof_O 	O 	0.447	0.4734	0.1605	-1.054
Mof_O 	O 	0.6521	0.8119	0.244	-1.147
Mof_O 	O 	0.515	0.6542	0.2319	-1.205
Mof_O 	O 	0.4198	0.6312	0.4002	-1.338
Mof_O 	O 	0.3598	0.6423	0.2241	-1.201
Mof_O 	O 	0.709	0.9976	0.1665	-1.097
Mof_O 	O 	0.7626	0.7689	0.1511	-1.157
Mof_O 	O 	0.4421	0.7023	0.1136	-1.116
Mof_O 	O 	0.6212	0.8157	0.1087	-1.239
Mof_O 	O 	0.5198	0.7181	0.4937	-1.05
Mof_O 	O 	0.5458	0.5004	0.4322	-1.211
Mof_Ga	Ga	0.96002	0.18253	0.78206	4.587
Mof_Ga	Ga	0.14939	0.3362	0.82333	4.451
Mof_Ga	Ga	0.98953	0.1537	0.59149	4.446
Mof_P 	P 	0.9881	0.3576	0.9227	1.113
Mof_P 	P 	0.058	0.3817	0.6836	1.045
Mof_P 	P 	0.8156	0.1504	0.6692	1.147
Mof_F 	F 	0.0805	0.1701	0.8088	-1.378
Mof_F 	F 	0.9973	0.0897	0.6951	-1.503
Mof_O 	O 	0.9344	0.2888	0.8659	-1.074
Mof_O 	O 	0.053	0.5266	0.6605	-1.053
Mof_O 	O 	0.8479	0.1881	0.744	-1.15
Mof_O 	O 	0.985	0.3458	0.7319	-1.201
Mof_O 	O 	0.0802	0.3688	0.9002	-1.342
Mof_O 	O 	0.1402	0.3577	0.7241	-1.2
Mof_O 	O 	0.791	0.0024	0.6665	-1.106
Mof_O 	O 	0.7374	0.2311	0.6511	-1.158
Mof_O 	O 	0.0579	0.2977	0.6136	-1.114
Mof_O 	O 	0.8788	0.1843	0.6087	-1.241
Mof_O 	O 	0.9802	0.2819	0.9937	-1.034
Mof_O 	O 	0.9542	0.4996	0.9322	-1.191
Mof_Ga	Ga	0.53998	0.68253	0.78206	4.579
Mof_Ga	Ga	0.35061	0.8362	0.82333	4.443
Mof_Ga	Ga	0.51047	0.6537	0.59149	4.439
Mof_P 	P 	0.5119	0.8576	0.9227	1.107
Mof_P 	P 	0.442	0.8817	0.6836	1.045
Mof_P 	P 	0.6844	0.6504	0.6692	1.147
Mof_F 	F 	0.4195	0.6701	0.8088	-1.376
Mof_F 	F 	0.5027	0.5897	0.6951	-1.502
Mof_O 	O 	0.5656	0.7888	0.8659	-1.074
Mof_O 	O 	0.447	0.0266	0.6605	-1.055
Mof_O 	O 	0.6521	0.6881	0.744	-1.148
Mof_O 	O 	0.515	0.8458	0.7319	-1.205
Mof_O 	O 	0.4198	0.8688	0.9002	-1.338
Mof_O 	O 	0.3598	0.8577	0.7241	-1.2
Mof_O 	O 	0.709	0.5024	0.6665	-1.098
Mof_O 	O 	0.7626	0.7311	0.6511	-1.159
Mof_O 	O 	0.4421	0.7977	0.6136	-1.117
Mof_O 	O 	0.6212	0.6843	0.6087	-1.239
Mof_O 	O 	0.5198	0.7819	0.9937	-1.049
Mof_O 	O 	0.5458	0.9996	0.9322	-1.21
Mof_Ga	Ga	0.96002	0.31747	0.28206	4.573
Mof_Ga	Ga	0.14939	0.1638	0.32333	4.469
Mof_Ga	Ga	0.98953	0.3463	0.09149	4.373
Mof_P 	P 	0.9881	0.1424	0.4227	1.104
Mof_P 	P 	0.058	0.1183	0.1836	1.062
Mof_P 	P 	0.8156	0.3496	0.1692	1.143
Mof_F 	F 	0.0805	0.3299	0.3088	-1.374
Mof_F 	F 	0.9973	0.4103	0.1951	-1.497
Mof_O 	O 	0.9344	0.2112	0.3659	-1.074
Mof_O 	O 	0.053	0.9734	0.1605	-1.062
Mof_O 	O 	0.8479	0.3119	0.244	-1.147
Mof_O 	O 	0.985	0.1542	0.2319	-1.215
Mof_O 	O 	0.0802	0.1312	0.4002	-1.333
Mof_O 	O 	0.1402	0.1423	0.2241	-1.203
Mof_O 	O 	0.791	0.4976	0.1665	-1.098
Mof_O 	O 	0.7374	0.2689	0.1511	-1.157
Mof_O 	O 	0.0579	0.2023	0.1136	-1.098
Mof_O 	O 	0.8788	0.3157	0.1087	-1.231
Mof_O 	O 	0.9802	0.2181	0.4937	-1.049
Mof_O 	O 	0.9542	0.0004	0.4322	-1.217
Mof_Ga	Ga	0.46002	0.18253	0.71794	4.579
Mof_Ga	Ga	0.64939	0.3362	0.67667	4.453
Mof_Ga	Ga	0.48953	0.1537	0.90851	4.434
Mof_P 	P 	0.4881	0.3576	0.5773	1.108
Mof_P 	P 	0.558	0.3817	0.8164	1.046
Mof_P 	P 	0.3156	0.1504	0.8308	1.146
Mof_F 	F 	0.5805	0.1701	0.6912	-1.378
Mof_F 	F 	0.4973	0.0897	0.8049	-1.502
Mof_O 	O 	0.4344	0.2888	0.6341	-1.074
Mof_O 	O 	0.553	0.5266	0.8395	-1.054
Mof_O 	O 	0.3479	0.1881	0.756	-1.147
Mof_O 	O 	0.485	0.3458	0.7681	-1.205
Mof_O 	O 	0.5802	0.3688	0.5998	-1.338
Mof_O 	O 	0.6402	0.3577	0.7759	-1.201
Mof_O 	O 	0.291	0.0024	0.8335	-1.097
Mof_O 	O 	0.2374	0.2311	0.8489	-1.157
Mof_O 	O 	0.5579	0.2977	0.8864	-1.116
Mof_O 	O 	0.3788	0.1843	0.8913	-1.239
Mof_O 	O 	0.4802	0.2819	0.5063	-1.05
Mof_O 	O 	0.4542	0.4996	0.5678	-1.211
Mof_Ga	Ga	0.03998	0.81747	0.21794	4.587
Mof_Ga	Ga	0.85061	0.6638	0.17667	4.451
Mof_Ga	Ga	0.01047	0.8463	0.40851	4.446
Mof_P 	P 	0.0119	0.6424	0.0773	1.113
Mof_P 	P 	0.942	0.6183	0.3164	1.045
Mof_P 	P 	0.1844	0.8496	0.3308	1.147
Mof_F 	F 	0.9195	0.8299	0.1912	-1.378
Mof_F 	F 	0.0027	0.9103	0.3049	-1.503
Mof_O 	O 	0.0656	0.7112	0.1341	-1.074
Mof_O 	O 	0.947	0.4734	0.3395	-1.053
Mof_O 	O 	0.1521	0.8119	0.256	-1.15
Mof_O 	O 	0.015	0.6542	0.2681	-1.201
Mof_O 	O 	0.9198	0.6312	0.0998	-1.342
Mof_O 	O 	0.8598	0.6423	0.2759	-1.2
Mof_O 	O 	0.209	0.9976	0.3335	-1.106
Mof_O 	O 	0.2626	0.7689	0.3489	-1.158
Mof_O 	O 	0.9421	0.7023	0.3864	-1.114
Mof_O 	O 	0.1212	0.8157	0.3913	-1.241
Mof_O 	O 	0.0198	0.7181	0.0063	-1.034
Mof_O 	O 	0.0458	0.5004	0.0678	-1.191
_end
