data_functionalizedCrystal
_audit_creation_method	'EQeq! by Chris Wilmer'
_symmetry_space_group_name_H-M	'P1'
_symmetry_Int_Tables_number	1
_symmetry_cell_setting	triclinic
loop_
_symmetry_equiv_pos_as_xyz
  x,y,z
_cell_length_a	29.324
_cell_length_b	21.2972
_cell_length_c	18.0688
_cell_angle_alpha	90
_cell_angle_beta	107.49
_cell_angle_gamma	90
loop_
_atom_site_label
_atom_site_type_symbol
_atom_site_fract_x
_atom_site_fract_y
_atom_site_fract_z
_atom_site_charge
Mof_Cu	Cu	0.73173	0.20163	0.9553	0.94
Mof_Cu	Cu	0.75297	0.19161	0.52494	0.914
Mof_Cu	Cu	0.46664	0.5139	0.93567	0.916
Mof_Br	Br	0.88256	0.37632	0.66301	-0.246
Mof_Br	Br	0.8988	0.3653	0.9686	-0.25
Mof_Br	Br	0.8542	0.2063	0.2765	-0.093
Mof_Br	Br	0.677	0.3414	0.7464	-0.177
Mof_Br	Br	0.45987	0.278	0.5101	-0.234
Mof_Br	Br	0.8995	0.3779	0.494	-0.328
Mof_O 	O 	0.7713	0.2347	0.894	-0.411
Mof_O 	O 	0.8035	0.3156	0.9695	-0.392
Mof_O 	O 	0.7823	0.2324	0.6266	-0.436
Mof_O 	O 	0.5104	0.4832	0.8825	-0.41
Mof_O 	O 	0.779	0.3292	0.5845	-0.417
Mof_O 	O 	0.5674	0.4596	0.9915	-0.412
Mof_O 	O 	0.6827	0.2597	0.9006	-0.372
Mof_O 	O 	0.7119	0.3412	0.977	-0.395
Mof_O 	O 	0.6892	0.2037	0.5347	-0.391
Mof_O 	O 	0.6843	0.3024	0.4935	-0.421
Mof_O 	O 	0.4959	0.4031	0.4498	-0.395
Mof_O 	O 	0.5527	0.4285	0.5598	-0.413
Mof_C 	C 	0.8206	0.3055	0.8531	-0.266
Mof_C 	C 	0.7982	0.2842	0.7728	0.214
Mof_H 	H 	0.7728	0.2545	0.7613	0.006
Mof_C 	C 	0.814	0.3072	0.7167	-0.285
Mof_C 	C 	0.8508	0.3457	0.7328	0.295
Mof_C 	C 	0.8763	0.367	0.8148	-0.446
Mof_H 	H 	0.9103	0.3547	0.8281	0.195
Mof_H 	H 	0.8749	0.4134	0.8171	0.177
Mof_C 	C 	0.8559	0.3407	0.8717	0.329
Mof_C 	C 	0.796	0.2826	0.912	0.449
Mof_C 	C 	0.7894	0.2885	0.6357	0.485
Mof_C 	C 	0.5781	0.4274	0.8756	-0.11
Mof_C 	C 	0.6168	0.3898	0.9137	0.085
Mof_H 	H 	0.6265	0.3889	0.9688	0.045
Mof_C 	C 	0.6424	0.3531	0.8752	-0.161
Mof_C 	C 	0.8784	0.1528	0.215	0.006
Mof_C 	C 	0.6393	0.3768	0.8029	0.17
Mof_C 	C 	0.9229	0.1161	0.247	0.121
Mof_C 	C 	0.5981	0.4123	0.7601	-0.134
Mof_C 	C 	0.568	0.4402	0.7969	0.025
Mof_H 	H 	0.5446	0.4736	0.771	0.05
Mof_C 	C 	0.5492	0.4587	0.9213	0.392
Mof_C 	C 	0.6817	0.317	0.9191	0.402
Mof_C 	C 	0.6194	0.2593	0.5179	-0.268
Mof_C 	C 	0.5963	0.3189	0.5108	0.199
Mof_H 	H 	0.614	0.3552	0.5058	0.003
Mof_C 	C 	0.5502	0.3262	0.5107	-0.238
Mof_C 	C 	0.5234	0.273	0.5094	0.277
Mof_C 	C 	0.5452	0.2131	0.516	-0.305
Mof_H 	H 	0.5272	0.1766	0.5186	0.177
Mof_C 	C 	0.5906	0.2079	0.517	0.317
Mof_C 	C 	0.6659	0.2554	0.5146	0.456
Mof_C 	C 	0.5315	0.3897	0.5081	0.423
Mof_O 	O 	0.6953	0.1355	0.8744	-0.18
Mof_N 	N 	0.6504	0.1099	0.7339	-0.035
Mof_C 	C 	0.6807	0.1389	0.8022	0.136
Mof_H 	H 	0.6953	0.1743	0.7868	0.033
Mof_C 	C 	0.602	0.087	0.719	-0.298
Mof_H 	H 	0.5903	0.07	0.6662	0.131
Mof_H 	H 	0.5809	0.1219	0.7241	0.143
Mof_H 	H 	0.601	0.0542	0.7564	0.141
Mof_C 	C 	0.661	0.082	0.669	-0.336
Mof_H 	H 	0.6932	0.095	0.6686	0.148
Mof_H 	H 	0.6377	0.096	0.6205	0.175
Mof_H 	H 	0.66	0.0362	0.6725	0.141
Mof_O 	O 	0.7307	0.1072	0.9072	-0.197
Mof_N 	N 	0.7707	0.0128	0.892	-0.174
Mof_C 	C 	0.767	0.0746	0.922	0.197
Mof_C 	C 	0.7264	0.9834	0.846	0.062
Mof_C 	C 	0.8153	0.979	0.922	-0.067
Mof_C 	C 	0.7925	0.9736	0.879	0.177
Mof_C 	C 	0.987	0.575	0.488	0.033
Mof_C 	C 	0.933	0.447	0.536	0.128
Mof_C 	C 	0.977	0.484	0.517	-0.019
Mof_Cu	Cu	0.23173	0.70163	0.9553	0.94
Mof_Cu	Cu	0.25297	0.69161	0.52494	0.913
Mof_Cu	Cu	0.96664	0.0139	0.93567	0.914
Mof_Br	Br	0.38256	0.87632	0.66301	-0.246
Mof_Br	Br	0.3988	0.8653	0.9686	-0.249
Mof_Br	Br	0.3542	0.7063	0.2765	-0.094
Mof_Br	Br	0.177	0.8414	0.7464	-0.178
Mof_Br	Br	0.95987	0.778	0.5101	-0.235
Mof_Br	Br	0.3995	0.8779	0.494	-0.328
Mof_O 	O 	0.2713	0.7347	0.894	-0.41
Mof_O 	O 	0.3035	0.8156	0.9695	-0.39
Mof_O 	O 	0.2823	0.7324	0.6266	-0.436
Mof_O 	O 	0.0104	0.9832	0.8825	-0.409
Mof_O 	O 	0.279	0.8292	0.5845	-0.417
Mof_O 	O 	0.0674	0.9596	0.9915	-0.41
Mof_O 	O 	0.1827	0.7597	0.9006	-0.371
Mof_O 	O 	0.2119	0.8412	0.977	-0.393
Mof_O 	O 	0.1892	0.7037	0.5347	-0.391
Mof_O 	O 	0.1843	0.8024	0.4935	-0.421
Mof_O 	O 	0.9959	0.9031	0.4498	-0.395
Mof_O 	O 	0.0527	0.9285	0.5598	-0.413
Mof_C 	C 	0.3206	0.8055	0.8531	-0.266
Mof_C 	C 	0.2982	0.7842	0.7728	0.214
Mof_H 	H 	0.2728	0.7545	0.7613	0.006
Mof_C 	C 	0.314	0.8072	0.7167	-0.285
Mof_C 	C 	0.3508	0.8457	0.7328	0.296
Mof_C 	C 	0.3763	0.867	0.8148	-0.447
Mof_H 	H 	0.4103	0.8547	0.8281	0.195
Mof_H 	H 	0.3749	0.9134	0.8171	0.178
Mof_C 	C 	0.3559	0.8407	0.8717	0.329
Mof_C 	C 	0.296	0.7826	0.912	0.449
Mof_C 	C 	0.2894	0.7885	0.6357	0.485
Mof_C 	C 	0.0781	0.9274	0.8756	-0.109
Mof_C 	C 	0.1168	0.8898	0.9137	0.085
Mof_H 	H 	0.1265	0.8889	0.9688	0.046
Mof_C 	C 	0.1424	0.8531	0.8752	-0.16
Mof_C 	C 	0.3784	0.6528	0.215	0.005
Mof_C 	C 	0.1393	0.8768	0.8029	0.169
Mof_C 	C 	0.4229	0.6161	0.247	0.122
Mof_C 	C 	0.0981	0.9123	0.7601	-0.133
Mof_C 	C 	0.068	0.9402	0.7969	0.024
Mof_H 	H 	0.0446	0.9736	0.771	0.051
Mof_C 	C 	0.0492	0.9587	0.9213	0.392
Mof_C 	C 	0.1817	0.817	0.9191	0.401
Mof_C 	C 	0.1194	0.7593	0.5179	-0.268
Mof_C 	C 	0.0963	0.8189	0.5108	0.199
Mof_H 	H 	0.114	0.8552	0.5058	0.003
Mof_C 	C 	0.0502	0.8262	0.5107	-0.238
Mof_C 	C 	0.0234	0.773	0.5094	0.277
Mof_C 	C 	0.0452	0.7131	0.516	-0.305
Mof_H 	H 	0.0272	0.6766	0.5186	0.177
Mof_C 	C 	0.0906	0.7079	0.517	0.317
Mof_C 	C 	0.1659	0.7554	0.5146	0.456
Mof_C 	C 	0.0315	0.8897	0.5081	0.423
Mof_O 	O 	0.1953	0.6355	0.8744	-0.179
Mof_N 	N 	0.1504	0.6099	0.7339	-0.035
Mof_C 	C 	0.1807	0.6389	0.8022	0.137
Mof_H 	H 	0.1953	0.6743	0.7868	0.033
Mof_C 	C 	0.102	0.587	0.719	-0.299
Mof_H 	H 	0.0903	0.57	0.6662	0.131
Mof_H 	H 	0.0809	0.6219	0.7241	0.143
Mof_H 	H 	0.101	0.5542	0.7564	0.142
Mof_C 	C 	0.161	0.582	0.669	-0.336
Mof_H 	H 	0.1932	0.595	0.6686	0.148
Mof_H 	H 	0.1377	0.596	0.6205	0.175
Mof_H 	H 	0.16	0.5362	0.6725	0.141
Mof_O 	O 	0.2307	0.6072	0.9072	-0.196
Mof_N 	N 	0.2707	0.5128	0.892	-0.173
Mof_C 	C 	0.267	0.5746	0.922	0.198
Mof_C 	C 	0.2264	0.4834	0.846	0.061
Mof_C 	C 	0.3153	0.479	0.922	-0.067
Mof_C 	C 	0.2925	0.4736	0.879	0.175
Mof_C 	C 	0.487	0.075	0.488	0.033
Mof_C 	C 	0.433	0.947	0.536	0.128
Mof_C 	C 	0.477	0.984	0.517	-0.019
Mof_Cu	Cu	0.26827	0.20163	0.5447	0.94
Mof_Cu	Cu	0.24703	0.19161	0.97506	0.912
Mof_Cu	Cu	0.53336	0.5139	0.56433	0.915
Mof_Br	Br	0.11744	0.37632	0.83699	-0.246
Mof_Br	Br	0.1012	0.3653	0.5314	-0.25
Mof_Br	Br	0.1458	0.2063	0.2235	-0.095
Mof_Br	Br	0.323	0.3414	0.7536	-0.178
Mof_Br	Br	0.54013	0.278	0.9899	-0.236
Mof_Br	Br	0.1005	0.3779	0.006	-0.328
Mof_O 	O 	0.2287	0.2347	0.606	-0.411
Mof_O 	O 	0.1965	0.3156	0.5305	-0.391
Mof_O 	O 	0.2177	0.2324	0.8734	-0.436
Mof_O 	O 	0.4896	0.4832	0.6175	-0.41
Mof_O 	O 	0.221	0.3292	0.9155	-0.417
Mof_O 	O 	0.4326	0.4596	0.5085	-0.412
Mof_O 	O 	0.3173	0.2597	0.5994	-0.371
Mof_O 	O 	0.2881	0.3412	0.523	-0.394
Mof_O 	O 	0.3108	0.2037	0.9653	-0.391
Mof_O 	O 	0.3157	0.3024	0.0065	-0.42
Mof_O 	O 	0.5041	0.4031	0.0502	-0.395
Mof_O 	O 	0.4473	0.4285	0.9402	-0.413
Mof_C 	C 	0.1794	0.3055	0.6469	-0.266
Mof_C 	C 	0.2018	0.2842	0.7272	0.214
Mof_H 	H 	0.2272	0.2545	0.7387	0.006
Mof_C 	C 	0.186	0.3072	0.7833	-0.285
Mof_C 	C 	0.1492	0.3457	0.7672	0.295
Mof_C 	C 	0.1237	0.367	0.6852	-0.446
Mof_H 	H 	0.0897	0.3547	0.6719	0.195
Mof_H 	H 	0.1251	0.4134	0.6829	0.177
Mof_C 	C 	0.1441	0.3407	0.6283	0.329
Mof_C 	C 	0.204	0.2826	0.588	0.449
Mof_C 	C 	0.2106	0.2885	0.8643	0.485
Mof_C 	C 	0.4219	0.4274	0.6244	-0.11
Mof_C 	C 	0.3832	0.3898	0.5863	0.085
Mof_H 	H 	0.3735	0.3889	0.5312	0.045
Mof_C 	C 	0.3576	0.3531	0.6248	-0.161
Mof_C 	C 	0.1216	0.1528	0.285	0.007
Mof_C 	C 	0.3607	0.3768	0.6971	0.169
Mof_C 	C 	0.0771	0.1161	0.253	0.12
Mof_C 	C 	0.4019	0.4123	0.7399	-0.134
Mof_C 	C 	0.432	0.4402	0.7031	0.025
Mof_H 	H 	0.4554	0.4736	0.729	0.05
Mof_C 	C 	0.4508	0.4587	0.5787	0.392
Mof_C 	C 	0.3183	0.317	0.5809	0.402
Mof_C 	C 	0.3806	0.2593	0.9821	-0.268
Mof_C 	C 	0.4037	0.3189	0.9892	0.199
Mof_H 	H 	0.386	0.3552	0.9942	0.003
Mof_C 	C 	0.4498	0.3262	0.9893	-0.238
Mof_C 	C 	0.4766	0.273	0.9906	0.277
Mof_C 	C 	0.4548	0.2131	0.984	-0.305
Mof_H 	H 	0.4728	0.1766	0.9814	0.176
Mof_C 	C 	0.4094	0.2079	0.983	0.317
Mof_C 	C 	0.3341	0.2554	0.9854	0.456
Mof_C 	C 	0.4685	0.3897	0.9919	0.423
Mof_O 	O 	0.3047	0.1355	0.6256	-0.179
Mof_N 	N 	0.3496	0.1099	0.7661	-0.035
Mof_C 	C 	0.3193	0.1389	0.6978	0.137
Mof_H 	H 	0.3047	0.1743	0.7132	0.033
Mof_C 	C 	0.398	0.087	0.781	-0.298
Mof_H 	H 	0.4097	0.07	0.8338	0.13
Mof_H 	H 	0.4191	0.1219	0.7759	0.143
Mof_H 	H 	0.399	0.0542	0.7436	0.141
Mof_C 	C 	0.339	0.082	0.831	-0.335
Mof_H 	H 	0.3068	0.095	0.8314	0.148
Mof_H 	H 	0.3623	0.096	0.8795	0.175
Mof_H 	H 	0.34	0.0362	0.8275	0.141
Mof_O 	O 	0.2693	0.1072	0.5928	-0.197
Mof_N 	N 	0.2293	0.0128	0.608	-0.173
Mof_C 	C 	0.233	0.0746	0.578	0.198
Mof_C 	C 	0.2736	0.9834	0.654	0.061
Mof_C 	C 	0.1847	0.979	0.578	-0.067
Mof_C 	C 	0.2075	0.9736	0.621	0.176
Mof_C 	C 	0.013	0.575	0.012	0.031
Mof_C 	C 	0.067	0.447	0.964	0.128
Mof_C 	C 	0.023	0.484	0.983	-0.018
Mof_Cu	Cu	0.76827	0.70163	0.5447	0.94
Mof_Cu	Cu	0.74703	0.69161	0.97506	0.913
Mof_Cu	Cu	0.03336	0.0139	0.56433	0.915
Mof_Br	Br	0.61744	0.87632	0.83699	-0.246
Mof_Br	Br	0.6012	0.8653	0.5314	-0.25
Mof_Br	Br	0.6458	0.7063	0.2235	-0.094
Mof_Br	Br	0.823	0.8414	0.7536	-0.178
Mof_Br	Br	0.04013	0.778	0.9899	-0.233
Mof_Br	Br	0.6005	0.8779	0.006	-0.33
Mof_O 	O 	0.7287	0.7347	0.606	-0.411
Mof_O 	O 	0.6965	0.8156	0.5305	-0.391
Mof_O 	O 	0.7177	0.7324	0.8734	-0.436
Mof_O 	O 	0.9896	0.9832	0.6175	-0.41
Mof_O 	O 	0.721	0.8292	0.9155	-0.416
Mof_O 	O 	0.9326	0.9596	0.5085	-0.412
Mof_O 	O 	0.8173	0.7597	0.5994	-0.371
Mof_O 	O 	0.7881	0.8412	0.523	-0.394
Mof_O 	O 	0.8108	0.7037	0.9653	-0.392
Mof_O 	O 	0.8157	0.8024	0.0065	-0.422
Mof_O 	O 	0.0041	0.9031	0.0502	-0.398
Mof_O 	O 	0.9473	0.9285	0.9402	-0.413
Mof_C 	C 	0.6794	0.8055	0.6469	-0.266
Mof_C 	C 	0.7018	0.7842	0.7272	0.214
Mof_H 	H 	0.7272	0.7545	0.7387	0.006
Mof_C 	C 	0.686	0.8072	0.7833	-0.285
Mof_C 	C 	0.6492	0.8457	0.7672	0.295
Mof_C 	C 	0.6237	0.867	0.6852	-0.446
Mof_H 	H 	0.5897	0.8547	0.6719	0.195
Mof_H 	H 	0.6251	0.9134	0.6829	0.178
Mof_C 	C 	0.6441	0.8407	0.6283	0.329
Mof_C 	C 	0.704	0.7826	0.588	0.449
Mof_C 	C 	0.7106	0.7885	0.8643	0.485
Mof_C 	C 	0.9219	0.9274	0.6244	-0.109
Mof_C 	C 	0.8832	0.8898	0.5863	0.085
Mof_H 	H 	0.8735	0.8889	0.5312	0.045
Mof_C 	C 	0.8576	0.8531	0.6248	-0.161
Mof_C 	C 	0.6216	0.6528	0.285	0.006
Mof_C 	C 	0.8607	0.8768	0.6971	0.167
Mof_C 	C 	0.5771	0.6161	0.253	0.122
Mof_C 	C 	0.9019	0.9123	0.7399	-0.132
Mof_C 	C 	0.932	0.9402	0.7031	0.024
Mof_H 	H 	0.9554	0.9736	0.729	0.05
Mof_C 	C 	0.9508	0.9587	0.5787	0.392
Mof_C 	C 	0.8183	0.817	0.5809	0.401
Mof_C 	C 	0.8806	0.7593	0.9821	-0.268
Mof_C 	C 	0.9037	0.8189	0.9892	0.2
Mof_H 	H 	0.886	0.8552	0.9942	0.003
Mof_C 	C 	0.9498	0.8262	0.9893	-0.239
Mof_C 	C 	0.9766	0.773	0.9906	0.276
Mof_C 	C 	0.9548	0.7131	0.984	-0.305
Mof_H 	H 	0.9728	0.6766	0.9814	0.177
Mof_C 	C 	0.9094	0.7079	0.983	0.317
Mof_C 	C 	0.8341	0.7554	0.9854	0.457
Mof_C 	C 	0.9685	0.8897	0.9919	0.425
Mof_O 	O 	0.8047	0.6355	0.6256	-0.179
Mof_N 	N 	0.8496	0.6099	0.7661	-0.035
Mof_C 	C 	0.8193	0.6389	0.6978	0.137
Mof_H 	H 	0.8047	0.6743	0.7132	0.033
Mof_C 	C 	0.898	0.587	0.781	-0.299
Mof_H 	H 	0.9097	0.57	0.8338	0.131
Mof_H 	H 	0.9191	0.6219	0.7759	0.143
Mof_H 	H 	0.899	0.5542	0.7436	0.141
Mof_C 	C 	0.839	0.582	0.831	-0.336
Mof_H 	H 	0.8068	0.595	0.8314	0.148
Mof_H 	H 	0.8623	0.596	0.8795	0.175
Mof_H 	H 	0.84	0.5362	0.8275	0.141
Mof_O 	O 	0.7693	0.6072	0.5928	-0.197
Mof_N 	N 	0.7293	0.5128	0.608	-0.173
Mof_C 	C 	0.733	0.5746	0.578	0.198
Mof_C 	C 	0.7736	0.4834	0.654	0.06
Mof_C 	C 	0.6847	0.479	0.578	-0.067
Mof_C 	C 	0.7075	0.4736	0.621	0.175
Mof_C 	C 	0.513	0.075	0.012	0.033
Mof_C 	C 	0.567	0.947	0.964	0.129
Mof_C 	C 	0.523	0.984	0.983	-0.019
Mof_Cu	Cu	0.26827	0.79837	0.0447	0.939
Mof_Cu	Cu	0.24703	0.80839	0.47506	0.913
Mof_Cu	Cu	0.53336	0.4861	0.06433	0.915
Mof_Br	Br	0.11744	0.62368	0.33699	-0.247
Mof_Br	Br	0.1012	0.6347	0.0314	-0.251
Mof_Br	Br	0.1458	0.7937	0.7235	-0.094
Mof_Br	Br	0.323	0.6586	0.2536	-0.178
Mof_Br	Br	0.54013	0.722	0.4899	-0.235
Mof_Br	Br	0.1005	0.6221	0.506	-0.328
Mof_O 	O 	0.2287	0.7653	0.106	-0.411
Mof_O 	O 	0.1965	0.6844	0.0305	-0.392
Mof_O 	O 	0.2177	0.7676	0.3734	-0.436
Mof_O 	O 	0.4896	0.5168	0.1175	-0.41
Mof_O 	O 	0.221	0.6708	0.4155	-0.417
Mof_O 	O 	0.4326	0.5404	0.0085	-0.412
Mof_O 	O 	0.3173	0.7403	0.0994	-0.372
Mof_O 	O 	0.2881	0.6588	0.023	-0.395
Mof_O 	O 	0.3108	0.7963	0.4653	-0.391
Mof_O 	O 	0.3157	0.6976	0.5065	-0.421
Mof_O 	O 	0.5041	0.5969	0.5502	-0.395
Mof_O 	O 	0.4473	0.5715	0.4402	-0.413
Mof_C 	C 	0.1794	0.6945	0.1469	-0.266
Mof_C 	C 	0.2018	0.7158	0.2272	0.214
Mof_H 	H 	0.2272	0.7455	0.2387	0.006
Mof_C 	C 	0.186	0.6928	0.2833	-0.285
Mof_C 	C 	0.1492	0.6543	0.2672	0.295
Mof_C 	C 	0.1237	0.633	0.1852	-0.446
Mof_H 	H 	0.0897	0.6453	0.1719	0.195
Mof_H 	H 	0.1251	0.5866	0.1829	0.177
Mof_C 	C 	0.1441	0.6593	0.1283	0.329
Mof_C 	C 	0.204	0.7174	0.088	0.449
Mof_C 	C 	0.2106	0.7115	0.3643	0.485
Mof_C 	C 	0.4219	0.5726	0.1244	-0.11
Mof_C 	C 	0.3832	0.6102	0.0863	0.085
Mof_H 	H 	0.3735	0.6111	0.0312	0.045
Mof_C 	C 	0.3576	0.6469	0.1248	-0.161
Mof_C 	C 	0.1216	0.8472	0.785	0.006
Mof_C 	C 	0.3607	0.6232	0.1971	0.17
Mof_C 	C 	0.0771	0.8839	0.753	0.121
Mof_C 	C 	0.4019	0.5877	0.2399	-0.134
Mof_C 	C 	0.432	0.5598	0.2031	0.025
Mof_H 	H 	0.4554	0.5264	0.229	0.05
Mof_C 	C 	0.4508	0.5413	0.0787	0.392
Mof_C 	C 	0.3183	0.683	0.0809	0.402
Mof_C 	C 	0.3806	0.7407	0.4821	-0.268
Mof_C 	C 	0.4037	0.6811	0.4892	0.199
Mof_H 	H 	0.386	0.6448	0.4942	0.003
Mof_C 	C 	0.4498	0.6738	0.4893	-0.238
Mof_C 	C 	0.4766	0.727	0.4906	0.277
Mof_C 	C 	0.4548	0.7869	0.484	-0.305
Mof_H 	H 	0.4728	0.8234	0.4814	0.177
Mof_C 	C 	0.4094	0.7921	0.483	0.317
Mof_C 	C 	0.3341	0.7446	0.4854	0.456
Mof_C 	C 	0.4685	0.6103	0.4919	0.423
Mof_O 	O 	0.3047	0.8645	0.1256	-0.18
Mof_N 	N 	0.3496	0.8901	0.2661	-0.035
Mof_C 	C 	0.3193	0.8611	0.1978	0.136
Mof_H 	H 	0.3047	0.8257	0.2132	0.033
Mof_C 	C 	0.398	0.913	0.281	-0.298
Mof_H 	H 	0.4097	0.93	0.3338	0.131
Mof_H 	H 	0.4191	0.8781	0.2759	0.143
Mof_H 	H 	0.399	0.9458	0.2436	0.141
Mof_C 	C 	0.339	0.918	0.331	-0.336
Mof_H 	H 	0.3068	0.905	0.3314	0.148
Mof_H 	H 	0.3623	0.904	0.3795	0.175
Mof_H 	H 	0.34	0.9638	0.3275	0.141
Mof_O 	O 	0.2693	0.8928	0.0928	-0.197
Mof_N 	N 	0.2293	0.9872	0.108	-0.174
Mof_C 	C 	0.233	0.9254	0.078	0.197
Mof_C 	C 	0.2736	0.0166	0.154	0.062
Mof_C 	C 	0.1847	0.021	0.078	-0.067
Mof_C 	C 	0.2075	0.0264	0.121	0.177
Mof_C 	C 	0.013	0.425	0.512	0.033
Mof_C 	C 	0.067	0.553	0.464	0.128
Mof_C 	C 	0.023	0.516	0.483	-0.019
Mof_Cu	Cu	0.76827	0.29837	0.0447	0.94
Mof_Cu	Cu	0.74703	0.30839	0.47506	0.913
Mof_Cu	Cu	0.03336	0.9861	0.06433	0.914
Mof_Br	Br	0.61744	0.12368	0.33699	-0.246
Mof_Br	Br	0.6012	0.1347	0.0314	-0.249
Mof_Br	Br	0.6458	0.2937	0.7235	-0.094
Mof_Br	Br	0.823	0.1586	0.2536	-0.178
Mof_Br	Br	0.04013	0.222	0.4899	-0.235
Mof_Br	Br	0.6005	0.1221	0.506	-0.328
Mof_O 	O 	0.7287	0.2653	0.106	-0.41
Mof_O 	O 	0.6965	0.1844	0.0305	-0.39
Mof_O 	O 	0.7177	0.2676	0.3734	-0.436
Mof_O 	O 	0.9896	0.0168	0.1175	-0.409
Mof_O 	O 	0.721	0.1708	0.4155	-0.417
Mof_O 	O 	0.9326	0.0404	0.0085	-0.41
Mof_O 	O 	0.8173	0.2403	0.0994	-0.371
Mof_O 	O 	0.7881	0.1588	0.023	-0.393
Mof_O 	O 	0.8108	0.2963	0.4653	-0.391
Mof_O 	O 	0.8157	0.1976	0.5065	-0.421
Mof_O 	O 	0.0041	0.0969	0.5502	-0.395
Mof_O 	O 	0.9473	0.0715	0.4402	-0.413
Mof_C 	C 	0.6794	0.1945	0.1469	-0.266
Mof_C 	C 	0.7018	0.2158	0.2272	0.214
Mof_H 	H 	0.7272	0.2455	0.2387	0.006
Mof_C 	C 	0.686	0.1928	0.2833	-0.285
Mof_C 	C 	0.6492	0.1543	0.2672	0.296
Mof_C 	C 	0.6237	0.133	0.1852	-0.447
Mof_H 	H 	0.5897	0.1453	0.1719	0.195
Mof_H 	H 	0.6251	0.0866	0.1829	0.178
Mof_C 	C 	0.6441	0.1593	0.1283	0.329
Mof_C 	C 	0.704	0.2174	0.088	0.449
Mof_C 	C 	0.7106	0.2115	0.3643	0.485
Mof_C 	C 	0.9219	0.0726	0.1244	-0.109
Mof_C 	C 	0.8832	0.1102	0.0863	0.085
Mof_H 	H 	0.8735	0.1111	0.0312	0.046
Mof_C 	C 	0.8576	0.1469	0.1248	-0.16
Mof_C 	C 	0.6216	0.3472	0.785	0.005
Mof_C 	C 	0.8607	0.1232	0.1971	0.169
Mof_C 	C 	0.5771	0.3839	0.753	0.122
Mof_C 	C 	0.9019	0.0877	0.2399	-0.133
Mof_C 	C 	0.932	0.0598	0.2031	0.024
Mof_H 	H 	0.9554	0.0264	0.229	0.051
Mof_C 	C 	0.9508	0.0413	0.0787	0.392
Mof_C 	C 	0.8183	0.183	0.0809	0.401
Mof_C 	C 	0.8806	0.2407	0.4821	-0.268
Mof_C 	C 	0.9037	0.1811	0.4892	0.199
Mof_H 	H 	0.886	0.1448	0.4942	0.003
Mof_C 	C 	0.9498	0.1738	0.4893	-0.238
Mof_C 	C 	0.9766	0.227	0.4906	0.277
Mof_C 	C 	0.9548	0.2869	0.484	-0.305
Mof_H 	H 	0.9728	0.3234	0.4814	0.177
Mof_C 	C 	0.9094	0.2921	0.483	0.317
Mof_C 	C 	0.8341	0.2446	0.4854	0.456
Mof_C 	C 	0.9685	0.1103	0.4919	0.423
Mof_O 	O 	0.8047	0.3645	0.1256	-0.179
Mof_N 	N 	0.8496	0.3901	0.2661	-0.035
Mof_C 	C 	0.8193	0.3611	0.1978	0.137
Mof_H 	H 	0.8047	0.3257	0.2132	0.033
Mof_C 	C 	0.898	0.413	0.281	-0.299
Mof_H 	H 	0.9097	0.43	0.3338	0.131
Mof_H 	H 	0.9191	0.3781	0.2759	0.143
Mof_H 	H 	0.899	0.4458	0.2436	0.142
Mof_C 	C 	0.839	0.418	0.331	-0.336
Mof_H 	H 	0.8068	0.405	0.3314	0.148
Mof_H 	H 	0.8623	0.404	0.3795	0.175
Mof_H 	H 	0.84	0.4638	0.3275	0.141
Mof_O 	O 	0.7693	0.3928	0.0928	-0.196
Mof_N 	N 	0.7293	0.4872	0.108	-0.173
Mof_C 	C 	0.733	0.4254	0.078	0.198
Mof_C 	C 	0.7736	0.5166	0.154	0.061
Mof_C 	C 	0.6847	0.521	0.078	-0.067
Mof_C 	C 	0.7075	0.5264	0.121	0.175
Mof_C 	C 	0.513	0.925	0.512	0.033
Mof_C 	C 	0.567	0.053	0.464	0.128
Mof_C 	C 	0.523	0.016	0.483	-0.019
Mof_Cu	Cu	0.73173	0.79837	0.4553	0.94
Mof_Cu	Cu	0.75297	0.80839	0.02494	0.912
Mof_Cu	Cu	0.46664	0.4861	0.43567	0.915
Mof_Br	Br	0.88256	0.62368	0.16301	-0.246
Mof_Br	Br	0.8988	0.6347	0.4686	-0.25
Mof_Br	Br	0.8542	0.7937	0.7765	-0.095
Mof_Br	Br	0.677	0.6586	0.2464	-0.178
Mof_Br	Br	0.45987	0.722	0.0101	-0.236
Mof_Br	Br	0.8995	0.6221	0.994	-0.328
Mof_O 	O 	0.7713	0.7653	0.394	-0.411
Mof_O 	O 	0.8035	0.6844	0.4695	-0.391
Mof_O 	O 	0.7823	0.7676	0.1266	-0.436
Mof_O 	O 	0.5104	0.5168	0.3825	-0.41
Mof_O 	O 	0.779	0.6708	0.0845	-0.417
Mof_O 	O 	0.5674	0.5404	0.4915	-0.412
Mof_O 	O 	0.6827	0.7403	0.4006	-0.371
Mof_O 	O 	0.7119	0.6588	0.477	-0.394
Mof_O 	O 	0.6892	0.7963	0.0347	-0.391
Mof_O 	O 	0.6843	0.6976	0.9935	-0.42
Mof_O 	O 	0.4959	0.5969	0.9498	-0.395
Mof_O 	O 	0.5527	0.5715	0.0598	-0.413
Mof_C 	C 	0.8206	0.6945	0.3531	-0.266
Mof_C 	C 	0.7982	0.7158	0.2728	0.214
Mof_H 	H 	0.7728	0.7455	0.2613	0.006
Mof_C 	C 	0.814	0.6928	0.2167	-0.285
Mof_C 	C 	0.8508	0.6543	0.2328	0.295
Mof_C 	C 	0.8763	0.633	0.3148	-0.446
Mof_H 	H 	0.9103	0.6453	0.3281	0.195
Mof_H 	H 	0.8749	0.5866	0.3171	0.177
Mof_C 	C 	0.8559	0.6593	0.3717	0.329
Mof_C 	C 	0.796	0.7174	0.412	0.449
Mof_C 	C 	0.7894	0.7115	0.1357	0.485
Mof_C 	C 	0.5781	0.5726	0.3756	-0.11
Mof_C 	C 	0.6168	0.6102	0.4137	0.085
Mof_H 	H 	0.6265	0.6111	0.4688	0.045
Mof_C 	C 	0.6424	0.6469	0.3752	-0.161
Mof_C 	C 	0.8784	0.8472	0.715	0.007
Mof_C 	C 	0.6393	0.6232	0.3029	0.169
Mof_C 	C 	0.9229	0.8839	0.747	0.12
Mof_C 	C 	0.5981	0.5877	0.2601	-0.134
Mof_C 	C 	0.568	0.5598	0.2969	0.025
Mof_H 	H 	0.5446	0.5264	0.271	0.05
Mof_C 	C 	0.5492	0.5413	0.4213	0.392
Mof_C 	C 	0.6817	0.683	0.4191	0.402
Mof_C 	C 	0.6194	0.7407	0.0179	-0.268
Mof_C 	C 	0.5963	0.6811	0.0108	0.199
Mof_H 	H 	0.614	0.6448	0.0058	0.003
Mof_C 	C 	0.5502	0.6738	0.0107	-0.238
Mof_C 	C 	0.5234	0.727	0.0094	0.277
Mof_C 	C 	0.5452	0.7869	0.016	-0.305
Mof_H 	H 	0.5272	0.8234	0.0186	0.176
Mof_C 	C 	0.5906	0.7921	0.017	0.317
Mof_C 	C 	0.6659	0.7446	0.0146	0.456
Mof_C 	C 	0.5315	0.6103	0.0081	0.423
Mof_O 	O 	0.6953	0.8645	0.3744	-0.179
Mof_N 	N 	0.6504	0.8901	0.2339	-0.035
Mof_C 	C 	0.6807	0.8611	0.3022	0.137
Mof_H 	H 	0.6953	0.8257	0.2868	0.033
Mof_C 	C 	0.602	0.913	0.219	-0.298
Mof_H 	H 	0.5903	0.93	0.1662	0.13
Mof_H 	H 	0.5809	0.8781	0.2241	0.143
Mof_H 	H 	0.601	0.9458	0.2564	0.141
Mof_C 	C 	0.661	0.918	0.169	-0.335
Mof_H 	H 	0.6932	0.905	0.1686	0.148
Mof_H 	H 	0.6377	0.904	0.1205	0.175
Mof_H 	H 	0.66	0.9638	0.1725	0.141
Mof_O 	O 	0.7307	0.8928	0.4072	-0.197
Mof_N 	N 	0.7707	0.9872	0.392	-0.173
Mof_C 	C 	0.767	0.9254	0.422	0.198
Mof_C 	C 	0.7264	0.0166	0.346	0.061
Mof_C 	C 	0.8153	0.021	0.422	-0.067
Mof_C 	C 	0.7925	0.0264	0.379	0.176
Mof_C 	C 	0.987	0.425	0.988	0.031
Mof_C 	C 	0.933	0.553	0.036	0.128
Mof_C 	C 	0.977	0.516	0.017	-0.018
Mof_Cu	Cu	0.23173	0.29837	0.4553	0.94
Mof_Cu	Cu	0.25297	0.30839	0.02494	0.913
Mof_Cu	Cu	0.96664	0.9861	0.43567	0.915
Mof_Br	Br	0.38256	0.12368	0.16301	-0.246
Mof_Br	Br	0.3988	0.1347	0.4686	-0.25
Mof_Br	Br	0.3542	0.2937	0.7765	-0.094
Mof_Br	Br	0.177	0.1586	0.2464	-0.178
Mof_Br	Br	0.95987	0.222	0.0101	-0.233
Mof_Br	Br	0.3995	0.1221	0.994	-0.33
Mof_O 	O 	0.2713	0.2653	0.394	-0.411
Mof_O 	O 	0.3035	0.1844	0.4695	-0.391
Mof_O 	O 	0.2823	0.2676	0.1266	-0.436
Mof_O 	O 	0.0104	0.0168	0.3825	-0.41
Mof_O 	O 	0.279	0.1708	0.0845	-0.416
Mof_O 	O 	0.0674	0.0404	0.4915	-0.412
Mof_O 	O 	0.1827	0.2403	0.4006	-0.371
Mof_O 	O 	0.2119	0.1588	0.477	-0.394
Mof_O 	O 	0.1892	0.2963	0.0347	-0.392
Mof_O 	O 	0.1843	0.1976	0.9935	-0.422
Mof_O 	O 	0.9959	0.0969	0.9498	-0.398
Mof_O 	O 	0.0527	0.0715	0.0598	-0.413
Mof_C 	C 	0.3206	0.1945	0.3531	-0.266
Mof_C 	C 	0.2982	0.2158	0.2728	0.214
Mof_H 	H 	0.2728	0.2455	0.2613	0.006
Mof_C 	C 	0.314	0.1928	0.2167	-0.285
Mof_C 	C 	0.3508	0.1543	0.2328	0.295
Mof_C 	C 	0.3763	0.133	0.3148	-0.446
Mof_H 	H 	0.4103	0.1453	0.3281	0.195
Mof_H 	H 	0.3749	0.0866	0.3171	0.178
Mof_C 	C 	0.3559	0.1593	0.3717	0.329
Mof_C 	C 	0.296	0.2174	0.412	0.449
Mof_C 	C 	0.2894	0.2115	0.1357	0.485
Mof_C 	C 	0.0781	0.0726	0.3756	-0.109
Mof_C 	C 	0.1168	0.1102	0.4137	0.085
Mof_H 	H 	0.1265	0.1111	0.4688	0.045
Mof_C 	C 	0.1424	0.1469	0.3752	-0.161
Mof_C 	C 	0.3784	0.3472	0.715	0.006
Mof_C 	C 	0.1393	0.1232	0.3029	0.167
Mof_C 	C 	0.4229	0.3839	0.747	0.122
Mof_C 	C 	0.0981	0.0877	0.2601	-0.132
Mof_C 	C 	0.068	0.0598	0.2969	0.024
Mof_H 	H 	0.0446	0.0264	0.271	0.05
Mof_C 	C 	0.0492	0.0413	0.4213	0.392
Mof_C 	C 	0.1817	0.183	0.4191	0.401
Mof_C 	C 	0.1194	0.2407	0.0179	-0.268
Mof_C 	C 	0.0963	0.1811	0.0108	0.2
Mof_H 	H 	0.114	0.1448	0.0058	0.003
Mof_C 	C 	0.0502	0.1738	0.0107	-0.239
Mof_C 	C 	0.0234	0.227	0.0094	0.276
Mof_C 	C 	0.0452	0.2869	0.016	-0.305
Mof_H 	H 	0.0272	0.3234	0.0186	0.177
Mof_C 	C 	0.0906	0.2921	0.017	0.317
Mof_C 	C 	0.1659	0.2446	0.0146	0.457
Mof_C 	C 	0.0315	0.1103	0.0081	0.425
Mof_O 	O 	0.1953	0.3645	0.3744	-0.179
Mof_N 	N 	0.1504	0.3901	0.2339	-0.035
Mof_C 	C 	0.1807	0.3611	0.3022	0.137
Mof_H 	H 	0.1953	0.3257	0.2868	0.033
Mof_C 	C 	0.102	0.413	0.219	-0.299
Mof_H 	H 	0.0903	0.43	0.1662	0.131
Mof_H 	H 	0.0809	0.3781	0.2241	0.143
Mof_H 	H 	0.101	0.4458	0.2564	0.141
Mof_C 	C 	0.161	0.418	0.169	-0.336
Mof_H 	H 	0.1932	0.405	0.1686	0.148
Mof_H 	H 	0.1377	0.404	0.1205	0.175
Mof_H 	H 	0.16	0.4638	0.1725	0.141
Mof_O 	O 	0.2307	0.3928	0.4072	-0.197
Mof_N 	N 	0.2707	0.4872	0.392	-0.173
Mof_C 	C 	0.267	0.4254	0.422	0.198
Mof_C 	C 	0.2264	0.5166	0.346	0.06
Mof_C 	C 	0.3153	0.521	0.422	-0.067
Mof_C 	C 	0.2925	0.5264	0.379	0.175
Mof_C 	C 	0.487	0.925	0.988	0.033
Mof_C 	C 	0.433	0.053	0.036	0.129
Mof_C 	C 	0.477	0.016	0.017	-0.019
_end
