data_functionalizedCrystal
_audit_creation_method	'EQeq! by Chris Wilmer'
_symmetry_space_group_name_H-M	'P1'
_symmetry_Int_Tables_number	1
_symmetry_cell_setting	triclinic
loop_
_symmetry_equiv_pos_as_xyz
  x,y,z
_cell_length_a	21.317
_cell_length_b	23.1479
_cell_length_c	38.6588
_cell_angle_alpha	79.5682
_cell_angle_beta	73.9958
_cell_angle_gamma	62.5837
loop_
_atom_site_label
_atom_site_type_symbol
_atom_site_fract_x
_atom_site_fract_y
_atom_site_fract_z
_atom_site_charge
Mof_Zn	Zn	0.34884	0.48474	0.4222	1.139
Mof_Zn	Zn	0.30684	0.45794	0.51772	1.186
Mof_Zn	Zn	0.46927	0.32719	0.38331	1.188
Mof_Zn	Zn	0.43752	0.58951	0.39772	1.191
Mof_Zn	Zn	0.18034	0.55974	0.39026	1.181
Mof_Zn	Zn	0.74422	0.98474	0.9222	1.139
Mof_Zn	Zn	0.7175	0.95794	0.01772	1.186
Mof_Zn	Zn	0.82023	0.82719	0.88331	1.188
Mof_Zn	Zn	0.57525	0.08951	0.89772	1.191
Mof_Zn	Zn	0.86966	0.05974	0.89026	1.181
Mof_H 	H 	0.1851	0.4891	0.3231	0.076
Mof_H 	H 	0.223	0.4077	0.2847	0.029
Mof_H 	H 	0.1498	0.7148	0.3438	0.069
Mof_H 	H 	0.2285	0.2819	0.8891	0.231
Mof_H 	H 	0.3261	0.3106	0.2846	0.042
Mof_H 	H 	0.1647	0.8093	0.3235	0.041
Mof_H 	H 	0.4078	0.2972	0.3196	0.062
Mof_H 	H 	0.2628	0.8186	0.3324	0.033
Mof_H 	H 	0.4378	0.177	0.8104	-0.117
Mof_H 	H 	0.3456	0.7341	0.3617	0.07
Mof_H 	H 	0.7133	0.4445	0.3091	0.043
Mof_H 	H 	0.3359	0.2353	0.7889	0.229
Mof_H 	H 	0.1461	0.4393	0.7923	0.044
Mof_H 	H 	0.1049	0.4193	0.8293	0.036
Mof_H 	H 	0.5068	0.1352	0.4934	0.034
Mof_H 	H 	0.4515	0.1856	0.5474	0.034
Mof_H 	H 	0.0775	0.4008	0.7442	0.041
Mof_H 	H 	0.1421	0.3309	0.7379	0.038
Mof_H 	H 	0.3364	0.2212	0.9064	-0.113
Mof_H 	H 	0.07	0.3284	0.8344	0.038
Mof_H 	H 	0.0195	0.3733	0.8079	0.038
Mof_H 	H 	0.178	0.3758	0.6194	-0.029
Mof_H 	H 	0.237	0.326	0.778	0.02
Mof_H 	H 	0.2123	0.27	0.7834	0.025
Mof_H 	H 	0.366	0.5294	0.565	0.072
Mof_H 	H 	0.0876	0.5223	0.8339	0.132
Mof_H 	H 	0.0106	0.1306	0.8006	-0.019
Mof_H 	H 	0.0722	0.1937	0.7727	0.156
Mof_H 	H 	0.9832	0.3041	0.8567	0.143
Mof_H 	H 	0.14	0.3619	0.6801	0.161
Mof_H 	H 	0.0249	0.6205	0.8615	-0.003
Mof_H 	H 	0.2919	0.4606	0.6334	-0.024
Mof_H 	H 	0.4726	0.6414	0.5268	0.027
Mof_H 	H 	0.4204	0.5889	0.5731	0.028
Mof_H 	H 	0.9234	0.5673	0.7897	0.137
Mof_H 	H 	0.3774	0.2977	0.5511	0.066
Mof_H 	H 	0.6316	0.3141	0.3317	0.086
Mof_H 	H 	0.9218	0.2409	0.8833	-0.018
Mof_H 	H 	0.721	0.3457	0.3029	0.027
Mof_H 	H 	0.6076	0.5261	0.3405	0.065
Mof_H 	H 	0.8592	0.669	0.815	-0.007
Mof_H 	H 	0.5056	0.1994	0.4408	0.066
Mof_H 	H 	0.4748	0.6322	0.4666	0.082
Mof_H 	H 	0.2533	0.4501	0.6959	0.147
Mof_H 	H 	0.0297	0.6051	0.4525	0.068
Mof_H 	H 	0.953	0.616	0.5092	0.035
Mof_H 	H 	0.001	0.5753	0.5603	0.03
Mof_H 	H 	0.1256	0.524	0.5546	0.066
Mof_H 	H 	0.0027	0.9891	0.8231	0.078
Mof_H 	H 	0.0846	0.9077	0.7847	0.03
Mof_H 	H 	0.7916	0.2148	0.8438	0.07
Mof_H 	H 	0.6005	0.7819	0.3891	0.232
Mof_H 	H 	0.0787	0.8106	0.7846	0.043
Mof_H 	H 	0.7025	0.3093	0.8235	0.042
Mof_H 	H 	0.9754	0.7972	0.8196	0.063
Mof_H 	H 	0.5862	0.3186	0.8324	0.034
Mof_H 	H 	0.5748	0.677	0.3104	-0.116
Mof_H 	H 	0.5586	0.2341	0.8617	0.071
Mof_H 	H 	0.5331	0.9445	0.8091	0.043
Mof_H 	H 	0.6399	0.7353	0.2889	0.229
Mof_H 	H 	0.6223	0.9393	0.2923	0.044
Mof_H 	H 	0.6465	0.9193	0.3293	0.036
Mof_H 	H 	0.8646	0.6352	0.9934	0.034
Mof_H 	H 	0.8155	0.6856	0.0474	0.034
Mof_H 	H 	0.7775	0.9008	0.2442	0.041
Mof_H 	H 	0.7891	0.8309	0.2379	0.038
Mof_H 	H 	0.536	0.7212	0.4064	-0.113
Mof_H 	H 	0.7672	0.8284	0.3344	0.038
Mof_H 	H 	0.7993	0.8733	0.3079	0.038
Mof_H 	H 	0.8268	0.8758	0.1194	-0.029
Mof_H 	H 	0.659	0.826	0.278	0.02
Mof_H 	H 	0.7343	0.77	0.2834	0.025
Mof_H 	H 	0.5396	0.0294	0.065	0.072
Mof_H 	H 	0.5562	0.0223	0.3339	0.133
Mof_H 	H 	0.0582	0.6306	0.3006	-0.02
Mof_H 	H 	0.9614	0.6937	0.2727	0.157
Mof_H 	H 	0.856	0.8041	0.3567	0.144
Mof_H 	H 	0.818	0.8619	0.1801	0.161
Mof_H 	H 	0.4931	0.1205	0.3615	-0.004
Mof_H 	H 	0.6141	0.9606	0.1334	-0.024
Mof_H 	H 	0.3592	0.1414	0.0268	0.027
Mof_H 	H 	0.4176	0.0889	0.0731	0.028
Mof_H 	H 	0.7196	0.0673	0.2897	0.137
Mof_H 	H 	0.7738	0.7977	0.0511	0.066
Mof_H 	H 	0.7226	0.8141	0.8317	0.086
Mof_H 	H 	0.954	0.7409	0.3833	-0.019
Mof_H 	H 	0.6304	0.8457	0.8029	0.027
Mof_H 	H 	0.5258	0.0261	0.8405	0.065
Mof_H 	H 	0.6568	0.169	0.315	-0.008
Mof_H 	H 	0.8542	0.6994	0.9408	0.066
Mof_H 	H 	0.4264	0.1322	0.9666	0.082
Mof_H 	H 	0.6007	0.9501	0.1959	0.148
Mof_H 	H 	0.9127	0.1051	0.9525	0.068
Mof_H 	H 	0.9218	0.116	0.0092	0.036
Mof_H 	H 	0.8634	0.0753	0.0603	0.03
Mof_H 	H 	0.7958	0.024	0.0546	0.066
Mof_C 	C 	0.12549	0.36136	0.78846	-0.007
Mof_C 	C 	0.2282	0.45127	0.32293	-0.136
Mof_C 	C 	0.29985	0.6729	0.3698	0.084
Mof_C 	C 	0.2517	0.4017	0.3005	0
Mof_C 	C 	0.23908	0.66744	0.3648	0.059
Mof_C 	C 	0.18917	0.71845	0.34735	-0.098
Mof_C 	C 	0.27089	0.26107	0.87215	-0.547
Mof_C 	C 	0.3157	0.3428	0.2994	-0.035
Mof_C 	C 	0.19806	0.77508	0.3352	-0.028
Mof_C 	C 	0.3634	0.3335	0.3209	-0.098
Mof_C 	C 	0.2749	0.43941	0.34539	0.073
Mof_C 	C 	0.2569	0.78069	0.34051	-0.004
Mof_C 	C 	0.39486	0.19938	0.8267	0.49
Mof_C 	C 	0.30681	0.72964	0.35796	-0.126
Mof_C 	C 	0.6736	0.43584	0.32036	-0.037
Mof_C 	C 	0.33432	0.23346	0.8133	-0.562
Mof_C 	C 	0.10789	0.42574	0.8035	0.025
Mof_C 	C 	0.48236	0.18028	0.4936	-0.01
Mof_C 	C 	0.4463	0.2117	0.5261	-0.021
Mof_C 	C 	0.9332	0.65828	0.84172	-0.191
Mof_C 	C 	0.12603	0.37218	0.74788	0.031
Mof_C 	C 	0.3365	0.2248	0.882	0.46
Mof_C 	C 	0.5581	0.46367	0.35693	0.059
Mof_C 	C 	0.39015	0.54366	0.50964	0.067
Mof_C 	C 	0.19118	0.40541	0.69343	0.321
Mof_C 	C 	0.06722	0.33872	0.80924	0.026
Mof_C 	C 	0.19326	0.39056	0.63492	0.224
Mof_C 	C 	0.27094	0.26485	0.83727	0.498
Mof_C 	C 	0.20143	0.31103	0.79213	0.065
Mof_C 	C 	0.00886	0.5338	0.81108	0.302
Mof_C 	C 	0.38785	0.5491	0.5456	-0.124
Mof_C 	C 	0.23805	0.41929	0.62101	-0.237
Mof_C 	C 	0.26333	0.42508	0.58026	0.377
Mof_C 	C 	0.42126	0.5756	0.48108	0.07
Mof_C 	C 	0.04099	0.55054	0.83088	-0.281
Mof_C 	C 	0.5678	0.40063	0.35337	0.077
Mof_C 	C 	0.921	0.1381	0.8641	0.4
Mof_C 	C 	0.89449	0.72425	0.85837	0.424
Mof_C 	C 	0.00473	0.16503	0.81231	0.185
Mof_C 	C 	0.9593	0.1789	0.8457	-0.235
Mof_C 	C 	0.04261	0.2027	0.79568	-0.315
Mof_C 	C 	0.98999	0.2689	0.84532	-0.312
Mof_C 	C 	0.4673	0.1537	0.8747	0.595
Mof_C 	C 	0.17009	0.38269	0.67093	-0.344
Mof_C 	C 	0.00318	0.61096	0.84688	0.142
Mof_C 	C 	0.4043	0.3134	0.4952	0.063
Mof_C 	C 	0.26057	0.4412	0.64326	0.193
Mof_C 	C 	0.45209	0.61699	0.52163	-0.024
Mof_C 	C 	0.41966	0.58497	0.54971	-0.017
Mof_C 	C 	0.9436	0.57797	0.80463	-0.274
Mof_C 	C 	0.40329	0.27854	0.52928	-0.107
Mof_C 	C 	0.62709	0.35531	0.33371	-0.144
Mof_C 	C 	0.95307	0.2304	0.86086	0.189
Mof_C 	C 	0.67901	0.37478	0.3172	0.01
Mof_C 	C 	0.61235	0.48446	0.33944	-0.099
Mof_C 	C 	0.39839	0.19532	0.8599	-0.508
Mof_C 	C 	0.9042	0.64052	0.81988	0.144
Mof_C 	C 	0.4801	0.21837	0.46263	-0.122
Mof_C 	C 	0.3396	0.38291	0.34469	0.059
Mof_C 	C 	0.44021	0.28568	0.4629	0.072
Mof_C 	C 	0.45334	0.61204	0.48588	-0.124
Mof_C 	C 	0.03664	0.25181	0.81251	0.316
Mof_C 	C 	0.2381	0.43517	0.68043	-0.3
Mof_C 	C 	0.15228	0.53373	0.50019	0.081
Mof_C 	C 	0.12356	0.55808	0.4696	0.052
Mof_C 	C 	0.04886	0.58889	0.47299	-0.114
Mof_C 	C 	0.00297	0.59534	0.50696	-0.02
Mof_C 	C 	0.03173	0.57099	0.53755	-0.015
Mof_C 	C 	0.10642	0.5402	0.53416	-0.119
Mof_C 	C 	0.72469	0.86136	0.28846	-0.007
Mof_C 	C 	0.9976	0.95127	0.82293	-0.137
Mof_C 	C 	0.65745	0.1729	0.8698	0.084
Mof_C 	C 	0.0461	0.9017	0.8005	0.001
Mof_C 	C 	0.72868	0.16744	0.8648	0.059
Mof_C 	C 	0.74503	0.21845	0.84735	-0.098
Mof_C 	C 	0.59589	0.76107	0.37215	-0.547
Mof_C 	C 	0.0421	0.8428	0.7994	-0.036
Mof_C 	C 	0.69166	0.27508	0.8352	-0.028
Mof_C 	C 	0.9822	0.8335	0.8209	-0.098
Mof_C 	C 	0.9403	0.93941	0.84539	0.074
Mof_C 	C 	0.6219	0.28069	0.84051	-0.004
Mof_C 	C 	0.57906	0.69938	0.3267	0.49
Mof_C 	C 	0.60559	0.22964	0.85796	-0.126
Mof_C 	C 	0.5702	0.93584	0.82036	-0.037
Mof_C 	C 	0.61892	0.73346	0.3133	-0.562
Mof_C 	C 	0.66287	0.92574	0.3035	0.025
Mof_C 	C 	0.84376	0.68028	0.9936	-0.009
Mof_C 	C 	0.8159	0.7117	0.0261	-0.022
Mof_C 	C 	0.5668	0.15828	0.34172	-0.192
Mof_C 	C 	0.75391	0.87218	0.24788	0.031
Mof_C 	C 	0.5567	0.7248	0.382	0.46
Mof_C 	C 	0.6213	0.96367	0.85693	0.059
Mof_C 	C 	0.55655	0.04366	0.00964	0.067
Mof_C 	C 	0.70998	0.90541	0.19343	0.321
Mof_C 	C 	0.78482	0.83872	0.30924	0.026
Mof_C 	C 	0.78126	0.89056	0.13492	0.224
Mof_C 	C 	0.62694	0.76485	0.33727	0.498
Mof_C 	C 	0.69541	0.81103	0.29213	0.065
Mof_C 	C 	0.64626	0.0338	0.31108	0.303
Mof_C 	C 	0.51745	0.0491	0.0456	-0.124
Mof_C 	C 	0.72165	0.91929	0.12101	-0.237
Mof_C 	C 	0.73133	0.92508	0.08026	0.377
Mof_C 	C 	0.52206	0.0756	0.98108	0.07
Mof_C 	C 	0.57759	0.05054	0.33088	-0.281
Mof_C 	C 	0.6782	0.90063	0.85337	0.077
Mof_C 	C 	0.0768	0.6381	0.3641	0.4
Mof_C 	C 	0.52289	0.22425	0.35837	0.424
Mof_C 	C 	0.01793	0.66503	0.31231	0.187
Mof_C 	C 	0.0161	0.6789	0.3457	-0.236
Mof_C 	C 	0.95901	0.7027	0.29568	-0.317
Mof_C 	C 	0.89579	0.7689	0.34532	-0.313
Mof_C 	C 	0.5043	0.6537	0.3747	0.595
Mof_C 	C 	0.77629	0.88269	0.17093	-0.344
Mof_C 	C 	0.53898	0.11096	0.34688	0.143
Mof_C 	C 	0.7871	0.8134	0.9952	0.063
Mof_C 	C 	0.65497	0.9412	0.14326	0.193
Mof_C 	C 	0.40929	0.11699	0.02163	-0.024
Mof_C 	C 	0.44566	0.08497	0.04971	-0.017
Mof_C 	C 	0.6738	0.07797	0.30463	-0.275
Mof_C 	C 	0.78889	0.77854	0.02928	-0.108
Mof_C 	C 	0.68389	0.85531	0.83371	-0.143
Mof_C 	C 	0.95567	0.7304	0.36086	0.19
Mof_C 	C 	0.62901	0.87478	0.8172	0.01
Mof_C 	C 	0.56375	0.98446	0.83944	-0.099
Mof_C 	C 	0.54639	0.69532	0.3599	-0.508
Mof_C 	C 	0.6354	0.14052	0.31988	0.144
Mof_C 	C 	0.8389	0.71837	0.96263	-0.122
Mof_C 	C 	0.9328	0.88291	0.84469	0.059
Mof_C 	C 	0.81121	0.78568	0.9629	0.073
Mof_C 	C 	0.44874	0.11204	0.98588	-0.124
Mof_C 	C 	0.89904	0.75181	0.31251	0.317
Mof_C 	C 	0.6463	0.93517	0.18043	-0.3
Mof_C 	C 	0.8138	0.03373	0.00019	0.08
Mof_C 	C 	0.84876	0.05808	0.9696	0.052
Mof_C 	C 	0.88926	0.08889	0.97299	-0.114
Mof_C 	C 	0.89473	0.09534	0.00696	-0.02
Mof_C 	C 	0.85973	0.07099	0.03755	-0.015
Mof_C 	C 	0.81922	0.0402	0.03416	-0.119
Mof_N 	N 	0.18103	0.54515	0.44279	-0.252
Mof_N 	N 	0.36287	0.51273	0.49557	-0.238
Mof_N 	N 	0.24088	0.51206	0.45668	-0.204
Mof_N 	N 	0.22542	0.50426	0.4923	-0.25
Mof_N 	N 	0.3771	0.52436	0.45948	-0.207
Mof_N 	N 	0.4125	0.56108	0.45026	-0.236
Mof_N 	N 	0.4918	0.49919	0.37841	-0.237
Mof_N 	N 	0.46088	0.45862	0.38754	-0.196
Mof_N 	N 	0.50428	0.39907	0.37317	-0.24
Mof_N 	N 	0.37301	0.386	0.36898	-0.235
Mof_N 	N 	0.32782	0.44229	0.38387	-0.203
Mof_N 	N 	0.26754	0.47523	0.37069	-0.245
Mof_N 	N 	0.24571	0.60925	0.38173	-0.222
Mof_N 	N 	0.30939	0.58082	0.3928	-0.197
Mof_N 	N 	0.34283	0.61842	0.38552	-0.252
Mof_N 	N 	0.37044	0.3786	0.48802	-0.24
Mof_N 	N 	0.38933	0.38693	0.45261	-0.194
Mof_N 	N 	0.43075	0.33166	0.437	-0.249
Mof_N 	N 	0.83103	0.04515	0.94279	-0.252
Mof_N 	N 	0.62883	0.01273	0.99557	-0.238
Mof_N 	N 	0.79038	0.01206	0.95668	-0.204
Mof_N 	N 	0.77802	0.00426	0.9923	-0.249
Mof_N 	N 	0.63906	0.02436	0.95948	-0.207
Mof_N 	N 	0.57616	0.06108	0.95026	-0.236
Mof_N 	N 	0.6306	0.99919	0.87841	-0.237
Mof_N 	N 	0.69296	0.95862	0.88754	-0.196
Mof_N 	N 	0.72348	0.89907	0.87317	-0.24
Mof_N 	N 	0.87201	0.886	0.86898	-0.235
Mof_N 	N 	0.84602	0.94229	0.88387	-0.203
Mof_N 	N 	0.88654	0.97523	0.87069	-0.245
Mof_N 	N 	0.76331	0.10925	0.88173	-0.222
Mof_N 	N 	0.71699	0.08082	0.8928	-0.197
Mof_N 	N 	0.65323	0.11842	0.88552	-0.252
Mof_N 	N 	0.76294	0.8786	0.98802	-0.24
Mof_N 	N 	0.77113	0.88693	0.95261	-0.194
Mof_N 	N 	0.80059	0.83166	0.937	-0.249
Mof_O 	O 	0.92604	0.09397	0.84615	-0.454
Mof_O 	O 	0.88539	0.14746	0.89336	-0.442
Mof_O 	O 	0.24668	0.4024	0.56104	-0.4
Mof_O 	O 	0.2993	0.45919	0.56903	-0.477
Mof_O 	O 	0.47038	0.14973	0.90331	-0.584
Mof_O 	O 	0.5225	0.13562	0.85018	-0.458
Mof_O 	O 	0.92076	0.73255	0.87953	-0.436
Mof_O 	O 	0.8414	0.76356	0.84884	-0.507
Mof_O 	O 	0.03969	0.47573	0.79615	-0.255
Mof_O 	O 	0.17368	0.40076	0.7305	-0.257
Mof_O 	O 	0.20378	0.30259	0.82849	-0.304
Mof_O 	O 	0.07909	0.28207	0.79355	-0.26
Mof_O 	O 	0.13384	0.59397	0.34615	-0.454
Mof_O 	O 	0.07379	0.64746	0.39336	-0.442
Mof_O 	O 	0.78988	0.9024	0.06104	-0.4
Mof_O 	O 	0.67248	0.95919	0.06903	-0.477
Mof_O 	O 	0.47658	0.64973	0.40331	-0.584
Mof_O 	O 	0.4917	0.63562	0.35018	-0.458
Mof_O 	O 	0.46716	0.23255	0.37953	-0.436
Mof_O 	O 	0.5462	0.26356	0.34884	-0.507
Mof_O 	O 	0.68843	0.97573	0.29615	-0.255
Mof_O 	O 	0.69506	0.90076	0.2305	-0.257
Mof_O 	O 	0.66514	0.80259	0.32849	-0.304
Mof_O 	O 	0.84529	0.78207	0.29355	-0.261
Mof_Zn	Zn	0.25578	0.01526	0.0778	1.14
Mof_Zn	Zn	0.2825	0.04206	0.98228	1.187
Mof_Zn	Zn	0.17977	0.17281	0.11669	1.189
Mof_Zn	Zn	0.42475	0.91049	0.10228	1.192
Mof_Zn	Zn	0.13034	0.94026	0.10974	1.182
Mof_Zn	Zn	0.65116	0.51526	0.5778	1.14
Mof_Zn	Zn	0.69316	0.54206	0.48228	1.187
Mof_Zn	Zn	0.53073	0.67281	0.61669	1.189
Mof_Zn	Zn	0.56248	0.41049	0.60228	1.192
Mof_Zn	Zn	0.81966	0.44026	0.60974	1.182
Mof_H 	H 	0.9973	0.0109	0.1769	0.078
Mof_H 	H 	0.9154	0.0923	0.2153	0.03
Mof_H 	H 	0.2084	0.7852	0.1562	0.07
Mof_H 	H 	0.3995	0.2181	0.6109	0.232
Mof_H 	H 	0.9213	0.1894	0.2154	0.043
Mof_H 	H 	0.2975	0.6907	0.1765	0.042
Mof_H 	H 	0.0246	0.2028	0.1804	0.063
Mof_H 	H 	0.4138	0.6814	0.1676	0.034
Mof_H 	H 	0.4252	0.323	0.6896	-0.116
Mof_H 	H 	0.4414	0.7659	0.1383	0.071
Mof_H 	H 	0.4669	0.0555	0.1909	0.043
Mof_H 	H 	0.3601	0.2647	0.7111	0.229
Mof_H 	H 	0.3777	0.0607	0.7077	0.044
Mof_H 	H 	0.3535	0.0807	0.6707	0.036
Mof_H 	H 	0.1354	0.3648	0.0066	0.034
Mof_H 	H 	0.1845	0.3144	0.9526	0.034
Mof_H 	H 	0.2225	0.0992	0.7558	0.041
Mof_H 	H 	0.2109	0.1691	0.7621	0.038
Mof_H 	H 	0.464	0.2788	0.5936	-0.113
Mof_H 	H 	0.2328	0.1716	0.6656	0.038
Mof_H 	H 	0.2007	0.1267	0.6921	0.038
Mof_H 	H 	0.1732	0.1242	0.8806	-0.029
Mof_H 	H 	0.341	0.174	0.722	0.02
Mof_H 	H 	0.2657	0.23	0.7166	0.025
Mof_H 	H 	0.4604	0.9706	0.935	0.072
Mof_H 	H 	0.4438	0.9777	0.6661	0.133
Mof_H 	H 	0.9418	0.3694	0.6994	-0.02
Mof_H 	H 	0.0386	0.3063	0.7273	0.157
Mof_H 	H 	0.144	0.1959	0.6433	0.144
Mof_H 	H 	0.182	0.1381	0.8199	0.161
Mof_H 	H 	0.5069	0.8795	0.6385	-0.004
Mof_H 	H 	0.3859	0.0394	0.8666	-0.024
Mof_H 	H 	0.6408	0.8586	0.9732	0.027
Mof_H 	H 	0.5824	0.9111	0.9269	0.028
Mof_H 	H 	0.2804	0.9327	0.7103	0.137
Mof_H 	H 	0.2262	0.2023	0.9489	0.066
Mof_H 	H 	0.2774	0.1859	0.1683	0.086
Mof_H 	H 	0.046	0.2591	0.6167	-0.019
Mof_H 	H 	0.3696	0.1543	0.1971	0.027
Mof_H 	H 	0.4742	0.9739	0.1595	0.065
Mof_H 	H 	0.3432	0.831	0.685	-0.008
Mof_H 	H 	0.1458	0.3006	0.0592	0.066
Mof_H 	H 	0.5736	0.8678	0.0334	0.082
Mof_H 	H 	0.3993	0.0499	0.8041	0.148
Mof_H 	H 	0.0873	0.8949	0.0475	0.068
Mof_H 	H 	0.0782	0.884	0.9908	0.036
Mof_H 	H 	0.1366	0.9247	0.9397	0.03
Mof_H 	H 	0.2042	0.976	0.9454	0.066
Mof_H 	H 	0.8149	0.5109	0.6769	0.077
Mof_H 	H 	0.777	0.5923	0.7153	0.03
Mof_H 	H 	0.8502	0.2852	0.6562	0.07
Mof_H 	H 	0.7715	0.7181	0.1109	0.232
Mof_H 	H 	0.6739	0.6894	0.7154	0.043
Mof_H 	H 	0.8353	0.1907	0.6765	0.042
Mof_H 	H 	0.5922	0.7028	0.6804	0.063
Mof_H 	H 	0.7372	0.1814	0.6676	0.034
Mof_H 	H 	0.5622	0.823	0.1896	-0.116
Mof_H 	H 	0.6544	0.2659	0.6383	0.071
Mof_H 	H 	0.2867	0.5555	0.6909	0.043
Mof_H 	H 	0.6641	0.7647	0.2111	0.229
Mof_H 	H 	0.8539	0.5607	0.2077	0.044
Mof_H 	H 	0.8951	0.5807	0.1707	0.036
Mof_H 	H 	0.4932	0.8648	0.5066	0.034
Mof_H 	H 	0.5485	0.8144	0.4526	0.034
Mof_H 	H 	0.9225	0.5992	0.2558	0.041
Mof_H 	H 	0.8579	0.6691	0.2621	0.038
Mof_H 	H 	0.6636	0.7788	0.0936	-0.113
Mof_H 	H 	0.93	0.6716	0.1656	0.038
Mof_H 	H 	0.9805	0.6267	0.1921	0.038
Mof_H 	H 	0.822	0.6242	0.3806	-0.029
Mof_H 	H 	0.763	0.674	0.222	0.02
Mof_H 	H 	0.7877	0.73	0.2166	0.025
Mof_H 	H 	0.634	0.4706	0.435	0.072
Mof_H 	H 	0.9124	0.4777	0.1661	0.132
Mof_H 	H 	0.9894	0.8694	0.1994	-0.019
Mof_H 	H 	0.9278	0.8063	0.2273	0.156
Mof_H 	H 	0.0168	0.6959	0.1433	0.143
Mof_H 	H 	0.86	0.6381	0.3199	0.161
Mof_H 	H 	0.9751	0.3795	0.1385	-0.003
Mof_H 	H 	0.7081	0.5394	0.3666	-0.024
Mof_H 	H 	0.5274	0.3586	0.4732	0.027
Mof_H 	H 	0.5796	0.4111	0.4269	0.028
Mof_H 	H 	0.0766	0.4327	0.2103	0.137
Mof_H 	H 	0.6226	0.7023	0.4489	0.066
Mof_H 	H 	0.3684	0.6859	0.6683	0.086
Mof_H 	H 	0.0782	0.7591	0.1167	-0.018
Mof_H 	H 	0.279	0.6543	0.6971	0.027
Mof_H 	H 	0.3924	0.4739	0.6595	0.065
Mof_H 	H 	0.1408	0.331	0.185	-0.007
Mof_H 	H 	0.4944	0.8006	0.5592	0.066
Mof_H 	H 	0.5252	0.3678	0.5334	0.082
Mof_H 	H 	0.7467	0.5499	0.3041	0.147
Mof_H 	H 	0.9703	0.3949	0.5475	0.068
Mof_H 	H 	0.047	0.384	0.4908	0.035
Mof_H 	H 	0.999	0.4247	0.4397	0.03
Mof_H 	H 	0.8744	0.476	0.4454	0.066
Mof_C 	C 	0.27531	0.13864	0.71154	-0.007
Mof_C 	C 	0.0024	0.04873	0.17707	-0.137
Mof_C 	C 	0.34255	0.8271	0.1302	0.084
Mof_C 	C 	0.9539	0.0983	0.1995	0.001
Mof_C 	C 	0.27132	0.83256	0.1352	0.059
Mof_C 	C 	0.25497	0.78155	0.15265	-0.098
Mof_C 	C 	0.40411	0.23893	0.62785	-0.547
Mof_C 	C 	0.9579	0.1572	0.2006	-0.036
Mof_C 	C 	0.30834	0.72492	0.1648	-0.028
Mof_C 	C 	0.0178	0.1665	0.1791	-0.098
Mof_C 	C 	0.0597	0.06059	0.15461	0.074
Mof_C 	C 	0.3781	0.71931	0.15949	-0.004
Mof_C 	C 	0.42094	0.30062	0.6733	0.49
Mof_C 	C 	0.39441	0.77036	0.14204	-0.126
Mof_C 	C 	0.4298	0.06416	0.17964	-0.037
Mof_C 	C 	0.38108	0.26654	0.6867	-0.562
Mof_C 	C 	0.33713	0.07426	0.6965	0.025
Mof_C 	C 	0.15624	0.31972	0.0064	-0.009
Mof_C 	C 	0.1841	0.2883	0.9739	-0.022
Mof_C 	C 	0.4332	0.84172	0.65828	-0.192
Mof_C 	C 	0.24609	0.12782	0.75212	0.031
Mof_C 	C 	0.4433	0.2752	0.618	0.46
Mof_C 	C 	0.3787	0.03633	0.14307	0.059
Mof_C 	C 	0.44345	0.95634	0.99036	0.067
Mof_C 	C 	0.29002	0.09459	0.80657	0.321
Mof_C 	C 	0.21518	0.16128	0.69076	0.026
Mof_C 	C 	0.21874	0.10944	0.86508	0.224
Mof_C 	C 	0.37306	0.23515	0.66273	0.498
Mof_C 	C 	0.30459	0.18897	0.70787	0.065
Mof_C 	C 	0.35374	0.9662	0.68892	0.303
Mof_C 	C 	0.48255	0.9509	0.9544	-0.124
Mof_C 	C 	0.27835	0.08071	0.87899	-0.237
Mof_C 	C 	0.26867	0.07492	0.91974	0.377
Mof_C 	C 	0.47794	0.9244	0.01892	0.07
Mof_C 	C 	0.42241	0.94946	0.66912	-0.281
Mof_C 	C 	0.3218	0.09937	0.14663	0.077
Mof_C 	C 	0.9232	0.3619	0.6359	0.4
Mof_C 	C 	0.47711	0.77575	0.64163	0.424
Mof_C 	C 	0.98207	0.33497	0.68769	0.187
Mof_C 	C 	0.9839	0.3211	0.6543	-0.236
Mof_C 	C 	0.04099	0.2973	0.70432	-0.317
Mof_C 	C 	0.10421	0.2311	0.65468	-0.313
Mof_C 	C 	0.4957	0.3463	0.6253	0.595
Mof_C 	C 	0.22371	0.11731	0.82907	-0.344
Mof_C 	C 	0.46102	0.88904	0.65312	0.143
Mof_C 	C 	0.2129	0.1866	0.0048	0.063
Mof_C 	C 	0.34503	0.0588	0.85674	0.193
Mof_C 	C 	0.59071	0.88301	0.97837	-0.024
Mof_C 	C 	0.55434	0.91503	0.95029	-0.017
Mof_C 	C 	0.3262	0.92203	0.69537	-0.275
Mof_C 	C 	0.21111	0.22146	0.97072	-0.108
Mof_C 	C 	0.31611	0.14469	0.16629	-0.143
Mof_C 	C 	0.04433	0.2696	0.63914	0.19
Mof_C 	C 	0.37099	0.12522	0.1828	0.01
Mof_C 	C 	0.43625	0.01554	0.16056	-0.099
Mof_C 	C 	0.45361	0.30468	0.6401	-0.508
Mof_C 	C 	0.3646	0.85948	0.68012	0.144
Mof_C 	C 	0.1611	0.28163	0.03737	-0.122
Mof_C 	C 	0.0672	0.11709	0.15531	0.059
Mof_C 	C 	0.18879	0.21432	0.0371	0.073
Mof_C 	C 	0.55126	0.88796	0.01412	-0.124
Mof_C 	C 	0.10096	0.24819	0.68749	0.317
Mof_C 	C 	0.3537	0.06483	0.81957	-0.3
Mof_C 	C 	0.1862	0.96627	0.99981	0.08
Mof_C 	C 	0.15124	0.94192	0.0304	0.052
Mof_C 	C 	0.11074	0.91111	0.02701	-0.114
Mof_C 	C 	0.10527	0.90466	0.99304	-0.02
Mof_C 	C 	0.14027	0.92901	0.96245	-0.015
Mof_C 	C 	0.18078	0.9598	0.96584	-0.119
Mof_C 	C 	0.87451	0.63864	0.21154	-0.007
Mof_C 	C 	0.7718	0.54873	0.67707	-0.136
Mof_C 	C 	0.70015	0.3271	0.6302	0.084
Mof_C 	C 	0.7483	0.5983	0.6995	0
Mof_C 	C 	0.76092	0.33256	0.6352	0.059
Mof_C 	C 	0.81083	0.28155	0.65265	-0.098
Mof_C 	C 	0.72911	0.73893	0.12785	-0.547
Mof_C 	C 	0.6843	0.6572	0.7006	-0.035
Mof_C 	C 	0.80194	0.22492	0.6648	-0.028
Mof_C 	C 	0.6366	0.6665	0.6791	-0.098
Mof_C 	C 	0.7251	0.56059	0.65461	0.073
Mof_C 	C 	0.7431	0.21931	0.65949	-0.004
Mof_C 	C 	0.60514	0.80062	0.1733	0.49
Mof_C 	C 	0.69319	0.27036	0.64204	-0.126
Mof_C 	C 	0.3264	0.56416	0.67964	-0.037
Mof_C 	C 	0.66568	0.76654	0.1867	-0.562
Mof_C 	C 	0.89211	0.57426	0.1965	0.025
Mof_C 	C 	0.51764	0.81972	0.5064	-0.01
Mof_C 	C 	0.5537	0.7883	0.4739	-0.021
Mof_C 	C 	0.0668	0.34172	0.15828	-0.191
Mof_C 	C 	0.87397	0.62782	0.25212	0.031
Mof_C 	C 	0.6635	0.7752	0.118	0.46
Mof_C 	C 	0.4419	0.53633	0.64307	0.059
Mof_C 	C 	0.60985	0.45634	0.49036	0.067
Mof_C 	C 	0.80882	0.59459	0.30657	0.321
Mof_C 	C 	0.93278	0.66128	0.19076	0.026
Mof_C 	C 	0.80674	0.60944	0.36508	0.224
Mof_C 	C 	0.72906	0.73515	0.16273	0.498
Mof_C 	C 	0.79857	0.68897	0.20787	0.065
Mof_C 	C 	0.99114	0.4662	0.18892	0.302
Mof_C 	C 	0.61215	0.4509	0.4544	-0.124
Mof_C 	C 	0.76195	0.58071	0.37899	-0.237
Mof_C 	C 	0.73667	0.57492	0.41974	0.377
Mof_C 	C 	0.57874	0.4244	0.51892	0.07
Mof_C 	C 	0.95901	0.44946	0.16912	-0.281
Mof_C 	C 	0.4322	0.59937	0.64663	0.077
Mof_C 	C 	0.079	0.8619	0.1359	0.4
Mof_C 	C 	0.10551	0.27575	0.14163	0.424
Mof_C 	C 	0.99527	0.83497	0.18769	0.185
Mof_C 	C 	0.0407	0.8211	0.1543	-0.235
Mof_C 	C 	0.95739	0.7973	0.20432	-0.315
Mof_C 	C 	0.01001	0.7311	0.15468	-0.312
Mof_C 	C 	0.5327	0.8463	0.1253	0.595
Mof_C 	C 	0.82991	0.61731	0.32907	-0.344
Mof_C 	C 	0.99682	0.38904	0.15312	0.142
Mof_C 	C 	0.5957	0.6866	0.5048	0.063
Mof_C 	C 	0.73943	0.5588	0.35674	0.193
Mof_C 	C 	0.54791	0.38301	0.47837	-0.024
Mof_C 	C 	0.58034	0.41503	0.45029	-0.017
Mof_C 	C 	0.0564	0.42203	0.19537	-0.274
Mof_C 	C 	0.59671	0.72146	0.47072	-0.107
Mof_C 	C 	0.37291	0.64469	0.66629	-0.144
Mof_C 	C 	0.04693	0.7696	0.13914	0.189
Mof_C 	C 	0.32099	0.62522	0.6828	0.01
Mof_C 	C 	0.38765	0.51554	0.66056	-0.099
Mof_C 	C 	0.60161	0.80468	0.1401	-0.508
Mof_C 	C 	0.0958	0.35948	0.18012	0.144
Mof_C 	C 	0.5199	0.78163	0.53737	-0.122
Mof_C 	C 	0.6604	0.61709	0.65531	0.059
Mof_C 	C 	0.55979	0.71432	0.5371	0.072
Mof_C 	C 	0.54666	0.38796	0.51412	-0.124
Mof_C 	C 	0.96336	0.74819	0.18749	0.316
Mof_C 	C 	0.7619	0.56483	0.31957	-0.3
Mof_C 	C 	0.84772	0.46627	0.49981	0.081
Mof_C 	C 	0.87644	0.44192	0.5304	0.052
Mof_C 	C 	0.95114	0.41111	0.52701	-0.114
Mof_C 	C 	0.99703	0.40466	0.49304	-0.02
Mof_C 	C 	0.96827	0.42901	0.46245	-0.015
Mof_C 	C 	0.89358	0.4598	0.46584	-0.119
Mof_N 	N 	0.16897	0.95485	0.05721	-0.252
Mof_N 	N 	0.37117	0.98727	0.00443	-0.238
Mof_N 	N 	0.20962	0.98794	0.04332	-0.204
Mof_N 	N 	0.22198	0.99574	0.0077	-0.249
Mof_N 	N 	0.36094	0.97564	0.04052	-0.207
Mof_N 	N 	0.42384	0.93892	0.04974	-0.236
Mof_N 	N 	0.3694	0.00081	0.12159	-0.237
Mof_N 	N 	0.30704	0.04138	0.11246	-0.196
Mof_N 	N 	0.27652	0.10093	0.12683	-0.24
Mof_N 	N 	0.12799	0.114	0.13102	-0.235
Mof_N 	N 	0.15398	0.05771	0.11613	-0.203
Mof_N 	N 	0.11346	0.02477	0.12931	-0.245
Mof_N 	N 	0.23669	0.89075	0.11827	-0.222
Mof_N 	N 	0.28301	0.91918	0.1072	-0.197
Mof_N 	N 	0.34677	0.88158	0.11448	-0.252
Mof_N 	N 	0.23706	0.1214	0.01198	-0.24
Mof_N 	N 	0.22887	0.11307	0.04739	-0.194
Mof_N 	N 	0.19941	0.16834	0.063	-0.249
Mof_N 	N 	0.81897	0.45485	0.55721	-0.252
Mof_N 	N 	0.63713	0.48727	0.50443	-0.238
Mof_N 	N 	0.75912	0.48794	0.54332	-0.204
Mof_N 	N 	0.77458	0.49574	0.5077	-0.25
Mof_N 	N 	0.6229	0.47564	0.54052	-0.207
Mof_N 	N 	0.5875	0.43892	0.54974	-0.236
Mof_N 	N 	0.5082	0.50081	0.62159	-0.237
Mof_N 	N 	0.53912	0.54138	0.61246	-0.196
Mof_N 	N 	0.49572	0.60093	0.62683	-0.24
Mof_N 	N 	0.62699	0.614	0.63102	-0.235
Mof_N 	N 	0.67218	0.55771	0.61613	-0.203
Mof_N 	N 	0.73246	0.52477	0.62931	-0.245
Mof_N 	N 	0.75429	0.39075	0.61827	-0.222
Mof_N 	N 	0.69061	0.41918	0.6072	-0.197
Mof_N 	N 	0.65717	0.38158	0.61448	-0.252
Mof_N 	N 	0.62956	0.6214	0.51198	-0.24
Mof_N 	N 	0.61067	0.61307	0.54739	-0.194
Mof_N 	N 	0.56925	0.66834	0.563	-0.249
Mof_O 	O 	0.86616	0.40603	0.65385	-0.454
Mof_O 	O 	0.92621	0.35254	0.60664	-0.442
Mof_O 	O 	0.21012	0.0976	0.93896	-0.4
Mof_O 	O 	0.32752	0.04081	0.93097	-0.477
Mof_O 	O 	0.52342	0.35027	0.59669	-0.584
Mof_O 	O 	0.5083	0.36438	0.64982	-0.458
Mof_O 	O 	0.53284	0.76745	0.62047	-0.436
Mof_O 	O 	0.4538	0.73644	0.65116	-0.507
Mof_O 	O 	0.31157	0.02427	0.70385	-0.255
Mof_O 	O 	0.30494	0.09924	0.7695	-0.257
Mof_O 	O 	0.33486	0.19741	0.67151	-0.304
Mof_O 	O 	0.15471	0.21793	0.70645	-0.261
Mof_O 	O 	0.07396	0.90603	0.15385	-0.454
Mof_O 	O 	0.11461	0.85254	0.10664	-0.442
Mof_O 	O 	0.75332	0.5976	0.43896	-0.4
Mof_O 	O 	0.7007	0.54081	0.43097	-0.477
Mof_O 	O 	0.52962	0.85027	0.09669	-0.584
Mof_O 	O 	0.4775	0.86438	0.14982	-0.458
Mof_O 	O 	0.07924	0.26745	0.12047	-0.436
Mof_O 	O 	0.1586	0.23644	0.15116	-0.507
Mof_O 	O 	0.96031	0.52427	0.20385	-0.255
Mof_O 	O 	0.82632	0.59924	0.2695	-0.257
Mof_O 	O 	0.79622	0.69741	0.17151	-0.304
Mof_O 	O 	0.92091	0.71793	0.20645	-0.26
_end
