data_functionalizedCrystal
_audit_creation_method	'EQeq! by Chris Wilmer'
_symmetry_space_group_name_H-M	'P1'
_symmetry_Int_Tables_number	1
_symmetry_cell_setting	triclinic
loop_
_symmetry_equiv_pos_as_xyz
  x,y,z
_cell_length_a	11.5486
_cell_length_b	40.8635
_cell_length_c	16.7777
_cell_angle_alpha	90
_cell_angle_beta	90
_cell_angle_gamma	90
loop_
_atom_site_label
_atom_site_type_symbol
_atom_site_fract_x
_atom_site_fract_y
_atom_site_fract_z
_atom_site_charge
Mof_Gd	Gd	0.73139	0.51445	0.7128	1.54
Mof_O 	O 	0.7103	0.6522	0.7506	-0.479
Mof_O 	O 	0.5581	0.54077	0.7271	-0.497
Mof_C 	C 	0.4428	0.5877	0.7102	-0.176
Mof_C 	C 	0.2072	0.6489	0.6605	0.134
Mof_O 	O 	0.5374	0.68516	0.5316	-0.371
Mof_O 	O 	0.7893	0.55165	0.6135	-0.425
Mof_N 	N 	0.1134	0.63139	0.6373	-0.14
Mof_O 	O 	0.6823	0.71771	0.5028	-0.388
Mof_C 	C 	0.5351	0.6087	0.7231	0.097
Mof_H 	H 	0.6088	0.6002	0.7374	0.035
Mof_O 	O 	0.6019	0.69558	0.725	-0.305
Mof_O 	O 	0.6355	0.56328	0.5396	-0.302
Mof_N 	N 	0.1859	0.6801	0.6653	-0.101
Mof_C 	C 	0.7271	0.57151	0.5747	0.362
Mof_O 	O 	0.3671	0.53469	0.7309	-0.522
Mof_C 	C 	0.5188	0.6424	0.715	-0.132
Mof_C 	C 	0.8393	0.67142	0.5748	0.021
Mof_H 	H 	0.8653	0.6935	0.5733	0.019
Mof_C 	C 	0.8772	0.61422	0.5984	0.021
Mof_H 	H 	0.9288	0.5972	0.6135	0.046
Mof_C 	C 	0.0318	0.65468	0.6256	0.122
Mof_C 	C 	0.4123	0.65473	0.6928	0.047
Mof_H 	H 	0.4028	0.6777	0.6863	0.032
Mof_N 	N 	0.0699	0.68439	0.6431	-0.159
Mof_C 	C 	0.6437	0.69043	0.5273	0.323
Mof_C 	C 	0.7272	0.66399	0.5519	-0.079
Mof_C 	C 	0.3188	0.63392	0.6799	-0.065
Mof_C 	C 	0.6894	0.63174	0.5517	0.027
Mof_H 	H 	0.6125	0.6266	0.5359	0.063
Mof_C 	C 	0.6137	0.66635	0.731	0.404
Mof_C 	C 	0.3331	0.60003	0.6895	0.062
Mof_H 	H 	0.2695	0.5856	0.682	0.012
Mof_C 	C 	0.7651	0.60692	0.5748	-0.088
Mof_C 	C 	0.4563	0.55134	0.7234	0.5
Mof_C 	C 	0.9138	0.64694	0.5997	-0.042
Mof_H 	H 	0.752	0.6659	0.774	0.303
Mof_H 	H 	0.048	0.692	0.596	0.103
Mof_Gd	Gd	0.73139	0.01445	0.2128	1.567
Mof_O 	O 	0.7103	0.1522	0.2506	-0.481
Mof_O 	O 	0.5581	0.04077	0.2271	-0.499
Mof_C 	C 	0.4428	0.0877	0.2102	-0.174
Mof_C 	C 	0.2072	0.1489	0.1605	0.144
Mof_O 	O 	0.5374	0.18516	0.0316	-0.323
Mof_O 	O 	0.7893	0.05165	0.1135	-0.415
Mof_N 	N 	0.1134	0.13139	0.1373	-0.131
Mof_O 	O 	0.6823	0.21771	0.0028	-0.341
Mof_C 	C 	0.5351	0.1087	0.2231	0.095
Mof_H 	H 	0.6088	0.1002	0.2374	0.034
Mof_O 	O 	0.6019	0.19558	0.225	-0.302
Mof_O 	O 	0.6355	0.06328	0.0396	-0.274
Mof_N 	N 	0.1859	0.1801	0.1653	-0.091
Mof_C 	C 	0.7271	0.07151	0.0747	0.364
Mof_O 	O 	0.3671	0.03469	0.2309	-0.52
Mof_C 	C 	0.5188	0.1424	0.215	-0.129
Mof_C 	C 	0.8393	0.17142	0.0748	0.019
Mof_H 	H 	0.8653	0.1935	0.0733	0.032
Mof_C 	C 	0.8772	0.11422	0.0984	0.023
Mof_H 	H 	0.9288	0.0972	0.1135	0.055
Mof_C 	C 	0.0318	0.15468	0.1256	0.133
Mof_C 	C 	0.4123	0.15473	0.1928	0.046
Mof_H 	H 	0.4028	0.1777	0.1863	0.04
Mof_N 	N 	0.0699	0.18439	0.1431	-0.162
Mof_C 	C 	0.6437	0.19043	0.0273	0.318
Mof_C 	C 	0.7272	0.16399	0.0519	-0.058
Mof_C 	C 	0.3188	0.13392	0.1799	-0.056
Mof_C 	C 	0.6894	0.13174	0.0517	0.027
Mof_H 	H 	0.6125	0.1266	0.0359	0.074
Mof_C 	C 	0.6137	0.16635	0.231	0.402
Mof_C 	C 	0.3331	0.10003	0.1895	0.063
Mof_H 	H 	0.2695	0.0856	0.182	0.02
Mof_C 	C 	0.7651	0.10692	0.0748	-0.071
Mof_C 	C 	0.4563	0.05134	0.2234	0.504
Mof_C 	C 	0.9138	0.14694	0.0997	-0.029
Mof_H 	H 	0.752	0.1659	0.274	0.302
Mof_H 	H 	0.048	0.192	0.096	0.126
Mof_Gd	Gd	0.23139	0.51445	0.2128	1.567
Mof_O 	O 	0.2103	0.6522	0.2506	-0.481
Mof_O 	O 	0.0581	0.54077	0.2271	-0.499
Mof_C 	C 	0.9428	0.5877	0.2102	-0.173
Mof_C 	C 	0.7072	0.6489	0.1605	0.144
Mof_O 	O 	0.0374	0.68516	0.0316	-0.325
Mof_O 	O 	0.2893	0.55165	0.1135	-0.415
Mof_N 	N 	0.6134	0.63139	0.1373	-0.131
Mof_O 	O 	0.1823	0.71771	0.0028	-0.341
Mof_C 	C 	0.0351	0.6087	0.2231	0.095
Mof_H 	H 	0.1088	0.6002	0.2374	0.034
Mof_O 	O 	0.1019	0.69558	0.225	-0.302
Mof_O 	O 	0.1355	0.56328	0.0396	-0.274
Mof_N 	N 	0.6859	0.6801	0.1653	-0.091
Mof_C 	C 	0.2271	0.57151	0.0747	0.364
Mof_O 	O 	0.8671	0.53469	0.2309	-0.52
Mof_C 	C 	0.0188	0.6424	0.215	-0.13
Mof_C 	C 	0.3393	0.67142	0.0748	0.019
Mof_H 	H 	0.3653	0.6935	0.0733	0.033
Mof_C 	C 	0.3772	0.61422	0.0984	0.022
Mof_H 	H 	0.4288	0.5972	0.1135	0.056
Mof_C 	C 	0.5318	0.65468	0.1256	0.132
Mof_C 	C 	0.9123	0.65473	0.1928	0.047
Mof_H 	H 	0.9028	0.6777	0.1863	0.04
Mof_N 	N 	0.5699	0.68439	0.1431	-0.162
Mof_C 	C 	0.1437	0.69043	0.0273	0.318
Mof_C 	C 	0.2272	0.66399	0.0519	-0.058
Mof_C 	C 	0.8188	0.63392	0.1799	-0.056
Mof_C 	C 	0.1894	0.63174	0.0517	0.027
Mof_H 	H 	0.1125	0.6266	0.0359	0.074
Mof_C 	C 	0.1137	0.66635	0.231	0.402
Mof_C 	C 	0.8331	0.60003	0.1895	0.063
Mof_H 	H 	0.7695	0.5856	0.182	0.02
Mof_C 	C 	0.2651	0.60692	0.0748	-0.071
Mof_C 	C 	0.9563	0.55134	0.2234	0.505
Mof_C 	C 	0.4138	0.64694	0.0997	-0.028
Mof_H 	H 	0.252	0.6659	0.274	0.302
Mof_H 	H 	0.548	0.692	0.096	0.126
Mof_Gd	Gd	0.23139	0.01445	0.7128	1.539
Mof_O 	O 	0.2103	0.1522	0.7506	-0.48
Mof_O 	O 	0.0581	0.04077	0.7271	-0.498
Mof_C 	C 	0.9428	0.0877	0.7102	-0.177
Mof_C 	C 	0.7072	0.1489	0.6605	0.134
Mof_O 	O 	0.0374	0.18516	0.5316	-0.37
Mof_O 	O 	0.2893	0.05165	0.6135	-0.425
Mof_N 	N 	0.6134	0.13139	0.6373	-0.14
Mof_O 	O 	0.1823	0.21771	0.5028	-0.388
Mof_C 	C 	0.0351	0.1087	0.7231	0.098
Mof_H 	H 	0.1088	0.1002	0.7374	0.035
Mof_O 	O 	0.1019	0.19558	0.725	-0.305
Mof_O 	O 	0.1355	0.06328	0.5396	-0.302
Mof_N 	N 	0.6859	0.1801	0.6653	-0.101
Mof_C 	C 	0.2271	0.07151	0.5747	0.362
Mof_O 	O 	0.8671	0.03469	0.7309	-0.522
Mof_C 	C 	0.0188	0.1424	0.715	-0.131
Mof_C 	C 	0.3393	0.17142	0.5748	0.022
Mof_H 	H 	0.3653	0.1935	0.5733	0.019
Mof_C 	C 	0.3772	0.11422	0.5984	0.022
Mof_H 	H 	0.4288	0.0972	0.6135	0.046
Mof_C 	C 	0.5318	0.15468	0.6256	0.123
Mof_C 	C 	0.9123	0.15473	0.6928	0.046
Mof_H 	H 	0.9028	0.1777	0.6863	0.032
Mof_N 	N 	0.5699	0.18439	0.6431	-0.159
Mof_C 	C 	0.1437	0.19043	0.5273	0.323
Mof_C 	C 	0.2272	0.16399	0.5519	-0.079
Mof_C 	C 	0.8188	0.13392	0.6799	-0.065
Mof_C 	C 	0.1894	0.13174	0.5517	0.028
Mof_H 	H 	0.1125	0.1266	0.5359	0.063
Mof_C 	C 	0.1137	0.16635	0.731	0.404
Mof_C 	C 	0.8331	0.10003	0.6895	0.062
Mof_H 	H 	0.7695	0.0856	0.682	0.012
Mof_C 	C 	0.2651	0.10692	0.5748	-0.088
Mof_C 	C 	0.9563	0.05134	0.7234	0.5
Mof_C 	C 	0.4138	0.14694	0.5997	-0.043
Mof_H 	H 	0.252	0.1659	0.774	0.303
Mof_H 	H 	0.548	0.192	0.596	0.103
Mof_Gd	Gd	0.26861	0.48555	0.7128	1.539
Mof_O 	O 	0.2897	0.3478	0.7506	-0.48
Mof_O 	O 	0.4419	0.45923	0.7271	-0.498
Mof_C 	C 	0.5572	0.4123	0.7102	-0.177
Mof_C 	C 	0.7928	0.3511	0.6605	0.134
Mof_O 	O 	0.4626	0.31484	0.5316	-0.371
Mof_O 	O 	0.2107	0.44835	0.6135	-0.425
Mof_N 	N 	0.8866	0.36861	0.6373	-0.14
Mof_O 	O 	0.3177	0.28229	0.5028	-0.388
Mof_C 	C 	0.4649	0.3913	0.7231	0.097
Mof_H 	H 	0.3912	0.3998	0.7374	0.035
Mof_O 	O 	0.3981	0.30442	0.725	-0.305
Mof_O 	O 	0.3645	0.43672	0.5396	-0.302
Mof_N 	N 	0.8141	0.3199	0.6653	-0.101
Mof_C 	C 	0.2729	0.42849	0.5747	0.362
Mof_O 	O 	0.6329	0.46531	0.7309	-0.522
Mof_C 	C 	0.4812	0.3576	0.715	-0.132
Mof_C 	C 	0.1607	0.32858	0.5748	0.021
Mof_H 	H 	0.1347	0.3065	0.5733	0.019
Mof_C 	C 	0.1228	0.38578	0.5984	0.021
Mof_H 	H 	0.0712	0.4028	0.6135	0.046
Mof_C 	C 	0.9682	0.34532	0.6256	0.122
Mof_C 	C 	0.5877	0.34527	0.6928	0.047
Mof_H 	H 	0.5972	0.3223	0.6863	0.032
Mof_N 	N 	0.9301	0.31561	0.6431	-0.159
Mof_C 	C 	0.3563	0.30957	0.5273	0.323
Mof_C 	C 	0.2728	0.33601	0.5519	-0.079
Mof_C 	C 	0.6812	0.36608	0.6799	-0.065
Mof_C 	C 	0.3106	0.36826	0.5517	0.027
Mof_H 	H 	0.3875	0.3734	0.5359	0.063
Mof_C 	C 	0.3863	0.33365	0.731	0.404
Mof_C 	C 	0.6669	0.39997	0.6895	0.062
Mof_H 	H 	0.7305	0.4144	0.682	0.012
Mof_C 	C 	0.2349	0.39308	0.5748	-0.088
Mof_C 	C 	0.5437	0.44866	0.7234	0.5
Mof_C 	C 	0.0862	0.35306	0.5997	-0.042
Mof_H 	H 	0.248	0.3341	0.774	0.303
Mof_H 	H 	0.952	0.308	0.596	0.103
Mof_Gd	Gd	0.26861	0.98555	0.2128	1.567
Mof_O 	O 	0.2897	0.8478	0.2506	-0.481
Mof_O 	O 	0.4419	0.95923	0.2271	-0.499
Mof_C 	C 	0.5572	0.9123	0.2102	-0.174
Mof_C 	C 	0.7928	0.8511	0.1605	0.144
Mof_O 	O 	0.4626	0.81484	0.0316	-0.323
Mof_O 	O 	0.2107	0.94835	0.1135	-0.415
Mof_N 	N 	0.8866	0.86861	0.1373	-0.131
Mof_O 	O 	0.3177	0.78229	0.0028	-0.341
Mof_C 	C 	0.4649	0.8913	0.2231	0.095
Mof_H 	H 	0.3912	0.8998	0.2374	0.034
Mof_O 	O 	0.3981	0.80442	0.225	-0.302
Mof_O 	O 	0.3645	0.93672	0.0396	-0.274
Mof_N 	N 	0.8141	0.8199	0.1653	-0.091
Mof_C 	C 	0.2729	0.92849	0.0747	0.364
Mof_O 	O 	0.6329	0.96531	0.2309	-0.52
Mof_C 	C 	0.4812	0.8576	0.215	-0.129
Mof_C 	C 	0.1607	0.82858	0.0748	0.019
Mof_H 	H 	0.1347	0.8065	0.0733	0.032
Mof_C 	C 	0.1228	0.88578	0.0984	0.023
Mof_H 	H 	0.0712	0.9028	0.1135	0.055
Mof_C 	C 	0.9682	0.84532	0.1256	0.133
Mof_C 	C 	0.5877	0.84527	0.1928	0.046
Mof_H 	H 	0.5972	0.8223	0.1863	0.04
Mof_N 	N 	0.9301	0.81561	0.1431	-0.162
Mof_C 	C 	0.3563	0.80957	0.0273	0.318
Mof_C 	C 	0.2728	0.83601	0.0519	-0.058
Mof_C 	C 	0.6812	0.86608	0.1799	-0.056
Mof_C 	C 	0.3106	0.86826	0.0517	0.027
Mof_H 	H 	0.3875	0.8734	0.0359	0.074
Mof_C 	C 	0.3863	0.83365	0.231	0.402
Mof_C 	C 	0.6669	0.89997	0.1895	0.063
Mof_H 	H 	0.7305	0.9144	0.182	0.02
Mof_C 	C 	0.2349	0.89308	0.0748	-0.071
Mof_C 	C 	0.5437	0.94866	0.2234	0.504
Mof_C 	C 	0.0862	0.85306	0.0997	-0.029
Mof_H 	H 	0.248	0.8341	0.274	0.302
Mof_H 	H 	0.952	0.808	0.096	0.126
Mof_Gd	Gd	0.76861	0.48555	0.2128	1.567
Mof_O 	O 	0.7897	0.3478	0.2506	-0.481
Mof_O 	O 	0.9419	0.45923	0.2271	-0.499
Mof_C 	C 	0.0572	0.4123	0.2102	-0.173
Mof_C 	C 	0.2928	0.3511	0.1605	0.144
Mof_O 	O 	0.9626	0.31484	0.0316	-0.325
Mof_O 	O 	0.7107	0.44835	0.1135	-0.415
Mof_N 	N 	0.3866	0.36861	0.1373	-0.131
Mof_O 	O 	0.8177	0.28229	0.0028	-0.341
Mof_C 	C 	0.9649	0.3913	0.2231	0.095
Mof_H 	H 	0.8912	0.3998	0.2374	0.034
Mof_O 	O 	0.8981	0.30442	0.225	-0.302
Mof_O 	O 	0.8645	0.43672	0.0396	-0.274
Mof_N 	N 	0.3141	0.3199	0.1653	-0.091
Mof_C 	C 	0.7729	0.42849	0.0747	0.364
Mof_O 	O 	0.1329	0.46531	0.2309	-0.52
Mof_C 	C 	0.9812	0.3576	0.215	-0.13
Mof_C 	C 	0.6607	0.32858	0.0748	0.019
Mof_H 	H 	0.6347	0.3065	0.0733	0.033
Mof_C 	C 	0.6228	0.38578	0.0984	0.022
Mof_H 	H 	0.5712	0.4028	0.1135	0.056
Mof_C 	C 	0.4682	0.34532	0.1256	0.132
Mof_C 	C 	0.0877	0.34527	0.1928	0.047
Mof_H 	H 	0.0972	0.3223	0.1863	0.04
Mof_N 	N 	0.4301	0.31561	0.1431	-0.162
Mof_C 	C 	0.8563	0.30957	0.0273	0.318
Mof_C 	C 	0.7728	0.33601	0.0519	-0.058
Mof_C 	C 	0.1812	0.36608	0.1799	-0.056
Mof_C 	C 	0.8106	0.36826	0.0517	0.027
Mof_H 	H 	0.8875	0.3734	0.0359	0.074
Mof_C 	C 	0.8863	0.33365	0.231	0.402
Mof_C 	C 	0.1669	0.39997	0.1895	0.063
Mof_H 	H 	0.2305	0.4144	0.182	0.02
Mof_C 	C 	0.7349	0.39308	0.0748	-0.071
Mof_C 	C 	0.0437	0.44866	0.2234	0.505
Mof_C 	C 	0.5862	0.35306	0.0997	-0.028
Mof_H 	H 	0.748	0.3341	0.274	0.302
Mof_H 	H 	0.452	0.308	0.096	0.126
Mof_Gd	Gd	0.76861	0.98555	0.7128	1.539
Mof_O 	O 	0.7897	0.8478	0.7506	-0.48
Mof_O 	O 	0.9419	0.95923	0.7271	-0.498
Mof_C 	C 	0.0572	0.9123	0.7102	-0.177
Mof_C 	C 	0.2928	0.8511	0.6605	0.134
Mof_O 	O 	0.9626	0.81484	0.5316	-0.37
Mof_O 	O 	0.7107	0.94835	0.6135	-0.425
Mof_N 	N 	0.3866	0.86861	0.6373	-0.14
Mof_O 	O 	0.8177	0.78229	0.5028	-0.388
Mof_C 	C 	0.9649	0.8913	0.7231	0.098
Mof_H 	H 	0.8912	0.8998	0.7374	0.035
Mof_O 	O 	0.8981	0.80442	0.725	-0.305
Mof_O 	O 	0.8645	0.93672	0.5396	-0.302
Mof_N 	N 	0.3141	0.8199	0.6653	-0.101
Mof_C 	C 	0.7729	0.92849	0.5747	0.362
Mof_O 	O 	0.1329	0.96531	0.7309	-0.522
Mof_C 	C 	0.9812	0.8576	0.715	-0.131
Mof_C 	C 	0.6607	0.82858	0.5748	0.022
Mof_H 	H 	0.6347	0.8065	0.5733	0.019
Mof_C 	C 	0.6228	0.88578	0.5984	0.022
Mof_H 	H 	0.5712	0.9028	0.6135	0.046
Mof_C 	C 	0.4682	0.84532	0.6256	0.123
Mof_C 	C 	0.0877	0.84527	0.6928	0.046
Mof_H 	H 	0.0972	0.8223	0.6863	0.032
Mof_N 	N 	0.4301	0.81561	0.6431	-0.159
Mof_C 	C 	0.8563	0.80957	0.5273	0.323
Mof_C 	C 	0.7728	0.83601	0.5519	-0.079
Mof_C 	C 	0.1812	0.86608	0.6799	-0.065
Mof_C 	C 	0.8106	0.86826	0.5517	0.028
Mof_H 	H 	0.8875	0.8734	0.5359	0.063
Mof_C 	C 	0.8863	0.83365	0.731	0.404
Mof_C 	C 	0.1669	0.89997	0.6895	0.062
Mof_H 	H 	0.2305	0.9144	0.682	0.012
Mof_C 	C 	0.7349	0.89308	0.5748	-0.088
Mof_C 	C 	0.0437	0.94866	0.7234	0.5
Mof_C 	C 	0.5862	0.85306	0.5997	-0.043
Mof_H 	H 	0.748	0.8341	0.774	0.303
Mof_H 	H 	0.452	0.808	0.596	0.103
Mof_Gd	Gd	0.98139	0.73555	0.9628	1.43
Mof_O 	O 	0.9603	0.5978	0.0006	-0.382
Mof_O 	O 	0.8081	0.70923	0.9771	-0.498
Mof_C 	C 	0.6928	0.6623	0.9602	-0.181
Mof_C 	C 	0.4572	0.6011	0.9105	0.121
Mof_O 	O 	0.7874	0.56484	0.7816	-0.371
Mof_O 	O 	0.0393	0.69835	0.8635	-0.431
Mof_N 	N 	0.3634	0.61861	0.8873	-0.147
Mof_O 	O 	0.9323	0.53229	0.7528	-0.391
Mof_C 	C 	0.7851	0.6413	0.9731	0.075
Mof_H 	H 	0.8588	0.6498	0.9874	0.016
Mof_O 	O 	0.8519	0.55442	0.975	-0.31
Mof_O 	O 	0.8855	0.68672	0.7896	-0.299
Mof_N 	N 	0.4359	0.5699	0.9153	-0.11
Mof_C 	C 	0.9771	0.67849	0.8247	0.363
Mof_O 	O 	0.6171	0.71531	0.9809	-0.527
Mof_C 	C 	0.7688	0.6076	0.965	-0.119
Mof_C 	C 	0.0893	0.57858	0.8248	0.019
Mof_H 	H 	0.1153	0.5565	0.8233	0.013
Mof_C 	C 	0.1272	0.63578	0.8484	0.018
Mof_H 	H 	0.1788	0.6528	0.8635	0.034
Mof_C 	C 	0.2818	0.59532	0.8756	0.112
Mof_C 	C 	0.6623	0.59527	0.9428	0.029
Mof_H 	H 	0.6528	0.5723	0.9363	0.03
Mof_N 	N 	0.3199	0.56561	0.8931	-0.169
Mof_C 	C 	0.8937	0.55957	0.7773	0.323
Mof_C 	C 	0.9772	0.58601	0.8019	-0.084
Mof_C 	C 	0.5688	0.61608	0.9299	-0.069
Mof_C 	C 	0.9394	0.61826	0.8017	0.029
Mof_H 	H 	0.8625	0.6234	0.7859	0.062
Mof_C 	C 	0.8637	0.58365	0.981	0.308
Mof_C 	C 	0.5831	0.64997	0.9395	0.048
Mof_H 	H 	0.5195	0.6644	0.932	0.004
Mof_C 	C 	0.0151	0.64308	0.8248	-0.097
Mof_C 	C 	0.7063	0.69866	0.9734	0.484
Mof_C 	C 	0.1638	0.60306	0.8497	-0.055
Mof_H 	H 	0.002	0.5841	0.024	0.285
Mof_H 	H 	0.298	0.558	0.846	0.103
Mof_Gd	Gd	0.98139	0.23555	0.4628	1.546
Mof_O 	O 	0.9603	0.0978	0.5006	-0.481
Mof_O 	O 	0.8081	0.20923	0.4771	-0.498
Mof_C 	C 	0.6928	0.1623	0.4602	-0.178
Mof_C 	C 	0.4572	0.1011	0.4105	0.134
Mof_O 	O 	0.7874	0.06484	0.2816	-0.373
Mof_O 	O 	0.0393	0.19835	0.3635	-0.424
Mof_N 	N 	0.3634	0.11861	0.3873	-0.14
Mof_O 	O 	0.9323	0.03229	0.2528	-0.386
Mof_C 	C 	0.7851	0.1413	0.4731	0.097
Mof_H 	H 	0.8588	0.1498	0.4874	0.034
Mof_O 	O 	0.8519	0.05442	0.475	-0.307
Mof_O 	O 	0.8855	0.18672	0.2896	-0.301
Mof_N 	N 	0.4359	0.0699	0.4153	-0.101
Mof_C 	C 	0.9771	0.17849	0.3247	0.36
Mof_O 	O 	0.6171	0.21531	0.4809	-0.521
Mof_C 	C 	0.7688	0.1076	0.465	-0.133
Mof_C 	C 	0.0893	0.07858	0.3248	0.023
Mof_H 	H 	0.1153	0.0565	0.3233	0.019
Mof_C 	C 	0.1272	0.13578	0.3484	0.02
Mof_H 	H 	0.1788	0.1528	0.3635	0.046
Mof_C 	C 	0.2818	0.09532	0.3756	0.122
Mof_C 	C 	0.6623	0.09527	0.4428	0.048
Mof_H 	H 	0.6528	0.0723	0.4363	0.032
Mof_N 	N 	0.3199	0.06561	0.3931	-0.159
Mof_C 	C 	0.8937	0.05957	0.2773	0.323
Mof_C 	C 	0.9772	0.08601	0.3019	-0.079
Mof_C 	C 	0.5688	0.11608	0.4299	-0.066
Mof_C 	C 	0.9394	0.11826	0.3017	0.026
Mof_H 	H 	0.8625	0.1234	0.2859	0.063
Mof_C 	C 	0.8637	0.08365	0.481	0.405
Mof_C 	C 	0.5831	0.14997	0.4395	0.062
Mof_H 	H 	0.5195	0.1644	0.432	0.012
Mof_C 	C 	0.0151	0.14308	0.3248	-0.086
Mof_C 	C 	0.7063	0.19866	0.4734	0.501
Mof_C 	C 	0.1638	0.10306	0.3497	-0.043
Mof_H 	H 	0.002	0.0841	0.524	0.303
Mof_H 	H 	0.298	0.058	0.346	0.103
Mof_Gd	Gd	0.48139	0.73555	0.4628	1.548
Mof_O 	O 	0.4603	0.5978	0.5006	-0.481
Mof_O 	O 	0.3081	0.70923	0.4771	-0.498
Mof_C 	C 	0.1928	0.6623	0.4602	-0.178
Mof_C 	C 	0.9572	0.6011	0.4105	0.134
Mof_O 	O 	0.2874	0.56484	0.2816	-0.373
Mof_O 	O 	0.5393	0.69835	0.3635	-0.425
Mof_N 	N 	0.8634	0.61861	0.3873	-0.14
Mof_O 	O 	0.4323	0.53229	0.2528	-0.386
Mof_C 	C 	0.2851	0.6413	0.4731	0.097
Mof_H 	H 	0.3588	0.6498	0.4874	0.034
Mof_O 	O 	0.3519	0.55442	0.475	-0.307
Mof_O 	O 	0.3855	0.68672	0.2896	-0.301
Mof_N 	N 	0.9359	0.5699	0.4153	-0.101
Mof_C 	C 	0.4771	0.67849	0.3247	0.363
Mof_O 	O 	0.1171	0.71531	0.4809	-0.521
Mof_C 	C 	0.2688	0.6076	0.465	-0.133
Mof_C 	C 	0.5893	0.57858	0.3248	0.022
Mof_H 	H 	0.6153	0.5565	0.3233	0.019
Mof_C 	C 	0.6272	0.63578	0.3484	0.021
Mof_H 	H 	0.6788	0.6528	0.3635	0.046
Mof_C 	C 	0.7818	0.59532	0.3756	0.122
Mof_C 	C 	0.1623	0.59527	0.4428	0.048
Mof_H 	H 	0.1528	0.5723	0.4363	0.032
Mof_N 	N 	0.8199	0.56561	0.3931	-0.159
Mof_C 	C 	0.3937	0.55957	0.2773	0.323
Mof_C 	C 	0.4772	0.58601	0.3019	-0.079
Mof_C 	C 	0.0688	0.61608	0.4299	-0.066
Mof_C 	C 	0.4394	0.61826	0.3017	0.027
Mof_H 	H 	0.3625	0.6234	0.2859	0.062
Mof_C 	C 	0.3637	0.58365	0.481	0.404
Mof_C 	C 	0.0831	0.64997	0.4395	0.062
Mof_H 	H 	0.0195	0.6644	0.432	0.012
Mof_C 	C 	0.5151	0.64308	0.3248	-0.088
Mof_C 	C 	0.2063	0.69866	0.4734	0.501
Mof_C 	C 	0.6638	0.60306	0.3497	-0.043
Mof_H 	H 	0.502	0.5841	0.524	0.302
Mof_H 	H 	0.798	0.558	0.346	0.103
Mof_Gd	Gd	0.48139	0.23555	0.9628	1.426
Mof_O 	O 	0.4603	0.0978	0.0006	-0.381
Mof_O 	O 	0.3081	0.20923	0.9771	-0.498
Mof_C 	C 	0.1928	0.1623	0.9602	-0.181
Mof_C 	C 	0.9572	0.1011	0.9105	0.12
Mof_O 	O 	0.2874	0.06484	0.7816	-0.371
Mof_O 	O 	0.5393	0.19835	0.8635	-0.43
Mof_N 	N 	0.8634	0.11861	0.8873	-0.147
Mof_O 	O 	0.4323	0.03229	0.7528	-0.391
Mof_C 	C 	0.2851	0.1413	0.9731	0.075
Mof_H 	H 	0.3588	0.1498	0.9874	0.016
Mof_O 	O 	0.3519	0.05442	0.975	-0.31
Mof_O 	O 	0.3855	0.18672	0.7896	-0.299
Mof_N 	N 	0.9359	0.0699	0.9153	-0.11
Mof_C 	C 	0.4771	0.17849	0.8247	0.361
Mof_O 	O 	0.1171	0.21531	0.9809	-0.527
Mof_C 	C 	0.2688	0.1076	0.965	-0.119
Mof_C 	C 	0.5893	0.07858	0.8248	0.019
Mof_H 	H 	0.6153	0.0565	0.8233	0.013
Mof_C 	C 	0.6272	0.13578	0.8484	0.017
Mof_H 	H 	0.6788	0.1528	0.8635	0.034
Mof_C 	C 	0.7818	0.09532	0.8756	0.112
Mof_C 	C 	0.1623	0.09527	0.9428	0.028
Mof_H 	H 	0.1528	0.0723	0.9363	0.03
Mof_N 	N 	0.8199	0.06561	0.8931	-0.169
Mof_C 	C 	0.3937	0.05957	0.7773	0.323
Mof_C 	C 	0.4772	0.08601	0.8019	-0.084
Mof_C 	C 	0.0688	0.11608	0.9299	-0.068
Mof_C 	C 	0.4394	0.11826	0.8017	0.028
Mof_H 	H 	0.3625	0.1234	0.7859	0.063
Mof_C 	C 	0.3637	0.08365	0.981	0.307
Mof_C 	C 	0.0831	0.14997	0.9395	0.048
Mof_H 	H 	0.0195	0.1644	0.932	0.004
Mof_C 	C 	0.5151	0.14308	0.8248	-0.096
Mof_C 	C 	0.2063	0.19866	0.9734	0.484
Mof_C 	C 	0.6638	0.10306	0.8497	-0.055
Mof_H 	H 	0.502	0.0841	0.024	0.285
Mof_H 	H 	0.798	0.058	0.846	0.103
Mof_Gd	Gd	0.51861	0.76445	0.9628	1.426
Mof_O 	O 	0.5397	0.9022	0.0006	-0.381
Mof_O 	O 	0.6919	0.79077	0.9771	-0.498
Mof_C 	C 	0.8072	0.8377	0.9602	-0.181
Mof_C 	C 	0.0428	0.8989	0.9105	0.12
Mof_O 	O 	0.7126	0.93516	0.7816	-0.371
Mof_O 	O 	0.4607	0.80165	0.8635	-0.43
Mof_N 	N 	0.1366	0.88139	0.8873	-0.147
Mof_O 	O 	0.5677	0.96771	0.7528	-0.391
Mof_C 	C 	0.7149	0.8587	0.9731	0.075
Mof_H 	H 	0.6412	0.8502	0.9874	0.016
Mof_O 	O 	0.6481	0.94558	0.975	-0.31
Mof_O 	O 	0.6145	0.81328	0.7896	-0.299
Mof_N 	N 	0.0641	0.9301	0.9153	-0.11
Mof_C 	C 	0.5229	0.82151	0.8247	0.361
Mof_O 	O 	0.8829	0.78469	0.9809	-0.527
Mof_C 	C 	0.7312	0.8924	0.965	-0.119
Mof_C 	C 	0.4107	0.92142	0.8248	0.019
Mof_H 	H 	0.3847	0.9435	0.8233	0.013
Mof_C 	C 	0.3728	0.86422	0.8484	0.017
Mof_H 	H 	0.3212	0.8472	0.8635	0.034
Mof_C 	C 	0.2182	0.90468	0.8756	0.112
Mof_C 	C 	0.8377	0.90473	0.9428	0.028
Mof_H 	H 	0.8472	0.9277	0.9363	0.03
Mof_N 	N 	0.1801	0.93439	0.8931	-0.169
Mof_C 	C 	0.6063	0.94043	0.7773	0.323
Mof_C 	C 	0.5228	0.91399	0.8019	-0.084
Mof_C 	C 	0.9312	0.88392	0.9299	-0.068
Mof_C 	C 	0.5606	0.88174	0.8017	0.028
Mof_H 	H 	0.6375	0.8766	0.7859	0.063
Mof_C 	C 	0.6363	0.91635	0.981	0.307
Mof_C 	C 	0.9169	0.85003	0.9395	0.048
Mof_H 	H 	0.9805	0.8356	0.932	0.004
Mof_C 	C 	0.4849	0.85692	0.8248	-0.096
Mof_C 	C 	0.7937	0.80134	0.9734	0.484
Mof_C 	C 	0.3362	0.89694	0.8497	-0.055
Mof_H 	H 	0.498	0.9159	0.024	0.285
Mof_H 	H 	0.202	0.942	0.846	0.103
Mof_Gd	Gd	0.51861	0.26445	0.4628	1.548
Mof_O 	O 	0.5397	0.4022	0.5006	-0.481
Mof_O 	O 	0.6919	0.29077	0.4771	-0.498
Mof_C 	C 	0.8072	0.3377	0.4602	-0.178
Mof_C 	C 	0.0428	0.3989	0.4105	0.134
Mof_O 	O 	0.7126	0.43516	0.2816	-0.373
Mof_O 	O 	0.4607	0.30165	0.3635	-0.425
Mof_N 	N 	0.1366	0.38139	0.3873	-0.14
Mof_O 	O 	0.5677	0.46771	0.2528	-0.386
Mof_C 	C 	0.7149	0.3587	0.4731	0.097
Mof_H 	H 	0.6412	0.3502	0.4874	0.034
Mof_O 	O 	0.6481	0.44558	0.475	-0.307
Mof_O 	O 	0.6145	0.31328	0.2896	-0.301
Mof_N 	N 	0.0641	0.4301	0.4153	-0.101
Mof_C 	C 	0.5229	0.32151	0.3247	0.363
Mof_O 	O 	0.8829	0.28469	0.4809	-0.521
Mof_C 	C 	0.7312	0.3924	0.465	-0.133
Mof_C 	C 	0.4107	0.42142	0.3248	0.022
Mof_H 	H 	0.3847	0.4435	0.3233	0.019
Mof_C 	C 	0.3728	0.36422	0.3484	0.021
Mof_H 	H 	0.3212	0.3472	0.3635	0.046
Mof_C 	C 	0.2182	0.40468	0.3756	0.122
Mof_C 	C 	0.8377	0.40473	0.4428	0.048
Mof_H 	H 	0.8472	0.4277	0.4363	0.032
Mof_N 	N 	0.1801	0.43439	0.3931	-0.159
Mof_C 	C 	0.6063	0.44043	0.2773	0.323
Mof_C 	C 	0.5228	0.41399	0.3019	-0.079
Mof_C 	C 	0.9312	0.38392	0.4299	-0.066
Mof_C 	C 	0.5606	0.38174	0.3017	0.027
Mof_H 	H 	0.6375	0.3766	0.2859	0.062
Mof_C 	C 	0.6363	0.41635	0.481	0.404
Mof_C 	C 	0.9169	0.35003	0.4395	0.062
Mof_H 	H 	0.9805	0.3356	0.432	0.012
Mof_C 	C 	0.4849	0.35692	0.3248	-0.088
Mof_C 	C 	0.7937	0.30134	0.4734	0.501
Mof_C 	C 	0.3362	0.39694	0.3497	-0.043
Mof_H 	H 	0.498	0.4159	0.524	0.302
Mof_H 	H 	0.202	0.442	0.346	0.103
Mof_Gd	Gd	0.01861	0.76445	0.4628	1.546
Mof_O 	O 	0.0397	0.9022	0.5006	-0.481
Mof_O 	O 	0.1919	0.79077	0.4771	-0.498
Mof_C 	C 	0.3072	0.8377	0.4602	-0.178
Mof_C 	C 	0.5428	0.8989	0.4105	0.134
Mof_O 	O 	0.2126	0.93516	0.2816	-0.373
Mof_O 	O 	0.9607	0.80165	0.3635	-0.424
Mof_N 	N 	0.6366	0.88139	0.3873	-0.14
Mof_O 	O 	0.0677	0.96771	0.2528	-0.386
Mof_C 	C 	0.2149	0.8587	0.4731	0.097
Mof_H 	H 	0.1412	0.8502	0.4874	0.034
Mof_O 	O 	0.1481	0.94558	0.475	-0.307
Mof_O 	O 	0.1145	0.81328	0.2896	-0.301
Mof_N 	N 	0.5641	0.9301	0.4153	-0.101
Mof_C 	C 	0.0229	0.82151	0.3247	0.36
Mof_O 	O 	0.3829	0.78469	0.4809	-0.521
Mof_C 	C 	0.2312	0.8924	0.465	-0.133
Mof_C 	C 	0.9107	0.92142	0.3248	0.023
Mof_H 	H 	0.8847	0.9435	0.3233	0.019
Mof_C 	C 	0.8728	0.86422	0.3484	0.02
Mof_H 	H 	0.8212	0.8472	0.3635	0.046
Mof_C 	C 	0.7182	0.90468	0.3756	0.122
Mof_C 	C 	0.3377	0.90473	0.4428	0.048
Mof_H 	H 	0.3472	0.9277	0.4363	0.032
Mof_N 	N 	0.6801	0.93439	0.3931	-0.159
Mof_C 	C 	0.1063	0.94043	0.2773	0.323
Mof_C 	C 	0.0228	0.91399	0.3019	-0.079
Mof_C 	C 	0.4312	0.88392	0.4299	-0.066
Mof_C 	C 	0.0606	0.88174	0.3017	0.026
Mof_H 	H 	0.1375	0.8766	0.2859	0.063
Mof_C 	C 	0.1363	0.91635	0.481	0.405
Mof_C 	C 	0.4169	0.85003	0.4395	0.062
Mof_H 	H 	0.4805	0.8356	0.432	0.012
Mof_C 	C 	0.9849	0.85692	0.3248	-0.086
Mof_C 	C 	0.2937	0.80134	0.4734	0.501
Mof_C 	C 	0.8362	0.89694	0.3497	-0.043
Mof_H 	H 	0.998	0.9159	0.524	0.303
Mof_H 	H 	0.702	0.942	0.346	0.103
Mof_Gd	Gd	0.01861	0.26445	0.9628	1.43
Mof_O 	O 	0.0397	0.4022	0.0006	-0.382
Mof_O 	O 	0.1919	0.29077	0.9771	-0.498
Mof_C 	C 	0.3072	0.3377	0.9602	-0.181
Mof_C 	C 	0.5428	0.3989	0.9105	0.121
Mof_O 	O 	0.2126	0.43516	0.7816	-0.371
Mof_O 	O 	0.9607	0.30165	0.8635	-0.431
Mof_N 	N 	0.6366	0.38139	0.8873	-0.147
Mof_O 	O 	0.0677	0.46771	0.7528	-0.391
Mof_C 	C 	0.2149	0.3587	0.9731	0.075
Mof_H 	H 	0.1412	0.3502	0.9874	0.016
Mof_O 	O 	0.1481	0.44558	0.975	-0.31
Mof_O 	O 	0.1145	0.31328	0.7896	-0.299
Mof_N 	N 	0.5641	0.4301	0.9153	-0.11
Mof_C 	C 	0.0229	0.32151	0.8247	0.363
Mof_O 	O 	0.3829	0.28469	0.9809	-0.527
Mof_C 	C 	0.2312	0.3924	0.965	-0.119
Mof_C 	C 	0.9107	0.42142	0.8248	0.019
Mof_H 	H 	0.8847	0.4435	0.8233	0.013
Mof_C 	C 	0.8728	0.36422	0.8484	0.018
Mof_H 	H 	0.8212	0.3472	0.8635	0.034
Mof_C 	C 	0.7182	0.40468	0.8756	0.112
Mof_C 	C 	0.3377	0.40473	0.9428	0.029
Mof_H 	H 	0.3472	0.4277	0.9363	0.03
Mof_N 	N 	0.6801	0.43439	0.8931	-0.169
Mof_C 	C 	0.1063	0.44043	0.7773	0.323
Mof_C 	C 	0.0228	0.41399	0.8019	-0.084
Mof_C 	C 	0.4312	0.38392	0.9299	-0.069
Mof_C 	C 	0.0606	0.38174	0.8017	0.029
Mof_H 	H 	0.1375	0.3766	0.7859	0.062
Mof_C 	C 	0.1363	0.41635	0.981	0.308
Mof_C 	C 	0.4169	0.35003	0.9395	0.048
Mof_H 	H 	0.4805	0.3356	0.932	0.004
Mof_C 	C 	0.9849	0.35692	0.8248	-0.097
Mof_C 	C 	0.2937	0.30134	0.9734	0.484
Mof_C 	C 	0.8362	0.39694	0.8497	-0.055
Mof_H 	H 	0.998	0.4159	0.024	0.285
Mof_H 	H 	0.702	0.442	0.846	0.103
_end
