data_functionalizedCrystal
_audit_creation_method	'EQeq! by Chris Wilmer'
_symmetry_space_group_name_H-M	'P1'
_symmetry_Int_Tables_number	1
_symmetry_cell_setting	triclinic
loop_
_symmetry_equiv_pos_as_xyz
  x,y,z
_cell_length_a	26.122
_cell_length_b	12.7436
_cell_length_c	20.789
_cell_angle_alpha	90
_cell_angle_beta	122.125
_cell_angle_gamma	90
loop_
_atom_site_label
_atom_site_type_symbol
_atom_site_fract_x
_atom_site_fract_y
_atom_site_fract_z
_atom_site_charge
Mof_N 	N 	0.09505	0.017	0.1051	-0.19
Mof_N 	N 	0.19442	0.0254	0.1763	-0.086
Mof_N 	N 	0.439	0.7973	0.5391	-0.112
Mof_N 	N 	0.48799	0.6563	0.5399	-0.183
Mof_N 	N 	0.96225	0.0799	0.0641	-0.172
Mof_N 	N 	0.91446	0.1932	0.0932	-0.106
Mof_C 	C 	0.1467	0.9847	0.1141	0.151
Mof_H 	H 	0.1493	0.939	0.0811	0.024
Mof_C 	C 	0.1119	0.0828	0.1642	0.047
Mof_H 	H 	0.0853	0.1185	0.1734	0.032
Mof_C 	C 	0.1729	0.089	0.2083	0.004
Mof_H 	H 	0.1955	0.1292	0.2519	0.128
Mof_C 	C 	0.2584	0.0068	0.203	-0.08
Mof_H 	H 	0.2763	0.0711	0.1987	0.143
Mof_H 	H 	0.2613	0.9539	0.1715	0.131
Mof_C 	C 	0.29266	0.9705	0.285	-0.023
Mof_C 	C 	0.2805	0.8769	0.3054	0.209
Mof_C 	C 	0.3104	0.8424	0.3788	0.267
Mof_C 	C 	0.3564	0.9039	0.4382	-0.118
Mof_C 	C 	0.3686	0.9963	0.4169	0.3
Mof_C 	C 	0.3374	0.0306	0.3427	0.201
Mof_C 	C 	0.3894	0.8693	0.52	0.01
Mof_H 	H 	0.4053	0.9305	0.5525	0.084
Mof_H 	H 	0.361	0.8351	0.5298	0.083
Mof_C 	C 	0.4989	0.8167	0.5846	0.031
Mof_H 	H 	0.5167	0.8791	0.6098	0.087
Mof_C 	C 	0.5275	0.7293	0.5864	0.025
Mof_H 	H 	0.5692	0.72	0.6158	0.09
Mof_C 	C 	0.4354	0.7016	0.5129	0.112
Mof_H 	H 	0.3989	0.6693	0.4784	0.034
Mof_C 	C 	0.9543	0.0377	0.1173	0.007
Mof_H 	H 	0.967	0.9709	0.1378	0.05
Mof_C 	C 	0.9247	0.1073	0.1374	0.012
Mof_H 	H 	0.914	0.0976	0.1731	0.06
Mof_C 	C 	0.9372	0.174	0.051	0.109
Mof_H 	H 	0.9357	0.2212	0.016	0.047
Mof_C 	C 	0.8809	0.287	0.09	0.001
Mof_H 	H 	0.8905	0.3441	0.0673	0.095
Mof_H 	H 	0.8932	0.3078	0.1411	0.083
Mof_C 	C 	0.8128	0.2676	0.0437	-0.138
Mof_C 	C 	0.7808	0.2516	0.077	0.269
Mof_C 	C 	0.7812	0.2664	0.9663	0.264
Mof_F 	F 	0.80861	0.2518	0.15282	-0.414
Mof_F 	F 	0.81041	0.281	0.92874	-0.368
Mof_F 	F 	0.35063	0.1246	0.32708	-0.369
Mof_F 	F 	0.41146	0.0581	0.47042	-0.416
Mof_F 	F 	0.29673	0.7505	0.3964	-0.413
Mof_F 	F 	0.23807	0.8131	0.2517	-0.357
Mof_N 	N 	0.59505	0.517	0.1051	-0.181
Mof_N 	N 	0.69442	0.5254	0.1763	-0.083
Mof_N 	N 	0.939	0.2973	0.5391	-0.124
Mof_N 	N 	0.98799	0.1563	0.5399	-0.159
Mof_N 	N 	0.46225	0.5799	0.0641	-0.182
Mof_N 	N 	0.41446	0.6932	0.0932	-0.106
Mof_C 	C 	0.6467	0.4847	0.1141	0.13
Mof_H 	H 	0.6493	0.439	0.0811	0.029
Mof_C 	C 	0.6119	0.5828	0.1642	0.048
Mof_H 	H 	0.5853	0.6185	0.1734	0.036
Mof_C 	C 	0.6729	0.589	0.2083	0.009
Mof_H 	H 	0.6955	0.6292	0.2519	0.127
Mof_C 	C 	0.7584	0.5068	0.203	-0.028
Mof_H 	H 	0.7763	0.5711	0.1987	0.13
Mof_H 	H 	0.7613	0.4539	0.1715	0.11
Mof_C 	C 	0.79266	0.4705	0.285	-0.07
Mof_C 	C 	0.7805	0.3769	0.3054	0.228
Mof_C 	C 	0.8104	0.3424	0.3788	0.253
Mof_C 	C 	0.8564	0.4039	0.4382	-0.103
Mof_C 	C 	0.8686	0.4963	0.4169	0.263
Mof_C 	C 	0.8374	0.5306	0.3427	0.246
Mof_C 	C 	0.8894	0.3693	0.52	0.008
Mof_H 	H 	0.9053	0.4305	0.5525	0.083
Mof_H 	H 	0.861	0.3351	0.5298	0.082
Mof_C 	C 	0.9989	0.3167	0.5846	0.113
Mof_H 	H 	0.0167	0.3791	0.6098	0.045
Mof_C 	C 	0.0275	0.2293	0.5864	-0.051
Mof_H 	H 	0.0692	0.22	0.6158	0.114
Mof_C 	C 	0.9354	0.2016	0.5129	0.114
Mof_H 	H 	0.8989	0.1693	0.4784	0.033
Mof_C 	C 	0.4543	0.5377	0.1173	0.026
Mof_H 	H 	0.467	0.4709	0.1378	0.031
Mof_C 	C 	0.4247	0.6073	0.1374	0
Mof_H 	H 	0.414	0.5976	0.1731	0.063
Mof_C 	C 	0.4372	0.674	0.051	0.107
Mof_H 	H 	0.4357	0.7212	0.016	0.044
Mof_C 	C 	0.3809	0.787	0.09	0.003
Mof_H 	H 	0.3905	0.8441	0.0673	0.094
Mof_H 	H 	0.3932	0.8078	0.1411	0.082
Mof_C 	C 	0.3128	0.7676	0.0437	-0.142
Mof_C 	C 	0.2808	0.7516	0.077	0.272
Mof_C 	C 	0.2812	0.7664	0.9663	0.269
Mof_F 	F 	0.30861	0.7518	0.15282	-0.415
Mof_F 	F 	0.31041	0.781	0.92874	-0.367
Mof_F 	F 	0.85063	0.6246	0.32708	-0.373
Mof_F 	F 	0.91146	0.5581	0.47042	-0.401
Mof_F 	F 	0.79673	0.2505	0.3964	-0.412
Mof_F 	F 	0.73807	0.3131	0.2517	-0.361
Mof_N 	N 	0.90495	0.017	0.3949	-0.183
Mof_N 	N 	0.80558	0.0254	0.3237	-0.084
Mof_N 	N 	0.561	0.7973	0.9609	-0.121
Mof_N 	N 	0.51201	0.6563	0.9601	-0.182
Mof_N 	N 	0.03775	0.0799	0.4359	-0.177
Mof_N 	N 	0.08554	0.1932	0.4068	-0.104
Mof_C 	C 	0.8533	0.9847	0.3859	0.15
Mof_H 	H 	0.8507	0.939	0.4189	0.03
Mof_C 	C 	0.8881	0.0828	0.3358	0.048
Mof_H 	H 	0.9147	0.1185	0.3266	0.04
Mof_C 	C 	0.8271	0.089	0.2917	0.006
Mof_H 	H 	0.8045	0.1292	0.2481	0.128
Mof_C 	C 	0.7416	0.0068	0.297	-0.078
Mof_H 	H 	0.7237	0.0711	0.3013	0.143
Mof_H 	H 	0.7387	0.9539	0.3285	0.131
Mof_C 	C 	0.70734	0.9705	0.215	-0.024
Mof_C 	C 	0.7195	0.8769	0.1946	0.206
Mof_C 	C 	0.6896	0.8424	0.1212	0.274
Mof_C 	C 	0.6436	0.9039	0.0618	-0.146
Mof_C 	C 	0.6314	0.9963	0.0831	0.304
Mof_C 	C 	0.6626	0.0306	0.1573	0.201
Mof_C 	C 	0.6106	0.8693	0.98	0.046
Mof_H 	H 	0.5947	0.9305	0.9475	0.078
Mof_H 	H 	0.639	0.8351	0.9702	0.078
Mof_C 	C 	0.5011	0.8167	0.9154	0.036
Mof_H 	H 	0.4833	0.8791	0.8902	0.087
Mof_C 	C 	0.4725	0.7293	0.9136	0.025
Mof_H 	H 	0.4308	0.72	0.8842	0.093
Mof_C 	C 	0.5646	0.7016	0.9871	0.157
Mof_H 	H 	0.6011	0.6693	0.0216	0.005
Mof_C 	C 	0.0457	0.0377	0.3827	-0.002
Mof_H 	H 	0.033	0.9709	0.3622	0.048
Mof_C 	C 	0.0753	0.1073	0.3626	0.011
Mof_H 	H 	0.086	0.0976	0.3269	0.056
Mof_C 	C 	0.0628	0.174	0.449	0.106
Mof_H 	H 	0.0643	0.2212	0.484	0.051
Mof_C 	C 	0.1191	0.287	0.41	-0.015
Mof_H 	H 	0.1095	0.3441	0.4327	0.102
Mof_H 	H 	0.1068	0.3078	0.3589	0.084
Mof_C 	C 	0.1872	0.2676	0.4563	-0.1
Mof_C 	C 	0.2192	0.2516	0.423	0.248
Mof_C 	C 	0.2188	0.2664	0.5337	0.227
Mof_F 	F 	0.19139	0.2518	0.34718	-0.411
Mof_F 	F 	0.18959	0.281	0.57126	-0.367
Mof_F 	F 	0.64937	0.1246	0.17292	-0.369
Mof_F 	F 	0.58854	0.0581	0.02958	-0.425
Mof_F 	F 	0.70327	0.7505	0.1036	-0.418
Mof_F 	F 	0.76193	0.8131	0.2483	-0.355
Mof_N 	N 	0.40495	0.517	0.3949	-0.181
Mof_N 	N 	0.30558	0.5254	0.3237	-0.083
Mof_N 	N 	0.061	0.2973	0.9609	-0.108
Mof_N 	N 	0.01201	0.1563	0.9601	-0.199
Mof_N 	N 	0.53775	0.5799	0.4359	-0.18
Mof_N 	N 	0.58554	0.6932	0.4068	-0.101
Mof_C 	C 	0.3533	0.4847	0.3859	0.13
Mof_H 	H 	0.3507	0.439	0.4189	0.033
Mof_C 	C 	0.3881	0.5828	0.3358	0.048
Mof_H 	H 	0.4147	0.6185	0.3266	0.036
Mof_C 	C 	0.3271	0.589	0.2917	0.009
Mof_H 	H 	0.3045	0.6292	0.2481	0.127
Mof_C 	C 	0.2416	0.5068	0.297	-0.03
Mof_H 	H 	0.2237	0.5711	0.3013	0.131
Mof_H 	H 	0.2387	0.4539	0.3285	0.111
Mof_C 	C 	0.20734	0.4705	0.215	-0.067
Mof_C 	C 	0.2195	0.3769	0.1946	0.223
Mof_C 	C 	0.1896	0.3424	0.1212	0.26
Mof_C 	C 	0.1436	0.4039	0.0618	-0.13
Mof_C 	C 	0.1314	0.4963	0.0831	0.269
Mof_C 	C 	0.1626	0.5306	0.1573	0.241
Mof_C 	C 	0.1106	0.3693	0.98	0.032
Mof_H 	H 	0.0947	0.4305	0.9475	0.077
Mof_H 	H 	0.139	0.3351	0.9702	0.079
Mof_C 	C 	0.0011	0.3167	0.9154	-0.044
Mof_H 	H 	0.9833	0.3791	0.8902	0.123
Mof_C 	C 	0.9725	0.2293	0.9136	0.095
Mof_H 	H 	0.9308	0.22	0.8842	0.07
Mof_C 	C 	0.0646	0.2016	0.9871	0.151
Mof_H 	H 	0.1011	0.1693	0.0216	0.006
Mof_C 	C 	0.5457	0.5377	0.3827	0.029
Mof_H 	H 	0.533	0.4709	0.3622	0.031
Mof_C 	C 	0.5753	0.6073	0.3626	-0
Mof_H 	H 	0.586	0.5976	0.3269	0.064
Mof_C 	C 	0.5628	0.674	0.449	0.109
Mof_H 	H 	0.5643	0.7212	0.484	0.052
Mof_C 	C 	0.6191	0.787	0.41	-0.018
Mof_H 	H 	0.6095	0.8441	0.4327	0.106
Mof_H 	H 	0.6068	0.8078	0.3589	0.089
Mof_C 	C 	0.6872	0.7676	0.4563	-0.098
Mof_C 	C 	0.7192	0.7516	0.423	0.248
Mof_C 	C 	0.7188	0.7664	0.5337	0.228
Mof_F 	F 	0.69139	0.7518	0.34718	-0.41
Mof_F 	F 	0.68959	0.781	0.57126	-0.366
Mof_F 	F 	0.14937	0.6246	0.17292	-0.375
Mof_F 	F 	0.08854	0.5581	0.02958	-0.416
Mof_F 	F 	0.20327	0.2505	0.1036	-0.418
Mof_F 	F 	0.26193	0.3131	0.2483	-0.361
Mof_N 	N 	0.90495	0.983	0.8949	-0.159
Mof_N 	N 	0.80558	0.9746	0.8237	-0.081
Mof_N 	N 	0.561	0.2027	0.4609	-0.11
Mof_N 	N 	0.51201	0.3437	0.4601	-0.182
Mof_N 	N 	0.03775	0.9201	0.9359	-0.175
Mof_N 	N 	0.08554	0.8068	0.9068	-0.095
Mof_C 	C 	0.8533	0.0153	0.8859	0.108
Mof_H 	H 	0.8507	0.061	0.9189	0.045
Mof_C 	C 	0.8881	0.9172	0.8358	0.049
Mof_H 	H 	0.9147	0.8815	0.8266	0.043
Mof_C 	C 	0.8271	0.911	0.7917	0.015
Mof_H 	H 	0.8045	0.8708	0.7481	0.127
Mof_C 	C 	0.7416	0.9932	0.797	0.027
Mof_H 	H 	0.7237	0.9289	0.8013	0.118
Mof_H 	H 	0.7387	0.0461	0.8285	0.089
Mof_C 	C 	0.70734	0.0295	0.715	-0.119
Mof_C 	C 	0.7195	0.1231	0.6946	0.249
Mof_C 	C 	0.6896	0.1576	0.6212	0.238
Mof_C 	C 	0.6436	0.0961	0.5618	-0.085
Mof_C 	C 	0.6314	0.0037	0.5831	0.223
Mof_C 	C 	0.6626	0.9694	0.6573	0.292
Mof_C 	C 	0.6106	0.1307	0.48	-0.008
Mof_H 	H 	0.5947	0.0695	0.4475	0.083
Mof_H 	H 	0.639	0.1649	0.4702	0.085
Mof_C 	C 	0.5011	0.1833	0.4154	0.029
Mof_H 	H 	0.4833	0.1209	0.3902	0.083
Mof_C 	C 	0.4725	0.2707	0.4136	0.025
Mof_H 	H 	0.4308	0.28	0.3842	0.089
Mof_C 	C 	0.5646	0.2984	0.4871	0.111
Mof_H 	H 	0.6011	0.3307	0.5216	0.034
Mof_C 	C 	0.0457	0.9623	0.8827	0.063
Mof_H 	H 	0.033	0.0291	0.8622	0.009
Mof_C 	C 	0.0753	0.8927	0.8626	-0.015
Mof_H 	H 	0.086	0.9024	0.8269	0.071
Mof_C 	C 	0.0628	0.826	0.949	0.109
Mof_H 	H 	0.0643	0.7788	0.984	0.061
Mof_C 	C 	0.1191	0.713	0.91	-0.036
Mof_H 	H 	0.1095	0.6559	0.9327	0.113
Mof_H 	H 	0.1068	0.6922	0.8589	0.092
Mof_C 	C 	0.1872	0.7324	0.9563	-0.055
Mof_C 	C 	0.2192	0.7484	0.923	0.225
Mof_C 	C 	0.2188	0.7336	0.0337	0.186
Mof_F 	F 	0.19139	0.7482	0.84718	-0.405
Mof_F 	F 	0.18959	0.719	0.07126	-0.365
Mof_F 	F 	0.64937	0.8754	0.67292	-0.38
Mof_F 	F 	0.58854	0.9419	0.52958	-0.39
Mof_F 	F 	0.70327	0.2495	0.6036	-0.409
Mof_F 	F 	0.76193	0.1869	0.7483	-0.365
Mof_N 	N 	0.40495	0.483	0.8949	-0.174
Mof_N 	N 	0.30558	0.4746	0.8237	-0.083
Mof_N 	N 	0.061	0.7027	0.4609	-0.098
Mof_N 	N 	0.01201	0.8437	0.4601	-0.194
Mof_N 	N 	0.53775	0.4201	0.9359	-0.173
Mof_N 	N 	0.58554	0.3068	0.9068	-0.098
Mof_C 	C 	0.3533	0.5153	0.8859	0.13
Mof_H 	H 	0.3507	0.561	0.9189	0.039
Mof_C 	C 	0.3881	0.4172	0.8358	0.049
Mof_H 	H 	0.4147	0.3815	0.8266	0.038
Mof_C 	C 	0.3271	0.411	0.7917	0.01
Mof_H 	H 	0.3045	0.3708	0.7481	0.128
Mof_C 	C 	0.2416	0.4932	0.797	-0.028
Mof_H 	H 	0.2237	0.4289	0.8013	0.131
Mof_H 	H 	0.2387	0.5461	0.8285	0.111
Mof_C 	C 	0.20734	0.5295	0.715	-0.071
Mof_C 	C 	0.2195	0.6231	0.6946	0.229
Mof_C 	C 	0.1896	0.6576	0.6212	0.251
Mof_C 	C 	0.1436	0.5961	0.5618	-0.1
Mof_C 	C 	0.1314	0.5037	0.5831	0.26
Mof_C 	C 	0.1626	0.4694	0.6573	0.247
Mof_C 	C 	0.1106	0.6307	0.48	-0.005
Mof_H 	H 	0.0947	0.5695	0.4475	0.084
Mof_H 	H 	0.139	0.6649	0.4702	0.086
Mof_C 	C 	0.0011	0.6833	0.4154	-0.047
Mof_H 	H 	0.9833	0.6209	0.3902	0.122
Mof_C 	C 	0.9725	0.7707	0.4136	0.094
Mof_H 	H 	0.9308	0.78	0.3842	0.069
Mof_C 	C 	0.0646	0.7984	0.4871	0.109
Mof_H 	H 	0.1011	0.8307	0.5216	0.038
Mof_C 	C 	0.5457	0.4623	0.8827	0.031
Mof_H 	H 	0.533	0.5291	0.8622	0.033
Mof_C 	C 	0.5753	0.3927	0.8626	0.001
Mof_H 	H 	0.586	0.4024	0.8269	0.065
Mof_C 	C 	0.5628	0.326	0.949	0.111
Mof_H 	H 	0.5643	0.2788	0.984	0.06
Mof_C 	C 	0.6191	0.213	0.91	-0.033
Mof_H 	H 	0.6095	0.1559	0.9327	0.112
Mof_H 	H 	0.6068	0.1922	0.8589	0.091
Mof_C 	C 	0.6872	0.2324	0.9563	-0.061
Mof_C 	C 	0.7192	0.2484	0.923	0.227
Mof_C 	C 	0.7188	0.2336	0.0337	0.189
Mof_F 	F 	0.69139	0.2482	0.84718	-0.406
Mof_F 	F 	0.68959	0.219	0.07126	-0.366
Mof_F 	F 	0.14937	0.3754	0.67292	-0.376
Mof_F 	F 	0.08854	0.4419	0.52958	-0.405
Mof_F 	F 	0.20327	0.7495	0.6036	-0.41
Mof_F 	F 	0.26193	0.6869	0.7483	-0.36
Mof_N 	N 	0.09505	0.983	0.6051	-0.167
Mof_N 	N 	0.19442	0.9746	0.6763	-0.081
Mof_N 	N 	0.439	0.2027	0.0391	-0.1
Mof_N 	N 	0.48799	0.3437	0.0399	-0.176
Mof_N 	N 	0.96225	0.9201	0.5641	-0.176
Mof_N 	N 	0.91446	0.8068	0.5932	-0.099
Mof_C 	C 	0.1467	0.0153	0.6141	0.105
Mof_H 	H 	0.1493	0.061	0.5811	0.04
Mof_C 	C 	0.1119	0.9172	0.6642	0.048
Mof_H 	H 	0.0853	0.8815	0.6734	0.035
Mof_C 	C 	0.1729	0.911	0.7083	0.014
Mof_H 	H 	0.1955	0.8708	0.7519	0.127
Mof_C 	C 	0.2584	0.9932	0.703	0.035
Mof_H 	H 	0.2763	0.9289	0.6987	0.115
Mof_H 	H 	0.2613	0.0461	0.6715	0.085
Mof_C 	C 	0.29266	0.0295	0.785	-0.128
Mof_C 	C 	0.2805	0.1231	0.8054	0.256
Mof_C 	C 	0.3104	0.1576	0.8788	0.228
Mof_C 	C 	0.3564	0.0961	0.9382	-0.055
Mof_C 	C 	0.3686	0.0037	0.9169	0.21
Mof_C 	C 	0.3374	0.9694	0.8427	0.303
Mof_C 	C 	0.3894	0.1307	0.02	-0.043
Mof_H 	H 	0.4053	0.0695	0.0525	0.089
Mof_H 	H 	0.361	0.1649	0.0298	0.089
Mof_C 	C 	0.4989	0.1833	0.0846	0.025
Mof_H 	H 	0.5167	0.1209	0.1098	0.082
Mof_C 	C 	0.5275	0.2707	0.0864	0.024
Mof_H 	H 	0.5692	0.28	0.1158	0.088
Mof_C 	C 	0.4354	0.2984	0.0129	0.067
Mof_H 	H 	0.3989	0.3307	0.9784	0.064
Mof_C 	C 	0.9543	0.9623	0.6173	0.055
Mof_H 	H 	0.967	0.0291	0.6378	0.02
Mof_C 	C 	0.9247	0.8927	0.6374	-0.008
Mof_H 	H 	0.914	0.9024	0.6731	0.071
Mof_C 	C 	0.9372	0.826	0.551	0.111
Mof_H 	H 	0.9357	0.7788	0.516	0.054
Mof_C 	C 	0.8809	0.713	0.59	-0.018
Mof_H 	H 	0.8905	0.6559	0.5673	0.105
Mof_H 	H 	0.8932	0.6922	0.6411	0.09
Mof_C 	C 	0.8128	0.7324	0.5437	-0.098
Mof_C 	C 	0.7808	0.7484	0.577	0.248
Mof_C 	C 	0.7812	0.7336	0.4663	0.227
Mof_F 	F 	0.80861	0.7482	0.65282	-0.409
Mof_F 	F 	0.81041	0.719	0.42874	-0.366
Mof_F 	F 	0.35063	0.8754	0.82708	-0.381
Mof_F 	F 	0.41146	0.9419	0.97042	-0.378
Mof_F 	F 	0.29673	0.2495	0.8964	-0.404
Mof_F 	F 	0.23807	0.1869	0.7517	-0.367
Mof_N 	N 	0.59505	0.483	0.6051	-0.18
Mof_N 	N 	0.69442	0.4746	0.6763	-0.083
Mof_N 	N 	0.939	0.7027	0.0391	-0.113
Mof_N 	N 	0.98799	0.8437	0.0399	-0.152
Mof_N 	N 	0.46225	0.4201	0.5641	-0.18
Mof_N 	N 	0.41446	0.3068	0.5932	-0.102
Mof_C 	C 	0.6467	0.5153	0.6141	0.131
Mof_H 	H 	0.6493	0.561	0.5811	0.033
Mof_C 	C 	0.6119	0.4172	0.6642	0.049
Mof_H 	H 	0.5853	0.3815	0.6734	0.036
Mof_C 	C 	0.6729	0.411	0.7083	0.009
Mof_H 	H 	0.6955	0.3708	0.7519	0.128
Mof_C 	C 	0.7584	0.4932	0.703	-0.026
Mof_H 	H 	0.7763	0.4289	0.6987	0.13
Mof_H 	H 	0.7613	0.5461	0.6715	0.11
Mof_C 	C 	0.79266	0.5295	0.785	-0.074
Mof_C 	C 	0.7805	0.6231	0.8054	0.234
Mof_C 	C 	0.8104	0.6576	0.8788	0.245
Mof_C 	C 	0.8564	0.5961	0.9382	-0.074
Mof_C 	C 	0.8686	0.5037	0.9169	0.254
Mof_C 	C 	0.8374	0.4694	0.8427	0.252
Mof_C 	C 	0.8894	0.6307	0.02	-0.028
Mof_H 	H 	0.9053	0.5695	0.0525	0.089
Mof_H 	H 	0.861	0.6649	0.0298	0.088
Mof_C 	C 	0.9989	0.6833	0.0846	0.106
Mof_H 	H 	0.0167	0.6209	0.1098	0.046
Mof_C 	C 	0.0275	0.7707	0.0864	-0.047
Mof_H 	H 	0.0692	0.78	0.1158	0.113
Mof_C 	C 	0.9354	0.7984	0.0129	0.07
Mof_H 	H 	0.8989	0.8307	0.9784	0.066
Mof_C 	C 	0.4543	0.4623	0.6173	0.029
Mof_H 	H 	0.467	0.5291	0.6378	0.032
Mof_C 	C 	0.4247	0.3927	0.6374	-0
Mof_H 	H 	0.414	0.4024	0.6731	0.064
Mof_C 	C 	0.4372	0.326	0.551	0.109
Mof_H 	H 	0.4357	0.2788	0.516	0.051
Mof_C 	C 	0.3809	0.213	0.59	-0.015
Mof_H 	H 	0.3905	0.1559	0.5673	0.101
Mof_H 	H 	0.3932	0.1922	0.6411	0.086
Mof_C 	C 	0.3128	0.2324	0.5437	-0.1
Mof_C 	C 	0.2808	0.2484	0.577	0.248
Mof_C 	C 	0.2812	0.2336	0.4663	0.226
Mof_F 	F 	0.30861	0.2482	0.65282	-0.41
Mof_F 	F 	0.31041	0.219	0.42874	-0.368
Mof_F 	F 	0.85063	0.3754	0.82708	-0.374
Mof_F 	F 	0.91146	0.4419	0.97042	-0.391
Mof_F 	F 	0.79673	0.7495	0.8964	-0.404
Mof_F 	F 	0.73807	0.6869	0.7517	-0.361
Mof_Mn	Mn	-0	0	-0	0.68
Mof_Mn	Mn	0.5	0.5	-0	0.713
Mof_Mn	Mn	-3.87955e-17	8.61433e-33	0.5	0.704
Mof_Mn	Mn	0.5	0.5	0.5	0.741
_end
