data_functionalizedCrystal
_audit_creation_method	'EQeq! by Chris Wilmer'
_symmetry_space_group_name_H-M	'P1'
_symmetry_Int_Tables_number	1
_symmetry_cell_setting	triclinic
loop_
_symmetry_equiv_pos_as_xyz
  x,y,z
_cell_length_a	17.287
_cell_length_b	6.727
_cell_length_c	12.461
_cell_angle_alpha	90
_cell_angle_beta	90
_cell_angle_gamma	90
loop_
_atom_site_label
_atom_site_type_symbol
_atom_site_fract_x
_atom_site_fract_y
_atom_site_fract_z
_atom_site_charge
Mof_O 	O 	0.5821	0.0836	0.9004	-0.532
Mof_C 	C 	0.7164	0.073	0.7805	-0.206
Mof_H 	H 	0.6941	0.9531	0.8011	0.253
Mof_O 	O 	0.0821	0.5836	0.4004	-0.934
Mof_C 	C 	0.2164	0.573	0.2805	0.04
Mof_H 	H 	0.1941	0.4531	0.3011	-0.002
Mof_O 	O 	0.4179	0.4164	0.9004	-0.568
Mof_C 	C 	0.2836	0.427	0.7805	-0.062
Mof_H 	H 	0.3059	0.5469	0.8011	0.103
Mof_O 	O 	0.9179	0.9164	0.4004	-0.58
Mof_C 	C 	0.7836	0.927	0.2805	0.199
Mof_H 	H 	0.8059	0.0469	0.3011	-0.124
Mof_O 	O 	0.4179	0.5836	0.0996	-0.786
Mof_C 	C 	0.2836	0.573	0.2195	-0.025
Mof_H 	H 	0.3059	0.4531	0.1989	0.016
Mof_O 	O 	0.9179	0.0836	0.5996	-0.697
Mof_C 	C 	0.7836	0.073	0.7195	-0.139
Mof_H 	H 	0.8059	0.9531	0.6989	0.229
Mof_O 	O 	0.5821	0.9164	0.0996	-0.598
Mof_C 	C 	0.7164	0.927	0.2195	0.205
Mof_H 	H 	0.6941	0.0469	0.1989	-0.149
Mof_O 	O 	0.0821	0.4164	0.5996	-0.901
Mof_C 	C 	0.2164	0.427	0.7195	0.065
Mof_H 	H 	0.1941	0.5469	0.6989	0.041
Mof_O 	O 	0.4179	0.9164	0.0996	-0.599
Mof_C 	C 	0.2836	0.927	0.2195	0.167
Mof_H 	H 	0.3059	0.0469	0.1989	-0.148
Mof_O 	O 	0.9179	0.4164	0.5996	-0.73
Mof_C 	C 	0.7836	0.427	0.7195	0.045
Mof_H 	H 	0.8059	0.5469	0.6989	0.075
Mof_O 	O 	0.5821	0.5836	0.0996	-0.784
Mof_C 	C 	0.7164	0.573	0.2195	0.015
Mof_H 	H 	0.6941	0.4531	0.1989	0.013
Mof_O 	O 	0.0821	0.0836	0.5996	-0.871
Mof_C 	C 	0.2164	0.073	0.7195	-0.126
Mof_H 	H 	0.1941	0.9531	0.6989	0.2
Mof_O 	O 	0.5821	0.4164	0.9004	-0.566
Mof_C 	C 	0.7164	0.427	0.7805	-0.025
Mof_H 	H 	0.6941	0.5469	0.8011	0.101
Mof_O 	O 	0.0821	0.9164	0.4004	-0.746
Mof_C 	C 	0.2164	0.927	0.2805	0.232
Mof_H 	H 	0.1941	0.0469	0.3011	-0.166
Mof_O 	O 	0.4179	0.0836	0.9004	-0.535
Mof_C 	C 	0.2836	0.073	0.7805	-0.246
Mof_H 	H 	0.3059	0.9531	0.8011	0.258
Mof_O 	O 	0.9179	0.5836	0.4004	-0.762
Mof_C 	C 	0.7836	0.573	0.2805	0.015
Mof_H 	H 	0.8059	0.4531	0.3011	0.035
Mof_Ga	Ga	0.5	0	-0	1.849
Mof_Ga	Ga	-3.00374e-33	0.5	0.5	3.439
Mof_Ga	Ga	0.5	0.5	-0	2.547
Mof_Ga	Ga	1.35134e-33	8.71017e-33	0.5	2.742
Mof_O 	O 	0.5	0.25	0.0697	-0.982
Mof_O 	O 	-2.81537e-33	0.75	0.5697	-1.187
Mof_O 	O 	0.5	0.75	0.9303	-0.598
Mof_O 	O 	1.16296e-33	0.25	0.4303	-1.312
Mof_C 	C 	0.6825	0.25	0.8107	-0.009
Mof_C 	C 	0.6093	0.25	0.8761	0.535
Mof_C 	C 	0.1825	0.75	0.3107	-0.267
Mof_C 	C 	0.1093	0.75	0.3761	0.701
Mof_C 	C 	0.3175	0.25	0.8107	0.003
Mof_C 	C 	0.3907	0.25	0.8761	0.525
Mof_C 	C 	0.8175	0.75	0.3107	-0.196
Mof_C 	C 	0.8907	0.75	0.3761	0.676
Mof_C 	C 	0.3175	0.75	0.1893	-0.201
Mof_C 	C 	0.3907	0.75	0.1239	0.575
Mof_C 	C 	0.8175	0.25	0.6893	-0.086
Mof_C 	C 	0.8907	0.25	0.6239	0.652
Mof_C 	C 	0.6825	0.75	0.1893	-0.215
Mof_C 	C 	0.6093	0.75	0.1239	0.585
Mof_C 	C 	0.1825	0.25	0.6893	-0.15
Mof_C 	C 	0.1093	0.25	0.6239	0.674
_end
