data_functionalizedCrystal
_audit_creation_method	'EQeq! by Chris Wilmer'
_symmetry_space_group_name_H-M	'P1'
_symmetry_Int_Tables_number	1
_symmetry_cell_setting	triclinic
loop_
_symmetry_equiv_pos_as_xyz
  x,y,z
_cell_length_a	7.3627
_cell_length_b	12.33
_cell_length_c	13.929
_cell_angle_alpha	83.439
_cell_angle_beta	81.485
_cell_angle_gamma	72.674
loop_
_atom_site_label
_atom_site_type_symbol
_atom_site_fract_x
_atom_site_fract_y
_atom_site_fract_z
_atom_site_charge
Mof_Co	Co	0.45522	0.7899	0.95969	1.127
Mof_Co	Co	0.91581	0.93628	0.75184	1.123
Mof_Co	Co	0.54478	0.2101	0.04031	1.127
Mof_Co	Co	0.08419	0.06372	0.24816	1.123
Mof_H 	H 	0.9242	0.5744	0.6982	0.058
Mof_H 	H 	0.9885	0.3704	0.7794	0.061
Mof_H 	H 	0.2969	0.6012	0.6675	0.046
Mof_H 	H 	0.5432	0.2207	0.5751	0.047
Mof_H 	H 	0.5412	0.4548	0.6011	0.077
Mof_H 	H 	0.2597	0.3125	0.511	0.074
Mof_H 	H 	0.207	0.625	0.98	0.029
Mof_H 	H 	0.751	0.568	0.98	0.037
Mof_H 	H 	0.006	0.815	0.559	0.057
Mof_H 	H 	0.931	0.133	0.6	0.028
Mof_H 	H 	0.0758	0.4256	0.3018	0.059
Mof_H 	H 	0.0115	0.6296	0.2206	0.062
Mof_H 	H 	0.7031	0.3988	0.3325	0.046
Mof_H 	H 	0.4568	0.7793	0.4249	0.047
Mof_H 	H 	0.4588	0.5452	0.3989	0.077
Mof_H 	H 	0.7403	0.6875	0.489	0.074
Mof_H 	H 	0.793	0.375	0.02	0.029
Mof_H 	H 	0.249	0.432	0.02	0.037
Mof_H 	H 	0.994	0.185	0.441	0.057
Mof_H 	H 	0.069	0.867	0.4	0.028
Mof_C 	C 	0.7605	0.4988	0.6435	0.011
Mof_C 	C 	0.0955	0.3512	0.6391	0.005
Mof_C 	C 	0.7977	0.5795	0.6922	-0.039
Mof_C 	C 	0.0989	0.3383	0.7385	-0.041
Mof_C 	C 	0.6523	0.6684	0.7329	-0.044
Mof_C 	C 	0.2676	0.2771	0.7787	-0.053
Mof_C 	C 	0.4612	0.6738	0.726	-0.102
Mof_C 	C 	0.4342	0.235	0.7177	-0.045
Mof_C 	C 	0.4231	0.5952	0.6749	0.024
Mof_C 	C 	0.4315	0.2491	0.6164	-0.014
Mof_C 	C 	0.5695	0.5078	0.6344	-0.071
Mof_C 	C 	0.2621	0.3053	0.578	-0.06
Mof_C 	C 	0.707	0.7588	0.7763	0.341
Mof_C 	C 	0.2629	0.2608	0.8886	0.338
Mof_C 	C 	0.2948	0.7665	0.7691	0.407
Mof_C 	C 	0.6275	0.1707	0.7512	0.323
Mof_C 	C 	0.9129	0.4063	0.5936	0.124
Mof_C 	C 	0.3302	0.5737	0.9928	0.009
Mof_C 	C 	0.6493	0.5423	0.9891	0.014
Mof_C 	C 	0.9994	0.895	0.5382	0.004
Mof_C 	C 	0.9626	0.0828	0.5601	0.009
Mof_C 	C 	0.2395	0.5012	0.3565	0.011
Mof_C 	C 	0.9045	0.6488	0.3609	0.005
Mof_C 	C 	0.2023	0.4205	0.3078	-0.039
Mof_C 	C 	0.9011	0.6617	0.2615	-0.041
Mof_C 	C 	0.3477	0.3316	0.2671	-0.044
Mof_C 	C 	0.7324	0.7229	0.2213	-0.053
Mof_C 	C 	0.5388	0.3262	0.274	-0.102
Mof_C 	C 	0.5658	0.765	0.2823	-0.045
Mof_C 	C 	0.5769	0.4048	0.3251	0.024
Mof_C 	C 	0.5685	0.7509	0.3836	-0.014
Mof_C 	C 	0.4305	0.4922	0.3656	-0.071
Mof_C 	C 	0.7379	0.6947	0.422	-0.06
Mof_C 	C 	0.293	0.2412	0.2237	0.341
Mof_C 	C 	0.7371	0.7392	0.1114	0.338
Mof_C 	C 	0.7052	0.2335	0.2309	0.407
Mof_C 	C 	0.3725	0.8293	0.2488	0.323
Mof_C 	C 	0.0871	0.5937	0.4064	0.124
Mof_C 	C 	0.6698	0.4263	0.0072	0.009
Mof_C 	C 	0.3507	0.4577	0.0109	0.014
Mof_C 	C 	0.0006	0.105	0.4618	0.004
Mof_C 	C 	0.0374	0.9172	0.4399	0.009
Mof_N 	N 	0.4806	0.6165	0.9829	-0.212
Mof_N 	N 	0.9603	0.978	0.5994	-0.203
Mof_N 	N 	0.5194	0.3835	0.0171	-0.212
Mof_N 	N 	0.0397	0.022	0.4006	-0.203
Mof_O 	O 	0.7629	0.8291	0.7189	-0.404
Mof_O 	O 	0.1085	0.2912	0.9411	-0.296
Mof_O 	O 	0.7059	0.7551	0.8678	-0.446
Mof_O 	O 	0.4238	0.2134	0.9185	-0.45
Mof_O 	O 	0.3049	0.8095	0.8445	-0.515
Mof_O 	O 	0.7452	0.2227	0.7586	-0.298
Mof_O 	O 	0.1498	0.7973	0.7271	-0.443
Mof_O 	O 	0.6596	0.063	0.7629	-0.434
Mof_O 	O 	0.8898	0.376	0.5172	-0.204
Mof_O 	O 	0.2371	0.1709	0.2811	-0.404
Mof_O 	O 	0.8915	0.7088	0.0589	-0.296
Mof_O 	O 	0.2941	0.2449	0.1322	-0.446
Mof_O 	O 	0.5762	0.7866	0.0815	-0.45
Mof_O 	O 	0.6951	0.1905	0.1555	-0.515
Mof_O 	O 	0.2548	0.7773	0.2414	-0.298
Mof_O 	O 	0.8502	0.2027	0.2729	-0.443
Mof_O 	O 	0.3404	0.937	0.2371	-0.434
Mof_O 	O 	0.1102	0.624	0.4828	-0.204
_end
