data_functionalizedCrystal
_audit_creation_method	'EQeq! by Chris Wilmer'
_symmetry_space_group_name_H-M	'P1'
_symmetry_Int_Tables_number	1
_symmetry_cell_setting	triclinic
loop_
_symmetry_equiv_pos_as_xyz
  x,y,z
_cell_length_a	12.8814
_cell_length_b	12.8814
_cell_length_c	22.0591
_cell_angle_alpha	90
_cell_angle_beta	90
_cell_angle_gamma	120
loop_
_atom_site_label
_atom_site_type_symbol
_atom_site_fract_x
_atom_site_fract_y
_atom_site_fract_z
_atom_site_charge
Mof_Mn	Mn	0.33333	0.66666	0.5	0.767
Mof_Mn	Mn	0.66667	0.33334	-0	0.697
Mof_Mn	Mn	0.66667	0.33334	0.5	0.767
Mof_Mn	Mn	0.33333	0.66666	-0	0.697
Mof_H 	H 	0.5247	0.1808	0.3028	0.054
Mof_H 	H 	0.6561	0.4753	0.3028	0.053
Mof_H 	H 	0.8192	0.3439	0.3028	0.055
Mof_H 	H 	0.4753	0.8192	0.8028	0.058
Mof_H 	H 	0.3439	0.5247	0.8028	0.057
Mof_H 	H 	0.1808	0.6561	0.8028	0.056
Mof_H 	H 	0.3439	0.8192	0.1972	0.055
Mof_H 	H 	0.1808	0.5247	0.1972	0.054
Mof_H 	H 	0.4753	0.6561	0.1972	0.053
Mof_H 	H 	0.6561	0.1808	0.6972	0.054
Mof_H 	H 	0.8192	0.4753	0.6972	0.056
Mof_H 	H 	0.5247	0.3439	0.6972	0.055
Mof_H 	H 	0.4753	0.8192	0.6972	0.056
Mof_H 	H 	0.3439	0.5247	0.6972	0.055
Mof_H 	H 	0.1808	0.6561	0.6972	0.054
Mof_H 	H 	0.5247	0.1808	0.1972	0.054
Mof_H 	H 	0.6561	0.4753	0.1972	0.053
Mof_H 	H 	0.8192	0.3439	0.1972	0.055
Mof_H 	H 	0.6561	0.1808	0.8028	0.056
Mof_H 	H 	0.8192	0.4753	0.8028	0.058
Mof_H 	H 	0.5247	0.3439	0.8028	0.057
Mof_H 	H 	0.3439	0.8192	0.3028	0.056
Mof_H 	H 	0.1808	0.5247	0.3028	0.055
Mof_H 	H 	0.4753	0.6561	0.3028	0.054
Mof_C 	C 	0.3748	0.8925	0.41417	0.12
Mof_C 	C 	0.487	0.1067	0.28165	-0.071
Mof_C 	C 	0.5177	0.6252	0.41417	0.129
Mof_C 	C 	0.6197	0.513	0.28165	-0.071
Mof_C 	C 	0.1075	0.4823	0.41417	0.13
Mof_C 	C 	0.8933	0.3803	0.28165	-0.078
Mof_C 	C 	0.6252	0.1075	0.91417	0.14
Mof_C 	C 	0.513	0.8933	0.78165	-0.077
Mof_C 	C 	0.4823	0.3748	0.91417	0.141
Mof_C 	C 	0.3803	0.487	0.78165	-0.069
Mof_C 	C 	0.8925	0.5177	0.91417	0.13
Mof_C 	C 	0.1067	0.6197	0.78165	-0.07
Mof_C 	C 	0.4823	0.1075	0.08583	0.119
Mof_C 	C 	0.3803	0.8933	0.21835	-0.077
Mof_C 	C 	0.8925	0.3748	0.08583	0.109
Mof_C 	C 	0.1067	0.487	0.21835	-0.069
Mof_C 	C 	0.6252	0.5177	0.08583	0.118
Mof_C 	C 	0.513	0.6197	0.21835	-0.07
Mof_C 	C 	0.5177	0.8925	0.58583	0.12
Mof_C 	C 	0.6197	0.1067	0.71835	-0.069
Mof_C 	C 	0.1075	0.6252	0.58583	0.13
Mof_C 	C 	0.8933	0.513	0.71835	-0.076
Mof_C 	C 	0.3748	0.4823	0.58583	0.131
Mof_C 	C 	0.487	0.3803	0.71835	-0.068
Mof_C 	C 	0.6252	0.1075	0.58583	0.13
Mof_C 	C 	0.513	0.8933	0.71835	-0.076
Mof_C 	C 	0.4823	0.3748	0.58583	0.131
Mof_C 	C 	0.3803	0.487	0.71835	-0.068
Mof_C 	C 	0.8925	0.5177	0.58583	0.12
Mof_C 	C 	0.1067	0.6197	0.71835	-0.069
Mof_C 	C 	0.3748	0.8925	0.08583	0.109
Mof_C 	C 	0.487	0.1067	0.21835	-0.069
Mof_C 	C 	0.5177	0.6252	0.08583	0.118
Mof_C 	C 	0.6197	0.513	0.21835	-0.07
Mof_C 	C 	0.1075	0.4823	0.08583	0.119
Mof_C 	C 	0.8933	0.3803	0.21835	-0.077
Mof_C 	C 	0.5177	0.8925	0.91417	0.13
Mof_C 	C 	0.6197	0.1067	0.78165	-0.07
Mof_C 	C 	0.1075	0.6252	0.91417	0.14
Mof_C 	C 	0.8933	0.513	0.78165	-0.077
Mof_C 	C 	0.3748	0.4823	0.91417	0.141
Mof_C 	C 	0.487	0.3803	0.78165	-0.069
Mof_C 	C 	0.4823	0.1075	0.41417	0.13
Mof_C 	C 	0.3803	0.8933	0.28165	-0.078
Mof_C 	C 	0.8925	0.3748	0.41417	0.12
Mof_C 	C 	0.1067	0.487	0.28165	-0.071
Mof_C 	C 	0.6252	0.5177	0.41417	0.129
Mof_C 	C 	0.513	0.6197	0.28165	-0.071
Mof_C 	C 	0.4326	7.96353e-33	0.31412	0.076
Mof_C 	C 	0.4289	0	0.3807	-0.127
Mof_C 	C 	0.5674	0.5674	0.31412	0.069
Mof_C 	C 	0.5711	0.5711	0.3807	-0.136
Mof_C 	C 	5.85254e-18	0.4326	0.31412	0.076
Mof_C 	C 	2.77541e-17	0.4289	0.3807	-0.127
Mof_C 	C 	0.5674	0	0.81412	0.078
Mof_C 	C 	0.5711	0	0.8807	-0.123
Mof_C 	C 	0.4326	0.4326	0.81412	0.072
Mof_C 	C 	0.4289	0.4289	0.8807	-0.131
Mof_C 	C 	8.58729e-18	0.5674	0.81412	0.078
Mof_C 	C 	6.63534e-17	0.5711	0.8807	-0.123
Mof_C 	C 	0.4326	0	0.18588	0.074
Mof_C 	C 	0.4289	3.98177e-33	0.1193	-0.125
Mof_C 	C 	-3.1178e-18	0.4326	0.18588	0.074
Mof_C 	C 	1.08452e-17	0.4289	0.1193	-0.125
Mof_C 	C 	0.5674	0.5674	0.18588	0.066
Mof_C 	C 	0.5711	0.5711	0.1193	-0.134
Mof_C 	C 	0.5674	0	0.68588	0.076
Mof_C 	C 	0.5711	0	0.6193	-0.127
Mof_C 	C 	3.54815e-17	0.5674	0.68588	0.076
Mof_C 	C 	8.53091e-17	0.5711	0.6193	-0.127
Mof_C 	C 	0.4326	0.4326	0.68588	0.07
Mof_C 	C 	0.4289	0.4289	0.6193	-0.135
Mof_N 	N 	0.334	0.807	0.44176	-0.208
Mof_N 	N 	0.473	0.666	0.44176	-0.21
Mof_N 	N 	0.193	0.527	0.44176	-0.209
Mof_N 	N 	0.666	0.193	0.94176	-0.188
Mof_N 	N 	0.527	0.334	0.94176	-0.188
Mof_N 	N 	0.807	0.473	0.94176	-0.187
Mof_N 	N 	0.527	0.193	0.05824	-0.211
Mof_N 	N 	0.807	0.334	0.05824	-0.21
Mof_N 	N 	0.666	0.473	0.05824	-0.213
Mof_N 	N 	0.473	0.807	0.55824	-0.208
Mof_N 	N 	0.193	0.666	0.55824	-0.209
Mof_N 	N 	0.334	0.527	0.55824	-0.209
Mof_N 	N 	0.666	0.193	0.55824	-0.209
Mof_N 	N 	0.527	0.334	0.55824	-0.209
Mof_N 	N 	0.807	0.473	0.55824	-0.208
Mof_N 	N 	0.334	0.807	0.05824	-0.21
Mof_N 	N 	0.473	0.666	0.05824	-0.213
Mof_N 	N 	0.193	0.527	0.05824	-0.211
Mof_N 	N 	0.473	0.807	0.94176	-0.187
Mof_N 	N 	0.193	0.666	0.94176	-0.188
Mof_N 	N 	0.334	0.527	0.94176	-0.188
Mof_N 	N 	0.527	0.193	0.44176	-0.209
Mof_N 	N 	0.807	0.334	0.44176	-0.208
Mof_N 	N 	0.666	0.473	0.44176	-0.21
_end
