data_functionalizedCrystal
_audit_creation_method	'EQeq! by Chris Wilmer'
_symmetry_space_group_name_H-M	'P1'
_symmetry_Int_Tables_number	1
_symmetry_cell_setting	triclinic
loop_
_symmetry_equiv_pos_as_xyz
  x,y,z
_cell_length_a	18.5462
_cell_length_b	20.0824
_cell_length_c	8.7759
_cell_angle_alpha	90
_cell_angle_beta	101.244
_cell_angle_gamma	90
loop_
_atom_site_label
_atom_site_type_symbol
_atom_site_fract_x
_atom_site_fract_y
_atom_site_fract_z
_atom_site_charge
Mof_C 	C 	0.6307	0.2349	0.4036	0.121
Mof_H 	H 	0.6305	0.262	0.4893	-0.033
Mof_C 	C 	0.5814	0.2061	0.1546	0.118
Mof_H 	H 	0.546	0.2122	0.0649	-0.033
Mof_C 	C 	0.6316	0.1553	0.1575	-0.208
Mof_H 	H 	0.6306	0.129	0.07	0.096
Mof_C 	C 	0.6814	0.1848	0.4157	-0.218
Mof_H 	H 	0.7145	0.1786	0.5088	0.1
Mof_C 	C 	0.6839	0.1435	0.2922	0.153
Mof_C 	C 	0.7407	0.0891	0.3032	-0.176
Mof_H 	H 	0.7889	0.1094	0.3329	0.079
Mof_H 	H 	0.7344	0.0594	0.3869	0.079
Mof_C 	C 	0.7406	0.0489	0.1656	-0.165
Mof_H 	H 	0.7465	0.0781	0.0807	0.071
Mof_H 	H 	0.6932	0.0272	0.1367	0.07
Mof_C 	C 	0.9168	0.9584	0.1478	0.123
Mof_H 	H 	0.9591	0.9665	0.1088	-0.013
Mof_C 	C 	0.8496	0.8908	0.2696	0.114
Mof_H 	H 	0.8444	0.8511	0.321	-0.028
Mof_C 	C 	0.8639	0.0073	0.1305	-0.208
Mof_H 	H 	0.8712	0.0473	0.0822	0.104
Mof_C 	C 	0.7933	0.9365	0.2525	-0.215
Mof_H 	H 	0.7504	0.9261	0.2873	0.095
Mof_C 	C 	0.7999	0.9967	0.1852	0.151
Mof_C 	C 	0.9973	0.8476	0.882	0.24
Mof_N 	N 	0.9112	0.9007	0.2162	-0.254
Mof_N 	N 	0.5814	0.2464	0.2731	-0.27
Mof_N 	N 	0.9974	0.8334	0.0038	-0.29
Mof_N 	N 	0.9857	0.876	0.737	0.166
Mof_C 	C 	0.1307	0.7349	0.4036	0.116
Mof_H 	H 	0.1305	0.762	0.4893	-0.033
Mof_C 	C 	0.0814	0.7061	0.1546	0.116
Mof_H 	H 	0.046	0.7122	0.0649	-0.047
Mof_C 	C 	0.1316	0.6553	0.1575	-0.212
Mof_H 	H 	0.1306	0.629	0.07	0.092
Mof_C 	C 	0.1814	0.6848	0.4157	-0.22
Mof_H 	H 	0.2145	0.6786	0.5088	0.1
Mof_C 	C 	0.1839	0.6435	0.2922	0.152
Mof_C 	C 	0.2407	0.5891	0.3032	-0.179
Mof_H 	H 	0.2889	0.6094	0.3329	0.081
Mof_H 	H 	0.2344	0.5594	0.3869	0.078
Mof_C 	C 	0.2406	0.5489	0.1656	-0.163
Mof_H 	H 	0.2465	0.5781	0.0807	0.069
Mof_H 	H 	0.1932	0.5272	0.1367	0.065
Mof_C 	C 	0.4168	0.4584	0.1478	0.126
Mof_H 	H 	0.4591	0.4665	0.1088	-0.027
Mof_C 	C 	0.3496	0.3908	0.2696	0.114
Mof_H 	H 	0.3444	0.3511	0.321	-0.031
Mof_C 	C 	0.3639	0.5073	0.1305	-0.213
Mof_H 	H 	0.3712	0.5473	0.0822	0.106
Mof_C 	C 	0.2933	0.4365	0.2525	-0.217
Mof_H 	H 	0.2504	0.4261	0.2873	0.093
Mof_C 	C 	0.2999	0.4967	0.1852	0.153
Mof_C 	C 	0.4973	0.3476	0.882	0.181
Mof_N 	N 	0.4112	0.4007	0.2162	-0.264
Mof_N 	N 	0.0814	0.7464	0.2731	-0.277
Mof_N 	N 	0.4974	0.3334	0.0038	-0.293
Mof_N 	N 	0.4857	0.376	0.737	-0.102
Mof_C 	C 	0.3693	0.2349	0.0964	0.117
Mof_H 	H 	0.3695	0.262	0.0107	-0.031
Mof_C 	C 	0.4186	0.2061	0.3454	0.117
Mof_H 	H 	0.454	0.2122	0.4351	-0.034
Mof_C 	C 	0.3684	0.1553	0.3425	-0.206
Mof_H 	H 	0.3694	0.129	0.43	0.095
Mof_C 	C 	0.3186	0.1848	0.0843	-0.213
Mof_H 	H 	0.2855	0.1786	0.9912	0.098
Mof_C 	C 	0.3161	0.1435	0.2078	0.151
Mof_C 	C 	0.2593	0.0891	0.1968	-0.175
Mof_H 	H 	0.2111	0.1094	0.1671	0.082
Mof_H 	H 	0.2656	0.0594	0.1131	0.079
Mof_C 	C 	0.2594	0.0489	0.3344	-0.167
Mof_H 	H 	0.2535	0.0781	0.4193	0.071
Mof_H 	H 	0.3068	0.0272	0.3633	0.07
Mof_C 	C 	0.0832	0.9584	0.3522	0.129
Mof_H 	H 	0.0409	0.9665	0.3912	-0.041
Mof_C 	C 	0.1504	0.8908	0.2304	0.115
Mof_H 	H 	0.1556	0.8511	0.179	-0.033
Mof_C 	C 	0.1361	0.0073	0.3695	-0.218
Mof_H 	H 	0.1288	0.0473	0.4178	0.108
Mof_C 	C 	0.2067	0.9365	0.2475	-0.221
Mof_H 	H 	0.2496	0.9261	0.2127	0.097
Mof_C 	C 	0.2001	0.9967	0.3148	0.158
Mof_C 	C 	0.0027	0.8476	0.618	0.123
Mof_N 	N 	0.0888	0.9007	0.2838	-0.271
Mof_N 	N 	0.4186	0.2464	0.2269	-0.27
Mof_N 	N 	0.0026	0.8334	0.4962	-0.293
Mof_N 	N 	0.0143	0.876	0.763	-0.368
Mof_C 	C 	0.8693	0.7349	0.0964	0.119
Mof_H 	H 	0.8695	0.762	0.0107	-0.029
Mof_C 	C 	0.9186	0.7061	0.3454	0.118
Mof_H 	H 	0.954	0.7122	0.4351	-0.019
Mof_C 	C 	0.8684	0.6553	0.3425	-0.2
Mof_H 	H 	0.8694	0.629	0.43	0.098
Mof_C 	C 	0.8186	0.6848	0.0843	-0.207
Mof_H 	H 	0.7855	0.6786	0.9912	0.096
Mof_C 	C 	0.8161	0.6435	0.2078	0.148
Mof_C 	C 	0.7593	0.5891	0.1968	-0.168
Mof_H 	H 	0.7111	0.6094	0.1671	0.078
Mof_H 	H 	0.7656	0.5594	0.1131	0.079
Mof_C 	C 	0.7594	0.5489	0.3344	-0.176
Mof_H 	H 	0.7535	0.5781	0.4193	0.074
Mof_H 	H 	0.8068	0.5272	0.3633	0.076
Mof_C 	C 	0.5832	0.4584	0.3522	0.129
Mof_H 	H 	0.5409	0.4665	0.3912	-0.029
Mof_C 	C 	0.6504	0.3908	0.2304	0.118
Mof_H 	H 	0.6556	0.3511	0.179	-0.031
Mof_C 	C 	0.6361	0.5073	0.3695	-0.219
Mof_H 	H 	0.6288	0.5473	0.4178	0.107
Mof_C 	C 	0.7067	0.4365	0.2475	-0.223
Mof_H 	H 	0.7496	0.4261	0.2127	0.1
Mof_C 	C 	0.7001	0.4967	0.3148	0.162
Mof_C 	C 	0.5027	0.3476	0.618	0.184
Mof_N 	N 	0.5888	0.4007	0.2838	-0.266
Mof_N 	N 	0.9186	0.7464	0.2269	-0.259
Mof_N 	N 	0.5026	0.3334	0.4962	-0.295
Mof_N 	N 	0.5143	0.376	0.763	-0.101
Mof_Zn	Zn	5.30032e-34	0.82512	0.25	1.167
Mof_Zn	Zn	0.5	0.32512	0.25	1.181
Mof_C 	C 	0.3693	0.7651	0.5964	0.12
Mof_H 	H 	0.3695	0.738	0.5107	-0.033
Mof_C 	C 	0.4186	0.7939	0.8454	0.118
Mof_H 	H 	0.454	0.7878	0.9351	-0.034
Mof_C 	C 	0.3684	0.8447	0.8425	-0.209
Mof_H 	H 	0.3694	0.871	0.93	0.095
Mof_C 	C 	0.3186	0.8152	0.5843	-0.219
Mof_H 	H 	0.2855	0.8214	0.4912	0.101
Mof_C 	C 	0.3161	0.8565	0.7078	0.154
Mof_C 	C 	0.2593	0.9109	0.6968	-0.178
Mof_H 	H 	0.2111	0.8906	0.6671	0.082
Mof_H 	H 	0.2656	0.9406	0.6131	0.079
Mof_C 	C 	0.2594	0.9511	0.8344	-0.165
Mof_H 	H 	0.2535	0.9219	0.9193	0.07
Mof_H 	H 	0.3068	0.9728	0.8633	0.069
Mof_C 	C 	0.0832	0.0416	0.8522	0.127
Mof_H 	H 	0.0409	0.0335	0.8912	-0.041
Mof_C 	C 	0.1504	0.1092	0.7304	0.114
Mof_H 	H 	0.1556	0.1489	0.679	-0.033
Mof_C 	C 	0.1361	0.9927	0.8695	-0.217
Mof_H 	H 	0.1288	0.9527	0.9178	0.107
Mof_C 	C 	0.2067	0.0635	0.7475	-0.22
Mof_H 	H 	0.2496	0.0739	0.7127	0.096
Mof_C 	C 	0.2001	0.0033	0.8148	0.156
Mof_C 	C 	0.0027	0.1524	0.118	0.124
Mof_N 	N 	0.0888	0.0993	0.7838	-0.271
Mof_N 	N 	0.4186	0.7536	0.7269	-0.27
Mof_N 	N 	0.0026	0.1666	0.9962	-0.293
Mof_N 	N 	0.0143	0.124	0.263	-0.378
Mof_C 	C 	0.8693	0.2651	0.5964	0.123
Mof_H 	H 	0.8695	0.238	0.5107	-0.031
Mof_C 	C 	0.9186	0.2939	0.8454	0.12
Mof_H 	H 	0.954	0.2878	0.9351	-0.02
Mof_C 	C 	0.8684	0.3447	0.8425	-0.203
Mof_H 	H 	0.8694	0.371	0.93	0.098
Mof_C 	C 	0.8186	0.3152	0.5843	-0.216
Mof_H 	H 	0.7855	0.3214	0.4912	0.101
Mof_C 	C 	0.8161	0.3565	0.7078	0.153
Mof_C 	C 	0.7593	0.4109	0.6968	-0.172
Mof_H 	H 	0.7111	0.3906	0.6671	0.079
Mof_H 	H 	0.7656	0.4406	0.6131	0.079
Mof_C 	C 	0.7594	0.4511	0.8344	-0.172
Mof_H 	H 	0.7535	0.4219	0.9193	0.072
Mof_H 	H 	0.8068	0.4728	0.8633	0.074
Mof_C 	C 	0.5832	0.5416	0.8522	0.128
Mof_H 	H 	0.5409	0.5335	0.8912	-0.029
Mof_C 	C 	0.6504	0.6092	0.7304	0.116
Mof_H 	H 	0.6556	0.6489	0.679	-0.031
Mof_C 	C 	0.6361	0.4927	0.8695	-0.218
Mof_H 	H 	0.6288	0.4527	0.9178	0.106
Mof_C 	C 	0.7067	0.5635	0.7475	-0.222
Mof_H 	H 	0.7496	0.5739	0.7127	0.098
Mof_C 	C 	0.7001	0.5033	0.8148	0.159
Mof_C 	C 	0.5027	0.6524	0.118	0.187
Mof_N 	N 	0.5888	0.5993	0.7838	-0.265
Mof_N 	N 	0.9186	0.2536	0.7269	-0.26
Mof_N 	N 	0.5026	0.6666	0.9962	-0.296
Mof_N 	N 	0.5143	0.624	0.263	-0.101
Mof_C 	C 	0.6307	0.7651	0.9036	0.123
Mof_H 	H 	0.6305	0.738	0.9893	-0.034
Mof_C 	C 	0.5814	0.7939	0.6546	0.119
Mof_H 	H 	0.546	0.7878	0.5649	-0.034
Mof_C 	C 	0.6316	0.8447	0.6575	-0.209
Mof_H 	H 	0.6306	0.871	0.57	0.096
Mof_C 	C 	0.6814	0.8152	0.9157	-0.225
Mof_H 	H 	0.7145	0.8214	0.0088	0.104
Mof_C 	C 	0.6839	0.8565	0.7922	0.155
Mof_C 	C 	0.7407	0.9109	0.8032	-0.177
Mof_H 	H 	0.7889	0.8906	0.8329	0.079
Mof_H 	H 	0.7344	0.9406	0.8869	0.078
Mof_C 	C 	0.7406	0.9511	0.6656	-0.165
Mof_H 	H 	0.7465	0.9219	0.5807	0.07
Mof_H 	H 	0.6932	0.9728	0.6367	0.069
Mof_C 	C 	0.9168	0.0416	0.6478	0.123
Mof_H 	H 	0.9591	0.0335	0.6088	-0.014
Mof_C 	C 	0.8496	0.1092	0.7696	0.114
Mof_H 	H 	0.8444	0.1489	0.821	-0.028
Mof_C 	C 	0.8639	0.9927	0.6305	-0.21
Mof_H 	H 	0.8712	0.9527	0.5822	0.104
Mof_C 	C 	0.7933	0.0635	0.7525	-0.216
Mof_H 	H 	0.7504	0.0739	0.7873	0.094
Mof_C 	C 	0.7999	0.0033	0.6852	0.152
Mof_C 	C 	0.9973	0.1524	0.382	0.247
Mof_N 	N 	0.9112	0.0993	0.7162	-0.255
Mof_N 	N 	0.5814	0.7536	0.7731	-0.271
Mof_N 	N 	0.9974	0.1666	0.5038	-0.293
Mof_N 	N 	0.9857	0.124	0.237	0.175
Mof_C 	C 	0.1307	0.2651	0.9036	0.119
Mof_H 	H 	0.1305	0.238	0.9893	-0.035
Mof_C 	C 	0.0814	0.2939	0.6546	0.117
Mof_H 	H 	0.046	0.2878	0.5649	-0.047
Mof_C 	C 	0.1316	0.3447	0.6575	-0.214
Mof_H 	H 	0.1306	0.371	0.57	0.092
Mof_C 	C 	0.1814	0.3152	0.9157	-0.225
Mof_H 	H 	0.2145	0.3214	0.0088	0.103
Mof_C 	C 	0.1839	0.3565	0.7922	0.154
Mof_C 	C 	0.2407	0.4109	0.8032	-0.181
Mof_H 	H 	0.2889	0.3906	0.8329	0.081
Mof_H 	H 	0.2344	0.4406	0.8869	0.078
Mof_C 	C 	0.2406	0.4511	0.6656	-0.161
Mof_H 	H 	0.2465	0.4219	0.5807	0.068
Mof_H 	H 	0.1932	0.4728	0.6367	0.064
Mof_C 	C 	0.4168	0.5416	0.6478	0.125
Mof_H 	H 	0.4591	0.5335	0.6088	-0.028
Mof_C 	C 	0.3496	0.6092	0.7696	0.113
Mof_H 	H 	0.3444	0.6489	0.821	-0.031
Mof_C 	C 	0.3639	0.4927	0.6305	-0.213
Mof_H 	H 	0.3712	0.4527	0.5822	0.105
Mof_C 	C 	0.2933	0.5635	0.7525	-0.216
Mof_H 	H 	0.2504	0.5739	0.7873	0.093
Mof_C 	C 	0.2999	0.5033	0.6852	0.152
Mof_C 	C 	0.4973	0.6524	0.382	0.184
Mof_N 	N 	0.4112	0.5993	0.7162	-0.264
Mof_N 	N 	0.0814	0.2536	0.7731	-0.277
Mof_N 	N 	0.4974	0.6666	0.5038	-0.295
Mof_N 	N 	0.4857	0.624	0.237	-0.102
Mof_Zn	Zn	1.77311e-17	0.17488	0.75	1.167
Mof_Zn	Zn	0.5	0.67488	0.75	1.181
_end
