data_functionalizedCrystal
_audit_creation_method	'EQeq! by Chris Wilmer'
_symmetry_space_group_name_H-M	'P1'
_symmetry_Int_Tables_number	1
_symmetry_cell_setting	triclinic
loop_
_symmetry_equiv_pos_as_xyz
  x,y,z
_cell_length_a	12.139
_cell_length_b	21.571
_cell_length_c	12.611
_cell_angle_alpha	90
_cell_angle_beta	90.351
_cell_angle_gamma	90
loop_
_atom_site_label
_atom_site_type_symbol
_atom_site_fract_x
_atom_site_fract_y
_atom_site_fract_z
_atom_site_charge
Mof_C 	C 	0.3536	0.3862	0.349	-0.075
Mof_H 	H 	0.3567	0.4314	0.3627	0.065
Mof_H 	H 	0.3764	0.3643	0.4145	0.054
Mof_C 	C 	0.4287	0.3701	0.2614	-0.054
Mof_H 	H 	0.4074	0.3934	0.1969	0.054
Mof_H 	H 	0.4225	0.3252	0.2456	0.052
Mof_C 	C 	0.2106	0.3044	0.3546	-0.073
Mof_H 	H 	0.168	0.3063	0.4212	0.054
Mof_H 	H 	0.2787	0.2804	0.368	0.066
Mof_C 	C 	0.1428	0.2735	0.2685	-0.057
Mof_H 	H 	0.1883	0.2686	0.2042	0.052
Mof_H 	H 	0.0793	0.3003	0.2501	0.057
Mof_C 	C 	0.1573	0.4134	0.3465	-0.06
Mof_H 	H 	0.1797	0.4351	0.4123	0.05
Mof_H 	H 	0.0854	0.3931	0.3589	0.06
Mof_C 	C 	0.1472	0.4593	0.2563	-0.066
Mof_H 	H 	0.1288	0.4372	0.1897	0.06
Mof_H 	H 	0.2183	0.481	0.2463	0.059
Mof_C 	C 	0.2613	0.3055	0.6497	-0.069
Mof_H 	H 	0.3029	0.3029	0.5826	0.053
Mof_H 	H 	0.1893	0.2848	0.6392	0.062
Mof_C 	C 	0.3255	0.2733	0.7383	-0.057
Mof_H 	H 	0.3975	0.2942	0.748	0.057
Mof_H 	H 	0.2842	0.2771	0.8055	0.057
Mof_C 	C 	0.1338	0.3931	0.655	-0.067
Mof_H 	H 	0.1056	0.3734	0.5893	0.052
Mof_H 	H 	0.1353	0.4385	0.6442	0.063
Mof_C 	C 	0.0599	0.3772	0.7468	-0.058
Mof_H 	H 	0.0582	0.3316	0.7555	0.062
Mof_H 	H 	0.0918	0.3952	0.8125	0.061
Mof_C 	C 	0.3317	0.4122	0.6465	-0.066
Mof_H 	H 	0.3101	0.434	0.5806	0.052
Mof_H 	H 	0.3997	0.3884	0.6325	0.061
Mof_C 	C 	0.3525	0.459	0.7349	-0.06
Mof_H 	H 	0.2836	0.482	0.7492	0.059
Mof_H 	H 	0.3738	0.4367	0.8005	0.058
Mof_C 	C 	0.6143	0.3288	0.3167	-0.122
Mof_H 	H 	0.6916	0.3411	0.3308	0.069
Mof_H 	H 	0.6138	0.3012	0.254	0.066
Mof_C 	C 	0.5717	0.2935	0.4107	0.051
Mof_C 	C 	0.5092	0.241	0.3984	-0.067
Mof_H 	H 	0.4914	0.2268	0.329	0.062
Mof_C 	C 	0.4715	0.208	0.4857	-0.07
Mof_H 	H 	0.4274	0.1721	0.4757	0.062
Mof_C 	C 	0.4982	0.2275	0.5866	0.055
Mof_C 	C 	0.5641	0.2812	0.6002	-0.071
Mof_H 	H 	0.5836	0.295	0.6694	0.064
Mof_C 	C 	0.5995	0.3132	0.5131	-0.061
Mof_H 	H 	0.6435	0.3493	0.5223	0.053
Mof_C 	C 	0.4612	0.1916	0.6829	-0.123
Mof_H 	H 	0.4675	0.1467	0.6679	0.07
Mof_H 	H 	0.511	0.2012	0.7431	0.065
Mof_C 	C 	0.9809	0.2116	0.3266	-0.125
Mof_H 	H 	0.9545	0.1685	0.3352	0.07
Mof_H 	H 	0.9414	0.2299	0.2653	0.07
Mof_C 	C 	0.9526	0.2481	0.4251	0.056
Mof_C 	C 	0.9115	0.308	0.4168	-0.08
Mof_H 	H 	0.9024	0.3266	0.349	0.071
Mof_C 	C 	0.8837	0.3406	0.5076	-0.065
Mof_H 	H 	0.8572	0.3819	0.501	0.051
Mof_C 	C 	0.8935	0.3147	0.6068	0.057
Mof_C 	C 	0.9342	0.2543	0.6141	-0.072
Mof_H 	H 	0.9417	0.2354	0.6818	0.064
Mof_C 	C 	0.9639	0.2216	0.5246	-0.065
Mof_H 	H 	0.9921	0.1807	0.5313	0.053
Mof_C 	C 	0.8624	0.3499	0.7036	-0.134
Mof_H 	H 	0.856	0.3206	0.7636	0.073
Mof_H 	H 	0.7891	0.3689	0.692	0.077
Mof_C 	C 	0.1028	0.5693	0.3114	-0.122
Mof_H 	H 	0.041	0.598	0.3258	0.069
Mof_H 	H 	0.144	0.586	0.2502	0.068
Mof_C 	C 	0.1787	0.5683	0.4073	0.049
Mof_C 	C 	0.1367	0.5654	0.5095	-0.061
Mof_H 	H 	0.0593	0.5639	0.5201	0.05
Mof_C 	C 	0.2076	0.5646	0.5956	-0.079
Mof_H 	H 	0.1782	0.5624	0.6651	0.069
Mof_C 	C 	0.3207	0.567	0.5825	0.056
Mof_C 	C 	0.3639	0.5692	0.4789	-0.066
Mof_H 	H 	0.4413	0.57	0.4681	0.057
Mof_C 	C 	0.2922	0.57	0.3936	-0.066
Mof_H 	H 	0.3211	0.5718	0.3238	0.062
Mof_C 	C 	0.3988	0.5678	0.676	-0.123
Mof_H 	H 	0.3605	0.5861	0.7377	0.064
Mof_H 	H 	0.4621	0.5949	0.6591	0.068
Mof_C 	C 	0.6063	0.421	0.2052	-0.305
Mof_H 	H 	0.5921	0.4006	0.1362	0.115
Mof_H 	H 	0.6868	0.42	0.2187	0.128
Mof_C 	C 	0.5681	0.4876	0.1996	0.48
Mof_C 	C 	0.1257	0.1618	0.2215	-0.327
Mof_H 	H 	0.0801	0.1246	0.2354	0.136
Mof_H 	H 	0.1056	0.1778	0.1504	0.119
Mof_C 	C 	0.2434	0.1439	0.2223	0.498
Mof_C 	C 	0.9788	0.5159	0.1895	-0.274
Mof_H 	H 	0.0223	0.5222	0.1242	0.108
Mof_H 	H 	0.9345	0.5538	0.2015	0.105
Mof_C 	C 	0.9017	0.461	0.1735	0.447
Mof_C 	C 	0.3201	0.1657	0.809	-0.286
Mof_H 	H 	0.3568	0.1835	0.8723	0.083
Mof_H 	H 	0.3515	0.124	0.7968	0.095
Mof_C 	C 	0.1982	0.1595	0.8306	0.46
Mof_C 	C 	0.9048	0.4321	0.8309	-0.277
Mof_H 	H 	0.9274	0.4081	0.8943	0.109
Mof_H 	H 	0.8233	0.4347	0.8299	0.102
Mof_C 	C 	0.9538	0.4973	0.8365	0.432
Mof_C 	C 	0.5195	0.5138	0.7974	-0.269
Mof_H 	H 	0.4765	0.5241	0.8615	0.079
Mof_H 	H 	0.5678	0.5495	0.7816	0.094
Mof_C 	C 	0.5911	0.4573	0.8209	0.433
Mof_Eu	Eu	0.74308	0.54237	0.99612	2.402
Mof_N 	N 	0.2386	0.3678	0.3189	-0.09
Mof_N 	N 	0.5482	0.3857	0.2917	-0.106
Mof_H 	H 	0.547	0.4105	0.352	0.096
Mof_N 	N 	0.1011	0.2104	0.3035	-0.103
Mof_H 	H 	0.1382	0.1997	0.3656	0.098
Mof_N 	N 	0.0561	0.5069	0.2815	-0.108
Mof_H 	H 	0.0157	0.492	0.3386	0.093
Mof_N 	N 	0.2444	0.3705	0.6786	-0.09
Mof_N 	N 	0.3442	0.206	0.7144	-0.108
Mof_H 	H 	0.2975	0.1944	0.6592	0.097
Mof_N 	N 	0.9436	0.4005	0.7338	-0.107
Mof_H 	H 	0.9435	0.4295	0.6793	0.093
Mof_N 	N 	0.4418	0.5043	0.7065	-0.109
Mof_H 	H 	0.4812	0.4883	0.6497	0.096
Mof_O 	O 	0.6227	0.5208	0.1335	-0.593
Mof_O 	O 	0.493	0.5059	0.2551	-0.329
Mof_O 	O 	0.3094	0.1698	0.2821	-0.332
Mof_O 	O 	0.268	0.1021	0.1548	-0.608
Mof_O 	O 	0.9111	0.4144	0.2301	-0.312
Mof_O 	O 	0.8362	0.4675	0.0956	-0.548
Mof_O 	O 	0.1301	0.187	0.7768	-0.314
Mof_O 	O 	0.1777	0.12222	0.9054	-0.58
Mof_O 	O 	0.0258	0.5145	0.7782	-0.312
Mof_O 	O 	0.9137	0.5302	0.9129	-0.532
Mof_O 	O 	0.5833	0.4102	0.7655	-0.306
Mof_O 	O 	0.6571	0.4644	0.8994	-0.572
Mof_C 	C 	0.6464	0.8862	0.651	-0.071
Mof_H 	H 	0.6433	0.9314	0.6373	0.059
Mof_H 	H 	0.6236	0.8643	0.5855	0.053
Mof_C 	C 	0.5713	0.8701	0.7386	-0.056
Mof_H 	H 	0.5926	0.8934	0.8031	0.051
Mof_H 	H 	0.5775	0.8252	0.7544	0.052
Mof_C 	C 	0.7894	0.8044	0.6454	-0.072
Mof_H 	H 	0.832	0.8063	0.5788	0.053
Mof_H 	H 	0.7213	0.7804	0.632	0.065
Mof_C 	C 	0.8572	0.7735	0.7315	-0.057
Mof_H 	H 	0.8117	0.7686	0.7958	0.052
Mof_H 	H 	0.9207	0.8003	0.7499	0.056
Mof_C 	C 	0.8427	0.9134	0.6535	-0.05
Mof_H 	H 	0.8203	0.9351	0.5877	0.043
Mof_H 	H 	0.9146	0.8931	0.6411	0.055
Mof_C 	C 	0.8528	0.9593	0.7437	-0.088
Mof_H 	H 	0.8712	0.9372	0.8103	0.06
Mof_H 	H 	0.7817	0.981	0.7537	0.054
Mof_C 	C 	0.7387	0.8055	0.3503	-0.068
Mof_H 	H 	0.6971	0.8029	0.4174	0.052
Mof_H 	H 	0.8107	0.7848	0.3608	0.062
Mof_C 	C 	0.6745	0.7733	0.2617	-0.058
Mof_H 	H 	0.6025	0.7942	0.252	0.057
Mof_H 	H 	0.7158	0.7771	0.1945	0.056
Mof_C 	C 	0.8662	0.8931	0.345	-0.063
Mof_H 	H 	0.8944	0.8734	0.4107	0.05
Mof_H 	H 	0.8647	0.9385	0.3558	0.055
Mof_C 	C 	0.9401	0.8772	0.2532	-0.063
Mof_H 	H 	0.9418	0.8316	0.2445	0.062
Mof_H 	H 	0.9082	0.8952	0.1875	0.059
Mof_C 	C 	0.6683	0.9122	0.3535	-0.056
Mof_H 	H 	0.6899	0.934	0.4194	0.045
Mof_H 	H 	0.6003	0.8884	0.3675	0.057
Mof_C 	C 	0.6475	0.959	0.2651	-0.081
Mof_H 	H 	0.7164	0.982	0.2508	0.056
Mof_H 	H 	0.6262	0.9367	0.1995	0.06
Mof_C 	C 	0.3857	0.8288	0.6833	-0.121
Mof_H 	H 	0.3084	0.8411	0.6692	0.068
Mof_H 	H 	0.3862	0.8012	0.746	0.065
Mof_C 	C 	0.4283	0.7935	0.5893	0.05
Mof_C 	C 	0.4908	0.741	0.6016	-0.068
Mof_H 	H 	0.5086	0.7268	0.671	0.062
Mof_C 	C 	0.5285	0.708	0.5143	-0.069
Mof_H 	H 	0.5726	0.6721	0.5243	0.061
Mof_C 	C 	0.5018	0.7275	0.4134	0.054
Mof_C 	C 	0.4359	0.7812	0.3998	-0.071
Mof_H 	H 	0.4164	0.795	0.3306	0.064
Mof_C 	C 	0.4005	0.8132	0.4869	-0.061
Mof_H 	H 	0.3565	0.8493	0.4777	0.052
Mof_C 	C 	0.5388	0.6916	0.3171	-0.122
Mof_H 	H 	0.5325	0.6467	0.3321	0.068
Mof_H 	H 	0.489	0.7012	0.2569	0.064
Mof_C 	C 	0.0191	0.7116	0.6734	-0.123
Mof_H 	H 	0.0455	0.6685	0.6648	0.069
Mof_H 	H 	0.0586	0.7299	0.7347	0.07
Mof_C 	C 	0.0474	0.7481	0.5749	0.056
Mof_C 	C 	0.0885	0.808	0.5832	-0.08
Mof_H 	H 	0.0976	0.8266	0.651	0.071
Mof_C 	C 	0.1163	0.8406	0.4924	-0.064
Mof_H 	H 	0.1428	0.8819	0.499	0.049
Mof_C 	C 	0.1065	0.8147	0.3932	0.057
Mof_C 	C 	0.0658	0.7543	0.3859	-0.072
Mof_H 	H 	0.0583	0.7354	0.3182	0.064
Mof_C 	C 	0.0361	0.7216	0.4754	-0.064
Mof_H 	H 	0.0079	0.6807	0.4687	0.053
Mof_C 	C 	0.1376	0.8499	0.2964	-0.133
Mof_H 	H 	0.144	0.8206	0.2364	0.073
Mof_H 	H 	0.2109	0.8689	0.308	0.076
Mof_C 	C 	0.8972	0.0693	0.6886	-0.122
Mof_H 	H 	0.959	0.098	0.6742	0.07
Mof_H 	H 	0.856	0.086	0.7498	0.07
Mof_C 	C 	0.8213	0.0683	0.5927	0.055
Mof_C 	C 	0.8633	0.0654	0.4905	-0.059
Mof_H 	H 	0.9407	0.0639	0.4799	0.054
Mof_C 	C 	0.7924	0.0646	0.4044	-0.076
Mof_H 	H 	0.8218	0.0624	0.3349	0.071
Mof_C 	C 	0.6793	0.067	0.4175	0.062
Mof_C 	C 	0.6361	0.0692	0.5211	-0.064
Mof_H 	H 	0.5587	0.07	0.5319	0.06
Mof_C 	C 	0.7078	0.07	0.6064	-0.064
Mof_H 	H 	0.6789	0.0718	0.6762	0.064
Mof_C 	C 	0.6012	0.0678	0.324	-0.123
Mof_H 	H 	0.6395	0.0861	0.2623	0.065
Mof_H 	H 	0.5379	0.0949	0.3409	0.07
Mof_C 	C 	0.3937	0.921	0.7948	-0.276
Mof_H 	H 	0.4079	0.9006	0.8638	0.104
Mof_H 	H 	0.3132	0.92	0.7813	0.117
Mof_C 	C 	0.4319	0.9876	0.8004	0.409
Mof_C 	C 	0.8743	0.6618	0.7785	-0.326
Mof_H 	H 	0.9199	0.6246	0.7646	0.134
Mof_H 	H 	0.8944	0.6778	0.8496	0.119
Mof_C 	C 	0.7566	0.6439	0.7777	0.496
Mof_C 	C 	0.0212	0.0159	0.8105	-0.241
Mof_H 	H 	0.9777	0.0222	0.8758	0.105
Mof_H 	H 	0.0655	0.0538	0.7985	0.1
Mof_C 	C 	0.0983	0.961	0.8265	0.423
Mof_C 	C 	0.6799	0.6657	0.191	-0.286
Mof_H 	H 	0.6432	0.6835	0.1277	0.083
Mof_H 	H 	0.6485	0.624	0.2032	0.094
Mof_C 	C 	0.8018	0.6595	0.1694	0.459
Mof_C 	C 	0.0952	0.9321	0.1691	-0.257
Mof_H 	H 	0.0726	0.9081	0.1057	0.102
Mof_H 	H 	0.1767	0.9347	0.1701	0.093
Mof_C 	C 	0.0462	0.9973	0.1635	0.38
Mof_C 	C 	0.4805	0.0138	0.2026	-0.245
Mof_H 	H 	0.5235	0.0241	0.1385	0.077
Mof_H 	H 	0.4322	0.0495	0.2184	0.09
Mof_C 	C 	0.4089	0.9573	0.1791	0.414
Mof_Eu	Eu	0.25692	0.04237	0.00388	2.424
Mof_N 	N 	0.7614	0.8678	0.6811	-0.092
Mof_N 	N 	0.4518	0.8857	0.7083	-0.11
Mof_H 	H 	0.453	0.9105	0.648	0.093
Mof_N 	N 	0.8989	0.7104	0.6965	-0.104
Mof_H 	H 	0.8618	0.6997	0.6344	0.097
Mof_N 	N 	0.9439	0.0069	0.7185	-0.086
Mof_H 	H 	0.9843	0.992	0.6614	0.07
Mof_N 	N 	0.7556	0.8705	0.3214	-0.092
Mof_N 	N 	0.6558	0.706	0.2856	-0.108
Mof_H 	H 	0.7025	0.6944	0.3408	0.096
Mof_N 	N 	0.0564	0.9005	0.2662	-0.109
Mof_H 	H 	0.0565	0.9295	0.3207	0.09
Mof_N 	N 	0.5582	0.0043	0.2935	-0.088
Mof_H 	H 	0.5188	0.9883	0.3503	0.076
Mof_O 	O 	0.3773	0.0208	0.8665	-0.558
Mof_O 	O 	0.507	0.0059	0.7449	-0.287
Mof_O 	O 	0.6906	0.6698	0.7179	-0.333
Mof_O 	O 	0.732	0.6021	0.8452	-0.608
Mof_O 	O 	0.0889	0.9144	0.7699	-0.307
Mof_O 	O 	0.1638	0.9675	0.9044	-0.557
Mof_O 	O 	0.8699	0.687	0.2232	-0.316
Mof_O 	O 	0.8223	0.62222	0.0946	-0.58
Mof_O 	O 	0.9742	0.0145	0.2218	-0.28
Mof_O 	O 	0.0863	0.0302	0.0871	-0.508
Mof_O 	O 	0.4167	0.9102	0.2345	-0.303
Mof_O 	O 	0.3429	0.9644	0.1006	-0.578
_end
