data_functionalizedCrystal
_audit_creation_method	'EQeq! by Chris Wilmer'
_symmetry_space_group_name_H-M	'P1'
_symmetry_Int_Tables_number	1
_symmetry_cell_setting	triclinic
loop_
_symmetry_equiv_pos_as_xyz
  x,y,z
_cell_length_a	10.801
_cell_length_b	10.906
_cell_length_c	15.55
_cell_angle_alpha	90
_cell_angle_beta	90
_cell_angle_gamma	100.401
loop_
_atom_site_label
_atom_site_type_symbol
_atom_site_fract_x
_atom_site_fract_y
_atom_site_fract_z
_atom_site_charge
Mof_Tm	Tm	0.35641	0.60211	0.89792	1.661
Mof_Tm	Tm	0.14359	0.89789	0.39792	1.64
Mof_Tm	Tm	0.64359	0.39789	0.10208	1.661
Mof_Tm	Tm	0.85641	0.10211	0.60208	1.64
Mof_H 	H 	0.3186	0.2226	0.1856	-0.007
Mof_H 	H 	0.9481	0.1813	0.2335	0.022
Mof_H 	H 	0.1015	0.4096	0.045	0.031
Mof_H 	H 	0.1814	0.2774	0.6856	-0.004
Mof_H 	H 	0.5519	0.3187	0.7335	0.032
Mof_H 	H 	0.3985	0.0904	0.545	0.032
Mof_H 	H 	0.6814	0.7774	0.8144	-0.007
Mof_H 	H 	0.0519	0.8187	0.7665	0.022
Mof_H 	H 	0.8985	0.5904	0.955	0.031
Mof_H 	H 	0.8186	0.7226	0.3144	-0.004
Mof_H 	H 	0.4481	0.6813	0.2665	0.032
Mof_H 	H 	0.6015	0.9096	0.455	0.032
Mof_C 	C 	0.3408	0.3865	0.0563	0.514
Mof_C 	C 	0.2283	0.3253	0.1087	-0.198
Mof_C 	C 	0.2402	0.2424	0.1734	0.107
Mof_C 	C 	0.1352	0.1878	0.2209	-0.144
Mof_C 	C 	0.0182	0.2183	0.2021	0.078
Mof_C 	C 	0.0041	0.3022	0.1379	-0.135
Mof_C 	C 	0.1096	0.355	0.0896	0.088
Mof_C 	C 	0.1438	0.0971	0.2921	0.327
Mof_C 	C 	0.8779	0.3354	0.1222	0.339
Mof_C 	C 	0.1592	0.1135	0.5563	0.51
Mof_C 	C 	0.2717	0.1747	0.6087	-0.193
Mof_C 	C 	0.2598	0.2576	0.6734	0.102
Mof_C 	C 	0.3648	0.3122	0.7209	-0.138
Mof_C 	C 	0.4818	0.2817	0.7021	0.062
Mof_C 	C 	0.4959	0.1978	0.6379	-0.132
Mof_C 	C 	0.3904	0.145	0.5896	0.084
Mof_C 	C 	0.3562	0.4029	0.7921	0.324
Mof_C 	C 	0.6221	0.1646	0.6222	0.341
Mof_C 	C 	0.6592	0.6135	0.9437	0.514
Mof_C 	C 	0.7717	0.6747	0.8913	-0.198
Mof_C 	C 	0.7598	0.7576	0.8266	0.107
Mof_C 	C 	0.8648	0.8122	0.7791	-0.144
Mof_C 	C 	0.9818	0.7817	0.7979	0.078
Mof_C 	C 	0.9959	0.6978	0.8621	-0.135
Mof_C 	C 	0.8904	0.645	0.9104	0.088
Mof_C 	C 	0.8562	0.9029	0.7079	0.327
Mof_C 	C 	0.1221	0.6646	0.8778	0.339
Mof_C 	C 	0.8408	0.8865	0.4437	0.51
Mof_C 	C 	0.7283	0.8253	0.3913	-0.193
Mof_C 	C 	0.7402	0.7424	0.3266	0.102
Mof_C 	C 	0.6352	0.6878	0.2791	-0.138
Mof_C 	C 	0.5182	0.7183	0.2979	0.062
Mof_C 	C 	0.5041	0.8022	0.3621	-0.132
Mof_C 	C 	0.6096	0.855	0.4104	0.084
Mof_C 	C 	0.6438	0.5971	0.2079	0.324
Mof_C 	C 	0.3779	0.8354	0.3778	0.341
Mof_O 	O 	0.3298	0.4762	0.0105	-0.521
Mof_O 	O 	0.4381	0.3365	0.0627	-0.516
Mof_O 	O 	0.2437	0.0546	0.302	-0.403
Mof_O 	O 	0.0494	0.06	0.3384	-0.404
Mof_O 	O 	0.8641	0.41	0.0637	-0.391
Mof_O 	O 	0.7875	0.2884	0.1696	-0.44
Mof_O 	O 	0.1702	0.0238	0.5105	-0.514
Mof_O 	O 	0.0619	0.1635	0.5627	-0.51
Mof_O 	O 	0.2563	0.4454	0.802	-0.406
Mof_O 	O 	0.4506	0.44	0.8384	-0.409
Mof_O 	O 	0.6359	0.09	0.5637	-0.39
Mof_O 	O 	0.7125	0.2116	0.6696	-0.439
Mof_O 	O 	0.6702	0.5238	0.9895	-0.521
Mof_O 	O 	0.5619	0.6635	0.9373	-0.516
Mof_O 	O 	0.7563	0.9454	0.698	-0.403
Mof_O 	O 	0.9506	0.94	0.6616	-0.404
Mof_O 	O 	0.1359	0.59	0.9363	-0.391
Mof_O 	O 	0.2125	0.7116	0.8304	-0.44
Mof_O 	O 	0.8298	0.9762	0.4895	-0.514
Mof_O 	O 	0.9381	0.8365	0.4373	-0.51
Mof_O 	O 	0.7437	0.5546	0.198	-0.406
Mof_O 	O 	0.5494	0.56	0.1616	-0.409
Mof_O 	O 	0.3641	0.91	0.4363	-0.39
Mof_O 	O 	0.2875	0.7884	0.3304	-0.439
_end
