data_functionalizedCrystal
_audit_creation_method	'EQeq! by Chris Wilmer'
_symmetry_space_group_name_H-M	'P1'
_symmetry_Int_Tables_number	1
_symmetry_cell_setting	triclinic
loop_
_symmetry_equiv_pos_as_xyz
  x,y,z
_cell_length_a	20.135
_cell_length_b	15.964
_cell_length_c	29.307
_cell_angle_alpha	90
_cell_angle_beta	90
_cell_angle_gamma	90
loop_
_atom_site_label
_atom_site_type_symbol
_atom_site_fract_x
_atom_site_fract_y
_atom_site_fract_z
_atom_site_charge
Mof_N 	N 	0.3835	0.0857	0.04782	-0.17
Mof_N 	N 	0.1749	0.0818	0.0516	-0.196
Mof_O 	O 	0.1744	0.0292	0.12347	-0.221
Mof_O 	O 	0.1745	0.1324	0.97915	-0.235
Mof_C 	C 	0.4605	0.2711	0.3902	0.018
Mof_H 	H 	0.4401	0.2378	0.4135	0.039
Mof_C 	C 	0.4583	0.2474	0.3451	-0.075
Mof_H 	H 	0.4309	0.201	0.3362	0.064
Mof_C 	C 	0.3506	0.015	0.0561	0.147
Mof_H 	H 	0.3748	0.9662	0.0612	-0.002
Mof_C 	C 	0.282	0.0108	0.0576	-0.236
Mof_H 	H 	0.2604	0.9602	0.0627	0.147
Mof_C 	C 	0.2466	0.0838	0.0513	0.238
Mof_C 	C 	0.2794	0.157	0.044	-0.234
Mof_H 	H 	0.2564	0.207	0.04	0.137
Mof_C 	C 	0.3488	0.155	0.0428	0.141
Mof_H 	H 	0.3716	0.205	0.0382	0.007
Mof_C 	C 	0.1418	0.0512	0.0908	0.217
Mof_C 	C 	0.0695	0.0498	0.0903	-0.064
Mof_C 	C 	0.0354	0.0207	0.1271	-0.028
Mof_H 	H 	0.065	0.998	0.149	0.057
Mof_C 	C 	0.0348	0.0786	0.0514	0.032
Mof_C 	C 	0.0693	0.1088	0.0125	-0.063
Mof_C 	C 	0.035	0.1375	0.975	-0.002
Mof_H 	H 	0.06	0.155	0.944	0.061
Mof_C 	C 	0.1425	0.1103	0.0119	0.221
Mof_N 	N 	0.6165	0.4143	0.54782	-0.169
Mof_N 	N 	0.8251	0.4182	0.5516	-0.195
Mof_O 	O 	0.8256	0.4708	0.62347	-0.221
Mof_O 	O 	0.8255	0.3676	0.47915	-0.235
Mof_C 	C 	0.5395	0.2289	0.8902	0.018
Mof_H 	H 	0.5599	0.2622	0.9135	0.039
Mof_C 	C 	0.5417	0.2526	0.8451	-0.075
Mof_H 	H 	0.5691	0.299	0.8362	0.064
Mof_C 	C 	0.6494	0.485	0.5561	0.146
Mof_H 	H 	0.6252	0.5338	0.5612	-0.002
Mof_C 	C 	0.718	0.4892	0.5576	-0.236
Mof_H 	H 	0.7396	0.5398	0.5627	0.147
Mof_C 	C 	0.7534	0.4162	0.5513	0.238
Mof_C 	C 	0.7206	0.343	0.544	-0.234
Mof_H 	H 	0.7436	0.293	0.54	0.137
Mof_C 	C 	0.6512	0.345	0.5428	0.141
Mof_H 	H 	0.6284	0.295	0.5382	0.007
Mof_C 	C 	0.8582	0.4488	0.5908	0.217
Mof_C 	C 	0.9305	0.4502	0.5903	-0.063
Mof_C 	C 	0.9646	0.4793	0.6271	-0.029
Mof_H 	H 	0.935	0.502	0.649	0.058
Mof_C 	C 	0.9652	0.4214	0.5514	0.031
Mof_C 	C 	0.9307	0.3912	0.5125	-0.062
Mof_C 	C 	0.965	0.3625	0.475	-0.002
Mof_H 	H 	0.94	0.345	0.444	0.061
Mof_C 	C 	0.8575	0.3897	0.5119	0.221
Mof_N 	N 	0.6165	0.5857	0.45218	-0.169
Mof_N 	N 	0.8251	0.5818	0.4484	-0.195
Mof_O 	O 	0.8256	0.5292	0.37653	-0.221
Mof_O 	O 	0.8255	0.6324	0.52085	-0.235
Mof_C 	C 	0.5395	0.7711	0.1098	0.018
Mof_H 	H 	0.5599	0.7378	0.0865	0.039
Mof_C 	C 	0.5417	0.7474	0.1549	-0.075
Mof_H 	H 	0.5691	0.701	0.1638	0.064
Mof_C 	C 	0.6494	0.515	0.4439	0.146
Mof_H 	H 	0.6252	0.4662	0.4388	-0.002
Mof_C 	C 	0.718	0.5108	0.4424	-0.236
Mof_H 	H 	0.7396	0.4602	0.4373	0.147
Mof_C 	C 	0.7534	0.5838	0.4487	0.238
Mof_C 	C 	0.7206	0.657	0.456	-0.234
Mof_H 	H 	0.7436	0.707	0.46	0.137
Mof_C 	C 	0.6512	0.655	0.4572	0.141
Mof_H 	H 	0.6284	0.705	0.4618	0.007
Mof_C 	C 	0.8582	0.5512	0.4092	0.217
Mof_C 	C 	0.9305	0.5498	0.4097	-0.063
Mof_C 	C 	0.9646	0.5207	0.3729	-0.029
Mof_H 	H 	0.935	0.498	0.351	0.058
Mof_C 	C 	0.9652	0.5786	0.4486	0.031
Mof_C 	C 	0.9307	0.6088	0.4875	-0.062
Mof_C 	C 	0.965	0.6375	0.525	-0.002
Mof_H 	H 	0.94	0.655	0.556	0.061
Mof_C 	C 	0.8575	0.6103	0.4881	0.221
Mof_N 	N 	0.3835	0.9143	0.95218	-0.169
Mof_N 	N 	0.1749	0.9182	0.9484	-0.195
Mof_O 	O 	0.1744	0.9708	0.87653	-0.221
Mof_O 	O 	0.1745	0.8676	0.02085	-0.235
Mof_C 	C 	0.4605	0.7289	0.6098	0.018
Mof_H 	H 	0.4401	0.7622	0.5865	0.039
Mof_C 	C 	0.4583	0.7526	0.6549	-0.075
Mof_H 	H 	0.4309	0.799	0.6638	0.064
Mof_C 	C 	0.3506	0.985	0.9439	0.147
Mof_H 	H 	0.3748	0.0338	0.9388	-0.002
Mof_C 	C 	0.282	0.9892	0.9424	-0.236
Mof_H 	H 	0.2604	0.0398	0.9373	0.147
Mof_C 	C 	0.2466	0.9162	0.9487	0.238
Mof_C 	C 	0.2794	0.843	0.956	-0.234
Mof_H 	H 	0.2564	0.793	0.96	0.137
Mof_C 	C 	0.3488	0.845	0.9572	0.141
Mof_H 	H 	0.3716	0.795	0.9618	0.007
Mof_C 	C 	0.1418	0.9488	0.9092	0.217
Mof_C 	C 	0.0695	0.9502	0.9097	-0.064
Mof_C 	C 	0.0354	0.9793	0.8729	-0.028
Mof_H 	H 	0.065	0.002	0.851	0.057
Mof_C 	C 	0.0348	0.9214	0.9486	0.032
Mof_C 	C 	0.0693	0.8912	0.9875	-0.063
Mof_C 	C 	0.035	0.8625	0.025	-0.002
Mof_H 	H 	0.06	0.845	0.056	0.061
Mof_C 	C 	0.1425	0.8897	0.9881	0.221
Mof_N 	N 	0.6165	0.9143	0.95218	-0.169
Mof_N 	N 	0.8251	0.9182	0.9484	-0.195
Mof_O 	O 	0.8256	0.9708	0.87653	-0.221
Mof_O 	O 	0.8255	0.8676	0.02085	-0.235
Mof_C 	C 	0.5395	0.7289	0.6098	0.018
Mof_H 	H 	0.5599	0.7622	0.5865	0.039
Mof_C 	C 	0.5417	0.7526	0.6549	-0.075
Mof_H 	H 	0.5691	0.799	0.6638	0.064
Mof_C 	C 	0.6494	0.985	0.9439	0.147
Mof_H 	H 	0.6252	0.0338	0.9388	-0.002
Mof_C 	C 	0.718	0.9892	0.9424	-0.236
Mof_H 	H 	0.7396	0.0398	0.9373	0.147
Mof_C 	C 	0.7534	0.9162	0.9487	0.238
Mof_C 	C 	0.7206	0.843	0.956	-0.234
Mof_H 	H 	0.7436	0.793	0.96	0.137
Mof_C 	C 	0.6512	0.845	0.9572	0.141
Mof_H 	H 	0.6284	0.795	0.9618	0.007
Mof_C 	C 	0.8582	0.9488	0.9092	0.217
Mof_C 	C 	0.9305	0.9502	0.9097	-0.063
Mof_C 	C 	0.9646	0.9793	0.8729	-0.029
Mof_H 	H 	0.935	0.002	0.851	0.057
Mof_C 	C 	0.9652	0.9214	0.9486	0.031
Mof_C 	C 	0.9307	0.8912	0.9875	-0.062
Mof_C 	C 	0.965	0.8625	0.025	-0.002
Mof_H 	H 	0.94	0.845	0.056	0.061
Mof_C 	C 	0.8575	0.8897	0.9881	0.221
Mof_N 	N 	0.3835	0.5857	0.45218	-0.169
Mof_N 	N 	0.1749	0.5818	0.4484	-0.195
Mof_O 	O 	0.1744	0.5292	0.37653	-0.221
Mof_O 	O 	0.1745	0.6324	0.52085	-0.235
Mof_C 	C 	0.4605	0.7711	0.1098	0.018
Mof_H 	H 	0.4401	0.7378	0.0865	0.039
Mof_C 	C 	0.4583	0.7474	0.1549	-0.075
Mof_H 	H 	0.4309	0.701	0.1638	0.064
Mof_C 	C 	0.3506	0.515	0.4439	0.146
Mof_H 	H 	0.3748	0.4662	0.4388	-0.002
Mof_C 	C 	0.282	0.5108	0.4424	-0.236
Mof_H 	H 	0.2604	0.4602	0.4373	0.147
Mof_C 	C 	0.2466	0.5838	0.4487	0.238
Mof_C 	C 	0.2794	0.657	0.456	-0.234
Mof_H 	H 	0.2564	0.707	0.46	0.137
Mof_C 	C 	0.3488	0.655	0.4572	0.141
Mof_H 	H 	0.3716	0.705	0.4618	0.007
Mof_C 	C 	0.1418	0.5512	0.4092	0.217
Mof_C 	C 	0.0695	0.5498	0.4097	-0.064
Mof_C 	C 	0.0354	0.5207	0.3729	-0.028
Mof_H 	H 	0.065	0.498	0.351	0.057
Mof_C 	C 	0.0348	0.5786	0.4486	0.032
Mof_C 	C 	0.0693	0.6088	0.4875	-0.063
Mof_C 	C 	0.035	0.6375	0.525	-0.002
Mof_H 	H 	0.06	0.655	0.556	0.061
Mof_C 	C 	0.1425	0.6103	0.4881	0.221
Mof_N 	N 	0.3835	0.4143	0.54782	-0.169
Mof_N 	N 	0.1749	0.4182	0.5516	-0.195
Mof_O 	O 	0.1744	0.4708	0.62347	-0.221
Mof_O 	O 	0.1745	0.3676	0.47915	-0.235
Mof_C 	C 	0.4605	0.2289	0.8902	0.018
Mof_H 	H 	0.4401	0.2622	0.9135	0.039
Mof_C 	C 	0.4583	0.2526	0.8451	-0.075
Mof_H 	H 	0.4309	0.299	0.8362	0.064
Mof_C 	C 	0.3506	0.485	0.5561	0.146
Mof_H 	H 	0.3748	0.5338	0.5612	-0.002
Mof_C 	C 	0.282	0.4892	0.5576	-0.236
Mof_H 	H 	0.2604	0.5398	0.5627	0.147
Mof_C 	C 	0.2466	0.4162	0.5513	0.238
Mof_C 	C 	0.2794	0.343	0.544	-0.234
Mof_H 	H 	0.2564	0.293	0.54	0.137
Mof_C 	C 	0.3488	0.345	0.5428	0.141
Mof_H 	H 	0.3716	0.295	0.5382	0.007
Mof_C 	C 	0.1418	0.4488	0.5908	0.217
Mof_C 	C 	0.0695	0.4502	0.5903	-0.064
Mof_C 	C 	0.0354	0.4793	0.6271	-0.028
Mof_H 	H 	0.065	0.502	0.649	0.057
Mof_C 	C 	0.0348	0.4214	0.5514	0.032
Mof_C 	C 	0.0693	0.3912	0.5125	-0.063
Mof_C 	C 	0.035	0.3625	0.475	-0.002
Mof_H 	H 	0.06	0.345	0.444	0.061
Mof_C 	C 	0.1425	0.3897	0.5119	0.221
Mof_N 	N 	0.6165	0.0857	0.04782	-0.169
Mof_N 	N 	0.8251	0.0818	0.0516	-0.195
Mof_O 	O 	0.8256	0.0292	0.12347	-0.221
Mof_O 	O 	0.8255	0.1324	0.97915	-0.235
Mof_C 	C 	0.5395	0.2711	0.3902	0.018
Mof_H 	H 	0.5599	0.2378	0.4135	0.039
Mof_C 	C 	0.5417	0.2474	0.3451	-0.075
Mof_H 	H 	0.5691	0.201	0.3362	0.064
Mof_C 	C 	0.6494	0.015	0.0561	0.147
Mof_H 	H 	0.6252	0.9662	0.0612	-0.002
Mof_C 	C 	0.718	0.0108	0.0576	-0.236
Mof_H 	H 	0.7396	0.9602	0.0627	0.147
Mof_C 	C 	0.7534	0.0838	0.0513	0.238
Mof_C 	C 	0.7206	0.157	0.044	-0.234
Mof_H 	H 	0.7436	0.207	0.04	0.137
Mof_C 	C 	0.6512	0.155	0.0428	0.141
Mof_H 	H 	0.6284	0.205	0.0382	0.007
Mof_C 	C 	0.8582	0.0512	0.0908	0.217
Mof_C 	C 	0.9305	0.0498	0.0903	-0.063
Mof_C 	C 	0.9646	0.0207	0.1271	-0.029
Mof_H 	H 	0.935	0.998	0.149	0.057
Mof_C 	C 	0.9652	0.0786	0.0514	0.031
Mof_C 	C 	0.9307	0.1088	0.0125	-0.062
Mof_C 	C 	0.965	0.1375	0.975	-0.002
Mof_H 	H 	0.94	0.155	0.944	0.061
Mof_C 	C 	0.8575	0.1103	0.0119	0.221
Mof_Cd	Cd	0.5	0.09257	0.0436	0.468
Mof_C 	C 	0.5	0.1701	0.1261	0.316
Mof_O 	O 	0.5	0.3173	0.4812	-0.294
Mof_O 	O 	0.5	0.4451	0.46207	-0.317
Mof_C 	C 	0.5	0.2041	0.1737	-0.088
Mof_O 	O 	0.5	0.2185	0.09295	-0.273
Mof_C 	C 	0.5	0.288	0.1824	0.028
Mof_H 	H 	0.5	0.3254	0.1581	0.037
Mof_O 	O 	0.5	0.0921	0.1218	-0.281
Mof_C 	C 	0.5	0.3186	0.2262	-0.089
Mof_H 	H 	0.5	0.3762	0.231	0.064
Mof_C 	C 	0.5	0.1799	0.2544	-0.089
Mof_H 	H 	0.5	0.1425	0.2788	0.065
Mof_C 	C 	0.5	0.149	0.2104	0.026
Mof_H 	H 	0.5	0.0915	0.2053	0.038
Mof_C 	C 	0.5	0.2647	0.2633	0.029
Mof_C 	C 	0.5	0.2955	0.3105	0.07
Mof_C 	C 	0.5	0.3715	0.3227	-0.126
Mof_H 	H 	0.5	0.4121	0.3	0.081
Mof_C 	C 	0.5	0.3988	0.3684	0.06
Mof_H 	H 	0.5	0.456	0.3743	0.04
Mof_C 	C 	0.5	0.3474	0.4023	-0.126
Mof_C 	C 	0.5	0.3713	0.4516	0.358
Mof_Cd	Cd	0.5	0.40743	0.5436	0.468
Mof_C 	C 	0.5	0.3299	0.6261	0.316
Mof_O 	O 	0.5	0.1827	0.9812	-0.295
Mof_O 	O 	0.5	0.0549	0.96207	-0.317
Mof_C 	C 	0.5	0.2959	0.6737	-0.088
Mof_O 	O 	0.5	0.2815	0.59295	-0.273
Mof_C 	C 	0.5	0.212	0.6824	0.028
Mof_H 	H 	0.5	0.1746	0.6581	0.037
Mof_O 	O 	0.5	0.4079	0.6218	-0.281
Mof_C 	C 	0.5	0.1814	0.7262	-0.089
Mof_H 	H 	0.5	0.1238	0.731	0.064
Mof_C 	C 	0.5	0.3201	0.7544	-0.089
Mof_H 	H 	0.5	0.3575	0.7788	0.065
Mof_C 	C 	0.5	0.351	0.7104	0.026
Mof_H 	H 	0.5	0.4085	0.7053	0.038
Mof_C 	C 	0.5	0.2353	0.7633	0.029
Mof_C 	C 	0.5	0.2045	0.8105	0.07
Mof_C 	C 	0.5	0.1285	0.8227	-0.126
Mof_H 	H 	0.5	0.0879	0.8	0.081
Mof_C 	C 	0.5	0.1012	0.8684	0.061
Mof_H 	H 	0.5	0.044	0.8743	0.04
Mof_C 	C 	0.5	0.1526	0.9023	-0.126
Mof_C 	C 	0.5	0.1287	0.9516	0.358
Mof_Cd	Cd	0.5	0.59257	0.4564	0.468
Mof_C 	C 	0.5	0.6701	0.3739	0.316
Mof_O 	O 	0.5	0.8173	0.0188	-0.295
Mof_O 	O 	0.5	0.9451	0.03793	-0.317
Mof_C 	C 	0.5	0.7041	0.3263	-0.088
Mof_O 	O 	0.5	0.7185	0.40705	-0.273
Mof_C 	C 	0.5	0.788	0.3176	0.028
Mof_H 	H 	0.5	0.8254	0.3419	0.037
Mof_O 	O 	0.5	0.5921	0.3782	-0.281
Mof_C 	C 	0.5	0.8186	0.2738	-0.089
Mof_H 	H 	0.5	0.8762	0.269	0.064
Mof_C 	C 	0.5	0.6799	0.2456	-0.089
Mof_H 	H 	0.5	0.6425	0.2212	0.065
Mof_C 	C 	0.5	0.649	0.2896	0.026
Mof_H 	H 	0.5	0.5915	0.2947	0.038
Mof_C 	C 	0.5	0.7647	0.2367	0.029
Mof_C 	C 	0.5	0.7955	0.1895	0.07
Mof_C 	C 	0.5	0.8715	0.1773	-0.126
Mof_H 	H 	0.5	0.9121	0.2	0.081
Mof_C 	C 	0.5	0.8988	0.1316	0.061
Mof_H 	H 	0.5	0.956	0.1257	0.04
Mof_C 	C 	0.5	0.8474	0.0977	-0.126
Mof_C 	C 	0.5	0.8713	0.0484	0.358
Mof_Cd	Cd	0.5	0.90743	0.9564	0.468
Mof_C 	C 	0.5	0.8299	0.8739	0.316
Mof_O 	O 	0.5	0.6827	0.5188	-0.294
Mof_O 	O 	0.5	0.5549	0.53793	-0.317
Mof_C 	C 	0.5	0.7959	0.8263	-0.088
Mof_O 	O 	0.5	0.7815	0.90705	-0.273
Mof_C 	C 	0.5	0.712	0.8176	0.028
Mof_H 	H 	0.5	0.6746	0.8419	0.037
Mof_O 	O 	0.5	0.9079	0.8782	-0.281
Mof_C 	C 	0.5	0.6814	0.7738	-0.089
Mof_H 	H 	0.5	0.6238	0.769	0.064
Mof_C 	C 	0.5	0.8201	0.7456	-0.089
Mof_H 	H 	0.5	0.8575	0.7212	0.065
Mof_C 	C 	0.5	0.851	0.7896	0.026
Mof_H 	H 	0.5	0.9085	0.7947	0.038
Mof_C 	C 	0.5	0.7353	0.7367	0.029
Mof_C 	C 	0.5	0.7045	0.6895	0.07
Mof_C 	C 	0.5	0.6285	0.6773	-0.126
Mof_H 	H 	0.5	0.5879	0.7	0.081
Mof_C 	C 	0.5	0.6012	0.6316	0.06
Mof_H 	H 	0.5	0.544	0.6257	0.04
Mof_C 	C 	0.5	0.6526	0.5977	-0.126
Mof_C 	C 	0.5	0.6287	0.5484	0.358
Mof_N 	N 	0.8835	0.5857	0.04782	-0.169
Mof_N 	N 	0.6749	0.5818	0.0516	-0.195
Mof_O 	O 	0.6744	0.5292	0.12347	-0.221
Mof_O 	O 	0.6745	0.6324	0.97915	-0.235
Mof_C 	C 	0.9605	0.7711	0.3902	0.017
Mof_H 	H 	0.9401	0.7378	0.4135	0.039
Mof_C 	C 	0.9583	0.7474	0.3451	-0.075
Mof_H 	H 	0.9309	0.701	0.3362	0.064
Mof_C 	C 	0.8506	0.515	0.0561	0.146
Mof_H 	H 	0.8748	0.4662	0.0612	-0.002
Mof_C 	C 	0.782	0.5108	0.0576	-0.236
Mof_H 	H 	0.7604	0.4602	0.0627	0.147
Mof_C 	C 	0.7466	0.5838	0.0513	0.238
Mof_C 	C 	0.7794	0.657	0.044	-0.234
Mof_H 	H 	0.7564	0.707	0.04	0.137
Mof_C 	C 	0.8488	0.655	0.0428	0.141
Mof_H 	H 	0.8716	0.705	0.0382	0.007
Mof_C 	C 	0.6418	0.5512	0.0908	0.217
Mof_C 	C 	0.5695	0.5498	0.0903	-0.064
Mof_C 	C 	0.5354	0.5207	0.1271	-0.028
Mof_H 	H 	0.565	0.498	0.149	0.058
Mof_C 	C 	0.5348	0.5786	0.0514	0.031
Mof_C 	C 	0.5693	0.6088	0.0125	-0.062
Mof_C 	C 	0.535	0.6375	0.975	-0.002
Mof_H 	H 	0.56	0.655	0.944	0.061
Mof_C 	C 	0.6425	0.6103	0.0119	0.221
Mof_N 	N 	0.1165	0.9143	0.54782	-0.169
Mof_N 	N 	0.3251	0.9182	0.5516	-0.195
Mof_O 	O 	0.3256	0.9708	0.62347	-0.221
Mof_O 	O 	0.3255	0.8676	0.47915	-0.235
Mof_C 	C 	0.0395	0.7289	0.8902	0.018
Mof_H 	H 	0.0599	0.7622	0.9135	0.039
Mof_C 	C 	0.0417	0.7526	0.8451	-0.075
Mof_H 	H 	0.0691	0.799	0.8362	0.064
Mof_C 	C 	0.1494	0.985	0.5561	0.146
Mof_H 	H 	0.1252	0.0338	0.5612	-0.002
Mof_C 	C 	0.218	0.9892	0.5576	-0.236
Mof_H 	H 	0.2396	0.0398	0.5627	0.147
Mof_C 	C 	0.2534	0.9162	0.5513	0.238
Mof_C 	C 	0.2206	0.843	0.544	-0.234
Mof_H 	H 	0.2436	0.793	0.54	0.137
Mof_C 	C 	0.1512	0.845	0.5428	0.141
Mof_H 	H 	0.1284	0.795	0.5382	0.007
Mof_C 	C 	0.3582	0.9488	0.5908	0.217
Mof_C 	C 	0.4305	0.9502	0.5903	-0.064
Mof_C 	C 	0.4646	0.9793	0.6271	-0.028
Mof_H 	H 	0.435	0.002	0.649	0.057
Mof_C 	C 	0.4652	0.9214	0.5514	0.031
Mof_C 	C 	0.4307	0.8912	0.5125	-0.062
Mof_C 	C 	0.465	0.8625	0.475	-0.002
Mof_H 	H 	0.44	0.845	0.444	0.061
Mof_C 	C 	0.3575	0.8897	0.5119	0.221
Mof_N 	N 	0.1165	0.0857	0.45218	-0.169
Mof_N 	N 	0.3251	0.0818	0.4484	-0.195
Mof_O 	O 	0.3256	0.0292	0.37653	-0.221
Mof_O 	O 	0.3255	0.1324	0.52085	-0.235
Mof_C 	C 	0.0395	0.2711	0.1098	0.018
Mof_H 	H 	0.0599	0.2378	0.0865	0.039
Mof_C 	C 	0.0417	0.2474	0.1549	-0.075
Mof_H 	H 	0.0691	0.201	0.1638	0.064
Mof_C 	C 	0.1494	0.015	0.4439	0.146
Mof_H 	H 	0.1252	0.9662	0.4388	-0.002
Mof_C 	C 	0.218	0.0108	0.4424	-0.236
Mof_H 	H 	0.2396	0.9602	0.4373	0.147
Mof_C 	C 	0.2534	0.0838	0.4487	0.238
Mof_C 	C 	0.2206	0.157	0.456	-0.234
Mof_H 	H 	0.2436	0.207	0.46	0.137
Mof_C 	C 	0.1512	0.155	0.4572	0.141
Mof_H 	H 	0.1284	0.205	0.4618	0.007
Mof_C 	C 	0.3582	0.0512	0.4092	0.217
Mof_C 	C 	0.4305	0.0498	0.4097	-0.064
Mof_C 	C 	0.4646	0.0207	0.3729	-0.028
Mof_H 	H 	0.435	0.998	0.351	0.057
Mof_C 	C 	0.4652	0.0786	0.4486	0.031
Mof_C 	C 	0.4307	0.1088	0.4875	-0.062
Mof_C 	C 	0.465	0.1375	0.525	-0.002
Mof_H 	H 	0.44	0.155	0.556	0.061
Mof_C 	C 	0.3575	0.1103	0.4881	0.221
Mof_N 	N 	0.8835	0.4143	0.95218	-0.169
Mof_N 	N 	0.6749	0.4182	0.9484	-0.195
Mof_O 	O 	0.6744	0.4708	0.87653	-0.221
Mof_O 	O 	0.6745	0.3676	0.02085	-0.235
Mof_C 	C 	0.9605	0.2289	0.6098	0.017
Mof_H 	H 	0.9401	0.2622	0.5865	0.039
Mof_C 	C 	0.9583	0.2526	0.6549	-0.075
Mof_H 	H 	0.9309	0.299	0.6638	0.064
Mof_C 	C 	0.8506	0.485	0.9439	0.146
Mof_H 	H 	0.8748	0.5338	0.9388	-0.002
Mof_C 	C 	0.782	0.4892	0.9424	-0.236
Mof_H 	H 	0.7604	0.5398	0.9373	0.147
Mof_C 	C 	0.7466	0.4162	0.9487	0.238
Mof_C 	C 	0.7794	0.343	0.956	-0.234
Mof_H 	H 	0.7564	0.293	0.96	0.137
Mof_C 	C 	0.8488	0.345	0.9572	0.141
Mof_H 	H 	0.8716	0.295	0.9618	0.007
Mof_C 	C 	0.6418	0.4488	0.9092	0.217
Mof_C 	C 	0.5695	0.4502	0.9097	-0.064
Mof_C 	C 	0.5354	0.4793	0.8729	-0.028
Mof_H 	H 	0.565	0.502	0.851	0.058
Mof_C 	C 	0.5348	0.4214	0.9486	0.031
Mof_C 	C 	0.5693	0.3912	0.9875	-0.062
Mof_C 	C 	0.535	0.3625	0.025	-0.002
Mof_H 	H 	0.56	0.345	0.056	0.061
Mof_C 	C 	0.6425	0.3897	0.9881	0.221
Mof_N 	N 	0.1165	0.4143	0.95218	-0.169
Mof_N 	N 	0.3251	0.4182	0.9484	-0.195
Mof_O 	O 	0.3256	0.4708	0.87653	-0.221
Mof_O 	O 	0.3255	0.3676	0.02085	-0.235
Mof_C 	C 	0.0395	0.2289	0.6098	0.018
Mof_H 	H 	0.0599	0.2622	0.5865	0.039
Mof_C 	C 	0.0417	0.2526	0.6549	-0.075
Mof_H 	H 	0.0691	0.299	0.6638	0.064
Mof_C 	C 	0.1494	0.485	0.9439	0.146
Mof_H 	H 	0.1252	0.5338	0.9388	-0.002
Mof_C 	C 	0.218	0.4892	0.9424	-0.236
Mof_H 	H 	0.2396	0.5398	0.9373	0.147
Mof_C 	C 	0.2534	0.4162	0.9487	0.238
Mof_C 	C 	0.2206	0.343	0.956	-0.234
Mof_H 	H 	0.2436	0.293	0.96	0.137
Mof_C 	C 	0.1512	0.345	0.9572	0.141
Mof_H 	H 	0.1284	0.295	0.9618	0.007
Mof_C 	C 	0.3582	0.4488	0.9092	0.217
Mof_C 	C 	0.4305	0.4502	0.9097	-0.064
Mof_C 	C 	0.4646	0.4793	0.8729	-0.028
Mof_H 	H 	0.435	0.502	0.851	0.058
Mof_C 	C 	0.4652	0.4214	0.9486	0.031
Mof_C 	C 	0.4307	0.3912	0.9875	-0.062
Mof_C 	C 	0.465	0.3625	0.025	-0.002
Mof_H 	H 	0.44	0.345	0.056	0.061
Mof_C 	C 	0.3575	0.3897	0.9881	0.221
Mof_N 	N 	0.8835	0.0857	0.45218	-0.169
Mof_N 	N 	0.6749	0.0818	0.4484	-0.195
Mof_O 	O 	0.6744	0.0292	0.37653	-0.221
Mof_O 	O 	0.6745	0.1324	0.52085	-0.235
Mof_C 	C 	0.9605	0.2711	0.1098	0.017
Mof_H 	H 	0.9401	0.2378	0.0865	0.039
Mof_C 	C 	0.9583	0.2474	0.1549	-0.075
Mof_H 	H 	0.9309	0.201	0.1638	0.064
Mof_C 	C 	0.8506	0.015	0.4439	0.146
Mof_H 	H 	0.8748	0.9662	0.4388	-0.002
Mof_C 	C 	0.782	0.0108	0.4424	-0.236
Mof_H 	H 	0.7604	0.9602	0.4373	0.147
Mof_C 	C 	0.7466	0.0838	0.4487	0.238
Mof_C 	C 	0.7794	0.157	0.456	-0.234
Mof_H 	H 	0.7564	0.207	0.46	0.137
Mof_C 	C 	0.8488	0.155	0.4572	0.141
Mof_H 	H 	0.8716	0.205	0.4618	0.007
Mof_C 	C 	0.6418	0.0512	0.4092	0.217
Mof_C 	C 	0.5695	0.0498	0.4097	-0.064
Mof_C 	C 	0.5354	0.0207	0.3729	-0.028
Mof_H 	H 	0.565	0.998	0.351	0.057
Mof_C 	C 	0.5348	0.0786	0.4486	0.031
Mof_C 	C 	0.5693	0.1088	0.4875	-0.062
Mof_C 	C 	0.535	0.1375	0.525	-0.002
Mof_H 	H 	0.56	0.155	0.556	0.061
Mof_C 	C 	0.6425	0.1103	0.4881	0.221
Mof_N 	N 	0.8835	0.9143	0.54782	-0.169
Mof_N 	N 	0.6749	0.9182	0.5516	-0.195
Mof_O 	O 	0.6744	0.9708	0.62347	-0.221
Mof_O 	O 	0.6745	0.8676	0.47915	-0.235
Mof_C 	C 	0.9605	0.7289	0.8902	0.017
Mof_H 	H 	0.9401	0.7622	0.9135	0.039
Mof_C 	C 	0.9583	0.7526	0.8451	-0.075
Mof_H 	H 	0.9309	0.799	0.8362	0.064
Mof_C 	C 	0.8506	0.985	0.5561	0.146
Mof_H 	H 	0.8748	0.0338	0.5612	-0.002
Mof_C 	C 	0.782	0.9892	0.5576	-0.236
Mof_H 	H 	0.7604	0.0398	0.5627	0.147
Mof_C 	C 	0.7466	0.9162	0.5513	0.238
Mof_C 	C 	0.7794	0.843	0.544	-0.234
Mof_H 	H 	0.7564	0.793	0.54	0.137
Mof_C 	C 	0.8488	0.845	0.5428	0.141
Mof_H 	H 	0.8716	0.795	0.5382	0.007
Mof_C 	C 	0.6418	0.9488	0.5908	0.217
Mof_C 	C 	0.5695	0.9502	0.5903	-0.064
Mof_C 	C 	0.5354	0.9793	0.6271	-0.028
Mof_H 	H 	0.565	0.002	0.649	0.057
Mof_C 	C 	0.5348	0.9214	0.5514	0.031
Mof_C 	C 	0.5693	0.8912	0.5125	-0.062
Mof_C 	C 	0.535	0.8625	0.475	-0.002
Mof_H 	H 	0.56	0.845	0.444	0.061
Mof_C 	C 	0.6425	0.8897	0.5119	0.221
Mof_N 	N 	0.1165	0.5857	0.04782	-0.169
Mof_N 	N 	0.3251	0.5818	0.0516	-0.195
Mof_O 	O 	0.3256	0.5292	0.12347	-0.221
Mof_O 	O 	0.3255	0.6324	0.97915	-0.235
Mof_C 	C 	0.0395	0.7711	0.3902	0.018
Mof_H 	H 	0.0599	0.7378	0.4135	0.039
Mof_C 	C 	0.0417	0.7474	0.3451	-0.075
Mof_H 	H 	0.0691	0.701	0.3362	0.064
Mof_C 	C 	0.1494	0.515	0.0561	0.146
Mof_H 	H 	0.1252	0.4662	0.0612	-0.002
Mof_C 	C 	0.218	0.5108	0.0576	-0.236
Mof_H 	H 	0.2396	0.4602	0.0627	0.147
Mof_C 	C 	0.2534	0.5838	0.0513	0.238
Mof_C 	C 	0.2206	0.657	0.044	-0.234
Mof_H 	H 	0.2436	0.707	0.04	0.137
Mof_C 	C 	0.1512	0.655	0.0428	0.141
Mof_H 	H 	0.1284	0.705	0.0382	0.007
Mof_C 	C 	0.3582	0.5512	0.0908	0.217
Mof_C 	C 	0.4305	0.5498	0.0903	-0.064
Mof_C 	C 	0.4646	0.5207	0.1271	-0.028
Mof_H 	H 	0.435	0.498	0.149	0.058
Mof_C 	C 	0.4652	0.5786	0.0514	0.031
Mof_C 	C 	0.4307	0.6088	0.0125	-0.062
Mof_C 	C 	0.465	0.6375	0.975	-0.002
Mof_H 	H 	0.44	0.655	0.944	0.061
Mof_C 	C 	0.3575	0.6103	0.0119	0.221
Mof_Cd	Cd	4.25749e-33	0.59257	0.0436	0.468
Mof_C 	C 	2.02802e-33	0.6701	0.1261	0.316
Mof_O 	O 	2.62607e-33	0.8173	0.4812	-0.294
Mof_O 	O 	7.88107e-33	0.9451	0.46207	-0.317
Mof_C 	C 	9.47941e-34	0.7041	0.1737	-0.088
Mof_O 	O 	-7.53183e-33	0.7185	0.09295	-0.273
Mof_C 	C 	6.35481e-33	0.788	0.1824	0.028
Mof_H 	H 	3.5425e-33	0.8254	0.1581	0.037
Mof_O 	O 	-2.01499e-33	0.5921	0.1218	-0.281
Mof_C 	C 	-1.44525e-33	0.8186	0.2262	-0.089
Mof_H 	H 	1.26065e-33	0.8762	0.231	0.064
Mof_C 	C 	-6.65074e-33	0.6799	0.2544	-0.089
Mof_H 	H 	1.52151e-33	0.6425	0.2788	0.065
Mof_C 	C 	-6.89087e-33	0.649	0.2104	0.026
Mof_H 	H 	3.80009e-33	0.5915	0.2053	0.038
Mof_C 	C 	1.43692e-33	0.7647	0.2633	0.029
Mof_C 	C 	1.69451e-33	0.7955	0.3105	0.07
Mof_C 	C 	1.76109e-33	0.8715	0.3227	-0.126
Mof_H 	H 	6.9966e-33	0.9121	0.3	0.081
Mof_C 	C 	-3.34891e-33	0.8988	0.3684	0.06
Mof_H 	H 	-8.6761e-33	0.956	0.3743	0.04
Mof_C 	C 	7.55488e-33	0.8474	0.4023	-0.125
Mof_C 	C 	7.82393e-33	0.8713	0.4516	0.358
Mof_Cd	Cd	2.96661e-33	0.90743	0.5436	0.468
Mof_C 	C 	3.41684e-33	0.8299	0.6261	0.316
Mof_O 	O 	5.35475e-33	0.6827	0.9812	-0.294
Mof_O 	O 	5.25035e-33	0.5549	0.96207	-0.317
Mof_C 	C 	-1.7761e-32	0.7959	0.6737	-0.088
Mof_O 	O 	-7.48286e-33	0.7815	0.59295	-0.273
Mof_C 	C 	-1.77135e-32	0.712	0.6824	0.028
Mof_H 	H 	3.59148e-33	0.6746	0.6581	0.037
Mof_O 	O 	-1.80442e-32	0.9079	0.6218	-0.281
Mof_C 	C 	1.46819e-32	0.6814	0.7262	-0.089
Mof_H 	H 	3.98932e-33	0.6238	0.731	0.064
Mof_C 	C 	-6.60177e-33	0.8201	0.7544	-0.089
Mof_H 	H 	-6.46861e-33	0.8575	0.7788	0.065
Mof_C 	C 	1.45957e-32	0.851	0.7104	0.026
Mof_H 	H 	-6.86972e-33	0.9085	0.7053	0.038
Mof_C 	C 	4.16559e-33	0.7353	0.7633	0.029
Mof_C 	C 	-6.29561e-33	0.7045	0.8105	0.07
Mof_C 	C 	-1.69478e-32	0.6285	0.8227	-0.126
Mof_H 	H 	4.36588e-33	0.5879	0.8	0.081
Mof_C 	C 	4.73916e-33	0.6012	0.8684	0.06
Mof_H 	H 	4.77136e-33	0.544	0.8743	0.04
Mof_C 	C 	-5.79463e-33	0.6526	0.9023	-0.125
Mof_C 	C 	5.19321e-33	0.6287	0.9516	0.358
Mof_Cd	Cd	2.49073e-33	0.09257	0.4564	0.468
Mof_C 	C 	7.3999e-33	0.1701	0.3739	0.316
Mof_O 	O 	-5.67326e-34	0.3173	0.0188	-0.294
Mof_O 	O 	2.06997e-34	0.4451	0.03793	-0.317
Mof_C 	C 	1.78073e-33	0.2041	0.3263	-0.088
Mof_O 	O 	2.22141e-33	0.2185	0.40705	-0.273
Mof_C 	C 	1.73325e-33	0.288	0.3176	0.028
Mof_H 	H 	1.86587e-33	0.3254	0.3419	0.037
Mof_O 	O 	-3.29543e-33	0.0921	0.3782	-0.281
Mof_C 	C 	-3.86517e-33	0.3186	0.2738	-0.089
Mof_H 	H 	-3.89137e-33	0.3762	0.269	0.064
Mof_C 	C 	-1.33937e-33	0.1799	0.2456	-0.089
Mof_H 	H 	-4.15223e-33	0.1425	0.2212	0.065
Mof_C 	C 	1.58045e-33	0.149	0.2896	0.026
Mof_H 	H 	1.60828e-33	0.0915	0.2947	0.038
Mof_C 	C 	-1.38794e-33	0.2647	0.2367	0.029
Mof_C 	C 	-1.64553e-33	0.2955	0.1895	0.07
Mof_C 	C 	-4.39181e-33	0.3715	0.1773	-0.126
Mof_H 	H 	-1.58823e-33	0.4121	0.2	0.081
Mof_C 	C 	-6.21662e-34	0.3988	0.1316	0.06
Mof_H 	H 	-1.99371e-33	0.456	0.1257	0.04
Mof_C 	C 	5.33183e-34	0.3474	0.0977	-0.125
Mof_C 	C 	-3.08549e-33	0.3713	0.0484	0.358
Mof_Cd	Cd	-5.49938e-33	0.40743	0.9564	0.468
Mof_C 	C 	4.76917e-33	0.3299	0.8739	0.316
Mof_O 	O 	2.83127e-33	0.1827	0.5188	-0.294
Mof_O 	O 	-7.78312e-33	0.0549	0.53793	-0.317
Mof_C 	C 	4.5094e-33	0.2959	0.8263	-0.088
Mof_O 	O 	-5.7687e-33	0.2815	0.90705	-0.273
Mof_C 	C 	-6.25686e-33	0.212	0.8176	0.028
Mof_H 	H 	1.53133e-32	0.1746	0.8419	0.037
Mof_O 	O 	1.55114e-32	0.4079	0.8782	-0.281
Mof_C 	C 	-6.49589e-33	0.1814	0.7738	-0.089
Mof_H 	H 	4.1967e-33	0.1238	0.769	0.064
Mof_C 	C 	-6.64979e-33	0.3201	0.7456	-0.089
Mof_H 	H 	3.93584e-33	0.3575	0.7212	0.065
Mof_C 	C 	4.30912e-33	0.351	0.7896	0.026
Mof_H 	H 	-6.38184e-33	0.4085	0.7947	0.038
Mof_C 	C 	-6.69836e-33	0.2353	0.7367	0.029
Mof_C 	C 	-6.95595e-33	0.2045	0.6895	0.07
Mof_C 	C 	-7.02253e-33	0.1285	0.6773	-0.126
Mof_H 	H 	1.45389e-32	0.0879	0.7	0.081
Mof_C 	C 	-7.27193e-33	0.1012	0.6316	0.06
Mof_H 	H 	-7.30413e-33	0.044	0.6257	0.04
Mof_C 	C 	-7.45693e-33	0.1526	0.5977	-0.125
Mof_C 	C 	-7.72598e-33	0.1287	0.5484	0.358
_end
