data_functionalizedCrystal
_audit_creation_method	'EQeq! by Chris Wilmer'
_symmetry_space_group_name_H-M	'P1'
_symmetry_Int_Tables_number	1
_symmetry_cell_setting	triclinic
loop_
_symmetry_equiv_pos_as_xyz
  x,y,z
_cell_length_a	8.254
_cell_length_b	18.006
_cell_length_c	18.896
_cell_angle_alpha	90
_cell_angle_beta	90
_cell_angle_gamma	90
loop_
_atom_site_label
_atom_site_type_symbol
_atom_site_fract_x
_atom_site_fract_y
_atom_site_fract_z
_atom_site_charge
Mof_Cd	Cd	0.48731	0.09337	0.02727	0.44
Mof_Cd	Cd	0.51269	0.59337	0.97273	0.438
Mof_Cd	Cd	0.51269	0.09337	0.52727	0.44
Mof_Cd	Cd	0.48731	0.59337	0.47273	0.438
Mof_H 	H 	0.6489	0.0849	0.8641	0.039
Mof_H 	H 	0.5013	0.0719	0.7505	0.053
Mof_H 	H 	0.184	0.1085	0.9054	0.011
Mof_H 	H 	0.0015	0.0342	0.828	0.102
Mof_H 	H 	0.7842	0.037	0.7506	0.019
Mof_H 	H 	0.0664	0.1315	0.6022	0.031
Mof_H 	H 	0.2841	0.1298	0.6801	0.105
Mof_H 	H 	0.418	0.2525	0.1301	0.039
Mof_H 	H 	0.6005	0.3608	0.1349	0.038
Mof_H 	H 	0.7863	0.2107	0.0036	0.015
Mof_H 	H 	0.742	0.4444	0.0387	0.108
Mof_H 	H 	0.9576	0.5233	0.0126	0.033
Mof_H 	H 	0.2661	0.3513	0.024	0.025
Mof_H 	H 	0.0524	0.2713	0.0498	0.107
Mof_H 	H 	0.3511	0.5849	0.1359	0.038
Mof_H 	H 	0.4987	0.5719	0.2495	0.052
Mof_H 	H 	0.816	0.6085	0.0946	0.01
Mof_H 	H 	0.9985	0.5342	0.172	0.1
Mof_H 	H 	0.2158	0.537	0.2494	0.018
Mof_H 	H 	0.9336	0.6315	0.3978	0.031
Mof_H 	H 	0.7159	0.6298	0.3199	0.104
Mof_H 	H 	0.582	0.7525	0.8699	0.039
Mof_H 	H 	0.3995	0.8608	0.8651	0.037
Mof_H 	H 	0.2137	0.7107	0.9964	0.015
Mof_H 	H 	0.258	0.9444	0.9613	0.102
Mof_H 	H 	0.0424	0.0233	0.9874	0.046
Mof_H 	H 	0.7339	0.8513	0.976	0.028
Mof_H 	H 	0.9476	0.7713	0.9502	0.104
Mof_H 	H 	0.3511	0.0849	0.3641	0.039
Mof_H 	H 	0.4987	0.0719	0.2505	0.053
Mof_H 	H 	0.816	0.1085	0.4054	0.01
Mof_H 	H 	0.9985	0.0342	0.328	0.102
Mof_H 	H 	0.2158	0.037	0.2506	0.019
Mof_H 	H 	0.9336	0.1315	0.1022	0.031
Mof_H 	H 	0.7159	0.1298	0.1801	0.105
Mof_H 	H 	0.582	0.2525	0.6301	0.039
Mof_H 	H 	0.3995	0.3608	0.6349	0.039
Mof_H 	H 	0.2137	0.2107	0.5036	0.015
Mof_H 	H 	0.258	0.4444	0.5387	0.108
Mof_H 	H 	0.0424	0.5233	0.5126	0.033
Mof_H 	H 	0.7339	0.3513	0.524	0.025
Mof_H 	H 	0.9476	0.2713	0.5498	0.107
Mof_H 	H 	0.6489	0.5849	0.6359	0.038
Mof_H 	H 	0.5013	0.5719	0.7495	0.052
Mof_H 	H 	0.184	0.6085	0.5946	0.011
Mof_H 	H 	0.0015	0.5342	0.672	0.1
Mof_H 	H 	0.7842	0.537	0.7494	0.018
Mof_H 	H 	0.0664	0.6315	0.8978	0.031
Mof_H 	H 	0.2841	0.6298	0.8199	0.104
Mof_H 	H 	0.418	0.7525	0.3699	0.039
Mof_H 	H 	0.6005	0.8608	0.3651	0.038
Mof_H 	H 	0.7863	0.7107	0.4964	0.015
Mof_H 	H 	0.742	0.9444	0.4613	0.102
Mof_H 	H 	0.9576	0.0233	0.4874	0.044
Mof_H 	H 	0.2661	0.8513	0.476	0.027
Mof_H 	H 	0.0524	0.7713	0.4502	0.104
Mof_C 	C 	0.5373	0.0879	0.8581	0.013
Mof_C 	C 	0.4561	0.0802	0.7949	-0
Mof_C 	C 	0.2809	0.1006	0.8815	0.101
Mof_C 	C 	0.1615	0.0858	0.7625	0.159
Mof_C 	C 	0.0132	0.0549	0.7832	-0.172
Mof_C 	C 	0.8842	0.0555	0.7364	0.074
Mof_C 	C 	0.9025	0.0837	0.6681	-0.114
Mof_C 	C 	0.0532	0.1123	0.6475	0.069
Mof_C 	C 	0.1833	0.1122	0.6944	-0.167
Mof_C 	C 	0.763	0.0882	0.6172	0.298
Mof_C 	C 	0.5146	0.2579	0.1053	0.003
Mof_C 	C 	0.6154	0.3181	0.108	0.009
Mof_C 	C 	0.7174	0.2345	0.0352	0.1
Mof_C 	C 	0.878	0.3511	0.0478	0.16
Mof_C 	C 	0.8471	0.4259	0.0361	-0.17
Mof_C 	C 	0.9766	0.4731	0.0203	0.063
Mof_C 	C 	0.134	0.4455	0.0161	-0.113
Mof_C 	C 	0.1612	0.3699	0.0271	0.07
Mof_C 	C 	0.0339	0.3217	0.0428	-0.174
Mof_C 	C 	0.2725	0.4973	0.0002	0.299
Mof_C 	C 	0.4627	0.5879	0.1419	0.012
Mof_C 	C 	0.5439	0.5802	0.2051	-0.001
Mof_C 	C 	0.7191	0.6006	0.1185	0.099
Mof_C 	C 	0.8385	0.5858	0.2375	0.158
Mof_C 	C 	0.9868	0.5549	0.2168	-0.172
Mof_C 	C 	0.1158	0.5555	0.2636	0.073
Mof_C 	C 	0.0975	0.5837	0.3319	-0.115
Mof_C 	C 	0.9468	0.6123	0.3525	0.068
Mof_C 	C 	0.8167	0.6122	0.3056	-0.167
Mof_C 	C 	0.237	0.5882	0.3828	0.298
Mof_C 	C 	0.4854	0.7579	0.8947	0.003
Mof_C 	C 	0.3846	0.8181	0.892	0.009
Mof_C 	C 	0.2826	0.7345	0.9648	0.1
Mof_C 	C 	0.122	0.8511	0.9522	0.153
Mof_C 	C 	0.1529	0.9259	0.9639	-0.156
Mof_C 	C 	0.0234	0.9731	0.9797	0.039
Mof_C 	C 	0.866	0.9455	0.9839	-0.103
Mof_C 	C 	0.8388	0.8699	0.9729	0.061
Mof_C 	C 	0.9661	0.8217	0.9572	-0.167
Mof_C 	C 	0.7275	0.9973	0.9998	0.29
Mof_C 	C 	0.4627	0.0879	0.3581	0.013
Mof_C 	C 	0.5439	0.0802	0.2949	-0.001
Mof_C 	C 	0.7191	0.1006	0.3815	0.101
Mof_C 	C 	0.8385	0.0858	0.2625	0.159
Mof_C 	C 	0.9868	0.0549	0.2832	-0.172
Mof_C 	C 	0.1158	0.0555	0.2364	0.074
Mof_C 	C 	0.0975	0.0837	0.1681	-0.114
Mof_C 	C 	0.9468	0.1123	0.1475	0.069
Mof_C 	C 	0.8167	0.1122	0.1944	-0.167
Mof_C 	C 	0.237	0.0882	0.1172	0.298
Mof_C 	C 	0.4854	0.2579	0.6053	0.003
Mof_C 	C 	0.3846	0.3181	0.608	0.009
Mof_C 	C 	0.2826	0.2345	0.5352	0.1
Mof_C 	C 	0.122	0.3511	0.5478	0.161
Mof_C 	C 	0.1529	0.4259	0.5361	-0.17
Mof_C 	C 	0.0234	0.4731	0.5203	0.064
Mof_C 	C 	0.866	0.4455	0.5161	-0.114
Mof_C 	C 	0.8388	0.3699	0.5271	0.07
Mof_C 	C 	0.9661	0.3217	0.5428	-0.174
Mof_C 	C 	0.7275	0.4973	0.5002	0.301
Mof_C 	C 	0.5373	0.5879	0.6419	0.012
Mof_C 	C 	0.4561	0.5802	0.7051	-0.001
Mof_C 	C 	0.2809	0.6006	0.6185	0.099
Mof_C 	C 	0.1615	0.5858	0.7375	0.158
Mof_C 	C 	0.0132	0.5549	0.7168	-0.172
Mof_C 	C 	0.8842	0.5555	0.7636	0.073
Mof_C 	C 	0.9025	0.5837	0.8319	-0.114
Mof_C 	C 	0.0532	0.6123	0.8525	0.068
Mof_C 	C 	0.1833	0.6122	0.8056	-0.167
Mof_C 	C 	0.763	0.5882	0.8828	0.298
Mof_C 	C 	0.5146	0.7579	0.3947	0.003
Mof_C 	C 	0.6154	0.8181	0.392	0.009
Mof_C 	C 	0.7174	0.7345	0.4648	0.1
Mof_C 	C 	0.878	0.8511	0.4522	0.154
Mof_C 	C 	0.8471	0.9259	0.4639	-0.158
Mof_C 	C 	0.9766	0.9731	0.4797	0.041
Mof_C 	C 	0.134	0.9455	0.4839	-0.103
Mof_C 	C 	0.1612	0.8699	0.4729	0.062
Mof_C 	C 	0.0339	0.8217	0.4572	-0.167
Mof_C 	C 	0.2725	0.9973	0.4998	0.289
Mof_N 	N 	0.4249	0.101	0.9111	-0.141
Mof_N 	N 	0.2932	0.0872	0.8111	-0.144
Mof_N 	N 	0.5816	0.206	0.0588	-0.142
Mof_N 	N 	0.7451	0.3032	0.0626	-0.145
Mof_N 	N 	0.5751	0.601	0.0889	-0.142
Mof_N 	N 	0.7068	0.5872	0.1889	-0.144
Mof_N 	N 	0.4184	0.706	0.9412	-0.142
Mof_N 	N 	0.2549	0.8032	0.9374	-0.144
Mof_N 	N 	0.5751	0.101	0.4111	-0.142
Mof_N 	N 	0.7068	0.0872	0.3111	-0.144
Mof_N 	N 	0.4184	0.206	0.5588	-0.142
Mof_N 	N 	0.2549	0.3032	0.5626	-0.145
Mof_N 	N 	0.4249	0.601	0.5889	-0.142
Mof_N 	N 	0.2932	0.5872	0.6889	-0.144
Mof_N 	N 	0.5816	0.706	0.4412	-0.142
Mof_N 	N 	0.7451	0.8032	0.4374	-0.144
Mof_O 	O 	0.6268	0.0612	0.6361	-0.269
Mof_O 	O 	0.7852	0.1177	0.5574	-0.277
Mof_O 	O 	0.2417	0.5661	0.9984	-0.275
Mof_O 	O 	0.4132	0.472	0.989	-0.266
Mof_O 	O 	0.3732	0.5612	0.3639	-0.271
Mof_O 	O 	0.2148	0.6177	0.4426	-0.277
Mof_O 	O 	0.7583	0.0661	0.0016	-0.271
Mof_O 	O 	0.5868	0.972	0.011	-0.267
Mof_O 	O 	0.3732	0.0612	0.1361	-0.27
Mof_O 	O 	0.2148	0.1177	0.0574	-0.277
Mof_O 	O 	0.7583	0.5661	0.4984	-0.276
Mof_O 	O 	0.5868	0.472	0.489	-0.267
Mof_O 	O 	0.6268	0.5612	0.8639	-0.271
Mof_O 	O 	0.7852	0.6177	0.9426	-0.277
Mof_O 	O 	0.2417	0.0661	0.5016	-0.27
Mof_O 	O 	0.4132	0.972	0.511	-0.267
_end
