data_functionalizedCrystal
_audit_creation_method	'EQeq! by Chris Wilmer'
_symmetry_space_group_name_H-M	'P1'
_symmetry_Int_Tables_number	1
_symmetry_cell_setting	triclinic
loop_
_symmetry_equiv_pos_as_xyz
  x,y,z
_cell_length_a	17.5414
_cell_length_b	18.1004
_cell_length_c	18.4729
_cell_angle_alpha	90
_cell_angle_beta	91.858
_cell_angle_gamma	90
loop_
_atom_site_label
_atom_site_type_symbol
_atom_site_fract_x
_atom_site_fract_y
_atom_site_fract_z
_atom_site_charge
Mof_Zn	Zn	0.39796	0.52486	0.20083	1.211
Mof_Zn	Zn	0.39733	0.23271	0.06408	1.212
Mof_Zn	Zn	0.32041	0.39205	0.12431	1.209
Mof_O 	O 	0.38319	0.42101	0.21728	-0.569
Mof_O 	O 	0.64504	0.51695	0.94238	-0.476
Mof_O 	O 	0.41775	0.33346	0.095	-0.574
Mof_O 	O 	0.29334	0.20661	0.09681	-0.461
Mof_O 	O 	0.56087	0.43976	0.8894	-0.473
Mof_N 	N 	0.46262	0.57974	0.27752	-0.212
Mof_C 	C 	0.59498	0.4678	0.94495	0.35
Mof_O 	O 	0.70656	0.0604	0.29479	-0.452
Mof_O 	O 	0.76632	0.95928	0.3405	-0.433
Mof_C 	C 	0.61634	0.45817	0.07869	-0.041
Mof_H 	H 	0.6603	0.4885	0.0751	0.041
Mof_O 	O 	0.3867	0.2936	0.46052	-0.444
Mof_O 	O 	0.27812	0.30101	0.17353	-0.446
Mof_C 	C 	0.52785	0.39049	0.1528	-0.071
Mof_O 	O 	0.50883	0.27349	0.48212	-0.34
Mof_N 	N 	0.54035	0.6617	0.36743	-0.197
Mof_C 	C 	0.50838	0.39571	0.02296	-0.145
Mof_H 	H 	0.4801	0.382	0.9803	0.09
Mof_C 	C 	0.4172	0.35048	0.32121	-0.173
Mof_H 	H 	0.3672	0.3567	0.3385	0.102
Mof_C 	C 	0.56114	0.32734	0.2692	-0.006
Mof_H 	H 	0.6105	0.3186	0.2512	0.026
Mof_C 	C 	0.47182	0.31424	0.364	-0
Mof_C 	C 	0.48384	0.37223	0.09016	0.182
Mof_C 	C 	0.43475	0.37787	0.25322	0.206
Mof_C 	C 	0.57284	0.66518	0.29412	-0.062
Mof_H 	H 	0.6267	0.6488	0.2968	0.038
Mof_H 	H 	0.5715	0.7168	0.2765	0.039
Mof_C 	C 	0.57348	0.43886	0.01712	-0.032
Mof_C 	C 	0.52731	0.61571	0.2409	-0.06
Mof_H 	H 	0.5074	0.6458	0.1997	0.04
Mof_H 	H 	0.5613	0.5773	0.2215	0.032
Mof_C 	C 	0.50724	0.36442	0.22579	-0.09
Mof_C 	C 	0.18737	0.20613	0.17367	0.199
Mof_C 	C 	0.59398	0.43243	0.14608	-0.038
Mof_H 	H 	0.6244	0.4437	0.1881	0.033
Mof_C 	C 	0.76574	0.02157	0.31124	0.225
Mof_C 	C 	0.4939	0.53504	0.33875	-0.05
Mof_H 	H 	0.5263	0.495	0.32	0.028
Mof_H 	H 	0.4515	0.512	0.3647	0.027
Mof_C 	C 	0.54452	0.3029	0.33785	-0.076
Mof_H 	H 	0.5824	0.2785	0.367	0.061
Mof_C 	C 	0.41364	0.63921	0.30711	-0.051
Mof_H 	H 	0.3695	0.6168	0.331	0.022
Mof_H 	H 	0.3939	0.6709	0.267	0.024
Mof_C 	C 	0.45959	0.68625	0.36192	-0.07
Mof_H 	H 	0.4575	0.7387	0.3468	0.041
Mof_H 	H 	0.4366	0.6823	0.41	0.05
Mof_C 	C 	0.5416	0.58367	0.39167	-0.053
Mof_H 	H 	0.5207	0.5802	0.4407	0.03
Mof_H 	H 	0.5949	0.5656	0.3943	0.027
Mof_C 	C 	0.07485	0.21648	0.24436	0.565
Mof_C 	C 	0.84048	0.05472	0.2918	0.318
Mof_O 	O 	0.0335	0.2577	0.29111	0.654
Mof_H 	H 	0.989	0.2633	0.2739	-0.092
Mof_C 	C 	0.05349	0.14538	0.22591	-0.27
Mof_C 	C 	0.90689	0.01651	0.30536	-0.549
Mof_H 	H 	0.9052	0.9696	0.3283	0.208
Mof_C 	C 	0.97965	0.11368	0.24995	-0.488
Mof_C 	C 	0.97656	0.0455	0.28593	0.642
Mof_C 	C 	0.84252	0.12293	0.2566	-0.702
Mof_H 	H 	0.7968	0.1496	0.2465	0.269
Mof_C 	C 	0.91185	0.1511	0.2367	0.993
Mof_H 	H 	0.9131	0.1977	0.2132	-1.244
Mof_O 	O 	0.0426	0.00796	0.3032	0.543
Mof_H 	H 	0.0411	0.9661	0.2836	-0.086
Mof_C 	C 	0.45568	0.2918	0.43993	0.273
Mof_C 	C 	0.25818	0.24082	0.14578	0.25
Mof_C 	C 	0.14147	0.24682	0.21818	-0.455
Mof_H 	H 	0.1555	0.2959	0.231	0.178
Mof_C 	C 	0.16713	0.1343	0.15671	-0.448
Mof_H 	H 	0.1984	0.1052	0.1269	0.176
Mof_C 	C 	0.10088	0.10524	0.18358	0.555
Mof_H 	H 	0.0878	0.0556	0.1722	-0.713
Mof_O 	O 	0.9104	0.2148	0.192	1.152
Mof_H 	H 	0.8809	0.2464	0.2091	-0.235
Mof_O 	O 	0.0856	0.0323	0.1679	0.626
Mof_H 	H 	0.1035	0.0055	0.2014	-0.132
Mof_H 	H 	0.0439	0.2449	0.2751	-0.759
Mof_H 	H 	0.0223	0.0191	0.297	-0.678
Mof_Zn	Zn	0.60204	0.02486	0.29917	1.21
Mof_Zn	Zn	0.60267	0.73271	0.43592	1.211
Mof_Zn	Zn	0.67959	0.89205	0.37569	1.208
Mof_O 	O 	0.61681	0.92101	0.28272	-0.569
Mof_O 	O 	0.35496	0.01695	0.55762	-0.476
Mof_O 	O 	0.58225	0.83346	0.405	-0.573
Mof_O 	O 	0.70666	0.70661	0.40319	-0.46
Mof_O 	O 	0.43913	0.93976	0.6106	-0.473
Mof_N 	N 	0.53738	0.07974	0.22248	-0.212
Mof_C 	C 	0.40502	0.9678	0.55505	0.349
Mof_O 	O 	0.29344	0.5604	0.20521	-0.452
Mof_O 	O 	0.23368	0.45928	0.1595	-0.435
Mof_C 	C 	0.38366	0.95817	0.42131	-0.04
Mof_H 	H 	0.3397	0.9885	0.4249	0.041
Mof_O 	O 	0.6133	0.7936	0.03948	-0.443
Mof_O 	O 	0.72188	0.80101	0.32647	-0.446
Mof_C 	C 	0.47215	0.89049	0.3472	-0.07
Mof_O 	O 	0.49117	0.77349	0.01788	-0.339
Mof_N 	N 	0.45965	0.1617	0.13257	-0.198
Mof_C 	C 	0.49162	0.89571	0.47704	-0.144
Mof_H 	H 	0.5199	0.882	0.5197	0.089
Mof_C 	C 	0.5828	0.85048	0.17879	-0.173
Mof_H 	H 	0.6328	0.8567	0.1615	0.103
Mof_C 	C 	0.43886	0.82734	0.2308	-0.006
Mof_H 	H 	0.3895	0.8186	0.2488	0.026
Mof_C 	C 	0.52818	0.81424	0.136	0
Mof_C 	C 	0.51616	0.87223	0.40984	0.182
Mof_C 	C 	0.56525	0.87787	0.24678	0.206
Mof_C 	C 	0.42716	0.16518	0.20588	-0.062
Mof_H 	H 	0.3733	0.1488	0.2032	0.038
Mof_H 	H 	0.4285	0.2168	0.2235	0.039
Mof_C 	C 	0.42652	0.93886	0.48288	-0.032
Mof_C 	C 	0.47269	0.11571	0.2591	-0.06
Mof_H 	H 	0.4926	0.1458	0.3003	0.04
Mof_H 	H 	0.4387	0.0773	0.2785	0.031
Mof_C 	C 	0.49276	0.86442	0.27421	-0.09
Mof_C 	C 	0.81263	0.70613	0.32633	0.199
Mof_C 	C 	0.40602	0.93243	0.35392	-0.038
Mof_H 	H 	0.3756	0.9437	0.3119	0.033
Mof_C 	C 	0.23426	0.52157	0.18876	0.228
Mof_C 	C 	0.5061	0.03504	0.16125	-0.053
Mof_H 	H 	0.4737	0.995	0.18	0.03
Mof_H 	H 	0.5485	0.012	0.1353	0.028
Mof_C 	C 	0.45548	0.8029	0.16215	-0.076
Mof_H 	H 	0.4176	0.7785	0.133	0.062
Mof_C 	C 	0.58636	0.13921	0.19289	-0.051
Mof_H 	H 	0.6305	0.1168	0.169	0.022
Mof_H 	H 	0.6061	0.1709	0.233	0.024
Mof_C 	C 	0.54041	0.18625	0.13808	-0.07
Mof_H 	H 	0.5425	0.2387	0.1532	0.04
Mof_H 	H 	0.5634	0.1823	0.09	0.049
Mof_C 	C 	0.4584	0.08367	0.10833	-0.051
Mof_H 	H 	0.4793	0.0802	0.0593	0.029
Mof_H 	H 	0.4051	0.0656	0.1057	0.026
Mof_C 	C 	0.92515	0.71648	0.25564	0.564
Mof_C 	C 	0.15952	0.55472	0.2082	0.316
Mof_O 	O 	0.9665	0.7577	0.20889	0.653
Mof_H 	H 	0.011	0.7633	0.2261	-0.092
Mof_C 	C 	0.94651	0.64538	0.27409	-0.27
Mof_C 	C 	0.09311	0.51651	0.19464	-0.545
Mof_H 	H 	0.0948	0.4696	0.1717	0.206
Mof_C 	C 	0.02035	0.61368	0.25005	-0.487
Mof_C 	C 	0.02344	0.5455	0.21407	0.641
Mof_C 	C 	0.15748	0.62293	0.2434	-0.701
Mof_H 	H 	0.2032	0.6496	0.2535	0.269
Mof_C 	C 	0.08815	0.6511	0.2633	0.992
Mof_H 	H 	0.0869	0.6977	0.2868	-1.244
Mof_O 	O 	0.9574	0.50796	0.1968	0.543
Mof_H 	H 	0.9589	0.4661	0.2164	-0.087
Mof_C 	C 	0.54432	0.7918	0.06007	0.273
Mof_C 	C 	0.74182	0.74082	0.35422	0.251
Mof_C 	C 	0.85853	0.74682	0.28182	-0.455
Mof_H 	H 	0.8445	0.7959	0.269	0.178
Mof_C 	C 	0.83287	0.6343	0.34329	-0.448
Mof_H 	H 	0.8016	0.6052	0.3731	0.176
Mof_C 	C 	0.89912	0.60524	0.31642	0.555
Mof_H 	H 	0.9122	0.5556	0.3278	-0.713
Mof_O 	O 	0.0896	0.7148	0.308	1.153
Mof_H 	H 	0.1191	0.7464	0.2909	-0.236
Mof_O 	O 	0.9144	0.5323	0.3321	0.625
Mof_H 	H 	0.8965	0.5055	0.2986	-0.132
Mof_H 	H 	0.9561	0.7449	0.2249	-0.758
Mof_H 	H 	0.9777	0.5191	0.203	-0.678
Mof_Zn	Zn	0.60204	0.47513	0.79917	1.21
Mof_Zn	Zn	0.60267	0.76729	0.93592	1.211
Mof_Zn	Zn	0.67959	0.60795	0.87569	1.208
Mof_O 	O 	0.61681	0.57899	0.78272	-0.569
Mof_O 	O 	0.35496	0.48305	0.05762	-0.476
Mof_O 	O 	0.58225	0.66654	0.905	-0.574
Mof_O 	O 	0.70666	0.79339	0.90319	-0.461
Mof_O 	O 	0.43913	0.56024	0.1106	-0.473
Mof_N 	N 	0.53738	0.42026	0.72248	-0.212
Mof_C 	C 	0.40502	0.5322	0.05505	0.35
Mof_O 	O 	0.29344	0.9396	0.70521	-0.452
Mof_O 	O 	0.23368	0.04072	0.6595	-0.433
Mof_C 	C 	0.38366	0.54183	0.92131	-0.041
Mof_H 	H 	0.3397	0.5115	0.9249	0.041
Mof_O 	O 	0.6133	0.7064	0.53948	-0.444
Mof_O 	O 	0.72188	0.69899	0.82647	-0.446
Mof_C 	C 	0.47215	0.60951	0.8472	-0.071
Mof_O 	O 	0.49117	0.72651	0.51788	-0.34
Mof_N 	N 	0.45965	0.3383	0.63257	-0.197
Mof_C 	C 	0.49162	0.60429	0.97704	-0.145
Mof_H 	H 	0.5199	0.618	0.0197	0.09
Mof_C 	C 	0.5828	0.64952	0.67879	-0.173
Mof_H 	H 	0.6328	0.6433	0.6615	0.102
Mof_C 	C 	0.43886	0.67266	0.7308	-0.006
Mof_H 	H 	0.3895	0.6814	0.7488	0.026
Mof_C 	C 	0.52818	0.68576	0.636	-0
Mof_C 	C 	0.51616	0.62777	0.90984	0.182
Mof_C 	C 	0.56525	0.62213	0.74678	0.206
Mof_C 	C 	0.42716	0.33482	0.70588	-0.062
Mof_H 	H 	0.3733	0.3512	0.7032	0.038
Mof_H 	H 	0.4285	0.2832	0.7235	0.039
Mof_C 	C 	0.42652	0.56114	0.98288	-0.032
Mof_C 	C 	0.47269	0.38429	0.7591	-0.06
Mof_H 	H 	0.4926	0.3542	0.8003	0.04
Mof_H 	H 	0.4387	0.4227	0.7785	0.032
Mof_C 	C 	0.49276	0.63558	0.77421	-0.09
Mof_C 	C 	0.81263	0.79387	0.82633	0.199
Mof_C 	C 	0.40602	0.56757	0.85392	-0.038
Mof_H 	H 	0.3756	0.5563	0.8119	0.033
Mof_C 	C 	0.23426	0.97843	0.68876	0.225
Mof_C 	C 	0.5061	0.46496	0.66125	-0.049
Mof_H 	H 	0.4737	0.505	0.68	0.028
Mof_H 	H 	0.5485	0.488	0.6353	0.027
Mof_C 	C 	0.45548	0.6971	0.66215	-0.076
Mof_H 	H 	0.4176	0.7215	0.633	0.061
Mof_C 	C 	0.58636	0.36079	0.69289	-0.051
Mof_H 	H 	0.6305	0.3832	0.669	0.022
Mof_H 	H 	0.6061	0.3291	0.733	0.024
Mof_C 	C 	0.54041	0.31375	0.63808	-0.07
Mof_H 	H 	0.5425	0.2613	0.6532	0.041
Mof_H 	H 	0.5634	0.3177	0.59	0.05
Mof_C 	C 	0.4584	0.41633	0.60833	-0.053
Mof_H 	H 	0.4793	0.4198	0.5593	0.03
Mof_H 	H 	0.4051	0.4344	0.6057	0.027
Mof_C 	C 	0.92515	0.78352	0.75564	0.565
Mof_C 	C 	0.15952	0.94528	0.7082	0.318
Mof_O 	O 	0.9665	0.7423	0.70889	0.654
Mof_H 	H 	0.011	0.7367	0.7261	-0.092
Mof_C 	C 	0.94651	0.85462	0.77409	-0.27
Mof_C 	C 	0.09311	0.98349	0.69464	-0.549
Mof_H 	H 	0.0948	0.0304	0.6717	0.208
Mof_C 	C 	0.02035	0.88632	0.75005	-0.488
Mof_C 	C 	0.02344	0.9545	0.71407	0.642
Mof_C 	C 	0.15748	0.87707	0.7434	-0.702
Mof_H 	H 	0.2032	0.8504	0.7535	0.269
Mof_C 	C 	0.08815	0.8489	0.7633	0.993
Mof_H 	H 	0.0869	0.8023	0.7868	-1.244
Mof_O 	O 	0.9574	0.99204	0.6968	0.543
Mof_H 	H 	0.9589	0.0339	0.7164	-0.086
Mof_C 	C 	0.54432	0.7082	0.56007	0.273
Mof_C 	C 	0.74182	0.75918	0.85422	0.25
Mof_C 	C 	0.85853	0.75318	0.78182	-0.455
Mof_H 	H 	0.8445	0.7041	0.769	0.178
Mof_C 	C 	0.83287	0.8657	0.84329	-0.448
Mof_H 	H 	0.8016	0.8948	0.8731	0.176
Mof_C 	C 	0.89912	0.89476	0.81642	0.555
Mof_H 	H 	0.9122	0.9444	0.8278	-0.713
Mof_O 	O 	0.0896	0.7852	0.808	1.152
Mof_H 	H 	0.1191	0.7536	0.7909	-0.235
Mof_O 	O 	0.9144	0.9677	0.8321	0.626
Mof_H 	H 	0.8965	0.9945	0.7986	-0.132
Mof_H 	H 	0.9561	0.7551	0.7249	-0.759
Mof_H 	H 	0.9777	0.9809	0.703	-0.678
Mof_Zn	Zn	0.39796	0.97513	0.70083	1.21
Mof_Zn	Zn	0.39733	0.26729	0.56408	1.211
Mof_Zn	Zn	0.32041	0.10795	0.62431	1.208
Mof_O 	O 	0.38319	0.07899	0.71728	-0.569
Mof_O 	O 	0.64504	0.98305	0.44238	-0.476
Mof_O 	O 	0.41775	0.16654	0.595	-0.573
Mof_O 	O 	0.29334	0.29339	0.59681	-0.46
Mof_O 	O 	0.56087	0.06024	0.3894	-0.473
Mof_N 	N 	0.46262	0.92026	0.77752	-0.212
Mof_C 	C 	0.59498	0.0322	0.44495	0.349
Mof_O 	O 	0.70656	0.4396	0.79479	-0.452
Mof_O 	O 	0.76632	0.54072	0.8405	-0.435
Mof_C 	C 	0.61634	0.04183	0.57869	-0.04
Mof_H 	H 	0.6603	0.0115	0.5751	0.041
Mof_O 	O 	0.3867	0.2064	0.96052	-0.443
Mof_O 	O 	0.27812	0.19899	0.67353	-0.446
Mof_C 	C 	0.52785	0.10951	0.6528	-0.07
Mof_O 	O 	0.50883	0.22651	0.98212	-0.339
Mof_N 	N 	0.54035	0.8383	0.86743	-0.198
Mof_C 	C 	0.50838	0.10429	0.52296	-0.144
Mof_H 	H 	0.4801	0.118	0.4803	0.089
Mof_C 	C 	0.4172	0.14952	0.82121	-0.173
Mof_H 	H 	0.3672	0.1433	0.8385	0.103
Mof_C 	C 	0.56114	0.17266	0.7692	-0.006
Mof_H 	H 	0.6105	0.1814	0.7512	0.026
Mof_C 	C 	0.47182	0.18576	0.864	0
Mof_C 	C 	0.48384	0.12777	0.59016	0.182
Mof_C 	C 	0.43475	0.12213	0.75322	0.206
Mof_C 	C 	0.57284	0.83482	0.79412	-0.062
Mof_H 	H 	0.6267	0.8512	0.7968	0.038
Mof_H 	H 	0.5715	0.7832	0.7765	0.039
Mof_C 	C 	0.57348	0.06114	0.51712	-0.032
Mof_C 	C 	0.52731	0.88429	0.7409	-0.06
Mof_H 	H 	0.5074	0.8542	0.6997	0.04
Mof_H 	H 	0.5613	0.9227	0.7215	0.031
Mof_C 	C 	0.50724	0.13558	0.72579	-0.09
Mof_C 	C 	0.18737	0.29387	0.67367	0.199
Mof_C 	C 	0.59398	0.06757	0.64608	-0.038
Mof_H 	H 	0.6244	0.0563	0.6881	0.033
Mof_C 	C 	0.76574	0.47843	0.81124	0.228
Mof_C 	C 	0.4939	0.96496	0.83875	-0.053
Mof_H 	H 	0.5263	0.005	0.82	0.03
Mof_H 	H 	0.4515	0.988	0.8647	0.028
Mof_C 	C 	0.54452	0.1971	0.83785	-0.076
Mof_H 	H 	0.5824	0.2215	0.867	0.062
Mof_C 	C 	0.41364	0.86079	0.80711	-0.051
Mof_H 	H 	0.3695	0.8832	0.831	0.022
Mof_H 	H 	0.3939	0.8291	0.767	0.024
Mof_C 	C 	0.45959	0.81375	0.86192	-0.07
Mof_H 	H 	0.4575	0.7613	0.8468	0.04
Mof_H 	H 	0.4366	0.8177	0.91	0.049
Mof_C 	C 	0.5416	0.91633	0.89167	-0.051
Mof_H 	H 	0.5207	0.9198	0.9407	0.029
Mof_H 	H 	0.5949	0.9344	0.8943	0.026
Mof_C 	C 	0.07485	0.28352	0.74436	0.564
Mof_C 	C 	0.84048	0.44528	0.7918	0.316
Mof_O 	O 	0.0335	0.2423	0.79111	0.653
Mof_H 	H 	0.989	0.2367	0.7739	-0.092
Mof_C 	C 	0.05349	0.35462	0.72591	-0.27
Mof_C 	C 	0.90689	0.48349	0.80536	-0.545
Mof_H 	H 	0.9052	0.5304	0.8283	0.206
Mof_C 	C 	0.97965	0.38632	0.74995	-0.487
Mof_C 	C 	0.97656	0.4545	0.78593	0.641
Mof_C 	C 	0.84252	0.37707	0.7566	-0.701
Mof_H 	H 	0.7968	0.3504	0.7465	0.269
Mof_C 	C 	0.91185	0.3489	0.7367	0.992
Mof_H 	H 	0.9131	0.3023	0.7132	-1.244
Mof_O 	O 	0.0426	0.49204	0.8032	0.543
Mof_H 	H 	0.0411	0.5339	0.7836	-0.087
Mof_C 	C 	0.45568	0.2082	0.93993	0.273
Mof_C 	C 	0.25818	0.25918	0.64578	0.251
Mof_C 	C 	0.14147	0.25318	0.71818	-0.455
Mof_H 	H 	0.1555	0.2041	0.731	0.178
Mof_C 	C 	0.16713	0.3657	0.65671	-0.448
Mof_H 	H 	0.1984	0.3948	0.6269	0.176
Mof_C 	C 	0.10088	0.39476	0.68358	0.555
Mof_H 	H 	0.0878	0.4444	0.6722	-0.713
Mof_O 	O 	0.9104	0.2852	0.692	1.153
Mof_H 	H 	0.8809	0.2536	0.7091	-0.236
Mof_O 	O 	0.0856	0.4677	0.6679	0.625
Mof_H 	H 	0.1035	0.4945	0.7014	-0.132
Mof_H 	H 	0.0439	0.2551	0.7751	-0.758
Mof_H 	H 	0.0223	0.4809	0.797	-0.678
_end
