data_functionalizedCrystal
_audit_creation_method	'EQeq! by Chris Wilmer'
_symmetry_space_group_name_H-M	'P1'
_symmetry_Int_Tables_number	1
_symmetry_cell_setting	triclinic
loop_
_symmetry_equiv_pos_as_xyz
  x,y,z
_cell_length_a	15.1496
_cell_length_b	15.1496
_cell_length_c	18.6597
_cell_angle_alpha	90
_cell_angle_beta	90
_cell_angle_gamma	90
loop_
_atom_site_label
_atom_site_type_symbol
_atom_site_fract_x
_atom_site_fract_y
_atom_site_fract_z
_atom_site_charge
Mof_O 	O 	0.6107	0.567	0.0637	-0.399
Mof_C 	C 	0.7481	0.6853	0.0645	0.04
Mof_C 	C 	0.5312	0.4139	0.2108	-0.012
Mof_C 	C 	0.5828	0.4537	0.2039	0.041
Mof_O 	O 	0.1107	0.067	0.5637	-0.43
Mof_C 	C 	0.2481	0.1853	0.5645	0.022
Mof_C 	C 	0.0312	0.9139	0.7108	-0.17
Mof_C 	C 	0.0828	0.9537	0.7039	0.322
Mof_O 	O 	0.3893	0.433	0.0637	-0.403
Mof_C 	C 	0.2519	0.3147	0.0645	0.028
Mof_C 	C 	0.4688	0.5861	0.2108	-0.007
Mof_C 	C 	0.4172	0.5463	0.2039	0.032
Mof_O 	O 	0.8893	0.933	0.5637	-0.359
Mof_C 	C 	0.7519	0.8147	0.5645	0.045
Mof_C 	C 	0.9688	0.0861	0.7108	0.198
Mof_C 	C 	0.9172	0.0463	0.7039	-0.235
Mof_O 	O 	0.433	0.6107	0.0637	-0.4
Mof_C 	C 	0.3147	0.7481	0.0645	0.036
Mof_C 	C 	0.5861	0.5312	0.2108	-0.013
Mof_C 	C 	0.5463	0.5828	0.2039	0.043
Mof_O 	O 	0.933	0.1107	0.5637	-0.384
Mof_C 	C 	0.8147	0.2481	0.5645	0.037
Mof_C 	C 	0.0861	0.0312	0.7108	-0.283
Mof_C 	C 	0.0463	0.0828	0.7039	0.112
Mof_O 	O 	0.567	0.3893	0.0637	-0.401
Mof_C 	C 	0.6853	0.2519	0.0645	0.033
Mof_C 	C 	0.4139	0.4688	0.2108	-0.005
Mof_C 	C 	0.4537	0.4172	0.2039	0.03
Mof_O 	O 	0.067	0.8893	0.5637	-0.395
Mof_C 	C 	0.1853	0.7519	0.5645	0.032
Mof_C 	C 	0.9139	0.9688	0.7108	0.293
Mof_C 	C 	0.9537	0.9172	0.7039	-0.036
Mof_O 	O 	0.3893	0.567	0.4363	-0.406
Mof_C 	C 	0.2519	0.6853	0.4355	0.033
Mof_C 	C 	0.4688	0.4139	0.2892	-0.002
Mof_C 	C 	0.4172	0.4537	0.2961	0.029
Mof_O 	O 	0.8893	0.067	0.9363	-0.361
Mof_C 	C 	0.7519	0.1853	0.9355	0.066
Mof_C 	C 	0.9688	0.9139	0.7892	0.295
Mof_C 	C 	0.9172	0.9537	0.7961	-0.039
Mof_O 	O 	0.6107	0.433	0.4363	-0.405
Mof_C 	C 	0.7481	0.3147	0.4355	0.036
Mof_C 	C 	0.5312	0.5861	0.2892	-0.011
Mof_C 	C 	0.5828	0.5463	0.2961	0.042
Mof_O 	O 	0.1107	0.933	0.9363	-0.35
Mof_C 	C 	0.2481	0.8147	0.9355	0.071
Mof_C 	C 	0.0312	0.0861	0.7892	-0.28
Mof_C 	C 	0.0828	0.0463	0.7961	0.112
Mof_O 	O 	0.567	0.6107	0.4363	-0.403
Mof_C 	C 	0.6853	0.7481	0.4355	0.041
Mof_C 	C 	0.4139	0.5312	0.2892	-0.008
Mof_C 	C 	0.4537	0.5828	0.2961	0.04
Mof_O 	O 	0.067	0.1107	0.9363	-0.394
Mof_C 	C 	0.1853	0.2481	0.9355	0.057
Mof_C 	C 	0.9139	0.0312	0.7892	-0.164
Mof_C 	C 	0.9537	0.0828	0.7961	0.319
Mof_O 	O 	0.433	0.3893	0.4363	-0.408
Mof_C 	C 	0.3147	0.2519	0.4355	0.027
Mof_C 	C 	0.5861	0.4688	0.2892	-0.004
Mof_C 	C 	0.5463	0.4172	0.2961	0.03
Mof_O 	O 	0.933	0.8893	0.9363	-0.325
Mof_C 	C 	0.8147	0.7519	0.9355	0.079
Mof_C 	C 	0.0861	0.9688	0.7892	0.198
Mof_C 	C 	0.0463	0.9172	0.7961	-0.234
Mof_O 	O 	0.3893	0.433	0.9363	-0.372
Mof_C 	C 	0.2519	0.3147	0.9355	0.063
Mof_C 	C 	0.4688	0.5861	0.7892	-0.002
Mof_C 	C 	0.4172	0.5463	0.7961	0.029
Mof_O 	O 	0.8893	0.933	0.4363	-0.36
Mof_C 	C 	0.7519	0.8147	0.4355	0.044
Mof_C 	C 	0.9688	0.0861	0.2892	0.198
Mof_C 	C 	0.9172	0.0463	0.2961	-0.236
Mof_O 	O 	0.6107	0.567	0.9363	-0.367
Mof_C 	C 	0.7481	0.6853	0.9355	0.076
Mof_C 	C 	0.5312	0.4139	0.7892	-0.006
Mof_C 	C 	0.5828	0.4537	0.7961	0.04
Mof_O 	O 	0.1107	0.067	0.4363	-0.429
Mof_C 	C 	0.2481	0.1853	0.4355	0.021
Mof_C 	C 	0.0312	0.9139	0.2892	-0.169
Mof_C 	C 	0.0828	0.9537	0.2961	0.322
Mof_O 	O 	0.567	0.3893	0.9363	-0.37
Mof_C 	C 	0.6853	0.2519	0.9355	0.068
Mof_C 	C 	0.4139	0.4688	0.7892	0
Mof_C 	C 	0.4537	0.4172	0.7961	0.028
Mof_O 	O 	0.067	0.8893	0.4363	-0.396
Mof_C 	C 	0.1853	0.7519	0.4355	0.031
Mof_C 	C 	0.9139	0.9688	0.2892	0.293
Mof_C 	C 	0.9537	0.9172	0.2961	-0.036
Mof_O 	O 	0.433	0.6107	0.9363	-0.369
Mof_C 	C 	0.3147	0.7481	0.9355	0.071
Mof_C 	C 	0.5861	0.5312	0.7892	-0.008
Mof_C 	C 	0.5463	0.5828	0.7961	0.041
Mof_O 	O 	0.933	0.1107	0.4363	-0.385
Mof_C 	C 	0.8147	0.2481	0.4355	0.036
Mof_C 	C 	0.0861	0.0312	0.2892	-0.283
Mof_C 	C 	0.0463	0.0828	0.2961	0.111
Mof_O 	O 	0.6107	0.433	0.5637	-0.404
Mof_C 	C 	0.7481	0.3147	0.5645	0.037
Mof_C 	C 	0.5312	0.5861	0.7108	-0.01
Mof_C 	C 	0.5828	0.5463	0.7039	0.043
Mof_O 	O 	0.1107	0.933	0.0637	-0.38
Mof_C 	C 	0.2481	0.8147	0.0645	0.036
Mof_C 	C 	0.0312	0.0861	0.2108	-0.285
Mof_C 	C 	0.0828	0.0463	0.2039	0.114
Mof_O 	O 	0.3893	0.567	0.5637	-0.406
Mof_C 	C 	0.2519	0.6853	0.5645	0.034
Mof_C 	C 	0.4688	0.4139	0.7108	-0.002
Mof_C 	C 	0.4172	0.4537	0.7039	0.03
Mof_O 	O 	0.8893	0.067	0.0637	-0.391
Mof_C 	C 	0.7519	0.1853	0.0645	0.032
Mof_C 	C 	0.9688	0.9139	0.2108	0.289
Mof_C 	C 	0.9172	0.9537	0.2039	-0.037
Mof_O 	O 	0.433	0.3893	0.5637	-0.407
Mof_C 	C 	0.3147	0.2519	0.5645	0.028
Mof_C 	C 	0.5861	0.4688	0.7108	-0.004
Mof_C 	C 	0.5463	0.4172	0.7039	0.031
Mof_O 	O 	0.933	0.8893	0.0637	-0.355
Mof_C 	C 	0.8147	0.7519	0.0645	0.045
Mof_C 	C 	0.0861	0.9688	0.2108	0.193
Mof_C 	C 	0.0463	0.9172	0.2039	-0.232
Mof_O 	O 	0.567	0.6107	0.5637	-0.403
Mof_C 	C 	0.6853	0.7481	0.5645	0.042
Mof_C 	C 	0.4139	0.5312	0.7108	-0.008
Mof_C 	C 	0.4537	0.5828	0.7039	0.041
Mof_O 	O 	0.067	0.1107	0.0637	-0.424
Mof_C 	C 	0.1853	0.2481	0.0645	0.022
Mof_C 	C 	0.9139	0.0312	0.2108	-0.169
Mof_C 	C 	0.9537	0.0828	0.2039	0.321
Mof_Ni	Ni	0.5	0.5	0.0719	1.083
Mof_N 	N 	0.5	0.5	0.1819	-0.197
Mof_Ni	Ni	2.6411e-33	0	0.5719	1.042
Mof_N 	N 	-2.74536e-33	0	0.6819	-0.273
Mof_Ni	Ni	0.5	0.5	0.4281	1.088
Mof_N 	N 	0.5	0.5	0.3181	-0.196
Mof_Ni	Ni	4.28608e-33	0	0.9281	1.046
Mof_N 	N 	-8.01082e-33	-1.17889e-32	0.8181	-0.274
Mof_Ni	Ni	0.5	0.5	0.9281	1.093
Mof_N 	N 	0.5	0.5	0.8181	-0.198
Mof_Ni	Ni	1.97702e-33	0	0.4281	1.042
Mof_N 	N 	4.41625e-33	2.94723e-33	0.3181	-0.272
Mof_Ni	Ni	0.5	0.5	0.5719	1.089
Mof_N 	N 	0.5	0.5	0.6819	-0.197
Mof_Ni	Ni	3.32043e-34	0	0.0719	1.037
Mof_N 	N 	-2.10719e-33	-2.94723e-33	0.1819	-0.272
Mof_C 	C 	0.6347	0.5897	-0	0.262
Mof_C 	C 	0.7146	0.6529	-0	-0.098
Mof_C 	C 	0.1347	0.0897	0.5	0.29
Mof_C 	C 	0.2146	0.1529	0.5	-0.068
Mof_C 	C 	0.3653	0.4103	-0	0.257
Mof_C 	C 	0.2854	0.3471	-0	-0.101
Mof_C 	C 	0.8653	0.9103	0.5	0.304
Mof_C 	C 	0.7854	0.8471	0.5	-0.058
Mof_C 	C 	0.4103	0.6347	-0	0.259
Mof_C 	C 	0.3471	0.7146	-0	-0.099
Mof_C 	C 	0.9103	0.1347	0.5	0.295
Mof_C 	C 	0.8471	0.2146	0.5	-0.061
Mof_C 	C 	0.5897	0.3653	-0	0.259
Mof_C 	C 	0.6529	0.2854	-0	-0.1
Mof_C 	C 	0.0897	0.8653	0.5	0.3
Mof_C 	C 	0.1529	0.7854	0.5	-0.064
Mof_C 	C 	0.3653	0.5897	0.5	0.3
Mof_C 	C 	0.2854	0.6529	0.5	-0.064
Mof_C 	C 	0.8653	0.0897	-0	0.26
Mof_C 	C 	0.7854	0.1529	-0	-0.1
Mof_C 	C 	0.6347	0.4103	0.5	0.3
Mof_C 	C 	0.7146	0.3471	0.5	-0.063
Mof_C 	C 	0.1347	0.9103	-0	0.256
Mof_C 	C 	0.2146	0.8471	-0	-0.096
Mof_C 	C 	0.5897	0.6347	0.5	0.302
Mof_C 	C 	0.6529	0.7146	0.5	-0.062
Mof_C 	C 	0.0897	0.1347	-0	0.251
Mof_C 	C 	0.1529	0.2146	-0	-0.103
Mof_C 	C 	0.4103	0.3653	0.5	0.298
Mof_C 	C 	0.3471	0.2854	0.5	-0.066
Mof_C 	C 	0.9103	0.8653	-0	0.264
Mof_C 	C 	0.8471	0.7854	-0	-0.093
_end
