data_functionalizedCrystal
_audit_creation_method	'EQeq! by Chris Wilmer'
_symmetry_space_group_name_H-M	'P1'
_symmetry_Int_Tables_number	1
_symmetry_cell_setting	triclinic
loop_
_symmetry_equiv_pos_as_xyz
  x,y,z
_cell_length_a	8.5611
_cell_length_b	9.0426
_cell_length_c	12.0204
_cell_angle_alpha	90
_cell_angle_beta	90
_cell_angle_gamma	90
loop_
_atom_site_label
_atom_site_type_symbol
_atom_site_fract_x
_atom_site_fract_y
_atom_site_fract_z
_atom_site_charge
Mof_Mn	Mn	0.2485	0.25	0.25	1.062
Mof_Mn	Mn	0.7515	0.75	0.75	1.072
Mof_Mn	Mn	0.7485	0.75	0.25	1.063
Mof_Mn	Mn	0.2515	0.25	0.75	1.072
Mof_H 	H 	0.0791	0.5646	0.2309	-0.126
Mof_H 	H 	0.0791	0.9354	0.2691	-0.116
Mof_H 	H 	0.4209	0.9354	0.7309	-0.118
Mof_H 	H 	0.5791	0.0646	0.2691	-0.123
Mof_H 	H 	0.75	0.7943	-0	-0.094
Mof_H 	H 	0.75	0.7057	0.5	-0.111
Mof_H 	H 	0.25	0.2943	0.5	-0.111
Mof_H 	H 	0.9209	0.4354	0.7691	-0.115
Mof_H 	H 	0.9209	0.0646	0.7309	-0.111
Mof_H 	H 	0.5791	0.4354	0.2309	-0.126
Mof_H 	H 	0.25	0.2057	-0	-0.093
Mof_H 	H 	0.4209	0.5646	0.7691	-0.116
Mof_C 	C 	0.0164	0.98446	0.21776	0.504
Mof_C 	C 	0.0164	0.51554	0.28224	0.526
Mof_C 	C 	0.9836	0.48446	0.71776	0.523
Mof_C 	C 	0.5164	0.01554	0.21776	0.527
Mof_C 	C 	0.25	0.1914	0.5	0.511
Mof_C 	C 	0.25	0.3086	-0	0.394
Mof_C 	C 	0.9836	0.01554	0.78224	0.499
Mof_C 	C 	0.75	0.8086	0.5	0.511
Mof_C 	C 	0.4836	0.51554	0.71776	0.528
Mof_C 	C 	0.75	0.6914	-0	0.399
Mof_C 	C 	0.4836	0.98446	0.78224	0.525
Mof_C 	C 	0.5164	0.48446	0.28224	0.528
Mof_O 	O 	0.75356	0.63086	0.09187	-0.362
Mof_O 	O 	0.55517	0.61092	0.30792	-0.376
Mof_O 	O 	0.59822	0.58331	0.68159	-0.389
Mof_O 	O 	0.55517	0.88908	0.19208	-0.381
Mof_O 	O 	0.44483	0.11092	0.80792	-0.36
Mof_O 	O 	0.25356	0.36914	0.09187	-0.361
Mof_O 	O 	0.90178	0.91669	0.18159	-0.387
Mof_O 	O 	0.24644	0.36914	0.90813	-0.305
Mof_O 	O 	0.59822	0.91669	0.81841	-0.375
Mof_O 	O 	0.44483	0.38908	0.69208	-0.372
Mof_O 	O 	0.74644	0.63086	0.90813	-0.309
Mof_O 	O 	0.05517	0.11092	0.19208	-0.371
Mof_O 	O 	0.40178	0.08331	0.18159	-0.398
Mof_O 	O 	0.94483	0.88908	0.80792	-0.35
Mof_O 	O 	0.09822	0.41669	0.68159	-0.387
Mof_O 	O 	0.09822	0.08331	0.81841	-0.363
Mof_O 	O 	0.24644	0.13086	0.59187	-0.378
Mof_O 	O 	0.25356	0.13086	0.40813	-0.377
Mof_O 	O 	0.74644	0.86914	0.59187	-0.378
Mof_O 	O 	0.90178	0.58331	0.31841	-0.39
Mof_O 	O 	0.05517	0.38908	0.30792	-0.375
Mof_O 	O 	0.75356	0.86914	0.40813	-0.377
Mof_O 	O 	0.40178	0.41669	0.31841	-0.392
Mof_O 	O 	0.94483	0.61092	0.69208	-0.371
_end
