data_functionalizedCrystal
_audit_creation_method	'EQeq! by Chris Wilmer'
_symmetry_space_group_name_H-M	'P1'
_symmetry_Int_Tables_number	1
_symmetry_cell_setting	triclinic
loop_
_symmetry_equiv_pos_as_xyz
  x,y,z
_cell_length_a	6.072
_cell_length_b	9.53
_cell_length_c	19.844
_cell_angle_alpha	90
_cell_angle_beta	90
_cell_angle_gamma	90
loop_
_atom_site_label
_atom_site_type_symbol
_atom_site_fract_x
_atom_site_fract_y
_atom_site_fract_z
_atom_site_charge
Mof_Er	Er	0.7861	0.4671	0.8137	1.619
Mof_Er	Er	0.7139	0.5329	0.3137	1.62
Mof_Er	Er	0.2139	0.9671	0.6863	1.616
Mof_Er	Er	0.2861	0.0329	0.1863	1.62
Mof_C 	C 	0.2871	0.6254	0.128	-0.092
Mof_C 	C 	0.0814	0.5612	0.1257	-0.071
Mof_C 	C 	0.9926	0.5236	0.064	0.021
Mof_C 	C 	0.1067	0.5472	0.004	-0.099
Mof_C 	C 	0.3185	0.6048	0.0068	-0.001
Mof_C 	C 	0.4006	0.6485	0.0684	-0.009
Mof_C 	C 	0.3889	0.6703	0.1944	0.421
Mof_C 	C 	0.9441	0.5409	0.1873	0.323
Mof_C 	C 	0.0024	0.5078	0.9371	0.337
Mof_C 	C 	0.2129	0.3746	0.628	-0.092
Mof_C 	C 	0.4186	0.4388	0.6257	-0.07
Mof_C 	C 	0.5074	0.4764	0.564	0.02
Mof_C 	C 	0.3933	0.4528	0.504	-0.098
Mof_C 	C 	0.1815	0.3952	0.5068	-0.001
Mof_C 	C 	0.0994	0.3515	0.5684	-0.007
Mof_C 	C 	0.1111	0.3297	0.6944	0.421
Mof_C 	C 	0.5559	0.4591	0.6873	0.323
Mof_C 	C 	0.4976	0.4922	0.4371	0.338
Mof_C 	C 	0.7129	0.1254	0.372	-0.089
Mof_C 	C 	0.9186	0.0612	0.3743	-0.079
Mof_C 	C 	0.0074	0.0236	0.436	0.029
Mof_C 	C 	0.8933	0.0472	0.496	-0.103
Mof_C 	C 	0.6815	0.1048	0.4932	0.002
Mof_C 	C 	0.5994	0.1485	0.4316	-0.01
Mof_C 	C 	0.6111	0.1703	0.3056	0.42
Mof_C 	C 	0.0559	0.0409	0.3127	0.328
Mof_C 	C 	0.9976	0.0078	0.5629	0.336
Mof_C 	C 	0.7871	0.8746	0.872	-0.093
Mof_C 	C 	0.5814	0.9388	0.8743	-0.069
Mof_C 	C 	0.4926	0.9764	0.936	0.018
Mof_C 	C 	0.6067	0.9528	0.996	-0.098
Mof_C 	C 	0.8185	0.8952	0.9932	-0.002
Mof_C 	C 	0.9006	0.8515	0.9316	-0.006
Mof_C 	C 	0.8889	0.8297	0.8056	0.421
Mof_C 	C 	0.4441	0.9591	0.8127	0.32
Mof_C 	C 	0.5024	0.9922	0.0629	0.339
Mof_O 	O 	0.4253	0.8032	0.2022	-0.439
Mof_O 	O 	0.4416	0.5775	0.2341	-0.461
Mof_O 	O 	0.8486	0.4269	0.1966	-0.36
Mof_O 	O 	0.9242	0.6404	0.2285	-0.439
Mof_O 	O 	0.8014	0.4942	0.9344	-0.442
Mof_O 	O 	0.1186	0.4961	0.8849	-0.408
Mof_O 	O 	0.0747	0.1968	0.7022	-0.438
Mof_O 	O 	0.0584	0.4225	0.7341	-0.462
Mof_O 	O 	0.6514	0.5731	0.6966	-0.36
Mof_O 	O 	0.5758	0.3596	0.7285	-0.439
Mof_O 	O 	0.6986	0.5058	0.4344	-0.442
Mof_O 	O 	0.3814	0.5039	0.3849	-0.408
Mof_O 	O 	0.5747	0.3032	0.2978	-0.439
Mof_O 	O 	0.5584	0.0775	0.2659	-0.462
Mof_O 	O 	0.1514	0.9269	0.3034	-0.361
Mof_O 	O 	0.0758	0.1404	0.2715	-0.44
Mof_O 	O 	0.1986	0.9942	0.5656	-0.441
Mof_O 	O 	0.8814	0.9961	0.6151	-0.405
Mof_O 	O 	0.9253	0.6968	0.7978	-0.439
Mof_O 	O 	0.9416	0.9225	0.7659	-0.461
Mof_O 	O 	0.3486	0.0731	0.8034	-0.358
Mof_O 	O 	0.4242	0.8596	0.7715	-0.438
Mof_O 	O 	0.3014	0.0058	0.0656	-0.443
Mof_O 	O 	0.6186	0.0039	0.1151	-0.409
Mof_H 	H 	0.82317	0.47231	0.06155	0.033
Mof_H 	H 	0.42051	0.61512	0.95883	0.032
Mof_H 	H 	0.56619	0.70484	0.06929	0.033
Mof_H 	H 	0.67683	0.52769	0.56155	0.034
Mof_H 	H 	0.07949	0.38488	0.45883	0.032
Mof_H 	H 	0.93381	0.29516	0.56929	0.032
Mof_H 	H 	0.17683	0.97231	0.43845	0.032
Mof_H 	H 	0.57949	0.11512	0.54117	0.031
Mof_H 	H 	0.43426	0.20514	0.42895	0.033
Mof_H 	H 	0.32317	0.02769	0.93845	0.035
Mof_H 	H 	0.92051	0.88488	0.04117	0.033
Mof_H 	H 	0.06619	0.79516	0.93071	0.031
_end
