data_functionalizedCrystal
_audit_creation_method	'EQeq! by Chris Wilmer'
_symmetry_space_group_name_H-M	'P1'
_symmetry_Int_Tables_number	1
_symmetry_cell_setting	triclinic
loop_
_symmetry_equiv_pos_as_xyz
  x,y,z
_cell_length_a	12.6368
_cell_length_b	14.4827
_cell_length_c	18.082
_cell_angle_alpha	83.373
_cell_angle_beta	69.732
_cell_angle_gamma	85.888
loop_
_atom_site_label
_atom_site_type_symbol
_atom_site_fract_x
_atom_site_fract_y
_atom_site_fract_z
_atom_site_charge
Mof_Ni	Ni	0.20734	0.02331	0.484	1.05
Mof_C 	C 	0.22751	0.22828	0.48168	0.093
Mof_C 	C 	0.21777	0.31363	0.43553	-0.08
Mof_H 	H 	0.2407	0.3716	0.4403	0.077
Mof_C 	C 	0.16914	0.29414	0.38398	-0.079
Mof_H 	H 	0.1522	0.336	0.3463	0.074
Mof_C 	C 	0.1483	0.19664	0.3981	0.085
Mof_N 	N 	0.18841	0.15573	0.45665	-0.274
Mof_C 	C 	0.08994	0.15206	0.36168	-0.116
Mof_C 	C 	0.07212	0.05812	0.3767	0.083
Mof_C 	C 	0.00225	0.01117	0.34756	-0.127
Mof_H 	H 	0.9561	0.0387	0.3202	0.064
Mof_C 	C 	0.01473	0.92017	0.36657	-0.089
Mof_H 	H 	0.9783	0.8726	0.3557	0.048
Mof_C 	C 	0.09533	0.91001	0.40713	0.073
Mof_N 	N 	0.12577	0.99565	0.41707	-0.279
Mof_C 	C 	0.14341	0.82528	0.42529	-0.11
Mof_C 	C 	0.21498	0.81915	0.46924	0.086
Mof_C 	C 	0.27054	0.73469	0.48783	-0.081
Mof_H 	H 	0.2714	0.6777	0.4686	0.059
Mof_C 	C 	0.32114	0.75329	0.53832	-0.084
Mof_H 	H 	0.3622	0.7112	0.5617	0.071
Mof_C 	C 	0.30019	0.84987	0.54952	0.085
Mof_N 	N 	0.23749	0.89091	0.50422	-0.273
Mof_C 	C 	0.33459	0.89391	0.60072	-0.101
Mof_C 	C 	0.31768	0.98795	0.60662	0.084
Mof_C 	C 	0.33983	0.03413	0.66472	-0.086
Mof_H 	H 	0.3641	0.0061	0.7052	0.049
Mof_C 	C 	0.3193	0.12552	0.65053	-0.082
Mof_H 	H 	0.3257	0.1726	0.6795	0.047
Mof_C 	C 	0.2853	0.13617	0.58137	0.09
Mof_N 	N 	0.27865	0.05143	0.55749	-0.275
Mof_C 	C 	0.26734	0.22179	0.54402	-0.114
Mof_C 	C 	0.04534	0.20786	0.30327	0.025
Mof_C 	C 	0.96164	0.27521	0.32627	-0.025
Mof_H 	H 	0.9316	0.2864	0.3793	0.043
Mof_C 	C 	0.92138	0.32654	0.27193	-0.14
Mof_H 	H 	0.8647	0.372	0.2885	0.087
Mof_C 	C 	0.96436	0.31089	0.19421	0.156
Mof_C 	C 	0.04984	0.24516	0.169	-0.136
Mof_H 	H 	0.081	0.2358	0.1156	0.07
Mof_C 	C 	0.08902	0.19313	0.22404	-0.026
Mof_H 	H 	0.1456	0.1476	0.2074	0.037
Mof_C 	C 	0.9548	0.3562	0.06529	-0.298
Mof_H 	H 	0.9698	0.2913	0.0553	0.109
Mof_H 	H 	0.024	0.3895	0.0397	0.109
Mof_C 	C 	0.8628	0.3979	0.03383	0.632
Mof_O 	O 	0.91487	0.36451	0.14675	-0.169
Mof_O 	O 	0.76949	0.40924	0.07563	-0.73
Mof_O 	O 	0.89885	0.41701	0.95912	-0.645
Mof_H 	H 	0.8466	0.4383	0.9446	0.323
Mof_C 	C 	0.12658	0.74104	0.39058	0.025
Mof_C 	C 	0.15463	0.74313	0.3098	-0.035
Mof_H 	H 	0.176	0.7991	0.2788	0.03
Mof_C 	C 	0.15225	0.66505	0.27282	-0.138
Mof_H 	H 	0.1713	0.6689	0.2181	0.058
Mof_C 	C 	0.12142	0.58185	0.31803	0.168
Mof_C 	C 	0.08727	0.57952	0.40015	-0.134
Mof_H 	H 	0.0628	0.5243	0.4314	0.085
Mof_C 	C 	0.08934	0.65745	0.43516	-0.026
Mof_H 	H 	0.0653	0.6546	0.4901	0.041
Mof_C 	C 	0.13917	0.50259	0.20684	-0.272
Mof_H 	H 	0.0913	0.5523	0.1934	0.116
Mof_H 	H 	0.1148	0.4446	0.197	0.116
Mof_C 	C 	0.25951	0.51733	0.1517	0.528
Mof_O 	O 	0.12146	0.49969	0.28842	-0.168
Mof_O 	O 	0.33859	0.51024	0.17752	-0.647
Mof_O 	O 	0.27041	0.53415	0.08002	-0.662
Mof_C 	C 	0.38699	0.83796	0.65464	-0.009
Mof_C 	C 	0.32346	0.77705	0.71417	0.014
Mof_H 	H 	0.2499	0.7671	0.7177	0.032
Mof_C 	C 	0.36596	0.72989	0.76929	-0.194
Mof_H 	H 	0.3213	0.6886	0.8093	0.074
Mof_C 	C 	0.4739	0.74402	0.76488	0.222
Mof_C 	C 	0.54182	0.80144	0.7033	-0.203
Mof_H 	H 	0.6166	0.8086	0.6984	0.092
Mof_C 	C 	0.49764	0.84852	0.64866	0.017
Mof_H 	H 	0.5432	0.8878	0.6073	-0.001
Mof_C 	C 	0.60467	0.72436	0.83375	-0.255
Mof_H 	H 	0.6042	0.7917	0.8298	0.098
Mof_H 	H 	0.6717	0.7029	0.793	0.1
Mof_C 	C 	0.60523	0.6845	0.91428	0.564
Mof_O 	O 	0.50777	0.69511	0.82346	-0.356
Mof_O 	O 	0.69297	0.71179	0.92646	-0.555
Mof_H 	H 	0.6923	0.6906	0.9707	0.162
Mof_O 	O 	0.53831	0.63361	0.96014	-0.937
Mof_C 	C 	0.29927	0.30841	0.56833	0.027
Mof_C 	C 	0.22514	0.38305	0.58785	-0.032
Mof_H 	H 	0.152	0.3797	0.5877	0.045
Mof_C 	C 	0.25754	0.46251	0.60751	-0.137
Mof_H 	H 	0.2064	0.5126	0.6203	0.083
Mof_C 	C 	0.36719	0.46873	0.60837	0.164
Mof_C 	C 	0.44113	0.39449	0.59038	-0.142
Mof_H 	H 	0.5137	0.3971	0.5919	0.078
Mof_C 	C 	0.40739	0.31536	0.56987	-0.033
Mof_H 	H 	0.4586	0.2654	0.5567	0.041
Mof_C 	C 	0.5022	0.56436	0.62549	-0.282
Mof_H 	H 	0.5148	0.6304	0.6202	0.128
Mof_H 	H 	0.5552	0.5384	0.5791	0.129
Mof_C 	C 	0.52495	0.51921	0.69833	0.539
Mof_O 	O 	0.39045	0.55153	0.62822	-0.171
Mof_O 	O 	0.63276	0.5253	0.68773	-0.568
Mof_H 	H 	0.645	0.5032	0.728	0.305
Mof_O 	O 	0.45627	0.48677	0.75671	-0.646
Mof_K 	K 	0.4286	0.50226	0.91774	3.131
Mof_Ni	Ni	0.79266	0.97669	0.516	1.051
Mof_C 	C 	0.77249	0.77172	0.51832	0.094
Mof_C 	C 	0.78223	0.68637	0.56447	-0.08
Mof_H 	H 	0.7593	0.6284	0.5597	0.077
Mof_C 	C 	0.83086	0.70586	0.61602	-0.079
Mof_H 	H 	0.8478	0.664	0.6537	0.074
Mof_C 	C 	0.8517	0.80336	0.6019	0.085
Mof_N 	N 	0.81159	0.84427	0.54335	-0.274
Mof_C 	C 	0.91006	0.84794	0.63832	-0.116
Mof_C 	C 	0.92788	0.94188	0.6233	0.083
Mof_C 	C 	0.99775	0.98883	0.65244	-0.127
Mof_H 	H 	0.0439	0.9613	0.6798	0.064
Mof_C 	C 	0.98527	0.07983	0.63343	-0.089
Mof_H 	H 	0.0217	0.1274	0.6443	0.048
Mof_C 	C 	0.90467	0.08999	0.59287	0.073
Mof_N 	N 	0.87423	0.00435	0.58293	-0.279
Mof_C 	C 	0.85659	0.17472	0.57471	-0.11
Mof_C 	C 	0.78502	0.18085	0.53076	0.086
Mof_C 	C 	0.72946	0.26531	0.51217	-0.081
Mof_H 	H 	0.7286	0.3223	0.5314	0.059
Mof_C 	C 	0.67886	0.24671	0.46168	-0.084
Mof_H 	H 	0.6378	0.2888	0.4383	0.071
Mof_C 	C 	0.69981	0.15013	0.45048	0.085
Mof_N 	N 	0.76251	0.10909	0.49578	-0.273
Mof_C 	C 	0.66541	0.10609	0.39928	-0.101
Mof_C 	C 	0.68232	0.01205	0.39338	0.084
Mof_C 	C 	0.66017	0.96587	0.33528	-0.086
Mof_H 	H 	0.6359	0.9939	0.2948	0.049
Mof_C 	C 	0.6807	0.87448	0.34947	-0.082
Mof_H 	H 	0.6743	0.8274	0.3205	0.047
Mof_C 	C 	0.7147	0.86383	0.41863	0.09
Mof_N 	N 	0.72135	0.94857	0.44251	-0.275
Mof_C 	C 	0.73266	0.77821	0.45598	-0.114
Mof_C 	C 	0.95466	0.79214	0.69673	0.025
Mof_C 	C 	0.03836	0.72479	0.67373	-0.025
Mof_H 	H 	0.0684	0.7136	0.6207	0.043
Mof_C 	C 	0.07862	0.67346	0.72807	-0.14
Mof_H 	H 	0.1353	0.628	0.7115	0.087
Mof_C 	C 	0.03564	0.68911	0.80579	0.156
Mof_C 	C 	0.95016	0.75484	0.831	-0.136
Mof_H 	H 	0.919	0.7642	0.8844	0.07
Mof_C 	C 	0.91098	0.80687	0.77596	-0.026
Mof_H 	H 	0.8544	0.8524	0.7926	0.037
Mof_C 	C 	0.0452	0.6438	0.93471	-0.298
Mof_H 	H 	0.0302	0.7087	0.9447	0.109
Mof_H 	H 	0.976	0.6105	0.9603	0.109
Mof_C 	C 	0.1372	0.6021	0.96617	0.632
Mof_O 	O 	0.08513	0.63549	0.85325	-0.169
Mof_O 	O 	0.23051	0.59076	0.92437	-0.73
Mof_O 	O 	0.10115	0.58299	0.04088	-0.645
Mof_H 	H 	0.1534	0.5617	0.0554	0.323
Mof_C 	C 	0.87342	0.25896	0.60942	0.025
Mof_C 	C 	0.84537	0.25687	0.6902	-0.035
Mof_H 	H 	0.824	0.2009	0.7212	0.03
Mof_C 	C 	0.84775	0.33495	0.72718	-0.138
Mof_H 	H 	0.8287	0.3311	0.7819	0.058
Mof_C 	C 	0.87858	0.41815	0.68197	0.168
Mof_C 	C 	0.91273	0.42048	0.59985	-0.134
Mof_H 	H 	0.9372	0.4757	0.5686	0.085
Mof_C 	C 	0.91066	0.34255	0.56484	-0.026
Mof_H 	H 	0.9347	0.3454	0.5099	0.041
Mof_C 	C 	0.86083	0.49741	0.79316	-0.272
Mof_H 	H 	0.9087	0.4477	0.8066	0.116
Mof_H 	H 	0.8852	0.5554	0.803	0.116
Mof_C 	C 	0.74049	0.48267	0.8483	0.528
Mof_O 	O 	0.87854	0.50031	0.71158	-0.168
Mof_O 	O 	0.66141	0.48976	0.82248	-0.647
Mof_O 	O 	0.72959	0.46585	0.91998	-0.662
Mof_C 	C 	0.61301	0.16204	0.34536	-0.009
Mof_C 	C 	0.67654	0.22295	0.28583	0.014
Mof_H 	H 	0.7501	0.2329	0.2823	0.032
Mof_C 	C 	0.63404	0.27011	0.23071	-0.194
Mof_H 	H 	0.6787	0.3114	0.1907	0.074
Mof_C 	C 	0.5261	0.25598	0.23512	0.222
Mof_C 	C 	0.45818	0.19856	0.2967	-0.203
Mof_H 	H 	0.3834	0.1914	0.3016	0.092
Mof_C 	C 	0.50236	0.15148	0.35134	0.017
Mof_H 	H 	0.4568	0.1122	0.3927	-0.001
Mof_C 	C 	0.39533	0.27564	0.16625	-0.255
Mof_H 	H 	0.3958	0.2083	0.1702	0.098
Mof_H 	H 	0.3283	0.2971	0.207	0.1
Mof_C 	C 	0.39477	0.3155	0.08572	0.564
Mof_O 	O 	0.49223	0.30489	0.17654	-0.356
Mof_O 	O 	0.30703	0.28821	0.07354	-0.555
Mof_H 	H 	0.3077	0.3094	0.0293	0.162
Mof_O 	O 	0.46169	0.36639	0.03986	-0.937
Mof_C 	C 	0.70073	0.69159	0.43167	0.027
Mof_C 	C 	0.77486	0.61695	0.41215	-0.032
Mof_H 	H 	0.848	0.6203	0.4123	0.045
Mof_C 	C 	0.74246	0.53749	0.39249	-0.137
Mof_H 	H 	0.7936	0.4874	0.3797	0.083
Mof_C 	C 	0.63281	0.53127	0.39163	0.164
Mof_C 	C 	0.55887	0.60551	0.40962	-0.142
Mof_H 	H 	0.4863	0.6029	0.4081	0.078
Mof_C 	C 	0.59261	0.68464	0.43013	-0.033
Mof_H 	H 	0.5414	0.7346	0.4433	0.041
Mof_C 	C 	0.4978	0.43564	0.37451	-0.282
Mof_H 	H 	0.4852	0.3696	0.3798	0.128
Mof_H 	H 	0.4448	0.4616	0.4209	0.129
Mof_C 	C 	0.47505	0.48079	0.30167	0.539
Mof_O 	O 	0.60955	0.44847	0.37178	-0.171
Mof_O 	O 	0.36724	0.4747	0.31227	-0.568
Mof_H 	H 	0.355	0.4968	0.272	0.305
Mof_O 	O 	0.54373	0.51323	0.24329	-0.646
Mof_K 	K 	0.5714	0.49774	0.08226	3.131
_end
