data_functionalizedCrystal
_audit_creation_method	'EQeq! by Chris Wilmer'
_symmetry_space_group_name_H-M	'P1'
_symmetry_Int_Tables_number	1
_symmetry_cell_setting	triclinic
loop_
_symmetry_equiv_pos_as_xyz
  x,y,z
_cell_length_a	27.7069
_cell_length_b	27.7069
_cell_length_c	3.5719
_cell_angle_alpha	90
_cell_angle_beta	90
_cell_angle_gamma	90
loop_
_atom_site_label
_atom_site_type_symbol
_atom_site_fract_x
_atom_site_fract_y
_atom_site_fract_z
_atom_site_charge
Mof_Zn	Zn	0.2847	0.21404	0.8456	1.207
Mof_N 	N 	0.2602	0.1461	0.778	-0.281
Mof_C 	C 	0.2806	0.1087	0.934	0.105
Mof_H 	H 	0.3109	0.1101	0.0453	0.01
Mof_N 	N 	0.254	0.0676	0.919	-0.168
Mof_C 	C 	0.2153	0.1294	0.647	0.05
Mof_O 	O 	0.2722	0.8583	0.619	-0.495
Mof_C 	C 	0.1787	0.1534	0.461	-0.137
Mof_H 	H 	0.1817	0.186	0.4019	0.057
Mof_O 	O 	0.3388	0.8606	0.294	-0.265
Mof_C 	C 	0.1375	0.128	0.364	0.061
Mof_C 	C 	0.1	0.1499	0.174	-0.102
Mof_H 	H 	0.1026	0.1824	0.1124	0.079
Mof_C 	C 	0.0585	0.125	0.072	-0.013
Mof_H 	H 	0.0337	0.1405	0.9446	0.027
Mof_C 	C 	0.055	0.0764	0.165	-0.037
Mof_H 	H 	0.0275	0.0591	0.0997	0.036
Mof_C 	C 	0.0923	0.0538	0.353	-0.079
Mof_H 	H 	0.0896	0.0213	0.4138	0.055
Mof_C 	C 	0.1341	0.079	0.455	0.04
Mof_C 	C 	0.1707	0.055	0.642	-0.13
Mof_H 	H 	0.168	0.0223	0.6988	0.073
Mof_C 	C 	0.2113	0.0807	0.742	0.083
Mof_C 	C 	0.2446	0.9456	0.308	0.13
Mof_H 	H 	0.2208	0.9247	0.395	-0.002
Mof_C 	C 	0.2927	0.9312	0.309	-0.186
Mof_C 	C 	0.3283	0.9624	0.18	0.15
Mof_H 	H 	0.3604	0.9527	0.1807	0.01
Mof_C 	C 	0.3158	0.008	0.05	-0.228
Mof_H 	H 	0.3396	0.0288	0.9634	0.13
Mof_C 	C 	0.2677	0.0224	0.049	0.204
Mof_C 	C 	0.2322	0.9911	0.178	-0.217
Mof_H 	H 	0.2	0.0008	0.1777	0.107
Mof_C 	C 	0.3009	0.8804	0.454	0.51
Mof_O 	O 	0.2857	0.2479	0.355	-0.734
Mof_H 	H 	0.3087	0.2356	0.2298	0.146
Mof_O 	O 	0.3404	0.875	0.652	-0.212
Mof_Zn	Zn	0.7153	0.78596	0.8456	1.208
Mof_N 	N 	0.7398	0.8539	0.778	-0.28
Mof_C 	C 	0.7194	0.8913	0.934	0.106
Mof_H 	H 	0.6891	0.8899	0.0453	0.011
Mof_N 	N 	0.746	0.9324	0.919	-0.167
Mof_C 	C 	0.7847	0.8706	0.647	0.051
Mof_O 	O 	0.7278	0.1417	0.619	-0.494
Mof_C 	C 	0.8213	0.8466	0.461	-0.136
Mof_H 	H 	0.8183	0.814	0.4019	0.058
Mof_O 	O 	0.6612	0.1394	0.294	-0.264
Mof_C 	C 	0.8625	0.872	0.364	0.062
Mof_C 	C 	0.9	0.8501	0.174	-0.101
Mof_H 	H 	0.8974	0.8176	0.1124	0.079
Mof_C 	C 	0.9415	0.875	0.072	-0.013
Mof_H 	H 	0.9663	0.8595	0.9446	0.027
Mof_C 	C 	0.945	0.9236	0.165	-0.037
Mof_H 	H 	0.9725	0.9409	0.0997	0.036
Mof_C 	C 	0.9077	0.9462	0.353	-0.079
Mof_H 	H 	0.9104	0.9787	0.4138	0.055
Mof_C 	C 	0.8659	0.921	0.455	0.04
Mof_C 	C 	0.8293	0.945	0.642	-0.13
Mof_H 	H 	0.832	0.9777	0.6988	0.073
Mof_C 	C 	0.7887	0.9193	0.742	0.083
Mof_C 	C 	0.7554	0.0544	0.308	0.13
Mof_H 	H 	0.7792	0.0753	0.395	-0.002
Mof_C 	C 	0.7073	0.0688	0.309	-0.186
Mof_C 	C 	0.6717	0.0376	0.18	0.15
Mof_H 	H 	0.6396	0.0473	0.1807	0.01
Mof_C 	C 	0.6842	0.992	0.05	-0.228
Mof_H 	H 	0.6604	0.9712	0.9634	0.13
Mof_C 	C 	0.7323	0.9776	0.049	0.204
Mof_C 	C 	0.7678	0.0089	0.178	-0.217
Mof_H 	H 	0.8	0.9992	0.1777	0.107
Mof_C 	C 	0.6991	0.1196	0.454	0.51
Mof_O 	O 	0.7143	0.7521	0.355	-0.734
Mof_H 	H 	0.6913	0.7644	0.2298	0.146
Mof_O 	O 	0.6596	0.125	0.652	-0.212
Mof_Zn	Zn	0.71404	0.2153	0.6544	1.206
Mof_N 	N 	0.6461	0.2398	0.722	-0.278
Mof_C 	C 	0.6087	0.2194	0.566	0.096
Mof_H 	H 	0.6101	0.1891	0.4547	0.019
Mof_N 	N 	0.5676	0.246	0.581	-0.166
Mof_C 	C 	0.6294	0.2847	0.853	0.041
Mof_O 	O 	0.3583	0.2278	0.881	-0.479
Mof_C 	C 	0.6534	0.3213	0.039	-0.124
Mof_H 	H 	0.686	0.3183	0.0981	0.057
Mof_O 	O 	0.3606	0.1612	0.206	-0.266
Mof_C 	C 	0.628	0.3625	0.136	0.057
Mof_C 	C 	0.6499	0.4	0.326	-0.097
Mof_H 	H 	0.6824	0.3974	0.3876	0.079
Mof_C 	C 	0.625	0.4415	0.428	-0.014
Mof_H 	H 	0.6405	0.4663	0.5554	0.026
Mof_C 	C 	0.5764	0.445	0.335	-0.035
Mof_H 	H 	0.5591	0.4725	0.4003	0.035
Mof_C 	C 	0.5538	0.4077	0.147	-0.082
Mof_H 	H 	0.5213	0.4104	0.0862	0.055
Mof_C 	C 	0.579	0.3659	0.045	0.045
Mof_C 	C 	0.555	0.3293	0.858	-0.137
Mof_H 	H 	0.5223	0.332	0.8012	0.076
Mof_C 	C 	0.5807	0.2887	0.758	0.088
Mof_C 	C 	0.4456	0.2554	0.192	0.124
Mof_H 	H 	0.4247	0.2792	0.105	-0.003
Mof_C 	C 	0.4312	0.2073	0.191	-0.179
Mof_C 	C 	0.4624	0.1717	0.32	0.143
Mof_H 	H 	0.4527	0.1396	0.3193	0.012
Mof_C 	C 	0.508	0.1842	0.45	-0.222
Mof_H 	H 	0.5288	0.1604	0.5366	0.127
Mof_C 	C 	0.5224	0.2323	0.451	0.202
Mof_C 	C 	0.4911	0.2678	0.322	-0.214
Mof_H 	H 	0.5008	0.3	0.3223	0.106
Mof_C 	C 	0.3804	0.1991	0.046	0.489
Mof_O 	O 	0.7479	0.2143	0.145	-0.729
Mof_H 	H 	0.7356	0.1913	0.2702	0.149
Mof_O 	O 	0.375	0.1596	0.848	-0.2
Mof_Zn	Zn	0.28596	0.7847	0.6544	1.206
Mof_N 	N 	0.3539	0.7602	0.722	-0.278
Mof_C 	C 	0.3913	0.7806	0.566	0.096
Mof_H 	H 	0.3899	0.8109	0.4547	0.019
Mof_N 	N 	0.4324	0.754	0.581	-0.166
Mof_C 	C 	0.3706	0.7153	0.853	0.041
Mof_O 	O 	0.6417	0.7722	0.881	-0.479
Mof_C 	C 	0.3466	0.6787	0.039	-0.124
Mof_H 	H 	0.314	0.6817	0.0981	0.057
Mof_O 	O 	0.6394	0.8388	0.206	-0.266
Mof_C 	C 	0.372	0.6375	0.136	0.057
Mof_C 	C 	0.3501	0.6	0.326	-0.097
Mof_H 	H 	0.3176	0.6026	0.3876	0.079
Mof_C 	C 	0.375	0.5585	0.428	-0.014
Mof_H 	H 	0.3595	0.5337	0.5554	0.026
Mof_C 	C 	0.4236	0.555	0.335	-0.035
Mof_H 	H 	0.4409	0.5275	0.4003	0.035
Mof_C 	C 	0.4462	0.5923	0.147	-0.082
Mof_H 	H 	0.4787	0.5896	0.0862	0.055
Mof_C 	C 	0.421	0.6341	0.045	0.045
Mof_C 	C 	0.445	0.6707	0.858	-0.137
Mof_H 	H 	0.4777	0.668	0.8012	0.076
Mof_C 	C 	0.4193	0.7113	0.758	0.088
Mof_C 	C 	0.5544	0.7446	0.192	0.124
Mof_H 	H 	0.5753	0.7208	0.105	-0.003
Mof_C 	C 	0.5688	0.7927	0.191	-0.179
Mof_C 	C 	0.5376	0.8283	0.32	0.143
Mof_H 	H 	0.5473	0.8604	0.3193	0.012
Mof_C 	C 	0.492	0.8158	0.45	-0.222
Mof_H 	H 	0.4712	0.8396	0.5366	0.127
Mof_C 	C 	0.4776	0.7677	0.451	0.202
Mof_C 	C 	0.5089	0.7322	0.322	-0.214
Mof_H 	H 	0.4992	0.7	0.3223	0.106
Mof_C 	C 	0.6196	0.8009	0.046	0.489
Mof_O 	O 	0.2521	0.7857	0.145	-0.729
Mof_H 	H 	0.2644	0.8087	0.2702	0.149
Mof_O 	O 	0.625	0.8404	0.848	-0.2
Mof_Zn	Zn	0.7847	0.71404	0.3456	1.206
Mof_N 	N 	0.7602	0.6461	0.278	-0.278
Mof_C 	C 	0.7806	0.6087	0.434	0.096
Mof_H 	H 	0.8109	0.6101	0.5453	0.019
Mof_N 	N 	0.754	0.5676	0.419	-0.166
Mof_C 	C 	0.7153	0.6294	0.147	0.041
Mof_O 	O 	0.7722	0.3583	0.119	-0.479
Mof_C 	C 	0.6787	0.6534	0.961	-0.124
Mof_H 	H 	0.6817	0.686	0.9019	0.057
Mof_O 	O 	0.8388	0.3606	0.794	-0.266
Mof_C 	C 	0.6375	0.628	0.864	0.057
Mof_C 	C 	0.6	0.6499	0.674	-0.097
Mof_H 	H 	0.6026	0.6824	0.6124	0.079
Mof_C 	C 	0.5585	0.625	0.572	-0.014
Mof_H 	H 	0.5337	0.6405	0.4446	0.026
Mof_C 	C 	0.555	0.5764	0.665	-0.035
Mof_H 	H 	0.5275	0.5591	0.5997	0.035
Mof_C 	C 	0.5923	0.5538	0.853	-0.082
Mof_H 	H 	0.5896	0.5213	0.9138	0.055
Mof_C 	C 	0.6341	0.579	0.955	0.045
Mof_C 	C 	0.6707	0.555	0.142	-0.137
Mof_H 	H 	0.668	0.5223	0.1988	0.076
Mof_C 	C 	0.7113	0.5807	0.242	0.088
Mof_C 	C 	0.7446	0.4456	0.808	0.124
Mof_H 	H 	0.7208	0.4247	0.895	-0.003
Mof_C 	C 	0.7927	0.4312	0.809	-0.179
Mof_C 	C 	0.8283	0.4624	0.68	0.143
Mof_H 	H 	0.8604	0.4527	0.6807	0.012
Mof_C 	C 	0.8158	0.508	0.55	-0.222
Mof_H 	H 	0.8396	0.5288	0.4634	0.127
Mof_C 	C 	0.7677	0.5224	0.549	0.202
Mof_C 	C 	0.7322	0.4911	0.678	-0.214
Mof_H 	H 	0.7	0.5008	0.6777	0.106
Mof_C 	C 	0.8009	0.3804	0.954	0.489
Mof_O 	O 	0.7857	0.7479	0.855	-0.729
Mof_H 	H 	0.8087	0.7356	0.7298	0.149
Mof_O 	O 	0.8404	0.375	0.152	-0.2
Mof_Zn	Zn	0.2153	0.28596	0.3456	1.206
Mof_N 	N 	0.2398	0.3539	0.278	-0.278
Mof_C 	C 	0.2194	0.3913	0.434	0.096
Mof_H 	H 	0.1891	0.3899	0.5453	0.019
Mof_N 	N 	0.246	0.4324	0.419	-0.166
Mof_C 	C 	0.2847	0.3706	0.147	0.041
Mof_O 	O 	0.2278	0.6417	0.119	-0.479
Mof_C 	C 	0.3213	0.3466	0.961	-0.124
Mof_H 	H 	0.3183	0.314	0.9019	0.057
Mof_O 	O 	0.1612	0.6394	0.794	-0.266
Mof_C 	C 	0.3625	0.372	0.864	0.057
Mof_C 	C 	0.4	0.3501	0.674	-0.097
Mof_H 	H 	0.3974	0.3176	0.6124	0.079
Mof_C 	C 	0.4415	0.375	0.572	-0.014
Mof_H 	H 	0.4663	0.3595	0.4446	0.026
Mof_C 	C 	0.445	0.4236	0.665	-0.035
Mof_H 	H 	0.4725	0.4409	0.5997	0.035
Mof_C 	C 	0.4077	0.4462	0.853	-0.082
Mof_H 	H 	0.4104	0.4787	0.9138	0.055
Mof_C 	C 	0.3659	0.421	0.955	0.045
Mof_C 	C 	0.3293	0.445	0.142	-0.137
Mof_H 	H 	0.332	0.4777	0.1988	0.076
Mof_C 	C 	0.2887	0.4193	0.242	0.088
Mof_C 	C 	0.2554	0.5544	0.808	0.124
Mof_H 	H 	0.2792	0.5753	0.895	-0.003
Mof_C 	C 	0.2073	0.5688	0.809	-0.179
Mof_C 	C 	0.1717	0.5376	0.68	0.143
Mof_H 	H 	0.1396	0.5473	0.6807	0.012
Mof_C 	C 	0.1842	0.492	0.55	-0.222
Mof_H 	H 	0.1604	0.4712	0.4634	0.127
Mof_C 	C 	0.2323	0.4776	0.549	0.202
Mof_C 	C 	0.2678	0.5089	0.678	-0.214
Mof_H 	H 	0.3	0.4992	0.6777	0.106
Mof_C 	C 	0.1991	0.6196	0.954	0.489
Mof_O 	O 	0.2143	0.2521	0.855	-0.729
Mof_H 	H 	0.1913	0.2644	0.7298	0.149
Mof_O 	O 	0.1596	0.625	0.152	-0.2
Mof_Zn	Zn	0.21404	0.7153	0.1544	1.208
Mof_N 	N 	0.1461	0.7398	0.222	-0.28
Mof_C 	C 	0.1087	0.7194	0.066	0.106
Mof_H 	H 	0.1101	0.6891	0.9547	0.011
Mof_N 	N 	0.0676	0.746	0.081	-0.167
Mof_C 	C 	0.1294	0.7847	0.353	0.051
Mof_O 	O 	0.8583	0.7278	0.381	-0.494
Mof_C 	C 	0.1534	0.8213	0.539	-0.136
Mof_H 	H 	0.186	0.8183	0.5981	0.058
Mof_O 	O 	0.8606	0.6612	0.706	-0.264
Mof_C 	C 	0.128	0.8625	0.636	0.062
Mof_C 	C 	0.1499	0.9	0.826	-0.101
Mof_H 	H 	0.1824	0.8974	0.8876	0.079
Mof_C 	C 	0.125	0.9415	0.928	-0.013
Mof_H 	H 	0.1405	0.9663	0.0554	0.027
Mof_C 	C 	0.0764	0.945	0.835	-0.037
Mof_H 	H 	0.0591	0.9725	0.9003	0.036
Mof_C 	C 	0.0538	0.9077	0.647	-0.079
Mof_H 	H 	0.0213	0.9104	0.5862	0.055
Mof_C 	C 	0.079	0.8659	0.545	0.04
Mof_C 	C 	0.055	0.8293	0.358	-0.13
Mof_H 	H 	0.0223	0.832	0.3012	0.073
Mof_C 	C 	0.0807	0.7887	0.258	0.083
Mof_C 	C 	0.9456	0.7554	0.692	0.13
Mof_H 	H 	0.9247	0.7792	0.605	-0.002
Mof_C 	C 	0.9312	0.7073	0.691	-0.186
Mof_C 	C 	0.9624	0.6717	0.82	0.15
Mof_H 	H 	0.9527	0.6396	0.8193	0.01
Mof_C 	C 	0.008	0.6842	0.95	-0.228
Mof_H 	H 	0.0288	0.6604	0.0366	0.13
Mof_C 	C 	0.0224	0.7323	0.951	0.204
Mof_C 	C 	0.9911	0.7678	0.822	-0.217
Mof_H 	H 	0.0008	0.8	0.8223	0.107
Mof_C 	C 	0.8804	0.6991	0.546	0.51
Mof_O 	O 	0.2479	0.7143	0.645	-0.734
Mof_H 	H 	0.2356	0.6913	0.7702	0.146
Mof_O 	O 	0.875	0.6596	0.348	-0.212
Mof_Zn	Zn	0.78596	0.2847	0.1544	1.208
Mof_N 	N 	0.8539	0.2602	0.222	-0.28
Mof_C 	C 	0.8913	0.2806	0.066	0.106
Mof_H 	H 	0.8899	0.3109	0.9547	0.011
Mof_N 	N 	0.9324	0.254	0.081	-0.167
Mof_C 	C 	0.8706	0.2153	0.353	0.051
Mof_O 	O 	0.1417	0.2722	0.381	-0.494
Mof_C 	C 	0.8466	0.1787	0.539	-0.136
Mof_H 	H 	0.814	0.1817	0.5981	0.058
Mof_O 	O 	0.1394	0.3388	0.706	-0.264
Mof_C 	C 	0.872	0.1375	0.636	0.062
Mof_C 	C 	0.8501	0.1	0.826	-0.101
Mof_H 	H 	0.8176	0.1026	0.8876	0.079
Mof_C 	C 	0.875	0.0585	0.928	-0.013
Mof_H 	H 	0.8595	0.0337	0.0554	0.027
Mof_C 	C 	0.9236	0.055	0.835	-0.037
Mof_H 	H 	0.9409	0.0275	0.9003	0.036
Mof_C 	C 	0.9462	0.0923	0.647	-0.079
Mof_H 	H 	0.9787	0.0896	0.5862	0.055
Mof_C 	C 	0.921	0.1341	0.545	0.04
Mof_C 	C 	0.945	0.1707	0.358	-0.13
Mof_H 	H 	0.9777	0.168	0.3012	0.073
Mof_C 	C 	0.9193	0.2113	0.258	0.083
Mof_C 	C 	0.0544	0.2446	0.692	0.13
Mof_H 	H 	0.0753	0.2208	0.605	-0.002
Mof_C 	C 	0.0688	0.2927	0.691	-0.186
Mof_C 	C 	0.0376	0.3283	0.82	0.15
Mof_H 	H 	0.0473	0.3604	0.8193	0.01
Mof_C 	C 	0.992	0.3158	0.95	-0.228
Mof_H 	H 	0.9712	0.3396	0.0366	0.13
Mof_C 	C 	0.9776	0.2677	0.951	0.204
Mof_C 	C 	0.0089	0.2322	0.822	-0.217
Mof_H 	H 	0.9992	0.2	0.8223	0.107
Mof_C 	C 	0.1196	0.3009	0.546	0.51
Mof_O 	O 	0.7521	0.2857	0.645	-0.734
Mof_H 	H 	0.7644	0.3087	0.7702	0.146
Mof_O 	O 	0.125	0.3404	0.348	-0.212
_end
