data_functionalizedCrystal
_audit_creation_method	'EQeq! by Chris Wilmer'
_symmetry_space_group_name_H-M	'P1'
_symmetry_Int_Tables_number	1
_symmetry_cell_setting	triclinic
loop_
_symmetry_equiv_pos_as_xyz
  x,y,z
_cell_length_a	75.033
_cell_length_b	29.38
_cell_length_c	29.569
_cell_angle_alpha	90
_cell_angle_beta	90
_cell_angle_gamma	90
loop_
_atom_site_label
_atom_site_type_symbol
_atom_site_fract_x
_atom_site_fract_y
_atom_site_fract_z
_atom_site_charge
Mof_C 	C 	0.92972	0.1271	0.1283	0.042
Mof_H 	H 	0.9331	0.1203	0.098	0.011
Mof_C 	C 	0.86523	0.4076	0.2359	0.139
Mof_H 	H 	0.8572	0.3952	0.2575	-0.004
Mof_C 	C 	0.9394	0.158	0.153	-0.162
Mof_H 	H 	0.9488	0.1741	0.1386	0.086
Mof_C 	C 	0.91992	0.206	0.0297	-0.165
Mof_H 	H 	0.9296	0.193	0.0461	0.087
Mof_C 	C 	0.87164	0.0917	0.9314	0.108
Mof_H 	H 	0.87	0.0605	0.9389	0.008
Mof_C 	C 	0.866	0.1543	0.8845	0.084
Mof_H 	H 	0.8598	0.167	0.8594	0.018
Mof_C 	C 	0.91699	0.3101	0.0893	0.209
Mof_C 	C 	0.85578	0.4834	0.265	0.411
Mof_C 	C 	0.87956	0.4667	0.2084	0.177
Mof_H 	H 	0.8824	0.4983	0.2095	-0.014
Mof_C 	C 	0.91636	0.2488	0.0352	0.132
Mof_C 	C 	0.94574	0.277	0.0618	0.158
Mof_C 	C 	0.85537	0.0785	0.8625	0.377
Mof_C 	C 	0.92234	0.3497	0.1019	-0.242
Mof_H 	H 	0.9333	0.3601	0.0899	0.114
Mof_C 	C 	0.05049	0.2141	0.1862	0.028
Mof_H 	H 	0.0591	0.1948	0.1726	0.04
Mof_C 	C 	0.0867	0.9514	0.811	0.035
Mof_C 	C 	0.03793	0.2501	0.0638	-0.162
Mof_C 	C 	0.03016	0.2751	0.0982	0.086
Mof_H 	H 	0.037	0.2869	0.1225	0.012
Mof_C 	C 	0.88717	0.3411	0.3958	0.117
Mof_H 	H 	0.8836	0.3341	0.4258	0.009
Mof_C 	C 	0.90105	0.2943	0.1102	-0.213
Mof_H 	H 	0.8969	0.2643	0.1042	0.103
Mof_C 	C 	0.87436	0.3769	0.2079	-0.223
Mof_H 	H 	0.8719	0.3452	0.2087	0.104
Mof_C 	C 	0.88897	0.4417	0.1798	-0.243
Mof_H 	H 	0.8971	0.4558	0.1596	0.113
Mof_C 	C 	0.02015	0.2342	0.2089	0.075
Mof_C 	C 	0.87596	0.1823	0.9127	-0.155
Mof_H 	H 	0.8772	0.2137	0.9056	0.089
Mof_C 	C 	0.86695	0.4529	0.2349	-0.223
Mof_C 	C 	0.89471	0.1932	0.9799	-0.081
Mof_C 	C 	0.89811	0.3117	0.3697	-0.202
Mof_H 	H 	0.9017	0.2831	0.3816	0.102
Mof_C 	C 	0.90338	0.3244	0.3276	0.18
Mof_C 	C 	0.02866	0.2336	0.029	0.082
Mof_H 	H 	0.0344	0.2169	0.0056	0.019
Mof_C 	C 	0.03147	0.2022	0.186	-0.106
Mof_H 	H 	0.027	0.1755	0.1718	0.069
Mof_C 	C 	0.91468	0.2903	0.2995	-0.141
Mof_C 	C 	0.93599	0.1667	0.1981	0.147
Mof_C 	C 	0.89832	0.3618	0.3091	-0.228
Mof_H 	H 	0.9015	0.369	0.2788	0.115
Mof_C 	C 	0.07161	0.1499	0.9526	0.059
Mof_H 	H 	0.0652	0.1778	0.9513	0.008
Mof_C 	C 	0.91357	0.378	0.1309	0.11
Mof_H 	H 	0.9188	0.4066	0.1379	-0.008
Mof_C 	C 	0.07987	0.9906	0.8362	0.086
Mof_C 	C 	0.07546	0.2687	0.203	0.345
Mof_C 	C 	0.00138	0.2649	0.0603	0.119
Mof_C 	C 	0.09133	0.1026	0.989	0.09
Mof_H 	H 	0.0993	0.0972	0.0134	0.007
Mof_C 	C 	0.88025	0.0226	0.069	-0.166
Mof_C 	C 	0.04455	0.2788	0.2321	0.043
Mof_H 	H 	0.049	0.3026	0.2506	0.03
Mof_C 	C 	0.05818	0.2399	0.0639	0.462
Mof_C 	C 	0.90338	0.0757	0.118	0.124
Mof_C 	C 	0.86503	0.1066	0.893	-0.175
Mof_C 	C 	0.93504	0.23	0.249	0.221
Mof_C 	C 	0.91176	0.2819	0.2549	0.14
Mof_H 	H 	0.9022	0.2974	0.2407	-0.018
Mof_C 	C 	0.07912	0.0767	0.9199	0.064
Mof_C 	C 	2e-05	0.2221	0.2118	-0.042
Mof_C 	C 	0.08962	0.0717	0.9577	-0.132
Mof_H 	H 	0.096	0.044	0.9612	0.081
Mof_C 	C 	0.88407	0.1648	0.9511	0.116
Mof_C 	C 	0.96371	0.2061	0.2181	0.14
Mof_C 	C 	0.06986	0.1164	0.9175	-0.114
Mof_H 	H 	0.0622	0.1221	0.8926	0.079
Mof_C 	C 	0.89218	0.3208	0.1376	0.093
Mof_H 	H 	0.8814	0.3093	0.1502	-0.004
Mof_C 	C 	0.07766	0.0482	0.8829	0.072
Mof_C 	C 	0.91566	0.1067	0.1466	-0.075
Mof_C 	C 	0.93805	0.2369	0.2908	-0.248
Mof_H 	H 	0.9479	0.2211	0.3034	0.116
Mof_C 	C 	0.92094	0.255	0.231	-0.251
Mof_H 	H 	0.9181	0.2517	0.1999	0.117
Mof_C 	C 	0.97339	0.272	0.1008	0.047
Mof_H 	H 	0.9797	0.273	0.1286	0.017
Mof_C 	C 	0.91009	0.1779	0.0003	0.053
Mof_H 	H 	0.9141	0.1479	0.9944	0.01
Mof_C 	C 	0.02619	0.2689	0.2309	-0.128
Mof_H 	H 	0.0181	0.2882	0.2465	0.073
Mof_C 	C 	0.90065	0.2693	0.0103	-0.127
Mof_H 	H 	0.898	0.3009	0.0118	0.078
Mof_C 	C 	0.89103	0.2408	0.9868	0.023
Mof_H 	H 	0.8806	0.2527	0.9728	0.021
Mof_C 	C 	0.1047	0.9444	0.8035	-0.097
Mof_H 	H 	0.1138	0.9635	0.8158	0.083
Mof_C 	C 	0.97237	0.2713	0.0219	0.053
Mof_H 	H 	0.9785	0.2717	0.9937	0.007
Mof_C 	C 	0.88797	0.3914	0.3348	0.141
Mof_H 	H 	0.885	0.4205	0.323	0.003
Mof_C 	C 	0.92887	0.264	0.3191	0.109
Mof_H 	H 	0.9316	0.2656	0.3504	-0.008
Mof_C 	C 	0.89762	0.367	0.1504	-0.139
Mof_C 	C 	0.98221	0.268	0.0638	-0.088
Mof_C 	C 	0.9885	0.2578	0.2194	0.012
Mof_H 	H 	0.993	0.2878	0.2225	0.023
Mof_C 	C 	0.0756	0.9169	0.796	-0.077
Mof_H 	H 	0.0632	0.9233	0.7992	0.063
Mof_C 	C 	0.88506	0.0714	0.1305	-0.174
Mof_H 	H 	0.8803	0.0871	0.1559	0.088
Mof_C 	C 	0.871	0.4133	0.4016	0.381
Mof_C 	C 	0.92198	0.1426	0.2179	-0.154
Mof_H 	H 	0.9194	0.147	0.2491	0.085
Mof_C 	C 	0.1086	0.9047	0.7748	0.054
Mof_H 	H 	0.1195	0.9053	0.7583	0.019
Mof_C 	C 	0.88223	0.3798	0.3749	-0.19
Mof_C 	C 	0.0792	0.874	0.7771	0.019
Mof_H 	H 	0.0704	0.8521	0.77	0.04
Mof_C 	C 	0.88689	0.3944	0.1795	0.179
Mof_C 	C 	0.99397	0.1794	0.2041	0.005
Mof_H 	H 	0.002	0.1553	0.1975	0.029
Mof_C 	C 	0.89854	0.0286	0.0565	0.081
Mof_H 	H 	0.9032	0.0133	0.0308	0.014
Mof_C 	C 	0.00958	0.2421	0.0279	-0.159
Mof_H 	H 	0.0028	0.2309	0.0032	0.086
Mof_C 	C 	0.05539	0.254	0.2068	-0.096
Mof_C 	C 	0.95421	0.2752	0.1014	-0.171
Mof_H 	H 	0.9478	0.2759	0.1292	0.09
Mof_C 	C 	0.91199	0.1135	0.1938	0.037
Mof_H 	H 	0.9025	0.0974	0.2079	0.016
Mof_C 	C 	0.95412	0.2739	0.0234	-0.171
Mof_H 	H 	0.9475	0.2734	0.996	0.089
Mof_C 	C 	0.87037	0.9926	0.0408	0.321
Mof_C 	C 	0.9744	0.1716	0.2063	-0.141
Mof_H 	H 	0.9696	0.1425	0.1995	0.082
Mof_C 	C 	0.88079	0.1187	0.9611	-0.169
Mof_H 	H 	0.885	0.1062	0.9887	0.091
Mof_C 	C 	0.90945	0.0568	0.0821	-0.175
Mof_H 	H 	0.9214	0.0622	0.0729	0.09
Mof_C 	C 	0.87471	0.0442	0.1046	0.107
Mof_H 	H 	0.8626	0.0407	0.113	0.01
Mof_C 	C 	0.97028	0.25	0.2226	-0.143
Mof_H 	H 	0.9624	0.2747	0.2278	0.082
Mof_C 	C 	0.01215	0.2821	0.0958	-0.155
Mof_H 	H 	0.0066	0.2993	0.1191	0.083
Mof_N 	N 	0.08708	0.0077	0.8754	-0.085
Mof_N 	N 	0.08256	0.1405	0.9877	-0.215
Mof_N 	N 	0.06694	0.0523	0.8475	-0.084
Mof_N 	N 	0.09993	0.9894	0.9024	-0.233
Mof_H 	H 	0.1047	0.963	0.8954	0.144
Mof_H 	H 	0.1034	0.004	0.9268	0.14
Mof_N 	N 	0.0982	0.8673	0.7696	-0.202
Mof_N 	N 	0.06802	0.0187	0.8184	-0.086
Mof_N 	N 	0.92593	0.2831	0.0602	-0.191
Mof_N 	N 	0.94519	0.1993	0.2229	-0.195
Mof_O 	O 	0.87425	0.9732	0.0071	-0.405
Mof_O 	O 	0.85494	0.5237	0.255	-0.44
Mof_O 	O 	0.84815	0.463	0.2978	-0.407
Mof_O 	O 	0.08519	0.2454	0.177	-0.389
Mof_O 	O 	0.85787	0.0367	0.8633	-0.397
Mof_O 	O 	0.07962	0.2985	0.2298	-0.418
Mof_O 	O 	0.84471	0.0977	0.8335	-0.405
Mof_O 	O 	0.86728	0.4514	0.3865	-0.394
Mof_O 	O 	0.866	0.4007	0.4408	-0.418
Mof_O 	O 	0.0662	0.2544	0.0969	-0.429
Mof_O 	O 	0.85255	0.9846	0.0571	-0.262
Mof_O 	O 	0.06371	0.2172	0.0344	-0.472
Mof_Cu	Cu	0.08695	0.19067	0.034	0.925
Mof_Cu	Cu	0.10446	0.31361	0.2361	0.934
Mof_Cu	Cu	0.093	0.27168	0.11606	0.919
Mof_C 	C 	0.92972	0.6271	0.6283	0.044
Mof_H 	H 	0.9331	0.6203	0.598	0.011
Mof_C 	C 	0.86523	0.9076	0.7359	0.139
Mof_H 	H 	0.8572	0.8952	0.7575	-0.003
Mof_C 	C 	0.9394	0.658	0.653	-0.162
Mof_H 	H 	0.9488	0.6741	0.6386	0.087
Mof_C 	C 	0.91992	0.706	0.5297	-0.153
Mof_H 	H 	0.9296	0.693	0.5461	0.083
Mof_C 	C 	0.87164	0.5917	0.4314	0.106
Mof_H 	H 	0.87	0.5605	0.4389	0.011
Mof_C 	C 	0.866	0.6543	0.3845	0.083
Mof_H 	H 	0.8598	0.667	0.3594	0.02
Mof_C 	C 	0.91699	0.8101	0.5893	0.21
Mof_C 	C 	0.85578	0.9834	0.765	0.41
Mof_C 	C 	0.87956	0.9667	0.7084	0.177
Mof_H 	H 	0.8824	0.9983	0.7095	-0.013
Mof_C 	C 	0.91636	0.7488	0.5352	0.128
Mof_C 	C 	0.94574	0.777	0.5618	0.161
Mof_C 	C 	0.85537	0.5785	0.3625	0.377
Mof_C 	C 	0.92234	0.8497	0.6019	-0.241
Mof_H 	H 	0.9333	0.8601	0.5899	0.114
Mof_C 	C 	0.05049	0.7141	0.6862	0.028
Mof_H 	H 	0.0591	0.6948	0.6726	0.041
Mof_C 	C 	0.0867	0.4514	0.311	0.035
Mof_C 	C 	0.03793	0.7501	0.5638	-0.162
Mof_C 	C 	0.03016	0.7751	0.5982	0.086
Mof_H 	H 	0.037	0.7869	0.6225	0.013
Mof_C 	C 	0.88717	0.8411	0.8958	0.118
Mof_H 	H 	0.8836	0.8341	0.9258	0.009
Mof_C 	C 	0.90105	0.7943	0.6102	-0.212
Mof_H 	H 	0.8969	0.7643	0.6042	0.104
Mof_C 	C 	0.87436	0.8769	0.7079	-0.221
Mof_H 	H 	0.8719	0.8452	0.7087	0.105
Mof_C 	C 	0.88897	0.9417	0.6798	-0.241
Mof_H 	H 	0.8971	0.9558	0.6596	0.113
Mof_C 	C 	0.02015	0.7342	0.7089	0.076
Mof_C 	C 	0.87596	0.6823	0.4127	-0.149
Mof_H 	H 	0.8772	0.7137	0.4056	0.088
Mof_C 	C 	0.86695	0.9529	0.7349	-0.221
Mof_C 	C 	0.89471	0.6932	0.4799	-0.067
Mof_C 	C 	0.89811	0.8117	0.8697	-0.202
Mof_H 	H 	0.9017	0.7831	0.8816	0.102
Mof_C 	C 	0.90338	0.8244	0.8276	0.181
Mof_C 	C 	0.02866	0.7336	0.529	0.081
Mof_H 	H 	0.0344	0.7169	0.5056	0.018
Mof_C 	C 	0.03147	0.7022	0.686	-0.106
Mof_H 	H 	0.027	0.6755	0.6718	0.069
Mof_C 	C 	0.91468	0.7903	0.7995	-0.141
Mof_C 	C 	0.93599	0.6667	0.6981	0.147
Mof_C 	C 	0.89832	0.8618	0.8091	-0.229
Mof_H 	H 	0.9015	0.869	0.7788	0.115
Mof_C 	C 	0.07161	0.6499	0.4526	0.062
Mof_H 	H 	0.0652	0.6778	0.4513	0.009
Mof_C 	C 	0.91357	0.878	0.6309	0.109
Mof_H 	H 	0.9188	0.9066	0.6379	-0.008
Mof_C 	C 	0.07987	0.4906	0.3362	0.088
Mof_C 	C 	0.07546	0.7687	0.703	0.345
Mof_C 	C 	0.00138	0.7649	0.5603	0.117
Mof_C 	C 	0.09133	0.6026	0.489	0.107
Mof_H 	H 	0.0993	0.5972	0.5134	-0.002
Mof_C 	C 	0.88025	0.5226	0.569	-0.17
Mof_C 	C 	0.04455	0.7788	0.7321	0.042
Mof_H 	H 	0.049	0.8026	0.7506	0.03
Mof_C 	C 	0.05818	0.7399	0.5639	0.462
Mof_C 	C 	0.90338	0.5757	0.618	0.125
Mof_C 	C 	0.86503	0.6066	0.393	-0.172
Mof_C 	C 	0.93504	0.73	0.749	0.221
Mof_C 	C 	0.91176	0.7819	0.7549	0.141
Mof_H 	H 	0.9022	0.7974	0.7407	-0.018
Mof_C 	C 	0.07912	0.5767	0.4199	0.07
Mof_C 	C 	2e-05	0.7221	0.7118	-0.042
Mof_C 	C 	0.08962	0.5717	0.4577	-0.142
Mof_H 	H 	0.096	0.544	0.4612	0.086
Mof_C 	C 	0.88407	0.6648	0.4511	0.11
Mof_C 	C 	0.96371	0.7061	0.7181	0.14
Mof_C 	C 	0.06986	0.6164	0.4175	-0.117
Mof_H 	H 	0.0622	0.6221	0.3926	0.081
Mof_C 	C 	0.89218	0.8208	0.6376	0.093
Mof_H 	H 	0.8814	0.8093	0.6502	-0.004
Mof_C 	C 	0.07766	0.5482	0.3829	0.071
Mof_C 	C 	0.91566	0.6067	0.6466	-0.076
Mof_C 	C 	0.93805	0.7369	0.7908	-0.248
Mof_H 	H 	0.9479	0.7211	0.8034	0.115
Mof_C 	C 	0.92094	0.755	0.731	-0.251
Mof_H 	H 	0.9181	0.7517	0.6999	0.117
Mof_C 	C 	0.97339	0.772	0.6008	0.046
Mof_H 	H 	0.9797	0.773	0.6286	0.017
Mof_C 	C 	0.91009	0.6779	0.5003	0.028
Mof_H 	H 	0.9141	0.6479	0.4944	0.022
Mof_C 	C 	0.02619	0.7689	0.7309	-0.128
Mof_H 	H 	0.0181	0.7882	0.7465	0.073
Mof_C 	C 	0.90065	0.7693	0.5103	-0.131
Mof_H 	H 	0.898	0.8009	0.5118	0.078
Mof_C 	C 	0.89103	0.7408	0.4868	0.027
Mof_H 	H 	0.8806	0.7527	0.4728	0.021
Mof_C 	C 	0.1047	0.4444	0.3035	-0.097
Mof_H 	H 	0.1138	0.4635	0.3158	0.083
Mof_C 	C 	0.97237	0.7713	0.5219	0.046
Mof_H 	H 	0.9785	0.7717	0.4937	0.014
Mof_C 	C 	0.88797	0.8914	0.8348	0.142
Mof_H 	H 	0.885	0.9205	0.823	0.003
Mof_C 	C 	0.92887	0.764	0.8191	0.109
Mof_H 	H 	0.9316	0.7656	0.8504	-0.009
Mof_C 	C 	0.89762	0.867	0.6504	-0.139
Mof_C 	C 	0.98221	0.768	0.5638	-0.085
Mof_C 	C 	0.9885	0.7578	0.7194	0.012
Mof_H 	H 	0.993	0.7878	0.7225	0.022
Mof_C 	C 	0.0756	0.4169	0.296	-0.077
Mof_H 	H 	0.0632	0.4233	0.2992	0.063
Mof_C 	C 	0.88506	0.5714	0.6305	-0.177
Mof_H 	H 	0.8803	0.5871	0.6559	0.089
Mof_C 	C 	0.871	0.9133	0.9016	0.381
Mof_C 	C 	0.92198	0.6426	0.7179	-0.155
Mof_H 	H 	0.9194	0.647	0.7491	0.085
Mof_C 	C 	0.1086	0.4047	0.2748	0.054
Mof_H 	H 	0.1195	0.4053	0.2583	0.019
Mof_C 	C 	0.88223	0.8798	0.8749	-0.191
Mof_C 	C 	0.0792	0.374	0.2771	0.019
Mof_H 	H 	0.0704	0.3521	0.27	0.04
Mof_C 	C 	0.88689	0.8944	0.6795	0.179
Mof_C 	C 	0.99397	0.6794	0.7041	0.005
Mof_H 	H 	0.002	0.6553	0.6975	0.028
Mof_C 	C 	0.89854	0.5286	0.5565	0.082
Mof_H 	H 	0.9032	0.5133	0.5308	0.011
Mof_C 	C 	0.00958	0.7421	0.5279	-0.158
Mof_H 	H 	0.0028	0.7309	0.5032	0.084
Mof_C 	C 	0.05539	0.754	0.7068	-0.096
Mof_C 	C 	0.95421	0.7752	0.6014	-0.172
Mof_H 	H 	0.9478	0.7759	0.6292	0.09
Mof_C 	C 	0.91199	0.6135	0.6938	0.037
Mof_H 	H 	0.9025	0.5974	0.7079	0.015
Mof_C 	C 	0.95412	0.7739	0.5234	-0.179
Mof_H 	H 	0.9475	0.7734	0.496	0.096
Mof_C 	C 	0.87037	0.4926	0.5408	0.323
Mof_C 	C 	0.9744	0.6716	0.7063	-0.142
Mof_H 	H 	0.9696	0.6425	0.6995	0.082
Mof_C 	C 	0.88079	0.6187	0.4611	-0.165
Mof_H 	H 	0.885	0.6062	0.4887	0.091
Mof_C 	C 	0.90945	0.5568	0.5821	-0.178
Mof_H 	H 	0.9214	0.5622	0.5729	0.09
Mof_C 	C 	0.87471	0.5442	0.6046	0.11
Mof_H 	H 	0.8626	0.5407	0.613	0.008
Mof_C 	C 	0.97028	0.75	0.7226	-0.143
Mof_H 	H 	0.9624	0.7747	0.7278	0.082
Mof_C 	C 	0.01215	0.7821	0.5958	-0.154
Mof_H 	H 	0.0066	0.7993	0.6191	0.082
Mof_N 	N 	0.08708	0.5077	0.3754	-0.085
Mof_N 	N 	0.08256	0.6405	0.4877	-0.216
Mof_N 	N 	0.06694	0.5523	0.3475	-0.084
Mof_N 	N 	0.09993	0.4894	0.4024	-0.232
Mof_H 	H 	0.1047	0.463	0.3954	0.144
Mof_H 	H 	0.1034	0.504	0.4268	0.14
Mof_N 	N 	0.0982	0.3673	0.2696	-0.202
Mof_N 	N 	0.06802	0.5187	0.3184	-0.087
Mof_N 	N 	0.92593	0.7831	0.5602	-0.191
Mof_N 	N 	0.94519	0.6993	0.7229	-0.195
Mof_O 	O 	0.87425	0.4732	0.5071	-0.409
Mof_O 	O 	0.85494	0.0237	0.755	-0.439
Mof_O 	O 	0.84815	0.963	0.7978	-0.407
Mof_O 	O 	0.08519	0.7454	0.677	-0.389
Mof_O 	O 	0.85787	0.5367	0.3633	-0.397
Mof_O 	O 	0.07962	0.7985	0.7298	-0.418
Mof_O 	O 	0.84471	0.5977	0.3335	-0.405
Mof_O 	O 	0.86728	0.9514	0.8865	-0.395
Mof_O 	O 	0.866	0.9007	0.9408	-0.42
Mof_O 	O 	0.0662	0.7544	0.5969	-0.43
Mof_O 	O 	0.85255	0.4846	0.5571	-0.264
Mof_O 	O 	0.06371	0.7172	0.5344	-0.473
Mof_Cu	Cu	0.08695	0.69067	0.534	0.924
Mof_Cu	Cu	0.10446	0.81361	0.7361	0.934
Mof_Cu	Cu	0.093	0.77168	0.61606	0.919
Mof_C 	C 	0.42972	0.1271	0.6283	0.043
Mof_H 	H 	0.4331	0.1203	0.598	0.011
Mof_C 	C 	0.36523	0.4076	0.7359	0.139
Mof_H 	H 	0.3572	0.3952	0.7575	-0.003
Mof_C 	C 	0.4394	0.158	0.653	-0.162
Mof_H 	H 	0.4488	0.1741	0.6386	0.087
Mof_C 	C 	0.41992	0.206	0.5297	-0.153
Mof_H 	H 	0.4296	0.193	0.5461	0.083
Mof_C 	C 	0.37164	0.0917	0.4314	0.106
Mof_H 	H 	0.37	0.0605	0.4389	0.011
Mof_C 	C 	0.366	0.1543	0.3845	0.083
Mof_H 	H 	0.3598	0.167	0.3594	0.02
Mof_C 	C 	0.41699	0.3101	0.5893	0.21
Mof_C 	C 	0.35578	0.4834	0.765	0.412
Mof_C 	C 	0.37956	0.4667	0.7084	0.178
Mof_H 	H 	0.3824	0.4983	0.7095	-0.013
Mof_C 	C 	0.41636	0.2488	0.5352	0.128
Mof_C 	C 	0.44574	0.277	0.5618	0.161
Mof_C 	C 	0.35537	0.0785	0.3625	0.377
Mof_C 	C 	0.42234	0.3497	0.6019	-0.241
Mof_H 	H 	0.4333	0.3601	0.5899	0.114
Mof_C 	C 	0.55049	0.2141	0.6862	0.028
Mof_H 	H 	0.5591	0.1948	0.6726	0.041
Mof_C 	C 	0.5867	0.9514	0.311	0.036
Mof_C 	C 	0.53793	0.2501	0.5638	-0.162
Mof_C 	C 	0.53016	0.2751	0.5982	0.087
Mof_H 	H 	0.537	0.2869	0.6225	0.013
Mof_C 	C 	0.38717	0.3411	0.8958	0.118
Mof_H 	H 	0.3836	0.3341	0.9258	0.009
Mof_C 	C 	0.40105	0.2943	0.6102	-0.212
Mof_H 	H 	0.3969	0.2643	0.6042	0.104
Mof_C 	C 	0.37436	0.3769	0.7079	-0.222
Mof_H 	H 	0.3719	0.3452	0.7087	0.105
Mof_C 	C 	0.38897	0.4417	0.6798	-0.242
Mof_H 	H 	0.3971	0.4558	0.6596	0.113
Mof_C 	C 	0.52015	0.2342	0.7089	0.076
Mof_C 	C 	0.37596	0.1823	0.4127	-0.149
Mof_H 	H 	0.3772	0.2137	0.4056	0.088
Mof_C 	C 	0.36695	0.4529	0.7349	-0.222
Mof_C 	C 	0.39471	0.1932	0.4799	-0.067
Mof_C 	C 	0.39811	0.3117	0.8697	-0.202
Mof_H 	H 	0.4017	0.2831	0.8816	0.102
Mof_C 	C 	0.40338	0.3244	0.8276	0.181
Mof_C 	C 	0.52866	0.2336	0.529	0.081
Mof_H 	H 	0.5344	0.2169	0.5056	0.018
Mof_C 	C 	0.53147	0.2022	0.686	-0.106
Mof_H 	H 	0.527	0.1755	0.6718	0.069
Mof_C 	C 	0.41468	0.2903	0.7995	-0.141
Mof_C 	C 	0.43599	0.1667	0.6981	0.147
Mof_C 	C 	0.39832	0.3618	0.8091	-0.229
Mof_H 	H 	0.4015	0.369	0.7788	0.115
Mof_C 	C 	0.57161	0.1499	0.4526	0.062
Mof_H 	H 	0.5652	0.1778	0.4513	0.009
Mof_C 	C 	0.41357	0.378	0.6309	0.109
Mof_H 	H 	0.4188	0.4066	0.6379	-0.008
Mof_C 	C 	0.57987	0.9906	0.3362	0.086
Mof_C 	C 	0.57546	0.2687	0.703	0.345
Mof_C 	C 	0.50138	0.2649	0.5603	0.117
Mof_C 	C 	0.59133	0.1026	0.489	0.107
Mof_H 	H 	0.5993	0.0972	0.5134	-0.002
Mof_C 	C 	0.38025	0.0226	0.569	-0.168
Mof_C 	C 	0.54455	0.2788	0.7321	0.043
Mof_H 	H 	0.549	0.3026	0.7506	0.03
Mof_C 	C 	0.55818	0.2399	0.5639	0.462
Mof_C 	C 	0.40338	0.0757	0.618	0.124
Mof_C 	C 	0.36503	0.1066	0.393	-0.172
Mof_C 	C 	0.43504	0.23	0.749	0.221
Mof_C 	C 	0.41176	0.2819	0.7549	0.141
Mof_H 	H 	0.4022	0.2974	0.7407	-0.018
Mof_C 	C 	0.57912	0.0767	0.4199	0.07
Mof_C 	C 	0.50002	0.2221	0.7118	-0.042
Mof_C 	C 	0.58962	0.0717	0.4577	-0.142
Mof_H 	H 	0.596	0.044	0.4612	0.086
Mof_C 	C 	0.38407	0.1648	0.4511	0.11
Mof_C 	C 	0.46371	0.2061	0.7181	0.14
Mof_C 	C 	0.56986	0.1164	0.4175	-0.117
Mof_H 	H 	0.5622	0.1221	0.3926	0.081
Mof_C 	C 	0.39218	0.3208	0.6376	0.093
Mof_H 	H 	0.3814	0.3093	0.6502	-0.004
Mof_C 	C 	0.57766	0.0482	0.3829	0.071
Mof_C 	C 	0.41566	0.1067	0.6466	-0.076
Mof_C 	C 	0.43805	0.2369	0.7908	-0.248
Mof_H 	H 	0.4479	0.2211	0.8034	0.115
Mof_C 	C 	0.42094	0.255	0.731	-0.251
Mof_H 	H 	0.4181	0.2517	0.6999	0.117
Mof_C 	C 	0.47339	0.272	0.6008	0.046
Mof_H 	H 	0.4797	0.273	0.6286	0.017
Mof_C 	C 	0.41009	0.1779	0.5003	0.028
Mof_H 	H 	0.4141	0.1479	0.4944	0.022
Mof_C 	C 	0.52619	0.2689	0.7309	-0.128
Mof_H 	H 	0.5181	0.2882	0.7465	0.073
Mof_C 	C 	0.40065	0.2693	0.5103	-0.131
Mof_H 	H 	0.398	0.3009	0.5118	0.078
Mof_C 	C 	0.39103	0.2408	0.4868	0.027
Mof_H 	H 	0.3806	0.2527	0.4728	0.021
Mof_C 	C 	0.6047	0.9444	0.3035	-0.097
Mof_H 	H 	0.6138	0.9635	0.3158	0.083
Mof_C 	C 	0.47237	0.2713	0.5219	0.046
Mof_H 	H 	0.4785	0.2717	0.4937	0.014
Mof_C 	C 	0.38797	0.3914	0.8348	0.142
Mof_H 	H 	0.385	0.4205	0.823	0.003
Mof_C 	C 	0.42887	0.264	0.8191	0.109
Mof_H 	H 	0.4316	0.2656	0.8504	-0.009
Mof_C 	C 	0.39762	0.367	0.6504	-0.14
Mof_C 	C 	0.48221	0.268	0.5638	-0.085
Mof_C 	C 	0.4885	0.2578	0.7194	0.012
Mof_H 	H 	0.493	0.2878	0.7225	0.022
Mof_C 	C 	0.5756	0.9169	0.296	-0.077
Mof_H 	H 	0.5632	0.9233	0.2992	0.063
Mof_C 	C 	0.38506	0.0714	0.6305	-0.176
Mof_H 	H 	0.3803	0.0871	0.6559	0.088
Mof_C 	C 	0.371	0.4133	0.9016	0.381
Mof_C 	C 	0.42198	0.1426	0.7179	-0.155
Mof_H 	H 	0.4194	0.147	0.7491	0.085
Mof_C 	C 	0.6086	0.9047	0.2748	0.054
Mof_H 	H 	0.6195	0.9053	0.2583	0.019
Mof_C 	C 	0.38223	0.3798	0.8749	-0.191
Mof_C 	C 	0.5792	0.874	0.2771	0.019
Mof_H 	H 	0.5704	0.8521	0.27	0.04
Mof_C 	C 	0.38689	0.3944	0.6795	0.179
Mof_C 	C 	0.49397	0.1794	0.7041	0.005
Mof_H 	H 	0.502	0.1553	0.6975	0.029
Mof_C 	C 	0.39854	0.0286	0.5565	0.081
Mof_H 	H 	0.4032	0.0133	0.5308	0.012
Mof_C 	C 	0.50958	0.2421	0.5279	-0.158
Mof_H 	H 	0.5028	0.2309	0.5032	0.084
Mof_C 	C 	0.55539	0.254	0.7068	-0.096
Mof_C 	C 	0.45421	0.2752	0.6014	-0.172
Mof_H 	H 	0.4478	0.2759	0.6292	0.09
Mof_C 	C 	0.41199	0.1135	0.6938	0.037
Mof_H 	H 	0.4025	0.0974	0.7079	0.016
Mof_C 	C 	0.45412	0.2739	0.5234	-0.179
Mof_H 	H 	0.4475	0.2734	0.496	0.096
Mof_C 	C 	0.37037	0.9926	0.5408	0.322
Mof_C 	C 	0.4744	0.1716	0.7063	-0.142
Mof_H 	H 	0.4696	0.1425	0.6995	0.082
Mof_C 	C 	0.38079	0.1187	0.4611	-0.165
Mof_H 	H 	0.385	0.1062	0.4887	0.091
Mof_C 	C 	0.40945	0.0568	0.5821	-0.177
Mof_H 	H 	0.4214	0.0622	0.5729	0.089
Mof_C 	C 	0.37471	0.0442	0.6046	0.109
Mof_H 	H 	0.3626	0.0407	0.613	0.009
Mof_C 	C 	0.47028	0.25	0.7226	-0.143
Mof_H 	H 	0.4624	0.2747	0.7278	0.082
Mof_C 	C 	0.51215	0.2821	0.5958	-0.154
Mof_H 	H 	0.5066	0.2993	0.6191	0.082
Mof_N 	N 	0.58708	0.0077	0.3754	-0.085
Mof_N 	N 	0.58256	0.1405	0.4877	-0.216
Mof_N 	N 	0.56694	0.0523	0.3475	-0.084
Mof_N 	N 	0.59993	0.9894	0.4024	-0.233
Mof_H 	H 	0.6047	0.963	0.3954	0.144
Mof_H 	H 	0.6034	0.004	0.4268	0.141
Mof_N 	N 	0.5982	0.8673	0.2696	-0.202
Mof_N 	N 	0.56802	0.0187	0.3184	-0.086
Mof_N 	N 	0.42593	0.2831	0.5602	-0.191
Mof_N 	N 	0.44519	0.1993	0.7229	-0.195
Mof_O 	O 	0.37425	0.9732	0.5071	-0.409
Mof_O 	O 	0.35494	0.5237	0.755	-0.44
Mof_O 	O 	0.34815	0.463	0.7978	-0.407
Mof_O 	O 	0.58519	0.2454	0.677	-0.389
Mof_O 	O 	0.35787	0.0367	0.3633	-0.397
Mof_O 	O 	0.57962	0.2985	0.7298	-0.418
Mof_O 	O 	0.34471	0.0977	0.3335	-0.405
Mof_O 	O 	0.36728	0.4514	0.8865	-0.394
Mof_O 	O 	0.366	0.4007	0.9408	-0.42
Mof_O 	O 	0.5662	0.2544	0.5969	-0.43
Mof_O 	O 	0.35255	0.9846	0.5571	-0.264
Mof_O 	O 	0.56371	0.2172	0.5344	-0.473
Mof_Cu	Cu	0.58695	0.19067	0.534	0.924
Mof_Cu	Cu	0.60446	0.31361	0.7361	0.934
Mof_Cu	Cu	0.593	0.27168	0.61606	0.919
Mof_C 	C 	0.42972	0.6271	0.1283	0.043
Mof_H 	H 	0.4331	0.6203	0.098	0.011
Mof_C 	C 	0.36523	0.9076	0.2359	0.139
Mof_H 	H 	0.3572	0.8952	0.2575	-0.003
Mof_C 	C 	0.4394	0.658	0.153	-0.162
Mof_H 	H 	0.4488	0.6741	0.1386	0.087
Mof_C 	C 	0.41992	0.706	0.0297	-0.164
Mof_H 	H 	0.4296	0.693	0.0461	0.088
Mof_C 	C 	0.37164	0.5917	0.9314	0.109
Mof_H 	H 	0.37	0.5605	0.9389	0.009
Mof_C 	C 	0.366	0.6543	0.8845	0.085
Mof_H 	H 	0.3598	0.667	0.8594	0.019
Mof_C 	C 	0.41699	0.8101	0.0893	0.21
Mof_C 	C 	0.35578	0.9834	0.265	0.41
Mof_C 	C 	0.37956	0.9667	0.2084	0.177
Mof_H 	H 	0.3824	0.9983	0.2095	-0.013
Mof_C 	C 	0.41636	0.7488	0.0352	0.133
Mof_C 	C 	0.44574	0.777	0.0618	0.159
Mof_C 	C 	0.35537	0.5785	0.8625	0.378
Mof_C 	C 	0.42234	0.8497	0.1019	-0.241
Mof_H 	H 	0.4333	0.8601	0.0899	0.115
Mof_C 	C 	0.55049	0.7141	0.1862	0.029
Mof_H 	H 	0.5591	0.6948	0.1726	0.041
Mof_C 	C 	0.5867	0.4514	0.811	0.035
Mof_C 	C 	0.53793	0.7501	0.0638	-0.162
Mof_C 	C 	0.53016	0.7751	0.0982	0.087
Mof_H 	H 	0.537	0.7869	0.1225	0.013
Mof_C 	C 	0.38717	0.8411	0.3958	0.118
Mof_H 	H 	0.3836	0.8341	0.4258	0.01
Mof_C 	C 	0.40105	0.7943	0.1102	-0.212
Mof_H 	H 	0.3969	0.7643	0.1042	0.104
Mof_C 	C 	0.37436	0.8769	0.2079	-0.221
Mof_H 	H 	0.3719	0.8452	0.2087	0.105
Mof_C 	C 	0.38897	0.9417	0.1798	-0.241
Mof_H 	H 	0.3971	0.9558	0.1596	0.114
Mof_C 	C 	0.52015	0.7342	0.2089	0.076
Mof_C 	C 	0.37596	0.6823	0.9127	-0.154
Mof_H 	H 	0.3772	0.7137	0.9056	0.09
Mof_C 	C 	0.36695	0.9529	0.2349	-0.221
Mof_C 	C 	0.39471	0.6932	0.9799	-0.081
Mof_C 	C 	0.39811	0.8117	0.3697	-0.201
Mof_H 	H 	0.4017	0.7831	0.3816	0.102
Mof_C 	C 	0.40338	0.8244	0.3276	0.18
Mof_C 	C 	0.52866	0.7336	0.029	0.082
Mof_H 	H 	0.5344	0.7169	0.0056	0.019
Mof_C 	C 	0.53147	0.7022	0.186	-0.106
Mof_H 	H 	0.527	0.6755	0.1718	0.069
Mof_C 	C 	0.41468	0.7903	0.2995	-0.141
Mof_C 	C 	0.43599	0.6667	0.1981	0.147
Mof_C 	C 	0.39832	0.8618	0.3091	-0.228
Mof_H 	H 	0.4015	0.869	0.2788	0.115
Mof_C 	C 	0.57161	0.6499	0.9526	0.059
Mof_H 	H 	0.5652	0.6778	0.9513	0.008
Mof_C 	C 	0.41357	0.878	0.1309	0.11
Mof_H 	H 	0.4188	0.9066	0.1379	-0.008
Mof_C 	C 	0.57987	0.4906	0.8362	0.088
Mof_C 	C 	0.57546	0.7687	0.203	0.345
Mof_C 	C 	0.50138	0.7649	0.0603	0.119
Mof_C 	C 	0.59133	0.6026	0.989	0.09
Mof_H 	H 	0.5993	0.5972	0.0134	0.007
Mof_C 	C 	0.38025	0.5226	0.069	-0.168
Mof_C 	C 	0.54455	0.7788	0.2321	0.043
Mof_H 	H 	0.549	0.8026	0.2506	0.03
Mof_C 	C 	0.55818	0.7399	0.0639	0.462
Mof_C 	C 	0.40338	0.5757	0.118	0.125
Mof_C 	C 	0.36503	0.6066	0.893	-0.175
Mof_C 	C 	0.43504	0.73	0.249	0.221
Mof_C 	C 	0.41176	0.7819	0.2549	0.14
Mof_H 	H 	0.4022	0.7974	0.2407	-0.018
Mof_C 	C 	0.57912	0.5767	0.9199	0.064
Mof_C 	C 	0.50002	0.7221	0.2118	-0.042
Mof_C 	C 	0.58962	0.5717	0.9577	-0.131
Mof_H 	H 	0.596	0.544	0.9612	0.08
Mof_C 	C 	0.38407	0.6648	0.9511	0.117
Mof_C 	C 	0.46371	0.7061	0.2181	0.14
Mof_C 	C 	0.56986	0.6164	0.9175	-0.114
Mof_H 	H 	0.5622	0.6221	0.8926	0.079
Mof_C 	C 	0.39218	0.8208	0.1376	0.093
Mof_H 	H 	0.3814	0.8093	0.1502	-0.004
Mof_C 	C 	0.57766	0.5482	0.8829	0.072
Mof_C 	C 	0.41566	0.6067	0.1466	-0.076
Mof_C 	C 	0.43805	0.7369	0.2908	-0.248
Mof_H 	H 	0.4479	0.7211	0.3034	0.116
Mof_C 	C 	0.42094	0.755	0.231	-0.251
Mof_H 	H 	0.4181	0.7517	0.1999	0.117
Mof_C 	C 	0.47339	0.772	0.1008	0.047
Mof_H 	H 	0.4797	0.773	0.1286	0.017
Mof_C 	C 	0.41009	0.6779	0.0003	0.053
Mof_H 	H 	0.4141	0.6479	0.9944	0.01
Mof_C 	C 	0.52619	0.7689	0.2309	-0.128
Mof_H 	H 	0.5181	0.7882	0.2465	0.073
Mof_C 	C 	0.40065	0.7693	0.0103	-0.127
Mof_H 	H 	0.398	0.8009	0.0118	0.078
Mof_C 	C 	0.39103	0.7408	0.9868	0.024
Mof_H 	H 	0.3806	0.7527	0.9728	0.021
Mof_C 	C 	0.6047	0.4444	0.8035	-0.097
Mof_H 	H 	0.6138	0.4635	0.8158	0.083
Mof_C 	C 	0.47237	0.7713	0.0219	0.053
Mof_H 	H 	0.4785	0.7717	0.9937	0.007
Mof_C 	C 	0.38797	0.8914	0.3348	0.141
Mof_H 	H 	0.385	0.9205	0.323	0.003
Mof_C 	C 	0.42887	0.764	0.3191	0.109
Mof_H 	H 	0.4316	0.7656	0.3504	-0.008
Mof_C 	C 	0.39762	0.867	0.1504	-0.139
Mof_C 	C 	0.48221	0.768	0.0638	-0.088
Mof_C 	C 	0.4885	0.7578	0.2194	0.012
Mof_H 	H 	0.493	0.7878	0.2225	0.023
Mof_C 	C 	0.5756	0.4169	0.796	-0.077
Mof_H 	H 	0.5632	0.4233	0.7992	0.063
Mof_C 	C 	0.38506	0.5714	0.1305	-0.176
Mof_H 	H 	0.3803	0.5871	0.1559	0.089
Mof_C 	C 	0.371	0.9133	0.4016	0.381
Mof_C 	C 	0.42198	0.6426	0.2179	-0.154
Mof_H 	H 	0.4194	0.647	0.2491	0.085
Mof_C 	C 	0.6086	0.4047	0.7748	0.054
Mof_H 	H 	0.6195	0.4053	0.7583	0.019
Mof_C 	C 	0.38223	0.8798	0.3749	-0.19
Mof_C 	C 	0.5792	0.374	0.7771	0.018
Mof_H 	H 	0.5704	0.3521	0.77	0.04
Mof_C 	C 	0.38689	0.8944	0.1795	0.179
Mof_C 	C 	0.49397	0.6794	0.2041	0.005
Mof_H 	H 	0.502	0.6553	0.1975	0.029
Mof_C 	C 	0.39854	0.5286	0.0565	0.082
Mof_H 	H 	0.4032	0.5133	0.0308	0.013
Mof_C 	C 	0.50958	0.7421	0.0279	-0.159
Mof_H 	H 	0.5028	0.7309	0.0032	0.086
Mof_C 	C 	0.55539	0.754	0.2068	-0.096
Mof_C 	C 	0.45421	0.7752	0.1014	-0.171
Mof_H 	H 	0.4478	0.7759	0.1292	0.09
Mof_C 	C 	0.41199	0.6135	0.1938	0.037
Mof_H 	H 	0.4025	0.5974	0.2079	0.016
Mof_C 	C 	0.45412	0.7739	0.0234	-0.171
Mof_H 	H 	0.4475	0.7734	0.996	0.089
Mof_C 	C 	0.37037	0.4926	0.0408	0.323
Mof_C 	C 	0.4744	0.6716	0.2063	-0.141
Mof_H 	H 	0.4696	0.6425	0.1995	0.082
Mof_C 	C 	0.38079	0.6187	0.9611	-0.17
Mof_H 	H 	0.385	0.6062	0.9887	0.091
Mof_C 	C 	0.40945	0.5568	0.0821	-0.176
Mof_H 	H 	0.4214	0.5622	0.0729	0.09
Mof_C 	C 	0.37471	0.5442	0.1046	0.109
Mof_H 	H 	0.3626	0.5407	0.113	0.009
Mof_C 	C 	0.47028	0.75	0.2226	-0.143
Mof_H 	H 	0.4624	0.7747	0.2278	0.082
Mof_C 	C 	0.51215	0.7821	0.0958	-0.155
Mof_H 	H 	0.5066	0.7993	0.1191	0.083
Mof_N 	N 	0.58708	0.5077	0.8754	-0.086
Mof_N 	N 	0.58256	0.6405	0.9877	-0.215
Mof_N 	N 	0.56694	0.5523	0.8475	-0.084
Mof_N 	N 	0.59993	0.4894	0.9024	-0.232
Mof_H 	H 	0.6047	0.463	0.8954	0.144
Mof_H 	H 	0.6034	0.504	0.9268	0.139
Mof_N 	N 	0.5982	0.3673	0.7696	-0.202
Mof_N 	N 	0.56802	0.5187	0.8184	-0.087
Mof_N 	N 	0.42593	0.7831	0.0602	-0.191
Mof_N 	N 	0.44519	0.6993	0.2229	-0.195
Mof_O 	O 	0.37425	0.4732	0.0071	-0.405
Mof_O 	O 	0.35494	0.0237	0.255	-0.439
Mof_O 	O 	0.34815	0.963	0.2978	-0.407
Mof_O 	O 	0.58519	0.7454	0.177	-0.389
Mof_O 	O 	0.35787	0.5367	0.8633	-0.398
Mof_O 	O 	0.57962	0.7985	0.2298	-0.418
Mof_O 	O 	0.34471	0.5977	0.8335	-0.405
Mof_O 	O 	0.36728	0.9514	0.3865	-0.394
Mof_O 	O 	0.366	0.9007	0.4408	-0.418
Mof_O 	O 	0.5662	0.7544	0.0969	-0.429
Mof_O 	O 	0.35255	0.4846	0.0571	-0.262
Mof_O 	O 	0.56371	0.7172	0.0344	-0.472
Mof_Cu	Cu	0.58695	0.69067	0.034	0.925
Mof_Cu	Cu	0.60446	0.81361	0.2361	0.934
Mof_Cu	Cu	0.593	0.77168	0.11606	0.919
Mof_C 	C 	0.17972	0.1229	0.3783	0.044
Mof_H 	H 	0.1831	0.1297	0.348	0.011
Mof_C 	C 	0.11523	0.8424	0.4859	0.139
Mof_H 	H 	0.1072	0.8548	0.5075	-0.003
Mof_C 	C 	0.1894	0.092	0.403	-0.162
Mof_H 	H 	0.1988	0.0759	0.3886	0.087
Mof_C 	C 	0.16992	0.044	0.2797	-0.156
Mof_H 	H 	0.1796	0.057	0.2961	0.084
Mof_C 	C 	0.12164	0.1583	0.1814	0.107
Mof_H 	H 	0.12	0.1895	0.1889	0.01
Mof_C 	C 	0.116	0.0957	0.1345	0.084
Mof_H 	H 	0.1098	0.083	0.1094	0.02
Mof_C 	C 	0.16699	0.9399	0.3393	0.21
Mof_C 	C 	0.10578	0.7666	0.515	0.412
Mof_C 	C 	0.12956	0.7833	0.4584	0.178
Mof_H 	H 	0.1324	0.7517	0.4595	-0.013
Mof_C 	C 	0.16636	0.0012	0.2852	0.133
Mof_C 	C 	0.19574	0.973	0.3118	0.161
Mof_C 	C 	0.10537	0.1715	0.1125	0.377
Mof_C 	C 	0.17234	0.9003	0.3519	-0.241
Mof_H 	H 	0.1833	0.8899	0.3399	0.114
Mof_C 	C 	0.30049	0.0359	0.4362	0.031
Mof_H 	H 	0.3091	0.0552	0.4226	0.04
Mof_C 	C 	0.3367	0.2986	0.061	0.036
Mof_C 	C 	0.28793	0.9999	0.3138	-0.164
Mof_C 	C 	0.28016	0.9749	0.3482	0.088
Mof_H 	H 	0.287	0.9631	0.3725	0.013
Mof_C 	C 	0.13717	0.9089	0.6458	0.117
Mof_H 	H 	0.1336	0.9159	0.6758	0.01
Mof_C 	C 	0.15105	0.9557	0.3602	-0.213
Mof_H 	H 	0.1469	0.9857	0.3542	0.103
Mof_C 	C 	0.12436	0.8731	0.4579	-0.222
Mof_H 	H 	0.1219	0.9048	0.4587	0.105
Mof_C 	C 	0.13897	0.8083	0.4298	-0.242
Mof_H 	H 	0.1471	0.7942	0.4096	0.114
Mof_C 	C 	0.27015	0.0158	0.4589	0.078
Mof_C 	C 	0.12596	0.0677	0.1627	-0.151
Mof_H 	H 	0.1272	0.0363	0.1556	0.089
Mof_C 	C 	0.11695	0.7971	0.4849	-0.222
Mof_C 	C 	0.14471	0.0568	0.2299	-0.07
Mof_C 	C 	0.14811	0.9383	0.6197	-0.201
Mof_H 	H 	0.1517	0.9669	0.6316	0.102
Mof_C 	C 	0.15338	0.9256	0.5776	0.18
Mof_C 	C 	0.27866	0.0164	0.279	0.083
Mof_H 	H 	0.2844	0.0331	0.2556	0.017
Mof_C 	C 	0.28147	0.0478	0.436	-0.107
Mof_H 	H 	0.277	0.0745	0.4218	0.069
Mof_C 	C 	0.16468	0.9597	0.5495	-0.141
Mof_C 	C 	0.18599	0.0833	0.4481	0.147
Mof_C 	C 	0.14832	0.8882	0.5591	-0.228
Mof_H 	H 	0.1515	0.881	0.5288	0.115
Mof_C 	C 	0.32161	0.1001	0.2026	0.062
Mof_H 	H 	0.3152	0.0722	0.2013	0.009
Mof_C 	C 	0.16357	0.872	0.3809	0.11
Mof_H 	H 	0.1688	0.8434	0.3879	-0.008
Mof_C 	C 	0.32987	0.2594	0.0862	0.088
Mof_C 	C 	0.32546	0.9813	0.453	0.345
Mof_C 	C 	0.25138	0.9851	0.3103	0.116
Mof_C 	C 	0.34133	0.1474	0.239	0.107
Mof_H 	H 	0.3493	0.1528	0.2634	-0.002
Mof_C 	C 	0.13025	0.2274	0.319	-0.17
Mof_C 	C 	0.29455	0.9712	0.4821	0.044
Mof_H 	H 	0.299	0.9474	0.5006	0.029
Mof_C 	C 	0.30818	0.0101	0.3139	0.465
Mof_C 	C 	0.15338	0.1743	0.368	0.125
Mof_C 	C 	0.11503	0.1434	0.143	-0.173
Mof_C 	C 	0.18504	0.02	0.499	0.221
Mof_C 	C 	0.16176	0.9681	0.5049	0.141
Mof_H 	H 	0.1522	0.9526	0.4907	-0.018
Mof_C 	C 	0.32912	0.1733	0.1699	0.07
Mof_C 	C 	0.25002	0.0279	0.4618	-0.039
Mof_C 	C 	0.33962	0.1783	0.2077	-0.142
Mof_H 	H 	0.346	0.206	0.2112	0.086
Mof_C 	C 	0.13407	0.0852	0.2011	0.112
Mof_C 	C 	0.21371	0.0439	0.4681	0.138
Mof_C 	C 	0.31986	0.1336	0.1675	-0.117
Mof_H 	H 	0.3122	0.1279	0.1426	0.081
Mof_C 	C 	0.14218	0.9292	0.3876	0.093
Mof_H 	H 	0.1314	0.9407	0.4002	-0.004
Mof_C 	C 	0.32766	0.2018	0.1329	0.071
Mof_C 	C 	0.16566	0.1433	0.3966	-0.076
Mof_C 	C 	0.18805	0.0131	0.5408	-0.246
Mof_H 	H 	0.1979	0.0289	0.5534	0.115
Mof_C 	C 	0.17094	0.995	0.481	-0.252
Mof_H 	H 	0.1681	0.9983	0.4499	0.117
Mof_C 	C 	0.22339	0.978	0.3508	0.045
Mof_H 	H 	0.2297	0.977	0.3786	0.017
Mof_C 	C 	0.16009	0.0721	0.2503	0.031
Mof_H 	H 	0.1641	0.1021	0.2444	0.021
Mof_C 	C 	0.27619	0.9811	0.4809	-0.131
Mof_H 	H 	0.2681	0.9618	0.4965	0.073
Mof_C 	C 	0.15065	0.9807	0.2603	-0.138
Mof_H 	H 	0.148	0.9491	0.2618	0.08
Mof_C 	C 	0.14103	0.0092	0.2368	0.034
Mof_H 	H 	0.1306	0.9973	0.2228	0.018
Mof_C 	C 	0.3547	0.3056	0.0535	-0.096
Mof_H 	H 	0.3638	0.2865	0.0658	0.083
Mof_C 	C 	0.22237	0.9787	0.2719	0.046
Mof_H 	H 	0.2285	0.9783	0.2437	0.014
Mof_C 	C 	0.13797	0.8586	0.5848	0.141
Mof_H 	H 	0.135	0.8295	0.573	0.003
Mof_C 	C 	0.17887	0.986	0.5691	0.107
Mof_H 	H 	0.1816	0.9844	0.6004	-0.008
Mof_C 	C 	0.14762	0.883	0.4004	-0.14
Mof_C 	C 	0.23221	0.982	0.3138	-0.085
Mof_C 	C 	0.2385	0.9922	0.4694	0.007
Mof_H 	H 	0.243	0.9622	0.4725	0.024
Mof_C 	C 	0.3256	0.3331	0.046	-0.077
Mof_H 	H 	0.3132	0.3267	0.0492	0.064
Mof_C 	C 	0.13506	0.1786	0.3805	-0.177
Mof_H 	H 	0.1303	0.1629	0.4059	0.089
Mof_C 	C 	0.121	0.8367	0.6516	0.381
Mof_C 	C 	0.17198	0.1074	0.4679	-0.155
Mof_H 	H 	0.1694	0.103	0.4991	0.086
Mof_C 	C 	0.3586	0.3453	0.0248	0.054
Mof_H 	H 	0.3695	0.3447	0.0083	0.021
Mof_C 	C 	0.13223	0.8702	0.6249	-0.19
Mof_C 	C 	0.3292	0.376	0.0271	0.02
Mof_H 	H 	0.3204	0.3979	0.02	0.042
Mof_C 	C 	0.13689	0.8556	0.4295	0.179
Mof_C 	C 	0.24397	0.0706	0.4541	0.003
Mof_H 	H 	0.252	0.0947	0.4475	0.029
Mof_C 	C 	0.14854	0.2214	0.3065	0.083
Mof_H 	H 	0.1532	0.2367	0.2808	0.011
Mof_C 	C 	0.25958	0.0079	0.2779	-0.157
Mof_H 	H 	0.2528	0.0191	0.2532	0.085
Mof_C 	C 	0.30539	0.996	0.4568	-0.098
Mof_C 	C 	0.20421	0.9748	0.3514	-0.172
Mof_H 	H 	0.1978	0.9741	0.3792	0.09
Mof_C 	C 	0.16199	0.1365	0.4438	0.037
Mof_H 	H 	0.1525	0.1526	0.4579	0.016
Mof_C 	C 	0.20412	0.9761	0.2734	-0.179
Mof_H 	H 	0.1975	0.9766	0.246	0.096
Mof_C 	C 	0.12037	0.2574	0.2908	0.323
Mof_C 	C 	0.2244	0.0784	0.4563	-0.139
Mof_H 	H 	0.2196	0.1075	0.4495	0.082
Mof_C 	C 	0.13079	0.1313	0.2111	-0.166
Mof_H 	H 	0.135	0.1438	0.2387	0.091
Mof_C 	C 	0.15945	0.1932	0.3321	-0.178
Mof_H 	H 	0.1714	0.1878	0.3229	0.09
Mof_C 	C 	0.12471	0.2058	0.3546	0.11
Mof_H 	H 	0.1126	0.2093	0.363	0.008
Mof_C 	C 	0.22028	-6.19626e-33	0.4726	-0.138
Mof_H 	H 	0.2124	0.9753	0.4778	0.079
Mof_C 	C 	0.26215	0.9679	0.3458	-0.155
Mof_H 	H 	0.2566	0.9507	0.3691	0.083
Mof_N 	N 	0.33708	0.2423	0.1254	-0.085
Mof_N 	N 	0.33256	0.1095	0.2377	-0.216
Mof_N 	N 	0.31694	0.1977	0.0975	-0.083
Mof_N 	N 	0.34993	0.2606	0.1524	-0.232
Mof_H 	H 	0.3547	0.287	0.1454	0.144
Mof_H 	H 	0.3534	0.246	0.1768	0.14
Mof_N 	N 	0.3482	0.3827	0.0196	-0.2
Mof_N 	N 	0.31802	0.2313	0.0684	-0.086
Mof_N 	N 	0.17593	0.9669	0.3102	-0.191
Mof_N 	N 	0.19519	0.0507	0.4729	-0.195
Mof_O 	O 	0.12425	0.2768	0.2571	-0.409
Mof_O 	O 	0.10494	0.7263	0.505	-0.44
Mof_O 	O 	0.09815	0.787	0.5478	-0.407
Mof_O 	O 	0.33519	0.0046	0.427	-0.388
Mof_O 	O 	0.10787	0.2133	0.1133	-0.397
Mof_O 	O 	0.32962	0.9515	0.4798	-0.418
Mof_O 	O 	0.09471	0.1523	0.0835	-0.404
Mof_O 	O 	0.11728	0.7986	0.6365	-0.394
Mof_O 	O 	0.116	0.8493	0.6908	-0.418
Mof_O 	O 	0.3162	0.9956	0.3469	-0.431
Mof_O 	O 	0.10255	0.2654	0.3071	-0.264
Mof_O 	O 	0.31371	0.0328	0.2844	-0.474
Mof_Cu	Cu	0.33695	0.05933	0.284	0.924
Mof_Cu	Cu	0.35446	0.93639	0.4861	0.934
Mof_Cu	Cu	0.343	0.97832	0.36606	0.919
Mof_C 	C 	0.17972	0.6229	0.8783	0.044
Mof_H 	H 	0.1831	0.6297	0.848	0.011
Mof_C 	C 	0.11523	0.3424	0.9859	0.127
Mof_H 	H 	0.1072	0.3548	0.0075	0.005
Mof_C 	C 	0.1894	0.592	0.903	-0.162
Mof_H 	H 	0.1988	0.5759	0.8886	0.087
Mof_C 	C 	0.16992	0.544	0.7797	-0.153
Mof_H 	H 	0.1796	0.557	0.7961	0.083
Mof_C 	C 	0.12164	0.6583	0.6814	0.106
Mof_H 	H 	0.12	0.6895	0.6889	0.011
Mof_C 	C 	0.116	0.5957	0.6345	0.083
Mof_H 	H 	0.1098	0.583	0.6094	0.02
Mof_C 	C 	0.16699	0.4399	0.8393	0.209
Mof_C 	C 	0.10578	0.2666	0.015	0.415
Mof_C 	C 	0.12956	0.2833	0.9584	0.177
Mof_H 	H 	0.1324	0.2517	0.9595	-0.014
Mof_C 	C 	0.16636	0.5012	0.7852	0.128
Mof_C 	C 	0.19574	0.473	0.8118	0.161
Mof_C 	C 	0.10537	0.6715	0.6125	0.377
Mof_C 	C 	0.17234	0.4003	0.8519	-0.24
Mof_H 	H 	0.1833	0.3899	0.8399	0.114
Mof_C 	C 	0.30049	0.5359	0.9362	0.022
Mof_H 	H 	0.3091	0.5552	0.9226	0.043
Mof_C 	C 	0.3367	0.7986	0.561	0.035
Mof_C 	C 	0.28793	0.4999	0.8138	-0.162
Mof_C 	C 	0.28016	0.4749	0.8482	0.086
Mof_H 	H 	0.287	0.4631	0.8725	0.013
Mof_C 	C 	0.13717	0.4089	0.1458	0.125
Mof_H 	H 	0.1336	0.4159	0.1758	0.008
Mof_C 	C 	0.15105	0.4557	0.8602	-0.212
Mof_H 	H 	0.1469	0.4857	0.8542	0.103
Mof_C 	C 	0.12436	0.3731	0.9579	-0.216
Mof_H 	H 	0.1219	0.4048	0.9587	0.102
Mof_C 	C 	0.13897	0.3083	0.9298	-0.24
Mof_H 	H 	0.1471	0.2942	0.9096	0.112
Mof_C 	C 	0.27015	0.5158	0.9589	0.069
Mof_C 	C 	0.12596	0.5677	0.6627	-0.149
Mof_H 	H 	0.1272	0.5363	0.6556	0.088
Mof_C 	C 	0.11695	0.2971	0.9849	-0.223
Mof_C 	C 	0.14471	0.5568	0.7299	-0.067
Mof_C 	C 	0.14811	0.4383	0.1197	-0.21
Mof_H 	H 	0.1517	0.4669	0.1316	0.106
Mof_C 	C 	0.15338	0.4256	0.0776	0.194
Mof_C 	C 	0.27866	0.5164	0.779	0.081
Mof_H 	H 	0.2844	0.5331	0.7556	0.018
Mof_C 	C 	0.28147	0.5478	0.936	-0.101
Mof_H 	H 	0.277	0.5745	0.9218	0.067
Mof_C 	C 	0.16468	0.4597	0.0495	-0.161
Mof_C 	C 	0.18599	0.5833	0.9481	0.147
Mof_C 	C 	0.14832	0.3882	0.0591	-0.239
Mof_H 	H 	0.1515	0.381	0.0288	0.121
Mof_C 	C 	0.32161	0.6001	0.7026	0.062
Mof_H 	H 	0.3152	0.5722	0.7013	0.009
Mof_C 	C 	0.16357	0.372	0.8809	0.108
Mof_H 	H 	0.1688	0.3434	0.8879	-0.008
Mof_C 	C 	0.32987	0.7594	0.5862	0.088
Mof_C 	C 	0.32546	0.4813	0.953	0.342
Mof_C 	C 	0.25138	0.4851	0.8103	0.117
Mof_C 	C 	0.34133	0.6474	0.739	0.107
Mof_H 	H 	0.3493	0.6528	0.7634	-0.002
Mof_C 	C 	0.13025	0.7274	0.819	-0.17
Mof_C 	C 	0.29455	0.4712	0.9821	0.024
Mof_H 	H 	0.299	0.4474	0.0006	0.041
Mof_C 	C 	0.30818	0.5101	0.8139	0.462
Mof_C 	C 	0.15338	0.6743	0.868	0.125
Mof_C 	C 	0.11503	0.6434	0.643	-0.172
Mof_C 	C 	0.18504	0.52	0.999	0.23
Mof_C 	C 	0.16176	0.4681	0.0049	0.184
Mof_H 	H 	0.1522	0.4526	0.9907	-0.036
Mof_C 	C 	0.32912	0.6733	0.6699	0.07
Mof_C 	C 	0.25002	0.5279	0.9618	-0.039
Mof_C 	C 	0.33962	0.6783	0.7077	-0.142
Mof_H 	H 	0.346	0.706	0.7112	0.086
Mof_C 	C 	0.13407	0.5852	0.7011	0.11
Mof_C 	C 	0.21371	0.5439	0.9681	0.139
Mof_C 	C 	0.31986	0.6336	0.6675	-0.117
Mof_H 	H 	0.3122	0.6279	0.6426	0.081
Mof_C 	C 	0.14218	0.4292	0.8876	0.092
Mof_H 	H 	0.1314	0.4407	0.9002	-0.004
Mof_C 	C 	0.32766	0.7018	0.6329	0.071
Mof_C 	C 	0.16566	0.6433	0.8966	-0.076
Mof_C 	C 	0.18805	0.5131	0.0408	-0.254
Mof_H 	H 	0.1979	0.5289	0.0534	0.119
Mof_C 	C 	0.17094	0.495	0.981	-0.286
Mof_H 	H 	0.1681	0.4983	0.9499	0.128
Mof_C 	C 	0.22339	0.478	0.8508	0.045
Mof_H 	H 	0.2297	0.477	0.8786	0.017
Mof_C 	C 	0.16009	0.5721	0.7503	0.028
Mof_H 	H 	0.1641	0.6021	0.7444	0.022
Mof_C 	C 	0.27619	0.4811	0.9809	-0.117
Mof_H 	H 	0.2681	0.4618	0.9965	0.068
Mof_C 	C 	0.15065	0.4807	0.7603	-0.131
Mof_H 	H 	0.148	0.4491	0.7618	0.078
Mof_C 	C 	0.14103	0.5092	0.7368	0.027
Mof_H 	H 	0.1306	0.4973	0.7228	0.021
Mof_C 	C 	0.3547	0.8056	0.5535	-0.097
Mof_H 	H 	0.3638	0.7865	0.5658	0.083
Mof_C 	C 	0.22237	0.4787	0.7719	0.046
Mof_H 	H 	0.2285	0.4783	0.7437	0.014
Mof_C 	C 	0.13797	0.3586	0.0848	0.15
Mof_H 	H 	0.135	0.3295	0.073	0.001
Mof_C 	C 	0.17887	0.486	0.0691	0.121
Mof_H 	H 	0.1816	0.4844	0.1004	-0.012
Mof_C 	C 	0.14762	0.383	0.9004	-0.138
Mof_C 	C 	0.23221	0.482	0.8138	-0.085
Mof_C 	C 	0.2385	0.4922	0.9694	0.01
Mof_H 	H 	0.243	0.4622	0.9725	0.023
Mof_C 	C 	0.3256	0.8331	0.546	-0.077
Mof_H 	H 	0.3132	0.8267	0.5492	0.063
Mof_C 	C 	0.13506	0.6786	0.8805	-0.177
Mof_H 	H 	0.1303	0.6629	0.9059	0.088
Mof_C 	C 	0.121	0.3367	0.1516	0.383
Mof_C 	C 	0.17198	0.6074	0.9679	-0.155
Mof_H 	H 	0.1694	0.603	0.9991	0.084
Mof_C 	C 	0.3586	0.8453	0.5248	0.054
Mof_H 	H 	0.3695	0.8447	0.5083	0.019
Mof_C 	C 	0.13223	0.3702	0.1249	-0.196
Mof_C 	C 	0.3292	0.876	0.5271	0.019
Mof_H 	H 	0.3204	0.8979	0.52	0.04
Mof_C 	C 	0.13689	0.3556	0.9295	0.175
Mof_C 	C 	0.24397	0.5706	0.9541	0.003
Mof_H 	H 	0.252	0.5947	0.9475	0.029
Mof_C 	C 	0.14854	0.7214	0.8065	0.082
Mof_H 	H 	0.1532	0.7367	0.7808	0.011
Mof_C 	C 	0.25958	0.5079	0.7779	-0.158
Mof_H 	H 	0.2528	0.5191	0.7532	0.084
Mof_C 	C 	0.30539	0.496	0.9568	-0.087
Mof_C 	C 	0.20421	0.4748	0.8514	-0.172
Mof_H 	H 	0.1978	0.4741	0.8792	0.09
Mof_C 	C 	0.16199	0.6365	0.9438	0.037
Mof_H 	H 	0.1525	0.6526	0.9579	0.015
Mof_C 	C 	0.20412	0.4761	0.7734	-0.179
Mof_H 	H 	0.1975	0.4766	0.746	0.096
Mof_C 	C 	0.12037	0.7574	0.7908	0.323
Mof_C 	C 	0.2244	0.5784	0.9563	-0.141
Mof_H 	H 	0.2196	0.6075	0.9495	0.082
Mof_C 	C 	0.13079	0.6313	0.7111	-0.165
Mof_H 	H 	0.135	0.6438	0.7387	0.091
Mof_C 	C 	0.15945	0.6932	0.8321	-0.178
Mof_H 	H 	0.1714	0.6878	0.8229	0.09
Mof_C 	C 	0.12471	0.7058	0.8546	0.11
Mof_H 	H 	0.1126	0.7093	0.863	0.008
Mof_C 	C 	0.22028	0.5	0.9726	-0.143
Mof_H 	H 	0.2124	0.4753	0.9778	0.08
Mof_C 	C 	0.26215	0.4679	0.8458	-0.154
Mof_H 	H 	0.2566	0.4507	0.8691	0.082
Mof_N 	N 	0.33708	0.7423	0.6254	-0.085
Mof_N 	N 	0.33256	0.6095	0.7377	-0.216
Mof_N 	N 	0.31694	0.6977	0.5975	-0.084
Mof_N 	N 	0.34993	0.7606	0.6524	-0.232
Mof_H 	H 	0.3547	0.787	0.6454	0.144
Mof_H 	H 	0.3534	0.746	0.6768	0.14
Mof_N 	N 	0.3482	0.8827	0.5196	-0.202
Mof_N 	N 	0.31802	0.7313	0.5684	-0.087
Mof_N 	N 	0.17593	0.4669	0.8102	-0.19
Mof_N 	N 	0.19519	0.5507	0.9729	-0.197
Mof_O 	O 	0.12425	0.7768	0.7571	-0.409
Mof_O 	O 	0.10494	0.2263	0.005	-0.438
Mof_O 	O 	0.09815	0.287	0.0478	-0.407
Mof_O 	O 	0.33519	0.5046	0.927	-0.389
Mof_O 	O 	0.10787	0.7133	0.6133	-0.397
Mof_O 	O 	0.32962	0.4515	0.9798	-0.42
Mof_O 	O 	0.09471	0.6523	0.5835	-0.405
Mof_O 	O 	0.11728	0.2986	0.1365	-0.394
Mof_O 	O 	0.116	0.3493	0.1908	-0.418
Mof_O 	O 	0.3162	0.4956	0.8469	-0.43
Mof_O 	O 	0.10255	0.7654	0.8071	-0.264
Mof_O 	O 	0.31371	0.5328	0.7844	-0.473
Mof_Cu	Cu	0.33695	0.55933	0.784	0.924
Mof_Cu	Cu	0.35446	0.43639	0.9861	0.931
Mof_Cu	Cu	0.343	0.47832	0.86606	0.919
Mof_C 	C 	0.67972	0.1229	0.8783	0.044
Mof_H 	H 	0.6831	0.1297	0.848	0.011
Mof_C 	C 	0.61523	0.8424	0.9859	0.127
Mof_H 	H 	0.6072	0.8548	0.0075	0.005
Mof_C 	C 	0.6894	0.092	0.903	-0.162
Mof_H 	H 	0.6988	0.0759	0.8886	0.087
Mof_C 	C 	0.66992	0.044	0.7797	-0.156
Mof_H 	H 	0.6796	0.057	0.7961	0.084
Mof_C 	C 	0.62164	0.1583	0.6814	0.107
Mof_H 	H 	0.62	0.1895	0.6889	0.01
Mof_C 	C 	0.616	0.0957	0.6345	0.084
Mof_H 	H 	0.6098	0.083	0.6094	0.02
Mof_C 	C 	0.66699	0.9399	0.8393	0.209
Mof_C 	C 	0.60578	0.7666	0.015	0.415
Mof_C 	C 	0.62956	0.7833	0.9584	0.177
Mof_H 	H 	0.6324	0.7517	0.9595	-0.014
Mof_C 	C 	0.66636	0.0012	0.7852	0.132
Mof_C 	C 	0.69574	0.973	0.8118	0.161
Mof_C 	C 	0.60537	0.1715	0.6125	0.378
Mof_C 	C 	0.67234	0.9003	0.8519	-0.241
Mof_H 	H 	0.6833	0.8899	0.8399	0.114
Mof_C 	C 	0.80049	0.0359	0.9362	0.024
Mof_H 	H 	0.8091	0.0552	0.9226	0.042
Mof_C 	C 	0.8367	0.2986	0.561	0.035
Mof_C 	C 	0.78793	0.9999	0.8138	-0.165
Mof_C 	C 	0.78016	0.9749	0.8482	0.088
Mof_H 	H 	0.787	0.9631	0.8725	0.013
Mof_C 	C 	0.63717	0.9089	0.1458	0.124
Mof_H 	H 	0.6336	0.9159	0.1758	0.008
Mof_C 	C 	0.65105	0.9557	0.8602	-0.212
Mof_H 	H 	0.6469	0.9857	0.8542	0.103
Mof_C 	C 	0.62436	0.8731	0.9579	-0.216
Mof_H 	H 	0.6219	0.9048	0.9587	0.102
Mof_C 	C 	0.63897	0.8083	0.9298	-0.24
Mof_H 	H 	0.6471	0.7942	0.9096	0.112
Mof_C 	C 	0.77015	0.0158	0.9589	0.071
Mof_C 	C 	0.62596	0.0677	0.6627	-0.151
Mof_H 	H 	0.6272	0.0363	0.6556	0.089
Mof_C 	C 	0.61695	0.7971	0.9849	-0.223
Mof_C 	C 	0.64471	0.0568	0.7299	-0.071
Mof_C 	C 	0.64811	0.9383	0.1197	-0.21
Mof_H 	H 	0.6517	0.9669	0.1316	0.105
Mof_C 	C 	0.65338	0.9256	0.0776	0.194
Mof_C 	C 	0.77866	0.0164	0.779	0.083
Mof_H 	H 	0.7844	0.0331	0.7556	0.017
Mof_C 	C 	0.78147	0.0478	0.936	-0.102
Mof_H 	H 	0.777	0.0745	0.9218	0.067
Mof_C 	C 	0.66468	0.9597	0.0495	-0.161
Mof_C 	C 	0.68599	0.0833	0.9481	0.147
Mof_C 	C 	0.64832	0.8882	0.0591	-0.239
Mof_H 	H 	0.6515	0.881	0.0288	0.12
Mof_C 	C 	0.82161	0.1001	0.7026	0.062
Mof_H 	H 	0.8152	0.0722	0.7013	0.009
Mof_C 	C 	0.66357	0.872	0.8809	0.108
Mof_H 	H 	0.6688	0.8434	0.8879	-0.008
Mof_C 	C 	0.82987	0.2594	0.5862	0.088
Mof_C 	C 	0.82546	0.9813	0.953	0.342
Mof_C 	C 	0.75138	0.9851	0.8103	0.116
Mof_C 	C 	0.84133	0.1474	0.739	0.107
Mof_H 	H 	0.8493	0.1528	0.7634	-0.002
Mof_C 	C 	0.63025	0.2274	0.819	-0.17
Mof_C 	C 	0.79455	0.9712	0.9821	0.026
Mof_H 	H 	0.799	0.9474	0.0006	0.04
Mof_C 	C 	0.80818	0.0101	0.8139	0.465
Mof_C 	C 	0.65338	0.1743	0.868	0.125
Mof_C 	C 	0.61503	0.1434	0.643	-0.173
Mof_C 	C 	0.68504	0.02	0.999	0.231
Mof_C 	C 	0.66176	0.9681	0.0049	0.184
Mof_H 	H 	0.6522	0.9526	0.9907	-0.036
Mof_C 	C 	0.82912	0.1733	0.6699	0.07
Mof_C 	C 	0.75002	0.0279	0.9618	-0.037
Mof_C 	C 	0.83962	0.1783	0.7077	-0.142
Mof_H 	H 	0.846	0.206	0.7112	0.086
Mof_C 	C 	0.63407	0.0852	0.7011	0.112
Mof_C 	C 	0.71371	0.0439	0.9681	0.136
Mof_C 	C 	0.81986	0.1336	0.6675	-0.117
Mof_H 	H 	0.8122	0.1279	0.6426	0.081
Mof_C 	C 	0.64218	0.9292	0.8876	0.092
Mof_H 	H 	0.6314	0.9407	0.9002	-0.004
Mof_C 	C 	0.82766	0.2018	0.6329	0.071
Mof_C 	C 	0.66566	0.1433	0.8966	-0.076
Mof_C 	C 	0.68805	0.0131	0.0408	-0.253
Mof_H 	H 	0.6979	0.0289	0.0534	0.119
Mof_C 	C 	0.67094	0.995	0.981	-0.287
Mof_H 	H 	0.6681	0.9983	0.9499	0.128
Mof_C 	C 	0.72339	0.978	0.8508	0.045
Mof_H 	H 	0.7297	0.977	0.8786	0.017
Mof_C 	C 	0.66009	0.0721	0.7503	0.031
Mof_H 	H 	0.6641	0.1021	0.7444	0.021
Mof_C 	C 	0.77619	0.9811	0.9809	-0.119
Mof_H 	H 	0.7681	0.9618	0.9965	0.068
Mof_C 	C 	0.65065	0.9807	0.7603	-0.138
Mof_H 	H 	0.648	0.9491	0.7618	0.08
Mof_C 	C 	0.64103	0.0092	0.7368	0.034
Mof_H 	H 	0.6306	0.9973	0.7228	0.018
Mof_C 	C 	0.8547	0.3056	0.5535	-0.097
Mof_H 	H 	0.8638	0.2865	0.5658	0.083
Mof_C 	C 	0.72237	0.9787	0.7719	0.046
Mof_H 	H 	0.7285	0.9783	0.7437	0.013
Mof_C 	C 	0.63797	0.8586	0.0848	0.149
Mof_H 	H 	0.635	0.8295	0.073	0.001
Mof_C 	C 	0.67887	0.986	0.0691	0.12
Mof_H 	H 	0.6816	0.9844	0.1004	-0.012
Mof_C 	C 	0.64762	0.883	0.9004	-0.138
Mof_C 	C 	0.73221	0.982	0.8138	-0.085
Mof_C 	C 	0.7385	0.9922	0.9694	0.005
Mof_H 	H 	0.743	0.9622	0.9725	0.024
Mof_C 	C 	0.8256	0.3331	0.546	-0.077
Mof_H 	H 	0.8132	0.3267	0.5492	0.063
Mof_C 	C 	0.63506	0.1786	0.8805	-0.177
Mof_H 	H 	0.6303	0.1629	0.9059	0.088
Mof_C 	C 	0.621	0.8367	0.1516	0.383
Mof_C 	C 	0.67198	0.1074	0.9679	-0.155
Mof_H 	H 	0.6694	0.103	0.9991	0.084
Mof_C 	C 	0.8586	0.3453	0.5248	0.054
Mof_H 	H 	0.8695	0.3447	0.5083	0.019
Mof_C 	C 	0.63223	0.8702	0.1249	-0.196
Mof_C 	C 	0.8292	0.376	0.5271	0.019
Mof_H 	H 	0.8204	0.3979	0.52	0.04
Mof_C 	C 	0.63689	0.8556	0.9295	0.175
Mof_C 	C 	0.74397	0.0706	0.9541	0.001
Mof_H 	H 	0.752	0.0947	0.9475	0.03
Mof_C 	C 	0.64854	0.2214	0.8065	0.082
Mof_H 	H 	0.6532	0.2367	0.7808	0.011
Mof_C 	C 	0.75958	0.0079	0.7779	-0.157
Mof_H 	H 	0.7528	0.0191	0.7532	0.084
Mof_C 	C 	0.80539	0.996	0.9568	-0.089
Mof_C 	C 	0.70421	0.9748	0.8514	-0.172
Mof_H 	H 	0.6978	0.9741	0.8792	0.089
Mof_C 	C 	0.66199	0.1365	0.9438	0.037
Mof_H 	H 	0.6525	0.1526	0.9579	0.015
Mof_C 	C 	0.70412	0.9761	0.7734	-0.179
Mof_H 	H 	0.6975	0.9766	0.746	0.096
Mof_C 	C 	0.62037	0.2574	0.7908	0.323
Mof_C 	C 	0.7244	0.0784	0.9563	-0.139
Mof_H 	H 	0.7196	0.1075	0.9495	0.081
Mof_C 	C 	0.63079	0.1313	0.7111	-0.166
Mof_H 	H 	0.635	0.1438	0.7387	0.091
Mof_C 	C 	0.65945	0.1932	0.8321	-0.178
Mof_H 	H 	0.6714	0.1878	0.8229	0.09
Mof_C 	C 	0.62471	0.2058	0.8546	0.11
Mof_H 	H 	0.6126	0.2093	0.863	0.008
Mof_C 	C 	0.72028	-1.23925e-32	0.9726	-0.137
Mof_H 	H 	0.7124	0.9753	0.9778	0.078
Mof_C 	C 	0.76215	0.9679	0.8458	-0.155
Mof_H 	H 	0.7566	0.9507	0.8691	0.082
Mof_N 	N 	0.83708	0.2423	0.6254	-0.085
Mof_N 	N 	0.83256	0.1095	0.7377	-0.216
Mof_N 	N 	0.81694	0.1977	0.5975	-0.084
Mof_N 	N 	0.84993	0.2606	0.6524	-0.232
Mof_H 	H 	0.8547	0.287	0.6454	0.144
Mof_H 	H 	0.8534	0.246	0.6768	0.14
Mof_N 	N 	0.8482	0.3827	0.5196	-0.202
Mof_N 	N 	0.81802	0.2313	0.5684	-0.087
Mof_N 	N 	0.67593	0.9669	0.8102	-0.191
Mof_N 	N 	0.69519	0.0507	0.9729	-0.197
Mof_O 	O 	0.62425	0.2768	0.7571	-0.409
Mof_O 	O 	0.60494	0.7263	0.005	-0.438
Mof_O 	O 	0.59815	0.787	0.0478	-0.407
Mof_O 	O 	0.83519	0.0046	0.927	-0.388
Mof_O 	O 	0.60787	0.2133	0.6133	-0.397
Mof_O 	O 	0.82962	0.9515	0.9798	-0.42
Mof_O 	O 	0.59471	0.1523	0.5835	-0.405
Mof_O 	O 	0.61728	0.7986	0.1365	-0.394
Mof_O 	O 	0.616	0.8493	0.1908	-0.418
Mof_O 	O 	0.8162	0.9956	0.8469	-0.431
Mof_O 	O 	0.60255	0.2654	0.8071	-0.264
Mof_O 	O 	0.81371	0.0328	0.7844	-0.474
Mof_Cu	Cu	0.83695	0.05933	0.784	0.924
Mof_Cu	Cu	0.85446	0.93639	0.9861	0.931
Mof_Cu	Cu	0.843	0.97832	0.86606	0.919
Mof_C 	C 	0.67972	0.6229	0.3783	0.044
Mof_H 	H 	0.6831	0.6297	0.348	0.011
Mof_C 	C 	0.61523	0.3424	0.4859	0.139
Mof_H 	H 	0.6072	0.3548	0.5075	-0.003
Mof_C 	C 	0.6894	0.592	0.403	-0.162
Mof_H 	H 	0.6988	0.5759	0.3886	0.087
Mof_C 	C 	0.66992	0.544	0.2797	-0.153
Mof_H 	H 	0.6796	0.557	0.2961	0.083
Mof_C 	C 	0.62164	0.6583	0.1814	0.106
Mof_H 	H 	0.62	0.6895	0.1889	0.011
Mof_C 	C 	0.616	0.5957	0.1345	0.083
Mof_H 	H 	0.6098	0.583	0.1094	0.02
Mof_C 	C 	0.66699	0.4399	0.3393	0.21
Mof_C 	C 	0.60578	0.2666	0.515	0.412
Mof_C 	C 	0.62956	0.2833	0.4584	0.178
Mof_H 	H 	0.6324	0.2517	0.4595	-0.013
Mof_C 	C 	0.66636	0.5012	0.2852	0.129
Mof_C 	C 	0.69574	0.473	0.3118	0.161
Mof_C 	C 	0.60537	0.6715	0.1125	0.377
Mof_C 	C 	0.67234	0.4003	0.3519	-0.241
Mof_H 	H 	0.6833	0.3899	0.3399	0.114
Mof_C 	C 	0.80049	0.5359	0.4362	0.028
Mof_H 	H 	0.8091	0.5552	0.4226	0.041
Mof_C 	C 	0.8367	0.7986	0.061	0.036
Mof_C 	C 	0.78793	0.4999	0.3138	-0.162
Mof_C 	C 	0.78016	0.4749	0.3482	0.087
Mof_H 	H 	0.787	0.4631	0.3725	0.013
Mof_C 	C 	0.63717	0.4089	0.6458	0.118
Mof_H 	H 	0.6336	0.4159	0.6758	0.01
Mof_C 	C 	0.65105	0.4557	0.3602	-0.212
Mof_H 	H 	0.6469	0.4857	0.3542	0.104
Mof_C 	C 	0.62436	0.3731	0.4579	-0.222
Mof_H 	H 	0.6219	0.4048	0.4587	0.105
Mof_C 	C 	0.63897	0.3083	0.4298	-0.242
Mof_H 	H 	0.6471	0.2942	0.4096	0.114
Mof_C 	C 	0.77015	0.5158	0.4589	0.076
Mof_C 	C 	0.62596	0.5677	0.1627	-0.149
Mof_H 	H 	0.6272	0.5363	0.1556	0.088
Mof_C 	C 	0.61695	0.2971	0.4849	-0.222
Mof_C 	C 	0.64471	0.5568	0.2299	-0.067
Mof_C 	C 	0.64811	0.4383	0.6197	-0.201
Mof_H 	H 	0.6517	0.4669	0.6316	0.102
Mof_C 	C 	0.65338	0.4256	0.5776	0.18
Mof_C 	C 	0.77866	0.5164	0.279	0.081
Mof_H 	H 	0.7844	0.5331	0.2556	0.018
Mof_C 	C 	0.78147	0.5478	0.436	-0.106
Mof_H 	H 	0.777	0.5745	0.4218	0.069
Mof_C 	C 	0.66468	0.4597	0.5495	-0.141
Mof_C 	C 	0.68599	0.5833	0.4481	0.147
Mof_C 	C 	0.64832	0.3882	0.5591	-0.228
Mof_H 	H 	0.6515	0.381	0.5288	0.115
Mof_C 	C 	0.82161	0.6001	0.2026	0.062
Mof_H 	H 	0.8152	0.5722	0.2013	0.009
Mof_C 	C 	0.66357	0.372	0.3809	0.11
Mof_H 	H 	0.6688	0.3434	0.3879	-0.008
Mof_C 	C 	0.82987	0.7594	0.0862	0.088
Mof_C 	C 	0.82546	0.4813	0.453	0.345
Mof_C 	C 	0.75138	0.4851	0.3103	0.117
Mof_C 	C 	0.84133	0.6474	0.239	0.107
Mof_H 	H 	0.8493	0.6528	0.2634	-0.002
Mof_C 	C 	0.63025	0.7274	0.319	-0.17
Mof_C 	C 	0.79455	0.4712	0.4821	0.043
Mof_H 	H 	0.799	0.4474	0.5006	0.03
Mof_C 	C 	0.80818	0.5101	0.3139	0.462
Mof_C 	C 	0.65338	0.6743	0.368	0.125
Mof_C 	C 	0.61503	0.6434	0.143	-0.172
Mof_C 	C 	0.68504	0.52	0.499	0.221
Mof_C 	C 	0.66176	0.4681	0.5049	0.14
Mof_H 	H 	0.6522	0.4526	0.4907	-0.018
Mof_C 	C 	0.82912	0.6733	0.1699	0.07
Mof_C 	C 	0.75002	0.5279	0.4618	-0.042
Mof_C 	C 	0.83962	0.6783	0.2077	-0.142
Mof_H 	H 	0.846	0.706	0.2112	0.086
Mof_C 	C 	0.63407	0.5852	0.2011	0.11
Mof_C 	C 	0.71371	0.5439	0.4681	0.14
Mof_C 	C 	0.81986	0.6336	0.1675	-0.117
Mof_H 	H 	0.8122	0.6279	0.1426	0.081
Mof_C 	C 	0.64218	0.4292	0.3876	0.093
Mof_H 	H 	0.6314	0.4407	0.4002	-0.004
Mof_C 	C 	0.82766	0.7018	0.1329	0.071
Mof_C 	C 	0.66566	0.6433	0.3966	-0.076
Mof_C 	C 	0.68805	0.5131	0.5408	-0.248
Mof_H 	H 	0.6979	0.5289	0.5534	0.116
Mof_C 	C 	0.67094	0.495	0.481	-0.251
Mof_H 	H 	0.6681	0.4983	0.4499	0.117
Mof_C 	C 	0.72339	0.478	0.3508	0.046
Mof_H 	H 	0.7297	0.477	0.3786	0.017
Mof_C 	C 	0.66009	0.5721	0.2503	0.028
Mof_H 	H 	0.6641	0.6021	0.2444	0.022
Mof_C 	C 	0.77619	0.4811	0.4809	-0.128
Mof_H 	H 	0.7681	0.4618	0.4965	0.073
Mof_C 	C 	0.65065	0.4807	0.2603	-0.131
Mof_H 	H 	0.648	0.4491	0.2618	0.078
Mof_C 	C 	0.64103	0.5092	0.2368	0.027
Mof_H 	H 	0.6306	0.4973	0.2228	0.021
Mof_C 	C 	0.8547	0.8056	0.0535	-0.096
Mof_H 	H 	0.8638	0.7865	0.0658	0.083
Mof_C 	C 	0.72237	0.4787	0.2719	0.046
Mof_H 	H 	0.7285	0.4783	0.2437	0.014
Mof_C 	C 	0.63797	0.3586	0.5848	0.141
Mof_H 	H 	0.635	0.3295	0.573	0.003
Mof_C 	C 	0.67887	0.486	0.5691	0.108
Mof_H 	H 	0.6816	0.4844	0.6004	-0.008
Mof_C 	C 	0.64762	0.383	0.4004	-0.14
Mof_C 	C 	0.73221	0.482	0.3138	-0.085
Mof_C 	C 	0.7385	0.4922	0.4694	0.012
Mof_H 	H 	0.743	0.4622	0.4725	0.023
Mof_C 	C 	0.8256	0.8331	0.046	-0.077
Mof_H 	H 	0.8132	0.8267	0.0492	0.064
Mof_C 	C 	0.63506	0.6786	0.3805	-0.177
Mof_H 	H 	0.6303	0.6629	0.4059	0.089
Mof_C 	C 	0.621	0.3367	0.6516	0.381
Mof_C 	C 	0.67198	0.6074	0.4679	-0.155
Mof_H 	H 	0.6694	0.603	0.4991	0.085
Mof_C 	C 	0.8586	0.8453	0.0248	0.054
Mof_H 	H 	0.8695	0.8447	0.0083	0.021
Mof_C 	C 	0.63223	0.3702	0.6249	-0.19
Mof_C 	C 	0.8292	0.876	0.0271	0.02
Mof_H 	H 	0.8204	0.8979	0.02	0.042
Mof_C 	C 	0.63689	0.3556	0.4295	0.179
Mof_C 	C 	0.74397	0.5706	0.4541	0.005
Mof_H 	H 	0.752	0.5947	0.4475	0.029
Mof_C 	C 	0.64854	0.7214	0.3065	0.082
Mof_H 	H 	0.6532	0.7367	0.2808	0.011
Mof_C 	C 	0.75958	0.5079	0.2779	-0.158
Mof_H 	H 	0.7528	0.5191	0.2532	0.084
Mof_C 	C 	0.80539	0.496	0.4568	-0.096
Mof_C 	C 	0.70421	0.4748	0.3514	-0.172
Mof_H 	H 	0.6978	0.4741	0.3792	0.09
Mof_C 	C 	0.66199	0.6365	0.4438	0.037
Mof_H 	H 	0.6525	0.6526	0.4579	0.016
Mof_C 	C 	0.70412	0.4761	0.2734	-0.179
Mof_H 	H 	0.6975	0.4766	0.246	0.097
Mof_C 	C 	0.62037	0.7574	0.2908	0.323
Mof_C 	C 	0.7244	0.5784	0.4563	-0.141
Mof_H 	H 	0.7196	0.6075	0.4495	0.082
Mof_C 	C 	0.63079	0.6313	0.2111	-0.165
Mof_H 	H 	0.635	0.6438	0.2387	0.091
Mof_C 	C 	0.65945	0.6932	0.3321	-0.178
Mof_H 	H 	0.6714	0.6878	0.3229	0.09
Mof_C 	C 	0.62471	0.7058	0.3546	0.11
Mof_H 	H 	0.6126	0.7093	0.363	0.008
Mof_C 	C 	0.72028	0.5	0.4726	-0.143
Mof_H 	H 	0.7124	0.4753	0.4778	0.082
Mof_C 	C 	0.76215	0.4679	0.3458	-0.154
Mof_H 	H 	0.7566	0.4507	0.3691	0.083
Mof_N 	N 	0.83708	0.7423	0.1254	-0.085
Mof_N 	N 	0.83256	0.6095	0.2377	-0.216
Mof_N 	N 	0.81694	0.6977	0.0975	-0.083
Mof_N 	N 	0.84993	0.7606	0.1524	-0.232
Mof_H 	H 	0.8547	0.787	0.1454	0.144
Mof_H 	H 	0.8534	0.746	0.1768	0.14
Mof_N 	N 	0.8482	0.8827	0.0196	-0.2
Mof_N 	N 	0.81802	0.7313	0.0684	-0.086
Mof_N 	N 	0.67593	0.4669	0.3102	-0.19
Mof_N 	N 	0.69519	0.5507	0.4729	-0.195
Mof_O 	O 	0.62425	0.7768	0.2571	-0.409
Mof_O 	O 	0.60494	0.2263	0.505	-0.44
Mof_O 	O 	0.59815	0.287	0.5478	-0.407
Mof_O 	O 	0.83519	0.5046	0.427	-0.389
Mof_O 	O 	0.60787	0.7133	0.1133	-0.397
Mof_O 	O 	0.82962	0.4515	0.4798	-0.418
Mof_O 	O 	0.59471	0.6523	0.0835	-0.404
Mof_O 	O 	0.61728	0.2986	0.6365	-0.394
Mof_O 	O 	0.616	0.3493	0.6908	-0.418
Mof_O 	O 	0.8162	0.4956	0.3469	-0.43
Mof_O 	O 	0.60255	0.7654	0.3071	-0.264
Mof_O 	O 	0.81371	0.5328	0.2844	-0.473
Mof_Cu	Cu	0.83695	0.55933	0.284	0.924
Mof_Cu	Cu	0.85446	0.43639	0.4861	0.934
Mof_Cu	Cu	0.843	0.47832	0.36606	0.919
Mof_C 	C 	0.07028	0.8729	0.1283	0.043
Mof_H 	H 	0.0669	0.8797	0.098	0.011
Mof_C 	C 	0.13477	0.5924	0.2359	0.14
Mof_H 	H 	0.1428	0.6048	0.2575	-0.003
Mof_C 	C 	0.0606	0.842	0.153	-0.162
Mof_H 	H 	0.0512	0.8259	0.1386	0.087
Mof_C 	C 	0.08008	0.794	0.0297	-0.164
Mof_H 	H 	0.0704	0.807	0.0461	0.088
Mof_C 	C 	0.12836	0.9083	0.9314	0.109
Mof_H 	H 	0.13	0.9395	0.9389	0.009
Mof_C 	C 	0.134	0.8457	0.8845	0.086
Mof_H 	H 	0.1402	0.833	0.8594	0.019
Mof_C 	C 	0.08301	0.6899	0.0893	0.21
Mof_C 	C 	0.14422	0.5166	0.265	0.412
Mof_C 	C 	0.12044	0.5333	0.2084	0.178
Mof_H 	H 	0.1176	0.5017	0.2095	-0.013
Mof_C 	C 	0.08364	0.7512	0.0352	0.133
Mof_C 	C 	0.05426	0.723	0.0618	0.159
Mof_C 	C 	0.14463	0.9215	0.8625	0.378
Mof_C 	C 	0.07766	0.6503	0.1019	-0.241
Mof_H 	H 	0.0667	0.6399	0.0899	0.115
Mof_C 	C 	0.94951	0.7859	0.1862	0.028
Mof_H 	H 	0.9409	0.8052	0.1726	0.041
Mof_C 	C 	0.9133	0.0486	0.811	0.035
Mof_C 	C 	0.96207	0.7499	0.0638	-0.162
Mof_C 	C 	0.96984	0.7249	0.0982	0.087
Mof_H 	H 	0.963	0.7131	0.1225	0.013
Mof_C 	C 	0.11283	0.6589	0.3958	0.118
Mof_H 	H 	0.1164	0.6659	0.4258	0.01
Mof_C 	C 	0.09895	0.7057	0.1102	-0.212
Mof_H 	H 	0.1031	0.7357	0.1042	0.104
Mof_C 	C 	0.12564	0.6231	0.2079	-0.222
Mof_H 	H 	0.1281	0.6548	0.2087	0.105
Mof_C 	C 	0.11103	0.5583	0.1798	-0.242
Mof_H 	H 	0.1029	0.5442	0.1596	0.114
Mof_C 	C 	0.97985	0.7658	0.2089	0.076
Mof_C 	C 	0.12404	0.8177	0.9127	-0.154
Mof_H 	H 	0.1228	0.7863	0.9056	0.09
Mof_C 	C 	0.13305	0.5471	0.2349	-0.222
Mof_C 	C 	0.10529	0.8068	0.9799	-0.081
Mof_C 	C 	0.10189	0.6883	0.3697	-0.201
Mof_H 	H 	0.0983	0.7169	0.3816	0.102
Mof_C 	C 	0.09662	0.6756	0.3276	0.18
Mof_C 	C 	0.97134	0.7664	0.029	0.082
Mof_H 	H 	0.9656	0.7831	0.0056	0.019
Mof_C 	C 	0.96853	0.7978	0.186	-0.106
Mof_H 	H 	0.973	0.8245	0.1718	0.069
Mof_C 	C 	0.08532	0.7097	0.2995	-0.141
Mof_C 	C 	0.06401	0.8333	0.1981	0.147
Mof_C 	C 	0.10168	0.6382	0.3091	-0.228
Mof_H 	H 	0.0985	0.631	0.2788	0.115
Mof_C 	C 	0.92839	0.8501	0.9526	0.059
Mof_H 	H 	0.9348	0.8222	0.9513	0.008
Mof_C 	C 	0.08643	0.622	0.1309	0.11
Mof_H 	H 	0.0812	0.5934	0.1379	-0.008
Mof_C 	C 	0.92013	0.0094	0.8362	0.089
Mof_C 	C 	0.92454	0.7313	0.203	0.345
Mof_C 	C 	0.99862	0.7351	0.0603	0.119
Mof_C 	C 	0.90867	0.8974	0.989	0.09
Mof_H 	H 	0.9007	0.9028	0.0134	0.007
Mof_C 	C 	0.11975	0.9774	0.069	-0.17
Mof_C 	C 	0.95545	0.7212	0.2321	0.043
Mof_H 	H 	0.951	0.6974	0.2506	0.03
Mof_C 	C 	0.94182	0.7601	0.0639	0.462
Mof_C 	C 	0.09662	0.9243	0.118	0.125
Mof_C 	C 	0.13497	0.8934	0.893	-0.175
Mof_C 	C 	0.06496	0.77	0.249	0.221
Mof_C 	C 	0.08824	0.7181	0.2549	0.14
Mof_H 	H 	0.0978	0.7026	0.2407	-0.018
Mof_C 	C 	0.92088	0.9233	0.9199	0.064
Mof_C 	C 	0.99998	0.7779	0.2118	-0.042
Mof_C 	C 	0.91038	0.9283	0.9577	-0.132
Mof_H 	H 	0.904	0.956	0.9612	0.08
Mof_C 	C 	0.11593	0.8352	0.9511	0.117
Mof_C 	C 	0.03629	0.7939	0.2181	0.14
Mof_C 	C 	0.93014	0.8836	0.9175	-0.114
Mof_H 	H 	0.9378	0.8779	0.8926	0.079
Mof_C 	C 	0.10782	0.6792	0.1376	0.093
Mof_H 	H 	0.1186	0.6907	0.1502	-0.004
Mof_C 	C 	0.92234	0.9518	0.8829	0.072
Mof_C 	C 	0.08434	0.8933	0.1466	-0.076
Mof_C 	C 	0.06195	0.7631	0.2908	-0.248
Mof_H 	H 	0.0521	0.7789	0.3034	0.116
Mof_C 	C 	0.07906	0.745	0.231	-0.251
Mof_H 	H 	0.0819	0.7483	0.1999	0.117
Mof_C 	C 	0.02661	0.728	0.1008	0.047
Mof_H 	H 	0.0203	0.727	0.1286	0.017
Mof_C 	C 	0.08991	0.8221	0.0003	0.053
Mof_H 	H 	0.0859	0.8521	0.9944	0.01
Mof_C 	C 	0.97381	0.7311	0.2309	-0.128
Mof_H 	H 	0.9819	0.7118	0.2465	0.073
Mof_C 	C 	0.09935	0.7307	0.0103	-0.127
Mof_H 	H 	0.102	0.6991	0.0118	0.078
Mof_C 	C 	0.10897	0.7592	0.9868	0.024
Mof_H 	H 	0.1194	0.7473	0.9728	0.021
Mof_C 	C 	0.8953	0.0556	0.8035	-0.096
Mof_H 	H 	0.8862	0.0365	0.8158	0.083
Mof_C 	C 	0.02763	0.7287	0.0219	0.053
Mof_H 	H 	0.0215	0.7283	0.9937	0.007
Mof_C 	C 	0.11203	0.6086	0.3348	0.141
Mof_H 	H 	0.115	0.5795	0.323	0.003
Mof_C 	C 	0.07113	0.736	0.3191	0.108
Mof_H 	H 	0.0684	0.7344	0.3504	-0.008
Mof_C 	C 	0.10238	0.633	0.1504	-0.139
Mof_C 	C 	0.01779	0.732	0.0638	-0.088
Mof_C 	C 	0.0115	0.7422	0.2194	0.012
Mof_H 	H 	0.007	0.7122	0.2225	0.023
Mof_C 	C 	0.9244	0.0831	0.796	-0.076
Mof_H 	H 	0.9368	0.0767	0.7992	0.063
Mof_C 	C 	0.11494	0.9286	0.1305	-0.177
Mof_H 	H 	0.1197	0.9129	0.1559	0.089
Mof_C 	C 	0.129	0.5867	0.4016	0.381
Mof_C 	C 	0.07802	0.8574	0.2179	-0.155
Mof_H 	H 	0.0806	0.853	0.2491	0.085
Mof_C 	C 	0.8914	0.0953	0.7748	0.054
Mof_H 	H 	0.8805	0.0947	0.7583	0.019
Mof_C 	C 	0.11777	0.6202	0.3749	-0.19
Mof_C 	C 	0.9208	0.126	0.7771	0.018
Mof_H 	H 	0.9296	0.1479	0.77	0.04
Mof_C 	C 	0.11311	0.6056	0.1795	0.179
Mof_C 	C 	0.00603	0.8206	0.2041	0.005
Mof_H 	H 	0.998	0.8447	0.1975	0.029
Mof_C 	C 	0.10146	0.9714	0.0565	0.083
Mof_H 	H 	0.0968	0.9867	0.0308	0.012
Mof_C 	C 	0.99042	0.7579	0.0279	-0.159
Mof_H 	H 	0.9972	0.7691	0.0032	0.086
Mof_C 	C 	0.94461	0.746	0.2068	-0.096
Mof_C 	C 	0.04579	0.7248	0.1014	-0.171
Mof_H 	H 	0.0522	0.7241	0.1292	0.09
Mof_C 	C 	0.08801	0.8865	0.1938	0.037
Mof_H 	H 	0.0975	0.9026	0.2079	0.016
Mof_C 	C 	0.04588	0.7261	0.0234	-0.171
Mof_H 	H 	0.0525	0.7266	0.996	0.089
Mof_C 	C 	0.12963	0.0074	0.0408	0.324
Mof_C 	C 	0.0256	0.8284	0.2063	-0.141
Mof_H 	H 	0.0304	0.8575	0.1995	0.082
Mof_C 	C 	0.11921	0.8813	0.9611	-0.17
Mof_H 	H 	0.115	0.8938	0.9887	0.091
Mof_C 	C 	0.09055	0.9432	0.0821	-0.178
Mof_H 	H 	0.0786	0.9378	0.0729	0.09
Mof_C 	C 	0.12529	0.9558	0.1046	0.11
Mof_H 	H 	0.1374	0.9593	0.113	0.008
Mof_C 	C 	0.02972	0.75	0.2226	-0.143
Mof_H 	H 	0.0376	0.7253	0.2278	0.082
Mof_C 	C 	0.98785	0.7179	0.0958	-0.155
Mof_H 	H 	0.9934	0.7007	0.1191	0.083
Mof_N 	N 	0.91292	0.9923	0.8754	-0.087
Mof_N 	N 	0.91744	0.8595	0.9877	-0.215
Mof_N 	N 	0.93306	0.9477	0.8475	-0.085
Mof_N 	N 	0.90007	0.0106	0.9024	-0.23
Mof_H 	H 	0.8953	0.037	0.8954	0.143
Mof_H 	H 	0.8966	0.996	0.9268	0.138
Mof_N 	N 	0.9018	0.1327	0.7696	-0.202
Mof_N 	N 	0.93198	0.9813	0.8184	-0.087
Mof_N 	N 	0.07407	0.7169	0.0602	-0.191
Mof_N 	N 	0.05481	0.8007	0.2229	-0.195
Mof_O 	O 	0.12575	0.0268	0.0071	-0.405
Mof_O 	O 	0.14506	0.4763	0.255	-0.44
Mof_O 	O 	0.15185	0.537	0.2978	-0.407
Mof_O 	O 	0.91481	0.7546	0.177	-0.389
Mof_O 	O 	0.14213	0.9633	0.8633	-0.398
Mof_O 	O 	0.92038	0.7015	0.2298	-0.418
Mof_O 	O 	0.15529	0.9023	0.8335	-0.405
Mof_O 	O 	0.13272	0.5486	0.3865	-0.394
Mof_O 	O 	0.134	0.5993	0.4408	-0.418
Mof_O 	O 	0.9338	0.7456	0.0969	-0.429
Mof_O 	O 	0.14745	0.0154	0.0571	-0.262
Mof_O 	O 	0.93629	0.7828	0.0344	-0.472
Mof_Cu	Cu	0.91306	0.80933	0.034	0.925
Mof_Cu	Cu	0.89554	0.68639	0.2361	0.934
Mof_Cu	Cu	0.907	0.72832	0.11606	0.919
Mof_C 	C 	0.07028	0.3729	0.6283	0.044
Mof_H 	H 	0.0669	0.3797	0.598	0.011
Mof_C 	C 	0.13477	0.0924	0.7359	0.14
Mof_H 	H 	0.1428	0.1048	0.7575	-0.003
Mof_C 	C 	0.0606	0.342	0.653	-0.162
Mof_H 	H 	0.0512	0.3259	0.6386	0.087
Mof_C 	C 	0.08008	0.294	0.5297	-0.153
Mof_H 	H 	0.0704	0.307	0.5461	0.083
Mof_C 	C 	0.12836	0.4083	0.4314	0.106
Mof_H 	H 	0.13	0.4395	0.4389	0.011
Mof_C 	C 	0.134	0.3457	0.3845	0.083
Mof_H 	H 	0.1402	0.333	0.3594	0.02
Mof_C 	C 	0.08301	0.1899	0.5893	0.21
Mof_C 	C 	0.14422	0.0166	0.765	0.413
Mof_C 	C 	0.12044	0.0333	0.7084	0.178
Mof_H 	H 	0.1176	0.0017	0.7095	-0.013
Mof_C 	C 	0.08364	0.2512	0.5352	0.128
Mof_C 	C 	0.05426	0.223	0.5618	0.161
Mof_C 	C 	0.14463	0.4215	0.3625	0.377
Mof_C 	C 	0.07766	0.1503	0.6019	-0.241
Mof_H 	H 	0.0667	0.1399	0.5899	0.114
Mof_C 	C 	0.94951	0.2859	0.6862	0.028
Mof_H 	H 	0.9409	0.3052	0.6726	0.041
Mof_C 	C 	0.9133	0.5486	0.311	0.035
Mof_C 	C 	0.96207	0.2499	0.5638	-0.162
Mof_C 	C 	0.96984	0.2249	0.5982	0.087
Mof_H 	H 	0.963	0.2131	0.6225	0.013
Mof_C 	C 	0.11283	0.1589	0.8958	0.118
Mof_H 	H 	0.1164	0.1659	0.9258	0.009
Mof_C 	C 	0.09895	0.2057	0.6102	-0.212
Mof_H 	H 	0.1031	0.2357	0.6042	0.104
Mof_C 	C 	0.12564	0.1231	0.7079	-0.222
Mof_H 	H 	0.1281	0.1548	0.7087	0.105
Mof_C 	C 	0.11103	0.0583	0.6798	-0.242
Mof_H 	H 	0.1029	0.0442	0.6596	0.114
Mof_C 	C 	0.97985	0.2658	0.7089	0.076
Mof_C 	C 	0.12404	0.3177	0.4127	-0.149
Mof_H 	H 	0.1228	0.2863	0.4056	0.088
Mof_C 	C 	0.13305	0.0471	0.7349	-0.222
Mof_C 	C 	0.10529	0.3068	0.4799	-0.067
Mof_C 	C 	0.10189	0.1883	0.8697	-0.202
Mof_H 	H 	0.0983	0.2169	0.8816	0.102
Mof_C 	C 	0.09662	0.1756	0.8276	0.181
Mof_C 	C 	0.97134	0.2664	0.529	0.081
Mof_H 	H 	0.9656	0.2831	0.5056	0.018
Mof_C 	C 	0.96853	0.2978	0.686	-0.106
Mof_H 	H 	0.973	0.3245	0.6718	0.069
Mof_C 	C 	0.08532	0.2097	0.7995	-0.141
Mof_C 	C 	0.06401	0.3333	0.6981	0.147
Mof_C 	C 	0.10168	0.1382	0.8091	-0.229
Mof_H 	H 	0.0985	0.131	0.7788	0.115
Mof_C 	C 	0.92839	0.3501	0.4526	0.062
Mof_H 	H 	0.9348	0.3222	0.4513	0.009
Mof_C 	C 	0.08643	0.122	0.6309	0.11
Mof_H 	H 	0.0812	0.0934	0.6379	-0.008
Mof_C 	C 	0.92013	0.5094	0.3362	0.088
Mof_C 	C 	0.92454	0.2313	0.703	0.345
Mof_C 	C 	0.99862	0.2351	0.5603	0.117
Mof_C 	C 	0.90867	0.3974	0.489	0.107
Mof_H 	H 	0.9007	0.4028	0.5134	-0.002
Mof_C 	C 	0.11975	0.4774	0.569	-0.17
Mof_C 	C 	0.95545	0.2212	0.7321	0.043
Mof_H 	H 	0.951	0.1974	0.7506	0.03
Mof_C 	C 	0.94182	0.2601	0.5639	0.462
Mof_C 	C 	0.09662	0.4243	0.618	0.125
Mof_C 	C 	0.13497	0.3934	0.393	-0.172
Mof_C 	C 	0.06496	0.27	0.749	0.221
Mof_C 	C 	0.08824	0.2181	0.7549	0.141
Mof_H 	H 	0.0978	0.2026	0.7407	-0.018
Mof_C 	C 	0.92088	0.4233	0.4199	0.07
Mof_C 	C 	0.99998	0.2779	0.7118	-0.042
Mof_C 	C 	0.91038	0.4283	0.4577	-0.142
Mof_H 	H 	0.904	0.456	0.4612	0.086
Mof_C 	C 	0.11593	0.3352	0.4511	0.11
Mof_C 	C 	0.03629	0.2939	0.7181	0.14
Mof_C 	C 	0.93014	0.3836	0.4175	-0.117
Mof_H 	H 	0.9378	0.3779	0.3926	0.081
Mof_C 	C 	0.10782	0.1792	0.6376	0.093
Mof_H 	H 	0.1186	0.1907	0.6502	-0.004
Mof_C 	C 	0.92234	0.4518	0.3829	0.071
Mof_C 	C 	0.08434	0.3933	0.6466	-0.076
Mof_C 	C 	0.06195	0.2631	0.7908	-0.248
Mof_H 	H 	0.0521	0.2789	0.8034	0.115
Mof_C 	C 	0.07906	0.245	0.731	-0.251
Mof_H 	H 	0.0819	0.2483	0.6999	0.117
Mof_C 	C 	0.02661	0.228	0.6008	0.046
Mof_H 	H 	0.0203	0.227	0.6286	0.017
Mof_C 	C 	0.08991	0.3221	0.5003	0.028
Mof_H 	H 	0.0859	0.3521	0.4944	0.022
Mof_C 	C 	0.97381	0.2311	0.7309	-0.128
Mof_H 	H 	0.9819	0.2118	0.7465	0.073
Mof_C 	C 	0.09935	0.2307	0.5103	-0.131
Mof_H 	H 	0.102	0.1991	0.5118	0.078
Mof_C 	C 	0.10897	0.2592	0.4868	0.027
Mof_H 	H 	0.1194	0.2473	0.4728	0.021
Mof_C 	C 	0.8953	0.5556	0.3035	-0.097
Mof_H 	H 	0.8862	0.5365	0.3158	0.083
Mof_C 	C 	0.02763	0.2287	0.5219	0.046
Mof_H 	H 	0.0215	0.2283	0.4937	0.014
Mof_C 	C 	0.11203	0.1086	0.8348	0.142
Mof_H 	H 	0.115	0.0795	0.823	0.003
Mof_C 	C 	0.07113	0.236	0.8191	0.109
Mof_H 	H 	0.0684	0.2344	0.8504	-0.009
Mof_C 	C 	0.10238	0.133	0.6504	-0.14
Mof_C 	C 	0.01779	0.232	0.5638	-0.085
Mof_C 	C 	0.0115	0.2422	0.7194	0.012
Mof_H 	H 	0.007	0.2122	0.7225	0.022
Mof_C 	C 	0.9244	0.5831	0.296	-0.077
Mof_H 	H 	0.9368	0.5767	0.2992	0.063
Mof_C 	C 	0.11494	0.4286	0.6305	-0.177
Mof_H 	H 	0.1197	0.4129	0.6559	0.089
Mof_C 	C 	0.129	0.0867	0.9016	0.381
Mof_C 	C 	0.07802	0.3574	0.7179	-0.155
Mof_H 	H 	0.0806	0.353	0.7491	0.085
Mof_C 	C 	0.8914	0.5953	0.2748	0.054
Mof_H 	H 	0.8805	0.5947	0.2583	0.019
Mof_C 	C 	0.11777	0.1202	0.8749	-0.191
Mof_C 	C 	0.9208	0.626	0.2771	0.019
Mof_H 	H 	0.9296	0.6479	0.27	0.04
Mof_C 	C 	0.11311	0.1056	0.6795	0.179
Mof_C 	C 	0.00603	0.3206	0.7041	0.005
Mof_H 	H 	0.998	0.3447	0.6975	0.028
Mof_C 	C 	0.10146	0.4714	0.5565	0.082
Mof_H 	H 	0.0968	0.4867	0.5308	0.011
Mof_C 	C 	0.99042	0.2579	0.5279	-0.158
Mof_H 	H 	0.9972	0.2691	0.5032	0.084
Mof_C 	C 	0.94461	0.246	0.7068	-0.096
Mof_C 	C 	0.04579	0.2248	0.6014	-0.172
Mof_H 	H 	0.0522	0.2241	0.6292	0.09
Mof_C 	C 	0.08801	0.3865	0.6938	0.037
Mof_H 	H 	0.0975	0.4026	0.7079	0.015
Mof_C 	C 	0.04588	0.2261	0.5234	-0.179
Mof_H 	H 	0.0525	0.2266	0.496	0.096
Mof_C 	C 	0.12963	0.5074	0.5408	0.323
Mof_C 	C 	0.0256	0.3284	0.7063	-0.142
Mof_H 	H 	0.0304	0.3575	0.6995	0.082
Mof_C 	C 	0.11921	0.3813	0.4611	-0.165
Mof_H 	H 	0.115	0.3938	0.4887	0.091
Mof_C 	C 	0.09055	0.4432	0.5821	-0.178
Mof_H 	H 	0.0786	0.4378	0.5729	0.09
Mof_C 	C 	0.12529	0.4558	0.6046	0.11
Mof_H 	H 	0.1374	0.4593	0.613	0.008
Mof_C 	C 	0.02972	0.25	0.7226	-0.143
Mof_H 	H 	0.0376	0.2253	0.7278	0.082
Mof_C 	C 	0.98785	0.2179	0.5958	-0.154
Mof_H 	H 	0.9934	0.2007	0.6191	0.083
Mof_N 	N 	0.91292	0.4923	0.3754	-0.085
Mof_N 	N 	0.91744	0.3595	0.4877	-0.216
Mof_N 	N 	0.93306	0.4477	0.3475	-0.084
Mof_N 	N 	0.90007	0.5106	0.4024	-0.232
Mof_H 	H 	0.8953	0.537	0.3954	0.144
Mof_H 	H 	0.8966	0.496	0.4268	0.14
Mof_N 	N 	0.9018	0.6327	0.2696	-0.202
Mof_N 	N 	0.93198	0.4813	0.3184	-0.087
Mof_N 	N 	0.07407	0.2169	0.5602	-0.191
Mof_N 	N 	0.05481	0.3007	0.7229	-0.195
Mof_O 	O 	0.12575	0.5268	0.5071	-0.409
Mof_O 	O 	0.14506	0.9763	0.755	-0.441
Mof_O 	O 	0.15185	0.037	0.7978	-0.407
Mof_O 	O 	0.91481	0.2546	0.677	-0.389
Mof_O 	O 	0.14213	0.4633	0.3633	-0.397
Mof_O 	O 	0.92038	0.2015	0.7298	-0.418
Mof_O 	O 	0.15529	0.4023	0.3335	-0.405
Mof_O 	O 	0.13272	0.0486	0.8865	-0.394
Mof_O 	O 	0.134	0.0993	0.9408	-0.42
Mof_O 	O 	0.9338	0.2456	0.5969	-0.43
Mof_O 	O 	0.14745	0.5154	0.5571	-0.264
Mof_O 	O 	0.93629	0.2828	0.5344	-0.474
Mof_Cu	Cu	0.91306	0.30933	0.534	0.924
Mof_Cu	Cu	0.89554	0.18639	0.7361	0.934
Mof_Cu	Cu	0.907	0.22832	0.61606	0.919
Mof_C 	C 	0.57028	0.8729	0.6283	0.044
Mof_H 	H 	0.5669	0.8797	0.598	0.01
Mof_C 	C 	0.63477	0.5924	0.7359	0.139
Mof_H 	H 	0.6428	0.6048	0.7575	-0.003
Mof_C 	C 	0.5606	0.842	0.653	-0.162
Mof_H 	H 	0.5512	0.8259	0.6386	0.087
Mof_C 	C 	0.58008	0.794	0.5297	-0.153
Mof_H 	H 	0.5704	0.807	0.5461	0.083
Mof_C 	C 	0.62836	0.9083	0.4314	0.106
Mof_H 	H 	0.63	0.9395	0.4389	0.01
Mof_C 	C 	0.634	0.8457	0.3845	0.083
Mof_H 	H 	0.6402	0.833	0.3594	0.02
Mof_C 	C 	0.58301	0.6899	0.5893	0.21
Mof_C 	C 	0.64422	0.5166	0.765	0.412
Mof_C 	C 	0.62044	0.5333	0.7084	0.178
Mof_H 	H 	0.6176	0.5017	0.7095	-0.013
Mof_C 	C 	0.58364	0.7512	0.5352	0.128
Mof_C 	C 	0.55426	0.723	0.5618	0.161
Mof_C 	C 	0.64463	0.9215	0.3625	0.377
Mof_C 	C 	0.57766	0.6503	0.6019	-0.241
Mof_H 	H 	0.5667	0.6399	0.5899	0.114
Mof_C 	C 	0.44951	0.7859	0.6862	0.028
Mof_H 	H 	0.4409	0.8052	0.6726	0.041
Mof_C 	C 	0.4133	0.0486	0.311	0.035
Mof_C 	C 	0.46207	0.7499	0.5638	-0.162
Mof_C 	C 	0.46984	0.7249	0.5982	0.087
Mof_H 	H 	0.463	0.7131	0.6225	0.013
Mof_C 	C 	0.61283	0.6589	0.8958	0.118
Mof_H 	H 	0.6164	0.6659	0.9258	0.009
Mof_C 	C 	0.59895	0.7057	0.6102	-0.212
Mof_H 	H 	0.6031	0.7357	0.6042	0.104
Mof_C 	C 	0.62564	0.6231	0.7079	-0.222
Mof_H 	H 	0.6281	0.6548	0.7087	0.105
Mof_C 	C 	0.61103	0.5583	0.6798	-0.242
Mof_H 	H 	0.6029	0.5442	0.6596	0.113
Mof_C 	C 	0.47985	0.7658	0.7089	0.076
Mof_C 	C 	0.62404	0.8177	0.4127	-0.15
Mof_H 	H 	0.6228	0.7863	0.4056	0.088
Mof_C 	C 	0.63305	0.5471	0.7349	-0.222
Mof_C 	C 	0.60529	0.8068	0.4799	-0.067
Mof_C 	C 	0.60189	0.6883	0.8697	-0.202
Mof_H 	H 	0.5983	0.7169	0.8816	0.102
Mof_C 	C 	0.59662	0.6756	0.8276	0.181
Mof_C 	C 	0.47134	0.7664	0.529	0.081
Mof_H 	H 	0.4656	0.7831	0.5056	0.018
Mof_C 	C 	0.46853	0.7978	0.686	-0.106
Mof_H 	H 	0.473	0.8245	0.6718	0.069
Mof_C 	C 	0.58532	0.7097	0.7995	-0.141
Mof_C 	C 	0.56401	0.8333	0.6981	0.147
Mof_C 	C 	0.60168	0.6382	0.8091	-0.229
Mof_H 	H 	0.5985	0.631	0.7788	0.115
Mof_C 	C 	0.42839	0.8501	0.4526	0.062
Mof_H 	H 	0.4348	0.8222	0.4513	0.009
Mof_C 	C 	0.58643	0.622	0.6309	0.11
Mof_H 	H 	0.5812	0.5934	0.6379	-0.008
Mof_C 	C 	0.42013	0.0094	0.3362	0.089
Mof_C 	C 	0.42454	0.7313	0.703	0.345
Mof_C 	C 	0.49862	0.7351	0.5603	0.117
Mof_C 	C 	0.40867	0.8974	0.489	0.107
Mof_H 	H 	0.4007	0.9028	0.5134	-0.002
Mof_C 	C 	0.61975	0.9774	0.569	-0.173
Mof_C 	C 	0.45545	0.7212	0.7321	0.042
Mof_H 	H 	0.451	0.6974	0.7506	0.03
Mof_C 	C 	0.44182	0.7601	0.5639	0.462
Mof_C 	C 	0.59662	0.9243	0.618	0.126
Mof_C 	C 	0.63497	0.8934	0.393	-0.173
Mof_C 	C 	0.56496	0.77	0.749	0.221
Mof_C 	C 	0.58824	0.7181	0.7549	0.141
Mof_H 	H 	0.5978	0.7026	0.7407	-0.018
Mof_C 	C 	0.42088	0.9233	0.4199	0.069
Mof_C 	C 	0.49998	0.7779	0.7118	-0.042
Mof_C 	C 	0.41038	0.9283	0.4577	-0.142
Mof_H 	H 	0.404	0.956	0.4612	0.085
Mof_C 	C 	0.61593	0.8352	0.4511	0.11
Mof_C 	C 	0.53629	0.7939	0.7181	0.14
Mof_C 	C 	0.43014	0.8836	0.4175	-0.117
Mof_H 	H 	0.4378	0.8779	0.3926	0.08
Mof_C 	C 	0.60782	0.6792	0.6376	0.093
Mof_H 	H 	0.6186	0.6907	0.6502	-0.004
Mof_C 	C 	0.42234	0.9518	0.3829	0.07
Mof_C 	C 	0.58434	0.8933	0.6466	-0.077
Mof_C 	C 	0.56195	0.7631	0.7908	-0.248
Mof_H 	H 	0.5521	0.7789	0.8034	0.115
Mof_C 	C 	0.57906	0.745	0.731	-0.251
Mof_H 	H 	0.5819	0.7483	0.6999	0.117
Mof_C 	C 	0.52661	0.728	0.6008	0.046
Mof_H 	H 	0.5203	0.727	0.6286	0.017
Mof_C 	C 	0.58991	0.8221	0.5003	0.028
Mof_H 	H 	0.5859	0.8521	0.4944	0.022
Mof_C 	C 	0.47381	0.7311	0.7309	-0.128
Mof_H 	H 	0.4819	0.7118	0.7465	0.073
Mof_C 	C 	0.59935	0.7307	0.5103	-0.132
Mof_H 	H 	0.602	0.6991	0.5118	0.078
Mof_C 	C 	0.60897	0.7592	0.4868	0.027
Mof_H 	H 	0.6194	0.7473	0.4728	0.021
Mof_C 	C 	0.3953	0.0556	0.3035	-0.096
Mof_H 	H 	0.3862	0.0365	0.3158	0.083
Mof_C 	C 	0.52763	0.7287	0.5219	0.046
Mof_H 	H 	0.5215	0.7283	0.4937	0.014
Mof_C 	C 	0.61203	0.6086	0.8348	0.142
Mof_H 	H 	0.615	0.5795	0.823	0.003
Mof_C 	C 	0.57113	0.736	0.8191	0.109
Mof_H 	H 	0.5684	0.7344	0.8504	-0.009
Mof_C 	C 	0.60238	0.633	0.6504	-0.14
Mof_C 	C 	0.51779	0.732	0.5638	-0.085
Mof_C 	C 	0.5115	0.7422	0.7194	0.012
Mof_H 	H 	0.507	0.7122	0.7225	0.022
Mof_C 	C 	0.4244	0.0831	0.296	-0.076
Mof_H 	H 	0.4368	0.0767	0.2992	0.063
Mof_C 	C 	0.61494	0.9286	0.6305	-0.178
Mof_H 	H 	0.6197	0.9129	0.6559	0.089
Mof_C 	C 	0.629	0.5867	0.9016	0.381
Mof_C 	C 	0.57802	0.8574	0.7179	-0.155
Mof_H 	H 	0.5806	0.853	0.7491	0.085
Mof_C 	C 	0.3914	0.0953	0.2748	0.054
Mof_H 	H 	0.3805	0.0947	0.2583	0.019
Mof_C 	C 	0.61777	0.6202	0.8749	-0.191
Mof_C 	C 	0.4208	0.126	0.2771	0.019
Mof_H 	H 	0.4296	0.1479	0.27	0.041
Mof_C 	C 	0.61311	0.6056	0.6795	0.179
Mof_C 	C 	0.50603	0.8206	0.7041	0.005
Mof_H 	H 	0.498	0.8447	0.6975	0.028
Mof_C 	C 	0.60146	0.9714	0.5565	0.084
Mof_H 	H 	0.5968	0.9867	0.5308	0.01
Mof_C 	C 	0.49042	0.7579	0.5279	-0.158
Mof_H 	H 	0.4972	0.7691	0.5032	0.084
Mof_C 	C 	0.44461	0.746	0.7068	-0.096
Mof_C 	C 	0.54579	0.7248	0.6014	-0.172
Mof_H 	H 	0.5522	0.7241	0.6292	0.09
Mof_C 	C 	0.58801	0.8865	0.6938	0.037
Mof_H 	H 	0.5975	0.9026	0.7079	0.015
Mof_C 	C 	0.54588	0.7261	0.5234	-0.179
Mof_H 	H 	0.5525	0.7266	0.496	0.096
Mof_C 	C 	0.62963	0.0074	0.5408	0.325
Mof_C 	C 	0.5256	0.8284	0.7063	-0.142
Mof_H 	H 	0.5304	0.8575	0.6995	0.082
Mof_C 	C 	0.61921	0.8813	0.4611	-0.165
Mof_H 	H 	0.615	0.8938	0.4887	0.091
Mof_C 	C 	0.59055	0.9432	0.5821	-0.179
Mof_H 	H 	0.5786	0.9378	0.5729	0.09
Mof_C 	C 	0.62529	0.9558	0.6046	0.112
Mof_H 	H 	0.6374	0.9593	0.613	0.007
Mof_C 	C 	0.52972	0.75	0.7226	-0.143
Mof_H 	H 	0.5376	0.7253	0.7278	0.082
Mof_C 	C 	0.48785	0.7179	0.5958	-0.154
Mof_H 	H 	0.4934	0.7007	0.6191	0.082
Mof_N 	N 	0.41292	0.9923	0.3754	-0.086
Mof_N 	N 	0.41744	0.8595	0.4877	-0.216
Mof_N 	N 	0.43306	0.9477	0.3475	-0.084
Mof_N 	N 	0.40007	0.0106	0.4024	-0.23
Mof_H 	H 	0.3953	0.037	0.3954	0.144
Mof_H 	H 	0.3966	0.996	0.4268	0.139
Mof_N 	N 	0.4018	0.1327	0.2696	-0.202
Mof_N 	N 	0.43198	0.9813	0.3184	-0.087
Mof_N 	N 	0.57407	0.7169	0.5602	-0.191
Mof_N 	N 	0.55481	0.8007	0.7229	-0.195
Mof_O 	O 	0.62575	0.0268	0.5071	-0.409
Mof_O 	O 	0.64506	0.4763	0.755	-0.44
Mof_O 	O 	0.65185	0.537	0.7978	-0.407
Mof_O 	O 	0.41481	0.7546	0.677	-0.389
Mof_O 	O 	0.64213	0.9633	0.3633	-0.398
Mof_O 	O 	0.42038	0.7015	0.7298	-0.418
Mof_O 	O 	0.65529	0.9023	0.3335	-0.405
Mof_O 	O 	0.63272	0.5486	0.8865	-0.394
Mof_O 	O 	0.634	0.5993	0.9408	-0.42
Mof_O 	O 	0.4338	0.7456	0.5969	-0.43
Mof_O 	O 	0.64745	0.0154	0.5571	-0.264
Mof_O 	O 	0.43629	0.7828	0.5344	-0.473
Mof_Cu	Cu	0.41305	0.80933	0.534	0.924
Mof_Cu	Cu	0.39554	0.68639	0.7361	0.934
Mof_Cu	Cu	0.407	0.72832	0.61606	0.919
Mof_C 	C 	0.57028	0.3729	0.1283	0.043
Mof_H 	H 	0.5669	0.3797	0.098	0.011
Mof_C 	C 	0.63477	0.0924	0.2359	0.14
Mof_H 	H 	0.6428	0.1048	0.2575	-0.003
Mof_C 	C 	0.5606	0.342	0.153	-0.162
Mof_H 	H 	0.5512	0.3259	0.1386	0.087
Mof_C 	C 	0.58008	0.294	0.0297	-0.164
Mof_H 	H 	0.5704	0.307	0.0461	0.088
Mof_C 	C 	0.62836	0.4083	0.9314	0.109
Mof_H 	H 	0.63	0.4395	0.9389	0.009
Mof_C 	C 	0.634	0.3457	0.8845	0.085
Mof_H 	H 	0.6402	0.333	0.8594	0.019
Mof_C 	C 	0.58301	0.1899	0.0893	0.21
Mof_C 	C 	0.64422	0.0166	0.265	0.413
Mof_C 	C 	0.62044	0.0333	0.2084	0.178
Mof_H 	H 	0.6176	0.0017	0.2095	-0.013
Mof_C 	C 	0.58364	0.2512	0.0352	0.133
Mof_C 	C 	0.55426	0.223	0.0618	0.159
Mof_C 	C 	0.64463	0.4215	0.8625	0.378
Mof_C 	C 	0.57766	0.1503	0.1019	-0.241
Mof_H 	H 	0.5667	0.1399	0.0899	0.115
Mof_C 	C 	0.44951	0.2859	0.1862	0.029
Mof_H 	H 	0.4409	0.3052	0.1726	0.041
Mof_C 	C 	0.4133	0.5486	0.811	0.035
Mof_C 	C 	0.46207	0.2499	0.0638	-0.161
Mof_C 	C 	0.46984	0.2249	0.0982	0.087
Mof_H 	H 	0.463	0.2131	0.1225	0.013
Mof_C 	C 	0.61283	0.1589	0.3958	0.117
Mof_H 	H 	0.6164	0.1659	0.4258	0.01
Mof_C 	C 	0.59895	0.2057	0.1102	-0.213
Mof_H 	H 	0.6031	0.2357	0.1042	0.104
Mof_C 	C 	0.62564	0.1231	0.2079	-0.222
Mof_H 	H 	0.6281	0.1548	0.2087	0.105
Mof_C 	C 	0.61103	0.0583	0.1798	-0.242
Mof_H 	H 	0.6029	0.0442	0.1596	0.114
Mof_C 	C 	0.47985	0.2658	0.2089	0.076
Mof_C 	C 	0.62404	0.3177	0.9127	-0.154
Mof_H 	H 	0.6228	0.2863	0.9056	0.09
Mof_C 	C 	0.63305	0.0471	0.2349	-0.222
Mof_C 	C 	0.60529	0.3068	0.9799	-0.081
Mof_C 	C 	0.60189	0.1883	0.3697	-0.201
Mof_H 	H 	0.5983	0.2169	0.3816	0.102
Mof_C 	C 	0.59662	0.1756	0.3276	0.18
Mof_C 	C 	0.47134	0.2664	0.029	0.082
Mof_H 	H 	0.4656	0.2831	0.0056	0.019
Mof_C 	C 	0.46853	0.2978	0.186	-0.106
Mof_H 	H 	0.473	0.3245	0.1718	0.069
Mof_C 	C 	0.58532	0.2097	0.2995	-0.141
Mof_C 	C 	0.56401	0.3333	0.1981	0.147
Mof_C 	C 	0.60168	0.1382	0.3091	-0.228
Mof_H 	H 	0.5985	0.131	0.2788	0.115
Mof_C 	C 	0.42839	0.3501	0.9526	0.059
Mof_H 	H 	0.4348	0.3222	0.9513	0.008
Mof_C 	C 	0.58643	0.122	0.1309	0.11
Mof_H 	H 	0.5812	0.0934	0.1379	-0.008
Mof_C 	C 	0.42013	0.5094	0.8362	0.088
Mof_C 	C 	0.42454	0.2313	0.203	0.345
Mof_C 	C 	0.49862	0.2351	0.0603	0.119
Mof_C 	C 	0.40867	0.3974	0.989	0.09
Mof_H 	H 	0.4007	0.4028	0.0134	0.007
Mof_C 	C 	0.61975	0.4774	0.069	-0.168
Mof_C 	C 	0.45545	0.2212	0.2321	0.043
Mof_H 	H 	0.451	0.1974	0.2506	0.03
Mof_C 	C 	0.44182	0.2601	0.0639	0.462
Mof_C 	C 	0.59662	0.4243	0.118	0.125
Mof_C 	C 	0.63497	0.3934	0.893	-0.175
Mof_C 	C 	0.56496	0.27	0.249	0.221
Mof_C 	C 	0.58824	0.2181	0.2549	0.14
Mof_H 	H 	0.5978	0.2026	0.2407	-0.018
Mof_C 	C 	0.42088	0.4233	0.9199	0.064
Mof_C 	C 	0.49998	0.2779	0.2118	-0.042
Mof_C 	C 	0.41038	0.4283	0.9577	-0.131
Mof_H 	H 	0.404	0.456	0.9612	0.08
Mof_C 	C 	0.61593	0.3352	0.9511	0.117
Mof_C 	C 	0.53629	0.2939	0.2181	0.14
Mof_C 	C 	0.43014	0.3836	0.9175	-0.114
Mof_H 	H 	0.4378	0.3779	0.8926	0.079
Mof_C 	C 	0.60782	0.1792	0.1376	0.093
Mof_H 	H 	0.6186	0.1907	0.1502	-0.004
Mof_C 	C 	0.42234	0.4518	0.8829	0.072
Mof_C 	C 	0.58434	0.3933	0.1466	-0.076
Mof_C 	C 	0.56195	0.2631	0.2908	-0.248
Mof_H 	H 	0.5521	0.2789	0.3034	0.116
Mof_C 	C 	0.57906	0.245	0.231	-0.251
Mof_H 	H 	0.5819	0.2483	0.1999	0.117
Mof_C 	C 	0.52661	0.228	0.1008	0.047
Mof_H 	H 	0.5203	0.227	0.1286	0.017
Mof_C 	C 	0.58991	0.3221	0.0003	0.053
Mof_H 	H 	0.5859	0.3521	0.9944	0.01
Mof_C 	C 	0.47381	0.2311	0.2309	-0.128
Mof_H 	H 	0.4819	0.2118	0.2465	0.073
Mof_C 	C 	0.59935	0.2307	0.0103	-0.127
Mof_H 	H 	0.602	0.1991	0.0118	0.078
Mof_C 	C 	0.60897	0.2592	0.9868	0.024
Mof_H 	H 	0.6194	0.2473	0.9728	0.021
Mof_C 	C 	0.3953	0.5556	0.8035	-0.097
Mof_H 	H 	0.3862	0.5365	0.8158	0.083
Mof_C 	C 	0.52763	0.2287	0.0219	0.053
Mof_H 	H 	0.5215	0.2283	0.9937	0.007
Mof_C 	C 	0.61203	0.1086	0.3348	0.141
Mof_H 	H 	0.615	0.0795	0.323	0.003
Mof_C 	C 	0.57113	0.236	0.3191	0.108
Mof_H 	H 	0.5684	0.2344	0.3504	-0.008
Mof_C 	C 	0.60238	0.133	0.1504	-0.14
Mof_C 	C 	0.51779	0.232	0.0638	-0.088
Mof_C 	C 	0.5115	0.2422	0.2194	0.012
Mof_H 	H 	0.507	0.2122	0.2225	0.023
Mof_C 	C 	0.4244	0.5831	0.796	-0.077
Mof_H 	H 	0.4368	0.5767	0.7992	0.063
Mof_C 	C 	0.61494	0.4286	0.1305	-0.175
Mof_H 	H 	0.6197	0.4129	0.1559	0.089
Mof_C 	C 	0.629	0.0867	0.4016	0.381
Mof_C 	C 	0.57802	0.3574	0.2179	-0.154
Mof_H 	H 	0.5806	0.353	0.2491	0.085
Mof_C 	C 	0.3914	0.5953	0.7748	0.054
Mof_H 	H 	0.3805	0.5947	0.7583	0.019
Mof_C 	C 	0.61777	0.1202	0.3749	-0.19
Mof_C 	C 	0.4208	0.626	0.7771	0.018
Mof_H 	H 	0.4296	0.6479	0.77	0.04
Mof_C 	C 	0.61311	0.1056	0.1795	0.18
Mof_C 	C 	0.50603	0.3206	0.2041	0.005
Mof_H 	H 	0.498	0.3447	0.1975	0.029
Mof_C 	C 	0.60146	0.4714	0.0565	0.082
Mof_H 	H 	0.5968	0.4867	0.0308	0.013
Mof_C 	C 	0.49042	0.2579	0.0279	-0.159
Mof_H 	H 	0.4972	0.2691	0.0032	0.086
Mof_C 	C 	0.44461	0.246	0.2068	-0.096
Mof_C 	C 	0.54579	0.2248	0.1014	-0.171
Mof_H 	H 	0.5522	0.2241	0.1292	0.09
Mof_C 	C 	0.58801	0.3865	0.1938	0.037
Mof_H 	H 	0.5975	0.4026	0.2079	0.016
Mof_C 	C 	0.54588	0.2261	0.0234	-0.171
Mof_H 	H 	0.5525	0.2266	0.996	0.089
Mof_C 	C 	0.62963	0.5074	0.0408	0.323
Mof_C 	C 	0.5256	0.3284	0.2063	-0.141
Mof_H 	H 	0.5304	0.3575	0.1995	0.082
Mof_C 	C 	0.61921	0.3813	0.9611	-0.17
Mof_H 	H 	0.615	0.3938	0.9887	0.091
Mof_C 	C 	0.59055	0.4432	0.0821	-0.176
Mof_H 	H 	0.5786	0.4378	0.0729	0.09
Mof_C 	C 	0.62529	0.4558	0.1046	0.109
Mof_H 	H 	0.6374	0.4593	0.113	0.009
Mof_C 	C 	0.52972	0.25	0.2226	-0.143
Mof_H 	H 	0.5376	0.2253	0.2278	0.082
Mof_C 	C 	0.48785	0.2179	0.0958	-0.155
Mof_H 	H 	0.4934	0.2007	0.1191	0.083
Mof_N 	N 	0.41292	0.4923	0.8754	-0.086
Mof_N 	N 	0.41744	0.3595	0.9877	-0.215
Mof_N 	N 	0.43306	0.4477	0.8475	-0.084
Mof_N 	N 	0.40007	0.5106	0.9024	-0.232
Mof_H 	H 	0.3953	0.537	0.8954	0.144
Mof_H 	H 	0.3966	0.496	0.9268	0.139
Mof_N 	N 	0.4018	0.6327	0.7696	-0.202
Mof_N 	N 	0.43198	0.4813	0.8184	-0.087
Mof_N 	N 	0.57407	0.2169	0.0602	-0.191
Mof_N 	N 	0.55481	0.3007	0.2229	-0.195
Mof_O 	O 	0.62575	0.5268	0.0071	-0.405
Mof_O 	O 	0.64506	0.9763	0.255	-0.441
Mof_O 	O 	0.65185	0.037	0.2978	-0.407
Mof_O 	O 	0.41481	0.2546	0.177	-0.389
Mof_O 	O 	0.64213	0.4633	0.8633	-0.398
Mof_O 	O 	0.42038	0.2015	0.2298	-0.418
Mof_O 	O 	0.65529	0.4023	0.8335	-0.405
Mof_O 	O 	0.63272	0.0486	0.3865	-0.394
Mof_O 	O 	0.634	0.0993	0.4408	-0.418
Mof_O 	O 	0.4338	0.2456	0.0969	-0.429
Mof_O 	O 	0.64745	0.5154	0.0571	-0.262
Mof_O 	O 	0.43629	0.2828	0.0344	-0.472
Mof_Cu	Cu	0.41305	0.30933	0.034	0.925
Mof_Cu	Cu	0.39554	0.18639	0.2361	0.934
Mof_Cu	Cu	0.407	0.22832	0.11606	0.919
Mof_C 	C 	0.32028	0.3771	0.3783	0.044
Mof_H 	H 	0.3169	0.3703	0.348	0.011
Mof_C 	C 	0.38477	0.6576	0.4859	0.139
Mof_H 	H 	0.3928	0.6452	0.5075	-0.003
Mof_C 	C 	0.3106	0.408	0.403	-0.162
Mof_H 	H 	0.3012	0.4241	0.3886	0.087
Mof_C 	C 	0.33008	0.456	0.2797	-0.153
Mof_H 	H 	0.3204	0.443	0.2961	0.083
Mof_C 	C 	0.37836	0.3417	0.1814	0.106
Mof_H 	H 	0.38	0.3105	0.1889	0.011
Mof_C 	C 	0.384	0.4043	0.1345	0.083
Mof_H 	H 	0.3902	0.417	0.1094	0.02
Mof_C 	C 	0.33301	0.5601	0.3393	0.21
Mof_C 	C 	0.39422	0.7334	0.515	0.412
Mof_C 	C 	0.37044	0.7167	0.4584	0.178
Mof_H 	H 	0.3676	0.7483	0.4595	-0.013
Mof_C 	C 	0.33364	0.4988	0.2852	0.129
Mof_C 	C 	0.30426	0.527	0.3118	0.161
Mof_C 	C 	0.39463	0.3285	0.1125	0.377
Mof_C 	C 	0.32766	0.5997	0.3519	-0.241
Mof_H 	H 	0.3167	0.6101	0.3399	0.114
Mof_C 	C 	0.19951	0.4641	0.4362	0.028
Mof_H 	H 	0.1909	0.4448	0.4226	0.041
Mof_C 	C 	0.1633	0.2014	0.061	0.036
Mof_C 	C 	0.21207	0.5001	0.3138	-0.162
Mof_C 	C 	0.21984	0.5251	0.3482	0.087
Mof_H 	H 	0.213	0.5369	0.3725	0.013
Mof_C 	C 	0.36283	0.5911	0.6458	0.118
Mof_H 	H 	0.3664	0.5841	0.6758	0.01
Mof_C 	C 	0.34895	0.5443	0.3602	-0.212
Mof_H 	H 	0.3531	0.5143	0.3542	0.104
Mof_C 	C 	0.37564	0.6269	0.4579	-0.222
Mof_H 	H 	0.3781	0.5952	0.4587	0.105
Mof_C 	C 	0.36103	0.6917	0.4298	-0.242
Mof_H 	H 	0.3529	0.7058	0.4096	0.114
Mof_C 	C 	0.22985	0.4842	0.4589	0.076
Mof_C 	C 	0.37404	0.4323	0.1627	-0.149
Mof_H 	H 	0.3728	0.4637	0.1556	0.088
Mof_C 	C 	0.38305	0.7029	0.4849	-0.222
Mof_C 	C 	0.35529	0.4432	0.2299	-0.067
Mof_C 	C 	0.35189	0.5617	0.6197	-0.201
Mof_H 	H 	0.3483	0.5331	0.6316	0.102
Mof_C 	C 	0.34662	0.5744	0.5776	0.18
Mof_C 	C 	0.22134	0.4836	0.279	0.081
Mof_H 	H 	0.2156	0.4669	0.2556	0.018
Mof_C 	C 	0.21853	0.4522	0.436	-0.106
Mof_H 	H 	0.223	0.4255	0.4218	0.069
Mof_C 	C 	0.33532	0.5403	0.5495	-0.141
Mof_C 	C 	0.31401	0.4167	0.4481	0.147
Mof_C 	C 	0.35168	0.6118	0.5591	-0.228
Mof_H 	H 	0.3485	0.619	0.5288	0.115
Mof_C 	C 	0.17839	0.3999	0.2026	0.062
Mof_H 	H 	0.1848	0.4278	0.2013	0.009
Mof_C 	C 	0.33643	0.628	0.3809	0.11
Mof_H 	H 	0.3312	0.6566	0.3879	-0.008
Mof_C 	C 	0.17013	0.2406	0.0862	0.088
Mof_C 	C 	0.17454	0.5187	0.453	0.345
Mof_C 	C 	0.24862	0.5149	0.3103	0.117
Mof_C 	C 	0.15867	0.3526	0.239	0.107
Mof_H 	H 	0.1507	0.3472	0.2634	-0.002
Mof_C 	C 	0.36975	0.2726	0.319	-0.17
Mof_C 	C 	0.20545	0.5288	0.4821	0.043
Mof_H 	H 	0.201	0.5526	0.5006	0.03
Mof_C 	C 	0.19182	0.4899	0.3139	0.462
Mof_C 	C 	0.34662	0.3257	0.368	0.125
Mof_C 	C 	0.38497	0.3566	0.143	-0.172
Mof_C 	C 	0.31496	0.48	0.499	0.221
Mof_C 	C 	0.33824	0.5319	0.5049	0.14
Mof_H 	H 	0.3478	0.5474	0.4907	-0.018
Mof_C 	C 	0.17088	0.3267	0.1699	0.07
Mof_C 	C 	0.24998	0.4721	0.4618	-0.042
Mof_C 	C 	0.16038	0.3217	0.2077	-0.142
Mof_H 	H 	0.154	0.294	0.2112	0.086
Mof_C 	C 	0.36593	0.4148	0.2011	0.11
Mof_C 	C 	0.28629	0.4561	0.4681	0.14
Mof_C 	C 	0.18014	0.3664	0.1675	-0.117
Mof_H 	H 	0.1878	0.3721	0.1426	0.081
Mof_C 	C 	0.35782	0.5708	0.3876	0.093
Mof_H 	H 	0.3686	0.5593	0.4002	-0.004
Mof_C 	C 	0.17234	0.2982	0.1329	0.071
Mof_C 	C 	0.33434	0.3567	0.3966	-0.076
Mof_C 	C 	0.31195	0.4869	0.5408	-0.248
Mof_H 	H 	0.3021	0.4711	0.5534	0.116
Mof_C 	C 	0.32906	0.505	0.481	-0.251
Mof_H 	H 	0.3319	0.5017	0.4499	0.117
Mof_C 	C 	0.27661	0.522	0.3508	0.046
Mof_H 	H 	0.2703	0.523	0.3786	0.017
Mof_C 	C 	0.33991	0.4279	0.2503	0.028
Mof_H 	H 	0.3359	0.3979	0.2444	0.022
Mof_C 	C 	0.22381	0.5189	0.4809	-0.128
Mof_H 	H 	0.2319	0.5382	0.4965	0.073
Mof_C 	C 	0.34935	0.5193	0.2603	-0.131
Mof_H 	H 	0.352	0.5509	0.2618	0.078
Mof_C 	C 	0.35897	0.4908	0.2368	0.027
Mof_H 	H 	0.3694	0.5027	0.2228	0.021
Mof_C 	C 	0.1453	0.1944	0.0535	-0.096
Mof_H 	H 	0.1362	0.2135	0.0658	0.083
Mof_C 	C 	0.27763	0.5213	0.2719	0.046
Mof_H 	H 	0.2715	0.5217	0.2437	0.014
Mof_C 	C 	0.36203	0.6414	0.5848	0.141
Mof_H 	H 	0.365	0.6705	0.573	0.003
Mof_C 	C 	0.32113	0.514	0.5691	0.108
Mof_H 	H 	0.3184	0.5156	0.6004	-0.008
Mof_C 	C 	0.35238	0.617	0.4004	-0.14
Mof_C 	C 	0.26779	0.518	0.3138	-0.085
Mof_C 	C 	0.2615	0.5078	0.4694	0.012
Mof_H 	H 	0.257	0.5378	0.4725	0.023
Mof_C 	C 	0.1744	0.1669	0.046	-0.077
Mof_H 	H 	0.1868	0.1733	0.0492	0.064
Mof_C 	C 	0.36494	0.3214	0.3805	-0.177
Mof_H 	H 	0.3697	0.3371	0.4059	0.089
Mof_C 	C 	0.379	0.6633	0.6516	0.381
Mof_C 	C 	0.32802	0.3926	0.4679	-0.155
Mof_H 	H 	0.3306	0.397	0.4991	0.085
Mof_C 	C 	0.1414	0.1547	0.0248	0.054
Mof_H 	H 	0.1305	0.1553	0.0083	0.021
Mof_C 	C 	0.36777	0.6298	0.6249	-0.19
Mof_C 	C 	0.1708	0.124	0.0271	0.02
Mof_H 	H 	0.1796	0.1021	0.02	0.041
Mof_C 	C 	0.36311	0.6444	0.4295	0.179
Mof_C 	C 	0.25603	0.4294	0.4541	0.005
Mof_H 	H 	0.248	0.4053	0.4475	0.029
Mof_C 	C 	0.35146	0.2786	0.3065	0.082
Mof_H 	H 	0.3468	0.2633	0.2808	0.011
Mof_C 	C 	0.24042	0.4921	0.2779	-0.158
Mof_H 	H 	0.2472	0.4809	0.2532	0.084
Mof_C 	C 	0.19461	0.504	0.4568	-0.096
Mof_C 	C 	0.29579	0.5252	0.3514	-0.172
Mof_H 	H 	0.3022	0.5259	0.3792	0.09
Mof_C 	C 	0.33801	0.3635	0.4438	0.037
Mof_H 	H 	0.3475	0.3474	0.4579	0.016
Mof_C 	C 	0.29588	0.5239	0.2734	-0.179
Mof_H 	H 	0.3025	0.5234	0.246	0.097
Mof_C 	C 	0.37963	0.2426	0.2908	0.323
Mof_C 	C 	0.2756	0.4216	0.4563	-0.141
Mof_H 	H 	0.2804	0.3925	0.4495	0.082
Mof_C 	C 	0.36921	0.3687	0.2111	-0.165
Mof_H 	H 	0.365	0.3562	0.2387	0.091
Mof_C 	C 	0.34055	0.3068	0.3321	-0.178
Mof_H 	H 	0.3286	0.3122	0.3229	0.09
Mof_C 	C 	0.37529	0.2942	0.3546	0.11
Mof_H 	H 	0.3874	0.2907	0.363	0.008
Mof_C 	C 	0.27972	0.5	0.4726	-0.143
Mof_H 	H 	0.2876	0.5247	0.4778	0.082
Mof_C 	C 	0.23785	0.5321	0.3458	-0.154
Mof_H 	H 	0.2434	0.5493	0.3691	0.083
Mof_N 	N 	0.16292	0.2577	0.1254	-0.085
Mof_N 	N 	0.16744	0.3905	0.2377	-0.216
Mof_N 	N 	0.18306	0.3023	0.0975	-0.083
Mof_N 	N 	0.15007	0.2394	0.1524	-0.232
Mof_H 	H 	0.1453	0.213	0.1454	0.144
Mof_H 	H 	0.1466	0.254	0.1768	0.14
Mof_N 	N 	0.1518	0.1173	0.0196	-0.2
Mof_N 	N 	0.18198	0.2687	0.0684	-0.086
Mof_N 	N 	0.32407	0.5331	0.3102	-0.19
Mof_N 	N 	0.30481	0.4493	0.4729	-0.195
Mof_O 	O 	0.37575	0.2232	0.2571	-0.409
Mof_O 	O 	0.39506	0.7737	0.505	-0.44
Mof_O 	O 	0.40185	0.713	0.5478	-0.407
Mof_O 	O 	0.16481	0.4954	0.427	-0.389
Mof_O 	O 	0.39213	0.2867	0.1133	-0.397
Mof_O 	O 	0.17038	0.5485	0.4798	-0.418
Mof_O 	O 	0.40529	0.3477	0.0835	-0.404
Mof_O 	O 	0.38272	0.7014	0.6365	-0.394
Mof_O 	O 	0.384	0.6507	0.6908	-0.418
Mof_O 	O 	0.1838	0.5044	0.3469	-0.43
Mof_O 	O 	0.39745	0.2346	0.3071	-0.264
Mof_O 	O 	0.18629	0.4672	0.2844	-0.473
Mof_Cu	Cu	0.16305	0.44067	0.284	0.924
Mof_Cu	Cu	0.14554	0.56361	0.4861	0.934
Mof_Cu	Cu	0.157	0.52168	0.36606	0.919
Mof_C 	C 	0.32028	0.8771	0.8783	0.043
Mof_H 	H 	0.3169	0.8703	0.848	0.011
Mof_C 	C 	0.38477	0.1576	0.9859	0.127
Mof_H 	H 	0.3928	0.1452	0.0075	0.005
Mof_C 	C 	0.3106	0.908	0.903	-0.162
Mof_H 	H 	0.3012	0.9241	0.8886	0.087
Mof_C 	C 	0.33008	0.956	0.7797	-0.149
Mof_H 	H 	0.3204	0.943	0.7961	0.082
Mof_C 	C 	0.37836	0.8417	0.6814	0.105
Mof_H 	H 	0.38	0.8105	0.6889	0.011
Mof_C 	C 	0.384	0.9043	0.6345	0.082
Mof_H 	H 	0.3902	0.917	0.6094	0.02
Mof_C 	C 	0.33301	0.0601	0.8393	0.209
Mof_C 	C 	0.39422	0.2334	0.015	0.415
Mof_C 	C 	0.37044	0.2167	0.9584	0.177
Mof_H 	H 	0.3676	0.2483	0.9595	-0.014
Mof_C 	C 	0.33364	0.9988	0.7852	0.124
Mof_C 	C 	0.30426	0.027	0.8118	0.161
Mof_C 	C 	0.39463	0.8285	0.6125	0.377
Mof_C 	C 	0.32766	0.0997	0.8519	-0.24
Mof_H 	H 	0.3167	0.1101	0.8399	0.114
Mof_C 	C 	0.19951	0.9641	0.9362	0.019
Mof_H 	H 	0.1909	0.9448	0.9226	0.043
Mof_C 	C 	0.1633	0.7014	0.561	0.035
Mof_C 	C 	0.21207	0.0001	0.8138	-0.159
Mof_C 	C 	0.21984	0.0251	0.8482	0.085
Mof_H 	H 	0.213	0.0369	0.8725	0.014
Mof_C 	C 	0.36283	0.0911	0.1458	0.125
Mof_H 	H 	0.3664	0.0841	0.1758	0.008
Mof_C 	C 	0.34895	0.0443	0.8602	-0.212
Mof_H 	H 	0.3531	0.0143	0.8542	0.103
Mof_C 	C 	0.37564	0.1269	0.9579	-0.216
Mof_H 	H 	0.3781	0.0952	0.9587	0.102
Mof_C 	C 	0.36103	0.1917	0.9298	-0.24
Mof_H 	H 	0.3529	0.2058	0.9096	0.112
Mof_C 	C 	0.22985	0.9842	0.9589	0.067
Mof_C 	C 	0.37404	0.9323	0.6627	-0.148
Mof_H 	H 	0.3728	0.9637	0.6556	0.087
Mof_C 	C 	0.38305	0.2029	0.9849	-0.223
Mof_C 	C 	0.35529	0.9432	0.7299	-0.064
Mof_C 	C 	0.35189	0.0617	0.1197	-0.21
Mof_H 	H 	0.3483	0.0331	0.1316	0.106
Mof_C 	C 	0.34662	0.0744	0.0776	0.194
Mof_C 	C 	0.22134	0.9836	0.779	0.079
Mof_H 	H 	0.2156	0.9669	0.7556	0.018
Mof_C 	C 	0.21853	0.9522	0.936	-0.099
Mof_H 	H 	0.223	0.9255	0.9218	0.066
Mof_C 	C 	0.33532	0.0403	0.0495	-0.161
Mof_C 	C 	0.31401	0.9167	0.9481	0.147
Mof_C 	C 	0.35168	0.1118	0.0591	-0.239
Mof_H 	H 	0.3485	0.119	0.0288	0.121
Mof_C 	C 	0.17839	0.8999	0.7026	0.062
Mof_H 	H 	0.1848	0.9278	0.7013	0.009
Mof_C 	C 	0.33643	0.128	0.8809	0.108
Mof_H 	H 	0.3312	0.1566	0.8879	-0.008
Mof_C 	C 	0.17013	0.7406	0.5862	0.088
Mof_C 	C 	0.17454	0.0187	0.953	0.343
Mof_C 	C 	0.24862	0.0149	0.8103	0.117
Mof_C 	C 	0.15867	0.8526	0.739	0.107
Mof_H 	H 	0.1507	0.8472	0.7634	-0.002
Mof_C 	C 	0.36975	0.7726	0.819	-0.17
Mof_C 	C 	0.20545	0.0288	0.9821	0.022
Mof_H 	H 	0.201	0.0526	0.0006	0.042
Mof_C 	C 	0.19182	0.9899	0.8139	0.459
Mof_C 	C 	0.34662	0.8257	0.868	0.125
Mof_C 	C 	0.38497	0.8566	0.643	-0.172
Mof_C 	C 	0.31496	0.98	0.999	0.229
Mof_C 	C 	0.33824	0.0319	0.0049	0.183
Mof_H 	H 	0.3478	0.0474	0.9907	-0.036
Mof_C 	C 	0.17088	0.8267	0.6699	0.07
Mof_C 	C 	0.24998	0.9721	0.9618	-0.039
Mof_C 	C 	0.16038	0.8217	0.7077	-0.142
Mof_H 	H 	0.154	0.794	0.7112	0.086
Mof_C 	C 	0.36593	0.9148	0.7011	0.108
Mof_C 	C 	0.28629	0.9561	0.9681	0.137
Mof_C 	C 	0.18014	0.8664	0.6675	-0.117
Mof_H 	H 	0.1878	0.8721	0.6426	0.081
Mof_C 	C 	0.35782	0.0708	0.8876	0.092
Mof_H 	H 	0.3686	0.0593	0.9002	-0.004
Mof_C 	C 	0.17234	0.7982	0.6329	0.071
Mof_C 	C 	0.33434	0.8567	0.8966	-0.076
Mof_C 	C 	0.31195	0.9869	0.0408	-0.255
Mof_H 	H 	0.3021	0.9711	0.0534	0.119
Mof_C 	C 	0.32906	0.005	0.981	-0.284
Mof_H 	H 	0.3319	0.0017	0.9499	0.128
Mof_C 	C 	0.27661	0.022	0.8508	0.046
Mof_H 	H 	0.2703	0.023	0.8786	0.017
Mof_C 	C 	0.33991	0.9279	0.7503	0.025
Mof_H 	H 	0.3359	0.8979	0.7444	0.023
Mof_C 	C 	0.22381	0.0189	0.9809	-0.114
Mof_H 	H 	0.2319	0.0382	0.9965	0.067
Mof_C 	C 	0.34935	0.0193	0.7603	-0.125
Mof_H 	H 	0.352	0.0509	0.7618	0.076
Mof_C 	C 	0.35897	0.9908	0.7368	0.02
Mof_H 	H 	0.3694	0.0027	0.7228	0.024
Mof_C 	C 	0.1453	0.6944	0.5535	-0.097
Mof_H 	H 	0.1362	0.7135	0.5658	0.083
Mof_C 	C 	0.27763	0.0213	0.7719	0.046
Mof_H 	H 	0.2715	0.0217	0.7437	0.014
Mof_C 	C 	0.36203	0.1414	0.0848	0.15
Mof_H 	H 	0.365	0.1705	0.073	0.001
Mof_C 	C 	0.32113	0.014	0.0691	0.123
Mof_H 	H 	0.3184	0.0156	0.1004	-0.012
Mof_C 	C 	0.35238	0.117	0.9004	-0.138
Mof_C 	C 	0.26779	0.018	0.8138	-0.085
Mof_C 	C 	0.2615	0.0078	0.9694	0.01
Mof_H 	H 	0.257	0.0378	0.9725	0.023
Mof_C 	C 	0.1744	0.6669	0.546	-0.077
Mof_H 	H 	0.1868	0.6733	0.5492	0.063
Mof_C 	C 	0.36494	0.8214	0.8805	-0.177
Mof_H 	H 	0.3697	0.8371	0.9059	0.088
Mof_C 	C 	0.379	0.1633	0.1516	0.383
Mof_C 	C 	0.32802	0.8926	0.9679	-0.155
Mof_H 	H 	0.3306	0.897	0.9991	0.084
Mof_C 	C 	0.1414	0.6547	0.5248	0.054
Mof_H 	H 	0.1305	0.6553	0.5083	0.019
Mof_C 	C 	0.36777	0.1298	0.1249	-0.196
Mof_C 	C 	0.1708	0.624	0.5271	0.019
Mof_H 	H 	0.1796	0.6021	0.52	0.04
Mof_C 	C 	0.36311	0.1444	0.9295	0.175
Mof_C 	C 	0.25603	0.9294	0.9541	0.002
Mof_H 	H 	0.248	0.9053	0.9475	0.029
Mof_C 	C 	0.35146	0.7786	0.8065	0.082
Mof_H 	H 	0.3468	0.7633	0.7808	0.011
Mof_C 	C 	0.24042	0.9921	0.7779	-0.158
Mof_H 	H 	0.2472	0.9809	0.7532	0.084
Mof_C 	C 	0.19461	0.004	0.9568	-0.085
Mof_C 	C 	0.29579	0.0252	0.8514	-0.172
Mof_H 	H 	0.3022	0.0259	0.8792	0.09
Mof_C 	C 	0.33801	0.8635	0.9438	0.037
Mof_H 	H 	0.3475	0.8474	0.9579	0.015
Mof_C 	C 	0.29588	0.0239	0.7734	-0.178
Mof_H 	H 	0.3025	0.0234	0.746	0.096
Mof_C 	C 	0.37963	0.7426	0.7908	0.323
Mof_C 	C 	0.2756	0.9216	0.9563	-0.14
Mof_H 	H 	0.2804	0.8925	0.9495	0.081
Mof_C 	C 	0.36921	0.8687	0.7111	-0.164
Mof_H 	H 	0.365	0.8562	0.7387	0.09
Mof_C 	C 	0.34055	0.8068	0.8321	-0.178
Mof_H 	H 	0.3286	0.8122	0.8229	0.09
Mof_C 	C 	0.37529	0.7942	0.8546	0.11
Mof_H 	H 	0.3874	0.7907	0.863	0.008
Mof_C 	C 	0.27972	-1.23925e-32	0.9726	-0.141
Mof_H 	H 	0.2876	0.0247	0.9778	0.08
Mof_C 	C 	0.23785	0.0321	0.8458	-0.153
Mof_H 	H 	0.2434	0.0493	0.8691	0.082
Mof_N 	N 	0.16292	0.7577	0.6254	-0.085
Mof_N 	N 	0.16744	0.8905	0.7377	-0.216
Mof_N 	N 	0.18306	0.8023	0.5975	-0.084
Mof_N 	N 	0.15007	0.7394	0.6524	-0.232
Mof_H 	H 	0.1453	0.713	0.6454	0.144
Mof_H 	H 	0.1466	0.754	0.6768	0.14
Mof_N 	N 	0.1518	0.6173	0.5196	-0.202
Mof_N 	N 	0.18198	0.7687	0.5684	-0.087
Mof_N 	N 	0.32407	0.0331	0.8102	-0.19
Mof_N 	N 	0.30481	0.9493	0.9729	-0.197
Mof_O 	O 	0.37575	0.7232	0.7571	-0.409
Mof_O 	O 	0.39506	0.2737	0.005	-0.438
Mof_O 	O 	0.40185	0.213	0.0478	-0.407
Mof_O 	O 	0.16481	0.9954	0.927	-0.39
Mof_O 	O 	0.39213	0.7867	0.6133	-0.397
Mof_O 	O 	0.17038	0.0485	0.9798	-0.42
Mof_O 	O 	0.40529	0.8477	0.5835	-0.405
Mof_O 	O 	0.38272	0.2014	0.1365	-0.394
Mof_O 	O 	0.384	0.1507	0.1908	-0.418
Mof_O 	O 	0.1838	0.0044	0.8469	-0.428
Mof_O 	O 	0.39745	0.7346	0.8071	-0.264
Mof_O 	O 	0.18629	0.9672	0.7844	-0.473
Mof_Cu	Cu	0.16305	0.94067	0.784	0.924
Mof_Cu	Cu	0.14554	0.06361	0.9861	0.931
Mof_Cu	Cu	0.157	0.02168	0.86606	0.919
Mof_C 	C 	0.82028	0.3771	0.8783	0.044
Mof_H 	H 	0.8169	0.3703	0.848	0.011
Mof_C 	C 	0.88477	0.6576	0.9859	0.127
Mof_H 	H 	0.8928	0.6452	0.0075	0.005
Mof_C 	C 	0.8106	0.408	0.903	-0.162
Mof_H 	H 	0.8012	0.4241	0.8886	0.087
Mof_C 	C 	0.83008	0.456	0.7797	-0.153
Mof_H 	H 	0.8204	0.443	0.7961	0.083
Mof_C 	C 	0.87836	0.3417	0.6814	0.106
Mof_H 	H 	0.88	0.3105	0.6889	0.011
Mof_C 	C 	0.884	0.4043	0.6345	0.083
Mof_H 	H 	0.8902	0.417	0.6094	0.02
Mof_C 	C 	0.83301	0.5601	0.8393	0.209
Mof_C 	C 	0.89422	0.7334	0.015	0.415
Mof_C 	C 	0.87044	0.7167	0.9584	0.176
Mof_H 	H 	0.8676	0.7483	0.9595	-0.014
Mof_C 	C 	0.83364	0.4988	0.7852	0.128
Mof_C 	C 	0.80426	0.527	0.8118	0.161
Mof_C 	C 	0.89463	0.3285	0.6125	0.377
Mof_C 	C 	0.82766	0.5997	0.8519	-0.24
Mof_H 	H 	0.8167	0.6101	0.8399	0.114
Mof_C 	C 	0.69951	0.4641	0.9362	0.022
Mof_H 	H 	0.6909	0.4448	0.9226	0.043
Mof_C 	C 	0.6633	0.2014	0.561	0.035
Mof_C 	C 	0.71207	0.5001	0.8138	-0.162
Mof_C 	C 	0.71984	0.5251	0.8482	0.086
Mof_H 	H 	0.713	0.5369	0.8725	0.013
Mof_C 	C 	0.86283	0.5911	0.1458	0.125
Mof_H 	H 	0.8664	0.5841	0.1758	0.008
Mof_C 	C 	0.84895	0.5443	0.8602	-0.212
Mof_H 	H 	0.8531	0.5143	0.8542	0.103
Mof_C 	C 	0.87564	0.6269	0.9579	-0.216
Mof_H 	H 	0.8781	0.5952	0.9587	0.102
Mof_C 	C 	0.86103	0.6917	0.9298	-0.24
Mof_H 	H 	0.8529	0.7058	0.9096	0.112
Mof_C 	C 	0.72985	0.4842	0.9589	0.069
Mof_C 	C 	0.87404	0.4323	0.6627	-0.149
Mof_H 	H 	0.8728	0.4637	0.6556	0.088
Mof_C 	C 	0.88305	0.7029	0.9849	-0.223
Mof_C 	C 	0.85529	0.4432	0.7299	-0.067
Mof_C 	C 	0.85189	0.5617	0.1197	-0.21
Mof_H 	H 	0.8483	0.5331	0.1316	0.106
Mof_C 	C 	0.84662	0.5744	0.0776	0.194
Mof_C 	C 	0.72134	0.4836	0.779	0.081
Mof_H 	H 	0.7156	0.4669	0.7556	0.018
Mof_C 	C 	0.71853	0.4522	0.936	-0.1
Mof_H 	H 	0.723	0.4255	0.9218	0.067
Mof_C 	C 	0.83532	0.5403	0.0495	-0.161
Mof_C 	C 	0.81401	0.4167	0.9481	0.147
Mof_C 	C 	0.85168	0.6118	0.0591	-0.239
Mof_H 	H 	0.8485	0.619	0.0288	0.121
Mof_C 	C 	0.67839	0.3999	0.7026	0.062
Mof_H 	H 	0.6848	0.4278	0.7013	0.009
Mof_C 	C 	0.83643	0.628	0.8809	0.108
Mof_H 	H 	0.8312	0.6566	0.8879	-0.008
Mof_C 	C 	0.67013	0.2406	0.5862	0.088
Mof_C 	C 	0.67454	0.5187	0.953	0.342
Mof_C 	C 	0.74862	0.5149	0.8103	0.117
Mof_C 	C 	0.65867	0.3526	0.739	0.107
Mof_H 	H 	0.6507	0.3472	0.7634	-0.002
Mof_C 	C 	0.86975	0.2726	0.819	-0.17
Mof_C 	C 	0.70545	0.5288	0.9821	0.024
Mof_H 	H 	0.701	0.5526	0.0006	0.041
Mof_C 	C 	0.69182	0.4899	0.8139	0.462
Mof_C 	C 	0.84662	0.3257	0.868	0.125
Mof_C 	C 	0.88497	0.3566	0.643	-0.172
Mof_C 	C 	0.81496	0.48	0.999	0.23
Mof_C 	C 	0.83824	0.5319	0.0049	0.184
Mof_H 	H 	0.8478	0.5474	0.9907	-0.036
Mof_C 	C 	0.67088	0.3267	0.6699	0.07
Mof_C 	C 	0.74998	0.4721	0.9618	-0.039
Mof_C 	C 	0.66038	0.3217	0.7077	-0.142
Mof_H 	H 	0.654	0.294	0.7112	0.086
Mof_C 	C 	0.86593	0.4148	0.7011	0.11
Mof_C 	C 	0.78629	0.4561	0.9681	0.139
Mof_C 	C 	0.68014	0.3664	0.6675	-0.117
Mof_H 	H 	0.6878	0.3721	0.6426	0.081
Mof_C 	C 	0.85782	0.5708	0.8876	0.092
Mof_H 	H 	0.8686	0.5593	0.9002	-0.004
Mof_C 	C 	0.67234	0.2982	0.6329	0.071
Mof_C 	C 	0.83434	0.3567	0.8966	-0.076
Mof_C 	C 	0.81195	0.4869	0.0408	-0.254
Mof_H 	H 	0.8021	0.4711	0.0534	0.119
Mof_C 	C 	0.82906	0.505	0.981	-0.286
Mof_H 	H 	0.8319	0.5017	0.9499	0.128
Mof_C 	C 	0.77661	0.522	0.8508	0.045
Mof_H 	H 	0.7703	0.523	0.8786	0.017
Mof_C 	C 	0.83991	0.4279	0.7503	0.028
Mof_H 	H 	0.8359	0.3979	0.7444	0.022
Mof_C 	C 	0.72381	0.5189	0.9809	-0.117
Mof_H 	H 	0.7319	0.5382	0.9965	0.068
Mof_C 	C 	0.84935	0.5193	0.7603	-0.131
Mof_H 	H 	0.852	0.5509	0.7618	0.078
Mof_C 	C 	0.85897	0.4908	0.7368	0.027
Mof_H 	H 	0.8694	0.5027	0.7228	0.021
Mof_C 	C 	0.6453	0.1944	0.5535	-0.097
Mof_H 	H 	0.6362	0.2135	0.5658	0.083
Mof_C 	C 	0.77763	0.5213	0.7719	0.046
Mof_H 	H 	0.7715	0.5217	0.7437	0.014
Mof_C 	C 	0.86203	0.6414	0.0848	0.15
Mof_H 	H 	0.865	0.6705	0.073	0.001
Mof_C 	C 	0.82113	0.514	0.0691	0.121
Mof_H 	H 	0.8184	0.5156	0.1004	-0.012
Mof_C 	C 	0.85238	0.617	0.9004	-0.138
Mof_C 	C 	0.76779	0.518	0.8138	-0.085
Mof_C 	C 	0.7615	0.5078	0.9694	0.01
Mof_H 	H 	0.757	0.5378	0.9725	0.023
Mof_C 	C 	0.6744	0.1669	0.546	-0.077
Mof_H 	H 	0.6868	0.1733	0.5492	0.063
Mof_C 	C 	0.86494	0.3214	0.8805	-0.177
Mof_H 	H 	0.8697	0.3371	0.9059	0.088
Mof_C 	C 	0.879	0.6633	0.1516	0.383
Mof_C 	C 	0.82802	0.3926	0.9679	-0.155
Mof_H 	H 	0.8306	0.397	0.9991	0.084
Mof_C 	C 	0.6414	0.1547	0.5248	0.054
Mof_H 	H 	0.6305	0.1553	0.5083	0.019
Mof_C 	C 	0.86777	0.6298	0.1249	-0.196
Mof_C 	C 	0.6708	0.124	0.5271	0.019
Mof_H 	H 	0.6796	0.1021	0.52	0.04
Mof_C 	C 	0.86311	0.6444	0.9295	0.175
Mof_C 	C 	0.75603	0.4294	0.9541	0.003
Mof_H 	H 	0.748	0.4053	0.9475	0.029
Mof_C 	C 	0.85146	0.2786	0.8065	0.082
Mof_H 	H 	0.8468	0.2633	0.7808	0.011
Mof_C 	C 	0.74042	0.4921	0.7779	-0.158
Mof_H 	H 	0.7472	0.4809	0.7532	0.084
Mof_C 	C 	0.69461	0.504	0.9568	-0.087
Mof_C 	C 	0.79579	0.5252	0.8514	-0.172
Mof_H 	H 	0.8022	0.5259	0.8792	0.09
Mof_C 	C 	0.83801	0.3635	0.9438	0.037
Mof_H 	H 	0.8475	0.3474	0.9579	0.015
Mof_C 	C 	0.79588	0.5239	0.7734	-0.179
Mof_H 	H 	0.8025	0.5234	0.746	0.096
Mof_C 	C 	0.87963	0.2426	0.7908	0.323
Mof_C 	C 	0.7756	0.4216	0.9563	-0.141
Mof_H 	H 	0.7804	0.3925	0.9495	0.082
Mof_C 	C 	0.86921	0.3687	0.7111	-0.165
Mof_H 	H 	0.865	0.3562	0.7387	0.091
Mof_C 	C 	0.84055	0.3068	0.8321	-0.178
Mof_H 	H 	0.8286	0.3122	0.8229	0.09
Mof_C 	C 	0.87529	0.2942	0.8546	0.11
Mof_H 	H 	0.8874	0.2907	0.863	0.008
Mof_C 	C 	0.77972	0.5	0.9726	-0.143
Mof_H 	H 	0.7876	0.5247	0.9778	0.08
Mof_C 	C 	0.73785	0.5321	0.8458	-0.154
Mof_H 	H 	0.7434	0.5493	0.8691	0.082
Mof_N 	N 	0.66292	0.2577	0.6254	-0.085
Mof_N 	N 	0.66744	0.3905	0.7377	-0.216
Mof_N 	N 	0.68306	0.3023	0.5975	-0.084
Mof_N 	N 	0.65007	0.2394	0.6524	-0.232
Mof_H 	H 	0.6453	0.213	0.6454	0.144
Mof_H 	H 	0.6466	0.254	0.6768	0.14
Mof_N 	N 	0.6518	0.1173	0.5196	-0.202
Mof_N 	N 	0.68198	0.2687	0.5684	-0.087
Mof_N 	N 	0.82407	0.5331	0.8102	-0.19
Mof_N 	N 	0.80481	0.4493	0.9729	-0.197
Mof_O 	O 	0.87575	0.2232	0.7571	-0.409
Mof_O 	O 	0.89506	0.7737	0.005	-0.438
Mof_O 	O 	0.90185	0.713	0.0478	-0.407
Mof_O 	O 	0.66481	0.4954	0.927	-0.389
Mof_O 	O 	0.89213	0.2867	0.6133	-0.397
Mof_O 	O 	0.67038	0.5485	0.9798	-0.42
Mof_O 	O 	0.90529	0.3477	0.5835	-0.405
Mof_O 	O 	0.88272	0.7014	0.1365	-0.394
Mof_O 	O 	0.884	0.6507	0.1908	-0.418
Mof_O 	O 	0.6838	0.5044	0.8469	-0.43
Mof_O 	O 	0.89745	0.2346	0.8071	-0.264
Mof_O 	O 	0.68629	0.4672	0.7844	-0.473
Mof_Cu	Cu	0.66305	0.44067	0.784	0.924
Mof_Cu	Cu	0.64554	0.56361	0.9861	0.931
Mof_Cu	Cu	0.657	0.52168	0.86606	0.919
Mof_C 	C 	0.82028	0.8771	0.3783	0.043
Mof_H 	H 	0.8169	0.8703	0.348	0.011
Mof_C 	C 	0.88477	0.1576	0.4859	0.139
Mof_H 	H 	0.8928	0.1452	0.5075	-0.003
Mof_C 	C 	0.8106	0.908	0.403	-0.162
Mof_H 	H 	0.8012	0.9241	0.3886	0.087
Mof_C 	C 	0.83008	0.956	0.2797	-0.149
Mof_H 	H 	0.8204	0.943	0.2961	0.082
Mof_C 	C 	0.87836	0.8417	0.1814	0.105
Mof_H 	H 	0.88	0.8105	0.1889	0.011
Mof_C 	C 	0.884	0.9043	0.1345	0.082
Mof_H 	H 	0.8902	0.917	0.1094	0.02
Mof_C 	C 	0.83301	0.0601	0.3393	0.21
Mof_C 	C 	0.89422	0.2334	0.515	0.411
Mof_C 	C 	0.87044	0.2167	0.4584	0.178
Mof_H 	H 	0.8676	0.2483	0.4595	-0.013
Mof_C 	C 	0.83364	0.9988	0.2852	0.124
Mof_C 	C 	0.80426	0.027	0.3118	0.162
Mof_C 	C 	0.89463	0.8285	0.1125	0.377
Mof_C 	C 	0.82766	0.0997	0.3519	-0.241
Mof_H 	H 	0.8167	0.1101	0.3399	0.114
Mof_C 	C 	0.69951	0.9641	0.4362	0.026
Mof_H 	H 	0.6909	0.9448	0.4226	0.042
Mof_C 	C 	0.6633	0.7014	0.061	0.036
Mof_C 	C 	0.71207	0.0001	0.3138	-0.159
Mof_C 	C 	0.71984	0.0251	0.3482	0.085
Mof_H 	H 	0.713	0.0369	0.3725	0.014
Mof_C 	C 	0.86283	0.0911	0.6458	0.118
Mof_H 	H 	0.8664	0.0841	0.6758	0.01
Mof_C 	C 	0.84895	0.0443	0.3602	-0.212
Mof_H 	H 	0.8531	0.0143	0.3542	0.104
Mof_C 	C 	0.87564	0.1269	0.4579	-0.222
Mof_H 	H 	0.8781	0.0952	0.4587	0.105
Mof_C 	C 	0.86103	0.1917	0.4298	-0.242
Mof_H 	H 	0.8529	0.2058	0.4096	0.114
Mof_C 	C 	0.72985	0.9842	0.4589	0.074
Mof_C 	C 	0.87404	0.9323	0.1627	-0.148
Mof_H 	H 	0.8728	0.9637	0.1556	0.087
Mof_C 	C 	0.88305	0.2029	0.4849	-0.222
Mof_C 	C 	0.85529	0.9432	0.2299	-0.063
Mof_C 	C 	0.85189	0.0617	0.6197	-0.201
Mof_H 	H 	0.8483	0.0331	0.6316	0.102
Mof_C 	C 	0.84662	0.0744	0.5776	0.181
Mof_C 	C 	0.72134	0.9836	0.279	0.079
Mof_H 	H 	0.7156	0.9669	0.2556	0.019
Mof_C 	C 	0.71853	0.9522	0.436	-0.104
Mof_H 	H 	0.723	0.9255	0.4218	0.068
Mof_C 	C 	0.83532	0.0403	0.5495	-0.141
Mof_C 	C 	0.81401	0.9167	0.4481	0.147
Mof_C 	C 	0.85168	0.1118	0.5591	-0.228
Mof_H 	H 	0.8485	0.119	0.5288	0.115
Mof_C 	C 	0.67839	0.8999	0.2026	0.062
Mof_H 	H 	0.6848	0.9278	0.2013	0.009
Mof_C 	C 	0.83643	0.128	0.3809	0.109
Mof_H 	H 	0.8312	0.1566	0.3879	-0.008
Mof_C 	C 	0.67013	0.7406	0.0862	0.088
Mof_C 	C 	0.67454	0.0187	0.453	0.346
Mof_C 	C 	0.74862	0.0149	0.3103	0.117
Mof_C 	C 	0.65867	0.8526	0.239	0.107
Mof_H 	H 	0.6507	0.8472	0.2634	-0.002
Mof_C 	C 	0.86975	0.7726	0.319	-0.17
Mof_C 	C 	0.70545	0.0288	0.4821	0.04
Mof_H 	H 	0.701	0.0526	0.5006	0.031
Mof_C 	C 	0.69182	0.9899	0.3139	0.459
Mof_C 	C 	0.84662	0.8257	0.368	0.125
Mof_C 	C 	0.88497	0.8566	0.143	-0.171
Mof_C 	C 	0.81496	0.98	0.499	0.22
Mof_C 	C 	0.83824	0.0319	0.5049	0.14
Mof_H 	H 	0.8478	0.0474	0.4907	-0.017
Mof_C 	C 	0.67088	0.8267	0.1699	0.07
Mof_C 	C 	0.74998	0.9721	0.4618	-0.042
Mof_C 	C 	0.66038	0.8217	0.2077	-0.142
Mof_H 	H 	0.654	0.794	0.2112	0.086
Mof_C 	C 	0.86593	0.9148	0.2011	0.108
Mof_C 	C 	0.78629	0.9561	0.4681	0.139
Mof_C 	C 	0.68014	0.8664	0.1675	-0.117
Mof_H 	H 	0.6878	0.8721	0.1426	0.081
Mof_C 	C 	0.85782	0.0708	0.3876	0.093
Mof_H 	H 	0.8686	0.0593	0.4002	-0.004
Mof_C 	C 	0.67234	0.7982	0.1329	0.071
Mof_C 	C 	0.83434	0.8567	0.3966	-0.076
Mof_C 	C 	0.81195	0.9869	0.5408	-0.249
Mof_H 	H 	0.8021	0.9711	0.5534	0.116
Mof_C 	C 	0.82906	0.005	0.481	-0.25
Mof_H 	H 	0.8319	0.0017	0.4499	0.117
Mof_C 	C 	0.77661	0.022	0.3508	0.046
Mof_H 	H 	0.7703	0.023	0.3786	0.017
Mof_C 	C 	0.83991	0.9279	0.2503	0.025
Mof_H 	H 	0.8359	0.8979	0.2444	0.023
Mof_C 	C 	0.72381	0.0189	0.4809	-0.125
Mof_H 	H 	0.7319	0.0382	0.4965	0.072
Mof_C 	C 	0.84935	0.0193	0.2603	-0.125
Mof_H 	H 	0.852	0.0509	0.2618	0.076
Mof_C 	C 	0.85897	0.9908	0.2368	0.02
Mof_H 	H 	0.8694	0.0027	0.2228	0.024
Mof_C 	C 	0.6453	0.6944	0.0535	-0.096
Mof_H 	H 	0.6362	0.7135	0.0658	0.083
Mof_C 	C 	0.77763	0.0213	0.2719	0.046
Mof_H 	H 	0.7715	0.0217	0.2437	0.014
Mof_C 	C 	0.86203	0.1414	0.5848	0.141
Mof_H 	H 	0.865	0.1705	0.573	0.003
Mof_C 	C 	0.82113	0.014	0.5691	0.11
Mof_H 	H 	0.8184	0.0156	0.6004	-0.008
Mof_C 	C 	0.85238	0.117	0.4004	-0.139
Mof_C 	C 	0.76779	0.018	0.3138	-0.085
Mof_C 	C 	0.7615	0.0078	0.4694	0.012
Mof_H 	H 	0.757	0.0378	0.4725	0.023
Mof_C 	C 	0.6744	0.6669	0.046	-0.077
Mof_H 	H 	0.6868	0.6733	0.0492	0.064
Mof_C 	C 	0.86494	0.8214	0.3805	-0.177
Mof_H 	H 	0.8697	0.8371	0.4059	0.089
Mof_C 	C 	0.879	0.1633	0.6516	0.381
Mof_C 	C 	0.82802	0.8926	0.4679	-0.155
Mof_H 	H 	0.8306	0.897	0.4991	0.085
Mof_C 	C 	0.6414	0.6547	0.0248	0.054
Mof_H 	H 	0.6305	0.6553	0.0083	0.021
Mof_C 	C 	0.86777	0.1298	0.6249	-0.19
Mof_C 	C 	0.6708	0.624	0.0271	0.02
Mof_H 	H 	0.6796	0.6021	0.02	0.042
Mof_C 	C 	0.86311	0.1444	0.4295	0.179
Mof_C 	C 	0.75603	0.9294	0.4541	0.004
Mof_H 	H 	0.748	0.9053	0.4475	0.029
Mof_C 	C 	0.85146	0.7786	0.3065	0.082
Mof_H 	H 	0.8468	0.7633	0.2808	0.011
Mof_C 	C 	0.74042	0.9921	0.2779	-0.158
Mof_H 	H 	0.7472	0.9809	0.2532	0.084
Mof_C 	C 	0.69461	0.004	0.4568	-0.093
Mof_C 	C 	0.79579	0.0252	0.3514	-0.172
Mof_H 	H 	0.8022	0.0259	0.3792	0.09
Mof_C 	C 	0.83801	0.8635	0.4438	0.037
Mof_H 	H 	0.8475	0.8474	0.4579	0.016
Mof_C 	C 	0.79588	0.0239	0.2734	-0.179
Mof_H 	H 	0.8025	0.0234	0.246	0.097
Mof_C 	C 	0.87963	0.7426	0.2908	0.323
Mof_C 	C 	0.7756	0.9216	0.4563	-0.141
Mof_H 	H 	0.7804	0.8925	0.4495	0.082
Mof_C 	C 	0.86921	0.8687	0.2111	-0.163
Mof_H 	H 	0.865	0.8562	0.2387	0.09
Mof_C 	C 	0.84055	0.8068	0.3321	-0.178
Mof_H 	H 	0.8286	0.8122	0.3229	0.09
Mof_C 	C 	0.87529	0.7942	0.3546	0.11
Mof_H 	H 	0.8874	0.7907	0.363	0.008
Mof_C 	C 	0.77972	-6.19626e-33	0.4726	-0.142
Mof_H 	H 	0.7876	0.0247	0.4778	0.081
Mof_C 	C 	0.73785	0.0321	0.3458	-0.153
Mof_H 	H 	0.7434	0.0493	0.3691	0.082
Mof_N 	N 	0.66292	0.7577	0.1254	-0.085
Mof_N 	N 	0.66744	0.8905	0.2377	-0.216
Mof_N 	N 	0.68306	0.8023	0.0975	-0.083
Mof_N 	N 	0.65007	0.7394	0.1524	-0.232
Mof_H 	H 	0.6453	0.713	0.1454	0.144
Mof_H 	H 	0.6466	0.754	0.1768	0.14
Mof_N 	N 	0.6518	0.6173	0.0196	-0.2
Mof_N 	N 	0.68198	0.7687	0.0684	-0.086
Mof_N 	N 	0.82407	0.0331	0.3102	-0.19
Mof_N 	N 	0.80481	0.9493	0.4729	-0.195
Mof_O 	O 	0.87575	0.7232	0.2571	-0.409
Mof_O 	O 	0.89506	0.2737	0.505	-0.44
Mof_O 	O 	0.90185	0.213	0.5478	-0.407
Mof_O 	O 	0.66481	0.9954	0.427	-0.39
Mof_O 	O 	0.89213	0.7867	0.1133	-0.397
Mof_O 	O 	0.67038	0.0485	0.4798	-0.418
Mof_O 	O 	0.90529	0.8477	0.0835	-0.404
Mof_O 	O 	0.88272	0.2014	0.6365	-0.394
Mof_O 	O 	0.884	0.1507	0.6908	-0.418
Mof_O 	O 	0.6838	0.0044	0.3469	-0.428
Mof_O 	O 	0.89745	0.7346	0.3071	-0.264
Mof_O 	O 	0.68629	0.9672	0.2844	-0.473
Mof_Cu	Cu	0.66305	0.94067	0.284	0.924
Mof_Cu	Cu	0.64554	0.06361	0.4861	0.934
Mof_Cu	Cu	0.657	0.02168	0.36606	0.919
_end
