data_functionalizedCrystal
_audit_creation_method	'EQeq! by Chris Wilmer'
_symmetry_space_group_name_H-M	'P1'
_symmetry_Int_Tables_number	1
_symmetry_cell_setting	triclinic
loop_
_symmetry_equiv_pos_as_xyz
  x,y,z
_cell_length_a	11.0252
_cell_length_b	12.6045
_cell_length_c	16.008
_cell_angle_alpha	100.237
_cell_angle_beta	106.07
_cell_angle_gamma	95.725
loop_
_atom_site_label
_atom_site_type_symbol
_atom_site_fract_x
_atom_site_fract_y
_atom_site_fract_z
_atom_site_charge
Mof_Tb	Tb	0.05916	0.2404	0.628	1.786
Mof_Tb	Tb	0.50248	0.2591	0.88275	1.735
Mof_O 	O 	0.412	0.3803	0.4	-0.258
Mof_O 	O 	0.5965	0.5766	0.1704	-0.772
Mof_O 	O 	0.3869	0.5643	0.123	-0.725
Mof_O 	O 	0.493	0.2028	0.0238	-0.461
Mof_O 	O 	0.4869	0.3756	0.0188	-0.881
Mof_O 	O 	0.8781	0.3207	0.6707	-0.464
Mof_O 	O 	0.8489	0.2556	0.5292	-0.679
Mof_O 	O 	0.269	0.2238	0.6278	-0.699
Mof_O 	O 	0.447	0.2173	0.7309	-0.604
Mof_O 	O 	0.1378	0.1155	0.1109	-0.275
Mof_O 	O 	0.1059	0.9166	0.3707	-0.686
Mof_O 	O 	0.9039	0.938	0.3292	-0.705
Mof_O 	O 	0.038	0.1225	0.4846	-0.855
Mof_O 	O 	0.0788	0.2994	0.4919	-0.479
Mof_O 	O 	0.127	0.2757	0.7813	-0.648
Mof_O 	O 	0.2878	0.2111	0.8653	-0.586
Mof_O 	O 	0.7007	0.2243	0.8452	-0.458
Mof_O 	O 	0.7219	0.2775	0.9872	-0.72
Mof_C 	C 	0.4407	0.3567	0.3203	0.19
Mof_C 	C 	0.4532	0.4431	0.2802	-0.153
Mof_H 	H 	0.4507	0.5133	0.3093	0.089
Mof_C 	C 	0.4698	0.4256	0.1953	-0.073
Mof_C 	C 	0.4738	0.3209	0.1524	-0.204
Mof_C 	C 	0.4619	0.2351	0.1954	0.085
Mof_H 	H 	0.4646	0.1647	0.167	-0.041
Mof_C 	C 	0.4463	0.2518	0.2787	-0.226
Mof_H 	H 	0.4396	0.1938	0.3067	0.033
Mof_C 	C 	0.4867	0.5269	0.1593	0.381
Mof_C 	C 	0.486	0.2977	0.0602	0.369
Mof_C 	C 	0.4766	0.3381	0.4715	0.107
Mof_C 	C 	0.6048	0.3328	0.4918	-0.09
Mof_H 	H 	0.6505	0.3498	0.4537	0.02
Mof_C 	C 	0.6658	0.3016	0.5703	-0.175
Mof_C 	C 	0.5964	0.2734	0.6256	0.038
Mof_H 	H 	0.6376	0.2547	0.6788	-0.012
Mof_C 	C 	0.4654	0.2732	0.6012	-0.215
Mof_C 	C 	0.4049	0.3067	0.5239	-0.073
Mof_H 	H 	0.3173	0.308	0.5078	0.038
Mof_C 	C 	0.8062	0.2932	0.5917	0.353
Mof_C 	C 	0.3871	0.2361	0.6576	0.434
Mof_C 	C 	0.1082	0.1413	0.1899	0.215
Mof_C 	C 	0.0754	0.0541	0.2247	-0.164
Mof_H 	H 	0.0653	0.9831	0.1924	0.089
Mof_C 	C 	0.0574	0.0729	0.3092	-0.045
Mof_C 	C 	0.0718	0.179	0.3569	-0.211
Mof_C 	C 	0.1032	0.2659	0.3188	0.098
Mof_H 	H 	0.1121	0.3372	0.3502	-0.025
Mof_C 	C 	0.1211	0.2475	0.2356	-0.248
Mof_H 	H 	0.1415	0.3057	0.2109	0.086
Mof_C 	C 	0.0206	0.9708	0.3403	0.344
Mof_C 	C 	0.061	0.2033	0.4495	0.38
Mof_C 	C 	0.0812	0.1618	0.0401	0.184
Mof_C 	C 	0.1522	0.1762	0.9834	-0.133
Mof_H 	H 	0.2352	0.1605	0.9958	0.048
Mof_C 	C 	0.0978	0.2148	0.9065	-0.213
Mof_C 	C 	0.9727	0.2357	0.8877	0.041
Mof_H 	H 	0.9353	0.2588	0.8359	-0.021
Mof_C 	C 	0.9037	0.2219	0.9466	-0.147
Mof_C 	C 	0.9581	0.1853	0.024	-0.1
Mof_H 	H 	0.9123	0.1768	0.0639	0.034
Mof_C 	C 	0.177	0.2345	0.8462	0.341
Mof_C 	C 	0.7679	0.2431	0.9253	0.365
Mof_K 	K 	0.73197	0.50936	0.0569	3.417
Mof_K 	K 	0.7817	0.02368	0.44521	2.792
Mof_O 	O 	0.942	0.508	-0	-0.48
Mof_Tb	Tb	0.94084	0.7596	0.372	1.788
Mof_Tb	Tb	0.49752	0.7409	0.11725	1.812
Mof_O 	O 	0.588	0.6197	0.6	-0.258
Mof_O 	O 	0.4035	0.4234	0.8296	-0.749
Mof_O 	O 	0.6131	0.4357	0.877	-0.75
Mof_O 	O 	0.507	0.7972	0.9762	-0.5
Mof_O 	O 	0.5131	0.6244	0.9812	-0.919
Mof_O 	O 	0.1219	0.6793	0.3293	-0.466
Mof_O 	O 	0.1511	0.7444	0.4708	-0.679
Mof_O 	O 	0.731	0.7762	0.3722	-0.701
Mof_O 	O 	0.553	0.7827	0.2691	-0.613
Mof_O 	O 	0.8622	0.8845	0.8891	-0.277
Mof_O 	O 	0.8941	0.0834	0.6293	-0.686
Mof_O 	O 	0.0961	0.062	0.6708	-0.706
Mof_O 	O 	0.962	0.8775	0.5154	-0.855
Mof_O 	O 	0.9212	0.7006	0.5081	-0.479
Mof_O 	O 	0.873	0.7243	0.2187	-0.656
Mof_O 	O 	0.7122	0.7889	0.1347	-0.588
Mof_O 	O 	0.2993	0.7757	0.1548	-0.453
Mof_O 	O 	0.2781	0.7225	0.0128	-0.67
Mof_C 	C 	0.5593	0.6433	0.6797	0.192
Mof_C 	C 	0.5468	0.5569	0.7198	-0.156
Mof_H 	H 	0.5493	0.4867	0.6907	0.09
Mof_C 	C 	0.5302	0.5744	0.8047	-0.071
Mof_C 	C 	0.5262	0.6791	0.8476	-0.215
Mof_C 	C 	0.5381	0.7649	0.8046	0.09
Mof_H 	H 	0.5354	0.8353	0.833	-0.048
Mof_C 	C 	0.5537	0.7482	0.7213	-0.231
Mof_H 	H 	0.5604	0.8062	0.6933	0.034
Mof_C 	C 	0.5133	0.4731	0.8407	0.378
Mof_C 	C 	0.514	0.7023	0.9398	0.376
Mof_C 	C 	0.5234	0.6619	0.5285	0.107
Mof_C 	C 	0.3952	0.6672	0.5082	-0.089
Mof_H 	H 	0.3495	0.6502	0.5463	0.02
Mof_C 	C 	0.3342	0.6984	0.4297	-0.176
Mof_C 	C 	0.4036	0.7266	0.3744	0.04
Mof_H 	H 	0.3624	0.7453	0.3212	-0.014
Mof_C 	C 	0.5346	0.7268	0.3988	-0.218
Mof_C 	C 	0.5951	0.6933	0.4761	-0.072
Mof_H 	H 	0.6827	0.692	0.4922	0.037
Mof_C 	C 	0.1938	0.7068	0.4083	0.354
Mof_C 	C 	0.6129	0.7639	0.3424	0.439
Mof_C 	C 	0.8918	0.8587	0.8101	0.21
Mof_C 	C 	0.9246	0.9459	0.7753	-0.16
Mof_H 	H 	0.9347	0.0169	0.8076	0.083
Mof_C 	C 	0.9426	0.9271	0.6908	-0.046
Mof_C 	C 	0.9282	0.821	0.6431	-0.209
Mof_C 	C 	0.8968	0.7341	0.6812	0.096
Mof_H 	H 	0.8879	0.6628	0.6498	-0.024
Mof_C 	C 	0.8789	0.7525	0.7644	-0.245
Mof_H 	H 	0.8585	0.6943	0.7891	0.082
Mof_C 	C 	0.9794	0.0292	0.6597	0.344
Mof_C 	C 	0.939	0.7967	0.5505	0.38
Mof_C 	C 	0.9188	0.8382	0.9599	0.137
Mof_C 	C 	0.8478	0.8238	0.0166	-0.062
Mof_H 	H 	0.7648	0.8395	0.0042	0.043
Mof_C 	C 	0.9022	0.7852	0.0935	-0.22
Mof_C 	C 	0.0273	0.7643	0.1123	0.023
Mof_H 	H 	0.0647	0.7412	0.1641	-0.014
Mof_C 	C 	0.0963	0.7781	0.0534	-0.072
Mof_C 	C 	0.0419	0.8147	0.976	-0.173
Mof_H 	H 	0.0877	0.8232	0.9361	0.048
Mof_C 	C 	0.823	0.7655	0.1538	0.339
Mof_C 	C 	0.2321	0.7569	0.0747	0.342
Mof_K 	K 	0.26803	0.49064	0.9431	3.19
Mof_K 	K 	0.2183	0.97632	0.55479	2.795
Mof_O 	O 	0.058	0.492	-0	-0.437
_end
