data_functionalizedCrystal
_audit_creation_method	'EQeq! by Chris Wilmer'
_symmetry_space_group_name_H-M	'P1'
_symmetry_Int_Tables_number	1
_symmetry_cell_setting	triclinic
loop_
_symmetry_equiv_pos_as_xyz
  x,y,z
_cell_length_a	19.9091
_cell_length_b	19.9091
_cell_length_c	19.9091
_cell_angle_alpha	90
_cell_angle_beta	90
_cell_angle_gamma	90
loop_
_atom_site_label
_atom_site_type_symbol
_atom_site_fract_x
_atom_site_fract_y
_atom_site_fract_z
_atom_site_charge
Mof_Nd	Nd	0.49227	0.25293	0.65244	1.873
Mof_O 	O 	0.4509	0.35402	0.70727	-0.56
Mof_O 	O 	0.54033	0.15721	0.71111	-0.565
Mof_N 	N 	0.49961	0.25834	0.7813	-0.207
Mof_O 	O 	0.5853	0.20469	0.58109	-0.523
Mof_O 	O 	0.3919	0.29811	0.58914	-0.53
Mof_C 	C 	0.44555	0.36457	0.76974	0.399
Mof_C 	C 	0.55431	0.15278	0.77253	0.408
Mof_C 	C 	0.52666	0.2081	0.81633	-0.111
Mof_C 	C 	0.4741	0.3109	0.81499	-0.109
Mof_C 	C 	0.5294	0.208	0.88567	0.01
Mof_C 	C 	0.4735	0.3137	0.884	0.01
Mof_H 	H 	0.5495	0.1727	0.9088	-0.013
Mof_C 	C 	0.5016	0.2617	0.9196	-0.099
Mof_H 	H 	0.4545	0.3501	0.9061	-0.008
Mof_H 	H 	0.5018	0.2626	0.9663	0.017
Mof_Nd	Nd	0.00773	0.74707	0.15244	1.875
Mof_O 	O 	0.0491	0.64598	0.20727	-0.559
Mof_O 	O 	0.95967	0.84279	0.21111	-0.564
Mof_N 	N 	0.00039	0.74166	0.2813	-0.207
Mof_O 	O 	0.9147	0.79531	0.08109	-0.522
Mof_O 	O 	0.1081	0.70189	0.08914	-0.529
Mof_C 	C 	0.05445	0.63543	0.26974	0.399
Mof_C 	C 	0.94569	0.84722	0.27253	0.408
Mof_C 	C 	0.97334	0.7919	0.31633	-0.111
Mof_C 	C 	0.0259	0.6891	0.31499	-0.108
Mof_C 	C 	0.9706	0.792	0.38567	0.009
Mof_C 	C 	0.0265	0.6863	0.384	0.008
Mof_H 	H 	0.9505	0.8273	0.4088	-0.012
Mof_C 	C 	0.9984	0.7383	0.4196	-0.098
Mof_H 	H 	0.0455	0.6499	0.4061	-0.007
Mof_H 	H 	0.9982	0.7374	0.4663	0.018
Mof_Nd	Nd	0.50773	0.75293	0.84756	1.875
Mof_O 	O 	0.5491	0.85402	0.79273	-0.559
Mof_O 	O 	0.45967	0.65721	0.78889	-0.564
Mof_N 	N 	0.50039	0.75834	0.7187	-0.206
Mof_O 	O 	0.4147	0.70469	0.91891	-0.522
Mof_O 	O 	0.6081	0.79811	0.91086	-0.528
Mof_C 	C 	0.55445	0.86457	0.73026	0.399
Mof_C 	C 	0.44569	0.65278	0.72747	0.408
Mof_C 	C 	0.47334	0.7081	0.68367	-0.111
Mof_C 	C 	0.5259	0.8109	0.68501	-0.109
Mof_C 	C 	0.4706	0.708	0.61433	0.01
Mof_C 	C 	0.5265	0.8137	0.616	0.01
Mof_H 	H 	0.4505	0.6727	0.5912	-0.012
Mof_C 	C 	0.4984	0.7617	0.5804	-0.099
Mof_H 	H 	0.5455	0.8501	0.5939	-0.007
Mof_H 	H 	0.4982	0.7626	0.5337	0.018
Mof_Nd	Nd	0.99227	0.24707	0.34756	1.871
Mof_O 	O 	0.9509	0.14598	0.29273	-0.559
Mof_O 	O 	0.04033	0.34279	0.28889	-0.562
Mof_N 	N 	0.99961	0.24166	0.2187	-0.209
Mof_O 	O 	0.0853	0.29531	0.41891	-0.521
Mof_O 	O 	0.8919	0.20189	0.41086	-0.529
Mof_C 	C 	0.94555	0.13543	0.23026	0.397
Mof_C 	C 	0.05431	0.34722	0.22747	0.407
Mof_C 	C 	0.02666	0.2919	0.18367	-0.106
Mof_C 	C 	0.9741	0.1891	0.18501	-0.106
Mof_C 	C 	0.0294	0.292	0.11433	0.004
Mof_C 	C 	0.9735	0.1863	0.116	0
Mof_H 	H 	0.0495	0.3273	0.0912	-0.01
Mof_C 	C 	0.0016	0.2383	0.0804	-0.088
Mof_H 	H 	0.9545	0.1499	0.0939	-0.005
Mof_H 	H 	0.0018	0.2374	0.0337	0.016
Mof_Nd	Nd	0.65244	0.49227	0.25293	1.874
Mof_O 	O 	0.70727	0.4509	0.35402	-0.559
Mof_O 	O 	0.71111	0.54033	0.15721	-0.564
Mof_N 	N 	0.7813	0.49961	0.25834	-0.206
Mof_O 	O 	0.58109	0.5853	0.20469	-0.522
Mof_O 	O 	0.58914	0.3919	0.29811	-0.529
Mof_C 	C 	0.76974	0.44555	0.36457	0.399
Mof_C 	C 	0.77253	0.55431	0.15278	0.408
Mof_C 	C 	0.81633	0.52666	0.2081	-0.111
Mof_C 	C 	0.81499	0.4741	0.3109	-0.109
Mof_C 	C 	0.88567	0.5294	0.208	0.01
Mof_C 	C 	0.884	0.4735	0.3137	0.01
Mof_H 	H 	0.9088	0.5495	0.1727	-0.013
Mof_C 	C 	0.9196	0.5016	0.2617	-0.099
Mof_H 	H 	0.9061	0.4545	0.3501	-0.008
Mof_H 	H 	0.9663	0.5018	0.2626	0.017
Mof_Nd	Nd	0.15244	0.00773	0.74707	1.875
Mof_O 	O 	0.20727	0.0491	0.64598	-0.559
Mof_O 	O 	0.21111	0.95967	0.84279	-0.564
Mof_N 	N 	0.2813	0.00039	0.74166	-0.207
Mof_O 	O 	0.08109	0.9147	0.79531	-0.522
Mof_O 	O 	0.08914	0.1081	0.70189	-0.529
Mof_C 	C 	0.26974	0.05445	0.63543	0.399
Mof_C 	C 	0.27253	0.94569	0.84722	0.408
Mof_C 	C 	0.31633	0.97334	0.7919	-0.111
Mof_C 	C 	0.31499	0.0259	0.6891	-0.108
Mof_C 	C 	0.38567	0.9706	0.792	0.009
Mof_C 	C 	0.384	0.0265	0.6863	0.008
Mof_H 	H 	0.4088	0.9505	0.8273	-0.012
Mof_C 	C 	0.4196	0.9984	0.7383	-0.098
Mof_H 	H 	0.4061	0.0455	0.6499	-0.007
Mof_H 	H 	0.4663	0.9982	0.7374	0.018
Mof_Nd	Nd	0.84756	0.50773	0.75293	1.875
Mof_O 	O 	0.79273	0.5491	0.85402	-0.559
Mof_O 	O 	0.78889	0.45967	0.65721	-0.564
Mof_N 	N 	0.7187	0.50039	0.75834	-0.206
Mof_O 	O 	0.91891	0.4147	0.70469	-0.522
Mof_O 	O 	0.91086	0.6081	0.79811	-0.528
Mof_C 	C 	0.73026	0.55445	0.86457	0.399
Mof_C 	C 	0.72747	0.44569	0.65278	0.408
Mof_C 	C 	0.68367	0.47334	0.7081	-0.111
Mof_C 	C 	0.68501	0.5259	0.8109	-0.109
Mof_C 	C 	0.61433	0.4706	0.708	0.01
Mof_C 	C 	0.616	0.5265	0.8137	0.01
Mof_H 	H 	0.5912	0.4505	0.6727	-0.012
Mof_C 	C 	0.5804	0.4984	0.7617	-0.099
Mof_H 	H 	0.5939	0.5455	0.8501	-0.007
Mof_H 	H 	0.5337	0.4982	0.7626	0.018
Mof_Nd	Nd	0.34756	0.99227	0.24707	1.871
Mof_O 	O 	0.29273	0.9509	0.14598	-0.559
Mof_O 	O 	0.28889	0.04033	0.34279	-0.562
Mof_N 	N 	0.2187	0.99961	0.24166	-0.209
Mof_O 	O 	0.41891	0.0853	0.29531	-0.521
Mof_O 	O 	0.41086	0.8919	0.20189	-0.529
Mof_C 	C 	0.23026	0.94555	0.13543	0.397
Mof_C 	C 	0.22747	0.05431	0.34722	0.407
Mof_C 	C 	0.18367	0.02666	0.2919	-0.106
Mof_C 	C 	0.18501	0.9741	0.1891	-0.106
Mof_C 	C 	0.11433	0.0294	0.292	0.004
Mof_C 	C 	0.116	0.9735	0.1863	0
Mof_H 	H 	0.0912	0.0495	0.3273	-0.01
Mof_C 	C 	0.0804	0.0016	0.2383	-0.088
Mof_H 	H 	0.0939	0.9545	0.1499	-0.005
Mof_H 	H 	0.0337	0.0018	0.2374	0.016
Mof_Nd	Nd	0.25293	0.65244	0.49227	1.874
Mof_O 	O 	0.35402	0.70727	0.4509	-0.559
Mof_O 	O 	0.15721	0.71111	0.54033	-0.564
Mof_N 	N 	0.25834	0.7813	0.49961	-0.206
Mof_O 	O 	0.20469	0.58109	0.5853	-0.522
Mof_O 	O 	0.29811	0.58914	0.3919	-0.529
Mof_C 	C 	0.36457	0.76974	0.44555	0.399
Mof_C 	C 	0.15278	0.77253	0.55431	0.408
Mof_C 	C 	0.2081	0.81633	0.52666	-0.111
Mof_C 	C 	0.3109	0.81499	0.4741	-0.109
Mof_C 	C 	0.208	0.88567	0.5294	0.01
Mof_C 	C 	0.3137	0.884	0.4735	0.01
Mof_H 	H 	0.1727	0.9088	0.5495	-0.013
Mof_C 	C 	0.2617	0.9196	0.5016	-0.099
Mof_H 	H 	0.3501	0.9061	0.4545	-0.008
Mof_H 	H 	0.2626	0.9663	0.5018	0.017
Mof_Nd	Nd	0.74707	0.15244	0.00773	1.875
Mof_O 	O 	0.64598	0.20727	0.0491	-0.559
Mof_O 	O 	0.84279	0.21111	0.95967	-0.564
Mof_N 	N 	0.74166	0.2813	0.00039	-0.207
Mof_O 	O 	0.79531	0.08109	0.9147	-0.522
Mof_O 	O 	0.70189	0.08914	0.1081	-0.529
Mof_C 	C 	0.63543	0.26974	0.05445	0.399
Mof_C 	C 	0.84722	0.27253	0.94569	0.408
Mof_C 	C 	0.7919	0.31633	0.97334	-0.111
Mof_C 	C 	0.6891	0.31499	0.0259	-0.108
Mof_C 	C 	0.792	0.38567	0.9706	0.009
Mof_C 	C 	0.6863	0.384	0.0265	0.008
Mof_H 	H 	0.8273	0.4088	0.9505	-0.012
Mof_C 	C 	0.7383	0.4196	0.9984	-0.098
Mof_H 	H 	0.6499	0.4061	0.0455	-0.007
Mof_H 	H 	0.7374	0.4663	0.9982	0.018
Mof_Nd	Nd	0.75293	0.84756	0.50773	1.875
Mof_O 	O 	0.85402	0.79273	0.5491	-0.559
Mof_O 	O 	0.65721	0.78889	0.45967	-0.564
Mof_N 	N 	0.75834	0.7187	0.50039	-0.206
Mof_O 	O 	0.70469	0.91891	0.4147	-0.522
Mof_O 	O 	0.79811	0.91086	0.6081	-0.528
Mof_C 	C 	0.86457	0.73026	0.55445	0.399
Mof_C 	C 	0.65278	0.72747	0.44569	0.408
Mof_C 	C 	0.7081	0.68367	0.47334	-0.111
Mof_C 	C 	0.8109	0.68501	0.5259	-0.109
Mof_C 	C 	0.708	0.61433	0.4706	0.01
Mof_C 	C 	0.8137	0.616	0.5265	0.01
Mof_H 	H 	0.6727	0.5912	0.4505	-0.012
Mof_C 	C 	0.7617	0.5804	0.4984	-0.099
Mof_H 	H 	0.8501	0.5939	0.5455	-0.007
Mof_H 	H 	0.7626	0.5337	0.4982	0.018
Mof_Nd	Nd	0.24707	0.34756	0.99227	1.871
Mof_O 	O 	0.14598	0.29273	0.9509	-0.559
Mof_O 	O 	0.34279	0.28889	0.04033	-0.562
Mof_N 	N 	0.24166	0.2187	0.99961	-0.209
Mof_O 	O 	0.29531	0.41891	0.0853	-0.521
Mof_O 	O 	0.20189	0.41086	0.8919	-0.529
Mof_C 	C 	0.13543	0.23026	0.94555	0.397
Mof_C 	C 	0.34722	0.22747	0.05431	0.407
Mof_C 	C 	0.2919	0.18367	0.02666	-0.106
Mof_C 	C 	0.1891	0.18501	0.9741	-0.106
Mof_C 	C 	0.292	0.11433	0.0294	0.004
Mof_C 	C 	0.1863	0.116	0.9735	0
Mof_H 	H 	0.3273	0.0912	0.0495	-0.01
Mof_C 	C 	0.2383	0.0804	0.0016	-0.088
Mof_H 	H 	0.1499	0.0939	0.9545	-0.005
Mof_H 	H 	0.2374	0.0337	0.0018	0.016
Mof_Nd	Nd	0.50773	0.74707	0.34756	1.874
Mof_O 	O 	0.5491	0.64598	0.29273	-0.559
Mof_O 	O 	0.45967	0.84279	0.28889	-0.564
Mof_N 	N 	0.50039	0.74166	0.2187	-0.206
Mof_O 	O 	0.4147	0.79531	0.41891	-0.522
Mof_O 	O 	0.6081	0.70189	0.41086	-0.529
Mof_C 	C 	0.55445	0.63543	0.23026	0.399
Mof_C 	C 	0.44569	0.84722	0.22747	0.408
Mof_C 	C 	0.47334	0.7919	0.18367	-0.111
Mof_C 	C 	0.5259	0.6891	0.18501	-0.109
Mof_C 	C 	0.4706	0.792	0.11433	0.01
Mof_C 	C 	0.5265	0.6863	0.116	0.01
Mof_H 	H 	0.4505	0.8273	0.0912	-0.013
Mof_C 	C 	0.4984	0.7383	0.0804	-0.099
Mof_H 	H 	0.5455	0.6499	0.0939	-0.008
Mof_H 	H 	0.4982	0.7374	0.0337	0.017
Mof_Nd	Nd	0.99227	0.25293	0.84756	1.875
Mof_O 	O 	0.9509	0.35402	0.79273	-0.559
Mof_O 	O 	0.04033	0.15721	0.78889	-0.564
Mof_N 	N 	0.99961	0.25834	0.7187	-0.207
Mof_O 	O 	0.0853	0.20469	0.91891	-0.522
Mof_O 	O 	0.8919	0.29811	0.91086	-0.529
Mof_C 	C 	0.94555	0.36457	0.73026	0.399
Mof_C 	C 	0.05431	0.15278	0.72747	0.408
Mof_C 	C 	0.02666	0.2081	0.68367	-0.111
Mof_C 	C 	0.9741	0.3109	0.68501	-0.108
Mof_C 	C 	0.0294	0.208	0.61433	0.009
Mof_C 	C 	0.9735	0.3137	0.616	0.008
Mof_H 	H 	0.0495	0.1727	0.5912	-0.012
Mof_C 	C 	0.0016	0.2617	0.5804	-0.098
Mof_H 	H 	0.9545	0.3501	0.5939	-0.007
Mof_H 	H 	0.0018	0.2626	0.5337	0.018
Mof_Nd	Nd	0.49227	0.24707	0.15244	1.875
Mof_O 	O 	0.4509	0.14598	0.20727	-0.559
Mof_O 	O 	0.54033	0.34279	0.21111	-0.564
Mof_N 	N 	0.49961	0.24166	0.2813	-0.206
Mof_O 	O 	0.5853	0.29531	0.08109	-0.522
Mof_O 	O 	0.3919	0.20189	0.08914	-0.528
Mof_C 	C 	0.44555	0.13543	0.26974	0.399
Mof_C 	C 	0.55431	0.34722	0.27253	0.408
Mof_C 	C 	0.52666	0.2919	0.31633	-0.111
Mof_C 	C 	0.4741	0.1891	0.31499	-0.109
Mof_C 	C 	0.5294	0.292	0.38567	0.01
Mof_C 	C 	0.4735	0.1863	0.384	0.01
Mof_H 	H 	0.5495	0.3273	0.4088	-0.012
Mof_C 	C 	0.5016	0.2383	0.4196	-0.099
Mof_H 	H 	0.4545	0.1499	0.4061	-0.007
Mof_H 	H 	0.5018	0.2374	0.4663	0.018
Mof_Nd	Nd	0.00773	0.75293	0.65244	1.871
Mof_O 	O 	0.0491	0.85402	0.70727	-0.559
Mof_O 	O 	0.95967	0.65721	0.71111	-0.562
Mof_N 	N 	0.00039	0.75834	0.7813	-0.209
Mof_O 	O 	0.9147	0.70469	0.58109	-0.521
Mof_O 	O 	0.1081	0.79811	0.58914	-0.529
Mof_C 	C 	0.05445	0.86457	0.76974	0.397
Mof_C 	C 	0.94569	0.65278	0.77253	0.407
Mof_C 	C 	0.97334	0.7081	0.81633	-0.106
Mof_C 	C 	0.0259	0.8109	0.81499	-0.106
Mof_C 	C 	0.9706	0.708	0.88567	0.004
Mof_C 	C 	0.0265	0.8137	0.884	0
Mof_H 	H 	0.9505	0.6727	0.9088	-0.01
Mof_C 	C 	0.9984	0.7617	0.9196	-0.088
Mof_H 	H 	0.0455	0.8501	0.9061	-0.005
Mof_H 	H 	0.9982	0.7626	0.9663	0.016
Mof_Nd	Nd	0.34756	0.50773	0.74707	1.874
Mof_O 	O 	0.29273	0.5491	0.64598	-0.559
Mof_O 	O 	0.28889	0.45967	0.84279	-0.564
Mof_N 	N 	0.2187	0.50039	0.74166	-0.206
Mof_O 	O 	0.41891	0.4147	0.79531	-0.522
Mof_O 	O 	0.41086	0.6081	0.70189	-0.529
Mof_C 	C 	0.23026	0.55445	0.63543	0.399
Mof_C 	C 	0.22747	0.44569	0.84722	0.408
Mof_C 	C 	0.18367	0.47334	0.7919	-0.111
Mof_C 	C 	0.18501	0.5259	0.6891	-0.109
Mof_C 	C 	0.11433	0.4706	0.792	0.01
Mof_C 	C 	0.116	0.5265	0.6863	0.01
Mof_H 	H 	0.0912	0.4505	0.8273	-0.013
Mof_C 	C 	0.0804	0.4984	0.7383	-0.099
Mof_H 	H 	0.0939	0.5455	0.6499	-0.008
Mof_H 	H 	0.0337	0.4982	0.7374	0.017
Mof_Nd	Nd	0.84756	0.99227	0.25293	1.875
Mof_O 	O 	0.79273	0.9509	0.35402	-0.559
Mof_O 	O 	0.78889	0.04033	0.15721	-0.564
Mof_N 	N 	0.7187	0.99961	0.25834	-0.207
Mof_O 	O 	0.91891	0.0853	0.20469	-0.522
Mof_O 	O 	0.91086	0.8919	0.29811	-0.529
Mof_C 	C 	0.73026	0.94555	0.36457	0.399
Mof_C 	C 	0.72747	0.05431	0.15278	0.408
Mof_C 	C 	0.68367	0.02666	0.2081	-0.111
Mof_C 	C 	0.68501	0.9741	0.3109	-0.108
Mof_C 	C 	0.61433	0.0294	0.208	0.009
Mof_C 	C 	0.616	0.9735	0.3137	0.008
Mof_H 	H 	0.5912	0.0495	0.1727	-0.012
Mof_C 	C 	0.5804	0.0016	0.2617	-0.098
Mof_H 	H 	0.5939	0.9545	0.3501	-0.007
Mof_H 	H 	0.5337	0.0018	0.2626	0.018
Mof_Nd	Nd	0.15244	0.49227	0.24707	1.875
Mof_O 	O 	0.20727	0.4509	0.14598	-0.559
Mof_O 	O 	0.21111	0.54033	0.34279	-0.564
Mof_N 	N 	0.2813	0.49961	0.24166	-0.206
Mof_O 	O 	0.08109	0.5853	0.29531	-0.522
Mof_O 	O 	0.08914	0.3919	0.20189	-0.528
Mof_C 	C 	0.26974	0.44555	0.13543	0.399
Mof_C 	C 	0.27253	0.55431	0.34722	0.408
Mof_C 	C 	0.31633	0.52666	0.2919	-0.111
Mof_C 	C 	0.31499	0.4741	0.1891	-0.109
Mof_C 	C 	0.38567	0.5294	0.292	0.01
Mof_C 	C 	0.384	0.4735	0.1863	0.01
Mof_H 	H 	0.4088	0.5495	0.3273	-0.012
Mof_C 	C 	0.4196	0.5016	0.2383	-0.099
Mof_H 	H 	0.4061	0.4545	0.1499	-0.007
Mof_H 	H 	0.4663	0.5018	0.2374	0.018
Mof_Nd	Nd	0.65244	0.00773	0.75293	1.871
Mof_O 	O 	0.70727	0.0491	0.85402	-0.559
Mof_O 	O 	0.71111	0.95967	0.65721	-0.562
Mof_N 	N 	0.7813	0.00039	0.75834	-0.209
Mof_O 	O 	0.58109	0.9147	0.70469	-0.521
Mof_O 	O 	0.58914	0.1081	0.79811	-0.529
Mof_C 	C 	0.76974	0.05445	0.86457	0.397
Mof_C 	C 	0.77253	0.94569	0.65278	0.407
Mof_C 	C 	0.81633	0.97334	0.7081	-0.106
Mof_C 	C 	0.81499	0.0259	0.8109	-0.106
Mof_C 	C 	0.88567	0.9706	0.708	0.004
Mof_C 	C 	0.884	0.0265	0.8137	0
Mof_H 	H 	0.9088	0.9505	0.6727	-0.01
Mof_C 	C 	0.9196	0.9984	0.7617	-0.088
Mof_H 	H 	0.9061	0.0455	0.8501	-0.005
Mof_H 	H 	0.9663	0.9982	0.7626	0.016
Mof_Nd	Nd	0.74707	0.34756	0.50773	1.874
Mof_O 	O 	0.64598	0.29273	0.5491	-0.559
Mof_O 	O 	0.84279	0.28889	0.45967	-0.564
Mof_N 	N 	0.74166	0.2187	0.50039	-0.206
Mof_O 	O 	0.79531	0.41891	0.4147	-0.522
Mof_O 	O 	0.70189	0.41086	0.6081	-0.529
Mof_C 	C 	0.63543	0.23026	0.55445	0.399
Mof_C 	C 	0.84722	0.22747	0.44569	0.408
Mof_C 	C 	0.7919	0.18367	0.47334	-0.111
Mof_C 	C 	0.6891	0.18501	0.5259	-0.109
Mof_C 	C 	0.792	0.11433	0.4706	0.01
Mof_C 	C 	0.6863	0.116	0.5265	0.01
Mof_H 	H 	0.8273	0.0912	0.4505	-0.013
Mof_C 	C 	0.7383	0.0804	0.4984	-0.099
Mof_H 	H 	0.6499	0.0939	0.5455	-0.008
Mof_H 	H 	0.7374	0.0337	0.4982	0.017
Mof_Nd	Nd	0.25293	0.84756	0.99227	1.875
Mof_O 	O 	0.35402	0.79273	0.9509	-0.559
Mof_O 	O 	0.15721	0.78889	0.04033	-0.564
Mof_N 	N 	0.25834	0.7187	0.99961	-0.207
Mof_O 	O 	0.20469	0.91891	0.0853	-0.522
Mof_O 	O 	0.29811	0.91086	0.8919	-0.529
Mof_C 	C 	0.36457	0.73026	0.94555	0.399
Mof_C 	C 	0.15278	0.72747	0.05431	0.408
Mof_C 	C 	0.2081	0.68367	0.02666	-0.111
Mof_C 	C 	0.3109	0.68501	0.9741	-0.108
Mof_C 	C 	0.208	0.61433	0.0294	0.009
Mof_C 	C 	0.3137	0.616	0.9735	0.008
Mof_H 	H 	0.1727	0.5912	0.0495	-0.012
Mof_C 	C 	0.2617	0.5804	0.0016	-0.098
Mof_H 	H 	0.3501	0.5939	0.9545	-0.007
Mof_H 	H 	0.2626	0.5337	0.0018	0.018
Mof_Nd	Nd	0.24707	0.15244	0.49227	1.875
Mof_O 	O 	0.14598	0.20727	0.4509	-0.559
Mof_O 	O 	0.34279	0.21111	0.54033	-0.564
Mof_N 	N 	0.24166	0.2813	0.49961	-0.206
Mof_O 	O 	0.29531	0.08109	0.5853	-0.522
Mof_O 	O 	0.20189	0.08914	0.3919	-0.528
Mof_C 	C 	0.13543	0.26974	0.44555	0.399
Mof_C 	C 	0.34722	0.27253	0.55431	0.408
Mof_C 	C 	0.2919	0.31633	0.52666	-0.111
Mof_C 	C 	0.1891	0.31499	0.4741	-0.109
Mof_C 	C 	0.292	0.38567	0.5294	0.01
Mof_C 	C 	0.1863	0.384	0.4735	0.01
Mof_H 	H 	0.3273	0.4088	0.5495	-0.012
Mof_C 	C 	0.2383	0.4196	0.5016	-0.099
Mof_H 	H 	0.1499	0.4061	0.4545	-0.007
Mof_H 	H 	0.2374	0.4663	0.5018	0.018
Mof_Nd	Nd	0.75293	0.65244	0.00773	1.871
Mof_O 	O 	0.85402	0.70727	0.0491	-0.559
Mof_O 	O 	0.65721	0.71111	0.95967	-0.562
Mof_N 	N 	0.75834	0.7813	0.00039	-0.209
Mof_O 	O 	0.70469	0.58109	0.9147	-0.521
Mof_O 	O 	0.79811	0.58914	0.1081	-0.529
Mof_C 	C 	0.86457	0.76974	0.05445	0.397
Mof_C 	C 	0.65278	0.77253	0.94569	0.407
Mof_C 	C 	0.7081	0.81633	0.97334	-0.106
Mof_C 	C 	0.8109	0.81499	0.0259	-0.106
Mof_C 	C 	0.708	0.88567	0.9706	0.004
Mof_C 	C 	0.8137	0.884	0.0265	0
Mof_H 	H 	0.6727	0.9088	0.9505	-0.01
Mof_C 	C 	0.7617	0.9196	0.9984	-0.088
Mof_H 	H 	0.8501	0.9061	0.0455	-0.005
Mof_H 	H 	0.7626	0.9663	0.9982	0.016
_end
