data_functionalizedCrystal
_audit_creation_method	'EQeq! by Chris Wilmer'
_symmetry_space_group_name_H-M	'P1'
_symmetry_Int_Tables_number	1
_symmetry_cell_setting	triclinic
loop_
_symmetry_equiv_pos_as_xyz
  x,y,z
_cell_length_a	10.418
_cell_length_b	10.521
_cell_length_c	6.287
_cell_angle_alpha	90
_cell_angle_beta	115.16
_cell_angle_gamma	90
loop_
_atom_site_label
_atom_site_type_symbol
_atom_site_fract_x
_atom_site_fract_y
_atom_site_fract_z
_atom_site_charge
Mof_N 	N 	0.3127	0.1098	0.3816	-0.244
Mof_H 	H 	0.3076	0.1692	0.2643	0.055
Mof_H 	H 	0.2265	0.0543	0.3347	0.028
Mof_C 	C 	0.3165	0.2106	0.5464	-0.069
Mof_H 	H 	0.3971	0.2654	0.5759	0.019
Mof_H 	H 	0.3294	0.1725	0.6947	0.002
Mof_N 	N 	0.8127	0.6098	0.3816	-0.233
Mof_H 	H 	0.8076	0.6692	0.2643	0.075
Mof_H 	H 	0.7265	0.5543	0.3347	0.058
Mof_C 	C 	0.8165	0.7106	0.5464	-0.075
Mof_H 	H 	0.8971	0.7654	0.5759	0.047
Mof_H 	H 	0.8294	0.6725	0.6947	0.028
Mof_N 	N 	0.6873	0.1098	0.1184	-0.263
Mof_H 	H 	0.6924	0.1692	0.2357	0.063
Mof_H 	H 	0.7735	0.0543	0.1653	0.047
Mof_C 	C 	0.6835	0.2106	0.9536	0.024
Mof_H 	H 	0.6029	0.2654	0.9241	-0.004
Mof_H 	H 	0.6706	0.1725	0.8053	-0.024
Mof_N 	N 	0.1873	0.6098	0.1184	-0.264
Mof_H 	H 	0.1924	0.6692	0.2357	0.063
Mof_H 	H 	0.2735	0.5543	0.1653	0.056
Mof_C 	C 	0.1835	0.7106	0.9536	0.028
Mof_H 	H 	0.1029	0.7654	0.9241	-0.016
Mof_H 	H 	0.1706	0.6725	0.8053	-0.026
Mof_N 	N 	0.6873	0.8902	0.6184	-0.241
Mof_H 	H 	0.6924	0.8308	0.7357	0.084
Mof_H 	H 	0.7735	0.9457	0.6653	0.093
Mof_C 	C 	0.6835	0.7894	0.4536	-0.037
Mof_H 	H 	0.6029	0.7346	0.4241	0.011
Mof_H 	H 	0.6706	0.8275	0.3053	0.011
Mof_N 	N 	0.1873	0.3902	0.6184	-0.254
Mof_H 	H 	0.1924	0.3308	0.7357	0.063
Mof_H 	H 	0.2735	0.4457	0.6653	0.061
Mof_C 	C 	0.1835	0.2894	0.4536	-0.031
Mof_H 	H 	0.1029	0.2346	0.4241	-0.017
Mof_H 	H 	0.1706	0.3275	0.3053	-0.016
Mof_N 	N 	0.3127	0.8902	0.8816	-0.214
Mof_H 	H 	0.3076	0.8308	0.7643	0.074
Mof_H 	H 	0.2265	0.9457	0.8347	0.073
Mof_C 	C 	0.3165	0.7894	0.0464	-0.13
Mof_H 	H 	0.3971	0.7346	0.0759	0.035
Mof_H 	H 	0.3294	0.8275	0.1947	0.033
Mof_N 	N 	0.8127	0.3902	0.8816	-0.215
Mof_H 	H 	0.8076	0.3308	0.7643	0.074
Mof_H 	H 	0.7265	0.4457	0.8347	0.063
Mof_C 	C 	0.8165	0.2894	0.0464	-0.133
Mof_H 	H 	0.8971	0.2346	0.0759	0.046
Mof_H 	H 	0.8294	0.3275	0.1947	0.035
Mof_Ag	Ag	0.5	-5.05903e-33	0.5	0.312
Mof_Ag	Ag	1.61232e-33	0.5	0.5	0.314
Mof_Ag	Ag	0.5	0	-0	0.264
Mof_Ag	Ag	-5.05903e-33	0.5	-0	0.267
_end
