data_functionalizedCrystal
_audit_creation_method	'EQeq! by Chris Wilmer'
_symmetry_space_group_name_H-M	'P1'
_symmetry_Int_Tables_number	1
_symmetry_cell_setting	triclinic
loop_
_symmetry_equiv_pos_as_xyz
  x,y,z
_cell_length_a	21.535
_cell_length_b	9.028
_cell_length_c	12.186
_cell_angle_alpha	90
_cell_angle_beta	90
_cell_angle_gamma	90
loop_
_atom_site_label
_atom_site_type_symbol
_atom_site_fract_x
_atom_site_fract_y
_atom_site_fract_z
_atom_site_charge
Mof_C 	C 	0.9957	0.7949	0.7967	-0.075
Mof_C 	C 	0.0068	0.956	0.7546	0.465
Mof_C 	C 	0.0363	0.6327	0.9372	0.038
Mof_C 	C 	0.081	0.646	0.0363	0.299
Mof_C 	C 	0.9426	0.7759	0.9675	-0.003
Mof_C 	C 	0.9153	0.9364	0.9819	0.325
Mof_C 	C 	0.2547	0.2603	0.3616	-0.094
Mof_C 	C 	0.25	0.4128	0.4244	0.478
Mof_C 	C 	0.2402	0.1415	0.1905	-0.092
Mof_C 	C 	0.1719	0.1611	0.1568	0.448
Mof_C 	C 	0.3294	0.3056	0.2184	-0.088
Mof_C 	C 	0.3444	0.4659	0.1941	0.369
Mof_Dy	Dy	0.0612	0.9987	-0	1.639
Mof_Dy	Dy	0.1955	0.4994	0.1866	1.839
Mof_N 	N 	0.0041	0.7772	0.9129	-0.157
Mof_N 	N 	0.2625	0.2764	0.246	-0.154
Mof_O 	O 	0.0415	0.0374	0.8132	-0.445
Mof_O 	O 	0.9834	0.9948	0.67	-0.506
Mof_O 	O 	0.0889	0.7741	0.0748	-0.496
Mof_O 	O 	0.108	0.531	0.0625	-0.472
Mof_O 	O 	0.953	0.0456	0.9797	-0.362
Mof_O 	O 	0.8584	0.9455	0.9912	-0.206
Mof_O 	O 	0.2269	0.5158	0.3748	-0.523
Mof_O 	O 	0.2702	0.4106	0.5198	-0.516
Mof_O 	O 	0.145	0.2723	0.1796	-0.528
Mof_O 	O 	0.1491	0.0496	0.1067	-0.493
Mof_O 	O 	0.3019	0.557	0.185	-0.481
Mof_O 	O 	0.3997	0.4988	0.1811	-0.289
Mof_C 	C 	0.0043	0.2051	0.2967	-0.071
Mof_C 	C 	0.9932	0.044	0.2546	0.436
Mof_C 	C 	0.9637	0.3673	0.4372	-0.077
Mof_C 	C 	0.919	0.354	0.5363	0.41
Mof_C 	C 	0.0574	0.2241	0.4675	-0.043
Mof_C 	C 	0.0847	0.0636	0.4819	0.334
Mof_C 	C 	0.7453	0.7397	0.8616	-0.081
Mof_C 	C 	0.75	0.5872	0.9244	0.605
Mof_C 	C 	0.7598	0.8585	0.6905	-0.064
Mof_C 	C 	0.8281	0.8389	0.6568	0.456
Mof_C 	C 	0.6706	0.6944	0.7184	-0.049
Mof_C 	C 	0.6556	0.5341	0.6941	0.369
Mof_Dy	Dy	0.9388	0.0013	0.5	1.882
Mof_Dy	Dy	0.8045	0.5006	0.6866	1.876
Mof_N 	N 	0.9959	0.2228	0.4129	-0.179
Mof_N 	N 	0.7375	0.7236	0.746	-0.161
Mof_O 	O 	0.9585	0.9626	0.3132	-0.504
Mof_O 	O 	0.0166	0.0052	0.17	-0.489
Mof_O 	O 	0.9111	0.2259	0.5748	-0.523
Mof_O 	O 	0.892	0.469	0.5625	-0.478
Mof_O 	O 	0.047	0.9544	0.4797	-0.429
Mof_O 	O 	0.1416	0.0545	0.4912	-0.25
Mof_O 	O 	0.7731	0.4842	0.8748	-0.534
Mof_O 	O 	0.7298	0.5894	0.0198	-0.616
Mof_O 	O 	0.855	0.7277	0.6796	-0.53
Mof_O 	O 	0.8509	0.9504	0.6067	-0.5
Mof_O 	O 	0.6981	0.443	0.685	-0.46
Mof_O 	O 	0.6003	0.5012	0.6811	-0.254
Mof_C 	C 	0.4957	0.2051	0.7967	-0.077
Mof_C 	C 	0.5068	0.044	0.7546	0.476
Mof_C 	C 	0.5363	0.3673	0.9372	0.037
Mof_C 	C 	0.581	0.354	0.0363	0.299
Mof_C 	C 	0.4426	0.2241	0.9675	0.001
Mof_C 	C 	0.4153	0.0636	0.9819	0.319
Mof_C 	C 	0.7547	0.7397	0.3616	-0.094
Mof_C 	C 	0.75	0.5872	0.4244	0.478
Mof_C 	C 	0.7402	0.8585	0.1905	-0.092
Mof_C 	C 	0.6719	0.8389	0.1568	0.449
Mof_C 	C 	0.8294	0.6944	0.2184	-0.087
Mof_C 	C 	0.8444	0.5341	0.1941	0.37
Mof_Dy	Dy	0.5612	0.0013	-0	1.656
Mof_Dy	Dy	0.6955	0.5006	0.1866	1.84
Mof_N 	N 	0.5041	0.2228	0.9129	-0.159
Mof_N 	N 	0.7625	0.7236	0.246	-0.154
Mof_O 	O 	0.5415	0.9626	0.8132	-0.457
Mof_O 	O 	0.4834	0.0052	0.67	-0.513
Mof_O 	O 	0.5889	0.2259	0.0748	-0.497
Mof_O 	O 	0.608	0.469	0.0625	-0.473
Mof_O 	O 	0.453	0.9544	0.9797	-0.355
Mof_O 	O 	0.3584	0.0545	0.9912	-0.204
Mof_O 	O 	0.7269	0.4842	0.3748	-0.523
Mof_O 	O 	0.7702	0.5894	0.5198	-0.515
Mof_O 	O 	0.645	0.7277	0.1796	-0.529
Mof_O 	O 	0.6491	0.9504	0.1067	-0.497
Mof_O 	O 	0.8019	0.443	0.185	-0.481
Mof_O 	O 	0.8997	0.5012	0.1811	-0.291
Mof_C 	C 	0.5043	0.7949	0.2967	-0.092
Mof_C 	C 	0.4932	0.956	0.2546	0.472
Mof_C 	C 	0.4637	0.6327	0.4372	-0.074
Mof_C 	C 	0.419	0.646	0.5363	0.411
Mof_C 	C 	0.5574	0.7759	0.4675	-0.049
Mof_C 	C 	0.5847	0.9364	0.4819	0.328
Mof_C 	C 	0.2453	0.2603	0.8616	-0.08
Mof_C 	C 	0.25	0.4128	0.9244	0.606
Mof_C 	C 	0.2598	0.1415	0.6905	-0.063
Mof_C 	C 	0.3281	0.1611	0.6568	0.457
Mof_C 	C 	0.1706	0.3056	0.7184	-0.048
Mof_C 	C 	0.1556	0.4659	0.6941	0.369
Mof_Dy	Dy	0.4388	0.9987	0.5	1.903
Mof_Dy	Dy	0.3045	0.4994	0.6866	1.877
Mof_N 	N 	0.4959	0.7772	0.4129	-0.171
Mof_N 	N 	0.2375	0.2764	0.746	-0.161
Mof_O 	O 	0.4585	0.0374	0.3132	-0.519
Mof_O 	O 	0.5166	0.9948	0.17	-0.512
Mof_O 	O 	0.4111	0.7741	0.5748	-0.524
Mof_O 	O 	0.392	0.531	0.5625	-0.478
Mof_O 	O 	0.547	0.0456	0.4797	-0.427
Mof_O 	O 	0.6416	0.9455	0.4912	-0.25
Mof_O 	O 	0.2731	0.5158	0.8748	-0.534
Mof_O 	O 	0.2298	0.4106	0.0198	-0.617
Mof_O 	O 	0.355	0.2723	0.6796	-0.531
Mof_O 	O 	0.3509	0.0496	0.6067	-0.503
Mof_O 	O 	0.1981	0.557	0.685	-0.46
Mof_O 	O 	0.1003	0.4988	0.6811	-0.253
_end
