data_functionalizedCrystal
_audit_creation_method	'EQeq! by Chris Wilmer'
_symmetry_space_group_name_H-M	'P1'
_symmetry_Int_Tables_number	1
_symmetry_cell_setting	triclinic
loop_
_symmetry_equiv_pos_as_xyz
  x,y,z
_cell_length_a	17.3335
_cell_length_b	17.3335
_cell_length_c	23.8297
_cell_angle_alpha	68.6727
_cell_angle_beta	68.6727
_cell_angle_gamma	89.9999
loop_
_atom_site_label
_atom_site_type_symbol
_atom_site_fract_x
_atom_site_fract_y
_atom_site_fract_z
_atom_site_charge
Mof_Cu	Cu	0.77857	0.02857	0.94286	0.893
Mof_Cu	Cu	0.02857	0.77857	0.44286	0.893
Mof_H 	H 	0.7578	0.2082	0.9108	0.001
Mof_H 	H 	0.7269	0.3182	0.838	0.106
Mof_H 	H 	0.7111	0.1689	0.7454	0.098
Mof_H 	H 	0.7419	0.062	0.8218	-0.001
Mof_H 	H 	0.6437	0.3465	0.754	0.111
Mof_H 	H 	0.6859	0.3069	0.7012	0.11
Mof_H 	H 	0.8147	0.3863	0.6668	0.007
Mof_H 	H 	0.7763	0.4228	0.7224	0.006
Mof_H 	H 	0.7174	0.452	0.6192	0.11
Mof_H 	H 	0.6886	0.4942	0.6716	0.11
Mof_H 	H 	0.7612	0.6348	0.6376	0.103
Mof_H 	H 	0.87	0.7417	0.5648	0.007
Mof_H 	H 	0.9811	0.5961	0.4756	0.011
Mof_H 	H 	0.8754	0.4869	0.5462	0.105
Mof_H 	H 	0.8314	0.881	0.9108	-0.005
Mof_H 	H 	0.9351	0.8438	0.838	0.112
Mof_H 	H 	0.0435	0.0857	0.7454	0.109
Mof_H 	H 	0.9363	0.1162	0.8218	-0.006
Mof_H 	H 	0.1023	0.8995	0.754	0.116
Mof_H 	H 	0.1129	0.9919	0.7012	0.119
Mof_H 	H 	0.0185	0.9469	0.6668	0
Mof_H 	H 	0.0013	0.8548	0.7224	-0.004
Mof_H 	H 	0.1634	0.9288	0.6192	0.115
Mof_H 	H 	0.1398	0.8342	0.6716	0.113
Mof_H 	H 	0.1012	0.7276	0.6376	0.101
Mof_H 	H 	0.0652	0.6935	0.5648	-0
Mof_H 	H 	0.0433	0.9283	0.4756	0.005
Mof_H 	H 	0.0784	0.9669	0.5462	0.105
Mof_H 	H 	0.2082	0.8314	0.4108	0.004
Mof_H 	H 	0.3182	0.9351	0.338	0.103
Mof_H 	H 	0.1689	0.0435	0.2454	0.1
Mof_H 	H 	0.062	0.9363	0.3218	-0.005
Mof_H 	H 	0.3465	0.1023	0.254	0.108
Mof_H 	H 	0.3069	0.1129	0.2012	0.108
Mof_H 	H 	0.3863	0.0185	0.1668	0.002
Mof_H 	H 	0.4228	0.0013	0.2224	0
Mof_H 	H 	0.452	0.1634	0.1192	0.11
Mof_H 	H 	0.4942	0.1398	0.1716	0.11
Mof_H 	H 	0.6348	0.1012	0.1376	0.101
Mof_H 	H 	0.7417	0.0652	0.0648	0.001
Mof_H 	H 	0.5961	0.0433	0.9756	0.001
Mof_H 	H 	0.4869	0.0784	0.0462	0.102
Mof_H 	H 	0.881	0.7578	0.4108	-0.008
Mof_H 	H 	0.8438	0.7269	0.338	0.116
Mof_H 	H 	0.0857	0.7111	0.2454	0.109
Mof_H 	H 	0.1162	0.7419	0.3218	-0.003
Mof_H 	H 	0.8995	0.6437	0.254	0.12
Mof_H 	H 	0.9919	0.6859	0.2012	0.123
Mof_H 	H 	0.9469	0.8147	0.1668	0.005
Mof_H 	H 	0.8548	0.7763	0.2224	0.001
Mof_H 	H 	0.9288	0.7174	0.1192	0.116
Mof_H 	H 	0.8342	0.6886	0.1716	0.114
Mof_H 	H 	0.7276	0.7612	0.1376	0.104
Mof_H 	H 	0.6935	0.87	0.0648	0.005
Mof_H 	H 	0.9283	0.9811	0.9756	0.013
Mof_H 	H 	0.9669	0.8754	0.0462	0.109
Mof_C 	C 	0.7485	0.2004	0.8762	0.128
Mof_C 	C 	0.7296	0.2662	0.833	-0.213
Mof_C 	C 	0.7141	0.2579	0.7818	0.191
Mof_C 	C 	0.7203	0.1789	0.7794	-0.206
Mof_C 	C 	0.7394	0.1154	0.8244	0.115
Mof_C 	C 	0.6961	0.3282	0.7316	-0.301
Mof_C 	C 	0.7633	0.4028	0.6924	0.093
Mof_C 	C 	0.7367	0.4744	0.6454	-0.298
Mof_C 	C 	0.80459	0.54709	0.60002	0.192
Mof_C 	C 	0.8059	0.6256	0.6042	-0.206
Mof_C 	C 	0.8711	0.6892	0.5606	0.12
Mof_C 	C 	0.9355	0.6043	0.509	0.115
Mof_C 	C 	0.8724	0.539	0.551	-0.209
Mof_C 	C 	0.8753	0.9234	0.8762	0.154
Mof_C 	C 	0.9374	0.9008	0.833	-0.215
Mof_C 	C 	0.0041	0.9603	0.7818	0.211
Mof_C 	C 	0.0003	0.0417	0.7794	-0.26
Mof_C 	C 	0.9362	0.0602	0.8244	0.148
Mof_C 	C 	0.0723	0.9402	0.7316	-0.321
Mof_C 	C 	0.0443	0.9048	0.6924	0.109
Mof_C 	C 	0.1179	0.8802	0.6454	-0.308
Mof_C 	C 	0.09539	0.85289	0.60002	0.196
Mof_C 	C 	0.0899	0.7702	0.6042	-0.211
Mof_C 	C 	0.0683	0.7502	0.5606	0.118
Mof_C 	C 	0.0555	0.8867	0.509	0.114
Mof_C 	C 	0.0766	0.91	0.551	-0.213
Mof_C 	C 	0.2004	0.8753	0.3762	0.122
Mof_C 	C 	0.2662	0.9374	0.333	-0.192
Mof_C 	C 	0.2579	0.0041	0.2818	0.177
Mof_C 	C 	0.1789	0.0003	0.2794	-0.225
Mof_C 	C 	0.1154	0.9362	0.3244	0.135
Mof_C 	C 	0.3282	0.0723	0.2316	-0.297
Mof_C 	C 	0.4028	0.0443	0.1924	0.094
Mof_C 	C 	0.4744	0.1179	0.1454	-0.299
Mof_C 	C 	0.54709	0.09539	0.10002	0.192
Mof_C 	C 	0.6256	0.0899	0.1042	-0.209
Mof_C 	C 	0.6892	0.0683	0.0606	0.117
Mof_C 	C 	0.6043	0.0555	0.009	0.115
Mof_C 	C 	0.539	0.0766	0.051	-0.212
Mof_C 	C 	0.9234	0.7485	0.3762	0.162
Mof_C 	C 	0.9008	0.7296	0.333	-0.241
Mof_C 	C 	0.9603	0.7141	0.2818	0.232
Mof_C 	C 	0.0417	0.7203	0.2794	-0.248
Mof_C 	C 	0.0602	0.7394	0.3244	0.132
Mof_C 	C 	0.9402	0.6961	0.2316	-0.33
Mof_C 	C 	0.9048	0.7633	0.1924	0.111
Mof_C 	C 	0.8802	0.7367	0.1454	-0.309
Mof_C 	C 	0.85289	0.80459	0.10002	0.199
Mof_C 	C 	0.7702	0.8059	0.1042	-0.21
Mof_C 	C 	0.7502	0.8711	0.0606	0.122
Mof_C 	C 	0.8867	0.9355	0.009	0.118
Mof_C 	C 	0.91	0.8724	0.051	-0.212
Mof_N 	N 	0.7544	0.1267	0.8726	-0.228
Mof_N 	N 	0.93599	0.68069	0.51262	-0.221
Mof_N 	N 	0.873	0.0007	0.8726	-0.246
Mof_N 	N 	0.05139	0.80669	0.51262	-0.228
Mof_N 	N 	0.1267	0.873	0.3726	-0.229
Mof_N 	N 	0.68069	0.05139	0.01262	-0.228
Mof_N 	N 	0.0007	0.7544	0.3726	-0.245
Mof_N 	N 	0.80669	0.93599	0.01262	-0.221
Mof_Cl	Cl	0.67004	0.91714	0.94326	-0.383
Mof_Cl	Cl	0.8867	0.1396	0.94326	-0.398
Mof_Cl	Cl	0.91714	0.8867	0.44326	-0.378
Mof_Cl	Cl	0.1396	0.67004	0.44326	-0.401
_end
