data_functionalizedCrystal
_audit_creation_method	'EQeq! by Chris Wilmer'
_symmetry_space_group_name_H-M	'P1'
_symmetry_Int_Tables_number	1
_symmetry_cell_setting	triclinic
loop_
_symmetry_equiv_pos_as_xyz
  x,y,z
_cell_length_a	22.2807
_cell_length_b	22.2807
_cell_length_c	12.6044
_cell_angle_alpha	90
_cell_angle_beta	90
_cell_angle_gamma	120
loop_
_atom_site_label
_atom_site_type_symbol
_atom_site_fract_x
_atom_site_fract_y
_atom_site_fract_z
_atom_site_charge
Mof_Cu	Cu	0.20851	0.36943	0.83003	0.884
Mof_N 	N 	0.1523	0.2967	0.5216	-0.122
Mof_N 	N 	0.1948	0.3315	0.683	-0.218
Mof_N 	N 	0.1714	0.3701	0.1504	-0.126
Mof_N 	N 	0.2106	0.3858	0.9852	-0.203
Mof_N 	N 	0.0384	0.3985	0.8124	-0.12
Mof_N 	N 	0.1153	0.3641	0.822	-0.234
Mof_N 	N 	0.0194	0.5876	0.7653	-0.142
Mof_N 	N 	0.0833	0.692	0.8283	-0.212
Mof_C 	C 	0.1135	0.2892	0.4242	-0.038
Mof_H 	H 	0.0815	0.306	0.4358	0.035
Mof_H 	H 	0.0869	0.2406	0.4047	0.039
Mof_C 	C 	0.1634	0.3302	0.3346	-0.132
Mof_H 	H 	0.1968	0.3761	0.36	0.069
Mof_H 	H 	0.1885	0.3071	0.3128	0.051
Mof_C 	C 	0.1252	0.3365	0.2411	-0.036
Mof_H 	H 	0.0888	0.2908	0.2203	0.039
Mof_H 	H 	0.1037	0.3634	0.2615	0.043
Mof_C 	C 	0.1576	0.3374	0.6048	0.077
Mof_H 	H 	0.1381	0.3657	0.6072	-0.012
Mof_C 	C 	0.2097	0.2821	0.647	0.02
Mof_H 	H 	0.2329	0.2645	0.6858	0.037
Mof_C 	C 	0.1856	0.2628	0.546	-0.004
Mof_H 	H 	0.1912	0.2321	0.5029	0.033
Mof_C 	C 	0.1609	0.3435	0.0497	0.082
Mof_H 	H 	0.1234	0.3012	0.0295	-0.015
Mof_C 	C 	0.2551	0.4414	0.043	-0.019
Mof_H 	H 	0.295	0.4798	0.0176	0.01
Mof_C 	C 	0.2312	0.4317	0.1472	-0.002
Mof_H 	H 	0.2523	0.4619	0.2037	0.024
Mof_C 	C 	0.0081	0.444	0.8057	-0.031
Mof_H 	H 	0.0236	0.4758	0.8654	0.043
Mof_H 	H 	0.9579	0.4163	0.8088	0.047
Mof_C 	C 	0.0292	0.4837	0.7051	-0.172
Mof_H 	H 	0.016	0.4518	0.6459	0.072
Mof_H 	H 	0.0792	0.5131	0.704	0.077
Mof_C 	C 	0.9953	0.5287	0.6927	0.028
Mof_H 	H 	0.003	0.5462	0.6206	0.008
Mof_H 	H 	0.9457	0.4992	0.7022	0.022
Mof_C 	C 	0.1033	0.4155	0.8299	0.098
Mof_H 	H 	0.1377	0.4604	0.8466	-0.023
Mof_C 	C 	0.0525	0.3083	0.803	0.056
Mof_H 	H 	0.0425	0.2626	0.7969	-0.021
Mof_C 	C 	0.0062	0.3315	0.7944	-0.05
Mof_H 	H 	0.9594	0.3041	0.7784	0.051
Mof_C 	C 	0.0747	0.6501	0.748	0.083
Mof_H 	H 	0.103	0.6624	0.6883	-0.02
Mof_C 	C 	0.0295	0.6537	0.8957	-0.005
Mof_H 	H 	0.0214	0.6697	0.9592	0.045
Mof_C 	C 	0.9906	0.5901	0.8569	0.029
Mof_H 	H 	0.9509	0.5542	0.8877	0.024
Mof_Cu	Cu	0.63057	0.83908	0.83003	0.886
Mof_N 	N 	0.7033	0.8556	0.5216	-0.119
Mof_N 	N 	0.6685	0.8633	0.683	-0.216
Mof_N 	N 	0.6299	0.8013	0.1504	-0.124
Mof_N 	N 	0.6142	0.8248	0.9852	-0.204
Mof_N 	N 	0.6015	0.6399	0.8124	-0.124
Mof_N 	N 	0.6359	0.7512	0.822	-0.23
Mof_N 	N 	0.4124	0.4318	0.7653	-0.121
Mof_N 	N 	0.308	0.3913	0.8283	-0.214
Mof_C 	C 	0.7108	0.8243	0.4242	-0.04
Mof_H 	H 	0.694	0.7755	0.4358	0.04
Mof_H 	H 	0.7594	0.8463	0.4047	0.046
Mof_C 	C 	0.6698	0.8332	0.3346	-0.129
Mof_H 	H 	0.6239	0.8207	0.36	0.069
Mof_H 	H 	0.6929	0.8814	0.3128	0.055
Mof_C 	C 	0.6635	0.7887	0.2411	-0.039
Mof_H 	H 	0.7092	0.798	0.2203	0.046
Mof_H 	H 	0.6366	0.7403	0.2615	0.046
Mof_C 	C 	0.6626	0.8202	0.6048	0.078
Mof_H 	H 	0.6343	0.7724	0.6072	-0.01
Mof_C 	C 	0.7179	0.9276	0.647	0.021
Mof_H 	H 	0.7355	0.9684	0.6858	0.039
Mof_C 	C 	0.7372	0.9228	0.546	-0.003
Mof_H 	H 	0.7679	0.9591	0.5029	0.038
Mof_C 	C 	0.6565	0.8174	0.0497	0.085
Mof_H 	H 	0.6988	0.8222	0.0295	-0.012
Mof_C 	C 	0.5586	0.8137	0.043	-0.015
Mof_H 	H 	0.5202	0.8152	0.0176	0.01
Mof_C 	C 	0.5683	0.7995	0.1472	-0.003
Mof_H 	H 	0.5381	0.7904	0.2037	0.025
Mof_C 	C 	0.556	0.5641	0.8057	-0.024
Mof_H 	H 	0.5242	0.5478	0.8654	0.044
Mof_H 	H 	0.5837	0.5416	0.8088	0.039
Mof_C 	C 	0.5163	0.5455	0.7051	-0.142
Mof_H 	H 	0.5482	0.5642	0.6459	0.067
Mof_H 	H 	0.4869	0.5661	0.704	0.069
Mof_C 	C 	0.4713	0.4666	0.6927	-0.028
Mof_H 	H 	0.4538	0.4568	0.6206	0.032
Mof_H 	H 	0.5008	0.4465	0.7022	0.036
Mof_C 	C 	0.5845	0.6878	0.8299	0.099
Mof_H 	H 	0.5396	0.6773	0.8466	-0.023
Mof_C 	C 	0.6917	0.7442	0.803	0.041
Mof_H 	H 	0.7374	0.7799	0.7969	-0.008
Mof_C 	C 	0.6685	0.6747	0.7944	-0.02
Mof_H 	H 	0.6959	0.6553	0.7784	0.034
Mof_C 	C 	0.3499	0.4246	0.748	0.081
Mof_H 	H 	0.3376	0.4406	0.6883	-0.018
Mof_C 	C 	0.3463	0.3758	0.8957	0.023
Mof_H 	H 	0.3303	0.3517	0.9592	0.039
Mof_C 	C 	0.4099	0.4005	0.8569	-0.008
Mof_H 	H 	0.4458	0.3967	0.8877	0.036
Mof_Cu	Cu	0.16092	0.79149	0.83003	0.885
Mof_N 	N 	0.1444	0.8477	0.5216	-0.118
Mof_N 	N 	0.1367	0.8052	0.683	-0.217
Mof_N 	N 	0.1987	0.8286	0.1504	-0.122
Mof_N 	N 	0.1752	0.7894	0.9852	-0.202
Mof_N 	N 	0.3601	0.9616	0.8124	-0.129
Mof_N 	N 	0.2488	0.8847	0.822	-0.229
Mof_N 	N 	0.5682	0.9806	0.7653	-0.101
Mof_N 	N 	0.6087	0.9167	0.8283	-0.217
Mof_C 	C 	0.1757	0.8865	0.4242	-0.046
Mof_H 	H 	0.2245	0.9185	0.4358	0.045
Mof_H 	H 	0.1537	0.9131	0.4047	0.049
Mof_C 	C 	0.1668	0.8366	0.3346	-0.121
Mof_H 	H 	0.1793	0.8032	0.36	0.066
Mof_H 	H 	0.1186	0.8115	0.3128	0.051
Mof_C 	C 	0.2113	0.8748	0.2411	-0.045
Mof_H 	H 	0.202	0.9112	0.2203	0.05
Mof_H 	H 	0.2597	0.8963	0.2615	0.05
Mof_C 	C 	0.1798	0.8424	0.6048	0.077
Mof_H 	H 	0.2276	0.8619	0.6072	-0.01
Mof_C 	C 	0.0724	0.7903	0.647	0.02
Mof_H 	H 	0.0316	0.7671	0.6858	0.034
Mof_C 	C 	0.0772	0.8144	0.546	-0.005
Mof_H 	H 	0.0409	0.8088	0.5029	0.033
Mof_C 	C 	0.1826	0.8391	0.0497	0.082
Mof_H 	H 	0.1778	0.8766	0.0295	-0.011
Mof_C 	C 	0.1863	0.7449	0.043	-0.018
Mof_H 	H 	0.1848	0.705	0.0176	0.009
Mof_C 	C 	0.2005	0.7688	0.1472	-0.002
Mof_H 	H 	0.2096	0.7477	0.2037	0.024
Mof_C 	C 	0.4359	0.9919	0.8057	-0.016
Mof_H 	H 	0.4522	0.9764	0.8654	0.046
Mof_H 	H 	0.4584	0.0421	0.8088	0.03
Mof_C 	C 	0.4545	0.9708	0.7051	-0.114
Mof_H 	H 	0.4358	0.984	0.6459	0.061
Mof_H 	H 	0.4339	0.9208	0.704	0.062
Mof_C 	C 	0.5334	0.0047	0.6927	-0.08
Mof_H 	H 	0.5432	0.997	0.6206	0.054
Mof_H 	H 	0.5535	0.0543	0.7022	0.05
Mof_C 	C 	0.3122	0.8967	0.8299	0.1
Mof_H 	H 	0.3227	0.8623	0.8466	-0.023
Mof_C 	C 	0.2558	0.9475	0.803	0.032
Mof_H 	H 	0.2201	0.9575	0.7969	-0.007
Mof_C 	C 	0.3253	0.9938	0.7944	0.006
Mof_H 	H 	0.3447	0.0406	0.7784	0.018
Mof_C 	C 	0.5754	0.9253	0.748	0.079
Mof_H 	H 	0.5594	0.897	0.6883	-0.016
Mof_C 	C 	0.6242	0.9705	0.8957	0.051
Mof_H 	H 	0.6483	0.9786	0.9592	0.032
Mof_C 	C 	0.5995	0.0094	0.8569	-0.045
Mof_H 	H 	0.6033	0.0491	0.8877	0.047
Mof_Cu	Cu	0.79149	0.63057	0.16997	0.883
Mof_N 	N 	0.8477	0.7033	0.4784	-0.118
Mof_N 	N 	0.8052	0.6685	0.317	-0.217
Mof_N 	N 	0.8286	0.6299	0.8496	-0.125
Mof_N 	N 	0.7894	0.6142	0.0148	-0.244
Mof_N 	N 	0.9616	0.6015	0.1876	-0.133
Mof_N 	N 	0.8847	0.6359	0.178	-0.231
Mof_N 	N 	0.9806	0.4124	0.2347	-0.094
Mof_N 	N 	0.9167	0.308	0.1717	-0.221
Mof_C 	C 	0.8865	0.7108	0.5758	-0.044
Mof_H 	H 	0.9185	0.694	0.5642	0.044
Mof_H 	H 	0.9131	0.7594	0.5953	0.049
Mof_C 	C 	0.8366	0.6698	0.6654	-0.125
Mof_H 	H 	0.8032	0.6239	0.64	0.068
Mof_H 	H 	0.8115	0.6929	0.6872	0.054
Mof_C 	C 	0.8748	0.6635	0.7589	-0.041
Mof_H 	H 	0.9112	0.7092	0.7797	0.049
Mof_H 	H 	0.8963	0.6366	0.7385	0.049
Mof_C 	C 	0.8424	0.6626	0.3952	0.078
Mof_H 	H 	0.8619	0.6343	0.3928	-0.01
Mof_C 	C 	0.7903	0.7179	0.353	0.021
Mof_H 	H 	0.7671	0.7355	0.3142	0.037
Mof_C 	C 	0.8144	0.7372	0.454	-0.004
Mof_H 	H 	0.8088	0.7679	0.4971	0.036
Mof_C 	C 	0.8391	0.6565	0.9503	0.124
Mof_H 	H 	0.8766	0.6988	0.9705	-0.012
Mof_C 	C 	0.7449	0.5586	0.957	0.029
Mof_H 	H 	0.705	0.5202	0.9824	0.006
Mof_C 	C 	0.7688	0.5683	0.8528	-0.017
Mof_H 	H 	0.7477	0.5381	0.7963	0.032
Mof_C 	C 	0.9919	0.556	0.1943	-0.011
Mof_H 	H 	0.9764	0.5242	0.1346	0.038
Mof_H 	H 	0.0421	0.5837	0.1912	0.023
Mof_C 	C 	0.9708	0.5163	0.2949	-0.107
Mof_H 	H 	0.984	0.5482	0.3541	0.06
Mof_H 	H 	0.9208	0.4869	0.296	0.058
Mof_C 	C 	0.0047	0.4713	0.3073	-0.097
Mof_H 	H 	0.997	0.4538	0.3794	0.061
Mof_H 	H 	0.0543	0.5008	0.2978	0.053
Mof_C 	C 	0.8967	0.5845	0.1701	0.096
Mof_H 	H 	0.8623	0.5396	0.1534	-0.029
Mof_C 	C 	0.9475	0.6917	0.197	0.023
Mof_H 	H 	0.9575	0.7374	0.2031	-0.001
Mof_C 	C 	0.9938	0.6685	0.2056	0.011
Mof_H 	H 	0.0406	0.6959	0.2216	0.013
Mof_C 	C 	0.9253	0.3499	0.252	0.076
Mof_H 	H 	0.897	0.3376	0.3117	-0.016
Mof_C 	C 	0.9705	0.3463	0.1043	0.061
Mof_H 	H 	0.9786	0.3303	0.0408	0.018
Mof_C 	C 	0.0094	0.4099	0.1431	-0.064
Mof_H 	H 	0.0491	0.4458	0.1123	0.045
Mof_Cu	Cu	0.36943	0.16092	0.16997	0.882
Mof_N 	N 	0.2967	0.1444	0.4784	-0.12
Mof_N 	N 	0.3315	0.1367	0.317	-0.217
Mof_N 	N 	0.3701	0.1987	0.8496	-0.126
Mof_N 	N 	0.3858	0.1752	0.0148	-0.246
Mof_N 	N 	0.3985	0.3601	0.1876	-0.127
Mof_N 	N 	0.3641	0.2488	0.178	-0.234
Mof_N 	N 	0.5876	0.5682	0.2347	-0.121
Mof_N 	N 	0.692	0.6087	0.1717	-0.216
Mof_C 	C 	0.2892	0.1757	0.5758	-0.041
Mof_H 	H 	0.306	0.2245	0.5642	0.041
Mof_H 	H 	0.2406	0.1537	0.5953	0.044
Mof_C 	C 	0.3302	0.1668	0.6654	-0.127
Mof_H 	H 	0.3761	0.1793	0.64	0.068
Mof_H 	H 	0.3071	0.1186	0.6872	0.051
Mof_C 	C 	0.3365	0.2113	0.7589	-0.039
Mof_H 	H 	0.2908	0.202	0.7797	0.045
Mof_H 	H 	0.3634	0.2597	0.7385	0.047
Mof_C 	C 	0.3374	0.1798	0.3952	0.076
Mof_H 	H 	0.3657	0.2276	0.3928	-0.011
Mof_C 	C 	0.2821	0.0724	0.353	0.019
Mof_H 	H 	0.2645	0.0316	0.3142	0.034
Mof_C 	C 	0.2628	0.0772	0.454	-0.005
Mof_H 	H 	0.2321	0.0409	0.4971	0.031
Mof_C 	C 	0.3435	0.1826	0.9503	0.125
Mof_H 	H 	0.3012	0.1778	0.9705	-0.013
Mof_C 	C 	0.4414	0.1863	0.957	0.031
Mof_H 	H 	0.4798	0.1848	0.9824	0.006
Mof_C 	C 	0.4317	0.2005	0.8528	-0.018
Mof_H 	H 	0.4619	0.2096	0.7963	0.032
Mof_C 	C 	0.444	0.4359	0.1943	-0.02
Mof_H 	H 	0.4758	0.4522	0.1346	0.035
Mof_H 	H 	0.4163	0.4584	0.1912	0.034
Mof_C 	C 	0.4837	0.4545	0.2949	-0.144
Mof_H 	H 	0.4518	0.4358	0.3541	0.067
Mof_H 	H 	0.5131	0.4339	0.296	0.068
Mof_C 	C 	0.5287	0.5334	0.3073	-0.028
Mof_H 	H 	0.5462	0.5432	0.3794	0.032
Mof_H 	H 	0.4992	0.5535	0.2978	0.035
Mof_C 	C 	0.4155	0.3122	0.1701	0.095
Mof_H 	H 	0.4604	0.3227	0.1534	-0.029
Mof_C 	C 	0.3083	0.2558	0.197	0.041
Mof_H 	H 	0.2626	0.2201	0.2031	-0.017
Mof_C 	C 	0.3315	0.3253	0.2056	-0.026
Mof_H 	H 	0.3041	0.3447	0.2216	0.033
Mof_C 	C 	0.6501	0.5754	0.252	0.079
Mof_H 	H 	0.6624	0.5594	0.3117	-0.019
Mof_C 	C 	0.6537	0.6242	0.1043	0.02
Mof_H 	H 	0.6697	0.6483	0.0408	0.028
Mof_C 	C 	0.5901	0.5995	0.1431	-0.011
Mof_H 	H 	0.5542	0.6033	0.1123	0.03
Mof_Cu	Cu	0.83908	0.20851	0.16997	0.883
Mof_N 	N 	0.8556	0.1523	0.4784	-0.12
Mof_N 	N 	0.8633	0.1948	0.317	-0.217
Mof_N 	N 	0.8013	0.1714	0.8496	-0.127
Mof_N 	N 	0.8248	0.2106	0.0148	-0.244
Mof_N 	N 	0.6399	0.0384	0.1876	-0.123
Mof_N 	N 	0.7512	0.1153	0.178	-0.235
Mof_N 	N 	0.4318	0.0194	0.2347	-0.141
Mof_N 	N 	0.3913	0.0833	0.1717	-0.213
Mof_C 	C 	0.8243	0.1135	0.5758	-0.036
Mof_H 	H 	0.7755	0.0815	0.5642	0.037
Mof_H 	H 	0.8463	0.0869	0.5953	0.042
Mof_C 	C 	0.8332	0.1634	0.6654	-0.134
Mof_H 	H 	0.8207	0.1968	0.64	0.07
Mof_H 	H 	0.8814	0.1885	0.6872	0.055
Mof_C 	C 	0.7887	0.1252	0.7589	-0.034
Mof_H 	H 	0.798	0.0888	0.7797	0.041
Mof_H 	H 	0.7403	0.1037	0.7385	0.044
Mof_C 	C 	0.8202	0.1576	0.3952	0.078
Mof_H 	H 	0.7724	0.1381	0.3928	-0.011
Mof_C 	C 	0.9276	0.2097	0.353	0.021
Mof_H 	H 	0.9684	0.2329	0.3142	0.041
Mof_C 	C 	0.9228	0.1856	0.454	-0.002
Mof_H 	H 	0.9591	0.1912	0.4971	0.037
Mof_C 	C 	0.8174	0.1609	0.9503	0.123
Mof_H 	H 	0.8222	0.1234	0.9705	-0.015
Mof_C 	C 	0.8137	0.2551	0.957	0.028
Mof_H 	H 	0.8152	0.295	0.9824	0.007
Mof_C 	C 	0.7995	0.2312	0.8528	-0.017
Mof_H 	H 	0.7904	0.2523	0.7963	0.031
Mof_C 	C 	0.5641	0.0081	0.1943	-0.025
Mof_H 	H 	0.5478	0.0236	0.1346	0.033
Mof_H 	H 	0.5416	0.9579	0.1912	0.042
Mof_C 	C 	0.5455	0.0292	0.2949	-0.174
Mof_H 	H 	0.5642	0.016	0.3541	0.073
Mof_H 	H 	0.5661	0.0792	0.296	0.076
Mof_C 	C 	0.4666	0.9953	0.3073	0.026
Mof_H 	H 	0.4568	0.003	0.3794	0.009
Mof_H 	H 	0.4465	0.9457	0.2978	0.022
Mof_C 	C 	0.6878	0.1033	0.1701	0.094
Mof_H 	H 	0.6773	0.1377	0.1534	-0.029
Mof_C 	C 	0.7442	0.0525	0.197	0.048
Mof_H 	H 	0.7799	0.0425	0.2031	-0.015
Mof_C 	C 	0.6747	0.0062	0.2056	-0.047
Mof_H 	H 	0.6553	0.9594	0.2216	0.047
Mof_C 	C 	0.4246	0.0747	0.252	0.081
Mof_H 	H 	0.4406	0.103	0.3117	-0.021
Mof_C 	C 	0.3758	0.0295	0.1043	-0.009
Mof_H 	H 	0.3517	0.0214	0.0408	0.034
Mof_C 	C 	0.4005	0.9906	0.1431	0.027
Mof_H 	H 	0.3967	0.9509	0.1123	0.018
Mof_Mo	Mo	0.1395	0.1613	0.9148	0.878
Mof_Mo	Mo	0.97398	0.10071	0.8072	1.43
Mof_O 	O 	0.068	0.1333	0.8013	-0.661
Mof_O 	O 	0.1408	0.1772	0.0643	-0.609
Mof_O 	O 	0.2098	0.2371	0.882	-0.344
Mof_O 	O 	0.8871	0.0243	0.8032	-0.63
Mof_O 	O 	0.047	0.049	0.905	-0.344
Mof_Mo	Mo	0.1165	0.1717	0.9293	1.255
Mof_Mo	Mo	0.9815	0.0515	0.7421	0.246
Mof_O 	O 	0.166	0.14	0.018	-0.554
Mof_O 	O 	0.16	0.2526	0.878	-0.478
Mof_O 	O 	0.97	0.071	0.616	-0.29
Mof_O 	O 	0.015	0.0728	0.97	-0.329
Mof_Mo	Mo	0.8387	0.9782	0.9148	0.87
Mof_Mo	Mo	0.89929	0.87327	0.8072	1.236
Mof_O 	O 	0.8667	0.9347	0.8013	-0.651
Mof_O 	O 	0.8228	0.9636	0.0643	-0.558
Mof_O 	O 	0.7629	0.9727	0.882	-0.341
Mof_O 	O 	0.9757	0.8628	0.8032	-0.605
Mof_O 	O 	0.951	0.998	0.905	-0.337
Mof_Mo	Mo	0.8283	0.9448	0.9293	1.267
Mof_Mo	Mo	0.9485	0.93	0.7421	0.477
Mof_O 	O 	0.86	0.026	0.018	-0.564
Mof_O 	O 	0.7474	0.9074	0.878	-0.479
Mof_O 	O 	0.929	0.899	0.616	-0.322
Mof_O 	O 	0.9272	0.9422	0.97	-0.31
Mof_Mo	Mo	0.0218	0.8605	0.9148	0.87
Mof_Mo	Mo	0.12673	0.02602	0.8072	1.456
Mof_O 	O 	0.0653	0.932	0.8013	-0.657
Mof_O 	O 	0.0364	0.8592	0.0643	-0.574
Mof_O 	O 	0.0273	0.7902	0.882	-0.346
Mof_O 	O 	0.1372	0.1129	0.8032	-0.617
Mof_O 	O 	0.002	0.953	0.905	-0.352
Mof_Mo	Mo	0.0552	0.8835	0.9293	1.236
Mof_Mo	Mo	0.07	0.0185	0.7421	0.161
Mof_O 	O 	0.974	0.834	0.018	-0.542
Mof_O 	O 	0.0926	0.84	0.878	-0.474
Mof_O 	O 	0.101	0.03	0.616	-0.283
Mof_O 	O 	0.0578	0.985	0.97	-0.307
Mof_Mo	Mo	0.8605	0.8387	0.0852	0.853
Mof_Mo	Mo	0.02602	0.89929	0.1928	1.298
Mof_O 	O 	0.932	0.8667	0.1987	-0.644
Mof_O 	O 	0.8592	0.8228	0.9357	-0.538
Mof_O 	O 	0.7902	0.7629	0.118	-0.345
Mof_O 	O 	0.1129	0.9757	0.1968	-0.599
Mof_O 	O 	0.953	0.951	0.095	-0.347
Mof_Mo	Mo	0.8835	0.8283	0.0707	1.217
Mof_Mo	Mo	0.0185	0.9485	0.2579	0.369
Mof_O 	O 	0.834	0.86	0.982	-0.535
Mof_O 	O 	0.84	0.7474	0.122	-0.475
Mof_O 	O 	0.03	0.929	0.384	-0.31
Mof_O 	O 	0.985	0.9272	0.03	-0.326
Mof_Mo	Mo	0.1613	0.0218	0.0852	0.854
Mof_Mo	Mo	0.10071	0.12673	0.1928	1.554
Mof_O 	O 	0.1333	0.0653	0.1987	-0.654
Mof_O 	O 	0.1772	0.0364	0.9357	-0.577
Mof_O 	O 	0.2371	0.0273	0.118	-0.349
Mof_O 	O 	0.0243	0.1372	0.1968	-0.633
Mof_O 	O 	0.049	0.002	0.095	-0.357
Mof_Mo	Mo	0.1717	0.0552	0.0707	1.192
Mof_Mo	Mo	0.0515	0.07	0.2579	0.057
Mof_O 	O 	0.14	0.974	0.982	-0.52
Mof_O 	O 	0.2526	0.0926	0.122	-0.472
Mof_O 	O 	0.071	0.101	0.384	-0.267
Mof_O 	O 	0.0728	0.0578	0.03	-0.351
Mof_Mo	Mo	0.9782	0.1395	0.0852	0.858
Mof_Mo	Mo	0.87327	0.97398	0.1928	1.274
Mof_O 	O 	0.9347	0.068	0.1987	-0.643
Mof_O 	O 	0.9636	0.1408	0.9357	-0.566
Mof_O 	O 	0.9727	0.2098	0.118	-0.342
Mof_O 	O 	0.8628	0.8871	0.1968	-0.615
Mof_O 	O 	0.998	0.047	0.095	-0.332
Mof_Mo	Mo	0.9448	0.1165	0.0707	1.238
Mof_Mo	Mo	0.93	0.9815	0.2579	0.446
Mof_O 	O 	0.026	0.166	0.982	-0.545
Mof_O 	O 	0.9074	0.16	0.122	-0.479
Mof_O 	O 	0.899	0.97	0.384	-0.317
Mof_O 	O 	0.9422	0.015	0.03	-0.343
Mof_P 	P 	-0	0	-0	1.192
_end
