data_functionalizedCrystal
_audit_creation_method	'EQeq! by Chris Wilmer'
_symmetry_space_group_name_H-M	'P1'
_symmetry_Int_Tables_number	1
_symmetry_cell_setting	triclinic
loop_
_symmetry_equiv_pos_as_xyz
  x,y,z
_cell_length_a	36.4616
_cell_length_b	19.2841
_cell_length_c	16.0675
_cell_angle_alpha	90
_cell_angle_beta	95.679
_cell_angle_gamma	90
loop_
_atom_site_label
_atom_site_type_symbol
_atom_site_fract_x
_atom_site_fract_y
_atom_site_fract_z
_atom_site_charge
Mof_N 	N 	0.28881	0.1382	0.0711	-0.116
Mof_N 	N 	0.297	0.8151	0.3999	-0.126
Mof_C 	C 	0.4474	0.937	0.919	-0.066
Mof_H 	H 	0.4384	0.8955	0.9383	0.037
Mof_C 	C 	0.4733	0.9375	0.8626	-0.075
Mof_H 	H 	0.4823	0.896	0.8431	0.039
Mof_C 	C 	0.3056	0.0914	0.096	-0.103
Mof_C 	C 	0.315	0.8454	0.3599	-0.07
Mof_B 	B 	0.4366	0.8416	0.1122	0.096
Mof_H 	H 	0.4475	0.8911	0.0912	-0.077
Mof_C 	C 	0.2317	0.2004	0.043	-0.074
Mof_H 	H 	0.2199	0.1667	0.0721	0.04
Mof_C 	C 	0.2692	0.1959	0.0355	0.066
Mof_B 	B 	0.389	0.811	0.0762	0.143
Mof_H 	H 	0.3697	0.8405	0.0325	-0.1
Mof_C 	C 	0.2878	0.2446	0.9932	-0.078
Mof_H 	H 	0.313	0.2404	0.9893	0.04
Mof_C 	C 	0.2733	0.7819	0.4515	0.07
Mof_C 	C 	0.2859	0.7641	0.5313	-0.083
Mof_H 	H 	0.3101	0.7737	0.5517	0.044
Mof_B 	B 	0.3734	0.7542	0.1602	0.117
Mof_H 	H 	0.3442	0.7476	0.1701	-0.095
Mof_B 	B 	0.4116	0.749	0.2464	0.103
Mof_H 	H 	0.4067	0.7386	0.3117	-0.104
Mof_C 	C 	0.2375	0.7683	0.4183	-0.079
Mof_H 	H 	0.2294	0.7806	0.3636	0.042
Mof_B 	B 	0.4287	0.7714	0.0421	0.091
Mof_H 	H 	0.4344	0.7769	0.9765	-0.089
Mof_B 	B 	0.4509	0.8039	0.2177	0.141
Mof_H 	H 	0.4708	0.8285	0.2645	-0.111
Mof_B 	B 	0.3914	0.7206	0.071	0.055
Mof_H 	H 	0.3729	0.6931	0.0239	-0.078
Mof_B 	B 	0.465	0.7679	0.1247	0.092
Mof_H 	H 	0.4941	0.7717	0.113	-0.091
Mof_B 	B 	0.4042	0.6839	0.1712	0.111
Mof_H 	H 	0.3941	0.633	0.1898	-0.097
Mof_B 	B 	0.4377	0.693	0.0968	0.14
Mof_H 	H 	0.4492	0.6476	0.0669	-0.109
Mof_B 	B 	0.2304	0.9519	0.3504	0.138
Mof_H 	H 	0.2434	0.9215	0.4032	-0.097
Mof_B 	B 	0.2276	0.9202	0.2393	0.13
Mof_H 	H 	0.2387	0.8698	0.2217	-0.096
Mof_B 	B 	0.4503	0.7129	0.2022	0.057
Mof_H 	H 	0.4702	0.6803	0.2403	-0.085
Mof_B 	B 	0.3472	0.9515	0.5512	0.151
Mof_H 	H 	0.3232	0.9211	0.5256	-0.107
Mof_B 	B 	0.1882	0.9258	0.2946	0.067
Mof_H 	H 	0.1751	0.8773	0.3119	-0.08
Mof_B 	B 	0.3961	0.9215	0.5501	0.098
Mof_H 	H 	0.4031	0.8713	0.5232	-0.105
Mof_B 	B 	0.4214	0.9539	0.6418	0.113
Mof_H 	H 	0.4449	0.9242	0.672	-0.089
Mof_B 	B 	0.1849	0.9547	0.1885	0.12
Mof_H 	H 	0.1697	0.9256	0.1373	-0.097
Mof_B 	B 	0.3752	0.9244	0.6435	0.099
Mof_H 	H 	0.3689	0.8756	0.6746	-0.089
Mof_Sn	Sn	0.39452	0.8623	0.2093	0.063
Mof_Ag	Ag	0.34202	0.9264	0.29706	0.112
Mof_N 	N 	0.78881	0.6382	0.0711	-0.117
Mof_N 	N 	0.797	0.3151	0.3999	-0.127
Mof_C 	C 	0.9474	0.437	0.919	-0.072
Mof_H 	H 	0.9384	0.3955	0.9383	0.037
Mof_C 	C 	0.9733	0.4375	0.8626	-0.082
Mof_H 	H 	0.9823	0.396	0.8431	0.039
Mof_C 	C 	0.8056	0.5914	0.096	-0.105
Mof_C 	C 	0.815	0.3454	0.3599	-0.07
Mof_B 	B 	0.9366	0.3416	0.1122	0.095
Mof_H 	H 	0.9475	0.3911	0.0912	-0.079
Mof_C 	C 	0.7317	0.7004	0.043	-0.074
Mof_H 	H 	0.7199	0.6667	0.0721	0.039
Mof_C 	C 	0.7692	0.6959	0.0355	0.064
Mof_B 	B 	0.889	0.311	0.0762	0.142
Mof_H 	H 	0.8697	0.3405	0.0325	-0.101
Mof_C 	C 	0.7878	0.7446	0.9932	-0.077
Mof_H 	H 	0.813	0.7404	0.9893	0.04
Mof_C 	C 	0.7733	0.2819	0.4515	0.07
Mof_C 	C 	0.7859	0.2641	0.5313	-0.083
Mof_H 	H 	0.8101	0.2737	0.5517	0.044
Mof_B 	B 	0.8734	0.2542	0.1602	0.118
Mof_H 	H 	0.8442	0.2476	0.1701	-0.095
Mof_B 	B 	0.9116	0.249	0.2464	0.104
Mof_H 	H 	0.9067	0.2386	0.3117	-0.105
Mof_C 	C 	0.7375	0.2683	0.4183	-0.08
Mof_H 	H 	0.7294	0.2806	0.3636	0.042
Mof_B 	B 	0.9287	0.2714	0.0421	0.09
Mof_H 	H 	0.9344	0.2769	0.9765	-0.089
Mof_B 	B 	0.9509	0.3039	0.2177	0.141
Mof_H 	H 	0.9708	0.3285	0.2645	-0.112
Mof_B 	B 	0.8914	0.2206	0.071	0.055
Mof_H 	H 	0.8729	0.1931	0.0239	-0.078
Mof_B 	B 	0.965	0.2679	0.1247	0.092
Mof_H 	H 	0.9941	0.2717	0.113	-0.091
Mof_B 	B 	0.9042	0.1839	0.1712	0.11
Mof_H 	H 	0.8941	0.133	0.1898	-0.097
Mof_B 	B 	0.9377	0.193	0.0968	0.141
Mof_H 	H 	0.9492	0.1476	0.0669	-0.11
Mof_B 	B 	0.7304	0.4519	0.3504	0.111
Mof_H 	H 	0.7434	0.4215	0.4032	-0.091
Mof_B 	B 	0.7276	0.4202	0.2393	0.139
Mof_H 	H 	0.7387	0.3698	0.2217	-0.099
Mof_B 	B 	0.9503	0.2129	0.2022	0.057
Mof_H 	H 	0.9702	0.1803	0.2403	-0.086
Mof_B 	B 	0.8472	0.4515	0.5512	0.126
Mof_H 	H 	0.8232	0.4211	0.5256	-0.102
Mof_B 	B 	0.6882	0.4258	0.2946	0.069
Mof_H 	H 	0.6751	0.3773	0.3119	-0.082
Mof_B 	B 	0.8961	0.4215	0.5501	0.106
Mof_H 	H 	0.9031	0.3713	0.5232	-0.108
Mof_B 	B 	0.9214	0.4539	0.6418	0.081
Mof_H 	H 	0.9449	0.4242	0.672	-0.081
Mof_B 	B 	0.6849	0.4547	0.1885	0.087
Mof_H 	H 	0.6697	0.4256	0.1373	-0.089
Mof_B 	B 	0.8752	0.4244	0.6435	0.102
Mof_H 	H 	0.8689	0.3756	0.6746	-0.09
Mof_Sn	Sn	0.89452	0.3623	0.2093	0.059
Mof_Ag	Ag	0.84202	0.4264	0.29706	0.099
Mof_N 	N 	0.71119	0.1382	0.9289	-0.117
Mof_N 	N 	0.703	0.8151	0.6001	-0.127
Mof_C 	C 	0.5526	0.937	0.081	-0.067
Mof_H 	H 	0.5616	0.8955	0.0617	0.036
Mof_C 	C 	0.5267	0.9375	0.1374	-0.076
Mof_H 	H 	0.5177	0.896	0.1569	0.038
Mof_C 	C 	0.6944	0.0914	0.904	-0.104
Mof_C 	C 	0.685	0.8454	0.6401	-0.071
Mof_B 	B 	0.5634	0.8416	0.8878	0.095
Mof_H 	H 	0.5525	0.8911	0.9088	-0.078
Mof_C 	C 	0.7683	0.2004	0.957	-0.075
Mof_H 	H 	0.7801	0.1667	0.9279	0.039
Mof_C 	C 	0.7308	0.1959	0.9645	0.065
Mof_B 	B 	0.611	0.811	0.9238	0.142
Mof_H 	H 	0.6303	0.8405	0.9675	-0.1
Mof_C 	C 	0.7122	0.2446	0.0068	-0.078
Mof_H 	H 	0.687	0.2404	0.0107	0.04
Mof_C 	C 	0.7267	0.7819	0.5485	0.07
Mof_C 	C 	0.7141	0.7641	0.4687	-0.083
Mof_H 	H 	0.6899	0.7737	0.4483	0.044
Mof_B 	B 	0.6266	0.7542	0.8398	0.117
Mof_H 	H 	0.6558	0.7476	0.8299	-0.095
Mof_B 	B 	0.5884	0.749	0.7536	0.103
Mof_H 	H 	0.5933	0.7386	0.6883	-0.104
Mof_C 	C 	0.7625	0.7683	0.5817	-0.079
Mof_H 	H 	0.7706	0.7806	0.6364	0.042
Mof_B 	B 	0.5713	0.7714	0.9579	0.091
Mof_H 	H 	0.5656	0.7769	0.0235	-0.089
Mof_B 	B 	0.5491	0.8039	0.7823	0.141
Mof_H 	H 	0.5292	0.8285	0.7355	-0.111
Mof_B 	B 	0.6086	0.7206	0.929	0.055
Mof_H 	H 	0.6271	0.6931	0.9761	-0.078
Mof_B 	B 	0.535	0.7679	0.8753	0.092
Mof_H 	H 	0.5059	0.7717	0.887	-0.091
Mof_B 	B 	0.5958	0.6839	0.8288	0.111
Mof_H 	H 	0.6059	0.633	0.8102	-0.097
Mof_B 	B 	0.5623	0.693	0.9032	0.14
Mof_H 	H 	0.5508	0.6476	0.9331	-0.109
Mof_B 	B 	0.7696	0.9519	0.6496	0.138
Mof_H 	H 	0.7566	0.9215	0.5968	-0.097
Mof_B 	B 	0.7724	0.9202	0.7607	0.13
Mof_H 	H 	0.7613	0.8698	0.7783	-0.096
Mof_B 	B 	0.5497	0.7129	0.7978	0.057
Mof_H 	H 	0.5298	0.6803	0.7597	-0.085
Mof_B 	B 	0.6528	0.9515	0.4488	0.151
Mof_H 	H 	0.6768	0.9211	0.4744	-0.107
Mof_B 	B 	0.8118	0.9258	0.7054	0.067
Mof_H 	H 	0.8249	0.8773	0.6881	-0.08
Mof_B 	B 	0.6039	0.9215	0.4499	0.098
Mof_H 	H 	0.5969	0.8713	0.4768	-0.105
Mof_B 	B 	0.5786	0.9539	0.3582	0.113
Mof_H 	H 	0.5551	0.9242	0.328	-0.089
Mof_B 	B 	0.8151	0.9547	0.8115	0.12
Mof_H 	H 	0.8303	0.9256	0.8627	-0.097
Mof_B 	B 	0.6248	0.9244	0.3565	0.099
Mof_H 	H 	0.6311	0.8756	0.3254	-0.089
Mof_Sn	Sn	0.60548	0.8623	0.7907	0.063
Mof_Ag	Ag	0.65798	0.9264	0.70294	0.112
Mof_N 	N 	0.21119	0.6382	0.9289	-0.117
Mof_N 	N 	0.203	0.3151	0.6001	-0.127
Mof_C 	C 	0.0526	0.437	0.081	-0.072
Mof_H 	H 	0.0616	0.3955	0.0617	0.037
Mof_C 	C 	0.0267	0.4375	0.1374	-0.082
Mof_H 	H 	0.0177	0.396	0.1569	0.039
Mof_C 	C 	0.1944	0.5914	0.904	-0.105
Mof_C 	C 	0.185	0.3454	0.6401	-0.07
Mof_B 	B 	0.0634	0.3416	0.8878	0.095
Mof_H 	H 	0.0525	0.3911	0.9088	-0.079
Mof_C 	C 	0.2683	0.7004	0.957	-0.074
Mof_H 	H 	0.2801	0.6667	0.9279	0.039
Mof_C 	C 	0.2308	0.6959	0.9645	0.064
Mof_B 	B 	0.111	0.311	0.9238	0.142
Mof_H 	H 	0.1303	0.3405	0.9675	-0.101
Mof_C 	C 	0.2122	0.7446	0.0068	-0.077
Mof_H 	H 	0.187	0.7404	0.0107	0.04
Mof_C 	C 	0.2267	0.2819	0.5485	0.07
Mof_C 	C 	0.2141	0.2641	0.4687	-0.083
Mof_H 	H 	0.1899	0.2737	0.4483	0.044
Mof_B 	B 	0.1266	0.2542	0.8398	0.118
Mof_H 	H 	0.1558	0.2476	0.8299	-0.095
Mof_B 	B 	0.0884	0.249	0.7536	0.104
Mof_H 	H 	0.0933	0.2386	0.6883	-0.105
Mof_C 	C 	0.2625	0.2683	0.5817	-0.08
Mof_H 	H 	0.2706	0.2806	0.6364	0.042
Mof_B 	B 	0.0713	0.2714	0.9579	0.09
Mof_H 	H 	0.0656	0.2769	0.0235	-0.089
Mof_B 	B 	0.0491	0.3039	0.7823	0.141
Mof_H 	H 	0.0292	0.3285	0.7355	-0.112
Mof_B 	B 	0.1086	0.2206	0.929	0.055
Mof_H 	H 	0.1271	0.1931	0.9761	-0.078
Mof_B 	B 	0.035	0.2679	0.8753	0.092
Mof_H 	H 	0.0059	0.2717	0.887	-0.091
Mof_B 	B 	0.0958	0.1839	0.8288	0.11
Mof_H 	H 	0.1059	0.133	0.8102	-0.097
Mof_B 	B 	0.0623	0.193	0.9032	0.141
Mof_H 	H 	0.0508	0.1476	0.9331	-0.11
Mof_B 	B 	0.2696	0.4519	0.6496	0.111
Mof_H 	H 	0.2566	0.4215	0.5968	-0.091
Mof_B 	B 	0.2724	0.4202	0.7607	0.139
Mof_H 	H 	0.2613	0.3698	0.7783	-0.099
Mof_B 	B 	0.0497	0.2129	0.7978	0.057
Mof_H 	H 	0.0298	0.1803	0.7597	-0.086
Mof_B 	B 	0.1528	0.4515	0.4488	0.126
Mof_H 	H 	0.1768	0.4211	0.4744	-0.102
Mof_B 	B 	0.3118	0.4258	0.7054	0.069
Mof_H 	H 	0.3249	0.3773	0.6881	-0.082
Mof_B 	B 	0.1039	0.4215	0.4499	0.106
Mof_H 	H 	0.0969	0.3713	0.4768	-0.108
Mof_B 	B 	0.0786	0.4539	0.3582	0.081
Mof_H 	H 	0.0551	0.4242	0.328	-0.081
Mof_B 	B 	0.3151	0.4547	0.8115	0.087
Mof_H 	H 	0.3303	0.4256	0.8627	-0.089
Mof_B 	B 	0.1248	0.4244	0.3565	0.102
Mof_H 	H 	0.1311	0.3756	0.3254	-0.09
Mof_Sn	Sn	0.10548	0.3623	0.7907	0.059
Mof_Ag	Ag	0.15798	0.4264	0.70294	0.099
Mof_N 	N 	0.71119	0.8618	0.9289	-0.118
Mof_N 	N 	0.703	0.1849	0.6001	-0.127
Mof_C 	C 	0.5526	0.063	0.081	-0.071
Mof_H 	H 	0.5616	0.1045	0.0617	0.037
Mof_C 	C 	0.5267	0.0625	0.1374	-0.081
Mof_H 	H 	0.5177	0.104	0.1569	0.038
Mof_C 	C 	0.6944	0.9086	0.904	-0.1
Mof_C 	C 	0.685	0.1546	0.6401	-0.07
Mof_B 	B 	0.5634	0.1584	0.8878	0.095
Mof_H 	H 	0.5525	0.1089	0.9088	-0.079
Mof_C 	C 	0.7683	0.7996	0.957	-0.076
Mof_H 	H 	0.7801	0.8333	0.9279	0.04
Mof_C 	C 	0.7308	0.8041	0.9645	0.066
Mof_B 	B 	0.611	0.189	0.9238	0.142
Mof_H 	H 	0.6303	0.1595	0.9675	-0.1
Mof_C 	C 	0.7122	0.7554	0.0068	-0.079
Mof_H 	H 	0.687	0.7596	0.0107	0.041
Mof_C 	C 	0.7267	0.2181	0.5485	0.07
Mof_C 	C 	0.7141	0.2359	0.4687	-0.083
Mof_H 	H 	0.6899	0.2263	0.4483	0.044
Mof_B 	B 	0.6266	0.2458	0.8398	0.118
Mof_H 	H 	0.6558	0.2524	0.8299	-0.095
Mof_B 	B 	0.5884	0.251	0.7536	0.104
Mof_H 	H 	0.5933	0.2614	0.6883	-0.104
Mof_C 	C 	0.7625	0.2317	0.5817	-0.08
Mof_H 	H 	0.7706	0.2194	0.6364	0.042
Mof_B 	B 	0.5713	0.2286	0.9579	0.091
Mof_H 	H 	0.5656	0.2231	0.0235	-0.089
Mof_B 	B 	0.5491	0.1961	0.7823	0.141
Mof_H 	H 	0.5292	0.1715	0.7355	-0.112
Mof_B 	B 	0.6086	0.2794	0.929	0.055
Mof_H 	H 	0.6271	0.3069	0.9761	-0.078
Mof_B 	B 	0.535	0.2321	0.8753	0.092
Mof_H 	H 	0.5059	0.2283	0.887	-0.091
Mof_B 	B 	0.5958	0.3161	0.8288	0.11
Mof_H 	H 	0.6059	0.367	0.8102	-0.096
Mof_B 	B 	0.5623	0.307	0.9032	0.141
Mof_H 	H 	0.5508	0.3524	0.9331	-0.109
Mof_B 	B 	0.7696	0.0481	0.6496	0.093
Mof_H 	H 	0.7566	0.0785	0.5968	-0.086
Mof_B 	B 	0.7724	0.0798	0.7607	0.148
Mof_H 	H 	0.7613	0.1302	0.7783	-0.101
Mof_B 	B 	0.5497	0.2871	0.7978	0.057
Mof_H 	H 	0.5298	0.3197	0.7597	-0.085
Mof_B 	B 	0.6528	0.0485	0.4488	0.109
Mof_H 	H 	0.6768	0.0789	0.4744	-0.097
Mof_B 	B 	0.8118	0.0742	0.7054	0.091
Mof_H 	H 	0.8249	0.1227	0.6881	-0.088
Mof_B 	B 	0.6039	0.0785	0.4499	0.116
Mof_H 	H 	0.5969	0.1287	0.4768	-0.11
Mof_B 	B 	0.5786	0.0461	0.3582	0.064
Mof_H 	H 	0.5551	0.0758	0.328	-0.076
Mof_B 	B 	0.8151	0.0453	0.8115	0.068
Mof_H 	H 	0.8303	0.0744	0.8627	-0.084
Mof_B 	B 	0.6248	0.0756	0.3565	0.12
Mof_H 	H 	0.6311	0.1244	0.3254	-0.096
Mof_Sn	Sn	0.60548	0.1377	0.7907	0.061
Mof_Ag	Ag	0.65798	0.0736	0.70294	0.1
Mof_N 	N 	0.21119	0.3618	0.9289	-0.117
Mof_N 	N 	0.203	0.6849	0.6001	-0.127
Mof_C 	C 	0.0526	0.563	0.081	-0.072
Mof_H 	H 	0.0616	0.6045	0.0617	0.037
Mof_C 	C 	0.0267	0.5625	0.1374	-0.082
Mof_H 	H 	0.0177	0.604	0.1569	0.039
Mof_C 	C 	0.1944	0.4086	0.904	-0.105
Mof_C 	C 	0.185	0.6546	0.6401	-0.069
Mof_B 	B 	0.0634	0.6584	0.8878	0.095
Mof_H 	H 	0.0525	0.6089	0.9088	-0.079
Mof_C 	C 	0.2683	0.2996	0.957	-0.075
Mof_H 	H 	0.2801	0.3333	0.9279	0.039
Mof_C 	C 	0.2308	0.3041	0.9645	0.065
Mof_B 	B 	0.111	0.689	0.9238	0.142
Mof_H 	H 	0.1303	0.6595	0.9675	-0.101
Mof_C 	C 	0.2122	0.2554	0.0068	-0.078
Mof_H 	H 	0.187	0.2596	0.0107	0.04
Mof_C 	C 	0.2267	0.7181	0.5485	0.071
Mof_C 	C 	0.2141	0.7359	0.4687	-0.084
Mof_H 	H 	0.1899	0.7263	0.4483	0.044
Mof_B 	B 	0.1266	0.7458	0.8398	0.118
Mof_H 	H 	0.1558	0.7524	0.8299	-0.095
Mof_B 	B 	0.0884	0.751	0.7536	0.105
Mof_H 	H 	0.0933	0.7614	0.6883	-0.104
Mof_C 	C 	0.2625	0.7317	0.5817	-0.08
Mof_H 	H 	0.2706	0.7194	0.6364	0.042
Mof_B 	B 	0.0713	0.7286	0.9579	0.09
Mof_H 	H 	0.0656	0.7231	0.0235	-0.088
Mof_B 	B 	0.0491	0.6961	0.7823	0.141
Mof_H 	H 	0.0292	0.6715	0.7355	-0.111
Mof_B 	B 	0.1086	0.7794	0.929	0.055
Mof_H 	H 	0.1271	0.8069	0.9761	-0.078
Mof_B 	B 	0.035	0.7321	0.8753	0.092
Mof_H 	H 	0.0059	0.7283	0.887	-0.091
Mof_B 	B 	0.0958	0.8161	0.8288	0.11
Mof_H 	H 	0.1059	0.867	0.8102	-0.095
Mof_B 	B 	0.0623	0.807	0.9032	0.142
Mof_H 	H 	0.0508	0.8524	0.9331	-0.108
Mof_B 	B 	0.2696	0.5481	0.6496	0.111
Mof_H 	H 	0.2566	0.5785	0.5968	-0.091
Mof_B 	B 	0.2724	0.5798	0.7607	0.139
Mof_H 	H 	0.2613	0.6302	0.7783	-0.099
Mof_B 	B 	0.0497	0.7871	0.7978	0.057
Mof_H 	H 	0.0298	0.8197	0.7597	-0.084
Mof_B 	B 	0.1528	0.5485	0.4488	0.126
Mof_H 	H 	0.1768	0.5789	0.4744	-0.102
Mof_B 	B 	0.3118	0.5742	0.7054	0.069
Mof_H 	H 	0.3249	0.6227	0.6881	-0.082
Mof_B 	B 	0.1039	0.5785	0.4499	0.106
Mof_H 	H 	0.0969	0.6287	0.4768	-0.107
Mof_B 	B 	0.0786	0.5461	0.3582	0.081
Mof_H 	H 	0.0551	0.5758	0.328	-0.081
Mof_B 	B 	0.3151	0.5453	0.8115	0.087
Mof_H 	H 	0.3303	0.5744	0.8627	-0.089
Mof_B 	B 	0.1248	0.5756	0.3565	0.102
Mof_H 	H 	0.1311	0.6244	0.3254	-0.09
Mof_Sn	Sn	0.10548	0.6377	0.7907	0.059
Mof_Ag	Ag	0.15798	0.5736	0.70294	0.099
Mof_N 	N 	0.28881	0.8618	0.0711	-0.118
Mof_N 	N 	0.297	0.1849	0.3999	-0.127
Mof_C 	C 	0.4474	0.063	0.919	-0.071
Mof_H 	H 	0.4384	0.1045	0.9383	0.037
Mof_C 	C 	0.4733	0.0625	0.8626	-0.081
Mof_H 	H 	0.4823	0.104	0.8431	0.038
Mof_C 	C 	0.3056	0.9086	0.096	-0.1
Mof_C 	C 	0.315	0.1546	0.3599	-0.07
Mof_B 	B 	0.4366	0.1584	0.1122	0.095
Mof_H 	H 	0.4475	0.1089	0.0912	-0.079
Mof_C 	C 	0.2317	0.7996	0.043	-0.076
Mof_H 	H 	0.2199	0.8333	0.0721	0.04
Mof_C 	C 	0.2692	0.8041	0.0355	0.066
Mof_B 	B 	0.389	0.189	0.0762	0.142
Mof_H 	H 	0.3697	0.1595	0.0325	-0.1
Mof_C 	C 	0.2878	0.7554	0.9932	-0.079
Mof_H 	H 	0.313	0.7596	0.9893	0.041
Mof_C 	C 	0.2733	0.2181	0.4515	0.07
Mof_C 	C 	0.2859	0.2359	0.5313	-0.083
Mof_H 	H 	0.3101	0.2263	0.5517	0.044
Mof_B 	B 	0.3734	0.2458	0.1602	0.118
Mof_H 	H 	0.3442	0.2524	0.1701	-0.095
Mof_B 	B 	0.4116	0.251	0.2464	0.104
Mof_H 	H 	0.4067	0.2614	0.3117	-0.104
Mof_C 	C 	0.2375	0.2317	0.4183	-0.08
Mof_H 	H 	0.2294	0.2194	0.3636	0.042
Mof_B 	B 	0.4287	0.2286	0.0421	0.091
Mof_H 	H 	0.4344	0.2231	0.9765	-0.089
Mof_B 	B 	0.4509	0.1961	0.2177	0.141
Mof_H 	H 	0.4708	0.1715	0.2645	-0.112
Mof_B 	B 	0.3914	0.2794	0.071	0.055
Mof_H 	H 	0.3729	0.3069	0.0239	-0.078
Mof_B 	B 	0.465	0.2321	0.1247	0.092
Mof_H 	H 	0.4941	0.2283	0.113	-0.091
Mof_B 	B 	0.4042	0.3161	0.1712	0.11
Mof_H 	H 	0.3941	0.367	0.1898	-0.096
Mof_B 	B 	0.4377	0.307	0.0968	0.141
Mof_H 	H 	0.4492	0.3524	0.0669	-0.109
Mof_B 	B 	0.2304	0.0481	0.3504	0.093
Mof_H 	H 	0.2434	0.0785	0.4032	-0.086
Mof_B 	B 	0.2276	0.0798	0.2393	0.148
Mof_H 	H 	0.2387	0.1302	0.2217	-0.101
Mof_B 	B 	0.4503	0.2871	0.2022	0.057
Mof_H 	H 	0.4702	0.3197	0.2403	-0.085
Mof_B 	B 	0.3472	0.0485	0.5512	0.109
Mof_H 	H 	0.3232	0.0789	0.5256	-0.097
Mof_B 	B 	0.1882	0.0742	0.2946	0.091
Mof_H 	H 	0.1751	0.1227	0.3119	-0.088
Mof_B 	B 	0.3961	0.0785	0.5501	0.116
Mof_H 	H 	0.4031	0.1287	0.5232	-0.11
Mof_B 	B 	0.4214	0.0461	0.6418	0.064
Mof_H 	H 	0.4449	0.0758	0.672	-0.076
Mof_B 	B 	0.1849	0.0453	0.1885	0.068
Mof_H 	H 	0.1697	0.0744	0.1373	-0.084
Mof_B 	B 	0.3752	0.0756	0.6435	0.12
Mof_H 	H 	0.3689	0.1244	0.6746	-0.096
Mof_Sn	Sn	0.39452	0.1377	0.2093	0.061
Mof_Ag	Ag	0.34202	0.0736	0.29706	0.1
Mof_N 	N 	0.78881	0.3618	0.0711	-0.117
Mof_N 	N 	0.797	0.6849	0.3999	-0.127
Mof_C 	C 	0.9474	0.563	0.919	-0.072
Mof_H 	H 	0.9384	0.6045	0.9383	0.037
Mof_C 	C 	0.9733	0.5625	0.8626	-0.082
Mof_H 	H 	0.9823	0.604	0.8431	0.039
Mof_C 	C 	0.8056	0.4086	0.096	-0.105
Mof_C 	C 	0.815	0.6546	0.3599	-0.069
Mof_B 	B 	0.9366	0.6584	0.1122	0.095
Mof_H 	H 	0.9475	0.6089	0.0912	-0.079
Mof_C 	C 	0.7317	0.2996	0.043	-0.075
Mof_H 	H 	0.7199	0.3333	0.0721	0.039
Mof_C 	C 	0.7692	0.3041	0.0355	0.065
Mof_B 	B 	0.889	0.689	0.0762	0.142
Mof_H 	H 	0.8697	0.6595	0.0325	-0.101
Mof_C 	C 	0.7878	0.2554	0.9932	-0.078
Mof_H 	H 	0.813	0.2596	0.9893	0.04
Mof_C 	C 	0.7733	0.7181	0.4515	0.071
Mof_C 	C 	0.7859	0.7359	0.5313	-0.084
Mof_H 	H 	0.8101	0.7263	0.5517	0.044
Mof_B 	B 	0.8734	0.7458	0.1602	0.118
Mof_H 	H 	0.8442	0.7524	0.1701	-0.095
Mof_B 	B 	0.9116	0.751	0.2464	0.105
Mof_H 	H 	0.9067	0.7614	0.3117	-0.104
Mof_C 	C 	0.7375	0.7317	0.4183	-0.08
Mof_H 	H 	0.7294	0.7194	0.3636	0.042
Mof_B 	B 	0.9287	0.7286	0.0421	0.09
Mof_H 	H 	0.9344	0.7231	0.9765	-0.088
Mof_B 	B 	0.9509	0.6961	0.2177	0.141
Mof_H 	H 	0.9708	0.6715	0.2645	-0.111
Mof_B 	B 	0.8914	0.7794	0.071	0.055
Mof_H 	H 	0.8729	0.8069	0.0239	-0.078
Mof_B 	B 	0.965	0.7321	0.1247	0.092
Mof_H 	H 	0.9941	0.7283	0.113	-0.091
Mof_B 	B 	0.9042	0.8161	0.1712	0.11
Mof_H 	H 	0.8941	0.867	0.1898	-0.095
Mof_B 	B 	0.9377	0.807	0.0968	0.142
Mof_H 	H 	0.9492	0.8524	0.0669	-0.108
Mof_B 	B 	0.7304	0.5481	0.3504	0.111
Mof_H 	H 	0.7434	0.5785	0.4032	-0.091
Mof_B 	B 	0.7276	0.5798	0.2393	0.139
Mof_H 	H 	0.7387	0.6302	0.2217	-0.099
Mof_B 	B 	0.9503	0.7871	0.2022	0.057
Mof_H 	H 	0.9702	0.8197	0.2403	-0.084
Mof_B 	B 	0.8472	0.5485	0.5512	0.126
Mof_H 	H 	0.8232	0.5789	0.5256	-0.102
Mof_B 	B 	0.6882	0.5742	0.2946	0.069
Mof_H 	H 	0.6751	0.6227	0.3119	-0.082
Mof_B 	B 	0.8961	0.5785	0.5501	0.106
Mof_H 	H 	0.9031	0.6287	0.5232	-0.107
Mof_B 	B 	0.9214	0.5461	0.6418	0.081
Mof_H 	H 	0.9449	0.5758	0.672	-0.081
Mof_B 	B 	0.6849	0.5453	0.1885	0.087
Mof_H 	H 	0.6697	0.5744	0.1373	-0.089
Mof_B 	B 	0.8752	0.5756	0.6435	0.102
Mof_H 	H 	0.8689	0.6244	0.6746	-0.09
Mof_Sn	Sn	0.89452	0.6377	0.2093	0.059
Mof_Ag	Ag	0.84202	0.5736	0.29706	0.099
Mof_N 	N 	0.5136	8.98181e-33	0.7804	-0.128
Mof_N 	N 	0.4075	3.50852e-35	0.0036	-0.115
Mof_C 	C 	0.486	8.98181e-33	0.8352	0.061
Mof_C 	C 	0.5379	0	0.7419	-0.077
Mof_C 	C 	0.4349	0	0.946	0.057
Mof_C 	C 	0.3863	0	0.0508	-0.103
Mof_B 	B 	0.2252	2.24545e-33	0.1687	0.101
Mof_H 	H 	0.235	1.12273e-33	0.1061	-0.091
Mof_B 	B 	0.4263	4.4909e-33	0.5494	0.116
Mof_H 	H 	0.4527	4.4909e-33	0.5219	-0.113
Mof_B 	B 	0.1897	2.24545e-33	0.3601	0.093
Mof_H 	H 	0.1774	4.4909e-33	0.4199	-0.091
Mof_B 	B 	0.3466	0	0.6447	0.052
Mof_H 	H 	0.3215	4.4909e-33	0.6776	-0.076
Mof_B 	B 	0.1623	0	0.264	0.116
Mof_H 	H 	0.1321	0	0.2623	-0.102
Mof_B 	B 	0.3904	4.4909e-33	0.7002	0.122
Mof_H 	H 	0.3935	8.98181e-33	0.769	-0.087
Mof_Sn	Sn	0.27478	0	0.27372	0.057
Mof_Ag	Ag	0.34002	0	0.12831	0.316
Mof_Ag	Ag	0.4053	2.24545e-33	0.28158	0.101
Mof_Sn	Sn	0.37771	0	0.44427	0.019
Mof_N 	N 	0.0136	0.5	0.7804	-0.129
Mof_N 	N 	0.9075	0.5	0.0036	-0.115
Mof_C 	C 	0.986	0.5	0.8352	0.067
Mof_C 	C 	0.0379	0.5	0.7419	-0.076
Mof_C 	C 	0.9349	0.5	0.946	0.063
Mof_C 	C 	0.8863	0.5	0.0508	-0.102
Mof_B 	B 	0.7252	0.5	0.1687	0.11
Mof_H 	H 	0.735	0.5	0.1061	-0.092
Mof_B 	B 	0.9263	0.5	0.5494	0.127
Mof_H 	H 	0.9527	0.5	0.5219	-0.115
Mof_B 	B 	0.6897	0.5	0.3601	0.104
Mof_H 	H 	0.6774	0.5	0.4199	-0.092
Mof_B 	B 	0.8466	0.5	0.6447	0.061
Mof_H 	H 	0.8215	0.5	0.6776	-0.077
Mof_B 	B 	0.6623	0.5	0.264	0.131
Mof_H 	H 	0.6321	0.5	0.2623	-0.105
Mof_B 	B 	0.8904	0.5	0.7002	0.137
Mof_H 	H 	0.8935	0.5	0.769	-0.089
Mof_Sn	Sn	0.77478	0.5	0.27372	0.066
Mof_Ag	Ag	0.84002	0.5	0.12831	0.324
Mof_Ag	Ag	0.9053	0.5	0.28158	0.107
Mof_Sn	Sn	0.87771	0.5	0.44427	0.026
Mof_N 	N 	0.4864	0	0.2196	-0.128
Mof_N 	N 	0.5925	1.79636e-32	0.9964	-0.115
Mof_C 	C 	0.514	1.12273e-33	0.1648	0.061
Mof_C 	C 	0.4621	0	0.2581	-0.077
Mof_C 	C 	0.5651	5.61363e-34	0.054	0.057
Mof_C 	C 	0.6137	8.98181e-33	0.9492	-0.103
Mof_B 	B 	0.7748	0	0.8313	0.101
Mof_H 	H 	0.765	8.98181e-33	0.8939	-0.091
Mof_B 	B 	0.5737	8.98181e-33	0.4506	0.116
Mof_H 	H 	0.5473	4.4909e-33	0.4781	-0.113
Mof_B 	B 	0.8103	8.98181e-33	0.6399	0.093
Mof_H 	H 	0.8226	8.98181e-33	0.5801	-0.091
Mof_B 	B 	0.6534	4.4909e-33	0.3553	0.052
Mof_H 	H 	0.6785	0	0.3224	-0.076
Mof_B 	B 	0.8377	8.98181e-33	0.736	0.116
Mof_H 	H 	0.8679	8.98181e-33	0.7377	-0.102
Mof_B 	B 	0.6096	2.24545e-33	0.2998	0.122
Mof_H 	H 	0.6065	2.24545e-33	0.231	-0.087
Mof_Sn	Sn	0.72522	0	0.72628	0.057
Mof_Ag	Ag	0.65998	8.98181e-33	0.87169	0.316
Mof_Ag	Ag	0.5947	0	0.71842	0.101
Mof_Sn	Sn	0.62229	4.4909e-33	0.55573	0.019
Mof_N 	N 	0.9864	0.5	0.2196	-0.129
Mof_N 	N 	0.0925	0.5	0.9964	-0.115
Mof_C 	C 	0.014	0.5	0.1648	0.067
Mof_C 	C 	0.9621	0.5	0.2581	-0.076
Mof_C 	C 	0.0651	0.5	0.054	0.063
Mof_C 	C 	0.1137	0.5	0.9492	-0.102
Mof_B 	B 	0.2748	0.5	0.8313	0.11
Mof_H 	H 	0.265	0.5	0.8939	-0.092
Mof_B 	B 	0.0737	0.5	0.4506	0.127
Mof_H 	H 	0.0473	0.5	0.4781	-0.115
Mof_B 	B 	0.3103	0.5	0.6399	0.104
Mof_H 	H 	0.3226	0.5	0.5801	-0.092
Mof_B 	B 	0.1534	0.5	0.3553	0.061
Mof_H 	H 	0.1785	0.5	0.3224	-0.077
Mof_B 	B 	0.3377	0.5	0.736	0.131
Mof_H 	H 	0.3679	0.5	0.7377	-0.105
Mof_B 	B 	0.1096	0.5	0.2998	0.137
Mof_H 	H 	0.1065	0.5	0.231	-0.089
Mof_Sn	Sn	0.22522	0.5	0.72628	0.066
Mof_Ag	Ag	0.15998	0.5	0.87169	0.324
Mof_Ag	Ag	0.0947	0.5	0.71842	0.107
Mof_Sn	Sn	0.12229	0.5	0.55573	0.026
_end
