data_functionalizedCrystal
_audit_creation_method	'EQeq! by Chris Wilmer'
_symmetry_space_group_name_H-M	'P1'
_symmetry_Int_Tables_number	1
_symmetry_cell_setting	triclinic
loop_
_symmetry_equiv_pos_as_xyz
  x,y,z
_cell_length_a	31.3658
_cell_length_b	31.3658
_cell_length_c	31.3658
_cell_angle_alpha	60
_cell_angle_beta	60
_cell_angle_gamma	60
loop_
_atom_site_label
_atom_site_type_symbol
_atom_site_fract_x
_atom_site_fract_y
_atom_site_fract_z
_atom_site_charge
Mof_Cu	Cu	0.5	0.5	0.83788	0.936
Mof_Cu	Cu	0.5	0.5	0.75322	0.936
Mof_Cu	Cu	0.5	0.5	0.16212	0.936
Mof_Cu	Cu	0.5	0.5	0.24678	0.936
Mof_Cu	Cu	0.83788	0.16212	0.5	0.936
Mof_Cu	Cu	0.75322	0.24678	0.5	0.936
Mof_Cu	Cu	0.16212	0.83788	0.5	0.936
Mof_Cu	Cu	0.24678	0.75322	0.5	0.936
Mof_Cu	Cu	0.5	0.83788	0.16212	0.936
Mof_Cu	Cu	0.5	0.75322	0.24678	0.936
Mof_Cu	Cu	0.5	0.16212	0.83788	0.936
Mof_Cu	Cu	0.5	0.24678	0.75322	0.936
Mof_Cu	Cu	0.83788	0.5	0.5	0.936
Mof_Cu	Cu	0.75322	0.5	0.5	0.936
Mof_Cu	Cu	0.16212	0.5	0.5	0.936
Mof_Cu	Cu	0.24678	0.5	0.5	0.936
Mof_Cu	Cu	0.5	0.16212	0.5	0.936
Mof_Cu	Cu	0.5	0.24678	0.5	0.936
Mof_Cu	Cu	0.5	0.83788	0.5	0.936
Mof_Cu	Cu	0.5	0.75322	0.5	0.936
Mof_Cu	Cu	0.83788	0.5	0.16212	0.936
Mof_Cu	Cu	0.75322	0.5	0.24678	0.936
Mof_Cu	Cu	0.16212	0.5	0.83788	0.936
Mof_Cu	Cu	0.24678	0.5	0.75322	0.936
Mof_Cu	Cu	0.54536	0.11602	0.11602	0.943
Mof_Cu	Cu	0.11602	0.54536	0.2226	0.943
Mof_Cu	Cu	0.11602	0.2226	0.54536	0.943
Mof_Cu	Cu	0.2226	0.11602	0.11602	0.943
Mof_Cu	Cu	0.54536	0.11602	0.2226	0.943
Mof_Cu	Cu	0.11602	0.2226	0.11602	0.943
Mof_Cu	Cu	0.11602	0.54536	0.11602	0.943
Mof_Cu	Cu	0.2226	0.11602	0.54536	0.943
Mof_Cu	Cu	0.54536	0.2226	0.11602	0.943
Mof_Cu	Cu	0.11602	0.11602	0.54536	0.943
Mof_Cu	Cu	0.11602	0.11602	0.2226	0.943
Mof_Cu	Cu	0.2226	0.54536	0.11602	0.943
Mof_Cu	Cu	0.88398	0.45464	0.88398	0.943
Mof_Cu	Cu	0.45464	0.88398	0.7774	0.943
Mof_Cu	Cu	0.7774	0.88398	0.45464	0.943
Mof_Cu	Cu	0.88398	0.7774	0.88398	0.943
Mof_Cu	Cu	0.88398	0.45464	0.7774	0.943
Mof_Cu	Cu	0.7774	0.88398	0.88398	0.943
Mof_Cu	Cu	0.45464	0.88398	0.88398	0.943
Mof_Cu	Cu	0.88398	0.7774	0.45464	0.943
Mof_Cu	Cu	0.7774	0.45464	0.88398	0.943
Mof_Cu	Cu	0.88398	0.88398	0.45464	0.943
Mof_Cu	Cu	0.88398	0.88398	0.7774	0.943
Mof_Cu	Cu	0.45464	0.7774	0.88398	0.943
Mof_H 	H 	0.5327	0.3371	0.9233	0.074
Mof_H 	H 	0.3371	0.5327	0.2069	0.074
Mof_H 	H 	0.9233	0.2069	0.5327	0.074
Mof_H 	H 	0.2069	0.9233	0.3371	0.074
Mof_H 	H 	0.5327	0.9233	0.2069	0.074
Mof_H 	H 	0.3371	0.2069	0.9233	0.074
Mof_H 	H 	0.9233	0.5327	0.3371	0.074
Mof_H 	H 	0.2069	0.3371	0.5327	0.074
Mof_H 	H 	0.5327	0.2069	0.3371	0.074
Mof_H 	H 	0.3371	0.9233	0.5327	0.074
Mof_H 	H 	0.9233	0.3371	0.2069	0.074
Mof_H 	H 	0.2069	0.5327	0.9233	0.074
Mof_H 	H 	0.6629	0.4673	0.0767	0.074
Mof_H 	H 	0.4673	0.6629	0.7931	0.074
Mof_H 	H 	0.7931	0.0767	0.4673	0.074
Mof_H 	H 	0.0767	0.7931	0.6629	0.074
Mof_H 	H 	0.0767	0.4673	0.7931	0.074
Mof_H 	H 	0.7931	0.6629	0.0767	0.074
Mof_H 	H 	0.4673	0.0767	0.6629	0.074
Mof_H 	H 	0.6629	0.7931	0.4673	0.074
Mof_H 	H 	0.7931	0.4673	0.6629	0.074
Mof_H 	H 	0.0767	0.6629	0.4673	0.074
Mof_H 	H 	0.6629	0.0767	0.7931	0.074
Mof_H 	H 	0.4673	0.7931	0.0767	0.074
Mof_H 	H 	0.4673	0.6629	0.0767	0.074
Mof_H 	H 	0.6629	0.4673	0.7931	0.074
Mof_H 	H 	0.0767	0.7931	0.4673	0.074
Mof_H 	H 	0.7931	0.0767	0.6629	0.074
Mof_H 	H 	0.4673	0.0767	0.7931	0.074
Mof_H 	H 	0.6629	0.7931	0.0767	0.074
Mof_H 	H 	0.0767	0.4673	0.6629	0.074
Mof_H 	H 	0.7931	0.6629	0.4673	0.074
Mof_H 	H 	0.4673	0.7931	0.6629	0.074
Mof_H 	H 	0.6629	0.0767	0.4673	0.074
Mof_H 	H 	0.0767	0.6629	0.7931	0.074
Mof_H 	H 	0.7931	0.4673	0.0767	0.074
Mof_H 	H 	0.3371	0.5327	0.9233	0.074
Mof_H 	H 	0.5327	0.3371	0.2069	0.074
Mof_H 	H 	0.2069	0.9233	0.5327	0.074
Mof_H 	H 	0.9233	0.2069	0.3371	0.074
Mof_H 	H 	0.9233	0.5327	0.2069	0.074
Mof_H 	H 	0.2069	0.3371	0.9233	0.074
Mof_H 	H 	0.5327	0.9233	0.3371	0.074
Mof_H 	H 	0.3371	0.2069	0.5327	0.074
Mof_H 	H 	0.2069	0.5327	0.3371	0.074
Mof_H 	H 	0.9233	0.3371	0.5327	0.074
Mof_H 	H 	0.3371	0.9233	0.2069	0.074
Mof_H 	H 	0.5327	0.2069	0.9233	0.074
Mof_H 	H 	0.5173	0.3407	0.8013	0.074
Mof_H 	H 	0.3407	0.5173	0.3407	0.074
Mof_H 	H 	0.8013	0.3407	0.5173	0.074
Mof_H 	H 	0.3407	0.8013	0.3407	0.074
Mof_H 	H 	0.5173	0.8013	0.3407	0.074
Mof_H 	H 	0.3407	0.3407	0.8013	0.074
Mof_H 	H 	0.8013	0.5173	0.3407	0.074
Mof_H 	H 	0.3407	0.3407	0.5173	0.074
Mof_H 	H 	0.5173	0.3407	0.3407	0.074
Mof_H 	H 	0.3407	0.8013	0.5173	0.074
Mof_H 	H 	0.8013	0.3407	0.3407	0.074
Mof_H 	H 	0.3407	0.5173	0.8013	0.074
Mof_H 	H 	0.6593	0.4827	0.1987	0.074
Mof_H 	H 	0.4827	0.6593	0.6593	0.074
Mof_H 	H 	0.6593	0.1987	0.4827	0.074
Mof_H 	H 	0.1987	0.6593	0.6593	0.074
Mof_H 	H 	0.1987	0.4827	0.6593	0.074
Mof_H 	H 	0.6593	0.6593	0.1987	0.074
Mof_H 	H 	0.4827	0.1987	0.6593	0.074
Mof_H 	H 	0.6593	0.6593	0.4827	0.074
Mof_H 	H 	0.6593	0.4827	0.6593	0.074
Mof_H 	H 	0.1987	0.6593	0.4827	0.074
Mof_H 	H 	0.6593	0.1987	0.6593	0.074
Mof_H 	H 	0.4827	0.6593	0.1987	0.074
Mof_C 	C 	0.5167	0.4023	0.8357	0.352
Mof_C 	C 	0.5217	0.3469	0.8603	-0.078
Mof_C 	C 	0.5287	0.3205	0.9079	0.006
Mof_C 	C 	0.4023	0.5167	0.2453	0.352
Mof_C 	C 	0.3469	0.5217	0.2711	-0.078
Mof_C 	C 	0.3205	0.5287	0.2429	0.006
Mof_C 	C 	0.8357	0.2453	0.5167	0.352
Mof_C 	C 	0.8603	0.2711	0.5217	-0.078
Mof_C 	C 	0.9079	0.2429	0.5287	0.006
Mof_C 	C 	0.2453	0.8357	0.4023	0.352
Mof_C 	C 	0.2711	0.8603	0.3469	-0.078
Mof_C 	C 	0.2429	0.9079	0.3205	0.006
Mof_C 	C 	0.5167	0.8357	0.2453	0.352
Mof_C 	C 	0.5217	0.8603	0.2711	-0.078
Mof_C 	C 	0.5287	0.9079	0.2429	0.006
Mof_C 	C 	0.4023	0.2453	0.8357	0.352
Mof_C 	C 	0.3469	0.2711	0.8603	-0.078
Mof_C 	C 	0.3205	0.2429	0.9079	0.006
Mof_C 	C 	0.8357	0.5167	0.4023	0.352
Mof_C 	C 	0.8603	0.5217	0.3469	-0.078
Mof_C 	C 	0.9079	0.5287	0.3205	0.006
Mof_C 	C 	0.2453	0.4023	0.5167	0.352
Mof_C 	C 	0.2711	0.3469	0.5217	-0.078
Mof_C 	C 	0.2429	0.3205	0.5287	0.006
Mof_C 	C 	0.5167	0.2453	0.4023	0.352
Mof_C 	C 	0.5217	0.2711	0.3469	-0.078
Mof_C 	C 	0.5287	0.2429	0.3205	0.006
Mof_C 	C 	0.4023	0.8357	0.5167	0.352
Mof_C 	C 	0.3469	0.8603	0.5217	-0.078
Mof_C 	C 	0.3205	0.9079	0.5287	0.006
Mof_C 	C 	0.8357	0.4023	0.2453	0.352
Mof_C 	C 	0.8603	0.3469	0.2711	-0.078
Mof_C 	C 	0.9079	0.3205	0.2429	0.006
Mof_C 	C 	0.2453	0.5167	0.8357	0.352
Mof_C 	C 	0.2711	0.5217	0.8603	-0.078
Mof_C 	C 	0.2429	0.5287	0.9079	0.006
Mof_C 	C 	0.5977	0.4833	0.1643	0.352
Mof_C 	C 	0.6531	0.4783	0.1397	-0.078
Mof_C 	C 	0.6795	0.4713	0.0921	0.006
Mof_C 	C 	0.4833	0.5977	0.7547	0.352
Mof_C 	C 	0.4783	0.6531	0.7289	-0.078
Mof_C 	C 	0.4713	0.6795	0.7571	0.006
Mof_C 	C 	0.7547	0.1643	0.4833	0.352
Mof_C 	C 	0.7289	0.1397	0.4783	-0.078
Mof_C 	C 	0.7571	0.0921	0.4713	0.006
Mof_C 	C 	0.1643	0.7547	0.5977	0.352
Mof_C 	C 	0.1397	0.7289	0.6531	-0.078
Mof_C 	C 	0.0921	0.7571	0.6795	0.006
Mof_C 	C 	0.1643	0.4833	0.7547	0.352
Mof_C 	C 	0.1397	0.4783	0.7289	-0.078
Mof_C 	C 	0.0921	0.4713	0.7571	0.006
Mof_C 	C 	0.7547	0.5977	0.1643	0.352
Mof_C 	C 	0.7289	0.6531	0.1397	-0.078
Mof_C 	C 	0.7571	0.6795	0.0921	0.006
Mof_C 	C 	0.4833	0.1643	0.5977	0.352
Mof_C 	C 	0.4783	0.1397	0.6531	-0.078
Mof_C 	C 	0.4713	0.0921	0.6795	0.006
Mof_C 	C 	0.5977	0.7547	0.4833	0.352
Mof_C 	C 	0.6531	0.7289	0.4783	-0.078
Mof_C 	C 	0.6795	0.7571	0.4713	0.006
Mof_C 	C 	0.7547	0.4833	0.5977	0.352
Mof_C 	C 	0.7289	0.4783	0.6531	-0.078
Mof_C 	C 	0.7571	0.4713	0.6795	0.006
Mof_C 	C 	0.1643	0.5977	0.4833	0.352
Mof_C 	C 	0.1397	0.6531	0.4783	-0.078
Mof_C 	C 	0.0921	0.6795	0.4713	0.006
Mof_C 	C 	0.5977	0.1643	0.7547	0.352
Mof_C 	C 	0.6531	0.1397	0.7289	-0.078
Mof_C 	C 	0.6795	0.0921	0.7571	0.006
Mof_C 	C 	0.4833	0.7547	0.1643	0.352
Mof_C 	C 	0.4783	0.7289	0.1397	-0.078
Mof_C 	C 	0.4713	0.7571	0.0921	0.006
Mof_C 	C 	0.4833	0.5977	0.1643	0.352
Mof_C 	C 	0.4783	0.6531	0.1397	-0.078
Mof_C 	C 	0.4713	0.6795	0.0921	0.006
Mof_C 	C 	0.5977	0.4833	0.7547	0.352
Mof_C 	C 	0.6531	0.4783	0.7289	-0.078
Mof_C 	C 	0.6795	0.4713	0.7571	0.006
Mof_C 	C 	0.1643	0.7547	0.4833	0.352
Mof_C 	C 	0.1397	0.7289	0.4783	-0.078
Mof_C 	C 	0.0921	0.7571	0.4713	0.006
Mof_C 	C 	0.7547	0.1643	0.5977	0.352
Mof_C 	C 	0.7289	0.1397	0.6531	-0.078
Mof_C 	C 	0.7571	0.0921	0.6795	0.006
Mof_C 	C 	0.4833	0.1643	0.7547	0.352
Mof_C 	C 	0.4783	0.1397	0.7289	-0.078
Mof_C 	C 	0.4713	0.0921	0.7571	0.006
Mof_C 	C 	0.5977	0.7547	0.1643	0.352
Mof_C 	C 	0.6531	0.7289	0.1397	-0.078
Mof_C 	C 	0.6795	0.7571	0.0921	0.006
Mof_C 	C 	0.1643	0.4833	0.5977	0.352
Mof_C 	C 	0.1397	0.4783	0.6531	-0.078
Mof_C 	C 	0.0921	0.4713	0.6795	0.006
Mof_C 	C 	0.7547	0.5977	0.4833	0.352
Mof_C 	C 	0.7289	0.6531	0.4783	-0.078
Mof_C 	C 	0.7571	0.6795	0.4713	0.006
Mof_C 	C 	0.4833	0.7547	0.5977	0.352
Mof_C 	C 	0.4783	0.7289	0.6531	-0.078
Mof_C 	C 	0.4713	0.7571	0.6795	0.006
Mof_C 	C 	0.5977	0.1643	0.4833	0.352
Mof_C 	C 	0.6531	0.1397	0.4783	-0.078
Mof_C 	C 	0.6795	0.0921	0.4713	0.006
Mof_C 	C 	0.1643	0.5977	0.7547	0.352
Mof_C 	C 	0.1397	0.6531	0.7289	-0.078
Mof_C 	C 	0.0921	0.6795	0.7571	0.006
Mof_C 	C 	0.7547	0.4833	0.1643	0.352
Mof_C 	C 	0.7289	0.4783	0.1397	-0.078
Mof_C 	C 	0.7571	0.4713	0.0921	0.006
Mof_C 	C 	0.4023	0.5167	0.8357	0.352
Mof_C 	C 	0.3469	0.5217	0.8603	-0.078
Mof_C 	C 	0.3205	0.5287	0.9079	0.006
Mof_C 	C 	0.5167	0.4023	0.2453	0.352
Mof_C 	C 	0.5217	0.3469	0.2711	-0.078
Mof_C 	C 	0.5287	0.3205	0.2429	0.006
Mof_C 	C 	0.2453	0.8357	0.5167	0.352
Mof_C 	C 	0.2711	0.8603	0.5217	-0.078
Mof_C 	C 	0.2429	0.9079	0.5287	0.006
Mof_C 	C 	0.8357	0.2453	0.4023	0.352
Mof_C 	C 	0.8603	0.2711	0.3469	-0.078
Mof_C 	C 	0.9079	0.2429	0.3205	0.006
Mof_C 	C 	0.8357	0.5167	0.2453	0.352
Mof_C 	C 	0.8603	0.5217	0.2711	-0.078
Mof_C 	C 	0.9079	0.5287	0.2429	0.006
Mof_C 	C 	0.2453	0.4023	0.8357	0.352
Mof_C 	C 	0.2711	0.3469	0.8603	-0.078
Mof_C 	C 	0.2429	0.3205	0.9079	0.006
Mof_C 	C 	0.5167	0.8357	0.4023	0.352
Mof_C 	C 	0.5217	0.8603	0.3469	-0.078
Mof_C 	C 	0.5287	0.9079	0.3205	0.006
Mof_C 	C 	0.4023	0.2453	0.5167	0.352
Mof_C 	C 	0.3469	0.2711	0.5217	-0.078
Mof_C 	C 	0.3205	0.2429	0.5287	0.006
Mof_C 	C 	0.2453	0.5167	0.4023	0.352
Mof_C 	C 	0.2711	0.5217	0.3469	-0.078
Mof_C 	C 	0.2429	0.5287	0.3205	0.006
Mof_C 	C 	0.8357	0.4023	0.5167	0.352
Mof_C 	C 	0.8603	0.3469	0.5217	-0.078
Mof_C 	C 	0.9079	0.3205	0.5287	0.006
Mof_C 	C 	0.4023	0.8357	0.2453	0.352
Mof_C 	C 	0.3469	0.8603	0.2711	-0.078
Mof_C 	C 	0.3205	0.9079	0.2429	0.006
Mof_C 	C 	0.5167	0.2453	0.8357	0.352
Mof_C 	C 	0.5217	0.2711	0.8603	-0.078
Mof_C 	C 	0.5287	0.2429	0.9079	0.006
Mof_C 	C 	0.5198	0.3224	0.8354	0.036
Mof_C 	C 	0.5298	0.268	0.9342	-0.018
Mof_C 	C 	0.5352	0.2408	0.9832	0.135
Mof_C 	C 	0.3224	0.5198	0.3224	0.036
Mof_C 	C 	0.268	0.5298	0.268	-0.018
Mof_C 	C 	0.2408	0.5352	0.2408	0.136
Mof_C 	C 	0.8354	0.3224	0.5198	0.036
Mof_C 	C 	0.9342	0.268	0.5298	-0.018
Mof_C 	C 	0.9832	0.2408	0.5352	0.135
Mof_C 	C 	0.3224	0.8354	0.3224	0.036
Mof_C 	C 	0.268	0.9342	0.268	-0.017
Mof_C 	C 	0.2408	0.9832	0.2408	0.135
Mof_C 	C 	0.5198	0.8354	0.3224	0.036
Mof_C 	C 	0.5298	0.9342	0.268	-0.018
Mof_C 	C 	0.5352	0.9832	0.2408	0.135
Mof_C 	C 	0.3224	0.3224	0.8354	0.036
Mof_C 	C 	0.268	0.268	0.9342	-0.017
Mof_C 	C 	0.2408	0.2408	0.9832	0.135
Mof_C 	C 	0.8354	0.5198	0.3224	0.036
Mof_C 	C 	0.9342	0.5298	0.268	-0.018
Mof_C 	C 	0.9832	0.5352	0.2408	0.135
Mof_C 	C 	0.3224	0.3224	0.5198	0.036
Mof_C 	C 	0.268	0.268	0.5298	-0.018
Mof_C 	C 	0.2408	0.2408	0.5352	0.136
Mof_C 	C 	0.5198	0.3224	0.3224	0.036
Mof_C 	C 	0.5298	0.268	0.268	-0.018
Mof_C 	C 	0.5352	0.2408	0.2408	0.136
Mof_C 	C 	0.3224	0.8354	0.5198	0.036
Mof_C 	C 	0.268	0.9342	0.5298	-0.018
Mof_C 	C 	0.2408	0.9832	0.5352	0.135
Mof_C 	C 	0.8354	0.3224	0.3224	0.036
Mof_C 	C 	0.9342	0.268	0.268	-0.017
Mof_C 	C 	0.9832	0.2408	0.2408	0.135
Mof_C 	C 	0.3224	0.5198	0.8354	0.036
Mof_C 	C 	0.268	0.5298	0.9342	-0.018
Mof_C 	C 	0.2408	0.5352	0.9832	0.135
Mof_C 	C 	0.6776	0.4802	0.1646	0.036
Mof_C 	C 	0.732	0.4702	0.0658	-0.018
Mof_C 	C 	0.7592	0.4648	0.0168	0.135
Mof_C 	C 	0.4802	0.6776	0.6776	0.036
Mof_C 	C 	0.4702	0.732	0.732	-0.018
Mof_C 	C 	0.4648	0.7592	0.7592	0.136
Mof_C 	C 	0.6776	0.1646	0.4802	0.036
Mof_C 	C 	0.732	0.0658	0.4702	-0.018
Mof_C 	C 	0.7592	0.0168	0.4648	0.135
Mof_C 	C 	0.1646	0.6776	0.6776	0.036
Mof_C 	C 	0.0658	0.732	0.732	-0.017
Mof_C 	C 	0.0168	0.7592	0.7592	0.135
Mof_C 	C 	0.1646	0.4802	0.6776	0.036
Mof_C 	C 	0.0658	0.4702	0.732	-0.018
Mof_C 	C 	0.0168	0.4648	0.7592	0.135
Mof_C 	C 	0.6776	0.6776	0.1646	0.036
Mof_C 	C 	0.732	0.732	0.0658	-0.017
Mof_C 	C 	0.7592	0.7592	0.0168	0.135
Mof_C 	C 	0.4802	0.1646	0.6776	0.036
Mof_C 	C 	0.4702	0.0658	0.732	-0.018
Mof_C 	C 	0.4648	0.0168	0.7592	0.135
Mof_C 	C 	0.6776	0.6776	0.4802	0.036
Mof_C 	C 	0.732	0.732	0.4702	-0.018
Mof_C 	C 	0.7592	0.7592	0.4648	0.136
Mof_C 	C 	0.6776	0.4802	0.6776	0.036
Mof_C 	C 	0.732	0.4702	0.732	-0.018
Mof_C 	C 	0.7592	0.4648	0.7592	0.136
Mof_C 	C 	0.1646	0.6776	0.4802	0.036
Mof_C 	C 	0.0658	0.732	0.4702	-0.018
Mof_C 	C 	0.0168	0.7592	0.4648	0.135
Mof_C 	C 	0.6776	0.1646	0.6776	0.036
Mof_C 	C 	0.732	0.0658	0.732	-0.017
Mof_C 	C 	0.7592	0.0168	0.7592	0.135
Mof_C 	C 	0.4802	0.6776	0.1646	0.036
Mof_C 	C 	0.4702	0.732	0.0658	-0.018
Mof_C 	C 	0.4648	0.7592	0.0168	0.135
Mof_N 	N 	0.5389	0.1899	0.0109	-0.071
Mof_N 	N 	0.5378	0.1814	0.0576	-0.125
Mof_N 	N 	0.1899	0.5389	0.2603	-0.071
Mof_N 	N 	0.1814	0.5378	0.2232	-0.125
Mof_N 	N 	0.0109	0.2603	0.5389	-0.071
Mof_N 	N 	0.0576	0.2232	0.5378	-0.125
Mof_N 	N 	0.2603	0.0109	0.1899	-0.07
Mof_N 	N 	0.2232	0.0576	0.1814	-0.125
Mof_N 	N 	0.5389	0.0109	0.2603	-0.071
Mof_N 	N 	0.5378	0.0576	0.2232	-0.125
Mof_N 	N 	0.1899	0.2603	0.0109	-0.07
Mof_N 	N 	0.1814	0.2232	0.0576	-0.125
Mof_N 	N 	0.0109	0.5389	0.1899	-0.071
Mof_N 	N 	0.0576	0.5378	0.1814	-0.125
Mof_N 	N 	0.2603	0.1899	0.5389	-0.071
Mof_N 	N 	0.2232	0.1814	0.5378	-0.125
Mof_N 	N 	0.5389	0.2603	0.1899	-0.071
Mof_N 	N 	0.5378	0.2232	0.1814	-0.125
Mof_N 	N 	0.1899	0.0109	0.5389	-0.071
Mof_N 	N 	0.1814	0.0576	0.5378	-0.125
Mof_N 	N 	0.0109	0.1899	0.2603	-0.07
Mof_N 	N 	0.0576	0.1814	0.2232	-0.125
Mof_N 	N 	0.2603	0.5389	0.0109	-0.071
Mof_N 	N 	0.2232	0.5378	0.0576	-0.125
Mof_N 	N 	0.8101	0.4611	0.9891	-0.071
Mof_N 	N 	0.8186	0.4622	0.9424	-0.125
Mof_N 	N 	0.4611	0.8101	0.7397	-0.071
Mof_N 	N 	0.4622	0.8186	0.7768	-0.125
Mof_N 	N 	0.7397	0.9891	0.4611	-0.071
Mof_N 	N 	0.7768	0.9424	0.4622	-0.125
Mof_N 	N 	0.9891	0.7397	0.8101	-0.07
Mof_N 	N 	0.9424	0.7768	0.8186	-0.125
Mof_N 	N 	0.9891	0.4611	0.7397	-0.071
Mof_N 	N 	0.9424	0.4622	0.7768	-0.125
Mof_N 	N 	0.7397	0.8101	0.9891	-0.07
Mof_N 	N 	0.7768	0.8186	0.9424	-0.125
Mof_N 	N 	0.4611	0.9891	0.8101	-0.071
Mof_N 	N 	0.4622	0.9424	0.8186	-0.125
Mof_N 	N 	0.8101	0.7397	0.4611	-0.071
Mof_N 	N 	0.8186	0.7768	0.4622	-0.125
Mof_N 	N 	0.7397	0.4611	0.8101	-0.071
Mof_N 	N 	0.7768	0.4622	0.8186	-0.125
Mof_N 	N 	0.9891	0.8101	0.4611	-0.071
Mof_N 	N 	0.9424	0.8186	0.4622	-0.125
Mof_N 	N 	0.8101	0.9891	0.7397	-0.07
Mof_N 	N 	0.8186	0.9424	0.7768	-0.125
Mof_N 	N 	0.4611	0.7397	0.9891	-0.071
Mof_N 	N 	0.4622	0.7768	0.9424	-0.125
Mof_N 	N 	0.4611	0.8101	0.9891	-0.071
Mof_N 	N 	0.4622	0.8186	0.9424	-0.125
Mof_N 	N 	0.8101	0.4611	0.7397	-0.071
Mof_N 	N 	0.8186	0.4622	0.7768	-0.125
Mof_N 	N 	0.9891	0.7397	0.4611	-0.071
Mof_N 	N 	0.9424	0.7768	0.4622	-0.125
Mof_N 	N 	0.7397	0.9891	0.8101	-0.07
Mof_N 	N 	0.7768	0.9424	0.8186	-0.125
Mof_N 	N 	0.4611	0.9891	0.7397	-0.071
Mof_N 	N 	0.4622	0.9424	0.7768	-0.125
Mof_N 	N 	0.8101	0.7397	0.9891	-0.07
Mof_N 	N 	0.8186	0.7768	0.9424	-0.125
Mof_N 	N 	0.9891	0.4611	0.8101	-0.071
Mof_N 	N 	0.9424	0.4622	0.8186	-0.125
Mof_N 	N 	0.7397	0.8101	0.4611	-0.071
Mof_N 	N 	0.7768	0.8186	0.4622	-0.125
Mof_N 	N 	0.4611	0.7397	0.8101	-0.071
Mof_N 	N 	0.4622	0.7768	0.8186	-0.125
Mof_N 	N 	0.8101	0.9891	0.4611	-0.071
Mof_N 	N 	0.8186	0.9424	0.4622	-0.125
Mof_N 	N 	0.9891	0.8101	0.7397	-0.07
Mof_N 	N 	0.9424	0.8186	0.7768	-0.125
Mof_N 	N 	0.7397	0.4611	0.9891	-0.071
Mof_N 	N 	0.7768	0.4622	0.9424	-0.125
Mof_N 	N 	0.1899	0.5389	0.0109	-0.071
Mof_N 	N 	0.1814	0.5378	0.0576	-0.125
Mof_N 	N 	0.5389	0.1899	0.2603	-0.071
Mof_N 	N 	0.5378	0.1814	0.2232	-0.125
Mof_N 	N 	0.2603	0.0109	0.5389	-0.071
Mof_N 	N 	0.2232	0.0576	0.5378	-0.125
Mof_N 	N 	0.0109	0.2603	0.1899	-0.07
Mof_N 	N 	0.0576	0.2232	0.1814	-0.125
Mof_N 	N 	0.0109	0.5389	0.2603	-0.071
Mof_N 	N 	0.0576	0.5378	0.2232	-0.125
Mof_N 	N 	0.2603	0.1899	0.0109	-0.07
Mof_N 	N 	0.2232	0.1814	0.0576	-0.125
Mof_N 	N 	0.5389	0.0109	0.1899	-0.071
Mof_N 	N 	0.5378	0.0576	0.1814	-0.125
Mof_N 	N 	0.1899	0.2603	0.5389	-0.071
Mof_N 	N 	0.1814	0.2232	0.5378	-0.125
Mof_N 	N 	0.2603	0.5389	0.1899	-0.071
Mof_N 	N 	0.2232	0.5378	0.1814	-0.125
Mof_N 	N 	0.0109	0.1899	0.5389	-0.071
Mof_N 	N 	0.0576	0.1814	0.5378	-0.125
Mof_N 	N 	0.1899	0.0109	0.2603	-0.07
Mof_N 	N 	0.1814	0.0576	0.2232	-0.125
Mof_N 	N 	0.5389	0.2603	0.0109	-0.071
Mof_N 	N 	0.5378	0.2232	0.0576	-0.125
Mof_O 	O 	0.51251	0.42519	0.79111	-0.371
Mof_O 	O 	0.51278	0.42544	0.86172	-0.373
Mof_O 	O 	0.42519	0.51251	0.27119	-0.371
Mof_O 	O 	0.42544	0.51278	0.20006	-0.373
Mof_O 	O 	0.79111	0.27119	0.51251	-0.371
Mof_O 	O 	0.86172	0.20006	0.51278	-0.373
Mof_O 	O 	0.27119	0.79111	0.42519	-0.371
Mof_O 	O 	0.20006	0.86172	0.42544	-0.373
Mof_O 	O 	0.51251	0.79111	0.27119	-0.371
Mof_O 	O 	0.51278	0.86172	0.20006	-0.373
Mof_O 	O 	0.42519	0.27119	0.79111	-0.371
Mof_O 	O 	0.42544	0.20006	0.86172	-0.373
Mof_O 	O 	0.79111	0.51251	0.42519	-0.371
Mof_O 	O 	0.86172	0.51278	0.42544	-0.373
Mof_O 	O 	0.27119	0.42519	0.51251	-0.371
Mof_O 	O 	0.20006	0.42544	0.51278	-0.373
Mof_O 	O 	0.51251	0.27119	0.42519	-0.371
Mof_O 	O 	0.51278	0.20006	0.42544	-0.373
Mof_O 	O 	0.42519	0.79111	0.51251	-0.371
Mof_O 	O 	0.42544	0.86172	0.51278	-0.373
Mof_O 	O 	0.79111	0.42519	0.27119	-0.371
Mof_O 	O 	0.86172	0.42544	0.20006	-0.373
Mof_O 	O 	0.27119	0.51251	0.79111	-0.371
Mof_O 	O 	0.20006	0.51278	0.86172	-0.373
Mof_O 	O 	0.57481	0.48749	0.20889	-0.371
Mof_O 	O 	0.57456	0.48722	0.13828	-0.373
Mof_O 	O 	0.48749	0.57481	0.72881	-0.371
Mof_O 	O 	0.48722	0.57456	0.79994	-0.373
Mof_O 	O 	0.72881	0.20889	0.48749	-0.371
Mof_O 	O 	0.79994	0.13828	0.48722	-0.373
Mof_O 	O 	0.20889	0.72881	0.57481	-0.371
Mof_O 	O 	0.13828	0.79994	0.57456	-0.373
Mof_O 	O 	0.20889	0.48749	0.72881	-0.371
Mof_O 	O 	0.13828	0.48722	0.79994	-0.373
Mof_O 	O 	0.72881	0.57481	0.20889	-0.371
Mof_O 	O 	0.79994	0.57456	0.13828	-0.373
Mof_O 	O 	0.48749	0.20889	0.57481	-0.371
Mof_O 	O 	0.48722	0.13828	0.57456	-0.373
Mof_O 	O 	0.57481	0.72881	0.48749	-0.371
Mof_O 	O 	0.57456	0.79994	0.48722	-0.373
Mof_O 	O 	0.72881	0.48749	0.57481	-0.371
Mof_O 	O 	0.79994	0.48722	0.57456	-0.373
Mof_O 	O 	0.20889	0.57481	0.48749	-0.371
Mof_O 	O 	0.13828	0.57456	0.48722	-0.373
Mof_O 	O 	0.57481	0.20889	0.72881	-0.371
Mof_O 	O 	0.57456	0.13828	0.79994	-0.373
Mof_O 	O 	0.48749	0.72881	0.20889	-0.371
Mof_O 	O 	0.48722	0.79994	0.13828	-0.373
Mof_O 	O 	0.48749	0.57481	0.20889	-0.371
Mof_O 	O 	0.48722	0.57456	0.13828	-0.373
Mof_O 	O 	0.57481	0.48749	0.72881	-0.371
Mof_O 	O 	0.57456	0.48722	0.79994	-0.373
Mof_O 	O 	0.20889	0.72881	0.48749	-0.371
Mof_O 	O 	0.13828	0.79994	0.48722	-0.373
Mof_O 	O 	0.72881	0.20889	0.57481	-0.371
Mof_O 	O 	0.79994	0.13828	0.57456	-0.373
Mof_O 	O 	0.48749	0.20889	0.72881	-0.371
Mof_O 	O 	0.48722	0.13828	0.79994	-0.373
Mof_O 	O 	0.57481	0.72881	0.20889	-0.371
Mof_O 	O 	0.57456	0.79994	0.13828	-0.373
Mof_O 	O 	0.20889	0.48749	0.57481	-0.371
Mof_O 	O 	0.13828	0.48722	0.57456	-0.373
Mof_O 	O 	0.72881	0.57481	0.48749	-0.371
Mof_O 	O 	0.79994	0.57456	0.48722	-0.373
Mof_O 	O 	0.48749	0.72881	0.57481	-0.371
Mof_O 	O 	0.48722	0.79994	0.57456	-0.373
Mof_O 	O 	0.57481	0.20889	0.48749	-0.371
Mof_O 	O 	0.57456	0.13828	0.48722	-0.373
Mof_O 	O 	0.20889	0.57481	0.72881	-0.371
Mof_O 	O 	0.13828	0.57456	0.79994	-0.373
Mof_O 	O 	0.72881	0.48749	0.20889	-0.371
Mof_O 	O 	0.79994	0.48722	0.13828	-0.373
Mof_O 	O 	0.42519	0.51251	0.79111	-0.371
Mof_O 	O 	0.42544	0.51278	0.86172	-0.373
Mof_O 	O 	0.51251	0.42519	0.27119	-0.371
Mof_O 	O 	0.51278	0.42544	0.20006	-0.373
Mof_O 	O 	0.27119	0.79111	0.51251	-0.371
Mof_O 	O 	0.20006	0.86172	0.51278	-0.373
Mof_O 	O 	0.79111	0.27119	0.42519	-0.371
Mof_O 	O 	0.86172	0.20006	0.42544	-0.373
Mof_O 	O 	0.79111	0.51251	0.27119	-0.371
Mof_O 	O 	0.86172	0.51278	0.20006	-0.373
Mof_O 	O 	0.27119	0.42519	0.79111	-0.371
Mof_O 	O 	0.20006	0.42544	0.86172	-0.373
Mof_O 	O 	0.51251	0.79111	0.42519	-0.371
Mof_O 	O 	0.51278	0.86172	0.42544	-0.373
Mof_O 	O 	0.42519	0.27119	0.51251	-0.371
Mof_O 	O 	0.42544	0.20006	0.51278	-0.373
Mof_O 	O 	0.27119	0.51251	0.42519	-0.371
Mof_O 	O 	0.20006	0.51278	0.42544	-0.373
Mof_O 	O 	0.79111	0.42519	0.51251	-0.371
Mof_O 	O 	0.86172	0.42544	0.51278	-0.373
Mof_O 	O 	0.42519	0.79111	0.27119	-0.371
Mof_O 	O 	0.42544	0.86172	0.20006	-0.373
Mof_O 	O 	0.51251	0.27119	0.79111	-0.371
Mof_O 	O 	0.51278	0.20006	0.86172	-0.373
Mof_O 	O 	0.5	0.5	0.9056	-0.17
Mof_O 	O 	0.5	0.5	0.6858	-0.148
Mof_O 	O 	0.5	0.5	0.0944	-0.17
Mof_O 	O 	0.5	0.5	0.3142	-0.148
Mof_O 	O 	0.9056	0.0944	0.5	-0.17
Mof_O 	O 	0.6858	0.3142	0.5	-0.148
Mof_O 	O 	0.0944	0.9056	0.5	-0.17
Mof_O 	O 	0.3142	0.6858	0.5	-0.148
Mof_O 	O 	0.5	0.9056	0.0944	-0.17
Mof_O 	O 	0.5	0.6858	0.3142	-0.148
Mof_O 	O 	0.5	0.0944	0.9056	-0.17
Mof_O 	O 	0.5	0.3142	0.6858	-0.148
Mof_O 	O 	0.9056	0.5	0.5	-0.17
Mof_O 	O 	0.6858	0.5	0.5	-0.148
Mof_O 	O 	0.0944	0.5	0.5	-0.17
Mof_O 	O 	0.3142	0.5	0.5	-0.148
Mof_O 	O 	0.5	0.0944	0.5	-0.17
Mof_O 	O 	0.5	0.3142	0.5	-0.148
Mof_O 	O 	0.5	0.9056	0.5	-0.17
Mof_O 	O 	0.5	0.6858	0.5	-0.148
Mof_O 	O 	0.9056	0.5	0.0944	-0.17
Mof_O 	O 	0.6858	0.5	0.3142	-0.148
Mof_O 	O 	0.0944	0.5	0.9056	-0.17
Mof_O 	O 	0.3142	0.5	0.6858	-0.148
Mof_O 	O 	0.5089	0.0931	0.0931	-0.145
Mof_O 	O 	0.6045	0.0671	0.0671	-0.197
Mof_O 	O 	0.4773	0.1383	0.1383	-0.227
Mof_O 	O 	0.0931	0.5089	0.3049	-0.145
Mof_O 	O 	0.0671	0.6045	0.2613	-0.197
Mof_O 	O 	0.1383	0.4773	0.2461	-0.227
Mof_O 	O 	0.0931	0.3049	0.5089	-0.145
Mof_O 	O 	0.0671	0.2613	0.6045	-0.197
Mof_O 	O 	0.1383	0.2461	0.4773	-0.227
Mof_O 	O 	0.3049	0.0931	0.0931	-0.145
Mof_O 	O 	0.2613	0.0671	0.0671	-0.197
Mof_O 	O 	0.2461	0.1383	0.1383	-0.227
Mof_O 	O 	0.5089	0.0931	0.3049	-0.145
Mof_O 	O 	0.6045	0.0671	0.2613	-0.197
Mof_O 	O 	0.4773	0.1383	0.2461	-0.227
Mof_O 	O 	0.0931	0.3049	0.0931	-0.145
Mof_O 	O 	0.0671	0.2613	0.0671	-0.197
Mof_O 	O 	0.1383	0.2461	0.1383	-0.227
Mof_O 	O 	0.0931	0.5089	0.0931	-0.145
Mof_O 	O 	0.0671	0.6045	0.0671	-0.197
Mof_O 	O 	0.1383	0.4773	0.1383	-0.227
Mof_O 	O 	0.3049	0.0931	0.5089	-0.145
Mof_O 	O 	0.2613	0.0671	0.6045	-0.197
Mof_O 	O 	0.2461	0.1383	0.4773	-0.227
Mof_O 	O 	0.5089	0.3049	0.0931	-0.145
Mof_O 	O 	0.6045	0.2613	0.0671	-0.197
Mof_O 	O 	0.4773	0.2461	0.1383	-0.227
Mof_O 	O 	0.0931	0.0931	0.5089	-0.145
Mof_O 	O 	0.0671	0.0671	0.6045	-0.197
Mof_O 	O 	0.1383	0.1383	0.4773	-0.227
Mof_O 	O 	0.0931	0.0931	0.3049	-0.145
Mof_O 	O 	0.0671	0.0671	0.2613	-0.197
Mof_O 	O 	0.1383	0.1383	0.2461	-0.227
Mof_O 	O 	0.3049	0.5089	0.0931	-0.145
Mof_O 	O 	0.2613	0.6045	0.0671	-0.197
Mof_O 	O 	0.2461	0.4773	0.1383	-0.227
Mof_O 	O 	0.9069	0.4911	0.9069	-0.145
Mof_O 	O 	0.9329	0.3955	0.9329	-0.197
Mof_O 	O 	0.8617	0.5227	0.8617	-0.227
Mof_O 	O 	0.4911	0.9069	0.6951	-0.145
Mof_O 	O 	0.3955	0.9329	0.7387	-0.197
Mof_O 	O 	0.5227	0.8617	0.7539	-0.227
Mof_O 	O 	0.6951	0.9069	0.4911	-0.145
Mof_O 	O 	0.7387	0.9329	0.3955	-0.197
Mof_O 	O 	0.7539	0.8617	0.5227	-0.227
Mof_O 	O 	0.9069	0.6951	0.9069	-0.145
Mof_O 	O 	0.9329	0.7387	0.9329	-0.197
Mof_O 	O 	0.8617	0.7539	0.8617	-0.227
Mof_O 	O 	0.9069	0.4911	0.6951	-0.145
Mof_O 	O 	0.9329	0.3955	0.7387	-0.197
Mof_O 	O 	0.8617	0.5227	0.7539	-0.227
Mof_O 	O 	0.6951	0.9069	0.9069	-0.145
Mof_O 	O 	0.7387	0.9329	0.9329	-0.197
Mof_O 	O 	0.7539	0.8617	0.8617	-0.227
Mof_O 	O 	0.4911	0.9069	0.9069	-0.145
Mof_O 	O 	0.3955	0.9329	0.9329	-0.197
Mof_O 	O 	0.5227	0.8617	0.8617	-0.227
Mof_O 	O 	0.9069	0.6951	0.4911	-0.145
Mof_O 	O 	0.9329	0.7387	0.3955	-0.197
Mof_O 	O 	0.8617	0.7539	0.5227	-0.227
Mof_O 	O 	0.6951	0.4911	0.9069	-0.145
Mof_O 	O 	0.7387	0.3955	0.9329	-0.197
Mof_O 	O 	0.7539	0.5227	0.8617	-0.227
Mof_O 	O 	0.9069	0.9069	0.4911	-0.145
Mof_O 	O 	0.9329	0.9329	0.3955	-0.197
Mof_O 	O 	0.8617	0.8617	0.5227	-0.227
Mof_O 	O 	0.9069	0.9069	0.6951	-0.145
Mof_O 	O 	0.9329	0.9329	0.7387	-0.197
Mof_O 	O 	0.8617	0.8617	0.7539	-0.227
Mof_O 	O 	0.4911	0.6951	0.9069	-0.145
Mof_O 	O 	0.3955	0.7387	0.9329	-0.197
Mof_O 	O 	0.5227	0.7539	0.8617	-0.227
Mof_O 	O 	0.5536	0.1488	0.1488	-0.525
Mof_O 	O 	0.1488	0.5536	0.1488	-0.525
Mof_O 	O 	0.1488	0.1488	0.5536	-0.525
Mof_O 	O 	0.1488	0.1488	0.1488	-0.525
Mof_O 	O 	0.8512	0.4464	0.8512	-0.525
Mof_O 	O 	0.4464	0.8512	0.8512	-0.525
Mof_O 	O 	0.8512	0.8512	0.4464	-0.525
Mof_O 	O 	0.8512	0.8512	0.8512	-0.525
Mof_N 	N 	0.5624	0.5624	0.5624	0.045
Mof_O 	O 	0.5854	0.5164	0.5854	-0.047
Mof_O 	O 	0.5854	0.5854	0.5164	-0.047
Mof_O 	O 	0.5164	0.5854	0.5854	-0.047
Mof_N 	N 	0.5624	0.5624	0.3128	0.045
Mof_O 	O 	0.5164	0.5854	0.3128	-0.047
Mof_O 	O 	0.5854	0.5854	0.3128	-0.047
Mof_O 	O 	0.5854	0.5164	0.3128	-0.047
Mof_N 	N 	0.5624	0.3128	0.5624	0.045
Mof_O 	O 	0.5854	0.3128	0.5854	-0.047
Mof_O 	O 	0.5164	0.3128	0.5854	-0.047
Mof_O 	O 	0.5854	0.3128	0.5164	-0.047
Mof_N 	N 	0.3128	0.5624	0.5624	0.045
Mof_O 	O 	0.3128	0.5854	0.5164	-0.047
Mof_O 	O 	0.3128	0.5164	0.5854	-0.047
Mof_O 	O 	0.3128	0.5854	0.5854	-0.047
Mof_N 	N 	0.4376	0.4376	0.4376	0.045
Mof_O 	O 	0.4836	0.4146	0.4146	-0.047
Mof_O 	O 	0.4146	0.4146	0.4836	-0.047
Mof_O 	O 	0.4146	0.4836	0.4146	-0.047
Mof_N 	N 	0.4376	0.4376	0.6872	0.045
Mof_O 	O 	0.4146	0.4836	0.6872	-0.047
Mof_O 	O 	0.4146	0.4146	0.6872	-0.047
Mof_O 	O 	0.4836	0.4146	0.6872	-0.047
Mof_N 	N 	0.6872	0.4376	0.4376	0.045
Mof_O 	O 	0.6872	0.4146	0.4146	-0.047
Mof_O 	O 	0.6872	0.4836	0.4146	-0.047
Mof_O 	O 	0.6872	0.4146	0.4836	-0.047
Mof_N 	N 	0.4376	0.6872	0.4376	0.045
Mof_O 	O 	0.4146	0.6872	0.4836	-0.047
Mof_O 	O 	0.4836	0.6872	0.4146	-0.047
Mof_O 	O 	0.4146	0.6872	0.4146	-0.047
_end
