data_functionalizedCrystal
_audit_creation_method	'EQeq! by Chris Wilmer'
_symmetry_space_group_name_H-M	'P1'
_symmetry_Int_Tables_number	1
_symmetry_cell_setting	triclinic
loop_
_symmetry_equiv_pos_as_xyz
  x,y,z
_cell_length_a	13.014
_cell_length_b	23.695
_cell_length_c	16.214
_cell_angle_alpha	90
_cell_angle_beta	107.04
_cell_angle_gamma	90
loop_
_atom_site_label
_atom_site_type_symbol
_atom_site_fract_x
_atom_site_fract_y
_atom_site_fract_z
_atom_site_charge
Mof_Sm	Sm	0.7523	0.32792	0.67742	1.65
Mof_Sm	Sm	0.31176	0.32612	0.8274	1.64
Mof_Sm	Sm	0.52649	0.57874	0.7529	1.625
Mof_N 	N 	0.6437	0.3167	0.7803	-0.268
Mof_N 	N 	0.5025	0.3113	0.8324	-0.272
Mof_N 	N 	0.8349	0.2903	0.5669	-0.262
Mof_N 	N 	0.8493	0.2427	0.4496	-0.266
Mof_N 	N 	0.9423	0.3493	0.7602	-0.251
Mof_N 	N 	0.1214	0.3414	0.8176	-0.26
Mof_N 	N 	0.7417	0.4244	0.7366	-0.262
Mof_N 	N 	0.6645	0.5055	0.7585	-0.275
Mof_N 	N 	0.6731	0.3906	0.5486	-0.264
Mof_N 	N 	0.5981	0.4172	0.4112	-0.278
Mof_N 	N 	0.592	0.269	0.5863	-0.25
Mof_N 	N 	0.4847	0.1962	0.538	-0.202
Mof_H 	H 	0.455	0.1625	0.5336	0.101
Mof_N 	N 	0.3175	0.4259	0.7829	-0.27
Mof_N 	N 	0.3921	0.5084	0.7626	-0.28
Mof_N 	N 	0.2442	0.2339	0.7552	-0.263
Mof_N 	N 	0.1426	0.155	0.7311	-0.276
Mof_N 	N 	0.2878	0.3367	0.6609	-0.243
Mof_N 	N 	0.2042	0.3493	0.5236	-0.206
Mof_H 	H 	0.1549	0.3454	0.4735	0.095
Mof_N 	N 	0.4002	0.651	0.7693	-0.279
Mof_N 	N 	0.3082	0.7325	0.744	-0.261
Mof_N 	N 	0.4444	0.5805	0.5979	-0.282
Mof_N 	N 	0.3619	0.6138	0.463	-0.258
Mof_C 	C 	0.5386	0.3054	0.7654	0.12
Mof_H 	H 	0.4938	0.294	0.7105	-0.055
Mof_C 	C 	0.6772	0.3287	0.8658	0.009
Mof_H 	H 	0.7488	0.3377	0.8979	-0.008
Mof_C 	C 	0.5923	0.3258	0.8984	-0.005
Mof_H 	H 	0.5946	0.3326	0.9566	-0.005
Mof_C 	C 	0.8022	0.247	0.5134	0.122
Mof_H 	H 	0.7495	0.2209	0.5196	-0.061
Mof_C 	C 	0.9095	0.3173	0.5337	-0
Mof_H 	H 	0.9482	0.3506	0.5562	0.007
Mof_C 	C 	0.9174	0.2881	0.4639	0.013
Mof_H 	H 	0.9632	0.2977	0.43	0.007
Mof_C 	C 	0.0348	0.328	0.7522	0.063
Mof_H 	H 	0.0383	0.3055	0.7045	-0.055
Mof_C 	C 	0.9725	0.3771	0.8388	0.073
Mof_H 	H 	0.9262	0.3967	0.8646	-0.02
Mof_C 	C 	0.0798	0.3712	0.872	-0.072
Mof_H 	H 	0.1208	0.3859	0.9261	0.01
Mof_C 	C 	0.6599	0.4486	0.7575	0.117
Mof_H 	H 	0.6041	0.4278	0.7704	-0.06
Mof_C 	C 	0.8024	0.4695	0.7226	-0.002
Mof_H 	H 	0.8664	0.4669	0.706	0.002
Mof_C 	C 	0.755	0.518	0.7365	-0.004
Mof_H 	H 	0.7809	0.555	0.7316	-0.006
Mof_C 	C 	0.6696	0.3848	0.4653	0.127
Mof_H 	H 	0.7149	0.3595	0.4468	-0.059
Mof_C 	C 	0.5948	0.4307	0.5459	0
Mof_H 	H 	0.5754	0.445	0.594	-0.015
Mof_C 	C 	0.5505	0.4461	0.4622	-0.006
Mof_H 	H 	0.4947	0.473	0.4425	-0.008
Mof_C 	C 	0.5711	0.215	0.5998	0.11
Mof_H 	H 	0.6121	0.1929	0.6469	-0.036
Mof_C 	C 	0.5153	0.2842	0.5135	0.015
Mof_H 	H 	0.5085	0.3208	0.4885	-0.005
Mof_C 	C 	0.4526	0.2423	0.4824	-0.004
Mof_H 	H 	0.3946	0.2426	0.4306	0.014
Mof_C 	C 	0.4043	0.4574	0.7979	0.134
Mof_H 	H 	0.4724	0.4443	0.8323	-0.072
Mof_C 	C 	0.238	0.4599	0.7318	0.01
Mof_H 	H 	0.1644	0.4499	0.7087	-0.013
Mof_C 	C 	0.2825	0.5099	0.7201	-0.01
Mof_H 	H 	0.2448	0.5409	0.688	-0.006
Mof_C 	C 	0.1737	0.2011	0.7792	0.111
Mof_H 	H 	0.1481	0.21	0.8268	-0.072
Mof_C 	C 	0.2586	0.2064	0.685	0.007
Mof_H 	H 	0.3038	0.2187	0.652	0.004
Mof_C 	C 	0.1984	0.1589	0.6702	-0.01
Mof_H 	H 	0.1947	0.1325	0.6253	-0.008
Mof_C 	C 	0.2022	0.3262	0.5985	0.125
Mof_H 	H 	0.1439	0.3044	0.6051	-0.049
Mof_C 	C 	0.348	0.3722	0.6237	0.01
Mof_H 	H 	0.4153	0.3885	0.6536	-0.013
Mof_C 	C 	0.2969	0.3799	0.5395	-0.001
Mof_H 	H 	0.3202	0.402	0.4994	0.012
Mof_C 	C 	0.3849	0.7012	0.7295	0.116
Mof_H 	H 	0.4264	0.7134	0.6935	-0.065
Mof_C 	C 	0.3241	0.6504	0.813	0.004
Mof_H 	H 	0.3124	0.6203	0.8479	-0.004
Mof_C 	C 	0.2691	0.6993	0.7985	-0.002
Mof_H 	H 	0.2126	0.7095	0.8219	0.003
Mof_C 	C 	0.4296	0.6242	0.5402	0.112
Mof_H 	H 	0.4653	0.6595	0.5545	-0.053
Mof_C 	C 	0.3812	0.5391	0.5516	0
Mof_H 	H 	0.382	0.498	0.576	-0.011
Mof_C 	C 	0.3303	0.5586	0.4717	-0.005
Mof_H 	H 	0.2804	0.5376	0.4279	0.002
Mof_Sm	Sm	0.2523	0.82792	0.67742	1.625
Mof_Sm	Sm	0.81176	0.82612	0.8274	1.678
Mof_Sm	Sm	0.02649	0.07874	0.7529	1.507
Mof_N 	N 	0.1437	0.8167	0.7803	-0.255
Mof_N 	N 	0.0025	0.8113	0.8324	-0.278
Mof_N 	N 	0.3349	0.7903	0.5669	-0.263
Mof_N 	N 	0.3493	0.7427	0.4496	-0.267
Mof_N 	N 	0.4423	0.8493	0.7602	-0.264
Mof_N 	N 	0.6214	0.8414	0.8176	-0.28
Mof_N 	N 	0.2417	0.9244	0.7366	-0.262
Mof_N 	N 	0.1645	0.0055	0.7585	-0.271
Mof_N 	N 	0.1731	0.8906	0.5486	-0.269
Mof_N 	N 	0.0981	0.9172	0.4112	-0.259
Mof_N 	N 	0.092	0.769	0.5863	-0.231
Mof_N 	N 	0.9847	0.6962	0.538	-0.19
Mof_H 	H 	0.955	0.6625	0.5336	0.11
Mof_N 	N 	0.8175	0.9259	0.7829	-0.269
Mof_N 	N 	0.8921	0.0084	0.7626	-0.26
Mof_N 	N 	0.7442	0.7339	0.7552	-0.265
Mof_N 	N 	0.6426	0.655	0.7311	-0.279
Mof_N 	N 	0.7878	0.8367	0.6609	-0.242
Mof_N 	N 	0.7042	0.8493	0.5236	-0.207
Mof_H 	H 	0.6549	0.8454	0.4735	0.106
Mof_N 	N 	0.9002	0.151	0.7693	-0.258
Mof_N 	N 	0.8082	0.2325	0.744	-0.26
Mof_N 	N 	0.9444	0.0805	0.5979	-0.26
Mof_N 	N 	0.8619	0.1138	0.463	-0.257
Mof_C 	C 	0.0386	0.8054	0.7654	0.036
Mof_H 	H 	0.9938	0.794	0.7105	0.006
Mof_C 	C 	0.1772	0.8287	0.8658	0.008
Mof_H 	H 	0.2488	0.8377	0.8979	-0.01
Mof_C 	C 	0.0923	0.8258	0.8984	-0.011
Mof_H 	H 	0.0946	0.8326	0.9566	-0.016
Mof_C 	C 	0.3022	0.747	0.5134	0.12
Mof_H 	H 	0.2495	0.7209	0.5196	-0.062
Mof_C 	C 	0.4095	0.8173	0.5337	-0.006
Mof_H 	H 	0.4482	0.8506	0.5562	-0.005
Mof_C 	C 	0.4174	0.7881	0.4639	0.007
Mof_H 	H 	0.4632	0.7977	0.43	-0.006
Mof_C 	C 	0.5348	0.828	0.7522	0.113
Mof_H 	H 	0.5383	0.8055	0.7045	-0.057
Mof_C 	C 	0.4725	0.8771	0.8388	-0.013
Mof_H 	H 	0.4262	0.8967	0.8646	0.002
Mof_C 	C 	0.5798	0.8712	0.872	0.014
Mof_H 	H 	0.6208	0.8859	0.9261	-0.01
Mof_C 	C 	0.1599	0.9486	0.7575	0.112
Mof_H 	H 	0.1041	0.9278	0.7704	-0.068
Mof_C 	C 	0.3024	0.9695	0.7226	-0.003
Mof_H 	H 	0.3664	0.9669	0.706	-0.005
Mof_C 	C 	0.255	0.018	0.7365	-0.008
Mof_H 	H 	0.2809	0.055	0.7316	-0.008
Mof_C 	C 	0.1696	0.8848	0.4653	0.122
Mof_H 	H 	0.2149	0.8595	0.4468	-0.057
Mof_C 	C 	0.0948	0.9307	0.5459	0.043
Mof_H 	H 	0.0754	0.945	0.594	-0.041
Mof_C 	C 	0.0505	0.9461	0.4622	-0.112
Mof_H 	H 	0.9947	0.973	0.4425	0.059
Mof_C 	C 	0.0711	0.715	0.5998	0.059
Mof_H 	H 	0.1121	0.6929	0.6469	-0.028
Mof_C 	C 	0.0153	0.7842	0.5135	-0.093
Mof_H 	H 	0.0085	0.8208	0.4885	0.018
Mof_C 	C 	0.9526	0.7423	0.4824	0.103
Mof_H 	H 	0.8946	0.7426	0.4306	-0.016
Mof_C 	C 	0.9043	0.9574	0.7979	0.133
Mof_H 	H 	0.9724	0.9443	0.8323	-0.054
Mof_C 	C 	0.738	0.9599	0.7318	0.012
Mof_H 	H 	0.6644	0.9499	0.7087	-0.006
Mof_C 	C 	0.7825	0.0099	0.7201	-0.008
Mof_H 	H 	0.7448	0.0409	0.688	0.002
Mof_C 	C 	0.6737	0.7011	0.7792	0.118
Mof_H 	H 	0.6481	0.71	0.8268	-0.071
Mof_C 	C 	0.7586	0.7064	0.685	0.01
Mof_H 	H 	0.8038	0.7187	0.652	0.008
Mof_C 	C 	0.6984	0.6589	0.6702	-0.004
Mof_H 	H 	0.6947	0.6325	0.6253	-0.004
Mof_C 	C 	0.7022	0.8262	0.5985	0.13
Mof_H 	H 	0.6439	0.8044	0.6051	-0.042
Mof_C 	C 	0.848	0.8722	0.6237	0.009
Mof_H 	H 	0.9153	0.8885	0.6536	0.002
Mof_C 	C 	0.7969	0.8799	0.5395	0.009
Mof_H 	H 	0.8202	0.902	0.4994	0.017
Mof_C 	C 	0.8849	0.2012	0.7295	0.12
Mof_H 	H 	0.9264	0.2134	0.6935	-0.052
Mof_C 	C 	0.8241	0.1504	0.813	0.008
Mof_H 	H 	0.8124	0.1203	0.8479	0.004
Mof_C 	C 	0.7691	0.1993	0.7985	0.003
Mof_H 	H 	0.7126	0.2095	0.8219	0.006
Mof_C 	C 	0.9296	0.1242	0.5402	0.117
Mof_H 	H 	0.9653	0.1595	0.5545	-0.039
Mof_C 	C 	0.8812	0.0391	0.5516	0.005
Mof_H 	H 	0.882	0.998	0.576	-0.001
Mof_C 	C 	0.8303	0.0586	0.4717	-0.002
Mof_H 	H 	0.7804	0.0376	0.4279	0.004
Mof_Sm	Sm	0.7523	0.67208	0.17742	1.654
Mof_Sm	Sm	0.31176	0.67388	0.3274	1.642
Mof_Sm	Sm	0.52649	0.42126	0.2529	1.628
Mof_N 	N 	0.6437	0.6833	0.2803	-0.268
Mof_N 	N 	0.5025	0.6887	0.3324	-0.272
Mof_N 	N 	0.8349	0.7097	0.0669	-0.266
Mof_N 	N 	0.8493	0.7573	0.9496	-0.269
Mof_N 	N 	0.9423	0.6507	0.2602	-0.251
Mof_N 	N 	0.1214	0.6586	0.3176	-0.26
Mof_N 	N 	0.7417	0.5756	0.2366	-0.263
Mof_N 	N 	0.6645	0.4945	0.2585	-0.275
Mof_N 	N 	0.6731	0.6094	0.0486	-0.261
Mof_N 	N 	0.5981	0.5828	0.9112	-0.275
Mof_N 	N 	0.592	0.731	0.0863	-0.258
Mof_N 	N 	0.4847	0.8038	0.038	-0.192
Mof_H 	H 	0.455	0.8375	0.0336	0.102
Mof_N 	N 	0.3175	0.5741	0.2829	-0.27
Mof_N 	N 	0.3921	0.4916	0.2626	-0.28
Mof_N 	N 	0.2442	0.7661	0.2552	-0.264
Mof_N 	N 	0.1426	0.845	0.2311	-0.276
Mof_N 	N 	0.2878	0.6633	0.1609	-0.241
Mof_N 	N 	0.2042	0.6507	0.0236	-0.202
Mof_H 	H 	0.1549	0.6546	0.9735	0.088
Mof_N 	N 	0.4002	0.349	0.2693	-0.279
Mof_N 	N 	0.3082	0.2675	0.244	-0.261
Mof_N 	N 	0.4444	0.4195	0.0979	-0.285
Mof_N 	N 	0.3619	0.3862	0.963	-0.262
Mof_C 	C 	0.5386	0.6946	0.2654	0.121
Mof_H 	H 	0.4938	0.706	0.2105	-0.055
Mof_C 	C 	0.6772	0.6713	0.3658	0.01
Mof_H 	H 	0.7488	0.6623	0.3979	-0.007
Mof_C 	C 	0.5923	0.6742	0.3984	-0.005
Mof_H 	H 	0.5946	0.6674	0.4566	-0.002
Mof_C 	C 	0.8022	0.753	0.0134	0.132
Mof_H 	H 	0.7495	0.7791	0.0196	-0.062
Mof_C 	C 	0.9095	0.6827	0.0337	0.018
Mof_H 	H 	0.9482	0.6494	0.0562	0.003
Mof_C 	C 	0.9174	0.7119	0.9639	-0.006
Mof_H 	H 	0.9632	0.7023	0.93	0.011
Mof_C 	C 	0.0348	0.672	0.2522	0.063
Mof_H 	H 	0.0383	0.6945	0.2045	-0.055
Mof_C 	C 	0.9725	0.6229	0.3388	0.075
Mof_H 	H 	0.9262	0.6033	0.3646	-0.019
Mof_C 	C 	0.0798	0.6288	0.372	-0.073
Mof_H 	H 	0.1208	0.6141	0.4261	0.013
Mof_C 	C 	0.6599	0.5514	0.2575	0.117
Mof_H 	H 	0.6041	0.5722	0.2704	-0.06
Mof_C 	C 	0.8024	0.5305	0.2226	-0.001
Mof_H 	H 	0.8664	0.5331	0.206	0.003
Mof_C 	C 	0.755	0.482	0.2365	-0.003
Mof_H 	H 	0.7809	0.445	0.2316	-0.005
Mof_C 	C 	0.6696	0.6152	0.9653	0.117
Mof_H 	H 	0.7149	0.6405	0.9468	-0.058
Mof_C 	C 	0.5948	0.5693	0.0459	0.019
Mof_H 	H 	0.5754	0.555	0.094	-0.02
Mof_C 	C 	0.5505	0.5539	0.9622	-0.024
Mof_H 	H 	0.4947	0.527	0.9425	-0.004
Mof_C 	C 	0.5711	0.785	0.0998	0.112
Mof_H 	H 	0.6121	0.8071	0.1469	-0.036
Mof_C 	C 	0.5153	0.7158	0.0135	0.063
Mof_H 	H 	0.5085	0.6792	0.9885	-0.028
Mof_C 	C 	0.4526	0.7577	0.9824	-0.049
Mof_H 	H 	0.3946	0.7574	0.9306	0.027
Mof_C 	C 	0.4043	0.5426	0.2979	0.134
Mof_H 	H 	0.4724	0.5557	0.3323	-0.071
Mof_C 	C 	0.238	0.5401	0.2318	0.011
Mof_H 	H 	0.1644	0.5501	0.2087	-0.013
Mof_C 	C 	0.2825	0.4901	0.2201	-0.01
Mof_H 	H 	0.2448	0.4591	0.188	-0.005
Mof_C 	C 	0.1737	0.7989	0.2792	0.112
Mof_H 	H 	0.1481	0.79	0.3268	-0.071
Mof_C 	C 	0.2586	0.7936	0.185	0.007
Mof_H 	H 	0.3038	0.7813	0.152	0.005
Mof_C 	C 	0.1984	0.8411	0.1702	-0.01
Mof_H 	H 	0.1947	0.8675	0.1253	-0.006
Mof_C 	C 	0.2022	0.6738	0.0985	0.125
Mof_H 	H 	0.1439	0.6956	0.1051	-0.048
Mof_C 	C 	0.348	0.6278	0.1237	0.001
Mof_H 	H 	0.4153	0.6115	0.1536	-0.009
Mof_C 	C 	0.2969	0.6201	0.0395	0.019
Mof_H 	H 	0.3202	0.598	0.9994	-0.001
Mof_C 	C 	0.3849	0.2988	0.2295	0.117
Mof_H 	H 	0.4264	0.2866	0.1935	-0.065
Mof_C 	C 	0.3241	0.3496	0.313	0.004
Mof_H 	H 	0.3124	0.3797	0.3479	-0.004
Mof_C 	C 	0.2691	0.3007	0.2985	-0.001
Mof_H 	H 	0.2126	0.2905	0.3219	0.004
Mof_C 	C 	0.4296	0.3758	0.0402	0.122
Mof_H 	H 	0.4653	0.3405	0.0545	-0.054
Mof_C 	C 	0.3812	0.4609	0.0516	0.016
Mof_H 	H 	0.382	0.502	0.076	-0.013
Mof_C 	C 	0.3303	0.4414	0.9717	-0.022
Mof_H 	H 	0.2804	0.4624	0.9279	0.006
Mof_Sm	Sm	0.2523	0.17208	0.17742	1.629
Mof_Sm	Sm	0.81176	0.17388	0.3274	1.682
Mof_Sm	Sm	0.02649	0.92126	0.2529	1.509
Mof_N 	N 	0.1437	0.1833	0.2803	-0.255
Mof_N 	N 	0.0025	0.1887	0.3324	-0.279
Mof_N 	N 	0.3349	0.2097	0.0669	-0.266
Mof_N 	N 	0.3493	0.2573	0.9496	-0.27
Mof_N 	N 	0.4423	0.1507	0.2602	-0.264
Mof_N 	N 	0.6214	0.1586	0.3176	-0.28
Mof_N 	N 	0.2417	0.0756	0.2366	-0.262
Mof_N 	N 	0.1645	0.9945	0.2585	-0.271
Mof_N 	N 	0.1731	0.1094	0.0486	-0.266
Mof_N 	N 	0.0981	0.0828	0.9112	-0.256
Mof_N 	N 	0.092	0.231	0.0863	-0.238
Mof_N 	N 	0.9847	0.3038	0.038	-0.179
Mof_H 	H 	0.955	0.3375	0.0336	0.11
Mof_N 	N 	0.8175	0.0741	0.2829	-0.27
Mof_N 	N 	0.8921	0.9916	0.2626	-0.26
Mof_N 	N 	0.7442	0.2661	0.2552	-0.265
Mof_N 	N 	0.6426	0.345	0.2311	-0.279
Mof_N 	N 	0.7878	0.1633	0.1609	-0.241
Mof_N 	N 	0.7042	0.1507	0.0236	-0.203
Mof_H 	H 	0.6549	0.1546	0.9735	0.098
Mof_N 	N 	0.9002	0.849	0.2693	-0.257
Mof_N 	N 	0.8082	0.7675	0.244	-0.261
Mof_N 	N 	0.9444	0.9195	0.0979	-0.263
Mof_N 	N 	0.8619	0.8862	0.963	-0.261
Mof_C 	C 	0.0386	0.1946	0.2654	0.035
Mof_H 	H 	0.9938	0.206	0.2105	0.007
Mof_C 	C 	0.1772	0.1713	0.3658	0.009
Mof_H 	H 	0.2488	0.1623	0.3979	-0.009
Mof_C 	C 	0.0923	0.1742	0.3984	-0.011
Mof_H 	H 	0.0946	0.1674	0.4566	-0.013
Mof_C 	C 	0.3022	0.253	0.0134	0.13
Mof_H 	H 	0.2495	0.2791	0.0196	-0.063
Mof_C 	C 	0.4095	0.1827	0.0337	0.012
Mof_H 	H 	0.4482	0.1494	0.0562	-0.009
Mof_C 	C 	0.4174	0.2119	0.9639	-0.011
Mof_H 	H 	0.4632	0.2023	0.93	-0.002
Mof_C 	C 	0.5348	0.172	0.2522	0.114
Mof_H 	H 	0.5383	0.1945	0.2045	-0.057
Mof_C 	C 	0.4725	0.1229	0.3388	-0.012
Mof_H 	H 	0.4262	0.1033	0.3646	0.003
Mof_C 	C 	0.5798	0.1288	0.372	0.014
Mof_H 	H 	0.6208	0.1141	0.4261	-0.008
Mof_C 	C 	0.1599	0.0514	0.2575	0.114
Mof_H 	H 	0.1041	0.0722	0.2704	-0.068
Mof_C 	C 	0.3024	0.0305	0.2226	-0.002
Mof_H 	H 	0.3664	0.0331	0.206	-0.005
Mof_C 	C 	0.255	0.982	0.2365	-0.008
Mof_H 	H 	0.2809	0.945	0.2316	-0.007
Mof_C 	C 	0.1696	0.1152	0.9653	0.112
Mof_H 	H 	0.2149	0.1405	0.9468	-0.056
Mof_C 	C 	0.0948	0.0693	0.0459	0.059
Mof_H 	H 	0.0754	0.055	0.094	-0.045
Mof_C 	C 	0.0505	0.0539	0.9622	-0.126
Mof_H 	H 	0.9947	0.027	0.9425	0.062
Mof_C 	C 	0.0711	0.285	0.0998	0.061
Mof_H 	H 	0.1121	0.3071	0.1469	-0.027
Mof_C 	C 	0.0153	0.2158	0.0135	-0.044
Mof_H 	H 	0.0085	0.1792	0.9885	-0.004
Mof_C 	C 	0.9526	0.2577	0.9824	0.057
Mof_H 	H 	0.8946	0.2574	0.9306	-0.002
Mof_C 	C 	0.9043	0.0426	0.2979	0.134
Mof_H 	H 	0.9724	0.0557	0.3323	-0.053
Mof_C 	C 	0.738	0.0401	0.2318	0.014
Mof_H 	H 	0.6644	0.0501	0.2087	-0.006
Mof_C 	C 	0.7825	0.9901	0.2201	-0.009
Mof_H 	H 	0.7448	0.9591	0.188	0.003
Mof_C 	C 	0.6737	0.2989	0.2792	0.118
Mof_H 	H 	0.6481	0.29	0.3268	-0.07
Mof_C 	C 	0.7586	0.2936	0.185	0.011
Mof_H 	H 	0.8038	0.2813	0.152	0.009
Mof_C 	C 	0.6984	0.3411	0.1702	-0.003
Mof_H 	H 	0.6947	0.3675	0.1253	-0.002
Mof_C 	C 	0.7022	0.1738	0.0985	0.13
Mof_H 	H 	0.6439	0.1956	0.1051	-0.04
Mof_C 	C 	0.848	0.1278	0.1237	-0
Mof_H 	H 	0.9153	0.1115	0.1536	0.006
Mof_C 	C 	0.7969	0.1201	0.0395	0.03
Mof_H 	H 	0.8202	0.098	0.9994	0.003
Mof_C 	C 	0.8849	0.7988	0.2295	0.121
Mof_H 	H 	0.9264	0.7866	0.1935	-0.052
Mof_C 	C 	0.8241	0.8496	0.313	0.008
Mof_H 	H 	0.8124	0.8797	0.3479	0.004
Mof_C 	C 	0.7691	0.8007	0.2985	0.004
Mof_H 	H 	0.7126	0.7905	0.3219	0.007
Mof_C 	C 	0.9296	0.8758	0.0402	0.127
Mof_H 	H 	0.9653	0.8405	0.0545	-0.04
Mof_C 	C 	0.8812	0.9609	0.0516	0.02
Mof_H 	H 	0.882	0.002	0.076	-0.003
Mof_C 	C 	0.8303	0.9414	0.9717	-0.02
Mof_H 	H 	0.7804	0.9624	0.9279	0.008
_end
