data_functionalizedCrystal
_audit_creation_method	'EQeq! by Chris Wilmer'
_symmetry_space_group_name_H-M	'P1'
_symmetry_Int_Tables_number	1
_symmetry_cell_setting	triclinic
loop_
_symmetry_equiv_pos_as_xyz
  x,y,z
_cell_length_a	47.005
_cell_length_b	47.005
_cell_length_c	47.005
_cell_angle_alpha	90
_cell_angle_beta	90
_cell_angle_gamma	90
loop_
_atom_site_label
_atom_site_type_symbol
_atom_site_fract_x
_atom_site_fract_y
_atom_site_fract_z
_atom_site_charge
Mof_O 	O 	0.32332	0.13548	0.02922	-0.414
Mof_O 	O 	0.35706	0.10199	0.02935	-0.408
Mof_C 	C 	0.33436	0.11298	0.03836	0.37
Mof_C 	C 	0.31961	0.09804	0.06189	-0.103
Mof_C 	C 	0.29347	0.10735	0.07141	0.01
Mof_H 	H 	0.2845	0.123	0.0622	0.039
Mof_C 	C 	0.2455	0.1023	0.1324	-0.046
Mof_H 	H 	0.2583	0.0927	0.1447	0.045
Mof_C 	C 	0.2197	0.1145	0.1443	-0.037
Mof_H 	H 	0.2164	0.1151	0.1643	0.04
Mof_C 	C 	0.2058	0.1256	0.0968	-0.027
Mof_C 	C 	0.232	0.1153	0.0868	-0.052
Mof_H 	H 	0.192	0.1327	0.0837	0.035
Mof_H 	H 	0.2358	0.1163	0.067	0.046
Mof_O 	O 	0.32332	0.63548	0.52922	-0.413
Mof_O 	O 	0.35706	0.60199	0.52935	-0.409
Mof_C 	C 	0.33436	0.61298	0.53836	0.369
Mof_C 	C 	0.31961	0.59804	0.56189	-0.103
Mof_C 	C 	0.29347	0.60735	0.57141	0.009
Mof_H 	H 	0.2845	0.623	0.5622	0.038
Mof_C 	C 	0.2455	0.6023	0.6324	-0.047
Mof_H 	H 	0.2583	0.5927	0.6447	0.044
Mof_C 	C 	0.2197	0.6145	0.6443	-0.038
Mof_H 	H 	0.2164	0.6151	0.6643	0.039
Mof_C 	C 	0.2058	0.6256	0.5968	-0.028
Mof_C 	C 	0.232	0.6153	0.5868	-0.052
Mof_H 	H 	0.192	0.6327	0.5837	0.035
Mof_H 	H 	0.2358	0.6163	0.567	0.046
Mof_O 	O 	0.82332	0.13548	0.52922	-0.414
Mof_O 	O 	0.85706	0.10199	0.52935	-0.409
Mof_C 	C 	0.83436	0.11298	0.53836	0.369
Mof_C 	C 	0.81961	0.09804	0.56189	-0.103
Mof_C 	C 	0.79347	0.10735	0.57141	0.009
Mof_H 	H 	0.7845	0.123	0.5622	0.038
Mof_C 	C 	0.7455	0.1023	0.6324	-0.047
Mof_H 	H 	0.7583	0.0927	0.6447	0.044
Mof_C 	C 	0.7197	0.1145	0.6443	-0.038
Mof_H 	H 	0.7164	0.1151	0.6643	0.039
Mof_C 	C 	0.7058	0.1256	0.5968	-0.028
Mof_C 	C 	0.732	0.1153	0.5868	-0.053
Mof_H 	H 	0.692	0.1327	0.5837	0.035
Mof_H 	H 	0.7358	0.1163	0.567	0.046
Mof_O 	O 	0.82332	0.63548	0.02922	-0.415
Mof_O 	O 	0.85706	0.60199	0.02935	-0.409
Mof_C 	C 	0.83436	0.61298	0.03836	0.369
Mof_C 	C 	0.81961	0.59804	0.06189	-0.104
Mof_C 	C 	0.79347	0.60735	0.07141	0.009
Mof_H 	H 	0.7845	0.623	0.0622	0.038
Mof_C 	C 	0.7455	0.6023	0.1324	-0.047
Mof_H 	H 	0.7583	0.5927	0.1447	0.044
Mof_C 	C 	0.7197	0.6145	0.1443	-0.038
Mof_H 	H 	0.7164	0.6151	0.1643	0.039
Mof_C 	C 	0.7058	0.6256	0.0968	-0.028
Mof_C 	C 	0.732	0.6153	0.0868	-0.052
Mof_H 	H 	0.692	0.6327	0.0837	0.035
Mof_H 	H 	0.7358	0.6163	0.067	0.045
Mof_O 	O 	0.67668	0.86452	0.02922	-0.414
Mof_O 	O 	0.64294	0.89801	0.02935	-0.409
Mof_C 	C 	0.66564	0.88702	0.03836	0.369
Mof_C 	C 	0.68039	0.90196	0.06189	-0.103
Mof_C 	C 	0.70653	0.89265	0.07141	0.009
Mof_H 	H 	0.7155	0.877	0.0622	0.038
Mof_C 	C 	0.7545	0.8977	0.1324	-0.047
Mof_H 	H 	0.7417	0.9073	0.1447	0.044
Mof_C 	C 	0.7803	0.8855	0.1443	-0.038
Mof_H 	H 	0.7836	0.8849	0.1643	0.039
Mof_C 	C 	0.7942	0.8744	0.0968	-0.028
Mof_C 	C 	0.768	0.8847	0.0868	-0.052
Mof_H 	H 	0.808	0.8673	0.0837	0.035
Mof_H 	H 	0.7642	0.8837	0.067	0.045
Mof_O 	O 	0.67668	0.36452	0.52922	-0.414
Mof_O 	O 	0.64294	0.39801	0.52935	-0.409
Mof_C 	C 	0.66564	0.38702	0.53836	0.369
Mof_C 	C 	0.68039	0.40196	0.56189	-0.103
Mof_C 	C 	0.70653	0.39265	0.57141	0.009
Mof_H 	H 	0.7155	0.377	0.5622	0.038
Mof_C 	C 	0.7545	0.3977	0.6324	-0.047
Mof_H 	H 	0.7417	0.4073	0.6447	0.044
Mof_C 	C 	0.7803	0.3855	0.6443	-0.038
Mof_H 	H 	0.7836	0.3849	0.6643	0.039
Mof_C 	C 	0.7942	0.3744	0.5968	-0.028
Mof_C 	C 	0.768	0.3847	0.5868	-0.052
Mof_H 	H 	0.808	0.3673	0.5837	0.035
Mof_H 	H 	0.7642	0.3837	0.567	0.046
Mof_O 	O 	0.17668	0.86452	0.52922	-0.414
Mof_O 	O 	0.14294	0.89801	0.52935	-0.408
Mof_C 	C 	0.16564	0.88702	0.53836	0.369
Mof_C 	C 	0.18039	0.90196	0.56189	-0.103
Mof_C 	C 	0.20653	0.89265	0.57141	0.009
Mof_H 	H 	0.2155	0.877	0.5622	0.038
Mof_C 	C 	0.2545	0.8977	0.6324	-0.047
Mof_H 	H 	0.2417	0.9073	0.6447	0.044
Mof_C 	C 	0.2803	0.8855	0.6443	-0.038
Mof_H 	H 	0.2836	0.8849	0.6643	0.039
Mof_C 	C 	0.2942	0.8744	0.5968	-0.028
Mof_C 	C 	0.268	0.8847	0.5868	-0.052
Mof_H 	H 	0.308	0.8673	0.5837	0.035
Mof_H 	H 	0.2642	0.8837	0.567	0.046
Mof_O 	O 	0.17668	0.36452	0.02922	-0.415
Mof_O 	O 	0.14294	0.39801	0.02935	-0.409
Mof_C 	C 	0.16564	0.38702	0.03836	0.369
Mof_C 	C 	0.18039	0.40196	0.06189	-0.104
Mof_C 	C 	0.20653	0.39265	0.07141	0.009
Mof_H 	H 	0.2155	0.377	0.0622	0.038
Mof_C 	C 	0.2545	0.3977	0.1324	-0.047
Mof_H 	H 	0.2417	0.4073	0.1447	0.044
Mof_C 	C 	0.2803	0.3855	0.1443	-0.038
Mof_H 	H 	0.2836	0.3849	0.1643	0.039
Mof_C 	C 	0.2942	0.3744	0.0968	-0.028
Mof_C 	C 	0.268	0.3847	0.0868	-0.052
Mof_H 	H 	0.308	0.3673	0.0837	0.035
Mof_H 	H 	0.2642	0.3837	0.067	0.045
Mof_O 	O 	0.67668	0.13548	0.97078	-0.413
Mof_O 	O 	0.64294	0.10199	0.97065	-0.408
Mof_C 	C 	0.66564	0.11298	0.96164	0.369
Mof_C 	C 	0.68039	0.09804	0.93811	-0.103
Mof_C 	C 	0.70653	0.10735	0.92859	0.009
Mof_H 	H 	0.7155	0.123	0.9378	0.039
Mof_C 	C 	0.7545	0.1023	0.8676	-0.047
Mof_H 	H 	0.7417	0.0927	0.8553	0.044
Mof_C 	C 	0.7803	0.1145	0.8557	-0.038
Mof_H 	H 	0.7836	0.1151	0.8357	0.039
Mof_C 	C 	0.7942	0.1256	0.9032	-0.028
Mof_C 	C 	0.768	0.1153	0.9132	-0.053
Mof_H 	H 	0.808	0.1327	0.9163	0.035
Mof_H 	H 	0.7642	0.1163	0.933	0.046
Mof_O 	O 	0.67668	0.63548	0.47078	-0.414
Mof_O 	O 	0.64294	0.60199	0.47065	-0.409
Mof_C 	C 	0.66564	0.61298	0.46164	0.369
Mof_C 	C 	0.68039	0.59804	0.43811	-0.103
Mof_C 	C 	0.70653	0.60735	0.42859	0.009
Mof_H 	H 	0.7155	0.623	0.4378	0.038
Mof_C 	C 	0.7545	0.6023	0.3676	-0.047
Mof_H 	H 	0.7417	0.5927	0.3553	0.044
Mof_C 	C 	0.7803	0.6145	0.3557	-0.038
Mof_H 	H 	0.7836	0.6151	0.3357	0.039
Mof_C 	C 	0.7942	0.6256	0.4032	-0.028
Mof_C 	C 	0.768	0.6153	0.4132	-0.052
Mof_H 	H 	0.808	0.6327	0.4163	0.035
Mof_H 	H 	0.7642	0.6163	0.433	0.046
Mof_O 	O 	0.17668	0.13548	0.47078	-0.414
Mof_O 	O 	0.14294	0.10199	0.47065	-0.409
Mof_C 	C 	0.16564	0.11298	0.46164	0.369
Mof_C 	C 	0.18039	0.09804	0.43811	-0.103
Mof_C 	C 	0.20653	0.10735	0.42859	0.009
Mof_H 	H 	0.2155	0.123	0.4378	0.038
Mof_C 	C 	0.2545	0.1023	0.3676	-0.047
Mof_H 	H 	0.2417	0.0927	0.3553	0.044
Mof_C 	C 	0.2803	0.1145	0.3557	-0.038
Mof_H 	H 	0.2836	0.1151	0.3357	0.039
Mof_C 	C 	0.2942	0.1256	0.4032	-0.028
Mof_C 	C 	0.268	0.1153	0.4132	-0.053
Mof_H 	H 	0.308	0.1327	0.4163	0.035
Mof_H 	H 	0.2642	0.1163	0.433	0.046
Mof_O 	O 	0.17668	0.63548	0.97078	-0.413
Mof_O 	O 	0.14294	0.60199	0.97065	-0.407
Mof_C 	C 	0.16564	0.61298	0.96164	0.369
Mof_C 	C 	0.18039	0.59804	0.93811	-0.103
Mof_C 	C 	0.20653	0.60735	0.92859	0.009
Mof_H 	H 	0.2155	0.623	0.9378	0.039
Mof_C 	C 	0.2545	0.6023	0.8676	-0.047
Mof_H 	H 	0.2417	0.5927	0.8553	0.044
Mof_C 	C 	0.2803	0.6145	0.8557	-0.038
Mof_H 	H 	0.2836	0.6151	0.8357	0.039
Mof_C 	C 	0.2942	0.6256	0.9032	-0.028
Mof_C 	C 	0.268	0.6153	0.9132	-0.052
Mof_H 	H 	0.308	0.6327	0.9163	0.035
Mof_H 	H 	0.2642	0.6163	0.933	0.046
Mof_O 	O 	0.32332	0.86452	0.97078	-0.413
Mof_O 	O 	0.35706	0.89801	0.97065	-0.407
Mof_C 	C 	0.33436	0.88702	0.96164	0.369
Mof_C 	C 	0.31961	0.90196	0.93811	-0.102
Mof_C 	C 	0.29347	0.89265	0.92859	0.008
Mof_H 	H 	0.2845	0.877	0.9378	0.039
Mof_C 	C 	0.2455	0.8977	0.8676	-0.047
Mof_H 	H 	0.2583	0.9073	0.8553	0.044
Mof_C 	C 	0.2197	0.8855	0.8557	-0.038
Mof_H 	H 	0.2164	0.8849	0.8357	0.039
Mof_C 	C 	0.2058	0.8744	0.9032	-0.028
Mof_C 	C 	0.232	0.8847	0.9132	-0.052
Mof_H 	H 	0.192	0.8673	0.9163	0.035
Mof_H 	H 	0.2358	0.8837	0.933	0.046
Mof_O 	O 	0.32332	0.36452	0.47078	-0.414
Mof_O 	O 	0.35706	0.39801	0.47065	-0.409
Mof_C 	C 	0.33436	0.38702	0.46164	0.369
Mof_C 	C 	0.31961	0.40196	0.43811	-0.103
Mof_C 	C 	0.29347	0.39265	0.42859	0.009
Mof_H 	H 	0.2845	0.377	0.4378	0.038
Mof_C 	C 	0.2455	0.3977	0.3676	-0.047
Mof_H 	H 	0.2583	0.4073	0.3553	0.044
Mof_C 	C 	0.2197	0.3855	0.3557	-0.038
Mof_H 	H 	0.2164	0.3849	0.3357	0.039
Mof_C 	C 	0.2058	0.3744	0.4032	-0.028
Mof_C 	C 	0.232	0.3847	0.4132	-0.052
Mof_H 	H 	0.192	0.3673	0.4163	0.035
Mof_H 	H 	0.2358	0.3837	0.433	0.046
Mof_O 	O 	0.82332	0.86452	0.47078	-0.414
Mof_O 	O 	0.85706	0.89801	0.47065	-0.408
Mof_C 	C 	0.83436	0.88702	0.46164	0.369
Mof_C 	C 	0.81961	0.90196	0.43811	-0.103
Mof_C 	C 	0.79347	0.89265	0.42859	0.009
Mof_H 	H 	0.7845	0.877	0.4378	0.038
Mof_C 	C 	0.7455	0.8977	0.3676	-0.047
Mof_H 	H 	0.7583	0.9073	0.3553	0.044
Mof_C 	C 	0.7197	0.8855	0.3557	-0.038
Mof_H 	H 	0.7164	0.8849	0.3357	0.039
Mof_C 	C 	0.7058	0.8744	0.4032	-0.028
Mof_C 	C 	0.732	0.8847	0.4132	-0.052
Mof_H 	H 	0.692	0.8673	0.4163	0.035
Mof_H 	H 	0.7358	0.8837	0.433	0.046
Mof_O 	O 	0.82332	0.36452	0.97078	-0.413
Mof_O 	O 	0.85706	0.39801	0.97065	-0.407
Mof_C 	C 	0.83436	0.38702	0.96164	0.369
Mof_C 	C 	0.81961	0.40196	0.93811	-0.103
Mof_C 	C 	0.79347	0.39265	0.92859	0.008
Mof_H 	H 	0.7845	0.377	0.9378	0.039
Mof_C 	C 	0.7455	0.3977	0.8676	-0.047
Mof_H 	H 	0.7583	0.4073	0.8553	0.044
Mof_C 	C 	0.7197	0.3855	0.8557	-0.038
Mof_H 	H 	0.7164	0.3849	0.8357	0.039
Mof_C 	C 	0.7058	0.3744	0.9032	-0.028
Mof_C 	C 	0.732	0.3847	0.9132	-0.052
Mof_H 	H 	0.692	0.3673	0.9163	0.035
Mof_H 	H 	0.7358	0.3837	0.933	0.046
Mof_O 	O 	0.02922	0.32332	0.13548	-0.415
Mof_O 	O 	0.02935	0.35706	0.10199	-0.409
Mof_C 	C 	0.03836	0.33436	0.11298	0.369
Mof_C 	C 	0.06189	0.31961	0.09804	-0.104
Mof_C 	C 	0.07141	0.29347	0.10735	0.009
Mof_H 	H 	0.0622	0.2845	0.123	0.038
Mof_C 	C 	0.1324	0.2455	0.1023	-0.047
Mof_H 	H 	0.1447	0.2583	0.0927	0.044
Mof_C 	C 	0.1443	0.2197	0.1145	-0.038
Mof_H 	H 	0.1643	0.2164	0.1151	0.039
Mof_C 	C 	0.0968	0.2058	0.1256	-0.028
Mof_C 	C 	0.0868	0.232	0.1153	-0.053
Mof_H 	H 	0.0837	0.192	0.1327	0.034
Mof_H 	H 	0.067	0.2358	0.1163	0.045
Mof_O 	O 	0.02922	0.82332	0.63548	-0.415
Mof_O 	O 	0.02935	0.85706	0.60199	-0.409
Mof_C 	C 	0.03836	0.83436	0.61298	0.369
Mof_C 	C 	0.06189	0.81961	0.59804	-0.104
Mof_C 	C 	0.07141	0.79347	0.60735	0.009
Mof_H 	H 	0.0622	0.7845	0.623	0.038
Mof_C 	C 	0.1324	0.7455	0.6023	-0.047
Mof_H 	H 	0.1447	0.7583	0.5927	0.044
Mof_C 	C 	0.1443	0.7197	0.6145	-0.038
Mof_H 	H 	0.1643	0.7164	0.6151	0.039
Mof_C 	C 	0.0968	0.7058	0.6256	-0.028
Mof_C 	C 	0.0868	0.732	0.6153	-0.052
Mof_H 	H 	0.0837	0.692	0.6327	0.035
Mof_H 	H 	0.067	0.7358	0.6163	0.045
Mof_O 	O 	0.52922	0.32332	0.63548	-0.414
Mof_O 	O 	0.52935	0.35706	0.60199	-0.409
Mof_C 	C 	0.53836	0.33436	0.61298	0.369
Mof_C 	C 	0.56189	0.31961	0.59804	-0.103
Mof_C 	C 	0.57141	0.29347	0.60735	0.009
Mof_H 	H 	0.5622	0.2845	0.623	0.038
Mof_C 	C 	0.6324	0.2455	0.6023	-0.047
Mof_H 	H 	0.6447	0.2583	0.5927	0.044
Mof_C 	C 	0.6443	0.2197	0.6145	-0.038
Mof_H 	H 	0.6643	0.2164	0.6151	0.039
Mof_C 	C 	0.5968	0.2058	0.6256	-0.028
Mof_C 	C 	0.5868	0.232	0.6153	-0.052
Mof_H 	H 	0.5837	0.192	0.6327	0.035
Mof_H 	H 	0.567	0.2358	0.6163	0.046
Mof_O 	O 	0.52922	0.82332	0.13548	-0.414
Mof_O 	O 	0.52935	0.85706	0.10199	-0.409
Mof_C 	C 	0.53836	0.83436	0.11298	0.369
Mof_C 	C 	0.56189	0.81961	0.09804	-0.103
Mof_C 	C 	0.57141	0.79347	0.10735	0.009
Mof_H 	H 	0.5622	0.7845	0.123	0.038
Mof_C 	C 	0.6324	0.7455	0.1023	-0.047
Mof_H 	H 	0.6447	0.7583	0.0927	0.044
Mof_C 	C 	0.6443	0.7197	0.1145	-0.038
Mof_H 	H 	0.6643	0.7164	0.1151	0.039
Mof_C 	C 	0.5968	0.7058	0.1256	-0.028
Mof_C 	C 	0.5868	0.732	0.1153	-0.053
Mof_H 	H 	0.5837	0.692	0.1327	0.035
Mof_H 	H 	0.567	0.7358	0.1163	0.046
Mof_O 	O 	0.02922	0.67668	0.86452	-0.414
Mof_O 	O 	0.02935	0.64294	0.89801	-0.409
Mof_C 	C 	0.03836	0.66564	0.88702	0.369
Mof_C 	C 	0.06189	0.68039	0.90196	-0.103
Mof_C 	C 	0.07141	0.70653	0.89265	0.009
Mof_H 	H 	0.0622	0.7155	0.877	0.038
Mof_C 	C 	0.1324	0.7545	0.8977	-0.047
Mof_H 	H 	0.1447	0.7417	0.9073	0.044
Mof_C 	C 	0.1443	0.7803	0.8855	-0.038
Mof_H 	H 	0.1643	0.7836	0.8849	0.039
Mof_C 	C 	0.0968	0.7942	0.8744	-0.028
Mof_C 	C 	0.0868	0.768	0.8847	-0.052
Mof_H 	H 	0.0837	0.808	0.8673	0.035
Mof_H 	H 	0.067	0.7642	0.8837	0.045
Mof_O 	O 	0.02922	0.17668	0.36452	-0.415
Mof_O 	O 	0.02935	0.14294	0.39801	-0.409
Mof_C 	C 	0.03836	0.16564	0.38702	0.369
Mof_C 	C 	0.06189	0.18039	0.40196	-0.104
Mof_C 	C 	0.07141	0.20653	0.39265	0.009
Mof_H 	H 	0.0622	0.2155	0.377	0.038
Mof_C 	C 	0.1324	0.2545	0.3977	-0.047
Mof_H 	H 	0.1447	0.2417	0.4073	0.044
Mof_C 	C 	0.1443	0.2803	0.3855	-0.038
Mof_H 	H 	0.1643	0.2836	0.3849	0.039
Mof_C 	C 	0.0968	0.2942	0.3744	-0.028
Mof_C 	C 	0.0868	0.268	0.3847	-0.052
Mof_H 	H 	0.0837	0.308	0.3673	0.035
Mof_H 	H 	0.067	0.2642	0.3837	0.045
Mof_O 	O 	0.52922	0.67668	0.36452	-0.414
Mof_O 	O 	0.52935	0.64294	0.39801	-0.409
Mof_C 	C 	0.53836	0.66564	0.38702	0.369
Mof_C 	C 	0.56189	0.68039	0.40196	-0.103
Mof_C 	C 	0.57141	0.70653	0.39265	0.009
Mof_H 	H 	0.5622	0.7155	0.377	0.038
Mof_C 	C 	0.6324	0.7545	0.3977	-0.047
Mof_H 	H 	0.6447	0.7417	0.4073	0.044
Mof_C 	C 	0.6443	0.7803	0.3855	-0.038
Mof_H 	H 	0.6643	0.7836	0.3849	0.039
Mof_C 	C 	0.5968	0.7942	0.3744	-0.028
Mof_C 	C 	0.5868	0.768	0.3847	-0.052
Mof_H 	H 	0.5837	0.808	0.3673	0.035
Mof_H 	H 	0.567	0.7642	0.3837	0.046
Mof_O 	O 	0.52922	0.17668	0.86452	-0.414
Mof_O 	O 	0.52935	0.14294	0.89801	-0.408
Mof_C 	C 	0.53836	0.16564	0.88702	0.369
Mof_C 	C 	0.56189	0.18039	0.90196	-0.103
Mof_C 	C 	0.57141	0.20653	0.89265	0.009
Mof_H 	H 	0.5622	0.2155	0.877	0.038
Mof_C 	C 	0.6324	0.2545	0.8977	-0.047
Mof_H 	H 	0.6447	0.2417	0.9073	0.044
Mof_C 	C 	0.6443	0.2803	0.8855	-0.038
Mof_H 	H 	0.6643	0.2836	0.8849	0.039
Mof_C 	C 	0.5968	0.2942	0.8744	-0.028
Mof_C 	C 	0.5868	0.268	0.8847	-0.052
Mof_H 	H 	0.5837	0.308	0.8673	0.035
Mof_H 	H 	0.567	0.2642	0.8837	0.046
Mof_O 	O 	0.97078	0.67668	0.13548	-0.413
Mof_O 	O 	0.97065	0.64294	0.10199	-0.408
Mof_C 	C 	0.96164	0.66564	0.11298	0.369
Mof_C 	C 	0.93811	0.68039	0.09804	-0.103
Mof_C 	C 	0.92859	0.70653	0.10735	0.009
Mof_H 	H 	0.9378	0.7155	0.123	0.039
Mof_C 	C 	0.8676	0.7545	0.1023	-0.047
Mof_H 	H 	0.8553	0.7417	0.0927	0.044
Mof_C 	C 	0.8557	0.7803	0.1145	-0.038
Mof_H 	H 	0.8357	0.7836	0.1151	0.039
Mof_C 	C 	0.9032	0.7942	0.1256	-0.028
Mof_C 	C 	0.9132	0.768	0.1153	-0.053
Mof_H 	H 	0.9163	0.808	0.1327	0.035
Mof_H 	H 	0.933	0.7642	0.1163	0.046
Mof_O 	O 	0.97078	0.17668	0.63548	-0.413
Mof_O 	O 	0.97065	0.14294	0.60199	-0.407
Mof_C 	C 	0.96164	0.16564	0.61298	0.369
Mof_C 	C 	0.93811	0.18039	0.59804	-0.103
Mof_C 	C 	0.92859	0.20653	0.60735	0.009
Mof_H 	H 	0.9378	0.2155	0.623	0.039
Mof_C 	C 	0.8676	0.2545	0.6023	-0.047
Mof_H 	H 	0.8553	0.2417	0.5927	0.044
Mof_C 	C 	0.8557	0.2803	0.6145	-0.038
Mof_H 	H 	0.8357	0.2836	0.6151	0.039
Mof_C 	C 	0.9032	0.2942	0.6256	-0.028
Mof_C 	C 	0.9132	0.268	0.6153	-0.052
Mof_H 	H 	0.9163	0.308	0.6327	0.035
Mof_H 	H 	0.933	0.2642	0.6163	0.046
Mof_O 	O 	0.47078	0.67668	0.63548	-0.414
Mof_O 	O 	0.47065	0.64294	0.60199	-0.409
Mof_C 	C 	0.46164	0.66564	0.61298	0.369
Mof_C 	C 	0.43811	0.68039	0.59804	-0.103
Mof_C 	C 	0.42859	0.70653	0.60735	0.009
Mof_H 	H 	0.4378	0.7155	0.623	0.038
Mof_C 	C 	0.3676	0.7545	0.6023	-0.047
Mof_H 	H 	0.3553	0.7417	0.5927	0.044
Mof_C 	C 	0.3557	0.7803	0.6145	-0.038
Mof_H 	H 	0.3357	0.7836	0.6151	0.039
Mof_C 	C 	0.4032	0.7942	0.6256	-0.028
Mof_C 	C 	0.4132	0.768	0.6153	-0.052
Mof_H 	H 	0.4163	0.808	0.6327	0.035
Mof_H 	H 	0.433	0.7642	0.6163	0.046
Mof_O 	O 	0.47078	0.17668	0.13548	-0.414
Mof_O 	O 	0.47065	0.14294	0.10199	-0.409
Mof_C 	C 	0.46164	0.16564	0.11298	0.369
Mof_C 	C 	0.43811	0.18039	0.09804	-0.103
Mof_C 	C 	0.42859	0.20653	0.10735	0.009
Mof_H 	H 	0.4378	0.2155	0.123	0.038
Mof_C 	C 	0.3676	0.2545	0.1023	-0.047
Mof_H 	H 	0.3553	0.2417	0.0927	0.044
Mof_C 	C 	0.3557	0.2803	0.1145	-0.038
Mof_H 	H 	0.3357	0.2836	0.1151	0.039
Mof_C 	C 	0.4032	0.2942	0.1256	-0.028
Mof_C 	C 	0.4132	0.268	0.1153	-0.053
Mof_H 	H 	0.4163	0.308	0.1327	0.035
Mof_H 	H 	0.433	0.2642	0.1163	0.046
Mof_O 	O 	0.97078	0.32332	0.86452	-0.413
Mof_O 	O 	0.97065	0.35706	0.89801	-0.407
Mof_C 	C 	0.96164	0.33436	0.88702	0.369
Mof_C 	C 	0.93811	0.31961	0.90196	-0.102
Mof_C 	C 	0.92859	0.29347	0.89265	0.008
Mof_H 	H 	0.9378	0.2845	0.877	0.039
Mof_C 	C 	0.8676	0.2455	0.8977	-0.047
Mof_H 	H 	0.8553	0.2583	0.9073	0.044
Mof_C 	C 	0.8557	0.2197	0.8855	-0.038
Mof_H 	H 	0.8357	0.2164	0.8849	0.039
Mof_C 	C 	0.9032	0.2058	0.8744	-0.028
Mof_C 	C 	0.9132	0.232	0.8847	-0.052
Mof_H 	H 	0.9163	0.192	0.8673	0.035
Mof_H 	H 	0.933	0.2358	0.8837	0.046
Mof_O 	O 	0.97078	0.82332	0.36452	-0.413
Mof_O 	O 	0.97065	0.85706	0.39801	-0.407
Mof_C 	C 	0.96164	0.83436	0.38702	0.369
Mof_C 	C 	0.93811	0.81961	0.40196	-0.103
Mof_C 	C 	0.92859	0.79347	0.39265	0.008
Mof_H 	H 	0.9378	0.7845	0.377	0.039
Mof_C 	C 	0.8676	0.7455	0.3977	-0.047
Mof_H 	H 	0.8553	0.7583	0.4073	0.044
Mof_C 	C 	0.8557	0.7197	0.3855	-0.038
Mof_H 	H 	0.8357	0.7164	0.3849	0.039
Mof_C 	C 	0.9032	0.7058	0.3744	-0.028
Mof_C 	C 	0.9132	0.732	0.3847	-0.052
Mof_H 	H 	0.9163	0.692	0.3673	0.035
Mof_H 	H 	0.933	0.7358	0.3837	0.046
Mof_O 	O 	0.47078	0.32332	0.36452	-0.414
Mof_O 	O 	0.47065	0.35706	0.39801	-0.409
Mof_C 	C 	0.46164	0.33436	0.38702	0.369
Mof_C 	C 	0.43811	0.31961	0.40196	-0.103
Mof_C 	C 	0.42859	0.29347	0.39265	0.009
Mof_H 	H 	0.4378	0.2845	0.377	0.038
Mof_C 	C 	0.3676	0.2455	0.3977	-0.047
Mof_H 	H 	0.3553	0.2583	0.4073	0.044
Mof_C 	C 	0.3557	0.2197	0.3855	-0.038
Mof_H 	H 	0.3357	0.2164	0.3849	0.039
Mof_C 	C 	0.4032	0.2058	0.3744	-0.028
Mof_C 	C 	0.4132	0.232	0.3847	-0.052
Mof_H 	H 	0.4163	0.192	0.3673	0.035
Mof_H 	H 	0.433	0.2358	0.3837	0.046
Mof_O 	O 	0.47078	0.82332	0.86452	-0.414
Mof_O 	O 	0.47065	0.85706	0.89801	-0.408
Mof_C 	C 	0.46164	0.83436	0.88702	0.369
Mof_C 	C 	0.43811	0.81961	0.90196	-0.103
Mof_C 	C 	0.42859	0.79347	0.89265	0.009
Mof_H 	H 	0.4378	0.7845	0.877	0.038
Mof_C 	C 	0.3676	0.7455	0.8977	-0.047
Mof_H 	H 	0.3553	0.7583	0.9073	0.044
Mof_C 	C 	0.3557	0.7197	0.8855	-0.038
Mof_H 	H 	0.3357	0.7164	0.8849	0.039
Mof_C 	C 	0.4032	0.7058	0.8744	-0.028
Mof_C 	C 	0.4132	0.732	0.8847	-0.052
Mof_H 	H 	0.4163	0.692	0.8673	0.035
Mof_H 	H 	0.433	0.7358	0.8837	0.046
Mof_O 	O 	0.13548	0.02922	0.32332	-0.415
Mof_O 	O 	0.10199	0.02935	0.35706	-0.409
Mof_C 	C 	0.11298	0.03836	0.33436	0.369
Mof_C 	C 	0.09804	0.06189	0.31961	-0.104
Mof_C 	C 	0.10735	0.07141	0.29347	0.009
Mof_H 	H 	0.123	0.0622	0.2845	0.038
Mof_C 	C 	0.1023	0.1324	0.2455	-0.047
Mof_H 	H 	0.0927	0.1447	0.2583	0.044
Mof_C 	C 	0.1145	0.1443	0.2197	-0.038
Mof_H 	H 	0.1151	0.1643	0.2164	0.039
Mof_C 	C 	0.1256	0.0968	0.2058	-0.028
Mof_C 	C 	0.1153	0.0868	0.232	-0.053
Mof_H 	H 	0.1327	0.0837	0.192	0.034
Mof_H 	H 	0.1163	0.067	0.2358	0.045
Mof_O 	O 	0.13548	0.52922	0.82332	-0.414
Mof_O 	O 	0.10199	0.52935	0.85706	-0.409
Mof_C 	C 	0.11298	0.53836	0.83436	0.369
Mof_C 	C 	0.09804	0.56189	0.81961	-0.103
Mof_C 	C 	0.10735	0.57141	0.79347	0.009
Mof_H 	H 	0.123	0.5622	0.7845	0.038
Mof_C 	C 	0.1023	0.6324	0.7455	-0.047
Mof_H 	H 	0.0927	0.6447	0.7583	0.044
Mof_C 	C 	0.1145	0.6443	0.7197	-0.038
Mof_H 	H 	0.1151	0.6643	0.7164	0.039
Mof_C 	C 	0.1256	0.5968	0.7058	-0.028
Mof_C 	C 	0.1153	0.5868	0.732	-0.053
Mof_H 	H 	0.1327	0.5837	0.692	0.035
Mof_H 	H 	0.1163	0.567	0.7358	0.046
Mof_O 	O 	0.63548	0.02922	0.82332	-0.415
Mof_O 	O 	0.60199	0.02935	0.85706	-0.409
Mof_C 	C 	0.61298	0.03836	0.83436	0.369
Mof_C 	C 	0.59804	0.06189	0.81961	-0.104
Mof_C 	C 	0.60735	0.07141	0.79347	0.009
Mof_H 	H 	0.623	0.0622	0.7845	0.038
Mof_C 	C 	0.6023	0.1324	0.7455	-0.047
Mof_H 	H 	0.5927	0.1447	0.7583	0.044
Mof_C 	C 	0.6145	0.1443	0.7197	-0.038
Mof_H 	H 	0.6151	0.1643	0.7164	0.039
Mof_C 	C 	0.6256	0.0968	0.7058	-0.028
Mof_C 	C 	0.6153	0.0868	0.732	-0.052
Mof_H 	H 	0.6327	0.0837	0.692	0.035
Mof_H 	H 	0.6163	0.067	0.7358	0.045
Mof_O 	O 	0.63548	0.52922	0.32332	-0.414
Mof_O 	O 	0.60199	0.52935	0.35706	-0.409
Mof_C 	C 	0.61298	0.53836	0.33436	0.369
Mof_C 	C 	0.59804	0.56189	0.31961	-0.103
Mof_C 	C 	0.60735	0.57141	0.29347	0.009
Mof_H 	H 	0.623	0.5622	0.2845	0.038
Mof_C 	C 	0.6023	0.6324	0.2455	-0.047
Mof_H 	H 	0.5927	0.6447	0.2583	0.044
Mof_C 	C 	0.6145	0.6443	0.2197	-0.038
Mof_H 	H 	0.6151	0.6643	0.2164	0.039
Mof_C 	C 	0.6256	0.5968	0.2058	-0.028
Mof_C 	C 	0.6153	0.5868	0.232	-0.052
Mof_H 	H 	0.6327	0.5837	0.192	0.035
Mof_H 	H 	0.6163	0.567	0.2358	0.046
Mof_O 	O 	0.86452	0.02922	0.67668	-0.414
Mof_O 	O 	0.89801	0.02935	0.64294	-0.409
Mof_C 	C 	0.88702	0.03836	0.66564	0.369
Mof_C 	C 	0.90196	0.06189	0.68039	-0.103
Mof_C 	C 	0.89265	0.07141	0.70653	0.009
Mof_H 	H 	0.877	0.0622	0.7155	0.038
Mof_C 	C 	0.8977	0.1324	0.7545	-0.047
Mof_H 	H 	0.9073	0.1447	0.7417	0.044
Mof_C 	C 	0.8855	0.1443	0.7803	-0.038
Mof_H 	H 	0.8849	0.1643	0.7836	0.039
Mof_C 	C 	0.8744	0.0968	0.7942	-0.028
Mof_C 	C 	0.8847	0.0868	0.768	-0.052
Mof_H 	H 	0.8673	0.0837	0.808	0.035
Mof_H 	H 	0.8837	0.067	0.7642	0.045
Mof_O 	O 	0.86452	0.52922	0.17668	-0.414
Mof_O 	O 	0.89801	0.52935	0.14294	-0.408
Mof_C 	C 	0.88702	0.53836	0.16564	0.369
Mof_C 	C 	0.90196	0.56189	0.18039	-0.103
Mof_C 	C 	0.89265	0.57141	0.20653	0.009
Mof_H 	H 	0.877	0.5622	0.2155	0.038
Mof_C 	C 	0.8977	0.6324	0.2545	-0.047
Mof_H 	H 	0.9073	0.6447	0.2417	0.044
Mof_C 	C 	0.8855	0.6443	0.2803	-0.038
Mof_H 	H 	0.8849	0.6643	0.2836	0.039
Mof_C 	C 	0.8744	0.5968	0.2942	-0.028
Mof_C 	C 	0.8847	0.5868	0.268	-0.052
Mof_H 	H 	0.8673	0.5837	0.308	0.035
Mof_H 	H 	0.8837	0.567	0.2642	0.046
Mof_O 	O 	0.36452	0.02922	0.17668	-0.415
Mof_O 	O 	0.39801	0.02935	0.14294	-0.409
Mof_C 	C 	0.38702	0.03836	0.16564	0.369
Mof_C 	C 	0.40196	0.06189	0.18039	-0.104
Mof_C 	C 	0.39265	0.07141	0.20653	0.009
Mof_H 	H 	0.377	0.0622	0.2155	0.038
Mof_C 	C 	0.3977	0.1324	0.2545	-0.047
Mof_H 	H 	0.4073	0.1447	0.2417	0.044
Mof_C 	C 	0.3855	0.1443	0.2803	-0.038
Mof_H 	H 	0.3849	0.1643	0.2836	0.039
Mof_C 	C 	0.3744	0.0968	0.2942	-0.028
Mof_C 	C 	0.3847	0.0868	0.268	-0.052
Mof_H 	H 	0.3673	0.0837	0.308	0.035
Mof_H 	H 	0.3837	0.067	0.2642	0.045
Mof_O 	O 	0.36452	0.52922	0.67668	-0.414
Mof_O 	O 	0.39801	0.52935	0.64294	-0.409
Mof_C 	C 	0.38702	0.53836	0.66564	0.369
Mof_C 	C 	0.40196	0.56189	0.68039	-0.103
Mof_C 	C 	0.39265	0.57141	0.70653	0.009
Mof_H 	H 	0.377	0.5622	0.7155	0.038
Mof_C 	C 	0.3977	0.6324	0.7545	-0.047
Mof_H 	H 	0.4073	0.6447	0.7417	0.044
Mof_C 	C 	0.3855	0.6443	0.7803	-0.038
Mof_H 	H 	0.3849	0.6643	0.7836	0.039
Mof_C 	C 	0.3744	0.5968	0.7942	-0.028
Mof_C 	C 	0.3847	0.5868	0.768	-0.052
Mof_H 	H 	0.3673	0.5837	0.808	0.035
Mof_H 	H 	0.3837	0.567	0.7642	0.046
Mof_O 	O 	0.13548	0.97078	0.67668	-0.413
Mof_O 	O 	0.10199	0.97065	0.64294	-0.408
Mof_C 	C 	0.11298	0.96164	0.66564	0.369
Mof_C 	C 	0.09804	0.93811	0.68039	-0.103
Mof_C 	C 	0.10735	0.92859	0.70653	0.009
Mof_H 	H 	0.123	0.9378	0.7155	0.039
Mof_C 	C 	0.1023	0.8676	0.7545	-0.047
Mof_H 	H 	0.0927	0.8553	0.7417	0.044
Mof_C 	C 	0.1145	0.8557	0.7803	-0.038
Mof_H 	H 	0.1151	0.8357	0.7836	0.039
Mof_C 	C 	0.1256	0.9032	0.7942	-0.028
Mof_C 	C 	0.1153	0.9132	0.768	-0.053
Mof_H 	H 	0.1327	0.9163	0.808	0.035
Mof_H 	H 	0.1163	0.933	0.7642	0.046
Mof_O 	O 	0.13548	0.47078	0.17668	-0.414
Mof_O 	O 	0.10199	0.47065	0.14294	-0.409
Mof_C 	C 	0.11298	0.46164	0.16564	0.369
Mof_C 	C 	0.09804	0.43811	0.18039	-0.103
Mof_C 	C 	0.10735	0.42859	0.20653	0.009
Mof_H 	H 	0.123	0.4378	0.2155	0.038
Mof_C 	C 	0.1023	0.3676	0.2545	-0.047
Mof_H 	H 	0.0927	0.3553	0.2417	0.044
Mof_C 	C 	0.1145	0.3557	0.2803	-0.038
Mof_H 	H 	0.1151	0.3357	0.2836	0.039
Mof_C 	C 	0.1256	0.4032	0.2942	-0.028
Mof_C 	C 	0.1153	0.4132	0.268	-0.053
Mof_H 	H 	0.1327	0.4163	0.308	0.035
Mof_H 	H 	0.1163	0.433	0.2642	0.046
Mof_O 	O 	0.63548	0.97078	0.17668	-0.413
Mof_O 	O 	0.60199	0.97065	0.14294	-0.407
Mof_C 	C 	0.61298	0.96164	0.16564	0.369
Mof_C 	C 	0.59804	0.93811	0.18039	-0.103
Mof_C 	C 	0.60735	0.92859	0.20653	0.009
Mof_H 	H 	0.623	0.9378	0.2155	0.039
Mof_C 	C 	0.6023	0.8676	0.2545	-0.047
Mof_H 	H 	0.5927	0.8553	0.2417	0.044
Mof_C 	C 	0.6145	0.8557	0.2803	-0.038
Mof_H 	H 	0.6151	0.8357	0.2836	0.039
Mof_C 	C 	0.6256	0.9032	0.2942	-0.028
Mof_C 	C 	0.6153	0.9132	0.268	-0.052
Mof_H 	H 	0.6327	0.9163	0.308	0.035
Mof_H 	H 	0.6163	0.933	0.2642	0.046
Mof_O 	O 	0.63548	0.47078	0.67668	-0.414
Mof_O 	O 	0.60199	0.47065	0.64294	-0.409
Mof_C 	C 	0.61298	0.46164	0.66564	0.369
Mof_C 	C 	0.59804	0.43811	0.68039	-0.103
Mof_C 	C 	0.60735	0.42859	0.70653	0.009
Mof_H 	H 	0.623	0.4378	0.7155	0.038
Mof_C 	C 	0.6023	0.3676	0.7545	-0.047
Mof_H 	H 	0.5927	0.3553	0.7417	0.044
Mof_C 	C 	0.6145	0.3557	0.7803	-0.038
Mof_H 	H 	0.6151	0.3357	0.7836	0.039
Mof_C 	C 	0.6256	0.4032	0.7942	-0.028
Mof_C 	C 	0.6153	0.4132	0.768	-0.052
Mof_H 	H 	0.6327	0.4163	0.808	0.035
Mof_H 	H 	0.6163	0.433	0.7642	0.046
Mof_O 	O 	0.86452	0.97078	0.32332	-0.413
Mof_O 	O 	0.89801	0.97065	0.35706	-0.407
Mof_C 	C 	0.88702	0.96164	0.33436	0.369
Mof_C 	C 	0.90196	0.93811	0.31961	-0.102
Mof_C 	C 	0.89265	0.92859	0.29347	0.008
Mof_H 	H 	0.877	0.9378	0.2845	0.039
Mof_C 	C 	0.8977	0.8676	0.2455	-0.047
Mof_H 	H 	0.9073	0.8553	0.2583	0.044
Mof_C 	C 	0.8855	0.8557	0.2197	-0.038
Mof_H 	H 	0.8849	0.8357	0.2164	0.039
Mof_C 	C 	0.8744	0.9032	0.2058	-0.028
Mof_C 	C 	0.8847	0.9132	0.232	-0.052
Mof_H 	H 	0.8673	0.9163	0.192	0.035
Mof_H 	H 	0.8837	0.933	0.2358	0.046
Mof_O 	O 	0.86452	0.47078	0.82332	-0.414
Mof_O 	O 	0.89801	0.47065	0.85706	-0.408
Mof_C 	C 	0.88702	0.46164	0.83436	0.369
Mof_C 	C 	0.90196	0.43811	0.81961	-0.103
Mof_C 	C 	0.89265	0.42859	0.79347	0.009
Mof_H 	H 	0.877	0.4378	0.7845	0.038
Mof_C 	C 	0.8977	0.3676	0.7455	-0.047
Mof_H 	H 	0.9073	0.3553	0.7583	0.044
Mof_C 	C 	0.8855	0.3557	0.7197	-0.038
Mof_H 	H 	0.8849	0.3357	0.7164	0.039
Mof_C 	C 	0.8744	0.4032	0.7058	-0.028
Mof_C 	C 	0.8847	0.4132	0.732	-0.052
Mof_H 	H 	0.8673	0.4163	0.692	0.035
Mof_H 	H 	0.8837	0.433	0.7358	0.046
Mof_O 	O 	0.36452	0.97078	0.82332	-0.413
Mof_O 	O 	0.39801	0.97065	0.85706	-0.407
Mof_C 	C 	0.38702	0.96164	0.83436	0.369
Mof_C 	C 	0.40196	0.93811	0.81961	-0.103
Mof_C 	C 	0.39265	0.92859	0.79347	0.008
Mof_H 	H 	0.377	0.9378	0.7845	0.039
Mof_C 	C 	0.3977	0.8676	0.7455	-0.047
Mof_H 	H 	0.4073	0.8553	0.7583	0.044
Mof_C 	C 	0.3855	0.8557	0.7197	-0.038
Mof_H 	H 	0.3849	0.8357	0.7164	0.039
Mof_C 	C 	0.3744	0.9032	0.7058	-0.028
Mof_C 	C 	0.3847	0.9132	0.732	-0.052
Mof_H 	H 	0.3673	0.9163	0.692	0.035
Mof_H 	H 	0.3837	0.933	0.7358	0.046
Mof_O 	O 	0.36452	0.47078	0.32332	-0.414
Mof_O 	O 	0.39801	0.47065	0.35706	-0.409
Mof_C 	C 	0.38702	0.46164	0.33436	0.369
Mof_C 	C 	0.40196	0.43811	0.31961	-0.103
Mof_C 	C 	0.39265	0.42859	0.29347	0.009
Mof_H 	H 	0.377	0.4378	0.2845	0.038
Mof_C 	C 	0.3977	0.3676	0.2455	-0.047
Mof_H 	H 	0.4073	0.3553	0.2583	0.044
Mof_C 	C 	0.3855	0.3557	0.2197	-0.038
Mof_H 	H 	0.3849	0.3357	0.2164	0.039
Mof_C 	C 	0.3744	0.4032	0.2058	-0.028
Mof_C 	C 	0.3847	0.4132	0.232	-0.052
Mof_H 	H 	0.3673	0.4163	0.192	0.035
Mof_H 	H 	0.3837	0.433	0.2358	0.046
Mof_O 	O 	0.13548	0.32332	0.97078	-0.413
Mof_O 	O 	0.10199	0.35706	0.97065	-0.408
Mof_C 	C 	0.11298	0.33436	0.96164	0.369
Mof_C 	C 	0.09804	0.31961	0.93811	-0.103
Mof_C 	C 	0.10735	0.29347	0.92859	0.009
Mof_H 	H 	0.123	0.2845	0.9378	0.039
Mof_C 	C 	0.1023	0.2455	0.8676	-0.047
Mof_H 	H 	0.0927	0.2583	0.8553	0.044
Mof_C 	C 	0.1145	0.2197	0.8557	-0.038
Mof_H 	H 	0.1151	0.2164	0.8357	0.039
Mof_C 	C 	0.1256	0.2058	0.9032	-0.028
Mof_C 	C 	0.1153	0.232	0.9132	-0.053
Mof_H 	H 	0.1327	0.192	0.9163	0.035
Mof_H 	H 	0.1163	0.2358	0.933	0.046
Mof_O 	O 	0.13548	0.82332	0.47078	-0.414
Mof_O 	O 	0.10199	0.85706	0.47065	-0.409
Mof_C 	C 	0.11298	0.83436	0.46164	0.369
Mof_C 	C 	0.09804	0.81961	0.43811	-0.103
Mof_C 	C 	0.10735	0.79347	0.42859	0.009
Mof_H 	H 	0.123	0.7845	0.4378	0.038
Mof_C 	C 	0.1023	0.7455	0.3676	-0.047
Mof_H 	H 	0.0927	0.7583	0.3553	0.044
Mof_C 	C 	0.1145	0.7197	0.3557	-0.038
Mof_H 	H 	0.1151	0.7164	0.3357	0.039
Mof_C 	C 	0.1256	0.7058	0.4032	-0.028
Mof_C 	C 	0.1153	0.732	0.4132	-0.053
Mof_H 	H 	0.1327	0.692	0.4163	0.035
Mof_H 	H 	0.1163	0.7358	0.433	0.046
Mof_O 	O 	0.63548	0.32332	0.47078	-0.414
Mof_O 	O 	0.60199	0.35706	0.47065	-0.409
Mof_C 	C 	0.61298	0.33436	0.46164	0.369
Mof_C 	C 	0.59804	0.31961	0.43811	-0.103
Mof_C 	C 	0.60735	0.29347	0.42859	0.009
Mof_H 	H 	0.623	0.2845	0.4378	0.038
Mof_C 	C 	0.6023	0.2455	0.3676	-0.047
Mof_H 	H 	0.5927	0.2583	0.3553	0.044
Mof_C 	C 	0.6145	0.2197	0.3557	-0.038
Mof_H 	H 	0.6151	0.2164	0.3357	0.039
Mof_C 	C 	0.6256	0.2058	0.4032	-0.028
Mof_C 	C 	0.6153	0.232	0.4132	-0.052
Mof_H 	H 	0.6327	0.192	0.4163	0.035
Mof_H 	H 	0.6163	0.2358	0.433	0.046
Mof_O 	O 	0.63548	0.82332	0.97078	-0.413
Mof_O 	O 	0.60199	0.85706	0.97065	-0.407
Mof_C 	C 	0.61298	0.83436	0.96164	0.369
Mof_C 	C 	0.59804	0.81961	0.93811	-0.103
Mof_C 	C 	0.60735	0.79347	0.92859	0.008
Mof_H 	H 	0.623	0.7845	0.9378	0.039
Mof_C 	C 	0.6023	0.7455	0.8676	-0.047
Mof_H 	H 	0.5927	0.7583	0.8553	0.044
Mof_C 	C 	0.6145	0.7197	0.8557	-0.038
Mof_H 	H 	0.6151	0.7164	0.8357	0.039
Mof_C 	C 	0.6256	0.7058	0.9032	-0.028
Mof_C 	C 	0.6153	0.732	0.9132	-0.052
Mof_H 	H 	0.6327	0.692	0.9163	0.035
Mof_H 	H 	0.6163	0.7358	0.933	0.046
Mof_O 	O 	0.86452	0.67668	0.97078	-0.413
Mof_O 	O 	0.89801	0.64294	0.97065	-0.407
Mof_C 	C 	0.88702	0.66564	0.96164	0.369
Mof_C 	C 	0.90196	0.68039	0.93811	-0.102
Mof_C 	C 	0.89265	0.70653	0.92859	0.008
Mof_H 	H 	0.877	0.7155	0.9378	0.039
Mof_C 	C 	0.8977	0.7545	0.8676	-0.047
Mof_H 	H 	0.9073	0.7417	0.8553	0.044
Mof_C 	C 	0.8855	0.7803	0.8557	-0.038
Mof_H 	H 	0.8849	0.7836	0.8357	0.039
Mof_C 	C 	0.8744	0.7942	0.9032	-0.028
Mof_C 	C 	0.8847	0.768	0.9132	-0.052
Mof_H 	H 	0.8673	0.808	0.9163	0.035
Mof_H 	H 	0.8837	0.7642	0.933	0.046
Mof_O 	O 	0.86452	0.17668	0.47078	-0.414
Mof_O 	O 	0.89801	0.14294	0.47065	-0.408
Mof_C 	C 	0.88702	0.16564	0.46164	0.369
Mof_C 	C 	0.90196	0.18039	0.43811	-0.103
Mof_C 	C 	0.89265	0.20653	0.42859	0.009
Mof_H 	H 	0.877	0.2155	0.4378	0.038
Mof_C 	C 	0.8977	0.2545	0.3676	-0.047
Mof_H 	H 	0.9073	0.2417	0.3553	0.044
Mof_C 	C 	0.8855	0.2803	0.3557	-0.038
Mof_H 	H 	0.8849	0.2836	0.3357	0.039
Mof_C 	C 	0.8744	0.2942	0.4032	-0.028
Mof_C 	C 	0.8847	0.268	0.4132	-0.052
Mof_H 	H 	0.8673	0.308	0.4163	0.035
Mof_H 	H 	0.8837	0.2642	0.433	0.046
Mof_O 	O 	0.36452	0.67668	0.47078	-0.414
Mof_O 	O 	0.39801	0.64294	0.47065	-0.409
Mof_C 	C 	0.38702	0.66564	0.46164	0.369
Mof_C 	C 	0.40196	0.68039	0.43811	-0.103
Mof_C 	C 	0.39265	0.70653	0.42859	0.009
Mof_H 	H 	0.377	0.7155	0.4378	0.038
Mof_C 	C 	0.3977	0.7545	0.3676	-0.047
Mof_H 	H 	0.4073	0.7417	0.3553	0.044
Mof_C 	C 	0.3855	0.7803	0.3557	-0.038
Mof_H 	H 	0.3849	0.7836	0.3357	0.039
Mof_C 	C 	0.3744	0.7942	0.4032	-0.028
Mof_C 	C 	0.3847	0.768	0.4132	-0.052
Mof_H 	H 	0.3673	0.808	0.4163	0.035
Mof_H 	H 	0.3837	0.7642	0.433	0.046
Mof_O 	O 	0.36452	0.17668	0.97078	-0.413
Mof_O 	O 	0.39801	0.14294	0.97065	-0.407
Mof_C 	C 	0.38702	0.16564	0.96164	0.369
Mof_C 	C 	0.40196	0.18039	0.93811	-0.103
Mof_C 	C 	0.39265	0.20653	0.92859	0.009
Mof_H 	H 	0.377	0.2155	0.9378	0.039
Mof_C 	C 	0.3977	0.2545	0.8676	-0.047
Mof_H 	H 	0.4073	0.2417	0.8553	0.044
Mof_C 	C 	0.3855	0.2803	0.8557	-0.038
Mof_H 	H 	0.3849	0.2836	0.8357	0.039
Mof_C 	C 	0.3744	0.2942	0.9032	-0.028
Mof_C 	C 	0.3847	0.268	0.9132	-0.052
Mof_H 	H 	0.3673	0.308	0.9163	0.035
Mof_H 	H 	0.3837	0.2642	0.933	0.046
Mof_O 	O 	0.13548	0.67668	0.02922	-0.415
Mof_O 	O 	0.10199	0.64294	0.02935	-0.409
Mof_C 	C 	0.11298	0.66564	0.03836	0.369
Mof_C 	C 	0.09804	0.68039	0.06189	-0.104
Mof_C 	C 	0.10735	0.70653	0.07141	0.009
Mof_H 	H 	0.123	0.7155	0.0622	0.038
Mof_C 	C 	0.1023	0.7545	0.1324	-0.047
Mof_H 	H 	0.0927	0.7417	0.1447	0.044
Mof_C 	C 	0.1145	0.7803	0.1443	-0.038
Mof_H 	H 	0.1151	0.7836	0.1643	0.039
Mof_C 	C 	0.1256	0.7942	0.0968	-0.028
Mof_C 	C 	0.1153	0.768	0.0868	-0.053
Mof_H 	H 	0.1327	0.808	0.0837	0.035
Mof_H 	H 	0.1163	0.7642	0.067	0.045
Mof_O 	O 	0.13548	0.17668	0.52922	-0.414
Mof_O 	O 	0.10199	0.14294	0.52935	-0.409
Mof_C 	C 	0.11298	0.16564	0.53836	0.369
Mof_C 	C 	0.09804	0.18039	0.56189	-0.103
Mof_C 	C 	0.10735	0.20653	0.57141	0.009
Mof_H 	H 	0.123	0.2155	0.5622	0.038
Mof_C 	C 	0.1023	0.2545	0.6324	-0.047
Mof_H 	H 	0.0927	0.2417	0.6447	0.044
Mof_C 	C 	0.1145	0.2803	0.6443	-0.038
Mof_H 	H 	0.1151	0.2836	0.6643	0.039
Mof_C 	C 	0.1256	0.2942	0.5968	-0.028
Mof_C 	C 	0.1153	0.268	0.5868	-0.053
Mof_H 	H 	0.1327	0.308	0.5837	0.035
Mof_H 	H 	0.1163	0.2642	0.567	0.046
Mof_O 	O 	0.63548	0.67668	0.52922	-0.414
Mof_O 	O 	0.60199	0.64294	0.52935	-0.409
Mof_C 	C 	0.61298	0.66564	0.53836	0.369
Mof_C 	C 	0.59804	0.68039	0.56189	-0.103
Mof_C 	C 	0.60735	0.70653	0.57141	0.009
Mof_H 	H 	0.623	0.7155	0.5622	0.038
Mof_C 	C 	0.6023	0.7545	0.6324	-0.047
Mof_H 	H 	0.5927	0.7417	0.6447	0.044
Mof_C 	C 	0.6145	0.7803	0.6443	-0.038
Mof_H 	H 	0.6151	0.7836	0.6643	0.039
Mof_C 	C 	0.6256	0.7942	0.5968	-0.028
Mof_C 	C 	0.6153	0.768	0.5868	-0.052
Mof_H 	H 	0.6327	0.808	0.5837	0.035
Mof_H 	H 	0.6163	0.7642	0.567	0.046
Mof_O 	O 	0.63548	0.17668	0.02922	-0.415
Mof_O 	O 	0.60199	0.14294	0.02935	-0.409
Mof_C 	C 	0.61298	0.16564	0.03836	0.369
Mof_C 	C 	0.59804	0.18039	0.06189	-0.104
Mof_C 	C 	0.60735	0.20653	0.07141	0.009
Mof_H 	H 	0.623	0.2155	0.0622	0.038
Mof_C 	C 	0.6023	0.2545	0.1324	-0.047
Mof_H 	H 	0.5927	0.2417	0.1447	0.044
Mof_C 	C 	0.6145	0.2803	0.1443	-0.038
Mof_H 	H 	0.6151	0.2836	0.1643	0.039
Mof_C 	C 	0.6256	0.2942	0.0968	-0.028
Mof_C 	C 	0.6153	0.268	0.0868	-0.052
Mof_H 	H 	0.6327	0.308	0.0837	0.035
Mof_H 	H 	0.6163	0.2642	0.067	0.045
Mof_O 	O 	0.86452	0.32332	0.02922	-0.414
Mof_O 	O 	0.89801	0.35706	0.02935	-0.409
Mof_C 	C 	0.88702	0.33436	0.03836	0.369
Mof_C 	C 	0.90196	0.31961	0.06189	-0.103
Mof_C 	C 	0.89265	0.29347	0.07141	0.009
Mof_H 	H 	0.877	0.2845	0.0622	0.038
Mof_C 	C 	0.8977	0.2455	0.1324	-0.047
Mof_H 	H 	0.9073	0.2583	0.1447	0.044
Mof_C 	C 	0.8855	0.2197	0.1443	-0.038
Mof_H 	H 	0.8849	0.2164	0.1643	0.039
Mof_C 	C 	0.8744	0.2058	0.0968	-0.028
Mof_C 	C 	0.8847	0.232	0.0868	-0.052
Mof_H 	H 	0.8673	0.192	0.0837	0.035
Mof_H 	H 	0.8837	0.2358	0.067	0.045
Mof_O 	O 	0.86452	0.82332	0.52922	-0.414
Mof_O 	O 	0.89801	0.85706	0.52935	-0.408
Mof_C 	C 	0.88702	0.83436	0.53836	0.369
Mof_C 	C 	0.90196	0.81961	0.56189	-0.103
Mof_C 	C 	0.89265	0.79347	0.57141	0.009
Mof_H 	H 	0.877	0.7845	0.5622	0.038
Mof_C 	C 	0.8977	0.7455	0.6324	-0.047
Mof_H 	H 	0.9073	0.7583	0.6447	0.044
Mof_C 	C 	0.8855	0.7197	0.6443	-0.038
Mof_H 	H 	0.8849	0.7164	0.6643	0.039
Mof_C 	C 	0.8744	0.7058	0.5968	-0.028
Mof_C 	C 	0.8847	0.732	0.5868	-0.052
Mof_H 	H 	0.8673	0.692	0.5837	0.035
Mof_H 	H 	0.8837	0.7358	0.567	0.046
Mof_O 	O 	0.36452	0.32332	0.52922	-0.414
Mof_O 	O 	0.39801	0.35706	0.52935	-0.409
Mof_C 	C 	0.38702	0.33436	0.53836	0.369
Mof_C 	C 	0.40196	0.31961	0.56189	-0.103
Mof_C 	C 	0.39265	0.29347	0.57141	0.009
Mof_H 	H 	0.377	0.2845	0.5622	0.038
Mof_C 	C 	0.3977	0.2455	0.6324	-0.047
Mof_H 	H 	0.4073	0.2583	0.6447	0.044
Mof_C 	C 	0.3855	0.2197	0.6443	-0.038
Mof_H 	H 	0.3849	0.2164	0.6643	0.039
Mof_C 	C 	0.3744	0.2058	0.5968	-0.028
Mof_C 	C 	0.3847	0.232	0.5868	-0.052
Mof_H 	H 	0.3673	0.192	0.5837	0.035
Mof_H 	H 	0.3837	0.2358	0.567	0.046
Mof_O 	O 	0.36452	0.82332	0.02922	-0.415
Mof_O 	O 	0.39801	0.85706	0.02935	-0.409
Mof_C 	C 	0.38702	0.83436	0.03836	0.369
Mof_C 	C 	0.40196	0.81961	0.06189	-0.104
Mof_C 	C 	0.39265	0.79347	0.07141	0.009
Mof_H 	H 	0.377	0.7845	0.0622	0.038
Mof_C 	C 	0.3977	0.7455	0.1324	-0.047
Mof_H 	H 	0.4073	0.7583	0.1447	0.044
Mof_C 	C 	0.3855	0.7197	0.1443	-0.038
Mof_H 	H 	0.3849	0.7164	0.1643	0.039
Mof_C 	C 	0.3744	0.7058	0.0968	-0.028
Mof_C 	C 	0.3847	0.732	0.0868	-0.052
Mof_H 	H 	0.3673	0.692	0.0837	0.035
Mof_H 	H 	0.3837	0.7358	0.067	0.045
Mof_O 	O 	0.32332	0.02922	0.86452	-0.414
Mof_O 	O 	0.35706	0.02935	0.89801	-0.409
Mof_C 	C 	0.33436	0.03836	0.88702	0.369
Mof_C 	C 	0.31961	0.06189	0.90196	-0.103
Mof_C 	C 	0.29347	0.07141	0.89265	0.009
Mof_H 	H 	0.2845	0.0622	0.877	0.038
Mof_C 	C 	0.2455	0.1324	0.8977	-0.047
Mof_H 	H 	0.2583	0.1447	0.9073	0.044
Mof_C 	C 	0.2197	0.1443	0.8855	-0.038
Mof_H 	H 	0.2164	0.1643	0.8849	0.039
Mof_C 	C 	0.2058	0.0968	0.8744	-0.028
Mof_C 	C 	0.232	0.0868	0.8847	-0.052
Mof_H 	H 	0.192	0.0837	0.8673	0.035
Mof_H 	H 	0.2358	0.067	0.8837	0.045
Mof_O 	O 	0.32332	0.52922	0.36452	-0.414
Mof_O 	O 	0.35706	0.52935	0.39801	-0.409
Mof_C 	C 	0.33436	0.53836	0.38702	0.369
Mof_C 	C 	0.31961	0.56189	0.40196	-0.103
Mof_C 	C 	0.29347	0.57141	0.39265	0.009
Mof_H 	H 	0.2845	0.5622	0.377	0.038
Mof_C 	C 	0.2455	0.6324	0.3977	-0.047
Mof_H 	H 	0.2583	0.6447	0.4073	0.044
Mof_C 	C 	0.2197	0.6443	0.3855	-0.038
Mof_H 	H 	0.2164	0.6643	0.3849	0.039
Mof_C 	C 	0.2058	0.5968	0.3744	-0.028
Mof_C 	C 	0.232	0.5868	0.3847	-0.052
Mof_H 	H 	0.192	0.5837	0.3673	0.035
Mof_H 	H 	0.2358	0.567	0.3837	0.046
Mof_O 	O 	0.82332	0.02922	0.36452	-0.415
Mof_O 	O 	0.85706	0.02935	0.39801	-0.409
Mof_C 	C 	0.83436	0.03836	0.38702	0.369
Mof_C 	C 	0.81961	0.06189	0.40196	-0.104
Mof_C 	C 	0.79347	0.07141	0.39265	0.009
Mof_H 	H 	0.7845	0.0622	0.377	0.038
Mof_C 	C 	0.7455	0.1324	0.3977	-0.047
Mof_H 	H 	0.7583	0.1447	0.4073	0.044
Mof_C 	C 	0.7197	0.1443	0.3855	-0.038
Mof_H 	H 	0.7164	0.1643	0.3849	0.039
Mof_C 	C 	0.7058	0.0968	0.3744	-0.028
Mof_C 	C 	0.732	0.0868	0.3847	-0.052
Mof_H 	H 	0.692	0.0837	0.3673	0.035
Mof_H 	H 	0.7358	0.067	0.3837	0.045
Mof_O 	O 	0.82332	0.52922	0.86452	-0.414
Mof_O 	O 	0.85706	0.52935	0.89801	-0.408
Mof_C 	C 	0.83436	0.53836	0.88702	0.369
Mof_C 	C 	0.81961	0.56189	0.90196	-0.103
Mof_C 	C 	0.79347	0.57141	0.89265	0.009
Mof_H 	H 	0.7845	0.5622	0.877	0.038
Mof_C 	C 	0.7455	0.6324	0.8977	-0.047
Mof_H 	H 	0.7583	0.6447	0.9073	0.044
Mof_C 	C 	0.7197	0.6443	0.8855	-0.038
Mof_H 	H 	0.7164	0.6643	0.8849	0.039
Mof_C 	C 	0.7058	0.5968	0.8744	-0.028
Mof_C 	C 	0.732	0.5868	0.8847	-0.052
Mof_H 	H 	0.692	0.5837	0.8673	0.035
Mof_H 	H 	0.7358	0.567	0.8837	0.046
Mof_O 	O 	0.67668	0.02922	0.13548	-0.415
Mof_O 	O 	0.64294	0.02935	0.10199	-0.409
Mof_C 	C 	0.66564	0.03836	0.11298	0.369
Mof_C 	C 	0.68039	0.06189	0.09804	-0.104
Mof_C 	C 	0.70653	0.07141	0.10735	0.009
Mof_H 	H 	0.7155	0.0622	0.123	0.038
Mof_C 	C 	0.7545	0.1324	0.1023	-0.047
Mof_H 	H 	0.7417	0.1447	0.0927	0.044
Mof_C 	C 	0.7803	0.1443	0.1145	-0.038
Mof_H 	H 	0.7836	0.1643	0.1151	0.039
Mof_C 	C 	0.7942	0.0968	0.1256	-0.028
Mof_C 	C 	0.768	0.0868	0.1153	-0.053
Mof_H 	H 	0.808	0.0837	0.1327	0.035
Mof_H 	H 	0.7642	0.067	0.1163	0.045
Mof_O 	O 	0.67668	0.52922	0.63548	-0.414
Mof_O 	O 	0.64294	0.52935	0.60199	-0.409
Mof_C 	C 	0.66564	0.53836	0.61298	0.369
Mof_C 	C 	0.68039	0.56189	0.59804	-0.103
Mof_C 	C 	0.70653	0.57141	0.60735	0.009
Mof_H 	H 	0.7155	0.5622	0.623	0.038
Mof_C 	C 	0.7545	0.6324	0.6023	-0.047
Mof_H 	H 	0.7417	0.6447	0.5927	0.044
Mof_C 	C 	0.7803	0.6443	0.6145	-0.038
Mof_H 	H 	0.7836	0.6643	0.6151	0.039
Mof_C 	C 	0.7942	0.5968	0.6256	-0.028
Mof_C 	C 	0.768	0.5868	0.6153	-0.052
Mof_H 	H 	0.808	0.5837	0.6327	0.035
Mof_H 	H 	0.7642	0.567	0.6163	0.046
Mof_O 	O 	0.17668	0.02922	0.63548	-0.415
Mof_O 	O 	0.14294	0.02935	0.60199	-0.409
Mof_C 	C 	0.16564	0.03836	0.61298	0.369
Mof_C 	C 	0.18039	0.06189	0.59804	-0.104
Mof_C 	C 	0.20653	0.07141	0.60735	0.009
Mof_H 	H 	0.2155	0.0622	0.623	0.038
Mof_C 	C 	0.2545	0.1324	0.6023	-0.047
Mof_H 	H 	0.2417	0.1447	0.5927	0.044
Mof_C 	C 	0.2803	0.1443	0.6145	-0.038
Mof_H 	H 	0.2836	0.1643	0.6151	0.039
Mof_C 	C 	0.2942	0.0968	0.6256	-0.028
Mof_C 	C 	0.268	0.0868	0.6153	-0.052
Mof_H 	H 	0.308	0.0837	0.6327	0.035
Mof_H 	H 	0.2642	0.067	0.6163	0.045
Mof_O 	O 	0.17668	0.52922	0.13548	-0.414
Mof_O 	O 	0.14294	0.52935	0.10199	-0.409
Mof_C 	C 	0.16564	0.53836	0.11298	0.369
Mof_C 	C 	0.18039	0.56189	0.09804	-0.103
Mof_C 	C 	0.20653	0.57141	0.10735	0.009
Mof_H 	H 	0.2155	0.5622	0.123	0.038
Mof_C 	C 	0.2545	0.6324	0.1023	-0.047
Mof_H 	H 	0.2417	0.6447	0.0927	0.044
Mof_C 	C 	0.2803	0.6443	0.1145	-0.038
Mof_H 	H 	0.2836	0.6643	0.1151	0.039
Mof_C 	C 	0.2942	0.5968	0.1256	-0.028
Mof_C 	C 	0.268	0.5868	0.1153	-0.053
Mof_H 	H 	0.308	0.5837	0.1327	0.035
Mof_H 	H 	0.2642	0.567	0.1163	0.046
Mof_O 	O 	0.67668	0.97078	0.86452	-0.413
Mof_O 	O 	0.64294	0.97065	0.89801	-0.407
Mof_C 	C 	0.66564	0.96164	0.88702	0.369
Mof_C 	C 	0.68039	0.93811	0.90196	-0.102
Mof_C 	C 	0.70653	0.92859	0.89265	0.008
Mof_H 	H 	0.7155	0.9378	0.877	0.039
Mof_C 	C 	0.7545	0.8676	0.8977	-0.047
Mof_H 	H 	0.7417	0.8553	0.9073	0.044
Mof_C 	C 	0.7803	0.8557	0.8855	-0.038
Mof_H 	H 	0.7836	0.8357	0.8849	0.039
Mof_C 	C 	0.7942	0.9032	0.8744	-0.028
Mof_C 	C 	0.768	0.9132	0.8847	-0.052
Mof_H 	H 	0.808	0.9163	0.8673	0.035
Mof_H 	H 	0.7642	0.933	0.8837	0.046
Mof_O 	O 	0.67668	0.47078	0.36452	-0.414
Mof_O 	O 	0.64294	0.47065	0.39801	-0.409
Mof_C 	C 	0.66564	0.46164	0.38702	0.369
Mof_C 	C 	0.68039	0.43811	0.40196	-0.103
Mof_C 	C 	0.70653	0.42859	0.39265	0.009
Mof_H 	H 	0.7155	0.4378	0.377	0.038
Mof_C 	C 	0.7545	0.3676	0.3977	-0.047
Mof_H 	H 	0.7417	0.3553	0.4073	0.044
Mof_C 	C 	0.7803	0.3557	0.3855	-0.038
Mof_H 	H 	0.7836	0.3357	0.3849	0.039
Mof_C 	C 	0.7942	0.4032	0.3744	-0.028
Mof_C 	C 	0.768	0.4132	0.3847	-0.052
Mof_H 	H 	0.808	0.4163	0.3673	0.035
Mof_H 	H 	0.7642	0.433	0.3837	0.046
Mof_O 	O 	0.17668	0.97078	0.36452	-0.413
Mof_O 	O 	0.14294	0.97065	0.39801	-0.407
Mof_C 	C 	0.16564	0.96164	0.38702	0.369
Mof_C 	C 	0.18039	0.93811	0.40196	-0.103
Mof_C 	C 	0.20653	0.92859	0.39265	0.009
Mof_H 	H 	0.2155	0.9378	0.377	0.039
Mof_C 	C 	0.2545	0.8676	0.3977	-0.047
Mof_H 	H 	0.2417	0.8553	0.4073	0.044
Mof_C 	C 	0.2803	0.8557	0.3855	-0.038
Mof_H 	H 	0.2836	0.8357	0.3849	0.039
Mof_C 	C 	0.2942	0.9032	0.3744	-0.028
Mof_C 	C 	0.268	0.9132	0.3847	-0.052
Mof_H 	H 	0.308	0.9163	0.3673	0.035
Mof_H 	H 	0.2642	0.933	0.3837	0.046
Mof_O 	O 	0.17668	0.47078	0.86452	-0.414
Mof_O 	O 	0.14294	0.47065	0.89801	-0.408
Mof_C 	C 	0.16564	0.46164	0.88702	0.369
Mof_C 	C 	0.18039	0.43811	0.90196	-0.103
Mof_C 	C 	0.20653	0.42859	0.89265	0.009
Mof_H 	H 	0.2155	0.4378	0.877	0.038
Mof_C 	C 	0.2545	0.3676	0.8977	-0.047
Mof_H 	H 	0.2417	0.3553	0.9073	0.044
Mof_C 	C 	0.2803	0.3557	0.8855	-0.038
Mof_H 	H 	0.2836	0.3357	0.8849	0.039
Mof_C 	C 	0.2942	0.4032	0.8744	-0.028
Mof_C 	C 	0.268	0.4132	0.8847	-0.052
Mof_H 	H 	0.308	0.4163	0.8673	0.035
Mof_H 	H 	0.2642	0.433	0.8837	0.046
Mof_O 	O 	0.32332	0.97078	0.13548	-0.413
Mof_O 	O 	0.35706	0.97065	0.10199	-0.408
Mof_C 	C 	0.33436	0.96164	0.11298	0.369
Mof_C 	C 	0.31961	0.93811	0.09804	-0.103
Mof_C 	C 	0.29347	0.92859	0.10735	0.009
Mof_H 	H 	0.2845	0.9378	0.123	0.039
Mof_C 	C 	0.2455	0.8676	0.1023	-0.047
Mof_H 	H 	0.2583	0.8553	0.0927	0.044
Mof_C 	C 	0.2197	0.8557	0.1145	-0.038
Mof_H 	H 	0.2164	0.8357	0.1151	0.039
Mof_C 	C 	0.2058	0.9032	0.1256	-0.028
Mof_C 	C 	0.232	0.9132	0.1153	-0.053
Mof_H 	H 	0.192	0.9163	0.1327	0.035
Mof_H 	H 	0.2358	0.933	0.1163	0.046
Mof_O 	O 	0.32332	0.47078	0.63548	-0.414
Mof_O 	O 	0.35706	0.47065	0.60199	-0.409
Mof_C 	C 	0.33436	0.46164	0.61298	0.369
Mof_C 	C 	0.31961	0.43811	0.59804	-0.103
Mof_C 	C 	0.29347	0.42859	0.60735	0.009
Mof_H 	H 	0.2845	0.4378	0.623	0.038
Mof_C 	C 	0.2455	0.3676	0.6023	-0.047
Mof_H 	H 	0.2583	0.3553	0.5927	0.044
Mof_C 	C 	0.2197	0.3557	0.6145	-0.038
Mof_H 	H 	0.2164	0.3357	0.6151	0.039
Mof_C 	C 	0.2058	0.4032	0.6256	-0.028
Mof_C 	C 	0.232	0.4132	0.6153	-0.052
Mof_H 	H 	0.192	0.4163	0.6327	0.035
Mof_H 	H 	0.2358	0.433	0.6163	0.046
Mof_O 	O 	0.82332	0.97078	0.63548	-0.413
Mof_O 	O 	0.85706	0.97065	0.60199	-0.407
Mof_C 	C 	0.83436	0.96164	0.61298	0.369
Mof_C 	C 	0.81961	0.93811	0.59804	-0.103
Mof_C 	C 	0.79347	0.92859	0.60735	0.008
Mof_H 	H 	0.7845	0.9378	0.623	0.039
Mof_C 	C 	0.7455	0.8676	0.6023	-0.047
Mof_H 	H 	0.7583	0.8553	0.5927	0.044
Mof_C 	C 	0.7197	0.8557	0.6145	-0.038
Mof_H 	H 	0.7164	0.8357	0.6151	0.039
Mof_C 	C 	0.7058	0.9032	0.6256	-0.028
Mof_C 	C 	0.732	0.9132	0.6153	-0.052
Mof_H 	H 	0.692	0.9163	0.6327	0.035
Mof_H 	H 	0.7358	0.933	0.6163	0.046
Mof_O 	O 	0.82332	0.47078	0.13548	-0.414
Mof_O 	O 	0.85706	0.47065	0.10199	-0.409
Mof_C 	C 	0.83436	0.46164	0.11298	0.369
Mof_C 	C 	0.81961	0.43811	0.09804	-0.103
Mof_C 	C 	0.79347	0.42859	0.10735	0.009
Mof_H 	H 	0.7845	0.4378	0.123	0.038
Mof_C 	C 	0.7455	0.3676	0.1023	-0.047
Mof_H 	H 	0.7583	0.3553	0.0927	0.044
Mof_C 	C 	0.7197	0.3557	0.1145	-0.038
Mof_H 	H 	0.7164	0.3357	0.1151	0.039
Mof_C 	C 	0.7058	0.4032	0.1256	-0.028
Mof_C 	C 	0.732	0.4132	0.1153	-0.053
Mof_H 	H 	0.692	0.4163	0.1327	0.035
Mof_H 	H 	0.7358	0.433	0.1163	0.046
Mof_O 	O 	0.02922	0.13548	0.67668	-0.415
Mof_O 	O 	0.02935	0.10199	0.64294	-0.409
Mof_C 	C 	0.03836	0.11298	0.66564	0.369
Mof_C 	C 	0.06189	0.09804	0.68039	-0.104
Mof_C 	C 	0.07141	0.10735	0.70653	0.009
Mof_H 	H 	0.0622	0.123	0.7155	0.038
Mof_C 	C 	0.1324	0.1023	0.7545	-0.047
Mof_H 	H 	0.1447	0.0927	0.7417	0.044
Mof_C 	C 	0.1443	0.1145	0.7803	-0.038
Mof_H 	H 	0.1643	0.1151	0.7836	0.039
Mof_C 	C 	0.0968	0.1256	0.7942	-0.028
Mof_C 	C 	0.0868	0.1153	0.768	-0.053
Mof_H 	H 	0.0837	0.1327	0.808	0.035
Mof_H 	H 	0.067	0.1163	0.7642	0.045
Mof_O 	O 	0.02922	0.63548	0.17668	-0.415
Mof_O 	O 	0.02935	0.60199	0.14294	-0.409
Mof_C 	C 	0.03836	0.61298	0.16564	0.369
Mof_C 	C 	0.06189	0.59804	0.18039	-0.104
Mof_C 	C 	0.07141	0.60735	0.20653	0.009
Mof_H 	H 	0.0622	0.623	0.2155	0.038
Mof_C 	C 	0.1324	0.6023	0.2545	-0.047
Mof_H 	H 	0.1447	0.5927	0.2417	0.044
Mof_C 	C 	0.1443	0.6145	0.2803	-0.038
Mof_H 	H 	0.1643	0.6151	0.2836	0.039
Mof_C 	C 	0.0968	0.6256	0.2942	-0.028
Mof_C 	C 	0.0868	0.6153	0.268	-0.052
Mof_H 	H 	0.0837	0.6327	0.308	0.035
Mof_H 	H 	0.067	0.6163	0.2642	0.045
Mof_O 	O 	0.52922	0.13548	0.17668	-0.414
Mof_O 	O 	0.52935	0.10199	0.14294	-0.409
Mof_C 	C 	0.53836	0.11298	0.16564	0.369
Mof_C 	C 	0.56189	0.09804	0.18039	-0.103
Mof_C 	C 	0.57141	0.10735	0.20653	0.009
Mof_H 	H 	0.5622	0.123	0.2155	0.038
Mof_C 	C 	0.6324	0.1023	0.2545	-0.047
Mof_H 	H 	0.6447	0.0927	0.2417	0.044
Mof_C 	C 	0.6443	0.1145	0.2803	-0.038
Mof_H 	H 	0.6643	0.1151	0.2836	0.039
Mof_C 	C 	0.5968	0.1256	0.2942	-0.028
Mof_C 	C 	0.5868	0.1153	0.268	-0.053
Mof_H 	H 	0.5837	0.1327	0.308	0.035
Mof_H 	H 	0.567	0.1163	0.2642	0.046
Mof_O 	O 	0.52922	0.63548	0.67668	-0.414
Mof_O 	O 	0.52935	0.60199	0.64294	-0.409
Mof_C 	C 	0.53836	0.61298	0.66564	0.369
Mof_C 	C 	0.56189	0.59804	0.68039	-0.103
Mof_C 	C 	0.57141	0.60735	0.70653	0.009
Mof_H 	H 	0.5622	0.623	0.7155	0.038
Mof_C 	C 	0.6324	0.6023	0.7545	-0.047
Mof_H 	H 	0.6447	0.5927	0.7417	0.044
Mof_C 	C 	0.6443	0.6145	0.7803	-0.038
Mof_H 	H 	0.6643	0.6151	0.7836	0.039
Mof_C 	C 	0.5968	0.6256	0.7942	-0.028
Mof_C 	C 	0.5868	0.6153	0.768	-0.052
Mof_H 	H 	0.5837	0.6327	0.808	0.035
Mof_H 	H 	0.567	0.6163	0.7642	0.046
Mof_O 	O 	0.02922	0.86452	0.32332	-0.414
Mof_O 	O 	0.02935	0.89801	0.35706	-0.409
Mof_C 	C 	0.03836	0.88702	0.33436	0.369
Mof_C 	C 	0.06189	0.90196	0.31961	-0.103
Mof_C 	C 	0.07141	0.89265	0.29347	0.009
Mof_H 	H 	0.0622	0.877	0.2845	0.038
Mof_C 	C 	0.1324	0.8977	0.2455	-0.047
Mof_H 	H 	0.1447	0.9073	0.2583	0.044
Mof_C 	C 	0.1443	0.8855	0.2197	-0.038
Mof_H 	H 	0.1643	0.8849	0.2164	0.039
Mof_C 	C 	0.0968	0.8744	0.2058	-0.028
Mof_C 	C 	0.0868	0.8847	0.232	-0.052
Mof_H 	H 	0.0837	0.8673	0.192	0.035
Mof_H 	H 	0.067	0.8837	0.2358	0.045
Mof_O 	O 	0.02922	0.36452	0.82332	-0.415
Mof_O 	O 	0.02935	0.39801	0.85706	-0.409
Mof_C 	C 	0.03836	0.38702	0.83436	0.369
Mof_C 	C 	0.06189	0.40196	0.81961	-0.104
Mof_C 	C 	0.07141	0.39265	0.79347	0.009
Mof_H 	H 	0.0622	0.377	0.7845	0.038
Mof_C 	C 	0.1324	0.3977	0.7455	-0.047
Mof_H 	H 	0.1447	0.4073	0.7583	0.044
Mof_C 	C 	0.1443	0.3855	0.7197	-0.038
Mof_H 	H 	0.1643	0.3849	0.7164	0.039
Mof_C 	C 	0.0968	0.3744	0.7058	-0.028
Mof_C 	C 	0.0868	0.3847	0.732	-0.052
Mof_H 	H 	0.0837	0.3673	0.692	0.035
Mof_H 	H 	0.067	0.3837	0.7358	0.045
Mof_O 	O 	0.52922	0.86452	0.82332	-0.414
Mof_O 	O 	0.52935	0.89801	0.85706	-0.408
Mof_C 	C 	0.53836	0.88702	0.83436	0.369
Mof_C 	C 	0.56189	0.90196	0.81961	-0.103
Mof_C 	C 	0.57141	0.89265	0.79347	0.009
Mof_H 	H 	0.5622	0.877	0.7845	0.038
Mof_C 	C 	0.6324	0.8977	0.7455	-0.047
Mof_H 	H 	0.6447	0.9073	0.7583	0.044
Mof_C 	C 	0.6443	0.8855	0.7197	-0.038
Mof_H 	H 	0.6643	0.8849	0.7164	0.039
Mof_C 	C 	0.5968	0.8744	0.7058	-0.028
Mof_C 	C 	0.5868	0.8847	0.732	-0.052
Mof_H 	H 	0.5837	0.8673	0.692	0.035
Mof_H 	H 	0.567	0.8837	0.7358	0.046
Mof_O 	O 	0.52922	0.36452	0.32332	-0.414
Mof_O 	O 	0.52935	0.39801	0.35706	-0.409
Mof_C 	C 	0.53836	0.38702	0.33436	0.369
Mof_C 	C 	0.56189	0.40196	0.31961	-0.103
Mof_C 	C 	0.57141	0.39265	0.29347	0.009
Mof_H 	H 	0.5622	0.377	0.2845	0.038
Mof_C 	C 	0.6324	0.3977	0.2455	-0.047
Mof_H 	H 	0.6447	0.4073	0.2583	0.044
Mof_C 	C 	0.6443	0.3855	0.2197	-0.038
Mof_H 	H 	0.6643	0.3849	0.2164	0.039
Mof_C 	C 	0.5968	0.3744	0.2058	-0.028
Mof_C 	C 	0.5868	0.3847	0.232	-0.052
Mof_H 	H 	0.5837	0.3673	0.192	0.035
Mof_H 	H 	0.567	0.3837	0.2358	0.046
Mof_O 	O 	0.97078	0.13548	0.32332	-0.413
Mof_O 	O 	0.97065	0.10199	0.35706	-0.408
Mof_C 	C 	0.96164	0.11298	0.33436	0.369
Mof_C 	C 	0.93811	0.09804	0.31961	-0.103
Mof_C 	C 	0.92859	0.10735	0.29347	0.009
Mof_H 	H 	0.9378	0.123	0.2845	0.039
Mof_C 	C 	0.8676	0.1023	0.2455	-0.047
Mof_H 	H 	0.8553	0.0927	0.2583	0.044
Mof_C 	C 	0.8557	0.1145	0.2197	-0.038
Mof_H 	H 	0.8357	0.1151	0.2164	0.039
Mof_C 	C 	0.9032	0.1256	0.2058	-0.028
Mof_C 	C 	0.9132	0.1153	0.232	-0.053
Mof_H 	H 	0.9163	0.1327	0.192	0.035
Mof_H 	H 	0.933	0.1163	0.2358	0.046
Mof_O 	O 	0.97078	0.63548	0.82332	-0.413
Mof_O 	O 	0.97065	0.60199	0.85706	-0.407
Mof_C 	C 	0.96164	0.61298	0.83436	0.369
Mof_C 	C 	0.93811	0.59804	0.81961	-0.103
Mof_C 	C 	0.92859	0.60735	0.79347	0.008
Mof_H 	H 	0.9378	0.623	0.7845	0.039
Mof_C 	C 	0.8676	0.6023	0.7455	-0.047
Mof_H 	H 	0.8553	0.5927	0.7583	0.044
Mof_C 	C 	0.8557	0.6145	0.7197	-0.038
Mof_H 	H 	0.8357	0.6151	0.7164	0.039
Mof_C 	C 	0.9032	0.6256	0.7058	-0.028
Mof_C 	C 	0.9132	0.6153	0.732	-0.052
Mof_H 	H 	0.9163	0.6327	0.692	0.035
Mof_H 	H 	0.933	0.6163	0.7358	0.046
Mof_O 	O 	0.47078	0.13548	0.82332	-0.414
Mof_O 	O 	0.47065	0.10199	0.85706	-0.409
Mof_C 	C 	0.46164	0.11298	0.83436	0.369
Mof_C 	C 	0.43811	0.09804	0.81961	-0.103
Mof_C 	C 	0.42859	0.10735	0.79347	0.009
Mof_H 	H 	0.4378	0.123	0.7845	0.038
Mof_C 	C 	0.3676	0.1023	0.7455	-0.047
Mof_H 	H 	0.3553	0.0927	0.7583	0.044
Mof_C 	C 	0.3557	0.1145	0.7197	-0.038
Mof_H 	H 	0.3357	0.1151	0.7164	0.039
Mof_C 	C 	0.4032	0.1256	0.7058	-0.028
Mof_C 	C 	0.4132	0.1153	0.732	-0.053
Mof_H 	H 	0.4163	0.1327	0.692	0.035
Mof_H 	H 	0.433	0.1163	0.7358	0.046
Mof_O 	O 	0.47078	0.63548	0.32332	-0.414
Mof_O 	O 	0.47065	0.60199	0.35706	-0.409
Mof_C 	C 	0.46164	0.61298	0.33436	0.369
Mof_C 	C 	0.43811	0.59804	0.31961	-0.103
Mof_C 	C 	0.42859	0.60735	0.29347	0.009
Mof_H 	H 	0.4378	0.623	0.2845	0.038
Mof_C 	C 	0.3676	0.6023	0.2455	-0.047
Mof_H 	H 	0.3553	0.5927	0.2583	0.044
Mof_C 	C 	0.3557	0.6145	0.2197	-0.038
Mof_H 	H 	0.3357	0.6151	0.2164	0.039
Mof_C 	C 	0.4032	0.6256	0.2058	-0.028
Mof_C 	C 	0.4132	0.6153	0.232	-0.052
Mof_H 	H 	0.4163	0.6327	0.192	0.035
Mof_H 	H 	0.433	0.6163	0.2358	0.046
Mof_O 	O 	0.97078	0.86452	0.67668	-0.413
Mof_O 	O 	0.97065	0.89801	0.64294	-0.407
Mof_C 	C 	0.96164	0.88702	0.66564	0.369
Mof_C 	C 	0.93811	0.90196	0.68039	-0.102
Mof_C 	C 	0.92859	0.89265	0.70653	0.008
Mof_H 	H 	0.9378	0.877	0.7155	0.039
Mof_C 	C 	0.8676	0.8977	0.7545	-0.047
Mof_H 	H 	0.8553	0.9073	0.7417	0.044
Mof_C 	C 	0.8557	0.8855	0.7803	-0.038
Mof_H 	H 	0.8357	0.8849	0.7836	0.039
Mof_C 	C 	0.9032	0.8744	0.7942	-0.028
Mof_C 	C 	0.9132	0.8847	0.768	-0.052
Mof_H 	H 	0.9163	0.8673	0.808	0.035
Mof_H 	H 	0.933	0.8837	0.7642	0.046
Mof_O 	O 	0.97078	0.36452	0.17668	-0.413
Mof_O 	O 	0.97065	0.39801	0.14294	-0.407
Mof_C 	C 	0.96164	0.38702	0.16564	0.369
Mof_C 	C 	0.93811	0.40196	0.18039	-0.103
Mof_C 	C 	0.92859	0.39265	0.20653	0.009
Mof_H 	H 	0.9378	0.377	0.2155	0.039
Mof_C 	C 	0.8676	0.3977	0.2545	-0.047
Mof_H 	H 	0.8553	0.4073	0.2417	0.044
Mof_C 	C 	0.8557	0.3855	0.2803	-0.038
Mof_H 	H 	0.8357	0.3849	0.2836	0.039
Mof_C 	C 	0.9032	0.3744	0.2942	-0.028
Mof_C 	C 	0.9132	0.3847	0.268	-0.052
Mof_H 	H 	0.9163	0.3673	0.308	0.035
Mof_H 	H 	0.933	0.3837	0.2642	0.046
Mof_O 	O 	0.47078	0.86452	0.17668	-0.414
Mof_O 	O 	0.47065	0.89801	0.14294	-0.408
Mof_C 	C 	0.46164	0.88702	0.16564	0.369
Mof_C 	C 	0.43811	0.90196	0.18039	-0.103
Mof_C 	C 	0.42859	0.89265	0.20653	0.009
Mof_H 	H 	0.4378	0.877	0.2155	0.038
Mof_C 	C 	0.3676	0.8977	0.2545	-0.047
Mof_H 	H 	0.3553	0.9073	0.2417	0.044
Mof_C 	C 	0.3557	0.8855	0.2803	-0.038
Mof_H 	H 	0.3357	0.8849	0.2836	0.039
Mof_C 	C 	0.4032	0.8744	0.2942	-0.028
Mof_C 	C 	0.4132	0.8847	0.268	-0.052
Mof_H 	H 	0.4163	0.8673	0.308	0.035
Mof_H 	H 	0.433	0.8837	0.2642	0.046
Mof_O 	O 	0.47078	0.36452	0.67668	-0.414
Mof_O 	O 	0.47065	0.39801	0.64294	-0.409
Mof_C 	C 	0.46164	0.38702	0.66564	0.369
Mof_C 	C 	0.43811	0.40196	0.68039	-0.103
Mof_C 	C 	0.42859	0.39265	0.70653	0.009
Mof_H 	H 	0.4378	0.377	0.7155	0.038
Mof_C 	C 	0.3676	0.3977	0.7545	-0.047
Mof_H 	H 	0.3553	0.4073	0.7417	0.044
Mof_C 	C 	0.3557	0.3855	0.7803	-0.038
Mof_H 	H 	0.3357	0.3849	0.7836	0.039
Mof_C 	C 	0.4032	0.3744	0.7942	-0.028
Mof_C 	C 	0.4132	0.3847	0.768	-0.052
Mof_H 	H 	0.4163	0.3673	0.808	0.035
Mof_H 	H 	0.433	0.3837	0.7642	0.046
Mof_O 	O 	0.67668	0.86452	0.97078	-0.413
Mof_O 	O 	0.64294	0.89801	0.97065	-0.407
Mof_C 	C 	0.66564	0.88702	0.96164	0.369
Mof_C 	C 	0.68039	0.90196	0.93811	-0.102
Mof_C 	C 	0.70653	0.89265	0.92859	0.008
Mof_H 	H 	0.7155	0.877	0.9378	0.039
Mof_C 	C 	0.7545	0.8977	0.8676	-0.047
Mof_H 	H 	0.7417	0.9073	0.8553	0.044
Mof_C 	C 	0.7803	0.8855	0.8557	-0.038
Mof_H 	H 	0.7836	0.8849	0.8357	0.039
Mof_C 	C 	0.7942	0.8744	0.9032	-0.028
Mof_C 	C 	0.768	0.8847	0.9132	-0.052
Mof_H 	H 	0.808	0.8673	0.9163	0.035
Mof_H 	H 	0.7642	0.8837	0.933	0.046
Mof_O 	O 	0.67668	0.36452	0.47078	-0.414
Mof_O 	O 	0.64294	0.39801	0.47065	-0.409
Mof_C 	C 	0.66564	0.38702	0.46164	0.369
Mof_C 	C 	0.68039	0.40196	0.43811	-0.103
Mof_C 	C 	0.70653	0.39265	0.42859	0.009
Mof_H 	H 	0.7155	0.377	0.4378	0.038
Mof_C 	C 	0.7545	0.3977	0.3676	-0.047
Mof_H 	H 	0.7417	0.4073	0.3553	0.044
Mof_C 	C 	0.7803	0.3855	0.3557	-0.038
Mof_H 	H 	0.7836	0.3849	0.3357	0.039
Mof_C 	C 	0.7942	0.3744	0.4032	-0.028
Mof_C 	C 	0.768	0.3847	0.4132	-0.052
Mof_H 	H 	0.808	0.3673	0.4163	0.035
Mof_H 	H 	0.7642	0.3837	0.433	0.046
Mof_O 	O 	0.17668	0.86452	0.47078	-0.414
Mof_O 	O 	0.14294	0.89801	0.47065	-0.408
Mof_C 	C 	0.16564	0.88702	0.46164	0.369
Mof_C 	C 	0.18039	0.90196	0.43811	-0.103
Mof_C 	C 	0.20653	0.89265	0.42859	0.009
Mof_H 	H 	0.2155	0.877	0.4378	0.038
Mof_C 	C 	0.2545	0.8977	0.3676	-0.047
Mof_H 	H 	0.2417	0.9073	0.3553	0.044
Mof_C 	C 	0.2803	0.8855	0.3557	-0.038
Mof_H 	H 	0.2836	0.8849	0.3357	0.039
Mof_C 	C 	0.2942	0.8744	0.4032	-0.028
Mof_C 	C 	0.268	0.8847	0.4132	-0.052
Mof_H 	H 	0.308	0.8673	0.4163	0.035
Mof_H 	H 	0.2642	0.8837	0.433	0.046
Mof_O 	O 	0.17668	0.36452	0.97078	-0.413
Mof_O 	O 	0.14294	0.39801	0.97065	-0.407
Mof_C 	C 	0.16564	0.38702	0.96164	0.369
Mof_C 	C 	0.18039	0.40196	0.93811	-0.103
Mof_C 	C 	0.20653	0.39265	0.92859	0.009
Mof_H 	H 	0.2155	0.377	0.9378	0.039
Mof_C 	C 	0.2545	0.3977	0.8676	-0.047
Mof_H 	H 	0.2417	0.4073	0.8553	0.044
Mof_C 	C 	0.2803	0.3855	0.8557	-0.038
Mof_H 	H 	0.2836	0.3849	0.8357	0.039
Mof_C 	C 	0.2942	0.3744	0.9032	-0.028
Mof_C 	C 	0.268	0.3847	0.9132	-0.052
Mof_H 	H 	0.308	0.3673	0.9163	0.035
Mof_H 	H 	0.2642	0.3837	0.933	0.046
Mof_O 	O 	0.32332	0.13548	0.97078	-0.413
Mof_O 	O 	0.35706	0.10199	0.97065	-0.408
Mof_C 	C 	0.33436	0.11298	0.96164	0.369
Mof_C 	C 	0.31961	0.09804	0.93811	-0.103
Mof_C 	C 	0.29347	0.10735	0.92859	0.009
Mof_H 	H 	0.2845	0.123	0.9378	0.039
Mof_C 	C 	0.2455	0.1023	0.8676	-0.047
Mof_H 	H 	0.2583	0.0927	0.8553	0.044
Mof_C 	C 	0.2197	0.1145	0.8557	-0.038
Mof_H 	H 	0.2164	0.1151	0.8357	0.039
Mof_C 	C 	0.2058	0.1256	0.9032	-0.028
Mof_C 	C 	0.232	0.1153	0.9132	-0.053
Mof_H 	H 	0.192	0.1327	0.9163	0.035
Mof_H 	H 	0.2358	0.1163	0.933	0.046
Mof_O 	O 	0.32332	0.63548	0.47078	-0.414
Mof_O 	O 	0.35706	0.60199	0.47065	-0.409
Mof_C 	C 	0.33436	0.61298	0.46164	0.369
Mof_C 	C 	0.31961	0.59804	0.43811	-0.103
Mof_C 	C 	0.29347	0.60735	0.42859	0.009
Mof_H 	H 	0.2845	0.623	0.4378	0.038
Mof_C 	C 	0.2455	0.6023	0.3676	-0.047
Mof_H 	H 	0.2583	0.5927	0.3553	0.044
Mof_C 	C 	0.2197	0.6145	0.3557	-0.038
Mof_H 	H 	0.2164	0.6151	0.3357	0.039
Mof_C 	C 	0.2058	0.6256	0.4032	-0.028
Mof_C 	C 	0.232	0.6153	0.4132	-0.052
Mof_H 	H 	0.192	0.6327	0.4163	0.035
Mof_H 	H 	0.2358	0.6163	0.433	0.046
Mof_O 	O 	0.82332	0.13548	0.47078	-0.414
Mof_O 	O 	0.85706	0.10199	0.47065	-0.409
Mof_C 	C 	0.83436	0.11298	0.46164	0.369
Mof_C 	C 	0.81961	0.09804	0.43811	-0.103
Mof_C 	C 	0.79347	0.10735	0.42859	0.009
Mof_H 	H 	0.7845	0.123	0.4378	0.038
Mof_C 	C 	0.7455	0.1023	0.3676	-0.047
Mof_H 	H 	0.7583	0.0927	0.3553	0.044
Mof_C 	C 	0.7197	0.1145	0.3557	-0.038
Mof_H 	H 	0.7164	0.1151	0.3357	0.039
Mof_C 	C 	0.7058	0.1256	0.4032	-0.028
Mof_C 	C 	0.732	0.1153	0.4132	-0.053
Mof_H 	H 	0.692	0.1327	0.4163	0.035
Mof_H 	H 	0.7358	0.1163	0.433	0.046
Mof_O 	O 	0.82332	0.63548	0.97078	-0.413
Mof_O 	O 	0.85706	0.60199	0.97065	-0.407
Mof_C 	C 	0.83436	0.61298	0.96164	0.369
Mof_C 	C 	0.81961	0.59804	0.93811	-0.103
Mof_C 	C 	0.79347	0.60735	0.92859	0.008
Mof_H 	H 	0.7845	0.623	0.9378	0.039
Mof_C 	C 	0.7455	0.6023	0.8676	-0.047
Mof_H 	H 	0.7583	0.5927	0.8553	0.044
Mof_C 	C 	0.7197	0.6145	0.8557	-0.038
Mof_H 	H 	0.7164	0.6151	0.8357	0.039
Mof_C 	C 	0.7058	0.6256	0.9032	-0.028
Mof_C 	C 	0.732	0.6153	0.9132	-0.052
Mof_H 	H 	0.692	0.6327	0.9163	0.035
Mof_H 	H 	0.7358	0.6163	0.933	0.046
Mof_O 	O 	0.32332	0.86452	0.02922	-0.414
Mof_O 	O 	0.35706	0.89801	0.02935	-0.409
Mof_C 	C 	0.33436	0.88702	0.03836	0.369
Mof_C 	C 	0.31961	0.90196	0.06189	-0.103
Mof_C 	C 	0.29347	0.89265	0.07141	0.009
Mof_H 	H 	0.2845	0.877	0.0622	0.038
Mof_C 	C 	0.2455	0.8977	0.1324	-0.047
Mof_H 	H 	0.2583	0.9073	0.1447	0.044
Mof_C 	C 	0.2197	0.8855	0.1443	-0.038
Mof_H 	H 	0.2164	0.8849	0.1643	0.039
Mof_C 	C 	0.2058	0.8744	0.0968	-0.028
Mof_C 	C 	0.232	0.8847	0.0868	-0.052
Mof_H 	H 	0.192	0.8673	0.0837	0.035
Mof_H 	H 	0.2358	0.8837	0.067	0.045
Mof_O 	O 	0.32332	0.36452	0.52922	-0.414
Mof_O 	O 	0.35706	0.39801	0.52935	-0.409
Mof_C 	C 	0.33436	0.38702	0.53836	0.369
Mof_C 	C 	0.31961	0.40196	0.56189	-0.103
Mof_C 	C 	0.29347	0.39265	0.57141	0.009
Mof_H 	H 	0.2845	0.377	0.5622	0.038
Mof_C 	C 	0.2455	0.3977	0.6324	-0.047
Mof_H 	H 	0.2583	0.4073	0.6447	0.044
Mof_C 	C 	0.2197	0.3855	0.6443	-0.038
Mof_H 	H 	0.2164	0.3849	0.6643	0.039
Mof_C 	C 	0.2058	0.3744	0.5968	-0.028
Mof_C 	C 	0.232	0.3847	0.5868	-0.052
Mof_H 	H 	0.192	0.3673	0.5837	0.035
Mof_H 	H 	0.2358	0.3837	0.567	0.046
Mof_O 	O 	0.82332	0.86452	0.52922	-0.414
Mof_O 	O 	0.85706	0.89801	0.52935	-0.408
Mof_C 	C 	0.83436	0.88702	0.53836	0.369
Mof_C 	C 	0.81961	0.90196	0.56189	-0.103
Mof_C 	C 	0.79347	0.89265	0.57141	0.009
Mof_H 	H 	0.7845	0.877	0.5622	0.038
Mof_C 	C 	0.7455	0.8977	0.6324	-0.047
Mof_H 	H 	0.7583	0.9073	0.6447	0.044
Mof_C 	C 	0.7197	0.8855	0.6443	-0.038
Mof_H 	H 	0.7164	0.8849	0.6643	0.039
Mof_C 	C 	0.7058	0.8744	0.5968	-0.028
Mof_C 	C 	0.732	0.8847	0.5868	-0.052
Mof_H 	H 	0.692	0.8673	0.5837	0.035
Mof_H 	H 	0.7358	0.8837	0.567	0.046
Mof_O 	O 	0.82332	0.36452	0.02922	-0.415
Mof_O 	O 	0.85706	0.39801	0.02935	-0.409
Mof_C 	C 	0.83436	0.38702	0.03836	0.369
Mof_C 	C 	0.81961	0.40196	0.06189	-0.104
Mof_C 	C 	0.79347	0.39265	0.07141	0.009
Mof_H 	H 	0.7845	0.377	0.0622	0.038
Mof_C 	C 	0.7455	0.3977	0.1324	-0.047
Mof_H 	H 	0.7583	0.4073	0.1447	0.044
Mof_C 	C 	0.7197	0.3855	0.1443	-0.038
Mof_H 	H 	0.7164	0.3849	0.1643	0.039
Mof_C 	C 	0.7058	0.3744	0.0968	-0.028
Mof_C 	C 	0.732	0.3847	0.0868	-0.052
Mof_H 	H 	0.692	0.3673	0.0837	0.035
Mof_H 	H 	0.7358	0.3837	0.067	0.045
Mof_O 	O 	0.67668	0.13548	0.02922	-0.415
Mof_O 	O 	0.64294	0.10199	0.02935	-0.409
Mof_C 	C 	0.66564	0.11298	0.03836	0.369
Mof_C 	C 	0.68039	0.09804	0.06189	-0.104
Mof_C 	C 	0.70653	0.10735	0.07141	0.009
Mof_H 	H 	0.7155	0.123	0.0622	0.038
Mof_C 	C 	0.7545	0.1023	0.1324	-0.047
Mof_H 	H 	0.7417	0.0927	0.1447	0.044
Mof_C 	C 	0.7803	0.1145	0.1443	-0.038
Mof_H 	H 	0.7836	0.1151	0.1643	0.039
Mof_C 	C 	0.7942	0.1256	0.0968	-0.028
Mof_C 	C 	0.768	0.1153	0.0868	-0.053
Mof_H 	H 	0.808	0.1327	0.0837	0.035
Mof_H 	H 	0.7642	0.1163	0.067	0.045
Mof_O 	O 	0.67668	0.63548	0.52922	-0.414
Mof_O 	O 	0.64294	0.60199	0.52935	-0.409
Mof_C 	C 	0.66564	0.61298	0.53836	0.369
Mof_C 	C 	0.68039	0.59804	0.56189	-0.103
Mof_C 	C 	0.70653	0.60735	0.57141	0.009
Mof_H 	H 	0.7155	0.623	0.5622	0.038
Mof_C 	C 	0.7545	0.6023	0.6324	-0.047
Mof_H 	H 	0.7417	0.5927	0.6447	0.044
Mof_C 	C 	0.7803	0.6145	0.6443	-0.038
Mof_H 	H 	0.7836	0.6151	0.6643	0.039
Mof_C 	C 	0.7942	0.6256	0.5968	-0.028
Mof_C 	C 	0.768	0.6153	0.5868	-0.052
Mof_H 	H 	0.808	0.6327	0.5837	0.035
Mof_H 	H 	0.7642	0.6163	0.567	0.046
Mof_O 	O 	0.17668	0.13548	0.52922	-0.414
Mof_O 	O 	0.14294	0.10199	0.52935	-0.409
Mof_C 	C 	0.16564	0.11298	0.53836	0.369
Mof_C 	C 	0.18039	0.09804	0.56189	-0.103
Mof_C 	C 	0.20653	0.10735	0.57141	0.009
Mof_H 	H 	0.2155	0.123	0.5622	0.038
Mof_C 	C 	0.2545	0.1023	0.6324	-0.047
Mof_H 	H 	0.2417	0.0927	0.6447	0.044
Mof_C 	C 	0.2803	0.1145	0.6443	-0.038
Mof_H 	H 	0.2836	0.1151	0.6643	0.039
Mof_C 	C 	0.2942	0.1256	0.5968	-0.028
Mof_C 	C 	0.268	0.1153	0.5868	-0.053
Mof_H 	H 	0.308	0.1327	0.5837	0.035
Mof_H 	H 	0.2642	0.1163	0.567	0.046
Mof_O 	O 	0.17668	0.63548	0.02922	-0.415
Mof_O 	O 	0.14294	0.60199	0.02935	-0.409
Mof_C 	C 	0.16564	0.61298	0.03836	0.369
Mof_C 	C 	0.18039	0.59804	0.06189	-0.104
Mof_C 	C 	0.20653	0.60735	0.07141	0.009
Mof_H 	H 	0.2155	0.623	0.0622	0.038
Mof_C 	C 	0.2545	0.6023	0.1324	-0.047
Mof_H 	H 	0.2417	0.5927	0.1447	0.044
Mof_C 	C 	0.2803	0.6145	0.1443	-0.038
Mof_H 	H 	0.2836	0.6151	0.1643	0.039
Mof_C 	C 	0.2942	0.6256	0.0968	-0.028
Mof_C 	C 	0.268	0.6153	0.0868	-0.052
Mof_H 	H 	0.308	0.6327	0.0837	0.035
Mof_H 	H 	0.2642	0.6163	0.067	0.045
Mof_O 	O 	0.97078	0.67668	0.86452	-0.413
Mof_O 	O 	0.97065	0.64294	0.89801	-0.407
Mof_C 	C 	0.96164	0.66564	0.88702	0.369
Mof_C 	C 	0.93811	0.68039	0.90196	-0.102
Mof_C 	C 	0.92859	0.70653	0.89265	0.008
Mof_H 	H 	0.9378	0.7155	0.877	0.039
Mof_C 	C 	0.8676	0.7545	0.8977	-0.047
Mof_H 	H 	0.8553	0.7417	0.9073	0.044
Mof_C 	C 	0.8557	0.7803	0.8855	-0.038
Mof_H 	H 	0.8357	0.7836	0.8849	0.039
Mof_C 	C 	0.9032	0.7942	0.8744	-0.028
Mof_C 	C 	0.9132	0.768	0.8847	-0.052
Mof_H 	H 	0.9163	0.808	0.8673	0.035
Mof_H 	H 	0.933	0.7642	0.8837	0.046
Mof_O 	O 	0.97078	0.17668	0.36452	-0.413
Mof_O 	O 	0.97065	0.14294	0.39801	-0.407
Mof_C 	C 	0.96164	0.16564	0.38702	0.369
Mof_C 	C 	0.93811	0.18039	0.40196	-0.103
Mof_C 	C 	0.92859	0.20653	0.39265	0.009
Mof_H 	H 	0.9378	0.2155	0.377	0.039
Mof_C 	C 	0.8676	0.2545	0.3977	-0.047
Mof_H 	H 	0.8553	0.2417	0.4073	0.044
Mof_C 	C 	0.8557	0.2803	0.3855	-0.038
Mof_H 	H 	0.8357	0.2836	0.3849	0.039
Mof_C 	C 	0.9032	0.2942	0.3744	-0.028
Mof_C 	C 	0.9132	0.268	0.3847	-0.052
Mof_H 	H 	0.9163	0.308	0.3673	0.035
Mof_H 	H 	0.933	0.2642	0.3837	0.046
Mof_O 	O 	0.47078	0.67668	0.36452	-0.414
Mof_O 	O 	0.47065	0.64294	0.39801	-0.409
Mof_C 	C 	0.46164	0.66564	0.38702	0.369
Mof_C 	C 	0.43811	0.68039	0.40196	-0.103
Mof_C 	C 	0.42859	0.70653	0.39265	0.009
Mof_H 	H 	0.4378	0.7155	0.377	0.038
Mof_C 	C 	0.3676	0.7545	0.3977	-0.047
Mof_H 	H 	0.3553	0.7417	0.4073	0.044
Mof_C 	C 	0.3557	0.7803	0.3855	-0.038
Mof_H 	H 	0.3357	0.7836	0.3849	0.039
Mof_C 	C 	0.4032	0.7942	0.3744	-0.028
Mof_C 	C 	0.4132	0.768	0.3847	-0.052
Mof_H 	H 	0.4163	0.808	0.3673	0.035
Mof_H 	H 	0.433	0.7642	0.3837	0.046
Mof_O 	O 	0.47078	0.17668	0.86452	-0.414
Mof_O 	O 	0.47065	0.14294	0.89801	-0.408
Mof_C 	C 	0.46164	0.16564	0.88702	0.369
Mof_C 	C 	0.43811	0.18039	0.90196	-0.103
Mof_C 	C 	0.42859	0.20653	0.89265	0.009
Mof_H 	H 	0.4378	0.2155	0.877	0.038
Mof_C 	C 	0.3676	0.2545	0.8977	-0.047
Mof_H 	H 	0.3553	0.2417	0.9073	0.044
Mof_C 	C 	0.3557	0.2803	0.8855	-0.038
Mof_H 	H 	0.3357	0.2836	0.8849	0.039
Mof_C 	C 	0.4032	0.2942	0.8744	-0.028
Mof_C 	C 	0.4132	0.268	0.8847	-0.052
Mof_H 	H 	0.4163	0.308	0.8673	0.035
Mof_H 	H 	0.433	0.2642	0.8837	0.046
Mof_O 	O 	0.97078	0.32332	0.13548	-0.413
Mof_O 	O 	0.97065	0.35706	0.10199	-0.408
Mof_C 	C 	0.96164	0.33436	0.11298	0.369
Mof_C 	C 	0.93811	0.31961	0.09804	-0.103
Mof_C 	C 	0.92859	0.29347	0.10735	0.009
Mof_H 	H 	0.9378	0.2845	0.123	0.039
Mof_C 	C 	0.8676	0.2455	0.1023	-0.047
Mof_H 	H 	0.8553	0.2583	0.0927	0.044
Mof_C 	C 	0.8557	0.2197	0.1145	-0.038
Mof_H 	H 	0.8357	0.2164	0.1151	0.039
Mof_C 	C 	0.9032	0.2058	0.1256	-0.028
Mof_C 	C 	0.9132	0.232	0.1153	-0.053
Mof_H 	H 	0.9163	0.192	0.1327	0.035
Mof_H 	H 	0.933	0.2358	0.1163	0.046
Mof_O 	O 	0.97078	0.82332	0.63548	-0.413
Mof_O 	O 	0.97065	0.85706	0.60199	-0.407
Mof_C 	C 	0.96164	0.83436	0.61298	0.369
Mof_C 	C 	0.93811	0.81961	0.59804	-0.103
Mof_C 	C 	0.92859	0.79347	0.60735	0.008
Mof_H 	H 	0.9378	0.7845	0.623	0.039
Mof_C 	C 	0.8676	0.7455	0.6023	-0.047
Mof_H 	H 	0.8553	0.7583	0.5927	0.044
Mof_C 	C 	0.8557	0.7197	0.6145	-0.038
Mof_H 	H 	0.8357	0.7164	0.6151	0.039
Mof_C 	C 	0.9032	0.7058	0.6256	-0.028
Mof_C 	C 	0.9132	0.732	0.6153	-0.052
Mof_H 	H 	0.9163	0.692	0.6327	0.035
Mof_H 	H 	0.933	0.7358	0.6163	0.046
Mof_O 	O 	0.47078	0.32332	0.63548	-0.414
Mof_O 	O 	0.47065	0.35706	0.60199	-0.409
Mof_C 	C 	0.46164	0.33436	0.61298	0.369
Mof_C 	C 	0.43811	0.31961	0.59804	-0.103
Mof_C 	C 	0.42859	0.29347	0.60735	0.009
Mof_H 	H 	0.4378	0.2845	0.623	0.038
Mof_C 	C 	0.3676	0.2455	0.6023	-0.047
Mof_H 	H 	0.3553	0.2583	0.5927	0.044
Mof_C 	C 	0.3557	0.2197	0.6145	-0.038
Mof_H 	H 	0.3357	0.2164	0.6151	0.039
Mof_C 	C 	0.4032	0.2058	0.6256	-0.028
Mof_C 	C 	0.4132	0.232	0.6153	-0.052
Mof_H 	H 	0.4163	0.192	0.6327	0.035
Mof_H 	H 	0.433	0.2358	0.6163	0.046
Mof_O 	O 	0.47078	0.82332	0.13548	-0.414
Mof_O 	O 	0.47065	0.85706	0.10199	-0.409
Mof_C 	C 	0.46164	0.83436	0.11298	0.369
Mof_C 	C 	0.43811	0.81961	0.09804	-0.103
Mof_C 	C 	0.42859	0.79347	0.10735	0.009
Mof_H 	H 	0.4378	0.7845	0.123	0.038
Mof_C 	C 	0.3676	0.7455	0.1023	-0.047
Mof_H 	H 	0.3553	0.7583	0.0927	0.044
Mof_C 	C 	0.3557	0.7197	0.1145	-0.038
Mof_H 	H 	0.3357	0.7164	0.1151	0.039
Mof_C 	C 	0.4032	0.7058	0.1256	-0.028
Mof_C 	C 	0.4132	0.732	0.1153	-0.053
Mof_H 	H 	0.4163	0.692	0.1327	0.035
Mof_H 	H 	0.433	0.7358	0.1163	0.046
Mof_O 	O 	0.02922	0.32332	0.86452	-0.414
Mof_O 	O 	0.02935	0.35706	0.89801	-0.409
Mof_C 	C 	0.03836	0.33436	0.88702	0.369
Mof_C 	C 	0.06189	0.31961	0.90196	-0.103
Mof_C 	C 	0.07141	0.29347	0.89265	0.009
Mof_H 	H 	0.0622	0.2845	0.877	0.038
Mof_C 	C 	0.1324	0.2455	0.8977	-0.047
Mof_H 	H 	0.1447	0.2583	0.9073	0.044
Mof_C 	C 	0.1443	0.2197	0.8855	-0.038
Mof_H 	H 	0.1643	0.2164	0.8849	0.039
Mof_C 	C 	0.0968	0.2058	0.8744	-0.028
Mof_C 	C 	0.0868	0.232	0.8847	-0.052
Mof_H 	H 	0.0837	0.192	0.8673	0.035
Mof_H 	H 	0.067	0.2358	0.8837	0.045
Mof_O 	O 	0.02922	0.82332	0.36452	-0.415
Mof_O 	O 	0.02935	0.85706	0.39801	-0.409
Mof_C 	C 	0.03836	0.83436	0.38702	0.369
Mof_C 	C 	0.06189	0.81961	0.40196	-0.104
Mof_C 	C 	0.07141	0.79347	0.39265	0.009
Mof_H 	H 	0.0622	0.7845	0.377	0.038
Mof_C 	C 	0.1324	0.7455	0.3977	-0.047
Mof_H 	H 	0.1447	0.7583	0.4073	0.044
Mof_C 	C 	0.1443	0.7197	0.3855	-0.038
Mof_H 	H 	0.1643	0.7164	0.3849	0.039
Mof_C 	C 	0.0968	0.7058	0.3744	-0.028
Mof_C 	C 	0.0868	0.732	0.3847	-0.052
Mof_H 	H 	0.0837	0.692	0.3673	0.035
Mof_H 	H 	0.067	0.7358	0.3837	0.045
Mof_O 	O 	0.52922	0.32332	0.36452	-0.414
Mof_O 	O 	0.52935	0.35706	0.39801	-0.409
Mof_C 	C 	0.53836	0.33436	0.38702	0.369
Mof_C 	C 	0.56189	0.31961	0.40196	-0.103
Mof_C 	C 	0.57141	0.29347	0.39265	0.009
Mof_H 	H 	0.5622	0.2845	0.377	0.038
Mof_C 	C 	0.6324	0.2455	0.3977	-0.047
Mof_H 	H 	0.6447	0.2583	0.4073	0.044
Mof_C 	C 	0.6443	0.2197	0.3855	-0.038
Mof_H 	H 	0.6643	0.2164	0.3849	0.039
Mof_C 	C 	0.5968	0.2058	0.3744	-0.028
Mof_C 	C 	0.5868	0.232	0.3847	-0.052
Mof_H 	H 	0.5837	0.192	0.3673	0.035
Mof_H 	H 	0.567	0.2358	0.3837	0.046
Mof_O 	O 	0.52922	0.82332	0.86452	-0.414
Mof_O 	O 	0.52935	0.85706	0.89801	-0.408
Mof_C 	C 	0.53836	0.83436	0.88702	0.369
Mof_C 	C 	0.56189	0.81961	0.90196	-0.103
Mof_C 	C 	0.57141	0.79347	0.89265	0.009
Mof_H 	H 	0.5622	0.7845	0.877	0.038
Mof_C 	C 	0.6324	0.7455	0.8977	-0.047
Mof_H 	H 	0.6447	0.7583	0.9073	0.044
Mof_C 	C 	0.6443	0.7197	0.8855	-0.038
Mof_H 	H 	0.6643	0.7164	0.8849	0.039
Mof_C 	C 	0.5968	0.7058	0.8744	-0.028
Mof_C 	C 	0.5868	0.732	0.8847	-0.052
Mof_H 	H 	0.5837	0.692	0.8673	0.035
Mof_H 	H 	0.567	0.7358	0.8837	0.046
Mof_O 	O 	0.02922	0.67668	0.13548	-0.415
Mof_O 	O 	0.02935	0.64294	0.10199	-0.409
Mof_C 	C 	0.03836	0.66564	0.11298	0.369
Mof_C 	C 	0.06189	0.68039	0.09804	-0.104
Mof_C 	C 	0.07141	0.70653	0.10735	0.009
Mof_H 	H 	0.0622	0.7155	0.123	0.038
Mof_C 	C 	0.1324	0.7545	0.1023	-0.047
Mof_H 	H 	0.1447	0.7417	0.0927	0.044
Mof_C 	C 	0.1443	0.7803	0.1145	-0.038
Mof_H 	H 	0.1643	0.7836	0.1151	0.039
Mof_C 	C 	0.0968	0.7942	0.1256	-0.028
Mof_C 	C 	0.0868	0.768	0.1153	-0.053
Mof_H 	H 	0.0837	0.808	0.1327	0.035
Mof_H 	H 	0.067	0.7642	0.1163	0.045
Mof_O 	O 	0.02922	0.17668	0.63548	-0.415
Mof_O 	O 	0.02935	0.14294	0.60199	-0.409
Mof_C 	C 	0.03836	0.16564	0.61298	0.369
Mof_C 	C 	0.06189	0.18039	0.59804	-0.104
Mof_C 	C 	0.07141	0.20653	0.60735	0.009
Mof_H 	H 	0.0622	0.2155	0.623	0.038
Mof_C 	C 	0.1324	0.2545	0.6023	-0.047
Mof_H 	H 	0.1447	0.2417	0.5927	0.044
Mof_C 	C 	0.1443	0.2803	0.6145	-0.038
Mof_H 	H 	0.1643	0.2836	0.6151	0.039
Mof_C 	C 	0.0968	0.2942	0.6256	-0.028
Mof_C 	C 	0.0868	0.268	0.6153	-0.052
Mof_H 	H 	0.0837	0.308	0.6327	0.035
Mof_H 	H 	0.067	0.2642	0.6163	0.045
Mof_O 	O 	0.52922	0.67668	0.63548	-0.414
Mof_O 	O 	0.52935	0.64294	0.60199	-0.409
Mof_C 	C 	0.53836	0.66564	0.61298	0.369
Mof_C 	C 	0.56189	0.68039	0.59804	-0.103
Mof_C 	C 	0.57141	0.70653	0.60735	0.009
Mof_H 	H 	0.5622	0.7155	0.623	0.038
Mof_C 	C 	0.6324	0.7545	0.6023	-0.047
Mof_H 	H 	0.6447	0.7417	0.5927	0.044
Mof_C 	C 	0.6443	0.7803	0.6145	-0.038
Mof_H 	H 	0.6643	0.7836	0.6151	0.039
Mof_C 	C 	0.5968	0.7942	0.6256	-0.028
Mof_C 	C 	0.5868	0.768	0.6153	-0.052
Mof_H 	H 	0.5837	0.808	0.6327	0.035
Mof_H 	H 	0.567	0.7642	0.6163	0.046
Mof_O 	O 	0.52922	0.17668	0.13548	-0.414
Mof_O 	O 	0.52935	0.14294	0.10199	-0.409
Mof_C 	C 	0.53836	0.16564	0.11298	0.369
Mof_C 	C 	0.56189	0.18039	0.09804	-0.103
Mof_C 	C 	0.57141	0.20653	0.10735	0.009
Mof_H 	H 	0.5622	0.2155	0.123	0.038
Mof_C 	C 	0.6324	0.2545	0.1023	-0.047
Mof_H 	H 	0.6447	0.2417	0.0927	0.044
Mof_C 	C 	0.6443	0.2803	0.1145	-0.038
Mof_H 	H 	0.6643	0.2836	0.1151	0.039
Mof_C 	C 	0.5968	0.2942	0.1256	-0.028
Mof_C 	C 	0.5868	0.268	0.1153	-0.053
Mof_H 	H 	0.5837	0.308	0.1327	0.035
Mof_H 	H 	0.567	0.2642	0.1163	0.046
Mof_O 	O 	0.86452	0.97078	0.67668	-0.413
Mof_O 	O 	0.89801	0.97065	0.64294	-0.407
Mof_C 	C 	0.88702	0.96164	0.66564	0.369
Mof_C 	C 	0.90196	0.93811	0.68039	-0.102
Mof_C 	C 	0.89265	0.92859	0.70653	0.008
Mof_H 	H 	0.877	0.9378	0.7155	0.039
Mof_C 	C 	0.8977	0.8676	0.7545	-0.047
Mof_H 	H 	0.9073	0.8553	0.7417	0.044
Mof_C 	C 	0.8855	0.8557	0.7803	-0.038
Mof_H 	H 	0.8849	0.8357	0.7836	0.039
Mof_C 	C 	0.8744	0.9032	0.7942	-0.028
Mof_C 	C 	0.8847	0.9132	0.768	-0.052
Mof_H 	H 	0.8673	0.9163	0.808	0.035
Mof_H 	H 	0.8837	0.933	0.7642	0.046
Mof_O 	O 	0.86452	0.47078	0.17668	-0.414
Mof_O 	O 	0.89801	0.47065	0.14294	-0.408
Mof_C 	C 	0.88702	0.46164	0.16564	0.369
Mof_C 	C 	0.90196	0.43811	0.18039	-0.103
Mof_C 	C 	0.89265	0.42859	0.20653	0.009
Mof_H 	H 	0.877	0.4378	0.2155	0.038
Mof_C 	C 	0.8977	0.3676	0.2545	-0.047
Mof_H 	H 	0.9073	0.3553	0.2417	0.044
Mof_C 	C 	0.8855	0.3557	0.2803	-0.038
Mof_H 	H 	0.8849	0.3357	0.2836	0.039
Mof_C 	C 	0.8744	0.4032	0.2942	-0.028
Mof_C 	C 	0.8847	0.4132	0.268	-0.052
Mof_H 	H 	0.8673	0.4163	0.308	0.035
Mof_H 	H 	0.8837	0.433	0.2642	0.046
Mof_O 	O 	0.36452	0.97078	0.17668	-0.413
Mof_O 	O 	0.39801	0.97065	0.14294	-0.407
Mof_C 	C 	0.38702	0.96164	0.16564	0.369
Mof_C 	C 	0.40196	0.93811	0.18039	-0.103
Mof_C 	C 	0.39265	0.92859	0.20653	0.009
Mof_H 	H 	0.377	0.9378	0.2155	0.039
Mof_C 	C 	0.3977	0.8676	0.2545	-0.047
Mof_H 	H 	0.4073	0.8553	0.2417	0.044
Mof_C 	C 	0.3855	0.8557	0.2803	-0.038
Mof_H 	H 	0.3849	0.8357	0.2836	0.039
Mof_C 	C 	0.3744	0.9032	0.2942	-0.028
Mof_C 	C 	0.3847	0.9132	0.268	-0.052
Mof_H 	H 	0.3673	0.9163	0.308	0.035
Mof_H 	H 	0.3837	0.933	0.2642	0.046
Mof_O 	O 	0.36452	0.47078	0.67668	-0.414
Mof_O 	O 	0.39801	0.47065	0.64294	-0.409
Mof_C 	C 	0.38702	0.46164	0.66564	0.369
Mof_C 	C 	0.40196	0.43811	0.68039	-0.103
Mof_C 	C 	0.39265	0.42859	0.70653	0.009
Mof_H 	H 	0.377	0.4378	0.7155	0.038
Mof_C 	C 	0.3977	0.3676	0.7545	-0.047
Mof_H 	H 	0.4073	0.3553	0.7417	0.044
Mof_C 	C 	0.3855	0.3557	0.7803	-0.038
Mof_H 	H 	0.3849	0.3357	0.7836	0.039
Mof_C 	C 	0.3744	0.4032	0.7942	-0.028
Mof_C 	C 	0.3847	0.4132	0.768	-0.052
Mof_H 	H 	0.3673	0.4163	0.808	0.035
Mof_H 	H 	0.3837	0.433	0.7642	0.046
Mof_O 	O 	0.13548	0.97078	0.32332	-0.413
Mof_O 	O 	0.10199	0.97065	0.35706	-0.408
Mof_C 	C 	0.11298	0.96164	0.33436	0.369
Mof_C 	C 	0.09804	0.93811	0.31961	-0.103
Mof_C 	C 	0.10735	0.92859	0.29347	0.009
Mof_H 	H 	0.123	0.9378	0.2845	0.039
Mof_C 	C 	0.1023	0.8676	0.2455	-0.047
Mof_H 	H 	0.0927	0.8553	0.2583	0.044
Mof_C 	C 	0.1145	0.8557	0.2197	-0.038
Mof_H 	H 	0.1151	0.8357	0.2164	0.039
Mof_C 	C 	0.1256	0.9032	0.2058	-0.028
Mof_C 	C 	0.1153	0.9132	0.232	-0.053
Mof_H 	H 	0.1327	0.9163	0.192	0.035
Mof_H 	H 	0.1163	0.933	0.2358	0.046
Mof_O 	O 	0.13548	0.47078	0.82332	-0.414
Mof_O 	O 	0.10199	0.47065	0.85706	-0.409
Mof_C 	C 	0.11298	0.46164	0.83436	0.369
Mof_C 	C 	0.09804	0.43811	0.81961	-0.103
Mof_C 	C 	0.10735	0.42859	0.79347	0.009
Mof_H 	H 	0.123	0.4378	0.7845	0.038
Mof_C 	C 	0.1023	0.3676	0.7455	-0.047
Mof_H 	H 	0.0927	0.3553	0.7583	0.044
Mof_C 	C 	0.1145	0.3557	0.7197	-0.038
Mof_H 	H 	0.1151	0.3357	0.7164	0.039
Mof_C 	C 	0.1256	0.4032	0.7058	-0.028
Mof_C 	C 	0.1153	0.4132	0.732	-0.053
Mof_H 	H 	0.1327	0.4163	0.692	0.035
Mof_H 	H 	0.1163	0.433	0.7358	0.046
Mof_O 	O 	0.63548	0.97078	0.82332	-0.413
Mof_O 	O 	0.60199	0.97065	0.85706	-0.407
Mof_C 	C 	0.61298	0.96164	0.83436	0.369
Mof_C 	C 	0.59804	0.93811	0.81961	-0.103
Mof_C 	C 	0.60735	0.92859	0.79347	0.008
Mof_H 	H 	0.623	0.9378	0.7845	0.039
Mof_C 	C 	0.6023	0.8676	0.7455	-0.047
Mof_H 	H 	0.5927	0.8553	0.7583	0.044
Mof_C 	C 	0.6145	0.8557	0.7197	-0.038
Mof_H 	H 	0.6151	0.8357	0.7164	0.039
Mof_C 	C 	0.6256	0.9032	0.7058	-0.028
Mof_C 	C 	0.6153	0.9132	0.732	-0.052
Mof_H 	H 	0.6327	0.9163	0.692	0.035
Mof_H 	H 	0.6163	0.933	0.7358	0.046
Mof_O 	O 	0.63548	0.47078	0.32332	-0.414
Mof_O 	O 	0.60199	0.47065	0.35706	-0.409
Mof_C 	C 	0.61298	0.46164	0.33436	0.369
Mof_C 	C 	0.59804	0.43811	0.31961	-0.103
Mof_C 	C 	0.60735	0.42859	0.29347	0.009
Mof_H 	H 	0.623	0.4378	0.2845	0.038
Mof_C 	C 	0.6023	0.3676	0.2455	-0.047
Mof_H 	H 	0.5927	0.3553	0.2583	0.044
Mof_C 	C 	0.6145	0.3557	0.2197	-0.038
Mof_H 	H 	0.6151	0.3357	0.2164	0.039
Mof_C 	C 	0.6256	0.4032	0.2058	-0.028
Mof_C 	C 	0.6153	0.4132	0.232	-0.052
Mof_H 	H 	0.6327	0.4163	0.192	0.035
Mof_H 	H 	0.6163	0.433	0.2358	0.046
Mof_O 	O 	0.86452	0.02922	0.32332	-0.414
Mof_O 	O 	0.89801	0.02935	0.35706	-0.409
Mof_C 	C 	0.88702	0.03836	0.33436	0.369
Mof_C 	C 	0.90196	0.06189	0.31961	-0.103
Mof_C 	C 	0.89265	0.07141	0.29347	0.009
Mof_H 	H 	0.877	0.0622	0.2845	0.038
Mof_C 	C 	0.8977	0.1324	0.2455	-0.047
Mof_H 	H 	0.9073	0.1447	0.2583	0.044
Mof_C 	C 	0.8855	0.1443	0.2197	-0.038
Mof_H 	H 	0.8849	0.1643	0.2164	0.039
Mof_C 	C 	0.8744	0.0968	0.2058	-0.028
Mof_C 	C 	0.8847	0.0868	0.232	-0.052
Mof_H 	H 	0.8673	0.0837	0.192	0.035
Mof_H 	H 	0.8837	0.067	0.2358	0.045
Mof_O 	O 	0.86452	0.52922	0.82332	-0.414
Mof_O 	O 	0.89801	0.52935	0.85706	-0.408
Mof_C 	C 	0.88702	0.53836	0.83436	0.369
Mof_C 	C 	0.90196	0.56189	0.81961	-0.103
Mof_C 	C 	0.89265	0.57141	0.79347	0.009
Mof_H 	H 	0.877	0.5622	0.7845	0.038
Mof_C 	C 	0.8977	0.6324	0.7455	-0.047
Mof_H 	H 	0.9073	0.6447	0.7583	0.044
Mof_C 	C 	0.8855	0.6443	0.7197	-0.038
Mof_H 	H 	0.8849	0.6643	0.7164	0.039
Mof_C 	C 	0.8744	0.5968	0.7058	-0.028
Mof_C 	C 	0.8847	0.5868	0.732	-0.052
Mof_H 	H 	0.8673	0.5837	0.692	0.035
Mof_H 	H 	0.8837	0.567	0.7358	0.046
Mof_O 	O 	0.36452	0.02922	0.82332	-0.415
Mof_O 	O 	0.39801	0.02935	0.85706	-0.409
Mof_C 	C 	0.38702	0.03836	0.83436	0.369
Mof_C 	C 	0.40196	0.06189	0.81961	-0.104
Mof_C 	C 	0.39265	0.07141	0.79347	0.009
Mof_H 	H 	0.377	0.0622	0.7845	0.038
Mof_C 	C 	0.3977	0.1324	0.7455	-0.047
Mof_H 	H 	0.4073	0.1447	0.7583	0.044
Mof_C 	C 	0.3855	0.1443	0.7197	-0.038
Mof_H 	H 	0.3849	0.1643	0.7164	0.039
Mof_C 	C 	0.3744	0.0968	0.7058	-0.028
Mof_C 	C 	0.3847	0.0868	0.732	-0.052
Mof_H 	H 	0.3673	0.0837	0.692	0.035
Mof_H 	H 	0.3837	0.067	0.7358	0.045
Mof_O 	O 	0.36452	0.52922	0.32332	-0.414
Mof_O 	O 	0.39801	0.52935	0.35706	-0.409
Mof_C 	C 	0.38702	0.53836	0.33436	0.369
Mof_C 	C 	0.40196	0.56189	0.31961	-0.103
Mof_C 	C 	0.39265	0.57141	0.29347	0.009
Mof_H 	H 	0.377	0.5622	0.2845	0.038
Mof_C 	C 	0.3977	0.6324	0.2455	-0.047
Mof_H 	H 	0.4073	0.6447	0.2583	0.044
Mof_C 	C 	0.3855	0.6443	0.2197	-0.038
Mof_H 	H 	0.3849	0.6643	0.2164	0.039
Mof_C 	C 	0.3744	0.5968	0.2058	-0.028
Mof_C 	C 	0.3847	0.5868	0.232	-0.052
Mof_H 	H 	0.3673	0.5837	0.192	0.035
Mof_H 	H 	0.3837	0.567	0.2358	0.046
Mof_O 	O 	0.13548	0.02922	0.67668	-0.415
Mof_O 	O 	0.10199	0.02935	0.64294	-0.409
Mof_C 	C 	0.11298	0.03836	0.66564	0.369
Mof_C 	C 	0.09804	0.06189	0.68039	-0.104
Mof_C 	C 	0.10735	0.07141	0.70653	0.009
Mof_H 	H 	0.123	0.0622	0.7155	0.038
Mof_C 	C 	0.1023	0.1324	0.7545	-0.047
Mof_H 	H 	0.0927	0.1447	0.7417	0.044
Mof_C 	C 	0.1145	0.1443	0.7803	-0.038
Mof_H 	H 	0.1151	0.1643	0.7836	0.039
Mof_C 	C 	0.1256	0.0968	0.7942	-0.028
Mof_C 	C 	0.1153	0.0868	0.768	-0.053
Mof_H 	H 	0.1327	0.0837	0.808	0.035
Mof_H 	H 	0.1163	0.067	0.7642	0.045
Mof_O 	O 	0.13548	0.52922	0.17668	-0.414
Mof_O 	O 	0.10199	0.52935	0.14294	-0.409
Mof_C 	C 	0.11298	0.53836	0.16564	0.369
Mof_C 	C 	0.09804	0.56189	0.18039	-0.103
Mof_C 	C 	0.10735	0.57141	0.20653	0.009
Mof_H 	H 	0.123	0.5622	0.2155	0.038
Mof_C 	C 	0.1023	0.6324	0.2545	-0.047
Mof_H 	H 	0.0927	0.6447	0.2417	0.044
Mof_C 	C 	0.1145	0.6443	0.2803	-0.038
Mof_H 	H 	0.1151	0.6643	0.2836	0.039
Mof_C 	C 	0.1256	0.5968	0.2942	-0.028
Mof_C 	C 	0.1153	0.5868	0.268	-0.053
Mof_H 	H 	0.1327	0.5837	0.308	0.035
Mof_H 	H 	0.1163	0.567	0.2642	0.046
Mof_O 	O 	0.63548	0.02922	0.17668	-0.415
Mof_O 	O 	0.60199	0.02935	0.14294	-0.409
Mof_C 	C 	0.61298	0.03836	0.16564	0.369
Mof_C 	C 	0.59804	0.06189	0.18039	-0.104
Mof_C 	C 	0.60735	0.07141	0.20653	0.009
Mof_H 	H 	0.623	0.0622	0.2155	0.038
Mof_C 	C 	0.6023	0.1324	0.2545	-0.047
Mof_H 	H 	0.5927	0.1447	0.2417	0.044
Mof_C 	C 	0.6145	0.1443	0.2803	-0.038
Mof_H 	H 	0.6151	0.1643	0.2836	0.039
Mof_C 	C 	0.6256	0.0968	0.2942	-0.028
Mof_C 	C 	0.6153	0.0868	0.268	-0.052
Mof_H 	H 	0.6327	0.0837	0.308	0.035
Mof_H 	H 	0.6163	0.067	0.2642	0.045
Mof_O 	O 	0.63548	0.52922	0.67668	-0.414
Mof_O 	O 	0.60199	0.52935	0.64294	-0.409
Mof_C 	C 	0.61298	0.53836	0.66564	0.369
Mof_C 	C 	0.59804	0.56189	0.68039	-0.103
Mof_C 	C 	0.60735	0.57141	0.70653	0.009
Mof_H 	H 	0.623	0.5622	0.7155	0.038
Mof_C 	C 	0.6023	0.6324	0.7545	-0.047
Mof_H 	H 	0.5927	0.6447	0.7417	0.044
Mof_C 	C 	0.6145	0.6443	0.7803	-0.038
Mof_H 	H 	0.6151	0.6643	0.7836	0.039
Mof_C 	C 	0.6256	0.5968	0.7942	-0.028
Mof_C 	C 	0.6153	0.5868	0.768	-0.052
Mof_H 	H 	0.6327	0.5837	0.808	0.035
Mof_H 	H 	0.6163	0.567	0.7642	0.046
Mof_O 	O 	0.86452	0.67668	0.02922	-0.414
Mof_O 	O 	0.89801	0.64294	0.02935	-0.409
Mof_C 	C 	0.88702	0.66564	0.03836	0.369
Mof_C 	C 	0.90196	0.68039	0.06189	-0.103
Mof_C 	C 	0.89265	0.70653	0.07141	0.009
Mof_H 	H 	0.877	0.7155	0.0622	0.038
Mof_C 	C 	0.8977	0.7545	0.1324	-0.047
Mof_H 	H 	0.9073	0.7417	0.1447	0.044
Mof_C 	C 	0.8855	0.7803	0.1443	-0.038
Mof_H 	H 	0.8849	0.7836	0.1643	0.039
Mof_C 	C 	0.8744	0.7942	0.0968	-0.028
Mof_C 	C 	0.8847	0.768	0.0868	-0.052
Mof_H 	H 	0.8673	0.808	0.0837	0.035
Mof_H 	H 	0.8837	0.7642	0.067	0.045
Mof_O 	O 	0.86452	0.17668	0.52922	-0.414
Mof_O 	O 	0.89801	0.14294	0.52935	-0.408
Mof_C 	C 	0.88702	0.16564	0.53836	0.369
Mof_C 	C 	0.90196	0.18039	0.56189	-0.103
Mof_C 	C 	0.89265	0.20653	0.57141	0.009
Mof_H 	H 	0.877	0.2155	0.5622	0.038
Mof_C 	C 	0.8977	0.2545	0.6324	-0.047
Mof_H 	H 	0.9073	0.2417	0.6447	0.044
Mof_C 	C 	0.8855	0.2803	0.6443	-0.038
Mof_H 	H 	0.8849	0.2836	0.6643	0.039
Mof_C 	C 	0.8744	0.2942	0.5968	-0.028
Mof_C 	C 	0.8847	0.268	0.5868	-0.052
Mof_H 	H 	0.8673	0.308	0.5837	0.035
Mof_H 	H 	0.8837	0.2642	0.567	0.046
Mof_O 	O 	0.36452	0.67668	0.52922	-0.414
Mof_O 	O 	0.39801	0.64294	0.52935	-0.409
Mof_C 	C 	0.38702	0.66564	0.53836	0.369
Mof_C 	C 	0.40196	0.68039	0.56189	-0.103
Mof_C 	C 	0.39265	0.70653	0.57141	0.009
Mof_H 	H 	0.377	0.7155	0.5622	0.038
Mof_C 	C 	0.3977	0.7545	0.6324	-0.047
Mof_H 	H 	0.4073	0.7417	0.6447	0.044
Mof_C 	C 	0.3855	0.7803	0.6443	-0.038
Mof_H 	H 	0.3849	0.7836	0.6643	0.039
Mof_C 	C 	0.3744	0.7942	0.5968	-0.028
Mof_C 	C 	0.3847	0.768	0.5868	-0.052
Mof_H 	H 	0.3673	0.808	0.5837	0.035
Mof_H 	H 	0.3837	0.7642	0.567	0.046
Mof_O 	O 	0.36452	0.17668	0.02922	-0.415
Mof_O 	O 	0.39801	0.14294	0.02935	-0.409
Mof_C 	C 	0.38702	0.16564	0.03836	0.369
Mof_C 	C 	0.40196	0.18039	0.06189	-0.104
Mof_C 	C 	0.39265	0.20653	0.07141	0.009
Mof_H 	H 	0.377	0.2155	0.0622	0.038
Mof_C 	C 	0.3977	0.2545	0.1324	-0.047
Mof_H 	H 	0.4073	0.2417	0.1447	0.044
Mof_C 	C 	0.3855	0.2803	0.1443	-0.038
Mof_H 	H 	0.3849	0.2836	0.1643	0.039
Mof_C 	C 	0.3744	0.2942	0.0968	-0.028
Mof_C 	C 	0.3847	0.268	0.0868	-0.052
Mof_H 	H 	0.3673	0.308	0.0837	0.035
Mof_H 	H 	0.3837	0.2642	0.067	0.045
Mof_O 	O 	0.13548	0.32332	0.02922	-0.415
Mof_O 	O 	0.10199	0.35706	0.02935	-0.409
Mof_C 	C 	0.11298	0.33436	0.03836	0.369
Mof_C 	C 	0.09804	0.31961	0.06189	-0.104
Mof_C 	C 	0.10735	0.29347	0.07141	0.009
Mof_H 	H 	0.123	0.2845	0.0622	0.038
Mof_C 	C 	0.1023	0.2455	0.1324	-0.047
Mof_H 	H 	0.0927	0.2583	0.1447	0.044
Mof_C 	C 	0.1145	0.2197	0.1443	-0.038
Mof_H 	H 	0.1151	0.2164	0.1643	0.039
Mof_C 	C 	0.1256	0.2058	0.0968	-0.028
Mof_C 	C 	0.1153	0.232	0.0868	-0.053
Mof_H 	H 	0.1327	0.192	0.0837	0.034
Mof_H 	H 	0.1163	0.2358	0.067	0.045
Mof_O 	O 	0.13548	0.82332	0.52922	-0.414
Mof_O 	O 	0.10199	0.85706	0.52935	-0.409
Mof_C 	C 	0.11298	0.83436	0.53836	0.369
Mof_C 	C 	0.09804	0.81961	0.56189	-0.103
Mof_C 	C 	0.10735	0.79347	0.57141	0.009
Mof_H 	H 	0.123	0.7845	0.5622	0.038
Mof_C 	C 	0.1023	0.7455	0.6324	-0.047
Mof_H 	H 	0.0927	0.7583	0.6447	0.044
Mof_C 	C 	0.1145	0.7197	0.6443	-0.038
Mof_H 	H 	0.1151	0.7164	0.6643	0.039
Mof_C 	C 	0.1256	0.7058	0.5968	-0.028
Mof_C 	C 	0.1153	0.732	0.5868	-0.053
Mof_H 	H 	0.1327	0.692	0.5837	0.035
Mof_H 	H 	0.1163	0.7358	0.567	0.046
Mof_O 	O 	0.63548	0.32332	0.52922	-0.414
Mof_O 	O 	0.60199	0.35706	0.52935	-0.409
Mof_C 	C 	0.61298	0.33436	0.53836	0.369
Mof_C 	C 	0.59804	0.31961	0.56189	-0.103
Mof_C 	C 	0.60735	0.29347	0.57141	0.009
Mof_H 	H 	0.623	0.2845	0.5622	0.038
Mof_C 	C 	0.6023	0.2455	0.6324	-0.047
Mof_H 	H 	0.5927	0.2583	0.6447	0.044
Mof_C 	C 	0.6145	0.2197	0.6443	-0.038
Mof_H 	H 	0.6151	0.2164	0.6643	0.039
Mof_C 	C 	0.6256	0.2058	0.5968	-0.028
Mof_C 	C 	0.6153	0.232	0.5868	-0.052
Mof_H 	H 	0.6327	0.192	0.5837	0.035
Mof_H 	H 	0.6163	0.2358	0.567	0.046
Mof_O 	O 	0.63548	0.82332	0.02922	-0.415
Mof_O 	O 	0.60199	0.85706	0.02935	-0.409
Mof_C 	C 	0.61298	0.83436	0.03836	0.369
Mof_C 	C 	0.59804	0.81961	0.06189	-0.104
Mof_C 	C 	0.60735	0.79347	0.07141	0.009
Mof_H 	H 	0.623	0.7845	0.0622	0.038
Mof_C 	C 	0.6023	0.7455	0.1324	-0.047
Mof_H 	H 	0.5927	0.7583	0.1447	0.044
Mof_C 	C 	0.6145	0.7197	0.1443	-0.038
Mof_H 	H 	0.6151	0.7164	0.1643	0.039
Mof_C 	C 	0.6256	0.7058	0.0968	-0.028
Mof_C 	C 	0.6153	0.732	0.0868	-0.052
Mof_H 	H 	0.6327	0.692	0.0837	0.035
Mof_H 	H 	0.6163	0.7358	0.067	0.045
Mof_O 	O 	0.86452	0.32332	0.97078	-0.413
Mof_O 	O 	0.89801	0.35706	0.97065	-0.407
Mof_C 	C 	0.88702	0.33436	0.96164	0.369
Mof_C 	C 	0.90196	0.31961	0.93811	-0.102
Mof_C 	C 	0.89265	0.29347	0.92859	0.008
Mof_H 	H 	0.877	0.2845	0.9378	0.039
Mof_C 	C 	0.8977	0.2455	0.8676	-0.047
Mof_H 	H 	0.9073	0.2583	0.8553	0.044
Mof_C 	C 	0.8855	0.2197	0.8557	-0.038
Mof_H 	H 	0.8849	0.2164	0.8357	0.039
Mof_C 	C 	0.8744	0.2058	0.9032	-0.028
Mof_C 	C 	0.8847	0.232	0.9132	-0.052
Mof_H 	H 	0.8673	0.192	0.9163	0.035
Mof_H 	H 	0.8837	0.2358	0.933	0.046
Mof_O 	O 	0.86452	0.82332	0.47078	-0.414
Mof_O 	O 	0.89801	0.85706	0.47065	-0.408
Mof_C 	C 	0.88702	0.83436	0.46164	0.369
Mof_C 	C 	0.90196	0.81961	0.43811	-0.103
Mof_C 	C 	0.89265	0.79347	0.42859	0.009
Mof_H 	H 	0.877	0.7845	0.4378	0.038
Mof_C 	C 	0.8977	0.7455	0.3676	-0.047
Mof_H 	H 	0.9073	0.7583	0.3553	0.044
Mof_C 	C 	0.8855	0.7197	0.3557	-0.038
Mof_H 	H 	0.8849	0.7164	0.3357	0.039
Mof_C 	C 	0.8744	0.7058	0.4032	-0.028
Mof_C 	C 	0.8847	0.732	0.4132	-0.052
Mof_H 	H 	0.8673	0.692	0.4163	0.035
Mof_H 	H 	0.8837	0.7358	0.433	0.046
Mof_O 	O 	0.36452	0.32332	0.47078	-0.414
Mof_O 	O 	0.39801	0.35706	0.47065	-0.409
Mof_C 	C 	0.38702	0.33436	0.46164	0.369
Mof_C 	C 	0.40196	0.31961	0.43811	-0.103
Mof_C 	C 	0.39265	0.29347	0.42859	0.009
Mof_H 	H 	0.377	0.2845	0.4378	0.038
Mof_C 	C 	0.3977	0.2455	0.3676	-0.047
Mof_H 	H 	0.4073	0.2583	0.3553	0.044
Mof_C 	C 	0.3855	0.2197	0.3557	-0.038
Mof_H 	H 	0.3849	0.2164	0.3357	0.039
Mof_C 	C 	0.3744	0.2058	0.4032	-0.028
Mof_C 	C 	0.3847	0.232	0.4132	-0.052
Mof_H 	H 	0.3673	0.192	0.4163	0.035
Mof_H 	H 	0.3837	0.2358	0.433	0.046
Mof_O 	O 	0.36452	0.82332	0.97078	-0.413
Mof_O 	O 	0.39801	0.85706	0.97065	-0.407
Mof_C 	C 	0.38702	0.83436	0.96164	0.369
Mof_C 	C 	0.40196	0.81961	0.93811	-0.103
Mof_C 	C 	0.39265	0.79347	0.92859	0.008
Mof_H 	H 	0.377	0.7845	0.9378	0.039
Mof_C 	C 	0.3977	0.7455	0.8676	-0.047
Mof_H 	H 	0.4073	0.7583	0.8553	0.044
Mof_C 	C 	0.3855	0.7197	0.8557	-0.038
Mof_H 	H 	0.3849	0.7164	0.8357	0.039
Mof_C 	C 	0.3744	0.7058	0.9032	-0.028
Mof_C 	C 	0.3847	0.732	0.9132	-0.052
Mof_H 	H 	0.3673	0.692	0.9163	0.035
Mof_H 	H 	0.3837	0.7358	0.933	0.046
Mof_O 	O 	0.13548	0.67668	0.97078	-0.413
Mof_O 	O 	0.10199	0.64294	0.97065	-0.408
Mof_C 	C 	0.11298	0.66564	0.96164	0.369
Mof_C 	C 	0.09804	0.68039	0.93811	-0.103
Mof_C 	C 	0.10735	0.70653	0.92859	0.009
Mof_H 	H 	0.123	0.7155	0.9378	0.039
Mof_C 	C 	0.1023	0.7545	0.8676	-0.047
Mof_H 	H 	0.0927	0.7417	0.8553	0.044
Mof_C 	C 	0.1145	0.7803	0.8557	-0.038
Mof_H 	H 	0.1151	0.7836	0.8357	0.039
Mof_C 	C 	0.1256	0.7942	0.9032	-0.028
Mof_C 	C 	0.1153	0.768	0.9132	-0.053
Mof_H 	H 	0.1327	0.808	0.9163	0.035
Mof_H 	H 	0.1163	0.7642	0.933	0.046
Mof_O 	O 	0.13548	0.17668	0.47078	-0.414
Mof_O 	O 	0.10199	0.14294	0.47065	-0.409
Mof_C 	C 	0.11298	0.16564	0.46164	0.369
Mof_C 	C 	0.09804	0.18039	0.43811	-0.103
Mof_C 	C 	0.10735	0.20653	0.42859	0.009
Mof_H 	H 	0.123	0.2155	0.4378	0.038
Mof_C 	C 	0.1023	0.2545	0.3676	-0.047
Mof_H 	H 	0.0927	0.2417	0.3553	0.044
Mof_C 	C 	0.1145	0.2803	0.3557	-0.038
Mof_H 	H 	0.1151	0.2836	0.3357	0.039
Mof_C 	C 	0.1256	0.2942	0.4032	-0.028
Mof_C 	C 	0.1153	0.268	0.4132	-0.053
Mof_H 	H 	0.1327	0.308	0.4163	0.035
Mof_H 	H 	0.1163	0.2642	0.433	0.046
Mof_O 	O 	0.63548	0.67668	0.47078	-0.414
Mof_O 	O 	0.60199	0.64294	0.47065	-0.409
Mof_C 	C 	0.61298	0.66564	0.46164	0.369
Mof_C 	C 	0.59804	0.68039	0.43811	-0.103
Mof_C 	C 	0.60735	0.70653	0.42859	0.009
Mof_H 	H 	0.623	0.7155	0.4378	0.038
Mof_C 	C 	0.6023	0.7545	0.3676	-0.047
Mof_H 	H 	0.5927	0.7417	0.3553	0.044
Mof_C 	C 	0.6145	0.7803	0.3557	-0.038
Mof_H 	H 	0.6151	0.7836	0.3357	0.039
Mof_C 	C 	0.6256	0.7942	0.4032	-0.028
Mof_C 	C 	0.6153	0.768	0.4132	-0.052
Mof_H 	H 	0.6327	0.808	0.4163	0.035
Mof_H 	H 	0.6163	0.7642	0.433	0.046
Mof_O 	O 	0.63548	0.17668	0.97078	-0.413
Mof_O 	O 	0.60199	0.14294	0.97065	-0.407
Mof_C 	C 	0.61298	0.16564	0.96164	0.369
Mof_C 	C 	0.59804	0.18039	0.93811	-0.103
Mof_C 	C 	0.60735	0.20653	0.92859	0.009
Mof_H 	H 	0.623	0.2155	0.9378	0.039
Mof_C 	C 	0.6023	0.2545	0.8676	-0.047
Mof_H 	H 	0.5927	0.2417	0.8553	0.044
Mof_C 	C 	0.6145	0.2803	0.8557	-0.038
Mof_H 	H 	0.6151	0.2836	0.8357	0.039
Mof_C 	C 	0.6256	0.2942	0.9032	-0.028
Mof_C 	C 	0.6153	0.268	0.9132	-0.052
Mof_H 	H 	0.6327	0.308	0.9163	0.035
Mof_H 	H 	0.6163	0.2642	0.933	0.046
Mof_O 	O 	0.67668	0.97078	0.13548	-0.413
Mof_O 	O 	0.64294	0.97065	0.10199	-0.408
Mof_C 	C 	0.66564	0.96164	0.11298	0.369
Mof_C 	C 	0.68039	0.93811	0.09804	-0.103
Mof_C 	C 	0.70653	0.92859	0.10735	0.009
Mof_H 	H 	0.7155	0.9378	0.123	0.039
Mof_C 	C 	0.7545	0.8676	0.1023	-0.047
Mof_H 	H 	0.7417	0.8553	0.0927	0.044
Mof_C 	C 	0.7803	0.8557	0.1145	-0.038
Mof_H 	H 	0.7836	0.8357	0.1151	0.039
Mof_C 	C 	0.7942	0.9032	0.1256	-0.028
Mof_C 	C 	0.768	0.9132	0.1153	-0.053
Mof_H 	H 	0.808	0.9163	0.1327	0.035
Mof_H 	H 	0.7642	0.933	0.1163	0.046
Mof_O 	O 	0.67668	0.47078	0.63548	-0.414
Mof_O 	O 	0.64294	0.47065	0.60199	-0.409
Mof_C 	C 	0.66564	0.46164	0.61298	0.369
Mof_C 	C 	0.68039	0.43811	0.59804	-0.103
Mof_C 	C 	0.70653	0.42859	0.60735	0.009
Mof_H 	H 	0.7155	0.4378	0.623	0.038
Mof_C 	C 	0.7545	0.3676	0.6023	-0.047
Mof_H 	H 	0.7417	0.3553	0.5927	0.044
Mof_C 	C 	0.7803	0.3557	0.6145	-0.038
Mof_H 	H 	0.7836	0.3357	0.6151	0.039
Mof_C 	C 	0.7942	0.4032	0.6256	-0.028
Mof_C 	C 	0.768	0.4132	0.6153	-0.052
Mof_H 	H 	0.808	0.4163	0.6327	0.035
Mof_H 	H 	0.7642	0.433	0.6163	0.046
Mof_O 	O 	0.17668	0.97078	0.63548	-0.413
Mof_O 	O 	0.14294	0.97065	0.60199	-0.407
Mof_C 	C 	0.16564	0.96164	0.61298	0.369
Mof_C 	C 	0.18039	0.93811	0.59804	-0.103
Mof_C 	C 	0.20653	0.92859	0.60735	0.009
Mof_H 	H 	0.2155	0.9378	0.623	0.039
Mof_C 	C 	0.2545	0.8676	0.6023	-0.047
Mof_H 	H 	0.2417	0.8553	0.5927	0.044
Mof_C 	C 	0.2803	0.8557	0.6145	-0.038
Mof_H 	H 	0.2836	0.8357	0.6151	0.039
Mof_C 	C 	0.2942	0.9032	0.6256	-0.028
Mof_C 	C 	0.268	0.9132	0.6153	-0.052
Mof_H 	H 	0.308	0.9163	0.6327	0.035
Mof_H 	H 	0.2642	0.933	0.6163	0.046
Mof_O 	O 	0.17668	0.47078	0.13548	-0.414
Mof_O 	O 	0.14294	0.47065	0.10199	-0.409
Mof_C 	C 	0.16564	0.46164	0.11298	0.369
Mof_C 	C 	0.18039	0.43811	0.09804	-0.103
Mof_C 	C 	0.20653	0.42859	0.10735	0.009
Mof_H 	H 	0.2155	0.4378	0.123	0.038
Mof_C 	C 	0.2545	0.3676	0.1023	-0.047
Mof_H 	H 	0.2417	0.3553	0.0927	0.044
Mof_C 	C 	0.2803	0.3557	0.1145	-0.038
Mof_H 	H 	0.2836	0.3357	0.1151	0.039
Mof_C 	C 	0.2942	0.4032	0.1256	-0.028
Mof_C 	C 	0.268	0.4132	0.1153	-0.053
Mof_H 	H 	0.308	0.4163	0.1327	0.035
Mof_H 	H 	0.2642	0.433	0.1163	0.046
Mof_O 	O 	0.32332	0.97078	0.86452	-0.413
Mof_O 	O 	0.35706	0.97065	0.89801	-0.407
Mof_C 	C 	0.33436	0.96164	0.88702	0.369
Mof_C 	C 	0.31961	0.93811	0.90196	-0.102
Mof_C 	C 	0.29347	0.92859	0.89265	0.008
Mof_H 	H 	0.2845	0.9378	0.877	0.039
Mof_C 	C 	0.2455	0.8676	0.8977	-0.047
Mof_H 	H 	0.2583	0.8553	0.9073	0.044
Mof_C 	C 	0.2197	0.8557	0.8855	-0.038
Mof_H 	H 	0.2164	0.8357	0.8849	0.039
Mof_C 	C 	0.2058	0.9032	0.8744	-0.028
Mof_C 	C 	0.232	0.9132	0.8847	-0.052
Mof_H 	H 	0.192	0.9163	0.8673	0.035
Mof_H 	H 	0.2358	0.933	0.8837	0.046
Mof_O 	O 	0.32332	0.47078	0.36452	-0.414
Mof_O 	O 	0.35706	0.47065	0.39801	-0.409
Mof_C 	C 	0.33436	0.46164	0.38702	0.369
Mof_C 	C 	0.31961	0.43811	0.40196	-0.103
Mof_C 	C 	0.29347	0.42859	0.39265	0.009
Mof_H 	H 	0.2845	0.4378	0.377	0.038
Mof_C 	C 	0.2455	0.3676	0.3977	-0.047
Mof_H 	H 	0.2583	0.3553	0.4073	0.044
Mof_C 	C 	0.2197	0.3557	0.3855	-0.038
Mof_H 	H 	0.2164	0.3357	0.3849	0.039
Mof_C 	C 	0.2058	0.4032	0.3744	-0.028
Mof_C 	C 	0.232	0.4132	0.3847	-0.052
Mof_H 	H 	0.192	0.4163	0.3673	0.035
Mof_H 	H 	0.2358	0.433	0.3837	0.046
Mof_O 	O 	0.82332	0.97078	0.36452	-0.413
Mof_O 	O 	0.85706	0.97065	0.39801	-0.407
Mof_C 	C 	0.83436	0.96164	0.38702	0.369
Mof_C 	C 	0.81961	0.93811	0.40196	-0.103
Mof_C 	C 	0.79347	0.92859	0.39265	0.008
Mof_H 	H 	0.7845	0.9378	0.377	0.039
Mof_C 	C 	0.7455	0.8676	0.3977	-0.047
Mof_H 	H 	0.7583	0.8553	0.4073	0.044
Mof_C 	C 	0.7197	0.8557	0.3855	-0.038
Mof_H 	H 	0.7164	0.8357	0.3849	0.039
Mof_C 	C 	0.7058	0.9032	0.3744	-0.028
Mof_C 	C 	0.732	0.9132	0.3847	-0.052
Mof_H 	H 	0.692	0.9163	0.3673	0.035
Mof_H 	H 	0.7358	0.933	0.3837	0.046
Mof_O 	O 	0.82332	0.47078	0.86452	-0.414
Mof_O 	O 	0.85706	0.47065	0.89801	-0.408
Mof_C 	C 	0.83436	0.46164	0.88702	0.369
Mof_C 	C 	0.81961	0.43811	0.90196	-0.103
Mof_C 	C 	0.79347	0.42859	0.89265	0.009
Mof_H 	H 	0.7845	0.4378	0.877	0.038
Mof_C 	C 	0.7455	0.3676	0.8977	-0.047
Mof_H 	H 	0.7583	0.3553	0.9073	0.044
Mof_C 	C 	0.7197	0.3557	0.8855	-0.038
Mof_H 	H 	0.7164	0.3357	0.8849	0.039
Mof_C 	C 	0.7058	0.4032	0.8744	-0.028
Mof_C 	C 	0.732	0.4132	0.8847	-0.052
Mof_H 	H 	0.692	0.4163	0.8673	0.035
Mof_H 	H 	0.7358	0.433	0.8837	0.046
Mof_O 	O 	0.32332	0.02922	0.13548	-0.415
Mof_O 	O 	0.35706	0.02935	0.10199	-0.409
Mof_C 	C 	0.33436	0.03836	0.11298	0.369
Mof_C 	C 	0.31961	0.06189	0.09804	-0.104
Mof_C 	C 	0.29347	0.07141	0.10735	0.009
Mof_H 	H 	0.2845	0.0622	0.123	0.038
Mof_C 	C 	0.2455	0.1324	0.1023	-0.047
Mof_H 	H 	0.2583	0.1447	0.0927	0.044
Mof_C 	C 	0.2197	0.1443	0.1145	-0.038
Mof_H 	H 	0.2164	0.1643	0.1151	0.039
Mof_C 	C 	0.2058	0.0968	0.1256	-0.028
Mof_C 	C 	0.232	0.0868	0.1153	-0.053
Mof_H 	H 	0.192	0.0837	0.1327	0.034
Mof_H 	H 	0.2358	0.067	0.1163	0.045
Mof_O 	O 	0.32332	0.52922	0.63548	-0.414
Mof_O 	O 	0.35706	0.52935	0.60199	-0.409
Mof_C 	C 	0.33436	0.53836	0.61298	0.369
Mof_C 	C 	0.31961	0.56189	0.59804	-0.103
Mof_C 	C 	0.29347	0.57141	0.60735	0.009
Mof_H 	H 	0.2845	0.5622	0.623	0.038
Mof_C 	C 	0.2455	0.6324	0.6023	-0.047
Mof_H 	H 	0.2583	0.6447	0.5927	0.044
Mof_C 	C 	0.2197	0.6443	0.6145	-0.038
Mof_H 	H 	0.2164	0.6643	0.6151	0.039
Mof_C 	C 	0.2058	0.5968	0.6256	-0.028
Mof_C 	C 	0.232	0.5868	0.6153	-0.052
Mof_H 	H 	0.192	0.5837	0.6327	0.035
Mof_H 	H 	0.2358	0.567	0.6163	0.046
Mof_O 	O 	0.82332	0.02922	0.63548	-0.415
Mof_O 	O 	0.85706	0.02935	0.60199	-0.409
Mof_C 	C 	0.83436	0.03836	0.61298	0.369
Mof_C 	C 	0.81961	0.06189	0.59804	-0.104
Mof_C 	C 	0.79347	0.07141	0.60735	0.009
Mof_H 	H 	0.7845	0.0622	0.623	0.038
Mof_C 	C 	0.7455	0.1324	0.6023	-0.047
Mof_H 	H 	0.7583	0.1447	0.5927	0.044
Mof_C 	C 	0.7197	0.1443	0.6145	-0.038
Mof_H 	H 	0.7164	0.1643	0.6151	0.039
Mof_C 	C 	0.7058	0.0968	0.6256	-0.028
Mof_C 	C 	0.732	0.0868	0.6153	-0.052
Mof_H 	H 	0.692	0.0837	0.6327	0.035
Mof_H 	H 	0.7358	0.067	0.6163	0.045
Mof_O 	O 	0.82332	0.52922	0.13548	-0.414
Mof_O 	O 	0.85706	0.52935	0.10199	-0.409
Mof_C 	C 	0.83436	0.53836	0.11298	0.369
Mof_C 	C 	0.81961	0.56189	0.09804	-0.103
Mof_C 	C 	0.79347	0.57141	0.10735	0.009
Mof_H 	H 	0.7845	0.5622	0.123	0.038
Mof_C 	C 	0.7455	0.6324	0.1023	-0.047
Mof_H 	H 	0.7583	0.6447	0.0927	0.044
Mof_C 	C 	0.7197	0.6443	0.1145	-0.038
Mof_H 	H 	0.7164	0.6643	0.1151	0.039
Mof_C 	C 	0.7058	0.5968	0.1256	-0.028
Mof_C 	C 	0.732	0.5868	0.1153	-0.053
Mof_H 	H 	0.692	0.5837	0.1327	0.035
Mof_H 	H 	0.7358	0.567	0.1163	0.046
Mof_O 	O 	0.67668	0.02922	0.86452	-0.414
Mof_O 	O 	0.64294	0.02935	0.89801	-0.409
Mof_C 	C 	0.66564	0.03836	0.88702	0.369
Mof_C 	C 	0.68039	0.06189	0.90196	-0.103
Mof_C 	C 	0.70653	0.07141	0.89265	0.009
Mof_H 	H 	0.7155	0.0622	0.877	0.038
Mof_C 	C 	0.7545	0.1324	0.8977	-0.047
Mof_H 	H 	0.7417	0.1447	0.9073	0.044
Mof_C 	C 	0.7803	0.1443	0.8855	-0.038
Mof_H 	H 	0.7836	0.1643	0.8849	0.039
Mof_C 	C 	0.7942	0.0968	0.8744	-0.028
Mof_C 	C 	0.768	0.0868	0.8847	-0.052
Mof_H 	H 	0.808	0.0837	0.8673	0.035
Mof_H 	H 	0.7642	0.067	0.8837	0.045
Mof_O 	O 	0.67668	0.52922	0.36452	-0.414
Mof_O 	O 	0.64294	0.52935	0.39801	-0.409
Mof_C 	C 	0.66564	0.53836	0.38702	0.369
Mof_C 	C 	0.68039	0.56189	0.40196	-0.103
Mof_C 	C 	0.70653	0.57141	0.39265	0.009
Mof_H 	H 	0.7155	0.5622	0.377	0.038
Mof_C 	C 	0.7545	0.6324	0.3977	-0.047
Mof_H 	H 	0.7417	0.6447	0.4073	0.044
Mof_C 	C 	0.7803	0.6443	0.3855	-0.038
Mof_H 	H 	0.7836	0.6643	0.3849	0.039
Mof_C 	C 	0.7942	0.5968	0.3744	-0.028
Mof_C 	C 	0.768	0.5868	0.3847	-0.052
Mof_H 	H 	0.808	0.5837	0.3673	0.035
Mof_H 	H 	0.7642	0.567	0.3837	0.046
Mof_O 	O 	0.17668	0.02922	0.36452	-0.415
Mof_O 	O 	0.14294	0.02935	0.39801	-0.409
Mof_C 	C 	0.16564	0.03836	0.38702	0.369
Mof_C 	C 	0.18039	0.06189	0.40196	-0.104
Mof_C 	C 	0.20653	0.07141	0.39265	0.009
Mof_H 	H 	0.2155	0.0622	0.377	0.038
Mof_C 	C 	0.2545	0.1324	0.3977	-0.047
Mof_H 	H 	0.2417	0.1447	0.4073	0.044
Mof_C 	C 	0.2803	0.1443	0.3855	-0.038
Mof_H 	H 	0.2836	0.1643	0.3849	0.039
Mof_C 	C 	0.2942	0.0968	0.3744	-0.028
Mof_C 	C 	0.268	0.0868	0.3847	-0.052
Mof_H 	H 	0.308	0.0837	0.3673	0.035
Mof_H 	H 	0.2642	0.067	0.3837	0.045
Mof_O 	O 	0.17668	0.52922	0.86452	-0.414
Mof_O 	O 	0.14294	0.52935	0.89801	-0.408
Mof_C 	C 	0.16564	0.53836	0.88702	0.369
Mof_C 	C 	0.18039	0.56189	0.90196	-0.103
Mof_C 	C 	0.20653	0.57141	0.89265	0.009
Mof_H 	H 	0.2155	0.5622	0.877	0.038
Mof_C 	C 	0.2545	0.6324	0.8977	-0.047
Mof_H 	H 	0.2417	0.6447	0.9073	0.044
Mof_C 	C 	0.2803	0.6443	0.8855	-0.038
Mof_H 	H 	0.2836	0.6643	0.8849	0.039
Mof_C 	C 	0.2942	0.5968	0.8744	-0.028
Mof_C 	C 	0.268	0.5868	0.8847	-0.052
Mof_H 	H 	0.308	0.5837	0.8673	0.035
Mof_H 	H 	0.2642	0.567	0.8837	0.046
Mof_O 	O 	0.97078	0.86452	0.32332	-0.413
Mof_O 	O 	0.97065	0.89801	0.35706	-0.407
Mof_C 	C 	0.96164	0.88702	0.33436	0.369
Mof_C 	C 	0.93811	0.90196	0.31961	-0.102
Mof_C 	C 	0.92859	0.89265	0.29347	0.008
Mof_H 	H 	0.9378	0.877	0.2845	0.039
Mof_C 	C 	0.8676	0.8977	0.2455	-0.047
Mof_H 	H 	0.8553	0.9073	0.2583	0.044
Mof_C 	C 	0.8557	0.8855	0.2197	-0.038
Mof_H 	H 	0.8357	0.8849	0.2164	0.039
Mof_C 	C 	0.9032	0.8744	0.2058	-0.028
Mof_C 	C 	0.9132	0.8847	0.232	-0.052
Mof_H 	H 	0.9163	0.8673	0.192	0.035
Mof_H 	H 	0.933	0.8837	0.2358	0.046
Mof_O 	O 	0.97078	0.36452	0.82332	-0.413
Mof_O 	O 	0.97065	0.39801	0.85706	-0.407
Mof_C 	C 	0.96164	0.38702	0.83436	0.369
Mof_C 	C 	0.93811	0.40196	0.81961	-0.103
Mof_C 	C 	0.92859	0.39265	0.79347	0.008
Mof_H 	H 	0.9378	0.377	0.7845	0.039
Mof_C 	C 	0.8676	0.3977	0.7455	-0.047
Mof_H 	H 	0.8553	0.4073	0.7583	0.044
Mof_C 	C 	0.8557	0.3855	0.7197	-0.038
Mof_H 	H 	0.8357	0.3849	0.7164	0.039
Mof_C 	C 	0.9032	0.3744	0.7058	-0.028
Mof_C 	C 	0.9132	0.3847	0.732	-0.052
Mof_H 	H 	0.9163	0.3673	0.692	0.035
Mof_H 	H 	0.933	0.3837	0.7358	0.046
Mof_O 	O 	0.47078	0.86452	0.82332	-0.414
Mof_O 	O 	0.47065	0.89801	0.85706	-0.408
Mof_C 	C 	0.46164	0.88702	0.83436	0.369
Mof_C 	C 	0.43811	0.90196	0.81961	-0.103
Mof_C 	C 	0.42859	0.89265	0.79347	0.009
Mof_H 	H 	0.4378	0.877	0.7845	0.038
Mof_C 	C 	0.3676	0.8977	0.7455	-0.047
Mof_H 	H 	0.3553	0.9073	0.7583	0.044
Mof_C 	C 	0.3557	0.8855	0.7197	-0.038
Mof_H 	H 	0.3357	0.8849	0.7164	0.039
Mof_C 	C 	0.4032	0.8744	0.7058	-0.028
Mof_C 	C 	0.4132	0.8847	0.732	-0.052
Mof_H 	H 	0.4163	0.8673	0.692	0.035
Mof_H 	H 	0.433	0.8837	0.7358	0.046
Mof_O 	O 	0.47078	0.36452	0.32332	-0.414
Mof_O 	O 	0.47065	0.39801	0.35706	-0.409
Mof_C 	C 	0.46164	0.38702	0.33436	0.369
Mof_C 	C 	0.43811	0.40196	0.31961	-0.103
Mof_C 	C 	0.42859	0.39265	0.29347	0.009
Mof_H 	H 	0.4378	0.377	0.2845	0.038
Mof_C 	C 	0.3676	0.3977	0.2455	-0.047
Mof_H 	H 	0.3553	0.4073	0.2583	0.044
Mof_C 	C 	0.3557	0.3855	0.2197	-0.038
Mof_H 	H 	0.3357	0.3849	0.2164	0.039
Mof_C 	C 	0.4032	0.3744	0.2058	-0.028
Mof_C 	C 	0.4132	0.3847	0.232	-0.052
Mof_H 	H 	0.4163	0.3673	0.192	0.035
Mof_H 	H 	0.433	0.3837	0.2358	0.046
Mof_O 	O 	0.97078	0.13548	0.67668	-0.413
Mof_O 	O 	0.97065	0.10199	0.64294	-0.408
Mof_C 	C 	0.96164	0.11298	0.66564	0.369
Mof_C 	C 	0.93811	0.09804	0.68039	-0.103
Mof_C 	C 	0.92859	0.10735	0.70653	0.009
Mof_H 	H 	0.9378	0.123	0.7155	0.039
Mof_C 	C 	0.8676	0.1023	0.7545	-0.047
Mof_H 	H 	0.8553	0.0927	0.7417	0.044
Mof_C 	C 	0.8557	0.1145	0.7803	-0.038
Mof_H 	H 	0.8357	0.1151	0.7836	0.039
Mof_C 	C 	0.9032	0.1256	0.7942	-0.028
Mof_C 	C 	0.9132	0.1153	0.768	-0.053
Mof_H 	H 	0.9163	0.1327	0.808	0.035
Mof_H 	H 	0.933	0.1163	0.7642	0.046
Mof_O 	O 	0.97078	0.63548	0.17668	-0.413
Mof_O 	O 	0.97065	0.60199	0.14294	-0.407
Mof_C 	C 	0.96164	0.61298	0.16564	0.369
Mof_C 	C 	0.93811	0.59804	0.18039	-0.103
Mof_C 	C 	0.92859	0.60735	0.20653	0.009
Mof_H 	H 	0.9378	0.623	0.2155	0.039
Mof_C 	C 	0.8676	0.6023	0.2545	-0.047
Mof_H 	H 	0.8553	0.5927	0.2417	0.044
Mof_C 	C 	0.8557	0.6145	0.2803	-0.038
Mof_H 	H 	0.8357	0.6151	0.2836	0.039
Mof_C 	C 	0.9032	0.6256	0.2942	-0.028
Mof_C 	C 	0.9132	0.6153	0.268	-0.052
Mof_H 	H 	0.9163	0.6327	0.308	0.035
Mof_H 	H 	0.933	0.6163	0.2642	0.046
Mof_O 	O 	0.47078	0.13548	0.17668	-0.414
Mof_O 	O 	0.47065	0.10199	0.14294	-0.409
Mof_C 	C 	0.46164	0.11298	0.16564	0.369
Mof_C 	C 	0.43811	0.09804	0.18039	-0.103
Mof_C 	C 	0.42859	0.10735	0.20653	0.009
Mof_H 	H 	0.4378	0.123	0.2155	0.038
Mof_C 	C 	0.3676	0.1023	0.2545	-0.047
Mof_H 	H 	0.3553	0.0927	0.2417	0.044
Mof_C 	C 	0.3557	0.1145	0.2803	-0.038
Mof_H 	H 	0.3357	0.1151	0.2836	0.039
Mof_C 	C 	0.4032	0.1256	0.2942	-0.028
Mof_C 	C 	0.4132	0.1153	0.268	-0.053
Mof_H 	H 	0.4163	0.1327	0.308	0.035
Mof_H 	H 	0.433	0.1163	0.2642	0.046
Mof_O 	O 	0.47078	0.63548	0.67668	-0.414
Mof_O 	O 	0.47065	0.60199	0.64294	-0.409
Mof_C 	C 	0.46164	0.61298	0.66564	0.369
Mof_C 	C 	0.43811	0.59804	0.68039	-0.103
Mof_C 	C 	0.42859	0.60735	0.70653	0.009
Mof_H 	H 	0.4378	0.623	0.7155	0.038
Mof_C 	C 	0.3676	0.6023	0.7545	-0.047
Mof_H 	H 	0.3553	0.5927	0.7417	0.044
Mof_C 	C 	0.3557	0.6145	0.7803	-0.038
Mof_H 	H 	0.3357	0.6151	0.7836	0.039
Mof_C 	C 	0.4032	0.6256	0.7942	-0.028
Mof_C 	C 	0.4132	0.6153	0.768	-0.052
Mof_H 	H 	0.4163	0.6327	0.808	0.035
Mof_H 	H 	0.433	0.6163	0.7642	0.046
Mof_O 	O 	0.02922	0.86452	0.67668	-0.414
Mof_O 	O 	0.02935	0.89801	0.64294	-0.409
Mof_C 	C 	0.03836	0.88702	0.66564	0.369
Mof_C 	C 	0.06189	0.90196	0.68039	-0.103
Mof_C 	C 	0.07141	0.89265	0.70653	0.009
Mof_H 	H 	0.0622	0.877	0.7155	0.038
Mof_C 	C 	0.1324	0.8977	0.7545	-0.047
Mof_H 	H 	0.1447	0.9073	0.7417	0.044
Mof_C 	C 	0.1443	0.8855	0.7803	-0.038
Mof_H 	H 	0.1643	0.8849	0.7836	0.039
Mof_C 	C 	0.0968	0.8744	0.7942	-0.028
Mof_C 	C 	0.0868	0.8847	0.768	-0.052
Mof_H 	H 	0.0837	0.8673	0.808	0.035
Mof_H 	H 	0.067	0.8837	0.7642	0.045
Mof_O 	O 	0.02922	0.36452	0.17668	-0.415
Mof_O 	O 	0.02935	0.39801	0.14294	-0.409
Mof_C 	C 	0.03836	0.38702	0.16564	0.369
Mof_C 	C 	0.06189	0.40196	0.18039	-0.104
Mof_C 	C 	0.07141	0.39265	0.20653	0.009
Mof_H 	H 	0.0622	0.377	0.2155	0.038
Mof_C 	C 	0.1324	0.3977	0.2545	-0.047
Mof_H 	H 	0.1447	0.4073	0.2417	0.044
Mof_C 	C 	0.1443	0.3855	0.2803	-0.038
Mof_H 	H 	0.1643	0.3849	0.2836	0.039
Mof_C 	C 	0.0968	0.3744	0.2942	-0.028
Mof_C 	C 	0.0868	0.3847	0.268	-0.052
Mof_H 	H 	0.0837	0.3673	0.308	0.035
Mof_H 	H 	0.067	0.3837	0.2642	0.045
Mof_O 	O 	0.52922	0.86452	0.17668	-0.414
Mof_O 	O 	0.52935	0.89801	0.14294	-0.408
Mof_C 	C 	0.53836	0.88702	0.16564	0.369
Mof_C 	C 	0.56189	0.90196	0.18039	-0.103
Mof_C 	C 	0.57141	0.89265	0.20653	0.009
Mof_H 	H 	0.5622	0.877	0.2155	0.038
Mof_C 	C 	0.6324	0.8977	0.2545	-0.047
Mof_H 	H 	0.6447	0.9073	0.2417	0.044
Mof_C 	C 	0.6443	0.8855	0.2803	-0.038
Mof_H 	H 	0.6643	0.8849	0.2836	0.039
Mof_C 	C 	0.5968	0.8744	0.2942	-0.028
Mof_C 	C 	0.5868	0.8847	0.268	-0.052
Mof_H 	H 	0.5837	0.8673	0.308	0.035
Mof_H 	H 	0.567	0.8837	0.2642	0.046
Mof_O 	O 	0.52922	0.36452	0.67668	-0.414
Mof_O 	O 	0.52935	0.39801	0.64294	-0.409
Mof_C 	C 	0.53836	0.38702	0.66564	0.369
Mof_C 	C 	0.56189	0.40196	0.68039	-0.103
Mof_C 	C 	0.57141	0.39265	0.70653	0.009
Mof_H 	H 	0.5622	0.377	0.7155	0.038
Mof_C 	C 	0.6324	0.3977	0.7545	-0.047
Mof_H 	H 	0.6447	0.4073	0.7417	0.044
Mof_C 	C 	0.6443	0.3855	0.7803	-0.038
Mof_H 	H 	0.6643	0.3849	0.7836	0.039
Mof_C 	C 	0.5968	0.3744	0.7942	-0.028
Mof_C 	C 	0.5868	0.3847	0.768	-0.052
Mof_H 	H 	0.5837	0.3673	0.808	0.035
Mof_H 	H 	0.567	0.3837	0.7642	0.046
Mof_O 	O 	0.02922	0.13548	0.32332	-0.415
Mof_O 	O 	0.02935	0.10199	0.35706	-0.409
Mof_C 	C 	0.03836	0.11298	0.33436	0.369
Mof_C 	C 	0.06189	0.09804	0.31961	-0.104
Mof_C 	C 	0.07141	0.10735	0.29347	0.009
Mof_H 	H 	0.0622	0.123	0.2845	0.038
Mof_C 	C 	0.1324	0.1023	0.2455	-0.047
Mof_H 	H 	0.1447	0.0927	0.2583	0.044
Mof_C 	C 	0.1443	0.1145	0.2197	-0.038
Mof_H 	H 	0.1643	0.1151	0.2164	0.039
Mof_C 	C 	0.0968	0.1256	0.2058	-0.028
Mof_C 	C 	0.0868	0.1153	0.232	-0.053
Mof_H 	H 	0.0837	0.1327	0.192	0.034
Mof_H 	H 	0.067	0.1163	0.2358	0.045
Mof_O 	O 	0.02922	0.63548	0.82332	-0.415
Mof_O 	O 	0.02935	0.60199	0.85706	-0.409
Mof_C 	C 	0.03836	0.61298	0.83436	0.369
Mof_C 	C 	0.06189	0.59804	0.81961	-0.104
Mof_C 	C 	0.07141	0.60735	0.79347	0.009
Mof_H 	H 	0.0622	0.623	0.7845	0.038
Mof_C 	C 	0.1324	0.6023	0.7455	-0.047
Mof_H 	H 	0.1447	0.5927	0.7583	0.044
Mof_C 	C 	0.1443	0.6145	0.7197	-0.038
Mof_H 	H 	0.1643	0.6151	0.7164	0.039
Mof_C 	C 	0.0968	0.6256	0.7058	-0.028
Mof_C 	C 	0.0868	0.6153	0.732	-0.052
Mof_H 	H 	0.0837	0.6327	0.692	0.035
Mof_H 	H 	0.067	0.6163	0.7358	0.045
Mof_O 	O 	0.52922	0.13548	0.82332	-0.414
Mof_O 	O 	0.52935	0.10199	0.85706	-0.409
Mof_C 	C 	0.53836	0.11298	0.83436	0.369
Mof_C 	C 	0.56189	0.09804	0.81961	-0.103
Mof_C 	C 	0.57141	0.10735	0.79347	0.009
Mof_H 	H 	0.5622	0.123	0.7845	0.038
Mof_C 	C 	0.6324	0.1023	0.7455	-0.047
Mof_H 	H 	0.6447	0.0927	0.7583	0.044
Mof_C 	C 	0.6443	0.1145	0.7197	-0.038
Mof_H 	H 	0.6643	0.1151	0.7164	0.039
Mof_C 	C 	0.5968	0.1256	0.7058	-0.028
Mof_C 	C 	0.5868	0.1153	0.732	-0.053
Mof_H 	H 	0.5837	0.1327	0.692	0.035
Mof_H 	H 	0.567	0.1163	0.7358	0.046
Mof_O 	O 	0.52922	0.63548	0.32332	-0.414
Mof_O 	O 	0.52935	0.60199	0.35706	-0.409
Mof_C 	C 	0.53836	0.61298	0.33436	0.369
Mof_C 	C 	0.56189	0.59804	0.31961	-0.103
Mof_C 	C 	0.57141	0.60735	0.29347	0.009
Mof_H 	H 	0.5622	0.623	0.2845	0.038
Mof_C 	C 	0.6324	0.6023	0.2455	-0.047
Mof_H 	H 	0.6447	0.5927	0.2583	0.044
Mof_C 	C 	0.6443	0.6145	0.2197	-0.038
Mof_H 	H 	0.6643	0.6151	0.2164	0.039
Mof_C 	C 	0.5968	0.6256	0.2058	-0.028
Mof_C 	C 	0.5868	0.6153	0.232	-0.052
Mof_H 	H 	0.5837	0.6327	0.192	0.035
Mof_H 	H 	0.567	0.6163	0.2358	0.046
Mof_Cu	Cu	0.34059	0.15941	-0	0.905
Mof_Cu	Cu	0.38072	0.11928	-0	0.908
Mof_Cu	Cu	0.34059	0.65941	0.5	0.906
Mof_Cu	Cu	0.38072	0.61928	0.5	0.909
Mof_Cu	Cu	0.65941	0.84059	-0	0.905
Mof_Cu	Cu	0.61928	0.88072	-0	0.908
Mof_Cu	Cu	0.65941	0.34059	0.5	0.906
Mof_Cu	Cu	0.61928	0.38072	0.5	0.909
Mof_Cu	Cu	0.15941	0.34059	-0	0.905
Mof_Cu	Cu	0.11928	0.38072	-0	0.908
Mof_Cu	Cu	0.65941	0.15941	-0	0.905
Mof_Cu	Cu	0.61928	0.11928	-0	0.908
Mof_Cu	Cu	0.65941	0.65941	0.5	0.906
Mof_Cu	Cu	0.61928	0.61928	0.5	0.909
Mof_Cu	Cu	0.15941	0.15941	0.5	0.906
Mof_Cu	Cu	0.11928	0.11928	0.5	0.909
Mof_Cu	Cu	0.34059	0.84059	-0	0.905
Mof_Cu	Cu	0.38072	0.88072	-0	0.908
Mof_Cu	Cu	0.34059	0.34059	0.5	0.906
Mof_Cu	Cu	0.38072	0.38072	0.5	0.909
Mof_Cu	Cu	-3.29131e-33	0.34059	0.15941	0.905
Mof_Cu	Cu	-3.44177e-33	0.38072	0.11928	0.908
Mof_Cu	Cu	0.5	0.34059	0.65941	0.906
Mof_Cu	Cu	0.5	0.38072	0.61928	0.909
Mof_Cu	Cu	-2.79603e-32	0.65941	0.84059	0.905
Mof_Cu	Cu	-2.00318e-32	0.61928	0.88072	0.908
Mof_Cu	Cu	-2.61199e-33	0.15941	0.34059	0.905
Mof_Cu	Cu	-2.46153e-33	0.11928	0.38072	0.908
Mof_Cu	Cu	0.5	0.65941	0.34059	0.906
Mof_Cu	Cu	0.5	0.61928	0.38072	0.909
Mof_Cu	Cu	-7.18031e-33	0.65941	0.15941	0.905
Mof_Cu	Cu	-3.44177e-33	0.61928	0.11928	0.908
Mof_Cu	Cu	0.5	0.65941	0.65941	0.906
Mof_Cu	Cu	0.5	0.61928	0.61928	0.909
Mof_Cu	Cu	0.5	0.15941	0.15941	0.906
Mof_Cu	Cu	0.5	0.11928	0.11928	0.909
Mof_Cu	Cu	-2.01823e-32	0.34059	0.84059	0.905
Mof_Cu	Cu	1.10802e-32	0.38072	0.88072	0.908
Mof_Cu	Cu	0.5	0.34059	0.34059	0.906
Mof_Cu	Cu	0.5	0.38072	0.38072	0.909
Mof_Cu	Cu	0.15941	0	0.34059	0.905
Mof_Cu	Cu	0.11928	-3.889e-33	0.38072	0.908
Mof_Cu	Cu	0.15941	0.5	0.84059	0.906
Mof_Cu	Cu	0.11928	0.5	0.88072	0.909
Mof_Cu	Cu	0.84059	-7.77801e-33	0.65941	0.905
Mof_Cu	Cu	0.88072	0	0.61928	0.908
Mof_Cu	Cu	0.84059	0.5	0.15941	0.906
Mof_Cu	Cu	0.88072	0.5	0.11928	0.909
Mof_Cu	Cu	0.34059	-1.9445e-33	0.15941	0.905
Mof_Cu	Cu	0.38072	-9.72251e-34	0.11928	0.908
Mof_Cu	Cu	0.15941	-7.77801e-33	0.65941	0.905
Mof_Cu	Cu	0.11928	0	0.61928	0.908
Mof_Cu	Cu	0.15941	0.5	0.15941	0.906
Mof_Cu	Cu	0.11928	0.5	0.11928	0.909
Mof_Cu	Cu	0.84059	0	0.34059	0.905
Mof_Cu	Cu	0.88072	-3.889e-33	0.38072	0.908
Mof_Cu	Cu	0.84059	0.5	0.84059	0.906
Mof_Cu	Cu	0.88072	0.5	0.88072	0.909
Mof_Cu	Cu	0.34059	0.5	0.34059	0.906
Mof_Cu	Cu	0.38072	0.5	0.38072	0.909
Mof_Cu	Cu	0.15941	0.84059	0.5	0.906
Mof_Cu	Cu	0.11928	0.88072	0.5	0.909
Mof_Cu	Cu	0.84059	0.65941	-0	0.905
Mof_Cu	Cu	0.88072	0.61928	-0	0.908
Mof_Cu	Cu	0.84059	0.15941	0.5	0.906
Mof_Cu	Cu	0.88072	0.11928	0.5	0.909
Mof_Cu	Cu	0.15941	0.65941	-0	0.905
Mof_Cu	Cu	0.11928	0.61928	-0	0.908
Mof_Cu	Cu	0.84059	0.34059	-0	0.905
Mof_Cu	Cu	0.88072	0.38072	-0	0.908
Mof_Cu	Cu	0.84059	0.84059	0.5	0.906
Mof_Cu	Cu	0.88072	0.88072	0.5	0.909
Mof_Cu	Cu	0.34059	-1.5556e-32	0.84059	0.905
Mof_Cu	Cu	0.38072	0	0.88072	0.908
Mof_Cu	Cu	0.65941	-1.9445e-33	0.15941	0.905
Mof_Cu	Cu	0.61928	-9.72251e-34	0.11928	0.908
Mof_Cu	Cu	0.65941	0.5	0.65941	0.906
Mof_Cu	Cu	0.61928	0.5	0.61928	0.909
Mof_Cu	Cu	0.65941	-1.5556e-32	0.84059	0.905
Mof_Cu	Cu	0.61928	0	0.88072	0.908
Mof_Cu	Cu	0.65941	0.5	0.34059	0.906
Mof_Cu	Cu	0.61928	0.5	0.38072	0.909
Mof_Cu	Cu	0.34059	0.5	0.65941	0.906
Mof_Cu	Cu	0.38072	0.5	0.61928	0.909
Mof_Cu	Cu	-5.30561e-33	0.15941	0.65941	0.905
Mof_Cu	Cu	-5.45608e-33	0.11928	0.61928	0.908
Mof_Cu	Cu	-1.8168e-32	0.84059	0.34059	0.905
Mof_Cu	Cu	9.20548e-33	0.88072	0.38072	0.908
Mof_Cu	Cu	0.5	0.84059	0.84059	0.906
Mof_Cu	Cu	0.5	0.88072	0.88072	0.909
Mof_Cu	Cu	0.5	0.15941	0.84059	0.906
Mof_Cu	Cu	0.5	0.11928	0.88072	0.909
Mof_Cu	Cu	-2.08616e-32	0.84059	0.65941	0.905
Mof_Cu	Cu	-1.32341e-32	0.88072	0.61928	0.908
Mof_Cu	Cu	0.5	0.84059	0.15941	0.906
Mof_Cu	Cu	0.5	0.88072	0.11928	0.909
Mof_C 	C 	0.33288	0.07478	0.07478	0.044
Mof_H 	H 	0.3506	0.0679	0.0679	0.047
Mof_C 	C 	0.28	0.09422	0.09422	-0.039
Mof_C 	C 	0.25203	0.10416	0.10416	0.058
Mof_C 	C 	0.2001	0.12528	0.12528	0.011
Mof_C 	C 	0.1731	0.1371	0.1371	0.042
Mof_C 	C 	0.33288	0.57478	0.57478	0.044
Mof_H 	H 	0.3506	0.5679	0.5679	0.048
Mof_C 	C 	0.28	0.59422	0.59422	-0.039
Mof_C 	C 	0.25203	0.60416	0.60416	0.058
Mof_C 	C 	0.2001	0.62528	0.62528	0.011
Mof_C 	C 	0.1731	0.6371	0.6371	0.042
Mof_C 	C 	0.83288	0.07478	0.57478	0.044
Mof_H 	H 	0.8506	0.0679	0.5679	0.048
Mof_C 	C 	0.78	0.09422	0.59422	-0.039
Mof_C 	C 	0.75203	0.10416	0.60416	0.058
Mof_C 	C 	0.7001	0.12528	0.62528	0.011
Mof_C 	C 	0.6731	0.1371	0.6371	0.042
Mof_C 	C 	0.83288	0.57478	0.07478	0.044
Mof_H 	H 	0.8506	0.5679	0.0679	0.048
Mof_C 	C 	0.78	0.59422	0.09422	-0.039
Mof_C 	C 	0.75203	0.60416	0.10416	0.058
Mof_C 	C 	0.7001	0.62528	0.12528	0.011
Mof_C 	C 	0.6731	0.6371	0.1371	0.042
Mof_C 	C 	0.66712	0.92522	0.07478	0.044
Mof_H 	H 	0.6494	0.9321	0.0679	0.048
Mof_C 	C 	0.72	0.90578	0.09422	-0.039
Mof_C 	C 	0.74797	0.89584	0.10416	0.058
Mof_C 	C 	0.7999	0.87472	0.12528	0.011
Mof_C 	C 	0.8269	0.8629	0.1371	0.043
Mof_C 	C 	0.66712	0.42522	0.57478	0.044
Mof_H 	H 	0.6494	0.4321	0.5679	0.048
Mof_C 	C 	0.72	0.40578	0.59422	-0.039
Mof_C 	C 	0.74797	0.39584	0.60416	0.058
Mof_C 	C 	0.7999	0.37472	0.62528	0.011
Mof_C 	C 	0.8269	0.3629	0.6371	0.043
Mof_C 	C 	0.16712	0.92522	0.57478	0.044
Mof_H 	H 	0.1494	0.9321	0.5679	0.048
Mof_C 	C 	0.22	0.90578	0.59422	-0.038
Mof_C 	C 	0.24797	0.89584	0.60416	0.058
Mof_C 	C 	0.2999	0.87472	0.62528	0.011
Mof_C 	C 	0.3269	0.8629	0.6371	0.043
Mof_C 	C 	0.16712	0.42522	0.07478	0.044
Mof_H 	H 	0.1494	0.4321	0.0679	0.047
Mof_C 	C 	0.22	0.40578	0.09422	-0.039
Mof_C 	C 	0.24797	0.39584	0.10416	0.058
Mof_C 	C 	0.2999	0.37472	0.12528	0.011
Mof_C 	C 	0.3269	0.3629	0.1371	0.042
Mof_C 	C 	0.66712	0.07478	0.92522	0.044
Mof_H 	H 	0.6494	0.0679	0.9321	0.048
Mof_C 	C 	0.72	0.09422	0.90578	-0.039
Mof_C 	C 	0.74797	0.10416	0.89584	0.058
Mof_C 	C 	0.7999	0.12528	0.87472	0.011
Mof_C 	C 	0.8269	0.1371	0.8629	0.043
Mof_C 	C 	0.66712	0.57478	0.42522	0.044
Mof_H 	H 	0.6494	0.5679	0.4321	0.048
Mof_C 	C 	0.72	0.59422	0.40578	-0.039
Mof_C 	C 	0.74797	0.60416	0.39584	0.058
Mof_C 	C 	0.7999	0.62528	0.37472	0.011
Mof_C 	C 	0.8269	0.6371	0.3629	0.043
Mof_C 	C 	0.16712	0.07478	0.42522	0.044
Mof_H 	H 	0.1494	0.0679	0.4321	0.047
Mof_C 	C 	0.22	0.09422	0.40578	-0.039
Mof_C 	C 	0.24797	0.10416	0.39584	0.058
Mof_C 	C 	0.2999	0.12528	0.37472	0.011
Mof_C 	C 	0.3269	0.1371	0.3629	0.042
Mof_C 	C 	0.16712	0.57478	0.92522	0.044
Mof_H 	H 	0.1494	0.5679	0.9321	0.048
Mof_C 	C 	0.22	0.59422	0.90578	-0.038
Mof_C 	C 	0.24797	0.60416	0.89584	0.058
Mof_C 	C 	0.2999	0.62528	0.87472	0.011
Mof_C 	C 	0.3269	0.6371	0.8629	0.043
Mof_C 	C 	0.33288	0.92522	0.92522	0.043
Mof_H 	H 	0.3506	0.9321	0.9321	0.048
Mof_C 	C 	0.28	0.90578	0.90578	-0.038
Mof_C 	C 	0.25203	0.89584	0.89584	0.058
Mof_C 	C 	0.2001	0.87472	0.87472	0.011
Mof_C 	C 	0.1731	0.8629	0.8629	0.043
Mof_C 	C 	0.33288	0.42522	0.42522	0.044
Mof_H 	H 	0.3506	0.4321	0.4321	0.048
Mof_C 	C 	0.28	0.40578	0.40578	-0.039
Mof_C 	C 	0.25203	0.39584	0.39584	0.058
Mof_C 	C 	0.2001	0.37472	0.37472	0.011
Mof_C 	C 	0.1731	0.3629	0.3629	0.043
Mof_C 	C 	0.83288	0.92522	0.42522	0.043
Mof_H 	H 	0.8506	0.9321	0.4321	0.048
Mof_C 	C 	0.78	0.90578	0.40578	-0.038
Mof_C 	C 	0.75203	0.89584	0.39584	0.058
Mof_C 	C 	0.7001	0.87472	0.37472	0.011
Mof_C 	C 	0.6731	0.8629	0.3629	0.043
Mof_C 	C 	0.83288	0.42522	0.92522	0.043
Mof_H 	H 	0.8506	0.4321	0.9321	0.048
Mof_C 	C 	0.78	0.40578	0.90578	-0.038
Mof_C 	C 	0.75203	0.39584	0.89584	0.058
Mof_C 	C 	0.7001	0.37472	0.87472	0.011
Mof_C 	C 	0.6731	0.3629	0.8629	0.043
Mof_C 	C 	0.07478	0.33288	0.07478	0.044
Mof_H 	H 	0.0679	0.3506	0.0679	0.047
Mof_C 	C 	0.09422	0.28	0.09422	-0.039
Mof_C 	C 	0.10416	0.25203	0.10416	0.058
Mof_C 	C 	0.12528	0.2001	0.12528	0.011
Mof_C 	C 	0.1371	0.1731	0.1371	0.042
Mof_C 	C 	0.07478	0.83288	0.57478	0.044
Mof_H 	H 	0.0679	0.8506	0.5679	0.048
Mof_C 	C 	0.09422	0.78	0.59422	-0.039
Mof_C 	C 	0.10416	0.75203	0.60416	0.058
Mof_C 	C 	0.12528	0.7001	0.62528	0.011
Mof_C 	C 	0.1371	0.6731	0.6371	0.042
Mof_C 	C 	0.57478	0.33288	0.57478	0.044
Mof_H 	H 	0.5679	0.3506	0.5679	0.048
Mof_C 	C 	0.59422	0.28	0.59422	-0.039
Mof_C 	C 	0.60416	0.25203	0.60416	0.058
Mof_C 	C 	0.62528	0.2001	0.62528	0.011
Mof_C 	C 	0.6371	0.1731	0.6371	0.042
Mof_C 	C 	0.57478	0.83288	0.07478	0.044
Mof_H 	H 	0.5679	0.8506	0.0679	0.048
Mof_C 	C 	0.59422	0.78	0.09422	-0.039
Mof_C 	C 	0.60416	0.75203	0.10416	0.058
Mof_C 	C 	0.62528	0.7001	0.12528	0.011
Mof_C 	C 	0.6371	0.6731	0.1371	0.042
Mof_C 	C 	0.07478	0.66712	0.92522	0.044
Mof_H 	H 	0.0679	0.6494	0.9321	0.048
Mof_C 	C 	0.09422	0.72	0.90578	-0.039
Mof_C 	C 	0.10416	0.74797	0.89584	0.058
Mof_C 	C 	0.12528	0.7999	0.87472	0.011
Mof_C 	C 	0.1371	0.8269	0.8629	0.043
Mof_C 	C 	0.07478	0.16712	0.42522	0.044
Mof_H 	H 	0.0679	0.1494	0.4321	0.047
Mof_C 	C 	0.09422	0.22	0.40578	-0.039
Mof_C 	C 	0.10416	0.24797	0.39584	0.058
Mof_C 	C 	0.12528	0.2999	0.37472	0.011
Mof_C 	C 	0.1371	0.3269	0.3629	0.042
Mof_C 	C 	0.57478	0.66712	0.42522	0.044
Mof_H 	H 	0.5679	0.6494	0.4321	0.048
Mof_C 	C 	0.59422	0.72	0.40578	-0.039
Mof_C 	C 	0.60416	0.74797	0.39584	0.058
Mof_C 	C 	0.62528	0.7999	0.37472	0.011
Mof_C 	C 	0.6371	0.8269	0.3629	0.043
Mof_C 	C 	0.57478	0.16712	0.92522	0.044
Mof_H 	H 	0.5679	0.1494	0.9321	0.048
Mof_C 	C 	0.59422	0.22	0.90578	-0.038
Mof_C 	C 	0.60416	0.24797	0.89584	0.058
Mof_C 	C 	0.62528	0.2999	0.87472	0.011
Mof_C 	C 	0.6371	0.3269	0.8629	0.043
Mof_C 	C 	0.92522	0.66712	0.07478	0.044
Mof_H 	H 	0.9321	0.6494	0.0679	0.048
Mof_C 	C 	0.90578	0.72	0.09422	-0.039
Mof_C 	C 	0.89584	0.74797	0.10416	0.058
Mof_C 	C 	0.87472	0.7999	0.12528	0.011
Mof_C 	C 	0.8629	0.8269	0.1371	0.043
Mof_C 	C 	0.92522	0.16712	0.57478	0.044
Mof_H 	H 	0.9321	0.1494	0.5679	0.048
Mof_C 	C 	0.90578	0.22	0.59422	-0.038
Mof_C 	C 	0.89584	0.24797	0.60416	0.058
Mof_C 	C 	0.87472	0.2999	0.62528	0.011
Mof_C 	C 	0.8629	0.3269	0.6371	0.043
Mof_C 	C 	0.42522	0.66712	0.57478	0.044
Mof_H 	H 	0.4321	0.6494	0.5679	0.048
Mof_C 	C 	0.40578	0.72	0.59422	-0.039
Mof_C 	C 	0.39584	0.74797	0.60416	0.058
Mof_C 	C 	0.37472	0.7999	0.62528	0.011
Mof_C 	C 	0.3629	0.8269	0.6371	0.043
Mof_C 	C 	0.42522	0.16712	0.07478	0.044
Mof_H 	H 	0.4321	0.1494	0.0679	0.047
Mof_C 	C 	0.40578	0.22	0.09422	-0.039
Mof_C 	C 	0.39584	0.24797	0.10416	0.058
Mof_C 	C 	0.37472	0.2999	0.12528	0.011
Mof_C 	C 	0.3629	0.3269	0.1371	0.042
Mof_C 	C 	0.92522	0.33288	0.92522	0.043
Mof_H 	H 	0.9321	0.3506	0.9321	0.048
Mof_C 	C 	0.90578	0.28	0.90578	-0.038
Mof_C 	C 	0.89584	0.25203	0.89584	0.058
Mof_C 	C 	0.87472	0.2001	0.87472	0.011
Mof_C 	C 	0.8629	0.1731	0.8629	0.043
Mof_C 	C 	0.92522	0.83288	0.42522	0.043
Mof_H 	H 	0.9321	0.8506	0.4321	0.048
Mof_C 	C 	0.90578	0.78	0.40578	-0.038
Mof_C 	C 	0.89584	0.75203	0.39584	0.058
Mof_C 	C 	0.87472	0.7001	0.37472	0.011
Mof_C 	C 	0.8629	0.6731	0.3629	0.043
Mof_C 	C 	0.42522	0.33288	0.42522	0.044
Mof_H 	H 	0.4321	0.3506	0.4321	0.048
Mof_C 	C 	0.40578	0.28	0.40578	-0.039
Mof_C 	C 	0.39584	0.25203	0.39584	0.058
Mof_C 	C 	0.37472	0.2001	0.37472	0.011
Mof_C 	C 	0.3629	0.1731	0.3629	0.043
Mof_C 	C 	0.42522	0.83288	0.92522	0.043
Mof_H 	H 	0.4321	0.8506	0.9321	0.048
Mof_C 	C 	0.40578	0.78	0.90578	-0.038
Mof_C 	C 	0.39584	0.75203	0.89584	0.058
Mof_C 	C 	0.37472	0.7001	0.87472	0.011
Mof_C 	C 	0.3629	0.6731	0.8629	0.043
Mof_C 	C 	0.07478	0.07478	0.33288	0.044
Mof_H 	H 	0.0679	0.0679	0.3506	0.047
Mof_C 	C 	0.09422	0.09422	0.28	-0.039
Mof_C 	C 	0.10416	0.10416	0.25203	0.058
Mof_C 	C 	0.12528	0.12528	0.2001	0.011
Mof_C 	C 	0.1371	0.1371	0.1731	0.042
Mof_C 	C 	0.07478	0.57478	0.83288	0.044
Mof_H 	H 	0.0679	0.5679	0.8506	0.048
Mof_C 	C 	0.09422	0.59422	0.78	-0.039
Mof_C 	C 	0.10416	0.60416	0.75203	0.058
Mof_C 	C 	0.12528	0.62528	0.7001	0.011
Mof_C 	C 	0.1371	0.6371	0.6731	0.042
Mof_C 	C 	0.57478	0.07478	0.83288	0.044
Mof_H 	H 	0.5679	0.0679	0.8506	0.048
Mof_C 	C 	0.59422	0.09422	0.78	-0.039
Mof_C 	C 	0.60416	0.10416	0.75203	0.058
Mof_C 	C 	0.62528	0.12528	0.7001	0.011
Mof_C 	C 	0.6371	0.1371	0.6731	0.042
Mof_C 	C 	0.57478	0.57478	0.33288	0.044
Mof_H 	H 	0.5679	0.5679	0.3506	0.048
Mof_C 	C 	0.59422	0.59422	0.28	-0.039
Mof_C 	C 	0.60416	0.60416	0.25203	0.058
Mof_C 	C 	0.62528	0.62528	0.2001	0.011
Mof_C 	C 	0.6371	0.6371	0.1731	0.042
Mof_C 	C 	0.92522	0.07478	0.66712	0.044
Mof_H 	H 	0.9321	0.0679	0.6494	0.048
Mof_C 	C 	0.90578	0.09422	0.72	-0.039
Mof_C 	C 	0.89584	0.10416	0.74797	0.058
Mof_C 	C 	0.87472	0.12528	0.7999	0.011
Mof_C 	C 	0.8629	0.1371	0.8269	0.043
Mof_C 	C 	0.92522	0.57478	0.16712	0.044
Mof_H 	H 	0.9321	0.5679	0.1494	0.048
Mof_C 	C 	0.90578	0.59422	0.22	-0.038
Mof_C 	C 	0.89584	0.60416	0.24797	0.058
Mof_C 	C 	0.87472	0.62528	0.2999	0.011
Mof_C 	C 	0.8629	0.6371	0.3269	0.043
Mof_C 	C 	0.42522	0.07478	0.16712	0.044
Mof_H 	H 	0.4321	0.0679	0.1494	0.047
Mof_C 	C 	0.40578	0.09422	0.22	-0.039
Mof_C 	C 	0.39584	0.10416	0.24797	0.058
Mof_C 	C 	0.37472	0.12528	0.2999	0.011
Mof_C 	C 	0.3629	0.1371	0.3269	0.042
Mof_C 	C 	0.42522	0.57478	0.66712	0.044
Mof_H 	H 	0.4321	0.5679	0.6494	0.048
Mof_C 	C 	0.40578	0.59422	0.72	-0.039
Mof_C 	C 	0.39584	0.60416	0.74797	0.058
Mof_C 	C 	0.37472	0.62528	0.7999	0.011
Mof_C 	C 	0.3629	0.6371	0.8269	0.043
Mof_C 	C 	0.07478	0.92522	0.66712	0.044
Mof_H 	H 	0.0679	0.9321	0.6494	0.048
Mof_C 	C 	0.09422	0.90578	0.72	-0.039
Mof_C 	C 	0.10416	0.89584	0.74797	0.058
Mof_C 	C 	0.12528	0.87472	0.7999	0.011
Mof_C 	C 	0.1371	0.8629	0.8269	0.043
Mof_C 	C 	0.07478	0.42522	0.16712	0.044
Mof_H 	H 	0.0679	0.4321	0.1494	0.047
Mof_C 	C 	0.09422	0.40578	0.22	-0.039
Mof_C 	C 	0.10416	0.39584	0.24797	0.058
Mof_C 	C 	0.12528	0.37472	0.2999	0.011
Mof_C 	C 	0.1371	0.3629	0.3269	0.042
Mof_C 	C 	0.57478	0.92522	0.16712	0.044
Mof_H 	H 	0.5679	0.9321	0.1494	0.048
Mof_C 	C 	0.59422	0.90578	0.22	-0.038
Mof_C 	C 	0.60416	0.89584	0.24797	0.058
Mof_C 	C 	0.62528	0.87472	0.2999	0.011
Mof_C 	C 	0.6371	0.8629	0.3269	0.043
Mof_C 	C 	0.57478	0.42522	0.66712	0.044
Mof_H 	H 	0.5679	0.4321	0.6494	0.048
Mof_C 	C 	0.59422	0.40578	0.72	-0.039
Mof_C 	C 	0.60416	0.39584	0.74797	0.058
Mof_C 	C 	0.62528	0.37472	0.7999	0.011
Mof_C 	C 	0.6371	0.3629	0.8269	0.043
Mof_C 	C 	0.92522	0.92522	0.33288	0.043
Mof_H 	H 	0.9321	0.9321	0.3506	0.048
Mof_C 	C 	0.90578	0.90578	0.28	-0.038
Mof_C 	C 	0.89584	0.89584	0.25203	0.058
Mof_C 	C 	0.87472	0.87472	0.2001	0.011
Mof_C 	C 	0.8629	0.8629	0.1731	0.043
Mof_C 	C 	0.92522	0.42522	0.83288	0.043
Mof_H 	H 	0.9321	0.4321	0.8506	0.048
Mof_C 	C 	0.90578	0.40578	0.78	-0.038
Mof_C 	C 	0.89584	0.39584	0.75203	0.058
Mof_C 	C 	0.87472	0.37472	0.7001	0.011
Mof_C 	C 	0.8629	0.3629	0.6731	0.043
Mof_C 	C 	0.42522	0.92522	0.83288	0.043
Mof_H 	H 	0.4321	0.9321	0.8506	0.048
Mof_C 	C 	0.40578	0.90578	0.78	-0.038
Mof_C 	C 	0.39584	0.89584	0.75203	0.058
Mof_C 	C 	0.37472	0.87472	0.7001	0.011
Mof_C 	C 	0.3629	0.8629	0.6731	0.043
Mof_C 	C 	0.42522	0.42522	0.33288	0.044
Mof_H 	H 	0.4321	0.4321	0.3506	0.048
Mof_C 	C 	0.40578	0.40578	0.28	-0.039
Mof_C 	C 	0.39584	0.39584	0.25203	0.058
Mof_C 	C 	0.37472	0.37472	0.2001	0.011
Mof_C 	C 	0.3629	0.3629	0.1731	0.043
Mof_C 	C 	0.07478	0.33288	0.92522	0.044
Mof_H 	H 	0.0679	0.3506	0.9321	0.048
Mof_C 	C 	0.09422	0.28	0.90578	-0.039
Mof_C 	C 	0.10416	0.25203	0.89584	0.058
Mof_C 	C 	0.12528	0.2001	0.87472	0.011
Mof_C 	C 	0.1371	0.1731	0.8629	0.043
Mof_C 	C 	0.07478	0.83288	0.42522	0.044
Mof_H 	H 	0.0679	0.8506	0.4321	0.048
Mof_C 	C 	0.09422	0.78	0.40578	-0.039
Mof_C 	C 	0.10416	0.75203	0.39584	0.058
Mof_C 	C 	0.12528	0.7001	0.37472	0.011
Mof_C 	C 	0.1371	0.6731	0.3629	0.042
Mof_C 	C 	0.57478	0.33288	0.42522	0.044
Mof_H 	H 	0.5679	0.3506	0.4321	0.048
Mof_C 	C 	0.59422	0.28	0.40578	-0.039
Mof_C 	C 	0.60416	0.25203	0.39584	0.058
Mof_C 	C 	0.62528	0.2001	0.37472	0.011
Mof_C 	C 	0.6371	0.1731	0.3629	0.043
Mof_C 	C 	0.57478	0.83288	0.92522	0.043
Mof_H 	H 	0.5679	0.8506	0.9321	0.048
Mof_C 	C 	0.59422	0.78	0.90578	-0.038
Mof_C 	C 	0.60416	0.75203	0.89584	0.058
Mof_C 	C 	0.62528	0.7001	0.87472	0.011
Mof_C 	C 	0.6371	0.6731	0.8629	0.043
Mof_C 	C 	0.92522	0.66712	0.92522	0.043
Mof_H 	H 	0.9321	0.6494	0.9321	0.048
Mof_C 	C 	0.90578	0.72	0.90578	-0.038
Mof_C 	C 	0.89584	0.74797	0.89584	0.058
Mof_C 	C 	0.87472	0.7999	0.87472	0.011
Mof_C 	C 	0.8629	0.8269	0.8629	0.043
Mof_C 	C 	0.92522	0.16712	0.42522	0.044
Mof_H 	H 	0.9321	0.1494	0.4321	0.048
Mof_C 	C 	0.90578	0.22	0.40578	-0.038
Mof_C 	C 	0.89584	0.24797	0.39584	0.058
Mof_C 	C 	0.87472	0.2999	0.37472	0.011
Mof_C 	C 	0.8629	0.3269	0.3629	0.043
Mof_C 	C 	0.42522	0.66712	0.42522	0.044
Mof_H 	H 	0.4321	0.6494	0.4321	0.048
Mof_C 	C 	0.40578	0.72	0.40578	-0.039
Mof_C 	C 	0.39584	0.74797	0.39584	0.058
Mof_C 	C 	0.37472	0.7999	0.37472	0.011
Mof_C 	C 	0.3629	0.8269	0.3629	0.043
Mof_C 	C 	0.42522	0.16712	0.92522	0.044
Mof_H 	H 	0.4321	0.1494	0.9321	0.048
Mof_C 	C 	0.40578	0.22	0.90578	-0.038
Mof_C 	C 	0.39584	0.24797	0.89584	0.058
Mof_C 	C 	0.37472	0.2999	0.87472	0.011
Mof_C 	C 	0.3629	0.3269	0.8629	0.043
Mof_C 	C 	0.07478	0.66712	0.07478	0.044
Mof_H 	H 	0.0679	0.6494	0.0679	0.047
Mof_C 	C 	0.09422	0.72	0.09422	-0.039
Mof_C 	C 	0.10416	0.74797	0.10416	0.058
Mof_C 	C 	0.12528	0.7999	0.12528	0.011
Mof_C 	C 	0.1371	0.8269	0.1371	0.042
Mof_C 	C 	0.07478	0.16712	0.57478	0.044
Mof_H 	H 	0.0679	0.1494	0.5679	0.047
Mof_C 	C 	0.09422	0.22	0.59422	-0.039
Mof_C 	C 	0.10416	0.24797	0.60416	0.058
Mof_C 	C 	0.12528	0.2999	0.62528	0.011
Mof_C 	C 	0.1371	0.3269	0.6371	0.042
Mof_C 	C 	0.57478	0.66712	0.57478	0.044
Mof_H 	H 	0.5679	0.6494	0.5679	0.048
Mof_C 	C 	0.59422	0.72	0.59422	-0.039
Mof_C 	C 	0.60416	0.74797	0.60416	0.058
Mof_C 	C 	0.62528	0.7999	0.62528	0.011
Mof_C 	C 	0.6371	0.8269	0.6371	0.043
Mof_C 	C 	0.57478	0.16712	0.07478	0.044
Mof_H 	H 	0.5679	0.1494	0.0679	0.047
Mof_C 	C 	0.59422	0.22	0.09422	-0.039
Mof_C 	C 	0.60416	0.24797	0.10416	0.058
Mof_C 	C 	0.62528	0.2999	0.12528	0.011
Mof_C 	C 	0.6371	0.3269	0.1371	0.042
Mof_C 	C 	0.92522	0.33288	0.07478	0.044
Mof_H 	H 	0.9321	0.3506	0.0679	0.048
Mof_C 	C 	0.90578	0.28	0.09422	-0.039
Mof_C 	C 	0.89584	0.25203	0.10416	0.058
Mof_C 	C 	0.87472	0.2001	0.12528	0.011
Mof_C 	C 	0.8629	0.1731	0.1371	0.043
Mof_C 	C 	0.92522	0.83288	0.57478	0.043
Mof_H 	H 	0.9321	0.8506	0.5679	0.048
Mof_C 	C 	0.90578	0.78	0.59422	-0.038
Mof_C 	C 	0.89584	0.75203	0.60416	0.058
Mof_C 	C 	0.87472	0.7001	0.62528	0.011
Mof_C 	C 	0.8629	0.6731	0.6371	0.043
Mof_C 	C 	0.42522	0.33288	0.57478	0.044
Mof_H 	H 	0.4321	0.3506	0.5679	0.048
Mof_C 	C 	0.40578	0.28	0.59422	-0.039
Mof_C 	C 	0.39584	0.25203	0.60416	0.058
Mof_C 	C 	0.37472	0.2001	0.62528	0.011
Mof_C 	C 	0.3629	0.1731	0.6371	0.043
Mof_C 	C 	0.42522	0.83288	0.07478	0.044
Mof_H 	H 	0.4321	0.8506	0.0679	0.048
Mof_C 	C 	0.40578	0.78	0.09422	-0.039
Mof_C 	C 	0.39584	0.75203	0.10416	0.058
Mof_C 	C 	0.37472	0.7001	0.12528	0.011
Mof_C 	C 	0.3629	0.6731	0.1371	0.042
Mof_C 	C 	0.33288	0.07478	0.92522	0.044
Mof_H 	H 	0.3506	0.0679	0.9321	0.048
Mof_C 	C 	0.28	0.09422	0.90578	-0.039
Mof_C 	C 	0.25203	0.10416	0.89584	0.058
Mof_C 	C 	0.2001	0.12528	0.87472	0.011
Mof_C 	C 	0.1731	0.1371	0.8629	0.043
Mof_C 	C 	0.33288	0.57478	0.42522	0.044
Mof_H 	H 	0.3506	0.5679	0.4321	0.048
Mof_C 	C 	0.28	0.59422	0.40578	-0.039
Mof_C 	C 	0.25203	0.60416	0.39584	0.058
Mof_C 	C 	0.2001	0.62528	0.37472	0.011
Mof_C 	C 	0.1731	0.6371	0.3629	0.043
Mof_C 	C 	0.83288	0.07478	0.42522	0.044
Mof_H 	H 	0.8506	0.0679	0.4321	0.048
Mof_C 	C 	0.78	0.09422	0.40578	-0.039
Mof_C 	C 	0.75203	0.10416	0.39584	0.058
Mof_C 	C 	0.7001	0.12528	0.37472	0.011
Mof_C 	C 	0.6731	0.1371	0.3629	0.042
Mof_C 	C 	0.83288	0.57478	0.92522	0.043
Mof_H 	H 	0.8506	0.5679	0.9321	0.048
Mof_C 	C 	0.78	0.59422	0.90578	-0.038
Mof_C 	C 	0.75203	0.60416	0.89584	0.058
Mof_C 	C 	0.7001	0.62528	0.87472	0.011
Mof_C 	C 	0.6731	0.6371	0.8629	0.043
Mof_C 	C 	0.66712	0.07478	0.07478	0.044
Mof_H 	H 	0.6494	0.0679	0.0679	0.047
Mof_C 	C 	0.72	0.09422	0.09422	-0.039
Mof_C 	C 	0.74797	0.10416	0.10416	0.058
Mof_C 	C 	0.7999	0.12528	0.12528	0.011
Mof_C 	C 	0.8269	0.1371	0.1371	0.042
Mof_C 	C 	0.66712	0.57478	0.57478	0.044
Mof_H 	H 	0.6494	0.5679	0.5679	0.048
Mof_C 	C 	0.72	0.59422	0.59422	-0.039
Mof_C 	C 	0.74797	0.60416	0.60416	0.058
Mof_C 	C 	0.7999	0.62528	0.62528	0.011
Mof_C 	C 	0.8269	0.6371	0.6371	0.043
Mof_C 	C 	0.16712	0.07478	0.57478	0.044
Mof_H 	H 	0.1494	0.0679	0.5679	0.047
Mof_C 	C 	0.22	0.09422	0.59422	-0.039
Mof_C 	C 	0.24797	0.10416	0.60416	0.058
Mof_C 	C 	0.2999	0.12528	0.62528	0.011
Mof_C 	C 	0.3269	0.1371	0.6371	0.042
Mof_C 	C 	0.16712	0.57478	0.07478	0.044
Mof_H 	H 	0.1494	0.5679	0.0679	0.047
Mof_C 	C 	0.22	0.59422	0.09422	-0.039
Mof_C 	C 	0.24797	0.60416	0.10416	0.058
Mof_C 	C 	0.2999	0.62528	0.12528	0.011
Mof_C 	C 	0.3269	0.6371	0.1371	0.042
Mof_C 	C 	0.66712	0.92522	0.92522	0.043
Mof_H 	H 	0.6494	0.9321	0.9321	0.048
Mof_C 	C 	0.72	0.90578	0.90578	-0.038
Mof_C 	C 	0.74797	0.89584	0.89584	0.058
Mof_C 	C 	0.7999	0.87472	0.87472	0.011
Mof_C 	C 	0.8269	0.8629	0.8629	0.043
Mof_C 	C 	0.66712	0.42522	0.42522	0.044
Mof_H 	H 	0.6494	0.4321	0.4321	0.048
Mof_C 	C 	0.72	0.40578	0.40578	-0.039
Mof_C 	C 	0.74797	0.39584	0.39584	0.058
Mof_C 	C 	0.7999	0.37472	0.37472	0.011
Mof_C 	C 	0.8269	0.3629	0.3629	0.043
Mof_C 	C 	0.16712	0.92522	0.42522	0.044
Mof_H 	H 	0.1494	0.9321	0.4321	0.048
Mof_C 	C 	0.22	0.90578	0.40578	-0.038
Mof_C 	C 	0.24797	0.89584	0.39584	0.058
Mof_C 	C 	0.2999	0.87472	0.37472	0.011
Mof_C 	C 	0.3269	0.8629	0.3629	0.043
Mof_C 	C 	0.16712	0.42522	0.92522	0.044
Mof_H 	H 	0.1494	0.4321	0.9321	0.048
Mof_C 	C 	0.22	0.40578	0.90578	-0.038
Mof_C 	C 	0.24797	0.39584	0.89584	0.058
Mof_C 	C 	0.2999	0.37472	0.87472	0.011
Mof_C 	C 	0.3269	0.3629	0.8629	0.043
Mof_C 	C 	0.33288	0.92522	0.07478	0.044
Mof_H 	H 	0.3506	0.9321	0.0679	0.048
Mof_C 	C 	0.28	0.90578	0.09422	-0.039
Mof_C 	C 	0.25203	0.89584	0.10416	0.058
Mof_C 	C 	0.2001	0.87472	0.12528	0.011
Mof_C 	C 	0.1731	0.8629	0.1371	0.043
Mof_C 	C 	0.33288	0.42522	0.57478	0.044
Mof_H 	H 	0.3506	0.4321	0.5679	0.048
Mof_C 	C 	0.28	0.40578	0.59422	-0.039
Mof_C 	C 	0.25203	0.39584	0.60416	0.058
Mof_C 	C 	0.2001	0.37472	0.62528	0.011
Mof_C 	C 	0.1731	0.3629	0.6371	0.043
Mof_C 	C 	0.83288	0.92522	0.57478	0.043
Mof_H 	H 	0.8506	0.9321	0.5679	0.048
Mof_C 	C 	0.78	0.90578	0.59422	-0.038
Mof_C 	C 	0.75203	0.89584	0.60416	0.058
Mof_C 	C 	0.7001	0.87472	0.62528	0.011
Mof_C 	C 	0.6731	0.8629	0.6371	0.043
Mof_C 	C 	0.83288	0.42522	0.07478	0.044
Mof_H 	H 	0.8506	0.4321	0.0679	0.048
Mof_C 	C 	0.78	0.40578	0.09422	-0.039
Mof_C 	C 	0.75203	0.39584	0.10416	0.058
Mof_C 	C 	0.7001	0.37472	0.12528	0.011
Mof_C 	C 	0.6731	0.3629	0.1371	0.042
Mof_C 	C 	0.07478	0.07478	0.66712	0.044
Mof_H 	H 	0.0679	0.0679	0.6494	0.047
Mof_C 	C 	0.09422	0.09422	0.72	-0.039
Mof_C 	C 	0.10416	0.10416	0.74797	0.058
Mof_C 	C 	0.12528	0.12528	0.7999	0.011
Mof_C 	C 	0.1371	0.1371	0.8269	0.042
Mof_C 	C 	0.07478	0.57478	0.16712	0.044
Mof_H 	H 	0.0679	0.5679	0.1494	0.047
Mof_C 	C 	0.09422	0.59422	0.22	-0.039
Mof_C 	C 	0.10416	0.60416	0.24797	0.058
Mof_C 	C 	0.12528	0.62528	0.2999	0.011
Mof_C 	C 	0.1371	0.6371	0.3269	0.042
Mof_C 	C 	0.57478	0.07478	0.16712	0.044
Mof_H 	H 	0.5679	0.0679	0.1494	0.047
Mof_C 	C 	0.59422	0.09422	0.22	-0.039
Mof_C 	C 	0.60416	0.10416	0.24797	0.058
Mof_C 	C 	0.62528	0.12528	0.2999	0.011
Mof_C 	C 	0.6371	0.1371	0.3269	0.042
Mof_C 	C 	0.57478	0.57478	0.66712	0.044
Mof_H 	H 	0.5679	0.5679	0.6494	0.048
Mof_C 	C 	0.59422	0.59422	0.72	-0.039
Mof_C 	C 	0.60416	0.60416	0.74797	0.058
Mof_C 	C 	0.62528	0.62528	0.7999	0.011
Mof_C 	C 	0.6371	0.6371	0.8269	0.043
Mof_C 	C 	0.07478	0.92522	0.33288	0.044
Mof_H 	H 	0.0679	0.9321	0.3506	0.048
Mof_C 	C 	0.09422	0.90578	0.28	-0.039
Mof_C 	C 	0.10416	0.89584	0.25203	0.058
Mof_C 	C 	0.12528	0.87472	0.2001	0.011
Mof_C 	C 	0.1371	0.8629	0.1731	0.043
Mof_C 	C 	0.07478	0.42522	0.83288	0.044
Mof_H 	H 	0.0679	0.4321	0.8506	0.048
Mof_C 	C 	0.09422	0.40578	0.78	-0.039
Mof_C 	C 	0.10416	0.39584	0.75203	0.058
Mof_C 	C 	0.12528	0.37472	0.7001	0.011
Mof_C 	C 	0.1371	0.3629	0.6731	0.042
Mof_C 	C 	0.57478	0.92522	0.83288	0.043
Mof_H 	H 	0.5679	0.9321	0.8506	0.048
Mof_C 	C 	0.59422	0.90578	0.78	-0.038
Mof_C 	C 	0.60416	0.89584	0.75203	0.058
Mof_C 	C 	0.62528	0.87472	0.7001	0.011
Mof_C 	C 	0.6371	0.8629	0.6731	0.043
Mof_C 	C 	0.57478	0.42522	0.33288	0.044
Mof_H 	H 	0.5679	0.4321	0.3506	0.048
Mof_C 	C 	0.59422	0.40578	0.28	-0.039
Mof_C 	C 	0.60416	0.39584	0.25203	0.058
Mof_C 	C 	0.62528	0.37472	0.2001	0.011
Mof_C 	C 	0.6371	0.3629	0.1731	0.043
Mof_C 	C 	0.92522	0.07478	0.33288	0.044
Mof_H 	H 	0.9321	0.0679	0.3506	0.048
Mof_C 	C 	0.90578	0.09422	0.28	-0.039
Mof_C 	C 	0.89584	0.10416	0.25203	0.058
Mof_C 	C 	0.87472	0.12528	0.2001	0.011
Mof_C 	C 	0.8629	0.1371	0.1731	0.043
Mof_C 	C 	0.92522	0.57478	0.83288	0.043
Mof_H 	H 	0.9321	0.5679	0.8506	0.048
Mof_C 	C 	0.90578	0.59422	0.78	-0.038
Mof_C 	C 	0.89584	0.60416	0.75203	0.058
Mof_C 	C 	0.87472	0.62528	0.7001	0.011
Mof_C 	C 	0.8629	0.6371	0.6731	0.043
Mof_C 	C 	0.42522	0.07478	0.83288	0.044
Mof_H 	H 	0.4321	0.0679	0.8506	0.048
Mof_C 	C 	0.40578	0.09422	0.78	-0.039
Mof_C 	C 	0.39584	0.10416	0.75203	0.058
Mof_C 	C 	0.37472	0.12528	0.7001	0.011
Mof_C 	C 	0.3629	0.1371	0.6731	0.042
Mof_C 	C 	0.42522	0.57478	0.33288	0.044
Mof_H 	H 	0.4321	0.5679	0.3506	0.048
Mof_C 	C 	0.40578	0.59422	0.28	-0.039
Mof_C 	C 	0.39584	0.60416	0.25203	0.058
Mof_C 	C 	0.37472	0.62528	0.2001	0.011
Mof_C 	C 	0.3629	0.6371	0.1731	0.043
Mof_C 	C 	0.92522	0.92522	0.66712	0.043
Mof_H 	H 	0.9321	0.9321	0.6494	0.048
Mof_C 	C 	0.90578	0.90578	0.72	-0.038
Mof_C 	C 	0.89584	0.89584	0.74797	0.058
Mof_C 	C 	0.87472	0.87472	0.7999	0.011
Mof_C 	C 	0.8629	0.8629	0.8269	0.043
Mof_C 	C 	0.92522	0.42522	0.16712	0.044
Mof_H 	H 	0.9321	0.4321	0.1494	0.048
Mof_C 	C 	0.90578	0.40578	0.22	-0.038
Mof_C 	C 	0.89584	0.39584	0.24797	0.058
Mof_C 	C 	0.87472	0.37472	0.2999	0.011
Mof_C 	C 	0.8629	0.3629	0.3269	0.043
Mof_C 	C 	0.42522	0.92522	0.16712	0.044
Mof_H 	H 	0.4321	0.9321	0.1494	0.048
Mof_C 	C 	0.40578	0.90578	0.22	-0.038
Mof_C 	C 	0.39584	0.89584	0.24797	0.058
Mof_C 	C 	0.37472	0.87472	0.2999	0.011
Mof_C 	C 	0.3629	0.8629	0.3269	0.043
Mof_C 	C 	0.42522	0.42522	0.66712	0.044
Mof_H 	H 	0.4321	0.4321	0.6494	0.048
Mof_C 	C 	0.40578	0.40578	0.72	-0.039
Mof_C 	C 	0.39584	0.39584	0.74797	0.058
Mof_C 	C 	0.37472	0.37472	0.7999	0.011
Mof_C 	C 	0.3629	0.3629	0.8269	0.043
Mof_C 	C 	0.16155	0.1234	0.16155	-0.111
Mof_H 	H 	0.1695	0.1066	0.1695	0.061
Mof_C 	C 	0.16155	0.6234	0.66155	-0.111
Mof_H 	H 	0.1695	0.6066	0.6695	0.061
Mof_C 	C 	0.66155	0.1234	0.66155	-0.111
Mof_H 	H 	0.6695	0.1066	0.6695	0.061
Mof_C 	C 	0.66155	0.6234	0.16155	-0.111
Mof_H 	H 	0.6695	0.6066	0.1695	0.061
Mof_C 	C 	0.83845	0.8766	0.16155	-0.111
Mof_H 	H 	0.8305	0.8934	0.1695	0.061
Mof_C 	C 	0.83845	0.3766	0.66155	-0.111
Mof_H 	H 	0.8305	0.3934	0.6695	0.061
Mof_C 	C 	0.33845	0.8766	0.66155	-0.111
Mof_H 	H 	0.3305	0.8934	0.6695	0.061
Mof_C 	C 	0.33845	0.3766	0.16155	-0.111
Mof_H 	H 	0.3305	0.3934	0.1695	0.061
Mof_C 	C 	0.83845	0.1234	0.83845	-0.111
Mof_H 	H 	0.8305	0.1066	0.8305	0.061
Mof_C 	C 	0.83845	0.6234	0.33845	-0.111
Mof_H 	H 	0.8305	0.6066	0.3305	0.061
Mof_C 	C 	0.33845	0.1234	0.33845	-0.111
Mof_H 	H 	0.3305	0.1066	0.3305	0.061
Mof_C 	C 	0.33845	0.6234	0.83845	-0.111
Mof_H 	H 	0.3305	0.6066	0.8305	0.061
Mof_C 	C 	0.16155	0.8766	0.83845	-0.111
Mof_H 	H 	0.1695	0.8934	0.8305	0.061
Mof_C 	C 	0.16155	0.3766	0.33845	-0.111
Mof_H 	H 	0.1695	0.3934	0.3305	0.061
Mof_C 	C 	0.66155	0.8766	0.33845	-0.111
Mof_H 	H 	0.6695	0.8934	0.3305	0.061
Mof_C 	C 	0.66155	0.3766	0.83845	-0.111
Mof_H 	H 	0.6695	0.3934	0.8305	0.061
Mof_C 	C 	0.16155	0.16155	0.1234	-0.111
Mof_H 	H 	0.1695	0.1695	0.1066	0.061
Mof_C 	C 	0.16155	0.66155	0.6234	-0.111
Mof_H 	H 	0.1695	0.6695	0.6066	0.061
Mof_C 	C 	0.66155	0.16155	0.6234	-0.111
Mof_H 	H 	0.6695	0.1695	0.6066	0.061
Mof_C 	C 	0.66155	0.66155	0.1234	-0.111
Mof_H 	H 	0.6695	0.6695	0.1066	0.061
Mof_C 	C 	0.16155	0.83845	0.8766	-0.111
Mof_H 	H 	0.1695	0.8305	0.8934	0.061
Mof_C 	C 	0.16155	0.33845	0.3766	-0.111
Mof_H 	H 	0.1695	0.3305	0.3934	0.061
Mof_C 	C 	0.66155	0.83845	0.3766	-0.111
Mof_H 	H 	0.6695	0.8305	0.3934	0.061
Mof_C 	C 	0.66155	0.33845	0.8766	-0.111
Mof_H 	H 	0.6695	0.3305	0.8934	0.061
Mof_C 	C 	0.83845	0.83845	0.1234	-0.111
Mof_H 	H 	0.8305	0.8305	0.1066	0.061
Mof_C 	C 	0.83845	0.33845	0.6234	-0.111
Mof_H 	H 	0.8305	0.3305	0.6066	0.061
Mof_C 	C 	0.33845	0.83845	0.6234	-0.111
Mof_H 	H 	0.3305	0.8305	0.6066	0.061
Mof_C 	C 	0.33845	0.33845	0.1234	-0.111
Mof_H 	H 	0.3305	0.3305	0.1066	0.061
Mof_C 	C 	0.83845	0.16155	0.8766	-0.111
Mof_H 	H 	0.8305	0.1695	0.8934	0.061
Mof_C 	C 	0.83845	0.66155	0.3766	-0.111
Mof_H 	H 	0.8305	0.6695	0.3934	0.061
Mof_C 	C 	0.33845	0.16155	0.3766	-0.111
Mof_H 	H 	0.3305	0.1695	0.3934	0.061
Mof_C 	C 	0.33845	0.66155	0.8766	-0.111
Mof_H 	H 	0.3305	0.6695	0.8934	0.061
Mof_C 	C 	0.1234	0.16155	0.16155	-0.111
Mof_H 	H 	0.1066	0.1695	0.1695	0.061
Mof_C 	C 	0.1234	0.66155	0.66155	-0.111
Mof_H 	H 	0.1066	0.6695	0.6695	0.061
Mof_C 	C 	0.6234	0.16155	0.66155	-0.111
Mof_H 	H 	0.6066	0.1695	0.6695	0.061
Mof_C 	C 	0.6234	0.66155	0.16155	-0.111
Mof_H 	H 	0.6066	0.6695	0.1695	0.061
Mof_C 	C 	0.8766	0.16155	0.83845	-0.111
Mof_H 	H 	0.8934	0.1695	0.8305	0.061
Mof_C 	C 	0.8766	0.66155	0.33845	-0.111
Mof_H 	H 	0.8934	0.6695	0.3305	0.061
Mof_C 	C 	0.3766	0.16155	0.33845	-0.111
Mof_H 	H 	0.3934	0.1695	0.3305	0.061
Mof_C 	C 	0.3766	0.66155	0.83845	-0.111
Mof_H 	H 	0.3934	0.6695	0.8305	0.061
Mof_C 	C 	0.1234	0.83845	0.83845	-0.111
Mof_H 	H 	0.1066	0.8305	0.8305	0.061
Mof_C 	C 	0.1234	0.33845	0.33845	-0.111
Mof_H 	H 	0.1066	0.3305	0.3305	0.061
Mof_C 	C 	0.6234	0.83845	0.33845	-0.111
Mof_H 	H 	0.6066	0.8305	0.3305	0.061
Mof_C 	C 	0.6234	0.33845	0.83845	-0.111
Mof_H 	H 	0.6066	0.3305	0.8305	0.061
Mof_C 	C 	0.8766	0.83845	0.16155	-0.111
Mof_H 	H 	0.8934	0.8305	0.1695	0.061
Mof_C 	C 	0.8766	0.33845	0.66155	-0.111
Mof_H 	H 	0.8934	0.3305	0.6695	0.061
Mof_C 	C 	0.3766	0.83845	0.66155	-0.111
Mof_H 	H 	0.3934	0.8305	0.6695	0.061
Mof_C 	C 	0.3766	0.33845	0.16155	-0.111
Mof_H 	H 	0.3934	0.3305	0.1695	0.061
Mof_C 	C 	0.1234	0.16155	0.83845	-0.111
Mof_H 	H 	0.1066	0.1695	0.8305	0.061
Mof_C 	C 	0.1234	0.66155	0.33845	-0.111
Mof_H 	H 	0.1066	0.6695	0.3305	0.061
Mof_C 	C 	0.6234	0.16155	0.33845	-0.111
Mof_H 	H 	0.6066	0.1695	0.3305	0.061
Mof_C 	C 	0.6234	0.66155	0.83845	-0.111
Mof_H 	H 	0.6066	0.6695	0.8305	0.061
Mof_C 	C 	0.8766	0.83845	0.83845	-0.111
Mof_H 	H 	0.8934	0.8305	0.8305	0.062
Mof_C 	C 	0.8766	0.33845	0.33845	-0.111
Mof_H 	H 	0.8934	0.3305	0.3305	0.062
Mof_C 	C 	0.3766	0.83845	0.33845	-0.111
Mof_H 	H 	0.3934	0.8305	0.3305	0.061
Mof_C 	C 	0.3766	0.33845	0.83845	-0.111
Mof_H 	H 	0.3934	0.3305	0.8305	0.061
Mof_C 	C 	0.1234	0.83845	0.16155	-0.111
Mof_H 	H 	0.1066	0.8305	0.1695	0.061
Mof_C 	C 	0.1234	0.33845	0.66155	-0.111
Mof_H 	H 	0.1066	0.3305	0.6695	0.061
Mof_C 	C 	0.6234	0.83845	0.66155	-0.111
Mof_H 	H 	0.6066	0.8305	0.6695	0.061
Mof_C 	C 	0.6234	0.33845	0.16155	-0.111
Mof_H 	H 	0.6066	0.3305	0.1695	0.061
Mof_C 	C 	0.8766	0.16155	0.16155	-0.111
Mof_H 	H 	0.8934	0.1695	0.1695	0.061
Mof_C 	C 	0.8766	0.66155	0.66155	-0.111
Mof_H 	H 	0.8934	0.6695	0.6695	0.061
Mof_C 	C 	0.3766	0.16155	0.66155	-0.111
Mof_H 	H 	0.3934	0.1695	0.6695	0.061
Mof_C 	C 	0.3766	0.66155	0.16155	-0.111
Mof_H 	H 	0.3934	0.6695	0.1695	0.061
Mof_C 	C 	0.16155	0.16155	0.8766	-0.111
Mof_H 	H 	0.1695	0.1695	0.8934	0.061
Mof_C 	C 	0.16155	0.66155	0.3766	-0.111
Mof_H 	H 	0.1695	0.6695	0.3934	0.061
Mof_C 	C 	0.66155	0.16155	0.3766	-0.111
Mof_H 	H 	0.6695	0.1695	0.3934	0.061
Mof_C 	C 	0.66155	0.66155	0.8766	-0.111
Mof_H 	H 	0.6695	0.6695	0.8934	0.061
Mof_C 	C 	0.83845	0.16155	0.1234	-0.111
Mof_H 	H 	0.8305	0.1695	0.1066	0.061
Mof_C 	C 	0.83845	0.66155	0.6234	-0.111
Mof_H 	H 	0.8305	0.6695	0.6066	0.061
Mof_C 	C 	0.33845	0.16155	0.6234	-0.111
Mof_H 	H 	0.3305	0.1695	0.6066	0.061
Mof_C 	C 	0.33845	0.66155	0.1234	-0.111
Mof_H 	H 	0.3305	0.6695	0.1066	0.061
Mof_C 	C 	0.83845	0.83845	0.8766	-0.111
Mof_H 	H 	0.8305	0.8305	0.8934	0.062
Mof_C 	C 	0.83845	0.33845	0.3766	-0.111
Mof_H 	H 	0.8305	0.3305	0.3934	0.061
Mof_C 	C 	0.33845	0.83845	0.3766	-0.111
Mof_H 	H 	0.3305	0.8305	0.3934	0.061
Mof_C 	C 	0.33845	0.33845	0.8766	-0.111
Mof_H 	H 	0.3305	0.3305	0.8934	0.062
Mof_C 	C 	0.16155	0.83845	0.1234	-0.111
Mof_H 	H 	0.1695	0.8305	0.1066	0.061
Mof_C 	C 	0.16155	0.33845	0.6234	-0.111
Mof_H 	H 	0.1695	0.3305	0.6066	0.061
Mof_C 	C 	0.66155	0.83845	0.6234	-0.111
Mof_H 	H 	0.6695	0.8305	0.6066	0.061
Mof_C 	C 	0.66155	0.33845	0.1234	-0.111
Mof_H 	H 	0.6695	0.3305	0.1066	0.061
Mof_C 	C 	0.16155	0.1234	0.83845	-0.111
Mof_H 	H 	0.1695	0.1066	0.8305	0.061
Mof_C 	C 	0.16155	0.6234	0.33845	-0.111
Mof_H 	H 	0.1695	0.6066	0.3305	0.061
Mof_C 	C 	0.66155	0.1234	0.33845	-0.111
Mof_H 	H 	0.6695	0.1066	0.3305	0.061
Mof_C 	C 	0.66155	0.6234	0.83845	-0.111
Mof_H 	H 	0.6695	0.6066	0.8305	0.061
Mof_C 	C 	0.16155	0.8766	0.16155	-0.111
Mof_H 	H 	0.1695	0.8934	0.1695	0.061
Mof_C 	C 	0.16155	0.3766	0.66155	-0.111
Mof_H 	H 	0.1695	0.3934	0.6695	0.061
Mof_C 	C 	0.66155	0.8766	0.66155	-0.111
Mof_H 	H 	0.6695	0.8934	0.6695	0.061
Mof_C 	C 	0.66155	0.3766	0.16155	-0.111
Mof_H 	H 	0.6695	0.3934	0.1695	0.061
Mof_C 	C 	0.83845	0.1234	0.16155	-0.111
Mof_H 	H 	0.8305	0.1066	0.1695	0.061
Mof_C 	C 	0.83845	0.6234	0.66155	-0.111
Mof_H 	H 	0.8305	0.6066	0.6695	0.061
Mof_C 	C 	0.33845	0.1234	0.66155	-0.111
Mof_H 	H 	0.3305	0.1066	0.6695	0.061
Mof_C 	C 	0.33845	0.6234	0.16155	-0.111
Mof_H 	H 	0.3305	0.6066	0.1695	0.061
Mof_C 	C 	0.83845	0.8766	0.83845	-0.111
Mof_H 	H 	0.8305	0.8934	0.8305	0.062
Mof_C 	C 	0.83845	0.3766	0.33845	-0.111
Mof_H 	H 	0.8305	0.3934	0.3305	0.061
Mof_C 	C 	0.33845	0.8766	0.33845	-0.111
Mof_H 	H 	0.3305	0.8934	0.3305	0.062
Mof_C 	C 	0.33845	0.3766	0.83845	-0.111
Mof_H 	H 	0.3305	0.3934	0.8305	0.061
_end
