data_functionalizedCrystal
_audit_creation_method	'EQeq! by Chris Wilmer'
_symmetry_space_group_name_H-M	'P1'
_symmetry_Int_Tables_number	1
_symmetry_cell_setting	triclinic
loop_
_symmetry_equiv_pos_as_xyz
  x,y,z
_cell_length_a	7.5253
_cell_length_b	34.2257
_cell_length_c	19.5251
_cell_angle_alpha	90
_cell_angle_beta	90.483
_cell_angle_gamma	90
loop_
_atom_site_label
_atom_site_type_symbol
_atom_site_fract_x
_atom_site_fract_y
_atom_site_fract_z
_atom_site_charge
Mof_Mo	Mo	0.2127	0.10086	0.97577	0.968
Mof_Mo	Mo	0.73721	0.08835	0.60054	0.869
Mof_Mo	Mo	0.73161	0.27931	0.81197	0.956
Mof_Mn	Mn	0.72523	0.01873	0.84851	0.538
Mof_Mn	Mn	0.23126	0.17401	0.73505	0.58
Mof_Mn	Mn	0.23427	0.06695	0.40093	0.41
Mof_Mn	Mn	0.22846	0.25913	0.0106	0.594
Mof_Mn	Mn	0.7248	0.15044	0.14971	0.642
Mof_C 	C 	0.3871	0.06195	0.9221	-0.153
Mof_C 	C 	0.2748	0.12778	0.8815	-0.156
Mof_C 	C 	0.1914	0.16316	0.9895	-0.134
Mof_C 	C 	0.0289	0.1099	0.0563	-0.151
Mof_C 	C 	0.2009	0.04601	0.0311	-0.138
Mof_C 	C 	0.4323	0.1125	0.0435	-0.146
Mof_C 	C 	0.9893	0.08197	0.9151	-0.16
Mof_C 	C 	0.6797	0.0586	0.6941	-0.283
Mof_C 	C 	0.535	0.12019	0.6518	-0.341
Mof_C 	C 	0.5397	0.07536	0.5245	-0.423
Mof_C 	C 	0.2424	0.35256	0.0599	-0.121
Mof_C 	C 	0.9252	0.08551	0.5185	-0.366
Mof_C 	C 	0.8063	0.02787	0.5893	-0.343
Mof_C 	C 	0.9329	0.11332	0.667	-0.39
Mof_C 	C 	0.9155	0.27492	0.8959	-0.144
Mof_C 	C 	0.7394	0.33967	0.8495	-0.142
Mof_C 	C 	0.4128	0.1958	0.2396	-0.15
Mof_C 	C 	0.9047	0.23273	0.7866	-0.139
Mof_C 	C 	0.5638	0.23445	0.7758	-0.147
Mof_C 	C 	0.0368	0.19399	0.2446	-0.142
Mof_C 	C 	0.5436	0.27086	0.8946	-0.14
Mof_C 	C 	0.7151	0.11985	0.299	0.239
Mof_C 	C 	0.7262	0.1348	0.3694	-0.854
Mof_N 	N 	0.482	0.04137	0.8925	-0.16
Mof_N 	N 	0.2946	0.14145	0.82818	-0.153
Mof_N 	N 	0.1936	0.19611	0.9984	-0.155
Mof_N 	N 	0.9317	0.1149	0.10103	-0.148
Mof_N 	N 	0.2034	0.01782	0.0636	-0.153
Mof_N 	N 	0.5397	0.1201	0.0835	-0.153
Mof_N 	N 	0.8749	0.07047	0.8814	-0.148
Mof_N 	N 	0.6635	0.04446	0.7474	-0.188
Mof_N 	N 	0.425	0.13657	0.68008	-0.202
Mof_N 	N 	0.4354	0.06972	0.4815	-0.22
Mof_N 	N 	0.247	0.32029	0.0426	-0.172
Mof_N 	N 	0.0247	0.08226	0.4742	-0.201
Mof_N 	N 	0.8291	0.99506	0.5819	-0.22
Mof_N 	N 	0.03	0.1288	0.7041	-0.181
Mof_N 	N 	0.0115	0.27235	0.9422	-0.159
Mof_N 	N 	0.7485	0.37143	0.8682	-0.166
Mof_N 	N 	0.5084	0.18179	0.2009	-0.152
Mof_N 	N 	0.0077	0.20897	0.7725	-0.148
Mof_N 	N 	0.4597	0.21162	0.7577	-0.142
Mof_N 	N 	0.9338	0.18105	0.2067	-0.155
Mof_N 	N 	0.4458	0.26561	0.93832	-0.155
Mof_N 	N 	0.7085	0.10946	0.2432	-0.272
Mof_K 	K 	0.2339	0.06502	0.61666	2.365
Mof_H 	H 	0.8362	0.1267	0.3898	0.262
Mof_H 	H 	0.7213	0.1627	0.3678	0.274
Mof_H 	H 	0.6294	0.1248	0.3949	0.264
Mof_Mo	Mo	0.2873	0.60086	0.52423	0.977
Mof_Mo	Mo	0.76279	0.58835	0.89946	0.871
Mof_Mo	Mo	0.76839	0.77931	0.68803	0.96
Mof_Mn	Mn	0.77477	0.51873	0.65149	0.539
Mof_Mn	Mn	0.26874	0.67401	0.76495	0.582
Mof_Mn	Mn	0.26573	0.56695	0.09907	0.412
Mof_Mn	Mn	0.27154	0.75913	0.4894	0.594
Mof_Mn	Mn	0.7752	0.65044	0.35029	0.642
Mof_C 	C 	0.1129	0.56195	0.5779	-0.152
Mof_C 	C 	0.2252	0.62778	0.6185	-0.155
Mof_C 	C 	0.3086	0.66316	0.5105	-0.133
Mof_C 	C 	0.4711	0.6099	0.4437	-0.154
Mof_C 	C 	0.2991	0.54601	0.4689	-0.139
Mof_C 	C 	0.0677	0.6125	0.4565	-0.147
Mof_C 	C 	0.5107	0.58197	0.5849	-0.164
Mof_C 	C 	0.8203	0.5586	0.8059	-0.283
Mof_C 	C 	0.965	0.62019	0.8482	-0.339
Mof_C 	C 	0.9603	0.57536	0.9755	-0.422
Mof_C 	C 	0.2576	0.85256	0.4401	-0.121
Mof_C 	C 	0.5748	0.58551	0.9815	-0.368
Mof_C 	C 	0.6937	0.52787	0.9107	-0.344
Mof_C 	C 	0.5671	0.61332	0.833	-0.395
Mof_C 	C 	0.5845	0.77492	0.6041	-0.148
Mof_C 	C 	0.7606	0.83967	0.6505	-0.143
Mof_C 	C 	0.0872	0.6958	0.2604	-0.146
Mof_C 	C 	0.5953	0.73273	0.7134	-0.143
Mof_C 	C 	0.9362	0.73445	0.7242	-0.147
Mof_C 	C 	0.4632	0.69399	0.2554	-0.142
Mof_C 	C 	0.9564	0.77086	0.6054	-0.142
Mof_C 	C 	0.7849	0.61985	0.201	0.237
Mof_C 	C 	0.7738	0.6348	0.1306	-0.85
Mof_N 	N 	0.018	0.54137	0.6075	-0.16
Mof_N 	N 	0.2054	0.64145	0.67182	-0.153
Mof_N 	N 	0.3064	0.69611	0.5016	-0.154
Mof_N 	N 	0.5683	0.6149	0.39897	-0.147
Mof_N 	N 	0.2966	0.51782	0.4364	-0.153
Mof_N 	N 	0.9603	0.6201	0.4165	-0.154
Mof_N 	N 	0.6251	0.57047	0.6186	-0.148
Mof_N 	N 	0.8365	0.54446	0.7526	-0.188
Mof_N 	N 	0.075	0.63657	0.81992	-0.204
Mof_N 	N 	0.0646	0.56972	0.0185	-0.22
Mof_N 	N 	0.253	0.82029	0.4574	-0.172
Mof_N 	N 	0.4753	0.58226	0.0258	-0.2
Mof_N 	N 	0.6709	0.49506	0.9181	-0.22
Mof_N 	N 	0.47	0.6288	0.7959	-0.178
Mof_N 	N 	0.4885	0.77235	0.5578	-0.155
Mof_N 	N 	0.7515	0.87143	0.6318	-0.167
Mof_N 	N 	0.9916	0.68179	0.2991	-0.155
Mof_N 	N 	0.4923	0.70897	0.7275	-0.144
Mof_N 	N 	0.0403	0.71162	0.7423	-0.143
Mof_N 	N 	0.5662	0.68105	0.2933	-0.155
Mof_N 	N 	0.0542	0.76561	0.56168	-0.153
Mof_N 	N 	0.7915	0.60946	0.2568	-0.272
Mof_K 	K 	0.2661	0.56502	0.88334	2.365
Mof_H 	H 	0.6638	0.6267	0.1102	0.26
Mof_H 	H 	0.7787	0.6627	0.1322	0.272
Mof_H 	H 	0.8706	0.6248	0.1051	0.261
Mof_Mo	Mo	0.7873	0.89914	0.02423	0.969
Mof_Mo	Mo	0.26279	0.91165	0.39946	0.87
Mof_Mo	Mo	0.26839	0.72069	0.18803	0.957
Mof_Mn	Mn	0.27477	0.98127	0.15149	0.539
Mof_Mn	Mn	0.76874	0.82599	0.26495	0.581
Mof_Mn	Mn	0.76573	0.93305	0.59907	0.411
Mof_Mn	Mn	0.77154	0.74087	0.9894	0.595
Mof_Mn	Mn	0.2752	0.84956	0.85029	0.643
Mof_C 	C 	0.6129	0.93805	0.0779	-0.152
Mof_C 	C 	0.7252	0.87222	0.1185	-0.155
Mof_C 	C 	0.8086	0.83684	0.0105	-0.134
Mof_C 	C 	0.9711	0.8901	0.9437	-0.151
Mof_C 	C 	0.7991	0.95399	0.9689	-0.138
Mof_C 	C 	0.5677	0.8875	0.9565	-0.146
Mof_C 	C 	0.0107	0.91803	0.0849	-0.16
Mof_C 	C 	0.3203	0.9414	0.3059	-0.283
Mof_C 	C 	0.465	0.87981	0.3482	-0.341
Mof_C 	C 	0.4603	0.92464	0.4755	-0.423
Mof_C 	C 	0.7576	0.64744	0.9401	-0.121
Mof_C 	C 	0.0748	0.91449	0.4815	-0.366
Mof_C 	C 	0.1937	0.97213	0.4107	-0.343
Mof_C 	C 	0.0671	0.88668	0.333	-0.39
Mof_C 	C 	0.0845	0.72508	0.1041	-0.144
Mof_C 	C 	0.2606	0.66033	0.1505	-0.142
Mof_C 	C 	0.5872	0.8042	0.7604	-0.15
Mof_C 	C 	0.0953	0.76727	0.2134	-0.139
Mof_C 	C 	0.4362	0.76555	0.2242	-0.147
Mof_C 	C 	0.9632	0.80601	0.7554	-0.142
Mof_C 	C 	0.4564	0.72914	0.1054	-0.14
Mof_C 	C 	0.2849	0.88015	0.701	0.239
Mof_C 	C 	0.2738	0.8652	0.6306	-0.854
Mof_N 	N 	0.518	0.95863	0.1075	-0.16
Mof_N 	N 	0.7054	0.85855	0.17182	-0.153
Mof_N 	N 	0.8064	0.80389	0.0016	-0.155
Mof_N 	N 	0.0683	0.8851	0.89897	-0.148
Mof_N 	N 	0.7966	0.98218	0.9364	-0.153
Mof_N 	N 	0.4603	0.8799	0.9165	-0.153
Mof_N 	N 	0.1251	0.92953	0.1186	-0.148
Mof_N 	N 	0.3365	0.95554	0.2526	-0.188
Mof_N 	N 	0.575	0.86343	0.31992	-0.202
Mof_N 	N 	0.5646	0.93028	0.5185	-0.22
Mof_N 	N 	0.753	0.67971	0.9574	-0.172
Mof_N 	N 	0.9753	0.91774	0.5258	-0.201
Mof_N 	N 	0.1709	0.00494	0.4181	-0.22
Mof_N 	N 	0.97	0.8712	0.2959	-0.181
Mof_N 	N 	0.9885	0.72765	0.0578	-0.159
Mof_N 	N 	0.2515	0.62857	0.1318	-0.166
Mof_N 	N 	0.4916	0.81821	0.7991	-0.152
Mof_N 	N 	0.9923	0.79103	0.2275	-0.148
Mof_N 	N 	0.5403	0.78838	0.2423	-0.142
Mof_N 	N 	0.0662	0.81895	0.7933	-0.155
Mof_N 	N 	0.5542	0.73439	0.06168	-0.155
Mof_N 	N 	0.2915	0.89054	0.7568	-0.272
Mof_K 	K 	0.7661	0.93498	0.38334	2.365
Mof_H 	H 	0.1638	0.8733	0.6102	0.262
Mof_H 	H 	0.2787	0.8373	0.6322	0.274
Mof_H 	H 	0.3706	0.8752	0.6051	0.264
Mof_Mo	Mo	0.7127	0.39914	0.47577	0.977
Mof_Mo	Mo	0.23721	0.41165	0.10054	0.871
Mof_Mo	Mo	0.23161	0.22069	0.31197	0.96
Mof_Mn	Mn	0.22523	0.48127	0.34851	0.539
Mof_Mn	Mn	0.73126	0.32599	0.23505	0.582
Mof_Mn	Mn	0.73427	0.43305	0.90093	0.412
Mof_Mn	Mn	0.72846	0.24087	0.5106	0.594
Mof_Mn	Mn	0.2248	0.34956	0.64971	0.642
Mof_C 	C 	0.8871	0.43805	0.4221	-0.152
Mof_C 	C 	0.7748	0.37222	0.3815	-0.155
Mof_C 	C 	0.6914	0.33684	0.4895	-0.133
Mof_C 	C 	0.5289	0.3901	0.5563	-0.154
Mof_C 	C 	0.7009	0.45399	0.5311	-0.139
Mof_C 	C 	0.9323	0.3875	0.5435	-0.147
Mof_C 	C 	0.4893	0.41803	0.4151	-0.164
Mof_C 	C 	0.1797	0.4414	0.1941	-0.283
Mof_C 	C 	0.035	0.37981	0.1518	-0.339
Mof_C 	C 	0.0397	0.42464	0.0245	-0.422
Mof_C 	C 	0.7424	0.14744	0.5599	-0.121
Mof_C 	C 	0.4252	0.41449	0.0185	-0.368
Mof_C 	C 	0.3063	0.47213	0.0893	-0.344
Mof_C 	C 	0.4329	0.38668	0.167	-0.395
Mof_C 	C 	0.4155	0.22508	0.3959	-0.148
Mof_C 	C 	0.2394	0.16033	0.3495	-0.143
Mof_C 	C 	0.9128	0.3042	0.7396	-0.146
Mof_C 	C 	0.4047	0.26727	0.2866	-0.143
Mof_C 	C 	0.0638	0.26555	0.2758	-0.147
Mof_C 	C 	0.5368	0.30601	0.7446	-0.142
Mof_C 	C 	0.0436	0.22914	0.3946	-0.142
Mof_C 	C 	0.2151	0.38015	0.799	0.237
Mof_C 	C 	0.2262	0.3652	0.8694	-0.85
Mof_N 	N 	0.982	0.45863	0.3925	-0.16
Mof_N 	N 	0.7946	0.35855	0.32818	-0.153
Mof_N 	N 	0.6936	0.30389	0.4984	-0.154
Mof_N 	N 	0.4317	0.3851	0.60103	-0.147
Mof_N 	N 	0.7034	0.48218	0.5636	-0.153
Mof_N 	N 	0.0397	0.3799	0.5835	-0.154
Mof_N 	N 	0.3749	0.42953	0.3814	-0.148
Mof_N 	N 	0.1635	0.45554	0.2474	-0.188
Mof_N 	N 	0.925	0.36343	0.18008	-0.204
Mof_N 	N 	0.9354	0.43028	0.9815	-0.22
Mof_N 	N 	0.747	0.17971	0.5426	-0.172
Mof_N 	N 	0.5247	0.41774	0.9742	-0.2
Mof_N 	N 	0.3291	0.50494	0.0819	-0.22
Mof_N 	N 	0.53	0.3712	0.2041	-0.178
Mof_N 	N 	0.5115	0.22765	0.4422	-0.155
Mof_N 	N 	0.2485	0.12857	0.3682	-0.167
Mof_N 	N 	0.0084	0.31821	0.7009	-0.155
Mof_N 	N 	0.5077	0.29103	0.2725	-0.144
Mof_N 	N 	0.9597	0.28838	0.2577	-0.143
Mof_N 	N 	0.4338	0.31895	0.7067	-0.155
Mof_N 	N 	0.9458	0.23439	0.43832	-0.153
Mof_N 	N 	0.2085	0.39054	0.7432	-0.272
Mof_K 	K 	0.7339	0.43498	0.11666	2.365
Mof_H 	H 	0.3362	0.3733	0.8898	0.26
Mof_H 	H 	0.2213	0.3373	0.8678	0.272
Mof_H 	H 	0.1294	0.3752	0.8949	0.261
_end
