data_functionalizedCrystal
_audit_creation_method	'EQeq! by Chris Wilmer'
_symmetry_space_group_name_H-M	'P1'
_symmetry_Int_Tables_number	1
_symmetry_cell_setting	triclinic
loop_
_symmetry_equiv_pos_as_xyz
  x,y,z
_cell_length_a	10.2233
_cell_length_b	14.6052
_cell_length_c	14.3041
_cell_angle_alpha	90
_cell_angle_beta	90.162
_cell_angle_gamma	90
loop_
_atom_site_label
_atom_site_type_symbol
_atom_site_fract_x
_atom_site_fract_y
_atom_site_fract_z
_atom_site_charge
Mof_Al	Al	0.3582	0.3861	0.0163	3.639
Mof_Al	Al	0.6338	0.2307	0.8711	3.67
Mof_P 	P 	0.3326	0.2352	0.8574	1.105
Mof_P 	P 	0.6695	0.3977	0.013	1.153
Mof_O 	O 	0.5334	0.3912	0.0521	-1.239
Mof_O 	O 	0.678	0.3452	0.9219	-1.214
Mof_O 	O 	0.4621	0.1914	0.8864	-1.236
Mof_O 	O 	0.3259	0.2518	0.7538	-1.163
Mof_O 	O 	0.3169	0.3286	0.9039	-1.207
Mof_O 	O 	0.7086	0.4963	0.9921	-1.14
Mof_O 	O 	0.2215	0.1727	0.883	-1.126
Mof_O 	O 	0.7653	0.3617	0.0838	-1.212
Mof_Al	Al	0.8582	0.8861	0.0163	3.498
Mof_Al	Al	0.1338	0.7307	0.8711	3.653
Mof_P 	P 	0.8326	0.7352	0.8574	1.105
Mof_P 	P 	0.1695	0.8977	0.013	1.135
Mof_O 	O 	0.0334	0.8912	0.0521	-1.207
Mof_O 	O 	0.178	0.8452	0.9219	-1.205
Mof_O 	O 	0.9621	0.6914	0.8864	-1.221
Mof_O 	O 	0.8259	0.7518	0.7538	-1.162
Mof_O 	O 	0.8169	0.8286	0.9039	-1.165
Mof_O 	O 	0.2086	0.9963	0.9921	-1.105
Mof_O 	O 	0.7215	0.6727	0.883	-1.142
Mof_O 	O 	0.2653	0.8617	0.0838	-1.212
Mof_Al	Al	0.6418	0.3861	0.4837	3.604
Mof_Al	Al	0.3662	0.2307	0.6289	3.672
Mof_P 	P 	0.6674	0.2352	0.6426	1.107
Mof_P 	P 	0.3305	0.3977	0.487	1.153
Mof_O 	O 	0.4666	0.3912	0.4479	-1.234
Mof_O 	O 	0.322	0.3452	0.5781	-1.216
Mof_O 	O 	0.5379	0.1914	0.6136	-1.236
Mof_O 	O 	0.6741	0.2518	0.7462	-1.162
Mof_O 	O 	0.6831	0.3286	0.5961	-1.197
Mof_O 	O 	0.2914	0.4963	0.5079	-1.139
Mof_O 	O 	0.7785	0.1727	0.617	-1.14
Mof_O 	O 	0.2347	0.3617	0.4162	-1.216
Mof_Al	Al	0.1418	0.8861	0.4837	3.603
Mof_Al	Al	0.8662	0.7307	0.6289	3.683
Mof_P 	P 	0.1674	0.7352	0.6426	1.107
Mof_P 	P 	0.8305	0.8977	0.487	1.153
Mof_O 	O 	0.9666	0.8912	0.4479	-1.236
Mof_O 	O 	0.822	0.8452	0.5781	-1.216
Mof_O 	O 	0.0379	0.6914	0.6136	-1.239
Mof_O 	O 	0.1741	0.7518	0.7462	-1.159
Mof_O 	O 	0.1831	0.8286	0.5961	-1.197
Mof_O 	O 	0.7914	0.9963	0.5079	-1.139
Mof_O 	O 	0.2785	0.6727	0.617	-1.14
Mof_O 	O 	0.7347	0.8617	0.4162	-1.216
Mof_Al	Al	0.6418	0.6139	0.9837	3.638
Mof_Al	Al	0.3662	0.7693	0.1289	3.669
Mof_P 	P 	0.6674	0.7648	0.1426	1.104
Mof_P 	P 	0.3305	0.6023	0.987	1.152
Mof_O 	O 	0.4666	0.6088	0.9479	-1.239
Mof_O 	O 	0.322	0.6548	0.0781	-1.214
Mof_O 	O 	0.5379	0.8086	0.1136	-1.236
Mof_O 	O 	0.6741	0.7482	0.2462	-1.163
Mof_O 	O 	0.6831	0.6714	0.0961	-1.207
Mof_O 	O 	0.2914	0.5037	0.0079	-1.14
Mof_O 	O 	0.7785	0.8273	0.117	-1.126
Mof_O 	O 	0.2347	0.6383	0.9162	-1.212
Mof_Al	Al	0.1418	0.1139	0.9837	3.498
Mof_Al	Al	0.8662	0.2693	0.1289	3.653
Mof_P 	P 	0.1674	0.2648	0.1426	1.105
Mof_P 	P 	0.8305	0.1023	0.987	1.135
Mof_O 	O 	0.9666	0.1088	0.9479	-1.207
Mof_O 	O 	0.822	0.1548	0.0781	-1.205
Mof_O 	O 	0.0379	0.3086	0.1136	-1.221
Mof_O 	O 	0.1741	0.2482	0.2462	-1.162
Mof_O 	O 	0.1831	0.1714	0.0961	-1.165
Mof_O 	O 	0.7914	0.0037	0.0079	-1.105
Mof_O 	O 	0.2785	0.3273	0.117	-1.142
Mof_O 	O 	0.7347	0.1383	0.9162	-1.212
Mof_Al	Al	0.3582	0.6139	0.5163	3.604
Mof_Al	Al	0.6338	0.7693	0.3711	3.672
Mof_P 	P 	0.3326	0.7648	0.3574	1.107
Mof_P 	P 	0.6695	0.6023	0.513	1.153
Mof_O 	O 	0.5334	0.6088	0.5521	-1.234
Mof_O 	O 	0.678	0.6548	0.4219	-1.216
Mof_O 	O 	0.4621	0.8086	0.3864	-1.236
Mof_O 	O 	0.3259	0.7482	0.2538	-1.162
Mof_O 	O 	0.3169	0.6714	0.4039	-1.197
Mof_O 	O 	0.7086	0.5037	0.4921	-1.139
Mof_O 	O 	0.2215	0.8273	0.383	-1.14
Mof_O 	O 	0.7653	0.6383	0.5838	-1.216
Mof_Al	Al	0.8582	0.1139	0.5163	3.603
Mof_Al	Al	0.1338	0.2693	0.3711	3.683
Mof_P 	P 	0.8326	0.2648	0.3574	1.107
Mof_P 	P 	0.1695	0.1023	0.513	1.153
Mof_O 	O 	0.0334	0.1088	0.5521	-1.236
Mof_O 	O 	0.178	0.1548	0.4219	-1.216
Mof_O 	O 	0.9621	0.3086	0.3864	-1.239
Mof_O 	O 	0.8259	0.2482	0.2538	-1.159
Mof_O 	O 	0.8169	0.1714	0.4039	-1.197
Mof_O 	O 	0.2086	0.0037	0.4921	-1.139
Mof_O 	O 	0.7215	0.3273	0.383	-1.14
Mof_O 	O 	0.2653	0.1383	0.5838	-1.216
_end
