data_functionalizedCrystal
_audit_creation_method	'EQeq! by Chris Wilmer'
_symmetry_space_group_name_H-M	'P1'
_symmetry_Int_Tables_number	1
_symmetry_cell_setting	triclinic
loop_
_symmetry_equiv_pos_as_xyz
  x,y,z
_cell_length_a	10.4299
_cell_length_b	13.5219
_cell_length_c	31.6642
_cell_angle_alpha	90
_cell_angle_beta	97.6208
_cell_angle_gamma	90
loop_
_atom_site_label
_atom_site_type_symbol
_atom_site_fract_x
_atom_site_fract_y
_atom_site_fract_z
_atom_site_charge
Mof_Eu	Eu	0.91552	0.90392	0.539	2.063
Mof_Eu	Eu	0.08448	0.40392	0.961	2.077
Mof_Eu	Eu	0.08448	0.09608	0.461	2.063
Mof_Eu	Eu	0.91552	0.59608	0.039	2.077
Mof_H 	H 	0.7801	0.0196	0.3548	0.01
Mof_H 	H 	0.6351	0.9691	0.2965	0.092
Mof_H 	H 	0.4601	0.7877	0.37	0.089
Mof_H 	H 	0.608	0.8358	0.4302	-0.017
Mof_H 	H 	0.7576	0.2098	0.8776	0.026
Mof_H 	H 	0.6252	0.1488	0.8186	0.068
Mof_H 	H 	0.8266	0.306	0.7418	0.07
Mof_H 	H 	0.9679	0.3611	0.8003	0.031
Mof_H 	H 	0.1474	0.7417	0.5233	-0.025
Mof_H 	H 	0.2686	0.5922	0.5345	0.085
Mof_H 	H 	0.4655	0.6706	0.4372	0.079
Mof_H 	H 	0.3433	0.8166	0.4294	0.003
Mof_H 	H 	0.2199	0.5196	0.1452	0.003
Mof_H 	H 	0.3649	0.4691	0.2035	0.096
Mof_H 	H 	0.5399	0.2877	0.13	0.091
Mof_H 	H 	0.392	0.3358	0.0698	-0.02
Mof_H 	H 	0.2424	0.7098	0.6224	0.026
Mof_H 	H 	0.3748	0.6488	0.6814	0.068
Mof_H 	H 	0.1734	0.806	0.7582	0.07
Mof_H 	H 	0.0321	0.8611	0.6997	0.032
Mof_H 	H 	0.8526	0.2417	0.9767	-0.026
Mof_H 	H 	0.7314	0.0922	0.9655	0.086
Mof_H 	H 	0.5345	0.1706	0.0628	0.079
Mof_H 	H 	0.6567	0.3166	0.0706	0.002
Mof_H 	H 	0.2199	0.9804	0.6452	0.01
Mof_H 	H 	0.3649	0.0309	0.7035	0.092
Mof_H 	H 	0.5399	0.2123	0.63	0.089
Mof_H 	H 	0.392	0.1642	0.5698	-0.017
Mof_H 	H 	0.2424	0.7902	0.1224	0.026
Mof_H 	H 	0.3748	0.8512	0.1814	0.068
Mof_H 	H 	0.1734	0.694	0.2582	0.07
Mof_H 	H 	0.0321	0.6389	0.1997	0.031
Mof_H 	H 	0.8526	0.2583	0.4767	-0.025
Mof_H 	H 	0.7314	0.4078	0.4655	0.085
Mof_H 	H 	0.5345	0.3294	0.5628	0.079
Mof_H 	H 	0.6567	0.1834	0.5706	0.003
Mof_H 	H 	0.7801	0.4804	0.8548	0.003
Mof_H 	H 	0.6351	0.5309	0.7965	0.096
Mof_H 	H 	0.4601	0.7123	0.87	0.091
Mof_H 	H 	0.608	0.6642	0.9302	-0.02
Mof_H 	H 	0.7576	0.2902	0.3776	0.026
Mof_H 	H 	0.6252	0.3512	0.3186	0.068
Mof_H 	H 	0.8266	0.194	0.2418	0.07
Mof_H 	H 	0.9679	0.1389	0.3003	0.032
Mof_H 	H 	0.1474	0.7583	0.0233	-0.026
Mof_H 	H 	0.2686	0.9078	0.0345	0.086
Mof_H 	H 	0.4655	0.8294	0.9372	0.079
Mof_H 	H 	0.3433	0.6834	0.9294	0.002
Mof_C 	C 	0.1977	0.0401	0.5637	0.502
Mof_C 	C 	0.2938	0.0697	0.6019	-0.21
Mof_C 	C 	0.2844	0.0283	0.6418	0.106
Mof_C 	C 	0.3707	0.0584	0.6763	-0.181
Mof_C 	C 	0.4627	0.1255	0.672	0.124
Mof_C 	C 	0.5262	0.8345	0.367	-0.179
Mof_C 	C 	0.6142	0.8635	0.403	0.114
Mof_C 	C 	0.5502	0.162	0.7093	-0.05
Mof_C 	C 	0.9752	0.3176	0.8831	0.34
Mof_C 	C 	0.8833	0.2834	0.8448	-0.101
Mof_C 	C 	0.7752	0.2261	0.8498	0.037
Mof_C 	C 	0.6938	0.1928	0.815	-0.118
Mof_C 	C 	0.7129	0.2244	0.7742	0.068
Mof_C 	C 	0.814	0.285	0.7696	-0.117
Mof_C 	C 	0.8995	0.317	0.8042	0.033
Mof_C 	C 	0.6263	0.1898	0.738	-0.02
Mof_C 	C 	0.161	0.8855	0.4696	0.46
Mof_C 	C 	0.236	0.7909	0.4761	-0.217
Mof_C 	C 	0.2135	0.7276	0.5062	0.12
Mof_C 	C 	0.2872	0.6381	0.5135	-0.184
Mof_C 	C 	0.3828	0.6205	0.4901	0.102
Mof_C 	C 	0.4036	0.6854	0.4558	-0.173
Mof_C 	C 	0.3289	0.7707	0.451	0.104
Mof_C 	C 	0.4653	0.5366	0.4975	-0.052
Mof_C 	C 	0.8023	0.5401	0.9363	0.513
Mof_C 	C 	0.7062	0.5697	0.8981	-0.219
Mof_C 	C 	0.7156	0.5283	0.8582	0.122
Mof_C 	C 	0.6293	0.5584	0.8237	-0.191
Mof_C 	C 	0.5373	0.6255	0.828	0.13
Mof_C 	C 	0.4738	0.3345	0.133	-0.186
Mof_C 	C 	0.3858	0.3635	0.097	0.121
Mof_C 	C 	0.4498	0.662	0.7907	-0.052
Mof_C 	C 	0.0248	0.8176	0.6169	0.344
Mof_C 	C 	0.1167	0.7834	0.6552	-0.102
Mof_C 	C 	0.2248	0.7261	0.6502	0.037
Mof_C 	C 	0.3062	0.6928	0.685	-0.118
Mof_C 	C 	0.2871	0.7244	0.7258	0.067
Mof_C 	C 	0.186	0.785	0.7304	-0.117
Mof_C 	C 	0.1005	0.817	0.6958	0.033
Mof_C 	C 	0.3737	0.6898	0.762	-0.019
Mof_C 	C 	0.839	0.3855	0.0304	0.462
Mof_C 	C 	0.764	0.2909	0.0239	-0.22
Mof_C 	C 	0.7865	0.2276	0.9938	0.122
Mof_C 	C 	0.7128	0.1381	0.9865	-0.185
Mof_C 	C 	0.6172	0.1205	0.0099	0.103
Mof_C 	C 	0.5964	0.1854	0.0442	-0.174
Mof_C 	C 	0.6711	0.2707	0.049	0.106
Mof_C 	C 	0.5347	0.0366	0.0025	-0.053
Mof_C 	C 	0.8023	0.9599	0.4363	0.502
Mof_C 	C 	0.7062	0.9303	0.3981	-0.21
Mof_C 	C 	0.7156	0.9717	0.3582	0.106
Mof_C 	C 	0.6293	0.9416	0.3237	-0.181
Mof_C 	C 	0.5373	0.8745	0.328	0.124
Mof_C 	C 	0.4738	0.1655	0.633	-0.179
Mof_C 	C 	0.3858	0.1365	0.597	0.114
Mof_C 	C 	0.4498	0.838	0.2907	-0.05
Mof_C 	C 	0.0248	0.6824	0.1169	0.34
Mof_C 	C 	0.1167	0.7166	0.1552	-0.101
Mof_C 	C 	0.2248	0.7739	0.1502	0.037
Mof_C 	C 	0.3062	0.8072	0.185	-0.118
Mof_C 	C 	0.2871	0.7756	0.2258	0.068
Mof_C 	C 	0.186	0.715	0.2304	-0.117
Mof_C 	C 	0.1005	0.683	0.1958	0.033
Mof_C 	C 	0.3737	0.8102	0.262	-0.02
Mof_C 	C 	0.839	0.1145	0.5304	0.46
Mof_C 	C 	0.764	0.2091	0.5239	-0.217
Mof_C 	C 	0.7865	0.2724	0.4938	0.12
Mof_C 	C 	0.7128	0.3619	0.4865	-0.184
Mof_C 	C 	0.6172	0.3795	0.5099	0.102
Mof_C 	C 	0.5964	0.3146	0.5442	-0.173
Mof_C 	C 	0.6711	0.2293	0.549	0.104
Mof_C 	C 	0.5347	0.4634	0.5025	-0.052
Mof_C 	C 	0.1977	0.4599	0.0637	0.513
Mof_C 	C 	0.2938	0.4303	0.1019	-0.219
Mof_C 	C 	0.2844	0.4717	0.1418	0.122
Mof_C 	C 	0.3707	0.4416	0.1763	-0.191
Mof_C 	C 	0.4627	0.3745	0.172	0.13
Mof_C 	C 	0.5262	0.6655	0.867	-0.186
Mof_C 	C 	0.6142	0.6365	0.903	0.121
Mof_C 	C 	0.5502	0.338	0.2093	-0.052
Mof_C 	C 	0.9752	0.1824	0.3831	0.344
Mof_C 	C 	0.8833	0.2166	0.3448	-0.102
Mof_C 	C 	0.7752	0.2739	0.3498	0.037
Mof_C 	C 	0.6938	0.3072	0.315	-0.118
Mof_C 	C 	0.7129	0.2756	0.2742	0.067
Mof_C 	C 	0.814	0.215	0.2696	-0.117
Mof_C 	C 	0.8995	0.183	0.3042	0.033
Mof_C 	C 	0.6263	0.3102	0.238	-0.019
Mof_C 	C 	0.161	0.6145	0.9696	0.462
Mof_C 	C 	0.236	0.7091	0.9761	-0.22
Mof_C 	C 	0.2135	0.7724	0.0062	0.122
Mof_C 	C 	0.2872	0.8619	0.0135	-0.185
Mof_C 	C 	0.3828	0.8795	0.9901	0.103
Mof_C 	C 	0.4036	0.8146	0.9558	-0.174
Mof_C 	C 	0.3289	0.7293	0.951	0.106
Mof_C 	C 	0.4653	0.9634	0.9975	-0.053
Mof_O 	O 	0.1009	0.9908	0.57225	-0.506
Mof_O 	O 	0.7831	0.9316	0.472	-0.569
Mof_O 	O 	0.06	0.3799	0.8793	-0.422
Mof_O 	O 	0.9578	0.2806	0.9182	-0.478
Mof_O 	O 	0.0692	0.9017	0.491	-0.609
Mof_O 	O 	0.1925	0.947	0.4427	-0.5
Mof_O 	O 	0.8991	0.4908	0.92775	-0.515
Mof_O 	O 	0.2169	0.4316	0.028	-0.571
Mof_O 	O 	0.94	0.8799	0.6207	-0.425
Mof_O 	O 	0.0422	0.7806	0.5818	-0.477
Mof_O 	O 	0.9308	0.4017	0.009	-0.614
Mof_O 	O 	0.8075	0.447	0.0573	-0.504
Mof_O 	O 	0.8991	0.0092	0.42775	-0.506
Mof_O 	O 	0.2169	0.0684	0.528	-0.569
Mof_O 	O 	0.94	0.6201	0.1207	-0.422
Mof_O 	O 	0.0422	0.7194	0.0818	-0.478
Mof_O 	O 	0.9308	0.0983	0.509	-0.609
Mof_O 	O 	0.8075	0.053	0.5573	-0.5
Mof_O 	O 	0.1009	0.5092	0.07225	-0.515
Mof_O 	O 	0.7831	0.5684	0.972	-0.571
Mof_O 	O 	0.06	0.1201	0.3793	-0.425
Mof_O 	O 	0.9578	0.2194	0.4182	-0.477
Mof_O 	O 	0.0692	0.5983	0.991	-0.614
Mof_O 	O 	0.1925	0.553	0.9427	-0.504
_end
