data_functionalizedCrystal
_audit_creation_method	'EQeq! by Chris Wilmer'
_symmetry_space_group_name_H-M	'P1'
_symmetry_Int_Tables_number	1
_symmetry_cell_setting	triclinic
loop_
_symmetry_equiv_pos_as_xyz
  x,y,z
_cell_length_a	10.587
_cell_length_b	11.487
_cell_length_c	13.372
_cell_angle_alpha	69.301
_cell_angle_beta	79.25
_cell_angle_gamma	63.14
loop_
_atom_site_label
_atom_site_type_symbol
_atom_site_fract_x
_atom_site_fract_y
_atom_site_fract_z
_atom_site_charge
Mof_U 	U 	0.62533	0.71279	0.83466	0.009
Mof_Gd	Gd	0.60381	0.22774	0.75457	1.317
Mof_C 	C 	0.0018	0.3422	0.8499	-0.022
Mof_C 	C 	0.1134	0.3132	0.9064	-0.019
Mof_H 	H 	0.0974	0.361	0.9543	0.076
Mof_C 	C 	0.2475	0.2169	0.8955	-0.068
Mof_C 	C 	0.2693	0.1413	0.8263	-0.079
Mof_C 	C 	0.1525	0.1636	0.7768	0.023
Mof_H 	H 	0.1645	0.1074	0.7367	0.046
Mof_C 	C 	0.0194	0.2657	0.7845	-0.068
Mof_C 	C 	0.6238	0.9998	0.4498	-0.01
Mof_H 	H 	0.7093	0.9989	0.4162	0.058
Mof_C 	C 	0.6153	0.8758	0.5037	-0.037
Mof_C 	C 	0.4902	0.8752	0.5558	-0.038
Mof_C 	C 	0.8642	0.4645	0.8534	0.284
Mof_C 	C 	0.3603	0.1969	0.9571	0.343
Mof_C 	C 	0.41	0.0373	0.8031	0.357
Mof_C 	C 	0.9001	0.2914	0.7241	0.363
Mof_C 	C 	0.4686	0.7497	0.6194	0.302
Mof_C 	C 	0.7431	0.7457	0.5034	0.285
Mof_O 	O 	0.8525	0.5357	0.9096	-0.201
Mof_O 	O 	0.7639	0.4957	0.7989	-0.2
Mof_O 	O 	0.8248	0.2295	0.7675	-0.419
Mof_O 	O 	0.8893	0.364	0.6254	-0.217
Mof_O 	O 	0.4192	0.9179	0.8233	-0.211
Mof_O 	O 	0.5076	0.0712	0.7621	-0.398
Mof_O 	O 	0.4794	0.1797	0.9201	-0.401
Mof_O 	O 	0.3224	0.2004	0.0537	-0.207
Mof_O 	O 	0.5038	0.6966	0.7163	-0.192
Mof_O 	O 	0.4142	0.7045	0.5777	-0.271
Mof_O 	O 	0.7329	0.6346	0.5323	-0.203
Mof_O 	O 	0.861	0.7482	0.477	-0.205
Mof_U 	U 	0.37467	0.28721	0.16534	0.008
Mof_Gd	Gd	0.39619	0.77226	0.24543	1.317
Mof_C 	C 	0.9982	0.6578	0.1501	-0.021
Mof_C 	C 	0.8866	0.6868	0.0936	-0.019
Mof_H 	H 	0.9026	0.639	0.0457	0.076
Mof_C 	C 	0.7525	0.7831	0.1045	-0.068
Mof_C 	C 	0.7307	0.8587	0.1737	-0.079
Mof_C 	C 	0.8475	0.8364	0.2232	0.023
Mof_H 	H 	0.8355	0.8926	0.2633	0.046
Mof_C 	C 	0.9806	0.7343	0.2155	-0.067
Mof_C 	C 	0.3762	0.0002	0.5502	-0.01
Mof_H 	H 	0.2907	0.0011	0.5838	0.058
Mof_C 	C 	0.3847	0.1242	0.4963	-0.037
Mof_C 	C 	0.5098	0.1248	0.4442	-0.038
Mof_C 	C 	0.1358	0.5355	0.1466	0.283
Mof_C 	C 	0.6397	0.8031	0.0429	0.343
Mof_C 	C 	0.59	0.9627	0.1969	0.357
Mof_C 	C 	0.0999	0.7086	0.2759	0.363
Mof_C 	C 	0.5314	0.2503	0.3806	0.302
Mof_C 	C 	0.2569	0.2543	0.4966	0.285
Mof_O 	O 	0.1475	0.4643	0.0904	-0.201
Mof_O 	O 	0.2361	0.5043	0.2011	-0.2
Mof_O 	O 	0.1752	0.7705	0.2325	-0.419
Mof_O 	O 	0.1107	0.636	0.3746	-0.217
Mof_O 	O 	0.5808	0.0821	0.1767	-0.211
Mof_O 	O 	0.4924	0.9288	0.2379	-0.398
Mof_O 	O 	0.5206	0.8203	0.0799	-0.401
Mof_O 	O 	0.6776	0.7996	0.9463	-0.207
Mof_O 	O 	0.4962	0.3034	0.2837	-0.192
Mof_O 	O 	0.5858	0.2955	0.4223	-0.271
Mof_O 	O 	0.2671	0.3654	0.4677	-0.203
Mof_O 	O 	0.139	0.2518	0.523	-0.205
Mof_U 	U 	2.09536e-17	0.5	0.5	0.006
_end
