data_functionalizedCrystal
_audit_creation_method	'EQeq! by Chris Wilmer'
_symmetry_space_group_name_H-M	'P1'
_symmetry_Int_Tables_number	1
_symmetry_cell_setting	triclinic
loop_
_symmetry_equiv_pos_as_xyz
  x,y,z
_cell_length_a	13.882
_cell_length_b	13.365
_cell_length_c	14.209
_cell_angle_alpha	90
_cell_angle_beta	112.046
_cell_angle_gamma	90
loop_
_atom_site_label
_atom_site_type_symbol
_atom_site_fract_x
_atom_site_fract_y
_atom_site_fract_z
_atom_site_charge
Mof_C 	C 	0.2249	0.6953	0.8848	0.035
Mof_H 	H 	0.278	0.7417	0.9124	0.028
Mof_C 	C 	0.1214	0.7261	0.8468	-0.075
Mof_H 	H 	0.1048	0.7936	0.8461	0.073
Mof_C 	C 	0.0447	0.656	0.8106	-0.002
Mof_C 	C 	0.0666	0.5542	0.8086	-0.081
Mof_H 	H 	0.0134	0.5073	0.7847	0.065
Mof_C 	C 	0.1695	0.5252	0.8431	0.046
Mof_H 	H 	0.1859	0.458	0.8406	0.033
Mof_C 	C 	0.9344	0.6953	0.7746	0.21
Mof_C 	C 	0.7582	0.6555	0.7617	0.145
Mof_C 	C 	0.7075	0.6067	0.8147	-0.111
Mof_H 	H 	0.7434	0.5603	0.8642	0.09
Mof_C 	C 	0.6041	0.6252	0.7955	-0.032
Mof_C 	C 	0.5513	0.6969	0.7222	-0.015
Mof_H 	H 	0.4817	0.71	0.7092	0.065
Mof_C 	C 	0.6004	0.7481	0.6692	-0.037
Mof_C 	C 	0.7061	0.7279	0.688	-0.099
Mof_H 	H 	0.7404	0.7615	0.6524	0.098
Mof_C 	C 	0.5562	0.5763	0.8627	0.348
Mof_C 	C 	0.5519	0.833	0.5979	0.35
Mof_N 	N 	0.2481	0.5941	0.8812	-0.191
Mof_N 	N 	0.8629	0.6312	0.7821	-0.242
Mof_H 	H 	0.8825	0.5709	0.8007	0.135
Mof_O 	O 	0.918	0.7833	0.7475	-0.226
Mof_O 	O 	0.6093	0.5133	0.9239	-0.388
Mof_O 	O 	0.4656	0.6028	0.8508	-0.377
Mof_O 	O 	0.4593	0.8235	0.5385	-0.369
Mof_O 	O 	0.6059	0.9083	0.6023	-0.397
Mof_Cu	Cu	0.59967	0.44686	0.05103	0.916
Mof_C 	C 	0.7751	0.1953	0.6152	0.036
Mof_H 	H 	0.722	0.2417	0.5876	0.029
Mof_C 	C 	0.8786	0.2261	0.6532	-0.075
Mof_H 	H 	0.8952	0.2936	0.6539	0.075
Mof_C 	C 	0.9553	0.156	0.6894	-0
Mof_C 	C 	0.9334	0.0542	0.6914	-0.08
Mof_H 	H 	0.9866	0.0073	0.7153	0.065
Mof_C 	C 	0.8305	0.0252	0.6569	0.045
Mof_H 	H 	0.8141	0.958	0.6594	0.034
Mof_C 	C 	0.0656	0.1953	0.7254	0.209
Mof_C 	C 	0.2418	0.1555	0.7383	0.145
Mof_C 	C 	0.2925	0.1067	0.6853	-0.111
Mof_H 	H 	0.2566	0.0603	0.6358	0.09
Mof_C 	C 	0.3959	0.1252	0.7045	-0.032
Mof_C 	C 	0.4487	0.1969	0.7778	-0.015
Mof_H 	H 	0.5183	0.21	0.7908	0.065
Mof_C 	C 	0.3996	0.2481	0.8308	-0.037
Mof_C 	C 	0.2939	0.2279	0.812	-0.099
Mof_H 	H 	0.2596	0.2615	0.8476	0.098
Mof_C 	C 	0.4438	0.0763	0.6373	0.348
Mof_C 	C 	0.4481	0.333	0.9021	0.35
Mof_N 	N 	0.7519	0.0941	0.6188	-0.19
Mof_N 	N 	0.1371	0.1312	0.7179	-0.242
Mof_H 	H 	0.1175	0.0709	0.6993	0.135
Mof_O 	O 	0.082	0.2833	0.7525	-0.226
Mof_O 	O 	0.3907	0.0133	0.5761	-0.388
Mof_O 	O 	0.5344	0.1028	0.6492	-0.377
Mof_O 	O 	0.5407	0.3235	0.9615	-0.369
Mof_O 	O 	0.3941	0.4083	0.8977	-0.397
Mof_Cu	Cu	0.40033	0.94686	0.44897	0.916
Mof_C 	C 	0.7751	0.3047	0.1152	0.036
Mof_H 	H 	0.722	0.2583	0.0876	0.029
Mof_C 	C 	0.8786	0.2739	0.1532	-0.074
Mof_H 	H 	0.8952	0.2064	0.1539	0.074
Mof_C 	C 	0.9553	0.344	0.1894	-0.001
Mof_C 	C 	0.9334	0.4458	0.1914	-0.08
Mof_H 	H 	0.9866	0.4927	0.2153	0.065
Mof_C 	C 	0.8305	0.4748	0.1569	0.046
Mof_H 	H 	0.8141	0.542	0.1594	0.033
Mof_C 	C 	0.0656	0.3047	0.2254	0.21
Mof_C 	C 	0.2418	0.3445	0.2383	0.145
Mof_C 	C 	0.2925	0.3933	0.1853	-0.111
Mof_H 	H 	0.2566	0.4397	0.1358	0.09
Mof_C 	C 	0.3959	0.3748	0.2045	-0.032
Mof_C 	C 	0.4487	0.3031	0.2778	-0.015
Mof_H 	H 	0.5183	0.29	0.2908	0.065
Mof_C 	C 	0.3996	0.2519	0.3308	-0.037
Mof_C 	C 	0.2939	0.2721	0.312	-0.099
Mof_H 	H 	0.2596	0.2385	0.3476	0.098
Mof_C 	C 	0.4438	0.4237	0.1373	0.348
Mof_C 	C 	0.4481	0.167	0.4021	0.35
Mof_N 	N 	0.7519	0.4059	0.1188	-0.191
Mof_N 	N 	0.1371	0.3688	0.2179	-0.242
Mof_H 	H 	0.1175	0.4291	0.1993	0.135
Mof_O 	O 	0.082	0.2167	0.2525	-0.226
Mof_O 	O 	0.3907	0.4867	0.0761	-0.388
Mof_O 	O 	0.5344	0.3972	0.1492	-0.377
Mof_O 	O 	0.5407	0.1765	0.4615	-0.369
Mof_O 	O 	0.3941	0.0917	0.3977	-0.397
Mof_Cu	Cu	0.40033	0.55314	0.94897	0.916
Mof_C 	C 	0.2249	0.8047	0.3848	0.036
Mof_H 	H 	0.278	0.7583	0.4124	0.029
Mof_C 	C 	0.1214	0.7739	0.3468	-0.075
Mof_H 	H 	0.1048	0.7064	0.3461	0.075
Mof_C 	C 	0.0447	0.844	0.3106	-0
Mof_C 	C 	0.0666	0.9458	0.3086	-0.08
Mof_H 	H 	0.0134	0.9927	0.2847	0.065
Mof_C 	C 	0.1695	0.9748	0.3431	0.045
Mof_H 	H 	0.1859	0.042	0.3406	0.034
Mof_C 	C 	0.9344	0.8047	0.2746	0.209
Mof_C 	C 	0.7582	0.8445	0.2617	0.145
Mof_C 	C 	0.7075	0.8933	0.3147	-0.111
Mof_H 	H 	0.7434	0.9397	0.3642	0.09
Mof_C 	C 	0.6041	0.8748	0.2955	-0.032
Mof_C 	C 	0.5513	0.8031	0.2222	-0.015
Mof_H 	H 	0.4817	0.79	0.2092	0.065
Mof_C 	C 	0.6004	0.7519	0.1692	-0.037
Mof_C 	C 	0.7061	0.7721	0.188	-0.099
Mof_H 	H 	0.7404	0.7385	0.1524	0.098
Mof_C 	C 	0.5562	0.9237	0.3627	0.348
Mof_C 	C 	0.5519	0.667	0.0979	0.35
Mof_N 	N 	0.2481	0.9059	0.3812	-0.19
Mof_N 	N 	0.8629	0.8688	0.2821	-0.242
Mof_H 	H 	0.8825	0.9291	0.3007	0.135
Mof_O 	O 	0.918	0.7167	0.2475	-0.226
Mof_O 	O 	0.6093	0.9867	0.4239	-0.388
Mof_O 	O 	0.4656	0.8972	0.3508	-0.377
Mof_O 	O 	0.4593	0.6765	0.0385	-0.369
Mof_O 	O 	0.6059	0.5917	0.1023	-0.397
Mof_Cu	Cu	0.59967	0.05314	0.55103	0.916
_end
