data_functionalizedCrystal
_audit_creation_method	'EQeq! by Chris Wilmer'
_symmetry_space_group_name_H-M	'P1'
_symmetry_Int_Tables_number	1
_symmetry_cell_setting	triclinic
loop_
_symmetry_equiv_pos_as_xyz
  x,y,z
_cell_length_a	11.124
_cell_length_b	15.709
_cell_length_c	11.337
_cell_angle_alpha	90
_cell_angle_beta	106.48
_cell_angle_gamma	90
loop_
_atom_site_label
_atom_site_type_symbol
_atom_site_fract_x
_atom_site_fract_y
_atom_site_fract_z
_atom_site_charge
Mof_Cu	Cu	0.76105	0.12696	0.03342	0.849
Mof_N 	N 	0.7597	0.20714	0.89	-0.212
Mof_N 	N 	0.7654	0.30509	0.6855	-0.221
Mof_N 	N 	0.903	0.04938	0.0204	-0.217
Mof_N 	N 	0.6042	0.05176	0.0094	-0.214
Mof_C 	C 	0.8485	0.2639	0.8938	0.002
Mof_H 	H 	0.9116	0.2713	0.967	0.003
Mof_C 	C 	0.6742	0.2008	0.7811	-0.004
Mof_H 	H 	0.6096	0.1616	0.7726	0.005
Mof_C 	C 	0.851	0.3122	0.7937	-0
Mof_H 	H 	0.9154	0.3516	0.802	0.002
Mof_C 	C 	0.6765	0.2488	0.6815	0.004
Mof_H 	H 	0.6132	0.2416	0.6084	-0.002
Mof_C 	C 	0.024	0.0668	0.0746	0
Mof_H 	H 	0.0442	0.1132	0.1273	0.001
Mof_C 	C 	0.8811	0.9816	0.9451	-0.004
Mof_H 	H 	0.7986	0.967	0.9049	0.006
Mof_C 	C 	0.6146	0.9721	0.0527	-0.004
Mof_H 	H 	0.6941	0.9505	0.0906	0.004
Mof_C 	C 	0.4877	0.0788	0.957	0.003
Mof_H 	H 	0.4755	0.1339	0.926	0.003
Mof_Cu	Cu	0.23895	0.62696	0.46658	0.849
Mof_N 	N 	0.2403	0.70714	0.61	-0.214
Mof_N 	N 	0.2346	0.80509	0.8145	-0.222
Mof_N 	N 	0.097	0.54938	0.4796	-0.216
Mof_N 	N 	0.3958	0.55176	0.4906	-0.213
Mof_C 	C 	0.1515	0.7639	0.6062	0.002
Mof_H 	H 	0.0884	0.7713	0.533	0.002
Mof_C 	C 	0.3258	0.7008	0.7189	-0.004
Mof_H 	H 	0.3904	0.6616	0.7274	0.004
Mof_C 	C 	0.149	0.8122	0.7063	-0
Mof_H 	H 	0.0846	0.8516	0.698	0.001
Mof_C 	C 	0.3235	0.7488	0.8185	0.004
Mof_H 	H 	0.3868	0.7416	0.8916	-0.002
Mof_C 	C 	0.976	0.5668	0.4254	-0.001
Mof_H 	H 	0.9558	0.6132	0.3727	0.001
Mof_C 	C 	0.1189	0.4816	0.5549	-0.004
Mof_H 	H 	0.2014	0.467	0.5951	0.006
Mof_C 	C 	0.3854	0.4721	0.4473	-0.005
Mof_H 	H 	0.3059	0.4505	0.4094	0.005
Mof_C 	C 	0.5123	0.5788	0.543	0.001
Mof_H 	H 	0.5245	0.6339	0.574	0.003
Mof_Cu	Cu	0.23895	0.87304	0.96658	0.848
Mof_N 	N 	0.2403	0.79286	0.11	-0.213
Mof_N 	N 	0.2346	0.69491	0.3145	-0.221
Mof_N 	N 	0.097	0.95062	0.9796	-0.217
Mof_N 	N 	0.3958	0.94824	0.9906	-0.214
Mof_C 	C 	0.1515	0.7361	0.1062	0.002
Mof_H 	H 	0.0884	0.7287	0.033	0.003
Mof_C 	C 	0.3258	0.7992	0.2189	-0.004
Mof_H 	H 	0.3904	0.8384	0.2274	0.005
Mof_C 	C 	0.149	0.6878	0.2063	-0
Mof_H 	H 	0.0846	0.6484	0.198	0.002
Mof_C 	C 	0.3235	0.7512	0.3185	0.004
Mof_H 	H 	0.3868	0.7584	0.3916	-0.002
Mof_C 	C 	0.976	0.9332	0.9254	0
Mof_H 	H 	0.9558	0.8868	0.8727	0.001
Mof_C 	C 	0.1189	0.0184	0.0549	-0.004
Mof_H 	H 	0.2014	0.033	0.0951	0.006
Mof_C 	C 	0.3854	0.0279	0.9473	-0.004
Mof_H 	H 	0.3059	0.0495	0.9094	0.004
Mof_C 	C 	0.5123	0.9212	0.043	0.003
Mof_H 	H 	0.5245	0.8661	0.074	0.003
Mof_Cu	Cu	0.76105	0.37304	0.53342	0.849
Mof_N 	N 	0.7597	0.29286	0.39	-0.214
Mof_N 	N 	0.7654	0.19491	0.1855	-0.222
Mof_N 	N 	0.903	0.45062	0.5204	-0.216
Mof_N 	N 	0.6042	0.44824	0.5094	-0.213
Mof_C 	C 	0.8485	0.2361	0.3938	0.002
Mof_H 	H 	0.9116	0.2287	0.467	0.002
Mof_C 	C 	0.6742	0.2992	0.2811	-0.004
Mof_H 	H 	0.6096	0.3384	0.2726	0.004
Mof_C 	C 	0.851	0.1878	0.2937	-0
Mof_H 	H 	0.9154	0.1484	0.302	0.001
Mof_C 	C 	0.6765	0.2512	0.1815	0.004
Mof_H 	H 	0.6132	0.2584	0.1084	-0.002
Mof_C 	C 	0.024	0.4332	0.5746	-0.001
Mof_H 	H 	0.0442	0.3868	0.6273	0.001
Mof_C 	C 	0.8811	0.5184	0.4451	-0.004
Mof_H 	H 	0.7986	0.533	0.4049	0.006
Mof_C 	C 	0.6146	0.5279	0.5527	-0.005
Mof_H 	H 	0.6941	0.5495	0.5906	0.005
Mof_C 	C 	0.4877	0.4212	0.457	0.001
Mof_H 	H 	0.4755	0.3661	0.426	0.003
_end
