data_functionalizedCrystal
_audit_creation_method	'EQeq! by Chris Wilmer'
_symmetry_space_group_name_H-M	'P1'
_symmetry_Int_Tables_number	1
_symmetry_cell_setting	triclinic
loop_
_symmetry_equiv_pos_as_xyz
  x,y,z
_cell_length_a	10.107
_cell_length_b	18.338
_cell_length_c	27.084
_cell_angle_alpha	90
_cell_angle_beta	99.285
_cell_angle_gamma	90
loop_
_atom_site_label
_atom_site_type_symbol
_atom_site_fract_x
_atom_site_fract_y
_atom_site_fract_z
_atom_site_charge
Mof_Zn	Zn	0.46427	0.80393	0.30758	1.237
Mof_Zn	Zn	0.63667	0.73013	0.21918	1.186
Mof_O 	O 	0.6468	0.82958	0.33933	-0.475
Mof_O 	O 	0.4835	0.69871	0.31377	-0.508
Mof_C 	C 	0.8868	0.88177	0.38873	-0.026
Mof_H 	H 	0.8088	0.8933	0.4011	0.058
Mof_C 	C 	0.8786	0.83738	0.34702	-0.118
Mof_O 	O 	0.5664	0.64691	0.25119	-0.534
Mof_O 	O 	0.746	0.77277	0.28356	-0.516
Mof_C 	C 	0.9946	0.81919	0.3294	0.024
Mof_H 	H 	0.9907	0.789	0.3016	0.032
Mof_C 	C 	0.5099	0.44396	0.31553	-0.157
Mof_C 	C 	0.7475	0.8104	0.32107	0.431
Mof_C 	C 	0.5016	0.50493	0.44826	-0.036
Mof_C 	C 	0.5257	0.64519	0.29228	0.438
Mof_C 	C 	0.074	0.9347	0.50403	0.033
Mof_C 	C 	0.0086	0.9572	0.45756	-0.046
Mof_O 	O 	0.2928	0.78713	0.5652	-0.155
Mof_C 	C 	0.1163	0.8455	0.35284	-0.072
Mof_C 	C 	0.0646	0.9773	0.54769	0.034
Mof_C 	C 	0.5007	0.44277	0.36595	0.011
Mof_H 	H 	0.4905	0.3985	0.3816	0.035
Mof_C 	C 	0.0076	0.9095	0.41251	0.023
Mof_C 	C 	0.5065	0.50727	0.39349	-0.013
Mof_C 	C 	0.5223	0.57361	0.31818	-0.149
Mof_C 	C 	0.513	0.57191	0.36805	0.01
Mof_H 	H 	0.5111	0.6157	0.3853	0.042
Mof_C 	C 	0.1234	0.8909	0.39433	-0.048
Mof_H 	H 	0.2059	0.9088	0.4098	0.063
Mof_C 	C 	0.6131	0.47673	0.48071	0.03
Mof_C 	C 	0.5247	0.50925	0.29211	0.083
Mof_H 	H 	0.5362	0.51	0.2587	0.018
Mof_C 	C 	0.3899	0.52919	0.46752	0.028
Mof_C 	C 	0.1505	0.8685	0.51082	-0.136
Mof_H 	H 	0.1556	0.8392	0.4832	0.088
Mof_C 	C 	0.7336	0.4562	0.46289	-0.138
Mof_H 	H 	0.7388	0.4623	0.4292	0.088
Mof_O 	O 	0.0599	0.6157	0.42883	-0.154
Mof_C 	C 	0.2012	0.8887	0.59945	0.105
Mof_C 	C 	0.2756	0.5603	0.43582	-0.139
Mof_H 	H 	0.277	0.5656	0.4018	0.084
Mof_C 	C 	0.1292	0.9507	0.5953	-0.141
Mof_H 	H 	0.121	0.9769	0.624	0.085
Mof_C 	C 	0.215	0.8476	0.5559	0.099
Mof_O 	O 	0.9568	0.4083	0.4804	-0.144
Mof_C 	C 	0.9688	0.4221	0.4287	-0.253
Mof_H 	H 	0.9078	0.3912	0.4073	0.112
Mof_H 	H 	0.0589	0.4122	0.4237	0.115
Mof_H 	H 	0.9476	0.4722	0.4208	0.121
Mof_C 	C 	0.8387	0.4288	0.49328	0.105
Mof_C 	C 	0.3079	0.7435	0.5228	-0.248
Mof_H 	H 	0.338	0.7735	0.4978	0.111
Mof_H 	H 	0.2232	0.7218	0.5093	0.121
Mof_H 	H 	0.3725	0.7057	0.5328	0.113
Mof_C 	C 	0.1679	0.5817	0.45464	0.099
Mof_O 	O 	0.3533	0.84565	0.35613	-0.409
Mof_O 	O 	0.2355	0.78669	0.29485	-0.364
Mof_O 	O 	0.5518	0.37242	0.24843	-0.512
Mof_C 	C 	0.2417	0.8241	0.333	0.308
Mof_O 	O 	0.4423	0.32323	0.30357	-0.557
Mof_C 	C 	0.0654	0.6394	0.379	-0.23
Mof_H 	H 	0.0747	0.5978	0.3583	0.099
Mof_H 	H 	0.1408	0.6713	0.3792	0.108
Mof_H 	H 	0.9844	0.665	0.3661	0.11
Mof_C 	C 	0.5005	0.3738	0.28674	0.475
Mof_O 	O 	0.2663	0.86003	0.64279	-0.17
Mof_C 	C 	0.2452	0.8953	0.68812	-0.216
Mof_H 	H 	0.1508	0.9005	0.6882	0.093
Mof_H 	H 	0.2865	0.9426	0.6901	0.1
Mof_H 	H 	0.2843	0.8665	0.7163	0.099
Mof_Zn	Zn	0.53573	0.30393	0.19242	1.238
Mof_Zn	Zn	0.36333	0.23013	0.28082	1.187
Mof_O 	O 	0.3532	0.32958	0.16067	-0.474
Mof_O 	O 	0.5165	0.19871	0.18623	-0.507
Mof_C 	C 	0.1132	0.38177	0.11127	-0.022
Mof_H 	H 	0.1912	0.3933	0.0989	0.058
Mof_C 	C 	0.1214	0.33738	0.15298	-0.119
Mof_O 	O 	0.4336	0.14691	0.24881	-0.533
Mof_O 	O 	0.254	0.27277	0.21644	-0.516
Mof_C 	C 	0.0054	0.31919	0.1706	0.028
Mof_H 	H 	0.0093	0.289	0.1984	0.032
Mof_C 	C 	0.4901	0.94396	0.18447	-0.156
Mof_C 	C 	0.2525	0.3104	0.17893	0.433
Mof_C 	C 	0.4984	0.00493	0.05174	-0.035
Mof_C 	C 	0.4743	0.14519	0.20772	0.439
Mof_C 	C 	0.926	0.4347	0.99597	0.034
Mof_C 	C 	0.9914	0.4572	0.04244	-0.046
Mof_O 	O 	0.7072	0.28713	0.9348	-0.155
Mof_C 	C 	0.8837	0.3455	0.14716	-0.074
Mof_C 	C 	0.9354	0.4773	0.95231	0.033
Mof_C 	C 	0.4993	0.94277	0.13405	0.011
Mof_H 	H 	0.5095	0.8985	0.1184	0.035
Mof_C 	C 	0.9924	0.4095	0.08749	0.021
Mof_C 	C 	0.4935	0.00727	0.10651	-0.013
Mof_C 	C 	0.4777	0.07361	0.18182	-0.148
Mof_C 	C 	0.487	0.07191	0.13195	0.009
Mof_H 	H 	0.4889	0.1157	0.1147	0.042
Mof_C 	C 	0.8766	0.3909	0.10567	-0.046
Mof_H 	H 	0.7941	0.4088	0.0902	0.062
Mof_C 	C 	0.3869	0.97673	0.01929	0.03
Mof_C 	C 	0.4753	0.00925	0.20789	0.083
Mof_H 	H 	0.4638	0.01	0.2413	0.018
Mof_C 	C 	0.6101	0.02919	0.03248	0.028
Mof_C 	C 	0.8495	0.3685	0.98918	-0.136
Mof_H 	H 	0.8444	0.3392	0.0168	0.087
Mof_C 	C 	0.2664	0.9562	0.03711	-0.138
Mof_H 	H 	0.2612	0.9623	0.0708	0.088
Mof_O 	O 	0.9401	0.1157	0.07117	-0.154
Mof_C 	C 	0.7988	0.3887	0.90055	0.105
Mof_C 	C 	0.7244	0.0603	0.06418	-0.139
Mof_H 	H 	0.723	0.0656	0.0982	0.084
Mof_C 	C 	0.8708	0.4507	0.9047	-0.141
Mof_H 	H 	0.879	0.4769	0.876	0.084
Mof_C 	C 	0.785	0.3476	0.9441	0.099
Mof_O 	O 	0.0432	0.9083	0.0196	-0.145
Mof_C 	C 	0.0312	0.9221	0.0713	-0.248
Mof_H 	H 	0.0922	0.8912	0.0927	0.11
Mof_H 	H 	0.9411	0.9122	0.0763	0.113
Mof_H 	H 	0.0524	0.9722	0.0792	0.12
Mof_C 	C 	0.1613	0.9288	0.00672	0.106
Mof_C 	C 	0.6921	0.2435	0.9772	-0.247
Mof_H 	H 	0.662	0.2735	0.0022	0.111
Mof_H 	H 	0.7768	0.2218	0.9907	0.121
Mof_H 	H 	0.6275	0.2057	0.9672	0.113
Mof_C 	C 	0.8321	0.0817	0.04536	0.099
Mof_O 	O 	0.6467	0.34565	0.14387	-0.41
Mof_O 	O 	0.7645	0.28669	0.20515	-0.364
Mof_O 	O 	0.4482	0.87242	0.25157	-0.512
Mof_C 	C 	0.7583	0.3241	0.167	0.308
Mof_O 	O 	0.5577	0.82323	0.19643	-0.557
Mof_C 	C 	0.9346	0.1394	0.121	-0.228
Mof_H 	H 	0.9253	0.0978	0.1417	0.099
Mof_H 	H 	0.8592	0.1713	0.1208	0.107
Mof_H 	H 	0.0156	0.165	0.1339	0.109
Mof_C 	C 	0.4995	0.8738	0.21326	0.475
Mof_O 	O 	0.7337	0.36003	0.85721	-0.17
Mof_C 	C 	0.7548	0.3953	0.81188	-0.216
Mof_H 	H 	0.8492	0.4005	0.8118	0.093
Mof_H 	H 	0.7135	0.4426	0.8099	0.1
Mof_H 	H 	0.7157	0.3665	0.7837	0.099
Mof_Zn	Zn	0.53573	0.19607	0.69242	1.238
Mof_Zn	Zn	0.36333	0.26987	0.78082	1.187
Mof_O 	O 	0.3532	0.17042	0.66067	-0.474
Mof_O 	O 	0.5165	0.30129	0.68623	-0.507
Mof_C 	C 	0.1132	0.11823	0.61127	-0.025
Mof_H 	H 	0.1912	0.1067	0.5989	0.059
Mof_C 	C 	0.1214	0.16262	0.65298	-0.117
Mof_O 	O 	0.4336	0.35309	0.74881	-0.533
Mof_O 	O 	0.254	0.22723	0.71644	-0.515
Mof_C 	C 	0.0054	0.18081	0.6706	0.025
Mof_H 	H 	0.0093	0.211	0.6984	0.033
Mof_C 	C 	0.4901	0.55604	0.68447	-0.156
Mof_C 	C 	0.2525	0.1896	0.67893	0.432
Mof_C 	C 	0.4984	0.49507	0.55174	-0.035
Mof_C 	C 	0.4743	0.35481	0.70772	0.439
Mof_C 	C 	0.926	0.0653	0.49597	0.034
Mof_C 	C 	0.9914	0.0428	0.54244	-0.046
Mof_O 	O 	0.7072	0.21287	0.4348	-0.155
Mof_C 	C 	0.8837	0.1545	0.64716	-0.072
Mof_C 	C 	0.9354	0.0227	0.45231	0.034
Mof_C 	C 	0.4993	0.55723	0.63405	0.011
Mof_H 	H 	0.5095	0.6015	0.6184	0.035
Mof_C 	C 	0.9924	0.0905	0.58749	0.023
Mof_C 	C 	0.4935	0.49273	0.60651	-0.013
Mof_C 	C 	0.4777	0.42639	0.68182	-0.149
Mof_C 	C 	0.487	0.42809	0.63195	0.01
Mof_H 	H 	0.4889	0.3843	0.6147	0.042
Mof_C 	C 	0.8766	0.1091	0.60567	-0.048
Mof_H 	H 	0.7941	0.0912	0.5902	0.063
Mof_C 	C 	0.3869	0.52327	0.51929	0.03
Mof_C 	C 	0.4753	0.49075	0.70789	0.083
Mof_H 	H 	0.4638	0.49	0.7413	0.018
Mof_C 	C 	0.6101	0.47081	0.53248	0.028
Mof_C 	C 	0.8495	0.1315	0.48918	-0.136
Mof_H 	H 	0.8444	0.1608	0.5168	0.088
Mof_C 	C 	0.2664	0.5438	0.53711	-0.138
Mof_H 	H 	0.2612	0.5377	0.5708	0.088
Mof_O 	O 	0.9401	0.3843	0.57117	-0.154
Mof_C 	C 	0.7988	0.1113	0.40055	0.105
Mof_C 	C 	0.7244	0.4397	0.56418	-0.139
Mof_H 	H 	0.723	0.4344	0.5982	0.084
Mof_C 	C 	0.8708	0.0493	0.4047	-0.141
Mof_H 	H 	0.879	0.0231	0.376	0.085
Mof_C 	C 	0.785	0.1524	0.4441	0.099
Mof_O 	O 	0.0432	0.5917	0.5196	-0.144
Mof_C 	C 	0.0312	0.5779	0.5713	-0.253
Mof_H 	H 	0.0922	0.6088	0.5927	0.112
Mof_H 	H 	0.9411	0.5878	0.5763	0.115
Mof_H 	H 	0.0524	0.5278	0.5792	0.121
Mof_C 	C 	0.1613	0.5712	0.50672	0.105
Mof_C 	C 	0.6921	0.2565	0.4772	-0.248
Mof_H 	H 	0.662	0.2265	0.5022	0.111
Mof_H 	H 	0.7768	0.2782	0.4907	0.121
Mof_H 	H 	0.6275	0.2943	0.4672	0.113
Mof_C 	C 	0.8321	0.4183	0.54536	0.099
Mof_O 	O 	0.6467	0.15435	0.64387	-0.409
Mof_O 	O 	0.7645	0.21331	0.70515	-0.364
Mof_O 	O 	0.4482	0.62758	0.75157	-0.512
Mof_C 	C 	0.7583	0.1759	0.667	0.308
Mof_O 	O 	0.5577	0.67677	0.69643	-0.557
Mof_C 	C 	0.9346	0.3606	0.621	-0.23
Mof_H 	H 	0.9253	0.4022	0.6417	0.099
Mof_H 	H 	0.8592	0.3287	0.6208	0.108
Mof_H 	H 	0.0156	0.335	0.6339	0.11
Mof_C 	C 	0.4995	0.6262	0.71326	0.475
Mof_O 	O 	0.7337	0.13997	0.35721	-0.17
Mof_C 	C 	0.7548	0.1047	0.31188	-0.216
Mof_H 	H 	0.8492	0.0995	0.3118	0.093
Mof_H 	H 	0.7135	0.0574	0.3099	0.1
Mof_H 	H 	0.7157	0.1335	0.2837	0.099
Mof_Zn	Zn	0.46427	0.69607	0.80758	1.238
Mof_Zn	Zn	0.63667	0.76987	0.71918	1.187
Mof_O 	O 	0.6468	0.67042	0.83933	-0.474
Mof_O 	O 	0.4835	0.80129	0.81377	-0.507
Mof_C 	C 	0.8868	0.61823	0.88873	-0.022
Mof_H 	H 	0.8088	0.6067	0.9011	0.058
Mof_C 	C 	0.8786	0.66262	0.84702	-0.119
Mof_O 	O 	0.5664	0.85309	0.75119	-0.533
Mof_O 	O 	0.746	0.72723	0.78356	-0.516
Mof_C 	C 	0.9946	0.68081	0.8294	0.028
Mof_H 	H 	0.9907	0.711	0.8016	0.032
Mof_C 	C 	0.5099	0.05604	0.81553	-0.156
Mof_C 	C 	0.7475	0.6896	0.82107	0.433
Mof_C 	C 	0.5016	0.99507	0.94826	-0.035
Mof_C 	C 	0.5257	0.85481	0.79228	0.439
Mof_C 	C 	0.074	0.5653	0.00403	0.034
Mof_C 	C 	0.0086	0.5428	0.95756	-0.046
Mof_O 	O 	0.2928	0.71287	0.0652	-0.155
Mof_C 	C 	0.1163	0.6545	0.85284	-0.074
Mof_C 	C 	0.0646	0.5227	0.04769	0.033
Mof_C 	C 	0.5007	0.05723	0.86595	0.011
Mof_H 	H 	0.4905	0.1015	0.8816	0.035
Mof_C 	C 	0.0076	0.5905	0.91251	0.021
Mof_C 	C 	0.5065	0.99273	0.89349	-0.013
Mof_C 	C 	0.5223	0.92639	0.81818	-0.148
Mof_C 	C 	0.513	0.92809	0.86805	0.009
Mof_H 	H 	0.5111	0.8843	0.8853	0.042
Mof_C 	C 	0.1234	0.6091	0.89433	-0.046
Mof_H 	H 	0.2059	0.5912	0.9098	0.062
Mof_C 	C 	0.6131	0.02327	0.98071	0.03
Mof_C 	C 	0.5247	0.99075	0.79211	0.083
Mof_H 	H 	0.5362	0.99	0.7587	0.018
Mof_C 	C 	0.3899	0.97081	0.96752	0.028
Mof_C 	C 	0.1505	0.6315	0.01082	-0.136
Mof_H 	H 	0.1556	0.6608	0.9832	0.087
Mof_C 	C 	0.7336	0.0438	0.96289	-0.138
Mof_H 	H 	0.7388	0.0377	0.9292	0.088
Mof_O 	O 	0.0599	0.8843	0.92883	-0.154
Mof_C 	C 	0.2012	0.6113	0.09945	0.105
Mof_C 	C 	0.2756	0.9397	0.93582	-0.139
Mof_H 	H 	0.277	0.9344	0.9018	0.084
Mof_C 	C 	0.1292	0.5493	0.0953	-0.141
Mof_H 	H 	0.121	0.5231	0.124	0.084
Mof_C 	C 	0.215	0.6524	0.0559	0.099
Mof_O 	O 	0.9568	0.0917	0.9804	-0.145
Mof_C 	C 	0.9688	0.0779	0.9287	-0.248
Mof_H 	H 	0.9078	0.1088	0.9073	0.11
Mof_H 	H 	0.0589	0.0878	0.9237	0.113
Mof_H 	H 	0.9476	0.0278	0.9208	0.12
Mof_C 	C 	0.8387	0.0712	0.99328	0.106
Mof_C 	C 	0.3079	0.7565	0.0228	-0.247
Mof_H 	H 	0.338	0.7265	0.9978	0.111
Mof_H 	H 	0.2232	0.7782	0.0093	0.121
Mof_H 	H 	0.3725	0.7943	0.0328	0.113
Mof_C 	C 	0.1679	0.9183	0.95464	0.099
Mof_O 	O 	0.3533	0.65435	0.85613	-0.41
Mof_O 	O 	0.2355	0.71331	0.79485	-0.364
Mof_O 	O 	0.5518	0.12758	0.74843	-0.512
Mof_C 	C 	0.2417	0.6759	0.833	0.308
Mof_O 	O 	0.4423	0.17677	0.80357	-0.557
Mof_C 	C 	0.0654	0.8606	0.879	-0.228
Mof_H 	H 	0.0747	0.9022	0.8583	0.099
Mof_H 	H 	0.1408	0.8287	0.8792	0.107
Mof_H 	H 	0.9844	0.835	0.8661	0.109
Mof_C 	C 	0.5005	0.1262	0.78674	0.475
Mof_O 	O 	0.2663	0.63997	0.14279	-0.17
Mof_C 	C 	0.2452	0.6047	0.18812	-0.216
Mof_H 	H 	0.1508	0.5995	0.1882	0.093
Mof_H 	H 	0.2865	0.5574	0.1901	0.1
Mof_H 	H 	0.2843	0.6335	0.2163	0.099
_end
