data_functionalizedCrystal
_audit_creation_method	'EQeq! by Chris Wilmer'
_symmetry_space_group_name_H-M	'P1'
_symmetry_Int_Tables_number	1
_symmetry_cell_setting	triclinic
loop_
_symmetry_equiv_pos_as_xyz
  x,y,z
_cell_length_a	12.743
_cell_length_b	13.9644
_cell_length_c	14.7971
_cell_angle_alpha	84.9842
_cell_angle_beta	83.4508
_cell_angle_gamma	64.4417
loop_
_atom_site_label
_atom_site_type_symbol
_atom_site_fract_x
_atom_site_fract_y
_atom_site_fract_z
_atom_site_charge
Mof_Cu	Cu	0.88551	0.46759	0.99259	0.882
Mof_O 	O 	0.97673	0.33854	0.06524	-0.359
Mof_O 	O 	0.8863	0.36682	0.90975	-1.001
Mof_O 	O 	0.72069	0.40608	0.06639	-0.406
Mof_O 	O 	0.90187	0.56162	0.07461	-0.748
Mof_O 	O 	0.77956	0.59512	0.9349	-0.509
Mof_C 	C 	0.9568	0.2613	0.0455	-0.302
Mof_C 	C 	0.8786	0.2842	0.96774	0.324
Mof_Cu	Cu	0.61429	0.53352	0.0089	0.857
Mof_C 	C 	0.7528	0.3179	0.01265	-0.225
Mof_C 	C 	0.8298	0.6584	0.0627	0.318
Mof_C 	C 	0.7476	0.6835	0.98837	0.083
Mof_O 	O 	0.9925	0.17425	0.08819	1.053
Mof_H 	H 	0.9023	0.2201	0.9335	-0.008
Mof_O 	O 	0.59821	0.43953	0.92669	-0.734
Mof_O 	O 	0.61345	0.63413	0.09121	-0.998
Mof_O 	O 	0.52371	0.66266	0.93568	-0.584
Mof_H 	H 	0.7497	0.2586	0.0517	0.186
Mof_C 	C 	0.6697	0.3434	0.9388	0.466
Mof_O 	O 	0.82559	0.73135	0.10856	-0.971
Mof_H 	H 	0.7506	0.7428	0.9493	-0.111
Mof_C 	C 	0.6216	0.7167	0.0334	-0.097
Mof_C 	C 	0.5449	0.7393	0.9548	0.599
Mof_O 	O 	0.67352	0.2705	0.89255	-0.934
Mof_H 	H 	0.5972	0.7809	0.0676	-0.275
Mof_O 	O 	0.5099	0.8262	0.91167	-1.453
Mof_C 	C 	0.5121	0.2795	0.5406	0.337
Mof_C 	C 	0.5874	0.306	0.46329	0.048
Mof_H 	H 	0.6134	0.2522	0.4174	-0.089
Mof_O 	O 	0.41279	0.35474	0.56385	-0.759
Mof_O 	O 	0.54915	0.19002	0.57887	-0.516
Mof_O 	O 	0.52559	0.40664	0.42213	-0.89
Mof_C 	C 	0.6954	0.3022	0.5054	-0.006
Mof_H 	H 	0.742	0.2304	0.5299	-0.053
Mof_C 	C 	0.7662	0.3331	0.4272	0.236
Mof_O 	O 	0.6603	0.37639	0.5745	-0.75
Mof_O 	O 	0.75044	0.42973	0.42273	-0.613
Mof_O 	O 	0.83082	0.26669	0.37069	-0.352
Mof_C 	C 	0.0317	0.2678	0.5423	0.332
Mof_C 	C 	0.0994	0.3007	0.46367	0.08
Mof_H 	H 	0.1325	0.2447	0.4194	-0.097
Mof_O 	O 	0.92834	0.33753	0.56545	-0.761
Mof_O 	O 	0.07769	0.18006	0.58288	-0.402
Mof_O 	O 	0.02955	0.39627	0.42028	-0.895
Mof_C 	C 	0.2	0.3128	0.50436	-0.04
Mof_H 	H 	0.253	0.2443	0.5306	-0.083
Mof_C 	C 	0.2647	0.3486	0.42643	0.28
Mof_O 	O 	0.15495	0.38923	0.57207	-0.717
Mof_O 	O 	0.24056	0.44746	0.41982	-0.651
Mof_O 	O 	0.33385	0.28339	0.3701	-0.489
Mof_Cu	Cu	0.3838	0.48771	0.49256	0.871
Mof_Cu	Cu	0.10985	0.52603	0.50706	0.866
Mof_Li	Li	0.5307	0.4275	0.2928	2.236
Mof_O 	O 	0.49689	0.58008	0.27958	-2.171
Mof_H 	H 	0.454	0.599	0.3267	0.595
Mof_H 	H 	0.5607	0.577	0.291	0.429
Mof_Li	Li	0.4685	0.6813	0.1722	2.915
Mof_Li	Li	0.0305	0.4227	0.2921	2.235
Mof_O 	O 	0.99732	0.57528	0.27988	-2.21
Mof_H 	H 	0.957	0.593	0.3291	0.593
Mof_H 	H 	0.0623	0.57	0.289	0.461
Mof_Li	Li	0.7935	0.3368	0.6508	1.415
Mof_Li	Li	0.969	0.6769	0.1723	3.066
Mof_Li	Li	0.0109	0.033	0.0803	-6.385
Mof_Li	Li	0.2865	0.3434	0.6518	1.212
Mof_O 	O 	0.3385	0.0505	0.929	-0.401
Mof_O 	O 	0.4039	0.0144	0.9929	-2.552
Mof_O 	O 	0.9968	0.9997	0.0443	3.243
Mof_Li	Li	0.5059	0.966	0.9197	5.382
Mof_Cu	Cu	0.11449	0.53241	0.00741	0.881
Mof_O 	O 	0.02327	0.66146	0.93476	-0.36
Mof_O 	O 	0.1137	0.63318	0.09025	-1.002
Mof_O 	O 	0.27931	0.59392	0.93361	-0.407
Mof_O 	O 	0.09813	0.43838	0.92539	-0.749
Mof_O 	O 	0.22044	0.40488	0.0651	-0.51
Mof_C 	C 	0.0432	0.7387	0.9545	-0.302
Mof_C 	C 	0.1214	0.7158	0.03226	0.324
Mof_Cu	Cu	0.38571	0.46648	0.9911	0.857
Mof_C 	C 	0.2472	0.6821	0.98735	-0.225
Mof_C 	C 	0.1702	0.3416	0.9373	0.318
Mof_C 	C 	0.2524	0.3165	0.01163	0.083
Mof_O 	O 	0.0075	0.82575	0.91181	1.053
Mof_H 	H 	0.0977	0.7799	0.0665	-0.008
Mof_O 	O 	0.40179	0.56047	0.07331	-0.734
Mof_O 	O 	0.38655	0.36587	0.90879	-0.998
Mof_O 	O 	0.47629	0.33734	0.06432	-0.584
Mof_H 	H 	0.2503	0.7414	0.9483	0.186
Mof_C 	C 	0.3303	0.6566	0.0612	0.466
Mof_O 	O 	0.17441	0.26865	0.89144	-0.971
Mof_H 	H 	0.2494	0.2572	0.0507	-0.111
Mof_C 	C 	0.3784	0.2833	0.9666	-0.097
Mof_C 	C 	0.4551	0.2607	0.0452	0.599
Mof_O 	O 	0.32648	0.7295	0.10745	-0.934
Mof_H 	H 	0.4028	0.2191	0.9324	-0.275
Mof_O 	O 	0.4901	0.1738	0.08833	-1.453
Mof_C 	C 	0.4879	0.7205	0.4594	0.337
Mof_C 	C 	0.4126	0.694	0.53671	0.048
Mof_H 	H 	0.3866	0.7478	0.5826	-0.089
Mof_O 	O 	0.58721	0.64526	0.43615	-0.759
Mof_O 	O 	0.45085	0.80998	0.42113	-0.516
Mof_O 	O 	0.47441	0.59336	0.57787	-0.89
Mof_C 	C 	0.3046	0.6978	0.4946	-0.006
Mof_H 	H 	0.258	0.7696	0.4701	-0.053
Mof_C 	C 	0.2338	0.6669	0.5728	0.236
Mof_O 	O 	0.3397	0.62361	0.4255	-0.75
Mof_O 	O 	0.24956	0.57027	0.57727	-0.613
Mof_O 	O 	0.16918	0.73331	0.62931	-0.352
Mof_C 	C 	0.9683	0.7322	0.4577	0.332
Mof_C 	C 	0.9006	0.6993	0.53633	0.08
Mof_H 	H 	0.8675	0.7553	0.5806	-0.097
Mof_O 	O 	0.07166	0.66247	0.43455	-0.761
Mof_O 	O 	0.92231	0.81994	0.41712	-0.402
Mof_O 	O 	0.97045	0.60373	0.57972	-0.895
Mof_C 	C 	0.8	0.6872	0.49564	-0.04
Mof_H 	H 	0.747	0.7557	0.4694	-0.083
Mof_C 	C 	0.7353	0.6514	0.57357	0.28
Mof_O 	O 	0.84505	0.61077	0.42793	-0.717
Mof_O 	O 	0.75944	0.55254	0.58018	-0.651
Mof_O 	O 	0.66615	0.71661	0.6299	-0.489
Mof_Cu	Cu	0.6162	0.51229	0.50744	0.871
Mof_Cu	Cu	0.89015	0.47397	0.49294	0.866
Mof_Li	Li	0.4693	0.5725	0.7072	2.236
Mof_O 	O 	0.50311	0.41992	0.72042	-2.171
Mof_H 	H 	0.546	0.401	0.6733	0.595
Mof_H 	H 	0.4393	0.423	0.709	0.429
Mof_Li	Li	0.5315	0.3187	0.8278	2.915
Mof_Li	Li	0.9695	0.5773	0.7079	2.235
Mof_O 	O 	0.00268	0.42472	0.72012	-2.21
Mof_H 	H 	0.043	0.407	0.6709	0.593
Mof_H 	H 	0.9377	0.43	0.711	0.461
Mof_Li	Li	0.2065	0.6632	0.3492	1.415
Mof_Li	Li	0.031	0.3231	0.8277	3.066
Mof_Li	Li	0.9891	0.967	0.9197	-6.385
Mof_Li	Li	0.7135	0.6566	0.3482	1.212
Mof_O 	O 	0.6615	0.9495	0.071	-0.401
Mof_O 	O 	0.5961	0.9856	0.0071	-2.552
Mof_O 	O 	0.0032	0.0003	0.9557	3.243
Mof_Li	Li	0.4941	0.034	0.0803	5.382
_end
