data_functionalizedCrystal
_audit_creation_method	'EQeq! by Chris Wilmer'
_symmetry_space_group_name_H-M	'P1'
_symmetry_Int_Tables_number	1
_symmetry_cell_setting	triclinic
loop_
_symmetry_equiv_pos_as_xyz
  x,y,z
_cell_length_a	7.527
_cell_length_b	9.8016
_cell_length_c	9.8016
_cell_angle_alpha	81.5219
_cell_angle_beta	67.4203
_cell_angle_gamma	67.4203
loop_
_atom_site_label
_atom_site_type_symbol
_atom_site_fract_x
_atom_site_fract_y
_atom_site_fract_z
_atom_site_charge
Mof_Zr	Zr	0.30441	0.89498	0.4962	3.097
Mof_Zr	Zr	0.69559	0.10502	0.5038	3.097
Mof_Zr	Zr	0.80061	0.5038	0.89498	3.095
Mof_Zr	Zr	0.19938	0.49621	0.10502	3.095
Mof_C 	C 	0.95112	0.20508	0.6862	0.239
Mof_C 	C 	0.1576	0.20508	0.6862	0.257
Mof_C 	C 	0.36268	0.6862	0.79492	0.251
Mof_C 	C 	0.1562	0.6862	0.79492	0.25
Mof_C 	C 	0.63732	0.3138	0.20508	0.251
Mof_C 	C 	0.8438	0.3138	0.20508	0.25
Mof_C 	C 	0.8424	0.79492	0.3138	0.257
Mof_C 	C 	0.04888	0.79492	0.3138	0.239
Mof_O 	O 	0.91	0.23548	0.30032	-0.805
Mof_O 	O 	0.21032	0.69968	0.23548	-0.806
Mof_O 	O 	0.07359	0.6064	0.88784	-0.988
Mof_O 	O 	0.85452	0.69968	0.23548	-0.804
Mof_O 	O 	0.09	0.76452	0.69968	-0.805
Mof_O 	O 	0.14548	0.30032	0.76452	-0.804
Mof_O 	O 	0.03857	0.88784	0.3936	-0.994
Mof_O 	O 	0.78968	0.30032	0.76452	-0.806
Mof_O 	O 	0.32001	0.11216	0.6064	-0.994
Mof_O 	O 	0.4458	0.76452	0.69968	-0.806
Mof_O 	O 	0.5542	0.23548	0.30032	-0.806
Mof_O 	O 	0.43217	0.6064	0.88784	-0.992
Mof_O 	O 	0.92641	0.3936	0.11216	-0.988
Mof_O 	O 	0.96143	0.11216	0.6064	-0.994
Mof_O 	O 	0.56783	0.3936	0.11216	-0.992
Mof_O 	O 	0.67999	0.88784	0.3936	-0.994
_end
