data_functionalizedCrystal
_audit_creation_method	'EQeq! by Chris Wilmer'
_symmetry_space_group_name_H-M	'P1'
_symmetry_Int_Tables_number	1
_symmetry_cell_setting	triclinic
loop_
_symmetry_equiv_pos_as_xyz
  x,y,z
_cell_length_a	16.1952
_cell_length_b	14.8673
_cell_length_c	7.8938
_cell_angle_alpha	90
_cell_angle_beta	91.783
_cell_angle_gamma	90
loop_
_atom_site_label
_atom_site_type_symbol
_atom_site_fract_x
_atom_site_fract_y
_atom_site_fract_z
_atom_site_charge
Mof_Er	Er	0.95531	0.88379	0.05025	2.001
Mof_Ag	Ag	0.47352	0.75944	0.60055	0.437
Mof_N 	N 	0.3573	0.8031	0.6973	-0.195
Mof_N 	N 	0.5953	0.7519	0.4993	-0.187
Mof_C 	C 	0.1321	0.9198	0.8629	0.483
Mof_C 	C 	0.2108	0.8771	0.8048	-0.111
Mof_C 	C 	0.281	0.9282	0.7968	-0.049
Mof_H 	H 	0.28	0.9886	0.8271	0.039
Mof_C 	C 	0.3527	0.8895	0.7436	0.006
Mof_H 	H 	0.4	0.9247	0.7397	-0.018
Mof_C 	C 	0.289	0.7534	0.7066	0.015
Mof_H 	H 	0.2914	0.693	0.6767	-0.007
Mof_C 	C 	0.2147	0.7879	0.7589	-0.032
Mof_H 	H 	0.1681	0.7515	0.763	0.043
Mof_C 	C 	0.6342	0.8284	0.4605	-0.001
Mof_H 	H 	0.6076	0.8829	0.4779	-0.015
Mof_C 	C 	0.7122	0.8291	0.3959	-0.016
Mof_H 	H 	0.7372	0.8833	0.3685	0.009
Mof_C 	C 	0.7531	0.7488	0.3719	-0.141
Mof_C 	C 	0.8387	0.7489	0.3028	0.475
Mof_C 	C 	0.7136	0.6701	0.4129	-0.004
Mof_H 	H 	0.7394	0.6149	0.3982	0.008
Mof_C 	C 	0.6349	0.6742	0.4763	0
Mof_H 	H 	0.6085	0.6208	0.504	-0.008
Mof_O 	O 	0.0753	0.8672	0.9074	-0.522
Mof_O 	O 	0.1298	0.0037	0.8618	-0.539
Mof_O 	O 	0.85978	0.8158	0.2194	-0.54
Mof_O 	O 	0.88366	0.6813	0.3316	-0.553
Mof_O 	O 	0.0346	0.8847	0.313	-0.629
Mof_O 	O 	0.0476	0.0034	0.1567	-0.755
Mof_C 	C 	0.0687	0.9591	0.2875	0.973
Mof_C 	C 	0.1431	0.9863	0.395	-1.037
Mof_H 	H 	0.1728	0.0327	0.3385	0.047
Mof_H 	H 	0.1785	0.9351	0.4129	0.2
Mof_H 	H 	0.1255	0.0082	0.5024	1.126
Mof_C 	C 	0.1264	0.0028	0.417	-0.875
Mof_H 	H 	0.1142	0.0659	0.423	0.149
Mof_H 	H 	0.1824	0.9947	0.3836	0.672
Mof_H 	H 	0.1191	0.9756	0.5255	-0.456
Mof_Er	Er	0.04469	0.38379	0.44975	2.026
Mof_Ag	Ag	0.52648	0.25944	0.89945	0.431
Mof_N 	N 	0.6427	0.3031	0.8027	-0.196
Mof_N 	N 	0.4047	0.2519	0.0007	-0.189
Mof_C 	C 	0.8679	0.4198	0.6371	0.472
Mof_C 	C 	0.7892	0.3771	0.6952	-0.109
Mof_C 	C 	0.719	0.4282	0.7032	-0.052
Mof_H 	H 	0.72	0.4886	0.6729	0.036
Mof_C 	C 	0.6473	0.3895	0.7564	0.006
Mof_H 	H 	0.6	0.4247	0.7603	-0.02
Mof_C 	C 	0.711	0.2534	0.7934	0.015
Mof_H 	H 	0.7086	0.193	0.8233	-0.008
Mof_C 	C 	0.7853	0.2879	0.7411	-0.034
Mof_H 	H 	0.8319	0.2515	0.737	0.043
Mof_C 	C 	0.3658	0.3284	0.0395	0.002
Mof_H 	H 	0.3924	0.3829	0.0221	-0.015
Mof_C 	C 	0.2878	0.3291	0.1041	-0.019
Mof_H 	H 	0.2628	0.3833	0.1315	0.011
Mof_C 	C 	0.2469	0.2488	0.1281	-0.134
Mof_C 	C 	0.1613	0.2489	0.1972	0.474
Mof_C 	C 	0.2864	0.1701	0.0871	-0.014
Mof_H 	H 	0.2606	0.1149	0.1018	0.013
Mof_C 	C 	0.3651	0.1742	0.0237	0.019
Mof_H 	H 	0.3915	0.1208	0.996	-0.02
Mof_O 	O 	0.9247	0.3672	0.5926	-0.525
Mof_O 	O 	0.8702	0.5037	0.6382	-0.529
Mof_O 	O 	0.14022	0.3158	0.2806	-0.54
Mof_O 	O 	0.11634	0.1813	0.1684	-0.547
Mof_O 	O 	0.9654	0.3847	0.187	-0.637
Mof_O 	O 	0.9524	0.5034	0.3433	-0.766
Mof_C 	C 	0.9313	0.4591	0.2125	0.995
Mof_C 	C 	0.8569	0.4863	0.105	-1.069
Mof_H 	H 	0.8272	0.5327	0.1615	0.051
Mof_H 	H 	0.8215	0.4351	0.0871	0.209
Mof_H 	H 	0.8745	0.5082	0.9976	1.188
Mof_C 	C 	0.8736	0.5028	0.083	-0.903
Mof_H 	H 	0.8858	0.5659	0.077	0.148
Mof_H 	H 	0.8176	0.4947	0.1164	0.688
Mof_H 	H 	0.8809	0.4756	0.9745	-0.494
Mof_Er	Er	0.04469	0.11621	0.94975	2.001
Mof_Ag	Ag	0.52648	0.24056	0.39945	0.437
Mof_N 	N 	0.6427	0.1969	0.3027	-0.195
Mof_N 	N 	0.4047	0.2481	0.5007	-0.187
Mof_C 	C 	0.8679	0.0802	0.1371	0.483
Mof_C 	C 	0.7892	0.1229	0.1952	-0.111
Mof_C 	C 	0.719	0.0718	0.2032	-0.049
Mof_H 	H 	0.72	0.0114	0.1729	0.039
Mof_C 	C 	0.6473	0.1105	0.2564	0.006
Mof_H 	H 	0.6	0.0753	0.2603	-0.018
Mof_C 	C 	0.711	0.2466	0.2934	0.015
Mof_H 	H 	0.7086	0.307	0.3233	-0.007
Mof_C 	C 	0.7853	0.2121	0.2411	-0.032
Mof_H 	H 	0.8319	0.2485	0.237	0.043
Mof_C 	C 	0.3658	0.1716	0.5395	-0.001
Mof_H 	H 	0.3924	0.1171	0.5221	-0.015
Mof_C 	C 	0.2878	0.1709	0.6041	-0.016
Mof_H 	H 	0.2628	0.1167	0.6315	0.009
Mof_C 	C 	0.2469	0.2512	0.6281	-0.141
Mof_C 	C 	0.1613	0.2511	0.6972	0.475
Mof_C 	C 	0.2864	0.3299	0.5871	-0.004
Mof_H 	H 	0.2606	0.3851	0.6018	0.008
Mof_C 	C 	0.3651	0.3258	0.5237	0
Mof_H 	H 	0.3915	0.3792	0.496	-0.008
Mof_O 	O 	0.9247	0.1328	0.0926	-0.522
Mof_O 	O 	0.8702	0.9963	0.1382	-0.539
Mof_O 	O 	0.14022	0.1842	0.7806	-0.54
Mof_O 	O 	0.11634	0.3187	0.6684	-0.553
Mof_O 	O 	0.9654	0.1153	0.687	-0.629
Mof_O 	O 	0.9524	0.9966	0.8433	-0.755
Mof_C 	C 	0.9313	0.0409	0.7125	0.973
Mof_C 	C 	0.8569	0.0137	0.605	-1.037
Mof_H 	H 	0.8272	0.9673	0.6615	0.047
Mof_H 	H 	0.8215	0.0649	0.5871	0.2
Mof_H 	H 	0.8745	0.9918	0.4976	1.126
Mof_C 	C 	0.8736	0.9972	0.583	-0.875
Mof_H 	H 	0.8858	0.9341	0.577	0.149
Mof_H 	H 	0.8176	0.0053	0.6164	0.672
Mof_H 	H 	0.8809	0.0244	0.4745	-0.456
Mof_Er	Er	0.95531	0.61621	0.55025	2.026
Mof_Ag	Ag	0.47352	0.74056	0.10055	0.431
Mof_N 	N 	0.3573	0.6969	0.1973	-0.196
Mof_N 	N 	0.5953	0.7481	0.9993	-0.189
Mof_C 	C 	0.1321	0.5802	0.3629	0.472
Mof_C 	C 	0.2108	0.6229	0.3048	-0.109
Mof_C 	C 	0.281	0.5718	0.2968	-0.052
Mof_H 	H 	0.28	0.5114	0.3271	0.036
Mof_C 	C 	0.3527	0.6105	0.2436	0.006
Mof_H 	H 	0.4	0.5753	0.2397	-0.02
Mof_C 	C 	0.289	0.7466	0.2066	0.015
Mof_H 	H 	0.2914	0.807	0.1767	-0.008
Mof_C 	C 	0.2147	0.7121	0.2589	-0.034
Mof_H 	H 	0.1681	0.7485	0.263	0.043
Mof_C 	C 	0.6342	0.6716	0.9605	0.002
Mof_H 	H 	0.6076	0.6171	0.9779	-0.015
Mof_C 	C 	0.7122	0.6709	0.8959	-0.019
Mof_H 	H 	0.7372	0.6167	0.8685	0.011
Mof_C 	C 	0.7531	0.7512	0.8719	-0.134
Mof_C 	C 	0.8387	0.7511	0.8028	0.474
Mof_C 	C 	0.7136	0.8299	0.9129	-0.014
Mof_H 	H 	0.7394	0.8851	0.8982	0.013
Mof_C 	C 	0.6349	0.8258	0.9763	0.019
Mof_H 	H 	0.6085	0.8792	0.004	-0.02
Mof_O 	O 	0.0753	0.6328	0.4074	-0.525
Mof_O 	O 	0.1298	0.4963	0.3618	-0.529
Mof_O 	O 	0.85978	0.6842	0.7194	-0.54
Mof_O 	O 	0.88366	0.8187	0.8316	-0.547
Mof_O 	O 	0.0346	0.6153	0.813	-0.637
Mof_O 	O 	0.0476	0.4966	0.6567	-0.766
Mof_C 	C 	0.0687	0.5409	0.7875	0.995
Mof_C 	C 	0.1431	0.5137	0.895	-1.069
Mof_H 	H 	0.1728	0.4673	0.8385	0.051
Mof_H 	H 	0.1785	0.5649	0.9129	0.209
Mof_H 	H 	0.1255	0.4918	0.0024	1.188
Mof_C 	C 	0.1264	0.4972	0.917	-0.903
Mof_H 	H 	0.1142	0.4341	0.923	0.148
Mof_H 	H 	0.1824	0.5053	0.8836	0.688
Mof_H 	H 	0.1191	0.5244	0.0255	-0.494
_end
