data_functionalizedCrystal
_audit_creation_method	'EQeq! by Chris Wilmer'
_symmetry_space_group_name_H-M	'P1'
_symmetry_Int_Tables_number	1
_symmetry_cell_setting	triclinic
loop_
_symmetry_equiv_pos_as_xyz
  x,y,z
_cell_length_a	10.7643
_cell_length_b	11.1903
_cell_length_c	11.8805
_cell_angle_alpha	101.006
_cell_angle_beta	110.549
_cell_angle_gamma	99.779
loop_
_atom_site_label
_atom_site_type_symbol
_atom_site_fract_x
_atom_site_fract_y
_atom_site_fract_z
_atom_site_charge
Mof_Cu	Cu	0.64404	0.5107	0.01199	0.95
Mof_O 	O 	0.5012	0.4003	0.0421	-0.766
Mof_O 	O 	0.2626	0.3386	0.81	-0.331
Mof_O 	O 	0.7772	0.4129	0.0586	-0.319
Mof_O 	O 	0.2456	0.4233	0.0726	-0.407
Mof_Cu	Cu	0.56218	0.38577	0.21048	0.908
Mof_O 	O 	0.3763	0.3326	0.2047	-0.434
Mof_O 	O 	0.3966	0.4084	0.7164	-0.36
Mof_O 	O 	0.7295	0.3433	0.2078	-0.422
Mof_C 	C 	0.2663	0.3584	0.1489	0.354
Mof_C 	C 	0.1459	0.3051	0.1772	-0.033
Mof_C 	C 	0.0297	0.3496	0.1423	-0.029
Mof_C 	C 	0.1517	0.2098	0.2363	-0.148
Mof_C 	C 	0.9191	0.3026	0.1707	-0.034
Mof_H 	H 	0.0252	0.4113	0.0996	0.066
Mof_C 	C 	0.0394	0.1611	0.2598	0.204
Mof_H 	H 	0.2294	0.1793	0.2597	0.091
Mof_C 	C 	0.9247	0.206	0.2308	-0.165
Mof_C 	C 	0.7983	0.3571	0.143	0.316
Mof_O 	O 	0.0377	0.0555	0.3085	-0.28
Mof_H 	H 	0.852	0.1732	0.2505	0.107
Mof_C 	C 	0.1258	0.071	0.4301	0.216
Mof_C 	C 	0.1837	0.1867	0.5168	-0.196
Mof_C 	C 	0.1494	0.9614	0.462	-0.19
Mof_C 	C 	0.2675	0.1941	0.6395	0.054
Mof_H 	H 	0.1673	0.2594	0.4939	0.111
Mof_H 	H 	0.109	0.8836	0.4028	0.126
Mof_C 	C 	0.2334	0.9695	0.5824	0.153
Mof_C 	C 	0.2952	0.0851	0.6732	-0.162
Mof_C 	C 	0.3162	0.3237	0.7319	0.291
Mof_H 	H 	0.2494	0.8962	0.6039	-0.005
Mof_C 	C 	0.3901	0.0893	0.8018	0.309
Mof_O 	O 	0.3837	0.9848	0.8297	-0.376
Mof_O 	O 	0.4732	0.1903	0.8747	-0.337
Mof_H 	H 	0.4771	0.3274	0.9919	0.337
Mof_H 	H 	0.4311	0.4298	0.0269	-0.02
Mof_H 	H 	0.7064	0.4401	0.0504	-0.1
Mof_Cu	Cu	0.35596	0.4893	0.98801	0.987
Mof_O 	O 	0.4988	0.5997	0.9579	-0.646
Mof_O 	O 	0.7374	0.6614	0.19	-0.341
Mof_O 	O 	0.2228	0.5871	0.9414	-0.279
Mof_O 	O 	0.7544	0.5767	0.9274	-0.363
Mof_Cu	Cu	0.43782	0.61423	0.78952	0.912
Mof_O 	O 	0.6237	0.6674	0.7953	-0.415
Mof_O 	O 	0.6034	0.5916	0.2836	-0.361
Mof_O 	O 	0.2705	0.6567	0.7922	-0.409
Mof_C 	C 	0.7337	0.6416	0.8511	0.346
Mof_C 	C 	0.8541	0.6949	0.8228	-0.003
Mof_C 	C 	0.9703	0.6504	0.8577	-0.06
Mof_C 	C 	0.8483	0.7902	0.7637	-0.152
Mof_C 	C 	0.0809	0.6974	0.8293	0.005
Mof_H 	H 	0.9748	0.5887	0.9004	0.089
Mof_C 	C 	0.9606	0.8389	0.7402	0.208
Mof_H 	H 	0.7706	0.8207	0.7403	0.108
Mof_C 	C 	0.0753	0.794	0.7692	-0.152
Mof_C 	C 	0.2017	0.6429	0.857	0.309
Mof_O 	O 	0.9623	0.9445	0.6915	-0.271
Mof_H 	H 	0.148	0.8268	0.7495	0.115
Mof_C 	C 	0.8742	0.929	0.5699	0.31
Mof_C 	C 	0.8163	0.8133	0.4832	-0.224
Mof_C 	C 	0.8506	0.0386	0.538	-0.29
Mof_C 	C 	0.7325	0.8059	0.3605	0.059
Mof_H 	H 	0.8327	0.7406	0.5061	0.118
Mof_H 	H 	0.891	0.1164	0.5972	0.146
Mof_C 	C 	0.7666	0.0305	0.4176	0.093
Mof_C 	C 	0.7048	0.9149	0.3268	-0.108
Mof_C 	C 	0.6838	0.6763	0.2681	0.291
Mof_H 	H 	0.7506	0.1038	0.3961	0.003
Mof_C 	C 	0.6099	0.9107	0.1982	0.39
Mof_O 	O 	0.6163	0.0152	0.1703	-0.477
Mof_O 	O 	0.5268	0.8097	0.1253	-0.365
Mof_H 	H 	0.5229	0.6726	0.0081	0.239
Mof_H 	H 	0.5689	0.5702	0.9731	-0.013
Mof_H 	H 	0.2936	0.5599	0.9496	-0.102
Mof_Cu	Cu	0.5	0	-0	0.824
_end
