data_functionalizedCrystal
_audit_creation_method	'EQeq! by Chris Wilmer'
_symmetry_space_group_name_H-M	'P1'
_symmetry_Int_Tables_number	1
_symmetry_cell_setting	triclinic
loop_
_symmetry_equiv_pos_as_xyz
  x,y,z
_cell_length_a	36.6284
_cell_length_b	36.6284
_cell_length_c	27.5127
_cell_angle_alpha	90
_cell_angle_beta	90
_cell_angle_gamma	120
loop_
_atom_site_label
_atom_site_type_symbol
_atom_site_fract_x
_atom_site_fract_y
_atom_site_fract_z
_atom_site_charge
Mof_Ag	Ag	0.07568	0.20254	0.68607	0.511
Mof_P 	P 	0.11563	0.25126	0.75162	0.001
Mof_P 	P 	0.39632	0.51993	0.7665	-0.004
Mof_C 	C 	0.3075	0.3275	0.7439	-0.039
Mof_C 	C 	0.2602	0.3061	0.7499	0.052
Mof_C 	C 	0.236	0.2926	0.7073	-0.086
Mof_H 	H 	0.2496	0.2948	0.6772	0.054
Mof_C 	C 	0.193	0.2763	0.7078	-0.026
Mof_H 	H 	0.1775	0.268	0.6783	0.014
Mof_C 	C 	0.172	0.2717	0.7525	-0.034
Mof_C 	C 	0.1954	0.2831	0.7938	-0.025
Mof_H 	H 	0.1822	0.2794	0.8246	0.041
Mof_C 	C 	0.2399	0.3007	0.7909	-0.09
Mof_H 	H 	0.2557	0.3088	0.8202	0.06
Mof_C 	C 	0.3287	0.3747	0.7498	0.048
Mof_C 	C 	0.3404	0.3994	0.7094	-0.085
Mof_H 	H 	0.3357	0.3871	0.678	0.055
Mof_C 	C 	0.3597	0.4436	0.7147	-0.023
Mof_H 	H 	0.3665	0.4603	0.6861	0.034
Mof_C 	C 	0.369	0.4633	0.7583	-0.031
Mof_C 	C 	0.3562	0.4389	0.7985	-0.02
Mof_H 	H 	0.3605	0.4518	0.8295	0.016
Mof_C 	C 	0.3367	0.3954	0.7953	-0.082
Mof_H 	H 	0.3287	0.3791	0.8242	0.056
Mof_C 	C 	0.1105	0.2975	0.7472	-0.001
Mof_C 	C 	0.0701	0.2926	0.7471	-0.085
Mof_H 	H 	0.046	0.2653	0.7507	0.054
Mof_C 	C 	0.0651	0.3277	0.7418	-0.005
Mof_H 	H 	0.0375	0.324	0.7401	0.022
Mof_C 	C 	0.0987	0.3668	0.7389	-0.073
Mof_H 	H 	0.0948	0.3905	0.7357	0.046
Mof_C 	C 	0.1387	0.3724	0.7405	-0.007
Mof_H 	H 	0.1624	0.4001	0.7389	0.031
Mof_C 	C 	0.1446	0.3388	0.7443	-0.076
Mof_H 	H 	0.1725	0.3433	0.7451	0.057
Mof_C 	C 	0.099	0.233	0.813	0.01
Mof_C 	C 	0.0925	0.1925	0.824	-0.076
Mof_H 	H 	0.0954	0.1755	0.8001	0.047
Mof_C 	C 	0.0812	0.1786	0.8729	-0.009
Mof_H 	H 	0.0765	0.1515	0.8815	0.03
Mof_C 	C 	0.0767	0.2022	0.9077	-0.069
Mof_H 	H 	0.0701	0.192	0.94	0.056
Mof_C 	C 	0.0819	0.241	0.8963	-0.01
Mof_H 	H 	0.0777	0.2573	0.9202	0.036
Mof_C 	C 	0.0936	0.2565	0.8481	-0.075
Mof_H 	H 	0.0978	0.2836	0.8401	0.059
Mof_C 	C 	0.3692	0.5381	0.7255	0.028
Mof_C 	C 	0.3697	0.5343	0.6766	-0.104
Mof_H 	H 	0.3856	0.5234	0.6617	0.062
Mof_C 	C 	0.3461	0.5467	0.6487	0.026
Mof_H 	H 	0.3455	0.5432	0.6144	0.013
Mof_C 	C 	0.3249	0.5629	0.6672	-0.103
Mof_H 	H 	0.3097	0.5714	0.6465	0.063
Mof_C 	C 	0.3242	0.5678	0.7152	0.016
Mof_H 	H 	0.3084	0.5795	0.7288	0.021
Mof_C 	C 	0.3475	0.5554	0.746	-0.102
Mof_H 	H 	0.3479	0.5591	0.7802	0.056
Mof_C 	C 	0.4461	0.5396	0.7357	-0.005
Mof_C 	C 	0.4616	0.5149	0.7212	-0.076
Mof_H 	H 	0.4452	0.4852	0.7253	0.053
Mof_C 	C 	0.5024	0.5328	0.6999	-0.013
Mof_H 	H 	0.5126	0.5151	0.6884	0.029
Mof_C 	C 	0.5266	0.5755	0.6961	-0.064
Mof_H 	H 	0.5553	0.5881	0.6864	0.047
Mof_C 	C 	0.5091	0.6002	0.7064	-0.017
Mof_H 	H 	0.5238	0.6294	0.6985	0.03
Mof_C 	C 	0.4695	0.5821	0.7285	-0.075
Mof_H 	H 	0.4586	0.5996	0.7387	0.04
Mof_O 	O 	0.0248	0.1371	0.7232	-0.352
Mof_Ag	Ag	0.74235	0.53587	0.0194	0.511
Mof_P 	P 	0.7823	0.58459	0.08495	0.001
Mof_P 	P 	0.06299	0.85326	0.09983	-0.004
Mof_C 	C 	0.97417	0.66083	0.07723	-0.04
Mof_C 	C 	0.92687	0.63943	0.08323	0.053
Mof_C 	C 	0.90267	0.62593	0.04063	-0.086
Mof_H 	H 	0.91627	0.62813	0.01053	0.055
Mof_C 	C 	0.85967	0.60963	0.04113	-0.026
Mof_H 	H 	0.84417	0.60133	0.01163	0.014
Mof_C 	C 	0.83867	0.60503	0.08583	-0.035
Mof_C 	C 	0.86207	0.61643	0.12713	-0.024
Mof_H 	H 	0.84887	0.61273	0.15793	0.041
Mof_C 	C 	0.90657	0.63403	0.12423	-0.09
Mof_H 	H 	0.92237	0.64213	0.15353	0.06
Mof_C 	C 	0.99537	0.70803	0.08313	0.051
Mof_C 	C 	0.00707	0.73273	0.04273	-0.088
Mof_H 	H 	0.00237	0.72043	0.01133	0.056
Mof_C 	C 	0.02637	0.77693	0.04803	-0.021
Mof_H 	H 	0.03317	0.79363	0.01943	0.033
Mof_C 	C 	0.03567	0.79663	0.09163	-0.033
Mof_C 	C 	0.02287	0.77223	0.13183	-0.018
Mof_H 	H 	0.02717	0.78513	0.16283	0.015
Mof_C 	C 	0.00337	0.72873	0.12863	-0.086
Mof_H 	H 	0.99537	0.71243	0.15753	0.058
Mof_C 	C 	0.77717	0.63083	0.08053	-0.001
Mof_C 	C 	0.73677	0.62593	0.08043	-0.085
Mof_H 	H 	0.71267	0.59863	0.08403	0.054
Mof_C 	C 	0.73177	0.66103	0.07513	-0.005
Mof_H 	H 	0.70417	0.65733	0.07343	0.022
Mof_C 	C 	0.76537	0.70013	0.07223	-0.073
Mof_H 	H 	0.76147	0.72383	0.06903	0.046
Mof_C 	C 	0.80537	0.70573	0.07383	-0.007
Mof_H 	H 	0.82907	0.73343	0.07223	0.031
Mof_C 	C 	0.81127	0.67213	0.07763	-0.076
Mof_H 	H 	0.83917	0.67663	0.07843	0.057
Mof_C 	C 	0.76567	0.56633	0.14633	0.01
Mof_C 	C 	0.75917	0.52583	0.15733	-0.075
Mof_H 	H 	0.76207	0.50883	0.13343	0.047
Mof_C 	C 	0.74787	0.51193	0.20623	-0.009
Mof_H 	H 	0.74317	0.48483	0.21483	0.03
Mof_C 	C 	0.74337	0.53553	0.24103	-0.068
Mof_H 	H 	0.73677	0.52533	0.27333	0.056
Mof_C 	C 	0.74857	0.57433	0.22963	-0.01
Mof_H 	H 	0.74437	0.59063	0.25353	0.036
Mof_C 	C 	0.76027	0.58983	0.18143	-0.075
Mof_H 	H 	0.76447	0.61693	0.17343	0.059
Mof_C 	C 	0.03587	0.87143	0.05883	0.027
Mof_C 	C 	0.03637	0.86763	0.00993	-0.101
Mof_H 	H 	0.05227	0.85673	0.99503	0.061
Mof_C 	C 	0.01277	0.88003	0.98203	0.022
Mof_H 	H 	0.01217	0.87653	0.94773	0.014
Mof_C 	C 	0.99157	0.89623	0.00053	-0.099
Mof_H 	H 	0.97637	0.90473	0.97983	0.062
Mof_C 	C 	0.99087	0.90113	0.04853	0.014
Mof_H 	H 	0.97507	0.91283	0.06213	0.021
Mof_C 	C 	0.01417	0.88873	0.07933	-0.101
Mof_H 	H 	0.01457	0.89243	0.11353	0.056
Mof_C 	C 	0.11277	0.87293	0.06903	-0.005
Mof_C 	C 	0.12827	0.84823	0.05453	-0.076
Mof_H 	H 	0.11187	0.81853	0.05863	0.053
Mof_C 	C 	0.16907	0.86613	0.03323	-0.013
Mof_H 	H 	0.17927	0.84843	0.02173	0.029
Mof_C 	C 	0.19327	0.90883	0.02943	-0.064
Mof_H 	H 	0.22197	0.92143	0.01973	0.047
Mof_C 	C 	0.17577	0.93353	0.03973	-0.017
Mof_H 	H 	0.19047	0.96273	0.03183	0.031
Mof_C 	C 	0.13617	0.91543	0.06183	-0.075
Mof_H 	H 	0.12527	0.93293	0.07203	0.04
Mof_O 	O 	0.69147	0.47043	0.05653	-0.352
Mof_Ag	Ag	0.40901	0.86921	0.35274	0.511
Mof_P 	P 	0.44896	0.91793	0.41829	0.001
Mof_P 	P 	0.72965	0.1866	0.43317	-0.005
Mof_C 	C 	0.64083	0.99417	0.41057	-0.037
Mof_C 	C 	0.59353	0.97277	0.41657	0.052
Mof_C 	C 	0.56933	0.95927	0.37397	-0.085
Mof_H 	H 	0.58293	0.96147	0.34387	0.054
Mof_C 	C 	0.52633	0.94297	0.37447	-0.027
Mof_H 	H 	0.51083	0.93467	0.34497	0.014
Mof_C 	C 	0.50533	0.93837	0.41917	-0.034
Mof_C 	C 	0.52873	0.94977	0.46047	-0.025
Mof_H 	H 	0.51553	0.94607	0.49127	0.041
Mof_C 	C 	0.57323	0.96737	0.45757	-0.089
Mof_H 	H 	0.58903	0.97547	0.48687	0.06
Mof_C 	C 	0.66203	0.04137	0.41647	0.047
Mof_C 	C 	0.67373	0.06607	0.37607	-0.084
Mof_H 	H 	0.66903	0.05377	0.34467	0.054
Mof_C 	C 	0.69303	0.11027	0.38137	-0.023
Mof_H 	H 	0.69983	0.12697	0.35277	0.034
Mof_C 	C 	0.70233	0.12997	0.42497	-0.031
Mof_C 	C 	0.68953	0.10557	0.46517	-0.021
Mof_H 	H 	0.69383	0.11847	0.49617	0.016
Mof_C 	C 	0.67003	0.06207	0.46197	-0.082
Mof_H 	H 	0.66203	0.04577	0.49087	0.056
Mof_C 	C 	0.44383	0.96417	0.41387	0.001
Mof_C 	C 	0.40343	0.95927	0.41377	-0.087
Mof_H 	H 	0.37933	0.93197	0.41737	0.055
Mof_C 	C 	0.39843	0.99437	0.40847	-0.002
Mof_H 	H 	0.37083	0.99067	0.40677	0.021
Mof_C 	C 	0.43203	0.03347	0.40557	-0.076
Mof_H 	H 	0.42813	0.05717	0.40237	0.047
Mof_C 	C 	0.47203	0.03907	0.40717	-0.004
Mof_H 	H 	0.49573	0.06677	0.40557	0.03
Mof_C 	C 	0.47793	0.00547	0.41097	-0.079
Mof_H 	H 	0.50583	0.00997	0.41177	0.057
Mof_C 	C 	0.43233	0.89967	0.47967	0.01
Mof_C 	C 	0.42583	0.85917	0.49067	-0.076
Mof_H 	H 	0.42873	0.84217	0.46677	0.047
Mof_C 	C 	0.41453	0.84527	0.53957	-0.009
Mof_H 	H 	0.40983	0.81817	0.54817	0.03
Mof_C 	C 	0.41003	0.86887	0.57437	-0.069
Mof_H 	H 	0.40343	0.85867	0.60667	0.056
Mof_C 	C 	0.41523	0.90767	0.56297	-0.01
Mof_H 	H 	0.41103	0.92397	0.58687	0.036
Mof_C 	C 	0.42693	0.92317	0.51477	-0.075
Mof_H 	H 	0.43113	0.95027	0.50677	0.059
Mof_C 	C 	0.70253	0.20477	0.39217	0.028
Mof_C 	C 	0.70303	0.20097	0.34327	-0.104
Mof_H 	H 	0.71893	0.19007	0.32837	0.062
Mof_C 	C 	0.67943	0.21337	0.31537	0.026
Mof_H 	H 	0.67883	0.20987	0.28107	0.013
Mof_C 	C 	0.65823	0.22957	0.33387	-0.103
Mof_H 	H 	0.64303	0.23807	0.31317	0.063
Mof_C 	C 	0.65753	0.23447	0.38187	0.016
Mof_H 	H 	0.64173	0.24617	0.39547	0.021
Mof_C 	C 	0.68083	0.22207	0.41267	-0.102
Mof_H 	H 	0.68123	0.22577	0.44687	0.056
Mof_C 	C 	0.77943	0.20627	0.40237	-0.005
Mof_C 	C 	0.79493	0.18157	0.38787	-0.076
Mof_H 	H 	0.77853	0.15187	0.39197	0.053
Mof_C 	C 	0.83573	0.19947	0.36657	-0.013
Mof_H 	H 	0.84593	0.18177	0.35507	0.029
Mof_C 	C 	0.85993	0.24217	0.36277	-0.064
Mof_H 	H 	0.88863	0.25477	0.35307	0.047
Mof_C 	C 	0.84243	0.26687	0.37307	-0.017
Mof_H 	H 	0.85713	0.29607	0.36517	0.031
Mof_C 	C 	0.80283	0.24877	0.39517	-0.075
Mof_H 	H 	0.79193	0.26627	0.40537	0.04
Mof_O 	O 	0.35813	0.80377	0.38987	-0.352
Mof_Ag	Ag	0.79746	0.87314	0.68607	0.511
Mof_P 	P 	0.74874	0.86437	0.75162	0.001
Mof_P 	P 	0.48007	0.87639	0.7665	-0.004
Mof_C 	C 	0.6725	0.98	0.7439	-0.038
Mof_C 	C 	0.6939	0.9541	0.7499	0.052
Mof_C 	C 	0.7074	0.9434	0.7073	-0.085
Mof_H 	H 	0.7052	0.9548	0.6772	0.054
Mof_C 	C 	0.7237	0.9167	0.7078	-0.026
Mof_H 	H 	0.732	0.9095	0.6783	0.014
Mof_C 	C 	0.7283	0.9003	0.7525	-0.034
Mof_C 	C 	0.7169	0.9123	0.7938	-0.025
Mof_H 	H 	0.7206	0.9028	0.8246	0.041
Mof_C 	C 	0.6993	0.9392	0.7909	-0.089
Mof_H 	H 	0.6912	0.9469	0.8202	0.06
Mof_C 	C 	0.6253	0.954	0.7498	0.048
Mof_C 	C 	0.6006	0.941	0.7094	-0.085
Mof_H 	H 	0.6129	0.9486	0.678	0.055
Mof_C 	C 	0.5564	0.9161	0.7147	-0.023
Mof_H 	H 	0.5397	0.9062	0.6861	0.034
Mof_C 	C 	0.5367	0.9057	0.7583	-0.031
Mof_C 	C 	0.5611	0.9173	0.7985	-0.02
Mof_H 	H 	0.5482	0.9087	0.8295	0.016
Mof_C 	C 	0.6046	0.9413	0.7953	-0.082
Mof_H 	H 	0.6209	0.9496	0.8242	0.056
Mof_C 	C 	0.7025	0.813	0.7472	-0.001
Mof_C 	C 	0.7074	0.7775	0.7471	-0.085
Mof_H 	H 	0.7347	0.7807	0.7507	0.054
Mof_C 	C 	0.6723	0.7374	0.7418	-0.005
Mof_H 	H 	0.676	0.7135	0.7401	0.022
Mof_C 	C 	0.6332	0.7319	0.7389	-0.073
Mof_H 	H 	0.6095	0.7043	0.7357	0.046
Mof_C 	C 	0.6276	0.7663	0.7405	-0.007
Mof_H 	H 	0.5999	0.7623	0.7389	0.031
Mof_C 	C 	0.6612	0.8058	0.7443	-0.076
Mof_H 	H 	0.6567	0.8292	0.7451	0.057
Mof_C 	C 	0.767	0.866	0.813	0.01
Mof_C 	C 	0.8075	0.9	0.824	-0.075
Mof_H 	H 	0.8245	0.9199	0.8001	0.047
Mof_C 	C 	0.8214	0.9026	0.8729	-0.009
Mof_H 	H 	0.8485	0.925	0.8815	0.03
Mof_C 	C 	0.7978	0.8745	0.9077	-0.068
Mof_H 	H 	0.808	0.8781	0.94	0.056
Mof_C 	C 	0.759	0.8409	0.8963	-0.01
Mof_H 	H 	0.7427	0.8204	0.9202	0.036
Mof_C 	C 	0.7435	0.8371	0.8481	-0.075
Mof_H 	H 	0.7164	0.8142	0.8401	0.059
Mof_C 	C 	0.4619	0.8311	0.7255	0.028
Mof_C 	C 	0.4657	0.8354	0.6766	-0.104
Mof_H 	H 	0.4766	0.8622	0.6617	0.062
Mof_C 	C 	0.4533	0.7994	0.6487	0.026
Mof_H 	H 	0.4568	0.8023	0.6144	0.013
Mof_C 	C 	0.4371	0.762	0.6672	-0.103
Mof_H 	H 	0.4286	0.7383	0.6465	0.063
Mof_C 	C 	0.4322	0.7564	0.7152	0.016
Mof_H 	H 	0.4205	0.7289	0.7288	0.021
Mof_C 	C 	0.4446	0.7921	0.746	-0.102
Mof_H 	H 	0.4409	0.7888	0.7802	0.056
Mof_C 	C 	0.4604	0.9065	0.7357	-0.005
Mof_C 	C 	0.4851	0.9467	0.7212	-0.076
Mof_H 	H 	0.5148	0.96	0.7253	0.053
Mof_C 	C 	0.4672	0.9696	0.6999	-0.013
Mof_H 	H 	0.4849	0.9975	0.6884	0.029
Mof_C 	C 	0.4245	0.9511	0.6961	-0.064
Mof_H 	H 	0.4119	0.9672	0.6864	0.047
Mof_C 	C 	0.3998	0.9089	0.7064	-0.017
Mof_H 	H 	0.3706	0.8944	0.6985	0.03
Mof_C 	C 	0.4179	0.8874	0.7285	-0.075
Mof_H 	H 	0.4004	0.859	0.7387	0.04
Mof_O 	O 	0.8629	0.8877	0.7232	-0.352
Mof_Ag	Ag	0.46413	0.20647	0.0194	0.511
Mof_P 	P 	0.41541	0.1977	0.08495	0.001
Mof_P 	P 	0.14674	0.20972	0.09983	-0.004
Mof_C 	C 	0.33917	0.31333	0.07723	-0.039
Mof_C 	C 	0.36057	0.28743	0.08323	0.052
Mof_C 	C 	0.37407	0.27673	0.04063	-0.086
Mof_H 	H 	0.37187	0.28813	0.01053	0.054
Mof_C 	C 	0.39037	0.25003	0.04113	-0.026
Mof_H 	H 	0.39867	0.24283	0.01163	0.014
Mof_C 	C 	0.39497	0.23363	0.08583	-0.034
Mof_C 	C 	0.38357	0.24563	0.12713	-0.025
Mof_H 	H 	0.38727	0.23613	0.15793	0.041
Mof_C 	C 	0.36597	0.27253	0.12423	-0.09
Mof_H 	H 	0.35787	0.28023	0.15353	0.06
Mof_C 	C 	0.29197	0.28733	0.08313	0.048
Mof_C 	C 	0.26727	0.27433	0.04273	-0.085
Mof_H 	H 	0.27957	0.28193	0.01133	0.055
Mof_C 	C 	0.22307	0.24943	0.04803	-0.023
Mof_H 	H 	0.20637	0.23953	0.01943	0.034
Mof_C 	C 	0.20337	0.23903	0.09163	-0.031
Mof_C 	C 	0.22777	0.25063	0.13183	-0.02
Mof_H 	H 	0.21487	0.24203	0.16283	0.016
Mof_C 	C 	0.27127	0.27463	0.12863	-0.082
Mof_H 	H 	0.28757	0.28293	0.15753	0.056
Mof_C 	C 	0.36917	0.14633	0.08053	-0.001
Mof_C 	C 	0.37407	0.11083	0.08043	-0.085
Mof_H 	H 	0.40137	0.11403	0.08403	0.054
Mof_C 	C 	0.33897	0.07073	0.07513	-0.005
Mof_H 	H 	0.34267	0.04683	0.07343	0.022
Mof_C 	C 	0.29987	0.06523	0.07223	-0.073
Mof_H 	H 	0.27617	0.03763	0.06903	0.046
Mof_C 	C 	0.29427	0.09963	0.07383	-0.007
Mof_H 	H 	0.26657	0.09563	0.07223	0.031
Mof_C 	C 	0.32787	0.13913	0.07763	-0.076
Mof_H 	H 	0.32337	0.16253	0.07843	0.057
Mof_C 	C 	0.43367	0.19933	0.14633	0.01
Mof_C 	C 	0.47417	0.23333	0.15733	-0.075
Mof_H 	H 	0.49117	0.25323	0.13343	0.047
Mof_C 	C 	0.48807	0.23593	0.20623	-0.009
Mof_H 	H 	0.51517	0.25833	0.21483	0.03
Mof_C 	C 	0.46447	0.20783	0.24103	-0.068
Mof_H 	H 	0.47467	0.21143	0.27333	0.056
Mof_C 	C 	0.42567	0.17423	0.22963	-0.01
Mof_H 	H 	0.40937	0.15373	0.25353	0.036
Mof_C 	C 	0.41017	0.17043	0.18143	-0.075
Mof_H 	H 	0.38307	0.14753	0.17343	0.059
Mof_C 	C 	0.12857	0.16443	0.05883	0.028
Mof_C 	C 	0.13237	0.16873	0.00993	-0.103
Mof_H 	H 	0.14327	0.19553	0.99503	0.062
Mof_C 	C 	0.11997	0.13273	0.98203	0.026
Mof_H 	H 	0.12347	0.13563	0.94773	0.013
Mof_C 	C 	0.10377	0.09533	0.00053	-0.103
Mof_H 	H 	0.09527	0.07163	0.97983	0.062
Mof_C 	C 	0.09887	0.08973	0.04853	0.016
Mof_H 	H 	0.08717	0.06223	0.06213	0.02
Mof_C 	C 	0.11127	0.12543	0.07933	-0.102
Mof_H 	H 	0.10757	0.12213	0.11353	0.056
Mof_C 	C 	0.12707	0.23983	0.06903	-0.005
Mof_C 	C 	0.15177	0.28003	0.05453	-0.076
Mof_H 	H 	0.18147	0.29333	0.05863	0.053
Mof_C 	C 	0.13387	0.30293	0.03323	-0.013
Mof_H 	H 	0.15157	0.33083	0.02173	0.029
Mof_C 	C 	0.09117	0.28443	0.02943	-0.064
Mof_H 	H 	0.07857	0.30053	0.01973	0.047
Mof_C 	C 	0.06647	0.24223	0.03973	-0.017
Mof_H 	H 	0.03727	0.22773	0.03183	0.03
Mof_C 	C 	0.08457	0.22073	0.06183	-0.075
Mof_H 	H 	0.06707	0.19233	0.07203	0.04
Mof_O 	O 	0.52957	0.22103	0.05653	-0.352
Mof_Ag	Ag	0.13079	0.53981	0.35274	0.51
Mof_P 	P 	0.08207	0.53104	0.41829	0.002
Mof_P 	P 	0.8134	0.54306	0.43317	-0.004
Mof_C 	C 	0.00583	0.64667	0.41057	-0.04
Mof_C 	C 	0.02723	0.62077	0.41657	0.053
Mof_C 	C 	0.04073	0.61007	0.37397	-0.086
Mof_H 	H 	0.03853	0.62147	0.34387	0.054
Mof_C 	C 	0.05703	0.58337	0.37447	-0.026
Mof_H 	H 	0.06533	0.57617	0.34497	0.014
Mof_C 	C 	0.06163	0.56697	0.41917	-0.035
Mof_C 	C 	0.05023	0.57897	0.46047	-0.024
Mof_H 	H 	0.05393	0.56947	0.49127	0.041
Mof_C 	C 	0.03263	0.60587	0.45757	-0.09
Mof_H 	H 	0.02453	0.61357	0.48687	0.06
Mof_C 	C 	0.95863	0.62067	0.41647	0.049
Mof_C 	C 	0.93393	0.60767	0.37607	-0.086
Mof_H 	H 	0.94623	0.61527	0.34467	0.055
Mof_C 	C 	0.88973	0.58277	0.38137	-0.022
Mof_H 	H 	0.87303	0.57287	0.35277	0.034
Mof_C 	C 	0.87003	0.57237	0.42497	-0.032
Mof_C 	C 	0.89443	0.58397	0.46517	-0.02
Mof_H 	H 	0.88153	0.57537	0.49617	0.016
Mof_C 	C 	0.93793	0.60797	0.46197	-0.083
Mof_H 	H 	0.95423	0.61627	0.49087	0.056
Mof_C 	C 	0.03583	0.47967	0.41387	-0.003
Mof_C 	C 	0.04073	0.44417	0.41377	-0.083
Mof_H 	H 	0.06803	0.44737	0.41737	0.053
Mof_C 	C 	0.00563	0.40407	0.40847	-0.008
Mof_H 	H 	0.00933	0.38017	0.40677	0.023
Mof_C 	C 	0.96653	0.39857	0.40557	-0.07
Mof_H 	H 	0.94283	0.37097	0.40237	0.045
Mof_C 	C 	0.96093	0.43297	0.40717	-0.01
Mof_H 	H 	0.93323	0.42897	0.40557	0.032
Mof_C 	C 	0.99453	0.47247	0.41097	-0.074
Mof_H 	H 	0.99003	0.49587	0.41177	0.056
Mof_C 	C 	0.10033	0.53267	0.47967	0.01
Mof_C 	C 	0.14083	0.56667	0.49067	-0.075
Mof_H 	H 	0.15783	0.58657	0.46677	0.047
Mof_C 	C 	0.15473	0.56927	0.53957	-0.009
Mof_H 	H 	0.18183	0.59167	0.54817	0.03
Mof_C 	C 	0.13113	0.54117	0.57437	-0.068
Mof_H 	H 	0.14133	0.54477	0.60667	0.056
Mof_C 	C 	0.09233	0.50757	0.56297	-0.01
Mof_H 	H 	0.07603	0.48707	0.58687	0.036
Mof_C 	C 	0.07683	0.50377	0.51477	-0.075
Mof_H 	H 	0.04973	0.48087	0.50677	0.059
Mof_C 	C 	0.79523	0.49777	0.39217	0.028
Mof_C 	C 	0.79903	0.50207	0.34327	-0.104
Mof_H 	H 	0.80993	0.52887	0.32837	0.062
Mof_C 	C 	0.78663	0.46607	0.31537	0.026
Mof_H 	H 	0.79013	0.46897	0.28107	0.013
Mof_C 	C 	0.77043	0.42867	0.33387	-0.103
Mof_H 	H 	0.76193	0.40497	0.31317	0.063
Mof_C 	C 	0.76553	0.42307	0.38187	0.016
Mof_H 	H 	0.75383	0.39557	0.39547	0.021
Mof_C 	C 	0.77793	0.45877	0.41267	-0.102
Mof_H 	H 	0.77423	0.45547	0.44687	0.056
Mof_C 	C 	0.79373	0.57317	0.40237	-0.005
Mof_C 	C 	0.81843	0.61337	0.38787	-0.076
Mof_H 	H 	0.84813	0.62667	0.39197	0.053
Mof_C 	C 	0.80053	0.63627	0.36657	-0.013
Mof_H 	H 	0.81823	0.66417	0.35507	0.029
Mof_C 	C 	0.75783	0.61777	0.36277	-0.064
Mof_H 	H 	0.74523	0.63387	0.35307	0.047
Mof_C 	C 	0.73313	0.57557	0.37307	-0.017
Mof_H 	H 	0.70393	0.56107	0.36517	0.03
Mof_C 	C 	0.75123	0.55407	0.39517	-0.075
Mof_H 	H 	0.73373	0.52567	0.40537	0.04
Mof_O 	O 	0.19623	0.55437	0.38987	-0.352
Mof_Ag	Ag	0.12686	0.92432	0.68607	0.51
Mof_P 	P 	0.13563	0.88437	0.75162	0.001
Mof_P 	P 	0.12361	0.60368	0.7665	-0.004
Mof_C 	C 	0.02	0.6925	0.7439	-0.04
Mof_C 	C 	0.0459	0.7398	0.7499	0.053
Mof_C 	C 	0.0566	0.764	0.7073	-0.086
Mof_H 	H 	0.0452	0.7504	0.6772	0.054
Mof_C 	C 	0.0833	0.807	0.7078	-0.026
Mof_H 	H 	0.0905	0.8225	0.6783	0.014
Mof_C 	C 	0.0997	0.828	0.7525	-0.035
Mof_C 	C 	0.0877	0.8046	0.7938	-0.024
Mof_H 	H 	0.0972	0.8178	0.8246	0.041
Mof_C 	C 	0.0608	0.7601	0.7909	-0.09
Mof_H 	H 	0.0531	0.7443	0.8202	0.06
Mof_C 	C 	0.046	0.6713	0.7498	0.048
Mof_C 	C 	0.059	0.6596	0.7094	-0.085
Mof_H 	H 	0.0514	0.6643	0.678	0.055
Mof_C 	C 	0.0839	0.6403	0.7147	-0.022
Mof_H 	H 	0.0938	0.6335	0.6861	0.034
Mof_C 	C 	0.0943	0.631	0.7583	-0.032
Mof_C 	C 	0.0827	0.6438	0.7985	-0.02
Mof_H 	H 	0.0913	0.6395	0.8295	0.016
Mof_C 	C 	0.0587	0.6633	0.7953	-0.083
Mof_H 	H 	0.0504	0.6713	0.8242	0.056
Mof_C 	C 	0.187	0.8895	0.7472	-0.001
Mof_C 	C 	0.2225	0.9299	0.7471	-0.085
Mof_H 	H 	0.2193	0.954	0.7507	0.054
Mof_C 	C 	0.2626	0.9349	0.7418	-0.005
Mof_H 	H 	0.2865	0.9625	0.7401	0.022
Mof_C 	C 	0.2681	0.9013	0.7389	-0.073
Mof_H 	H 	0.2957	0.9052	0.7357	0.046
Mof_C 	C 	0.2337	0.8613	0.7405	-0.007
Mof_H 	H 	0.2377	0.8376	0.7389	0.031
Mof_C 	C 	0.1942	0.8554	0.7443	-0.076
Mof_H 	H 	0.1708	0.8275	0.7451	0.057
Mof_C 	C 	0.134	0.901	0.813	0.01
Mof_C 	C 	0.1	0.9075	0.824	-0.075
Mof_H 	H 	0.0801	0.9046	0.8001	0.047
Mof_C 	C 	0.0974	0.9188	0.8729	-0.009
Mof_H 	H 	0.075	0.9235	0.8815	0.03
Mof_C 	C 	0.1255	0.9233	0.9077	-0.068
Mof_H 	H 	0.1219	0.9299	0.94	0.056
Mof_C 	C 	0.1591	0.9181	0.8963	-0.01
Mof_H 	H 	0.1796	0.9223	0.9202	0.036
Mof_C 	C 	0.1629	0.9064	0.8481	-0.075
Mof_H 	H 	0.1858	0.9022	0.8401	0.059
Mof_C 	C 	0.1689	0.6308	0.7255	0.028
Mof_C 	C 	0.1646	0.6303	0.6766	-0.104
Mof_H 	H 	0.1378	0.6144	0.6617	0.062
Mof_C 	C 	0.2006	0.6539	0.6487	0.026
Mof_H 	H 	0.1977	0.6545	0.6144	0.013
Mof_C 	C 	0.238	0.6751	0.6672	-0.103
Mof_H 	H 	0.2617	0.6903	0.6465	0.063
Mof_C 	C 	0.2436	0.6758	0.7152	0.016
Mof_H 	H 	0.2711	0.6916	0.7288	0.021
Mof_C 	C 	0.2079	0.6525	0.746	-0.102
Mof_H 	H 	0.2112	0.6521	0.7802	0.056
Mof_C 	C 	0.0935	0.5539	0.7357	-0.005
Mof_C 	C 	0.0533	0.5384	0.7212	-0.076
Mof_H 	H 	0.04	0.5548	0.7253	0.053
Mof_C 	C 	0.0304	0.4976	0.6999	-0.014
Mof_H 	H 	0.0025	0.4874	0.6884	0.029
Mof_C 	C 	0.0489	0.4734	0.6961	-0.064
Mof_H 	H 	0.0328	0.4447	0.6864	0.047
Mof_C 	C 	0.0911	0.4909	0.7064	-0.017
Mof_H 	H 	0.1056	0.4762	0.6985	0.03
Mof_C 	C 	0.1126	0.5305	0.7285	-0.075
Mof_H 	H 	0.141	0.5414	0.7387	0.04
Mof_O 	O 	0.1123	0.9752	0.7232	-0.351
Mof_Ag	Ag	0.79353	0.25765	0.0194	0.51
Mof_P 	P 	0.8023	0.2177	0.08495	0.001
Mof_P 	P 	0.79028	0.93701	0.09983	-0.005
Mof_C 	C 	0.68667	0.02583	0.07723	-0.037
Mof_C 	C 	0.71257	0.07313	0.08323	0.051
Mof_C 	C 	0.72327	0.09733	0.04063	-0.085
Mof_H 	H 	0.71187	0.08373	0.01053	0.054
Mof_C 	C 	0.74997	0.14033	0.04113	-0.027
Mof_H 	H 	0.75717	0.15583	0.01163	0.014
Mof_C 	C 	0.76637	0.16133	0.08583	-0.034
Mof_C 	C 	0.75437	0.13793	0.12713	-0.025
Mof_H 	H 	0.76387	0.15113	0.15793	0.041
Mof_C 	C 	0.72747	0.09343	0.12423	-0.089
Mof_H 	H 	0.71977	0.07763	0.15353	0.06
Mof_C 	C 	0.71267	0.00463	0.08313	0.044
Mof_C 	C 	0.72567	0.99293	0.04273	-0.081
Mof_H 	H 	0.71807	0.99763	0.01133	0.054
Mof_C 	C 	0.75057	0.97363	0.04803	-0.025
Mof_H 	H 	0.76047	0.96683	0.01943	0.035
Mof_C 	C 	0.76097	0.96433	0.09163	-0.03
Mof_C 	C 	0.74937	0.97713	0.13183	-0.023
Mof_H 	H 	0.75797	0.97283	0.16283	0.017
Mof_C 	C 	0.72537	0.99663	0.12863	-0.078
Mof_H 	H 	0.71707	0.00463	0.15753	0.054
Mof_C 	C 	0.85367	0.22283	0.08053	-0.001
Mof_C 	C 	0.88917	0.26323	0.08043	-0.085
Mof_H 	H 	0.88597	0.28733	0.08403	0.054
Mof_C 	C 	0.92927	0.26823	0.07513	-0.005
Mof_H 	H 	0.95317	0.29583	0.07343	0.022
Mof_C 	C 	0.93477	0.23463	0.07223	-0.073
Mof_H 	H 	0.96237	0.23853	0.06903	0.046
Mof_C 	C 	0.90037	0.19463	0.07383	-0.007
Mof_H 	H 	0.90437	0.17093	0.07223	0.031
Mof_C 	C 	0.86087	0.18873	0.07763	-0.076
Mof_H 	H 	0.83747	0.16083	0.07843	0.057
Mof_C 	C 	0.80067	0.23433	0.14633	0.01
Mof_C 	C 	0.76667	0.24083	0.15733	-0.075
Mof_H 	H 	0.74677	0.23793	0.13343	0.047
Mof_C 	C 	0.76407	0.25213	0.20623	-0.009
Mof_H 	H 	0.74167	0.25683	0.21483	0.03
Mof_C 	C 	0.79217	0.25663	0.24103	-0.068
Mof_H 	H 	0.78857	0.26323	0.27333	0.056
Mof_C 	C 	0.82577	0.25143	0.22963	-0.01
Mof_H 	H 	0.84627	0.25563	0.25353	0.036
Mof_C 	C 	0.82957	0.23973	0.18143	-0.075
Mof_H 	H 	0.85247	0.23553	0.17343	0.059
Mof_C 	C 	0.83557	0.96413	0.05883	0.029
Mof_C 	C 	0.83127	0.96363	0.00993	-0.105
Mof_H 	H 	0.80447	0.94773	0.99503	0.062
Mof_C 	C 	0.86727	0.98723	0.98203	0.028
Mof_H 	H 	0.86437	0.98783	0.94773	0.013
Mof_C 	C 	0.90467	0.00843	0.00053	-0.106
Mof_H 	H 	0.92837	0.02363	0.97983	0.064
Mof_C 	C 	0.91027	0.00913	0.04853	0.016
Mof_H 	H 	0.93777	0.02493	0.06213	0.02
Mof_C 	C 	0.87457	0.98583	0.07933	-0.102
Mof_H 	H 	0.87787	0.98543	0.11353	0.056
Mof_C 	C 	0.76017	0.88723	0.06903	-0.005
Mof_C 	C 	0.71997	0.87173	0.05453	-0.076
Mof_H 	H 	0.70667	0.88813	0.05863	0.053
Mof_C 	C 	0.69707	0.83093	0.03323	-0.013
Mof_H 	H 	0.66917	0.82073	0.02173	0.029
Mof_C 	C 	0.71557	0.80673	0.02943	-0.064
Mof_H 	H 	0.69947	0.77803	0.01973	0.047
Mof_C 	C 	0.75777	0.82423	0.03973	-0.017
Mof_H 	H 	0.77227	0.80953	0.03183	0.03
Mof_C 	C 	0.77927	0.86383	0.06183	-0.075
Mof_H 	H 	0.80767	0.87473	0.07203	0.04
Mof_O 	O 	0.77897	0.30853	0.05653	-0.352
Mof_Ag	Ag	0.46019	0.59099	0.35274	0.51
Mof_P 	P 	0.46896	0.55104	0.41829	0.001
Mof_P 	P 	0.45694	0.27035	0.43317	-0.004
Mof_C 	C 	0.35333	0.35917	0.41057	-0.039
Mof_C 	C 	0.37923	0.40647	0.41657	0.052
Mof_C 	C 	0.38993	0.43067	0.37397	-0.086
Mof_H 	H 	0.37853	0.41707	0.34387	0.054
Mof_C 	C 	0.41663	0.47367	0.37447	-0.026
Mof_H 	H 	0.42383	0.48917	0.34497	0.014
Mof_C 	C 	0.43303	0.49467	0.41917	-0.034
Mof_C 	C 	0.42103	0.47127	0.46047	-0.025
Mof_H 	H 	0.43053	0.48447	0.49127	0.041
Mof_C 	C 	0.39413	0.42677	0.45757	-0.09
Mof_H 	H 	0.38643	0.41097	0.48687	0.06
Mof_C 	C 	0.37933	0.33797	0.41647	0.048
Mof_C 	C 	0.39233	0.32627	0.37607	-0.085
Mof_H 	H 	0.38473	0.33097	0.34467	0.055
Mof_C 	C 	0.41723	0.30697	0.38137	-0.023
Mof_H 	H 	0.42713	0.30017	0.35277	0.034
Mof_C 	C 	0.42763	0.29767	0.42497	-0.031
Mof_C 	C 	0.41603	0.31047	0.46517	-0.02
Mof_H 	H 	0.42463	0.30617	0.49617	0.016
Mof_C 	C 	0.39203	0.32997	0.46197	-0.082
Mof_H 	H 	0.38373	0.33797	0.49087	0.056
Mof_C 	C 	0.52033	0.55617	0.41387	-0.001
Mof_C 	C 	0.55583	0.59657	0.41377	-0.085
Mof_H 	H 	0.55263	0.62067	0.41737	0.054
Mof_C 	C 	0.59593	0.60157	0.40847	-0.005
Mof_H 	H 	0.61983	0.62917	0.40677	0.022
Mof_C 	C 	0.60143	0.56797	0.40557	-0.073
Mof_H 	H 	0.62903	0.57187	0.40237	0.046
Mof_C 	C 	0.56703	0.52797	0.40717	-0.007
Mof_H 	H 	0.57103	0.50427	0.40557	0.031
Mof_C 	C 	0.52753	0.52207	0.41097	-0.076
Mof_H 	H 	0.50413	0.49417	0.41177	0.057
Mof_C 	C 	0.46733	0.56767	0.47967	0.01
Mof_C 	C 	0.43333	0.57417	0.49067	-0.075
Mof_H 	H 	0.41343	0.57127	0.46677	0.047
Mof_C 	C 	0.43073	0.58547	0.53957	-0.009
Mof_H 	H 	0.40833	0.59017	0.54817	0.03
Mof_C 	C 	0.45883	0.58997	0.57437	-0.068
Mof_H 	H 	0.45523	0.59657	0.60667	0.056
Mof_C 	C 	0.49243	0.58477	0.56297	-0.01
Mof_H 	H 	0.51293	0.58897	0.58687	0.036
Mof_C 	C 	0.49623	0.57307	0.51477	-0.075
Mof_H 	H 	0.51913	0.56887	0.50677	0.059
Mof_C 	C 	0.50223	0.29747	0.39217	0.028
Mof_C 	C 	0.49793	0.29697	0.34327	-0.104
Mof_H 	H 	0.47113	0.28107	0.32837	0.062
Mof_C 	C 	0.53393	0.32057	0.31537	0.026
Mof_H 	H 	0.53103	0.32117	0.28107	0.013
Mof_C 	C 	0.57133	0.34177	0.33387	-0.103
Mof_H 	H 	0.59503	0.35697	0.31317	0.063
Mof_C 	C 	0.57693	0.34247	0.38187	0.016
Mof_H 	H 	0.60443	0.35827	0.39547	0.021
Mof_C 	C 	0.54123	0.31917	0.41267	-0.102
Mof_H 	H 	0.54453	0.31877	0.44687	0.056
Mof_C 	C 	0.42683	0.22057	0.40237	-0.005
Mof_C 	C 	0.38663	0.20507	0.38787	-0.076
Mof_H 	H 	0.37333	0.22147	0.39197	0.053
Mof_C 	C 	0.36373	0.16427	0.36657	-0.013
Mof_H 	H 	0.33583	0.15407	0.35507	0.029
Mof_C 	C 	0.38223	0.14007	0.36277	-0.064
Mof_H 	H 	0.36613	0.11137	0.35307	0.047
Mof_C 	C 	0.42443	0.15757	0.37307	-0.017
Mof_H 	H 	0.43893	0.14287	0.36517	0.03
Mof_C 	C 	0.44593	0.19717	0.39517	-0.075
Mof_H 	H 	0.47433	0.20807	0.40537	0.04
Mof_O 	O 	0.44563	0.64187	0.38987	-0.352
Mof_Ag	Ag	0.20254	0.07568	0.81393	0.51
Mof_P 	P 	0.25126	0.11563	0.74838	0.001
Mof_P 	P 	0.51993	0.39632	0.7335	-0.004
Mof_C 	C 	0.3275	0.3075	0.7561	-0.039
Mof_C 	C 	0.3061	0.2602	0.7501	0.052
Mof_C 	C 	0.2926	0.236	0.7927	-0.086
Mof_H 	H 	0.2948	0.2496	0.8228	0.054
Mof_C 	C 	0.2763	0.193	0.7922	-0.026
Mof_H 	H 	0.268	0.1775	0.8217	0.014
Mof_C 	C 	0.2717	0.172	0.7475	-0.034
Mof_C 	C 	0.2831	0.1954	0.7062	-0.025
Mof_H 	H 	0.2794	0.1822	0.6754	0.041
Mof_C 	C 	0.3007	0.2399	0.7091	-0.09
Mof_H 	H 	0.3088	0.2557	0.6798	0.06
Mof_C 	C 	0.3747	0.3287	0.7502	0.048
Mof_C 	C 	0.3994	0.3404	0.7906	-0.085
Mof_H 	H 	0.3871	0.3357	0.822	0.055
Mof_C 	C 	0.4436	0.3597	0.7853	-0.023
Mof_H 	H 	0.4603	0.3665	0.8139	0.034
Mof_C 	C 	0.4633	0.369	0.7417	-0.031
Mof_C 	C 	0.4389	0.3562	0.7015	-0.02
Mof_H 	H 	0.4518	0.3605	0.6705	0.016
Mof_C 	C 	0.3954	0.3367	0.7047	-0.082
Mof_H 	H 	0.3791	0.3287	0.6758	0.056
Mof_C 	C 	0.2975	0.1105	0.7528	-0.001
Mof_C 	C 	0.2926	0.0701	0.7529	-0.085
Mof_H 	H 	0.2653	0.046	0.7493	0.054
Mof_C 	C 	0.3277	0.0651	0.7582	-0.005
Mof_H 	H 	0.324	0.0375	0.7599	0.022
Mof_C 	C 	0.3668	0.0987	0.7611	-0.073
Mof_H 	H 	0.3905	0.0948	0.7643	0.046
Mof_C 	C 	0.3724	0.1387	0.7595	-0.007
Mof_H 	H 	0.4001	0.1624	0.7611	0.031
Mof_C 	C 	0.3388	0.1446	0.7557	-0.076
Mof_H 	H 	0.3433	0.1725	0.7549	0.057
Mof_C 	C 	0.233	0.099	0.687	0.01
Mof_C 	C 	0.1925	0.0925	0.676	-0.076
Mof_H 	H 	0.1755	0.0954	0.6999	0.047
Mof_C 	C 	0.1786	0.0812	0.6271	-0.009
Mof_H 	H 	0.1515	0.0765	0.6185	0.03
Mof_C 	C 	0.2022	0.0767	0.5923	-0.069
Mof_H 	H 	0.192	0.0701	0.56	0.056
Mof_C 	C 	0.241	0.0819	0.6037	-0.01
Mof_H 	H 	0.2573	0.0777	0.5798	0.036
Mof_C 	C 	0.2565	0.0936	0.6519	-0.075
Mof_H 	H 	0.2836	0.0978	0.6599	0.059
Mof_C 	C 	0.5381	0.3692	0.7745	0.028
Mof_C 	C 	0.5343	0.3697	0.8234	-0.104
Mof_H 	H 	0.5234	0.3856	0.8383	0.062
Mof_C 	C 	0.5467	0.3461	0.8513	0.026
Mof_H 	H 	0.5432	0.3455	0.8856	0.013
Mof_C 	C 	0.5629	0.3249	0.8328	-0.103
Mof_H 	H 	0.5714	0.3097	0.8535	0.063
Mof_C 	C 	0.5678	0.3242	0.7848	0.016
Mof_H 	H 	0.5795	0.3084	0.7712	0.021
Mof_C 	C 	0.5554	0.3475	0.754	-0.102
Mof_H 	H 	0.5591	0.3479	0.7198	0.056
Mof_C 	C 	0.5396	0.4461	0.7643	-0.005
Mof_C 	C 	0.5149	0.4616	0.7788	-0.076
Mof_H 	H 	0.4852	0.4452	0.7747	0.053
Mof_C 	C 	0.5328	0.5024	0.8001	-0.013
Mof_H 	H 	0.5151	0.5126	0.8116	0.029
Mof_C 	C 	0.5755	0.5266	0.8039	-0.064
Mof_H 	H 	0.5881	0.5553	0.8136	0.047
Mof_C 	C 	0.6002	0.5091	0.7936	-0.017
Mof_H 	H 	0.6294	0.5238	0.8015	0.03
Mof_C 	C 	0.5821	0.4695	0.7715	-0.075
Mof_H 	H 	0.5996	0.4586	0.7613	0.04
Mof_O 	O 	0.1371	0.0248	0.7768	-0.352
Mof_Ag	Ag	0.86921	0.40901	0.14726	0.511
Mof_P 	P 	0.91793	0.44896	0.08171	0.001
Mof_P 	P 	0.1866	0.72965	0.06683	-0.004
Mof_C 	C 	0.99417	0.64083	0.08943	-0.037
Mof_C 	C 	0.97277	0.59353	0.08343	0.052
Mof_C 	C 	0.95927	0.56933	0.12603	-0.085
Mof_H 	H 	0.96147	0.58293	0.15613	0.054
Mof_C 	C 	0.94297	0.52633	0.12553	-0.027
Mof_H 	H 	0.93467	0.51083	0.15503	0.014
Mof_C 	C 	0.93837	0.50533	0.08083	-0.034
Mof_C 	C 	0.94977	0.52873	0.03953	-0.025
Mof_H 	H 	0.94607	0.51553	0.00873	0.041
Mof_C 	C 	0.96737	0.57323	0.04243	-0.089
Mof_H 	H 	0.97547	0.58903	0.01313	0.06
Mof_C 	C 	0.04137	0.66203	0.08353	0.047
Mof_C 	C 	0.06607	0.67373	0.12393	-0.084
Mof_H 	H 	0.05377	0.66903	0.15533	0.054
Mof_C 	C 	0.11027	0.69303	0.11863	-0.023
Mof_H 	H 	0.12697	0.69983	0.14723	0.034
Mof_C 	C 	0.12997	0.70233	0.07503	-0.031
Mof_C 	C 	0.10557	0.68953	0.03483	-0.021
Mof_H 	H 	0.11847	0.69383	0.00383	0.017
Mof_C 	C 	0.06207	0.67003	0.03803	-0.082
Mof_H 	H 	0.04577	0.66203	0.00913	0.056
Mof_C 	C 	0.96417	0.44383	0.08613	0.001
Mof_C 	C 	0.95927	0.40343	0.08623	-0.087
Mof_H 	H 	0.93197	0.37933	0.08263	0.055
Mof_C 	C 	0.99437	0.39843	0.09153	-0.002
Mof_H 	H 	0.99067	0.37083	0.09323	0.021
Mof_C 	C 	0.03347	0.43203	0.09443	-0.076
Mof_H 	H 	0.05717	0.42813	0.09763	0.047
Mof_C 	C 	0.03907	0.47203	0.09283	-0.005
Mof_H 	H 	0.06677	0.49573	0.09443	0.03
Mof_C 	C 	0.00547	0.47793	0.08903	-0.079
Mof_H 	H 	0.00997	0.50583	0.08823	0.057
Mof_C 	C 	0.89967	0.43233	0.02033	0.01
Mof_C 	C 	0.85917	0.42583	0.00933	-0.076
Mof_H 	H 	0.84217	0.42873	0.03323	0.047
Mof_C 	C 	0.84527	0.41453	0.96043	-0.008
Mof_H 	H 	0.81817	0.40983	0.95183	0.03
Mof_C 	C 	0.86887	0.41003	0.92563	-0.069
Mof_H 	H 	0.85867	0.40343	0.89333	0.056
Mof_C 	C 	0.90767	0.41523	0.93703	-0.01
Mof_H 	H 	0.92397	0.41103	0.91313	0.036
Mof_C 	C 	0.92317	0.42693	0.98523	-0.075
Mof_H 	H 	0.95027	0.43113	0.99323	0.059
Mof_C 	C 	0.20477	0.70253	0.10783	0.028
Mof_C 	C 	0.20097	0.70303	0.15673	-0.104
Mof_H 	H 	0.19007	0.71893	0.17163	0.062
Mof_C 	C 	0.21337	0.67943	0.18463	0.026
Mof_H 	H 	0.20987	0.67883	0.21893	0.013
Mof_C 	C 	0.22957	0.65823	0.16613	-0.103
Mof_H 	H 	0.23807	0.64303	0.18683	0.063
Mof_C 	C 	0.23447	0.65753	0.11813	0.016
Mof_H 	H 	0.24617	0.64173	0.10453	0.021
Mof_C 	C 	0.22207	0.68083	0.08733	-0.102
Mof_H 	H 	0.22577	0.68123	0.05313	0.056
Mof_C 	C 	0.20627	0.77943	0.09763	-0.005
Mof_C 	C 	0.18157	0.79493	0.11213	-0.076
Mof_H 	H 	0.15187	0.77853	0.10803	0.053
Mof_C 	C 	0.19947	0.83573	0.13343	-0.013
Mof_H 	H 	0.18177	0.84593	0.14493	0.029
Mof_C 	C 	0.24217	0.85993	0.13723	-0.064
Mof_H 	H 	0.25477	0.88863	0.14693	0.047
Mof_C 	C 	0.26687	0.84243	0.12693	-0.017
Mof_H 	H 	0.29607	0.85713	0.13483	0.031
Mof_C 	C 	0.24877	0.80283	0.10483	-0.075
Mof_H 	H 	0.26627	0.79193	0.09463	0.04
Mof_O 	O 	0.80377	0.35813	0.11013	-0.352
Mof_Ag	Ag	0.53587	0.74235	0.4806	0.51
Mof_P 	P 	0.58459	0.7823	0.41505	0.001
Mof_P 	P 	0.85326	0.06299	0.40017	-0.004
Mof_C 	C 	0.66083	0.97417	0.42277	-0.04
Mof_C 	C 	0.63943	0.92687	0.41677	0.053
Mof_C 	C 	0.62593	0.90267	0.45937	-0.086
Mof_H 	H 	0.62813	0.91627	0.48947	0.055
Mof_C 	C 	0.60963	0.85967	0.45887	-0.026
Mof_H 	H 	0.60133	0.84417	0.48837	0.014
Mof_C 	C 	0.60503	0.83867	0.41417	-0.035
Mof_C 	C 	0.61643	0.86207	0.37287	-0.024
Mof_H 	H 	0.61273	0.84887	0.34207	0.041
Mof_C 	C 	0.63403	0.90657	0.37577	-0.09
Mof_H 	H 	0.64213	0.92237	0.34647	0.06
Mof_C 	C 	0.70803	0.99537	0.41687	0.052
Mof_C 	C 	0.73273	0.00707	0.45727	-0.088
Mof_H 	H 	0.72043	0.00237	0.48867	0.056
Mof_C 	C 	0.77693	0.02637	0.45197	-0.021
Mof_H 	H 	0.79363	0.03317	0.48057	0.033
Mof_C 	C 	0.79663	0.03567	0.40837	-0.033
Mof_C 	C 	0.77223	0.02287	0.36817	-0.017
Mof_H 	H 	0.78513	0.02717	0.33717	0.015
Mof_C 	C 	0.72873	0.00337	0.37137	-0.087
Mof_H 	H 	0.71243	0.99537	0.34247	0.058
Mof_C 	C 	0.63083	0.77717	0.41947	-0.001
Mof_C 	C 	0.62593	0.73677	0.41957	-0.085
Mof_H 	H 	0.59863	0.71267	0.41597	0.054
Mof_C 	C 	0.66103	0.73177	0.42487	-0.005
Mof_H 	H 	0.65733	0.70417	0.42657	0.022
Mof_C 	C 	0.70013	0.76537	0.42777	-0.073
Mof_H 	H 	0.72383	0.76147	0.43097	0.046
Mof_C 	C 	0.70573	0.80537	0.42617	-0.007
Mof_H 	H 	0.73343	0.82907	0.42777	0.031
Mof_C 	C 	0.67213	0.81127	0.42237	-0.076
Mof_H 	H 	0.67663	0.83917	0.42157	0.057
Mof_C 	C 	0.56633	0.76567	0.35367	0.01
Mof_C 	C 	0.52583	0.75917	0.34267	-0.075
Mof_H 	H 	0.50883	0.76207	0.36657	0.047
Mof_C 	C 	0.51193	0.74787	0.29377	-0.009
Mof_H 	H 	0.48483	0.74317	0.28517	0.03
Mof_C 	C 	0.53553	0.74337	0.25897	-0.068
Mof_H 	H 	0.52533	0.73677	0.22667	0.056
Mof_C 	C 	0.57433	0.74857	0.27037	-0.01
Mof_H 	H 	0.59063	0.74437	0.24647	0.036
Mof_C 	C 	0.58983	0.76027	0.31857	-0.075
Mof_H 	H 	0.61693	0.76447	0.32657	0.059
Mof_C 	C 	0.87143	0.03587	0.44117	0.028
Mof_C 	C 	0.86763	0.03637	0.49007	-0.103
Mof_H 	H 	0.85673	0.05227	0.50497	0.062
Mof_C 	C 	0.88003	0.01277	0.51797	0.024
Mof_H 	H 	0.87653	0.01217	0.55227	0.014
Mof_C 	C 	0.89623	0.99157	0.49947	-0.101
Mof_H 	H 	0.90473	0.97637	0.52017	0.062
Mof_C 	C 	0.90113	0.99087	0.45147	0.016
Mof_H 	H 	0.91283	0.97507	0.43787	0.021
Mof_C 	C 	0.88873	0.01417	0.42067	-0.102
Mof_H 	H 	0.89243	0.01457	0.38647	0.056
Mof_C 	C 	0.87293	0.11277	0.43097	-0.005
Mof_C 	C 	0.84823	0.12827	0.44547	-0.076
Mof_H 	H 	0.81853	0.11187	0.44137	0.053
Mof_C 	C 	0.86613	0.16907	0.46677	-0.013
Mof_H 	H 	0.84843	0.17927	0.47827	0.029
Mof_C 	C 	0.90883	0.19327	0.47057	-0.064
Mof_H 	H 	0.92143	0.22197	0.48027	0.047
Mof_C 	C 	0.93353	0.17577	0.46027	-0.017
Mof_H 	H 	0.96273	0.19047	0.46817	0.031
Mof_C 	C 	0.91543	0.13617	0.43817	-0.075
Mof_H 	H 	0.93293	0.12527	0.42797	0.04
Mof_O 	O 	0.47043	0.69147	0.44347	-0.352
Mof_Ag	Ag	0.87314	0.79746	0.81393	0.511
Mof_P 	P 	0.86437	0.74874	0.74838	0.001
Mof_P 	P 	0.87639	0.48007	0.7335	-0.004
Mof_C 	C 	0.98	0.6725	0.7561	-0.037
Mof_C 	C 	0.9541	0.6939	0.7501	0.052
Mof_C 	C 	0.9434	0.7074	0.7927	-0.085
Mof_H 	H 	0.9548	0.7052	0.8228	0.054
Mof_C 	C 	0.9167	0.7237	0.7922	-0.026
Mof_H 	H 	0.9095	0.732	0.8217	0.014
Mof_C 	C 	0.9003	0.7283	0.7475	-0.034
Mof_C 	C 	0.9123	0.7169	0.7062	-0.025
Mof_H 	H 	0.9028	0.7206	0.6754	0.041
Mof_C 	C 	0.9392	0.6993	0.7091	-0.089
Mof_H 	H 	0.9469	0.6912	0.6798	0.06
Mof_C 	C 	0.954	0.6253	0.7502	0.048
Mof_C 	C 	0.941	0.6006	0.7906	-0.085
Mof_H 	H 	0.9486	0.6129	0.822	0.055
Mof_C 	C 	0.9161	0.5564	0.7853	-0.023
Mof_H 	H 	0.9062	0.5397	0.8139	0.034
Mof_C 	C 	0.9057	0.5367	0.7417	-0.031
Mof_C 	C 	0.9173	0.5611	0.7015	-0.02
Mof_H 	H 	0.9087	0.5482	0.6705	0.016
Mof_C 	C 	0.9413	0.6046	0.7047	-0.082
Mof_H 	H 	0.9496	0.6209	0.6758	0.056
Mof_C 	C 	0.813	0.7025	0.7528	-0.001
Mof_C 	C 	0.7775	0.7074	0.7529	-0.085
Mof_H 	H 	0.7807	0.7347	0.7493	0.054
Mof_C 	C 	0.7374	0.6723	0.7582	-0.005
Mof_H 	H 	0.7135	0.676	0.7599	0.022
Mof_C 	C 	0.7319	0.6332	0.7611	-0.073
Mof_H 	H 	0.7043	0.6095	0.7643	0.046
Mof_C 	C 	0.7663	0.6276	0.7595	-0.007
Mof_H 	H 	0.7623	0.5999	0.7611	0.031
Mof_C 	C 	0.8058	0.6612	0.7557	-0.076
Mof_H 	H 	0.8292	0.6567	0.7549	0.057
Mof_C 	C 	0.866	0.767	0.687	0.01
Mof_C 	C 	0.9	0.8075	0.676	-0.075
Mof_H 	H 	0.9199	0.8245	0.6999	0.047
Mof_C 	C 	0.9026	0.8214	0.6271	-0.009
Mof_H 	H 	0.925	0.8485	0.6185	0.03
Mof_C 	C 	0.8745	0.7978	0.5923	-0.068
Mof_H 	H 	0.8781	0.808	0.56	0.056
Mof_C 	C 	0.8409	0.759	0.6037	-0.01
Mof_H 	H 	0.8204	0.7427	0.5798	0.036
Mof_C 	C 	0.8371	0.7435	0.6519	-0.075
Mof_H 	H 	0.8142	0.7164	0.6599	0.059
Mof_C 	C 	0.8311	0.4619	0.7745	0.028
Mof_C 	C 	0.8354	0.4657	0.8234	-0.104
Mof_H 	H 	0.8622	0.4766	0.8383	0.062
Mof_C 	C 	0.7994	0.4533	0.8513	0.026
Mof_H 	H 	0.8023	0.4568	0.8856	0.013
Mof_C 	C 	0.762	0.4371	0.8328	-0.103
Mof_H 	H 	0.7383	0.4286	0.8535	0.063
Mof_C 	C 	0.7564	0.4322	0.7848	0.016
Mof_H 	H 	0.7289	0.4205	0.7712	0.021
Mof_C 	C 	0.7921	0.4446	0.754	-0.102
Mof_H 	H 	0.7888	0.4409	0.7198	0.056
Mof_C 	C 	0.9065	0.4604	0.7643	-0.005
Mof_C 	C 	0.9467	0.4851	0.7788	-0.076
Mof_H 	H 	0.96	0.5148	0.7747	0.053
Mof_C 	C 	0.9696	0.4672	0.8001	-0.013
Mof_H 	H 	0.9975	0.4849	0.8116	0.029
Mof_C 	C 	0.9511	0.4245	0.8039	-0.064
Mof_H 	H 	0.9672	0.4119	0.8136	0.047
Mof_C 	C 	0.9089	0.3998	0.7936	-0.017
Mof_H 	H 	0.8944	0.3706	0.8015	0.03
Mof_C 	C 	0.8874	0.4179	0.7715	-0.075
Mof_H 	H 	0.859	0.4004	0.7613	0.04
Mof_O 	O 	0.8877	0.8629	0.7768	-0.352
Mof_Ag	Ag	0.53981	0.13079	0.14726	0.51
Mof_P 	P 	0.53104	0.08207	0.08171	0.002
Mof_P 	P 	0.54306	0.8134	0.06683	-0.004
Mof_C 	C 	0.64667	0.00583	0.08943	-0.04
Mof_C 	C 	0.62077	0.02723	0.08343	0.053
Mof_C 	C 	0.61007	0.04073	0.12603	-0.086
Mof_H 	H 	0.62147	0.03853	0.15613	0.054
Mof_C 	C 	0.58337	0.05703	0.12553	-0.026
Mof_H 	H 	0.57617	0.06533	0.15503	0.014
Mof_C 	C 	0.56697	0.06163	0.08083	-0.035
Mof_C 	C 	0.57897	0.05023	0.03953	-0.024
Mof_H 	H 	0.56947	0.05393	0.00873	0.041
Mof_C 	C 	0.60587	0.03263	0.04243	-0.09
Mof_H 	H 	0.61357	0.02453	0.01313	0.06
Mof_C 	C 	0.62067	0.95863	0.08353	0.05
Mof_C 	C 	0.60767	0.93393	0.12393	-0.086
Mof_H 	H 	0.61527	0.94623	0.15533	0.055
Mof_C 	C 	0.58277	0.88973	0.11863	-0.022
Mof_H 	H 	0.57287	0.87303	0.14723	0.034
Mof_C 	C 	0.57237	0.87003	0.07503	-0.032
Mof_C 	C 	0.58397	0.89443	0.03483	-0.019
Mof_H 	H 	0.57537	0.88153	0.00383	0.016
Mof_C 	C 	0.60797	0.93793	0.03803	-0.083
Mof_H 	H 	0.61627	0.95423	0.00913	0.056
Mof_C 	C 	0.47967	0.03583	0.08613	-0.003
Mof_C 	C 	0.44417	0.04073	0.08623	-0.083
Mof_H 	H 	0.44737	0.06803	0.08263	0.053
Mof_C 	C 	0.40407	0.00563	0.09153	-0.009
Mof_H 	H 	0.38017	0.00933	0.09323	0.023
Mof_C 	C 	0.39857	0.96653	0.09443	-0.069
Mof_H 	H 	0.37097	0.94283	0.09763	0.045
Mof_C 	C 	0.43297	0.96093	0.09283	-0.01
Mof_H 	H 	0.42897	0.93323	0.09443	0.032
Mof_C 	C 	0.47247	0.99453	0.08903	-0.073
Mof_H 	H 	0.49587	0.99003	0.08823	0.056
Mof_C 	C 	0.53267	0.10033	0.02033	0.01
Mof_C 	C 	0.56667	0.14083	0.00933	-0.075
Mof_H 	H 	0.58657	0.15783	0.03323	0.047
Mof_C 	C 	0.56927	0.15473	0.96043	-0.009
Mof_H 	H 	0.59167	0.18183	0.95183	0.03
Mof_C 	C 	0.54117	0.13113	0.92563	-0.068
Mof_H 	H 	0.54477	0.14133	0.89333	0.056
Mof_C 	C 	0.50757	0.09233	0.93703	-0.01
Mof_H 	H 	0.48707	0.07603	0.91313	0.036
Mof_C 	C 	0.50377	0.07683	0.98523	-0.075
Mof_H 	H 	0.48087	0.04973	0.99323	0.059
Mof_C 	C 	0.49777	0.79523	0.10783	0.028
Mof_C 	C 	0.50207	0.79903	0.15673	-0.104
Mof_H 	H 	0.52887	0.80993	0.17163	0.062
Mof_C 	C 	0.46607	0.78663	0.18463	0.026
Mof_H 	H 	0.46897	0.79013	0.21893	0.013
Mof_C 	C 	0.42867	0.77043	0.16613	-0.103
Mof_H 	H 	0.40497	0.76193	0.18683	0.063
Mof_C 	C 	0.42307	0.76553	0.11813	0.016
Mof_H 	H 	0.39557	0.75383	0.10453	0.021
Mof_C 	C 	0.45877	0.77793	0.08733	-0.102
Mof_H 	H 	0.45547	0.77423	0.05313	0.056
Mof_C 	C 	0.57317	0.79373	0.09763	-0.005
Mof_C 	C 	0.61337	0.81843	0.11213	-0.076
Mof_H 	H 	0.62667	0.84813	0.10803	0.053
Mof_C 	C 	0.63627	0.80053	0.13343	-0.013
Mof_H 	H 	0.66417	0.81823	0.14493	0.029
Mof_C 	C 	0.61777	0.75783	0.13723	-0.064
Mof_H 	H 	0.63387	0.74523	0.14693	0.047
Mof_C 	C 	0.57557	0.73313	0.12693	-0.017
Mof_H 	H 	0.56107	0.70393	0.13483	0.03
Mof_C 	C 	0.55407	0.75123	0.10483	-0.075
Mof_H 	H 	0.52567	0.73373	0.09463	0.04
Mof_O 	O 	0.55437	0.19623	0.11013	-0.352
Mof_Ag	Ag	0.20647	0.46413	0.4806	0.51
Mof_P 	P 	0.1977	0.41541	0.41505	0.001
Mof_P 	P 	0.20972	0.14674	0.40017	-0.004
Mof_C 	C 	0.31333	0.33917	0.42277	-0.039
Mof_C 	C 	0.28743	0.36057	0.41677	0.052
Mof_C 	C 	0.27673	0.37407	0.45937	-0.086
Mof_H 	H 	0.28813	0.37187	0.48947	0.054
Mof_C 	C 	0.25003	0.39037	0.45887	-0.026
Mof_H 	H 	0.24283	0.39867	0.48837	0.014
Mof_C 	C 	0.23363	0.39497	0.41417	-0.034
Mof_C 	C 	0.24563	0.38357	0.37287	-0.025
Mof_H 	H 	0.23613	0.38727	0.34207	0.041
Mof_C 	C 	0.27253	0.36597	0.37577	-0.09
Mof_H 	H 	0.28023	0.35787	0.34647	0.06
Mof_C 	C 	0.28733	0.29197	0.41687	0.048
Mof_C 	C 	0.27433	0.26727	0.45727	-0.085
Mof_H 	H 	0.28193	0.27957	0.48867	0.055
Mof_C 	C 	0.24943	0.22307	0.45197	-0.023
Mof_H 	H 	0.23953	0.20637	0.48057	0.034
Mof_C 	C 	0.23903	0.20337	0.40837	-0.031
Mof_C 	C 	0.25063	0.22777	0.36817	-0.02
Mof_H 	H 	0.24203	0.21487	0.33717	0.016
Mof_C 	C 	0.27463	0.27127	0.37137	-0.082
Mof_H 	H 	0.28293	0.28757	0.34247	0.056
Mof_C 	C 	0.14633	0.36917	0.41947	-0.001
Mof_C 	C 	0.11083	0.37407	0.41957	-0.085
Mof_H 	H 	0.11403	0.40137	0.41597	0.054
Mof_C 	C 	0.07073	0.33897	0.42487	-0.005
Mof_H 	H 	0.04683	0.34267	0.42657	0.022
Mof_C 	C 	0.06523	0.29987	0.42777	-0.073
Mof_H 	H 	0.03763	0.27617	0.43097	0.046
Mof_C 	C 	0.09963	0.29427	0.42617	-0.007
Mof_H 	H 	0.09563	0.26657	0.42777	0.031
Mof_C 	C 	0.13913	0.32787	0.42237	-0.076
Mof_H 	H 	0.16253	0.32337	0.42157	0.057
Mof_C 	C 	0.19933	0.43367	0.35367	0.01
Mof_C 	C 	0.23333	0.47417	0.34267	-0.075
Mof_H 	H 	0.25323	0.49117	0.36657	0.047
Mof_C 	C 	0.23593	0.48807	0.29377	-0.009
Mof_H 	H 	0.25833	0.51517	0.28517	0.03
Mof_C 	C 	0.20783	0.46447	0.25897	-0.068
Mof_H 	H 	0.21143	0.47467	0.22667	0.056
Mof_C 	C 	0.17423	0.42567	0.27037	-0.01
Mof_H 	H 	0.15373	0.40937	0.24647	0.036
Mof_C 	C 	0.17043	0.41017	0.31857	-0.075
Mof_H 	H 	0.14753	0.38307	0.32657	0.059
Mof_C 	C 	0.16443	0.12857	0.44117	0.028
Mof_C 	C 	0.16873	0.13237	0.49007	-0.104
Mof_H 	H 	0.19553	0.14327	0.50497	0.062
Mof_C 	C 	0.13273	0.11997	0.51797	0.026
Mof_H 	H 	0.13563	0.12347	0.55227	0.013
Mof_C 	C 	0.09533	0.10377	0.49947	-0.103
Mof_H 	H 	0.07163	0.09527	0.52017	0.063
Mof_C 	C 	0.08973	0.09887	0.45147	0.016
Mof_H 	H 	0.06223	0.08717	0.43787	0.02
Mof_C 	C 	0.12543	0.11127	0.42067	-0.102
Mof_H 	H 	0.12213	0.10757	0.38647	0.056
Mof_C 	C 	0.23983	0.12707	0.43097	-0.005
Mof_C 	C 	0.28003	0.15177	0.44547	-0.076
Mof_H 	H 	0.29333	0.18147	0.44137	0.053
Mof_C 	C 	0.30293	0.13387	0.46677	-0.013
Mof_H 	H 	0.33083	0.15157	0.47827	0.029
Mof_C 	C 	0.28443	0.09117	0.47057	-0.064
Mof_H 	H 	0.30053	0.07857	0.48027	0.047
Mof_C 	C 	0.24223	0.06647	0.46027	-0.017
Mof_H 	H 	0.22773	0.03727	0.46817	0.03
Mof_C 	C 	0.22073	0.08457	0.43817	-0.075
Mof_H 	H 	0.19233	0.06707	0.42797	0.04
Mof_O 	O 	0.22103	0.52957	0.44347	-0.352
Mof_Ag	Ag	0.92432	0.12686	0.81393	0.511
Mof_P 	P 	0.88437	0.13563	0.74838	0.001
Mof_P 	P 	0.60368	0.12361	0.7335	-0.004
Mof_C 	C 	0.6925	0.02	0.7561	-0.04
Mof_C 	C 	0.7398	0.0459	0.7501	0.053
Mof_C 	C 	0.764	0.0566	0.7927	-0.086
Mof_H 	H 	0.7504	0.0452	0.8228	0.054
Mof_C 	C 	0.807	0.0833	0.7922	-0.026
Mof_H 	H 	0.8225	0.0905	0.8217	0.014
Mof_C 	C 	0.828	0.0997	0.7475	-0.035
Mof_C 	C 	0.8046	0.0877	0.7062	-0.024
Mof_H 	H 	0.8178	0.0972	0.6754	0.041
Mof_C 	C 	0.7601	0.0608	0.7091	-0.09
Mof_H 	H 	0.7443	0.0531	0.6798	0.06
Mof_C 	C 	0.6713	0.046	0.7502	0.048
Mof_C 	C 	0.6596	0.059	0.7906	-0.085
Mof_H 	H 	0.6643	0.0514	0.822	0.055
Mof_C 	C 	0.6403	0.0839	0.7853	-0.023
Mof_H 	H 	0.6335	0.0938	0.8139	0.034
Mof_C 	C 	0.631	0.0943	0.7417	-0.032
Mof_C 	C 	0.6438	0.0827	0.7015	-0.02
Mof_H 	H 	0.6395	0.0913	0.6705	0.016
Mof_C 	C 	0.6633	0.0587	0.7047	-0.083
Mof_H 	H 	0.6713	0.0504	0.6758	0.056
Mof_C 	C 	0.8895	0.187	0.7528	-0.001
Mof_C 	C 	0.9299	0.2225	0.7529	-0.085
Mof_H 	H 	0.954	0.2193	0.7493	0.054
Mof_C 	C 	0.9349	0.2626	0.7582	-0.005
Mof_H 	H 	0.9625	0.2865	0.7599	0.022
Mof_C 	C 	0.9013	0.2681	0.7611	-0.073
Mof_H 	H 	0.9052	0.2957	0.7643	0.046
Mof_C 	C 	0.8613	0.2337	0.7595	-0.007
Mof_H 	H 	0.8376	0.2377	0.7611	0.031
Mof_C 	C 	0.8554	0.1942	0.7557	-0.076
Mof_H 	H 	0.8275	0.1708	0.7549	0.057
Mof_C 	C 	0.901	0.134	0.687	0.01
Mof_C 	C 	0.9075	0.1	0.676	-0.075
Mof_H 	H 	0.9046	0.0801	0.6999	0.047
Mof_C 	C 	0.9188	0.0974	0.6271	-0.009
Mof_H 	H 	0.9235	0.075	0.6185	0.03
Mof_C 	C 	0.9233	0.1255	0.5923	-0.068
Mof_H 	H 	0.9299	0.1219	0.56	0.056
Mof_C 	C 	0.9181	0.1591	0.6037	-0.01
Mof_H 	H 	0.9223	0.1796	0.5798	0.036
Mof_C 	C 	0.9064	0.1629	0.6519	-0.075
Mof_H 	H 	0.9022	0.1858	0.6599	0.059
Mof_C 	C 	0.6308	0.1689	0.7745	0.028
Mof_C 	C 	0.6303	0.1646	0.8234	-0.104
Mof_H 	H 	0.6144	0.1378	0.8383	0.062
Mof_C 	C 	0.6539	0.2006	0.8513	0.026
Mof_H 	H 	0.6545	0.1977	0.8856	0.013
Mof_C 	C 	0.6751	0.238	0.8328	-0.103
Mof_H 	H 	0.6903	0.2617	0.8535	0.063
Mof_C 	C 	0.6758	0.2436	0.7848	0.016
Mof_H 	H 	0.6916	0.2711	0.7712	0.021
Mof_C 	C 	0.6525	0.2079	0.754	-0.102
Mof_H 	H 	0.6521	0.2112	0.7198	0.056
Mof_C 	C 	0.5539	0.0935	0.7643	-0.005
Mof_C 	C 	0.5384	0.0533	0.7788	-0.076
Mof_H 	H 	0.5548	0.04	0.7747	0.053
Mof_C 	C 	0.4976	0.0304	0.8001	-0.013
Mof_H 	H 	0.4874	0.0025	0.8116	0.029
Mof_C 	C 	0.4734	0.0489	0.8039	-0.064
Mof_H 	H 	0.4447	0.0328	0.8136	0.047
Mof_C 	C 	0.4909	0.0911	0.7936	-0.017
Mof_H 	H 	0.4762	0.1056	0.8015	0.03
Mof_C 	C 	0.5305	0.1126	0.7715	-0.075
Mof_H 	H 	0.5414	0.141	0.7613	0.04
Mof_O 	O 	0.9752	0.1123	0.7768	-0.351
Mof_Ag	Ag	0.59099	0.46019	0.14726	0.51
Mof_P 	P 	0.55104	0.46896	0.08171	0.001
Mof_P 	P 	0.27035	0.45694	0.06683	-0.004
Mof_C 	C 	0.35917	0.35333	0.08943	-0.039
Mof_C 	C 	0.40647	0.37923	0.08343	0.052
Mof_C 	C 	0.43067	0.38993	0.12603	-0.086
Mof_H 	H 	0.41707	0.37853	0.15613	0.054
Mof_C 	C 	0.47367	0.41663	0.12553	-0.026
Mof_H 	H 	0.48917	0.42383	0.15503	0.014
Mof_C 	C 	0.49467	0.43303	0.08083	-0.034
Mof_C 	C 	0.47127	0.42103	0.03953	-0.025
Mof_H 	H 	0.48447	0.43053	0.00873	0.041
Mof_C 	C 	0.42677	0.39413	0.04243	-0.09
Mof_H 	H 	0.41097	0.38643	0.01313	0.06
Mof_C 	C 	0.33797	0.37933	0.08353	0.048
Mof_C 	C 	0.32627	0.39233	0.12393	-0.085
Mof_H 	H 	0.33097	0.38473	0.15533	0.055
Mof_C 	C 	0.30697	0.41723	0.11863	-0.023
Mof_H 	H 	0.30017	0.42713	0.14723	0.034
Mof_C 	C 	0.29767	0.42763	0.07503	-0.031
Mof_C 	C 	0.31047	0.41603	0.03483	-0.02
Mof_H 	H 	0.30617	0.42463	0.00383	0.016
Mof_C 	C 	0.32997	0.39203	0.03803	-0.082
Mof_H 	H 	0.33797	0.38373	0.00913	0.056
Mof_C 	C 	0.55617	0.52033	0.08613	-0.001
Mof_C 	C 	0.59657	0.55583	0.08623	-0.085
Mof_H 	H 	0.62067	0.55263	0.08263	0.054
Mof_C 	C 	0.60157	0.59593	0.09153	-0.005
Mof_H 	H 	0.62917	0.61983	0.09323	0.022
Mof_C 	C 	0.56797	0.60143	0.09443	-0.073
Mof_H 	H 	0.57187	0.62903	0.09763	0.046
Mof_C 	C 	0.52797	0.56703	0.09283	-0.007
Mof_H 	H 	0.50427	0.57103	0.09443	0.031
Mof_C 	C 	0.52207	0.52753	0.08903	-0.076
Mof_H 	H 	0.49417	0.50413	0.08823	0.057
Mof_C 	C 	0.56767	0.46733	0.02033	0.01
Mof_C 	C 	0.57417	0.43333	0.00933	-0.075
Mof_H 	H 	0.57127	0.41343	0.03323	0.047
Mof_C 	C 	0.58547	0.43073	0.96043	-0.009
Mof_H 	H 	0.59017	0.40833	0.95183	0.03
Mof_C 	C 	0.58997	0.45883	0.92563	-0.068
Mof_H 	H 	0.59657	0.45523	0.89333	0.056
Mof_C 	C 	0.58477	0.49243	0.93703	-0.01
Mof_H 	H 	0.58897	0.51293	0.91313	0.036
Mof_C 	C 	0.57307	0.49623	0.98523	-0.075
Mof_H 	H 	0.56887	0.51913	0.99323	0.059
Mof_C 	C 	0.29747	0.50223	0.10783	0.028
Mof_C 	C 	0.29697	0.49793	0.15673	-0.104
Mof_H 	H 	0.28107	0.47113	0.17163	0.062
Mof_C 	C 	0.32057	0.53393	0.18463	0.026
Mof_H 	H 	0.32117	0.53103	0.21893	0.013
Mof_C 	C 	0.34177	0.57133	0.16613	-0.103
Mof_H 	H 	0.35697	0.59503	0.18683	0.063
Mof_C 	C 	0.34247	0.57693	0.11813	0.016
Mof_H 	H 	0.35827	0.60443	0.10453	0.021
Mof_C 	C 	0.31917	0.54123	0.08733	-0.102
Mof_H 	H 	0.31877	0.54453	0.05313	0.056
Mof_C 	C 	0.22057	0.42683	0.09763	-0.005
Mof_C 	C 	0.20507	0.38663	0.11213	-0.076
Mof_H 	H 	0.22147	0.37333	0.10803	0.053
Mof_C 	C 	0.16427	0.36373	0.13343	-0.013
Mof_H 	H 	0.15407	0.33583	0.14493	0.029
Mof_C 	C 	0.14007	0.38223	0.13723	-0.064
Mof_H 	H 	0.11137	0.36613	0.14693	0.047
Mof_C 	C 	0.15757	0.42443	0.12693	-0.017
Mof_H 	H 	0.14287	0.43893	0.13483	0.03
Mof_C 	C 	0.19717	0.44593	0.10483	-0.075
Mof_H 	H 	0.20807	0.47433	0.09463	0.04
Mof_O 	O 	0.64187	0.44563	0.11013	-0.352
Mof_Ag	Ag	0.25765	0.79353	0.4806	0.51
Mof_P 	P 	0.2177	0.8023	0.41505	0.001
Mof_P 	P 	0.93701	0.79028	0.40017	-0.005
Mof_C 	C 	0.02583	0.68667	0.42277	-0.037
Mof_C 	C 	0.07313	0.71257	0.41677	0.052
Mof_C 	C 	0.09733	0.72327	0.45937	-0.085
Mof_H 	H 	0.08373	0.71187	0.48947	0.054
Mof_C 	C 	0.14033	0.74997	0.45887	-0.027
Mof_H 	H 	0.15583	0.75717	0.48837	0.014
Mof_C 	C 	0.16133	0.76637	0.41417	-0.034
Mof_C 	C 	0.13793	0.75437	0.37287	-0.025
Mof_H 	H 	0.15113	0.76387	0.34207	0.041
Mof_C 	C 	0.09343	0.72747	0.37577	-0.089
Mof_H 	H 	0.07763	0.71977	0.34647	0.06
Mof_C 	C 	0.00463	0.71267	0.41687	0.045
Mof_C 	C 	0.99293	0.72567	0.45727	-0.082
Mof_H 	H 	0.99763	0.71807	0.48867	0.054
Mof_C 	C 	0.97363	0.75057	0.45197	-0.025
Mof_H 	H 	0.96683	0.76047	0.48057	0.034
Mof_C 	C 	0.96433	0.76097	0.40837	-0.03
Mof_C 	C 	0.97713	0.74937	0.36817	-0.023
Mof_H 	H 	0.97283	0.75797	0.33717	0.017
Mof_C 	C 	0.99663	0.72537	0.37137	-0.078
Mof_H 	H 	0.00463	0.71707	0.34247	0.054
Mof_C 	C 	0.22283	0.85367	0.41947	-0.001
Mof_C 	C 	0.26323	0.88917	0.41957	-0.085
Mof_H 	H 	0.28733	0.88597	0.41597	0.054
Mof_C 	C 	0.26823	0.92927	0.42487	-0.005
Mof_H 	H 	0.29583	0.95317	0.42657	0.022
Mof_C 	C 	0.23463	0.93477	0.42777	-0.073
Mof_H 	H 	0.23853	0.96237	0.43097	0.046
Mof_C 	C 	0.19463	0.90037	0.42617	-0.007
Mof_H 	H 	0.17093	0.90437	0.42777	0.031
Mof_C 	C 	0.18873	0.86087	0.42237	-0.076
Mof_H 	H 	0.16083	0.83747	0.42157	0.057
Mof_C 	C 	0.23433	0.80067	0.35367	0.01
Mof_C 	C 	0.24083	0.76667	0.34267	-0.075
Mof_H 	H 	0.23793	0.74677	0.36657	0.047
Mof_C 	C 	0.25213	0.76407	0.29377	-0.009
Mof_H 	H 	0.25683	0.74167	0.28517	0.03
Mof_C 	C 	0.25663	0.79217	0.25897	-0.068
Mof_H 	H 	0.26323	0.78857	0.22667	0.056
Mof_C 	C 	0.25143	0.82577	0.27037	-0.01
Mof_H 	H 	0.25563	0.84627	0.24647	0.036
Mof_C 	C 	0.23973	0.82957	0.31857	-0.075
Mof_H 	H 	0.23553	0.85247	0.32657	0.059
Mof_C 	C 	0.96413	0.83557	0.44117	0.029
Mof_C 	C 	0.96363	0.83127	0.49007	-0.105
Mof_H 	H 	0.94773	0.80447	0.50497	0.062
Mof_C 	C 	0.98723	0.86727	0.51797	0.028
Mof_H 	H 	0.98783	0.86437	0.55227	0.013
Mof_C 	C 	0.00843	0.90467	0.49947	-0.105
Mof_H 	H 	0.02363	0.92837	0.52017	0.063
Mof_C 	C 	0.00913	0.91027	0.45147	0.016
Mof_H 	H 	0.02493	0.93777	0.43787	0.02
Mof_C 	C 	0.98583	0.87457	0.42067	-0.101
Mof_H 	H 	0.98543	0.87787	0.38647	0.056
Mof_C 	C 	0.88723	0.76017	0.43097	-0.005
Mof_C 	C 	0.87173	0.71997	0.44547	-0.076
Mof_H 	H 	0.88813	0.70667	0.44137	0.053
Mof_C 	C 	0.83093	0.69707	0.46677	-0.013
Mof_H 	H 	0.82073	0.66917	0.47827	0.029
Mof_C 	C 	0.80673	0.71557	0.47057	-0.064
Mof_H 	H 	0.77803	0.69947	0.48027	0.047
Mof_C 	C 	0.82423	0.75777	0.46027	-0.017
Mof_H 	H 	0.80953	0.77227	0.46817	0.03
Mof_C 	C 	0.86383	0.77927	0.43817	-0.075
Mof_H 	H 	0.87473	0.80767	0.42797	0.04
Mof_O 	O 	0.30853	0.77897	0.44347	-0.352
Mof_Ag	Ag	0.92432	0.79746	0.31393	0.511
Mof_P 	P 	0.88437	0.74874	0.24838	0.001
Mof_P 	P 	0.60368	0.48007	0.2335	-0.004
Mof_C 	C 	0.6925	0.6725	0.2561	-0.039
Mof_C 	C 	0.7398	0.6939	0.2501	0.052
Mof_C 	C 	0.764	0.7074	0.2927	-0.086
Mof_H 	H 	0.7504	0.7052	0.3228	0.054
Mof_C 	C 	0.807	0.7237	0.2922	-0.026
Mof_H 	H 	0.8225	0.732	0.3217	0.014
Mof_C 	C 	0.828	0.7283	0.2475	-0.034
Mof_C 	C 	0.8046	0.7169	0.2062	-0.025
Mof_H 	H 	0.8178	0.7206	0.1754	0.041
Mof_C 	C 	0.7601	0.6993	0.2091	-0.09
Mof_H 	H 	0.7443	0.6912	0.1798	0.06
Mof_C 	C 	0.6713	0.6253	0.2502	0.048
Mof_C 	C 	0.6596	0.6006	0.2906	-0.085
Mof_H 	H 	0.6643	0.6129	0.322	0.055
Mof_C 	C 	0.6403	0.5564	0.2853	-0.023
Mof_H 	H 	0.6335	0.5397	0.3139	0.034
Mof_C 	C 	0.631	0.5367	0.2417	-0.031
Mof_C 	C 	0.6438	0.5611	0.2015	-0.02
Mof_H 	H 	0.6395	0.5482	0.1705	0.016
Mof_C 	C 	0.6633	0.6046	0.2047	-0.082
Mof_H 	H 	0.6713	0.6209	0.1758	0.056
Mof_C 	C 	0.8895	0.7025	0.2528	-0.001
Mof_C 	C 	0.9299	0.7074	0.2529	-0.085
Mof_H 	H 	0.954	0.7347	0.2493	0.054
Mof_C 	C 	0.9349	0.6723	0.2582	-0.005
Mof_H 	H 	0.9625	0.676	0.2599	0.022
Mof_C 	C 	0.9013	0.6332	0.2611	-0.073
Mof_H 	H 	0.9052	0.6095	0.2643	0.046
Mof_C 	C 	0.8613	0.6276	0.2595	-0.007
Mof_H 	H 	0.8376	0.5999	0.2611	0.031
Mof_C 	C 	0.8554	0.6612	0.2557	-0.076
Mof_H 	H 	0.8275	0.6567	0.2549	0.057
Mof_C 	C 	0.901	0.767	0.187	0.01
Mof_C 	C 	0.9075	0.8075	0.176	-0.075
Mof_H 	H 	0.9046	0.8245	0.1999	0.047
Mof_C 	C 	0.9188	0.8214	0.1271	-0.009
Mof_H 	H 	0.9235	0.8485	0.1185	0.03
Mof_C 	C 	0.9233	0.7978	0.0923	-0.068
Mof_H 	H 	0.9299	0.808	0.06	0.056
Mof_C 	C 	0.9181	0.759	0.1037	-0.01
Mof_H 	H 	0.9223	0.7427	0.0798	0.036
Mof_C 	C 	0.9064	0.7435	0.1519	-0.075
Mof_H 	H 	0.9022	0.7164	0.1599	0.059
Mof_C 	C 	0.6308	0.4619	0.2745	0.028
Mof_C 	C 	0.6303	0.4657	0.3234	-0.104
Mof_H 	H 	0.6144	0.4766	0.3383	0.062
Mof_C 	C 	0.6539	0.4533	0.3513	0.026
Mof_H 	H 	0.6545	0.4568	0.3856	0.013
Mof_C 	C 	0.6751	0.4371	0.3328	-0.103
Mof_H 	H 	0.6903	0.4286	0.3535	0.063
Mof_C 	C 	0.6758	0.4322	0.2848	0.016
Mof_H 	H 	0.6916	0.4205	0.2712	0.021
Mof_C 	C 	0.6525	0.4446	0.254	-0.102
Mof_H 	H 	0.6521	0.4409	0.2198	0.056
Mof_C 	C 	0.5539	0.4604	0.2643	-0.005
Mof_C 	C 	0.5384	0.4851	0.2788	-0.076
Mof_H 	H 	0.5548	0.5148	0.2747	0.053
Mof_C 	C 	0.4976	0.4672	0.3001	-0.013
Mof_H 	H 	0.4874	0.4849	0.3116	0.029
Mof_C 	C 	0.4734	0.4245	0.3039	-0.064
Mof_H 	H 	0.4447	0.4119	0.3136	0.047
Mof_C 	C 	0.4909	0.3998	0.2936	-0.017
Mof_H 	H 	0.4762	0.3706	0.3015	0.03
Mof_C 	C 	0.5305	0.4179	0.2715	-0.075
Mof_H 	H 	0.5414	0.4004	0.2613	0.04
Mof_O 	O 	0.9752	0.8629	0.2768	-0.351
Mof_Ag	Ag	0.59099	0.13079	0.64726	0.51
Mof_P 	P 	0.55104	0.08207	0.58171	0.002
Mof_P 	P 	0.27035	0.8134	0.56683	-0.004
Mof_C 	C 	0.35917	0.00583	0.58943	-0.04
Mof_C 	C 	0.40647	0.02723	0.58343	0.053
Mof_C 	C 	0.43067	0.04073	0.62603	-0.086
Mof_H 	H 	0.41707	0.03853	0.65613	0.054
Mof_C 	C 	0.47367	0.05703	0.62553	-0.026
Mof_H 	H 	0.48917	0.06533	0.65503	0.014
Mof_C 	C 	0.49467	0.06163	0.58083	-0.035
Mof_C 	C 	0.47127	0.05023	0.53953	-0.024
Mof_H 	H 	0.48447	0.05393	0.50873	0.041
Mof_C 	C 	0.42677	0.03263	0.54243	-0.09
Mof_H 	H 	0.41097	0.02453	0.51313	0.06
Mof_C 	C 	0.33797	0.95863	0.58353	0.049
Mof_C 	C 	0.32627	0.93393	0.62393	-0.086
Mof_H 	H 	0.33097	0.94623	0.65533	0.055
Mof_C 	C 	0.30697	0.88973	0.61863	-0.022
Mof_H 	H 	0.30017	0.87303	0.64723	0.034
Mof_C 	C 	0.29767	0.87003	0.57503	-0.032
Mof_C 	C 	0.31047	0.89443	0.53483	-0.02
Mof_H 	H 	0.30617	0.88153	0.50383	0.016
Mof_C 	C 	0.32997	0.93793	0.53803	-0.083
Mof_H 	H 	0.33797	0.95423	0.50913	0.056
Mof_C 	C 	0.55617	0.03583	0.58613	-0.003
Mof_C 	C 	0.59657	0.04073	0.58623	-0.083
Mof_H 	H 	0.62067	0.06803	0.58263	0.053
Mof_C 	C 	0.60157	0.00563	0.59153	-0.008
Mof_H 	H 	0.62917	0.00933	0.59323	0.023
Mof_C 	C 	0.56797	0.96653	0.59443	-0.07
Mof_H 	H 	0.57187	0.94283	0.59763	0.045
Mof_C 	C 	0.52797	0.96093	0.59283	-0.01
Mof_H 	H 	0.50427	0.93323	0.59443	0.032
Mof_C 	C 	0.52207	0.99453	0.58903	-0.074
Mof_H 	H 	0.49417	0.99003	0.58823	0.056
Mof_C 	C 	0.56767	0.10033	0.52033	0.01
Mof_C 	C 	0.57417	0.14083	0.50933	-0.075
Mof_H 	H 	0.57127	0.15783	0.53323	0.047
Mof_C 	C 	0.58547	0.15473	0.46043	-0.009
Mof_H 	H 	0.59017	0.18183	0.45183	0.03
Mof_C 	C 	0.58997	0.13113	0.42563	-0.068
Mof_H 	H 	0.59657	0.14133	0.39333	0.056
Mof_C 	C 	0.58477	0.09233	0.43703	-0.01
Mof_H 	H 	0.58897	0.07603	0.41313	0.036
Mof_C 	C 	0.57307	0.07683	0.48523	-0.075
Mof_H 	H 	0.56887	0.04973	0.49323	0.059
Mof_C 	C 	0.29747	0.79523	0.60783	0.028
Mof_C 	C 	0.29697	0.79903	0.65673	-0.104
Mof_H 	H 	0.28107	0.80993	0.67163	0.062
Mof_C 	C 	0.32057	0.78663	0.68463	0.026
Mof_H 	H 	0.32117	0.79013	0.71893	0.013
Mof_C 	C 	0.34177	0.77043	0.66613	-0.103
Mof_H 	H 	0.35697	0.76193	0.68683	0.063
Mof_C 	C 	0.34247	0.76553	0.61813	0.016
Mof_H 	H 	0.35827	0.75383	0.60453	0.021
Mof_C 	C 	0.31917	0.77793	0.58733	-0.102
Mof_H 	H 	0.31877	0.77423	0.55313	0.056
Mof_C 	C 	0.22057	0.79373	0.59763	-0.005
Mof_C 	C 	0.20507	0.81843	0.61213	-0.076
Mof_H 	H 	0.22147	0.84813	0.60803	0.053
Mof_C 	C 	0.16427	0.80053	0.63343	-0.013
Mof_H 	H 	0.15407	0.81823	0.64493	0.029
Mof_C 	C 	0.14007	0.75783	0.63723	-0.064
Mof_H 	H 	0.11137	0.74523	0.64693	0.047
Mof_C 	C 	0.15757	0.73313	0.62693	-0.017
Mof_H 	H 	0.14287	0.70393	0.63483	0.03
Mof_C 	C 	0.19717	0.75123	0.60483	-0.075
Mof_H 	H 	0.20807	0.73373	0.59463	0.04
Mof_O 	O 	0.64187	0.19623	0.61013	-0.352
Mof_Ag	Ag	0.25765	0.46413	0.9806	0.511
Mof_P 	P 	0.2177	0.41541	0.91505	0.001
Mof_P 	P 	0.93701	0.14674	0.90017	-0.005
Mof_C 	C 	0.02583	0.33917	0.92277	-0.037
Mof_C 	C 	0.07313	0.36057	0.91677	0.051
Mof_C 	C 	0.09733	0.37407	0.95937	-0.085
Mof_H 	H 	0.08373	0.37187	0.98947	0.054
Mof_C 	C 	0.14033	0.39037	0.95887	-0.027
Mof_H 	H 	0.15583	0.39867	0.98837	0.014
Mof_C 	C 	0.16133	0.39497	0.91417	-0.034
Mof_C 	C 	0.13793	0.38357	0.87287	-0.025
Mof_H 	H 	0.15113	0.38727	0.84207	0.041
Mof_C 	C 	0.09343	0.36597	0.87577	-0.089
Mof_H 	H 	0.07763	0.35787	0.84647	0.06
Mof_C 	C 	0.00463	0.29197	0.91687	0.044
Mof_C 	C 	0.99293	0.26727	0.95727	-0.082
Mof_H 	H 	0.99763	0.27957	0.98867	0.054
Mof_C 	C 	0.97363	0.22307	0.95197	-0.025
Mof_H 	H 	0.96683	0.20637	0.98057	0.035
Mof_C 	C 	0.96433	0.20337	0.90837	-0.03
Mof_C 	C 	0.97713	0.22777	0.86817	-0.023
Mof_H 	H 	0.97283	0.21487	0.83717	0.017
Mof_C 	C 	0.99663	0.27127	0.87137	-0.078
Mof_H 	H 	0.00463	0.28757	0.84247	0.054
Mof_C 	C 	0.22283	0.36917	0.91947	-0.001
Mof_C 	C 	0.26323	0.37407	0.91957	-0.085
Mof_H 	H 	0.28733	0.40137	0.91597	0.054
Mof_C 	C 	0.26823	0.33897	0.92487	-0.005
Mof_H 	H 	0.29583	0.34267	0.92657	0.022
Mof_C 	C 	0.23463	0.29987	0.92777	-0.073
Mof_H 	H 	0.23853	0.27617	0.93097	0.046
Mof_C 	C 	0.19463	0.29427	0.92617	-0.007
Mof_H 	H 	0.17093	0.26657	0.92777	0.031
Mof_C 	C 	0.18873	0.32787	0.92237	-0.076
Mof_H 	H 	0.16083	0.32337	0.92157	0.057
Mof_C 	C 	0.23433	0.43367	0.85367	0.01
Mof_C 	C 	0.24083	0.47417	0.84267	-0.075
Mof_H 	H 	0.23793	0.49117	0.86657	0.047
Mof_C 	C 	0.25213	0.48807	0.79377	-0.009
Mof_H 	H 	0.25683	0.51517	0.78517	0.03
Mof_C 	C 	0.25663	0.46447	0.75897	-0.068
Mof_H 	H 	0.26323	0.47467	0.72667	0.056
Mof_C 	C 	0.25143	0.42567	0.77037	-0.01
Mof_H 	H 	0.25563	0.40937	0.74647	0.036
Mof_C 	C 	0.23973	0.41017	0.81857	-0.075
Mof_H 	H 	0.23553	0.38307	0.82657	0.059
Mof_C 	C 	0.96413	0.12857	0.94117	0.028
Mof_C 	C 	0.96363	0.13237	0.99007	-0.103
Mof_H 	H 	0.94773	0.14327	0.00497	0.062
Mof_C 	C 	0.98723	0.11997	0.01797	0.026
Mof_H 	H 	0.98783	0.12347	0.05227	0.014
Mof_C 	C 	0.00843	0.10377	0.99947	-0.103
Mof_H 	H 	0.02363	0.09527	0.02017	0.062
Mof_C 	C 	0.00913	0.09887	0.95147	0.014
Mof_H 	H 	0.02493	0.08717	0.93787	0.021
Mof_C 	C 	0.98583	0.11127	0.92067	-0.1
Mof_H 	H 	0.98543	0.10757	0.88647	0.056
Mof_C 	C 	0.88723	0.12707	0.93097	-0.005
Mof_C 	C 	0.87173	0.15177	0.94547	-0.076
Mof_H 	H 	0.88813	0.18147	0.94137	0.053
Mof_C 	C 	0.83093	0.13387	0.96677	-0.013
Mof_H 	H 	0.82073	0.15157	0.97827	0.029
Mof_C 	C 	0.80673	0.09117	0.97057	-0.064
Mof_H 	H 	0.77803	0.07857	0.98027	0.047
Mof_C 	C 	0.82423	0.06647	0.96027	-0.017
Mof_H 	H 	0.80953	0.03727	0.96817	0.03
Mof_C 	C 	0.86383	0.08457	0.93817	-0.075
Mof_H 	H 	0.87473	0.06707	0.92797	0.04
Mof_O 	O 	0.30853	0.52957	0.94347	-0.352
Mof_Ag	Ag	0.20254	0.12686	0.31393	0.51
Mof_P 	P 	0.25126	0.13563	0.24838	0.001
Mof_P 	P 	0.51993	0.12361	0.2335	-0.004
Mof_C 	C 	0.3275	0.02	0.2561	-0.04
Mof_C 	C 	0.3061	0.0459	0.2501	0.053
Mof_C 	C 	0.2926	0.0566	0.2927	-0.086
Mof_H 	H 	0.2948	0.0452	0.3228	0.054
Mof_C 	C 	0.2763	0.0833	0.2922	-0.026
Mof_H 	H 	0.268	0.0905	0.3217	0.014
Mof_C 	C 	0.2717	0.0997	0.2475	-0.035
Mof_C 	C 	0.2831	0.0877	0.2062	-0.024
Mof_H 	H 	0.2794	0.0972	0.1754	0.041
Mof_C 	C 	0.3007	0.0608	0.2091	-0.09
Mof_H 	H 	0.3088	0.0531	0.1798	0.06
Mof_C 	C 	0.3747	0.046	0.2502	0.048
Mof_C 	C 	0.3994	0.059	0.2906	-0.085
Mof_H 	H 	0.3871	0.0514	0.322	0.055
Mof_C 	C 	0.4436	0.0839	0.2853	-0.022
Mof_H 	H 	0.4603	0.0938	0.3139	0.034
Mof_C 	C 	0.4633	0.0943	0.2417	-0.032
Mof_C 	C 	0.4389	0.0827	0.2015	-0.02
Mof_H 	H 	0.4518	0.0913	0.1705	0.016
Mof_C 	C 	0.3954	0.0587	0.2047	-0.083
Mof_H 	H 	0.3791	0.0504	0.1758	0.056
Mof_C 	C 	0.2975	0.187	0.2528	-0.001
Mof_C 	C 	0.2926	0.2225	0.2529	-0.085
Mof_H 	H 	0.2653	0.2193	0.2493	0.054
Mof_C 	C 	0.3277	0.2626	0.2582	-0.005
Mof_H 	H 	0.324	0.2865	0.2599	0.022
Mof_C 	C 	0.3668	0.2681	0.2611	-0.073
Mof_H 	H 	0.3905	0.2957	0.2643	0.046
Mof_C 	C 	0.3724	0.2337	0.2595	-0.007
Mof_H 	H 	0.4001	0.2377	0.2611	0.031
Mof_C 	C 	0.3388	0.1942	0.2557	-0.076
Mof_H 	H 	0.3433	0.1708	0.2549	0.057
Mof_C 	C 	0.233	0.134	0.187	0.01
Mof_C 	C 	0.1925	0.1	0.176	-0.075
Mof_H 	H 	0.1755	0.0801	0.1999	0.047
Mof_C 	C 	0.1786	0.0974	0.1271	-0.009
Mof_H 	H 	0.1515	0.075	0.1185	0.03
Mof_C 	C 	0.2022	0.1255	0.0923	-0.068
Mof_H 	H 	0.192	0.1219	0.06	0.056
Mof_C 	C 	0.241	0.1591	0.1037	-0.01
Mof_H 	H 	0.2573	0.1796	0.0798	0.036
Mof_C 	C 	0.2565	0.1629	0.1519	-0.075
Mof_H 	H 	0.2836	0.1858	0.1599	0.059
Mof_C 	C 	0.5381	0.1689	0.2745	0.028
Mof_C 	C 	0.5343	0.1646	0.3234	-0.104
Mof_H 	H 	0.5234	0.1378	0.3383	0.062
Mof_C 	C 	0.5467	0.2006	0.3513	0.026
Mof_H 	H 	0.5432	0.1977	0.3856	0.013
Mof_C 	C 	0.5629	0.238	0.3328	-0.103
Mof_H 	H 	0.5714	0.2617	0.3535	0.063
Mof_C 	C 	0.5678	0.2436	0.2848	0.016
Mof_H 	H 	0.5795	0.2711	0.2712	0.021
Mof_C 	C 	0.5554	0.2079	0.254	-0.102
Mof_H 	H 	0.5591	0.2112	0.2198	0.056
Mof_C 	C 	0.5396	0.0935	0.2643	-0.005
Mof_C 	C 	0.5149	0.0533	0.2788	-0.076
Mof_H 	H 	0.4852	0.04	0.2747	0.053
Mof_C 	C 	0.5328	0.0304	0.3001	-0.014
Mof_H 	H 	0.5151	0.0025	0.3116	0.029
Mof_C 	C 	0.5755	0.0489	0.3039	-0.064
Mof_H 	H 	0.5881	0.0328	0.3136	0.047
Mof_C 	C 	0.6002	0.0911	0.2936	-0.017
Mof_H 	H 	0.6294	0.1056	0.3015	0.03
Mof_C 	C 	0.5821	0.1126	0.2715	-0.075
Mof_H 	H 	0.5996	0.141	0.2613	0.04
Mof_O 	O 	0.1371	0.1123	0.2768	-0.352
Mof_Ag	Ag	0.86921	0.46019	0.64726	0.511
Mof_P 	P 	0.91793	0.46896	0.58171	0.001
Mof_P 	P 	0.1866	0.45694	0.56683	-0.005
Mof_C 	C 	0.99417	0.35333	0.58943	-0.037
Mof_C 	C 	0.97277	0.37923	0.58343	0.052
Mof_C 	C 	0.95927	0.38993	0.62603	-0.085
Mof_H 	H 	0.96147	0.37853	0.65613	0.054
Mof_C 	C 	0.94297	0.41663	0.62553	-0.027
Mof_H 	H 	0.93467	0.42383	0.65503	0.014
Mof_C 	C 	0.93837	0.43303	0.58083	-0.034
Mof_C 	C 	0.94977	0.42103	0.53953	-0.025
Mof_H 	H 	0.94607	0.43053	0.50873	0.041
Mof_C 	C 	0.96737	0.39413	0.54243	-0.089
Mof_H 	H 	0.97547	0.38643	0.51313	0.06
Mof_C 	C 	0.04137	0.37933	0.58353	0.047
Mof_C 	C 	0.06607	0.39233	0.62393	-0.084
Mof_H 	H 	0.05377	0.38473	0.65533	0.054
Mof_C 	C 	0.11027	0.41723	0.61863	-0.023
Mof_H 	H 	0.12697	0.42713	0.64723	0.034
Mof_C 	C 	0.12997	0.42763	0.57503	-0.031
Mof_C 	C 	0.10557	0.41603	0.53483	-0.021
Mof_H 	H 	0.11847	0.42463	0.50383	0.016
Mof_C 	C 	0.06207	0.39203	0.53803	-0.082
Mof_H 	H 	0.04577	0.38373	0.50913	0.056
Mof_C 	C 	0.96417	0.52033	0.58613	0.001
Mof_C 	C 	0.95927	0.55583	0.58623	-0.087
Mof_H 	H 	0.93197	0.55263	0.58263	0.055
Mof_C 	C 	0.99437	0.59593	0.59153	-0.002
Mof_H 	H 	0.99067	0.61983	0.59323	0.021
Mof_C 	C 	0.03347	0.60143	0.59443	-0.076
Mof_H 	H 	0.05717	0.62903	0.59763	0.047
Mof_C 	C 	0.03907	0.56703	0.59283	-0.004
Mof_H 	H 	0.06677	0.57103	0.59443	0.03
Mof_C 	C 	0.00547	0.52753	0.58903	-0.079
Mof_H 	H 	0.00997	0.50413	0.58823	0.057
Mof_C 	C 	0.89967	0.46733	0.52033	0.01
Mof_C 	C 	0.85917	0.43333	0.50933	-0.076
Mof_H 	H 	0.84217	0.41343	0.53323	0.047
Mof_C 	C 	0.84527	0.43073	0.46043	-0.009
Mof_H 	H 	0.81817	0.40833	0.45183	0.03
Mof_C 	C 	0.86887	0.45883	0.42563	-0.069
Mof_H 	H 	0.85867	0.45523	0.39333	0.056
Mof_C 	C 	0.90767	0.49243	0.43703	-0.01
Mof_H 	H 	0.92397	0.51293	0.41313	0.036
Mof_C 	C 	0.92317	0.49623	0.48523	-0.075
Mof_H 	H 	0.95027	0.51913	0.49323	0.059
Mof_C 	C 	0.20477	0.50223	0.60783	0.028
Mof_C 	C 	0.20097	0.49793	0.65673	-0.104
Mof_H 	H 	0.19007	0.47113	0.67163	0.062
Mof_C 	C 	0.21337	0.53393	0.68463	0.026
Mof_H 	H 	0.20987	0.53103	0.71893	0.013
Mof_C 	C 	0.22957	0.57133	0.66613	-0.103
Mof_H 	H 	0.23807	0.59503	0.68683	0.063
Mof_C 	C 	0.23447	0.57693	0.61813	0.016
Mof_H 	H 	0.24617	0.60443	0.60453	0.021
Mof_C 	C 	0.22207	0.54123	0.58733	-0.102
Mof_H 	H 	0.22577	0.54453	0.55313	0.056
Mof_C 	C 	0.20627	0.42683	0.59763	-0.005
Mof_C 	C 	0.18157	0.38663	0.61213	-0.076
Mof_H 	H 	0.15187	0.37333	0.60803	0.053
Mof_C 	C 	0.19947	0.36373	0.63343	-0.013
Mof_H 	H 	0.18177	0.33583	0.64493	0.029
Mof_C 	C 	0.24217	0.38223	0.63723	-0.064
Mof_H 	H 	0.25477	0.36613	0.64693	0.047
Mof_C 	C 	0.26687	0.42443	0.62693	-0.017
Mof_H 	H 	0.29607	0.43893	0.63483	0.03
Mof_C 	C 	0.24877	0.44593	0.60483	-0.075
Mof_H 	H 	0.26627	0.47433	0.59463	0.04
Mof_O 	O 	0.80377	0.44563	0.61013	-0.352
Mof_Ag	Ag	0.53587	0.79353	0.9806	0.511
Mof_P 	P 	0.58459	0.8023	0.91505	0.001
Mof_P 	P 	0.85326	0.79028	0.90017	-0.004
Mof_C 	C 	0.66083	0.68667	0.92277	-0.039
Mof_C 	C 	0.63943	0.71257	0.91677	0.052
Mof_C 	C 	0.62593	0.72327	0.95937	-0.086
Mof_H 	H 	0.62813	0.71187	0.98947	0.054
Mof_C 	C 	0.60963	0.74997	0.95887	-0.026
Mof_H 	H 	0.60133	0.75717	0.98837	0.014
Mof_C 	C 	0.60503	0.76637	0.91417	-0.034
Mof_C 	C 	0.61643	0.75437	0.87287	-0.025
Mof_H 	H 	0.61273	0.76387	0.84207	0.041
Mof_C 	C 	0.63403	0.72747	0.87577	-0.09
Mof_H 	H 	0.64213	0.71977	0.84647	0.06
Mof_C 	C 	0.70803	0.71267	0.91687	0.048
Mof_C 	C 	0.73273	0.72567	0.95727	-0.085
Mof_H 	H 	0.72043	0.71807	0.98867	0.055
Mof_C 	C 	0.77693	0.75057	0.95197	-0.023
Mof_H 	H 	0.79363	0.76047	0.98057	0.034
Mof_C 	C 	0.79663	0.76097	0.90837	-0.032
Mof_C 	C 	0.77223	0.74937	0.86817	-0.02
Mof_H 	H 	0.78513	0.75797	0.83717	0.016
Mof_C 	C 	0.72873	0.72537	0.87137	-0.082
Mof_H 	H 	0.71243	0.71707	0.84247	0.056
Mof_C 	C 	0.63083	0.85367	0.91947	-0.001
Mof_C 	C 	0.62593	0.88917	0.91957	-0.085
Mof_H 	H 	0.59863	0.88597	0.91597	0.054
Mof_C 	C 	0.66103	0.92927	0.92487	-0.005
Mof_H 	H 	0.65733	0.95317	0.92657	0.022
Mof_C 	C 	0.70013	0.93477	0.92777	-0.073
Mof_H 	H 	0.72383	0.96237	0.93097	0.046
Mof_C 	C 	0.70573	0.90037	0.92617	-0.007
Mof_H 	H 	0.73343	0.90437	0.92777	0.031
Mof_C 	C 	0.67213	0.86087	0.92237	-0.076
Mof_H 	H 	0.67663	0.83747	0.92157	0.057
Mof_C 	C 	0.56633	0.80067	0.85367	0.01
Mof_C 	C 	0.52583	0.76667	0.84267	-0.075
Mof_H 	H 	0.50883	0.74677	0.86657	0.047
Mof_C 	C 	0.51193	0.76407	0.79377	-0.009
Mof_H 	H 	0.48483	0.74167	0.78517	0.03
Mof_C 	C 	0.53553	0.79217	0.75897	-0.068
Mof_H 	H 	0.52533	0.78857	0.72667	0.056
Mof_C 	C 	0.57433	0.82577	0.77037	-0.01
Mof_H 	H 	0.59063	0.84627	0.74647	0.036
Mof_C 	C 	0.58983	0.82957	0.81857	-0.075
Mof_H 	H 	0.61693	0.85247	0.82657	0.059
Mof_C 	C 	0.87143	0.83557	0.94117	0.028
Mof_C 	C 	0.86763	0.83127	0.99007	-0.103
Mof_H 	H 	0.85673	0.80447	0.00497	0.062
Mof_C 	C 	0.88003	0.86727	0.01797	0.026
Mof_H 	H 	0.87653	0.86437	0.05227	0.013
Mof_C 	C 	0.89623	0.90467	0.99947	-0.103
Mof_H 	H 	0.90473	0.92837	0.02017	0.063
Mof_C 	C 	0.90113	0.91027	0.95147	0.016
Mof_H 	H 	0.91283	0.93777	0.93787	0.021
Mof_C 	C 	0.88873	0.87457	0.92067	-0.101
Mof_H 	H 	0.89243	0.87787	0.88647	0.056
Mof_C 	C 	0.87293	0.76017	0.93097	-0.005
Mof_C 	C 	0.84823	0.71997	0.94547	-0.076
Mof_H 	H 	0.81853	0.70667	0.94137	0.053
Mof_C 	C 	0.86613	0.69707	0.96677	-0.013
Mof_H 	H 	0.84843	0.66917	0.97827	0.029
Mof_C 	C 	0.90883	0.71557	0.97057	-0.064
Mof_H 	H 	0.92143	0.69947	0.98027	0.047
Mof_C 	C 	0.93353	0.75777	0.96027	-0.017
Mof_H 	H 	0.96273	0.77227	0.96817	0.031
Mof_C 	C 	0.91543	0.77927	0.93817	-0.075
Mof_H 	H 	0.93293	0.80767	0.92797	0.04
Mof_O 	O 	0.47043	0.77897	0.94347	-0.352
Mof_Ag	Ag	0.87314	0.07568	0.31393	0.51
Mof_P 	P 	0.86437	0.11563	0.24838	0.001
Mof_P 	P 	0.87639	0.39632	0.2335	-0.004
Mof_C 	C 	0.98	0.3075	0.2561	-0.038
Mof_C 	C 	0.9541	0.2602	0.2501	0.052
Mof_C 	C 	0.9434	0.236	0.2927	-0.085
Mof_H 	H 	0.9548	0.2496	0.3228	0.054
Mof_C 	C 	0.9167	0.193	0.2922	-0.026
Mof_H 	H 	0.9095	0.1775	0.3217	0.014
Mof_C 	C 	0.9003	0.172	0.2475	-0.034
Mof_C 	C 	0.9123	0.1954	0.2062	-0.025
Mof_H 	H 	0.9028	0.1822	0.1754	0.041
Mof_C 	C 	0.9392	0.2399	0.2091	-0.089
Mof_H 	H 	0.9469	0.2557	0.1798	0.06
Mof_C 	C 	0.954	0.3287	0.2502	0.048
Mof_C 	C 	0.941	0.3404	0.2906	-0.085
Mof_H 	H 	0.9486	0.3357	0.322	0.055
Mof_C 	C 	0.9161	0.3597	0.2853	-0.023
Mof_H 	H 	0.9062	0.3665	0.3139	0.034
Mof_C 	C 	0.9057	0.369	0.2417	-0.031
Mof_C 	C 	0.9173	0.3562	0.2015	-0.02
Mof_H 	H 	0.9087	0.3605	0.1705	0.016
Mof_C 	C 	0.9413	0.3367	0.2047	-0.082
Mof_H 	H 	0.9496	0.3287	0.1758	0.056
Mof_C 	C 	0.813	0.1105	0.2528	-0.001
Mof_C 	C 	0.7775	0.0701	0.2529	-0.085
Mof_H 	H 	0.7807	0.046	0.2493	0.054
Mof_C 	C 	0.7374	0.0651	0.2582	-0.005
Mof_H 	H 	0.7135	0.0375	0.2599	0.022
Mof_C 	C 	0.7319	0.0987	0.2611	-0.073
Mof_H 	H 	0.7043	0.0948	0.2643	0.046
Mof_C 	C 	0.7663	0.1387	0.2595	-0.007
Mof_H 	H 	0.7623	0.1624	0.2611	0.031
Mof_C 	C 	0.8058	0.1446	0.2557	-0.076
Mof_H 	H 	0.8292	0.1725	0.2549	0.057
Mof_C 	C 	0.866	0.099	0.187	0.01
Mof_C 	C 	0.9	0.0925	0.176	-0.076
Mof_H 	H 	0.9199	0.0954	0.1999	0.047
Mof_C 	C 	0.9026	0.0812	0.1271	-0.009
Mof_H 	H 	0.925	0.0765	0.1185	0.03
Mof_C 	C 	0.8745	0.0767	0.0923	-0.069
Mof_H 	H 	0.8781	0.0701	0.06	0.056
Mof_C 	C 	0.8409	0.0819	0.1037	-0.01
Mof_H 	H 	0.8204	0.0777	0.0798	0.036
Mof_C 	C 	0.8371	0.0936	0.1519	-0.075
Mof_H 	H 	0.8142	0.0978	0.1599	0.059
Mof_C 	C 	0.8311	0.3692	0.2745	0.028
Mof_C 	C 	0.8354	0.3697	0.3234	-0.104
Mof_H 	H 	0.8622	0.3856	0.3383	0.062
Mof_C 	C 	0.7994	0.3461	0.3513	0.026
Mof_H 	H 	0.8023	0.3455	0.3856	0.013
Mof_C 	C 	0.762	0.3249	0.3328	-0.103
Mof_H 	H 	0.7383	0.3097	0.3535	0.063
Mof_C 	C 	0.7564	0.3242	0.2848	0.016
Mof_H 	H 	0.7289	0.3084	0.2712	0.021
Mof_C 	C 	0.7921	0.3475	0.254	-0.102
Mof_H 	H 	0.7888	0.3479	0.2198	0.056
Mof_C 	C 	0.9065	0.4461	0.2643	-0.005
Mof_C 	C 	0.9467	0.4616	0.2788	-0.076
Mof_H 	H 	0.96	0.4452	0.2747	0.053
Mof_C 	C 	0.9696	0.5024	0.3001	-0.013
Mof_H 	H 	0.9975	0.5126	0.3116	0.029
Mof_C 	C 	0.9511	0.5266	0.3039	-0.064
Mof_H 	H 	0.9672	0.5553	0.3136	0.047
Mof_C 	C 	0.9089	0.5091	0.2936	-0.017
Mof_H 	H 	0.8944	0.5238	0.3015	0.03
Mof_C 	C 	0.8874	0.4695	0.2715	-0.075
Mof_H 	H 	0.859	0.4586	0.2613	0.04
Mof_O 	O 	0.8877	0.0248	0.2768	-0.352
Mof_Ag	Ag	0.53981	0.40901	0.64726	0.51
Mof_P 	P 	0.53104	0.44896	0.58171	0.001
Mof_P 	P 	0.54306	0.72965	0.56683	-0.004
Mof_C 	C 	0.64667	0.64083	0.58943	-0.039
Mof_C 	C 	0.62077	0.59353	0.58343	0.052
Mof_C 	C 	0.61007	0.56933	0.62603	-0.086
Mof_H 	H 	0.62147	0.58293	0.65613	0.054
Mof_C 	C 	0.58337	0.52633	0.62553	-0.026
Mof_H 	H 	0.57617	0.51083	0.65503	0.014
Mof_C 	C 	0.56697	0.50533	0.58083	-0.034
Mof_C 	C 	0.57897	0.52873	0.53953	-0.025
Mof_H 	H 	0.56947	0.51553	0.50873	0.041
Mof_C 	C 	0.60587	0.57323	0.54243	-0.09
Mof_H 	H 	0.61357	0.58903	0.51313	0.06
Mof_C 	C 	0.62067	0.66203	0.58353	0.048
Mof_C 	C 	0.60767	0.67373	0.62393	-0.085
Mof_H 	H 	0.61527	0.66903	0.65533	0.055
Mof_C 	C 	0.58277	0.69303	0.61863	-0.023
Mof_H 	H 	0.57287	0.69983	0.64723	0.034
Mof_C 	C 	0.57237	0.70233	0.57503	-0.031
Mof_C 	C 	0.58397	0.68953	0.53483	-0.02
Mof_H 	H 	0.57537	0.69383	0.50383	0.016
Mof_C 	C 	0.60797	0.67003	0.53803	-0.082
Mof_H 	H 	0.61627	0.66203	0.50913	0.056
Mof_C 	C 	0.47967	0.44383	0.58613	-0.001
Mof_C 	C 	0.44417	0.40343	0.58623	-0.085
Mof_H 	H 	0.44737	0.37933	0.58263	0.054
Mof_C 	C 	0.40407	0.39843	0.59153	-0.005
Mof_H 	H 	0.38017	0.37083	0.59323	0.022
Mof_C 	C 	0.39857	0.43203	0.59443	-0.073
Mof_H 	H 	0.37097	0.42813	0.59763	0.046
Mof_C 	C 	0.43297	0.47203	0.59283	-0.007
Mof_H 	H 	0.42897	0.49573	0.59443	0.031
Mof_C 	C 	0.47247	0.47793	0.58903	-0.076
Mof_H 	H 	0.49587	0.50583	0.58823	0.057
Mof_C 	C 	0.53267	0.43233	0.52033	0.01
Mof_C 	C 	0.56667	0.42583	0.50933	-0.075
Mof_H 	H 	0.58657	0.42873	0.53323	0.047
Mof_C 	C 	0.56927	0.41453	0.46043	-0.009
Mof_H 	H 	0.59167	0.40983	0.45183	0.03
Mof_C 	C 	0.54117	0.41003	0.42563	-0.068
Mof_H 	H 	0.54477	0.40343	0.39333	0.056
Mof_C 	C 	0.50757	0.41523	0.43703	-0.01
Mof_H 	H 	0.48707	0.41103	0.41313	0.036
Mof_C 	C 	0.50377	0.42693	0.48523	-0.075
Mof_H 	H 	0.48087	0.43113	0.49323	0.059
Mof_C 	C 	0.49777	0.70253	0.60783	0.028
Mof_C 	C 	0.50207	0.70303	0.65673	-0.104
Mof_H 	H 	0.52887	0.71893	0.67163	0.062
Mof_C 	C 	0.46607	0.67943	0.68463	0.026
Mof_H 	H 	0.46897	0.67883	0.71893	0.013
Mof_C 	C 	0.42867	0.65823	0.66613	-0.103
Mof_H 	H 	0.40497	0.64303	0.68683	0.063
Mof_C 	C 	0.42307	0.65753	0.61813	0.016
Mof_H 	H 	0.39557	0.64173	0.60453	0.021
Mof_C 	C 	0.45877	0.68083	0.58733	-0.102
Mof_H 	H 	0.45547	0.68123	0.55313	0.056
Mof_C 	C 	0.57317	0.77943	0.59763	-0.005
Mof_C 	C 	0.61337	0.79493	0.61213	-0.076
Mof_H 	H 	0.62667	0.77853	0.60803	0.053
Mof_C 	C 	0.63627	0.83573	0.63343	-0.013
Mof_H 	H 	0.66417	0.84593	0.64493	0.029
Mof_C 	C 	0.61777	0.85993	0.63723	-0.064
Mof_H 	H 	0.63387	0.88863	0.64693	0.047
Mof_C 	C 	0.57557	0.84243	0.62693	-0.017
Mof_H 	H 	0.56107	0.85713	0.63483	0.031
Mof_C 	C 	0.55407	0.80283	0.60483	-0.075
Mof_H 	H 	0.52567	0.79193	0.59463	0.04
Mof_O 	O 	0.55437	0.35813	0.61013	-0.352
Mof_Ag	Ag	0.20647	0.74235	0.9806	0.51
Mof_P 	P 	0.1977	0.7823	0.91505	0.001
Mof_P 	P 	0.20972	0.06299	0.90017	-0.004
Mof_C 	C 	0.31333	0.97417	0.92277	-0.04
Mof_C 	C 	0.28743	0.92687	0.91677	0.053
Mof_C 	C 	0.27673	0.90267	0.95937	-0.086
Mof_H 	H 	0.28813	0.91627	0.98947	0.055
Mof_C 	C 	0.25003	0.85967	0.95887	-0.026
Mof_H 	H 	0.24283	0.84417	0.98837	0.014
Mof_C 	C 	0.23363	0.83867	0.91417	-0.035
Mof_C 	C 	0.24563	0.86207	0.87287	-0.024
Mof_H 	H 	0.23613	0.84887	0.84207	0.041
Mof_C 	C 	0.27253	0.90657	0.87577	-0.09
Mof_H 	H 	0.28023	0.92237	0.84647	0.06
Mof_C 	C 	0.28733	0.99537	0.91687	0.051
Mof_C 	C 	0.27433	0.00707	0.95727	-0.087
Mof_H 	H 	0.28193	0.00237	0.98867	0.056
Mof_C 	C 	0.24943	0.02637	0.95197	-0.021
Mof_H 	H 	0.23953	0.03317	0.98057	0.033
Mof_C 	C 	0.23903	0.03567	0.90837	-0.033
Mof_C 	C 	0.25063	0.02287	0.86817	-0.018
Mof_H 	H 	0.24203	0.02717	0.83717	0.015
Mof_C 	C 	0.27463	0.00337	0.87137	-0.086
Mof_H 	H 	0.28293	0.99537	0.84247	0.058
Mof_C 	C 	0.14633	0.77717	0.91947	-0.001
Mof_C 	C 	0.11083	0.73677	0.91957	-0.085
Mof_H 	H 	0.11403	0.71267	0.91597	0.054
Mof_C 	C 	0.07073	0.73177	0.92487	-0.005
Mof_H 	H 	0.04683	0.70417	0.92657	0.022
Mof_C 	C 	0.06523	0.76537	0.92777	-0.073
Mof_H 	H 	0.03763	0.76147	0.93097	0.046
Mof_C 	C 	0.09963	0.80537	0.92617	-0.007
Mof_H 	H 	0.09563	0.82907	0.92777	0.031
Mof_C 	C 	0.13913	0.81127	0.92237	-0.076
Mof_H 	H 	0.16253	0.83917	0.92157	0.057
Mof_C 	C 	0.19933	0.76567	0.85367	0.01
Mof_C 	C 	0.23333	0.75917	0.84267	-0.075
Mof_H 	H 	0.25323	0.76207	0.86657	0.047
Mof_C 	C 	0.23593	0.74787	0.79377	-0.009
Mof_H 	H 	0.25833	0.74317	0.78517	0.03
Mof_C 	C 	0.20783	0.74337	0.75897	-0.068
Mof_H 	H 	0.21143	0.73677	0.72667	0.056
Mof_C 	C 	0.17423	0.74857	0.77037	-0.01
Mof_H 	H 	0.15373	0.74437	0.74647	0.036
Mof_C 	C 	0.17043	0.76027	0.81857	-0.075
Mof_H 	H 	0.14753	0.76447	0.82657	0.059
Mof_C 	C 	0.16443	0.03587	0.94117	0.028
Mof_C 	C 	0.16873	0.03637	0.99007	-0.103
Mof_H 	H 	0.19553	0.05227	0.00497	0.062
Mof_C 	C 	0.13273	0.01277	0.01797	0.025
Mof_H 	H 	0.13563	0.01217	0.05227	0.014
Mof_C 	C 	0.09533	0.99157	0.99947	-0.102
Mof_H 	H 	0.07163	0.97637	0.02017	0.063
Mof_C 	C 	0.08973	0.99087	0.95147	0.016
Mof_H 	H 	0.06223	0.97507	0.93787	0.02
Mof_C 	C 	0.12543	0.01417	0.92067	-0.102
Mof_H 	H 	0.12213	0.01457	0.88647	0.056
Mof_C 	C 	0.23983	0.11277	0.93097	-0.005
Mof_C 	C 	0.28003	0.12827	0.94547	-0.076
Mof_H 	H 	0.29333	0.11187	0.94137	0.053
Mof_C 	C 	0.30293	0.16907	0.96677	-0.013
Mof_H 	H 	0.33083	0.17927	0.97827	0.029
Mof_C 	C 	0.28443	0.19327	0.97057	-0.064
Mof_H 	H 	0.30053	0.22197	0.98027	0.047
Mof_C 	C 	0.24223	0.17577	0.96027	-0.017
Mof_H 	H 	0.22773	0.19047	0.96817	0.031
Mof_C 	C 	0.22073	0.13617	0.93817	-0.075
Mof_H 	H 	0.19233	0.12527	0.92797	0.04
Mof_O 	O 	0.22103	0.69147	0.94347	-0.352
Mof_Ag	Ag	0.79746	0.92432	0.18607	0.511
Mof_P 	P 	0.74874	0.88437	0.25162	0.001
Mof_P 	P 	0.48007	0.60368	0.2665	-0.004
Mof_C 	C 	0.6725	0.6925	0.2439	-0.039
Mof_C 	C 	0.6939	0.7398	0.2499	0.052
Mof_C 	C 	0.7074	0.764	0.2073	-0.086
Mof_H 	H 	0.7052	0.7504	0.1772	0.054
Mof_C 	C 	0.7237	0.807	0.2078	-0.026
Mof_H 	H 	0.732	0.8225	0.1783	0.014
Mof_C 	C 	0.7283	0.828	0.2525	-0.034
Mof_C 	C 	0.7169	0.8046	0.2938	-0.025
Mof_H 	H 	0.7206	0.8178	0.3246	0.041
Mof_C 	C 	0.6993	0.7601	0.2909	-0.09
Mof_H 	H 	0.6912	0.7443	0.3202	0.06
Mof_C 	C 	0.6253	0.6713	0.2498	0.048
Mof_C 	C 	0.6006	0.6596	0.2094	-0.085
Mof_H 	H 	0.6129	0.6643	0.178	0.055
Mof_C 	C 	0.5564	0.6403	0.2147	-0.023
Mof_H 	H 	0.5397	0.6335	0.1861	0.034
Mof_C 	C 	0.5367	0.631	0.2583	-0.031
Mof_C 	C 	0.5611	0.6438	0.2985	-0.02
Mof_H 	H 	0.5482	0.6395	0.3295	0.016
Mof_C 	C 	0.6046	0.6633	0.2953	-0.082
Mof_H 	H 	0.6209	0.6713	0.3242	0.056
Mof_C 	C 	0.7025	0.8895	0.2472	-0.001
Mof_C 	C 	0.7074	0.9299	0.2471	-0.085
Mof_H 	H 	0.7347	0.954	0.2507	0.054
Mof_C 	C 	0.6723	0.9349	0.2418	-0.005
Mof_H 	H 	0.676	0.9625	0.2401	0.022
Mof_C 	C 	0.6332	0.9013	0.2389	-0.073
Mof_H 	H 	0.6095	0.9052	0.2357	0.046
Mof_C 	C 	0.6276	0.8613	0.2405	-0.007
Mof_H 	H 	0.5999	0.8376	0.2389	0.031
Mof_C 	C 	0.6612	0.8554	0.2443	-0.076
Mof_H 	H 	0.6567	0.8275	0.2451	0.057
Mof_C 	C 	0.767	0.901	0.313	0.01
Mof_C 	C 	0.8075	0.9075	0.324	-0.075
Mof_H 	H 	0.8245	0.9046	0.3001	0.047
Mof_C 	C 	0.8214	0.9188	0.3729	-0.009
Mof_H 	H 	0.8485	0.9235	0.3815	0.03
Mof_C 	C 	0.7978	0.9233	0.4077	-0.068
Mof_H 	H 	0.808	0.9299	0.44	0.056
Mof_C 	C 	0.759	0.9181	0.3963	-0.01
Mof_H 	H 	0.7427	0.9223	0.4202	0.036
Mof_C 	C 	0.7435	0.9064	0.3481	-0.075
Mof_H 	H 	0.7164	0.9022	0.3401	0.059
Mof_C 	C 	0.4619	0.6308	0.2255	0.028
Mof_C 	C 	0.4657	0.6303	0.1766	-0.104
Mof_H 	H 	0.4766	0.6144	0.1617	0.062
Mof_C 	C 	0.4533	0.6539	0.1487	0.026
Mof_H 	H 	0.4568	0.6545	0.1144	0.013
Mof_C 	C 	0.4371	0.6751	0.1672	-0.103
Mof_H 	H 	0.4286	0.6903	0.1465	0.063
Mof_C 	C 	0.4322	0.6758	0.2152	0.016
Mof_H 	H 	0.4205	0.6916	0.2288	0.021
Mof_C 	C 	0.4446	0.6525	0.246	-0.102
Mof_H 	H 	0.4409	0.6521	0.2802	0.056
Mof_C 	C 	0.4604	0.5539	0.2357	-0.005
Mof_C 	C 	0.4851	0.5384	0.2212	-0.076
Mof_H 	H 	0.5148	0.5548	0.2253	0.053
Mof_C 	C 	0.4672	0.4976	0.1999	-0.013
Mof_H 	H 	0.4849	0.4874	0.1884	0.029
Mof_C 	C 	0.4245	0.4734	0.1961	-0.064
Mof_H 	H 	0.4119	0.4447	0.1864	0.047
Mof_C 	C 	0.3998	0.4909	0.2064	-0.017
Mof_H 	H 	0.3706	0.4762	0.1985	0.03
Mof_C 	C 	0.4179	0.5305	0.2285	-0.075
Mof_H 	H 	0.4004	0.5414	0.2387	0.04
Mof_O 	O 	0.8629	0.9752	0.2232	-0.351
Mof_Ag	Ag	0.46413	0.25765	0.5194	0.51
Mof_P 	P 	0.41541	0.2177	0.58495	0.001
Mof_P 	P 	0.14674	0.93701	0.59983	-0.005
Mof_C 	C 	0.33917	0.02583	0.57723	-0.037
Mof_C 	C 	0.36057	0.07313	0.58323	0.052
Mof_C 	C 	0.37407	0.09733	0.54063	-0.085
Mof_H 	H 	0.37187	0.08373	0.51053	0.054
Mof_C 	C 	0.39037	0.14033	0.54113	-0.027
Mof_H 	H 	0.39867	0.15583	0.51163	0.014
Mof_C 	C 	0.39497	0.16133	0.58583	-0.034
Mof_C 	C 	0.38357	0.13793	0.62713	-0.025
Mof_H 	H 	0.38727	0.15113	0.65793	0.041
Mof_C 	C 	0.36597	0.09343	0.62423	-0.089
Mof_H 	H 	0.35787	0.07763	0.65353	0.06
Mof_C 	C 	0.29197	0.00463	0.58313	0.045
Mof_C 	C 	0.26727	0.99293	0.54273	-0.082
Mof_H 	H 	0.27957	0.99763	0.51133	0.054
Mof_C 	C 	0.22307	0.97363	0.54803	-0.024
Mof_H 	H 	0.20637	0.96683	0.51943	0.034
Mof_C 	C 	0.20337	0.96433	0.59163	-0.03
Mof_C 	C 	0.22777	0.97713	0.63183	-0.023
Mof_H 	H 	0.21487	0.97283	0.66283	0.017
Mof_C 	C 	0.27127	0.99663	0.62863	-0.078
Mof_H 	H 	0.28757	0.00463	0.65753	0.054
Mof_C 	C 	0.36917	0.22283	0.58053	-0.001
Mof_C 	C 	0.37407	0.26323	0.58043	-0.085
Mof_H 	H 	0.40137	0.28733	0.58403	0.054
Mof_C 	C 	0.33897	0.26823	0.57513	-0.005
Mof_H 	H 	0.34267	0.29583	0.57343	0.022
Mof_C 	C 	0.29987	0.23463	0.57223	-0.073
Mof_H 	H 	0.27617	0.23853	0.56903	0.046
Mof_C 	C 	0.29427	0.19463	0.57383	-0.007
Mof_H 	H 	0.26657	0.17093	0.57223	0.031
Mof_C 	C 	0.32787	0.18873	0.57763	-0.076
Mof_H 	H 	0.32337	0.16083	0.57843	0.057
Mof_C 	C 	0.43367	0.23433	0.64633	0.01
Mof_C 	C 	0.47417	0.24083	0.65733	-0.075
Mof_H 	H 	0.49117	0.23793	0.63343	0.047
Mof_C 	C 	0.48807	0.25213	0.70623	-0.009
Mof_H 	H 	0.51517	0.25683	0.71483	0.03
Mof_C 	C 	0.46447	0.25663	0.74103	-0.068
Mof_H 	H 	0.47467	0.26323	0.77333	0.056
Mof_C 	C 	0.42567	0.25143	0.72963	-0.01
Mof_H 	H 	0.40937	0.25563	0.75353	0.036
Mof_C 	C 	0.41017	0.23973	0.68143	-0.075
Mof_H 	H 	0.38307	0.23553	0.67343	0.059
Mof_C 	C 	0.12857	0.96413	0.55883	0.028
Mof_C 	C 	0.13237	0.96363	0.50993	-0.104
Mof_H 	H 	0.14327	0.94773	0.49503	0.062
Mof_C 	C 	0.11997	0.98723	0.48203	0.028
Mof_H 	H 	0.12347	0.98783	0.44773	0.013
Mof_C 	C 	0.10377	0.00843	0.50053	-0.105
Mof_H 	H 	0.09527	0.02363	0.47983	0.063
Mof_C 	C 	0.09887	0.00913	0.54853	0.016
Mof_H 	H 	0.08717	0.02493	0.56213	0.02
Mof_C 	C 	0.11127	0.98583	0.57933	-0.101
Mof_H 	H 	0.10757	0.98543	0.61353	0.056
Mof_C 	C 	0.12707	0.88723	0.56903	-0.005
Mof_C 	C 	0.15177	0.87173	0.55453	-0.076
Mof_H 	H 	0.18147	0.88813	0.55863	0.053
Mof_C 	C 	0.13387	0.83093	0.53323	-0.013
Mof_H 	H 	0.15157	0.82073	0.52173	0.029
Mof_C 	C 	0.09117	0.80673	0.52943	-0.064
Mof_H 	H 	0.07857	0.77803	0.51973	0.047
Mof_C 	C 	0.06647	0.82423	0.53973	-0.017
Mof_H 	H 	0.03727	0.80953	0.53183	0.03
Mof_C 	C 	0.08457	0.86383	0.56183	-0.075
Mof_H 	H 	0.06707	0.87473	0.57203	0.04
Mof_O 	O 	0.52957	0.30853	0.55653	-0.352
Mof_Ag	Ag	0.13079	0.59099	0.85274	0.51
Mof_P 	P 	0.08207	0.55104	0.91829	0.002
Mof_P 	P 	0.8134	0.27035	0.93317	-0.004
Mof_C 	C 	0.00583	0.35917	0.91057	-0.04
Mof_C 	C 	0.02723	0.40647	0.91657	0.053
Mof_C 	C 	0.04073	0.43067	0.87397	-0.086
Mof_H 	H 	0.03853	0.41707	0.84387	0.054
Mof_C 	C 	0.05703	0.47367	0.87447	-0.026
Mof_H 	H 	0.06533	0.48917	0.84497	0.014
Mof_C 	C 	0.06163	0.49467	0.91917	-0.035
Mof_C 	C 	0.05023	0.47127	0.96047	-0.024
Mof_H 	H 	0.05393	0.48447	0.99127	0.041
Mof_C 	C 	0.03263	0.42677	0.95757	-0.09
Mof_H 	H 	0.02453	0.41097	0.98687	0.06
Mof_C 	C 	0.95863	0.33797	0.91647	0.05
Mof_C 	C 	0.93393	0.32627	0.87607	-0.086
Mof_H 	H 	0.94623	0.33097	0.84467	0.055
Mof_C 	C 	0.88973	0.30697	0.88137	-0.022
Mof_H 	H 	0.87303	0.30017	0.85277	0.034
Mof_C 	C 	0.87003	0.29767	0.92497	-0.032
Mof_C 	C 	0.89443	0.31047	0.96517	-0.019
Mof_H 	H 	0.88153	0.30617	0.99617	0.016
Mof_C 	C 	0.93793	0.32997	0.96197	-0.083
Mof_H 	H 	0.95423	0.33797	0.99087	0.056
Mof_C 	C 	0.03583	0.55617	0.91387	-0.003
Mof_C 	C 	0.04073	0.59657	0.91377	-0.083
Mof_H 	H 	0.06803	0.62067	0.91737	0.053
Mof_C 	C 	0.00563	0.60157	0.90847	-0.009
Mof_H 	H 	0.00933	0.62917	0.90677	0.023
Mof_C 	C 	0.96653	0.56797	0.90557	-0.069
Mof_H 	H 	0.94283	0.57187	0.90237	0.045
Mof_C 	C 	0.96093	0.52797	0.90717	-0.01
Mof_H 	H 	0.93323	0.50427	0.90557	0.032
Mof_C 	C 	0.99453	0.52207	0.91097	-0.073
Mof_H 	H 	0.99003	0.49417	0.91177	0.056
Mof_C 	C 	0.10033	0.56767	0.97967	0.01
Mof_C 	C 	0.14083	0.57417	0.99067	-0.075
Mof_H 	H 	0.15783	0.57127	0.96677	0.047
Mof_C 	C 	0.15473	0.58547	0.03957	-0.009
Mof_H 	H 	0.18183	0.59017	0.04817	0.03
Mof_C 	C 	0.13113	0.58997	0.07437	-0.068
Mof_H 	H 	0.14133	0.59657	0.10667	0.056
Mof_C 	C 	0.09233	0.58477	0.06297	-0.01
Mof_H 	H 	0.07603	0.58897	0.08687	0.036
Mof_C 	C 	0.07683	0.57307	0.01477	-0.075
Mof_H 	H 	0.04973	0.56887	0.00677	0.059
Mof_C 	C 	0.79523	0.29747	0.89217	0.028
Mof_C 	C 	0.79903	0.29697	0.84327	-0.104
Mof_H 	H 	0.80993	0.28107	0.82837	0.062
Mof_C 	C 	0.78663	0.32057	0.81537	0.026
Mof_H 	H 	0.79013	0.32117	0.78107	0.013
Mof_C 	C 	0.77043	0.34177	0.83387	-0.103
Mof_H 	H 	0.76193	0.35697	0.81317	0.063
Mof_C 	C 	0.76553	0.34247	0.88187	0.016
Mof_H 	H 	0.75383	0.35827	0.89547	0.021
Mof_C 	C 	0.77793	0.31917	0.91267	-0.102
Mof_H 	H 	0.77423	0.31877	0.94687	0.056
Mof_C 	C 	0.79373	0.22057	0.90237	-0.005
Mof_C 	C 	0.81843	0.20507	0.88787	-0.076
Mof_H 	H 	0.84813	0.22147	0.89197	0.053
Mof_C 	C 	0.80053	0.16427	0.86657	-0.013
Mof_H 	H 	0.81823	0.15407	0.85507	0.029
Mof_C 	C 	0.75783	0.14007	0.86277	-0.064
Mof_H 	H 	0.74523	0.11137	0.85307	0.047
Mof_C 	C 	0.73313	0.15757	0.87307	-0.017
Mof_H 	H 	0.70393	0.14287	0.86517	0.03
Mof_C 	C 	0.75123	0.19717	0.89517	-0.075
Mof_H 	H 	0.73373	0.20807	0.90537	0.04
Mof_O 	O 	0.19623	0.64187	0.88987	-0.352
Mof_Ag	Ag	0.12686	0.20254	0.18607	0.51
Mof_P 	P 	0.13563	0.25126	0.25162	0.001
Mof_P 	P 	0.12361	0.51993	0.2665	-0.004
Mof_C 	C 	0.02	0.3275	0.2439	-0.04
Mof_C 	C 	0.0459	0.3061	0.2499	0.053
Mof_C 	C 	0.0566	0.2926	0.2073	-0.086
Mof_H 	H 	0.0452	0.2948	0.1772	0.054
Mof_C 	C 	0.0833	0.2763	0.2078	-0.026
Mof_H 	H 	0.0905	0.268	0.1783	0.014
Mof_C 	C 	0.0997	0.2717	0.2525	-0.035
Mof_C 	C 	0.0877	0.2831	0.2938	-0.024
Mof_H 	H 	0.0972	0.2794	0.3246	0.041
Mof_C 	C 	0.0608	0.3007	0.2909	-0.09
Mof_H 	H 	0.0531	0.3088	0.3202	0.06
Mof_C 	C 	0.046	0.3747	0.2498	0.048
Mof_C 	C 	0.059	0.3994	0.2094	-0.085
Mof_H 	H 	0.0514	0.3871	0.178	0.055
Mof_C 	C 	0.0839	0.4436	0.2147	-0.023
Mof_H 	H 	0.0938	0.4603	0.1861	0.034
Mof_C 	C 	0.0943	0.4633	0.2583	-0.032
Mof_C 	C 	0.0827	0.4389	0.2985	-0.02
Mof_H 	H 	0.0913	0.4518	0.3295	0.016
Mof_C 	C 	0.0587	0.3954	0.2953	-0.083
Mof_H 	H 	0.0504	0.3791	0.3242	0.056
Mof_C 	C 	0.187	0.2975	0.2472	-0.001
Mof_C 	C 	0.2225	0.2926	0.2471	-0.085
Mof_H 	H 	0.2193	0.2653	0.2507	0.054
Mof_C 	C 	0.2626	0.3277	0.2418	-0.005
Mof_H 	H 	0.2865	0.324	0.2401	0.022
Mof_C 	C 	0.2681	0.3668	0.2389	-0.073
Mof_H 	H 	0.2957	0.3905	0.2357	0.046
Mof_C 	C 	0.2337	0.3724	0.2405	-0.007
Mof_H 	H 	0.2377	0.4001	0.2389	0.031
Mof_C 	C 	0.1942	0.3388	0.2443	-0.076
Mof_H 	H 	0.1708	0.3433	0.2451	0.057
Mof_C 	C 	0.134	0.233	0.313	0.01
Mof_C 	C 	0.1	0.1925	0.324	-0.075
Mof_H 	H 	0.0801	0.1755	0.3001	0.047
Mof_C 	C 	0.0974	0.1786	0.3729	-0.009
Mof_H 	H 	0.075	0.1515	0.3815	0.03
Mof_C 	C 	0.1255	0.2022	0.4077	-0.068
Mof_H 	H 	0.1219	0.192	0.44	0.056
Mof_C 	C 	0.1591	0.241	0.3963	-0.01
Mof_H 	H 	0.1796	0.2573	0.4202	0.036
Mof_C 	C 	0.1629	0.2565	0.3481	-0.075
Mof_H 	H 	0.1858	0.2836	0.3401	0.059
Mof_C 	C 	0.1689	0.5381	0.2255	0.028
Mof_C 	C 	0.1646	0.5343	0.1766	-0.104
Mof_H 	H 	0.1378	0.5234	0.1617	0.062
Mof_C 	C 	0.2006	0.5467	0.1487	0.026
Mof_H 	H 	0.1977	0.5432	0.1144	0.013
Mof_C 	C 	0.238	0.5629	0.1672	-0.103
Mof_H 	H 	0.2617	0.5714	0.1465	0.063
Mof_C 	C 	0.2436	0.5678	0.2152	0.016
Mof_H 	H 	0.2711	0.5795	0.2288	0.021
Mof_C 	C 	0.2079	0.5554	0.246	-0.102
Mof_H 	H 	0.2112	0.5591	0.2802	0.056
Mof_C 	C 	0.0935	0.5396	0.2357	-0.005
Mof_C 	C 	0.0533	0.5149	0.2212	-0.076
Mof_H 	H 	0.04	0.4852	0.2253	0.053
Mof_C 	C 	0.0304	0.5328	0.1999	-0.013
Mof_H 	H 	0.0025	0.5151	0.1884	0.029
Mof_C 	C 	0.0489	0.5755	0.1961	-0.064
Mof_H 	H 	0.0328	0.5881	0.1864	0.047
Mof_C 	C 	0.0911	0.6002	0.2064	-0.017
Mof_H 	H 	0.1056	0.6294	0.1985	0.03
Mof_C 	C 	0.1126	0.5821	0.2285	-0.075
Mof_H 	H 	0.141	0.5996	0.2387	0.04
Mof_O 	O 	0.1123	0.1371	0.2232	-0.352
Mof_Ag	Ag	0.79353	0.53587	0.5194	0.51
Mof_P 	P 	0.8023	0.58459	0.58495	0.001
Mof_P 	P 	0.79028	0.85326	0.59983	-0.004
Mof_C 	C 	0.68667	0.66083	0.57723	-0.039
Mof_C 	C 	0.71257	0.63943	0.58323	0.052
Mof_C 	C 	0.72327	0.62593	0.54063	-0.086
Mof_H 	H 	0.71187	0.62813	0.51053	0.054
Mof_C 	C 	0.74997	0.60963	0.54113	-0.026
Mof_H 	H 	0.75717	0.60133	0.51163	0.014
Mof_C 	C 	0.76637	0.60503	0.58583	-0.034
Mof_C 	C 	0.75437	0.61643	0.62713	-0.025
Mof_H 	H 	0.76387	0.61273	0.65793	0.041
Mof_C 	C 	0.72747	0.63403	0.62423	-0.09
Mof_H 	H 	0.71977	0.64213	0.65353	0.06
Mof_C 	C 	0.71267	0.70803	0.58313	0.048
Mof_C 	C 	0.72567	0.73273	0.54273	-0.085
Mof_H 	H 	0.71807	0.72043	0.51133	0.055
Mof_C 	C 	0.75057	0.77693	0.54803	-0.023
Mof_H 	H 	0.76047	0.79363	0.51943	0.034
Mof_C 	C 	0.76097	0.79663	0.59163	-0.032
Mof_C 	C 	0.74937	0.77223	0.63183	-0.02
Mof_H 	H 	0.75797	0.78513	0.66283	0.016
Mof_C 	C 	0.72537	0.72873	0.62863	-0.082
Mof_H 	H 	0.71707	0.71243	0.65753	0.056
Mof_C 	C 	0.85367	0.63083	0.58053	-0.001
Mof_C 	C 	0.88917	0.62593	0.58043	-0.085
Mof_H 	H 	0.88597	0.59863	0.58403	0.054
Mof_C 	C 	0.92927	0.66103	0.57513	-0.005
Mof_H 	H 	0.95317	0.65733	0.57343	0.022
Mof_C 	C 	0.93477	0.70013	0.57223	-0.073
Mof_H 	H 	0.96237	0.72383	0.56903	0.046
Mof_C 	C 	0.90037	0.70573	0.57383	-0.007
Mof_H 	H 	0.90437	0.73343	0.57223	0.031
Mof_C 	C 	0.86087	0.67213	0.57763	-0.076
Mof_H 	H 	0.83747	0.67663	0.57843	0.057
Mof_C 	C 	0.80067	0.56633	0.64633	0.01
Mof_C 	C 	0.76667	0.52583	0.65733	-0.075
Mof_H 	H 	0.74677	0.50883	0.63343	0.047
Mof_C 	C 	0.76407	0.51193	0.70623	-0.009
Mof_H 	H 	0.74167	0.48483	0.71483	0.03
Mof_C 	C 	0.79217	0.53553	0.74103	-0.068
Mof_H 	H 	0.78857	0.52533	0.77333	0.056
Mof_C 	C 	0.82577	0.57433	0.72963	-0.01
Mof_H 	H 	0.84627	0.59063	0.75353	0.036
Mof_C 	C 	0.82957	0.58983	0.68143	-0.075
Mof_H 	H 	0.85247	0.61693	0.67343	0.059
Mof_C 	C 	0.83557	0.87143	0.55883	0.028
Mof_C 	C 	0.83127	0.86763	0.50993	-0.104
Mof_H 	H 	0.80447	0.85673	0.49503	0.062
Mof_C 	C 	0.86727	0.88003	0.48203	0.026
Mof_H 	H 	0.86437	0.87653	0.44773	0.013
Mof_C 	C 	0.90467	0.89623	0.50053	-0.103
Mof_H 	H 	0.92837	0.90473	0.47983	0.063
Mof_C 	C 	0.91027	0.90113	0.54853	0.016
Mof_H 	H 	0.93777	0.91283	0.56213	0.021
Mof_C 	C 	0.87457	0.88873	0.57933	-0.102
Mof_H 	H 	0.87787	0.89243	0.61353	0.056
Mof_C 	C 	0.76017	0.87293	0.56903	-0.005
Mof_C 	C 	0.71997	0.84823	0.55453	-0.076
Mof_H 	H 	0.70667	0.81853	0.55863	0.053
Mof_C 	C 	0.69707	0.86613	0.53323	-0.013
Mof_H 	H 	0.66917	0.84843	0.52173	0.029
Mof_C 	C 	0.71557	0.90883	0.52943	-0.064
Mof_H 	H 	0.69947	0.92143	0.51973	0.047
Mof_C 	C 	0.75777	0.93353	0.53973	-0.017
Mof_H 	H 	0.77227	0.96273	0.53183	0.031
Mof_C 	C 	0.77927	0.91543	0.56183	-0.075
Mof_H 	H 	0.80767	0.93293	0.57203	0.04
Mof_O 	O 	0.77897	0.47043	0.55653	-0.352
Mof_Ag	Ag	0.46019	0.86921	0.85274	0.511
Mof_P 	P 	0.46896	0.91793	0.91829	0.001
Mof_P 	P 	0.45694	0.1866	0.93317	-0.004
Mof_C 	C 	0.35333	0.99417	0.91057	-0.037
Mof_C 	C 	0.37923	0.97277	0.91657	0.052
Mof_C 	C 	0.38993	0.95927	0.87397	-0.085
Mof_H 	H 	0.37853	0.96147	0.84387	0.054
Mof_C 	C 	0.41663	0.94297	0.87447	-0.027
Mof_H 	H 	0.42383	0.93467	0.84497	0.014
Mof_C 	C 	0.43303	0.93837	0.91917	-0.034
Mof_C 	C 	0.42103	0.94977	0.96047	-0.025
Mof_H 	H 	0.43053	0.94607	0.99127	0.041
Mof_C 	C 	0.39413	0.96737	0.95757	-0.089
Mof_H 	H 	0.38643	0.97547	0.98687	0.06
Mof_C 	C 	0.37933	0.04137	0.91647	0.047
Mof_C 	C 	0.39233	0.06607	0.87607	-0.084
Mof_H 	H 	0.38473	0.05377	0.84467	0.054
Mof_C 	C 	0.41723	0.11027	0.88137	-0.023
Mof_H 	H 	0.42713	0.12697	0.85277	0.034
Mof_C 	C 	0.42763	0.12997	0.92497	-0.031
Mof_C 	C 	0.41603	0.10557	0.96517	-0.021
Mof_H 	H 	0.42463	0.11847	0.99617	0.016
Mof_C 	C 	0.39203	0.06207	0.96197	-0.082
Mof_H 	H 	0.38373	0.04577	0.99087	0.056
Mof_C 	C 	0.52033	0.96417	0.91387	0.001
Mof_C 	C 	0.55583	0.95927	0.91377	-0.087
Mof_H 	H 	0.55263	0.93197	0.91737	0.055
Mof_C 	C 	0.59593	0.99437	0.90847	-0.002
Mof_H 	H 	0.61983	0.99067	0.90677	0.021
Mof_C 	C 	0.60143	0.03347	0.90557	-0.076
Mof_H 	H 	0.62903	0.05717	0.90237	0.047
Mof_C 	C 	0.56703	0.03907	0.90717	-0.005
Mof_H 	H 	0.57103	0.06677	0.90557	0.03
Mof_C 	C 	0.52753	0.00547	0.91097	-0.079
Mof_H 	H 	0.50413	0.00997	0.91177	0.057
Mof_C 	C 	0.46733	0.89967	0.97967	0.01
Mof_C 	C 	0.43333	0.85917	0.99067	-0.076
Mof_H 	H 	0.41343	0.84217	0.96677	0.047
Mof_C 	C 	0.43073	0.84527	0.03957	-0.008
Mof_H 	H 	0.40833	0.81817	0.04817	0.03
Mof_C 	C 	0.45883	0.86887	0.07437	-0.069
Mof_H 	H 	0.45523	0.85867	0.10667	0.056
Mof_C 	C 	0.49243	0.90767	0.06297	-0.01
Mof_H 	H 	0.51293	0.92397	0.08687	0.036
Mof_C 	C 	0.49623	0.92317	0.01477	-0.075
Mof_H 	H 	0.51913	0.95027	0.00677	0.059
Mof_C 	C 	0.50223	0.20477	0.89217	0.028
Mof_C 	C 	0.49793	0.20097	0.84327	-0.104
Mof_H 	H 	0.47113	0.19007	0.82837	0.062
Mof_C 	C 	0.53393	0.21337	0.81537	0.026
Mof_H 	H 	0.53103	0.20987	0.78107	0.013
Mof_C 	C 	0.57133	0.22957	0.83387	-0.103
Mof_H 	H 	0.59503	0.23807	0.81317	0.063
Mof_C 	C 	0.57693	0.23447	0.88187	0.016
Mof_H 	H 	0.60443	0.24617	0.89547	0.021
Mof_C 	C 	0.54123	0.22207	0.91267	-0.102
Mof_H 	H 	0.54453	0.22577	0.94687	0.056
Mof_C 	C 	0.42683	0.20627	0.90237	-0.005
Mof_C 	C 	0.38663	0.18157	0.88787	-0.076
Mof_H 	H 	0.37333	0.15187	0.89197	0.053
Mof_C 	C 	0.36373	0.19947	0.86657	-0.013
Mof_H 	H 	0.33583	0.18177	0.85507	0.029
Mof_C 	C 	0.38223	0.24217	0.86277	-0.064
Mof_H 	H 	0.36613	0.25477	0.85307	0.047
Mof_C 	C 	0.42443	0.26687	0.87307	-0.017
Mof_H 	H 	0.43893	0.29607	0.86517	0.03
Mof_C 	C 	0.44593	0.24877	0.89517	-0.075
Mof_H 	H 	0.47433	0.26627	0.90537	0.04
Mof_O 	O 	0.44563	0.80377	0.88987	-0.352
Mof_Ag	Ag	0.07568	0.87314	0.18607	0.51
Mof_P 	P 	0.11563	0.86437	0.25162	0.001
Mof_P 	P 	0.39632	0.87639	0.2665	-0.004
Mof_C 	C 	0.3075	0.98	0.2439	-0.038
Mof_C 	C 	0.2602	0.9541	0.2499	0.052
Mof_C 	C 	0.236	0.9434	0.2073	-0.085
Mof_H 	H 	0.2496	0.9548	0.1772	0.054
Mof_C 	C 	0.193	0.9167	0.2078	-0.026
Mof_H 	H 	0.1775	0.9095	0.1783	0.014
Mof_C 	C 	0.172	0.9003	0.2525	-0.034
Mof_C 	C 	0.1954	0.9123	0.2938	-0.025
Mof_H 	H 	0.1822	0.9028	0.3246	0.041
Mof_C 	C 	0.2399	0.9392	0.2909	-0.089
Mof_H 	H 	0.2557	0.9469	0.3202	0.06
Mof_C 	C 	0.3287	0.954	0.2498	0.048
Mof_C 	C 	0.3404	0.941	0.2094	-0.085
Mof_H 	H 	0.3357	0.9486	0.178	0.055
Mof_C 	C 	0.3597	0.9161	0.2147	-0.023
Mof_H 	H 	0.3665	0.9062	0.1861	0.034
Mof_C 	C 	0.369	0.9057	0.2583	-0.031
Mof_C 	C 	0.3562	0.9173	0.2985	-0.02
Mof_H 	H 	0.3605	0.9087	0.3295	0.016
Mof_C 	C 	0.3367	0.9413	0.2953	-0.082
Mof_H 	H 	0.3287	0.9496	0.3242	0.056
Mof_C 	C 	0.1105	0.813	0.2472	-0.001
Mof_C 	C 	0.0701	0.7775	0.2471	-0.085
Mof_H 	H 	0.046	0.7807	0.2507	0.054
Mof_C 	C 	0.0651	0.7374	0.2418	-0.005
Mof_H 	H 	0.0375	0.7135	0.2401	0.022
Mof_C 	C 	0.0987	0.7319	0.2389	-0.073
Mof_H 	H 	0.0948	0.7043	0.2357	0.046
Mof_C 	C 	0.1387	0.7663	0.2405	-0.007
Mof_H 	H 	0.1624	0.7623	0.2389	0.031
Mof_C 	C 	0.1446	0.8058	0.2443	-0.076
Mof_H 	H 	0.1725	0.8292	0.2451	0.057
Mof_C 	C 	0.099	0.866	0.313	0.01
Mof_C 	C 	0.0925	0.9	0.324	-0.076
Mof_H 	H 	0.0954	0.9199	0.3001	0.047
Mof_C 	C 	0.0812	0.9026	0.3729	-0.009
Mof_H 	H 	0.0765	0.925	0.3815	0.03
Mof_C 	C 	0.0767	0.8745	0.4077	-0.069
Mof_H 	H 	0.0701	0.8781	0.44	0.056
Mof_C 	C 	0.0819	0.8409	0.3963	-0.01
Mof_H 	H 	0.0777	0.8204	0.4202	0.036
Mof_C 	C 	0.0936	0.8371	0.3481	-0.075
Mof_H 	H 	0.0978	0.8142	0.3401	0.059
Mof_C 	C 	0.3692	0.8311	0.2255	0.028
Mof_C 	C 	0.3697	0.8354	0.1766	-0.104
Mof_H 	H 	0.3856	0.8622	0.1617	0.062
Mof_C 	C 	0.3461	0.7994	0.1487	0.026
Mof_H 	H 	0.3455	0.8023	0.1144	0.013
Mof_C 	C 	0.3249	0.762	0.1672	-0.103
Mof_H 	H 	0.3097	0.7383	0.1465	0.063
Mof_C 	C 	0.3242	0.7564	0.2152	0.016
Mof_H 	H 	0.3084	0.7289	0.2288	0.021
Mof_C 	C 	0.3475	0.7921	0.246	-0.102
Mof_H 	H 	0.3479	0.7888	0.2802	0.056
Mof_C 	C 	0.4461	0.9065	0.2357	-0.005
Mof_C 	C 	0.4616	0.9467	0.2212	-0.076
Mof_H 	H 	0.4452	0.96	0.2253	0.053
Mof_C 	C 	0.5024	0.9696	0.1999	-0.013
Mof_H 	H 	0.5126	0.9975	0.1884	0.029
Mof_C 	C 	0.5266	0.9511	0.1961	-0.064
Mof_H 	H 	0.5553	0.9672	0.1864	0.047
Mof_C 	C 	0.5091	0.9089	0.2064	-0.017
Mof_H 	H 	0.5238	0.8944	0.1985	0.03
Mof_C 	C 	0.4695	0.8874	0.2285	-0.075
Mof_H 	H 	0.4586	0.859	0.2387	0.04
Mof_O 	O 	0.0248	0.8877	0.2232	-0.352
Mof_Ag	Ag	0.74235	0.20647	0.5194	0.51
Mof_P 	P 	0.7823	0.1977	0.58495	0.001
Mof_P 	P 	0.06299	0.20972	0.59983	-0.004
Mof_C 	C 	0.97417	0.31333	0.57723	-0.04
Mof_C 	C 	0.92687	0.28743	0.58323	0.053
Mof_C 	C 	0.90267	0.27673	0.54063	-0.086
Mof_H 	H 	0.91627	0.28813	0.51053	0.055
Mof_C 	C 	0.85967	0.25003	0.54113	-0.026
Mof_H 	H 	0.84417	0.24283	0.51163	0.014
Mof_C 	C 	0.83867	0.23363	0.58583	-0.035
Mof_C 	C 	0.86207	0.24563	0.62713	-0.024
Mof_H 	H 	0.84887	0.23613	0.65793	0.041
Mof_C 	C 	0.90657	0.27253	0.62423	-0.09
Mof_H 	H 	0.92237	0.28023	0.65353	0.06
Mof_C 	C 	0.99537	0.28733	0.58313	0.052
Mof_C 	C 	0.00707	0.27433	0.54273	-0.088
Mof_H 	H 	0.00237	0.28193	0.51133	0.056
Mof_C 	C 	0.02637	0.24943	0.54803	-0.021
Mof_H 	H 	0.03317	0.23953	0.51943	0.033
Mof_C 	C 	0.03567	0.23903	0.59163	-0.033
Mof_C 	C 	0.02287	0.25063	0.63183	-0.018
Mof_H 	H 	0.02717	0.24203	0.66283	0.015
Mof_C 	C 	0.00337	0.27463	0.62863	-0.087
Mof_H 	H 	0.99537	0.28293	0.65753	0.058
Mof_C 	C 	0.77717	0.14633	0.58053	-0.001
Mof_C 	C 	0.73677	0.11083	0.58043	-0.085
Mof_H 	H 	0.71267	0.11403	0.58403	0.054
Mof_C 	C 	0.73177	0.07073	0.57513	-0.005
Mof_H 	H 	0.70417	0.04683	0.57343	0.022
Mof_C 	C 	0.76537	0.06523	0.57223	-0.073
Mof_H 	H 	0.76147	0.03763	0.56903	0.046
Mof_C 	C 	0.80537	0.09963	0.57383	-0.007
Mof_H 	H 	0.82907	0.09563	0.57223	0.031
Mof_C 	C 	0.81127	0.13913	0.57763	-0.076
Mof_H 	H 	0.83917	0.16253	0.57843	0.057
Mof_C 	C 	0.76567	0.19933	0.64633	0.01
Mof_C 	C 	0.75917	0.23333	0.65733	-0.075
Mof_H 	H 	0.76207	0.25323	0.63343	0.047
Mof_C 	C 	0.74787	0.23593	0.70623	-0.009
Mof_H 	H 	0.74317	0.25833	0.71483	0.03
Mof_C 	C 	0.74337	0.20783	0.74103	-0.068
Mof_H 	H 	0.73677	0.21143	0.77333	0.056
Mof_C 	C 	0.74857	0.17423	0.72963	-0.01
Mof_H 	H 	0.74437	0.15373	0.75353	0.036
Mof_C 	C 	0.76027	0.17043	0.68143	-0.075
Mof_H 	H 	0.76447	0.14753	0.67343	0.059
Mof_C 	C 	0.03587	0.16443	0.55883	0.028
Mof_C 	C 	0.03637	0.16873	0.50993	-0.103
Mof_H 	H 	0.05227	0.19553	0.49503	0.062
Mof_C 	C 	0.01277	0.13273	0.48203	0.024
Mof_H 	H 	0.01217	0.13563	0.44773	0.014
Mof_C 	C 	0.99157	0.09533	0.50053	-0.101
Mof_H 	H 	0.97637	0.07163	0.47983	0.062
Mof_C 	C 	0.99087	0.08973	0.54853	0.016
Mof_H 	H 	0.97507	0.06223	0.56213	0.021
Mof_C 	C 	0.01417	0.12543	0.57933	-0.102
Mof_H 	H 	0.01457	0.12213	0.61353	0.056
Mof_C 	C 	0.11277	0.23983	0.56903	-0.005
Mof_C 	C 	0.12827	0.28003	0.55453	-0.076
Mof_H 	H 	0.11187	0.29333	0.55863	0.053
Mof_C 	C 	0.16907	0.30293	0.53323	-0.013
Mof_H 	H 	0.17927	0.33083	0.52173	0.029
Mof_C 	C 	0.19327	0.28443	0.52943	-0.064
Mof_H 	H 	0.22197	0.30053	0.51973	0.047
Mof_C 	C 	0.17577	0.24223	0.53973	-0.017
Mof_H 	H 	0.19047	0.22773	0.53183	0.031
Mof_C 	C 	0.13617	0.22073	0.56183	-0.075
Mof_H 	H 	0.12527	0.19233	0.57203	0.04
Mof_O 	O 	0.69147	0.22103	0.55653	-0.352
Mof_Ag	Ag	0.40901	0.53981	0.85274	0.51
Mof_P 	P 	0.44896	0.53104	0.91829	0.001
Mof_P 	P 	0.72965	0.54306	0.93317	-0.004
Mof_C 	C 	0.64083	0.64667	0.91057	-0.039
Mof_C 	C 	0.59353	0.62077	0.91657	0.052
Mof_C 	C 	0.56933	0.61007	0.87397	-0.086
Mof_H 	H 	0.58293	0.62147	0.84387	0.054
Mof_C 	C 	0.52633	0.58337	0.87447	-0.026
Mof_H 	H 	0.51083	0.57617	0.84497	0.014
Mof_C 	C 	0.50533	0.56697	0.91917	-0.034
Mof_C 	C 	0.52873	0.57897	0.96047	-0.025
Mof_H 	H 	0.51553	0.56947	0.99127	0.041
Mof_C 	C 	0.57323	0.60587	0.95757	-0.09
Mof_H 	H 	0.58903	0.61357	0.98687	0.06
Mof_C 	C 	0.66203	0.62067	0.91647	0.048
Mof_C 	C 	0.67373	0.60767	0.87607	-0.085
Mof_H 	H 	0.66903	0.61527	0.84467	0.055
Mof_C 	C 	0.69303	0.58277	0.88137	-0.023
Mof_H 	H 	0.69983	0.57287	0.85277	0.034
Mof_C 	C 	0.70233	0.57237	0.92497	-0.031
Mof_C 	C 	0.68953	0.58397	0.96517	-0.02
Mof_H 	H 	0.69383	0.57537	0.99617	0.016
Mof_C 	C 	0.67003	0.60797	0.96197	-0.082
Mof_H 	H 	0.66203	0.61627	0.99087	0.056
Mof_C 	C 	0.44383	0.47967	0.91387	-0.001
Mof_C 	C 	0.40343	0.44417	0.91377	-0.085
Mof_H 	H 	0.37933	0.44737	0.91737	0.054
Mof_C 	C 	0.39843	0.40407	0.90847	-0.005
Mof_H 	H 	0.37083	0.38017	0.90677	0.022
Mof_C 	C 	0.43203	0.39857	0.90557	-0.073
Mof_H 	H 	0.42813	0.37097	0.90237	0.046
Mof_C 	C 	0.47203	0.43297	0.90717	-0.007
Mof_H 	H 	0.49573	0.42897	0.90557	0.031
Mof_C 	C 	0.47793	0.47247	0.91097	-0.076
Mof_H 	H 	0.50583	0.49587	0.91177	0.057
Mof_C 	C 	0.43233	0.53267	0.97967	0.01
Mof_C 	C 	0.42583	0.56667	0.99067	-0.075
Mof_H 	H 	0.42873	0.58657	0.96677	0.047
Mof_C 	C 	0.41453	0.56927	0.03957	-0.009
Mof_H 	H 	0.40983	0.59167	0.04817	0.03
Mof_C 	C 	0.41003	0.54117	0.07437	-0.068
Mof_H 	H 	0.40343	0.54477	0.10667	0.056
Mof_C 	C 	0.41523	0.50757	0.06297	-0.01
Mof_H 	H 	0.41103	0.48707	0.08687	0.036
Mof_C 	C 	0.42693	0.50377	0.01477	-0.075
Mof_H 	H 	0.43113	0.48087	0.00677	0.059
Mof_C 	C 	0.70253	0.49777	0.89217	0.028
Mof_C 	C 	0.70303	0.50207	0.84327	-0.104
Mof_H 	H 	0.71893	0.52887	0.82837	0.062
Mof_C 	C 	0.67943	0.46607	0.81537	0.026
Mof_H 	H 	0.67883	0.46897	0.78107	0.013
Mof_C 	C 	0.65823	0.42867	0.83387	-0.103
Mof_H 	H 	0.64303	0.40497	0.81317	0.063
Mof_C 	C 	0.65753	0.42307	0.88187	0.016
Mof_H 	H 	0.64173	0.39557	0.89547	0.021
Mof_C 	C 	0.68083	0.45877	0.91267	-0.102
Mof_H 	H 	0.68123	0.45547	0.94687	0.056
Mof_C 	C 	0.77943	0.57317	0.90237	-0.005
Mof_C 	C 	0.79493	0.61337	0.88787	-0.076
Mof_H 	H 	0.77853	0.62667	0.89197	0.053
Mof_C 	C 	0.83573	0.63627	0.86657	-0.013
Mof_H 	H 	0.84593	0.66417	0.85507	0.029
Mof_C 	C 	0.85993	0.61777	0.86277	-0.064
Mof_H 	H 	0.88863	0.63387	0.85307	0.047
Mof_C 	C 	0.84243	0.57557	0.87307	-0.017
Mof_H 	H 	0.85713	0.56107	0.86517	0.031
Mof_C 	C 	0.80283	0.55407	0.89517	-0.075
Mof_H 	H 	0.79193	0.52567	0.90537	0.04
Mof_O 	O 	0.35813	0.55437	0.88987	-0.352
Mof_C 	C 	-1.20878e-17	0.1435	0.75	0.501
Mof_O 	O 	-1.20878e-17	0.1768	0.75	-0.369
Mof_C 	C 	0.66667	0.47683	0.08333	0.502
Mof_O 	O 	0.66667	0.51013	0.08333	-0.369
Mof_C 	C 	0.33333	0.81017	0.41667	0.502
Mof_O 	O 	0.33333	0.84347	0.41667	-0.369
Mof_C 	C 	0.8565	0.8565	0.75	0.502
Mof_O 	O 	0.8232	0.8232	0.75	-0.369
Mof_C 	C 	0.52317	0.18983	0.08333	0.502
Mof_O 	O 	0.48987	0.15653	0.08333	-0.369
Mof_C 	C 	0.18983	0.52317	0.41667	0.502
Mof_O 	O 	0.15653	0.48987	0.41667	-0.369
Mof_C 	C 	0.1435	0	0.75	0.502
Mof_O 	O 	0.1768	0	0.75	-0.369
Mof_C 	C 	0.81017	0.33333	0.08333	0.502
Mof_O 	O 	0.84347	0.33333	0.08333	-0.369
Mof_C 	C 	0.47683	0.66667	0.41667	0.502
Mof_O 	O 	0.51013	0.66667	0.41667	-0.369
Mof_C 	C 	-2.29967e-17	0.8565	0.25	0.501
Mof_O 	O 	-2.29967e-17	0.8232	0.25	-0.369
Mof_C 	C 	0.66667	0.18983	0.58333	0.502
Mof_O 	O 	0.66667	0.15653	0.58333	-0.369
Mof_C 	C 	0.33333	0.52317	0.91667	0.502
Mof_O 	O 	0.33333	0.48987	0.91667	-0.369
Mof_C 	C 	0.1435	0.1435	0.25	0.502
Mof_O 	O 	0.1768	0.1768	0.25	-0.369
Mof_C 	C 	0.81017	0.47683	0.58333	0.502
Mof_O 	O 	0.84347	0.51013	0.58333	-0.369
Mof_C 	C 	0.47683	0.81017	0.91667	0.502
Mof_O 	O 	0.51013	0.84347	0.91667	-0.369
Mof_C 	C 	0.8565	0	0.25	0.501
Mof_O 	O 	0.8232	0	0.25	-0.369
Mof_C 	C 	0.52317	0.33333	0.58333	0.502
Mof_O 	O 	0.48987	0.33333	0.58333	-0.369
Mof_C 	C 	0.18983	0.66667	0.91667	0.502
Mof_O 	O 	0.15653	0.66667	0.91667	-0.369
_end
