data_functionalizedCrystal
_audit_creation_method	'EQeq! by Chris Wilmer'
_symmetry_space_group_name_H-M	'P1'
_symmetry_Int_Tables_number	1
_symmetry_cell_setting	triclinic
loop_
_symmetry_equiv_pos_as_xyz
  x,y,z
_cell_length_a	11.127
_cell_length_b	7.087
_cell_length_c	6.5183
_cell_angle_alpha	90
_cell_angle_beta	109.334
_cell_angle_gamma	90
loop_
_atom_site_label
_atom_site_type_symbol
_atom_site_fract_x
_atom_site_fract_y
_atom_site_fract_z
_atom_site_charge
Mof_O 	O 	0.0072	0.7885	0.334	-0.357
Mof_O 	O 	0.8306	0.838	0.886	-0.365
Mof_O 	O 	0.6548	0.983	0.88	-0.382
Mof_C 	C 	0.7633	0.935	0.966	0.792
Mof_H 	H 	0.8019	0.976	0.108	-0.226
Mof_O 	O 	0.5072	0.2885	0.334	-0.411
Mof_O 	O 	0.3306	0.338	0.886	-0.495
Mof_O 	O 	0.1548	0.483	0.88	-0.527
Mof_C 	C 	0.2633	0.435	0.966	0.877
Mof_H 	H 	0.3019	0.476	0.108	-0.33
Mof_O 	O 	0.9928	0.7885	0.666	-0.113
Mof_O 	O 	0.1694	0.838	0.114	-0.388
Mof_O 	O 	0.3452	0.983	0.12	-0.33
Mof_C 	C 	0.2367	0.935	0.034	0.277
Mof_H 	H 	0.1981	0.976	0.892	0.035
Mof_O 	O 	0.4928	0.2885	0.666	-0.366
Mof_O 	O 	0.6694	0.338	0.114	-0.402
Mof_O 	O 	0.8452	0.483	0.12	-0.342
Mof_C 	C 	0.7367	0.435	0.034	0.255
Mof_H 	H 	0.6981	0.476	0.892	0.041
Mof_Yb	Yb	-6.50572e-33	0.643	-0	1.107
Mof_Yb	Yb	0.5	0.143	-0	1.204
Mof_C 	C 	-1.46496e-17	0.708	0.5	0.22
Mof_H 	H 	-1.46496e-17	0.5766	0.5	-0.08
Mof_C 	C 	0.5	0.208	0.5	0.483
Mof_H 	H 	0.5	0.0766	0.5	-0.177
_end
