data_functionalizedCrystal
_audit_creation_method	'EQeq! by Chris Wilmer'
_symmetry_space_group_name_H-M	'P1'
_symmetry_Int_Tables_number	1
_symmetry_cell_setting	triclinic
loop_
_symmetry_equiv_pos_as_xyz
  x,y,z
_cell_length_a	13.0836
_cell_length_b	13.0836
_cell_length_c	8.0916
_cell_angle_alpha	90
_cell_angle_beta	90
_cell_angle_gamma	90
loop_
_atom_site_label
_atom_site_type_symbol
_atom_site_fract_x
_atom_site_fract_y
_atom_site_fract_z
_atom_site_charge
Mof_N 	N 	0.1693	0.16	0.5921	-0.256
Mof_N 	N 	0.0153	0.0345	0.0616	-0.076
Mof_C 	C 	0.1151	0.2038	0.473	0.109
Mof_H 	H 	0.104	0.2739	0.4779	-0.023
Mof_C 	C 	0.0742	0.1495	0.341	-0.202
Mof_H 	H 	0.0366	0.1834	0.2603	0.109
Mof_C 	C 	0.0886	0.0484	0.33	0.149
Mof_C 	C 	0.1397	0.0025	0.46	-0.209
Mof_H 	H 	0.147	0.9318	0.4622	0.1
Mof_C 	C 	0.1788	0.059	0.5842	0.124
Mof_H 	H 	0.2142	0.0253	0.6681	-0.029
Mof_C 	C 	0.0496	0.9905	0.19	-0.072
Mof_H 	H 	0.0496	0.9194	0.1953	0.061
Mof_N 	N 	0.3307	0.34	0.5921	-0.256
Mof_N 	N 	0.4847	0.4655	0.0616	-0.078
Mof_C 	C 	0.3849	0.2962	0.473	0.109
Mof_H 	H 	0.396	0.2261	0.4779	-0.022
Mof_C 	C 	0.4258	0.3505	0.341	-0.2
Mof_H 	H 	0.4634	0.3166	0.2603	0.108
Mof_C 	C 	0.4114	0.4516	0.33	0.146
Mof_C 	C 	0.3603	0.4975	0.46	-0.209
Mof_H 	H 	0.353	0.5682	0.4622	0.101
Mof_C 	C 	0.3212	0.441	0.5842	0.124
Mof_H 	H 	0.2858	0.4747	0.6681	-0.029
Mof_C 	C 	0.4504	0.5095	0.19	-0.068
Mof_H 	H 	0.4504	0.5806	0.1953	0.06
Mof_N 	N 	0.84	0.6693	0.0921	-0.255
Mof_N 	N 	0.9655	0.5153	0.5616	-0.077
Mof_C 	C 	0.7962	0.6151	0.973	0.109
Mof_H 	H 	0.7261	0.604	0.9779	-0.022
Mof_C 	C 	0.8505	0.5742	0.841	-0.199
Mof_H 	H 	0.8166	0.5366	0.7603	0.107
Mof_C 	C 	0.9516	0.5886	0.83	0.144
Mof_C 	C 	0.9975	0.6397	0.96	-0.2
Mof_H 	H 	0.0682	0.647	0.9622	0.097
Mof_C 	C 	0.941	0.6788	0.0842	0.118
Mof_H 	H 	0.9747	0.7142	0.1681	-0.027
Mof_C 	C 	0.0095	0.5496	0.69	-0.068
Mof_H 	H 	0.0806	0.5496	0.6953	0.06
Mof_N 	N 	0.66	0.8307	0.0921	-0.256
Mof_N 	N 	0.5345	0.9847	0.5616	-0.078
Mof_C 	C 	0.7038	0.8849	0.973	0.109
Mof_H 	H 	0.7739	0.896	0.9779	-0.022
Mof_C 	C 	0.6495	0.9258	0.841	-0.2
Mof_H 	H 	0.6834	0.9634	0.7603	0.108
Mof_C 	C 	0.5484	0.9114	0.83	0.146
Mof_C 	C 	0.5025	0.8603	0.96	-0.208
Mof_H 	H 	0.4318	0.853	0.9622	0.101
Mof_C 	C 	0.559	0.8212	0.0842	0.123
Mof_H 	H 	0.5253	0.7858	0.1681	-0.029
Mof_C 	C 	0.4905	0.9504	0.69	-0.068
Mof_H 	H 	0.4194	0.9504	0.6953	0.06
Mof_N 	N 	0.8307	0.84	0.4079	-0.256
Mof_N 	N 	0.9847	0.9655	0.9384	-0.076
Mof_C 	C 	0.8849	0.7962	0.527	0.109
Mof_H 	H 	0.896	0.7261	0.5221	-0.023
Mof_C 	C 	0.9258	0.8505	0.659	-0.202
Mof_H 	H 	0.9634	0.8166	0.7397	0.109
Mof_C 	C 	0.9114	0.9516	0.67	0.149
Mof_C 	C 	0.8603	0.9975	0.54	-0.209
Mof_H 	H 	0.853	0.0682	0.5378	0.1
Mof_C 	C 	0.8212	0.941	0.4158	0.124
Mof_H 	H 	0.7858	0.9747	0.3319	-0.029
Mof_C 	C 	0.9504	0.0095	0.81	-0.072
Mof_H 	H 	0.9504	0.0806	0.8047	0.061
Mof_N 	N 	0.6693	0.66	0.4079	-0.256
Mof_N 	N 	0.5153	0.5345	0.9384	-0.078
Mof_C 	C 	0.6151	0.7038	0.527	0.109
Mof_H 	H 	0.604	0.7739	0.5221	-0.022
Mof_C 	C 	0.5742	0.6495	0.659	-0.2
Mof_H 	H 	0.5366	0.6834	0.7397	0.108
Mof_C 	C 	0.5886	0.5484	0.67	0.146
Mof_C 	C 	0.6397	0.5025	0.54	-0.209
Mof_H 	H 	0.647	0.4318	0.5378	0.101
Mof_C 	C 	0.6788	0.559	0.4158	0.124
Mof_H 	H 	0.7142	0.5253	0.3319	-0.029
Mof_C 	C 	0.5496	0.4905	0.81	-0.068
Mof_H 	H 	0.5496	0.4194	0.8047	0.06
Mof_N 	N 	0.16	0.3307	0.9079	-0.255
Mof_N 	N 	0.0345	0.4847	0.4384	-0.077
Mof_C 	C 	0.2038	0.3849	0.027	0.109
Mof_H 	H 	0.2739	0.396	0.0221	-0.022
Mof_C 	C 	0.1495	0.4258	0.159	-0.199
Mof_H 	H 	0.1834	0.4634	0.2397	0.107
Mof_C 	C 	0.0484	0.4114	0.17	0.144
Mof_C 	C 	0.0025	0.3603	0.04	-0.2
Mof_H 	H 	0.9318	0.353	0.0378	0.097
Mof_C 	C 	0.059	0.3212	0.9158	0.118
Mof_H 	H 	0.0253	0.2858	0.8319	-0.027
Mof_C 	C 	0.9905	0.4504	0.31	-0.068
Mof_H 	H 	0.9194	0.4504	0.3047	0.06
Mof_N 	N 	0.34	0.1693	0.9079	-0.256
Mof_N 	N 	0.4655	0.0153	0.4384	-0.078
Mof_C 	C 	0.2962	0.1151	0.027	0.109
Mof_H 	H 	0.2261	0.104	0.0221	-0.022
Mof_C 	C 	0.3505	0.0742	0.159	-0.2
Mof_H 	H 	0.3166	0.0366	0.2397	0.108
Mof_C 	C 	0.4516	0.0886	0.17	0.146
Mof_C 	C 	0.4975	0.1397	0.04	-0.208
Mof_H 	H 	0.5682	0.147	0.0378	0.101
Mof_C 	C 	0.441	0.1788	0.9158	0.123
Mof_H 	H 	0.4747	0.2142	0.8319	-0.029
Mof_C 	C 	0.5095	0.0496	0.31	-0.068
Mof_H 	H 	0.5806	0.0496	0.3047	0.06
Mof_Cu	Cu	0.25	0.25	0.75	0.856
Mof_Cu	Cu	0.75	0.75	0.25	0.856
_end
