data_functionalizedCrystal
_audit_creation_method	'EQeq! by Chris Wilmer'
_symmetry_space_group_name_H-M	'P1'
_symmetry_Int_Tables_number	1
_symmetry_cell_setting	triclinic
loop_
_symmetry_equiv_pos_as_xyz
  x,y,z
_cell_length_a	7.785
_cell_length_b	10.238
_cell_length_c	15.851
_cell_angle_alpha	90
_cell_angle_beta	90
_cell_angle_gamma	90
loop_
_atom_site_label
_atom_site_type_symbol
_atom_site_fract_x
_atom_site_fract_y
_atom_site_fract_z
_atom_site_charge
Mof_Fe	Fe	0.63812	0.52983	0.90166	0.745
Mof_Fe	Fe	0.36188	0.47017	0.40166	0.747
Mof_Fe	Fe	0.13812	0.97017	0.90166	0.74
Mof_Fe	Fe	0.86188	0.02983	0.40166	0.743
Mof_H 	H 	0.586	0.9493	0.7107	0.127
Mof_H 	H 	0.4508	0.4112	0.5864	0.035
Mof_H 	H 	0.3424	0.7516	0.4854	0.024
Mof_H 	H 	0.4443	0.8599	0.6027	0.073
Mof_H 	H 	0.5634	0.5091	0.7045	0.067
Mof_H 	H 	0.414	0.0507	0.2107	0.128
Mof_H 	H 	0.5492	0.5888	0.0864	0.036
Mof_H 	H 	0.6576	0.2484	0.9854	0.018
Mof_H 	H 	0.5557	0.1401	0.1027	0.075
Mof_H 	H 	0.4366	0.4909	0.2045	0.068
Mof_H 	H 	0.086	0.5507	0.7107	0.127
Mof_H 	H 	0.9508	0.0888	0.5864	0.028
Mof_H 	H 	0.8424	0.7484	0.4854	0.024
Mof_H 	H 	0.9443	0.6401	0.6027	0.073
Mof_H 	H 	0.0634	0.9909	0.7045	0.07
Mof_H 	H 	0.914	0.4493	0.2107	0.127
Mof_H 	H 	0.0492	0.9112	0.0864	0.032
Mof_H 	H 	0.1576	0.2516	0.9854	0.016
Mof_H 	H 	0.0557	0.3599	0.1027	0.075
Mof_H 	H 	0.9366	0.0091	0.2045	0.07
Mof_C 	C 	0.453	0.5039	0.58913	0.069
Mof_C 	C 	0.3889	0.7019	0.53056	0.07
Mof_C 	C 	0.4504	0.7674	0.59996	-0.103
Mof_C 	C 	0.5193	0.5613	0.65991	-0.099
Mof_C 	C 	0.5215	0.6967	0.666	0.026
Mof_C 	C 	0.6054	0.7591	0.73815	0.117
Mof_C 	C 	0.7324	0.913	0.81253	0.007
Mof_C 	C 	0.765	0.7912	0.84698	-0.046
Mof_C 	C 	0.7808	0.0502	0.83547	0.308
Mof_C 	C 	0.8668	0.7511	0.92164	0.342
Mof_C 	C 	0.547	0.4961	0.08913	0.071
Mof_C 	C 	0.6111	0.2981	0.03056	0.079
Mof_C 	C 	0.5496	0.2326	0.09996	-0.107
Mof_C 	C 	0.4807	0.4387	0.15991	-0.1
Mof_C 	C 	0.4785	0.3033	0.166	0.028
Mof_C 	C 	0.3946	0.2409	0.23815	0.116
Mof_C 	C 	0.2676	0.087	0.31253	0.007
Mof_C 	C 	0.235	0.2088	0.34698	-0.045
Mof_C 	C 	0.2192	0.9498	0.33547	0.309
Mof_C 	C 	0.1332	0.2489	0.42164	0.341
Mof_C 	C 	0.953	0.9961	0.58913	0.083
Mof_C 	C 	0.8889	0.7981	0.53056	0.071
Mof_C 	C 	0.9504	0.7326	0.59996	-0.102
Mof_C 	C 	0.0193	0.9387	0.65991	-0.109
Mof_C 	C 	0.0215	0.8033	0.666	0.027
Mof_C 	C 	0.1054	0.7409	0.73815	0.115
Mof_C 	C 	0.2324	0.587	0.81253	0.005
Mof_C 	C 	0.265	0.7088	0.84698	-0.046
Mof_C 	C 	0.2808	0.4498	0.83547	0.309
Mof_C 	C 	0.3668	0.7489	0.92164	0.341
Mof_C 	C 	0.047	0.0039	0.08913	0.081
Mof_C 	C 	0.1111	0.2019	0.03056	0.083
Mof_C 	C 	0.0496	0.2674	0.09996	-0.107
Mof_C 	C 	0.9807	0.0613	0.15991	-0.11
Mof_C 	C 	0.9785	0.1967	0.166	0.028
Mof_C 	C 	0.8946	0.2591	0.23815	0.115
Mof_C 	C 	0.7676	0.413	0.31253	0.005
Mof_C 	C 	0.735	0.2912	0.34698	-0.046
Mof_C 	C 	0.7192	0.5502	0.33547	0.31
Mof_C 	C 	0.6332	0.2511	0.42164	0.341
Mof_N 	N 	0.391	0.5718	0.52328	-0.168
Mof_N 	N 	0.6294	0.88968	0.74455	-0.192
Mof_N 	N 	0.6822	0.69604	0.8005	-0.155
Mof_N 	N 	0.609	0.4282	0.02328	-0.168
Mof_N 	N 	0.3706	0.11032	0.24455	-0.192
Mof_N 	N 	0.3178	0.30396	0.3005	-0.155
Mof_N 	N 	0.891	0.9282	0.52328	-0.169
Mof_N 	N 	0.1294	0.61032	0.74455	-0.191
Mof_N 	N 	0.1822	0.80396	0.8005	-0.155
Mof_N 	N 	0.109	0.0718	0.02328	-0.169
Mof_N 	N 	0.8706	0.38968	0.24455	-0.191
Mof_N 	N 	0.8178	0.19604	0.3005	-0.155
Mof_O 	O 	0.6652	0.13332	0.82898	-0.241
Mof_O 	O 	0.9322	0.07457	0.85673	-0.341
Mof_O 	O 	0.9705	0.82871	0.95412	-0.331
Mof_O 	O 	0.8448	0.63518	0.94765	-0.335
Mof_O 	O 	0.3348	0.86668	0.32898	-0.241
Mof_O 	O 	0.0678	0.92543	0.35673	-0.34
Mof_O 	O 	0.0295	0.17129	0.45412	-0.33
Mof_O 	O 	0.1552	0.36482	0.44765	-0.334
Mof_O 	O 	0.1652	0.36668	0.82898	-0.242
Mof_O 	O 	0.4322	0.42543	0.85673	-0.341
Mof_O 	O 	0.4705	0.67129	0.95412	-0.333
Mof_O 	O 	0.3448	0.86482	0.94765	-0.335
Mof_O 	O 	0.8348	0.63332	0.32898	-0.241
Mof_O 	O 	0.5678	0.57457	0.35673	-0.341
Mof_O 	O 	0.5295	0.32871	0.45412	-0.332
Mof_O 	O 	0.6552	0.13518	0.44765	-0.334
_end
