data_functionalizedCrystal
_audit_creation_method	'EQeq! by Chris Wilmer'
_symmetry_space_group_name_H-M	'P1'
_symmetry_Int_Tables_number	1
_symmetry_cell_setting	triclinic
loop_
_symmetry_equiv_pos_as_xyz
  x,y,z
_cell_length_a	10
_cell_length_b	10
_cell_length_c	10
_cell_angle_alpha	90
_cell_angle_beta	90
_cell_angle_gamma	90
loop_
_atom_site_label
_atom_site_type_symbol
_atom_site_fract_x
_atom_site_fract_y
_atom_site_fract_z
_atom_site_charge
Mof_O 	O 	0.5827	0.8909	0.6326	-1.763
Mof_O 	O 	0.6588	0.9413	0.5734	-0.476
Mof_C 	C 	0.6321	0.906	0.629	-0.739
Mof_C 	C 	0.6812	0.8707	0.6606	3.693
Mof_C 	C 	0.7408	0.8774	0.6531	1.633
Mof_H 	H 	0.7557	0.907	0.6238	-2.499
Mof_C 	C 	0.7785	0.8408	0.6886	0.253
Mof_H 	H 	0.8192	0.8454	0.6834	1.009
Mof_C 	C 	0.7567	0.7974	0.7316	-3.393
Mof_C 	C 	0.6972	0.7906	0.7391	0.124
Mof_H 	H 	0.6823	0.761	0.7685	1.317
Mof_C 	C 	0.6594	0.8272	0.7037	1.297
Mof_H 	H 	0.6187	0.8225	0.7089	-1.952
Mof_O 	O 	0.4173	0.1091	0.6326	-2.244
Mof_O 	O 	0.3412	0.0587	0.5734	-0.03
Mof_C 	C 	0.3679	0.094	0.629	-0.746
Mof_C 	C 	0.3188	0.1293	0.6606	3.937
Mof_C 	C 	0.2592	0.1226	0.6531	1.761
Mof_H 	H 	0.2443	0.093	0.6238	-2.666
Mof_C 	C 	0.2215	0.1592	0.6886	0.301
Mof_H 	H 	0.1808	0.1546	0.6834	1.177
Mof_C 	C 	0.2433	0.2026	0.7316	-3.629
Mof_C 	C 	0.3028	0.2094	0.7391	0.102
Mof_H 	H 	0.3177	0.239	0.7685	1.424
Mof_C 	C 	0.3406	0.1728	0.7037	1.348
Mof_H 	H 	0.3813	0.1775	0.7089	-2.005
Mof_O 	O 	0.1091	0.5827	0.1326	-2.062
Mof_O 	O 	0.0587	0.6588	0.0734	-0.077
Mof_C 	C 	0.094	0.6321	0.129	-0.787
Mof_C 	C 	0.1293	0.6812	0.1606	3.783
Mof_C 	C 	0.1226	0.7408	0.1531	1.69
Mof_H 	H 	0.093	0.7557	0.1238	-2.568
Mof_C 	C 	0.1592	0.7785	0.1886	0.283
Mof_H 	H 	0.1546	0.8192	0.1834	1.056
Mof_C 	C 	0.2026	0.7567	0.2316	-3.438
Mof_C 	C 	0.2094	0.6972	0.2391	0.133
Mof_H 	H 	0.239	0.6823	0.2685	1.329
Mof_C 	C 	0.1728	0.6594	0.2037	1.321
Mof_H 	H 	0.1775	0.6187	0.2089	-1.962
Mof_O 	O 	0.8909	0.4173	0.1326	-1.856
Mof_O 	O 	0.9413	0.3412	0.0734	-0.413
Mof_C 	C 	0.906	0.3679	0.129	-0.71
Mof_C 	C 	0.8707	0.3188	0.1606	3.752
Mof_C 	C 	0.8774	0.2592	0.1531	1.666
Mof_H 	H 	0.907	0.2443	0.1238	-2.533
Mof_C 	C 	0.8408	0.2215	0.1886	0.267
Mof_H 	H 	0.8454	0.1808	0.1834	1.1
Mof_C 	C 	0.7974	0.2433	0.2316	-3.499
Mof_C 	C 	0.7906	0.3028	0.2391	0.092
Mof_H 	H 	0.761	0.3177	0.2685	1.375
Mof_C 	C 	0.8272	0.3406	0.2037	1.294
Mof_H 	H 	0.8225	0.3813	0.2089	-1.953
Mof_O 	O 	0.4173	0.8909	0.3674	-1.811
Mof_O 	O 	0.3412	0.9413	0.4266	-0.476
Mof_C 	C 	0.3679	0.906	0.371	-0.718
Mof_C 	C 	0.3188	0.8707	0.3394	3.749
Mof_C 	C 	0.2592	0.8774	0.3469	1.67
Mof_H 	H 	0.2443	0.907	0.3762	-2.528
Mof_C 	C 	0.2215	0.8408	0.3114	0.272
Mof_H 	H 	0.1808	0.8454	0.3166	1.089
Mof_C 	C 	0.2433	0.7974	0.2684	-3.489
Mof_C 	C 	0.3028	0.7906	0.2609	0.097
Mof_H 	H 	0.3177	0.761	0.2315	1.369
Mof_C 	C 	0.3406	0.8272	0.2963	1.296
Mof_H 	H 	0.3813	0.8225	0.2911	-1.962
Mof_O 	O 	0.5827	0.1091	0.3674	-2.122
Mof_O 	O 	0.6588	0.0587	0.4266	-0.003
Mof_C 	C 	0.6321	0.094	0.371	-0.793
Mof_C 	C 	0.6812	0.1293	0.3394	3.778
Mof_C 	C 	0.7408	0.1226	0.3469	1.693
Mof_H 	H 	0.7557	0.093	0.3762	-2.572
Mof_C 	C 	0.7785	0.1592	0.3114	0.288
Mof_H 	H 	0.8192	0.1546	0.3166	1.056
Mof_C 	C 	0.7567	0.2026	0.2684	-3.43
Mof_C 	C 	0.6972	0.2094	0.2609	0.138
Mof_H 	H 	0.6823	0.239	0.2315	1.32
Mof_C 	C 	0.6594	0.1728	0.2963	1.323
Mof_H 	H 	0.6187	0.1775	0.2911	-1.95
Mof_O 	O 	0.8909	0.5827	0.8674	-1.715
Mof_O 	O 	0.9413	0.6588	0.9266	-0.546
Mof_C 	C 	0.906	0.6321	0.871	-0.75
Mof_C 	C 	0.8707	0.6812	0.8394	3.685
Mof_C 	C 	0.8774	0.7408	0.8469	1.639
Mof_H 	H 	0.907	0.7557	0.8762	-2.491
Mof_C 	C 	0.8408	0.7785	0.8114	0.263
Mof_H 	H 	0.8454	0.8192	0.8166	0.994
Mof_C 	C 	0.7974	0.7567	0.7684	-3.377
Mof_C 	C 	0.7906	0.6972	0.7609	0.132
Mof_H 	H 	0.761	0.6823	0.7315	1.309
Mof_C 	C 	0.8272	0.6594	0.7963	1.301
Mof_H 	H 	0.8225	0.6187	0.7911	-1.961
Mof_O 	O 	0.1091	0.4173	0.8674	-2.323
Mof_O 	O 	0.0587	0.3412	0.9266	0.07
Mof_C 	C 	0.094	0.3679	0.871	-0.75
Mof_C 	C 	0.1293	0.3188	0.8394	3.934
Mof_C 	C 	0.1226	0.2592	0.8469	1.762
Mof_H 	H 	0.093	0.2443	0.8762	-2.675
Mof_C 	C 	0.1592	0.2215	0.8114	0.303
Mof_H 	H 	0.1546	0.1808	0.8166	1.181
Mof_C 	C 	0.2026	0.2433	0.7684	-3.623
Mof_C 	C 	0.2094	0.3028	0.7609	0.107
Mof_H 	H 	0.239	0.3177	0.7315	1.413
Mof_C 	C 	0.1728	0.3406	0.7963	1.35
Mof_H 	H 	0.1775	0.3813	0.7911	-1.991
Mof_O 	O 	0.4173	0.1091	0.3674	-2.216
Mof_O 	O 	0.3412	0.0587	0.4266	-0.021
Mof_C 	C 	0.3679	0.094	0.371	-0.756
Mof_C 	C 	0.3188	0.1293	0.3394	3.897
Mof_C 	C 	0.2592	0.1226	0.3469	1.748
Mof_H 	H 	0.2443	0.093	0.3762	-2.642
Mof_C 	C 	0.2215	0.1592	0.3114	0.303
Mof_H 	H 	0.1808	0.1546	0.3166	1.159
Mof_C 	C 	0.2433	0.2026	0.2684	-3.589
Mof_C 	C 	0.3028	0.2094	0.2609	0.106
Mof_H 	H 	0.3177	0.239	0.2315	1.401
Mof_C 	C 	0.3406	0.1728	0.2963	1.338
Mof_H 	H 	0.3813	0.1775	0.2911	-1.988
Mof_O 	O 	0.5827	0.8909	0.3674	-1.717
Mof_O 	O 	0.6588	0.9413	0.4266	-0.458
Mof_C 	C 	0.6321	0.906	0.371	-0.755
Mof_C 	C 	0.6812	0.8707	0.3394	3.63
Mof_C 	C 	0.7408	0.8774	0.3469	1.614
Mof_H 	H 	0.7557	0.907	0.3762	-2.459
Mof_C 	C 	0.7785	0.8408	0.3114	0.257
Mof_H 	H 	0.8192	0.8454	0.3166	0.986
Mof_C 	C 	0.7567	0.7974	0.2684	-3.331
Mof_C 	C 	0.6972	0.7906	0.2609	0.129
Mof_H 	H 	0.6823	0.761	0.2315	1.289
Mof_C 	C 	0.6594	0.8272	0.2963	1.282
Mof_H 	H 	0.6187	0.8225	0.2911	-1.924
Mof_O 	O 	0.8909	0.4173	0.8674	-1.81
Mof_O 	O 	0.9413	0.3412	0.9266	-0.563
Mof_C 	C 	0.906	0.3679	0.871	-0.713
Mof_C 	C 	0.8707	0.3188	0.8394	3.805
Mof_C 	C 	0.8774	0.2592	0.8469	1.695
Mof_H 	H 	0.907	0.2443	0.8762	-2.56
Mof_C 	C 	0.8408	0.2215	0.8114	0.279
Mof_H 	H 	0.8454	0.1808	0.8166	1.097
Mof_C 	C 	0.7974	0.2433	0.7684	-3.536
Mof_C 	C 	0.7906	0.3028	0.7609	0.1
Mof_H 	H 	0.761	0.3177	0.7315	1.392
Mof_C 	C 	0.8272	0.3406	0.7963	1.316
Mof_H 	H 	0.8225	0.3813	0.7911	-1.999
Mof_O 	O 	0.1091	0.5827	0.8674	-2.228
Mof_O 	O 	0.0587	0.6588	0.9266	0.087
Mof_C 	C 	0.094	0.6321	0.871	-0.787
Mof_C 	C 	0.1293	0.6812	0.8394	3.815
Mof_C 	C 	0.1226	0.7408	0.8469	1.706
Mof_H 	H 	0.093	0.7557	0.8762	-2.605
Mof_C 	C 	0.1592	0.7785	0.8114	0.288
Mof_H 	H 	0.1546	0.8192	0.8166	1.077
Mof_C 	C 	0.2026	0.7567	0.7684	-3.464
Mof_C 	C 	0.2094	0.6972	0.7609	0.139
Mof_H 	H 	0.239	0.6823	0.7315	1.33
Mof_C 	C 	0.1728	0.6594	0.7963	1.335
Mof_H 	H 	0.1775	0.6187	0.7911	-1.953
Mof_O 	O 	0.5827	0.1091	0.6326	-2.167
Mof_O 	O 	0.6588	0.0587	0.5734	-0.02
Mof_C 	C 	0.6321	0.094	0.629	-0.776
Mof_C 	C 	0.6812	0.1293	0.6606	3.842
Mof_C 	C 	0.7408	0.1226	0.6531	1.712
Mof_H 	H 	0.7557	0.093	0.6238	-2.612
Mof_C 	C 	0.7785	0.1592	0.6886	0.283
Mof_H 	H 	0.8192	0.1546	0.6834	1.08
Mof_C 	C 	0.7567	0.2026	0.7316	-3.493
Mof_C 	C 	0.6972	0.2094	0.7391	0.133
Mof_H 	H 	0.6823	0.239	0.7685	1.349
Mof_C 	C 	0.6594	0.1728	0.7037	1.339
Mof_H 	H 	0.6187	0.1775	0.7089	-1.978
Mof_O 	O 	0.4173	0.8909	0.6326	-1.839
Mof_O 	O 	0.3412	0.9413	0.5734	-0.485
Mof_C 	C 	0.3679	0.906	0.629	-0.707
Mof_C 	C 	0.3188	0.8707	0.6606	3.789
Mof_C 	C 	0.2592	0.8774	0.6531	1.682
Mof_H 	H 	0.2443	0.907	0.6238	-2.552
Mof_C 	C 	0.2215	0.8408	0.6886	0.271
Mof_H 	H 	0.1808	0.8454	0.6834	1.106
Mof_C 	C 	0.2433	0.7974	0.7316	-3.53
Mof_C 	C 	0.3028	0.7906	0.7391	0.093
Mof_H 	H 	0.3177	0.761	0.7685	1.393
Mof_C 	C 	0.3406	0.8272	0.7037	1.306
Mof_H 	H 	0.3813	0.8225	0.7089	-1.979
Mof_O 	O 	0.1091	0.4173	0.1326	-2.157
Mof_O 	O 	0.0587	0.3412	0.0734	-0.094
Mof_C 	C 	0.094	0.3679	0.129	-0.749
Mof_C 	C 	0.1293	0.3188	0.1606	3.903
Mof_C 	C 	0.1226	0.2592	0.1531	1.745
Mof_H 	H 	0.093	0.2443	0.1238	-2.638
Mof_C 	C 	0.1592	0.2215	0.1886	0.298
Mof_H 	H 	0.1546	0.1808	0.1834	1.159
Mof_C 	C 	0.2026	0.2433	0.2316	-3.597
Mof_C 	C 	0.2094	0.3028	0.2391	0.1
Mof_H 	H 	0.239	0.3177	0.2685	1.412
Mof_C 	C 	0.1728	0.3406	0.2037	1.336
Mof_H 	H 	0.1775	0.3813	0.2089	-2
Mof_O 	O 	0.8909	0.5827	0.1326	-1.761
Mof_O 	O 	0.9413	0.6588	0.0734	-0.397
Mof_C 	C 	0.906	0.6321	0.129	-0.747
Mof_C 	C 	0.8707	0.6812	0.1606	3.633
Mof_C 	C 	0.8774	0.7408	0.1531	1.61
Mof_H 	H 	0.907	0.7557	0.1238	-2.464
Mof_C 	C 	0.8408	0.7785	0.1886	0.251
Mof_H 	H 	0.8454	0.8192	0.1834	0.997
Mof_C 	C 	0.7974	0.7567	0.2316	-3.34
Mof_C 	C 	0.7906	0.6972	0.2391	0.124
Mof_H 	H 	0.761	0.6823	0.2685	1.292
Mof_C 	C 	0.8272	0.6594	0.2037	1.279
Mof_H 	H 	0.8225	0.6187	0.2089	-1.914
Mof_Zr	Zr	0.5	0.92371	0.59281	4.03
Mof_O 	O 	0.5	0.9502	0.7037	0.498
Mof_O 	O 	0.5	0.8247	0.5814	0.136
Mof_C 	C 	0.5	0.05211	0.8519	-0.041
Mof_H 	H 	0.5	0.0878	0.8271	0.51
Mof_C 	C 	0.5	0.05213	0.9244	0.137
Mof_H 	H 	0.5	0.0878	0.9492	-0.188
Mof_Zr	Zr	0.5	0.07629	0.59281	4.053
Mof_O 	O 	0.5	0.0498	0.7037	1.394
Mof_O 	O 	0.5	0.1753	0.5814	0.276
Mof_C 	C 	0.5	0.94789	0.8519	0.26
Mof_H 	H 	0.5	0.9122	0.8271	0.283
Mof_C 	C 	0.5	0.94787	0.9244	0.456
Mof_H 	H 	0.5	0.9122	0.9492	-0.512
Mof_Zr	Zr	0.07629	0.5	0.09281	4.054
Mof_O 	O 	0.0498	0.5	0.2037	1.31
Mof_O 	O 	0.1753	0.5	0.0814	0.218
Mof_C 	C 	0.94789	0.5	0.3519	0.246
Mof_H 	H 	0.9122	0.5	0.3271	0.282
Mof_C 	C 	0.94787	0.5	0.4244	0.448
Mof_H 	H 	0.9122	0.5	0.4492	-0.502
Mof_Zr	Zr	0.92371	0.5	0.09281	4.033
Mof_O 	O 	0.9502	0.5	0.2037	0.549
Mof_O 	O 	0.8247	0.5	0.0814	0.134
Mof_C 	C 	0.05211	0.5	0.3519	-0.046
Mof_H 	H 	0.0878	0.5	0.3271	0.519
Mof_C 	C 	0.05213	0.5	0.4244	0.13
Mof_H 	H 	0.0878	0.5	0.4492	-0.184
Mof_Zr	Zr	0.5	0.92371	0.40719	4.029
Mof_O 	O 	0.5	0.9502	0.2963	0.503
Mof_O 	O 	0.5	0.8247	0.4186	0.113
Mof_C 	C 	0.5	0.05211	0.1481	-0.04
Mof_H 	H 	0.5	0.0878	0.1729	0.512
Mof_C 	C 	0.5	0.05213	0.0756	0.135
Mof_H 	H 	0.5	0.0878	0.0508	-0.228
Mof_Zr	Zr	0.5	0.07629	0.40719	4.052
Mof_O 	O 	0.5	0.0498	0.2963	1.398
Mof_O 	O 	0.5	0.1753	0.4186	0.253
Mof_C 	C 	0.5	0.94789	0.1481	0.261
Mof_H 	H 	0.5	0.9122	0.1729	0.285
Mof_C 	C 	0.5	0.94787	0.0756	0.454
Mof_H 	H 	0.5	0.9122	0.0508	-0.552
Mof_Zr	Zr	0.92371	0.5	0.90719	4.022
Mof_O 	O 	0.9502	0.5	0.7963	0.45
Mof_O 	O 	0.8247	0.5	0.9186	0.113
Mof_C 	C 	0.05211	0.5	0.6481	-0.016
Mof_H 	H 	0.0878	0.5	0.6729	0.481
Mof_C 	C 	0.05213	0.5	0.5756	0.16
Mof_H 	H 	0.0878	0.5	0.5508	-0.237
Mof_Zr	Zr	0.07629	0.5	0.90719	4.054
Mof_O 	O 	0.0498	0.5	0.7963	1.492
Mof_O 	O 	0.1753	0.5	0.9186	0.351
Mof_C 	C 	0.94789	0.5	0.6481	0.31
Mof_H 	H 	0.9122	0.5	0.6729	0.25
Mof_C 	C 	0.94787	0.5	0.5756	0.496
Mof_H 	H 	0.9122	0.5	0.5508	-0.585
Mof_Zr	Zr	0.60867	0	0.5	3.913
Mof_Zr	Zr	0.39133	0	0.5	3.912
Mof_Zr	Zr	-0	0.60867	-0	3.906
Mof_Zr	Zr	3.15544e-33	0.39133	-0	3.905
Mof_O 	O 	0.5562	0	0.5931	-2.203
Mof_O 	O 	0.4438	0	0.5931	-2.168
Mof_O 	O 	3.50451e-33	0.5562	0.0931	-2.236
Mof_O 	O 	3.49069e-34	0.4438	0.0931	-2.188
Mof_O 	O 	0.4438	0	0.4069	-2.176
Mof_O 	O 	0.5562	0	0.4069	-2.226
Mof_O 	O 	3.40033e-33	0.5562	0.9069	-2.17
Mof_O 	O 	-2.91056e-33	0.4438	0.9069	-2.122
Mof_C 	C 	0.5	0	0.7368	-0.578
Mof_C 	C 	0.5	0	0.8155	-1.205
Mof_C 	C 	0.5	0	0.9608	0.183
Mof_C 	C 	8.87858e-34	0.5	0.2368	-0.564
Mof_C 	C 	-1.97251e-33	0.5	0.3155	-1.194
Mof_C 	C 	1.11941e-32	0.5	0.4608	0.175
Mof_C 	C 	0.5	3.15544e-33	0.2632	-0.599
Mof_C 	C 	0.5	0	0.1845	-1.208
Mof_C 	C 	0.5	0	0.0392	0.24
Mof_C 	C 	-3.44935e-33	0.5	0.7632	-0.629
Mof_C 	C 	8.87735e-33	0.5	0.6845	-1.212
Mof_C 	C 	-4.28921e-33	0.5	0.5392	0.223
Mof_O 	O 	0.5514	0.9183	0.5	-1.879
Mof_O 	O 	0.4486	0.0817	0.5	-1.821
Mof_O 	O 	0.0817	0.5514	-0	-1.882
Mof_O 	O 	0.9183	0.4486	-0	-1.851
Mof_O 	O 	0.4486	0.9183	0.5	-1.861
Mof_O 	O 	0.5514	0.0817	0.5	-1.84
Mof_O 	O 	0.9183	0.5514	-0	-1.87
Mof_O 	O 	0.0817	0.4486	-0	-1.863
_end
