data_functionalizedCrystal
_audit_creation_method	'EQeq! by Chris Wilmer'
_symmetry_space_group_name_H-M	'P1'
_symmetry_Int_Tables_number	1
_symmetry_cell_setting	triclinic
loop_
_symmetry_equiv_pos_as_xyz
  x,y,z
_cell_length_a	20.608
_cell_length_b	20.608
_cell_length_c	22.35
_cell_angle_alpha	90
_cell_angle_beta	90
_cell_angle_gamma	90
loop_
_atom_site_label
_atom_site_type_symbol
_atom_site_fract_x
_atom_site_fract_y
_atom_site_fract_z
_atom_site_charge
Mof_Cd	Cd	0.71886	0.20871	0.11437	0.291
Mof_N 	N 	0.6134	0.1986	0.1497	-0.184
Mof_N 	N 	0.8153	0.2399	0.0713	-0.181
Mof_N 	N 	0.6763	0.2187	0.0166	-0.17
Mof_C 	C 	0.5979	0.1508	0.1862	0.143
Mof_C 	C 	0.5669	0.2416	0.1324	0.1
Mof_H 	H 	0.6304	0.1207	0.198	-0.025
Mof_C 	C 	0.5346	0.1434	0.2077	-0.265
Mof_C 	C 	0.5051	0.2379	0.1518	-0.186
Mof_H 	H 	0.5784	0.2755	0.1057	-0.01
Mof_C 	C 	0.5203	0.0881	0.248	0.618
Mof_C 	C 	0.488	0.1871	0.1913	0.139
Mof_H 	H 	0.4737	0.2688	0.1391	0.083
Mof_O 	O 	0.4632	0.0874	0.2703	-0.673
Mof_O 	O 	0.5632	0.0481	0.2573	-0.713
Mof_H 	H 	0.4449	0.1835	0.2061	-0.016
Mof_Cr	Cr	0.42236	0.01945	0.3192	2.057
Mof_O 	O 	0.3704	0.9545	0.3617	-0.657
Mof_O 	O 	0.3958	0.0896	0.3742	-0.671
Mof_C 	C 	0.3731	0.939	0.4162	0.58
Mof_C 	C 	0.4204	0.1136	0.421	0.585
Mof_O 	O 	0.5363	0.9121	0.453	-0.658
Mof_O 	O 	0.4137	0.9588	0.454	-0.652
Mof_C 	C 	0.322	0.8922	0.4373	-0.227
Mof_C 	C 	0.3954	0.1772	0.441	-0.239
Mof_C 	C 	0.325	0.8671	0.4944	0.123
Mof_C 	C 	0.2725	0.8732	0.3998	0.117
Mof_C 	C 	0.3429	0.2047	0.4111	0.13
Mof_C 	C 	0.4229	0.2103	0.49	0.119
Mof_H 	H 	0.3596	0.8807	0.5196	-0.004
Mof_C 	C 	0.2259	0.8307	0.4226	-0.168
Mof_H 	H 	0.2702	0.8885	0.3598	-0.006
Mof_H 	H 	0.3261	0.1832	0.3768	-0.018
Mof_C 	C 	0.3933	0.268	0.5071	-0.178
Mof_H 	H 	0.46	0.194	0.5103	-0.009
Mof_C 	C 	0.2338	0.8063	0.4803	0.09
Mof_H 	H 	0.1894	0.8185	0.3992	0.077
Mof_C 	C 	0.3427	0.2916	0.4758	0.096
Mof_H 	H 	0.4089	0.2908	0.5411	0.08
Mof_H 	H 	0.2032	0.7753	0.4943	-0.003
Mof_H 	H 	0.3252	0.3324	0.4873	-0.009
Mof_Cd	Cd	0.28114	0.79129	0.11437	0.293
Mof_N 	N 	0.3866	0.8014	0.1497	-0.183
Mof_N 	N 	0.1847	0.7601	0.0713	-0.179
Mof_N 	N 	0.3237	0.7813	0.0166	-0.172
Mof_C 	C 	0.4021	0.8492	0.1862	0.142
Mof_C 	C 	0.4331	0.7584	0.1324	0.099
Mof_H 	H 	0.3696	0.8793	0.198	-0.02
Mof_C 	C 	0.4654	0.8566	0.2077	-0.259
Mof_C 	C 	0.4949	0.7621	0.1518	-0.184
Mof_H 	H 	0.4216	0.7245	0.1057	-0.01
Mof_C 	C 	0.4797	0.9119	0.248	0.615
Mof_C 	C 	0.512	0.8129	0.1913	0.137
Mof_H 	H 	0.5263	0.7312	0.1391	0.083
Mof_O 	O 	0.5368	0.9126	0.2703	-0.681
Mof_O 	O 	0.4368	0.9519	0.2573	-0.677
Mof_H 	H 	0.5551	0.8165	0.2061	-0.013
Mof_Cr	Cr	0.57764	0.98055	0.3192	2.179
Mof_O 	O 	0.6296	0.0455	0.3617	-0.695
Mof_O 	O 	0.6042	0.9104	0.3742	-0.68
Mof_C 	C 	0.6269	0.061	0.4162	0.59
Mof_C 	C 	0.5796	0.8864	0.421	0.592
Mof_O 	O 	0.4637	0.0879	0.453	-0.666
Mof_O 	O 	0.5863	0.0412	0.454	-0.673
Mof_C 	C 	0.678	0.1078	0.4373	-0.236
Mof_C 	C 	0.6046	0.8228	0.441	-0.239
Mof_C 	C 	0.675	0.1329	0.4944	0.126
Mof_C 	C 	0.7275	0.1268	0.3998	0.121
Mof_C 	C 	0.6571	0.7953	0.4111	0.132
Mof_C 	C 	0.5771	0.7897	0.49	0.121
Mof_H 	H 	0.6404	0.1193	0.5196	-0.008
Mof_C 	C 	0.7741	0.1693	0.4226	-0.171
Mof_H 	H 	0.7298	0.1115	0.3598	-0.011
Mof_H 	H 	0.6739	0.8168	0.3768	-0.015
Mof_C 	C 	0.6067	0.732	0.5071	-0.177
Mof_H 	H 	0.54	0.806	0.5103	-0.008
Mof_C 	C 	0.7662	0.1937	0.4803	0.092
Mof_H 	H 	0.8106	0.1815	0.3992	0.078
Mof_C 	C 	0.6573	0.7084	0.4758	0.097
Mof_H 	H 	0.5911	0.7092	0.5411	0.08
Mof_H 	H 	0.7968	0.2247	0.4943	-0.002
Mof_H 	H 	0.6748	0.6676	0.4873	-0.009
Mof_Cd	Cd	0.20871	0.28114	0.88563	0.287
Mof_N 	N 	0.1986	0.3866	0.8503	-0.184
Mof_N 	N 	0.2399	0.1847	0.9287	-0.181
Mof_N 	N 	0.2187	0.3237	0.9834	-0.171
Mof_C 	C 	0.1508	0.4021	0.8138	0.143
Mof_C 	C 	0.2416	0.4331	0.8676	0.099
Mof_H 	H 	0.1207	0.3696	0.802	-0.026
Mof_C 	C 	0.1434	0.4654	0.7923	-0.265
Mof_C 	C 	0.2379	0.4949	0.8482	-0.186
Mof_H 	H 	0.2755	0.4216	0.8943	-0.01
Mof_C 	C 	0.0881	0.4797	0.752	0.618
Mof_C 	C 	0.1871	0.512	0.8087	0.139
Mof_H 	H 	0.2688	0.5263	0.8609	0.083
Mof_O 	O 	0.0874	0.5368	0.7297	-0.673
Mof_O 	O 	0.0481	0.4368	0.7427	-0.713
Mof_H 	H 	0.1835	0.5551	0.7939	-0.016
Mof_Cr	Cr	0.01945	0.57764	0.6808	2.058
Mof_O 	O 	0.9545	0.6296	0.6383	-0.657
Mof_O 	O 	0.0896	0.6042	0.6258	-0.67
Mof_C 	C 	0.939	0.6269	0.5838	0.58
Mof_C 	C 	0.1136	0.5796	0.579	0.585
Mof_O 	O 	0.9121	0.4637	0.547	-0.658
Mof_O 	O 	0.9588	0.5863	0.546	-0.652
Mof_C 	C 	0.8922	0.678	0.5627	-0.226
Mof_C 	C 	0.1772	0.6046	0.559	-0.239
Mof_C 	C 	0.8671	0.675	0.5056	0.124
Mof_C 	C 	0.8732	0.7275	0.6002	0.117
Mof_C 	C 	0.2047	0.6571	0.5889	0.13
Mof_C 	C 	0.2103	0.5771	0.51	0.119
Mof_H 	H 	0.8807	0.6404	0.4804	-0.004
Mof_C 	C 	0.8307	0.7741	0.5774	-0.166
Mof_H 	H 	0.8885	0.7298	0.6402	-0.005
Mof_H 	H 	0.1832	0.6739	0.6232	-0.017
Mof_C 	C 	0.268	0.6067	0.4929	-0.178
Mof_H 	H 	0.194	0.54	0.4897	-0.009
Mof_C 	C 	0.8063	0.7662	0.5197	0.091
Mof_H 	H 	0.8185	0.8106	0.6008	0.08
Mof_C 	C 	0.2916	0.6573	0.5242	0.096
Mof_H 	H 	0.2908	0.5911	0.4589	0.08
Mof_H 	H 	0.7753	0.7968	0.5057	-0
Mof_H 	H 	0.3324	0.6748	0.5127	-0.009
Mof_Cd	Cd	0.79129	0.71886	0.88563	0.296
Mof_N 	N 	0.8014	0.6134	0.8503	-0.182
Mof_N 	N 	0.7601	0.8153	0.9287	-0.179
Mof_N 	N 	0.7813	0.6763	0.9834	-0.171
Mof_C 	C 	0.8492	0.5979	0.8138	0.142
Mof_C 	C 	0.7584	0.5669	0.8676	0.099
Mof_H 	H 	0.8793	0.6304	0.802	-0.019
Mof_C 	C 	0.8566	0.5346	0.7923	-0.259
Mof_C 	C 	0.7621	0.5051	0.8482	-0.184
Mof_H 	H 	0.7245	0.5784	0.8943	-0.009
Mof_C 	C 	0.9119	0.5203	0.752	0.615
Mof_C 	C 	0.8129	0.488	0.8087	0.137
Mof_H 	H 	0.7312	0.4737	0.8609	0.083
Mof_O 	O 	0.9126	0.4632	0.7297	-0.681
Mof_O 	O 	0.9519	0.5632	0.7427	-0.676
Mof_H 	H 	0.8165	0.4449	0.7939	-0.014
Mof_Cr	Cr	0.98055	0.42236	0.6808	2.177
Mof_O 	O 	0.0455	0.3704	0.6383	-0.696
Mof_O 	O 	0.9104	0.3958	0.6258	-0.68
Mof_C 	C 	0.061	0.3731	0.5838	0.589
Mof_C 	C 	0.8864	0.4204	0.579	0.592
Mof_O 	O 	0.0879	0.5363	0.547	-0.666
Mof_O 	O 	0.0412	0.4137	0.546	-0.673
Mof_C 	C 	0.1078	0.322	0.5627	-0.237
Mof_C 	C 	0.8228	0.3954	0.559	-0.239
Mof_C 	C 	0.1329	0.325	0.5056	0.126
Mof_C 	C 	0.1268	0.2725	0.6002	0.12
Mof_C 	C 	0.7953	0.3429	0.5889	0.132
Mof_C 	C 	0.7897	0.4229	0.51	0.121
Mof_H 	H 	0.1193	0.3596	0.4804	-0.008
Mof_C 	C 	0.1693	0.2259	0.5774	-0.173
Mof_H 	H 	0.1115	0.2702	0.6402	-0.013
Mof_H 	H 	0.8168	0.3261	0.6232	-0.016
Mof_C 	C 	0.732	0.3933	0.4929	-0.178
Mof_H 	H 	0.806	0.46	0.4897	-0.008
Mof_C 	C 	0.1937	0.2338	0.5197	0.091
Mof_H 	H 	0.1815	0.1894	0.6008	0.075
Mof_C 	C 	0.7084	0.3427	0.5242	0.097
Mof_H 	H 	0.7092	0.4089	0.4589	0.08
Mof_H 	H 	0.2247	0.2032	0.5057	-0.005
Mof_H 	H 	0.6676	0.3252	0.5127	-0.009
Mof_Cd	Cd	0.78114	0.70871	0.38563	0.294
Mof_N 	N 	0.8866	0.6986	0.3503	-0.164
Mof_N 	N 	0.6847	0.7399	0.4287	-0.179
Mof_N 	N 	0.8237	0.7187	0.4834	-0.17
Mof_C 	C 	0.9021	0.6508	0.3138	0.111
Mof_C 	C 	0.9331	0.7416	0.3676	0.034
Mof_H 	H 	0.8696	0.6207	0.302	-0.012
Mof_C 	C 	0.9654	0.6434	0.2923	-0.193
Mof_C 	C 	0.9949	0.7379	0.3482	-0.045
Mof_H 	H 	0.9216	0.7755	0.3943	0.019
Mof_C 	C 	0.9797	0.5881	0.252	0.621
Mof_C 	C 	0.012	0.6871	0.3087	0.012
Mof_H 	H 	0.0263	0.7688	0.3609	0.024
Mof_O 	O 	0.0368	0.5874	0.2297	-0.69
Mof_O 	O 	0.9368	0.5481	0.2427	-0.694
Mof_H 	H 	0.0551	0.6835	0.2939	0.023
Mof_Cr	Cr	0.07764	0.51945	0.1808	2.102
Mof_O 	O 	0.1296	0.4545	0.1383	-0.676
Mof_O 	O 	0.1042	0.5896	0.1258	-0.674
Mof_C 	C 	0.1269	0.439	0.0838	0.583
Mof_C 	C 	0.0796	0.6136	0.079	0.587
Mof_O 	O 	0.9637	0.4121	0.047	-0.653
Mof_O 	O 	0.0863	0.4588	0.046	-0.669
Mof_C 	C 	0.178	0.3922	0.0627	-0.233
Mof_C 	C 	0.1046	0.6772	0.059	-0.239
Mof_C 	C 	0.175	0.3671	0.0056	0.123
Mof_C 	C 	0.2275	0.3732	0.1002	0.118
Mof_C 	C 	0.1571	0.7047	0.0889	0.129
Mof_C 	C 	0.0771	0.7103	0.01	0.113
Mof_H 	H 	0.1404	0.3807	0.9804	-0.008
Mof_C 	C 	0.2741	0.3307	0.0774	-0.17
Mof_H 	H 	0.2298	0.3885	0.1402	-0.009
Mof_H 	H 	0.1739	0.6832	0.1232	-0.017
Mof_C 	C 	0.1067	0.768	0.9929	-0.172
Mof_H 	H 	0.04	0.694	0.9897	-0.01
Mof_C 	C 	0.2662	0.3063	0.0197	0.09
Mof_H 	H 	0.3106	0.3185	0.1008	0.077
Mof_C 	C 	0.1573	0.7916	0.0242	0.092
Mof_H 	H 	0.0911	0.7908	0.9589	0.077
Mof_H 	H 	0.2968	0.2753	0.0057	-0.003
Mof_H 	H 	0.1748	0.8324	0.0127	-0.006
Mof_Cd	Cd	0.21886	0.29129	0.38563	0.289
Mof_N 	N 	0.1134	0.3014	0.3503	-0.203
Mof_N 	N 	0.3153	0.2601	0.4287	-0.18
Mof_N 	N 	0.1763	0.2813	0.4834	-0.172
Mof_C 	C 	0.0979	0.3492	0.3138	0.174
Mof_C 	C 	0.0669	0.2584	0.3676	0.165
Mof_H 	H 	0.1304	0.3793	0.302	-0.033
Mof_C 	C 	0.0346	0.3566	0.2923	-0.331
Mof_C 	C 	0.0051	0.2621	0.3482	-0.324
Mof_H 	H 	0.0784	0.2245	0.3943	-0.037
Mof_C 	C 	0.0203	0.4119	0.252	0.613
Mof_C 	C 	0.988	0.3129	0.3087	0.264
Mof_H 	H 	0.9737	0.2312	0.3609	0.143
Mof_O 	O 	0.9632	0.4126	0.2297	-0.664
Mof_O 	O 	0.0632	0.4519	0.2427	-0.696
Mof_H 	H 	0.9449	0.3165	0.2939	-0.053
Mof_Cr	Cr	0.92236	0.48055	0.1808	2.133
Mof_O 	O 	0.8704	0.5455	0.1383	-0.677
Mof_O 	O 	0.8958	0.4104	0.1258	-0.676
Mof_C 	C 	0.8731	0.561	0.0838	0.586
Mof_C 	C 	0.9204	0.3864	0.079	0.59
Mof_O 	O 	0.0363	0.5879	0.047	-0.67
Mof_O 	O 	0.9137	0.5412	0.046	-0.656
Mof_C 	C 	0.822	0.6078	0.0627	-0.23
Mof_C 	C 	0.8954	0.3228	0.059	-0.239
Mof_C 	C 	0.825	0.6329	0.0056	0.126
Mof_C 	C 	0.7725	0.6268	0.1002	0.119
Mof_C 	C 	0.8429	0.2953	0.0889	0.132
Mof_C 	C 	0.9229	0.2897	0.01	0.126
Mof_H 	H 	0.8596	0.6193	0.9804	-0.004
Mof_C 	C 	0.7259	0.6693	0.0774	-0.169
Mof_H 	H 	0.7702	0.6115	0.1402	-0.008
Mof_H 	H 	0.8261	0.3168	0.1232	-0.017
Mof_C 	C 	0.8933	0.232	0.9929	-0.183
Mof_H 	H 	0.96	0.306	0.9897	-0.007
Mof_C 	C 	0.7338	0.6937	0.0197	0.092
Mof_H 	H 	0.6894	0.6815	0.1008	0.078
Mof_C 	C 	0.8427	0.2084	0.0242	0.101
Mof_H 	H 	0.9089	0.2092	0.9589	0.083
Mof_H 	H 	0.7032	0.7247	0.0057	-0.003
Mof_H 	H 	0.8252	0.1676	0.0127	-0.012
Mof_Cd	Cd	0.29129	0.78114	0.61437	0.291
Mof_N 	N 	0.3014	0.8866	0.6497	-0.164
Mof_N 	N 	0.2601	0.6847	0.5713	-0.18
Mof_N 	N 	0.2813	0.8237	0.5166	-0.17
Mof_C 	C 	0.3492	0.9021	0.6862	0.111
Mof_C 	C 	0.2584	0.9331	0.6324	0.033
Mof_H 	H 	0.3793	0.8696	0.698	-0.012
Mof_C 	C 	0.3566	0.9654	0.7077	-0.193
Mof_C 	C 	0.2621	0.9949	0.6518	-0.046
Mof_H 	H 	0.2245	0.9216	0.6057	0.016
Mof_C 	C 	0.4119	0.9797	0.748	0.621
Mof_C 	C 	0.3129	0.012	0.6913	0.011
Mof_H 	H 	0.2312	0.0263	0.6391	0.021
Mof_O 	O 	0.4126	0.0368	0.7703	-0.69
Mof_O 	O 	0.4519	0.9368	0.7573	-0.694
Mof_H 	H 	0.3165	0.0551	0.7061	0.022
Mof_Cr	Cr	0.48055	0.07764	0.8192	2.102
Mof_O 	O 	0.5455	0.1296	0.8617	-0.676
Mof_O 	O 	0.4104	0.1042	0.8742	-0.675
Mof_C 	C 	0.561	0.1269	0.9162	0.583
Mof_C 	C 	0.3864	0.0796	0.921	0.588
Mof_O 	O 	0.5879	0.9637	0.953	-0.653
Mof_O 	O 	0.5412	0.0863	0.954	-0.668
Mof_C 	C 	0.6078	0.178	0.9373	-0.232
Mof_C 	C 	0.3228	0.1046	0.941	-0.241
Mof_C 	C 	0.6329	0.175	0.9944	0.122
Mof_C 	C 	0.6268	0.2275	0.8998	0.118
Mof_C 	C 	0.2953	0.1571	0.9111	0.13
Mof_C 	C 	0.2897	0.0771	0.99	0.117
Mof_H 	H 	0.6193	0.1404	0.0196	-0.007
Mof_C 	C 	0.6693	0.2741	0.9226	-0.169
Mof_H 	H 	0.6115	0.2298	0.8598	-0.009
Mof_H 	H 	0.3168	0.1739	0.8768	-0.018
Mof_C 	C 	0.232	0.1067	0.0071	-0.179
Mof_H 	H 	0.306	0.04	0.0103	-0.013
Mof_C 	C 	0.6937	0.2662	0.9803	0.089
Mof_H 	H 	0.6815	0.3106	0.8992	0.077
Mof_C 	C 	0.2084	0.1573	0.9758	0.094
Mof_H 	H 	0.2092	0.0911	0.0411	0.075
Mof_H 	H 	0.7247	0.2968	0.9943	-0.003
Mof_H 	H 	0.1676	0.1748	0.9873	-0.013
Mof_Cd	Cd	0.70871	0.21886	0.61437	0.292
Mof_N 	N 	0.6986	0.1134	0.6497	-0.203
Mof_N 	N 	0.7399	0.3153	0.5713	-0.18
Mof_N 	N 	0.7187	0.1763	0.5166	-0.172
Mof_C 	C 	0.6508	0.0979	0.6862	0.175
Mof_C 	C 	0.7416	0.0669	0.6324	0.166
Mof_H 	H 	0.6207	0.1304	0.698	-0.033
Mof_C 	C 	0.6434	0.0346	0.7077	-0.33
Mof_C 	C 	0.7379	0.0051	0.6518	-0.323
Mof_H 	H 	0.7755	0.0784	0.6057	-0.034
Mof_C 	C 	0.5881	0.0203	0.748	0.613
Mof_C 	C 	0.6871	0.988	0.6913	0.265
Mof_H 	H 	0.7688	0.9737	0.6391	0.146
Mof_O 	O 	0.5874	0.9632	0.7703	-0.664
Mof_O 	O 	0.5481	0.0632	0.7573	-0.696
Mof_H 	H 	0.6835	0.9449	0.7061	-0.052
Mof_Cr	Cr	0.51945	0.92236	0.8192	2.133
Mof_O 	O 	0.4545	0.8704	0.8617	-0.677
Mof_O 	O 	0.5896	0.8958	0.8742	-0.675
Mof_C 	C 	0.439	0.8731	0.9162	0.586
Mof_C 	C 	0.6136	0.9204	0.921	0.589
Mof_O 	O 	0.4121	0.0363	0.953	-0.67
Mof_O 	O 	0.4588	0.9137	0.954	-0.656
Mof_C 	C 	0.3922	0.822	0.9373	-0.231
Mof_C 	C 	0.6772	0.8954	0.941	-0.237
Mof_C 	C 	0.3671	0.825	0.9944	0.127
Mof_C 	C 	0.3732	0.7725	0.8998	0.119
Mof_C 	C 	0.7047	0.8429	0.9111	0.132
Mof_C 	C 	0.7103	0.9229	0.99	0.123
Mof_H 	H 	0.3807	0.8596	0.0196	-0.005
Mof_C 	C 	0.3307	0.7259	0.9226	-0.17
Mof_H 	H 	0.3885	0.7702	0.8598	-0.009
Mof_H 	H 	0.6832	0.8261	0.8768	-0.016
Mof_C 	C 	0.768	0.8933	0.0071	-0.177
Mof_H 	H 	0.694	0.96	0.0103	-0.004
Mof_C 	C 	0.3063	0.7338	0.9803	0.092
Mof_H 	H 	0.3185	0.6894	0.8992	0.078
Mof_C 	C 	0.7916	0.8427	0.9758	0.099
Mof_H 	H 	0.7908	0.9089	0.0411	0.086
Mof_H 	H 	0.2753	0.7032	0.9943	-0.003
Mof_H 	H 	0.8324	0.8252	0.9873	-0.005
Mof_O 	O 	0.5	5.31901e-33	0.3615	-1.165
Mof_Cr	Cr	0.5	0	0.44649	2.052
Mof_O 	O 	7.91537e-33	0.5	0.6385	-1.165
Mof_Cr	Cr	1.28888e-32	0.5	0.55351	2.052
Mof_O 	O 	7.21196e-33	0.5	0.1385	-1.165
Mof_Cr	Cr	5.5366e-33	0.5	0.05351	2.051
Mof_O 	O 	0.5	1.0638e-32	0.8615	-1.165
Mof_Cr	Cr	0.5	1.0638e-32	0.94649	2.051
_end
