data_functionalizedCrystal
_audit_creation_method	'EQeq! by Chris Wilmer'
_symmetry_space_group_name_H-M	'P1'
_symmetry_Int_Tables_number	1
_symmetry_cell_setting	triclinic
loop_
_symmetry_equiv_pos_as_xyz
  x,y,z
_cell_length_a	5.99
_cell_length_b	7.435
_cell_length_c	13.323
_cell_angle_alpha	102.89
_cell_angle_beta	101.55
_cell_angle_gamma	90.85
loop_
_atom_site_label
_atom_site_type_symbol
_atom_site_fract_x
_atom_site_fract_y
_atom_site_fract_z
_atom_site_charge
Mof_Tb	Tb	0.23767	0.63759	0.11857	1.902
Mof_Tb	Tb	0.19953	0.99985	0.75947	1.808
Mof_H 	H 	0.8631	0.8597	0.3837	-0.019
Mof_H 	H 	0.5722	0.9195	0.4814	0.042
Mof_H 	H 	0.7266	0.5035	0.872	0.061
Mof_H 	H 	0.7524	0.5414	0.7129	0.073
Mof_H 	H 	0.6719	0.2197	0.1686	0.134
Mof_H 	H 	0.6969	0.0673	0.0014	0.073
Mof_H 	H 	0.9803	0.5669	0.4453	0.336
Mof_H 	H 	0.4385	0.6871	0.53	0.219
Mof_H 	H 	0.591	0.2163	0.7399	0.401
Mof_H 	H 	0.4975	0.05	0.6741	0.356
Mof_H 	H 	0.8625	0.8417	0.215	0.357
Mof_H 	H 	0.9472	0.8362	0.1242	0.24
Mof_C 	C 	0.002	0.881	0.5413	-0.2
Mof_C 	C 	0.846	0.7892	0.436	0.292
Mof_C 	C 	0.601	0.792	0.4505	-0.068
Mof_C 	C 	0.44	0.732	0.3435	0.325
Mof_C 	C 	0.057	0.4317	0.8681	0.311
Mof_C 	C 	0.869	0.5684	0.8708	0.045
Mof_C 	C 	0.8387	0.6381	0.7708	0.051
Mof_C 	C 	0.7064	0.8166	0.7759	0.428
Mof_C 	C 	0.7244	0.4466	0.1086	0.456
Mof_C 	C 	0.5921	0.2741	0.1119	-0.074
Mof_C 	C 	0.554	0.1293	0.0038	0.004
Mof_C 	C 	0.374	0.9845	0.0057	0.15
Mof_O 	O 	0.1772	0.7982	0.58	-0.317
Mof_O 	O 	0.9629	0.0361	0.5885	-0.003
Mof_O 	O 	0.8942	0.6019	0.3984	-0.381
Mof_O 	O 	0.5705	0.6831	0.5216	-0.297
Mof_O 	O 	0.2991	0.6036	0.319	-0.361
Mof_O 	O 	0.4678	0.8306	0.2771	-0.419
Mof_O 	O 	0.0363	0.296	0.7942	-0.421
Mof_O 	O 	0.2305	0.4682	0.9452	-0.365
Mof_O 	O 	0.9338	0.7137	0.9666	-0.17
Mof_O 	O 	0.0551	0.6738	0.7465	-0.343
Mof_O 	O 	0.5039	0.8037	0.7822	-0.473
Mof_O 	O 	0.8099	0.9579	0.7691	-0.474
Mof_O 	O 	0.6265	0.5903	0.1109	-0.508
Mof_O 	O 	0.929	0.4293	0.1066	-0.435
Mof_O 	O 	0.3728	0.3306	0.1312	-0.279
Mof_O 	O 	0.5019	0.2	0.9151	-0.139
Mof_O 	O 	0.2013	0.964	0.9317	-0.371
Mof_O 	O 	0.3993	0.9027	0.0795	-0.447
Mof_O 	O 	0.4728	0.1628	0.696	-0.787
Mof_O 	O 	0.9816	0.8528	0.1908	-0.713
_end
