data_functionalizedCrystal
_audit_creation_method	'EQeq! by Chris Wilmer'
_symmetry_space_group_name_H-M	'P1'
_symmetry_Int_Tables_number	1
_symmetry_cell_setting	triclinic
loop_
_symmetry_equiv_pos_as_xyz
  x,y,z
_cell_length_a	9.9134
_cell_length_b	9.9134
_cell_length_c	13.4046
_cell_angle_alpha	85.3916
_cell_angle_beta	70.1258
_cell_angle_gamma	115.575
loop_
_atom_site_label
_atom_site_type_symbol
_atom_site_fract_x
_atom_site_fract_y
_atom_site_fract_z
_atom_site_charge
Mof_Tb	Tb	0.26536	0.53866	0.00252	2.056
Mof_Tb	Tb	0.04118	0.26788	0.49748	2.04
Mof_Tb	Tb	0.73464	0.46134	0.99748	2.056
Mof_Tb	Tb	0.95882	0.73212	0.50252	2.04
Mof_H 	H 	0.9883	0.0531	0.1468	0.04
Mof_H 	H 	0.82	0.7624	0.179	0.014
Mof_H 	H 	0.6999	0.1351	0.3532	0.038
Mof_H 	H 	0.4414	0.999	0.321	0.011
Mof_H 	H 	0.0117	0.9469	0.8532	0.04
Mof_H 	H 	0.18	0.2376	0.821	0.014
Mof_H 	H 	0.3001	0.8649	0.6468	0.038
Mof_H 	H 	0.5586	0.001	0.679	0.011
Mof_C 	C 	0.881	0.2307	0.0385	0.469
Mof_C 	C 	0.6881	0.8177	0.1102	-0.038
Mof_C 	C 	0.8991	0.002	0.1295	-0.017
Mof_C 	C 	0.5588	0.6768	0.0988	0.47
Mof_C 	C 	0.8047	0.839	0.1477	-0.024
Mof_C 	C 	0.0654	0.4094	0.2656	0.272
Mof_C 	C 	0.8346	0.0677	0.0829	-0.038
Mof_C 	C 	0.7692	0.9195	0.4615	0.452
Mof_C 	C 	0.4279	0.7983	0.3898	-0.041
Mof_C 	C 	0.6315	0.0286	0.3705	-0.025
Mof_C 	C 	0.2756	0.6576	0.4012	0.47
Mof_C 	C 	0.4867	0.9524	0.3523	-0.015
Mof_C 	C 	0.175	0.331	0.2344	0.277
Mof_C 	C 	0.6506	0.9175	0.4171	-0.042
Mof_C 	C 	0.119	0.7693	0.9615	0.469
Mof_C 	C 	0.3119	0.1823	0.8898	-0.038
Mof_C 	C 	0.1009	0.998	0.8705	-0.017
Mof_C 	C 	0.4412	0.3232	0.9012	0.47
Mof_C 	C 	0.1953	0.161	0.8523	-0.024
Mof_C 	C 	0.9346	0.5906	0.7344	0.272
Mof_C 	C 	0.1654	0.9323	0.9171	-0.038
Mof_C 	C 	0.2308	0.0805	0.5385	0.452
Mof_C 	C 	0.5721	0.2017	0.6102	-0.041
Mof_C 	C 	0.3685	0.9714	0.6295	-0.025
Mof_C 	C 	0.7244	0.3424	0.5988	0.47
Mof_C 	C 	0.5133	0.0476	0.6477	-0.015
Mof_C 	C 	0.825	0.669	0.7656	0.277
Mof_C 	C 	0.3494	0.0825	0.5829	-0.042
Mof_O 	O 	0.0103	0.3342	0.0381	-0.581
Mof_O 	O 	0.787	0.2536	0.004	-0.533
Mof_O 	O 	0.0754	0.4977	0.1881	-0.428
Mof_O 	O 	0.5809	0.5622	0.0995	-0.575
Mof_O 	O 	0.7012	0.9563	0.0715	-0.155
Mof_O 	O 	0.4412	0.6836	0.0888	-0.489
Mof_O 	O 	0.9726	0.3746	0.3646	-0.432
Mof_O 	O 	0.8723	0.0484	0.4619	-0.566
Mof_O 	O 	0.7576	0.791	0.496	-0.532
Mof_O 	O 	0.1858	0.2635	0.3119	-0.429
Mof_O 	O 	0.1617	0.6804	0.4005	-0.573
Mof_O 	O 	0.5278	0.7727	0.4285	-0.149
Mof_O 	O 	0.2724	0.53	0.4112	-0.488
Mof_O 	O 	0.2392	0.3372	0.1354	-0.439
Mof_O 	O 	0.9897	0.6658	0.9619	-0.581
Mof_O 	O 	0.213	0.7464	0.996	-0.533
Mof_O 	O 	0.9246	0.5023	0.8119	-0.428
Mof_O 	O 	0.4191	0.4378	0.9005	-0.575
Mof_O 	O 	0.2988	0.0437	0.9285	-0.155
Mof_O 	O 	0.5588	0.3164	0.9112	-0.489
Mof_O 	O 	0.0274	0.6254	0.6354	-0.432
Mof_O 	O 	0.1277	0.9516	0.5381	-0.566
Mof_O 	O 	0.2424	0.209	0.504	-0.532
Mof_O 	O 	0.8142	0.7365	0.6881	-0.429
Mof_O 	O 	0.8383	0.3196	0.5995	-0.573
Mof_O 	O 	0.4722	0.2273	0.5715	-0.149
Mof_O 	O 	0.7276	0.47	0.5888	-0.488
Mof_O 	O 	0.7608	0.6628	0.8646	-0.439
_end
