data_functionalizedCrystal
_audit_creation_method	'EQeq! by Chris Wilmer'
_symmetry_space_group_name_H-M	'P1'
_symmetry_Int_Tables_number	1
_symmetry_cell_setting	triclinic
loop_
_symmetry_equiv_pos_as_xyz
  x,y,z
_cell_length_a	33.7837
_cell_length_b	33.7837
_cell_length_c	33.7837
_cell_angle_alpha	90
_cell_angle_beta	90
_cell_angle_gamma	90
loop_
_atom_site_label
_atom_site_type_symbol
_atom_site_fract_x
_atom_site_fract_y
_atom_site_fract_z
_atom_site_charge
Mof_C 	C 	0.3245	0.6018	0.8107	-0.093
Mof_H 	H 	0.338	0.6242	0.8193	0.093
Mof_C 	C 	0.361	0.494	0.8551	0.045
Mof_C 	C 	0.2737	0.5729	0.7707	0.023
Mof_H 	H 	0.2519	0.5747	0.7539	0.034
Mof_O 	O 	0.3662	0.5663	0.8523	-0.219
Mof_C 	C 	0.2879	0.5365	0.783	-0.117
Mof_H 	H 	0.2779	0.5139	0.7709	0.076
Mof_N 	N 	0.33	0.4954	0.8243	-0.18
Mof_C 	C 	0.3755	0.5308	0.8686	0.127
Mof_C 	C 	0.3349	0.568	0.8231	0.113
Mof_C 	C 	0.3149	0.532	0.811	0.062
Mof_C 	C 	0.2927	0.6062	0.7841	-0.072
Mof_C 	C 	0.4035	0.5324	0.897	-0.087
Mof_H 	H 	0.4138	0.5566	0.9052	0.09
Mof_C 	C 	0.4166	0.497	0.9139	-0.058
Mof_C 	C 	0.3725	0.4607	0.8708	-0.102
Mof_H 	H 	0.3619	0.4366	0.8625	0.074
Mof_C 	C 	0.4463	0.4954	0.9461	0.337
Mof_O 	O 	0.4593	0.5316	0.9568	-0.414
Mof_C 	C 	0.2849	0.6465	0.7703	0.345
Mof_O 	O 	0.3019	0.676	0.7851	-0.512
Mof_O 	O 	0.458	0.4638	0.9601	-0.455
Mof_C 	C 	0.2869	0.3849	0.788	-0.392
Mof_C 	C 	0.2709	0.4044	0.8186	0.355
Mof_H 	H 	0.2506	0.3926	0.8329	-0.076
Mof_C 	C 	0.312	0.4581	0.8121	0.411
Mof_C 	C 	0.284	0.4423	0.8296	-0.493
Mof_H 	H 	0.2715	0.4556	0.8502	0.206
Mof_C 	C 	0.4006	0.4624	0.9	0.01
Mof_H 	H 	0.4094	0.4388	0.911	0.041
Mof_C 	C 	0.3298	0.4428	0.7818	-0.424
Mof_H 	H 	0.3507	0.4557	0.7693	0.185
Mof_O 	O 	0.289	0.3303	0.7455	-0.512
Mof_C 	C 	0.2758	0.3453	0.7786	0.527
Mof_O 	O 	0.2529	0.3273	0.7996	-0.541
Mof_Zn	Zn	0.23048	0.27358	0.80182	1.214
Mof_C 	C 	0.3155	0.4042	0.7685	0.302
Mof_H 	H 	0.3264	0.3928	0.746	-0.057
Mof_O 	O 	0.2496	0.6508	0.7535	-0.479
Mof_C 	C 	0.8245	0.1018	0.3107	-0.098
Mof_H 	H 	0.838	0.1242	0.3193	0.092
Mof_C 	C 	0.861	0.994	0.3551	0.058
Mof_C 	C 	0.7737	0.0729	0.2707	0.015
Mof_H 	H 	0.7519	0.0747	0.2539	0.034
Mof_O 	O 	0.8662	0.0663	0.3523	-0.221
Mof_C 	C 	0.7879	0.0365	0.283	-0.111
Mof_H 	H 	0.7779	0.0139	0.2709	0.069
Mof_N 	N 	0.83	0.9954	0.3243	-0.176
Mof_C 	C 	0.8755	0.0308	0.3686	0.117
Mof_C 	C 	0.8349	0.068	0.3231	0.115
Mof_C 	C 	0.8149	0.032	0.311	0.047
Mof_C 	C 	0.7927	0.1062	0.2841	-0.07
Mof_C 	C 	0.9035	0.0324	0.397	-0.1
Mof_H 	H 	0.9138	0.0566	0.4052	0.092
Mof_C 	C 	0.9166	0.997	0.4139	-0.048
Mof_C 	C 	0.8725	0.9607	0.3708	-0.107
Mof_H 	H 	0.8619	0.9366	0.3625	0.075
Mof_C 	C 	0.9463	0.9954	0.4461	0.347
Mof_O 	O 	0.9593	0.0316	0.4568	-0.424
Mof_C 	C 	0.7849	0.1465	0.2703	0.343
Mof_O 	O 	0.8019	0.176	0.2851	-0.512
Mof_O 	O 	0.958	0.9638	0.4601	-0.455
Mof_C 	C 	0.7869	0.8849	0.288	-0.393
Mof_C 	C 	0.7709	0.9044	0.3186	0.357
Mof_H 	H 	0.7506	0.8926	0.3329	-0.076
Mof_C 	C 	0.812	0.9581	0.3121	0.415
Mof_C 	C 	0.784	0.9423	0.3296	-0.496
Mof_H 	H 	0.7715	0.9556	0.3502	0.208
Mof_C 	C 	0.9006	0.9624	0.4	0.011
Mof_H 	H 	0.9094	0.9388	0.411	0.041
Mof_C 	C 	0.8298	0.9428	0.2818	-0.425
Mof_H 	H 	0.8507	0.9557	0.2693	0.188
Mof_O 	O 	0.789	0.8303	0.2455	-0.511
Mof_C 	C 	0.7758	0.8453	0.2786	0.528
Mof_O 	O 	0.7529	0.8273	0.2996	-0.541
Mof_Zn	Zn	0.73048	0.77358	0.30182	1.214
Mof_C 	C 	0.8155	0.9042	0.2685	0.305
Mof_H 	H 	0.8264	0.8928	0.246	-0.057
Mof_O 	O 	0.7496	0.1508	0.2535	-0.48
Mof_C 	C 	0.6755	0.3982	0.8107	-0.094
Mof_H 	H 	0.662	0.3758	0.8193	0.092
Mof_C 	C 	0.639	0.506	0.8551	0.044
Mof_C 	C 	0.7263	0.4271	0.7707	0.022
Mof_H 	H 	0.7481	0.4253	0.7539	0.034
Mof_O 	O 	0.6338	0.4337	0.8523	-0.22
Mof_C 	C 	0.7121	0.4635	0.783	-0.118
Mof_H 	H 	0.7221	0.4861	0.7709	0.076
Mof_N 	N 	0.67	0.5046	0.8243	-0.181
Mof_C 	C 	0.6245	0.4692	0.8686	0.126
Mof_C 	C 	0.6651	0.432	0.8231	0.113
Mof_C 	C 	0.6851	0.468	0.811	0.061
Mof_C 	C 	0.7073	0.3938	0.7841	-0.072
Mof_C 	C 	0.5965	0.4676	0.897	-0.088
Mof_H 	H 	0.5862	0.4434	0.9052	0.089
Mof_C 	C 	0.5834	0.503	0.9139	-0.059
Mof_C 	C 	0.6275	0.5393	0.8708	-0.103
Mof_H 	H 	0.6381	0.5634	0.8625	0.073
Mof_C 	C 	0.5537	0.5046	0.9461	0.336
Mof_O 	O 	0.5407	0.4684	0.9568	-0.415
Mof_C 	C 	0.7151	0.3535	0.7703	0.344
Mof_O 	O 	0.6981	0.324	0.7851	-0.512
Mof_O 	O 	0.542	0.5362	0.9601	-0.455
Mof_C 	C 	0.7131	0.6151	0.788	-0.392
Mof_C 	C 	0.7291	0.5956	0.8186	0.354
Mof_H 	H 	0.7494	0.6074	0.8329	-0.075
Mof_C 	C 	0.688	0.5419	0.8121	0.411
Mof_C 	C 	0.716	0.5577	0.8296	-0.493
Mof_H 	H 	0.7285	0.5444	0.8502	0.206
Mof_C 	C 	0.5994	0.5376	0.9	0.01
Mof_H 	H 	0.5906	0.5612	0.911	0.041
Mof_C 	C 	0.6702	0.5572	0.7818	-0.423
Mof_H 	H 	0.6493	0.5443	0.7693	0.185
Mof_O 	O 	0.711	0.6697	0.7455	-0.512
Mof_C 	C 	0.7242	0.6547	0.7786	0.527
Mof_O 	O 	0.7471	0.6727	0.7996	-0.541
Mof_Zn	Zn	0.76952	0.72642	0.80182	1.214
Mof_C 	C 	0.6845	0.5958	0.7685	0.302
Mof_H 	H 	0.6736	0.6072	0.746	-0.057
Mof_O 	O 	0.7504	0.3492	0.7535	-0.479
Mof_C 	C 	0.1755	0.8982	0.3107	-0.09
Mof_H 	H 	0.162	0.8758	0.3193	0.089
Mof_C 	C 	0.139	0.006	0.3551	0.032
Mof_C 	C 	0.2263	0.9271	0.2707	0.029
Mof_H 	H 	0.2481	0.9253	0.2539	0.032
Mof_O 	O 	0.1338	0.9337	0.3523	-0.221
Mof_C 	C 	0.2121	0.9635	0.283	-0.127
Mof_H 	H 	0.2221	0.9861	0.2709	0.082
Mof_N 	N 	0.17	0.0046	0.3243	-0.186
Mof_C 	C 	0.1245	0.9692	0.3686	0.134
Mof_C 	C 	0.1651	0.932	0.3231	0.109
Mof_C 	C 	0.1851	0.968	0.311	0.074
Mof_C 	C 	0.2073	0.8938	0.2841	-0.076
Mof_C 	C 	0.0965	0.9676	0.397	-0.075
Mof_H 	H 	0.0862	0.9434	0.4052	0.084
Mof_C 	C 	0.0834	0.003	0.4139	-0.074
Mof_C 	C 	0.1275	0.0393	0.3708	-0.103
Mof_H 	H 	0.1381	0.0634	0.3625	0.071
Mof_C 	C 	0.0537	0.0046	0.4461	0.327
Mof_O 	O 	0.0407	0.9684	0.4568	-0.414
Mof_C 	C 	0.2151	0.8535	0.2703	0.346
Mof_O 	O 	0.1981	0.824	0.2851	-0.513
Mof_O 	O 	0.042	0.0362	0.4601	-0.462
Mof_C 	C 	0.2131	0.1151	0.288	-0.391
Mof_C 	C 	0.2291	0.0956	0.3186	0.351
Mof_H 	H 	0.2494	0.1074	0.3329	-0.076
Mof_C 	C 	0.188	0.0419	0.3121	0.406
Mof_C 	C 	0.216	0.0577	0.3296	-0.491
Mof_H 	H 	0.2285	0.0444	0.3502	0.201
Mof_C 	C 	0.0994	0.0376	0.4	0.011
Mof_H 	H 	0.0906	0.0612	0.411	0.037
Mof_C 	C 	0.1702	0.0572	0.2818	-0.422
Mof_H 	H 	0.1493	0.0443	0.2693	0.18
Mof_O 	O 	0.211	0.1697	0.2455	-0.513
Mof_C 	C 	0.2242	0.1547	0.2786	0.526
Mof_O 	O 	0.2471	0.1727	0.2996	-0.542
Mof_Zn	Zn	0.26952	0.22642	0.30182	1.214
Mof_C 	C 	0.1845	0.0958	0.2685	0.299
Mof_H 	H 	0.1736	0.1072	0.246	-0.058
Mof_O 	O 	0.2504	0.8492	0.2535	-0.479
Mof_C 	C 	0.6755	0.6018	0.1893	-0.094
Mof_H 	H 	0.662	0.6242	0.1807	0.091
Mof_C 	C 	0.639	0.494	0.1449	0.045
Mof_C 	C 	0.7263	0.5729	0.2293	0.022
Mof_H 	H 	0.7481	0.5747	0.2461	0.034
Mof_O 	O 	0.6338	0.5663	0.1477	-0.221
Mof_C 	C 	0.7121	0.5365	0.217	-0.119
Mof_H 	H 	0.7221	0.5139	0.2291	0.076
Mof_N 	N 	0.67	0.4954	0.1757	-0.181
Mof_C 	C 	0.6245	0.5308	0.1314	0.124
Mof_C 	C 	0.6651	0.568	0.1769	0.112
Mof_C 	C 	0.6851	0.532	0.189	0.061
Mof_C 	C 	0.7073	0.6062	0.2159	-0.073
Mof_C 	C 	0.5965	0.5324	0.103	-0.087
Mof_H 	H 	0.5862	0.5566	0.0948	0.087
Mof_C 	C 	0.5834	0.497	0.0861	-0.063
Mof_C 	C 	0.6275	0.4607	0.1292	-0.106
Mof_H 	H 	0.6381	0.4366	0.1375	0.073
Mof_C 	C 	0.5537	0.4954	0.0539	0.337
Mof_O 	O 	0.5407	0.5316	0.0432	-0.423
Mof_C 	C 	0.7151	0.6465	0.2297	0.344
Mof_O 	O 	0.6981	0.676	0.2149	-0.513
Mof_O 	O 	0.542	0.4638	0.0399	-0.463
Mof_C 	C 	0.7131	0.3849	0.212	-0.392
Mof_C 	C 	0.7291	0.4044	0.1814	0.354
Mof_H 	H 	0.7494	0.3926	0.1671	-0.076
Mof_C 	C 	0.688	0.4581	0.1879	0.41
Mof_C 	C 	0.716	0.4423	0.1704	-0.493
Mof_H 	H 	0.7285	0.4556	0.1498	0.204
Mof_C 	C 	0.5994	0.4624	0.1	0.012
Mof_H 	H 	0.5906	0.4388	0.089	0.038
Mof_C 	C 	0.6702	0.4428	0.2182	-0.423
Mof_H 	H 	0.6493	0.4557	0.2307	0.184
Mof_O 	O 	0.711	0.3303	0.2545	-0.512
Mof_C 	C 	0.7242	0.3453	0.2214	0.527
Mof_O 	O 	0.7471	0.3273	0.2004	-0.542
Mof_Zn	Zn	0.76952	0.27358	0.19818	1.214
Mof_C 	C 	0.6845	0.4042	0.2315	0.302
Mof_H 	H 	0.6736	0.3928	0.254	-0.057
Mof_O 	O 	0.7504	0.6508	0.2465	-0.479
Mof_C 	C 	0.1755	0.1018	0.6893	-0.098
Mof_H 	H 	0.162	0.1242	0.6807	0.091
Mof_C 	C 	0.139	0.994	0.6449	0.058
Mof_C 	C 	0.2263	0.0729	0.7293	0.016
Mof_H 	H 	0.2481	0.0747	0.7461	0.034
Mof_O 	O 	0.1338	0.0663	0.6477	-0.222
Mof_C 	C 	0.2121	0.0365	0.717	-0.111
Mof_H 	H 	0.2221	0.0139	0.7291	0.069
Mof_N 	N 	0.17	0.9954	0.6757	-0.176
Mof_C 	C 	0.1245	0.0308	0.6314	0.115
Mof_C 	C 	0.1651	0.068	0.6769	0.114
Mof_C 	C 	0.1851	0.032	0.689	0.047
Mof_C 	C 	0.2073	0.1062	0.7159	-0.07
Mof_C 	C 	0.0965	0.0324	0.603	-0.099
Mof_H 	H 	0.0862	0.0566	0.5948	0.089
Mof_C 	C 	0.0834	0.997	0.5861	-0.052
Mof_C 	C 	0.1275	0.9607	0.6292	-0.11
Mof_H 	H 	0.1381	0.9366	0.6375	0.074
Mof_C 	C 	0.0537	0.9954	0.5539	0.347
Mof_O 	O 	0.0407	0.0316	0.5432	-0.433
Mof_C 	C 	0.2151	0.1465	0.7297	0.343
Mof_O 	O 	0.1981	0.176	0.7149	-0.513
Mof_O 	O 	0.042	0.9638	0.5399	-0.463
Mof_C 	C 	0.2131	0.8849	0.712	-0.393
Mof_C 	C 	0.2291	0.9044	0.6814	0.357
Mof_H 	H 	0.2494	0.8926	0.6671	-0.076
Mof_C 	C 	0.188	0.9581	0.6879	0.415
Mof_C 	C 	0.216	0.9423	0.6704	-0.495
Mof_H 	H 	0.2285	0.9556	0.6498	0.208
Mof_C 	C 	0.0994	0.9624	0.6	0.012
Mof_H 	H 	0.0906	0.9388	0.589	0.038
Mof_C 	C 	0.1702	0.9428	0.7182	-0.425
Mof_H 	H 	0.1493	0.9557	0.7307	0.187
Mof_O 	O 	0.211	0.8303	0.7545	-0.512
Mof_C 	C 	0.2242	0.8453	0.7214	0.528
Mof_O 	O 	0.2471	0.8273	0.7004	-0.541
Mof_Zn	Zn	0.26952	0.77358	0.69818	1.214
Mof_C 	C 	0.1845	0.9042	0.7315	0.304
Mof_H 	H 	0.1736	0.8928	0.754	-0.057
Mof_O 	O 	0.2504	0.1508	0.7465	-0.48
Mof_C 	C 	0.3245	0.3982	0.1893	-0.094
Mof_H 	H 	0.338	0.3758	0.1807	0.091
Mof_C 	C 	0.361	0.506	0.1449	0.045
Mof_C 	C 	0.2737	0.4271	0.2293	0.022
Mof_H 	H 	0.2519	0.4253	0.2461	0.033
Mof_O 	O 	0.3662	0.4337	0.1477	-0.221
Mof_C 	C 	0.2879	0.4635	0.217	-0.119
Mof_H 	H 	0.2779	0.4861	0.2291	0.075
Mof_N 	N 	0.33	0.5046	0.1757	-0.181
Mof_C 	C 	0.3755	0.4692	0.1314	0.124
Mof_C 	C 	0.3349	0.432	0.1769	0.112
Mof_C 	C 	0.3149	0.468	0.189	0.06
Mof_C 	C 	0.2927	0.3938	0.2159	-0.073
Mof_C 	C 	0.4035	0.4676	0.103	-0.087
Mof_H 	H 	0.4138	0.4434	0.0948	0.087
Mof_C 	C 	0.4166	0.503	0.0861	-0.063
Mof_C 	C 	0.3725	0.5393	0.1292	-0.106
Mof_H 	H 	0.3619	0.5634	0.1375	0.073
Mof_C 	C 	0.4463	0.5046	0.0539	0.337
Mof_O 	O 	0.4593	0.4684	0.0432	-0.423
Mof_C 	C 	0.2849	0.3535	0.2297	0.345
Mof_O 	O 	0.3019	0.324	0.2149	-0.513
Mof_O 	O 	0.458	0.5362	0.0399	-0.463
Mof_C 	C 	0.2869	0.6151	0.212	-0.392
Mof_C 	C 	0.2709	0.5956	0.1814	0.354
Mof_H 	H 	0.2506	0.6074	0.1671	-0.077
Mof_C 	C 	0.312	0.5419	0.1879	0.41
Mof_C 	C 	0.284	0.5577	0.1704	-0.493
Mof_H 	H 	0.2715	0.5444	0.1498	0.204
Mof_C 	C 	0.4006	0.5376	0.1	0.012
Mof_H 	H 	0.4094	0.5612	0.089	0.038
Mof_C 	C 	0.3298	0.5572	0.2182	-0.423
Mof_H 	H 	0.3507	0.5443	0.2307	0.184
Mof_O 	O 	0.289	0.6697	0.2545	-0.512
Mof_C 	C 	0.2758	0.6547	0.2214	0.527
Mof_O 	O 	0.2529	0.6727	0.2004	-0.542
Mof_Zn	Zn	0.23048	0.72642	0.19818	1.214
Mof_C 	C 	0.3155	0.5958	0.2315	0.302
Mof_H 	H 	0.3264	0.6072	0.254	-0.057
Mof_O 	O 	0.2496	0.3492	0.2465	-0.48
Mof_C 	C 	0.8245	0.8982	0.6893	-0.09
Mof_H 	H 	0.838	0.8758	0.6807	0.091
Mof_C 	C 	0.861	0.006	0.6449	0.032
Mof_C 	C 	0.7737	0.9271	0.7293	0.029
Mof_H 	H 	0.7519	0.9253	0.7461	0.033
Mof_O 	O 	0.8662	0.9337	0.6477	-0.22
Mof_C 	C 	0.7879	0.9635	0.717	-0.126
Mof_H 	H 	0.7779	0.9861	0.7291	0.083
Mof_N 	N 	0.83	0.0046	0.6757	-0.186
Mof_C 	C 	0.8755	0.9692	0.6314	0.136
Mof_C 	C 	0.8349	0.932	0.6769	0.11
Mof_C 	C 	0.8149	0.968	0.689	0.074
Mof_C 	C 	0.7927	0.8938	0.7159	-0.075
Mof_C 	C 	0.9035	0.9676	0.603	-0.076
Mof_H 	H 	0.9138	0.9434	0.5948	0.087
Mof_C 	C 	0.9166	0.003	0.5861	-0.07
Mof_C 	C 	0.8725	0.0393	0.6292	-0.1
Mof_H 	H 	0.8619	0.0634	0.6375	0.072
Mof_C 	C 	0.9463	0.0046	0.5539	0.326
Mof_O 	O 	0.9593	0.9684	0.5432	-0.406
Mof_C 	C 	0.7849	0.8535	0.7297	0.346
Mof_O 	O 	0.8019	0.824	0.7149	-0.512
Mof_O 	O 	0.958	0.0362	0.5399	-0.454
Mof_C 	C 	0.7869	0.1151	0.712	-0.39
Mof_C 	C 	0.7709	0.0956	0.6814	0.351
Mof_H 	H 	0.7506	0.1074	0.6671	-0.076
Mof_C 	C 	0.812	0.0419	0.6879	0.407
Mof_C 	C 	0.784	0.0577	0.6704	-0.491
Mof_H 	H 	0.7715	0.0444	0.6498	0.202
Mof_C 	C 	0.9006	0.0376	0.6	0.01
Mof_H 	H 	0.9094	0.0612	0.589	0.04
Mof_C 	C 	0.8298	0.0572	0.7182	-0.422
Mof_H 	H 	0.8507	0.0443	0.7307	0.183
Mof_O 	O 	0.789	0.1697	0.7545	-0.512
Mof_C 	C 	0.7758	0.1547	0.7214	0.527
Mof_O 	O 	0.7529	0.1727	0.7004	-0.542
Mof_Zn	Zn	0.73048	0.22642	0.69818	1.214
Mof_C 	C 	0.8155	0.0958	0.7315	0.3
Mof_H 	H 	0.8264	0.1072	0.754	-0.056
Mof_O 	O 	0.7496	0.8492	0.7465	-0.478
Mof_C 	C 	0.8107	0.3245	0.6018	-0.094
Mof_H 	H 	0.8193	0.338	0.6242	0.092
Mof_C 	C 	0.8551	0.361	0.494	0.044
Mof_C 	C 	0.7707	0.2737	0.5729	0.022
Mof_H 	H 	0.7539	0.2519	0.5747	0.033
Mof_O 	O 	0.8523	0.3662	0.5663	-0.22
Mof_C 	C 	0.783	0.2879	0.5365	-0.118
Mof_H 	H 	0.7709	0.2779	0.5139	0.075
Mof_N 	N 	0.8243	0.33	0.4954	-0.181
Mof_C 	C 	0.8686	0.3755	0.5308	0.126
Mof_C 	C 	0.8231	0.3349	0.568	0.112
Mof_C 	C 	0.811	0.3149	0.532	0.061
Mof_C 	C 	0.7841	0.2927	0.6062	-0.073
Mof_C 	C 	0.897	0.4035	0.5324	-0.088
Mof_H 	H 	0.9052	0.4138	0.5566	0.089
Mof_C 	C 	0.9139	0.4166	0.497	-0.059
Mof_C 	C 	0.8708	0.3725	0.4607	-0.103
Mof_H 	H 	0.8625	0.3619	0.4366	0.073
Mof_C 	C 	0.9461	0.4463	0.4954	0.336
Mof_O 	O 	0.9568	0.4593	0.5316	-0.415
Mof_C 	C 	0.7703	0.2849	0.6465	0.344
Mof_O 	O 	0.7851	0.3019	0.676	-0.512
Mof_O 	O 	0.9601	0.458	0.4638	-0.455
Mof_C 	C 	0.788	0.2869	0.3849	-0.392
Mof_C 	C 	0.8186	0.2709	0.4044	0.355
Mof_H 	H 	0.8329	0.2506	0.3926	-0.076
Mof_C 	C 	0.8121	0.312	0.4581	0.411
Mof_C 	C 	0.8296	0.284	0.4423	-0.493
Mof_H 	H 	0.8502	0.2715	0.4556	0.206
Mof_C 	C 	0.9	0.4006	0.4624	0.01
Mof_H 	H 	0.911	0.4094	0.4388	0.041
Mof_C 	C 	0.7818	0.3298	0.4428	-0.424
Mof_H 	H 	0.7693	0.3507	0.4557	0.185
Mof_O 	O 	0.7455	0.289	0.3303	-0.512
Mof_C 	C 	0.7786	0.2758	0.3453	0.527
Mof_O 	O 	0.7996	0.2529	0.3273	-0.541
Mof_Zn	Zn	0.80182	0.23048	0.27358	1.214
Mof_C 	C 	0.7685	0.3155	0.4042	0.302
Mof_H 	H 	0.746	0.3264	0.3928	-0.057
Mof_O 	O 	0.7535	0.2496	0.6508	-0.479
Mof_C 	C 	0.3107	0.8245	0.1018	-0.098
Mof_H 	H 	0.3193	0.838	0.1242	0.092
Mof_C 	C 	0.3551	0.861	0.994	0.058
Mof_C 	C 	0.2707	0.7737	0.0729	0.015
Mof_H 	H 	0.2539	0.7519	0.0747	0.034
Mof_O 	O 	0.3523	0.8662	0.0663	-0.221
Mof_C 	C 	0.283	0.7879	0.0365	-0.111
Mof_H 	H 	0.2709	0.7779	0.0139	0.069
Mof_N 	N 	0.3243	0.83	0.9954	-0.176
Mof_C 	C 	0.3686	0.8755	0.0308	0.117
Mof_C 	C 	0.3231	0.8349	0.068	0.115
Mof_C 	C 	0.311	0.8149	0.032	0.047
Mof_C 	C 	0.2841	0.7927	0.1062	-0.07
Mof_C 	C 	0.397	0.9035	0.0324	-0.1
Mof_H 	H 	0.4052	0.9138	0.0566	0.092
Mof_C 	C 	0.4139	0.9166	0.997	-0.048
Mof_C 	C 	0.3708	0.8725	0.9607	-0.107
Mof_H 	H 	0.3625	0.8619	0.9366	0.075
Mof_C 	C 	0.4461	0.9463	0.9954	0.347
Mof_O 	O 	0.4568	0.9593	0.0316	-0.424
Mof_C 	C 	0.2703	0.7849	0.1465	0.343
Mof_O 	O 	0.2851	0.8019	0.176	-0.512
Mof_O 	O 	0.4601	0.958	0.9638	-0.455
Mof_C 	C 	0.288	0.7869	0.8849	-0.393
Mof_C 	C 	0.3186	0.7709	0.9044	0.357
Mof_H 	H 	0.3329	0.7506	0.8926	-0.076
Mof_C 	C 	0.3121	0.812	0.9581	0.415
Mof_C 	C 	0.3296	0.784	0.9423	-0.496
Mof_H 	H 	0.3502	0.7715	0.9556	0.208
Mof_C 	C 	0.4	0.9006	0.9624	0.011
Mof_H 	H 	0.411	0.9094	0.9388	0.041
Mof_C 	C 	0.2818	0.8298	0.9428	-0.425
Mof_H 	H 	0.2693	0.8507	0.9557	0.188
Mof_O 	O 	0.2455	0.789	0.8303	-0.511
Mof_C 	C 	0.2786	0.7758	0.8453	0.528
Mof_O 	O 	0.2996	0.7529	0.8273	-0.541
Mof_Zn	Zn	0.30182	0.73048	0.77358	1.214
Mof_C 	C 	0.2685	0.8155	0.9042	0.305
Mof_H 	H 	0.246	0.8264	0.8928	-0.057
Mof_O 	O 	0.2535	0.7496	0.1508	-0.48
Mof_C 	C 	0.8107	0.6755	0.3982	-0.094
Mof_H 	H 	0.8193	0.662	0.3758	0.092
Mof_C 	C 	0.8551	0.639	0.506	0.044
Mof_C 	C 	0.7707	0.7263	0.4271	0.022
Mof_H 	H 	0.7539	0.7481	0.4253	0.034
Mof_O 	O 	0.8523	0.6338	0.4337	-0.22
Mof_C 	C 	0.783	0.7121	0.4635	-0.118
Mof_H 	H 	0.7709	0.7221	0.4861	0.076
Mof_N 	N 	0.8243	0.67	0.5046	-0.181
Mof_C 	C 	0.8686	0.6245	0.4692	0.126
Mof_C 	C 	0.8231	0.6651	0.432	0.113
Mof_C 	C 	0.811	0.6851	0.468	0.061
Mof_C 	C 	0.7841	0.7073	0.3938	-0.072
Mof_C 	C 	0.897	0.5965	0.4676	-0.088
Mof_H 	H 	0.9052	0.5862	0.4434	0.089
Mof_C 	C 	0.9139	0.5834	0.503	-0.059
Mof_C 	C 	0.8708	0.6275	0.5393	-0.103
Mof_H 	H 	0.8625	0.6381	0.5634	0.073
Mof_C 	C 	0.9461	0.5537	0.5046	0.336
Mof_O 	O 	0.9568	0.5407	0.4684	-0.415
Mof_C 	C 	0.7703	0.7151	0.3535	0.344
Mof_O 	O 	0.7851	0.6981	0.324	-0.512
Mof_O 	O 	0.9601	0.542	0.5362	-0.455
Mof_C 	C 	0.788	0.7131	0.6151	-0.392
Mof_C 	C 	0.8186	0.7291	0.5956	0.354
Mof_H 	H 	0.8329	0.7494	0.6074	-0.075
Mof_C 	C 	0.8121	0.688	0.5419	0.411
Mof_C 	C 	0.8296	0.716	0.5577	-0.493
Mof_H 	H 	0.8502	0.7285	0.5444	0.206
Mof_C 	C 	0.9	0.5994	0.5376	0.01
Mof_H 	H 	0.911	0.5906	0.5612	0.041
Mof_C 	C 	0.7818	0.6702	0.5572	-0.423
Mof_H 	H 	0.7693	0.6493	0.5443	0.185
Mof_O 	O 	0.7455	0.711	0.6697	-0.512
Mof_C 	C 	0.7786	0.7242	0.6547	0.527
Mof_O 	O 	0.7996	0.7471	0.6727	-0.541
Mof_Zn	Zn	0.80182	0.76952	0.72642	1.214
Mof_C 	C 	0.7685	0.6845	0.5958	0.302
Mof_H 	H 	0.746	0.6736	0.6072	-0.057
Mof_O 	O 	0.7535	0.7504	0.3492	-0.479
Mof_C 	C 	0.3107	0.1755	0.8982	-0.09
Mof_H 	H 	0.3193	0.162	0.8758	0.089
Mof_C 	C 	0.3551	0.139	0.006	0.032
Mof_C 	C 	0.2707	0.2263	0.9271	0.029
Mof_H 	H 	0.2539	0.2481	0.9253	0.032
Mof_O 	O 	0.3523	0.1338	0.9337	-0.221
Mof_C 	C 	0.283	0.2121	0.9635	-0.127
Mof_H 	H 	0.2709	0.2221	0.9861	0.082
Mof_N 	N 	0.3243	0.17	0.0046	-0.186
Mof_C 	C 	0.3686	0.1245	0.9692	0.134
Mof_C 	C 	0.3231	0.1651	0.932	0.109
Mof_C 	C 	0.311	0.1851	0.968	0.074
Mof_C 	C 	0.2841	0.2073	0.8938	-0.076
Mof_C 	C 	0.397	0.0965	0.9676	-0.075
Mof_H 	H 	0.4052	0.0862	0.9434	0.084
Mof_C 	C 	0.4139	0.0834	0.003	-0.074
Mof_C 	C 	0.3708	0.1275	0.0393	-0.103
Mof_H 	H 	0.3625	0.1381	0.0634	0.071
Mof_C 	C 	0.4461	0.0537	0.0046	0.327
Mof_O 	O 	0.4568	0.0407	0.9684	-0.414
Mof_C 	C 	0.2703	0.2151	0.8535	0.346
Mof_O 	O 	0.2851	0.1981	0.824	-0.513
Mof_O 	O 	0.4601	0.042	0.0362	-0.462
Mof_C 	C 	0.288	0.2131	0.1151	-0.391
Mof_C 	C 	0.3186	0.2291	0.0956	0.351
Mof_H 	H 	0.3329	0.2494	0.1074	-0.076
Mof_C 	C 	0.3121	0.188	0.0419	0.406
Mof_C 	C 	0.3296	0.216	0.0577	-0.491
Mof_H 	H 	0.3502	0.2285	0.0444	0.201
Mof_C 	C 	0.4	0.0994	0.0376	0.011
Mof_H 	H 	0.411	0.0906	0.0612	0.037
Mof_C 	C 	0.2818	0.1702	0.0572	-0.422
Mof_H 	H 	0.2693	0.1493	0.0443	0.18
Mof_O 	O 	0.2455	0.211	0.1697	-0.513
Mof_C 	C 	0.2786	0.2242	0.1547	0.526
Mof_O 	O 	0.2996	0.2471	0.1727	-0.542
Mof_Zn	Zn	0.30182	0.26952	0.22642	1.214
Mof_C 	C 	0.2685	0.1845	0.0958	0.299
Mof_H 	H 	0.246	0.1736	0.1072	-0.058
Mof_O 	O 	0.2535	0.2504	0.8492	-0.479
Mof_C 	C 	0.1893	0.6755	0.6018	-0.094
Mof_H 	H 	0.1807	0.662	0.6242	0.091
Mof_C 	C 	0.1449	0.639	0.494	0.045
Mof_C 	C 	0.2293	0.7263	0.5729	0.022
Mof_H 	H 	0.2461	0.7481	0.5747	0.034
Mof_O 	O 	0.1477	0.6338	0.5663	-0.221
Mof_C 	C 	0.217	0.7121	0.5365	-0.119
Mof_H 	H 	0.2291	0.7221	0.5139	0.076
Mof_N 	N 	0.1757	0.67	0.4954	-0.181
Mof_C 	C 	0.1314	0.6245	0.5308	0.124
Mof_C 	C 	0.1769	0.6651	0.568	0.112
Mof_C 	C 	0.189	0.6851	0.532	0.061
Mof_C 	C 	0.2159	0.7073	0.6062	-0.073
Mof_C 	C 	0.103	0.5965	0.5324	-0.087
Mof_H 	H 	0.0948	0.5862	0.5566	0.087
Mof_C 	C 	0.0861	0.5834	0.497	-0.063
Mof_C 	C 	0.1292	0.6275	0.4607	-0.106
Mof_H 	H 	0.1375	0.6381	0.4366	0.073
Mof_C 	C 	0.0539	0.5537	0.4954	0.337
Mof_O 	O 	0.0432	0.5407	0.5316	-0.423
Mof_C 	C 	0.2297	0.7151	0.6465	0.344
Mof_O 	O 	0.2149	0.6981	0.676	-0.513
Mof_O 	O 	0.0399	0.542	0.4638	-0.463
Mof_C 	C 	0.212	0.7131	0.3849	-0.392
Mof_C 	C 	0.1814	0.7291	0.4044	0.354
Mof_H 	H 	0.1671	0.7494	0.3926	-0.076
Mof_C 	C 	0.1879	0.688	0.4581	0.41
Mof_C 	C 	0.1704	0.716	0.4423	-0.493
Mof_H 	H 	0.1498	0.7285	0.4556	0.204
Mof_C 	C 	0.1	0.5994	0.4624	0.012
Mof_H 	H 	0.089	0.5906	0.4388	0.038
Mof_C 	C 	0.2182	0.6702	0.4428	-0.423
Mof_H 	H 	0.2307	0.6493	0.4557	0.184
Mof_O 	O 	0.2545	0.711	0.3303	-0.512
Mof_C 	C 	0.2214	0.7242	0.3453	0.527
Mof_O 	O 	0.2004	0.7471	0.3273	-0.542
Mof_Zn	Zn	0.19818	0.76952	0.27358	1.214
Mof_C 	C 	0.2315	0.6845	0.4042	0.302
Mof_H 	H 	0.254	0.6736	0.3928	-0.057
Mof_O 	O 	0.2465	0.7504	0.6508	-0.479
Mof_C 	C 	0.6893	0.1755	0.1018	-0.098
Mof_H 	H 	0.6807	0.162	0.1242	0.091
Mof_C 	C 	0.6449	0.139	0.994	0.058
Mof_C 	C 	0.7293	0.2263	0.0729	0.016
Mof_H 	H 	0.7461	0.2481	0.0747	0.034
Mof_O 	O 	0.6477	0.1338	0.0663	-0.222
Mof_C 	C 	0.717	0.2121	0.0365	-0.111
Mof_H 	H 	0.7291	0.2221	0.0139	0.069
Mof_N 	N 	0.6757	0.17	0.9954	-0.176
Mof_C 	C 	0.6314	0.1245	0.0308	0.115
Mof_C 	C 	0.6769	0.1651	0.068	0.114
Mof_C 	C 	0.689	0.1851	0.032	0.047
Mof_C 	C 	0.7159	0.2073	0.1062	-0.07
Mof_C 	C 	0.603	0.0965	0.0324	-0.099
Mof_H 	H 	0.5948	0.0862	0.0566	0.089
Mof_C 	C 	0.5861	0.0834	0.997	-0.052
Mof_C 	C 	0.6292	0.1275	0.9607	-0.11
Mof_H 	H 	0.6375	0.1381	0.9366	0.074
Mof_C 	C 	0.5539	0.0537	0.9954	0.347
Mof_O 	O 	0.5432	0.0407	0.0316	-0.433
Mof_C 	C 	0.7297	0.2151	0.1465	0.343
Mof_O 	O 	0.7149	0.1981	0.176	-0.513
Mof_O 	O 	0.5399	0.042	0.9638	-0.463
Mof_C 	C 	0.712	0.2131	0.8849	-0.393
Mof_C 	C 	0.6814	0.2291	0.9044	0.357
Mof_H 	H 	0.6671	0.2494	0.8926	-0.076
Mof_C 	C 	0.6879	0.188	0.9581	0.415
Mof_C 	C 	0.6704	0.216	0.9423	-0.495
Mof_H 	H 	0.6498	0.2285	0.9556	0.208
Mof_C 	C 	0.6	0.0994	0.9624	0.012
Mof_H 	H 	0.589	0.0906	0.9388	0.038
Mof_C 	C 	0.7182	0.1702	0.9428	-0.425
Mof_H 	H 	0.7307	0.1493	0.9557	0.187
Mof_O 	O 	0.7545	0.211	0.8303	-0.512
Mof_C 	C 	0.7214	0.2242	0.8453	0.528
Mof_O 	O 	0.7004	0.2471	0.8273	-0.541
Mof_Zn	Zn	0.69818	0.26952	0.77358	1.214
Mof_C 	C 	0.7315	0.1845	0.9042	0.304
Mof_H 	H 	0.754	0.1736	0.8928	-0.057
Mof_O 	O 	0.7465	0.2504	0.1508	-0.48
Mof_C 	C 	0.1893	0.3245	0.3982	-0.094
Mof_H 	H 	0.1807	0.338	0.3758	0.091
Mof_C 	C 	0.1449	0.361	0.506	0.045
Mof_C 	C 	0.2293	0.2737	0.4271	0.022
Mof_H 	H 	0.2461	0.2519	0.4253	0.033
Mof_O 	O 	0.1477	0.3662	0.4337	-0.221
Mof_C 	C 	0.217	0.2879	0.4635	-0.119
Mof_H 	H 	0.2291	0.2779	0.4861	0.075
Mof_N 	N 	0.1757	0.33	0.5046	-0.181
Mof_C 	C 	0.1314	0.3755	0.4692	0.124
Mof_C 	C 	0.1769	0.3349	0.432	0.112
Mof_C 	C 	0.189	0.3149	0.468	0.06
Mof_C 	C 	0.2159	0.2927	0.3938	-0.073
Mof_C 	C 	0.103	0.4035	0.4676	-0.087
Mof_H 	H 	0.0948	0.4138	0.4434	0.087
Mof_C 	C 	0.0861	0.4166	0.503	-0.063
Mof_C 	C 	0.1292	0.3725	0.5393	-0.106
Mof_H 	H 	0.1375	0.3619	0.5634	0.073
Mof_C 	C 	0.0539	0.4463	0.5046	0.337
Mof_O 	O 	0.0432	0.4593	0.4684	-0.423
Mof_C 	C 	0.2297	0.2849	0.3535	0.345
Mof_O 	O 	0.2149	0.3019	0.324	-0.513
Mof_O 	O 	0.0399	0.458	0.5362	-0.463
Mof_C 	C 	0.212	0.2869	0.6151	-0.392
Mof_C 	C 	0.1814	0.2709	0.5956	0.354
Mof_H 	H 	0.1671	0.2506	0.6074	-0.077
Mof_C 	C 	0.1879	0.312	0.5419	0.41
Mof_C 	C 	0.1704	0.284	0.5577	-0.493
Mof_H 	H 	0.1498	0.2715	0.5444	0.204
Mof_C 	C 	0.1	0.4006	0.5376	0.012
Mof_H 	H 	0.089	0.4094	0.5612	0.038
Mof_C 	C 	0.2182	0.3298	0.5572	-0.423
Mof_H 	H 	0.2307	0.3507	0.5443	0.184
Mof_O 	O 	0.2545	0.289	0.6697	-0.512
Mof_C 	C 	0.2214	0.2758	0.6547	0.527
Mof_O 	O 	0.2004	0.2529	0.6727	-0.542
Mof_Zn	Zn	0.19818	0.23048	0.72642	1.214
Mof_C 	C 	0.2315	0.3155	0.5958	0.302
Mof_H 	H 	0.254	0.3264	0.6072	-0.057
Mof_O 	O 	0.2465	0.2496	0.3492	-0.48
Mof_C 	C 	0.6893	0.8245	0.8982	-0.09
Mof_H 	H 	0.6807	0.838	0.8758	0.091
Mof_C 	C 	0.6449	0.861	0.006	0.032
Mof_C 	C 	0.7293	0.7737	0.9271	0.029
Mof_H 	H 	0.7461	0.7519	0.9253	0.033
Mof_O 	O 	0.6477	0.8662	0.9337	-0.22
Mof_C 	C 	0.717	0.7879	0.9635	-0.126
Mof_H 	H 	0.7291	0.7779	0.9861	0.083
Mof_N 	N 	0.6757	0.83	0.0046	-0.186
Mof_C 	C 	0.6314	0.8755	0.9692	0.136
Mof_C 	C 	0.6769	0.8349	0.932	0.11
Mof_C 	C 	0.689	0.8149	0.968	0.074
Mof_C 	C 	0.7159	0.7927	0.8938	-0.075
Mof_C 	C 	0.603	0.9035	0.9676	-0.076
Mof_H 	H 	0.5948	0.9138	0.9434	0.087
Mof_C 	C 	0.5861	0.9166	0.003	-0.07
Mof_C 	C 	0.6292	0.8725	0.0393	-0.1
Mof_H 	H 	0.6375	0.8619	0.0634	0.072
Mof_C 	C 	0.5539	0.9463	0.0046	0.326
Mof_O 	O 	0.5432	0.9593	0.9684	-0.406
Mof_C 	C 	0.7297	0.7849	0.8535	0.346
Mof_O 	O 	0.7149	0.8019	0.824	-0.512
Mof_O 	O 	0.5399	0.958	0.0362	-0.454
Mof_C 	C 	0.712	0.7869	0.1151	-0.39
Mof_C 	C 	0.6814	0.7709	0.0956	0.351
Mof_H 	H 	0.6671	0.7506	0.1074	-0.076
Mof_C 	C 	0.6879	0.812	0.0419	0.407
Mof_C 	C 	0.6704	0.784	0.0577	-0.491
Mof_H 	H 	0.6498	0.7715	0.0444	0.202
Mof_C 	C 	0.6	0.9006	0.0376	0.01
Mof_H 	H 	0.589	0.9094	0.0612	0.04
Mof_C 	C 	0.7182	0.8298	0.0572	-0.422
Mof_H 	H 	0.7307	0.8507	0.0443	0.183
Mof_O 	O 	0.7545	0.789	0.1697	-0.512
Mof_C 	C 	0.7214	0.7758	0.1547	0.527
Mof_O 	O 	0.7004	0.7529	0.1727	-0.542
Mof_Zn	Zn	0.69818	0.73048	0.22642	1.214
Mof_C 	C 	0.7315	0.8155	0.0958	0.3
Mof_H 	H 	0.754	0.8264	0.1072	-0.056
Mof_O 	O 	0.7465	0.7496	0.8492	-0.478
Mof_C 	C 	0.6018	0.8107	0.3245	-0.094
Mof_H 	H 	0.6242	0.8193	0.338	0.092
Mof_C 	C 	0.494	0.8551	0.361	0.044
Mof_C 	C 	0.5729	0.7707	0.2737	0.022
Mof_H 	H 	0.5747	0.7539	0.2519	0.033
Mof_O 	O 	0.5663	0.8523	0.3662	-0.22
Mof_C 	C 	0.5365	0.783	0.2879	-0.118
Mof_H 	H 	0.5139	0.7709	0.2779	0.075
Mof_N 	N 	0.4954	0.8243	0.33	-0.181
Mof_C 	C 	0.5308	0.8686	0.3755	0.126
Mof_C 	C 	0.568	0.8231	0.3349	0.112
Mof_C 	C 	0.532	0.811	0.3149	0.061
Mof_C 	C 	0.6062	0.7841	0.2927	-0.073
Mof_C 	C 	0.5324	0.897	0.4035	-0.088
Mof_H 	H 	0.5566	0.9052	0.4138	0.089
Mof_C 	C 	0.497	0.9139	0.4166	-0.059
Mof_C 	C 	0.4607	0.8708	0.3725	-0.103
Mof_H 	H 	0.4366	0.8625	0.3619	0.073
Mof_C 	C 	0.4954	0.9461	0.4463	0.336
Mof_O 	O 	0.5316	0.9568	0.4593	-0.415
Mof_C 	C 	0.6465	0.7703	0.2849	0.344
Mof_O 	O 	0.676	0.7851	0.3019	-0.512
Mof_O 	O 	0.4638	0.9601	0.458	-0.455
Mof_C 	C 	0.3849	0.788	0.2869	-0.392
Mof_C 	C 	0.4044	0.8186	0.2709	0.355
Mof_H 	H 	0.3926	0.8329	0.2506	-0.076
Mof_C 	C 	0.4581	0.8121	0.312	0.411
Mof_C 	C 	0.4423	0.8296	0.284	-0.493
Mof_H 	H 	0.4556	0.8502	0.2715	0.206
Mof_C 	C 	0.4624	0.9	0.4006	0.01
Mof_H 	H 	0.4388	0.911	0.4094	0.041
Mof_C 	C 	0.4428	0.7818	0.3298	-0.424
Mof_H 	H 	0.4557	0.7693	0.3507	0.185
Mof_O 	O 	0.3303	0.7455	0.289	-0.512
Mof_C 	C 	0.3453	0.7786	0.2758	0.527
Mof_O 	O 	0.3273	0.7996	0.2529	-0.541
Mof_Zn	Zn	0.27358	0.80182	0.23048	1.214
Mof_C 	C 	0.4042	0.7685	0.3155	0.302
Mof_H 	H 	0.3928	0.746	0.3264	-0.057
Mof_O 	O 	0.6508	0.7535	0.2496	-0.479
Mof_C 	C 	0.1018	0.3107	0.8245	-0.098
Mof_H 	H 	0.1242	0.3193	0.838	0.092
Mof_C 	C 	0.994	0.3551	0.861	0.058
Mof_C 	C 	0.0729	0.2707	0.7737	0.015
Mof_H 	H 	0.0747	0.2539	0.7519	0.034
Mof_O 	O 	0.0663	0.3523	0.8662	-0.221
Mof_C 	C 	0.0365	0.283	0.7879	-0.111
Mof_H 	H 	0.0139	0.2709	0.7779	0.069
Mof_N 	N 	0.9954	0.3243	0.83	-0.176
Mof_C 	C 	0.0308	0.3686	0.8755	0.117
Mof_C 	C 	0.068	0.3231	0.8349	0.115
Mof_C 	C 	0.032	0.311	0.8149	0.047
Mof_C 	C 	0.1062	0.2841	0.7927	-0.07
Mof_C 	C 	0.0324	0.397	0.9035	-0.1
Mof_H 	H 	0.0566	0.4052	0.9138	0.092
Mof_C 	C 	0.997	0.4139	0.9166	-0.048
Mof_C 	C 	0.9607	0.3708	0.8725	-0.107
Mof_H 	H 	0.9366	0.3625	0.8619	0.075
Mof_C 	C 	0.9954	0.4461	0.9463	0.347
Mof_O 	O 	0.0316	0.4568	0.9593	-0.424
Mof_C 	C 	0.1465	0.2703	0.7849	0.343
Mof_O 	O 	0.176	0.2851	0.8019	-0.512
Mof_O 	O 	0.9638	0.4601	0.958	-0.455
Mof_C 	C 	0.8849	0.288	0.7869	-0.393
Mof_C 	C 	0.9044	0.3186	0.7709	0.357
Mof_H 	H 	0.8926	0.3329	0.7506	-0.076
Mof_C 	C 	0.9581	0.3121	0.812	0.415
Mof_C 	C 	0.9423	0.3296	0.784	-0.496
Mof_H 	H 	0.9556	0.3502	0.7715	0.208
Mof_C 	C 	0.9624	0.4	0.9006	0.011
Mof_H 	H 	0.9388	0.411	0.9094	0.041
Mof_C 	C 	0.9428	0.2818	0.8298	-0.425
Mof_H 	H 	0.9557	0.2693	0.8507	0.188
Mof_O 	O 	0.8303	0.2455	0.789	-0.511
Mof_C 	C 	0.8453	0.2786	0.7758	0.528
Mof_O 	O 	0.8273	0.2996	0.7529	-0.541
Mof_Zn	Zn	0.77358	0.30182	0.73048	1.214
Mof_C 	C 	0.9042	0.2685	0.8155	0.305
Mof_H 	H 	0.8928	0.246	0.8264	-0.057
Mof_O 	O 	0.1508	0.2535	0.7496	-0.48
Mof_C 	C 	0.3982	0.8107	0.6755	-0.094
Mof_H 	H 	0.3758	0.8193	0.662	0.092
Mof_C 	C 	0.506	0.8551	0.639	0.044
Mof_C 	C 	0.4271	0.7707	0.7263	0.022
Mof_H 	H 	0.4253	0.7539	0.7481	0.034
Mof_O 	O 	0.4337	0.8523	0.6338	-0.22
Mof_C 	C 	0.4635	0.783	0.7121	-0.118
Mof_H 	H 	0.4861	0.7709	0.7221	0.076
Mof_N 	N 	0.5046	0.8243	0.67	-0.181
Mof_C 	C 	0.4692	0.8686	0.6245	0.126
Mof_C 	C 	0.432	0.8231	0.6651	0.113
Mof_C 	C 	0.468	0.811	0.6851	0.061
Mof_C 	C 	0.3938	0.7841	0.7073	-0.072
Mof_C 	C 	0.4676	0.897	0.5965	-0.088
Mof_H 	H 	0.4434	0.9052	0.5862	0.089
Mof_C 	C 	0.503	0.9139	0.5834	-0.059
Mof_C 	C 	0.5393	0.8708	0.6275	-0.103
Mof_H 	H 	0.5634	0.8625	0.6381	0.073
Mof_C 	C 	0.5046	0.9461	0.5537	0.336
Mof_O 	O 	0.4684	0.9568	0.5407	-0.415
Mof_C 	C 	0.3535	0.7703	0.7151	0.344
Mof_O 	O 	0.324	0.7851	0.6981	-0.512
Mof_O 	O 	0.5362	0.9601	0.542	-0.455
Mof_C 	C 	0.6151	0.788	0.7131	-0.392
Mof_C 	C 	0.5956	0.8186	0.7291	0.354
Mof_H 	H 	0.6074	0.8329	0.7494	-0.075
Mof_C 	C 	0.5419	0.8121	0.688	0.411
Mof_C 	C 	0.5577	0.8296	0.716	-0.493
Mof_H 	H 	0.5444	0.8502	0.7285	0.206
Mof_C 	C 	0.5376	0.9	0.5994	0.01
Mof_H 	H 	0.5612	0.911	0.5906	0.041
Mof_C 	C 	0.5572	0.7818	0.6702	-0.423
Mof_H 	H 	0.5443	0.7693	0.6493	0.185
Mof_O 	O 	0.6697	0.7455	0.711	-0.512
Mof_C 	C 	0.6547	0.7786	0.7242	0.527
Mof_O 	O 	0.6727	0.7996	0.7471	-0.541
Mof_Zn	Zn	0.72642	0.80182	0.76952	1.214
Mof_C 	C 	0.5958	0.7685	0.6845	0.302
Mof_H 	H 	0.6072	0.746	0.6736	-0.057
Mof_O 	O 	0.3492	0.7535	0.7504	-0.479
Mof_C 	C 	0.8982	0.3107	0.1755	-0.09
Mof_H 	H 	0.8758	0.3193	0.162	0.089
Mof_C 	C 	0.006	0.3551	0.139	0.032
Mof_C 	C 	0.9271	0.2707	0.2263	0.029
Mof_H 	H 	0.9253	0.2539	0.2481	0.032
Mof_O 	O 	0.9337	0.3523	0.1338	-0.221
Mof_C 	C 	0.9635	0.283	0.2121	-0.127
Mof_H 	H 	0.9861	0.2709	0.2221	0.082
Mof_N 	N 	0.0046	0.3243	0.17	-0.186
Mof_C 	C 	0.9692	0.3686	0.1245	0.134
Mof_C 	C 	0.932	0.3231	0.1651	0.109
Mof_C 	C 	0.968	0.311	0.1851	0.074
Mof_C 	C 	0.8938	0.2841	0.2073	-0.076
Mof_C 	C 	0.9676	0.397	0.0965	-0.075
Mof_H 	H 	0.9434	0.4052	0.0862	0.084
Mof_C 	C 	0.003	0.4139	0.0834	-0.074
Mof_C 	C 	0.0393	0.3708	0.1275	-0.103
Mof_H 	H 	0.0634	0.3625	0.1381	0.071
Mof_C 	C 	0.0046	0.4461	0.0537	0.327
Mof_O 	O 	0.9684	0.4568	0.0407	-0.414
Mof_C 	C 	0.8535	0.2703	0.2151	0.346
Mof_O 	O 	0.824	0.2851	0.1981	-0.513
Mof_O 	O 	0.0362	0.4601	0.042	-0.462
Mof_C 	C 	0.1151	0.288	0.2131	-0.391
Mof_C 	C 	0.0956	0.3186	0.2291	0.351
Mof_H 	H 	0.1074	0.3329	0.2494	-0.076
Mof_C 	C 	0.0419	0.3121	0.188	0.406
Mof_C 	C 	0.0577	0.3296	0.216	-0.491
Mof_H 	H 	0.0444	0.3502	0.2285	0.201
Mof_C 	C 	0.0376	0.4	0.0994	0.011
Mof_H 	H 	0.0612	0.411	0.0906	0.037
Mof_C 	C 	0.0572	0.2818	0.1702	-0.422
Mof_H 	H 	0.0443	0.2693	0.1493	0.18
Mof_O 	O 	0.1697	0.2455	0.211	-0.513
Mof_C 	C 	0.1547	0.2786	0.2242	0.526
Mof_O 	O 	0.1727	0.2996	0.2471	-0.542
Mof_Zn	Zn	0.22642	0.30182	0.26952	1.214
Mof_C 	C 	0.0958	0.2685	0.1845	0.299
Mof_H 	H 	0.1072	0.246	0.1736	-0.058
Mof_O 	O 	0.8492	0.2535	0.2504	-0.479
Mof_C 	C 	0.6018	0.1893	0.6755	-0.094
Mof_H 	H 	0.6242	0.1807	0.662	0.091
Mof_C 	C 	0.494	0.1449	0.639	0.045
Mof_C 	C 	0.5729	0.2293	0.7263	0.022
Mof_H 	H 	0.5747	0.2461	0.7481	0.034
Mof_O 	O 	0.5663	0.1477	0.6338	-0.221
Mof_C 	C 	0.5365	0.217	0.7121	-0.119
Mof_H 	H 	0.5139	0.2291	0.7221	0.076
Mof_N 	N 	0.4954	0.1757	0.67	-0.181
Mof_C 	C 	0.5308	0.1314	0.6245	0.124
Mof_C 	C 	0.568	0.1769	0.6651	0.112
Mof_C 	C 	0.532	0.189	0.6851	0.061
Mof_C 	C 	0.6062	0.2159	0.7073	-0.073
Mof_C 	C 	0.5324	0.103	0.5965	-0.087
Mof_H 	H 	0.5566	0.0948	0.5862	0.087
Mof_C 	C 	0.497	0.0861	0.5834	-0.063
Mof_C 	C 	0.4607	0.1292	0.6275	-0.106
Mof_H 	H 	0.4366	0.1375	0.6381	0.073
Mof_C 	C 	0.4954	0.0539	0.5537	0.337
Mof_O 	O 	0.5316	0.0432	0.5407	-0.423
Mof_C 	C 	0.6465	0.2297	0.7151	0.344
Mof_O 	O 	0.676	0.2149	0.6981	-0.513
Mof_O 	O 	0.4638	0.0399	0.542	-0.463
Mof_C 	C 	0.3849	0.212	0.7131	-0.392
Mof_C 	C 	0.4044	0.1814	0.7291	0.354
Mof_H 	H 	0.3926	0.1671	0.7494	-0.076
Mof_C 	C 	0.4581	0.1879	0.688	0.41
Mof_C 	C 	0.4423	0.1704	0.716	-0.493
Mof_H 	H 	0.4556	0.1498	0.7285	0.204
Mof_C 	C 	0.4624	0.1	0.5994	0.012
Mof_H 	H 	0.4388	0.089	0.5906	0.038
Mof_C 	C 	0.4428	0.2182	0.6702	-0.423
Mof_H 	H 	0.4557	0.2307	0.6493	0.184
Mof_O 	O 	0.3303	0.2545	0.711	-0.512
Mof_C 	C 	0.3453	0.2214	0.7242	0.527
Mof_O 	O 	0.3273	0.2004	0.7471	-0.542
Mof_Zn	Zn	0.27358	0.19818	0.76952	1.214
Mof_C 	C 	0.4042	0.2315	0.6845	0.302
Mof_H 	H 	0.3928	0.254	0.6736	-0.057
Mof_O 	O 	0.6508	0.2465	0.7504	-0.479
Mof_C 	C 	0.1018	0.6893	0.1755	-0.098
Mof_H 	H 	0.1242	0.6807	0.162	0.091
Mof_C 	C 	0.994	0.6449	0.139	0.058
Mof_C 	C 	0.0729	0.7293	0.2263	0.016
Mof_H 	H 	0.0747	0.7461	0.2481	0.034
Mof_O 	O 	0.0663	0.6477	0.1338	-0.222
Mof_C 	C 	0.0365	0.717	0.2121	-0.111
Mof_H 	H 	0.0139	0.7291	0.2221	0.069
Mof_N 	N 	0.9954	0.6757	0.17	-0.176
Mof_C 	C 	0.0308	0.6314	0.1245	0.115
Mof_C 	C 	0.068	0.6769	0.1651	0.114
Mof_C 	C 	0.032	0.689	0.1851	0.047
Mof_C 	C 	0.1062	0.7159	0.2073	-0.07
Mof_C 	C 	0.0324	0.603	0.0965	-0.099
Mof_H 	H 	0.0566	0.5948	0.0862	0.089
Mof_C 	C 	0.997	0.5861	0.0834	-0.052
Mof_C 	C 	0.9607	0.6292	0.1275	-0.11
Mof_H 	H 	0.9366	0.6375	0.1381	0.074
Mof_C 	C 	0.9954	0.5539	0.0537	0.347
Mof_O 	O 	0.0316	0.5432	0.0407	-0.433
Mof_C 	C 	0.1465	0.7297	0.2151	0.343
Mof_O 	O 	0.176	0.7149	0.1981	-0.513
Mof_O 	O 	0.9638	0.5399	0.042	-0.463
Mof_C 	C 	0.8849	0.712	0.2131	-0.393
Mof_C 	C 	0.9044	0.6814	0.2291	0.357
Mof_H 	H 	0.8926	0.6671	0.2494	-0.076
Mof_C 	C 	0.9581	0.6879	0.188	0.415
Mof_C 	C 	0.9423	0.6704	0.216	-0.495
Mof_H 	H 	0.9556	0.6498	0.2285	0.208
Mof_C 	C 	0.9624	0.6	0.0994	0.012
Mof_H 	H 	0.9388	0.589	0.0906	0.038
Mof_C 	C 	0.9428	0.7182	0.1702	-0.425
Mof_H 	H 	0.9557	0.7307	0.1493	0.187
Mof_O 	O 	0.8303	0.7545	0.211	-0.512
Mof_C 	C 	0.8453	0.7214	0.2242	0.528
Mof_O 	O 	0.8273	0.7004	0.2471	-0.541
Mof_Zn	Zn	0.77358	0.69818	0.26952	1.214
Mof_C 	C 	0.9042	0.7315	0.1845	0.304
Mof_H 	H 	0.8928	0.754	0.1736	-0.057
Mof_O 	O 	0.1508	0.7465	0.2504	-0.48
Mof_C 	C 	0.3982	0.1893	0.3245	-0.094
Mof_H 	H 	0.3758	0.1807	0.338	0.091
Mof_C 	C 	0.506	0.1449	0.361	0.045
Mof_C 	C 	0.4271	0.2293	0.2737	0.022
Mof_H 	H 	0.4253	0.2461	0.2519	0.033
Mof_O 	O 	0.4337	0.1477	0.3662	-0.221
Mof_C 	C 	0.4635	0.217	0.2879	-0.119
Mof_H 	H 	0.4861	0.2291	0.2779	0.075
Mof_N 	N 	0.5046	0.1757	0.33	-0.181
Mof_C 	C 	0.4692	0.1314	0.3755	0.124
Mof_C 	C 	0.432	0.1769	0.3349	0.112
Mof_C 	C 	0.468	0.189	0.3149	0.06
Mof_C 	C 	0.3938	0.2159	0.2927	-0.073
Mof_C 	C 	0.4676	0.103	0.4035	-0.087
Mof_H 	H 	0.4434	0.0948	0.4138	0.087
Mof_C 	C 	0.503	0.0861	0.4166	-0.063
Mof_C 	C 	0.5393	0.1292	0.3725	-0.106
Mof_H 	H 	0.5634	0.1375	0.3619	0.073
Mof_C 	C 	0.5046	0.0539	0.4463	0.337
Mof_O 	O 	0.4684	0.0432	0.4593	-0.423
Mof_C 	C 	0.3535	0.2297	0.2849	0.345
Mof_O 	O 	0.324	0.2149	0.3019	-0.513
Mof_O 	O 	0.5362	0.0399	0.458	-0.463
Mof_C 	C 	0.6151	0.212	0.2869	-0.392
Mof_C 	C 	0.5956	0.1814	0.2709	0.354
Mof_H 	H 	0.6074	0.1671	0.2506	-0.077
Mof_C 	C 	0.5419	0.1879	0.312	0.41
Mof_C 	C 	0.5577	0.1704	0.284	-0.493
Mof_H 	H 	0.5444	0.1498	0.2715	0.204
Mof_C 	C 	0.5376	0.1	0.4006	0.012
Mof_H 	H 	0.5612	0.089	0.4094	0.038
Mof_C 	C 	0.5572	0.2182	0.3298	-0.423
Mof_H 	H 	0.5443	0.2307	0.3507	0.184
Mof_O 	O 	0.6697	0.2545	0.289	-0.512
Mof_C 	C 	0.6547	0.2214	0.2758	0.527
Mof_O 	O 	0.6727	0.2004	0.2529	-0.542
Mof_Zn	Zn	0.72642	0.19818	0.23048	1.214
Mof_C 	C 	0.5958	0.2315	0.3155	0.302
Mof_H 	H 	0.6072	0.254	0.3264	-0.057
Mof_O 	O 	0.3492	0.2465	0.2496	-0.48
Mof_C 	C 	0.8982	0.6893	0.8245	-0.09
Mof_H 	H 	0.8758	0.6807	0.838	0.091
Mof_C 	C 	0.006	0.6449	0.861	0.032
Mof_C 	C 	0.9271	0.7293	0.7737	0.029
Mof_H 	H 	0.9253	0.7461	0.7519	0.033
Mof_O 	O 	0.9337	0.6477	0.8662	-0.22
Mof_C 	C 	0.9635	0.717	0.7879	-0.126
Mof_H 	H 	0.9861	0.7291	0.7779	0.083
Mof_N 	N 	0.0046	0.6757	0.83	-0.186
Mof_C 	C 	0.9692	0.6314	0.8755	0.136
Mof_C 	C 	0.932	0.6769	0.8349	0.11
Mof_C 	C 	0.968	0.689	0.8149	0.074
Mof_C 	C 	0.8938	0.7159	0.7927	-0.075
Mof_C 	C 	0.9676	0.603	0.9035	-0.076
Mof_H 	H 	0.9434	0.5948	0.9138	0.087
Mof_C 	C 	0.003	0.5861	0.9166	-0.07
Mof_C 	C 	0.0393	0.6292	0.8725	-0.1
Mof_H 	H 	0.0634	0.6375	0.8619	0.072
Mof_C 	C 	0.0046	0.5539	0.9463	0.326
Mof_O 	O 	0.9684	0.5432	0.9593	-0.406
Mof_C 	C 	0.8535	0.7297	0.7849	0.346
Mof_O 	O 	0.824	0.7149	0.8019	-0.512
Mof_O 	O 	0.0362	0.5399	0.958	-0.454
Mof_C 	C 	0.1151	0.712	0.7869	-0.39
Mof_C 	C 	0.0956	0.6814	0.7709	0.351
Mof_H 	H 	0.1074	0.6671	0.7506	-0.076
Mof_C 	C 	0.0419	0.6879	0.812	0.407
Mof_C 	C 	0.0577	0.6704	0.784	-0.491
Mof_H 	H 	0.0444	0.6498	0.7715	0.202
Mof_C 	C 	0.0376	0.6	0.9006	0.01
Mof_H 	H 	0.0612	0.589	0.9094	0.04
Mof_C 	C 	0.0572	0.7182	0.8298	-0.422
Mof_H 	H 	0.0443	0.7307	0.8507	0.183
Mof_O 	O 	0.1697	0.7545	0.789	-0.512
Mof_C 	C 	0.1547	0.7214	0.7758	0.527
Mof_O 	O 	0.1727	0.7004	0.7529	-0.542
Mof_Zn	Zn	0.22642	0.69818	0.73048	1.214
Mof_C 	C 	0.0958	0.7315	0.8155	0.3
Mof_H 	H 	0.1072	0.754	0.8264	-0.056
Mof_O 	O 	0.8492	0.7465	0.7496	-0.478
Mof_Co	Co	0.5	0.45644	-0	1.134
Mof_Co	Co	-1.38376e-32	0.95644	0.5	1.135
Mof_Co	Co	0.5	0.54356	-0	1.134
Mof_Co	Co	1.8747e-33	0.04356	0.5	1.132
Mof_Co	Co	1.71138e-33	0.5	0.45644	1.134
Mof_Co	Co	0.5	0	0.95644	1.135
Mof_Co	Co	-3.19941e-33	0.5	0.54356	1.134
Mof_Co	Co	0.5	-3.2734e-34	0.04356	1.132
Mof_Co	Co	0.45644	0	0.5	1.134
Mof_Co	Co	0.95644	0.5	-0	1.135
Mof_Co	Co	0.54356	0	0.5	1.134
Mof_Co	Co	0.04356	0.5	-0	1.132
Mof_Zn	Zn	0.27861	0.27861	0.72139	1.216
Mof_O 	O 	0.2457	0.2457	0.7543	-0.968
Mof_Zn	Zn	0.77861	0.77861	0.22139	1.216
Mof_O 	O 	0.7457	0.7457	0.2543	-0.968
Mof_Zn	Zn	0.72139	0.72139	0.72139	1.216
Mof_O 	O 	0.7543	0.7543	0.7543	-0.968
Mof_Zn	Zn	0.22139	0.22139	0.22139	1.216
Mof_O 	O 	0.2543	0.2543	0.2543	-0.969
Mof_Zn	Zn	0.72139	0.27861	0.27861	1.216
Mof_O 	O 	0.7543	0.2457	0.2457	-0.968
Mof_Zn	Zn	0.22139	0.77861	0.77861	1.216
Mof_O 	O 	0.2543	0.7457	0.7457	-0.968
Mof_Zn	Zn	0.27861	0.72139	0.27861	1.216
Mof_O 	O 	0.2457	0.7543	0.2457	-0.968
Mof_Zn	Zn	0.77861	0.22139	0.77861	1.216
Mof_O 	O 	0.7457	0.2543	0.7457	-0.968
_end
