data_functionalizedCrystal
_audit_creation_method	'EQeq! by Chris Wilmer'
_symmetry_space_group_name_H-M	'P1'
_symmetry_Int_Tables_number	1
_symmetry_cell_setting	triclinic
loop_
_symmetry_equiv_pos_as_xyz
  x,y,z
_cell_length_a	13.741
_cell_length_b	12.356
_cell_length_c	20.729
_cell_angle_alpha	90
_cell_angle_beta	101.45
_cell_angle_gamma	90
loop_
_atom_site_label
_atom_site_type_symbol
_atom_site_fract_x
_atom_site_fract_y
_atom_site_fract_z
_atom_site_charge
Mof_Na	Na	0.2712	0.2405	0.312	2.502
Mof_Na	Na	0.0944	0.103	0.7257	2.381
Mof_Na	Na	0.057	0.8888	0.4681	2.214
Mof_Na	Na	0.1841	0.2856	0.4833	1.809
Mof_S 	S 	0.2333	0.0475	0.3947	0.7
Mof_S 	S 	0.1624	0.8287	0.7121	0.706
Mof_S 	S 	0.2562	0.2399	0.6398	0.734
Mof_O 	O 	0.4986	0.7136	0.5347	-0.259
Mof_O 	O 	0.135	0.0135	0.402	-0.672
Mof_O 	O 	0.2619	0.1527	0.4214	-0.816
Mof_O 	O 	0.2405	0.0409	0.3247	-0.601
Mof_O 	O 	0.5575	0.7129	0.6636	-0.535
Mof_O 	O 	0.1383	0.9362	0.6904	-0.698
Mof_O 	O 	0.1605	0.8081	0.7814	-0.401
Mof_O 	O 	0.097	0.7521	0.671	-0.419
Mof_O 	O 	0.6072	0.5179	0.6655	-0.264
Mof_O 	O 	0.2376	0.2062	0.7032	-0.923
Mof_O 	O 	0.1784	0.3082	0.6049	-0.653
Mof_O 	O 	0.2712	0.1499	0.5988	-0.477
Mof_C 	C 	0.4393	0.7943	0.505	0.135
Mof_C 	C 	0.3884	0.7736	0.4401	-0.106
Mof_C 	C 	0.3264	0.8527	0.4077	0.038
Mof_C 	C 	0.3158	0.9522	0.4359	-0.245
Mof_C 	C 	0.3664	0.97	0.5015	0.042
Mof_C 	C 	0.4264	0.8921	0.5353	-0.101
Mof_C 	C 	0.4741	0.911	0.6078	0.002
Mof_C 	C 	0.469	0.7436	0.6773	0.241
Mof_C 	C 	0.4241	0.8375	0.6528	-0.142
Mof_C 	C 	0.3311	0.869	0.6639	0.062
Mof_C 	C 	0.2836	0.7985	0.7016	-0.213
Mof_C 	C 	0.327	0.7052	0.7262	0.065
Mof_C 	C 	0.4206	0.6744	0.7181	-0.121
Mof_C 	C 	0.4676	0.5723	0.7471	0.017
Mof_C 	C 	0.5286	0.4501	0.6632	0.148
Mof_C 	C 	0.4548	0.4747	0.7016	-0.075
Mof_C 	C 	0.3731	0.4066	0.6939	-0.033
Mof_C 	C 	0.3655	0.3165	0.6546	-0.241
Mof_C 	C 	0.4422	0.29	0.6203	0.029
Mof_C 	C 	0.5246	0.3572	0.627	-0.086
Mof_C 	C 	0.3907	0.6623	0.409	-0.003
Mof_O 	O 	0.1021	0.0153	0.5593	-0.734
Mof_O 	O 	0.0854	0.2246	0.2811	-0.728
Mof_O 	O 	0.2051	0.4187	0.3341	-0.799
Mof_O 	O 	0.9657	0.8106	0.5503	-0.737
Mof_O 	O 	0.99	0.21	0.6325	-0.749
Mof_Na	Na	0.7288	0.7405	0.188	2.503
Mof_Na	Na	0.9056	0.603	0.7743	2.397
Mof_Na	Na	0.943	0.3888	0.0319	2.207
Mof_Na	Na	0.8159	0.7856	0.0167	1.799
Mof_S 	S 	0.7667	0.5475	0.1053	0.699
Mof_S 	S 	0.8376	0.3287	0.7879	0.706
Mof_S 	S 	0.7438	0.7399	0.8602	0.734
Mof_O 	O 	0.5014	0.2136	0.9653	-0.26
Mof_O 	O 	0.865	0.5135	0.098	-0.673
Mof_O 	O 	0.7381	0.6527	0.0786	-0.816
Mof_O 	O 	0.7595	0.5409	0.1753	-0.602
Mof_O 	O 	0.4425	0.2129	0.8364	-0.535
Mof_O 	O 	0.8617	0.4362	0.8096	-0.698
Mof_O 	O 	0.8395	0.3081	0.7186	-0.4
Mof_O 	O 	0.903	0.2521	0.829	-0.416
Mof_O 	O 	0.3928	0.0179	0.8345	-0.267
Mof_O 	O 	0.7624	0.7062	0.7968	-0.924
Mof_O 	O 	0.8216	0.8082	0.8951	-0.648
Mof_O 	O 	0.7288	0.6499	0.9012	-0.475
Mof_C 	C 	0.5607	0.2943	0.995	0.137
Mof_C 	C 	0.6116	0.2736	0.0599	-0.107
Mof_C 	C 	0.6736	0.3527	0.0923	0.039
Mof_C 	C 	0.6842	0.4522	0.0641	-0.246
Mof_C 	C 	0.6336	0.47	0.9985	0.048
Mof_C 	C 	0.5736	0.3921	0.9647	-0.103
Mof_C 	C 	0.5259	0.411	0.8922	0.003
Mof_C 	C 	0.531	0.2436	0.8227	0.241
Mof_C 	C 	0.5759	0.3375	0.8472	-0.142
Mof_C 	C 	0.6689	0.369	0.8361	0.062
Mof_C 	C 	0.7164	0.2985	0.7984	-0.213
Mof_C 	C 	0.673	0.2052	0.7738	0.064
Mof_C 	C 	0.5794	0.1744	0.7819	-0.12
Mof_C 	C 	0.5324	0.0723	0.7529	0.015
Mof_C 	C 	0.4714	0.9501	0.8368	0.15
Mof_C 	C 	0.5452	0.9747	0.7984	-0.074
Mof_C 	C 	0.6269	0.9066	0.8061	-0.033
Mof_C 	C 	0.6345	0.8165	0.8454	-0.241
Mof_C 	C 	0.5578	0.79	0.8797	0.031
Mof_C 	C 	0.4754	0.8572	0.873	-0.086
Mof_C 	C 	0.6093	0.1623	0.091	-0.001
Mof_O 	O 	0.8979	0.5153	0.9407	-0.728
Mof_O 	O 	0.9146	0.7246	0.2189	-0.729
Mof_O 	O 	0.7949	0.9187	0.1659	-0.798
Mof_O 	O 	0.0343	0.3106	0.9497	-0.738
Mof_O 	O 	0.01	0.71	0.8675	-0.753
Mof_Na	Na	0.7288	0.7595	0.688	2.501
Mof_Na	Na	0.9056	0.897	0.2743	2.38
Mof_Na	Na	0.943	0.1112	0.5319	2.213
Mof_Na	Na	0.8159	0.7144	0.5167	1.808
Mof_S 	S 	0.7667	0.9525	0.6053	0.699
Mof_S 	S 	0.8376	0.1713	0.2879	0.705
Mof_S 	S 	0.7438	0.7601	0.3602	0.734
Mof_O 	O 	0.5014	0.2864	0.4653	-0.259
Mof_O 	O 	0.865	0.9865	0.598	-0.672
Mof_O 	O 	0.7381	0.8473	0.5786	-0.816
Mof_O 	O 	0.7595	0.9591	0.6753	-0.601
Mof_O 	O 	0.4425	0.2871	0.3364	-0.535
Mof_O 	O 	0.8617	0.0638	0.3096	-0.698
Mof_O 	O 	0.8395	0.1919	0.2186	-0.401
Mof_O 	O 	0.903	0.2479	0.329	-0.419
Mof_O 	O 	0.3928	0.4821	0.3345	-0.264
Mof_O 	O 	0.7624	0.7938	0.2968	-0.923
Mof_O 	O 	0.8216	0.6918	0.3951	-0.653
Mof_O 	O 	0.7288	0.8501	0.4012	-0.477
Mof_C 	C 	0.5607	0.2057	0.495	0.135
Mof_C 	C 	0.6116	0.2264	0.5599	-0.106
Mof_C 	C 	0.6736	0.1473	0.5923	0.038
Mof_C 	C 	0.6842	0.0478	0.5641	-0.245
Mof_C 	C 	0.6336	0.03	0.4985	0.042
Mof_C 	C 	0.5736	0.1079	0.4647	-0.101
Mof_C 	C 	0.5259	0.089	0.3922	0.002
Mof_C 	C 	0.531	0.2564	0.3227	0.241
Mof_C 	C 	0.5759	0.1625	0.3472	-0.142
Mof_C 	C 	0.6689	0.131	0.3361	0.062
Mof_C 	C 	0.7164	0.2015	0.2984	-0.213
Mof_C 	C 	0.673	0.2948	0.2738	0.065
Mof_C 	C 	0.5794	0.3256	0.2819	-0.121
Mof_C 	C 	0.5324	0.4277	0.2529	0.017
Mof_C 	C 	0.4714	0.5499	0.3368	0.148
Mof_C 	C 	0.5452	0.5253	0.2984	-0.075
Mof_C 	C 	0.6269	0.5934	0.3061	-0.033
Mof_C 	C 	0.6345	0.6835	0.3454	-0.241
Mof_C 	C 	0.5578	0.71	0.3797	0.029
Mof_C 	C 	0.4754	0.6428	0.373	-0.086
Mof_C 	C 	0.6093	0.3377	0.591	-0.003
Mof_O 	O 	0.8979	0.9847	0.4407	-0.734
Mof_O 	O 	0.9146	0.7754	0.7189	-0.728
Mof_O 	O 	0.7949	0.5813	0.6659	-0.799
Mof_O 	O 	0.0343	0.1894	0.4497	-0.737
Mof_O 	O 	0.01	0.79	0.3675	-0.749
Mof_Na	Na	0.2712	0.2595	0.812	2.503
Mof_Na	Na	0.0944	0.397	0.2257	2.397
Mof_Na	Na	0.057	0.6112	0.9681	2.207
Mof_Na	Na	0.1841	0.2144	0.9833	1.799
Mof_S 	S 	0.2333	0.4525	0.8947	0.699
Mof_S 	S 	0.1624	0.6713	0.2121	0.706
Mof_S 	S 	0.2562	0.2601	0.1398	0.734
Mof_O 	O 	0.4986	0.7864	0.0347	-0.26
Mof_O 	O 	0.135	0.4865	0.902	-0.673
Mof_O 	O 	0.2619	0.3473	0.9214	-0.816
Mof_O 	O 	0.2405	0.4591	0.8247	-0.602
Mof_O 	O 	0.5575	0.7871	0.1636	-0.535
Mof_O 	O 	0.1383	0.5638	0.1904	-0.698
Mof_O 	O 	0.1605	0.6919	0.2814	-0.4
Mof_O 	O 	0.097	0.7479	0.171	-0.416
Mof_O 	O 	0.6072	0.9821	0.1655	-0.267
Mof_O 	O 	0.2376	0.2938	0.2032	-0.924
Mof_O 	O 	0.1784	0.1918	0.1049	-0.648
Mof_O 	O 	0.2712	0.3501	0.0988	-0.475
Mof_C 	C 	0.4393	0.7057	0.005	0.137
Mof_C 	C 	0.3884	0.7264	0.9401	-0.107
Mof_C 	C 	0.3264	0.6473	0.9077	0.039
Mof_C 	C 	0.3158	0.5478	0.9359	-0.246
Mof_C 	C 	0.3664	0.53	0.0015	0.048
Mof_C 	C 	0.4264	0.6079	0.0353	-0.103
Mof_C 	C 	0.4741	0.589	0.1078	0.003
Mof_C 	C 	0.469	0.7564	0.1773	0.241
Mof_C 	C 	0.4241	0.6625	0.1528	-0.142
Mof_C 	C 	0.3311	0.631	0.1639	0.062
Mof_C 	C 	0.2836	0.7015	0.2016	-0.213
Mof_C 	C 	0.327	0.7948	0.2262	0.064
Mof_C 	C 	0.4206	0.8256	0.2181	-0.12
Mof_C 	C 	0.4676	0.9277	0.2471	0.015
Mof_C 	C 	0.5286	0.0499	0.1632	0.15
Mof_C 	C 	0.4548	0.0253	0.2016	-0.074
Mof_C 	C 	0.3731	0.0934	0.1939	-0.033
Mof_C 	C 	0.3655	0.1835	0.1546	-0.241
Mof_C 	C 	0.4422	0.21	0.1203	0.031
Mof_C 	C 	0.5246	0.1428	0.127	-0.086
Mof_C 	C 	0.3907	0.8377	0.909	-0.001
Mof_O 	O 	0.1021	0.4847	0.0593	-0.728
Mof_O 	O 	0.0854	0.2754	0.7811	-0.729
Mof_O 	O 	0.2051	0.0813	0.8341	-0.798
Mof_O 	O 	0.9657	0.6894	0.0503	-0.738
Mof_O 	O 	0.99	0.29	0.1325	-0.753
_end
