data_functionalizedCrystal
_audit_creation_method	'EQeq! by Chris Wilmer'
_symmetry_space_group_name_H-M	'P1'
_symmetry_Int_Tables_number	1
_symmetry_cell_setting	triclinic
loop_
_symmetry_equiv_pos_as_xyz
  x,y,z
_cell_length_a	18.7929
_cell_length_b	19.0242
_cell_length_c	26.2547
_cell_angle_alpha	74.825
_cell_angle_beta	78.09
_cell_angle_gamma	64.843
loop_
_atom_site_label
_atom_site_type_symbol
_atom_site_fract_x
_atom_site_fract_y
_atom_site_fract_z
_atom_site_charge
Mof_Cd	Cd	0.97804	0.4015	0.0967	0.507
Mof_Cd	Cd	0.94987	0.29536	0.25732	0.536
Mof_Cd	Cd	0.93479	0.19194	0.40046	0.513
Mof_Cd	Cd	0.02196	0.5985	0.9033	0.503
Mof_Cd	Cd	0.05013	0.70464	0.74268	0.531
Mof_Cd	Cd	0.06521	0.80806	0.59954	0.51
Mof_Cd	Cd	1.39472e-17	0	0.5	0.497
Mof_H 	H 	0.351	0.5989	0.2431	0.09
Mof_H 	H 	0.3708	0.5527	0.0986	0.102
Mof_H 	H 	0.1278	0.6537	0.2143	0.085
Mof_H 	H 	0.9962	0.6676	0.2333	0.027
Mof_H 	H 	0.9537	0.592	0.2012	0.074
Mof_H 	H 	0.1731	0.4906	0.1268	0.084
Mof_H 	H 	0.4612	0.6075	0.274	0.093
Mof_H 	H 	0.538	0.6051	0.2345	0.109
Mof_H 	H 	0.3619	0.9353	0.1915	0.104
Mof_H 	H 	0.335	0.7348	0.2656	0.095
Mof_H 	H 	0.1384	0.0172	0.2642	0.069
Mof_H 	H 	0.9196	0.0198	0.3038	0.045
Mof_H 	H 	0.9671	0.8905	0.2942	0.048
Mof_H 	H 	0.0995	0.8246	0.2692	0.069
Mof_H 	H 	0.494	0.9317	0.16	0.1
Mof_H 	H 	0.5635	0.8509	0.1494	0.115
Mof_H 	H 	0.4006	0.0111	0.0967	0.091
Mof_H 	H 	0.4289	0.9548	0.9569	0.101
Mof_H 	H 	0.2082	0.1795	0.035	0.083
Mof_H 	H 	0.0824	0.3415	0.9187	0.081
Mof_H 	H 	0.1647	0.267	0.8568	0.024
Mof_H 	H 	0.2727	0.1527	0.8826	0.076
Mof_H 	H 	0.6079	0.7809	0.9808	0.119
Mof_H 	H 	0.556	0.8401	0.9352	0.093
Mof_H 	H 	0.4542	0.8108	0.9122	0.091
Mof_H 	H 	0.4182	0.6127	0.9818	0.09
Mof_H 	H 	0.3093	0.8282	0.8089	0.077
Mof_H 	H 	0.2124	0.859	0.7546	0.034
Mof_H 	H 	0.1315	0.7888	0.7751	0.069
Mof_H 	H 	0.2451	0.6573	0.9028	0.087
Mof_H 	H 	0.501	0.5128	0.0466	0.091
Mof_H 	H 	0.5706	0.5258	0.0626	0.102
Mof_H 	H 	0.0534	0.3988	0.5692	0.105
Mof_H 	H 	0.1718	0.5239	0.4722	0.103
Mof_H 	H 	0.1801	0.4674	0.3298	0.086
Mof_H 	H 	0.1645	0.4193	0.2612	0.019
Mof_H 	H 	0.0873	0.3457	0.2781	0.079
Mof_H 	H 	0.0407	0.3685	0.4314	0.1
Mof_H 	H 	0.0494	0.4572	0.6877	0.123
Mof_H 	H 	0.0074	0.4194	0.6626	0.1
Mof_H 	H 	0.0813	0.2802	0.6481	0.097
Mof_H 	H 	0.2797	0.1385	0.7182	0.097
Mof_H 	H 	0.1347	0.0762	0.6061	0.098
Mof_H 	H 	0.2297	0.844	0.6019	0.078
Mof_H 	H 	0.3283	0.8231	0.6511	0.026
Mof_H 	H 	0.3298	0.9298	0.6791	0.083
Mof_H 	H 	0.3175	0.1891	0.782	0.091
Mof_H 	H 	0.2805	0.2812	0.7817	0.089
Mof_H 	H 	0.4393	0.1317	0.7313	0.09
Mof_H 	H 	0.5539	0.2633	0.6386	0.089
Mof_H 	H 	0.648	0.9692	0.7212	0.084
Mof_H 	H 	0.7559	0.8472	0.7207	0.022
Mof_H 	H 	0.8677	0.8416	0.6587	0.084
Mof_H 	H 	0.7604	0.0761	0.6064	0.094
Mof_H 	H 	0.5026	0.4043	0.6338	0.094
Mof_H 	H 	0.42	0.4471	0.6653	0.116
Mof_H 	H 	0.5078	0.395	0.541	0.099
Mof_H 	H 	0.3211	0.5378	0.4609	0.094
Mof_H 	H 	0.6778	0.3401	0.4197	0.085
Mof_H 	H 	0.6914	0.3387	0.2653	0.072
Mof_H 	H 	0.555	0.3867	0.2714	0.026
Mof_H 	H 	0.479	0.4208	0.3505	0.084
Mof_H 	H 	0.1906	0.6141	0.5672	0.134
Mof_H 	H 	0.1986	0.6188	0.5052	0.111
Mof_H 	H 	0.5829	0.5935	0.1634	0.255
Mof_H 	H 	0.5795	0.74	0.1475	0.246
Mof_H 	H 	0.5702	0.7476	0.0684	0.264
Mof_H 	H 	0.5871	0.6222	0.0686	0.283
Mof_H 	H 	0.176	0.5341	0.6397	0.255
Mof_H 	H 	0.2127	0.3774	0.7466	0.19
Mof_H 	H 	0.2808	0.3796	0.7307	0.218
Mof_H 	H 	0.2902	0.4667	0.6582	0.269
Mof_H 	H 	0.1052	0.1977	0.1967	-0.009
Mof_H 	H 	0.2976	0.1313	0.1766	0.122
Mof_H 	H 	0.2288	0.1149	0.1625	0.133
Mof_H 	H 	0.2715	0.1631	0.1185	0.132
Mof_H 	H 	0.1786	0.3345	0.1849	0.15
Mof_H 	H 	0.2668	0.2715	0.1883	0.134
Mof_H 	H 	0.2346	0.3136	0.1323	0.146
Mof_H 	H 	0.7938	0.2393	0.4814	-0.011
Mof_H 	H 	0.6854	0.2758	0.5408	0.132
Mof_H 	H 	0.6941	0.2217	0.5982	0.135
Mof_H 	H 	0.7008	0.3048	0.5873	0.126
Mof_H 	H 	0.9023	0.1581	0.588	0.174
Mof_H 	H 	0.8436	0.2254	0.6193	0.144
Mof_H 	H 	0.83	0.1464	0.627	0.156
Mof_H 	H 	0.9361	0.4505	0.2288	0.325
Mof_H 	H 	0.902	0.4514	0.2787	0.327
Mof_H 	H 	0.649	0.4011	0.7569	0.09
Mof_H 	H 	0.6292	0.4473	0.9014	0.102
Mof_H 	H 	0.8722	0.3463	0.7857	0.086
Mof_H 	H 	0.0038	0.3324	0.7667	0.02
Mof_H 	H 	0.0463	0.408	0.7988	0.068
Mof_H 	H 	0.8269	0.5094	0.8732	0.084
Mof_H 	H 	0.5388	0.3925	0.726	0.093
Mof_H 	H 	0.462	0.3949	0.7655	0.109
Mof_H 	H 	0.6381	0.0647	0.8085	0.102
Mof_H 	H 	0.665	0.2652	0.7344	0.095
Mof_H 	H 	0.8616	0.9828	0.7358	0.101
Mof_H 	H 	0.0804	0.9802	0.6962	0.09
Mof_H 	H 	0.0329	0.1095	0.7058	0.006
Mof_H 	H 	0.9005	0.1754	0.7308	0.097
Mof_H 	H 	0.506	0.0683	0.84	0.099
Mof_H 	H 	0.4365	0.1491	0.8506	0.115
Mof_H 	H 	0.5994	0.9889	0.9033	0.101
Mof_H 	H 	0.5711	0.0452	0.0431	0.1
Mof_H 	H 	0.7918	0.8205	0.965	0.084
Mof_H 	H 	0.9176	0.6585	0.0813	0.082
Mof_H 	H 	0.8353	0.733	0.1432	0.024
Mof_H 	H 	0.7273	0.8473	0.1174	0.077
Mof_H 	H 	0.3921	0.2191	0.0192	0.119
Mof_H 	H 	0.444	0.1599	0.0648	0.093
Mof_H 	H 	0.5458	0.1892	0.0878	0.09
Mof_H 	H 	0.5818	0.3873	0.0182	0.09
Mof_H 	H 	0.6907	0.1718	0.1911	0.076
Mof_H 	H 	0.7876	0.141	0.2454	0.034
Mof_H 	H 	0.8685	0.2112	0.2249	0.069
Mof_H 	H 	0.7549	0.3427	0.0972	0.087
Mof_H 	H 	0.499	0.4872	0.9534	0.091
Mof_H 	H 	0.4294	0.4742	0.9374	0.102
Mof_H 	H 	0.9466	0.6012	0.4308	0.107
Mof_H 	H 	0.8282	0.4761	0.5278	0.104
Mof_H 	H 	0.8199	0.5326	0.6702	0.086
Mof_H 	H 	0.8355	0.5807	0.7388	0.019
Mof_H 	H 	0.9127	0.6543	0.7219	0.079
Mof_H 	H 	0.9593	0.6315	0.5686	0.101
Mof_H 	H 	0.9506	0.5428	0.3123	0.126
Mof_H 	H 	0.9926	0.5806	0.3374	0.103
Mof_H 	H 	0.9187	0.7198	0.3519	0.098
Mof_H 	H 	0.7203	0.8615	0.2818	0.098
Mof_H 	H 	0.8653	0.9238	0.3939	0.097
Mof_H 	H 	0.7703	0.156	0.3981	0.079
Mof_H 	H 	0.6717	0.1769	0.3489	0.025
Mof_H 	H 	0.6702	0.0702	0.3209	0.084
Mof_H 	H 	0.6825	0.8109	0.218	0.091
Mof_H 	H 	0.7195	0.7188	0.2183	0.089
Mof_H 	H 	0.5607	0.8683	0.2687	0.091
Mof_H 	H 	0.4461	0.7367	0.3614	0.089
Mof_H 	H 	0.352	0.0308	0.2788	0.085
Mof_H 	H 	0.2441	0.1528	0.2793	0.02
Mof_H 	H 	0.1323	0.1584	0.3413	0.084
Mof_H 	H 	0.2396	0.9239	0.3936	0.093
Mof_H 	H 	0.4974	0.5957	0.3662	0.094
Mof_H 	H 	0.58	0.5529	0.3347	0.116
Mof_H 	H 	0.4922	0.605	0.459	0.1
Mof_H 	H 	0.6789	0.4622	0.5391	0.095
Mof_H 	H 	0.3222	0.6599	0.5803	0.085
Mof_H 	H 	0.3086	0.6613	0.7347	0.072
Mof_H 	H 	0.445	0.6133	0.7286	0.026
Mof_H 	H 	0.521	0.5792	0.6495	0.084
Mof_H 	H 	0.8094	0.3859	0.4328	0.135
Mof_H 	H 	0.8014	0.3812	0.4948	0.112
Mof_H 	H 	0.4171	0.4065	0.8366	0.255
Mof_H 	H 	0.4205	0.26	0.8525	0.246
Mof_H 	H 	0.4298	0.2524	0.9316	0.264
Mof_H 	H 	0.4129	0.3778	0.9314	0.283
Mof_H 	H 	0.824	0.4659	0.3603	0.254
Mof_H 	H 	0.7873	0.6226	0.2534	0.19
Mof_H 	H 	0.7192	0.6204	0.2693	0.217
Mof_H 	H 	0.7098	0.5333	0.3418	0.269
Mof_H 	H 	0.8948	0.8023	0.8033	-0.009
Mof_H 	H 	0.7024	0.8687	0.8234	0.124
Mof_H 	H 	0.7712	0.8851	0.8375	0.135
Mof_H 	H 	0.7285	0.8369	0.8815	0.133
Mof_H 	H 	0.8214	0.6655	0.8151	0.151
Mof_H 	H 	0.7332	0.7285	0.8117	0.134
Mof_H 	H 	0.7654	0.6864	0.8677	0.147
Mof_H 	H 	0.2062	0.7607	0.5186	-0.011
Mof_H 	H 	0.3146	0.7242	0.4592	0.132
Mof_H 	H 	0.3059	0.7783	0.4018	0.136
Mof_H 	H 	0.2992	0.6952	0.4127	0.126
Mof_H 	H 	0.0977	0.8419	0.412	0.173
Mof_H 	H 	0.1564	0.7746	0.3807	0.143
Mof_H 	H 	0.17	0.8536	0.373	0.155
Mof_H 	H 	0.0639	0.5495	0.7712	0.324
Mof_H 	H 	0.098	0.5486	0.7213	0.326
Mof_C 	C 	0.4978	0.5803	0.1509	0.091
Mof_C 	C 	0.4544	0.5962	0.1992	0.06
Mof_C 	C 	0.3803	0.5914	0.2099	-0.162
Mof_C 	C 	0.3489	0.5756	0.1725	0.149
Mof_C 	C 	0.3925	0.5624	0.124	-0.167
Mof_C 	C 	0.4684	0.5632	0.1122	0.074
Mof_C 	C 	0.1634	0.5693	0.17	0.121
Mof_C 	C 	0.1105	0.623	0.201	-0.127
Mof_C 	C 	0.0319	0.6313	0.2123	0.021
Mof_C 	C 	0.0066	0.5867	0.1928	-0.081
Mof_C 	C 	0.0582	0.5334	0.1607	-0.012
Mof_C 	C 	0.1377	0.5254	0.1488	-0.108
Mof_C 	C 	0.0297	0.4862	0.1383	0.272
Mof_C 	C 	0.4802	0.6263	0.2375	-0.222
Mof_C 	C 	0.4934	0.7567	0.1946	0.066
Mof_C 	C 	0.4606	0.8382	0.1831	0.096
Mof_C 	C 	0.3831	0.8797	0.2002	-0.198
Mof_C 	C 	0.3389	0.8437	0.2279	0.16
Mof_C 	C 	0.3674	0.7599	0.244	-0.167
Mof_C 	C 	0.448	0.7154	0.2259	0.082
Mof_C 	C 	0.1303	0.9132	0.2658	0.09
Mof_C 	C 	0.103	0.9919	0.2706	-0.062
Mof_C 	C 	0.0241	0.0321	0.2848	-0.055
Mof_C 	C 	0.9738	0.9931	0.2937	-0.007
Mof_C 	C 	0.0018	0.9164	0.2881	-0.025
Mof_C 	C 	0.0803	0.8772	0.2737	-0.101
Mof_C 	C 	0.9916	0.1171	0.2929	0.331
Mof_C 	C 	0.5068	0.8829	0.1477	-0.251
Mof_C 	C 	0.527	0.85	0.0587	0.063
Mof_C 	C 	0.4888	0.9031	0.0917	0.096
Mof_C 	C 	0.4269	0.9745	0.0741	-0.188
Mof_C 	C 	0.4049	0.9912	0.0263	0.161
Mof_C 	C 	0.444	0.9413	0.9913	-0.171
Mof_C 	C 	0.5091	0.8671	0.008	0.078
Mof_C 	C 	0.2512	0.1563	0.9605	0.117
Mof_C 	C 	0.1993	0.1984	0.999	-0.095
Mof_C 	C 	0.1353	0.2676	0.9843	-0.005
Mof_C 	C 	0.1244	0.2936	0.9298	-0.063
Mof_C 	C 	0.1743	0.25	0.8926	0.027
Mof_C 	C 	0.2381	0.1819	0.908	-0.12
Mof_C 	C 	0.0801	0.3153	0.0237	0.278
Mof_C 	C 	0.5536	0.8099	0.9715	-0.226
Mof_C 	C 	0.5339	0.6795	0.0121	0.11
Mof_C 	C 	0.519	0.75	0.9726	0.066
Mof_C 	C 	0.4656	0.7646	0.9387	-0.159
Mof_C 	C 	0.4273	0.7146	0.9414	0.13
Mof_C 	C 	0.4438	0.6465	0.9798	-0.152
Mof_C 	C 	0.4971	0.6267	0.0155	0.046
Mof_C 	C 	0.2858	0.7391	0.8617	0.1
Mof_C 	C 	0.2765	0.7999	0.8171	-0.109
Mof_C 	C 	0.2187	0.8183	0.7849	0.008
Mof_C 	C 	0.1702	0.7768	0.7974	-0.049
Mof_C 	C 	0.178	0.7185	0.8417	-0.023
Mof_C 	C 	0.2379	0.699	0.8732	-0.09
Mof_C 	C 	0.124	0.6752	0.8589	0.311
Mof_C 	C 	0.514	0.5502	0.0587	-0.211
Mof_C 	C 	0.1264	0.507	0.5999	0.083
Mof_C 	C 	0.0869	0.4563	0.6082	0.095
Mof_C 	C 	0.0797	0.4329	0.5644	-0.183
Mof_C 	C 	0.1099	0.4584	0.5141	0.165
Mof_C 	C 	0.1502	0.5074	0.5065	-0.179
Mof_C 	C 	0.1587	0.5323	0.5492	0.088
Mof_C 	C 	0.1132	0.4219	0.3866	0.129
Mof_C 	C 	0.1491	0.4375	0.3366	-0.146
Mof_C 	C 	0.1397	0.4088	0.2956	0.036
Mof_C 	C 	0.0938	0.365	0.3056	-0.09
Mof_C 	C 	0.0573	0.3495	0.3566	0.005
Mof_C 	C 	0.0661	0.3782	0.3971	-0.113
Mof_C 	C 	0.0087	0.3006	0.3702	0.277
Mof_C 	C 	0.058	0.4225	0.6633	-0.231
Mof_C 	C 	0.1781	0.3283	0.7128	0.078
Mof_C 	C 	0.1188	0.3399	0.683	0.083
Mof_C 	C 	0.1213	0.2739	0.6674	-0.177
Mof_C 	C 	0.1805	0.1998	0.6796	0.15
Mof_C 	C 	0.2396	0.189	0.7095	-0.161
Mof_C 	C 	0.239	0.2532	0.7264	0.059
Mof_C 	C 	0.2314	0.0124	0.6461	0.123
Mof_C 	C 	0.1736	0.0251	0.6154	-0.121
Mof_C 	C 	0.1737	0.9623	0.5985	0.009
Mof_C 	C 	0.2308	0.8868	0.6126	-0.078
Mof_C 	C 	0.2892	0.8742	0.6423	0.029
Mof_C 	C 	0.2899	0.9377	0.6591	-0.13
Mof_C 	C 	0.1092	0.9756	0.5661	0.275
Mof_C 	C 	0.3022	0.2417	0.7589	-0.214
Mof_C 	C 	0.3772	0.3244	0.7014	0.104
Mof_C 	C 	0.3743	0.2494	0.7248	0.062
Mof_C 	C 	0.4404	0.1817	0.7158	-0.162
Mof_C 	C 	0.5064	0.1864	0.685	0.141
Mof_C 	C 	0.5086	0.2605	0.6606	-0.16
Mof_C 	C 	0.4449	0.3294	0.6686	0.067
Mof_C 	C 	0.694	0.0319	0.663	0.131
Mof_C 	C 	0.6929	0.9663	0.6967	-0.138
Mof_C 	C 	0.7574	0.893	0.6967	0.033
Mof_C 	C 	0.8238	0.8897	0.6601	-0.083
Mof_C 	C 	0.8235	0.9581	0.6263	0.012
Mof_C 	C 	0.7588	0.0292	0.6288	-0.13
Mof_C 	C 	0.8938	0.9565	0.5864	0.277
Mof_C 	C 	0.4474	0.4099	0.6411	-0.221
Mof_C 	C 	0.3291	0.4933	0.5883	0.083
Mof_C 	C 	0.4096	0.4449	0.589	0.077
Mof_C 	C 	0.4541	0.4291	0.5413	-0.17
Mof_C 	C 	0.4207	0.4629	0.4936	0.157
Mof_C 	C 	0.3426	0.5138	0.4935	-0.185
Mof_C 	C 	0.2945	0.5308	0.5403	0.089
Mof_C 	C 	0.5716	0.3832	0.3925	0.12
Mof_C 	C 	0.6531	0.3513	0.3892	-0.1
Mof_C 	C 	0.6991	0.3356	0.3421	-0.01
Mof_C 	C 	0.6612	0.3496	0.2977	-0.067
Mof_C 	C 	0.5799	0.3792	0.3012	0.021
Mof_C 	C 	0.5345	0.3981	0.3486	-0.131
Mof_C 	C 	0.7874	0.3074	0.3383	0.308
Mof_C 	C 	0.2077	0.5824	0.5396	-0.247
Mof_C 	C 	0.1199	0.2405	0.1925	0.227
Mof_C 	C 	0.2532	0.1527	0.1559	-0.327
Mof_C 	C 	0.2209	0.2926	0.1691	-0.345
Mof_C 	C 	0.829	0.2195	0.5074	0.185
Mof_C 	C 	0.7123	0.259	0.5723	-0.338
Mof_C 	C 	0.8477	0.1846	0.6018	-0.365
Mof_C 	C 	0.8366	0.5257	0.0207	0.117
Mof_C 	C 	0.8287	0.4979	0.9787	-0.006
Mof_C 	C 	0.5022	0.4197	0.8491	0.091
Mof_C 	C 	0.5456	0.4038	0.8008	0.06
Mof_C 	C 	0.6197	0.4086	0.7901	-0.162
Mof_C 	C 	0.6511	0.4244	0.8275	0.149
Mof_C 	C 	0.6075	0.4376	0.876	-0.167
Mof_C 	C 	0.5316	0.4368	0.8878	0.074
Mof_C 	C 	0.8366	0.4307	0.83	0.122
Mof_C 	C 	0.8895	0.377	0.799	-0.13
Mof_C 	C 	0.9681	0.3687	0.7877	0.028
Mof_C 	C 	0.9934	0.4133	0.8072	-0.072
Mof_C 	C 	0.9418	0.4666	0.8393	-0.015
Mof_C 	C 	0.8623	0.4746	0.8512	-0.106
Mof_C 	C 	0.9703	0.5138	0.8617	0.281
Mof_C 	C 	0.5198	0.3737	0.7625	-0.222
Mof_C 	C 	0.5066	0.2433	0.8054	0.066
Mof_C 	C 	0.5394	0.1618	0.8169	0.096
Mof_C 	C 	0.6169	0.1203	0.7998	-0.198
Mof_C 	C 	0.6611	0.1563	0.7721	0.16
Mof_C 	C 	0.6326	0.2401	0.756	-0.167
Mof_C 	C 	0.552	0.2846	0.7741	0.082
Mof_C 	C 	0.8697	0.0868	0.7342	0.146
Mof_C 	C 	0.897	0.0081	0.7294	-0.146
Mof_C 	C 	0.9759	0.9679	0.7152	0.037
Mof_C 	C 	0.0262	0.0069	0.7063	-0.128
Mof_C 	C 	0.9982	0.0836	0.7119	0.086
Mof_C 	C 	0.9197	0.1228	0.7263	-0.182
Mof_C 	C 	0.0084	0.8829	0.7071	0.287
Mof_C 	C 	0.4932	0.1171	0.8523	-0.253
Mof_C 	C 	0.473	0.15	0.9413	0.06
Mof_C 	C 	0.5112	0.0969	0.9083	0.101
Mof_C 	C 	0.5731	0.0255	0.9259	-0.203
Mof_C 	C 	0.5951	0.0088	0.9737	0.161
Mof_C 	C 	0.556	0.0587	0.0087	-0.174
Mof_C 	C 	0.4909	0.1329	0.992	0.079
Mof_C 	C 	0.7488	0.8437	0.0395	0.118
Mof_C 	C 	0.8007	0.8016	0.001	-0.095
Mof_C 	C 	0.8647	0.7324	0.0157	-0.003
Mof_C 	C 	0.8756	0.7064	0.0702	-0.064
Mof_C 	C 	0.8257	0.75	0.1074	0.028
Mof_C 	C 	0.7619	0.8181	0.092	-0.12
Mof_C 	C 	0.9199	0.6847	0.9763	0.277
Mof_C 	C 	0.4464	0.1901	0.0285	-0.227
Mof_C 	C 	0.4661	0.3205	0.9879	0.11
Mof_C 	C 	0.481	0.25	0.0274	0.066
Mof_C 	C 	0.5344	0.2354	0.0613	-0.159
Mof_C 	C 	0.5727	0.2854	0.0586	0.129
Mof_C 	C 	0.5562	0.3535	0.0202	-0.152
Mof_C 	C 	0.5029	0.3733	0.9845	0.046
Mof_C 	C 	0.7142	0.2609	0.1383	0.1
Mof_C 	C 	0.7235	0.2001	0.1829	-0.108
Mof_C 	C 	0.7813	0.1817	0.2151	0.007
Mof_C 	C 	0.8298	0.2232	0.2026	-0.049
Mof_C 	C 	0.822	0.2815	0.1583	-0.023
Mof_C 	C 	0.7621	0.301	0.1268	-0.09
Mof_C 	C 	0.876	0.3248	0.1411	0.311
Mof_C 	C 	0.486	0.4498	0.9413	-0.211
Mof_C 	C 	0.8736	0.493	0.4001	0.083
Mof_C 	C 	0.9131	0.5437	0.3918	0.098
Mof_C 	C 	0.9203	0.5671	0.4356	-0.184
Mof_C 	C 	0.8901	0.5416	0.4859	0.167
Mof_C 	C 	0.8498	0.4926	0.4935	-0.18
Mof_C 	C 	0.8413	0.4677	0.4508	0.089
Mof_C 	C 	0.8868	0.5781	0.6134	0.13
Mof_C 	C 	0.8509	0.5625	0.6634	-0.145
Mof_C 	C 	0.8603	0.5912	0.7044	0.035
Mof_C 	C 	0.9062	0.635	0.6944	-0.088
Mof_C 	C 	0.9427	0.6505	0.6434	0.004
Mof_C 	C 	0.9339	0.6218	0.6029	-0.111
Mof_C 	C 	0.9913	0.6994	0.6298	0.284
Mof_C 	C 	0.942	0.5775	0.3367	-0.234
Mof_C 	C 	0.8219	0.6717	0.2872	0.077
Mof_C 	C 	0.8812	0.6601	0.317	0.085
Mof_C 	C 	0.8787	0.7261	0.3326	-0.178
Mof_C 	C 	0.8195	0.8002	0.3204	0.152
Mof_C 	C 	0.7604	0.811	0.2905	-0.161
Mof_C 	C 	0.761	0.7468	0.2736	0.06
Mof_C 	C 	0.7686	0.9876	0.3539	0.131
Mof_C 	C 	0.8264	0.9749	0.3846	-0.114
Mof_C 	C 	0.8263	0.0377	0.4015	0.005
Mof_C 	C 	0.7692	0.1132	0.3874	-0.078
Mof_C 	C 	0.7108	0.1258	0.3577	0.032
Mof_C 	C 	0.7101	0.0623	0.3409	-0.141
Mof_C 	C 	0.8908	0.0244	0.4339	0.268
Mof_C 	C 	0.6978	0.7583	0.2411	-0.215
Mof_C 	C 	0.6228	0.6756	0.2986	0.104
Mof_C 	C 	0.6257	0.7506	0.2752	0.062
Mof_C 	C 	0.5596	0.8183	0.2842	-0.162
Mof_C 	C 	0.4936	0.8136	0.315	0.142
Mof_C 	C 	0.4914	0.7395	0.3394	-0.16
Mof_C 	C 	0.5551	0.6706	0.3314	0.068
Mof_C 	C 	0.306	0.9681	0.337	0.139
Mof_C 	C 	0.3071	0.0337	0.3033	-0.15
Mof_C 	C 	0.2426	0.107	0.3033	0.037
Mof_C 	C 	0.1762	0.1103	0.3399	-0.083
Mof_C 	C 	0.1765	0.0419	0.3737	0.006
Mof_C 	C 	0.2412	0.9708	0.3712	-0.124
Mof_C 	C 	0.1062	0.0435	0.4136	0.27
Mof_C 	C 	0.5526	0.5901	0.3589	-0.221
Mof_C 	C 	0.6709	0.5067	0.4117	0.083
Mof_C 	C 	0.5904	0.5551	0.411	0.077
Mof_C 	C 	0.5459	0.5709	0.4587	-0.17
Mof_C 	C 	0.5793	0.5371	0.5064	0.157
Mof_C 	C 	0.6574	0.4862	0.5065	-0.185
Mof_C 	C 	0.7055	0.4692	0.4597	0.089
Mof_C 	C 	0.4284	0.6168	0.6075	0.12
Mof_C 	C 	0.3469	0.6487	0.6108	-0.101
Mof_C 	C 	0.3009	0.6644	0.6579	-0.01
Mof_C 	C 	0.3388	0.6504	0.7023	-0.068
Mof_C 	C 	0.4201	0.6208	0.6988	0.021
Mof_C 	C 	0.4655	0.6019	0.6514	-0.131
Mof_C 	C 	0.2126	0.6926	0.6617	0.307
Mof_C 	C 	0.7923	0.4176	0.4604	-0.248
Mof_C 	C 	0.8801	0.7595	0.8075	0.226
Mof_C 	C 	0.7468	0.8473	0.8441	-0.329
Mof_C 	C 	0.7791	0.7074	0.8309	-0.346
Mof_C 	C 	0.171	0.7805	0.4926	0.185
Mof_C 	C 	0.2877	0.741	0.4277	-0.338
Mof_C 	C 	0.1523	0.8154	0.3982	-0.364
Mof_C 	C 	0.1634	0.4743	0.9793	0.117
Mof_C 	C 	0.1713	0.5021	0.0213	-0.007
Mof_N 	N 	0.2447	0.5587	0.156	-0.093
Mof_N 	N 	0.2699	0.5805	0.1873	-0.1
Mof_N 	N 	0.2504	0.8983	0.2406	-0.09
Mof_N 	N 	0.2156	0.8575	0.2547	-0.087
Mof_N 	N 	0.3323	0.0713	0.0132	-0.093
Mof_N 	N 	0.3234	0.0766	0.9702	-0.084
Mof_N 	N 	0.3691	0.7502	0.8953	-0.084
Mof_N 	N 	0.3473	0.7025	0.9087	-0.08
Mof_N 	N 	0.1255	0.4529	0.427	-0.095
Mof_N 	N 	0.1001	0.4279	0.473	-0.097
Mof_N 	N 	0.1772	0.1386	0.6593	-0.098
Mof_N 	N 	0.2353	0.0735	0.6675	-0.093
Mof_N 	N 	0.5719	0.1061	0.685	-0.093
Mof_N 	N 	0.6281	0.1142	0.6598	-0.092
Mof_N 	N 	0.4612	0.449	0.4423	-0.103
Mof_N 	N 	0.5313	0.3975	0.4444	-0.094
Mof_N 	N 	0.1941	0.2279	0.1716	-0.069
Mof_N 	N 	0.7984	0.2207	0.5582	-0.053
Mof_N 	N 	0.7553	0.4413	0.844	-0.093
Mof_N 	N 	0.7301	0.4195	0.8127	-0.1
Mof_N 	N 	0.7496	0.1017	0.7594	-0.092
Mof_N 	N 	0.7844	0.1425	0.7453	-0.095
Mof_N 	N 	0.6677	0.9287	0.9868	-0.09
Mof_N 	N 	0.6766	0.9234	0.0298	-0.083
Mof_N 	N 	0.6309	0.2498	0.1047	-0.085
Mof_N 	N 	0.6527	0.2975	0.0913	-0.08
Mof_N 	N 	0.8745	0.5471	0.573	-0.095
Mof_N 	N 	0.8999	0.5721	0.527	-0.097
Mof_N 	N 	0.8228	0.8614	0.3407	-0.098
Mof_N 	N 	0.7647	0.9265	0.3325	-0.093
Mof_N 	N 	0.4281	0.8939	0.315	-0.092
Mof_N 	N 	0.3719	0.8858	0.3402	-0.093
Mof_N 	N 	0.5388	0.551	0.5577	-0.103
Mof_N 	N 	0.4687	0.6025	0.5556	-0.094
Mof_N 	N 	0.8059	0.7721	0.8284	-0.069
Mof_N 	N 	0.2016	0.7793	0.4418	-0.054
Mof_O 	O 	0.5715	0.5823	0.1385	-0.397
Mof_O 	O 	0.5707	0.7142	0.1781	-0.362
Mof_O 	O 	0.586	0.7786	0.0765	-0.374
Mof_O 	O 	0.5835	0.6642	0.0475	-0.419
Mof_O 	O 	0.9638	0.4837	0.1561	-0.273
Mof_O 	O 	0.0726	0.4507	0.1017	-0.249
Mof_O 	O 	0.0092	0.1658	0.2564	-0.291
Mof_O 	O 	0.9475	0.1314	0.3333	-0.294
Mof_O 	O 	0.0772	0.285	0.0721	-0.253
Mof_O 	O 	0.0347	0.3851	0.0079	-0.23
Mof_O 	O 	0.1223	0.638	0.9053	-0.264
Mof_O 	O 	0.0819	0.6757	0.8284	-0.281
Mof_O 	O 	0.1306	0.5332	0.64218	-0.37
Mof_O 	O 	0.1748	0.3913	0.72952	-0.35
Mof_O 	O 	0.3167	0.3908	0.71098	-0.387
Mof_O 	O 	0.2814	0.5088	0.63471	-0.385
Mof_O 	O 	0.0009	0.2718	0.33374	-0.282
Mof_O 	O 	0.9803	0.2851	0.41688	-0.24
Mof_O 	O 	0.064	0.0454	0.548	-0.246
Mof_O 	O 	0.1041	0.9163	0.55658	-0.266
Mof_O 	O 	0.9435	0.8906	0.5762	-0.256
Mof_O 	O 	0.8971	0.0225	0.563	-0.262
Mof_O 	O 	0.8164	0.2798	0.38193	-0.285
Mof_O 	O 	0.8245	0.3131	0.29331	-0.269
Mof_O 	O 	0.0705	0.2965	0.2065	-0.264
Mof_O 	O 	0.8989	0.1946	0.49294	-0.22
Mof_O 	O 	0.9112	0.4276	0.25328	-0.631
Mof_O 	O 	0.8914	0.5206	0.0527	-0.171
Mof_O 	O 	0.4285	0.4177	0.8615	-0.397
Mof_O 	O 	0.4293	0.2858	0.8219	-0.362
Mof_O 	O 	0.414	0.2214	0.9235	-0.374
Mof_O 	O 	0.4165	0.3358	0.9525	-0.419
Mof_O 	O 	0.0362	0.5163	0.8439	-0.279
Mof_O 	O 	0.9274	0.5493	0.8983	-0.249
Mof_O 	O 	0.9908	0.8342	0.7436	-0.274
Mof_O 	O 	0.0525	0.8686	0.6667	-0.283
Mof_O 	O 	0.9228	0.715	0.9279	-0.25
Mof_O 	O 	0.9653	0.6149	0.9921	-0.227
Mof_O 	O 	0.8777	0.362	0.0947	-0.264
Mof_O 	O 	0.9181	0.3243	0.1716	-0.28
Mof_O 	O 	0.8694	0.4668	0.35782	-0.369
Mof_O 	O 	0.8252	0.6087	0.27048	-0.35
Mof_O 	O 	0.6833	0.6092	0.28902	-0.387
Mof_O 	O 	0.7186	0.4912	0.36529	-0.385
Mof_O 	O 	0.9991	0.7282	0.66626	-0.28
Mof_O 	O 	0.0197	0.7149	0.58312	-0.247
Mof_O 	O 	0.936	0.9546	0.452	-0.237
Mof_O 	O 	0.8959	0.0837	0.44342	-0.264
Mof_O 	O 	0.0565	0.1094	0.4238	-0.258
Mof_O 	O 	0.1029	0.9775	0.437	-0.257
Mof_O 	O 	0.1836	0.7202	0.61807	-0.285
Mof_O 	O 	0.1755	0.6869	0.70669	-0.268
Mof_O 	O 	0.9295	0.7035	0.7935	-0.261
Mof_O 	O 	0.1011	0.8054	0.50706	-0.221
Mof_O 	O 	0.0888	0.5724	0.74672	-0.631
Mof_O 	O 	0.1086	0.4794	0.9473	-0.171
_end
