data_functionalizedCrystal
_audit_creation_method	'EQeq! by Chris Wilmer'
_symmetry_space_group_name_H-M	'P1'
_symmetry_Int_Tables_number	1
_symmetry_cell_setting	triclinic
loop_
_symmetry_equiv_pos_as_xyz
  x,y,z
_cell_length_a	34.4746
_cell_length_b	15.0255
_cell_length_c	30.1535
_cell_angle_alpha	90
_cell_angle_beta	99.681
_cell_angle_gamma	90
loop_
_atom_site_label
_atom_site_type_symbol
_atom_site_fract_x
_atom_site_fract_y
_atom_site_fract_z
_atom_site_charge
Mof_I 	I 	0.396	0.7235	0.3982	1.719
Mof_Zn	Zn	0.36863	0.59477	0.44686	1.041
Mof_N 	N 	0.4139	0.5048	0.45	-0.3
Mof_I 	I 	0.3482	0.6124	0.5174	6.077
Mof_N 	N 	0.3259	0.532	0.4016	-0.286
Mof_C 	C 	0.3045	0.5757	0.3673	0.046
Mof_C 	C 	0.3185	0.4465	0.4069	0.068
Mof_C 	C 	0.2756	0.5352	0.3371	-0.116
Mof_H 	H 	0.3094	0.6373	0.3637	-0.023
Mof_C 	C 	0.2903	0.3994	0.3775	-0.095
Mof_H 	H 	0.3331	0.4159	0.4318	0.068
Mof_C 	C 	0.2684	0.4448	0.3418	0.04
Mof_H 	H 	0.2607	0.5685	0.3134	0.081
Mof_H 	H 	0.2862	0.3377	0.3819	0.098
Mof_C 	C 	0.2376	0.4018	0.3097	0.089
Mof_N 	N 	0.2315	0.3123	0.3142	-0.136
Mof_N 	N 	0.218	0.4515	0.2766	-0.145
Mof_C 	C 	0.2034	0.2795	0.2847	0.114
Mof_C 	C 	0.1896	0.4101	0.2492	0.104
Mof_C 	C 	0.1971	0.1801	0.2832	0.066
Mof_N 	N 	0.1807	0.3237	0.2524	-0.142
Mof_C 	C 	0.1665	0.4617	0.2124	0.049
Mof_C 	C 	0.2192	0.122	0.3123	-0.116
Mof_C 	C 	0.1686	0.1447	0.2509	-0.117
Mof_C 	C 	0.1739	0.5493	0.2054	-0.119
Mof_C 	C 	0.1362	0.42	0.1837	-0.104
Mof_C 	C 	0.2115	0.033	0.3093	0.098
Mof_H 	H 	0.2397	0.1439	0.3346	0.102
Mof_C 	C 	0.1636	0.0529	0.2492	0.076
Mof_H 	H 	0.1526	0.1822	0.2299	0.059
Mof_C 	C 	0.1511	0.5935	0.1699	0.07
Mof_H 	H 	0.1944	0.5795	0.2246	0.074
Mof_C 	C 	0.1136	0.4696	0.1509	0.067
Mof_H 	H 	0.1312	0.3583	0.1867	0.053
Mof_N 	N 	0.1848	0.9984	0.2774	-0.274
Mof_H 	H 	0.226	0.9943	0.3309	0.009
Mof_H 	H 	0.1439	0.0285	0.2266	-0.031
Mof_N 	N 	0.1218	0.5547	0.1427	-0.267
Mof_H 	H 	0.1568	0.6542	0.1649	-0.012
Mof_H 	H 	0.0913	0.4426	0.1333	-0.021
Mof_Zn	Zn	0.1717	0.8605	0.2694	0.6
Mof_Zn	Zn	0.08275	0.62515	0.09529	1.158
Mof_N 	N 	0.1375	0.8447	0.318	-0.287
Mof_I 	I 	0.12992	0.8401	0.1928	-0.257
Mof_I 	I 	0.23327	0.7663	0.2938	-0.109
Mof_I 	I 	0.02413	0.6535	0.13571	-0.295
Mof_I 	I 	0.11963	0.7353	0.05501	-0.039
Mof_N 	N 	0.0667	0.5208	0.0508	-0.275
Mof_C 	C 	0.1409	0.7754	0.3443	0.117
Mof_C 	C 	0.1126	0.9045	0.3273	0.134
Mof_C 	C 	0.1171	0.7567	0.3749	-0.185
Mof_H 	H 	0.1616	0.7348	0.342	-0.038
Mof_C 	C 	0.0871	0.888	0.3566	-0.129
Mof_H 	H 	0.112	0.9612	0.3133	-0.009
Mof_C 	C 	0.0888	0.8115	0.3798	0.078
Mof_H 	H 	0.121	0.7041	0.3926	0.052
Mof_H 	H 	0.068	0.9314	0.3606	0.109
Mof_C 	C 	0.0631	0.7964	0.4143	0.022
Mof_N 	N 	0.0702	0.7222	0.4392	-0.181
Mof_N 	N 	0.0342	0.8543	0.4167	-0.134
Mof_C 	C 	0.0467	0.7108	0.47	0.052
Mof_C 	C 	0.0122	0.8346	0.4472	0.065
Mof_C 	C 	0.0523	0.6303	0.498	0.056
Mof_N 	N 	0.0173	0.7657	0.4764	-0.152
Mof_C 	C 	0.9778	0.8938	0.4499	0.052
Mof_C 	C 	0.0846	0.5754	0.4949	-0.117
Mof_C 	C 	0.0278	0.6064	0.527	-0.134
Mof_C 	C 	0.9585	0.9327	0.4104	-0.15
Mof_C 	C 	0.9627	0.9065	0.4877	-0.109
Mof_C 	C 	0.0897	0.5023	0.522	0.081
Mof_H 	H 	0.1022	0.5886	0.4747	0.058
Mof_H 	H 	0.0054	0.6417	0.5295	0.07
Mof_C 	C 	0.0356	0.5318	0.552	0.078
Mof_C 	C 	0.9282	0.9886	0.4131	0.094
Mof_H 	H 	0.9664	0.9204	0.3823	0.088
Mof_C 	C 	0.9308	0.9631	0.4873	0.046
Mof_H 	H 	0.9738	0.8768	0.5146	0.07
Mof_H 	H 	0.1116	0.465	0.52	-0.007
Mof_H 	H 	0.0179	0.5159	0.5717	-0.015
Mof_H 	H 	0.9163	0.0182	0.3864	-0.075
Mof_H 	H 	0.9207	0.9724	0.5144	0.064
Mof_I 	I 	0.3849	0.7304	0.4123	-0.56
Mof_I 	I 	0.3442	0.5835	0.526	-0.93
Mof_Zn	Zn	0.6777	0.3672	0.2757	0.542
Mof_I 	I 	0.7384	0.2851	0.3091	-0.238
Mof_I 	I 	0.6373	0.3378	0.1973	-0.11
Mof_I 	I 	0.5302	0.174	0.1288	-0.052
Mof_I 	I 	0.6321	0.2205	0.0556	-0.22
Mof_I 	I 	0.3821	0.7432	0.421	-1.624
Mof_I 	I 	0.3426	0.56	0.5275	-5.235
Mof_I 	I 	0.896	0.2235	0.3982	1.716
Mof_Zn	Zn	0.86863	0.09477	0.44686	1.042
Mof_N 	N 	0.9139	0.0048	0.45	-0.299
Mof_I 	I 	0.8482	0.1124	0.5174	6.066
Mof_N 	N 	0.8259	0.032	0.4016	-0.285
Mof_C 	C 	0.8045	0.0757	0.3673	0.047
Mof_C 	C 	0.8185	0.9465	0.4069	0.069
Mof_C 	C 	0.7756	0.0352	0.3371	-0.115
Mof_H 	H 	0.8094	0.1373	0.3637	-0.022
Mof_C 	C 	0.7903	0.8994	0.3775	-0.095
Mof_H 	H 	0.8331	0.9159	0.4318	0.069
Mof_C 	C 	0.7684	0.9448	0.3418	0.042
Mof_H 	H 	0.7607	0.0685	0.3134	0.082
Mof_H 	H 	0.7862	0.8377	0.3819	0.099
Mof_C 	C 	0.7376	0.9018	0.3097	0.09
Mof_N 	N 	0.7315	0.8123	0.3142	-0.135
Mof_N 	N 	0.718	0.9515	0.2766	-0.144
Mof_C 	C 	0.7034	0.7795	0.2847	0.114
Mof_C 	C 	0.6896	0.9101	0.2492	0.103
Mof_C 	C 	0.6971	0.6801	0.2832	0.066
Mof_N 	N 	0.6807	0.8237	0.2524	-0.142
Mof_C 	C 	0.6665	0.9617	0.2124	0.05
Mof_C 	C 	0.7192	0.622	0.3123	-0.117
Mof_C 	C 	0.6686	0.6447	0.2509	-0.117
Mof_C 	C 	0.6739	0.0493	0.2054	-0.12
Mof_C 	C 	0.6362	0.92	0.1837	-0.104
Mof_C 	C 	0.7115	0.533	0.3093	0.099
Mof_H 	H 	0.7397	0.6439	0.3346	0.102
Mof_C 	C 	0.6636	0.5529	0.2492	0.076
Mof_H 	H 	0.6526	0.6822	0.2299	0.059
Mof_C 	C 	0.6511	0.0935	0.1699	0.07
Mof_H 	H 	0.6944	0.0795	0.2246	0.074
Mof_C 	C 	0.6136	0.9696	0.1509	0.067
Mof_H 	H 	0.6312	0.8583	0.1867	0.054
Mof_N 	N 	0.6848	0.4984	0.2774	-0.274
Mof_H 	H 	0.726	0.4943	0.3309	0.009
Mof_H 	H 	0.6439	0.5285	0.2266	-0.031
Mof_N 	N 	0.6218	0.0547	0.1427	-0.268
Mof_H 	H 	0.6568	0.1542	0.1649	-0.012
Mof_H 	H 	0.5913	0.9426	0.1333	-0.021
Mof_Zn	Zn	0.6717	0.3605	0.2694	0.6
Mof_Zn	Zn	0.58275	0.12515	0.09529	1.158
Mof_N 	N 	0.6375	0.3447	0.318	-0.287
Mof_I 	I 	0.62992	0.3401	0.1928	-0.257
Mof_I 	I 	0.73327	0.2663	0.2938	-0.109
Mof_I 	I 	0.52413	0.1535	0.13571	-0.295
Mof_I 	I 	0.61963	0.2353	0.05501	-0.04
Mof_N 	N 	0.5667	0.0208	0.0508	-0.276
Mof_C 	C 	0.6409	0.2754	0.3443	0.117
Mof_C 	C 	0.6126	0.4045	0.3273	0.134
Mof_C 	C 	0.6171	0.2567	0.3749	-0.185
Mof_H 	H 	0.6616	0.2348	0.342	-0.038
Mof_C 	C 	0.5871	0.388	0.3566	-0.129
Mof_H 	H 	0.612	0.4612	0.3133	-0.008
Mof_C 	C 	0.5888	0.3115	0.3798	0.078
Mof_H 	H 	0.621	0.2041	0.3926	0.052
Mof_H 	H 	0.568	0.4314	0.3606	0.109
Mof_C 	C 	0.5631	0.2964	0.4143	0.022
Mof_N 	N 	0.5702	0.2222	0.4392	-0.181
Mof_N 	N 	0.5342	0.3543	0.4167	-0.134
Mof_C 	C 	0.5467	0.2108	0.47	0.052
Mof_C 	C 	0.5122	0.3346	0.4472	0.065
Mof_C 	C 	0.5523	0.1303	0.498	0.056
Mof_N 	N 	0.5173	0.2657	0.4764	-0.152
Mof_C 	C 	0.4778	0.3938	0.4499	0.052
Mof_C 	C 	0.5846	0.0754	0.4949	-0.116
Mof_C 	C 	0.5278	0.1064	0.527	-0.134
Mof_C 	C 	0.4585	0.4327	0.4104	-0.15
Mof_C 	C 	0.4627	0.4065	0.4877	-0.108
Mof_C 	C 	0.5897	0.0023	0.522	0.08
Mof_H 	H 	0.6022	0.0886	0.4747	0.058
Mof_H 	H 	0.5054	0.1417	0.5295	0.07
Mof_C 	C 	0.5356	0.0318	0.552	0.078
Mof_C 	C 	0.4282	0.4886	0.4131	0.094
Mof_H 	H 	0.4664	0.4204	0.3823	0.088
Mof_C 	C 	0.4308	0.4631	0.4873	0.046
Mof_H 	H 	0.4738	0.3768	0.5146	0.07
Mof_H 	H 	0.6116	0.965	0.52	-0.008
Mof_H 	H 	0.5179	0.0159	0.5717	-0.015
Mof_H 	H 	0.4163	0.5182	0.3864	-0.074
Mof_H 	H 	0.4207	0.4724	0.5144	0.065
Mof_I 	I 	0.8849	0.2304	0.4123	-0.56
Mof_I 	I 	0.8442	0.0835	0.526	-0.928
Mof_Zn	Zn	0.1777	0.8672	0.2757	0.542
Mof_I 	I 	0.2384	0.7851	0.3091	-0.238
Mof_I 	I 	0.1373	0.8378	0.1973	-0.11
Mof_I 	I 	0.0302	0.674	0.1288	-0.051
Mof_I 	I 	0.1321	0.7205	0.0556	-0.22
Mof_I 	I 	0.8821	0.2432	0.421	-1.621
Mof_I 	I 	0.8426	0.06	0.5275	-5.225
Mof_I 	I 	0.396	0.2765	0.8982	1.719
Mof_Zn	Zn	0.36863	0.40523	0.94686	1.042
Mof_N 	N 	0.4139	0.4952	0.95	-0.299
Mof_I 	I 	0.3482	0.3876	0.0174	6.082
Mof_N 	N 	0.3259	0.468	0.9016	-0.285
Mof_C 	C 	0.3045	0.4243	0.8673	0.047
Mof_C 	C 	0.3185	0.5535	0.9069	0.069
Mof_C 	C 	0.2756	0.4648	0.8371	-0.114
Mof_H 	H 	0.3094	0.3627	0.8637	-0.022
Mof_C 	C 	0.2903	0.6006	0.8775	-0.094
Mof_H 	H 	0.3331	0.5841	0.9318	0.069
Mof_C 	C 	0.2684	0.5552	0.8418	0.041
Mof_H 	H 	0.2607	0.4315	0.8134	0.082
Mof_H 	H 	0.2862	0.6623	0.8819	0.099
Mof_C 	C 	0.2376	0.5982	0.8097	0.09
Mof_N 	N 	0.2315	0.6877	0.8142	-0.135
Mof_N 	N 	0.218	0.5485	0.7766	-0.144
Mof_C 	C 	0.2034	0.7205	0.7847	0.115
Mof_C 	C 	0.1896	0.5899	0.7492	0.104
Mof_C 	C 	0.1971	0.8199	0.7832	0.066
Mof_N 	N 	0.1807	0.6763	0.7524	-0.142
Mof_C 	C 	0.1665	0.5383	0.7124	0.049
Mof_C 	C 	0.2192	0.878	0.8123	-0.116
Mof_C 	C 	0.1686	0.8553	0.7509	-0.117
Mof_C 	C 	0.1739	0.4507	0.7054	-0.119
Mof_C 	C 	0.1362	0.58	0.6837	-0.104
Mof_C 	C 	0.2115	0.967	0.8093	0.097
Mof_H 	H 	0.2397	0.8561	0.8346	0.102
Mof_C 	C 	0.1636	0.9471	0.7492	0.075
Mof_H 	H 	0.1526	0.8178	0.7299	0.059
Mof_C 	C 	0.1511	0.4065	0.6699	0.07
Mof_H 	H 	0.1944	0.4205	0.7246	0.074
Mof_C 	C 	0.1136	0.5304	0.6509	0.067
Mof_H 	H 	0.1312	0.6417	0.6867	0.053
Mof_N 	N 	0.1848	0.0016	0.7774	-0.274
Mof_H 	H 	0.226	0.0057	0.8309	0.01
Mof_H 	H 	0.1439	0.9715	0.7266	-0.031
Mof_N 	N 	0.1218	0.4453	0.6427	-0.267
Mof_H 	H 	0.1568	0.3458	0.6649	-0.012
Mof_H 	H 	0.0913	0.5574	0.6333	-0.021
Mof_Zn	Zn	0.1717	0.1395	0.7694	0.6
Mof_Zn	Zn	0.08275	0.37485	0.59529	1.158
Mof_N 	N 	0.1375	0.1553	0.818	-0.287
Mof_I 	I 	0.12992	0.1599	0.6928	-0.257
Mof_I 	I 	0.23327	0.2337	0.7938	-0.109
Mof_I 	I 	0.02413	0.3465	0.63571	-0.295
Mof_I 	I 	0.11963	0.2647	0.55501	-0.04
Mof_N 	N 	0.0667	0.4792	0.5508	-0.275
Mof_C 	C 	0.1409	0.2246	0.8443	0.117
Mof_C 	C 	0.1126	0.0955	0.8273	0.134
Mof_C 	C 	0.1171	0.2433	0.8749	-0.185
Mof_H 	H 	0.1616	0.2652	0.842	-0.038
Mof_C 	C 	0.0871	0.112	0.8566	-0.129
Mof_H 	H 	0.112	0.0388	0.8133	-0.009
Mof_C 	C 	0.0888	0.1885	0.8798	0.078
Mof_H 	H 	0.121	0.2959	0.8926	0.052
Mof_H 	H 	0.068	0.0686	0.8606	0.109
Mof_C 	C 	0.0631	0.2036	0.9143	0.022
Mof_N 	N 	0.0702	0.2778	0.9392	-0.181
Mof_N 	N 	0.0342	0.1457	0.9167	-0.134
Mof_C 	C 	0.0467	0.2892	0.97	0.052
Mof_C 	C 	0.0122	0.1654	0.9472	0.065
Mof_C 	C 	0.0523	0.3697	0.998	0.056
Mof_N 	N 	0.0173	0.2343	0.9764	-0.152
Mof_C 	C 	0.9778	0.1062	0.9499	0.053
Mof_C 	C 	0.0846	0.4246	0.9949	-0.116
Mof_C 	C 	0.0278	0.3936	0.027	-0.135
Mof_C 	C 	0.9585	0.0673	0.9104	-0.151
Mof_C 	C 	0.9627	0.0935	0.9877	-0.109
Mof_C 	C 	0.0897	0.4977	0.022	0.081
Mof_H 	H 	0.1022	0.4114	0.9747	0.059
Mof_H 	H 	0.0054	0.3583	0.0295	0.07
Mof_C 	C 	0.0356	0.4682	0.052	0.078
Mof_C 	C 	0.9282	0.0114	0.9131	0.096
Mof_H 	H 	0.9664	0.0796	0.8823	0.088
Mof_C 	C 	0.9308	0.0369	0.9873	0.048
Mof_H 	H 	0.9738	0.1232	0.0146	0.069
Mof_H 	H 	0.1116	0.535	0.02	-0.007
Mof_H 	H 	0.0179	0.4841	0.0717	-0.015
Mof_H 	H 	0.9163	0.9818	0.8864	-0.075
Mof_H 	H 	0.9207	0.0276	0.0144	0.063
Mof_I 	I 	0.3849	0.2696	0.9123	-0.56
Mof_I 	I 	0.3442	0.4165	0.026	-0.93
Mof_Zn	Zn	0.6777	0.6328	0.7757	0.542
Mof_I 	I 	0.7384	0.7149	0.8091	-0.238
Mof_I 	I 	0.6373	0.6622	0.6973	-0.11
Mof_I 	I 	0.5302	0.826	0.6288	-0.052
Mof_I 	I 	0.6321	0.7795	0.5556	-0.22
Mof_I 	I 	0.3821	0.2568	0.921	-1.624
Mof_I 	I 	0.3426	0.44	0.0275	-5.239
Mof_I 	I 	0.896	0.7765	0.8982	1.716
Mof_Zn	Zn	0.86863	0.90523	0.94686	1.042
Mof_N 	N 	0.9139	0.9952	0.95	-0.3
Mof_I 	I 	0.8482	0.8876	0.0174	6.064
Mof_N 	N 	0.8259	0.968	0.9016	-0.285
Mof_C 	C 	0.8045	0.9243	0.8673	0.048
Mof_C 	C 	0.8185	0.0535	0.9069	0.07
Mof_C 	C 	0.7756	0.9648	0.8371	-0.116
Mof_H 	H 	0.8094	0.8627	0.8637	-0.022
Mof_C 	C 	0.7903	0.1006	0.8775	-0.095
Mof_H 	H 	0.8331	0.0841	0.9318	0.069
Mof_C 	C 	0.7684	0.0552	0.8418	0.042
Mof_H 	H 	0.7607	0.9315	0.8134	0.082
Mof_H 	H 	0.7862	0.1623	0.8819	0.099
Mof_C 	C 	0.7376	0.0982	0.8097	0.09
Mof_N 	N 	0.7315	0.1877	0.8142	-0.135
Mof_N 	N 	0.718	0.0485	0.7766	-0.144
Mof_C 	C 	0.7034	0.2205	0.7847	0.114
Mof_C 	C 	0.6896	0.0899	0.7492	0.103
Mof_C 	C 	0.6971	0.3199	0.7832	0.066
Mof_N 	N 	0.6807	0.1763	0.7524	-0.142
Mof_C 	C 	0.6665	0.0383	0.7124	0.05
Mof_C 	C 	0.7192	0.378	0.8123	-0.117
Mof_C 	C 	0.6686	0.3553	0.7509	-0.117
Mof_C 	C 	0.6739	0.9507	0.7054	-0.12
Mof_C 	C 	0.6362	0.08	0.6837	-0.104
Mof_C 	C 	0.7115	0.467	0.8093	0.099
Mof_H 	H 	0.7397	0.3561	0.8346	0.102
Mof_C 	C 	0.6636	0.4471	0.7492	0.076
Mof_H 	H 	0.6526	0.3178	0.7299	0.059
Mof_C 	C 	0.6511	0.9065	0.6699	0.07
Mof_H 	H 	0.6944	0.9205	0.7246	0.074
Mof_C 	C 	0.6136	0.0304	0.6509	0.067
Mof_H 	H 	0.6312	0.1417	0.6867	0.053
Mof_N 	N 	0.6848	0.5016	0.7774	-0.274
Mof_H 	H 	0.726	0.5057	0.8309	0.009
Mof_H 	H 	0.6439	0.4715	0.7266	-0.031
Mof_N 	N 	0.6218	0.9453	0.6427	-0.268
Mof_H 	H 	0.6568	0.8458	0.6649	-0.012
Mof_H 	H 	0.5913	0.0574	0.6333	-0.021
Mof_Zn	Zn	0.6717	0.6395	0.7694	0.6
Mof_Zn	Zn	0.58275	0.87485	0.59529	1.158
Mof_N 	N 	0.6375	0.6553	0.818	-0.287
Mof_I 	I 	0.62992	0.6599	0.6928	-0.257
Mof_I 	I 	0.73327	0.7337	0.7938	-0.109
Mof_I 	I 	0.52413	0.8465	0.63571	-0.295
Mof_I 	I 	0.61963	0.7647	0.55501	-0.04
Mof_N 	N 	0.5667	0.9792	0.5508	-0.275
Mof_C 	C 	0.6409	0.7246	0.8443	0.117
Mof_C 	C 	0.6126	0.5955	0.8273	0.134
Mof_C 	C 	0.6171	0.7433	0.8749	-0.185
Mof_H 	H 	0.6616	0.7652	0.842	-0.038
Mof_C 	C 	0.5871	0.612	0.8566	-0.129
Mof_H 	H 	0.612	0.5388	0.8133	-0.008
Mof_C 	C 	0.5888	0.6885	0.8798	0.077
Mof_H 	H 	0.621	0.7959	0.8926	0.052
Mof_H 	H 	0.568	0.5686	0.8606	0.109
Mof_C 	C 	0.5631	0.7036	0.9143	0.022
Mof_N 	N 	0.5702	0.7778	0.9392	-0.181
Mof_N 	N 	0.5342	0.6457	0.9167	-0.134
Mof_C 	C 	0.5467	0.7892	0.97	0.052
Mof_C 	C 	0.5122	0.6654	0.9472	0.065
Mof_C 	C 	0.5523	0.8697	0.998	0.056
Mof_N 	N 	0.5173	0.7343	0.9764	-0.152
Mof_C 	C 	0.4778	0.6062	0.9499	0.052
Mof_C 	C 	0.5846	0.9246	0.9949	-0.119
Mof_C 	C 	0.5278	0.8936	0.027	-0.134
Mof_C 	C 	0.4585	0.5673	0.9104	-0.15
Mof_C 	C 	0.4627	0.5935	0.9877	-0.109
Mof_C 	C 	0.5897	0.9977	0.022	0.084
Mof_H 	H 	0.6022	0.9114	0.9747	0.059
Mof_H 	H 	0.5054	0.8583	0.0295	0.07
Mof_C 	C 	0.5356	0.9682	0.052	0.079
Mof_C 	C 	0.4282	0.5114	0.9131	0.094
Mof_H 	H 	0.4664	0.5796	0.8823	0.088
Mof_C 	C 	0.4308	0.5369	0.9873	0.047
Mof_H 	H 	0.4738	0.6232	0.0146	0.07
Mof_H 	H 	0.6116	0.035	0.02	-0.009
Mof_H 	H 	0.5179	0.9841	0.0717	-0.015
Mof_H 	H 	0.4163	0.4818	0.8864	-0.074
Mof_H 	H 	0.4207	0.5276	0.0144	0.065
Mof_I 	I 	0.8849	0.7696	0.9123	-0.559
Mof_I 	I 	0.8442	0.9165	0.026	-0.928
Mof_Zn	Zn	0.1777	0.1328	0.7757	0.542
Mof_I 	I 	0.2384	0.2149	0.8091	-0.238
Mof_I 	I 	0.1373	0.1622	0.6973	-0.11
Mof_I 	I 	0.0302	0.326	0.6288	-0.051
Mof_I 	I 	0.1321	0.2795	0.5556	-0.22
Mof_I 	I 	0.8821	0.7568	0.921	-1.621
Mof_I 	I 	0.8426	0.94	0.0275	-5.223
Mof_I 	I 	0.604	0.7235	0.1018	1.719
Mof_Zn	Zn	0.63137	0.59477	0.05314	1.042
Mof_N 	N 	0.5861	0.5048	0.05	-0.299
Mof_I 	I 	0.6518	0.6124	0.9826	6.082
Mof_N 	N 	0.6741	0.532	0.0984	-0.285
Mof_C 	C 	0.6955	0.5757	0.1327	0.047
Mof_C 	C 	0.6815	0.4465	0.0931	0.069
Mof_C 	C 	0.7244	0.5352	0.1629	-0.114
Mof_H 	H 	0.6906	0.6373	0.1363	-0.022
Mof_C 	C 	0.7097	0.3994	0.1225	-0.094
Mof_H 	H 	0.6669	0.4159	0.0682	0.069
Mof_C 	C 	0.7316	0.4448	0.1582	0.041
Mof_H 	H 	0.7393	0.5685	0.1866	0.082
Mof_H 	H 	0.7138	0.3377	0.1181	0.099
Mof_C 	C 	0.7624	0.4018	0.1903	0.09
Mof_N 	N 	0.7685	0.3123	0.1858	-0.135
Mof_N 	N 	0.782	0.4515	0.2234	-0.144
Mof_C 	C 	0.7966	0.2795	0.2153	0.115
Mof_C 	C 	0.8104	0.4101	0.2508	0.104
Mof_C 	C 	0.8029	0.1801	0.2168	0.066
Mof_N 	N 	0.8193	0.3237	0.2476	-0.142
Mof_C 	C 	0.8335	0.4617	0.2876	0.049
Mof_C 	C 	0.7808	0.122	0.1877	-0.116
Mof_C 	C 	0.8314	0.1447	0.2491	-0.117
Mof_C 	C 	0.8261	0.5493	0.2946	-0.119
Mof_C 	C 	0.8638	0.42	0.3163	-0.104
Mof_C 	C 	0.7885	0.033	0.1907	0.097
Mof_H 	H 	0.7603	0.1439	0.1654	0.102
Mof_C 	C 	0.8364	0.0529	0.2508	0.075
Mof_H 	H 	0.8474	0.1822	0.2701	0.059
Mof_C 	C 	0.8489	0.5935	0.3301	0.07
Mof_H 	H 	0.8056	0.5795	0.2754	0.074
Mof_C 	C 	0.8864	0.4696	0.3491	0.067
Mof_H 	H 	0.8688	0.3583	0.3133	0.053
Mof_N 	N 	0.8152	0.9984	0.2226	-0.274
Mof_H 	H 	0.774	0.9943	0.1691	0.01
Mof_H 	H 	0.8561	0.0285	0.2734	-0.031
Mof_N 	N 	0.8782	0.5547	0.3573	-0.267
Mof_H 	H 	0.8432	0.6542	0.3351	-0.012
Mof_H 	H 	0.9087	0.4426	0.3667	-0.021
Mof_Zn	Zn	0.8283	0.8605	0.2306	0.6
Mof_Zn	Zn	0.91725	0.62515	0.40471	1.158
Mof_N 	N 	0.8625	0.8447	0.182	-0.287
Mof_I 	I 	0.87008	0.8401	0.3072	-0.257
Mof_I 	I 	0.76673	0.7663	0.2062	-0.109
Mof_I 	I 	0.97587	0.6535	0.36429	-0.295
Mof_I 	I 	0.88037	0.7353	0.44499	-0.04
Mof_N 	N 	0.9333	0.5208	0.4492	-0.275
Mof_C 	C 	0.8591	0.7754	0.1557	0.117
Mof_C 	C 	0.8874	0.9045	0.1727	0.134
Mof_C 	C 	0.8829	0.7567	0.1251	-0.185
Mof_H 	H 	0.8384	0.7348	0.158	-0.038
Mof_C 	C 	0.9129	0.888	0.1434	-0.129
Mof_H 	H 	0.888	0.9612	0.1867	-0.009
Mof_C 	C 	0.9112	0.8115	0.1202	0.078
Mof_H 	H 	0.879	0.7041	0.1074	0.052
Mof_H 	H 	0.932	0.9314	0.1394	0.109
Mof_C 	C 	0.9369	0.7964	0.0857	0.022
Mof_N 	N 	0.9298	0.7222	0.0608	-0.181
Mof_N 	N 	0.9658	0.8543	0.0833	-0.134
Mof_C 	C 	0.9533	0.7108	0.03	0.052
Mof_C 	C 	0.9878	0.8346	0.0528	0.065
Mof_C 	C 	0.9477	0.6303	0.002	0.056
Mof_N 	N 	0.9827	0.7657	0.0236	-0.152
Mof_C 	C 	0.0222	0.8938	0.0501	0.053
Mof_C 	C 	0.9154	0.5754	0.0051	-0.116
Mof_C 	C 	0.9722	0.6064	0.973	-0.135
Mof_C 	C 	0.0415	0.9327	0.0896	-0.151
Mof_C 	C 	0.0373	0.9065	0.0123	-0.109
Mof_C 	C 	0.9103	0.5023	0.978	0.081
Mof_H 	H 	0.8978	0.5886	0.0253	0.059
Mof_H 	H 	0.9946	0.6417	0.9705	0.07
Mof_C 	C 	0.9644	0.5318	0.948	0.078
Mof_C 	C 	0.0718	0.9886	0.0869	0.096
Mof_H 	H 	0.0336	0.9204	0.1177	0.088
Mof_C 	C 	0.0692	0.9631	0.0127	0.048
Mof_H 	H 	0.0262	0.8768	0.9854	0.069
Mof_H 	H 	0.8884	0.465	0.98	-0.007
Mof_H 	H 	0.9821	0.5159	0.9283	-0.015
Mof_H 	H 	0.0837	0.0182	0.1136	-0.075
Mof_H 	H 	0.0793	0.9724	0.9856	0.063
Mof_I 	I 	0.6151	0.7304	0.0877	-0.56
Mof_I 	I 	0.6558	0.5835	0.974	-0.93
Mof_Zn	Zn	0.3223	0.3672	0.2243	0.542
Mof_I 	I 	0.2616	0.2851	0.1909	-0.238
Mof_I 	I 	0.3627	0.3378	0.3027	-0.11
Mof_I 	I 	0.4698	0.174	0.3712	-0.052
Mof_I 	I 	0.3679	0.2205	0.4444	-0.22
Mof_I 	I 	0.6179	0.7432	0.079	-1.624
Mof_I 	I 	0.6574	0.56	0.9725	-5.239
Mof_I 	I 	0.104	0.2235	0.1018	1.716
Mof_Zn	Zn	0.13137	0.09477	0.05314	1.042
Mof_N 	N 	0.0861	0.0048	0.05	-0.3
Mof_I 	I 	0.1518	0.1124	0.9826	6.064
Mof_N 	N 	0.1741	0.032	0.0984	-0.285
Mof_C 	C 	0.1955	0.0757	0.1327	0.048
Mof_C 	C 	0.1815	0.9465	0.0931	0.07
Mof_C 	C 	0.2244	0.0352	0.1629	-0.116
Mof_H 	H 	0.1906	0.1373	0.1363	-0.022
Mof_C 	C 	0.2097	0.8994	0.1225	-0.095
Mof_H 	H 	0.1669	0.9159	0.0682	0.069
Mof_C 	C 	0.2316	0.9448	0.1582	0.042
Mof_H 	H 	0.2393	0.0685	0.1866	0.082
Mof_H 	H 	0.2138	0.8377	0.1181	0.099
Mof_C 	C 	0.2624	0.9018	0.1903	0.09
Mof_N 	N 	0.2685	0.8123	0.1858	-0.135
Mof_N 	N 	0.282	0.9515	0.2234	-0.144
Mof_C 	C 	0.2966	0.7795	0.2153	0.114
Mof_C 	C 	0.3104	0.9101	0.2508	0.103
Mof_C 	C 	0.3029	0.6801	0.2168	0.066
Mof_N 	N 	0.3193	0.8237	0.2476	-0.142
Mof_C 	C 	0.3335	0.9617	0.2876	0.05
Mof_C 	C 	0.2808	0.622	0.1877	-0.117
Mof_C 	C 	0.3314	0.6447	0.2491	-0.117
Mof_C 	C 	0.3261	0.0493	0.2946	-0.12
Mof_C 	C 	0.3638	0.92	0.3163	-0.104
Mof_C 	C 	0.2885	0.533	0.1907	0.099
Mof_H 	H 	0.2603	0.6439	0.1654	0.102
Mof_C 	C 	0.3364	0.5529	0.2508	0.076
Mof_H 	H 	0.3474	0.6822	0.2701	0.059
Mof_C 	C 	0.3489	0.0935	0.3301	0.07
Mof_H 	H 	0.3056	0.0795	0.2754	0.074
Mof_C 	C 	0.3864	0.9696	0.3491	0.067
Mof_H 	H 	0.3688	0.8583	0.3133	0.053
Mof_N 	N 	0.3152	0.4984	0.2226	-0.274
Mof_H 	H 	0.274	0.4943	0.1691	0.009
Mof_H 	H 	0.3561	0.5285	0.2734	-0.031
Mof_N 	N 	0.3782	0.0547	0.3573	-0.268
Mof_H 	H 	0.3432	0.1542	0.3351	-0.012
Mof_H 	H 	0.4087	0.9426	0.3667	-0.021
Mof_Zn	Zn	0.3283	0.3605	0.2306	0.6
Mof_Zn	Zn	0.41725	0.12515	0.40471	1.158
Mof_N 	N 	0.3625	0.3447	0.182	-0.287
Mof_I 	I 	0.37008	0.3401	0.3072	-0.257
Mof_I 	I 	0.26673	0.2663	0.2062	-0.109
Mof_I 	I 	0.47587	0.1535	0.36429	-0.295
Mof_I 	I 	0.38037	0.2353	0.44499	-0.04
Mof_N 	N 	0.4333	0.0208	0.4492	-0.275
Mof_C 	C 	0.3591	0.2754	0.1557	0.117
Mof_C 	C 	0.3874	0.4045	0.1727	0.134
Mof_C 	C 	0.3829	0.2567	0.1251	-0.185
Mof_H 	H 	0.3384	0.2348	0.158	-0.038
Mof_C 	C 	0.4129	0.388	0.1434	-0.129
Mof_H 	H 	0.388	0.4612	0.1867	-0.008
Mof_C 	C 	0.4112	0.3115	0.1202	0.077
Mof_H 	H 	0.379	0.2041	0.1074	0.052
Mof_H 	H 	0.432	0.4314	0.1394	0.109
Mof_C 	C 	0.4369	0.2964	0.0857	0.022
Mof_N 	N 	0.4298	0.2222	0.0608	-0.181
Mof_N 	N 	0.4658	0.3543	0.0833	-0.134
Mof_C 	C 	0.4533	0.2108	0.03	0.052
Mof_C 	C 	0.4878	0.3346	0.0528	0.065
Mof_C 	C 	0.4477	0.1303	0.002	0.056
Mof_N 	N 	0.4827	0.2657	0.0236	-0.152
Mof_C 	C 	0.5222	0.3938	0.0501	0.052
Mof_C 	C 	0.4154	0.0754	0.0051	-0.119
Mof_C 	C 	0.4722	0.1064	0.973	-0.134
Mof_C 	C 	0.5415	0.4327	0.0896	-0.15
Mof_C 	C 	0.5373	0.4065	0.0123	-0.109
Mof_C 	C 	0.4103	0.0023	0.978	0.084
Mof_H 	H 	0.3978	0.0886	0.0253	0.059
Mof_H 	H 	0.4946	0.1417	0.9705	0.07
Mof_C 	C 	0.4644	0.0318	0.948	0.079
Mof_C 	C 	0.5718	0.4886	0.0869	0.094
Mof_H 	H 	0.5336	0.4204	0.1177	0.088
Mof_C 	C 	0.5692	0.4631	0.0127	0.047
Mof_H 	H 	0.5262	0.3768	0.9854	0.07
Mof_H 	H 	0.3884	0.965	0.98	-0.009
Mof_H 	H 	0.4821	0.0159	0.9283	-0.015
Mof_H 	H 	0.5837	0.5182	0.1136	-0.074
Mof_H 	H 	0.5793	0.4724	0.9856	0.065
Mof_I 	I 	0.1151	0.2304	0.0877	-0.559
Mof_I 	I 	0.1558	0.0835	0.974	-0.928
Mof_Zn	Zn	0.8223	0.8672	0.2243	0.542
Mof_I 	I 	0.7616	0.7851	0.1909	-0.238
Mof_I 	I 	0.8627	0.8378	0.3027	-0.11
Mof_I 	I 	0.9698	0.674	0.3712	-0.051
Mof_I 	I 	0.8679	0.7205	0.4444	-0.22
Mof_I 	I 	0.1179	0.2432	0.079	-1.621
Mof_I 	I 	0.1574	0.06	0.9725	-5.223
Mof_I 	I 	0.604	0.2765	0.6018	1.72
Mof_Zn	Zn	0.63137	0.40523	0.55314	1.042
Mof_N 	N 	0.5861	0.4952	0.55	-0.299
Mof_I 	I 	0.6518	0.3876	0.4826	6.078
Mof_N 	N 	0.6741	0.468	0.5984	-0.285
Mof_C 	C 	0.6955	0.4243	0.6327	0.047
Mof_C 	C 	0.6815	0.5535	0.5931	0.069
Mof_C 	C 	0.7244	0.4648	0.6629	-0.115
Mof_H 	H 	0.6906	0.3627	0.6363	-0.022
Mof_C 	C 	0.7097	0.6006	0.6225	-0.094
Mof_H 	H 	0.6669	0.5841	0.5682	0.069
Mof_C 	C 	0.7316	0.5552	0.6582	0.041
Mof_H 	H 	0.7393	0.4315	0.6866	0.082
Mof_H 	H 	0.7138	0.6623	0.6181	0.099
Mof_C 	C 	0.7624	0.5982	0.6903	0.09
Mof_N 	N 	0.7685	0.6877	0.6858	-0.135
Mof_N 	N 	0.782	0.5485	0.7234	-0.144
Mof_C 	C 	0.7966	0.7205	0.7153	0.115
Mof_C 	C 	0.8104	0.5899	0.7508	0.104
Mof_C 	C 	0.8029	0.8199	0.7168	0.066
Mof_N 	N 	0.8193	0.6763	0.7476	-0.142
Mof_C 	C 	0.8335	0.5383	0.7876	0.049
Mof_C 	C 	0.7808	0.878	0.6877	-0.116
Mof_C 	C 	0.8314	0.8553	0.7491	-0.117
Mof_C 	C 	0.8261	0.4507	0.7946	-0.119
Mof_C 	C 	0.8638	0.58	0.8163	-0.104
Mof_C 	C 	0.7885	0.967	0.6907	0.098
Mof_H 	H 	0.7603	0.8561	0.6654	0.102
Mof_C 	C 	0.8364	0.9471	0.7508	0.076
Mof_H 	H 	0.8474	0.8178	0.7701	0.059
Mof_C 	C 	0.8489	0.4065	0.8301	0.07
Mof_H 	H 	0.8056	0.4205	0.7754	0.074
Mof_C 	C 	0.8864	0.5304	0.8491	0.067
Mof_H 	H 	0.8688	0.6417	0.8133	0.053
Mof_N 	N 	0.8152	0.0016	0.7226	-0.274
Mof_H 	H 	0.774	0.0057	0.6691	0.009
Mof_H 	H 	0.8561	0.9715	0.7734	-0.031
Mof_N 	N 	0.8782	0.4453	0.8573	-0.267
Mof_H 	H 	0.8432	0.3458	0.8351	-0.012
Mof_H 	H 	0.9087	0.5574	0.8667	-0.021
Mof_Zn	Zn	0.8283	0.1395	0.7306	0.6
Mof_Zn	Zn	0.91725	0.37485	0.90471	1.158
Mof_N 	N 	0.8625	0.1553	0.682	-0.287
Mof_I 	I 	0.87008	0.1599	0.8072	-0.257
Mof_I 	I 	0.76673	0.2337	0.7062	-0.109
Mof_I 	I 	0.97587	0.3465	0.86429	-0.295
Mof_I 	I 	0.88037	0.2647	0.94499	-0.039
Mof_N 	N 	0.9333	0.4792	0.9492	-0.275
Mof_C 	C 	0.8591	0.2246	0.6557	0.117
Mof_C 	C 	0.8874	0.0955	0.6727	0.134
Mof_C 	C 	0.8829	0.2433	0.6251	-0.185
Mof_H 	H 	0.8384	0.2652	0.658	-0.038
Mof_C 	C 	0.9129	0.112	0.6434	-0.129
Mof_H 	H 	0.888	0.0388	0.6867	-0.009
Mof_C 	C 	0.9112	0.1885	0.6202	0.078
Mof_H 	H 	0.879	0.2959	0.6074	0.052
Mof_H 	H 	0.932	0.0686	0.6394	0.109
Mof_C 	C 	0.9369	0.2036	0.5857	0.022
Mof_N 	N 	0.9298	0.2778	0.5608	-0.181
Mof_N 	N 	0.9658	0.1457	0.5833	-0.134
Mof_C 	C 	0.9533	0.2892	0.53	0.052
Mof_C 	C 	0.9878	0.1654	0.5528	0.065
Mof_C 	C 	0.9477	0.3697	0.502	0.056
Mof_N 	N 	0.9827	0.2343	0.5236	-0.152
Mof_C 	C 	0.0222	0.1062	0.5501	0.052
Mof_C 	C 	0.9154	0.4246	0.5051	-0.117
Mof_C 	C 	0.9722	0.3936	0.473	-0.134
Mof_C 	C 	0.0415	0.0673	0.5896	-0.15
Mof_C 	C 	0.0373	0.0935	0.5123	-0.109
Mof_C 	C 	0.9103	0.4977	0.478	0.081
Mof_H 	H 	0.8978	0.4114	0.5253	0.058
Mof_H 	H 	0.9946	0.3583	0.4705	0.07
Mof_C 	C 	0.9644	0.4682	0.448	0.078
Mof_C 	C 	0.0718	0.0114	0.5869	0.094
Mof_H 	H 	0.0336	0.0796	0.6177	0.088
Mof_C 	C 	0.0692	0.0369	0.5127	0.046
Mof_H 	H 	0.0262	0.1232	0.4854	0.07
Mof_H 	H 	0.8884	0.535	0.48	-0.007
Mof_H 	H 	0.9821	0.4841	0.4283	-0.015
Mof_H 	H 	0.0837	0.9818	0.6136	-0.075
Mof_H 	H 	0.0793	0.0276	0.4856	0.064
Mof_I 	I 	0.6151	0.2696	0.5877	-0.56
Mof_I 	I 	0.6558	0.4165	0.474	-0.93
Mof_Zn	Zn	0.3223	0.6328	0.7243	0.542
Mof_I 	I 	0.2616	0.7149	0.6909	-0.238
Mof_I 	I 	0.3627	0.6622	0.8027	-0.11
Mof_I 	I 	0.4698	0.826	0.8712	-0.052
Mof_I 	I 	0.3679	0.7795	0.9444	-0.22
Mof_I 	I 	0.6179	0.2568	0.579	-1.624
Mof_I 	I 	0.6574	0.44	0.4725	-5.235
Mof_I 	I 	0.104	0.7765	0.6018	1.716
Mof_Zn	Zn	0.13137	0.90523	0.55314	1.042
Mof_N 	N 	0.0861	0.9952	0.55	-0.299
Mof_I 	I 	0.1518	0.8876	0.4826	6.066
Mof_N 	N 	0.1741	0.968	0.5984	-0.285
Mof_C 	C 	0.1955	0.9243	0.6327	0.047
Mof_C 	C 	0.1815	0.0535	0.5931	0.069
Mof_C 	C 	0.2244	0.9648	0.6629	-0.115
Mof_H 	H 	0.1906	0.8627	0.6363	-0.022
Mof_C 	C 	0.2097	0.1006	0.6225	-0.095
Mof_H 	H 	0.1669	0.0841	0.5682	0.069
Mof_C 	C 	0.2316	0.0552	0.6582	0.042
Mof_H 	H 	0.2393	0.9315	0.6866	0.082
Mof_H 	H 	0.2138	0.1623	0.6181	0.099
Mof_C 	C 	0.2624	0.0982	0.6903	0.09
Mof_N 	N 	0.2685	0.1877	0.6858	-0.135
Mof_N 	N 	0.282	0.0485	0.7234	-0.144
Mof_C 	C 	0.2966	0.2205	0.7153	0.114
Mof_C 	C 	0.3104	0.0899	0.7508	0.103
Mof_C 	C 	0.3029	0.3199	0.7168	0.066
Mof_N 	N 	0.3193	0.1763	0.7476	-0.142
Mof_C 	C 	0.3335	0.0383	0.7876	0.05
Mof_C 	C 	0.2808	0.378	0.6877	-0.117
Mof_C 	C 	0.3314	0.3553	0.7491	-0.117
Mof_C 	C 	0.3261	0.9507	0.7946	-0.12
Mof_C 	C 	0.3638	0.08	0.8163	-0.104
Mof_C 	C 	0.2885	0.467	0.6907	0.099
Mof_H 	H 	0.2603	0.3561	0.6654	0.102
Mof_C 	C 	0.3364	0.4471	0.7508	0.076
Mof_H 	H 	0.3474	0.3178	0.7701	0.059
Mof_C 	C 	0.3489	0.9065	0.8301	0.07
Mof_H 	H 	0.3056	0.9205	0.7754	0.074
Mof_C 	C 	0.3864	0.0304	0.8491	0.067
Mof_H 	H 	0.3688	0.1417	0.8133	0.054
Mof_N 	N 	0.3152	0.5016	0.7226	-0.274
Mof_H 	H 	0.274	0.5057	0.6691	0.009
Mof_H 	H 	0.3561	0.4715	0.7734	-0.031
Mof_N 	N 	0.3782	0.9453	0.8573	-0.268
Mof_H 	H 	0.3432	0.8458	0.8351	-0.012
Mof_H 	H 	0.4087	0.0574	0.8667	-0.021
Mof_Zn	Zn	0.3283	0.6395	0.7306	0.6
Mof_Zn	Zn	0.41725	0.87485	0.90471	1.158
Mof_N 	N 	0.3625	0.6553	0.682	-0.287
Mof_I 	I 	0.37008	0.6599	0.8072	-0.257
Mof_I 	I 	0.26673	0.7337	0.7062	-0.109
Mof_I 	I 	0.47587	0.8465	0.86429	-0.295
Mof_I 	I 	0.38037	0.7647	0.94499	-0.04
Mof_N 	N 	0.4333	0.9792	0.9492	-0.276
Mof_C 	C 	0.3591	0.7246	0.6557	0.117
Mof_C 	C 	0.3874	0.5955	0.6727	0.134
Mof_C 	C 	0.3829	0.7433	0.6251	-0.185
Mof_H 	H 	0.3384	0.7652	0.658	-0.038
Mof_C 	C 	0.4129	0.612	0.6434	-0.129
Mof_H 	H 	0.388	0.5388	0.6867	-0.008
Mof_C 	C 	0.4112	0.6885	0.6202	0.078
Mof_H 	H 	0.379	0.7959	0.6074	0.052
Mof_H 	H 	0.432	0.5686	0.6394	0.109
Mof_C 	C 	0.4369	0.7036	0.5857	0.022
Mof_N 	N 	0.4298	0.7778	0.5608	-0.181
Mof_N 	N 	0.4658	0.6457	0.5833	-0.134
Mof_C 	C 	0.4533	0.7892	0.53	0.052
Mof_C 	C 	0.4878	0.6654	0.5528	0.065
Mof_C 	C 	0.4477	0.8697	0.502	0.056
Mof_N 	N 	0.4827	0.7343	0.5236	-0.152
Mof_C 	C 	0.5222	0.6062	0.5501	0.052
Mof_C 	C 	0.4154	0.9246	0.5051	-0.116
Mof_C 	C 	0.4722	0.8936	0.473	-0.134
Mof_C 	C 	0.5415	0.5673	0.5896	-0.15
Mof_C 	C 	0.5373	0.5935	0.5123	-0.108
Mof_C 	C 	0.4103	0.9977	0.478	0.08
Mof_H 	H 	0.3978	0.9114	0.5253	0.058
Mof_H 	H 	0.4946	0.8583	0.4705	0.07
Mof_C 	C 	0.4644	0.9682	0.448	0.078
Mof_C 	C 	0.5718	0.5114	0.5869	0.094
Mof_H 	H 	0.5336	0.5796	0.6177	0.088
Mof_C 	C 	0.5692	0.5369	0.5127	0.046
Mof_H 	H 	0.5262	0.6232	0.4854	0.07
Mof_H 	H 	0.3884	0.035	0.48	-0.008
Mof_H 	H 	0.4821	0.9841	0.4283	-0.015
Mof_H 	H 	0.5837	0.4818	0.6136	-0.074
Mof_H 	H 	0.5793	0.5276	0.4856	0.065
Mof_I 	I 	0.1151	0.7696	0.5877	-0.56
Mof_I 	I 	0.1558	0.9165	0.474	-0.928
Mof_Zn	Zn	0.8223	0.1328	0.7243	0.542
Mof_I 	I 	0.7616	0.2149	0.6909	-0.238
Mof_I 	I 	0.8627	0.1622	0.8027	-0.11
Mof_I 	I 	0.9698	0.326	0.8712	-0.051
Mof_I 	I 	0.8679	0.2795	0.9444	-0.22
Mof_I 	I 	0.1179	0.7568	0.579	-1.621
Mof_I 	I 	0.1574	0.94	0.4725	-5.225
_end
