data_functionalizedCrystal
_audit_creation_method	'EQeq! by Chris Wilmer'
_symmetry_space_group_name_H-M	'P1'
_symmetry_Int_Tables_number	1
_symmetry_cell_setting	triclinic
loop_
_symmetry_equiv_pos_as_xyz
  x,y,z
_cell_length_a	30.7991
_cell_length_b	30.7991
_cell_length_c	31.2456
_cell_angle_alpha	119.528
_cell_angle_beta	119.528
_cell_angle_gamma	90.0001
loop_
_atom_site_label
_atom_site_type_symbol
_atom_site_fract_x
_atom_site_fract_y
_atom_site_fract_z
_atom_site_charge
Mof_Cu	Cu	0.47092	0.52234	0.74354	0.908
Mof_Cu	Cu	0.46468	0.53312	0.66134	0.908
Mof_Cu	Cu	0.27262	0.2212	0.74354	0.908
Mof_Cu	Cu	0.19667	0.12822	0.66135	0.908
Mof_Cu	Cu	0.52234	0.27262	0.74355	0.908
Mof_Cu	Cu	0.53312	0.19667	0.66134	0.908
Mof_Cu	Cu	0.2212	0.47092	0.74353	0.908
Mof_Cu	Cu	0.12822	0.46468	0.66134	0.908
Mof_Cu	Cu	0.52908	0.47766	0.25646	0.905
Mof_Cu	Cu	0.53532	0.46688	0.33866	0.908
Mof_Cu	Cu	0.72738	0.7788	0.25646	0.905
Mof_Cu	Cu	0.80333	0.87178	0.33865	0.907
Mof_Cu	Cu	0.47766	0.72738	0.25645	0.904
Mof_Cu	Cu	0.46688	0.80333	0.33865	0.907
Mof_Cu	Cu	0.7788	0.52908	0.25647	0.904
Mof_Cu	Cu	0.87178	0.53532	0.33865	0.907
Mof_Cu	Cu	0.74941	0.54881	-0	0.875
Mof_Cu	Cu	0.83446	0.56487	-0	0.878
Mof_Cu	Cu	0.25059	0.45119	-0	0.875
Mof_Cu	Cu	0.16554	0.43513	-0	0.878
Mof_Cu	Cu	0.54881	0.25059	-0	0.875
Mof_Cu	Cu	0.56487	0.16554	-0	0.878
Mof_Cu	Cu	0.45119	0.74941	-0	0.875
Mof_Cu	Cu	0.43513	0.83446	-0	0.878
Mof_H 	H 	0.769	0.5896	0.8632	0.087
Mof_H 	H 	0.6287	0.573	0.7286	0.09
Mof_H 	H 	0.6366	0.5638	0.8574	0.072
Mof_H 	H 	0.7905	0.5581	0.7936	0.04
Mof_H 	H 	0.8656	0.562	0.7904	0.088
Mof_H 	H 	0.9152	0.5363	0.684	0.086
Mof_H 	H 	0.7837	0.5801	0.6528	0.086
Mof_H 	H 	0.9822	0.5117	0.7362	0.034
Mof_H 	H 	0.0544	0.4935	0.7538	0.078
Mof_H 	H 	0.1792	0.4617	0.8516	0.067
Mof_H 	H 	0.0642	0.4802	0.8812	0.097
Mof_H 	H 	0.762	0.5497	0.5566	0.036
Mof_H 	H 	0.7043	0.5177	0.4574	0.076
Mof_H 	H 	0.6908	0.517	0.3212	0.061
Mof_H 	H 	0.8342	0.5455	0.4586	0.086
Mof_H 	H 	0.0942	0.2736	0.8632	0.088
Mof_H 	H 	0.0999	0.1556	0.7286	0.091
Mof_H 	H 	0.2208	0.2936	0.8574	0.073
Mof_H 	H 	0.0031	0.2355	0.7936	0.039
Mof_H 	H 	0.9248	0.2284	0.7904	0.089
Mof_H 	H 	0.7688	0.1477	0.684	0.088
Mof_H 	H 	0.8691	0.0727	0.6528	0.087
Mof_H 	H 	0.754	0.2245	0.7362	0.033
Mof_H 	H 	0.6994	0.2603	0.7538	0.076
Mof_H 	H 	0.6724	0.3899	0.8516	0.067
Mof_H 	H 	0.817	0.401	0.8812	0.095
Mof_H 	H 	0.7946	0.0069	0.5566	0.035
Mof_H 	H 	0.7531	0.9397	0.4574	0.075
Mof_H 	H 	0.6304	0.8042	0.3212	0.061
Mof_H 	H 	0.6244	0.9131	0.4586	0.086
Mof_H 	H 	0.5896	0.0942	0.8632	0.088
Mof_H 	H 	0.573	0.0999	0.7286	0.091
Mof_H 	H 	0.5638	0.2208	0.8574	0.072
Mof_H 	H 	0.5581	0.0031	0.7936	0.039
Mof_H 	H 	0.562	0.9248	0.7904	0.088
Mof_H 	H 	0.5363	0.7688	0.684	0.087
Mof_H 	H 	0.5801	0.8691	0.6528	0.086
Mof_H 	H 	0.5117	0.754	0.7362	0.033
Mof_H 	H 	0.4935	0.6994	0.7538	0.076
Mof_H 	H 	0.4617	0.6724	0.8516	0.067
Mof_H 	H 	0.4802	0.817	0.8812	0.095
Mof_H 	H 	0.5497	0.7946	0.5566	0.036
Mof_H 	H 	0.5177	0.7531	0.4574	0.076
Mof_H 	H 	0.517	0.6304	0.3212	0.061
Mof_H 	H 	0.5455	0.6244	0.4586	0.087
Mof_H 	H 	0.2736	0.769	0.8632	0.087
Mof_H 	H 	0.1556	0.6287	0.7286	0.091
Mof_H 	H 	0.2936	0.6366	0.8574	0.072
Mof_H 	H 	0.2355	0.7905	0.7936	0.04
Mof_H 	H 	0.2284	0.8656	0.7904	0.089
Mof_H 	H 	0.1477	0.9152	0.684	0.086
Mof_H 	H 	0.0727	0.7837	0.6528	0.087
Mof_H 	H 	0.2245	0.9822	0.7362	0.034
Mof_H 	H 	0.2603	0.0544	0.7538	0.078
Mof_H 	H 	0.3899	0.1792	0.8516	0.067
Mof_H 	H 	0.401	0.0642	0.8812	0.097
Mof_H 	H 	0.0069	0.762	0.5566	0.036
Mof_H 	H 	0.9397	0.7043	0.4574	0.075
Mof_H 	H 	0.8042	0.6908	0.3212	0.061
Mof_H 	H 	0.9131	0.8342	0.4586	0.085
Mof_H 	H 	0.231	0.4104	0.1368	0.071
Mof_H 	H 	0.3713	0.427	0.2714	0.085
Mof_H 	H 	0.3634	0.4362	0.1426	0.056
Mof_H 	H 	0.2095	0.4419	0.2064	0.035
Mof_H 	H 	0.1344	0.438	0.2096	0.08
Mof_H 	H 	0.0848	0.4637	0.316	0.085
Mof_H 	H 	0.2163	0.4199	0.3472	0.084
Mof_H 	H 	0.0178	0.4883	0.2638	0.031
Mof_H 	H 	0.9456	0.5065	0.2462	0.07
Mof_H 	H 	0.8208	0.5383	0.1484	0.054
Mof_H 	H 	0.9358	0.5198	0.1188	0.075
Mof_H 	H 	0.238	0.4503	0.4434	0.035
Mof_H 	H 	0.2957	0.4823	0.5426	0.077
Mof_H 	H 	0.3092	0.483	0.6788	0.065
Mof_H 	H 	0.1658	0.4545	0.5414	0.087
Mof_H 	H 	0.9058	0.7264	0.1368	0.07
Mof_H 	H 	0.9001	0.8444	0.2714	0.084
Mof_H 	H 	0.7792	0.7064	0.1426	0.056
Mof_H 	H 	0.9969	0.7645	0.2064	0.036
Mof_H 	H 	0.0752	0.7716	0.2096	0.08
Mof_H 	H 	0.2312	0.8523	0.316	0.083
Mof_H 	H 	0.1309	0.9273	0.3472	0.082
Mof_H 	H 	0.246	0.7755	0.2638	0.032
Mof_H 	H 	0.3006	0.7397	0.2462	0.071
Mof_H 	H 	0.3276	0.6101	0.1484	0.054
Mof_H 	H 	0.183	0.599	0.1188	0.077
Mof_H 	H 	0.2054	0.9931	0.4434	0.036
Mof_H 	H 	0.2469	0.0603	0.5426	0.078
Mof_H 	H 	0.3696	0.1958	0.6788	0.066
Mof_H 	H 	0.3756	0.0869	0.5414	0.088
Mof_H 	H 	0.4104	0.9058	0.1368	0.07
Mof_H 	H 	0.427	0.9001	0.2714	0.084
Mof_H 	H 	0.4362	0.7792	0.1426	0.056
Mof_H 	H 	0.4419	0.9969	0.2064	0.036
Mof_H 	H 	0.438	0.0752	0.2096	0.08
Mof_H 	H 	0.4637	0.2312	0.316	0.084
Mof_H 	H 	0.4199	0.1309	0.3472	0.083
Mof_H 	H 	0.4883	0.246	0.2638	0.032
Mof_H 	H 	0.5065	0.3006	0.2462	0.071
Mof_H 	H 	0.5383	0.3276	0.1484	0.054
Mof_H 	H 	0.5198	0.183	0.1188	0.077
Mof_H 	H 	0.4503	0.2054	0.4434	0.036
Mof_H 	H 	0.4823	0.2469	0.5426	0.077
Mof_H 	H 	0.483	0.3696	0.6788	0.065
Mof_H 	H 	0.4545	0.3756	0.5414	0.087
Mof_H 	H 	0.7264	0.231	0.1368	0.071
Mof_H 	H 	0.8444	0.3713	0.2714	0.085
Mof_H 	H 	0.7064	0.3634	0.1426	0.056
Mof_H 	H 	0.7645	0.2095	0.2064	0.035
Mof_H 	H 	0.7716	0.1344	0.2096	0.08
Mof_H 	H 	0.8523	0.0848	0.316	0.084
Mof_H 	H 	0.9273	0.2163	0.3472	0.082
Mof_H 	H 	0.7755	0.0178	0.2638	0.031
Mof_H 	H 	0.7397	0.9456	0.2462	0.07
Mof_H 	H 	0.6101	0.8208	0.1484	0.054
Mof_H 	H 	0.599	0.9358	0.1188	0.075
Mof_H 	H 	0.9931	0.238	0.4434	0.036
Mof_H 	H 	0.0603	0.2957	0.5426	0.078
Mof_H 	H 	0.1958	0.3092	0.6788	0.066
Mof_H 	H 	0.0869	0.1658	0.5414	0.088
Mof_C 	C 	0.70686	0.57498	0.86698	-0.031
Mof_C 	C 	0.73204	0.58289	0.84388	-0.076
Mof_C 	C 	0.70143	0.58082	0.79078	0.111
Mof_C 	C 	0.64872	0.57379	0.76402	-0.074
Mof_C 	C 	0.62492	0.56782	0.78968	-0.041
Mof_C 	C 	0.65346	0.56819	0.84058	-0.008
Mof_C 	C 	0.56637	0.55556	0.75842	0.349
Mof_C 	C 	0.73872	0.57035	0.91904	0.338
Mof_C 	C 	0.7699	0.5708	0.77054	0.009
Mof_C 	C 	0.77743	0.57917	0.73594	0.036
Mof_C 	C 	0.81789	0.56965	0.7219	0.069
Mof_C 	C 	0.86032	0.5589	0.7562	-0.113
Mof_C 	C 	0.89585	0.54284	0.73888	0.072
Mof_C 	C 	0.88945	0.54325	0.6927	-0.119
Mof_C 	C 	0.84693	0.55356	0.65792	0.07
Mof_C 	C 	0.81113	0.56975	0.6737	-0.114
Mof_C 	C 	0.93941	0.53031	0.77242	0.03
Mof_C 	C 	0.97703	0.51439	0.76484	0.014
Mof_C 	C 	0.05256	0.48742	0.8154	0.102
Mof_C 	C 	0.07236	0.48658	0.78354	-0.062
Mof_C 	C 	0.11937	0.47525	0.79664	-0.054
Mof_C 	C 	0.14631	0.46771	0.84168	0.003
Mof_C 	C 	0.1254	0.46882	0.87246	-0.039
Mof_C 	C 	0.0783	0.47902	0.85972	-0.067
Mof_C 	C 	0.13909	0.47171	0.76108	0.353
Mof_C 	C 	0.15537	0.46038	0.92128	0.339
Mof_C 	C 	0.83889	0.55069	0.60698	0.031
Mof_C 	C 	0.79446	0.54779	0.56074	0.011
Mof_C 	C 	0.77363	0.53278	0.4662	0.099
Mof_C 	C 	0.71988	0.52154	0.43922	-0.068
Mof_C 	C 	0.68959	0.51607	0.38594	-0.05
Mof_C 	C 	0.71222	0.52065	0.35824	0.001
Mof_C 	C 	0.76503	0.53037	0.38482	-0.052
Mof_C 	C 	0.79713	0.53754	0.43962	-0.064
Mof_C 	C 	0.63066	0.50162	0.35408	0.353
Mof_C 	C 	0.78812	0.53286	0.35352	0.346
Mof_C 	C 	0.16012	0.292	0.86698	-0.03
Mof_C 	C 	0.11184	0.26099	0.84388	-0.077
Mof_C 	C 	0.08935	0.20996	0.79078	0.113
Mof_C 	C 	0.1153	0.19023	0.76402	-0.075
Mof_C 	C 	0.16476	0.22186	0.78968	-0.04
Mof_C 	C 	0.18712	0.27239	0.84058	-0.008
Mof_C 	C 	0.19205	0.20286	0.75842	0.348
Mof_C 	C 	0.18032	0.34869	0.91904	0.338
Mof_C 	C 	0.00064	0.19974	0.77054	0.019
Mof_C 	C 	0.95851	0.15677	0.73594	0.028
Mof_C 	C 	0.90401	0.15225	0.7219	0.073
Mof_C 	C 	0.89588	0.1973	0.7562	-0.116
Mof_C 	C 	0.84303	0.19604	0.73888	0.075
Mof_C 	C 	0.80325	0.14945	0.6927	-0.121
Mof_C 	C 	0.81099	0.10436	0.65792	0.073
Mof_C 	C 	0.86257	0.10395	0.6737	-0.116
Mof_C 	C 	0.83301	0.24211	0.77242	0.027
Mof_C 	C 	0.78781	0.25045	0.76484	0.021
Mof_C 	C 	0.76284	0.32798	0.8154	0.101
Mof_C 	C 	0.71118	0.29696	0.78354	-0.062
Mof_C 	C 	0.67727	0.32139	0.79664	-0.055
Mof_C 	C 	0.69537	0.37397	0.84168	0.004
Mof_C 	C 	0.74706	0.40364	0.87246	-0.039
Mof_C 	C 	0.78142	0.3807	0.85972	-0.067
Mof_C 	C 	0.62199	0.28937	0.76108	0.354
Mof_C 	C 	0.76591	0.4609	0.92128	0.34
Mof_C 	C 	0.76809	0.05629	0.60698	0.03
Mof_C 	C 	0.76628	0.01295	0.56074	0.018
Mof_C 	C 	0.69257	0.93342	0.4662	0.099
Mof_C 	C 	0.71934	0.91768	0.43922	-0.068
Mof_C 	C 	0.69635	0.86987	0.38594	-0.051
Mof_C 	C 	0.64602	0.83759	0.35824	0.001
Mof_C 	C 	0.61979	0.85445	0.38482	-0.052
Mof_C 	C 	0.64249	0.90208	0.43962	-0.064
Mof_C 	C 	0.72342	0.85246	0.35408	0.353
Mof_C 	C 	0.5654	0.82066	0.35352	0.346
Mof_C 	C 	0.57498	0.16012	0.86698	-0.03
Mof_C 	C 	0.58289	0.11184	0.84388	-0.076
Mof_C 	C 	0.58082	0.08935	0.79078	0.112
Mof_C 	C 	0.57379	0.1153	0.76402	-0.075
Mof_C 	C 	0.56782	0.16476	0.78968	-0.04
Mof_C 	C 	0.56819	0.18712	0.84058	-0.008
Mof_C 	C 	0.55556	0.19205	0.75842	0.348
Mof_C 	C 	0.57035	0.18032	0.91904	0.338
Mof_C 	C 	0.5708	0.00064	0.77054	0.019
Mof_C 	C 	0.57917	0.95851	0.73594	0.028
Mof_C 	C 	0.56965	0.90401	0.7219	0.072
Mof_C 	C 	0.5589	0.89588	0.7562	-0.116
Mof_C 	C 	0.54284	0.84303	0.73888	0.074
Mof_C 	C 	0.54325	0.80325	0.6927	-0.12
Mof_C 	C 	0.55356	0.81099	0.65792	0.071
Mof_C 	C 	0.56975	0.86257	0.6737	-0.115
Mof_C 	C 	0.53031	0.83301	0.77242	0.027
Mof_C 	C 	0.51439	0.78781	0.76484	0.021
Mof_C 	C 	0.48742	0.76284	0.8154	0.101
Mof_C 	C 	0.48658	0.71118	0.78354	-0.062
Mof_C 	C 	0.47525	0.67727	0.79664	-0.055
Mof_C 	C 	0.46771	0.69537	0.84168	0.004
Mof_C 	C 	0.46882	0.74706	0.87246	-0.04
Mof_C 	C 	0.47902	0.78142	0.85972	-0.067
Mof_C 	C 	0.47171	0.62199	0.76108	0.354
Mof_C 	C 	0.46038	0.76591	0.92128	0.34
Mof_C 	C 	0.55069	0.76809	0.60698	0.031
Mof_C 	C 	0.54779	0.76628	0.56074	0.012
Mof_C 	C 	0.53278	0.69257	0.4662	0.1
Mof_C 	C 	0.52154	0.71934	0.43922	-0.068
Mof_C 	C 	0.51607	0.69635	0.38594	-0.05
Mof_C 	C 	0.52065	0.64602	0.35824	0.001
Mof_C 	C 	0.53037	0.61979	0.38482	-0.052
Mof_C 	C 	0.53754	0.64249	0.43962	-0.064
Mof_C 	C 	0.50162	0.72342	0.35408	0.353
Mof_C 	C 	0.53286	0.5654	0.35352	0.346
Mof_C 	C 	0.292	0.70686	0.86698	-0.031
Mof_C 	C 	0.26099	0.73204	0.84388	-0.076
Mof_C 	C 	0.20996	0.70143	0.79078	0.111
Mof_C 	C 	0.19023	0.64872	0.76402	-0.074
Mof_C 	C 	0.22186	0.62492	0.78968	-0.041
Mof_C 	C 	0.27239	0.65346	0.84058	-0.008
Mof_C 	C 	0.20286	0.56637	0.75842	0.348
Mof_C 	C 	0.34869	0.73872	0.91904	0.338
Mof_C 	C 	0.19974	0.7699	0.77054	0.009
Mof_C 	C 	0.15677	0.77743	0.73594	0.036
Mof_C 	C 	0.15225	0.81789	0.7219	0.07
Mof_C 	C 	0.1973	0.86032	0.7562	-0.114
Mof_C 	C 	0.19604	0.89585	0.73888	0.073
Mof_C 	C 	0.14945	0.88945	0.6927	-0.119
Mof_C 	C 	0.10436	0.84693	0.65792	0.071
Mof_C 	C 	0.10395	0.81113	0.6737	-0.114
Mof_C 	C 	0.24211	0.93941	0.77242	0.03
Mof_C 	C 	0.25045	0.97703	0.76484	0.014
Mof_C 	C 	0.32798	0.05256	0.8154	0.102
Mof_C 	C 	0.29696	0.07236	0.78354	-0.062
Mof_C 	C 	0.32139	0.11937	0.79664	-0.054
Mof_C 	C 	0.37397	0.14631	0.84168	0.003
Mof_C 	C 	0.40364	0.1254	0.87246	-0.039
Mof_C 	C 	0.3807	0.0783	0.85972	-0.067
Mof_C 	C 	0.28937	0.13909	0.76108	0.353
Mof_C 	C 	0.4609	0.15537	0.92128	0.339
Mof_C 	C 	0.05629	0.83889	0.60698	0.03
Mof_C 	C 	0.01295	0.79446	0.56074	0.018
Mof_C 	C 	0.93342	0.77363	0.4662	0.098
Mof_C 	C 	0.91768	0.71988	0.43922	-0.068
Mof_C 	C 	0.86987	0.68959	0.38594	-0.051
Mof_C 	C 	0.83759	0.71222	0.35824	0.002
Mof_C 	C 	0.85445	0.76503	0.38482	-0.052
Mof_C 	C 	0.90208	0.79713	0.43962	-0.064
Mof_C 	C 	0.85246	0.63066	0.35408	0.353
Mof_C 	C 	0.82066	0.78812	0.35352	0.346
Mof_C 	C 	0.29314	0.42502	0.13302	-0.056
Mof_C 	C 	0.26796	0.41711	0.15612	-0.067
Mof_C 	C 	0.29857	0.41918	0.20922	0.097
Mof_C 	C 	0.35128	0.42621	0.23598	-0.067
Mof_C 	C 	0.37508	0.43218	0.21032	-0.056
Mof_C 	C 	0.34654	0.43181	0.15942	0.002
Mof_C 	C 	0.43363	0.44444	0.24158	0.352
Mof_C 	C 	0.26128	0.42965	0.08096	0.347
Mof_C 	C 	0.2301	0.4292	0.22946	0.005
Mof_C 	C 	0.22257	0.42083	0.26406	0.032
Mof_C 	C 	0.18211	0.43035	0.2781	0.065
Mof_C 	C 	0.13968	0.4411	0.2438	-0.115
Mof_C 	C 	0.10415	0.45716	0.26112	0.069
Mof_C 	C 	0.11055	0.45675	0.3073	-0.12
Mof_C 	C 	0.15307	0.44644	0.34208	0.068
Mof_C 	C 	0.18887	0.43025	0.3263	-0.115
Mof_C 	C 	0.06059	0.46969	0.22758	0.022
Mof_C 	C 	0.02297	0.48561	0.23516	0.023
Mof_C 	C 	0.94744	0.51258	0.1846	0.084
Mof_C 	C 	0.92764	0.51342	0.21646	-0.057
Mof_C 	C 	0.88063	0.52475	0.20336	-0.07
Mof_C 	C 	0.85369	0.53229	0.15832	0.012
Mof_C 	C 	0.8746	0.53118	0.12754	-0.064
Mof_C 	C 	0.9217	0.52098	0.14028	-0.06
Mof_C 	C 	0.86091	0.52829	0.23892	0.357
Mof_C 	C 	0.84463	0.53962	0.07872	0.346
Mof_C 	C 	0.16111	0.44931	0.39302	0.03
Mof_C 	C 	0.20554	0.45221	0.43926	0.011
Mof_C 	C 	0.22637	0.46722	0.5338	0.1
Mof_C 	C 	0.28012	0.47846	0.56078	-0.07
Mof_C 	C 	0.31041	0.48393	0.61406	-0.048
Mof_C 	C 	0.28778	0.47935	0.64176	-0.001
Mof_C 	C 	0.23497	0.46963	0.61518	-0.049
Mof_C 	C 	0.20287	0.46246	0.56038	-0.065
Mof_C 	C 	0.36934	0.49838	0.64592	0.351
Mof_C 	C 	0.21188	0.46714	0.64648	0.344
Mof_C 	C 	0.83988	0.708	0.13302	-0.057
Mof_C 	C 	0.88816	0.73901	0.15612	-0.067
Mof_C 	C 	0.91065	0.79004	0.20922	0.095
Mof_C 	C 	0.8847	0.80977	0.23598	-0.067
Mof_C 	C 	0.83524	0.77814	0.21032	-0.057
Mof_C 	C 	0.81288	0.72761	0.15942	0.002
Mof_C 	C 	0.80795	0.79714	0.24158	0.352
Mof_C 	C 	0.81968	0.65131	0.08096	0.347
Mof_C 	C 	0.99936	0.80026	0.22946	-0.005
Mof_C 	C 	0.04149	0.84323	0.26406	0.04
Mof_C 	C 	0.09599	0.84775	0.2781	0.061
Mof_C 	C 	0.10412	0.8027	0.2438	-0.112
Mof_C 	C 	0.15697	0.80396	0.26112	0.066
Mof_C 	C 	0.19675	0.85055	0.3073	-0.118
Mof_C 	C 	0.18901	0.89564	0.34208	0.065
Mof_C 	C 	0.13743	0.89605	0.3263	-0.112
Mof_C 	C 	0.16699	0.75789	0.22758	0.025
Mof_C 	C 	0.21219	0.74955	0.23516	0.015
Mof_C 	C 	0.23716	0.67202	0.1846	0.086
Mof_C 	C 	0.28882	0.70304	0.21646	-0.057
Mof_C 	C 	0.32273	0.67861	0.20336	-0.069
Mof_C 	C 	0.30463	0.62603	0.15832	0.012
Mof_C 	C 	0.25294	0.59636	0.12754	-0.063
Mof_C 	C 	0.21858	0.6193	0.14028	-0.06
Mof_C 	C 	0.37801	0.71063	0.23892	0.357
Mof_C 	C 	0.23409	0.5391	0.07872	0.346
Mof_C 	C 	0.23191	0.94371	0.39302	0.032
Mof_C 	C 	0.23372	0.98705	0.43926	0.003
Mof_C 	C 	0.30743	0.06658	0.5338	0.101
Mof_C 	C 	0.28066	0.08232	0.56078	-0.07
Mof_C 	C 	0.30365	0.13013	0.61406	-0.047
Mof_C 	C 	0.35398	0.16241	0.64176	-0.001
Mof_C 	C 	0.38021	0.14555	0.61518	-0.049
Mof_C 	C 	0.35751	0.09792	0.56038	-0.065
Mof_C 	C 	0.27658	0.14754	0.64592	0.351
Mof_C 	C 	0.4346	0.17934	0.64648	0.344
Mof_C 	C 	0.42502	0.83988	0.13302	-0.056
Mof_C 	C 	0.41711	0.88816	0.15612	-0.067
Mof_C 	C 	0.41918	0.91065	0.20922	0.096
Mof_C 	C 	0.42621	0.8847	0.23598	-0.067
Mof_C 	C 	0.43218	0.83524	0.21032	-0.056
Mof_C 	C 	0.43181	0.81288	0.15942	0.002
Mof_C 	C 	0.44444	0.80795	0.24158	0.352
Mof_C 	C 	0.42965	0.81968	0.08096	0.347
Mof_C 	C 	0.4292	0.99936	0.22946	-0.004
Mof_C 	C 	0.42083	0.04149	0.26406	0.04
Mof_C 	C 	0.43035	0.09599	0.2781	0.062
Mof_C 	C 	0.4411	0.10412	0.2438	-0.112
Mof_C 	C 	0.45716	0.15697	0.26112	0.067
Mof_C 	C 	0.45675	0.19675	0.3073	-0.119
Mof_C 	C 	0.44644	0.18901	0.34208	0.067
Mof_C 	C 	0.43025	0.13743	0.3263	-0.113
Mof_C 	C 	0.46969	0.16699	0.22758	0.025
Mof_C 	C 	0.48561	0.21219	0.23516	0.016
Mof_C 	C 	0.51258	0.23716	0.1846	0.086
Mof_C 	C 	0.51342	0.28882	0.21646	-0.057
Mof_C 	C 	0.52475	0.32273	0.20336	-0.069
Mof_C 	C 	0.53229	0.30463	0.15832	0.012
Mof_C 	C 	0.53118	0.25294	0.12754	-0.063
Mof_C 	C 	0.52098	0.21858	0.14028	-0.06
Mof_C 	C 	0.52829	0.37801	0.23892	0.356
Mof_C 	C 	0.53962	0.23409	0.07872	0.346
Mof_C 	C 	0.44931	0.23191	0.39302	0.031
Mof_C 	C 	0.45221	0.23372	0.43926	0.01
Mof_C 	C 	0.46722	0.30743	0.5338	0.1
Mof_C 	C 	0.47846	0.28066	0.56078	-0.07
Mof_C 	C 	0.48393	0.30365	0.61406	-0.048
Mof_C 	C 	0.47935	0.35398	0.64176	-0.001
Mof_C 	C 	0.46963	0.38021	0.61518	-0.05
Mof_C 	C 	0.46246	0.35751	0.56038	-0.065
Mof_C 	C 	0.49838	0.27658	0.64592	0.351
Mof_C 	C 	0.46714	0.4346	0.64648	0.344
Mof_C 	C 	0.708	0.29314	0.13302	-0.056
Mof_C 	C 	0.73901	0.26796	0.15612	-0.067
Mof_C 	C 	0.79004	0.29857	0.20922	0.097
Mof_C 	C 	0.80977	0.35128	0.23598	-0.067
Mof_C 	C 	0.77814	0.37508	0.21032	-0.056
Mof_C 	C 	0.72761	0.34654	0.15942	0.002
Mof_C 	C 	0.79714	0.43363	0.24158	0.352
Mof_C 	C 	0.65131	0.26128	0.08096	0.347
Mof_C 	C 	0.80026	0.2301	0.22946	0.005
Mof_C 	C 	0.84323	0.22257	0.26406	0.032
Mof_C 	C 	0.84775	0.18211	0.2781	0.064
Mof_C 	C 	0.8027	0.13968	0.2438	-0.114
Mof_C 	C 	0.80396	0.10415	0.26112	0.069
Mof_C 	C 	0.85055	0.11055	0.3073	-0.12
Mof_C 	C 	0.89564	0.15307	0.34208	0.066
Mof_C 	C 	0.89605	0.18887	0.3263	-0.114
Mof_C 	C 	0.75789	0.06059	0.22758	0.022
Mof_C 	C 	0.74955	0.02297	0.23516	0.023
Mof_C 	C 	0.67202	0.94744	0.1846	0.084
Mof_C 	C 	0.70304	0.92764	0.21646	-0.057
Mof_C 	C 	0.67861	0.88063	0.20336	-0.07
Mof_C 	C 	0.62603	0.85369	0.15832	0.012
Mof_C 	C 	0.59636	0.8746	0.12754	-0.064
Mof_C 	C 	0.6193	0.9217	0.14028	-0.059
Mof_C 	C 	0.71063	0.86091	0.23892	0.357
Mof_C 	C 	0.5391	0.84463	0.07872	0.346
Mof_C 	C 	0.94371	0.16111	0.39302	0.032
Mof_C 	C 	0.98705	0.20554	0.43926	0.004
Mof_C 	C 	0.06658	0.22637	0.5338	0.101
Mof_C 	C 	0.08232	0.28012	0.56078	-0.07
Mof_C 	C 	0.13013	0.31041	0.61406	-0.047
Mof_C 	C 	0.16241	0.28778	0.64176	-0.001
Mof_C 	C 	0.14555	0.23497	0.61518	-0.049
Mof_C 	C 	0.09792	0.20287	0.56038	-0.065
Mof_C 	C 	0.14754	0.36934	0.64592	0.351
Mof_C 	C 	0.17934	0.21188	0.64648	0.344
Mof_N 	N 	0.72694	0.58419	0.7653	-0.094
Mof_N 	N 	0.70842	0.60305	0.73034	-0.039
Mof_N 	N 	0.73985	0.59972	0.7119	-0.069
Mof_N 	N 	0.94721	0.52897	0.81894	-0.066
Mof_N 	N 	0.98606	0.508	0.835	-0.038
Mof_N 	N 	0.00542	0.50332	0.8035	-0.086
Mof_N 	N 	0.85926	0.54646	0.54692	-0.043
Mof_N 	N 	0.80665	0.54181	0.52294	-0.094
Mof_N 	N 	0.87839	0.54934	0.59768	-0.071
Mof_N 	N 	0.03836	0.18111	0.7653	-0.095
Mof_N 	N 	0.02192	0.12729	0.73034	-0.035
Mof_N 	N 	0.97205	0.11218	0.7119	-0.07
Mof_N 	N 	0.87173	0.28997	0.81894	-0.065
Mof_N 	N 	0.84894	0.327	0.835	-0.035
Mof_N 	N 	0.79808	0.30018	0.8035	-0.091
Mof_N 	N 	0.68766	0.00046	0.54692	-0.039
Mof_N 	N 	0.71629	0.98113	0.52294	-0.099
Mof_N 	N 	0.71929	0.04834	0.59768	-0.069
Mof_N 	N 	0.58419	0.03836	0.7653	-0.095
Mof_N 	N 	0.60305	0.02192	0.73034	-0.036
Mof_N 	N 	0.59972	0.97205	0.7119	-0.071
Mof_N 	N 	0.52897	0.87173	0.81894	-0.065
Mof_N 	N 	0.508	0.84894	0.835	-0.035
Mof_N 	N 	0.50332	0.79808	0.8035	-0.091
Mof_N 	N 	0.54646	0.68766	0.54692	-0.042
Mof_N 	N 	0.54181	0.71629	0.52294	-0.094
Mof_N 	N 	0.54934	0.71929	0.59768	-0.07
Mof_N 	N 	0.18111	0.72694	0.7653	-0.094
Mof_N 	N 	0.12729	0.70842	0.73034	-0.038
Mof_N 	N 	0.11218	0.73985	0.7119	-0.068
Mof_N 	N 	0.28997	0.94721	0.81894	-0.066
Mof_N 	N 	0.327	0.98606	0.835	-0.038
Mof_N 	N 	0.30018	0.00542	0.8035	-0.086
Mof_N 	N 	0.00046	0.85926	0.54692	-0.04
Mof_N 	N 	0.98113	0.80665	0.52294	-0.098
Mof_N 	N 	0.04834	0.87839	0.59768	-0.07
Mof_N 	N 	0.27306	0.41581	0.2347	-0.094
Mof_N 	N 	0.29158	0.39695	0.26966	-0.044
Mof_N 	N 	0.26015	0.40028	0.2881	-0.072
Mof_N 	N 	0.05279	0.47103	0.18106	-0.075
Mof_N 	N 	0.01394	0.492	0.165	-0.044
Mof_N 	N 	0.99458	0.49668	0.1965	-0.097
Mof_N 	N 	0.14074	0.45354	0.45308	-0.043
Mof_N 	N 	0.19335	0.45819	0.47706	-0.094
Mof_N 	N 	0.12161	0.45066	0.40232	-0.071
Mof_N 	N 	0.96164	0.81889	0.2347	-0.093
Mof_N 	N 	0.97808	0.87271	0.26966	-0.047
Mof_N 	N 	0.02795	0.88782	0.2881	-0.072
Mof_N 	N 	0.12827	0.71003	0.18106	-0.075
Mof_N 	N 	0.15106	0.673	0.165	-0.047
Mof_N 	N 	0.20192	0.69982	0.1965	-0.092
Mof_N 	N 	0.31234	0.99954	0.45308	-0.047
Mof_N 	N 	0.28371	0.01887	0.47706	-0.089
Mof_N 	N 	0.28071	0.95166	0.40232	-0.073
Mof_N 	N 	0.41581	0.96164	0.2347	-0.093
Mof_N 	N 	0.39695	0.97808	0.26966	-0.046
Mof_N 	N 	0.40028	0.02795	0.2881	-0.071
Mof_N 	N 	0.47103	0.12827	0.18106	-0.075
Mof_N 	N 	0.492	0.15106	0.165	-0.047
Mof_N 	N 	0.49668	0.20192	0.1965	-0.092
Mof_N 	N 	0.45354	0.31234	0.45308	-0.044
Mof_N 	N 	0.45819	0.28371	0.47706	-0.094
Mof_N 	N 	0.45066	0.28071	0.40232	-0.072
Mof_N 	N 	0.81889	0.27306	0.2347	-0.094
Mof_N 	N 	0.87271	0.29158	0.26966	-0.044
Mof_N 	N 	0.88782	0.26015	0.2881	-0.073
Mof_N 	N 	0.71003	0.05279	0.18106	-0.075
Mof_N 	N 	0.673	0.01394	0.165	-0.044
Mof_N 	N 	0.69982	0.99458	0.1965	-0.097
Mof_N 	N 	0.99954	0.14074	0.45308	-0.047
Mof_N 	N 	0.01887	0.19335	0.47706	-0.089
Mof_N 	N 	0.95166	0.12161	0.40232	-0.073
Mof_O 	O 	0.54731	0.55081	0.78364	-0.398
Mof_O 	O 	0.5411	0.5509	0.7093	-0.399
Mof_O 	O 	0.71428	0.56308	0.93864	-0.364
Mof_O 	O 	0.7863	0.57519	0.93844	-0.373
Mof_O 	O 	0.13076	0.45035	0.93944	-0.36
Mof_O 	O 	0.20201	0.46148	0.93798	-0.372
Mof_O 	O 	0.18497	0.46796	0.77912	-0.396
Mof_O 	O 	0.10996	0.47243	0.71634	-0.401
Mof_O 	O 	0.83751	0.54064	0.37904	-0.394
Mof_O 	O 	0.75707	0.52753	0.30534	-0.407
Mof_O 	O 	0.61099	0.48699	0.37362	-0.402
Mof_O 	O 	0.60588	0.50393	0.30974	-0.407
Mof_O 	O 	0.23633	0.23283	0.78364	-0.397
Mof_O 	O 	0.1682	0.1584	0.7093	-0.398
Mof_O 	O 	0.22436	0.37556	0.93864	-0.363
Mof_O 	O 	0.15214	0.36325	0.93844	-0.372
Mof_O 	O 	0.80868	0.48909	0.93944	-0.361
Mof_O 	O 	0.73597	0.4765	0.93798	-0.373
Mof_O 	O 	0.59415	0.31116	0.77912	-0.396
Mof_O 	O 	0.60638	0.24391	0.71634	-0.401
Mof_O 	O 	0.54153	0.8384	0.37904	-0.394
Mof_O 	O 	0.54827	0.77781	0.30534	-0.407
Mof_O 	O 	0.76263	0.88663	0.37362	-0.403
Mof_O 	O 	0.70386	0.80581	0.30974	-0.407
Mof_O 	O 	0.55081	0.23633	0.78364	-0.397
Mof_O 	O 	0.5509	0.1682	0.7093	-0.399
Mof_O 	O 	0.56308	0.22436	0.93864	-0.363
Mof_O 	O 	0.57519	0.15214	0.93844	-0.372
Mof_O 	O 	0.45035	0.80868	0.93944	-0.361
Mof_O 	O 	0.46148	0.73597	0.93798	-0.373
Mof_O 	O 	0.46796	0.59415	0.77912	-0.396
Mof_O 	O 	0.47243	0.60638	0.71634	-0.402
Mof_O 	O 	0.54064	0.54153	0.37904	-0.394
Mof_O 	O 	0.52753	0.54827	0.30534	-0.406
Mof_O 	O 	0.48699	0.76263	0.37362	-0.402
Mof_O 	O 	0.50393	0.70386	0.30974	-0.406
Mof_O 	O 	0.23283	0.54731	0.78364	-0.397
Mof_O 	O 	0.1584	0.5411	0.7093	-0.399
Mof_O 	O 	0.37556	0.71428	0.93864	-0.363
Mof_O 	O 	0.36325	0.7863	0.93844	-0.373
Mof_O 	O 	0.48909	0.13076	0.93944	-0.36
Mof_O 	O 	0.4765	0.20201	0.93798	-0.372
Mof_O 	O 	0.31116	0.18497	0.77912	-0.396
Mof_O 	O 	0.24391	0.10996	0.71634	-0.401
Mof_O 	O 	0.8384	0.83751	0.37904	-0.395
Mof_O 	O 	0.77781	0.75707	0.30534	-0.407
Mof_O 	O 	0.88663	0.61099	0.37362	-0.403
Mof_O 	O 	0.80581	0.60588	0.30974	-0.407
Mof_O 	O 	0.45269	0.44919	0.21636	-0.409
Mof_O 	O 	0.4589	0.4491	0.2907	-0.402
Mof_O 	O 	0.28572	0.43692	0.06136	-0.415
Mof_O 	O 	0.2137	0.42481	0.06156	-0.423
Mof_O 	O 	0.86924	0.54965	0.06056	-0.412
Mof_O 	O 	0.79799	0.53852	0.06202	-0.422
Mof_O 	O 	0.81503	0.53204	0.22088	-0.406
Mof_O 	O 	0.89004	0.52757	0.28366	-0.405
Mof_O 	O 	0.16249	0.45936	0.62096	-0.393
Mof_O 	O 	0.24293	0.47247	0.69466	-0.402
Mof_O 	O 	0.38901	0.51301	0.62638	-0.402
Mof_O 	O 	0.39412	0.49607	0.69026	-0.402
Mof_O 	O 	0.76367	0.76717	0.21636	-0.409
Mof_O 	O 	0.8318	0.8416	0.2907	-0.403
Mof_O 	O 	0.77564	0.62444	0.06136	-0.416
Mof_O 	O 	0.84786	0.63675	0.06156	-0.424
Mof_O 	O 	0.19132	0.51091	0.06056	-0.411
Mof_O 	O 	0.26403	0.5235	0.06202	-0.422
Mof_O 	O 	0.40585	0.68884	0.22088	-0.406
Mof_O 	O 	0.39362	0.75609	0.28366	-0.405
Mof_O 	O 	0.45847	0.1616	0.62096	-0.393
Mof_O 	O 	0.45173	0.22219	0.69466	-0.402
Mof_O 	O 	0.23737	0.11337	0.62638	-0.401
Mof_O 	O 	0.29614	0.19419	0.69026	-0.402
Mof_O 	O 	0.44919	0.76367	0.21636	-0.409
Mof_O 	O 	0.4491	0.8318	0.2907	-0.402
Mof_O 	O 	0.43692	0.77564	0.06136	-0.416
Mof_O 	O 	0.42481	0.84786	0.06156	-0.424
Mof_O 	O 	0.54965	0.19132	0.06056	-0.411
Mof_O 	O 	0.53852	0.26403	0.06202	-0.422
Mof_O 	O 	0.53204	0.40585	0.22088	-0.406
Mof_O 	O 	0.52757	0.39362	0.28366	-0.405
Mof_O 	O 	0.45936	0.45847	0.62096	-0.394
Mof_O 	O 	0.47247	0.45173	0.69466	-0.402
Mof_O 	O 	0.51301	0.23737	0.62638	-0.402
Mof_O 	O 	0.49607	0.29614	0.69026	-0.402
Mof_O 	O 	0.76717	0.45269	0.21636	-0.409
Mof_O 	O 	0.8416	0.4589	0.2907	-0.403
Mof_O 	O 	0.62444	0.28572	0.06136	-0.415
Mof_O 	O 	0.63675	0.2137	0.06156	-0.423
Mof_O 	O 	0.51091	0.86924	0.06056	-0.412
Mof_O 	O 	0.5235	0.79799	0.06202	-0.422
Mof_O 	O 	0.68884	0.81503	0.22088	-0.406
Mof_O 	O 	0.75609	0.89004	0.28366	-0.406
Mof_O 	O 	0.1616	0.16249	0.62096	-0.393
Mof_O 	O 	0.22219	0.24293	0.69466	-0.402
Mof_O 	O 	0.11337	0.38901	0.62638	-0.401
Mof_O 	O 	0.19419	0.39412	0.69026	-0.402
_end
