data_functionalizedCrystal
_audit_creation_method	'EQeq! by Chris Wilmer'
_symmetry_space_group_name_H-M	'P1'
_symmetry_Int_Tables_number	1
_symmetry_cell_setting	triclinic
loop_
_symmetry_equiv_pos_as_xyz
  x,y,z
_cell_length_a	11.6012
_cell_length_b	11.6012
_cell_length_c	11.6012
_cell_angle_alpha	90
_cell_angle_beta	90
_cell_angle_gamma	90
loop_
_atom_site_label
_atom_site_type_symbol
_atom_site_fract_x
_atom_site_fract_y
_atom_site_fract_z
_atom_site_charge
Mof_N 	N 	0.1497	0.6431	0.3214	-0.278
Mof_C 	C 	0.0869	0.595	0.3788	-0.217
Mof_N 	N 	0.3503	0.3569	0.8214	-0.278
Mof_C 	C 	0.4131	0.405	0.8788	-0.217
Mof_N 	N 	0.8503	0.1431	0.1786	-0.277
Mof_C 	C 	0.9131	0.095	0.1212	-0.214
Mof_N 	N 	0.6497	0.8569	0.6786	-0.278
Mof_C 	C 	0.5869	0.905	0.6212	-0.219
Mof_N 	N 	0.3214	0.1497	0.6431	-0.277
Mof_C 	C 	0.3788	0.0869	0.595	-0.216
Mof_N 	N 	0.8214	0.3503	0.3569	-0.277
Mof_C 	C 	0.8788	0.4131	0.405	-0.217
Mof_N 	N 	0.1786	0.8503	0.1431	-0.277
Mof_C 	C 	0.1212	0.9131	0.095	-0.214
Mof_N 	N 	0.6786	0.6497	0.8569	-0.278
Mof_C 	C 	0.6212	0.5869	0.905	-0.219
Mof_N 	N 	0.6431	0.3214	0.1497	-0.277
Mof_C 	C 	0.595	0.3788	0.0869	-0.216
Mof_N 	N 	0.3569	0.8214	0.3503	-0.277
Mof_C 	C 	0.405	0.8788	0.4131	-0.217
Mof_N 	N 	0.1431	0.1786	0.8503	-0.277
Mof_C 	C 	0.095	0.1212	0.9131	-0.214
Mof_N 	N 	0.8569	0.6786	0.6497	-0.278
Mof_C 	C 	0.905	0.6212	0.5869	-0.219
Mof_C 	C 	0.4162	0.5838	0.0838	-0.219
Mof_Cu	Cu	0.5131	0.4869	0.9869	0.825
Mof_Zn	Zn	0.26113	0.73887	0.23887	1.155
Mof_N 	N 	0.3587	0.6413	0.1413	-0.277
Mof_C 	C 	0.0838	0.4162	0.5838	-0.219
Mof_Cu	Cu	0.9869	0.5131	0.4869	0.825
Mof_Zn	Zn	0.23887	0.26113	0.73887	1.155
Mof_N 	N 	0.1413	0.3587	0.6413	-0.277
Mof_C 	C 	0.5838	0.0838	0.4162	-0.219
Mof_Cu	Cu	0.4869	0.9869	0.5131	0.825
Mof_Zn	Zn	0.73887	0.23887	0.26113	1.155
Mof_N 	N 	0.6413	0.1413	0.3587	-0.277
Mof_C 	C 	0.9162	0.9162	0.9162	-0.226
Mof_Cu	Cu	0.0131	0.0131	0.0131	0.825
Mof_Zn	Zn	0.76113	0.76113	0.76113	1.154
Mof_N 	N 	0.8587	0.8587	0.8587	-0.277
_end
