data_functionalizedCrystal
_audit_creation_method	'EQeq! by Chris Wilmer'
_symmetry_space_group_name_H-M	'P1'
_symmetry_Int_Tables_number	1
_symmetry_cell_setting	triclinic
loop_
_symmetry_equiv_pos_as_xyz
  x,y,z
_cell_length_a	24.561
_cell_length_b	18.908
_cell_length_c	9.7049
_cell_angle_alpha	90
_cell_angle_beta	108.76
_cell_angle_gamma	90
loop_
_atom_site_label
_atom_site_type_symbol
_atom_site_fract_x
_atom_site_fract_y
_atom_site_fract_z
_atom_site_charge
Mof_Co	Co	0.00236	0.20504	0.50687	1.068
Mof_O 	O 	0.9475	0.02134	0.7776	-0.481
Mof_O 	O 	0.93092	0.96817	0.563	-0.38
Mof_O 	O 	0.93247	0.82356	0.5715	-0.424
Mof_O 	O 	0.94868	0.76934	0.7857	-0.477
Mof_O 	O 	0.6241	0.1599	0.9434	-0.301
Mof_O 	O 	0.56025	0.1163	0.7438	-0.441
Mof_O 	O 	0.56476	0.7442	0.9297	-0.448
Mof_O 	O 	0.55774	0.68023	0.7307	-0.545
Mof_O 	O 	0.9746	0.10361	0.5203	-0.453
Mof_C 	C 	0.877	0.9317	0.715	-0.095
Mof_C 	C 	0.8341	0.9686	0.748	0.073
Mof_H 	H 	0.8362	0.0177	0.7529	0.001
Mof_C 	C 	0.788	0.9354	0.7742	-0.062
Mof_C 	C 	0.7873	0.8602	0.779	-0.005
Mof_C 	C 	0.8327	0.8235	0.7539	-0.036
Mof_H 	H 	0.8339	0.7745	0.7629	0.059
Mof_C 	C 	0.8761	0.8575	0.7158	-0.041
Mof_C 	C 	0.9226	0.8146	0.6871	0.371
Mof_C 	C 	0.9222	0.9751	0.6805	0.408
Mof_C 	C 	0.7408	0.9822	0.7891	0.16
Mof_C 	C 	0.7547	0.0415	0.8729	-0.23
Mof_H 	H 	0.7931	0.052	0.9213	0.127
Mof_C 	C 	0.7126	0.086	0.8868	0.106
Mof_H 	H 	0.7225	0.1251	0.948	0.015
Mof_C 	C 	0.6554	0.0731	0.8105	-0.142
Mof_C 	C 	0.6416	0.0146	0.72	0.041
Mof_H 	H 	0.6035	0.0059	0.6658	0.017
Mof_C 	C 	0.6844	0.9689	0.7098	-0.136
Mof_H 	H 	0.6749	0.9295	0.6494	0.099
Mof_C 	C 	0.7389	0.82	0.8062	0.115
Mof_C 	C 	0.7167	0.8389	0.9163	-0.201
Mof_H 	H 	0.7351	0.8736	0.9832	0.124
Mof_C 	C 	0.6677	0.8069	0.927	0.188
Mof_H 	H 	0.6533	0.8203	0.0007	-0.044
Mof_C 	C 	0.6396	0.7544	0.8278	-0.203
Mof_C 	C 	0.6643	0.7321	0.7246	0.105
Mof_H 	H 	0.6478	0.695	0.6623	0.013
Mof_C 	C 	0.713	0.7648	0.7142	-0.163
Mof_H 	H 	0.7287	0.7496	0.6441	0.096
Mof_C 	C 	0.6103	0.1198	0.834	0.348
Mof_C 	C 	0.5843	0.7248	0.8318	0.405
Mof_Co	Co	0.50236	0.70504	0.50687	1.139
Mof_O 	O 	0.4475	0.52134	0.7776	-0.517
Mof_O 	O 	0.43092	0.46817	0.563	-0.426
Mof_O 	O 	0.43247	0.32356	0.5715	-0.459
Mof_O 	O 	0.44868	0.26934	0.7857	-0.543
Mof_O 	O 	0.1241	0.6599	0.9434	-0.309
Mof_O 	O 	0.06025	0.6163	0.7438	-0.476
Mof_O 	O 	0.06476	0.2442	0.9297	-0.495
Mof_O 	O 	0.05774	0.18023	0.7307	-0.578
Mof_O 	O 	0.4746	0.60361	0.5203	-0.55
Mof_C 	C 	0.377	0.4317	0.715	-0.059
Mof_C 	C 	0.3341	0.4686	0.748	-0.021
Mof_H 	H 	0.3362	0.5177	0.7529	0.055
Mof_C 	C 	0.288	0.4354	0.7742	-0.019
Mof_C 	C 	0.2873	0.3602	0.779	-0.031
Mof_C 	C 	0.3327	0.3235	0.7539	-0.008
Mof_H 	H 	0.3339	0.2745	0.7629	0.05
Mof_C 	C 	0.3761	0.3575	0.7158	-0.07
Mof_C 	C 	0.4226	0.3146	0.6871	0.382
Mof_C 	C 	0.4222	0.4751	0.6805	0.365
Mof_C 	C 	0.2408	0.4822	0.7891	0.114
Mof_C 	C 	0.2547	0.5415	0.8729	-0.174
Mof_H 	H 	0.2931	0.552	0.9213	0.114
Mof_C 	C 	0.2126	0.586	0.8868	0.094
Mof_H 	H 	0.2225	0.6251	0.948	0.021
Mof_C 	C 	0.1554	0.5731	0.8105	-0.156
Mof_C 	C 	0.1416	0.5146	0.72	0.095
Mof_H 	H 	0.1035	0.5059	0.6658	-0.009
Mof_C 	C 	0.1844	0.4689	0.7098	-0.177
Mof_H 	H 	0.1749	0.4295	0.6494	0.104
Mof_C 	C 	0.2389	0.32	0.8062	0.135
Mof_C 	C 	0.2167	0.3389	0.9163	-0.222
Mof_H 	H 	0.2351	0.3736	0.9832	0.129
Mof_C 	C 	0.1677	0.3069	0.927	0.207
Mof_H 	H 	0.1533	0.3203	0.0007	-0.059
Mof_C 	C 	0.1396	0.2544	0.8278	-0.224
Mof_C 	C 	0.1643	0.2321	0.7246	0.119
Mof_H 	H 	0.1478	0.195	0.6623	0.008
Mof_C 	C 	0.213	0.2648	0.7142	-0.18
Mof_H 	H 	0.2287	0.2496	0.6441	0.103
Mof_C 	C 	0.1103	0.6198	0.834	0.359
Mof_C 	C 	0.0843	0.2248	0.8318	0.415
Mof_Co	Co	0.99764	0.20504	0.99313	1.224
Mof_O 	O 	0.0525	0.02134	0.7224	-0.591
Mof_O 	O 	0.06908	0.96817	0.937	-0.427
Mof_O 	O 	0.06753	0.82356	0.9285	-0.461
Mof_O 	O 	0.05132	0.76934	0.7143	-0.594
Mof_O 	O 	0.3759	0.1599	0.5566	-0.316
Mof_O 	O 	0.43975	0.1163	0.7562	-0.438
Mof_O 	O 	0.43524	0.7442	0.5703	-0.455
Mof_O 	O 	0.44226	0.68023	0.7693	-0.536
Mof_O 	O 	0.0254	0.10361	0.9797	-0.596
Mof_C 	C 	0.123	0.9317	0.785	-0.115
Mof_C 	C 	0.1659	0.9686	0.752	0.097
Mof_H 	H 	0.1638	0.0177	0.7471	-0.007
Mof_C 	C 	0.212	0.9354	0.7258	-0.077
Mof_C 	C 	0.2127	0.8602	0.721	0.015
Mof_C 	C 	0.1673	0.8235	0.7461	-0.044
Mof_H 	H 	0.1661	0.7745	0.7371	0.06
Mof_C 	C 	0.1239	0.8575	0.7842	-0.042
Mof_C 	C 	0.0774	0.8146	0.8129	0.369
Mof_C 	C 	0.0778	0.9751	0.8195	0.421
Mof_C 	C 	0.2592	0.9822	0.7109	0.178
Mof_C 	C 	0.2453	0.0415	0.6271	-0.246
Mof_H 	H 	0.2069	0.052	0.5787	0.125
Mof_C 	C 	0.2874	0.086	0.6132	0.116
Mof_H 	H 	0.2775	0.1251	0.552	0.003
Mof_C 	C 	0.3446	0.0731	0.6895	-0.151
Mof_C 	C 	0.3584	0.0146	0.78	0.05
Mof_H 	H 	0.3965	0.0059	0.8342	0.02
Mof_C 	C 	0.3156	0.9689	0.7902	-0.144
Mof_H 	H 	0.3251	0.9295	0.8506	0.112
Mof_C 	C 	0.2611	0.82	0.6938	0.072
Mof_C 	C 	0.2833	0.8389	0.5837	-0.131
Mof_H 	H 	0.2649	0.8736	0.5168	0.089
Mof_C 	C 	0.3323	0.8069	0.573	0.07
Mof_H 	H 	0.3467	0.8203	0.4993	0.023
Mof_C 	C 	0.3604	0.7544	0.6722	-0.15
Mof_C 	C 	0.3357	0.7321	0.7754	0.06
Mof_H 	H 	0.3522	0.695	0.8377	0.036
Mof_C 	C 	0.287	0.7648	0.7858	-0.119
Mof_H 	H 	0.2713	0.7496	0.8559	0.089
Mof_C 	C 	0.3897	0.1198	0.666	0.351
Mof_C 	C 	0.4157	0.7248	0.6682	0.384
Mof_Co	Co	0.49764	0.70504	0.99313	1.153
Mof_O 	O 	0.5525	0.52134	0.7224	-0.524
Mof_O 	O 	0.56908	0.46817	0.937	-0.407
Mof_O 	O 	0.56753	0.32356	0.9285	-0.438
Mof_O 	O 	0.55132	0.26934	0.7143	-0.551
Mof_O 	O 	0.8759	0.6599	0.5566	-0.293
Mof_O 	O 	0.93975	0.6163	0.7562	-0.368
Mof_O 	O 	0.93524	0.2442	0.5703	-0.403
Mof_O 	O 	0.94226	0.18023	0.7693	-0.483
Mof_O 	O 	0.5254	0.60361	0.9797	-0.53
Mof_C 	C 	0.623	0.4317	0.785	-0.061
Mof_C 	C 	0.6659	0.4686	0.752	-0.02
Mof_H 	H 	0.6638	0.5177	0.7471	0.055
Mof_C 	C 	0.712	0.4354	0.7258	-0.02
Mof_C 	C 	0.7127	0.3602	0.721	-0.014
Mof_C 	C 	0.6673	0.3235	0.7461	-0.02
Mof_H 	H 	0.6661	0.2745	0.7371	0.052
Mof_C 	C 	0.6239	0.3575	0.7842	-0.065
Mof_C 	C 	0.5774	0.3146	0.8129	0.378
Mof_C 	C 	0.5778	0.4751	0.8195	0.364
Mof_C 	C 	0.7592	0.4822	0.7109	0.101
Mof_C 	C 	0.7453	0.5415	0.6271	-0.156
Mof_H 	H 	0.7069	0.552	0.5787	0.098
Mof_C 	C 	0.7874	0.586	0.6132	0.069
Mof_H 	H 	0.7775	0.6251	0.552	0.02
Mof_C 	C 	0.8446	0.5731	0.6895	-0.121
Mof_C 	C 	0.8584	0.5146	0.78	0.069
Mof_H 	H 	0.8965	0.5059	0.8342	0.045
Mof_C 	C 	0.8156	0.4689	0.7902	-0.147
Mof_H 	H 	0.8251	0.4295	0.8506	0.112
Mof_C 	C 	0.7611	0.32	0.6938	0.082
Mof_C 	C 	0.7833	0.3389	0.5837	-0.133
Mof_H 	H 	0.7649	0.3736	0.5168	0.086
Mof_C 	C 	0.8323	0.3069	0.573	0.069
Mof_H 	H 	0.8467	0.3203	0.4993	0.027
Mof_C 	C 	0.8604	0.2544	0.6722	-0.141
Mof_C 	C 	0.8357	0.2321	0.7754	0.059
Mof_H 	H 	0.8522	0.195	0.8377	0.036
Mof_C 	C 	0.787	0.2648	0.7858	-0.123
Mof_H 	H 	0.7713	0.2496	0.8559	0.09
Mof_C 	C 	0.8897	0.6198	0.666	0.336
Mof_C 	C 	0.9157	0.2248	0.6682	0.373
Mof_Co	Co	0.99764	0.79496	0.49313	1.212
Mof_O 	O 	0.0525	0.97866	0.2224	-0.517
Mof_O 	O 	0.06908	0.03183	0.437	-0.441
Mof_O 	O 	0.06753	0.17644	0.4285	-0.487
Mof_O 	O 	0.05132	0.23066	0.2143	-0.612
Mof_O 	O 	0.3759	0.8401	0.0566	-0.328
Mof_O 	O 	0.43975	0.8837	0.2562	-0.437
Mof_O 	O 	0.43524	0.2558	0.0703	-0.469
Mof_O 	O 	0.44226	0.31977	0.2693	-0.538
Mof_O 	O 	0.0254	0.89639	0.4797	-0.604
Mof_C 	C 	0.123	0.0683	0.285	-0.023
Mof_C 	C 	0.1659	0.0314	0.252	-0.13
Mof_H 	H 	0.1638	0.9823	0.2471	0.111
Mof_C 	C 	0.212	0.0646	0.2258	0.015
Mof_C 	C 	0.2127	0.1398	0.221	-0.031
Mof_C 	C 	0.1673	0.1765	0.2461	-0.005
Mof_H 	H 	0.1661	0.2255	0.2371	0.042
Mof_C 	C 	0.1239	0.1425	0.2842	-0.104
Mof_C 	C 	0.0774	0.1854	0.3129	0.39
Mof_C 	C 	0.0778	0.0249	0.3195	0.3
Mof_C 	C 	0.2592	0.0178	0.2109	0.047
Mof_C 	C 	0.2453	0.9585	0.1271	-0.1
Mof_H 	H 	0.2069	0.948	0.0787	0.074
Mof_C 	C 	0.2874	0.914	0.1132	0.056
Mof_H 	H 	0.2775	0.8749	0.052	0.014
Mof_C 	C 	0.3446	0.9269	0.1895	-0.148
Mof_C 	C 	0.3584	0.9854	0.28	0.127
Mof_H 	H 	0.3965	0.9941	0.3342	0.008
Mof_C 	C 	0.3156	0.0311	0.2902	-0.197
Mof_H 	H 	0.3251	0.0705	0.3506	0.11
Mof_C 	C 	0.2611	0.18	0.1938	0.05
Mof_C 	C 	0.2833	0.1611	0.0837	-0.074
Mof_H 	H 	0.2649	0.1264	0.0168	0.048
Mof_C 	C 	0.3323	0.1931	0.073	-0.052
Mof_H 	H 	0.3467	0.1797	0.9993	0.089
Mof_C 	C 	0.3604	0.2456	0.1722	-0.11
Mof_C 	C 	0.3357	0.2679	0.2754	0.021
Mof_H 	H 	0.3522	0.305	0.3377	0.039
Mof_C 	C 	0.287	0.2352	0.2858	-0.099
Mof_H 	H 	0.2713	0.2504	0.3559	0.073
Mof_C 	C 	0.3897	0.8802	0.166	0.354
Mof_C 	C 	0.4157	0.2752	0.1682	0.363
Mof_Co	Co	0.49764	0.29496	0.49313	1.138
Mof_O 	O 	0.5525	0.47866	0.2224	-0.532
Mof_O 	O 	0.56908	0.53183	0.437	-0.427
Mof_O 	O 	0.56753	0.67644	0.4285	-0.457
Mof_O 	O 	0.55132	0.73066	0.2143	-0.562
Mof_O 	O 	0.8759	0.3401	0.0566	-0.308
Mof_O 	O 	0.93975	0.3837	0.2562	-0.374
Mof_O 	O 	0.93524	0.7558	0.0703	-0.412
Mof_O 	O 	0.94226	0.81977	0.2693	-0.483
Mof_O 	O 	0.5254	0.39639	0.4797	-0.551
Mof_C 	C 	0.623	0.5683	0.285	-0.073
Mof_C 	C 	0.6659	0.5314	0.252	-0.019
Mof_H 	H 	0.6638	0.4823	0.2471	0.048
Mof_C 	C 	0.712	0.5646	0.2258	-0.034
Mof_C 	C 	0.7127	0.6398	0.221	-0.004
Mof_C 	C 	0.6673	0.6765	0.2461	-0.034
Mof_H 	H 	0.6661	0.7255	0.2371	0.052
Mof_C 	C 	0.6239	0.6425	0.2842	-0.069
Mof_C 	C 	0.5774	0.6854	0.3129	0.379
Mof_C 	C 	0.5778	0.5249	0.3195	0.367
Mof_C 	C 	0.7592	0.5178	0.2109	0.101
Mof_C 	C 	0.7453	0.4585	0.1271	-0.163
Mof_H 	H 	0.7069	0.448	0.0787	0.09
Mof_C 	C 	0.7874	0.414	0.1132	0.069
Mof_H 	H 	0.7775	0.3749	0.052	0.009
Mof_C 	C 	0.8446	0.4269	0.1895	-0.13
Mof_C 	C 	0.8584	0.4854	0.28	0.069
Mof_H 	H 	0.8965	0.4941	0.3342	0.038
Mof_C 	C 	0.8156	0.5311	0.2902	-0.154
Mof_H 	H 	0.8251	0.5705	0.3506	0.105
Mof_C 	C 	0.7611	0.68	0.1938	0.04
Mof_C 	C 	0.7833	0.6611	0.0837	-0.071
Mof_H 	H 	0.7649	0.6264	0.0168	0.053
Mof_C 	C 	0.8323	0.6931	0.073	-0.039
Mof_H 	H 	0.8467	0.6797	0.9993	0.087
Mof_C 	C 	0.8604	0.7456	0.1722	-0.099
Mof_C 	C 	0.8357	0.7679	0.2754	0.017
Mof_H 	H 	0.8522	0.805	0.3377	0.042
Mof_C 	C 	0.787	0.7352	0.2858	-0.09
Mof_H 	H 	0.7713	0.7504	0.3559	0.07
Mof_C 	C 	0.8897	0.3802	0.166	0.338
Mof_C 	C 	0.9157	0.7752	0.1682	0.355
Mof_Co	Co	0.00236	0.79496	0.00687	1.055
Mof_O 	O 	0.9475	0.97866	0.2776	-0.417
Mof_O 	O 	0.93092	0.03183	0.063	-0.385
Mof_O 	O 	0.93247	0.17644	0.0715	-0.443
Mof_O 	O 	0.94868	0.23066	0.2857	-0.487
Mof_O 	O 	0.6241	0.8401	0.4434	-0.312
Mof_O 	O 	0.56025	0.8837	0.2438	-0.44
Mof_O 	O 	0.56476	0.2558	0.4297	-0.461
Mof_O 	O 	0.55774	0.31977	0.2307	-0.546
Mof_O 	O 	0.9746	0.89639	0.0203	-0.454
Mof_C 	C 	0.877	0.0683	0.215	-0.013
Mof_C 	C 	0.8341	0.0314	0.248	-0.133
Mof_H 	H 	0.8362	0.9823	0.2529	0.108
Mof_C 	C 	0.788	0.0646	0.2742	0.02
Mof_C 	C 	0.7873	0.1398	0.279	-0.047
Mof_C 	C 	0.8327	0.1765	0.2539	-0.001
Mof_H 	H 	0.8339	0.2255	0.2629	0.043
Mof_C 	C 	0.8761	0.1425	0.2158	-0.095
Mof_C 	C 	0.9226	0.1854	0.1871	0.39
Mof_C 	C 	0.9222	0.0249	0.1805	0.3
Mof_C 	C 	0.7408	0.0178	0.2891	0.044
Mof_C 	C 	0.7547	0.9585	0.3729	-0.099
Mof_H 	H 	0.7931	0.948	0.4213	0.081
Mof_C 	C 	0.7126	0.914	0.3868	0.054
Mof_H 	H 	0.7225	0.8749	0.448	0.024
Mof_C 	C 	0.6554	0.9269	0.3105	-0.142
Mof_C 	C 	0.6416	0.9854	0.22	0.119
Mof_H 	H 	0.6035	0.9941	0.1658	0.005
Mof_C 	C 	0.6844	0.0311	0.2098	-0.193
Mof_H 	H 	0.6749	0.0705	0.1494	0.099
Mof_C 	C 	0.7389	0.18	0.3062	0.096
Mof_C 	C 	0.7167	0.1611	0.4163	-0.151
Mof_H 	H 	0.7351	0.1264	0.4832	0.088
Mof_C 	C 	0.6677	0.1931	0.427	0.079
Mof_H 	H 	0.6533	0.1797	0.5007	0.014
Mof_C 	C 	0.6396	0.2456	0.3278	-0.168
Mof_C 	C 	0.6643	0.2679	0.2246	0.07
Mof_H 	H 	0.6478	0.305	0.1623	0.015
Mof_C 	C 	0.713	0.2352	0.2142	-0.146
Mof_H 	H 	0.7287	0.2504	0.1441	0.082
Mof_C 	C 	0.6103	0.8802	0.334	0.352
Mof_C 	C 	0.5843	0.2752	0.3318	0.386
Mof_Co	Co	0.50236	0.29496	0.00687	1.124
Mof_O 	O 	0.4475	0.47866	0.2776	-0.529
Mof_O 	O 	0.43092	0.53183	0.063	-0.442
Mof_O 	O 	0.43247	0.67644	0.0715	-0.478
Mof_O 	O 	0.44868	0.73066	0.2857	-0.554
Mof_O 	O 	0.1241	0.3401	0.4434	-0.326
Mof_O 	O 	0.06025	0.3837	0.2438	-0.486
Mof_O 	O 	0.06476	0.7558	0.4297	-0.507
Mof_O 	O 	0.05774	0.81977	0.2307	-0.578
Mof_O 	O 	0.4746	0.39639	0.0203	-0.566
Mof_C 	C 	0.377	0.5683	0.215	-0.073
Mof_C 	C 	0.3341	0.5314	0.248	-0.02
Mof_H 	H 	0.3362	0.4823	0.2529	0.046
Mof_C 	C 	0.288	0.5646	0.2742	-0.035
Mof_C 	C 	0.2873	0.6398	0.279	-0.019
Mof_C 	C 	0.3327	0.6765	0.2539	-0.025
Mof_H 	H 	0.3339	0.7255	0.2629	0.05
Mof_C 	C 	0.3761	0.6425	0.2158	-0.074
Mof_C 	C 	0.4226	0.6854	0.1871	0.383
Mof_C 	C 	0.4222	0.5249	0.1805	0.368
Mof_C 	C 	0.2408	0.5178	0.2891	0.115
Mof_C 	C 	0.2547	0.4585	0.3729	-0.183
Mof_H 	H 	0.2931	0.448	0.4213	0.106
Mof_C 	C 	0.2126	0.414	0.3868	0.096
Mof_H 	H 	0.2225	0.3749	0.448	0.009
Mof_C 	C 	0.1554	0.4269	0.3105	-0.167
Mof_C 	C 	0.1416	0.4854	0.22	0.095
Mof_H 	H 	0.1035	0.4941	0.1658	-0.018
Mof_C 	C 	0.1844	0.5311	0.2098	-0.185
Mof_H 	H 	0.1749	0.5705	0.1494	0.097
Mof_C 	C 	0.2389	0.68	0.3062	0.085
Mof_C 	C 	0.2167	0.6611	0.4163	-0.147
Mof_H 	H 	0.2351	0.6264	0.4832	0.09
Mof_C 	C 	0.1677	0.6931	0.427	0.078
Mof_H 	H 	0.1533	0.6797	0.5007	0.012
Mof_C 	C 	0.1396	0.7456	0.3278	-0.174
Mof_C 	C 	0.1643	0.7679	0.2246	0.069
Mof_H 	H 	0.1478	0.805	0.1623	0.015
Mof_C 	C 	0.213	0.7352	0.2142	-0.141
Mof_H 	H 	0.2287	0.7504	0.1441	0.08
Mof_C 	C 	0.1103	0.3802	0.334	0.362
Mof_C 	C 	0.0843	0.7752	0.3318	0.392
Mof_Co	Co	-0	0	-0	1.083
Mof_Co	Co	0.5	0.5	-0	1.163
Mof_Co	Co	1.332e-17	2.95764e-33	0.5	1.1
Mof_Co	Co	0.5	0.5	0.5	1.179
Mof_Co	Co	1.46849e-33	0.10319	0.75	1.093
Mof_Co	Co	0.5	0.60319	0.75	1.157
Mof_Co	Co	6.66002e-18	0.89681	0.25	1.093
Mof_Co	Co	0.5	0.39681	0.25	1.156
Mof_Co	Co	6.66002e-18	0.31233	0.25	1.056
Mof_Co	Co	0.5	0.81233	0.25	1.122
Mof_Co	Co	1.332e-17	0.68767	0.75	1.062
Mof_Co	Co	0.5	0.18767	0.75	1.124
_end
