data_functionalizedCrystal
_audit_creation_method	'EQeq! by Chris Wilmer'
_symmetry_space_group_name_H-M	'P1'
_symmetry_Int_Tables_number	1
_symmetry_cell_setting	triclinic
loop_
_symmetry_equiv_pos_as_xyz
  x,y,z
_cell_length_a	22.851
_cell_length_b	22.851
_cell_length_c	22.851
_cell_angle_alpha	109.471
_cell_angle_beta	109.471
_cell_angle_gamma	109.471
loop_
_atom_site_label
_atom_site_type_symbol
_atom_site_fract_x
_atom_site_fract_y
_atom_site_fract_z
_atom_site_charge
Mof_U 	U 	0.27568	0.08575	0.66695	-0.007
Mof_U 	U 	0.4188	0.60873	0.33305	0
Mof_U 	U 	0.5812	0.91425	0.18993	0.005
Mof_U 	U 	0.72432	0.39127	0.81007	0.009
Mof_U 	U 	0.18993	0.5812	0.91425	0.005
Mof_U 	U 	0.81007	0.72432	0.39127	0.009
Mof_U 	U 	0.66695	0.27568	0.08575	-0.007
Mof_U 	U 	0.33305	0.4188	0.60873	0
Mof_U 	U 	0.60873	0.33305	0.4188	0
Mof_U 	U 	0.08575	0.66695	0.27568	-0.007
Mof_U 	U 	0.39127	0.81007	0.72432	0.009
Mof_U 	U 	0.91425	0.18993	0.5812	0.005
Mof_U 	U 	0.72432	0.91425	0.33305	0.011
Mof_U 	U 	0.5812	0.39127	0.66695	0.004
Mof_U 	U 	0.4188	0.08575	0.81007	0.001
Mof_U 	U 	0.27568	0.60873	0.18993	-0.004
Mof_U 	U 	0.81007	0.4188	0.08575	0.001
Mof_U 	U 	0.18993	0.27568	0.60873	-0.004
Mof_U 	U 	0.33305	0.72432	0.91425	0.012
Mof_U 	U 	0.66695	0.5812	0.39127	0.004
Mof_U 	U 	0.39127	0.66695	0.5812	0.004
Mof_U 	U 	0.91425	0.33305	0.72432	0.012
Mof_U 	U 	0.60873	0.18993	0.27568	-0.004
Mof_U 	U 	0.08575	0.81007	0.4188	0.001
Mof_U 	U 	0.3647	0.06958	0.43428	-0.049
Mof_U 	U 	0.6353	0.93042	0.56572	0.001
Mof_U 	U 	0.3647	0.93043	0.29512	-0.005
Mof_U 	U 	0.6353	0.06957	0.70488	-0.041
Mof_U 	U 	0.29512	0.3647	0.93042	-0.005
Mof_U 	U 	0.70488	0.6353	0.06958	-0.041
Mof_U 	U 	0.43427	0.36469	0.06957	-0.049
Mof_U 	U 	0.56573	0.63531	0.93043	0.001
Mof_U 	U 	0.93042	0.56572	0.6353	0.001
Mof_U 	U 	0.06958	0.43428	0.3647	-0.049
Mof_U 	U 	0.06958	0.70488	0.63531	-0.041
Mof_U 	U 	0.93042	0.29512	0.36469	-0.005
Mof_U 	U 	0.21881	0.86837	0.35044	0.021
Mof_U 	U 	0.51793	0.86837	0.64956	0.028
Mof_U 	U 	0.48207	0.13163	0.35044	-0.003
Mof_U 	U 	0.78119	0.13163	0.64956	0.006
Mof_U 	U 	0.35044	0.48207	0.13163	-0.003
Mof_U 	U 	0.64956	0.78119	0.13163	0.006
Mof_U 	U 	0.35044	0.21881	0.86837	0.021
Mof_U 	U 	0.64956	0.51793	0.86837	0.028
Mof_U 	U 	0.86837	0.64956	0.51793	0.028
Mof_U 	U 	0.86837	0.35044	0.21881	0.021
Mof_U 	U 	0.13163	0.64956	0.78119	0.006
Mof_U 	U 	0.13163	0.35044	0.48207	-0.003
Mof_Co	Co	0.35968	0.85968	0.5	1.091
Mof_Co	Co	0.64032	0.14032	0.5	1.068
Mof_Co	Co	0.5	0.64032	0.14032	1.068
Mof_Co	Co	0.5	0.35968	0.85968	1.091
Mof_Co	Co	0.85968	0.5	0.35968	1.091
Mof_Co	Co	0.14032	0.5	0.64032	1.068
Mof_Co	Co	2.47539e-17	0	0.37442	1.008
Mof_Co	Co	0.62558	0.62558	0.62558	1.085
Mof_Co	Co	0.37442	0	-0	1.008
Mof_Co	Co	-0	0.37442	-0	1.008
Mof_Co	Co	6.18846e-17	0	0.62558	1.015
Mof_Co	Co	0.37442	0.37442	0.37442	1.069
Mof_Co	Co	0.62558	0	-0	1.015
Mof_Co	Co	-0	0.62558	-0	1.015
Mof_Co	Co	-0	0	0.5	1.126
Mof_Co	Co	0.5	0.5	0.5	1.195
Mof_Co	Co	0.5	0	-0	1.126
Mof_Co	Co	-0	0.5	-0	1.126
Mof_P 	P 	0.22419	0.99206	0.48101	0.623
Mof_P 	P 	0.51105	0.74318	0.51899	0.458
Mof_P 	P 	0.48895	0.00794	0.23213	0.285
Mof_P 	P 	0.77581	0.25682	0.76787	0.457
Mof_P 	P 	0.23213	0.48895	0.00794	0.285
Mof_P 	P 	0.76787	0.77581	0.25682	0.457
Mof_P 	P 	0.48101	0.22419	0.99206	0.623
Mof_P 	P 	0.51899	0.51105	0.74318	0.458
Mof_P 	P 	0.74318	0.51899	0.51105	0.458
Mof_P 	P 	0.99206	0.48101	0.22419	0.623
Mof_P 	P 	0.25682	0.76787	0.77581	0.457
Mof_P 	P 	0.00794	0.23213	0.48895	0.285
Mof_P 	P 	0.77581	0.00794	0.51899	0.294
Mof_P 	P 	0.48895	0.25682	0.48101	0.453
Mof_P 	P 	0.51105	0.99206	0.76787	0.62
Mof_P 	P 	0.22419	0.74318	0.23213	0.454
Mof_P 	P 	0.76787	0.51105	0.99206	0.62
Mof_P 	P 	0.23213	0.22419	0.74318	0.454
Mof_P 	P 	0.51899	0.77581	0.00794	0.294
Mof_P 	P 	0.48101	0.48895	0.25682	0.453
Mof_P 	P 	0.25682	0.48101	0.48895	0.453
Mof_P 	P 	0.00794	0.51899	0.77581	0.294
Mof_P 	P 	0.74318	0.23213	0.22419	0.454
Mof_P 	P 	0.99206	0.76787	0.51105	0.62
Mof_H 	H 	0.1642	0.0402	0.4274	0.154
Mof_H 	H 	0.2329	0.1017	0.501	0.22
Mof_H 	H 	0.6128	0.7368	0.5726	0.167
Mof_H 	H 	0.6007	0.7319	0.499	0.207
Mof_H 	H 	0.3872	0.9598	0.124	0.136
Mof_H 	H 	0.3993	0.8983	0.1312	0.162
Mof_H 	H 	0.8358	0.2632	0.876	0.174
Mof_H 	H 	0.7671	0.2681	0.8688	0.213
Mof_H 	H 	0.124	0.3872	0.9598	0.136
Mof_H 	H 	0.1312	0.3993	0.8983	0.162
Mof_H 	H 	0.876	0.8358	0.2632	0.174
Mof_H 	H 	0.8688	0.7671	0.2681	0.213
Mof_H 	H 	0.4274	0.1642	0.0402	0.154
Mof_H 	H 	0.501	0.2329	0.1017	0.22
Mof_H 	H 	0.5726	0.6128	0.7368	0.167
Mof_H 	H 	0.499	0.6007	0.7319	0.207
Mof_H 	H 	0.7368	0.5726	0.6128	0.167
Mof_H 	H 	0.7319	0.499	0.6007	0.207
Mof_H 	H 	0.0402	0.4274	0.1642	0.154
Mof_H 	H 	0.1017	0.501	0.2329	0.22
Mof_H 	H 	0.2632	0.876	0.8358	0.174
Mof_H 	H 	0.2681	0.8688	0.7671	0.213
Mof_H 	H 	0.9598	0.124	0.3872	0.136
Mof_H 	H 	0.8983	0.1312	0.3993	0.162
Mof_H 	H 	0.8358	0.9598	0.5726	0.161
Mof_H 	H 	0.7671	0.8983	0.499	0.181
Mof_H 	H 	0.3872	0.2632	0.4274	0.144
Mof_H 	H 	0.3993	0.2681	0.501	0.194
Mof_H 	H 	0.6128	0.0402	0.876	0.181
Mof_H 	H 	0.6007	0.1017	0.8688	0.238
Mof_H 	H 	0.1642	0.7368	0.124	0.143
Mof_H 	H 	0.2329	0.7319	0.1312	0.189
Mof_H 	H 	0.876	0.6128	0.0402	0.181
Mof_H 	H 	0.8688	0.6007	0.1017	0.238
Mof_H 	H 	0.124	0.1642	0.7368	0.143
Mof_H 	H 	0.1312	0.2329	0.7319	0.189
Mof_H 	H 	0.5726	0.8358	0.9598	0.161
Mof_H 	H 	0.499	0.7671	0.8983	0.181
Mof_H 	H 	0.4274	0.3872	0.2632	0.144
Mof_H 	H 	0.501	0.3993	0.2681	0.194
Mof_H 	H 	0.2632	0.4274	0.3872	0.144
Mof_H 	H 	0.2681	0.501	0.3993	0.194
Mof_H 	H 	0.9598	0.5726	0.8358	0.161
Mof_H 	H 	0.8983	0.499	0.7671	0.181
Mof_H 	H 	0.7368	0.124	0.1642	0.143
Mof_H 	H 	0.7319	0.1312	0.2329	0.189
Mof_H 	H 	0.0402	0.876	0.6128	0.181
Mof_H 	H 	0.1017	0.8688	0.6007	0.238
Mof_C 	C 	0.19231	0.05395	0.47704	-0.596
Mof_C 	C 	0.14675	0.05449	0.51244	0.514
Mof_C 	C 	0.57691	0.71527	0.52296	-0.506
Mof_C 	C 	0.54205	0.63431	0.48756	0.501
Mof_C 	C 	0.42309	0.94605	0.13836	-0.391
Mof_C 	C 	0.45795	0.94551	0.09226	0.467
Mof_C 	C 	0.80769	0.28473	0.86164	-0.498
Mof_C 	C 	0.85325	0.36569	0.90774	0.49
Mof_C 	C 	0.13836	0.42309	0.94605	-0.391
Mof_C 	C 	0.09226	0.45795	0.94551	0.467
Mof_C 	C 	0.86164	0.80769	0.28473	-0.498
Mof_C 	C 	0.90774	0.85325	0.36569	0.49
Mof_C 	C 	0.47704	0.19231	0.05395	-0.596
Mof_C 	C 	0.51244	0.14675	0.05449	0.514
Mof_C 	C 	0.52296	0.57691	0.71527	-0.506
Mof_C 	C 	0.48756	0.54205	0.63431	0.501
Mof_C 	C 	0.71527	0.52296	0.57691	-0.506
Mof_C 	C 	0.63431	0.48756	0.54205	0.501
Mof_C 	C 	0.05395	0.47704	0.19231	-0.596
Mof_C 	C 	0.05449	0.51244	0.14675	0.514
Mof_C 	C 	0.28473	0.86164	0.80769	-0.498
Mof_C 	C 	0.36569	0.90774	0.85325	0.49
Mof_C 	C 	0.94605	0.13836	0.42309	-0.391
Mof_C 	C 	0.94551	0.09226	0.45795	0.467
Mof_C 	C 	0.80769	0.94605	0.52296	-0.402
Mof_C 	C 	0.85325	0.94551	0.48756	0.47
Mof_C 	C 	0.42309	0.28473	0.47704	-0.493
Mof_C 	C 	0.45795	0.36569	0.51244	0.493
Mof_C 	C 	0.57691	0.05395	0.86164	-0.599
Mof_C 	C 	0.54205	0.05449	0.90774	0.516
Mof_C 	C 	0.19231	0.71527	0.13836	-0.496
Mof_C 	C 	0.14675	0.63431	0.09226	0.494
Mof_C 	C 	0.86164	0.57691	0.05395	-0.599
Mof_C 	C 	0.90774	0.54205	0.05449	0.516
Mof_C 	C 	0.13836	0.19231	0.71527	-0.496
Mof_C 	C 	0.09226	0.14675	0.63431	0.494
Mof_C 	C 	0.52296	0.80769	0.94605	-0.402
Mof_C 	C 	0.48756	0.85325	0.94551	0.47
Mof_C 	C 	0.47704	0.42309	0.28473	-0.493
Mof_C 	C 	0.51244	0.45795	0.36569	0.493
Mof_C 	C 	0.28473	0.47704	0.42309	-0.493
Mof_C 	C 	0.36569	0.51244	0.45795	0.493
Mof_C 	C 	0.94605	0.52296	0.80769	-0.402
Mof_C 	C 	0.94551	0.48756	0.85325	0.47
Mof_C 	C 	0.71527	0.13836	0.19231	-0.496
Mof_C 	C 	0.63431	0.09226	0.14675	0.494
Mof_C 	C 	0.05395	0.86164	0.57691	-0.599
Mof_C 	C 	0.05449	0.90774	0.54205	0.516
Mof_O 	O 	0.25362	0.00538	0.55628	-0.265
Mof_O 	O 	0.16244	0.91542	0.42492	-0.189
Mof_O 	O 	0.27788	0.00029	0.45443	-0.281
Mof_O 	O 	0.17569	0.07708	0.57841	-0.289
Mof_O 	O 	0.0811	0.03178	0.4741	-0.62
Mof_O 	O 	0.4491	0.69734	0.44372	-0.187
Mof_O 	O 	0.4905	0.73752	0.57508	-0.18
Mof_O 	O 	0.54586	0.82345	0.54557	-0.186
Mof_O 	O 	0.49867	0.59728	0.42159	-0.27
Mof_O 	O 	0.55768	0.607	0.5259	-0.57
Mof_O 	O 	0.5509	0.99462	0.24824	-0.109
Mof_O 	O 	0.5095	0.08458	0.24702	-0.186
Mof_O 	O 	0.45414	0.99971	0.27759	-0.105
Mof_O 	O 	0.50133	0.92292	0.09861	-0.262
Mof_O 	O 	0.44232	0.96822	0.04932	-0.539
Mof_O 	O 	0.74638	0.30266	0.75176	-0.187
Mof_O 	O 	0.83756	0.26248	0.75298	-0.175
Mof_O 	O 	0.72212	0.17655	0.72241	-0.191
Mof_O 	O 	0.82431	0.40272	0.90139	-0.241
Mof_O 	O 	0.9189	0.393	0.95068	-0.487
Mof_O 	O 	0.24824	0.5509	0.99462	-0.109
Mof_O 	O 	0.24702	0.5095	0.08458	-0.186
Mof_O 	O 	0.27759	0.45414	0.99971	-0.105
Mof_O 	O 	0.09861	0.50133	0.92292	-0.262
Mof_O 	O 	0.04932	0.44232	0.96822	-0.539
Mof_O 	O 	0.75176	0.74638	0.30266	-0.187
Mof_O 	O 	0.75298	0.83756	0.26248	-0.175
Mof_O 	O 	0.72241	0.72212	0.17655	-0.191
Mof_O 	O 	0.90139	0.82431	0.40272	-0.241
Mof_O 	O 	0.95068	0.9189	0.393	-0.487
Mof_O 	O 	0.55628	0.25362	0.00538	-0.265
Mof_O 	O 	0.42492	0.16244	0.91542	-0.189
Mof_O 	O 	0.45443	0.27788	0.00029	-0.281
Mof_O 	O 	0.57841	0.17569	0.07708	-0.289
Mof_O 	O 	0.4741	0.0811	0.03178	-0.62
Mof_O 	O 	0.44372	0.4491	0.69734	-0.187
Mof_O 	O 	0.57508	0.4905	0.73752	-0.18
Mof_O 	O 	0.54557	0.54586	0.82345	-0.186
Mof_O 	O 	0.42159	0.49867	0.59728	-0.27
Mof_O 	O 	0.5259	0.55768	0.607	-0.57
Mof_O 	O 	0.69734	0.44372	0.4491	-0.187
Mof_O 	O 	0.73752	0.57508	0.4905	-0.18
Mof_O 	O 	0.82345	0.54557	0.54586	-0.186
Mof_O 	O 	0.59728	0.42159	0.49867	-0.27
Mof_O 	O 	0.607	0.5259	0.55768	-0.57
Mof_O 	O 	0.00538	0.55628	0.25362	-0.265
Mof_O 	O 	0.91542	0.42492	0.16244	-0.189
Mof_O 	O 	0.00029	0.45443	0.27788	-0.281
Mof_O 	O 	0.07708	0.57841	0.17569	-0.289
Mof_O 	O 	0.03178	0.4741	0.0811	-0.62
Mof_O 	O 	0.30266	0.75176	0.74638	-0.187
Mof_O 	O 	0.26248	0.75298	0.83756	-0.175
Mof_O 	O 	0.17655	0.72241	0.72212	-0.191
Mof_O 	O 	0.40272	0.90139	0.82431	-0.241
Mof_O 	O 	0.393	0.95068	0.9189	-0.487
Mof_O 	O 	0.99462	0.24824	0.5509	-0.109
Mof_O 	O 	0.08458	0.24702	0.5095	-0.186
Mof_O 	O 	0.99971	0.27759	0.45414	-0.105
Mof_O 	O 	0.92292	0.09861	0.50133	-0.262
Mof_O 	O 	0.96822	0.04932	0.44232	-0.539
Mof_O 	O 	0.74638	0.99462	0.44372	-0.112
Mof_O 	O 	0.83756	0.08458	0.57508	-0.175
Mof_O 	O 	0.72212	0.99971	0.54557	-0.104
Mof_O 	O 	0.82431	0.92292	0.42159	-0.241
Mof_O 	O 	0.9189	0.96822	0.5259	-0.479
Mof_O 	O 	0.5509	0.30266	0.55628	-0.187
Mof_O 	O 	0.5095	0.26248	0.42492	-0.187
Mof_O 	O 	0.45414	0.17655	0.45443	-0.197
Mof_O 	O 	0.50133	0.40272	0.57841	-0.267
Mof_O 	O 	0.44232	0.393	0.4741	-0.574
Mof_O 	O 	0.4491	0.00538	0.75176	-0.262
Mof_O 	O 	0.4905	0.91542	0.75298	-0.179
Mof_O 	O 	0.54586	0.00029	0.72241	-0.273
Mof_O 	O 	0.49867	0.07708	0.90139	-0.265
Mof_O 	O 	0.55768	0.03178	0.95068	-0.554
Mof_O 	O 	0.25362	0.69734	0.24824	-0.188
Mof_O 	O 	0.16244	0.73752	0.24702	-0.189
Mof_O 	O 	0.27788	0.82345	0.27759	-0.19
Mof_O 	O 	0.17569	0.59728	0.09861	-0.289
Mof_O 	O 	0.0811	0.607	0.04932	-0.611
Mof_O 	O 	0.75176	0.4491	0.00538	-0.262
Mof_O 	O 	0.75298	0.4905	0.91542	-0.179
Mof_O 	O 	0.72241	0.54586	0.00029	-0.273
Mof_O 	O 	0.90139	0.49867	0.07708	-0.265
Mof_O 	O 	0.95068	0.55768	0.03178	-0.554
Mof_O 	O 	0.24824	0.25362	0.69734	-0.188
Mof_O 	O 	0.24702	0.16244	0.73752	-0.189
Mof_O 	O 	0.27759	0.27788	0.82345	-0.19
Mof_O 	O 	0.09861	0.17569	0.59728	-0.289
Mof_O 	O 	0.04932	0.0811	0.607	-0.611
Mof_O 	O 	0.44372	0.74638	0.99462	-0.112
Mof_O 	O 	0.57508	0.83756	0.08458	-0.175
Mof_O 	O 	0.54557	0.72212	0.99971	-0.104
Mof_O 	O 	0.42159	0.82431	0.92292	-0.241
Mof_O 	O 	0.5259	0.9189	0.96822	-0.479
Mof_O 	O 	0.55628	0.5509	0.30266	-0.187
Mof_O 	O 	0.42492	0.5095	0.26248	-0.187
Mof_O 	O 	0.45443	0.45414	0.17655	-0.197
Mof_O 	O 	0.57841	0.50133	0.40272	-0.267
Mof_O 	O 	0.4741	0.44232	0.393	-0.574
Mof_O 	O 	0.30266	0.55628	0.5509	-0.187
Mof_O 	O 	0.26248	0.42492	0.5095	-0.187
Mof_O 	O 	0.17655	0.45443	0.45414	-0.197
Mof_O 	O 	0.40272	0.57841	0.50133	-0.267
Mof_O 	O 	0.393	0.4741	0.44232	-0.574
Mof_O 	O 	0.99462	0.44372	0.74638	-0.112
Mof_O 	O 	0.08458	0.57508	0.83756	-0.175
Mof_O 	O 	0.99971	0.54557	0.72212	-0.104
Mof_O 	O 	0.92292	0.42159	0.82431	-0.241
Mof_O 	O 	0.96822	0.5259	0.9189	-0.479
Mof_O 	O 	0.69734	0.24824	0.25362	-0.188
Mof_O 	O 	0.73752	0.24702	0.16244	-0.189
Mof_O 	O 	0.82345	0.27759	0.27788	-0.19
Mof_O 	O 	0.59728	0.09861	0.17569	-0.289
Mof_O 	O 	0.607	0.04932	0.0811	-0.611
Mof_O 	O 	0.00538	0.75176	0.4491	-0.262
Mof_O 	O 	0.91542	0.75298	0.4905	-0.179
Mof_O 	O 	0.00029	0.72241	0.54586	-0.273
Mof_O 	O 	0.07708	0.90139	0.49867	-0.265
Mof_O 	O 	0.03178	0.95068	0.55768	-0.554
Mof_O 	O 	0.28239	0.86297	0.41942	-0.247
Mof_O 	O 	0.40122	0.04882	0.3524	-0.112
Mof_O 	O 	0.13282	0.78527	0.34755	-0.062
Mof_O 	O 	0.44355	0.86297	0.58058	-0.248
Mof_O 	O 	0.69642	0.04882	0.6476	-0.101
Mof_O 	O 	0.43772	0.78527	0.65245	-0.052
Mof_O 	O 	0.55645	0.13703	0.41942	-0.279
Mof_O 	O 	0.30358	0.95118	0.3524	-0.023
Mof_O 	O 	0.56228	0.21473	0.34755	-0.065
Mof_O 	O 	0.71761	0.13703	0.58058	-0.28
Mof_O 	O 	0.59878	0.95118	0.6476	-0.016
Mof_O 	O 	0.86718	0.21473	0.65245	-0.054
Mof_O 	O 	0.41942	0.55645	0.13703	-0.279
Mof_O 	O 	0.3524	0.30358	0.95118	-0.023
Mof_O 	O 	0.34755	0.56228	0.21473	-0.065
Mof_O 	O 	0.58058	0.71761	0.13703	-0.28
Mof_O 	O 	0.6476	0.59878	0.95118	-0.016
Mof_O 	O 	0.65245	0.86718	0.21473	-0.054
Mof_O 	O 	0.41942	0.28239	0.86297	-0.247
Mof_O 	O 	0.3524	0.40122	0.04882	-0.112
Mof_O 	O 	0.34755	0.13282	0.78527	-0.062
Mof_O 	O 	0.58058	0.44355	0.86297	-0.248
Mof_O 	O 	0.6476	0.69642	0.04882	-0.101
Mof_O 	O 	0.65245	0.43772	0.78527	-0.052
Mof_O 	O 	0.86297	0.58058	0.44355	-0.248
Mof_O 	O 	0.04882	0.6476	0.69642	-0.101
Mof_O 	O 	0.78527	0.65245	0.43772	-0.052
Mof_O 	O 	0.86297	0.41942	0.28239	-0.247
Mof_O 	O 	0.04882	0.3524	0.40122	-0.112
Mof_O 	O 	0.78527	0.34755	0.13282	-0.062
Mof_O 	O 	0.13703	0.58058	0.71761	-0.28
Mof_O 	O 	0.95118	0.6476	0.59878	-0.016
Mof_O 	O 	0.21473	0.65245	0.86718	-0.054
Mof_O 	O 	0.13703	0.41942	0.55645	-0.279
Mof_O 	O 	0.95118	0.3524	0.30358	-0.023
Mof_O 	O 	0.21473	0.34755	0.56228	-0.065
Mof_O 	O 	0.3604	0.0485	0.6881	-0.088
Mof_O 	O 	0.3604	0.6723	0.3119	-0.074
Mof_O 	O 	0.6396	0.9515	0.3119	-0.058
Mof_O 	O 	0.6396	0.3277	0.6881	-0.073
Mof_O 	O 	0.3119	0.6396	0.9515	-0.058
Mof_O 	O 	0.6881	0.6396	0.3277	-0.073
Mof_O 	O 	0.6881	0.3604	0.0485	-0.088
Mof_O 	O 	0.3119	0.3604	0.6723	-0.074
Mof_O 	O 	0.6723	0.3119	0.3604	-0.074
Mof_O 	O 	0.0485	0.6881	0.3604	-0.088
Mof_O 	O 	0.3277	0.6881	0.6396	-0.073
Mof_O 	O 	0.9515	0.3119	0.6396	-0.058
_end
