data_functionalizedCrystal
_audit_creation_method	'EQeq! by Chris Wilmer'
_symmetry_space_group_name_H-M	'P1'
_symmetry_Int_Tables_number	1
_symmetry_cell_setting	triclinic
loop_
_symmetry_equiv_pos_as_xyz
  x,y,z
_cell_length_a	11.931
_cell_length_b	12.485
_cell_length_c	12.549
_cell_angle_alpha	90
_cell_angle_beta	98.63
_cell_angle_gamma	90
loop_
_atom_site_label
_atom_site_type_symbol
_atom_site_fract_x
_atom_site_fract_y
_atom_site_fract_z
_atom_site_charge
Mof_C 	C 	0.5158	0.6608	0.5101	-0.025
Mof_C 	C 	0.6126	0.625	0.469	-0.19
Mof_H 	H 	0.6751	0.5987	0.5147	0.105
Mof_C 	C 	0.6127	0.6299	0.3589	0.254
Mof_C 	C 	0.5187	0.6664	0.2898	-0.317
Mof_H 	H 	0.5207	0.6714	0.2162	0.147
Mof_C 	C 	0.4224	0.6954	0.3312	0.255
Mof_C 	C 	0.4209	0.6966	0.4413	-0.185
Mof_H 	H 	0.3574	0.721	0.4688	0.108
Mof_C 	C 	0.514	0.6587	0.6283	0.467
Mof_C 	C 	0.7209	0.6195	0.214	0.034
Mof_H 	H 	0.6977	0.6935	0.1967	0.03
Mof_C 	C 	0.6434	0.5441	0.1388	0.481
Mof_C 	C 	0.8444	0.6072	0.2006	-0.445
Mof_H 	H 	0.8893	0.6584	0.2455	0.169
Mof_H 	H 	0.8527	0.6193	0.1267	0.152
Mof_H 	H 	0.8696	0.5361	0.2213	0.134
Mof_C 	C 	0.3097	0.7053	0.1565	0.036
Mof_H 	H 	0.3417	0.6345	0.1458	0.024
Mof_C 	C 	0.3691	0.787	0.0956	0.488
Mof_C 	C 	0.1815	0.7011	0.1184	-0.456
Mof_H 	H 	0.1486	0.6454	0.1564	0.174
Mof_H 	H 	0.1675	0.6865	0.0424	0.145
Mof_H 	H 	0.1482	0.7686	0.1324	0.167
Mof_C 	C 	0.9785	0.4529	0.9092	0.078
Mof_C 	C 	0.0365	0.4508	0.0121	-0.246
Mof_H 	H 	0.999	0.4651	0.0704	0.114
Mof_C 	C 	0.1516	0.4272	0.0287	0.29
Mof_C 	C 	0.2093	0.4092	0.9424	-0.333
Mof_H 	H 	0.2869	0.3958	0.9536	0.142
Mof_C 	C 	0.148	0.4116	0.8378	0.288
Mof_C 	C 	0.0335	0.4344	0.8205	-0.239
Mof_H 	H 	0.9937	0.4373	0.7509	0.129
Mof_C 	C 	0.8545	0.4788	0.8911	0.249
Mof_C 	C 	0.3128	0.4277	0.7518	0.131
Mof_H 	H 	0.3624	0.3802	0.8	-0.012
Mof_C 	C 	0.3287	0.5423	0.7909	0.335
Mof_C 	C 	0.3419	0.4195	0.6374	-0.544
Mof_H 	H 	0.3225	0.3494	0.609	0.202
Mof_H 	H 	0.4217	0.4316	0.639	0.175
Mof_H 	H 	0.2999	0.4724	0.5924	0.191
Mof_C 	C 	0.3169	0.4002	0.1622	0.141
Mof_H 	H 	0.3642	0.4468	0.1245	-0.02
Mof_C 	C 	0.3369	0.2841	0.1354	0.332
Mof_C 	C 	0.3459	0.4165	0.2829	-0.552
Mof_H 	H 	0.3226	0.4868	0.3014	0.202
Mof_H 	H 	0.4262	0.4091	0.3042	0.174
Mof_H 	H 	0.3072	0.3638	0.3196	0.188
Mof_O 	O 	0.4377	0.7136	0.6628	-0.569
Mof_O 	O 	0.5856	0.6024	0.6864	-0.595
Mof_O 	O 	0.7119	0.5999	0.3236	-0.265
Mof_O 	O 	0.6187	0.4546	0.1725	-0.619
Mof_O 	O 	0.6105	0.58	0.0453	-0.611
Mof_O 	O 	0.3233	0.7266	0.2688	-0.25
Mof_O 	O 	0.3744	0.7626	0.9989	-0.617
Mof_O 	O 	0.4069	0.8711	0.1402	-0.564
Mof_O 	O 	0.8035	0.5024	0.7988	-0.441
Mof_O 	O 	0.8015	0.4774	0.9725	-0.478
Mof_O 	O 	0.2012	0.4288	0.1343	-0.283
Mof_O 	O 	0.2573	0.2181	0.123	-0.468
Mof_O 	O 	0.4379	0.2548	0.1298	-0.628
Mof_O 	O 	0.198	0.3951	0.7476	-0.272
Mof_O 	O 	0.2507	0.6089	0.768	-0.492
Mof_O 	O 	0.4247	0.5694	0.8445	-0.644
Mof_O 	O 	0.245	0.8389	0.6515	-0.899
Mof_H 	H 	0.2372	0.8959	0.6876	0.304
Mof_H 	H 	0.2042	0.8437	0.5894	0.385
Mof_Eu	Eu	0.6278	0.55415	0.86776	2.519
Mof_Eu	Eu	0.36023	0.77079	0.81338	2.415
Mof_C 	C 	0.4842	0.1608	0.4899	-0.032
Mof_C 	C 	0.3874	0.125	0.531	-0.194
Mof_H 	H 	0.3249	0.0987	0.4853	0.097
Mof_C 	C 	0.3873	0.1299	0.6411	0.249
Mof_C 	C 	0.4813	0.1664	0.7102	-0.323
Mof_H 	H 	0.4793	0.1714	0.7838	0.146
Mof_C 	C 	0.5776	0.1954	0.6688	0.246
Mof_C 	C 	0.5791	0.1966	0.5587	-0.191
Mof_H 	H 	0.6426	0.221	0.5312	0.099
Mof_C 	C 	0.486	0.1587	0.3717	0.457
Mof_C 	C 	0.2791	0.1195	0.786	0.047
Mof_H 	H 	0.3023	0.1935	0.8033	0.027
Mof_C 	C 	0.3566	0.0441	0.8612	0.403
Mof_C 	C 	0.1556	0.1072	0.7994	-0.431
Mof_H 	H 	0.1107	0.1584	0.7545	0.159
Mof_H 	H 	0.1473	0.1193	0.8733	0.138
Mof_H 	H 	0.1304	0.0361	0.7787	0.11
Mof_C 	C 	0.6903	0.2053	0.8435	0.018
Mof_H 	H 	0.6583	0.1345	0.8542	0.015
Mof_C 	C 	0.6309	0.287	0.9044	0.499
Mof_C 	C 	0.8185	0.2011	0.8816	-0.418
Mof_H 	H 	0.8514	0.1454	0.8436	0.147
Mof_H 	H 	0.8325	0.1865	0.9576	0.122
Mof_H 	H 	0.8518	0.2686	0.8676	0.151
Mof_C 	C 	0.0215	0.9529	0.0908	0.078
Mof_C 	C 	0.9635	0.9508	0.9879	-0.243
Mof_H 	H 	0.001	0.9651	0.9296	0.127
Mof_C 	C 	0.8484	0.9272	0.9713	0.297
Mof_C 	C 	0.7907	0.9092	0.0576	-0.328
Mof_H 	H 	0.7131	0.8958	0.0464	0.151
Mof_C 	C 	0.852	0.9116	0.1622	0.306
Mof_C 	C 	0.9665	0.9344	0.1795	-0.234
Mof_H 	H 	0.0063	0.9373	0.2491	0.143
Mof_C 	C 	0.1455	0.9788	0.1089	0.32
Mof_C 	C 	0.6872	0.9277	0.2482	0.248
Mof_H 	H 	0.6376	0.8802	0.2	-0.039
Mof_C 	C 	0.6713	0.0423	0.2091	0.243
Mof_C 	C 	0.6581	0.9195	0.3626	-0.679
Mof_H 	H 	0.6775	0.8494	0.391	0.245
Mof_H 	H 	0.5783	0.9316	0.361	0.233
Mof_H 	H 	0.7001	0.9724	0.4076	0.25
Mof_C 	C 	0.6831	0.9002	0.8378	0.153
Mof_H 	H 	0.6358	0.9468	0.8755	-0.01
Mof_C 	C 	0.6631	0.7841	0.8646	0.328
Mof_C 	C 	0.6541	0.9165	0.7171	-0.588
Mof_H 	H 	0.6774	0.9868	0.6986	0.233
Mof_H 	H 	0.5738	0.9091	0.6958	0.193
Mof_H 	H 	0.6928	0.8638	0.6804	0.203
Mof_O 	O 	0.5623	0.2136	0.3372	-0.57
Mof_O 	O 	0.4144	0.1024	0.3136	-0.592
Mof_O 	O 	0.2881	0.0999	0.6764	-0.282
Mof_O 	O 	0.3813	0.9546	0.8275	-0.559
Mof_O 	O 	0.3895	0.08	0.9547	-0.592
Mof_O 	O 	0.6767	0.2266	0.7312	-0.257
Mof_O 	O 	0.6256	0.2626	0.0011	-0.625
Mof_O 	O 	0.5931	0.3711	0.8598	-0.605
Mof_O 	O 	0.1965	0.0024	0.2012	-0.5
Mof_O 	O 	0.1985	0.9774	0.0275	-0.451
Mof_O 	O 	0.7988	0.9288	0.8657	-0.273
Mof_O 	O 	0.7427	0.7181	0.877	-0.472
Mof_O 	O 	0.5621	0.7548	0.8702	-0.634
Mof_O 	O 	0.802	0.8951	0.2524	-0.288
Mof_O 	O 	0.7493	0.1089	0.232	-0.491
Mof_O 	O 	0.5753	0.0694	0.1555	-0.627
Mof_O 	O 	0.755	0.3389	0.3485	-0.893
Mof_H 	H 	0.7628	0.3959	0.3124	0.286
Mof_H 	H 	0.7958	0.3437	0.4106	0.369
Mof_Eu	Eu	0.3722	0.05415	0.13224	2.389
Mof_Eu	Eu	0.63977	0.27079	0.18662	2.401
_end
