data_functionalizedCrystal
_audit_creation_method	'EQeq! by Chris Wilmer'
_symmetry_space_group_name_H-M	'P1'
_symmetry_Int_Tables_number	1
_symmetry_cell_setting	triclinic
loop_
_symmetry_equiv_pos_as_xyz
  x,y,z
_cell_length_a	14.69
_cell_length_b	15.126
_cell_length_c	15.126
_cell_angle_alpha	120
_cell_angle_beta	90
_cell_angle_gamma	90
loop_
_atom_site_label
_atom_site_type_symbol
_atom_site_fract_x
_atom_site_fract_y
_atom_site_fract_z
_atom_site_charge
Mof_Gd	Gd	0.75	0.33333	0.66666	1.847
Mof_Gd	Gd	0.75	0.66667	0.33334	1.847
Mof_Gd	Gd	0.25	0.66667	0.33334	1.824
Mof_Gd	Gd	0.25	0.33333	0.66666	1.824
Mof_Cu	Cu	0.5	0.5	0.5	0.947
Mof_Cu	Cu	0.5	3.9058e-17	0.5	0.911
Mof_Cu	Cu	0.5	0.5	-0	0.911
Mof_Cu	Cu	4.3363e-33	3.9058e-17	0.5	0.854
Mof_Cu	Cu	-4.3363e-33	0.5	0.5	0.889
Mof_Cu	Cu	-4.3363e-33	0.5	-0	0.854
Mof_C 	C 	0.7005	0.2684	0.4147	0.025
Mof_C 	C 	0.6396	0.3566	0.4863	0.361
Mof_C 	C 	0.7005	0.1463	0.7316	0.033
Mof_C 	C 	0.6396	0.1297	0.6434	0.361
Mof_C 	C 	0.7005	0.5853	0.8537	0.08
Mof_C 	C 	0.6396	0.5137	0.8703	0.35
Mof_C 	C 	0.7005	0.7316	0.5853	0.067
Mof_C 	C 	0.6396	0.6434	0.5137	0.356
Mof_C 	C 	0.7005	0.8537	0.2684	0.059
Mof_C 	C 	0.6396	0.8703	0.3566	0.352
Mof_C 	C 	0.7005	0.4147	0.1463	0.012
Mof_C 	C 	0.6396	0.4863	0.1297	0.364
Mof_C 	C 	0.7995	0.8537	0.5853	0.094
Mof_C 	C 	0.8604	0.8703	0.5137	0.345
Mof_C 	C 	0.7995	0.4147	0.2684	0.039
Mof_C 	C 	0.8604	0.4863	0.3566	0.356
Mof_C 	C 	0.7995	0.7316	0.1463	0.047
Mof_C 	C 	0.8604	0.6434	0.1297	0.356
Mof_C 	C 	0.7995	0.1463	0.4147	0.027
Mof_C 	C 	0.8604	0.1297	0.4863	0.359
Mof_C 	C 	0.7995	0.5853	0.7316	0.081
Mof_C 	C 	0.8604	0.5137	0.6434	0.351
Mof_C 	C 	0.7995	0.2684	0.8537	0.073
Mof_C 	C 	0.8604	0.3566	0.8703	0.348
Mof_C 	C 	0.2995	0.7316	0.5853	0.052
Mof_C 	C 	0.3604	0.6434	0.5137	0.359
Mof_C 	C 	0.2995	0.8537	0.2684	0.045
Mof_C 	C 	0.3604	0.8703	0.3566	0.355
Mof_C 	C 	0.2995	0.4147	0.1463	-0.003
Mof_C 	C 	0.3604	0.4863	0.1297	0.366
Mof_C 	C 	0.2995	0.2684	0.4147	0.009
Mof_C 	C 	0.3604	0.3566	0.4863	0.364
Mof_C 	C 	0.2995	0.1463	0.7316	0.018
Mof_C 	C 	0.3604	0.1297	0.6434	0.364
Mof_C 	C 	0.2995	0.5853	0.8537	0.066
Mof_C 	C 	0.3604	0.5137	0.8703	0.352
Mof_C 	C 	0.2005	0.1463	0.4147	-0.016
Mof_C 	C 	0.1396	0.1297	0.4863	0.366
Mof_C 	C 	0.2005	0.5853	0.7316	0.04
Mof_C 	C 	0.1396	0.5137	0.6434	0.358
Mof_C 	C 	0.2005	0.2684	0.8537	0.032
Mof_C 	C 	0.1396	0.3566	0.8703	0.355
Mof_C 	C 	0.2005	0.8537	0.5853	0.053
Mof_C 	C 	0.1396	0.8703	0.5137	0.352
Mof_C 	C 	0.2005	0.4147	0.2684	-0.003
Mof_C 	C 	0.1396	0.4863	0.3566	0.363
Mof_C 	C 	0.2005	0.7316	0.1463	0.006
Mof_C 	C 	0.1396	0.6434	0.1297	0.364
Mof_O 	O 	0.6416	0.3854	0.5784	-0.417
Mof_O 	O 	0.5933	0.3936	0.4429	-0.382
Mof_O 	O 	0.6416	0.193	0.6146	-0.425
Mof_O 	O 	0.5933	0.0493	0.6064	-0.402
Mof_O 	O 	0.6416	0.4216	0.807	-0.402
Mof_O 	O 	0.5933	0.5571	0.9507	-0.328
Mof_O 	O 	0.6416	0.6146	0.4216	-0.414
Mof_O 	O 	0.5933	0.6064	0.5571	-0.368
Mof_O 	O 	0.6416	0.807	0.3854	-0.404
Mof_O 	O 	0.5933	0.9507	0.3936	-0.335
Mof_O 	O 	0.6416	0.5784	0.193	-0.426
Mof_O 	O 	0.5933	0.4429	0.0493	-0.408
Mof_O 	O 	0.8584	0.807	0.4216	-0.374
Mof_O 	O 	0.9067	0.9507	0.5571	-0.272
Mof_O 	O 	0.8584	0.5784	0.3854	-0.388
Mof_O 	O 	0.9067	0.4429	0.3936	-0.324
Mof_O 	O 	0.8584	0.6146	0.193	-0.395
Mof_O 	O 	0.9067	0.6064	0.0493	-0.344
Mof_O 	O 	0.8584	0.193	0.5784	-0.397
Mof_O 	O 	0.9067	0.0493	0.4429	-0.35
Mof_O 	O 	0.8584	0.4216	0.6146	-0.385
Mof_O 	O 	0.9067	0.5571	0.6064	-0.31
Mof_O 	O 	0.8584	0.3854	0.807	-0.375
Mof_O 	O 	0.9067	0.3936	0.9507	-0.279
Mof_O 	O 	0.3584	0.6146	0.4216	-0.413
Mof_O 	O 	0.4067	0.6064	0.5571	-0.37
Mof_O 	O 	0.3584	0.807	0.3854	-0.402
Mof_O 	O 	0.4067	0.9507	0.3936	-0.336
Mof_O 	O 	0.3584	0.5784	0.193	-0.424
Mof_O 	O 	0.4067	0.4429	0.0493	-0.41
Mof_O 	O 	0.3584	0.3854	0.5784	-0.416
Mof_O 	O 	0.4067	0.3936	0.4429	-0.384
Mof_O 	O 	0.3584	0.193	0.6146	-0.423
Mof_O 	O 	0.4067	0.0493	0.6064	-0.403
Mof_O 	O 	0.3584	0.4216	0.807	-0.4
Mof_O 	O 	0.4067	0.5571	0.9507	-0.329
Mof_O 	O 	0.1416	0.193	0.5784	-0.446
Mof_O 	O 	0.0933	0.0493	0.4429	-0.444
Mof_O 	O 	0.1416	0.4216	0.6146	-0.435
Mof_O 	O 	0.0933	0.5571	0.6064	-0.403
Mof_O 	O 	0.1416	0.3854	0.807	-0.424
Mof_O 	O 	0.0933	0.3936	0.9507	-0.369
Mof_O 	O 	0.1416	0.807	0.4216	-0.422
Mof_O 	O 	0.0933	0.9507	0.5571	-0.362
Mof_O 	O 	0.1416	0.5784	0.3854	-0.438
Mof_O 	O 	0.0933	0.4429	0.3936	-0.418
Mof_O 	O 	0.1416	0.6146	0.193	-0.445
Mof_O 	O 	0.0933	0.6064	0.0493	-0.436
Mof_O 	O 	0.75	0.23705	0.4741	-0.295
Mof_O 	O 	0.75	0.23705	0.76295	-0.299
Mof_O 	O 	0.75	0.5259	0.76295	-0.304
Mof_O 	O 	0.75	0.76295	0.5259	-0.303
Mof_O 	O 	0.75	0.76295	0.23705	-0.299
Mof_O 	O 	0.75	0.4741	0.23705	-0.295
Mof_O 	O 	0.25	0.76295	0.5259	-0.299
Mof_O 	O 	0.25	0.76295	0.23705	-0.295
Mof_O 	O 	0.25	0.4741	0.23705	-0.291
Mof_O 	O 	0.25	0.23705	0.4741	-0.291
Mof_O 	O 	0.25	0.23705	0.76295	-0.295
Mof_O 	O 	0.25	0.5259	0.76295	-0.299
_end
