data_functionalizedCrystal
_audit_creation_method	'EQeq! by Chris Wilmer'
_symmetry_space_group_name_H-M	'P1'
_symmetry_Int_Tables_number	1
_symmetry_cell_setting	triclinic
loop_
_symmetry_equiv_pos_as_xyz
  x,y,z
_cell_length_a	6.5675
_cell_length_b	16.4026
_cell_length_c	13.1643
_cell_angle_alpha	90
_cell_angle_beta	90
_cell_angle_gamma	90
loop_
_atom_site_label
_atom_site_type_symbol
_atom_site_fract_x
_atom_site_fract_y
_atom_site_fract_z
_atom_site_charge
Mof_O 	O 	0.1672	0.16903	0.84036	-1.727
Mof_C 	C 	0.8061	0.0264	0.9537	0.019
Mof_O 	O 	0.6672	0.66903	0.34036	-1.716
Mof_C 	C 	0.3061	0.5264	0.4537	0.062
Mof_O 	O 	0.8328	0.33097	0.84036	-1.744
Mof_C 	C 	0.1939	0.4736	0.9537	0.051
Mof_O 	O 	0.3328	0.83097	0.34036	-1.717
Mof_C 	C 	0.6939	0.9736	0.4537	0.042
Mof_O 	O 	0.8328	0.66903	0.15964	-1.744
Mof_C 	C 	0.1939	0.5264	0.0463	0.051
Mof_O 	O 	0.3328	0.16903	0.65964	-1.717
Mof_C 	C 	0.6939	0.0264	0.5463	0.042
Mof_O 	O 	0.1672	0.83097	0.15964	-1.726
Mof_C 	C 	0.8061	0.9736	0.0463	0.02
Mof_O 	O 	0.6672	0.33097	0.65964	-1.716
Mof_C 	C 	0.3061	0.4736	0.5463	0.062
Mof_O 	O 	0.8328	0.83097	0.15964	-1.744
Mof_C 	C 	0.1939	0.9736	0.0463	0.05
Mof_O 	O 	0.3328	0.33097	0.65964	-1.717
Mof_C 	C 	0.6939	0.4736	0.5463	0.042
Mof_O 	O 	0.1672	0.66903	0.15964	-1.726
Mof_C 	C 	0.8061	0.5264	0.0463	0.02
Mof_O 	O 	0.6672	0.16903	0.65964	-1.716
Mof_C 	C 	0.3061	0.0264	0.5463	0.062
Mof_O 	O 	0.1672	0.33097	0.84036	-1.726
Mof_C 	C 	0.8061	0.4736	0.9537	0.02
Mof_O 	O 	0.6672	0.83097	0.34036	-1.716
Mof_C 	C 	0.3061	0.9736	0.4537	0.062
Mof_O 	O 	0.8328	0.16903	0.84036	-1.744
Mof_C 	C 	0.1939	0.0264	0.9537	0.05
Mof_O 	O 	0.3328	0.66903	0.34036	-1.717
Mof_C 	C 	0.6939	0.5264	0.4537	0.042
Mof_Al	Al	0.25	0.25	0.75	7.225
Mof_Al	Al	0.75	0.25	0.75	7.139
Mof_Al	Al	0.75	0.75	0.25	7.139
Mof_Al	Al	0.25	0.75	0.25	7.225
Mof_F 	F 	2.30098e-32	0.25	0.6931	-2.387
Mof_F 	F 	0.5	0.75	0.1931	-2.407
Mof_F 	F 	-2.14369e-33	0.75	0.3069	-2.387
Mof_F 	F 	0.5	0.25	0.8069	-2.407
Mof_C 	C 	7.13223e-33	0.0641	0.949	-0.266
Mof_C 	C 	6.52573e-33	0.1363	0.8683	1.276
Mof_C 	C 	0.5	0.5641	0.449	-0.3
Mof_C 	C 	0.5	0.6363	0.3683	1.234
Mof_C 	C 	-2.84694e-32	0.4359	0.949	-0.266
Mof_C 	C 	4.21274e-32	0.3637	0.8683	1.276
Mof_C 	C 	0.5	0.9359	0.449	-0.3
Mof_C 	C 	0.5	0.8637	0.3683	1.234
Mof_C 	C 	4.8335e-33	0.5641	0.051	-0.266
Mof_C 	C 	9.8902e-33	0.6363	0.1317	1.276
Mof_C 	C 	0.5	0.0641	0.551	-0.3
Mof_C 	C 	0.5	0.1363	0.6317	1.234
Mof_C 	C 	2.26343e-32	0.9359	0.051	-0.266
Mof_C 	C 	-7.91061e-33	0.8637	0.1317	1.276
Mof_C 	C 	0.5	0.4359	0.551	-0.3
Mof_C 	C 	0.5	0.3637	0.6317	1.234
_end
