data_functionalizedCrystal
_audit_creation_method	'EQeq! by Chris Wilmer'
_symmetry_space_group_name_H-M	'P1'
_symmetry_Int_Tables_number	1
_symmetry_cell_setting	triclinic
loop_
_symmetry_equiv_pos_as_xyz
  x,y,z
_cell_length_a	10.4868
_cell_length_b	17.7786
_cell_length_c	17.7786
_cell_angle_alpha	120
_cell_angle_beta	90
_cell_angle_gamma	90
loop_
_atom_site_label
_atom_site_type_symbol
_atom_site_fract_x
_atom_site_fract_y
_atom_site_fract_z
_atom_site_charge
Mof_Zn	Zn	0.92276	0.92957	0.47219	1.203
Mof_Zn	Zn	0.25609	0.54262	0.07043	1.207
Mof_Zn	Zn	0.58943	0.52781	0.45738	1.206
Mof_Zn	Zn	0.42276	0.07043	0.52781	1.206
Mof_Zn	Zn	0.75609	0.45738	0.92957	1.206
Mof_Zn	Zn	0.08943	0.47219	0.54262	1.209
Mof_H 	H 	0.831	0.0796	0.5537	0.069
Mof_H 	H 	0.6363	0.302	0.7789	-0.015
Mof_H 	H 	0.9573	0.3236	0.8966	-0.052
Mof_H 	H 	0.0122	0.182	0.7946	0.109
Mof_H 	H 	0.6799	0.1636	0.6773	0.119
Mof_H 	H 	0.9627	0.048	0.6688	0.075
Mof_H 	H 	0.8175	0.0269	0.6486	0.079
Mof_H 	H 	0.0354	0.1533	0.6256	0.176
Mof_H 	H 	0.0623	0.1963	0.5217	-0.233
Mof_H 	H 	0.8649	0.0804	0.4267	0.471
Mof_H 	H 	0.0077	0.0701	0.397	0.499
Mof_H 	H 	0.9254	0.1466	0.4031	0.494
Mof_H 	H 	0.8735	0.274	0.5471	0.468
Mof_H 	H 	0.9218	0.278	0.6325	0.453
Mof_H 	H 	0.8088	0.2162	0.5799	0.458
Mof_H 	H 	0.16433	0.4741	0.9204	0.068
Mof_H 	H 	0.96963	0.4769	0.698	-0.035
Mof_H 	H 	0.29063	0.573	0.6764	-0.045
Mof_H 	H 	0.34553	0.6126	0.818	0.094
Mof_H 	H 	0.01323	0.5137	0.8364	0.129
Mof_H 	H 	0.29603	0.6208	0.952	0.08
Mof_H 	H 	0.15083	0.6217	0.9731	0.082
Mof_H 	H 	0.36873	0.4723	0.8467	0.182
Mof_H 	H 	0.39563	0.3254	0.8037	-0.255
Mof_H 	H 	0.19823	0.3463	0.9196	0.477
Mof_H 	H 	0.34103	0.3269	0.9299	0.494
Mof_H 	H 	0.25873	0.2565	0.8534	0.501
Mof_H 	H 	0.20683	0.2731	0.726	0.489
Mof_H 	H 	0.25513	0.3545	0.722	0.475
Mof_H 	H 	0.14213	0.3637	0.7838	0.478
Mof_H 	H 	0.49767	0.4463	0.5259	0.067
Mof_H 	H 	0.30297	0.2211	0.5231	-0.014
Mof_H 	H 	0.62397	0.1034	0.427	-0.043
Mof_H 	H 	0.67887	0.2054	0.3874	0.089
Mof_H 	H 	0.34657	0.3227	0.4863	0.115
Mof_H 	H 	0.62937	0.3312	0.3792	0.077
Mof_H 	H 	0.48417	0.3514	0.3783	0.078
Mof_H 	H 	0.70207	0.3744	0.5277	0.181
Mof_H 	H 	0.72897	0.4783	0.6746	-0.253
Mof_H 	H 	0.53157	0.5733	0.6537	0.471
Mof_H 	H 	0.67437	0.603	0.6731	0.49
Mof_H 	H 	0.59207	0.5969	0.7435	0.496
Mof_H 	H 	0.54017	0.4529	0.7269	0.484
Mof_H 	H 	0.58847	0.3675	0.6455	0.471
Mof_H 	H 	0.47547	0.4201	0.6363	0.472
Mof_H 	H 	0.331	0.9204	0.4463	0.067
Mof_H 	H 	0.1363	0.698	0.2211	-0.01
Mof_H 	H 	0.4573	0.6764	0.1034	-0.043
Mof_H 	H 	0.5122	0.818	0.2054	0.09
Mof_H 	H 	0.1799	0.8364	0.3227	0.119
Mof_H 	H 	0.4627	0.952	0.3312	0.078
Mof_H 	H 	0.3175	0.9731	0.3514	0.079
Mof_H 	H 	0.5354	0.8467	0.3744	0.181
Mof_H 	H 	0.5623	0.8037	0.4783	-0.253
Mof_H 	H 	0.3649	0.9196	0.5733	0.473
Mof_H 	H 	0.5077	0.9299	0.603	0.491
Mof_H 	H 	0.4254	0.8534	0.5969	0.498
Mof_H 	H 	0.3735	0.726	0.4529	0.485
Mof_H 	H 	0.4218	0.722	0.3675	0.472
Mof_H 	H 	0.3088	0.7838	0.4201	0.474
Mof_H 	H 	0.66433	0.5259	0.0796	0.068
Mof_H 	H 	0.46963	0.5231	0.302	-0.013
Mof_H 	H 	0.79063	0.427	0.3236	-0.045
Mof_H 	H 	0.84553	0.3874	0.182	0.087
Mof_H 	H 	0.51323	0.4863	0.1636	0.115
Mof_H 	H 	0.79603	0.3792	0.048	0.076
Mof_H 	H 	0.65083	0.3783	0.0269	0.077
Mof_H 	H 	0.86873	0.5277	0.1533	0.177
Mof_H 	H 	0.89563	0.6746	0.1963	-0.254
Mof_H 	H 	0.69823	0.6537	0.0804	0.468
Mof_H 	H 	0.84103	0.6731	0.0701	0.485
Mof_H 	H 	0.75873	0.7435	0.1466	0.493
Mof_H 	H 	0.70683	0.7269	0.274	0.481
Mof_H 	H 	0.75513	0.6455	0.278	0.468
Mof_H 	H 	0.64213	0.6363	0.2162	0.47
Mof_H 	H 	0.99767	0.5537	0.4741	0.056
Mof_H 	H 	0.80297	0.7789	0.4769	-0.019
Mof_H 	H 	0.12397	0.8966	0.573	-0.051
Mof_H 	H 	0.17887	0.7946	0.6126	0.098
Mof_H 	H 	0.84657	0.6773	0.5137	0.127
Mof_H 	H 	0.12937	0.6688	0.6208	0.074
Mof_H 	H 	0.98417	0.6486	0.6217	0.062
Mof_H 	H 	0.20207	0.6256	0.4723	0.177
Mof_H 	H 	0.22897	0.5217	0.3254	-0.242
Mof_H 	H 	0.03157	0.4267	0.3463	0.467
Mof_H 	H 	0.17437	0.397	0.3269	0.482
Mof_H 	H 	0.09207	0.4031	0.2565	0.491
Mof_H 	H 	0.04017	0.5471	0.2731	0.462
Mof_H 	H 	0.08847	0.6325	0.3545	0.447
Mof_H 	H 	0.97547	0.5799	0.3637	0.435
Mof_C 	C 	0.7138	0.2779	0.7815	0.121
Mof_C 	C 	0.902	0.2912	0.8507	0.125
Mof_C 	C 	0.9351	0.2054	0.7901	-0.274
Mof_C 	C 	0.8516	0.1567	0.7241	0.197
Mof_C 	C 	0.7388	0.1951	0.7211	-0.255
Mof_C 	C 	0.8849	0.0663	0.6531	-0.229
Mof_C 	C 	0.1288	0.0527	0.5218	0.47
Mof_C 	C 	0.0124	0.113	0.5649	-0.492
Mof_C 	C 	0.9823	0.1683	0.5227	0.941
Mof_C 	C 	0.9413	0.1111	0.4287	-1.534
Mof_C 	C 	0.8879	0.2408	0.5754	-1.472
Mof_C 	C 	0.04713	0.5036	0.7221	0.153
Mof_C 	C 	0.23533	0.5595	0.7088	0.118
Mof_C 	C 	0.26843	0.5847	0.7946	-0.252
Mof_C 	C 	0.18493	0.5674	0.8433	0.198
Mof_C 	C 	0.07213	0.526	0.8049	-0.27
Mof_C 	C 	0.21823	0.5868	0.9337	-0.231
Mof_C 	C 	0.46213	0.4691	0.9473	0.48
Mof_C 	C 	0.34573	0.4519	0.887	-0.527
Mof_C 	C 	0.31563	0.3544	0.8317	0.995
Mof_C 	C 	0.27463	0.3176	0.8889	-1.544
Mof_C 	C 	0.22123	0.3346	0.7592	-1.531
Mof_C 	C 	0.38047	0.2185	0.4964	0.116
Mof_C 	C 	0.56867	0.1493	0.4405	0.111
Mof_C 	C 	0.60177	0.2099	0.4153	-0.242
Mof_C 	C 	0.51827	0.2759	0.4326	0.184
Mof_C 	C 	0.40547	0.2789	0.474	-0.245
Mof_C 	C 	0.55157	0.3469	0.4132	-0.222
Mof_C 	C 	0.79547	0.4782	0.5309	0.481
Mof_C 	C 	0.67907	0.4351	0.5481	-0.524
Mof_C 	C 	0.64897	0.4773	0.6456	0.986
Mof_C 	C 	0.60797	0.5713	0.6824	-1.532
Mof_C 	C 	0.55457	0.4246	0.6654	-1.518
Mof_C 	C 	0.2138	0.7221	0.2185	0.117
Mof_C 	C 	0.402	0.7088	0.1493	0.112
Mof_C 	C 	0.4351	0.7946	0.2099	-0.242
Mof_C 	C 	0.3516	0.8433	0.2759	0.186
Mof_C 	C 	0.2388	0.8049	0.2789	-0.245
Mof_C 	C 	0.3849	0.9337	0.3469	-0.224
Mof_C 	C 	0.6288	0.9473	0.4782	0.48
Mof_C 	C 	0.5124	0.887	0.4351	-0.524
Mof_C 	C 	0.4823	0.8317	0.4773	0.988
Mof_C 	C 	0.4413	0.8889	0.5713	-1.535
Mof_C 	C 	0.3879	0.7592	0.4246	-1.521
Mof_C 	C 	0.54713	0.4964	0.2779	0.115
Mof_C 	C 	0.73533	0.4405	0.2912	0.111
Mof_C 	C 	0.76843	0.4153	0.2054	-0.242
Mof_C 	C 	0.68493	0.4326	0.1567	0.183
Mof_C 	C 	0.57213	0.474	0.1951	-0.245
Mof_C 	C 	0.71823	0.4132	0.0663	-0.221
Mof_C 	C 	0.96213	0.5309	0.0527	0.458
Mof_C 	C 	0.84573	0.5481	0.113	-0.516
Mof_C 	C 	0.81563	0.6456	0.1683	0.979
Mof_C 	C 	0.77463	0.6824	0.1111	-1.523
Mof_C 	C 	0.72123	0.6654	0.2408	-1.51
Mof_C 	C 	0.88047	0.7815	0.5036	0.132
Mof_C 	C 	0.06867	0.8507	0.5595	0.142
Mof_C 	C 	0.10177	0.7901	0.5847	-0.264
Mof_C 	C 	0.01827	0.7241	0.5674	0.213
Mof_C 	C 	0.90547	0.7211	0.526	-0.281
Mof_C 	C 	0.05157	0.6531	0.5868	-0.207
Mof_C 	C 	0.29547	0.5218	0.4691	0.477
Mof_C 	C 	0.17907	0.5649	0.4519	-0.509
Mof_C 	C 	0.14897	0.5227	0.3544	0.95
Mof_C 	C 	0.10797	0.4287	0.3176	-1.501
Mof_C 	C 	0.05457	0.5754	0.3346	-1.428
Mof_Br	Br	0.91231	0.86874	0.32053	-0.551
Mof_Br	Br	0.24564	0.45179	0.13126	-0.534
Mof_Br	Br	0.57898	0.67947	0.54821	-0.54
Mof_Br	Br	0.41231	0.13126	0.67947	-0.539
Mof_Br	Br	0.74564	0.54821	0.86874	-0.544
Mof_Br	Br	0.07898	0.32053	0.45179	-0.529
Mof_N 	N 	0.7962	0.3275	0.8453	-0.284
Mof_N 	N 	0.9031	0.0594	0.566	-0.19
Mof_N 	N 	0.12953	0.5178	0.6725	-0.285
Mof_N 	N 	0.23643	0.5066	0.9406	-0.182
Mof_N 	N 	0.46287	0.1547	0.4822	-0.28
Mof_N 	N 	0.56977	0.434	0.4934	-0.183
Mof_N 	N 	0.2962	0.6725	0.1547	-0.28
Mof_N 	N 	0.4031	0.9406	0.434	-0.182
Mof_N 	N 	0.62953	0.4822	0.3275	-0.28
Mof_N 	N 	0.73643	0.4934	0.0594	-0.184
Mof_N 	N 	0.96287	0.8453	0.5178	-0.297
Mof_N 	N 	0.06977	0.566	0.5066	-0.176
Mof_O 	O 	0.118	0.9737	0.4888	-0.49
Mof_O 	O 	0.228	0.0921	0.522	-0.48
Mof_O 	O 	0.45133	0.5151	0.0263	-0.499
Mof_O 	O 	0.56133	0.4299	0.9079	-0.483
Mof_O 	O 	0.78467	0.5112	0.4849	-0.502
Mof_O 	O 	0.89467	0.478	0.5701	-0.488
Mof_O 	O 	0.618	0.0263	0.5112	-0.499
Mof_O 	O 	0.728	0.9079	0.478	-0.483
Mof_O 	O 	0.95133	0.4849	0.9737	-0.499
Mof_O 	O 	0.06133	0.5701	0.0921	-0.465
Mof_O 	O 	0.28467	0.4888	0.5151	-0.499
Mof_O 	O 	0.39467	0.522	0.4299	-0.482
_end
