data_functionalizedCrystal
_audit_creation_method	'EQeq! by Chris Wilmer'
_symmetry_space_group_name_H-M	'P1'
_symmetry_Int_Tables_number	1
_symmetry_cell_setting	triclinic
loop_
_symmetry_equiv_pos_as_xyz
  x,y,z
_cell_length_a	24.641
_cell_length_b	12.468
_cell_length_c	15.427
_cell_angle_alpha	90
_cell_angle_beta	90
_cell_angle_gamma	90
loop_
_atom_site_label
_atom_site_type_symbol
_atom_site_fract_x
_atom_site_fract_y
_atom_site_fract_z
_atom_site_charge
Mof_Cd	Cd	0.23602	0.82527	0.57756	0.456
Mof_N 	N 	0.2321	0.4314	0.325	-0.078
Mof_N 	N 	0.3208	0.5199	0.4625	-0.079
Mof_N 	N 	0.32532	0.8835	0.5727	-0.154
Mof_O 	O 	0.17381	0.7351	0.4838	-0.261
Mof_O 	O 	0.26063	0.7205	0.4532	-0.261
Mof_O 	O 	0.3482	0.6664	0.1821	-0.27
Mof_O 	O 	0.2702	0.5979	0.2113	-0.278
Mof_O 	O 	0.2737	0.3681	0.3048	-0.103
Mof_O 	O 	0.28452	0.4928	0.5242	-0.142
Mof_C 	C 	0.1807	0.4017	0.3068	0.071
Mof_H 	H 	0.1741	0.3359	0.2806	0.035
Mof_C 	C 	0.1391	0.467	0.3266	-0.11
Mof_H 	H 	0.104	0.4482	0.3101	0.073
Mof_C 	C 	0.1479	0.5641	0.3721	0.046
Mof_H 	H 	0.1189	0.6076	0.3883	0.035
Mof_C 	C 	0.2003	0.5922	0.3917	-0.093
Mof_C 	C 	0.2428	0.5248	0.3665	0.098
Mof_C 	C 	0.3013	0.5452	0.3823	0.104
Mof_C 	C 	0.3379	0.5838	0.3205	-0.102
Mof_C 	C 	0.3919	0.5954	0.3427	0.052
Mof_H 	H 	0.4163	0.6231	0.3025	0.027
Mof_C 	C 	0.4099	0.5659	0.4244	-0.119
Mof_H 	H 	0.4465	0.5712	0.4387	0.076
Mof_C 	C 	0.3729	0.5289	0.4841	0.073
Mof_H 	H 	0.3843	0.5101	0.5395	0.032
Mof_C 	C 	0.2128	0.6914	0.4449	0.321
Mof_C 	C 	0.317	0.6172	0.2308	0.342
Mof_C 	C 	0.3634	0.8239	0.5342	0.103
Mof_H 	H 	0.3545	0.755	0.5158	0.019
Mof_C 	C 	0.4157	0.8611	0.5208	-0.175
Mof_H 	H 	0.4415	0.817	0.4951	0.095
Mof_C 	C 	0.4293	0.9644	0.546	0.132
Mof_C 	C 	0.3906	0.0245	0.5853	-0.19
Mof_H 	H 	0.3984	0.0938	0.6036	0.111
Mof_C 	C 	0.34	0.9821	0.5978	0.118
Mof_H 	H 	0.3141	0.0245	0.6254	0.017
Mof_C 	C 	0.4834	0.016	0.5252	-0.084
Mof_H 	H 	0.4917	0.079	0.5546	0.062
Mof_Cd	Cd	0.26398	0.67473	0.07756	0.457
Mof_N 	N 	0.2679	0.0686	0.825	-0.076
Mof_N 	N 	0.1792	0.9801	0.9625	-0.078
Mof_N 	N 	0.17468	0.6165	0.0727	-0.153
Mof_O 	O 	0.32619	0.7649	0.9838	-0.261
Mof_O 	O 	0.23937	0.7795	0.9532	-0.261
Mof_O 	O 	0.1518	0.8336	0.6821	-0.27
Mof_O 	O 	0.2298	0.9021	0.7113	-0.278
Mof_O 	O 	0.2263	0.1319	0.8048	-0.103
Mof_O 	O 	0.21548	0.0072	0.0242	-0.143
Mof_C 	C 	0.3193	0.0983	0.8068	0.07
Mof_H 	H 	0.3259	0.1641	0.7806	0.035
Mof_C 	C 	0.3609	0.033	0.8266	-0.108
Mof_H 	H 	0.396	0.0518	0.8101	0.073
Mof_C 	C 	0.3521	0.9359	0.8721	0.044
Mof_H 	H 	0.3811	0.8924	0.8883	0.035
Mof_C 	C 	0.2997	0.9078	0.8917	-0.093
Mof_C 	C 	0.2572	0.9752	0.8665	0.098
Mof_C 	C 	0.1987	0.9548	0.8823	0.104
Mof_C 	C 	0.1621	0.9162	0.8205	-0.102
Mof_C 	C 	0.1081	0.9046	0.8427	0.051
Mof_H 	H 	0.0837	0.8769	0.8025	0.028
Mof_C 	C 	0.0901	0.9341	0.9244	-0.118
Mof_H 	H 	0.0535	0.9288	0.9387	0.075
Mof_C 	C 	0.1271	0.9711	0.9841	0.071
Mof_H 	H 	0.1157	0.9899	0.0395	0.033
Mof_C 	C 	0.2872	0.8086	0.9449	0.321
Mof_C 	C 	0.183	0.8828	0.7308	0.342
Mof_C 	C 	0.1366	0.6761	0.0342	0.103
Mof_H 	H 	0.1455	0.745	0.0158	0.019
Mof_C 	C 	0.0843	0.6389	0.0208	-0.175
Mof_H 	H 	0.0585	0.683	0.9951	0.095
Mof_C 	C 	0.0707	0.5356	0.046	0.132
Mof_C 	C 	0.1094	0.4755	0.0853	-0.191
Mof_H 	H 	0.1016	0.4062	0.1036	0.111
Mof_C 	C 	0.16	0.5179	0.0978	0.119
Mof_H 	H 	0.1859	0.4755	0.1254	0.016
Mof_C 	C 	0.0166	0.484	0.0252	-0.084
Mof_H 	H 	0.0083	0.421	0.0546	0.062
Mof_Cd	Cd	0.76398	0.82527	0.92244	0.456
Mof_N 	N 	0.7679	0.4314	0.175	-0.077
Mof_N 	N 	0.6792	0.5199	0.0375	-0.078
Mof_N 	N 	0.67468	0.8835	0.9273	-0.152
Mof_O 	O 	0.82619	0.7351	0.0162	-0.261
Mof_O 	O 	0.73937	0.7205	0.0468	-0.261
Mof_O 	O 	0.6518	0.6664	0.3179	-0.27
Mof_O 	O 	0.7298	0.5979	0.2887	-0.278
Mof_O 	O 	0.7263	0.3681	0.1952	-0.103
Mof_O 	O 	0.71548	0.4928	0.9758	-0.143
Mof_C 	C 	0.8193	0.4017	0.1932	0.071
Mof_H 	H 	0.8259	0.3359	0.2194	0.035
Mof_C 	C 	0.8609	0.467	0.1734	-0.11
Mof_H 	H 	0.896	0.4482	0.1899	0.073
Mof_C 	C 	0.8521	0.5641	0.1279	0.046
Mof_H 	H 	0.8811	0.6076	0.1117	0.035
Mof_C 	C 	0.7997	0.5922	0.1083	-0.093
Mof_C 	C 	0.7572	0.5248	0.1335	0.098
Mof_C 	C 	0.6987	0.5452	0.1177	0.104
Mof_C 	C 	0.6621	0.5838	0.1795	-0.102
Mof_C 	C 	0.6081	0.5954	0.1573	0.052
Mof_H 	H 	0.5837	0.6231	0.1975	0.027
Mof_C 	C 	0.5901	0.5659	0.0756	-0.119
Mof_H 	H 	0.5535	0.5712	0.0613	0.076
Mof_C 	C 	0.6271	0.5289	0.0159	0.073
Mof_H 	H 	0.6157	0.5101	0.9605	0.031
Mof_C 	C 	0.7872	0.6914	0.0551	0.321
Mof_C 	C 	0.683	0.6172	0.2692	0.342
Mof_C 	C 	0.6366	0.8239	0.9658	0.102
Mof_H 	H 	0.6455	0.755	0.9842	0.019
Mof_C 	C 	0.5843	0.8611	0.9792	-0.175
Mof_H 	H 	0.5585	0.817	0.0049	0.095
Mof_C 	C 	0.5707	0.9644	0.954	0.129
Mof_C 	C 	0.6094	0.0245	0.9147	-0.186
Mof_H 	H 	0.6016	0.0938	0.8964	0.11
Mof_C 	C 	0.66	0.9821	0.9022	0.114
Mof_H 	H 	0.6859	0.0245	0.8746	0.019
Mof_C 	C 	0.5166	0.016	0.9748	-0.083
Mof_H 	H 	0.5083	0.079	0.9454	0.061
Mof_Cd	Cd	0.73602	0.67473	0.42244	0.457
Mof_N 	N 	0.7321	0.0686	0.675	-0.076
Mof_N 	N 	0.8208	0.9801	0.5375	-0.078
Mof_N 	N 	0.82532	0.6165	0.4273	-0.153
Mof_O 	O 	0.67381	0.7649	0.5162	-0.261
Mof_O 	O 	0.76063	0.7795	0.5468	-0.261
Mof_O 	O 	0.8482	0.8336	0.8179	-0.271
Mof_O 	O 	0.7702	0.9021	0.7887	-0.278
Mof_O 	O 	0.7737	0.1319	0.6952	-0.103
Mof_O 	O 	0.78452	0.0072	0.4758	-0.142
Mof_C 	C 	0.6807	0.0983	0.6932	0.071
Mof_H 	H 	0.6741	0.1641	0.7194	0.035
Mof_C 	C 	0.6391	0.033	0.6734	-0.109
Mof_H 	H 	0.604	0.0518	0.6899	0.073
Mof_C 	C 	0.6479	0.9359	0.6279	0.045
Mof_H 	H 	0.6189	0.8924	0.6117	0.035
Mof_C 	C 	0.7003	0.9078	0.6083	-0.093
Mof_C 	C 	0.7428	0.9752	0.6335	0.098
Mof_C 	C 	0.8013	0.9548	0.6177	0.104
Mof_C 	C 	0.8379	0.9162	0.6795	-0.103
Mof_C 	C 	0.8919	0.9046	0.6573	0.052
Mof_H 	H 	0.9163	0.8769	0.6975	0.027
Mof_C 	C 	0.9099	0.9341	0.5756	-0.119
Mof_H 	H 	0.9465	0.9288	0.5613	0.076
Mof_C 	C 	0.8729	0.9711	0.5159	0.073
Mof_H 	H 	0.8843	0.9899	0.4605	0.032
Mof_C 	C 	0.7128	0.8086	0.5551	0.321
Mof_C 	C 	0.817	0.8828	0.7692	0.342
Mof_C 	C 	0.8634	0.6761	0.4658	0.103
Mof_H 	H 	0.8545	0.745	0.4842	0.019
Mof_C 	C 	0.9157	0.6389	0.4792	-0.176
Mof_H 	H 	0.9415	0.683	0.5049	0.095
Mof_C 	C 	0.9293	0.5356	0.454	0.133
Mof_C 	C 	0.8906	0.4755	0.4147	-0.191
Mof_H 	H 	0.8984	0.4062	0.3964	0.111
Mof_C 	C 	0.84	0.5179	0.4022	0.119
Mof_H 	H 	0.8141	0.4755	0.3746	0.016
Mof_C 	C 	0.9834	0.484	0.4748	-0.084
Mof_H 	H 	0.9917	0.421	0.4454	0.062
Mof_Cd	Cd	0.76398	0.17473	0.42244	0.457
Mof_N 	N 	0.7679	0.5686	0.675	-0.077
Mof_N 	N 	0.6792	0.4801	0.5375	-0.078
Mof_N 	N 	0.67468	0.1165	0.4273	-0.153
Mof_O 	O 	0.82619	0.2649	0.5162	-0.261
Mof_O 	O 	0.73937	0.2795	0.5468	-0.261
Mof_O 	O 	0.6518	0.3336	0.8179	-0.27
Mof_O 	O 	0.7298	0.4021	0.7887	-0.278
Mof_O 	O 	0.7263	0.6319	0.6952	-0.103
Mof_O 	O 	0.71548	0.5072	0.4758	-0.142
Mof_C 	C 	0.8193	0.5983	0.6932	0.071
Mof_H 	H 	0.8259	0.6641	0.7194	0.035
Mof_C 	C 	0.8609	0.533	0.6734	-0.11
Mof_H 	H 	0.896	0.5518	0.6899	0.073
Mof_C 	C 	0.8521	0.4359	0.6279	0.046
Mof_H 	H 	0.8811	0.3924	0.6117	0.035
Mof_C 	C 	0.7997	0.4078	0.6083	-0.093
Mof_C 	C 	0.7572	0.4752	0.6335	0.098
Mof_C 	C 	0.6987	0.4548	0.6177	0.104
Mof_C 	C 	0.6621	0.4162	0.6795	-0.102
Mof_C 	C 	0.6081	0.4046	0.6573	0.052
Mof_H 	H 	0.5837	0.3769	0.6975	0.027
Mof_C 	C 	0.5901	0.4341	0.5756	-0.119
Mof_H 	H 	0.5535	0.4288	0.5613	0.076
Mof_C 	C 	0.6271	0.4711	0.5159	0.073
Mof_H 	H 	0.6157	0.4899	0.4605	0.032
Mof_C 	C 	0.7872	0.3086	0.5551	0.321
Mof_C 	C 	0.683	0.3828	0.7692	0.342
Mof_C 	C 	0.6366	0.1761	0.4658	0.103
Mof_H 	H 	0.6455	0.245	0.4842	0.019
Mof_C 	C 	0.5843	0.1389	0.4792	-0.175
Mof_H 	H 	0.5585	0.183	0.5049	0.095
Mof_C 	C 	0.5707	0.0356	0.454	0.132
Mof_C 	C 	0.6094	0.9755	0.4147	-0.19
Mof_H 	H 	0.6016	0.9062	0.3964	0.111
Mof_C 	C 	0.66	0.0179	0.4022	0.118
Mof_H 	H 	0.6859	0.9755	0.3746	0.017
Mof_C 	C 	0.5166	0.984	0.4748	-0.084
Mof_H 	H 	0.5083	0.921	0.4454	0.062
Mof_Cd	Cd	0.73602	0.32527	0.92244	0.457
Mof_N 	N 	0.7321	0.9314	0.175	-0.076
Mof_N 	N 	0.8208	0.0199	0.0375	-0.078
Mof_N 	N 	0.82532	0.3835	0.9273	-0.153
Mof_O 	O 	0.67381	0.2351	0.0162	-0.261
Mof_O 	O 	0.76063	0.2205	0.0468	-0.261
Mof_O 	O 	0.8482	0.1664	0.3179	-0.27
Mof_O 	O 	0.7702	0.0979	0.2887	-0.278
Mof_O 	O 	0.7737	0.8681	0.1952	-0.103
Mof_O 	O 	0.78452	0.9928	0.9758	-0.143
Mof_C 	C 	0.6807	0.9017	0.1932	0.07
Mof_H 	H 	0.6741	0.8359	0.2194	0.035
Mof_C 	C 	0.6391	0.967	0.1734	-0.108
Mof_H 	H 	0.604	0.9482	0.1899	0.073
Mof_C 	C 	0.6479	0.0641	0.1279	0.044
Mof_H 	H 	0.6189	0.1076	0.1117	0.035
Mof_C 	C 	0.7003	0.0922	0.1083	-0.093
Mof_C 	C 	0.7428	0.0248	0.1335	0.098
Mof_C 	C 	0.8013	0.0452	0.1177	0.104
Mof_C 	C 	0.8379	0.0838	0.1795	-0.102
Mof_C 	C 	0.8919	0.0954	0.1573	0.051
Mof_H 	H 	0.9163	0.1231	0.1975	0.028
Mof_C 	C 	0.9099	0.0659	0.0756	-0.118
Mof_H 	H 	0.9465	0.0712	0.0613	0.075
Mof_C 	C 	0.8729	0.0289	0.0159	0.071
Mof_H 	H 	0.8843	0.0101	0.9605	0.033
Mof_C 	C 	0.7128	0.1914	0.0551	0.321
Mof_C 	C 	0.817	0.1172	0.2692	0.342
Mof_C 	C 	0.8634	0.3239	0.9658	0.103
Mof_H 	H 	0.8545	0.255	0.9842	0.019
Mof_C 	C 	0.9157	0.3611	0.9792	-0.175
Mof_H 	H 	0.9415	0.317	0.0049	0.095
Mof_C 	C 	0.9293	0.4644	0.954	0.132
Mof_C 	C 	0.8906	0.5245	0.9147	-0.191
Mof_H 	H 	0.8984	0.5938	0.8964	0.111
Mof_C 	C 	0.84	0.4821	0.9022	0.119
Mof_H 	H 	0.8141	0.5245	0.8746	0.016
Mof_C 	C 	0.9834	0.516	0.9748	-0.084
Mof_H 	H 	0.9917	0.579	0.9454	0.062
Mof_Cd	Cd	0.23602	0.17473	0.07756	0.456
Mof_N 	N 	0.2321	0.5686	0.825	-0.077
Mof_N 	N 	0.3208	0.4801	0.9625	-0.078
Mof_N 	N 	0.32532	0.1165	0.0727	-0.152
Mof_O 	O 	0.17381	0.2649	0.9838	-0.261
Mof_O 	O 	0.26063	0.2795	0.9532	-0.261
Mof_O 	O 	0.3482	0.3336	0.6821	-0.27
Mof_O 	O 	0.2702	0.4021	0.7113	-0.278
Mof_O 	O 	0.2737	0.6319	0.8048	-0.103
Mof_O 	O 	0.28452	0.5072	0.0242	-0.143
Mof_C 	C 	0.1807	0.5983	0.8068	0.071
Mof_H 	H 	0.1741	0.6641	0.7806	0.035
Mof_C 	C 	0.1391	0.533	0.8266	-0.11
Mof_H 	H 	0.104	0.5518	0.8101	0.073
Mof_C 	C 	0.1479	0.4359	0.8721	0.046
Mof_H 	H 	0.1189	0.3924	0.8883	0.035
Mof_C 	C 	0.2003	0.4078	0.8917	-0.093
Mof_C 	C 	0.2428	0.4752	0.8665	0.098
Mof_C 	C 	0.3013	0.4548	0.8823	0.104
Mof_C 	C 	0.3379	0.4162	0.8205	-0.102
Mof_C 	C 	0.3919	0.4046	0.8427	0.052
Mof_H 	H 	0.4163	0.3769	0.8025	0.027
Mof_C 	C 	0.4099	0.4341	0.9244	-0.119
Mof_H 	H 	0.4465	0.4288	0.9387	0.076
Mof_C 	C 	0.3729	0.4711	0.9841	0.073
Mof_H 	H 	0.3843	0.4899	0.0395	0.031
Mof_C 	C 	0.2128	0.3086	0.9449	0.321
Mof_C 	C 	0.317	0.3828	0.7308	0.342
Mof_C 	C 	0.3634	0.1761	0.0342	0.102
Mof_H 	H 	0.3545	0.245	0.0158	0.019
Mof_C 	C 	0.4157	0.1389	0.0208	-0.175
Mof_H 	H 	0.4415	0.183	0.9951	0.095
Mof_C 	C 	0.4293	0.0356	0.046	0.129
Mof_C 	C 	0.3906	0.9755	0.0853	-0.186
Mof_H 	H 	0.3984	0.9062	0.1036	0.11
Mof_C 	C 	0.34	0.0179	0.0978	0.114
Mof_H 	H 	0.3141	0.9755	0.1254	0.019
Mof_C 	C 	0.4834	0.984	0.0252	-0.083
Mof_H 	H 	0.4917	0.921	0.0546	0.061
Mof_Cd	Cd	0.26398	0.32527	0.57756	0.457
Mof_N 	N 	0.2679	0.9314	0.325	-0.076
Mof_N 	N 	0.1792	0.0199	0.4625	-0.078
Mof_N 	N 	0.17468	0.3835	0.5727	-0.153
Mof_O 	O 	0.32619	0.2351	0.4838	-0.261
Mof_O 	O 	0.23937	0.2205	0.4532	-0.261
Mof_O 	O 	0.1518	0.1664	0.1821	-0.271
Mof_O 	O 	0.2298	0.0979	0.2113	-0.278
Mof_O 	O 	0.2263	0.8681	0.3048	-0.103
Mof_O 	O 	0.21548	0.9928	0.5242	-0.142
Mof_C 	C 	0.3193	0.9017	0.3068	0.071
Mof_H 	H 	0.3259	0.8359	0.2806	0.035
Mof_C 	C 	0.3609	0.967	0.3266	-0.109
Mof_H 	H 	0.396	0.9482	0.3101	0.073
Mof_C 	C 	0.3521	0.0641	0.3721	0.045
Mof_H 	H 	0.3811	0.1076	0.3883	0.035
Mof_C 	C 	0.2997	0.0922	0.3917	-0.093
Mof_C 	C 	0.2572	0.0248	0.3665	0.098
Mof_C 	C 	0.1987	0.0452	0.3823	0.104
Mof_C 	C 	0.1621	0.0838	0.3205	-0.103
Mof_C 	C 	0.1081	0.0954	0.3427	0.052
Mof_H 	H 	0.0837	0.1231	0.3025	0.027
Mof_C 	C 	0.0901	0.0659	0.4244	-0.119
Mof_H 	H 	0.0535	0.0712	0.4387	0.076
Mof_C 	C 	0.1271	0.0289	0.4841	0.073
Mof_H 	H 	0.1157	0.0101	0.5395	0.032
Mof_C 	C 	0.2872	0.1914	0.4449	0.321
Mof_C 	C 	0.183	0.1172	0.2308	0.342
Mof_C 	C 	0.1366	0.3239	0.5342	0.103
Mof_H 	H 	0.1455	0.255	0.5158	0.019
Mof_C 	C 	0.0843	0.3611	0.5208	-0.176
Mof_H 	H 	0.0585	0.317	0.4951	0.095
Mof_C 	C 	0.0707	0.4644	0.546	0.133
Mof_C 	C 	0.1094	0.5245	0.5853	-0.191
Mof_H 	H 	0.1016	0.5938	0.6036	0.111
Mof_C 	C 	0.16	0.4821	0.5978	0.119
Mof_H 	H 	0.1859	0.5245	0.6254	0.016
Mof_C 	C 	0.0166	0.516	0.5252	-0.084
Mof_H 	H 	0.0083	0.579	0.5546	0.062
_end
