data_functionalizedCrystal
_audit_creation_method	'EQeq! by Chris Wilmer'
_symmetry_space_group_name_H-M	'P1'
_symmetry_Int_Tables_number	1
_symmetry_cell_setting	triclinic
loop_
_symmetry_equiv_pos_as_xyz
  x,y,z
_cell_length_a	30.7018
_cell_length_b	30.7018
_cell_length_c	30.7018
_cell_angle_alpha	109.471
_cell_angle_beta	109.471
_cell_angle_gamma	109.471
loop_
_atom_site_label
_atom_site_type_symbol
_atom_site_fract_x
_atom_site_fract_y
_atom_site_fract_z
_atom_site_charge
Mof_Mn	Mn	0.5	0	0.5	0.675
Mof_Mn	Mn	-0	0	-0	0.614
Mof_Mn	Mn	0.5	0.5	-0	0.677
Mof_Mn	Mn	2.04125e-17	0.5	0.5	0.677
Mof_Mn	Mn	0.5	0	-0	0.647
Mof_Mn	Mn	0.5	0.5	0.5	0.711
Mof_Mn	Mn	2.04125e-17	0	0.5	0.641
Mof_Mn	Mn	-0	0.5	-0	0.646
Mof_Mn	Mn	0.5	0.13196	0.5	0.558
Mof_Mn	Mn	0.13196	0	-0	0.503
Mof_Mn	Mn	0.36804	0.36804	0.86804	0.566
Mof_Mn	Mn	-2.04125e-17	0.5	0.63196	0.528
Mof_Mn	Mn	0.36804	0	-0	0.506
Mof_Mn	Mn	0.5	0.36804	0.5	0.562
Mof_Mn	Mn	0.13196	0.13196	0.63196	0.556
Mof_Mn	Mn	2.04125e-17	0.5	0.86804	0.534
Mof_Mn	Mn	0.5	0.86804	0.5	0.571
Mof_Mn	Mn	0.86804	0	-0	0.517
Mof_Mn	Mn	0.63196	0.63196	0.13196	0.563
Mof_Mn	Mn	3.06188e-17	0.5	0.36804	0.54
Mof_Mn	Mn	0.63196	0	-0	0.511
Mof_Mn	Mn	0.5	0.63196	0.5	0.566
Mof_Mn	Mn	0.86804	0.86804	0.36804	0.576
Mof_Mn	Mn	2.55157e-17	0.5	0.13196	0.537
Mof_H 	H 	0.6905	0.164	0.3875	0.083
Mof_H 	H 	0.6338	0.1563	0.4215	0.019
Mof_H 	H 	0.7249	0.0624	0.4195	0.081
Mof_H 	H 	0.6672	0.0506	0.4512	0.024
Mof_H 	H 	0.2765	0.303	0.1125	0.083
Mof_H 	H 	0.2348	0.2123	0.0785	0.015
Mof_H 	H 	0.1429	0.3054	0.0805	0.08
Mof_H 	H 	0.0994	0.216	0.0488	0.019
Mof_H 	H 	0.2235	0.336	0.0265	0.052
Mof_H 	H 	0.2652	0.3437	0.9775	0.076
Mof_H 	H 	0.3571	0.4376	0.1625	0.068
Mof_H 	H 	0.4006	0.4494	0.1166	0.045
Mof_H 	H 	0.8095	0.197	0.4735	0.083
Mof_H 	H 	0.8662	0.2877	0.5225	0.024
Mof_H 	H 	0.7751	0.1946	0.3375	0.083
Mof_H 	H 	0.8328	0.284	0.3834	0.03
Mof_H 	H 	0.5265	0.2235	0.836	0.086
Mof_H 	H 	0.4775	0.2652	0.8437	0.016
Mof_H 	H 	0.6625	0.3571	0.9376	0.091
Mof_H 	H 	0.6166	0.4006	0.9494	0.028
Mof_H 	H 	0.9735	0.8095	0.697	0.118
Mof_H 	H 	0.0225	0.8662	0.7877	-0.037
Mof_H 	H 	0.8375	0.7751	0.6946	0.104
Mof_H 	H 	0.8834	0.8328	0.784	0.011
Mof_H 	H 	0.8875	0.6905	0.664	0.089
Mof_H 	H 	0.9215	0.6338	0.6563	0.021
Mof_H 	H 	0.9195	0.7249	0.5624	0.09
Mof_H 	H 	0.9512	0.6672	0.5506	0.03
Mof_H 	H 	0.6125	0.2765	0.803	0.088
Mof_H 	H 	0.5785	0.2348	0.7123	0.015
Mof_H 	H 	0.5805	0.1429	0.8054	0.087
Mof_H 	H 	0.5488	0.0994	0.716	0.019
Mof_H 	H 	0.303	0.6125	0.7765	0.087
Mof_H 	H 	0.2123	0.5785	0.7348	0.018
Mof_H 	H 	0.3054	0.5805	0.6429	0.086
Mof_H 	H 	0.216	0.5488	0.5994	0.026
Mof_H 	H 	0.164	0.8875	0.1905	0.085
Mof_H 	H 	0.1563	0.9215	0.1338	0.019
Mof_H 	H 	0.0624	0.9195	0.2249	0.085
Mof_H 	H 	0.0506	0.9512	0.1672	0.026
Mof_H 	H 	0.197	0.9735	0.3095	0.116
Mof_H 	H 	0.2877	0.0225	0.3662	-0.044
Mof_H 	H 	0.1946	0.8375	0.2751	0.102
Mof_H 	H 	0.284	0.8834	0.3328	0.008
Mof_H 	H 	0.336	0.5265	0.7235	0.085
Mof_H 	H 	0.3437	0.4775	0.7652	0.018
Mof_H 	H 	0.4376	0.6625	0.8571	0.088
Mof_H 	H 	0.4494	0.6166	0.9006	0.032
Mof_H 	H 	0.336	0.8095	0.1125	0.083
Mof_H 	H 	0.3437	0.8662	0.0785	0.021
Mof_H 	H 	0.4376	0.7751	0.0805	0.082
Mof_H 	H 	0.4494	0.8328	0.0488	0.027
Mof_H 	H 	0.197	0.2235	0.3875	0.081
Mof_H 	H 	0.2877	0.2652	0.4215	0.018
Mof_H 	H 	0.1946	0.3571	0.4195	0.083
Mof_H 	H 	0.284	0.4006	0.4512	0.028
Mof_H 	H 	0.164	0.2765	0.4735	0.083
Mof_H 	H 	0.1563	0.2348	0.5225	0.018
Mof_H 	H 	0.0624	0.1429	0.3375	0.079
Mof_H 	H 	0.0506	0.0994	0.3834	0.019
Mof_H 	H 	0.303	0.6905	0.0265	0.055
Mof_H 	H 	0.2123	0.6338	0.9775	0.075
Mof_H 	H 	0.3054	0.7249	0.1625	0.069
Mof_H 	H 	0.216	0.6672	0.1166	0.044
Mof_H 	H 	0.2765	0.9735	0.664	0.118
Mof_H 	H 	0.2348	0.0225	0.6563	-0.044
Mof_H 	H 	0.1429	0.8375	0.5624	0.102
Mof_H 	H 	0.0994	0.8834	0.5506	0.002
Mof_H 	H 	0.6905	0.5265	0.803	0.088
Mof_H 	H 	0.6338	0.4775	0.7123	0.016
Mof_H 	H 	0.7249	0.6625	0.8054	0.089
Mof_H 	H 	0.6672	0.6166	0.716	0.025
Mof_H 	H 	0.8095	0.6125	0.836	0.088
Mof_H 	H 	0.8662	0.5785	0.8437	0.021
Mof_H 	H 	0.7751	0.5805	0.9376	0.09
Mof_H 	H 	0.8328	0.5488	0.9494	0.031
Mof_H 	H 	0.2235	0.8875	0.697	0.087
Mof_H 	H 	0.2652	0.9215	0.7877	0.021
Mof_H 	H 	0.3571	0.9195	0.6946	0.09
Mof_H 	H 	0.4006	0.9512	0.784	0.03
Mof_H 	H 	0.8875	0.197	0.7235	0.085
Mof_H 	H 	0.9215	0.2877	0.7652	0.023
Mof_H 	H 	0.9195	0.1946	0.8571	0.089
Mof_H 	H 	0.9512	0.284	0.9006	0.036
Mof_H 	H 	0.6125	0.336	0.3095	0.085
Mof_H 	H 	0.5785	0.3437	0.3662	0.017
Mof_H 	H 	0.5805	0.4376	0.2751	0.086
Mof_H 	H 	0.5488	0.4494	0.3328	0.026
Mof_H 	H 	0.5265	0.303	0.1905	0.085
Mof_H 	H 	0.4775	0.2123	0.1338	0.014
Mof_H 	H 	0.6625	0.3054	0.2249	0.086
Mof_H 	H 	0.6166	0.216	0.1672	0.024
Mof_H 	H 	0.9735	0.164	0.7765	0.117
Mof_H 	H 	0.0225	0.1563	0.7348	-0.042
Mof_H 	H 	0.8375	0.0624	0.6429	0.099
Mof_H 	H 	0.8834	0.0506	0.5994	0.005
Mof_H 	H 	0.3095	0.836	0.6125	0.088
Mof_H 	H 	0.3662	0.8437	0.5785	0.017
Mof_H 	H 	0.2751	0.9376	0.5805	0.09
Mof_H 	H 	0.3328	0.9494	0.5488	0.028
Mof_H 	H 	0.7235	0.697	0.8875	0.088
Mof_H 	H 	0.7652	0.7877	0.9215	0.024
Mof_H 	H 	0.8571	0.6946	0.9195	0.091
Mof_H 	H 	0.9006	0.784	0.9512	0.035
Mof_H 	H 	0.7765	0.664	0.9735	0.118
Mof_H 	H 	0.7348	0.6563	0.0225	-0.038
Mof_H 	H 	0.6429	0.5624	0.8375	0.103
Mof_H 	H 	0.5994	0.5506	0.8834	0.008
Mof_H 	H 	0.1905	0.803	0.5265	0.088
Mof_H 	H 	0.1338	0.7123	0.4775	0.014
Mof_H 	H 	0.2249	0.8054	0.6625	0.089
Mof_H 	H 	0.1672	0.716	0.6166	0.023
Mof_H 	H 	0.4735	0.7765	0.164	0.085
Mof_H 	H 	0.5225	0.7348	0.1563	0.02
Mof_H 	H 	0.3375	0.6429	0.0624	0.081
Mof_H 	H 	0.3834	0.5994	0.0506	0.024
Mof_H 	H 	0.0265	0.1905	0.303	0.052
Mof_H 	H 	0.9775	0.1338	0.2123	0.078
Mof_H 	H 	0.1625	0.2249	0.3054	0.067
Mof_H 	H 	0.1166	0.1672	0.216	0.044
Mof_H 	H 	0.1125	0.3095	0.336	0.082
Mof_H 	H 	0.0785	0.3662	0.3437	0.017
Mof_H 	H 	0.0805	0.2751	0.4376	0.081
Mof_H 	H 	0.0488	0.3328	0.4494	0.023
Mof_H 	H 	0.3875	0.7235	0.197	0.082
Mof_H 	H 	0.4215	0.7652	0.2877	0.021
Mof_H 	H 	0.4195	0.8571	0.1946	0.085
Mof_H 	H 	0.4512	0.9006	0.284	0.033
Mof_H 	H 	0.697	0.3875	0.2235	0.084
Mof_H 	H 	0.7877	0.4215	0.2652	0.02
Mof_H 	H 	0.6946	0.4195	0.3571	0.086
Mof_H 	H 	0.784	0.4512	0.4006	0.027
Mof_H 	H 	0.836	0.1125	0.8095	0.086
Mof_H 	H 	0.8437	0.0785	0.8662	0.021
Mof_H 	H 	0.9376	0.0805	0.7751	0.087
Mof_H 	H 	0.9494	0.0488	0.8328	0.029
Mof_H 	H 	0.803	0.0265	0.6905	0.056
Mof_H 	H 	0.7123	0.9775	0.6338	0.078
Mof_H 	H 	0.8054	0.1625	0.7249	0.071
Mof_H 	H 	0.716	0.1166	0.6672	0.044
Mof_H 	H 	0.664	0.4735	0.2765	0.086
Mof_H 	H 	0.6563	0.5225	0.2348	0.018
Mof_H 	H 	0.5624	0.3375	0.1429	0.084
Mof_H 	H 	0.5506	0.3834	0.0994	0.021
Mof_H 	H 	0.664	0.1905	0.8875	0.088
Mof_H 	H 	0.6563	0.1338	0.9215	0.019
Mof_H 	H 	0.5624	0.2249	0.9195	0.089
Mof_H 	H 	0.5506	0.1672	0.9512	0.027
Mof_H 	H 	0.803	0.7765	0.6125	0.09
Mof_H 	H 	0.7123	0.7348	0.5785	0.018
Mof_H 	H 	0.8054	0.6429	0.5805	0.089
Mof_H 	H 	0.716	0.5994	0.5488	0.024
Mof_H 	H 	0.836	0.7235	0.5265	0.088
Mof_H 	H 	0.8437	0.7652	0.4775	0.018
Mof_H 	H 	0.9376	0.8571	0.6625	0.093
Mof_H 	H 	0.9494	0.9006	0.6166	0.034
Mof_H 	H 	0.697	0.3095	0.9735	0.117
Mof_H 	H 	0.7877	0.3662	0.0225	-0.039
Mof_H 	H 	0.6946	0.2751	0.8375	0.103
Mof_H 	H 	0.784	0.3328	0.8834	0.009
Mof_H 	H 	0.7235	0.0265	0.336	0.052
Mof_H 	H 	0.7652	0.9775	0.3437	0.081
Mof_H 	H 	0.8571	0.1625	0.4376	0.07
Mof_H 	H 	0.9006	0.1166	0.4494	0.051
Mof_H 	H 	0.3095	0.4735	0.197	0.083
Mof_H 	H 	0.3662	0.5225	0.2877	0.02
Mof_H 	H 	0.2751	0.3375	0.1946	0.083
Mof_H 	H 	0.3328	0.3834	0.284	0.027
Mof_H 	H 	0.1905	0.3875	0.164	0.082
Mof_H 	H 	0.1338	0.4215	0.1563	0.017
Mof_H 	H 	0.2249	0.4195	0.0624	0.081
Mof_H 	H 	0.1672	0.4512	0.0506	0.022
Mof_H 	H 	0.7765	0.1125	0.303	0.084
Mof_H 	H 	0.7348	0.0785	0.2123	0.018
Mof_H 	H 	0.6429	0.0805	0.3054	0.081
Mof_H 	H 	0.5994	0.0488	0.216	0.023
Mof_H 	H 	0.1125	0.803	0.2765	0.086
Mof_H 	H 	0.0785	0.7123	0.2348	0.015
Mof_H 	H 	0.0805	0.8054	0.1429	0.083
Mof_H 	H 	0.0488	0.716	0.0994	0.017
Mof_H 	H 	0.3875	0.664	0.6905	0.086
Mof_H 	H 	0.4215	0.6563	0.6338	0.019
Mof_H 	H 	0.4195	0.5624	0.7249	0.086
Mof_H 	H 	0.4512	0.5506	0.6672	0.026
Mof_H 	H 	0.4735	0.697	0.8095	0.086
Mof_H 	H 	0.5225	0.7877	0.8662	0.025
Mof_H 	H 	0.3375	0.6946	0.7751	0.085
Mof_H 	H 	0.3834	0.784	0.8328	0.029
Mof_H 	H 	0.0265	0.836	0.2235	0.055
Mof_H 	H 	0.9775	0.8437	0.2652	0.077
Mof_H 	H 	0.1625	0.9376	0.3571	0.073
Mof_H 	H 	0.1166	0.9494	0.4006	0.047
Mof_C 	C 	0.6052	0.0895	0.4561	0.12
Mof_C 	C 	0.6421	0.0996	0.4375	-0.065
Mof_C 	C 	0.6862	0.1412	0.4014	-0.15
Mof_C 	C 	0.7145	0.117	0.4009	0.108
Mof_C 	C 	0.6507	0.1361	0.4204	0.027
Mof_C 	C 	0.7065	0.0812	0.4195	-0.144
Mof_C 	C 	0.6715	0.0739	0.4378	0.028
Mof_C 	C 	0.1334	0.1491	0.0439	0.117
Mof_C 	C 	0.1621	0.2046	0.0625	-0.069
Mof_C 	C 	0.2398	0.2848	0.0986	-0.153
Mof_C 	C 	0.2161	0.3136	0.0991	0.11
Mof_C 	C 	0.2157	0.2303	0.0796	0.028
Mof_C 	C 	0.1617	0.287	0.0805	-0.149
Mof_C 	C 	0.1361	0.2337	0.0622	0.03
Mof_C 	C 	0.3666	0.4105	0.0157	0.077
Mof_C 	C 	0.3379	0.4004	0.0425	-0.003
Mof_C 	C 	0.2602	0.3588	0.045	-0.08
Mof_C 	C 	0.2839	0.383	0.0975	0.068
Mof_C 	C 	0.2843	0.3639	0.0146	-0.082
Mof_C 	C 	0.3383	0.4188	0.1253	-0.1
Mof_C 	C 	0.3639	0.4261	0.0976	-0.023
Mof_C 	C 	0.8948	0.3509	0.4843	0.124
Mof_C 	C 	0.8579	0.2954	0.4575	-0.059
Mof_C 	C 	0.8138	0.2152	0.455	-0.146
Mof_C 	C 	0.7855	0.1864	0.4025	0.107
Mof_C 	C 	0.8493	0.2697	0.4854	0.026
Mof_C 	C 	0.7935	0.213	0.3747	-0.141
Mof_C 	C 	0.8285	0.2663	0.4024	0.027
Mof_C 	C 	0.5157	0.3666	0.9105	0.126
Mof_C 	C 	0.5425	0.3379	0.9004	-0.069
Mof_C 	C 	0.545	0.2602	0.8588	-0.163
Mof_C 	C 	0.5975	0.2839	0.883	0.126
Mof_C 	C 	0.5146	0.2843	0.8639	0.038
Mof_C 	C 	0.6253	0.3383	0.9188	-0.156
Mof_C 	C 	0.5976	0.3639	0.9261	0.04
Mof_C 	C 	0.9843	0.8948	0.8509	0.173
Mof_C 	C 	0.9575	0.8579	0.7954	-0.127
Mof_C 	C 	0.955	0.8138	0.7152	-0.233
Mof_C 	C 	0.9025	0.7855	0.6864	0.166
Mof_C 	C 	0.9854	0.8493	0.7697	0.149
Mof_C 	C 	0.8747	0.7935	0.713	-0.199
Mof_C 	C 	0.9024	0.8285	0.7663	0.091
Mof_C 	C 	0.9561	0.6052	0.5895	0.127
Mof_C 	C 	0.9375	0.6421	0.5996	-0.066
Mof_C 	C 	0.9014	0.6862	0.6412	-0.161
Mof_C 	C 	0.9009	0.7145	0.617	0.125
Mof_C 	C 	0.9204	0.6507	0.6361	0.038
Mof_C 	C 	0.9195	0.7065	0.5812	-0.154
Mof_C 	C 	0.9378	0.6715	0.5739	0.038
Mof_C 	C 	0.5439	0.1334	0.6491	0.123
Mof_C 	C 	0.5625	0.1621	0.7046	-0.074
Mof_C 	C 	0.5986	0.2398	0.7848	-0.167
Mof_C 	C 	0.5991	0.2161	0.8136	0.127
Mof_C 	C 	0.5796	0.2157	0.7303	0.039
Mof_C 	C 	0.5805	0.1617	0.787	-0.16
Mof_C 	C 	0.5622	0.1361	0.7337	0.04
Mof_C 	C 	0.1491	0.5439	0.6334	0.122
Mof_C 	C 	0.2046	0.5625	0.6621	-0.067
Mof_C 	C 	0.2848	0.5986	0.7398	-0.157
Mof_C 	C 	0.3136	0.5991	0.7161	0.117
Mof_C 	C 	0.2303	0.5796	0.7157	0.033
Mof_C 	C 	0.287	0.5805	0.6617	-0.151
Mof_C 	C 	0.2337	0.5622	0.6361	0.034
Mof_C 	C 	0.0895	0.9561	0.1052	0.122
Mof_C 	C 	0.0996	0.9375	0.1421	-0.067
Mof_C 	C 	0.1412	0.9014	0.1862	-0.157
Mof_C 	C 	0.117	0.9009	0.2145	0.117
Mof_C 	C 	0.1361	0.9204	0.1507	0.032
Mof_C 	C 	0.0812	0.9195	0.2065	-0.15
Mof_C 	C 	0.0739	0.9378	0.1715	0.033
Mof_C 	C 	0.3509	0.9843	0.3948	0.17
Mof_C 	C 	0.2954	0.9575	0.3579	-0.131
Mof_C 	C 	0.2152	0.955	0.3138	-0.231
Mof_C 	C 	0.1864	0.9025	0.2855	0.161
Mof_C 	C 	0.2697	0.9854	0.3493	0.149
Mof_C 	C 	0.213	0.8747	0.2935	-0.197
Mof_C 	C 	0.2663	0.9024	0.3285	0.089
Mof_C 	C 	0.4105	0.5157	0.8666	0.124
Mof_C 	C 	0.4004	0.5425	0.8379	-0.065
Mof_C 	C 	0.3588	0.545	0.7602	-0.156
Mof_C 	C 	0.383	0.5975	0.7839	0.117
Mof_C 	C 	0.3639	0.5146	0.7843	0.032
Mof_C 	C 	0.4188	0.6253	0.8383	-0.148
Mof_C 	C 	0.4261	0.5976	0.8639	0.033
Mof_C 	C 	0.4105	0.8948	0.0439	0.122
Mof_C 	C 	0.4004	0.8579	0.0625	-0.062
Mof_C 	C 	0.3588	0.8138	0.0986	-0.149
Mof_C 	C 	0.383	0.7855	0.0991	0.108
Mof_C 	C 	0.3639	0.8493	0.0796	0.027
Mof_C 	C 	0.4188	0.7935	0.0805	-0.144
Mof_C 	C 	0.4261	0.8285	0.0622	0.028
Mof_C 	C 	0.3509	0.3666	0.4561	0.121
Mof_C 	C 	0.2954	0.3379	0.4375	-0.063
Mof_C 	C 	0.2152	0.2602	0.4014	-0.148
Mof_C 	C 	0.1864	0.2839	0.4009	0.108
Mof_C 	C 	0.2697	0.2843	0.4204	0.026
Mof_C 	C 	0.213	0.3383	0.4195	-0.143
Mof_C 	C 	0.2663	0.3639	0.4378	0.028
Mof_C 	C 	0.0895	0.1334	0.4843	0.118
Mof_C 	C 	0.0996	0.1621	0.4575	-0.068
Mof_C 	C 	0.1412	0.2398	0.455	-0.152
Mof_C 	C 	0.117	0.2161	0.4025	0.108
Mof_C 	C 	0.1361	0.2157	0.4854	0.028
Mof_C 	C 	0.0812	0.1617	0.3747	-0.147
Mof_C 	C 	0.0739	0.1361	0.4024	0.028
Mof_C 	C 	0.1491	0.6052	0.0157	0.078
Mof_C 	C 	0.2046	0.6421	0.0425	-0.005
Mof_C 	C 	0.2848	0.6862	0.045	-0.082
Mof_C 	C 	0.3136	0.7145	0.0975	0.069
Mof_C 	C 	0.2303	0.6507	0.0146	-0.078
Mof_C 	C 	0.287	0.7065	0.1253	-0.101
Mof_C 	C 	0.2337	0.6715	0.0976	-0.021
Mof_C 	C 	0.1334	0.9843	0.5895	0.169
Mof_C 	C 	0.1621	0.9575	0.5996	-0.135
Mof_C 	C 	0.2398	0.955	0.6412	-0.238
Mof_C 	C 	0.2161	0.9025	0.617	0.169
Mof_C 	C 	0.2157	0.9854	0.6361	0.152
Mof_C 	C 	0.1617	0.8747	0.5812	-0.205
Mof_C 	C 	0.1361	0.9024	0.5739	0.093
Mof_C 	C 	0.6052	0.5157	0.6491	0.125
Mof_C 	C 	0.6421	0.5425	0.7046	-0.071
Mof_C 	C 	0.6862	0.545	0.7848	-0.165
Mof_C 	C 	0.7145	0.5975	0.8136	0.126
Mof_C 	C 	0.6507	0.5146	0.7303	0.039
Mof_C 	C 	0.7065	0.6253	0.787	-0.157
Mof_C 	C 	0.6715	0.5976	0.7337	0.04
Mof_C 	C 	0.8948	0.5439	0.9105	0.128
Mof_C 	C 	0.8579	0.5625	0.9004	-0.065
Mof_C 	C 	0.8138	0.5986	0.8588	-0.16
Mof_C 	C 	0.7855	0.5991	0.883	0.125
Mof_C 	C 	0.8493	0.5796	0.8639	0.037
Mof_C 	C 	0.7935	0.5805	0.9188	-0.154
Mof_C 	C 	0.8285	0.5622	0.9261	0.039
Mof_C 	C 	0.3666	0.9561	0.8509	0.128
Mof_C 	C 	0.3379	0.9375	0.7954	-0.065
Mof_C 	C 	0.2602	0.9014	0.7152	-0.16
Mof_C 	C 	0.2839	0.9009	0.6864	0.124
Mof_C 	C 	0.2843	0.9204	0.7697	0.036
Mof_C 	C 	0.3383	0.9195	0.713	-0.153
Mof_C 	C 	0.3639	0.9378	0.7663	0.038
Mof_C 	C 	0.9561	0.3509	0.8666	0.127
Mof_C 	C 	0.9375	0.2954	0.8379	-0.06
Mof_C 	C 	0.9014	0.2152	0.7602	-0.151
Mof_C 	C 	0.9009	0.1864	0.7839	0.115
Mof_C 	C 	0.9204	0.2697	0.7843	0.031
Mof_C 	C 	0.9195	0.213	0.8383	-0.144
Mof_C 	C 	0.9378	0.2663	0.8639	0.032
Mof_C 	C 	0.5439	0.4105	0.3948	0.123
Mof_C 	C 	0.5625	0.4004	0.3579	-0.068
Mof_C 	C 	0.5986	0.3588	0.3138	-0.158
Mof_C 	C 	0.5991	0.383	0.2855	0.117
Mof_C 	C 	0.5796	0.3639	0.3493	0.033
Mof_C 	C 	0.5805	0.4188	0.2935	-0.151
Mof_C 	C 	0.5622	0.4261	0.3285	0.034
Mof_C 	C 	0.5157	0.1491	0.1052	0.12
Mof_C 	C 	0.5425	0.2046	0.1421	-0.07
Mof_C 	C 	0.545	0.2848	0.1862	-0.159
Mof_C 	C 	0.5975	0.3136	0.2145	0.118
Mof_C 	C 	0.5146	0.2303	0.1507	0.033
Mof_C 	C 	0.6253	0.287	0.2065	-0.153
Mof_C 	C 	0.5976	0.2337	0.1715	0.034
Mof_C 	C 	0.9843	0.0895	0.6334	0.169
Mof_C 	C 	0.9575	0.0996	0.6621	-0.132
Mof_C 	C 	0.955	0.1412	0.7398	-0.232
Mof_C 	C 	0.9025	0.117	0.7161	0.16
Mof_C 	C 	0.9854	0.1361	0.7157	0.148
Mof_C 	C 	0.8747	0.0812	0.6617	-0.197
Mof_C 	C 	0.9024	0.0739	0.6361	0.088
Mof_C 	C 	0.3948	0.9105	0.5439	0.127
Mof_C 	C 	0.3579	0.9004	0.5625	-0.069
Mof_C 	C 	0.3138	0.8588	0.5986	-0.164
Mof_C 	C 	0.2855	0.883	0.5991	0.127
Mof_C 	C 	0.3493	0.8639	0.5796	0.039
Mof_C 	C 	0.2935	0.9188	0.5805	-0.157
Mof_C 	C 	0.3285	0.9261	0.5622	0.04
Mof_C 	C 	0.8666	0.8509	0.9561	0.13
Mof_C 	C 	0.8379	0.7954	0.9375	-0.062
Mof_C 	C 	0.7602	0.7152	0.9014	-0.158
Mof_C 	C 	0.7839	0.6864	0.9009	0.124
Mof_C 	C 	0.7843	0.7697	0.9204	0.036
Mof_C 	C 	0.8383	0.713	0.9195	-0.15
Mof_C 	C 	0.8639	0.7663	0.9378	0.037
Mof_C 	C 	0.6334	0.5895	0.9843	0.169
Mof_C 	C 	0.6621	0.5996	0.9575	-0.129
Mof_C 	C 	0.7398	0.6412	0.955	-0.232
Mof_C 	C 	0.7161	0.617	0.9025	0.166
Mof_C 	C 	0.7157	0.6361	0.9854	0.146
Mof_C 	C 	0.6617	0.5812	0.8747	-0.2
Mof_C 	C 	0.6361	0.5739	0.9024	0.09
Mof_C 	C 	0.1052	0.6491	0.5157	0.123
Mof_C 	C 	0.1421	0.7046	0.5425	-0.074
Mof_C 	C 	0.1862	0.7848	0.545	-0.167
Mof_C 	C 	0.2145	0.8136	0.5975	0.127
Mof_C 	C 	0.1507	0.7303	0.5146	0.039
Mof_C 	C 	0.2065	0.787	0.6253	-0.16
Mof_C 	C 	0.1715	0.7337	0.5976	0.04
Mof_C 	C 	0.4843	0.6334	0.0895	0.12
Mof_C 	C 	0.4575	0.6621	0.0996	-0.065
Mof_C 	C 	0.455	0.7398	0.1412	-0.151
Mof_C 	C 	0.4025	0.7161	0.117	0.109
Mof_C 	C 	0.4854	0.7157	0.1361	0.028
Mof_C 	C 	0.3747	0.6617	0.0812	-0.145
Mof_C 	C 	0.4024	0.6361	0.0739	0.028
Mof_C 	C 	0.0157	0.1052	0.1491	0.072
Mof_C 	C 	0.0425	0.1421	0.2046	-0.002
Mof_C 	C 	0.045	0.1862	0.2848	-0.077
Mof_C 	C 	0.0975	0.2145	0.3136	0.066
Mof_C 	C 	0.0146	0.1507	0.2303	-0.088
Mof_C 	C 	0.1253	0.2065	0.287	-0.099
Mof_C 	C 	0.0976	0.1715	0.2337	-0.026
Mof_C 	C 	0.0439	0.3948	0.4105	0.119
Mof_C 	C 	0.0625	0.3579	0.4004	-0.066
Mof_C 	C 	0.0986	0.3138	0.3588	-0.152
Mof_C 	C 	0.0991	0.2855	0.383	0.109
Mof_C 	C 	0.0796	0.3493	0.3639	0.027
Mof_C 	C 	0.0805	0.2935	0.4188	-0.146
Mof_C 	C 	0.0622	0.3285	0.4261	0.029
Mof_C 	C 	0.4561	0.8666	0.3509	0.123
Mof_C 	C 	0.4375	0.8379	0.2954	-0.06
Mof_C 	C 	0.4014	0.7602	0.2152	-0.147
Mof_C 	C 	0.4009	0.7839	0.1864	0.108
Mof_C 	C 	0.4204	0.7843	0.2697	0.026
Mof_C 	C 	0.4195	0.8383	0.213	-0.141
Mof_C 	C 	0.4378	0.8639	0.2663	0.028
Mof_C 	C 	0.8509	0.4561	0.3666	0.124
Mof_C 	C 	0.7954	0.4375	0.3379	-0.065
Mof_C 	C 	0.7152	0.4014	0.2602	-0.155
Mof_C 	C 	0.6864	0.4009	0.2839	0.117
Mof_C 	C 	0.7697	0.4204	0.2843	0.032
Mof_C 	C 	0.713	0.4195	0.3383	-0.15
Mof_C 	C 	0.7663	0.4378	0.3639	0.033
Mof_C 	C 	0.9105	0.0439	0.8948	0.125
Mof_C 	C 	0.9004	0.0625	0.8579	-0.064
Mof_C 	C 	0.8588	0.0986	0.8138	-0.155
Mof_C 	C 	0.883	0.0991	0.7855	0.117
Mof_C 	C 	0.8639	0.0796	0.8493	0.032
Mof_C 	C 	0.9188	0.0805	0.7935	-0.15
Mof_C 	C 	0.9261	0.0622	0.8285	0.034
Mof_C 	C 	0.6491	0.0157	0.6052	0.078
Mof_C 	C 	0.7046	0.0425	0.6421	-0.006
Mof_C 	C 	0.7848	0.045	0.6862	-0.086
Mof_C 	C 	0.8136	0.0975	0.7145	0.076
Mof_C 	C 	0.7303	0.0146	0.6507	-0.078
Mof_C 	C 	0.787	0.1253	0.7065	-0.106
Mof_C 	C 	0.7337	0.0976	0.6715	-0.018
Mof_C 	C 	0.5895	0.4843	0.1334	0.122
Mof_C 	C 	0.5996	0.4575	0.1621	-0.069
Mof_C 	C 	0.6412	0.455	0.2398	-0.158
Mof_C 	C 	0.617	0.4025	0.2161	0.118
Mof_C 	C 	0.6361	0.4854	0.2157	0.034
Mof_C 	C 	0.5812	0.3747	0.1617	-0.153
Mof_C 	C 	0.5739	0.4024	0.1361	0.035
Mof_C 	C 	0.5895	0.1052	0.9561	0.125
Mof_C 	C 	0.5996	0.1421	0.9375	-0.069
Mof_C 	C 	0.6412	0.1862	0.9014	-0.163
Mof_C 	C 	0.617	0.2145	0.9009	0.125
Mof_C 	C 	0.6361	0.1507	0.9204	0.038
Mof_C 	C 	0.5812	0.2065	0.9195	-0.156
Mof_C 	C 	0.5739	0.1715	0.9378	0.039
Mof_C 	C 	0.6491	0.6334	0.5439	0.125
Mof_C 	C 	0.7046	0.6621	0.5625	-0.071
Mof_C 	C 	0.7848	0.7398	0.5986	-0.165
Mof_C 	C 	0.8136	0.7161	0.5991	0.127
Mof_C 	C 	0.7303	0.7157	0.5796	0.039
Mof_C 	C 	0.787	0.6617	0.5805	-0.158
Mof_C 	C 	0.7337	0.6361	0.5622	0.04
Mof_C 	C 	0.9105	0.8666	0.5157	0.128
Mof_C 	C 	0.9004	0.8379	0.5425	-0.066
Mof_C 	C 	0.8588	0.7602	0.545	-0.162
Mof_C 	C 	0.883	0.7839	0.5975	0.126
Mof_C 	C 	0.8639	0.7843	0.5146	0.038
Mof_C 	C 	0.9188	0.8383	0.6253	-0.154
Mof_C 	C 	0.9261	0.8639	0.5976	0.039
Mof_C 	C 	0.8509	0.3948	0.9843	0.17
Mof_C 	C 	0.7954	0.3579	0.9575	-0.128
Mof_C 	C 	0.7152	0.3138	0.955	-0.232
Mof_C 	C 	0.6864	0.2855	0.9025	0.166
Mof_C 	C 	0.7697	0.3493	0.9854	0.146
Mof_C 	C 	0.713	0.2935	0.8747	-0.2
Mof_C 	C 	0.7663	0.3285	0.9024	0.09
Mof_C 	C 	0.8666	0.0157	0.4105	0.078
Mof_C 	C 	0.8379	0.0425	0.4004	0.002
Mof_C 	C 	0.7602	0.045	0.3588	-0.075
Mof_C 	C 	0.7839	0.0975	0.383	0.066
Mof_C 	C 	0.7843	0.0146	0.3639	-0.086
Mof_C 	C 	0.8383	0.1253	0.4188	-0.096
Mof_C 	C 	0.8639	0.0976	0.4261	-0.025
Mof_C 	C 	0.3948	0.4843	0.3509	0.122
Mof_C 	C 	0.3579	0.4575	0.2954	-0.063
Mof_C 	C 	0.3138	0.455	0.2152	-0.149
Mof_C 	C 	0.2855	0.4025	0.1864	0.109
Mof_C 	C 	0.3493	0.4854	0.2697	0.027
Mof_C 	C 	0.2935	0.3747	0.213	-0.144
Mof_C 	C 	0.3285	0.4024	0.2663	0.029
Mof_C 	C 	0.1052	0.4561	0.0895	0.118
Mof_C 	C 	0.1421	0.4375	0.0996	-0.067
Mof_C 	C 	0.1862	0.4014	0.1412	-0.152
Mof_C 	C 	0.2145	0.4009	0.117	0.109
Mof_C 	C 	0.1507	0.4204	0.1361	0.028
Mof_C 	C 	0.2065	0.4195	0.0812	-0.146
Mof_C 	C 	0.1715	0.4378	0.0739	0.028
Mof_C 	C 	0.6334	0.0439	0.1491	0.119
Mof_C 	C 	0.6621	0.0625	0.2046	-0.066
Mof_C 	C 	0.7398	0.0986	0.2848	-0.152
Mof_C 	C 	0.7161	0.0991	0.3136	0.109
Mof_C 	C 	0.7157	0.0796	0.2303	0.028
Mof_C 	C 	0.6617	0.0805	0.287	-0.146
Mof_C 	C 	0.6361	0.0622	0.2337	0.029
Mof_C 	C 	0.0439	0.6491	0.1334	0.12
Mof_C 	C 	0.0625	0.7046	0.1621	-0.073
Mof_C 	C 	0.0986	0.7848	0.2398	-0.162
Mof_C 	C 	0.0991	0.8136	0.2161	0.119
Mof_C 	C 	0.0796	0.7303	0.2157	0.034
Mof_C 	C 	0.0805	0.787	0.1617	-0.156
Mof_C 	C 	0.0622	0.7337	0.1361	0.036
Mof_C 	C 	0.4561	0.5895	0.6052	0.123
Mof_C 	C 	0.4375	0.5996	0.6421	-0.067
Mof_C 	C 	0.4014	0.6412	0.6862	-0.156
Mof_C 	C 	0.4009	0.617	0.7145	0.117
Mof_C 	C 	0.4204	0.6361	0.6507	0.033
Mof_C 	C 	0.4195	0.5812	0.7065	-0.15
Mof_C 	C 	0.4378	0.5739	0.6715	0.034
Mof_C 	C 	0.4843	0.8509	0.8948	0.127
Mof_C 	C 	0.4575	0.7954	0.8579	-0.061
Mof_C 	C 	0.455	0.7152	0.8138	-0.153
Mof_C 	C 	0.4025	0.6864	0.7855	0.116
Mof_C 	C 	0.4854	0.7697	0.8493	0.031
Mof_C 	C 	0.3747	0.713	0.7935	-0.147
Mof_C 	C 	0.4024	0.7663	0.8285	0.032
Mof_C 	C 	0.0157	0.9105	0.3666	0.08
Mof_C 	C 	0.0425	0.9004	0.3379	-0.004
Mof_C 	C 	0.045	0.8588	0.2602	-0.085
Mof_C 	C 	0.0975	0.883	0.2839	0.076
Mof_C 	C 	0.0146	0.8639	0.2843	-0.079
Mof_C 	C 	0.1253	0.9188	0.3383	-0.105
Mof_C 	C 	0.0976	0.9261	0.3639	-0.018
Mof_C 	C 	0.75	0.125	0.375	-0.123
Mof_C 	C 	0.25	0.375	0.125	-0.125
Mof_C 	C 	0.625	0.25	0.875	-0.162
Mof_C 	C 	0.875	0.75	0.625	-0.162
Mof_C 	C 	0.375	0.625	0.75	-0.142
Mof_C 	C 	0.125	0.875	0.25	-0.144
Mof_C 	C 	0.375	0.75	0.125	-0.124
Mof_C 	C 	0.125	0.25	0.375	-0.124
Mof_C 	C 	0.25	0.875	0.625	-0.163
Mof_C 	C 	0.75	0.625	0.875	-0.161
Mof_C 	C 	0.875	0.125	0.75	-0.143
Mof_C 	C 	0.625	0.375	0.25	-0.144
Mof_N 	N 	0.584	0.0482	0.4658	-0.099
Mof_N 	N 	0.5516	0.0581	0.4811	-0.101
Mof_N 	N 	0.5509	0.0996	0.4809	-0.111
Mof_N 	N 	0.5833	0.1201	0.4664	-0.111
Mof_N 	N 	0.0824	0.1182	0.0342	-0.102
Mof_N 	N 	0.077	0.0705	0.0189	-0.105
Mof_N 	N 	0.1187	0.07	0.0191	-0.114
Mof_N 	N 	0.1537	0.1169	0.0336	-0.115
Mof_N 	N 	0.4176	0.4518	0.0358	-0.1
Mof_N 	N 	0.423	0.4419	0.9935	-0.081
Mof_N 	N 	0.3813	0.4004	0.9513	-0.108
Mof_N 	N 	0.3463	0.3799	0.9632	-0.091
Mof_N 	N 	0.916	0.3818	0.4642	-0.09
Mof_N 	N 	0.9484	0.4295	0.5065	-0.091
Mof_N 	N 	0.9491	0.43	0.5487	-0.1
Mof_N 	N 	0.9167	0.3831	0.5368	-0.106
Mof_N 	N 	0.5358	0.4176	0.9518	-0.09
Mof_N 	N 	0.4935	0.423	0.9419	-0.093
Mof_N 	N 	0.4513	0.3813	0.9004	-0.109
Mof_N 	N 	0.4632	0.3463	0.8799	-0.111
Mof_N 	N 	0.9642	0.916	0.8818	-0.083
Mof_N 	N 	0.0065	0.9484	0.9295	-0.096
Mof_N 	N 	0.0487	0.9491	0.93	-0.093
Mof_N 	N 	0.0368	0.9167	0.8831	-0.124
Mof_N 	N 	0.9658	0.584	0.5482	-0.091
Mof_N 	N 	0.9811	0.5516	0.5581	-0.09
Mof_N 	N 	0.9809	0.5509	0.5996	-0.1
Mof_N 	N 	0.9664	0.5833	0.6201	-0.106
Mof_N 	N 	0.5342	0.0824	0.6182	-0.099
Mof_N 	N 	0.5189	0.077	0.5705	-0.102
Mof_N 	N 	0.5191	0.1187	0.57	-0.111
Mof_N 	N 	0.5336	0.1537	0.6169	-0.112
Mof_N 	N 	0.1182	0.5342	0.5824	-0.095
Mof_N 	N 	0.0705	0.5189	0.577	-0.102
Mof_N 	N 	0.07	0.5191	0.6187	-0.112
Mof_N 	N 	0.1169	0.5336	0.6537	-0.111
Mof_N 	N 	0.0482	0.9658	0.084	-0.097
Mof_N 	N 	0.0581	0.9811	0.0516	-0.092
Mof_N 	N 	0.0996	0.9809	0.0509	-0.101
Mof_N 	N 	0.1201	0.9664	0.0833	-0.108
Mof_N 	N 	0.3818	0.9642	0.416	-0.089
Mof_N 	N 	0.4295	0.0065	0.4484	-0.114
Mof_N 	N 	0.43	0.0487	0.4491	-0.112
Mof_N 	N 	0.3831	0.0368	0.4167	-0.132
Mof_N 	N 	0.4518	0.5358	0.9176	-0.09
Mof_N 	N 	0.4419	0.4935	0.923	-0.093
Mof_N 	N 	0.4004	0.4513	0.8813	-0.109
Mof_N 	N 	0.3799	0.4632	0.8463	-0.111
Mof_N 	N 	0.4518	0.916	0.0342	-0.093
Mof_N 	N 	0.4419	0.9484	0.0189	-0.093
Mof_N 	N 	0.4004	0.9491	0.0191	-0.102
Mof_N 	N 	0.3799	0.9167	0.0336	-0.109
Mof_N 	N 	0.3818	0.4176	0.4658	-0.095
Mof_N 	N 	0.4295	0.423	0.4811	-0.101
Mof_N 	N 	0.43	0.3813	0.4809	-0.111
Mof_N 	N 	0.3831	0.3463	0.4664	-0.111
Mof_N 	N 	0.0482	0.0824	0.4642	-0.103
Mof_N 	N 	0.0581	0.077	0.5065	-0.103
Mof_N 	N 	0.0996	0.1187	0.5487	-0.112
Mof_N 	N 	0.1201	0.1537	0.5368	-0.112
Mof_N 	N 	0.1182	0.584	0.0358	-0.1
Mof_N 	N 	0.0705	0.5516	0.9935	-0.083
Mof_N 	N 	0.07	0.5509	0.9513	-0.11
Mof_N 	N 	0.1169	0.5833	0.9632	-0.092
Mof_N 	N 	0.0824	0.9642	0.5482	-0.093
Mof_N 	N 	0.077	0.0065	0.5581	-0.114
Mof_N 	N 	0.1187	0.0487	0.5996	-0.113
Mof_N 	N 	0.1537	0.0368	0.6201	-0.132
Mof_N 	N 	0.584	0.5358	0.6182	-0.095
Mof_N 	N 	0.5516	0.4935	0.5705	-0.1
Mof_N 	N 	0.5509	0.4513	0.57	-0.11
Mof_N 	N 	0.5833	0.4632	0.6169	-0.111
Mof_N 	N 	0.916	0.5342	0.9518	-0.085
Mof_N 	N 	0.9484	0.5189	0.9419	-0.084
Mof_N 	N 	0.9491	0.5191	0.9004	-0.099
Mof_N 	N 	0.9167	0.5336	0.8799	-0.106
Mof_N 	N 	0.4176	0.9658	0.8818	-0.089
Mof_N 	N 	0.423	0.9811	0.9295	-0.082
Mof_N 	N 	0.3813	0.9809	0.93	-0.091
Mof_N 	N 	0.3463	0.9664	0.8831	-0.104
Mof_N 	N 	0.9658	0.3818	0.9176	-0.085
Mof_N 	N 	0.9811	0.4295	0.923	-0.083
Mof_N 	N 	0.9809	0.43	0.8813	-0.099
Mof_N 	N 	0.9664	0.3831	0.8463	-0.105
Mof_N 	N 	0.5342	0.4518	0.416	-0.095
Mof_N 	N 	0.5189	0.4419	0.4484	-0.101
Mof_N 	N 	0.5191	0.4004	0.4491	-0.111
Mof_N 	N 	0.5336	0.3799	0.4167	-0.111
Mof_N 	N 	0.5358	0.1182	0.084	-0.098
Mof_N 	N 	0.4935	0.0705	0.0516	-0.103
Mof_N 	N 	0.4513	0.07	0.0509	-0.113
Mof_N 	N 	0.4632	0.1169	0.0833	-0.114
Mof_N 	N 	0.9642	0.0482	0.5824	-0.093
Mof_N 	N 	0.0065	0.0581	0.577	-0.114
Mof_N 	N 	0.0487	0.0996	0.6187	-0.113
Mof_N 	N 	0.0368	0.1201	0.6537	-0.132
Mof_N 	N 	0.416	0.9518	0.5342	-0.09
Mof_N 	N 	0.4484	0.9419	0.5189	-0.092
Mof_N 	N 	0.4491	0.9004	0.5191	-0.109
Mof_N 	N 	0.4167	0.8799	0.5336	-0.11
Mof_N 	N 	0.9176	0.8818	0.9658	-0.084
Mof_N 	N 	0.923	0.9295	0.9811	-0.075
Mof_N 	N 	0.8813	0.93	0.9809	-0.09
Mof_N 	N 	0.8463	0.8831	0.9664	-0.102
Mof_N 	N 	0.5824	0.5482	0.9642	-0.089
Mof_N 	N 	0.577	0.5581	0.0065	-0.113
Mof_N 	N 	0.6187	0.5996	0.0487	-0.112
Mof_N 	N 	0.6537	0.6201	0.0368	-0.13
Mof_N 	N 	0.084	0.6182	0.5358	-0.098
Mof_N 	N 	0.0516	0.5705	0.4935	-0.102
Mof_N 	N 	0.0509	0.57	0.4513	-0.112
Mof_N 	N 	0.0833	0.6169	0.4632	-0.113
Mof_N 	N 	0.4642	0.5824	0.0482	-0.099
Mof_N 	N 	0.5065	0.577	0.0581	-0.101
Mof_N 	N 	0.5487	0.6187	0.0996	-0.111
Mof_N 	N 	0.5368	0.6537	0.1201	-0.111
Mof_N 	N 	0.0358	0.084	0.1182	-0.103
Mof_N 	N 	0.9935	0.0516	0.0705	-0.083
Mof_N 	N 	0.9513	0.0509	0.07	-0.111
Mof_N 	N 	0.9632	0.0833	0.1169	-0.092
Mof_N 	N 	0.0342	0.416	0.4518	-0.098
Mof_N 	N 	0.0189	0.4484	0.4419	-0.102
Mof_N 	N 	0.0191	0.4491	0.4004	-0.112
Mof_N 	N 	0.0336	0.4167	0.3799	-0.113
Mof_N 	N 	0.4658	0.9176	0.3818	-0.09
Mof_N 	N 	0.4811	0.923	0.4295	-0.092
Mof_N 	N 	0.4809	0.8813	0.43	-0.109
Mof_N 	N 	0.4664	0.8463	0.3831	-0.11
Mof_N 	N 	0.8818	0.4658	0.4176	-0.093
Mof_N 	N 	0.9295	0.4811	0.423	-0.091
Mof_N 	N 	0.93	0.4809	0.3813	-0.1
Mof_N 	N 	0.8831	0.4664	0.3463	-0.107
Mof_N 	N 	0.9518	0.0342	0.916	-0.088
Mof_N 	N 	0.9419	0.0189	0.9484	-0.085
Mof_N 	N 	0.9004	0.0191	0.9491	-0.101
Mof_N 	N 	0.8799	0.0336	0.9167	-0.108
Mof_N 	N 	0.6182	0.0358	0.584	-0.1
Mof_N 	N 	0.5705	0.9935	0.5516	-0.081
Mof_N 	N 	0.57	0.9513	0.5509	-0.108
Mof_N 	N 	0.6169	0.9632	0.5833	-0.09
Mof_N 	N 	0.5482	0.4642	0.0824	-0.099
Mof_N 	N 	0.5581	0.5065	0.077	-0.102
Mof_N 	N 	0.5996	0.5487	0.1187	-0.111
Mof_N 	N 	0.6201	0.5368	0.1537	-0.111
Mof_N 	N 	0.5482	0.084	0.9658	-0.093
Mof_N 	N 	0.5581	0.0516	0.9811	-0.092
Mof_N 	N 	0.5996	0.0509	0.9809	-0.101
Mof_N 	N 	0.6201	0.0833	0.9664	-0.107
Mof_N 	N 	0.6182	0.5824	0.5342	-0.095
Mof_N 	N 	0.5705	0.577	0.5189	-0.1
Mof_N 	N 	0.57	0.6187	0.5191	-0.11
Mof_N 	N 	0.6169	0.6537	0.5336	-0.11
Mof_N 	N 	0.9518	0.9176	0.5358	-0.084
Mof_N 	N 	0.9419	0.923	0.4935	-0.084
Mof_N 	N 	0.9004	0.8813	0.4513	-0.108
Mof_N 	N 	0.8799	0.8463	0.4632	-0.109
Mof_N 	N 	0.8818	0.416	0.9642	-0.088
Mof_N 	N 	0.9295	0.4484	0.0065	-0.103
Mof_N 	N 	0.93	0.4491	0.0487	-0.102
Mof_N 	N 	0.8831	0.4167	0.0368	-0.127
Mof_N 	N 	0.9176	0.0358	0.4518	-0.094
Mof_N 	N 	0.923	0.9935	0.4419	-0.073
Mof_N 	N 	0.8813	0.9513	0.4004	-0.107
Mof_N 	N 	0.8463	0.9632	0.3799	-0.09
Mof_N 	N 	0.416	0.4642	0.3818	-0.095
Mof_N 	N 	0.4484	0.5065	0.4295	-0.101
Mof_N 	N 	0.4491	0.5487	0.43	-0.111
Mof_N 	N 	0.4167	0.5368	0.3831	-0.111
Mof_N 	N 	0.084	0.4658	0.0482	-0.102
Mof_N 	N 	0.0516	0.4811	0.0581	-0.103
Mof_N 	N 	0.0509	0.4809	0.0996	-0.112
Mof_N 	N 	0.0833	0.4664	0.1201	-0.113
Mof_N 	N 	0.5824	0.0342	0.1182	-0.098
Mof_N 	N 	0.577	0.0189	0.0705	-0.104
Mof_N 	N 	0.6187	0.0191	0.07	-0.113
Mof_N 	N 	0.6537	0.0336	0.1169	-0.113
Mof_N 	N 	0.0342	0.6182	0.0824	-0.102
Mof_N 	N 	0.0189	0.5705	0.077	-0.103
Mof_N 	N 	0.0191	0.57	0.1187	-0.113
Mof_N 	N 	0.0336	0.6169	0.1537	-0.114
Mof_N 	N 	0.4658	0.5482	0.584	-0.095
Mof_N 	N 	0.4811	0.5581	0.5516	-0.1
Mof_N 	N 	0.4809	0.5996	0.5509	-0.11
Mof_N 	N 	0.4664	0.6201	0.5833	-0.11
Mof_N 	N 	0.4642	0.8818	0.916	-0.089
Mof_N 	N 	0.5065	0.9295	0.9484	-0.083
Mof_N 	N 	0.5487	0.93	0.9491	-0.091
Mof_N 	N 	0.5368	0.8831	0.9167	-0.103
Mof_N 	N 	0.0358	0.9518	0.4176	-0.094
Mof_N 	N 	0.9935	0.9419	0.423	-0.073
Mof_N 	N 	0.9513	0.9004	0.3813	-0.107
Mof_N 	N 	0.9632	0.8799	0.3463	-0.09
_end
