data_functionalizedCrystal
_audit_creation_method	'EQeq! by Chris Wilmer'
_symmetry_space_group_name_H-M	'P1'
_symmetry_Int_Tables_number	1
_symmetry_cell_setting	triclinic
loop_
_symmetry_equiv_pos_as_xyz
  x,y,z
_cell_length_a	20.2699
_cell_length_b	27.1642
_cell_length_c	27.1642
_cell_angle_alpha	65.9711
_cell_angle_beta	75.5974
_cell_angle_gamma	104.403
loop_
_atom_site_label
_atom_site_type_symbol
_atom_site_fract_x
_atom_site_fract_y
_atom_site_fract_z
_atom_site_charge
Mof_Cu	Cu	0.03418	0.29244	0.20614	0.902
Mof_Cu	Cu	0.99363	0.19488	0.30715	0.918
Mof_Cu	Cu	0.26735	0.97773	0.21114	0.921
Mof_Cu	Cu	0.20799	0.97423	0.31276	0.912
Mof_Cu	Cu	0.24032	0.20614	0.50142	0.9
Mof_Cu	Cu	0.30078	0.30715	0.49797	0.918
Mof_Cu	Cu	0.47849	0.21114	0.81113	0.922
Mof_Cu	Cu	0.52075	0.31276	0.71301	0.912
Mof_Cu	Cu	0.74174	0.50142	0.29244	0.9
Mof_Cu	Cu	0.79875	0.49797	0.19488	0.918
Mof_Cu	Cu	0.28962	0.81113	0.97773	0.921
Mof_Cu	Cu	0.23376	0.71301	0.97423	0.912
Mof_Cu	Cu	0.96582	0.70756	0.79386	0.901
Mof_Cu	Cu	0.00637	0.80512	0.69285	0.917
Mof_Cu	Cu	0.73265	0.02227	0.78886	0.921
Mof_Cu	Cu	0.79201	0.02577	0.68724	0.912
Mof_Cu	Cu	0.75968	0.79386	0.49858	0.9
Mof_Cu	Cu	0.69922	0.69285	0.50203	0.918
Mof_Cu	Cu	0.52151	0.78886	0.18887	0.922
Mof_Cu	Cu	0.47925	0.68724	0.28699	0.912
Mof_Cu	Cu	0.25826	0.49858	0.70756	0.9
Mof_Cu	Cu	0.20125	0.50203	0.80512	0.918
Mof_Cu	Cu	0.71038	0.18887	0.02227	0.921
Mof_Cu	Cu	0.76624	0.28699	0.02577	0.912
Mof_H 	H 	0.1305	0.1137	0.2452	0.059
Mof_H 	H 	0.2508	0.1308	0.0958	0.08
Mof_H 	H 	0.1564	0.2472	0.0976	0.086
Mof_H 	H 	0.3303	0.2449	0.9276	0.081
Mof_H 	H 	0.3651	0.3793	0.7722	0.059
Mof_H 	H 	0.2163	0.3476	0.9256	0.079
Mof_H 	H 	0.154	0.2606	0.3669	0.069
Mof_H 	H 	0.2762	0.4118	0.3468	0.086
Mof_H 	H 	0.1931	0.4133	0.2292	0.092
Mof_H 	H 	0.3444	0.5823	0.2368	0.094
Mof_H 	H 	0.3802	0.7367	0.1101	0.075
Mof_H 	H 	0.2618	0.5896	0.1178	0.095
Mof_H 	H 	0.3757	0.2452	0.6411	0.059
Mof_H 	H 	0.3466	0.0958	0.7734	0.08
Mof_H 	H 	0.254	0.0976	0.6552	0.086
Mof_H 	H 	0.2579	0.9276	0.8275	0.081
Mof_H 	H 	0.1373	0.7722	0.8485	0.059
Mof_H 	H 	0.1419	0.9256	0.7268	0.078
Mof_H 	H 	0.5209	0.3669	0.3725	0.068
Mof_H 	H 	0.623	0.3468	0.2414	0.086
Mof_H 	H 	0.4223	0.2292	0.3575	0.092
Mof_H 	H 	0.5812	0.2368	0.1809	0.094
Mof_H 	H 	0.4903	0.1101	0.1532	0.075
Mof_H 	H 	0.3796	0.1178	0.2926	0.095
Mof_H 	H 	0.0168	0.6411	0.1137	0.059
Mof_H 	H 	0.12	0.7734	0.1308	0.079
Mof_H 	H 	0.9092	0.6552	0.2472	0.086
Mof_H 	H 	0.0854	0.8275	0.2449	0.081
Mof_H 	H 	0.9858	0.8485	0.3793	0.059
Mof_H 	H 	0.8687	0.7268	0.3476	0.079
Mof_H 	H 	0.8934	0.3725	0.2606	0.068
Mof_H 	H 	0.8644	0.2414	0.4118	0.086
Mof_H 	H 	0.7798	0.3575	0.4133	0.092
Mof_H 	H 	0.7621	0.1809	0.5823	0.094
Mof_H 	H 	0.6435	0.1532	0.7367	0.075
Mof_H 	H 	0.6722	0.2926	0.5896	0.095
Mof_H 	H 	0.8695	0.8863	0.7548	0.059
Mof_H 	H 	0.7492	0.8692	0.9042	0.08
Mof_H 	H 	0.8436	0.7528	0.9024	0.086
Mof_H 	H 	0.6697	0.7551	0.0724	0.081
Mof_H 	H 	0.6349	0.6207	0.2278	0.059
Mof_H 	H 	0.7837	0.6524	0.0744	0.079
Mof_H 	H 	0.846	0.7394	0.6331	0.069
Mof_H 	H 	0.7238	0.5882	0.6532	0.086
Mof_H 	H 	0.8069	0.5867	0.7708	0.092
Mof_H 	H 	0.6556	0.4177	0.7632	0.094
Mof_H 	H 	0.6198	0.2633	0.8899	0.075
Mof_H 	H 	0.7382	0.4104	0.8822	0.095
Mof_H 	H 	0.6243	0.7548	0.3589	0.059
Mof_H 	H 	0.6534	0.9042	0.2266	0.08
Mof_H 	H 	0.746	0.9024	0.3448	0.086
Mof_H 	H 	0.7421	0.0724	0.1725	0.081
Mof_H 	H 	0.8627	0.2278	0.1515	0.059
Mof_H 	H 	0.8581	0.0744	0.2732	0.078
Mof_H 	H 	0.4791	0.6331	0.6275	0.068
Mof_H 	H 	0.377	0.6532	0.7586	0.086
Mof_H 	H 	0.5777	0.7708	0.6425	0.092
Mof_H 	H 	0.4188	0.7632	0.8191	0.094
Mof_H 	H 	0.5097	0.8899	0.8468	0.075
Mof_H 	H 	0.6204	0.8822	0.7074	0.095
Mof_H 	H 	0.9832	0.3589	0.8863	0.059
Mof_H 	H 	0.88	0.2266	0.8692	0.079
Mof_H 	H 	0.0908	0.3448	0.7528	0.086
Mof_H 	H 	0.9146	0.1725	0.7551	0.081
Mof_H 	H 	0.0142	0.1515	0.6207	0.059
Mof_H 	H 	0.1313	0.2732	0.6524	0.079
Mof_H 	H 	0.1066	0.6275	0.7394	0.068
Mof_H 	H 	0.1356	0.7586	0.5882	0.086
Mof_H 	H 	0.2202	0.6425	0.5867	0.092
Mof_H 	H 	0.2379	0.8191	0.4177	0.094
Mof_H 	H 	0.3565	0.8468	0.2633	0.075
Mof_H 	H 	0.3278	0.7074	0.4104	0.095
Mof_C 	C 	0.1018	0.2107	0.2066	0.335
Mof_C 	C 	0.1456	0.1861	0.1769	-0.048
Mof_C 	C 	0.154	0.1353	0.2047	0.007
Mof_C 	C 	0.1941	0.1143	0.1777	-0.062
Mof_C 	C 	0.2019	0.0579	0.2095	0.358
Mof_C 	C 	0.2241	0.1444	0.1166	-0.066
Mof_C 	C 	0.213	0.1945	0.0881	0.095
Mof_C 	C 	0.1685	0.2159	0.1173	-0.068
Mof_C 	C 	0.2767	0.2936	0.9385	0.095
Mof_C 	C 	0.3202	0.2767	0.906	-0.057
Mof_C 	C 	0.3525	0.3023	0.8419	-0.075
Mof_C 	C 	0.4093	0.2933	0.8083	0.384
Mof_C 	C 	0.3392	0.3552	0.8126	0.007
Mof_C 	C 	0.2882	0.3722	0.8428	-0.05
Mof_C 	C 	0.2693	0.4244	0.8134	0.343
Mof_C 	C 	0.2531	0.3397	0.9057	-0.063
Mof_C 	C 	0.1176	0.3012	0.2764	0.327
Mof_C 	C 	0.1659	0.3348	0.2938	-0.035
Mof_C 	C 	0.1772	0.3014	0.345	-0.015
Mof_C 	C 	0.2232	0.3322	0.3599	-0.031
Mof_C 	C 	0.239	0.3119	0.4167	0.38
Mof_C 	C 	0.2489	0.3914	0.3333	-0.101
Mof_C 	C 	0.2333	0.4201	0.2858	0.111
Mof_C 	C 	0.1968	0.3923	0.2646	-0.09
Mof_C 	C 	0.3004	0.5746	0.1799	0.125
Mof_C 	C 	0.3401	0.6047	0.2022	-0.094
Mof_C 	C 	0.3727	0.6644	0.1764	-0.016
Mof_C 	C 	0.4207	0.6959	0.1989	0.342
Mof_C 	C 	0.3601	0.6959	0.1284	-0.041
Mof_C 	C 	0.3142	0.6665	0.1038	0
Mof_C 	C 	0.3051	0.7091	0.0492	0.308
Mof_C 	C 	0.2895	0.6089	0.132	-0.107
Mof_C 	C 	0.3084	0.2066	0.5827	0.336
Mof_C 	C 	0.3225	0.1769	0.637	-0.048
Mof_C 	C 	0.3587	0.2047	0.66	0.007
Mof_C 	C 	0.3718	0.1777	0.708	-0.062
Mof_C 	C 	0.4114	0.2095	0.7326	0.358
Mof_C 	C 	0.3407	0.1166	0.739	-0.066
Mof_C 	C 	0.3011	0.0881	0.7174	0.095
Mof_C 	C 	0.2858	0.1173	0.6668	-0.068
Mof_C 	C 	0.2152	0.9385	0.7679	0.095
Mof_C 	C 	0.2262	0.906	0.8173	-0.057
Mof_C 	C 	0.1944	0.8419	0.8558	-0.075
Mof_C 	C 	0.2176	0.8083	0.8984	0.384
Mof_C 	C 	0.1518	0.8126	0.8322	0.007
Mof_C 	C 	0.131	0.8428	0.785	-0.051
Mof_C 	C 	0.0827	0.8134	0.7622	0.343
Mof_C 	C 	0.1588	0.9057	0.7546	-0.063
Mof_C 	C 	0.394	0.2764	0.4224	0.327
Mof_C 	C 	0.4597	0.2938	0.3714	-0.036
Mof_C 	C 	0.5222	0.345	0.3536	-0.015
Mof_C 	C 	0.5831	0.3599	0.3079	-0.031
Mof_C 	C 	0.6557	0.4167	0.2714	0.38
Mof_C 	C 	0.5822	0.3333	0.2753	-0.101
Mof_C 	C 	0.5191	0.2858	0.2941	0.111
Mof_C 	C 	0.4614	0.2646	0.3431	-0.09
Mof_C 	C 	0.4803	0.1799	0.2455	0.125
Mof_C 	C 	0.5423	0.2022	0.1931	-0.094
Mof_C 	C 	0.5491	0.1764	0.1592	-0.016
Mof_C 	C 	0.6196	0.1989	0.1052	0.342
Mof_C 	C 	0.4885	0.1284	0.1757	-0.041
Mof_C 	C 	0.418	0.1038	0.2297	0
Mof_C 	C 	0.3543	0.0492	0.2417	0.308
Mof_C 	C 	0.4215	0.132	0.2591	-0.107
Mof_C 	C 	0.8911	0.5827	0.2107	0.336
Mof_C 	C 	0.9595	0.637	0.1861	-0.049
Mof_C 	C 	0.0187	0.66	0.1353	0.008
Mof_C 	C 	0.0798	0.708	0.1143	-0.063
Mof_C 	C 	0.144	0.7326	0.0579	0.358
Mof_C 	C 	0.0797	0.739	0.1444	-0.065
Mof_C 	C 	0.0185	0.7174	0.1945	0.094
Mof_C 	C 	0.9526	0.6668	0.2159	-0.067
Mof_C 	C 	0.9831	0.7679	0.2936	0.096
Mof_C 	C 	0.0435	0.8173	0.2767	-0.058
Mof_C 	C 	0.0502	0.8558	0.3023	-0.076
Mof_C 	C 	0.116	0.8984	0.2933	0.384
Mof_C 	C 	0.984	0.8322	0.3552	0.008
Mof_C 	C 	0.916	0.785	0.3722	-0.05
Mof_C 	C 	0.8449	0.7622	0.4244	0.343
Mof_C 	C 	0.9134	0.7546	0.3397	-0.063
Mof_C 	C 	0.8164	0.4224	0.3012	0.327
Mof_C 	C 	0.8311	0.3714	0.3348	-0.036
Mof_C 	C 	0.8758	0.3536	0.3014	-0.015
Mof_C 	C 	0.891	0.3079	0.3322	-0.031
Mof_C 	C 	0.9271	0.2714	0.3119	0.38
Mof_C 	C 	0.8575	0.2753	0.3914	-0.101
Mof_C 	C 	0.8132	0.2941	0.4201	0.111
Mof_C 	C 	0.8045	0.3431	0.3923	-0.09
Mof_C 	C 	0.7258	0.2455	0.5746	0.125
Mof_C 	C 	0.7354	0.1931	0.6047	-0.094
Mof_C 	C 	0.7083	0.1592	0.6644	-0.016
Mof_C 	C 	0.7248	0.1052	0.6959	0.342
Mof_C 	C 	0.6642	0.1757	0.6959	-0.041
Mof_C 	C 	0.6477	0.2297	0.6665	0
Mof_C 	C 	0.596	0.2417	0.7091	0.308
Mof_C 	C 	0.6806	0.2591	0.6089	-0.107
Mof_C 	C 	0.8982	0.7893	0.7934	0.335
Mof_C 	C 	0.8544	0.8139	0.8231	-0.048
Mof_C 	C 	0.846	0.8647	0.7953	0.007
Mof_C 	C 	0.8059	0.8857	0.8223	-0.062
Mof_C 	C 	0.7981	0.9421	0.7905	0.358
Mof_C 	C 	0.7759	0.8556	0.8834	-0.066
Mof_C 	C 	0.787	0.8055	0.9119	0.095
Mof_C 	C 	0.8315	0.7841	0.8827	-0.068
Mof_C 	C 	0.7233	0.7064	0.0615	0.095
Mof_C 	C 	0.6798	0.7233	0.094	-0.057
Mof_C 	C 	0.6475	0.6977	0.1581	-0.075
Mof_C 	C 	0.5907	0.7067	0.1917	0.384
Mof_C 	C 	0.6608	0.6448	0.1874	0.007
Mof_C 	C 	0.7118	0.6278	0.1572	-0.05
Mof_C 	C 	0.7307	0.5756	0.1866	0.343
Mof_C 	C 	0.7469	0.6603	0.0943	-0.063
Mof_C 	C 	0.8824	0.6988	0.7236	0.327
Mof_C 	C 	0.8341	0.6652	0.7062	-0.035
Mof_C 	C 	0.8228	0.6986	0.655	-0.015
Mof_C 	C 	0.7768	0.6678	0.6401	-0.031
Mof_C 	C 	0.761	0.6881	0.5833	0.38
Mof_C 	C 	0.7511	0.6086	0.6667	-0.101
Mof_C 	C 	0.7667	0.5799	0.7142	0.111
Mof_C 	C 	0.8032	0.6077	0.7354	-0.09
Mof_C 	C 	0.6996	0.4254	0.8201	0.125
Mof_C 	C 	0.6599	0.3953	0.7978	-0.094
Mof_C 	C 	0.6273	0.3356	0.8236	-0.016
Mof_C 	C 	0.5793	0.3041	0.8011	0.342
Mof_C 	C 	0.6399	0.3041	0.8716	-0.041
Mof_C 	C 	0.6858	0.3335	0.8962	0
Mof_C 	C 	0.6949	0.2909	0.9508	0.308
Mof_C 	C 	0.7105	0.3911	0.868	-0.107
Mof_C 	C 	0.6916	0.7934	0.4173	0.336
Mof_C 	C 	0.6775	0.8231	0.363	-0.048
Mof_C 	C 	0.6413	0.7953	0.34	0.007
Mof_C 	C 	0.6282	0.8223	0.292	-0.062
Mof_C 	C 	0.5886	0.7905	0.2674	0.358
Mof_C 	C 	0.6593	0.8834	0.261	-0.066
Mof_C 	C 	0.6989	0.9119	0.2826	0.095
Mof_C 	C 	0.7142	0.8827	0.3332	-0.068
Mof_C 	C 	0.7848	0.0615	0.2321	0.095
Mof_C 	C 	0.7738	0.094	0.1827	-0.057
Mof_C 	C 	0.8056	0.1581	0.1442	-0.075
Mof_C 	C 	0.7824	0.1917	0.1016	0.384
Mof_C 	C 	0.8482	0.1874	0.1678	0.007
Mof_C 	C 	0.869	0.1572	0.215	-0.051
Mof_C 	C 	0.9173	0.1866	0.2378	0.343
Mof_C 	C 	0.8412	0.0943	0.2454	-0.063
Mof_C 	C 	0.606	0.7236	0.5776	0.327
Mof_C 	C 	0.5403	0.7062	0.6286	-0.036
Mof_C 	C 	0.4778	0.655	0.6464	-0.015
Mof_C 	C 	0.4169	0.6401	0.6921	-0.031
Mof_C 	C 	0.3443	0.5833	0.7286	0.38
Mof_C 	C 	0.4178	0.6667	0.7247	-0.101
Mof_C 	C 	0.4809	0.7142	0.7059	0.111
Mof_C 	C 	0.5386	0.7354	0.6569	-0.09
Mof_C 	C 	0.5197	0.8201	0.7545	0.125
Mof_C 	C 	0.4577	0.7978	0.8069	-0.094
Mof_C 	C 	0.4509	0.8236	0.8408	-0.016
Mof_C 	C 	0.3804	0.8011	0.8948	0.342
Mof_C 	C 	0.5115	0.8716	0.8243	-0.041
Mof_C 	C 	0.582	0.8962	0.7703	0
Mof_C 	C 	0.6457	0.9508	0.7583	0.308
Mof_C 	C 	0.5785	0.868	0.7409	-0.107
Mof_C 	C 	0.1089	0.4173	0.7893	0.336
Mof_C 	C 	0.0405	0.363	0.8139	-0.049
Mof_C 	C 	0.9813	0.34	0.8647	0.008
Mof_C 	C 	0.9202	0.292	0.8857	-0.063
Mof_C 	C 	0.856	0.2674	0.9421	0.358
Mof_C 	C 	0.9203	0.261	0.8556	-0.065
Mof_C 	C 	0.9815	0.2826	0.8055	0.094
Mof_C 	C 	0.0474	0.3332	0.7841	-0.067
Mof_C 	C 	0.0169	0.2321	0.7064	0.096
Mof_C 	C 	0.9565	0.1827	0.7233	-0.058
Mof_C 	C 	0.9498	0.1442	0.6977	-0.076
Mof_C 	C 	0.884	0.1016	0.7067	0.384
Mof_C 	C 	0.016	0.1678	0.6448	0.008
Mof_C 	C 	0.084	0.215	0.6278	-0.05
Mof_C 	C 	0.1551	0.2378	0.5756	0.343
Mof_C 	C 	0.0866	0.2454	0.6603	-0.063
Mof_C 	C 	0.1836	0.5776	0.6988	0.327
Mof_C 	C 	0.1689	0.6286	0.6652	-0.036
Mof_C 	C 	0.1242	0.6464	0.6986	-0.015
Mof_C 	C 	0.109	0.6921	0.6678	-0.031
Mof_C 	C 	0.0729	0.7286	0.6881	0.38
Mof_C 	C 	0.1425	0.7247	0.6086	-0.101
Mof_C 	C 	0.1868	0.7059	0.5799	0.111
Mof_C 	C 	0.1955	0.6569	0.6077	-0.09
Mof_C 	C 	0.2742	0.7545	0.4254	0.125
Mof_C 	C 	0.2646	0.8069	0.3953	-0.094
Mof_C 	C 	0.2917	0.8408	0.3356	-0.016
Mof_C 	C 	0.2752	0.8948	0.3041	0.342
Mof_C 	C 	0.3358	0.8243	0.3041	-0.041
Mof_C 	C 	0.3523	0.7703	0.3335	0
Mof_C 	C 	0.404	0.7583	0.2909	0.308
Mof_C 	C 	0.3194	0.7409	0.3911	-0.107
Mof_N 	N 	0.2519	0.2235	0.0229	-0.083
Mof_N 	N 	0.2369	0.2681	0.9982	-0.088
Mof_N 	N 	0.2759	0.4881	0.2503	-0.082
Mof_N 	N 	0.2598	0.5152	0.2096	-0.092
Mof_N 	N 	0.2748	0.0229	0.7536	-0.083
Mof_N 	N 	0.2351	0.9982	0.7337	-0.088
Mof_N 	N 	0.5262	0.2503	0.2616	-0.082
Mof_N 	N 	0.4694	0.2096	0.2752	-0.092
Mof_N 	N 	0.0284	0.7536	0.2235	-0.083
Mof_N 	N 	0.9688	0.7337	0.2681	-0.087
Mof_N 	N 	0.7878	0.2616	0.4881	-0.082
Mof_N 	N 	0.7446	0.2752	0.5152	-0.092
Mof_N 	N 	0.7481	0.7765	0.9771	-0.083
Mof_N 	N 	0.7631	0.7319	0.0018	-0.088
Mof_N 	N 	0.7241	0.5119	0.7497	-0.082
Mof_N 	N 	0.7402	0.4848	0.7904	-0.092
Mof_N 	N 	0.7252	0.9771	0.2464	-0.083
Mof_N 	N 	0.7649	0.0018	0.2663	-0.088
Mof_N 	N 	0.4738	0.7497	0.7384	-0.082
Mof_N 	N 	0.5306	0.7904	0.7248	-0.092
Mof_N 	N 	0.9716	0.2464	0.7765	-0.083
Mof_N 	N 	0.0312	0.2663	0.7319	-0.087
Mof_N 	N 	0.2122	0.7384	0.5119	-0.082
Mof_N 	N 	0.2554	0.7248	0.4848	-0.092
Mof_O 	O 	0.09912	0.25842	0.17746	-0.403
Mof_O 	O 	0.0627	0.17345	0.26175	-0.382
Mof_O 	O 	0.23656	0.03731	0.18393	-0.422
Mof_O 	O 	0.18896	0.03702	0.26494	-0.399
Mof_O 	O 	0.40908	0.24291	0.84107	-0.397
Mof_O 	O 	0.44253	0.32495	0.75676	-0.435
Mof_O 	O 	0.28344	0.43708	0.75546	-0.377
Mof_O 	O 	0.24012	0.44405	0.83779	-0.432
Mof_O 	O 	0.10779	0.3275	0.23253	-0.395
Mof_O 	O 	0.07673	0.24417	0.31588	-0.364
Mof_O 	O 	0.21407	0.25437	0.43546	-0.377
Mof_O 	O 	0.27548	0.33121	0.43637	-0.48
Mof_O 	O 	0.41608	0.6618	0.24676	-0.405
Mof_O 	O 	0.4506	0.75089	0.16689	-0.407
Mof_O 	O 	0.3102	0.7611	0.0376	-0.393
Mof_O 	O 	0.27031	0.67716	0.03313	-0.387
Mof_O 	O 	0.27658	0.17746	0.56412	-0.403
Mof_O 	O 	0.32445	0.26175	0.5648	-0.382
Mof_O 	O 	0.42049	0.18393	0.77876	-0.423
Mof_O 	O 	0.4539	0.26494	0.69804	-0.399
Mof_O 	O 	0.25015	0.84107	0.91602	-0.398
Mof_O 	O 	0.19929	0.75676	0.91829	-0.436
Mof_O 	O 	0.0389	0.75546	0.80746	-0.378
Mof_O 	O 	0.07791	0.83779	0.71816	-0.433
Mof_O 	O 	0.34032	0.23253	0.43997	-0.395
Mof_O 	O 	0.39261	0.31588	0.43995	-0.364
Mof_O 	O 	0.64953	0.43546	0.31017	-0.377
Mof_O 	O 	0.71185	0.43637	0.23242	-0.48
Mof_O 	O 	0.66284	0.24676	0.09144	-0.406
Mof_O 	O 	0.61749	0.16689	0.08222	-0.407
Mof_O 	O 	0.3478	0.0376	0.2013	-0.392
Mof_O 	O 	0.30344	0.03313	0.28971	-0.386
Mof_O 	O 	0.8407	0.56412	0.25842	-0.403
Mof_O 	O 	0.88925	0.5648	0.17345	-0.383
Mof_O 	O 	0.19925	0.77876	0.03731	-0.423
Mof_O 	O 	0.15194	0.69804	0.03702	-0.399
Mof_O 	O 	0.16617	0.91602	0.24291	-0.398
Mof_O 	O 	0.11758	0.91829	0.32495	-0.436
Mof_O 	O 	0.84636	0.80746	0.43708	-0.377
Mof_O 	O 	0.79607	0.71816	0.44405	-0.432
Mof_O 	O 	0.78029	0.43997	0.3275	-0.396
Mof_O 	O 	0.83256	0.43995	0.24417	-0.364
Mof_O 	O 	0.9597	0.31017	0.25437	-0.377
Mof_O 	O 	0.94427	0.23242	0.33121	-0.481
Mof_O 	O 	0.75428	0.09144	0.6618	-0.405
Mof_O 	O 	0.69971	0.08222	0.75089	-0.407
Mof_O 	O 	0.5491	0.2013	0.7611	-0.393
Mof_O 	O 	0.59315	0.28971	0.67716	-0.387
Mof_O 	O 	0.90088	0.74158	0.82254	-0.403
Mof_O 	O 	0.9373	0.82655	0.73825	-0.382
Mof_O 	O 	0.76344	0.96269	0.81607	-0.422
Mof_O 	O 	0.81104	0.96298	0.73506	-0.399
Mof_O 	O 	0.59092	0.75709	0.15893	-0.397
Mof_O 	O 	0.55747	0.67505	0.24324	-0.435
Mof_O 	O 	0.71656	0.56292	0.24454	-0.377
Mof_O 	O 	0.75988	0.55595	0.16221	-0.432
Mof_O 	O 	0.89221	0.6725	0.76747	-0.395
Mof_O 	O 	0.92327	0.75583	0.68412	-0.364
Mof_O 	O 	0.78593	0.74563	0.56454	-0.377
Mof_O 	O 	0.72452	0.66879	0.56363	-0.48
Mof_O 	O 	0.58392	0.3382	0.75324	-0.405
Mof_O 	O 	0.5494	0.24911	0.83311	-0.407
Mof_O 	O 	0.6898	0.2389	0.9624	-0.393
Mof_O 	O 	0.72969	0.32284	0.96687	-0.387
Mof_O 	O 	0.72342	0.82254	0.43588	-0.403
Mof_O 	O 	0.67555	0.73825	0.4352	-0.382
Mof_O 	O 	0.57951	0.81607	0.22124	-0.423
Mof_O 	O 	0.5461	0.73506	0.30196	-0.399
Mof_O 	O 	0.74985	0.15893	0.08398	-0.398
Mof_O 	O 	0.80071	0.24324	0.08171	-0.436
Mof_O 	O 	0.9611	0.24454	0.19254	-0.378
Mof_O 	O 	0.92209	0.16221	0.28184	-0.433
Mof_O 	O 	0.65968	0.76747	0.56003	-0.395
Mof_O 	O 	0.60739	0.68412	0.56005	-0.364
Mof_O 	O 	0.35047	0.56454	0.68983	-0.377
Mof_O 	O 	0.28815	0.56363	0.76758	-0.48
Mof_O 	O 	0.33716	0.75324	0.90856	-0.406
Mof_O 	O 	0.38251	0.83311	0.91778	-0.407
Mof_O 	O 	0.6522	0.9624	0.7987	-0.392
Mof_O 	O 	0.69656	0.96687	0.71029	-0.386
Mof_O 	O 	0.1593	0.43588	0.74158	-0.403
Mof_O 	O 	0.11075	0.4352	0.82655	-0.383
Mof_O 	O 	0.80075	0.22124	0.96269	-0.423
Mof_O 	O 	0.84806	0.30196	0.96298	-0.399
Mof_O 	O 	0.83383	0.08398	0.75709	-0.398
Mof_O 	O 	0.88242	0.08171	0.67505	-0.436
Mof_O 	O 	0.15364	0.19254	0.56292	-0.377
Mof_O 	O 	0.20393	0.28184	0.55595	-0.432
Mof_O 	O 	0.21971	0.56003	0.6725	-0.396
Mof_O 	O 	0.16744	0.56005	0.75583	-0.364
Mof_O 	O 	0.0403	0.68983	0.74563	-0.377
Mof_O 	O 	0.05573	0.76758	0.66879	-0.481
Mof_O 	O 	0.24572	0.90856	0.3382	-0.405
Mof_O 	O 	0.30029	0.91778	0.24911	-0.407
Mof_O 	O 	0.4509	0.7987	0.2389	-0.393
Mof_O 	O 	0.40685	0.71029	0.32284	-0.387
_end
