data_functionalizedCrystal
_audit_creation_method	'EQeq! by Chris Wilmer'
_symmetry_space_group_name_H-M	'P1'
_symmetry_Int_Tables_number	1
_symmetry_cell_setting	triclinic
loop_
_symmetry_equiv_pos_as_xyz
  x,y,z
_cell_length_a	10.226
_cell_length_b	10.814
_cell_length_c	29.876
_cell_angle_alpha	90
_cell_angle_beta	99.437
_cell_angle_gamma	90
loop_
_atom_site_label
_atom_site_type_symbol
_atom_site_fract_x
_atom_site_fract_y
_atom_site_fract_z
_atom_site_charge
Mof_Cd	Cd	0.02927	0.20337	0.89667	0.489
Mof_Cd	Cd	0.72814	0.37372	0.84909	0.482
Mof_Cd	Cd	0.97073	0.70337	0.60333	0.489
Mof_Cd	Cd	0.27186	0.87372	0.65091	0.482
Mof_Cd	Cd	0.97073	0.79663	0.10333	0.487
Mof_Cd	Cd	0.27186	0.62628	0.15091	0.48
Mof_Cd	Cd	0.02927	0.29663	0.39667	0.488
Mof_Cd	Cd	0.72814	0.12628	0.34909	0.479
Mof_Cd	Cd	0.5	0.5	-0	0.413
Mof_Cd	Cd	0.5	-1.54911e-32	0.5	0.411
Mof_H 	H 	0.7529	0.9232	0.9539	0.06
Mof_H 	H 	0.3609	0.8863	0.9495	0.059
Mof_H 	H 	0.5084	0.2055	0.9107	0.062
Mof_H 	H 	0.2415	0.3941	0.8479	0.067
Mof_H 	H 	0.3744	0.5608	0.7445	0.065
Mof_H 	H 	0.9852	0.5536	0.7489	0.066
Mof_H 	H 	0.2471	0.4232	0.5461	0.064
Mof_H 	H 	0.6391	0.3863	0.5505	0.063
Mof_H 	H 	0.4916	0.7055	0.5893	0.067
Mof_H 	H 	0.7585	0.8941	0.6521	0.073
Mof_H 	H 	0.6256	0.0608	0.7555	0.072
Mof_H 	H 	0.0148	0.0536	0.7511	0.071
Mof_H 	H 	0.2471	0.0768	0.0461	0.07
Mof_H 	H 	0.6391	0.1137	0.0505	0.069
Mof_H 	H 	0.4916	0.7945	0.0893	0.072
Mof_H 	H 	0.7585	0.6059	0.1521	0.066
Mof_H 	H 	0.6256	0.4392	0.2555	0.065
Mof_H 	H 	0.0148	0.4464	0.2511	0.065
Mof_H 	H 	0.7529	0.5768	0.4539	0.066
Mof_H 	H 	0.3609	0.6137	0.4495	0.065
Mof_H 	H 	0.5084	0.2945	0.4107	0.067
Mof_H 	H 	0.2415	0.1059	0.3479	0.059
Mof_H 	H 	0.3744	0.9392	0.2445	0.058
Mof_H 	H 	0.9852	0.9464	0.2489	0.058
Mof_C 	C 	0.7653	0.1494	0.92144	0.325
Mof_C 	C 	0.6494	0.0765	0.93128	-0.09
Mof_C 	C 	0.6677	0.956	0.9476	0.046
Mof_C 	C 	0.5609	0.885	0.9544	-0.084
Mof_C 	C 	0.4332	0.9341	0.9449	0.043
Mof_C 	C 	0.4137	0.0536	0.9287	-0.086
Mof_C 	C 	0.5215	0.1252	0.9217	0.033
Mof_C 	C 	0.5811	0.7533	0.9708	0.321
Mof_C 	C 	0.2752	0.1042	0.917	0.312
Mof_C 	C 	0.9816	0.4345	0.8256	0.317
Mof_C 	C 	0.0962	0.4689	0.8024	-0.069
Mof_C 	C 	0.2246	0.437	0.8206	0.019
Mof_C 	C 	0.3292	0.4688	0.7981	-0.066
Mof_C 	C 	0.3041	0.5363	0.7587	0.021
Mof_C 	C 	0.1757	0.5685	0.7396	-0.068
Mof_C 	C 	0.0719	0.5336	0.7616	0.021
Mof_C 	C 	0.471	0.4332	0.8167	0.313
Mof_C 	C 	0.1491	0.6402	0.6958	0.325
Mof_C 	C 	0.2347	0.6494	0.57856	0.318
Mof_C 	C 	0.3506	0.5765	0.56872	-0.07
Mof_C 	C 	0.3323	0.456	0.5524	0.021
Mof_C 	C 	0.4391	0.385	0.5456	-0.072
Mof_C 	C 	0.5668	0.4341	0.5551	0.017
Mof_C 	C 	0.5863	0.5536	0.5713	-0.066
Mof_C 	C 	0.4785	0.6252	0.5783	0.016
Mof_C 	C 	0.4189	0.2533	0.5292	0.316
Mof_C 	C 	0.7248	0.6042	0.583	0.305
Mof_C 	C 	0.0184	0.9345	0.6744	0.31
Mof_C 	C 	0.9038	0.9689	0.6976	-0.046
Mof_C 	C 	0.7754	0.937	0.6794	0.001
Mof_C 	C 	0.6708	0.9688	0.7019	-0.042
Mof_C 	C 	0.6959	0.0363	0.7413	-0.007
Mof_C 	C 	0.8243	0.0685	0.7604	-0.052
Mof_C 	C 	0.9281	0.0336	0.7384	-0.005
Mof_C 	C 	0.529	0.9332	0.6833	0.306
Mof_C 	C 	0.8509	0.1402	0.8042	0.318
Mof_C 	C 	0.2347	0.8506	0.07856	0.311
Mof_C 	C 	0.3506	0.9235	0.06872	-0.049
Mof_C 	C 	0.3323	0.044	0.0524	-0.005
Mof_C 	C 	0.4391	0.115	0.0456	-0.058
Mof_C 	C 	0.5668	0.0659	0.0551	-0.009
Mof_C 	C 	0.5863	0.9464	0.0713	-0.045
Mof_C 	C 	0.4785	0.8748	0.0783	-0.001
Mof_C 	C 	0.4189	0.2467	0.0292	0.31
Mof_C 	C 	0.7248	0.8958	0.083	0.298
Mof_C 	C 	0.0184	0.5655	0.1744	0.317
Mof_C 	C 	0.9038	0.5311	0.1976	-0.07
Mof_C 	C 	0.7754	0.563	0.1794	0.02
Mof_C 	C 	0.6708	0.5312	0.2019	-0.067
Mof_C 	C 	0.6959	0.4637	0.2413	0.021
Mof_C 	C 	0.8243	0.4315	0.2604	-0.068
Mof_C 	C 	0.9281	0.4664	0.2384	0.022
Mof_C 	C 	0.529	0.5668	0.1833	0.314
Mof_C 	C 	0.8509	0.3598	0.3042	0.325
Mof_C 	C 	0.7653	0.3506	0.42144	0.318
Mof_C 	C 	0.6494	0.4235	0.43128	-0.069
Mof_C 	C 	0.6677	0.544	0.4476	0.02
Mof_C 	C 	0.5609	0.615	0.4544	-0.07
Mof_C 	C 	0.4332	0.5659	0.4449	0.016
Mof_C 	C 	0.4137	0.4464	0.4287	-0.065
Mof_C 	C 	0.5215	0.3748	0.4217	0.015
Mof_C 	C 	0.5811	0.7467	0.4708	0.315
Mof_C 	C 	0.2752	0.3958	0.417	0.304
Mof_C 	C 	0.9816	0.0655	0.3256	0.325
Mof_C 	C 	0.0962	0.0311	0.3024	-0.095
Mof_C 	C 	0.2246	0.063	0.3206	0.039
Mof_C 	C 	0.3292	0.0312	0.2981	-0.091
Mof_C 	C 	0.3041	0.9637	0.2587	0.05
Mof_C 	C 	0.1757	0.9315	0.2396	-0.085
Mof_C 	C 	0.0719	0.9664	0.2616	0.051
Mof_C 	C 	0.471	0.0668	0.3167	0.321
Mof_C 	C 	0.1491	0.8598	0.1958	0.332
Mof_O 	O 	0.752	0.2657	0.91553	-0.275
Mof_O 	O 	0.8697	0.0922	0.9196	-0.271
Mof_O 	O 	0.4788	0.6884	0.9708	-0.274
Mof_O 	O 	0.6939	0.7142	0.9833	-0.241
Mof_O 	O 	0.18	0.035	0.9197	-0.251
Mof_O 	O 	0.259	0.2138	0.90368	-0.259
Mof_O 	O 	0.0038	0.3976	0.86585	-0.283
Mof_O 	O 	0.8672	0.4467	0.8034	-0.262
Mof_O 	O 	0.4992	0.3921	0.85604	-0.26
Mof_O 	O 	0.5558	0.4469	0.7924	-0.255
Mof_O 	O 	0.032	0.6441	0.67613	-0.271
Mof_O 	O 	0.2492	0.6869	0.68257	-0.27
Mof_O 	O 	0.248	0.7657	0.58447	-0.273
Mof_O 	O 	0.1303	0.5922	0.5804	-0.268
Mof_O 	O 	0.5212	0.1884	0.5292	-0.278
Mof_O 	O 	0.3061	0.2142	0.5167	-0.245
Mof_O 	O 	0.82	0.535	0.5803	-0.247
Mof_O 	O 	0.741	0.7138	0.59632	-0.257
Mof_O 	O 	0.9962	0.8976	0.63415	-0.28
Mof_O 	O 	0.1328	0.9467	0.6966	-0.258
Mof_O 	O 	0.5008	0.8921	0.64396	-0.258
Mof_O 	O 	0.4442	0.9469	0.7076	-0.25
Mof_O 	O 	0.968	0.1441	0.82387	-0.271
Mof_O 	O 	0.7508	0.1869	0.81743	-0.269
Mof_O 	O 	0.248	0.7343	0.08447	-0.274
Mof_O 	O 	0.1303	0.9078	0.0804	-0.264
Mof_O 	O 	0.5212	0.3116	0.0292	-0.277
Mof_O 	O 	0.3061	0.2858	0.0167	-0.245
Mof_O 	O 	0.82	0.965	0.0803	-0.243
Mof_O 	O 	0.741	0.7862	0.09632	-0.257
Mof_O 	O 	0.9962	0.6024	0.13415	-0.284
Mof_O 	O 	0.1328	0.5533	0.1966	-0.262
Mof_O 	O 	0.5008	0.6079	0.14396	-0.262
Mof_O 	O 	0.4442	0.5531	0.2076	-0.255
Mof_O 	O 	0.968	0.3559	0.32387	-0.271
Mof_O 	O 	0.7508	0.3131	0.31743	-0.269
Mof_O 	O 	0.752	0.2343	0.41553	-0.275
Mof_O 	O 	0.8697	0.4078	0.4196	-0.267
Mof_O 	O 	0.4788	0.8116	0.4708	-0.272
Mof_O 	O 	0.6939	0.7858	0.4833	-0.24
Mof_O 	O 	0.18	0.465	0.4197	-0.246
Mof_O 	O 	0.259	0.2862	0.40368	-0.258
Mof_O 	O 	0.0038	0.1024	0.36585	-0.287
Mof_O 	O 	0.8672	0.0533	0.3034	-0.267
Mof_O 	O 	0.4992	0.1079	0.35604	-0.264
Mof_O 	O 	0.5558	0.0531	0.2924	-0.26
Mof_O 	O 	0.032	0.8559	0.17613	-0.272
Mof_O 	O 	0.2492	0.8131	0.18257	-0.27
_end
