data_functionalizedCrystal
_audit_creation_method	'EQeq! by Chris Wilmer'
_symmetry_space_group_name_H-M	'P1'
_symmetry_Int_Tables_number	1
_symmetry_cell_setting	triclinic
loop_
_symmetry_equiv_pos_as_xyz
  x,y,z
_cell_length_a	7.3263
_cell_length_b	7.3263
_cell_length_c	24.3653
_cell_angle_alpha	90
_cell_angle_beta	90
_cell_angle_gamma	120
loop_
_atom_site_label
_atom_site_type_symbol
_atom_site_fract_x
_atom_site_fract_y
_atom_site_fract_z
_atom_site_charge
Mof_O 	O 	0.3383	0.4511	0.1322	-0.353
Mof_O 	O 	0.921	0.2981	0.9647	-0.302
Mof_O 	O 	0.1417	0.4189	0.03421	-0.346
Mof_C 	C 	0.033	0.4321	0.9986	0.417
Mof_H 	H 	0.0348	0.5597	0.9966	-0.078
Mof_O 	O 	0.5489	0.8872	0.46553	-0.317
Mof_O 	O 	0.7019	0.6229	0.29803	-0.324
Mof_O 	O 	0.5811	0.7228	0.36754	-0.328
Mof_C 	C 	0.5679	0.6009	0.33193	0.447
Mof_H 	H 	0.4403	0.4751	0.32993	-0.086
Mof_O 	O 	0.1128	0.6617	0.79887	-0.338
Mof_O 	O 	0.3771	0.079	0.63137	-0.355
Mof_O 	O 	0.2772	0.8583	0.70088	-0.346
Mof_C 	C 	0.3991	0.967	0.66527	0.479
Mof_H 	H 	0.5249	0.9652	0.66327	-0.088
Mof_O 	O 	0.6617	0.5489	0.6322	-0.341
Mof_O 	O 	0.079	0.7019	0.4647	-0.348
Mof_O 	O 	0.8583	0.5811	0.53421	-0.338
Mof_C 	C 	0.967	0.5679	0.4986	0.479
Mof_H 	H 	0.9652	0.4403	0.4966	-0.09
Mof_O 	O 	0.4511	0.1128	0.96553	-0.329
Mof_O 	O 	0.2981	0.3771	0.79803	-0.337
Mof_O 	O 	0.4189	0.2772	0.86754	-0.343
Mof_C 	C 	0.4321	0.3991	0.83193	0.448
Mof_H 	H 	0.5597	0.5249	0.82993	-0.082
Mof_O 	O 	0.8872	0.3383	0.29887	-0.324
Mof_O 	O 	0.6229	0.921	0.13137	-0.295
Mof_O 	O 	0.7228	0.1417	0.20088	-0.324
Mof_C 	C 	0.6009	0.033	0.16527	0.396
Mof_H 	H 	0.4751	0.0348	0.16327	-0.077
Mof_O 	O 	0.4511	0.3383	0.20113	-0.354
Mof_O 	O 	0.2981	0.921	0.36863	-0.301
Mof_O 	O 	0.4189	0.1417	0.29912	-0.332
Mof_C 	C 	0.4321	0.033	0.33473	0.395
Mof_H 	H 	0.5597	0.0348	0.33673	-0.075
Mof_O 	O 	0.8872	0.5489	0.8678	-0.315
Mof_O 	O 	0.6229	0.7019	0.0353	-0.32
Mof_O 	O 	0.7228	0.5811	0.96579	-0.313
Mof_C 	C 	0.6009	0.5679	0.0014	0.424
Mof_H 	H 	0.4751	0.4403	0.0034	-0.082
Mof_O 	O 	0.6617	0.1128	0.53447	-0.338
Mof_O 	O 	0.079	0.3771	0.70197	-0.356
Mof_O 	O 	0.8583	0.2772	0.63246	-0.346
Mof_C 	C 	0.967	0.3991	0.66807	0.481
Mof_H 	H 	0.9652	0.5249	0.67007	-0.088
Mof_O 	O 	0.5489	0.6617	0.70113	-0.341
Mof_O 	O 	0.7019	0.079	0.86863	-0.345
Mof_O 	O 	0.5811	0.8583	0.79912	-0.338
Mof_C 	C 	0.5679	0.967	0.83473	0.476
Mof_H 	H 	0.4403	0.9652	0.83673	-0.089
Mof_O 	O 	0.1128	0.4511	0.3678	-0.344
Mof_O 	O 	0.3771	0.2981	0.5353	-0.338
Mof_O 	O 	0.2772	0.4189	0.46579	-0.344
Mof_C 	C 	0.3991	0.4321	0.5014	0.448
Mof_H 	H 	0.5249	0.5597	0.5034	-0.082
Mof_O 	O 	0.3383	0.8872	0.03447	-0.321
Mof_O 	O 	0.921	0.6229	0.20197	-0.295
Mof_O 	O 	0.1417	0.7228	0.13246	-0.325
Mof_C 	C 	0.033	0.6009	0.16807	0.397
Mof_H 	H 	0.0348	0.4751	0.17007	-0.077
Mof_Cu	Cu	0.36459	0.68229	0.08333	0.956
Mof_Cu	Cu	0.31771	0.68229	0.41667	0.957
Mof_Cu	Cu	0.31771	0.63541	0.75	0.958
Mof_Cu	Cu	0.63541	0.31771	0.58333	0.958
Mof_Cu	Cu	0.68229	0.31771	0.91667	0.957
Mof_Cu	Cu	0.68229	0.36459	0.25	0.956
Mof_C 	C 	0.4736	0.4736	0.16667	0.428
Mof_H 	H 	0.6005	0.6005	0.16667	-0.077
Mof_C 	C 	0.5264	0	0.5	0.383
Mof_H 	H 	0.3995	0	0.5	-0.074
Mof_C 	C 	6.21094e-17	0.5264	0.83333	0.382
Mof_H 	H 	1.19205e-17	0.3995	0.83333	-0.074
Mof_C 	C 	0.5264	0.5264	0.66667	0.424
Mof_H 	H 	0.3995	0.3995	0.66667	-0.081
Mof_C 	C 	0.4736	0	-0	0.363
Mof_H 	H 	0.6005	0	-0	-0.069
Mof_C 	C 	-3.53822e-17	0.4736	0.33333	0.387
Mof_H 	H 	1.48068e-17	0.6005	0.33333	-0.073
_end
