data_functionalizedCrystal
_audit_creation_method	'EQeq! by Chris Wilmer'
_symmetry_space_group_name_H-M	'P1'
_symmetry_Int_Tables_number	1
_symmetry_cell_setting	triclinic
loop_
_symmetry_equiv_pos_as_xyz
  x,y,z
_cell_length_a	17.041
_cell_length_b	17.041
_cell_length_c	25.371
_cell_angle_alpha	90
_cell_angle_beta	90
_cell_angle_gamma	90
loop_
_atom_site_label
_atom_site_type_symbol
_atom_site_fract_x
_atom_site_fract_y
_atom_site_fract_z
_atom_site_charge
Mof_Sm	Sm	0.27553	0.11819	0.80808	1.632
Mof_Cu	Cu	0.12896	0.3785	0.16824	0.911
Mof_Cu	Cu	0.11999	0.18517	0.00864	0.868
Mof_Na	Na	0.2336	0.1943	0.11389	1.725
Mof_N 	N 	0.3857	0.8509	0.7538	-0.077
Mof_N 	N 	0.0793	0.2795	0.9689	-0.069
Mof_O 	O 	0.3226	0.9763	0.8028	-0.548
Mof_O 	O 	0.2764	0.0252	0.7289	-0.52
Mof_O 	O 	0.2976	0.7841	0.8269	-0.724
Mof_O 	O 	0.2611	0.6888	0.7716	-0.606
Mof_O 	O 	0.5937	0.8802	0.7695	-0.529
Mof_O 	O 	0.4965	0.8849	0.8274	-0.453
Mof_O 	O 	0.1079	0.3796	0.0938	-0.507
Mof_O 	O 	0.1152	0.2525	0.0722	-0.695
Mof_O 	O 	0.9993	0.145	0.9989	-0.655
Mof_O 	O 	0.8931	0.179	0.9536	-0.763
Mof_O 	O 	0.1965	0.2042	0.8626	-0.582
Mof_O 	O 	0.1592	0.1541	0.9395	-0.52
Mof_C 	C 	0.3067	0.9713	0.7542	0.416
Mof_C 	C 	0.3241	0.8949	0.7259	-0.317
Mof_H 	H 	0.3411	0.9059	0.6902	0.107
Mof_H 	H 	0.2768	0.8635	0.7241	0.073
Mof_C 	C 	0.305	0.7437	0.7841	0.469
Mof_C 	C 	0.3723	0.7661	0.7504	-0.389
Mof_H 	H 	0.3616	0.7516	0.7141	0.107
Mof_H 	H 	0.4189	0.7382	0.7618	0.075
Mof_C 	C 	0.5231	0.8788	0.781	0.439
Mof_C 	C 	0.4666	0.8754	0.7357	-0.36
Mof_H 	H 	0.4636	0.9266	0.7192	0.124
Mof_H 	H 	0.4857	0.8383	0.7097	0.089
Mof_C 	C 	0.1043	0.3242	0.0608	0.444
Mof_C 	C 	0.0839	0.3466	0.006	-0.459
Mof_H 	H 	0.0336	0.3734	0.0063	0.113
Mof_H 	H 	0.1229	0.3834	0.9931	0.136
Mof_C 	C 	0.961	0.1912	0.9706	0.517
Mof_C 	C 	0.9989	0.2652	0.9517	-0.338
Mof_H 	H 	0.9983	0.2648	0.9135	0.051
Mof_H 	H 	0.9668	0.309	0.9631	0.07
Mof_C 	C 	0.164	0.2097	0.9064	0.439
Mof_C 	C 	0.1318	0.2869	0.9221	-0.396
Mof_H 	H 	0.1026	0.3092	0.8929	0.114
Mof_H 	H 	0.1747	0.3223	0.9304	0.096
Mof_Sm	Sm	0.72447	0.88181	0.80808	1.709
Mof_Cu	Cu	0.87104	0.6215	0.16824	0.915
Mof_Cu	Cu	0.88001	0.81483	0.00864	0.882
Mof_Na	Na	0.7664	0.8057	0.11389	1.779
Mof_N 	N 	0.6143	0.1491	0.7538	-0.082
Mof_N 	N 	0.9207	0.7205	0.9689	-0.04
Mof_O 	O 	0.6774	0.0237	0.8028	-0.558
Mof_O 	O 	0.7236	0.9748	0.7289	-0.446
Mof_O 	O 	0.7024	0.2159	0.8269	-0.727
Mof_O 	O 	0.7389	0.3112	0.7716	-0.606
Mof_O 	O 	0.4063	0.1198	0.7695	-0.531
Mof_O 	O 	0.5035	0.1151	0.8274	-0.461
Mof_O 	O 	0.8921	0.6204	0.0938	-0.498
Mof_O 	O 	0.8848	0.7475	0.0722	-0.687
Mof_O 	O 	0.0007	0.855	0.9989	-0.681
Mof_O 	O 	0.1069	0.821	0.9536	-0.763
Mof_O 	O 	0.8035	0.7958	0.8626	-0.585
Mof_O 	O 	0.8408	0.8459	0.9395	-0.508
Mof_C 	C 	0.6933	0.0287	0.7542	0.325
Mof_C 	C 	0.6759	0.1051	0.7259	-0.273
Mof_H 	H 	0.6589	0.0941	0.6902	0.084
Mof_H 	H 	0.7232	0.1365	0.7241	0.057
Mof_C 	C 	0.695	0.2563	0.7841	0.47
Mof_C 	C 	0.6277	0.2339	0.7504	-0.387
Mof_H 	H 	0.6384	0.2484	0.7141	0.106
Mof_H 	H 	0.5811	0.2618	0.7618	0.075
Mof_C 	C 	0.4769	0.1212	0.781	0.428
Mof_C 	C 	0.5334	0.1246	0.7357	-0.35
Mof_H 	H 	0.5364	0.0734	0.7192	0.106
Mof_H 	H 	0.5143	0.1617	0.7097	0.084
Mof_C 	C 	0.8957	0.6758	0.0608	0.452
Mof_C 	C 	0.9161	0.6534	0.006	-0.459
Mof_H 	H 	0.9664	0.6266	0.0063	0.138
Mof_H 	H 	0.8771	0.6166	0.9931	0.138
Mof_C 	C 	0.039	0.8088	0.9706	0.528
Mof_C 	C 	0.0011	0.7348	0.9517	-0.4
Mof_H 	H 	0.0017	0.7352	0.9135	0.049
Mof_H 	H 	0.0332	0.691	0.9631	0.07
Mof_C 	C 	0.836	0.7903	0.9064	0.451
Mof_C 	C 	0.8682	0.7131	0.9221	-0.401
Mof_H 	H 	0.8974	0.6908	0.8929	0.129
Mof_H 	H 	0.8253	0.6777	0.9304	0.097
Mof_Sm	Sm	0.11819	0.72447	0.19192	1.634
Mof_Cu	Cu	0.3785	0.87104	0.83176	0.915
Mof_Cu	Cu	0.18517	0.88001	0.99136	0.902
Mof_Na	Na	0.1943	0.7664	0.88611	1.767
Mof_N 	N 	0.8509	0.6143	0.2462	-0.075
Mof_N 	N 	0.2795	0.9207	0.0311	-0.075
Mof_O 	O 	0.9763	0.6774	0.1972	-0.548
Mof_O 	O 	0.0252	0.7236	0.2711	-0.515
Mof_O 	O 	0.7841	0.7024	0.1731	-0.726
Mof_O 	O 	0.6888	0.7389	0.2284	-0.606
Mof_O 	O 	0.8802	0.4063	0.2305	-0.527
Mof_O 	O 	0.8849	0.5035	0.1726	-0.456
Mof_O 	O 	0.3796	0.8921	0.9062	-0.479
Mof_O 	O 	0.2525	0.8848	0.9278	-0.67
Mof_O 	O 	0.145	0.0007	0.0011	-0.724
Mof_O 	O 	0.179	0.1069	0.0464	-0.775
Mof_O 	O 	0.2042	0.8035	0.1374	-0.583
Mof_O 	O 	0.1541	0.8408	0.0605	-0.532
Mof_C 	C 	0.9713	0.6933	0.2458	0.418
Mof_C 	C 	0.8949	0.6759	0.2741	-0.319
Mof_H 	H 	0.9059	0.6589	0.3098	0.109
Mof_H 	H 	0.8635	0.7232	0.2759	0.077
Mof_C 	C 	0.7437	0.695	0.2159	0.47
Mof_C 	C 	0.7661	0.6277	0.2496	-0.389
Mof_H 	H 	0.7516	0.6384	0.2859	0.107
Mof_H 	H 	0.7382	0.5811	0.2382	0.074
Mof_C 	C 	0.8788	0.4769	0.219	0.438
Mof_C 	C 	0.8754	0.5334	0.2643	-0.36
Mof_H 	H 	0.9266	0.5364	0.2808	0.124
Mof_H 	H 	0.8383	0.5143	0.2903	0.089
Mof_C 	C 	0.3242	0.8957	0.9392	0.415
Mof_C 	C 	0.3466	0.9161	0.994	-0.311
Mof_H 	H 	0.3734	0.9664	0.9937	0.114
Mof_H 	H 	0.3834	0.8771	0.0069	0.063
Mof_C 	C 	0.1912	0.039	0.0294	0.523
Mof_C 	C 	0.2652	0.0011	0.0483	-0.402
Mof_H 	H 	0.2648	0.0017	0.0865	0.047
Mof_H 	H 	0.309	0.0332	0.0369	0.058
Mof_C 	C 	0.2097	0.836	0.0936	0.446
Mof_C 	C 	0.2869	0.8682	0.0779	-0.395
Mof_H 	H 	0.3092	0.8974	0.1071	0.126
Mof_H 	H 	0.3223	0.8253	0.0696	0.088
Mof_Sm	Sm	0.88181	0.27553	0.19192	1.691
Mof_Cu	Cu	0.6215	0.12896	0.83176	0.912
Mof_Cu	Cu	0.81483	0.11999	0.99136	0.892
Mof_Na	Na	0.8057	0.2336	0.88611	1.789
Mof_N 	N 	0.1491	0.3857	0.2462	-0.083
Mof_N 	N 	0.7205	0.0793	0.0311	-0.11
Mof_O 	O 	0.0237	0.3226	0.1972	-0.559
Mof_O 	O 	0.9748	0.2764	0.2711	-0.445
Mof_O 	O 	0.2159	0.2976	0.1731	-0.722
Mof_O 	O 	0.3112	0.2611	0.2284	-0.605
Mof_O 	O 	0.1198	0.5937	0.2305	-0.533
Mof_O 	O 	0.1151	0.4965	0.1726	-0.466
Mof_O 	O 	0.6204	0.1079	0.9062	-0.487
Mof_O 	O 	0.7475	0.1152	0.9278	-0.68
Mof_O 	O 	0.855	0.9993	0.0011	-0.671
Mof_O 	O 	0.821	0.8931	0.0464	-0.762
Mof_O 	O 	0.7958	0.1965	0.1374	-0.587
Mof_O 	O 	0.8459	0.1592	0.0605	-0.534
Mof_C 	C 	0.0287	0.3067	0.2458	0.319
Mof_C 	C 	0.1051	0.3241	0.2741	-0.269
Mof_H 	H 	0.0941	0.3411	0.3098	0.081
Mof_H 	H 	0.1365	0.2768	0.2759	0.052
Mof_C 	C 	0.2563	0.305	0.2159	0.466
Mof_C 	C 	0.2339	0.3723	0.2496	-0.386
Mof_H 	H 	0.2484	0.3616	0.2859	0.106
Mof_H 	H 	0.2618	0.4189	0.2382	0.073
Mof_C 	C 	0.1212	0.5231	0.219	0.428
Mof_C 	C 	0.1246	0.4666	0.2643	-0.35
Mof_H 	H 	0.0734	0.4636	0.2808	0.106
Mof_H 	H 	0.1617	0.4857	0.2903	0.083
Mof_C 	C 	0.6758	0.1043	0.9392	0.404
Mof_C 	C 	0.6534	0.0839	0.994	-0.296
Mof_H 	H 	0.6266	0.0336	0.9937	0.087
Mof_H 	H 	0.6166	0.1229	0.0069	0.053
Mof_C 	C 	0.8088	0.961	0.0294	0.511
Mof_C 	C 	0.7348	0.9989	0.0483	-0.332
Mof_H 	H 	0.7352	0.9983	0.0865	0.05
Mof_H 	H 	0.691	0.9668	0.0369	0.056
Mof_C 	C 	0.7903	0.164	0.0936	0.441
Mof_C 	C 	0.7131	0.1318	0.0779	-0.391
Mof_H 	H 	0.6908	0.1026	0.1071	0.112
Mof_H 	H 	0.6777	0.1747	0.0696	0.086
Mof_Sm	Sm	0.22447	0.61819	0.69192	1.651
Mof_Cu	Cu	0.37104	0.8785	0.33176	0.914
Mof_Cu	Cu	0.38001	0.68517	0.49136	0.883
Mof_Na	Na	0.2664	0.6943	0.38611	1.757
Mof_N 	N 	0.1143	0.3509	0.7462	-0.074
Mof_N 	N 	0.4207	0.7795	0.5311	-0.071
Mof_O 	O 	0.1774	0.4763	0.6972	-0.554
Mof_O 	O 	0.2236	0.5252	0.7711	-0.481
Mof_O 	O 	0.2024	0.2841	0.6731	-0.724
Mof_O 	O 	0.2389	0.1888	0.7284	-0.604
Mof_O 	O 	0.9063	0.3802	0.7305	-0.544
Mof_O 	O 	0.0035	0.3849	0.6726	-0.506
Mof_O 	O 	0.3921	0.8796	0.4062	-0.489
Mof_O 	O 	0.3848	0.7525	0.4278	-0.685
Mof_O 	O 	0.5007	0.645	0.5011	-0.727
Mof_O 	O 	0.6069	0.679	0.5464	-0.778
Mof_O 	O 	0.3035	0.7042	0.6374	-0.585
Mof_O 	O 	0.3408	0.6541	0.5605	-0.53
Mof_C 	C 	0.1933	0.4713	0.7458	0.369
Mof_C 	C 	0.1759	0.3949	0.7741	-0.297
Mof_H 	H 	0.1589	0.4059	0.8098	0.095
Mof_H 	H 	0.2232	0.3635	0.7759	0.066
Mof_C 	C 	0.195	0.2437	0.7159	0.464
Mof_C 	C 	0.1277	0.2661	0.7496	-0.384
Mof_H 	H 	0.1384	0.2516	0.7859	0.104
Mof_H 	H 	0.0811	0.2382	0.7382	0.065
Mof_C 	C 	0.9769	0.3788	0.719	0.514
Mof_C 	C 	0.0334	0.3754	0.7643	-0.414
Mof_H 	H 	0.0364	0.4266	0.7808	0.124
Mof_H 	H 	0.0143	0.3383	0.7903	0.093
Mof_C 	C 	0.3957	0.8242	0.4392	0.432
Mof_C 	C 	0.4161	0.8466	0.494	-0.386
Mof_H 	H 	0.4664	0.8734	0.4937	0.119
Mof_H 	H 	0.3771	0.8834	0.5069	0.103
Mof_C 	C 	0.539	0.6912	0.5294	0.533
Mof_C 	C 	0.5011	0.7652	0.5483	-0.377
Mof_H 	H 	0.5017	0.7648	0.5865	0.051
Mof_H 	H 	0.5332	0.809	0.5369	0.069
Mof_C 	C 	0.336	0.7097	0.5936	0.445
Mof_C 	C 	0.3682	0.7869	0.5779	-0.399
Mof_H 	H 	0.3974	0.8092	0.6071	0.122
Mof_H 	H 	0.3253	0.8223	0.5696	0.094
Mof_Sm	Sm	0.77553	0.38181	0.69192	1.678
Mof_Cu	Cu	0.62896	0.1215	0.33176	0.913
Mof_Cu	Cu	0.61999	0.31483	0.49136	0.883
Mof_Na	Na	0.7336	0.3057	0.38611	1.771
Mof_N 	N 	0.8857	0.6491	0.7462	-0.083
Mof_N 	N 	0.5793	0.2205	0.5311	-0.074
Mof_O 	O 	0.8226	0.5237	0.6972	-0.553
Mof_O 	O 	0.7764	0.4748	0.7711	-0.48
Mof_O 	O 	0.7976	0.7159	0.6731	-0.726
Mof_O 	O 	0.7611	0.8112	0.7284	-0.609
Mof_O 	O 	0.0937	0.6198	0.7305	-0.515
Mof_O 	O 	0.9965	0.6151	0.6726	-0.414
Mof_O 	O 	0.6079	0.1204	0.4062	-0.496
Mof_O 	O 	0.6152	0.2475	0.4278	-0.686
Mof_O 	O 	0.4993	0.355	0.5011	-0.726
Mof_O 	O 	0.3931	0.321	0.5464	-0.775
Mof_O 	O 	0.6965	0.2958	0.6374	-0.587
Mof_O 	O 	0.6592	0.3459	0.5605	-0.53
Mof_C 	C 	0.8067	0.5287	0.7458	0.37
Mof_C 	C 	0.8241	0.6051	0.7741	-0.294
Mof_H 	H 	0.8411	0.5941	0.8098	0.097
Mof_H 	H 	0.7768	0.6365	0.7759	0.064
Mof_C 	C 	0.805	0.7563	0.7159	0.475
Mof_C 	C 	0.8723	0.7339	0.7496	-0.393
Mof_H 	H 	0.8616	0.7484	0.7859	0.111
Mof_H 	H 	0.9189	0.7618	0.7382	0.084
Mof_C 	C 	0.0231	0.6212	0.719	0.356
Mof_C 	C 	0.9666	0.6246	0.7643	-0.299
Mof_H 	H 	0.9636	0.5734	0.7808	0.107
Mof_H 	H 	0.9857	0.6617	0.7903	0.081
Mof_C 	C 	0.6043	0.1758	0.4392	0.427
Mof_C 	C 	0.5839	0.1534	0.494	-0.377
Mof_H 	H 	0.5336	0.1266	0.4937	0.107
Mof_H 	H 	0.6229	0.1166	0.5069	0.092
Mof_C 	C 	0.461	0.3088	0.5294	0.529
Mof_C 	C 	0.4989	0.2348	0.5483	-0.371
Mof_H 	H 	0.4983	0.2352	0.5865	0.048
Mof_H 	H 	0.4668	0.191	0.5369	0.062
Mof_C 	C 	0.664	0.2903	0.5936	0.445
Mof_C 	C 	0.6318	0.2131	0.5779	-0.396
Mof_H 	H 	0.6026	0.1908	0.6071	0.118
Mof_H 	H 	0.6747	0.1777	0.5696	0.091
Mof_Sm	Sm	0.38181	0.22447	0.30808	1.643
Mof_Cu	Cu	0.1215	0.37104	0.66824	0.912
Mof_Cu	Cu	0.31483	0.38001	0.50864	0.883
Mof_Na	Na	0.3057	0.2664	0.61389	1.745
Mof_N 	N 	0.6491	0.1143	0.2538	-0.074
Mof_N 	N 	0.2205	0.4207	0.4689	-0.075
Mof_O 	O 	0.5237	0.1774	0.3028	-0.554
Mof_O 	O 	0.4748	0.2236	0.2289	-0.483
Mof_O 	O 	0.7159	0.2024	0.3269	-0.726
Mof_O 	O 	0.8112	0.2389	0.2716	-0.609
Mof_O 	O 	0.6198	0.9063	0.2695	-0.544
Mof_O 	O 	0.6151	0.0035	0.3274	-0.504
Mof_O 	O 	0.1204	0.3921	0.5938	-0.497
Mof_O 	O 	0.2475	0.3848	0.5722	-0.683
Mof_O 	O 	0.355	0.5007	0.4989	-0.726
Mof_O 	O 	0.321	0.6069	0.4536	-0.776
Mof_O 	O 	0.2958	0.3035	0.3626	-0.585
Mof_O 	O 	0.3459	0.3408	0.4395	-0.53
Mof_C 	C 	0.5287	0.1933	0.2542	0.368
Mof_C 	C 	0.6051	0.1759	0.2259	-0.295
Mof_H 	H 	0.5941	0.1589	0.1902	0.093
Mof_H 	H 	0.6365	0.2232	0.2241	0.064
Mof_C 	C 	0.7563	0.195	0.2841	0.469
Mof_C 	C 	0.7339	0.1277	0.2504	-0.389
Mof_H 	H 	0.7484	0.1384	0.2141	0.105
Mof_H 	H 	0.7618	0.0811	0.2618	0.071
Mof_C 	C 	0.6212	0.9769	0.281	0.514
Mof_C 	C 	0.6246	0.0334	0.2357	-0.414
Mof_H 	H 	0.5734	0.0364	0.2192	0.123
Mof_H 	H 	0.6617	0.0143	0.2097	0.093
Mof_C 	C 	0.1758	0.3957	0.5608	0.425
Mof_C 	C 	0.1534	0.4161	0.506	-0.376
Mof_H 	H 	0.1266	0.4664	0.5063	0.107
Mof_H 	H 	0.1166	0.3771	0.4931	0.09
Mof_C 	C 	0.3088	0.539	0.4706	0.53
Mof_C 	C 	0.2348	0.5011	0.4517	-0.372
Mof_H 	H 	0.2352	0.5017	0.4135	0.048
Mof_H 	H 	0.191	0.5332	0.4631	0.062
Mof_C 	C 	0.2903	0.336	0.4064	0.441
Mof_C 	C 	0.2131	0.3682	0.4221	-0.393
Mof_H 	H 	0.1908	0.3974	0.3929	0.117
Mof_H 	H 	0.1777	0.3253	0.4304	0.086
Mof_Sm	Sm	0.61819	0.77553	0.30808	1.682
Mof_Cu	Cu	0.8785	0.62896	0.66824	0.914
Mof_Cu	Cu	0.68517	0.61999	0.50864	0.884
Mof_Na	Na	0.6943	0.7336	0.61389	1.783
Mof_N 	N 	0.3509	0.8857	0.2538	-0.084
Mof_N 	N 	0.7795	0.5793	0.4689	-0.07
Mof_O 	O 	0.4763	0.8226	0.3028	-0.553
Mof_O 	O 	0.5252	0.7764	0.2289	-0.482
Mof_O 	O 	0.2841	0.7976	0.3269	-0.724
Mof_O 	O 	0.1888	0.7611	0.2716	-0.603
Mof_O 	O 	0.3802	0.0937	0.2695	-0.515
Mof_O 	O 	0.3849	0.9965	0.3274	-0.413
Mof_O 	O 	0.8796	0.6079	0.5938	-0.489
Mof_O 	O 	0.7525	0.6152	0.5722	-0.687
Mof_O 	O 	0.645	0.4993	0.4989	-0.726
Mof_O 	O 	0.679	0.3931	0.4536	-0.777
Mof_O 	O 	0.7042	0.6965	0.3626	-0.586
Mof_O 	O 	0.6541	0.6592	0.4395	-0.53
Mof_C 	C 	0.4713	0.8067	0.2542	0.37
Mof_C 	C 	0.3949	0.8241	0.2259	-0.293
Mof_H 	H 	0.4059	0.8411	0.1902	0.095
Mof_H 	H 	0.3635	0.7768	0.2241	0.064
Mof_C 	C 	0.2437	0.805	0.2841	0.469
Mof_C 	C 	0.2661	0.8723	0.2504	-0.389
Mof_H 	H 	0.2516	0.8616	0.2141	0.109
Mof_H 	H 	0.2382	0.9189	0.2618	0.08
Mof_C 	C 	0.3788	0.0231	0.281	0.349
Mof_C 	C 	0.3754	0.9666	0.2357	-0.294
Mof_H 	H 	0.4266	0.9636	0.2192	0.106
Mof_H 	H 	0.3383	0.9857	0.2097	0.079
Mof_C 	C 	0.8242	0.6043	0.5608	0.433
Mof_C 	C 	0.8466	0.5839	0.506	-0.387
Mof_H 	H 	0.8734	0.5336	0.5063	0.119
Mof_H 	H 	0.8834	0.6229	0.4931	0.105
Mof_C 	C 	0.6912	0.461	0.4706	0.532
Mof_C 	C 	0.7652	0.4989	0.4517	-0.376
Mof_H 	H 	0.7648	0.4983	0.4135	0.051
Mof_H 	H 	0.809	0.4668	0.4631	0.068
Mof_C 	C 	0.7097	0.664	0.4064	0.448
Mof_C 	C 	0.7869	0.6318	0.4221	-0.401
Mof_H 	H 	0.8092	0.6026	0.3929	0.123
Mof_H 	H 	0.8223	0.6747	0.4304	0.098
Mof_Na	Na	-0	0	-0	1.783
Mof_Na	Na	0.5	0.5	0.5	2.064
_end
