data_functionalizedCrystal
_audit_creation_method	'EQeq! by Chris Wilmer'
_symmetry_space_group_name_H-M	'P1'
_symmetry_Int_Tables_number	1
_symmetry_cell_setting	triclinic
loop_
_symmetry_equiv_pos_as_xyz
  x,y,z
_cell_length_a	13.7442
_cell_length_b	14.2887
_cell_length_c	14.1178
_cell_angle_alpha	90
_cell_angle_beta	104.912
_cell_angle_gamma	90
loop_
_atom_site_label
_atom_site_type_symbol
_atom_site_fract_x
_atom_site_fract_y
_atom_site_fract_z
_atom_site_charge
Mof_Mg	Mg	0.12529	0.20877	0.51738	1.456
Mof_Mg	Mg	0.38341	0.09888	0.55142	1.478
Mof_O 	O 	0.19145	0.22052	0.40448	-0.553
Mof_O 	O 	0.35618	0.18963	0.43698	-0.51
Mof_O 	O 	0.13693	0.49403	0.04613	-0.527
Mof_O 	O 	0.03124	0.41132	0.10807	-0.523
Mof_O 	O 	0.38565	0.2013	0.65092	-0.515
Mof_O 	O 	0.2371	0.27378	0.61779	-0.586
Mof_O 	O 	0.31728	0.57459	0.95772	-0.581
Mof_O 	O 	0.18032	0.5092	0.8658	-0.477
Mof_N 	N 	0.37116	0.31887	0.17735	-0.167
Mof_N 	N 	0.48396	0.34107	0.91229	-0.29
Mof_C 	C 	0.27576	0.22438	0.38628	0.477
Mof_C 	C 	0.2799	0.27669	0.29475	-0.203
Mof_C 	C 	0.36424	0.2739	0.2582	0.12
Mof_H 	H 	0.4192	0.2387	0.2919	0.002
Mof_C 	C 	0.29223	0.3709	0.13069	0.123
Mof_H 	H 	0.2972	0.4046	0.0758	0.002
Mof_C 	C 	0.20354	0.37721	0.15988	-0.215
Mof_C 	C 	0.11645	0.43276	0.09951	0.523
Mof_C 	C 	0.19757	0.32831	0.24281	0.144
Mof_H 	H 	0.1387	0.33	0.2637	-0.002
Mof_C 	C 	0.32456	0.25948	0.66813	0.492
Mof_C 	C 	0.35959	0.31742	0.75953	-0.214
Mof_C 	C 	0.45061	0.2971	0.82593	0.117
Mof_H 	H 	0.4907	0.2505	0.8098	-0.017
Mof_C 	C 	0.42648	0.40988	0.93231	0.118
Mof_H 	H 	0.4484	0.4412	0.9917	-0.032
Mof_C 	C 	0.33553	0.4373	0.8691	-0.21
Mof_C 	C 	0.274	0.5134	0.89882	0.439
Mof_C 	C 	0.30124	0.38875	0.78197	0.141
Mof_H 	H 	0.2397	0.4039	0.7391	-0.009
Mof_Mg	Mg	0.37471	0.70877	0.98262	1.457
Mof_Mg	Mg	0.11659	0.59888	0.94858	1.478
Mof_O 	O 	0.30855	0.72052	0.09552	-0.551
Mof_O 	O 	0.14382	0.68963	0.06302	-0.506
Mof_O 	O 	0.36307	0.99403	0.45387	-0.529
Mof_O 	O 	0.46876	0.91132	0.39193	-0.526
Mof_O 	O 	0.11435	0.7013	0.84908	-0.518
Mof_O 	O 	0.2629	0.77378	0.88221	-0.587
Mof_O 	O 	0.18272	0.07459	0.54228	-0.58
Mof_O 	O 	0.31968	0.0092	0.6342	-0.475
Mof_N 	N 	0.12884	0.81887	0.32265	-0.166
Mof_N 	N 	0.01604	0.84107	0.58771	-0.291
Mof_C 	C 	0.22424	0.72438	0.11372	0.477
Mof_C 	C 	0.2201	0.77669	0.20525	-0.202
Mof_C 	C 	0.13576	0.7739	0.2418	0.12
Mof_H 	H 	0.0808	0.7387	0.2081	0.003
Mof_C 	C 	0.20777	0.8709	0.36931	0.124
Mof_H 	H 	0.2028	0.9046	0.4242	0.001
Mof_C 	C 	0.29646	0.87721	0.34012	-0.216
Mof_C 	C 	0.38355	0.93276	0.40049	0.524
Mof_C 	C 	0.30243	0.82831	0.25719	0.144
Mof_H 	H 	0.3613	0.83	0.2363	-0.002
Mof_C 	C 	0.17544	0.75948	0.83187	0.492
Mof_C 	C 	0.14041	0.81742	0.74047	-0.215
Mof_C 	C 	0.04939	0.7971	0.67407	0.116
Mof_H 	H 	0.0093	0.7505	0.6902	-0.019
Mof_C 	C 	0.07352	0.90988	0.56769	0.117
Mof_H 	H 	0.0516	0.9412	0.5083	-0.032
Mof_C 	C 	0.16447	0.9373	0.6309	-0.209
Mof_C 	C 	0.226	0.0134	0.60118	0.437
Mof_C 	C 	0.19876	0.88875	0.71803	0.141
Mof_H 	H 	0.2603	0.9039	0.7609	-0.009
Mof_Mg	Mg	0.87471	0.79123	0.48262	1.457
Mof_Mg	Mg	0.61659	0.90112	0.44858	1.479
Mof_O 	O 	0.80855	0.77948	0.59552	-0.553
Mof_O 	O 	0.64382	0.81037	0.56302	-0.51
Mof_O 	O 	0.86307	0.50597	0.95387	-0.527
Mof_O 	O 	0.96876	0.58868	0.89193	-0.523
Mof_O 	O 	0.61435	0.7987	0.34908	-0.515
Mof_O 	O 	0.7629	0.72622	0.38221	-0.586
Mof_O 	O 	0.68272	0.42541	0.04228	-0.581
Mof_O 	O 	0.81968	0.4908	0.1342	-0.477
Mof_N 	N 	0.62884	0.68113	0.82265	-0.167
Mof_N 	N 	0.51604	0.65893	0.08771	-0.29
Mof_C 	C 	0.72424	0.77562	0.61372	0.477
Mof_C 	C 	0.7201	0.72331	0.70525	-0.203
Mof_C 	C 	0.63576	0.7261	0.7418	0.12
Mof_H 	H 	0.5808	0.7613	0.7081	0.002
Mof_C 	C 	0.70777	0.6291	0.86931	0.123
Mof_H 	H 	0.7028	0.5954	0.9242	0.002
Mof_C 	C 	0.79646	0.62279	0.84012	-0.215
Mof_C 	C 	0.88355	0.56724	0.90049	0.523
Mof_C 	C 	0.80243	0.67169	0.75719	0.144
Mof_H 	H 	0.8613	0.67	0.7363	-0.002
Mof_C 	C 	0.67544	0.74052	0.33187	0.492
Mof_C 	C 	0.64041	0.68258	0.24047	-0.214
Mof_C 	C 	0.54939	0.7029	0.17407	0.117
Mof_H 	H 	0.5093	0.7495	0.1902	-0.017
Mof_C 	C 	0.57352	0.59012	0.06769	0.118
Mof_H 	H 	0.5516	0.5588	0.0083	-0.032
Mof_C 	C 	0.66447	0.5627	0.1309	-0.21
Mof_C 	C 	0.726	0.4866	0.10118	0.439
Mof_C 	C 	0.69876	0.61125	0.21803	0.141
Mof_H 	H 	0.7603	0.5961	0.2609	-0.009
Mof_Mg	Mg	0.62529	0.29123	0.01738	1.457
Mof_Mg	Mg	0.88341	0.40112	0.05142	1.478
Mof_O 	O 	0.69145	0.27948	0.90448	-0.551
Mof_O 	O 	0.85618	0.31037	0.93698	-0.506
Mof_O 	O 	0.63693	0.00597	0.54613	-0.529
Mof_O 	O 	0.53124	0.08868	0.60807	-0.526
Mof_O 	O 	0.88565	0.2987	0.15092	-0.518
Mof_O 	O 	0.7371	0.22622	0.11779	-0.587
Mof_O 	O 	0.81728	0.92541	0.45772	-0.58
Mof_O 	O 	0.68032	0.9908	0.3658	-0.475
Mof_N 	N 	0.87116	0.18113	0.67735	-0.166
Mof_N 	N 	0.98396	0.15893	0.41229	-0.291
Mof_C 	C 	0.77576	0.27562	0.88628	0.477
Mof_C 	C 	0.7799	0.22331	0.79475	-0.202
Mof_C 	C 	0.86424	0.2261	0.7582	0.12
Mof_H 	H 	0.9192	0.2613	0.7919	0.003
Mof_C 	C 	0.79223	0.1291	0.63069	0.124
Mof_H 	H 	0.7972	0.0954	0.5758	0.001
Mof_C 	C 	0.70354	0.12279	0.65988	-0.216
Mof_C 	C 	0.61645	0.06724	0.59951	0.524
Mof_C 	C 	0.69757	0.17169	0.74281	0.144
Mof_H 	H 	0.6387	0.17	0.7637	-0.002
Mof_C 	C 	0.82456	0.24052	0.16813	0.492
Mof_C 	C 	0.85959	0.18258	0.25953	-0.215
Mof_C 	C 	0.95061	0.2029	0.32593	0.116
Mof_H 	H 	0.9907	0.2495	0.3098	-0.019
Mof_C 	C 	0.92648	0.09012	0.43231	0.117
Mof_H 	H 	0.9484	0.0588	0.4917	-0.032
Mof_C 	C 	0.83553	0.0627	0.3691	-0.209
Mof_C 	C 	0.774	0.9866	0.39882	0.437
Mof_C 	C 	0.80124	0.11125	0.28197	0.141
Mof_H 	H 	0.7397	0.0961	0.2391	-0.009
_end
