data_functionalizedCrystal
_audit_creation_method	'EQeq! by Chris Wilmer'
_symmetry_space_group_name_H-M	'P1'
_symmetry_Int_Tables_number	1
_symmetry_cell_setting	triclinic
loop_
_symmetry_equiv_pos_as_xyz
  x,y,z
_cell_length_a	16.015
_cell_length_b	21.146
_cell_length_c	23.843
_cell_angle_alpha	90
_cell_angle_beta	90
_cell_angle_gamma	90
loop_
_atom_site_label
_atom_site_type_symbol
_atom_site_fract_x
_atom_site_fract_y
_atom_site_fract_z
_atom_site_charge
Mof_K 	K 	0.11901	0.0946	0.92837	3.782
Mof_K 	K 	0.38099	0.9054	0.42837	3.785
Mof_K 	K 	0.88099	0.5946	0.57163	3.785
Mof_K 	K 	0.61901	0.4054	0.07163	3.783
Mof_Co	Co	0.73308	0.8802	0.78581	1.18
Mof_Co	Co	0.76692	0.1198	0.28581	1.18
Mof_Co	Co	0.26692	0.3802	0.71419	1.18
Mof_Co	Co	0.23308	0.6198	0.21419	1.179
Mof_P 	P 	0.49732	0.74022	0.45766	0.528
Mof_P 	P 	0.00268	0.25978	0.95766	0.528
Mof_P 	P 	0.50268	0.24022	0.04234	0.528
Mof_P 	P 	0.99732	0.75978	0.54234	0.528
Mof_H 	H 	0.0333	0.8558	0.7875	0.079
Mof_H 	H 	0.7237	0.1023	0.8448	0.081
Mof_H 	H 	0.5934	0.0393	0.8295	0.098
Mof_H 	H 	0.4317	0.8476	0.8278	0.077
Mof_H 	H 	0.7634	0.6991	0.6974	-0.012
Mof_H 	H 	0.8107	0.7461	0.8076	0.036
Mof_H 	H 	0.7822	0.8095	0.6706	0.118
Mof_H 	H 	0.8746	0.8362	0.6607	0.123
Mof_H 	H 	0.8574	0.7616	0.6585	0.077
Mof_H 	H 	0.9681	0.7037	0.706	0.088
Mof_H 	H 	0.0019	0.7657	0.675	0.141
Mof_H 	H 	0.0558	0.7338	0.7239	0.156
Mof_H 	H 	0.9381	0.7125	0.8138	0.125
Mof_H 	H 	0.9276	0.7812	0.841	0.132
Mof_H 	H 	0.1081	0.7589	0.9045	0.14
Mof_H 	H 	0.0148	0.772	0.9101	0.128
Mof_H 	H 	0.9901	0.8704	0.6722	0.008
Mof_H 	H 	0.0128	0.9322	0.7077	0.005
Mof_H 	H 	0.1251	0.8283	0.688	0.125
Mof_H 	H 	0.1481	0.8867	0.728	0.128
Mof_H 	H 	0.1666	0.9021	0.5659	0.193
Mof_H 	H 	0.1297	0.8428	0.5926	0.188
Mof_H 	H 	0.9996	0.0104	0.8491	-0.101
Mof_H 	H 	0.0337	0.9395	0.844	-0.026
Mof_H 	H 	0.0372	0.9857	0.7909	-0.007
Mof_H 	H 	0.9285	0.0942	0.7901	0.058
Mof_H 	H 	0.8829	0.1444	0.8299	0.07
Mof_H 	H 	0.952	0.0978	0.8552	-0.044
Mof_H 	H 	0.7743	0.0196	0.9124	0.127
Mof_H 	H 	0.815	0.0877	0.922	0.125
Mof_H 	H 	0.9341	0.936	0.9668	0.128
Mof_H 	H 	0.8476	0.9338	0.9402	0.155
Mof_H 	H 	0.8002	0.0821	0.7361	0.009
Mof_H 	H 	0.7799	0.1494	0.7637	-0.001
Mof_H 	H 	0.6556	0.0627	0.7246	0.136
Mof_H 	H 	0.6345	0.129	0.7531	0.132
Mof_H 	H 	0.7353	0.1925	0.6223	0.149
Mof_H 	H 	0.779	0.1794	0.6779	0.163
Mof_H 	H 	0.4366	0.9141	0.9122	0.179
Mof_H 	H 	0.5291	0.8861	0.9067	0.182
Mof_H 	H 	0.5156	0.9597	0.9192	0.182
Mof_H 	H 	0.4498	0.0124	0.7859	0.184
Mof_H 	H 	0.377	0.9819	0.8232	0.184
Mof_H 	H 	0.4449	0.0273	0.8517	0.192
Mof_H 	H 	0.4412	0.8431	0.7239	0.006
Mof_H 	H 	0.463	0.9167	0.7257	0.011
Mof_H 	H 	0.3193	0.8915	0.7036	0.14
Mof_H 	H 	0.3322	0.9443	0.7505	0.134
Mof_H 	H 	0.2424	0.7835	0.7912	0.17
Mof_H 	H 	0.3028	0.7882	0.742	0.153
Mof_H 	H 	0.4427	0.7596	0.8007	0.149
Mof_H 	H 	0.4743	0.7295	0.7429	0.16
Mof_H 	H 	0.5032	0.6994	0.8013	0.153
Mof_H 	H 	0.6153	0.6644	0.8387	0.14
Mof_H 	H 	0.6715	0.6081	0.8146	0.136
Mof_H 	H 	0.7149	0.6684	0.8427	0.138
Mof_H 	H 	0.6418	0.6095	0.7131	0.047
Mof_H 	H 	0.5611	0.6429	0.7387	0.052
Mof_H 	H 	0.648	0.6781	0.6386	0.069
Mof_H 	H 	0.5899	0.7292	0.669	0.1
Mof_H 	H 	0.5834	0.6325	0.5683	0.158
Mof_H 	H 	0.8037	0.619	0.7936	0.12
Mof_H 	H 	0.8788	0.6457	0.756	0.093
Mof_H 	H 	0.7958	0.4911	0.7157	0.144
Mof_H 	H 	0.8058	0.52	0.7739	0.169
Mof_H 	H 	0.4205	0.5879	0.5788	0.08
Mof_H 	H 	0.4834	0.5671	0.5301	0.087
Mof_H 	H 	0.4003	0.6859	0.5341	-0.049
Mof_H 	H 	0.3684	0.5746	0.467	0.201
Mof_H 	H 	0.3021	0.6096	0.5064	0.187
Mof_H 	H 	0.3322	0.6423	0.4494	0.204
Mof_H 	H 	0.5668	0.9483	0.5599	-0.011
Mof_H 	H 	0.6418	0.8676	0.5201	0.009
Mof_H 	H 	0.5008	0.854	0.5011	-0.204
Mof_H 	H 	0.4731	0.8015	0.6114	0.083
Mof_H 	H 	0.3456	0.8549	0.6097	-0.053
Mof_H 	H 	0.3521	0.8106	0.5554	-0.103
Mof_H 	H 	0.6737	0.7868	0.5707	0.182
Mof_H 	H 	0.314	0.9026	0.5283	0.145
Mof_H 	H 	0.6035	0.8666	0.6921	0.001
Mof_H 	H 	0.8685	0.9739	0.7052	0.083
Mof_H 	H 	0.6957	0.0132	0.5488	0.077
Mof_H 	H 	0.9704	0.042	0.6735	0.151
Mof_H 	H 	0.9787	0.0434	0.6066	0.151
Mof_H 	H 	0.936	0.1014	0.6389	0.15
Mof_H 	H 	0.7934	0.0804	0.5092	0.146
Mof_H 	H 	0.845	0.1216	0.5536	0.144
Mof_H 	H 	0.8883	0.0627	0.5232	0.136
Mof_H 	H 	0.4667	0.1442	0.2875	0.079
Mof_H 	H 	0.7763	0.8977	0.3448	0.081
Mof_H 	H 	0.9066	0.9607	0.3295	0.097
Mof_H 	H 	0.0683	0.1524	0.3278	0.076
Mof_H 	H 	0.7366	0.3009	0.1974	-0.012
Mof_H 	H 	0.6893	0.2539	0.3076	0.036
Mof_H 	H 	0.7178	0.1905	0.1706	0.118
Mof_H 	H 	0.6254	0.1638	0.1607	0.123
Mof_H 	H 	0.6426	0.2384	0.1585	0.077
Mof_H 	H 	0.5319	0.2963	0.206	0.089
Mof_H 	H 	0.4981	0.2343	0.175	0.142
Mof_H 	H 	0.4442	0.2662	0.2239	0.157
Mof_H 	H 	0.5619	0.2875	0.3138	0.126
Mof_H 	H 	0.5724	0.2188	0.341	0.132
Mof_H 	H 	0.3919	0.2411	0.4045	0.139
Mof_H 	H 	0.4852	0.228	0.4101	0.128
Mof_H 	H 	0.5099	0.1296	0.1722	0.007
Mof_H 	H 	0.4872	0.0678	0.2077	0.005
Mof_H 	H 	0.3749	0.1717	0.188	0.126
Mof_H 	H 	0.3519	0.1133	0.228	0.128
Mof_H 	H 	0.3334	0.0979	0.0659	0.194
Mof_H 	H 	0.3703	0.1572	0.0926	0.188
Mof_H 	H 	0.5004	0.9896	0.3491	-0.101
Mof_H 	H 	0.4663	0.0605	0.344	-0.026
Mof_H 	H 	0.4628	0.0143	0.2909	-0.007
Mof_H 	H 	0.5715	0.9058	0.2901	0.058
Mof_H 	H 	0.6171	0.8556	0.3299	0.07
Mof_H 	H 	0.548	0.9022	0.3552	-0.044
Mof_H 	H 	0.7257	0.9804	0.4124	0.128
Mof_H 	H 	0.685	0.9123	0.422	0.125
Mof_H 	H 	0.5659	0.064	0.4668	0.127
Mof_H 	H 	0.6524	0.0662	0.4402	0.154
Mof_H 	H 	0.6998	0.9179	0.2361	0.009
Mof_H 	H 	0.7201	0.8506	0.2637	-0.001
Mof_H 	H 	0.8444	0.9373	0.2246	0.136
Mof_H 	H 	0.8655	0.871	0.2531	0.132
Mof_H 	H 	0.7647	0.8075	0.1223	0.148
Mof_H 	H 	0.721	0.8206	0.1779	0.163
Mof_H 	H 	0.0634	0.0859	0.4122	0.176
Mof_H 	H 	0.9709	0.1139	0.4067	0.179
Mof_H 	H 	0.9844	0.0403	0.4192	0.178
Mof_H 	H 	0.0502	0.9876	0.2859	0.183
Mof_H 	H 	0.123	0.0181	0.3232	0.183
Mof_H 	H 	0.0551	0.9727	0.3517	0.192
Mof_H 	H 	0.0588	0.1569	0.2239	0.007
Mof_H 	H 	0.037	0.0833	0.2257	0.012
Mof_H 	H 	0.1807	0.1085	0.2036	0.14
Mof_H 	H 	0.1678	0.0557	0.2505	0.134
Mof_H 	H 	0.2576	0.2165	0.2912	0.17
Mof_H 	H 	0.1972	0.2118	0.242	0.153
Mof_H 	H 	0.0573	0.2404	0.3007	0.148
Mof_H 	H 	0.0257	0.2705	0.2429	0.158
Mof_H 	H 	0.9968	0.3006	0.3013	0.15
Mof_H 	H 	0.8847	0.3356	0.3387	0.139
Mof_H 	H 	0.8285	0.3919	0.3146	0.136
Mof_H 	H 	0.7851	0.3316	0.3427	0.137
Mof_H 	H 	0.8582	0.3905	0.2131	0.047
Mof_H 	H 	0.9389	0.3571	0.2387	0.052
Mof_H 	H 	0.852	0.3219	0.1386	0.069
Mof_H 	H 	0.9101	0.2708	0.169	0.1
Mof_H 	H 	0.9166	0.3675	0.0683	0.157
Mof_H 	H 	0.6963	0.381	0.2936	0.12
Mof_H 	H 	0.6212	0.3543	0.256	0.093
Mof_H 	H 	0.7042	0.5089	0.2157	0.144
Mof_H 	H 	0.6942	0.48	0.2739	0.169
Mof_H 	H 	0.0795	0.4121	0.0788	0.08
Mof_H 	H 	0.0166	0.4329	0.0301	0.087
Mof_H 	H 	0.0997	0.3141	0.0341	-0.049
Mof_H 	H 	0.1316	0.4254	0.967	0.201
Mof_H 	H 	0.1979	0.3904	0.0064	0.188
Mof_H 	H 	0.1678	0.3577	0.9494	0.204
Mof_H 	H 	0.9332	0.0517	0.0599	-0.011
Mof_H 	H 	0.8582	0.1324	0.0201	0.009
Mof_H 	H 	0.9992	0.146	0.0011	-0.204
Mof_H 	H 	0.0269	0.1985	0.1114	0.083
Mof_H 	H 	0.1544	0.1451	0.1097	-0.052
Mof_H 	H 	0.1479	0.1894	0.0554	-0.102
Mof_H 	H 	0.8263	0.2132	0.0707	0.182
Mof_H 	H 	0.186	0.0974	0.0283	0.146
Mof_H 	H 	0.8965	0.1334	0.1921	0
Mof_H 	H 	0.6315	0.0261	0.2052	0.082
Mof_H 	H 	0.8043	0.9868	0.0488	0.077
Mof_H 	H 	0.5296	0.958	0.1735	0.15
Mof_H 	H 	0.5213	0.9566	0.1066	0.15
Mof_H 	H 	0.564	0.8986	0.1389	0.149
Mof_H 	H 	0.7066	0.9196	0.0092	0.144
Mof_H 	H 	0.655	0.8784	0.0536	0.143
Mof_H 	H 	0.6117	0.9373	0.0232	0.135
Mof_H 	H 	0.9667	0.3558	0.7125	0.08
Mof_H 	H 	0.2763	0.6023	0.6552	0.081
Mof_H 	H 	0.4066	0.5393	0.6705	0.097
Mof_H 	H 	0.5683	0.3476	0.6722	0.077
Mof_H 	H 	0.2366	0.1991	0.8026	-0.012
Mof_H 	H 	0.1893	0.2461	0.6924	0.036
Mof_H 	H 	0.2178	0.3095	0.8294	0.118
Mof_H 	H 	0.1254	0.3362	0.8393	0.123
Mof_H 	H 	0.1426	0.2616	0.8415	0.077
Mof_H 	H 	0.0319	0.2037	0.794	0.09
Mof_H 	H 	0.9981	0.2657	0.825	0.143
Mof_H 	H 	0.9442	0.2338	0.7761	0.157
Mof_H 	H 	0.0619	0.2125	0.6862	0.126
Mof_H 	H 	0.0724	0.2812	0.659	0.132
Mof_H 	H 	0.8919	0.2589	0.5955	0.139
Mof_H 	H 	0.9852	0.272	0.5899	0.128
Mof_H 	H 	0.0099	0.3704	0.8278	0.006
Mof_H 	H 	0.9872	0.4322	0.7923	0.004
Mof_H 	H 	0.8749	0.3283	0.812	0.126
Mof_H 	H 	0.8519	0.3867	0.772	0.128
Mof_H 	H 	0.8334	0.4021	0.9341	0.194
Mof_H 	H 	0.8703	0.3428	0.9074	0.188
Mof_H 	H 	0.0004	0.5104	0.6509	-0.1
Mof_H 	H 	0.9663	0.4395	0.656	-0.025
Mof_H 	H 	0.9628	0.4857	0.7091	-0.006
Mof_H 	H 	0.0715	0.5942	0.7099	0.058
Mof_H 	H 	0.1171	0.6444	0.6701	0.07
Mof_H 	H 	0.048	0.5978	0.6448	-0.044
Mof_H 	H 	0.2257	0.5196	0.5876	0.128
Mof_H 	H 	0.185	0.5877	0.578	0.125
Mof_H 	H 	0.0659	0.436	0.5332	0.127
Mof_H 	H 	0.1524	0.4338	0.5598	0.154
Mof_H 	H 	0.1998	0.5821	0.7639	0.009
Mof_H 	H 	0.2201	0.6494	0.7363	-0.001
Mof_H 	H 	0.3444	0.5627	0.7754	0.136
Mof_H 	H 	0.3655	0.629	0.7469	0.132
Mof_H 	H 	0.2647	0.6925	0.8777	0.149
Mof_H 	H 	0.221	0.6794	0.8221	0.163
Mof_H 	H 	0.5634	0.4141	0.5878	0.178
Mof_H 	H 	0.4709	0.3861	0.5933	0.182
Mof_H 	H 	0.4844	0.4597	0.5808	0.181
Mof_H 	H 	0.5502	0.5124	0.7141	0.188
Mof_H 	H 	0.623	0.4819	0.6768	0.186
Mof_H 	H 	0.5551	0.5273	0.6483	0.196
Mof_H 	H 	0.5588	0.3431	0.7761	0.006
Mof_H 	H 	0.537	0.4167	0.7743	0.011
Mof_H 	H 	0.6807	0.3915	0.7964	0.14
Mof_H 	H 	0.6678	0.4443	0.7495	0.134
Mof_H 	H 	0.7576	0.2835	0.7088	0.17
Mof_H 	H 	0.6972	0.2882	0.758	0.153
Mof_H 	H 	0.5573	0.2596	0.6993	0.149
Mof_H 	H 	0.5257	0.2295	0.7571	0.16
Mof_H 	H 	0.4968	0.1994	0.6987	0.153
Mof_H 	H 	0.3847	0.1644	0.6613	0.139
Mof_H 	H 	0.3285	0.1081	0.6854	0.136
Mof_H 	H 	0.2851	0.1684	0.6573	0.137
Mof_H 	H 	0.3582	0.1095	0.7869	0.047
Mof_H 	H 	0.4389	0.1429	0.7613	0.052
Mof_H 	H 	0.352	0.1781	0.8614	0.069
Mof_H 	H 	0.4101	0.2292	0.831	0.101
Mof_H 	H 	0.4166	0.1325	0.9317	0.158
Mof_H 	H 	0.1963	0.119	0.7064	0.12
Mof_H 	H 	0.1212	0.1457	0.744	0.093
Mof_H 	H 	0.2042	0.9911	0.7843	0.145
Mof_H 	H 	0.1942	0.02	0.7261	0.169
Mof_H 	H 	0.5795	0.0879	0.9212	0.08
Mof_H 	H 	0.5166	0.0671	0.9699	0.087
Mof_H 	H 	0.5997	0.1859	0.9659	-0.048
Mof_H 	H 	0.6316	0.0746	0.033	0.201
Mof_H 	H 	0.6979	0.1096	0.9936	0.187
Mof_H 	H 	0.6678	0.1423	0.0506	0.203
Mof_H 	H 	0.4332	0.4483	0.9401	-0.011
Mof_H 	H 	0.3582	0.3676	0.9799	0.009
Mof_H 	H 	0.4992	0.354	0.9989	-0.204
Mof_H 	H 	0.5269	0.3015	0.8886	0.083
Mof_H 	H 	0.6544	0.3549	0.8903	-0.052
Mof_H 	H 	0.6479	0.3106	0.9446	-0.102
Mof_H 	H 	0.3263	0.2868	0.9293	0.182
Mof_H 	H 	0.686	0.4026	0.9717	0.146
Mof_H 	H 	0.3965	0.3666	0.8079	0.001
Mof_H 	H 	0.1315	0.4739	0.7948	0.083
Mof_H 	H 	0.3043	0.5132	0.9512	0.077
Mof_H 	H 	0.0296	0.542	0.8265	0.151
Mof_H 	H 	0.0213	0.5434	0.8934	0.152
Mof_H 	H 	0.064	0.6014	0.8611	0.15
Mof_H 	H 	0.2066	0.5804	0.9908	0.146
Mof_H 	H 	0.155	0.6216	0.9464	0.144
Mof_H 	H 	0.1117	0.5627	0.9768	0.136
Mof_H 	H 	0.5333	0.6442	0.2125	0.079
Mof_H 	H 	0.2237	0.3977	0.1552	0.081
Mof_H 	H 	0.0934	0.4607	0.1705	0.097
Mof_H 	H 	0.9317	0.6524	0.1722	0.077
Mof_H 	H 	0.2634	0.8009	0.3026	-0.012
Mof_H 	H 	0.3107	0.7539	0.1924	0.036
Mof_H 	H 	0.2822	0.6905	0.3294	0.118
Mof_H 	H 	0.3746	0.6638	0.3393	0.123
Mof_H 	H 	0.3574	0.7384	0.3415	0.077
Mof_H 	H 	0.4681	0.7963	0.294	0.089
Mof_H 	H 	0.5019	0.7343	0.325	0.142
Mof_H 	H 	0.5558	0.7662	0.2761	0.156
Mof_H 	H 	0.4381	0.7875	0.1862	0.126
Mof_H 	H 	0.4276	0.7188	0.159	0.132
Mof_H 	H 	0.6081	0.7411	0.0955	0.139
Mof_H 	H 	0.5148	0.728	0.0899	0.128
Mof_H 	H 	0.4901	0.6296	0.3278	0.007
Mof_H 	H 	0.5128	0.5678	0.2923	0.004
Mof_H 	H 	0.6251	0.6717	0.312	0.126
Mof_H 	H 	0.6481	0.6133	0.272	0.128
Mof_H 	H 	0.6666	0.5979	0.4341	0.193
Mof_H 	H 	0.6297	0.6572	0.4074	0.188
Mof_H 	H 	0.4996	0.4896	0.1509	-0.1
Mof_H 	H 	0.5337	0.5605	0.156	-0.025
Mof_H 	H 	0.5372	0.5143	0.2091	-0.006
Mof_H 	H 	0.4285	0.4058	0.2099	0.058
Mof_H 	H 	0.3829	0.3556	0.1701	0.07
Mof_H 	H 	0.452	0.4022	0.1448	-0.044
Mof_H 	H 	0.2743	0.4804	0.0876	0.128
Mof_H 	H 	0.315	0.4123	0.078	0.125
Mof_H 	H 	0.4341	0.564	0.0332	0.127
Mof_H 	H 	0.3476	0.5662	0.0598	0.154
Mof_H 	H 	0.3002	0.4179	0.2639	0.009
Mof_H 	H 	0.2799	0.3506	0.2363	-0.001
Mof_H 	H 	0.1556	0.4373	0.2754	0.136
Mof_H 	H 	0.1345	0.371	0.2469	0.132
Mof_H 	H 	0.2353	0.3075	0.3777	0.149
Mof_H 	H 	0.279	0.3206	0.3221	0.163
Mof_H 	H 	0.9366	0.5859	0.0878	0.18
Mof_H 	H 	0.0291	0.6139	0.0933	0.185
Mof_H 	H 	0.0156	0.5403	0.0808	0.184
Mof_H 	H 	0.9498	0.4876	0.2141	0.188
Mof_H 	H 	0.877	0.5181	0.1768	0.187
Mof_H 	H 	0.9449	0.4727	0.1483	0.196
Mof_H 	H 	0.9412	0.6569	0.2761	0.006
Mof_H 	H 	0.963	0.5833	0.2743	0.01
Mof_H 	H 	0.8193	0.6085	0.2964	0.14
Mof_H 	H 	0.8322	0.5557	0.2495	0.134
Mof_H 	H 	0.7424	0.7165	0.2088	0.17
Mof_H 	H 	0.8028	0.7118	0.258	0.153
Mof_H 	H 	0.9427	0.7404	0.1993	0.15
Mof_H 	H 	0.9743	0.7705	0.2571	0.161
Mof_H 	H 	0.0032	0.8006	0.1987	0.154
Mof_H 	H 	0.1153	0.8356	0.1613	0.139
Mof_H 	H 	0.1715	0.8919	0.1854	0.135
Mof_H 	H 	0.2149	0.8316	0.1573	0.137
Mof_H 	H 	0.1418	0.8905	0.2869	0.047
Mof_H 	H 	0.0611	0.8571	0.2613	0.052
Mof_H 	H 	0.148	0.8219	0.3614	0.069
Mof_H 	H 	0.0899	0.7708	0.331	0.101
Mof_H 	H 	0.0834	0.8675	0.4317	0.158
Mof_H 	H 	0.3037	0.881	0.2064	0.12
Mof_H 	H 	0.3788	0.8543	0.244	0.093
Mof_H 	H 	0.2958	0.0089	0.2843	0.146
Mof_H 	H 	0.3058	0.98	0.2261	0.169
Mof_H 	H 	0.9205	0.9121	0.4212	0.08
Mof_H 	H 	0.9834	0.9329	0.4699	0.087
Mof_H 	H 	0.9003	0.8141	0.4659	-0.049
Mof_H 	H 	0.8684	0.9254	0.533	0.201
Mof_H 	H 	0.8021	0.8904	0.4936	0.187
Mof_H 	H 	0.8322	0.8577	0.5506	0.204
Mof_H 	H 	0.0668	0.5517	0.4401	-0.011
Mof_H 	H 	0.1418	0.6324	0.4799	0.009
Mof_H 	H 	0.0008	0.646	0.4989	-0.204
Mof_H 	H 	0.9731	0.6985	0.3886	0.083
Mof_H 	H 	0.8456	0.6451	0.3903	-0.053
Mof_H 	H 	0.8521	0.6894	0.4446	-0.103
Mof_H 	H 	0.1737	0.7132	0.4293	0.182
Mof_H 	H 	0.814	0.5974	0.4717	0.145
Mof_H 	H 	0.1035	0.6334	0.3079	0.001
Mof_H 	H 	0.3685	0.5261	0.2948	0.083
Mof_H 	H 	0.1957	0.4868	0.4512	0.076
Mof_H 	H 	0.4704	0.458	0.3265	0.152
Mof_H 	H 	0.4787	0.4566	0.3934	0.152
Mof_H 	H 	0.436	0.3986	0.3611	0.151
Mof_H 	H 	0.2934	0.4196	0.4908	0.145
Mof_H 	H 	0.345	0.3784	0.4464	0.143
Mof_H 	H 	0.3883	0.4373	0.4768	0.136
Mof_C 	C 	0.7505	0.8593	0.861	-0.225
Mof_C 	C 	0.8593	0.7968	0.7409	0.047
Mof_C 	C 	0.954	0.7853	0.7548	0.183
Mof_C 	C 	0.9889	0.8542	0.758	-0.171
Mof_C 	C 	0.913	0.8901	0.7792	0.093
Mof_C 	C 	0.9159	0.9508	0.8059	-0.074
Mof_C 	C 	0.848	0.9864	0.8159	0.006
Mof_C 	C 	0.8379	0.0525	0.8412	0.149
Mof_C 	C 	0.7532	0.0741	0.8176	-0.183
Mof_C 	C 	0.7094	0.0104	0.8129	0.134
Mof_C 	C 	0.6249	0.0025	0.8208	-0.203
Mof_C 	C 	0.5816	0.9466	0.8173	0.027
Mof_C 	C 	0.4924	0.9366	0.8352	0.252
Mof_C 	C 	0.4688	0.8746	0.804	-0.182
Mof_C 	C 	0.5555	0.8438	0.7971	0.043
Mof_C 	C 	0.5656	0.7827	0.7826	0.034
Mof_C 	C 	0.6495	0.7569	0.7707	0.007
Mof_C 	C 	0.6708	0.6872	0.7617	0.078
Mof_C 	C 	0.7637	0.6934	0.739	0.048
Mof_C 	C 	0.7928	0.7561	0.7684	-0.064
Mof_C 	C 	0.8417	0.8015	0.6767	-0.339
Mof_C 	C 	0.9991	0.7433	0.7109	-0.434
Mof_C 	C 	0.9617	0.7558	0.8147	-0.398
Mof_C 	C 	0.0489	0.7524	0.8366	0.35
Mof_C 	C 	0.0222	0.8861	0.7048	0.064
Mof_C 	C 	0.1158	0.874	0.6944	-0.339
Mof_C 	C 	0.1454	0.9108	0.6447	0.318
Mof_C 	C 	0.0049	0.9737	0.8242	-0.054
Mof_C 	C 	0.9066	0.1018	0.8279	-0.238
Mof_C 	C 	0.8252	0.0452	0.9059	-0.4
Mof_C 	C 	0.8978	0.0145	0.9382	0.441
Mof_C 	C 	0.7592	0.1056	0.7592	0.069
Mof_C 	C 	0.6751	0.1069	0.7287	-0.336
Mof_C 	C 	0.6729	0.1381	0.671	0.308
Mof_C 	C 	0.4935	0.9229	0.8992	-0.566
Mof_C 	C 	0.4358	0.995	0.8229	-0.567
Mof_C 	C 	0.4318	0.8827	0.7451	0.084
Mof_C 	C 	0.3386	0.8986	0.7425	-0.387
Mof_C 	C 	0.2843	0.8649	0.779	0.338
Mof_C 	C 	0.4896	0.7388	0.7818	-0.43
Mof_C 	C 	0.6678	0.654	0.8198	-0.424
Mof_C 	C 	0.6155	0.651	0.7204	-0.096
Mof_C 	C 	0.5985	0.6834	0.663	-0.217
Mof_C 	C 	0.5237	0.6564	0.6344	0.249
Mof_C 	C 	0.8191	0.6337	0.7555	-0.387
Mof_C 	C 	0.8057	0.5819	0.7146	0.457
Mof_C 	C 	0.4626	0.6038	0.5518	-0.178
Mof_C 	C 	0.4217	0.6484	0.513	0.309
Mof_C 	C 	0.3495	0.6157	0.481	-0.602
Mof_C 	C 	0.576	0.9116	0.5857	0.122
Mof_C 	C 	0.6056	0.8551	0.5524	0.018
Mof_C 	C 	0.5227	0.8287	0.5334	0.202
Mof_C 	C 	0.4663	0.8382	0.5854	-0.119
Mof_C 	C 	0.3757	0.8485	0.5739	0.293
Mof_C 	C 	0.643	0.8968	0.6793	0.108
Mof_C 	C 	0.8332	0.9824	0.6741	-0.168
Mof_C 	C 	0.8592	0.0234	0.6333	0.1
Mof_C 	C 	0.8068	0.0362	0.5853	0.086
Mof_C 	C 	0.7304	0.006	0.5805	-0.154
Mof_C 	C 	0.7052	0.9646	0.6232	0.072
Mof_C 	C 	0.7548	0.9525	0.6705	0.063
Mof_C 	C 	0.9435	0.0554	0.6386	-0.462
Mof_C 	C 	0.8359	0.079	0.5388	-0.446
Mof_C 	C 	0.7495	0.1407	0.361	-0.225
Mof_C 	C 	0.6407	0.2032	0.2409	0.047
Mof_C 	C 	0.546	0.2147	0.2548	0.184
Mof_C 	C 	0.5111	0.1458	0.258	-0.173
Mof_C 	C 	0.587	0.1099	0.2792	0.094
Mof_C 	C 	0.5841	0.0492	0.3059	-0.074
Mof_C 	C 	0.652	0.0136	0.3159	0.005
Mof_C 	C 	0.6621	0.9475	0.3412	0.15
Mof_C 	C 	0.7468	0.9259	0.3176	-0.183
Mof_C 	C 	0.7906	0.9896	0.3129	0.134
Mof_C 	C 	0.8751	0.9975	0.3208	-0.202
Mof_C 	C 	0.9184	0.0534	0.3173	0.026
Mof_C 	C 	0.0076	0.0634	0.3352	0.25
Mof_C 	C 	0.0312	0.1254	0.304	-0.18
Mof_C 	C 	0.9445	0.1562	0.2971	0.042
Mof_C 	C 	0.9344	0.2173	0.2826	0.032
Mof_C 	C 	0.8505	0.2431	0.2707	0.007
Mof_C 	C 	0.8292	0.3128	0.2617	0.077
Mof_C 	C 	0.7363	0.3066	0.239	0.048
Mof_C 	C 	0.7072	0.2439	0.2684	-0.064
Mof_C 	C 	0.6583	0.1985	0.1767	-0.339
Mof_C 	C 	0.5009	0.2567	0.2109	-0.436
Mof_C 	C 	0.5383	0.2442	0.3147	-0.399
Mof_C 	C 	0.4511	0.2476	0.3366	0.351
Mof_C 	C 	0.4778	0.1139	0.2048	0.066
Mof_C 	C 	0.3842	0.126	0.1944	-0.34
Mof_C 	C 	0.3546	0.0892	0.1447	0.319
Mof_C 	C 	0.4951	0.0263	0.3242	-0.053
Mof_C 	C 	0.5934	0.8982	0.3279	-0.239
Mof_C 	C 	0.6748	0.9548	0.4059	-0.401
Mof_C 	C 	0.6022	0.9855	0.4382	0.442
Mof_C 	C 	0.7408	0.8944	0.2592	0.069
Mof_C 	C 	0.8249	0.8931	0.2287	-0.336
Mof_C 	C 	0.8271	0.8619	0.171	0.308
Mof_C 	C 	0.0065	0.0771	0.3992	-0.557
Mof_C 	C 	0.0642	0.005	0.3229	-0.564
Mof_C 	C 	0.0682	0.1173	0.2451	0.083
Mof_C 	C 	0.1614	0.1014	0.2425	-0.387
Mof_C 	C 	0.2157	0.1351	0.279	0.338
Mof_C 	C 	0.0104	0.2612	0.2818	-0.425
Mof_C 	C 	0.8322	0.346	0.3198	-0.424
Mof_C 	C 	0.8845	0.349	0.2204	-0.096
Mof_C 	C 	0.9015	0.3166	0.163	-0.216
Mof_C 	C 	0.9763	0.3436	0.1344	0.247
Mof_C 	C 	0.6809	0.3663	0.2555	-0.386
Mof_C 	C 	0.6943	0.4181	0.2146	0.457
Mof_C 	C 	0.0374	0.3962	0.0518	-0.178
Mof_C 	C 	0.0783	0.3516	0.013	0.311
Mof_C 	C 	0.1505	0.3843	0.981	-0.604
Mof_C 	C 	0.924	0.0884	0.0857	0.121
Mof_C 	C 	0.8944	0.1449	0.0524	0.019
Mof_C 	C 	0.9773	0.1713	0.0334	0.201
Mof_C 	C 	0.0337	0.1618	0.0854	-0.117
Mof_C 	C 	0.1243	0.1515	0.0739	0.292
Mof_C 	C 	0.857	0.1032	0.1793	0.108
Mof_C 	C 	0.6668	0.0176	0.1741	-0.165
Mof_C 	C 	0.6408	0.9766	0.1333	0.098
Mof_C 	C 	0.6932	0.9638	0.0853	0.086
Mof_C 	C 	0.7696	0.994	0.0805	-0.156
Mof_C 	C 	0.7948	0.0354	0.1232	0.074
Mof_C 	C 	0.7452	0.0475	0.1705	0.061
Mof_C 	C 	0.5565	0.9446	0.1386	-0.46
Mof_C 	C 	0.6641	0.921	0.0388	-0.445
Mof_C 	C 	0.2495	0.3593	0.639	-0.225
Mof_C 	C 	0.1407	0.2968	0.7591	0.047
Mof_C 	C 	0.046	0.2853	0.7452	0.185
Mof_C 	C 	0.0111	0.3542	0.742	-0.174
Mof_C 	C 	0.087	0.3901	0.7208	0.094
Mof_C 	C 	0.0841	0.4508	0.6941	-0.074
Mof_C 	C 	0.152	0.4864	0.6841	0.004
Mof_C 	C 	0.1621	0.5525	0.6588	0.151
Mof_C 	C 	0.2468	0.5741	0.6824	-0.183
Mof_C 	C 	0.2906	0.5104	0.6871	0.134
Mof_C 	C 	0.3751	0.5025	0.6792	-0.201
Mof_C 	C 	0.4184	0.4466	0.6827	0.024
Mof_C 	C 	0.5076	0.4366	0.6648	0.255
Mof_C 	C 	0.5312	0.3746	0.696	-0.183
Mof_C 	C 	0.4445	0.3438	0.7029	0.043
Mof_C 	C 	0.4344	0.2827	0.7174	0.034
Mof_C 	C 	0.3505	0.2569	0.7293	0.007
Mof_C 	C 	0.3292	0.1872	0.7383	0.077
Mof_C 	C 	0.2363	0.1934	0.761	0.048
Mof_C 	C 	0.2072	0.2561	0.7316	-0.064
Mof_C 	C 	0.1583	0.3015	0.8233	-0.338
Mof_C 	C 	0.0009	0.2433	0.7891	-0.438
Mof_C 	C 	0.0383	0.2558	0.6853	-0.4
Mof_C 	C 	0.9511	0.2524	0.6634	0.351
Mof_C 	C 	0.9778	0.3861	0.7952	0.067
Mof_C 	C 	0.8842	0.374	0.8056	-0.34
Mof_C 	C 	0.8546	0.4108	0.8553	0.319
Mof_C 	C 	0.9951	0.4737	0.6758	-0.056
Mof_C 	C 	0.0934	0.6018	0.6721	-0.239
Mof_C 	C 	0.1748	0.5452	0.5941	-0.401
Mof_C 	C 	0.1022	0.5145	0.5618	0.443
Mof_C 	C 	0.2408	0.6056	0.7408	0.069
Mof_C 	C 	0.3249	0.6069	0.7713	-0.336
Mof_C 	C 	0.3271	0.6381	0.829	0.309
Mof_C 	C 	0.5065	0.4229	0.6008	-0.567
Mof_C 	C 	0.5642	0.495	0.6771	-0.576
Mof_C 	C 	0.5682	0.3827	0.7549	0.085
Mof_C 	C 	0.6614	0.3986	0.7575	-0.387
Mof_C 	C 	0.7157	0.3649	0.721	0.338
Mof_C 	C 	0.5104	0.2388	0.7182	-0.43
Mof_C 	C 	0.3322	0.154	0.6802	-0.424
Mof_C 	C 	0.3845	0.151	0.7796	-0.095
Mof_C 	C 	0.4015	0.1834	0.837	-0.217
Mof_C 	C 	0.4763	0.1564	0.8656	0.249
Mof_C 	C 	0.1809	0.1337	0.7445	-0.386
Mof_C 	C 	0.1943	0.0819	0.7854	0.457
Mof_C 	C 	0.5374	0.1038	0.9482	-0.178
Mof_C 	C 	0.5783	0.1484	0.987	0.308
Mof_C 	C 	0.6505	0.1157	0.019	-0.6
Mof_C 	C 	0.424	0.4116	0.9143	0.122
Mof_C 	C 	0.3944	0.3551	0.9476	0.018
Mof_C 	C 	0.4773	0.3287	0.9666	0.202
Mof_C 	C 	0.5337	0.3382	0.9146	-0.119
Mof_C 	C 	0.6243	0.3485	0.9261	0.293
Mof_C 	C 	0.357	0.3968	0.8207	0.108
Mof_C 	C 	0.1668	0.4824	0.8259	-0.17
Mof_C 	C 	0.1408	0.5234	0.8667	0.102
Mof_C 	C 	0.1932	0.5362	0.9147	0.085
Mof_C 	C 	0.2696	0.506	0.9195	-0.153
Mof_C 	C 	0.2948	0.4646	0.8768	0.071
Mof_C 	C 	0.2452	0.4525	0.8295	0.063
Mof_C 	C 	0.0565	0.5554	0.8614	-0.463
Mof_C 	C 	0.1641	0.579	0.9612	-0.445
Mof_C 	C 	0.2505	0.6407	0.139	-0.225
Mof_C 	C 	0.3593	0.7032	0.2591	0.047
Mof_C 	C 	0.454	0.7147	0.2452	0.184
Mof_C 	C 	0.4889	0.6458	0.242	-0.173
Mof_C 	C 	0.413	0.6099	0.2208	0.093
Mof_C 	C 	0.4159	0.5492	0.1941	-0.073
Mof_C 	C 	0.348	0.5136	0.1841	0.004
Mof_C 	C 	0.3379	0.4475	0.1588	0.151
Mof_C 	C 	0.2532	0.4259	0.1824	-0.183
Mof_C 	C 	0.2094	0.4896	0.1871	0.134
Mof_C 	C 	0.1249	0.4975	0.1792	-0.201
Mof_C 	C 	0.0816	0.5534	0.1827	0.025
Mof_C 	C 	0.9924	0.5634	0.1648	0.256
Mof_C 	C 	0.9688	0.6254	0.196	-0.184
Mof_C 	C 	0.0555	0.6562	0.2029	0.043
Mof_C 	C 	0.0656	0.7173	0.2174	0.035
Mof_C 	C 	0.1495	0.7431	0.2293	0.006
Mof_C 	C 	0.1708	0.8128	0.2383	0.077
Mof_C 	C 	0.2637	0.8066	0.261	0.048
Mof_C 	C 	0.2928	0.7439	0.2316	-0.064
Mof_C 	C 	0.3417	0.6985	0.3233	-0.338
Mof_C 	C 	0.4991	0.7567	0.2891	-0.436
Mof_C 	C 	0.4617	0.7442	0.1853	-0.399
Mof_C 	C 	0.5489	0.7476	0.1634	0.351
Mof_C 	C 	0.5222	0.6139	0.2952	0.066
Mof_C 	C 	0.6158	0.626	0.3056	-0.34
Mof_C 	C 	0.6454	0.5892	0.3553	0.319
Mof_C 	C 	0.5049	0.5263	0.1758	-0.056
Mof_C 	C 	0.4066	0.3982	0.1721	-0.24
Mof_C 	C 	0.3252	0.4548	0.0941	-0.401
Mof_C 	C 	0.3978	0.4855	0.0618	0.443
Mof_C 	C 	0.2592	0.3944	0.2408	0.069
Mof_C 	C 	0.1751	0.3931	0.2713	-0.336
Mof_C 	C 	0.1729	0.3619	0.329	0.309
Mof_C 	C 	0.9935	0.5771	0.1008	-0.575
Mof_C 	C 	0.9358	0.505	0.1771	-0.577
Mof_C 	C 	0.9318	0.6173	0.2549	0.086
Mof_C 	C 	0.8386	0.6014	0.2575	-0.388
Mof_C 	C 	0.7843	0.6351	0.221	0.339
Mof_C 	C 	0.9896	0.7612	0.2182	-0.434
Mof_C 	C 	0.1678	0.846	0.1802	-0.423
Mof_C 	C 	0.1155	0.849	0.2796	-0.095
Mof_C 	C 	0.0985	0.8166	0.337	-0.217
Mof_C 	C 	0.0237	0.8436	0.3656	0.25
Mof_C 	C 	0.3191	0.8663	0.2445	-0.386
Mof_C 	C 	0.3057	0.9181	0.2854	0.457
Mof_C 	C 	0.9626	0.8962	0.4482	-0.179
Mof_C 	C 	0.9217	0.8516	0.487	0.31
Mof_C 	C 	0.8495	0.8843	0.519	-0.602
Mof_C 	C 	0.076	0.5884	0.4143	0.123
Mof_C 	C 	0.1056	0.6449	0.4476	0.018
Mof_C 	C 	0.0227	0.6713	0.4666	0.203
Mof_C 	C 	0.9663	0.6618	0.4146	-0.119
Mof_C 	C 	0.8757	0.6515	0.4261	0.293
Mof_C 	C 	0.143	0.6032	0.3207	0.108
Mof_C 	C 	0.3332	0.5176	0.3259	-0.17
Mof_C 	C 	0.3592	0.4766	0.3667	0.102
Mof_C 	C 	0.3068	0.4638	0.4147	0.084
Mof_C 	C 	0.2304	0.494	0.4195	-0.152
Mof_C 	C 	0.2052	0.5354	0.3768	0.071
Mof_C 	C 	0.2548	0.5475	0.3295	0.063
Mof_C 	C 	0.4435	0.4446	0.3614	-0.464
Mof_C 	C 	0.3359	0.421	0.4612	-0.444
Mof_N 	N 	0.7643	0.8499	0.907	-0.08
Mof_N 	N 	0.8433	0.8602	0.768	-0.267
Mof_N 	N 	0.7648	0.9644	0.8043	-0.264
Mof_N 	N 	0.6169	0.8907	0.8007	-0.251
Mof_N 	N 	0.7149	0.7933	0.7704	-0.234
Mof_N 	N 	0.0582	0.7621	0.8892	-0.359
Mof_N 	N 	0.1475	0.882	0.5956	-0.364
Mof_N 	N 	0.8926	0.9552	0.9496	-0.393
Mof_N 	N 	0.7361	0.174	0.6553	-0.347
Mof_N 	N 	0.2756	0.8062	0.7698	-0.372
Mof_N 	N 	0.5335	0.632	0.5837	-0.204
Mof_N 	N 	0.802	0.5245	0.7373	-0.406
Mof_N 	N 	0.6341	0.9296	0.6302	-0.14
Mof_N 	N 	0.7107	0.9109	0.7066	-0.25
Mof_N 	N 	0.7357	0.1501	0.407	-0.081
Mof_N 	N 	0.6567	0.1398	0.268	-0.268
Mof_N 	N 	0.7352	0.0356	0.3043	-0.264
Mof_N 	N 	0.8831	0.1093	0.3007	-0.251
Mof_N 	N 	0.7851	0.2067	0.2704	-0.234
Mof_N 	N 	0.4418	0.2379	0.3892	-0.36
Mof_N 	N 	0.3525	0.118	0.0956	-0.364
Mof_N 	N 	0.6074	0.0448	0.4496	-0.394
Mof_N 	N 	0.7639	0.826	0.1553	-0.347
Mof_N 	N 	0.2244	0.1938	0.2698	-0.372
Mof_N 	N 	0.9665	0.368	0.0837	-0.205
Mof_N 	N 	0.698	0.4755	0.2373	-0.406
Mof_N 	N 	0.8659	0.0704	0.1302	-0.141
Mof_N 	N 	0.7893	0.0891	0.2066	-0.25
Mof_N 	N 	0.2357	0.3499	0.593	-0.081
Mof_N 	N 	0.1567	0.3602	0.732	-0.267
Mof_N 	N 	0.2352	0.4644	0.6957	-0.264
Mof_N 	N 	0.3831	0.3907	0.6993	-0.251
Mof_N 	N 	0.2851	0.2933	0.7296	-0.234
Mof_N 	N 	0.9418	0.2621	0.6108	-0.359
Mof_N 	N 	0.8525	0.382	0.9044	-0.365
Mof_N 	N 	0.1074	0.4552	0.5504	-0.395
Mof_N 	N 	0.2639	0.674	0.8447	-0.347
Mof_N 	N 	0.7244	0.3062	0.7302	-0.372
Mof_N 	N 	0.4665	0.132	0.9163	-0.204
Mof_N 	N 	0.198	0.0245	0.7627	-0.407
Mof_N 	N 	0.3659	0.4296	0.8698	-0.14
Mof_N 	N 	0.2893	0.4109	0.7934	-0.25
Mof_N 	N 	0.2643	0.6501	0.093	-0.081
Mof_N 	N 	0.3433	0.6398	0.232	-0.267
Mof_N 	N 	0.2648	0.5356	0.1957	-0.264
Mof_N 	N 	0.1169	0.6093	0.1993	-0.251
Mof_N 	N 	0.2149	0.7067	0.2296	-0.234
Mof_N 	N 	0.5582	0.7379	0.1108	-0.359
Mof_N 	N 	0.6475	0.618	0.4044	-0.364
Mof_N 	N 	0.3926	0.5448	0.0504	-0.394
Mof_N 	N 	0.2361	0.326	0.3447	-0.347
Mof_N 	N 	0.7756	0.6938	0.2302	-0.372
Mof_N 	N 	0.0335	0.868	0.4163	-0.204
Mof_N 	N 	0.302	0.9755	0.2627	-0.407
Mof_N 	N 	0.1341	0.5704	0.3698	-0.14
Mof_N 	N 	0.2107	0.5891	0.2934	-0.25
Mof_Cl	Cl	0.302	0.0826	0.9675	-0.774
Mof_Cl	Cl	0.198	0.9174	0.4675	-0.774
Mof_Cl	Cl	0.698	0.5826	0.5325	-0.774
Mof_Cl	Cl	0.802	0.4174	0.0325	-0.775
Mof_O 	O 	0.1125	0.739	0.8109	-0.326
Mof_O 	O 	0.1697	0.9674	0.6531	-0.295
Mof_O 	O 	0.9605	0.0472	0.9507	-0.678
Mof_O 	O 	0.6108	0.1291	0.6403	-0.283
Mof_O 	O 	0.2481	0.8988	0.8189	-0.327
Mof_O 	O 	0.4535	0.6573	0.6578	-0.267
Mof_O 	O 	0.8009	0.5927	0.6636	-0.819
Mof_O 	O 	0.5266	0.7638	0.5186	-0.298
Mof_O 	O 	0.4823	0.6682	0.4711	-0.297
Mof_O 	O 	0.4182	0.7732	0.4423	-0.595
Mof_O 	O 	0.5686	0.7414	0.4171	-0.319
Mof_O 	O 	0.4997	0.8949	0.6119	-0.177
Mof_O 	O 	0.6466	0.8136	0.5893	-0.334
Mof_O 	O 	0.3639	0.9015	0.5393	-0.726
Mof_O 	O 	0.3875	0.261	0.3109	-0.327
Mof_O 	O 	0.3303	0.0326	0.1531	-0.295
Mof_O 	O 	0.5395	0.9528	0.4507	-0.679
Mof_O 	O 	0.8892	0.8709	0.1403	-0.284
Mof_O 	O 	0.2519	0.1012	0.3189	-0.327
Mof_O 	O 	0.0465	0.3427	0.1578	-0.265
Mof_O 	O 	0.6991	0.4073	0.1636	-0.819
Mof_O 	O 	0.9734	0.2362	0.0186	-0.299
Mof_O 	O 	0.0177	0.3318	0.9711	-0.297
Mof_O 	O 	0.0818	0.2268	0.9423	-0.595
Mof_O 	O 	0.9314	0.2586	0.9171	-0.319
Mof_O 	O 	0.0003	0.1051	0.1119	-0.175
Mof_O 	O 	0.8534	0.1864	0.0893	-0.334
Mof_O 	O 	0.1361	0.0985	0.0393	-0.725
Mof_O 	O 	0.8875	0.239	0.6891	-0.327
Mof_O 	O 	0.8303	0.4674	0.8469	-0.296
Mof_O 	O 	0.0395	0.5472	0.5493	-0.679
Mof_O 	O 	0.3892	0.6291	0.8597	-0.283
Mof_O 	O 	0.7519	0.3988	0.6811	-0.327
Mof_O 	O 	0.5465	0.1573	0.8422	-0.267
Mof_O 	O 	0.1991	0.0927	0.8364	-0.819
Mof_O 	O 	0.4734	0.2638	0.9814	-0.298
Mof_O 	O 	0.5177	0.1682	0.0289	-0.296
Mof_O 	O 	0.5818	0.2732	0.0577	-0.595
Mof_O 	O 	0.4314	0.2414	0.0829	-0.319
Mof_O 	O 	0.5003	0.3949	0.8881	-0.177
Mof_O 	O 	0.3534	0.3136	0.9107	-0.334
Mof_O 	O 	0.6361	0.4015	0.9607	-0.726
Mof_O 	O 	0.6125	0.761	0.1891	-0.326
Mof_O 	O 	0.6697	0.5326	0.3469	-0.296
Mof_O 	O 	0.4605	0.4528	0.0493	-0.679
Mof_O 	O 	0.1108	0.3709	0.3597	-0.283
Mof_O 	O 	0.7481	0.6012	0.1811	-0.327
Mof_O 	O 	0.9535	0.8427	0.3422	-0.267
Mof_O 	O 	0.3009	0.9073	0.3364	-0.819
Mof_O 	O 	0.0266	0.7362	0.4814	-0.298
Mof_O 	O 	0.9823	0.8318	0.5289	-0.297
Mof_O 	O 	0.9182	0.7268	0.5577	-0.595
Mof_O 	O 	0.0686	0.7586	0.5829	-0.319
Mof_O 	O 	0.9997	0.6051	0.3881	-0.177
Mof_O 	O 	0.1466	0.6864	0.4107	-0.334
Mof_O 	O 	0.8639	0.5985	0.4607	-0.726
_end
