data_functionalizedCrystal
_audit_creation_method	'EQeq! by Chris Wilmer'
_symmetry_space_group_name_H-M	'P1'
_symmetry_Int_Tables_number	1
_symmetry_cell_setting	triclinic
loop_
_symmetry_equiv_pos_as_xyz
  x,y,z
_cell_length_a	11.3504
_cell_length_b	12.1923
_cell_length_c	16.1827
_cell_angle_alpha	90
_cell_angle_beta	130.491
_cell_angle_gamma	90
loop_
_atom_site_label
_atom_site_type_symbol
_atom_site_fract_x
_atom_site_fract_y
_atom_site_fract_z
_atom_site_charge
Mof_C 	C 	0.3573	0.8848	0.7319	-0.098
Mof_C 	C 	0.2049	0.9183	0.67216	0.053
Mof_H 	H 	0.167	0.9774	0.6246	0.056
Mof_C 	C 	0.1095	0.8635	0.68357	-0.092
Mof_C 	C 	0.9459	0.9004	0.6221	0.341
Mof_C 	C 	0.1662	0.77447	0.75328	0.065
Mof_H 	H 	0.1018	0.7371	0.7605	0.054
Mof_C 	C 	0.3188	0.74081	0.81243	-0.119
Mof_C 	C 	0.4151	0.79687	0.80191	0.074
Mof_H 	H 	0.5176	0.7752	0.8418	0.051
Mof_C 	C 	0.3806	0.64504	0.88781	0.422
Mof_O 	O 	0.425	0.92375	0.61079	-0.416
Mof_O 	O 	0.4452	0.07275	0.7161	-0.274
Mof_O 	O 	0.6329	0.9259	0.80352	-0.229
Mof_O 	O 	0.8957	0.9801	0.5587	-0.382
Mof_O 	O 	0.8624	0.85462	0.6341	-0.35
Mof_O 	O 	0.52377	0.6385	0.96179	-0.473
Mof_O 	O 	0.2829	0.57827	0.87185	-0.452
Mof_S 	S 	0.47655	0.95931	0.71644	0.527
Mof_Zn	Zn	0.3207	0.02369	0.48117	1.24
Mof_C 	C 	0.6427	0.3848	0.7681	-0.097
Mof_C 	C 	0.7951	0.4183	0.82784	0.053
Mof_H 	H 	0.833	0.4774	0.8754	0.056
Mof_C 	C 	0.8905	0.3635	0.81643	-0.091
Mof_C 	C 	0.0541	0.4004	0.8779	0.34
Mof_C 	C 	0.8338	0.27447	0.74672	0.065
Mof_H 	H 	0.8982	0.2371	0.7395	0.055
Mof_C 	C 	0.6812	0.24081	0.68757	-0.118
Mof_C 	C 	0.5849	0.29687	0.69809	0.074
Mof_H 	H 	0.4824	0.2752	0.6582	0.051
Mof_C 	C 	0.6194	0.14504	0.61219	0.422
Mof_O 	O 	0.575	0.42375	0.88921	-0.415
Mof_O 	O 	0.5548	0.57275	0.7839	-0.274
Mof_O 	O 	0.3671	0.4259	0.69648	-0.23
Mof_O 	O 	0.1043	0.4801	0.9413	-0.382
Mof_O 	O 	0.1376	0.35462	0.8659	-0.35
Mof_O 	O 	0.47623	0.1385	0.53821	-0.474
Mof_O 	O 	0.7171	0.07827	0.62815	-0.451
Mof_S 	S 	0.52345	0.45931	0.78356	0.527
Mof_Zn	Zn	0.6793	0.52369	0.01883	1.24
Mof_C 	C 	0.6427	0.1152	0.2681	-0.097
Mof_C 	C 	0.7951	0.0817	0.32784	0.054
Mof_H 	H 	0.833	0.0226	0.3754	0.056
Mof_C 	C 	0.8905	0.1365	0.31643	-0.092
Mof_C 	C 	0.0541	0.0996	0.3779	0.341
Mof_C 	C 	0.8338	0.22553	0.24672	0.065
Mof_H 	H 	0.8982	0.2629	0.2395	0.054
Mof_C 	C 	0.6812	0.25919	0.18757	-0.119
Mof_C 	C 	0.5849	0.20313	0.19809	0.074
Mof_H 	H 	0.4824	0.2248	0.1582	0.051
Mof_C 	C 	0.6194	0.35496	0.11219	0.422
Mof_O 	O 	0.575	0.07625	0.38921	-0.416
Mof_O 	O 	0.5548	0.92725	0.2839	-0.274
Mof_O 	O 	0.3671	0.0741	0.19648	-0.229
Mof_O 	O 	0.1043	0.0199	0.4413	-0.382
Mof_O 	O 	0.1376	0.14538	0.3659	-0.35
Mof_O 	O 	0.47623	0.3615	0.03821	-0.473
Mof_O 	O 	0.7171	0.42173	0.12815	-0.452
Mof_S 	S 	0.52345	0.04069	0.28356	0.527
Mof_Zn	Zn	0.6793	0.97631	0.51883	1.24
Mof_C 	C 	0.3573	0.6152	0.2319	-0.097
Mof_C 	C 	0.2049	0.5817	0.17216	0.053
Mof_H 	H 	0.167	0.5226	0.1246	0.056
Mof_C 	C 	0.1095	0.6365	0.18357	-0.091
Mof_C 	C 	0.9459	0.5996	0.1221	0.34
Mof_C 	C 	0.1662	0.72553	0.25328	0.065
Mof_H 	H 	0.1018	0.7629	0.2605	0.055
Mof_C 	C 	0.3188	0.75919	0.31243	-0.118
Mof_C 	C 	0.4151	0.70313	0.30191	0.074
Mof_H 	H 	0.5176	0.7248	0.3418	0.051
Mof_C 	C 	0.3806	0.85496	0.38781	0.422
Mof_O 	O 	0.425	0.57625	0.11079	-0.415
Mof_O 	O 	0.4452	0.42725	0.2161	-0.274
Mof_O 	O 	0.6329	0.5741	0.30352	-0.23
Mof_O 	O 	0.8957	0.5199	0.0587	-0.382
Mof_O 	O 	0.8624	0.64538	0.1341	-0.35
Mof_O 	O 	0.52377	0.8615	0.46179	-0.474
Mof_O 	O 	0.2829	0.92173	0.37185	-0.451
Mof_S 	S 	0.47655	0.54069	0.21644	0.527
Mof_Zn	Zn	0.3207	0.47631	0.98117	1.24
_end
