data_functionalizedCrystal
_audit_creation_method	'EQeq! by Chris Wilmer'
_symmetry_space_group_name_H-M	'P1'
_symmetry_Int_Tables_number	1
_symmetry_cell_setting	triclinic
loop_
_symmetry_equiv_pos_as_xyz
  x,y,z
_cell_length_a	24.0875
_cell_length_b	27.8262
_cell_length_c	30.3154
_cell_angle_alpha	90
_cell_angle_beta	90
_cell_angle_gamma	90
loop_
_atom_site_label
_atom_site_type_symbol
_atom_site_fract_x
_atom_site_fract_y
_atom_site_fract_z
_atom_site_charge
Mof_Eu	Eu	0.75636	0.76293	0.36313	3.608
Mof_O 	O 	0.8901	0.33	0.694	-0.576
Mof_O 	O 	0.7597	0.771	0.2854	-11.198
Mof_O 	O 	0.6822	0.2532	0.2021	-0.446
Mof_C 	C 	0.596	0.9666	0.4095	0.181
Mof_O 	O 	0.6845	0.8179	0.349	-0.587
Mof_C 	C 	0.7182	0.1085	0.0382	0.002
Mof_C 	C 	0.7598	0.9603	0.0577	-0.23
Mof_H 	H 	0.7649	0.981	0.0815	0.103
Mof_O 	O 	0.6881	0.1081	0.6853	-0.42
Mof_C 	C 	0.7189	0.0588	0.0418	-0.068
Mof_H 	H 	0.7013	0.0441	0.0655	0.054
Mof_C 	C 	0.5692	0.0052	0.4375	-0.097
Mof_C 	C 	0.502	0.0708	0.4421	-0.175
Mof_C 	C 	0.769	0.1026	0.9686	0.001
Mof_C 	C 	0.7395	0.9472	0.9829	-0.213
Mof_H 	H 	0.7314	0.959	0.955	0.05
Mof_C 	C 	0.961	0.4834	0.4297	0.031
Mof_H 	H 	0.9696	0.4947	0.4016	-0.016
Mof_C 	C 	0.5277	0.0332	0.4175	0.045
Mof_H 	H 	0.5171	0.0273	0.3885	-0.014
Mof_C 	C 	0.9555	0.4031	0.5837	-0.206
Mof_H 	H 	0.9927	0.4007	0.576	0.082
Mof_C 	C 	0.8972	0.5541	0.4377	0.351
Mof_C 	C 	0.843	0.1187	0.9143	-0.164
Mof_H 	H 	0.8659	0.0965	0.9283	0.078
Mof_C 	C 	0.8803	0.3838	0.6343	-0.208
Mof_C 	C 	0.8644	0.4341	0.5721	-0.191
Mof_H 	H 	0.8396	0.4524	0.5556	0.098
Mof_C 	C 	0.8864	0.5909	0.4656	-0.496
Mof_H 	H 	0.8936	0.5875	0.4956	0.204
Mof_C 	C 	0.8643	0.6344	0.4492	0.483
Mof_H 	H 	0.8587	0.6603	0.468	-0.125
Mof_O 	O 	0.3184	0.2052	0.3437	-2.326
Mof_C 	C 	0.7705	0.0532	0.9743	-0.065
Mof_H 	H 	0.7888	0.0344	0.9535	0.029
Mof_C 	C 	0.6279	0.1638	0.126	0.098
Mof_H 	H 	0.5905	0.1631	0.1336	-0.016
Mof_C 	C 	0.9226	0.5069	0.4544	-0.141
Mof_C 	C 	0.9359	0.381	0.6223	0.113
Mof_H 	H 	0.9606	0.3643	0.6402	-0.083
Mof_C 	C 	0.7492	0.9787	0.0175	0.127
Mof_C 	C 	0.742	0.8982	0.99	0.154
Mof_H 	H 	0.7357	0.8774	0.9665	-0.057
Mof_C 	C 	0.8461	0.4135	0.6103	0.108
Mof_H 	H 	0.8102	0.4195	0.6202	-0.001
Mof_C 	C 	0.6482	0.8954	0.3591	-0.339
Mof_C 	C 	0.9346	0.4502	0.5136	-0.054
Mof_C 	C 	0.9743	0.4261	0.4883	-0.007
Mof_H 	H 	0.9916	0.3991	0.5	0.026
Mof_C 	C 	0.5612	0.0495	0.5045	-0.085
Mof_C 	C 	0.7536	0.8793	0.0309	-0.272
Mof_C 	C 	0.654	0.0697	0.6041	0.114
Mof_H 	H 	0.6912	0.0647	0.611	-0.05
Mof_C 	C 	0.5842	0.013	0.4792	0.019
Mof_H 	H 	0.6111	0.9933	0.4918	0.019
Mof_C 	C 	0.7453	0.0309	0.0105	-0.025
Mof_C 	C 	0.5807	0.0633	0.5509	0.158
Mof_O 	O 	0.6118	0.1472	0.6948	-0.583
Mof_O 	O 	0.5976	0.2293	0.1958	-0.52
Mof_O 	O 	0.8047	0.685	0.35	-2.128
Mof_O 	O 	0.813	0.2296	0.7966	-0.452
Mof_O 	O 	0.8965	0.2071	0.8066	-0.515
Mof_C 	C 	0.9095	0.4915	0.4966	0.014
Mof_H 	H 	0.8839	0.5085	0.5135	0.021
Mof_O 	O 	0.8	0.7101	0.4185	-0.34
Mof_C 	C 	0.6184	0.0974	0.6331	-0.273
Mof_O 	O 	0.7655	0.8135	0.0771	-0.68
Mof_C 	C 	0.6099	0.9748	0.366	-0.272
Mof_H 	H 	0.6024	0.0046	0.3534	0.104
Mof_O 	O 	0.8091	0.3688	0.6859	-0.311
Mof_C 	C 	0.5203	0.0781	0.4848	0.05
Mof_H 	H 	0.5049	0.1031	0.501	-0.001
Mof_C 	C 	0.8829	0.5572	0.3934	-0.607
Mof_H 	H 	0.8888	0.5313	0.3746	0.134
Mof_C 	C 	0.7434	0.1286	0.0012	-0.076
Mof_H 	H 	0.7427	0.1619	0.9983	0.057
Mof_C 	C 	0.7755	0.1815	0.8688	0.074
Mof_H 	H 	0.7516	0.2014	0.8531	0.025
Mof_O 	O 	0.6985	0.8714	0.2953	-0.582
Mof_C 	C 	0.9884	0.4414	0.4464	-0.088
Mof_C 	C 	0.4594	0.1019	0.4238	0.387
Mof_C 	C 	0.6092	0.9227	0.427	-0.292
Mof_H 	H 	0.6016	0.9168	0.4566	0.137
Mof_C 	C 	0.7902	0.1261	0.9298	0.071
Mof_C 	C 	0.0302	0.4171	0.4205	0.17
Mof_C 	C 	0.7635	0.9106	0.0645	0.185
Mof_H 	H 	0.7727	0.8989	0.0923	-0.049
Mof_C 	C 	0.9183	0.4291	0.5567	0.115
Mof_C 	C 	0.6963	0.1388	0.0751	0.09
Mof_C 	C 	0.8486	0.2069	0.817	0.405
Mof_C 	C 	0.8579	0.3582	0.6744	0.41
Mof_O 	O 	0.7496	0.7981	0.009	-0.304
Mof_C 	C 	0.6452	0.2283	0.1828	0.395
Mof_O 	O 	0.3215	0.2359	0.4081	-0.343
Mof_C 	C 	0.6804	0.8595	0.3327	0.605
Mof_C 	C 	0.6333	0.8874	0.4021	0.23
Mof_H 	H 	0.6397	0.8573	0.4145	-0.057
Mof_C 	C 	0.8512	0.6384	0.405	-0.778
Mof_C 	C 	0.8293	0.1765	0.8555	-0.165
Mof_C 	C 	0.8597	0.6	0.3775	0.572
Mof_H 	H 	0.8499	0.6024	0.3479	-0.662
Mof_C 	C 	0.8208	0.6818	0.3891	0.917
Mof_C 	C 	0.6623	0.195	0.1476	-0.174
Mof_C 	C 	0.7337	0.1686	0.0974	-0.147
Mof_H 	H 	0.7712	0.1679	0.0903	0.086
Mof_C 	C 	0.0659	0.4427	0.3903	-0.273
Mof_H 	H 	0.0624	0.4756	0.3861	0.107
Mof_C 	C 	0.8626	0.1438	0.8779	0.065
Mof_H 	H 	0.8988	0.1386	0.8684	-0.011
Mof_C 	C 	0.7142	0.2002	0.1312	0.085
Mof_H 	H 	0.7372	0.2244	0.1418	0.019
Mof_C 	C 	0.635	0.9393	0.3408	0.198
Mof_H 	H 	0.643	0.9451	0.3113	-0.062
Mof_C 	C 	0.3331	0.2019	0.3819	1.084
Mof_C 	C 	0.7564	0.1575	0.9052	-0.146
Mof_H 	H 	0.7198	0.1621	0.914	0.083
Mof_O 	O 	0.1727	0.3187	0.3537	-0.353
Mof_C 	C 	0.0408	0.3684	0.4262	-0.312
Mof_H 	H 	0.0229	0.352	0.4489	0.128
Mof_C 	C 	0.7561	0.8259	0.0395	0.58
Mof_C 	C 	0.106	0.4163	0.3675	0.214
Mof_H 	H 	0.1306	0.4329	0.3494	-0.089
Mof_C 	C 	0.545	0.085	0.5813	-0.254
Mof_H 	H 	0.5076	0.088	0.5744	0.112
Mof_C 	C 	0.0773	0.3432	0.3991	0.295
Mof_H 	H 	0.079	0.3098	0.4005	-0.1
Mof_C 	C 	0.6309	0.051	0.5657	-0.237
Mof_H 	H 	0.6515	0.0288	0.5496	0.095
Mof_C 	C 	0.5635	0.1016	0.6207	0.169
Mof_H 	H 	0.5385	0.1162	0.6399	-0.058
Mof_C 	C 	0.6466	0.1333	0.0932	-0.175
Mof_H 	H 	0.6238	0.1083	0.0837	0.09
Mof_C 	C 	0.6421	0.1174	0.6738	0.479
Mof_C 	C 	0.3777	0.1658	0.395	-0.81
Mof_C 	C 	0.416	0.1491	0.365	-0.347
Mof_H 	H 	0.4154	0.1598	0.3359	-0.192
Mof_C 	C 	0.4562	0.1158	0.379	0.254
Mof_H 	H 	0.4808	0.1027	0.3587	-0.129
Mof_C 	C 	0.377	0.1486	0.4379	-0.779
Mof_H 	H 	0.3488	0.1574	0.4573	0.309
Mof_C 	C 	0.4191	0.1179	0.4514	0.813
Mof_H 	H 	0.4198	0.1079	0.4806	-0.264
Mof_C 	C 	0.1111	0.3682	0.3702	-0.461
Mof_O 	O 	0.1818	0.385	0.3142	-0.385
Mof_C 	C 	0.1675	0.3619	0.3469	1.089
Mof_H 	H 	0.7168	0.6921	0.2327	13.645
Mof_C 	C 	0.4139	0.0862	0.3974	-1.025
Mof_H 	H 	0.4088	0.0535	0.3923	0.323
Mof_C 	C 	0.378	0.1186	0.3798	1.085
Mof_H 	H 	0.3537	0.1092	0.3576	-0.772
Mof_C 	C 	0.4151	0.1791	0.4276	1.247
Mof_H 	H 	0.4124	0.2094	0.4404	-0.405
Mof_C 	C 	0.4563	0.1478	0.4413	-1.272
Mof_H 	H 	0.482	0.1576	0.4624	0.47
Mof_O 	O 	0.809	0.8578	0.3255	-0.614
Mof_C 	C 	0.8477	0.8361	0.3441	-0.12
Mof_O 	O 	0.8469	0.7912	0.3484	-0.286
Mof_O 	O 	0.822	0.7206	0.4123	-0.375
Mof_O 	O 	0.6974	0.7169	0.4134	-0.486
Mof_H 	H 	0.7808	0.6833	0.2375	13.691
Mof_H 	H 	0.7436	0.6884	0.2797	14.071
Mof_Eu	Eu	0.24364	0.23707	0.86313	3.609
Mof_O 	O 	0.1099	0.67	0.194	-0.575
Mof_O 	O 	0.2403	0.229	0.7854	-11.197
Mof_O 	O 	0.3178	0.7468	0.7021	-0.445
Mof_C 	C 	0.404	0.0334	0.9095	0.182
Mof_O 	O 	0.3155	0.1821	0.849	-0.587
Mof_C 	C 	0.2818	0.8915	0.5382	0.001
Mof_C 	C 	0.2402	0.0397	0.5577	-0.229
Mof_H 	H 	0.2351	0.019	0.5815	0.103
Mof_O 	O 	0.3119	0.8919	0.1853	-0.42
Mof_C 	C 	0.2811	0.9412	0.5418	-0.068
Mof_H 	H 	0.2987	0.9559	0.5655	0.054
Mof_C 	C 	0.4308	0.9948	0.9375	-0.097
Mof_C 	C 	0.498	0.9292	0.9421	-0.176
Mof_C 	C 	0.231	0.8974	0.4686	-0.001
Mof_C 	C 	0.2605	0.0528	0.4829	-0.212
Mof_H 	H 	0.2686	0.041	0.455	0.05
Mof_C 	C 	0.039	0.5166	0.9297	0.031
Mof_H 	H 	0.0304	0.5053	0.9016	-0.016
Mof_C 	C 	0.4723	0.9668	0.9175	0.045
Mof_H 	H 	0.4829	0.9727	0.8885	-0.014
Mof_C 	C 	0.0445	0.5969	0.0837	-0.207
Mof_H 	H 	0.0073	0.5993	0.076	0.082
Mof_C 	C 	0.1028	0.4459	0.9377	0.352
Mof_C 	C 	0.157	0.8813	0.4143	-0.165
Mof_H 	H 	0.1341	0.9035	0.4283	0.079
Mof_C 	C 	0.1197	0.6162	0.1343	-0.208
Mof_C 	C 	0.1356	0.5659	0.0721	-0.192
Mof_H 	H 	0.1604	0.5476	0.0556	0.098
Mof_C 	C 	0.1136	0.4091	0.9656	-0.496
Mof_H 	H 	0.1064	0.4125	0.9956	0.204
Mof_C 	C 	0.1357	0.3656	0.9492	0.483
Mof_H 	H 	0.1413	0.3397	0.968	-0.125
Mof_O 	O 	0.6816	0.7948	0.8437	-2.326
Mof_C 	C 	0.2295	0.9468	0.4743	-0.066
Mof_H 	H 	0.2112	0.9656	0.4535	0.029
Mof_C 	C 	0.3721	0.8362	0.626	0.099
Mof_H 	H 	0.4095	0.8369	0.6336	-0.016
Mof_C 	C 	0.0774	0.4931	0.9544	-0.142
Mof_C 	C 	0.0641	0.619	0.1223	0.114
Mof_H 	H 	0.0394	0.6357	0.1402	-0.083
Mof_C 	C 	0.2508	0.0213	0.5175	0.126
Mof_C 	C 	0.258	0.1018	0.49	0.154
Mof_H 	H 	0.2643	0.1226	0.4665	-0.057
Mof_C 	C 	0.1539	0.5865	0.1103	0.108
Mof_H 	H 	0.1898	0.5805	0.1202	-0.001
Mof_C 	C 	0.3518	0.1046	0.8591	-0.339
Mof_C 	C 	0.0654	0.5498	0.0136	-0.056
Mof_C 	C 	0.0257	0.5739	0.9883	-0.005
Mof_H 	H 	0.0084	0.6009	-0	0.025
Mof_C 	C 	0.4388	0.9505	0.0045	-0.085
Mof_C 	C 	0.2464	0.1207	0.5309	-0.271
Mof_C 	C 	0.346	0.9303	0.1041	0.114
Mof_H 	H 	0.3088	0.9353	0.111	-0.05
Mof_C 	C 	0.4158	0.987	0.9792	0.018
Mof_H 	H 	0.3889	0.0067	0.9918	0.019
Mof_C 	C 	0.2547	0.9691	0.5105	-0.024
Mof_C 	C 	0.4193	0.9367	0.0509	0.158
Mof_O 	O 	0.3882	0.8528	0.1948	-0.583
Mof_O 	O 	0.4024	0.7707	0.6958	-0.52
Mof_O 	O 	0.1953	0.315	0.85	-2.128
Mof_O 	O 	0.187	0.7704	0.2966	-0.452
Mof_O 	O 	0.1035	0.7929	0.3066	-0.515
Mof_C 	C 	0.0905	0.5085	0.9966	0.015
Mof_H 	H 	0.1161	0.4915	0.0135	0.02
Mof_O 	O 	0.2	0.2899	0.9185	-0.34
Mof_C 	C 	0.3816	0.9026	0.1331	-0.273
Mof_O 	O 	0.2345	0.1865	0.5771	-0.68
Mof_C 	C 	0.3901	0.0252	0.866	-0.272
Mof_H 	H 	0.3976	0.9954	0.8534	0.104
Mof_O 	O 	0.1909	0.6312	0.1859	-0.311
Mof_C 	C 	0.4797	0.9219	0.9848	0.05
Mof_H 	H 	0.4951	0.8969	0.001	-0.002
Mof_C 	C 	0.1171	0.4428	0.8934	-0.607
Mof_H 	H 	0.1112	0.4687	0.8746	0.134
Mof_C 	C 	0.2566	0.8714	0.5012	-0.073
Mof_H 	H 	0.2573	0.8381	0.4983	0.056
Mof_C 	C 	0.2245	0.8185	0.3688	0.074
Mof_H 	H 	0.2484	0.7986	0.3531	0.025
Mof_O 	O 	0.3015	0.1286	0.7953	-0.582
Mof_C 	C 	0.0116	0.5586	0.9464	-0.089
Mof_C 	C 	0.5406	0.8981	0.9238	0.387
Mof_C 	C 	0.3908	0.0773	0.927	-0.292
Mof_H 	H 	0.3984	0.0832	0.9566	0.137
Mof_C 	C 	0.2098	0.8739	0.4298	0.072
Mof_C 	C 	0.9698	0.5829	0.9205	0.17
Mof_C 	C 	0.2365	0.0894	0.5645	0.184
Mof_H 	H 	0.2273	0.1011	0.5923	-0.049
Mof_C 	C 	0.0817	0.5709	0.0567	0.116
Mof_C 	C 	0.3037	0.8612	0.5751	0.091
Mof_C 	C 	0.1514	0.7931	0.317	0.405
Mof_C 	C 	0.1421	0.6418	0.1744	0.41
Mof_O 	O 	0.2504	0.2019	0.509	-0.304
Mof_C 	C 	0.3548	0.7717	0.6828	0.395
Mof_O 	O 	0.6785	0.7641	0.9081	-0.343
Mof_C 	C 	0.3196	0.1405	0.8327	0.605
Mof_C 	C 	0.3667	0.1126	0.9021	0.23
Mof_H 	H 	0.3603	0.1427	0.9145	-0.057
Mof_C 	C 	0.1488	0.3616	0.905	-0.778
Mof_C 	C 	0.1707	0.8235	0.3555	-0.165
Mof_C 	C 	0.1403	0.4	0.8775	0.572
Mof_H 	H 	0.1501	0.3976	0.8479	-0.662
Mof_C 	C 	0.1792	0.3182	0.8891	0.917
Mof_C 	C 	0.3377	0.805	0.6476	-0.175
Mof_C 	C 	0.2663	0.8314	0.5974	-0.148
Mof_H 	H 	0.2288	0.8321	0.5903	0.087
Mof_C 	C 	0.9341	0.5573	0.8903	-0.273
Mof_H 	H 	0.9376	0.5244	0.8861	0.107
Mof_C 	C 	0.1374	0.8562	0.3779	0.065
Mof_H 	H 	0.1012	0.8614	0.3684	-0.011
Mof_C 	C 	0.2858	0.7998	0.6312	0.086
Mof_H 	H 	0.2628	0.7756	0.6418	0.019
Mof_C 	C 	0.365	0.0607	0.8408	0.198
Mof_H 	H 	0.357	0.0549	0.8113	-0.062
Mof_C 	C 	0.6669	0.7981	0.8819	1.084
Mof_C 	C 	0.2436	0.8425	0.4052	-0.147
Mof_H 	H 	0.2802	0.8379	0.414	0.083
Mof_O 	O 	0.8273	0.6813	0.8537	-0.353
Mof_C 	C 	0.9592	0.6316	0.9262	-0.312
Mof_H 	H 	0.9771	0.648	0.9489	0.128
Mof_C 	C 	0.2439	0.1741	0.5395	0.58
Mof_C 	C 	0.894	0.5837	0.8675	0.214
Mof_H 	H 	0.8694	0.5671	0.8494	-0.089
Mof_C 	C 	0.455	0.915	0.0813	-0.254
Mof_H 	H 	0.4924	0.912	0.0744	0.112
Mof_C 	C 	0.9227	0.6568	0.8991	0.295
Mof_H 	H 	0.921	0.6902	0.9005	-0.101
Mof_C 	C 	0.3691	0.949	0.0657	-0.237
Mof_H 	H 	0.3485	0.9712	0.0496	0.095
Mof_C 	C 	0.4365	0.8984	0.1207	0.169
Mof_H 	H 	0.4615	0.8838	0.1399	-0.058
Mof_C 	C 	0.3534	0.8667	0.5932	-0.176
Mof_H 	H 	0.3762	0.8917	0.5837	0.091
Mof_C 	C 	0.3579	0.8826	0.1738	0.479
Mof_C 	C 	0.6223	0.8342	0.895	-0.81
Mof_C 	C 	0.584	0.8509	0.865	-0.347
Mof_H 	H 	0.5846	0.8402	0.8359	-0.192
Mof_C 	C 	0.5438	0.8842	0.879	0.255
Mof_H 	H 	0.5192	0.8973	0.8587	-0.129
Mof_C 	C 	0.623	0.8514	0.9379	-0.779
Mof_H 	H 	0.6512	0.8426	0.9573	0.309
Mof_C 	C 	0.5809	0.8821	0.9514	0.813
Mof_H 	H 	0.5802	0.8921	0.9806	-0.264
Mof_C 	C 	0.8889	0.6318	0.8702	-0.461
Mof_O 	O 	0.8182	0.615	0.8142	-0.385
Mof_C 	C 	0.8325	0.6381	0.8469	1.089
Mof_H 	H 	0.2832	0.3079	0.7327	13.645
Mof_C 	C 	0.5861	0.9138	0.8974	-1.026
Mof_H 	H 	0.5912	0.9465	0.8923	0.323
Mof_C 	C 	0.622	0.8814	0.8798	1.085
Mof_H 	H 	0.6463	0.8908	0.8576	-0.772
Mof_C 	C 	0.5849	0.8209	0.9276	1.247
Mof_H 	H 	0.5876	0.7906	0.9404	-0.405
Mof_C 	C 	0.5437	0.8522	0.9413	-1.272
Mof_H 	H 	0.518	0.8424	0.9624	0.469
Mof_O 	O 	0.191	0.1422	0.8255	-0.614
Mof_C 	C 	0.1523	0.1639	0.8441	-0.12
Mof_O 	O 	0.1531	0.2088	0.8484	-0.286
Mof_O 	O 	0.178	0.2794	0.9123	-0.375
Mof_O 	O 	0.3026	0.2831	0.9134	-0.486
Mof_H 	H 	0.2192	0.3167	0.7375	13.691
Mof_H 	H 	0.2564	0.3116	0.7797	14.071
Mof_Eu	Eu	0.24364	0.26293	0.13687	3.609
Mof_O 	O 	0.1099	0.83	0.806	-0.575
Mof_O 	O 	0.2403	0.271	0.2146	-11.195
Mof_O 	O 	0.3178	0.7532	0.2979	-0.445
Mof_C 	C 	0.404	0.4666	0.0905	0.181
Mof_O 	O 	0.3155	0.3179	0.151	-0.587
Mof_C 	C 	0.2818	0.6085	0.4618	0
Mof_C 	C 	0.2402	0.4603	0.4423	-0.231
Mof_H 	H 	0.2351	0.481	0.4185	0.103
Mof_O 	O 	0.3119	0.6081	0.8147	-0.42
Mof_C 	C 	0.2811	0.5588	0.4582	-0.067
Mof_H 	H 	0.2987	0.5441	0.4345	0.053
Mof_C 	C 	0.4308	0.5052	0.0625	-0.096
Mof_C 	C 	0.498	0.5708	0.0579	-0.175
Mof_C 	C 	0.231	0.6026	0.5314	-0.001
Mof_C 	C 	0.2605	0.4472	0.5171	-0.214
Mof_H 	H 	0.2686	0.459	0.545	0.051
Mof_C 	C 	0.039	0.9834	0.0703	0.035
Mof_H 	H 	0.0304	0.9947	0.0984	-0.017
Mof_C 	C 	0.4723	0.5332	0.0825	0.044
Mof_H 	H 	0.4829	0.5273	0.1115	-0.013
Mof_C 	C 	0.0445	0.9031	0.9163	-0.208
Mof_H 	H 	0.0073	0.9007	0.924	0.082
Mof_C 	C 	0.1028	0.0541	0.0623	0.353
Mof_C 	C 	0.157	0.6187	0.5857	-0.165
Mof_H 	H 	0.1341	0.5965	0.5717	0.079
Mof_C 	C 	0.1197	0.8838	0.8657	-0.208
Mof_C 	C 	0.1356	0.9341	0.9279	-0.192
Mof_H 	H 	0.1604	0.9524	0.9444	0.099
Mof_C 	C 	0.1136	0.0909	0.0344	-0.498
Mof_H 	H 	0.1064	0.0875	0.0044	0.204
Mof_C 	C 	0.1357	0.1344	0.0508	0.484
Mof_H 	H 	0.1413	0.1603	0.032	-0.126
Mof_O 	O 	0.6816	0.7052	0.1563	-2.326
Mof_C 	C 	0.2295	0.5532	0.5257	-0.065
Mof_H 	H 	0.2112	0.5344	0.5465	0.029
Mof_C 	C 	0.3721	0.6638	0.374	0.099
Mof_H 	H 	0.4095	0.6631	0.3664	-0.016
Mof_C 	C 	0.0774	0.0069	0.0456	-0.147
Mof_C 	C 	0.0641	0.881	0.8777	0.114
Mof_H 	H 	0.0394	0.8643	0.8598	-0.083
Mof_C 	C 	0.2508	0.4787	0.4825	0.128
Mof_C 	C 	0.258	0.3982	0.51	0.155
Mof_H 	H 	0.2643	0.3774	0.5335	-0.058
Mof_C 	C 	0.1539	0.9135	0.8897	0.109
Mof_H 	H 	0.1898	0.9195	0.8798	-0.001
Mof_C 	C 	0.3518	0.3954	0.1409	-0.339
Mof_C 	C 	0.0654	0.9502	0.9864	-0.057
Mof_C 	C 	0.0257	0.9261	0.0117	-0.005
Mof_H 	H 	0.0084	0.8991	-0	0.025
Mof_C 	C 	0.4388	0.5495	0.9955	-0.084
Mof_C 	C 	0.2464	0.3793	0.4691	-0.272
Mof_C 	C 	0.346	0.5697	0.8959	0.114
Mof_H 	H 	0.3088	0.5647	0.889	-0.05
Mof_C 	C 	0.4158	0.513	0.0208	0.017
Mof_H 	H 	0.3889	0.4933	0.0082	0.019
Mof_C 	C 	0.2547	0.5309	0.4895	-0.025
Mof_C 	C 	0.4193	0.5633	0.9491	0.157
Mof_O 	O 	0.3882	0.6472	0.8052	-0.583
Mof_O 	O 	0.4024	0.7293	0.3042	-0.52
Mof_O 	O 	0.1953	0.185	0.15	-2.128
Mof_O 	O 	0.187	0.7296	0.7034	-0.452
Mof_O 	O 	0.1035	0.7071	0.6934	-0.515
Mof_C 	C 	0.0905	0.9915	0.0034	0.02
Mof_H 	H 	0.1161	0.0085	0.9865	0.018
Mof_O 	O 	0.2	0.2101	0.0815	-0.341
Mof_C 	C 	0.3816	0.5974	0.8669	-0.273
Mof_O 	O 	0.2345	0.3135	0.4229	-0.68
Mof_C 	C 	0.3901	0.4748	0.134	-0.271
Mof_H 	H 	0.3976	0.5046	0.1466	0.104
Mof_O 	O 	0.1909	0.8688	0.8141	-0.311
Mof_C 	C 	0.4797	0.5781	0.0152	0.048
Mof_H 	H 	0.4951	0.6031	0.999	-0.001
Mof_C 	C 	0.1171	0.0572	0.1066	-0.609
Mof_H 	H 	0.1112	0.0313	0.1254	0.134
Mof_C 	C 	0.2566	0.6286	0.4988	-0.072
Mof_H 	H 	0.2573	0.6619	0.5017	0.056
Mof_C 	C 	0.2245	0.6815	0.6312	0.075
Mof_H 	H 	0.2484	0.7014	0.6469	0.024
Mof_O 	O 	0.3015	0.3714	0.2047	-0.582
Mof_C 	C 	0.0116	0.9414	0.0536	-0.089
Mof_C 	C 	0.5406	0.6019	0.0762	0.386
Mof_C 	C 	0.3908	0.4227	0.073	-0.291
Mof_H 	H 	0.3984	0.4168	0.0434	0.137
Mof_C 	C 	0.2098	0.6261	0.5702	0.072
Mof_C 	C 	0.9698	0.9171	0.0795	0.169
Mof_C 	C 	0.2365	0.4106	0.4355	0.186
Mof_H 	H 	0.2273	0.3989	0.4077	-0.049
Mof_C 	C 	0.0817	0.9291	0.9433	0.117
Mof_C 	C 	0.3037	0.6388	0.4249	0.092
Mof_C 	C 	0.1514	0.7069	0.683	0.405
Mof_C 	C 	0.1421	0.8582	0.8256	0.411
Mof_O 	O 	0.2504	0.2981	0.491	-0.304
Mof_C 	C 	0.3548	0.7283	0.3172	0.395
Mof_O 	O 	0.6785	0.7359	0.0919	-0.343
Mof_C 	C 	0.3196	0.3595	0.1673	0.605
Mof_C 	C 	0.3667	0.3874	0.0979	0.229
Mof_H 	H 	0.3603	0.3573	0.0855	-0.057
Mof_C 	C 	0.1488	0.1384	0.095	-0.779
Mof_C 	C 	0.1707	0.6765	0.6445	-0.165
Mof_C 	C 	0.1403	0.1	0.1225	0.573
Mof_H 	H 	0.1501	0.1024	0.1521	-0.663
Mof_C 	C 	0.1792	0.1818	0.1109	0.918
Mof_C 	C 	0.3377	0.695	0.3524	-0.175
Mof_C 	C 	0.2663	0.6686	0.4026	-0.148
Mof_H 	H 	0.2288	0.6679	0.4097	0.087
Mof_C 	C 	0.9341	0.9427	0.1097	-0.273
Mof_H 	H 	0.9376	0.9756	0.1139	0.106
Mof_C 	C 	0.1374	0.6438	0.6221	0.065
Mof_H 	H 	0.1012	0.6386	0.6316	-0.012
Mof_C 	C 	0.2858	0.7002	0.3688	0.086
Mof_H 	H 	0.2628	0.7244	0.3582	0.019
Mof_C 	C 	0.365	0.4393	0.1592	0.197
Mof_H 	H 	0.357	0.4451	0.1887	-0.062
Mof_C 	C 	0.6669	0.7019	0.1181	1.084
Mof_C 	C 	0.2436	0.6575	0.5948	-0.147
Mof_H 	H 	0.2802	0.6621	0.586	0.083
Mof_O 	O 	0.8273	0.8187	0.1463	-0.353
Mof_C 	C 	0.9592	0.8684	0.0738	-0.312
Mof_H 	H 	0.9771	0.852	0.0511	0.128
Mof_C 	C 	0.2439	0.3259	0.4605	0.58
Mof_C 	C 	0.894	0.9163	0.1325	0.214
Mof_H 	H 	0.8694	0.9329	0.1506	-0.089
Mof_C 	C 	0.455	0.585	0.9187	-0.253
Mof_H 	H 	0.4924	0.588	0.9256	0.112
Mof_C 	C 	0.9227	0.8432	0.1009	0.294
Mof_H 	H 	0.921	0.8098	0.0995	-0.1
Mof_C 	C 	0.3691	0.551	0.9343	-0.237
Mof_H 	H 	0.3485	0.5288	0.9504	0.094
Mof_C 	C 	0.4365	0.6016	0.8793	0.169
Mof_H 	H 	0.4615	0.6162	0.8601	-0.058
Mof_C 	C 	0.3534	0.6333	0.4068	-0.176
Mof_H 	H 	0.3762	0.6083	0.4163	0.091
Mof_C 	C 	0.3579	0.6174	0.8262	0.479
Mof_C 	C 	0.6223	0.6658	0.105	-0.81
Mof_C 	C 	0.584	0.6491	0.135	-0.347
Mof_H 	H 	0.5846	0.6598	0.1641	-0.192
Mof_C 	C 	0.5438	0.6158	0.121	0.255
Mof_H 	H 	0.5192	0.6027	0.1413	-0.129
Mof_C 	C 	0.623	0.6486	0.0621	-0.78
Mof_H 	H 	0.6512	0.6574	0.0427	0.31
Mof_C 	C 	0.5809	0.6179	0.0486	0.814
Mof_H 	H 	0.5802	0.6079	0.0194	-0.265
Mof_C 	C 	0.8889	0.8682	0.1298	-0.461
Mof_O 	O 	0.8182	0.885	0.1858	-0.385
Mof_C 	C 	0.8325	0.8619	0.1531	1.089
Mof_H 	H 	0.2832	0.1921	0.2673	13.643
Mof_C 	C 	0.5861	0.5862	0.1026	-1.026
Mof_H 	H 	0.5912	0.5535	0.1077	0.324
Mof_C 	C 	0.622	0.6186	0.1202	1.086
Mof_H 	H 	0.6463	0.6092	0.1424	-0.772
Mof_C 	C 	0.5849	0.6791	0.0724	1.248
Mof_H 	H 	0.5876	0.7094	0.0596	-0.405
Mof_C 	C 	0.5437	0.6478	0.0587	-1.273
Mof_H 	H 	0.518	0.6576	0.0376	0.47
Mof_O 	O 	0.191	0.3578	0.1745	-0.614
Mof_C 	C 	0.1523	0.3361	0.1559	-0.12
Mof_O 	O 	0.1531	0.2912	0.1516	-0.286
Mof_O 	O 	0.178	0.2206	0.0877	-0.375
Mof_O 	O 	0.3026	0.2169	0.0866	-0.486
Mof_H 	H 	0.2192	0.1833	0.2625	13.689
Mof_H 	H 	0.2564	0.1884	0.2203	14.069
Mof_Eu	Eu	0.75636	0.73707	0.63687	3.609
Mof_O 	O 	0.8901	0.17	0.306	-0.575
Mof_O 	O 	0.7597	0.729	0.7146	-11.195
Mof_O 	O 	0.6822	0.2468	0.7979	-0.445
Mof_C 	C 	0.596	0.5334	0.5905	0.182
Mof_O 	O 	0.6845	0.6821	0.651	-0.587
Mof_C 	C 	0.7182	0.3915	0.9618	-0.001
Mof_C 	C 	0.7598	0.5397	0.9423	-0.231
Mof_H 	H 	0.7649	0.519	0.9185	0.103
Mof_O 	O 	0.6881	0.3919	0.3147	-0.42
Mof_C 	C 	0.7189	0.4412	0.9582	-0.067
Mof_H 	H 	0.7013	0.4559	0.9345	0.053
Mof_C 	C 	0.5692	0.4948	0.5625	-0.096
Mof_C 	C 	0.502	0.4292	0.5579	-0.175
Mof_C 	C 	0.769	0.3974	0.0314	-0.002
Mof_C 	C 	0.7395	0.5528	0.0171	-0.214
Mof_H 	H 	0.7314	0.541	0.045	0.051
Mof_C 	C 	0.961	0.0166	0.5703	0.035
Mof_H 	H 	0.9696	0.0053	0.5984	-0.017
Mof_C 	C 	0.5277	0.4668	0.5825	0.045
Mof_H 	H 	0.5171	0.4727	0.6115	-0.014
Mof_C 	C 	0.9555	0.0969	0.4163	-0.208
Mof_H 	H 	0.9927	0.0993	0.424	0.082
Mof_C 	C 	0.8972	0.9459	0.5623	0.353
Mof_C 	C 	0.843	0.3813	0.0857	-0.166
Mof_H 	H 	0.8659	0.4035	0.0717	0.079
Mof_C 	C 	0.8803	0.1162	0.3657	-0.208
Mof_C 	C 	0.8644	0.0659	0.4279	-0.192
Mof_H 	H 	0.8396	0.0476	0.4444	0.099
Mof_C 	C 	0.8864	0.9091	0.5344	-0.497
Mof_H 	H 	0.8936	0.9125	0.5044	0.204
Mof_C 	C 	0.8643	0.8656	0.5508	0.484
Mof_H 	H 	0.8587	0.8397	0.532	-0.126
Mof_O 	O 	0.3184	0.2948	0.6563	-2.326
Mof_C 	C 	0.7705	0.4468	0.0257	-0.065
Mof_H 	H 	0.7888	0.4656	0.0465	0.029
Mof_C 	C 	0.6279	0.3362	0.874	0.099
Mof_H 	H 	0.5905	0.3369	0.8664	-0.016
Mof_C 	C 	0.9226	0.9931	0.5456	-0.146
Mof_C 	C 	0.9359	0.119	0.3777	0.114
Mof_H 	H 	0.9606	0.1357	0.3598	-0.083
Mof_C 	C 	0.7492	0.5213	0.9825	0.128
Mof_C 	C 	0.742	0.6018	0.01	0.154
Mof_H 	H 	0.7357	0.6226	0.0335	-0.057
Mof_C 	C 	0.8461	0.0865	0.3897	0.109
Mof_H 	H 	0.8102	0.0805	0.3798	-0.001
Mof_C 	C 	0.6482	0.6046	0.6409	-0.339
Mof_C 	C 	0.9346	0.0498	0.4864	-0.057
Mof_C 	C 	0.9743	0.0739	0.5117	-0.005
Mof_H 	H 	0.9916	0.1009	0.5	0.025
Mof_C 	C 	0.5612	0.4505	0.4955	-0.084
Mof_C 	C 	0.7536	0.6207	0.9691	-0.272
Mof_C 	C 	0.654	0.4303	0.3959	0.114
Mof_H 	H 	0.6912	0.4353	0.389	-0.05
Mof_C 	C 	0.5842	0.487	0.5208	0.018
Mof_H 	H 	0.6111	0.5067	0.5082	0.019
Mof_C 	C 	0.7453	0.4691	0.9895	-0.026
Mof_C 	C 	0.5807	0.4367	0.4491	0.158
Mof_O 	O 	0.6118	0.3528	0.3052	-0.583
Mof_O 	O 	0.5976	0.2707	0.8042	-0.52
Mof_O 	O 	0.8047	0.815	0.65	-2.128
Mof_O 	O 	0.813	0.2704	0.2034	-0.452
Mof_O 	O 	0.8965	0.2929	0.1934	-0.515
Mof_C 	C 	0.9095	0.0085	0.5034	0.02
Mof_H 	H 	0.8839	0.9915	0.4865	0.018
Mof_O 	O 	0.8	0.7899	0.5815	-0.34
Mof_C 	C 	0.6184	0.4026	0.3669	-0.273
Mof_O 	O 	0.7655	0.6865	0.9229	-0.68
Mof_C 	C 	0.6099	0.5252	0.634	-0.271
Mof_H 	H 	0.6024	0.4954	0.6466	0.104
Mof_O 	O 	0.8091	0.1312	0.3141	-0.311
Mof_C 	C 	0.5203	0.4219	0.5152	0.05
Mof_H 	H 	0.5049	0.3969	0.499	-0.001
Mof_C 	C 	0.8829	0.9428	0.6066	-0.609
Mof_H 	H 	0.8888	0.9687	0.6254	0.134
Mof_C 	C 	0.7434	0.3714	0.9988	-0.071
Mof_H 	H 	0.7427	0.3381	0.0017	0.055
Mof_C 	C 	0.7755	0.3185	0.1312	0.075
Mof_H 	H 	0.7516	0.2986	0.1469	0.024
Mof_O 	O 	0.6985	0.6286	0.7047	-0.582
Mof_C 	C 	0.9884	0.0586	0.5536	-0.089
Mof_C 	C 	0.4594	0.3981	0.5762	0.387
Mof_C 	C 	0.6092	0.5773	0.573	-0.291
Mof_H 	H 	0.6016	0.5832	0.5434	0.137
Mof_C 	C 	0.7902	0.3739	0.0702	0.073
Mof_C 	C 	0.0302	0.0829	0.5795	0.169
Mof_C 	C 	0.7635	0.5894	0.9355	0.185
Mof_H 	H 	0.7727	0.6011	0.9077	-0.049
Mof_C 	C 	0.9183	0.0709	0.4433	0.117
Mof_C 	C 	0.6963	0.3612	0.9249	0.092
Mof_C 	C 	0.8486	0.2931	0.183	0.405
Mof_C 	C 	0.8579	0.1418	0.3256	0.411
Mof_O 	O 	0.7496	0.7019	0.991	-0.304
Mof_C 	C 	0.6452	0.2717	0.8172	0.395
Mof_O 	O 	0.3215	0.2641	0.5919	-0.343
Mof_C 	C 	0.6804	0.6405	0.6673	0.605
Mof_C 	C 	0.6333	0.6126	0.5979	0.229
Mof_H 	H 	0.6397	0.6427	0.5855	-0.057
Mof_C 	C 	0.8512	0.8616	0.595	-0.779
Mof_C 	C 	0.8293	0.3235	0.1445	-0.165
Mof_C 	C 	0.8597	0.9	0.6225	0.573
Mof_H 	H 	0.8499	0.8976	0.6521	-0.663
Mof_C 	C 	0.8208	0.8182	0.6109	0.918
Mof_C 	C 	0.6623	0.305	0.8524	-0.175
Mof_C 	C 	0.7337	0.3314	0.9026	-0.148
Mof_H 	H 	0.7712	0.3321	0.9097	0.087
Mof_C 	C 	0.0659	0.0573	0.6097	-0.273
Mof_H 	H 	0.0624	0.0244	0.6139	0.106
Mof_C 	C 	0.8626	0.3562	0.1221	0.065
Mof_H 	H 	0.8988	0.3614	0.1316	-0.012
Mof_C 	C 	0.7142	0.2998	0.8688	0.086
Mof_H 	H 	0.7372	0.2756	0.8582	0.019
Mof_C 	C 	0.635	0.5607	0.6592	0.198
Mof_H 	H 	0.643	0.5549	0.6887	-0.062
Mof_C 	C 	0.3331	0.2981	0.6181	1.084
Mof_C 	C 	0.7564	0.3425	0.0948	-0.148
Mof_H 	H 	0.7198	0.3379	0.086	0.083
Mof_O 	O 	0.1727	0.1813	0.6463	-0.353
Mof_C 	C 	0.0408	0.1316	0.5738	-0.311
Mof_H 	H 	0.0229	0.148	0.5511	0.128
Mof_C 	C 	0.7561	0.6741	0.9605	0.58
Mof_C 	C 	0.106	0.0837	0.6325	0.214
Mof_H 	H 	0.1306	0.0671	0.6506	-0.089
Mof_C 	C 	0.545	0.415	0.4187	-0.253
Mof_H 	H 	0.5076	0.412	0.4256	0.112
Mof_C 	C 	0.0773	0.1568	0.6009	0.294
Mof_H 	H 	0.079	0.1902	0.5995	-0.1
Mof_C 	C 	0.6309	0.449	0.4343	-0.237
Mof_H 	H 	0.6515	0.4712	0.4504	0.095
Mof_C 	C 	0.5635	0.3984	0.3793	0.169
Mof_H 	H 	0.5385	0.3838	0.3601	-0.058
Mof_C 	C 	0.6466	0.3667	0.9068	-0.177
Mof_H 	H 	0.6238	0.3917	0.9163	0.091
Mof_C 	C 	0.6421	0.3826	0.3262	0.479
Mof_C 	C 	0.3777	0.3342	0.605	-0.81
Mof_C 	C 	0.416	0.3509	0.635	-0.347
Mof_H 	H 	0.4154	0.3402	0.6641	-0.192
Mof_C 	C 	0.4562	0.3842	0.621	0.255
Mof_H 	H 	0.4808	0.3973	0.6413	-0.129
Mof_C 	C 	0.377	0.3514	0.5621	-0.779
Mof_H 	H 	0.3488	0.3426	0.5427	0.31
Mof_C 	C 	0.4191	0.3821	0.5486	0.813
Mof_H 	H 	0.4198	0.3921	0.5194	-0.264
Mof_C 	C 	0.1111	0.1318	0.6298	-0.461
Mof_O 	O 	0.1818	0.115	0.6858	-0.385
Mof_C 	C 	0.1675	0.1381	0.6531	1.089
Mof_H 	H 	0.7168	0.8079	0.7673	13.643
Mof_C 	C 	0.4139	0.4138	0.6026	-1.026
Mof_H 	H 	0.4088	0.4465	0.6077	0.324
Mof_C 	C 	0.378	0.3814	0.6202	1.086
Mof_H 	H 	0.3537	0.3908	0.6424	-0.772
Mof_C 	C 	0.4151	0.3209	0.5724	1.248
Mof_H 	H 	0.4124	0.2906	0.5596	-0.405
Mof_C 	C 	0.4563	0.3522	0.5587	-1.273
Mof_H 	H 	0.482	0.3424	0.5376	0.47
Mof_O 	O 	0.809	0.6422	0.6745	-0.614
Mof_C 	C 	0.8477	0.6639	0.6559	-0.12
Mof_O 	O 	0.8469	0.7088	0.6516	-0.286
Mof_O 	O 	0.822	0.7794	0.5877	-0.375
Mof_O 	O 	0.6974	0.7831	0.5866	-0.486
Mof_H 	H 	0.7808	0.8167	0.7625	13.689
Mof_H 	H 	0.7436	0.8116	0.7203	14.069
Mof_Eu	Eu	0.24364	0.23707	0.63687	3.609
Mof_O 	O 	0.1099	0.67	0.306	-0.575
Mof_O 	O 	0.2403	0.229	0.7146	-11.197
Mof_O 	O 	0.3178	0.7468	0.7979	-0.445
Mof_C 	C 	0.404	0.0334	0.5905	0.182
Mof_O 	O 	0.3155	0.1821	0.651	-0.587
Mof_C 	C 	0.2818	0.8915	0.9618	0
Mof_C 	C 	0.2402	0.0397	0.9423	-0.23
Mof_H 	H 	0.2351	0.019	0.9185	0.103
Mof_O 	O 	0.3119	0.8919	0.3147	-0.42
Mof_C 	C 	0.2811	0.9412	0.9582	-0.067
Mof_H 	H 	0.2987	0.9559	0.9345	0.054
Mof_C 	C 	0.4308	0.9948	0.5625	-0.097
Mof_C 	C 	0.498	0.9292	0.5579	-0.175
Mof_C 	C 	0.231	0.8974	0.0314	-0.001
Mof_C 	C 	0.2605	0.0528	0.0171	-0.214
Mof_H 	H 	0.2686	0.041	0.045	0.05
Mof_C 	C 	0.039	0.5166	0.5703	0.031
Mof_H 	H 	0.0304	0.5053	0.5984	-0.016
Mof_C 	C 	0.4723	0.9668	0.5825	0.045
Mof_H 	H 	0.4829	0.9727	0.6115	-0.014
Mof_C 	C 	0.0445	0.5969	0.4163	-0.206
Mof_H 	H 	0.0073	0.5993	0.424	0.082
Mof_C 	C 	0.1028	0.4459	0.5623	0.351
Mof_C 	C 	0.157	0.8813	0.0857	-0.165
Mof_H 	H 	0.1341	0.9035	0.0717	0.079
Mof_C 	C 	0.1197	0.6162	0.3657	-0.208
Mof_C 	C 	0.1356	0.5659	0.4279	-0.191
Mof_H 	H 	0.1604	0.5476	0.4444	0.098
Mof_C 	C 	0.1136	0.4091	0.5344	-0.496
Mof_H 	H 	0.1064	0.4125	0.5044	0.204
Mof_C 	C 	0.1357	0.3656	0.5508	0.483
Mof_H 	H 	0.1413	0.3397	0.532	-0.125
Mof_O 	O 	0.6816	0.7948	0.6563	-2.326
Mof_C 	C 	0.2295	0.9468	0.0257	-0.065
Mof_H 	H 	0.2112	0.9656	0.0465	0.029
Mof_C 	C 	0.3721	0.8362	0.874	0.099
Mof_H 	H 	0.4095	0.8369	0.8664	-0.016
Mof_C 	C 	0.0774	0.4931	0.5456	-0.141
Mof_C 	C 	0.0641	0.619	0.3777	0.113
Mof_H 	H 	0.0394	0.6357	0.3598	-0.083
Mof_C 	C 	0.2508	0.0213	0.9825	0.128
Mof_C 	C 	0.258	0.1018	0.01	0.153
Mof_H 	H 	0.2643	0.1226	0.0335	-0.057
Mof_C 	C 	0.1539	0.5865	0.3897	0.108
Mof_H 	H 	0.1898	0.5805	0.3798	-0.001
Mof_C 	C 	0.3518	0.1046	0.6409	-0.339
Mof_C 	C 	0.0654	0.5498	0.4864	-0.054
Mof_C 	C 	0.0257	0.5739	0.5117	-0.007
Mof_H 	H 	0.0084	0.6009	0.5	0.026
Mof_C 	C 	0.4388	0.9505	0.4955	-0.085
Mof_C 	C 	0.2464	0.1207	0.9691	-0.271
Mof_C 	C 	0.346	0.9303	0.3959	0.114
Mof_H 	H 	0.3088	0.9353	0.389	-0.05
Mof_C 	C 	0.4158	0.987	0.5208	0.019
Mof_H 	H 	0.3889	0.0067	0.5082	0.019
Mof_C 	C 	0.2547	0.9691	0.9895	-0.025
Mof_C 	C 	0.4193	0.9367	0.4491	0.158
Mof_O 	O 	0.3882	0.8528	0.3052	-0.583
Mof_O 	O 	0.4024	0.7707	0.8042	-0.52
Mof_O 	O 	0.1953	0.315	0.65	-2.128
Mof_O 	O 	0.187	0.7704	0.2034	-0.452
Mof_O 	O 	0.1035	0.7929	0.1934	-0.515
Mof_C 	C 	0.0905	0.5085	0.5034	0.014
Mof_H 	H 	0.1161	0.4915	0.4865	0.021
Mof_O 	O 	0.2	0.2899	0.5815	-0.34
Mof_C 	C 	0.3816	0.9026	0.3669	-0.273
Mof_O 	O 	0.2345	0.1865	0.9229	-0.68
Mof_C 	C 	0.3901	0.0252	0.634	-0.272
Mof_H 	H 	0.3976	0.9954	0.6466	0.104
Mof_O 	O 	0.1909	0.6312	0.3141	-0.311
Mof_C 	C 	0.4797	0.9219	0.5152	0.05
Mof_H 	H 	0.4951	0.8969	0.499	-0.001
Mof_C 	C 	0.1171	0.4428	0.6066	-0.607
Mof_H 	H 	0.1112	0.4687	0.6254	0.134
Mof_C 	C 	0.2566	0.8714	0.9988	-0.073
Mof_H 	H 	0.2573	0.8381	0.0017	0.055
Mof_C 	C 	0.2245	0.8185	0.1312	0.074
Mof_H 	H 	0.2484	0.7986	0.1469	0.024
Mof_O 	O 	0.3015	0.1286	0.7047	-0.582
Mof_C 	C 	0.0116	0.5586	0.5536	-0.088
Mof_C 	C 	0.5406	0.8981	0.5762	0.387
Mof_C 	C 	0.3908	0.0773	0.573	-0.292
Mof_H 	H 	0.3984	0.0832	0.5434	0.137
Mof_C 	C 	0.2098	0.8739	0.0702	0.072
Mof_C 	C 	0.9698	0.5829	0.5795	0.17
Mof_C 	C 	0.2365	0.0894	0.9355	0.185
Mof_H 	H 	0.2273	0.1011	0.9077	-0.049
Mof_C 	C 	0.0817	0.5709	0.4433	0.115
Mof_C 	C 	0.3037	0.8612	0.9249	0.091
Mof_C 	C 	0.1514	0.7931	0.183	0.405
Mof_C 	C 	0.1421	0.6418	0.3256	0.41
Mof_O 	O 	0.2504	0.2019	0.991	-0.304
Mof_C 	C 	0.3548	0.7717	0.8172	0.395
Mof_O 	O 	0.6785	0.7641	0.5919	-0.343
Mof_C 	C 	0.3196	0.1405	0.6673	0.605
Mof_C 	C 	0.3667	0.1126	0.5979	0.23
Mof_H 	H 	0.3603	0.1427	0.5855	-0.057
Mof_C 	C 	0.1488	0.3616	0.595	-0.778
Mof_C 	C 	0.1707	0.8235	0.1445	-0.165
Mof_C 	C 	0.1403	0.4	0.6225	0.572
Mof_H 	H 	0.1501	0.3976	0.6521	-0.662
Mof_C 	C 	0.1792	0.3182	0.6109	0.917
Mof_C 	C 	0.3377	0.805	0.8524	-0.175
Mof_C 	C 	0.2663	0.8314	0.9026	-0.148
Mof_H 	H 	0.2288	0.8321	0.9097	0.086
Mof_C 	C 	0.9341	0.5573	0.6097	-0.273
Mof_H 	H 	0.9376	0.5244	0.6139	0.107
Mof_C 	C 	0.1374	0.8562	0.1221	0.065
Mof_H 	H 	0.1012	0.8614	0.1316	-0.011
Mof_C 	C 	0.2858	0.7998	0.8688	0.086
Mof_H 	H 	0.2628	0.7756	0.8582	0.019
Mof_C 	C 	0.365	0.0607	0.6592	0.198
Mof_H 	H 	0.357	0.0549	0.6887	-0.062
Mof_C 	C 	0.6669	0.7981	0.6181	1.084
Mof_C 	C 	0.2436	0.8425	0.0948	-0.147
Mof_H 	H 	0.2802	0.8379	0.086	0.083
Mof_O 	O 	0.8273	0.6813	0.6463	-0.353
Mof_C 	C 	0.9592	0.6316	0.5738	-0.312
Mof_H 	H 	0.9771	0.648	0.5511	0.128
Mof_C 	C 	0.2439	0.1741	0.9605	0.58
Mof_C 	C 	0.894	0.5837	0.6325	0.214
Mof_H 	H 	0.8694	0.5671	0.6506	-0.089
Mof_C 	C 	0.455	0.915	0.4187	-0.254
Mof_H 	H 	0.4924	0.912	0.4256	0.112
Mof_C 	C 	0.9227	0.6568	0.6009	0.295
Mof_H 	H 	0.921	0.6902	0.5995	-0.1
Mof_C 	C 	0.3691	0.949	0.4343	-0.237
Mof_H 	H 	0.3485	0.9712	0.4504	0.095
Mof_C 	C 	0.4365	0.8984	0.3793	0.169
Mof_H 	H 	0.4615	0.8838	0.3601	-0.058
Mof_C 	C 	0.3534	0.8667	0.9068	-0.176
Mof_H 	H 	0.3762	0.8917	0.9163	0.091
Mof_C 	C 	0.3579	0.8826	0.3262	0.479
Mof_C 	C 	0.6223	0.8342	0.605	-0.81
Mof_C 	C 	0.584	0.8509	0.635	-0.347
Mof_H 	H 	0.5846	0.8402	0.6641	-0.192
Mof_C 	C 	0.5438	0.8842	0.621	0.254
Mof_H 	H 	0.5192	0.8973	0.6413	-0.129
Mof_C 	C 	0.623	0.8514	0.5621	-0.779
Mof_H 	H 	0.6512	0.8426	0.5427	0.309
Mof_C 	C 	0.5809	0.8821	0.5486	0.813
Mof_H 	H 	0.5802	0.8921	0.5194	-0.264
Mof_C 	C 	0.8889	0.6318	0.6298	-0.461
Mof_O 	O 	0.8182	0.615	0.6858	-0.385
Mof_C 	C 	0.8325	0.6381	0.6531	1.089
Mof_H 	H 	0.2832	0.3079	0.7673	13.645
Mof_C 	C 	0.5861	0.9138	0.6026	-1.026
Mof_H 	H 	0.5912	0.9465	0.6077	0.323
Mof_C 	C 	0.622	0.8814	0.6202	1.085
Mof_H 	H 	0.6463	0.8908	0.6424	-0.772
Mof_C 	C 	0.5849	0.8209	0.5724	1.247
Mof_H 	H 	0.5876	0.7906	0.5596	-0.405
Mof_C 	C 	0.5437	0.8522	0.5587	-1.272
Mof_H 	H 	0.518	0.8424	0.5376	0.47
Mof_O 	O 	0.191	0.1422	0.6745	-0.614
Mof_C 	C 	0.1523	0.1639	0.6559	-0.12
Mof_O 	O 	0.1531	0.2088	0.6516	-0.286
Mof_O 	O 	0.178	0.2794	0.5877	-0.375
Mof_O 	O 	0.3026	0.2831	0.5866	-0.486
Mof_H 	H 	0.2192	0.3167	0.7625	13.691
Mof_H 	H 	0.2564	0.3116	0.7203	14.071
Mof_Eu	Eu	0.75636	0.76293	0.13687	3.609
Mof_O 	O 	0.8901	0.33	0.806	-0.575
Mof_O 	O 	0.7597	0.771	0.2146	-11.197
Mof_O 	O 	0.6822	0.2532	0.2979	-0.445
Mof_C 	C 	0.596	0.9666	0.0905	0.181
Mof_O 	O 	0.6845	0.8179	0.151	-0.587
Mof_C 	C 	0.7182	0.1085	0.4618	0.001
Mof_C 	C 	0.7598	0.9603	0.4423	-0.229
Mof_H 	H 	0.7649	0.981	0.4185	0.103
Mof_O 	O 	0.6881	0.1081	0.8147	-0.42
Mof_C 	C 	0.7189	0.0588	0.4582	-0.068
Mof_H 	H 	0.7013	0.0441	0.4345	0.054
Mof_C 	C 	0.5692	0.0052	0.0625	-0.095
Mof_C 	C 	0.502	0.0708	0.0579	-0.173
Mof_C 	C 	0.769	0.1026	0.5314	-0.001
Mof_C 	C 	0.7395	0.9472	0.5171	-0.212
Mof_H 	H 	0.7314	0.959	0.545	0.05
Mof_C 	C 	0.961	0.4834	0.0703	0.029
Mof_H 	H 	0.9696	0.4947	0.0984	-0.015
Mof_C 	C 	0.5277	0.0332	0.0825	0.043
Mof_H 	H 	0.5171	0.0273	0.1115	-0.013
Mof_C 	C 	0.9555	0.4031	0.9163	-0.206
Mof_H 	H 	0.9927	0.4007	0.924	0.082
Mof_C 	C 	0.8972	0.5541	0.0623	0.35
Mof_C 	C 	0.843	0.1187	0.5857	-0.165
Mof_H 	H 	0.8659	0.0965	0.5717	0.079
Mof_C 	C 	0.8803	0.3838	0.8657	-0.207
Mof_C 	C 	0.8644	0.4341	0.9279	-0.19
Mof_H 	H 	0.8396	0.4524	0.9444	0.098
Mof_C 	C 	0.8864	0.5909	0.0344	-0.495
Mof_H 	H 	0.8936	0.5875	0.0044	0.203
Mof_C 	C 	0.8643	0.6344	0.0508	0.482
Mof_H 	H 	0.8587	0.6603	0.032	-0.125
Mof_O 	O 	0.3184	0.2052	0.1563	-2.326
Mof_C 	C 	0.7705	0.0532	0.5257	-0.066
Mof_H 	H 	0.7888	0.0344	0.5465	0.029
Mof_C 	C 	0.6279	0.1638	0.374	0.099
Mof_H 	H 	0.5905	0.1631	0.3664	-0.016
Mof_C 	C 	0.9226	0.5069	0.0456	-0.139
Mof_C 	C 	0.9359	0.381	0.8777	0.113
Mof_H 	H 	0.9606	0.3643	0.8598	-0.082
Mof_C 	C 	0.7492	0.9787	0.4825	0.126
Mof_C 	C 	0.742	0.8982	0.51	0.154
Mof_H 	H 	0.7357	0.8774	0.5335	-0.057
Mof_C 	C 	0.8461	0.4135	0.8897	0.107
Mof_H 	H 	0.8102	0.4195	0.8798	-0.001
Mof_C 	C 	0.6482	0.8954	0.1409	-0.338
Mof_C 	C 	0.9346	0.4502	0.9864	-0.052
Mof_C 	C 	0.9743	0.4261	0.0117	-0.009
Mof_H 	H 	0.9916	0.3991	-0	0.026
Mof_C 	C 	0.5612	0.0495	0.9955	-0.082
Mof_C 	C 	0.7536	0.8793	0.4691	-0.271
Mof_C 	C 	0.654	0.0697	0.8959	0.114
Mof_H 	H 	0.6912	0.0647	0.889	-0.05
Mof_C 	C 	0.5842	0.013	0.0208	0.015
Mof_H 	H 	0.6111	0.9933	0.0082	0.02
Mof_C 	C 	0.7453	0.0309	0.4895	-0.024
Mof_C 	C 	0.5807	0.0633	0.9491	0.156
Mof_O 	O 	0.6118	0.1472	0.8052	-0.583
Mof_O 	O 	0.5976	0.2293	0.3042	-0.52
Mof_O 	O 	0.8047	0.685	0.15	-2.128
Mof_O 	O 	0.813	0.2296	0.7034	-0.452
Mof_O 	O 	0.8965	0.2071	0.6934	-0.515
Mof_C 	C 	0.9095	0.4915	0.0034	0.011
Mof_H 	H 	0.8839	0.5085	0.9865	0.022
Mof_O 	O 	0.8	0.7101	0.0815	-0.34
Mof_C 	C 	0.6184	0.0974	0.8669	-0.272
Mof_O 	O 	0.7655	0.8135	0.4229	-0.68
Mof_C 	C 	0.6099	0.9748	0.134	-0.271
Mof_H 	H 	0.6024	0.0046	0.1466	0.104
Mof_O 	O 	0.8091	0.3688	0.8141	-0.311
Mof_C 	C 	0.5203	0.0781	0.0152	0.046
Mof_H 	H 	0.5049	0.1031	0.999	0
Mof_C 	C 	0.8829	0.5572	0.1066	-0.606
Mof_H 	H 	0.8888	0.5313	0.1254	0.133
Mof_C 	C 	0.7434	0.1286	0.4988	-0.073
Mof_H 	H 	0.7427	0.1619	0.5017	0.056
Mof_C 	C 	0.7755	0.1815	0.6312	0.074
Mof_H 	H 	0.7516	0.2014	0.6469	0.025
Mof_O 	O 	0.6985	0.8714	0.2047	-0.582
Mof_C 	C 	0.9884	0.4414	0.0536	-0.087
Mof_C 	C 	0.4594	0.1019	0.0762	0.385
Mof_C 	C 	0.6092	0.9227	0.073	-0.291
Mof_H 	H 	0.6016	0.9168	0.0434	0.137
Mof_C 	C 	0.7902	0.1261	0.5702	0.072
Mof_C 	C 	0.0302	0.4171	0.0795	0.169
Mof_C 	C 	0.7635	0.9106	0.4355	0.185
Mof_H 	H 	0.7727	0.8989	0.4077	-0.049
Mof_C 	C 	0.9183	0.4291	0.9433	0.115
Mof_C 	C 	0.6963	0.1388	0.4249	0.091
Mof_C 	C 	0.8486	0.2069	0.683	0.405
Mof_C 	C 	0.8579	0.3582	0.8256	0.41
Mof_O 	O 	0.7496	0.7981	0.491	-0.304
Mof_C 	C 	0.6452	0.2283	0.3172	0.395
Mof_O 	O 	0.3215	0.2359	0.0919	-0.343
Mof_C 	C 	0.6804	0.8595	0.1673	0.605
Mof_C 	C 	0.6333	0.8874	0.0979	0.229
Mof_H 	H 	0.6397	0.8573	0.0855	-0.057
Mof_C 	C 	0.8512	0.6384	0.095	-0.778
Mof_C 	C 	0.8293	0.1765	0.6445	-0.165
Mof_C 	C 	0.8597	0.6	0.1225	0.571
Mof_H 	H 	0.8499	0.6024	0.1521	-0.662
Mof_C 	C 	0.8208	0.6818	0.1109	0.917
Mof_C 	C 	0.6623	0.195	0.3524	-0.175
Mof_C 	C 	0.7337	0.1686	0.4026	-0.148
Mof_H 	H 	0.7712	0.1679	0.4097	0.087
Mof_C 	C 	0.0659	0.4427	0.1097	-0.273
Mof_H 	H 	0.0624	0.4756	0.1139	0.107
Mof_C 	C 	0.8626	0.1438	0.6221	0.065
Mof_H 	H 	0.8988	0.1386	0.6316	-0.011
Mof_C 	C 	0.7142	0.2002	0.3688	0.086
Mof_H 	H 	0.7372	0.2244	0.3582	0.019
Mof_C 	C 	0.635	0.9393	0.1592	0.197
Mof_H 	H 	0.643	0.9451	0.1887	-0.062
Mof_C 	C 	0.3331	0.2019	0.1181	1.084
Mof_C 	C 	0.7564	0.1575	0.5948	-0.147
Mof_H 	H 	0.7198	0.1621	0.586	0.083
Mof_O 	O 	0.1727	0.3187	0.1463	-0.353
Mof_C 	C 	0.0408	0.3684	0.0738	-0.311
Mof_H 	H 	0.0229	0.352	0.0511	0.128
Mof_C 	C 	0.7561	0.8259	0.4605	0.58
Mof_C 	C 	0.106	0.4163	0.1325	0.214
Mof_H 	H 	0.1306	0.4329	0.1506	-0.089
Mof_C 	C 	0.545	0.085	0.9187	-0.253
Mof_H 	H 	0.5076	0.088	0.9256	0.112
Mof_C 	C 	0.0773	0.3432	0.1009	0.294
Mof_H 	H 	0.079	0.3098	0.0995	-0.1
Mof_C 	C 	0.6309	0.051	0.9343	-0.236
Mof_H 	H 	0.6515	0.0288	0.9504	0.094
Mof_C 	C 	0.5635	0.1016	0.8793	0.168
Mof_H 	H 	0.5385	0.1162	0.8601	-0.057
Mof_C 	C 	0.6466	0.1333	0.4068	-0.176
Mof_H 	H 	0.6238	0.1083	0.4163	0.091
Mof_C 	C 	0.6421	0.1174	0.8262	0.479
Mof_C 	C 	0.3777	0.1658	0.105	-0.809
Mof_C 	C 	0.416	0.1491	0.135	-0.347
Mof_H 	H 	0.4154	0.1598	0.1641	-0.192
Mof_C 	C 	0.4562	0.1158	0.121	0.255
Mof_H 	H 	0.4808	0.1027	0.1413	-0.129
Mof_C 	C 	0.377	0.1486	0.0621	-0.78
Mof_H 	H 	0.3488	0.1574	0.0427	0.309
Mof_C 	C 	0.4191	0.1179	0.0486	0.814
Mof_H 	H 	0.4198	0.1079	0.0194	-0.265
Mof_C 	C 	0.1111	0.3682	0.1298	-0.461
Mof_O 	O 	0.1818	0.385	0.1858	-0.385
Mof_C 	C 	0.1675	0.3619	0.1531	1.089
Mof_H 	H 	0.7168	0.6921	0.2673	13.645
Mof_C 	C 	0.4139	0.0862	0.1026	-1.025
Mof_H 	H 	0.4088	0.0535	0.1077	0.323
Mof_C 	C 	0.378	0.1186	0.1202	1.085
Mof_H 	H 	0.3537	0.1092	0.1424	-0.772
Mof_C 	C 	0.4151	0.1791	0.0724	1.247
Mof_H 	H 	0.4124	0.2094	0.0596	-0.405
Mof_C 	C 	0.4563	0.1478	0.0587	-1.272
Mof_H 	H 	0.482	0.1576	0.0376	0.469
Mof_O 	O 	0.809	0.8578	0.1745	-0.614
Mof_C 	C 	0.8477	0.8361	0.1559	-0.12
Mof_O 	O 	0.8469	0.7912	0.1516	-0.286
Mof_O 	O 	0.822	0.7206	0.0877	-0.375
Mof_O 	O 	0.6974	0.7169	0.0866	-0.486
Mof_H 	H 	0.7808	0.6833	0.2625	13.691
Mof_H 	H 	0.7436	0.6884	0.2203	14.071
Mof_Eu	Eu	0.75636	0.73707	0.86313	3.609
Mof_O 	O 	0.8901	0.17	0.194	-0.575
Mof_O 	O 	0.7597	0.729	0.7854	-11.195
Mof_O 	O 	0.6822	0.2468	0.7021	-0.445
Mof_C 	C 	0.596	0.5334	0.9095	0.182
Mof_O 	O 	0.6845	0.6821	0.849	-0.587
Mof_C 	C 	0.7182	0.3915	0.5382	0
Mof_C 	C 	0.7598	0.5397	0.5577	-0.231
Mof_H 	H 	0.7649	0.519	0.5815	0.103
Mof_O 	O 	0.6881	0.3919	0.1853	-0.42
Mof_C 	C 	0.7189	0.4412	0.5418	-0.067
Mof_H 	H 	0.7013	0.4559	0.5655	0.053
Mof_C 	C 	0.5692	0.4948	0.9375	-0.098
Mof_C 	C 	0.502	0.4292	0.9421	-0.177
Mof_C 	C 	0.769	0.3974	0.4686	-0.001
Mof_C 	C 	0.7395	0.5528	0.4829	-0.214
Mof_H 	H 	0.7314	0.541	0.455	0.051
Mof_C 	C 	0.961	0.0166	0.9297	0.037
Mof_H 	H 	0.9696	0.0053	0.9016	-0.017
Mof_C 	C 	0.5277	0.4668	0.9175	0.046
Mof_H 	H 	0.5171	0.4727	0.8885	-0.014
Mof_C 	C 	0.9555	0.0969	0.0837	-0.209
Mof_H 	H 	0.9927	0.0993	0.076	0.083
Mof_C 	C 	0.8972	0.9459	0.9377	0.355
Mof_C 	C 	0.843	0.3813	0.4143	-0.165
Mof_H 	H 	0.8659	0.4035	0.4283	0.079
Mof_C 	C 	0.8803	0.1162	0.1343	-0.209
Mof_C 	C 	0.8644	0.0659	0.0721	-0.194
Mof_H 	H 	0.8396	0.0476	0.0556	0.099
Mof_C 	C 	0.8864	0.9091	0.9656	-0.498
Mof_H 	H 	0.8936	0.9125	0.9956	0.204
Mof_C 	C 	0.8643	0.8656	0.9492	0.484
Mof_H 	H 	0.8587	0.8397	0.968	-0.126
Mof_O 	O 	0.3184	0.2948	0.8437	-2.326
Mof_C 	C 	0.7705	0.4468	0.4743	-0.065
Mof_H 	H 	0.7888	0.4656	0.4535	0.029
Mof_C 	C 	0.6279	0.3362	0.626	0.099
Mof_H 	H 	0.5905	0.3369	0.6336	-0.016
Mof_C 	C 	0.9226	0.9931	0.9544	-0.149
Mof_C 	C 	0.9359	0.119	0.1223	0.115
Mof_H 	H 	0.9606	0.1357	0.1402	-0.083
Mof_C 	C 	0.7492	0.5213	0.5175	0.128
Mof_C 	C 	0.742	0.6018	0.49	0.155
Mof_H 	H 	0.7357	0.6226	0.4665	-0.058
Mof_C 	C 	0.8461	0.0865	0.1103	0.11
Mof_H 	H 	0.8102	0.0805	0.1202	-0.002
Mof_C 	C 	0.6482	0.6046	0.8591	-0.339
Mof_C 	C 	0.9346	0.0498	0.0136	-0.061
Mof_C 	C 	0.9743	0.0739	0.9883	-0.001
Mof_H 	H 	0.9916	0.1009	-0	0.023
Mof_C 	C 	0.5612	0.4505	0.0045	-0.087
Mof_C 	C 	0.7536	0.6207	0.5309	-0.272
Mof_C 	C 	0.654	0.4303	0.1041	0.115
Mof_H 	H 	0.6912	0.4353	0.111	-0.05
Mof_C 	C 	0.5842	0.487	0.9792	0.02
Mof_H 	H 	0.6111	0.5067	0.9918	0.018
Mof_C 	C 	0.7453	0.4691	0.5105	-0.025
Mof_C 	C 	0.5807	0.4367	0.0509	0.159
Mof_O 	O 	0.6118	0.3528	0.1948	-0.583
Mof_O 	O 	0.5976	0.2707	0.6958	-0.52
Mof_O 	O 	0.8047	0.815	0.85	-2.128
Mof_O 	O 	0.813	0.2704	0.2966	-0.452
Mof_O 	O 	0.8965	0.2929	0.3066	-0.515
Mof_C 	C 	0.9095	0.0085	0.9966	0.024
Mof_H 	H 	0.8839	0.9915	0.0135	0.016
Mof_O 	O 	0.8	0.7899	0.9185	-0.34
Mof_C 	C 	0.6184	0.4026	0.1331	-0.273
Mof_O 	O 	0.7655	0.6865	0.5771	-0.68
Mof_C 	C 	0.6099	0.5252	0.866	-0.272
Mof_H 	H 	0.6024	0.4954	0.8534	0.104
Mof_O 	O 	0.8091	0.1312	0.1859	-0.311
Mof_C 	C 	0.5203	0.4219	0.9848	0.052
Mof_H 	H 	0.5049	0.3969	0.001	-0.003
Mof_C 	C 	0.8829	0.9428	0.8934	-0.61
Mof_H 	H 	0.8888	0.9687	0.8746	0.134
Mof_C 	C 	0.7434	0.3714	0.5012	-0.072
Mof_H 	H 	0.7427	0.3381	0.4983	0.056
Mof_C 	C 	0.7755	0.3185	0.3688	0.075
Mof_H 	H 	0.7516	0.2986	0.3531	0.024
Mof_O 	O 	0.6985	0.6286	0.7953	-0.582
Mof_C 	C 	0.9884	0.0586	0.9464	-0.091
Mof_C 	C 	0.4594	0.3981	0.9238	0.387
Mof_C 	C 	0.6092	0.5773	0.927	-0.292
Mof_H 	H 	0.6016	0.5832	0.9566	0.137
Mof_C 	C 	0.7902	0.3739	0.4298	0.072
Mof_C 	C 	0.0302	0.0829	0.9205	0.17
Mof_C 	C 	0.7635	0.5894	0.5645	0.186
Mof_H 	H 	0.7727	0.6011	0.5923	-0.049
Mof_C 	C 	0.9183	0.0709	0.0567	0.119
Mof_C 	C 	0.6963	0.3612	0.5751	0.092
Mof_C 	C 	0.8486	0.2931	0.317	0.405
Mof_C 	C 	0.8579	0.1418	0.1744	0.411
Mof_O 	O 	0.7496	0.7019	0.509	-0.304
Mof_C 	C 	0.6452	0.2717	0.6828	0.395
Mof_O 	O 	0.3215	0.2641	0.9081	-0.343
Mof_C 	C 	0.6804	0.6405	0.8327	0.605
Mof_C 	C 	0.6333	0.6126	0.9021	0.23
Mof_H 	H 	0.6397	0.6427	0.9145	-0.058
Mof_C 	C 	0.8512	0.8616	0.905	-0.779
Mof_C 	C 	0.8293	0.3235	0.3555	-0.165
Mof_C 	C 	0.8597	0.9	0.8775	0.573
Mof_H 	H 	0.8499	0.8976	0.8479	-0.663
Mof_C 	C 	0.8208	0.8182	0.8891	0.918
Mof_C 	C 	0.6623	0.305	0.6476	-0.175
Mof_C 	C 	0.7337	0.3314	0.5974	-0.148
Mof_H 	H 	0.7712	0.3321	0.5903	0.087
Mof_C 	C 	0.0659	0.0573	0.8903	-0.274
Mof_H 	H 	0.0624	0.0244	0.8861	0.107
Mof_C 	C 	0.8626	0.3562	0.3779	0.065
Mof_H 	H 	0.8988	0.3614	0.3684	-0.012
Mof_C 	C 	0.7142	0.2998	0.6312	0.086
Mof_H 	H 	0.7372	0.2756	0.6418	0.019
Mof_C 	C 	0.635	0.5607	0.8408	0.198
Mof_H 	H 	0.643	0.5549	0.8113	-0.062
Mof_C 	C 	0.3331	0.2981	0.8819	1.084
Mof_C 	C 	0.7564	0.3425	0.4052	-0.147
Mof_H 	H 	0.7198	0.3379	0.414	0.083
Mof_O 	O 	0.1727	0.1813	0.8537	-0.353
Mof_C 	C 	0.0408	0.1316	0.9262	-0.312
Mof_H 	H 	0.0229	0.148	0.9489	0.128
Mof_C 	C 	0.7561	0.6741	0.5395	0.58
Mof_C 	C 	0.106	0.0837	0.8675	0.214
Mof_H 	H 	0.1306	0.0671	0.8494	-0.09
Mof_C 	C 	0.545	0.415	0.0813	-0.254
Mof_H 	H 	0.5076	0.412	0.0744	0.113
Mof_C 	C 	0.0773	0.1568	0.8991	0.295
Mof_H 	H 	0.079	0.1902	0.9005	-0.101
Mof_C 	C 	0.6309	0.449	0.0657	-0.238
Mof_H 	H 	0.6515	0.4712	0.0496	0.095
Mof_C 	C 	0.5635	0.3984	0.1207	0.17
Mof_H 	H 	0.5385	0.3838	0.1399	-0.058
Mof_C 	C 	0.6466	0.3667	0.5932	-0.176
Mof_H 	H 	0.6238	0.3917	0.5837	0.091
Mof_C 	C 	0.6421	0.3826	0.1738	0.479
Mof_C 	C 	0.3777	0.3342	0.895	-0.81
Mof_C 	C 	0.416	0.3509	0.865	-0.347
Mof_H 	H 	0.4154	0.3402	0.8359	-0.192
Mof_C 	C 	0.4562	0.3842	0.879	0.255
Mof_H 	H 	0.4808	0.3973	0.8587	-0.129
Mof_C 	C 	0.377	0.3514	0.9379	-0.779
Mof_H 	H 	0.3488	0.3426	0.9573	0.31
Mof_C 	C 	0.4191	0.3821	0.9514	0.813
Mof_H 	H 	0.4198	0.3921	0.9806	-0.264
Mof_C 	C 	0.1111	0.1318	0.8702	-0.462
Mof_O 	O 	0.1818	0.115	0.8142	-0.385
Mof_C 	C 	0.1675	0.1381	0.8469	1.089
Mof_H 	H 	0.7168	0.8079	0.7327	13.643
Mof_C 	C 	0.4139	0.4138	0.8974	-1.026
Mof_H 	H 	0.4088	0.4465	0.8923	0.324
Mof_C 	C 	0.378	0.3814	0.8798	1.086
Mof_H 	H 	0.3537	0.3908	0.8576	-0.772
Mof_C 	C 	0.4151	0.3209	0.9276	1.248
Mof_H 	H 	0.4124	0.2906	0.9404	-0.405
Mof_C 	C 	0.4563	0.3522	0.9413	-1.273
Mof_H 	H 	0.482	0.3424	0.9624	0.47
Mof_O 	O 	0.809	0.6422	0.8255	-0.614
Mof_C 	C 	0.8477	0.6639	0.8441	-0.12
Mof_O 	O 	0.8469	0.7088	0.8484	-0.286
Mof_O 	O 	0.822	0.7794	0.9123	-0.375
Mof_O 	O 	0.6974	0.7831	0.9134	-0.486
Mof_H 	H 	0.7808	0.8167	0.7375	13.689
Mof_H 	H 	0.7436	0.8116	0.7797	14.069
Mof_Eu	Eu	0.24364	0.26293	0.36313	3.609
Mof_O 	O 	0.1099	0.83	0.694	-0.575
Mof_O 	O 	0.2403	0.271	0.2854	-11.195
Mof_O 	O 	0.3178	0.7532	0.2021	-0.445
Mof_C 	C 	0.404	0.4666	0.4095	0.182
Mof_O 	O 	0.3155	0.3179	0.349	-0.587
Mof_C 	C 	0.2818	0.6085	0.0382	0.001
Mof_C 	C 	0.2402	0.4603	0.0577	-0.231
Mof_H 	H 	0.2351	0.481	0.0815	0.103
Mof_O 	O 	0.3119	0.6081	0.6853	-0.42
Mof_C 	C 	0.2811	0.5588	0.0418	-0.067
Mof_H 	H 	0.2987	0.5441	0.0655	0.054
Mof_C 	C 	0.4308	0.5052	0.4375	-0.096
Mof_C 	C 	0.498	0.5708	0.4421	-0.175
Mof_C 	C 	0.231	0.6026	0.9686	-0
Mof_C 	C 	0.2605	0.4472	0.9829	-0.213
Mof_H 	H 	0.2686	0.459	0.955	0.051
Mof_C 	C 	0.039	0.9834	0.4297	0.035
Mof_H 	H 	0.0304	0.9947	0.4016	-0.017
Mof_C 	C 	0.4723	0.5332	0.4175	0.045
Mof_H 	H 	0.4829	0.5273	0.3885	-0.014
Mof_C 	C 	0.0445	0.9031	0.5837	-0.208
Mof_H 	H 	0.0073	0.9007	0.576	0.083
Mof_C 	C 	0.1028	0.0541	0.4377	0.354
Mof_C 	C 	0.157	0.6187	0.9143	-0.165
Mof_H 	H 	0.1341	0.5965	0.9283	0.079
Mof_C 	C 	0.1197	0.8838	0.6343	-0.208
Mof_C 	C 	0.1356	0.9341	0.5721	-0.192
Mof_H 	H 	0.1604	0.9524	0.5556	0.099
Mof_C 	C 	0.1136	0.0909	0.4656	-0.498
Mof_H 	H 	0.1064	0.0875	0.4956	0.204
Mof_C 	C 	0.1357	0.1344	0.4492	0.484
Mof_H 	H 	0.1413	0.1603	0.468	-0.126
Mof_O 	O 	0.6816	0.7052	0.3437	-2.326
Mof_C 	C 	0.2295	0.5532	0.9743	-0.065
Mof_H 	H 	0.2112	0.5344	0.9535	0.029
Mof_C 	C 	0.3721	0.6638	0.126	0.098
Mof_H 	H 	0.4095	0.6631	0.1336	-0.016
Mof_C 	C 	0.0774	0.0069	0.4544	-0.147
Mof_C 	C 	0.0641	0.881	0.6223	0.114
Mof_H 	H 	0.0394	0.8643	0.6402	-0.083
Mof_C 	C 	0.2508	0.4787	0.0175	0.128
Mof_C 	C 	0.258	0.3982	0.99	0.155
Mof_H 	H 	0.2643	0.3774	0.9665	-0.058
Mof_C 	C 	0.1539	0.9135	0.6103	0.109
Mof_H 	H 	0.1898	0.9195	0.6202	-0.001
Mof_C 	C 	0.3518	0.3954	0.3591	-0.339
Mof_C 	C 	0.0654	0.9502	0.5136	-0.057
Mof_C 	C 	0.0257	0.9261	0.4883	-0.005
Mof_H 	H 	0.0084	0.8991	0.5	0.025
Mof_C 	C 	0.4388	0.5495	0.5045	-0.084
Mof_C 	C 	0.2464	0.3793	0.0309	-0.273
Mof_C 	C 	0.346	0.5697	0.6041	0.114
Mof_H 	H 	0.3088	0.5647	0.611	-0.05
Mof_C 	C 	0.4158	0.513	0.4792	0.018
Mof_H 	H 	0.3889	0.4933	0.4918	0.019
Mof_C 	C 	0.2547	0.5309	0.0105	-0.026
Mof_C 	C 	0.4193	0.5633	0.5509	0.158
Mof_O 	O 	0.3882	0.6472	0.6948	-0.583
Mof_O 	O 	0.4024	0.7293	0.1958	-0.52
Mof_O 	O 	0.1953	0.185	0.35	-2.128
Mof_O 	O 	0.187	0.7296	0.7966	-0.452
Mof_O 	O 	0.1035	0.7071	0.8066	-0.515
Mof_C 	C 	0.0905	0.9915	0.4966	0.021
Mof_H 	H 	0.1161	0.0085	0.5135	0.018
Mof_O 	O 	0.2	0.2101	0.4185	-0.34
Mof_C 	C 	0.3816	0.5974	0.6331	-0.273
Mof_O 	O 	0.2345	0.3135	0.0771	-0.68
Mof_C 	C 	0.3901	0.4748	0.366	-0.271
Mof_H 	H 	0.3976	0.5046	0.3534	0.104
Mof_O 	O 	0.1909	0.8688	0.6859	-0.311
Mof_C 	C 	0.4797	0.5781	0.4848	0.05
Mof_H 	H 	0.4951	0.6031	0.501	-0.001
Mof_C 	C 	0.1171	0.0572	0.3934	-0.609
Mof_H 	H 	0.1112	0.0313	0.3746	0.134
Mof_C 	C 	0.2566	0.6286	0.0012	-0.074
Mof_H 	H 	0.2573	0.6619	0.9983	0.056
Mof_C 	C 	0.2245	0.6815	0.8688	0.074
Mof_H 	H 	0.2484	0.7014	0.8531	0.025
Mof_O 	O 	0.3015	0.3714	0.2953	-0.582
Mof_C 	C 	0.0116	0.9414	0.4464	-0.089
Mof_C 	C 	0.5406	0.6019	0.4238	0.386
Mof_C 	C 	0.3908	0.4227	0.427	-0.291
Mof_H 	H 	0.3984	0.4168	0.4566	0.137
Mof_C 	C 	0.2098	0.6261	0.9298	0.072
Mof_C 	C 	0.9698	0.9171	0.4205	0.169
Mof_C 	C 	0.2365	0.4106	0.0645	0.186
Mof_H 	H 	0.2273	0.3989	0.0923	-0.049
Mof_C 	C 	0.0817	0.9291	0.5567	0.117
Mof_C 	C 	0.3037	0.6388	0.0751	0.091
Mof_C 	C 	0.1514	0.7069	0.817	0.405
Mof_C 	C 	0.1421	0.8582	0.6744	0.411
Mof_O 	O 	0.2504	0.2981	0.009	-0.305
Mof_C 	C 	0.3548	0.7283	0.1828	0.395
Mof_O 	O 	0.6785	0.7359	0.4081	-0.343
Mof_C 	C 	0.3196	0.3595	0.3327	0.605
Mof_C 	C 	0.3667	0.3874	0.4021	0.229
Mof_H 	H 	0.3603	0.3573	0.4145	-0.057
Mof_C 	C 	0.1488	0.1384	0.405	-0.779
Mof_C 	C 	0.1707	0.6765	0.8555	-0.165
Mof_C 	C 	0.1403	0.1	0.3775	0.573
Mof_H 	H 	0.1501	0.1024	0.3479	-0.663
Mof_C 	C 	0.1792	0.1818	0.3891	0.918
Mof_C 	C 	0.3377	0.695	0.1476	-0.175
Mof_C 	C 	0.2663	0.6686	0.0974	-0.148
Mof_H 	H 	0.2288	0.6679	0.0903	0.086
Mof_C 	C 	0.9341	0.9427	0.3903	-0.273
Mof_H 	H 	0.9376	0.9756	0.3861	0.106
Mof_C 	C 	0.1374	0.6438	0.8779	0.065
Mof_H 	H 	0.1012	0.6386	0.8684	-0.011
Mof_C 	C 	0.2858	0.7002	0.1312	0.086
Mof_H 	H 	0.2628	0.7244	0.1418	0.019
Mof_C 	C 	0.365	0.4393	0.3408	0.198
Mof_H 	H 	0.357	0.4451	0.3113	-0.062
Mof_C 	C 	0.6669	0.7019	0.3819	1.084
Mof_C 	C 	0.2436	0.6575	0.9052	-0.147
Mof_H 	H 	0.2802	0.6621	0.914	0.083
Mof_O 	O 	0.8273	0.8187	0.3537	-0.353
Mof_C 	C 	0.9592	0.8684	0.4262	-0.312
Mof_H 	H 	0.9771	0.852	0.4489	0.128
Mof_C 	C 	0.2439	0.3259	0.0395	0.58
Mof_C 	C 	0.894	0.9163	0.3675	0.214
Mof_H 	H 	0.8694	0.9329	0.3494	-0.089
Mof_C 	C 	0.455	0.585	0.5813	-0.253
Mof_H 	H 	0.4924	0.588	0.5744	0.112
Mof_C 	C 	0.9227	0.8432	0.3991	0.294
Mof_H 	H 	0.921	0.8098	0.4005	-0.1
Mof_C 	C 	0.3691	0.551	0.5657	-0.237
Mof_H 	H 	0.3485	0.5288	0.5496	0.095
Mof_C 	C 	0.4365	0.6016	0.6207	0.169
Mof_H 	H 	0.4615	0.6162	0.6399	-0.058
Mof_C 	C 	0.3534	0.6333	0.0932	-0.176
Mof_H 	H 	0.3762	0.6083	0.0837	0.091
Mof_C 	C 	0.3579	0.6174	0.6738	0.479
Mof_C 	C 	0.6223	0.6658	0.395	-0.81
Mof_C 	C 	0.584	0.6491	0.365	-0.347
Mof_H 	H 	0.5846	0.6598	0.3359	-0.192
Mof_C 	C 	0.5438	0.6158	0.379	0.255
Mof_H 	H 	0.5192	0.6027	0.3587	-0.129
Mof_C 	C 	0.623	0.6486	0.4379	-0.779
Mof_H 	H 	0.6512	0.6574	0.4573	0.31
Mof_C 	C 	0.5809	0.6179	0.4514	0.813
Mof_H 	H 	0.5802	0.6079	0.4806	-0.264
Mof_C 	C 	0.8889	0.8682	0.3702	-0.461
Mof_O 	O 	0.8182	0.885	0.3142	-0.385
Mof_C 	C 	0.8325	0.8619	0.3469	1.089
Mof_H 	H 	0.2832	0.1921	0.2327	13.643
Mof_C 	C 	0.5861	0.5862	0.3974	-1.026
Mof_H 	H 	0.5912	0.5535	0.3923	0.324
Mof_C 	C 	0.622	0.6186	0.3798	1.086
Mof_H 	H 	0.6463	0.6092	0.3576	-0.772
Mof_C 	C 	0.5849	0.6791	0.4276	1.248
Mof_H 	H 	0.5876	0.7094	0.4404	-0.405
Mof_C 	C 	0.5437	0.6478	0.4413	-1.273
Mof_H 	H 	0.518	0.6576	0.4624	0.47
Mof_O 	O 	0.191	0.3578	0.3255	-0.614
Mof_C 	C 	0.1523	0.3361	0.3441	-0.12
Mof_O 	O 	0.1531	0.2912	0.3484	-0.286
Mof_O 	O 	0.178	0.2206	0.4123	-0.375
Mof_O 	O 	0.3026	0.2169	0.4134	-0.486
Mof_H 	H 	0.2192	0.1833	0.2375	13.689
Mof_H 	H 	0.2564	0.1884	0.2797	14.069
Mof_Eu	Eu	0.87839	0.27268	0.75	1.833
Mof_Eu	Eu	0.12161	0.72732	0.25	1.833
Mof_Eu	Eu	0.12161	0.77268	0.75	1.833
Mof_Eu	Eu	0.87839	0.22732	0.25	1.833
Mof_Eu	Eu	0.77383	0.85184	0.25	2.823
Mof_C 	C 	0.7492	0.6993	0.25	-85.586
Mof_C 	C 	0.758	0.7473	0.25	34.48
Mof_Eu	Eu	0.22617	0.14816	0.75	2.823
Mof_C 	C 	0.2508	0.3007	0.75	-85.587
Mof_C 	C 	0.242	0.2527	0.75	34.48
Mof_Eu	Eu	0.22617	0.35184	0.25	2.824
Mof_C 	C 	0.2508	0.1993	0.25	-85.57
Mof_C 	C 	0.242	0.2473	0.25	34.474
Mof_Eu	Eu	0.77383	0.64816	0.75	2.824
Mof_C 	C 	0.7492	0.8007	0.75	-85.572
Mof_C 	C 	0.758	0.7527	0.75	34.474
Mof_Eu	Eu	0.61793	0.29552	0.25	1.949
Mof_Eu	Eu	0.38207	0.70448	0.75	1.949
Mof_Eu	Eu	0.38207	0.79552	0.25	1.949
Mof_Eu	Eu	0.61793	0.20448	0.75	1.949
_end
