data_functionalizedCrystal
_audit_creation_method	'EQeq! by Chris Wilmer'
_symmetry_space_group_name_H-M	'P1'
_symmetry_Int_Tables_number	1
_symmetry_cell_setting	triclinic
loop_
_symmetry_equiv_pos_as_xyz
  x,y,z
_cell_length_a	27.581
_cell_length_b	27.581
_cell_length_c	43.468
_cell_angle_alpha	90
_cell_angle_beta	90
_cell_angle_gamma	90
loop_
_atom_site_label
_atom_site_type_symbol
_atom_site_fract_x
_atom_site_fract_y
_atom_site_fract_z
_atom_site_charge
Mof_C 	C 	0.2214	0.2397	0.27654	0.264
Mof_C 	C 	0.2002	0.2589	0.25041	-0.242
Mof_C 	C 	0.1615	0.2354	0.2367	0.118
Mof_H 	H 	0.1469	0.2486	0.2188	-0.037
Mof_C 	C 	0.144	0.1926	0.2491	-0.175
Mof_H 	H 	0.1175	0.1764	0.2397	0.076
Mof_C 	C 	0.1653	0.1733	0.2752	0.093
Mof_H 	H 	0.1533	0.144	0.2837	-0.015
Mof_C 	C 	0.204	0.1969	0.289	-0.188
Mof_C 	C 	0.2273	0.1681	0.3175	0.331
Mof_H 	H 	0.2562	0.1883	0.3229	-0.047
Mof_C 	C 	0.2046	0.1566	0.3492	-0.632
Mof_H 	H 	0.2288	0.1404	0.3622	0.183
Mof_H 	H 	0.1766	0.1352	0.3464	0.202
Mof_H 	H 	0.1942	0.1868	0.359	0.211
Mof_C 	C 	0.2499	0.1236	0.302	-0.634
Mof_H 	H 	0.2682	0.1049	0.3173	0.196
Mof_H 	H 	0.2718	0.1342	0.2855	0.209
Mof_H 	H 	0.2242	0.1033	0.2933	0.201
Mof_C 	C 	0.221	0.3049	0.2368	0.429
Mof_H 	H 	0.2543	0.3131	0.2443	-0.084
Mof_C 	C 	0.184	0.3439	0.2423	-0.718
Mof_H 	H 	0.1778	0.3468	0.2644	0.229
Mof_H 	H 	0.1538	0.3355	0.2317	0.221
Mof_H 	H 	0.1962	0.3748	0.2344	0.222
Mof_C 	C 	0.2175	0.2992	0.2017	-0.685
Mof_H 	H 	0.2412	0.2751	0.1947	0.214
Mof_H 	H 	0.2242	0.3304	0.1918	0.211
Mof_H 	H 	0.1848	0.2884	0.1962	0.213
Mof_C 	C 	0.3857	0.49377	0.40065	0.321
Mof_C 	C 	0.3718	0.5374	0.38898	-0.274
Mof_C 	C 	0.3724	0.5775	0.40712	0.175
Mof_H 	H 	0.3627	0.6079	0.399	-0.054
Mof_C 	C 	0.3869	0.5741	0.43694	-0.263
Mof_H 	H 	0.3874	0.6021	0.4496	0.091
Mof_C 	C 	0.4009	0.5305	0.44862	0.186
Mof_H 	H 	0.411	0.5281	0.4694	-0.062
Mof_C 	C 	0.4003	0.49035	0.43047	-0.299
Mof_C 	C 	0.4158	0.4414	0.4427	0.422
Mof_H 	H 	0.4083	0.4154	0.4274	-0.076
Mof_C 	C 	0.3943	0.4288	0.4741	-0.654
Mof_H 	H 	0.3589	0.4285	0.4726	0.205
Mof_H 	H 	0.4045	0.4531	0.4892	0.201
Mof_H 	H 	0.4059	0.3967	0.4805	0.198
Mof_C 	C 	0.467	0.4363	0.4542	-0.679
Mof_H 	H 	0.4723	0.403	0.4612	0.211
Mof_H 	H 	0.4723	0.4588	0.4713	0.201
Mof_H 	H 	0.4897	0.4438	0.4375	0.219
Mof_C 	C 	0.4316	0.2209	0.4125	0.046
Mof_H 	H 	0.4324	0.1963	0.3973	0.021
Mof_C 	C 	0.461	0.2169	0.4377	-0.102
Mof_H 	H 	0.4836	0.191	0.4394	0.054
Mof_C 	C 	0.4571	0.2524	0.46139	0.026
Mof_C 	C 	0.489	0.2477	0.48963	0.055
Mof_C 	C 	0.4251	0.2887	0.45782	-0.094
Mof_H 	H 	0.4213	0.3122	0.4736	0.041
Mof_C 	C 	0.3977	0.2916	0.4312	0.039
Mof_H 	H 	0.3755	0.3177	0.4286	0.005
Mof_C 	C 	0.5064	0.2686	0.54157	0.06
Mof_H 	H 	0.497	0.2855	0.5597	-0.003
Mof_C 	C 	0.4757	0.2685	0.5167	-0.135
Mof_H 	H 	0.4447	0.2833	0.5184	0.061
Mof_C 	C 	0.5317	0.2234	0.4888	-0.13
Mof_H 	H 	0.5414	0.2064	0.4708	0.063
Mof_C 	C 	0.5616	0.2237	0.51506	0.052
Mof_H 	H 	0.592	0.2076	0.5142	0.005
Mof_N 	N 	0.4022	0.2584	0.40904	-0.065
Mof_N 	N 	0.5486	0.2459	0.54115	-0.241
Mof_O 	O 	0.385	0.4533	0.382	-0.277
Mof_O 	O 	0.35572	0.36703	0.38072	-0.481
Mof_O 	O 	0.3163	0.4293	0.34766	-0.503
Mof_O 	O 	0.3047	0.4327	0.40489	-0.523
Mof_O 	O 	0.2629	0.2601	0.28883	-0.266
Mof_O 	O 	0.3013	0.28113	0.33846	-0.492
Mof_O 	O 	0.2632	0.34626	0.30674	-0.502
Mof_O 	O 	0.2105	0.285	0.33312	-0.505
Mof_O 	O 	0.3764	0.2635	0.38316	-0.283
Mof_P 	P 	0.33592	0.41791	0.37871	0.511
Mof_P 	P 	0.25889	0.29618	0.31924	0.505
Mof_Zn	Zn	0.31648	0.30863	0.37807	1.188
Mof_Zn	Zn	0.25624	0.40563	0.33049	1.183
Mof_C 	C 	0.3565	0.5428	0.3555	0.387
Mof_H 	H 	0.3591	0.5107	0.345	-0.061
Mof_C 	C 	0.3031	0.5588	0.356	-0.675
Mof_H 	H 	0.2915	0.5628	0.3348	0.209
Mof_H 	H 	0.3002	0.5897	0.3669	0.208
Mof_H 	H 	0.2836	0.5341	0.3664	0.209
Mof_C 	C 	0.3931	0.5791	0.3404	-0.675
Mof_H 	H 	0.4262	0.5668	0.343	0.223
Mof_H 	H 	0.3903	0.6108	0.3505	0.213
Mof_H 	H 	0.3857	0.5824	0.3185	0.214
Mof_C 	C 	0.7214	0.7397	0.77654	0.264
Mof_C 	C 	0.7002	0.7589	0.75041	-0.242
Mof_C 	C 	0.6615	0.7354	0.7367	0.118
Mof_H 	H 	0.6469	0.7486	0.7188	-0.037
Mof_C 	C 	0.644	0.6926	0.7491	-0.175
Mof_H 	H 	0.6175	0.6764	0.7397	0.076
Mof_C 	C 	0.6653	0.6733	0.7752	0.093
Mof_H 	H 	0.6533	0.644	0.7837	-0.015
Mof_C 	C 	0.704	0.6969	0.789	-0.188
Mof_C 	C 	0.7273	0.6681	0.8175	0.331
Mof_H 	H 	0.7562	0.6883	0.8229	-0.047
Mof_C 	C 	0.7046	0.6566	0.8492	-0.632
Mof_H 	H 	0.7288	0.6404	0.8622	0.183
Mof_H 	H 	0.6766	0.6352	0.8464	0.202
Mof_H 	H 	0.6942	0.6868	0.859	0.211
Mof_C 	C 	0.7499	0.6236	0.802	-0.634
Mof_H 	H 	0.7682	0.6049	0.8173	0.196
Mof_H 	H 	0.7718	0.6342	0.7855	0.209
Mof_H 	H 	0.7242	0.6033	0.7933	0.201
Mof_C 	C 	0.721	0.8049	0.7368	0.429
Mof_H 	H 	0.7543	0.8131	0.7443	-0.084
Mof_C 	C 	0.684	0.8439	0.7423	-0.718
Mof_H 	H 	0.6778	0.8468	0.7644	0.229
Mof_H 	H 	0.6538	0.8355	0.7317	0.221
Mof_H 	H 	0.6962	0.8748	0.7344	0.222
Mof_C 	C 	0.7175	0.7992	0.7017	-0.685
Mof_H 	H 	0.7412	0.7751	0.6947	0.214
Mof_H 	H 	0.7242	0.8304	0.6918	0.211
Mof_H 	H 	0.6848	0.7884	0.6962	0.213
Mof_C 	C 	0.8857	0.99377	0.90065	0.321
Mof_C 	C 	0.8718	0.0374	0.88898	-0.274
Mof_C 	C 	0.8724	0.0775	0.90712	0.175
Mof_H 	H 	0.8627	0.1079	0.899	-0.054
Mof_C 	C 	0.8869	0.0741	0.93694	-0.263
Mof_H 	H 	0.8874	0.1021	0.9496	0.091
Mof_C 	C 	0.9009	0.0305	0.94862	0.186
Mof_H 	H 	0.911	0.0281	0.9694	-0.062
Mof_C 	C 	0.9003	0.99035	0.93047	-0.299
Mof_C 	C 	0.9158	0.9414	0.9427	0.422
Mof_H 	H 	0.9083	0.9154	0.9274	-0.076
Mof_C 	C 	0.8943	0.9288	0.9741	-0.654
Mof_H 	H 	0.8589	0.9285	0.9726	0.205
Mof_H 	H 	0.9045	0.9531	0.9892	0.201
Mof_H 	H 	0.9059	0.8967	0.9805	0.198
Mof_C 	C 	0.967	0.9363	0.9542	-0.679
Mof_H 	H 	0.9723	0.903	0.9612	0.211
Mof_H 	H 	0.9723	0.9588	0.9713	0.201
Mof_H 	H 	0.9897	0.9438	0.9375	0.219
Mof_C 	C 	0.9316	0.7209	0.9125	0.046
Mof_H 	H 	0.9324	0.6963	0.8973	0.021
Mof_C 	C 	0.961	0.7169	0.9377	-0.102
Mof_H 	H 	0.9836	0.691	0.9394	0.054
Mof_C 	C 	0.9571	0.7524	0.96139	0.026
Mof_C 	C 	0.989	0.7477	0.98963	0.055
Mof_C 	C 	0.9251	0.7887	0.95782	-0.094
Mof_H 	H 	0.9213	0.8122	0.9736	0.041
Mof_C 	C 	0.8977	0.7916	0.9312	0.039
Mof_H 	H 	0.8755	0.8177	0.9286	0.005
Mof_C 	C 	0.0064	0.7686	0.04157	0.06
Mof_H 	H 	0.997	0.7855	0.0597	-0.003
Mof_C 	C 	0.9757	0.7685	0.0167	-0.135
Mof_H 	H 	0.9447	0.7833	0.0184	0.061
Mof_C 	C 	0.0317	0.7234	0.9888	-0.13
Mof_H 	H 	0.0414	0.7064	0.9708	0.063
Mof_C 	C 	0.0616	0.7237	0.01506	0.052
Mof_H 	H 	0.092	0.7076	0.0142	0.005
Mof_N 	N 	0.9022	0.7584	0.90904	-0.065
Mof_N 	N 	0.0486	0.7459	0.04115	-0.241
Mof_O 	O 	0.885	0.9533	0.882	-0.277
Mof_O 	O 	0.85572	0.86703	0.88072	-0.481
Mof_O 	O 	0.8163	0.9293	0.84766	-0.503
Mof_O 	O 	0.8047	0.9327	0.90489	-0.523
Mof_O 	O 	0.7629	0.7601	0.78883	-0.266
Mof_O 	O 	0.8013	0.78113	0.83846	-0.492
Mof_O 	O 	0.7632	0.84626	0.80674	-0.502
Mof_O 	O 	0.7105	0.785	0.83312	-0.505
Mof_O 	O 	0.8764	0.7635	0.88316	-0.283
Mof_P 	P 	0.83592	0.91791	0.87871	0.511
Mof_P 	P 	0.75889	0.79618	0.81924	0.505
Mof_Zn	Zn	0.81648	0.80863	0.87807	1.188
Mof_Zn	Zn	0.75624	0.90563	0.83049	1.183
Mof_C 	C 	0.8565	0.0428	0.8555	0.387
Mof_H 	H 	0.8591	0.0107	0.845	-0.061
Mof_C 	C 	0.8031	0.0588	0.856	-0.675
Mof_H 	H 	0.7915	0.0628	0.8348	0.209
Mof_H 	H 	0.8002	0.0897	0.8669	0.208
Mof_H 	H 	0.7836	0.0341	0.8664	0.209
Mof_C 	C 	0.8931	0.0791	0.8404	-0.675
Mof_H 	H 	0.9262	0.0668	0.843	0.223
Mof_H 	H 	0.8903	0.1108	0.8505	0.213
Mof_H 	H 	0.8857	0.0824	0.8185	0.214
Mof_C 	C 	0.7786	0.7603	0.27654	0.264
Mof_C 	C 	0.7998	0.7411	0.25041	-0.242
Mof_C 	C 	0.8385	0.7646	0.2367	0.118
Mof_H 	H 	0.8531	0.7514	0.2188	-0.037
Mof_C 	C 	0.856	0.8074	0.2491	-0.175
Mof_H 	H 	0.8825	0.8236	0.2397	0.076
Mof_C 	C 	0.8347	0.8267	0.2752	0.093
Mof_H 	H 	0.8467	0.856	0.2837	-0.015
Mof_C 	C 	0.796	0.8031	0.289	-0.188
Mof_C 	C 	0.7727	0.8319	0.3175	0.331
Mof_H 	H 	0.7438	0.8117	0.3229	-0.047
Mof_C 	C 	0.7954	0.8434	0.3492	-0.632
Mof_H 	H 	0.7712	0.8596	0.3622	0.183
Mof_H 	H 	0.8234	0.8648	0.3464	0.202
Mof_H 	H 	0.8058	0.8132	0.359	0.211
Mof_C 	C 	0.7501	0.8764	0.302	-0.634
Mof_H 	H 	0.7318	0.8951	0.3173	0.196
Mof_H 	H 	0.7282	0.8658	0.2855	0.209
Mof_H 	H 	0.7758	0.8967	0.2933	0.201
Mof_C 	C 	0.779	0.6951	0.2368	0.429
Mof_H 	H 	0.7457	0.6869	0.2443	-0.084
Mof_C 	C 	0.816	0.6561	0.2423	-0.718
Mof_H 	H 	0.8222	0.6532	0.2644	0.229
Mof_H 	H 	0.8462	0.6645	0.2317	0.221
Mof_H 	H 	0.8038	0.6252	0.2344	0.222
Mof_C 	C 	0.7825	0.7008	0.2017	-0.685
Mof_H 	H 	0.7588	0.7249	0.1947	0.214
Mof_H 	H 	0.7758	0.6696	0.1918	0.211
Mof_H 	H 	0.8152	0.7116	0.1962	0.213
Mof_C 	C 	0.6143	0.50623	0.40065	0.321
Mof_C 	C 	0.6282	0.4626	0.38898	-0.274
Mof_C 	C 	0.6276	0.4225	0.40712	0.175
Mof_H 	H 	0.6373	0.3921	0.399	-0.054
Mof_C 	C 	0.6131	0.4259	0.43694	-0.263
Mof_H 	H 	0.6126	0.3979	0.4496	0.091
Mof_C 	C 	0.5991	0.4695	0.44862	0.186
Mof_H 	H 	0.589	0.4719	0.4694	-0.062
Mof_C 	C 	0.5997	0.50965	0.43047	-0.299
Mof_C 	C 	0.5842	0.5586	0.4427	0.422
Mof_H 	H 	0.5917	0.5846	0.4274	-0.076
Mof_C 	C 	0.6057	0.5712	0.4741	-0.654
Mof_H 	H 	0.6411	0.5715	0.4726	0.205
Mof_H 	H 	0.5955	0.5469	0.4892	0.201
Mof_H 	H 	0.5941	0.6033	0.4805	0.198
Mof_C 	C 	0.533	0.5637	0.4542	-0.679
Mof_H 	H 	0.5277	0.597	0.4612	0.211
Mof_H 	H 	0.5277	0.5412	0.4713	0.201
Mof_H 	H 	0.5103	0.5562	0.4375	0.219
Mof_C 	C 	0.5684	0.7791	0.4125	0.046
Mof_H 	H 	0.5676	0.8037	0.3973	0.021
Mof_C 	C 	0.539	0.7831	0.4377	-0.102
Mof_H 	H 	0.5164	0.809	0.4394	0.054
Mof_C 	C 	0.5429	0.7476	0.46139	0.026
Mof_C 	C 	0.511	0.7523	0.48963	0.055
Mof_C 	C 	0.5749	0.7113	0.45782	-0.094
Mof_H 	H 	0.5787	0.6878	0.4736	0.041
Mof_C 	C 	0.6023	0.7084	0.4312	0.039
Mof_H 	H 	0.6245	0.6823	0.4286	0.005
Mof_C 	C 	0.4936	0.7314	0.54157	0.06
Mof_H 	H 	0.503	0.7145	0.5597	-0.003
Mof_C 	C 	0.5243	0.7315	0.5167	-0.135
Mof_H 	H 	0.5553	0.7167	0.5184	0.061
Mof_C 	C 	0.4683	0.7766	0.4888	-0.13
Mof_H 	H 	0.4586	0.7936	0.4708	0.063
Mof_C 	C 	0.4384	0.7763	0.51506	0.052
Mof_H 	H 	0.408	0.7924	0.5142	0.005
Mof_N 	N 	0.5978	0.7416	0.40904	-0.065
Mof_N 	N 	0.4514	0.7541	0.54115	-0.241
Mof_O 	O 	0.615	0.5467	0.382	-0.277
Mof_O 	O 	0.64428	0.63297	0.38072	-0.481
Mof_O 	O 	0.6837	0.5707	0.34766	-0.503
Mof_O 	O 	0.6953	0.5673	0.40489	-0.523
Mof_O 	O 	0.7371	0.7399	0.28883	-0.266
Mof_O 	O 	0.6987	0.71887	0.33846	-0.492
Mof_O 	O 	0.7368	0.65374	0.30674	-0.502
Mof_O 	O 	0.7895	0.715	0.33312	-0.505
Mof_O 	O 	0.6236	0.7365	0.38316	-0.283
Mof_P 	P 	0.66408	0.58209	0.37871	0.511
Mof_P 	P 	0.74111	0.70382	0.31924	0.505
Mof_Zn	Zn	0.68352	0.69137	0.37807	1.188
Mof_Zn	Zn	0.74376	0.59437	0.33049	1.183
Mof_C 	C 	0.6435	0.4572	0.3555	0.387
Mof_H 	H 	0.6409	0.4893	0.345	-0.061
Mof_C 	C 	0.6969	0.4412	0.356	-0.675
Mof_H 	H 	0.7085	0.4372	0.3348	0.209
Mof_H 	H 	0.6998	0.4103	0.3669	0.208
Mof_H 	H 	0.7164	0.4659	0.3664	0.209
Mof_C 	C 	0.6069	0.4209	0.3404	-0.675
Mof_H 	H 	0.5738	0.4332	0.343	0.223
Mof_H 	H 	0.6097	0.3892	0.3505	0.213
Mof_H 	H 	0.6143	0.4176	0.3185	0.214
Mof_C 	C 	0.2786	0.2603	0.77654	0.264
Mof_C 	C 	0.2998	0.2411	0.75041	-0.242
Mof_C 	C 	0.3385	0.2646	0.7367	0.118
Mof_H 	H 	0.3531	0.2514	0.7188	-0.037
Mof_C 	C 	0.356	0.3074	0.7491	-0.175
Mof_H 	H 	0.3825	0.3236	0.7397	0.076
Mof_C 	C 	0.3347	0.3267	0.7752	0.093
Mof_H 	H 	0.3467	0.356	0.7837	-0.015
Mof_C 	C 	0.296	0.3031	0.789	-0.188
Mof_C 	C 	0.2727	0.3319	0.8175	0.331
Mof_H 	H 	0.2438	0.3117	0.8229	-0.047
Mof_C 	C 	0.2954	0.3434	0.8492	-0.632
Mof_H 	H 	0.2712	0.3596	0.8622	0.183
Mof_H 	H 	0.3234	0.3648	0.8464	0.202
Mof_H 	H 	0.3058	0.3132	0.859	0.211
Mof_C 	C 	0.2501	0.3764	0.802	-0.634
Mof_H 	H 	0.2318	0.3951	0.8173	0.196
Mof_H 	H 	0.2282	0.3658	0.7855	0.209
Mof_H 	H 	0.2758	0.3967	0.7933	0.201
Mof_C 	C 	0.279	0.1951	0.7368	0.429
Mof_H 	H 	0.2457	0.1869	0.7443	-0.084
Mof_C 	C 	0.316	0.1561	0.7423	-0.718
Mof_H 	H 	0.3222	0.1532	0.7644	0.229
Mof_H 	H 	0.3462	0.1645	0.7317	0.221
Mof_H 	H 	0.3038	0.1252	0.7344	0.222
Mof_C 	C 	0.2825	0.2008	0.7017	-0.685
Mof_H 	H 	0.2588	0.2249	0.6947	0.214
Mof_H 	H 	0.2758	0.1696	0.6918	0.211
Mof_H 	H 	0.3152	0.2116	0.6962	0.213
Mof_C 	C 	0.1143	0.00623	0.90065	0.321
Mof_C 	C 	0.1282	0.9626	0.88898	-0.274
Mof_C 	C 	0.1276	0.9225	0.90712	0.175
Mof_H 	H 	0.1373	0.8921	0.899	-0.054
Mof_C 	C 	0.1131	0.9259	0.93694	-0.263
Mof_H 	H 	0.1126	0.8979	0.9496	0.091
Mof_C 	C 	0.0991	0.9695	0.94862	0.186
Mof_H 	H 	0.089	0.9719	0.9694	-0.062
Mof_C 	C 	0.0997	0.00965	0.93047	-0.299
Mof_C 	C 	0.0842	0.0586	0.9427	0.422
Mof_H 	H 	0.0917	0.0846	0.9274	-0.076
Mof_C 	C 	0.1057	0.0712	0.9741	-0.654
Mof_H 	H 	0.1411	0.0715	0.9726	0.205
Mof_H 	H 	0.0955	0.0469	0.9892	0.201
Mof_H 	H 	0.0941	0.1033	0.9805	0.198
Mof_C 	C 	0.033	0.0637	0.9542	-0.679
Mof_H 	H 	0.0277	0.097	0.9612	0.211
Mof_H 	H 	0.0277	0.0412	0.9713	0.201
Mof_H 	H 	0.0103	0.0562	0.9375	0.219
Mof_C 	C 	0.0684	0.2791	0.9125	0.046
Mof_H 	H 	0.0676	0.3037	0.8973	0.021
Mof_C 	C 	0.039	0.2831	0.9377	-0.102
Mof_H 	H 	0.0164	0.309	0.9394	0.054
Mof_C 	C 	0.0429	0.2476	0.96139	0.026
Mof_C 	C 	0.011	0.2523	0.98963	0.055
Mof_C 	C 	0.0749	0.2113	0.95782	-0.094
Mof_H 	H 	0.0787	0.1878	0.9736	0.041
Mof_C 	C 	0.1023	0.2084	0.9312	0.039
Mof_H 	H 	0.1245	0.1823	0.9286	0.005
Mof_C 	C 	0.9936	0.2314	0.04157	0.06
Mof_H 	H 	0.003	0.2145	0.0597	-0.003
Mof_C 	C 	0.0243	0.2315	0.0167	-0.135
Mof_H 	H 	0.0553	0.2167	0.0184	0.061
Mof_C 	C 	0.9683	0.2766	0.9888	-0.13
Mof_H 	H 	0.9586	0.2936	0.9708	0.063
Mof_C 	C 	0.9384	0.2763	0.01506	0.052
Mof_H 	H 	0.908	0.2924	0.0142	0.005
Mof_N 	N 	0.0978	0.2416	0.90904	-0.065
Mof_N 	N 	0.9514	0.2541	0.04115	-0.241
Mof_O 	O 	0.115	0.0467	0.882	-0.277
Mof_O 	O 	0.14428	0.13297	0.88072	-0.481
Mof_O 	O 	0.1837	0.0707	0.84766	-0.503
Mof_O 	O 	0.1953	0.0673	0.90489	-0.523
Mof_O 	O 	0.2371	0.2399	0.78883	-0.266
Mof_O 	O 	0.1987	0.21887	0.83846	-0.492
Mof_O 	O 	0.2368	0.15374	0.80674	-0.502
Mof_O 	O 	0.2895	0.215	0.83312	-0.505
Mof_O 	O 	0.1236	0.2365	0.88316	-0.283
Mof_P 	P 	0.16408	0.08209	0.87871	0.511
Mof_P 	P 	0.24111	0.20382	0.81924	0.505
Mof_Zn	Zn	0.18352	0.19137	0.87807	1.188
Mof_Zn	Zn	0.24376	0.09437	0.83049	1.183
Mof_C 	C 	0.1435	0.9572	0.8555	0.387
Mof_H 	H 	0.1409	0.9893	0.845	-0.061
Mof_C 	C 	0.1969	0.9412	0.856	-0.675
Mof_H 	H 	0.2085	0.9372	0.8348	0.209
Mof_H 	H 	0.1998	0.9103	0.8669	0.208
Mof_H 	H 	0.2164	0.9659	0.8664	0.209
Mof_C 	C 	0.1069	0.9209	0.8404	-0.675
Mof_H 	H 	0.0738	0.9332	0.843	0.223
Mof_H 	H 	0.1097	0.8892	0.8505	0.213
Mof_H 	H 	0.1143	0.9176	0.8185	0.214
Mof_C 	C 	0.2397	0.7786	0.72346	0.264
Mof_C 	C 	0.2589	0.7998	0.74959	-0.242
Mof_C 	C 	0.2354	0.8385	0.7633	0.118
Mof_H 	H 	0.2486	0.8531	0.7812	-0.037
Mof_C 	C 	0.1926	0.856	0.7509	-0.175
Mof_H 	H 	0.1764	0.8825	0.7603	0.076
Mof_C 	C 	0.1733	0.8347	0.7248	0.093
Mof_H 	H 	0.144	0.8467	0.7163	-0.015
Mof_C 	C 	0.1969	0.796	0.711	-0.188
Mof_C 	C 	0.1681	0.7727	0.6825	0.331
Mof_H 	H 	0.1883	0.7438	0.6771	-0.047
Mof_C 	C 	0.1566	0.7954	0.6508	-0.632
Mof_H 	H 	0.1404	0.7712	0.6378	0.183
Mof_H 	H 	0.1352	0.8234	0.6536	0.202
Mof_H 	H 	0.1868	0.8058	0.641	0.211
Mof_C 	C 	0.1236	0.7501	0.698	-0.634
Mof_H 	H 	0.1049	0.7318	0.6827	0.196
Mof_H 	H 	0.1342	0.7282	0.7145	0.209
Mof_H 	H 	0.1033	0.7758	0.7067	0.201
Mof_C 	C 	0.3049	0.779	0.7632	0.429
Mof_H 	H 	0.3131	0.7457	0.7557	-0.084
Mof_C 	C 	0.3439	0.816	0.7577	-0.718
Mof_H 	H 	0.3468	0.8222	0.7356	0.229
Mof_H 	H 	0.3355	0.8462	0.7683	0.221
Mof_H 	H 	0.3748	0.8038	0.7656	0.222
Mof_C 	C 	0.2992	0.7825	0.7983	-0.685
Mof_H 	H 	0.2751	0.7588	0.8053	0.214
Mof_H 	H 	0.3304	0.7758	0.8082	0.211
Mof_H 	H 	0.2884	0.8152	0.8038	0.213
Mof_C 	C 	0.49377	0.6143	0.59935	0.321
Mof_C 	C 	0.5374	0.6282	0.61102	-0.274
Mof_C 	C 	0.5775	0.6276	0.59288	0.175
Mof_H 	H 	0.6079	0.6373	0.601	-0.054
Mof_C 	C 	0.5741	0.6131	0.56306	-0.263
Mof_H 	H 	0.6021	0.6126	0.5504	0.091
Mof_C 	C 	0.5305	0.5991	0.55138	0.186
Mof_H 	H 	0.5281	0.589	0.5306	-0.062
Mof_C 	C 	0.49035	0.5997	0.56953	-0.299
Mof_C 	C 	0.4414	0.5842	0.5573	0.422
Mof_H 	H 	0.4154	0.5917	0.5726	-0.076
Mof_C 	C 	0.4288	0.6057	0.5259	-0.654
Mof_H 	H 	0.4285	0.6411	0.5274	0.205
Mof_H 	H 	0.4531	0.5955	0.5108	0.201
Mof_H 	H 	0.3967	0.5941	0.5195	0.198
Mof_C 	C 	0.4363	0.533	0.5458	-0.679
Mof_H 	H 	0.403	0.5277	0.5388	0.211
Mof_H 	H 	0.4588	0.5277	0.5287	0.201
Mof_H 	H 	0.4438	0.5103	0.5625	0.219
Mof_C 	C 	0.2209	0.5684	0.5875	0.046
Mof_H 	H 	0.1963	0.5676	0.6027	0.021
Mof_C 	C 	0.2169	0.539	0.5623	-0.102
Mof_H 	H 	0.191	0.5164	0.5606	0.054
Mof_C 	C 	0.2524	0.5429	0.53861	0.026
Mof_C 	C 	0.2477	0.511	0.51037	0.055
Mof_C 	C 	0.2887	0.5749	0.54218	-0.094
Mof_H 	H 	0.3122	0.5787	0.5264	0.041
Mof_C 	C 	0.2916	0.6023	0.5688	0.039
Mof_H 	H 	0.3177	0.6245	0.5714	0.005
Mof_C 	C 	0.2686	0.4936	0.45843	0.06
Mof_H 	H 	0.2855	0.503	0.4403	-0.003
Mof_C 	C 	0.2685	0.5243	0.4833	-0.135
Mof_H 	H 	0.2833	0.5553	0.4816	0.061
Mof_C 	C 	0.2234	0.4683	0.5112	-0.13
Mof_H 	H 	0.2064	0.4586	0.5292	0.063
Mof_C 	C 	0.2237	0.4384	0.48494	0.052
Mof_H 	H 	0.2076	0.408	0.4858	0.005
Mof_N 	N 	0.2584	0.5978	0.59096	-0.065
Mof_N 	N 	0.2459	0.4514	0.45885	-0.241
Mof_O 	O 	0.4533	0.615	0.618	-0.277
Mof_O 	O 	0.36703	0.64428	0.61928	-0.481
Mof_O 	O 	0.4293	0.6837	0.65234	-0.503
Mof_O 	O 	0.4327	0.6953	0.59511	-0.523
Mof_O 	O 	0.2601	0.7371	0.71117	-0.266
Mof_O 	O 	0.28113	0.6987	0.66154	-0.492
Mof_O 	O 	0.34626	0.7368	0.69326	-0.502
Mof_O 	O 	0.285	0.7895	0.66688	-0.505
Mof_O 	O 	0.2635	0.6236	0.61684	-0.283
Mof_P 	P 	0.41791	0.66408	0.62129	0.511
Mof_P 	P 	0.29618	0.74111	0.68076	0.505
Mof_Zn	Zn	0.30863	0.68352	0.62193	1.188
Mof_Zn	Zn	0.40563	0.74376	0.66951	1.183
Mof_C 	C 	0.5428	0.6435	0.6445	0.387
Mof_H 	H 	0.5107	0.6409	0.655	-0.061
Mof_C 	C 	0.5588	0.6969	0.644	-0.675
Mof_H 	H 	0.5628	0.7085	0.6652	0.209
Mof_H 	H 	0.5897	0.6998	0.6331	0.208
Mof_H 	H 	0.5341	0.7164	0.6336	0.209
Mof_C 	C 	0.5791	0.6069	0.6596	-0.675
Mof_H 	H 	0.5668	0.5738	0.657	0.223
Mof_H 	H 	0.6108	0.6097	0.6495	0.213
Mof_H 	H 	0.5824	0.6143	0.6815	0.214
Mof_C 	C 	0.7397	0.2786	0.22346	0.264
Mof_C 	C 	0.7589	0.2998	0.24959	-0.242
Mof_C 	C 	0.7354	0.3385	0.2633	0.118
Mof_H 	H 	0.7486	0.3531	0.2812	-0.037
Mof_C 	C 	0.6926	0.356	0.2509	-0.175
Mof_H 	H 	0.6764	0.3825	0.2603	0.076
Mof_C 	C 	0.6733	0.3347	0.2248	0.093
Mof_H 	H 	0.644	0.3467	0.2163	-0.015
Mof_C 	C 	0.6969	0.296	0.211	-0.188
Mof_C 	C 	0.6681	0.2727	0.1825	0.331
Mof_H 	H 	0.6883	0.2438	0.1771	-0.047
Mof_C 	C 	0.6566	0.2954	0.1508	-0.632
Mof_H 	H 	0.6404	0.2712	0.1378	0.183
Mof_H 	H 	0.6352	0.3234	0.1536	0.202
Mof_H 	H 	0.6868	0.3058	0.141	0.211
Mof_C 	C 	0.6236	0.2501	0.198	-0.634
Mof_H 	H 	0.6049	0.2318	0.1827	0.196
Mof_H 	H 	0.6342	0.2282	0.2145	0.209
Mof_H 	H 	0.6033	0.2758	0.2067	0.201
Mof_C 	C 	0.8049	0.279	0.2632	0.429
Mof_H 	H 	0.8131	0.2457	0.2557	-0.084
Mof_C 	C 	0.8439	0.316	0.2577	-0.718
Mof_H 	H 	0.8468	0.3222	0.2356	0.229
Mof_H 	H 	0.8355	0.3462	0.2683	0.221
Mof_H 	H 	0.8748	0.3038	0.2656	0.222
Mof_C 	C 	0.7992	0.2825	0.2983	-0.685
Mof_H 	H 	0.7751	0.2588	0.3053	0.214
Mof_H 	H 	0.8304	0.2758	0.3082	0.211
Mof_H 	H 	0.7884	0.3152	0.3038	0.213
Mof_C 	C 	0.99377	0.1143	0.09935	0.321
Mof_C 	C 	0.0374	0.1282	0.11102	-0.274
Mof_C 	C 	0.0775	0.1276	0.09288	0.175
Mof_H 	H 	0.1079	0.1373	0.101	-0.054
Mof_C 	C 	0.0741	0.1131	0.06306	-0.263
Mof_H 	H 	0.1021	0.1126	0.0504	0.091
Mof_C 	C 	0.0305	0.0991	0.05138	0.186
Mof_H 	H 	0.0281	0.089	0.0306	-0.062
Mof_C 	C 	0.99035	0.0997	0.06953	-0.299
Mof_C 	C 	0.9414	0.0842	0.0573	0.422
Mof_H 	H 	0.9154	0.0917	0.0726	-0.076
Mof_C 	C 	0.9288	0.1057	0.0259	-0.654
Mof_H 	H 	0.9285	0.1411	0.0274	0.205
Mof_H 	H 	0.9531	0.0955	0.0108	0.201
Mof_H 	H 	0.8967	0.0941	0.0195	0.198
Mof_C 	C 	0.9363	0.033	0.0458	-0.679
Mof_H 	H 	0.903	0.0277	0.0388	0.211
Mof_H 	H 	0.9588	0.0277	0.0287	0.201
Mof_H 	H 	0.9438	0.0103	0.0625	0.219
Mof_C 	C 	0.7209	0.0684	0.0875	0.046
Mof_H 	H 	0.6963	0.0676	0.1027	0.021
Mof_C 	C 	0.7169	0.039	0.0623	-0.102
Mof_H 	H 	0.691	0.0164	0.0606	0.054
Mof_C 	C 	0.7524	0.0429	0.03861	0.026
Mof_C 	C 	0.7477	0.011	0.01037	0.055
Mof_C 	C 	0.7887	0.0749	0.04218	-0.094
Mof_H 	H 	0.8122	0.0787	0.0264	0.041
Mof_C 	C 	0.7916	0.1023	0.0688	0.039
Mof_H 	H 	0.8177	0.1245	0.0714	0.005
Mof_C 	C 	0.7686	0.9936	0.95843	0.06
Mof_H 	H 	0.7855	0.003	0.9403	-0.003
Mof_C 	C 	0.7685	0.0243	0.9833	-0.135
Mof_H 	H 	0.7833	0.0553	0.9816	0.061
Mof_C 	C 	0.7234	0.9683	0.0112	-0.13
Mof_H 	H 	0.7064	0.9586	0.0292	0.063
Mof_C 	C 	0.7237	0.9384	0.98494	0.052
Mof_H 	H 	0.7076	0.908	0.9858	0.005
Mof_N 	N 	0.7584	0.0978	0.09096	-0.065
Mof_N 	N 	0.7459	0.9514	0.95885	-0.241
Mof_O 	O 	0.9533	0.115	0.118	-0.277
Mof_O 	O 	0.86703	0.14428	0.11928	-0.481
Mof_O 	O 	0.9293	0.1837	0.15234	-0.503
Mof_O 	O 	0.9327	0.1953	0.09511	-0.523
Mof_O 	O 	0.7601	0.2371	0.21117	-0.266
Mof_O 	O 	0.78113	0.1987	0.16154	-0.492
Mof_O 	O 	0.84626	0.2368	0.19326	-0.502
Mof_O 	O 	0.785	0.2895	0.16688	-0.505
Mof_O 	O 	0.7635	0.1236	0.11684	-0.283
Mof_P 	P 	0.91791	0.16408	0.12129	0.511
Mof_P 	P 	0.79618	0.24111	0.18076	0.505
Mof_Zn	Zn	0.80863	0.18352	0.12193	1.188
Mof_Zn	Zn	0.90563	0.24376	0.16951	1.183
Mof_C 	C 	0.0428	0.1435	0.1445	0.387
Mof_H 	H 	0.0107	0.1409	0.155	-0.061
Mof_C 	C 	0.0588	0.1969	0.144	-0.675
Mof_H 	H 	0.0628	0.2085	0.1652	0.209
Mof_H 	H 	0.0897	0.1998	0.1331	0.208
Mof_H 	H 	0.0341	0.2164	0.1336	0.209
Mof_C 	C 	0.0791	0.1069	0.1596	-0.675
Mof_H 	H 	0.0668	0.0738	0.157	0.223
Mof_H 	H 	0.1108	0.1097	0.1495	0.213
Mof_H 	H 	0.0824	0.1143	0.1815	0.214
Mof_C 	C 	0.7603	0.2214	0.72346	0.264
Mof_C 	C 	0.7411	0.2002	0.74959	-0.242
Mof_C 	C 	0.7646	0.1615	0.7633	0.118
Mof_H 	H 	0.7514	0.1469	0.7812	-0.037
Mof_C 	C 	0.8074	0.144	0.7509	-0.175
Mof_H 	H 	0.8236	0.1175	0.7603	0.076
Mof_C 	C 	0.8267	0.1653	0.7248	0.093
Mof_H 	H 	0.856	0.1533	0.7163	-0.015
Mof_C 	C 	0.8031	0.204	0.711	-0.188
Mof_C 	C 	0.8319	0.2273	0.6825	0.331
Mof_H 	H 	0.8117	0.2562	0.6771	-0.047
Mof_C 	C 	0.8434	0.2046	0.6508	-0.632
Mof_H 	H 	0.8596	0.2288	0.6378	0.183
Mof_H 	H 	0.8648	0.1766	0.6536	0.202
Mof_H 	H 	0.8132	0.1942	0.641	0.211
Mof_C 	C 	0.8764	0.2499	0.698	-0.634
Mof_H 	H 	0.8951	0.2682	0.6827	0.196
Mof_H 	H 	0.8658	0.2718	0.7145	0.209
Mof_H 	H 	0.8967	0.2242	0.7067	0.201
Mof_C 	C 	0.6951	0.221	0.7632	0.429
Mof_H 	H 	0.6869	0.2543	0.7557	-0.084
Mof_C 	C 	0.6561	0.184	0.7577	-0.718
Mof_H 	H 	0.6532	0.1778	0.7356	0.229
Mof_H 	H 	0.6645	0.1538	0.7683	0.221
Mof_H 	H 	0.6252	0.1962	0.7656	0.222
Mof_C 	C 	0.7008	0.2175	0.7983	-0.685
Mof_H 	H 	0.7249	0.2412	0.8053	0.214
Mof_H 	H 	0.6696	0.2242	0.8082	0.211
Mof_H 	H 	0.7116	0.1848	0.8038	0.213
Mof_C 	C 	0.50623	0.3857	0.59935	0.321
Mof_C 	C 	0.4626	0.3718	0.61102	-0.274
Mof_C 	C 	0.4225	0.3724	0.59288	0.175
Mof_H 	H 	0.3921	0.3627	0.601	-0.054
Mof_C 	C 	0.4259	0.3869	0.56306	-0.263
Mof_H 	H 	0.3979	0.3874	0.5504	0.091
Mof_C 	C 	0.4695	0.4009	0.55138	0.186
Mof_H 	H 	0.4719	0.411	0.5306	-0.062
Mof_C 	C 	0.50965	0.4003	0.56953	-0.299
Mof_C 	C 	0.5586	0.4158	0.5573	0.422
Mof_H 	H 	0.5846	0.4083	0.5726	-0.076
Mof_C 	C 	0.5712	0.3943	0.5259	-0.654
Mof_H 	H 	0.5715	0.3589	0.5274	0.205
Mof_H 	H 	0.5469	0.4045	0.5108	0.201
Mof_H 	H 	0.6033	0.4059	0.5195	0.198
Mof_C 	C 	0.5637	0.467	0.5458	-0.679
Mof_H 	H 	0.597	0.4723	0.5388	0.211
Mof_H 	H 	0.5412	0.4723	0.5287	0.201
Mof_H 	H 	0.5562	0.4897	0.5625	0.219
Mof_C 	C 	0.7791	0.4316	0.5875	0.046
Mof_H 	H 	0.8037	0.4324	0.6027	0.021
Mof_C 	C 	0.7831	0.461	0.5623	-0.102
Mof_H 	H 	0.809	0.4836	0.5606	0.054
Mof_C 	C 	0.7476	0.4571	0.53861	0.026
Mof_C 	C 	0.7523	0.489	0.51037	0.055
Mof_C 	C 	0.7113	0.4251	0.54218	-0.094
Mof_H 	H 	0.6878	0.4213	0.5264	0.041
Mof_C 	C 	0.7084	0.3977	0.5688	0.039
Mof_H 	H 	0.6823	0.3755	0.5714	0.005
Mof_C 	C 	0.7314	0.5064	0.45843	0.06
Mof_H 	H 	0.7145	0.497	0.4403	-0.003
Mof_C 	C 	0.7315	0.4757	0.4833	-0.135
Mof_H 	H 	0.7167	0.4447	0.4816	0.061
Mof_C 	C 	0.7766	0.5317	0.5112	-0.13
Mof_H 	H 	0.7936	0.5414	0.5292	0.063
Mof_C 	C 	0.7763	0.5616	0.48494	0.052
Mof_H 	H 	0.7924	0.592	0.4858	0.005
Mof_N 	N 	0.7416	0.4022	0.59096	-0.065
Mof_N 	N 	0.7541	0.5486	0.45885	-0.241
Mof_O 	O 	0.5467	0.385	0.618	-0.277
Mof_O 	O 	0.63297	0.35572	0.61928	-0.481
Mof_O 	O 	0.5707	0.3163	0.65234	-0.503
Mof_O 	O 	0.5673	0.3047	0.59511	-0.523
Mof_O 	O 	0.7399	0.2629	0.71117	-0.266
Mof_O 	O 	0.71887	0.3013	0.66154	-0.492
Mof_O 	O 	0.65374	0.2632	0.69326	-0.502
Mof_O 	O 	0.715	0.2105	0.66688	-0.505
Mof_O 	O 	0.7365	0.3764	0.61684	-0.283
Mof_P 	P 	0.58209	0.33592	0.62129	0.511
Mof_P 	P 	0.70382	0.25889	0.68076	0.505
Mof_Zn	Zn	0.69137	0.31648	0.62193	1.188
Mof_Zn	Zn	0.59437	0.25624	0.66951	1.183
Mof_C 	C 	0.4572	0.3565	0.6445	0.387
Mof_H 	H 	0.4893	0.3591	0.655	-0.061
Mof_C 	C 	0.4412	0.3031	0.644	-0.675
Mof_H 	H 	0.4372	0.2915	0.6652	0.209
Mof_H 	H 	0.4103	0.3002	0.6331	0.208
Mof_H 	H 	0.4659	0.2836	0.6336	0.209
Mof_C 	C 	0.4209	0.3931	0.6596	-0.675
Mof_H 	H 	0.4332	0.4262	0.657	0.223
Mof_H 	H 	0.3892	0.3903	0.6495	0.213
Mof_H 	H 	0.4176	0.3857	0.6815	0.214
Mof_C 	C 	0.2603	0.7214	0.22346	0.264
Mof_C 	C 	0.2411	0.7002	0.24959	-0.242
Mof_C 	C 	0.2646	0.6615	0.2633	0.118
Mof_H 	H 	0.2514	0.6469	0.2812	-0.037
Mof_C 	C 	0.3074	0.644	0.2509	-0.175
Mof_H 	H 	0.3236	0.6175	0.2603	0.076
Mof_C 	C 	0.3267	0.6653	0.2248	0.093
Mof_H 	H 	0.356	0.6533	0.2163	-0.015
Mof_C 	C 	0.3031	0.704	0.211	-0.188
Mof_C 	C 	0.3319	0.7273	0.1825	0.331
Mof_H 	H 	0.3117	0.7562	0.1771	-0.047
Mof_C 	C 	0.3434	0.7046	0.1508	-0.632
Mof_H 	H 	0.3596	0.7288	0.1378	0.183
Mof_H 	H 	0.3648	0.6766	0.1536	0.202
Mof_H 	H 	0.3132	0.6942	0.141	0.211
Mof_C 	C 	0.3764	0.7499	0.198	-0.634
Mof_H 	H 	0.3951	0.7682	0.1827	0.196
Mof_H 	H 	0.3658	0.7718	0.2145	0.209
Mof_H 	H 	0.3967	0.7242	0.2067	0.201
Mof_C 	C 	0.1951	0.721	0.2632	0.429
Mof_H 	H 	0.1869	0.7543	0.2557	-0.084
Mof_C 	C 	0.1561	0.684	0.2577	-0.718
Mof_H 	H 	0.1532	0.6778	0.2356	0.229
Mof_H 	H 	0.1645	0.6538	0.2683	0.221
Mof_H 	H 	0.1252	0.6962	0.2656	0.222
Mof_C 	C 	0.2008	0.7175	0.2983	-0.685
Mof_H 	H 	0.2249	0.7412	0.3053	0.214
Mof_H 	H 	0.1696	0.7242	0.3082	0.211
Mof_H 	H 	0.2116	0.6848	0.3038	0.213
Mof_C 	C 	0.00623	0.8857	0.09935	0.321
Mof_C 	C 	0.9626	0.8718	0.11102	-0.274
Mof_C 	C 	0.9225	0.8724	0.09288	0.175
Mof_H 	H 	0.8921	0.8627	0.101	-0.054
Mof_C 	C 	0.9259	0.8869	0.06306	-0.263
Mof_H 	H 	0.8979	0.8874	0.0504	0.091
Mof_C 	C 	0.9695	0.9009	0.05138	0.186
Mof_H 	H 	0.9719	0.911	0.0306	-0.062
Mof_C 	C 	0.00965	0.9003	0.06953	-0.299
Mof_C 	C 	0.0586	0.9158	0.0573	0.422
Mof_H 	H 	0.0846	0.9083	0.0726	-0.076
Mof_C 	C 	0.0712	0.8943	0.0259	-0.654
Mof_H 	H 	0.0715	0.8589	0.0274	0.205
Mof_H 	H 	0.0469	0.9045	0.0108	0.201
Mof_H 	H 	0.1033	0.9059	0.0195	0.198
Mof_C 	C 	0.0637	0.967	0.0458	-0.679
Mof_H 	H 	0.097	0.9723	0.0388	0.211
Mof_H 	H 	0.0412	0.9723	0.0287	0.201
Mof_H 	H 	0.0562	0.9897	0.0625	0.219
Mof_C 	C 	0.2791	0.9316	0.0875	0.046
Mof_H 	H 	0.3037	0.9324	0.1027	0.021
Mof_C 	C 	0.2831	0.961	0.0623	-0.102
Mof_H 	H 	0.309	0.9836	0.0606	0.054
Mof_C 	C 	0.2476	0.9571	0.03861	0.026
Mof_C 	C 	0.2523	0.989	0.01037	0.055
Mof_C 	C 	0.2113	0.9251	0.04218	-0.094
Mof_H 	H 	0.1878	0.9213	0.0264	0.041
Mof_C 	C 	0.2084	0.8977	0.0688	0.039
Mof_H 	H 	0.1823	0.8755	0.0714	0.005
Mof_C 	C 	0.2314	0.0064	0.95843	0.06
Mof_H 	H 	0.2145	0.997	0.9403	-0.003
Mof_C 	C 	0.2315	0.9757	0.9833	-0.135
Mof_H 	H 	0.2167	0.9447	0.9816	0.061
Mof_C 	C 	0.2766	0.0317	0.0112	-0.13
Mof_H 	H 	0.2936	0.0414	0.0292	0.063
Mof_C 	C 	0.2763	0.0616	0.98494	0.052
Mof_H 	H 	0.2924	0.092	0.9858	0.005
Mof_N 	N 	0.2416	0.9022	0.09096	-0.065
Mof_N 	N 	0.2541	0.0486	0.95885	-0.241
Mof_O 	O 	0.0467	0.885	0.118	-0.277
Mof_O 	O 	0.13297	0.85572	0.11928	-0.481
Mof_O 	O 	0.0707	0.8163	0.15234	-0.503
Mof_O 	O 	0.0673	0.8047	0.09511	-0.523
Mof_O 	O 	0.2399	0.7629	0.21117	-0.266
Mof_O 	O 	0.21887	0.8013	0.16154	-0.492
Mof_O 	O 	0.15374	0.7632	0.19326	-0.502
Mof_O 	O 	0.215	0.7105	0.16688	-0.505
Mof_O 	O 	0.2365	0.8764	0.11684	-0.283
Mof_P 	P 	0.08209	0.83592	0.12129	0.511
Mof_P 	P 	0.20382	0.75889	0.18076	0.505
Mof_Zn	Zn	0.19137	0.81648	0.12193	1.188
Mof_Zn	Zn	0.09437	0.75624	0.16951	1.183
Mof_C 	C 	0.9572	0.8565	0.1445	0.387
Mof_H 	H 	0.9893	0.8591	0.155	-0.061
Mof_C 	C 	0.9412	0.8031	0.144	-0.675
Mof_H 	H 	0.9372	0.7915	0.1652	0.209
Mof_H 	H 	0.9103	0.8002	0.1331	0.208
Mof_H 	H 	0.9659	0.7836	0.1336	0.209
Mof_C 	C 	0.9209	0.8931	0.1596	-0.675
Mof_H 	H 	0.9332	0.9262	0.157	0.223
Mof_H 	H 	0.8892	0.8903	0.1495	0.213
Mof_H 	H 	0.9176	0.8857	0.1815	0.214
Mof_C 	C 	0.2786	0.2397	0.47346	0.264
Mof_C 	C 	0.2998	0.2589	0.49959	-0.242
Mof_C 	C 	0.3385	0.2354	0.5133	0.118
Mof_H 	H 	0.3531	0.2486	0.5312	-0.037
Mof_C 	C 	0.356	0.1926	0.5009	-0.175
Mof_H 	H 	0.3825	0.1764	0.5103	0.076
Mof_C 	C 	0.3347	0.1733	0.4748	0.093
Mof_H 	H 	0.3467	0.144	0.4663	-0.015
Mof_C 	C 	0.296	0.1969	0.461	-0.188
Mof_C 	C 	0.2727	0.1681	0.4325	0.331
Mof_H 	H 	0.2438	0.1883	0.4271	-0.047
Mof_C 	C 	0.2954	0.1566	0.4008	-0.632
Mof_H 	H 	0.2712	0.1404	0.3878	0.183
Mof_H 	H 	0.3234	0.1352	0.4036	0.202
Mof_H 	H 	0.3058	0.1868	0.391	0.211
Mof_C 	C 	0.2501	0.1236	0.448	-0.634
Mof_H 	H 	0.2318	0.1049	0.4327	0.196
Mof_H 	H 	0.2282	0.1342	0.4645	0.209
Mof_H 	H 	0.2758	0.1033	0.4567	0.201
Mof_C 	C 	0.279	0.3049	0.5132	0.429
Mof_H 	H 	0.2457	0.3131	0.5057	-0.084
Mof_C 	C 	0.316	0.3439	0.5077	-0.718
Mof_H 	H 	0.3222	0.3468	0.4856	0.229
Mof_H 	H 	0.3462	0.3355	0.5183	0.221
Mof_H 	H 	0.3038	0.3748	0.5156	0.222
Mof_C 	C 	0.2825	0.2992	0.5483	-0.685
Mof_H 	H 	0.2588	0.2751	0.5553	0.214
Mof_H 	H 	0.2758	0.3304	0.5582	0.211
Mof_H 	H 	0.3152	0.2884	0.5538	0.213
Mof_C 	C 	0.1143	0.49377	0.34935	0.321
Mof_C 	C 	0.1282	0.5374	0.36102	-0.274
Mof_C 	C 	0.1276	0.5775	0.34288	0.175
Mof_H 	H 	0.1373	0.6079	0.351	-0.054
Mof_C 	C 	0.1131	0.5741	0.31306	-0.263
Mof_H 	H 	0.1126	0.6021	0.3004	0.091
Mof_C 	C 	0.0991	0.5305	0.30138	0.186
Mof_H 	H 	0.089	0.5281	0.2806	-0.062
Mof_C 	C 	0.0997	0.49035	0.31953	-0.299
Mof_C 	C 	0.0842	0.4414	0.3073	0.422
Mof_H 	H 	0.0917	0.4154	0.3226	-0.076
Mof_C 	C 	0.1057	0.4288	0.2759	-0.654
Mof_H 	H 	0.1411	0.4285	0.2774	0.205
Mof_H 	H 	0.0955	0.4531	0.2608	0.201
Mof_H 	H 	0.0941	0.3967	0.2695	0.198
Mof_C 	C 	0.033	0.4363	0.2958	-0.679
Mof_H 	H 	0.0277	0.403	0.2888	0.211
Mof_H 	H 	0.0277	0.4588	0.2787	0.201
Mof_H 	H 	0.0103	0.4438	0.3125	0.219
Mof_C 	C 	0.0684	0.2209	0.3375	0.046
Mof_H 	H 	0.0676	0.1963	0.3527	0.021
Mof_C 	C 	0.039	0.2169	0.3123	-0.102
Mof_H 	H 	0.0164	0.191	0.3106	0.054
Mof_C 	C 	0.0429	0.2524	0.28861	0.026
Mof_C 	C 	0.011	0.2477	0.26037	0.055
Mof_C 	C 	0.0749	0.2887	0.29218	-0.094
Mof_H 	H 	0.0787	0.3122	0.2764	0.041
Mof_C 	C 	0.1023	0.2916	0.3188	0.039
Mof_H 	H 	0.1245	0.3177	0.3214	0.005
Mof_C 	C 	0.9936	0.2686	0.20843	0.06
Mof_H 	H 	0.003	0.2855	0.1903	-0.003
Mof_C 	C 	0.0243	0.2685	0.2333	-0.135
Mof_H 	H 	0.0553	0.2833	0.2316	0.061
Mof_C 	C 	0.9683	0.2234	0.2612	-0.13
Mof_H 	H 	0.9586	0.2064	0.2792	0.063
Mof_C 	C 	0.9384	0.2237	0.23494	0.052
Mof_H 	H 	0.908	0.2076	0.2358	0.005
Mof_N 	N 	0.0978	0.2584	0.34096	-0.065
Mof_N 	N 	0.9514	0.2459	0.20885	-0.241
Mof_O 	O 	0.115	0.4533	0.368	-0.277
Mof_O 	O 	0.14428	0.36703	0.36928	-0.481
Mof_O 	O 	0.1837	0.4293	0.40234	-0.503
Mof_O 	O 	0.1953	0.4327	0.34511	-0.523
Mof_O 	O 	0.2371	0.2601	0.46117	-0.266
Mof_O 	O 	0.1987	0.28113	0.41154	-0.492
Mof_O 	O 	0.2368	0.34626	0.44326	-0.502
Mof_O 	O 	0.2895	0.285	0.41688	-0.505
Mof_O 	O 	0.1236	0.2635	0.36684	-0.283
Mof_P 	P 	0.16408	0.41791	0.37129	0.511
Mof_P 	P 	0.24111	0.29618	0.43076	0.505
Mof_Zn	Zn	0.18352	0.30863	0.37193	1.188
Mof_Zn	Zn	0.24376	0.40563	0.41951	1.183
Mof_C 	C 	0.1435	0.5428	0.3945	0.387
Mof_H 	H 	0.1409	0.5107	0.405	-0.061
Mof_C 	C 	0.1969	0.5588	0.394	-0.675
Mof_H 	H 	0.2085	0.5628	0.4152	0.209
Mof_H 	H 	0.1998	0.5897	0.3831	0.208
Mof_H 	H 	0.2164	0.5341	0.3836	0.209
Mof_C 	C 	0.1069	0.5791	0.4096	-0.675
Mof_H 	H 	0.0738	0.5668	0.407	0.223
Mof_H 	H 	0.1097	0.6108	0.3995	0.213
Mof_H 	H 	0.1143	0.5824	0.4315	0.214
Mof_C 	C 	0.7786	0.7397	0.97346	0.264
Mof_C 	C 	0.7998	0.7589	0.99959	-0.242
Mof_C 	C 	0.8385	0.7354	0.0133	0.118
Mof_H 	H 	0.8531	0.7486	0.0312	-0.037
Mof_C 	C 	0.856	0.6926	0.0009	-0.175
Mof_H 	H 	0.8825	0.6764	0.0103	0.076
Mof_C 	C 	0.8347	0.6733	0.9748	0.093
Mof_H 	H 	0.8467	0.644	0.9663	-0.015
Mof_C 	C 	0.796	0.6969	0.961	-0.188
Mof_C 	C 	0.7727	0.6681	0.9325	0.331
Mof_H 	H 	0.7438	0.6883	0.9271	-0.047
Mof_C 	C 	0.7954	0.6566	0.9008	-0.632
Mof_H 	H 	0.7712	0.6404	0.8878	0.183
Mof_H 	H 	0.8234	0.6352	0.9036	0.202
Mof_H 	H 	0.8058	0.6868	0.891	0.211
Mof_C 	C 	0.7501	0.6236	0.948	-0.634
Mof_H 	H 	0.7318	0.6049	0.9327	0.196
Mof_H 	H 	0.7282	0.6342	0.9645	0.209
Mof_H 	H 	0.7758	0.6033	0.9567	0.201
Mof_C 	C 	0.779	0.8049	0.0132	0.429
Mof_H 	H 	0.7457	0.8131	0.0057	-0.084
Mof_C 	C 	0.816	0.8439	0.0077	-0.718
Mof_H 	H 	0.8222	0.8468	0.9856	0.229
Mof_H 	H 	0.8462	0.8355	0.0183	0.221
Mof_H 	H 	0.8038	0.8748	0.0156	0.222
Mof_C 	C 	0.7825	0.7992	0.0483	-0.685
Mof_H 	H 	0.7588	0.7751	0.0553	0.214
Mof_H 	H 	0.7758	0.8304	0.0582	0.211
Mof_H 	H 	0.8152	0.7884	0.0538	0.213
Mof_C 	C 	0.6143	0.99377	0.84935	0.321
Mof_C 	C 	0.6282	0.0374	0.86102	-0.274
Mof_C 	C 	0.6276	0.0775	0.84288	0.175
Mof_H 	H 	0.6373	0.1079	0.851	-0.054
Mof_C 	C 	0.6131	0.0741	0.81306	-0.263
Mof_H 	H 	0.6126	0.1021	0.8004	0.091
Mof_C 	C 	0.5991	0.0305	0.80138	0.186
Mof_H 	H 	0.589	0.0281	0.7806	-0.062
Mof_C 	C 	0.5997	0.99035	0.81953	-0.299
Mof_C 	C 	0.5842	0.9414	0.8073	0.422
Mof_H 	H 	0.5917	0.9154	0.8226	-0.076
Mof_C 	C 	0.6057	0.9288	0.7759	-0.654
Mof_H 	H 	0.6411	0.9285	0.7774	0.205
Mof_H 	H 	0.5955	0.9531	0.7608	0.201
Mof_H 	H 	0.5941	0.8967	0.7695	0.198
Mof_C 	C 	0.533	0.9363	0.7958	-0.679
Mof_H 	H 	0.5277	0.903	0.7888	0.211
Mof_H 	H 	0.5277	0.9588	0.7787	0.201
Mof_H 	H 	0.5103	0.9438	0.8125	0.219
Mof_C 	C 	0.5684	0.7209	0.8375	0.046
Mof_H 	H 	0.5676	0.6963	0.8527	0.021
Mof_C 	C 	0.539	0.7169	0.8123	-0.102
Mof_H 	H 	0.5164	0.691	0.8106	0.054
Mof_C 	C 	0.5429	0.7524	0.78861	0.026
Mof_C 	C 	0.511	0.7477	0.76037	0.055
Mof_C 	C 	0.5749	0.7887	0.79218	-0.094
Mof_H 	H 	0.5787	0.8122	0.7764	0.041
Mof_C 	C 	0.6023	0.7916	0.8188	0.039
Mof_H 	H 	0.6245	0.8177	0.8214	0.005
Mof_C 	C 	0.4936	0.7686	0.70843	0.06
Mof_H 	H 	0.503	0.7855	0.6903	-0.003
Mof_C 	C 	0.5243	0.7685	0.7333	-0.135
Mof_H 	H 	0.5553	0.7833	0.7316	0.061
Mof_C 	C 	0.4683	0.7234	0.7612	-0.13
Mof_H 	H 	0.4586	0.7064	0.7792	0.063
Mof_C 	C 	0.4384	0.7237	0.73494	0.052
Mof_H 	H 	0.408	0.7076	0.7358	0.005
Mof_N 	N 	0.5978	0.7584	0.84096	-0.065
Mof_N 	N 	0.4514	0.7459	0.70885	-0.241
Mof_O 	O 	0.615	0.9533	0.868	-0.277
Mof_O 	O 	0.64428	0.86703	0.86928	-0.481
Mof_O 	O 	0.6837	0.9293	0.90234	-0.503
Mof_O 	O 	0.6953	0.9327	0.84511	-0.523
Mof_O 	O 	0.7371	0.7601	0.96117	-0.266
Mof_O 	O 	0.6987	0.78113	0.91154	-0.492
Mof_O 	O 	0.7368	0.84626	0.94326	-0.502
Mof_O 	O 	0.7895	0.785	0.91688	-0.505
Mof_O 	O 	0.6236	0.7635	0.86684	-0.283
Mof_P 	P 	0.66408	0.91791	0.87129	0.511
Mof_P 	P 	0.74111	0.79618	0.93076	0.505
Mof_Zn	Zn	0.68352	0.80863	0.87193	1.188
Mof_Zn	Zn	0.74376	0.90563	0.91951	1.183
Mof_C 	C 	0.6435	0.0428	0.8945	0.387
Mof_H 	H 	0.6409	0.0107	0.905	-0.061
Mof_C 	C 	0.6969	0.0588	0.894	-0.675
Mof_H 	H 	0.7085	0.0628	0.9152	0.209
Mof_H 	H 	0.6998	0.0897	0.8831	0.208
Mof_H 	H 	0.7164	0.0341	0.8836	0.209
Mof_C 	C 	0.6069	0.0791	0.9096	-0.675
Mof_H 	H 	0.5738	0.0668	0.907	0.223
Mof_H 	H 	0.6097	0.1108	0.8995	0.213
Mof_H 	H 	0.6143	0.0824	0.9315	0.214
Mof_C 	C 	0.7214	0.7603	0.47346	0.264
Mof_C 	C 	0.7002	0.7411	0.49959	-0.242
Mof_C 	C 	0.6615	0.7646	0.5133	0.118
Mof_H 	H 	0.6469	0.7514	0.5312	-0.037
Mof_C 	C 	0.644	0.8074	0.5009	-0.175
Mof_H 	H 	0.6175	0.8236	0.5103	0.076
Mof_C 	C 	0.6653	0.8267	0.4748	0.093
Mof_H 	H 	0.6533	0.856	0.4663	-0.015
Mof_C 	C 	0.704	0.8031	0.461	-0.188
Mof_C 	C 	0.7273	0.8319	0.4325	0.331
Mof_H 	H 	0.7562	0.8117	0.4271	-0.047
Mof_C 	C 	0.7046	0.8434	0.4008	-0.632
Mof_H 	H 	0.7288	0.8596	0.3878	0.183
Mof_H 	H 	0.6766	0.8648	0.4036	0.202
Mof_H 	H 	0.6942	0.8132	0.391	0.211
Mof_C 	C 	0.7499	0.8764	0.448	-0.634
Mof_H 	H 	0.7682	0.8951	0.4327	0.196
Mof_H 	H 	0.7718	0.8658	0.4645	0.209
Mof_H 	H 	0.7242	0.8967	0.4567	0.201
Mof_C 	C 	0.721	0.6951	0.5132	0.429
Mof_H 	H 	0.7543	0.6869	0.5057	-0.084
Mof_C 	C 	0.684	0.6561	0.5077	-0.718
Mof_H 	H 	0.6778	0.6532	0.4856	0.229
Mof_H 	H 	0.6538	0.6645	0.5183	0.221
Mof_H 	H 	0.6962	0.6252	0.5156	0.222
Mof_C 	C 	0.7175	0.7008	0.5483	-0.685
Mof_H 	H 	0.7412	0.7249	0.5553	0.214
Mof_H 	H 	0.7242	0.6696	0.5582	0.211
Mof_H 	H 	0.6848	0.7116	0.5538	0.213
Mof_C 	C 	0.8857	0.50623	0.34935	0.321
Mof_C 	C 	0.8718	0.4626	0.36102	-0.274
Mof_C 	C 	0.8724	0.4225	0.34288	0.175
Mof_H 	H 	0.8627	0.3921	0.351	-0.054
Mof_C 	C 	0.8869	0.4259	0.31306	-0.263
Mof_H 	H 	0.8874	0.3979	0.3004	0.091
Mof_C 	C 	0.9009	0.4695	0.30138	0.186
Mof_H 	H 	0.911	0.4719	0.2806	-0.062
Mof_C 	C 	0.9003	0.50965	0.31953	-0.299
Mof_C 	C 	0.9158	0.5586	0.3073	0.422
Mof_H 	H 	0.9083	0.5846	0.3226	-0.076
Mof_C 	C 	0.8943	0.5712	0.2759	-0.654
Mof_H 	H 	0.8589	0.5715	0.2774	0.205
Mof_H 	H 	0.9045	0.5469	0.2608	0.201
Mof_H 	H 	0.9059	0.6033	0.2695	0.198
Mof_C 	C 	0.967	0.5637	0.2958	-0.679
Mof_H 	H 	0.9723	0.597	0.2888	0.211
Mof_H 	H 	0.9723	0.5412	0.2787	0.201
Mof_H 	H 	0.9897	0.5562	0.3125	0.219
Mof_C 	C 	0.9316	0.7791	0.3375	0.046
Mof_H 	H 	0.9324	0.8037	0.3527	0.021
Mof_C 	C 	0.961	0.7831	0.3123	-0.102
Mof_H 	H 	0.9836	0.809	0.3106	0.054
Mof_C 	C 	0.9571	0.7476	0.28861	0.026
Mof_C 	C 	0.989	0.7523	0.26037	0.055
Mof_C 	C 	0.9251	0.7113	0.29218	-0.094
Mof_H 	H 	0.9213	0.6878	0.2764	0.041
Mof_C 	C 	0.8977	0.7084	0.3188	0.039
Mof_H 	H 	0.8755	0.6823	0.3214	0.005
Mof_C 	C 	0.0064	0.7314	0.20843	0.06
Mof_H 	H 	0.997	0.7145	0.1903	-0.003
Mof_C 	C 	0.9757	0.7315	0.2333	-0.135
Mof_H 	H 	0.9447	0.7167	0.2316	0.061
Mof_C 	C 	0.0317	0.7766	0.2612	-0.13
Mof_H 	H 	0.0414	0.7936	0.2792	0.063
Mof_C 	C 	0.0616	0.7763	0.23494	0.052
Mof_H 	H 	0.092	0.7924	0.2358	0.005
Mof_N 	N 	0.9022	0.7416	0.34096	-0.065
Mof_N 	N 	0.0486	0.7541	0.20885	-0.241
Mof_O 	O 	0.885	0.5467	0.368	-0.277
Mof_O 	O 	0.85572	0.63297	0.36928	-0.481
Mof_O 	O 	0.8163	0.5707	0.40234	-0.503
Mof_O 	O 	0.8047	0.5673	0.34511	-0.523
Mof_O 	O 	0.7629	0.7399	0.46117	-0.266
Mof_O 	O 	0.8013	0.71887	0.41154	-0.492
Mof_O 	O 	0.7632	0.65374	0.44326	-0.502
Mof_O 	O 	0.7105	0.715	0.41688	-0.505
Mof_O 	O 	0.8764	0.7365	0.36684	-0.283
Mof_P 	P 	0.83592	0.58209	0.37129	0.511
Mof_P 	P 	0.75889	0.70382	0.43076	0.505
Mof_Zn	Zn	0.81648	0.69137	0.37193	1.188
Mof_Zn	Zn	0.75624	0.59437	0.41951	1.183
Mof_C 	C 	0.8565	0.4572	0.3945	0.387
Mof_H 	H 	0.8591	0.4893	0.405	-0.061
Mof_C 	C 	0.8031	0.4412	0.394	-0.675
Mof_H 	H 	0.7915	0.4372	0.4152	0.209
Mof_H 	H 	0.8002	0.4103	0.3831	0.208
Mof_H 	H 	0.7836	0.4659	0.3836	0.209
Mof_C 	C 	0.8931	0.4209	0.4096	-0.675
Mof_H 	H 	0.9262	0.4332	0.407	0.223
Mof_H 	H 	0.8903	0.3892	0.3995	0.213
Mof_H 	H 	0.8857	0.4176	0.4315	0.214
Mof_C 	C 	0.2214	0.2603	0.97346	0.264
Mof_C 	C 	0.2002	0.2411	0.99959	-0.242
Mof_C 	C 	0.1615	0.2646	0.0133	0.118
Mof_H 	H 	0.1469	0.2514	0.0312	-0.037
Mof_C 	C 	0.144	0.3074	0.0009	-0.175
Mof_H 	H 	0.1175	0.3236	0.0103	0.076
Mof_C 	C 	0.1653	0.3267	0.9748	0.093
Mof_H 	H 	0.1533	0.356	0.9663	-0.015
Mof_C 	C 	0.204	0.3031	0.961	-0.188
Mof_C 	C 	0.2273	0.3319	0.9325	0.331
Mof_H 	H 	0.2562	0.3117	0.9271	-0.047
Mof_C 	C 	0.2046	0.3434	0.9008	-0.632
Mof_H 	H 	0.2288	0.3596	0.8878	0.183
Mof_H 	H 	0.1766	0.3648	0.9036	0.202
Mof_H 	H 	0.1942	0.3132	0.891	0.211
Mof_C 	C 	0.2499	0.3764	0.948	-0.634
Mof_H 	H 	0.2682	0.3951	0.9327	0.196
Mof_H 	H 	0.2718	0.3658	0.9645	0.209
Mof_H 	H 	0.2242	0.3967	0.9567	0.201
Mof_C 	C 	0.221	0.1951	0.0132	0.429
Mof_H 	H 	0.2543	0.1869	0.0057	-0.084
Mof_C 	C 	0.184	0.1561	0.0077	-0.718
Mof_H 	H 	0.1778	0.1532	0.9856	0.229
Mof_H 	H 	0.1538	0.1645	0.0183	0.221
Mof_H 	H 	0.1962	0.1252	0.0156	0.222
Mof_C 	C 	0.2175	0.2008	0.0483	-0.685
Mof_H 	H 	0.2412	0.2249	0.0553	0.214
Mof_H 	H 	0.2242	0.1696	0.0582	0.211
Mof_H 	H 	0.1848	0.2116	0.0538	0.213
Mof_C 	C 	0.3857	0.00623	0.84935	0.321
Mof_C 	C 	0.3718	0.9626	0.86102	-0.274
Mof_C 	C 	0.3724	0.9225	0.84288	0.175
Mof_H 	H 	0.3627	0.8921	0.851	-0.054
Mof_C 	C 	0.3869	0.9259	0.81306	-0.263
Mof_H 	H 	0.3874	0.8979	0.8004	0.091
Mof_C 	C 	0.4009	0.9695	0.80138	0.186
Mof_H 	H 	0.411	0.9719	0.7806	-0.062
Mof_C 	C 	0.4003	0.00965	0.81953	-0.299
Mof_C 	C 	0.4158	0.0586	0.8073	0.422
Mof_H 	H 	0.4083	0.0846	0.8226	-0.076
Mof_C 	C 	0.3943	0.0712	0.7759	-0.654
Mof_H 	H 	0.3589	0.0715	0.7774	0.205
Mof_H 	H 	0.4045	0.0469	0.7608	0.201
Mof_H 	H 	0.4059	0.1033	0.7695	0.198
Mof_C 	C 	0.467	0.0637	0.7958	-0.679
Mof_H 	H 	0.4723	0.097	0.7888	0.211
Mof_H 	H 	0.4723	0.0412	0.7787	0.201
Mof_H 	H 	0.4897	0.0562	0.8125	0.219
Mof_C 	C 	0.4316	0.2791	0.8375	0.046
Mof_H 	H 	0.4324	0.3037	0.8527	0.021
Mof_C 	C 	0.461	0.2831	0.8123	-0.102
Mof_H 	H 	0.4836	0.309	0.8106	0.054
Mof_C 	C 	0.4571	0.2476	0.78861	0.026
Mof_C 	C 	0.489	0.2523	0.76037	0.055
Mof_C 	C 	0.4251	0.2113	0.79218	-0.094
Mof_H 	H 	0.4213	0.1878	0.7764	0.041
Mof_C 	C 	0.3977	0.2084	0.8188	0.039
Mof_H 	H 	0.3755	0.1823	0.8214	0.005
Mof_C 	C 	0.5064	0.2314	0.70843	0.06
Mof_H 	H 	0.497	0.2145	0.6903	-0.003
Mof_C 	C 	0.4757	0.2315	0.7333	-0.135
Mof_H 	H 	0.4447	0.2167	0.7316	0.061
Mof_C 	C 	0.5317	0.2766	0.7612	-0.13
Mof_H 	H 	0.5414	0.2936	0.7792	0.063
Mof_C 	C 	0.5616	0.2763	0.73494	0.052
Mof_H 	H 	0.592	0.2924	0.7358	0.005
Mof_N 	N 	0.4022	0.2416	0.84096	-0.065
Mof_N 	N 	0.5486	0.2541	0.70885	-0.241
Mof_O 	O 	0.385	0.0467	0.868	-0.277
Mof_O 	O 	0.35572	0.13297	0.86928	-0.481
Mof_O 	O 	0.3163	0.0707	0.90234	-0.503
Mof_O 	O 	0.3047	0.0673	0.84511	-0.523
Mof_O 	O 	0.2629	0.2399	0.96117	-0.266
Mof_O 	O 	0.3013	0.21887	0.91154	-0.492
Mof_O 	O 	0.2632	0.15374	0.94326	-0.502
Mof_O 	O 	0.2105	0.215	0.91688	-0.505
Mof_O 	O 	0.3764	0.2365	0.86684	-0.283
Mof_P 	P 	0.33592	0.08209	0.87129	0.511
Mof_P 	P 	0.25889	0.20382	0.93076	0.505
Mof_Zn	Zn	0.31648	0.19137	0.87193	1.188
Mof_Zn	Zn	0.25624	0.09437	0.91951	1.183
Mof_C 	C 	0.3565	0.9572	0.8945	0.387
Mof_H 	H 	0.3591	0.9893	0.905	-0.061
Mof_C 	C 	0.3031	0.9412	0.894	-0.675
Mof_H 	H 	0.2915	0.9372	0.9152	0.209
Mof_H 	H 	0.3002	0.9103	0.8831	0.208
Mof_H 	H 	0.2836	0.9659	0.8836	0.209
Mof_C 	C 	0.3931	0.9209	0.9096	-0.675
Mof_H 	H 	0.4262	0.9332	0.907	0.223
Mof_H 	H 	0.3903	0.8892	0.8995	0.213
Mof_H 	H 	0.3857	0.9176	0.9315	0.214
Mof_C 	C 	0.2603	0.7786	0.02654	0.264
Mof_C 	C 	0.2411	0.7998	0.00041	-0.242
Mof_C 	C 	0.2646	0.8385	0.9867	0.118
Mof_H 	H 	0.2514	0.8531	0.9688	-0.037
Mof_C 	C 	0.3074	0.856	0.9991	-0.175
Mof_H 	H 	0.3236	0.8825	0.9897	0.076
Mof_C 	C 	0.3267	0.8347	0.0252	0.093
Mof_H 	H 	0.356	0.8467	0.0337	-0.015
Mof_C 	C 	0.3031	0.796	0.039	-0.188
Mof_C 	C 	0.3319	0.7727	0.0675	0.331
Mof_H 	H 	0.3117	0.7438	0.0729	-0.047
Mof_C 	C 	0.3434	0.7954	0.0992	-0.632
Mof_H 	H 	0.3596	0.7712	0.1122	0.183
Mof_H 	H 	0.3648	0.8234	0.0964	0.202
Mof_H 	H 	0.3132	0.8058	0.109	0.211
Mof_C 	C 	0.3764	0.7501	0.052	-0.634
Mof_H 	H 	0.3951	0.7318	0.0673	0.196
Mof_H 	H 	0.3658	0.7282	0.0355	0.209
Mof_H 	H 	0.3967	0.7758	0.0433	0.201
Mof_C 	C 	0.1951	0.779	0.9868	0.429
Mof_H 	H 	0.1869	0.7457	0.9943	-0.084
Mof_C 	C 	0.1561	0.816	0.9923	-0.718
Mof_H 	H 	0.1532	0.8222	0.0144	0.229
Mof_H 	H 	0.1645	0.8462	0.9817	0.221
Mof_H 	H 	0.1252	0.8038	0.9844	0.222
Mof_C 	C 	0.2008	0.7825	0.9517	-0.685
Mof_H 	H 	0.2249	0.7588	0.9447	0.214
Mof_H 	H 	0.1696	0.7758	0.9418	0.211
Mof_H 	H 	0.2116	0.8152	0.9462	0.213
Mof_C 	C 	0.00623	0.6143	0.15065	0.321
Mof_C 	C 	0.9626	0.6282	0.13898	-0.274
Mof_C 	C 	0.9225	0.6276	0.15712	0.175
Mof_H 	H 	0.8921	0.6373	0.149	-0.054
Mof_C 	C 	0.9259	0.6131	0.18694	-0.263
Mof_H 	H 	0.8979	0.6126	0.1996	0.091
Mof_C 	C 	0.9695	0.5991	0.19862	0.186
Mof_H 	H 	0.9719	0.589	0.2194	-0.062
Mof_C 	C 	0.00965	0.5997	0.18047	-0.299
Mof_C 	C 	0.0586	0.5842	0.1927	0.422
Mof_H 	H 	0.0846	0.5917	0.1774	-0.076
Mof_C 	C 	0.0712	0.6057	0.2241	-0.654
Mof_H 	H 	0.0715	0.6411	0.2226	0.205
Mof_H 	H 	0.0469	0.5955	0.2392	0.201
Mof_H 	H 	0.1033	0.5941	0.2305	0.198
Mof_C 	C 	0.0637	0.533	0.2042	-0.679
Mof_H 	H 	0.097	0.5277	0.2112	0.211
Mof_H 	H 	0.0412	0.5277	0.2213	0.201
Mof_H 	H 	0.0562	0.5103	0.1875	0.219
Mof_C 	C 	0.2791	0.5684	0.1625	0.046
Mof_H 	H 	0.3037	0.5676	0.1473	0.021
Mof_C 	C 	0.2831	0.539	0.1877	-0.102
Mof_H 	H 	0.309	0.5164	0.1894	0.054
Mof_C 	C 	0.2476	0.5429	0.21139	0.026
Mof_C 	C 	0.2523	0.511	0.23963	0.055
Mof_C 	C 	0.2113	0.5749	0.20782	-0.094
Mof_H 	H 	0.1878	0.5787	0.2236	0.041
Mof_C 	C 	0.2084	0.6023	0.1812	0.039
Mof_H 	H 	0.1823	0.6245	0.1786	0.005
Mof_C 	C 	0.2314	0.4936	0.29157	0.06
Mof_H 	H 	0.2145	0.503	0.3097	-0.003
Mof_C 	C 	0.2315	0.5243	0.2667	-0.135
Mof_H 	H 	0.2167	0.5553	0.2684	0.061
Mof_C 	C 	0.2766	0.4683	0.2388	-0.13
Mof_H 	H 	0.2936	0.4586	0.2208	0.063
Mof_C 	C 	0.2763	0.4384	0.26506	0.052
Mof_H 	H 	0.2924	0.408	0.2642	0.005
Mof_N 	N 	0.2416	0.5978	0.15904	-0.065
Mof_N 	N 	0.2541	0.4514	0.29115	-0.241
Mof_O 	O 	0.0467	0.615	0.132	-0.277
Mof_O 	O 	0.13297	0.64428	0.13072	-0.481
Mof_O 	O 	0.0707	0.6837	0.09766	-0.503
Mof_O 	O 	0.0673	0.6953	0.15489	-0.523
Mof_O 	O 	0.2399	0.7371	0.03883	-0.266
Mof_O 	O 	0.21887	0.6987	0.08846	-0.492
Mof_O 	O 	0.15374	0.7368	0.05674	-0.502
Mof_O 	O 	0.215	0.7895	0.08312	-0.505
Mof_O 	O 	0.2365	0.6236	0.13316	-0.283
Mof_P 	P 	0.08209	0.66408	0.12871	0.511
Mof_P 	P 	0.20382	0.74111	0.06924	0.505
Mof_Zn	Zn	0.19137	0.68352	0.12807	1.188
Mof_Zn	Zn	0.09437	0.74376	0.08049	1.183
Mof_C 	C 	0.9572	0.6435	0.1055	0.387
Mof_H 	H 	0.9893	0.6409	0.095	-0.061
Mof_C 	C 	0.9412	0.6969	0.106	-0.675
Mof_H 	H 	0.9372	0.7085	0.0848	0.209
Mof_H 	H 	0.9103	0.6998	0.1169	0.208
Mof_H 	H 	0.9659	0.7164	0.1164	0.209
Mof_C 	C 	0.9209	0.6069	0.0904	-0.675
Mof_H 	H 	0.9332	0.5738	0.093	0.223
Mof_H 	H 	0.8892	0.6097	0.1005	0.213
Mof_H 	H 	0.9176	0.6143	0.0685	0.214
Mof_C 	C 	0.7603	0.2786	0.52654	0.264
Mof_C 	C 	0.7411	0.2998	0.50041	-0.242
Mof_C 	C 	0.7646	0.3385	0.4867	0.118
Mof_H 	H 	0.7514	0.3531	0.4688	-0.037
Mof_C 	C 	0.8074	0.356	0.4991	-0.175
Mof_H 	H 	0.8236	0.3825	0.4897	0.076
Mof_C 	C 	0.8267	0.3347	0.5252	0.093
Mof_H 	H 	0.856	0.3467	0.5337	-0.015
Mof_C 	C 	0.8031	0.296	0.539	-0.188
Mof_C 	C 	0.8319	0.2727	0.5675	0.331
Mof_H 	H 	0.8117	0.2438	0.5729	-0.047
Mof_C 	C 	0.8434	0.2954	0.5992	-0.632
Mof_H 	H 	0.8596	0.2712	0.6122	0.183
Mof_H 	H 	0.8648	0.3234	0.5964	0.202
Mof_H 	H 	0.8132	0.3058	0.609	0.211
Mof_C 	C 	0.8764	0.2501	0.552	-0.634
Mof_H 	H 	0.8951	0.2318	0.5673	0.196
Mof_H 	H 	0.8658	0.2282	0.5355	0.209
Mof_H 	H 	0.8967	0.2758	0.5433	0.201
Mof_C 	C 	0.6951	0.279	0.4868	0.429
Mof_H 	H 	0.6869	0.2457	0.4943	-0.084
Mof_C 	C 	0.6561	0.316	0.4923	-0.718
Mof_H 	H 	0.6532	0.3222	0.5144	0.229
Mof_H 	H 	0.6645	0.3462	0.4817	0.221
Mof_H 	H 	0.6252	0.3038	0.4844	0.222
Mof_C 	C 	0.7008	0.2825	0.4517	-0.685
Mof_H 	H 	0.7249	0.2588	0.4447	0.214
Mof_H 	H 	0.6696	0.2758	0.4418	0.211
Mof_H 	H 	0.7116	0.3152	0.4462	0.213
Mof_C 	C 	0.50623	0.1143	0.65065	0.321
Mof_C 	C 	0.4626	0.1282	0.63898	-0.274
Mof_C 	C 	0.4225	0.1276	0.65712	0.175
Mof_H 	H 	0.3921	0.1373	0.649	-0.054
Mof_C 	C 	0.4259	0.1131	0.68694	-0.263
Mof_H 	H 	0.3979	0.1126	0.6996	0.091
Mof_C 	C 	0.4695	0.0991	0.69862	0.186
Mof_H 	H 	0.4719	0.089	0.7194	-0.062
Mof_C 	C 	0.50965	0.0997	0.68047	-0.299
Mof_C 	C 	0.5586	0.0842	0.6927	0.422
Mof_H 	H 	0.5846	0.0917	0.6774	-0.076
Mof_C 	C 	0.5712	0.1057	0.7241	-0.654
Mof_H 	H 	0.5715	0.1411	0.7226	0.205
Mof_H 	H 	0.5469	0.0955	0.7392	0.201
Mof_H 	H 	0.6033	0.0941	0.7305	0.198
Mof_C 	C 	0.5637	0.033	0.7042	-0.679
Mof_H 	H 	0.597	0.0277	0.7112	0.211
Mof_H 	H 	0.5412	0.0277	0.7213	0.201
Mof_H 	H 	0.5562	0.0103	0.6875	0.219
Mof_C 	C 	0.7791	0.0684	0.6625	0.046
Mof_H 	H 	0.8037	0.0676	0.6473	0.021
Mof_C 	C 	0.7831	0.039	0.6877	-0.102
Mof_H 	H 	0.809	0.0164	0.6894	0.054
Mof_C 	C 	0.7476	0.0429	0.71139	0.026
Mof_C 	C 	0.7523	0.011	0.73963	0.055
Mof_C 	C 	0.7113	0.0749	0.70782	-0.094
Mof_H 	H 	0.6878	0.0787	0.7236	0.041
Mof_C 	C 	0.7084	0.1023	0.6812	0.039
Mof_H 	H 	0.6823	0.1245	0.6786	0.005
Mof_C 	C 	0.7314	0.9936	0.79157	0.06
Mof_H 	H 	0.7145	0.003	0.8097	-0.003
Mof_C 	C 	0.7315	0.0243	0.7667	-0.135
Mof_H 	H 	0.7167	0.0553	0.7684	0.061
Mof_C 	C 	0.7766	0.9683	0.7388	-0.13
Mof_H 	H 	0.7936	0.9586	0.7208	0.063
Mof_C 	C 	0.7763	0.9384	0.76506	0.052
Mof_H 	H 	0.7924	0.908	0.7642	0.005
Mof_N 	N 	0.7416	0.0978	0.65904	-0.065
Mof_N 	N 	0.7541	0.9514	0.79115	-0.241
Mof_O 	O 	0.5467	0.115	0.632	-0.277
Mof_O 	O 	0.63297	0.14428	0.63072	-0.481
Mof_O 	O 	0.5707	0.1837	0.59766	-0.503
Mof_O 	O 	0.5673	0.1953	0.65489	-0.523
Mof_O 	O 	0.7399	0.2371	0.53883	-0.266
Mof_O 	O 	0.71887	0.1987	0.58846	-0.492
Mof_O 	O 	0.65374	0.2368	0.55674	-0.502
Mof_O 	O 	0.715	0.2895	0.58312	-0.505
Mof_O 	O 	0.7365	0.1236	0.63316	-0.283
Mof_P 	P 	0.58209	0.16408	0.62871	0.511
Mof_P 	P 	0.70382	0.24111	0.56924	0.505
Mof_Zn	Zn	0.69137	0.18352	0.62807	1.188
Mof_Zn	Zn	0.59437	0.24376	0.58049	1.183
Mof_C 	C 	0.4572	0.1435	0.6055	0.387
Mof_H 	H 	0.4893	0.1409	0.595	-0.061
Mof_C 	C 	0.4412	0.1969	0.606	-0.675
Mof_H 	H 	0.4372	0.2085	0.5848	0.209
Mof_H 	H 	0.4103	0.1998	0.6169	0.208
Mof_H 	H 	0.4659	0.2164	0.6164	0.209
Mof_C 	C 	0.4209	0.1069	0.5904	-0.675
Mof_H 	H 	0.4332	0.0738	0.593	0.223
Mof_H 	H 	0.3892	0.1097	0.6005	0.213
Mof_H 	H 	0.4176	0.1143	0.5685	0.214
Mof_C 	C 	0.7397	0.2214	0.02654	0.264
Mof_C 	C 	0.7589	0.2002	0.00041	-0.242
Mof_C 	C 	0.7354	0.1615	0.9867	0.118
Mof_H 	H 	0.7486	0.1469	0.9688	-0.037
Mof_C 	C 	0.6926	0.144	0.9991	-0.175
Mof_H 	H 	0.6764	0.1175	0.9897	0.076
Mof_C 	C 	0.6733	0.1653	0.0252	0.093
Mof_H 	H 	0.644	0.1533	0.0337	-0.015
Mof_C 	C 	0.6969	0.204	0.039	-0.188
Mof_C 	C 	0.6681	0.2273	0.0675	0.331
Mof_H 	H 	0.6883	0.2562	0.0729	-0.047
Mof_C 	C 	0.6566	0.2046	0.0992	-0.632
Mof_H 	H 	0.6404	0.2288	0.1122	0.183
Mof_H 	H 	0.6352	0.1766	0.0964	0.202
Mof_H 	H 	0.6868	0.1942	0.109	0.211
Mof_C 	C 	0.6236	0.2499	0.052	-0.634
Mof_H 	H 	0.6049	0.2682	0.0673	0.196
Mof_H 	H 	0.6342	0.2718	0.0355	0.209
Mof_H 	H 	0.6033	0.2242	0.0433	0.201
Mof_C 	C 	0.8049	0.221	0.9868	0.429
Mof_H 	H 	0.8131	0.2543	0.9943	-0.084
Mof_C 	C 	0.8439	0.184	0.9923	-0.718
Mof_H 	H 	0.8468	0.1778	0.0144	0.229
Mof_H 	H 	0.8355	0.1538	0.9817	0.221
Mof_H 	H 	0.8748	0.1962	0.9844	0.222
Mof_C 	C 	0.7992	0.2175	0.9517	-0.685
Mof_H 	H 	0.7751	0.2412	0.9447	0.214
Mof_H 	H 	0.8304	0.2242	0.9418	0.211
Mof_H 	H 	0.7884	0.1848	0.9462	0.213
Mof_C 	C 	0.99377	0.3857	0.15065	0.321
Mof_C 	C 	0.0374	0.3718	0.13898	-0.274
Mof_C 	C 	0.0775	0.3724	0.15712	0.175
Mof_H 	H 	0.1079	0.3627	0.149	-0.054
Mof_C 	C 	0.0741	0.3869	0.18694	-0.263
Mof_H 	H 	0.1021	0.3874	0.1996	0.091
Mof_C 	C 	0.0305	0.4009	0.19862	0.186
Mof_H 	H 	0.0281	0.411	0.2194	-0.062
Mof_C 	C 	0.99035	0.4003	0.18047	-0.299
Mof_C 	C 	0.9414	0.4158	0.1927	0.422
Mof_H 	H 	0.9154	0.4083	0.1774	-0.076
Mof_C 	C 	0.9288	0.3943	0.2241	-0.654
Mof_H 	H 	0.9285	0.3589	0.2226	0.205
Mof_H 	H 	0.9531	0.4045	0.2392	0.201
Mof_H 	H 	0.8967	0.4059	0.2305	0.198
Mof_C 	C 	0.9363	0.467	0.2042	-0.679
Mof_H 	H 	0.903	0.4723	0.2112	0.211
Mof_H 	H 	0.9588	0.4723	0.2213	0.201
Mof_H 	H 	0.9438	0.4897	0.1875	0.219
Mof_C 	C 	0.7209	0.4316	0.1625	0.046
Mof_H 	H 	0.6963	0.4324	0.1473	0.021
Mof_C 	C 	0.7169	0.461	0.1877	-0.102
Mof_H 	H 	0.691	0.4836	0.1894	0.054
Mof_C 	C 	0.7524	0.4571	0.21139	0.026
Mof_C 	C 	0.7477	0.489	0.23963	0.055
Mof_C 	C 	0.7887	0.4251	0.20782	-0.094
Mof_H 	H 	0.8122	0.4213	0.2236	0.041
Mof_C 	C 	0.7916	0.3977	0.1812	0.039
Mof_H 	H 	0.8177	0.3755	0.1786	0.005
Mof_C 	C 	0.7686	0.5064	0.29157	0.06
Mof_H 	H 	0.7855	0.497	0.3097	-0.003
Mof_C 	C 	0.7685	0.4757	0.2667	-0.135
Mof_H 	H 	0.7833	0.4447	0.2684	0.061
Mof_C 	C 	0.7234	0.5317	0.2388	-0.13
Mof_H 	H 	0.7064	0.5414	0.2208	0.063
Mof_C 	C 	0.7237	0.5616	0.26506	0.052
Mof_H 	H 	0.7076	0.592	0.2642	0.005
Mof_N 	N 	0.7584	0.4022	0.15904	-0.065
Mof_N 	N 	0.7459	0.5486	0.29115	-0.241
Mof_O 	O 	0.9533	0.385	0.132	-0.277
Mof_O 	O 	0.86703	0.35572	0.13072	-0.481
Mof_O 	O 	0.9293	0.3163	0.09766	-0.503
Mof_O 	O 	0.9327	0.3047	0.15489	-0.523
Mof_O 	O 	0.7601	0.2629	0.03883	-0.266
Mof_O 	O 	0.78113	0.3013	0.08846	-0.492
Mof_O 	O 	0.84626	0.2632	0.05674	-0.502
Mof_O 	O 	0.785	0.2105	0.08312	-0.505
Mof_O 	O 	0.7635	0.3764	0.13316	-0.283
Mof_P 	P 	0.91791	0.33592	0.12871	0.511
Mof_P 	P 	0.79618	0.25889	0.06924	0.505
Mof_Zn	Zn	0.80863	0.31648	0.12807	1.188
Mof_Zn	Zn	0.90563	0.25624	0.08049	1.183
Mof_C 	C 	0.0428	0.3565	0.1055	0.387
Mof_H 	H 	0.0107	0.3591	0.095	-0.061
Mof_C 	C 	0.0588	0.3031	0.106	-0.675
Mof_H 	H 	0.0628	0.2915	0.0848	0.209
Mof_H 	H 	0.0897	0.3002	0.1169	0.208
Mof_H 	H 	0.0341	0.2836	0.1164	0.209
Mof_C 	C 	0.0791	0.3931	0.0904	-0.675
Mof_H 	H 	0.0668	0.4262	0.093	0.223
Mof_H 	H 	0.1108	0.3903	0.1005	0.213
Mof_H 	H 	0.0824	0.3857	0.0685	0.214
Mof_C 	C 	0.2397	0.7214	0.52654	0.264
Mof_C 	C 	0.2589	0.7002	0.50041	-0.242
Mof_C 	C 	0.2354	0.6615	0.4867	0.118
Mof_H 	H 	0.2486	0.6469	0.4688	-0.037
Mof_C 	C 	0.1926	0.644	0.4991	-0.175
Mof_H 	H 	0.1764	0.6175	0.4897	0.076
Mof_C 	C 	0.1733	0.6653	0.5252	0.093
Mof_H 	H 	0.144	0.6533	0.5337	-0.015
Mof_C 	C 	0.1969	0.704	0.539	-0.188
Mof_C 	C 	0.1681	0.7273	0.5675	0.331
Mof_H 	H 	0.1883	0.7562	0.5729	-0.047
Mof_C 	C 	0.1566	0.7046	0.5992	-0.632
Mof_H 	H 	0.1404	0.7288	0.6122	0.183
Mof_H 	H 	0.1352	0.6766	0.5964	0.202
Mof_H 	H 	0.1868	0.6942	0.609	0.211
Mof_C 	C 	0.1236	0.7499	0.552	-0.634
Mof_H 	H 	0.1049	0.7682	0.5673	0.196
Mof_H 	H 	0.1342	0.7718	0.5355	0.209
Mof_H 	H 	0.1033	0.7242	0.5433	0.201
Mof_C 	C 	0.3049	0.721	0.4868	0.429
Mof_H 	H 	0.3131	0.7543	0.4943	-0.084
Mof_C 	C 	0.3439	0.684	0.4923	-0.718
Mof_H 	H 	0.3468	0.6778	0.5144	0.229
Mof_H 	H 	0.3355	0.6538	0.4817	0.221
Mof_H 	H 	0.3748	0.6962	0.4844	0.222
Mof_C 	C 	0.2992	0.7175	0.4517	-0.685
Mof_H 	H 	0.2751	0.7412	0.4447	0.214
Mof_H 	H 	0.3304	0.7242	0.4418	0.211
Mof_H 	H 	0.2884	0.6848	0.4462	0.213
Mof_C 	C 	0.49377	0.8857	0.65065	0.321
Mof_C 	C 	0.5374	0.8718	0.63898	-0.274
Mof_C 	C 	0.5775	0.8724	0.65712	0.175
Mof_H 	H 	0.6079	0.8627	0.649	-0.054
Mof_C 	C 	0.5741	0.8869	0.68694	-0.263
Mof_H 	H 	0.6021	0.8874	0.6996	0.091
Mof_C 	C 	0.5305	0.9009	0.69862	0.186
Mof_H 	H 	0.5281	0.911	0.7194	-0.062
Mof_C 	C 	0.49035	0.9003	0.68047	-0.299
Mof_C 	C 	0.4414	0.9158	0.6927	0.422
Mof_H 	H 	0.4154	0.9083	0.6774	-0.076
Mof_C 	C 	0.4288	0.8943	0.7241	-0.654
Mof_H 	H 	0.4285	0.8589	0.7226	0.205
Mof_H 	H 	0.4531	0.9045	0.7392	0.201
Mof_H 	H 	0.3967	0.9059	0.7305	0.198
Mof_C 	C 	0.4363	0.967	0.7042	-0.679
Mof_H 	H 	0.403	0.9723	0.7112	0.211
Mof_H 	H 	0.4588	0.9723	0.7213	0.201
Mof_H 	H 	0.4438	0.9897	0.6875	0.219
Mof_C 	C 	0.2209	0.9316	0.6625	0.046
Mof_H 	H 	0.1963	0.9324	0.6473	0.021
Mof_C 	C 	0.2169	0.961	0.6877	-0.102
Mof_H 	H 	0.191	0.9836	0.6894	0.054
Mof_C 	C 	0.2524	0.9571	0.71139	0.026
Mof_C 	C 	0.2477	0.989	0.73963	0.055
Mof_C 	C 	0.2887	0.9251	0.70782	-0.094
Mof_H 	H 	0.3122	0.9213	0.7236	0.041
Mof_C 	C 	0.2916	0.8977	0.6812	0.039
Mof_H 	H 	0.3177	0.8755	0.6786	0.005
Mof_C 	C 	0.2686	0.0064	0.79157	0.06
Mof_H 	H 	0.2855	0.997	0.8097	-0.003
Mof_C 	C 	0.2685	0.9757	0.7667	-0.135
Mof_H 	H 	0.2833	0.9447	0.7684	0.061
Mof_C 	C 	0.2234	0.0317	0.7388	-0.13
Mof_H 	H 	0.2064	0.0414	0.7208	0.063
Mof_C 	C 	0.2237	0.0616	0.76506	0.052
Mof_H 	H 	0.2076	0.092	0.7642	0.005
Mof_N 	N 	0.2584	0.9022	0.65904	-0.065
Mof_N 	N 	0.2459	0.0486	0.79115	-0.241
Mof_O 	O 	0.4533	0.885	0.632	-0.277
Mof_O 	O 	0.36703	0.85572	0.63072	-0.481
Mof_O 	O 	0.4293	0.8163	0.59766	-0.503
Mof_O 	O 	0.4327	0.8047	0.65489	-0.523
Mof_O 	O 	0.2601	0.7629	0.53883	-0.266
Mof_O 	O 	0.28113	0.8013	0.58846	-0.492
Mof_O 	O 	0.34626	0.7632	0.55674	-0.502
Mof_O 	O 	0.285	0.7105	0.58312	-0.505
Mof_O 	O 	0.2635	0.8764	0.63316	-0.283
Mof_P 	P 	0.41791	0.83592	0.62871	0.511
Mof_P 	P 	0.29618	0.75889	0.56924	0.505
Mof_Zn	Zn	0.30863	0.81648	0.62807	1.188
Mof_Zn	Zn	0.40563	0.75624	0.58049	1.183
Mof_C 	C 	0.5428	0.8565	0.6055	0.387
Mof_H 	H 	0.5107	0.8591	0.595	-0.061
Mof_C 	C 	0.5588	0.8031	0.606	-0.675
Mof_H 	H 	0.5628	0.7915	0.5848	0.209
Mof_H 	H 	0.5897	0.8002	0.6169	0.208
Mof_H 	H 	0.5341	0.7836	0.6164	0.209
Mof_C 	C 	0.5791	0.8931	0.5904	-0.675
Mof_H 	H 	0.5668	0.9262	0.593	0.223
Mof_H 	H 	0.6108	0.8903	0.6005	0.213
Mof_H 	H 	0.5824	0.8857	0.5685	0.214
_end
