data_functionalizedCrystal
_audit_creation_method	'EQeq! by Chris Wilmer'
_symmetry_space_group_name_H-M	'P1'
_symmetry_Int_Tables_number	1
_symmetry_cell_setting	triclinic
loop_
_symmetry_equiv_pos_as_xyz
  x,y,z
_cell_length_a	11.961
_cell_length_b	17.566
_cell_length_c	18.514
_cell_angle_alpha	116.65
_cell_angle_beta	90
_cell_angle_gamma	90
loop_
_atom_site_label
_atom_site_type_symbol
_atom_site_fract_x
_atom_site_fract_y
_atom_site_fract_z
_atom_site_charge
Mof_Mg	Mg	0.58148	0.71276	0.97254	1.475
Mof_Mg	Mg	0.4476	0.71219	0.80047	1.464
Mof_Mg	Mg	0.82122	0.83418	0.11854	1.46
Mof_Mg	Mg	0.08148	0.28724	0.52746	1.475
Mof_Mg	Mg	0.9476	0.28781	0.69953	1.464
Mof_Mg	Mg	0.32122	0.16582	0.38146	1.46
Mof_Mg	Mg	0.41852	0.28724	0.02746	1.474
Mof_Mg	Mg	0.5524	0.28781	0.19953	1.463
Mof_Mg	Mg	0.17878	0.16582	0.88146	1.459
Mof_Mg	Mg	0.91852	0.71276	0.47254	1.474
Mof_Mg	Mg	0.0524	0.71219	0.30047	1.463
Mof_Mg	Mg	0.67878	0.83418	0.61854	1.459
Mof_H 	H 	0.691	0.7003	0.7265	-0.027
Mof_H 	H 	0.9016	0.5286	0.5681	0.009
Mof_H 	H 	0.7875	0.4993	0.7574	-0.012
Mof_H 	H 	0.6574	0.8254	0.8796	-0.013
Mof_H 	H 	0.682	0.054	0.0713	0.007
Mof_H 	H 	0.5449	0.0331	0.8661	-0.011
Mof_H 	H 	0.191	0.2997	0.7735	-0.027
Mof_H 	H 	0.4016	0.4714	0.9319	0.008
Mof_H 	H 	0.2875	0.5007	0.7426	-0.011
Mof_H 	H 	0.1574	0.1746	0.6204	-0.01
Mof_H 	H 	0.182	0.946	0.4287	0.007
Mof_H 	H 	0.0449	0.9669	0.6339	-0.01
Mof_H 	H 	0.309	0.2997	0.2735	-0.027
Mof_H 	H 	0.0984	0.4714	0.4319	0.009
Mof_H 	H 	0.2125	0.5007	0.2426	-0.012
Mof_H 	H 	0.3426	0.1746	0.1204	-0.013
Mof_H 	H 	0.318	0.946	0.9287	0.007
Mof_H 	H 	0.4551	0.9669	0.1339	-0.011
Mof_H 	H 	0.809	0.7003	0.2265	-0.027
Mof_H 	H 	0.5984	0.5286	0.0681	0.008
Mof_H 	H 	0.7125	0.4993	0.2574	-0.011
Mof_H 	H 	0.8426	0.8254	0.3796	-0.01
Mof_H 	H 	0.818	0.054	0.5713	0.007
Mof_H 	H 	0.9551	0.0331	0.3661	-0.01
Mof_C 	C 	0.7973	0.6232	0.6406	-0.211
Mof_C 	C 	0.7339	0.6512	0.7103	0.122
Mof_C 	C 	0.7336	0.6068	0.7563	-0.218
Mof_C 	C 	0.8571	0.5469	0.614	0.136
Mof_C 	C 	0.6756	0.6431	0.8362	0.398
Mof_C 	C 	0.7949	0.6758	0.5951	0.464
Mof_C 	C 	0.7899	0.5303	0.7278	0.138
Mof_C 	C 	0.8503	0.4982	0.656	-0.215
Mof_C 	C 	0.9023	0.4121	0.6275	0.466
Mof_C 	C 	0.7263	0.8927	0.0321	0.375
Mof_C 	C 	0.6459	0.8839	0.9033	0.111
Mof_C 	C 	0.6773	0.9339	0.9837	-0.188
Mof_C 	C 	0.5975	0.921	0.8587	-0.23
Mof_C 	C 	0.6588	0.0204	0.0185	0.118
Mof_C 	C 	0.5732	0.1514	0.0213	0.469
Mof_C 	C 	0.5778	0.0081	0.8957	0.148
Mof_C 	C 	0.6059	0.0586	0.9759	-0.199
Mof_C 	C 	0.5642	0.8637	0.7723	0.466
Mof_C 	C 	0.2973	0.3768	0.8594	-0.211
Mof_C 	C 	0.2339	0.3488	0.7897	0.122
Mof_C 	C 	0.2336	0.3932	0.7437	-0.218
Mof_C 	C 	0.3571	0.4531	0.886	0.136
Mof_C 	C 	0.1756	0.3569	0.6638	0.398
Mof_C 	C 	0.2949	0.3242	0.9049	0.464
Mof_C 	C 	0.2899	0.4697	0.7722	0.138
Mof_C 	C 	0.3503	0.5018	0.844	-0.215
Mof_C 	C 	0.4023	0.5879	0.8725	0.466
Mof_C 	C 	0.2263	0.1073	0.4679	0.369
Mof_C 	C 	0.1459	0.1161	0.5967	0.105
Mof_C 	C 	0.1773	0.0661	0.5163	-0.179
Mof_C 	C 	0.0975	0.079	0.6413	-0.22
Mof_C 	C 	0.1588	0.9796	0.4815	0.12
Mof_C 	C 	0.0732	0.8486	0.4787	0.477
Mof_C 	C 	0.0778	0.9919	0.6043	0.138
Mof_C 	C 	0.1059	0.9414	0.5241	-0.204
Mof_C 	C 	0.0642	0.1363	0.7277	0.463
Mof_C 	C 	0.2027	0.3768	0.3594	-0.211
Mof_C 	C 	0.2661	0.3488	0.2897	0.122
Mof_C 	C 	0.2664	0.3932	0.2437	-0.218
Mof_C 	C 	0.1429	0.4531	0.386	0.136
Mof_C 	C 	0.3244	0.3569	0.1638	0.398
Mof_C 	C 	0.2051	0.3242	0.4049	0.464
Mof_C 	C 	0.2101	0.4697	0.2722	0.138
Mof_C 	C 	0.1497	0.5018	0.344	-0.215
Mof_C 	C 	0.0977	0.5879	0.3725	0.466
Mof_C 	C 	0.2737	0.1073	0.9679	0.375
Mof_C 	C 	0.3541	0.1161	0.0967	0.111
Mof_C 	C 	0.3227	0.0661	0.0163	-0.188
Mof_C 	C 	0.4025	0.079	0.1413	-0.23
Mof_C 	C 	0.3412	0.9796	0.9815	0.118
Mof_C 	C 	0.4268	0.8486	0.9787	0.469
Mof_C 	C 	0.4222	0.9919	0.1043	0.148
Mof_C 	C 	0.3941	0.9414	0.0241	-0.199
Mof_C 	C 	0.4358	0.1363	0.2277	0.466
Mof_C 	C 	0.7027	0.6232	0.1406	-0.211
Mof_C 	C 	0.7661	0.6512	0.2103	0.122
Mof_C 	C 	0.7664	0.6068	0.2563	-0.218
Mof_C 	C 	0.6429	0.5469	0.114	0.136
Mof_C 	C 	0.8244	0.6431	0.3362	0.398
Mof_C 	C 	0.7051	0.6758	0.0951	0.464
Mof_C 	C 	0.7101	0.5303	0.2278	0.138
Mof_C 	C 	0.6497	0.4982	0.156	-0.215
Mof_C 	C 	0.5977	0.4121	0.1275	0.466
Mof_C 	C 	0.7737	0.8927	0.5321	0.369
Mof_C 	C 	0.8541	0.8839	0.4033	0.105
Mof_C 	C 	0.8227	0.9339	0.4837	-0.179
Mof_C 	C 	0.9025	0.921	0.3587	-0.22
Mof_C 	C 	0.8412	0.0204	0.5185	0.12
Mof_C 	C 	0.9268	0.1514	0.5213	0.477
Mof_C 	C 	0.9222	0.0081	0.3957	0.138
Mof_C 	C 	0.8941	0.0586	0.4759	-0.204
Mof_C 	C 	0.9358	0.8637	0.2723	0.463
Mof_O 	O 	0.5946	0.69509	0.84912	-0.643
Mof_O 	O 	0.8825	0.67904	0.55955	-0.533
Mof_O 	O 	0.7097	0.627	0.89142	-0.434
Mof_O 	O 	0.9657	0.38531	0.56658	-0.49
Mof_O 	O 	0.7052	0.7143	0.5981	-0.584
Mof_O 	O 	0.8771	0.3721	0.6665	-0.569
Mof_O 	O 	0.7134	0.81324	0.00975	-0.582
Mof_O 	O 	0.7822	0.9373	0.09433	-0.494
Mof_O 	O 	0.5944	0.18677	0.09475	-0.553
Mof_O 	O 	0.524	0.18513	0.98263	-0.521
Mof_O 	O 	0.5209	0.79343	0.7573	-0.542
Mof_O 	O 	0.5837	0.8891	0.71944	-0.557
Mof_O 	O 	0.0946	0.30491	0.65088	-0.642
Mof_O 	O 	0.3825	0.32096	0.94045	-0.532
Mof_O 	O 	0.2097	0.373	0.60858	-0.433
Mof_O 	O 	0.4657	0.61469	0.93342	-0.491
Mof_O 	O 	0.2052	0.2857	0.9019	-0.583
Mof_O 	O 	0.3771	0.6279	0.8335	-0.569
Mof_O 	O 	0.2134	0.18676	0.49025	-0.582
Mof_O 	O 	0.2822	0.0627	0.40567	-0.495
Mof_O 	O 	0.0944	0.81323	0.40525	-0.555
Mof_O 	O 	0.024	0.81487	0.51737	-0.526
Mof_O 	O 	0.0209	0.20657	0.7427	-0.54
Mof_O 	O 	0.0837	0.1109	0.78056	-0.554
Mof_O 	O 	0.4054	0.30491	0.15088	-0.643
Mof_O 	O 	0.1175	0.32096	0.44045	-0.533
Mof_O 	O 	0.2903	0.373	0.10858	-0.434
Mof_O 	O 	0.0343	0.61469	0.43342	-0.49
Mof_O 	O 	0.2948	0.2857	0.4019	-0.584
Mof_O 	O 	0.1229	0.6279	0.3335	-0.569
Mof_O 	O 	0.2866	0.18676	0.99025	-0.582
Mof_O 	O 	0.2178	0.0627	0.90567	-0.494
Mof_O 	O 	0.4056	0.81323	0.90525	-0.553
Mof_O 	O 	0.476	0.81487	0.01737	-0.521
Mof_O 	O 	0.4791	0.20657	0.2427	-0.542
Mof_O 	O 	0.4163	0.1109	0.28056	-0.557
Mof_O 	O 	0.9054	0.69509	0.34912	-0.642
Mof_O 	O 	0.6175	0.67904	0.05955	-0.532
Mof_O 	O 	0.7903	0.627	0.39142	-0.433
Mof_O 	O 	0.5343	0.38531	0.06658	-0.491
Mof_O 	O 	0.7948	0.7143	0.0981	-0.583
Mof_O 	O 	0.6229	0.3721	0.1665	-0.569
Mof_O 	O 	0.7866	0.81324	0.50975	-0.582
Mof_O 	O 	0.7178	0.9373	0.59433	-0.495
Mof_O 	O 	0.9056	0.18677	0.59475	-0.555
Mof_O 	O 	0.976	0.18513	0.48263	-0.526
Mof_O 	O 	0.9791	0.79343	0.2573	-0.54
Mof_O 	O 	0.9163	0.8891	0.21944	-0.554
_end
