data_functionalizedCrystal
_audit_creation_method	'EQeq! by Chris Wilmer'
_symmetry_space_group_name_H-M	'P1'
_symmetry_Int_Tables_number	1
_symmetry_cell_setting	triclinic
loop_
_symmetry_equiv_pos_as_xyz
  x,y,z
_cell_length_a	12.5085
_cell_length_b	12.5085
_cell_length_c	70.2284
_cell_angle_alpha	90
_cell_angle_beta	90
_cell_angle_gamma	90
loop_
_atom_site_label
_atom_site_type_symbol
_atom_site_fract_x
_atom_site_fract_y
_atom_site_fract_z
_atom_site_charge
Mof_Cu	Cu	0.61801	0.37977	0.83313	0.905
Mof_Cu	Cu	0.6869	0.44081	0.86729	0.928
Mof_Cu	Cu	0.6036	0.77676	0.74547	0.904
Mof_Cu	Cu	0.65481	0.97478	0.75029	0.901
Mof_O 	O 	0.5433	0.4786	0.87445	-0.38
Mof_O 	O 	0.6938	0.5797	0.8531	-0.386
Mof_O 	O 	0.6542	0.291	0.87356	-0.387
Mof_O 	O 	0.8287	0.4015	0.85798	-0.4
Mof_O 	O 	0.7428	0.0102	0.85776	-0.257
Mof_O 	O 	0.6006	0.2413	0.8443	-0.412
Mof_O 	O 	0.7698	0.3536	0.82905	-0.387
Mof_C 	C 	0.0416	0.3893	0.84737	0.022
Mof_H 	H 	0.0272	0.3952	0.8603	0.046
Mof_O 	O 	0.0232	0.3447	0.77709	-0.398
Mof_C 	C 	0.0813	0.3733	0.80841	-0.106
Mof_C 	C 	0.6376	0.9188	0.81767	0.031
Mof_H 	H 	0.6332	0.9889	0.8133	0.038
Mof_C 	C 	0.6563	0.7087	0.82985	-0.1
Mof_C 	C 	0.6583	0.7913	0.84278	0.015
Mof_H 	H 	0.6695	0.7766	0.8556	0.054
Mof_N 	N 	0.2867	0.5095	0.85293	-0.123
Mof_C 	C 	0.8453	0.3761	0.84127	0.35
Mof_C 	C 	0.6558	0.9858	0.85105	0.178
Mof_C 	C 	0.4724	0.475	0.86169	0.337
Mof_C 	C 	0.6137	0.2263	0.86137	0.369
Mof_C 	C 	0.1085	0.3664	0.78797	0.352
Mof_C 	C 	0.6435	0.8989	0.83679	-0.067
Mof_O 	O 	0.6014	0.7799	0.77303	-0.429
Mof_C 	C 	0.6434	0.7282	0.81053	0.047
Mof_H 	H 	0.6384	0.6724	0.8018	0.046
Mof_C 	C 	0.6383	0.8345	0.80466	-0.116
Mof_C 	C 	0.6624	0.5966	0.83637	0.347
Mof_C 	C 	0.9594	0.3715	0.83461	-0.096
Mof_C 	C 	0.2337	0.4201	0.85471	0.207
Mof_O 	O 	0.6456	0.9442	0.77783	-0.441
Mof_C 	C 	0.1667	0.3891	0.82124	0.02
Mof_H 	H 	0.2366	0.3935	0.8168	0.043
Mof_C 	C 	0.145	0.3982	0.84079	-0.066
Mof_C 	C 	0.6277	0.8576	0.78343	0.423
Mof_O 	O 	0.1974	0.3826	0.78192	-0.415
Mof_C 	C 	0.5685	0.1226	0.87019	-0.089
Mof_H 	H 	0.6092	0.1017	0.8815	0.098
Mof_C 	C 	0.3726	0.5384	0.86554	-0.065
Mof_H 	H 	0.3499	0.525	0.8787	0.075
Mof_C 	C 	0.9799	0.3623	0.81485	0.051
Mof_H 	H 	0.9243	0.3489	0.8064	0.051
Mof_O 	O 	0.25	0.3595	0.86838	-0.229
Mof_C 	C 	0.3937	0.1104	0.85684	-0.167
Mof_H 	H 	0.321	0.0886	0.8597	0.093
Mof_H 	H 	0.3917	0.1694	0.8479	0.099
Mof_C 	C 	0.4535	0.1416	0.87496	-0.032
Mof_H 	H 	0.4314	0.0975	0.8856	0.055
Mof_H 	H 	0.4411	0.216	0.8781	0.057
Mof_C 	C 	0.2726	0.5943	0.83858	-0.039
Mof_H 	H 	0.2028	0.6277	0.8396	0.049
Mof_H 	H 	0.2823	0.5672	0.8258	0.053
Mof_O 	O 	0.6368	0.526	0.82423	-0.399
Mof_O 	O 	0.4829	0.4292	0.84567	-0.391
Mof_N 	N 	0.5656	0.0352	0.85612	-0.108
Mof_O 	O 	0.0256	0.5086	0.75058	-0.421
Mof_O 	O 	0.8041	0.9494	0.75086	-0.437
Mof_C 	C 	0.8125	0.8558	0.74743	0.428
Mof_O 	O 	0.7708	0.7755	0.74596	-0.447
Mof_O 	O 	0.206	0.5433	0.7547	-0.41
Mof_C 	C 	0.1061	0.5568	0.75373	0.366
Mof_C 	C 	0.457	0.019	0.84904	0.059
Mof_H 	H 	0.4284	0.9514	0.8535	0.006
Mof_H 	H 	0.4558	0.0195	0.8352	0.032
Mof_C 	C 	0.9459	0.841	0.7509	-0.067
Mof_C 	C 	0.3937	0.6513	0.8633	-0.084
Mof_H 	H 	0.3516	0.6933	0.8722	0.073
Mof_H 	H 	0.4689	0.6671	0.8653	0.068
Mof_C 	C 	0.3627	0.672	0.8442	-0.087
Mof_H 	H 	0.4234	0.6625	0.8358	0.066
Mof_H 	H 	0.3379	0.7452	0.843	0.06
Mof_C 	C 	0.9826	0.7223	0.7532	0.1
Mof_C 	C 	0.015	0.913	0.7532	0.041
Mof_C 	C 	0.0808	0.6817	0.7516	-0.121
Mof_C 	C 	0.145	0.758	0.7541	0.069
Mof_Cu	Cu	0.38199	0.62023	0.33313	0.906
Mof_Cu	Cu	0.3131	0.55919	0.36729	0.929
Mof_Cu	Cu	0.3964	0.22324	0.24547	0.904
Mof_Cu	Cu	0.34519	0.02522	0.25029	0.901
Mof_O 	O 	0.4567	0.5214	0.37445	-0.38
Mof_O 	O 	0.3062	0.4203	0.3531	-0.386
Mof_O 	O 	0.3458	0.709	0.37356	-0.387
Mof_O 	O 	0.1713	0.5985	0.35798	-0.4
Mof_O 	O 	0.2572	0.9898	0.35776	-0.257
Mof_O 	O 	0.3994	0.7587	0.3443	-0.412
Mof_O 	O 	0.2302	0.6464	0.32905	-0.387
Mof_C 	C 	0.9584	0.6107	0.34737	0.022
Mof_H 	H 	0.9728	0.6048	0.3603	0.046
Mof_O 	O 	0.9768	0.6553	0.27709	-0.398
Mof_C 	C 	0.9187	0.6267	0.30841	-0.106
Mof_C 	C 	0.3624	0.0812	0.31767	0.031
Mof_H 	H 	0.3668	0.0111	0.3133	0.038
Mof_C 	C 	0.3437	0.2913	0.32985	-0.1
Mof_C 	C 	0.3417	0.2087	0.34278	0.015
Mof_H 	H 	0.3305	0.2234	0.3556	0.054
Mof_N 	N 	0.7133	0.4905	0.35293	-0.123
Mof_C 	C 	0.1547	0.6239	0.34127	0.35
Mof_C 	C 	0.3442	0.0142	0.35105	0.178
Mof_C 	C 	0.5276	0.525	0.36169	0.337
Mof_C 	C 	0.3863	0.7737	0.36137	0.369
Mof_C 	C 	0.8915	0.6336	0.28797	0.352
Mof_C 	C 	0.3565	0.1011	0.33679	-0.067
Mof_O 	O 	0.3986	0.2201	0.27303	-0.429
Mof_C 	C 	0.3566	0.2718	0.31053	0.047
Mof_H 	H 	0.3616	0.3276	0.3018	0.046
Mof_C 	C 	0.3617	0.1655	0.30466	-0.116
Mof_C 	C 	0.3376	0.4034	0.33637	0.347
Mof_C 	C 	0.0406	0.6285	0.33461	-0.096
Mof_C 	C 	0.7663	0.5799	0.35471	0.207
Mof_O 	O 	0.3544	0.0558	0.27783	-0.441
Mof_C 	C 	0.8333	0.6109	0.32124	0.02
Mof_H 	H 	0.7634	0.6065	0.3168	0.043
Mof_C 	C 	0.855	0.6018	0.34079	-0.066
Mof_C 	C 	0.3723	0.1424	0.28343	0.423
Mof_O 	O 	0.8026	0.6174	0.28192	-0.415
Mof_C 	C 	0.4315	0.8774	0.37019	-0.089
Mof_H 	H 	0.3908	0.8983	0.3815	0.098
Mof_C 	C 	0.6274	0.4616	0.36554	-0.065
Mof_H 	H 	0.6501	0.475	0.3787	0.075
Mof_C 	C 	0.0201	0.6377	0.31485	0.051
Mof_H 	H 	0.0757	0.6511	0.3064	0.051
Mof_O 	O 	0.75	0.6405	0.36838	-0.229
Mof_C 	C 	0.6063	0.8896	0.35684	-0.167
Mof_H 	H 	0.679	0.9114	0.3597	0.093
Mof_H 	H 	0.6083	0.8306	0.3479	0.099
Mof_C 	C 	0.5465	0.8584	0.37496	-0.032
Mof_H 	H 	0.5686	0.9025	0.3856	0.055
Mof_H 	H 	0.5589	0.784	0.3781	0.057
Mof_C 	C 	0.7274	0.4057	0.33858	-0.039
Mof_H 	H 	0.7972	0.3723	0.3396	0.049
Mof_H 	H 	0.7177	0.4328	0.3258	0.053
Mof_O 	O 	0.3632	0.474	0.32423	-0.399
Mof_O 	O 	0.5171	0.5708	0.34567	-0.391
Mof_N 	N 	0.4344	0.9648	0.35612	-0.108
Mof_O 	O 	0.9744	0.4914	0.25058	-0.421
Mof_O 	O 	0.1959	0.0506	0.25086	-0.437
Mof_C 	C 	0.1875	0.1442	0.24743	0.428
Mof_O 	O 	0.2292	0.2245	0.24596	-0.447
Mof_O 	O 	0.794	0.4567	0.2547	-0.41
Mof_C 	C 	0.8939	0.4432	0.25373	0.366
Mof_C 	C 	0.543	0.981	0.34904	0.059
Mof_H 	H 	0.5716	0.0486	0.3535	0.006
Mof_H 	H 	0.5442	0.9805	0.3352	0.032
Mof_C 	C 	0.0541	0.159	0.2509	-0.067
Mof_C 	C 	0.6063	0.3487	0.3633	-0.084
Mof_H 	H 	0.6484	0.3067	0.3722	0.073
Mof_H 	H 	0.5311	0.3329	0.3653	0.068
Mof_C 	C 	0.6373	0.328	0.3442	-0.087
Mof_H 	H 	0.5766	0.3375	0.3358	0.066
Mof_H 	H 	0.6621	0.2548	0.343	0.06
Mof_C 	C 	0.0174	0.2777	0.2532	0.1
Mof_C 	C 	0.985	0.087	0.2532	0.041
Mof_C 	C 	0.9192	0.3183	0.2516	-0.121
Mof_C 	C 	0.855	0.242	0.2541	0.069
Mof_Cu	Cu	0.12023	0.11801	0.58313	0.895
Mof_Cu	Cu	0.05919	0.1869	0.61729	0.919
Mof_Cu	Cu	0.72324	0.1036	0.49547	0.898
Mof_Cu	Cu	0.52522	0.15481	0.50029	0.897
Mof_O 	O 	0.0214	0.0433	0.62445	-0.399
Mof_O 	O 	0.9203	0.1938	0.6031	-0.374
Mof_O 	O 	0.209	0.1542	0.62356	-0.391
Mof_O 	O 	0.0985	0.3287	0.60798	-0.406
Mof_O 	O 	0.4898	0.2428	0.60776	-0.3
Mof_O 	O 	0.2587	0.1006	0.5943	-0.42
Mof_O 	O 	0.1464	0.2698	0.57905	-0.396
Mof_C 	C 	0.1107	0.5416	0.59737	0.012
Mof_H 	H 	0.1048	0.5272	0.6103	0.043
Mof_O 	O 	0.1553	0.5232	0.52709	-0.403
Mof_C 	C 	0.1267	0.5813	0.55841	-0.102
Mof_C 	C 	0.5812	0.1376	0.56767	0.047
Mof_H 	H 	0.5111	0.1332	0.5633	0.035
Mof_C 	C 	0.7913	0.1563	0.57985	-0.106
Mof_C 	C 	0.7087	0.1583	0.59278	0.028
Mof_H 	H 	0.7234	0.1695	0.6056	0.05
Mof_N 	N 	0.9905	0.7867	0.60293	-0.106
Mof_C 	C 	0.1239	0.3453	0.59127	0.347
Mof_C 	C 	0.5142	0.1558	0.60105	0.238
Mof_C 	C 	0.025	0.9724	0.61169	0.32
Mof_C 	C 	0.2737	0.1137	0.61137	0.369
Mof_C 	C 	0.1336	0.6085	0.53797	0.348
Mof_C 	C 	0.6011	0.1435	0.58679	-0.088
Mof_O 	O 	0.7201	0.1014	0.52303	-0.434
Mof_C 	C 	0.7718	0.1434	0.56053	0.053
Mof_H 	H 	0.8276	0.1384	0.5518	0.045
Mof_C 	C 	0.6655	0.1383	0.55466	-0.123
Mof_C 	C 	0.9034	0.1624	0.58637	0.348
Mof_C 	C 	0.1285	0.4594	0.58461	-0.094
Mof_C 	C 	0.0799	0.7337	0.60471	0.179
Mof_O 	O 	0.5558	0.1456	0.52783	-0.444
Mof_C 	C 	0.1109	0.6667	0.57124	0.01
Mof_H 	H 	0.1065	0.7366	0.5668	0.042
Mof_C 	C 	0.1018	0.645	0.59079	-0.061
Mof_C 	C 	0.6424	0.1277	0.53343	0.425
Mof_O 	O 	0.1174	0.6974	0.53192	-0.42
Mof_C 	C 	0.3774	0.0685	0.62019	-0.096
Mof_H 	H 	0.3983	0.1092	0.6315	0.093
Mof_C 	C 	0.9616	0.8726	0.61554	-0.034
Mof_H 	H 	0.975	0.8499	0.6287	0.075
Mof_C 	C 	0.1377	0.4799	0.56485	0.039
Mof_H 	H 	0.1511	0.4243	0.5564	0.048
Mof_O 	O 	0.1405	0.75	0.61838	-0.227
Mof_C 	C 	0.3896	0.8937	0.60684	-0.143
Mof_H 	H 	0.4114	0.821	0.6097	0.08
Mof_H 	H 	0.3306	0.8917	0.5979	0.093
Mof_C 	C 	0.3584	0.9535	0.62496	-0.03
Mof_H 	H 	0.4025	0.9314	0.6356	0.048
Mof_H 	H 	0.284	0.9411	0.6281	0.056
Mof_C 	C 	0.9057	0.7726	0.58858	-0.052
Mof_H 	H 	0.8723	0.7028	0.5896	0.058
Mof_H 	H 	0.9328	0.7823	0.5758	0.068
Mof_O 	O 	0.974	0.1368	0.57423	-0.387
Mof_O 	O 	0.0708	0.9829	0.59567	-0.389
Mof_N 	N 	0.4648	0.0656	0.60612	-0.129
Mof_O 	O 	0.9914	0.5256	0.50058	-0.401
Mof_O 	O 	0.5506	0.3041	0.50086	-0.438
Mof_C 	C 	0.6442	0.3125	0.49743	0.431
Mof_O 	O 	0.7245	0.2708	0.49596	-0.447
Mof_O 	O 	0.9567	0.706	0.5047	-0.393
Mof_C 	C 	0.9432	0.6061	0.50373	0.363
Mof_C 	C 	0.481	0.957	0.59904	0.01
Mof_H 	H 	0.5486	0.9284	0.6035	0.04
Mof_H 	H 	0.4805	0.9558	0.5852	0.042
Mof_C 	C 	0.659	0.4459	0.5009	-0.078
Mof_C 	C 	0.8487	0.8937	0.6133	-0.11
Mof_H 	H 	0.8067	0.8516	0.6222	0.082
Mof_H 	H 	0.8329	0.9689	0.6153	0.083
Mof_C 	C 	0.828	0.8627	0.5942	-0.069
Mof_H 	H 	0.8375	0.9234	0.5858	0.068
Mof_H 	H 	0.7548	0.8379	0.593	0.058
Mof_C 	C 	0.7777	0.4826	0.5032	0.087
Mof_C 	C 	0.587	0.515	0.5032	0.056
Mof_C 	C 	0.8183	0.5808	0.5016	-0.102
Mof_C 	C 	0.742	0.645	0.5041	0.071
Mof_Cu	Cu	0.87977	0.88199	0.08313	0.895
Mof_Cu	Cu	0.94081	0.8131	0.11729	0.919
Mof_Cu	Cu	0.27676	0.8964	0.99547	0.898
Mof_Cu	Cu	0.47478	0.84519	0.00029	0.897
Mof_O 	O 	0.9786	0.9567	0.12445	-0.399
Mof_O 	O 	0.0797	0.8062	0.1031	-0.374
Mof_O 	O 	0.791	0.8458	0.12356	-0.391
Mof_O 	O 	0.9015	0.6713	0.10798	-0.406
Mof_O 	O 	0.5102	0.7572	0.10776	-0.3
Mof_O 	O 	0.7413	0.8994	0.0943	-0.42
Mof_O 	O 	0.8536	0.7302	0.07905	-0.396
Mof_C 	C 	0.8893	0.4584	0.09737	0.012
Mof_H 	H 	0.8952	0.4728	0.1103	0.043
Mof_O 	O 	0.8447	0.4768	0.02709	-0.403
Mof_C 	C 	0.8733	0.4187	0.05841	-0.102
Mof_C 	C 	0.4188	0.8624	0.06767	0.047
Mof_H 	H 	0.4889	0.8668	0.0633	0.035
Mof_C 	C 	0.2087	0.8437	0.07985	-0.106
Mof_C 	C 	0.2913	0.8417	0.09278	0.028
Mof_H 	H 	0.2766	0.8305	0.1056	0.05
Mof_N 	N 	0.0095	0.2133	0.10293	-0.106
Mof_C 	C 	0.8761	0.6547	0.09127	0.347
Mof_C 	C 	0.4858	0.8442	0.10105	0.238
Mof_C 	C 	0.975	0.0276	0.11169	0.32
Mof_C 	C 	0.7263	0.8863	0.11137	0.369
Mof_C 	C 	0.8664	0.3915	0.03797	0.348
Mof_C 	C 	0.3989	0.8565	0.08679	-0.088
Mof_O 	O 	0.2799	0.8986	0.02303	-0.434
Mof_C 	C 	0.2282	0.8566	0.06053	0.053
Mof_H 	H 	0.1724	0.8616	0.0518	0.045
Mof_C 	C 	0.3345	0.8617	0.05466	-0.123
Mof_C 	C 	0.0966	0.8376	0.08637	0.348
Mof_C 	C 	0.8715	0.5406	0.08461	-0.094
Mof_C 	C 	0.9201	0.2663	0.10471	0.179
Mof_O 	O 	0.4442	0.8544	0.02783	-0.444
Mof_C 	C 	0.8891	0.3333	0.07124	0.01
Mof_H 	H 	0.8935	0.2634	0.0668	0.042
Mof_C 	C 	0.8982	0.355	0.09079	-0.061
Mof_C 	C 	0.3576	0.8723	0.03343	0.425
Mof_O 	O 	0.8826	0.3026	0.03192	-0.42
Mof_C 	C 	0.6226	0.9315	0.12019	-0.096
Mof_H 	H 	0.6017	0.8908	0.1315	0.093
Mof_C 	C 	0.0384	0.1274	0.11554	-0.034
Mof_H 	H 	0.025	0.1501	0.1287	0.075
Mof_C 	C 	0.8623	0.5201	0.06485	0.039
Mof_H 	H 	0.8489	0.5757	0.0564	0.048
Mof_O 	O 	0.8595	0.25	0.11838	-0.227
Mof_C 	C 	0.6104	0.1063	0.10684	-0.143
Mof_H 	H 	0.5886	0.179	0.1097	0.08
Mof_H 	H 	0.6694	0.1083	0.0979	0.093
Mof_C 	C 	0.6416	0.0465	0.12496	-0.03
Mof_H 	H 	0.5975	0.0686	0.1356	0.048
Mof_H 	H 	0.716	0.0589	0.1281	0.056
Mof_C 	C 	0.0943	0.2274	0.08858	-0.052
Mof_H 	H 	0.1277	0.2972	0.0896	0.058
Mof_H 	H 	0.0672	0.2177	0.0758	0.068
Mof_O 	O 	0.026	0.8632	0.07423	-0.387
Mof_O 	O 	0.9292	0.0171	0.09567	-0.389
Mof_N 	N 	0.5352	0.9344	0.10612	-0.129
Mof_O 	O 	0.0086	0.4744	0.00058	-0.401
Mof_O 	O 	0.4494	0.6959	0.00086	-0.438
Mof_C 	C 	0.3558	0.6875	0.99743	0.431
Mof_O 	O 	0.2755	0.7292	0.99596	-0.447
Mof_O 	O 	0.0433	0.294	0.0047	-0.393
Mof_C 	C 	0.0568	0.3939	0.00373	0.363
Mof_C 	C 	0.519	0.043	0.09904	0.01
Mof_H 	H 	0.4514	0.0716	0.1035	0.04
Mof_H 	H 	0.5195	0.0442	0.0852	0.042
Mof_C 	C 	0.341	0.5541	0.0009	-0.078
Mof_C 	C 	0.1513	0.1063	0.1133	-0.11
Mof_H 	H 	0.1933	0.1484	0.1222	0.082
Mof_H 	H 	0.1671	0.0311	0.1153	0.083
Mof_C 	C 	0.172	0.1373	0.0942	-0.069
Mof_H 	H 	0.1625	0.0766	0.0858	0.068
Mof_H 	H 	0.2452	0.1621	0.093	0.058
Mof_C 	C 	0.2223	0.5174	0.0032	0.087
Mof_C 	C 	0.413	0.485	0.0032	0.056
Mof_C 	C 	0.1817	0.4192	0.0016	-0.102
Mof_C 	C 	0.258	0.355	0.0041	0.071
Mof_Cu	Cu	0.88199	0.87977	0.91687	0.895
Mof_Cu	Cu	0.8131	0.94081	0.88271	0.919
Mof_Cu	Cu	0.8964	0.27676	0.00453	0.898
Mof_Cu	Cu	0.84519	0.47478	0.99971	0.897
Mof_O 	O 	0.9567	0.9786	0.87555	-0.399
Mof_O 	O 	0.8062	0.0797	0.8969	-0.374
Mof_O 	O 	0.8458	0.791	0.87644	-0.391
Mof_O 	O 	0.6713	0.9015	0.89202	-0.406
Mof_O 	O 	0.7572	0.5102	0.89224	-0.3
Mof_O 	O 	0.8994	0.7413	0.9057	-0.42
Mof_O 	O 	0.7302	0.8536	0.92095	-0.396
Mof_C 	C 	0.4584	0.8893	0.90263	0.012
Mof_H 	H 	0.4728	0.8952	0.8897	0.043
Mof_O 	O 	0.4768	0.8447	0.97291	-0.403
Mof_C 	C 	0.4187	0.8733	0.94159	-0.102
Mof_C 	C 	0.8624	0.4188	0.93233	0.047
Mof_H 	H 	0.8668	0.4889	0.9367	0.035
Mof_C 	C 	0.8437	0.2087	0.92015	-0.106
Mof_C 	C 	0.8417	0.2913	0.90722	0.028
Mof_H 	H 	0.8305	0.2766	0.8944	0.05
Mof_N 	N 	0.2133	0.0095	0.89707	-0.106
Mof_C 	C 	0.6547	0.8761	0.90873	0.347
Mof_C 	C 	0.8442	0.4858	0.89895	0.238
Mof_C 	C 	0.0276	0.975	0.88831	0.32
Mof_C 	C 	0.8863	0.7263	0.88863	0.369
Mof_C 	C 	0.3915	0.8664	0.96203	0.348
Mof_C 	C 	0.8565	0.3989	0.91321	-0.088
Mof_O 	O 	0.8986	0.2799	0.97697	-0.434
Mof_C 	C 	0.8566	0.2282	0.93947	0.053
Mof_H 	H 	0.8616	0.1724	0.9482	0.045
Mof_C 	C 	0.8617	0.3345	0.94534	-0.123
Mof_C 	C 	0.8376	0.0966	0.91363	0.348
Mof_C 	C 	0.5406	0.8715	0.91539	-0.094
Mof_C 	C 	0.2663	0.9201	0.89529	0.179
Mof_O 	O 	0.8544	0.4442	0.97217	-0.444
Mof_C 	C 	0.3333	0.8891	0.92876	0.01
Mof_H 	H 	0.2634	0.8935	0.9332	0.042
Mof_C 	C 	0.355	0.8982	0.90921	-0.061
Mof_C 	C 	0.8723	0.3576	0.96657	0.425
Mof_O 	O 	0.3026	0.8826	0.96808	-0.42
Mof_C 	C 	0.9315	0.6226	0.87981	-0.096
Mof_H 	H 	0.8908	0.6017	0.8685	0.093
Mof_C 	C 	0.1274	0.0384	0.88446	-0.034
Mof_H 	H 	0.1501	0.025	0.8713	0.075
Mof_C 	C 	0.5201	0.8623	0.93515	0.039
Mof_H 	H 	0.5757	0.8489	0.9436	0.048
Mof_O 	O 	0.25	0.8595	0.88162	-0.227
Mof_C 	C 	0.1063	0.6104	0.89316	-0.143
Mof_H 	H 	0.179	0.5886	0.8903	0.08
Mof_H 	H 	0.1083	0.6694	0.9021	0.093
Mof_C 	C 	0.0465	0.6416	0.87504	-0.03
Mof_H 	H 	0.0686	0.5975	0.8644	0.048
Mof_H 	H 	0.0589	0.716	0.8719	0.056
Mof_C 	C 	0.2274	0.0943	0.91142	-0.052
Mof_H 	H 	0.2972	0.1277	0.9104	0.058
Mof_H 	H 	0.2177	0.0672	0.9242	0.068
Mof_O 	O 	0.8632	0.026	0.92577	-0.387
Mof_O 	O 	0.0171	0.9292	0.90433	-0.389
Mof_N 	N 	0.9344	0.5352	0.89388	-0.129
Mof_O 	O 	0.4744	0.0086	0.99942	-0.401
Mof_O 	O 	0.6959	0.4494	0.99914	-0.438
Mof_C 	C 	0.6875	0.3558	0.00257	0.431
Mof_O 	O 	0.7292	0.2755	0.00404	-0.447
Mof_O 	O 	0.294	0.0433	0.9953	-0.393
Mof_C 	C 	0.3939	0.0568	0.99627	0.363
Mof_C 	C 	0.043	0.519	0.90096	0.01
Mof_H 	H 	0.0716	0.4514	0.8965	0.04
Mof_H 	H 	0.0442	0.5195	0.9148	0.042
Mof_C 	C 	0.5541	0.341	0.9991	-0.078
Mof_C 	C 	0.1063	0.1513	0.8867	-0.11
Mof_H 	H 	0.1484	0.1933	0.8778	0.082
Mof_H 	H 	0.0311	0.1671	0.8847	0.083
Mof_C 	C 	0.1373	0.172	0.9058	-0.069
Mof_H 	H 	0.0766	0.1625	0.9142	0.068
Mof_H 	H 	0.1621	0.2452	0.907	0.058
Mof_C 	C 	0.5174	0.2223	0.9968	0.087
Mof_C 	C 	0.485	0.413	0.9968	0.056
Mof_C 	C 	0.4192	0.1817	0.9984	-0.102
Mof_C 	C 	0.355	0.258	0.9959	0.071
Mof_Cu	Cu	0.11801	0.12023	0.41687	0.895
Mof_Cu	Cu	0.1869	0.05919	0.38271	0.919
Mof_Cu	Cu	0.1036	0.72324	0.50453	0.898
Mof_Cu	Cu	0.15481	0.52522	0.49971	0.897
Mof_O 	O 	0.0433	0.0214	0.37555	-0.399
Mof_O 	O 	0.1938	0.9203	0.3969	-0.374
Mof_O 	O 	0.1542	0.209	0.37644	-0.391
Mof_O 	O 	0.3287	0.0985	0.39202	-0.406
Mof_O 	O 	0.2428	0.4898	0.39224	-0.3
Mof_O 	O 	0.1006	0.2587	0.4057	-0.42
Mof_O 	O 	0.2698	0.1464	0.42095	-0.396
Mof_C 	C 	0.5416	0.1107	0.40263	0.012
Mof_H 	H 	0.5272	0.1048	0.3897	0.043
Mof_O 	O 	0.5232	0.1553	0.47291	-0.403
Mof_C 	C 	0.5813	0.1267	0.44159	-0.102
Mof_C 	C 	0.1376	0.5812	0.43233	0.047
Mof_H 	H 	0.1332	0.5111	0.4367	0.035
Mof_C 	C 	0.1563	0.7913	0.42015	-0.106
Mof_C 	C 	0.1583	0.7087	0.40722	0.028
Mof_H 	H 	0.1695	0.7234	0.3944	0.05
Mof_N 	N 	0.7867	0.9905	0.39707	-0.106
Mof_C 	C 	0.3453	0.1239	0.40873	0.347
Mof_C 	C 	0.1558	0.5142	0.39895	0.238
Mof_C 	C 	0.9724	0.025	0.38831	0.32
Mof_C 	C 	0.1137	0.2737	0.38863	0.369
Mof_C 	C 	0.6085	0.1336	0.46203	0.348
Mof_C 	C 	0.1435	0.6011	0.41321	-0.088
Mof_O 	O 	0.1014	0.7201	0.47697	-0.434
Mof_C 	C 	0.1434	0.7718	0.43947	0.053
Mof_H 	H 	0.1384	0.8276	0.4482	0.045
Mof_C 	C 	0.1383	0.6655	0.44534	-0.123
Mof_C 	C 	0.1624	0.9034	0.41363	0.348
Mof_C 	C 	0.4594	0.1285	0.41539	-0.094
Mof_C 	C 	0.7337	0.0799	0.39529	0.179
Mof_O 	O 	0.1456	0.5558	0.47217	-0.444
Mof_C 	C 	0.6667	0.1109	0.42876	0.01
Mof_H 	H 	0.7366	0.1065	0.4332	0.042
Mof_C 	C 	0.645	0.1018	0.40921	-0.061
Mof_C 	C 	0.1277	0.6424	0.46657	0.425
Mof_O 	O 	0.6974	0.1174	0.46808	-0.42
Mof_C 	C 	0.0685	0.3774	0.37981	-0.096
Mof_H 	H 	0.1092	0.3983	0.3685	0.093
Mof_C 	C 	0.8726	0.9616	0.38446	-0.034
Mof_H 	H 	0.8499	0.975	0.3713	0.075
Mof_C 	C 	0.4799	0.1377	0.43515	0.039
Mof_H 	H 	0.4243	0.1511	0.4436	0.048
Mof_O 	O 	0.75	0.1405	0.38162	-0.227
Mof_C 	C 	0.8937	0.3896	0.39316	-0.143
Mof_H 	H 	0.821	0.4114	0.3903	0.08
Mof_H 	H 	0.8917	0.3306	0.4021	0.093
Mof_C 	C 	0.9535	0.3584	0.37504	-0.03
Mof_H 	H 	0.9314	0.4025	0.3644	0.048
Mof_H 	H 	0.9411	0.284	0.3719	0.056
Mof_C 	C 	0.7726	0.9057	0.41142	-0.052
Mof_H 	H 	0.7028	0.8723	0.4104	0.058
Mof_H 	H 	0.7823	0.9328	0.4242	0.068
Mof_O 	O 	0.1368	0.974	0.42577	-0.387
Mof_O 	O 	0.9829	0.0708	0.40433	-0.389
Mof_N 	N 	0.0656	0.4648	0.39388	-0.129
Mof_O 	O 	0.5256	0.9914	0.49942	-0.401
Mof_O 	O 	0.3041	0.5506	0.49914	-0.438
Mof_C 	C 	0.3125	0.6442	0.50257	0.431
Mof_O 	O 	0.2708	0.7245	0.50404	-0.447
Mof_O 	O 	0.706	0.9567	0.4953	-0.393
Mof_C 	C 	0.6061	0.9432	0.49627	0.363
Mof_C 	C 	0.957	0.481	0.40096	0.01
Mof_H 	H 	0.9284	0.5486	0.3965	0.04
Mof_H 	H 	0.9558	0.4805	0.4148	0.042
Mof_C 	C 	0.4459	0.659	0.4991	-0.078
Mof_C 	C 	0.8937	0.8487	0.3867	-0.11
Mof_H 	H 	0.8516	0.8067	0.3778	0.082
Mof_H 	H 	0.9689	0.8329	0.3847	0.083
Mof_C 	C 	0.8627	0.828	0.4058	-0.069
Mof_H 	H 	0.9234	0.8375	0.4142	0.068
Mof_H 	H 	0.8379	0.7548	0.407	0.058
Mof_C 	C 	0.4826	0.7777	0.4968	0.087
Mof_C 	C 	0.515	0.587	0.4968	0.056
Mof_C 	C 	0.5808	0.8183	0.4984	-0.102
Mof_C 	C 	0.645	0.742	0.4959	0.071
Mof_Cu	Cu	0.37977	0.61801	0.16687	0.906
Mof_Cu	Cu	0.44081	0.6869	0.13271	0.929
Mof_Cu	Cu	0.77676	0.6036	0.25453	0.904
Mof_Cu	Cu	0.97478	0.65481	0.24971	0.901
Mof_O 	O 	0.4786	0.5433	0.12555	-0.38
Mof_O 	O 	0.5797	0.6938	0.1469	-0.386
Mof_O 	O 	0.291	0.6542	0.12644	-0.387
Mof_O 	O 	0.4015	0.8287	0.14202	-0.4
Mof_O 	O 	0.0102	0.7428	0.14224	-0.257
Mof_O 	O 	0.2413	0.6006	0.1557	-0.412
Mof_O 	O 	0.3536	0.7698	0.17095	-0.387
Mof_C 	C 	0.3893	0.0416	0.15263	0.022
Mof_H 	H 	0.3952	0.0272	0.1397	0.046
Mof_O 	O 	0.3447	0.0232	0.22291	-0.398
Mof_C 	C 	0.3733	0.0813	0.19159	-0.106
Mof_C 	C 	0.9188	0.6376	0.18233	0.031
Mof_H 	H 	0.9889	0.6332	0.1867	0.038
Mof_C 	C 	0.7087	0.6563	0.17015	-0.1
Mof_C 	C 	0.7913	0.6583	0.15722	0.015
Mof_H 	H 	0.7766	0.6695	0.1444	0.054
Mof_N 	N 	0.5095	0.2867	0.14707	-0.123
Mof_C 	C 	0.3761	0.8453	0.15873	0.35
Mof_C 	C 	0.9858	0.6558	0.14895	0.178
Mof_C 	C 	0.475	0.4724	0.13831	0.337
Mof_C 	C 	0.2263	0.6137	0.13863	0.369
Mof_C 	C 	0.3664	0.1085	0.21203	0.352
Mof_C 	C 	0.8989	0.6435	0.16321	-0.067
Mof_O 	O 	0.7799	0.6014	0.22697	-0.429
Mof_C 	C 	0.7282	0.6434	0.18947	0.047
Mof_H 	H 	0.6724	0.6384	0.1982	0.046
Mof_C 	C 	0.8345	0.6383	0.19534	-0.116
Mof_C 	C 	0.5966	0.6624	0.16363	0.347
Mof_C 	C 	0.3715	0.9594	0.16539	-0.096
Mof_C 	C 	0.4201	0.2337	0.14529	0.207
Mof_O 	O 	0.9442	0.6456	0.22217	-0.441
Mof_C 	C 	0.3891	0.1667	0.17876	0.02
Mof_H 	H 	0.3935	0.2366	0.1832	0.043
Mof_C 	C 	0.3982	0.145	0.15921	-0.066
Mof_C 	C 	0.8576	0.6277	0.21657	0.423
Mof_O 	O 	0.3826	0.1974	0.21808	-0.415
Mof_C 	C 	0.1226	0.5685	0.12981	-0.089
Mof_H 	H 	0.1017	0.6092	0.1185	0.098
Mof_C 	C 	0.5384	0.3726	0.13446	-0.065
Mof_H 	H 	0.525	0.3499	0.1213	0.075
Mof_C 	C 	0.3623	0.9799	0.18515	0.051
Mof_H 	H 	0.3489	0.9243	0.1936	0.051
Mof_O 	O 	0.3595	0.25	0.13162	-0.229
Mof_C 	C 	0.1104	0.3937	0.14316	-0.167
Mof_H 	H 	0.0886	0.321	0.1403	0.093
Mof_H 	H 	0.1694	0.3917	0.1521	0.099
Mof_C 	C 	0.1416	0.4535	0.12504	-0.032
Mof_H 	H 	0.0975	0.4314	0.1144	0.055
Mof_H 	H 	0.216	0.4411	0.1219	0.057
Mof_C 	C 	0.5943	0.2726	0.16142	-0.039
Mof_H 	H 	0.6277	0.2028	0.1604	0.049
Mof_H 	H 	0.5672	0.2823	0.1742	0.053
Mof_O 	O 	0.526	0.6368	0.17577	-0.399
Mof_O 	O 	0.4292	0.4829	0.15433	-0.391
Mof_N 	N 	0.0352	0.5656	0.14388	-0.108
Mof_O 	O 	0.5086	0.0256	0.24942	-0.421
Mof_O 	O 	0.9494	0.8041	0.24914	-0.437
Mof_C 	C 	0.8558	0.8125	0.25257	0.428
Mof_O 	O 	0.7755	0.7708	0.25404	-0.447
Mof_O 	O 	0.5433	0.206	0.2453	-0.41
Mof_C 	C 	0.5568	0.1061	0.24627	0.366
Mof_C 	C 	0.019	0.457	0.15096	0.059
Mof_H 	H 	0.9514	0.4284	0.1465	0.006
Mof_H 	H 	0.0195	0.4558	0.1648	0.032
Mof_C 	C 	0.841	0.9459	0.2491	-0.067
Mof_C 	C 	0.6513	0.3937	0.1367	-0.084
Mof_H 	H 	0.6933	0.3516	0.1278	0.073
Mof_H 	H 	0.6671	0.4689	0.1347	0.068
Mof_C 	C 	0.672	0.3627	0.1558	-0.087
Mof_H 	H 	0.6625	0.4234	0.1642	0.066
Mof_H 	H 	0.7452	0.3379	0.157	0.06
Mof_C 	C 	0.7223	0.9826	0.2468	0.1
Mof_C 	C 	0.913	0.015	0.2468	0.041
Mof_C 	C 	0.6817	0.0808	0.2484	-0.121
Mof_C 	C 	0.758	0.145	0.2459	0.069
Mof_Cu	Cu	0.62023	0.38199	0.66687	0.906
Mof_Cu	Cu	0.55919	0.3131	0.63271	0.929
Mof_Cu	Cu	0.22324	0.3964	0.75453	0.904
Mof_Cu	Cu	0.02522	0.34519	0.74971	0.901
Mof_O 	O 	0.5214	0.4567	0.62555	-0.38
Mof_O 	O 	0.4203	0.3062	0.6469	-0.386
Mof_O 	O 	0.709	0.3458	0.62644	-0.387
Mof_O 	O 	0.5985	0.1713	0.64202	-0.4
Mof_O 	O 	0.9898	0.2572	0.64224	-0.257
Mof_O 	O 	0.7587	0.3994	0.6557	-0.412
Mof_O 	O 	0.6464	0.2302	0.67095	-0.387
Mof_C 	C 	0.6107	0.9584	0.65263	0.022
Mof_H 	H 	0.6048	0.9728	0.6397	0.046
Mof_O 	O 	0.6553	0.9768	0.72291	-0.398
Mof_C 	C 	0.6267	0.9187	0.69159	-0.106
Mof_C 	C 	0.0812	0.3624	0.68233	0.031
Mof_H 	H 	0.0111	0.3668	0.6867	0.038
Mof_C 	C 	0.2913	0.3437	0.67015	-0.1
Mof_C 	C 	0.2087	0.3417	0.65722	0.015
Mof_H 	H 	0.2234	0.3305	0.6444	0.054
Mof_N 	N 	0.4905	0.7133	0.64707	-0.123
Mof_C 	C 	0.6239	0.1547	0.65873	0.35
Mof_C 	C 	0.0142	0.3442	0.64895	0.178
Mof_C 	C 	0.525	0.5276	0.63831	0.337
Mof_C 	C 	0.7737	0.3863	0.63863	0.369
Mof_C 	C 	0.6336	0.8915	0.71203	0.352
Mof_C 	C 	0.1011	0.3565	0.66321	-0.067
Mof_O 	O 	0.2201	0.3986	0.72697	-0.429
Mof_C 	C 	0.2718	0.3566	0.68947	0.047
Mof_H 	H 	0.3276	0.3616	0.6982	0.046
Mof_C 	C 	0.1655	0.3617	0.69534	-0.116
Mof_C 	C 	0.4034	0.3376	0.66363	0.347
Mof_C 	C 	0.6285	0.0406	0.66539	-0.096
Mof_C 	C 	0.5799	0.7663	0.64529	0.207
Mof_O 	O 	0.0558	0.3544	0.72217	-0.441
Mof_C 	C 	0.6109	0.8333	0.67876	0.02
Mof_H 	H 	0.6065	0.7634	0.6832	0.043
Mof_C 	C 	0.6018	0.855	0.65921	-0.066
Mof_C 	C 	0.1424	0.3723	0.71657	0.423
Mof_O 	O 	0.6174	0.8026	0.71808	-0.415
Mof_C 	C 	0.8774	0.4315	0.62981	-0.089
Mof_H 	H 	0.8983	0.3908	0.6185	0.098
Mof_C 	C 	0.4616	0.6274	0.63446	-0.065
Mof_H 	H 	0.475	0.6501	0.6213	0.075
Mof_C 	C 	0.6377	0.0201	0.68515	0.051
Mof_H 	H 	0.6511	0.0757	0.6936	0.051
Mof_O 	O 	0.6405	0.75	0.63162	-0.229
Mof_C 	C 	0.8896	0.6063	0.64316	-0.167
Mof_H 	H 	0.9114	0.679	0.6403	0.093
Mof_H 	H 	0.8306	0.6083	0.6521	0.099
Mof_C 	C 	0.8584	0.5465	0.62504	-0.032
Mof_H 	H 	0.9025	0.5686	0.6144	0.055
Mof_H 	H 	0.784	0.5589	0.6219	0.057
Mof_C 	C 	0.4057	0.7274	0.66142	-0.039
Mof_H 	H 	0.3723	0.7972	0.6604	0.049
Mof_H 	H 	0.4328	0.7177	0.6742	0.053
Mof_O 	O 	0.474	0.3632	0.67577	-0.399
Mof_O 	O 	0.5708	0.5171	0.65433	-0.391
Mof_N 	N 	0.9648	0.4344	0.64388	-0.108
Mof_O 	O 	0.4914	0.9744	0.74942	-0.421
Mof_O 	O 	0.0506	0.1959	0.74914	-0.437
Mof_C 	C 	0.1442	0.1875	0.75257	0.428
Mof_O 	O 	0.2245	0.2292	0.75404	-0.447
Mof_O 	O 	0.4567	0.794	0.7453	-0.41
Mof_C 	C 	0.4432	0.8939	0.74627	0.366
Mof_C 	C 	0.981	0.543	0.65096	0.059
Mof_H 	H 	0.0486	0.5716	0.6465	0.006
Mof_H 	H 	0.9805	0.5442	0.6648	0.032
Mof_C 	C 	0.159	0.0541	0.7491	-0.067
Mof_C 	C 	0.3487	0.6063	0.6367	-0.084
Mof_H 	H 	0.3067	0.6484	0.6278	0.073
Mof_H 	H 	0.3329	0.5311	0.6347	0.068
Mof_C 	C 	0.328	0.6373	0.6558	-0.087
Mof_H 	H 	0.3375	0.5766	0.6642	0.066
Mof_H 	H 	0.2548	0.6621	0.657	0.06
Mof_C 	C 	0.2777	0.0174	0.7468	0.1
Mof_C 	C 	0.087	0.985	0.7468	0.041
Mof_C 	C 	0.3183	0.9192	0.7484	-0.121
Mof_C 	C 	0.242	0.855	0.7459	0.069
Mof_C 	C 	0.1287	0.8713	0.75	-0.06
Mof_C 	C 	0.8713	0.1287	0.25	-0.06
Mof_C 	C 	0.6287	0.6287	0.5	-0.059
Mof_C 	C 	0.3713	0.3713	-0	-0.059
_end
