data_functionalizedCrystal
_audit_creation_method	'EQeq! by Chris Wilmer'
_symmetry_space_group_name_H-M	'P1'
_symmetry_Int_Tables_number	1
_symmetry_cell_setting	triclinic
loop_
_symmetry_equiv_pos_as_xyz
  x,y,z
_cell_length_a	14.6077
_cell_length_b	16.5568
_cell_length_c	16.6303
_cell_angle_alpha	90
_cell_angle_beta	90
_cell_angle_gamma	90
loop_
_atom_site_label
_atom_site_type_symbol
_atom_site_fract_x
_atom_site_fract_y
_atom_site_fract_z
_atom_site_charge
Mof_O 	O 	0.5538	0.0969	0.5239	-0.657
Mof_O 	O 	0.4566	0.1437	0.6148	-0.576
Mof_O 	O 	0.2664	0.3848	0.5362	-0.435
Mof_O 	O 	0.2719	0.4261	0.414	-0.479
Mof_O 	O 	0.3569	0.248	0.7251	-0.539
Mof_O 	O 	0.4353	0.2804	0.8322	-0.599
Mof_O 	O 	0.131	0.4654	0.6353	-0.677
Mof_O 	O 	0.1021	0.5654	0.7219	-0.71
Mof_C 	C 	0.2315	0.4688	0.9872	5.565
Mof_H 	H 	0.2847	0.4445	0.011	-1.255
Mof_H 	H 	0.1798	0.4439	0.0128	-1.265
Mof_C 	C 	0.4905	0.1424	0.544	0.558
Mof_C 	C 	0.2968	0.3792	0.4654	0.326
Mof_C 	C 	0.4512	0.1951	0.483	-0.116
Mof_C 	C 	0.4755	0.1858	0.4033	-0.146
Mof_H 	H 	0.5193	0.1475	0.3895	0.085
Mof_C 	C 	0.4362	0.2322	0.3437	0.283
Mof_C 	C 	0.3783	0.2932	0.3646	-0.197
Mof_H 	H 	0.3535	0.3256	0.3244	0.122
Mof_C 	C 	0.3546	0.3088	0.4456	-0.016
Mof_C 	C 	0.3916	0.2579	0.5055	0.001
Mof_H 	H 	0.3767	0.2658	0.5593	0.058
Mof_C 	C 	0.3688	0.2936	0.7859	0.719
Mof_C 	C 	0.1365	0.4984	0.7037	0.9
Mof_C 	C 	0.2991	0.3553	0.8074	-1.174
Mof_C 	C 	0.2471	0.3922	0.7488	1.101
Mof_H 	H 	0.2524	0.3756	0.6956	-0.313
Mof_C 	C 	0.1874	0.4536	0.7683	-1.219
Mof_C 	C 	0.1794	0.4803	0.8468	1.867
Mof_H 	H 	0.144	0.5253	0.859	-0.737
Mof_C 	C 	0.2258	0.4381	0.9081	-3.067
Mof_C 	C 	0.2871	0.379	0.8873	1.932
Mof_H 	H 	0.3214	0.3541	0.9273	-0.675
Mof_C 	C 	0.4648	0.2347	0.2626	-0.635
Mof_H 	H 	0.4366	0.2821	0.2404	0.239
Mof_H 	H 	0.4354	0.1895	0.2374	0.219
Mof_O 	O 	0.0538	0.5969	0.5239	-0.788
Mof_O 	O 	0.9566	0.6437	0.6148	-0.518
Mof_O 	O 	0.7664	0.8848	0.5362	-0.426
Mof_O 	O 	0.7719	0.9261	0.414	-0.469
Mof_O 	O 	0.8569	0.748	0.7251	-0.474
Mof_O 	O 	0.9353	0.7804	0.8322	-0.488
Mof_O 	O 	0.631	0.9654	0.6353	-0.677
Mof_O 	O 	0.6021	0.0654	0.7219	-0.727
Mof_C 	C 	0.7315	0.9688	0.9872	5.557
Mof_H 	H 	0.7847	0.9445	0.011	-1.24
Mof_H 	H 	0.6798	0.9439	0.0128	-1.253
Mof_C 	C 	0.9905	0.6424	0.544	0.733
Mof_C 	C 	0.7968	0.8792	0.4654	0.305
Mof_C 	C 	0.9512	0.6951	0.483	-0.139
Mof_C 	C 	0.9755	0.6858	0.4033	-0.063
Mof_H 	H 	0.0193	0.6475	0.3895	-0.02
Mof_C 	C 	0.9362	0.7322	0.3437	0.661
Mof_C 	C 	0.8783	0.7932	0.3646	-0.399
Mof_H 	H 	0.8535	0.8256	0.3244	0.194
Mof_C 	C 	0.8546	0.8088	0.4456	0.07
Mof_C 	C 	0.8916	0.7579	0.5055	-0.013
Mof_H 	H 	0.8767	0.7658	0.5593	0.077
Mof_C 	C 	0.8688	0.7936	0.7859	0.702
Mof_C 	C 	0.6365	0.9984	0.7037	0.913
Mof_C 	C 	0.7991	0.8553	0.8074	-1.147
Mof_C 	C 	0.7471	0.8922	0.7488	1.081
Mof_H 	H 	0.7524	0.8756	0.6956	-0.305
Mof_C 	C 	0.6874	0.9536	0.7683	-1.207
Mof_C 	C 	0.6794	0.9803	0.8468	1.844
Mof_H 	H 	0.644	0.0253	0.859	-0.713
Mof_C 	C 	0.7258	0.9381	0.9081	-3.051
Mof_C 	C 	0.7871	0.879	0.8873	1.913
Mof_H 	H 	0.8214	0.8541	0.9273	-0.658
Mof_C 	C 	0.9648	0.7347	0.2626	-1.591
Mof_H 	H 	0.9366	0.7821	0.2404	0.538
Mof_H 	H 	0.9354	0.6895	0.2374	0.511
Mof_O 	O 	0.4462	0.9031	0.0239	-0.837
Mof_O 	O 	0.5434	0.8563	0.1148	-0.748
Mof_O 	O 	0.7336	0.6152	0.0362	-0.296
Mof_O 	O 	0.7281	0.5739	0.914	-0.63
Mof_O 	O 	0.6431	0.752	0.2251	-0.405
Mof_O 	O 	0.5647	0.7196	0.3322	-0.46
Mof_O 	O 	0.869	0.5346	0.1353	-0.659
Mof_O 	O 	0.8979	0.4346	0.2219	-0.544
Mof_C 	C 	0.7685	0.5312	0.4872	-0.102
Mof_H 	H 	0.7153	0.5555	0.511	0.066
Mof_H 	H 	0.8202	0.5561	0.5128	0.069
Mof_C 	C 	0.5095	0.8576	0.044	1.354
Mof_C 	C 	0.7032	0.6208	0.9654	0.269
Mof_C 	C 	0.5488	0.8049	0.983	-1.45
Mof_C 	C 	0.5245	0.8142	0.9033	0.676
Mof_H 	H 	0.4807	0.8525	0.8895	-0.244
Mof_C 	C 	0.5638	0.7678	0.8437	-0.27
Mof_C 	C 	0.6217	0.7068	0.8646	0.396
Mof_H 	H 	0.6465	0.6744	0.8244	-0.088
Mof_C 	C 	0.6454	0.6912	0.9456	-0.874
Mof_C 	C 	0.6084	0.7421	0.0055	1.508
Mof_H 	H 	0.6233	0.7342	0.0593	-0.394
Mof_C 	C 	0.6312	0.7064	0.2859	0.314
Mof_C 	C 	0.8635	0.5016	0.2037	0.568
Mof_C 	C 	0.7009	0.6447	0.3074	-0.077
Mof_C 	C 	0.7529	0.6078	0.2488	0.053
Mof_H 	H 	0.7476	0.6244	0.1956	0.043
Mof_C 	C 	0.8126	0.5464	0.2683	-0.175
Mof_C 	C 	0.8206	0.5197	0.3468	0.013
Mof_H 	H 	0.856	0.4747	0.359	0.043
Mof_C 	C 	0.7742	0.5619	0.4081	0.014
Mof_C 	C 	0.7129	0.621	0.3873	-0.039
Mof_H 	H 	0.6786	0.6459	0.4273	0.055
Mof_C 	C 	0.5352	0.7653	0.7626	-0.495
Mof_H 	H 	0.5634	0.7179	0.7404	0.173
Mof_H 	H 	0.5646	0.8105	0.7374	0.184
Mof_O 	O 	0.9462	0.4031	0.0239	-0.674
Mof_O 	O 	0.0434	0.3563	0.1148	-0.682
Mof_O 	O 	0.2336	0.1152	0.0362	-0.32
Mof_O 	O 	0.2281	0.0739	0.914	-0.645
Mof_O 	O 	0.1431	0.252	0.2251	-0.385
Mof_O 	O 	0.0647	0.2196	0.3322	-0.484
Mof_O 	O 	0.369	0.0346	0.1353	-0.684
Mof_O 	O 	0.3979	0.9346	0.2219	-0.655
Mof_C 	C 	0.2685	0.0312	0.4872	-0.113
Mof_H 	H 	0.2153	0.0555	0.511	0.058
Mof_H 	H 	0.3202	0.0561	0.5128	0.066
Mof_C 	C 	0.0095	0.3576	0.044	1.098
Mof_C 	C 	0.2032	0.1208	0.9654	0.293
Mof_C 	C 	0.0488	0.3049	0.983	-1.346
Mof_C 	C 	0.0245	0.3142	0.9033	0.554
Mof_H 	H 	0.9807	0.3525	0.8895	-0.123
Mof_C 	C 	0.0638	0.2678	0.8437	-0.631
Mof_C 	C 	0.1217	0.2068	0.8646	0.574
Mof_H 	H 	0.1465	0.1744	0.8244	-0.155
Mof_C 	C 	0.1454	0.1912	0.9456	-0.92
Mof_C 	C 	0.1084	0.2421	0.0055	1.443
Mof_H 	H 	0.1233	0.2342	0.0593	-0.382
Mof_C 	C 	0.1312	0.2064	0.2859	0.318
Mof_C 	C 	0.3635	0.0016	0.2037	0.599
Mof_C 	C 	0.2009	0.1447	0.3074	-0.103
Mof_C 	C 	0.2529	0.1078	0.2488	0.079
Mof_H 	H 	0.2476	0.1244	0.1956	0.031
Mof_C 	C 	0.3126	0.0464	0.2683	-0.206
Mof_C 	C 	0.3206	0.0197	0.3468	0.028
Mof_H 	H 	0.356	0.9747	0.359	0.018
Mof_C 	C 	0.2742	0.0619	0.4081	-0.001
Mof_C 	C 	0.2129	0.121	0.3873	-0.024
Mof_H 	H 	0.1786	0.1459	0.4273	0.036
Mof_C 	C 	0.0352	0.2653	0.7626	0.481
Mof_H 	H 	0.0634	0.2179	0.7404	-0.133
Mof_H 	H 	0.0646	0.3105	0.7374	-0.112
Mof_O 	O 	0.4462	0.0969	0.9761	-0.806
Mof_O 	O 	0.5434	0.1437	0.8852	-0.494
Mof_O 	O 	0.7336	0.3848	0.9638	-0.825
Mof_O 	O 	0.7281	0.4261	0.086	-0.58
Mof_O 	O 	0.6431	0.248	0.7749	-0.485
Mof_O 	O 	0.5647	0.2804	0.6678	-0.471
Mof_O 	O 	0.869	0.4654	0.8647	-0.74
Mof_O 	O 	0.8979	0.5654	0.7781	-0.553
Mof_C 	C 	0.7685	0.4688	0.5128	-0.132
Mof_H 	H 	0.7153	0.4445	0.489	0.074
Mof_H 	H 	0.8202	0.4439	0.4872	0.077
Mof_C 	C 	0.5095	0.1424	0.956	0.006
Mof_C 	C 	0.7032	0.3792	0.0346	0.535
Mof_C 	C 	0.5488	0.1951	0.017	0.891
Mof_C 	C 	0.5245	0.1858	0.0967	-0.525
Mof_H 	H 	0.4807	0.1475	0.1105	0.24
Mof_C 	C 	0.5638	0.2322	0.1563	0.244
Mof_C 	C 	0.6217	0.2932	0.1354	-0.388
Mof_H 	H 	0.6465	0.3256	0.1756	0.176
Mof_C 	C 	0.6454	0.3088	0.0544	0.584
Mof_C 	C 	0.6084	0.2579	0.9945	-1.227
Mof_H 	H 	0.6233	0.2658	0.9407	0.406
Mof_C 	C 	0.6312	0.2936	0.7141	0.331
Mof_C 	C 	0.8635	0.4984	0.7963	0.598
Mof_C 	C 	0.7009	0.3553	0.6926	-0.108
Mof_C 	C 	0.7529	0.3922	0.7512	0.08
Mof_H 	H 	0.7476	0.3756	0.8044	0.004
Mof_C 	C 	0.8126	0.4536	0.7317	-0.19
Mof_C 	C 	0.8206	0.4803	0.6532	0.021
Mof_H 	H 	0.856	0.5253	0.641	0.042
Mof_C 	C 	0.7742	0.4381	0.5919	0.018
Mof_C 	C 	0.7129	0.379	0.6127	-0.029
Mof_H 	H 	0.6786	0.3541	0.5727	0.05
Mof_C 	C 	0.5352	0.2347	0.2374	0.225
Mof_H 	H 	0.5634	0.2821	0.2596	-0.022
Mof_H 	H 	0.5646	0.1895	0.2626	-0.033
Mof_O 	O 	0.9462	0.5969	0.9761	-0.662
Mof_O 	O 	0.0434	0.6437	0.8852	-0.439
Mof_O 	O 	0.2336	0.8848	0.9638	-0.838
Mof_O 	O 	0.2281	0.9261	0.086	-0.599
Mof_O 	O 	0.1431	0.748	0.7749	-0.466
Mof_O 	O 	0.0647	0.7804	0.6678	-0.494
Mof_O 	O 	0.369	0.9654	0.8647	-0.762
Mof_O 	O 	0.3979	0.0654	0.7781	-0.652
Mof_C 	C 	0.2685	0.9688	0.5128	-0.103
Mof_H 	H 	0.2153	0.9445	0.489	0.055
Mof_H 	H 	0.3202	0.9439	0.4872	0.062
Mof_C 	C 	0.0095	0.6424	0.956	-0.208
Mof_C 	C 	0.2032	0.8792	0.0346	0.553
Mof_C 	C 	0.0488	0.6951	0.017	0.945
Mof_C 	C 	0.0245	0.6858	0.0967	-0.628
Mof_H 	H 	0.9807	0.6475	0.1105	0.355
Mof_C 	C 	0.0638	0.7322	0.1563	-0.122
Mof_C 	C 	0.1217	0.7932	0.1354	-0.196
Mof_H 	H 	0.1465	0.8256	0.1756	0.104
Mof_C 	C 	0.1454	0.8088	0.0544	0.509
Mof_C 	C 	0.1084	0.7579	0.9945	-1.235
Mof_H 	H 	0.1233	0.7658	0.9407	0.401
Mof_C 	C 	0.1312	0.7936	0.7141	0.336
Mof_C 	C 	0.3635	0.9984	0.7963	0.619
Mof_C 	C 	0.2009	0.8553	0.6926	-0.137
Mof_C 	C 	0.2529	0.8922	0.7512	0.106
Mof_H 	H 	0.2476	0.8756	0.8044	-0.006
Mof_C 	C 	0.3126	0.9536	0.7317	-0.217
Mof_C 	C 	0.3206	0.9803	0.6532	0.031
Mof_H 	H 	0.356	0.0253	0.641	0.023
Mof_C 	C 	0.2742	0.9381	0.5919	-0.011
Mof_C 	C 	0.2129	0.879	0.6127	-0.005
Mof_H 	H 	0.1786	0.8541	0.5727	0.029
Mof_C 	C 	0.0352	0.7347	0.2374	1.176
Mof_H 	H 	0.0634	0.7821	0.2596	-0.32
Mof_H 	H 	0.0646	0.6895	0.2626	-0.322
Mof_O 	O 	0.5538	0.9031	0.4761	-0.679
Mof_O 	O 	0.4566	0.8563	0.3852	-0.61
Mof_O 	O 	0.2664	0.6152	0.4638	-0.492
Mof_O 	O 	0.2719	0.5739	0.586	-0.518
Mof_O 	O 	0.3569	0.752	0.2749	-0.35
Mof_O 	O 	0.4353	0.7196	0.1678	-0.337
Mof_O 	O 	0.131	0.5346	0.3647	-0.504
Mof_O 	O 	0.1021	0.4346	0.2781	-0.499
Mof_C 	C 	0.2315	0.5312	0.0128	-5.79
Mof_H 	H 	0.2847	0.5555	0.989	1.393
Mof_H 	H 	0.1798	0.5561	0.9872	1.379
Mof_C 	C 	0.4905	0.8576	0.456	0.643
Mof_C 	C 	0.2968	0.6208	0.5346	0.419
Mof_C 	C 	0.4512	0.8049	0.517	-0.333
Mof_C 	C 	0.4755	0.8142	0.5967	0.248
Mof_H 	H 	0.5193	0.8525	0.6105	-0.052
Mof_C 	C 	0.4362	0.7678	0.6563	-0.318
Mof_C 	C 	0.3783	0.7068	0.6354	0.191
Mof_H 	H 	0.3535	0.6744	0.6756	-0.029
Mof_C 	C 	0.3546	0.6912	0.5544	-0.23
Mof_C 	C 	0.3916	0.7421	0.4945	0.199
Mof_H 	H 	0.3767	0.7342	0.4407	-0.02
Mof_C 	C 	0.3688	0.7064	0.2141	-0.07
Mof_C 	C 	0.1365	0.5016	0.2963	0.17
Mof_C 	C 	0.2991	0.6447	0.1926	0.993
Mof_C 	C 	0.2471	0.6078	0.2512	-0.955
Mof_H 	H 	0.2524	0.6244	0.3044	0.379
Mof_C 	C 	0.1874	0.5464	0.2317	0.877
Mof_C 	C 	0.1794	0.5197	0.1532	-1.859
Mof_H 	H 	0.144	0.4747	0.141	0.773
Mof_C 	C 	0.2258	0.5619	0.0919	3.087
Mof_C 	C 	0.2871	0.621	0.1127	-1.984
Mof_H 	H 	0.3214	0.6459	0.0727	0.776
Mof_C 	C 	0.4648	0.7653	0.7374	0.481
Mof_H 	H 	0.4366	0.7179	0.7596	-0.121
Mof_H 	H 	0.4354	0.8105	0.7626	-0.099
Mof_O 	O 	0.0538	0.4031	0.4761	-0.808
Mof_O 	O 	0.9566	0.3563	0.3852	-0.545
Mof_O 	O 	0.7664	0.1152	0.4638	-0.478
Mof_O 	O 	0.7719	0.0739	0.586	-0.499
Mof_O 	O 	0.8569	0.252	0.2749	-0.28
Mof_O 	O 	0.9353	0.2196	0.1678	-0.22
Mof_O 	O 	0.631	0.0346	0.3647	-0.505
Mof_O 	O 	0.6021	0.9346	0.2781	-0.531
Mof_C 	C 	0.7315	0.0312	0.0128	-5.84
Mof_H 	H 	0.7847	0.0555	0.989	1.427
Mof_H 	H 	0.6798	0.0561	0.9872	1.405
Mof_C 	C 	0.9905	0.3576	0.456	0.818
Mof_C 	C 	0.7968	0.1208	0.5346	0.395
Mof_C 	C 	0.9512	0.3049	0.517	-0.351
Mof_C 	C 	0.9755	0.3142	0.5967	0.325
Mof_H 	H 	0.0193	0.3525	0.6105	-0.155
Mof_C 	C 	0.9362	0.2678	0.6563	0.076
Mof_C 	C 	0.8783	0.2068	0.6354	-0.021
Mof_H 	H 	0.8535	0.1744	0.6756	0.049
Mof_C 	C 	0.8546	0.1912	0.5544	-0.137
Mof_C 	C 	0.8916	0.2421	0.4945	0.181
Mof_H 	H 	0.8767	0.2342	0.4407	0.002
Mof_C 	C 	0.8688	0.2064	0.2141	-0.088
Mof_C 	C 	0.6365	0.0016	0.2963	0.201
Mof_C 	C 	0.7991	0.1447	0.1926	1.02
Mof_C 	C 	0.7471	0.1078	0.2512	-0.968
Mof_H 	H 	0.7524	0.1244	0.3044	0.385
Mof_C 	C 	0.6874	0.0464	0.2317	0.878
Mof_C 	C 	0.6794	0.0197	0.1532	-1.861
Mof_H 	H 	0.644	0.9747	0.141	0.782
Mof_C 	C 	0.7258	0.0619	0.0919	3.115
Mof_C 	C 	0.7871	0.121	0.1127	-2.008
Mof_H 	H 	0.8214	0.1459	0.0727	0.796
Mof_C 	C 	0.9648	0.2653	0.7374	-0.506
Mof_H 	H 	0.9366	0.2179	0.7596	0.189
Mof_H 	H 	0.9354	0.3105	0.7626	0.201
Mof_Eu	Eu	0.66194	6.27613e-33	0.5	2.706
Mof_Eu	Eu	0.16194	0.5	0.5	2.693
Mof_Eu	Eu	0.33806	0	-0	3.666
Mof_Eu	Eu	0.83806	0.5	-0	3.657
Mof_Eu	Eu	0.5	0.16804	0.75	2.628
Mof_Eu	Eu	9.47754e-33	0.66804	0.75	2.202
Mof_Eu	Eu	0.5	0.83196	0.25	2.649
Mof_Eu	Eu	-2.07093e-33	0.33196	0.25	2.19
_end
