data_functionalizedCrystal
_audit_creation_method	'EQeq! by Chris Wilmer'
_symmetry_space_group_name_H-M	'P1'
_symmetry_Int_Tables_number	1
_symmetry_cell_setting	triclinic
loop_
_symmetry_equiv_pos_as_xyz
  x,y,z
_cell_length_a	23.482
_cell_length_b	16.7231
_cell_length_c	7.7066
_cell_angle_alpha	90
_cell_angle_beta	104.716
_cell_angle_gamma	90
loop_
_atom_site_label
_atom_site_type_symbol
_atom_site_fract_x
_atom_site_fract_y
_atom_site_fract_z
_atom_site_charge
Mof_C 	C 	0.70667	0.096	0.2483	0.373
Mof_C 	C 	0.68595	0.1664	0.3317	-0.071
Mof_C 	C 	0.69362	0.2414	0.2689	0.016
Mof_H 	H 	0.7095	0.2478	0.1709	0.06
Mof_C 	C 	0.67747	0.3073	0.3526	-0.078
Mof_C 	C 	0.65269	0.2986	0.4966	-0.091
Mof_H 	H 	0.6416	0.3434	0.5514	0.077
Mof_C 	C 	0.6446	0.2227	0.5585	0.16
Mof_C 	C 	0.6613	0.1564	0.4771	-0.105
Mof_H 	H 	0.6563	0.1054	0.5189	0.068
Mof_C 	C 	0.6891	0.389	0.29	0.409
Mof_C 	C 	0.6059	0.1429	0.7545	-0.028
Mof_H 	H 	0.6416	0.1114	0.7938	0.043
Mof_H 	H 	0.58	0.1158	0.6536	0.046
Mof_C 	C 	0.5759	0.1507	0.9065	0.067
Mof_C 	C 	0.57026	0.0821	0.9996	-0.094
Mof_H 	H 	0.5864	0.0345	0.9719	0.063
Mof_C 	C 	0.54109	0.0834	0.1326	-0.024
Mof_H 	H 	0.5376	0.0363	0.1934	0.038
Mof_C 	C 	0.51683	0.1526	0.1782	0.001
Mof_C 	C 	0.5233	0.2225	0.0875	-0.023
Mof_H 	H 	0.508	0.2704	0.1172	0.045
Mof_C 	C 	0.55289	0.2206	0.9515	-0.084
Mof_H 	H 	0.557	0.2674	0.8908	0.079
Mof_O 	O 	0.72702	0.10744	0.1155	-0.473
Mof_O 	O 	0.70329	0.02659	0.314	-0.487
Mof_O 	O 	0.70146	0.3943	0.1417	-0.494
Mof_O 	O 	0.68556	0.44729	0.3911	-0.511
Mof_O 	O 	0.62001	0.2197	0.7012	-0.211
Mof_Zn	Zn	0.76425	0.03195	0.99118	1.236
Mof_C 	C 	0.20667	0.596	0.2483	0.372
Mof_C 	C 	0.18595	0.6664	0.3317	-0.073
Mof_C 	C 	0.19362	0.7414	0.2689	0.015
Mof_H 	H 	0.2095	0.7478	0.1709	0.058
Mof_C 	C 	0.17747	0.8073	0.3526	-0.079
Mof_C 	C 	0.15269	0.7986	0.4966	-0.092
Mof_H 	H 	0.1416	0.8434	0.5514	0.077
Mof_C 	C 	0.1446	0.7227	0.5585	0.16
Mof_C 	C 	0.1613	0.6564	0.4771	-0.105
Mof_H 	H 	0.1563	0.6054	0.5189	0.068
Mof_C 	C 	0.1891	0.889	0.29	0.409
Mof_C 	C 	0.1059	0.6429	0.7545	-0.023
Mof_H 	H 	0.1416	0.6114	0.7938	0.042
Mof_H 	H 	0.08	0.6158	0.6536	0.044
Mof_C 	C 	0.0759	0.6507	0.9065	0.058
Mof_C 	C 	0.07026	0.5821	0.9996	-0.08
Mof_H 	H 	0.0864	0.5345	0.9719	0.059
Mof_C 	C 	0.04109	0.5834	0.1326	-0.037
Mof_H 	H 	0.0376	0.5363	0.1934	0.042
Mof_C 	C 	0.01683	0.6526	0.1782	0.01
Mof_C 	C 	0.0233	0.7225	0.0875	-0.036
Mof_H 	H 	0.008	0.7704	0.1172	0.049
Mof_C 	C 	0.05289	0.7206	0.9515	-0.071
Mof_H 	H 	0.057	0.7674	0.8908	0.075
Mof_O 	O 	0.22702	0.60744	0.1155	-0.475
Mof_O 	O 	0.20329	0.52659	0.314	-0.488
Mof_O 	O 	0.20146	0.8943	0.1417	-0.495
Mof_O 	O 	0.18556	0.94729	0.3911	-0.511
Mof_O 	O 	0.12001	0.7197	0.7012	-0.212
Mof_Zn	Zn	0.26425	0.53195	0.99118	1.237
Mof_C 	C 	0.29333	0.096	0.2517	0.374
Mof_C 	C 	0.31405	0.1664	0.1683	-0.077
Mof_C 	C 	0.30638	0.2414	0.2311	0.019
Mof_H 	H 	0.2905	0.2478	0.3291	0.057
Mof_C 	C 	0.32253	0.3073	0.1474	-0.083
Mof_C 	C 	0.34731	0.2986	0.0034	-0.084
Mof_H 	H 	0.3584	0.3434	0.9486	0.073
Mof_C 	C 	0.3554	0.2227	0.9415	0.152
Mof_C 	C 	0.3387	0.1564	0.0229	-0.095
Mof_H 	H 	0.3437	0.1054	0.9811	0.063
Mof_C 	C 	0.3109	0.389	0.21	0.41
Mof_C 	C 	0.3941	0.1429	0.7455	-0.024
Mof_H 	H 	0.3584	0.1114	0.7062	0.043
Mof_H 	H 	0.42	0.1158	0.8464	0.045
Mof_C 	C 	0.4241	0.1507	0.5935	0.059
Mof_C 	C 	0.42974	0.0821	0.5004	-0.082
Mof_H 	H 	0.4136	0.0345	0.5281	0.059
Mof_C 	C 	0.45891	0.0834	0.3674	-0.036
Mof_H 	H 	0.4624	0.0363	0.3066	0.042
Mof_C 	C 	0.48317	0.1526	0.3218	0.011
Mof_C 	C 	0.4767	0.2225	0.4125	-0.034
Mof_H 	H 	0.492	0.2704	0.3828	0.049
Mof_C 	C 	0.44711	0.2206	0.5485	-0.073
Mof_H 	H 	0.443	0.2674	0.6092	0.075
Mof_O 	O 	0.27298	0.10744	0.3845	-0.475
Mof_O 	O 	0.29671	0.02659	0.186	-0.487
Mof_O 	O 	0.29854	0.3943	0.3583	-0.495
Mof_O 	O 	0.31444	0.44729	0.1089	-0.511
Mof_O 	O 	0.37999	0.2197	0.7988	-0.21
Mof_Zn	Zn	0.23575	0.03195	0.50882	1.237
Mof_C 	C 	0.79333	0.596	0.2517	0.371
Mof_C 	C 	0.81405	0.6664	0.1683	-0.069
Mof_C 	C 	0.80638	0.7414	0.2311	0.011
Mof_H 	H 	0.7905	0.7478	0.3291	0.06
Mof_C 	C 	0.82253	0.8073	0.1474	-0.075
Mof_C 	C 	0.84731	0.7986	0.0034	-0.1
Mof_H 	H 	0.8584	0.8434	0.9486	0.08
Mof_C 	C 	0.8554	0.7227	0.9415	0.166
Mof_C 	C 	0.8387	0.6564	0.0229	-0.111
Mof_H 	H 	0.8437	0.6054	0.9811	0.07
Mof_C 	C 	0.8109	0.889	0.21	0.407
Mof_C 	C 	0.8941	0.6429	0.7455	-0.024
Mof_H 	H 	0.8584	0.6114	0.7062	0.042
Mof_H 	H 	0.92	0.6158	0.8464	0.045
Mof_C 	C 	0.9241	0.6507	0.5935	0.061
Mof_C 	C 	0.92974	0.5821	0.5004	-0.084
Mof_H 	H 	0.9136	0.5345	0.5281	0.06
Mof_C 	C 	0.95891	0.5834	0.3674	-0.032
Mof_H 	H 	0.9624	0.5363	0.3066	0.04
Mof_C 	C 	0.98317	0.6526	0.3218	0.006
Mof_C 	C 	0.9767	0.7225	0.4125	-0.03
Mof_H 	H 	0.992	0.7704	0.3828	0.047
Mof_C 	C 	0.94711	0.7206	0.5485	-0.076
Mof_H 	H 	0.943	0.7674	0.6092	0.076
Mof_O 	O 	0.77298	0.60744	0.3845	-0.475
Mof_O 	O 	0.79671	0.52659	0.186	-0.488
Mof_O 	O 	0.79854	0.8943	0.3583	-0.494
Mof_O 	O 	0.81444	0.94729	0.1089	-0.511
Mof_O 	O 	0.87999	0.7197	0.7988	-0.213
Mof_Zn	Zn	0.73575	0.53195	0.50882	1.237
Mof_C 	C 	0.29333	0.904	0.7517	0.372
Mof_C 	C 	0.31405	0.8336	0.6683	-0.072
Mof_C 	C 	0.30638	0.7586	0.7311	0.015
Mof_H 	H 	0.2905	0.7522	0.8291	0.059
Mof_C 	C 	0.32253	0.6927	0.6474	-0.079
Mof_C 	C 	0.34731	0.7014	0.5034	-0.092
Mof_H 	H 	0.3584	0.6566	0.4486	0.076
Mof_C 	C 	0.3554	0.7773	0.4415	0.159
Mof_C 	C 	0.3387	0.8436	0.5229	-0.105
Mof_H 	H 	0.3437	0.8946	0.4811	0.068
Mof_C 	C 	0.3109	0.611	0.71	0.409
Mof_C 	C 	0.3941	0.8571	0.2455	-0.028
Mof_H 	H 	0.3584	0.8886	0.2062	0.043
Mof_H 	H 	0.42	0.8842	0.3464	0.046
Mof_C 	C 	0.4241	0.8493	0.0935	0.067
Mof_C 	C 	0.42974	0.9179	0.0004	-0.094
Mof_H 	H 	0.4136	0.9655	0.0281	0.063
Mof_C 	C 	0.45891	0.9166	0.8674	-0.024
Mof_H 	H 	0.4624	0.9637	0.8066	0.038
Mof_C 	C 	0.48317	0.8474	0.8218	0.001
Mof_C 	C 	0.4767	0.7775	0.9125	-0.023
Mof_H 	H 	0.492	0.7296	0.8828	0.045
Mof_C 	C 	0.44711	0.7794	0.0485	-0.084
Mof_H 	H 	0.443	0.7326	0.1092	0.079
Mof_O 	O 	0.27298	0.89256	0.8845	-0.473
Mof_O 	O 	0.29671	0.97341	0.686	-0.487
Mof_O 	O 	0.29854	0.6057	0.8583	-0.494
Mof_O 	O 	0.31444	0.55271	0.6089	-0.511
Mof_O 	O 	0.37999	0.7803	0.2988	-0.211
Mof_Zn	Zn	0.23575	0.96805	0.00882	1.236
Mof_C 	C 	0.79333	0.404	0.7517	0.372
Mof_C 	C 	0.81405	0.3336	0.6683	-0.073
Mof_C 	C 	0.80638	0.2586	0.7311	0.015
Mof_H 	H 	0.7905	0.2522	0.8291	0.058
Mof_C 	C 	0.82253	0.1927	0.6474	-0.079
Mof_C 	C 	0.84731	0.2014	0.5034	-0.092
Mof_H 	H 	0.8584	0.1566	0.4486	0.077
Mof_C 	C 	0.8554	0.2773	0.4415	0.16
Mof_C 	C 	0.8387	0.3436	0.5229	-0.105
Mof_H 	H 	0.8437	0.3946	0.4811	0.068
Mof_C 	C 	0.8109	0.111	0.71	0.409
Mof_C 	C 	0.8941	0.3571	0.2455	-0.023
Mof_H 	H 	0.8584	0.3886	0.2062	0.042
Mof_H 	H 	0.92	0.3842	0.3464	0.044
Mof_C 	C 	0.9241	0.3493	0.0935	0.058
Mof_C 	C 	0.92974	0.4179	0.0004	-0.08
Mof_H 	H 	0.9136	0.4655	0.0281	0.059
Mof_C 	C 	0.95891	0.4166	0.8674	-0.037
Mof_H 	H 	0.9624	0.4637	0.8066	0.042
Mof_C 	C 	0.98317	0.3474	0.8218	0.01
Mof_C 	C 	0.9767	0.2775	0.9125	-0.036
Mof_H 	H 	0.992	0.2296	0.8828	0.049
Mof_C 	C 	0.94711	0.2794	0.0485	-0.071
Mof_H 	H 	0.943	0.2326	0.1092	0.075
Mof_O 	O 	0.77298	0.39256	0.8845	-0.475
Mof_O 	O 	0.79671	0.47341	0.686	-0.488
Mof_O 	O 	0.79854	0.1057	0.8583	-0.495
Mof_O 	O 	0.81444	0.05271	0.6089	-0.511
Mof_O 	O 	0.87999	0.2803	0.2988	-0.212
Mof_Zn	Zn	0.73575	0.46805	0.00882	1.237
Mof_C 	C 	0.70667	0.904	0.7483	0.374
Mof_C 	C 	0.68595	0.8336	0.8317	-0.077
Mof_C 	C 	0.69362	0.7586	0.7689	0.019
Mof_H 	H 	0.7095	0.7522	0.6709	0.057
Mof_C 	C 	0.67747	0.6927	0.8526	-0.083
Mof_C 	C 	0.65269	0.7014	0.9966	-0.084
Mof_H 	H 	0.6416	0.6566	0.0514	0.073
Mof_C 	C 	0.6446	0.7773	0.0585	0.152
Mof_C 	C 	0.6613	0.8436	0.9771	-0.095
Mof_H 	H 	0.6563	0.8946	0.0189	0.063
Mof_C 	C 	0.6891	0.611	0.79	0.41
Mof_C 	C 	0.6059	0.8571	0.2545	-0.024
Mof_H 	H 	0.6416	0.8886	0.2938	0.043
Mof_H 	H 	0.58	0.8842	0.1536	0.045
Mof_C 	C 	0.5759	0.8493	0.4065	0.059
Mof_C 	C 	0.57026	0.9179	0.4996	-0.082
Mof_H 	H 	0.5864	0.9655	0.4719	0.059
Mof_C 	C 	0.54109	0.9166	0.6326	-0.036
Mof_H 	H 	0.5376	0.9637	0.6934	0.042
Mof_C 	C 	0.51683	0.8474	0.6782	0.011
Mof_C 	C 	0.5233	0.7775	0.5875	-0.034
Mof_H 	H 	0.508	0.7296	0.6172	0.049
Mof_C 	C 	0.55289	0.7794	0.4515	-0.073
Mof_H 	H 	0.557	0.7326	0.3908	0.075
Mof_O 	O 	0.72702	0.89256	0.6155	-0.475
Mof_O 	O 	0.70329	0.97341	0.814	-0.487
Mof_O 	O 	0.70146	0.6057	0.6417	-0.495
Mof_O 	O 	0.68556	0.55271	0.8911	-0.511
Mof_O 	O 	0.62001	0.7803	0.2012	-0.21
Mof_Zn	Zn	0.76425	0.96805	0.49118	1.237
Mof_C 	C 	0.20667	0.404	0.7483	0.371
Mof_C 	C 	0.18595	0.3336	0.8317	-0.069
Mof_C 	C 	0.19362	0.2586	0.7689	0.011
Mof_H 	H 	0.2095	0.2522	0.6709	0.06
Mof_C 	C 	0.17747	0.1927	0.8526	-0.075
Mof_C 	C 	0.15269	0.2014	0.9966	-0.1
Mof_H 	H 	0.1416	0.1566	0.0514	0.08
Mof_C 	C 	0.1446	0.2773	0.0585	0.166
Mof_C 	C 	0.1613	0.3436	0.9771	-0.111
Mof_H 	H 	0.1563	0.3946	0.0189	0.07
Mof_C 	C 	0.1891	0.111	0.79	0.407
Mof_C 	C 	0.1059	0.3571	0.2545	-0.024
Mof_H 	H 	0.1416	0.3886	0.2938	0.042
Mof_H 	H 	0.08	0.3842	0.1536	0.045
Mof_C 	C 	0.0759	0.3493	0.4065	0.061
Mof_C 	C 	0.07026	0.4179	0.4996	-0.084
Mof_H 	H 	0.0864	0.4655	0.4719	0.06
Mof_C 	C 	0.04109	0.4166	0.6326	-0.032
Mof_H 	H 	0.0376	0.4637	0.6934	0.04
Mof_C 	C 	0.01683	0.3474	0.6782	0.006
Mof_C 	C 	0.0233	0.2775	0.5875	-0.03
Mof_H 	H 	0.008	0.2296	0.6172	0.047
Mof_C 	C 	0.05289	0.2794	0.4515	-0.076
Mof_H 	H 	0.057	0.2326	0.3908	0.076
Mof_O 	O 	0.22702	0.39256	0.6155	-0.475
Mof_O 	O 	0.20329	0.47341	0.814	-0.488
Mof_O 	O 	0.20146	0.1057	0.6417	-0.494
Mof_O 	O 	0.18556	0.05271	0.8911	-0.511
Mof_O 	O 	0.12001	0.2803	0.2012	-0.213
Mof_Zn	Zn	0.26425	0.46805	0.49118	1.237
_end
