data_functionalizedCrystal
_audit_creation_method	'EQeq! by Chris Wilmer'
_symmetry_space_group_name_H-M	'P1'
_symmetry_Int_Tables_number	1
_symmetry_cell_setting	triclinic
loop_
_symmetry_equiv_pos_as_xyz
  x,y,z
_cell_length_a	17.8491
_cell_length_b	12.6534
_cell_length_c	11.1984
_cell_angle_alpha	90
_cell_angle_beta	94.865
_cell_angle_gamma	90
loop_
_atom_site_label
_atom_site_type_symbol
_atom_site_fract_x
_atom_site_fract_y
_atom_site_fract_z
_atom_site_charge
Mof_Co	Co	0.42123	0.55902	0.50044	1.13
Mof_N 	N 	0.87397	0.9348	0.1621	-0.208
Mof_N 	N 	0.91073	0.983	0.2558	-0.165
Mof_N 	N 	0.87738	0.9705	0.3559	-0.216
Mof_C 	C 	0.8117	0.8875	0.2051	0.04
Mof_C 	C 	0.8149	0.9104	0.3279	0.075
Mof_C 	C 	0.7598	0.8731	0.4003	-0.138
Mof_H 	H 	0.7621	0.8879	0.4828	0.063
Mof_C 	C 	0.703	0.8144	0.345	0.037
Mof_H 	H 	0.6655	0.788	0.3911	0.02
Mof_C 	C 	0.6983	0.7915	0.2202	-0.092
Mof_C 	C 	0.7528	0.827	0.1492	-0.05
Mof_H 	H 	0.7505	0.8113	0.0669	0.058
Mof_C 	C 	0.6331	0.726	0.1686	0.365
Mof_O 	O 	0.52009	0.5801	0.432	-0.744
Mof_H 	H 	0.543	0.641	0.465	0.19
Mof_O 	O 	0.63617	0.6897	0.0633	-0.453
Mof_O 	O 	0.58104	0.7117	0.2349	-0.442
Mof_Co	Co	0.92123	0.05902	0.50044	1.153
Mof_N 	N 	0.37397	0.4348	0.1621	-0.215
Mof_N 	N 	0.41073	0.483	0.2558	-0.188
Mof_N 	N 	0.37738	0.4705	0.3559	-0.225
Mof_C 	C 	0.3117	0.3875	0.2051	0.034
Mof_C 	C 	0.3149	0.4104	0.3279	0.073
Mof_C 	C 	0.2598	0.3731	0.4003	-0.145
Mof_H 	H 	0.2621	0.3879	0.4828	0.06
Mof_C 	C 	0.203	0.3144	0.345	0.036
Mof_H 	H 	0.1655	0.288	0.3911	0.011
Mof_C 	C 	0.1983	0.2915	0.2202	-0.101
Mof_C 	C 	0.2528	0.327	0.1492	-0.052
Mof_H 	H 	0.2505	0.3113	0.0669	0.056
Mof_C 	C 	0.1331	0.226	0.1686	0.365
Mof_O 	O 	0.02009	0.0801	0.432	-0.795
Mof_H 	H 	0.043	0.141	0.465	0.181
Mof_O 	O 	0.13617	0.1897	0.0633	-0.466
Mof_O 	O 	0.08104	0.2117	0.2349	-0.469
Mof_Co	Co	0.57877	0.55902	0.99956	1.132
Mof_N 	N 	0.12603	0.9348	0.3379	-0.22
Mof_N 	N 	0.08927	0.983	0.2442	-0.202
Mof_N 	N 	0.12262	0.9705	0.1441	-0.231
Mof_C 	C 	0.1883	0.8875	0.2949	0.033
Mof_C 	C 	0.1851	0.9104	0.1721	0.07
Mof_C 	C 	0.2402	0.8731	0.0997	-0.142
Mof_H 	H 	0.2379	0.8879	0.0172	0.062
Mof_C 	C 	0.297	0.8144	0.155	0.034
Mof_H 	H 	0.3345	0.788	0.1089	0.019
Mof_C 	C 	0.3017	0.7915	0.2798	-0.094
Mof_C 	C 	0.2472	0.827	0.3508	-0.055
Mof_H 	H 	0.2495	0.8113	0.4331	0.059
Mof_C 	C 	0.3669	0.726	0.3314	0.364
Mof_O 	O 	0.47991	0.5801	0.068	-0.745
Mof_H 	H 	0.457	0.641	0.035	0.189
Mof_O 	O 	0.36383	0.6897	0.4367	-0.452
Mof_O 	O 	0.41896	0.7117	0.2651	-0.442
Mof_Co	Co	0.07877	0.05902	0.99956	1.107
Mof_N 	N 	0.62603	0.4348	0.3379	-0.215
Mof_N 	N 	0.58927	0.483	0.2442	-0.188
Mof_N 	N 	0.62262	0.4705	0.1441	-0.224
Mof_C 	C 	0.6883	0.3875	0.2949	0.041
Mof_C 	C 	0.6851	0.4104	0.1721	0.071
Mof_C 	C 	0.7402	0.3731	0.0997	-0.133
Mof_H 	H 	0.7379	0.3879	0.0172	0.063
Mof_C 	C 	0.797	0.3144	0.155	0.032
Mof_H 	H 	0.8345	0.288	0.1089	0.029
Mof_C 	C 	0.8017	0.2915	0.2798	-0.081
Mof_C 	C 	0.7472	0.327	0.3508	-0.056
Mof_H 	H 	0.7495	0.3113	0.4331	0.064
Mof_C 	C 	0.8669	0.226	0.3314	0.359
Mof_O 	O 	0.97991	0.0801	0.068	-0.678
Mof_H 	H 	0.957	0.141	0.035	0.197
Mof_O 	O 	0.86383	0.1897	0.4367	-0.432
Mof_O 	O 	0.91896	0.2117	0.2651	-0.396
Mof_Co	Co	0.57877	0.44098	0.49956	1.129
Mof_N 	N 	0.12603	0.0652	0.8379	-0.22
Mof_N 	N 	0.08927	0.017	0.7442	-0.202
Mof_N 	N 	0.12262	0.0295	0.6441	-0.231
Mof_C 	C 	0.1883	0.1125	0.7949	0.033
Mof_C 	C 	0.1851	0.0896	0.6721	0.071
Mof_C 	C 	0.2402	0.1269	0.5997	-0.142
Mof_H 	H 	0.2379	0.1121	0.5172	0.063
Mof_C 	C 	0.297	0.1856	0.655	0.034
Mof_H 	H 	0.3345	0.212	0.6089	0.02
Mof_C 	C 	0.3017	0.2085	0.7798	-0.093
Mof_C 	C 	0.2472	0.173	0.8508	-0.055
Mof_H 	H 	0.2495	0.1887	0.9331	0.06
Mof_C 	C 	0.3669	0.274	0.8314	0.364
Mof_O 	O 	0.47991	0.4199	0.568	-0.744
Mof_H 	H 	0.457	0.359	0.535	0.19
Mof_O 	O 	0.36383	0.3103	0.9367	-0.451
Mof_O 	O 	0.41896	0.2883	0.7651	-0.441
Mof_Co	Co	0.07877	0.94098	0.49956	1.107
Mof_N 	N 	0.62603	0.5652	0.8379	-0.214
Mof_N 	N 	0.58927	0.517	0.7442	-0.187
Mof_N 	N 	0.62262	0.5295	0.6441	-0.223
Mof_C 	C 	0.6883	0.6125	0.7949	0.042
Mof_C 	C 	0.6851	0.5896	0.6721	0.072
Mof_C 	C 	0.7402	0.6269	0.5997	-0.132
Mof_H 	H 	0.7379	0.6121	0.5172	0.064
Mof_C 	C 	0.797	0.6856	0.655	0.031
Mof_H 	H 	0.8345	0.712	0.6089	0.03
Mof_C 	C 	0.8017	0.7085	0.7798	-0.079
Mof_C 	C 	0.7472	0.673	0.8508	-0.057
Mof_H 	H 	0.7495	0.6887	0.9331	0.067
Mof_C 	C 	0.8669	0.774	0.8314	0.358
Mof_O 	O 	0.97991	0.9199	0.568	-0.676
Mof_H 	H 	0.957	0.859	0.535	0.198
Mof_O 	O 	0.86383	0.8103	0.9367	-0.428
Mof_O 	O 	0.91896	0.7883	0.7651	-0.395
Mof_Co	Co	0.42123	0.44098	0.00044	1.128
Mof_N 	N 	0.87397	0.0652	0.6621	-0.208
Mof_N 	N 	0.91073	0.017	0.7558	-0.164
Mof_N 	N 	0.87738	0.0295	0.8559	-0.216
Mof_C 	C 	0.8117	0.1125	0.7051	0.041
Mof_C 	C 	0.8149	0.0896	0.8279	0.075
Mof_C 	C 	0.7598	0.1269	0.9003	-0.137
Mof_H 	H 	0.7621	0.1121	0.9828	0.063
Mof_C 	C 	0.703	0.1856	0.845	0.036
Mof_H 	H 	0.6655	0.212	0.8911	0.02
Mof_C 	C 	0.6983	0.2085	0.7202	-0.091
Mof_C 	C 	0.7528	0.173	0.6492	-0.051
Mof_H 	H 	0.7505	0.1887	0.5669	0.061
Mof_C 	C 	0.6331	0.274	0.6686	0.365
Mof_O 	O 	0.52009	0.4199	0.932	-0.743
Mof_H 	H 	0.543	0.359	0.965	0.191
Mof_O 	O 	0.63617	0.3103	0.5633	-0.45
Mof_O 	O 	0.58104	0.2883	0.7349	-0.441
Mof_Co	Co	0.92123	0.94098	0.00044	1.149
Mof_N 	N 	0.37397	0.5652	0.6621	-0.215
Mof_N 	N 	0.41073	0.517	0.7558	-0.188
Mof_N 	N 	0.37738	0.5295	0.8559	-0.224
Mof_C 	C 	0.3117	0.6125	0.7051	0.034
Mof_C 	C 	0.3149	0.5896	0.8279	0.074
Mof_C 	C 	0.2598	0.6269	0.9003	-0.145
Mof_H 	H 	0.2621	0.6121	0.9828	0.062
Mof_C 	C 	0.203	0.6856	0.845	0.037
Mof_H 	H 	0.1655	0.712	0.8911	0.012
Mof_C 	C 	0.1983	0.7085	0.7202	-0.101
Mof_C 	C 	0.2528	0.673	0.6492	-0.051
Mof_H 	H 	0.2505	0.6887	0.5669	0.056
Mof_C 	C 	0.1331	0.774	0.6686	0.366
Mof_O 	O 	0.02009	0.9199	0.932	-0.792
Mof_H 	H 	0.043	0.859	0.965	0.182
Mof_O 	O 	0.13617	0.8103	0.5633	-0.467
Mof_O 	O 	0.08104	0.7883	0.7349	-0.47
Mof_Co	Co	0.5	0.59553	0.25	1.153
Mof_Co	Co	2.81954e-18	0.09553	0.25	1.106
Mof_Co	Co	0.5	0.40447	0.75	1.153
Mof_Co	Co	-5.63908e-18	0.90447	0.75	1.105
_end
