data_functionalizedCrystal
_audit_creation_method	'EQeq! by Chris Wilmer'
_symmetry_space_group_name_H-M	'P1'
_symmetry_Int_Tables_number	1
_symmetry_cell_setting	triclinic
loop_
_symmetry_equiv_pos_as_xyz
  x,y,z
_cell_length_a	12.1761
_cell_length_b	14.336
_cell_length_c	12.5552
_cell_angle_alpha	90
_cell_angle_beta	113.22
_cell_angle_gamma	90
loop_
_atom_site_label
_atom_site_type_symbol
_atom_site_fract_x
_atom_site_fract_y
_atom_site_fract_z
_atom_site_charge
Mof_Ni	Ni	0.73837	0.63743	0.4953	1.082
Mof_O 	O 	0.6916	0.66857	0.629	-0.453
Mof_O 	O 	0.5664	0.58756	0.3976	-0.456
Mof_O 	O 	0.3135	0.87697	0.8746	-0.378
Mof_O 	O 	0.7102	0.00384	0.9661	-0.429
Mof_C 	C 	0.5937	0.6677	0.6412	0.389
Mof_N 	N 	0.5469	0.5624	0.2857	-0.048
Mof_C 	C 	0.573	0.7448	0.7131	-0.127
Mof_O 	O 	0.5106	0.60957	0.6001	-0.421
Mof_C 	C 	0.4696	0.6119	0.1977	0
Mof_C 	C 	0.6061	0.4906	0.2665	0.002
Mof_O 	O 	0.83376	0.94638	0.8892	-0.364
Mof_C 	C 	0.4656	0.7476	0.7267	0.057
Mof_C 	C 	0.6603	0.8122	0.7658	0.07
Mof_H 	H 	0.4283	0.6614	0.2125	0.022
Mof_C 	C 	0.4512	0.5898	0.0858	-0.042
Mof_C 	C 	0.5903	0.4649	0.1556	-0.037
Mof_H 	H 	0.659	0.4571	0.3292	0.061
Mof_H 	H 	0.4079	0.7023	0.6917	0.042
Mof_C 	C 	0.4432	0.8176	0.7923	-0.102
Mof_C 	C 	0.6403	0.8807	0.8348	-0.12
Mof_H 	H 	0.7316	0.8114	0.755	0.03
Mof_H 	H 	0.3991	0.6257	0.0253	0.014
Mof_C 	C 	0.51	0.5134	0.0609	-0.053
Mof_H 	H 	0.6333	0.4151	0.1441	0.043
Mof_C 	C 	0.5305	0.8837	0.8462	0.057
Mof_C 	C 	0.3282	0.8135	0.8123	0.331
Mof_C 	C 	0.736	0.9496	0.901	0.413
Mof_H 	H 	0.5161	0.9305	0.8904	0.058
Mof_O 	O 	0.2575	0.74835	0.7659	-0.285
Mof_H 	H 	0.5173	0.6438	0.3862	0.138
Mof_Ni	Ni	0.76163	0.13743	0.0047	1.054
Mof_O 	O 	0.8084	0.16857	0.871	-0.44
Mof_O 	O 	0.9336	0.08756	0.1024	-0.47
Mof_O 	O 	0.1865	0.37697	0.6254	-0.405
Mof_O 	O 	0.7898	0.50384	0.5339	-0.417
Mof_C 	C 	0.9063	0.1677	0.8588	0.369
Mof_N 	N 	0.9531	0.0624	0.2143	-0.06
Mof_C 	C 	0.927	0.2448	0.7869	-0.074
Mof_O 	O 	0.9894	0.10957	0.8999	-0.377
Mof_C 	C 	0.0304	0.1119	0.3023	-0.01
Mof_C 	C 	0.8939	0.9906	0.2335	0.074
Mof_O 	O 	0.66624	0.44638	0.6108	-0.396
Mof_C 	C 	0.0344	0.2476	0.7733	0.002
Mof_C 	C 	0.8397	0.3122	0.7342	0.053
Mof_H 	H 	0.0717	0.1614	0.2875	0.014
Mof_C 	C 	0.0488	0.0898	0.4142	-0.117
Mof_C 	C 	0.9097	0.9649	0.3444	-0.04
Mof_H 	H 	0.841	0.9571	0.1708	0.045
Mof_H 	H 	0.0921	0.2023	0.8083	0.056
Mof_C 	C 	0.0568	0.3176	0.7077	-0.138
Mof_C 	C 	0.8597	0.3807	0.6652	-0.124
Mof_H 	H 	0.7684	0.3114	0.745	0.032
Mof_H 	H 	0.1009	0.1257	0.4747	0.048
Mof_C 	C 	0.99	0.0134	0.4391	0.017
Mof_H 	H 	0.8667	0.9151	0.3559	0.063
Mof_C 	C 	0.9695	0.3837	0.6538	0.102
Mof_C 	C 	0.1718	0.3135	0.6877	0.334
Mof_C 	C 	0.764	0.4496	0.599	0.379
Mof_H 	H 	0.9839	0.4305	0.6096	0.037
Mof_O 	O 	0.2425	0.24835	0.7341	-0.285
Mof_H 	H 	0.9827	0.1438	0.1138	0.144
Mof_Ni	Ni	0.26163	0.36257	0.5047	1.076
Mof_O 	O 	0.3084	0.33143	0.371	-0.467
Mof_O 	O 	0.4336	0.41244	0.6024	-0.454
Mof_O 	O 	0.6865	0.12303	0.1254	-0.418
Mof_O 	O 	0.2898	0.99616	0.0339	-0.383
Mof_C 	C 	0.4063	0.3323	0.3588	0.386
Mof_N 	N 	0.4531	0.4376	0.7143	-0.071
Mof_C 	C 	0.427	0.2552	0.2869	-0.136
Mof_O 	O 	0.4894	0.39043	0.3999	-0.424
Mof_C 	C 	0.5304	0.3881	0.8023	0.069
Mof_C 	C 	0.3939	0.5094	0.7335	0.064
Mof_O 	O 	0.16624	0.05362	0.1108	-0.415
Mof_C 	C 	0.5344	0.2524	0.2733	0.055
Mof_C 	C 	0.3397	0.1878	0.2342	0.057
Mof_H 	H 	0.5717	0.3386	0.7875	0.004
Mof_C 	C 	0.5488	0.4102	0.9142	-0.143
Mof_C 	C 	0.4097	0.5351	0.8444	-0.14
Mof_H 	H 	0.341	0.5429	0.6708	0.039
Mof_H 	H 	0.5921	0.2977	0.3083	0.04
Mof_C 	C 	0.5568	0.1824	0.2077	-0.12
Mof_C 	C 	0.3597	0.1193	0.1652	-0.124
Mof_H 	H 	0.2684	0.1886	0.245	0.02
Mof_H 	H 	0.6009	0.3743	0.9747	0.089
Mof_C 	C 	0.49	0.4866	0.9391	0.135
Mof_H 	H 	0.3667	0.5849	0.8559	0.1
Mof_C 	C 	0.4695	0.1163	0.1538	0.045
Mof_C 	C 	0.6718	0.1865	0.1877	0.328
Mof_C 	C 	0.264	0.0504	0.099	0.309
Mof_H 	H 	0.4839	0.0695	0.1096	0.02
Mof_O 	O 	0.7425	0.25165	0.2341	-0.286
Mof_H 	H 	0.4827	0.3562	0.6138	0.136
Mof_Ni	Ni	0.23837	0.86257	0.9953	1.098
Mof_O 	O 	0.1916	0.83143	0.129	-0.469
Mof_O 	O 	0.0664	0.91244	0.8976	-0.432
Mof_O 	O 	0.8135	0.62303	0.3746	-0.387
Mof_O 	O 	0.2102	0.49616	0.4661	-0.425
Mof_C 	C 	0.0937	0.8323	0.1412	0.398
Mof_N 	N 	0.0469	0.9376	0.7857	-0.062
Mof_C 	C 	0.073	0.7552	0.2131	-0.177
Mof_O 	O 	0.0106	0.89043	0.1001	-0.435
Mof_C 	C 	0.9696	0.8881	0.6977	0.079
Mof_C 	C 	0.1061	0.0094	0.7665	-0
Mof_O 	O 	0.33376	0.55362	0.3892	-0.4
Mof_C 	C 	0.9656	0.7524	0.2267	0.098
Mof_C 	C 	0.1603	0.6878	0.2658	0.074
Mof_H 	H 	0.9283	0.8386	0.7125	0.01
Mof_C 	C 	0.9512	0.9102	0.5858	-0.08
Mof_C 	C 	0.0903	0.0351	0.6556	-0.149
Mof_H 	H 	0.159	0.0429	0.8292	0.054
Mof_H 	H 	0.9079	0.7977	0.1917	0.03
Mof_C 	C 	0.9432	0.6824	0.2923	-0.084
Mof_C 	C 	0.1403	0.6193	0.3348	-0.124
Mof_H 	H 	0.2316	0.6886	0.255	0.018
Mof_H 	H 	0.8991	0.8743	0.5253	0.055
Mof_C 	C 	0.01	0.9866	0.5609	0.074
Mof_H 	H 	0.1333	0.0849	0.6441	0.084
Mof_C 	C 	0.0305	0.6163	0.3462	0.008
Mof_C 	C 	0.8282	0.6865	0.3123	0.323
Mof_C 	C 	0.236	0.5504	0.401	0.372
Mof_H 	H 	0.0161	0.5695	0.3904	0.042
Mof_O 	O 	0.7575	0.75165	0.2659	-0.284
Mof_H 	H 	0.0173	0.8562	0.8862	0.128
Mof_Ni	Ni	0.5	0.5	0.5	1.133
Mof_Ni	Ni	-0	0	-0	1.075
_end
