data_functionalizedCrystal
_audit_creation_method	'EQeq! by Chris Wilmer'
_symmetry_space_group_name_H-M	'P1'
_symmetry_Int_Tables_number	1
_symmetry_cell_setting	triclinic
loop_
_symmetry_equiv_pos_as_xyz
  x,y,z
_cell_length_a	15.762
_cell_length_b	15.762
_cell_length_c	15.762
_cell_angle_alpha	90
_cell_angle_beta	90
_cell_angle_gamma	90
loop_
_atom_site_label
_atom_site_type_symbol
_atom_site_fract_x
_atom_site_fract_y
_atom_site_fract_z
_atom_site_charge
Mof_N 	N 	0.2385	0.3758	0.0826	-0.147
Mof_C 	C 	0.2301	0.319	0.1238	-0.02
Mof_N 	N 	0.7615	0.6242	0.0826	-0.143
Mof_C 	C 	0.7699	0.681	0.1238	-0.008
Mof_N 	N 	0.7615	0.3758	0.9174	-0.128
Mof_C 	C 	0.7699	0.319	0.8762	0.004
Mof_N 	N 	0.2385	0.6242	0.9174	-0.13
Mof_C 	C 	0.2301	0.681	0.8762	-0.002
Mof_N 	N 	0.0826	0.2385	0.3758	-0.146
Mof_C 	C 	0.1238	0.2301	0.319	-0.019
Mof_N 	N 	0.0826	0.7615	0.6242	-0.142
Mof_C 	C 	0.1238	0.7699	0.681	-0.007
Mof_N 	N 	0.9174	0.7615	0.3758	-0.127
Mof_C 	C 	0.8762	0.7699	0.319	0.005
Mof_N 	N 	0.9174	0.2385	0.6242	-0.129
Mof_C 	C 	0.8762	0.2301	0.681	-0.001
Mof_N 	N 	0.3758	0.0826	0.2385	-0.146
Mof_C 	C 	0.319	0.1238	0.2301	-0.019
Mof_N 	N 	0.6242	0.0826	0.7615	-0.142
Mof_C 	C 	0.681	0.1238	0.7699	-0.007
Mof_N 	N 	0.3758	0.9174	0.7615	-0.127
Mof_C 	C 	0.319	0.8762	0.7699	0.005
Mof_N 	N 	0.6242	0.9174	0.2385	-0.129
Mof_C 	C 	0.681	0.8762	0.2301	-0.001
Mof_N 	N 	0.8758	0.7385	0.5826	-0.127
Mof_C 	C 	0.819	0.7301	0.6238	0.006
Mof_N 	N 	0.1242	0.2615	0.5826	-0.145
Mof_C 	C 	0.181	0.2699	0.6238	-0.015
Mof_N 	N 	0.8758	0.2615	0.4174	-0.13
Mof_C 	C 	0.819	0.2699	0.3762	-0.005
Mof_N 	N 	0.1242	0.7385	0.4174	-0.142
Mof_C 	C 	0.181	0.7301	0.3762	-0.009
Mof_N 	N 	0.7385	0.5826	0.8758	-0.127
Mof_C 	C 	0.7301	0.6238	0.819	0.006
Mof_N 	N 	0.2615	0.5826	0.1242	-0.145
Mof_C 	C 	0.2699	0.6238	0.181	-0.015
Mof_N 	N 	0.2615	0.4174	0.8758	-0.13
Mof_C 	C 	0.2699	0.3762	0.819	-0.005
Mof_N 	N 	0.7385	0.4174	0.1242	-0.142
Mof_C 	C 	0.7301	0.3762	0.181	-0.009
Mof_N 	N 	0.5826	0.8758	0.7385	-0.127
Mof_C 	C 	0.6238	0.819	0.7301	0.006
Mof_N 	N 	0.5826	0.1242	0.2615	-0.145
Mof_C 	C 	0.6238	0.181	0.2699	-0.015
Mof_N 	N 	0.4174	0.8758	0.2615	-0.13
Mof_C 	C 	0.3762	0.819	0.2699	-0.005
Mof_N 	N 	0.4174	0.1242	0.7385	-0.142
Mof_C 	C 	0.3762	0.181	0.7301	-0.009
Mof_Cd	Cd	0.25	0.5	-0	0.289
Mof_Cd	Cd	0.75	0.5	-0	0.301
Mof_Cd	Cd	1.8747e-33	0.25	0.5	0.289
Mof_Cd	Cd	8.32109e-33	0.75	0.5	0.301
Mof_Cd	Cd	0.5	3.22319e-33	0.25	0.289
Mof_Cd	Cd	0.5	6.44639e-33	0.75	0.301
Mof_Cd	Cd	-0	0	-0	0.177
Mof_Cd	Cd	0.5	0.5	0.5	0.283
Mof_Cd	Cd	0.20687	0.20687	0.20687	0.254
Mof_C 	C 	0.0825	0.0825	0.0825	-0.093
Mof_C 	C 	0.1238	0.1238	0.1238	-0.076
Mof_Cd	Cd	0.79313	0.79313	0.20687	0.273
Mof_C 	C 	0.9175	0.9175	0.0825	-0.021
Mof_C 	C 	0.8762	0.8762	0.1238	-0.071
Mof_Cd	Cd	0.79313	0.20687	0.79313	0.273
Mof_C 	C 	0.9175	0.0825	0.9175	-0.021
Mof_C 	C 	0.8762	0.1238	0.8762	-0.071
Mof_Cd	Cd	0.20687	0.79313	0.79313	0.273
Mof_C 	C 	0.0825	0.9175	0.9175	-0.021
Mof_C 	C 	0.1238	0.8762	0.8762	-0.071
Mof_Cd	Cd	0.70687	0.70687	0.70687	0.276
Mof_C 	C 	0.5825	0.5825	0.5825	-0.066
Mof_C 	C 	0.6238	0.6238	0.6238	-0.06
Mof_Cd	Cd	0.29313	0.29313	0.70687	0.264
Mof_C 	C 	0.4175	0.4175	0.5825	-0.068
Mof_C 	C 	0.3762	0.3762	0.6238	-0.063
Mof_Cd	Cd	0.70687	0.29313	0.29313	0.264
Mof_C 	C 	0.5825	0.4175	0.4175	-0.068
Mof_C 	C 	0.6238	0.3762	0.3762	-0.063
Mof_Cd	Cd	0.29313	0.70687	0.29313	0.264
Mof_C 	C 	0.4175	0.5825	0.4175	-0.068
Mof_C 	C 	0.3762	0.6238	0.3762	-0.063
_end
