data_functionalizedCrystal
_audit_creation_method	'EQeq! by Chris Wilmer'
_symmetry_space_group_name_H-M	'P1'
_symmetry_Int_Tables_number	1
_symmetry_cell_setting	triclinic
loop_
_symmetry_equiv_pos_as_xyz
  x,y,z
_cell_length_a	13.969
_cell_length_b	42.439
_cell_length_c	33.47
_cell_angle_alpha	90
_cell_angle_beta	90
_cell_angle_gamma	90
loop_
_atom_site_label
_atom_site_type_symbol
_atom_site_fract_x
_atom_site_fract_y
_atom_site_fract_z
_atom_site_charge
Mof_Cd	Cd	0.46485	0.81723	0.8058	0.484
Mof_Cd	Cd	0.19399	0.63744	0.30034	0.508
Mof_Cd	Cd	0.96485	0.68277	0.3058	0.485
Mof_Cd	Cd	0.69399	0.86256	0.80034	0.509
Mof_Cd	Cd	0.53515	0.18277	0.3058	0.484
Mof_Cd	Cd	0.91583	0.83897	0.75334	0.387
Mof_Cd	Cd	0.30601	0.13744	0.30034	0.509
Mof_Cd	Cd	0.08417	0.16103	0.25334	0.387
Mof_Cd	Cd	0.58417	0.33897	0.75334	0.387
Mof_Cd	Cd	0.41583	0.66103	0.25334	0.386
Mof_Cd	Cd	0.80601	0.36256	0.80034	0.508
Mof_Cd	Cd	0.03515	0.31723	0.8058	0.485
Mof_H 	H 	0.7189	0.2495	0.2141	-0.01
Mof_H 	H 	0.3502	0.3647	0.9263	0.107
Mof_H 	H 	0.4242	0.4584	0.0706	0.287
Mof_H 	H 	0.7372	0.0597	0.2107	0.085
Mof_H 	H 	0.393	0.4378	0.034	0.285
Mof_H 	H 	0.3448	0.0368	0.5589	0.261
Mof_H 	H 	0.2628	0.9403	0.7107	0.085
Mof_H 	H 	0.203	0.6502	0.6001	0.262
Mof_H 	H 	0.592	0.8513	0.1067	0.262
Mof_H 	H 	0.7628	0.5597	0.2107	0.085
Mof_H 	H 	0.8308	0.6095	0.2309	0.03
Mof_H 	H 	0.757	0.9249	0.238	0.298
Mof_H 	H 	0.6209	0.2954	0.3126	0.012
Mof_H 	H 	0.8791	0.7954	0.3126	0.013
Mof_H 	H 	0.3238	0.3265	0.0557	0.299
Mof_H 	H 	0.4212	0.248	0.2771	0.015
Mof_H 	H 	0.107	0.9378	0.034	0.285
Mof_H 	H 	0.5788	0.752	0.7771	0.015
Mof_H 	H 	0.3385	0.1004	0.3976	0.023
Mof_H 	H 	0.5913	0.9228	0.7186	0.037
Mof_H 	H 	0.3308	0.8905	0.7309	0.029
Mof_H 	H 	0.4111	0.0175	0.5876	0.27
Mof_H 	H 	0.5109	0.1694	0.4429	0.027
Mof_H 	H 	0.1674	0.813	0.0991	0.295
Mof_H 	H 	0.7998	0.4872	0.0892	0.27
Mof_H 	H 	0.8203	0.8638	0.9245	0.005
Mof_H 	H 	0.1552	0.5368	0.5589	0.261
Mof_H 	H 	0.1498	0.8647	0.9263	0.106
Mof_H 	H 	0.9691	0.4709	0.6878	0.082
Mof_H 	H 	0.9111	0.4825	0.0876	0.269
Mof_H 	H 	0.7954	0.2921	0.1972	0.101
Mof_H 	H 	0.5752	0.677	0.5756	0.293
Mof_H 	H 	0.7409	0.5131	0.7357	0.112
Mof_H 	H 	0.0889	0.5175	0.5876	0.27
Mof_H 	H 	0.7591	0.0131	0.7357	0.112
Mof_H 	H 	0.408	0.1487	0.6067	0.262
Mof_H 	H 	0.2591	0.4869	0.2357	0.112
Mof_H 	H 	0.2189	0.2505	0.7141	-0.01
Mof_H 	H 	0.7804	0.467	0.7635	-0.025
Mof_H 	H 	0.703	0.8498	0.1001	0.262
Mof_H 	H 	0.2448	0.9139	0.2036	0.255
Mof_H 	H 	0.7046	0.7921	0.1972	0.101
Mof_H 	H 	0.0862	0.0315	0.1558	0.138
Mof_H 	H 	0.8502	0.1353	0.4263	0.106
Mof_H 	H 	0.0913	0.5772	0.2186	0.038
Mof_H 	H 	0.9212	0.252	0.7771	0.014
Mof_H 	H 	0.8013	0.8393	0.2867	0.123
Mof_H 	H 	0.6343	0.5893	0.7105	0.257
Mof_H 	H 	0.2372	0.4403	0.7107	0.085
Mof_H 	H 	0.092	0.6487	0.6067	0.261
Mof_H 	H 	0.5862	0.4685	0.6558	0.138
Mof_H 	H 	0.1465	0.5703	0.7435	0.294
Mof_H 	H 	0.1841	0.9564	0.0586	0.28
Mof_H 	H 	0.532	0.8484	0.0071	0.075
Mof_H 	H 	0.3657	0.4107	0.2105	0.257
Mof_H 	H 	0.3791	0.7046	0.8126	0.012
Mof_H 	H 	0.2409	0.9869	0.2357	0.112
Mof_H 	H 	0.297	0.1502	0.6001	0.262
Mof_H 	H 	0.1343	0.9107	0.2105	0.256
Mof_H 	H 	0.5758	0.5416	0.5706	0.288
Mof_H 	H 	0.1035	0.1318	0.4808	0.1
Mof_H 	H 	0.1615	0.6004	0.3976	0.024
Mof_H 	H 	0.82	0.4188	0.9612	0.085
Mof_H 	H 	0.4186	0.2962	0.246	0.094
Mof_H 	H 	0.1762	0.8265	0.0557	0.299
Mof_H 	H 	0.5814	0.7038	0.746	0.094
Mof_H 	H 	0.797	0.3498	0.1001	0.262
Mof_H 	H 	0.1692	0.3905	0.7309	0.03
Mof_H 	H 	0.3326	0.313	0.0991	0.295
Mof_H 	H 	0.6987	0.3393	0.2867	0.123
Mof_H 	H 	0.2811	0.7505	0.7141	-0.01
Mof_H 	H 	0.5755	0.6442	0.3679	0.004
Mof_H 	H 	0.6498	0.6353	0.4263	0.108
Mof_H 	H 	0.0109	0.3306	0.9429	0.03
Mof_H 	H 	0.9891	0.6694	0.4429	0.029
Mof_H 	H 	0.712	0.9584	0.2324	0.291
Mof_H 	H 	0.8159	0.0436	0.5586	0.281
Mof_H 	H 	0.6692	0.1095	0.2309	0.029
Mof_H 	H 	0.2046	0.7079	0.6972	0.101
Mof_H 	H 	0.2954	0.2079	0.6972	0.101
Mof_H 	H 	0.607	0.5622	0.534	0.286
Mof_H 	H 	0.3405	0.1586	0.642	0.251
Mof_H 	H 	0.8535	0.4297	0.2435	0.293
Mof_H 	H 	0.6797	0.3638	0.9245	0.004
Mof_H 	H 	0.4087	0.0772	0.2186	0.037
Mof_H 	H 	0.2002	0.5128	0.5892	0.271
Mof_H 	H 	0.2804	0.033	0.2635	-0.025
Mof_H 	H 	0.6595	0.8414	0.142	0.251
Mof_H 	H 	0.1118	0.0776	0.1908	-0.024
Mof_H 	H 	0.8238	0.1735	0.5557	0.299
Mof_H 	H 	0.9186	0.2038	0.746	0.094
Mof_H 	H 	0.1848	0.2676	0.1842	0.094
Mof_H 	H 	0.3	0.3807	0.2124	0.256
Mof_H 	H 	0.212	0.5416	0.7324	0.29
Mof_H 	H 	0.7552	0.0861	0.7036	0.256
Mof_H 	H 	0.9087	0.4228	0.7186	0.038
Mof_H 	H 	0.8326	0.187	0.5991	0.295
Mof_H 	H 	0.6552	0.9632	0.0589	0.26
Mof_H 	H 	0.893	0.0622	0.534	0.286
Mof_H 	H 	0.32	0.0812	0.4612	0.085
Mof_H 	H 	0.2	0.8807	0.2124	0.256
Mof_H 	H 	0.6674	0.687	0.5991	0.296
Mof_H 	H 	0.5309	0.9709	0.6878	0.083
Mof_H 	H 	0.243	0.0751	0.738	0.298
Mof_H 	H 	0.9138	0.9685	0.6558	0.138
Mof_H 	H 	0.743	0.4249	0.238	0.297
Mof_H 	H 	0.8153	0.777	0.7202	-0.019
Mof_H 	H 	0.4891	0.8306	0.9429	0.028
Mof_H 	H 	0.7	0.6193	0.7124	0.256
Mof_H 	H 	0.0814	0.7962	0.246	0.094
Mof_H 	H 	0.3965	0.6318	0.4808	0.102
Mof_H 	H 	0.1595	0.6586	0.642	0.251
Mof_H 	H 	0.468	0.1516	0.5071	0.077
Mof_H 	H 	0.908	0.3513	0.1067	0.261
Mof_H 	H 	0.3153	0.723	0.2202	-0.02
Mof_H 	H 	0.6615	0.8996	0.8976	0.023
Mof_H 	H 	0.288	0.0416	0.7324	0.291
Mof_H 	H 	0.6762	0.6735	0.5557	0.3
Mof_H 	H 	0.9248	0.177	0.5756	0.293
Mof_H 	H 	0.6847	0.277	0.7202	-0.02
Mof_H 	H 	0.3159	0.4564	0.0586	0.28
Mof_H 	H 	0.9242	0.0416	0.5706	0.288
Mof_H 	H 	0.8405	0.3414	0.142	0.251
Mof_H 	H 	0.788	0.4584	0.2324	0.29
Mof_H 	H 	0.3535	0.0703	0.7435	0.294
Mof_H 	H 	0.4138	0.5315	0.1558	0.138
Mof_H 	H 	0.7811	0.7495	0.2141	-0.01
Mof_H 	H 	0.1987	0.1607	0.7867	0.123
Mof_H 	H 	0.8152	0.7324	0.6842	0.094
Mof_H 	H 	0.7196	0.967	0.7635	-0.025
Mof_H 	H 	0.6118	0.4224	0.6908	-0.024
Mof_H 	H 	0.18	0.5812	0.4612	0.084
Mof_H 	H 	0.8448	0.4632	0.0589	0.26
Mof_H 	H 	0.6841	0.5436	0.5586	0.281
Mof_H 	H 	0.4248	0.323	0.0756	0.293
Mof_H 	H 	0.7002	0.9872	0.0892	0.27
Mof_H 	H 	0.3152	0.7676	0.1842	0.094
Mof_H 	H 	0.6465	0.9297	0.2435	0.294
Mof_H 	H 	0.7448	0.5861	0.7036	0.256
Mof_H 	H 	0.8	0.1193	0.7124	0.256
Mof_H 	H 	0.0788	0.748	0.2771	0.014
Mof_H 	H 	0.0755	0.8558	0.8679	0.006
Mof_H 	H 	0.968	0.3484	0.0071	0.073
Mof_H 	H 	0.4691	0.0291	0.1878	0.083
Mof_H 	H 	0.0758	0.9584	0.0706	0.287
Mof_H 	H 	0.6035	0.3682	0.9808	0.101
Mof_H 	H 	0.3882	0.5776	0.1908	-0.024
Mof_H 	H 	0.032	0.6516	0.5071	0.076
Mof_H 	H 	0.8882	0.9224	0.6908	-0.024
Mof_H 	H 	0.257	0.5751	0.738	0.297
Mof_H 	H 	0.2552	0.4139	0.2036	0.256
Mof_H 	H 	0.2998	0.0128	0.5892	0.271
Mof_H 	H 	0.0752	0.823	0.0756	0.292
Mof_H 	H 	0.1209	0.2046	0.8126	0.013
Mof_H 	H 	0.4245	0.3558	0.8679	0.005
Mof_H 	H 	0.0309	0.5291	0.1878	0.082
Mof_H 	H 	0.3013	0.6607	0.7867	0.123
Mof_H 	H 	0.8965	0.8682	0.9808	0.1
Mof_H 	H 	0.1797	0.1362	0.4245	0.005
Mof_H 	H 	0.2196	0.533	0.2635	-0.025
Mof_H 	H 	0.5889	0.9825	0.0876	0.27
Mof_H 	H 	0.3203	0.6362	0.4245	0.003
Mof_H 	H 	0.1847	0.223	0.2202	-0.019
Mof_H 	H 	0.9245	0.1442	0.3679	0.006
Mof_H 	H 	0.6848	0.2324	0.6842	0.094
Mof_H 	H 	0.68	0.9188	0.9612	0.086
Mof_H 	H 	0.8657	0.0893	0.7105	0.256
Mof_H 	H 	0.8385	0.3996	0.8976	0.024
Mof_C 	C 	0.7448	0.7927	0.2193	-0.259
Mof_C 	C 	0.1623	0.6097	0.632	0.317
Mof_C 	C 	0.5522	0.8594	0.9846	-0.16
Mof_C 	C 	0.1497	0.5278	0.5851	-0.806
Mof_C 	C 	0.7552	0.2927	0.2193	-0.259
Mof_C 	C 	0.2672	0.7377	0.2244	0.14
Mof_C 	C 	0.4194	0.3759	0.9975	-0.163
Mof_C 	C 	0.3097	0.5598	0.2324	-0.242
Mof_C 	C 	0.7213	0.4942	0.7244	-0.284
Mof_C 	C 	0.3016	0.2316	0.2517	-0.184
Mof_C 	C 	0.5081	0.8747	0.7498	0.32
Mof_C 	C 	0.1835	0.6032	0.6736	-0.3
Mof_C 	C 	0.857	0.4008	0.9573	-0.176
Mof_C 	C 	0.1903	0.0598	0.2324	-0.242
Mof_C 	C 	0.1944	0.7009	0.2709	0.341
Mof_C 	C 	0.1406	0.4876	0.6814	-0.147
Mof_C 	C 	0.536	0.0974	0.2286	-0.107
Mof_C 	C 	0.658	0.9857	0.1706	0.094
Mof_C 	C 	0.9743	0.4258	0.7158	0.04
Mof_C 	C 	0.3868	0.637	0.4248	0.124
Mof_C 	C 	0.6377	0.5836	0.5879	0.387
Mof_C 	C 	0.2552	0.2073	0.7193	-0.258
Mof_C 	C 	0.8377	0.3903	0.132	0.317
Mof_C 	C 	0.3251	0.3953	0.1538	0.316
Mof_C 	C 	0.1038	0.613	0.4895	0.132
Mof_C 	C 	0.6903	0.4402	0.7324	-0.242
Mof_C 	C 	0.3324	0.4757	0.1613	-0.186
Mof_C 	C 	0.6944	0.7991	0.7709	0.341
Mof_C 	C 	0.1623	0.9519	0.1445	0.154
Mof_C 	C 	0.6984	0.7684	0.7517	-0.184
Mof_C 	C 	0.7321	0.2355	0.7033	-0.222
Mof_C 	C 	0.7052	0.4117	0.7581	0.388
Mof_C 	C 	0.8097	0.9402	0.7324	-0.242
Mof_C 	C 	0.5484	0.8512	0.8724	0.335
Mof_C 	C 	0.6968	0.8737	0.2	0.142
Mof_C 	C 	0.7996	0.8208	0.2718	-0.25
Mof_C 	C 	0.8251	0.1047	0.6538	0.316
Mof_C 	C 	0.81	0.0993	0.6994	-0.774
Mof_C 	C 	0.3263	0.5064	0.1867	0.222
Mof_C 	C 	0.3133	0.0705	0.6852	0.393
Mof_C 	C 	0.5722	0.8637	0.9135	-0.113
Mof_C 	C 	0.1283	0.407	0.7245	0.051
Mof_C 	C 	0.3688	0.1101	0.419	0.072
Mof_C 	C 	0.5832	0.6359	0.4257	-0.216
Mof_C 	C 	0.2872	0.7326	0.73	0.146
Mof_C 	C 	0.8688	0.3899	0.919	0.071
Mof_C 	C 	0.3056	0.2009	0.2709	0.341
Mof_C 	C 	0.847	0.7945	0.2883	0.107
Mof_C 	C 	0.8503	0.4722	0.0851	-0.806
Mof_C 	C 	0.2328	0.2377	0.2244	0.14
Mof_C 	C 	0.9672	0.1314	0.4603	0.168
Mof_C 	C 	0.3377	0.4519	0.1445	0.154
Mof_C 	C 	0.7948	0.9117	0.7581	0.387
Mof_C 	C 	0.4919	0.1253	0.2498	0.32
Mof_C 	C 	0.3424	0.7343	0.7646	-0.155
Mof_C 	C 	0.7679	0.7355	0.7033	-0.222
Mof_C 	C 	0.8277	0.136	0.6385	-0.296
Mof_C 	C 	0.9478	0.3594	0.9846	-0.157
Mof_C 	C 	0.8263	0.9936	0.6867	0.222
Mof_C 	C 	0.0522	0.6406	0.4846	-0.161
Mof_C 	C 	0.6676	0.5243	0.6613	-0.187
Mof_C 	C 	0.8648	0.4068	0.0634	0.099
Mof_C 	C 	0.4168	0.3641	0.9257	-0.213
Mof_C 	C 	0.6623	0.8903	0.132	0.318
Mof_C 	C 	0.5296	0.8478	0.9465	0.053
Mof_C 	C 	0.7128	0.2674	0.23	0.146
Mof_C 	C 	0.9704	0.3478	0.9465	0.048
Mof_C 	C 	0.1837	0.8394	0.1638	0.116
Mof_C 	C 	0.1994	0.7879	0.2094	0.149
Mof_C 	C 	0.8424	0.7657	0.2646	-0.154
Mof_C 	C 	0.9919	0.3747	0.7498	0.317
Mof_C 	C 	0.8728	0.2472	0.759	0.115
Mof_C 	C 	0.1867	0.5705	0.6852	0.392
Mof_C 	C 	0.3908	0.6482	0.3467	0.382
Mof_C 	C 	0.2321	0.2645	0.2033	-0.221
Mof_C 	C 	0.8032	0.3737	0.2	0.142
Mof_C 	C 	0.964	0.5974	0.2286	-0.104
Mof_C 	C 	0.3032	0.1263	0.7	0.142
Mof_C 	C 	0.56	0.3575	0.8873	-0.151
Mof_C 	C 	0.8908	0.5397	0.1955	0.135
Mof_C 	C 	0.3594	0.9876	0.6814	-0.148
Mof_C 	C 	0.1723	0.864	0.1385	-0.295
Mof_C 	C 	0.3623	0.4164	0.0879	0.385
Mof_C 	C 	0.3786	0.1013	0.5299	-0.158
Mof_C 	C 	0.6835	0.8968	0.1736	-0.3
Mof_C 	C 	0.1132	0.137	0.4248	0.119
Mof_C 	C 	0.8321	0.4517	0.1579	-0.317
Mof_C 	C 	0.1272	0.7528	0.259	0.115
Mof_C 	C 	0.432	0.6333	0.4574	-0.224
Mof_C 	C 	0.2364	0.0325	0.2426	0.196
Mof_C 	C 	0.7328	0.2623	0.7244	0.14
Mof_C 	C 	0.1092	0.1482	0.3467	0.381
Mof_C 	C 	0.2948	0.5883	0.2581	0.388
Mof_C 	C 	0.7636	0.9675	0.7426	0.196
Mof_C 	C 	0.8324	0.0243	0.6613	-0.187
Mof_C 	C 	0.7188	0.8503	0.2209	-0.186
Mof_C 	C 	0.8717	0.593	0.2245	0.051
Mof_C 	C 	0.3596	0.559	0.1997	0.206
Mof_C 	C 	0.3717	0.907	0.7245	0.053
Mof_C 	C 	0.69	0.5993	0.6994	-0.775
Mof_C 	C 	0.3286	0.9371	0.7101	-0.155
Mof_C 	C 	0.6723	0.636	0.6385	-0.296
Mof_C 	C 	0.94	0.8575	0.8873	-0.147
Mof_C 	C 	0.1377	0.9164	0.0879	0.385
Mof_C 	C 	0.2996	0.6792	0.7718	-0.25
Mof_C 	C 	0.8786	0.3987	0.0299	-0.159
Mof_C 	C 	0.4278	0.1363	0.4135	-0.114
Mof_C 	C 	0.3451	0.4218	0.1271	-0.318
Mof_C 	C 	0.8594	0.5124	0.1814	-0.147
Mof_C 	C 	0.1414	0.8278	0.0803	-0.897
Mof_C 	C 	0.3163	0.3394	0.1638	0.116
Mof_C 	C 	0.3426	0.0547	0.6172	0.327
Mof_C 	C 	0.867	0.1131	0.5723	-0.338
Mof_C 	C 	0.6272	0.7472	0.759	0.115
Mof_C 	C 	0.6837	0.6606	0.6638	0.116
Mof_C 	C 	0.6249	0.555	0.5601	-0.887
Mof_C 	C 	0.5257	0.9258	0.7158	0.043
Mof_C 	C 	0.8451	0.0782	0.6271	-0.319
Mof_C 	C 	0.8163	0.1606	0.6638	0.116
Mof_C 	C 	0.6499	0.6392	0.5971	0.375
Mof_C 	C 	0.1499	0.8608	0.0971	0.373
Mof_C 	C 	0.4516	0.1488	0.3724	0.336
Mof_C 	C 	0.932	0.8667	0.9574	-0.216
Mof_C 	C 	0.3751	0.445	0.0601	-0.885
Mof_C 	C 	0.2439	0.1781	0.7397	0.209
Mof_C 	C 	0.3648	0.0932	0.5634	0.099
Mof_C 	C 	0.5328	0.6314	0.4603	0.173
Mof_C 	C 	0.44	0.6425	0.3873	-0.152
Mof_C 	C 	0.133	0.8869	0.0723	-0.336
Mof_C 	C 	0.6132	0.363	0.9248	0.122
Mof_C 	C 	0.7439	0.3219	0.2397	0.209
Mof_C 	C 	0.3908	0.9603	0.6955	0.137
Mof_C 	C 	0.0328	0.8686	0.9603	0.165
Mof_C 	C 	0.7019	0.9362	0.2287	-0.92
Mof_C 	C 	0.7981	0.4362	0.2287	-0.919
Mof_C 	C 	0.4614	0.3587	0.8907	0.114
Mof_C 	C 	0.0806	0.8759	0.9975	-0.161
Mof_C 	C 	0.7004	0.3208	0.2718	-0.25
Mof_C 	C 	0.2636	0.5325	0.2426	0.196
Mof_C 	C 	0.3922	0.3805	0.0303	0.117
Mof_C 	C 	0.2981	0.0638	0.7287	-0.92
Mof_C 	C 	0.6737	0.4936	0.6867	0.222
Mof_C 	C 	0.1352	0.5932	0.5634	0.098
Mof_C 	C 	0.345	0.0866	0.6038	-0.289
Mof_C 	C 	0.6576	0.2657	0.2646	-0.155
Mof_C 	C 	0.8623	0.0836	0.5879	0.387
Mof_C 	C 	0.3727	0.2812	0.2397	-0.19
Mof_C 	C 	0.3165	0.1032	0.6736	-0.3
Mof_C 	C 	0.1574	0.5547	0.6172	0.326
Mof_C 	C 	0.153	0.2055	0.7883	0.107
Mof_C 	C 	0.8596	0.941	0.6997	0.206
Mof_C 	C 	0.2052	0.0883	0.2581	0.387
Mof_C 	C 	0.8721	0.9684	0.6774	-0.303
Mof_C 	C 	0.1312	0.6101	0.419	0.071
Mof_C 	C 	0.3501	0.3608	0.0971	0.374
Mof_C 	C 	0.633	0.6131	0.5723	-0.339
Mof_C 	C 	0.9888	0.5442	0.1975	-0.152
Mof_C 	C 	0.9516	0.3512	0.8724	0.335
Mof_C 	C 	0.1968	0.6263	0.7	0.142
Mof_C 	C 	0.342	0.0143	0.6706	0.094
Mof_C 	C 	0.845	0.4134	0.1038	-0.29
Mof_C 	C 	0.568	0.3667	0.9574	-0.221
Mof_C 	C 	0.2812	0.1497	0.7209	-0.186
Mof_C 	C 	0.8377	0.0481	0.6445	0.154
Mof_C 	C 	0.6404	0.441	0.6997	0.206
Mof_C 	C 	0.1249	0.945	0.0601	-0.884
Mof_C 	C 	0.6352	0.9068	0.0634	0.1
Mof_C 	C 	0.6929	0.6845	0.6859	-0.162
Mof_C 	C 	0.2679	0.7645	0.2033	-0.222
Mof_C 	C 	0.4704	0.1522	0.4465	0.054
Mof_C 	C 	0.7672	0.7623	0.7244	0.14
Mof_C 	C 	0.2561	0.6781	0.7397	0.209
Mof_C 	C 	0.357	0.0992	0.4573	-0.177
Mof_C 	C 	0.0484	0.6488	0.3724	0.335
Mof_C 	C 	0.6549	0.5782	0.6271	-0.319
Mof_C 	C 	0.6533	0.8547	0.1189	-0.778
Mof_C 	C 	0.3586	0.3278	0.0803	-0.899
Mof_C 	C 	0.3006	0.2879	0.2094	0.149
Mof_C 	C 	0.1676	0.9757	0.1613	-0.186
Mof_C 	C 	0.0257	0.5742	0.2158	0.04
Mof_C 	C 	0.2448	0.7073	0.7193	-0.259
Mof_C 	C 	0.6867	0.9295	0.1852	0.393
Mof_C 	C 	0.9278	0.3637	0.9135	-0.111
Mof_C 	C 	0.6038	0.887	0.9895	0.135
Mof_C 	C 	0.6679	0.9517	0.1579	-0.317
Mof_C 	C 	0.068	0.1333	0.4574	-0.218
Mof_C 	C 	0.367	0.3869	0.0723	-0.337
Mof_C 	C 	0.6406	0.0124	0.1814	-0.148
Mof_C 	C 	0.2019	0.5638	0.7287	-0.919
Mof_C 	C 	0.19	0.9007	0.1994	-0.774
Mof_C 	C 	0.8006	0.2121	0.7094	0.149
Mof_C 	C 	0.6714	0.0629	0.2101	-0.155
Mof_C 	C 	0.4478	0.1406	0.4846	-0.164
Mof_C 	C 	0.9194	0.1241	0.4975	-0.167
Mof_C 	C 	0.1549	0.9218	0.1271	-0.318
Mof_C 	C 	0.4888	0.9558	0.6975	-0.154
Mof_C 	C 	0.1214	0.6013	0.5299	-0.157
Mof_C 	C 	0.6092	0.3518	0.8467	0.382
Mof_C 	C 	0.0722	0.6363	0.4135	-0.112
Mof_C 	C 	0.1273	0.7812	0.2397	-0.19
Mof_C 	C 	0.3901	0.7632	0.7792	0.306
Mof_C 	C 	0.2787	0.5058	0.2244	-0.284
Mof_C 	C 	0.158	0.5143	0.6706	0.093
Mof_C 	C 	0.036	0.4026	0.7286	-0.104
Mof_C 	C 	0.0112	0.4558	0.6975	-0.152
Mof_C 	C 	0.143	0.5992	0.4573	-0.176
Mof_C 	C 	0.464	0.9026	0.7286	-0.107
Mof_C 	C 	0.6623	0.5481	0.6445	0.155
Mof_C 	C 	0.3503	0.0278	0.5851	-0.807
Mof_C 	C 	0.1679	0.5483	0.6579	-0.317
Mof_C 	C 	0.2128	0.2326	0.73	0.146
Mof_C 	C 	0.1404	0.059	0.1997	0.206
Mof_C 	C 	0.8727	0.2188	0.7397	-0.19
Mof_C 	C 	0.2004	0.1792	0.7718	-0.25
Mof_C 	C 	0.1737	0.0064	0.1867	0.222
Mof_C 	C 	0.655	0.9134	0.1038	-0.29
Mof_C 	C 	0.842	0.4857	0.1706	0.093
Mof_C 	C 	0.3321	0.0483	0.6579	-0.317
Mof_C 	C 	0.6749	0.6047	0.6538	0.316
Mof_C 	C 	0.1078	0.8805	0.0303	0.115
Mof_C 	C 	0.3962	0.113	0.4895	0.134
Mof_C 	C 	0.2213	0.0058	0.2244	-0.284
Mof_C 	C 	0.3728	0.2528	0.259	0.115
Mof_C 	C 	0.9614	0.1413	0.3907	0.11
Mof_C 	C 	0.0386	0.8587	0.8907	0.109
Mof_C 	C 	0.1533	0.6453	0.6189	-0.777
Mof_C 	C 	0.1929	0.8155	0.1859	-0.162
Mof_C 	C 	0.1749	0.8953	0.1538	0.315
Mof_C 	C 	0.6078	0.6195	0.5303	0.121
Mof_C 	C 	0.6279	0.4684	0.6774	-0.303
Mof_C 	C 	0.7787	0.9942	0.7244	-0.284
Mof_C 	C 	0.6092	0.0397	0.1955	0.137
Mof_C 	C 	0.5386	0.6413	0.3907	0.116
Mof_C 	C 	0.2188	0.6497	0.7209	-0.186
Mof_C 	C 	0.8868	0.863	0.9248	0.118
Mof_C 	C 	0.6994	0.7121	0.7094	0.149
Mof_C 	C 	0.6283	0.093	0.2245	0.053
Mof_C 	C 	0.6414	0.6722	0.5803	-0.901
Mof_C 	C 	0.0296	0.6522	0.4465	0.05
Mof_C 	C 	0.4672	0.3686	0.9603	0.17
Mof_C 	C 	0.8901	0.7368	0.2792	0.306
Mof_C 	C 	0.6312	0.8899	0.919	0.072
Mof_C 	C 	0.8586	0.1722	0.5803	-0.899
Mof_C 	C 	0.31	0.4007	0.1994	-0.774
Mof_C 	C 	0.8962	0.387	0.9895	0.133
Mof_C 	C 	0.8467	0.3547	0.1189	-0.777
Mof_C 	C 	0.6497	0.9722	0.0851	-0.806
Mof_C 	C 	0.3071	0.3155	0.1859	-0.162
Mof_C 	C 	0.0081	0.6253	0.2498	0.317
Mof_C 	C 	0.653	0.2945	0.2883	0.107
Mof_C 	C 	0.3467	0.1453	0.6189	-0.778
Mof_C 	C 	0.6574	0.9453	0.1172	0.327
Mof_C 	C 	0.1099	0.2632	0.7792	0.306
Mof_C 	C 	0.7872	0.7674	0.23	0.146
Mof_C 	C 	0.8071	0.1845	0.6859	-0.162
Mof_C 	C 	0.8165	0.3968	0.1736	-0.3
Mof_C 	C 	0.8016	0.2684	0.7517	-0.184
Mof_C 	C 	0.8056	0.2991	0.7709	0.341
Mof_C 	C 	0.6273	0.7188	0.7397	-0.19
Mof_C 	C 	0.347	0.7055	0.7883	0.107
Mof_C 	C 	0.7364	0.4675	0.7426	0.196
Mof_C 	C 	0.8751	0.055	0.5601	-0.887
Mof_C 	C 	0.0832	0.8641	0.9257	-0.209
Mof_C 	C 	0.06	0.1425	0.3873	-0.148
Mof_C 	C 	0.8286	0.5629	0.2101	-0.154
Mof_C 	C 	0.1279	0.0316	0.1774	-0.303
Mof_C 	C 	0.3721	0.5316	0.1774	-0.303
Mof_C 	C 	0.9168	0.1359	0.4257	-0.211
Mof_C 	C 	0.7812	0.3503	0.2209	-0.186
Mof_C 	C 	0.3277	0.364	0.1385	-0.295
Mof_C 	C 	0.5112	0.0442	0.1975	-0.154
Mof_C 	C 	0.8501	0.1392	0.5971	0.374
Mof_C 	C 	0.8426	0.4453	0.1172	0.326
Mof_C 	C 	0.8922	0.1195	0.5303	0.12
Mof_C 	C 	0.6099	0.2368	0.2792	0.306
Mof_C 	C 	0.4743	0.0742	0.2158	0.043
Mof_C 	C 	0.1714	0.4371	0.7101	-0.154
Mof_C 	C 	0.1984	0.7316	0.2517	-0.184
Mof_C 	C 	0.1576	0.2343	0.7646	-0.154
Mof_C 	C 	0.6214	0.8987	0.0299	-0.16
Mof_C 	C 	0.7561	0.8219	0.2397	0.209
Mof_C 	C 	0.8908	0.8518	0.8467	0.381
Mof_C 	C 	0.5806	0.6241	0.4975	-0.168
Mof_C 	C 	0.3377	0.1097	0.632	0.318
Mof_C 	C 	0.155	0.5866	0.6038	-0.289
Mof_C 	C 	0.1092	0.4603	0.6955	0.135
Mof_C 	C 	0.8133	0.4295	0.1852	0.392
Mof_C 	C 	0.643	0.9008	0.9573	-0.177
Mof_O 	O 	0.9416	0.644	0.2683	-0.27
Mof_O 	O 	0.6979	0.3539	0.8491	-0.298
Mof_O 	O 	0.6025	0.2144	0.2543	-0.265
Mof_O 	O 	0.9399	0.8471	0.8178	-0.322
Mof_O 	O 	0.5601	0.3471	0.8178	-0.323
Mof_O 	O 	0.3975	0.7856	0.7543	-0.265
Mof_O 	O 	0.7584	0.8198	0.7648	-0.303
Mof_O 	O 	0.7416	0.3198	0.7648	-0.303
Mof_O 	O 	0.0584	0.356	0.7683	-0.27
Mof_O 	O 	0.1299	0.69393	0.2969	-0.278
Mof_O 	O 	0.9256	0.3682	0.8439	-0.291
Mof_O 	O 	0.4416	0.856	0.7683	-0.271
Mof_O 	O 	0.5923	0.8702	0.7482	-0.287
Mof_O 	O 	0.0923	0.6298	0.2482	-0.287
Mof_O 	O 	0.0044	0.6742	0.3686	-0.284
Mof_O 	O 	0.1979	0.1461	0.3491	-0.298
Mof_O 	O 	0.4399	0.6529	0.3178	-0.323
Mof_O 	O 	0.3701	0.19393	0.2969	-0.278
Mof_O 	O 	0.4956	0.1742	0.3686	-0.284
Mof_O 	O 	0.5744	0.8682	0.8439	-0.291
Mof_O 	O 	0.2411	0.5876	0.286	-0.311
Mof_O 	O 	0.2416	0.1802	0.2648	-0.303
Mof_O 	O 	0.4256	0.1318	0.3439	-0.291
Mof_O 	O 	0.656	0.3879	0.7454	-0.297
Mof_O 	O 	0.8975	0.7144	0.2543	-0.265
Mof_O 	O 	0.4241	0.76455	0.8144	-0.263
Mof_O 	O 	0.0601	0.1529	0.3178	-0.322
Mof_O 	O 	0.844	0.8879	0.7454	-0.297
Mof_O 	O 	0.7589	0.4124	0.786	-0.311
Mof_O 	O 	0.9077	0.3702	0.7482	-0.287
Mof_O 	O 	0.2584	0.6802	0.2648	-0.303
Mof_O 	O 	0.156	0.1121	0.2454	-0.297
Mof_O 	O 	0.1025	0.2856	0.7543	-0.265
Mof_O 	O 	0.4077	0.1298	0.2482	-0.287
Mof_O 	O 	0.8021	0.8539	0.8491	-0.298
Mof_O 	O 	0.344	0.6121	0.2454	-0.297
Mof_O 	O 	0.8701	0.30607	0.7969	-0.278
Mof_O 	O 	0.5584	0.144	0.2683	-0.271
Mof_O 	O 	0.5759	0.23545	0.3144	-0.263
Mof_O 	O 	0.3021	0.6461	0.3491	-0.298
Mof_O 	O 	0.0744	0.6318	0.3439	-0.291
Mof_O 	O 	0.2589	0.0876	0.286	-0.311
Mof_O 	O 	0.0759	0.26455	0.8144	-0.262
Mof_O 	O 	0.6299	0.80607	0.7969	-0.278
Mof_O 	O 	0.7411	0.9124	0.786	-0.311
Mof_O 	O 	0.9956	0.3258	0.8686	-0.284
Mof_O 	O 	0.5044	0.8258	0.8686	-0.284
Mof_O 	O 	0.9241	0.73545	0.3144	-0.262
Mof_Cd	Cd	0.92399	0.17917	0.99629	0.477
Mof_Cd	Cd	0.35119	0.63521	0.98903	0.505
Mof_Cd	Cd	0.57601	0.67917	0.99629	0.478
Mof_Cd	Cd	0.12124	0.671	0.02263	0.397
Mof_Cd	Cd	0.14881	0.13521	0.98903	0.505
Mof_Cd	Cd	0.37876	0.171	0.02263	0.397
Mof_Cd	Cd	0.87876	0.329	0.52263	0.398
Mof_Cd	Cd	0.64881	0.36479	0.48903	0.503
Mof_Cd	Cd	0.07601	0.82083	0.49629	0.476
Mof_Cd	Cd	0.42399	0.32083	0.49629	0.477
Mof_Cd	Cd	0.62124	0.829	0.52263	0.398
Mof_Cd	Cd	0.85119	0.86479	0.48903	0.503
Mof_H 	H 	0.5837	0.4067	0.0407	0.321
Mof_H 	H 	0.8156	0.9206	0.0514	0.318
Mof_H 	H 	0.5954	0.6693	0.857	0.032
Mof_H 	H 	0.426	0.5756	0.0488	0.05
Mof_H 	H 	0.616	0.043	0.7194	0.278
Mof_H 	H 	0.5712	0.1533	0.8402	0.094
Mof_H 	H 	0.0584	0.4136	0.0653	0.29
Mof_H 	H 	0.7408	0.0023	0.5728	0.089
Mof_H 	H 	0.5577	0.2787	0.0516	0.08
Mof_H 	H 	0.4423	0.7213	0.5516	0.081
Mof_H 	H 	0.0242	0.4431	0.2398	0.275
Mof_H 	H 	0.4394	0.5508	0.7281	0.268
Mof_H 	H 	0.9062	0.9424	0.0521	0.31
Mof_H 	H 	0.4971	0.9653	0.611	0.114
Mof_H 	H 	0.0372	0.2959	0.025	0.089
Mof_H 	H 	0.4628	0.7959	0.025	0.088
Mof_H 	H 	0.8017	0.0942	0.0757	0.059
Mof_H 	H 	0.2592	0.9977	0.0728	0.089
Mof_H 	H 	0.2174	0.0472	0.0481	-0.004
Mof_H 	H 	0.6115	0.4099	0.3205	0.082
Mof_H 	H 	0.3313	0.9114	0.0736	0.29
Mof_H 	H 	0.0221	0.6725	0.6974	0.34
Mof_H 	H 	0.4434	0.5263	0.0768	0.056
Mof_H 	H 	0.6364	0.2344	0.023	0.018
Mof_H 	H 	0.4779	0.1725	0.6974	0.343
Mof_H 	H 	0.167	0.6085	0.805	0.073
Mof_H 	H 	0.3807	0.5286	0.6998	0.272
Mof_H 	H 	0.5221	0.8275	0.1974	0.343
Mof_H 	H 	0.1622	0.7099	0.4849	0.018
Mof_H 	H 	0.3885	0.5901	0.8205	0.082
Mof_H 	H 	0.9522	0.8285	0.1427	0.277
Mof_H 	H 	0.7826	0.9528	0.5481	-0.004
Mof_H 	H 	0.3017	0.4058	0.5757	0.06
Mof_H 	H 	0.4046	0.3307	0.357	0.032
Mof_H 	H 	0.4161	0.5999	0.8876	0.022
Mof_H 	H 	0.1687	0.4114	0.0736	0.29
Mof_H 	H 	0.4522	0.6715	0.6427	0.277
Mof_H 	H 	0.5161	0.3387	0.1857	0.282
Mof_H 	H 	0.263	0.7217	0.082	-0.001
Mof_H 	H 	0.3752	0.6667	0.6762	0.281
Mof_H 	H 	0.9704	0.4205	0.5745	-0.014
Mof_H 	H 	0.0954	0.8307	0.357	0.031
Mof_H 	H 	0.1248	0.1667	0.6762	0.282
Mof_H 	H 	0.9948	0.3339	0.3993	0.026
Mof_H 	H 	0.384	0.957	0.2194	0.278
Mof_H 	H 	0.5296	0.9205	0.5745	-0.014
Mof_H 	H 	0.833	0.3915	0.305	0.073
Mof_H 	H 	0.8313	0.5886	0.5736	0.29
Mof_H 	H 	0.4163	0.5933	0.5407	0.322
Mof_H 	H 	0.333	0.1085	0.805	0.074
Mof_H 	H 	0.1115	0.0901	0.8205	0.083
Mof_H 	H 	0.0938	0.0576	0.5521	0.31
Mof_H 	H 	0.0076	0.0302	0.6962	0.278
Mof_H 	H 	0.9628	0.7041	0.525	0.091
Mof_H 	H 	0.1193	0.0286	0.6998	0.272
Mof_H 	H 	0.8636	0.7344	0.023	0.018
Mof_H 	H 	0.2826	0.5472	0.0481	-0.004
Mof_H 	H 	0.6687	0.0886	0.5736	0.29
Mof_H 	H 	0.1844	0.0794	0.5514	0.319
Mof_H 	H 	0.9779	0.3275	0.1974	0.34
Mof_H 	H 	0.5372	0.2041	0.525	0.091
Mof_H 	H 	0.5741	0.1832	0.6775	0.346
Mof_H 	H 	0.5868	0.6533	0.79	0.082
Mof_H 	H 	0.9839	0.8387	0.1857	0.283
Mof_H 	H 	0.0029	0.4653	0.611	0.114
Mof_H 	H 	0.7701	0.3333	0.0158	0.096
Mof_H 	H 	0.0837	0.0933	0.5407	0.322
Mof_H 	H 	0.5537	0.251	0.4945	0.03
Mof_H 	H 	0.4416	0.9136	0.0653	0.29
Mof_H 	H 	0.926	0.9244	0.5488	0.05
Mof_H 	H 	0.0741	0.3168	0.1775	0.344
Mof_H 	H 	0.9161	0.9001	0.3876	0.02
Mof_H 	H 	0.4463	0.749	0.9945	0.034
Mof_H 	H 	0.8906	0.6194	0.5662	0.294
Mof_H 	H 	0.3636	0.7656	0.523	0.018
Mof_H 	H 	0.4288	0.8467	0.3402	0.094
Mof_H 	H 	0.0478	0.1715	0.6427	0.277
Mof_H 	H 	0.0839	0.0999	0.8876	0.02
Mof_H 	H 	0.4924	0.5302	0.6962	0.278
Mof_H 	H 	0.4948	0.1661	0.8993	0.025
Mof_H 	H 	0.6983	0.5942	0.0757	0.06
Mof_H 	H 	0.1364	0.2656	0.523	0.018
Mof_H 	H 	0.4758	0.9431	0.2398	0.275
Mof_H 	H 	0.1094	0.3806	0.0662	0.293
Mof_H 	H 	0.0868	0.8467	0.29	0.083
Mof_H 	H 	0.9259	0.6832	0.6775	0.344
Mof_H 	H 	0.5566	0.4737	0.5768	0.056
Mof_H 	H 	0.6193	0.4714	0.1998	0.272
Mof_H 	H 	0.3156	0.5794	0.5514	0.319
Mof_H 	H 	0.5606	0.4492	0.2281	0.268
Mof_H 	H 	0.2429	0.6183	0.8687	0.024
Mof_H 	H 	0.9463	0.751	0.4945	0.03
Mof_H 	H 	0.8378	0.2901	0.9849	0.021
Mof_H 	H 	0.4839	0.6613	0.6857	0.283
Mof_H 	H 	0.8885	0.9099	0.3205	0.083
Mof_H 	H 	0.0144	0.4651	0.2024	0.289
Mof_H 	H 	0.7174	0.4528	0.5481	-0.004
Mof_H 	H 	0.737	0.2783	0.582	-0.002
Mof_H 	H 	0.0566	0.0263	0.0768	0.056
Mof_H 	H 	0.2571	0.1183	0.8687	0.024
Mof_H 	H 	0.574	0.4244	0.5488	0.051
Mof_H 	H 	0.0606	0.0508	0.7281	0.268
Mof_H 	H 	0.9394	0.9492	0.2281	0.268
Mof_H 	H 	0.884	0.543	0.7194	0.278
Mof_H 	H 	0.0743	0.3301	0.2212	0.347
Mof_H 	H 	0.0161	0.1613	0.6857	0.283
Mof_H 	H 	0.4257	0.8301	0.2212	0.35
Mof_H 	H 	0.0296	0.5795	0.0745	-0.014
Mof_H 	H 	0.5743	0.1699	0.7212	0.35
Mof_H 	H 	0.763	0.7783	0.582	-0.002
Mof_H 	H 	0.782	0.7298	0.6103	0.089
Mof_H 	H 	0.9288	0.6533	0.8402	0.092
Mof_H 	H 	0.7571	0.3817	0.3687	0.024
Mof_H 	H 	0.3906	0.8806	0.0662	0.293
Mof_H 	H 	0.3378	0.2099	0.4849	0.018
Mof_H 	H 	0.6844	0.4206	0.0514	0.318
Mof_H 	H 	0.282	0.7702	0.1103	0.088
Mof_H 	H 	0.7429	0.8817	0.3687	0.024
Mof_H 	H 	0.5839	0.4001	0.3876	0.021
Mof_H 	H 	0.5076	0.4698	0.1962	0.278
Mof_H 	H 	0.9257	0.6699	0.7212	0.347
Mof_H 	H 	0.9434	0.9737	0.5768	0.056
Mof_H 	H 	0.5242	0.0569	0.7398	0.275
Mof_H 	H 	0.218	0.2702	0.1103	0.088
Mof_H 	H 	0.0052	0.6661	0.8993	0.026
Mof_H 	H 	0.2701	0.1667	0.5158	0.098
Mof_H 	H 	0.5584	0.0864	0.5653	0.29
Mof_H 	H 	0.5052	0.8339	0.3993	0.025
Mof_H 	H 	0.9132	0.1533	0.79	0.083
Mof_H 	H 	0.074	0.0756	0.0488	0.05
Mof_H 	H 	0.8807	0.9714	0.1998	0.272
Mof_H 	H 	0.5478	0.3285	0.1427	0.277
Mof_H 	H 	0.5029	0.0347	0.111	0.114
Mof_H 	H 	0.4704	0.0795	0.0745	-0.014
Mof_H 	H 	0.5938	0.4424	0.0521	0.309
Mof_H 	H 	0.5144	0.0349	0.7024	0.289
Mof_H 	H 	0.2408	0.4977	0.0728	0.089
Mof_H 	H 	0.9971	0.5347	0.111	0.114
Mof_H 	H 	0.9416	0.5864	0.5653	0.291
Mof_H 	H 	0.9856	0.5349	0.7024	0.289
Mof_H 	H 	0.6622	0.7901	0.9849	0.022
Mof_H 	H 	0.9423	0.7787	0.0516	0.081
Mof_H 	H 	0.4132	0.3467	0.29	0.082
Mof_H 	H 	0.0537	0.249	0.9945	0.034
Mof_H 	H 	0.116	0.457	0.2194	0.278
Mof_H 	H 	0.0712	0.3467	0.3402	0.092
Mof_H 	H 	0.0577	0.2213	0.5516	0.081
Mof_H 	H 	0.9758	0.5569	0.7398	0.275
Mof_H 	H 	0.7299	0.8333	0.0158	0.096
Mof_H 	H 	0.4259	0.8168	0.1775	0.346
Mof_H 	H 	0.667	0.8915	0.305	0.074
Mof_H 	H 	0.2299	0.6667	0.5158	0.098
Mof_H 	H 	0.9046	0.1693	0.857	0.031
Mof_H 	H 	0.8752	0.8333	0.1762	0.282
Mof_H 	H 	0.237	0.2217	0.082	-0.001
Mof_H 	H 	0.7592	0.5023	0.5728	0.089
Mof_H 	H 	0.4062	0.5576	0.5521	0.31
Mof_H 	H 	0.6248	0.3333	0.1762	0.281
Mof_H 	H 	0.4856	0.9651	0.2024	0.289
Mof_H 	H 	0.6094	0.1194	0.5662	0.294
Mof_H 	H 	0.1983	0.9058	0.5757	0.06
Mof_H 	H 	0.9924	0.9698	0.1962	0.278
Mof_H 	H 	0.718	0.2298	0.6103	0.089
Mof_H 	H 	0.9163	0.9067	0.0407	0.321
Mof_C 	C 	0.9247	0.876	0.1534	0.351
Mof_C 	C 	0.4473	0.9491	0.2148	-0.864
Mof_C 	C 	0.7506	0.7577	0.0051	-0.132
Mof_C 	C 	0.1178	0.2188	0.5401	-0.177
Mof_C 	C 	0.0831	0.4246	0.1472	-0.348
Mof_C 	C 	0.3529	0.7273	0.0362	-0.157
Mof_C 	C 	0.9909	0.6464	0.8452	-0.163
Mof_C 	C 	0.7162	0.7872	0.0007	0.084
Mof_C 	C 	0.2773	0.0439	0.0595	0.124
Mof_C 	C 	0.5527	0.0509	0.7148	-0.864
Mof_C 	C 	0.9169	0.5754	0.6472	-0.349
Mof_C 	C 	0.6812	0.8747	0.3632	0.055
Mof_C 	C 	0.8501	0.8025	0.5166	0.343
Mof_C 	C 	0.5002	0.878	0.2787	-0.153
Mof_C 	C 	0.935	0.8407	0.1657	-0.839
Mof_C 	C 	0.9851	0.9312	0.5583	-0.003
Mof_C 	C 	0.4324	0.6004	0.6823	-0.319
Mof_C 	C 	0.4909	0.8536	0.3452	-0.169
Mof_C 	C 	0.8188	0.3747	0.3632	0.053
Mof_C 	C 	0.9633	0.3466	0.3808	0.068
Mof_C 	C 	0.005	0.8643	0.3794	-0.117
Mof_C 	C 	0.3306	0.1492	0.9293	0.327
Mof_C 	C 	0.435	0.6593	0.6657	-0.838
Mof_C 	C 	0.6694	0.8508	0.4293	0.327
Mof_C 	C 	0.4118	0.6167	0.6116	-0.326
Mof_C 	C 	0.4183	0.4707	0.5884	0.044
Mof_C 	C 	0.4056	0.8401	0.1137	0.11
Mof_C 	C 	0.2838	0.2128	0.5007	0.089
Mof_C 	C 	0.116	0.5106	0.0963	0.187
Mof_C 	C 	0.9345	0.0877	0.0563	-0.048
Mof_C 	C 	0.5412	0.8714	0.3171	0.137
Mof_C 	C 	0.5899	0.4705	0.1172	0.089
Mof_C 	C 	0.0595	0.3636	0.1796	0.492
Mof_C 	C 	0.6991	0.9854	0.5759	-0.218
Mof_C 	C 	0.4035	0.9817	0.1177	-0.179
Mof_C 	C 	0.4356	0.5422	0.7017	-0.839
Mof_C 	C 	0.0367	0.6534	0.8808	0.068
Mof_C 	C 	0.8721	0.3577	0.3903	-0.123
Mof_C 	C 	0.9183	0.0293	0.0884	0.043
Mof_C 	C 	0.5566	0.6525	0.8497	0.059
Mof_C 	C 	0.6818	0.2347	0.5878	-0.205
Mof_C 	C 	0.4169	0.9246	0.1472	-0.349
Mof_C 	C 	0.6279	0.8577	0.3903	-0.125
Mof_C 	C 	0.9118	0.8833	0.1116	-0.326
Mof_C 	C 	0.0541	0.5361	0.0968	-0.246
Mof_C 	C 	0.6269	0.3365	0.0617	-0.172
Mof_C 	C 	0.5882	0.3833	0.1116	-0.325
Mof_C 	C 	0.608	0.0987	0.5778	-0.892
Mof_C 	C 	0.3182	0.7653	0.0878	-0.202
Mof_C 	C 	0.5753	0.376	0.1534	0.35
Mof_C 	C 	0.4835	0.6206	0.8004	0.126
Mof_C 	C 	0.7494	0.2577	0.0051	-0.132
Mof_C 	C 	0.9405	0.6364	0.6796	0.492
Mof_C 	C 	0.425	0.7804	0.0369	-0.175
Mof_C 	C 	0.9097	0.9383	0.1293	-0.289
Mof_C 	C 	0.3822	0.7188	0.5401	-0.177
Mof_C 	C 	0.384	0.0106	0.0963	0.187
Mof_C 	C 	0.0736	0.0691	0.6711	0.343
Mof_C 	C 	0.9612	0.8846	0.2543	-0.154
Mof_C 	C 	0.8306	0.3508	0.4293	0.326
Mof_C 	C 	0.9099	0.5446	0.6311	0.15
Mof_C 	C 	0.6547	0.9313	0.5603	-0.21
Mof_C 	C 	0.6606	0.3107	0.0403	0.157
Mof_C 	C 	0.9238	0.4361	0.5762	0.177
Mof_C 	C 	0.1795	0.5986	0.0381	0.404
Mof_C 	C 	0.8205	0.4014	0.5381	0.404
Mof_C 	C 	0.0091	0.3536	0.3452	-0.163
Mof_C 	C 	0.4405	0.8636	0.1796	0.495
Mof_C 	C 	0.4497	0.6074	0.7214	0.127
Mof_C 	C 	0.3205	0.0986	0.0381	0.404
Mof_C 	C 	0.9091	0.997	0.107	-0.115
Mof_C 	C 	0.5367	0.8466	0.3808	0.073
Mof_C 	C 	0.0493	0.8561	0.3096	-0.165
Mof_C 	C 	0.8529	0.7727	0.5362	-0.16
Mof_C 	C 	0.9101	0.9705	0.1172	0.089
Mof_C 	C 	0.5503	0.3926	0.2214	0.127
Mof_C 	C 	0.5901	0.0446	0.6311	0.15
Mof_C 	C 	0.7227	0.9561	0.5595	0.124
Mof_C 	C 	0.8052	0.7641	0.5703	0.101
Mof_C 	C 	0.9356	0.9578	0.2017	-0.838
Mof_C 	C 	0.3453	0.0687	0.0603	-0.211
Mof_C 	C 	0.0884	0.3988	0.1223	0.395
Mof_C 	C 	0.6948	0.2641	0.5703	0.101
Mof_C 	C 	0.1334	0.6192	0.8248	-0.155
Mof_C 	C 	0.6944	0.7293	0.9968	0.288
Mof_C 	C 	0.5852	0.2473	0.5185	0.077
Mof_C 	C 	0.3346	0.7458	0.5223	0.074
Mof_C 	C 	0.391	0.6418	0.5852	0.119
Mof_C 	C 	0.5786	0.1325	0.6394	-0.36
Mof_C 	C 	0.9419	0.58	0.687	0.376
Mof_C 	C 	0.3801	0.7872	0.0741	0.146
Mof_C 	C 	0.1944	0.7707	0.4968	0.286
Mof_C 	C 	0.5831	0.0754	0.6472	-0.349
Mof_C 	C 	0.8394	0.8107	0.0403	0.157
Mof_C 	C 	0.9459	0.4639	0.5968	-0.246
Mof_C 	C 	0.0903	0.0617	0.6293	-0.289
Mof_C 	C 	0.4099	0.9554	0.1311	0.15
Mof_C 	C 	0.9214	0.6325	0.6394	-0.358
Mof_C 	C 	0.1991	0.5146	0.0759	-0.219
Mof_C 	C 	0.8056	0.2293	0.9968	0.288
Mof_C 	C 	0.0655	0.9123	0.5563	-0.048
Mof_C 	C 	0.2162	0.7128	0.5007	0.089
Mof_C 	C 	0.5493	0.6439	0.8096	-0.161
Mof_C 	C 	0.0762	0.5639	0.0762	0.177
Mof_C 	C 	0.9434	0.1525	0.8497	0.062
Mof_C 	C 	0.9517	0.6108	0.7035	-0.373
Mof_C 	C 	0.8182	0.7347	0.5878	-0.205
Mof_C 	C 	0.4748	0.8858	0.2456	0.123
Mof_C 	C 	0.4247	0.624	0.6534	0.351
Mof_C 	C 	0.4148	0.7527	0.0185	0.069
Mof_C 	C 	0.075	0.2804	0.0369	-0.175
Mof_C 	C 	0.1694	0.6492	0.9293	0.326
Mof_C 	C 	0.6484	0.5797	0.0762	-0.035
Mof_C 	C 	0.8889	0.6837	0.5943	-0.166
Mof_C 	C 	0.8453	0.4313	0.5603	-0.211
Mof_C 	C 	0.0566	0.8475	0.3497	0.062
Mof_C 	C 	0.4238	0.0639	0.0762	0.176
Mof_C 	C 	0.0412	0.6286	0.8171	0.134
Mof_C 	C 	0.4101	0.5295	0.6172	0.089
Mof_C 	C 	0.553	0.3881	0.3682	0.073
Mof_C 	C 	0.6172	0.4215	0.0572	-0.981
Mof_C 	C 	0.5541	0.9639	0.5968	-0.245
Mof_C 	C 	0.616	0.9894	0.5963	0.187
Mof_C 	C 	0.4419	0.92	0.187	0.376
Mof_C 	C 	0.8985	0.9136	0.0996	0.414
Mof_C 	C 	0.5091	0.1464	0.8452	-0.169
Mof_C 	C 	0.9548	0.6682	0.6953	-1.068
Mof_C 	C 	0.1484	0.9203	0.5762	-0.035
Mof_C 	C 	0.5903	0.4383	0.1293	-0.288
Mof_C 	C 	0.5817	0.5293	0.0884	0.044
Mof_C 	C 	0.0037	0.0395	0.0748	-0.097
Mof_C 	C 	0.4998	0.122	0.7787	-0.153
Mof_C 	C 	0.5655	0.5877	0.0563	-0.047
Mof_C 	C 	0.4091	0.503	0.607	-0.115
Mof_C 	C 	0.6334	0.8808	0.3248	-0.157
Mof_C 	C 	0.6199	0.2128	0.5741	0.15
Mof_C 	C 	0.6111	0.1837	0.5943	-0.167
Mof_C 	C 	0.5565	0.6225	0.0355	0.324
Mof_C 	C 	0.4214	0.8675	0.1394	-0.359
Mof_C 	C 	0.8366	0.0524	0.0965	-0.025
Mof_C 	C 	0.6654	0.2542	0.0223	0.073
Mof_C 	C 	0.3056	0.2707	0.4968	0.286
Mof_C 	C 	0.0527	0.4491	0.2148	-0.864
Mof_C 	C 	0.565	0.3407	0.1657	-0.838
Mof_C 	C 	0.4435	0.3775	0.5355	0.324
Mof_C 	C 	0.6015	0.4136	0.0996	0.414
Mof_C 	C 	0.9056	0.6599	0.6137	0.111
Mof_C 	C 	0.5483	0.1108	0.7035	-0.374
Mof_C 	C 	0.5452	0.1682	0.6953	-1.077
Mof_C 	C 	0.5128	0.6448	0.9268	0.428
Mof_C 	C 	0.4963	0.5395	0.0748	-0.098
Mof_C 	C 	0.1818	0.2653	0.0878	-0.202
Mof_C 	C 	0.5149	0.4312	0.5583	-0.004
Mof_C 	C 	0.7583	0.8136	0.0187	-0.195
Mof_C 	C 	0.0882	0.1167	0.6116	-0.326
Mof_C 	C 	0.2227	0.5439	0.0595	0.124
Mof_C 	C 	0.8346	0.7542	0.0223	0.073
Mof_C 	C 	0.567	0.3948	0.3281	-0.177
Mof_C 	C 	0.4633	0.1534	0.8808	0.073
Mof_C 	C 	0.9473	0.5509	0.7148	-0.864
Mof_C 	C 	0.8828	0.9215	0.0572	-0.981
Mof_C 	C 	0.1634	0.9476	0.5965	-0.024
Mof_C 	C 	0.0165	0.1206	0.8004	0.129
Mof_C 	C 	0.9835	0.8794	0.3004	0.129
Mof_C 	C 	0.1471	0.2273	0.0362	-0.156
Mof_C 	C 	0.8009	0.4854	0.5759	-0.218
Mof_C 	C 	0.3516	0.4203	0.5762	-0.036
Mof_C 	C 	0.5037	0.4605	0.5748	-0.098
Mof_C 	C 	0.2583	0.6864	0.5187	-0.198
Mof_C 	C 	0.1172	0.0785	0.5572	-0.983
Mof_C 	C 	0.0388	0.1154	0.7543	-0.154
Mof_C 	C 	0.0483	0.3892	0.2035	-0.373
Mof_C 	C 	0.2417	0.1864	0.5187	-0.197
Mof_C 	C 	0.6499	0.3025	0.5166	0.343
Mof_C 	C 	0.0581	0.42	0.187	0.376
Mof_C 	C 	0.3366	0.4476	0.5965	-0.024
Mof_C 	C 	0.0002	0.622	0.7787	-0.154
Mof_C 	C 	0.1111	0.3163	0.0943	-0.165
Mof_C 	C 	0.5581	0.08	0.687	0.376
Mof_C 	C 	0.4612	0.6154	0.7543	-0.153
Mof_C 	C 	0.9872	0.1448	0.9268	0.427
Mof_C 	C 	0.3985	0.5864	0.5996	0.415
Mof_C 	C 	0.891	0.8582	0.0852	0.119
Mof_C 	C 	0.609	0.3582	0.0852	0.118
Mof_C 	C 	0.0452	0.3318	0.1953	-1.067
Mof_C 	C 	0.4588	0.1286	0.8171	0.137
Mof_C 	C 	0.575	0.2196	0.5369	-0.18
Mof_C 	C 	0.4548	0.8318	0.1953	-1.076
Mof_C 	C 	0.4517	0.8892	0.2035	-0.374
Mof_C 	C 	0.5736	0.4309	0.1711	0.343
Mof_C 	C 	0.0944	0.3401	0.1137	0.11
Mof_C 	C 	0.4264	0.5691	0.6711	0.343
Mof_C 	C 	0.1269	0.1635	0.5617	-0.172
Mof_C 	C 	0.7417	0.3136	0.0187	-0.195
Mof_C 	C 	0.925	0.7196	0.5369	-0.179
Mof_C 	C 	0.5252	0.1142	0.7456	0.123
Mof_C 	C 	0.5595	0.1364	0.6796	0.495
Mof_C 	C 	0.0817	0.9707	0.5884	0.043
Mof_C 	C 	0.5676	0.3996	0.1823	-0.318
Mof_C 	C 	0.1654	0.2458	0.5223	0.074
Mof_C 	C 	0.065	0.1593	0.6657	-0.84
Mof_C 	C 	0.8516	0.0797	0.0762	-0.035
Mof_C 	C 	0.3501	0.6975	0.0166	0.339
Mof_C 	C 	0.4459	0.0361	0.0968	-0.246
Mof_C 	C 	0.9035	0.5183	0.6177	-0.179
Mof_C 	C 	0.0753	0.124	0.6534	0.351
Mof_C 	C 	0.5165	0.3794	0.3004	0.126
Mof_C 	C 	0.0852	0.2527	0.0185	0.07
Mof_C 	C 	0.109	0.1418	0.5852	0.119
Mof_C 	C 	0.433	0.6052	0.8281	-0.177
Mof_C 	C 	0.0149	0.0688	0.0583	-0.003
Mof_C 	C 	0.0252	0.3858	0.2456	0.124
Mof_C 	C 	0.933	0.8948	0.3281	-0.18
Mof_C 	C 	0.0128	0.8552	0.4268	0.427
Mof_C 	C 	0.0965	0.4817	0.1177	-0.179
Mof_C 	C 	0.0565	0.8775	0.5355	0.323
Mof_C 	C 	0.8801	0.7128	0.5741	0.15
Mof_C 	C 	0.4851	0.5688	0.0583	-0.004
Mof_C 	C 	0.447	0.6119	0.8682	0.072
Mof_C 	C 	0.0909	0.003	0.607	-0.115
Mof_C 	C 	0.6634	0.5524	0.0965	-0.024
Mof_C 	C 	0.4097	0.5617	0.6293	-0.289
Mof_C 	C 	0.3188	0.1253	0.8632	0.055
Mof_C 	C 	0.1199	0.2872	0.0741	0.146
Mof_C 	C 	0.3009	0.0146	0.0759	-0.218
Mof_C 	C 	0.5644	0.4578	0.2017	-0.838
Mof_C 	C 	0.9435	0.1225	0.0355	0.323
Mof_C 	C 	0.5388	0.3846	0.2543	-0.153
Mof_C 	C 	0.8822	0.7812	0.0401	-0.176
Mof_C 	C 	0.0503	0.1074	0.7214	0.127
Mof_C 	C 	0.947	0.8881	0.3682	0.076
Mof_C 	C 	0.3889	0.8163	0.0943	-0.165
Mof_C 	C 	0.892	0.5987	0.5778	-0.892
Mof_C 	C 	0.3828	0.5785	0.5572	-0.982
Mof_C 	C 	0.3394	0.6893	0.5403	0.159
Mof_C 	C 	0.8731	0.8365	0.0617	-0.172
Mof_C 	C 	0.3721	0.1423	0.8903	-0.125
Mof_C 	C 	0.7773	0.4561	0.5595	0.124
Mof_C 	C 	0.3052	0.7359	0.0703	0.098
Mof_C 	C 	0.9264	0.9309	0.1711	0.343
Mof_C 	C 	0.067	0.1052	0.8281	-0.18
Mof_C 	C 	0.1948	0.2359	0.0703	0.098
Mof_C 	C 	0.4434	0.3475	0.3497	0.06
Mof_C 	C 	0.6471	0.2727	0.5362	-0.16
Mof_C 	C 	0.1547	0.5687	0.0603	-0.211
Mof_C 	C 	0.5965	0.0183	0.6177	-0.179
Mof_C 	C 	0.9998	0.378	0.2787	-0.154
Mof_C 	C 	0.9588	0.3714	0.3171	0.134
Mof_C 	C 	0.0901	0.4554	0.1311	0.15
Mof_C 	C 	0.495	0.3643	0.3794	-0.114
Mof_C 	C 	0.9748	0.6142	0.7456	0.124
Mof_C 	C 	0.8666	0.3808	0.3248	-0.155
Mof_C 	C 	0.392	0.9013	0.0778	-0.891
Mof_C 	C 	0.9148	0.7473	0.5185	0.077
Mof_C 	C 	0.3731	0.6635	0.5617	-0.173
Mof_C 	C 	0.5884	0.1012	0.6223	0.396
Mof_C 	C 	0.6795	0.9014	0.5381	0.404
Mof_C 	C 	0.9497	0.8926	0.2214	0.127
Mof_C 	C 	0.1606	0.1893	0.5403	0.159
Mof_C 	C 	0.2494	0.2423	0.5051	-0.132
Mof_C 	C 	0.5762	0.9361	0.5762	0.176
Mof_C 	C 	0.4872	0.3552	0.4268	0.428
Mof_C 	C 	0.884	0.4894	0.5963	0.187
Mof_C 	C 	0.1015	0.0864	0.5996	0.415
Mof_C 	C 	0.9507	0.1439	0.8096	-0.165
Mof_C 	C 	0.9116	0.6012	0.6223	0.395
Mof_C 	C 	0.1279	0.6423	0.8903	-0.123
Mof_C 	C 	0.4507	0.3561	0.3096	-0.161
Mof_C 	C 	0.9324	0.8996	0.1823	-0.319
Mof_C 	C 	0.995	0.1357	0.8794	-0.117
Mof_C 	C 	0.9963	0.9605	0.5748	-0.097
Mof_C 	C 	0.1499	0.1975	0.0166	0.339
Mof_C 	C 	0.0644	0.0422	0.7017	-0.839
Mof_C 	C 	0.1812	0.6253	0.8632	0.053
Mof_C 	C 	0.5944	0.1599	0.6137	0.111
Mof_C 	C 	0.2506	0.7423	0.5051	-0.132
Mof_C 	C 	0.108	0.4013	0.0778	-0.891
Mof_C 	C 	0.6178	0.2812	0.0401	-0.176
Mof_C 	C 	0.5909	0.497	0.107	-0.115
Mof_C 	C 	0.505	0.6357	0.8794	-0.114
Mof_C 	C 	0.053	0.1119	0.8682	0.076
Mof_C 	C 	0.0786	0.3675	0.1394	-0.358
Mof_C 	C 	0.0899	0.0295	0.6172	0.089
Mof_C 	C 	0.4116	0.8988	0.1223	0.395
Mof_C 	C 	0.0676	0.1004	0.6823	-0.319
Mof_C 	C 	0.4345	0.4123	0.5563	-0.047
Mof_C 	C 	0.3666	0.1192	0.8248	-0.157
Mof_C 	C 	0.7838	0.2872	0.0007	0.084
Mof_O 	O 	0.2529	0.6394	0.9355	-0.283
Mof_O 	O 	0.9326	0.1641	0.9333	-0.333
Mof_O 	O 	0.5674	0.6641	0.9333	-0.333
Mof_O 	O 	0.7529	0.8606	0.4355	-0.283
Mof_O 	O 	0.3707	0.3645	0.5255	-0.291
Mof_O 	O 	0.7323	0.7017	0.9992	-0.249
Mof_O 	O 	0.6293	0.6355	0.0255	-0.292
Mof_O 	O 	0.2407	0.0998	0.0223	-0.314
Mof_O 	O 	0.1293	0.8645	0.5255	-0.29
Mof_O 	O 	0.619	0.8362	0.4559	-0.282
Mof_O 	O 	0.9713	0.8735	0.448	-0.332
Mof_O 	O 	0.6151	0.7338	0.9788	-0.249
Mof_O 	O 	0.8849	0.2338	0.9788	-0.25
Mof_O 	O 	0.5912	0.31055	0.4914	-0.305
Mof_O 	O 	0.7471	0.3606	0.4355	-0.283
Mof_O 	O 	0.6246	0.8794	0.5418	-0.319
Mof_O 	O 	0.2677	0.2983	0.4992	-0.25
Mof_O 	O 	0.4746	0.6338	0.0344	-0.293
Mof_O 	O 	0.4326	0.3359	0.4333	-0.334
Mof_O 	O 	0.2151	0.17782	0.0292	-0.299
Mof_O 	O 	0.9088	0.81055	0.4914	-0.304
Mof_O 	O 	0.7677	0.2017	0.9992	-0.249
Mof_O 	O 	0.881	0.3362	0.4559	-0.282
Mof_O 	O 	0.3849	0.2662	0.4788	-0.249
Mof_O 	O 	0.8754	0.3794	0.5418	-0.319
Mof_O 	O 	0.0254	0.1338	0.0344	-0.291
Mof_O 	O 	0.8707	0.1355	0.0255	-0.291
Mof_O 	O 	0.7151	0.32218	0.5292	-0.299
Mof_O 	O 	0.2471	0.1394	0.9355	-0.283
Mof_O 	O 	0.2849	0.67782	0.0292	-0.299
Mof_O 	O 	0.0674	0.8359	0.4333	-0.333
Mof_O 	O 	0.0287	0.1265	0.948	-0.331
Mof_O 	O 	0.1246	0.6206	0.0418	-0.32
Mof_O 	O 	0.2593	0.5998	0.0223	-0.314
Mof_O 	O 	0.7849	0.82218	0.5292	-0.299
Mof_O 	O 	0.1151	0.7662	0.4788	-0.25
Mof_O 	O 	0.5254	0.3662	0.5344	-0.292
Mof_O 	O 	0.7593	0.9002	0.5223	-0.313
Mof_O 	O 	0.7407	0.4002	0.5223	-0.313
Mof_O 	O 	0.9746	0.8662	0.5344	-0.29
Mof_O 	O 	0.4713	0.6265	0.948	-0.333
Mof_O 	O 	0.5287	0.3735	0.448	-0.333
Mof_O 	O 	0.119	0.6638	0.9559	-0.281
Mof_O 	O 	0.381	0.1638	0.9559	-0.281
Mof_O 	O 	0.0912	0.18945	0.9914	-0.302
Mof_O 	O 	0.4088	0.68945	0.9914	-0.302
Mof_O 	O 	0.3754	0.1206	0.0418	-0.32
Mof_O 	O 	0.2323	0.7983	0.4992	-0.25
_end
