data_functionalizedCrystal
_audit_creation_method	'EQeq! by Chris Wilmer'
_symmetry_space_group_name_H-M	'P1'
_symmetry_Int_Tables_number	1
_symmetry_cell_setting	triclinic
loop_
_symmetry_equiv_pos_as_xyz
  x,y,z
_cell_length_a	12.032
_cell_length_b	15.087
_cell_length_c	15.087
_cell_angle_alpha	120
_cell_angle_beta	90
_cell_angle_gamma	90
loop_
_atom_site_label
_atom_site_type_symbol
_atom_site_fract_x
_atom_site_fract_y
_atom_site_fract_z
_atom_site_charge
Mof_In	In	-2.66082e-33	0.5	0.5	2.239
Mof_In	In	0.66667	-4.79331e-17	0.5	2.15
Mof_In	In	0.33333	0.5	-0	2.141
Mof_C 	C 	0.8483	0.4905	0.6192	0.302
Mof_C 	C 	0.7537	0.4955	0.6892	-0.035
Mof_C 	C 	0.7136	0.5862	0.7655	0.006
Mof_C 	C 	0.7091	0.4004	0.6716	-0.006
Mof_C 	C 	0.51497	0.1287	0.5095	0.304
Mof_C 	C 	0.42037	0.1937	0.5045	-0.064
Mof_C 	C 	0.38027	0.1793	0.4138	-0.018
Mof_C 	C 	0.37577	0.2712	0.5996	-0.014
Mof_C 	C 	0.18163	0.3808	0.8713	0.26
Mof_C 	C 	0.08703	0.3108	0.8063	0.056
Mof_C 	C 	0.04693	0.2345	0.8207	-0.181
Mof_C 	C 	0.04243	0.3284	0.7288	-0.197
Mof_C 	C 	0.8483	0.5095	0.3808	0.297
Mof_C 	C 	0.7537	0.5045	0.3108	-0.04
Mof_C 	C 	0.7136	0.4138	0.2345	-0.018
Mof_C 	C 	0.7091	0.5996	0.3284	-0.015
Mof_C 	C 	0.51497	0.8713	0.4905	0.296
Mof_C 	C 	0.42037	0.8063	0.4955	-0.032
Mof_C 	C 	0.38027	0.8207	0.5862	-0.005
Mof_C 	C 	0.37577	0.7288	0.4004	-0.014
Mof_C 	C 	0.18163	0.6192	0.1287	0.272
Mof_C 	C 	0.08703	0.6892	0.1937	0.033
Mof_C 	C 	0.04693	0.7655	0.1793	-0.18
Mof_C 	C 	0.04243	0.6716	0.2712	-0.196
Mof_C 	C 	0.81837	0.8713	0.3808	0.331
Mof_C 	C 	0.91297	0.8063	0.3108	-0.128
Mof_C 	C 	0.95307	0.8207	0.2345	0.166
Mof_C 	C 	0.95757	0.7288	0.3284	0.175
Mof_C 	C 	0.1517	0.6192	0.4905	0.308
Mof_C 	C 	0.2463	0.6892	0.4955	-0.056
Mof_C 	C 	0.2864	0.7655	0.5862	0.005
Mof_C 	C 	0.2909	0.6716	0.4004	-0.006
Mof_C 	C 	0.48503	0.5095	0.1287	0.307
Mof_C 	C 	0.57963	0.5045	0.1937	-0.063
Mof_C 	C 	0.61973	0.4138	0.1793	-0.009
Mof_C 	C 	0.62423	0.5996	0.2712	-0.007
Mof_C 	C 	0.81837	0.1287	0.6192	0.343
Mof_C 	C 	0.91297	0.1937	0.6892	-0.151
Mof_C 	C 	0.95307	0.1793	0.7655	0.167
Mof_C 	C 	0.95757	0.2712	0.6716	0.176
Mof_C 	C 	0.1517	0.3808	0.5095	0.303
Mof_C 	C 	0.2463	0.3108	0.5045	-0.061
Mof_C 	C 	0.2864	0.2345	0.4138	-0.019
Mof_C 	C 	0.2909	0.3284	0.5996	-0.015
Mof_C 	C 	0.48503	0.4905	0.8713	0.299
Mof_C 	C 	0.57963	0.4955	0.8063	-0.031
Mof_C 	C 	0.61973	0.5862	0.8207	0.004
Mof_C 	C 	0.62423	0.4004	0.7288	-0.007
Mof_O 	O 	0.8971	0.5784	0.6452	-0.394
Mof_O 	O 	0.8742	0.4135	0.5416	-0.446
Mof_O 	O 	0.56377	0.0668	0.4216	-0.488
Mof_O 	O 	0.54087	0.1281	0.5865	-0.486
Mof_O 	O 	0.23043	0.3548	0.9332	-0.387
Mof_O 	O 	0.20753	0.4584	0.8719	-0.415
Mof_O 	O 	0.8971	0.4216	0.3548	-0.424
Mof_O 	O 	0.8742	0.5865	0.4584	-0.433
Mof_O 	O 	0.56377	0.9332	0.5784	-0.372
Mof_O 	O 	0.54087	0.8719	0.4135	-0.425
Mof_O 	O 	0.23043	0.6452	0.0668	-0.473
Mof_O 	O 	0.20753	0.5416	0.1281	-0.488
Mof_O 	O 	0.76957	0.9332	0.3548	-0.389
Mof_O 	O 	0.79247	0.8719	0.4584	-0.421
Mof_O 	O 	0.1029	0.6452	0.5784	-0.462
Mof_O 	O 	0.1258	0.5416	0.4135	-0.5
Mof_O 	O 	0.43623	0.4216	0.0668	-0.491
Mof_O 	O 	0.45913	0.5865	0.1281	-0.484
Mof_O 	O 	0.76957	0.0668	0.6452	-0.476
Mof_O 	O 	0.79247	0.1281	0.5416	-0.495
Mof_O 	O 	0.1029	0.3548	0.4216	-0.492
Mof_O 	O 	0.1258	0.4584	0.5865	-0.487
Mof_O 	O 	0.43623	0.5784	0.9332	-0.374
Mof_O 	O 	0.45913	0.4135	0.8719	-0.424
Mof_H 	H 	0.75623	0.66097	0.78389	0.089
Mof_H 	H 	0.74583	0.32526	0.60919	0.057
Mof_H 	H 	0.4229	0.12292	0.33903	0.025
Mof_H 	H 	0.4125	0.28393	0.67474	0.053
Mof_H 	H 	0.08956	0.21611	0.87708	0.082
Mof_H 	H 	0.07916	0.39081	0.71608	0.084
Mof_H 	H 	0.75623	0.33903	0.21611	0.044
Mof_H 	H 	0.74583	0.67474	0.39081	0.063
Mof_H 	H 	0.4229	0.87708	0.66097	0.086
Mof_H 	H 	0.4125	0.71607	0.32526	0.059
Mof_H 	H 	0.08956	0.78389	0.12292	0.067
Mof_H 	H 	0.07916	0.60919	0.28392	0.073
Mof_H 	H 	0.91128	0.87683	0.21529	0.046
Mof_H 	H 	0.92144	0.71546	0.39062	0.039
Mof_H 	H 	0.2446	0.78472	0.66155	0.069
Mof_H 	H 	0.25477	0.60938	0.32484	0.05
Mof_H 	H 	0.5771	0.33903	0.12292	0.027
Mof_H 	H 	0.5875	0.67474	0.28393	0.054
Mof_H 	H 	0.91128	0.12317	0.78471	0.031
Mof_H 	H 	0.92144	0.28454	0.60938	0.029
Mof_H 	H 	0.2446	0.21528	0.33845	0.024
Mof_H 	H 	0.25477	0.39062	0.67516	0.055
Mof_H 	H 	0.57793	0.66155	0.87683	0.088
Mof_H 	H 	0.5881	0.32484	0.71546	0.06
_end
