data_functionalizedCrystal
_audit_creation_method	'EQeq! by Chris Wilmer'
_symmetry_space_group_name_H-M	'P1'
_symmetry_Int_Tables_number	1
_symmetry_cell_setting	triclinic
loop_
_symmetry_equiv_pos_as_xyz
  x,y,z
_cell_length_a	28.2453
_cell_length_b	28.2453
_cell_length_c	6.2202
_cell_angle_alpha	90
_cell_angle_beta	90
_cell_angle_gamma	120
loop_
_atom_site_label
_atom_site_type_symbol
_atom_site_fract_x
_atom_site_fract_y
_atom_site_fract_z
_atom_site_charge
Mof_Mg	Mg	0.05694	0.69257	0.40063	1.454
Mof_P 	P 	0.09144	0.71768	0.92003	0.44
Mof_C 	C 	0.11065	0.78421	0.05033	-0.167
Mof_C 	C 	0.11347	0.82593	0.40863	-0.03
Mof_C 	C 	0.17417	0.78543	0.32523	-0.062
Mof_N 	N 	0.11846	0.78152	0.28943	-0.189
Mof_O 	O 	0.13884	0.70984	0.86163	-0.293
Mof_O 	O 	0.05427	0.67103	0.06953	-0.658
Mof_O 	O 	0.05962	0.71383	0.71873	-0.673
Mof_H 	H 	0.15034	0.81761	0.97657	0.06
Mof_H 	H 	0.07252	0.82259	0.36843	0.025
Mof_H 	H 	0.11599	0.82059	0.58916	0.013
Mof_H 	H 	0.17882	0.77869	0.50288	0.02
Mof_H 	H 	0.17606	0.75245	0.22628	0.015
Mof_H 	H 	0.61572	0.74358	0.64395	0.032
Mof_Mg	Mg	0.7236	0.02591	0.73397	1.455
Mof_P 	P 	0.7581	0.05102	0.25337	0.443
Mof_C 	C 	0.77731	0.11755	0.38367	-0.17
Mof_C 	C 	0.78013	0.15927	0.74197	-0.029
Mof_C 	C 	0.84083	0.11877	0.65857	-0.061
Mof_N 	N 	0.78512	0.11486	0.62277	-0.188
Mof_O 	O 	0.8055	0.04318	0.19497	-0.292
Mof_O 	O 	0.72093	0.00437	0.40287	-0.658
Mof_O 	O 	0.72628	0.04717	0.05207	-0.673
Mof_H 	H 	0.817	0.15094	0.30991	0.063
Mof_H 	H 	0.73919	0.15592	0.70176	0.026
Mof_H 	H 	0.78265	0.15392	0.9225	0.015
Mof_H 	H 	0.84548	0.11203	0.83622	0.021
Mof_H 	H 	0.84273	0.08578	0.55962	0.016
Mof_H 	H 	0.28239	0.07691	0.97728	0.032
Mof_Mg	Mg	0.39027	0.35924	0.0673	1.455
Mof_P 	P 	0.42477	0.38435	0.5867	0.443
Mof_C 	C 	0.44398	0.45088	0.717	-0.17
Mof_C 	C 	0.4468	0.4926	0.0753	-0.029
Mof_C 	C 	0.5075	0.4521	0.9919	-0.059
Mof_N 	N 	0.45179	0.44819	0.9561	-0.188
Mof_O 	O 	0.47217	0.37651	0.5283	-0.291
Mof_O 	O 	0.3876	0.3377	0.7362	-0.658
Mof_O 	O 	0.39295	0.3805	0.3854	-0.672
Mof_H 	H 	0.48367	0.48428	0.64324	0.063
Mof_H 	H 	0.40586	0.48926	0.0351	0.026
Mof_H 	H 	0.44932	0.48725	0.25583	0.014
Mof_H 	H 	0.51215	0.44536	0.16955	0.02
Mof_H 	H 	0.5094	0.41912	0.89295	0.016
Mof_H 	H 	0.94906	0.41024	0.31061	0.032
Mof_Mg	Mg	0.30743	0.36436	0.40063	1.455
Mof_P 	P 	0.28232	0.37375	0.92003	0.441
Mof_C 	C 	0.21579	0.32643	0.05033	-0.167
Mof_C 	C 	0.17407	0.28753	0.40863	-0.029
Mof_C 	C 	0.21457	0.38873	0.32523	-0.061
Mof_N 	N 	0.21848	0.33693	0.28943	-0.188
Mof_O 	O 	0.29016	0.42899	0.86163	-0.292
Mof_O 	O 	0.32897	0.38323	0.06953	-0.657
Mof_O 	O 	0.28617	0.34578	0.71873	-0.672
Mof_H 	H 	0.18239	0.33273	0.97657	0.061
Mof_H 	H 	0.17741	0.24993	0.36843	0.026
Mof_H 	H 	0.17941	0.2954	0.58916	0.014
Mof_H 	H 	0.22131	0.40012	0.50288	0.021
Mof_H 	H 	0.24755	0.42361	0.22628	0.016
Mof_H 	H 	0.25642	0.87215	0.64395	0.032
Mof_Mg	Mg	0.97409	0.6977	0.73397	1.455
Mof_P 	P 	0.94898	0.70709	0.25337	0.443
Mof_C 	C 	0.88245	0.65977	0.38367	-0.17
Mof_C 	C 	0.84073	0.62087	0.74197	-0.029
Mof_C 	C 	0.88123	0.72207	0.65857	-0.061
Mof_N 	N 	0.88514	0.67027	0.62277	-0.188
Mof_O 	O 	0.95682	0.76233	0.19497	-0.292
Mof_O 	O 	0.99563	0.71657	0.40287	-0.658
Mof_O 	O 	0.95283	0.67912	0.05207	-0.673
Mof_H 	H 	0.84906	0.66606	0.30991	0.063
Mof_H 	H 	0.84408	0.58326	0.70176	0.026
Mof_H 	H 	0.84608	0.62873	0.9225	0.015
Mof_H 	H 	0.88797	0.73346	0.83622	0.021
Mof_H 	H 	0.91422	0.75695	0.55962	0.016
Mof_H 	H 	0.92309	0.20548	0.97728	0.032
Mof_Mg	Mg	0.64076	0.03103	0.0673	1.455
Mof_P 	P 	0.61565	0.04042	0.5867	0.443
Mof_C 	C 	0.54912	0.9931	0.717	-0.17
Mof_C 	C 	0.5074	0.9542	0.0753	-0.029
Mof_C 	C 	0.5479	0.0554	0.9919	-0.059
Mof_N 	N 	0.55181	0.0036	0.9561	-0.188
Mof_O 	O 	0.62349	0.09566	0.5283	-0.291
Mof_O 	O 	0.6623	0.0499	0.7362	-0.658
Mof_O 	O 	0.6195	0.01245	0.3854	-0.672
Mof_H 	H 	0.51572	0.9994	0.64324	0.063
Mof_H 	H 	0.51074	0.9166	0.0351	0.026
Mof_H 	H 	0.51275	0.96207	0.25583	0.014
Mof_H 	H 	0.55464	0.06679	0.16955	0.019
Mof_H 	H 	0.58088	0.09028	0.89295	0.016
Mof_H 	H 	0.58976	0.53881	0.31061	0.032
Mof_Mg	Mg	0.63564	0.94306	0.40063	1.455
Mof_P 	P 	0.62625	0.90856	0.92003	0.441
Mof_C 	C 	0.67357	0.88935	0.05033	-0.167
Mof_C 	C 	0.71247	0.88653	0.40863	-0.029
Mof_C 	C 	0.61127	0.82583	0.32523	-0.061
Mof_N 	N 	0.66307	0.88154	0.28943	-0.188
Mof_O 	O 	0.57101	0.86116	0.86163	-0.292
Mof_O 	O 	0.61677	0.94573	0.06953	-0.657
Mof_O 	O 	0.65422	0.94038	0.71873	-0.672
Mof_H 	H 	0.66727	0.84966	0.97657	0.061
Mof_H 	H 	0.75007	0.92748	0.36843	0.026
Mof_H 	H 	0.7046	0.88401	0.58916	0.014
Mof_H 	H 	0.59988	0.82118	0.50288	0.021
Mof_H 	H 	0.57639	0.82394	0.22628	0.016
Mof_H 	H 	0.12785	0.38428	0.64395	0.032
Mof_Mg	Mg	0.3023	0.2764	0.73397	1.455
Mof_P 	P 	0.29291	0.2419	0.25337	0.443
Mof_C 	C 	0.34023	0.22269	0.38367	-0.17
Mof_C 	C 	0.37913	0.21987	0.74197	-0.029
Mof_C 	C 	0.27793	0.15917	0.65857	-0.061
Mof_N 	N 	0.32973	0.21488	0.62277	-0.188
Mof_O 	O 	0.23767	0.1945	0.19497	-0.291
Mof_O 	O 	0.28343	0.27907	0.40287	-0.658
Mof_O 	O 	0.32088	0.27372	0.05207	-0.673
Mof_H 	H 	0.33394	0.183	0.30991	0.063
Mof_H 	H 	0.41674	0.26081	0.70176	0.026
Mof_H 	H 	0.37127	0.21735	0.9225	0.015
Mof_H 	H 	0.26654	0.15452	0.83622	0.021
Mof_H 	H 	0.24305	0.15727	0.55962	0.016
Mof_H 	H 	0.79452	0.71761	0.97728	0.032
Mof_Mg	Mg	0.96897	0.60973	0.0673	1.455
Mof_P 	P 	0.95958	0.57523	0.5867	0.443
Mof_C 	C 	0.0069	0.55602	0.717	-0.17
Mof_C 	C 	0.0458	0.5532	0.0753	-0.029
Mof_C 	C 	0.9446	0.4925	0.9919	-0.059
Mof_N 	N 	0.9964	0.54821	0.9561	-0.188
Mof_O 	O 	0.90434	0.52783	0.5283	-0.291
Mof_O 	O 	0.9501	0.6124	0.7362	-0.658
Mof_O 	O 	0.98755	0.60705	0.3854	-0.672
Mof_H 	H 	0.0006	0.51633	0.64324	0.063
Mof_H 	H 	0.0834	0.59414	0.0351	0.027
Mof_H 	H 	0.03793	0.55068	0.25583	0.014
Mof_H 	H 	0.93321	0.48785	0.16955	0.019
Mof_H 	H 	0.90972	0.4906	0.89295	0.016
Mof_H 	H 	0.46119	0.05094	0.31061	0.032
Mof_Mg	Mg	0.94306	0.30743	0.59937	1.455
Mof_P 	P 	0.90856	0.28232	0.07997	0.441
Mof_C 	C 	0.88935	0.21579	0.94967	-0.166
Mof_C 	C 	0.88653	0.17407	0.59137	-0.029
Mof_C 	C 	0.82583	0.21457	0.67477	-0.061
Mof_N 	N 	0.88154	0.21848	0.71057	-0.188
Mof_O 	O 	0.86116	0.29016	0.13837	-0.292
Mof_O 	O 	0.94573	0.32897	0.93047	-0.657
Mof_O 	O 	0.94038	0.28617	0.28127	-0.672
Mof_H 	H 	0.84966	0.18239	0.02343	0.061
Mof_H 	H 	0.92748	0.17741	0.63157	0.026
Mof_H 	H 	0.88401	0.17941	0.41084	0.014
Mof_H 	H 	0.82118	0.22131	0.49712	0.021
Mof_H 	H 	0.82394	0.24755	0.77372	0.016
Mof_H 	H 	0.38428	0.25642	0.35605	0.032
Mof_Mg	Mg	0.60973	0.64076	0.9327	1.455
Mof_P 	P 	0.57523	0.61565	0.4133	0.443
Mof_C 	C 	0.55602	0.54912	0.283	-0.17
Mof_C 	C 	0.5532	0.5074	0.9247	-0.029
Mof_C 	C 	0.4925	0.5479	0.0081	-0.059
Mof_N 	N 	0.54821	0.55181	0.0439	-0.188
Mof_O 	O 	0.52783	0.62349	0.4717	-0.291
Mof_O 	O 	0.6124	0.6623	0.2638	-0.658
Mof_O 	O 	0.60705	0.6195	0.6146	-0.672
Mof_H 	H 	0.51633	0.51572	0.35676	0.063
Mof_H 	H 	0.59414	0.51074	0.9649	0.026
Mof_H 	H 	0.55068	0.51275	0.74417	0.014
Mof_H 	H 	0.48785	0.55464	0.83045	0.02
Mof_H 	H 	0.4906	0.58088	0.10705	0.016
Mof_H 	H 	0.05094	0.58976	0.68939	0.032
Mof_Mg	Mg	0.2764	0.97409	0.26603	1.455
Mof_P 	P 	0.2419	0.94898	0.74663	0.443
Mof_C 	C 	0.22269	0.88245	0.61633	-0.17
Mof_C 	C 	0.21987	0.84073	0.25803	-0.029
Mof_C 	C 	0.15917	0.88123	0.34143	-0.061
Mof_N 	N 	0.21488	0.88514	0.37723	-0.188
Mof_O 	O 	0.1945	0.95682	0.80503	-0.292
Mof_O 	O 	0.27907	0.99563	0.59713	-0.658
Mof_O 	O 	0.27372	0.95283	0.94793	-0.673
Mof_H 	H 	0.183	0.84906	0.69009	0.063
Mof_H 	H 	0.26081	0.84408	0.29824	0.026
Mof_H 	H 	0.21735	0.84608	0.0775	0.015
Mof_H 	H 	0.15452	0.88797	0.16378	0.021
Mof_H 	H 	0.15727	0.91422	0.44038	0.016
Mof_H 	H 	0.71761	0.92309	0.02272	0.032
Mof_Mg	Mg	0.69257	0.63564	0.59937	1.455
Mof_P 	P 	0.71768	0.62625	0.07997	0.441
Mof_C 	C 	0.78421	0.67357	0.94967	-0.167
Mof_C 	C 	0.82593	0.71247	0.59137	-0.029
Mof_C 	C 	0.78543	0.61127	0.67477	-0.061
Mof_N 	N 	0.78152	0.66307	0.71057	-0.188
Mof_O 	O 	0.70984	0.57101	0.13837	-0.292
Mof_O 	O 	0.67103	0.61677	0.93047	-0.657
Mof_O 	O 	0.71383	0.65422	0.28127	-0.672
Mof_H 	H 	0.81761	0.66727	0.02343	0.061
Mof_H 	H 	0.82259	0.75007	0.63157	0.026
Mof_H 	H 	0.82059	0.7046	0.41084	0.014
Mof_H 	H 	0.77869	0.59988	0.49712	0.021
Mof_H 	H 	0.75245	0.57639	0.77372	0.016
Mof_H 	H 	0.74358	0.12785	0.35605	0.032
Mof_Mg	Mg	0.35924	0.96897	0.9327	1.455
Mof_P 	P 	0.38435	0.95958	0.4133	0.443
Mof_C 	C 	0.45088	0.0069	0.283	-0.17
Mof_C 	C 	0.4926	0.0458	0.9247	-0.029
Mof_C 	C 	0.4521	0.9446	0.0081	-0.059
Mof_N 	N 	0.44819	0.9964	0.0439	-0.188
Mof_O 	O 	0.37651	0.90434	0.4717	-0.291
Mof_O 	O 	0.3377	0.9501	0.2638	-0.658
Mof_O 	O 	0.3805	0.98755	0.6146	-0.672
Mof_H 	H 	0.48428	0.0006	0.35676	0.063
Mof_H 	H 	0.48926	0.0834	0.9649	0.026
Mof_H 	H 	0.48725	0.03793	0.74417	0.014
Mof_H 	H 	0.44536	0.93321	0.83045	0.019
Mof_H 	H 	0.41912	0.90972	0.10705	0.016
Mof_H 	H 	0.41024	0.46119	0.68939	0.032
Mof_Mg	Mg	0.02591	0.3023	0.26603	1.455
Mof_P 	P 	0.05102	0.29291	0.74663	0.443
Mof_C 	C 	0.11755	0.34023	0.61633	-0.17
Mof_C 	C 	0.15927	0.37913	0.25803	-0.029
Mof_C 	C 	0.11877	0.27793	0.34143	-0.061
Mof_N 	N 	0.11486	0.32973	0.37723	-0.188
Mof_O 	O 	0.04318	0.23767	0.80503	-0.292
Mof_O 	O 	0.00437	0.28343	0.59713	-0.658
Mof_O 	O 	0.04717	0.32088	0.94793	-0.673
Mof_H 	H 	0.15094	0.33394	0.69009	0.063
Mof_H 	H 	0.15592	0.41674	0.29824	0.026
Mof_H 	H 	0.15392	0.37127	0.0775	0.015
Mof_H 	H 	0.11203	0.26654	0.16378	0.021
Mof_H 	H 	0.08578	0.24305	0.44038	0.016
Mof_H 	H 	0.07691	0.79452	0.02272	0.032
Mof_Mg	Mg	0.36436	0.05694	0.59937	1.455
Mof_P 	P 	0.37375	0.09144	0.07997	0.441
Mof_C 	C 	0.32643	0.11065	0.94967	-0.167
Mof_C 	C 	0.28753	0.11347	0.59137	-0.029
Mof_C 	C 	0.38873	0.17417	0.67477	-0.061
Mof_N 	N 	0.33693	0.11846	0.71057	-0.188
Mof_O 	O 	0.42899	0.13884	0.13837	-0.292
Mof_O 	O 	0.38323	0.05427	0.93047	-0.657
Mof_O 	O 	0.34578	0.05962	0.28127	-0.672
Mof_H 	H 	0.33273	0.15034	0.02343	0.061
Mof_H 	H 	0.24993	0.07252	0.63157	0.026
Mof_H 	H 	0.2954	0.11599	0.41084	0.014
Mof_H 	H 	0.40012	0.17882	0.49712	0.021
Mof_H 	H 	0.42361	0.17606	0.77372	0.016
Mof_H 	H 	0.87215	0.61572	0.35605	0.032
Mof_Mg	Mg	0.03103	0.39027	0.9327	1.455
Mof_P 	P 	0.04042	0.42477	0.4133	0.443
Mof_C 	C 	0.9931	0.44398	0.283	-0.17
Mof_C 	C 	0.9542	0.4468	0.9247	-0.029
Mof_C 	C 	0.0554	0.5075	0.0081	-0.059
Mof_N 	N 	0.0036	0.45179	0.0439	-0.188
Mof_O 	O 	0.09566	0.47217	0.4717	-0.291
Mof_O 	O 	0.0499	0.3876	0.2638	-0.658
Mof_O 	O 	0.01245	0.39295	0.6146	-0.672
Mof_H 	H 	0.9994	0.48367	0.35676	0.063
Mof_H 	H 	0.9166	0.40586	0.9649	0.027
Mof_H 	H 	0.96207	0.44932	0.74417	0.014
Mof_H 	H 	0.06679	0.51215	0.83045	0.019
Mof_H 	H 	0.09028	0.5094	0.10705	0.016
Mof_H 	H 	0.53881	0.94906	0.68939	0.032
Mof_Mg	Mg	0.6977	0.7236	0.26603	1.455
Mof_P 	P 	0.70709	0.7581	0.74663	0.443
Mof_C 	C 	0.65977	0.77731	0.61633	-0.17
Mof_C 	C 	0.62087	0.78013	0.25803	-0.029
Mof_C 	C 	0.72207	0.84083	0.34143	-0.061
Mof_N 	N 	0.67027	0.78512	0.37723	-0.188
Mof_O 	O 	0.76233	0.8055	0.80503	-0.291
Mof_O 	O 	0.71657	0.72093	0.59713	-0.658
Mof_O 	O 	0.67912	0.72628	0.94793	-0.673
Mof_H 	H 	0.66606	0.817	0.69009	0.063
Mof_H 	H 	0.58326	0.73919	0.29824	0.026
Mof_H 	H 	0.62873	0.78265	0.0775	0.015
Mof_H 	H 	0.73346	0.84548	0.16378	0.021
Mof_H 	H 	0.75695	0.84273	0.44038	0.016
Mof_H 	H 	0.20548	0.28239	0.02272	0.032
_end
