data_functionalizedCrystal
_audit_creation_method	'EQeq! by Chris Wilmer'
_symmetry_space_group_name_H-M	'P1'
_symmetry_Int_Tables_number	1
_symmetry_cell_setting	triclinic
loop_
_symmetry_equiv_pos_as_xyz
  x,y,z
_cell_length_a	10.8195
_cell_length_b	14.004
_cell_length_c	21.682
_cell_angle_alpha	87.57
_cell_angle_beta	86.557
_cell_angle_gamma	88.083
loop_
_atom_site_label
_atom_site_type_symbol
_atom_site_fract_x
_atom_site_fract_y
_atom_site_fract_z
_atom_site_charge
Mof_Cu	Cu	0.22874	0.3049	0.66777	0.918
Mof_Cu	Cu	0.237	0.11567	0.67291	0.919
Mof_Cu	Cu	0.19832	0.30278	0.16879	0.918
Mof_Cu	Cu	0.20715	0.11335	0.17392	0.918
Mof_H 	H 	0.2056	0.3538	0.8636	0.053
Mof_H 	H 	0.1931	0.3541	0.9701	0.054
Mof_H 	H 	0.246	0.0681	0.9776	0.057
Mof_H 	H 	0.2556	0.0695	0.8709	0.051
Mof_H 	H 	0.8459	0.0674	0.6812	0.058
Mof_H 	H 	0.6324	0.0654	0.6771	0.054
Mof_H 	H 	0.6186	0.3521	0.6596	0.054
Mof_H 	H 	0.8322	0.3556	0.6656	0.055
Mof_H 	H 	0.2592	0.0699	0.4752	0.061
Mof_H 	H 	0.2443	0.0694	0.3708	0.048
Mof_H 	H 	0.1688	0.3534	0.3657	0.051
Mof_H 	H 	0.1789	0.3535	0.4722	0.058
Mof_H 	H 	0.8164	0.0633	0.182	0.057
Mof_H 	H 	0.6015	0.0619	0.1832	0.056
Mof_H 	H 	0.5887	0.3507	0.1596	0.055
Mof_H 	H 	0.8036	0.3514	0.1619	0.053
Mof_H 	H 	0.3829	0.472	0.6168	0.005
Mof_H 	H 	0.3903	0.6347	0.6134	0.087
Mof_H 	H 	0.0727	0.6395	0.7171	0.094
Mof_H 	H 	0.0738	0.4766	0.7151	0.002
Mof_H 	H 	0.4187	0.9401	0.6644	0.015
Mof_H 	H 	0.4201	0.7769	0.6617	0.079
Mof_H 	H 	0.049	0.79	0.6716	0.079
Mof_H 	H 	0.057	0.952	0.6752	0.02
Mof_H 	H 	0.3874	0.9382	0.1672	0.013
Mof_H 	H 	0.3901	0.7748	0.1619	0.081
Mof_H 	H 	0.0202	0.7884	0.1674	0.083
Mof_H 	H 	0.029	0.9502	0.1694	0.015
Mof_H 	H 	0.3573	0.47	0.115	0.014
Mof_H 	H 	0.3683	0.6326	0.1164	0.079
Mof_H 	H 	0.034	0.6397	0.2072	0.089
Mof_H 	H 	0.0382	0.4755	0.2083	0.004
Mof_C 	C 	0.2336	0.2108	0.78683	0.348
Mof_C 	C 	0.9984	0.2113	0.67424	0.334
Mof_C 	C 	0.2296	0.2126	0.55375	0.345
Mof_C 	C 	0.4663	0.2088	0.667	0.352
Mof_C 	C 	0.2008	0.2105	0.28817	0.35
Mof_C 	C 	0.9687	0.2088	0.17293	0.348
Mof_C 	C 	0.2127	0.2099	0.05386	0.354
Mof_C 	C 	0.4361	0.2044	0.16906	0.35
Mof_C 	C 	0.232	0.2116	0.85651	-0.071
Mof_C 	C 	0.2136	0.2958	0.8866	-0.021
Mof_C 	C 	0.2069	0.296	0.9502	-0.016
Mof_C 	C 	0.2204	0.2115	0.98538	-0.071
Mof_C 	C 	0.238	0.1264	0.9548	-0.018
Mof_C 	C 	0.2436	0.1275	0.8911	-0.017
Mof_C 	C 	0.8612	0.2111	0.67293	-0.063
Mof_C 	C 	0.8001	0.1253	0.6769	-0.02
Mof_C 	C 	0.6729	0.1239	0.6746	-0.016
Mof_C 	C 	0.6055	0.2085	0.66867	-0.067
Mof_C 	C 	0.665	0.2946	0.6645	-0.016
Mof_C 	C 	0.7924	0.2968	0.6674	-0.02
Mof_C 	C 	0.2205	0.213	0.4847	-0.057
Mof_C 	C 	0.2403	0.1272	0.4531	-0.029
Mof_C 	C 	0.2323	0.1272	0.3912	-0.007
Mof_C 	C 	0.2065	0.2107	0.35686	-0.078
Mof_C 	C 	0.1866	0.2961	0.388	-0.014
Mof_C 	C 	0.1932	0.2962	0.4515	-0.025
Mof_C 	C 	0.8307	0.2079	0.17162	-0.068
Mof_C 	C 	0.7702	0.1211	0.1778	-0.017
Mof_C 	C 	0.6424	0.1201	0.1778	-0.019
Mof_C 	C 	0.5744	0.2057	0.16977	-0.066
Mof_C 	C 	0.6346	0.2929	0.1641	-0.019
Mof_C 	C 	0.7627	0.2931	0.1653	-0.017
Mof_C 	C 	0.318	0.5067	0.6372	0.104
Mof_C 	C 	0.3238	0.6043	0.6352	-0.152
Mof_C 	C 	0.2326	0.657	0.665	0.078
Mof_C 	C 	0.1379	0.6067	0.6955	-0.151
Mof_C 	C 	0.1394	0.5094	0.6943	0.098
Mof_C 	C 	0.3427	0.9092	0.6662	0.08
Mof_C 	C 	0.3441	0.8114	0.6644	-0.122
Mof_C 	C 	0.2346	0.7635	0.6665	0.05
Mof_C 	C 	0.1262	0.8191	0.6704	-0.119
Mof_C 	C 	0.1317	0.9158	0.6724	0.076
Mof_C 	C 	0.3117	0.907	0.1675	0.086
Mof_C 	C 	0.3138	0.809	0.1642	-0.129
Mof_C 	C 	0.2054	0.7607	0.16422	0.061
Mof_C 	C 	0.0976	0.817	0.167	-0.129
Mof_C 	C 	0.1035	0.9137	0.1691	0.088
Mof_C 	C 	0.2928	0.5048	0.1356	0.078
Mof_C 	C 	0.299	0.602	0.1354	-0.129
Mof_C 	C 	0.2028	0.6555	0.1633	0.063
Mof_C 	C 	0.1032	0.6064	0.1894	-0.139
Mof_C 	C 	0.1061	0.5077	0.1892	0.093
Mof_N 	N 	0.2291	0.4589	0.66527	-0.201
Mof_N 	N 	0.2386	0.9621	0.67054	-0.19
Mof_N 	N 	0.208	0.9588	0.17089	-0.195
Mof_N 	N 	0.1974	0.4562	0.16424	-0.193
Mof_O 	O 	0.2314	0.2901	0.75828	-0.402
Mof_O 	O 	0.2341	0.131	0.76269	-0.401
Mof_O 	O 	0.0482	0.2925	0.67427	-0.391
Mof_O 	O 	0.0566	0.1323	0.67606	-0.396
Mof_O 	O 	0.2259	0.2928	0.5782	-0.393
Mof_O 	O 	0.2403	0.1335	0.58211	-0.393
Mof_O 	O 	0.4099	0.2872	0.66262	-0.402
Mof_O 	O 	0.4161	0.1283	0.66919	-0.397
Mof_O 	O 	0.1968	0.2905	0.25941	-0.399
Mof_O 	O 	0.2002	0.1312	0.26422	-0.401
Mof_O 	O 	0.0177	0.2883	0.17253	-0.401
Mof_O 	O 	0.0266	0.1295	0.1747	-0.398
Mof_O 	O 	0.2032	0.2902	0.07892	-0.392
Mof_O 	O 	0.2171	0.1317	0.083	-0.397
Mof_O 	O 	0.3789	0.2845	0.16591	-0.398
Mof_O 	O 	0.3858	0.1253	0.17309	-0.401
Mof_Cu	Cu	0.77126	0.6951	0.33223	0.918
Mof_Cu	Cu	0.763	0.88433	0.32709	0.919
Mof_Cu	Cu	0.80168	0.69722	0.83121	0.918
Mof_Cu	Cu	0.79285	0.88665	0.82608	0.918
Mof_H 	H 	0.7944	0.6462	0.1364	0.053
Mof_H 	H 	0.8069	0.6459	0.0299	0.054
Mof_H 	H 	0.754	0.9319	0.0224	0.057
Mof_H 	H 	0.7444	0.9305	0.1291	0.051
Mof_H 	H 	0.1541	0.9326	0.3188	0.058
Mof_H 	H 	0.3676	0.9346	0.3229	0.054
Mof_H 	H 	0.3814	0.6479	0.3404	0.054
Mof_H 	H 	0.1678	0.6444	0.3344	0.055
Mof_H 	H 	0.7408	0.9301	0.5248	0.061
Mof_H 	H 	0.7557	0.9306	0.6292	0.048
Mof_H 	H 	0.8312	0.6466	0.6343	0.051
Mof_H 	H 	0.8211	0.6465	0.5278	0.058
Mof_H 	H 	0.1836	0.9367	0.818	0.057
Mof_H 	H 	0.3985	0.9381	0.8168	0.056
Mof_H 	H 	0.4113	0.6493	0.8404	0.055
Mof_H 	H 	0.1964	0.6486	0.8381	0.053
Mof_H 	H 	0.6171	0.528	0.3832	0.005
Mof_H 	H 	0.6097	0.3653	0.3866	0.087
Mof_H 	H 	0.9273	0.3605	0.2829	0.094
Mof_H 	H 	0.9262	0.5234	0.2849	0.002
Mof_H 	H 	0.5813	0.0599	0.3356	0.015
Mof_H 	H 	0.5799	0.2231	0.3383	0.079
Mof_H 	H 	0.951	0.21	0.3284	0.079
Mof_H 	H 	0.943	0.048	0.3248	0.02
Mof_H 	H 	0.6126	0.0618	0.8328	0.013
Mof_H 	H 	0.6099	0.2252	0.8381	0.081
Mof_H 	H 	0.9798	0.2116	0.8326	0.083
Mof_H 	H 	0.971	0.0498	0.8306	0.015
Mof_H 	H 	0.6427	0.53	0.885	0.014
Mof_H 	H 	0.6317	0.3674	0.8836	0.079
Mof_H 	H 	0.966	0.3603	0.7928	0.089
Mof_H 	H 	0.9618	0.5245	0.7917	0.004
Mof_C 	C 	0.7664	0.7892	0.21317	0.348
Mof_C 	C 	0.0016	0.7887	0.32576	0.334
Mof_C 	C 	0.7704	0.7874	0.44625	0.345
Mof_C 	C 	0.5337	0.7912	0.333	0.352
Mof_C 	C 	0.7992	0.7895	0.71183	0.35
Mof_C 	C 	0.0313	0.7912	0.82707	0.348
Mof_C 	C 	0.7873	0.7901	0.94614	0.354
Mof_C 	C 	0.5639	0.7956	0.83094	0.35
Mof_C 	C 	0.768	0.7884	0.14349	-0.071
Mof_C 	C 	0.7864	0.7042	0.1134	-0.021
Mof_C 	C 	0.7931	0.704	0.0498	-0.016
Mof_C 	C 	0.7796	0.7885	0.01462	-0.071
Mof_C 	C 	0.762	0.8736	0.0452	-0.018
Mof_C 	C 	0.7564	0.8725	0.1089	-0.017
Mof_C 	C 	0.1388	0.7889	0.32707	-0.063
Mof_C 	C 	0.1999	0.8747	0.3231	-0.02
Mof_C 	C 	0.3271	0.8761	0.3254	-0.016
Mof_C 	C 	0.3945	0.7915	0.33133	-0.067
Mof_C 	C 	0.335	0.7054	0.3355	-0.016
Mof_C 	C 	0.2076	0.7032	0.3326	-0.02
Mof_C 	C 	0.7795	0.787	0.5153	-0.057
Mof_C 	C 	0.7597	0.8728	0.5469	-0.029
Mof_C 	C 	0.7677	0.8728	0.6088	-0.007
Mof_C 	C 	0.7935	0.7893	0.64314	-0.078
Mof_C 	C 	0.8134	0.7039	0.612	-0.014
Mof_C 	C 	0.8068	0.7038	0.5485	-0.025
Mof_C 	C 	0.1693	0.7921	0.82838	-0.068
Mof_C 	C 	0.2298	0.8789	0.8222	-0.017
Mof_C 	C 	0.3576	0.8799	0.8222	-0.019
Mof_C 	C 	0.4256	0.7943	0.83023	-0.066
Mof_C 	C 	0.3654	0.7071	0.8359	-0.019
Mof_C 	C 	0.2373	0.7069	0.8347	-0.017
Mof_C 	C 	0.682	0.4933	0.3628	0.104
Mof_C 	C 	0.6762	0.3957	0.3648	-0.152
Mof_C 	C 	0.7674	0.343	0.335	0.078
Mof_C 	C 	0.8621	0.3933	0.3045	-0.151
Mof_C 	C 	0.8606	0.4906	0.3057	0.098
Mof_C 	C 	0.6573	0.0908	0.3338	0.08
Mof_C 	C 	0.6559	0.1886	0.3356	-0.122
Mof_C 	C 	0.7654	0.2365	0.3335	0.05
Mof_C 	C 	0.8738	0.1809	0.3296	-0.119
Mof_C 	C 	0.8683	0.0842	0.3276	0.076
Mof_C 	C 	0.6883	0.093	0.8325	0.086
Mof_C 	C 	0.6862	0.191	0.8358	-0.129
Mof_C 	C 	0.7946	0.2393	0.83578	0.061
Mof_C 	C 	0.9024	0.183	0.833	-0.129
Mof_C 	C 	0.8965	0.0863	0.8309	0.088
Mof_C 	C 	0.7072	0.4952	0.8644	0.078
Mof_C 	C 	0.701	0.398	0.8646	-0.129
Mof_C 	C 	0.7972	0.3445	0.8367	0.063
Mof_C 	C 	0.8968	0.3936	0.8106	-0.139
Mof_C 	C 	0.8939	0.4923	0.8108	0.093
Mof_N 	N 	0.7709	0.5411	0.33473	-0.201
Mof_N 	N 	0.7614	0.0379	0.32946	-0.19
Mof_N 	N 	0.792	0.0412	0.82911	-0.195
Mof_N 	N 	0.8026	0.5438	0.83576	-0.193
Mof_O 	O 	0.7686	0.7099	0.24172	-0.402
Mof_O 	O 	0.7659	0.869	0.23731	-0.401
Mof_O 	O 	0.9518	0.7075	0.32573	-0.391
Mof_O 	O 	0.9434	0.8677	0.32394	-0.396
Mof_O 	O 	0.7741	0.7072	0.4218	-0.393
Mof_O 	O 	0.7597	0.8665	0.41789	-0.393
Mof_O 	O 	0.5901	0.7128	0.33738	-0.402
Mof_O 	O 	0.5839	0.8717	0.33081	-0.397
Mof_O 	O 	0.8032	0.7095	0.74059	-0.399
Mof_O 	O 	0.7998	0.8688	0.73578	-0.401
Mof_O 	O 	0.9823	0.7117	0.82747	-0.401
Mof_O 	O 	0.9734	0.8705	0.8253	-0.398
Mof_O 	O 	0.7968	0.7098	0.92108	-0.392
Mof_O 	O 	0.7829	0.8683	0.917	-0.397
Mof_O 	O 	0.6211	0.7155	0.83409	-0.398
Mof_O 	O 	0.6142	0.8747	0.82691	-0.401
_end
