data_functionalizedCrystal
_audit_creation_method	'EQeq! by Chris Wilmer'
_symmetry_space_group_name_H-M	'P1'
_symmetry_Int_Tables_number	1
_symmetry_cell_setting	triclinic
loop_
_symmetry_equiv_pos_as_xyz
  x,y,z
_cell_length_a	34.8531
_cell_length_b	14.7838
_cell_length_c	31.0339
_cell_angle_alpha	90
_cell_angle_beta	101.296
_cell_angle_gamma	90
loop_
_atom_site_label
_atom_site_type_symbol
_atom_site_fract_x
_atom_site_fract_y
_atom_site_fract_z
_atom_site_charge
Mof_Zn	Zn	0.62606	0.60176	0.56149	1.163
Mof_Zn	Zn	0.41578	0.87258	0.41168	1.159
Mof_I 	I 	0.60849	0.74183	0.59733	-0.398
Mof_I 	I 	0.47258	0.84239	0.37446	-0.363
Mof_N 	N 	0.57947	0.5154	0.55797	-0.28
Mof_C 	C 	0.56522	0.4662	0.5229	0.076
Mof_H 	H 	0.5772	0.4704	0.498	-0.011
Mof_C 	C 	0.53354	0.4087	0.5211	-0.131
Mof_H 	H 	0.5244	0.3736	0.4955	0.077
Mof_C 	C 	0.51564	0.4029	0.5562	0.051
Mof_C 	C 	0.5322	0.4488	0.5942	-0.125
Mof_H 	H 	0.522	0.4427	0.6203	0.086
Mof_C 	C 	0.5643	0.504	0.5932	0.077
Mof_H 	H 	0.5758	0.5351	0.6194	-0.016
Mof_N 	N 	0.42946	0.9804	0.455	-0.271
Mof_C 	C 	0.46132	0.0308	0.4559	0.065
Mof_H 	H 	0.4797	0.0132	0.4386	-0.008
Mof_C 	C 	0.46829	0.108	0.4813	-0.111
Mof_H 	H 	0.4912	0.1429	0.4814	0.066
Mof_C 	C 	0.44171	0.1341	0.5066	0.047
Mof_C 	C 	0.409	0.0812	0.5064	-0.113
Mof_H 	H 	0.3903	0.097	0.5236	0.078
Mof_C 	C 	0.4043	0.0041	0.4802	0.064
Mof_H 	H 	0.3822	0.9666	0.4804	-0.012
Mof_N 	N 	0.3603	0.3458	0.6819	-0.296
Mof_C 	C 	0.3912	0.3942	0.6815	0.098
Mof_H 	H 	0.3972	0.4415	0.7025	-0.029
Mof_C 	C 	0.416	0.3809	0.6525	-0.137
Mof_H 	H 	0.4389	0.4168	0.6544	0.089
Mof_C 	C 	0.4073	0.3156	0.6209	0.073
Mof_C 	C 	0.3732	0.2691	0.6181	-0.122
Mof_H 	H 	0.3652	0.226	0.5954	0.085
Mof_C 	C 	0.3502	0.2862	0.6492	0.069
Mof_H 	H 	0.3263	0.2539	0.6472	-0.017
Mof_C 	C 	0.48196	0.3418	0.5568	0.095
Mof_N 	N 	0.47591	0.2747	0.52822	-0.15
Mof_C 	C 	0.44785	0.2174	0.53416	0.094
Mof_N 	N 	0.4253	0.2261	0.56364	-0.137
Mof_C 	C 	0.43207	0.2998	0.5886	0.1
Mof_N 	N 	0.46117	0.3589	0.58746	-0.135
Mof_N 	N 	0.37662	0.939	0.36262	-0.271
Mof_C 	C 	0.3813	0.0267	0.357	0.077
Mof_H 	H 	0.4003	0.0582	0.3779	-0.002
Mof_C 	C 	0.3602	0.0743	0.3225	-0.124
Mof_H 	H 	0.3644	0.1374	0.3198	0.097
Mof_C 	C 	0.33294	0.03	0.2919	0.062
Mof_C 	C 	0.32727	0.9392	0.2978	-0.127
Mof_H 	H 	0.3084	0.9064	0.2775	0.071
Mof_C 	C 	0.3496	0.8962	0.3341	0.072
Mof_H 	H 	0.3452	0.8337	0.3385	-0.016
Mof_N 	N 	0.31523	0.4978	0.2248	-0.293
Mof_C 	C 	0.2851	0.4648	0.1977	0.076
Mof_H 	H 	0.2676	0.5054	0.18	-0.021
Mof_C 	C 	0.2776	0.3717	0.1936	-0.126
Mof_H 	H 	0.2556	0.3492	0.1734	0.08
Mof_C 	C 	0.30297	0.3139	0.22	0.062
Mof_C 	C 	0.3345	0.3493	0.2485	-0.124
Mof_H 	H 	0.3526	0.3108	0.2668	0.086
Mof_C 	C 	0.3394	0.4432	0.2502	0.074
Mof_H 	H 	0.3608	0.4682	0.2704	-0.02
Mof_N 	N 	0.16876	0.9616	0.10691	-0.274
Mof_C 	C 	0.177	0.0486	0.1021	0.073
Mof_H 	H 	0.1616	0.0808	0.0783	-0.006
Mof_C 	C 	0.2063	0.0944	0.1295	-0.122
Mof_H 	H 	0.2111	0.1566	0.1249	0.084
Mof_C 	C 	0.22885	0.0468	0.16407	0.046
Mof_C 	C 	0.22	0.9575	0.1698	-0.125
Mof_H 	H 	0.2344	0.9239	0.1937	0.089
Mof_C 	C 	0.19011	0.9172	0.1406	0.069
Mof_H 	H 	0.1845	0.8552	0.1446	-0.001
Mof_C 	C 	0.30991	0.0815	0.25455	0.098
Mof_N 	N 	0.31926	0.1685	0.2518	-0.133
Mof_C 	C 	0.29605	0.2149	0.22004	0.099
Mof_N 	N 	0.26688	0.1793	0.19006	-0.142
Mof_C 	C 	0.26083	0.0919	0.19566	0.085
Mof_N 	N 	0.28065	0.0394	0.22766	-0.143
Mof_I 	I 	0.37879	0.7601	0.44888	-0.106
Mof_I 	I 	0.6464	0.6031	0.49029	-0.107
Mof_Zn	Zn	0.33036	0.6388	0.232	0.624
Mof_I 	I 	0.26821	0.728	0.20672	-0.016
Mof_I 	I 	0.37419	0.6537	0.30548	-0.329
Mof_Zn	Zn	0.3201	0.6317	0.2233	0.632
Mof_I 	I 	0.2574	0.7132	0.1941	-0.364
Mof_I 	I 	0.3662	0.7751	0.4461	-0.235
Mof_I 	I 	0.65119	0.5846	0.48886	-0.227
Mof_I 	I 	0.3663	0.6678	0.2979	-0.06
Mof_Zn	Zn	0.12606	0.10176	0.56149	1.164
Mof_Zn	Zn	0.91578	0.37258	0.41168	1.16
Mof_I 	I 	0.10849	0.24183	0.59733	-0.397
Mof_I 	I 	0.97258	0.34239	0.37446	-0.362
Mof_N 	N 	0.07947	0.0154	0.55797	-0.279
Mof_C 	C 	0.06522	0.9662	0.5229	0.077
Mof_H 	H 	0.0772	0.9704	0.498	-0.01
Mof_C 	C 	0.03354	0.9087	0.5211	-0.13
Mof_H 	H 	0.0244	0.8736	0.4955	0.078
Mof_C 	C 	0.01564	0.9029	0.5562	0.052
Mof_C 	C 	0.0322	0.9488	0.5942	-0.125
Mof_H 	H 	0.022	0.9427	0.6203	0.086
Mof_C 	C 	0.0643	0.004	0.5932	0.077
Mof_H 	H 	0.0758	0.0351	0.6194	-0.016
Mof_N 	N 	0.92946	0.4804	0.455	-0.271
Mof_C 	C 	0.96132	0.5308	0.4559	0.065
Mof_H 	H 	0.9797	0.5132	0.4386	-0.008
Mof_C 	C 	0.96829	0.608	0.4813	-0.111
Mof_H 	H 	0.9912	0.6429	0.4814	0.066
Mof_C 	C 	0.94171	0.6341	0.5066	0.047
Mof_C 	C 	0.909	0.5812	0.5064	-0.113
Mof_H 	H 	0.8903	0.597	0.5236	0.078
Mof_C 	C 	0.9043	0.5041	0.4802	0.065
Mof_H 	H 	0.8822	0.4666	0.4804	-0.012
Mof_N 	N 	0.8603	0.8458	0.6819	-0.296
Mof_C 	C 	0.8912	0.8942	0.6815	0.098
Mof_H 	H 	0.8972	0.9415	0.7025	-0.029
Mof_C 	C 	0.916	0.8809	0.6525	-0.137
Mof_H 	H 	0.9389	0.9168	0.6544	0.089
Mof_C 	C 	0.9073	0.8156	0.6209	0.073
Mof_C 	C 	0.8732	0.7691	0.6181	-0.122
Mof_H 	H 	0.8652	0.726	0.5954	0.085
Mof_C 	C 	0.8502	0.7862	0.6492	0.069
Mof_H 	H 	0.8263	0.7539	0.6472	-0.017
Mof_C 	C 	0.98196	0.8418	0.5568	0.095
Mof_N 	N 	0.97591	0.7747	0.52822	-0.15
Mof_C 	C 	0.94785	0.7174	0.53416	0.094
Mof_N 	N 	0.9253	0.7261	0.56364	-0.137
Mof_C 	C 	0.93207	0.7998	0.5886	0.1
Mof_N 	N 	0.96117	0.8589	0.58746	-0.135
Mof_N 	N 	0.87662	0.439	0.36262	-0.271
Mof_C 	C 	0.8813	0.5267	0.357	0.078
Mof_H 	H 	0.9003	0.5582	0.3779	-0.002
Mof_C 	C 	0.8602	0.5743	0.3225	-0.125
Mof_H 	H 	0.8644	0.6374	0.3198	0.097
Mof_C 	C 	0.83294	0.53	0.2919	0.063
Mof_C 	C 	0.82727	0.4392	0.2978	-0.128
Mof_H 	H 	0.8084	0.4064	0.2775	0.071
Mof_C 	C 	0.8496	0.3962	0.3341	0.072
Mof_H 	H 	0.8452	0.3337	0.3385	-0.016
Mof_N 	N 	0.81523	0.9978	0.2248	-0.293
Mof_C 	C 	0.7851	0.9648	0.1977	0.077
Mof_H 	H 	0.7676	0.0054	0.18	-0.021
Mof_C 	C 	0.7776	0.8717	0.1936	-0.127
Mof_H 	H 	0.7556	0.8492	0.1734	0.08
Mof_C 	C 	0.80297	0.8139	0.22	0.062
Mof_C 	C 	0.8345	0.8493	0.2485	-0.125
Mof_H 	H 	0.8526	0.8108	0.2668	0.086
Mof_C 	C 	0.8394	0.9432	0.2502	0.074
Mof_H 	H 	0.8608	0.9682	0.2704	-0.02
Mof_N 	N 	0.66876	0.4616	0.10691	-0.274
Mof_C 	C 	0.677	0.5486	0.1021	0.073
Mof_H 	H 	0.6616	0.5808	0.0783	-0.006
Mof_C 	C 	0.7063	0.5944	0.1295	-0.123
Mof_H 	H 	0.7111	0.6566	0.1249	0.084
Mof_C 	C 	0.72885	0.5468	0.16407	0.046
Mof_C 	C 	0.72	0.4575	0.1698	-0.125
Mof_H 	H 	0.7344	0.4239	0.1937	0.089
Mof_C 	C 	0.69011	0.4172	0.1406	0.07
Mof_H 	H 	0.6845	0.3552	0.1446	-0.001
Mof_C 	C 	0.80991	0.5815	0.25455	0.098
Mof_N 	N 	0.81926	0.6685	0.2518	-0.133
Mof_C 	C 	0.79605	0.7149	0.22004	0.099
Mof_N 	N 	0.76688	0.6793	0.19006	-0.142
Mof_C 	C 	0.76083	0.5919	0.19566	0.085
Mof_N 	N 	0.78065	0.5394	0.22766	-0.143
Mof_I 	I 	0.87879	0.2601	0.44888	-0.106
Mof_I 	I 	0.1464	0.1031	0.49029	-0.107
Mof_Zn	Zn	0.83036	0.1388	0.232	0.624
Mof_I 	I 	0.76821	0.228	0.20672	-0.016
Mof_I 	I 	0.87419	0.1537	0.30548	-0.329
Mof_Zn	Zn	0.8201	0.1317	0.2233	0.632
Mof_I 	I 	0.7574	0.2132	0.1941	-0.364
Mof_I 	I 	0.8662	0.2751	0.4461	-0.235
Mof_I 	I 	0.15119	0.0846	0.48886	-0.227
Mof_I 	I 	0.8663	0.1678	0.2979	-0.06
Mof_Zn	Zn	0.62606	0.39824	0.06149	1.164
Mof_Zn	Zn	0.41578	0.12742	0.91168	1.16
Mof_I 	I 	0.60849	0.25817	0.09733	-0.397
Mof_I 	I 	0.47258	0.15761	0.87446	-0.362
Mof_N 	N 	0.57947	0.4846	0.05797	-0.279
Mof_C 	C 	0.56522	0.5338	0.0229	0.077
Mof_H 	H 	0.5772	0.5296	0.998	-0.01
Mof_C 	C 	0.53354	0.5913	0.0211	-0.13
Mof_H 	H 	0.5244	0.6264	0.9955	0.078
Mof_C 	C 	0.51564	0.5971	0.0562	0.052
Mof_C 	C 	0.5322	0.5512	0.0942	-0.125
Mof_H 	H 	0.522	0.5573	0.1203	0.086
Mof_C 	C 	0.5643	0.496	0.0932	0.077
Mof_H 	H 	0.5758	0.4649	0.1194	-0.016
Mof_N 	N 	0.42946	0.0196	0.955	-0.271
Mof_C 	C 	0.46132	0.9692	0.9559	0.065
Mof_H 	H 	0.4797	0.9868	0.9386	-0.008
Mof_C 	C 	0.46829	0.892	0.9813	-0.111
Mof_H 	H 	0.4912	0.8571	0.9814	0.066
Mof_C 	C 	0.44171	0.8659	0.0066	0.047
Mof_C 	C 	0.409	0.9188	0.0064	-0.113
Mof_H 	H 	0.3903	0.903	0.0236	0.078
Mof_C 	C 	0.4043	0.9959	0.9802	0.064
Mof_H 	H 	0.3822	0.0334	0.9804	-0.012
Mof_N 	N 	0.3603	0.6542	0.1819	-0.296
Mof_C 	C 	0.3912	0.6058	0.1815	0.098
Mof_H 	H 	0.3972	0.5585	0.2025	-0.029
Mof_C 	C 	0.416	0.6191	0.1525	-0.137
Mof_H 	H 	0.4389	0.5832	0.1544	0.089
Mof_C 	C 	0.4073	0.6844	0.1209	0.073
Mof_C 	C 	0.3732	0.7309	0.1181	-0.122
Mof_H 	H 	0.3652	0.774	0.0954	0.085
Mof_C 	C 	0.3502	0.7138	0.1492	0.069
Mof_H 	H 	0.3263	0.7461	0.1472	-0.017
Mof_C 	C 	0.48196	0.6582	0.0568	0.095
Mof_N 	N 	0.47591	0.7253	0.02822	-0.15
Mof_C 	C 	0.44785	0.7826	0.03416	0.095
Mof_N 	N 	0.4253	0.7739	0.06364	-0.137
Mof_C 	C 	0.43207	0.7002	0.0886	0.1
Mof_N 	N 	0.46117	0.6411	0.08746	-0.135
Mof_N 	N 	0.37662	0.061	0.86262	-0.271
Mof_C 	C 	0.3813	0.9733	0.857	0.077
Mof_H 	H 	0.4003	0.9418	0.8779	-0.002
Mof_C 	C 	0.3602	0.9257	0.8225	-0.124
Mof_H 	H 	0.3644	0.8626	0.8198	0.097
Mof_C 	C 	0.33294	0.97	0.7919	0.062
Mof_C 	C 	0.32727	0.0608	0.7978	-0.127
Mof_H 	H 	0.3084	0.0936	0.7775	0.071
Mof_C 	C 	0.3496	0.1038	0.8341	0.072
Mof_H 	H 	0.3452	0.1663	0.8385	-0.016
Mof_N 	N 	0.31523	0.5022	0.7248	-0.293
Mof_C 	C 	0.2851	0.5352	0.6977	0.076
Mof_H 	H 	0.2676	0.4946	0.68	-0.021
Mof_C 	C 	0.2776	0.6283	0.6936	-0.126
Mof_H 	H 	0.2556	0.6508	0.6734	0.08
Mof_C 	C 	0.30297	0.6861	0.72	0.062
Mof_C 	C 	0.3345	0.6507	0.7485	-0.124
Mof_H 	H 	0.3526	0.6892	0.7668	0.086
Mof_C 	C 	0.3394	0.5568	0.7502	0.074
Mof_H 	H 	0.3608	0.5318	0.7704	-0.02
Mof_N 	N 	0.16876	0.0384	0.60691	-0.274
Mof_C 	C 	0.177	0.9514	0.6021	0.073
Mof_H 	H 	0.1616	0.9192	0.5783	-0.006
Mof_C 	C 	0.2063	0.9056	0.6295	-0.122
Mof_H 	H 	0.2111	0.8434	0.6249	0.084
Mof_C 	C 	0.22885	0.9532	0.66407	0.046
Mof_C 	C 	0.22	0.0425	0.6698	-0.125
Mof_H 	H 	0.2344	0.0761	0.6937	0.089
Mof_C 	C 	0.19011	0.0828	0.6406	0.069
Mof_H 	H 	0.1845	0.1448	0.6446	-0.001
Mof_C 	C 	0.30991	0.9185	0.75455	0.098
Mof_N 	N 	0.31926	0.8315	0.7518	-0.133
Mof_C 	C 	0.29605	0.7851	0.72004	0.099
Mof_N 	N 	0.26688	0.8207	0.69006	-0.142
Mof_C 	C 	0.26083	0.9081	0.69566	0.085
Mof_N 	N 	0.28065	0.9606	0.72766	-0.143
Mof_I 	I 	0.37879	0.2399	0.94888	-0.106
Mof_I 	I 	0.6464	0.3969	0.99029	-0.107
Mof_Zn	Zn	0.33036	0.3612	0.732	0.624
Mof_I 	I 	0.26821	0.272	0.70672	-0.016
Mof_I 	I 	0.37419	0.3463	0.80548	-0.329
Mof_Zn	Zn	0.3201	0.3683	0.7233	0.632
Mof_I 	I 	0.2574	0.2868	0.6941	-0.364
Mof_I 	I 	0.3662	0.2249	0.9461	-0.235
Mof_I 	I 	0.65119	0.4154	0.98886	-0.227
Mof_I 	I 	0.3663	0.3322	0.7979	-0.06
Mof_Zn	Zn	0.12606	0.89824	0.06149	1.164
Mof_Zn	Zn	0.91578	0.62742	0.91168	1.16
Mof_I 	I 	0.10849	0.75817	0.09733	-0.397
Mof_I 	I 	0.97258	0.65761	0.87446	-0.362
Mof_N 	N 	0.07947	0.9846	0.05797	-0.279
Mof_C 	C 	0.06522	0.0338	0.0229	0.076
Mof_H 	H 	0.0772	0.0296	0.998	-0.01
Mof_C 	C 	0.03354	0.0913	0.0211	-0.131
Mof_H 	H 	0.0244	0.1264	0.9955	0.078
Mof_C 	C 	0.01564	0.0971	0.0562	0.052
Mof_C 	C 	0.0322	0.0512	0.0942	-0.125
Mof_H 	H 	0.022	0.0573	0.1203	0.086
Mof_C 	C 	0.0643	0.996	0.0932	0.077
Mof_H 	H 	0.0758	0.9649	0.1194	-0.017
Mof_N 	N 	0.92946	0.5196	0.955	-0.271
Mof_C 	C 	0.96132	0.4692	0.9559	0.065
Mof_H 	H 	0.9797	0.4868	0.9386	-0.008
Mof_C 	C 	0.96829	0.392	0.9813	-0.111
Mof_H 	H 	0.9912	0.3571	0.9814	0.066
Mof_C 	C 	0.94171	0.3659	0.0066	0.047
Mof_C 	C 	0.909	0.4188	0.0064	-0.113
Mof_H 	H 	0.8903	0.403	0.0236	0.078
Mof_C 	C 	0.9043	0.4959	0.9802	0.065
Mof_H 	H 	0.8822	0.5334	0.9804	-0.012
Mof_N 	N 	0.8603	0.1542	0.1819	-0.296
Mof_C 	C 	0.8912	0.1058	0.1815	0.098
Mof_H 	H 	0.8972	0.0585	0.2025	-0.029
Mof_C 	C 	0.916	0.1191	0.1525	-0.137
Mof_H 	H 	0.9389	0.0832	0.1544	0.089
Mof_C 	C 	0.9073	0.1844	0.1209	0.073
Mof_C 	C 	0.8732	0.2309	0.1181	-0.122
Mof_H 	H 	0.8652	0.274	0.0954	0.085
Mof_C 	C 	0.8502	0.2138	0.1492	0.069
Mof_H 	H 	0.8263	0.2461	0.1472	-0.017
Mof_C 	C 	0.98196	0.1582	0.0568	0.095
Mof_N 	N 	0.97591	0.2253	0.02822	-0.15
Mof_C 	C 	0.94785	0.2826	0.03416	0.094
Mof_N 	N 	0.9253	0.2739	0.06364	-0.137
Mof_C 	C 	0.93207	0.2002	0.0886	0.1
Mof_N 	N 	0.96117	0.1411	0.08746	-0.135
Mof_N 	N 	0.87662	0.561	0.86262	-0.271
Mof_C 	C 	0.8813	0.4733	0.857	0.078
Mof_H 	H 	0.9003	0.4418	0.8779	-0.002
Mof_C 	C 	0.8602	0.4257	0.8225	-0.125
Mof_H 	H 	0.8644	0.3626	0.8198	0.097
Mof_C 	C 	0.83294	0.47	0.7919	0.063
Mof_C 	C 	0.82727	0.5608	0.7978	-0.128
Mof_H 	H 	0.8084	0.5936	0.7775	0.071
Mof_C 	C 	0.8496	0.6038	0.8341	0.072
Mof_H 	H 	0.8452	0.6663	0.8385	-0.016
Mof_N 	N 	0.81523	0.0022	0.7248	-0.293
Mof_C 	C 	0.7851	0.0352	0.6977	0.077
Mof_H 	H 	0.7676	0.9946	0.68	-0.021
Mof_C 	C 	0.7776	0.1283	0.6936	-0.127
Mof_H 	H 	0.7556	0.1508	0.6734	0.08
Mof_C 	C 	0.80297	0.1861	0.72	0.062
Mof_C 	C 	0.8345	0.1507	0.7485	-0.125
Mof_H 	H 	0.8526	0.1892	0.7668	0.086
Mof_C 	C 	0.8394	0.0568	0.7502	0.074
Mof_H 	H 	0.8608	0.0318	0.7704	-0.02
Mof_N 	N 	0.66876	0.5384	0.60691	-0.274
Mof_C 	C 	0.677	0.4514	0.6021	0.073
Mof_H 	H 	0.6616	0.4192	0.5783	-0.006
Mof_C 	C 	0.7063	0.4056	0.6295	-0.123
Mof_H 	H 	0.7111	0.3434	0.6249	0.084
Mof_C 	C 	0.72885	0.4532	0.66407	0.046
Mof_C 	C 	0.72	0.5425	0.6698	-0.125
Mof_H 	H 	0.7344	0.5761	0.6937	0.089
Mof_C 	C 	0.69011	0.5828	0.6406	0.07
Mof_H 	H 	0.6845	0.6448	0.6446	-0.001
Mof_C 	C 	0.80991	0.4185	0.75455	0.098
Mof_N 	N 	0.81926	0.3315	0.7518	-0.133
Mof_C 	C 	0.79605	0.2851	0.72004	0.099
Mof_N 	N 	0.76688	0.3207	0.69006	-0.142
Mof_C 	C 	0.76083	0.4081	0.69566	0.085
Mof_N 	N 	0.78065	0.4606	0.72766	-0.143
Mof_I 	I 	0.87879	0.7399	0.94888	-0.106
Mof_I 	I 	0.1464	0.8969	0.99029	-0.107
Mof_Zn	Zn	0.83036	0.8612	0.732	0.624
Mof_I 	I 	0.76821	0.772	0.70672	-0.016
Mof_I 	I 	0.87419	0.8463	0.80548	-0.329
Mof_Zn	Zn	0.8201	0.8683	0.7233	0.632
Mof_I 	I 	0.7574	0.7868	0.6941	-0.364
Mof_I 	I 	0.8662	0.7249	0.9461	-0.236
Mof_I 	I 	0.15119	0.9154	0.98886	-0.227
Mof_I 	I 	0.8663	0.8322	0.7979	-0.06
Mof_Zn	Zn	0.37394	0.60176	0.93851	1.164
Mof_Zn	Zn	0.58422	0.87258	0.08832	1.16
Mof_I 	I 	0.39151	0.74183	0.90267	-0.397
Mof_I 	I 	0.52742	0.84239	0.12554	-0.362
Mof_N 	N 	0.42053	0.5154	0.94203	-0.279
Mof_C 	C 	0.43478	0.4662	0.9771	0.077
Mof_H 	H 	0.4228	0.4704	0.002	-0.01
Mof_C 	C 	0.46646	0.4087	0.9789	-0.13
Mof_H 	H 	0.4756	0.3736	0.0045	0.078
Mof_C 	C 	0.48436	0.4029	0.9438	0.052
Mof_C 	C 	0.4678	0.4488	0.9058	-0.125
Mof_H 	H 	0.478	0.4427	0.8797	0.086
Mof_C 	C 	0.4357	0.504	0.9068	0.077
Mof_H 	H 	0.4242	0.5351	0.8806	-0.016
Mof_N 	N 	0.57054	0.9804	0.045	-0.271
Mof_C 	C 	0.53868	0.0308	0.0441	0.065
Mof_H 	H 	0.5203	0.0132	0.0614	-0.008
Mof_C 	C 	0.53171	0.108	0.0187	-0.111
Mof_H 	H 	0.5088	0.1429	0.0186	0.066
Mof_C 	C 	0.55829	0.1341	0.9934	0.047
Mof_C 	C 	0.591	0.0812	0.9936	-0.113
Mof_H 	H 	0.6097	0.097	0.9764	0.078
Mof_C 	C 	0.5957	0.0041	0.0198	0.064
Mof_H 	H 	0.6178	0.9666	0.0196	-0.012
Mof_N 	N 	0.6397	0.3458	0.8181	-0.296
Mof_C 	C 	0.6088	0.3942	0.8185	0.098
Mof_H 	H 	0.6028	0.4415	0.7975	-0.029
Mof_C 	C 	0.584	0.3809	0.8475	-0.137
Mof_H 	H 	0.5611	0.4168	0.8456	0.089
Mof_C 	C 	0.5927	0.3156	0.8791	0.073
Mof_C 	C 	0.6268	0.2691	0.8819	-0.122
Mof_H 	H 	0.6348	0.226	0.9046	0.085
Mof_C 	C 	0.6498	0.2862	0.8508	0.069
Mof_H 	H 	0.6737	0.2539	0.8528	-0.017
Mof_C 	C 	0.51804	0.3418	0.9432	0.095
Mof_N 	N 	0.52409	0.2747	0.97178	-0.15
Mof_C 	C 	0.55215	0.2174	0.96584	0.095
Mof_N 	N 	0.5747	0.2261	0.93636	-0.137
Mof_C 	C 	0.56793	0.2998	0.9114	0.1
Mof_N 	N 	0.53883	0.3589	0.91254	-0.135
Mof_N 	N 	0.62338	0.939	0.13738	-0.271
Mof_C 	C 	0.6187	0.0267	0.143	0.077
Mof_H 	H 	0.5997	0.0582	0.1221	-0.002
Mof_C 	C 	0.6398	0.0743	0.1775	-0.124
Mof_H 	H 	0.6356	0.1374	0.1802	0.097
Mof_C 	C 	0.66706	0.03	0.2081	0.062
Mof_C 	C 	0.67273	0.9392	0.2022	-0.127
Mof_H 	H 	0.6916	0.9064	0.2225	0.071
Mof_C 	C 	0.6504	0.8962	0.1659	0.072
Mof_H 	H 	0.6548	0.8337	0.1615	-0.016
Mof_N 	N 	0.68477	0.4978	0.2752	-0.293
Mof_C 	C 	0.7149	0.4648	0.3023	0.076
Mof_H 	H 	0.7324	0.5054	0.32	-0.021
Mof_C 	C 	0.7224	0.3717	0.3064	-0.126
Mof_H 	H 	0.7444	0.3492	0.3266	0.08
Mof_C 	C 	0.69703	0.3139	0.28	0.062
Mof_C 	C 	0.6655	0.3493	0.2515	-0.124
Mof_H 	H 	0.6474	0.3108	0.2332	0.086
Mof_C 	C 	0.6606	0.4432	0.2498	0.074
Mof_H 	H 	0.6392	0.4682	0.2296	-0.02
Mof_N 	N 	0.83124	0.9616	0.39309	-0.274
Mof_C 	C 	0.823	0.0486	0.3979	0.073
Mof_H 	H 	0.8384	0.0808	0.4217	-0.006
Mof_C 	C 	0.7937	0.0944	0.3705	-0.122
Mof_H 	H 	0.7889	0.1566	0.3751	0.084
Mof_C 	C 	0.77115	0.0468	0.33593	0.046
Mof_C 	C 	0.78	0.9575	0.3302	-0.125
Mof_H 	H 	0.7656	0.9239	0.3063	0.089
Mof_C 	C 	0.80989	0.9172	0.3594	0.069
Mof_H 	H 	0.8155	0.8552	0.3554	-0.001
Mof_C 	C 	0.69009	0.0815	0.24545	0.098
Mof_N 	N 	0.68074	0.1685	0.2482	-0.133
Mof_C 	C 	0.70395	0.2149	0.27996	0.099
Mof_N 	N 	0.73312	0.1793	0.30994	-0.142
Mof_C 	C 	0.73917	0.0919	0.30434	0.085
Mof_N 	N 	0.71935	0.0394	0.27234	-0.143
Mof_I 	I 	0.62121	0.7601	0.05112	-0.106
Mof_I 	I 	0.3536	0.6031	0.00971	-0.107
Mof_Zn	Zn	0.66964	0.6388	0.268	0.624
Mof_I 	I 	0.73179	0.728	0.29328	-0.016
Mof_I 	I 	0.62581	0.6537	0.19452	-0.329
Mof_Zn	Zn	0.6799	0.6317	0.2767	0.632
Mof_I 	I 	0.7426	0.7132	0.3059	-0.364
Mof_I 	I 	0.6338	0.7751	0.0539	-0.235
Mof_I 	I 	0.34881	0.5846	0.01114	-0.227
Mof_I 	I 	0.6337	0.6678	0.2021	-0.06
Mof_Zn	Zn	0.87394	0.10176	0.93851	1.164
Mof_Zn	Zn	0.08422	0.37258	0.08832	1.16
Mof_I 	I 	0.89151	0.24183	0.90267	-0.397
Mof_I 	I 	0.02742	0.34239	0.12554	-0.362
Mof_N 	N 	0.92053	0.0154	0.94203	-0.279
Mof_C 	C 	0.93478	0.9662	0.9771	0.076
Mof_H 	H 	0.9228	0.9704	0.002	-0.01
Mof_C 	C 	0.96646	0.9087	0.9789	-0.131
Mof_H 	H 	0.9756	0.8736	0.0045	0.078
Mof_C 	C 	0.98436	0.9029	0.9438	0.052
Mof_C 	C 	0.9678	0.9488	0.9058	-0.125
Mof_H 	H 	0.978	0.9427	0.8797	0.086
Mof_C 	C 	0.9357	0.004	0.9068	0.077
Mof_H 	H 	0.9242	0.0351	0.8806	-0.017
Mof_N 	N 	0.07054	0.4804	0.045	-0.271
Mof_C 	C 	0.03868	0.5308	0.0441	0.065
Mof_H 	H 	0.0203	0.5132	0.0614	-0.008
Mof_C 	C 	0.03171	0.608	0.0187	-0.111
Mof_H 	H 	0.0088	0.6429	0.0186	0.066
Mof_C 	C 	0.05829	0.6341	0.9934	0.047
Mof_C 	C 	0.091	0.5812	0.9936	-0.113
Mof_H 	H 	0.1097	0.597	0.9764	0.078
Mof_C 	C 	0.0957	0.5041	0.0198	0.065
Mof_H 	H 	0.1178	0.4666	0.0196	-0.012
Mof_N 	N 	0.1397	0.8458	0.8181	-0.296
Mof_C 	C 	0.1088	0.8942	0.8185	0.098
Mof_H 	H 	0.1028	0.9415	0.7975	-0.029
Mof_C 	C 	0.084	0.8809	0.8475	-0.137
Mof_H 	H 	0.0611	0.9168	0.8456	0.089
Mof_C 	C 	0.0927	0.8156	0.8791	0.073
Mof_C 	C 	0.1268	0.7691	0.8819	-0.122
Mof_H 	H 	0.1348	0.726	0.9046	0.085
Mof_C 	C 	0.1498	0.7862	0.8508	0.069
Mof_H 	H 	0.1737	0.7539	0.8528	-0.017
Mof_C 	C 	0.01804	0.8418	0.9432	0.095
Mof_N 	N 	0.02409	0.7747	0.97178	-0.15
Mof_C 	C 	0.05215	0.7174	0.96584	0.094
Mof_N 	N 	0.0747	0.7261	0.93636	-0.137
Mof_C 	C 	0.06793	0.7998	0.9114	0.1
Mof_N 	N 	0.03883	0.8589	0.91254	-0.135
Mof_N 	N 	0.12338	0.439	0.13738	-0.271
Mof_C 	C 	0.1187	0.5267	0.143	0.078
Mof_H 	H 	0.0997	0.5582	0.1221	-0.002
Mof_C 	C 	0.1398	0.5743	0.1775	-0.125
Mof_H 	H 	0.1356	0.6374	0.1802	0.097
Mof_C 	C 	0.16706	0.53	0.2081	0.063
Mof_C 	C 	0.17273	0.4392	0.2022	-0.128
Mof_H 	H 	0.1916	0.4064	0.2225	0.071
Mof_C 	C 	0.1504	0.3962	0.1659	0.072
Mof_H 	H 	0.1548	0.3337	0.1615	-0.016
Mof_N 	N 	0.18477	0.9978	0.2752	-0.293
Mof_C 	C 	0.2149	0.9648	0.3023	0.077
Mof_H 	H 	0.2324	0.0054	0.32	-0.021
Mof_C 	C 	0.2224	0.8717	0.3064	-0.127
Mof_H 	H 	0.2444	0.8492	0.3266	0.08
Mof_C 	C 	0.19703	0.8139	0.28	0.062
Mof_C 	C 	0.1655	0.8493	0.2515	-0.125
Mof_H 	H 	0.1474	0.8108	0.2332	0.086
Mof_C 	C 	0.1606	0.9432	0.2498	0.074
Mof_H 	H 	0.1392	0.9682	0.2296	-0.02
Mof_N 	N 	0.33124	0.4616	0.39309	-0.274
Mof_C 	C 	0.323	0.5486	0.3979	0.073
Mof_H 	H 	0.3384	0.5808	0.4217	-0.006
Mof_C 	C 	0.2937	0.5944	0.3705	-0.123
Mof_H 	H 	0.2889	0.6566	0.3751	0.084
Mof_C 	C 	0.27115	0.5468	0.33593	0.046
Mof_C 	C 	0.28	0.4575	0.3302	-0.125
Mof_H 	H 	0.2656	0.4239	0.3063	0.089
Mof_C 	C 	0.30989	0.4172	0.3594	0.07
Mof_H 	H 	0.3155	0.3552	0.3554	-0.001
Mof_C 	C 	0.19009	0.5815	0.24545	0.098
Mof_N 	N 	0.18074	0.6685	0.2482	-0.133
Mof_C 	C 	0.20395	0.7149	0.27996	0.099
Mof_N 	N 	0.23312	0.6793	0.30994	-0.142
Mof_C 	C 	0.23917	0.5919	0.30434	0.085
Mof_N 	N 	0.21935	0.5394	0.27234	-0.143
Mof_I 	I 	0.12121	0.2601	0.05112	-0.106
Mof_I 	I 	0.8536	0.1031	0.00971	-0.107
Mof_Zn	Zn	0.16964	0.1388	0.268	0.624
Mof_I 	I 	0.23179	0.228	0.29328	-0.016
Mof_I 	I 	0.12581	0.1537	0.19452	-0.329
Mof_Zn	Zn	0.1799	0.1317	0.2767	0.632
Mof_I 	I 	0.2426	0.2132	0.3059	-0.364
Mof_I 	I 	0.1338	0.2751	0.0539	-0.236
Mof_I 	I 	0.84881	0.0846	0.01114	-0.227
Mof_I 	I 	0.1337	0.1678	0.2021	-0.06
Mof_Zn	Zn	0.37394	0.39824	0.43851	1.164
Mof_Zn	Zn	0.58422	0.12742	0.58832	1.16
Mof_I 	I 	0.39151	0.25817	0.40267	-0.397
Mof_I 	I 	0.52742	0.15761	0.62554	-0.362
Mof_N 	N 	0.42053	0.4846	0.44203	-0.279
Mof_C 	C 	0.43478	0.5338	0.4771	0.077
Mof_H 	H 	0.4228	0.5296	0.502	-0.01
Mof_C 	C 	0.46646	0.5913	0.4789	-0.13
Mof_H 	H 	0.4756	0.6264	0.5045	0.078
Mof_C 	C 	0.48436	0.5971	0.4438	0.052
Mof_C 	C 	0.4678	0.5512	0.4058	-0.125
Mof_H 	H 	0.478	0.5573	0.3797	0.086
Mof_C 	C 	0.4357	0.496	0.4068	0.077
Mof_H 	H 	0.4242	0.4649	0.3806	-0.016
Mof_N 	N 	0.57054	0.0196	0.545	-0.271
Mof_C 	C 	0.53868	0.9692	0.5441	0.065
Mof_H 	H 	0.5203	0.9868	0.5614	-0.008
Mof_C 	C 	0.53171	0.892	0.5187	-0.111
Mof_H 	H 	0.5088	0.8571	0.5186	0.066
Mof_C 	C 	0.55829	0.8659	0.4934	0.047
Mof_C 	C 	0.591	0.9188	0.4936	-0.113
Mof_H 	H 	0.6097	0.903	0.4764	0.078
Mof_C 	C 	0.5957	0.9959	0.5198	0.064
Mof_H 	H 	0.6178	0.0334	0.5196	-0.012
Mof_N 	N 	0.6397	0.6542	0.3181	-0.296
Mof_C 	C 	0.6088	0.6058	0.3185	0.098
Mof_H 	H 	0.6028	0.5585	0.2975	-0.029
Mof_C 	C 	0.584	0.6191	0.3475	-0.137
Mof_H 	H 	0.5611	0.5832	0.3456	0.089
Mof_C 	C 	0.5927	0.6844	0.3791	0.073
Mof_C 	C 	0.6268	0.7309	0.3819	-0.122
Mof_H 	H 	0.6348	0.774	0.4046	0.085
Mof_C 	C 	0.6498	0.7138	0.3508	0.069
Mof_H 	H 	0.6737	0.7461	0.3528	-0.017
Mof_C 	C 	0.51804	0.6582	0.4432	0.095
Mof_N 	N 	0.52409	0.7253	0.47178	-0.15
Mof_C 	C 	0.55215	0.7826	0.46584	0.094
Mof_N 	N 	0.5747	0.7739	0.43636	-0.137
Mof_C 	C 	0.56793	0.7002	0.4114	0.1
Mof_N 	N 	0.53883	0.6411	0.41254	-0.135
Mof_N 	N 	0.62338	0.061	0.63738	-0.271
Mof_C 	C 	0.6187	0.9733	0.643	0.077
Mof_H 	H 	0.5997	0.9418	0.6221	-0.002
Mof_C 	C 	0.6398	0.9257	0.6775	-0.124
Mof_H 	H 	0.6356	0.8626	0.6802	0.097
Mof_C 	C 	0.66706	0.97	0.7081	0.062
Mof_C 	C 	0.67273	0.0608	0.7022	-0.127
Mof_H 	H 	0.6916	0.0936	0.7225	0.071
Mof_C 	C 	0.6504	0.1038	0.6659	0.072
Mof_H 	H 	0.6548	0.1663	0.6615	-0.016
Mof_N 	N 	0.68477	0.5022	0.7752	-0.293
Mof_C 	C 	0.7149	0.5352	0.8023	0.076
Mof_H 	H 	0.7324	0.4946	0.82	-0.021
Mof_C 	C 	0.7224	0.6283	0.8064	-0.126
Mof_H 	H 	0.7444	0.6508	0.8266	0.08
Mof_C 	C 	0.69703	0.6861	0.78	0.062
Mof_C 	C 	0.6655	0.6507	0.7515	-0.124
Mof_H 	H 	0.6474	0.6892	0.7332	0.086
Mof_C 	C 	0.6606	0.5568	0.7498	0.074
Mof_H 	H 	0.6392	0.5318	0.7296	-0.02
Mof_N 	N 	0.83124	0.0384	0.89309	-0.274
Mof_C 	C 	0.823	0.9514	0.8979	0.073
Mof_H 	H 	0.8384	0.9192	0.9217	-0.006
Mof_C 	C 	0.7937	0.9056	0.8705	-0.122
Mof_H 	H 	0.7889	0.8434	0.8751	0.084
Mof_C 	C 	0.77115	0.9532	0.83593	0.046
Mof_C 	C 	0.78	0.0425	0.8302	-0.125
Mof_H 	H 	0.7656	0.0761	0.8063	0.089
Mof_C 	C 	0.80989	0.0828	0.8594	0.069
Mof_H 	H 	0.8155	0.1448	0.8554	-0.001
Mof_C 	C 	0.69009	0.9185	0.74545	0.098
Mof_N 	N 	0.68074	0.8315	0.7482	-0.133
Mof_C 	C 	0.70395	0.7851	0.77996	0.099
Mof_N 	N 	0.73312	0.8207	0.80994	-0.142
Mof_C 	C 	0.73917	0.9081	0.80434	0.085
Mof_N 	N 	0.71935	0.9606	0.77234	-0.143
Mof_I 	I 	0.62121	0.2399	0.55112	-0.106
Mof_I 	I 	0.3536	0.3969	0.50971	-0.107
Mof_Zn	Zn	0.66964	0.3612	0.768	0.624
Mof_I 	I 	0.73179	0.272	0.79328	-0.016
Mof_I 	I 	0.62581	0.3463	0.69452	-0.329
Mof_Zn	Zn	0.6799	0.3683	0.7767	0.632
Mof_I 	I 	0.7426	0.2868	0.8059	-0.364
Mof_I 	I 	0.6338	0.2249	0.5539	-0.235
Mof_I 	I 	0.34881	0.4154	0.51114	-0.227
Mof_I 	I 	0.6337	0.3322	0.7021	-0.06
Mof_Zn	Zn	0.87394	0.89824	0.43851	1.164
Mof_Zn	Zn	0.08422	0.62742	0.58832	1.16
Mof_I 	I 	0.89151	0.75817	0.40267	-0.397
Mof_I 	I 	0.02742	0.65761	0.62554	-0.362
Mof_N 	N 	0.92053	0.9846	0.44203	-0.279
Mof_C 	C 	0.93478	0.0338	0.4771	0.077
Mof_H 	H 	0.9228	0.0296	0.502	-0.01
Mof_C 	C 	0.96646	0.0913	0.4789	-0.13
Mof_H 	H 	0.9756	0.1264	0.5045	0.078
Mof_C 	C 	0.98436	0.0971	0.4438	0.052
Mof_C 	C 	0.9678	0.0512	0.4058	-0.125
Mof_H 	H 	0.978	0.0573	0.3797	0.086
Mof_C 	C 	0.9357	0.996	0.4068	0.077
Mof_H 	H 	0.9242	0.9649	0.3806	-0.016
Mof_N 	N 	0.07054	0.5196	0.545	-0.271
Mof_C 	C 	0.03868	0.4692	0.5441	0.065
Mof_H 	H 	0.0203	0.4868	0.5614	-0.008
Mof_C 	C 	0.03171	0.392	0.5187	-0.111
Mof_H 	H 	0.0088	0.3571	0.5186	0.066
Mof_C 	C 	0.05829	0.3659	0.4934	0.047
Mof_C 	C 	0.091	0.4188	0.4936	-0.113
Mof_H 	H 	0.1097	0.403	0.4764	0.078
Mof_C 	C 	0.0957	0.4959	0.5198	0.065
Mof_H 	H 	0.1178	0.5334	0.5196	-0.012
Mof_N 	N 	0.1397	0.1542	0.3181	-0.296
Mof_C 	C 	0.1088	0.1058	0.3185	0.098
Mof_H 	H 	0.1028	0.0585	0.2975	-0.029
Mof_C 	C 	0.084	0.1191	0.3475	-0.137
Mof_H 	H 	0.0611	0.0832	0.3456	0.089
Mof_C 	C 	0.0927	0.1844	0.3791	0.073
Mof_C 	C 	0.1268	0.2309	0.3819	-0.122
Mof_H 	H 	0.1348	0.274	0.4046	0.085
Mof_C 	C 	0.1498	0.2138	0.3508	0.069
Mof_H 	H 	0.1737	0.2461	0.3528	-0.017
Mof_C 	C 	0.01804	0.1582	0.4432	0.095
Mof_N 	N 	0.02409	0.2253	0.47178	-0.15
Mof_C 	C 	0.05215	0.2826	0.46584	0.094
Mof_N 	N 	0.0747	0.2739	0.43636	-0.137
Mof_C 	C 	0.06793	0.2002	0.4114	0.1
Mof_N 	N 	0.03883	0.1411	0.41254	-0.135
Mof_N 	N 	0.12338	0.561	0.63738	-0.271
Mof_C 	C 	0.1187	0.4733	0.643	0.078
Mof_H 	H 	0.0997	0.4418	0.6221	-0.002
Mof_C 	C 	0.1398	0.4257	0.6775	-0.125
Mof_H 	H 	0.1356	0.3626	0.6802	0.097
Mof_C 	C 	0.16706	0.47	0.7081	0.063
Mof_C 	C 	0.17273	0.5608	0.7022	-0.128
Mof_H 	H 	0.1916	0.5936	0.7225	0.071
Mof_C 	C 	0.1504	0.6038	0.6659	0.072
Mof_H 	H 	0.1548	0.6663	0.6615	-0.016
Mof_N 	N 	0.18477	0.0022	0.7752	-0.293
Mof_C 	C 	0.2149	0.0352	0.8023	0.077
Mof_H 	H 	0.2324	0.9946	0.82	-0.021
Mof_C 	C 	0.2224	0.1283	0.8064	-0.127
Mof_H 	H 	0.2444	0.1508	0.8266	0.08
Mof_C 	C 	0.19703	0.1861	0.78	0.062
Mof_C 	C 	0.1655	0.1507	0.7515	-0.125
Mof_H 	H 	0.1474	0.1892	0.7332	0.086
Mof_C 	C 	0.1606	0.0568	0.7498	0.074
Mof_H 	H 	0.1392	0.0318	0.7296	-0.02
Mof_N 	N 	0.33124	0.5384	0.89309	-0.274
Mof_C 	C 	0.323	0.4514	0.8979	0.073
Mof_H 	H 	0.3384	0.4192	0.9217	-0.006
Mof_C 	C 	0.2937	0.4056	0.8705	-0.123
Mof_H 	H 	0.2889	0.3434	0.8751	0.084
Mof_C 	C 	0.27115	0.4532	0.83593	0.046
Mof_C 	C 	0.28	0.5425	0.8302	-0.125
Mof_H 	H 	0.2656	0.5761	0.8063	0.089
Mof_C 	C 	0.30989	0.5828	0.8594	0.07
Mof_H 	H 	0.3155	0.6448	0.8554	-0.001
Mof_C 	C 	0.19009	0.4185	0.74545	0.098
Mof_N 	N 	0.18074	0.3315	0.7482	-0.133
Mof_C 	C 	0.20395	0.2851	0.77996	0.099
Mof_N 	N 	0.23312	0.3207	0.80994	-0.142
Mof_C 	C 	0.23917	0.4081	0.80434	0.085
Mof_N 	N 	0.21935	0.4606	0.77234	-0.143
Mof_I 	I 	0.12121	0.7399	0.55112	-0.106
Mof_I 	I 	0.8536	0.8969	0.50971	-0.107
Mof_Zn	Zn	0.16964	0.8612	0.768	0.624
Mof_I 	I 	0.23179	0.772	0.79328	-0.016
Mof_I 	I 	0.12581	0.8463	0.69452	-0.329
Mof_Zn	Zn	0.1799	0.8683	0.7767	0.632
Mof_I 	I 	0.2426	0.7868	0.8059	-0.364
Mof_I 	I 	0.1338	0.7249	0.5539	-0.235
Mof_I 	I 	0.84881	0.9154	0.51114	-0.227
Mof_I 	I 	0.1337	0.8322	0.7021	-0.06
_end
