data_functionalizedCrystal
_audit_creation_method	'EQeq! by Chris Wilmer'
_symmetry_space_group_name_H-M	'P1'
_symmetry_Int_Tables_number	1
_symmetry_cell_setting	triclinic
loop_
_symmetry_equiv_pos_as_xyz
  x,y,z
_cell_length_a	10.0388
_cell_length_b	14.2291
_cell_length_c	10.3413
_cell_angle_alpha	92.449
_cell_angle_beta	90
_cell_angle_gamma	90
loop_
_atom_site_label
_atom_site_type_symbol
_atom_site_fract_x
_atom_site_fract_y
_atom_site_fract_z
_atom_site_charge
Mof_Cu	Cu	0.24699	0.28248	0.9245	0.935
Mof_Cu	Cu	0.2329	0.78686	0.9286	0.877
Mof_Cu	Cu	0.88663	0.77353	0.70532	0.912
Mof_Cu	Cu	0.40903	0.78041	0.65767	0.925
Mof_Cu	Cu	0.27701	0.66725	0.40975	0.911
Mof_Cu	Cu	0.26534	0.87698	0.43944	0.928
Mof_Cu	Cu	0.25772	0.28617	0.43585	0.954
Mof_Cu	Cu	0.75301	0.28248	0.4245	0.955
Mof_Cu	Cu	0.7671	0.78686	0.4286	0.923
Mof_Cu	Cu	0.11337	0.77353	0.20532	0.918
Mof_Cu	Cu	0.59097	0.78041	0.15767	0.948
Mof_Cu	Cu	0.72299	0.66725	0.90975	0.893
Mof_Cu	Cu	0.73466	0.87698	0.93944	0.902
Mof_Cu	Cu	0.74228	0.28617	0.93585	0.929
Mof_H 	H 	0.3678	0.486	0.7776	0.047
Mof_H 	H 	0.1759	0.5178	0.6115	0.088
Mof_H 	H 	0.0043	0.4513	0.7103	0.08
Mof_H 	H 	0.0627	0.5044	0.9691	0.047
Mof_H 	H 	0.123	0.0929	0.0944	0.076
Mof_H 	H 	0.3144	0.0526	0.2519	0.104
Mof_H 	H 	0.4951	0.1058	0.1483	0.081
Mof_H 	H 	0.4273	0.0647	0.8909	0.086
Mof_H 	H 	0.034	0.829	0.028	0.153
Mof_H 	H 	0.925	0.75	0.934	0.173
Mof_H 	H 	0.407	0.871	0.853	0.18
Mof_H 	H 	0.48	0.777	0.446	0.227
Mof_H 	H 	0.6322	0.486	0.2776	0.061
Mof_H 	H 	0.8241	0.5178	0.1115	0.116
Mof_H 	H 	0.9957	0.4513	0.2103	0.096
Mof_H 	H 	0.9373	0.5044	0.4691	0.079
Mof_H 	H 	0.877	0.0929	0.5944	0.084
Mof_H 	H 	0.6856	0.0526	0.7519	0.093
Mof_H 	H 	0.5049	0.1058	0.6483	0.079
Mof_H 	H 	0.5727	0.0647	0.3909	0.077
Mof_H 	H 	0.966	0.829	0.528	0.141
Mof_H 	H 	0.075	0.75	0.434	0.21
Mof_H 	H 	0.593	0.871	0.353	0.199
Mof_H 	H 	0.52	0.777	0.946	0.214
Mof_C 	C 	0.2768	0.4578	0.7692	-0.008
Mof_C 	C 	0.1787	0.5284	0.7077	-0.121
Mof_C 	C 	0.0458	0.5015	0.7677	-0.1
Mof_C 	C 	0.0828	0.4576	0.8969	-0.019
Mof_C 	C 	0.2812	0.3673	0.6846	0.299
Mof_C 	C 	0.2244	0.6282	0.7433	0.387
Mof_C 	C 	0.9472	0.5816	0.7839	0.377
Mof_C 	C 	0.0012	0.3681	0.9179	0.318
Mof_C 	C 	0.2173	0.1156	0.0972	0.079
Mof_C 	C 	0.3079	0.0415	0.156	-0.145
Mof_C 	C 	0.4446	0.06	0.091	-0.029
Mof_C 	C 	0.4079	0.1094	0.9657	-0.115
Mof_C 	C 	0.2265	0.2099	0.1758	0.305
Mof_C 	C 	0.2557	0.942	0.1232	0.4
Mof_C 	C 	0.5302	0.9738	0.0679	0.463
Mof_C 	C 	0.4897	0.198	0.9482	0.327
Mof_C 	C 	0.7232	0.4578	0.2692	-0.008
Mof_C 	C 	0.8213	0.5284	0.2077	-0.118
Mof_C 	C 	0.9542	0.5015	0.2677	-0.092
Mof_C 	C 	0.9172	0.4576	0.3969	-0.026
Mof_C 	C 	0.7188	0.3673	0.1846	0.297
Mof_C 	C 	0.7756	0.6282	0.2433	0.38
Mof_C 	C 	0.0528	0.5816	0.2839	0.376
Mof_C 	C 	0.9988	0.3681	0.4179	0.329
Mof_C 	C 	0.7827	0.1156	0.5972	-0.023
Mof_C 	C 	0.6921	0.0415	0.656	-0.118
Mof_C 	C 	0.5554	0.06	0.591	-0.091
Mof_C 	C 	0.5921	0.1094	0.4657	-0.033
Mof_C 	C 	0.7735	0.2099	0.6758	0.326
Mof_C 	C 	0.7443	0.942	0.6232	0.398
Mof_C 	C 	0.4698	0.9738	0.5679	0.353
Mof_C 	C 	0.5103	0.198	0.4482	0.321
Mof_Cl	Cl	0.10399	0.97408	0.51113	-0.482
Mof_Cl	Cl	0.62501	0.69012	0.65661	-0.582
Mof_Cl	Cl	0.89601	0.97408	0.01113	-0.388
Mof_Cl	Cl	0.37499	0.69012	0.15661	-0.532
Mof_O 	O 	0.2227	0.4407	0.8948	-0.24
Mof_O 	O 	0.2395	0.292	0.7299	-0.355
Mof_O 	O 	0.3232	0.3759	0.5702	-0.354
Mof_O 	O 	0.28	0.6725	0.6534	-0.472
Mof_O 	O 	0.2079	0.658	0.8571	-0.421
Mof_O 	O 	0.9592	0.6449	0.7032	-0.406
Mof_O 	O 	0.8619	0.5771	0.8722	-0.436
Mof_O 	O 	0.8779	0.3794	0.914	-0.398
Mof_O 	O 	0.0581	0.2912	0.9398	-0.408
Mof_O 	O 	0.0728	0.7675	0.0245	-0.472
Mof_O 	O 	0.848	0.7725	0.8899	-0.668
Mof_O 	O 	0.2664	0.1266	0.968	-0.278
Mof_O 	O 	0.2582	0.2832	0.1196	-0.302
Mof_O 	O 	0.2006	0.2036	0.294	-0.349
Mof_O 	O 	0.2082	0.8964	0.2132	-0.465
Mof_O 	O 	0.265	0.9144	0.0059	-0.356
Mof_O 	O 	0.5321	0.9158	0.157	-0.424
Mof_O 	O 	0.5939	0.9662	0.9622	-0.492
Mof_O 	O 	0.6131	0.1894	0.9698	-0.4
Mof_O 	O 	0.4365	0.271	0.9085	-0.412
Mof_O 	O 	0.3959	0.8052	0.84	-0.585
Mof_O 	O 	0.3894	0.7701	0.4711	-0.661
Mof_O 	O 	0.7773	0.4407	0.3948	-0.217
Mof_O 	O 	0.7605	0.292	0.2299	-0.334
Mof_O 	O 	0.6768	0.3759	0.0702	-0.294
Mof_O 	O 	0.72	0.6725	0.1534	-0.433
Mof_O 	O 	0.7921	0.658	0.3571	-0.391
Mof_O 	O 	0.0408	0.6449	0.2032	-0.385
Mof_O 	O 	0.1381	0.5771	0.3722	-0.408
Mof_O 	O 	0.1221	0.3794	0.414	-0.367
Mof_O 	O 	0.9419	0.2912	0.4398	-0.375
Mof_O 	O 	0.9272	0.7675	0.5245	-0.531
Mof_O 	O 	0.152	0.7725	0.3899	-0.658
Mof_O 	O 	0.7336	0.1266	0.468	-0.209
Mof_O 	O 	0.7418	0.2832	0.6196	-0.363
Mof_O 	O 	0.7994	0.2036	0.794	-0.369
Mof_O 	O 	0.7918	0.8964	0.7132	-0.477
Mof_O 	O 	0.735	0.9144	0.5059	-0.412
Mof_O 	O 	0.4679	0.9158	0.657	-0.416
Mof_O 	O 	0.4061	0.9662	0.4622	-0.398
Mof_O 	O 	0.3869	0.1894	0.4698	-0.356
Mof_O 	O 	0.5635	0.271	0.4085	-0.383
Mof_O 	O 	0.6041	0.8052	0.34	-0.573
Mof_O 	O 	0.6106	0.7701	0.9711	-0.703
_end
