data_functionalizedCrystal
_audit_creation_method	'EQeq! by Chris Wilmer'
_symmetry_space_group_name_H-M	'P1'
_symmetry_Int_Tables_number	1
_symmetry_cell_setting	triclinic
loop_
_symmetry_equiv_pos_as_xyz
  x,y,z
_cell_length_a	6.6291
_cell_length_b	16.74
_cell_length_c	12.8172
_cell_angle_alpha	90
_cell_angle_beta	90
_cell_angle_gamma	90
loop_
_atom_site_label
_atom_site_type_symbol
_atom_site_fract_x
_atom_site_fract_y
_atom_site_fract_z
_atom_site_charge
Mof_O 	O 	0.16551	0.16834	0.84281	-1.549
Mof_C 	C 	0.8092	0.03541	0.9673	0.029
Mof_O 	O 	0.66551	0.66834	0.34281	-1.54
Mof_C 	C 	0.3092	0.53541	0.4673	0.075
Mof_O 	O 	0.83449	0.33166	0.84281	-1.57
Mof_C 	C 	0.1908	0.46459	0.9673	0.063
Mof_O 	O 	0.33449	0.83166	0.34281	-1.539
Mof_C 	C 	0.6908	0.96459	0.4673	0.055
Mof_O 	O 	0.83449	0.66834	0.15719	-1.57
Mof_C 	C 	0.1908	0.53541	0.0327	0.063
Mof_O 	O 	0.33449	0.16834	0.65719	-1.539
Mof_C 	C 	0.6908	0.03541	0.5327	0.055
Mof_O 	O 	0.16551	0.83166	0.15719	-1.548
Mof_C 	C 	0.8092	0.96459	0.0327	0.03
Mof_O 	O 	0.66551	0.33166	0.65719	-1.539
Mof_C 	C 	0.3092	0.46459	0.5327	0.076
Mof_O 	O 	0.83449	0.83166	0.15719	-1.57
Mof_C 	C 	0.1908	0.96459	0.0327	0.063
Mof_O 	O 	0.33449	0.33166	0.65719	-1.539
Mof_C 	C 	0.6908	0.46459	0.5327	0.055
Mof_O 	O 	0.16551	0.66834	0.15719	-1.548
Mof_C 	C 	0.8092	0.53541	0.0327	0.03
Mof_O 	O 	0.66551	0.16834	0.65719	-1.539
Mof_C 	C 	0.3092	0.03541	0.5327	0.075
Mof_O 	O 	0.16551	0.33166	0.84281	-1.548
Mof_C 	C 	0.8092	0.46459	0.9673	0.03
Mof_O 	O 	0.66551	0.83166	0.34281	-1.539
Mof_C 	C 	0.3092	0.96459	0.4673	0.075
Mof_O 	O 	0.83449	0.16834	0.84281	-1.57
Mof_C 	C 	0.1908	0.03541	0.9673	0.063
Mof_O 	O 	0.33449	0.66834	0.34281	-1.539
Mof_C 	C 	0.6908	0.53541	0.4673	0.055
Mof_Al	Al	0.25	0.25	0.75	6.505
Mof_Al	Al	0.75	0.25	0.75	6.417
Mof_Al	Al	0.75	0.75	0.25	6.417
Mof_Al	Al	0.25	0.75	0.25	6.505
Mof_O 	O 	4.97524e-33	0.25	0.6863	-2.258
Mof_O 	O 	0.5	0.75	0.1863	-2.284
Mof_O 	O 	-1.10368e-32	0.75	0.3137	-2.258
Mof_O 	O 	0.5	0.25	0.8137	-2.284
Mof_C 	C 	6.85718e-33	0.0629	0.9459	-0.261
Mof_C 	C 	2.4057e-32	0.1369	0.8703	1.194
Mof_C 	C 	0.5	0.5629	0.4459	-0.3
Mof_C 	C 	0.5	0.6369	0.3703	1.15
Mof_C 	C 	6.85718e-33	0.4371	0.9459	-0.261
Mof_C 	C 	6.30913e-33	0.3631	0.8703	1.195
Mof_C 	C 	0.5	0.9371	0.4459	-0.3
Mof_C 	C 	0.5	0.8631	0.3703	1.15
Mof_C 	C 	3.71992e-33	0.5629	0.0541	-0.261
Mof_C 	C 	5.37722e-33	0.6369	0.1297	1.195
Mof_C 	C 	0.5	0.0629	0.5541	-0.3
Mof_C 	C 	0.5	0.1369	0.6297	1.15
Mof_C 	C 	3.71992e-33	0.9371	0.0541	-0.261
Mof_C 	C 	5.37722e-33	0.8631	0.1297	1.194
Mof_C 	C 	0.5	0.4371	0.5541	-0.3
Mof_C 	C 	0.5	0.3631	0.6297	1.15
_end
