data_functionalizedCrystal
_audit_creation_method	'EQeq! by Chris Wilmer'
_symmetry_space_group_name_H-M	'P1'
_symmetry_Int_Tables_number	1
_symmetry_cell_setting	triclinic
loop_
_symmetry_equiv_pos_as_xyz
  x,y,z
_cell_length_a	10.6527
_cell_length_b	13.5339
_cell_length_c	14.3994
_cell_angle_alpha	76.9404
_cell_angle_beta	68.2904
_cell_angle_gamma	66.824
loop_
_atom_site_label
_atom_site_type_symbol
_atom_site_fract_x
_atom_site_fract_y
_atom_site_fract_z
_atom_site_charge
Mof_Mn	Mn	0.00328	0.96031	0.89137	0.846
Mof_Mn	Mn	0.35496	0.53969	0.60863	0.865
Mof_Mn	Mn	0.99672	0.03969	0.10863	0.846
Mof_Mn	Mn	0.64504	0.46031	0.39137	0.865
Mof_Mn	Mn	0.27979	0.75	0.75	0.982
Mof_Mn	Mn	0.72021	0.25	0.25	0.982
Mof_H 	H 	0.22436	0.83002	0.15566	0.048
Mof_H 	H 	0.3658	0.68948	0.25656	0.042
Mof_H 	H 	0.40577	0.44573	0.09061	0.046
Mof_H 	H 	0.27921	0.5872	0.98172	0.037
Mof_H 	H 	0.16137	0.82613	0.55683	0.037
Mof_H 	H 	0.83054	0.13484	0.6217	0.041
Mof_H 	H 	0.71004	0.66998	0.34434	0.045
Mof_H 	H 	0.81184	0.81052	0.24344	0.044
Mof_H 	H 	0.44211	0.05427	0.40939	0.045
Mof_H 	H 	0.34813	0.9128	0.51828	0.038
Mof_H 	H 	0.04433	0.67387	0.94317	0.037
Mof_H 	H 	0.08708	0.36516	0.8783	0.041
Mof_H 	H 	0.77564	0.16998	0.84434	0.048
Mof_H 	H 	0.6342	0.31052	0.74344	0.042
Mof_H 	H 	0.59423	0.55427	0.90939	0.046
Mof_H 	H 	0.72079	0.4128	0.01828	0.037
Mof_H 	H 	0.83863	0.17387	0.44317	0.037
Mof_H 	H 	0.16946	0.86516	0.3783	0.041
Mof_H 	H 	0.28996	0.33002	0.65566	0.045
Mof_H 	H 	0.18816	0.18948	0.75656	0.044
Mof_H 	H 	0.55789	0.94573	0.59061	0.045
Mof_H 	H 	0.65187	0.0872	0.48172	0.038
Mof_H 	H 	0.95567	0.32613	0.05683	0.037
Mof_H 	H 	0.91292	0.63484	0.1217	0.041
Mof_C 	C 	0.16735	0.80449	0.99555	0.343
Mof_C 	C 	0.24507	0.71811	0.06065	-0.088
Mof_C 	C 	0.26771	0.74644	0.1395	-0.01
Mof_C 	C 	0.34591	0.66691	0.19707	-0.003
Mof_C 	C 	0.39744	0.5582	0.1793	-0.088
Mof_C 	C 	0.36966	0.52992	0.10308	-0.008
Mof_C 	C 	0.29618	0.60966	0.04262	-0.001
Mof_C 	C 	0.48798	0.47432	0.23944	0.367
Mof_C 	C 	0.9942	0.95582	0.7075	0.333
Mof_C 	C 	0.99586	0.97825	0.60031	-0.084
Mof_C 	C 	0.09155	0.90236	0.53172	-0.012
Mof_C 	C 	0.90411	0.07579	0.56875	-0.007
Mof_C 	C 	0.46739	0.69551	0.50445	0.365
Mof_C 	C 	0.52383	0.78189	0.43935	-0.102
Mof_C 	C 	0.65365	0.75356	0.3605	-0.003
Mof_C 	C 	0.70989	0.83309	0.30293	-0.009
Mof_C 	C 	0.63494	0.9418	0.3207	-0.079
Mof_C 	C 	0.50266	0.97008	0.39692	-0.01
Mof_C 	C 	0.44846	0.89034	0.45738	0.001
Mof_C 	C 	0.70174	0.02568	0.26056	0.354
Mof_C 	C 	0.15752	0.54418	0.7925	0.337
Mof_C 	C 	0.07442	0.52175	0.89969	-0.084
Mof_C 	C 	0.02563	0.59764	0.96828	-0.013
Mof_C 	C 	0.04865	0.42421	0.93125	-0.006
Mof_C 	C 	0.83265	0.19551	0.00445	0.343
Mof_C 	C 	0.75493	0.28189	0.93935	-0.088
Mof_C 	C 	0.73229	0.25356	0.8605	-0.01
Mof_C 	C 	0.65409	0.33309	0.80293	-0.003
Mof_C 	C 	0.60256	0.4418	0.8207	-0.088
Mof_C 	C 	0.63034	0.47008	0.89692	-0.008
Mof_C 	C 	0.70382	0.39034	0.95738	-0.001
Mof_C 	C 	0.51202	0.52568	0.76056	0.367
Mof_C 	C 	0.0058	0.04418	0.2925	0.333
Mof_C 	C 	0.00414	0.02175	0.39969	-0.084
Mof_C 	C 	0.90845	0.09764	0.46828	-0.012
Mof_C 	C 	0.09589	0.92421	0.43125	-0.007
Mof_C 	C 	0.53261	0.30449	0.49555	0.365
Mof_C 	C 	0.47617	0.21811	0.56065	-0.102
Mof_C 	C 	0.34635	0.24644	0.6395	-0.003
Mof_C 	C 	0.29011	0.16691	0.69707	-0.009
Mof_C 	C 	0.36506	0.0582	0.6793	-0.079
Mof_C 	C 	0.49734	0.02992	0.60308	-0.01
Mof_C 	C 	0.55154	0.10966	0.54262	0.001
Mof_C 	C 	0.29826	0.97432	0.73944	0.354
Mof_C 	C 	0.84248	0.45582	0.2075	0.337
Mof_C 	C 	0.92558	0.47825	0.10031	-0.084
Mof_C 	C 	0.97437	0.40236	0.03172	-0.013
Mof_C 	C 	0.95135	0.57579	0.06875	-0.006
Mof_O 	O 	0.09632	0.89862	0.024	-0.415
Mof_O 	O 	0.17002	0.783	0.9135	-0.411
Mof_O 	O 	0.54349	0.37827	0.21543	-0.378
Mof_O 	O 	0.50375	0.50815	0.30751	-0.384
Mof_O 	O 	0.07564	0.8659	0.73626	-0.399
Mof_O 	O 	0.91137	0.02715	0.76729	-0.349
Mof_O 	O 	0.51894	0.60138	0.476	-0.431
Mof_O 	O 	0.36652	0.717	0.5865	-0.415
Mof_O 	O 	0.63719	0.12173	0.28457	-0.375
Mof_O 	O 	0.81941	0.99185	0.19249	-0.374
Mof_O 	O 	0.1778	0.6341	0.76374	-0.4
Mof_O 	O 	0.20581	0.47285	0.73271	-0.356
Mof_O 	O 	0.90368	0.10138	0.976	-0.415
Mof_O 	O 	0.82998	0.217	0.0865	-0.411
Mof_O 	O 	0.45651	0.62173	0.78457	-0.378
Mof_O 	O 	0.49625	0.49185	0.69249	-0.384
Mof_O 	O 	0.92436	0.1341	0.26374	-0.399
Mof_O 	O 	0.08863	0.97285	0.23271	-0.349
Mof_O 	O 	0.48106	0.39862	0.524	-0.431
Mof_O 	O 	0.63348	0.283	0.4135	-0.415
Mof_O 	O 	0.36281	0.87827	0.71543	-0.375
Mof_O 	O 	0.18059	0.00815	0.80751	-0.374
Mof_O 	O 	0.8222	0.3659	0.23626	-0.4
Mof_O 	O 	0.79419	0.52715	0.26729	-0.356
_end
