data_functionalizedCrystal
_audit_creation_method	'EQeq! by Chris Wilmer'
_symmetry_space_group_name_H-M	'P1'
_symmetry_Int_Tables_number	1
_symmetry_cell_setting	triclinic
loop_
_symmetry_equiv_pos_as_xyz
  x,y,z
_cell_length_a	16.2782
_cell_length_b	16.2782
_cell_length_c	30.4992
_cell_angle_alpha	90
_cell_angle_beta	90
_cell_angle_gamma	90
loop_
_atom_site_label
_atom_site_type_symbol
_atom_site_fract_x
_atom_site_fract_y
_atom_site_fract_z
_atom_site_charge
Mof_Zn	Zn	0.63883	0.90996	0.79613	1.216
Mof_Zn	Zn	0.62468	0.886	0.8997	1.23
Mof_Zn	Zn	0.86117	0.59004	0.79613	1.215
Mof_Zn	Zn	0.87532	0.614	0.8997	1.229
Mof_Zn	Zn	0.59004	0.63883	0.79613	1.215
Mof_Zn	Zn	0.614	0.62468	0.8997	1.229
Mof_Zn	Zn	0.90996	0.86117	0.79613	1.215
Mof_Zn	Zn	0.886	0.87532	0.8997	1.229
Mof_Zn	Zn	0.36117	0.40996	0.70387	1.215
Mof_Zn	Zn	0.37532	0.386	0.6003	1.229
Mof_Zn	Zn	0.13883	0.09004	0.70387	1.215
Mof_Zn	Zn	0.12468	0.114	0.6003	1.229
Mof_Zn	Zn	0.40996	0.13883	0.70387	1.215
Mof_Zn	Zn	0.386	0.12468	0.6003	1.229
Mof_Zn	Zn	0.09004	0.36117	0.70387	1.215
Mof_Zn	Zn	0.114	0.37532	0.6003	1.229
Mof_Zn	Zn	0.36117	0.09004	0.20387	1.215
Mof_Zn	Zn	0.37532	0.114	0.1003	1.229
Mof_Zn	Zn	0.13883	0.40996	0.20387	1.215
Mof_Zn	Zn	0.12468	0.386	0.1003	1.229
Mof_Zn	Zn	0.40996	0.36117	0.20387	1.215
Mof_Zn	Zn	0.386	0.37532	0.1003	1.229
Mof_Zn	Zn	0.09004	0.13883	0.20387	1.215
Mof_Zn	Zn	0.114	0.12468	0.1003	1.229
Mof_Zn	Zn	0.63883	0.59004	0.29613	1.215
Mof_Zn	Zn	0.62468	0.614	0.3997	1.229
Mof_Zn	Zn	0.86117	0.90996	0.29613	1.215
Mof_Zn	Zn	0.87532	0.886	0.3997	1.229
Mof_Zn	Zn	0.59004	0.86117	0.29613	1.215
Mof_Zn	Zn	0.614	0.87532	0.3997	1.229
Mof_Zn	Zn	0.90996	0.63883	0.29613	1.215
Mof_Zn	Zn	0.886	0.62468	0.3997	1.229
Mof_H 	H 	0.3876	0.9785	0.9115	0.045
Mof_H 	H 	0.1897	0.0594	0.8447	0.05
Mof_H 	H 	0.4035	0.0179	0.7806	0.028
Mof_H 	H 	0.3199	0.0522	0.9671	0.052
Mof_H 	H 	0.1067	0.9953	0.0288	0.025
Mof_H 	H 	0.0496	0.958	0.9615	0.055
Mof_H 	H 	0.1255	0.9689	0.8976	0.048
Mof_H 	H 	0.7286	0.849	0.8434	0.297
Mof_H 	H 	0.1124	0.5215	0.9115	0.045
Mof_H 	H 	0.3103	0.4406	0.8447	0.05
Mof_H 	H 	0.0965	0.4821	0.7806	0.028
Mof_H 	H 	0.1801	0.4478	0.9671	0.05
Mof_H 	H 	0.3933	0.5047	0.0288	0.023
Mof_H 	H 	0.4504	0.542	0.9615	0.058
Mof_H 	H 	0.3745	0.5311	0.8976	0.047
Mof_H 	H 	0.7714	0.651	0.8434	0.297
Mof_H 	H 	0.5215	0.3876	0.9115	0.045
Mof_H 	H 	0.4406	0.1897	0.8447	0.05
Mof_H 	H 	0.4821	0.4035	0.7806	0.028
Mof_H 	H 	0.4478	0.3199	0.9671	0.05
Mof_H 	H 	0.5047	0.1067	0.0288	0.023
Mof_H 	H 	0.542	0.0496	0.9615	0.058
Mof_H 	H 	0.5311	0.1255	0.8976	0.046
Mof_H 	H 	0.651	0.7286	0.8434	0.297
Mof_H 	H 	0.9785	0.1124	0.9115	0.045
Mof_H 	H 	0.0594	0.3103	0.8447	0.05
Mof_H 	H 	0.0179	0.0965	0.7806	0.028
Mof_H 	H 	0.0522	0.1801	0.9671	0.051
Mof_H 	H 	0.9953	0.3933	0.0288	0.025
Mof_H 	H 	0.958	0.4504	0.9615	0.056
Mof_H 	H 	0.9689	0.3745	0.8976	0.048
Mof_H 	H 	0.849	0.7714	0.8434	0.297
Mof_H 	H 	0.6124	0.4785	0.5885	0.045
Mof_H 	H 	0.8103	0.5594	0.6553	0.05
Mof_H 	H 	0.5965	0.5179	0.7194	0.028
Mof_H 	H 	0.6801	0.5522	0.5329	0.05
Mof_H 	H 	0.8933	0.4953	0.4712	0.023
Mof_H 	H 	0.9504	0.458	0.5385	0.058
Mof_H 	H 	0.8745	0.4689	0.6024	0.047
Mof_H 	H 	0.2714	0.349	0.6566	0.297
Mof_H 	H 	0.8876	0.0215	0.5885	0.045
Mof_H 	H 	0.6897	0.9406	0.6553	0.05
Mof_H 	H 	0.9035	0.9821	0.7194	0.028
Mof_H 	H 	0.8199	0.9478	0.5329	0.051
Mof_H 	H 	0.6067	0.0047	0.4712	0.024
Mof_H 	H 	0.5496	0.042	0.5385	0.057
Mof_H 	H 	0.6255	0.0311	0.6024	0.048
Mof_H 	H 	0.2286	0.151	0.6566	0.297
Mof_H 	H 	0.4785	0.8876	0.5885	0.045
Mof_H 	H 	0.5594	0.6897	0.6553	0.05
Mof_H 	H 	0.5179	0.9035	0.7194	0.028
Mof_H 	H 	0.5522	0.8199	0.5329	0.05
Mof_H 	H 	0.4953	0.6067	0.4712	0.023
Mof_H 	H 	0.458	0.5496	0.5385	0.058
Mof_H 	H 	0.4689	0.6255	0.6024	0.047
Mof_H 	H 	0.349	0.2286	0.6566	0.297
Mof_H 	H 	0.0215	0.6124	0.5885	0.045
Mof_H 	H 	0.9406	0.8103	0.6553	0.05
Mof_H 	H 	0.9821	0.5965	0.7194	0.028
Mof_H 	H 	0.9478	0.6801	0.5329	0.051
Mof_H 	H 	0.0047	0.8933	0.4712	0.024
Mof_H 	H 	0.042	0.9504	0.5385	0.055
Mof_H 	H 	0.0311	0.8745	0.6024	0.048
Mof_H 	H 	0.151	0.2714	0.6566	0.297
Mof_H 	H 	0.6124	0.0215	0.0885	0.045
Mof_H 	H 	0.8103	0.9406	0.1553	0.05
Mof_H 	H 	0.5965	0.9821	0.2194	0.028
Mof_H 	H 	0.6801	0.9478	0.0329	0.052
Mof_H 	H 	0.8933	0.0047	0.9712	0.025
Mof_H 	H 	0.9504	0.042	0.0385	0.055
Mof_H 	H 	0.8745	0.0311	0.1024	0.048
Mof_H 	H 	0.2714	0.151	0.1566	0.297
Mof_H 	H 	0.8876	0.4785	0.0885	0.045
Mof_H 	H 	0.6897	0.5594	0.1553	0.05
Mof_H 	H 	0.9035	0.5179	0.2194	0.028
Mof_H 	H 	0.8199	0.5522	0.0329	0.05
Mof_H 	H 	0.6067	0.4953	0.9712	0.023
Mof_H 	H 	0.5496	0.458	0.0385	0.058
Mof_H 	H 	0.6255	0.4689	0.1024	0.047
Mof_H 	H 	0.2286	0.349	0.1566	0.297
Mof_H 	H 	0.4785	0.6124	0.0885	0.045
Mof_H 	H 	0.5594	0.8103	0.1553	0.05
Mof_H 	H 	0.5179	0.5965	0.2194	0.028
Mof_H 	H 	0.5522	0.6801	0.0329	0.05
Mof_H 	H 	0.4953	0.8933	0.9712	0.023
Mof_H 	H 	0.458	0.9504	0.0385	0.058
Mof_H 	H 	0.4689	0.8745	0.1024	0.046
Mof_H 	H 	0.349	0.2714	0.1566	0.297
Mof_H 	H 	0.0215	0.8876	0.0885	0.045
Mof_H 	H 	0.9406	0.6897	0.1553	0.05
Mof_H 	H 	0.9821	0.9035	0.2194	0.028
Mof_H 	H 	0.9478	0.8199	0.0329	0.051
Mof_H 	H 	0.0047	0.6067	0.9712	0.025
Mof_H 	H 	0.042	0.5496	0.0385	0.056
Mof_H 	H 	0.0311	0.6255	0.1024	0.048
Mof_H 	H 	0.151	0.2286	0.1566	0.297
Mof_H 	H 	0.3876	0.5215	0.4115	0.045
Mof_H 	H 	0.1897	0.4406	0.3447	0.05
Mof_H 	H 	0.4035	0.4821	0.2806	0.028
Mof_H 	H 	0.3199	0.4478	0.4671	0.05
Mof_H 	H 	0.1067	0.5047	0.5288	0.023
Mof_H 	H 	0.0496	0.542	0.4615	0.058
Mof_H 	H 	0.1255	0.5311	0.3976	0.047
Mof_H 	H 	0.7286	0.651	0.3434	0.297
Mof_H 	H 	0.1124	0.9785	0.4115	0.045
Mof_H 	H 	0.3103	0.0594	0.3447	0.05
Mof_H 	H 	0.0965	0.0179	0.2806	0.028
Mof_H 	H 	0.1801	0.0522	0.4671	0.051
Mof_H 	H 	0.3933	0.9953	0.5288	0.024
Mof_H 	H 	0.4504	0.958	0.4615	0.057
Mof_H 	H 	0.3745	0.9689	0.3976	0.048
Mof_H 	H 	0.7714	0.849	0.3434	0.297
Mof_H 	H 	0.5215	0.1124	0.4115	0.045
Mof_H 	H 	0.4406	0.3103	0.3447	0.05
Mof_H 	H 	0.4821	0.0965	0.2806	0.028
Mof_H 	H 	0.4478	0.1801	0.4671	0.05
Mof_H 	H 	0.5047	0.3933	0.5288	0.023
Mof_H 	H 	0.542	0.4504	0.4615	0.058
Mof_H 	H 	0.5311	0.3745	0.3976	0.047
Mof_H 	H 	0.651	0.7714	0.3434	0.297
Mof_H 	H 	0.9785	0.3876	0.4115	0.045
Mof_H 	H 	0.0594	0.1897	0.3447	0.05
Mof_H 	H 	0.0179	0.4035	0.2806	0.028
Mof_H 	H 	0.0522	0.3199	0.4671	0.051
Mof_H 	H 	0.9953	0.1067	0.5288	0.024
Mof_H 	H 	0.958	0.0496	0.4615	0.055
Mof_H 	H 	0.9689	0.1255	0.3976	0.048
Mof_H 	H 	0.849	0.7286	0.3434	0.297
Mof_C 	C 	0.4081	0.9938	0.8461	-0.115
Mof_C 	C 	0.3623	0.9942	0.88474	-0.004
Mof_C 	C 	0.28	0.0172	0.88463	-0.014
Mof_C 	C 	0.2456	0.0425	0.84526	-0.005
Mof_C 	C 	0.2914	0.0436	0.80605	-0.114
Mof_C 	C 	0.3722	0.0184	0.80688	0.052
Mof_C 	C 	0.2511	0.0668	0.76416	0.363
Mof_C 	C 	0.231	0.0124	0.92585	0.013
Mof_C 	C 	0.2647	0.0336	0.96586	-0.019
Mof_C 	C 	0.2193	0.0281	0.00433	-0.11
Mof_C 	C 	0.1383	0.9995	0.00265	0.006
Mof_C 	C 	0.1045	0.9776	0.96275	-0.049
Mof_C 	C 	0.1496	0.984	0.92479	-0.05
Mof_C 	C 	0.2565	0.054	0.0466	0.389
Mof_C 	C 	0.494	0.9606	0.84592	0.394
Mof_C 	C 	0.0919	0.5062	0.8461	-0.113
Mof_C 	C 	0.1377	0.5058	0.88474	-0.005
Mof_C 	C 	0.22	0.4828	0.88463	-0.013
Mof_C 	C 	0.2544	0.4575	0.84526	-0.006
Mof_C 	C 	0.2086	0.4564	0.80605	-0.113
Mof_C 	C 	0.1278	0.4816	0.80688	0.051
Mof_C 	C 	0.2489	0.4332	0.76416	0.363
Mof_C 	C 	0.269	0.4876	0.92585	0.007
Mof_C 	C 	0.2353	0.4664	0.96586	-0.013
Mof_C 	C 	0.2807	0.4719	0.00433	-0.117
Mof_C 	C 	0.3617	0.5005	0.00265	0.015
Mof_C 	C 	0.3955	0.5224	0.96275	-0.056
Mof_C 	C 	0.3504	0.516	0.92479	-0.042
Mof_C 	C 	0.2435	0.446	0.0466	0.391
Mof_C 	C 	0.006	0.5394	0.84592	0.392
Mof_C 	C 	0.5062	0.4081	0.8461	-0.114
Mof_C 	C 	0.5058	0.3623	0.88474	-0.004
Mof_C 	C 	0.4828	0.28	0.88463	-0.013
Mof_C 	C 	0.4575	0.2456	0.84526	-0.006
Mof_C 	C 	0.4564	0.2914	0.80605	-0.113
Mof_C 	C 	0.4816	0.3722	0.80688	0.051
Mof_C 	C 	0.4332	0.2511	0.76416	0.363
Mof_C 	C 	0.4876	0.231	0.92585	0.007
Mof_C 	C 	0.4664	0.2647	0.96586	-0.013
Mof_C 	C 	0.4719	0.2193	0.00433	-0.118
Mof_C 	C 	0.5005	0.1383	0.00265	0.015
Mof_C 	C 	0.5224	0.1045	0.96275	-0.056
Mof_C 	C 	0.516	0.1496	0.92479	-0.042
Mof_C 	C 	0.446	0.2565	0.0466	0.391
Mof_C 	C 	0.5394	0.494	0.84592	0.394
Mof_C 	C 	0.9938	0.0919	0.8461	-0.114
Mof_C 	C 	0.9942	0.1377	0.88474	-0.007
Mof_C 	C 	0.0172	0.22	0.88463	-0.012
Mof_C 	C 	0.0425	0.2544	0.84526	-0.006
Mof_C 	C 	0.0436	0.2086	0.80605	-0.114
Mof_C 	C 	0.0184	0.1278	0.80688	0.053
Mof_C 	C 	0.0668	0.2489	0.76416	0.363
Mof_C 	C 	0.0124	0.269	0.92585	0.011
Mof_C 	C 	0.0336	0.2353	0.96586	-0.017
Mof_C 	C 	0.0281	0.2807	0.00433	-0.112
Mof_C 	C 	0.9995	0.3617	0.00265	0.008
Mof_C 	C 	0.9776	0.3955	0.96275	-0.05
Mof_C 	C 	0.984	0.3504	0.92479	-0.047
Mof_C 	C 	0.054	0.2435	0.0466	0.389
Mof_C 	C 	0.9606	0.006	0.84592	0.385
Mof_C 	C 	0.5919	0.4938	0.6539	-0.114
Mof_C 	C 	0.6377	0.4942	0.61526	-0.004
Mof_C 	C 	0.72	0.5172	0.61537	-0.013
Mof_C 	C 	0.7544	0.5425	0.65474	-0.006
Mof_C 	C 	0.7086	0.5436	0.69395	-0.113
Mof_C 	C 	0.6278	0.5184	0.69312	0.051
Mof_C 	C 	0.7489	0.5668	0.73584	0.363
Mof_C 	C 	0.769	0.5124	0.57415	0.007
Mof_C 	C 	0.7353	0.5336	0.53414	-0.013
Mof_C 	C 	0.7807	0.5281	0.49567	-0.118
Mof_C 	C 	0.8617	0.4995	0.49735	0.015
Mof_C 	C 	0.8955	0.4776	0.53725	-0.055
Mof_C 	C 	0.8504	0.484	0.57521	-0.042
Mof_C 	C 	0.7435	0.554	0.4534	0.391
Mof_C 	C 	0.506	0.4606	0.65408	0.394
Mof_C 	C 	0.9081	0.0062	0.6539	-0.115
Mof_C 	C 	0.8623	0.0058	0.61526	-0.007
Mof_C 	C 	0.78	0.9828	0.61537	-0.011
Mof_C 	C 	0.7456	0.9575	0.65474	-0.006
Mof_C 	C 	0.7914	0.9564	0.69395	-0.114
Mof_C 	C 	0.8722	0.9816	0.69312	0.054
Mof_C 	C 	0.7511	0.9332	0.73584	0.363
Mof_C 	C 	0.731	0.9876	0.57415	0.01
Mof_C 	C 	0.7647	0.9664	0.53414	-0.015
Mof_C 	C 	0.7193	0.9719	0.49567	-0.114
Mof_C 	C 	0.6383	0.0005	0.49735	0.01
Mof_C 	C 	0.6045	0.0224	0.53725	-0.052
Mof_C 	C 	0.6496	0.016	0.57521	-0.047
Mof_C 	C 	0.7565	0.946	0.4534	0.39
Mof_C 	C 	0.994	0.0394	0.65408	0.387
Mof_C 	C 	0.4938	0.9081	0.6539	-0.113
Mof_C 	C 	0.4942	0.8623	0.61526	-0.005
Mof_C 	C 	0.5172	0.78	0.61537	-0.013
Mof_C 	C 	0.5425	0.7456	0.65474	-0.006
Mof_C 	C 	0.5436	0.7914	0.69395	-0.113
Mof_C 	C 	0.5184	0.8722	0.69312	0.051
Mof_C 	C 	0.5668	0.7511	0.73584	0.363
Mof_C 	C 	0.5124	0.731	0.57415	0.007
Mof_C 	C 	0.5336	0.7647	0.53414	-0.013
Mof_C 	C 	0.5281	0.7193	0.49567	-0.118
Mof_C 	C 	0.4995	0.6383	0.49735	0.015
Mof_C 	C 	0.4776	0.6045	0.53725	-0.055
Mof_C 	C 	0.484	0.6496	0.57521	-0.042
Mof_C 	C 	0.554	0.7565	0.4534	0.391
Mof_C 	C 	0.4606	0.994	0.65408	0.393
Mof_C 	C 	0.0062	0.5919	0.6539	-0.115
Mof_C 	C 	0.0058	0.6377	0.61526	-0.005
Mof_C 	C 	0.9828	0.72	0.61537	-0.013
Mof_C 	C 	0.9575	0.7544	0.65474	-0.005
Mof_C 	C 	0.9564	0.7086	0.69395	-0.114
Mof_C 	C 	0.9816	0.6278	0.69312	0.053
Mof_C 	C 	0.9332	0.7489	0.73584	0.363
Mof_C 	C 	0.9876	0.769	0.57415	0.013
Mof_C 	C 	0.9664	0.7353	0.53414	-0.017
Mof_C 	C 	0.9719	0.7807	0.49567	-0.112
Mof_C 	C 	0.0005	0.8617	0.49735	0.008
Mof_C 	C 	0.0224	0.8955	0.53725	-0.05
Mof_C 	C 	0.016	0.8504	0.57521	-0.049
Mof_C 	C 	0.946	0.7435	0.4534	0.389
Mof_C 	C 	0.0394	0.506	0.65408	0.394
Mof_C 	C 	0.5919	0.0062	0.1539	-0.115
Mof_C 	C 	0.6377	0.0058	0.11526	-0.004
Mof_C 	C 	0.72	0.9828	0.11537	-0.014
Mof_C 	C 	0.7544	0.9575	0.15474	-0.005
Mof_C 	C 	0.7086	0.9564	0.19395	-0.114
Mof_C 	C 	0.6278	0.9816	0.19312	0.052
Mof_C 	C 	0.7489	0.9332	0.23584	0.363
Mof_C 	C 	0.769	0.9876	0.07415	0.013
Mof_C 	C 	0.7353	0.9664	0.03414	-0.019
Mof_C 	C 	0.7807	0.9719	0.99567	-0.11
Mof_C 	C 	0.8617	0.0005	0.99735	0.006
Mof_C 	C 	0.8955	0.0224	0.03725	-0.049
Mof_C 	C 	0.8504	0.016	0.07521	-0.05
Mof_C 	C 	0.7435	0.946	0.9534	0.389
Mof_C 	C 	0.506	0.0394	0.15408	0.394
Mof_C 	C 	0.9081	0.4938	0.1539	-0.113
Mof_C 	C 	0.8623	0.4942	0.11526	-0.005
Mof_C 	C 	0.78	0.5172	0.11537	-0.013
Mof_C 	C 	0.7456	0.5425	0.15474	-0.006
Mof_C 	C 	0.7914	0.5436	0.19395	-0.113
Mof_C 	C 	0.8722	0.5184	0.19312	0.051
Mof_C 	C 	0.7511	0.5668	0.23584	0.363
Mof_C 	C 	0.731	0.5124	0.07415	0.007
Mof_C 	C 	0.7647	0.5336	0.03414	-0.013
Mof_C 	C 	0.7193	0.5281	0.99567	-0.117
Mof_C 	C 	0.6383	0.4995	0.99735	0.015
Mof_C 	C 	0.6045	0.4776	0.03725	-0.056
Mof_C 	C 	0.6496	0.484	0.07521	-0.042
Mof_C 	C 	0.7565	0.554	0.9534	0.391
Mof_C 	C 	0.994	0.4606	0.15408	0.392
Mof_C 	C 	0.4938	0.5919	0.1539	-0.114
Mof_C 	C 	0.4942	0.6377	0.11526	-0.004
Mof_C 	C 	0.5172	0.72	0.11537	-0.013
Mof_C 	C 	0.5425	0.7544	0.15474	-0.006
Mof_C 	C 	0.5436	0.7086	0.19395	-0.113
Mof_C 	C 	0.5184	0.6278	0.19312	0.051
Mof_C 	C 	0.5668	0.7489	0.23584	0.363
Mof_C 	C 	0.5124	0.769	0.07415	0.007
Mof_C 	C 	0.5336	0.7353	0.03414	-0.013
Mof_C 	C 	0.5281	0.7807	0.99567	-0.118
Mof_C 	C 	0.4995	0.8617	0.99735	0.015
Mof_C 	C 	0.4776	0.8955	0.03725	-0.056
Mof_C 	C 	0.484	0.8504	0.07521	-0.042
Mof_C 	C 	0.554	0.7435	0.9534	0.391
Mof_C 	C 	0.4606	0.506	0.15408	0.394
Mof_C 	C 	0.0062	0.9081	0.1539	-0.114
Mof_C 	C 	0.0058	0.8623	0.11526	-0.007
Mof_C 	C 	0.9828	0.78	0.11537	-0.012
Mof_C 	C 	0.9575	0.7456	0.15474	-0.006
Mof_C 	C 	0.9564	0.7914	0.19395	-0.114
Mof_C 	C 	0.9816	0.8722	0.19312	0.053
Mof_C 	C 	0.9332	0.7511	0.23584	0.363
Mof_C 	C 	0.9876	0.731	0.07415	0.011
Mof_C 	C 	0.9664	0.7647	0.03414	-0.017
Mof_C 	C 	0.9719	0.7193	0.99567	-0.112
Mof_C 	C 	0.0005	0.6383	0.99735	0.008
Mof_C 	C 	0.0224	0.6045	0.03725	-0.05
Mof_C 	C 	0.016	0.6496	0.07521	-0.047
Mof_C 	C 	0.946	0.7565	0.9534	0.389
Mof_C 	C 	0.0394	0.994	0.15408	0.385
Mof_C 	C 	0.4081	0.5062	0.3461	-0.114
Mof_C 	C 	0.3623	0.5058	0.38474	-0.004
Mof_C 	C 	0.28	0.4828	0.38463	-0.013
Mof_C 	C 	0.2456	0.4575	0.34526	-0.006
Mof_C 	C 	0.2914	0.4564	0.30605	-0.113
Mof_C 	C 	0.3722	0.4816	0.30688	0.051
Mof_C 	C 	0.2511	0.4332	0.26416	0.363
Mof_C 	C 	0.231	0.4876	0.42585	0.007
Mof_C 	C 	0.2647	0.4664	0.46586	-0.013
Mof_C 	C 	0.2193	0.4719	0.50433	-0.118
Mof_C 	C 	0.1383	0.5005	0.50265	0.015
Mof_C 	C 	0.1045	0.5224	0.46275	-0.055
Mof_C 	C 	0.1496	0.516	0.42479	-0.042
Mof_C 	C 	0.2565	0.446	0.5466	0.391
Mof_C 	C 	0.494	0.5394	0.34592	0.394
Mof_C 	C 	0.0919	0.9938	0.3461	-0.115
Mof_C 	C 	0.1377	0.9942	0.38474	-0.007
Mof_C 	C 	0.22	0.0172	0.38463	-0.011
Mof_C 	C 	0.2544	0.0425	0.34526	-0.006
Mof_C 	C 	0.2086	0.0436	0.30605	-0.114
Mof_C 	C 	0.1278	0.0184	0.30688	0.054
Mof_C 	C 	0.2489	0.0668	0.26416	0.363
Mof_C 	C 	0.269	0.0124	0.42585	0.01
Mof_C 	C 	0.2353	0.0336	0.46586	-0.015
Mof_C 	C 	0.2807	0.0281	0.50433	-0.114
Mof_C 	C 	0.3617	0.9995	0.50265	0.01
Mof_C 	C 	0.3955	0.9776	0.46275	-0.052
Mof_C 	C 	0.3504	0.984	0.42479	-0.047
Mof_C 	C 	0.2435	0.054	0.5466	0.39
Mof_C 	C 	0.006	0.9606	0.34592	0.387
Mof_C 	C 	0.5062	0.0919	0.3461	-0.113
Mof_C 	C 	0.5058	0.1377	0.38474	-0.005
Mof_C 	C 	0.4828	0.22	0.38463	-0.013
Mof_C 	C 	0.4575	0.2544	0.34526	-0.006
Mof_C 	C 	0.4564	0.2086	0.30605	-0.113
Mof_C 	C 	0.4816	0.1278	0.30688	0.051
Mof_C 	C 	0.4332	0.2489	0.26416	0.363
Mof_C 	C 	0.4876	0.269	0.42585	0.007
Mof_C 	C 	0.4664	0.2353	0.46586	-0.013
Mof_C 	C 	0.4719	0.2807	0.50433	-0.118
Mof_C 	C 	0.5005	0.3617	0.50265	0.015
Mof_C 	C 	0.5224	0.3955	0.46275	-0.055
Mof_C 	C 	0.516	0.3504	0.42479	-0.042
Mof_C 	C 	0.446	0.2435	0.5466	0.391
Mof_C 	C 	0.5394	0.006	0.34592	0.393
Mof_C 	C 	0.9938	0.4081	0.3461	-0.115
Mof_C 	C 	0.9942	0.3623	0.38474	-0.005
Mof_C 	C 	0.0172	0.28	0.38463	-0.013
Mof_C 	C 	0.0425	0.2456	0.34526	-0.005
Mof_C 	C 	0.0436	0.2914	0.30605	-0.114
Mof_C 	C 	0.0184	0.3722	0.30688	0.053
Mof_C 	C 	0.0668	0.2511	0.26416	0.363
Mof_C 	C 	0.0124	0.231	0.42585	0.013
Mof_C 	C 	0.0336	0.2647	0.46586	-0.017
Mof_C 	C 	0.0281	0.2193	0.50433	-0.112
Mof_C 	C 	0.9995	0.1383	0.50265	0.008
Mof_C 	C 	0.9776	0.1045	0.46275	-0.05
Mof_C 	C 	0.984	0.1496	0.42479	-0.049
Mof_C 	C 	0.054	0.2565	0.5466	0.389
Mof_C 	C 	0.9606	0.494	0.34592	0.394
Mof_O 	O 	0.2916	0.0902	0.73184	-0.479
Mof_O 	O 	0.1732	0.0585	0.76293	-0.462
Mof_O 	O 	0.3337	0.0611	0.04762	-0.48
Mof_O 	O 	0.2141	0.067	0.07984	-0.535
Mof_O 	O 	0.67742	0.8506	0.84701	-0.836
Mof_O 	O 	0.52438	0.9437	0.80957	-0.495
Mof_O 	O 	0.5286	0.9523	0.88272	-0.496
Mof_O 	O 	0.2084	0.4098	0.73184	-0.479
Mof_O 	O 	0.3268	0.4415	0.76293	-0.462
Mof_O 	O 	0.1663	0.4389	0.04762	-0.48
Mof_O 	O 	0.2859	0.433	0.07984	-0.537
Mof_O 	O 	0.82258	0.6494	0.84701	-0.836
Mof_O 	O 	0.97562	0.5563	0.80957	-0.494
Mof_O 	O 	0.9714	0.5477	0.88272	-0.495
Mof_O 	O 	0.4098	0.2916	0.73184	-0.479
Mof_O 	O 	0.4415	0.1732	0.76293	-0.462
Mof_O 	O 	0.4389	0.3337	0.04762	-0.48
Mof_O 	O 	0.433	0.2141	0.07984	-0.537
Mof_O 	O 	0.6494	0.67742	0.84701	-0.836
Mof_O 	O 	0.5563	0.52438	0.80957	-0.495
Mof_O 	O 	0.5477	0.5286	0.88272	-0.496
Mof_O 	O 	0.0902	0.2084	0.73184	-0.479
Mof_O 	O 	0.0585	0.3268	0.76293	-0.462
Mof_O 	O 	0.0611	0.1663	0.04762	-0.479
Mof_O 	O 	0.067	0.2859	0.07984	-0.536
Mof_O 	O 	0.8506	0.82258	0.84701	-0.836
Mof_O 	O 	0.9437	0.97562	0.80957	-0.49
Mof_O 	O 	0.9523	0.9714	0.88272	-0.491
Mof_O 	O 	0.7084	0.5902	0.76816	-0.479
Mof_O 	O 	0.8268	0.5585	0.73707	-0.462
Mof_O 	O 	0.6663	0.5611	0.45238	-0.48
Mof_O 	O 	0.7859	0.567	0.42016	-0.537
Mof_O 	O 	0.32258	0.3506	0.65299	-0.836
Mof_O 	O 	0.47562	0.4437	0.69043	-0.495
Mof_O 	O 	0.4714	0.4523	0.61728	-0.496
Mof_O 	O 	0.7916	0.9098	0.76816	-0.479
Mof_O 	O 	0.6732	0.9415	0.73707	-0.462
Mof_O 	O 	0.8337	0.9389	0.45238	-0.479
Mof_O 	O 	0.7141	0.933	0.42016	-0.536
Mof_O 	O 	0.17742	0.1494	0.65299	-0.836
Mof_O 	O 	0.02438	0.0563	0.69043	-0.491
Mof_O 	O 	0.0286	0.0477	0.61728	-0.491
Mof_O 	O 	0.5902	0.7916	0.76816	-0.479
Mof_O 	O 	0.5585	0.6732	0.73707	-0.462
Mof_O 	O 	0.5611	0.8337	0.45238	-0.48
Mof_O 	O 	0.567	0.7141	0.42016	-0.537
Mof_O 	O 	0.3506	0.17742	0.65299	-0.836
Mof_O 	O 	0.4437	0.02438	0.69043	-0.494
Mof_O 	O 	0.4523	0.0286	0.61728	-0.495
Mof_O 	O 	0.9098	0.7084	0.76816	-0.479
Mof_O 	O 	0.9415	0.8268	0.73707	-0.462
Mof_O 	O 	0.9389	0.6663	0.45238	-0.48
Mof_O 	O 	0.933	0.7859	0.42016	-0.536
Mof_O 	O 	0.1494	0.32258	0.65299	-0.836
Mof_O 	O 	0.0563	0.47562	0.69043	-0.495
Mof_O 	O 	0.0477	0.4714	0.61728	-0.496
Mof_O 	O 	0.7084	0.9098	0.26816	-0.479
Mof_O 	O 	0.8268	0.9415	0.23707	-0.462
Mof_O 	O 	0.6663	0.9389	0.95238	-0.48
Mof_O 	O 	0.7859	0.933	0.92016	-0.535
Mof_O 	O 	0.32258	0.1494	0.15299	-0.836
Mof_O 	O 	0.47562	0.0563	0.19043	-0.495
Mof_O 	O 	0.4714	0.0477	0.11728	-0.496
Mof_O 	O 	0.7916	0.5902	0.26816	-0.479
Mof_O 	O 	0.6732	0.5585	0.23707	-0.462
Mof_O 	O 	0.8337	0.5611	0.95238	-0.48
Mof_O 	O 	0.7141	0.567	0.92016	-0.537
Mof_O 	O 	0.17742	0.3506	0.15299	-0.836
Mof_O 	O 	0.02438	0.4437	0.19043	-0.494
Mof_O 	O 	0.0286	0.4523	0.11728	-0.495
Mof_O 	O 	0.5902	0.7084	0.26816	-0.479
Mof_O 	O 	0.5585	0.8268	0.23707	-0.462
Mof_O 	O 	0.5611	0.6663	0.95238	-0.48
Mof_O 	O 	0.567	0.7859	0.92016	-0.537
Mof_O 	O 	0.3506	0.32258	0.15299	-0.836
Mof_O 	O 	0.4437	0.47562	0.19043	-0.495
Mof_O 	O 	0.4523	0.4714	0.11728	-0.496
Mof_O 	O 	0.9098	0.7916	0.26816	-0.479
Mof_O 	O 	0.9415	0.6732	0.23707	-0.462
Mof_O 	O 	0.9389	0.8337	0.95238	-0.479
Mof_O 	O 	0.933	0.7141	0.92016	-0.536
Mof_O 	O 	0.1494	0.17742	0.15299	-0.836
Mof_O 	O 	0.0563	0.02438	0.19043	-0.49
Mof_O 	O 	0.0477	0.0286	0.11728	-0.491
Mof_O 	O 	0.2916	0.4098	0.23184	-0.479
Mof_O 	O 	0.1732	0.4415	0.26293	-0.462
Mof_O 	O 	0.3337	0.4389	0.54762	-0.48
Mof_O 	O 	0.2141	0.433	0.57984	-0.537
Mof_O 	O 	0.67742	0.6494	0.34701	-0.836
Mof_O 	O 	0.52438	0.5563	0.30957	-0.495
Mof_O 	O 	0.5286	0.5477	0.38272	-0.496
Mof_O 	O 	0.2084	0.0902	0.23184	-0.479
Mof_O 	O 	0.3268	0.0585	0.26293	-0.462
Mof_O 	O 	0.1663	0.0611	0.54762	-0.479
Mof_O 	O 	0.2859	0.067	0.57984	-0.536
Mof_O 	O 	0.82258	0.8506	0.34701	-0.836
Mof_O 	O 	0.97562	0.9437	0.30957	-0.491
Mof_O 	O 	0.9714	0.9523	0.38272	-0.491
Mof_O 	O 	0.4098	0.2084	0.23184	-0.479
Mof_O 	O 	0.4415	0.3268	0.26293	-0.462
Mof_O 	O 	0.4389	0.1663	0.54762	-0.48
Mof_O 	O 	0.433	0.2859	0.57984	-0.537
Mof_O 	O 	0.6494	0.82258	0.34701	-0.836
Mof_O 	O 	0.5563	0.97562	0.30957	-0.494
Mof_O 	O 	0.5477	0.9714	0.38272	-0.495
Mof_O 	O 	0.0902	0.2916	0.23184	-0.479
Mof_O 	O 	0.0585	0.1732	0.26293	-0.462
Mof_O 	O 	0.0611	0.3337	0.54762	-0.48
Mof_O 	O 	0.067	0.2141	0.57984	-0.536
Mof_O 	O 	0.8506	0.67742	0.34701	-0.836
Mof_O 	O 	0.9437	0.52438	0.30957	-0.495
Mof_O 	O 	0.9523	0.5286	0.38272	-0.496
_end
